data_crystal

_cell_length_a 26.65500
_cell_length_b 26.65500
_cell_length_c 32.28100
_cell_angle_alpha 65.61550
_cell_angle_beta  65.61550
_cell_angle_gamma 60.00000

_symmetry_space_group_name_	'P 1'
_symmetry_space_group_name_H-M	'P 1'

loop_
_symmetry_equiv_pos_as_xyz
  x,y,z

loop_
_atom_site_label
_atom_site_type_symbol
_atom_site_fract_x
_atom_site_fract_y
_atom_site_fract_z
_atom_site_charge
Zn	Zn	0.32536 0.56203 0.23388 1.22500
Zn	Zn	0.56203 0.87873 0.23388 1.22500
Zn	Zn	0.25000 0.71527 0.25000 1.18900
Zn	Zn	0.85297 0.72475 0.59948 1.20700
Zn	Zn	0.06203 0.82536 0.73388 1.22600
Zn	Zn	0.37846 0.25537 0.76648 1.21900
Zn	Zn	0.83162 0.83162 0.50514 1.21500
Zn	Zn	0.09969 0.75537 0.26648 1.21900
Zn	Zn	0.37873 0.06203 0.73388 1.22600
Zn	Zn	0.59969 0.37846 0.76648 1.21900
Zn	Zn	0.62154 0.74463 0.23352 1.21900
Zn	Zn	0.90031 0.24463 0.73352 1.21900
Zn	Zn	0.87873 0.32536 0.23388 1.22600
Zn	Zn	0.82280 0.85297 0.59948 1.20800
Zn	Zn	0.93797 0.17464 0.26612 1.22600
Zn	Zn	0.66838 0.66838 0.99486 1.21500
Zn	Zn	0.40031 0.62154 0.23352 1.21900
Zn	Zn	0.82536 0.37873 0.73388 1.22600
Zn	Zn	0.28473 0.21527 0.75000 1.19000
Zn	Zn	0.72475 0.82280 0.59948 1.20800
Zn	Zn	0.25537 0.59969 0.76648 1.21900
Zn	Zn	0.78473 0.25000 0.25000 1.19000
Zn	Zn	0.67720 0.77525 0.90052 1.20800
Zn	Zn	0.75537 0.87846 0.26648 1.21900
Zn	Zn	0.22475 0.35297 0.09948 1.20800
Zn	Zn	0.14703 0.27525 0.40052 1.20800
Zn	Zn	0.77525 0.64703 0.90052 1.20800
Zn	Zn	0.62127 0.93797 0.26612 1.22600
Zn	Zn	0.64703 0.67720 0.90052 1.20800
Zn	Zn	0.35297 0.32280 0.09948 1.20800
Zn	Zn	0.17464 0.62127 0.26612 1.22600
Zn	Zn	0.75000 0.28473 0.75000 1.19000
Zn	Zn	0.67464 0.43797 0.76612 1.22600
Zn	Zn	0.12127 0.67464 0.76612 1.22600
Zn	Zn	0.12154 0.90031 0.73352 1.21900
Zn	Zn	0.16838 0.16838 0.49486 1.21500
Zn	Zn	0.24463 0.12154 0.73352 1.21900
Zn	Zn	0.21527 0.75000 0.75000 1.19000
Zn	Zn	0.32280 0.22475 0.09948 1.20800
Zn	Zn	0.87846 0.09969 0.26648 1.21900
Zn	Zn	0.33162 0.33162 0.00514 1.21500
Zn	Zn	0.17720 0.14703 0.40052 1.20800
Zn	Zn	0.27525 0.17720 0.40052 1.20800
Zn	Zn	0.43797 0.12127 0.76612 1.22600
Zn	Zn	0.74463 0.40031 0.23352 1.21900
Zn	Zn	0.71527 0.78473 0.25000 1.19000
H 	H 	0.26380 0.93260 0.00390 0.12200
H 	H 	0.97800 0.37030 0.94690 0.14500
H 	H 	0.07630 0.89500 0.59030 0.07800
H 	H 	0.43550 0.38470 0.29670 0.08100
H 	H 	0.17880 0.39090 0.70810 0.07500
H 	H 	0.44640 0.82970 0.52040 -0.03900
H 	H 	0.05360 0.29650 0.97960 -0.03900
H 	H 	0.57860 0.05920 0.43040 0.13200
H 	H 	0.17910 0.25100 0.56750 0.12200
H 	H 	0.74900 0.99760 0.43250 0.12100
H 	H 	0.09730 0.47960 0.02850 0.07200
H 	H 	0.78140 0.72200 0.98950 -0.04000
H 	H 	0.00690 0.26730 0.58640 0.04700
H 	H 	0.63940 0.76730 0.08640 0.04700
H 	H 	0.21440 0.98230 0.36570 0.11500
H 	H 	0.39500 0.57630 0.09030 0.07700
H 	H 	0.86400 0.31920 0.35270 0.07700
H 	H 	0.92370 0.10500 0.40970 0.07800
H 	H 	0.68690 0.48030 0.94930 0.12900
H 	H 	0.52040 0.60540 0.97150 0.07300
H 	H 	0.54020 0.53460 0.83540 0.00500
H 	H 	0.79650 0.55360 0.47960 -0.03900
H 	H 	0.51970 0.11650 0.05070 0.12900
H 	H 	0.47300 0.79300 0.89980 0.07600
H 	H 	0.27800 0.49290 0.01050 -0.03800
H 	H 	0.77800 0.71860 0.51050 -0.03700
H 	H 	0.06160 0.60500 0.90970 0.07800
H 	H 	0.58980 0.03460 0.33540 0.00500
H 	H 	0.40270 0.10540 0.47150 0.07300
H 	H 	0.98230 0.43760 0.36570 0.11600
H 	H 	0.03460 0.04020 0.33540 0.00600
H 	H 	0.97960 0.59730 0.52850 0.07300
H 	H 	0.67910 0.50240 0.06750 0.12300
H 	H 	0.16460 0.99880 0.01350 -0.02900
H 	H 	0.06820 0.42140 0.56960 0.13200
H 	H 	0.20030 0.73620 0.99610 0.12400
H 	H 	0.11690 0.56450 0.70330 0.08100
H 	H 	0.75100 0.67910 0.06750 0.12400
H 	H 	0.06740 0.20030 0.99610 0.12400
H 	H 	0.99290 0.77800 0.51050 -0.03700
H 	H 	0.60540 0.90270 0.97150 0.07200
H 	H 	0.93520 0.58250 0.61300 -0.00500
H 	H 	0.11240 0.45570 0.81440 0.11000
H 	H 	0.50690 0.63940 0.08640 0.04700
H 	H 	0.53590 0.13600 0.64730 0.07700
H 	H 	0.25100 0.00240 0.56750 0.12100
H 	H 	0.23390 0.95690 0.75380 0.04800
H 	H 	0.55540 0.45690 0.25380 0.04800
H 	H 	0.92920 0.25370 0.94570 0.12600
H 	H 	0.86930 0.93520 0.61300 -0.00400
H 	H 	0.50240 0.75100 0.06750 0.12400
H 	H 	0.54430 0.38250 0.18560 0.11100
H 	H 	0.79520 0.12970 0.55310 0.14500
H 	H 	0.38310 0.88470 0.79670 0.08100
H 	H 	0.18690 0.38350 0.44930 0.12800
H 	H 	0.89460 0.97960 0.52850 0.07300
H 	H 	0.23620 0.70030 0.49610 0.12400
H 	H 	0.61690 0.11530 0.20330 0.08100
H 	H 	0.39460 0.09730 0.02850 0.07200
H 	H 	0.95980 0.41020 0.66460 0.00500
H 	H 	0.46410 0.86400 0.35270 0.07700
H 	H 	0.08250 0.43520 0.11300 -0.00400
H 	H 	0.29650 0.67030 0.97960 -0.03900
H 	H 	0.88470 0.93550 0.79670 0.08100
H 	H 	0.73390 0.55540 0.25380 0.04800
H 	H 	0.95570 0.61240 0.31440 0.11000
H 	H 	0.81990 0.60180 0.10680 -0.02700
H 	H 	0.45570 0.61750 0.81440 0.11100
H 	H 	0.04430 0.38760 0.68560 0.11000
H 	H 	0.57080 0.62860 0.55430 0.12700
H 	H 	0.38350 0.98030 0.44930 0.12800
H 	H 	0.51770 0.28560 0.13430 0.11600
H 	H 	0.07860 0.43180 0.93040 0.13400
H 	H 	0.52850 0.18010 0.89320 -0.02600
H 	H 	0.70030 0.56740 0.49610 0.12400
H 	H 	0.90270 0.52040 0.97150 0.07200
H 	H 	0.38250 0.88760 0.18560 0.11000
H 	H 	0.20350 0.44640 0.52040 -0.03900
H 	H 	0.95910 0.90660 0.62830 0.10400
H 	H 	0.06240 0.51770 0.13430 0.11500
H 	H 	0.99760 0.82090 0.43250 0.12100
H 	H 	0.81920 0.36400 0.85270 0.07700
H 	H 	0.89090 0.67880 0.20810 0.07500
H 	H 	0.37140 0.75370 0.44570 0.12700
H 	H 	0.50710 0.78140 0.98950 -0.03900
H 	H 	0.01770 0.56240 0.63430 0.11600
H 	H 	0.60500 0.42370 0.90970 0.07700
H 	H 	0.43260 0.76380 0.50390 0.12400
H 	H 	0.53960 0.92030 0.82960 0.06000
H 	H 	0.48030 0.88350 0.94930 0.12900
H 	H 	0.66580 0.70700 0.60020 0.07600
H 	H 	0.89820 0.68010 0.39320 -0.02500
H 	H 	0.59730 0.89460 0.52850 0.07300
H 	H 	0.83420 0.47300 0.89980 0.07600
H 	H 	0.43180 0.55920 0.93040 0.13300
H 	H 	0.97300 0.33420 0.39980 0.07600
H 	H 	0.31310 0.51970 0.05070 0.12900
H 	H 	0.82970 0.20350 0.52040 -0.03900
H 	H 	0.39090 0.72220 0.70810 0.07500
H 	H 	0.67880 0.22220 0.20810 0.07500
H 	H 	0.53460 0.08980 0.83540 0.00500
H 	H 	0.24900 0.32090 0.93250 0.12400
H 	H 	0.36930 0.08250 0.11300 -0.00400
H 	H 	0.70480 0.97800 0.94690 0.14400
H 	H 	0.63600 0.03590 0.14730 0.07700
H 	H 	0.02850 0.89820 0.39320 -0.02500
H 	H 	0.55360 0.17030 0.47960 -0.03900
H 	H 	0.56450 0.61530 0.70330 0.08100
H 	H 	0.22200 0.28140 0.48950 -0.03700
H 	H 	0.87140 0.92920 0.94570 0.12500
H 	H 	0.09340 0.49400 0.37170 0.10500
H 	H 	0.32970 0.94640 0.02040 -0.03700
H 	H 	0.43840 0.07630 0.59030 0.07700
H 	H 	0.49760 0.24900 0.93250 0.12400
H 	H 	0.94460 0.76610 0.24620 0.04800
H 	H 	0.04020 0.58980 0.33540 0.00500
H 	H 	0.41750 0.13070 0.38700 -0.00500
H 	H 	0.93550 0.38310 0.79670 0.08100
H 	H 	0.47150 0.81990 0.10680 -0.02600
H 	H 	0.07970 0.28950 0.17040 0.06000
H 	H 	0.00120 0.17690 0.98650 -0.03200
H 	H 	0.36060 0.23270 0.91360 0.04700
H 	H 	0.29970 0.43260 0.50390 0.12400
H 	H 	0.52700 0.20700 0.10020 0.07600
H 	H 	0.96540 0.95980 0.66460 0.00600
H 	H 	0.32120 0.77780 0.79190 0.07500
H 	H 	0.77780 0.10910 0.79190 0.07500
H 	H 	0.99400 0.59340 0.87170 0.10400
H 	H 	0.71050 0.53960 0.82960 0.06000
H 	H 	0.82090 0.74900 0.43250 0.12200
H 	H 	0.62860 0.24630 0.55430 0.12700
H 	H 	0.43760 0.21440 0.36570 0.11600
H 	H 	0.08980 0.54020 0.83540 0.00600
H 	H 	0.96040 0.78950 0.67040 0.06000
H 	H 	0.99880 0.82310 0.01350 -0.03200
H 	H 	0.75370 0.42920 0.44570 0.12700
H 	H 	0.50120 0.33540 0.48650 -0.03200
H 	H 	0.56820 0.44080 0.06960 0.13300
H 	H 	0.32090 0.49760 0.93250 0.12300
H 	H 	0.18010 0.39820 0.89320 -0.02700
H 	H 	0.02200 0.62970 0.05310 0.14500
H 	H 	0.92140 0.56820 0.06960 0.13400
H 	H 	0.82120 0.60910 0.29190 0.07500
H 	H 	0.16580 0.52700 0.10020 0.07600
H 	H 	0.93840 0.39500 0.09030 0.07800
H 	H 	0.42370 0.06160 0.90970 0.07700
H 	H 	0.52200 0.79520 0.55310 0.14500
H 	H 	0.11650 0.31310 0.05070 0.13000
H 	H 	0.42140 0.94080 0.56960 0.13200
H 	H 	0.54090 0.99400 0.87170 0.10400
H 	H 	0.42030 0.03960 0.32960 0.06000
H 	H 	0.11530 0.06450 0.20330 0.08100
H 	H 	0.28560 0.06240 0.13430 0.11600
H 	H 	0.96410 0.81920 0.85270 0.07700
H 	H 	0.87030 0.47800 0.44690 0.14500
H 	H 	0.41020 0.96540 0.66460 0.00500
H 	H 	0.22220 0.89090 0.20810 0.07500
H 	H 	0.92030 0.71050 0.82960 0.06000
H 	H 	0.88310 0.43550 0.29670 0.08100
H 	H 	0.10540 0.02040 0.47150 0.07300
H 	H 	0.00240 0.17910 0.56750 0.12100
H 	H 	0.79300 0.83420 0.89980 0.07600
H 	H 	0.61650 0.01970 0.55070 0.12800
H 	H 	0.55920 0.07860 0.93040 0.13400
H 	H 	0.23270 0.49310 0.91360 0.04700
H 	H 	0.44080 0.92140 0.06960 0.13400
H 	H 	0.83540 0.00120 0.98650 -0.02900
H 	H 	0.33420 0.29300 0.39980 0.07600
H 	H 	0.38760 0.88250 0.68560 0.11000
H 	H 	0.72220 0.17880 0.70810 0.07500
H 	H 	0.47960 0.39460 0.02850 0.07300
H 	H 	0.40660 0.45910 0.12830 0.10500
H 	H 	0.36400 0.96410 0.85270 0.07700
H 	H 	0.73270 0.86060 0.41360 0.04700
H 	H 	0.44460 0.54310 0.74620 0.04800
H 	H 	0.45980 0.46540 0.16460 0.00500
H 	H 	0.11750 0.95570 0.31440 0.11000
H 	H 	0.21050 0.42030 0.32960 0.06000
H 	H 	0.57630 0.93840 0.09030 0.07700
H 	H 	0.93260 0.79970 0.00390 0.12400
H 	H 	0.94640 0.70350 0.02040 -0.03900
H 	H 	0.46040 0.07970 0.17040 0.06000
H 	H 	0.25370 0.87140 0.94570 0.12700
H 	H 	0.67690 0.50120 0.48650 -0.03200
H 	H 	0.93180 0.57860 0.43040 0.13200
H 	H 	0.21860 0.27800 0.01050 -0.04000
H 	H 	0.91020 0.45980 0.16460 0.00600
H 	H 	0.45910 0.00600 0.12830 0.10400
H 	H 	0.49290 0.21860 0.01050 -0.03900
H 	H 	0.99310 0.73270 0.41360 0.04700
H 	H 	0.49310 0.36060 0.91360 0.04700
H 	H 	0.88760 0.54430 0.18560 0.11000
H 	H 	0.02700 0.66580 0.60020 0.07600
H 	H 	0.71860 0.99290 0.51050 -0.03700
H 	H 	0.06450 0.61690 0.20330 0.08100
H 	H 	0.37030 0.70480 0.94690 0.14500
H 	H 	0.20480 0.87030 0.44690 0.14500
H 	H 	0.43520 0.36930 0.11300 -0.00500
H 	H 	0.03590 0.18080 0.14730 0.07700
H 	H 	0.61530 0.11690 0.70330 0.08100
H 	H 	0.01970 0.81310 0.55070 0.12800
H 	H 	0.56240 0.78560 0.63430 0.11600
H 	H 	0.86060 0.99310 0.41360 0.04600
H 	H 	0.66460 0.32310 0.51350 -0.03200
H 	H 	0.47800 0.20480 0.44690 0.14500
H 	H 	0.27780 0.82120 0.29190 0.07500
H 	H 	0.26730 0.13940 0.58640 0.04700
H 	H 	0.68080 0.53590 0.64730 0.07700
H 	H 	0.17690 0.83540 0.98650 -0.03200
H 	H 	0.33540 0.67690 0.48650 -0.03200
H 	H 	0.72200 0.50710 0.98950 -0.03800
H 	H 	0.78950 0.57970 0.67040 0.06000
H 	H 	0.32310 0.49880 0.51350 -0.03200
H 	H 	0.38470 0.88310 0.29670 0.08100
H 	H 	0.06480 0.41750 0.38700 -0.00500
H 	H 	0.00600 0.40660 0.12830 0.10400
H 	H 	0.59340 0.54090 0.87170 0.10500
H 	H 	0.54310 0.26610 0.74620 0.04800
H 	H 	0.10910 0.32120 0.79190 0.07500
H 	H 	0.50600 0.95910 0.62830 0.10500
H 	H 	0.29520 0.02200 0.05310 0.14400
H 	H 	0.46540 0.91020 0.16460 0.00500
H 	H 	0.31920 0.46410 0.35270 0.07700
H 	H 	0.10500 0.56160 0.40970 0.07700
H 	H 	0.00710 0.22200 0.48950 -0.03700
H 	H 	0.05540 0.23390 0.75380 0.04800
H 	H 	0.79970 0.26380 0.00390 0.12400
H 	H 	0.76730 0.50690 0.08640 0.04700
H 	H 	0.94080 0.06820 0.56960 0.13200
H 	H 	0.89500 0.43840 0.59030 0.07700
H 	H 	0.70700 0.02700 0.60020 0.07600
H 	H 	0.91750 0.56480 0.88700 -0.00400
H 	H 	0.13070 0.06480 0.38700 -0.00400
H 	H 	0.12860 0.07080 0.05430 0.12500
H 	H 	0.70350 0.32970 0.02040 -0.03900
H 	H 	0.61240 0.11750 0.31440 0.11000
H 	H 	0.71440 0.93760 0.86570 0.11600
H 	H 	0.49880 0.66460 0.51350 -0.03200
H 	H 	0.76380 0.29970 0.50390 0.12400
H 	H 	0.39820 0.52850 0.89320 -0.02600
H 	H 	0.62970 0.29520 0.05310 0.14500
H 	H 	0.74630 0.12860 0.05430 0.12700
H 	H 	0.12970 0.52200 0.55310 0.14500
H 	H 	0.48230 0.71440 0.86570 0.11600
H 	H 	0.10180 0.31990 0.60680 -0.02500
H 	H 	0.88250 0.04430 0.68560 0.11000
H 	H 	0.61750 0.11240 0.81440 0.11000
H 	H 	0.76610 0.04310 0.24620 0.04800
H 	H 	0.31990 0.97150 0.60680 -0.02500
H 	H 	0.78560 0.01770 0.63430 0.11500
H 	H 	0.68010 0.02850 0.39320 -0.02500
H 	H 	0.56480 0.63070 0.88700 -0.00500
H 	H 	0.49400 0.04090 0.37170 0.10500
H 	H 	0.20700 0.16580 0.10020 0.07600
H 	H 	0.56160 0.92370 0.40970 0.07700
H 	H 	0.04090 0.09340 0.37170 0.10400
H 	H 	0.24630 0.57080 0.55430 0.12700
H 	H 	0.98030 0.18690 0.44930 0.12800
H 	H 	0.03960 0.21050 0.32960 0.06000
H 	H 	0.05920 0.93180 0.43040 0.13200
H 	H 	0.28140 0.00710 0.48950 -0.03700
H 	H 	0.60910 0.27780 0.29190 0.07500
H 	H 	0.60180 0.47150 0.10680 -0.02600
H 	H 	0.26610 0.44460 0.74620 0.04800
H 	H 	0.42920 0.37140 0.44570 0.12700
H 	H 	0.93760 0.48230 0.86570 0.11500
H 	H 	0.29300 0.97300 0.39980 0.07600
H 	H 	0.58250 0.86930 0.61300 -0.00500
H 	H 	0.95690 0.05540 0.75380 0.04800
H 	H 	0.67030 0.05360 0.97960 -0.03700
H 	H 	0.28950 0.46040 0.17040 0.06000
H 	H 	0.57970 0.96040 0.67040 0.06000
H 	H 	0.45690 0.73390 0.25380 0.04800
H 	H 	0.90660 0.50600 0.62830 0.10500
H 	H 	0.17030 0.79650 0.47960 -0.03900
H 	H 	0.73620 0.06740 0.99610 0.12200
H 	H 	0.13600 0.68080 0.64730 0.07700
H 	H 	0.04310 0.94460 0.24620 0.04800
H 	H 	0.56740 0.23620 0.49610 0.12400
H 	H 	0.88350 0.68690 0.94930 0.13000
H 	H 	0.82310 0.16460 0.01350 -0.03200
H 	H 	0.07080 0.74630 0.05430 0.12600
H 	H 	0.97150 0.10180 0.60680 -0.02500
H 	H 	0.63070 0.91750 0.88700 -0.00400
H 	H 	0.81310 0.61650 0.55070 0.12800
H 	H 	0.13940 0.00690 0.58640 0.04600
H 	H 	0.18080 0.63600 0.14730 0.07700
H 	H 	0.02040 0.40270 0.47150 0.07300
C 	C 	0.01456 0.73371 0.80827 0.31400
C 	C 	0.40183 0.93553 0.85591 -0.07800
C 	C 	0.62831 0.95661 0.87197 0.10200
C 	C 	0.62631 0.80821 0.07167 0.01400
C 	C 	0.56970 0.19233 0.72592 -0.07800
C 	C 	0.68216 0.18399 0.21260 -0.05600
C 	C 	0.57875 0.31601 0.28740 -0.05600
C 	C 	0.80767 0.48795 0.27408 -0.07800
C 	C 	0.32485 0.97335 0.16445 0.17500
C 	C 	0.05928 0.52858 0.84146 0.10200
C 	C 	0.59817 0.06447 0.14409 -0.07800
C 	C 	0.78730 0.52900 0.47270 0.21900
C 	C 	0.31784 0.81601 0.78740 -0.05600
C 	C 	0.07293 0.47823 0.82811 -0.19200
C 	C 	0.80515 0.43940 0.26325 0.38800
C 	C 	0.30954 0.99424 0.50558 0.16400
C 	C 	0.02183 0.32843 0.52511 -0.08000
C 	C 	0.23861 0.54931 0.16407 -0.05200
C 	C 	0.53590 0.24990 0.48320 -0.26700
C 	C 	0.31538 0.33308 0.38456 -0.07100
C 	C 	0.03175 0.50595 0.14105 -0.19500
C 	C 	0.08480 0.67130 0.35270 0.37400
C 	C 	0.28542 0.14182 0.49814 0.39200
C 	C 	0.41071 0.08911 0.57377 -0.06400
C 	C 	0.34392 0.64242 0.74104 0.40400
C 	C 	0.57462 0.64182 0.99814 0.39100
C 	C 	0.50250 0.07430 0.36300 -0.17000
C 	C 	0.52183 0.62463 0.02511 -0.07900
C 	C 	0.04801 0.23861 0.16407 -0.05300
C 	C 	0.89120 0.08480 0.35270 0.37400
C 	C 	0.98795 0.30767 0.77408 -0.07800
C 	C 	0.27262 0.34392 0.74104 0.40400
C 	C 	0.73449 0.07662 0.23546 0.01700
C 	C 	0.49381 0.62631 0.07167 0.01400
C 	C 	0.83458 0.70848 0.44846 -0.24400
C 	C 	0.40123 0.54523 0.94711 -0.24900
C 	C 	0.82291 0.02012 0.79697 0.09000
C 	C 	0.26629 0.55654 0.19173 0.31300
C 	C 	0.67515 0.02665 0.83555 0.17500
C 	C 	0.55654 0.98544 0.19173 0.31300
C 	C 	0.45343 0.57662 0.73546 0.01700
C 	C 	0.87561 0.58851 0.49427 0.21400
C 	C 	0.94346 0.23371 0.30827 0.31300
C 	C 	0.08851 0.37561 0.99427 0.21900
C 	C 	0.88006 0.97472 0.79031 -0.06100
C 	C 	0.06970 0.01205 0.22592 -0.07900
C 	C 	0.78542 0.57462 0.99814 0.39100
C 	C 	0.76992 0.51452 0.86584 -0.06300
C 	C 	0.95069 0.26139 0.33593 -0.05100
C 	C 	0.31601 0.81784 0.28740 -0.05600
C 	C 	0.97988 0.64000 0.20303 0.08900
C 	C 	0.15608 0.22738 0.75896 0.40400
C 	C 	0.88913 0.50173 0.00291 -0.05600
C 	C 	0.06020 0.50250 0.36300 -0.16900
C 	C 	0.17875 0.99405 0.35895 -0.19300
C 	C 	0.54161 0.08851 0.99427 0.21700
C 	C 	0.12073 0.97823 0.32811 -0.19000
C 	C 	0.26551 0.92338 0.76454 0.01700
C 	C 	0.80954 0.69064 0.00558 0.17200
C 	C 	0.93030 0.98795 0.77408 -0.07900
C 	C 	0.71458 0.85818 0.50186 0.39200
C 	C 	0.18216 0.42125 0.71260 -0.05600
C 	C 	0.20882 0.04832 0.06264 0.23200
C 	C 	0.96698 0.31538 0.38456 -0.07000
C 	C 	0.99405 0.46825 0.35895 -0.19600
C 	C 	0.06060 0.69485 0.23675 0.38800
C 	C 	0.83056 0.48536 0.45182 -0.29100
C 	C 	0.60880 0.82870 0.14730 0.37400
C 	C 	0.93940 0.30515 0.76325 0.38800
C 	C 	0.47142 0.42932 0.15854 0.10400
C 	C 	0.21458 0.42538 0.00186 0.39100
C 	C 	0.22941 0.40803 0.72880 -0.08900
C 	C 	0.50576 0.19046 0.99442 0.16900
C 	C 	0.22738 0.85758 0.75896 0.40400
C 	C 	0.65608 0.35758 0.25896 0.40400
C 	C 	0.97100 0.71270 0.02730 0.21900
C 	C 	0.55928 0.07068 0.34146 0.10400
C 	C 	0.11994 0.02528 0.20969 -0.06100
C 	C 	0.58892 0.93002 0.02754 0.08600
C 	C 	0.87613 0.83333 0.88081 0.09500
C 	C 	0.02528 0.64509 0.20969 -0.06000
C 	C 	0.40973 0.87613 0.88081 0.09500
C 	C 	0.66709 0.02749 0.42503 0.16700
C 	C 	0.57359 0.41089 0.92623 -0.06400
C 	C 	0.93980 0.49750 0.63700 -0.16900
C 	C 	0.49220 0.80515 0.26325 0.38800
C 	C 	0.92125 0.68216 0.21260 -0.05600
C 	C 	0.24180 0.40940 0.34160 -0.00700
C 	C 	0.03590 0.23100 0.98320 -0.26600
C 	C 	0.00720 0.24180 0.34160 -0.00800
C 	C 	0.17709 0.97988 0.20303 0.09000
C 	C 	0.74990 0.03590 0.98320 -0.26000
C 	C 	0.11961 0.33291 0.57497 0.16700
C 	C 	0.07875 0.31784 0.78740 -0.05600
C 	C 	0.09197 0.27059 0.77120 -0.08900
C 	C 	0.59027 0.12387 0.11919 0.09500
C 	C 	0.29118 0.81978 0.43736 0.23500
C 	C 	0.30984 0.71604 0.47588 0.17100
C 	C 	0.10643 0.40123 0.94711 -0.25200
C 	C 	0.95199 0.76139 0.83593 -0.05300
C 	C 	0.35818 0.21458 0.00186 0.39100
C 	C 	0.99827 0.61087 0.49709 -0.05700
C 	C 	0.39377 0.11087 0.99709 -0.05500
C 	C 	0.67157 0.87537 0.47489 -0.07900
C 	C 	0.76551 0.54657 0.26454 0.01700
C 	C 	0.54493 0.66893 0.54821 -0.25200
C 	C 	0.11087 0.49827 0.99709 -0.05600
C 	C 	0.45168 0.29118 0.43736 0.23500
C 	C 	0.54311 0.62831 0.87197 0.10400
C 	C 	0.96265 0.52665 0.33555 0.17500
C 	C 	0.66692 0.03302 0.61544 -0.07000
C 	C 	0.93002 0.45352 0.02754 0.08600
C 	C 	0.84972 0.76992 0.86584 -0.06300
C 	C 	0.72941 0.13376 0.22880 -0.08900
C 	C 	0.51452 0.84972 0.86584 -0.06300
C 	C 	0.09027 0.66667 0.61919 0.09500
C 	C 	0.85491 0.47472 0.29031 -0.06000
C 	C 	0.66667 0.62387 0.61919 0.09500
C 	C 	0.04648 0.56998 0.47246 0.08600
C 	C 	0.39171 0.15031 0.90367 -0.07400
C 	C 	0.81538 0.46698 0.88456 -0.07100
C 	C 	0.79118 0.95168 0.93736 0.23200
C 	C 	0.45689 0.37169 0.12803 0.10400
C 	C 	0.82485 0.03735 0.66445 0.17300
C 	C 	0.05654 0.76629 0.69173 0.31300
C 	C 	0.53735 0.32485 0.16445 0.17500
C 	C 	0.54657 0.42338 0.26454 0.01700
C 	C 	0.77262 0.14242 0.24104 0.40400
C 	C 	0.08911 0.92641 0.57377 -0.06400
C 	C 	0.06998 0.54648 0.97246 0.08600
C 	C 	0.58851 0.04161 0.49427 0.21400
C 	C 	0.52177 0.37927 0.17189 -0.19300
C 	C 	0.07530 0.24860 0.37250 0.35700
C 	C 	0.36624 0.77059 0.27120 -0.08900
C 	C 	0.38006 0.85491 0.29031 -0.06000
C 	C 	0.19485 0.56060 0.73675 0.38800
C 	C 	0.57662 0.23449 0.73546 0.01700
C 	C 	0.52858 0.57068 0.84146 0.10400
C 	C 	0.58929 0.91089 0.42623 -0.06400
C 	C 	0.16667 0.59027 0.11919 0.09500
C 	C 	0.97790 0.16980 0.48140 -0.24500
C 	C 	0.33308 0.96698 0.38456 -0.07000
C 	C 	0.74860 0.57530 0.87250 0.35700
C 	C 	0.02749 0.88039 0.42503 0.16700
C 	C 	0.70882 0.18022 0.56264 0.23500
C 	C 	0.56447 0.09817 0.64409 -0.07900
C 	C 	0.84392 0.77262 0.24104 0.40400
C 	C 	0.69064 0.49424 0.00558 0.16600
C 	C 	0.25010 0.96410 0.01680 -0.26000
C 	C 	0.50720 0.90940 0.84160 -0.00700
C 	C 	0.90183 0.30673 0.35591 -0.07900
C 	C 	0.29152 0.99152 0.55154 -0.24400
C 	C 	0.33333 0.37613 0.38081 0.09500
C 	C 	0.41520 0.60880 0.14730 0.37400
C 	C 	0.01205 0.69233 0.22592 -0.07800
C 	C 	0.80673 0.40183 0.85591 -0.07800
C 	C 	0.48544 0.05654 0.69173 0.31300
C 	C 	0.02012 0.36000 0.79697 0.08900
C 	C 	0.52749 0.16709 0.92503 0.17100
C 	C 	0.99152 0.16542 0.55154 -0.24400
C 	C 	0.89377 0.99827 0.49709 -0.05700
C 	C 	0.89357 0.59877 0.05289 -0.25200
C 	C 	0.66944 0.26774 0.04818 -0.29100
C 	C 	0.16692 0.18462 0.11544 -0.07000
C 	C 	0.28900 0.97100 0.02730 0.21400
C 	C 	0.98544 0.26629 0.19173 0.31400
C 	C 	0.95507 0.26207 0.95179 -0.25200
C 	C 	0.16542 0.29152 0.55154 -0.24400
C 	C 	0.97472 0.35491 0.79031 -0.06000
C 	C 	0.48536 0.23226 0.45182 -0.29100
C 	C 	0.37369 0.19179 0.92833 0.01400
C 	C 	0.90940 0.74180 0.84160 -0.00700
C 	C 	0.94569 0.34969 0.59633 -0.07500
C 	C 	0.23793 0.54493 0.54821 -0.25200
C 	C 	0.46265 0.67515 0.83555 0.17500
C 	C 	0.81601 0.07875 0.78740 -0.05600
C 	C 	0.46698 0.83308 0.88456 -0.07000
C 	C 	0.44569 0.60829 0.09633 -0.07400
C 	C 	0.54339 0.87169 0.62803 0.10400
C 	C 	0.01452 0.26992 0.36584 -0.06300
C 	C 	0.28730 0.71100 0.97270 0.21900
C 	C 	0.95477 0.09877 0.55289 -0.24700
C 	C 	0.78900 0.21270 0.52730 0.21900
C 	C 	0.42125 0.68399 0.71260 -0.05600
C 	C 	0.30360 0.07530 0.37250 0.35700
C 	C 	0.43553 0.90183 0.35591 -0.07900
C 	C 	0.82870 0.41520 0.14730 0.37400
C 	C 	0.12631 0.99381 0.57167 0.01600
C 	C 	0.66893 0.23793 0.54821 -0.25200
C 	C 	0.73100 0.53590 0.48320 -0.26700
C 	C 	0.92570 0.93980 0.63700 -0.16700
C 	C 	0.98548 0.73008 0.63416 -0.06300
C 	C 	0.26207 0.83107 0.95179 -0.25200
C 	C 	0.95343 0.73449 0.23546 0.01700
C 	C 	0.92932 0.97142 0.65854 0.10000
C 	C 	0.87169 0.95689 0.62803 0.10000
C 	C 	0.28396 0.50176 0.52412 0.17100
C 	C 	0.62073 0.07293 0.82811 -0.19200
C 	C 	0.04523 0.90123 0.44711 -0.24700
C 	C 	0.83291 0.61961 0.07497 0.17300
C 	C 	0.45477 0.89357 0.05289 -0.25000
C 	C 	0.68022 0.20882 0.06264 0.23500
C 	C 	0.05431 0.65031 0.40367 -0.07500
C 	C 	0.17515 0.96265 0.33555 0.17300
C 	C 	0.62463 0.82843 0.02511 -0.07900
C 	C 	0.30936 0.50576 0.99442 0.16600
C 	C 	0.96825 0.49405 0.85895 -0.19500
C 	C 	0.66542 0.49152 0.05154 -0.24700
C 	C 	0.04339 0.45689 0.12803 0.10100
C 	C 	0.67130 0.89120 0.35270 0.37400
C 	C 	0.99381 0.30821 0.57167 0.01500
C 	C 	0.69327 0.56447 0.64409 -0.07800
C 	C 	0.43030 0.80767 0.27408 -0.07800
C 	C 	0.73861 0.54801 0.66407 -0.05200
C 	C 	0.89171 0.05431 0.40367 -0.07500
C 	C 	0.82843 0.52183 0.02511 -0.07900
C 	C 	0.42707 0.87927 0.67189 -0.19300
C 	C 	0.69046 0.00576 0.49442 0.16400
C 	C 	0.12910 0.33020 0.01860 -0.25200
C 	C 	0.52900 0.21100 0.47270 0.21900
C 	C 	0.97335 0.53735 0.16445 0.17400
C 	C 	0.37169 0.04339 0.12803 0.10200
C 	C 	0.42641 0.58911 0.07377 -0.06400
C 	C 	0.33458 0.50848 0.94846 -0.24700
C 	C 	0.83308 0.81538 0.88456 -0.07000
C 	C 	0.45507 0.33107 0.45179 -0.25200
C 	C 	0.64182 0.78542 0.99814 0.39100
C 	C 	0.52210 0.12910 0.01860 -0.25000
C 	C 	0.34969 0.10829 0.59633 -0.07400
C 	C 	0.68399 0.18216 0.71260 -0.05600
C 	C 	0.42538 0.35818 0.00186 0.39100
C 	C 	0.44072 0.92932 0.65854 0.10400
C 	C 	0.16893 0.04493 0.04821 -0.24700
C 	C 	0.69233 0.06970 0.22592 -0.07800
C 	C 	0.38913 0.10623 0.50291 -0.05700
C 	C 	0.39357 0.95477 0.55289 -0.24700
C 	C 	0.95168 0.31978 0.93736 0.23500
C 	C 	0.95352 0.43002 0.52754 0.08600
C 	C 	0.32870 0.10880 0.64730 0.37400
C 	C 	0.37927 0.92707 0.17189 -0.19200
C 	C 	0.52665 0.17515 0.33555 0.17500
C 	C 	0.07359 0.58929 0.42623 -0.06300
C 	C 	0.25140 0.42470 0.12750 0.35700
C 	C 	0.67875 0.96825 0.85895 -0.19600
C 	C 	0.60829 0.84969 0.09633 -0.07400
C 	C 	0.54832 0.70882 0.56264 0.23500
C 	C 	0.65028 0.98548 0.63416 -0.06300
C 	C 	0.21100 0.78730 0.47270 0.21900
C 	C 	0.95661 0.54311 0.87197 0.10100
C 	C 	0.36000 0.82291 0.79697 0.08900
C 	C 	0.82125 0.00595 0.64105 -0.19300
C 	C 	0.80936 0.69046 0.49442 0.16300
C 	C 	0.99280 0.75820 0.65840 -0.00800
C 	C 	0.19233 0.51205 0.72592 -0.07800
C 	C 	0.13376 0.90803 0.22880 -0.08900
C 	C 	0.34972 0.01452 0.36584 -0.06300
C 	C 	0.80821 0.49381 0.07167 0.01400
C 	C 	0.02665 0.46265 0.83555 0.17400
C 	C 	0.18399 0.92125 0.21260 -0.05600
C 	C 	0.49424 0.80954 0.00558 0.16900
C 	C 	0.75140 0.69640 0.62750 0.35700
C 	C 	0.48795 0.43030 0.27408 -0.07800
C 	C 	0.37090 0.97790 0.48140 -0.24500
C 	C 	0.10880 0.91520 0.64730 0.37400
C 	C 	0.76207 0.45507 0.45179 -0.25200
C 	C 	0.15028 0.23008 0.13416 -0.06300
C 	C 	0.85818 0.92538 0.50186 0.39200
C 	C 	0.64242 0.27262 0.74104 0.40400
C 	C 	0.00576 0.80936 0.49442 0.16400
C 	C 	0.59877 0.45477 0.05289 -0.24900
C 	C 	0.90973 0.33333 0.38081 0.09500
C 	C 	0.09877 0.39357 0.55289 -0.24700
C 	C 	0.76139 0.45069 0.83593 -0.05200
C 	C 	0.04931 0.73861 0.66407 -0.05100
C 	C 	0.41089 0.08929 0.92623 -0.06300
C 	C 	0.24860 0.30360 0.37250 0.35700
C 	C 	0.00173 0.38913 0.50291 -0.05700
C 	C 	0.35758 0.72738 0.25896 0.40400
C 	C 	0.83107 0.95507 0.95179 -0.24700
C 	C 	0.45352 0.58892 0.02754 0.08600
C 	C 	0.04161 0.87561 0.49427 0.21400
C 	C 	0.93553 0.80673 0.85591 -0.07800
C 	C 	0.92641 0.41071 0.57377 -0.06300
C 	C 	0.91520 0.32870 0.64730 0.37400
C 	C 	0.32291 0.86000 0.29697 0.08900
C 	C 	0.19046 0.30936 0.99442 0.17200
C 	C 	0.79152 0.66542 0.05154 -0.25100
C 	C 	0.14242 0.84392 0.24104 0.40400
C 	C 	0.71270 0.28900 0.02730 0.21900
C 	C 	0.18462 0.53302 0.11544 -0.07100
C 	C 	0.65031 0.89171 0.40367 -0.07400
C 	C 	0.19179 0.50619 0.92833 0.01400
C 	C 	0.92338 0.04657 0.76454 0.01800
C 	C 	0.01464 0.66944 0.04818 -0.29100
C 	C 	0.75010 0.26900 0.51680 -0.26700
C 	C 	0.55431 0.39171 0.90367 -0.07400
C 	C 	0.51456 0.94346 0.30827 0.31300
C 	C 	0.76774 0.16944 0.54818 -0.29100
C 	C 	0.26992 0.34972 0.36584 -0.06300
C 	C 	0.59197 0.36624 0.27120 -0.08900
C 	C 	0.41108 0.06998 0.97246 0.08600
C 	C 	0.92470 0.75140 0.62750 0.35700
C 	C 	0.95689 0.54339 0.62803 0.10300
C 	C 	0.07662 0.95343 0.23546 0.01800
C 	C 	0.33291 0.97251 0.57497 0.16700
C 	C 	0.12463 0.02183 0.52511 -0.08000
C 	C 	0.45069 0.95199 0.83593 -0.05200
C 	C 	0.40803 0.63376 0.72880 -0.08900
C 	C 	0.50173 0.60623 0.00291 -0.05600
C 	C 	0.42470 0.19640 0.12750 0.35700
C 	C 	0.54801 0.04931 0.66407 -0.05200
C 	C 	0.07462 0.28542 0.49814 0.39200
C 	C 	0.78396 0.19016 0.02412 0.17100
C 	C 	0.23226 0.83056 0.45182 -0.29100
C 	C 	0.50619 0.37369 0.92833 0.01400
C 	C 	0.23371 0.51456 0.30827 0.31300
C 	C 	0.39120 0.17130 0.85270 0.37400
C 	C 	0.59060 0.99280 0.65840 -0.00800
C 	C 	0.49405 0.67875 0.85895 -0.19600
C 	C 	0.99824 0.21604 0.97588 0.17000
C 	C 	0.23449 0.45343 0.73546 0.01700
C 	C 	0.67709 0.14000 0.70303 0.08900
C 	C 	0.97142 0.44072 0.65854 0.10400
C 	C 	0.87927 0.02177 0.67189 -0.19000
C 	C 	0.63376 0.22941 0.72880 -0.08900
C 	C 	0.81784 0.57875 0.28740 -0.05600
C 	C 	0.07068 0.02858 0.34146 0.10000
C 	C 	0.38039 0.52749 0.92503 0.16900
C 	C 	0.53175 0.82125 0.64105 -0.19600
C 	C 	0.45199 0.95069 0.33593 -0.05200
C 	C 	0.94072 0.47142 0.15854 0.10200
C 	C 	0.43002 0.08892 0.52754 0.08600
C 	C 	0.91108 0.04648 0.47246 0.08600
C 	C 	0.21270 0.47100 0.52730 0.21900
C 	C 	0.50848 0.20848 0.94846 -0.24900
C 	C 	0.57068 0.05928 0.84146 0.10200
C 	C 	0.00250 0.56020 0.86300 -0.16600
C 	C 	0.47817 0.37537 0.97489 -0.07900
C 	C 	0.02858 0.55928 0.34146 0.10400
C 	C 	0.21604 0.80984 0.97588 0.17100
C 	C 	0.92538 0.71458 0.50186 0.39200
C 	C 	0.56060 0.50780 0.73675 0.38800
C 	C 	0.56020 0.57430 0.86300 -0.17000
C 	C 	0.17130 0.58480 0.85270 0.37400
C 	C 	0.23008 0.48548 0.13416 -0.06300
C 	C 	0.60623 0.88913 0.00291 -0.05500
C 	C 	0.69640 0.92470 0.62750 0.35700
C 	C 	0.81978 0.45168 0.43736 0.23500
C 	C 	0.42932 0.94072 0.15854 0.10200
C 	C 	0.69485 0.00780 0.23675 0.38800
C 	C 	0.16980 0.37090 0.48140 -0.24500
C 	C 	0.27059 0.86624 0.77120 -0.08900
C 	C 	0.46410 0.75010 0.51680 -0.26700
C 	C 	0.37537 0.17157 0.97489 -0.07900
C 	C 	0.32125 0.03175 0.14105 -0.19600
C 	C 	0.47790 0.87090 0.98140 -0.25000
C 	C 	0.02177 0.42707 0.67189 -0.19300
C 	C 	0.00176 0.78396 0.02412 0.17000
C 	C 	0.56998 0.91108 0.47246 0.08600
C 	C 	0.64509 0.11994 0.20969 -0.06000
C 	C 	0.47988 0.67709 0.70303 0.08900
C 	C 	0.00780 0.06060 0.23675 0.38700
C 	C 	0.32843 0.12463 0.52511 -0.07900
C 	C 	0.06447 0.19327 0.14409 -0.07800
C 	C 	0.44346 0.01456 0.80827 0.31300
C 	C 	0.73371 0.44346 0.80827 0.31300
C 	C 	0.00619 0.69179 0.42833 0.01500
C 	C 	0.23100 0.74990 0.98320 -0.26700
C 	C 	0.43980 0.42570 0.13700 -0.17000
C 	C 	0.62910 0.02210 0.51860 -0.24500
C 	C 	0.51205 0.56970 0.72592 -0.07800
C 	C 	0.50780 0.19485 0.73675 0.38800
C 	C 	0.77059 0.59197 0.27120 -0.08900
C 	C 	0.73793 0.16893 0.04821 -0.25200
C 	C 	0.20848 0.33458 0.94846 -0.25100
C 	C 	0.26900 0.46410 0.51680 -0.26700
C 	C 	0.86624 0.09197 0.77120 -0.08900
C 	C 	0.00848 0.83458 0.44846 -0.24400
C 	C 	0.83333 0.40973 0.88081 0.09500
C 	C 	0.92707 0.52177 0.17189 -0.19200
C 	C 	0.12831 0.04311 0.37197 0.10000
C 	C 	0.33020 0.52210 0.01860 -0.24700
C 	C 	0.47335 0.82485 0.66445 0.17500
C 	C 	0.47472 0.38006 0.29031 -0.06000
C 	C 	0.16944 0.51464 0.54818 -0.29100
C 	C 	0.31978 0.79118 0.93736 0.23500
C 	C 	0.86000 0.52012 0.29697 0.08900
C 	C 	0.19327 0.59817 0.14409 -0.07800
C 	C 	0.91089 0.07359 0.42623 -0.06400
C 	C 	0.90123 0.60643 0.44711 -0.24700
C 	C 	0.49750 0.92570 0.63700 -0.17000
C 	C 	0.16709 0.38039 0.92503 0.17300
C 	C 	0.49152 0.79152 0.05154 -0.24900
C 	C 	0.30673 0.43553 0.35591 -0.07800
C 	C 	0.47251 0.83291 0.07497 0.17100
C 	C 	0.60643 0.04523 0.44711 -0.24700
C 	C 	0.80984 0.99824 0.97588 0.16200
C 	C 	0.84969 0.44569 0.09633 -0.07400
C 	C 	0.52528 0.61994 0.70969 -0.06000
C 	C 	0.71604 0.49824 0.47588 0.17100
C 	C 	0.80360 0.74860 0.87250 0.35700
C 	C 	0.04832 0.68022 0.06264 0.23500
C 	C 	0.99750 0.43980 0.13700 -0.16600
C 	C 	0.25820 0.49280 0.15840 -0.00700
C 	C 	0.97823 0.57293 0.32811 -0.19300
C 	C 	0.72738 0.65608 0.25896 0.40400
C 	C 	0.26139 0.45199 0.33593 -0.05200
C 	C 	0.19064 0.30954 0.50558 0.16300
C 	C 	0.61994 0.14509 0.70969 -0.06000
C 	C 	0.30821 0.12631 0.57167 0.01400
C 	C 	0.90803 0.72941 0.22880 -0.08900
C 	C 	0.42570 0.99750 0.13700 -0.16700
C 	C 	0.54931 0.04801 0.16407 -0.05200
C 	C 	0.10623 0.00173 0.50291 -0.05700
C 	C 	0.14509 0.52528 0.70969 -0.06000
C 	C 	0.58480 0.39120 0.85270 0.37400
C 	C 	0.17157 0.47817 0.97489 -0.07900
C 	C 	0.08929 0.57359 0.92623 -0.06300
C 	C 	0.12387 0.16667 0.11919 0.09500
C 	C 	0.43940 0.49220 0.26325 0.38800
C 	C 	0.58911 0.91071 0.07377 -0.06300
C 	C 	0.04311 0.45661 0.37197 0.10300
C 	C 	0.35491 0.88006 0.79031 -0.06000
C 	C 	0.95839 0.12439 0.50573 0.21400
C 	C 	0.57430 0.00250 0.86300 -0.16700
C 	C 	0.19016 0.00176 0.02412 0.16200
C 	C 	0.04657 0.26551 0.76454 0.01700
C 	C 	0.76629 0.48544 0.69173 0.31300
C 	C 	0.71100 0.02900 0.97270 0.21400
C 	C 	0.73008 0.65028 0.63416 -0.06300
C 	C 	0.97251 0.11961 0.57497 0.16700
C 	C 	0.62387 0.09027 0.61919 0.09500
C 	C 	0.26774 0.01464 0.04818 -0.28800
C 	C 	0.42338 0.76551 0.26454 0.01700
C 	C 	0.85758 0.15608 0.75896 0.40400
C 	C 	0.03735 0.47335 0.66445 0.17500
C 	C 	0.40940 0.00720 0.34160 -0.00800
C 	C 	0.33056 0.73226 0.95182 -0.29100
C 	C 	0.14182 0.07462 0.49814 0.39200
C 	C 	0.98536 0.33056 0.95182 -0.29100
C 	C 	0.45661 0.12831 0.37197 0.10400
C 	C 	0.45839 0.91149 0.00573 0.21700
C 	C 	0.14000 0.47988 0.70303 0.08900
C 	C 	0.88039 0.66709 0.42503 0.16700
C 	C 	0.10829 0.94569 0.59633 -0.07500
C 	C 	0.83020 0.62910 0.51860 -0.24500
C 	C 	0.30767 0.93030 0.77408 -0.07800
C 	C 	0.53302 0.16692 0.11544 -0.07000
C 	C 	0.12439 0.41149 0.50573 0.21400
C 	C 	0.50176 0.69016 0.52412 0.17000
C 	C 	0.37561 0.54161 0.99427 0.21500
C 	C 	0.37613 0.90973 0.38081 0.09500
C 	C 	0.57530 0.80360 0.87250 0.35700
C 	C 	0.33107 0.76207 0.45179 -0.25200
C 	C 	0.49827 0.39377 0.99709 -0.05600
C 	C 	0.19640 0.25140 0.12750 0.35700
C 	C 	0.04493 0.73793 0.04821 -0.25200
C 	C 	0.61961 0.47251 0.07497 0.16900
C 	C 	0.02210 0.83020 0.51860 -0.24500
C 	C 	0.24990 0.73100 0.48320 -0.26700
C 	C 	0.97817 0.67157 0.47489 -0.08000
C 	C 	0.52012 0.32291 0.29697 0.08900
C 	C 	0.99424 0.19064 0.50558 0.16400
C 	C 	0.87537 0.97817 0.47489 -0.08000
C 	C 	0.96410 0.76900 0.01680 -0.26600
C 	C 	0.46825 0.17875 0.35895 -0.19600
C 	C 	0.48548 0.15028 0.13416 -0.06300
C 	C 	0.09060 0.25820 0.15840 -0.00700
C 	C 	0.69179 0.87369 0.42833 0.01400
C 	C 	0.99220 0.93940 0.76325 0.38700
C 	C 	0.51464 0.76774 0.54818 -0.29100
C 	C 	0.54648 0.41108 0.97246 0.08600
C 	C 	0.57293 0.12073 0.32811 -0.19300
C 	C 	0.68462 0.66692 0.61544 -0.07100
C 	C 	0.91149 0.62439 0.00573 0.21900
C 	C 	0.61087 0.89377 0.49709 -0.05700
C 	C 	0.00595 0.53175 0.64105 -0.19600
C 	C 	0.08892 0.95352 0.52754 0.08600
C 	C 	0.70848 0.00848 0.44846 -0.24400
C 	C 	0.76900 0.25010 0.01680 -0.26700
C 	C 	0.50595 0.32125 0.14105 -0.19600
C 	C 	0.91071 0.42641 0.07377 -0.06300
C 	C 	0.03302 0.68462 0.61544 -0.07000
C 	C 	0.49280 0.09060 0.15840 -0.00700
C 	C 	0.64000 0.17709 0.20303 0.08900
C 	C 	0.07430 0.06020 0.36300 -0.16700
C 	C 	0.69016 0.28396 0.52412 0.17100
C 	C 	0.41149 0.95839 0.50573 0.21400
C 	C 	0.73226 0.98536 0.95182 -0.28800
C 	C 	0.47100 0.78900 0.52730 0.21900
C 	C 	0.87369 0.00619 0.42833 0.01600
C 	C 	0.66980 0.47790 0.98140 -0.24700
C 	C 	0.74180 0.50720 0.84160 -0.00700
C 	C 	0.62439 0.45839 0.00573 0.21500
C 	C 	0.54523 0.10643 0.94711 -0.25000
C 	C 	0.87090 0.66980 0.98140 -0.25200
C 	C 	0.49824 0.30984 0.47588 0.17000
C 	C 	0.15031 0.55431 0.90367 -0.07400
C 	C 	0.30515 0.99220 0.76325 0.38800
C 	C 	0.75820 0.59060 0.65840 -0.00700
C 	C 	0.18022 0.54832 0.56264 0.23500
C 	C 	0.02900 0.28730 0.97270 0.21900
C 	C 	0.09817 0.69327 0.64409 -0.07900
C 	C 	0.47823 0.62073 0.82811 -0.19300
N 	N 	0.62094 0.63764 0.60008 -0.08900
N 	N 	0.27385 0.90945 0.31455 -0.08000
N 	N 	0.12094 0.64134 0.10008 -0.08900
N 	N 	0.89380 0.52700 0.52160 -0.10600
N 	N 	0.49785 0.72615 0.68545 -0.08000
N 	N 	0.54374 0.22424 0.31938 -0.09900
N 	N 	0.86236 0.87906 0.89992 -0.09000
N 	N 	0.09055 0.49785 0.68545 -0.08000
N 	N 	0.27576 0.95626 0.18062 -0.09900
N 	N 	0.57248 0.99148 0.00036 -0.08500
N 	N 	0.60620 0.44240 0.97840 -0.10600
N 	N 	0.99148 0.43568 0.00036 -0.08400
N 	N 	0.77576 0.08736 0.68062 -0.09900
N 	N 	0.90945 0.50215 0.31455 -0.08000
N 	N 	0.80787 0.90577 0.91669 -0.11100
N 	N 	0.58736 0.27576 0.18062 -0.09900
N 	N 	0.64134 0.13764 0.10008 -0.08900
N 	N 	0.39380 0.55760 0.02160 -0.10600
N 	N 	0.14134 0.62094 0.60008 -0.08900
N 	N 	0.87906 0.35866 0.89992 -0.08900
N 	N 	0.42752 0.00852 0.99964 -0.08500
N 	N 	0.37906 0.36236 0.39992 -0.08900
N 	N 	0.92752 0.06432 0.49964 -0.08500
N 	N 	0.00215 0.40945 0.81455 -0.08000
N 	N 	0.52700 0.05760 0.52160 -0.10600
N 	N 	0.47300 0.94240 0.47840 -0.10600
N 	N 	0.08736 0.45626 0.68062 -0.09900
N 	N 	0.41264 0.72424 0.81938 -0.09900
N 	N 	0.69213 0.13033 0.58331 -0.11100
N 	N 	0.13764 0.12094 0.10008 -0.09000
N 	N 	0.55760 0.02700 0.02160 -0.10700
N 	N 	0.49148 0.07248 0.50036 -0.08500
N 	N 	0.40577 0.30787 0.41669 -0.11100
N 	N 	0.59423 0.69213 0.58331 -0.11100
N 	N 	0.30787 0.86967 0.41669 -0.11100
N 	N 	0.44240 0.97300 0.97840 -0.10700
N 	N 	0.09423 0.63033 0.08331 -0.11100
N 	N 	0.99785 0.59055 0.18545 -0.08000
N 	N 	0.00852 0.56432 0.99964 -0.08400
N 	N 	0.22615 0.99785 0.18545 -0.08000
N 	N 	0.07248 0.93568 0.50036 -0.08500
N 	N 	0.06432 0.50852 0.49964 -0.08500
N 	N 	0.63033 0.19213 0.08331 -0.11100
N 	N 	0.36967 0.80787 0.91669 -0.11100
N 	N 	0.45626 0.77576 0.68062 -0.09900
N 	N 	0.56432 0.42752 0.99964 -0.08500
N 	N 	0.22424 0.91264 0.31938 -0.09900
N 	N 	0.35866 0.86236 0.89992 -0.08900
N 	N 	0.85866 0.37906 0.39992 -0.08900
N 	N 	0.97300 0.60620 0.97840 -0.10700
N 	N 	0.91264 0.54374 0.31938 -0.09900
N 	N 	0.50852 0.92752 0.49964 -0.08500
N 	N 	0.72615 0.09055 0.68545 -0.08000
N 	N 	0.63764 0.14134 0.60008 -0.08900
N 	N 	0.02700 0.39380 0.02160 -0.10700
N 	N 	0.94240 0.10620 0.47840 -0.10600
N 	N 	0.50215 0.27385 0.31455 -0.08000
N 	N 	0.90577 0.36967 0.91669 -0.11100
N 	N 	0.36236 0.85866 0.39992 -0.08900
N 	N 	0.93568 0.49148 0.50036 -0.08500
N 	N 	0.77385 0.00215 0.81455 -0.08000
N 	N 	0.10620 0.47300 0.47840 -0.10600
N 	N 	0.05760 0.89380 0.52160 -0.10600
N 	N 	0.19213 0.09423 0.08331 -0.11100
N 	N 	0.59055 0.22615 0.18545 -0.08000
N 	N 	0.13033 0.59423 0.58331 -0.11100
N 	N 	0.72424 0.04374 0.81938 -0.09900
N 	N 	0.95626 0.58736 0.18062 -0.09900
N 	N 	0.86967 0.40577 0.41669 -0.11100
N 	N 	0.40945 0.77385 0.81455 -0.08000
N 	N 	0.04374 0.41264 0.81938 -0.09900
N 	N 	0.43568 0.57248 0.00036 -0.08500
O 	O 	0.67764 0.88933 0.62807 -0.50700
O 	O 	0.13144 0.61971 0.83137 -0.47700
O 	O 	0.09445 0.23126 0.52013 -0.49700
O 	O 	0.11971 0.63144 0.33137 -0.47700
O 	O 	0.65416 0.73126 0.02013 -0.49600
O 	O 	0.17764 0.30496 0.12807 -0.50700
O 	O 	0.10839 0.64902 0.23708 -0.46500
O 	O 	0.99449 0.89161 0.76292 -0.46500
O 	O 	0.24092 0.80635 0.75791 -0.49700
O 	O 	0.37211 0.19955 0.74443 -0.69400
O 	O 	0.86470 0.07312 0.33566 -0.48400
O 	O 	0.91455 0.71262 0.62234 -0.51200
O 	O 	0.25798 0.03625 0.75506 -0.48800
O 	O 	0.35852 0.19224 0.04431 -0.49500
O 	O 	0.24419 0.60687 0.20091 -0.48800
O 	O 	0.49449 0.85098 0.26292 -0.46500
O 	O 	0.58252 0.86856 0.16863 -0.47700
O 	O 	0.18391 0.69955 0.24443 -0.69400
O 	O 	0.59507 0.64148 0.95569 -0.49500
O 	O 	0.87211 0.18391 0.24443 -0.69400
O 	O 	0.85098 0.39161 0.26292 -0.46500
O 	O 	0.38029 0.58252 0.16863 -0.47700
O 	O 	0.92688 0.27348 0.66434 -0.48400
O 	O 	0.30776 0.14148 0.45569 -0.49500
O 	O 	0.88029 0.36856 0.66863 -0.47700
O 	O 	0.31609 0.62789 0.25557 -0.69400
O 	O 	0.80985 0.47032 0.70628 -0.39300
O 	O 	0.88933 0.80496 0.62807 -0.50700
O 	O 	0.84584 0.90555 0.47987 -0.49700
O 	O 	0.14148 0.09507 0.45569 -0.49600
O 	O 	0.33443 0.59675 0.75028 -0.50200
O 	O 	0.98645 0.19015 0.29372 -0.39300
O 	O 	0.44803 0.10687 0.70091 -0.48800
O 	O 	0.91748 0.11971 0.33137 -0.47700
O 	O 	0.41455 0.25049 0.12234 -0.51200
O 	O 	0.69482 0.30635 0.25791 -0.49700
O 	O 	0.07312 0.72652 0.33566 -0.48400
O 	O 	0.83443 0.81854 0.25028 -0.50200
O 	O 	0.80776 0.59507 0.95569 -0.49500
O 	O 	0.77348 0.42688 0.16434 -0.48400
O 	O 	0.95071 0.25798 0.75506 -0.48800
O 	O 	0.10687 0.74419 0.70091 -0.48800
O 	O 	0.58545 0.74951 0.87766 -0.51200
O 	O 	0.40493 0.35852 0.04431 -0.49500
O 	O 	0.80518 0.75908 0.24209 -0.49700
O 	O 	0.23126 0.15416 0.52013 -0.49600
O 	O 	0.90325 0.16557 0.74972 -0.50200
O 	O 	0.35098 0.99449 0.76292 -0.46500
O 	O 	0.04929 0.74202 0.24494 -0.48800
O 	O 	0.19224 0.40493 0.04431 -0.49500
O 	O 	0.69504 0.61067 0.87193 -0.50700
O 	O 	0.81609 0.30045 0.75557 -0.69400
O 	O 	0.64148 0.80776 0.95569 -0.49500
O 	O 	0.46375 0.24202 0.74494 -0.48800
O 	O 	0.45071 0.53625 0.25506 -0.48800
O 	O 	0.80496 0.67764 0.62807 -0.50700
O 	O 	0.18146 0.90325 0.74972 -0.50200
O 	O 	0.71262 0.75049 0.62234 -0.51200
O 	O 	0.82236 0.69504 0.87193 -0.50700
O 	O 	0.63144 0.91748 0.33137 -0.47700
O 	O 	0.54929 0.46375 0.74494 -0.48800
O 	O 	0.69224 0.85852 0.54431 -0.49500
O 	O 	0.74202 0.96375 0.24494 -0.48800
O 	O 	0.60839 0.50551 0.73708 -0.46500
O 	O 	0.52968 0.98645 0.29372 -0.39300
O 	O 	0.61971 0.41748 0.83137 -0.47700
O 	O 	0.57312 0.36470 0.83566 -0.48400
O 	O 	0.89313 0.25581 0.29909 -0.48800
O 	O 	0.19955 0.68391 0.74443 -0.69400
O 	O 	0.39313 0.05197 0.79909 -0.48800
O 	O 	0.40555 0.34584 0.97987 -0.49600
O 	O 	0.69125 0.69125 0.92625 -0.96700
O 	O 	0.69365 0.25908 0.74209 -0.49700
O 	O 	0.86856 0.38029 0.16863 -0.47700
O 	O 	0.80045 0.31609 0.25557 -0.69400
O 	O 	0.14902 0.60839 0.73708 -0.46500
O 	O 	0.69955 0.87211 0.24443 -0.69400
O 	O 	0.30875 0.30875 0.07375 -0.96700
O 	O 	0.25049 0.21262 0.12234 -0.51200
O 	O 	0.48645 0.02968 0.79372 -0.39300
O 	O 	0.40325 0.68146 0.24972 -0.50200
O 	O 	0.75049 0.91455 0.62234 -0.51200
O 	O 	0.09675 0.83443 0.25028 -0.50200
O 	O 	0.64902 0.00551 0.23708 -0.46500
O 	O 	0.36856 0.08252 0.66863 -0.47700
O 	O 	0.32236 0.11067 0.37193 -0.50700
O 	O 	0.66557 0.40325 0.24972 -0.50200
O 	O 	0.74092 0.69482 0.25791 -0.49700
O 	O 	0.19504 0.32236 0.37193 -0.50700
O 	O 	0.08252 0.88029 0.66863 -0.47700
O 	O 	0.21262 0.41455 0.12234 -0.51200
O 	O 	0.25908 0.30518 0.74209 -0.49700
O 	O 	0.22652 0.57312 0.83566 -0.48400
O 	O 	0.30985 0.51355 0.20628 -0.39300
O 	O 	0.59445 0.65416 0.02013 -0.49600
O 	O 	0.12789 0.81609 0.75557 -0.69400
O 	O 	0.05197 0.75581 0.79909 -0.48800
O 	O 	0.19125 0.19125 0.42625 -0.96700
O 	O 	0.19482 0.24092 0.75791 -0.49700
O 	O 	0.75798 0.45071 0.25506 -0.48800
O 	O 	0.41748 0.13144 0.83137 -0.47700
O 	O 	0.47032 0.01355 0.70628 -0.39300
O 	O 	0.61067 0.82236 0.87193 -0.50700
O 	O 	0.96375 0.04929 0.24494 -0.48700
O 	O 	0.85852 0.90493 0.54431 -0.49600
O 	O 	0.89161 0.35098 0.76292 -0.46500
O 	O 	0.80875 0.80875 0.57375 -0.96700
O 	O 	0.62789 0.80045 0.25557 -0.69400
O 	O 	0.51355 0.97032 0.20628 -0.39300
O 	O 	0.19365 0.80518 0.24209 -0.49700
O 	O 	0.02968 0.69015 0.79372 -0.39300
O 	O 	0.03625 0.95071 0.75506 -0.48700
O 	O 	0.90493 0.69224 0.54431 -0.49500
O 	O 	0.30635 0.74092 0.25791 -0.49700
O 	O 	0.90555 0.76874 0.47987 -0.49700
O 	O 	0.73126 0.59445 0.02013 -0.49600
O 	O 	0.39161 0.49449 0.26292 -0.46500
O 	O 	0.38933 0.17764 0.12807 -0.50700
O 	O 	0.34584 0.26874 0.97987 -0.49600
O 	O 	0.00551 0.10839 0.23708 -0.46500
O 	O 	0.75581 0.39313 0.79909 -0.48800
O 	O 	0.13530 0.92688 0.66434 -0.48400
O 	O 	0.30518 0.69365 0.74209 -0.49700
O 	O 	0.75908 0.19365 0.24209 -0.49700
O 	O 	0.76874 0.84584 0.47987 -0.49600
O 	O 	0.08545 0.28738 0.37766 -0.51200
O 	O 	0.01355 0.80985 0.70628 -0.39300
O 	O 	0.24951 0.08545 0.37766 -0.51200
O 	O 	0.53625 0.75798 0.25506 -0.48800
O 	O 	0.69015 0.48645 0.79372 -0.39300
O 	O 	0.63530 0.77348 0.16434 -0.48400
O 	O 	0.31854 0.33443 0.75028 -0.50200
O 	O 	0.50551 0.14902 0.73708 -0.46500
O 	O 	0.42688 0.63530 0.16434 -0.48400
O 	O 	0.09507 0.30776 0.45569 -0.49500
O 	O 	0.72652 0.86470 0.33566 -0.48400
O 	O 	0.78738 0.58545 0.87766 -0.51200
O 	O 	0.11067 0.19504 0.37193 -0.50700
O 	O 	0.60687 0.94803 0.20091 -0.48800
O 	O 	0.74419 0.44803 0.70091 -0.48800
O 	O 	0.15416 0.09445 0.52013 -0.49700
O 	O 	0.30496 0.38933 0.12807 -0.50700
O 	O 	0.30045 0.12789 0.75557 -0.69400
O 	O 	0.26874 0.40555 0.97987 -0.49600
O 	O 	0.81854 0.09675 0.25028 -0.50200
O 	O 	0.80635 0.19482 0.75791 -0.49700
O 	O 	0.55197 0.89313 0.29909 -0.48800
O 	O 	0.59675 0.31854 0.75028 -0.50200
O 	O 	0.97032 0.30985 0.20628 -0.39300
O 	O 	0.74951 0.78738 0.87766 -0.51200
O 	O 	0.68391 0.37211 0.74443 -0.69400
O 	O 	0.36470 0.22652 0.83566 -0.48400
O 	O 	0.16557 0.18146 0.74972 -0.50200
O 	O 	0.19015 0.52968 0.29372 -0.39300
O 	O 	0.27348 0.13530 0.66434 -0.48400
O 	O 	0.94803 0.24419 0.20091 -0.48800
O 	O 	0.68146 0.66557 0.24972 -0.50200
O 	O 	0.25581 0.55197 0.29909 -0.48800
O 	O 	0.28738 0.24951 0.37766 -0.51200
O 	O 	0.24202 0.54929 0.74494 -0.48800
