data_crystal

_cell_length_a 11.87000
_cell_length_b 31.33800
_cell_length_c 24.76300
_cell_angle_alpha 90.00000
_cell_angle_beta  90.00000
_cell_angle_gamma 90.00000

_symmetry_space_group_name_	'P 1'
_symmetry_space_group_name_H-M	'P 1'

loop_
_symmetry_equiv_pos_as_xyz
  x,y,z

loop_
_atom_site_label
_atom_site_type_symbol
_atom_site_fract_x
_atom_site_fract_y
_atom_site_fract_z
_atom_site_charge
O 	O 	0.53400 0.20509 0.65440 -0.45200
O 	O 	0.70640 0.20090 0.62130 -0.43600
O 	O 	0.75370 0.79973 0.00430 -0.41800
O 	O 	0.90970 0.79603 0.95200 -0.44100
O 	O 	0.35070 0.20317 0.58450 -0.43800
O 	O 	0.37180 0.20484 0.49470 -0.43500
C 	C 	0.62910 0.18920 0.65180 0.41200
C 	C 	0.91270 0.06490 0.82310 -0.54700
H 	H 	0.95090 0.06360 0.85810 0.18300
H 	H 	0.89090 0.09440 0.81540 0.19000
H 	H 	0.96370 0.05470 0.79480 0.17900
C 	C 	0.51620 0.95500 0.83610 -0.48700
H 	H 	0.45950 0.96580 0.81080 0.15800
H 	H 	0.48530 0.95530 0.87280 0.16300
H 	H 	0.53670 0.92570 0.82610 0.16400
C 	C 	0.81790 0.81300 0.96710 0.37600
C 	C 	0.33380 0.18910 0.53770 0.39100
C 	C 	0.05790 0.03776 0.51050 -0.05500
C 	C 	0.95760 0.02893 0.53760 0.13100
C 	C 	0.09980 0.00888 0.47310 -0.12000
H 	H 	0.16810 0.01490 0.45460 0.06400
C 	C 	0.90130 0.05950 0.57880 -0.49100
H 	H 	0.93780 0.05640 0.61410 0.16100
H 	H 	0.82110 0.05250 0.58200 0.16400
H 	H 	0.90950 0.08900 0.56630 0.17000
C 	C 	0.65380 0.15335 0.69190 -0.14200
C 	C 	0.74850 0.12773 0.68550 0.05700
H 	H 	0.79930 0.13290 0.65650 0.01200
C 	C 	0.76860 0.09457 0.72140 -0.14400
H 	H 	0.83340 0.07710 0.71710 0.06400
C 	C 	0.69410 0.08681 0.76400 0.08400
C 	C 	0.59970 0.11255 0.77040 -0.14300
H 	H 	0.54910 0.10750 0.79940 0.07000
C 	C 	0.57960 0.14556 0.73440 0.05600
H 	H 	0.51490 0.16300 0.73880 0.02000
C 	C 	0.70760 0.04781 0.79980 -0.07600
C 	C 	0.80880 0.03712 0.82450 0.16600
C 	C 	0.81570 0.99932 0.85390 -0.13800
H 	H 	0.88470 0.99180 0.87090 0.07300
C 	C 	0.72270 0.97227 0.85860 -0.04500
C 	C 	0.62130 0.98347 0.83380 0.12800
C 	C 	0.61430 0.02123 0.80440 -0.11000
H 	H 	0.54540 0.02890 0.78740 0.05100
C 	C 	0.74120 0.93034 0.88640 0.07900
C 	C 	0.83570 0.90656 0.87220 -0.13100
H 	H 	0.88480 0.91660 0.84470 0.06900
C 	C 	0.85860 0.86821 0.89800 0.05200
H 	H 	0.92320 0.85210 0.88820 0.02400
C 	C 	0.78670 0.85336 0.93840 -0.13100
C 	C 	0.69210 0.87710 0.95270 0.05400
H 	H 	0.64310 0.86700 0.98020 0.01800
C 	C 	0.66950 0.91552 0.92670 -0.13500
H 	H 	0.60500 0.93170 0.93660 0.07300
C 	C 	0.25590 0.15123 0.53100 -0.13400
C 	C 	0.22690 0.12710 0.57590 0.05700
H 	H 	0.25190 0.13560 0.61070 0.02000
C 	C 	0.16150 0.09060 0.57030 -0.13700
H 	H 	0.14180 0.07430 0.60120 0.07700
C 	C 	0.12490 0.07788 0.51930 0.08200
C 	C 	0.15340 0.10230 0.47430 -0.13400
H 	H 	0.12760 0.09410 0.43960 0.06700
C 	C 	0.21910 0.13860 0.47990 0.05700
H 	H 	0.23900 0.15490 0.44900 0.02000
O 	O 	0.96600 0.79491 0.15440 -0.45100
O 	O 	0.79360 0.79910 0.12130 -0.43700
O 	O 	0.74630 0.20027 0.50430 -0.42000
O 	O 	0.59030 0.20397 0.45200 -0.44300
O 	O 	0.14930 0.79683 0.08450 -0.43900
O 	O 	0.12820 0.79516 0.99470 -0.43500
C 	C 	0.87090 0.81080 0.15180 0.41200
C 	C 	0.58730 0.93510 0.32310 -0.55000
H 	H 	0.54910 0.93640 0.35810 0.18500
H 	H 	0.60910 0.90560 0.31540 0.19100
H 	H 	0.53630 0.94530 0.29480 0.18100
C 	C 	0.98380 0.04500 0.33610 -0.48900
H 	H 	0.04050 0.03420 0.31080 0.15900
H 	H 	0.01470 0.04470 0.37280 0.16300
H 	H 	0.96330 0.07430 0.32610 0.16500
C 	C 	0.68210 0.18700 0.46710 0.37800
C 	C 	0.16620 0.81090 0.03770 0.39000
C 	C 	0.44210 0.96224 0.01050 -0.05600
C 	C 	0.54240 0.97107 0.03760 0.13400
C 	C 	0.40020 0.99112 0.97310 -0.12100
H 	H 	0.33190 0.98510 0.95460 0.06500
C 	C 	0.59870 0.94050 0.07880 -0.49400
H 	H 	0.56220 0.94360 0.11410 0.16300
H 	H 	0.67890 0.94750 0.08200 0.16500
H 	H 	0.59050 0.91100 0.06630 0.17100
C 	C 	0.84620 0.84665 0.19190 -0.14100
C 	C 	0.75150 0.87227 0.18550 0.05800
H 	H 	0.70070 0.86710 0.15650 0.01300
C 	C 	0.73140 0.90543 0.22140 -0.14400
H 	H 	0.66660 0.92290 0.21710 0.06500
C 	C 	0.80590 0.91319 0.26400 0.08400
C 	C 	0.90030 0.88745 0.27040 -0.14300
H 	H 	0.95090 0.89250 0.29940 0.07000
C 	C 	0.92040 0.85444 0.23440 0.05600
H 	H 	0.98510 0.83700 0.23880 0.02100
C 	C 	0.79240 0.95219 0.29980 -0.07700
C 	C 	0.69120 0.96288 0.32450 0.16800
C 	C 	0.68430 0.00068 0.35390 -0.14000
H 	H 	0.61530 0.00820 0.37090 0.07400
C 	C 	0.77730 0.02773 0.35860 -0.04400
C 	C 	0.87870 0.01653 0.33380 0.12700
C 	C 	0.88570 0.97877 0.30440 -0.10900
H 	H 	0.95460 0.97110 0.28740 0.05200
C 	C 	0.75880 0.06966 0.38640 0.07900
C 	C 	0.66430 0.09344 0.37220 -0.13100
H 	H 	0.61520 0.08340 0.34470 0.06900
C 	C 	0.64140 0.13179 0.39800 0.05200
H 	H 	0.57680 0.14790 0.38820 0.02300
C 	C 	0.71330 0.14664 0.43840 -0.13200
C 	C 	0.80790 0.12290 0.45270 0.05400
H 	H 	0.85690 0.13300 0.48020 0.01800
C 	C 	0.83050 0.08448 0.42670 -0.13500
H 	H 	0.89500 0.06830 0.43660 0.07300
C 	C 	0.24410 0.84877 0.03100 -0.13500
C 	C 	0.27310 0.87290 0.07590 0.05700
H 	H 	0.24810 0.86440 0.11070 0.02000
C 	C 	0.33850 0.90940 0.07030 -0.13800
H 	H 	0.35820 0.92570 0.10120 0.07700
C 	C 	0.37510 0.92212 0.01930 0.08200
C 	C 	0.34660 0.89770 0.97430 -0.13400
H 	H 	0.37240 0.90590 0.93960 0.06700
C 	C 	0.28090 0.86140 0.97990 0.05800
H 	H 	0.26100 0.84510 0.94900 0.02000
O 	O 	0.46600 0.70509 0.34560 -0.45300
O 	O 	0.29360 0.70090 0.37870 -0.43700
O 	O 	0.24630 0.29973 0.99570 -0.41900
O 	O 	0.09030 0.29603 0.04800 -0.44200
O 	O 	0.64930 0.70317 0.41550 -0.43800
O 	O 	0.62820 0.70484 0.50530 -0.43500
C 	C 	0.37090 0.68920 0.34820 0.41200
C 	C 	0.08730 0.56490 0.17690 -0.54800
H 	H 	0.04910 0.56360 0.14190 0.18400
H 	H 	0.10910 0.59440 0.18460 0.19000
H 	H 	0.03630 0.55470 0.20520 0.18000
C 	C 	0.48380 0.45500 0.16390 -0.48700
H 	H 	0.54050 0.46580 0.18920 0.15800
H 	H 	0.51470 0.45530 0.12720 0.16200
H 	H 	0.46330 0.42570 0.17390 0.16400
C 	C 	0.18210 0.31300 0.03290 0.37600
C 	C 	0.66620 0.68910 0.46230 0.39100
C 	C 	0.94210 0.53776 0.48950 -0.05500
C 	C 	0.04240 0.52893 0.46240 0.13200
C 	C 	0.90020 0.50888 0.52690 -0.12100
H 	H 	0.83190 0.51490 0.54540 0.06500
C 	C 	0.09870 0.55950 0.42120 -0.49200
H 	H 	0.06220 0.55640 0.38590 0.16100
H 	H 	0.17890 0.55250 0.41800 0.16400
H 	H 	0.09050 0.58900 0.43370 0.17000
C 	C 	0.34620 0.65335 0.30810 -0.14200
C 	C 	0.25150 0.62773 0.31450 0.05700
H 	H 	0.20070 0.63290 0.34350 0.01200
C 	C 	0.23140 0.59457 0.27860 -0.14400
H 	H 	0.16660 0.57710 0.28290 0.06500
C 	C 	0.30590 0.58681 0.23600 0.08400
C 	C 	0.40030 0.61255 0.22960 -0.14400
H 	H 	0.45090 0.60750 0.20060 0.07000
C 	C 	0.42040 0.64556 0.26560 0.05600
H 	H 	0.48510 0.66300 0.26120 0.02000
C 	C 	0.29240 0.54781 0.20020 -0.07600
C 	C 	0.19120 0.53712 0.17550 0.16700
C 	C 	0.18430 0.49932 0.14610 -0.13900
H 	H 	0.11530 0.49180 0.12910 0.07300
C 	C 	0.27730 0.47227 0.14140 -0.04400
C 	C 	0.37870 0.48347 0.16620 0.12700
C 	C 	0.38570 0.52123 0.19560 -0.10900
H 	H 	0.45460 0.52890 0.21260 0.05100
C 	C 	0.25880 0.43034 0.11360 0.07900
C 	C 	0.16430 0.40656 0.12780 -0.13100
H 	H 	0.11520 0.41660 0.15530 0.06900
C 	C 	0.14140 0.36821 0.10200 0.05200
H 	H 	0.07680 0.35210 0.11180 0.02400
C 	C 	0.21330 0.35336 0.06160 -0.13100
C 	C 	0.30790 0.37710 0.04730 0.05400
H 	H 	0.35690 0.36700 0.01980 0.01800
C 	C 	0.33050 0.41552 0.07330 -0.13500
H 	H 	0.39500 0.43170 0.06340 0.07300
C 	C 	0.74410 0.65123 0.46900 -0.13400
C 	C 	0.77310 0.62710 0.42410 0.05700
H 	H 	0.74810 0.63560 0.38930 0.02000
C 	C 	0.83850 0.59060 0.42970 -0.13700
H 	H 	0.85820 0.57430 0.39880 0.07700
C 	C 	0.87510 0.57788 0.48070 0.08200
C 	C 	0.84660 0.60230 0.52570 -0.13400
H 	H 	0.87240 0.59410 0.56040 0.06700
C 	C 	0.78090 0.63860 0.52010 0.05700
H 	H 	0.76100 0.65490 0.55100 0.02000
O 	O 	0.03400 0.29491 0.84560 -0.45100
O 	O 	0.20640 0.29910 0.87870 -0.43700
O 	O 	0.25370 0.70027 0.49570 -0.42000
O 	O 	0.40970 0.70397 0.54800 -0.44300
O 	O 	0.85070 0.29683 0.91550 -0.43900
O 	O 	0.87180 0.29516 0.00530 -0.43500
C 	C 	0.12910 0.31080 0.84820 0.41200
C 	C 	0.41270 0.43510 0.67690 -0.55000
H 	H 	0.45090 0.43640 0.64190 0.18500
H 	H 	0.39090 0.40560 0.68460 0.19100
H 	H 	0.46370 0.44530 0.70520 0.18100
C 	C 	0.01620 0.54500 0.66390 -0.48600
H 	H 	0.95950 0.53420 0.68920 0.15800
H 	H 	0.98530 0.54470 0.62720 0.16200
H 	H 	0.03670 0.57430 0.67390 0.16400
C 	C 	0.31790 0.68700 0.53290 0.37800
C 	C 	0.83380 0.31090 0.96230 0.39000
C 	C 	0.55790 0.46224 0.98950 -0.05600
C 	C 	0.45760 0.47107 0.96240 0.13400
C 	C 	0.59980 0.49112 0.02690 -0.12100
H 	H 	0.66810 0.48510 0.04540 0.06500
C 	C 	0.40130 0.44050 0.92120 -0.49300
H 	H 	0.43780 0.44360 0.88590 0.16200
H 	H 	0.32110 0.44750 0.91800 0.16500
H 	H 	0.40950 0.41100 0.93370 0.17100
C 	C 	0.15380 0.34665 0.80810 -0.14100
C 	C 	0.24850 0.37227 0.81450 0.05700
H 	H 	0.29930 0.36710 0.84350 0.01300
C 	C 	0.26860 0.40543 0.77860 -0.14400
H 	H 	0.33340 0.42290 0.78290 0.06500
C 	C 	0.19410 0.41319 0.73600 0.08400
C 	C 	0.09970 0.38745 0.72960 -0.14300
H 	H 	0.04910 0.39250 0.70060 0.07000
C 	C 	0.07960 0.35444 0.76560 0.05600
H 	H 	0.01490 0.33700 0.76120 0.02100
C 	C 	0.20760 0.45219 0.70020 -0.07700
C 	C 	0.30880 0.46288 0.67550 0.16800
C 	C 	0.31570 0.50068 0.64610 -0.13900
H 	H 	0.38470 0.50820 0.62910 0.07400
C 	C 	0.22270 0.52773 0.64140 -0.04400
C 	C 	0.12130 0.51653 0.66620 0.12700
C 	C 	0.11430 0.47877 0.69560 -0.10900
H 	H 	0.04540 0.47110 0.71260 0.05200
C 	C 	0.24120 0.56966 0.61360 0.07900
C 	C 	0.33570 0.59344 0.62780 -0.13100
H 	H 	0.38480 0.58340 0.65530 0.06900
C 	C 	0.35860 0.63179 0.60200 0.05300
H 	H 	0.42320 0.64790 0.61180 0.02300
C 	C 	0.28670 0.64664 0.56160 -0.13200
C 	C 	0.19210 0.62290 0.54730 0.05400
H 	H 	0.14310 0.63300 0.51980 0.01800
C 	C 	0.16950 0.58448 0.57330 -0.13500
H 	H 	0.10500 0.56830 0.56340 0.07300
C 	C 	0.75590 0.34877 0.96900 -0.13500
C 	C 	0.72690 0.37290 0.92410 0.05700
H 	H 	0.75190 0.36440 0.88930 0.02000
C 	C 	0.66150 0.40940 0.92970 -0.13800
H 	H 	0.64180 0.42570 0.89880 0.07700
C 	C 	0.62490 0.42212 0.98070 0.08200
C 	C 	0.65340 0.39770 0.02570 -0.13400
H 	H 	0.62760 0.40590 0.06040 0.06700
C 	C 	0.71910 0.36140 0.02010 0.05800
H 	H 	0.73900 0.34510 0.05100 0.02000
O 	O 	0.46600 0.79491 0.34560 -0.45300
O 	O 	0.29360 0.79910 0.37870 -0.43700
O 	O 	0.24630 0.20027 0.99570 -0.41900
O 	O 	0.09030 0.20397 0.04800 -0.44200
O 	O 	0.64930 0.79683 0.41550 -0.43800
O 	O 	0.62820 0.79516 0.50530 -0.43500
C 	C 	0.37090 0.81080 0.34820 0.41200
C 	C 	0.08730 0.93510 0.17690 -0.54700
H 	H 	0.04910 0.93640 0.14190 0.18300
H 	H 	0.10910 0.90560 0.18460 0.19000
H 	H 	0.03630 0.94530 0.20520 0.17900
C 	C 	0.48380 0.04500 0.16390 -0.48700
H 	H 	0.54050 0.03420 0.18920 0.15800
H 	H 	0.51470 0.04470 0.12720 0.16300
H 	H 	0.46330 0.07430 0.17390 0.16400
C 	C 	0.18210 0.18700 0.03290 0.37600
C 	C 	0.66620 0.81090 0.46230 0.39100
C 	C 	0.94210 0.96224 0.48950 -0.05500
C 	C 	0.04240 0.97107 0.46240 0.13100
C 	C 	0.90020 0.99112 0.52690 -0.12000
H 	H 	0.83190 0.98510 0.54540 0.06400
C 	C 	0.09870 0.94050 0.42120 -0.49100
H 	H 	0.06220 0.94360 0.38590 0.16100
H 	H 	0.17890 0.94750 0.41800 0.16400
H 	H 	0.09050 0.91100 0.43370 0.17000
C 	C 	0.34620 0.84665 0.30810 -0.14200
C 	C 	0.25150 0.87227 0.31450 0.05700
H 	H 	0.20070 0.86710 0.34350 0.01200
C 	C 	0.23140 0.90543 0.27860 -0.14400
H 	H 	0.16660 0.92290 0.28290 0.06400
C 	C 	0.30590 0.91319 0.23600 0.08400
C 	C 	0.40030 0.88745 0.22960 -0.14300
H 	H 	0.45090 0.89250 0.20060 0.07000
C 	C 	0.42040 0.85444 0.26560 0.05600
H 	H 	0.48510 0.83700 0.26120 0.02000
C 	C 	0.29240 0.95219 0.20020 -0.07600
C 	C 	0.19120 0.96288 0.17550 0.16600
C 	C 	0.18430 0.00068 0.14610 -0.13800
H 	H 	0.11530 0.00820 0.12910 0.07300
C 	C 	0.27730 0.02773 0.14140 -0.04500
C 	C 	0.37870 0.01653 0.16620 0.12800
C 	C 	0.38570 0.97877 0.19560 -0.11000
H 	H 	0.45460 0.97110 0.21260 0.05100
C 	C 	0.25880 0.06966 0.11360 0.07900
C 	C 	0.16430 0.09344 0.12780 -0.13100
H 	H 	0.11520 0.08340 0.15530 0.06900
C 	C 	0.14140 0.13179 0.10200 0.05200
H 	H 	0.07680 0.14790 0.11180 0.02400
C 	C 	0.21330 0.14664 0.06160 -0.13100
C 	C 	0.30790 0.12290 0.04730 0.05400
H 	H 	0.35690 0.13300 0.01980 0.01800
C 	C 	0.33050 0.08448 0.07330 -0.13500
H 	H 	0.39500 0.06830 0.06340 0.07300
C 	C 	0.74410 0.84877 0.46900 -0.13400
C 	C 	0.77310 0.87290 0.42410 0.05700
H 	H 	0.74810 0.86440 0.38930 0.02000
C 	C 	0.83850 0.90940 0.42970 -0.13700
H 	H 	0.85820 0.92570 0.39880 0.07700
C 	C 	0.87510 0.92212 0.48070 0.08200
C 	C 	0.84660 0.89770 0.52570 -0.13400
H 	H 	0.87240 0.90590 0.56040 0.06700
C 	C 	0.78090 0.86140 0.52010 0.05700
H 	H 	0.76100 0.84510 0.55100 0.02000
O 	O 	0.03400 0.20509 0.84560 -0.45100
O 	O 	0.20640 0.20090 0.87870 -0.43700
O 	O 	0.25370 0.79973 0.49570 -0.42000
O 	O 	0.40970 0.79603 0.54800 -0.44300
O 	O 	0.85070 0.20317 0.91550 -0.43900
O 	O 	0.87180 0.20484 0.00530 -0.43500
C 	C 	0.12910 0.18920 0.84820 0.41200
C 	C 	0.41270 0.06490 0.67690 -0.55000
H 	H 	0.45090 0.06360 0.64190 0.18500
H 	H 	0.39090 0.09440 0.68460 0.19100
H 	H 	0.46370 0.05470 0.70520 0.18100
C 	C 	0.01620 0.95500 0.66390 -0.48900
H 	H 	0.95950 0.96580 0.68920 0.15900
H 	H 	0.98530 0.95530 0.62720 0.16300
H 	H 	0.03670 0.92570 0.67390 0.16500
C 	C 	0.31790 0.81300 0.53290 0.37800
C 	C 	0.83380 0.18910 0.96230 0.39000
C 	C 	0.55790 0.03776 0.98950 -0.05600
C 	C 	0.45760 0.02893 0.96240 0.13400
C 	C 	0.59980 0.00888 0.02690 -0.12100
H 	H 	0.66810 0.01490 0.04540 0.06500
C 	C 	0.40130 0.05950 0.92120 -0.49400
H 	H 	0.43780 0.05640 0.88590 0.16300
H 	H 	0.32110 0.05250 0.91800 0.16500
H 	H 	0.40950 0.08900 0.93370 0.17100
C 	C 	0.15380 0.15335 0.80810 -0.14100
C 	C 	0.24850 0.12773 0.81450 0.05800
H 	H 	0.29930 0.13290 0.84350 0.01300
C 	C 	0.26860 0.09457 0.77860 -0.14400
H 	H 	0.33340 0.07710 0.78290 0.06500
C 	C 	0.19410 0.08681 0.73600 0.08400
C 	C 	0.09970 0.11255 0.72960 -0.14300
H 	H 	0.04910 0.10750 0.70060 0.07000
C 	C 	0.07960 0.14556 0.76560 0.05600
H 	H 	0.01490 0.16300 0.76120 0.02100
C 	C 	0.20760 0.04781 0.70020 -0.07700
C 	C 	0.30880 0.03712 0.67550 0.16800
C 	C 	0.31570 0.99932 0.64610 -0.14000
H 	H 	0.38470 0.99180 0.62910 0.07400
C 	C 	0.22270 0.97227 0.64140 -0.04400
C 	C 	0.12130 0.98347 0.66620 0.12700
C 	C 	0.11430 0.02123 0.69560 -0.10900
H 	H 	0.04540 0.02890 0.71260 0.05200
C 	C 	0.24120 0.93034 0.61360 0.07900
C 	C 	0.33570 0.90656 0.62780 -0.13100
H 	H 	0.38480 0.91660 0.65530 0.06900
C 	C 	0.35860 0.86821 0.60200 0.05200
H 	H 	0.42320 0.85210 0.61180 0.02300
C 	C 	0.28670 0.85336 0.56160 -0.13200
C 	C 	0.19210 0.87710 0.54730 0.05400
H 	H 	0.14310 0.86700 0.51980 0.01800
C 	C 	0.16950 0.91552 0.57330 -0.13500
H 	H 	0.10500 0.93170 0.56340 0.07300
C 	C 	0.75590 0.15123 0.96900 -0.13500
C 	C 	0.72690 0.12710 0.92410 0.05700
H 	H 	0.75190 0.13560 0.88930 0.02000
C 	C 	0.66150 0.09060 0.92970 -0.13800
H 	H 	0.64180 0.07430 0.89880 0.07700
C 	C 	0.62490 0.07788 0.98070 0.08200
C 	C 	0.65340 0.10230 0.02570 -0.13400
H 	H 	0.62760 0.09410 0.06040 0.06700
C 	C 	0.71910 0.13860 0.02010 0.05800
H 	H 	0.73900 0.15490 0.05100 0.02000
O 	O 	0.53400 0.29491 0.65440 -0.45300
O 	O 	0.70640 0.29910 0.62130 -0.43700
O 	O 	0.75370 0.70027 0.00430 -0.41900
O 	O 	0.90970 0.70397 0.95200 -0.44200
O 	O 	0.35070 0.29683 0.58450 -0.43800
O 	O 	0.37180 0.29516 0.49470 -0.43500
C 	C 	0.62910 0.31080 0.65180 0.41200
C 	C 	0.91270 0.43510 0.82310 -0.54800
H 	H 	0.95090 0.43640 0.85810 0.18400
H 	H 	0.89090 0.40560 0.81540 0.19000
H 	H 	0.96370 0.44530 0.79480 0.18000
C 	C 	0.51620 0.54500 0.83610 -0.48700
H 	H 	0.45950 0.53420 0.81080 0.15800
H 	H 	0.48530 0.54470 0.87280 0.16200
H 	H 	0.53670 0.57430 0.82610 0.16400
C 	C 	0.81790 0.68700 0.96710 0.37600
C 	C 	0.33380 0.31090 0.53770 0.39100
C 	C 	0.05790 0.46224 0.51050 -0.05500
C 	C 	0.95760 0.47107 0.53760 0.13200
C 	C 	0.09980 0.49112 0.47310 -0.12100
H 	H 	0.16810 0.48510 0.45460 0.06500
C 	C 	0.90130 0.44050 0.57880 -0.49200
H 	H 	0.93780 0.44360 0.61410 0.16100
H 	H 	0.82110 0.44750 0.58200 0.16400
H 	H 	0.90950 0.41100 0.56630 0.17000
C 	C 	0.65380 0.34665 0.69190 -0.14200
C 	C 	0.74850 0.37227 0.68550 0.05700
H 	H 	0.79930 0.36710 0.65650 0.01200
C 	C 	0.76860 0.40543 0.72140 -0.14400
H 	H 	0.83340 0.42290 0.71710 0.06500
C 	C 	0.69410 0.41319 0.76400 0.08400
C 	C 	0.59970 0.38745 0.77040 -0.14400
H 	H 	0.54910 0.39250 0.79940 0.07000
C 	C 	0.57960 0.35444 0.73440 0.05600
H 	H 	0.51490 0.33700 0.73880 0.02000
C 	C 	0.70760 0.45219 0.79980 -0.07600
C 	C 	0.80880 0.46288 0.82450 0.16700
C 	C 	0.81570 0.50068 0.85390 -0.13900
H 	H 	0.88470 0.50820 0.87090 0.07300
C 	C 	0.72270 0.52773 0.85860 -0.04400
C 	C 	0.62130 0.51653 0.83380 0.12700
C 	C 	0.61430 0.47877 0.80440 -0.10900
H 	H 	0.54540 0.47110 0.78740 0.05100
C 	C 	0.74120 0.56966 0.88640 0.07900
C 	C 	0.83570 0.59344 0.87220 -0.13100
H 	H 	0.88480 0.58340 0.84470 0.06900
C 	C 	0.85860 0.63179 0.89800 0.05200
H 	H 	0.92320 0.64790 0.88820 0.02400
C 	C 	0.78670 0.64664 0.93840 -0.13100
C 	C 	0.69210 0.62290 0.95270 0.05400
H 	H 	0.64310 0.63300 0.98020 0.01800
C 	C 	0.66950 0.58448 0.92670 -0.13500
H 	H 	0.60500 0.56830 0.93660 0.07300
C 	C 	0.25590 0.34877 0.53100 -0.13400
C 	C 	0.22690 0.37290 0.57590 0.05700
H 	H 	0.25190 0.36440 0.61070 0.02000
C 	C 	0.16150 0.40940 0.57030 -0.13700
H 	H 	0.14180 0.42570 0.60120 0.07700
C 	C 	0.12490 0.42212 0.51930 0.08200
C 	C 	0.15340 0.39770 0.47430 -0.13400
H 	H 	0.12760 0.40590 0.43960 0.06700
C 	C 	0.21910 0.36140 0.47990 0.05700
H 	H 	0.23900 0.34510 0.44900 0.02000
O 	O 	0.96600 0.70509 0.15440 -0.45100
O 	O 	0.79360 0.70090 0.12130 -0.43700
O 	O 	0.74630 0.29973 0.50430 -0.42000
O 	O 	0.59030 0.29603 0.45200 -0.44300
O 	O 	0.14930 0.70317 0.08450 -0.43900
O 	O 	0.12820 0.70484 0.99470 -0.43500
C 	C 	0.87090 0.68920 0.15180 0.41200
C 	C 	0.58730 0.56490 0.32310 -0.55000
H 	H 	0.54910 0.56360 0.35810 0.18500
H 	H 	0.60910 0.59440 0.31540 0.19100
H 	H 	0.53630 0.55470 0.29480 0.18100
C 	C 	0.98380 0.45500 0.33610 -0.48600
H 	H 	0.04050 0.46580 0.31080 0.15800
H 	H 	0.01470 0.45530 0.37280 0.16200
H 	H 	0.96330 0.42570 0.32610 0.16400
C 	C 	0.68210 0.31300 0.46710 0.37800
C 	C 	0.16620 0.68910 0.03770 0.39000
C 	C 	0.44210 0.53776 0.01050 -0.05600
C 	C 	0.54240 0.52893 0.03760 0.13400
C 	C 	0.40020 0.50888 0.97310 -0.12100
H 	H 	0.33190 0.51490 0.95460 0.06500
C 	C 	0.59870 0.55950 0.07880 -0.49300
H 	H 	0.56220 0.55640 0.11410 0.16200
H 	H 	0.67890 0.55250 0.08200 0.16500
H 	H 	0.59050 0.58900 0.06630 0.17100
C 	C 	0.84620 0.65335 0.19190 -0.14100
C 	C 	0.75150 0.62773 0.18550 0.05700
H 	H 	0.70070 0.63290 0.15650 0.01300
C 	C 	0.73140 0.59457 0.22140 -0.14400
H 	H 	0.66660 0.57710 0.21710 0.06500
C 	C 	0.80590 0.58681 0.26400 0.08400
C 	C 	0.90030 0.61255 0.27040 -0.14300
H 	H 	0.95090 0.60750 0.29940 0.07000
C 	C 	0.92040 0.64556 0.23440 0.05600
H 	H 	0.98510 0.66300 0.23880 0.02100
C 	C 	0.79240 0.54781 0.29980 -0.07700
C 	C 	0.69120 0.53712 0.32450 0.16800
C 	C 	0.68430 0.49932 0.35390 -0.13900
H 	H 	0.61530 0.49180 0.37090 0.07400
C 	C 	0.77730 0.47227 0.35860 -0.04400
C 	C 	0.87870 0.48347 0.33380 0.12700
C 	C 	0.88570 0.52123 0.30440 -0.10900
H 	H 	0.95460 0.52890 0.28740 0.05200
C 	C 	0.75880 0.43034 0.38640 0.07900
C 	C 	0.66430 0.40656 0.37220 -0.13100
H 	H 	0.61520 0.41660 0.34470 0.06900
C 	C 	0.64140 0.36821 0.39800 0.05300
H 	H 	0.57680 0.35210 0.38820 0.02300
C 	C 	0.71330 0.35336 0.43840 -0.13200
C 	C 	0.80790 0.37710 0.45270 0.05400
H 	H 	0.85690 0.36700 0.48020 0.01800
C 	C 	0.83050 0.41552 0.42670 -0.13500
H 	H 	0.89500 0.43170 0.43660 0.07300
C 	C 	0.24410 0.65123 0.03100 -0.13500
C 	C 	0.27310 0.62710 0.07590 0.05700
H 	H 	0.24810 0.63560 0.11070 0.02000
C 	C 	0.33850 0.59060 0.07030 -0.13800
H 	H 	0.35820 0.57430 0.10120 0.07700
C 	C 	0.37510 0.57788 0.01930 0.08200
C 	C 	0.34660 0.60230 0.97430 -0.13400
H 	H 	0.37240 0.59410 0.93960 0.06700
C 	C 	0.28090 0.63860 0.97990 0.05800
H 	H 	0.26100 0.65490 0.94900 0.02000
Fe	Fe	0.45453 0.25000 0.61115 1.23100
Fe	Fe	0.71491 0.25000 0.56166 1.18300
Fe	Fe	0.49182 0.25000 0.48104 1.22500
O 	O 	0.54910 0.25000 0.55170 -0.67300
Fe	Fe	0.04547 0.75000 0.11115 1.22800
Fe	Fe	0.78509 0.75000 0.06166 1.18300
Fe	Fe	0.00818 0.75000 0.98104 1.22300
O 	O 	0.95090 0.75000 0.05170 -0.67000
Fe	Fe	0.54547 0.75000 0.38885 1.23100
Fe	Fe	0.28509 0.75000 0.43834 1.18300
Fe	Fe	0.50818 0.75000 0.51896 1.22500
O 	O 	0.45090 0.75000 0.44830 -0.67300
Fe	Fe	0.95453 0.25000 0.88885 1.22800
Fe	Fe	0.21491 0.25000 0.93834 1.18300
Fe	Fe	0.99182 0.25000 0.01896 1.22300
O 	O 	0.04910 0.25000 0.94830 -0.67000
