data_crystal

_cell_length_a 21.75700
_cell_length_b 21.75700
_cell_length_c 35.29900
_cell_angle_alpha 90.00000
_cell_angle_beta  90.00000
_cell_angle_gamma 90.00000

_symmetry_space_group_name_	'P 1'
_symmetry_space_group_name_H-M	'P 1'

loop_
_symmetry_equiv_pos_as_xyz
  x,y,z

loop_
_atom_site_label
_atom_site_type_symbol
_atom_site_fract_x
_atom_site_fract_y
_atom_site_fract_z
_atom_site_charge
Fe	Fe	0.99761 0.65686 0.23610 1.22600
Fe	Fe	0.00546 0.80623 0.22588 1.22300
Fe	Fe	0.00024 0.71656 0.14968 1.21800
Fe	Fe	0.99454 0.19377 0.72588 1.22300
Fe	Fe	0.99976 0.28344 0.64968 1.21800
Fe	Fe	0.49454 0.30623 0.02412 1.22400
Fe	Fe	0.49761 0.84314 0.51390 1.22600
Fe	Fe	0.49976 0.21656 0.10032 1.21800
Fe	Fe	0.50024 0.78344 0.60032 1.21800
Fe	Fe	0.50239 0.15686 0.01390 1.22600
Fe	Fe	0.00239 0.34314 0.73610 1.22600
Fe	Fe	0.50546 0.69377 0.52412 1.22400
H 	H 	0.81900 0.18180 0.78180 0.03600
H 	H 	0.80460 0.50100 0.59450 0.07300
H 	H 	0.86720 0.83870 0.09490 0.02900
H 	H 	0.27820 0.39040 0.18230 0.06700
H 	H 	0.31990 0.64910 0.38020 0.06600
H 	H 	0.61670 0.93210 0.63980 0.02600
H 	H 	0.65700 0.11610 0.13820 0.01900
H 	H 	0.30180 0.49630 0.08900 0.07800
H 	H 	0.22180 0.89040 0.06770 0.06900
H 	H 	0.26360 0.81840 0.32420 0.07200
H 	H 	0.79010 0.90560 0.07400 0.06000
H 	H 	0.76150 0.96140 0.18220 0.05900
H 	H 	0.62460 0.01300 0.04470 0.01800
H 	H 	0.65190 0.15960 0.93830 0.02700
H 	H 	0.83860 0.89440 0.20300 0.03600
H 	H 	0.68010 0.35090 0.88020 0.06600
H 	H 	0.19820 0.99630 0.16100 0.07900
H 	H 	0.76830 0.54570 0.09210 0.06900
H 	H 	0.70990 0.40560 0.17600 0.06000
H 	H 	0.15700 0.38390 0.61180 0.01900
H 	H 	0.31900 0.31820 0.96820 0.03700
H 	H 	0.71450 0.85110 0.38910 0.06600
H 	H 	0.88860 0.84100 0.31920 0.02400
H 	H 	0.73170 0.04570 0.15790 0.06900
H 	H 	0.15190 0.34040 0.81170 0.02700
H 	H 	0.20990 0.09440 0.57400 0.06000
H 	H 	0.16140 0.10560 0.70300 0.03600
H 	H 	0.73850 0.46140 0.06780 0.05900
H 	H 	0.38860 0.65900 0.43080 0.02400
H 	H 	0.12460 0.48700 0.70530 0.01800
H 	H 	0.80070 0.44250 0.18560 0.06900
H 	H 	0.76360 0.68160 0.42580 0.07200
H 	H 	0.34810 0.84040 0.43830 0.02700
H 	H 	0.66700 0.94090 0.52940 0.03200
H 	H 	0.13280 0.16130 0.59490 0.03000
H 	H 	0.33300 0.05910 0.02940 0.03200
H 	H 	0.19930 0.55750 0.68560 0.06900
H 	H 	0.30460 0.99900 0.15550 0.07200
H 	H 	0.11670 0.56790 0.11020 0.02500
H 	H 	0.84300 0.61610 0.11180 0.01900
H 	H 	0.83300 0.44090 0.72060 0.03100
H 	H 	0.23640 0.31840 0.92580 0.07200
H 	H 	0.77940 0.66940 0.36230 0.07900
H 	H 	0.36810 0.14860 0.93160 0.02500
H 	H 	0.86810 0.35140 0.81840 0.02500
H 	H 	0.64400 0.67570 0.66130 0.02200
H 	H 	0.13190 0.64860 0.31840 0.02500
H 	H 	0.87960 0.06980 0.68200 0.01800
H 	H 	0.29010 0.59440 0.67600 0.06000
H 	H 	0.69540 0.00100 0.65550 0.07200
H 	H 	0.35600 0.32430 0.16130 0.02200
H 	H 	0.18010 0.14910 0.86980 0.06600
H 	H 	0.16700 0.55910 0.22060 0.03100
H 	H 	0.24560 0.49020 0.20490 0.06500
H 	H 	0.18100 0.81820 0.28180 0.03700
H 	H 	0.66140 0.39440 0.04700 0.03500
H 	H 	0.28550 0.14890 0.88910 0.06600
H 	H 	0.37960 0.43020 0.06800 0.01900
H 	H 	0.84810 0.65960 0.31170 0.02700
H 	H 	0.33860 0.60560 0.54700 0.03500
H 	H 	0.69820 0.50370 0.58900 0.07800
H 	H 	0.73640 0.18160 0.82420 0.07200
H 	H 	0.26830 0.95430 0.65790 0.06900
H 	H 	0.74560 0.00980 0.54510 0.06300
H 	H 	0.77820 0.10960 0.56770 0.06900
H 	H 	0.61140 0.34100 0.93080 0.02400
H 	H 	0.36720 0.66130 0.65510 0.03000
H 	H 	0.80180 0.00370 0.66100 0.07900
H 	H 	0.11140 0.15900 0.81920 0.02400
H 	H 	0.38330 0.06790 0.13980 0.02600
H 	H 	0.25440 0.99020 0.04510 0.06300
H 	H 	0.63190 0.85140 0.43160 0.02500
H 	H 	0.72060 0.16940 0.88770 0.07900
H 	H 	0.85600 0.17570 0.58870 0.02200
H 	H 	0.78550 0.35110 0.86090 0.06600
H 	H 	0.75440 0.50980 0.70490 0.06500
H 	H 	0.27940 0.83060 0.38770 0.07900
H 	H 	0.23850 0.03860 0.68220 0.05900
H 	H 	0.34300 0.88390 0.63820 0.01900
H 	H 	0.72180 0.60960 0.68230 0.06800
H 	H 	0.88330 0.43210 0.61020 0.02500
H 	H 	0.26150 0.53860 0.56780 0.05900
H 	H 	0.14400 0.82430 0.08870 0.02200
H 	H 	0.21450 0.64890 0.36090 0.06600
H 	H 	0.63280 0.33870 0.15510 0.03000
H 	H 	0.68100 0.68180 0.46820 0.03700
H 	H 	0.12040 0.93020 0.18200 0.01800
H 	H 	0.22060 0.33060 0.86230 0.07900
H 	H 	0.62040 0.56980 0.56800 0.01900
H 	H 	0.69930 0.94250 0.06440 0.06900
H 	H 	0.30070 0.05750 0.56440 0.06900
H 	H 	0.87540 0.51300 0.20530 0.01800
H 	H 	0.23170 0.45430 0.59210 0.06900
H 	H 	0.19540 0.49900 0.09450 0.07400
H 	H 	0.81990 0.85090 0.36980 0.06600
H 	H 	0.37540 0.98700 0.54470 0.01800
C 	C 	0.20120 0.89850 0.09092 -0.11200
C 	C 	0.18780 0.78382 0.29781 0.04800
C 	C 	0.29320 0.73890 0.37919 0.04800
C 	C 	0.14870 0.73340 0.29609 -0.13400
C 	C 	0.28060 0.00600 0.06431 -0.09700
C 	C 	0.24680 0.73370 0.34653 0.04400
C 	C 	0.28300 0.56350 0.58555 -0.09200
C 	C 	0.87510 0.12890 0.63733 -0.13000
C 	C 	0.71000 0.03900 0.13488 -0.12200
C 	C 	0.71732 0.55050 0.63759 0.05000
C 	C 	0.70680 0.26110 0.87919 0.04800
C 	C 	0.28268 0.44950 0.13759 0.05000
C 	C 	0.78300 0.93650 0.16445 -0.09200
C 	C 	0.36010 0.63980 0.59907 -0.10800
C 	C 	0.86550 0.43010 0.66685 -0.11700
C 	C 	0.90640 0.26400 0.77370 0.37300
C 	C 	0.41420 0.88600 0.57690 0.43500
C 	C 	0.14100 0.92210 0.15882 0.05500
C 	C 	0.69070 0.97780 0.07933 -0.12100
C 	C 	0.91930 0.73880 0.27890 0.37900
C 	C 	0.76320 0.21604 0.82303 -0.10300
C 	C 	0.14290 0.55210 0.12940 0.04300
C 	C 	0.59360 0.76400 0.47630 0.37300
C 	C 	0.81040 0.48880 0.62009 -0.10600
C 	C 	0.83440 0.58090 0.12682 0.06600
C 	C 	0.08690 0.17530 0.66660 0.36400
C 	C 	0.20770 0.68323 0.34480 -0.10700
C 	C 	0.63360 0.30619 0.92207 0.04700
C 	C 	0.12490 0.87110 0.13733 -0.13000
C 	C 	0.78268 0.05050 0.61241 0.05200
C 	C 	0.84500 0.14076 0.60338 0.05100
C 	C 	0.15500 0.85924 0.10338 0.05100
C 	C 	0.09360 0.73600 0.27370 0.37300
C 	C 	0.13450 0.56990 0.16685 -0.11700
C 	C 	0.31040 0.01120 0.12991 -0.10000
C 	C 	0.12520 0.25060 0.81067 -0.12400
C 	C 	0.65860 0.81692 0.43042 0.05100
C 	C 	0.86640 0.80619 0.32793 0.04700
C 	C 	0.69850 0.20426 0.89645 -0.11000
C 	C 	0.18960 0.51120 0.12009 -0.10600
C 	C 	0.79880 0.10150 0.59092 -0.11200
C 	C 	0.81220 0.21618 0.79781 0.04800
C 	C 	0.14630 0.48040 0.68236 0.06500
C 	C 	0.64630 0.01960 0.06764 0.06500
C 	C 	0.41930 0.76120 0.47110 0.37900
C 	C 	0.84240 0.69842 0.32348 0.04600
C 	C 	0.68780 0.71618 0.45219 0.04800
C 	C 	0.85370 0.51960 0.18236 0.06500
C 	C 	0.65500 0.64076 0.64662 0.05000
C 	C 	0.71700 0.43650 0.08555 -0.09200
C 	C 	0.40640 0.23600 0.97630 0.37300
C 	C 	0.20000 0.09670 0.60022 -0.09500
C 	C 	0.26860 0.56020 0.62386 0.03100
C 	C 	0.80930 0.47780 0.17067 -0.12100
C 	C 	0.13360 0.19381 0.82793 0.04700
C 	C 	0.80000 0.90330 0.10022 -0.09500
C 	C 	0.31220 0.28382 0.95219 0.04800
C 	C 	0.70770 0.81677 0.40520 -0.10700
C 	C 	0.63990 0.36020 0.09907 -0.10800
C 	C 	0.32730 0.04690 0.05500 0.03500
C 	C 	0.67130 0.39670 0.07315 0.02600
C 	C 	0.34500 0.35924 0.14662 0.05000
C 	C 	0.84140 0.31692 0.81958 0.05100
C 	C 	0.35900 0.42210 0.09118 0.05500
C 	C 	0.30150 0.79574 0.39645 -0.11000
C 	C 	0.23680 0.78396 0.32303 -0.10300
C 	C 	0.74680 0.76630 0.40347 0.04400
C 	C 	0.62490 0.62890 0.61267 -0.12900
C 	C 	0.76860 0.93980 0.12614 0.03100
C 	C 	0.27740 0.01250 0.61295 0.05700
C 	C 	0.23140 0.06020 0.62614 0.03100
C 	C 	0.64100 0.57790 0.59118 0.05500
C 	C 	0.26320 0.28396 0.92697 -0.10300
C 	C 	0.58690 0.32470 0.08340 0.36400
C 	C 	0.85900 0.07790 0.65882 0.05500
C 	C 	0.41310 0.67530 0.58340 0.36400
C 	C 	0.22788 0.48820 0.14824 0.04200
C 	C 	0.08520 0.61450 0.17680 0.35900
C 	C 	0.77212 0.51180 0.64824 0.04200
C 	C 	0.79230 0.31677 0.84480 -0.10700
C 	C 	0.73140 0.43980 0.12386 0.03100
C 	C 	0.30930 0.02220 0.57933 -0.12100
C 	C 	0.68960 0.98880 0.62991 -0.10000
C 	C 	0.63450 0.93010 0.58315 -0.11500
C 	C 	0.37510 0.37110 0.11267 -0.12900
C 	C 	0.15760 0.30158 0.82348 0.04600
C 	C 	0.19850 0.29574 0.85355 -0.11000
C 	C 	0.58520 0.88550 0.57320 0.35800
C 	C 	0.72260 0.98750 0.11295 0.05700
C 	C 	0.79320 0.76110 0.37081 0.04800
C 	C 	0.19070 0.52220 0.67067 -0.12100
C 	C 	0.87480 0.74940 0.31067 -0.12400
C 	C 	0.62520 0.24940 0.93933 -0.12500
C 	C 	0.29230 0.18323 0.90520 -0.10700
C 	C 	0.67270 0.95310 0.55500 0.03500
C 	C 	0.68720 0.53863 0.60364 -0.11500
C 	C 	0.82560 0.81203 0.35800 -0.10900
C 	C 	0.81280 0.03863 0.64636 -0.11600
C 	C 	0.34570 0.63640 0.63738 0.03300
C 	C 	0.25320 0.23370 0.90347 0.04400
C 	C 	0.21940 0.50600 0.18569 -0.10200
C 	C 	0.16560 0.41910 0.62682 0.06600
C 	C 	0.80150 0.70426 0.35355 -0.11000
C 	C 	0.18720 0.96137 0.14636 -0.11600
C 	C 	0.67440 0.31203 0.89200 -0.10900
C 	C 	0.82730 0.45310 0.69500 0.03900
C 	C 	0.17270 0.54690 0.19500 0.03900
C 	C 	0.22260 0.51250 0.63705 0.05600
C 	C 	0.58060 0.67290 0.59530 0.37200
C 	C 	0.15430 0.13640 0.61262 0.03300
C 	C 	0.86620 0.57120 0.16044 -0.15900
C 	C 	0.33440 0.91910 0.62318 0.06700
C 	C 	0.34240 0.80158 0.42652 0.04600
C 	C 	0.58580 0.11400 0.07690 0.43500
C 	C 	0.58070 0.23880 0.97110 0.37900
C 	C 	0.73680 0.71604 0.42697 -0.10300
C 	C 	0.72788 0.01180 0.60176 0.03700
C 	C 	0.66560 0.08090 0.12318 0.06700
C 	C 	0.35710 0.05210 0.12060 0.03900
C 	C 	0.32560 0.68797 0.39200 -0.10900
C 	C 	0.08070 0.26120 0.77890 0.37900
C 	C 	0.08060 0.82710 0.15470 0.37200
C 	C 	0.63380 0.07120 0.08956 -0.15900
C 	C 	0.65430 0.36360 0.13738 0.03300
C 	C 	0.37480 0.75060 0.43933 -0.12500
C 	C 	0.65760 0.19842 0.92652 0.04600
C 	C 	0.35130 0.23340 0.95391 -0.13400
C 	C 	0.75320 0.26630 0.84653 0.04400
C 	C 	0.29000 0.96100 0.63488 -0.12200
C 	C 	0.21000 0.46100 0.61512 -0.12100
C 	C 	0.64870 0.76660 0.45391 -0.13400
C 	C 	0.13380 0.42880 0.66044 -0.15900
C 	C 	0.34140 0.18308 0.93042 0.05100
C 	C 	0.91480 0.38550 0.67680 0.35900
C 	C 	0.77740 0.48750 0.13705 0.05600
C 	C 	0.85710 0.44790 0.62940 0.04300
C 	C 	0.29880 0.39850 0.15908 -0.11000
C 	C 	0.79000 0.53900 0.11512 -0.12100
C 	C 	0.70120 0.60150 0.65908 -0.11000
C 	C 	0.84570 0.86360 0.11262 0.03300
C 	C 	0.91940 0.17290 0.65470 0.37200
C 	C 	0.31280 0.46137 0.10364 -0.11500
C 	C 	0.15860 0.68308 0.31958 0.05100
C 	C 	0.20680 0.23890 0.87081 0.04800
C 	C 	0.91310 0.82470 0.16660 0.36400
C 	C 	0.17440 0.18797 0.85800 -0.10900
C 	C 	0.35370 0.98040 0.56764 0.06500
C 	C 	0.85130 0.26660 0.79609 -0.13400
C 	C 	0.36620 0.92880 0.58956 -0.15900
C 	C 	0.41480 0.11450 0.07320 0.35800
C 	C 	0.82870 0.89670 0.17685 0.02600
C 	C 	0.21700 0.06350 0.66445 -0.09200
C 	C 	0.21732 0.94950 0.11241 0.05200
C 	C 	0.36550 0.06990 0.08315 -0.11500
C 	C 	0.70000 0.40330 0.14978 -0.09500
C 	C 	0.08580 0.38600 0.67310 0.43500
C 	C 	0.13990 0.13980 0.65093 -0.10700
C 	C 	0.36640 0.69381 0.42207 0.04700
C 	C 	0.71940 0.99400 0.56431 -0.09700
C 	C 	0.27212 0.98820 0.10176 0.03700
C 	C 	0.86010 0.86020 0.15093 -0.10700
C 	C 	0.78060 0.49400 0.68569 -0.10200
C 	C 	0.17130 0.10330 0.67685 0.02600
C 	C 	0.91420 0.61400 0.17310 0.43500
C 	C 	0.64290 0.94790 0.62060 0.03900
C 	C 	0.30000 0.59670 0.64978 -0.09500
C 	C 	0.41940 0.32710 0.09530 0.37200
C 	C 	0.32870 0.60330 0.57315 0.02600
O 	O 	0.06190 0.21270 0.64232 -0.40900
O 	O 	0.94080 0.35500 0.65061 -0.43200
O 	O 	0.55920 0.85500 0.59939 -0.43200
O 	O 	0.00250 0.72650 0.20320 -0.64800
O 	O 	0.56970 0.88310 0.53745 -0.42400
O 	O 	0.93810 0.78730 0.14232 -0.40900
O 	O 	0.05970 0.39300 0.70346 -0.45900
O 	O 	0.92470 0.68770 0.26445 -0.44700
O 	O 	0.91610 0.21440 0.75371 -0.42400
O 	O 	0.93030 0.38310 0.71255 -0.42400
O 	O 	0.04650 0.21320 0.77152 -0.43100
O 	O 	0.92760 0.65770 0.15092 -0.44300
O 	O 	0.45350 0.71320 0.47848 -0.43100
O 	O 	0.57530 0.18770 0.98555 -0.44700
O 	O 	0.54650 0.28680 0.97848 -0.43100
O 	O 	0.49750 0.22650 0.04680 -0.64800
O 	O 	0.50250 0.77350 0.54680 -0.64800
O 	O 	0.57240 0.15770 0.09908 -0.44300
O 	O 	0.92720 0.83040 0.20085 -0.43300
O 	O 	0.05920 0.64500 0.15061 -0.43200
O 	O 	0.06970 0.61690 0.21255 -0.42400
O 	O 	0.58390 0.71440 0.49629 -0.42400
O 	O 	0.55970 0.10700 0.04654 -0.46000
O 	O 	0.07240 0.34230 0.65092 -0.44300
O 	O 	0.94790 0.15600 0.68428 -0.44900
O 	O 	0.44330 0.19150 0.97495 -0.43700
O 	O 	0.42760 0.84230 0.59908 -0.44300
O 	O 	0.07530 0.31230 0.76445 -0.44700
O 	O 	0.43810 0.71270 0.60768 -0.41000
O 	O 	0.56190 0.28730 0.10768 -0.41000
O 	O 	0.43050 0.27490 0.11195 -0.42800
O 	O 	0.55210 0.65600 0.56572 -0.44900
O 	O 	0.44030 0.89300 0.54654 -0.46000
O 	O 	0.94030 0.60700 0.20346 -0.45900
O 	O 	0.57280 0.33040 0.04915 -0.43300
O 	O 	0.55670 0.80850 0.47495 -0.43700
O 	O 	0.07280 0.16960 0.70085 -0.43300
O 	O 	0.41610 0.28560 0.99629 -0.42400
O 	O 	0.94330 0.30850 0.77505 -0.43700
O 	O 	0.95350 0.78680 0.27152 -0.43100
O 	O 	0.05210 0.84400 0.18428 -0.44900
O 	O 	0.43030 0.11690 0.03745 -0.42400
O 	O 	0.08390 0.78560 0.25371 -0.42400
O 	O 	0.05670 0.69150 0.27505 -0.43700
O 	O 	0.44790 0.34400 0.06572 -0.44900
O 	O 	0.93050 0.22510 0.63805 -0.42800
O 	O 	0.56950 0.72510 0.61195 -0.42800
O 	O 	0.42720 0.66960 0.54915 -0.43300
O 	O 	0.44080 0.14500 0.09939 -0.43200
O 	O 	0.99750 0.27350 0.70320 -0.64800
O 	O 	0.42470 0.81230 0.48555 -0.44700
O 	O 	0.06950 0.77490 0.13805 -0.42800
Fe	Fe	0.80623 0.00546 0.77412 1.22400
Fe	Fe	0.19377 0.99454 0.27412 1.22400
Fe	Fe	0.21656 0.49976 0.89968 1.21900
Fe	Fe	0.28344 0.99976 0.35032 1.21900
Fe	Fe	0.30623 0.49454 0.97588 1.22500
Fe	Fe	0.78344 0.50024 0.39968 1.21900
Fe	Fe	0.15686 0.50239 0.98610 1.22700
Fe	Fe	0.84314 0.49761 0.48610 1.22700
Fe	Fe	0.34314 0.00239 0.26390 1.22700
Fe	Fe	0.71656 0.00024 0.85032 1.21900
Fe	Fe	0.69377 0.50546 0.47588 1.22500
Fe	Fe	0.65686 0.99761 0.76390 1.22700
H 	H 	0.43210 0.88330 0.38980 0.02500
H 	H 	0.49900 0.19540 0.90550 0.07400
H 	H 	0.33870 0.63280 0.84490 0.03000
H 	H 	0.16940 0.72060 0.11230 0.07900
H 	H 	0.93020 0.12040 0.81800 0.01800
H 	H 	0.64890 0.21450 0.63910 0.06600
H 	H 	0.31840 0.23640 0.07420 0.07200
H 	H 	0.59440 0.29010 0.32400 0.06000
H 	H 	0.93210 0.61670 0.36020 0.02600
H 	H 	0.06980 0.87960 0.31800 0.01800
H 	H 	0.85090 0.81990 0.63020 0.06600
H 	H 	0.05910 0.33300 0.97060 0.03200
H 	H 	0.44090 0.83300 0.27940 0.03100
H 	H 	0.90560 0.79010 0.92600 0.06000
H 	H 	0.15960 0.65190 0.06170 0.02700
H 	H 	0.81840 0.26360 0.67580 0.07200
H 	H 	0.35140 0.86810 0.18160 0.02500
H 	H 	0.43020 0.37960 0.93200 0.01900
H 	H 	0.56790 0.11670 0.88980 0.02500
H 	H 	0.03860 0.23850 0.31780 0.05900
H 	H 	0.44250 0.80070 0.81440 0.06900
H 	H 	0.33060 0.22060 0.13770 0.07900
H 	H 	0.88390 0.34300 0.36180 0.01900
H 	H 	0.09440 0.20990 0.42600 0.06000
H 	H 	0.83060 0.27940 0.61230 0.07900
H 	H 	0.11610 0.65700 0.86180 0.01900
H 	H 	0.17570 0.85600 0.41130 0.02200
H 	H 	0.82430 0.14400 0.91130 0.02200
H 	H 	0.94090 0.66700 0.47060 0.03200
H 	H 	0.48700 0.12460 0.29470 0.01800
H 	H 	0.89440 0.83860 0.79700 0.03600
H 	H 	0.01300 0.62460 0.95530 0.01800
H 	H 	0.81820 0.18100 0.71820 0.03700
H 	H 	0.84100 0.88860 0.68080 0.02400
H 	H 	0.99020 0.25440 0.95490 0.06300
H 	H 	0.67570 0.64400 0.33870 0.02200
H 	H 	0.18180 0.81900 0.21820 0.03700
H 	H 	0.95430 0.26830 0.34210 0.06900
H 	H 	0.99900 0.30460 0.84450 0.07200
H 	H 	0.60560 0.33860 0.45300 0.03500
H 	H 	0.15900 0.11140 0.18080 0.02400
H 	H 	0.66130 0.36720 0.34490 0.03000
H 	H 	0.00980 0.74560 0.45490 0.06300
H 	H 	0.51300 0.87540 0.79470 0.01800
H 	H 	0.64910 0.31990 0.61980 0.06600
H 	H 	0.55750 0.19930 0.31440 0.06900
H 	H 	0.14910 0.18010 0.13020 0.06600
H 	H 	0.54570 0.76830 0.90790 0.06900
H 	H 	0.49630 0.30180 0.91100 0.07800
H 	H 	0.10960 0.77820 0.43230 0.06900
H 	H 	0.50980 0.75440 0.29510 0.06500
H 	H 	0.31820 0.31900 0.03180 0.03700
H 	H 	0.38390 0.15700 0.38820 0.01900
H 	H 	0.10560 0.16140 0.29700 0.03600
H 	H 	0.34040 0.15190 0.18830 0.02700
H 	H 	0.35090 0.68010 0.11980 0.06600
H 	H 	0.61610 0.84300 0.88820 0.01900
H 	H 	0.55910 0.16700 0.77940 0.03100
H 	H 	0.94250 0.69930 0.93560 0.06900
H 	H 	0.56980 0.62040 0.43200 0.01900
H 	H 	0.85140 0.63190 0.56840 0.02500
H 	H 	0.34100 0.61140 0.06920 0.02400
H 	H 	0.83870 0.86720 0.90510 0.03000
H 	H 	0.89040 0.22180 0.93230 0.06900
H 	H 	0.66940 0.77940 0.63770 0.07900
H 	H 	0.00100 0.69540 0.34450 0.07200
H 	H 	0.84040 0.34810 0.56170 0.02700
H 	H 	0.39440 0.66140 0.95300 0.03500
H 	H 	0.05750 0.30070 0.43560 0.06900
H 	H 	0.68180 0.68100 0.53180 0.03700
H 	H 	0.14860 0.36810 0.06840 0.02500
H 	H 	0.64860 0.13190 0.68160 0.02500
H 	H 	0.06790 0.38330 0.86020 0.02600
H 	H 	0.65900 0.38860 0.56920 0.02400
H 	H 	0.35110 0.78550 0.13910 0.06600
H 	H 	0.49020 0.24560 0.79510 0.06500
H 	H 	0.53860 0.26150 0.43220 0.05900
H 	H 	0.46140 0.73850 0.93220 0.05900
H 	H 	0.32430 0.35600 0.83870 0.02200
H 	H 	0.96140 0.76150 0.81780 0.05900
H 	H 	0.85110 0.71450 0.61090 0.06600
H 	H 	0.99630 0.19820 0.83900 0.07900
H 	H 	0.45430 0.23170 0.40790 0.06900
H 	H 	0.60960 0.72180 0.31770 0.06800
H 	H 	0.50100 0.80460 0.40550 0.07400
H 	H 	0.18160 0.73640 0.17580 0.07200
H 	H 	0.50370 0.69820 0.41100 0.07800
H 	H 	0.98700 0.37540 0.45530 0.01800
H 	H 	0.16130 0.13280 0.40510 0.03000
H 	H 	0.04570 0.73170 0.84210 0.06900
H 	H 	0.40560 0.70990 0.82400 0.06000
H 	H 	0.65960 0.84810 0.68830 0.02700
H 	H 	0.39040 0.27820 0.81770 0.06800
H 	H 	0.68160 0.76360 0.57420 0.07200
H 	H 	0.14890 0.28550 0.11090 0.06600
H 	H 	0.00370 0.80180 0.33900 0.07900
C 	C 	0.48880 0.81040 0.37991 -0.10600
C 	C 	0.82470 0.91310 0.83340 0.36400
C 	C 	0.36360 0.65430 0.86262 0.03300
C 	C 	0.01250 0.27740 0.38705 0.05700
C 	C 	0.89850 0.20120 0.90908 -0.11200
C 	C 	0.11450 0.41480 0.92680 0.35800
C 	C 	0.63980 0.36010 0.40093 -0.10800
C 	C 	0.87110 0.12490 0.86267 -0.13000
C 	C 	0.96100 0.29000 0.36512 -0.12200
C 	C 	0.39670 0.67130 0.92685 0.02600
C 	C 	0.57790 0.64100 0.40882 0.05500
C 	C 	0.96137 0.18720 0.85364 -0.11600
C 	C 	0.20426 0.69850 0.10355 -0.11000
C 	C 	0.30158 0.15760 0.17652 0.04600
C 	C 	0.32470 0.58690 0.91660 0.36400
C 	C 	0.86360 0.84570 0.88738 0.03300
C 	C 	0.86020 0.86010 0.84907 -0.10700
C 	C 	0.51120 0.18960 0.87991 -0.10600
C 	C 	0.90330 0.80000 0.89978 -0.09500
C 	C 	0.37110 0.37510 0.88733 -0.12900
C 	C 	0.00600 0.28060 0.93569 -0.09700
C 	C 	0.51960 0.85370 0.81764 0.06500
C 	C 	0.38550 0.91480 0.32320 0.35900
C 	C 	0.62890 0.62490 0.38733 -0.12900
C 	C 	0.25060 0.12520 0.18933 -0.12400
C 	C 	0.51250 0.22260 0.36295 0.05600
C 	C 	0.76630 0.74680 0.59653 0.04400
C 	C 	0.48750 0.77740 0.86295 0.05600
C 	C 	0.93980 0.76860 0.87386 0.03100
C 	C 	0.69842 0.84240 0.67652 0.04600
C 	C 	0.09670 0.20000 0.39978 -0.09500
C 	C 	0.23600 0.40640 0.02370 0.37300
C 	C 	0.26120 0.08070 0.22110 0.37900
C 	C 	0.03900 0.71000 0.86512 -0.12200
C 	C 	0.68323 0.20770 0.65520 -0.10700
C 	C 	0.53900 0.79000 0.88488 -0.12100
C 	C 	0.30619 0.63360 0.07793 0.04700
C 	C 	0.99400 0.71940 0.43569 -0.09700
C 	C 	0.21604 0.76320 0.17697 -0.10300
C 	C 	0.40330 0.70000 0.85022 -0.09500
C 	C 	0.49400 0.78060 0.31431 -0.10200
C 	C 	0.95310 0.67270 0.44500 0.03500
C 	C 	0.55210 0.14290 0.87060 0.04300
C 	C 	0.14076 0.84500 0.39662 0.05100
C 	C 	0.45310 0.82730 0.30500 0.03900
C 	C 	0.54690 0.17270 0.80500 0.03900
C 	C 	0.98040 0.35370 0.43236 0.06500
C 	C 	0.46100 0.21000 0.38488 -0.12100
C 	C 	0.89670 0.82870 0.82315 0.02600
C 	C 	0.23340 0.35130 0.04609 -0.13400
C 	C 	0.47780 0.80930 0.82933 -0.12100
C 	C 	0.59670 0.30000 0.35022 -0.09500
C 	C 	0.26110 0.70680 0.12081 0.04800
C 	C 	0.74940 0.87480 0.68933 -0.12400
C 	C 	0.01180 0.72788 0.39824 0.03700
C 	C 	0.41910 0.16560 0.37318 0.06600
C 	C 	0.11400 0.58580 0.92310 0.43500
C 	C 	0.13640 0.15430 0.38738 0.03300
C 	C 	0.07790 0.85900 0.34118 0.05500
C 	C 	0.82710 0.08060 0.84530 0.37200
C 	C 	0.76660 0.64870 0.54609 -0.13400
C 	C 	0.26400 0.90640 0.22630 0.37300
C 	C 	0.60150 0.70120 0.34092 -0.11000
C 	C 	0.88550 0.58520 0.42680 0.35800
C 	C 	0.58090 0.83440 0.87318 0.06600
C 	C 	0.81677 0.70770 0.59480 -0.10700
C 	C 	0.78396 0.23680 0.67697 -0.10300
C 	C 	0.53863 0.68720 0.39636 -0.11500
C 	C 	0.17530 0.08690 0.33340 0.36400
C 	C 	0.73340 0.14870 0.70391 -0.13400
C 	C 	0.23880 0.58070 0.02890 0.37900
C 	C 	0.93010 0.63450 0.41685 -0.11500
C 	C 	0.68797 0.32560 0.60800 -0.10900
C 	C 	0.60330 0.32870 0.42685 0.02600
C 	C 	0.98880 0.68960 0.37009 -0.10000
C 	C 	0.39850 0.29880 0.84092 -0.11000
C 	C 	0.76400 0.59360 0.52370 0.37300
C 	C 	0.56020 0.26860 0.37614 0.03100
C 	C 	0.05210 0.35710 0.87940 0.03900
C 	C 	0.36020 0.63990 0.90093 -0.10800
C 	C 	0.73370 0.24680 0.65347 0.04400
C 	C 	0.44950 0.28268 0.86241 0.05000
C 	C 	0.94950 0.21732 0.88759 0.05200
C 	C 	0.92210 0.14100 0.84118 0.05500
C 	C 	0.38600 0.08580 0.32690 0.43500
C 	C 	0.67290 0.58060 0.40470 0.37200
C 	C 	0.73880 0.91930 0.72110 0.37900
C 	C 	0.03863 0.81280 0.35364 -0.11600
C 	C 	0.07120 0.63380 0.91044 -0.15900
C 	C 	0.12890 0.87510 0.36267 -0.13000
C 	C 	0.76110 0.79320 0.62919 0.04800
C 	C 	0.73600 0.09360 0.72630 0.37300
C 	C 	0.57120 0.86620 0.83956 -0.15900
C 	C 	0.85924 0.15500 0.89662 0.05100
C 	C 	0.28382 0.31220 0.04781 0.04800
C 	C 	0.61400 0.91420 0.82690 0.43500
C 	C 	0.55050 0.71732 0.36241 0.05000
C 	C 	0.32710 0.41940 0.90470 0.37200
C 	C 	0.73890 0.29320 0.62081 0.04800
C 	C 	0.64076 0.65500 0.35338 0.05000
C 	C 	0.69381 0.36640 0.57793 0.04700
C 	C 	0.19842 0.65760 0.07348 0.04600
C 	C 	0.46137 0.31280 0.89636 -0.11500
C 	C 	0.05050 0.78268 0.38759 0.05200
C 	C 	0.43980 0.73140 0.87614 0.03100
C 	C 	0.01120 0.31040 0.87009 -0.10000
C 	C 	0.06350 0.21700 0.33555 -0.09200
C 	C 	0.81203 0.82560 0.64200 -0.10900
C 	C 	0.17290 0.91940 0.34530 0.37200
C 	C 	0.43010 0.86550 0.33315 -0.11700
C 	C 	0.44790 0.85710 0.37060 0.04300
C 	C 	0.06020 0.23140 0.37386 0.03100
C 	C 	0.21618 0.81220 0.20219 0.04800
C 	C 	0.63640 0.34570 0.36262 0.03300
C 	C 	0.24940 0.62520 0.06067 -0.12500
C 	C 	0.52220 0.19070 0.32933 -0.12100
C 	C 	0.67530 0.41310 0.41660 0.36400
C 	C 	0.71604 0.73680 0.57303 -0.10300
C 	C 	0.48040 0.14630 0.31764 0.06500
C 	C 	0.04690 0.32730 0.94500 0.03500
C 	C 	0.10150 0.79880 0.40908 -0.11200
C 	C 	0.29574 0.19850 0.14645 -0.11000
C 	C 	0.98820 0.27212 0.89824 0.03700
C 	C 	0.35924 0.34500 0.85338 0.05000
C 	C 	0.50600 0.21940 0.81431 -0.10200
C 	C 	0.02220 0.30930 0.42067 -0.12100
C 	C 	0.78382 0.18780 0.70219 0.04800
C 	C 	0.19381 0.13360 0.17207 0.04700
C 	C 	0.42880 0.13380 0.33956 -0.15900
C 	C 	0.70426 0.80150 0.64645 -0.11000
C 	C 	0.31692 0.84140 0.18042 0.05100
C 	C 	0.68308 0.15860 0.68042 0.05100
C 	C 	0.18797 0.17440 0.14200 -0.10900
C 	C 	0.88600 0.41420 0.42310 0.43500
C 	C 	0.42210 0.35900 0.90882 0.05500
C 	C 	0.43650 0.71700 0.91445 -0.09200
C 	C 	0.56990 0.13450 0.83315 -0.11700
C 	C 	0.18308 0.34140 0.06958 0.05100
C 	C 	0.23370 0.25320 0.09653 0.04400
C 	C 	0.71618 0.68780 0.54781 0.04800
C 	C 	0.76120 0.41930 0.52890 0.37900
C 	C 	0.06990 0.36550 0.91685 -0.11500
C 	C 	0.61450 0.08520 0.82320 0.35900
C 	C 	0.28396 0.26320 0.07303 -0.10300
C 	C 	0.26630 0.75320 0.15347 0.04400
C 	C 	0.75060 0.37480 0.56067 -0.12500
C 	C 	0.79574 0.30150 0.60355 -0.11000
C 	C 	0.26660 0.85130 0.20391 -0.13400
C 	C 	0.80619 0.86640 0.67207 0.04700
C 	C 	0.18323 0.29230 0.09480 -0.10700
C 	C 	0.98750 0.72260 0.88705 0.05700
C 	C 	0.93650 0.78300 0.83555 -0.09200
C 	C 	0.31677 0.79230 0.15520 -0.10700
C 	C 	0.48820 0.22788 0.85176 0.04200
C 	C 	0.08090 0.66560 0.87682 0.06700
C 	C 	0.10330 0.17130 0.32315 0.02600
C 	C 	0.91910 0.33440 0.37682 0.06700
C 	C 	0.81692 0.65860 0.56958 0.05100
C 	C 	0.56350 0.28300 0.41445 -0.09200
C 	C 	0.31203 0.67440 0.10800 -0.10900
C 	C 	0.92880 0.36620 0.41044 -0.15900
C 	C 	0.97780 0.69070 0.92067 -0.12100
C 	C 	0.01960 0.64630 0.93236 0.06500
C 	C 	0.51180 0.77212 0.35176 0.04200
C 	C 	0.80158 0.34240 0.57348 0.04600
C 	C 	0.13980 0.13990 0.34907 -0.10700
C 	C 	0.94790 0.64290 0.37940 0.03900
C 	C 	0.23890 0.20680 0.12919 0.04800
O 	O 	0.28730 0.56190 0.89232 -0.41000
O 	O 	0.88310 0.56970 0.46255 -0.42400
O 	O 	0.65770 0.92760 0.84908 -0.44300
O 	O 	0.80850 0.55670 0.52505 -0.43700
O 	O 	0.21320 0.04650 0.22848 -0.43100
O 	O 	0.27490 0.43050 0.88805 -0.42800
O 	O 	0.61690 0.06970 0.78745 -0.42400
O 	O 	0.33040 0.57280 0.95085 -0.43300
O 	O 	0.77490 0.06950 0.86195 -0.42800
O 	O 	0.21270 0.06190 0.35768 -0.40900
O 	O 	0.71440 0.58390 0.50371 -0.42400
O 	O 	0.77350 0.50250 0.45320 -0.64800
O 	O 	0.22650 0.49750 0.95320 -0.64800
O 	O 	0.72650 0.00250 0.79680 -0.64800
O 	O 	0.38310 0.93030 0.28745 -0.42400
O 	O 	0.28560 0.41610 0.00371 -0.42400
O 	O 	0.64500 0.05920 0.84939 -0.43200
O 	O 	0.27350 0.99750 0.29680 -0.64800
O 	O 	0.85500 0.55920 0.40061 -0.43200
O 	O 	0.84400 0.05210 0.81572 -0.44900
O 	O 	0.21440 0.91610 0.24629 -0.42400
O 	O 	0.35500 0.94080 0.34939 -0.43200
O 	O 	0.71270 0.43810 0.39232 -0.41000
O 	O 	0.14500 0.44080 0.90061 -0.43200
O 	O 	0.11690 0.43030 0.96255 -0.42400
O 	O 	0.34400 0.44790 0.93428 -0.44900
O 	O 	0.15770 0.57240 0.90092 -0.44300
O 	O 	0.34230 0.07240 0.34908 -0.44300
O 	O 	0.83040 0.92720 0.79915 -0.43300
O 	O 	0.39300 0.05970 0.29654 -0.45900
O 	O 	0.72510 0.56950 0.38805 -0.42800
O 	O 	0.31230 0.07530 0.23555 -0.44700
O 	O 	0.71320 0.45350 0.52152 -0.43100
O 	O 	0.78730 0.93810 0.85768 -0.40900
O 	O 	0.68770 0.92470 0.73555 -0.44700
O 	O 	0.28680 0.54650 0.02152 -0.43100
O 	O 	0.78560 0.08390 0.74629 -0.42400
O 	O 	0.81230 0.42470 0.51445 -0.44700
O 	O 	0.84230 0.42760 0.40092 -0.44300
O 	O 	0.30850 0.94330 0.22495 -0.43700
O 	O 	0.22510 0.93050 0.36195 -0.42800
O 	O 	0.10700 0.55970 0.95346 -0.46000
O 	O 	0.19150 0.44330 0.02505 -0.43700
O 	O 	0.15600 0.94790 0.31572 -0.44900
O 	O 	0.78680 0.95350 0.72848 -0.43100
O 	O 	0.66960 0.42720 0.45085 -0.43300
O 	O 	0.16960 0.07280 0.29915 -0.43300
O 	O 	0.89300 0.44030 0.45346 -0.46000
O 	O 	0.65600 0.55210 0.43428 -0.44900
O 	O 	0.69150 0.05670 0.72495 -0.43700
O 	O 	0.18770 0.57530 0.01445 -0.44700
O 	O 	0.60700 0.94030 0.79654 -0.45900
