data_crystal

_cell_length_a 38.14240
_cell_length_b 38.14240
_cell_length_c 38.14240
_cell_angle_alpha 109.47100
_cell_angle_beta  109.47100
_cell_angle_gamma 109.47100

_symmetry_space_group_name_	'P 1'
_symmetry_space_group_name_H-M	'P 1'

loop_
_symmetry_equiv_pos_as_xyz
  x,y,z

loop_
_atom_site_label
_atom_site_type_symbol
_atom_site_fract_x
_atom_site_fract_y
_atom_site_fract_z
_atom_site_charge
Fe	Fe	0.72066 0.97096 0.42306 1.23200
Fe	Fe	0.27934 0.02904 0.57694 1.23400
Fe	Fe	0.93909 0.46779 0.23690 1.22600
Fe	Fe	0.70219 0.76310 0.23089 1.22700
Fe	Fe	0.53221 0.26310 0.56091 1.22700
Fe	Fe	0.73690 0.93909 0.96779 1.22500
Fe	Fe	0.95150 0.73393 0.01563 1.22000
Fe	Fe	0.04850 0.26607 0.98437 1.21600
Fe	Fe	0.22066 0.79760 0.74970 1.23300
Fe	Fe	0.73630 0.28040 0.75190 1.22400
Fe	Fe	0.01560 0.75190 0.47150 1.22600
Fe	Fe	0.70240 0.42306 0.45210 1.23300
Fe	Fe	0.23089 0.96779 0.02870 1.22600
Fe	Fe	0.56091 0.79781 0.52870 1.22700
Fe	Fe	0.45150 0.43587 0.21757 1.21800
Fe	Fe	0.23630 0.48440 0.45590 1.22400
Fe	Fe	0.24970 0.22066 0.29760 1.23200
Fe	Fe	0.28040 0.25190 0.23630 1.22300
Fe	Fe	0.79760 0.24970 0.72066 1.23200
Fe	Fe	0.97096 0.92306 0.22066 1.23100
Fe	Fe	0.07694 0.27934 0.52904 1.23200
Fe	Fe	0.06091 0.53221 0.76310 1.22600
Fe	Fe	0.73393 0.51563 0.45150 1.21700
Fe	Fe	0.47130 0.76911 0.53221 1.22600
Fe	Fe	0.75030 0.77934 0.70240 1.23200
Fe	Fe	0.51560 0.04410 0.26370 1.22400
Fe	Fe	0.75190 0.97150 0.51560 1.22200
Fe	Fe	0.02904 0.07694 0.77934 1.23400
Fe	Fe	0.57694 0.04790 0.79760 1.23200
Fe	Fe	0.45210 0.52904 0.24970 1.23200
Fe	Fe	0.25030 0.54790 0.97096 1.23100
Fe	Fe	0.52850 0.78040 0.04410 1.22400
Fe	Fe	0.98437 0.21830 0.43587 1.21500
Fe	Fe	0.78170 0.06413 0.51563 1.21700
Fe	Fe	0.23690 0.26911 0.79781 1.22600
Fe	Fe	0.03221 0.47130 0.26911 1.22700
Fe	Fe	0.02850 0.98440 0.74810 1.22200
Fe	Fe	0.25190 0.73630 0.78040 1.22300
Fe	Fe	0.76911 0.03221 0.97130 1.22500
Fe	Fe	0.93587 0.98437 0.71830 1.21500
Fe	Fe	0.77934 0.20240 0.25030 1.23200
Fe	Fe	0.24810 0.02850 0.48440 1.22500
Fe	Fe	0.21830 0.93587 0.48437 1.21600
Fe	Fe	0.02870 0.56091 0.29781 1.22700
Fe	Fe	0.21960 0.45590 0.97150 1.22200
Fe	Fe	0.26310 0.06091 0.03221 1.22700
Fe	Fe	0.78243 0.71830 0.73393 1.21700
Fe	Fe	0.29760 0.57694 0.54790 1.23200
Fe	Fe	0.26607 0.48437 0.54850 1.21700
Fe	Fe	0.76607 0.21757 0.78170 1.21700
Fe	Fe	0.76370 0.51560 0.54410 1.22300
Fe	Fe	0.20219 0.97130 0.93909 1.22300
Fe	Fe	0.97150 0.01560 0.25190 1.22300
Fe	Fe	0.51563 0.95150 0.23393 1.21700
Fe	Fe	0.06413 0.01563 0.28170 1.22000
Fe	Fe	0.96779 0.52870 0.73089 1.22400
Fe	Fe	0.71830 0.23393 0.28243 1.21700
Fe	Fe	0.23393 0.78243 0.21830 1.21700
Fe	Fe	0.42306 0.95210 0.20240 1.23200
Fe	Fe	0.97130 0.43909 0.70219 1.22400
Fe	Fe	0.28243 0.54850 0.06413 1.21700
Fe	Fe	0.78040 0.54410 0.02850 1.22500
Fe	Fe	0.71757 0.45150 0.93587 1.21600
Fe	Fe	0.21757 0.28170 0.26607 1.21700
Fe	Fe	0.29781 0.23690 0.76911 1.22600
Fe	Fe	0.52870 0.23089 0.46779 1.22600
Fe	Fe	0.43587 0.71757 0.95150 1.21700
Fe	Fe	0.92306 0.72066 0.47096 1.23200
Fe	Fe	0.79781 0.02870 0.06091 1.22700
Fe	Fe	0.45590 0.47150 0.71960 1.22300
Fe	Fe	0.43909 0.20219 0.47130 1.22600
Fe	Fe	0.01563 0.78170 0.56413 1.21800
Fe	Fe	0.74810 0.26370 0.21960 1.22300
Fe	Fe	0.52904 0.74970 0.95210 1.23200
Fe	Fe	0.04410 0.76370 0.01560 1.22600
Fe	Fe	0.76310 0.73089 0.20219 1.22600
Fe	Fe	0.48440 0.95590 0.73630 1.22200
Fe	Fe	0.46779 0.73690 0.43909 1.22600
Fe	Fe	0.28170 0.76607 0.71757 1.21700
Fe	Fe	0.74970 0.45210 0.02904 1.23300
Fe	Fe	0.47150 0.21960 0.95590 1.22200
Fe	Fe	0.54850 0.56413 0.78243 1.21700
Fe	Fe	0.95210 0.70240 0.92306 1.23200
Fe	Fe	0.71960 0.74810 0.76370 1.22300
Fe	Fe	0.54410 0.52850 0.28040 1.22300
Fe	Fe	0.20240 0.75030 0.27934 1.23200
Fe	Fe	0.26911 0.29781 0.73690 1.22600
Fe	Fe	0.95590 0.23630 0.98440 1.22100
Fe	Fe	0.98440 0.24810 0.52850 1.22100
Fe	Fe	0.47096 0.25030 0.04790 1.23200
Fe	Fe	0.56413 0.28243 0.04850 1.21700
Fe	Fe	0.26370 0.71960 0.24810 1.22300
Fe	Fe	0.73089 0.70219 0.26310 1.22600
Fe	Fe	0.54790 0.47096 0.75030 1.23200
Fe	Fe	0.04790 0.29760 0.07694 1.23200
Fe	Fe	0.48437 0.04850 0.76607 1.21700
H 	H 	0.11930 0.42990 0.12180 0.08300
H 	H 	0.87090 0.23120 0.37770 0.04100
H 	H 	0.62290 0.60680 0.91010 0.07000
H 	H 	0.49790 0.30160 0.90830 0.07100
H 	H 	0.92960 0.10990 0.11070 0.08000
H 	H 	0.57040 0.68110 0.18030 0.08000
H 	H 	0.71260 0.10360 0.99840 0.06100
H 	H 	0.61020 0.70020 0.98180 0.06800
H 	H 	0.10900 0.21260 0.71420 0.06600
H 	H 	0.80370 0.39330 0.30160 0.07100
H 	H 	0.91000 0.28160 0.29980 0.07200
H 	H 	0.81900 0.41230 0.80290 0.07300
H 	H 	0.49750 0.18940 0.11930 0.08300
H 	H 	0.91170 0.09060 0.39250 0.07300
H 	H 	0.35910 0.00830 0.13080 0.04400
H 	H 	0.00080 0.39010 0.31970 0.08500
H 	H 	0.48390 0.09330 0.18100 0.07300
H 	H 	0.89600 0.25040 0.87220 0.04900
H 	H 	0.85910 0.72830 0.35080 0.04300
H 	H 	0.62180 0.24960 0.14560 0.04800
H 	H 	0.58830 0.98080 0.17890 0.07000
H 	H 	0.63970 0.14650 0.76880 0.04200
H 	H 	0.36030 0.85350 0.23120 0.04200
H 	H 	0.60400 0.47620 0.35440 0.04800
H 	H 	0.48390 0.87710 0.28720 0.07000
H 	H 	0.14920 0.14090 0.77170 0.04400
H 	H 	0.12290 0.21280 0.01610 0.07100
H 	H 	0.08990 0.19670 0.21280 0.07000
H 	H 	0.42990 0.62180 0.61930 0.08300
H 	H 	0.01610 0.30330 0.39320 0.07100
H 	H 	0.41170 0.01920 0.82110 0.07900
H 	H 	0.91040 0.30370 0.50210 0.07000
H 	H 	0.08830 0.90940 0.60750 0.07500
H 	H 	0.00680 0.86030 0.12910 0.04200
H 	H 	0.90670 0.31900 0.01610 0.07400
H 	H 	0.99320 0.13970 0.87090 0.04100
H 	H 	0.60520 0.71420 0.50160 0.06500
H 	H 	0.25040 0.37220 0.39600 0.04800
H 	H 	0.11020 0.12840 0.91000 0.07300
H 	H 	0.39010 0.81970 0.50080 0.08000
H 	H 	0.87820 0.80810 0.49750 0.08300
H 	H 	0.30330 0.89320 0.51610 0.07000
H 	H 	0.98390 0.69670 0.60680 0.06900
H 	H 	0.21260 0.21420 0.60900 0.06500
H 	H 	0.59000 0.88980 0.37160 0.07200
H 	H 	0.86030 0.62910 0.50680 0.04200
H 	H 	0.81890 0.88930 0.99920 0.07600
H 	H 	0.17890 0.69810 0.09060 0.07400
H 	H 	0.69810 0.59060 0.67890 0.07400
H 	H 	0.49320 0.62230 0.85350 0.04200
H 	H 	0.07040 0.89010 0.88930 0.08000
H 	H 	0.69630 0.99790 0.58960 0.06700
H 	H 	0.50210 0.69840 0.09170 0.07100
H 	H 	0.60360 0.39100 0.60520 0.06500
H 	H 	0.79980 0.91000 0.78160 0.07200
H 	H 	0.67890 0.58830 0.48080 0.07400
H 	H 	0.51610 0.90670 0.81900 0.07300
H 	H 	0.80290 0.89060 0.48390 0.07300
H 	H 	0.00210 0.91040 0.80370 0.07400
H 	H 	0.37090 0.99320 0.63970 0.04100
H 	H 	0.12180 0.19190 0.50250 0.08300
H 	H 	0.91230 0.59330 0.10940 0.07400
H 	H 	0.35050 0.74640 0.37750 0.04800
H 	H 	0.81060 0.38070 0.00250 0.08800
H 	H 	0.40940 0.82110 0.80190 0.07400
H 	H 	0.24960 0.64560 0.12180 0.04700
H 	H 	0.35080 0.12250 0.99170 0.04200
H 	H 	0.09330 0.68100 0.98390 0.07200
H 	H 	0.40830 0.49790 0.80160 0.07100
H 	H 	0.30370 0.00210 0.41040 0.07700
H 	H 	0.19810 0.51920 0.10750 0.07500
H 	H 	0.62840 0.01820 0.71840 0.07600
H 	H 	0.78160 0.37160 0.48180 0.07200
H 	H 	0.91010 0.80330 0.78720 0.07000
H 	H 	0.63080 0.35910 0.50830 0.04300
H 	H 	0.69840 0.59170 0.00210 0.07600
H 	H 	0.40670 0.39060 0.58770 0.07300
H 	H 	0.39330 0.80160 0.30370 0.07100
H 	H 	0.28740 0.89640 0.00160 0.06900
H 	H 	0.39600 0.52380 0.64560 0.04800
H 	H 	0.97300 0.62250 0.36890 0.04700
H 	H 	0.36890 0.24640 0.89590 0.04900
H 	H 	0.86890 0.97300 0.12250 0.04700
H 	H 	0.39590 0.36890 0.74640 0.04800
H 	H 	0.37770 0.64650 0.00680 0.04200
H 	H 	0.87750 0.35050 0.24640 0.04900
H 	H 	0.39480 0.28580 0.49840 0.06500
H 	H 	0.61070 0.92960 0.60990 0.08000
H 	H 	0.36920 0.64090 0.49170 0.04300
H 	H 	0.59170 0.50210 0.19840 0.07100
H 	H 	0.58990 0.37710 0.89320 0.07000
H 	H 	0.29980 0.51820 0.88980 0.07200
H 	H 	0.39060 0.08770 0.90670 0.07300
H 	H 	0.37820 0.88070 0.07010 0.08300
H 	H 	0.89480 0.39640 0.10900 0.06500
H 	H 	0.64650 0.50680 0.87770 0.04200
H 	H 	0.69190 0.07010 0.18940 0.08300
H 	H 	0.75360 0.60410 0.13110 0.04800
H 	H 	0.10360 0.49840 0.21260 0.06600
H 	H 	0.35440 0.37820 0.25040 0.04800
H 	H 	0.10680 0.98390 0.19670 0.06900
H 	H 	0.87820 0.02380 0.62780 0.04900
H 	H 	0.92990 0.31060 0.80810 0.08300
H 	H 	0.50830 0.64920 0.37750 0.04300
H 	H 	0.18110 0.11070 0.00080 0.08500
H 	H 	0.85050 0.47300 0.60410 0.04800
H 	H 	0.80160 0.80370 0.89330 0.07100
H 	H 	0.47620 0.85440 0.10400 0.04700
H 	H 	0.19840 0.19630 0.10670 0.07100
H 	H 	0.30810 0.92990 0.81060 0.08300
H 	H 	0.58960 0.09170 0.39330 0.07100
H 	H 	0.08770 0.40670 0.89060 0.07300
H 	H 	0.89060 0.98390 0.30290 0.07200
H 	H 	0.64950 0.25360 0.62250 0.04800
H 	H 	0.12910 0.76880 0.62230 0.04200
H 	H 	0.12250 0.64950 0.75360 0.04700
H 	H 	0.89100 0.78740 0.28580 0.06500
H 	H 	0.89590 0.14950 0.02700 0.04900
H 	H 	0.87710 0.78720 0.98390 0.06900
H 	H 	0.74640 0.87750 0.85050 0.04800
H 	H 	0.08960 0.69630 0.49790 0.07200
H 	H 	0.89330 0.58960 0.59170 0.07100
H 	H 	0.30290 0.81900 0.91230 0.07400
H 	H 	0.89320 0.01610 0.80330 0.07100
H 	H 	0.12780 0.87820 0.52380 0.04900
H 	H 	0.50160 0.28740 0.39640 0.06500
H 	H 	0.88980 0.87160 0.09000 0.07200
H 	H 	0.61930 0.49750 0.68940 0.08300
H 	H 	0.07010 0.68940 0.19190 0.08300
H 	H 	0.62910 0.00680 0.36030 0.04200
H 	H 	0.00160 0.60520 0.21420 0.07000
H 	H 	0.64560 0.62180 0.74960 0.04800
H 	H 	0.62230 0.35350 0.99320 0.04100
H 	H 	0.87220 0.12180 0.47620 0.04700
H 	H 	0.89010 0.38930 0.57040 0.08000
H 	H 	0.21420 0.10900 0.71260 0.06600
H 	H 	0.00250 0.12180 0.69190 0.08900
H 	H 	0.57010 0.37820 0.38070 0.08300
H 	H 	0.78740 0.78580 0.39100 0.06500
H 	H 	0.62250 0.77170 0.63080 0.04300
H 	H 	0.28580 0.99840 0.89480 0.06000
H 	H 	0.98180 0.78160 0.87160 0.06900
H 	H 	0.09000 0.71840 0.70020 0.07200
H 	H 	0.72830 0.85080 0.35910 0.04300
H 	H 	0.18100 0.58770 0.19710 0.07300
H 	H 	0.14950 0.52700 0.39590 0.04800
H 	H 	0.97620 0.87220 0.62180 0.04700
H 	H 	0.58770 0.69710 0.68100 0.07300
H 	H 	0.02380 0.12780 0.37820 0.04900
H 	H 	0.01920 0.32110 0.91170 0.07900
H 	H 	0.88070 0.57010 0.87820 0.08300
H 	H 	0.50080 0.18110 0.61070 0.08000
H 	H 	0.10400 0.74960 0.12780 0.04700
H 	H 	0.78580 0.89100 0.28740 0.06500
H 	H 	0.13110 0.02700 0.87750 0.04900
H 	H 	0.68030 0.57040 0.18110 0.08000
H 	H 	0.80330 0.28720 0.41010 0.07000
H 	H 	0.25360 0.12250 0.14950 0.04800
H 	H 	0.50680 0.37770 0.14650 0.04200
H 	H 	0.59330 0.60940 0.41230 0.07300
H 	H 	0.48080 0.39250 0.30190 0.07400
H 	H 	0.63110 0.75360 0.10410 0.04700
H 	H 	0.12840 0.41000 0.61020 0.07200
H 	H 	0.31060 0.30810 0.42990 0.08300
H 	H 	0.01820 0.21840 0.12840 0.07700
H 	H 	0.80190 0.48080 0.89250 0.07400
H 	H 	0.12180 0.97620 0.37220 0.04700
H 	H 	0.27170 0.14920 0.64090 0.04400
H 	H 	0.71280 0.08990 0.69670 0.07000
H 	H 	0.10520 0.60360 0.89100 0.06500
H 	H 	0.47300 0.10410 0.35050 0.04700
H 	H 	0.41000 0.11020 0.62840 0.07300
H 	H 	0.12230 0.12910 0.26880 0.04100
H 	H 	0.78720 0.48390 0.37710 0.07000
H 	H 	0.10940 0.01610 0.69710 0.07500
H 	H 	0.39320 0.58990 0.87710 0.07000
H 	H 	0.10990 0.61070 0.42960 0.08100
H 	H 	0.68940 0.69190 0.57010 0.08300
H 	H 	0.87160 0.59000 0.38980 0.07200
H 	H 	0.28720 0.91010 0.30330 0.07100
H 	H 	0.37750 0.22830 0.36920 0.04400
H 	H 	0.41040 0.90830 0.60670 0.07100
H 	H 	0.62180 0.11930 0.92990 0.08300
H 	H 	0.82110 0.30190 0.90940 0.07500
H 	H 	0.19710 0.10940 0.51610 0.07400
H 	H 	0.20020 0.09000 0.21840 0.07200
H 	H 	0.71420 0.00160 0.10520 0.06900
H 	H 	0.13970 0.37090 0.49320 0.04200
H 	H 	0.87770 0.87090 0.73120 0.04200
H 	H 	0.62780 0.10400 0.24960 0.04700
H 	H 	0.19630 0.60670 0.69840 0.07100
H 	H 	0.73120 0.36030 0.35350 0.04200
H 	H 	0.85350 0.73120 0.86030 0.04200
H 	H 	0.80810 0.99750 0.37820 0.07900
H 	H 	0.18940 0.61930 0.99750 0.07800
H 	H 	0.37220 0.89600 0.75040 0.04900
H 	H 	0.39640 0.60900 0.39480 0.06500
H 	H 	0.52380 0.14560 0.89600 0.04900
H 	H 	0.00830 0.63080 0.85910 0.04400
H 	H 	0.09060 0.89250 0.41170 0.07400
H 	H 	0.39250 0.80190 0.98080 0.07000
H 	H 	0.99170 0.36920 0.14090 0.04300
H 	H 	0.11070 0.50080 0.68110 0.08000
H 	H 	0.21280 0.51610 0.62290 0.07000
H 	H 	0.35350 0.49320 0.12230 0.04100
H 	H 	0.60990 0.18030 0.49920 0.08000
H 	H 	0.99920 0.60990 0.68030 0.07600
H 	H 	0.51820 0.38980 0.79980 0.07200
H 	H 	0.13080 0.62250 0.27170 0.04400
H 	H 	0.99840 0.39480 0.78580 0.06000
H 	H 	0.69710 0.18100 0.08770 0.07300
H 	H 	0.28160 0.79980 0.41000 0.07200
H 	H 	0.32110 0.41170 0.51920 0.07400
H 	H 	0.22830 0.86920 0.87750 0.04400
H 	H 	0.49920 0.81890 0.38930 0.08000
H 	H 	0.85440 0.60400 0.97620 0.04700
H 	H 	0.59060 0.17890 0.19810 0.07400
H 	H 	0.60680 0.41010 0.12290 0.07000
H 	H 	0.60410 0.63110 0.25360 0.04800
H 	H 	0.87750 0.50830 0.14920 0.04400
H 	H 	0.86920 0.37750 0.72830 0.04300
H 	H 	0.71840 0.20020 0.59000 0.07200
H 	H 	0.52700 0.89590 0.64950 0.04900
H 	H 	0.42960 0.31890 0.81970 0.08000
H 	H 	0.19670 0.71280 0.58990 0.07000
H 	H 	0.10410 0.85050 0.97300 0.04700
H 	H 	0.24640 0.39590 0.86890 0.04800
H 	H 	0.31970 0.42960 0.81890 0.08000
H 	H 	0.14560 0.39600 0.02380 0.04900
H 	H 	0.60750 0.19810 0.01920 0.07900
H 	H 	0.48180 0.61020 0.20020 0.07200
H 	H 	0.69670 0.10680 0.48390 0.07000
H 	H 	0.37750 0.13110 0.52700 0.04800
H 	H 	0.49840 0.71260 0.60360 0.06500
H 	H 	0.37160 0.98180 0.28160 0.06800
H 	H 	0.62250 0.86890 0.47300 0.04800
H 	H 	0.09170 0.89330 0.08960 0.07100
H 	H 	0.30190 0.40940 0.32110 0.07400
H 	H 	0.38930 0.07040 0.39010 0.08100
H 	H 	0.70020 0.48180 0.11020 0.07200
H 	H 	0.26880 0.63970 0.64650 0.04200
H 	H 	0.89640 0.50160 0.78740 0.06500
H 	H 	0.64090 0.99170 0.86920 0.04300
H 	H 	0.38070 0.50250 0.31060 0.08300
H 	H 	0.41010 0.62290 0.10680 0.07000
H 	H 	0.10750 0.08830 0.40940 0.07500
H 	H 	0.74960 0.62780 0.60400 0.04800
H 	H 	0.12250 0.49170 0.85080 0.04300
H 	H 	0.88930 0.49920 0.31890 0.08000
H 	H 	0.98390 0.80290 0.39060 0.07300
H 	H 	0.75040 0.35440 0.87820 0.04900
H 	H 	0.30160 0.40830 0.99790 0.06600
H 	H 	0.76880 0.12230 0.62910 0.04100
H 	H 	0.41230 0.30290 0.31900 0.07300
H 	H 	0.10670 0.41040 0.40830 0.07100
H 	H 	0.51920 0.60750 0.69810 0.07400
H 	H 	0.99790 0.08960 0.19630 0.06500
H 	H 	0.01610 0.19710 0.60940 0.07500
H 	H 	0.68100 0.48390 0.59330 0.07300
H 	H 	0.68110 0.68030 0.07040 0.08100
H 	H 	0.14090 0.27170 0.64920 0.04400
H 	H 	0.90830 0.10670 0.91040 0.07100
H 	H 	0.49170 0.35080 0.62250 0.04300
H 	H 	0.21840 0.62840 0.51820 0.07200
H 	H 	0.60900 0.89480 0.89640 0.06500
H 	H 	0.51610 0.12290 0.71280 0.07000
H 	H 	0.77170 0.13080 0.12250 0.04300
H 	H 	0.60940 0.91230 0.09330 0.07400
H 	H 	0.02700 0.37750 0.63110 0.04900
H 	H 	0.23120 0.87770 0.37090 0.04200
H 	H 	0.50250 0.81060 0.88070 0.08300
H 	H 	0.85080 0.85910 0.22830 0.04300
H 	H 	0.64920 0.87750 0.00830 0.04400
H 	H 	0.38980 0.29980 0.01820 0.07600
H 	H 	0.89250 0.91170 0.59060 0.07400
H 	H 	0.18030 0.99920 0.10990 0.07500
H 	H 	0.37820 0.75040 0.85440 0.04800
H 	H 	0.60670 0.19840 0.69630 0.07100
H 	H 	0.98080 0.67890 0.08830 0.07100
H 	H 	0.90940 0.10750 0.58830 0.07500
H 	H 	0.99750 0.87820 0.30810 0.07900
H 	H 	0.81970 0.00080 0.89010 0.08300
H 	H 	0.31890 0.31970 0.92960 0.08000
H 	H 	0.14650 0.26880 0.13970 0.04200
H 	H 	0.19190 0.00250 0.62180 0.08900
H 	H 	0.31900 0.51610 0.40670 0.07300
H 	H 	0.39100 0.10520 0.10360 0.06600
H 	H 	0.37710 0.39320 0.08990 0.07000
C 	C 	0.54550 0.24550 0.10380 0.39400
C 	C 	0.64110 0.02200 0.18070 0.09200
C 	C 	0.34130 0.46040 0.31930 0.09200
C 	C 	0.46160 0.30170 0.35950 0.07500
C 	C 	0.06020 0.34080 0.58680 0.34200
C 	C 	0.09440 0.87620 0.93540 -0.07100
C 	C 	0.60080 0.34910 0.96790 0.03300
C 	C 	0.05830 0.20000 0.45450 0.39300
C 	C 	0.87620 0.43540 0.59440 -0.07000
C 	C 	0.45790 0.18460 0.54530 0.38200
C 	C 	0.87730 0.92480 0.26410 -0.09100
C 	C 	0.58770 0.84240 0.02810 0.40700
C 	C 	0.55830 0.10380 0.85830 0.39300
C 	C 	0.05110 0.39890 0.63380 0.02100
C 	C 	0.33000 0.93710 0.80330 -0.06400
C 	C 	0.21840 0.17590 0.76170 0.34400
C 	C 	0.09110 0.95530 0.17320 -0.03700
C 	C 	0.38740 0.63220 0.44480 -0.09000
C 	C 	0.45310 0.79740 0.02450 0.31800
C 	C 	0.54330 0.76170 0.58580 0.34400
C 	C 	0.88740 0.44260 0.75520 -0.09100
C 	C 	0.78060 0.43980 0.52660 0.34200
C 	C 	0.40560 0.57190 0.63010 -0.06400
C 	C 	0.86620 0.94890 0.10110 0.02400
C 	C 	0.25170 0.61880 0.65090 0.03400
C 	C 	0.64170 0.10420 0.44190 0.08000
C 	C 	0.53960 0.18070 0.15870 0.09300
C 	C 	0.13380 0.43710 0.10710 -0.06300
C 	C 	0.94590 0.07630 0.83320 -0.09300
C 	C 	0.54680 0.44150 0.17710 -0.08200
C 	C 	0.40010 0.06290 0.37140 -0.05600
C 	C 	0.79820 0.91740 0.80720 -0.06100
C 	C 	0.39920 0.65090 0.03210 0.03500
C 	C 	0.26170 0.21840 0.67590 0.34400
C 	C 	0.59840 0.18100 0.98980 -0.07100
C 	C 	0.57520 0.95250 0.83930 -0.09000
C 	C 	0.45750 0.28160 0.54330 0.34400
C 	C 	0.30020 0.96250 0.35830 0.08300
C 	C 	0.95470 0.54210 0.31540 0.38200
C 	C 	0.81540 0.95470 0.04210 0.38300
C 	C 	0.86620 0.56290 0.89290 -0.06200
C 	C 	0.36990 0.44180 0.27550 -0.06400
C 	C 	0.29740 0.47270 0.04370 0.36000
C 	C 	0.36970 0.82290 0.26440 -0.08200
C 	C 	0.55920 0.84100 0.43540 -0.07000
C 	C 	0.04960 0.13230 0.39890 0.01200
C 	C 	0.15870 0.47800 0.11910 0.09300
C 	C 	0.06290 0.87140 0.90010 -0.05600
C 	C 	0.65220 0.23490 0.60110 0.02200
C 	C 	0.24310 0.57630 0.63040 -0.09300
C 	C 	0.61670 0.39870 0.58960 -0.04000
C 	C 	0.58080 0.70890 0.66310 -0.03800
C 	C 	0.97340 0.21940 0.06020 0.33600
C 	C 	0.65070 0.60110 0.73340 0.01200
C 	C 	0.30170 0.85950 0.96160 0.07600
C 	C 	0.63380 0.52670 0.69670 -0.06300
C 	C 	0.43540 0.09440 0.37620 -0.07000
C 	C 	0.42480 0.04750 0.16070 -0.09100
C 	C 	0.53210 0.39920 0.15090 0.03400
C 	C 	0.47340 0.41320 0.75400 0.34200
C 	C 	0.93980 0.65920 0.41320 0.34200
C 	C 	0.94480 0.38740 0.13220 -0.09000
C 	C 	0.89290 0.83000 0.52670 -0.06200
C 	C 	0.76170 0.08580 0.04330 0.34500
C 	C 	0.92860 0.15570 0.45310 0.31400
C 	C 	0.24630 0.67530 0.70260 0.35900
C 	C 	0.24550 0.60380 0.04550 0.39500
C 	C 	0.41730 0.36620 0.76510 0.02200
C 	C 	0.80120 0.24050 0.34170 0.41000
C 	C 	0.10120 0.25950 0.06070 0.41000
C 	C 	0.41230 0.15760 0.97190 0.40100
C 	C 	0.02660 0.78060 0.93980 0.34600
C 	C 	0.60380 0.54550 0.74550 0.39400
C 	C 	0.36620 0.26510 0.91730 0.02000
C 	C 	0.91040 0.38330 0.10130 -0.04000
C 	C 	0.41750 0.52730 0.81860 -0.05200
C 	C 	0.16050 0.62040 0.47990 0.09100
C 	C 	0.62860 0.19150 0.52870 -0.05700
C 	C 	0.29130 0.97270 0.39020 -0.06100
C 	C 	0.26510 0.41730 0.86620 0.02200
C 	C 	0.73830 0.78160 0.32410 0.34400
C 	C 	0.45670 0.23830 0.41420 0.34400
C 	C 	0.36770 0.91730 0.76660 0.00900
C 	C 	0.55780 0.89790 0.85950 0.07400
C 	C 	0.86770 0.10110 0.45040 0.01400
C 	C 	0.80910 0.89870 0.28200 -0.04000
C 	C 	0.39620 0.45450 0.25450 0.39400
C 	C 	0.10420 0.94190 0.14170 0.08000
C 	C 	0.42370 0.86960 0.25690 -0.09300
C 	C 	0.11920 0.11020 0.91740 -0.06100
C 	C 	0.65760 0.74530 0.68570 0.40400
C 	C 	0.10110 0.65220 0.73490 0.02300
C 	C 	0.58270 0.63380 0.23490 0.02200
C 	C 	0.90010 0.52870 0.33720 -0.05600
C 	C 	0.61940 0.96710 0.86570 0.02900
C 	C 	0.24480 0.18740 0.63220 -0.09000
C 	C 	0.66630 0.09440 0.22450 -0.06500
C 	C 	0.63230 0.08270 0.23340 0.01500
C 	C 	0.58260 0.19120 0.18100 -0.06400
C 	C 	0.02710 0.41040 0.80910 -0.03200
C 	C 	0.08270 0.84780 0.94890 0.02400
C 	C 	0.44170 0.89620 0.14170 0.39400
C 	C 	0.60130 0.91040 0.88330 -0.04000
C 	C 	0.75370 0.13430 0.10140 0.03100
C 	C 	0.95040 0.86770 0.60110 0.01300
C 	C 	0.27400 0.45970 0.88850 -0.07100
C 	C 	0.67590 0.95750 0.91420 0.34300
C 	C 	0.32290 0.45320 0.05850 -0.08500
C 	C 	0.95530 0.67320 0.59110 -0.03700
C 	C 	0.97130 0.37140 0.30850 -0.06500
C 	C 	0.41040 0.30910 0.52710 -0.04000
C 	C 	0.28060 0.75400 0.34080 0.34200
C 	C 	0.04210 0.58740 0.72670 0.38300
C 	C 	0.34010 0.03840 0.89790 0.07200
C 	C 	0.19280 0.61020 0.49100 -0.06000
C 	C 	0.05520 0.61260 0.86780 -0.09000
C 	C 	0.33720 0.30850 0.93710 -0.05800
C 	C 	0.44080 0.15900 0.56460 -0.06900
C 	C 	0.96710 0.36570 0.11940 0.02800
C 	C 	0.45250 0.37730 0.61320 -0.09000
C 	C 	0.45950 0.65830 0.89880 0.41000
C 	C 	0.18740 0.13220 0.74480 -0.09000
C 	C 	0.73560 0.05850 0.60530 -0.08500
C 	C 	0.18060 0.04010 0.16050 0.08900
C 	C 	0.08260 0.90160 0.39140 -0.06200
C 	C 	0.91730 0.15220 0.05110 0.01900
C 	C 	0.59440 0.65900 0.21820 -0.07000
C 	C 	0.75370 0.32470 0.29740 0.35900
C 	C 	0.11320 0.45250 0.87730 -0.09200
C 	C 	0.78160 0.82410 0.23830 0.34400
C 	C 	0.30000 0.85830 0.75450 0.39300
C 	C 	0.05740 0.44480 0.81260 -0.09400
C 	C 	0.24530 0.08770 0.55960 0.40400
C 	C 	0.65830 0.39880 0.95950 0.41000
C 	C 	0.86960 0.75690 0.92370 -0.09300
C 	C 	0.15920 0.71940 0.74600 0.34200
C 	C 	0.20890 0.12810 0.54580 -0.03800
C 	C 	0.85890 0.03960 0.38090 0.09000
C 	C 	0.41320 0.25400 0.97340 0.33700
C 	C 	0.08210 0.17320 0.21790 -0.03500
C 	C 	0.61150 0.72600 0.04030 -0.07300
C 	C 	0.77330 0.95790 0.91260 0.38100
C 	C 	0.60700 0.04170 0.21910 -0.06600
C 	C 	0.74630 0.84770 0.38060 0.02900
C 	C 	0.25520 0.88740 0.94260 -0.08800
C 	C 	0.22450 0.63010 0.05820 -0.06700
C 	C 	0.23490 0.10110 0.15220 0.02400
C 	C 	0.13010 0.40560 0.07190 -0.06300
C 	C 	0.13220 0.24480 0.68740 -0.09000
C 	C 	0.95250 0.33930 0.07520 -0.08900
C 	C 	0.54580 0.91770 0.83690 -0.03900
C 	C 	0.80850 0.97130 0.87140 -0.06200
C 	C 	0.47290 0.28200 0.38330 -0.04000
C 	C 	0.11940 0.25370 0.65230 0.02900
C 	C 	0.63220 0.94480 0.88740 -0.09100
C 	C 	0.91320 0.93980 0.15920 0.34300
C 	C 	0.09990 0.47130 0.66280 -0.05700
C 	C 	0.02450 0.72710 0.07140 0.31800
C 	C 	0.89140 0.08260 0.40160 -0.06200
C 	C 	0.60710 0.13380 0.93710 -0.06400
C 	C 	0.11150 0.07120 0.88550 -0.06800
C 	C 	0.03840 0.39790 0.84010 0.07200
C 	C 	0.05820 0.92810 0.33370 -0.06700
C 	C 	0.39580 0.53750 0.83770 0.08000
C 	C 	0.17590 0.26170 0.71840 0.34400
C 	C 	0.32260 0.38790 0.28090 -0.06200
C 	C 	0.03290 0.63430 0.88060 0.03000
C 	C 	0.54530 0.86070 0.58740 0.38100
C 	C 	0.96160 0.60210 0.15990 0.07700
C 	C 	0.60530 0.04680 0.36970 -0.08300
C 	C 	0.09440 0.72450 0.16630 -0.06500
C 	C 	0.31860 0.41750 0.02730 -0.04500
C 	C 	0.13380 0.05110 0.89890 0.01900
C 	C 	0.17710 0.23560 0.13030 -0.08200
C 	C 	0.05410 0.92370 0.16680 -0.09300
C 	C 	0.38850 0.27400 0.95970 -0.06700
C 	C 	0.97270 0.89020 0.79130 -0.05800
C 	C 	0.62380 0.21820 0.55920 -0.07000
C 	C 	0.93930 0.69880 0.54050 0.41000
C 	C 	0.08270 0.73340 0.13230 0.01500
C 	C 	0.78200 0.80910 0.39870 -0.04000
C 	C 	0.04050 0.93930 0.19880 0.41000
C 	C 	0.85830 0.30020 0.46250 0.08000
C 	C 	0.37730 0.11320 0.95250 -0.09100
C 	C 	0.82410 0.73830 0.28160 0.34400
C 	C 	0.81900 0.51020 0.90160 -0.06400
C 	C 	0.95750 0.41420 0.17590 0.34300
C 	C 	0.35950 0.55780 0.39790 0.07500
C 	C 	0.93470 0.89300 0.61210 -0.06300
C 	C 	0.37960 0.02010 0.33950 0.09100
C 	C 	0.72710 0.57140 0.52450 0.31400
C 	C 	0.29740 0.34430 0.27290 0.31400
C 	C 	0.55520 0.68740 0.44260 -0.09000
C 	C 	0.34770 0.10140 0.96710 0.03000
C 	C 	0.15830 0.19880 0.25950 0.41100
C 	C 	0.25370 0.15230 0.61940 0.02900
C 	C 	0.76410 0.87730 0.42480 -0.09000
C 	C 	0.28180 0.40560 0.84100 -0.07000
C 	C 	0.01020 0.69120 0.10860 -0.05800
C 	C 	0.27330 0.36070 0.81540 0.38200
C 	C 	0.15990 0.05780 0.69830 0.07600
C 	C 	0.37620 0.78180 0.44080 -0.07000
C 	C 	0.89890 0.04960 0.63230 0.00900
C 	C 	0.36070 0.31540 0.77330 0.38200
C 	C 	0.32680 0.90890 0.54470 -0.03700
C 	C 	0.20260 0.47550 0.04690 0.31300
C 	C 	0.13030 0.39470 0.45320 -0.08200
C 	C 	0.89860 0.53290 0.15230 0.02800
C 	C 	0.67710 0.54680 0.94150 -0.07900
C 	C 	0.24630 0.86570 0.89860 0.02800
C 	C 	0.41740 0.11920 0.61020 -0.06000
C 	C 	0.81260 0.86780 0.25520 -0.09100
C 	C 	0.41260 0.77330 0.45790 0.38200
C 	C 	0.88080 0.88980 0.08260 -0.05800
C 	C 	0.84770 0.88060 0.24630 0.03000
C 	C 	0.53840 0.69830 0.64050 0.07500
C 	C 	0.40890 0.58210 0.86420 -0.03700
C 	C 	0.14050 0.12040 0.95990 0.09300
C 	C 	0.52870 0.83720 0.40010 -0.05700
C 	C 	0.31260 0.05740 0.94480 -0.09300
C 	C 	0.16280 0.09990 0.97130 -0.06400
C 	C 	0.39140 0.98980 0.80880 -0.07100
C 	C 	0.20260 0.24630 0.17530 0.35900
C 	C 	0.88790 0.06530 0.60700 -0.06000
C 	C 	0.37190 0.08080 0.91770 -0.03700
C 	C 	0.78180 0.94080 0.87620 -0.06800
C 	C 	0.02200 0.68070 0.14110 0.09200
C 	C 	0.88730 0.83320 0.75690 -0.09200
C 	C 	0.02730 0.82470 0.07100 0.36200
C 	C 	0.84130 0.52200 0.88090 0.09200
C 	C 	0.33950 0.81940 0.45990 0.09100
C 	C 	0.58680 0.74600 0.02660 0.34600
C 	C 	0.71940 0.24600 0.65920 0.34200
C 	C 	0.15220 0.55110 0.41730 0.02100
C 	C 	0.81430 0.34240 0.75470 0.40400
C 	C 	0.67000 0.06290 0.19670 -0.06100
C 	C 	0.12810 0.04580 0.70890 -0.03800
C 	C 	0.46250 0.66230 0.10420 0.08000
C 	C 	0.04680 0.86970 0.10530 -0.08300
C 	C 	0.34170 0.60120 0.04050 0.41000
C 	C 	0.13230 0.89890 0.54960 0.00900
C 	C 	0.25470 0.81430 0.84240 0.40300
C 	C 	0.04550 0.94170 0.30000 0.39500
C 	C 	0.39470 0.95320 0.63030 -0.08100
C 	C 	0.22670 0.04210 0.08740 0.38300
C 	C 	0.95630 0.92900 0.75370 0.35800
C 	C 	0.16680 0.74310 0.61270 -0.09300
C 	C 	0.84010 0.94220 0.30170 0.07400
C 	C 	0.75450 0.39620 0.95450 0.39300
C 	C 	0.11910 0.14110 0.46040 0.09300
C 	C 	0.20000 0.95450 0.55830 0.39300
C 	C 	0.60120 0.54050 0.84170 0.40900
C 	C 	0.25450 0.30000 0.35830 0.39400
C 	C 	0.39890 0.13380 0.55110 0.02100
C 	C 	0.18570 0.57120 0.45970 -0.07000
C 	C 	0.56290 0.39290 0.36620 -0.06300
C 	C 	0.91920 0.58230 0.12810 -0.04000
C 	C 	0.28200 0.88330 0.97290 -0.04700
C 	C 	0.94190 0.64170 0.60420 0.08000
C 	C 	0.03960 0.88090 0.35890 0.09000
C 	C 	0.66050 0.18060 0.54010 0.09100
C 	C 	0.90890 0.04470 0.82680 -0.03700
C 	C 	0.44180 0.77550 0.86990 -0.06400
C 	C 	0.71800 0.11670 0.02710 -0.03300
C 	C 	0.74550 0.70000 0.64170 0.39400
C 	C 	0.52450 0.45310 0.29740 0.31400
C 	C 	0.64170 0.44170 0.39620 0.39400
C 	C 	0.18460 0.04530 0.95790 0.38000
C 	C 	0.68060 0.52010 0.14050 0.09100
C 	C 	0.08250 0.90110 0.10980 -0.05200
C 	C 	0.19150 0.02870 0.12860 -0.04800
C 	C 	0.03750 0.14170 0.19980 0.07700
C 	C 	0.14170 0.69980 0.53750 0.08000
C 	C 	0.89880 0.74050 0.93930 0.41000
C 	C 	0.89890 0.34780 0.26510 0.01900
C 	C 	0.04030 0.81430 0.92880 -0.07300
C 	C 	0.77400 0.88550 0.81430 -0.06900
C 	C 	0.41730 0.54960 0.65070 0.01200
C 	C 	0.63040 0.55410 0.88730 -0.09100
C 	C 	0.21910 0.67740 0.11210 -0.06400
C 	C 	0.63430 0.38060 0.53290 0.02900
C 	C 	0.93710 0.30330 0.83000 -0.06400
C 	C 	0.36780 0.05520 0.11260 -0.09000
C 	C 	0.32470 0.79740 0.25370 0.35900
C 	C 	0.91230 0.94040 0.25470 0.40400
C 	C 	0.20180 0.08260 0.19280 -0.05800
C 	C 	0.04170 0.71910 0.10700 -0.06500
C 	C 	0.57100 0.02730 0.32470 0.36200
C 	C 	0.24830 0.89920 0.36710 0.03200
C 	C 	0.28210 0.91790 0.32680 -0.03900
C 	C 	0.45470 0.13930 0.41260 0.38200
C 	C 	0.87140 0.40010 0.56290 -0.05700
C 	C 	0.12380 0.56460 0.40560 -0.06900
C 	C 	0.13930 0.91260 0.95470 0.38200
C 	C 	0.83930 0.38680 0.76410 -0.09000
C 	C 	0.36960 0.44590 0.11270 -0.09400
C 	C 	0.36570 0.61940 0.46710 0.02900
C 	C 	0.55960 0.97190 0.81430 0.40100
C 	C 	0.70180 0.50900 0.11920 -0.06000
C 	C 	0.20870 0.59890 0.68140 -0.05200
C 	C 	0.89020 0.29130 0.47270 -0.05200
C 	C 	0.23590 0.12270 0.57520 -0.09000
C 	C 	0.05920 0.62380 0.71820 -0.07200
C 	C 	0.57190 0.13010 0.90560 -0.06200
C 	C 	0.86990 0.59440 0.92810 -0.06500
C 	C 	0.34780 0.76510 0.39890 0.02200
C 	C 	0.45530 0.86420 0.28210 -0.03700
C 	C 	0.45630 0.70260 0.02730 0.36200
C 	C 	0.19980 0.55810 0.66230 0.08000
C 	C 	0.25400 0.47340 0.91320 0.34200
C 	C 	0.15070 0.41730 0.04960 0.01200
C 	C 	0.80720 0.38980 0.50900 -0.05900
C 	C 	0.16310 0.58080 0.20890 -0.03800
C 	C 	0.04750 0.66070 0.92480 -0.09100
C 	C 	0.39020 0.91750 0.59890 -0.05300
C 	C 	0.74630 0.04370 0.57100 0.36000
C 	C 	0.84430 0.04690 0.57140 0.31300
C 	C 	0.88090 0.85890 0.53960 0.09200
C 	C 	0.91770 0.33690 0.04580 -0.03900
C 	C 	0.52200 0.38090 0.34130 0.09200
C 	C 	0.10140 0.46710 0.84770 0.03100
C 	C 	0.26440 0.94150 0.39470 -0.07900
C 	C 	0.29110 0.83690 0.91920 -0.04000
C 	C 	0.96040 0.11910 0.64110 0.09600
C 	C 	0.79110 0.87190 0.45420 -0.03800
C 	C 	0.43710 0.60710 0.63380 -0.06300
C 	C 	0.76440 0.36970 0.32290 -0.08200
C 	C 	0.35950 0.31940 0.97990 0.09100
C 	C 	0.09890 0.39020 0.41750 -0.05200
C 	C 	0.97270 0.17530 0.92900 0.35400
C 	C 	0.74530 0.18570 0.15760 0.40400
C 	C 	0.45040 0.84930 0.08270 0.01500
C 	C 	0.33770 0.39580 0.03750 0.07800
C 	C 	0.92810 0.83370 0.55820 -0.06500
C 	C 	0.36710 0.96790 0.61880 0.03300
C 	C 	0.83320 0.25690 0.38730 -0.09300
C 	C 	0.63290 0.03210 0.38120 0.03500
C 	C 	0.19120 0.68100 0.08260 -0.06200
C 	C 	0.38680 0.26410 0.33930 -0.09000
C 	C 	0.73590 0.16070 0.11320 -0.09100
C 	C 	0.70890 0.16310 0.08080 -0.03600
C 	C 	0.91790 0.82680 0.78210 -0.03800
C 	C 	0.90110 0.60980 0.58250 -0.05200
C 	C 	0.79740 0.52450 0.95310 0.31400
C 	C 	0.58270 0.45040 0.34930 0.01200
C 	C 	0.54250 0.71840 0.45670 0.34400
C 	C 	0.10710 0.17000 0.47330 -0.06300
C 	C 	0.54170 0.43470 0.32260 -0.06200
C 	C 	0.19830 0.15990 0.55780 0.07500
C 	C 	0.40560 0.34100 0.78180 -0.07000
C 	C 	0.89870 0.78200 0.30910 -0.04000
C 	C 	0.60420 0.46250 0.16230 0.08000
C 	C 	0.46040 0.81930 0.84130 0.09200
C 	C 	0.70260 0.52730 0.95630 0.35800
C 	C 	0.34080 0.08680 0.56020 0.34200
C 	C 	0.94890 0.60110 0.36620 0.02200
C 	C 	0.26410 0.83930 0.88680 -0.08900
C 	C 	0.64050 0.44220 0.60210 0.07500
C 	C 	0.56070 0.10120 0.75950 0.41000
C 	C 	0.50900 0.61920 0.20180 -0.05900
C 	C 	0.42880 0.04030 0.31430 -0.07300
C 	C 	0.92370 0.66680 0.55410 -0.09300
C 	C 	0.61910 0.15870 0.97800 0.09300
C 	C 	0.30330 0.33000 0.43710 -0.06300
C 	C 	0.68570 0.44040 0.52810 0.40400
C 	C 	0.55810 0.16230 0.69980 0.08000
C 	C 	0.91260 0.45470 0.63930 0.38200
C 	C 	0.31940 0.47990 0.85950 0.09000
C 	C 	0.52010 0.64050 0.18060 0.09100
C 	C 	0.83370 0.05820 0.42810 -0.06600
C 	C 	0.08230 0.66310 0.95420 -0.03700
C 	C 	0.82290 0.76440 0.86970 -0.08300
C 	C 	0.90560 0.27550 0.83370 -0.06300
C 	C 	0.18140 0.20870 0.09890 -0.05200
C 	C 	0.65900 0.71820 0.09440 -0.07000
C 	C 	0.68100 0.58260 0.69120 -0.06400
C 	C 	0.67530 0.20260 0.74630 0.35900
C 	C 	0.96790 0.11880 0.86710 0.03300
C 	C 	0.97990 0.16050 0.12040 0.09100
C 	C 	0.31930 0.35890 0.47800 0.09200
C 	C 	0.52730 0.31860 0.91750 -0.05300
C 	C 	0.02810 0.68570 0.94040 0.40800
C 	C 	0.11880 0.36710 0.46790 0.03400
C 	C 	0.12860 0.59990 0.43710 -0.05700
C 	C 	0.71790 0.08210 0.67320 -0.03500
C 	C 	0.55110 0.91730 0.65220 0.02000
C 	C 	0.30720 0.79820 0.41740 -0.05900
C 	C 	0.54690 0.20260 0.97550 0.30900
C 	C 	0.10980 0.70870 0.52730 -0.05200
C 	C 	0.63580 0.59110 0.91790 -0.03900
C 	C 	0.74480 0.11260 0.05740 -0.09300
C 	C 	0.14050 0.53840 0.19830 0.07500
C 	C 	0.99100 0.19280 0.11020 -0.06700
C 	C 	0.35830 0.55830 0.60380 0.39400
C 	C 	0.06070 0.30120 0.45950 0.41000
C 	C 	0.52670 0.19670 0.13380 -0.06300
C 	C 	0.55740 0.74480 0.61260 -0.09000
C 	C 	0.11260 0.55740 0.24480 -0.09000
C 	C 	0.76660 0.34930 0.89890 0.01000
C 	C 	0.59110 0.41790 0.13580 -0.03700
C 	C 	0.69980 0.03750 0.64170 0.07800
C 	C 	0.10110 0.95040 0.36770 0.01400
C 	C 	0.43930 0.89880 0.24050 0.41000
C 	C 	0.41790 0.63580 0.09110 -0.03700
C 	C 	0.46710 0.34770 0.60140 0.02900
C 	C 	0.67740 0.61210 0.71910 -0.06200
C 	C 	0.02010 0.83950 0.87960 0.09000
C 	C 	0.47550 0.54690 0.70260 0.31400
C 	C 	0.13040 0.24310 0.07630 -0.09200
C 	C 	0.38120 0.84910 0.24830 0.03400
C 	C 	0.88120 0.63290 0.53210 0.03400
C 	C 	0.56020 0.97340 0.71940 0.33800
C 	C 	0.79130 0.40110 0.31860 -0.05200
C 	C 	0.66280 0.69150 0.06290 -0.05600
C 	C 	0.52730 0.45630 0.20260 0.35900
C 	C 	0.95310 0.92860 0.65570 0.31400
C 	C 	0.44040 0.02810 0.18570 0.40800
C 	C 	0.80880 0.31900 0.91740 -0.06600
C 	C 	0.72450 0.66630 0.59440 -0.06400
C 	C 	0.06530 0.10700 0.38790 -0.06100
C 	C 	0.81430 0.42880 0.54030 -0.07000
C 	C 	0.61320 0.73590 0.66070 -0.09000
C 	C 	0.83720 0.90010 0.02870 -0.04900
C 	C 	0.07190 0.16630 0.44180 -0.06300
C 	C 	0.47190 0.41230 0.65760 0.40400
C 	C 	0.24050 0.84170 0.30120 0.40900
C 	C 	0.04690 0.07140 0.34430 0.31300
C 	C 	0.44190 0.83770 0.30020 0.08000
C 	C 	0.83000 0.02670 0.39290 -0.05600
C 	C 	0.48980 0.59840 0.68100 -0.06400
C 	C 	0.94040 0.75470 0.41230 0.40400
C 	C 	0.35890 0.97800 0.81930 0.09200
C 	C 	0.95830 0.28090 0.89300 -0.05800
C 	C 	0.44150 0.67710 0.04680 -0.08300
C 	C 	0.66310 0.45420 0.58230 -0.03800
C 	C 	0.85830 0.25450 0.80000 0.39300
C 	C 	0.14110 0.96040 0.61910 0.09600
C 	C 	0.54010 0.85950 0.37960 0.09000
C 	C 	0.74600 0.52660 0.08680 0.34200
C 	C 	0.39300 0.95830 0.78090 -0.05800
C 	C 	0.86780 0.75520 0.31260 -0.09100
C 	C 	0.15230 0.11940 0.75370 0.02900
C 	C 	0.17000 0.97330 0.60710 -0.07200
C 	C 	0.23830 0.91420 0.95670 0.34200
C 	C 	0.45320 0.55850 0.82290 -0.08200
C 	C 	0.81930 0.34130 0.96040 0.09500
C 	C 	0.97800 0.31930 0.85890 0.09200
C 	C 	0.12040 0.45990 0.64050 0.09100
C 	C 	0.80020 0.44190 0.33770 0.08000
C 	C 	0.67320 0.09110 0.45530 -0.03700
C 	C 	0.44890 0.08270 0.34780 0.02400
C 	C 	0.86420 0.78210 0.95530 -0.03700
C 	C 	0.94080 0.37620 0.28180 -0.06700
C 	C 	0.38080 0.29820 0.99100 -0.06600
C 	C 	0.45450 0.75450 0.89620 0.39400
C 	C 	0.61020 0.99100 0.69280 -0.06500
C 	C 	0.91740 0.09840 0.60860 -0.06700
C 	C 	0.45990 0.14050 0.62040 0.09100
C 	C 	0.78090 0.32260 0.88790 -0.06100
C 	C 	0.33930 0.57520 0.45250 -0.09000
C 	C 	0.41920 0.29110 0.33690 -0.03800
C 	C 	0.73340 0.63230 0.58270 0.01200
C 	C 	0.86970 0.60530 0.54680 -0.08200
C 	C 	0.89790 0.35950 0.05780 0.07500
C 	C 	0.77290 0.29740 0.84430 0.31300
C 	C 	0.95790 0.41260 0.27330 0.38100
C 	C 	0.44480 0.31260 0.55740 -0.09000
C 	C 	0.61450 0.88850 0.42880 -0.07000
C 	C 	0.08580 0.54330 0.26170 0.34400
C 	C 	0.71820 0.59440 0.15900 -0.06900
C 	C 	0.15760 0.47190 0.91230 0.40500
C 	C 	0.88330 0.47290 0.78200 -0.04000
C 	C 	0.91420 0.45670 0.73830 0.34300
C 	C 	0.21790 0.54470 0.63580 -0.03700
C 	C 	0.63930 0.68460 0.22670 0.38200
C 	C 	0.61880 0.15090 0.75170 0.03400
C 	C 	0.38790 0.78090 0.82260 -0.06200
C 	C 	0.62270 0.88680 0.04750 -0.09000
C 	C 	0.09840 0.10860 0.41740 -0.06400
C 	C 	0.39790 0.34010 0.53840 0.07500
C 	C 	0.51020 0.40160 0.31900 -0.06400
C 	C 	0.21820 0.05920 0.12380 -0.07300
C 	C 	0.21940 0.56020 0.47340 0.34200
C 	C 	0.44590 0.61270 0.86960 -0.09300
C 	C 	0.89580 0.05810 0.85830 0.08000
C 	C 	0.36620 0.47330 0.30330 -0.06300
C 	C 	0.58580 0.32410 0.54250 0.34400
C 	C 	0.61270 0.36960 0.94590 -0.09300
C 	C 	0.75520 0.81260 0.36780 -0.09000
C 	C 	0.33370 0.90560 0.77550 -0.06300
C 	C 	0.16630 0.94180 0.57190 -0.06000
C 	C 	0.30910 0.02710 0.91040 -0.03300
C 	C 	0.04470 0.32680 0.40890 -0.03700
C 	C 	0.38980 0.00900 0.30720 -0.05200
C 	C 	0.84780 0.44890 0.58270 0.02200
C 	C 	0.28090 0.39300 0.45830 -0.06200
C 	C 	0.18070 0.65870 0.03960 0.09000
C 	C 	0.88850 0.92880 0.11450 -0.07200
C 	C 	0.56460 0.90560 0.62380 -0.06900
C 	C 	0.95970 0.18570 0.07120 -0.06600
C 	C 	0.42860 0.97550 0.77290 0.30900
C 	C 	0.27550 0.33370 0.40560 -0.06400
C 	C 	0.62810 0.91920 0.08230 -0.03900
C 	C 	0.34910 0.46790 0.10080 0.03600
C 	C 	0.52660 0.58680 0.24600 0.34200
C 	C 	0.54210 0.81540 0.45470 0.38200
C 	C 	0.19090 0.10130 0.71800 -0.04000
C 	C 	0.39290 0.86620 0.06290 -0.06100
C 	C 	0.84100 0.93540 0.05920 -0.07300
C 	C 	0.79740 0.75370 0.82470 0.35900
C 	C 	0.94220 0.80170 0.34010 0.07400
C 	C 	0.74830 0.38120 0.34910 0.03400
C 	C 	0.86070 0.08740 0.04530 0.38100
C 	C 	0.06290 0.69670 0.17000 -0.06200
C 	C 	0.34430 0.77290 0.79740 0.31400
C 	C 	0.85950 0.87960 0.04010 0.08800
C 	C 	0.75690 0.42370 0.36960 -0.09300
C 	C 	0.58740 0.22670 0.54210 0.38200
C 	C 	0.57140 0.02450 0.22710 0.31800
C 	C 	0.34240 0.25470 0.31430 0.40400
C 	C 	0.66070 0.42480 0.54750 -0.09000
C 	C 	0.38090 0.84130 0.02200 0.09200
C 	C 	0.23560 0.63030 0.67710 -0.08200
C 	C 	0.92480 0.76410 0.37730 -0.09100
C 	C 	0.15570 0.95310 0.42860 0.31400
C 	C 	0.15900 0.06460 0.94080 -0.06600
C 	C 	0.95670 0.54250 0.21840 0.34200
C 	C 	0.56530 0.17740 0.95830 -0.05800
C 	C 	0.45970 0.38850 0.77400 -0.07000
C 	C 	0.69090 0.97290 0.08960 -0.04600
C 	C 	0.42810 0.86990 0.09440 -0.06500
C 	C 	0.71910 0.60700 0.54170 -0.06200
C 	C 	0.80170 0.84010 0.44220 0.07400
C 	C 	0.92900 0.25370 0.45630 0.35900
C 	C 	0.82470 0.57100 0.52730 0.35900
C 	C 	0.68740 0.94260 0.05520 -0.08800
C 	C 	0.86570 0.39860 0.74630 0.02900
C 	C 	0.65090 0.53210 0.89920 0.03200
C 	C 	0.63380 0.73490 0.08270 0.02300
C 	C 	0.47990 0.35950 0.81940 0.09100
C 	C 	0.04330 0.45750 0.78160 0.34500
C 	C 	0.92880 0.61450 0.38850 -0.07100
C 	C 	0.89920 0.86710 0.74830 0.03300
C 	C 	0.30850 0.43710 0.83720 -0.05700
C 	C 	0.11670 0.52710 0.21800 -0.04000
C 	C 	0.30880 0.39140 0.48980 -0.06400
C 	C 	0.41740 0.80880 0.81900 -0.06400
C 	C 	0.89300 0.11210 0.43470 -0.06400
C 	C 	0.72670 0.63930 0.18460 0.38200
C 	C 	0.38330 0.60130 0.41040 -0.04000
C 	C 	0.88550 0.31430 0.27400 -0.06900
C 	C 	0.12270 0.07520 0.73590 -0.08900
C 	C 	0.91740 0.30720 0.29820 -0.06100
C 	C 	0.75950 0.15830 0.69880 0.41000
C 	C 	0.42900 0.97270 0.67530 0.35500
C 	C 	0.61210 0.21910 0.17740 -0.06200
C 	C 	0.82680 0.28210 0.41790 -0.03700
C 	C 	0.25370 0.95630 0.42900 0.35700
C 	C 	0.19880 0.75950 0.65830 0.41000
C 	C 	0.25950 0.56070 0.60120 0.41000
C 	C 	0.07120 0.38550 0.61150 -0.06900
C 	C 	0.84930 0.58270 0.95040 0.01300
C 	C 	0.25690 0.88730 0.33320 -0.09100
C 	C 	0.82260 0.54170 0.93470 -0.06300
C 	C 	0.65230 0.89860 0.03290 0.02800
C 	C 	0.54960 0.15070 0.91730 0.00900
C 	C 	0.96250 0.85830 0.80020 0.08200
C 	C 	0.72600 0.54030 0.11150 -0.07000
C 	C 	0.94170 0.80000 0.54550 0.39400
C 	C 	0.52710 0.71800 0.61670 -0.04000
C 	C 	0.43710 0.33720 0.80850 -0.05700
C 	C 	0.38730 0.63040 0.05410 -0.09300
C 	C 	0.17740 0.45830 0.06530 -0.06100
C 	C 	0.55820 0.22450 0.13010 -0.06400
C 	C 	0.69880 0.04050 0.43930 0.41000
C 	C 	0.07630 0.33320 0.44590 -0.09200
C 	C 	0.22710 0.70260 0.15570 0.31400
C 	C 	0.32410 0.04250 0.08580 0.34400
C 	C 	0.86710 0.24830 0.39920 0.03400
C 	C 	0.10530 0.73560 0.55850 -0.08200
C 	C 	0.97330 0.10710 0.67000 -0.07300
C 	C 	0.89620 0.64170 0.94170 0.39400
C 	C 	0.84170 0.80120 0.74050 0.41000
C 	C 	0.08080 0.41770 0.87190 -0.03600
C 	C 	0.95990 0.33950 0.31940 0.09300
C 	C 	0.17530 0.42900 0.47270 0.35900
C 	C 	0.07520 0.23590 0.62270 -0.08900
C 	C 	0.10130 0.21800 0.69090 -0.04000
C 	C 	0.04370 0.07100 0.24630 0.36000
C 	C 	0.08770 0.05960 0.74530 0.40300
C 	C 	0.88980 0.58260 0.38080 -0.05900
C 	C 	0.04250 0.58580 0.82410 0.34400
C 	C 	0.58960 0.69090 0.47290 -0.04000
C 	C 	0.97190 0.31430 0.05960 0.39900
C 	C 	0.95320 0.13030 0.89470 -0.08200
C 	C 	0.43980 0.02660 0.28060 0.34700
C 	C 	0.58210 0.36420 0.90890 -0.03700
C 	C 	0.49100 0.38080 0.79820 -0.05900
C 	C 	0.66680 0.05410 0.42370 -0.09300
C 	C 	0.93540 0.55920 0.34100 -0.07000
C 	C 	0.40110 0.81860 0.29130 -0.05200
C 	C 	0.11270 0.16680 0.24310 -0.09400
C 	C 	0.43470 0.82260 0.04170 -0.06600
C 	C 	0.73490 0.58270 0.13380 0.02100
C 	C 	0.28160 0.04330 0.95750 0.34500
C 	C 	0.30120 0.95950 0.56070 0.41000
C 	C 	0.38550 0.11150 0.57120 -0.07000
C 	C 	0.61260 0.36780 0.55520 -0.09000
C 	C 	0.65920 0.91320 0.43980 0.34200
C 	C 	0.10860 0.91740 0.59840 -0.06700
C 	C 	0.04530 0.45790 0.68460 0.38100
C 	C 	0.63030 0.17710 0.73560 -0.08200
C 	C 	0.74310 0.11270 0.66680 -0.09400
C 	C 	0.94150 0.89470 0.76440 -0.08100
C 	C 	0.71840 0.95670 0.04250 0.34300
C 	C 	0.95950 0.06070 0.80120 0.41000
C 	C 	0.14170 0.74550 0.20000 0.39400
C 	C 	0.11210 0.93470 0.39300 -0.06400
C 	C 	0.80330 0.36620 0.97330 -0.07000
C 	C 	0.97290 0.58960 0.19090 -0.04700
C 	C 	0.55850 0.32290 0.95320 -0.08100
C 	C 	0.46790 0.60080 0.84910 0.03400
C 	C 	0.08680 0.06020 0.84080 0.34100
C 	C 	0.45420 0.08230 0.16310 -0.03700
C 	C 	0.54370 0.29740 0.97270 0.35500
C 	C 	0.05780 0.19830 0.65990 0.07500
C 	C 	0.39880 0.45950 0.15830 0.41000
C 	C 	0.88680 0.54750 0.12270 -0.08900
C 	C 	0.08960 0.61670 0.89870 -0.04000
C 	C 	0.21800 0.19090 0.60130 -0.04000
C 	C 	0.87190 0.95420 0.29110 -0.03800
C 	C 	0.93710 0.12860 0.09990 -0.05800
C 	C 	0.60210 0.65990 0.46160 0.07500
C 	C 	0.91730 0.26660 0.86770 0.00900
C 	C 	0.52810 0.58770 0.34240 0.40400
C 	C 	0.02870 0.62860 0.69150 -0.05000
C 	C 	0.13290 0.75170 0.60080 0.03400
C 	C 	0.13580 0.21790 0.04470 -0.03700
C 	C 	0.68570 0.22600 0.61450 -0.07000
C 	C 	0.47270 0.54370 0.79740 0.35900
C 	C 	0.66230 0.60420 0.96250 0.08300
C 	C 	0.47270 0.68140 0.08250 -0.05200
C 	C 	0.11450 0.68570 0.72600 -0.07100
C 	C 	0.22600 0.11450 0.18570 -0.07100
C 	C 	0.68460 0.72670 0.13930 0.38200
C 	C 	0.34100 0.28180 0.90560 -0.06900
C 	C 	0.04580 0.20890 0.62810 -0.03800
C 	C 	0.33690 0.54580 0.41770 -0.03800
C 	C 	0.58250 0.47270 0.18140 -0.05200
C 	C 	0.26660 0.36770 0.41730 0.01200
C 	C 	0.41770 0.37190 0.58080 -0.03800
C 	C 	0.04010 0.66050 0.68060 0.08900
C 	C 	0.38060 0.03290 0.13430 0.03000
C 	C 	0.10700 0.88790 0.56530 -0.06000
C 	C 	0.95420 0.79110 0.37190 -0.03800
C 	C 	0.54750 0.62270 0.38680 -0.09000
C 	C 	0.18570 0.65760 0.24530 0.40400
C 	C 	0.70260 0.65570 0.72710 0.31400
C 	C 	0.68070 0.64110 0.52200 0.09200
C 	C 	0.35830 0.89580 0.55810 0.08000
C 	C 	0.69120 0.60860 0.51020 -0.06400
C 	C 	0.59440 0.42810 0.36990 -0.06400
C 	C 	0.88060 0.74630 0.34770 0.02900
C 	C 	0.69280 0.20180 0.58260 -0.05900
C 	C 	0.03210 0.88120 0.13290 0.03500
C 	C 	0.61920 0.70180 0.00900 -0.05300
C 	C 	0.00900 0.80720 0.88980 -0.05400
C 	C 	0.39870 0.08960 0.11670 -0.04000
C 	C 	0.18100 0.48980 0.09840 -0.06400
C 	C 	0.08740 0.54530 0.36070 0.38200
C 	C 	0.54050 0.34170 0.10120 0.41000
C 	C 	0.34930 0.39890 0.26660 0.01200
C 	C 	0.44220 0.10210 0.14050 0.07500
C 	C 	0.10380 0.35830 0.05830 0.39400
C 	C 	0.60110 0.23340 0.15070 0.01200
C 	C 	0.81860 0.79130 0.90110 -0.05200
C 	C 	0.69670 0.67000 0.56290 -0.06300
C 	C 	0.55410 0.38730 0.13040 -0.09200
C 	C 	0.84910 0.74830 0.88120 0.03400
C 	C 	0.68140 0.58250 0.97270 -0.06000
C 	C 	0.08260 0.69280 0.70180 -0.05800
C 	C 	0.64050 0.68060 0.02010 0.09100
C 	C 	0.47330 0.80330 0.86620 -0.06300
C 	C 	0.45830 0.56530 0.67740 -0.06200
C 	C 	0.83950 0.37960 0.52010 0.09000
C 	C 	0.60980 0.08250 0.40110 -0.05200
C 	C 	0.05810 0.35830 0.39580 0.08100
C 	C 	0.98980 0.30880 0.89140 -0.07200
C 	C 	0.89470 0.26440 0.44150 -0.08300
C 	C 	0.53750 0.33770 0.89580 0.08000
C 	C 	0.02670 0.89290 0.33000 -0.05700
C 	C 	0.41420 0.67590 0.45750 0.34400
C 	C 	0.78210 0.45530 0.36420 -0.03700
C 	C 	0.69150 0.56290 0.16280 -0.05700
C 	C 	0.58230 0.62810 0.41920 -0.03800
C 	C 	0.57120 0.95970 0.68570 -0.06700
C 	C 	0.80000 0.04550 0.44170 0.39500
C 	C 	0.75170 0.10080 0.63290 0.03600
C 	C 	0.83690 0.41920 0.79110 -0.03800
C 	C 	0.60110 0.86620 0.44890 0.02200
C 	C 	0.95450 0.05830 0.70000 0.39200
C 	C 	0.10210 0.64050 0.94220 0.07400
C 	C 	0.97550 0.27290 0.92860 0.30800
C 	C 	0.13430 0.60140 0.25370 0.02900
C 	C 	0.31540 0.27330 0.86070 0.38100
C 	C 	0.65990 0.96160 0.10210 0.07600
C 	C 	0.23340 0.65070 0.10110 0.01500
C 	C 	0.54470 0.13580 0.71790 -0.03700
C 	C 	0.40160 0.81900 0.01020 -0.05700
C 	C 	0.11020 0.41740 0.61920 -0.06000
C 	C 	0.57630 0.13040 0.74310 -0.09300
C 	C 	0.17320 0.71790 0.58210 -0.03700
C 	C 	0.59990 0.93710 0.62860 -0.05700
C 	C 	0.31900 0.41740 0.30880 -0.06400
C 	C 	0.94260 0.55520 0.18740 -0.08800
C 	C 	0.83770 0.80020 0.94190 0.07900
C 	C 	0.07100 0.74630 0.54370 0.35900
C 	C 	0.39860 0.24630 0.36570 0.02900
C 	C 	0.16070 0.61320 0.23590 -0.09000
C 	C 	0.70870 0.02730 0.60980 -0.04600
C 	C 	0.90160 0.89140 0.58260 -0.06400
C 	C 	0.58260 0.88080 0.38980 -0.05900
C 	C 	0.87960 0.54010 0.35950 0.09000
C 	C 	0.63010 0.55820 0.72450 -0.06400
C 	C 	0.65570 0.22710 0.20260 0.31400
C 	C 	0.84080 0.28060 0.25400 0.34100
C 	C 	0.91750 0.09890 0.89020 -0.05300
C 	C 	0.31430 0.55960 0.47190 0.40400
C 	C 	0.16230 0.19980 0.05810 0.08100
C 	C 	0.24600 0.15920 0.21940 0.34300
C 	C 	0.05850 0.10530 0.23560 -0.08500
C 	C 	0.75470 0.91230 0.44040 0.40400
C 	C 	0.90560 0.12380 0.06460 -0.06800
C 	C 	0.81940 0.95990 0.83950 0.09200
C 	C 	0.05960 0.24530 0.58770 0.40300
C 	C 	0.65870 0.53960 0.68070 0.09200
C 	C 	0.39890 0.76660 0.84930 0.01200
C 	C 	0.59890 0.18140 0.70870 -0.05200
C 	C 	0.27290 0.42860 0.47550 0.31400
C 	C 	0.56290 0.66280 0.19150 -0.05700
C 	C 	0.76510 0.89890 0.84780 0.02000
C 	C 	0.53290 0.65230 0.39860 0.02900
C 	C 	0.69830 0.14050 0.03840 0.07300
C 	C 	0.85950 0.46160 0.80170 0.07400
C 	C 	0.60860 0.01020 0.19120 -0.05700
C 	C 	0.70000 0.14170 0.24550 0.39400
C 	C 	0.47800 0.61910 0.65870 0.09200
C 	C 	0.36420 0.40890 0.08210 -0.03500
C 	C 	0.10080 0.13290 0.25170 0.03600
C 	C 	0.77550 0.36990 0.94180 -0.06100
C 	C 	0.75400 0.84080 0.78060 0.34200
C 	C 	0.62040 0.97990 0.66050 0.09100
C 	C 	0.07140 0.84430 0.54690 0.31300
C 	C 	0.54030 0.61150 0.22600 -0.07000
C 	C 	0.02730 0.10980 0.20870 -0.04300
C 	C 	0.06460 0.44080 0.65900 -0.06900
C 	C 	0.19670 0.63380 0.02670 -0.05500
C 	C 	0.15090 0.25170 0.11880 0.03400
C 	C 	0.47130 0.16280 0.59990 -0.05700
C 	C 	0.60140 0.75370 0.63430 0.02900
C 	C 	0.94180 0.07190 0.66630 -0.06000
C 	C 	0.74050 0.43930 0.39880 0.41000
C 	C 	0.33320 0.94590 0.57630 -0.09300
C 	C 	0.29820 0.49100 0.88080 -0.05900
C 	C 	0.37140 0.80850 0.47130 -0.05700
C 	C 	0.31430 0.77400 0.38550 -0.07000
C 	C 	0.84240 0.52810 0.08770 0.40300
C 	C 	0.44260 0.25520 0.38740 -0.09000
N 	N 	0.00360 0.35980 0.83200 -0.08000
N 	N 	0.84720 0.51140 0.36280 -0.08400
N 	N 	0.13650 0.97340 0.14050 -0.08500
N 	N 	0.33310 0.48990 0.34720 -0.08400
N 	N 	0.16420 0.65280 0.51560 -0.08400
N 	N 	0.83290 0.47340 0.33690 -0.08400
N 	N 	0.35730 0.01410 0.84720 -0.08300
N 	N 	0.85950 0.33290 0.49600 -0.08400
N 	N 	0.84720 0.33310 0.98990 -0.08600
N 	N 	0.50360 0.67160 0.64380 -0.08100
N 	N 	0.48440 0.63720 0.14860 -0.08400
N 	N 	0.01140 0.66420 0.64860 -0.08200
N 	N 	0.33580 0.85140 0.48860 -0.08400
N 	N 	0.15280 0.48860 0.63720 -0.08400
N 	N 	0.65280 0.64270 0.48590 -0.08400
N 	N 	0.47340 0.83690 0.33290 -0.08400
N 	N 	0.50400 0.33690 0.86350 -0.08400
N 	N 	0.85140 0.98860 0.83580 -0.08600
N 	N 	0.97340 0.64050 0.63650 -0.08500
N 	N 	0.15280 0.66690 0.01010 -0.08100
N 	N 	0.83580 0.34720 0.48440 -0.08400
N 	N 	0.84320 0.85730 0.51010 -0.08400
N 	N 	0.14380 0.50360 0.17160 -0.08100
N 	N 	0.14860 0.01140 0.16420 -0.08100
N 	N 	0.15680 0.14270 0.48990 -0.08300
N 	N 	0.98860 0.33580 0.35140 -0.08700
N 	N 	0.49640 0.32840 0.35620 -0.08100
N 	N 	0.64020 0.66800 0.49640 -0.08100
N 	N 	0.33290 0.99600 0.35950 -0.08500
N 	N 	0.99600 0.85950 0.83290 -0.08500
N 	N 	0.16310 0.16710 0.02660 -0.08200
N 	N 	0.16710 0.52660 0.66310 -0.08400
N 	N 	0.01010 0.84320 0.35730 -0.08200
N 	N 	0.00400 0.14050 0.16710 -0.08200
N 	N 	0.99640 0.64020 0.16800 -0.08300
N 	N 	0.97220 0.82840 0.33200 -0.08300
N 	N 	0.51560 0.36280 0.85140 -0.08400
N 	N 	0.16800 0.02780 0.67160 -0.08000
N 	N 	0.85730 0.01010 0.34320 -0.08200
N 	N 	0.48860 0.13720 0.65280 -0.08400
N 	N 	0.67160 0.14380 0.00360 -0.08000
N 	N 	0.83310 0.48590 0.84320 -0.08400
N 	N 	0.64380 0.47220 0.64020 -0.08100
N 	N 	0.14020 0.64380 0.97220 -0.08300
N 	N 	0.33690 0.36350 0.00400 -0.08200
N 	N 	0.35980 0.33200 0.50360 -0.08100
N 	N 	0.16690 0.51410 0.15680 -0.08400
N 	N 	0.63720 0.64860 0.98440 -0.08500
N 	N 	0.66710 0.00400 0.64050 -0.08200
N 	N 	0.13720 0.15280 0.98860 -0.08600
N 	N 	0.02660 0.35950 0.36350 -0.08200
N 	N 	0.48990 0.84720 0.83310 -0.08400
N 	N 	0.01410 0.34720 0.85730 -0.08300
N 	N 	0.33200 0.00360 0.85980 -0.08000
N 	N 	0.66420 0.14860 0.51140 -0.08400
N 	N 	0.51010 0.15280 0.16690 -0.08400
N 	N 	0.51140 0.86280 0.34720 -0.08400
N 	N 	0.36350 0.50400 0.83690 -0.08400
N 	N 	0.17160 0.16800 0.52780 -0.08100
N 	N 	0.35620 0.52780 0.35980 -0.08100
N 	N 	0.82840 0.83200 0.47220 -0.08100
N 	N 	0.98990 0.15680 0.64270 -0.08700
N 	N 	0.66800 0.99640 0.14020 -0.08300
N 	N 	0.85980 0.35620 0.02780 -0.08000
N 	N 	0.14050 0.66710 0.50400 -0.08300
N 	N 	0.86350 0.02660 0.85950 -0.08300
N 	N 	0.64270 0.98590 0.15280 -0.08500
N 	N 	0.85620 0.49640 0.82840 -0.08200
N 	N 	0.66310 0.63650 0.99600 -0.08500
N 	N 	0.83200 0.97220 0.32840 -0.08300
N 	N 	0.02780 0.17160 0.66800 -0.07900
N 	N 	0.48590 0.34320 0.33310 -0.08400
N 	N 	0.32840 0.85620 0.99640 -0.08300
N 	N 	0.51410 0.65680 0.66690 -0.08400
N 	N 	0.64050 0.13650 0.47340 -0.08400
N 	N 	0.34320 0.83310 0.98590 -0.08500
N 	N 	0.98440 0.83580 0.84720 -0.08500
N 	N 	0.52780 0.85980 0.85620 -0.08200
N 	N 	0.47220 0.14020 0.14380 -0.08100
N 	N 	0.01560 0.16420 0.15280 -0.08300
N 	N 	0.65280 0.01560 0.66420 -0.08300
N 	N 	0.35950 0.86350 0.52660 -0.08400
N 	N 	0.83690 0.83290 0.97340 -0.08500
N 	N 	0.49600 0.66310 0.13650 -0.08400
N 	N 	0.52660 0.16310 0.66710 -0.08400
N 	N 	0.36280 0.35140 0.01560 -0.08300
N 	N 	0.65680 0.16690 0.01410 -0.08300
N 	N 	0.98590 0.65280 0.14270 -0.08400
N 	N 	0.35140 0.51560 0.86280 -0.08400
N 	N 	0.14270 0.98990 0.65680 -0.08600
N 	N 	0.34720 0.35730 0.51410 -0.08400
N 	N 	0.64860 0.48440 0.13720 -0.08400
N 	N 	0.66690 0.51010 0.65280 -0.08400
N 	N 	0.34720 0.98440 0.33580 -0.08500
N 	N 	0.86280 0.84720 0.01140 -0.08200
N 	N 	0.63650 0.49600 0.16310 -0.08400
O 	O 	0.80660 0.73690 0.79590 -0.42700
O 	O 	0.91130 0.64530 0.91720 -0.41700
O 	O 	0.16850 0.75970 0.19120 -0.44500
O 	O 	0.28040 0.58850 0.59290 -0.43400
O 	O 	0.00000 0.50000 0.73080 -0.66600
O 	O 	0.73400 0.72810 0.64530 -0.41700
O 	O 	0.35560 0.28700 0.78280 -0.41700
O 	O 	0.93430 0.94860 0.66930 -0.43700
O 	O 	0.92820 0.97640 0.26440 -0.44600
O 	O 	0.33070 0.77930 0.76500 -0.43600
O 	O 	0.93660 0.02520 0.77200 -0.45500
O 	O 	0.48100 0.98240 0.23240 -0.64800
O 	O 	0.69190 0.00440 0.41150 -0.43200
O 	O 	0.51900 0.01760 0.76760 -0.64500
O 	O 	0.66620 0.67480 0.24360 -0.41900
O 	O 	0.23500 0.51430 0.06570 -0.43600
O 	O 	0.79190 0.71640 0.28690 -0.40600
O 	O 	0.70820 0.26090 0.68690 -0.39700
O 	O 	0.42820 0.16380 0.95180 -0.44400
O 	O 	0.24360 0.06880 0.07740 -0.41900
O 	O 	0.32580 0.58760 0.51100 -0.40300
O 	O 	0.57180 0.31210 0.56510 -0.44900
O 	O 	0.93030 0.94100 0.73690 -0.42800
O 	O 	0.48240 0.50140 0.25000 -0.64600
O 	O 	0.78690 0.79190 0.21640 -0.40600
O 	O 	0.94100 0.23690 0.43030 -0.42800
O 	O 	0.24860 0.76760 0.75000 -0.64600
O 	O 	0.42720 0.78280 0.49580 -0.41700
O 	O 	0.99450 0.94330 0.68480 -0.39100
O 	O 	0.28280 0.35560 0.78700 -0.41700
O 	O 	0.98570 0.72070 0.05140 -0.43800
O 	O 	0.99560 0.08850 0.80810 -0.43600
O 	O 	0.50590 0.23400 0.08870 -0.41700
O 	O 	-0.00000 0.50000 0.26920 -0.66600
O 	O 	0.58150 0.01230 0.75140 -0.42700
O 	O 	0.58870 0.50590 0.73400 -0.41700
O 	O 	0.29590 0.80660 0.23690 -0.42700
O 	O 	0.23240 0.75000 0.25140 -0.64600
O 	O 	0.25640 0.33380 0.82520 -0.41900
O 	O 	0.76920 0.00000 -0.00000 -0.66500
O 	O 	0.50420 0.78700 0.43140 -0.41700
O 	O 	0.99580 0.42720 0.28280 -0.41900
O 	O 	0.55550 0.04990 0.31380 -0.44900
O 	O 	0.79590 0.55900 0.48930 -0.42700
O 	O 	0.40880 0.43150 0.24030 -0.44500
O 	O 	0.05120 0.74150 0.05670 -0.38800
O 	O 	0.02520 0.27200 0.43660 -0.45400
O 	O 	0.70810 0.99500 0.92450 -0.40800
O 	O 	0.99500 0.42450 0.20810 -0.40800
O 	O 	0.97870 0.68690 0.42600 -0.39800
O 	O 	0.14440 0.92720 0.93140 -0.41800
O 	O 	0.00550 0.05670 0.31520 -0.38600
O 	O 	0.71200 0.47640 0.54820 -0.44400
O 	O 	0.33620 0.26440 0.28800 -0.44400
O 	O 	0.55270 0.57400 0.26090 -0.39700
O 	O 	0.83070 0.06570 0.55140 -0.43600
O 	O 	0.27930 0.44860 0.51430 -0.43600
O 	O 	0.21720 0.00420 0.07280 -0.41500
O 	O 	0.58850 0.09290 0.78040 -0.43400
O 	O 	0.42820 0.68790 0.43490 -0.44900
O 	O 	0.54820 0.57180 0.33620 -0.44400
O 	O 	0.73240 0.48100 0.48240 -0.64600
O 	O 	0.02360 0.23560 0.57180 -0.44300
O 	O 	0.78700 0.93140 0.00420 -0.41600
O 	O 	0.95010 0.18620 0.94450 -0.45000
O 	O 	0.68520 0.76180 0.67420 -0.40300
O 	O 	0.30970 0.31520 0.25850 -0.38900
O 	O 	0.24860 0.76090 0.33010 -0.42900
O 	O 	0.08850 0.30810 0.49560 -0.43400
O 	O 	0.58280 0.08870 0.85470 -0.41700
O 	O 	0.43430 0.76500 0.98570 -0.43900
O 	O 	0.50560 0.26390 0.95010 -0.44900
O 	O 	0.51760 0.49860 0.75000 -0.64600
O 	O 	0.00860 0.43120 0.67480 -0.41800
O 	O 	0.56970 0.30660 0.01070 -0.42400
O 	O 	0.16620 0.92260 0.99140 -0.42100
O 	O 	0.50000 0.23080 0.50000 -0.66800
O 	O 	0.26390 0.45010 0.00560 -0.44800
O 	O 	0.49440 0.73610 0.04990 -0.44900
O 	O 	0.22800 0.75320 0.66460 -0.45600
O 	O 	0.57740 0.24360 0.56880 -0.41900
O 	O 	0.06510 0.57180 0.81210 -0.44900
O 	O 	0.75140 0.23240 0.25000 -0.64600
O 	O 	0.64530 0.41720 0.41130 -0.41700
O 	O 	0.68690 0.92600 0.47870 -0.39800
O 	O 	0.66380 0.73560 0.71200 -0.44400
O 	O 	0.50670 0.75970 0.57180 -0.44900
O 	O 	0.00670 0.43490 0.74700 -0.44800
O 	O 	0.56850 0.25970 0.09120 -0.44500
O 	O 	0.06920 0.08150 0.83010 -0.42800
O 	O 	0.69030 0.68480 0.74150 -0.38900
O 	O 	0.75830 0.31380 0.26390 -0.44900
O 	O 	0.91720 0.77190 0.50590 -0.41700
O 	O 	0.56880 0.82520 0.49140 -0.41900
O 	O 	0.93140 0.50420 0.28700 -0.41800
O 	O 	0.49450 0.80970 0.05120 -0.38900
O 	O 	0.75000 0.48240 0.00140 -0.64400
O 	O 	0.30880 0.83150 0.74030 -0.44500
O 	O 	0.99860 0.98100 0.24860 -0.64900
O 	O 	0.07660 0.08760 0.76180 -0.40200
O 	O 	0.81480 0.48900 0.07660 -0.40300
O 	O 	0.72810 0.14530 0.23400 -0.41700
O 	O 	0.83540 0.77200 0.74680 -0.45600
O 	O 	0.25140 0.58150 0.51230 -0.42900
O 	O 	0.71300 0.71720 0.14440 -0.41700
O 	O 	0.26760 0.51900 0.51760 -0.64600
O 	O 	0.47480 0.91140 0.24680 -0.45600
O 	O 	0.55120 0.49450 0.30970 -0.38900
O 	O 	0.05900 0.76310 0.56970 -0.42600
O 	O 	0.55670 0.05120 0.24150 -0.38900
O 	O 	0.07400 0.02130 0.81310 -0.39500
O 	O 	0.77200 0.24680 0.33540 -0.45600
O 	O 	0.07550 0.57050 0.28360 -0.40600
O 	O 	0.66850 0.47730 0.40880 -0.44500
O 	O 	0.55140 0.98570 0.22070 -0.43900
O 	O 	0.98240 0.73240 0.98100 -0.64900
O 	O 	0.50550 0.19030 0.94880 -0.38800
O 	O 	0.94730 0.20820 0.02130 -0.39500
O 	O 	0.55900 0.98930 0.29590 -0.43000
O 	O 	0.58860 0.56340 0.83540 -0.45600
O 	O 	0.16380 0.45180 0.92820 -0.44500
O 	O 	0.41150 0.90710 0.21960 -0.43400
O 	O 	0.90880 0.66850 0.97730 -0.44700
O 	O 	0.41720 0.91130 0.14530 -0.41700
O 	O 	0.54990 0.49440 0.23610 -0.44900
O 	O 	0.57400 0.76090 0.05270 -0.39800
O 	O 	0.76390 0.75830 0.81380 -0.44900
O 	O 	0.00500 0.57550 0.79190 -0.40500
O 	O 	0.26180 0.07660 0.58760 -0.40300
O 	O 	0.06850 0.97730 0.30880 -0.44700
O 	O 	0.09290 0.28040 0.08850 -0.43300
O 	O 	0.31250 0.59290 0.00440 -0.43200
O 	O 	0.42600 0.23910 0.94730 -0.39700
O 	O 	0.73500 0.66930 0.72070 -0.43600
O 	O 	0.66930 0.22070 0.23500 -0.43600
O 	O 	0.23690 0.93030 0.44100 -0.42700
O 	O 	0.31210 0.06510 0.07180 -0.44900
O 	O 	0.83380 0.07740 0.00860 -0.41700
O 	O 	0.52270 0.09120 0.83150 -0.44500
O 	O 	0.75850 0.30970 0.81520 -0.38900
O 	O 	0.69120 0.16850 0.25970 -0.44500
O 	O 	0.97640 0.76440 0.42820 -0.44500
O 	O 	0.21960 0.81250 0.30810 -0.43400
O 	O 	0.93150 0.02270 0.69120 -0.44500
O 	O 	0.25320 0.52520 0.58860 -0.45600
O 	O 	0.35470 0.58280 0.58870 -0.41700
O 	O 	0.18620 0.44450 0.45010 -0.44900
O 	O 	0.51070 0.56970 0.80660 -0.42700
O 	O 	0.20410 0.44100 0.51070 -0.42700
O 	O 	0.52520 0.08860 0.75320 -0.45600
O 	O 	0.91850 0.66990 0.43080 -0.43000
O 	O 	0.25850 0.44330 0.44880 -0.38900
O 	O 	0.21640 0.92450 0.92950 -0.40700
O 	O 	0.17480 0.00860 0.93120 -0.41700
O 	O 	0.92820 0.49330 0.74030 -0.45000
O 	O 	0.68750 0.40710 0.99560 -0.43500
O 	O 	0.74170 0.00560 0.55550 -0.44800
O 	O 	0.81380 0.55550 0.54990 -0.44900
O 	O 	0.93080 0.91850 0.16990 -0.43000
O 	O 	0.25830 0.99440 0.44450 -0.45100
O 	O 	0.74360 0.66620 0.17480 -0.41900
O 	O 	0.48900 0.57660 0.31480 -0.40300
O 	O 	0.33540 0.58860 0.06340 -0.45500
O 	O 	0.90710 0.71960 0.91150 -0.43400
O 	O 	0.92340 0.91240 0.23820 -0.40400
O 	O 	0.07050 0.49500 0.78690 -0.40700
O 	O 	0.42450 0.70810 0.49500 -0.40600
O 	O 	0.57050 0.78360 0.57550 -0.40600
O 	O 	0.64440 0.71300 0.21720 -0.41700
O 	O 	0.51100 0.42340 0.68520 -0.40300
O 	O 	0.71960 0.41150 0.40710 -0.43400
O 	O 	0.94860 0.16930 0.43430 -0.43700
O 	O 	0.23910 0.16990 0.25140 -0.42900
O 	O 	0.82580 0.31480 0.73820 -0.40400
O 	O 	0.08870 0.35470 0.08280 -0.41600
O 	O 	0.56340 0.33540 0.08860 -0.45600
O 	O 	0.78280 0.99580 0.92720 -0.41900
O 	O 	0.05140 0.83070 0.56570 -0.43500
O 	O 	0.50140 0.75000 0.98240 -0.64800
O 	O 	0.09120 0.33150 0.02270 -0.44400
O 	O 	0.43490 0.24700 0.50670 -0.44900
O 	O 	0.22070 0.73500 0.16930 -0.43600
O 	O 	0.74700 0.81210 0.24030 -0.44900
O 	O 	0.50440 0.31250 0.09290 -0.43400
O 	O 	0.31310 0.07400 0.52130 -0.39700
O 	O 	0.56860 0.85560 0.57280 -0.41700
O 	O 	0.48570 0.43430 0.26500 -0.43600
O 	O 	0.32520 0.25640 0.83380 -0.41900
O 	O 	0.16990 0.75140 0.73910 -0.42900
O 	O 	0.98900 0.67420 0.91240 -0.40600
O 	O 	0.14530 0.73400 0.22810 -0.41700
O 	O 	0.43140 0.14440 0.42720 -0.41700
O 	O 	0.31520 0.75850 0.80970 -0.38900
O 	O 	0.43030 0.69340 0.98930 -0.43000
O 	O 	0.23910 0.44730 0.92600 -0.39800
O 	O 	0.05550 0.74170 0.50560 -0.44900
O 	O 	0.70410 0.19340 0.76310 -0.42700
O 	O 	0.78040 0.18750 0.69190 -0.43400
O 	O 	0.57180 0.83620 0.04820 -0.44500
O 	O 	0.40710 0.49560 0.18750 -0.43400
O 	O 	0.33150 0.52270 0.59120 -0.44500
O 	O 	0.42950 0.21640 0.42450 -0.40600
O 	O 	0.48770 0.56920 0.23910 -0.42900
O 	O 	0.75140 0.23910 0.66990 -0.42900
O 	O 	0.66460 0.41140 0.93660 -0.45600
O 	O 	0.28690 0.07050 0.99500 -0.40800
O 	O 	0.73610 0.54990 0.99440 -0.45100
O 	O 	0.25970 0.25300 0.68790 -0.44900
O 	O 	0.47730 0.90880 0.16850 -0.44600
O 	O 	0.57660 0.81480 0.98900 -0.40600
O 	O 	0.59120 0.56850 0.75970 -0.44500
O 	O 	0.49500 0.28690 0.57050 -0.40600
O 	O 	0.85470 0.26600 0.77190 -0.41700
O 	O 	0.05270 0.79180 0.97870 -0.39900
O 	O 	0.81210 0.74030 0.24700 -0.44900
O 	O 	0.29190 0.00500 0.07550 -0.40400
O 	O 	0.76600 0.41130 0.99410 -0.41900
O 	O 	0.73560 0.21200 0.16380 -0.44400
O 	O 	0.72800 0.06340 0.47480 -0.45500
O 	O 	0.94880 0.25850 0.94330 -0.38900
O 	O 	0.42260 0.75640 0.43120 -0.41900
O 	O 	0.26920 0.26920 0.76920 -0.66800
O 	O 	0.52130 0.94730 0.70820 -0.39700
O 	O 	0.02130 0.31310 0.57400 -0.39600
O 	O 	0.73690 0.29590 0.30660 -0.42700
O 	O 	0.25000 0.24860 0.26760 -0.64600
O 	O 	0.25970 0.59120 0.06850 -0.44500
O 	O 	0.01230 0.25140 0.08150 -0.42600
O 	O 	0.30660 0.51070 0.06970 -0.42700
O 	O 	0.97730 0.80880 0.56850 -0.44700
O 	O 	0.99140 0.56880 0.32520 -0.42100
O 	O 	0.49860 0.25000 0.01760 -0.64500
O 	O 	0.76440 0.92820 0.47640 -0.44500
O 	O 	0.44860 0.01430 0.77930 -0.43300
O 	O 	0.23610 0.24170 0.18620 -0.44900
O 	O 	0.01430 0.27930 0.94860 -0.43300
O 	O 	0.44100 0.01070 0.70410 -0.42400
O 	O 	0.07280 0.56860 0.35560 -0.41700
O 	O 	0.29180 0.73910 0.31310 -0.39700
O 	O 	0.43080 0.26090 0.01230 -0.42600
O 	O 	0.28800 0.52360 0.45180 -0.44400
O 	O 	0.17420 0.68520 0.26180 -0.40300
O 	O 	0.71640 0.78690 0.29190 -0.40600
O 	O 	0.19030 0.44880 0.00550 -0.38700
O 	O 	0.07180 0.50670 0.25970 -0.44900
O 	O 	0.31480 0.23820 0.32580 -0.40300
O 	O 	0.98930 0.79590 0.05900 -0.42900
O 	O 	0.25000 0.51760 0.99860 -0.64800
O 	O 	0.08760 0.26180 0.57660 -0.40300
O 	O 	0.80810 0.21960 0.31250 -0.43400
O 	O 	0.67480 0.74360 0.16620 -0.41900
O 	O 	0.18750 0.19190 0.28040 -0.43400
O 	O 	0.45180 0.42820 0.66380 -0.44400
O 	O 	0.21300 0.06860 0.99580 -0.41800
O 	O 	0.77190 0.00590 0.41720 -0.41600
O 	O 	0.08280 0.22810 0.49410 -0.41700
O 	O 	0.23820 0.82580 0.81480 -0.40300
O 	O 	0.75640 0.93120 0.92260 -0.42000
O 	O 	0.44730 0.42600 0.73910 -0.39700
O 	O 	0.04990 0.81380 0.05550 -0.44900
O 	O 	0.93490 0.42820 0.18790 -0.45000
O 	O 	0.81250 0.80810 0.71960 -0.43400
O 	O 	0.71310 0.92950 0.00500 -0.40500
O 	O 	0.33010 0.06920 0.58150 -0.42900
O 	O 	0.56920 0.73910 0.98770 -0.43200
O 	O 	0.68480 0.24150 0.19030 -0.38800
O 	O 	0.06880 0.57740 0.74360 -0.41900
O 	O 	0.01070 0.20410 0.94100 -0.42400
O 	O 	0.51430 0.56570 0.73500 -0.43600
O 	O 	0.83150 0.24030 0.80880 -0.44500
O 	O 	0.91240 0.73820 0.42340 -0.40400
O 	O 	0.00140 0.01900 0.75140 -0.64200
O 	O 	0.27190 0.85470 0.76600 -0.41700
O 	O 	0.21310 0.20810 0.78360 -0.40600
O 	O 	0.76500 0.48570 0.93430 -0.43600
O 	O 	0.75000 0.75140 0.73240 -0.64600
O 	O 	0.06970 0.05900 0.26310 -0.42600
O 	O 	0.68620 0.23610 0.74170 -0.44900
O 	O 	0.43660 0.66460 0.91140 -0.45600
O 	O 	0.24700 0.00670 0.93490 -0.44800
O 	O 	0.00420 0.57280 0.71720 -0.41600
O 	O 	0.73910 0.81310 0.79180 -0.39700
O 	O 	0.44330 0.94880 0.75850 -0.38800
O 	O 	0.72070 0.55140 0.48570 -0.43600
O 	O 	0.81520 0.00550 0.55670 -0.38700
O 	O 	0.04820 0.71200 0.97640 -0.44600
O 	O 	0.58760 0.01100 0.82580 -0.40100
O 	O 	0.99330 0.56510 0.25300 -0.45100
O 	O 	0.45010 0.50560 0.76390 -0.44900
O 	O 	0.08860 0.25320 0.02520 -0.45400
O 	O 	0.06570 0.05140 0.33070 -0.43400
O 	O 	0.49560 0.68750 0.90710 -0.43400
O 	O 	0.92450 0.42950 0.71640 -0.40700
O 	O 	0.74860 0.41850 0.48770 -0.42900
O 	O 	0.24030 0.30880 0.33150 -0.44500
O 	O 	0.56570 0.23500 0.01430 -0.43300
O 	O 	0.56510 0.75300 0.49330 -0.44900
O 	O 	0.98100 0.74860 0.49860 -0.64800
O 	O 	0.51230 0.43080 0.76090 -0.42900
O 	O 	0.41130 0.49410 0.26600 -0.41700
O 	O 	0.50500 0.71310 0.42950 -0.40600
O 	O 	0.82520 0.99140 0.06880 -0.42000
O 	O 	0.06860 0.49580 0.71300 -0.41700
O 	O 	0.23080 0.00000 -0.00000 -0.66400
O 	O 	0.02270 0.19120 0.43150 -0.44400
O 	O 	0.50860 0.83380 0.57740 -0.41900
O 	O 	0.57280 0.21720 0.50420 -0.41700
O 	O 	0.49580 0.21300 0.56860 -0.41700
O 	O 	0.92600 0.97870 0.18690 -0.39900
O 	O 	0.05670 0.81520 0.50550 -0.38800
O 	O 	0.98770 0.74860 0.91850 -0.43200
O 	O 	0.18480 0.99450 0.44330 -0.39000
O 	O 	0.28360 0.21310 0.70810 -0.40600
O 	O 	0.75320 0.16460 0.72800 -0.45600
O 	O 	0.85560 0.07280 0.06860 -0.41700
O 	O 	0.71720 0.64440 0.21300 -0.41700
O 	O 	0.44880 0.50550 0.69030 -0.38900
O 	O 	0.50000 0.76920 0.50000 -0.66800
O 	O 	0.73910 0.48770 0.06920 -0.42900
O 	O 	0.07180 0.02360 0.73560 -0.44200
O 	O 	0.16460 0.22800 0.25320 -0.45600
O 	O 	0.74030 0.40880 0.93150 -0.44600
O 	O 	0.79180 0.47870 0.55270 -0.39700
O 	O 	0.52360 0.95180 0.78800 -0.44400
O 	O 	0.69340 0.48930 0.93030 -0.42700
O 	O 	0.49140 0.16620 0.42260 -0.41900
O 	O 	0.57550 0.29190 0.50500 -0.40600
O 	O 	0.93120 0.42260 0.25640 -0.41900
O 	O 	0.23400 0.58870 0.00590 -0.41600
O 	O 	0.76310 0.06970 0.55900 -0.42700
O 	O 	0.41240 0.98900 0.17420 -0.40600
O 	O 	0.99440 0.94450 0.75830 -0.45100
O 	O 	0.83620 0.54820 0.07180 -0.44400
O 	O 	0.01760 0.26760 0.01900 -0.64300
O 	O 	0.76180 0.17420 0.18520 -0.40300
O 	O 	0.00560 0.05550 0.24170 -0.44700
O 	O 	0.41140 0.43660 0.16460 -0.45600
O 	O 	0.31380 0.76390 0.25830 -0.44900
O 	O 	0.76090 0.55270 0.07400 -0.39700
O 	O 	0.33380 0.32520 0.75640 -0.41900
O 	O 	0.43120 0.17480 0.50860 -0.41900
O 	O 	0.95180 0.28800 0.02360 -0.44200
O 	O 	0.20810 0.28360 0.71310 -0.40600
O 	O 	0.19120 0.93150 0.52270 -0.44500
O 	O 	0.22810 0.99410 0.58280 -0.41900
O 	O 	0.26600 0.27190 0.35470 -0.41700
O 	O 	0.30810 0.99560 0.58850 -0.43500
O 	O 	0.19340 0.26310 0.20410 -0.42700
O 	O 	0.83010 0.24860 0.26090 -0.42900
O 	O 	0.78360 0.07550 0.07050 -0.40600
O 	O 	0.94330 0.18480 0.49450 -0.39000
O 	O 	0.48930 0.43030 0.19340 -0.42700
O 	O 	0.68790 0.93490 0.92820 -0.45000
O 	O 	0.26090 0.18690 0.20820 -0.39700
O 	O 	0.42340 0.18520 0.01100 -0.40000
O 	O 	0.47640 0.04820 0.21200 -0.44500
O 	O 	0.19190 0.78040 0.68750 -0.43400
O 	O 	0.26440 0.78800 0.83620 -0.44400
O 	O 	0.26090 0.51230 0.93080 -0.43000
O 	O 	0.26310 0.70410 0.69340 -0.42700
O 	O 	0.18520 0.51100 0.92340 -0.40400
O 	O 	0.01900 0.25140 0.50140 -0.64400
O 	O 	0.24680 0.83540 0.27200 -0.45600
O 	O 	0.20820 0.52130 0.44730 -0.39700
O 	O 	0.25140 0.00140 0.51900 -0.64400
O 	O 	0.80880 0.06850 0.47730 -0.44500
O 	O 	0.24170 0.68620 0.73610 -0.44900
O 	O 	0.23560 0.07180 0.52360 -0.44300
O 	O 	0.07740 0.50860 0.33380 -0.41900
O 	O 	0.74150 0.55670 0.55120 -0.38900
O 	O 	0.66990 0.93080 0.41850 -0.43000
O 	O 	0.00590 0.91720 0.27190 -0.41600
O 	O 	0.18790 0.25970 0.75300 -0.44900
O 	O 	0.80970 0.55120 0.99450 -0.39000
O 	O 	0.74680 0.47480 0.41140 -0.45600
O 	O 	0.67420 0.41240 0.48900 -0.40300
O 	O 	0.44450 0.95010 0.68620 -0.44900
O 	O 	0.24150 0.69030 0.18480 -0.38900
O 	O 	0.99410 0.08280 0.72810 -0.41900
O 	O 	0.73080 0.73080 0.23080 -0.66800
O 	O 	0.59290 0.50440 0.81250 -0.43400
O 	O 	0.47870 0.05270 0.29180 -0.39800
O 	O 	0.92950 0.50500 0.21310 -0.40600
O 	O 	0.00440 0.91150 0.19190 -0.43300
O 	O 	0.26500 0.33070 0.27930 -0.43600
O 	O 	0.21200 0.66380 0.23560 -0.44400
O 	O 	0.24030 0.92820 0.99330 -0.45100
O 	O 	0.01100 0.32580 0.08760 -0.40000
O 	O 	0.41850 0.98770 0.24860 -0.43300
O 	O 	0.06340 0.97480 0.22800 -0.45700
O 	O 	0.92720 0.43140 0.64440 -0.41800
O 	O 	0.75970 0.07180 0.00670 -0.44800
O 	O 	0.91150 0.69190 0.50440 -0.43400
O 	O 	0.81310 0.29180 0.23910 -0.39700
O 	O 	0.27200 0.93660 0.52520 -0.45600
O 	O 	0.77930 0.26500 0.83070 -0.43600
O 	O 	0.49410 0.76600 0.91130 -0.41700
O 	O 	0.16930 0.93430 0.44860 -0.43700
O 	O 	0.75970 0.69120 0.66850 -0.44500
O 	O 	0.91140 0.74680 0.97480 -0.45700
O 	O 	0.76090 0.83010 0.74860 -0.42900
O 	O 	0.74030 0.74700 0.31210 -0.44900
O 	O 	0.43150 0.74030 0.90880 -0.44600
O 	O 	0.94450 0.25830 0.49440 -0.45000
O 	O 	0.73820 0.92340 0.41240 -0.40400
O 	O 	0.49330 0.24030 0.42820 -0.44900
O 	O 	0.25300 0.18790 0.75970 -0.44900
O 	O 	0.08150 0.33010 0.56920 -0.42900
O 	O 	0.97480 0.72800 0.56340 -0.45700
O 	O 	0.74860 0.99860 0.48100 -0.64800
O 	O 	0.76760 0.25000 0.74860 -0.64600
O 	O 	0.18690 0.70820 0.76090 -0.39700
O 	O 	0.28700 0.28280 0.85560 -0.41700
O 	O 	0.75300 0.99330 0.06510 -0.45000
O 	O 	0.78800 0.33620 0.76440 -0.44400
O 	O 	0.92260 0.49140 0.66620 -0.42000
