data_crystal

_cell_length_a 55.28900
_cell_length_b 28.91600
_cell_length_c 17.46800
_cell_angle_alpha 90.00000
_cell_angle_beta  95.92000
_cell_angle_gamma 90.00000

_symmetry_space_group_name_	'P 1'
_symmetry_space_group_name_H-M	'P 1'

loop_
_symmetry_equiv_pos_as_xyz
  x,y,z

loop_
_atom_site_label
_atom_site_type_symbol
_atom_site_fract_x
_atom_site_fract_y
_atom_site_fract_z
_atom_site_charge
Ru	Ru	0.36211 0.18957 0.54234 1.09800
O 	O 	0.34870 0.25460 0.57680 -0.50700
O 	O 	0.39360 0.19950 0.60180 -0.50600
O 	O 	0.32800 0.17580 0.50260 -0.50800
O 	O 	0.37500 0.12420 0.51730 -0.48500
O 	O 	0.37020 0.21370 0.45110 -0.56800
N 	N 	0.35100 0.16110 0.64780 -0.15400
C 	C 	0.35880 0.29110 0.56920 0.73500
C 	C 	0.41220 0.21520 0.58440 0.58000
C 	C 	0.31370 0.18180 0.44650 0.64300
C 	C 	0.37350 0.10740 0.45270 0.65300
Ru	Ru	0.39095 0.26634 0.44528 1.08300
Ru	Ru	0.35929 0.18358 0.35080 1.07100
C 	C 	0.36570 0.12720 0.68050 0.00800
C 	C 	0.32860 0.17430 0.66800 0.00800
O 	O 	0.37400 0.30010 0.52850 -0.54300
C 	C 	0.34870 0.33030 0.61370 -1.00700
O 	O 	0.41660 0.23930 0.52580 -0.44500
C 	C 	0.43630 0.21550 0.63910 -0.79800
O 	O 	0.32180 0.18240 0.38320 -0.45100
C 	C 	0.28660 0.17160 0.43450 -0.88600
O 	O 	0.36680 0.11960 0.38910 -0.51600
C 	C 	0.38290 0.05750 0.45750 -0.84800
O 	O 	0.41140 0.24260 0.36590 -0.48500
O 	O 	0.36730 0.29810 0.36440 -0.48000
N 	N 	0.41280 0.32580 0.44230 -0.16900
O 	O 	0.39350 0.17880 0.32070 -0.47000
O 	O 	0.35120 0.24280 0.29330 -0.48300
N 	N 	0.34770 0.14980 0.24530 -0.16800
H 	H 	0.38080 0.12090 0.66190 0.03400
C 	C 	0.35790 0.10140 0.74230 -0.01200
C 	C 	0.32170 0.14760 0.72850 -0.01600
H 	H 	0.31920 0.19860 0.64290 0.03300
H 	H 	0.34890 0.32110 0.66770 0.31000
H 	H 	0.33190 0.33620 0.59210 0.31300
H 	H 	0.35830 0.35850 0.61020 0.33100
H 	H 	0.44990 0.23000 0.61650 0.26200
H 	H 	0.44000 0.18280 0.64980 0.24300
H 	H 	0.43360 0.23130 0.68710 0.25000
H 	H 	0.27700 0.19780 0.41230 0.26900
H 	H 	0.28150 0.16430 0.48520 0.26900
H 	H 	0.28380 0.14460 0.40070 0.27500
H 	H 	0.37360 0.03840 0.49030 0.25400
H 	H 	0.40000 0.05820 0.47920 0.25500
H 	H 	0.38180 0.04430 0.40560 0.26000
C 	C 	0.41120 0.20560 0.33260 0.59600
C 	C 	0.35470 0.28430 0.30610 0.60000
C 	C 	0.41670 0.34240 0.37020 0.01600
C 	C 	0.42490 0.34390 0.50890 0.02000
H 	H 	0.36740 0.07730 0.76710 0.03500
C 	C 	0.33600 0.11180 0.76680 -0.11000
H 	H 	0.30630 0.15340 0.74610 0.03600
C 	C 	0.43160 0.20130 0.27890 -0.83500
C 	C 	0.34530 0.31730 0.24000 -0.84400
H 	H 	0.40790 0.33000 0.32520 0.02300
C 	C 	0.43350 0.37800 0.36440 -0.05100
C 	C 	0.44180 0.37940 0.50210 -0.04000
H 	H 	0.42160 0.33240 0.55780 0.02800
C 	C 	0.32580 0.08320 0.82620 0.43600
H 	H 	0.42570 0.20880 0.22560 0.26400
H 	H 	0.43760 0.16940 0.28170 0.25500
H 	H 	0.44480 0.22240 0.29690 0.26700
H 	H 	0.33880 0.29720 0.19750 0.26900
H 	H 	0.35790 0.33740 0.22270 0.26200
H 	H 	0.33210 0.33630 0.25650 0.25900
H 	H 	0.43630 0.38990 0.31550 0.04000
C 	C 	0.44590 0.39610 0.43090 -0.06500
H 	H 	0.45080 0.39140 0.54710 0.05700
O 	O 	0.30530 0.08910 0.84430 -0.43600
O 	O 	0.33870 0.05120 0.84930 -0.42800
C 	C 	0.46320 0.43420 0.41650 0.36000
Ru	Ru	0.28242 0.06119 0.91474 1.02900
O 	O 	0.47390 0.44890 0.47930 -0.41100
O 	O 	0.46510 0.44530 0.34700 -0.49800
O 	O 	0.30310 0.08600 0.00870 -0.42400
O 	O 	0.25750 0.03950 0.98510 -0.40200
O 	O 	0.25930 0.03750 0.82380 -0.40600
O 	O 	0.33840 0.04810 0.02100 -0.42000
C 	C 	0.32280 0.07510 0.04140 0.39100
C 	C 	0.33180 0.10230 0.11420 -0.06400
C 	C 	0.31800 0.13860 0.13950 -0.05000
C 	C 	0.35390 0.09040 0.15560 -0.04400
C 	C 	0.22650 0.04210 0.09500 -0.04500
C 	C 	0.22850 0.04160 0.68320 -0.03700
C 	C 	0.32640 0.16180 0.20550 0.03100
H 	H 	0.30340 0.14700 0.10940 0.05100
H 	H 	0.36360 0.06590 0.13910 0.04400
C 	C 	0.36170 0.11420 0.22140 0.02300
C 	C 	0.21160 0.04150 0.15550 0.02000
H 	H 	0.23180 0.07050 0.07540 0.05100
C 	C 	0.21350 0.04150 0.61370 0.01200
H 	H 	0.23360 0.07020 0.70640 0.04200
H 	H 	0.31700 0.18670 0.22230 0.02200
H 	H 	0.37630 0.10630 0.25200 0.03000
H 	H 	0.20670 0.06990 0.17690 0.03100
H 	H 	0.20820 0.06980 0.59010 0.02700
O 	O 	0.21050 0.05150 0.44440 -0.42500
O 	O 	0.16600 0.94960 0.51840 -0.47800
C 	C 	0.21570 0.07280 0.38020 0.59000
C 	C 	0.14440 0.93930 0.50460 0.65900
O 	O 	0.20760 0.05010 0.31870 -0.46600
C 	C 	0.23300 0.10910 0.39510 -0.97800
O 	O 	0.13130 0.94840 0.44790 -0.48600
C 	C 	0.13420 0.90610 0.56240 -0.94500
O 	O 	0.16430 0.94930 0.23100 -0.46900
O 	O 	0.13100 0.94950 0.28570 -0.47800
H 	H 	0.24820 0.09860 0.37660 0.29400
H 	H 	0.23570 0.11570 0.45040 0.30300
H 	H 	0.22730 0.13720 0.36740 0.29000
H 	H 	0.11670 0.91150 0.56170 0.31700
H 	H 	0.14220 0.91210 0.61410 0.30600
H 	H 	0.13700 0.87390 0.54820 0.32400
C 	C 	0.14440 0.93370 0.24270 0.63500
C 	C 	0.13500 0.89160 0.19430 -0.86400
H 	H 	0.14920 0.87230 0.18690 0.26600
H 	H 	0.12690 0.90080 0.14400 0.27700
H 	H 	0.12360 0.87410 0.22250 0.27200
Ru	Ru	0.86211 0.68957 0.54234 1.09800
O 	O 	0.84870 0.75460 0.57680 -0.50800
O 	O 	0.89360 0.69950 0.60180 -0.50700
O 	O 	0.82800 0.67580 0.50260 -0.50800
O 	O 	0.87500 0.62420 0.51730 -0.48700
O 	O 	0.87020 0.71370 0.45110 -0.56900
N 	N 	0.85100 0.66110 0.64780 -0.15500
C 	C 	0.85880 0.79110 0.56920 0.73600
C 	C 	0.91220 0.71520 0.58440 0.58300
C 	C 	0.81370 0.68180 0.44650 0.64400
C 	C 	0.87350 0.60740 0.45270 0.66300
Ru	Ru	0.89095 0.76634 0.44528 1.08200
Ru	Ru	0.85929 0.68358 0.35080 1.07000
C 	C 	0.86570 0.62720 0.68050 0.01000
C 	C 	0.82860 0.67430 0.66800 0.00800
O 	O 	0.87400 0.80010 0.52850 -0.54400
C 	C 	0.84870 0.83030 0.61370 -1.01100
O 	O 	0.91660 0.73930 0.52580 -0.44500
C 	C 	0.93630 0.71550 0.63910 -0.80600
O 	O 	0.82180 0.68240 0.38320 -0.45000
C 	C 	0.78660 0.67160 0.43450 -0.88900
O 	O 	0.86680 0.61960 0.38910 -0.51600
C 	C 	0.88290 0.55750 0.45750 -0.87700
O 	O 	0.91140 0.74260 0.36590 -0.48500
O 	O 	0.86730 0.79810 0.36440 -0.48000
N 	N 	0.91280 0.82580 0.44230 -0.16900
O 	O 	0.89350 0.67880 0.32070 -0.47000
O 	O 	0.85120 0.74280 0.29330 -0.48300
N 	N 	0.84770 0.64980 0.24530 -0.16800
H 	H 	0.88080 0.62090 0.66190 0.03700
C 	C 	0.85790 0.60140 0.74230 -0.01200
C 	C 	0.82170 0.64760 0.72850 -0.01600
H 	H 	0.81920 0.69860 0.64290 0.03300
H 	H 	0.84890 0.82110 0.66770 0.31200
H 	H 	0.83190 0.83620 0.59210 0.31500
H 	H 	0.85830 0.85850 0.61020 0.33400
H 	H 	0.94990 0.73000 0.61650 0.26600
H 	H 	0.94000 0.68280 0.64980 0.24900
H 	H 	0.93360 0.73130 0.68710 0.25600
H 	H 	0.77700 0.69780 0.41230 0.27000
H 	H 	0.78150 0.66430 0.48520 0.27100
H 	H 	0.78380 0.64460 0.40070 0.27800
H 	H 	0.87360 0.53840 0.49030 0.27400
H 	H 	0.90000 0.55820 0.47920 0.27200
H 	H 	0.88180 0.54430 0.40560 0.27900
C 	C 	0.91120 0.70560 0.33260 0.60000
C 	C 	0.85470 0.78430 0.30610 0.60300
C 	C 	0.91670 0.84240 0.37020 0.02000
C 	C 	0.92490 0.84390 0.50890 0.02400
H 	H 	0.86740 0.57730 0.76710 0.04100
C 	C 	0.83600 0.61180 0.76680 -0.10600
H 	H 	0.80630 0.65340 0.74610 0.03800
C 	C 	0.93160 0.70130 0.27890 -0.84400
C 	C 	0.84530 0.81730 0.24000 -0.85200
H 	H 	0.90790 0.83000 0.32520 0.02400
C 	C 	0.93350 0.87800 0.36440 -0.05400
C 	C 	0.94180 0.87940 0.50210 -0.04300
H 	H 	0.92160 0.83240 0.55780 0.02900
C 	C 	0.82580 0.58320 0.82620 0.43500
H 	H 	0.92570 0.70880 0.22560 0.27000
H 	H 	0.93760 0.66940 0.28170 0.26100
H 	H 	0.94480 0.72240 0.29690 0.27200
H 	H 	0.83880 0.79720 0.19750 0.27300
H 	H 	0.85790 0.83740 0.22270 0.26700
H 	H 	0.83210 0.83630 0.25650 0.26300
H 	H 	0.93630 0.88990 0.31550 0.04700
C 	C 	0.94590 0.89610 0.43090 -0.05600
H 	H 	0.95080 0.89140 0.54710 0.06500
O 	O 	0.80530 0.58910 0.84430 -0.43400
O 	O 	0.83870 0.55120 0.84930 -0.42000
C 	C 	0.96320 0.93420 0.41650 0.35700
Ru	Ru	0.78242 0.56119 0.91474 1.03200
O 	O 	0.97390 0.94890 0.47930 -0.38800
O 	O 	0.96510 0.94530 0.34700 -0.47500
O 	O 	0.80310 0.58600 0.00870 -0.42200
O 	O 	0.75750 0.53950 0.98510 -0.40800
O 	O 	0.75930 0.53750 0.82380 -0.41200
O 	O 	0.83840 0.54810 0.02100 -0.41300
C 	C 	0.82280 0.57510 0.04140 0.39200
C 	C 	0.83180 0.60230 0.11420 -0.06000
C 	C 	0.81800 0.63860 0.13950 -0.05100
C 	C 	0.85390 0.59040 0.15560 -0.04400
C 	C 	0.72650 0.54210 0.09500 -0.05700
C 	C 	0.72850 0.54160 0.68320 -0.04800
C 	C 	0.82640 0.66180 0.20550 0.03300
H 	H 	0.80340 0.64700 0.10940 0.05200
H 	H 	0.86360 0.56590 0.13910 0.05100
C 	C 	0.86170 0.61420 0.22140 0.02700
C 	C 	0.71160 0.54150 0.15550 0.03300
H 	H 	0.73180 0.57050 0.07540 0.05600
C 	C 	0.71350 0.54150 0.61370 0.02600
H 	H 	0.73360 0.57020 0.70640 0.04700
H 	H 	0.81700 0.68670 0.22230 0.02200
H 	H 	0.87630 0.60630 0.25200 0.03300
H 	H 	0.70670 0.56990 0.17690 0.02800
H 	H 	0.70820 0.56980 0.59010 0.02400
O 	O 	0.71050 0.55150 0.44440 -0.42100
O 	O 	0.66600 0.44960 0.51840 -0.49700
C 	C 	0.71570 0.57280 0.38020 0.59300
C 	C 	0.64440 0.43930 0.50460 0.66000
O 	O 	0.70760 0.55010 0.31870 -0.46300
C 	C 	0.73300 0.60910 0.39510 -0.98300
O 	O 	0.63130 0.44840 0.44790 -0.50800
C 	C 	0.63420 0.40610 0.56240 -0.94400
O 	O 	0.66430 0.44930 0.23100 -0.49000
O 	O 	0.63100 0.44950 0.28570 -0.50200
H 	H 	0.74820 0.59860 0.37660 0.29900
H 	H 	0.73570 0.61570 0.45040 0.30600
H 	H 	0.72730 0.63720 0.36740 0.29100
H 	H 	0.61670 0.41150 0.56170 0.31100
H 	H 	0.64220 0.41210 0.61410 0.30000
H 	H 	0.63700 0.37390 0.54820 0.32300
C 	C 	0.64440 0.43370 0.24270 0.63900
C 	C 	0.63500 0.39160 0.19430 -0.86500
H 	H 	0.64920 0.37230 0.18690 0.26500
H 	H 	0.62690 0.40080 0.14400 0.26900
H 	H 	0.62360 0.37410 0.22250 0.26900
Ru	Ru	0.63789 0.18957 0.45766 1.09700
O 	O 	0.65130 0.25460 0.42320 -0.50800
O 	O 	0.60640 0.19950 0.39820 -0.50700
O 	O 	0.67200 0.17580 0.49740 -0.50900
O 	O 	0.62500 0.12420 0.48270 -0.48600
O 	O 	0.62980 0.21370 0.54890 -0.56900
N 	N 	0.64900 0.16110 0.35220 -0.15500
C 	C 	0.64120 0.29110 0.43080 0.73400
C 	C 	0.58780 0.21520 0.41560 0.57900
C 	C 	0.68630 0.18180 0.55350 0.64200
C 	C 	0.62650 0.10740 0.54730 0.65200
Ru	Ru	0.60905 0.26634 0.55472 1.08200
Ru	Ru	0.64071 0.18358 0.64920 1.07000
C 	C 	0.63430 0.12720 0.31950 0.00700
C 	C 	0.67140 0.17430 0.33200 0.00700
O 	O 	0.62600 0.30010 0.47150 -0.54400
C 	C 	0.65130 0.33030 0.38630 -1.00700
O 	O 	0.58340 0.23930 0.47420 -0.44500
C 	C 	0.56370 0.21550 0.36090 -0.79800
O 	O 	0.67820 0.18240 0.61680 -0.45100
C 	C 	0.71340 0.17160 0.56550 -0.88600
O 	O 	0.63320 0.11960 0.61090 -0.51600
C 	C 	0.61710 0.05750 0.54250 -0.84800
O 	O 	0.58860 0.24260 0.63410 -0.48500
O 	O 	0.63270 0.29810 0.63560 -0.48000
N 	N 	0.58720 0.32580 0.55770 -0.16900
O 	O 	0.60650 0.17880 0.67930 -0.47000
O 	O 	0.64880 0.24280 0.70670 -0.48300
N 	N 	0.65230 0.14980 0.75470 -0.16800
H 	H 	0.61920 0.12090 0.33810 0.03400
C 	C 	0.64210 0.10140 0.25770 -0.01200
C 	C 	0.67830 0.14760 0.27150 -0.01600
H 	H 	0.68080 0.19860 0.35710 0.03300
H 	H 	0.65110 0.32110 0.33230 0.31000
H 	H 	0.66810 0.33620 0.40790 0.31300
H 	H 	0.64170 0.35850 0.38980 0.33100
H 	H 	0.55010 0.23000 0.38350 0.26200
H 	H 	0.56000 0.18280 0.35020 0.24300
H 	H 	0.56640 0.23130 0.31290 0.25000
H 	H 	0.72300 0.19780 0.58770 0.26900
H 	H 	0.71850 0.16430 0.51480 0.26900
H 	H 	0.71620 0.14460 0.59930 0.27500
H 	H 	0.62640 0.03840 0.50970 0.25400
H 	H 	0.60000 0.05820 0.52080 0.25500
H 	H 	0.61820 0.04430 0.59440 0.26000
C 	C 	0.58880 0.20560 0.66740 0.59600
C 	C 	0.64530 0.28430 0.69390 0.60000
C 	C 	0.58330 0.34240 0.62980 0.01600
C 	C 	0.57510 0.34390 0.49110 0.02000
H 	H 	0.63260 0.07730 0.23290 0.03500
C 	C 	0.66400 0.11180 0.23320 -0.11000
H 	H 	0.69370 0.15340 0.25390 0.03600
C 	C 	0.56840 0.20130 0.72110 -0.83500
C 	C 	0.65470 0.31730 0.76000 -0.84400
H 	H 	0.59210 0.33000 0.67480 0.02300
C 	C 	0.56650 0.37800 0.63560 -0.05100
C 	C 	0.55820 0.37940 0.49790 -0.04000
H 	H 	0.57840 0.33240 0.44220 0.02800
C 	C 	0.67420 0.08320 0.17380 0.43600
H 	H 	0.57430 0.20880 0.77440 0.26400
H 	H 	0.56240 0.16940 0.71830 0.25500
H 	H 	0.55520 0.22240 0.70310 0.26700
H 	H 	0.66120 0.29720 0.80250 0.26900
H 	H 	0.64210 0.33740 0.77730 0.26200
H 	H 	0.66790 0.33630 0.74350 0.25900
H 	H 	0.56370 0.38990 0.68450 0.04000
C 	C 	0.55410 0.39610 0.56910 -0.06500
H 	H 	0.54920 0.39140 0.45290 0.05700
O 	O 	0.69470 0.08910 0.15570 -0.43600
O 	O 	0.66130 0.05120 0.15070 -0.42800
C 	C 	0.53680 0.43420 0.58350 0.36000
Ru	Ru	0.71758 0.06119 0.08526 1.02900
O 	O 	0.52610 0.44890 0.52070 -0.41100
O 	O 	0.53490 0.44530 0.65300 -0.49800
O 	O 	0.69690 0.08600 0.99130 -0.42400
O 	O 	0.74250 0.03950 0.01490 -0.40200
O 	O 	0.74070 0.03750 0.17620 -0.40600
O 	O 	0.66160 0.04810 0.97900 -0.42000
C 	C 	0.67720 0.07510 0.95860 0.39100
C 	C 	0.66820 0.10230 0.88580 -0.06400
C 	C 	0.68200 0.13860 0.86050 -0.05000
C 	C 	0.64610 0.09040 0.84440 -0.04400
C 	C 	0.77350 0.04210 0.90500 -0.04500
C 	C 	0.77150 0.04160 0.31680 -0.03700
C 	C 	0.67360 0.16180 0.79450 0.03100
H 	H 	0.69660 0.14700 0.89060 0.05100
H 	H 	0.63640 0.06590 0.86090 0.04400
C 	C 	0.63830 0.11420 0.77860 0.02300
C 	C 	0.78840 0.04150 0.84450 0.02000
H 	H 	0.76820 0.07050 0.92460 0.05100
C 	C 	0.78650 0.04150 0.38630 0.01200
H 	H 	0.76640 0.07020 0.29360 0.04200
H 	H 	0.68300 0.18670 0.77770 0.02200
H 	H 	0.62370 0.10630 0.74800 0.03000
H 	H 	0.79330 0.06990 0.82310 0.03100
H 	H 	0.79180 0.06980 0.40990 0.02700
O 	O 	0.78950 0.05150 0.55560 -0.42500
O 	O 	0.83400 0.94960 0.48160 -0.47800
C 	C 	0.78430 0.07280 0.61980 0.59000
C 	C 	0.85560 0.93930 0.49540 0.65900
O 	O 	0.79240 0.05010 0.68130 -0.46600
C 	C 	0.76700 0.10910 0.60490 -0.97800
O 	O 	0.86870 0.94840 0.55210 -0.48600
C 	C 	0.86580 0.90610 0.43760 -0.94500
O 	O 	0.83570 0.94930 0.76900 -0.46900
O 	O 	0.86900 0.94950 0.71430 -0.47800
H 	H 	0.75180 0.09860 0.62340 0.29400
H 	H 	0.76430 0.11570 0.54960 0.30300
H 	H 	0.77270 0.13720 0.63260 0.29000
H 	H 	0.88330 0.91150 0.43830 0.31700
H 	H 	0.85780 0.91210 0.38590 0.30600
H 	H 	0.86300 0.87390 0.45180 0.32400
C 	C 	0.85560 0.93370 0.75730 0.63500
C 	C 	0.86500 0.89160 0.80570 -0.86400
H 	H 	0.85080 0.87230 0.81310 0.26600
H 	H 	0.87310 0.90080 0.85600 0.27700
H 	H 	0.87640 0.87410 0.77750 0.27300
Ru	Ru	0.13789 0.68957 0.45766 1.09800
O 	O 	0.15130 0.75460 0.42320 -0.50800
O 	O 	0.10640 0.69950 0.39820 -0.50700
O 	O 	0.17200 0.67580 0.49740 -0.50800
O 	O 	0.12500 0.62420 0.48270 -0.48700
O 	O 	0.12980 0.71370 0.54890 -0.56900
N 	N 	0.14900 0.66110 0.35220 -0.15500
C 	C 	0.14120 0.79110 0.43080 0.73600
C 	C 	0.08780 0.71520 0.41560 0.58300
C 	C 	0.18630 0.68180 0.55350 0.64400
C 	C 	0.12650 0.60740 0.54730 0.66300
Ru	Ru	0.10905 0.76634 0.55472 1.08200
Ru	Ru	0.14071 0.68358 0.64920 1.07000
C 	C 	0.13430 0.62720 0.31950 0.01000
C 	C 	0.17140 0.67430 0.33200 0.00800
O 	O 	0.12600 0.80010 0.47150 -0.54400
C 	C 	0.15130 0.83030 0.38630 -1.01100
O 	O 	0.08340 0.73930 0.47420 -0.44500
C 	C 	0.06370 0.71550 0.36090 -0.80600
O 	O 	0.17820 0.68240 0.61680 -0.45000
C 	C 	0.21340 0.67160 0.56550 -0.88900
O 	O 	0.13320 0.61960 0.61090 -0.51600
C 	C 	0.11710 0.55750 0.54250 -0.87700
O 	O 	0.08860 0.74260 0.63410 -0.48500
O 	O 	0.13270 0.79810 0.63560 -0.48000
N 	N 	0.08720 0.82580 0.55770 -0.16900
O 	O 	0.10650 0.67880 0.67930 -0.47000
O 	O 	0.14880 0.74280 0.70670 -0.48300
N 	N 	0.15230 0.64980 0.75470 -0.16800
H 	H 	0.11920 0.62090 0.33810 0.03700
C 	C 	0.14210 0.60140 0.25770 -0.01200
C 	C 	0.17830 0.64760 0.27150 -0.01600
H 	H 	0.18080 0.69860 0.35710 0.03300
H 	H 	0.15110 0.82110 0.33230 0.31200
H 	H 	0.16810 0.83620 0.40790 0.31500
H 	H 	0.14170 0.85850 0.38980 0.33400
H 	H 	0.05010 0.73000 0.38350 0.26600
H 	H 	0.06000 0.68280 0.35020 0.24900
H 	H 	0.06640 0.73130 0.31290 0.25500
H 	H 	0.22300 0.69780 0.58770 0.27000
H 	H 	0.21850 0.66430 0.51480 0.27100
H 	H 	0.21620 0.64460 0.59930 0.27800
H 	H 	0.12640 0.53840 0.50970 0.27400
H 	H 	0.10000 0.55820 0.52080 0.27100
H 	H 	0.11820 0.54430 0.59440 0.27900
C 	C 	0.08880 0.70560 0.66740 0.60000
C 	C 	0.14530 0.78430 0.69390 0.60300
C 	C 	0.08330 0.84240 0.62980 0.02000
C 	C 	0.07510 0.84390 0.49110 0.02400
H 	H 	0.13260 0.57730 0.23290 0.04100
C 	C 	0.16400 0.61180 0.23320 -0.10600
H 	H 	0.19370 0.65340 0.25390 0.03800
C 	C 	0.06840 0.70130 0.72110 -0.84400
C 	C 	0.15470 0.81730 0.76000 -0.85200
H 	H 	0.09210 0.83000 0.67480 0.02400
C 	C 	0.06650 0.87800 0.63560 -0.05400
C 	C 	0.05820 0.87940 0.49790 -0.04300
H 	H 	0.07840 0.83240 0.44220 0.02900
C 	C 	0.17420 0.58320 0.17380 0.43500
H 	H 	0.07430 0.70880 0.77440 0.27000
H 	H 	0.06240 0.66940 0.71830 0.26100
H 	H 	0.05520 0.72240 0.70310 0.27200
H 	H 	0.16120 0.79720 0.80250 0.27300
H 	H 	0.14210 0.83740 0.77730 0.26700
H 	H 	0.16790 0.83630 0.74350 0.26300
H 	H 	0.06370 0.88990 0.68450 0.04700
C 	C 	0.05410 0.89610 0.56910 -0.05600
H 	H 	0.04920 0.89140 0.45290 0.06500
O 	O 	0.19470 0.58910 0.15570 -0.43400
O 	O 	0.16130 0.55120 0.15070 -0.42000
C 	C 	0.03680 0.93420 0.58350 0.35700
Ru	Ru	0.21758 0.56119 0.08526 1.03200
O 	O 	0.02610 0.94890 0.52070 -0.38800
O 	O 	0.03490 0.94530 0.65300 -0.47500
O 	O 	0.19690 0.58600 0.99130 -0.42200
O 	O 	0.24250 0.53950 0.01490 -0.40800
O 	O 	0.24070 0.53750 0.17620 -0.41200
O 	O 	0.16160 0.54810 0.97900 -0.41300
C 	C 	0.17720 0.57510 0.95860 0.39200
C 	C 	0.16820 0.60230 0.88580 -0.06000
C 	C 	0.18200 0.63860 0.86050 -0.05100
C 	C 	0.14610 0.59040 0.84440 -0.04400
C 	C 	0.27350 0.54210 0.90500 -0.05700
C 	C 	0.27150 0.54160 0.31680 -0.04800
C 	C 	0.17360 0.66180 0.79450 0.03300
H 	H 	0.19660 0.64700 0.89060 0.05200
H 	H 	0.13640 0.56590 0.86090 0.05100
C 	C 	0.13830 0.61420 0.77860 0.02700
C 	C 	0.28840 0.54150 0.84450 0.03300
H 	H 	0.26820 0.57050 0.92460 0.05600
C 	C 	0.28650 0.54150 0.38630 0.02600
H 	H 	0.26640 0.57020 0.29360 0.04700
H 	H 	0.18300 0.68670 0.77770 0.02200
H 	H 	0.12370 0.60630 0.74800 0.03300
H 	H 	0.29330 0.56990 0.82310 0.02800
H 	H 	0.29180 0.56980 0.40990 0.02400
O 	O 	0.28950 0.55150 0.55560 -0.42100
O 	O 	0.33400 0.44960 0.48160 -0.49700
C 	C 	0.28430 0.57280 0.61980 0.59300
C 	C 	0.35560 0.43930 0.49540 0.66000
O 	O 	0.29240 0.55010 0.68130 -0.46300
C 	C 	0.26700 0.60910 0.60490 -0.98300
O 	O 	0.36870 0.44840 0.55210 -0.50800
C 	C 	0.36580 0.40610 0.43760 -0.94400
O 	O 	0.33570 0.44930 0.76900 -0.49000
O 	O 	0.36900 0.44950 0.71430 -0.50200
H 	H 	0.25180 0.59860 0.62340 0.29900
H 	H 	0.26430 0.61570 0.54960 0.30600
H 	H 	0.27270 0.63720 0.63260 0.29100
H 	H 	0.38330 0.41150 0.43830 0.31100
H 	H 	0.35780 0.41210 0.38590 0.30000
H 	H 	0.36300 0.37390 0.45180 0.32300
C 	C 	0.35560 0.43370 0.75730 0.63900
C 	C 	0.36500 0.39160 0.80570 -0.86500
H 	H 	0.35080 0.37230 0.81310 0.26500
H 	H 	0.37310 0.40080 0.85600 0.26900
H 	H 	0.37640 0.37410 0.77750 0.26900
Ru	Ru	0.63789 0.81043 0.45766 1.09800
O 	O 	0.65130 0.74540 0.42320 -0.50800
O 	O 	0.60640 0.80050 0.39820 -0.50700
O 	O 	0.67200 0.82420 0.49740 -0.50700
O 	O 	0.62500 0.87580 0.48270 -0.48800
O 	O 	0.62980 0.78630 0.54890 -0.57000
N 	N 	0.64900 0.83890 0.35220 -0.15500
C 	C 	0.64120 0.70890 0.43080 0.73400
C 	C 	0.58780 0.78480 0.41560 0.58400
C 	C 	0.68630 0.81820 0.55350 0.64600
C 	C 	0.62650 0.89260 0.54730 0.67500
Ru	Ru	0.60905 0.73366 0.55472 1.08200
Ru	Ru	0.64071 0.81642 0.64920 1.07100
C 	C 	0.63430 0.87280 0.31950 0.01400
C 	C 	0.67140 0.82570 0.33200 0.01100
O 	O 	0.62600 0.69990 0.47150 -0.54500
C 	C 	0.65130 0.66970 0.38630 -1.00800
O 	O 	0.58340 0.76070 0.47420 -0.44500
C 	C 	0.56370 0.78450 0.36090 -0.80800
O 	O 	0.67820 0.81760 0.61680 -0.44900
C 	C 	0.71340 0.82840 0.56550 -0.89300
O 	O 	0.63320 0.88040 0.61090 -0.51700
C 	C 	0.61710 0.94250 0.54250 -0.90600
O 	O 	0.58860 0.75740 0.63410 -0.48600
O 	O 	0.63270 0.70190 0.63560 -0.48000
N 	N 	0.58720 0.67420 0.55770 -0.16900
O 	O 	0.60650 0.82120 0.67930 -0.46900
O 	O 	0.64880 0.75720 0.70670 -0.48300
N 	N 	0.65230 0.85020 0.75470 -0.16800
H 	H 	0.61920 0.87910 0.33810 0.03900
C 	C 	0.64210 0.89860 0.25770 -0.01300
C 	C 	0.67830 0.85240 0.27150 -0.01800
H 	H 	0.68080 0.80140 0.35710 0.03200
H 	H 	0.65110 0.67890 0.33230 0.31100
H 	H 	0.66810 0.66380 0.40790 0.31300
H 	H 	0.64170 0.64150 0.38980 0.33100
H 	H 	0.55010 0.77000 0.38350 0.26700
H 	H 	0.56000 0.81720 0.35020 0.25200
H 	H 	0.56640 0.76870 0.31290 0.25600
H 	H 	0.72300 0.80220 0.58770 0.27200
H 	H 	0.71850 0.83570 0.51480 0.27400
H 	H 	0.71620 0.85540 0.59930 0.28100
H 	H 	0.62640 0.96160 0.50970 0.29500
H 	H 	0.60000 0.94180 0.52080 0.28800
H 	H 	0.61820 0.95570 0.59440 0.29800
C 	C 	0.58880 0.79440 0.66740 0.60200
C 	C 	0.64530 0.71570 0.69390 0.60100
C 	C 	0.58330 0.65760 0.62980 0.01600
C 	C 	0.57510 0.65610 0.49110 0.02000
H 	H 	0.63260 0.92270 0.23290 0.04800
C 	C 	0.66400 0.88820 0.23320 -0.10000
H 	H 	0.69370 0.84660 0.25390 0.03900
C 	C 	0.56840 0.79870 0.72110 -0.84800
C 	C 	0.65470 0.68270 0.76000 -0.84500
H 	H 	0.59210 0.67000 0.67480 0.02300
C 	C 	0.56650 0.62200 0.63560 -0.05100
C 	C 	0.55820 0.62060 0.49790 -0.04000
H 	H 	0.57840 0.66760 0.44220 0.02800
C 	C 	0.67420 0.91680 0.17380 0.43100
H 	H 	0.57430 0.79120 0.77440 0.27100
H 	H 	0.56240 0.83060 0.71830 0.26500
H 	H 	0.55520 0.77760 0.70310 0.27400
H 	H 	0.66120 0.70280 0.80250 0.26900
H 	H 	0.64210 0.66260 0.77730 0.26200
H 	H 	0.66790 0.66370 0.74350 0.25900
H 	H 	0.56370 0.61010 0.68450 0.04100
C 	C 	0.55410 0.60390 0.56910 -0.06500
H 	H 	0.54920 0.60860 0.45290 0.05700
O 	O 	0.69470 0.91090 0.15570 -0.42800
O 	O 	0.66130 0.94880 0.15070 -0.40000
C 	C 	0.53680 0.56580 0.58350 0.36000
Ru	Ru	0.71758 0.93881 0.08526 1.04200
O 	O 	0.52610 0.55110 0.52070 -0.41100
O 	O 	0.53490 0.55470 0.65300 -0.49800
O 	O 	0.69690 0.91400 0.99130 -0.41700
O 	O 	0.74250 0.96050 0.01490 -0.37000
O 	O 	0.74070 0.96250 0.17620 -0.37200
O 	O 	0.66160 0.95190 0.97900 -0.39300
C 	C 	0.67720 0.92490 0.95860 0.39100
C 	C 	0.66820 0.89770 0.88580 -0.05400
C 	C 	0.68200 0.86140 0.86050 -0.05200
C 	C 	0.64610 0.90960 0.84440 -0.04500
C 	C 	0.77350 0.95790 0.90500 -0.00900
C 	C 	0.77150 0.95840 0.31680 -0.00000
C 	C 	0.67360 0.83820 0.79450 0.03600
H 	H 	0.69660 0.85300 0.89060 0.05300
H 	H 	0.63640 0.93410 0.86090 0.05900
C 	C 	0.63830 0.88580 0.77860 0.03100
C 	C 	0.78840 0.95850 0.84450 0.05700
H 	H 	0.76820 0.92950 0.92460 0.04600
C 	C 	0.78650 0.95850 0.38630 0.04900
H 	H 	0.76640 0.92980 0.29360 0.03700
H 	H 	0.68300 0.81330 0.77770 0.02200
H 	H 	0.62370 0.89370 0.74800 0.03500
H 	H 	0.79330 0.93010 0.82310 0.02400
H 	H 	0.79180 0.93020 0.40990 0.02100
O 	O 	0.78950 0.94850 0.55560 -0.40200
O 	O 	0.83400 0.05040 0.48160 -0.50000
C 	C 	0.78430 0.92720 0.61980 0.59000
C 	C 	0.85560 0.06070 0.49540 0.65400
O 	O 	0.79240 0.94990 0.68130 -0.44200
C 	C 	0.76700 0.89090 0.60490 -0.98000
O 	O 	0.86870 0.05160 0.55210 -0.50900
C 	C 	0.86580 0.09390 0.43760 -0.93700
O 	O 	0.83570 0.05070 0.76900 -0.49300
O 	O 	0.86900 0.05050 0.71430 -0.50500
H 	H 	0.75180 0.90140 0.62340 0.30300
H 	H 	0.76430 0.88430 0.54960 0.30700
H 	H 	0.77270 0.86280 0.63260 0.29100
H 	H 	0.88330 0.08850 0.43830 0.30600
H 	H 	0.85780 0.08790 0.38590 0.29400
H 	H 	0.86300 0.12610 0.45180 0.32200
C 	C 	0.85560 0.06630 0.75730 0.63700
C 	C 	0.86500 0.10840 0.80570 -0.86200
H 	H 	0.85080 0.12770 0.81310 0.26300
H 	H 	0.87310 0.09920 0.85600 0.26500
H 	H 	0.87640 0.12590 0.77750 0.26800
Ru	Ru	0.13789 0.31043 0.45766 1.09800
O 	O 	0.15130 0.24540 0.42320 -0.50800
O 	O 	0.10640 0.30050 0.39820 -0.50700
O 	O 	0.17200 0.32420 0.49740 -0.50800
O 	O 	0.12500 0.37580 0.48270 -0.48700
O 	O 	0.12980 0.28630 0.54890 -0.56900
N 	N 	0.14900 0.33890 0.35220 -0.15500
C 	C 	0.14120 0.20890 0.43080 0.73400
C 	C 	0.08780 0.28480 0.41560 0.58200
C 	C 	0.18630 0.31820 0.55350 0.64400
C 	C 	0.12650 0.39260 0.54730 0.66300
Ru	Ru	0.10905 0.23366 0.55472 1.08200
Ru	Ru	0.14071 0.31642 0.64920 1.07000
C 	C 	0.13430 0.37280 0.31950 0.01000
C 	C 	0.17140 0.32570 0.33200 0.00800
O 	O 	0.12600 0.19990 0.47150 -0.54500
C 	C 	0.15130 0.16970 0.38630 -1.00800
O 	O 	0.08340 0.26070 0.47420 -0.44500
C 	C 	0.06370 0.28450 0.36090 -0.80200
O 	O 	0.17820 0.31760 0.61680 -0.45000
C 	C 	0.21340 0.32840 0.56550 -0.88900
O 	O 	0.13320 0.38040 0.61090 -0.51600
C 	C 	0.11710 0.44250 0.54250 -0.87700
O 	O 	0.08860 0.25740 0.63410 -0.48500
O 	O 	0.13270 0.20190 0.63560 -0.48000
N 	N 	0.08720 0.17420 0.55770 -0.16900
O 	O 	0.10650 0.32120 0.67930 -0.46900
O 	O 	0.14880 0.25720 0.70670 -0.48300
N 	N 	0.15230 0.35020 0.75470 -0.16800
H 	H 	0.11920 0.37910 0.33810 0.03700
C 	C 	0.14210 0.39860 0.25770 -0.01200
C 	C 	0.17830 0.35240 0.27150 -0.01600
H 	H 	0.18080 0.30140 0.35710 0.03300
H 	H 	0.15110 0.17890 0.33230 0.31100
H 	H 	0.16810 0.16380 0.40790 0.31300
H 	H 	0.14170 0.14150 0.38980 0.33200
H 	H 	0.05010 0.27000 0.38350 0.26400
H 	H 	0.06000 0.31720 0.35020 0.24800
H 	H 	0.06640 0.26870 0.31290 0.25300
H 	H 	0.22300 0.30220 0.58770 0.27000
H 	H 	0.21850 0.33570 0.51480 0.27100
H 	H 	0.21620 0.35540 0.59930 0.27800
H 	H 	0.12640 0.46160 0.50970 0.27400
H 	H 	0.10000 0.44180 0.52080 0.27100
H 	H 	0.11820 0.45570 0.59440 0.27900
C 	C 	0.08880 0.29440 0.66740 0.59900
C 	C 	0.14530 0.21570 0.69390 0.59900
C 	C 	0.08330 0.15760 0.62980 0.01600
C 	C 	0.07510 0.15610 0.49110 0.02000
H 	H 	0.13260 0.42270 0.23290 0.04100
C 	C 	0.16400 0.38820 0.23320 -0.10600
H 	H 	0.19370 0.34660 0.25390 0.03700
C 	C 	0.06840 0.29870 0.72110 -0.84100
C 	C 	0.15470 0.18270 0.76000 -0.84000
H 	H 	0.09210 0.17000 0.67480 0.02300
C 	C 	0.06650 0.12200 0.63560 -0.05100
C 	C 	0.05820 0.12060 0.49790 -0.04000
H 	H 	0.07840 0.16760 0.44220 0.02800
C 	C 	0.17420 0.41680 0.17380 0.43500
H 	H 	0.07430 0.29120 0.77440 0.26700
H 	H 	0.06240 0.33060 0.71830 0.25900
H 	H 	0.05520 0.27760 0.70310 0.27000
H 	H 	0.16120 0.20280 0.80250 0.26700
H 	H 	0.14210 0.16260 0.77730 0.25900
H 	H 	0.16790 0.16370 0.74350 0.25600
H 	H 	0.06370 0.11010 0.68450 0.03800
C 	C 	0.05410 0.10390 0.56910 -0.06600
H 	H 	0.04920 0.10860 0.45290 0.05700
O 	O 	0.19470 0.41090 0.15570 -0.43400
O 	O 	0.16130 0.44880 0.15070 -0.42000
C 	C 	0.03680 0.06580 0.58350 0.35800
Ru	Ru	0.21758 0.43881 0.08526 1.03200
O 	O 	0.02610 0.05110 0.52070 -0.41400
O 	O 	0.03490 0.05470 0.65300 -0.50300
O 	O 	0.19690 0.41400 0.99130 -0.42200
O 	O 	0.24250 0.46050 0.01490 -0.40800
O 	O 	0.24070 0.46250 0.17620 -0.41200
O 	O 	0.16160 0.45190 0.97900 -0.41300
C 	C 	0.17720 0.42490 0.95860 0.39200
C 	C 	0.16820 0.39770 0.88580 -0.06000
C 	C 	0.18200 0.36140 0.86050 -0.05100
C 	C 	0.14610 0.40960 0.84440 -0.04400
C 	C 	0.27350 0.45790 0.90500 -0.05700
C 	C 	0.27150 0.45840 0.31680 -0.04800
C 	C 	0.17360 0.33820 0.79450 0.03300
H 	H 	0.19660 0.35300 0.89060 0.05200
H 	H 	0.13640 0.43410 0.86090 0.05100
C 	C 	0.13830 0.38580 0.77860 0.02600
C 	C 	0.28840 0.45850 0.84450 0.03300
H 	H 	0.26820 0.42950 0.92460 0.05600
C 	C 	0.28650 0.45850 0.38630 0.02600
H 	H 	0.26640 0.42980 0.29360 0.04700
H 	H 	0.18300 0.31330 0.77770 0.02200
H 	H 	0.12370 0.39370 0.74800 0.03300
H 	H 	0.29330 0.43010 0.82310 0.02800
H 	H 	0.29180 0.43020 0.40990 0.02400
O 	O 	0.28950 0.44850 0.55560 -0.42100
O 	O 	0.33400 0.55040 0.48160 -0.49800
C 	C 	0.28430 0.42720 0.61980 0.59300
C 	C 	0.35560 0.56070 0.49540 0.66000
O 	O 	0.29240 0.44990 0.68130 -0.46300
C 	C 	0.26700 0.39090 0.60490 -0.98300
O 	O 	0.36870 0.55160 0.55210 -0.50800
C 	C 	0.36580 0.59390 0.43760 -0.94300
O 	O 	0.33570 0.55070 0.76900 -0.49000
O 	O 	0.36900 0.55050 0.71430 -0.50200
H 	H 	0.25180 0.40140 0.62340 0.29900
H 	H 	0.26430 0.38430 0.54960 0.30600
H 	H 	0.27270 0.36280 0.63260 0.29100
H 	H 	0.38330 0.58850 0.43830 0.31100
H 	H 	0.35780 0.58790 0.38590 0.30000
H 	H 	0.36300 0.62610 0.45180 0.32300
C 	C 	0.35560 0.56630 0.75730 0.64000
C 	C 	0.36500 0.60840 0.80570 -0.86600
H 	H 	0.35080 0.62770 0.81310 0.26500
H 	H 	0.37310 0.59920 0.85600 0.27000
H 	H 	0.37640 0.62590 0.77750 0.27000
Ru	Ru	0.36211 0.81043 0.54234 1.09800
O 	O 	0.34870 0.74540 0.57680 -0.50800
O 	O 	0.39360 0.80050 0.60180 -0.50700
O 	O 	0.32800 0.82420 0.50260 -0.50700
O 	O 	0.37500 0.87580 0.51730 -0.48800
O 	O 	0.37020 0.78630 0.45110 -0.57000
N 	N 	0.35100 0.83890 0.64780 -0.15500
C 	C 	0.35880 0.70890 0.56920 0.73400
C 	C 	0.41220 0.78480 0.58440 0.58400
C 	C 	0.31370 0.81820 0.44650 0.64600
C 	C 	0.37350 0.89260 0.45270 0.67500
Ru	Ru	0.39095 0.73366 0.44528 1.08200
Ru	Ru	0.35929 0.81642 0.35080 1.07100
C 	C 	0.36570 0.87280 0.68050 0.01400
C 	C 	0.32860 0.82570 0.66800 0.01100
O 	O 	0.37400 0.69990 0.52850 -0.54500
C 	C 	0.34870 0.66970 0.61370 -1.00800
O 	O 	0.41660 0.76070 0.52580 -0.44500
C 	C 	0.43630 0.78450 0.63910 -0.80800
O 	O 	0.32180 0.81760 0.38320 -0.44900
C 	C 	0.28660 0.82840 0.43450 -0.89300
O 	O 	0.36680 0.88040 0.38910 -0.51700
C 	C 	0.38290 0.94250 0.45750 -0.90600
O 	O 	0.41140 0.75740 0.36590 -0.48600
O 	O 	0.36730 0.70190 0.36440 -0.48000
N 	N 	0.41280 0.67420 0.44230 -0.16900
O 	O 	0.39350 0.82120 0.32070 -0.46900
O 	O 	0.35120 0.75720 0.29330 -0.48300
N 	N 	0.34770 0.85020 0.24530 -0.16800
H 	H 	0.38080 0.87910 0.66190 0.03900
C 	C 	0.35790 0.89860 0.74230 -0.01300
C 	C 	0.32170 0.85240 0.72850 -0.01800
H 	H 	0.31920 0.80140 0.64290 0.03200
H 	H 	0.34890 0.67890 0.66770 0.31100
H 	H 	0.33190 0.66380 0.59210 0.31300
H 	H 	0.35830 0.64150 0.61020 0.33100
H 	H 	0.44990 0.77000 0.61650 0.26700
H 	H 	0.44000 0.81720 0.64980 0.25200
H 	H 	0.43360 0.76870 0.68710 0.25600
H 	H 	0.27700 0.80220 0.41230 0.27200
H 	H 	0.28150 0.83570 0.48520 0.27400
H 	H 	0.28380 0.85540 0.40070 0.28100
H 	H 	0.37360 0.96160 0.49030 0.29500
H 	H 	0.40000 0.94180 0.47920 0.28800
H 	H 	0.38180 0.95570 0.40560 0.29800
C 	C 	0.41120 0.79440 0.33260 0.60200
C 	C 	0.35470 0.71570 0.30610 0.60100
C 	C 	0.41670 0.65760 0.37020 0.01600
C 	C 	0.42490 0.65610 0.50890 0.02000
H 	H 	0.36740 0.92270 0.76710 0.04800
C 	C 	0.33600 0.88820 0.76680 -0.10000
H 	H 	0.30630 0.84660 0.74610 0.03900
C 	C 	0.43160 0.79870 0.27890 -0.84800
C 	C 	0.34530 0.68270 0.24000 -0.84500
H 	H 	0.40790 0.67000 0.32520 0.02300
C 	C 	0.43350 0.62200 0.36440 -0.05100
C 	C 	0.44180 0.62060 0.50210 -0.04000
H 	H 	0.42160 0.66760 0.55780 0.02800
C 	C 	0.32580 0.91680 0.82620 0.43100
H 	H 	0.42570 0.79120 0.22560 0.27100
H 	H 	0.43760 0.83060 0.28170 0.26500
H 	H 	0.44480 0.77760 0.29690 0.27400
H 	H 	0.33880 0.70280 0.19750 0.26900
H 	H 	0.35790 0.66260 0.22270 0.26200
H 	H 	0.33210 0.66370 0.25650 0.25900
H 	H 	0.43630 0.61010 0.31550 0.04100
C 	C 	0.44590 0.60390 0.43090 -0.06500
H 	H 	0.45080 0.60860 0.54710 0.05700
O 	O 	0.30530 0.91090 0.84430 -0.42800
O 	O 	0.33870 0.94880 0.84930 -0.40000
C 	C 	0.46320 0.56580 0.41650 0.36000
Ru	Ru	0.28242 0.93881 0.91474 1.04200
O 	O 	0.47390 0.55110 0.47930 -0.41100
O 	O 	0.46510 0.55470 0.34700 -0.49800
O 	O 	0.30310 0.91400 0.00870 -0.41700
O 	O 	0.25750 0.96050 0.98510 -0.37000
O 	O 	0.25930 0.96250 0.82380 -0.37200
O 	O 	0.33840 0.95190 0.02100 -0.39300
C 	C 	0.32280 0.92490 0.04140 0.39100
C 	C 	0.33180 0.89770 0.11420 -0.05400
C 	C 	0.31800 0.86140 0.13950 -0.05200
C 	C 	0.35390 0.90960 0.15560 -0.04500
C 	C 	0.22650 0.95790 0.09500 -0.00900
C 	C 	0.22850 0.95840 0.68320 -0.00000
C 	C 	0.32640 0.83820 0.20550 0.03600
H 	H 	0.30340 0.85300 0.10940 0.05300
H 	H 	0.36360 0.93410 0.13910 0.05900
C 	C 	0.36170 0.88580 0.22140 0.03100
C 	C 	0.21160 0.95850 0.15550 0.05700
H 	H 	0.23180 0.92950 0.07540 0.04600
C 	C 	0.21350 0.95850 0.61370 0.04900
H 	H 	0.23360 0.92980 0.70640 0.03700
H 	H 	0.31700 0.81330 0.22230 0.02200
H 	H 	0.37630 0.89370 0.25200 0.03500
H 	H 	0.20670 0.93010 0.17690 0.02400
H 	H 	0.20820 0.93020 0.59010 0.02100
O 	O 	0.21050 0.94850 0.44440 -0.40200
O 	O 	0.16600 0.05040 0.51840 -0.50000
C 	C 	0.21570 0.92720 0.38020 0.59000
C 	C 	0.14440 0.06070 0.50460 0.65400
O 	O 	0.20760 0.94990 0.31870 -0.44200
C 	C 	0.23300 0.89090 0.39510 -0.98000
O 	O 	0.13130 0.05160 0.44790 -0.50900
C 	C 	0.13420 0.09390 0.56240 -0.93700
O 	O 	0.16430 0.05070 0.23100 -0.49300
O 	O 	0.13100 0.05050 0.28570 -0.50500
H 	H 	0.24820 0.90140 0.37660 0.30300
H 	H 	0.23570 0.88430 0.45040 0.30700
H 	H 	0.22730 0.86280 0.36740 0.29100
H 	H 	0.11670 0.08850 0.56170 0.30600
H 	H 	0.14220 0.08790 0.61410 0.29400
H 	H 	0.13700 0.12610 0.54820 0.32200
C 	C 	0.14440 0.06630 0.24270 0.63700
C 	C 	0.13500 0.10840 0.19430 -0.86100
H 	H 	0.14920 0.12770 0.18690 0.26300
H 	H 	0.12690 0.09920 0.14400 0.26500
H 	H 	0.12360 0.12590 0.22250 0.26800
Ru	Ru	0.86211 0.31043 0.54234 1.09800
O 	O 	0.84870 0.24540 0.57680 -0.50800
O 	O 	0.89360 0.30050 0.60180 -0.50700
O 	O 	0.82800 0.32420 0.50260 -0.50800
O 	O 	0.87500 0.37580 0.51730 -0.48700
O 	O 	0.87020 0.28630 0.45110 -0.56900
N 	N 	0.85100 0.33890 0.64780 -0.15500
C 	C 	0.85880 0.20890 0.56920 0.73400
C 	C 	0.91220 0.28480 0.58440 0.58200
C 	C 	0.81370 0.31820 0.44650 0.64400
C 	C 	0.87350 0.39260 0.45270 0.66300
Ru	Ru	0.89095 0.23366 0.44528 1.08200
Ru	Ru	0.85929 0.31642 0.35080 1.07000
C 	C 	0.86570 0.37280 0.68050 0.01000
C 	C 	0.82860 0.32570 0.66800 0.00800
O 	O 	0.87400 0.19990 0.52850 -0.54500
C 	C 	0.84870 0.16970 0.61370 -1.00800
O 	O 	0.91660 0.26070 0.52580 -0.44500
C 	C 	0.93630 0.28450 0.63910 -0.80200
O 	O 	0.82180 0.31760 0.38320 -0.45000
C 	C 	0.78660 0.32840 0.43450 -0.88900
O 	O 	0.86680 0.38040 0.38910 -0.51600
C 	C 	0.88290 0.44250 0.45750 -0.87700
O 	O 	0.91140 0.25740 0.36590 -0.48500
O 	O 	0.86730 0.20190 0.36440 -0.48000
N 	N 	0.91280 0.17420 0.44230 -0.16900
O 	O 	0.89350 0.32120 0.32070 -0.46900
O 	O 	0.85120 0.25720 0.29330 -0.48300
N 	N 	0.84770 0.35020 0.24530 -0.16800
H 	H 	0.88080 0.37910 0.66190 0.03700
C 	C 	0.85790 0.39860 0.74230 -0.01200
C 	C 	0.82170 0.35240 0.72850 -0.01600
H 	H 	0.81920 0.30140 0.64290 0.03300
H 	H 	0.84890 0.17890 0.66770 0.31100
H 	H 	0.83190 0.16380 0.59210 0.31300
H 	H 	0.85830 0.14150 0.61020 0.33200
H 	H 	0.94990 0.27000 0.61650 0.26400
H 	H 	0.94000 0.31720 0.64980 0.24800
H 	H 	0.93360 0.26870 0.68710 0.25300
H 	H 	0.77700 0.30220 0.41230 0.27000
H 	H 	0.78150 0.33570 0.48520 0.27100
H 	H 	0.78380 0.35540 0.40070 0.27800
H 	H 	0.87360 0.46160 0.49030 0.27400
H 	H 	0.90000 0.44180 0.47920 0.27100
H 	H 	0.88180 0.45570 0.40560 0.27900
C 	C 	0.91120 0.29440 0.33260 0.59900
C 	C 	0.85470 0.21570 0.30610 0.59900
C 	C 	0.91670 0.15760 0.37020 0.01600
C 	C 	0.92490 0.15610 0.50890 0.02000
H 	H 	0.86740 0.42270 0.76710 0.04100
C 	C 	0.83600 0.38820 0.76680 -0.10600
H 	H 	0.80630 0.34660 0.74610 0.03700
C 	C 	0.93160 0.29870 0.27890 -0.84100
C 	C 	0.84530 0.18270 0.24000 -0.84000
H 	H 	0.90790 0.17000 0.32520 0.02300
C 	C 	0.93350 0.12200 0.36440 -0.05100
C 	C 	0.94180 0.12060 0.50210 -0.04000
H 	H 	0.92160 0.16760 0.55780 0.02800
C 	C 	0.82580 0.41680 0.82620 0.43500
H 	H 	0.92570 0.29120 0.22560 0.26700
H 	H 	0.93760 0.33060 0.28170 0.26000
H 	H 	0.94480 0.27760 0.29690 0.27000
H 	H 	0.83880 0.20280 0.19750 0.26700
H 	H 	0.85790 0.16260 0.22270 0.25900
H 	H 	0.83210 0.16370 0.25650 0.25600
H 	H 	0.93630 0.11010 0.31550 0.03800
C 	C 	0.94590 0.10390 0.43090 -0.06600
H 	H 	0.95080 0.10860 0.54710 0.05700
O 	O 	0.80530 0.41090 0.84430 -0.43400
O 	O 	0.83870 0.44880 0.84930 -0.42000
C 	C 	0.96320 0.06580 0.41650 0.35800
Ru	Ru	0.78242 0.43881 0.91474 1.03200
O 	O 	0.97390 0.05110 0.47930 -0.41400
O 	O 	0.96510 0.05470 0.34700 -0.50300
O 	O 	0.80310 0.41400 0.00870 -0.42200
O 	O 	0.75750 0.46050 0.98510 -0.40800
O 	O 	0.75930 0.46250 0.82380 -0.41200
O 	O 	0.83840 0.45190 0.02100 -0.41300
C 	C 	0.82280 0.42490 0.04140 0.39200
C 	C 	0.83180 0.39770 0.11420 -0.06000
C 	C 	0.81800 0.36140 0.13950 -0.05100
C 	C 	0.85390 0.40960 0.15560 -0.04400
C 	C 	0.72650 0.45790 0.09500 -0.05700
C 	C 	0.72850 0.45840 0.68320 -0.04800
C 	C 	0.82640 0.33820 0.20550 0.03300
H 	H 	0.80340 0.35300 0.10940 0.05200
H 	H 	0.86360 0.43410 0.13910 0.05100
C 	C 	0.86170 0.38580 0.22140 0.02600
C 	C 	0.71160 0.45850 0.15550 0.03300
H 	H 	0.73180 0.42950 0.07540 0.05600
C 	C 	0.71350 0.45850 0.61370 0.02600
H 	H 	0.73360 0.42980 0.70640 0.04700
H 	H 	0.81700 0.31330 0.22230 0.02200
H 	H 	0.87630 0.39370 0.25200 0.03300
H 	H 	0.70670 0.43010 0.17690 0.02800
H 	H 	0.70820 0.43020 0.59010 0.02400
O 	O 	0.71050 0.44850 0.44440 -0.42100
O 	O 	0.66600 0.55040 0.51840 -0.49800
C 	C 	0.71570 0.42720 0.38020 0.59300
C 	C 	0.64440 0.56070 0.50460 0.66000
O 	O 	0.70760 0.44990 0.31870 -0.46300
C 	C 	0.73300 0.39090 0.39510 -0.98300
O 	O 	0.63130 0.55160 0.44790 -0.50800
C 	C 	0.63420 0.59390 0.56240 -0.94300
O 	O 	0.66430 0.55070 0.23100 -0.49000
O 	O 	0.63100 0.55050 0.28570 -0.50200
H 	H 	0.74820 0.40140 0.37660 0.29900
H 	H 	0.73570 0.38430 0.45040 0.30600
H 	H 	0.72730 0.36280 0.36740 0.29100
H 	H 	0.61670 0.58850 0.56170 0.31100
H 	H 	0.64220 0.58790 0.61410 0.30000
H 	H 	0.63700 0.62610 0.54820 0.32300
C 	C 	0.64440 0.56630 0.24270 0.64000
C 	C 	0.63500 0.60840 0.19430 -0.86600
H 	H 	0.64920 0.62770 0.18690 0.26500
H 	H 	0.62690 0.59920 0.14400 0.27000
H 	H 	0.62360 0.62590 0.22250 0.27000
Ru	Ru	0.33753 0.00000 0.93470 0.99400
O 	O 	0.30057 0.00000 0.92030 -0.50600
C 	C 	0.25310 0.00000 0.00780 0.32600
C 	C 	0.25140 0.00000 0.79970 0.35000
C 	C 	0.23250 0.00000 0.06230 -0.08300
C 	C 	0.23620 0.00000 0.71840 -0.10000
N 	N 	0.20540 0.00000 0.18690 -0.18300
N 	N 	0.20610 0.00000 0.57940 -0.20200
Ru	Ru	0.18535 0.00000 0.28518 1.07200
Ru	Ru	0.18696 0.00000 0.47540 1.07500
O 	O 	0.17070 0.00000 0.38260 -0.59000
Ru	Ru	0.13415 0.00000 0.36743 1.04900
N 	N 	0.09510 0.00000 0.35550 -0.16600
C 	C 	0.08300 0.00000 0.28180 0.02200
C 	C 	0.08330 0.00000 0.42100 0.02900
H 	H 	0.09160 0.00000 0.23740 0.01900
C 	C 	0.05750 0.00000 0.27560 -0.04900
C 	C 	0.05770 0.00000 0.41370 -0.04600
H 	H 	0.09230 0.00000 0.47030 0.01200
H 	H 	0.04840 0.00000 0.22650 0.04900
C 	C 	0.04570 0.00000 0.34160 -0.06600
H 	H 	0.04910 0.00000 0.45790 0.04900
C 	C 	0.01790 0.00000 0.32780 0.38700
O 	O 	0.00740 0.00000 0.38510 -0.53500
O 	O 	0.01030 0.00000 0.26030 -0.46500
Ru	Ru	0.83753 0.50000 0.93470 1.01800
O 	O 	0.80057 0.50000 0.92030 -0.48500
C 	C 	0.75310 0.50000 0.00780 0.36700
C 	C 	0.75140 0.50000 0.79970 0.39200
C 	C 	0.73250 0.50000 0.06230 -0.04100
C 	C 	0.73620 0.50000 0.71840 -0.05800
N 	N 	0.70540 0.50000 0.18690 -0.16200
N 	N 	0.70610 0.50000 0.57940 -0.18200
Ru	Ru	0.68535 0.50000 0.28518 1.09400
Ru	Ru	0.68696 0.50000 0.47540 1.09500
O 	O 	0.67070 0.50000 0.38260 -0.57700
Ru	Ru	0.63415 0.50000 0.36743 1.06900
N 	N 	0.59510 0.50000 0.35550 -0.16100
C 	C 	0.58300 0.50000 0.28180 0.02900
C 	C 	0.58330 0.50000 0.42100 0.03700
H 	H 	0.59160 0.50000 0.23740 0.02500
C 	C 	0.55750 0.50000 0.27560 -0.04900
C 	C 	0.55770 0.50000 0.41370 -0.04500
H 	H 	0.59230 0.50000 0.47030 0.02000
H 	H 	0.54840 0.50000 0.22650 0.05500
C 	C 	0.54570 0.50000 0.34160 -0.05700
H 	H 	0.54910 0.50000 0.45790 0.05800
C 	C 	0.51790 0.50000 0.32780 0.38600
O 	O 	0.50740 0.50000 0.38510 -0.52200
O 	O 	0.51030 0.50000 0.26030 -0.45600
Ru	Ru	0.66247 0.00000 0.06530 0.99400
O 	O 	0.69943 0.00000 0.07970 -0.50600
C 	C 	0.74690 0.00000 0.99220 0.32600
C 	C 	0.74860 0.00000 0.20030 0.35000
C 	C 	0.76750 0.00000 0.93770 -0.08300
C 	C 	0.76380 0.00000 0.28160 -0.10000
N 	N 	0.79460 0.00000 0.81310 -0.18300
N 	N 	0.79390 0.00000 0.42060 -0.20200
Ru	Ru	0.81465 0.00000 0.71482 1.07200
Ru	Ru	0.81304 0.00000 0.52460 1.07500
O 	O 	0.82930 0.00000 0.61740 -0.59000
Ru	Ru	0.86585 0.00000 0.63257 1.04900
N 	N 	0.90490 0.00000 0.64450 -0.16600
C 	C 	0.91700 0.00000 0.71820 0.02200
C 	C 	0.91670 0.00000 0.57900 0.02900
H 	H 	0.90840 0.00000 0.76260 0.01900
C 	C 	0.94250 0.00000 0.72440 -0.04900
C 	C 	0.94230 0.00000 0.58630 -0.04600
H 	H 	0.90770 0.00000 0.52970 0.01200
H 	H 	0.95160 0.00000 0.77350 0.04900
C 	C 	0.95430 0.00000 0.65840 -0.06600
H 	H 	0.95090 0.00000 0.54210 0.04900
C 	C 	0.98210 0.00000 0.67220 0.38700
O 	O 	0.99260 0.00000 0.61490 -0.53400
O 	O 	0.98970 0.00000 0.73970 -0.46500
Ru	Ru	0.16247 0.50000 0.06530 1.01800
O 	O 	0.19943 0.50000 0.07970 -0.48500
C 	C 	0.24690 0.50000 0.99220 0.36700
C 	C 	0.24860 0.50000 0.20030 0.39200
C 	C 	0.26750 0.50000 0.93770 -0.04100
C 	C 	0.26380 0.50000 0.28160 -0.05800
N 	N 	0.29460 0.50000 0.81310 -0.16200
N 	N 	0.29390 0.50000 0.42060 -0.18200
Ru	Ru	0.31465 0.50000 0.71482 1.09400
Ru	Ru	0.31304 0.50000 0.52460 1.09500
O 	O 	0.32930 0.50000 0.61740 -0.57700
Ru	Ru	0.36585 0.50000 0.63257 1.06900
N 	N 	0.40490 0.50000 0.64450 -0.16100
C 	C 	0.41700 0.50000 0.71820 0.02900
C 	C 	0.41670 0.50000 0.57900 0.03700
H 	H 	0.40840 0.50000 0.76260 0.02500
C 	C 	0.44250 0.50000 0.72440 -0.04900
C 	C 	0.44230 0.50000 0.58630 -0.04500
H 	H 	0.40770 0.50000 0.52970 0.02000
H 	H 	0.45160 0.50000 0.77350 0.05500
C 	C 	0.45430 0.50000 0.65840 -0.05700
H 	H 	0.45090 0.50000 0.54210 0.05800
C 	C 	0.48210 0.50000 0.67220 0.38600
O 	O 	0.49260 0.50000 0.61490 -0.52200
O 	O 	0.48970 0.50000 0.73970 -0.45600
Co	Co	0.50000 0.50000 0.50000 1.21100
Co	Co	0.00000 0.00000 0.50000 1.19900
Co	Co	0.47485 0.50000 0.29890 1.13800
Co	Co	0.97485 0.00000 0.29890 1.12600
Co	Co	0.52515 0.50000 0.70110 1.13800
Co	Co	0.02515 0.00000 0.70110 1.12600
