data_crystal

_cell_length_a 13.59530
_cell_length_b 17.01310
_cell_length_c 51.88700
_cell_angle_alpha 90.00000
_cell_angle_beta  90.00000
_cell_angle_gamma 90.00000

_symmetry_space_group_name_	'P 1'
_symmetry_space_group_name_H-M	'P 1'

loop_
_symmetry_equiv_pos_as_xyz
  x,y,z

loop_
_atom_site_label
_atom_site_type_symbol
_atom_site_fract_x
_atom_site_fract_y
_atom_site_fract_z
_atom_site_charge
Cd	Cd	0.67863 0.48028 0.17145 1.22400
Cd	Cd	0.90476 0.97597 0.16677 1.22200
Cd	Cd	0.63976 0.99715 0.99128 1.22200
Cd	Cd	0.32137 0.01972 0.67145 1.22400
Cd	Cd	0.09524 0.52403 0.66677 1.22300
Cd	Cd	0.36024 0.50285 0.49128 1.22200
Cd	Cd	0.17863 0.51972 0.32855 1.22400
Cd	Cd	0.40476 0.02403 0.33323 1.22400
Cd	Cd	0.13976 0.00285 0.50872 1.22200
Cd	Cd	0.82137 0.98028 0.82855 1.22400
Cd	Cd	0.59524 0.47597 0.83323 1.22400
Cd	Cd	0.86024 0.49715 0.00872 1.22200
Cd	Cd	0.32137 0.51972 0.82855 1.22400
Cd	Cd	0.09524 0.02403 0.83323 1.22200
Cd	Cd	0.36024 0.00285 0.00872 1.22200
Cd	Cd	0.67863 0.98028 0.32855 1.22400
Cd	Cd	0.90476 0.47597 0.33323 1.22300
Cd	Cd	0.63976 0.49715 0.50872 1.22200
Cd	Cd	0.82137 0.48028 0.67145 1.22300
Cd	Cd	0.59524 0.97597 0.66677 1.22300
Cd	Cd	0.86024 0.99715 0.49128 1.22100
Cd	Cd	0.17863 0.01972 0.17145 1.22300
Cd	Cd	0.40476 0.52403 0.16677 1.22300
Cd	Cd	0.13976 0.50285 0.99128 1.22100
H 	H 	0.91390 0.40090 0.14320 0.14500
H 	H 	0.66640 0.06440 0.13010 0.14900
H 	H 	0.87570 0.10620 0.21400 0.00500
H 	H 	0.88560 0.24080 0.22120 0.06500
H 	H 	0.90500 0.32560 0.18630 0.03800
H 	H 	0.90930 0.52390 0.12330 0.03100
H 	H 	0.89630 0.63970 0.09880 0.06500
H 	H 	0.89030 0.63140 0.05440 0.00800
H 	H 	0.91870 0.40190 0.05670 0.01900
H 	H 	0.92570 0.15990 0.06830 0.04900
H 	H 	0.92270 0.02290 0.06640 0.06400
H 	H 	0.91540 0.95080 0.10470 0.00300
H 	H 	0.64190 0.33250 0.21250 0.01200
H 	H 	0.63850 0.19550 0.21390 0.06400
H 	H 	0.65580 0.12380 0.17600 0.04100
H 	H 	0.66480 0.94970 0.10610 0.03600
H 	H 	0.65730 0.84260 0.07800 0.06500
H 	H 	0.65600 0.86390 0.03380 0.00700
H 	H 	0.67350 0.09260 0.04400 0.02000
H 	H 	0.68500 0.33290 0.06580 0.05300
H 	H 	0.67670 0.46920 0.06950 0.06400
H 	H 	0.66870 0.52590 0.11030 0.00500
H 	H 	0.51960 0.92980 0.15360 0.03500
H 	H 	0.39310 0.83750 0.15640 0.07700
H 	H 	0.43110 0.70420 0.15810 0.02000
H 	H 	0.72150 0.75660 0.15960 0.03900
H 	H 	0.37270 0.53500 0.25490 0.04300
H 	H 	0.56020 0.51010 0.31440 0.04500
H 	H 	0.69190 0.50250 0.28580 0.05600
H 	H 	0.66380 0.50550 0.24140 0.04000
H 	H 	0.01790 0.94430 0.98210 0.04000
H 	H 	0.14590 0.85430 0.98490 0.07100
H 	H 	0.11330 0.72040 0.98990 0.03600
H 	H 	0.82150 0.76720 0.98890 0.04500
H 	H 	0.08610 0.09910 0.64320 0.14400
H 	H 	0.33360 0.43560 0.63010 0.14900
H 	H 	0.12430 0.39380 0.71400 0.00400
H 	H 	0.11440 0.25920 0.72120 0.06500
H 	H 	0.09500 0.17440 0.68630 0.03800
H 	H 	0.09070 0.97610 0.62330 0.03100
H 	H 	0.10370 0.86030 0.59880 0.06600
H 	H 	0.10970 0.86860 0.55440 0.00800
H 	H 	0.08130 0.09810 0.55670 0.01800
H 	H 	0.07430 0.34010 0.56830 0.04900
H 	H 	0.07730 0.47710 0.56640 0.06200
H 	H 	0.08460 0.54920 0.60470 0.00700
H 	H 	0.35810 0.16750 0.71250 0.01200
H 	H 	0.36150 0.30450 0.71390 0.06400
H 	H 	0.34420 0.37620 0.67600 0.04100
H 	H 	0.33520 0.55030 0.60610 0.03600
H 	H 	0.34270 0.65740 0.57800 0.06500
H 	H 	0.34400 0.63610 0.53380 0.00700
H 	H 	0.32650 0.40740 0.54400 0.02000
H 	H 	0.31500 0.16710 0.56580 0.05300
H 	H 	0.32330 0.03080 0.56950 0.06400
H 	H 	0.33130 0.97410 0.61030 0.00600
H 	H 	0.48040 0.57020 0.65360 0.03500
H 	H 	0.60690 0.66250 0.65640 0.07700
H 	H 	0.56890 0.79580 0.65810 0.02000
H 	H 	0.27850 0.74340 0.65960 0.03900
H 	H 	0.62730 0.96500 0.75490 0.04200
H 	H 	0.43980 0.98990 0.81440 0.04600
H 	H 	0.30810 0.99750 0.78580 0.05600
H 	H 	0.33620 0.99450 0.74140 0.04000
H 	H 	0.98210 0.55570 0.48210 0.04200
H 	H 	0.85410 0.64570 0.48490 0.06800
H 	H 	0.88670 0.77960 0.48990 0.03900
H 	H 	0.17850 0.73280 0.48890 0.04600
H 	H 	0.41390 0.59910 0.35680 0.14600
H 	H 	0.16640 0.93560 0.36990 0.15000
H 	H 	0.37570 0.89380 0.28600 0.00500
H 	H 	0.38560 0.75920 0.27880 0.06600
H 	H 	0.40500 0.67440 0.31370 0.03900
H 	H 	0.40930 0.47610 0.37670 0.03200
H 	H 	0.39630 0.36030 0.40120 0.06500
H 	H 	0.39030 0.36860 0.44560 0.00800
H 	H 	0.41870 0.59810 0.44330 0.01900
H 	H 	0.42570 0.84010 0.43170 0.04900
H 	H 	0.42270 0.97710 0.43360 0.06300
H 	H 	0.41540 0.04920 0.39530 0.00700
H 	H 	0.14190 0.66750 0.28750 0.01300
H 	H 	0.13850 0.80450 0.28610 0.06500
H 	H 	0.15580 0.87620 0.32400 0.04200
H 	H 	0.16480 0.05030 0.39390 0.03700
H 	H 	0.15730 0.15740 0.42200 0.06500
H 	H 	0.15600 0.13610 0.46620 0.00700
H 	H 	0.17350 0.90740 0.45600 0.02000
H 	H 	0.18500 0.66710 0.43420 0.05300
H 	H 	0.17670 0.53080 0.43050 0.06500
H 	H 	0.16870 0.47410 0.38970 0.00500
H 	H 	0.01960 0.07020 0.34640 0.03500
H 	H 	0.89310 0.16250 0.34360 0.07800
H 	H 	0.93110 0.29580 0.34190 0.02100
H 	H 	0.22150 0.24340 0.34040 0.04000
H 	H 	0.87270 0.46500 0.24510 0.04800
H 	H 	0.06020 0.48990 0.18560 0.04500
H 	H 	0.19190 0.49750 0.21420 0.05500
H 	H 	0.16380 0.49450 0.25860 0.04400
H 	H 	0.51790 0.05570 0.51790 0.04100
H 	H 	0.64590 0.14570 0.51510 0.06900
H 	H 	0.61330 0.27960 0.51010 0.03700
H 	H 	0.32150 0.23280 0.51110 0.04500
H 	H 	0.58610 0.90090 0.85680 0.14600
H 	H 	0.83360 0.56440 0.86990 0.14900
H 	H 	0.62430 0.60620 0.78600 0.00500
H 	H 	0.61440 0.74080 0.77880 0.06600
H 	H 	0.59500 0.82560 0.81370 0.03900
H 	H 	0.59070 0.02390 0.87670 0.03200
H 	H 	0.60370 0.13970 0.90120 0.06600
H 	H 	0.60970 0.13140 0.94560 0.00800
H 	H 	0.58130 0.90190 0.94330 0.01900
H 	H 	0.57430 0.65990 0.93170 0.05000
H 	H 	0.57730 0.52290 0.93360 0.06300
H 	H 	0.58460 0.45080 0.89530 0.00800
H 	H 	0.85810 0.83250 0.78750 0.01200
H 	H 	0.86150 0.69550 0.78610 0.06500
H 	H 	0.84420 0.62380 0.82400 0.04100
H 	H 	0.83520 0.44970 0.89390 0.03600
H 	H 	0.84270 0.34260 0.92200 0.06600
H 	H 	0.84400 0.36390 0.96620 0.00700
H 	H 	0.82650 0.59260 0.95600 0.02000
H 	H 	0.81500 0.83290 0.93420 0.05300
H 	H 	0.82330 0.96920 0.93050 0.06400
H 	H 	0.83130 0.02590 0.88970 0.00800
H 	H 	0.98040 0.42980 0.84640 0.03400
H 	H 	0.10690 0.33750 0.84360 0.07800
H 	H 	0.06890 0.20420 0.84190 0.02200
H 	H 	0.77850 0.25660 0.84040 0.04000
H 	H 	0.12730 0.03500 0.74510 0.05000
H 	H 	0.93980 0.01010 0.68560 0.04500
H 	H 	0.80810 0.00250 0.71420 0.05500
H 	H 	0.83620 0.00550 0.75860 0.04600
H 	H 	0.48210 0.44430 0.01790 0.04000
H 	H 	0.35410 0.35430 0.01510 0.06900
H 	H 	0.38670 0.22040 0.01010 0.03700
H 	H 	0.67850 0.26720 0.01110 0.04600
H 	H 	0.08610 0.59910 0.85680 0.14500
H 	H 	0.33360 0.93560 0.86990 0.14900
H 	H 	0.12430 0.89380 0.78600 0.00500
H 	H 	0.11440 0.75920 0.77880 0.06500
H 	H 	0.09500 0.67440 0.81370 0.03800
H 	H 	0.09070 0.47610 0.87670 0.03100
H 	H 	0.10370 0.36030 0.90120 0.06500
H 	H 	0.10970 0.36860 0.94560 0.00800
H 	H 	0.08130 0.59810 0.94330 0.01900
H 	H 	0.07430 0.84010 0.93170 0.04900
H 	H 	0.07730 0.97710 0.93360 0.06400
H 	H 	0.08460 0.04920 0.89530 0.00300
H 	H 	0.35810 0.66750 0.78750 0.01200
H 	H 	0.36150 0.80450 0.78610 0.06400
H 	H 	0.34420 0.87620 0.82400 0.04100
H 	H 	0.33520 0.05030 0.89390 0.03600
H 	H 	0.34270 0.15740 0.92200 0.06500
H 	H 	0.34400 0.13610 0.96620 0.00700
H 	H 	0.32650 0.90740 0.95600 0.02000
H 	H 	0.31500 0.66710 0.93420 0.05300
H 	H 	0.32330 0.53080 0.93050 0.06400
H 	H 	0.33130 0.47410 0.88970 0.00500
H 	H 	0.48040 0.07020 0.84640 0.03500
H 	H 	0.60690 0.16250 0.84360 0.07700
H 	H 	0.56890 0.29580 0.84190 0.02000
H 	H 	0.27850 0.24340 0.84040 0.03900
H 	H 	0.62730 0.46500 0.74510 0.04300
H 	H 	0.43980 0.48990 0.68560 0.04500
H 	H 	0.30810 0.49750 0.71420 0.05600
H 	H 	0.33620 0.49450 0.75860 0.04000
H 	H 	0.98210 0.05570 0.01790 0.04000
H 	H 	0.85410 0.14570 0.01510 0.07100
H 	H 	0.88670 0.27960 0.01010 0.03600
H 	H 	0.17850 0.23280 0.01110 0.04500
H 	H 	0.91390 0.90090 0.35680 0.14400
H 	H 	0.66640 0.56440 0.36990 0.14900
H 	H 	0.87570 0.60620 0.28600 0.00400
H 	H 	0.88560 0.74080 0.27880 0.06500
H 	H 	0.90500 0.82560 0.31370 0.03800
H 	H 	0.90930 0.02390 0.37670 0.03100
H 	H 	0.89630 0.13970 0.40120 0.06600
H 	H 	0.89030 0.13140 0.44560 0.00800
H 	H 	0.91870 0.90190 0.44330 0.01800
H 	H 	0.92570 0.65990 0.43170 0.04900
H 	H 	0.92270 0.52290 0.43360 0.06200
H 	H 	0.91540 0.45080 0.39530 0.00700
H 	H 	0.64190 0.83250 0.28750 0.01200
H 	H 	0.63850 0.69550 0.28610 0.06400
H 	H 	0.65580 0.62380 0.32400 0.04100
H 	H 	0.66480 0.44970 0.39390 0.03600
H 	H 	0.65730 0.34260 0.42200 0.06500
H 	H 	0.65600 0.36390 0.46620 0.00700
H 	H 	0.67350 0.59260 0.45600 0.02000
H 	H 	0.68500 0.83290 0.43420 0.05300
H 	H 	0.67670 0.96920 0.43050 0.06400
H 	H 	0.66870 0.02590 0.38970 0.00600
H 	H 	0.51960 0.42980 0.34640 0.03500
H 	H 	0.39310 0.33750 0.34360 0.07700
H 	H 	0.43110 0.20420 0.34190 0.02000
H 	H 	0.72150 0.25660 0.34040 0.03900
H 	H 	0.37270 0.03500 0.24510 0.04200
H 	H 	0.56020 0.01010 0.18560 0.04600
H 	H 	0.69190 0.00250 0.21420 0.05600
H 	H 	0.66380 0.00550 0.25860 0.04000
H 	H 	0.01790 0.44430 0.51790 0.04200
H 	H 	0.14590 0.35430 0.51510 0.06800
H 	H 	0.11330 0.22040 0.51010 0.03900
H 	H 	0.82150 0.26720 0.51110 0.04600
H 	H 	0.58610 0.40090 0.64320 0.14600
H 	H 	0.83360 0.06440 0.63010 0.15000
H 	H 	0.62430 0.10620 0.71400 0.00500
H 	H 	0.61440 0.24080 0.72120 0.06600
H 	H 	0.59500 0.32560 0.68630 0.03900
H 	H 	0.59070 0.52390 0.62330 0.03200
H 	H 	0.60370 0.63970 0.59880 0.06500
H 	H 	0.60970 0.63140 0.55440 0.00800
H 	H 	0.58130 0.40190 0.55670 0.01900
H 	H 	0.57430 0.15990 0.56830 0.04900
H 	H 	0.57730 0.02290 0.56640 0.06300
H 	H 	0.58460 0.95080 0.60470 0.00700
H 	H 	0.85810 0.33250 0.71250 0.01300
H 	H 	0.86150 0.19550 0.71390 0.06500
H 	H 	0.84420 0.12380 0.67600 0.04200
H 	H 	0.83520 0.94970 0.60610 0.03700
H 	H 	0.84270 0.84260 0.57800 0.06500
H 	H 	0.84400 0.86390 0.53380 0.00700
H 	H 	0.82650 0.09260 0.54400 0.02000
H 	H 	0.81500 0.33290 0.56580 0.05300
H 	H 	0.82330 0.46920 0.56950 0.06500
H 	H 	0.83130 0.52590 0.61030 0.00500
H 	H 	0.98040 0.92980 0.65360 0.03500
H 	H 	0.10690 0.83750 0.65640 0.07800
H 	H 	0.06890 0.70420 0.65810 0.02100
H 	H 	0.77850 0.75660 0.65960 0.04000
H 	H 	0.12730 0.53500 0.75490 0.04800
H 	H 	0.93980 0.51010 0.81440 0.04500
H 	H 	0.80810 0.50250 0.78580 0.05500
H 	H 	0.83620 0.50550 0.74140 0.04400
H 	H 	0.48210 0.94430 0.48210 0.04100
H 	H 	0.35410 0.85430 0.48490 0.06900
H 	H 	0.38670 0.72040 0.48990 0.03700
H 	H 	0.67850 0.76720 0.48890 0.04500
H 	H 	0.41390 0.09910 0.14320 0.14600
H 	H 	0.16640 0.43560 0.13010 0.14900
H 	H 	0.37570 0.39380 0.21400 0.00500
H 	H 	0.38560 0.25920 0.22120 0.06600
H 	H 	0.40500 0.17440 0.18630 0.03900
H 	H 	0.40930 0.97610 0.12330 0.03200
H 	H 	0.39630 0.86030 0.09880 0.06600
H 	H 	0.39030 0.86860 0.05440 0.00800
H 	H 	0.41870 0.09810 0.05670 0.01900
H 	H 	0.42570 0.34010 0.06830 0.05000
H 	H 	0.42270 0.47710 0.06640 0.06300
H 	H 	0.41540 0.54920 0.10470 0.00800
H 	H 	0.14190 0.16750 0.21250 0.01200
H 	H 	0.13850 0.30450 0.21390 0.06500
H 	H 	0.15580 0.37620 0.17600 0.04100
H 	H 	0.16480 0.55030 0.10610 0.03600
H 	H 	0.15730 0.65740 0.07800 0.06600
H 	H 	0.15600 0.63610 0.03380 0.00700
H 	H 	0.17350 0.40740 0.04400 0.02000
H 	H 	0.18500 0.16710 0.06580 0.05300
H 	H 	0.17670 0.03080 0.06950 0.06400
H 	H 	0.16870 0.97410 0.11030 0.00800
H 	H 	0.01960 0.57020 0.15360 0.03400
H 	H 	0.89310 0.66250 0.15640 0.07800
H 	H 	0.93110 0.79580 0.15810 0.02200
H 	H 	0.22150 0.74340 0.15960 0.04000
H 	H 	0.87270 0.96500 0.25490 0.05000
H 	H 	0.06020 0.98990 0.31440 0.04500
H 	H 	0.19190 0.99750 0.28580 0.05500
H 	H 	0.16380 0.99450 0.24140 0.04600
H 	H 	0.51790 0.55570 0.98210 0.04000
H 	H 	0.64590 0.64570 0.98490 0.06900
H 	H 	0.61330 0.77960 0.98990 0.03700
H 	H 	0.32150 0.73280 0.98890 0.04600
C 	C 	0.88470 0.14030 0.19973 0.05600
C 	C 	0.88970 0.22070 0.20418 -0.09100
C 	C 	0.90070 0.27050 0.18361 -0.00500
C 	C 	0.90570 0.23940 0.15853 -0.03100
C 	C 	0.91440 0.28390 0.13531 0.05900
C 	C 	0.91970 0.37400 0.10515 0.14100
C 	C 	0.91570 0.45040 0.09231 -0.05700
C 	C 	0.90840 0.52180 0.10503 0.00400
C 	C 	0.89990 0.58990 0.09061 -0.09900
C 	C 	0.89660 0.58440 0.06416 0.05500
C 	C 	0.91270 0.45070 0.06546 0.03600
C 	C 	0.91910 0.25030 0.11122 0.03700
C 	C 	0.91700 0.16700 0.10779 -0.01200
C 	C 	0.92170 0.12970 0.08368 -0.01100
C 	C 	0.92030 0.04920 0.08251 -0.08600
C 	C 	0.91530 0.00660 0.10546 0.06000
C 	C 	0.91030 0.12020 0.13007 0.02400
C 	C 	0.90330 0.15680 0.15570 0.02700
C 	C 	0.64750 0.30380 0.19687 0.05600
C 	C 	0.64590 0.22180 0.19785 -0.08700
C 	C 	0.65500 0.17970 0.17555 -0.00500
C 	C 	0.66340 0.21970 0.15198 -0.02900
C 	C 	0.66960 0.18360 0.12713 0.06300
C 	C 	0.67300 0.10540 0.09350 0.14200
C 	C 	0.67000 0.03340 0.07779 -0.05500
C 	C 	0.66490 0.95770 0.08802 0.00600
C 	C 	0.66000 0.89470 0.07140 -0.09300
C 	C 	0.65900 0.90770 0.04515 0.05200
C 	C 	0.66900 0.04130 0.05118 0.03800
C 	C 	0.67450 0.22620 0.10438 0.03900
C 	C 	0.67510 0.31020 0.10462 -0.01100
C 	C 	0.67950 0.35680 0.08227 -0.01400
C 	C 	0.67590 0.43690 0.08447 -0.08100
C 	C 	0.67120 0.47030 0.10894 0.05100
C 	C 	0.67010 0.34860 0.12869 0.02800
C 	C 	0.66350 0.30270 0.15241 0.03200
C 	C 	0.63230 0.85180 0.15632 -0.11000
C 	C 	0.53490 0.87550 0.15524 0.03500
C 	C 	0.45980 0.82090 0.15649 -0.10400
C 	C 	0.48260 0.74200 0.15788 0.04500
C 	C 	0.58020 0.71690 0.15889 -0.13000
C 	C 	0.65480 0.77280 0.15844 0.05600
C 	C 	0.71430 0.91030 0.15588 0.31600
C 	C 	0.60660 0.63190 0.15977 0.35900
C 	C 	0.51550 0.52190 0.24411 -0.11200
C 	C 	0.43760 0.52730 0.26122 0.04000
C 	C 	0.45370 0.52150 0.28744 -0.09400
C 	C 	0.54840 0.51280 0.29638 0.01500
C 	C 	0.62680 0.50790 0.27942 -0.08000
C 	C 	0.61050 0.51090 0.25315 0.02300
C 	C 	0.49500 0.52420 0.21575 0.36300
C 	C 	0.36640 0.52300 0.30560 0.31700
C 	C 	0.90650 0.86490 0.98507 -0.09700
C 	C 	0.00370 0.89000 0.98402 0.02700
C 	C 	0.07970 0.83650 0.98580 -0.08900
C 	C 	0.06050 0.75690 0.98892 0.03300
C 	C 	0.96410 0.73060 0.99063 -0.11700
C 	C 	0.88770 0.78500 0.98831 0.04200
C 	C 	0.82080 0.92160 0.98363 0.30900
C 	C 	0.94030 0.64660 0.99607 0.35800
C 	C 	0.11530 0.35970 0.69973 0.05600
C 	C 	0.11030 0.27930 0.70418 -0.09200
C 	C 	0.09930 0.22950 0.68361 -0.00500
C 	C 	0.09430 0.26060 0.65853 -0.03100
C 	C 	0.08560 0.21610 0.63531 0.05900
C 	C 	0.08030 0.12600 0.60515 0.14100
C 	C 	0.08430 0.04960 0.59231 -0.06000
C 	C 	0.09160 0.97820 0.60503 0.00900
C 	C 	0.10010 0.91010 0.59061 -0.10100
C 	C 	0.10340 0.91560 0.56416 0.05700
C 	C 	0.08730 0.04930 0.56546 0.03500
C 	C 	0.08090 0.24970 0.61122 0.03700
C 	C 	0.08300 0.33300 0.60779 -0.01100
C 	C 	0.07830 0.37030 0.58368 -0.01300
C 	C 	0.07970 0.45080 0.58251 -0.08200
C 	C 	0.08470 0.49340 0.60546 0.05300
C 	C 	0.08970 0.37980 0.63007 0.02300
C 	C 	0.09670 0.34320 0.65570 0.02700
C 	C 	0.35250 0.19620 0.69687 0.05600
C 	C 	0.35410 0.27820 0.69785 -0.08700
C 	C 	0.34500 0.32030 0.67555 -0.00500
C 	C 	0.33660 0.28030 0.65198 -0.02900
C 	C 	0.33040 0.31640 0.62713 0.06300
C 	C 	0.32700 0.39460 0.59350 0.14200
C 	C 	0.33000 0.46660 0.57779 -0.05700
C 	C 	0.33510 0.54230 0.58802 0.00700
C 	C 	0.34000 0.60530 0.57140 -0.09400
C 	C 	0.34100 0.59230 0.54515 0.05200
C 	C 	0.33100 0.45870 0.55118 0.03700
C 	C 	0.32550 0.27380 0.60438 0.03900
C 	C 	0.32490 0.18980 0.60462 -0.01100
C 	C 	0.32050 0.14320 0.58227 -0.01400
C 	C 	0.32410 0.06310 0.58447 -0.08000
C 	C 	0.32880 0.02970 0.60894 0.04900
C 	C 	0.32990 0.15140 0.62869 0.02800
C 	C 	0.33650 0.19730 0.65241 0.03200
C 	C 	0.36770 0.64820 0.65632 -0.11000
C 	C 	0.46510 0.62450 0.65524 0.03500
C 	C 	0.54020 0.67910 0.65649 -0.10400
C 	C 	0.51740 0.75800 0.65788 0.04500
C 	C 	0.41980 0.78310 0.65889 -0.13000
C 	C 	0.34520 0.72720 0.65844 0.05600
C 	C 	0.28570 0.58970 0.65588 0.31600
C 	C 	0.39340 0.86810 0.65977 0.35900
C 	C 	0.48450 0.97810 0.74411 -0.11200
C 	C 	0.56240 0.97270 0.76122 0.04100
C 	C 	0.54630 0.97850 0.78744 -0.09400
C 	C 	0.45160 0.98720 0.79638 0.01500
C 	C 	0.37320 0.99210 0.77942 -0.08000
C 	C 	0.38950 0.98910 0.75315 0.02300
C 	C 	0.50500 0.97580 0.71575 0.36300
C 	C 	0.63360 0.97700 0.80560 0.31800
C 	C 	0.09350 0.63510 0.48507 -0.08900
C 	C 	0.99630 0.61000 0.48402 0.01700
C 	C 	0.92030 0.66350 0.48580 -0.08200
C 	C 	0.93950 0.74310 0.48892 0.02400
C 	C 	0.03590 0.76940 0.49063 -0.11000
C 	C 	0.11230 0.71500 0.48831 0.03700
C 	C 	0.17920 0.57840 0.48363 0.30700
C 	C 	0.05970 0.85340 0.49607 0.35900
C 	C 	0.38470 0.85970 0.30027 0.05700
C 	C 	0.38970 0.77930 0.29582 -0.09100
C 	C 	0.40070 0.72950 0.31639 -0.00400
C 	C 	0.40570 0.76060 0.34147 -0.03100
C 	C 	0.41440 0.71610 0.36469 0.06000
C 	C 	0.41970 0.62600 0.39485 0.14200
C 	C 	0.41570 0.54960 0.40769 -0.05600
C 	C 	0.40840 0.47820 0.39497 0.00500
C 	C 	0.39990 0.41010 0.40939 -0.09800
C 	C 	0.39660 0.41560 0.43584 0.05500
C 	C 	0.41270 0.54930 0.43454 0.03700
C 	C 	0.41910 0.74970 0.38878 0.03700
C 	C 	0.41700 0.83300 0.39221 -0.01000
C 	C 	0.42170 0.87030 0.41632 -0.01200
C 	C 	0.42030 0.95080 0.41749 -0.08300
C 	C 	0.41530 0.99340 0.39454 0.05600
C 	C 	0.41030 0.87980 0.36993 0.02400
C 	C 	0.40330 0.84320 0.34430 0.02800
C 	C 	0.14750 0.69620 0.30313 0.05700
C 	C 	0.14590 0.77820 0.30215 -0.08700
C 	C 	0.15500 0.82030 0.32445 -0.00400
C 	C 	0.16340 0.78030 0.34802 -0.02900
C 	C 	0.16960 0.81640 0.37287 0.06400
C 	C 	0.17300 0.89460 0.40650 0.14300
C 	C 	0.17000 0.96660 0.42221 -0.05400
C 	C 	0.16490 0.04230 0.41198 0.00500
C 	C 	0.16000 0.10530 0.42860 -0.09200
C 	C 	0.15900 0.09230 0.45485 0.05100
C 	C 	0.16900 0.95870 0.44882 0.03900
C 	C 	0.17450 0.77380 0.39562 0.04000
C 	C 	0.17510 0.68980 0.39538 -0.01100
C 	C 	0.17950 0.64320 0.41773 -0.01300
C 	C 	0.17590 0.56310 0.41553 -0.08000
C 	C 	0.17120 0.52970 0.39106 0.05200
C 	C 	0.17010 0.65140 0.37131 0.02900
C 	C 	0.16350 0.69730 0.34759 0.03300
C 	C 	0.13230 0.14820 0.34368 -0.11000
C 	C 	0.03490 0.12450 0.34476 0.04100
C 	C 	0.95980 0.17910 0.34351 -0.10900
C 	C 	0.98260 0.25800 0.34212 0.03800
C 	C 	0.08020 0.28310 0.34111 -0.12300
C 	C 	0.15480 0.22720 0.34156 0.05400
C 	C 	0.21430 0.08970 0.34412 0.31600
C 	C 	0.10660 0.36810 0.34023 0.35700
C 	C 	0.01550 0.47810 0.25589 -0.08700
C 	C 	0.93760 0.47270 0.23878 0.02200
C 	C 	0.95370 0.47850 0.21256 -0.09600
C 	C 	0.04840 0.48720 0.20362 0.02100
C 	C 	0.12680 0.49210 0.22058 -0.07500
C 	C 	0.11050 0.48910 0.24685 0.01200
C 	C 	0.99500 0.47580 0.28425 0.33900
C 	C 	0.86640 0.47700 0.19440 0.31700
C 	C 	0.40650 0.13510 0.51493 -0.09300
C 	C 	0.50370 0.11000 0.51598 0.02300
C 	C 	0.57970 0.16350 0.51420 -0.08600
C 	C 	0.56050 0.24310 0.51108 0.03000
C 	C 	0.46410 0.26940 0.50937 -0.11400
C 	C 	0.38770 0.21500 0.51169 0.04000
C 	C 	0.32080 0.07840 0.51637 0.30800
C 	C 	0.44030 0.35340 0.50393 0.35800
C 	C 	0.61530 0.64030 0.80027 0.05700
C 	C 	0.61030 0.72070 0.79582 -0.09100
C 	C 	0.59930 0.77050 0.81639 -0.00400
C 	C 	0.59430 0.73940 0.84147 -0.03100
C 	C 	0.58560 0.78390 0.86469 0.06000
C 	C 	0.58030 0.87400 0.89485 0.14200
C 	C 	0.58430 0.95040 0.90769 -0.05700
C 	C 	0.59160 0.02180 0.89497 0.00600
C 	C 	0.60010 0.08990 0.90939 -0.09900
C 	C 	0.60340 0.08440 0.93584 0.05600
C 	C 	0.58730 0.95070 0.93454 0.03700
C 	C 	0.58090 0.75030 0.88878 0.03700
C 	C 	0.58300 0.66700 0.89221 -0.01000
C 	C 	0.57830 0.62970 0.91632 -0.01300
C 	C 	0.57970 0.54920 0.91749 -0.08200
C 	C 	0.58470 0.50660 0.89454 0.05400
C 	C 	0.58970 0.62020 0.86993 0.02300
C 	C 	0.59670 0.65680 0.84430 0.02800
C 	C 	0.85250 0.80380 0.80313 0.05700
C 	C 	0.85410 0.72180 0.80215 -0.08700
C 	C 	0.84500 0.67970 0.82445 -0.00400
C 	C 	0.83660 0.71970 0.84802 -0.02900
C 	C 	0.83040 0.68360 0.87287 0.06400
C 	C 	0.82700 0.60540 0.90650 0.14300
C 	C 	0.83000 0.53340 0.92221 -0.05700
C 	C 	0.83510 0.45770 0.91198 0.00800
C 	C 	0.84000 0.39470 0.92860 -0.09400
C 	C 	0.84100 0.40770 0.95485 0.05300
C 	C 	0.83100 0.54130 0.94882 0.03800
C 	C 	0.82550 0.72620 0.89562 0.03900
C 	C 	0.82490 0.81020 0.89538 -0.01000
C 	C 	0.82050 0.85680 0.91773 -0.01500
C 	C 	0.82410 0.93690 0.91553 -0.07800
C 	C 	0.82880 0.97030 0.89106 0.04700
C 	C 	0.82990 0.84860 0.87131 0.02800
C 	C 	0.83650 0.80270 0.84759 0.03200
C 	C 	0.86770 0.35180 0.84368 -0.11100
C 	C 	0.96510 0.37550 0.84476 0.04600
C 	C 	0.04020 0.32090 0.84351 -0.11200
C 	C 	0.01740 0.24200 0.84212 0.03500
C 	C 	0.91980 0.21690 0.84111 -0.11900
C 	C 	0.84520 0.27280 0.84156 0.05400
C 	C 	0.78570 0.41030 0.84412 0.31700
C 	C 	0.89340 0.13190 0.84023 0.35600
C 	C 	0.98450 0.02190 0.75589 -0.07900
C 	C 	0.06240 0.02730 0.73878 0.01600
C 	C 	0.04630 0.02150 0.71256 -0.09800
C 	C 	0.95160 0.01280 0.70362 0.02300
C 	C 	0.87320 0.00790 0.72058 -0.07400
C 	C 	0.88950 0.01090 0.74685 0.00900
C 	C 	0.00500 0.02420 0.78425 0.33400
C 	C 	0.13360 0.02300 0.69440 0.31700
C 	C 	0.59350 0.36490 0.01493 -0.09300
C 	C 	0.49630 0.39000 0.01598 0.02300
C 	C 	0.42030 0.33650 0.01420 -0.08600
C 	C 	0.43950 0.25690 0.01108 0.03000
C 	C 	0.53590 0.23060 0.00937 -0.11400
C 	C 	0.61230 0.28500 0.01169 0.04000
C 	C 	0.67920 0.42160 0.01637 0.30800
C 	C 	0.55970 0.14660 0.00393 0.35700
C 	C 	0.11530 0.85970 0.80027 0.05600
C 	C 	0.11030 0.77930 0.79582 -0.09100
C 	C 	0.09930 0.72950 0.81639 -0.00500
C 	C 	0.09430 0.76060 0.84147 -0.03100
C 	C 	0.08560 0.71610 0.86469 0.05900
C 	C 	0.08030 0.62600 0.89485 0.14100
C 	C 	0.08430 0.54960 0.90769 -0.05700
C 	C 	0.09160 0.47820 0.89497 0.00400
C 	C 	0.10010 0.41010 0.90939 -0.09900
C 	C 	0.10340 0.41560 0.93584 0.05500
C 	C 	0.08730 0.54930 0.93454 0.03600
C 	C 	0.08090 0.74970 0.88878 0.03700
C 	C 	0.08300 0.83300 0.89221 -0.01200
C 	C 	0.07830 0.87030 0.91632 -0.01100
C 	C 	0.07970 0.95080 0.91749 -0.08600
C 	C 	0.08470 0.99340 0.89454 0.06000
C 	C 	0.08970 0.87980 0.86993 0.02400
C 	C 	0.09670 0.84320 0.84430 0.02700
C 	C 	0.35250 0.69620 0.80313 0.05600
C 	C 	0.35410 0.77820 0.80215 -0.08700
C 	C 	0.34500 0.82030 0.82445 -0.00500
C 	C 	0.33660 0.78030 0.84802 -0.02900
C 	C 	0.33040 0.81640 0.87287 0.06300
C 	C 	0.32700 0.89460 0.90650 0.14200
C 	C 	0.33000 0.96660 0.92221 -0.05500
C 	C 	0.33510 0.04230 0.91198 0.00600
C 	C 	0.34000 0.10530 0.92860 -0.09300
C 	C 	0.34100 0.09230 0.95485 0.05200
C 	C 	0.33100 0.95870 0.94882 0.03800
C 	C 	0.32550 0.77380 0.89562 0.03900
C 	C 	0.32490 0.68980 0.89538 -0.01100
C 	C 	0.32050 0.64320 0.91773 -0.01400
C 	C 	0.32410 0.56310 0.91553 -0.08100
C 	C 	0.32880 0.52970 0.89106 0.05100
C 	C 	0.32990 0.65140 0.87131 0.02800
C 	C 	0.33650 0.69730 0.84759 0.03200
C 	C 	0.36770 0.14820 0.84368 -0.11000
C 	C 	0.46510 0.12450 0.84476 0.03500
C 	C 	0.54020 0.17910 0.84351 -0.10400
C 	C 	0.51740 0.25800 0.84212 0.04500
C 	C 	0.41980 0.28310 0.84111 -0.13000
C 	C 	0.34520 0.22720 0.84156 0.05600
C 	C 	0.28570 0.08970 0.84412 0.31600
C 	C 	0.39340 0.36810 0.84023 0.35900
C 	C 	0.48450 0.47810 0.75589 -0.11200
C 	C 	0.56240 0.47270 0.73878 0.04000
C 	C 	0.54630 0.47850 0.71256 -0.09400
C 	C 	0.45160 0.48720 0.70362 0.01500
C 	C 	0.37320 0.49210 0.72058 -0.08000
C 	C 	0.38950 0.48910 0.74685 0.02300
C 	C 	0.50500 0.47580 0.78425 0.36300
C 	C 	0.63360 0.47700 0.69440 0.31700
C 	C 	0.09350 0.13510 0.01493 -0.09700
C 	C 	0.99630 0.11000 0.01598 0.02700
C 	C 	0.92030 0.16350 0.01420 -0.08900
C 	C 	0.93950 0.24310 0.01108 0.03300
C 	C 	0.03590 0.26940 0.00937 -0.11700
C 	C 	0.11230 0.21500 0.01169 0.04200
C 	C 	0.17920 0.07840 0.01637 0.30900
C 	C 	0.05970 0.35340 0.00393 0.35800
C 	C 	0.88470 0.64030 0.30027 0.05600
C 	C 	0.88970 0.72070 0.29582 -0.09200
C 	C 	0.90070 0.77050 0.31639 -0.00500
C 	C 	0.90570 0.73940 0.34147 -0.03100
C 	C 	0.91440 0.78390 0.36469 0.05900
C 	C 	0.91970 0.87400 0.39485 0.14100
C 	C 	0.91570 0.95040 0.40769 -0.06000
C 	C 	0.90840 0.02180 0.39497 0.00900
C 	C 	0.89990 0.08990 0.40939 -0.10100
C 	C 	0.89660 0.08440 0.43584 0.05700
C 	C 	0.91270 0.95070 0.43454 0.03500
C 	C 	0.91910 0.75030 0.38878 0.03700
C 	C 	0.91700 0.66700 0.39221 -0.01100
C 	C 	0.92170 0.62970 0.41632 -0.01300
C 	C 	0.92030 0.54920 0.41749 -0.08200
C 	C 	0.91530 0.50660 0.39454 0.05300
C 	C 	0.91030 0.62020 0.36993 0.02300
C 	C 	0.90330 0.65680 0.34430 0.02700
C 	C 	0.64750 0.80380 0.30313 0.05600
C 	C 	0.64590 0.72180 0.30215 -0.08700
C 	C 	0.65500 0.67970 0.32445 -0.00500
C 	C 	0.66340 0.71970 0.34802 -0.02900
C 	C 	0.66960 0.68360 0.37287 0.06300
C 	C 	0.67300 0.60540 0.40650 0.14200
C 	C 	0.67000 0.53340 0.42221 -0.05700
C 	C 	0.66490 0.45770 0.41198 0.00700
C 	C 	0.66000 0.39470 0.42860 -0.09400
C 	C 	0.65900 0.40770 0.45485 0.05200
C 	C 	0.66900 0.54130 0.44882 0.03700
C 	C 	0.67450 0.72620 0.39562 0.03900
C 	C 	0.67510 0.81020 0.39538 -0.01100
C 	C 	0.67950 0.85680 0.41773 -0.01400
C 	C 	0.67590 0.93690 0.41553 -0.08000
C 	C 	0.67120 0.97030 0.39106 0.04900
C 	C 	0.67010 0.84860 0.37131 0.02800
C 	C 	0.66350 0.80270 0.34759 0.03200
C 	C 	0.63230 0.35180 0.34368 -0.11000
C 	C 	0.53490 0.37550 0.34476 0.03500
C 	C 	0.45980 0.32090 0.34351 -0.10400
C 	C 	0.48260 0.24200 0.34212 0.04500
C 	C 	0.58020 0.21690 0.34111 -0.13000
C 	C 	0.65480 0.27280 0.34156 0.05600
C 	C 	0.71430 0.41030 0.34412 0.31600
C 	C 	0.60660 0.13190 0.34023 0.35900
C 	C 	0.51550 0.02190 0.25589 -0.11200
C 	C 	0.43760 0.02730 0.23878 0.04100
C 	C 	0.45370 0.02150 0.21256 -0.09400
C 	C 	0.54840 0.01280 0.20362 0.01500
C 	C 	0.62680 0.00790 0.22058 -0.08000
C 	C 	0.61050 0.01090 0.24685 0.02300
C 	C 	0.49500 0.02420 0.28425 0.36300
C 	C 	0.36640 0.02300 0.19440 0.31800
C 	C 	0.90650 0.36490 0.51493 -0.08900
C 	C 	0.00370 0.39000 0.51598 0.01700
C 	C 	0.07970 0.33650 0.51420 -0.08200
C 	C 	0.06050 0.25690 0.51108 0.02400
C 	C 	0.96410 0.23060 0.50937 -0.11000
C 	C 	0.88770 0.28500 0.51169 0.03700
C 	C 	0.82080 0.42160 0.51637 0.30700
C 	C 	0.94030 0.14660 0.50393 0.35900
C 	C 	0.61530 0.14030 0.69973 0.05700
C 	C 	0.61030 0.22070 0.70418 -0.09100
C 	C 	0.59930 0.27050 0.68361 -0.00400
C 	C 	0.59430 0.23940 0.65853 -0.03100
C 	C 	0.58560 0.28390 0.63531 0.06000
C 	C 	0.58030 0.37400 0.60515 0.14200
C 	C 	0.58430 0.45040 0.59231 -0.05600
C 	C 	0.59160 0.52180 0.60503 0.00500
C 	C 	0.60010 0.58990 0.59061 -0.09800
C 	C 	0.60340 0.58440 0.56416 0.05500
C 	C 	0.58730 0.45070 0.56546 0.03700
C 	C 	0.58090 0.25030 0.61122 0.03700
C 	C 	0.58300 0.16700 0.60779 -0.01000
C 	C 	0.57830 0.12970 0.58368 -0.01200
C 	C 	0.57970 0.04920 0.58251 -0.08300
C 	C 	0.58470 0.00660 0.60546 0.05600
C 	C 	0.58970 0.12020 0.63007 0.02400
C 	C 	0.59670 0.15680 0.65570 0.02800
C 	C 	0.85250 0.30380 0.69687 0.05700
C 	C 	0.85410 0.22180 0.69785 -0.08700
C 	C 	0.84500 0.17970 0.67555 -0.00400
C 	C 	0.83660 0.21970 0.65198 -0.02900
C 	C 	0.83040 0.18360 0.62713 0.06400
C 	C 	0.82700 0.10540 0.59350 0.14300
C 	C 	0.83000 0.03340 0.57779 -0.05400
C 	C 	0.83510 0.95770 0.58802 0.00500
C 	C 	0.84000 0.89470 0.57140 -0.09200
C 	C 	0.84100 0.90770 0.54515 0.05100
C 	C 	0.83100 0.04130 0.55118 0.03900
C 	C 	0.82550 0.22620 0.60438 0.04000
C 	C 	0.82490 0.31020 0.60462 -0.01100
C 	C 	0.82050 0.35680 0.58227 -0.01300
C 	C 	0.82410 0.43690 0.58447 -0.08000
C 	C 	0.82880 0.47030 0.60894 0.05200
C 	C 	0.82990 0.34860 0.62869 0.02900
C 	C 	0.83650 0.30270 0.65241 0.03300
C 	C 	0.86770 0.85180 0.65632 -0.11000
C 	C 	0.96510 0.87550 0.65524 0.04100
C 	C 	0.04020 0.82090 0.65649 -0.10900
C 	C 	0.01740 0.74200 0.65788 0.03800
C 	C 	0.91980 0.71690 0.65889 -0.12300
C 	C 	0.84520 0.77280 0.65844 0.05400
C 	C 	0.78570 0.91030 0.65588 0.31600
C 	C 	0.89340 0.63190 0.65977 0.35700
C 	C 	0.98450 0.52190 0.74411 -0.08700
C 	C 	0.06240 0.52730 0.76122 0.02200
C 	C 	0.04630 0.52150 0.78744 -0.09600
C 	C 	0.95160 0.51280 0.79638 0.02100
C 	C 	0.87320 0.50790 0.77942 -0.07500
C 	C 	0.88950 0.51090 0.75315 0.01200
C 	C 	0.00500 0.52420 0.71575 0.33900
C 	C 	0.13360 0.52300 0.80560 0.31700
C 	C 	0.59350 0.86490 0.48507 -0.09300
C 	C 	0.49630 0.89000 0.48402 0.02300
C 	C 	0.42030 0.83650 0.48580 -0.08600
C 	C 	0.43950 0.75690 0.48892 0.03000
C 	C 	0.53590 0.73060 0.49063 -0.11400
C 	C 	0.61230 0.78500 0.48831 0.04000
C 	C 	0.67920 0.92160 0.48363 0.30800
C 	C 	0.55970 0.64660 0.49607 0.35800
C 	C 	0.38470 0.35970 0.19973 0.05700
C 	C 	0.38970 0.27930 0.20418 -0.09100
C 	C 	0.40070 0.22950 0.18361 -0.00400
C 	C 	0.40570 0.26060 0.15853 -0.03100
C 	C 	0.41440 0.21610 0.13531 0.06000
C 	C 	0.41970 0.12600 0.10515 0.14200
C 	C 	0.41570 0.04960 0.09231 -0.05700
C 	C 	0.40840 0.97820 0.10503 0.00600
C 	C 	0.39990 0.91010 0.09061 -0.09900
C 	C 	0.39660 0.91560 0.06416 0.05600
C 	C 	0.41270 0.04930 0.06546 0.03700
C 	C 	0.41910 0.24970 0.11122 0.03700
C 	C 	0.41700 0.33300 0.10779 -0.01000
C 	C 	0.42170 0.37030 0.08368 -0.01300
C 	C 	0.42030 0.45080 0.08251 -0.08200
C 	C 	0.41530 0.49340 0.10546 0.05400
C 	C 	0.41030 0.37980 0.13007 0.02300
C 	C 	0.40330 0.34320 0.15570 0.02800
C 	C 	0.14750 0.19620 0.19687 0.05700
C 	C 	0.14590 0.27820 0.19785 -0.08700
C 	C 	0.15500 0.32030 0.17555 -0.00400
C 	C 	0.16340 0.28030 0.15198 -0.02900
C 	C 	0.16960 0.31640 0.12713 0.06400
C 	C 	0.17300 0.39460 0.09350 0.14300
C 	C 	0.17000 0.46660 0.07779 -0.05700
C 	C 	0.16490 0.54230 0.08802 0.00800
C 	C 	0.16000 0.60530 0.07140 -0.09400
C 	C 	0.15900 0.59230 0.04515 0.05300
C 	C 	0.16900 0.45870 0.05118 0.03800
C 	C 	0.17450 0.27380 0.10438 0.03900
C 	C 	0.17510 0.18980 0.10462 -0.01000
C 	C 	0.17950 0.14320 0.08227 -0.01500
C 	C 	0.17590 0.06310 0.08447 -0.07800
C 	C 	0.17120 0.02970 0.10894 0.04700
C 	C 	0.17010 0.15140 0.12869 0.02800
C 	C 	0.16350 0.19730 0.15241 0.03200
C 	C 	0.13230 0.64820 0.15632 -0.11100
C 	C 	0.03490 0.62450 0.15524 0.04600
C 	C 	0.95980 0.67910 0.15649 -0.11200
C 	C 	0.98260 0.75800 0.15788 0.03500
C 	C 	0.08020 0.78310 0.15889 -0.11900
C 	C 	0.15480 0.72720 0.15844 0.05400
C 	C 	0.21430 0.58970 0.15588 0.31700
C 	C 	0.10660 0.86810 0.15977 0.35600
C 	C 	0.01550 0.97810 0.24411 -0.07900
C 	C 	0.93760 0.97270 0.26122 0.01600
C 	C 	0.95370 0.97850 0.28744 -0.09800
C 	C 	0.04840 0.98720 0.29638 0.02300
C 	C 	0.12680 0.99210 0.27942 -0.07400
C 	C 	0.11050 0.98910 0.25315 0.00900
C 	C 	0.99500 0.97580 0.21575 0.33400
C 	C 	0.86640 0.97700 0.30560 0.31700
C 	C 	0.40650 0.63510 0.98507 -0.09300
C 	C 	0.50370 0.61000 0.98402 0.02300
C 	C 	0.57970 0.66350 0.98580 -0.08600
C 	C 	0.56050 0.74310 0.98892 0.03000
C 	C 	0.46410 0.76940 0.99063 -0.11400
C 	C 	0.38770 0.71500 0.98831 0.04000
C 	C 	0.32080 0.57840 0.98363 0.30800
C 	C 	0.44030 0.85340 0.99607 0.35700
N 	N 	0.89190 0.10890 0.17627 -0.22300
N 	N 	0.91030 0.04122 0.12846 -0.22400
N 	N 	0.65640 0.34320 0.17485 -0.21300
N 	N 	0.66990 0.42769 0.13044 -0.22500
N 	N 	0.92280 0.30680 0.09241 -0.12800
N 	N 	0.91550 0.36388 0.13134 -0.21500
N 	N 	0.67660 0.17650 0.08344 -0.12900
N 	N 	0.66900 0.10566 0.11987 -0.21400
N 	N 	0.90180 0.51580 0.05144 -0.22300
N 	N 	0.66200 0.97980 0.03516 -0.22200
N 	N 	0.10810 0.39110 0.67627 -0.22400
N 	N 	0.08970 0.45878 0.62846 -0.22300
N 	N 	0.34360 0.15680 0.67485 -0.21300
N 	N 	0.33010 0.07231 0.63044 -0.22500
N 	N 	0.07720 0.19320 0.59241 -0.12900
N 	N 	0.08450 0.13612 0.63134 -0.21500
N 	N 	0.32340 0.32350 0.58344 -0.12900
N 	N 	0.33100 0.39434 0.61987 -0.21400
N 	N 	0.09820 0.98420 0.55144 -0.22200
N 	N 	0.33800 0.52020 0.53516 -0.22200
N 	N 	0.39190 0.89110 0.32373 -0.22300
N 	N 	0.41030 0.95878 0.37154 -0.22300
N 	N 	0.15640 0.65680 0.32515 -0.21300
N 	N 	0.16990 0.57231 0.36956 -0.22500
N 	N 	0.42280 0.69320 0.40759 -0.12800
N 	N 	0.41550 0.63612 0.36866 -0.21500
N 	N 	0.17660 0.82350 0.41656 -0.12900
N 	N 	0.16900 0.89434 0.38013 -0.21400
N 	N 	0.40180 0.48420 0.44856 -0.22300
N 	N 	0.16200 0.02020 0.46484 -0.22200
N 	N 	0.60810 0.60890 0.82373 -0.22300
N 	N 	0.58970 0.54122 0.87154 -0.22300
N 	N 	0.84360 0.84320 0.82515 -0.21300
N 	N 	0.83010 0.92769 0.86956 -0.22400
N 	N 	0.57720 0.80680 0.90759 -0.12800
N 	N 	0.58450 0.86388 0.86866 -0.21500
N 	N 	0.82340 0.67650 0.91656 -0.12900
N 	N 	0.83100 0.60566 0.88013 -0.21400
N 	N 	0.59820 0.01580 0.94856 -0.22300
N 	N 	0.83800 0.47980 0.96484 -0.22100
N 	N 	0.10810 0.89110 0.82373 -0.22300
N 	N 	0.08970 0.95878 0.87154 -0.22400
N 	N 	0.34360 0.65680 0.82515 -0.21300
N 	N 	0.33010 0.57231 0.86956 -0.22500
N 	N 	0.07720 0.69320 0.90759 -0.12800
N 	N 	0.08450 0.63612 0.86866 -0.21500
N 	N 	0.32340 0.82350 0.91656 -0.12900
N 	N 	0.33100 0.89434 0.88013 -0.21400
N 	N 	0.09820 0.48420 0.94856 -0.22300
N 	N 	0.33800 0.02020 0.96484 -0.22200
N 	N 	0.89190 0.60890 0.32373 -0.22400
N 	N 	0.91030 0.54122 0.37154 -0.22300
N 	N 	0.65640 0.84320 0.32515 -0.21300
N 	N 	0.66990 0.92769 0.36956 -0.22500
N 	N 	0.92280 0.80680 0.40759 -0.12900
N 	N 	0.91550 0.86388 0.36866 -0.21500
N 	N 	0.67660 0.67650 0.41656 -0.12900
N 	N 	0.66900 0.60566 0.38013 -0.21400
N 	N 	0.90180 0.01580 0.44856 -0.22200
N 	N 	0.66200 0.47980 0.46484 -0.22200
N 	N 	0.60810 0.10890 0.67627 -0.22300
N 	N 	0.58970 0.04122 0.62846 -0.22300
N 	N 	0.84360 0.34320 0.67485 -0.21300
N 	N 	0.83010 0.42769 0.63044 -0.22500
N 	N 	0.57720 0.30680 0.59241 -0.12800
N 	N 	0.58450 0.36388 0.63134 -0.21500
N 	N 	0.82340 0.17650 0.58344 -0.12900
N 	N 	0.83100 0.10566 0.61987 -0.21400
N 	N 	0.59820 0.51580 0.55144 -0.22300
N 	N 	0.83800 0.97980 0.53516 -0.22200
N 	N 	0.39190 0.39110 0.17627 -0.22300
N 	N 	0.41030 0.45878 0.12846 -0.22300
N 	N 	0.15640 0.15680 0.17485 -0.21300
N 	N 	0.16990 0.07231 0.13044 -0.22400
N 	N 	0.42280 0.19320 0.09241 -0.12800
N 	N 	0.41550 0.13612 0.13134 -0.21500
N 	N 	0.17660 0.32350 0.08344 -0.12900
N 	N 	0.16900 0.39434 0.11987 -0.21400
N 	N 	0.40180 0.98420 0.05144 -0.22300
N 	N 	0.16200 0.52020 0.03516 -0.22100
O 	O 	0.69660 0.98256 0.15610 -0.33400
O 	O 	0.80120 0.88257 0.15521 -0.40600
O 	O 	0.54540 0.58187 0.15181 -0.48100
O 	O 	0.68990 0.61222 0.16805 -0.40700
O 	O 	0.41640 0.55703 0.20825 -0.41700
O 	O 	0.55350 0.49064 0.20068 -0.47500
O 	O 	0.28270 0.52050 0.29546 -0.39600
O 	O 	0.37950 0.52724 0.32951 -0.34600
O 	O 	0.73600 0.89216 0.98419 -0.39800
O 	O 	0.83570 0.99406 0.98244 -0.33300
O 	O 	0.85320 0.62987 0.00287 -0.40800
O 	O 	0.00490 0.59381 0.99417 -0.47000
O 	O 	0.30340 0.51744 0.65610 -0.33300
O 	O 	0.19880 0.61743 0.65521 -0.40600
O 	O 	0.45460 0.91813 0.65181 -0.48000
O 	O 	0.31010 0.88778 0.66805 -0.40700
O 	O 	0.58360 0.94297 0.70825 -0.41800
O 	O 	0.44650 0.00936 0.70068 -0.47500
O 	O 	0.71730 0.97950 0.79546 -0.39700
O 	O 	0.62050 0.97276 0.82951 -0.34600
O 	O 	0.26400 0.60784 0.48419 -0.39800
O 	O 	0.16430 0.50594 0.48244 -0.33100
O 	O 	0.14680 0.87013 0.50287 -0.40800
O 	O 	0.99510 0.90619 0.49417 -0.47200
O 	O 	0.19660 0.01744 0.34390 -0.33400
O 	O 	0.30120 0.11743 0.34479 -0.40500
O 	O 	0.04540 0.41813 0.34819 -0.47700
O 	O 	0.18990 0.38778 0.33195 -0.40600
O 	O 	0.91640 0.44297 0.29175 -0.41400
O 	O 	0.05350 0.50936 0.29932 -0.46300
O 	O 	0.78270 0.47950 0.20454 -0.39600
O 	O 	0.87950 0.47276 0.17049 -0.34800
O 	O 	0.23600 0.10784 0.51581 -0.39800
O 	O 	0.33570 0.00594 0.51756 -0.33200
O 	O 	0.35320 0.37013 0.49713 -0.40800
O 	O 	0.50490 0.40619 0.50583 -0.47000
O 	O 	0.80340 0.48256 0.84390 -0.33300
O 	O 	0.69880 0.38257 0.84479 -0.40500
O 	O 	0.95460 0.08187 0.84819 -0.47500
O 	O 	0.81010 0.11222 0.83195 -0.40500
O 	O 	0.08360 0.05703 0.79175 -0.41300
O 	O 	0.94650 0.99064 0.79932 -0.46300
O 	O 	0.21730 0.02050 0.70454 -0.39600
O 	O 	0.12050 0.02724 0.67049 -0.34800
O 	O 	0.76400 0.39216 0.01581 -0.39800
O 	O 	0.66430 0.49406 0.01756 -0.33200
O 	O 	0.64680 0.12987 0.99713 -0.40800
O 	O 	0.49510 0.09381 0.00583 -0.47000
O 	O 	0.30340 0.01744 0.84390 -0.33400
O 	O 	0.19880 0.11743 0.84479 -0.40600
O 	O 	0.45460 0.41813 0.84819 -0.48100
O 	O 	0.31010 0.38778 0.83195 -0.40700
O 	O 	0.58360 0.44297 0.79175 -0.41700
O 	O 	0.44650 0.50936 0.79932 -0.47500
O 	O 	0.71730 0.47950 0.70454 -0.39600
O 	O 	0.62050 0.47276 0.67049 -0.34600
O 	O 	0.26400 0.10784 0.01581 -0.39800
O 	O 	0.16430 0.00594 0.01756 -0.33300
O 	O 	0.14680 0.37013 0.99713 -0.40800
O 	O 	0.99510 0.40619 0.00583 -0.47000
O 	O 	0.69660 0.48256 0.34390 -0.33300
O 	O 	0.80120 0.38257 0.34479 -0.40600
O 	O 	0.54540 0.08187 0.34819 -0.48000
O 	O 	0.68990 0.11222 0.33195 -0.40700
O 	O 	0.41640 0.05703 0.29175 -0.41800
O 	O 	0.55350 0.99064 0.29932 -0.47500
O 	O 	0.28270 0.02050 0.20454 -0.39700
O 	O 	0.37950 0.02724 0.17049 -0.34600
O 	O 	0.73600 0.39216 0.51581 -0.39800
O 	O 	0.83570 0.49406 0.51756 -0.33100
O 	O 	0.85320 0.12987 0.49713 -0.40800
O 	O 	0.00490 0.09381 0.50583 -0.47200
O 	O 	0.80340 0.98256 0.65610 -0.33400
O 	O 	0.69880 0.88257 0.65521 -0.40500
O 	O 	0.95460 0.58187 0.65181 -0.47700
O 	O 	0.81010 0.61222 0.66805 -0.40600
O 	O 	0.08360 0.55703 0.70825 -0.41400
O 	O 	0.94650 0.49064 0.70068 -0.46300
O 	O 	0.21730 0.52050 0.79546 -0.39600
O 	O 	0.12050 0.52724 0.82951 -0.34800
O 	O 	0.76400 0.89216 0.48419 -0.39800
O 	O 	0.66430 0.99406 0.48244 -0.33200
O 	O 	0.64680 0.62987 0.50287 -0.40800
O 	O 	0.49510 0.59381 0.49417 -0.47000
O 	O 	0.19660 0.51744 0.15610 -0.33300
O 	O 	0.30120 0.61743 0.15521 -0.40500
O 	O 	0.04540 0.91813 0.15181 -0.47500
O 	O 	0.18990 0.88778 0.16805 -0.40500
O 	O 	0.91640 0.94297 0.20825 -0.41300
O 	O 	0.05350 0.00936 0.20068 -0.46300
O 	O 	0.78270 0.97950 0.29546 -0.39600
O 	O 	0.87950 0.97276 0.32951 -0.34800
O 	O 	0.23600 0.60784 0.98419 -0.39800
O 	O 	0.33570 0.50594 0.98244 -0.33200
O 	O 	0.35320 0.87013 0.00287 -0.40800
O 	O 	0.50490 0.90619 0.99417 -0.47000
