data_crystal

_cell_length_a 7.69570
_cell_length_b 10.21820
_cell_length_c 15.94080
_cell_angle_alpha 86.94500
_cell_angle_beta  86.03500
_cell_angle_gamma 76.83100

_symmetry_space_group_name_	'P 1'
_symmetry_space_group_name_H-M	'P 1'

loop_
_symmetry_equiv_pos_as_xyz
  x,y,z

loop_
_atom_site_label
_atom_site_type_symbol
_atom_site_fract_x
_atom_site_fract_y
_atom_site_fract_z
_atom_site_charge
Tb	Tb	0.35401 0.33674 0.06341 1.81100
Tb	Tb	0.61275 0.87052 0.32443 1.80200
O 	O 	0.21020 0.29600 0.77690 -0.25400
O 	O 	0.10490 0.07100 0.70580 -0.28200
O 	O 	0.48940 0.35480 0.65150 -0.37000
O 	O 	0.63860 0.18600 0.72860 -0.40200
O 	O 	0.75420 0.44400 0.88250 -0.47700
O 	O 	0.58850 0.33660 0.96860 -0.54300
O 	O 	0.78500 0.51620 0.04740 -0.40800
O 	O 	0.03910 0.37120 0.07820 -0.40900
O 	O 	0.33880 0.96940 0.57680 -0.37600
O 	O 	0.40650 0.89050 0.44680 -0.38100
O 	O 	0.39640 0.09050 0.29990 -0.34800
O 	O 	0.61360 0.95440 0.18160 -0.38600
O 	O 	0.29080 0.25180 0.20250 -0.39600
O 	O 	0.49910 0.10700 0.08320 -0.42300
C 	C 	0.06010 0.48800 0.70520 0.05200
H 	H 	0.16200 0.52570 0.70580 0.03100
C 	C 	0.91120 0.55740 0.66480 -0.10100
H 	H 	0.90870 0.64420 0.63970 0.08100
C 	C 	0.76630 0.49970 0.66140 0.03600
H 	H 	0.66620 0.54430 0.63110 0.03400
C 	C 	0.76740 0.37650 0.70220 -0.10000
C 	C 	0.91450 0.31420 0.74680 0.07000
C 	C 	0.62100 0.30130 0.69430 0.32600
C 	C 	0.02320 0.96280 0.82810 0.07700
H 	H 	0.09590 0.88030 0.80940 0.01900
C 	C 	0.92310 0.96600 0.90330 -0.12300
H 	H 	0.92370 0.88560 0.93630 0.06000
C 	C 	0.82210 0.08750 0.93000 0.08100
H 	H 	0.75270 0.09070 0.98180 0.01500
C 	C 	0.82030 0.20420 0.88260 -0.17200
C 	C 	0.91880 0.19770 0.80590 0.12200
C 	C 	0.71210 0.34000 0.91210 0.48200
C 	C 	0.95000 0.46690 0.03620 0.26500
C 	C 	0.42730 0.95880 0.50650 0.24800
C 	C 	0.51050 0.06080 0.15840 0.25600
C 	C 	0.38830 0.14270 0.22650 0.23800
N 	N 	0.06150 0.36770 0.74350 -0.08500
N 	N 	0.01760 0.07730 0.78130 -0.07100
Tb	Tb	0.64599 0.66326 0.93659 1.81200
Tb	Tb	0.38725 0.12948 0.67557 1.80300
O 	O 	0.78980 0.70400 0.22310 -0.25400
O 	O 	0.89510 0.92900 0.29420 -0.28200
O 	O 	0.51060 0.64520 0.34850 -0.37000
O 	O 	0.36140 0.81400 0.27140 -0.40200
O 	O 	0.24580 0.55600 0.11750 -0.47700
O 	O 	0.41150 0.66340 0.03140 -0.54300
O 	O 	0.21500 0.48380 0.95260 -0.40800
O 	O 	0.96090 0.62880 0.92180 -0.40900
O 	O 	0.66120 0.03060 0.42320 -0.37600
O 	O 	0.59350 0.10950 0.55320 -0.38100
O 	O 	0.60360 0.90950 0.70010 -0.34800
O 	O 	0.38640 0.04560 0.81840 -0.38600
O 	O 	0.70920 0.74820 0.79750 -0.39600
O 	O 	0.50090 0.89300 0.91680 -0.42300
C 	C 	0.93990 0.51200 0.29480 0.05200
H 	H 	0.83800 0.47430 0.29420 0.03100
C 	C 	0.08880 0.44260 0.33520 -0.10100
H 	H 	0.09130 0.35580 0.36030 0.08100
C 	C 	0.23370 0.50030 0.33860 0.03600
H 	H 	0.33380 0.45570 0.36890 0.03400
C 	C 	0.23260 0.62350 0.29780 -0.10000
C 	C 	0.08550 0.68580 0.25320 0.07000
C 	C 	0.37900 0.69870 0.30570 0.32600
C 	C 	0.97680 0.03720 0.17190 0.07700
H 	H 	0.90410 0.11970 0.19060 0.01900
C 	C 	0.07690 0.03400 0.09670 -0.12300
H 	H 	0.07630 0.11440 0.06370 0.06000
C 	C 	0.17790 0.91250 0.07000 0.08100
H 	H 	0.24730 0.90930 0.01820 0.01500
C 	C 	0.17970 0.79580 0.11740 -0.17200
C 	C 	0.08120 0.80230 0.19410 0.12200
C 	C 	0.28790 0.66000 0.08790 0.48200
C 	C 	0.05000 0.53310 0.96380 0.26500
C 	C 	0.57270 0.04120 0.49350 0.24800
C 	C 	0.48950 0.93920 0.84160 0.25600
C 	C 	0.61170 0.85730 0.77350 0.23800
N 	N 	0.93850 0.63230 0.25650 -0.08500
N 	N 	0.98240 0.92270 0.21870 -0.07100
