data_crystal

_cell_length_a 7.72970
_cell_length_b 10.27250
_cell_length_c 16.02340
_cell_angle_alpha 86.81700
_cell_angle_beta  85.97400
_cell_angle_gamma 77.10700

_symmetry_space_group_name_	'P 1'
_symmetry_space_group_name_H-M	'P 1'

loop_
_symmetry_equiv_pos_as_xyz
  x,y,z

loop_
_atom_site_label
_atom_site_type_symbol
_atom_site_fract_x
_atom_site_fract_y
_atom_site_fract_z
_atom_site_charge
Eu	Eu	0.35439 0.33627 0.06325 1.87800
Eu	Eu	0.61510 0.86838 0.32466 1.88200
O 	O 	0.20640 0.29730 0.77740 -0.26400
O 	O 	0.09970 0.07270 0.70480 -0.28900
O 	O 	0.49050 0.35600 0.65190 -0.38400
O 	O 	0.64010 0.18810 0.72880 -0.40100
O 	O 	0.75950 0.44350 0.88200 -0.47500
O 	O 	0.59190 0.33810 0.96770 -0.55600
O 	O 	0.78590 0.51570 0.04850 -0.41400
O 	O 	0.03790 0.36850 0.07620 -0.41500
O 	O 	0.33780 0.97050 0.57590 -0.39300
O 	O 	0.40680 0.88950 0.44730 -0.39100
O 	O 	0.39730 0.08830 0.29950 -0.35000
O 	O 	0.61790 0.95550 0.18130 -0.39200
O 	O 	0.29080 0.24750 0.20300 -0.39800
O 	O 	0.50020 0.10670 0.08320 -0.43200
C 	C 	0.06060 0.48790 0.70510 0.04800
H 	H 	0.16320 0.52450 0.70470 0.02900
C 	C 	0.91240 0.55730 0.66540 -0.10000
H 	H 	0.91050 0.64400 0.64090 0.07800
C 	C 	0.76670 0.50060 0.66150 0.03100
H 	H 	0.66780 0.54540 0.63120 0.03200
C 	C 	0.76640 0.37790 0.70220 -0.10000
C 	C 	0.91170 0.31500 0.74670 0.06700
C 	C 	0.61960 0.30510 0.69380 0.32200
C 	C 	0.01820 0.96640 0.82850 0.07600
H 	H 	0.08850 0.88380 0.81000 0.01800
C 	C 	0.92120 0.96950 0.90420 -0.12600
H 	H 	0.92330 0.88970 0.93730 0.05900
C 	C 	0.82100 0.08970 0.93110 0.08400
H 	H 	0.75310 0.09270 0.98300 0.01100
C 	C 	0.81880 0.20630 0.88300 -0.18200
C 	C 	0.91770 0.19850 0.80650 0.12300
C 	C 	0.71490 0.33880 0.91220 0.48200
C 	C 	0.94900 0.46700 0.03580 0.26100
C 	C 	0.42540 0.95830 0.50800 0.25800
C 	C 	0.51260 0.06130 0.15790 0.25200
C 	C 	0.38950 0.13860 0.22540 0.22700
N 	N 	0.05990 0.36890 0.74400 -0.08400
N 	N 	0.01490 0.07880 0.78050 -0.07300
Eu	Eu	0.64561 0.66373 0.93675 1.87900
Eu	Eu	0.38490 0.13162 0.67534 1.88300
O 	O 	0.79360 0.70270 0.22260 -0.26400
O 	O 	0.90030 0.92730 0.29520 -0.28900
O 	O 	0.50950 0.64400 0.34810 -0.38400
O 	O 	0.35990 0.81190 0.27120 -0.40100
O 	O 	0.24050 0.55650 0.11800 -0.47500
O 	O 	0.40810 0.66190 0.03230 -0.55600
O 	O 	0.21410 0.48430 0.95150 -0.41400
O 	O 	0.96210 0.63150 0.92380 -0.41500
O 	O 	0.66220 0.02950 0.42410 -0.39300
O 	O 	0.59320 0.11050 0.55270 -0.39100
O 	O 	0.60270 0.91170 0.70050 -0.35000
O 	O 	0.38210 0.04450 0.81870 -0.39200
O 	O 	0.70920 0.75250 0.79700 -0.39800
O 	O 	0.49980 0.89330 0.91680 -0.43200
C 	C 	0.93940 0.51210 0.29490 0.04800
H 	H 	0.83680 0.47550 0.29530 0.02900
C 	C 	0.08760 0.44270 0.33460 -0.10000
H 	H 	0.08950 0.35600 0.35910 0.07800
C 	C 	0.23330 0.49940 0.33850 0.03100
H 	H 	0.33220 0.45460 0.36880 0.03200
C 	C 	0.23360 0.62210 0.29780 -0.10000
C 	C 	0.08830 0.68500 0.25330 0.06700
C 	C 	0.38040 0.69490 0.30620 0.32200
C 	C 	0.98180 0.03360 0.17150 0.07600
H 	H 	0.91150 0.11620 0.19000 0.01800
C 	C 	0.07880 0.03050 0.09580 -0.12600
H 	H 	0.07670 0.11030 0.06270 0.05900
C 	C 	0.17900 0.91030 0.06890 0.08400
H 	H 	0.24690 0.90730 0.01700 0.01100
C 	C 	0.18120 0.79370 0.11700 -0.18200
C 	C 	0.08230 0.80150 0.19350 0.12300
C 	C 	0.28510 0.66120 0.08780 0.48200
C 	C 	0.05100 0.53300 0.96420 0.26100
C 	C 	0.57460 0.04170 0.49200 0.25800
C 	C 	0.48740 0.93870 0.84210 0.25200
C 	C 	0.61050 0.86140 0.77460 0.22700
N 	N 	0.94010 0.63110 0.25600 -0.08400
N 	N 	0.98510 0.92120 0.21950 -0.07300
