data_crystal

_cell_length_a 15.37620
_cell_length_b 25.98470
_cell_length_c 25.44310
_cell_angle_alpha 90.00000
_cell_angle_beta  97.62600
_cell_angle_gamma 90.00000

_symmetry_space_group_name_	'P 1'
_symmetry_space_group_name_H-M	'P 1'

loop_
_symmetry_equiv_pos_as_xyz
  x,y,z

loop_
_atom_site_label
_atom_site_type_symbol
_atom_site_fract_x
_atom_site_fract_y
_atom_site_fract_z
_atom_site_charge
Cu	Cu	0.64313 0.65820 0.18152 0.90900
Cu	Cu	0.47123 0.73370 0.24020 0.87800
Cu	Cu	0.29773 0.68768 0.79422 0.89600
S 	S 	0.73677 0.52119 0.21812 0.65900
O 	O 	0.65470 0.49990 0.19350 -0.26900
O 	O 	0.76510 0.48520 0.25990 -0.26700
O 	O 	0.80140 0.52280 0.17980 -0.26600
O 	O 	0.72510 0.57444 0.23710 -0.31700
S 	S 	0.39580 0.64720 0.04980 0.65000
O 	O 	0.41360 0.62700 0.10440 -0.29100
O 	O 	0.47890 0.64580 0.02700 -0.26300
O 	O 	0.33280 0.61430 0.01850 -0.26800
O 	O 	0.36180 0.69850 0.05350 -0.29500
S 	S 	0.56181 0.84512 0.41075 0.73300
O 	O 	0.56750 0.85240 0.35370 -0.29600
O 	O 	0.47410 0.86110 0.41960 -0.29500
O 	O 	0.58260 0.79450 0.41980 -0.33800
O 	O 	0.62280 0.87990 0.44120 -0.28500
S 	S 	0.98386 0.84220 0.19342 0.62200
O 	O 	0.89200 0.85720 0.19000 -0.28300
O 	O 	0.99980 0.79437 0.21990 -0.30100
O 	O 	0.03830 0.88310 0.22270 -0.25700
O 	O 	0.01560 0.83300 0.13960 -0.25400
N 	N 	0.56360 0.72521 0.14120 -0.16600
N 	N 	0.49640 0.74703 0.16401 -0.19300
N 	N 	0.50380 0.78610 0.08942 -0.18400
N 	N 	0.44590 0.77649 0.81579 -0.19400
N 	N 	0.38150 0.74981 0.83671 -0.17000
N 	N 	0.44250 0.80369 0.89655 -0.18500
N 	N 	0.68040 0.70080 0.24611 -0.19300
N 	N 	0.61830 0.72746 0.27022 -0.17100
N 	N 	0.74920 0.74817 0.30882 -0.18900
N 	N 	0.17790 0.73638 0.33343 -0.11000
N 	N 	0.19010 0.78809 0.32228 -0.19900
N 	N 	0.06400 0.78152 0.35146 -0.18600
N 	N 	0.32820 0.73842 0.20783 -0.17300
N 	N 	0.26390 0.76468 0.22961 -0.19000
N 	N 	0.19990 0.70835 0.17416 -0.18400
N 	N 	0.77600 0.72192 0.14090 -0.10600
N 	N 	0.75550 0.67289 0.15643 -0.19300
N 	N 	0.88810 0.67007 0.13583 -0.18500
N 	N 	0.52820 0.30984 0.24914 -0.19800
N 	N 	0.59180 0.34035 0.23143 -0.18200
N 	N 	0.48630 0.38931 0.25149 -0.18300
N 	N 	0.47370 0.65771 0.23113 -0.19800
N 	N 	0.53960 0.63042 0.21169 -0.18400
N 	N 	0.45050 0.57582 0.24044 -0.18500
C 	C 	0.56730 0.74914 0.09670 0.11600
H 	H 	0.60810 0.74190 0.07280 -0.00600
C 	C 	0.46200 0.78290 0.13230 0.12300
H 	H 	0.41390 0.80400 0.13860 -0.01700
C 	C 	0.48160 0.80814 0.85280 0.11900
H 	H 	0.52860 0.83100 0.84900 -0.01800
C 	C 	0.38040 0.76647 0.88500 0.11300
H 	H 	0.34200 0.75440 0.90860 -0.01100
C 	C 	0.49020 0.82408 0.04460 0.33700
C 	C 	0.47290 0.79381 0.99300 -0.44800
H 	H 	0.41950 0.77240 0.99280 0.18100
H 	H 	0.52300 0.77080 0.98930 0.18500
C 	C 	0.46030 0.83262 0.94700 0.33300
C 	C 	0.37940 0.86710 0.95280 -0.42100
H 	H 	0.36880 0.89140 0.92270 0.14400
H 	H 	0.32640 0.84560 0.95320 0.15000
C 	C 	0.39900 0.89660 0.00470 0.30900
H 	H 	0.34820 0.91950 0.00880 -0.06700
C 	C 	0.41160 0.85810 0.05180 -0.42300
H 	H 	0.42260 0.87690 0.08590 0.14600
H 	H 	0.35830 0.83680 0.05200 0.15700
C 	C 	0.57280 0.85670 0.04510 -0.43200
H 	H 	0.62360 0.83430 0.04130 0.15600
H 	H 	0.58500 0.87540 0.07920 0.14700
C 	C 	0.55890 0.89510 0.99920 0.32100
H 	H 	0.61280 0.91670 0.99940 -0.07300
C 	C 	0.54210 0.86520 0.94710 -0.43600
H 	H 	0.53430 0.88940 0.91690 0.14900
H 	H 	0.59300 0.84280 0.94330 0.15800
C 	C 	0.48110 0.92940 0.00520 -0.42400
H 	H 	0.47260 0.95460 0.97580 0.13900
H 	H 	0.49220 0.94870 0.03900 0.14000
C 	C 	0.75850 0.71410 0.26990 0.11600
H 	H 	0.81280 0.70170 0.26100 -0.00800
C 	C 	0.66100 0.75480 0.30740 0.09800
H 	H 	0.63450 0.77660 0.33060 0.01600
C 	C 	0.10160 0.73440 0.35070 0.10400
H 	H 	0.07570 0.70370 0.36150 -0.01000
C 	C 	0.12150 0.81375 0.33290 0.11300
H 	H 	0.11340 0.84980 0.32830 -0.00600
C 	C 	0.81720 0.77580 0.34450 0.35900
C 	C 	0.90770 0.76354 0.32900 -0.46500
H 	H 	0.91020 0.77380 0.29170 0.18700
H 	H 	0.91940 0.72620 0.33240 0.16600
C 	C 	0.97580 0.79355 0.36620 0.35600
C 	C 	0.95930 0.85150 0.36010 -0.46400
H 	H 	0.00450 0.87080 0.38370 0.16500
H 	H 	0.96240 0.86220 0.32310 0.18100
C 	C 	0.86810 0.86300 0.37510 0.35800
H 	H 	0.85640 0.90080 0.37120 -0.07700
C 	C 	0.79990 0.83406 0.33800 -0.46600
H 	H 	0.80310 0.84450 0.30090 0.16900
H 	H 	0.74040 0.84230 0.34650 0.17500
C 	C 	0.81270 0.75990 0.40170 -0.47100
H 	H 	0.75360 0.76720 0.41120 0.18000
H 	H 	0.82380 0.72250 0.40590 0.16500
C 	C 	0.88140 0.78980 0.43810 0.35700
H 	H 	0.87870 0.77910 0.47560 -0.08500
C 	C 	0.97260 0.77740 0.42370 -0.46100
H 	H 	0.01780 0.79630 0.44750 0.16000
H 	H 	0.98440 0.74010 0.42780 0.16000
C 	C 	0.86390 0.84740 0.43280 -0.47000
H 	H 	0.90850 0.86660 0.45680 0.15700
H 	H 	0.80530 0.85550 0.44270 0.17800
C 	C 	0.28790 0.70470 0.17460 0.09600
H 	H 	0.31630 0.68110 0.15390 0.01100
C 	C 	0.18790 0.74630 0.20880 0.10700
H 	H 	0.13260 0.75790 0.21690 0.01500
C 	C 	0.85580 0.71880 0.12880 0.10400
H 	H 	0.88720 0.74690 0.11670 0.01000
C 	C 	0.82360 0.64220 0.15290 0.09700
H 	H 	0.82620 0.60650 0.16100 0.01600
C 	C 	0.13470 0.67250 0.14530 0.35700
C 	C 	0.14210 0.67460 0.08620 -0.46500
H 	H 	0.20190 0.66460 0.08000 0.18400
H 	H 	0.13070 0.71000 0.07280 0.17000
C 	C 	0.07440 0.63740 0.05710 0.34600
H 	H 	0.07860 0.63830 0.01830 -0.08400
C 	C 	0.98270 0.65410 0.06670 -0.44900
H 	H 	0.93840 0.63080 0.04750 0.15300
H 	H 	0.97090 0.68950 0.05320 0.15800
C 	C 	0.97600 0.65230 0.12630 0.34700
C 	C 	0.04310 0.68937 0.15570 -0.45900
H 	H 	0.03130 0.72500 0.14280 0.18300
H 	H 	0.03920 0.68850 0.19420 0.17400
C 	C 	0.15350 0.61850 0.16650 -0.45400
H 	H 	0.15010 0.61770 0.20510 0.15400
H 	H 	0.21320 0.60790 0.16070 0.16100
C 	C 	0.08540 0.58160 0.13760 0.34200
H 	H 	0.09760 0.54590 0.15130 -0.07500
C 	C 	0.99370 0.59745 0.14730 -0.45800
H 	H 	0.98900 0.59620 0.18570 0.16800
H 	H 	0.94980 0.57350 0.12880 0.17200
C 	C 	0.09240 0.58290 0.07800 -0.45300
H 	H 	0.15190 0.57200 0.07180 0.16800
H 	H 	0.04930 0.55880 0.05910 0.15600
C 	C 	0.46530 0.34026 0.26070 0.11800
H 	H 	0.41320 0.32930 0.27360 -0.02200
C 	C 	0.56500 0.38789 0.23330 0.12100
H 	H 	0.59610 0.41710 0.22340 0.02100
C 	C 	0.42020 0.62395 0.24790 0.10900
H 	H 	0.36850 0.63200 0.26300 -0.02300
C 	C 	0.52370 0.58173 0.21760 0.11700
H 	H 	0.55880 0.55440 0.20730 0.02300
C 	C 	0.42920 0.43333 0.26280 0.35600
C 	C 	0.41050 0.52747 0.25720 0.34300
C 	C 	0.47000 0.48287 0.24510 -0.46000
H 	H 	0.47440 0.48150 0.20660 0.18700
H 	H 	0.52970 0.48750 0.26450 0.17500
C 	C 	0.31890 0.52121 0.22620 -0.44000
H 	H 	0.32260 0.52080 0.18770 0.16400
H 	H 	0.28110 0.55040 0.23390 0.14900
C 	C 	0.27980 0.47063 0.24280 0.32900
H 	H 	0.22000 0.46590 0.22250 -0.06800
C 	C 	0.33890 0.42552 0.23120 -0.44800
H 	H 	0.31330 0.39260 0.24150 0.15900
H 	H 	0.34380 0.42420 0.19280 0.17500
C 	C 	0.42300 0.43468 0.32140 -0.44500
H 	H 	0.48230 0.43870 0.34150 0.14700
H 	H 	0.39770 0.40200 0.33240 0.15000
C 	C 	0.36480 0.47985 0.33340 0.32000
H 	H 	0.36050 0.48100 0.37220 -0.08000
C 	C 	0.40410 0.53023 0.31620 -0.43400
H 	H 	0.36650 0.55960 0.32370 0.14500
H 	H 	0.46320 0.53550 0.33630 0.14500
C 	C 	0.27260 0.47220 0.30210 -0.43400
H 	H 	0.24690 0.43960 0.31300 0.16500
H 	H 	0.23360 0.50080 0.30970 0.15300
O 	O 	0.60830 0.61196 0.12002 -0.75600
H 	H 	0.63810 0.61880 0.09470 0.32900
H 	H 	0.55410 0.61600 0.10810 0.35300
O 	O 	0.32380 0.63789 0.85358 -0.76100
H 	H 	0.37210 0.64520 0.87310 0.36000
H 	H 	0.28300 0.63760 0.87360 0.32300
Cu	Cu	0.35687 0.15820 0.31848 0.90800
Cu	Cu	0.52877 0.23370 0.25980 0.87700
Cu	Cu	0.70227 0.18768 0.70578 0.89500
S 	S 	0.26323 0.02119 0.28188 0.65700
O 	O 	0.34530 0.99990 0.30650 -0.27000
O 	O 	0.23490 0.98520 0.24010 -0.26800
O 	O 	0.19860 0.02280 0.32020 -0.26500
O 	O 	0.27490 0.07444 0.26290 -0.31700
S 	S 	0.60420 0.14720 0.45020 0.65000
O 	O 	0.58640 0.12700 0.39560 -0.29100
O 	O 	0.52110 0.14580 0.47300 -0.26300
O 	O 	0.66720 0.11430 0.48150 -0.26800
O 	O 	0.63820 0.19850 0.44650 -0.29500
S 	S 	0.43819 0.34512 0.08925 0.73300
O 	O 	0.43250 0.35240 0.14630 -0.29600
O 	O 	0.52590 0.36110 0.08040 -0.29500
O 	O 	0.41740 0.29450 0.08020 -0.33800
O 	O 	0.37720 0.37990 0.05880 -0.28500
S 	S 	0.01614 0.34220 0.30658 0.62400
O 	O 	0.10800 0.35720 0.31000 -0.28300
O 	O 	0.00020 0.29437 0.28010 -0.30100
O 	O 	0.96170 0.38310 0.27730 -0.25700
O 	O 	0.98440 0.33300 0.36040 -0.25400
N 	N 	0.43640 0.22521 0.35880 -0.16600
N 	N 	0.50360 0.24703 0.33599 -0.19300
N 	N 	0.49620 0.28610 0.41058 -0.18400
N 	N 	0.55410 0.27649 0.68421 -0.19400
N 	N 	0.61850 0.24981 0.66329 -0.17000
N 	N 	0.55750 0.30369 0.60345 -0.18500
N 	N 	0.31960 0.20080 0.25389 -0.19300
N 	N 	0.38170 0.22746 0.22978 -0.17100
N 	N 	0.25080 0.24817 0.19118 -0.18900
N 	N 	0.82210 0.23638 0.16657 -0.11000
N 	N 	0.80990 0.28809 0.17772 -0.19900
N 	N 	0.93600 0.28152 0.14854 -0.18600
N 	N 	0.67180 0.23842 0.29217 -0.17300
N 	N 	0.73610 0.26468 0.27039 -0.19000
N 	N 	0.80010 0.20835 0.32584 -0.18400
N 	N 	0.22400 0.22192 0.35910 -0.10600
N 	N 	0.24450 0.17289 0.34357 -0.19300
N 	N 	0.11190 0.17007 0.36417 -0.18500
N 	N 	0.47180 0.80984 0.25086 -0.19800
N 	N 	0.40820 0.84035 0.26857 -0.18200
N 	N 	0.51370 0.88931 0.24851 -0.18300
N 	N 	0.52630 0.15771 0.26887 -0.19800
N 	N 	0.46040 0.13042 0.28831 -0.18400
N 	N 	0.54950 0.07582 0.25956 -0.18500
C 	C 	0.43270 0.24914 0.40330 0.11600
H 	H 	0.39190 0.24190 0.42720 -0.00700
C 	C 	0.53800 0.28290 0.36770 0.12300
H 	H 	0.58610 0.30400 0.36140 -0.01700
C 	C 	0.51840 0.30814 0.64720 0.11900
H 	H 	0.47140 0.33100 0.65100 -0.01800
C 	C 	0.61960 0.26647 0.61500 0.11300
H 	H 	0.65800 0.25440 0.59140 -0.01100
C 	C 	0.50980 0.32408 0.45540 0.33700
C 	C 	0.52710 0.29381 0.50700 -0.44800
H 	H 	0.58050 0.27240 0.50720 0.18200
H 	H 	0.47700 0.27080 0.51070 0.18500
C 	C 	0.53970 0.33262 0.55300 0.33300
C 	C 	0.62060 0.36710 0.54720 -0.42100
H 	H 	0.63120 0.39140 0.57730 0.14400
H 	H 	0.67360 0.34560 0.54680 0.15000
C 	C 	0.60100 0.39660 0.49530 0.31000
H 	H 	0.65180 0.41950 0.49120 -0.06800
C 	C 	0.58840 0.35810 0.44820 -0.42300
H 	H 	0.57740 0.37690 0.41410 0.14600
H 	H 	0.64170 0.33680 0.44800 0.15700
C 	C 	0.42720 0.35670 0.45490 -0.43400
H 	H 	0.37640 0.33430 0.45870 0.15600
H 	H 	0.41500 0.37540 0.42080 0.14700
C 	C 	0.44110 0.39510 0.50080 0.32400
H 	H 	0.38720 0.41670 0.50060 -0.07400
C 	C 	0.45790 0.36520 0.55290 -0.43700
H 	H 	0.46570 0.38940 0.58310 0.14900
H 	H 	0.40700 0.34280 0.55670 0.15900
C 	C 	0.51890 0.42940 0.49480 -0.42700
H 	H 	0.52740 0.45460 0.52420 0.14100
H 	H 	0.50780 0.44870 0.46100 0.14000
C 	C 	0.24150 0.21410 0.23010 0.11600
H 	H 	0.18720 0.20170 0.23900 -0.00800
C 	C 	0.33900 0.25480 0.19260 0.09800
H 	H 	0.36550 0.27660 0.16940 0.01600
C 	C 	0.89840 0.23440 0.14930 0.10400
H 	H 	0.92430 0.20370 0.13850 -0.01000
C 	C 	0.87850 0.31375 0.16710 0.11300
H 	H 	0.88660 0.34980 0.17170 -0.00600
C 	C 	0.18280 0.27580 0.15550 0.35900
C 	C 	0.09230 0.26354 0.17100 -0.46400
H 	H 	0.08980 0.27380 0.20830 0.18700
H 	H 	0.08060 0.22620 0.16760 0.16600
C 	C 	0.02420 0.29355 0.13380 0.35600
C 	C 	0.04070 0.35150 0.13990 -0.46200
H 	H 	0.99550 0.37080 0.11630 0.16400
H 	H 	0.03760 0.36220 0.17690 0.18000
C 	C 	0.13190 0.36300 0.12490 0.35700
H 	H 	0.14360 0.40080 0.12880 -0.07700
C 	C 	0.20010 0.33406 0.16200 -0.46500
H 	H 	0.19690 0.34450 0.19910 0.16800
H 	H 	0.25960 0.34230 0.15350 0.17500
C 	C 	0.18730 0.25990 0.09830 -0.47000
H 	H 	0.24640 0.26720 0.08880 0.18000
H 	H 	0.17620 0.22250 0.09410 0.16500
C 	C 	0.11860 0.28980 0.06190 0.35700
H 	H 	0.12130 0.27910 0.02440 -0.08500
C 	C 	0.02740 0.27740 0.07630 -0.45900
H 	H 	0.98220 0.29630 0.05250 0.16000
H 	H 	0.01560 0.24010 0.07220 0.15900
C 	C 	0.13610 0.34740 0.06720 -0.46900
H 	H 	0.09150 0.36660 0.04320 0.15700
H 	H 	0.19470 0.35550 0.05730 0.17700
C 	C 	0.71210 0.20470 0.32540 0.09600
H 	H 	0.68370 0.18110 0.34610 0.01100
C 	C 	0.81210 0.24630 0.29120 0.10700
H 	H 	0.86740 0.25790 0.28310 0.01500
C 	C 	0.14420 0.21880 0.37120 0.10400
H 	H 	0.11280 0.24690 0.38330 0.01000
C 	C 	0.17640 0.14220 0.34710 0.09700
H 	H 	0.17380 0.10650 0.33900 0.01600
C 	C 	0.86530 0.17250 0.35470 0.35600
C 	C 	0.85790 0.17460 0.41380 -0.46500
H 	H 	0.79810 0.16460 0.42000 0.18400
H 	H 	0.86930 0.21000 0.42720 0.17000
C 	C 	0.92560 0.13740 0.44290 0.34600
H 	H 	0.92140 0.13830 0.48170 -0.08400
C 	C 	0.01730 0.15410 0.43330 -0.44900
H 	H 	0.06160 0.13080 0.45250 0.15300
H 	H 	0.02910 0.18950 0.44680 0.15800
C 	C 	0.02400 0.15230 0.37370 0.34800
C 	C 	0.95690 0.18937 0.34430 -0.45900
H 	H 	0.96870 0.22500 0.35720 0.18300
H 	H 	0.96080 0.18850 0.30580 0.17400
C 	C 	0.84650 0.11850 0.33350 -0.45400
H 	H 	0.84990 0.11770 0.29490 0.15400
H 	H 	0.78680 0.10790 0.33930 0.16100
C 	C 	0.91460 0.08160 0.36240 0.34200
H 	H 	0.90240 0.04590 0.34870 -0.07500
C 	C 	0.00630 0.09745 0.35270 -0.45700
H 	H 	0.01100 0.09620 0.31430 0.16800
H 	H 	0.05020 0.07350 0.37120 0.17200
C 	C 	0.90760 0.08290 0.42200 -0.45300
H 	H 	0.84810 0.07200 0.42820 0.16800
H 	H 	0.95070 0.05880 0.44090 0.15600
C 	C 	0.53470 0.84026 0.23930 0.11800
H 	H 	0.58680 0.82930 0.22640 -0.02200
C 	C 	0.43500 0.88789 0.26670 0.12100
H 	H 	0.40390 0.91710 0.27660 0.02100
C 	C 	0.57980 0.12395 0.25210 0.10900
H 	H 	0.63150 0.13200 0.23700 -0.02300
C 	C 	0.47630 0.08173 0.28240 0.11600
H 	H 	0.44120 0.05440 0.29270 0.02300
C 	C 	0.57080 0.93333 0.23720 0.35600
C 	C 	0.58950 0.02747 0.24280 0.34300
C 	C 	0.53000 0.98287 0.25490 -0.46000
H 	H 	0.52560 0.98150 0.29340 0.18700
H 	H 	0.47030 0.98750 0.23550 0.17500
C 	C 	0.68110 0.02121 0.27380 -0.44000
H 	H 	0.67740 0.02080 0.31230 0.16400
H 	H 	0.71890 0.05040 0.26610 0.14900
C 	C 	0.72020 0.97063 0.25720 0.32900
H 	H 	0.78000 0.96590 0.27750 -0.06800
C 	C 	0.66110 0.92552 0.26880 -0.44800
H 	H 	0.68670 0.89260 0.25850 0.15900
H 	H 	0.65620 0.92420 0.30720 0.17500
C 	C 	0.57700 0.93468 0.17860 -0.44500
H 	H 	0.51770 0.93870 0.15850 0.14800
H 	H 	0.60230 0.90200 0.16760 0.15000
C 	C 	0.63520 0.97985 0.16660 0.32100
H 	H 	0.63950 0.98100 0.12780 -0.08000
C 	C 	0.59590 0.03023 0.18380 -0.43400
H 	H 	0.63350 0.05960 0.17630 0.14500
H 	H 	0.53680 0.03550 0.16370 0.14500
C 	C 	0.72740 0.97220 0.19790 -0.43400
H 	H 	0.75310 0.93960 0.18700 0.16500
H 	H 	0.76640 0.00080 0.19030 0.15300
O 	O 	0.39170 0.11196 0.37998 -0.75600
H 	H 	0.36190 0.11880 0.40530 0.32900
H 	H 	0.44590 0.11600 0.39190 0.35300
O 	O 	0.67620 0.13789 0.64642 -0.76100
H 	H 	0.62790 0.14520 0.62690 0.36000
H 	H 	0.71700 0.13760 0.62640 0.32300
Cu	Cu	0.35687 0.34180 0.81848 0.90800
Cu	Cu	0.52877 0.26630 0.75980 0.87700
Cu	Cu	0.70227 0.31232 0.20578 0.89500
S 	S 	0.26323 0.47881 0.78188 0.65800
O 	O 	0.34530 0.50010 0.80650 -0.27000
O 	O 	0.23490 0.51480 0.74010 -0.26800
O 	O 	0.19860 0.47720 0.82020 -0.26600
O 	O 	0.27490 0.42556 0.76290 -0.31700
S 	S 	0.60420 0.35280 0.95020 0.65000
O 	O 	0.58640 0.37300 0.89560 -0.29100
O 	O 	0.52110 0.35420 0.97300 -0.26300
O 	O 	0.66720 0.38570 0.98150 -0.26800
O 	O 	0.63820 0.30150 0.94650 -0.29500
S 	S 	0.43819 0.15488 0.58925 0.73300
O 	O 	0.43250 0.14760 0.64630 -0.29600
O 	O 	0.52590 0.13890 0.58040 -0.29500
O 	O 	0.41740 0.20550 0.58020 -0.33800
O 	O 	0.37720 0.12010 0.55880 -0.28500
S 	S 	0.01614 0.15780 0.80658 0.62200
O 	O 	0.10800 0.14280 0.81000 -0.28300
O 	O 	0.00020 0.20563 0.78010 -0.30100
O 	O 	0.96170 0.11690 0.77730 -0.25700
O 	O 	0.98440 0.16700 0.86040 -0.25400
N 	N 	0.43640 0.27479 0.85880 -0.16600
N 	N 	0.50360 0.25297 0.83599 -0.19300
N 	N 	0.49620 0.21390 0.91058 -0.18400
N 	N 	0.55410 0.22351 0.18421 -0.19400
N 	N 	0.61850 0.25019 0.16329 -0.17000
N 	N 	0.55750 0.19631 0.10345 -0.18500
N 	N 	0.31960 0.29920 0.75389 -0.19300
N 	N 	0.38170 0.27254 0.72978 -0.17100
N 	N 	0.25080 0.25183 0.69118 -0.18900
N 	N 	0.82210 0.26362 0.66657 -0.11000
N 	N 	0.80990 0.21191 0.67772 -0.19900
N 	N 	0.93600 0.21848 0.64854 -0.18600
N 	N 	0.67180 0.26158 0.79217 -0.17300
N 	N 	0.73610 0.23532 0.77039 -0.19000
N 	N 	0.80010 0.29165 0.82584 -0.18400
N 	N 	0.22400 0.27808 0.85910 -0.10600
N 	N 	0.24450 0.32711 0.84357 -0.19300
N 	N 	0.11190 0.32993 0.86417 -0.18500
N 	N 	0.47180 0.69016 0.75086 -0.19800
N 	N 	0.40820 0.65965 0.76857 -0.18200
N 	N 	0.51370 0.61069 0.74851 -0.18300
N 	N 	0.52630 0.34229 0.76887 -0.19800
N 	N 	0.46040 0.36958 0.78831 -0.18400
N 	N 	0.54950 0.42418 0.75956 -0.18500
C 	C 	0.43270 0.25086 0.90330 0.11600
H 	H 	0.39190 0.25810 0.92720 -0.00600
C 	C 	0.53800 0.21710 0.86770 0.12300
H 	H 	0.58610 0.19600 0.86140 -0.01700
C 	C 	0.51840 0.19186 0.14720 0.11900
H 	H 	0.47140 0.16900 0.15100 -0.01800
C 	C 	0.61960 0.23353 0.11500 0.11300
H 	H 	0.65800 0.24560 0.09140 -0.01100
C 	C 	0.50980 0.17592 0.95540 0.33700
C 	C 	0.52710 0.20619 0.00700 -0.44800
H 	H 	0.58050 0.22760 0.00720 0.18100
H 	H 	0.47700 0.22920 0.01070 0.18500
C 	C 	0.53970 0.16738 0.05300 0.33300
C 	C 	0.62060 0.13290 0.04720 -0.42100
H 	H 	0.63120 0.10860 0.07730 0.14400
H 	H 	0.67360 0.15440 0.04680 0.15000
C 	C 	0.60100 0.10340 0.99530 0.30900
H 	H 	0.65180 0.08050 0.99120 -0.06700
C 	C 	0.58840 0.14190 0.94820 -0.42300
H 	H 	0.57740 0.12310 0.91410 0.14600
H 	H 	0.64170 0.16320 0.94800 0.15700
C 	C 	0.42720 0.14330 0.95490 -0.43200
H 	H 	0.37640 0.16570 0.95870 0.15600
H 	H 	0.41500 0.12460 0.92080 0.14700
C 	C 	0.44110 0.10490 0.00080 0.32100
H 	H 	0.38720 0.08330 0.00060 -0.07300
C 	C 	0.45790 0.13480 0.05290 -0.43600
H 	H 	0.46570 0.11060 0.08310 0.14900
H 	H 	0.40700 0.15720 0.05670 0.15800
C 	C 	0.51890 0.07060 0.99480 -0.42400
H 	H 	0.52740 0.04540 0.02420 0.13900
H 	H 	0.50780 0.05130 0.96100 0.14000
C 	C 	0.24150 0.28590 0.73010 0.11600
H 	H 	0.18720 0.29830 0.73900 -0.00800
C 	C 	0.33900 0.24520 0.69260 0.09800
H 	H 	0.36550 0.22340 0.66940 0.01600
C 	C 	0.89840 0.26560 0.64930 0.10400
H 	H 	0.92430 0.29630 0.63850 -0.01000
C 	C 	0.87850 0.18625 0.66710 0.11300
H 	H 	0.88660 0.15020 0.67170 -0.00600
C 	C 	0.18280 0.22420 0.65550 0.35900
C 	C 	0.09230 0.23646 0.67100 -0.46500
H 	H 	0.08980 0.22620 0.70830 0.18700
H 	H 	0.08060 0.27380 0.66760 0.16600
C 	C 	0.02420 0.20645 0.63380 0.35600
C 	C 	0.04070 0.14850 0.63990 -0.46400
H 	H 	0.99550 0.12920 0.61630 0.16500
H 	H 	0.03760 0.13780 0.67690 0.18100
C 	C 	0.13190 0.13700 0.62490 0.35800
H 	H 	0.14360 0.09920 0.62880 -0.07700
C 	C 	0.20010 0.16594 0.66200 -0.46600
H 	H 	0.19690 0.15550 0.69910 0.16900
H 	H 	0.25960 0.15770 0.65350 0.17500
C 	C 	0.18730 0.24010 0.59830 -0.47100
H 	H 	0.24640 0.23280 0.58880 0.18000
H 	H 	0.17620 0.27750 0.59410 0.16500
C 	C 	0.11860 0.21020 0.56190 0.35700
H 	H 	0.12130 0.22090 0.52440 -0.08500
C 	C 	0.02740 0.22260 0.57630 -0.46100
H 	H 	0.98220 0.20370 0.55250 0.16000
H 	H 	0.01560 0.25990 0.57220 0.16000
C 	C 	0.13610 0.15260 0.56720 -0.47000
H 	H 	0.09150 0.13340 0.54320 0.15700
H 	H 	0.19470 0.14450 0.55730 0.17800
C 	C 	0.71210 0.29530 0.82540 0.09600
H 	H 	0.68370 0.31890 0.84610 0.01100
C 	C 	0.81210 0.25370 0.79120 0.10700
H 	H 	0.86740 0.24210 0.78310 0.01500
C 	C 	0.14420 0.28120 0.87120 0.10400
H 	H 	0.11280 0.25310 0.88330 0.01000
C 	C 	0.17640 0.35780 0.84710 0.09700
H 	H 	0.17380 0.39350 0.83900 0.01600
C 	C 	0.86530 0.32750 0.85470 0.35700
C 	C 	0.85790 0.32540 0.91380 -0.46500
H 	H 	0.79810 0.33540 0.92000 0.18400
H 	H 	0.86930 0.29000 0.92720 0.17000
C 	C 	0.92560 0.36260 0.94290 0.34600
H 	H 	0.92140 0.36170 0.98170 -0.08400
C 	C 	0.01730 0.34590 0.93330 -0.44900
H 	H 	0.06160 0.36920 0.95250 0.15300
H 	H 	0.02910 0.31050 0.94680 0.15800
C 	C 	0.02400 0.34770 0.87370 0.34700
C 	C 	0.95690 0.31063 0.84430 -0.45900
H 	H 	0.96870 0.27500 0.85720 0.18300
H 	H 	0.96080 0.31150 0.80580 0.17400
C 	C 	0.84650 0.38150 0.83350 -0.45400
H 	H 	0.84990 0.38230 0.79490 0.15400
H 	H 	0.78680 0.39210 0.83930 0.16100
C 	C 	0.91460 0.41840 0.86240 0.34200
H 	H 	0.90240 0.45410 0.84870 -0.07500
C 	C 	0.00630 0.40255 0.85270 -0.45800
H 	H 	0.01100 0.40380 0.81430 0.16800
H 	H 	0.05020 0.42650 0.87120 0.17200
C 	C 	0.90760 0.41710 0.92200 -0.45300
H 	H 	0.84810 0.42800 0.92820 0.16800
H 	H 	0.95070 0.44120 0.94090 0.15600
C 	C 	0.53470 0.65974 0.73930 0.11800
H 	H 	0.58680 0.67070 0.72640 -0.02200
C 	C 	0.43500 0.61211 0.76670 0.12100
H 	H 	0.40390 0.58290 0.77660 0.02100
C 	C 	0.57980 0.37605 0.75210 0.10900
H 	H 	0.63150 0.36800 0.73700 -0.02300
C 	C 	0.47630 0.41827 0.78240 0.11700
H 	H 	0.44120 0.44560 0.79270 0.02300
C 	C 	0.57080 0.56667 0.73720 0.35600
C 	C 	0.58950 0.47253 0.74280 0.34300
C 	C 	0.53000 0.51713 0.75490 -0.46000
H 	H 	0.52560 0.51850 0.79340 0.18700
H 	H 	0.47030 0.51250 0.73550 0.17500
C 	C 	0.68110 0.47879 0.77380 -0.44000
H 	H 	0.67740 0.47920 0.81230 0.16400
H 	H 	0.71890 0.44960 0.76610 0.14900
C 	C 	0.72020 0.52937 0.75720 0.32900
H 	H 	0.78000 0.53410 0.77750 -0.06800
C 	C 	0.66110 0.57448 0.76880 -0.44800
H 	H 	0.68670 0.60740 0.75850 0.15900
H 	H 	0.65620 0.57580 0.80720 0.17500
C 	C 	0.57700 0.56532 0.67860 -0.44500
H 	H 	0.51770 0.56130 0.65850 0.14700
H 	H 	0.60230 0.59800 0.66760 0.15000
C 	C 	0.63520 0.52015 0.66660 0.32000
H 	H 	0.63950 0.51900 0.62780 -0.08000
C 	C 	0.59590 0.46977 0.68380 -0.43400
H 	H 	0.63350 0.44040 0.67630 0.14500
H 	H 	0.53680 0.46450 0.66370 0.14500
C 	C 	0.72740 0.52780 0.69790 -0.43400
H 	H 	0.75310 0.56040 0.68700 0.16500
H 	H 	0.76640 0.49920 0.69030 0.15300
O 	O 	0.39170 0.38804 0.87998 -0.75600
H 	H 	0.36190 0.38120 0.90530 0.32900
H 	H 	0.44590 0.38400 0.89190 0.35300
O 	O 	0.67620 0.36211 0.14642 -0.76100
H 	H 	0.62790 0.35480 0.12690 0.36000
H 	H 	0.71700 0.36240 0.12640 0.32300
Cu	Cu	0.64313 0.84180 0.68152 0.90800
Cu	Cu	0.47123 0.76630 0.74020 0.87700
Cu	Cu	0.29773 0.81232 0.29422 0.89500
S 	S 	0.73677 0.97881 0.71812 0.65700
O 	O 	0.65470 0.00010 0.69350 -0.27000
O 	O 	0.76510 0.01480 0.75990 -0.26800
O 	O 	0.80140 0.97720 0.67980 -0.26500
O 	O 	0.72510 0.92556 0.73710 -0.31700
S 	S 	0.39580 0.85280 0.54980 0.65000
O 	O 	0.41360 0.87300 0.60440 -0.29100
O 	O 	0.47890 0.85420 0.52700 -0.26300
O 	O 	0.33280 0.88570 0.51850 -0.26800
O 	O 	0.36180 0.80150 0.55350 -0.29500
S 	S 	0.56181 0.65488 0.91075 0.73300
O 	O 	0.56750 0.64760 0.85370 -0.29600
O 	O 	0.47410 0.63890 0.91960 -0.29500
O 	O 	0.58260 0.70550 0.91980 -0.33800
O 	O 	0.62280 0.62010 0.94120 -0.28500
S 	S 	0.98386 0.65780 0.69342 0.62400
O 	O 	0.89200 0.64280 0.69000 -0.28300
O 	O 	0.99980 0.70563 0.71990 -0.30100
O 	O 	0.03830 0.61690 0.72270 -0.25700
O 	O 	0.01560 0.66700 0.63960 -0.25400
N 	N 	0.56360 0.77479 0.64120 -0.16600
N 	N 	0.49640 0.75297 0.66401 -0.19300
N 	N 	0.50380 0.71390 0.58942 -0.18400
N 	N 	0.44590 0.72351 0.31579 -0.19400
N 	N 	0.38150 0.75019 0.33671 -0.17000
N 	N 	0.44250 0.69631 0.39655 -0.18500
N 	N 	0.68040 0.79920 0.74611 -0.19300
N 	N 	0.61830 0.77254 0.77022 -0.17100
N 	N 	0.74920 0.75183 0.80882 -0.18900
N 	N 	0.17790 0.76362 0.83343 -0.11000
N 	N 	0.19010 0.71191 0.82228 -0.19900
N 	N 	0.06400 0.71848 0.85146 -0.18600
N 	N 	0.32820 0.76158 0.70783 -0.17300
N 	N 	0.26390 0.73532 0.72961 -0.19000
N 	N 	0.19990 0.79165 0.67416 -0.18400
N 	N 	0.77600 0.77808 0.64090 -0.10600
N 	N 	0.75550 0.82711 0.65643 -0.19300
N 	N 	0.88810 0.82993 0.63583 -0.18500
N 	N 	0.52820 0.19016 0.74914 -0.19800
N 	N 	0.59180 0.15965 0.73143 -0.18200
N 	N 	0.48630 0.11069 0.75149 -0.18300
N 	N 	0.47370 0.84229 0.73113 -0.19800
N 	N 	0.53960 0.86958 0.71169 -0.18400
N 	N 	0.45050 0.92418 0.74044 -0.18500
C 	C 	0.56730 0.75086 0.59670 0.11600
H 	H 	0.60810 0.75810 0.57280 -0.00700
C 	C 	0.46200 0.71710 0.63230 0.12300
H 	H 	0.41390 0.69600 0.63860 -0.01700
C 	C 	0.48160 0.69186 0.35280 0.11900
H 	H 	0.52860 0.66900 0.34900 -0.01800
C 	C 	0.38040 0.73353 0.38500 0.11300
H 	H 	0.34200 0.74560 0.40860 -0.01100
C 	C 	0.49020 0.67592 0.54460 0.33700
C 	C 	0.47290 0.70619 0.49300 -0.44800
H 	H 	0.41950 0.72760 0.49280 0.18200
H 	H 	0.52300 0.72920 0.48930 0.18500
C 	C 	0.46030 0.66738 0.44700 0.33300
C 	C 	0.37940 0.63290 0.45280 -0.42100
H 	H 	0.36880 0.60860 0.42270 0.14400
H 	H 	0.32640 0.65440 0.45320 0.15000
C 	C 	0.39900 0.60340 0.50470 0.31000
H 	H 	0.34820 0.58050 0.50880 -0.06800
C 	C 	0.41160 0.64190 0.55180 -0.42300
H 	H 	0.42260 0.62310 0.58590 0.14600
H 	H 	0.35830 0.66320 0.55200 0.15700
C 	C 	0.57280 0.64330 0.54510 -0.43400
H 	H 	0.62360 0.66570 0.54130 0.15600
H 	H 	0.58500 0.62460 0.57920 0.14700
C 	C 	0.55890 0.60490 0.49920 0.32400
H 	H 	0.61280 0.58330 0.49940 -0.07400
C 	C 	0.54210 0.63480 0.44710 -0.43700
H 	H 	0.53430 0.61060 0.41690 0.14900
H 	H 	0.59300 0.65720 0.44330 0.15900
C 	C 	0.48110 0.57060 0.50520 -0.42700
H 	H 	0.47260 0.54540 0.47580 0.14100
H 	H 	0.49220 0.55130 0.53900 0.14000
C 	C 	0.75850 0.78590 0.76990 0.11600
H 	H 	0.81280 0.79830 0.76100 -0.00800
C 	C 	0.66100 0.74520 0.80740 0.09800
H 	H 	0.63450 0.72340 0.83060 0.01600
C 	C 	0.10160 0.76560 0.85070 0.10400
H 	H 	0.07570 0.79630 0.86150 -0.01000
C 	C 	0.12150 0.68625 0.83290 0.11300
H 	H 	0.11340 0.65020 0.82830 -0.00600
C 	C 	0.81720 0.72420 0.84450 0.35900
C 	C 	0.90770 0.73646 0.82900 -0.46400
H 	H 	0.91020 0.72620 0.79170 0.18700
H 	H 	0.91940 0.77380 0.83240 0.16600
C 	C 	0.97580 0.70645 0.86620 0.35600
C 	C 	0.95930 0.64850 0.86010 -0.46200
H 	H 	0.00450 0.62920 0.88370 0.16400
H 	H 	0.96240 0.63780 0.82310 0.18000
C 	C 	0.86810 0.63700 0.87510 0.35700
H 	H 	0.85640 0.59920 0.87120 -0.07700
C 	C 	0.79990 0.66594 0.83800 -0.46500
H 	H 	0.80310 0.65550 0.80090 0.16800
H 	H 	0.74040 0.65770 0.84650 0.17500
C 	C 	0.81270 0.74010 0.90170 -0.47000
H 	H 	0.75360 0.73280 0.91120 0.18000
H 	H 	0.82380 0.77750 0.90590 0.16500
C 	C 	0.88140 0.71020 0.93810 0.35700
H 	H 	0.87870 0.72090 0.97560 -0.08500
C 	C 	0.97260 0.72260 0.92370 -0.45900
H 	H 	0.01780 0.70370 0.94750 0.16000
H 	H 	0.98440 0.75990 0.92780 0.15900
C 	C 	0.86390 0.65260 0.93280 -0.46900
H 	H 	0.90850 0.63340 0.95680 0.15700
H 	H 	0.80530 0.64450 0.94270 0.17700
C 	C 	0.28790 0.79530 0.67460 0.09600
H 	H 	0.31630 0.81890 0.65390 0.01100
C 	C 	0.18790 0.75370 0.70880 0.10700
H 	H 	0.13260 0.74210 0.71690 0.01500
C 	C 	0.85580 0.78120 0.62880 0.10400
H 	H 	0.88720 0.75310 0.61670 0.01000
C 	C 	0.82360 0.85780 0.65290 0.09700
H 	H 	0.82620 0.89350 0.66100 0.01600
C 	C 	0.13470 0.82750 0.64530 0.35600
C 	C 	0.14210 0.82540 0.58620 -0.46500
H 	H 	0.20190 0.83540 0.58000 0.18400
H 	H 	0.13070 0.79000 0.57280 0.17000
C 	C 	0.07440 0.86260 0.55710 0.34600
H 	H 	0.07860 0.86170 0.51830 -0.08400
C 	C 	0.98270 0.84590 0.56670 -0.44900
H 	H 	0.93840 0.86920 0.54750 0.15300
H 	H 	0.97090 0.81050 0.55320 0.15800
C 	C 	0.97600 0.84770 0.62630 0.34800
C 	C 	0.04310 0.81063 0.65570 -0.45900
H 	H 	0.03130 0.77500 0.64280 0.18300
H 	H 	0.03920 0.81150 0.69420 0.17400
C 	C 	0.15350 0.88150 0.66650 -0.45400
H 	H 	0.15010 0.88230 0.70510 0.15400
H 	H 	0.21320 0.89210 0.66070 0.16100
C 	C 	0.08540 0.91840 0.63760 0.34200
H 	H 	0.09760 0.95410 0.65130 -0.07500
C 	C 	0.99370 0.90255 0.64730 -0.45700
H 	H 	0.98900 0.90380 0.68570 0.16800
H 	H 	0.94980 0.92650 0.62880 0.17200
C 	C 	0.09240 0.91710 0.57800 -0.45300
H 	H 	0.15190 0.92800 0.57180 0.16800
H 	H 	0.04930 0.94120 0.55910 0.15600
C 	C 	0.46530 0.15974 0.76070 0.11800
H 	H 	0.41320 0.17070 0.77360 -0.02200
C 	C 	0.56500 0.11211 0.73330 0.12100
H 	H 	0.59610 0.08290 0.72340 0.02100
C 	C 	0.42020 0.87605 0.74790 0.10900
H 	H 	0.36850 0.86800 0.76300 -0.02300
C 	C 	0.52370 0.91827 0.71760 0.11600
H 	H 	0.55880 0.94560 0.70730 0.02300
C 	C 	0.42920 0.06667 0.76280 0.35600
C 	C 	0.41050 0.97253 0.75720 0.34300
C 	C 	0.47000 0.01713 0.74510 -0.46000
H 	H 	0.47440 0.01850 0.70660 0.18700
H 	H 	0.52970 0.01250 0.76450 0.17500
C 	C 	0.31890 0.97879 0.72620 -0.44000
H 	H 	0.32260 0.97920 0.68770 0.16400
H 	H 	0.28110 0.94960 0.73390 0.14900
C 	C 	0.27980 0.02937 0.74280 0.32900
H 	H 	0.22000 0.03410 0.72250 -0.06800
C 	C 	0.33890 0.07448 0.73120 -0.44800
H 	H 	0.31330 0.10740 0.74150 0.15900
H 	H 	0.34380 0.07580 0.69280 0.17500
C 	C 	0.42300 0.06532 0.82140 -0.44500
H 	H 	0.48230 0.06130 0.84150 0.14800
H 	H 	0.39770 0.09800 0.83240 0.15000
C 	C 	0.36480 0.02015 0.83340 0.32100
H 	H 	0.36050 0.01900 0.87220 -0.08000
C 	C 	0.40410 0.96977 0.81620 -0.43400
H 	H 	0.36650 0.94040 0.82370 0.14500
H 	H 	0.46320 0.96450 0.83630 0.14500
C 	C 	0.27260 0.02780 0.80210 -0.43400
H 	H 	0.24690 0.06040 0.81300 0.16500
H 	H 	0.23360 0.99920 0.80970 0.15300
O 	O 	0.60830 0.88804 0.62002 -0.75600
H 	H 	0.63810 0.88120 0.59470 0.32900
H 	H 	0.55410 0.88400 0.60810 0.35300
O 	O 	0.32380 0.86211 0.35358 -0.76100
H 	H 	0.37210 0.85480 0.37310 0.36000
H 	H 	0.28300 0.86240 0.37360 0.32300
