data_crystal

_cell_length_a 11.56400
_cell_length_b 22.34700
_cell_length_c 10.17900
_cell_angle_alpha 90.00000
_cell_angle_beta  103.34300
_cell_angle_gamma 90.00000

_symmetry_space_group_name_	'P 1'
_symmetry_space_group_name_H-M	'P 1'

loop_
_symmetry_equiv_pos_as_xyz
  x,y,z

loop_
_atom_site_label
_atom_site_type_symbol
_atom_site_fract_x
_atom_site_fract_y
_atom_site_fract_z
_atom_site_charge
Cd	Cd	0.18677 0.09006 0.85486 1.21300
C 	C 	0.17080 0.78723 0.74810 -0.27700
H 	H 	0.09570 0.78870 0.69030 0.13300
C 	C 	0.22750 0.83921 0.80120 0.21400
C 	C 	0.34150 0.83694 0.88420 -0.27800
H 	H 	0.37980 0.87190 0.92000 0.13200
C 	C 	0.39720 0.78204 0.91270 0.22100
C 	C 	0.34140 0.72910 0.86310 -0.28100
H 	H 	0.37900 0.69240 0.88350 0.13100
C 	C 	0.22730 0.73292 0.78220 0.21900
C 	C 	0.19920 0.94642 0.84510 0.09200
H 	H 	0.26180 0.94940 0.92080 -0.00500
C 	C 	0.05070 0.96782 0.68450 0.01000
H 	H 	0.99050 0.98950 0.62790 0.01400
C 	C 	0.07270 0.90939 0.67020 -0.00900
H 	H 	0.03140 0.88360 0.60410 0.03600
C 	C 	0.59530 0.82569 0.99630 0.09700
H 	H 	0.58310 0.85720 0.93500 -0.00600
C 	C 	0.67210 0.76815 0.15850 0.00900
H 	H 	0.72520 0.75180 0.23260 0.02800
C 	C 	0.56390 0.74507 0.10120 0.01100
H 	H 	0.52970 0.71090 0.12800 0.03200
C 	C 	0.04390 0.67295 0.73590 0.09700
H 	H 	0.99840 0.70110 0.76860 -0.01700
C 	C 	0.09890 0.59356 0.64890 0.00200
H 	H 	0.09620 0.55590 0.60960 0.02100
C 	C 	0.19640 0.62884 0.67980 -0.00200
H 	H 	0.27150 0.62040 0.66620 0.03100
C 	C 	0.26610 0.07146 0.13440 0.23500
C 	C 	0.28670 0.09016 0.63170 0.23600
C 	C 	0.66330 0.07113 0.46540 -0.96400
H 	H 	0.69470 0.11010 0.45390 0.31700
H 	H 	0.68620 0.04360 0.40370 0.32400
H 	H 	0.69420 0.05770 0.55630 0.31700
C 	C 	0.33790 0.07503 0.27840 0.08700
C 	C 	0.28150 0.08486 0.38340 -0.15400
H 	H 	0.19970 0.09050 0.36500 0.10000
C 	C 	0.34830 0.08626 0.51630 0.08500
C 	C 	0.47110 0.08114 0.54140 -0.31500
H 	H 	0.51540 0.08230 0.63010 0.14900
C 	C 	0.52940 0.07435 0.43760 0.40700
C 	C 	0.46090 0.07006 0.30640 -0.31300
H 	H 	0.49820 0.06370 0.23590 0.15300
N 	N 	0.12960 0.99103 0.79490 -0.22100
N 	N 	0.16940 0.89542 0.77390 -0.15900
N 	N 	0.69230 0.81886 0.09190 -0.20800
N 	N 	0.51530 0.78187 0.99700 -0.15700
N 	N 	0.00387 0.62158 0.68400 -0.23800
N 	N 	0.16079 0.68003 0.73580 -0.15800
O 	O 	0.16280 0.09095 0.10490 -0.32700
O 	O 	0.31733 0.05068 0.04711 -0.35800
O 	O 	0.18427 0.11200 0.61290 -0.34800
O 	O 	0.34030 0.06948 0.74421 -0.36100
Cd	Cd	0.81323 0.59006 0.64514 1.21500
C 	C 	0.82920 0.28723 0.75190 -0.27700
H 	H 	0.90430 0.28870 0.80970 0.13300
C 	C 	0.77250 0.33921 0.69880 0.21400
C 	C 	0.65850 0.33694 0.61580 -0.27800
H 	H 	0.62020 0.37190 0.58000 0.13200
C 	C 	0.60280 0.28204 0.58730 0.22200
C 	C 	0.65860 0.22910 0.63690 -0.28100
H 	H 	0.62100 0.19240 0.61650 0.13100
C 	C 	0.77270 0.23292 0.71780 0.22000
C 	C 	0.80080 0.44642 0.65490 0.09200
H 	H 	0.73820 0.44940 0.57920 -0.00500
C 	C 	0.94930 0.46782 0.81550 0.01400
H 	H 	0.00950 0.48950 0.87210 0.01200
C 	C 	0.92730 0.40939 0.82980 -0.01100
H 	H 	0.96860 0.38360 0.89590 0.03700
C 	C 	0.40470 0.32569 0.50370 0.09400
H 	H 	0.41690 0.35720 0.56500 -0.00500
C 	C 	0.32790 0.26815 0.34150 0.00800
H 	H 	0.27480 0.25180 0.26740 0.02800
C 	C 	0.43610 0.24507 0.39880 0.01300
H 	H 	0.47030 0.21090 0.37200 0.03100
C 	C 	0.95610 0.17295 0.76410 0.10400
H 	H 	0.00160 0.20110 0.73140 -0.02200
C 	C 	0.90110 0.09356 0.85110 0.00200
H 	H 	0.90380 0.05590 0.89040 0.02100
C 	C 	0.80360 0.12884 0.82020 -0.00200
H 	H 	0.72850 0.12040 0.83380 0.03100
C 	C 	0.73390 0.57146 0.36560 0.23500
C 	C 	0.71330 0.59016 0.86830 0.23500
C 	C 	0.33670 0.57113 0.03460 -0.95900
H 	H 	0.30530 0.61010 0.04610 0.31500
H 	H 	0.31380 0.54360 0.09630 0.32300
H 	H 	0.30580 0.55770 0.94370 0.31500
C 	C 	0.66210 0.57503 0.22160 0.08700
C 	C 	0.71850 0.58486 0.11660 -0.15600
H 	H 	0.80030 0.59050 0.13500 0.10000
C 	C 	0.65170 0.58626 0.98370 0.08700
C 	C 	0.52890 0.58114 0.95860 -0.31400
H 	H 	0.48460 0.58230 0.86990 0.14900
C 	C 	0.47060 0.57435 0.06240 0.40500
C 	C 	0.53910 0.57006 0.19360 -0.31200
H 	H 	0.50180 0.56370 0.26410 0.15300
N 	N 	0.87040 0.49103 0.70510 -0.22200
N 	N 	0.83060 0.39542 0.72610 -0.15800
N 	N 	0.30770 0.31886 0.40810 -0.20500
N 	N 	0.48470 0.28187 0.50300 -0.15700
N 	N 	0.99613 0.12158 0.81600 -0.23900
N 	N 	0.83921 0.18003 0.76420 -0.16000
O 	O 	0.83720 0.59095 0.39510 -0.32800
O 	O 	0.68267 0.55068 0.45289 -0.35900
O 	O 	0.81573 0.61200 0.88710 -0.34600
O 	O 	0.65970 0.56948 0.75579 -0.35900
Cd	Cd	0.81323 0.90994 0.14514 1.21300
C 	C 	0.82920 0.21277 0.25190 -0.27700
H 	H 	0.90430 0.21130 0.30970 0.13300
C 	C 	0.77250 0.16079 0.19880 0.21400
C 	C 	0.65850 0.16306 0.11580 -0.27800
H 	H 	0.62020 0.12810 0.08000 0.13200
C 	C 	0.60280 0.21796 0.08730 0.22100
C 	C 	0.65860 0.27090 0.13690 -0.28100
H 	H 	0.62100 0.30760 0.11650 0.13100
C 	C 	0.77270 0.26708 0.21780 0.21900
C 	C 	0.80080 0.05358 0.15490 0.09200
H 	H 	0.73820 0.05060 0.07920 -0.00500
C 	C 	0.94930 0.03218 0.31550 0.01000
H 	H 	0.00950 0.01050 0.37210 0.01400
C 	C 	0.92730 0.09061 0.32980 -0.00900
H 	H 	0.96860 0.11640 0.39590 0.03600
C 	C 	0.40470 0.17431 0.00370 0.09700
H 	H 	0.41690 0.14280 0.06500 -0.00600
C 	C 	0.32790 0.23185 0.84150 0.00900
H 	H 	0.27480 0.24820 0.76740 0.02800
C 	C 	0.43610 0.25493 0.89880 0.01100
H 	H 	0.47030 0.28910 0.87200 0.03200
C 	C 	0.95610 0.32705 0.26410 0.09700
H 	H 	0.00160 0.29890 0.23140 -0.01700
C 	C 	0.90110 0.40644 0.35110 0.00200
H 	H 	0.90380 0.44410 0.39040 0.02100
C 	C 	0.80360 0.37116 0.32020 -0.00200
H 	H 	0.72850 0.37960 0.33380 0.03100
C 	C 	0.73390 0.92854 0.86560 0.23500
C 	C 	0.71330 0.90984 0.36830 0.23600
C 	C 	0.33670 0.92887 0.53460 -0.96400
H 	H 	0.30530 0.88990 0.54610 0.31700
H 	H 	0.31380 0.95640 0.59630 0.32400
H 	H 	0.30580 0.94230 0.44370 0.31700
C 	C 	0.66210 0.92497 0.72160 0.08700
C 	C 	0.71850 0.91514 0.61660 -0.15400
H 	H 	0.80030 0.90950 0.63500 0.10000
C 	C 	0.65170 0.91374 0.48370 0.08500
C 	C 	0.52890 0.91886 0.45860 -0.31500
H 	H 	0.48460 0.91770 0.36990 0.14900
C 	C 	0.47060 0.92565 0.56240 0.40700
C 	C 	0.53910 0.92994 0.69360 -0.31300
H 	H 	0.50180 0.93630 0.76410 0.15300
N 	N 	0.87040 0.00897 0.20510 -0.22100
N 	N 	0.83060 0.10458 0.22610 -0.15900
N 	N 	0.30770 0.18114 0.90810 -0.20800
N 	N 	0.48470 0.21813 0.00300 -0.15700
N 	N 	0.99613 0.37842 0.31600 -0.23800
N 	N 	0.83921 0.31997 0.26420 -0.15800
O 	O 	0.83720 0.90905 0.89510 -0.32700
O 	O 	0.68267 0.94932 0.95289 -0.35800
O 	O 	0.81573 0.88800 0.38710 -0.34800
O 	O 	0.65970 0.93052 0.25579 -0.36100
Cd	Cd	0.18677 0.40994 0.35486 1.21500
C 	C 	0.17080 0.71277 0.24810 -0.27700
H 	H 	0.09570 0.71130 0.19030 0.13300
C 	C 	0.22750 0.66079 0.30120 0.21400
C 	C 	0.34150 0.66306 0.38420 -0.27800
H 	H 	0.37980 0.62810 0.42000 0.13200
C 	C 	0.39720 0.71796 0.41270 0.22200
C 	C 	0.34140 0.77090 0.36310 -0.28100
H 	H 	0.37900 0.80760 0.38350 0.13100
C 	C 	0.22730 0.76708 0.28220 0.22000
C 	C 	0.19920 0.55358 0.34510 0.09200
H 	H 	0.26180 0.55060 0.42080 -0.00500
C 	C 	0.05070 0.53218 0.18450 0.01400
H 	H 	0.99050 0.51050 0.12790 0.01200
C 	C 	0.07270 0.59061 0.17020 -0.01100
H 	H 	0.03140 0.61640 0.10410 0.03700
C 	C 	0.59530 0.67431 0.49630 0.09400
H 	H 	0.58310 0.64280 0.43500 -0.00500
C 	C 	0.67210 0.73185 0.65850 0.00800
H 	H 	0.72520 0.74820 0.73260 0.02800
C 	C 	0.56390 0.75493 0.60120 0.01300
H 	H 	0.52970 0.78910 0.62800 0.03100
C 	C 	0.04390 0.82705 0.23590 0.10400
H 	H 	0.99840 0.79890 0.26860 -0.02200
C 	C 	0.09890 0.90644 0.14890 0.00200
H 	H 	0.09620 0.94410 0.10960 0.02100
C 	C 	0.19640 0.87116 0.17980 -0.00200
H 	H 	0.27150 0.87960 0.16620 0.03100
C 	C 	0.26610 0.42854 0.63440 0.23500
C 	C 	0.28670 0.40984 0.13170 0.23500
C 	C 	0.66330 0.42887 0.96540 -0.95900
H 	H 	0.69470 0.38990 0.95390 0.31500
H 	H 	0.68620 0.45640 0.90370 0.32300
H 	H 	0.69420 0.44230 0.05630 0.31500
C 	C 	0.33790 0.42497 0.77840 0.08700
C 	C 	0.28150 0.41514 0.88340 -0.15600
H 	H 	0.19970 0.40950 0.86500 0.10000
C 	C 	0.34830 0.41374 0.01630 0.08700
C 	C 	0.47110 0.41886 0.04140 -0.31400
H 	H 	0.51540 0.41770 0.13010 0.14900
C 	C 	0.52940 0.42565 0.93760 0.40500
C 	C 	0.46090 0.42994 0.80640 -0.31200
H 	H 	0.49820 0.43630 0.73590 0.15300
N 	N 	0.12960 0.50897 0.29490 -0.22200
N 	N 	0.16940 0.60458 0.27390 -0.15800
N 	N 	0.69230 0.68114 0.59190 -0.20500
N 	N 	0.51530 0.71813 0.49700 -0.15700
N 	N 	0.00387 0.87842 0.18400 -0.23900
N 	N 	0.16079 0.81997 0.23580 -0.16000
O 	O 	0.16280 0.40905 0.60490 -0.32800
O 	O 	0.31733 0.44932 0.54711 -0.35900
O 	O 	0.18427 0.38800 0.11290 -0.34600
O 	O 	0.34030 0.43052 0.24421 -0.35900
