data_crystal

_cell_length_a 23.38230
_cell_length_b 23.38230
_cell_length_c 28.18570
_cell_angle_alpha 90.00000
_cell_angle_beta  90.00000
_cell_angle_gamma 90.00000

_symmetry_space_group_name_	'P 1'
_symmetry_space_group_name_H-M	'P 1'

loop_
_symmetry_equiv_pos_as_xyz
  x,y,z

loop_
_atom_site_label
_atom_site_type_symbol
_atom_site_fract_x
_atom_site_fract_y
_atom_site_fract_z
_atom_site_charge
Ag	Ag	0.55702 0.50306 0.47347 0.49400
C 	C 	0.40390 0.44611 0.33128 -0.70800
H 	H 	0.42290 0.40980 0.33370 0.20900
H 	H 	0.40980 0.46170 0.30020 0.21900
H 	H 	0.36360 0.44100 0.33670 0.20900
C 	C 	0.42745 0.48590 0.36730 0.23600
C 	C 	0.42589 0.54517 0.36997 -0.15300
C 	C 	0.45473 0.55893 0.41181 0.22500
C 	C 	0.46470 0.61678 0.43245 -0.69500
H 	H 	0.47070 0.61340 0.46600 0.19800
H 	H 	0.43190 0.64050 0.42660 0.21500
H 	H 	0.49780 0.63370 0.41800 0.21300
C 	C 	0.29302 0.58150 0.35899 -0.71700
H 	H 	0.29750 0.59450 0.39110 0.22400
H 	H 	0.29120 0.54050 0.35860 0.21400
H 	H 	0.25840 0.59690 0.34590 0.21400
C 	C 	0.34249 0.60089 0.33020 0.23100
C 	C 	0.40043 0.58491 0.33532 -0.15200
C 	C 	0.42886 0.61510 0.30064 0.23100
C 	C 	0.49110 0.61880 0.28899 -0.69600
H 	H 	0.50640 0.58090 0.28550 0.21000
H 	H 	0.51080 0.63820 0.31410 0.21000
H 	H 	0.49600 0.63950 0.25990 0.20600
C 	C 	0.71050 0.31884 0.43780 -0.70200
H 	H 	0.71010 0.28740 0.45970 0.21000
H 	H 	0.74860 0.32420 0.42590 0.21300
H 	H 	0.68520 0.31080 0.41180 0.20900
C 	C 	0.69137 0.37196 0.46260 0.23700
C 	C 	0.71957 0.40977 0.49242 -0.16200
C 	C 	0.67936 0.45201 0.50352 0.24900
C 	C 	0.68626 0.50409 0.53334 -0.75200
H 	H 	0.69070 0.53690 0.51320 0.23200
H 	H 	0.71950 0.50000 0.55310 0.22900
H 	H 	0.65300 0.50890 0.55290 0.23000
N 	N 	0.47346 0.51141 0.43339 -0.21700
N 	N 	0.45615 0.46767 0.40538 -0.21600
H 	H 	0.46290 0.43220 0.41140 0.07700
N 	N 	0.38919 0.64547 0.27674 -0.20900
H 	H 	0.39680 0.66720 0.25300 0.08400
N 	N 	0.33622 0.63778 0.29442 -0.18600
N 	N 	0.62945 0.44096 0.48263 -0.19600
N 	N 	0.63796 0.39189 0.45779 -0.21100
H 	H 	0.61210 0.37550 0.44090 0.08400
Ag	Ag	0.05702 0.00306 0.97347 0.48900
C 	C 	0.90390 0.94611 0.83128 -0.73200
H 	H 	0.92290 0.90980 0.83370 0.21600
H 	H 	0.90980 0.96170 0.80020 0.22800
H 	H 	0.86360 0.94100 0.83670 0.21800
C 	C 	0.92745 0.98590 0.86730 0.25600
C 	C 	0.92589 0.04517 0.86997 -0.17000
C 	C 	0.95473 0.05893 0.91181 0.22900
C 	C 	0.96470 0.11678 0.93245 -0.70300
H 	H 	0.97070 0.11340 0.96600 0.19900
H 	H 	0.93190 0.14050 0.92660 0.21600
H 	H 	0.99780 0.13370 0.91800 0.21400
C 	C 	0.79302 0.08150 0.85899 -0.70700
H 	H 	0.79750 0.09450 0.89110 0.22000
H 	H 	0.79120 0.04050 0.85860 0.20700
H 	H 	0.75840 0.09690 0.84590 0.20900
C 	C 	0.84249 0.10089 0.83020 0.22400
C 	C 	0.90043 0.08491 0.83532 -0.14600
C 	C 	0.92886 0.11510 0.80064 0.22500
C 	C 	0.99110 0.11880 0.78899 -0.69000
H 	H 	0.00640 0.08090 0.78550 0.20500
H 	H 	0.01080 0.13820 0.81410 0.20600
H 	H 	0.99600 0.13950 0.75990 0.20300
C 	C 	0.21050 0.81884 0.93780 -0.70400
H 	H 	0.21010 0.78740 0.95970 0.20900
H 	H 	0.24860 0.82420 0.92590 0.21200
H 	H 	0.18520 0.81080 0.91180 0.20900
C 	C 	0.19137 0.87196 0.96260 0.23700
C 	C 	0.21957 0.90977 0.99242 -0.16500
C 	C 	0.17936 0.95201 0.00352 0.26400
C 	C 	0.18626 0.00409 0.03334 -0.78100
H 	H 	0.19070 0.03690 0.01320 0.23800
H 	H 	0.21950 0.00000 0.05310 0.23300
H 	H 	0.15300 0.00890 0.05290 0.23400
N 	N 	0.97346 0.01141 0.93339 -0.22400
N 	N 	0.95615 0.96767 0.90538 -0.21600
H 	H 	0.96290 0.93220 0.91140 0.07700
N 	N 	0.88919 0.14547 0.77674 -0.20900
H 	H 	0.89680 0.16720 0.75300 0.08300
N 	N 	0.83622 0.13778 0.79442 -0.18600
N 	N 	0.12945 0.94096 0.98263 -0.19700
N 	N 	0.13796 0.89189 0.95779 -0.21200
H 	H 	0.11210 0.87550 0.94090 0.08400
Ag	Ag	0.94298 0.49694 0.97347 0.49300
C 	C 	0.09610 0.55389 0.83128 -0.70900
H 	H 	0.07710 0.59020 0.83370 0.20800
H 	H 	0.09020 0.53830 0.80020 0.21800
H 	H 	0.13640 0.55900 0.83670 0.20800
C 	C 	0.07255 0.51410 0.86730 0.23500
C 	C 	0.07411 0.45483 0.86997 -0.15400
C 	C 	0.04527 0.44107 0.91181 0.22400
C 	C 	0.03530 0.38322 0.93245 -0.69600
H 	H 	0.02930 0.38660 0.96600 0.19800
H 	H 	0.06810 0.35950 0.92660 0.21400
H 	H 	0.00220 0.36630 0.91800 0.21300
C 	C 	0.20698 0.41850 0.85899 -0.71800
H 	H 	0.20250 0.40550 0.89110 0.22300
H 	H 	0.20880 0.45950 0.85860 0.21300
H 	H 	0.24160 0.40310 0.84590 0.21300
C 	C 	0.15751 0.39911 0.83020 0.23000
C 	C 	0.09957 0.41509 0.83532 -0.15300
C 	C 	0.07114 0.38490 0.80064 0.23000
C 	C 	0.00890 0.38120 0.78899 -0.69700
H 	H 	0.99360 0.41910 0.78550 0.20900
H 	H 	0.98920 0.36180 0.81410 0.20900
H 	H 	0.00400 0.36050 0.75990 0.20600
C 	C 	0.78950 0.68116 0.93780 -0.70300
H 	H 	0.78990 0.71260 0.95970 0.20900
H 	H 	0.75140 0.67580 0.92590 0.21200
H 	H 	0.81480 0.68920 0.91180 0.20800
C 	C 	0.80863 0.62804 0.96260 0.23600
C 	C 	0.78043 0.59023 0.99242 -0.16300
C 	C 	0.82064 0.54799 0.00352 0.24800
C 	C 	0.81374 0.49591 0.03334 -0.75400
H 	H 	0.80930 0.46310 0.01320 0.23100
H 	H 	0.78050 0.50000 0.05310 0.22800
H 	H 	0.84700 0.49110 0.05290 0.22900
N 	N 	0.02654 0.48859 0.93339 -0.21800
N 	N 	0.04385 0.53233 0.90538 -0.21700
H 	H 	0.03710 0.56780 0.91140 0.07600
N 	N 	0.11081 0.35453 0.77674 -0.21000
H 	H 	0.10320 0.33280 0.75300 0.08400
N 	N 	0.16378 0.36222 0.79442 -0.18700
N 	N 	0.87055 0.55904 0.98263 -0.19700
N 	N 	0.86204 0.60811 0.95779 -0.21200
H 	H 	0.88790 0.62450 0.94090 0.08300
Ag	Ag	0.44298 0.99694 0.47347 0.49800
C 	C 	0.59610 0.05389 0.33128 -0.68600
H 	H 	0.57710 0.09020 0.33370 0.20100
H 	H 	0.59020 0.03830 0.30020 0.20800
H 	H 	0.63640 0.05900 0.33670 0.20000
C 	C 	0.57255 0.01410 0.36730 0.21500
C 	C 	0.57411 0.95483 0.36997 -0.13600
C 	C 	0.54527 0.94107 0.41181 0.21900
C 	C 	0.53530 0.88322 0.43245 -0.69000
H 	H 	0.52930 0.88660 0.46600 0.19600
H 	H 	0.56810 0.85950 0.42660 0.21200
H 	H 	0.50220 0.86630 0.41800 0.21100
C 	C 	0.70698 0.91850 0.35899 -0.73100
H 	H 	0.70250 0.90550 0.39110 0.22800
H 	H 	0.70880 0.95950 0.35860 0.22100
H 	H 	0.74160 0.90310 0.34590 0.21800
C 	C 	0.65751 0.89911 0.33020 0.23700
C 	C 	0.59957 0.91509 0.33532 -0.16000
C 	C 	0.57114 0.88490 0.30064 0.23500
C 	C 	0.50890 0.88120 0.28899 -0.70500
H 	H 	0.49360 0.91910 0.28550 0.21300
H 	H 	0.48920 0.86180 0.31410 0.21200
H 	H 	0.50400 0.86050 0.25990 0.20800
C 	C 	0.28950 0.18116 0.43780 -0.69900
H 	H 	0.28990 0.21260 0.45970 0.20800
H 	H 	0.25140 0.17580 0.42590 0.21100
H 	H 	0.31480 0.18920 0.41180 0.20700
C 	C 	0.30863 0.12804 0.46260 0.23200
C 	C 	0.28043 0.09023 0.49242 -0.15400
C 	C 	0.32064 0.04799 0.50352 0.21600
C 	C 	0.31374 0.99591 0.53334 -0.66200
H 	H 	0.30930 0.96310 0.51320 0.20600
H 	H 	0.28050 0.00000 0.55310 0.19400
H 	H 	0.34700 0.99110 0.55290 0.20500
N 	N 	0.52654 0.98859 0.43339 -0.21100
N 	N 	0.54385 0.03233 0.40538 -0.21800
H 	H 	0.53710 0.06780 0.41140 0.07500
N 	N 	0.61081 0.85453 0.27674 -0.21100
H 	H 	0.60320 0.83280 0.25300 0.08400
N 	N 	0.66378 0.86222 0.29442 -0.18800
N 	N 	0.37055 0.05904 0.48263 -0.19400
N 	N 	0.36204 0.10811 0.45779 -0.21100
H 	H 	0.38790 0.12450 0.44090 0.08200
Ag	Ag	0.74694 0.30702 0.72347 0.49300
C 	C 	0.80389 0.15390 0.58128 -0.70900
H 	H 	0.84020 0.17290 0.58370 0.20800
H 	H 	0.78830 0.15980 0.55020 0.21700
H 	H 	0.80900 0.11360 0.58670 0.20800
C 	C 	0.76410 0.17745 0.61730 0.23500
C 	C 	0.70483 0.17589 0.61997 -0.15400
C 	C 	0.69107 0.20473 0.66181 0.22500
C 	C 	0.63322 0.21470 0.68245 -0.69600
H 	H 	0.63660 0.22070 0.71600 0.19700
H 	H 	0.60950 0.18190 0.67660 0.21400
H 	H 	0.61630 0.24780 0.66800 0.21200
C 	C 	0.66850 0.04302 0.60899 -0.70500
H 	H 	0.65550 0.04750 0.64110 0.21700
H 	H 	0.70950 0.04120 0.60860 0.20700
H 	H 	0.65310 0.00840 0.59590 0.20600
C 	C 	0.64911 0.09249 0.58020 0.22600
C 	C 	0.66509 0.15043 0.58532 -0.15100
C 	C 	0.63490 0.17886 0.55064 0.22900
C 	C 	0.63120 0.24110 0.53899 -0.69600
H 	H 	0.66910 0.25640 0.53550 0.20900
H 	H 	0.61180 0.26080 0.56410 0.20900
H 	H 	0.61050 0.24600 0.50990 0.20500
C 	C 	0.93116 0.46050 0.68780 -0.70300
H 	H 	0.96260 0.46010 0.70970 0.20900
H 	H 	0.92580 0.49860 0.67590 0.21200
H 	H 	0.93920 0.43520 0.66180 0.20800
C 	C 	0.87804 0.44137 0.71260 0.23600
C 	C 	0.84023 0.46957 0.74242 -0.16300
C 	C 	0.79799 0.42936 0.75352 0.24800
C 	C 	0.74591 0.43626 0.78334 -0.75300
H 	H 	0.71310 0.44070 0.76320 0.23100
H 	H 	0.75000 0.46950 0.80310 0.22800
H 	H 	0.74110 0.40300 0.80290 0.22900
N 	N 	0.73859 0.22346 0.68339 -0.21800
N 	N 	0.78233 0.20615 0.65538 -0.21700
H 	H 	0.81780 0.21290 0.66140 0.07600
N 	N 	0.60453 0.13919 0.52674 -0.21000
H 	H 	0.58280 0.14680 0.50300 0.08300
N 	N 	0.61222 0.08622 0.54442 -0.18700
N 	N 	0.80904 0.37945 0.73263 -0.19700
N 	N 	0.85811 0.38796 0.70779 -0.21200
H 	H 	0.87450 0.36210 0.69090 0.08300
Ag	Ag	0.24694 0.80702 0.22347 0.49300
C 	C 	0.30389 0.65390 0.08128 -0.70900
H 	H 	0.34020 0.67290 0.08370 0.20800
H 	H 	0.28830 0.65980 0.05020 0.21800
H 	H 	0.30900 0.61360 0.08670 0.20800
C 	C 	0.26410 0.67745 0.11730 0.23500
C 	C 	0.20483 0.67589 0.11997 -0.15400
C 	C 	0.19107 0.70473 0.16181 0.22400
C 	C 	0.13322 0.71470 0.18245 -0.69600
H 	H 	0.13660 0.72070 0.21600 0.19700
H 	H 	0.10950 0.68190 0.17660 0.21400
H 	H 	0.11630 0.74780 0.16800 0.21200
C 	C 	0.16850 0.54302 0.10899 -0.71800
H 	H 	0.15550 0.54750 0.14110 0.22300
H 	H 	0.20950 0.54120 0.10860 0.21300
H 	H 	0.15310 0.50840 0.09590 0.21300
C 	C 	0.14911 0.59249 0.08020 0.23000
C 	C 	0.16509 0.65043 0.08532 -0.15300
C 	C 	0.13490 0.67886 0.05064 0.23000
C 	C 	0.13120 0.74110 0.03899 -0.69800
H 	H 	0.16910 0.75640 0.03550 0.20900
H 	H 	0.11180 0.76080 0.06410 0.20900
H 	H 	0.11050 0.74600 0.00990 0.20600
C 	C 	0.43116 0.96050 0.18780 -0.70800
H 	H 	0.46260 0.96010 0.20970 0.21200
H 	H 	0.42580 0.99860 0.17590 0.21800
H 	H 	0.43920 0.93520 0.16180 0.21100
C 	C 	0.37804 0.94137 0.21260 0.23700
C 	C 	0.34023 0.96957 0.24242 -0.15200
C 	C 	0.29799 0.92936 0.25352 0.24700
C 	C 	0.24591 0.93626 0.28334 -0.75600
H 	H 	0.21310 0.94070 0.26320 0.23300
H 	H 	0.25000 0.96950 0.30310 0.23200
H 	H 	0.24110 0.90300 0.30290 0.23000
N 	N 	0.23859 0.72346 0.18339 -0.21800
N 	N 	0.28233 0.70615 0.15538 -0.21700
H 	H 	0.31780 0.71290 0.16140 0.07600
N 	N 	0.10453 0.63919 0.02674 -0.21000
H 	H 	0.08280 0.64680 0.00300 0.08400
N 	N 	0.11222 0.58622 0.04442 -0.18700
N 	N 	0.30904 0.87945 0.23263 -0.19700
N 	N 	0.35811 0.88796 0.20779 -0.21200
H 	H 	0.37450 0.86210 0.19090 0.08400
Ag	Ag	0.75306 0.69298 0.22347 0.49300
C 	C 	0.69611 0.84610 0.08128 -0.71200
H 	H 	0.65980 0.82710 0.08370 0.20900
H 	H 	0.71170 0.84020 0.05020 0.21900
H 	H 	0.69100 0.88640 0.08670 0.21000
C 	C 	0.73590 0.82255 0.11730 0.23500
C 	C 	0.79517 0.82411 0.11997 -0.15300
C 	C 	0.80893 0.79527 0.16181 0.22400
C 	C 	0.86678 0.78530 0.18245 -0.69600
H 	H 	0.86340 0.77930 0.21600 0.19700
H 	H 	0.89050 0.81810 0.17660 0.21400
H 	H 	0.88370 0.75220 0.16800 0.21200
C 	C 	0.83150 0.95698 0.10899 -0.73400
H 	H 	0.84450 0.95250 0.14110 0.23000
H 	H 	0.79050 0.95880 0.10860 0.22100
H 	H 	0.84690 0.99160 0.09590 0.22300
C 	C 	0.85089 0.90751 0.08020 0.23700
C 	C 	0.83491 0.84957 0.08532 -0.15600
C 	C 	0.86510 0.82114 0.05064 0.23200
C 	C 	0.86880 0.75890 0.03899 -0.69900
H 	H 	0.83090 0.74360 0.03550 0.20900
H 	H 	0.88820 0.73920 0.06410 0.20900
H 	H 	0.88950 0.75400 0.00990 0.20600
C 	C 	0.56884 0.53950 0.18780 -0.70300
H 	H 	0.53740 0.53990 0.20970 0.20900
H 	H 	0.57420 0.50140 0.17590 0.21200
H 	H 	0.56080 0.56480 0.16180 0.20800
C 	C 	0.62196 0.55863 0.21260 0.23600
C 	C 	0.65977 0.53043 0.24242 -0.16300
C 	C 	0.70201 0.57064 0.25352 0.24800
C 	C 	0.75409 0.56374 0.28334 -0.75300
H 	H 	0.78690 0.55930 0.26320 0.23100
H 	H 	0.75000 0.53050 0.30310 0.22800
H 	H 	0.75890 0.59700 0.30290 0.22900
N 	N 	0.76141 0.77654 0.18339 -0.21800
N 	N 	0.71767 0.79385 0.15538 -0.21700
H 	H 	0.68220 0.78710 0.16140 0.07600
N 	N 	0.89547 0.86081 0.02674 -0.21000
H 	H 	0.91720 0.85320 0.00300 0.08400
N 	N 	0.88778 0.91378 0.04442 -0.18700
N 	N 	0.69096 0.62055 0.23263 -0.19700
N 	N 	0.64189 0.61204 0.20779 -0.21200
H 	H 	0.62550 0.63790 0.19090 0.08300
Ag	Ag	0.25306 0.19298 0.72347 0.49300
C 	C 	0.19611 0.34610 0.58128 -0.70900
H 	H 	0.15980 0.32710 0.58370 0.20800
H 	H 	0.21170 0.34020 0.55020 0.21800
H 	H 	0.19100 0.38640 0.58670 0.20800
C 	C 	0.23590 0.32255 0.61730 0.23500
C 	C 	0.29517 0.32411 0.61997 -0.15400
C 	C 	0.30893 0.29527 0.66181 0.22400
C 	C 	0.36678 0.28530 0.68245 -0.69600
H 	H 	0.36340 0.27930 0.71600 0.19700
H 	H 	0.39050 0.31810 0.67660 0.21400
H 	H 	0.38370 0.25220 0.66800 0.21200
C 	C 	0.33150 0.45698 0.60899 -0.71800
H 	H 	0.34450 0.45250 0.64110 0.22300
H 	H 	0.29050 0.45880 0.60860 0.21300
H 	H 	0.34690 0.49160 0.59590 0.21300
C 	C 	0.35089 0.40751 0.58020 0.23000
C 	C 	0.33491 0.34957 0.58532 -0.15300
C 	C 	0.36510 0.32114 0.55064 0.23000
C 	C 	0.36880 0.25890 0.53899 -0.69700
H 	H 	0.33090 0.24360 0.53550 0.20900
H 	H 	0.38820 0.23920 0.56410 0.20900
H 	H 	0.38950 0.25400 0.50990 0.20600
C 	C 	0.06884 0.03950 0.68780 -0.69800
H 	H 	0.03740 0.03990 0.70970 0.20600
H 	H 	0.07420 0.00140 0.67590 0.20600
H 	H 	0.06080 0.06480 0.66180 0.20600
C 	C 	0.12196 0.05863 0.71260 0.23500
C 	C 	0.15977 0.03043 0.74242 -0.17400
C 	C 	0.20201 0.07064 0.75352 0.24900
C 	C 	0.25409 0.06374 0.78334 -0.75100
H 	H 	0.28690 0.05930 0.76320 0.22800
H 	H 	0.25000 0.03050 0.80310 0.22500
H 	H 	0.25890 0.09700 0.80290 0.22800
N 	N 	0.26141 0.27654 0.68339 -0.21800
N 	N 	0.21767 0.29385 0.65538 -0.21700
H 	H 	0.18220 0.28710 0.66140 0.07600
N 	N 	0.39547 0.36081 0.52674 -0.21000
H 	H 	0.41720 0.35320 0.50300 0.08300
N 	N 	0.38778 0.41378 0.54442 -0.18700
N 	N 	0.19096 0.12055 0.73263 -0.19700
N 	N 	0.14189 0.11204 0.70779 -0.21200
H 	H 	0.12550 0.13790 0.69090 0.08300
Ag	Ag	0.94298 0.50306 0.52653 0.49300
C 	C 	0.09610 0.44611 0.66872 -0.70900
H 	H 	0.07710 0.40980 0.66630 0.20800
H 	H 	0.09020 0.46170 0.69980 0.21800
H 	H 	0.13640 0.44100 0.66330 0.20800
C 	C 	0.07255 0.48590 0.63270 0.23500
C 	C 	0.07411 0.54517 0.63003 -0.15400
C 	C 	0.04527 0.55893 0.58819 0.22400
C 	C 	0.03530 0.61678 0.56755 -0.69600
H 	H 	0.02930 0.61340 0.53400 0.19700
H 	H 	0.06810 0.64050 0.57340 0.21400
H 	H 	0.00220 0.63370 0.58200 0.21200
C 	C 	0.20698 0.58150 0.64101 -0.71800
H 	H 	0.20250 0.59450 0.60890 0.22300
H 	H 	0.20880 0.54050 0.64140 0.21300
H 	H 	0.24160 0.59690 0.65410 0.21300
C 	C 	0.15751 0.60089 0.66980 0.23000
C 	C 	0.09957 0.58491 0.66468 -0.15300
C 	C 	0.07114 0.61510 0.69936 0.23000
C 	C 	0.00890 0.61880 0.71101 -0.69700
H 	H 	0.99360 0.58090 0.71450 0.20900
H 	H 	0.98920 0.63820 0.68590 0.20900
H 	H 	0.00400 0.63950 0.74010 0.20600
C 	C 	0.78950 0.31884 0.56220 -0.70300
H 	H 	0.78990 0.28740 0.54030 0.20900
H 	H 	0.75140 0.32420 0.57410 0.21200
H 	H 	0.81480 0.31080 0.58820 0.20800
C 	C 	0.80863 0.37196 0.53740 0.23600
C 	C 	0.78043 0.40977 0.50758 -0.16300
C 	C 	0.82064 0.45201 0.49648 0.24800
C 	C 	0.81374 0.50409 0.46666 -0.75300
H 	H 	0.80930 0.53690 0.48680 0.23100
H 	H 	0.78050 0.50000 0.44690 0.22800
H 	H 	0.84700 0.50890 0.44710 0.22900
N 	N 	0.02654 0.51141 0.56661 -0.21800
N 	N 	0.04385 0.46767 0.59462 -0.21700
H 	H 	0.03710 0.43220 0.58860 0.07600
N 	N 	0.11081 0.64547 0.72326 -0.21000
H 	H 	0.10320 0.66720 0.74700 0.08300
N 	N 	0.16378 0.63778 0.70558 -0.18700
N 	N 	0.87055 0.44096 0.51737 -0.19700
N 	N 	0.86204 0.39189 0.54221 -0.21200
H 	H 	0.88790 0.37550 0.55910 0.08300
Ag	Ag	0.44298 0.00306 0.02653 0.48800
C 	C 	0.59610 0.94611 0.16872 -0.73300
H 	H 	0.57710 0.90980 0.16630 0.21500
H 	H 	0.59020 0.96170 0.19980 0.22700
H 	H 	0.63640 0.94100 0.16330 0.21700
C 	C 	0.57255 0.98590 0.13270 0.25600
C 	C 	0.57411 0.04517 0.13003 -0.17100
C 	C 	0.54527 0.05893 0.08819 0.22900
C 	C 	0.53530 0.11678 0.06755 -0.70300
H 	H 	0.52930 0.11340 0.03400 0.19900
H 	H 	0.56810 0.14050 0.07340 0.21600
H 	H 	0.50220 0.13370 0.08200 0.21400
C 	C 	0.70698 0.08150 0.14101 -0.70700
H 	H 	0.70250 0.09450 0.10890 0.22000
H 	H 	0.70880 0.04050 0.14140 0.20700
H 	H 	0.74160 0.09690 0.15410 0.20900
C 	C 	0.65751 0.10089 0.16980 0.22400
C 	C 	0.59957 0.08491 0.16468 -0.14600
C 	C 	0.57114 0.11510 0.19936 0.22500
C 	C 	0.50890 0.11880 0.21101 -0.68900
H 	H 	0.49360 0.08090 0.21450 0.20500
H 	H 	0.48920 0.13820 0.18590 0.20600
H 	H 	0.50400 0.13950 0.24010 0.20300
C 	C 	0.28950 0.81884 0.06220 -0.70400
H 	H 	0.28990 0.78740 0.04030 0.20900
H 	H 	0.25140 0.82420 0.07410 0.21200
H 	H 	0.31480 0.81080 0.08820 0.20900
C 	C 	0.30863 0.87196 0.03740 0.23700
C 	C 	0.28043 0.90977 0.00758 -0.16500
C 	C 	0.32064 0.95201 0.99648 0.26400
C 	C 	0.31374 0.00409 0.96666 -0.78100
H 	H 	0.30930 0.03690 0.98680 0.23800
H 	H 	0.28050 0.00000 0.94690 0.23300
H 	H 	0.34700 0.00890 0.94710 0.23400
N 	N 	0.52654 0.01141 0.06661 -0.22400
N 	N 	0.54385 0.96767 0.09462 -0.21600
H 	H 	0.53710 0.93220 0.08860 0.07700
N 	N 	0.61081 0.14547 0.22326 -0.20900
H 	H 	0.60320 0.16720 0.24700 0.08300
N 	N 	0.66378 0.13778 0.20558 -0.18600
N 	N 	0.37055 0.94096 0.01737 -0.19700
N 	N 	0.36204 0.89189 0.04221 -0.21200
H 	H 	0.38790 0.87550 0.05910 0.08400
Ag	Ag	0.55702 0.49694 0.02653 0.49300
C 	C 	0.40390 0.55389 0.16872 -0.70900
H 	H 	0.42290 0.59020 0.16630 0.20800
H 	H 	0.40980 0.53830 0.19980 0.21800
H 	H 	0.36360 0.55900 0.16330 0.20800
C 	C 	0.42745 0.51410 0.13270 0.23500
C 	C 	0.42589 0.45483 0.13003 -0.15400
C 	C 	0.45473 0.44107 0.08819 0.22400
C 	C 	0.46470 0.38322 0.06755 -0.69600
H 	H 	0.47070 0.38660 0.03400 0.19700
H 	H 	0.43190 0.35950 0.07340 0.21400
H 	H 	0.49780 0.36630 0.08200 0.21200
C 	C 	0.29302 0.41850 0.14101 -0.71800
H 	H 	0.29750 0.40550 0.10890 0.22300
H 	H 	0.29120 0.45950 0.14140 0.21300
H 	H 	0.25840 0.40310 0.15410 0.21300
C 	C 	0.34249 0.39911 0.16980 0.23000
C 	C 	0.40043 0.41509 0.16468 -0.15300
C 	C 	0.42886 0.38490 0.19936 0.23000
C 	C 	0.49110 0.38120 0.21101 -0.69700
H 	H 	0.50640 0.41910 0.21450 0.20900
H 	H 	0.51080 0.36180 0.18590 0.20900
H 	H 	0.49600 0.36050 0.24010 0.20600
C 	C 	0.71050 0.68116 0.06220 -0.70300
H 	H 	0.71010 0.71260 0.04030 0.20900
H 	H 	0.74860 0.67580 0.07410 0.21200
H 	H 	0.68520 0.68920 0.08820 0.20800
C 	C 	0.69137 0.62804 0.03740 0.23600
C 	C 	0.71957 0.59023 0.00758 -0.16300
C 	C 	0.67936 0.54799 0.99648 0.24800
C 	C 	0.68626 0.49591 0.96666 -0.75300
H 	H 	0.69070 0.46310 0.98680 0.23100
H 	H 	0.71950 0.50000 0.94690 0.22800
H 	H 	0.65300 0.49110 0.94710 0.22900
N 	N 	0.47346 0.48859 0.06661 -0.21800
N 	N 	0.45615 0.53233 0.09462 -0.21700
H 	H 	0.46290 0.56780 0.08860 0.07600
N 	N 	0.38919 0.35453 0.22326 -0.21000
H 	H 	0.39680 0.33280 0.24700 0.08400
N 	N 	0.33622 0.36222 0.20558 -0.18700
N 	N 	0.62945 0.55904 0.01737 -0.19700
N 	N 	0.63796 0.60811 0.04221 -0.21200
H 	H 	0.61210 0.62450 0.05910 0.08300
Ag	Ag	0.05702 0.99694 0.52653 0.49800
C 	C 	0.90390 0.05389 0.66872 -0.68600
H 	H 	0.92290 0.09020 0.66630 0.20100
H 	H 	0.90980 0.03830 0.69980 0.20800
H 	H 	0.86360 0.05900 0.66330 0.20000
C 	C 	0.92745 0.01410 0.63270 0.21500
C 	C 	0.92589 0.95483 0.63003 -0.13600
C 	C 	0.95473 0.94107 0.58819 0.21900
C 	C 	0.96470 0.88322 0.56755 -0.69000
H 	H 	0.97070 0.88660 0.53400 0.19600
H 	H 	0.93190 0.85950 0.57340 0.21200
H 	H 	0.99780 0.86630 0.58200 0.21100
C 	C 	0.79302 0.91850 0.64101 -0.73100
H 	H 	0.79750 0.90550 0.60890 0.22800
H 	H 	0.79120 0.95950 0.64140 0.22100
H 	H 	0.75840 0.90310 0.65410 0.21800
C 	C 	0.84249 0.89911 0.66980 0.23700
C 	C 	0.90043 0.91509 0.66468 -0.16000
C 	C 	0.92886 0.88490 0.69936 0.23500
C 	C 	0.99110 0.88120 0.71101 -0.70500
H 	H 	0.00640 0.91910 0.71450 0.21300
H 	H 	0.01080 0.86180 0.68590 0.21200
H 	H 	0.99600 0.86050 0.74010 0.20800
C 	C 	0.21050 0.18116 0.56220 -0.69900
H 	H 	0.21010 0.21260 0.54030 0.20800
H 	H 	0.24860 0.17580 0.57410 0.21100
H 	H 	0.18520 0.18920 0.58820 0.20700
C 	C 	0.19137 0.12804 0.53740 0.23200
C 	C 	0.21957 0.09023 0.50758 -0.15400
C 	C 	0.17936 0.04799 0.49648 0.21600
C 	C 	0.18626 0.99591 0.46666 -0.66300
H 	H 	0.19070 0.96310 0.48680 0.20600
H 	H 	0.21950 0.00000 0.44690 0.19400
H 	H 	0.15300 0.99110 0.44710 0.20500
N 	N 	0.97346 0.98859 0.56661 -0.21100
N 	N 	0.95615 0.03233 0.59462 -0.21800
H 	H 	0.96290 0.06780 0.58860 0.07500
N 	N 	0.88919 0.85453 0.72326 -0.21100
H 	H 	0.89680 0.83280 0.74700 0.08400
N 	N 	0.83622 0.86222 0.70558 -0.18800
N 	N 	0.12945 0.05904 0.51737 -0.19400
N 	N 	0.13796 0.10811 0.54221 -0.21100
H 	H 	0.11210 0.12450 0.55910 0.08200
Ag	Ag	0.75306 0.30702 0.27653 0.49300
C 	C 	0.69611 0.15390 0.41872 -0.70900
H 	H 	0.65980 0.17290 0.41630 0.20800
H 	H 	0.71170 0.15980 0.44980 0.21700
H 	H 	0.69100 0.11360 0.41330 0.20800
C 	C 	0.73590 0.17745 0.38270 0.23500
C 	C 	0.79517 0.17589 0.38003 -0.15400
C 	C 	0.80893 0.20473 0.33819 0.22500
C 	C 	0.86678 0.21470 0.31755 -0.69600
H 	H 	0.86340 0.22070 0.28400 0.19700
H 	H 	0.89050 0.18190 0.32340 0.21400
H 	H 	0.88370 0.24780 0.33200 0.21200
C 	C 	0.83150 0.04302 0.39101 -0.70600
H 	H 	0.84450 0.04750 0.35890 0.21700
H 	H 	0.79050 0.04120 0.39140 0.20700
H 	H 	0.84690 0.00840 0.40410 0.20600
C 	C 	0.85089 0.09249 0.41980 0.22600
C 	C 	0.83491 0.15043 0.41468 -0.15100
C 	C 	0.86510 0.17886 0.44936 0.22900
C 	C 	0.86880 0.24110 0.46101 -0.69600
H 	H 	0.83090 0.25640 0.46450 0.20900
H 	H 	0.88820 0.26080 0.43590 0.20900
H 	H 	0.88950 0.24600 0.49010 0.20500
C 	C 	0.56884 0.46050 0.31220 -0.70300
H 	H 	0.53740 0.46010 0.29030 0.20900
H 	H 	0.57420 0.49860 0.32410 0.21200
H 	H 	0.56080 0.43520 0.33820 0.20800
C 	C 	0.62196 0.44137 0.28740 0.23600
C 	C 	0.65977 0.46957 0.25758 -0.16300
C 	C 	0.70201 0.42936 0.24648 0.24800
C 	C 	0.75409 0.43626 0.21666 -0.75300
H 	H 	0.78690 0.44070 0.23680 0.23100
H 	H 	0.75000 0.46950 0.19690 0.22800
H 	H 	0.75890 0.40300 0.19710 0.22900
N 	N 	0.76141 0.22346 0.31661 -0.21800
N 	N 	0.71767 0.20615 0.34462 -0.21700
H 	H 	0.68220 0.21290 0.33860 0.07600
N 	N 	0.89547 0.13919 0.47326 -0.21000
H 	H 	0.91720 0.14680 0.49700 0.08300
N 	N 	0.88778 0.08622 0.45558 -0.18700
N 	N 	0.69096 0.37945 0.26737 -0.19700
N 	N 	0.64189 0.38796 0.29221 -0.21200
H 	H 	0.62550 0.36210 0.30910 0.08300
Ag	Ag	0.25306 0.80702 0.77653 0.49300
C 	C 	0.19611 0.65390 0.91872 -0.70900
H 	H 	0.15980 0.67290 0.91630 0.20800
H 	H 	0.21170 0.65980 0.94980 0.21800
H 	H 	0.19100 0.61360 0.91330 0.20800
C 	C 	0.23590 0.67745 0.88270 0.23500
C 	C 	0.29517 0.67589 0.88003 -0.15400
C 	C 	0.30893 0.70473 0.83819 0.22400
C 	C 	0.36678 0.71470 0.81755 -0.69600
H 	H 	0.36340 0.72070 0.78400 0.19700
H 	H 	0.39050 0.68190 0.82340 0.21400
H 	H 	0.38370 0.74780 0.83200 0.21200
C 	C 	0.33150 0.54302 0.89101 -0.71800
H 	H 	0.34450 0.54750 0.85890 0.22300
H 	H 	0.29050 0.54120 0.89140 0.21300
H 	H 	0.34690 0.50840 0.90410 0.21300
C 	C 	0.35089 0.59249 0.91980 0.23000
C 	C 	0.33491 0.65043 0.91468 -0.15300
C 	C 	0.36510 0.67886 0.94936 0.23000
C 	C 	0.36880 0.74110 0.96101 -0.69800
H 	H 	0.33090 0.75640 0.96450 0.20900
H 	H 	0.38820 0.76080 0.93590 0.20900
H 	H 	0.38950 0.74600 0.99010 0.20600
C 	C 	0.06884 0.96050 0.81220 -0.70800
H 	H 	0.03740 0.96010 0.79030 0.21200
H 	H 	0.07420 0.99860 0.82410 0.21800
H 	H 	0.06080 0.93520 0.83820 0.21100
C 	C 	0.12196 0.94137 0.78740 0.23700
C 	C 	0.15977 0.96957 0.75758 -0.15200
C 	C 	0.20201 0.92936 0.74648 0.24700
C 	C 	0.25409 0.93626 0.71666 -0.75600
H 	H 	0.28690 0.94070 0.73680 0.23300
H 	H 	0.25000 0.96950 0.69690 0.23200
H 	H 	0.25890 0.90300 0.69710 0.23000
N 	N 	0.26141 0.72346 0.81661 -0.21800
N 	N 	0.21767 0.70615 0.84462 -0.21700
H 	H 	0.18220 0.71290 0.83860 0.07600
N 	N 	0.39547 0.63919 0.97326 -0.21000
H 	H 	0.41720 0.64680 0.99700 0.08400
N 	N 	0.38778 0.58622 0.95558 -0.18700
N 	N 	0.19096 0.87945 0.76737 -0.19700
N 	N 	0.14189 0.88796 0.79221 -0.21200
H 	H 	0.12550 0.86210 0.80910 0.08400
Ag	Ag	0.74694 0.69298 0.77653 0.49300
C 	C 	0.80389 0.84610 0.91872 -0.71200
H 	H 	0.84020 0.82710 0.91630 0.20900
H 	H 	0.78830 0.84020 0.94980 0.21900
H 	H 	0.80900 0.88640 0.91330 0.21000
C 	C 	0.76410 0.82255 0.88270 0.23500
C 	C 	0.70483 0.82411 0.88003 -0.15300
C 	C 	0.69107 0.79527 0.83819 0.22400
C 	C 	0.63322 0.78530 0.81755 -0.69600
H 	H 	0.63660 0.77930 0.78400 0.19700
H 	H 	0.60950 0.81810 0.82340 0.21400
H 	H 	0.61630 0.75220 0.83200 0.21200
C 	C 	0.66850 0.95698 0.89101 -0.73500
H 	H 	0.65550 0.95250 0.85890 0.23000
H 	H 	0.70950 0.95880 0.89140 0.22100
H 	H 	0.65310 0.99160 0.90410 0.22300
C 	C 	0.64911 0.90751 0.91980 0.23700
C 	C 	0.66509 0.84957 0.91468 -0.15600
C 	C 	0.63490 0.82114 0.94936 0.23200
C 	C 	0.63120 0.75890 0.96101 -0.69900
H 	H 	0.66910 0.74360 0.96450 0.20900
H 	H 	0.61180 0.73920 0.93590 0.20900
H 	H 	0.61050 0.75400 0.99010 0.20600
C 	C 	0.93116 0.53950 0.81220 -0.70300
H 	H 	0.96260 0.53990 0.79030 0.20900
H 	H 	0.92580 0.50140 0.82410 0.21200
H 	H 	0.93920 0.56480 0.83820 0.20800
C 	C 	0.87804 0.55863 0.78740 0.23600
C 	C 	0.84023 0.53043 0.75758 -0.16300
C 	C 	0.79799 0.57064 0.74648 0.24800
C 	C 	0.74591 0.56374 0.71666 -0.75300
H 	H 	0.71310 0.55930 0.73680 0.23100
H 	H 	0.75000 0.53050 0.69690 0.22800
H 	H 	0.74110 0.59700 0.69710 0.22900
N 	N 	0.73859 0.77654 0.81661 -0.21800
N 	N 	0.78233 0.79385 0.84462 -0.21700
H 	H 	0.81780 0.78710 0.83860 0.07600
N 	N 	0.60453 0.86081 0.97326 -0.21000
H 	H 	0.58280 0.85320 0.99700 0.08400
N 	N 	0.61222 0.91378 0.95558 -0.18700
N 	N 	0.80904 0.62055 0.76737 -0.19700
N 	N 	0.85811 0.61204 0.79221 -0.21200
H 	H 	0.87450 0.63790 0.80910 0.08300
Ag	Ag	0.24694 0.19298 0.27653 0.49300
C 	C 	0.30389 0.34610 0.41872 -0.70900
H 	H 	0.34020 0.32710 0.41630 0.20800
H 	H 	0.28830 0.34020 0.44980 0.21800
H 	H 	0.30900 0.38640 0.41330 0.20800
C 	C 	0.26410 0.32255 0.38270 0.23500
C 	C 	0.20483 0.32411 0.38003 -0.15400
C 	C 	0.19107 0.29527 0.33819 0.22400
C 	C 	0.13322 0.28530 0.31755 -0.69600
H 	H 	0.13660 0.27930 0.28400 0.19700
H 	H 	0.10950 0.31810 0.32340 0.21400
H 	H 	0.11630 0.25220 0.33200 0.21200
C 	C 	0.16850 0.45698 0.39101 -0.71800
H 	H 	0.15550 0.45250 0.35890 0.22300
H 	H 	0.20950 0.45880 0.39140 0.21300
H 	H 	0.15310 0.49160 0.40410 0.21300
C 	C 	0.14911 0.40751 0.41980 0.23000
C 	C 	0.16509 0.34957 0.41468 -0.15300
C 	C 	0.13490 0.32114 0.44936 0.23000
C 	C 	0.13120 0.25890 0.46101 -0.69700
H 	H 	0.16910 0.24360 0.46450 0.20900
H 	H 	0.11180 0.23920 0.43590 0.20900
H 	H 	0.11050 0.25400 0.49010 0.20600
C 	C 	0.43116 0.03950 0.31220 -0.69800
H 	H 	0.46260 0.03990 0.29030 0.20500
H 	H 	0.42580 0.00140 0.32410 0.20600
H 	H 	0.43920 0.06480 0.33820 0.20600
C 	C 	0.37804 0.05863 0.28740 0.23500
C 	C 	0.34023 0.03043 0.25758 -0.17400
C 	C 	0.29799 0.07064 0.24648 0.24900
C 	C 	0.24591 0.06374 0.21666 -0.75100
H 	H 	0.21310 0.05930 0.23680 0.22800
H 	H 	0.25000 0.03050 0.19690 0.22500
H 	H 	0.24110 0.09700 0.19710 0.22800
N 	N 	0.23859 0.27654 0.31661 -0.21800
N 	N 	0.28233 0.29385 0.34462 -0.21700
H 	H 	0.31780 0.28710 0.33860 0.07600
N 	N 	0.10453 0.36081 0.47326 -0.21000
H 	H 	0.08280 0.35320 0.49700 0.08400
N 	N 	0.11222 0.41378 0.45558 -0.18700
N 	N 	0.30904 0.12055 0.26737 -0.19700
N 	N 	0.35811 0.11204 0.29221 -0.21200
H 	H 	0.37450 0.13790 0.30910 0.08300
Ag	Ag	0.44298 0.49694 0.52653 0.49300
C 	C 	0.59610 0.55389 0.66872 -0.70900
H 	H 	0.57710 0.59020 0.66630 0.20800
H 	H 	0.59020 0.53830 0.69980 0.21800
H 	H 	0.63640 0.55900 0.66330 0.20800
C 	C 	0.57255 0.51410 0.63270 0.23500
C 	C 	0.57411 0.45483 0.63003 -0.15400
C 	C 	0.54527 0.44107 0.58819 0.22400
C 	C 	0.53530 0.38322 0.56755 -0.69600
H 	H 	0.52930 0.38660 0.53400 0.19700
H 	H 	0.56810 0.35950 0.57340 0.21400
H 	H 	0.50220 0.36630 0.58200 0.21200
C 	C 	0.70698 0.41850 0.64101 -0.71800
H 	H 	0.70250 0.40550 0.60890 0.22300
H 	H 	0.70880 0.45950 0.64140 0.21300
H 	H 	0.74160 0.40310 0.65410 0.21300
C 	C 	0.65751 0.39911 0.66980 0.23000
C 	C 	0.59957 0.41509 0.66468 -0.15300
C 	C 	0.57114 0.38490 0.69936 0.23000
C 	C 	0.50890 0.38120 0.71101 -0.69700
H 	H 	0.49360 0.41910 0.71450 0.20900
H 	H 	0.48920 0.36180 0.68590 0.20900
H 	H 	0.50400 0.36050 0.74010 0.20600
C 	C 	0.28950 0.68116 0.56220 -0.70300
H 	H 	0.28990 0.71260 0.54030 0.20900
H 	H 	0.25140 0.67580 0.57410 0.21200
H 	H 	0.31480 0.68920 0.58820 0.20800
C 	C 	0.30863 0.62804 0.53740 0.23600
C 	C 	0.28043 0.59023 0.50758 -0.16300
C 	C 	0.32064 0.54799 0.49648 0.24800
C 	C 	0.31374 0.49591 0.46666 -0.75300
H 	H 	0.30930 0.46310 0.48680 0.23100
H 	H 	0.28050 0.50000 0.44690 0.22800
H 	H 	0.34700 0.49110 0.44710 0.22900
N 	N 	0.52654 0.48859 0.56661 -0.21800
N 	N 	0.54385 0.53233 0.59462 -0.21700
H 	H 	0.53710 0.56780 0.58860 0.07600
N 	N 	0.61081 0.35453 0.72326 -0.21000
H 	H 	0.60320 0.33280 0.74700 0.08400
N 	N 	0.66378 0.36222 0.70558 -0.18700
N 	N 	0.37055 0.55904 0.51737 -0.19700
N 	N 	0.36204 0.60811 0.54221 -0.21200
H 	H 	0.38790 0.62450 0.55910 0.08300
Ag	Ag	0.94298 0.99694 0.02653 0.49800
C 	C 	0.09610 0.05389 0.16872 -0.68600
H 	H 	0.07710 0.09020 0.16630 0.20100
H 	H 	0.09020 0.03830 0.19980 0.20900
H 	H 	0.13640 0.05900 0.16330 0.20000
C 	C 	0.07255 0.01410 0.13270 0.21600
C 	C 	0.07411 0.95483 0.13003 -0.13600
C 	C 	0.04527 0.94107 0.08819 0.21900
C 	C 	0.03530 0.88322 0.06755 -0.69000
H 	H 	0.02930 0.88660 0.03400 0.19600
H 	H 	0.06810 0.85950 0.07340 0.21200
H 	H 	0.00220 0.86630 0.08200 0.21100
C 	C 	0.20698 0.91850 0.14101 -0.73100
H 	H 	0.20250 0.90550 0.10890 0.22800
H 	H 	0.20880 0.95950 0.14140 0.22100
H 	H 	0.24160 0.90310 0.15410 0.21800
C 	C 	0.15751 0.89911 0.16980 0.23700
C 	C 	0.09957 0.91509 0.16468 -0.16000
C 	C 	0.07114 0.88490 0.19936 0.23500
C 	C 	0.00890 0.88120 0.21101 -0.70500
H 	H 	0.99360 0.91910 0.21450 0.21300
H 	H 	0.98920 0.86180 0.18590 0.21200
H 	H 	0.00400 0.86050 0.24010 0.20800
C 	C 	0.78950 0.18116 0.06220 -0.69900
H 	H 	0.78990 0.21260 0.04030 0.20800
H 	H 	0.75140 0.17580 0.07410 0.21100
H 	H 	0.81480 0.18920 0.08820 0.20700
C 	C 	0.80863 0.12804 0.03740 0.23200
C 	C 	0.78043 0.09023 0.00758 -0.15400
C 	C 	0.82064 0.04799 0.99648 0.21700
C 	C 	0.81374 0.99591 0.96666 -0.66400
H 	H 	0.80930 0.96310 0.98680 0.20700
H 	H 	0.78050 0.00000 0.94690 0.19400
H 	H 	0.84700 0.99110 0.94710 0.20500
N 	N 	0.02654 0.98859 0.06661 -0.21200
N 	N 	0.04385 0.03233 0.09462 -0.21800
H 	H 	0.03710 0.06780 0.08860 0.07500
N 	N 	0.11081 0.85453 0.22326 -0.21100
H 	H 	0.10320 0.83280 0.24700 0.08400
N 	N 	0.16378 0.86222 0.20558 -0.18800
N 	N 	0.87055 0.05904 0.01737 -0.19400
N 	N 	0.86204 0.10811 0.04221 -0.21100
H 	H 	0.88790 0.12450 0.05910 0.08200
Ag	Ag	0.05702 0.50306 0.02653 0.49300
C 	C 	0.90390 0.44611 0.16872 -0.70900
H 	H 	0.92290 0.40980 0.16630 0.20800
H 	H 	0.90980 0.46170 0.19980 0.21800
H 	H 	0.86360 0.44100 0.16330 0.20800
C 	C 	0.92745 0.48590 0.13270 0.23500
C 	C 	0.92589 0.54517 0.13003 -0.15400
C 	C 	0.95473 0.55893 0.08819 0.22400
C 	C 	0.96470 0.61678 0.06755 -0.69600
H 	H 	0.97070 0.61340 0.03400 0.19700
H 	H 	0.93190 0.64050 0.07340 0.21400
H 	H 	0.99780 0.63370 0.08200 0.21200
C 	C 	0.79302 0.58150 0.14101 -0.71800
H 	H 	0.79750 0.59450 0.10890 0.22300
H 	H 	0.79120 0.54050 0.14140 0.21300
H 	H 	0.75840 0.59690 0.15410 0.21300
C 	C 	0.84249 0.60089 0.16980 0.23000
C 	C 	0.90043 0.58491 0.16468 -0.15300
C 	C 	0.92886 0.61510 0.19936 0.23000
C 	C 	0.99110 0.61880 0.21101 -0.69700
H 	H 	0.00640 0.58090 0.21450 0.20900
H 	H 	0.01080 0.63820 0.18590 0.20900
H 	H 	0.99600 0.63950 0.24010 0.20600
C 	C 	0.21050 0.31884 0.06220 -0.70300
H 	H 	0.21010 0.28740 0.04030 0.20900
H 	H 	0.24860 0.32420 0.07410 0.21200
H 	H 	0.18520 0.31080 0.08820 0.20800
C 	C 	0.19137 0.37196 0.03740 0.23600
C 	C 	0.21957 0.40977 0.00758 -0.16300
C 	C 	0.17936 0.45201 0.99648 0.24800
C 	C 	0.18626 0.50409 0.96666 -0.75400
H 	H 	0.19070 0.53690 0.98680 0.23100
H 	H 	0.21950 0.50000 0.94690 0.22800
H 	H 	0.15300 0.50890 0.94710 0.22900
N 	N 	0.97346 0.51141 0.06661 -0.21800
N 	N 	0.95615 0.46767 0.09462 -0.21700
H 	H 	0.96290 0.43220 0.08860 0.07600
N 	N 	0.88919 0.64547 0.22326 -0.21000
H 	H 	0.89680 0.66720 0.24700 0.08300
N 	N 	0.83622 0.63778 0.20558 -0.18700
N 	N 	0.12945 0.44096 0.01737 -0.19700
N 	N 	0.13796 0.39189 0.04221 -0.21200
H 	H 	0.11210 0.37550 0.05910 0.08300
Ag	Ag	0.55702 0.00306 0.52653 0.48800
C 	C 	0.40390 0.94611 0.66872 -0.73300
H 	H 	0.42290 0.90980 0.66630 0.21500
H 	H 	0.40980 0.96170 0.69980 0.22700
H 	H 	0.36360 0.94100 0.66330 0.21700
C 	C 	0.42745 0.98590 0.63270 0.25600
C 	C 	0.42589 0.04517 0.63003 -0.17100
C 	C 	0.45473 0.05893 0.58819 0.22900
C 	C 	0.46470 0.11678 0.56755 -0.70300
H 	H 	0.47070 0.11340 0.53400 0.19900
H 	H 	0.43190 0.14050 0.57340 0.21600
H 	H 	0.49780 0.13370 0.58200 0.21400
C 	C 	0.29302 0.08150 0.64101 -0.70700
H 	H 	0.29750 0.09450 0.60890 0.22000
H 	H 	0.29120 0.04050 0.64140 0.20700
H 	H 	0.25840 0.09690 0.65410 0.20900
C 	C 	0.34249 0.10089 0.66980 0.22400
C 	C 	0.40043 0.08491 0.66468 -0.14600
C 	C 	0.42886 0.11510 0.69936 0.22500
C 	C 	0.49110 0.11880 0.71101 -0.68900
H 	H 	0.50640 0.08090 0.71450 0.20500
H 	H 	0.51080 0.13820 0.68590 0.20600
H 	H 	0.49600 0.13950 0.74010 0.20300
C 	C 	0.71050 0.81884 0.56220 -0.70400
H 	H 	0.71010 0.78740 0.54030 0.20900
H 	H 	0.74860 0.82420 0.57410 0.21200
H 	H 	0.68520 0.81080 0.58820 0.20900
C 	C 	0.69137 0.87196 0.53740 0.23700
C 	C 	0.71957 0.90977 0.50758 -0.16500
C 	C 	0.67936 0.95201 0.49648 0.26400
C 	C 	0.68626 0.00409 0.46666 -0.78200
H 	H 	0.69070 0.03690 0.48680 0.23800
H 	H 	0.71950 0.00000 0.44690 0.23300
H 	H 	0.65300 0.00890 0.44710 0.23400
N 	N 	0.47346 0.01141 0.56661 -0.22400
N 	N 	0.45615 0.96767 0.59462 -0.21600
H 	H 	0.46290 0.93220 0.58860 0.07700
N 	N 	0.38919 0.14547 0.72326 -0.20900
H 	H 	0.39680 0.16720 0.74700 0.08300
N 	N 	0.33622 0.13778 0.70558 -0.18600
N 	N 	0.62945 0.94096 0.51737 -0.19700
N 	N 	0.63796 0.89189 0.54221 -0.21200
H 	H 	0.61210 0.87550 0.55910 0.08400
Ag	Ag	0.25306 0.69298 0.27653 0.49300
C 	C 	0.19611 0.84610 0.41872 -0.71200
H 	H 	0.15980 0.82710 0.41630 0.20900
H 	H 	0.21170 0.84020 0.44980 0.21900
H 	H 	0.19100 0.88640 0.41330 0.21000
C 	C 	0.23590 0.82255 0.38270 0.23500
C 	C 	0.29517 0.82411 0.38003 -0.15300
C 	C 	0.30893 0.79527 0.33819 0.22400
C 	C 	0.36678 0.78530 0.31755 -0.69600
H 	H 	0.36340 0.77930 0.28400 0.19700
H 	H 	0.39050 0.81810 0.32340 0.21400
H 	H 	0.38370 0.75220 0.33200 0.21200
C 	C 	0.33150 0.95698 0.39101 -0.73500
H 	H 	0.34450 0.95250 0.35890 0.23000
H 	H 	0.29050 0.95880 0.39140 0.22200
H 	H 	0.34690 0.99160 0.40410 0.22300
C 	C 	0.35089 0.90751 0.41980 0.23700
C 	C 	0.33491 0.84957 0.41468 -0.15600
C 	C 	0.36510 0.82114 0.44936 0.23200
C 	C 	0.36880 0.75890 0.46101 -0.69900
H 	H 	0.33090 0.74360 0.46450 0.20900
H 	H 	0.38820 0.73920 0.43590 0.20900
H 	H 	0.38950 0.75400 0.49010 0.20600
C 	C 	0.06884 0.53950 0.31220 -0.70300
H 	H 	0.03740 0.53990 0.29030 0.20900
H 	H 	0.07420 0.50140 0.32410 0.21200
H 	H 	0.06080 0.56480 0.33820 0.20800
C 	C 	0.12196 0.55863 0.28740 0.23600
C 	C 	0.15977 0.53043 0.25758 -0.16300
C 	C 	0.20201 0.57064 0.24648 0.24800
C 	C 	0.25409 0.56374 0.21666 -0.75300
H 	H 	0.28690 0.55930 0.23680 0.23100
H 	H 	0.25000 0.53050 0.19690 0.22800
H 	H 	0.25890 0.59700 0.19710 0.22900
N 	N 	0.26141 0.77654 0.31661 -0.21800
N 	N 	0.21767 0.79385 0.34462 -0.21700
H 	H 	0.18220 0.78710 0.33860 0.07600
N 	N 	0.39547 0.86081 0.47326 -0.21000
H 	H 	0.41720 0.85320 0.49700 0.08400
N 	N 	0.38778 0.91378 0.45558 -0.18700
N 	N 	0.19096 0.62055 0.26737 -0.19700
N 	N 	0.14189 0.61204 0.29221 -0.21200
H 	H 	0.12550 0.63790 0.30910 0.08300
Ag	Ag	0.75306 0.19298 0.77653 0.49300
C 	C 	0.69611 0.34610 0.91872 -0.70900
H 	H 	0.65980 0.32710 0.91630 0.20800
H 	H 	0.71170 0.34020 0.94980 0.21800
H 	H 	0.69100 0.38640 0.91330 0.20800
C 	C 	0.73590 0.32255 0.88270 0.23500
C 	C 	0.79517 0.32411 0.88003 -0.15400
C 	C 	0.80893 0.29527 0.83819 0.22400
C 	C 	0.86678 0.28530 0.81755 -0.69600
H 	H 	0.86340 0.27930 0.78400 0.19700
H 	H 	0.89050 0.31810 0.82340 0.21400
H 	H 	0.88370 0.25220 0.83200 0.21200
C 	C 	0.83150 0.45698 0.89101 -0.71800
H 	H 	0.84450 0.45250 0.85890 0.22300
H 	H 	0.79050 0.45880 0.89140 0.21300
H 	H 	0.84690 0.49160 0.90410 0.21300
C 	C 	0.85089 0.40751 0.91980 0.23000
C 	C 	0.83491 0.34957 0.91468 -0.15300
C 	C 	0.86510 0.32114 0.94936 0.23000
C 	C 	0.86880 0.25890 0.96101 -0.69800
H 	H 	0.83090 0.24360 0.96450 0.20900
H 	H 	0.88820 0.23920 0.93590 0.20900
H 	H 	0.88950 0.25400 0.99010 0.20600
C 	C 	0.56884 0.03950 0.81220 -0.69800
H 	H 	0.53740 0.03990 0.79030 0.20500
H 	H 	0.57420 0.00140 0.82410 0.20600
H 	H 	0.56080 0.06480 0.83820 0.20600
C 	C 	0.62196 0.05863 0.78740 0.23500
C 	C 	0.65977 0.03043 0.75758 -0.17400
C 	C 	0.70201 0.07064 0.74648 0.24900
C 	C 	0.75409 0.06374 0.71666 -0.75100
H 	H 	0.78690 0.05930 0.73680 0.22800
H 	H 	0.75000 0.03050 0.69690 0.22500
H 	H 	0.75890 0.09700 0.69710 0.22800
N 	N 	0.76141 0.27654 0.81661 -0.21800
N 	N 	0.71767 0.29385 0.84462 -0.21700
H 	H 	0.68220 0.28710 0.83860 0.07600
N 	N 	0.89547 0.36081 0.97326 -0.21000
H 	H 	0.91720 0.35320 0.99700 0.08400
N 	N 	0.88778 0.41378 0.95558 -0.18700
N 	N 	0.69096 0.12055 0.76737 -0.19700
N 	N 	0.64189 0.11204 0.79221 -0.21200
H 	H 	0.62550 0.13790 0.80910 0.08300
Ag	Ag	0.24694 0.30702 0.77653 0.49300
C 	C 	0.30389 0.15390 0.91872 -0.70900
H 	H 	0.34020 0.17290 0.91630 0.20800
H 	H 	0.28830 0.15980 0.94980 0.21700
H 	H 	0.30900 0.11360 0.91330 0.20800
C 	C 	0.26410 0.17745 0.88270 0.23500
C 	C 	0.20483 0.17589 0.88003 -0.15400
C 	C 	0.19107 0.20473 0.83819 0.22500
C 	C 	0.13322 0.21470 0.81755 -0.69600
H 	H 	0.13660 0.22070 0.78400 0.19700
H 	H 	0.10950 0.18190 0.82340 0.21400
H 	H 	0.11630 0.24780 0.83200 0.21200
C 	C 	0.16850 0.04302 0.89101 -0.70600
H 	H 	0.15550 0.04750 0.85890 0.21800
H 	H 	0.20950 0.04120 0.89140 0.20700
H 	H 	0.15310 0.00840 0.90410 0.20600
C 	C 	0.14911 0.09249 0.91980 0.22600
C 	C 	0.16509 0.15043 0.91468 -0.15100
C 	C 	0.13490 0.17886 0.94936 0.22900
C 	C 	0.13120 0.24110 0.96101 -0.69600
H 	H 	0.16910 0.25640 0.96450 0.20900
H 	H 	0.11180 0.26080 0.93590 0.20900
H 	H 	0.11050 0.24600 0.99010 0.20500
C 	C 	0.43116 0.46050 0.81220 -0.70300
H 	H 	0.46260 0.46010 0.79030 0.20900
H 	H 	0.42580 0.49860 0.82410 0.21200
H 	H 	0.43920 0.43520 0.83820 0.20800
C 	C 	0.37804 0.44137 0.78740 0.23600
C 	C 	0.34023 0.46957 0.75758 -0.16300
C 	C 	0.29799 0.42936 0.74648 0.24800
C 	C 	0.24591 0.43626 0.71666 -0.75300
H 	H 	0.21310 0.44070 0.73680 0.23100
H 	H 	0.25000 0.46950 0.69690 0.22800
H 	H 	0.24110 0.40300 0.69710 0.22900
N 	N 	0.23859 0.22346 0.81661 -0.21800
N 	N 	0.28233 0.20615 0.84462 -0.21700
H 	H 	0.31780 0.21290 0.83860 0.07600
N 	N 	0.10453 0.13919 0.97326 -0.21000
H 	H 	0.08280 0.14680 0.99700 0.08300
N 	N 	0.11222 0.08622 0.95558 -0.18700
N 	N 	0.30904 0.37945 0.76737 -0.19700
N 	N 	0.35811 0.38796 0.79221 -0.21200
H 	H 	0.37450 0.36210 0.80910 0.08300
Ag	Ag	0.74694 0.80702 0.27653 0.49300
C 	C 	0.80389 0.65390 0.41872 -0.70900
H 	H 	0.84020 0.67290 0.41630 0.20800
H 	H 	0.78830 0.65980 0.44980 0.21800
H 	H 	0.80900 0.61360 0.41330 0.20800
C 	C 	0.76410 0.67745 0.38270 0.23500
C 	C 	0.70483 0.67589 0.38003 -0.15400
C 	C 	0.69107 0.70473 0.33819 0.22400
C 	C 	0.63322 0.71470 0.31755 -0.69600
H 	H 	0.63660 0.72070 0.28400 0.19700
H 	H 	0.60950 0.68190 0.32340 0.21400
H 	H 	0.61630 0.74780 0.33200 0.21200
C 	C 	0.66850 0.54302 0.39101 -0.71800
H 	H 	0.65550 0.54750 0.35890 0.22300
H 	H 	0.70950 0.54120 0.39140 0.21300
H 	H 	0.65310 0.50840 0.40410 0.21300
C 	C 	0.64911 0.59249 0.41980 0.23000
C 	C 	0.66509 0.65043 0.41468 -0.15300
C 	C 	0.63490 0.67886 0.44936 0.23000
C 	C 	0.63120 0.74110 0.46101 -0.69700
H 	H 	0.66910 0.75640 0.46450 0.20900
H 	H 	0.61180 0.76080 0.43590 0.20900
H 	H 	0.61050 0.74600 0.49010 0.20600
C 	C 	0.93116 0.96050 0.31220 -0.70800
H 	H 	0.96260 0.96010 0.29030 0.21200
H 	H 	0.92580 0.99860 0.32410 0.21800
H 	H 	0.93920 0.93520 0.33820 0.21100
C 	C 	0.87804 0.94137 0.28740 0.23700
C 	C 	0.84023 0.96957 0.25758 -0.15200
C 	C 	0.79799 0.92936 0.24648 0.24700
C 	C 	0.74591 0.93626 0.21666 -0.75600
H 	H 	0.71310 0.94070 0.23680 0.23300
H 	H 	0.75000 0.96950 0.19690 0.23200
H 	H 	0.74110 0.90300 0.19710 0.23000
N 	N 	0.73859 0.72346 0.31661 -0.21800
N 	N 	0.78233 0.70615 0.34462 -0.21700
H 	H 	0.81780 0.71290 0.33860 0.07600
N 	N 	0.60453 0.63919 0.47326 -0.21000
H 	H 	0.58280 0.64680 0.49700 0.08300
N 	N 	0.61222 0.58622 0.45558 -0.18700
N 	N 	0.80904 0.87945 0.26737 -0.19700
N 	N 	0.85811 0.88796 0.29221 -0.21200
H 	H 	0.87450 0.86210 0.30910 0.08400
Ag	Ag	0.05702 0.49694 0.47347 0.49300
C 	C 	0.90390 0.55389 0.33128 -0.70900
H 	H 	0.92290 0.59020 0.33370 0.20800
H 	H 	0.90980 0.53830 0.30020 0.21800
H 	H 	0.86360 0.55900 0.33670 0.20800
C 	C 	0.92745 0.51410 0.36730 0.23500
C 	C 	0.92589 0.45483 0.36997 -0.15400
C 	C 	0.95473 0.44107 0.41181 0.22400
C 	C 	0.96470 0.38322 0.43245 -0.69600
H 	H 	0.97070 0.38660 0.46600 0.19700
H 	H 	0.93190 0.35950 0.42660 0.21400
H 	H 	0.99780 0.36630 0.41800 0.21200
C 	C 	0.79302 0.41850 0.35899 -0.71800
H 	H 	0.79750 0.40550 0.39110 0.22300
H 	H 	0.79120 0.45950 0.35860 0.21300
H 	H 	0.75840 0.40310 0.34590 0.21300
C 	C 	0.84249 0.39911 0.33020 0.23000
C 	C 	0.90043 0.41509 0.33532 -0.15300
C 	C 	0.92886 0.38490 0.30064 0.23000
C 	C 	0.99110 0.38120 0.28899 -0.69700
H 	H 	0.00640 0.41910 0.28550 0.20900
H 	H 	0.01080 0.36180 0.31410 0.20900
H 	H 	0.99600 0.36050 0.25990 0.20600
C 	C 	0.21050 0.68116 0.43780 -0.70300
H 	H 	0.21010 0.71260 0.45970 0.20900
H 	H 	0.24860 0.67580 0.42590 0.21200
H 	H 	0.18520 0.68920 0.41180 0.20800
C 	C 	0.19137 0.62804 0.46260 0.23600
C 	C 	0.21957 0.59023 0.49242 -0.16300
C 	C 	0.17936 0.54799 0.50352 0.24800
C 	C 	0.18626 0.49591 0.53334 -0.75300
H 	H 	0.19070 0.46310 0.51320 0.23100
H 	H 	0.21950 0.50000 0.55310 0.22800
H 	H 	0.15300 0.49110 0.55290 0.22900
N 	N 	0.97346 0.48859 0.43339 -0.21800
N 	N 	0.95615 0.53233 0.40538 -0.21700
H 	H 	0.96290 0.56780 0.41140 0.07600
N 	N 	0.88919 0.35453 0.27674 -0.21000
H 	H 	0.89680 0.33280 0.25300 0.08400
N 	N 	0.83622 0.36222 0.29442 -0.18700
N 	N 	0.12945 0.55904 0.48263 -0.19700
N 	N 	0.13796 0.60811 0.45779 -0.21200
H 	H 	0.11210 0.62450 0.44090 0.08300
Ag	Ag	0.55702 0.99694 0.97347 0.49800
C 	C 	0.40390 0.05389 0.83128 -0.68600
H 	H 	0.42290 0.09020 0.83370 0.20100
H 	H 	0.40980 0.03830 0.80020 0.20800
H 	H 	0.36360 0.05900 0.83670 0.20000
C 	C 	0.42745 0.01410 0.86730 0.21500
C 	C 	0.42589 0.95483 0.86997 -0.13600
C 	C 	0.45473 0.94107 0.91181 0.21900
C 	C 	0.46470 0.88322 0.93245 -0.69000
H 	H 	0.47070 0.88660 0.96600 0.19600
H 	H 	0.43190 0.85950 0.92660 0.21200
H 	H 	0.49780 0.86630 0.91800 0.21100
C 	C 	0.29302 0.91850 0.85899 -0.73100
H 	H 	0.29750 0.90550 0.89110 0.22800
H 	H 	0.29120 0.95950 0.85860 0.22100
H 	H 	0.25840 0.90310 0.84590 0.21800
C 	C 	0.34249 0.89911 0.83020 0.23700
C 	C 	0.40043 0.91509 0.83532 -0.16000
C 	C 	0.42886 0.88490 0.80064 0.23500
C 	C 	0.49110 0.88120 0.78899 -0.70500
H 	H 	0.50640 0.91910 0.78550 0.21300
H 	H 	0.51080 0.86180 0.81410 0.21200
H 	H 	0.49600 0.86050 0.75990 0.20800
C 	C 	0.71050 0.18116 0.93780 -0.69900
H 	H 	0.71010 0.21260 0.95970 0.20800
H 	H 	0.74860 0.17580 0.92590 0.21100
H 	H 	0.68520 0.18920 0.91180 0.20700
C 	C 	0.69137 0.12804 0.96260 0.23200
C 	C 	0.71957 0.09023 0.99242 -0.15400
C 	C 	0.67936 0.04799 0.00352 0.21700
C 	C 	0.68626 0.99591 0.03334 -0.66300
H 	H 	0.69070 0.96310 0.01320 0.20600
H 	H 	0.71950 0.00000 0.05310 0.19400
H 	H 	0.65300 0.99110 0.05290 0.20500
N 	N 	0.47346 0.98859 0.93339 -0.21100
N 	N 	0.45615 0.03233 0.90538 -0.21800
H 	H 	0.46290 0.06780 0.91140 0.07500
N 	N 	0.38919 0.85453 0.77674 -0.21100
H 	H 	0.39680 0.83280 0.75300 0.08400
N 	N 	0.33622 0.86222 0.79442 -0.18800
N 	N 	0.62945 0.05904 0.98263 -0.19400
N 	N 	0.63796 0.10811 0.95779 -0.21100
H 	H 	0.61210 0.12450 0.94090 0.08200
Ag	Ag	0.44298 0.50306 0.97347 0.49300
C 	C 	0.59610 0.44611 0.83128 -0.70900
H 	H 	0.57710 0.40980 0.83370 0.20800
H 	H 	0.59020 0.46170 0.80020 0.21800
H 	H 	0.63640 0.44100 0.83670 0.20800
C 	C 	0.57255 0.48590 0.86730 0.23500
C 	C 	0.57411 0.54517 0.86997 -0.15400
C 	C 	0.54527 0.55893 0.91181 0.22400
C 	C 	0.53530 0.61678 0.93245 -0.69600
H 	H 	0.52930 0.61340 0.96600 0.19700
H 	H 	0.56810 0.64050 0.92660 0.21400
H 	H 	0.50220 0.63370 0.91800 0.21200
C 	C 	0.70698 0.58150 0.85899 -0.71800
H 	H 	0.70250 0.59450 0.89110 0.22300
H 	H 	0.70880 0.54050 0.85860 0.21300
H 	H 	0.74160 0.59690 0.84590 0.21300
C 	C 	0.65751 0.60089 0.83020 0.23000
C 	C 	0.59957 0.58491 0.83532 -0.15300
C 	C 	0.57114 0.61510 0.80064 0.23000
C 	C 	0.50890 0.61880 0.78899 -0.69700
H 	H 	0.49360 0.58090 0.78550 0.20900
H 	H 	0.48920 0.63820 0.81410 0.20900
H 	H 	0.50400 0.63950 0.75990 0.20500
C 	C 	0.28950 0.31884 0.93780 -0.70300
H 	H 	0.28990 0.28740 0.95970 0.20900
H 	H 	0.25140 0.32420 0.92590 0.21200
H 	H 	0.31480 0.31080 0.91180 0.20800
C 	C 	0.30863 0.37196 0.96260 0.23600
C 	C 	0.28043 0.40977 0.99242 -0.16300
C 	C 	0.32064 0.45201 0.00352 0.24800
C 	C 	0.31374 0.50409 0.03334 -0.75400
H 	H 	0.30930 0.53690 0.01320 0.23100
H 	H 	0.28050 0.50000 0.05310 0.22800
H 	H 	0.34700 0.50890 0.05290 0.22900
N 	N 	0.52654 0.51141 0.93339 -0.21800
N 	N 	0.54385 0.46767 0.90538 -0.21700
H 	H 	0.53710 0.43220 0.91140 0.07600
N 	N 	0.61081 0.64547 0.77674 -0.21000
H 	H 	0.60320 0.66720 0.75300 0.08300
N 	N 	0.66378 0.63778 0.79442 -0.18700
N 	N 	0.37055 0.44096 0.98263 -0.19700
N 	N 	0.36204 0.39189 0.95779 -0.21200
H 	H 	0.38790 0.37550 0.94090 0.08300
Ag	Ag	0.94298 0.00306 0.47347 0.48800
C 	C 	0.09610 0.94611 0.33128 -0.73300
H 	H 	0.07710 0.90980 0.33370 0.21500
H 	H 	0.09020 0.96170 0.30020 0.22700
H 	H 	0.13640 0.94100 0.33670 0.21700
C 	C 	0.07255 0.98590 0.36730 0.25600
C 	C 	0.07411 0.04517 0.36997 -0.17100
C 	C 	0.04527 0.05893 0.41181 0.22900
C 	C 	0.03530 0.11678 0.43245 -0.70300
H 	H 	0.02930 0.11340 0.46600 0.19900
H 	H 	0.06810 0.14050 0.42660 0.21600
H 	H 	0.00220 0.13370 0.41800 0.21400
C 	C 	0.20698 0.08150 0.35899 -0.70700
H 	H 	0.20250 0.09450 0.39110 0.22000
H 	H 	0.20880 0.04050 0.35860 0.20700
H 	H 	0.24160 0.09690 0.34590 0.20900
C 	C 	0.15751 0.10089 0.33020 0.22400
C 	C 	0.09957 0.08491 0.33532 -0.14600
C 	C 	0.07114 0.11510 0.30064 0.22500
C 	C 	0.00890 0.11880 0.28899 -0.68900
H 	H 	0.99360 0.08090 0.28550 0.20500
H 	H 	0.98920 0.13820 0.31410 0.20600
H 	H 	0.00400 0.13950 0.25990 0.20300
C 	C 	0.78950 0.81884 0.43780 -0.70400
H 	H 	0.78990 0.78740 0.45970 0.20900
H 	H 	0.75140 0.82420 0.42590 0.21200
H 	H 	0.81480 0.81080 0.41180 0.20900
C 	C 	0.80863 0.87196 0.46260 0.23700
C 	C 	0.78043 0.90977 0.49242 -0.16500
C 	C 	0.82064 0.95201 0.50352 0.26400
C 	C 	0.81374 0.00409 0.53334 -0.78200
H 	H 	0.80930 0.03690 0.51320 0.23800
H 	H 	0.78050 0.00000 0.55310 0.23300
H 	H 	0.84700 0.00890 0.55290 0.23400
N 	N 	0.02654 0.01141 0.43339 -0.22400
N 	N 	0.04385 0.96767 0.40538 -0.21600
H 	H 	0.03710 0.93220 0.41140 0.07700
N 	N 	0.11081 0.14547 0.27674 -0.20900
H 	H 	0.10320 0.16720 0.25300 0.08300
N 	N 	0.16378 0.13778 0.29442 -0.18600
N 	N 	0.87055 0.94096 0.48263 -0.19700
N 	N 	0.86204 0.89189 0.45779 -0.21200
H 	H 	0.88790 0.87550 0.44090 0.08400
Ag	Ag	0.24694 0.69298 0.72347 0.49300
C 	C 	0.30389 0.84610 0.58128 -0.71100
H 	H 	0.34020 0.82710 0.58370 0.20900
H 	H 	0.28830 0.84020 0.55020 0.21900
H 	H 	0.30900 0.88640 0.58670 0.21000
C 	C 	0.26410 0.82255 0.61730 0.23500
C 	C 	0.20483 0.82411 0.61997 -0.15300
C 	C 	0.19107 0.79527 0.66181 0.22400
C 	C 	0.13322 0.78530 0.68245 -0.69600
H 	H 	0.13660 0.77930 0.71600 0.19700
H 	H 	0.10950 0.81810 0.67660 0.21400
H 	H 	0.11630 0.75220 0.66800 0.21200
C 	C 	0.16850 0.95698 0.60899 -0.73500
H 	H 	0.15550 0.95250 0.64110 0.23000
H 	H 	0.20950 0.95880 0.60860 0.22100
H 	H 	0.15310 0.99160 0.59590 0.22300
C 	C 	0.14911 0.90751 0.58020 0.23700
C 	C 	0.16509 0.84957 0.58532 -0.15600
C 	C 	0.13490 0.82114 0.55064 0.23200
C 	C 	0.13120 0.75890 0.53899 -0.69900
H 	H 	0.16910 0.74360 0.53550 0.20900
H 	H 	0.11180 0.73920 0.56410 0.20900
H 	H 	0.11050 0.75400 0.50990 0.20600
C 	C 	0.43116 0.53950 0.68780 -0.70300
H 	H 	0.46260 0.53990 0.70970 0.20900
H 	H 	0.42580 0.50140 0.67590 0.21200
H 	H 	0.43920 0.56480 0.66180 0.20800
C 	C 	0.37804 0.55863 0.71260 0.23600
C 	C 	0.34023 0.53043 0.74242 -0.16300
C 	C 	0.29799 0.57064 0.75352 0.24800
C 	C 	0.24591 0.56374 0.78334 -0.75300
H 	H 	0.21310 0.55930 0.76320 0.23100
H 	H 	0.25000 0.53050 0.80310 0.22800
H 	H 	0.24110 0.59700 0.80290 0.22900
N 	N 	0.23859 0.77654 0.68339 -0.21800
N 	N 	0.28233 0.79385 0.65538 -0.21700
H 	H 	0.31780 0.78710 0.66140 0.07600
N 	N 	0.10453 0.86081 0.52674 -0.21000
H 	H 	0.08280 0.85320 0.50300 0.08400
N 	N 	0.11222 0.91378 0.54442 -0.18700
N 	N 	0.30904 0.62055 0.73263 -0.19700
N 	N 	0.35811 0.61204 0.70779 -0.21200
H 	H 	0.37450 0.63790 0.69090 0.08300
Ag	Ag	0.74694 0.19298 0.22347 0.49300
C 	C 	0.80389 0.34610 0.08128 -0.70900
H 	H 	0.84020 0.32710 0.08370 0.20800
H 	H 	0.78830 0.34020 0.05020 0.21800
H 	H 	0.80900 0.38640 0.08670 0.20800
C 	C 	0.76410 0.32255 0.11730 0.23500
C 	C 	0.70483 0.32411 0.11997 -0.15400
C 	C 	0.69107 0.29527 0.16181 0.22400
C 	C 	0.63322 0.28530 0.18245 -0.69600
H 	H 	0.63660 0.27930 0.21600 0.19700
H 	H 	0.60950 0.31810 0.17660 0.21400
H 	H 	0.61630 0.25220 0.16800 0.21200
C 	C 	0.66850 0.45698 0.10899 -0.71800
H 	H 	0.65550 0.45250 0.14110 0.22300
H 	H 	0.70950 0.45880 0.10860 0.21300
H 	H 	0.65310 0.49160 0.09590 0.21300
C 	C 	0.64911 0.40751 0.08020 0.23000
C 	C 	0.66509 0.34957 0.08532 -0.15300
C 	C 	0.63490 0.32114 0.05064 0.23000
C 	C 	0.63120 0.25890 0.03899 -0.69800
H 	H 	0.66910 0.24360 0.03550 0.20900
H 	H 	0.61180 0.23920 0.06410 0.20900
H 	H 	0.61050 0.25400 0.00990 0.20600
C 	C 	0.93116 0.03950 0.18780 -0.69800
H 	H 	0.96260 0.03990 0.20970 0.20600
H 	H 	0.92580 0.00140 0.17590 0.20600
H 	H 	0.93920 0.06480 0.16180 0.20600
C 	C 	0.87804 0.05863 0.21260 0.23500
C 	C 	0.84023 0.03043 0.24242 -0.17400
C 	C 	0.79799 0.07064 0.25352 0.24900
C 	C 	0.74591 0.06374 0.28334 -0.75100
H 	H 	0.71310 0.05930 0.26320 0.22800
H 	H 	0.75000 0.03050 0.30310 0.22500
H 	H 	0.74110 0.09700 0.30290 0.22800
N 	N 	0.73859 0.27654 0.18339 -0.21800
N 	N 	0.78233 0.29385 0.15538 -0.21700
H 	H 	0.81780 0.28710 0.16140 0.07600
N 	N 	0.60453 0.36081 0.02674 -0.21000
H 	H 	0.58280 0.35320 0.00300 0.08400
N 	N 	0.61222 0.41378 0.04442 -0.18700
N 	N 	0.80904 0.12055 0.23263 -0.19700
N 	N 	0.85811 0.11204 0.20779 -0.21200
H 	H 	0.87450 0.13790 0.19090 0.08300
Ag	Ag	0.25306 0.30702 0.22347 0.49300
C 	C 	0.19611 0.15390 0.08128 -0.70900
H 	H 	0.15980 0.17290 0.08370 0.20800
H 	H 	0.21170 0.15980 0.05020 0.21800
H 	H 	0.19100 0.11360 0.08670 0.20800
C 	C 	0.23590 0.17745 0.11730 0.23500
C 	C 	0.29517 0.17589 0.11997 -0.15400
C 	C 	0.30893 0.20473 0.16181 0.22400
C 	C 	0.36678 0.21470 0.18245 -0.69600
H 	H 	0.36340 0.22070 0.21600 0.19700
H 	H 	0.39050 0.18190 0.17660 0.21400
H 	H 	0.38370 0.24780 0.16800 0.21200
C 	C 	0.33150 0.04302 0.10899 -0.70600
H 	H 	0.34450 0.04750 0.14110 0.21700
H 	H 	0.29050 0.04120 0.10860 0.20700
H 	H 	0.34690 0.00840 0.09590 0.20600
C 	C 	0.35089 0.09249 0.08020 0.22600
C 	C 	0.33491 0.15043 0.08532 -0.15100
C 	C 	0.36510 0.17886 0.05064 0.22900
C 	C 	0.36880 0.24110 0.03899 -0.69600
H 	H 	0.33090 0.25640 0.03550 0.20900
H 	H 	0.38820 0.26080 0.06410 0.20900
H 	H 	0.38950 0.24600 0.00990 0.20500
C 	C 	0.06884 0.46050 0.18780 -0.70300
H 	H 	0.03740 0.46010 0.20970 0.20900
H 	H 	0.07420 0.49860 0.17590 0.21200
H 	H 	0.06080 0.43520 0.16180 0.20800
C 	C 	0.12196 0.44137 0.21260 0.23600
C 	C 	0.15977 0.46957 0.24242 -0.16300
C 	C 	0.20201 0.42936 0.25352 0.24800
C 	C 	0.25409 0.43626 0.28334 -0.75300
H 	H 	0.28690 0.44070 0.26320 0.23100
H 	H 	0.25000 0.46950 0.30310 0.22800
H 	H 	0.25890 0.40300 0.30290 0.22900
N 	N 	0.26141 0.22346 0.18339 -0.21800
N 	N 	0.21767 0.20615 0.15538 -0.21700
H 	H 	0.18220 0.21290 0.16140 0.07600
N 	N 	0.39547 0.13919 0.02674 -0.21000
H 	H 	0.41720 0.14680 0.00300 0.08300
N 	N 	0.38778 0.08622 0.04442 -0.18700
N 	N 	0.19096 0.37945 0.23263 -0.19700
N 	N 	0.14189 0.38796 0.20779 -0.21200
H 	H 	0.12550 0.36210 0.19090 0.08300
Ag	Ag	0.75306 0.80702 0.72347 0.49300
C 	C 	0.69611 0.65390 0.58128 -0.70900
H 	H 	0.65980 0.67290 0.58370 0.20800
H 	H 	0.71170 0.65980 0.55020 0.21800
H 	H 	0.69100 0.61360 0.58670 0.20800
C 	C 	0.73590 0.67745 0.61730 0.23500
C 	C 	0.79517 0.67589 0.61997 -0.15400
C 	C 	0.80893 0.70473 0.66181 0.22400
C 	C 	0.86678 0.71470 0.68245 -0.69600
H 	H 	0.86340 0.72070 0.71600 0.19700
H 	H 	0.89050 0.68190 0.67660 0.21400
H 	H 	0.88370 0.74780 0.66800 0.21200
C 	C 	0.83150 0.54302 0.60899 -0.71800
H 	H 	0.84450 0.54750 0.64110 0.22300
H 	H 	0.79050 0.54120 0.60860 0.21300
H 	H 	0.84690 0.50840 0.59590 0.21300
C 	C 	0.85089 0.59249 0.58020 0.23000
C 	C 	0.83491 0.65043 0.58532 -0.15300
C 	C 	0.86510 0.67886 0.55064 0.23000
C 	C 	0.86880 0.74110 0.53899 -0.69700
H 	H 	0.83090 0.75640 0.53550 0.20900
H 	H 	0.88820 0.76080 0.56410 0.20900
H 	H 	0.88950 0.74600 0.50990 0.20600
C 	C 	0.56884 0.96050 0.68780 -0.70800
H 	H 	0.53740 0.96010 0.70970 0.21200
H 	H 	0.57420 0.99860 0.67590 0.21800
H 	H 	0.56080 0.93520 0.66180 0.21100
C 	C 	0.62196 0.94137 0.71260 0.23700
C 	C 	0.65977 0.96957 0.74242 -0.15200
C 	C 	0.70201 0.92936 0.75352 0.24700
C 	C 	0.75409 0.93626 0.78334 -0.75600
H 	H 	0.78690 0.94070 0.76320 0.23300
H 	H 	0.75000 0.96950 0.80310 0.23200
H 	H 	0.75890 0.90300 0.80290 0.23000
N 	N 	0.76141 0.72346 0.68339 -0.21800
N 	N 	0.71767 0.70615 0.65538 -0.21700
H 	H 	0.68220 0.71290 0.66140 0.07600
N 	N 	0.89547 0.63919 0.52674 -0.21000
H 	H 	0.91720 0.64680 0.50300 0.08400
N 	N 	0.88778 0.58622 0.54442 -0.18700
N 	N 	0.69096 0.87945 0.73263 -0.19700
N 	N 	0.64189 0.88796 0.70779 -0.21200
H 	H 	0.62550 0.86210 0.69090 0.08400
