data_crystal

_cell_length_a 9.86600
_cell_length_b 17.64600
_cell_length_c 11.91420
_cell_angle_alpha 90.00000
_cell_angle_beta  96.01400
_cell_angle_gamma 90.00000

_symmetry_space_group_name_	'P 1'
_symmetry_space_group_name_H-M	'P 1'

loop_
_symmetry_equiv_pos_as_xyz
  x,y,z

loop_
_atom_site_label
_atom_site_type_symbol
_atom_site_fract_x
_atom_site_fract_y
_atom_site_fract_z
_atom_site_charge
C 	C 	0.33850 0.09003 0.17890 0.28700
C 	C 	0.84930 0.13500 0.21590 0.29500
C 	C 	0.59180 0.11546 0.19970 -0.04000
H 	H 	0.60360 0.06970 0.16150 0.07800
C 	C 	0.46140 0.13761 0.21950 -0.01600
C 	C 	0.70590 0.15952 0.23510 -0.02000
C 	C 	0.44190 0.20560 0.27760 -0.10500
H 	H 	0.35480 0.22090 0.29380 0.09300
C 	C 	0.68670 0.22875 0.28900 -0.10400
H 	H 	0.76120 0.26070 0.31050 0.08900
C 	C 	0.55700 0.24931 0.31010 0.11200
C 	C 	0.57670 0.33464 0.47840 0.11100
H 	H 	0.61790 0.29910 0.53000 0.01100
C 	C 	0.48480 0.38753 0.32460 0.08600
C 	C 	0.43190 0.40891 0.20960 0.05700
C 	C 	0.42700 0.36390 0.11440 -0.10700
H 	H 	0.46000 0.31390 0.11890 0.08000
C 	C 	0.37270 0.39370 0.01290 0.04300
H 	H 	0.36890 0.36410 0.94710 0.02900
C 	C 	0.32350 0.46740 0.00750 -0.11900
H 	H 	0.28300 0.48780 0.93920 0.08500
C 	C 	0.33570 0.51010 0.10560 0.07800
H 	H 	0.30530 0.56060 0.10230 0.01500
N 	N 	0.53840 0.32071 0.36800 -0.14700
N 	N 	0.54810 0.40488 0.50330 -0.18300
N 	N 	0.48900 0.43815 0.40540 -0.17600
N 	N 	0.38890 0.48214 0.20440 -0.20700
O 	O 	0.35320 0.03143 0.12460 -0.27400
O 	O 	0.22320 0.11453 0.20340 -0.36200
O 	O 	0.86760 0.06711 0.18800 -0.33500
O 	O 	0.94270 0.18074 0.23430 -0.26400
Cu	Cu	0.42403 0.54365 0.34774 0.91000
C 	C 	0.16150 0.59003 0.32110 0.28600
C 	C 	0.65070 0.63500 0.28410 0.29500
C 	C 	0.90820 0.61546 0.30030 -0.04000
H 	H 	0.89640 0.56970 0.33850 0.07800
C 	C 	0.03860 0.63761 0.28050 -0.01500
C 	C 	0.79410 0.65952 0.26490 -0.02000
C 	C 	0.05810 0.70560 0.22240 -0.10300
H 	H 	0.14520 0.72090 0.20620 0.09300
C 	C 	0.81330 0.72875 0.21100 -0.10300
H 	H 	0.73880 0.76070 0.18950 0.08900
C 	C 	0.94300 0.74931 0.18990 0.11000
C 	C 	0.92330 0.83464 0.02160 0.11500
H 	H 	0.88210 0.79910 0.97000 0.00900
C 	C 	0.01520 0.88753 0.17540 0.08900
C 	C 	0.06810 0.90891 0.29040 0.05500
C 	C 	0.07300 0.86390 0.38560 -0.10300
H 	H 	0.04000 0.81390 0.38110 0.07900
C 	C 	0.12730 0.89370 0.48710 0.03900
H 	H 	0.13110 0.86410 0.55290 0.03100
C 	C 	0.17650 0.96740 0.49250 -0.10900
H 	H 	0.21700 0.98780 0.56080 0.08200
C 	C 	0.16430 0.01010 0.39440 0.06700
H 	H 	0.19470 0.06060 0.39770 0.01800
N 	N 	0.96160 0.82071 0.13200 -0.14800
N 	N 	0.95190 0.90488 0.99670 -0.18600
N 	N 	0.01100 0.93815 0.09460 -0.17500
N 	N 	0.11110 0.98214 0.29560 -0.20300
O 	O 	0.14680 0.53143 0.37540 -0.27300
O 	O 	0.27680 0.61453 0.29660 -0.36200
O 	O 	0.63240 0.56711 0.31200 -0.33600
O 	O 	0.55730 0.68074 0.26570 -0.26600
Cu	Cu	0.07597 0.04365 0.15226 0.90800
C 	C 	0.66150 0.90997 0.82110 0.28600
C 	C 	0.15070 0.86500 0.78410 0.29400
C 	C 	0.40820 0.88454 0.80030 -0.04000
H 	H 	0.39640 0.93030 0.83850 0.07800
C 	C 	0.53860 0.86239 0.78050 -0.01600
C 	C 	0.29410 0.84048 0.76490 -0.02000
C 	C 	0.55810 0.79440 0.72240 -0.10500
H 	H 	0.64520 0.77910 0.70620 0.09300
C 	C 	0.31330 0.77125 0.71100 -0.10400
H 	H 	0.23880 0.73930 0.68950 0.08900
C 	C 	0.44300 0.75069 0.68990 0.11200
C 	C 	0.42330 0.66536 0.52160 0.11100
H 	H 	0.38210 0.70090 0.47000 0.01100
C 	C 	0.51520 0.61247 0.67540 0.08600
C 	C 	0.56810 0.59109 0.79040 0.05700
C 	C 	0.57300 0.63610 0.88560 -0.10700
H 	H 	0.54000 0.68610 0.88110 0.08000
C 	C 	0.62730 0.60630 0.98710 0.04300
H 	H 	0.63110 0.63590 0.05290 0.02900
C 	C 	0.67650 0.53260 0.99250 -0.11900
H 	H 	0.71700 0.51220 0.06080 0.08500
C 	C 	0.66430 0.48990 0.89440 0.07800
H 	H 	0.69470 0.43940 0.89770 0.01500
N 	N 	0.46160 0.67929 0.63200 -0.14700
N 	N 	0.45190 0.59512 0.49670 -0.18300
N 	N 	0.51100 0.56185 0.59460 -0.17600
N 	N 	0.61110 0.51786 0.79560 -0.20700
O 	O 	0.64680 0.96857 0.87540 -0.27400
O 	O 	0.77680 0.88547 0.79660 -0.36200
O 	O 	0.13240 0.93289 0.81200 -0.33500
O 	O 	0.05730 0.81926 0.76570 -0.26400
Cu	Cu	0.57597 0.45635 0.65226 0.91000
C 	C 	0.83850 0.40997 0.67890 0.28600
C 	C 	0.34930 0.36500 0.71590 0.29500
C 	C 	0.09180 0.38454 0.69970 -0.04000
H 	H 	0.10360 0.43030 0.66150 0.07800
C 	C 	0.96140 0.36239 0.71950 -0.01500
C 	C 	0.20590 0.34048 0.73510 -0.02000
C 	C 	0.94190 0.29440 0.77760 -0.10300
H 	H 	0.85480 0.27910 0.79380 0.09300
C 	C 	0.18670 0.27125 0.78900 -0.10300
H 	H 	0.26120 0.23930 0.81050 0.08900
C 	C 	0.05700 0.25069 0.81010 0.11000
C 	C 	0.07670 0.16536 0.97840 0.11500
H 	H 	0.11790 0.20090 0.03000 0.00900
C 	C 	0.98480 0.11247 0.82460 0.08900
C 	C 	0.93190 0.09109 0.70960 0.05500
C 	C 	0.92700 0.13610 0.61440 -0.10300
H 	H 	0.96000 0.18610 0.61890 0.07900
C 	C 	0.87270 0.10630 0.51290 0.03900
H 	H 	0.86890 0.13590 0.44710 0.03100
C 	C 	0.82350 0.03260 0.50750 -0.10900
H 	H 	0.78300 0.01220 0.43920 0.08200
C 	C 	0.83570 0.98990 0.60560 0.06700
H 	H 	0.80530 0.93940 0.60230 0.01800
N 	N 	0.03840 0.17929 0.86800 -0.14800
N 	N 	0.04810 0.09512 0.00330 -0.18600
N 	N 	0.98900 0.06185 0.90540 -0.17500
N 	N 	0.88890 0.01786 0.70440 -0.20300
O 	O 	0.85320 0.46857 0.62460 -0.27300
O 	O 	0.72320 0.38547 0.70340 -0.36200
O 	O 	0.36760 0.43289 0.68800 -0.33600
O 	O 	0.44270 0.31926 0.73430 -0.26600
Cu	Cu	0.92403 0.95635 0.84774 0.90800
