data_crystal

_cell_length_a 20.40290
_cell_length_b 17.33100
_cell_length_c 38.67930
_cell_angle_alpha 90.00000
_cell_angle_beta  91.03800
_cell_angle_gamma 90.00000

_symmetry_space_group_name_	'P 1'
_symmetry_space_group_name_H-M	'P 1'

loop_
_symmetry_equiv_pos_as_xyz
  x,y,z

loop_
_atom_site_label
_atom_site_type_symbol
_atom_site_fract_x
_atom_site_fract_y
_atom_site_fract_z
_atom_site_charge
Br	Br	0.57316 0.34690 0.60709 -0.19600
Br	Br	0.43298 0.67064 0.64985 -0.18200
Br	Br	0.58235 0.62621 0.68045 -0.20600
Br	Br	0.95296 0.31562 0.62378 -0.19500
Br	Br	0.05093 0.67333 0.62129 -0.19400
Br	Br	0.11161 0.35849 0.62752 -0.19600
Br	Br	0.89141 0.63080 0.62441 -0.19500
Br	Br	0.42580 0.39326 0.57555 -0.21100
Co	Co	0.25287 0.57651 0.58626 1.15800
Co	Co	0.75027 0.43134 0.67051 1.15900
N 	N 	0.24690 0.68900 0.59910 -0.24300
N 	N 	0.75560 0.18470 0.82500 -0.24300
O 	O 	0.63260 0.42940 0.68208 -0.34000
N 	N 	0.23250 0.04670 0.52030 -0.09500
O 	O 	0.16540 0.53160 0.59431 -0.42900
O 	O 	0.68520 0.48700 0.64023 -0.41000
O 	O 	0.32550 0.52630 0.61206 -0.42200
O 	O 	0.83090 0.44740 0.59980 -0.29500
O 	O 	0.37610 0.59700 0.57356 -0.32900
C 	C 	0.95550 0.55270 0.62370 0.11000
C 	C 	0.11360 0.84750 0.56430 -0.05300
H 	H 	0.12420 0.79870 0.57270 0.08000
C 	C 	0.04770 0.43700 0.62550 0.11100
N 	N 	0.73540 0.51130 0.77130 -0.09600
O 	O 	0.16980 0.54730 0.65140 -0.29300
C 	C 	0.02200 0.56980 0.62350 0.10800
C 	C 	0.37690 0.55390 0.59780 0.36900
N 	N 	0.25570 0.05910 0.46520 -0.24000
O 	O 	0.84030 0.45490 0.65697 -0.43900
C 	C 	0.98120 0.41950 0.62520 0.10700
C 	C 	0.25020 0.74720 0.57740 0.10600
H 	H 	0.25900 0.74200 0.55400 -0.00300
C 	C 	0.23200 0.89040 0.57640 -0.11200
H 	H 	0.26120 0.89340 0.55690 0.08900
H 	H 	0.24460 0.93040 0.59280 0.09700
C 	C 	0.93460 0.47730 0.62520 -0.11800
C 	C 	0.05210 0.86210 0.55290 -0.02800
H 	H 	0.02050 0.82350 0.55370 0.07600
C 	C 	0.53820 0.56110 0.64900 0.10700
C 	C 	0.47560 0.57890 0.63600 0.10200
C 	C 	0.47290 0.46110 0.60510 0.10100
C 	C 	0.63250 0.46730 0.65540 0.35700
N 	N 	0.23910 0.81490 0.59300 -0.09700
C 	C 	0.63980 0.47550 0.80600 0.04900
N 	N 	0.73610 0.30940 0.82970 -0.09700
C 	C 	0.56800 0.49200 0.63990 -0.12000
C 	C 	0.52680 0.44430 0.79280 -0.01200
H 	H 	0.48650 0.45700 0.78270 0.05900
N 	N 	0.75980 0.47460 0.71900 -0.24000
C 	C 	0.59400 0.35560 0.82380 -0.06700
H 	H 	0.59900 0.30770 0.83430 0.09100
C 	C 	0.06870 0.51210 0.62440 -0.11900
C 	C 	0.03550 0.93480 0.54010 0.00300
H 	H 	0.99310 0.94460 0.53190 0.05500
C 	C 	0.44230 0.53070 0.61400 -0.11500
C 	C 	0.14430 0.97860 0.55160 0.06100
C 	C 	0.20880 0.06100 0.48870 0.09100
H 	H 	0.16500 0.07110 0.48360 0.01700
C 	C 	0.16200 0.90500 0.56370 0.03600
C 	C 	0.69540 0.53230 0.80150 -0.13000
H 	H 	0.67750 0.58380 0.79820 0.09900
H 	H 	0.72290 0.53280 0.82220 0.09500
C 	C 	0.14140 0.53120 0.62390 0.38900
C 	C 	0.53440 0.44370 0.61800 0.09900
C 	C 	0.80100 0.51850 0.76850 -0.01000
H 	H 	0.83040 0.53600 0.78540 0.07400
C 	C 	0.22710 0.79830 0.62640 0.01200
H 	H 	0.21710 0.83370 0.64360 0.06600
C 	C 	0.72820 0.23970 0.84290 0.11000
H 	H 	0.70520 0.23060 0.86300 0.01100
C 	C 	0.31150 0.04180 0.48340 0.02300
H 	H 	0.35270 0.03540 0.47400 0.04200
C 	C 	0.71050 0.38350 0.84150 -0.12100
H 	H 	0.70210 0.38050 0.86600 0.10200
H 	H 	0.74340 0.42310 0.83810 0.09500
C 	C 	0.19330 0.04470 0.55160 -0.13900
H 	H 	0.16990 0.09310 0.55370 0.10300
H 	H 	0.22240 0.03980 0.57160 0.10200
C 	C 	0.08200 0.99180 0.53960 -0.08700
H 	H 	0.07090 0.04030 0.53100 0.08600
C 	C 	0.23220 0.72230 0.63030 0.03300
H 	H 	0.22660 0.69580 0.65090 0.04200
C 	C 	0.64750 0.40690 0.82230 0.04500
C 	C 	0.57850 0.49290 0.79110 -0.07900
H 	H 	0.57310 0.53960 0.77960 0.08700
C 	C 	0.71210 0.48510 0.74140 0.09100
H 	H 	0.66810 0.47520 0.73670 0.01800
C 	C 	0.53550 0.37630 0.80980 -0.01900
H 	H 	0.50010 0.34300 0.81180 0.07200
C 	C 	0.81560 0.49470 0.73560 0.02800
H 	H 	0.85730 0.49280 0.72630 0.03800
C 	C 	0.86110 0.45760 0.62660 0.40500
C 	C 	0.78250 0.22240 0.79720 0.01800
H 	H 	0.80480 0.19830 0.77950 0.02500
C 	C 	0.77200 0.29970 0.79940 -0.00100
H 	H 	0.78560 0.33780 0.78420 0.04700
C 	C 	0.29750 0.03520 0.51770 -0.00700
H 	H 	0.32710 0.02490 0.53560 0.06900
Br	Br	0.92684 0.84690 0.39291 -0.19600
Br	Br	0.06702 0.17064 0.35015 -0.18200
Br	Br	0.91765 0.12621 0.31955 -0.20600
Br	Br	0.54704 0.81562 0.37622 -0.19500
Br	Br	0.44907 0.17333 0.37871 -0.19400
Br	Br	0.38839 0.85849 0.37248 -0.19600
Br	Br	0.60859 0.13080 0.37559 -0.19500
Br	Br	0.07420 0.89326 0.42445 -0.21100
Co	Co	0.24713 0.07651 0.41374 1.15800
Co	Co	0.74973 0.93134 0.32949 1.15900
N 	N 	0.25310 0.18900 0.40090 -0.24300
N 	N 	0.74440 0.68470 0.17500 -0.24300
O 	O 	0.86740 0.92940 0.31792 -0.34000
N 	N 	0.26750 0.54670 0.47970 -0.09500
O 	O 	0.33460 0.03160 0.40569 -0.42900
O 	O 	0.81480 0.98700 0.35977 -0.41000
O 	O 	0.17450 0.02630 0.38794 -0.42100
O 	O 	0.66910 0.94740 0.40020 -0.29500
O 	O 	0.12390 0.09700 0.42644 -0.32900
C 	C 	0.54450 0.05270 0.37630 0.11000
C 	C 	0.38640 0.34750 0.43570 -0.05200
H 	H 	0.37580 0.29870 0.42730 0.08000
C 	C 	0.45230 0.93700 0.37450 0.11000
N 	N 	0.76460 0.01130 0.22870 -0.09600
O 	O 	0.33020 0.04730 0.34860 -0.29300
C 	C 	0.47800 0.06980 0.37650 0.10800
C 	C 	0.12310 0.05390 0.40220 0.36800
N 	N 	0.24430 0.55910 0.53480 -0.24000
O 	O 	0.65970 0.95490 0.34303 -0.43900
C 	C 	0.51880 0.91950 0.37480 0.10700
C 	C 	0.24980 0.24720 0.42260 0.10600
H 	H 	0.24100 0.24200 0.44600 -0.00300
C 	C 	0.26800 0.39040 0.42360 -0.11100
H 	H 	0.23880 0.39340 0.44310 0.08900
H 	H 	0.25540 0.43040 0.40720 0.09700
C 	C 	0.56540 0.97730 0.37480 -0.11800
C 	C 	0.44790 0.36210 0.44710 -0.02800
H 	H 	0.47950 0.32350 0.44630 0.07600
C 	C 	0.96180 0.06110 0.35100 0.10700
C 	C 	0.02440 0.07890 0.36400 0.10200
C 	C 	0.02710 0.96110 0.39490 0.10100
C 	C 	0.86750 0.96730 0.34460 0.35700
N 	N 	0.26090 0.31490 0.40700 -0.09700
C 	C 	0.86020 0.97550 0.19400 0.04900
N 	N 	0.76390 0.80940 0.17030 -0.09700
C 	C 	0.93200 0.99200 0.36010 -0.12000
C 	C 	0.97320 0.94430 0.20720 -0.01200
H 	H 	0.01350 0.95700 0.21730 0.05900
N 	N 	0.74020 0.97460 0.28100 -0.24000
C 	C 	0.90600 0.85560 0.17620 -0.06700
H 	H 	0.90100 0.80770 0.16570 0.09100
C 	C 	0.43130 0.01210 0.37560 -0.11900
C 	C 	0.46450 0.43480 0.45990 0.00300
H 	H 	0.50690 0.44460 0.46810 0.05500
C 	C 	0.05770 0.03070 0.38600 -0.11500
C 	C 	0.35570 0.47860 0.44840 0.06100
C 	C 	0.29120 0.56100 0.51130 0.09100
H 	H 	0.33500 0.57110 0.51640 0.01700
C 	C 	0.33800 0.40500 0.43630 0.03600
C 	C 	0.80460 0.03230 0.19850 -0.13000
H 	H 	0.82250 0.08380 0.20180 0.09900
H 	H 	0.77710 0.03280 0.17780 0.09500
C 	C 	0.35860 0.03120 0.37610 0.38900
C 	C 	0.96560 0.94370 0.38200 0.09900
C 	C 	0.69900 0.01850 0.23150 -0.01000
H 	H 	0.66960 0.03600 0.21460 0.07400
C 	C 	0.27290 0.29830 0.37360 0.01200
H 	H 	0.28290 0.33370 0.35640 0.06500
C 	C 	0.77180 0.73970 0.15710 0.11000
H 	H 	0.79480 0.73060 0.13700 0.01100
C 	C 	0.18850 0.54180 0.51660 0.02300
H 	H 	0.14730 0.53540 0.52600 0.04200
C 	C 	0.78950 0.88350 0.15850 -0.12100
H 	H 	0.79790 0.88050 0.13400 0.10200
H 	H 	0.75660 0.92310 0.16190 0.09500
C 	C 	0.30670 0.54470 0.44840 -0.13900
H 	H 	0.33010 0.59310 0.44630 0.10300
H 	H 	0.27760 0.53980 0.42840 0.10200
C 	C 	0.41800 0.49180 0.46040 -0.08800
H 	H 	0.42910 0.54030 0.46900 0.08600
C 	C 	0.26780 0.22230 0.36970 0.03300
H 	H 	0.27340 0.19580 0.34910 0.04200
C 	C 	0.85250 0.90690 0.17770 0.04500
C 	C 	0.92150 0.99290 0.20890 -0.08000
H 	H 	0.92690 0.03960 0.22040 0.08800
C 	C 	0.78790 0.98510 0.25860 0.09100
H 	H 	0.83190 0.97520 0.26330 0.01800
C 	C 	0.96450 0.87630 0.19020 -0.02000
H 	H 	0.99990 0.84300 0.18820 0.07200
C 	C 	0.68440 0.99470 0.26440 0.02700
H 	H 	0.64270 0.99280 0.27370 0.03800
C 	C 	0.63890 0.95760 0.37340 0.40500
C 	C 	0.71750 0.72240 0.20280 0.01800
H 	H 	0.69520 0.69830 0.22050 0.02500
C 	C 	0.72800 0.79970 0.20060 -0.00100
H 	H 	0.71440 0.83780 0.21580 0.04700
C 	C 	0.20250 0.53520 0.48230 -0.00700
H 	H 	0.17290 0.52490 0.46440 0.06900
Br	Br	0.92684 0.15310 0.89291 -0.19600
Br	Br	0.06702 0.82936 0.85015 -0.18200
Br	Br	0.91765 0.87379 0.81955 -0.20600
Br	Br	0.54704 0.18438 0.87622 -0.19500
Br	Br	0.44907 0.82667 0.87871 -0.19400
Br	Br	0.38839 0.14151 0.87248 -0.19600
Br	Br	0.60859 0.86920 0.87559 -0.19500
Br	Br	0.07420 0.10674 0.92445 -0.21100
Co	Co	0.24713 0.92349 0.91374 1.15800
Co	Co	0.74973 0.06866 0.82949 1.15900
N 	N 	0.25310 0.81100 0.90090 -0.24300
N 	N 	0.74440 0.31530 0.67500 -0.24300
O 	O 	0.86740 0.07060 0.81792 -0.34000
N 	N 	0.26750 0.45330 0.97970 -0.09500
O 	O 	0.33460 0.96840 0.90569 -0.42900
O 	O 	0.81480 0.01300 0.85977 -0.41000
O 	O 	0.17450 0.97370 0.88794 -0.42100
O 	O 	0.66910 0.05260 0.90020 -0.29500
O 	O 	0.12390 0.90300 0.92644 -0.32900
C 	C 	0.54450 0.94730 0.87630 0.11000
C 	C 	0.38640 0.65250 0.93570 -0.05200
H 	H 	0.37580 0.70130 0.92730 0.08000
C 	C 	0.45230 0.06300 0.87450 0.11000
N 	N 	0.76460 0.98870 0.72870 -0.09600
O 	O 	0.33020 0.95270 0.84860 -0.29300
C 	C 	0.47800 0.93020 0.87650 0.10800
C 	C 	0.12310 0.94610 0.90220 0.36800
N 	N 	0.24430 0.44090 0.03480 -0.24000
O 	O 	0.65970 0.04510 0.84303 -0.43900
C 	C 	0.51880 0.08050 0.87480 0.10700
C 	C 	0.24980 0.75280 0.92260 0.10600
H 	H 	0.24100 0.75800 0.94600 -0.00300
C 	C 	0.26800 0.60960 0.92360 -0.11100
H 	H 	0.23880 0.60660 0.94310 0.08900
H 	H 	0.25540 0.56960 0.90720 0.09700
C 	C 	0.56540 0.02270 0.87480 -0.11800
C 	C 	0.44790 0.63790 0.94710 -0.02800
H 	H 	0.47950 0.67650 0.94630 0.07600
C 	C 	0.96180 0.93890 0.85100 0.10700
C 	C 	0.02440 0.92110 0.86400 0.10200
C 	C 	0.02710 0.03890 0.89490 0.10100
C 	C 	0.86750 0.03270 0.84460 0.35700
N 	N 	0.26090 0.68510 0.90700 -0.09700
C 	C 	0.86020 0.02450 0.69400 0.04900
N 	N 	0.76390 0.19060 0.67030 -0.09700
C 	C 	0.93200 0.00800 0.86010 -0.12000
C 	C 	0.97320 0.05570 0.70720 -0.01200
H 	H 	0.01350 0.04300 0.71730 0.05900
N 	N 	0.74020 0.02540 0.78100 -0.24000
C 	C 	0.90600 0.14440 0.67620 -0.06700
H 	H 	0.90100 0.19230 0.66570 0.09100
C 	C 	0.43130 0.98790 0.87560 -0.11900
C 	C 	0.46450 0.56520 0.95990 0.00300
H 	H 	0.50690 0.55540 0.96810 0.05500
C 	C 	0.05770 0.96930 0.88600 -0.11500
C 	C 	0.35570 0.52140 0.94840 0.06100
C 	C 	0.29120 0.43900 0.01130 0.09100
H 	H 	0.33500 0.42890 0.01640 0.01700
C 	C 	0.33800 0.59500 0.93630 0.03600
C 	C 	0.80460 0.96770 0.69850 -0.13000
H 	H 	0.82250 0.91620 0.70180 0.09900
H 	H 	0.77710 0.96720 0.67780 0.09500
C 	C 	0.35860 0.96880 0.87610 0.38900
C 	C 	0.96560 0.05630 0.88200 0.09900
C 	C 	0.69900 0.98150 0.73150 -0.01000
H 	H 	0.66960 0.96400 0.71460 0.07400
C 	C 	0.27290 0.70170 0.87360 0.01200
H 	H 	0.28290 0.66630 0.85640 0.06500
C 	C 	0.77180 0.26030 0.65710 0.11000
H 	H 	0.79480 0.26940 0.63700 0.01100
C 	C 	0.18850 0.45820 0.01660 0.02300
H 	H 	0.14730 0.46460 0.02600 0.04200
C 	C 	0.78950 0.11650 0.65850 -0.12100
H 	H 	0.79790 0.11950 0.63400 0.10200
H 	H 	0.75660 0.07690 0.66190 0.09500
C 	C 	0.30670 0.45530 0.94840 -0.13900
H 	H 	0.33010 0.40690 0.94630 0.10300
H 	H 	0.27760 0.46020 0.92840 0.10200
C 	C 	0.41800 0.50820 0.96040 -0.08800
H 	H 	0.42910 0.45970 0.96900 0.08600
C 	C 	0.26780 0.77770 0.86970 0.03300
H 	H 	0.27340 0.80420 0.84910 0.04200
C 	C 	0.85250 0.09310 0.67770 0.04500
C 	C 	0.92150 0.00710 0.70890 -0.08000
H 	H 	0.92690 0.96040 0.72040 0.08700
C 	C 	0.78790 0.01490 0.75860 0.09100
H 	H 	0.83190 0.02480 0.76330 0.01800
C 	C 	0.96450 0.12370 0.69020 -0.02000
H 	H 	0.99990 0.15700 0.68820 0.07200
C 	C 	0.68440 0.00530 0.76440 0.02700
H 	H 	0.64270 0.00720 0.77370 0.03800
C 	C 	0.63890 0.04240 0.87340 0.40500
C 	C 	0.71750 0.27760 0.70280 0.01800
H 	H 	0.69520 0.30170 0.72050 0.02500
C 	C 	0.72800 0.20030 0.70060 -0.00100
H 	H 	0.71440 0.16220 0.71580 0.04700
C 	C 	0.20250 0.46480 0.98230 -0.00700
H 	H 	0.17290 0.47510 0.96440 0.06900
Br	Br	0.57316 0.65310 0.10709 -0.19600
Br	Br	0.43298 0.32936 0.14985 -0.18200
Br	Br	0.58235 0.37379 0.18045 -0.20600
Br	Br	0.95296 0.68438 0.12378 -0.19500
Br	Br	0.05093 0.32667 0.12129 -0.19400
Br	Br	0.11161 0.64151 0.12752 -0.19600
Br	Br	0.89141 0.36920 0.12441 -0.19500
Br	Br	0.42580 0.60674 0.07555 -0.21100
Co	Co	0.25287 0.42349 0.08626 1.15800
Co	Co	0.75027 0.56866 0.17051 1.15900
N 	N 	0.24690 0.31100 0.09910 -0.24300
N 	N 	0.75560 0.81530 0.32500 -0.24300
O 	O 	0.63260 0.57060 0.18208 -0.34000
N 	N 	0.23250 0.95330 0.02030 -0.09500
O 	O 	0.16540 0.46840 0.09431 -0.42900
O 	O 	0.68520 0.51300 0.14023 -0.41000
O 	O 	0.32550 0.47370 0.11206 -0.42200
O 	O 	0.83090 0.55260 0.09980 -0.29500
O 	O 	0.37610 0.40300 0.07356 -0.32900
C 	C 	0.95550 0.44730 0.12370 0.11000
C 	C 	0.11360 0.15250 0.06430 -0.05300
H 	H 	0.12420 0.20130 0.07270 0.08000
C 	C 	0.04770 0.56300 0.12550 0.11100
N 	N 	0.73540 0.48870 0.27130 -0.09600
O 	O 	0.16980 0.45270 0.15140 -0.29300
C 	C 	0.02200 0.43020 0.12350 0.10800
C 	C 	0.37690 0.44610 0.09780 0.36900
N 	N 	0.25570 0.94090 0.96520 -0.24000
O 	O 	0.84030 0.54510 0.15697 -0.43900
C 	C 	0.98120 0.58050 0.12520 0.10700
C 	C 	0.25020 0.25280 0.07740 0.10600
H 	H 	0.25900 0.25800 0.05400 -0.00300
C 	C 	0.23200 0.10960 0.07640 -0.11200
H 	H 	0.26120 0.10660 0.05690 0.08900
H 	H 	0.24460 0.06960 0.09280 0.09700
C 	C 	0.93460 0.52270 0.12520 -0.11800
C 	C 	0.05210 0.13790 0.05290 -0.02800
H 	H 	0.02050 0.17650 0.05370 0.07600
C 	C 	0.53820 0.43890 0.14900 0.10700
C 	C 	0.47560 0.42110 0.13600 0.10200
C 	C 	0.47290 0.53890 0.10510 0.10100
C 	C 	0.63250 0.53270 0.15540 0.35700
N 	N 	0.23910 0.18510 0.09300 -0.09700
C 	C 	0.63980 0.52450 0.30600 0.04900
N 	N 	0.73610 0.69060 0.32970 -0.09700
C 	C 	0.56800 0.50800 0.13990 -0.12000
C 	C 	0.52680 0.55570 0.29280 -0.01200
H 	H 	0.48650 0.54300 0.28270 0.05900
N 	N 	0.75980 0.52540 0.21900 -0.24000
C 	C 	0.59400 0.64440 0.32380 -0.06700
H 	H 	0.59900 0.69230 0.33430 0.09100
C 	C 	0.06870 0.48790 0.12440 -0.11900
C 	C 	0.03550 0.06520 0.04010 0.00300
H 	H 	0.99310 0.05540 0.03190 0.05500
C 	C 	0.44230 0.46930 0.11400 -0.11500
C 	C 	0.14430 0.02140 0.05160 0.06100
C 	C 	0.20880 0.93900 0.98870 0.09100
H 	H 	0.16500 0.92890 0.98360 0.01700
C 	C 	0.16200 0.09500 0.06370 0.03600
C 	C 	0.69540 0.46770 0.30150 -0.13000
H 	H 	0.67750 0.41620 0.29820 0.09900
H 	H 	0.72290 0.46720 0.32220 0.09500
C 	C 	0.14140 0.46880 0.12390 0.38900
C 	C 	0.53440 0.55630 0.11800 0.09900
C 	C 	0.80100 0.48150 0.26850 -0.01000
H 	H 	0.83040 0.46400 0.28540 0.07400
C 	C 	0.22710 0.20170 0.12640 0.01200
H 	H 	0.21710 0.16630 0.14360 0.06500
C 	C 	0.72820 0.76030 0.34290 0.11000
H 	H 	0.70520 0.76940 0.36300 0.01100
C 	C 	0.31150 0.95820 0.98340 0.02300
H 	H 	0.35270 0.96460 0.97400 0.04200
C 	C 	0.71050 0.61650 0.34150 -0.12100
H 	H 	0.70210 0.61950 0.36600 0.10200
H 	H 	0.74340 0.57690 0.33810 0.09500
C 	C 	0.19330 0.95530 0.05160 -0.13900
H 	H 	0.16990 0.90690 0.05370 0.10300
H 	H 	0.22240 0.96020 0.07160 0.10200
C 	C 	0.08200 0.00820 0.03960 -0.08700
H 	H 	0.07090 0.95970 0.03100 0.08600
C 	C 	0.23220 0.27770 0.13030 0.03300
H 	H 	0.22660 0.30420 0.15090 0.04200
C 	C 	0.64750 0.59310 0.32230 0.04500
C 	C 	0.57850 0.50710 0.29110 -0.07900
H 	H 	0.57310 0.46040 0.27960 0.08700
C 	C 	0.71210 0.51490 0.24140 0.09100
H 	H 	0.66810 0.52480 0.23670 0.01800
C 	C 	0.53550 0.62370 0.30980 -0.01900
H 	H 	0.50010 0.65700 0.31180 0.07200
C 	C 	0.81560 0.50530 0.23560 0.02800
H 	H 	0.85730 0.50720 0.22630 0.03800
C 	C 	0.86110 0.54240 0.12660 0.40500
C 	C 	0.78250 0.77760 0.29720 0.01800
H 	H 	0.80480 0.80170 0.27950 0.02500
C 	C 	0.77200 0.70030 0.29940 -0.00100
H 	H 	0.78560 0.66220 0.28420 0.04700
C 	C 	0.29750 0.96480 0.01770 -0.00700
H 	H 	0.32710 0.97510 0.03560 0.06900
Br	Br	0.07316 0.84690 0.10709 -0.19600
Br	Br	0.93298 0.17064 0.14985 -0.18200
Br	Br	0.08235 0.12621 0.18045 -0.20600
Br	Br	0.45296 0.81562 0.12378 -0.19500
Br	Br	0.55093 0.17333 0.12129 -0.19400
Br	Br	0.61161 0.85849 0.12752 -0.19600
Br	Br	0.39141 0.13080 0.12441 -0.19500
Br	Br	0.92580 0.89326 0.07555 -0.21100
Co	Co	0.75287 0.07651 0.08626 1.15800
Co	Co	0.25027 0.93134 0.17051 1.15900
N 	N 	0.74690 0.18900 0.09910 -0.24300
N 	N 	0.25560 0.68470 0.32500 -0.24300
O 	O 	0.13260 0.92940 0.18208 -0.34000
N 	N 	0.73250 0.54670 0.02030 -0.09500
O 	O 	0.66540 0.03160 0.09431 -0.42900
O 	O 	0.18520 0.98700 0.14023 -0.41000
O 	O 	0.82550 0.02630 0.11206 -0.42100
O 	O 	0.33090 0.94740 0.09980 -0.29500
O 	O 	0.87610 0.09700 0.07356 -0.32900
C 	C 	0.45550 0.05270 0.12370 0.11000
C 	C 	0.61360 0.34750 0.06430 -0.05200
H 	H 	0.62420 0.29870 0.07270 0.08000
C 	C 	0.54770 0.93700 0.12550 0.11000
N 	N 	0.23540 0.01130 0.27130 -0.09600
O 	O 	0.66980 0.04730 0.15140 -0.29300
C 	C 	0.52200 0.06980 0.12350 0.10800
C 	C 	0.87690 0.05390 0.09780 0.36800
N 	N 	0.75570 0.55910 0.96520 -0.24000
O 	O 	0.34030 0.95490 0.15697 -0.43900
C 	C 	0.48120 0.91950 0.12520 0.10700
C 	C 	0.75020 0.24720 0.07740 0.10600
H 	H 	0.75900 0.24200 0.05400 -0.00300
C 	C 	0.73200 0.39040 0.07640 -0.11100
H 	H 	0.76120 0.39340 0.05690 0.08900
H 	H 	0.74460 0.43040 0.09280 0.09700
C 	C 	0.43460 0.97730 0.12520 -0.11800
C 	C 	0.55210 0.36210 0.05290 -0.02800
H 	H 	0.52050 0.32350 0.05370 0.07600
C 	C 	0.03820 0.06110 0.14900 0.10700
C 	C 	0.97560 0.07890 0.13600 0.10200
C 	C 	0.97290 0.96110 0.10510 0.10100
C 	C 	0.13250 0.96730 0.15540 0.35700
N 	N 	0.73910 0.31490 0.09300 -0.09700
C 	C 	0.13980 0.97550 0.30600 0.04900
N 	N 	0.23610 0.80940 0.32970 -0.09700
C 	C 	0.06800 0.99200 0.13990 -0.12000
C 	C 	0.02680 0.94430 0.29280 -0.01200
H 	H 	0.98650 0.95700 0.28270 0.05900
N 	N 	0.25980 0.97460 0.21900 -0.24000
C 	C 	0.09400 0.85560 0.32380 -0.06700
H 	H 	0.09900 0.80770 0.33430 0.09100
C 	C 	0.56870 0.01210 0.12440 -0.11900
C 	C 	0.53550 0.43480 0.04010 0.00300
H 	H 	0.49310 0.44460 0.03190 0.05500
C 	C 	0.94230 0.03070 0.11400 -0.11500
C 	C 	0.64430 0.47860 0.05160 0.06100
C 	C 	0.70880 0.56100 0.98870 0.09100
H 	H 	0.66500 0.57110 0.98360 0.01700
C 	C 	0.66200 0.40500 0.06370 0.03600
C 	C 	0.19540 0.03230 0.30150 -0.13000
H 	H 	0.17750 0.08380 0.29820 0.09900
H 	H 	0.22290 0.03280 0.32220 0.09500
C 	C 	0.64140 0.03120 0.12390 0.38900
C 	C 	0.03440 0.94370 0.11800 0.09900
C 	C 	0.30100 0.01850 0.26850 -0.01000
H 	H 	0.33040 0.03600 0.28540 0.07400
C 	C 	0.72710 0.29830 0.12640 0.01200
H 	H 	0.71710 0.33370 0.14360 0.06500
C 	C 	0.22820 0.73970 0.34290 0.11000
H 	H 	0.20520 0.73060 0.36300 0.01100
C 	C 	0.81150 0.54180 0.98340 0.02300
H 	H 	0.85270 0.53540 0.97400 0.04200
C 	C 	0.21050 0.88350 0.34150 -0.12100
H 	H 	0.20210 0.88050 0.36600 0.10200
H 	H 	0.24340 0.92310 0.33810 0.09500
C 	C 	0.69330 0.54470 0.05160 -0.13900
H 	H 	0.66990 0.59310 0.05370 0.10300
H 	H 	0.72240 0.53980 0.07160 0.10200
C 	C 	0.58200 0.49180 0.03960 -0.08800
H 	H 	0.57090 0.54030 0.03100 0.08600
C 	C 	0.73220 0.22230 0.13030 0.03300
H 	H 	0.72660 0.19580 0.15090 0.04200
C 	C 	0.14750 0.90690 0.32230 0.04500
C 	C 	0.07850 0.99290 0.29110 -0.08000
H 	H 	0.07310 0.03960 0.27960 0.08700
C 	C 	0.21210 0.98510 0.24140 0.09100
H 	H 	0.16810 0.97520 0.23670 0.01800
C 	C 	0.03550 0.87630 0.30980 -0.02000
H 	H 	0.00010 0.84300 0.31180 0.07200
C 	C 	0.31560 0.99470 0.23560 0.02700
H 	H 	0.35730 0.99280 0.22630 0.03800
C 	C 	0.36110 0.95760 0.12660 0.40500
C 	C 	0.28250 0.72240 0.29720 0.01800
H 	H 	0.30480 0.69830 0.27950 0.02500
C 	C 	0.27200 0.79970 0.29940 -0.00100
H 	H 	0.28560 0.83780 0.28420 0.04700
C 	C 	0.79750 0.53520 0.01770 -0.00700
H 	H 	0.82710 0.52490 0.03560 0.06900
Br	Br	0.42684 0.34690 0.89291 -0.19600
Br	Br	0.56702 0.67064 0.85015 -0.18200
Br	Br	0.41765 0.62621 0.81955 -0.20600
Br	Br	0.04704 0.31562 0.87622 -0.19500
Br	Br	0.94907 0.67333 0.87871 -0.19400
Br	Br	0.88839 0.35849 0.87248 -0.19600
Br	Br	0.10859 0.63080 0.87559 -0.19500
Br	Br	0.57420 0.39326 0.92445 -0.21100
Co	Co	0.74713 0.57651 0.91374 1.15800
Co	Co	0.24973 0.43134 0.82949 1.15900
N 	N 	0.75310 0.68900 0.90090 -0.24300
N 	N 	0.24440 0.18470 0.67500 -0.24300
O 	O 	0.36740 0.42940 0.81792 -0.34000
N 	N 	0.76750 0.04670 0.97970 -0.09500
O 	O 	0.83460 0.53160 0.90569 -0.42900
O 	O 	0.31480 0.48700 0.85977 -0.41000
O 	O 	0.67450 0.52630 0.88794 -0.42200
O 	O 	0.16910 0.44740 0.90020 -0.29500
O 	O 	0.62390 0.59700 0.92644 -0.32900
C 	C 	0.04450 0.55270 0.87630 0.11000
C 	C 	0.88640 0.84750 0.93570 -0.05300
H 	H 	0.87580 0.79870 0.92730 0.08000
C 	C 	0.95230 0.43700 0.87450 0.11100
N 	N 	0.26460 0.51130 0.72870 -0.09600
O 	O 	0.83020 0.54730 0.84860 -0.29300
C 	C 	0.97800 0.56980 0.87650 0.10800
C 	C 	0.62310 0.55390 0.90220 0.36900
N 	N 	0.74430 0.05910 0.03480 -0.24000
O 	O 	0.15970 0.45490 0.84303 -0.43900
C 	C 	0.01880 0.41950 0.87480 0.10700
C 	C 	0.74980 0.74720 0.92260 0.10600
H 	H 	0.74100 0.74200 0.94600 -0.00300
C 	C 	0.76800 0.89040 0.92360 -0.11200
H 	H 	0.73880 0.89340 0.94310 0.08900
H 	H 	0.75540 0.93040 0.90720 0.09700
C 	C 	0.06540 0.47730 0.87480 -0.11800
C 	C 	0.94790 0.86210 0.94710 -0.02800
H 	H 	0.97950 0.82350 0.94630 0.07600
C 	C 	0.46180 0.56110 0.85100 0.10700
C 	C 	0.52440 0.57890 0.86400 0.10200
C 	C 	0.52710 0.46110 0.89490 0.10100
C 	C 	0.36750 0.46730 0.84460 0.35700
N 	N 	0.76090 0.81490 0.90700 -0.09700
C 	C 	0.36020 0.47550 0.69400 0.04900
N 	N 	0.26390 0.30940 0.67030 -0.09700
C 	C 	0.43200 0.49200 0.86010 -0.12000
C 	C 	0.47320 0.44430 0.70720 -0.01200
H 	H 	0.51350 0.45700 0.71730 0.05900
N 	N 	0.24020 0.47460 0.78100 -0.24000
C 	C 	0.40600 0.35560 0.67620 -0.06700
H 	H 	0.40100 0.30770 0.66570 0.09100
C 	C 	0.93130 0.51210 0.87560 -0.11900
C 	C 	0.96450 0.93480 0.95990 0.00300
H 	H 	0.00690 0.94460 0.96810 0.05500
C 	C 	0.55770 0.53070 0.88600 -0.11500
C 	C 	0.85570 0.97860 0.94840 0.06100
C 	C 	0.79120 0.06100 0.01130 0.09100
H 	H 	0.83500 0.07110 0.01640 0.01700
C 	C 	0.83800 0.90500 0.93630 0.03600
C 	C 	0.30460 0.53230 0.69850 -0.13000
H 	H 	0.32250 0.58380 0.70180 0.09900
H 	H 	0.27710 0.53280 0.67780 0.09500
C 	C 	0.85860 0.53120 0.87610 0.38900
C 	C 	0.46560 0.44370 0.88200 0.09900
C 	C 	0.19900 0.51850 0.73150 -0.01000
H 	H 	0.16960 0.53600 0.71460 0.07400
C 	C 	0.77290 0.79830 0.87360 0.01200
H 	H 	0.78290 0.83370 0.85640 0.06500
C 	C 	0.27180 0.23970 0.65710 0.11000
H 	H 	0.29480 0.23060 0.63700 0.01100
C 	C 	0.68850 0.04180 0.01660 0.02300
H 	H 	0.64730 0.03540 0.02600 0.04200
C 	C 	0.28950 0.38350 0.65850 -0.12100
H 	H 	0.29790 0.38050 0.63400 0.10200
H 	H 	0.25660 0.42310 0.66190 0.09500
C 	C 	0.80670 0.04470 0.94840 -0.13900
H 	H 	0.83010 0.09310 0.94630 0.10300
H 	H 	0.77760 0.03980 0.92840 0.10200
C 	C 	0.91800 0.99180 0.96040 -0.08700
H 	H 	0.92910 0.04030 0.96900 0.08600
C 	C 	0.76780 0.72230 0.86970 0.03300
H 	H 	0.77340 0.69580 0.84910 0.04200
C 	C 	0.35250 0.40690 0.67770 0.04500
C 	C 	0.42150 0.49290 0.70890 -0.07900
H 	H 	0.42690 0.53960 0.72040 0.08700
C 	C 	0.28790 0.48510 0.75860 0.09100
H 	H 	0.33190 0.47520 0.76330 0.01800
C 	C 	0.46450 0.37630 0.69020 -0.01900
H 	H 	0.49990 0.34300 0.68820 0.07200
C 	C 	0.18440 0.49470 0.76440 0.02800
H 	H 	0.14270 0.49280 0.77370 0.03800
C 	C 	0.13890 0.45760 0.87340 0.40500
C 	C 	0.21750 0.22240 0.70280 0.01800
H 	H 	0.19520 0.19830 0.72050 0.02500
C 	C 	0.22800 0.29970 0.70060 -0.00100
H 	H 	0.21440 0.33780 0.71580 0.04700
C 	C 	0.70250 0.03520 0.98230 -0.00700
H 	H 	0.67290 0.02490 0.96440 0.06900
Br	Br	0.42684 0.65310 0.39291 -0.19600
Br	Br	0.56702 0.32936 0.35015 -0.18200
Br	Br	0.41765 0.37379 0.31955 -0.20600
Br	Br	0.04704 0.68438 0.37622 -0.19500
Br	Br	0.94907 0.32667 0.37871 -0.19400
Br	Br	0.88839 0.64151 0.37248 -0.19600
Br	Br	0.10859 0.36920 0.37559 -0.19500
Br	Br	0.57420 0.60674 0.42445 -0.21100
Co	Co	0.74713 0.42349 0.41374 1.15800
Co	Co	0.24973 0.56866 0.32949 1.15900
N 	N 	0.75310 0.31100 0.40090 -0.24300
N 	N 	0.24440 0.81530 0.17500 -0.24300
O 	O 	0.36740 0.57060 0.31792 -0.34000
N 	N 	0.76750 0.95330 0.47970 -0.09500
O 	O 	0.83460 0.46840 0.40569 -0.42900
O 	O 	0.31480 0.51300 0.35977 -0.41000
O 	O 	0.67450 0.47370 0.38794 -0.42200
O 	O 	0.16910 0.55260 0.40020 -0.29500
O 	O 	0.62390 0.40300 0.42644 -0.32900
C 	C 	0.04450 0.44730 0.37630 0.11000
C 	C 	0.88640 0.15250 0.43570 -0.05300
H 	H 	0.87580 0.20130 0.42730 0.08000
C 	C 	0.95230 0.56300 0.37450 0.11100
N 	N 	0.26460 0.48870 0.22870 -0.09600
O 	O 	0.83020 0.45270 0.34860 -0.29300
C 	C 	0.97800 0.43020 0.37650 0.10800
C 	C 	0.62310 0.44610 0.40220 0.36900
N 	N 	0.74430 0.94090 0.53480 -0.24000
O 	O 	0.15970 0.54510 0.34303 -0.43900
C 	C 	0.01880 0.58050 0.37480 0.10700
C 	C 	0.74980 0.25280 0.42260 0.10600
H 	H 	0.74100 0.25800 0.44600 -0.00300
C 	C 	0.76800 0.10960 0.42360 -0.11200
H 	H 	0.73880 0.10660 0.44310 0.08900
H 	H 	0.75540 0.06960 0.40720 0.09700
C 	C 	0.06540 0.52270 0.37480 -0.11800
C 	C 	0.94790 0.13790 0.44710 -0.02800
H 	H 	0.97950 0.17650 0.44630 0.07600
C 	C 	0.46180 0.43890 0.35100 0.10700
C 	C 	0.52440 0.42110 0.36400 0.10200
C 	C 	0.52710 0.53890 0.39490 0.10100
C 	C 	0.36750 0.53270 0.34460 0.35700
N 	N 	0.76090 0.18510 0.40700 -0.09700
C 	C 	0.36020 0.52450 0.19400 0.04900
N 	N 	0.26390 0.69060 0.17030 -0.09700
C 	C 	0.43200 0.50800 0.36010 -0.12000
C 	C 	0.47320 0.55570 0.20720 -0.01200
H 	H 	0.51350 0.54300 0.21730 0.05900
N 	N 	0.24020 0.52540 0.28100 -0.24000
C 	C 	0.40600 0.64440 0.17620 -0.06700
H 	H 	0.40100 0.69230 0.16570 0.09100
C 	C 	0.93130 0.48790 0.37560 -0.11900
C 	C 	0.96450 0.06520 0.45990 0.00300
H 	H 	0.00690 0.05540 0.46810 0.05500
C 	C 	0.55770 0.46930 0.38600 -0.11500
C 	C 	0.85570 0.02140 0.44840 0.06100
C 	C 	0.79120 0.93900 0.51130 0.09100
H 	H 	0.83500 0.92890 0.51640 0.01700
C 	C 	0.83800 0.09500 0.43630 0.03600
C 	C 	0.30460 0.46770 0.19850 -0.13000
H 	H 	0.32250 0.41620 0.20180 0.09900
H 	H 	0.27710 0.46720 0.17780 0.09500
C 	C 	0.85860 0.46880 0.37610 0.38900
C 	C 	0.46560 0.55630 0.38200 0.09900
C 	C 	0.19900 0.48150 0.23150 -0.01000
H 	H 	0.16960 0.46400 0.21460 0.07400
C 	C 	0.77290 0.20170 0.37360 0.01200
H 	H 	0.78290 0.16630 0.35640 0.06600
C 	C 	0.27180 0.76030 0.15710 0.11000
H 	H 	0.29480 0.76940 0.13700 0.01100
C 	C 	0.68850 0.95820 0.51660 0.02300
H 	H 	0.64730 0.96460 0.52600 0.04200
C 	C 	0.28950 0.61650 0.15850 -0.12100
H 	H 	0.29790 0.61950 0.13400 0.10200
H 	H 	0.25660 0.57690 0.16190 0.09500
C 	C 	0.80670 0.95530 0.44840 -0.13900
H 	H 	0.83010 0.90690 0.44630 0.10300
H 	H 	0.77760 0.96020 0.42840 0.10200
C 	C 	0.91800 0.00820 0.46040 -0.08700
H 	H 	0.92910 0.95970 0.46900 0.08600
C 	C 	0.76780 0.27770 0.36970 0.03300
H 	H 	0.77340 0.30420 0.34910 0.04200
C 	C 	0.35250 0.59310 0.17770 0.04500
C 	C 	0.42150 0.50710 0.20890 -0.07900
H 	H 	0.42690 0.46040 0.22040 0.08700
C 	C 	0.28790 0.51490 0.25860 0.09100
H 	H 	0.33190 0.52480 0.26330 0.01800
C 	C 	0.46450 0.62370 0.19020 -0.01900
H 	H 	0.49990 0.65700 0.18820 0.07200
C 	C 	0.18440 0.50530 0.26440 0.02800
H 	H 	0.14270 0.50720 0.27370 0.03800
C 	C 	0.13890 0.54240 0.37340 0.40500
C 	C 	0.21750 0.77760 0.20280 0.01800
H 	H 	0.19520 0.80170 0.22050 0.02500
C 	C 	0.22800 0.70030 0.20060 -0.00100
H 	H 	0.21440 0.66220 0.21580 0.04700
C 	C 	0.70250 0.96480 0.48230 -0.00700
H 	H 	0.67290 0.97510 0.46440 0.06900
Br	Br	0.07316 0.15310 0.60709 -0.19600
Br	Br	0.93298 0.82936 0.64985 -0.18200
Br	Br	0.08235 0.87379 0.68045 -0.20600
Br	Br	0.45296 0.18438 0.62378 -0.19500
Br	Br	0.55093 0.82667 0.62129 -0.19400
Br	Br	0.61161 0.14151 0.62752 -0.19600
Br	Br	0.39141 0.86920 0.62441 -0.19500
Br	Br	0.92580 0.10674 0.57555 -0.21100
Co	Co	0.75287 0.92349 0.58626 1.15800
Co	Co	0.25027 0.06866 0.67051 1.15900
N 	N 	0.74690 0.81100 0.59910 -0.24300
N 	N 	0.25560 0.31530 0.82500 -0.24300
O 	O 	0.13260 0.07060 0.68208 -0.34000
N 	N 	0.73250 0.45330 0.52030 -0.09500
O 	O 	0.66540 0.96840 0.59431 -0.42900
O 	O 	0.18520 0.01300 0.64023 -0.41000
O 	O 	0.82550 0.97370 0.61206 -0.42100
O 	O 	0.33090 0.05260 0.59980 -0.29500
O 	O 	0.87610 0.90300 0.57356 -0.32900
C 	C 	0.45550 0.94730 0.62370 0.11000
C 	C 	0.61360 0.65250 0.56430 -0.05200
H 	H 	0.62420 0.70130 0.57270 0.08000
C 	C 	0.54770 0.06300 0.62550 0.11000
N 	N 	0.23540 0.98870 0.77130 -0.09600
O 	O 	0.66980 0.95270 0.65140 -0.29300
C 	C 	0.52200 0.93020 0.62350 0.10800
C 	C 	0.87690 0.94610 0.59780 0.36800
N 	N 	0.75570 0.44090 0.46520 -0.24000
O 	O 	0.34030 0.04510 0.65697 -0.43900
C 	C 	0.48120 0.08050 0.62520 0.10700
C 	C 	0.75020 0.75280 0.57740 0.10600
H 	H 	0.75900 0.75800 0.55400 -0.00300
C 	C 	0.73200 0.60960 0.57640 -0.11100
H 	H 	0.76120 0.60660 0.55690 0.08900
H 	H 	0.74460 0.56960 0.59280 0.09700
C 	C 	0.43460 0.02270 0.62520 -0.11800
C 	C 	0.55210 0.63790 0.55290 -0.02800
H 	H 	0.52050 0.67650 0.55370 0.07600
C 	C 	0.03820 0.93890 0.64900 0.10700
C 	C 	0.97560 0.92110 0.63600 0.10200
C 	C 	0.97290 0.03890 0.60510 0.10100
C 	C 	0.13250 0.03270 0.65540 0.35700
N 	N 	0.73910 0.68510 0.59300 -0.09700
C 	C 	0.13980 0.02450 0.80600 0.04900
N 	N 	0.23610 0.19060 0.82970 -0.09700
C 	C 	0.06800 0.00800 0.63990 -0.12000
C 	C 	0.02680 0.05570 0.79280 -0.01200
H 	H 	0.98650 0.04300 0.78270 0.05900
N 	N 	0.25980 0.02540 0.71900 -0.24000
C 	C 	0.09400 0.14440 0.82380 -0.06700
H 	H 	0.09900 0.19230 0.83430 0.09100
C 	C 	0.56870 0.98790 0.62440 -0.11900
C 	C 	0.53550 0.56520 0.54010 0.00300
H 	H 	0.49310 0.55540 0.53190 0.05500
C 	C 	0.94230 0.96930 0.61400 -0.11500
C 	C 	0.64430 0.52140 0.55160 0.06100
C 	C 	0.70880 0.43900 0.48870 0.09100
H 	H 	0.66500 0.42890 0.48360 0.01700
C 	C 	0.66200 0.59500 0.56370 0.03600
C 	C 	0.19540 0.96770 0.80150 -0.13000
H 	H 	0.17750 0.91620 0.79820 0.09900
H 	H 	0.22290 0.96720 0.82220 0.09500
C 	C 	0.64140 0.96880 0.62390 0.38900
C 	C 	0.03440 0.05630 0.61800 0.09900
C 	C 	0.30100 0.98150 0.76850 -0.01000
H 	H 	0.33040 0.96400 0.78540 0.07400
C 	C 	0.72710 0.70170 0.62640 0.01200
H 	H 	0.71710 0.66630 0.64360 0.06500
C 	C 	0.22820 0.26030 0.84290 0.11000
H 	H 	0.20520 0.26940 0.86300 0.01100
C 	C 	0.81150 0.45820 0.48340 0.02300
H 	H 	0.85270 0.46460 0.47400 0.04200
C 	C 	0.21050 0.11650 0.84150 -0.12100
H 	H 	0.20210 0.11950 0.86600 0.10200
H 	H 	0.24340 0.07690 0.83810 0.09500
C 	C 	0.69330 0.45530 0.55160 -0.13900
H 	H 	0.66990 0.40690 0.55370 0.10300
H 	H 	0.72240 0.46020 0.57160 0.10200
C 	C 	0.58200 0.50820 0.53960 -0.08800
H 	H 	0.57090 0.45970 0.53100 0.08600
C 	C 	0.73220 0.77770 0.63030 0.03300
H 	H 	0.72660 0.80420 0.65090 0.04200
C 	C 	0.14750 0.09310 0.82230 0.04500
C 	C 	0.07850 0.00710 0.79110 -0.08000
H 	H 	0.07310 0.96040 0.77960 0.08800
C 	C 	0.21210 0.01490 0.74140 0.09100
H 	H 	0.16810 0.02480 0.73670 0.01800
C 	C 	0.03550 0.12370 0.80980 -0.02000
H 	H 	0.00010 0.15700 0.81180 0.07200
C 	C 	0.31560 0.00530 0.73560 0.02700
H 	H 	0.35730 0.00720 0.72630 0.03800
C 	C 	0.36110 0.04240 0.62660 0.40500
C 	C 	0.28250 0.27760 0.79720 0.01800
H 	H 	0.30480 0.30170 0.77950 0.02500
C 	C 	0.27200 0.20030 0.79940 -0.00100
H 	H 	0.28560 0.16220 0.78420 0.04700
C 	C 	0.79750 0.46480 0.51770 -0.00700
H 	H 	0.82710 0.47510 0.53560 0.06900
