data_crystal

_cell_length_a 20.92710
_cell_length_b 20.92710
_cell_length_c 20.92710
_cell_angle_alpha 90.00000
_cell_angle_beta  90.00000
_cell_angle_gamma 90.00000

_symmetry_space_group_name_	'P 1'
_symmetry_space_group_name_H-M	'P 1'

loop_
_symmetry_equiv_pos_as_xyz
  x,y,z

loop_
_atom_site_label
_atom_site_type_symbol
_atom_site_fract_x
_atom_site_fract_y
_atom_site_fract_z
_atom_site_charge
C 	C 	0.35960 0.80690 0.94860 2.01600
C 	C 	0.36780 0.76400 0.90990 0.54600
O 	O 	0.40700 0.78930 0.86340 -1.54900
O 	O 	0.36090 0.70470 0.90650 -0.69800
C 	C 	0.25210 0.77880 0.02320 -0.08700
Gd	Gd	0.47670 0.24910 0.78690 -0.61100
C 	C 	0.37400 0.22700 0.96300 -2.64000
C 	C 	0.40950 0.27170 0.92440 1.64700
O 	O 	0.45530 0.24500 0.89880 -0.70500
O 	O 	0.41880 0.31220 0.96710 -0.43700
C 	C 	0.64040 0.19310 0.94860 2.08100
C 	C 	0.63220 0.23600 0.90990 0.15900
O 	O 	0.59300 0.21070 0.86340 -0.52800
O 	O 	0.63910 0.29530 0.90650 -0.46800
C 	C 	0.74790 0.22120 0.02320 -0.03800
Gd	Gd	0.52330 0.75090 0.78690 -5.91300
C 	C 	0.62600 0.77300 0.96300 -2.94900
C 	C 	0.59050 0.72830 0.92440 2.16800
O 	O 	0.54470 0.75500 0.89880 -1.37500
O 	O 	0.58120 0.68780 0.96710 -0.46300
C 	C 	0.64040 0.80690 0.05140 -1.57200
C 	C 	0.63220 0.76400 0.09010 0.09300
O 	O 	0.59300 0.78930 0.13660 -0.33300
O 	O 	0.63910 0.70470 0.09350 -0.20800
C 	C 	0.74790 0.77880 0.97680 0.11300
Gd	Gd	0.52330 0.24910 0.21310 4.05000
C 	C 	0.62600 0.22700 0.03700 2.30000
C 	C 	0.59050 0.27170 0.07560 -0.70500
O 	O 	0.54470 0.24500 0.10120 0.42700
O 	O 	0.58120 0.31220 0.03290 -0.04700
C 	C 	0.35960 0.19310 0.05140 -1.50200
C 	C 	0.36780 0.23600 0.09010 -0.26000
O 	O 	0.40700 0.21070 0.13660 0.67400
O 	O 	0.36090 0.29530 0.09350 -0.09300
C 	C 	0.25210 0.22120 0.97680 0.13000
Gd	Gd	0.47670 0.75090 0.21310 -1.24100
C 	C 	0.37400 0.77300 0.03700 1.97000
C 	C 	0.40950 0.72830 0.07560 -0.14900
O 	O 	0.45530 0.75500 0.10120 -0.26400
O 	O 	0.41880 0.68780 0.03290 -0.11100
C 	C 	0.94860 0.35960 0.80690 2.01500
C 	C 	0.90990 0.36780 0.76400 0.54500
O 	O 	0.86340 0.40700 0.78930 -1.55000
O 	O 	0.90650 0.36090 0.70470 -0.69900
C 	C 	0.02320 0.25210 0.77880 -0.08800
Gd	Gd	0.78690 0.47670 0.24910 -0.61200
C 	C 	0.96300 0.37400 0.22700 -2.64000
C 	C 	0.92440 0.40950 0.27170 1.64700
O 	O 	0.89880 0.45530 0.24500 -0.70500
O 	O 	0.96710 0.41880 0.31220 -0.43700
C 	C 	0.94860 0.64040 0.19310 2.08100
C 	C 	0.90990 0.63220 0.23600 0.15900
O 	O 	0.86340 0.59300 0.21070 -0.52800
O 	O 	0.90650 0.63910 0.29530 -0.46800
C 	C 	0.02320 0.74790 0.22120 -0.03800
Gd	Gd	0.78690 0.52330 0.75090 -5.91300
C 	C 	0.96300 0.62600 0.77300 -2.94900
C 	C 	0.92440 0.59050 0.72830 2.16800
O 	O 	0.89880 0.54470 0.75500 -1.37500
O 	O 	0.96710 0.58120 0.68780 -0.46300
C 	C 	0.05140 0.64040 0.80690 -1.57200
C 	C 	0.09010 0.63220 0.76400 0.09300
O 	O 	0.13660 0.59300 0.78930 -0.33300
O 	O 	0.09350 0.63910 0.70470 -0.20800
C 	C 	0.97680 0.74790 0.77880 0.11300
Gd	Gd	0.21310 0.52330 0.24910 4.05000
C 	C 	0.03700 0.62600 0.22700 2.30000
C 	C 	0.07560 0.59050 0.27170 -0.70500
O 	O 	0.10120 0.54470 0.24500 0.42700
O 	O 	0.03290 0.58120 0.31220 -0.04700
C 	C 	0.05140 0.35960 0.19310 -1.50200
C 	C 	0.09010 0.36780 0.23600 -0.26000
O 	O 	0.13660 0.40700 0.21070 0.67400
O 	O 	0.09350 0.36090 0.29530 -0.09300
C 	C 	0.97680 0.25210 0.22120 0.13000
Gd	Gd	0.21310 0.47670 0.75090 -1.24100
C 	C 	0.03700 0.37400 0.77300 1.97000
C 	C 	0.07560 0.40950 0.72830 -0.14900
O 	O 	0.10120 0.45530 0.75500 -0.26400
O 	O 	0.03290 0.41880 0.68780 -0.11100
C 	C 	0.80690 0.94860 0.35960 2.01500
C 	C 	0.76400 0.90990 0.36780 0.54500
O 	O 	0.78930 0.86340 0.40700 -1.55000
O 	O 	0.70470 0.90650 0.36090 -0.69900
C 	C 	0.77880 0.02320 0.25210 -0.08800
Gd	Gd	0.24910 0.78690 0.47670 -0.61200
C 	C 	0.22700 0.96300 0.37400 -2.64000
C 	C 	0.27170 0.92440 0.40950 1.64700
O 	O 	0.24500 0.89880 0.45530 -0.70500
O 	O 	0.31220 0.96710 0.41880 -0.43700
C 	C 	0.19310 0.94860 0.64040 2.08100
C 	C 	0.23600 0.90990 0.63220 0.15900
O 	O 	0.21070 0.86340 0.59300 -0.52800
O 	O 	0.29530 0.90650 0.63910 -0.46800
C 	C 	0.22120 0.02320 0.74790 -0.03800
Gd	Gd	0.75090 0.78690 0.52330 -5.91300
C 	C 	0.77300 0.96300 0.62600 -2.94900
C 	C 	0.72830 0.92440 0.59050 2.16800
O 	O 	0.75500 0.89880 0.54470 -1.37500
O 	O 	0.68780 0.96710 0.58120 -0.46300
C 	C 	0.80690 0.05140 0.64040 -1.57200
C 	C 	0.76400 0.09010 0.63220 0.09300
O 	O 	0.78930 0.13660 0.59300 -0.33300
O 	O 	0.70470 0.09350 0.63910 -0.20800
C 	C 	0.77880 0.97680 0.74790 0.11300
Gd	Gd	0.24910 0.21310 0.52330 4.05000
C 	C 	0.22700 0.03700 0.62600 2.30000
C 	C 	0.27170 0.07560 0.59050 -0.70500
O 	O 	0.24500 0.10120 0.54470 0.42700
O 	O 	0.31220 0.03290 0.58120 -0.04700
C 	C 	0.19310 0.05140 0.35960 -1.50200
C 	C 	0.23600 0.09010 0.36780 -0.26000
O 	O 	0.21070 0.13660 0.40700 0.67400
O 	O 	0.29530 0.09350 0.36090 -0.09300
C 	C 	0.22120 0.97680 0.25210 0.13000
Gd	Gd	0.75090 0.21310 0.47670 -1.24100
C 	C 	0.77300 0.03700 0.37400 1.97000
C 	C 	0.72830 0.07560 0.40950 -0.14900
O 	O 	0.75500 0.10120 0.45530 -0.26400
O 	O 	0.68780 0.03290 0.41880 -0.11100
C 	C 	0.80690 0.35960 0.05140 -1.57300
C 	C 	0.76400 0.36780 0.09010 0.10900
O 	O 	0.78930 0.40700 0.13660 -0.34000
O 	O 	0.70470 0.36090 0.09350 -0.26600
C 	C 	0.77880 0.25210 0.97680 0.09700
Gd	Gd	0.24910 0.47670 0.21310 4.05400
C 	C 	0.22700 0.37400 0.03700 2.29300
C 	C 	0.27170 0.40950 0.07560 -0.68800
O 	O 	0.24500 0.45530 0.10120 0.41700
O 	O 	0.31220 0.41880 0.03290 -0.06500
C 	C 	0.19310 0.64040 0.05140 -1.50200
C 	C 	0.23600 0.63220 0.09010 -0.27600
O 	O 	0.21070 0.59300 0.13660 0.68200
O 	O 	0.29530 0.63910 0.09350 -0.03500
C 	C 	0.22120 0.74790 0.97680 0.14600
Gd	Gd	0.75090 0.52330 0.21310 -1.24500
C 	C 	0.77300 0.62600 0.03700 1.97700
C 	C 	0.72830 0.59050 0.07560 -0.16500
O 	O 	0.75500 0.54470 0.10120 -0.25400
O 	O 	0.68780 0.58120 0.03290 -0.09300
C 	C 	0.80690 0.64040 0.94860 2.01000
C 	C 	0.76400 0.63220 0.90990 0.52800
O 	O 	0.78930 0.59300 0.86340 -1.54300
O 	O 	0.70470 0.63910 0.90650 -0.64000
C 	C 	0.77880 0.74790 0.02320 -0.07200
Gd	Gd	0.24910 0.52330 0.78690 -0.61500
C 	C 	0.22700 0.62600 0.96300 -2.62600
C 	C 	0.27170 0.59050 0.92440 1.62800
O 	O 	0.24500 0.54470 0.89880 -0.69400
O 	O 	0.31220 0.58120 0.96710 -0.41800
C 	C 	0.19310 0.35960 0.94860 2.08600
C 	C 	0.23600 0.36780 0.90990 0.17500
O 	O 	0.21070 0.40700 0.86340 -0.53500
O 	O 	0.29530 0.36090 0.90650 -0.52600
C 	C 	0.22120 0.25210 0.02320 -0.05400
Gd	Gd	0.75090 0.47670 0.78690 -5.91000
C 	C 	0.77300 0.37400 0.96300 -2.96300
C 	C 	0.72830 0.40950 0.92440 2.18700
O 	O 	0.75500 0.45530 0.89880 -1.38600
O 	O 	0.68780 0.41880 0.96710 -0.48200
C 	C 	0.35960 0.94860 0.19310 2.08600
C 	C 	0.36780 0.90990 0.23600 0.17500
O 	O 	0.40700 0.86340 0.21070 -0.53500
O 	O 	0.36090 0.90650 0.29530 -0.52600
C 	C 	0.25210 0.02320 0.22120 -0.05400
Gd	Gd	0.47670 0.78690 0.75090 -5.91000
C 	C 	0.37400 0.96300 0.77300 -2.96300
C 	C 	0.40950 0.92440 0.72830 2.18700
O 	O 	0.45530 0.89880 0.75500 -1.38600
O 	O 	0.41880 0.96710 0.68780 -0.48200
C 	C 	0.64040 0.94860 0.80690 2.01000
C 	C 	0.63220 0.90990 0.76400 0.52800
O 	O 	0.59300 0.86340 0.78930 -1.54300
O 	O 	0.63910 0.90650 0.70470 -0.64000
C 	C 	0.74790 0.02320 0.77880 -0.07200
Gd	Gd	0.52330 0.78690 0.24910 -0.61500
C 	C 	0.62600 0.96300 0.22700 -2.62600
C 	C 	0.59050 0.92440 0.27170 1.62800
O 	O 	0.54470 0.89880 0.24500 -0.69400
O 	O 	0.58120 0.96710 0.31220 -0.41800
C 	C 	0.64040 0.05140 0.19310 -1.50200
C 	C 	0.63220 0.09010 0.23600 -0.27600
O 	O 	0.59300 0.13660 0.21070 0.68200
O 	O 	0.63910 0.09350 0.29530 -0.03500
C 	C 	0.74790 0.97680 0.22120 0.14600
Gd	Gd	0.52330 0.21310 0.75090 -1.24500
C 	C 	0.62600 0.03700 0.77300 1.97700
C 	C 	0.59050 0.07560 0.72830 -0.16500
O 	O 	0.54470 0.10120 0.75500 -0.25400
O 	O 	0.58120 0.03290 0.68780 -0.09300
C 	C 	0.35960 0.05140 0.80690 -1.57300
C 	C 	0.36780 0.09010 0.76400 0.10900
O 	O 	0.40700 0.13660 0.78930 -0.34000
O 	O 	0.36090 0.09350 0.70470 -0.26600
C 	C 	0.25210 0.97680 0.77880 0.09700
Gd	Gd	0.47670 0.21310 0.24910 4.05400
C 	C 	0.37400 0.03700 0.22700 2.29300
C 	C 	0.40950 0.07560 0.27170 -0.68800
O 	O 	0.45530 0.10120 0.24500 0.41700
O 	O 	0.41880 0.03290 0.31220 -0.06500
C 	C 	0.94860 0.80690 0.64040 2.01000
C 	C 	0.90990 0.76400 0.63220 0.52800
O 	O 	0.86340 0.78930 0.59300 -1.54300
O 	O 	0.90650 0.70470 0.63910 -0.64000
C 	C 	0.02320 0.77880 0.74790 -0.07200
Gd	Gd	0.78690 0.24910 0.52330 -0.61500
C 	C 	0.96300 0.22700 0.62600 -2.62600
C 	C 	0.92440 0.27170 0.59050 1.62800
O 	O 	0.89880 0.24500 0.54470 -0.69400
O 	O 	0.96710 0.31220 0.58120 -0.41800
C 	C 	0.94860 0.19310 0.35960 2.08600
C 	C 	0.90990 0.23600 0.36780 0.17500
O 	O 	0.86340 0.21070 0.40700 -0.53500
O 	O 	0.90650 0.29530 0.36090 -0.52600
C 	C 	0.02320 0.22120 0.25210 -0.05400
Gd	Gd	0.78690 0.75090 0.47670 -5.91000
C 	C 	0.96300 0.77300 0.37400 -2.96300
C 	C 	0.92440 0.72830 0.40950 2.18700
O 	O 	0.89880 0.75500 0.45530 -1.38600
O 	O 	0.96710 0.68780 0.41880 -0.48200
C 	C 	0.05140 0.80690 0.35960 -1.57300
C 	C 	0.09010 0.76400 0.36780 0.10900
O 	O 	0.13660 0.78930 0.40700 -0.34000
O 	O 	0.09350 0.70470 0.36090 -0.26600
C 	C 	0.97680 0.77880 0.25210 0.09700
Gd	Gd	0.21310 0.24910 0.47670 4.05400
C 	C 	0.03700 0.22700 0.37400 2.29300
C 	C 	0.07560 0.27170 0.40950 -0.68800
O 	O 	0.10120 0.24500 0.45530 0.41700
O 	O 	0.03290 0.31220 0.41880 -0.06500
C 	C 	0.05140 0.19310 0.64040 -1.50200
C 	C 	0.09010 0.23600 0.63220 -0.27600
O 	O 	0.13660 0.21070 0.59300 0.68200
O 	O 	0.09350 0.29530 0.63910 -0.03500
C 	C 	0.97680 0.22120 0.74790 0.14600
Gd	Gd	0.21310 0.75090 0.52330 -1.24500
C 	C 	0.03700 0.77300 0.62600 1.97700
C 	C 	0.07560 0.72830 0.59050 -0.16500
O 	O 	0.10120 0.75500 0.54470 -0.25400
O 	O 	0.03290 0.68780 0.58120 -0.09300
C 	C 	0.64040 0.19310 0.05140 -1.50200
C 	C 	0.63220 0.23600 0.09010 -0.27600
O 	O 	0.59300 0.21070 0.13660 0.68200
O 	O 	0.63910 0.29530 0.09350 -0.03500
C 	C 	0.74790 0.22120 0.97680 0.14600
Gd	Gd	0.52330 0.75090 0.21310 -1.24500
C 	C 	0.62600 0.77300 0.03700 1.97700
C 	C 	0.59050 0.72830 0.07560 -0.16500
O 	O 	0.54470 0.75500 0.10120 -0.25400
O 	O 	0.58120 0.68780 0.03290 -0.09300
C 	C 	0.35960 0.80690 0.05140 -1.57300
C 	C 	0.36780 0.76400 0.09010 0.10900
O 	O 	0.40700 0.78930 0.13660 -0.34000
O 	O 	0.36090 0.70470 0.09350 -0.26600
C 	C 	0.25210 0.77880 0.97680 0.09700
Gd	Gd	0.47670 0.24910 0.21310 4.05400
C 	C 	0.37400 0.22700 0.03700 2.29300
C 	C 	0.40950 0.27170 0.07560 -0.68800
O 	O 	0.45530 0.24500 0.10120 0.41700
O 	O 	0.41880 0.31220 0.03290 -0.06500
C 	C 	0.35960 0.19310 0.94860 2.08600
C 	C 	0.36780 0.23600 0.90990 0.17500
O 	O 	0.40700 0.21070 0.86340 -0.53500
O 	O 	0.36090 0.29530 0.90650 -0.52600
C 	C 	0.25210 0.22120 0.02320 -0.05400
Gd	Gd	0.47670 0.75090 0.78690 -5.91000
C 	C 	0.37400 0.77300 0.96300 -2.96300
C 	C 	0.40950 0.72830 0.92440 2.18700
O 	O 	0.45530 0.75500 0.89880 -1.38600
O 	O 	0.41880 0.68780 0.96710 -0.48200
C 	C 	0.64040 0.80690 0.94860 2.01000
C 	C 	0.63220 0.76400 0.90990 0.52800
O 	O 	0.59300 0.78930 0.86340 -1.54300
O 	O 	0.63910 0.70470 0.90650 -0.64000
C 	C 	0.74790 0.77880 0.02320 -0.07200
Gd	Gd	0.52330 0.24910 0.78690 -0.61500
C 	C 	0.62600 0.22700 0.96300 -2.62600
C 	C 	0.59050 0.27170 0.92440 1.62800
O 	O 	0.54470 0.24500 0.89880 -0.69400
O 	O 	0.58120 0.31220 0.96710 -0.41800
C 	C 	0.05140 0.64040 0.19310 -1.50200
C 	C 	0.09010 0.63220 0.23600 -0.27600
O 	O 	0.13660 0.59300 0.21070 0.68200
O 	O 	0.09350 0.63910 0.29530 -0.03500
C 	C 	0.97680 0.74790 0.22120 0.14600
Gd	Gd	0.21310 0.52330 0.75090 -1.24500
C 	C 	0.03700 0.62600 0.77300 1.97700
C 	C 	0.07560 0.59050 0.72830 -0.16500
O 	O 	0.10120 0.54470 0.75500 -0.25400
O 	O 	0.03290 0.58120 0.68780 -0.09300
C 	C 	0.05140 0.35960 0.80690 -1.57300
C 	C 	0.09010 0.36780 0.76400 0.10900
O 	O 	0.13660 0.40700 0.78930 -0.34000
O 	O 	0.09350 0.36090 0.70470 -0.26600
C 	C 	0.97680 0.25210 0.77880 0.09700
Gd	Gd	0.21310 0.47670 0.24910 4.05400
C 	C 	0.03700 0.37400 0.22700 2.29300
C 	C 	0.07560 0.40950 0.27170 -0.68800
O 	O 	0.10120 0.45530 0.24500 0.41700
O 	O 	0.03290 0.41880 0.31220 -0.06500
C 	C 	0.94860 0.35960 0.19310 2.08600
C 	C 	0.90990 0.36780 0.23600 0.17500
O 	O 	0.86340 0.40700 0.21070 -0.53500
O 	O 	0.90650 0.36090 0.29530 -0.52600
C 	C 	0.02320 0.25210 0.22120 -0.05400
Gd	Gd	0.78690 0.47670 0.75090 -5.91000
C 	C 	0.96300 0.37400 0.77300 -2.96300
C 	C 	0.92440 0.40950 0.72830 2.18700
O 	O 	0.89880 0.45530 0.75500 -1.38600
O 	O 	0.96710 0.41880 0.68780 -0.48200
C 	C 	0.94860 0.64040 0.80690 2.01000
C 	C 	0.90990 0.63220 0.76400 0.52800
O 	O 	0.86340 0.59300 0.78930 -1.54300
O 	O 	0.90650 0.63910 0.70470 -0.64000
C 	C 	0.02320 0.74790 0.77880 -0.07200
Gd	Gd	0.78690 0.52330 0.24910 -0.61500
C 	C 	0.96300 0.62600 0.22700 -2.62600
C 	C 	0.92440 0.59050 0.27170 1.62800
O 	O 	0.89880 0.54470 0.24500 -0.69400
O 	O 	0.96710 0.58120 0.31220 -0.41800
C 	C 	0.19310 0.05140 0.64040 -1.50200
C 	C 	0.23600 0.09010 0.63220 -0.27600
O 	O 	0.21070 0.13660 0.59300 0.68200
O 	O 	0.29530 0.09350 0.63910 -0.03500
C 	C 	0.22120 0.97680 0.74790 0.14600
Gd	Gd	0.75090 0.21310 0.52330 -1.24500
C 	C 	0.77300 0.03700 0.62600 1.97700
C 	C 	0.72830 0.07560 0.59050 -0.16500
O 	O 	0.75500 0.10120 0.54470 -0.25400
O 	O 	0.68780 0.03290 0.58120 -0.09300
C 	C 	0.80690 0.05140 0.35960 -1.57300
C 	C 	0.76400 0.09010 0.36780 0.10900
O 	O 	0.78930 0.13660 0.40700 -0.34000
O 	O 	0.70470 0.09350 0.36090 -0.26600
C 	C 	0.77880 0.97680 0.25210 0.09700
Gd	Gd	0.24910 0.21310 0.47670 4.05400
C 	C 	0.22700 0.03700 0.37400 2.29300
C 	C 	0.27170 0.07560 0.40950 -0.68800
O 	O 	0.24500 0.10120 0.45530 0.41700
O 	O 	0.31220 0.03290 0.41880 -0.06500
C 	C 	0.19310 0.94860 0.35960 2.08600
C 	C 	0.23600 0.90990 0.36780 0.17500
O 	O 	0.21070 0.86340 0.40700 -0.53500
O 	O 	0.29530 0.90650 0.36090 -0.52600
C 	C 	0.22120 0.02320 0.25210 -0.05400
Gd	Gd	0.75090 0.78690 0.47670 -5.91000
C 	C 	0.77300 0.96300 0.37400 -2.96300
C 	C 	0.72830 0.92440 0.40950 2.18700
O 	O 	0.75500 0.89880 0.45530 -1.38600
O 	O 	0.68780 0.96710 0.41880 -0.48200
C 	C 	0.80690 0.94860 0.64040 2.01000
C 	C 	0.76400 0.90990 0.63220 0.52800
O 	O 	0.78930 0.86340 0.59300 -1.54300
O 	O 	0.70470 0.90650 0.63910 -0.64000
C 	C 	0.77880 0.02320 0.74790 -0.07200
Gd	Gd	0.24910 0.78690 0.52330 -0.61500
C 	C 	0.22700 0.96300 0.62600 -2.62600
C 	C 	0.27170 0.92440 0.59050 1.62800
O 	O 	0.24500 0.89880 0.54470 -0.69400
O 	O 	0.31220 0.96710 0.58120 -0.41800
C 	C 	0.19310 0.64040 0.94860 2.08100
C 	C 	0.23600 0.63220 0.90990 0.15900
O 	O 	0.21070 0.59300 0.86340 -0.52800
O 	O 	0.29530 0.63910 0.90650 -0.46800
C 	C 	0.22120 0.74790 0.02320 -0.03800
Gd	Gd	0.75090 0.52330 0.78690 -5.91300
C 	C 	0.77300 0.62600 0.96300 -2.94900
C 	C 	0.72830 0.59050 0.92440 2.16800
O 	O 	0.75500 0.54470 0.89880 -1.37500
O 	O 	0.68780 0.58120 0.96710 -0.46300
C 	C 	0.80690 0.35960 0.94860 2.01500
C 	C 	0.76400 0.36780 0.90990 0.54500
O 	O 	0.78930 0.40700 0.86340 -1.55000
O 	O 	0.70470 0.36090 0.90650 -0.69900
C 	C 	0.77880 0.25210 0.02320 -0.08800
Gd	Gd	0.24910 0.47670 0.78690 -0.61200
C 	C 	0.22700 0.37400 0.96300 -2.64000
C 	C 	0.27170 0.40950 0.92440 1.64700
O 	O 	0.24500 0.45530 0.89880 -0.70500
O 	O 	0.31220 0.41880 0.96710 -0.43700
C 	C 	0.19310 0.35960 0.05140 -1.50200
C 	C 	0.23600 0.36780 0.09010 -0.26000
O 	O 	0.21070 0.40700 0.13660 0.67400
O 	O 	0.29530 0.36090 0.09350 -0.09300
C 	C 	0.22120 0.25210 0.97680 0.13000
Gd	Gd	0.75090 0.47670 0.21310 -1.24100
C 	C 	0.77300 0.37400 0.03700 1.97000
C 	C 	0.72830 0.40950 0.07560 -0.14900
O 	O 	0.75500 0.45530 0.10120 -0.26400
O 	O 	0.68780 0.41880 0.03290 -0.11100
C 	C 	0.80690 0.64040 0.05140 -1.57200
C 	C 	0.76400 0.63220 0.09010 0.09300
O 	O 	0.78930 0.59300 0.13660 -0.33300
O 	O 	0.70470 0.63910 0.09350 -0.20800
C 	C 	0.77880 0.74790 0.97680 0.11300
Gd	Gd	0.24910 0.52330 0.21310 4.05000
C 	C 	0.22700 0.62600 0.03700 2.30000
C 	C 	0.27170 0.59050 0.07560 -0.70500
O 	O 	0.24500 0.54470 0.10120 0.42700
O 	O 	0.31220 0.58120 0.03290 -0.04700
C 	C 	0.64040 0.05140 0.80690 -1.57200
C 	C 	0.63220 0.09010 0.76400 0.09300
O 	O 	0.59300 0.13660 0.78930 -0.33300
O 	O 	0.63910 0.09350 0.70470 -0.20800
C 	C 	0.74790 0.97680 0.77880 0.11300
Gd	Gd	0.52330 0.21310 0.24910 4.05000
C 	C 	0.62600 0.03700 0.22700 2.30000
C 	C 	0.59050 0.07560 0.27170 -0.70500
O 	O 	0.54470 0.10120 0.24500 0.42700
O 	O 	0.58120 0.03290 0.31220 -0.04700
C 	C 	0.35960 0.05140 0.19310 -1.50200
C 	C 	0.36780 0.09010 0.23600 -0.26000
O 	O 	0.40700 0.13660 0.21070 0.67400
O 	O 	0.36090 0.09350 0.29530 -0.09300
C 	C 	0.25210 0.97680 0.22120 0.13000
Gd	Gd	0.47670 0.21310 0.75090 -1.24100
C 	C 	0.37400 0.03700 0.77300 1.97000
C 	C 	0.40950 0.07560 0.72830 -0.14900
O 	O 	0.45530 0.10120 0.75500 -0.26400
O 	O 	0.41880 0.03290 0.68780 -0.11100
C 	C 	0.35960 0.94860 0.80690 2.01500
C 	C 	0.36780 0.90990 0.76400 0.54500
O 	O 	0.40700 0.86340 0.78930 -1.55000
O 	O 	0.36090 0.90650 0.70470 -0.69900
C 	C 	0.25210 0.02320 0.77880 -0.08800
Gd	Gd	0.47670 0.78690 0.24910 -0.61200
C 	C 	0.37400 0.96300 0.22700 -2.64000
C 	C 	0.40950 0.92440 0.27170 1.64700
O 	O 	0.45530 0.89880 0.24500 -0.70500
O 	O 	0.41880 0.96710 0.31220 -0.43700
C 	C 	0.64040 0.94860 0.19310 2.08100
C 	C 	0.63220 0.90990 0.23600 0.15900
O 	O 	0.59300 0.86340 0.21070 -0.52800
O 	O 	0.63910 0.90650 0.29530 -0.46800
C 	C 	0.74790 0.02320 0.22120 -0.03800
Gd	Gd	0.52330 0.78690 0.75090 -5.91300
C 	C 	0.62600 0.96300 0.77300 -2.94900
C 	C 	0.59050 0.92440 0.72830 2.16800
O 	O 	0.54470 0.89880 0.75500 -1.37500
O 	O 	0.58120 0.96710 0.68780 -0.46300
C 	C 	0.05140 0.19310 0.35960 -1.50200
C 	C 	0.09010 0.23600 0.36780 -0.26000
O 	O 	0.13660 0.21070 0.40700 0.67400
O 	O 	0.09350 0.29530 0.36090 -0.09300
C 	C 	0.97680 0.22120 0.25210 0.13000
Gd	Gd	0.21310 0.75090 0.47670 -1.24100
C 	C 	0.03700 0.77300 0.37400 1.97000
C 	C 	0.07560 0.72830 0.40950 -0.14900
O 	O 	0.10120 0.75500 0.45530 -0.26400
O 	O 	0.03290 0.68780 0.41880 -0.11100
C 	C 	0.05140 0.80690 0.64040 -1.57200
C 	C 	0.09010 0.76400 0.63220 0.09300
O 	O 	0.13660 0.78930 0.59300 -0.33300
O 	O 	0.09350 0.70470 0.63910 -0.20800
C 	C 	0.97680 0.77880 0.74790 0.11300
Gd	Gd	0.21310 0.24910 0.52330 4.05000
C 	C 	0.03700 0.22700 0.62600 2.30000
C 	C 	0.07560 0.27170 0.59050 -0.70500
O 	O 	0.10120 0.24500 0.54470 0.42700
O 	O 	0.03290 0.31220 0.58120 -0.04700
C 	C 	0.94860 0.19310 0.64040 2.08100
C 	C 	0.90990 0.23600 0.63220 0.15900
O 	O 	0.86340 0.21070 0.59300 -0.52800
O 	O 	0.90650 0.29530 0.63910 -0.46800
C 	C 	0.02320 0.22120 0.74790 -0.03800
Gd	Gd	0.78690 0.75090 0.52330 -5.91300
C 	C 	0.96300 0.77300 0.62600 -2.94900
C 	C 	0.92440 0.72830 0.59050 2.16800
O 	O 	0.89880 0.75500 0.54470 -1.37500
O 	O 	0.96710 0.68780 0.58120 -0.46300
C 	C 	0.94860 0.80690 0.35960 2.01500
C 	C 	0.90990 0.76400 0.36780 0.54500
O 	O 	0.86340 0.78930 0.40700 -1.55000
O 	O 	0.90650 0.70470 0.36090 -0.69900
C 	C 	0.02320 0.77880 0.25210 -0.08800
Gd	Gd	0.78690 0.24910 0.47670 -0.61200
C 	C 	0.96300 0.22700 0.37400 -2.64000
C 	C 	0.92440 0.27170 0.40950 1.64700
O 	O 	0.89880 0.24500 0.45530 -0.70500
O 	O 	0.96710 0.31220 0.41880 -0.43700
Gd	Gd	0.50000 0.80275 0.80275 25.49500
Gd	Gd	0.50000 0.19725 0.80275 5.46900
Gd	Gd	0.50000 0.80275 0.19725 5.46900
Gd	Gd	0.50000 0.19725 0.19725 -14.54500
Gd	Gd	0.80275 0.50000 0.80275 25.49500
Gd	Gd	0.80275 0.50000 0.19725 5.46900
Gd	Gd	0.19725 0.50000 0.80275 5.46900
Gd	Gd	0.19725 0.50000 0.19725 -14.54500
Gd	Gd	0.80275 0.80275 0.50000 25.49500
Gd	Gd	0.19725 0.80275 0.50000 5.46900
Gd	Gd	0.80275 0.19725 0.50000 5.46900
Gd	Gd	0.19725 0.19725 0.50000 -14.54500
Ni	Ni	0.32794 0.67206 -0.00000 1.13300
Ni	Ni	0.67206 0.32794 -0.00000 1.13300
Ni	Ni	0.67206 0.67206 -0.00000 1.14600
Ni	Ni	0.32794 0.32794 -0.00000 1.12000
Ni	Ni	0.00000 0.32794 0.67206 1.13300
Ni	Ni	0.00000 0.67206 0.32794 1.13300
Ni	Ni	0.00000 0.67206 0.67206 1.14600
Ni	Ni	0.00000 0.32794 0.32794 1.12000
Ni	Ni	0.67206 0.00000 0.32794 1.13300
Ni	Ni	0.32794 0.00000 0.67206 1.13300
Ni	Ni	0.67206 0.00000 0.67206 1.14600
Ni	Ni	0.32794 0.00000 0.32794 1.12000
N 	N 	0.32710 0.77150 -0.00000 -0.10300
C 	C 	0.24700 0.85100 -0.00000 -0.10900
N 	N 	0.67290 0.22850 -0.00000 -0.24400
C 	C 	0.75300 0.14900 -0.00000 -0.08800
N 	N 	0.67290 0.77150 -0.00000 -0.11200
C 	C 	0.75300 0.85100 -0.00000 -0.10900
N 	N 	0.32710 0.22850 -0.00000 -0.23400
C 	C 	0.24700 0.14900 -0.00000 -0.08800
N 	N 	0.00000 0.32710 0.77150 -0.10300
C 	C 	0.00000 0.24700 0.85100 -0.10900
N 	N 	0.00000 0.67290 0.22850 -0.24400
C 	C 	0.00000 0.75300 0.14900 -0.08800
N 	N 	-0.00000 0.67290 0.77150 -0.11200
C 	C 	0.00000 0.75300 0.85100 -0.10900
N 	N 	0.00000 0.32710 0.22850 -0.23400
C 	C 	0.00000 0.24700 0.14900 -0.08800
N 	N 	0.77150 0.00000 0.32710 -0.10300
C 	C 	0.85100 0.00000 0.24700 -0.10900
N 	N 	0.22850 0.00000 0.67290 -0.24400
C 	C 	0.14900 0.00000 0.75300 -0.08800
N 	N 	0.77150 0.00000 0.67290 -0.11200
C 	C 	0.85100 0.00000 0.75300 -0.10900
N 	N 	0.22850 0.00000 0.32710 -0.23400
C 	C 	0.14900 0.00000 0.24700 -0.08800
N 	N 	0.77150 0.32710 -0.00000 -0.10300
C 	C 	0.85100 0.24700 -0.00000 -0.10900
N 	N 	0.22850 0.67290 -0.00000 -0.24400
C 	C 	0.14900 0.75300 -0.00000 -0.08800
N 	N 	0.77150 0.67290 -0.00000 -0.11200
C 	C 	0.85100 0.75300 -0.00000 -0.10900
N 	N 	0.22850 0.32710 -0.00000 -0.23400
C 	C 	0.14900 0.24700 -0.00000 -0.08800
N 	N 	0.32710 0.00000 0.22850 -0.23400
C 	C 	0.24700 -0.00000 0.14900 -0.08800
N 	N 	0.67290 0.00000 0.77150 -0.11200
C 	C 	0.75300 0.00000 0.85100 -0.10900
N 	N 	0.67290 0.00000 0.22850 -0.24400
C 	C 	0.75300 -0.00000 0.14900 -0.08800
N 	N 	0.32710 0.00000 0.77150 -0.10300
C 	C 	0.24700 0.00000 0.85100 -0.10900
N 	N 	0.00000 0.77150 0.67290 -0.11200
C 	C 	0.00000 0.85100 0.75300 -0.10900
N 	N 	0.00000 0.22850 0.32710 -0.23400
C 	C 	0.00000 0.14900 0.24700 -0.08800
N 	N 	0.00000 0.77150 0.32710 -0.10300
C 	C 	0.00000 0.85100 0.24700 -0.10900
N 	N 	0.00000 0.22850 0.67290 -0.24400
C 	C 	0.00000 0.14900 0.75300 -0.08800
O 	O 	0.58930 0.74340 0.74340 2.50500
O 	O 	0.41070 0.25660 0.74340 0.22600
O 	O 	0.41070 0.74340 0.25660 0.22600
O 	O 	0.58930 0.25660 0.25660 -1.92600
O 	O 	0.74340 0.58930 0.74340 2.50500
O 	O 	0.74340 0.41070 0.25660 0.22600
O 	O 	0.25660 0.41070 0.74340 0.22600
O 	O 	0.25660 0.58930 0.25660 -1.92600
O 	O 	0.74340 0.74340 0.58930 2.50500
O 	O 	0.25660 0.74340 0.41070 0.22600
O 	O 	0.74340 0.25660 0.41070 0.22600
O 	O 	0.25660 0.25660 0.58930 -1.92600
O 	O 	0.74340 0.58930 0.25660 0.28900
O 	O 	0.25660 0.41070 0.25660 -1.98900
O 	O 	0.74340 0.41070 0.74340 2.44200
O 	O 	0.25660 0.58930 0.74340 0.28900
O 	O 	0.58930 0.74340 0.25660 0.28900
O 	O 	0.41070 0.74340 0.74340 2.44200
O 	O 	0.41070 0.25660 0.25660 -1.98900
O 	O 	0.58930 0.25660 0.74340 0.28900
O 	O 	0.74340 0.74340 0.41070 2.44200
O 	O 	0.74340 0.25660 0.58930 0.28900
O 	O 	0.25660 0.74340 0.58930 0.28900
O 	O 	0.25660 0.25660 0.41070 -1.98900
