data_crystal

_cell_length_a 18.68800
_cell_length_b 15.05200
_cell_length_c 16.25900
_cell_angle_alpha 90.00000
_cell_angle_beta  113.10400
_cell_angle_gamma 90.00000

_symmetry_space_group_name_	'P 1'
_symmetry_space_group_name_H-M	'P 1'

loop_
_symmetry_equiv_pos_as_xyz
  x,y,z

loop_
_atom_site_label
_atom_site_type_symbol
_atom_site_fract_x
_atom_site_fract_y
_atom_site_fract_z
_atom_site_charge
Mn	Mn	0.22045 0.60925 0.95114 1.27100
O 	O 	0.24410 0.63370 0.08680 -0.47000
O 	O 	0.21100 0.47480 0.33450 -0.41000
O 	O 	0.23270 0.54370 0.46120 -0.38400
O 	O 	0.30230 0.76580 0.11160 -0.49200
C 	C 	0.24760 0.62740 0.25860 0.02300
H 	H 	0.22980 0.57810 0.22180 0.04000
C 	C 	0.29910 0.77410 0.28150 -0.04800
H 	H 	0.31730 0.82270 0.26020 0.05300
C 	C 	0.24930 0.62710 0.34550 -0.08900
C 	C 	0.22900 0.54430 0.38190 0.29300
C 	C 	0.27210 0.70070 0.13480 0.38100
C 	C 	0.27260 0.70130 0.22860 -0.10000
C 	C 	0.27490 0.70170 0.39890 0.00600
C 	C 	0.43780 0.91810 0.40740 0.21100
N 	N 	0.59350 0.90210 0.43030 -0.26600
N 	N 	0.32480 0.84940 0.42440 -0.16600
H 	H 	0.32320 0.84800 0.47650 0.13100
C 	C 	0.35490 0.92880 0.39600 -0.19400
H 	H 	0.35070 0.97940 0.43080 0.09200
H 	H 	0.32310 0.94080 0.33360 0.10400
C 	C 	0.29910 0.77690 0.36790 0.06400
C 	C 	0.54620 0.95820 0.37440 0.15500
H 	H 	0.56580 0.99430 0.34160 -0.03300
C 	C 	0.48930 0.86200 0.46980 -0.25000
H 	H 	0.47230 0.82730 0.50590 0.12100
C 	C 	0.46860 0.96780 0.36060 -0.25800
H 	H 	0.43770 0.00860 0.31880 0.12500
C 	C 	0.56440 0.85700 0.47910 0.15400
H 	H 	0.59750 0.81930 0.52280 -0.04200
Mn	Mn	0.72045 0.10925 0.95114 1.27100
O 	O 	0.74410 0.13370 0.08680 -0.47200
O 	O 	0.71100 0.97480 0.33450 -0.41200
O 	O 	0.73270 0.04370 0.46120 -0.38600
O 	O 	0.80230 0.26580 0.11160 -0.49300
C 	C 	0.74760 0.12740 0.25860 0.02200
H 	H 	0.72980 0.07810 0.22180 0.03900
C 	C 	0.79910 0.27410 0.28150 -0.04900
H 	H 	0.81730 0.32270 0.26020 0.05200
C 	C 	0.74930 0.12710 0.34550 -0.09000
C 	C 	0.72900 0.04430 0.38190 0.29300
C 	C 	0.77210 0.20070 0.13480 0.38000
C 	C 	0.77260 0.20130 0.22860 -0.10100
C 	C 	0.77490 0.20170 0.39890 0.00500
C 	C 	0.93780 0.41810 0.40740 0.21000
N 	N 	0.09350 0.40210 0.43030 -0.26700
N 	N 	0.82480 0.34940 0.42440 -0.16700
H 	H 	0.82320 0.34800 0.47650 0.13000
C 	C 	0.85490 0.42880 0.39600 -0.19500
H 	H 	0.85070 0.47940 0.43080 0.09100
H 	H 	0.82310 0.44080 0.33360 0.10300
C 	C 	0.79910 0.27690 0.36790 0.06300
C 	C 	0.04620 0.45820 0.37440 0.15400
H 	H 	0.06580 0.49430 0.34160 -0.03400
C 	C 	0.98930 0.36200 0.46980 -0.25100
H 	H 	0.97230 0.32730 0.50590 0.12100
C 	C 	0.96860 0.46780 0.36060 -0.25900
H 	H 	0.93770 0.50860 0.31880 0.12400
C 	C 	0.06440 0.35700 0.47910 0.15500
H 	H 	0.09750 0.31930 0.52280 -0.04300
Mn	Mn	0.77955 0.60925 0.54886 1.27100
O 	O 	0.75590 0.63370 0.41320 -0.47200
O 	O 	0.78900 0.47480 0.16550 -0.41100
O 	O 	0.76730 0.54370 0.03880 -0.38600
O 	O 	0.69770 0.76580 0.38840 -0.49300
C 	C 	0.75240 0.62740 0.24140 0.02200
H 	H 	0.77020 0.57810 0.27820 0.03900
C 	C 	0.70090 0.77410 0.21850 -0.04900
H 	H 	0.68270 0.82270 0.23980 0.05200
C 	C 	0.75070 0.62710 0.15450 -0.09000
C 	C 	0.77100 0.54430 0.11810 0.29200
C 	C 	0.72790 0.70070 0.36520 0.38000
C 	C 	0.72740 0.70130 0.27140 -0.10100
C 	C 	0.72510 0.70170 0.10110 0.00500
C 	C 	0.56220 0.91810 0.09260 0.21200
N 	N 	0.40650 0.90210 0.06970 -0.26700
N 	N 	0.67520 0.84940 0.07560 -0.16700
H 	H 	0.67680 0.84800 0.02350 0.13000
C 	C 	0.64510 0.92880 0.10400 -0.19600
H 	H 	0.64930 0.97940 0.06920 0.09100
H 	H 	0.67690 0.94080 0.16640 0.10300
C 	C 	0.70090 0.77690 0.13210 0.06300
C 	C 	0.45380 0.95820 0.12560 0.15400
H 	H 	0.43420 0.99430 0.15840 -0.03400
C 	C 	0.51070 0.86200 0.03020 -0.25300
H 	H 	0.52770 0.82730 0.99410 0.12300
C 	C 	0.53140 0.96780 0.13940 -0.26000
H 	H 	0.56230 0.00860 0.18120 0.12600
C 	C 	0.43560 0.85700 0.02090 0.15500
H 	H 	0.40250 0.81930 0.97720 -0.04200
Mn	Mn	0.27955 0.10925 0.54886 1.27000
O 	O 	0.25590 0.13370 0.41320 -0.47200
O 	O 	0.28900 0.97480 0.16550 -0.41200
O 	O 	0.26730 0.04370 0.03880 -0.38500
O 	O 	0.19770 0.26580 0.38840 -0.49300
C 	C 	0.25240 0.12740 0.24140 0.02300
H 	H 	0.27020 0.07810 0.27820 0.03900
C 	C 	0.20090 0.27410 0.21850 -0.04900
H 	H 	0.18270 0.32270 0.23980 0.05200
C 	C 	0.25070 0.12710 0.15450 -0.09000
C 	C 	0.27100 0.04430 0.11810 0.29300
C 	C 	0.22790 0.20070 0.36520 0.38000
C 	C 	0.22740 0.20130 0.27140 -0.10100
C 	C 	0.22510 0.20170 0.10110 0.00500
C 	C 	0.06220 0.41810 0.09260 0.20100
N 	N 	0.90650 0.40210 0.06970 -0.26400
N 	N 	0.17520 0.34940 0.07560 -0.16700
H 	H 	0.17680 0.34800 0.02350 0.13100
C 	C 	0.14510 0.42880 0.10400 -0.18900
H 	H 	0.14930 0.47940 0.06920 0.09000
H 	H 	0.17690 0.44080 0.16640 0.10200
C 	C 	0.20090 0.27690 0.13210 0.06300
C 	C 	0.95380 0.45820 0.12560 0.14700
H 	H 	0.93420 0.49430 0.15840 -0.03200
C 	C 	0.01070 0.36200 0.03020 -0.23500
H 	H 	0.02770 0.32730 0.99410 0.11400
C 	C 	0.03140 0.46780 0.13940 -0.24900
H 	H 	0.06230 0.50860 0.18120 0.12100
C 	C 	0.93560 0.35700 0.02090 0.14300
H 	H 	0.90250 0.31930 0.97720 -0.03700
Mn	Mn	0.77955 0.39075 0.04886 1.27000
O 	O 	0.75590 0.36630 0.91320 -0.47100
O 	O 	0.78900 0.52520 0.66550 -0.41100
O 	O 	0.76730 0.45630 0.53880 -0.38500
O 	O 	0.69770 0.23420 0.88840 -0.49300
C 	C 	0.75240 0.37260 0.74140 0.02200
H 	H 	0.77020 0.42190 0.77820 0.03900
C 	C 	0.70090 0.22590 0.71850 -0.04900
H 	H 	0.68270 0.17730 0.73980 0.05200
C 	C 	0.75070 0.37290 0.65450 -0.09000
C 	C 	0.77100 0.45570 0.61810 0.29200
C 	C 	0.72790 0.29930 0.86520 0.38000
C 	C 	0.72740 0.29870 0.77140 -0.10100
C 	C 	0.72510 0.29830 0.60110 0.00500
C 	C 	0.56220 0.08190 0.59260 0.21000
N 	N 	0.40650 0.09790 0.56970 -0.26700
N 	N 	0.67520 0.15060 0.57560 -0.16700
H 	H 	0.67680 0.15200 0.52350 0.13000
C 	C 	0.64510 0.07120 0.60400 -0.19500
H 	H 	0.64930 0.02060 0.56920 0.09100
H 	H 	0.67690 0.05920 0.66640 0.10300
C 	C 	0.70090 0.22310 0.63210 0.06300
C 	C 	0.45380 0.04180 0.62560 0.15400
H 	H 	0.43420 0.00570 0.65840 -0.03400
C 	C 	0.51070 0.13800 0.53020 -0.25000
H 	H 	0.52770 0.17270 0.49410 0.12100
C 	C 	0.53140 0.03220 0.63940 -0.25800
H 	H 	0.56230 0.99140 0.68120 0.12500
C 	C 	0.43560 0.14300 0.52090 0.15400
H 	H 	0.40250 0.18070 0.47720 -0.04200
Mn	Mn	0.27955 0.89075 0.04886 1.27100
O 	O 	0.25590 0.86630 0.91320 -0.47200
O 	O 	0.28900 0.02520 0.66550 -0.41200
O 	O 	0.26730 0.95630 0.53880 -0.38600
O 	O 	0.19770 0.73420 0.88840 -0.49300
C 	C 	0.25240 0.87260 0.74140 0.02200
H 	H 	0.27020 0.92190 0.77820 0.03900
C 	C 	0.20090 0.72590 0.71850 -0.04900
H 	H 	0.18270 0.67730 0.73980 0.05200
C 	C 	0.25070 0.87290 0.65450 -0.09000
C 	C 	0.27100 0.95570 0.61810 0.29300
C 	C 	0.22790 0.79930 0.86520 0.38000
C 	C 	0.22740 0.79870 0.77140 -0.10100
C 	C 	0.22510 0.79830 0.60110 0.00500
C 	C 	0.06220 0.58190 0.59260 0.21000
N 	N 	0.90650 0.59790 0.56970 -0.26700
N 	N 	0.17520 0.65060 0.57560 -0.16700
H 	H 	0.17680 0.65200 0.52350 0.13000
C 	C 	0.14510 0.57120 0.60400 -0.19500
H 	H 	0.14930 0.52060 0.56920 0.09100
H 	H 	0.17690 0.55920 0.66640 0.10300
C 	C 	0.20090 0.72310 0.63210 0.06300
C 	C 	0.95380 0.54180 0.62560 0.15400
H 	H 	0.93420 0.50570 0.65840 -0.03400
C 	C 	0.01070 0.63800 0.53020 -0.25100
H 	H 	0.02770 0.67270 0.49410 0.12100
C 	C 	0.03140 0.53220 0.63940 -0.25900
H 	H 	0.06230 0.49140 0.68120 0.12400
C 	C 	0.93560 0.64300 0.52090 0.15500
H 	H 	0.90250 0.68070 0.47720 -0.04300
Mn	Mn	0.22045 0.39075 0.45114 1.27100
O 	O 	0.24410 0.36630 0.58680 -0.47200
O 	O 	0.21100 0.52520 0.83450 -0.41100
O 	O 	0.23270 0.45630 0.96120 -0.38600
O 	O 	0.30230 0.23420 0.61160 -0.49300
C 	C 	0.24760 0.37260 0.75860 0.02200
H 	H 	0.22980 0.42190 0.72180 0.03900
C 	C 	0.29910 0.22590 0.78150 -0.04900
H 	H 	0.31730 0.17730 0.76020 0.05200
C 	C 	0.24930 0.37290 0.84550 -0.09000
C 	C 	0.22900 0.45570 0.88190 0.29200
C 	C 	0.27210 0.29930 0.63480 0.38000
C 	C 	0.27260 0.29870 0.72860 -0.10100
C 	C 	0.27490 0.29830 0.89890 0.00500
C 	C 	0.43780 0.08190 0.90740 0.21200
N 	N 	0.59350 0.09790 0.93030 -0.26700
N 	N 	0.32480 0.15060 0.92440 -0.16700
H 	H 	0.32320 0.15200 0.97650 0.13000
C 	C 	0.35490 0.07120 0.89600 -0.19600
H 	H 	0.35070 0.02060 0.93080 0.09100
H 	H 	0.32310 0.05920 0.83360 0.10300
C 	C 	0.29910 0.22310 0.86790 0.06300
C 	C 	0.54620 0.04180 0.87440 0.15400
H 	H 	0.56580 0.00570 0.84160 -0.03400
C 	C 	0.48930 0.13800 0.96980 -0.25300
H 	H 	0.47230 0.17270 0.00590 0.12300
C 	C 	0.46860 0.03220 0.86060 -0.26000
H 	H 	0.43770 0.99140 0.81880 0.12600
C 	C 	0.56440 0.14300 0.97910 0.15500
H 	H 	0.59750 0.18070 0.02280 -0.04200
Mn	Mn	0.72045 0.89075 0.45114 1.27000
O 	O 	0.74410 0.86630 0.58680 -0.47200
O 	O 	0.71100 0.02520 0.83450 -0.41200
O 	O 	0.73270 0.95630 0.96120 -0.38500
O 	O 	0.80230 0.73420 0.61160 -0.49300
C 	C 	0.74760 0.87260 0.75860 0.02300
H 	H 	0.72980 0.92190 0.72180 0.03900
C 	C 	0.79910 0.72590 0.78150 -0.04900
H 	H 	0.81730 0.67730 0.76020 0.05200
C 	C 	0.74930 0.87290 0.84550 -0.09000
C 	C 	0.72900 0.95570 0.88190 0.29300
C 	C 	0.77210 0.79930 0.63480 0.38000
C 	C 	0.77260 0.79870 0.72860 -0.10100
C 	C 	0.77490 0.79830 0.89890 0.00500
C 	C 	0.93780 0.58190 0.90740 0.20100
N 	N 	0.09350 0.59790 0.93030 -0.26400
N 	N 	0.82480 0.65060 0.92440 -0.16700
H 	H 	0.82320 0.65200 0.97650 0.13100
C 	C 	0.85490 0.57120 0.89600 -0.18900
H 	H 	0.85070 0.52060 0.93080 0.09000
H 	H 	0.82310 0.55920 0.83360 0.10200
C 	C 	0.79910 0.72310 0.86790 0.06300
C 	C 	0.04620 0.54180 0.87440 0.14700
H 	H 	0.06580 0.50570 0.84160 -0.03200
C 	C 	0.98930 0.63800 0.96980 -0.23500
H 	H 	0.97230 0.67270 0.00590 0.11400
C 	C 	0.96860 0.53220 0.86060 -0.24900
H 	H 	0.93770 0.49140 0.81880 0.12100
C 	C 	0.06440 0.64300 0.97910 0.14300
H 	H 	0.09750 0.68070 0.02280 -0.03700
