data_crystal

_cell_length_a 15.22900
_cell_length_b 15.22900
_cell_length_c 15.85200
_cell_angle_alpha 90.00000
_cell_angle_beta  90.00000
_cell_angle_gamma 120.00000

_symmetry_space_group_name_	'P 1'
_symmetry_space_group_name_H-M	'P 1'

loop_
_symmetry_equiv_pos_as_xyz
  x,y,z

loop_
_atom_site_label
_atom_site_type_symbol
_atom_site_fract_x
_atom_site_fract_y
_atom_site_fract_z
_atom_site_charge
Er	Er	0.33333 0.66666 0.75000 1.70500
Er	Er	0.66667 0.33334 0.75000 1.70500
Er	Er	0.66667 0.33334 0.25000 1.69000
Er	Er	0.33333 0.66666 0.25000 1.69000
Mn	Mn	0.50000 0.00000 -0.00000 1.18700
Mn	Mn	0.50000 0.50000 -0.00000 1.22200
Mn	Mn	-0.00000 0.50000 -0.00000 1.18700
Mn	Mn	0.50000 0.00000 0.50000 1.25100
Mn	Mn	-0.00000 0.50000 0.50000 1.25100
Mn	Mn	0.50000 0.50000 0.50000 1.28800
H 	H 	0.70860 0.94170 0.84330 0.09700
H 	H 	0.23310 0.29140 0.84330 0.06200
H 	H 	0.05830 0.76690 0.84330 0.05500
H 	H 	0.29140 0.05830 0.84330 0.04600
H 	H 	0.76690 0.70860 0.84330 0.08100
H 	H 	0.94170 0.23310 0.84330 0.08800
H 	H 	0.76690 0.05830 0.65670 0.03200
H 	H 	0.94170 0.70860 0.65670 0.07600
H 	H 	0.29140 0.23310 0.65670 0.03900
H 	H 	0.23310 0.94170 0.65670 0.06600
H 	H 	0.05830 0.29140 0.65670 0.02300
H 	H 	0.70860 0.76690 0.65670 0.05900
H 	H 	0.29140 0.05830 0.15670 -0.00200
H 	H 	0.76690 0.70860 0.15670 0.03500
H 	H 	0.94170 0.23310 0.15670 0.04200
H 	H 	0.70860 0.94170 0.15670 0.05200
H 	H 	0.23310 0.29140 0.15670 0.01400
H 	H 	0.05830 0.76690 0.15670 0.00800
H 	H 	0.23310 0.94170 0.34330 0.06200
H 	H 	0.05830 0.29140 0.34330 0.01800
H 	H 	0.70860 0.76690 0.34330 0.05500
H 	H 	0.76690 0.05830 0.34330 0.02800
H 	H 	0.94170 0.70860 0.34330 0.07200
H 	H 	0.29140 0.23310 0.34330 0.03400
H 	H 	0.79780 0.89890 0.75000 0.07100
H 	H 	0.10110 0.20220 0.75000 0.01500
H 	H 	0.10110 0.89890 0.75000 0.04200
H 	H 	0.20220 0.10110 0.75000 0.01500
H 	H 	0.89890 0.79780 0.75000 0.07100
H 	H 	0.89890 0.10110 0.75000 0.04200
H 	H 	0.20220 0.10110 0.25000 0.00900
H 	H 	0.89890 0.79780 0.25000 0.06600
H 	H 	0.89890 0.10110 0.25000 0.03700
H 	H 	0.79780 0.89890 0.25000 0.06600
H 	H 	0.10110 0.20220 0.25000 0.00900
H 	H 	0.10110 0.89890 0.25000 0.03700
C 	C 	0.50490 0.85810 0.85910 0.35000
C 	C 	0.57120 0.83750 0.80290 0.00100
C 	C 	0.67430 0.88920 0.80490 -0.02700
C 	C 	0.35320 0.49510 0.85910 0.35300
C 	C 	0.26630 0.42880 0.80290 -0.02000
C 	C 	0.21490 0.32570 0.80490 -0.03700
C 	C 	0.14190 0.64680 0.85910 0.35500
C 	C 	0.16250 0.73370 0.80290 -0.02200
C 	C 	0.11080 0.78510 0.80490 -0.03200
C 	C 	0.49510 0.14190 0.85910 0.35400
C 	C 	0.42880 0.16250 0.80290 -0.02800
C 	C 	0.32570 0.11080 0.80490 -0.03700
C 	C 	0.64680 0.50490 0.85910 0.35400
C 	C 	0.73370 0.57120 0.80290 -0.00800
C 	C 	0.78510 0.67430 0.80490 -0.02700
C 	C 	0.85810 0.35320 0.85910 0.34900
C 	C 	0.83750 0.26630 0.80290 -0.00500
C 	C 	0.88920 0.21490 0.80490 -0.03300
C 	C 	0.64680 0.14190 0.64090 0.36200
C 	C 	0.73370 0.16250 0.69710 -0.03700
C 	C 	0.78510 0.11080 0.69510 -0.02900
C 	C 	0.85810 0.50490 0.64090 0.35600
C 	C 	0.83750 0.57120 0.69710 -0.01400
C 	C 	0.88920 0.67430 0.69510 -0.02500
C 	C 	0.49510 0.35320 0.64090 0.35900
C 	C 	0.42880 0.26630 0.69710 -0.03600
C 	C 	0.32570 0.21490 0.69510 -0.03400
C 	C 	0.35320 0.85810 0.64090 0.35500
C 	C 	0.26630 0.83750 0.69710 -0.02000
C 	C 	0.21490 0.88920 0.69510 -0.03100
C 	C 	0.14190 0.49510 0.64090 0.36100
C 	C 	0.16250 0.42880 0.69710 -0.04400
C 	C 	0.11080 0.32570 0.69510 -0.03400
C 	C 	0.50490 0.64680 0.64090 0.36100
C 	C 	0.57120 0.73370 0.69710 -0.02300
C 	C 	0.67430 0.78510 0.69510 -0.02400
C 	C 	0.49510 0.14190 0.14090 0.36300
C 	C 	0.42880 0.16250 0.19710 -0.06600
C 	C 	0.32570 0.11080 0.19510 -0.02100
C 	C 	0.64680 0.50490 0.14090 0.36400
C 	C 	0.73370 0.57120 0.19710 -0.04400
C 	C 	0.78510 0.67430 0.19510 -0.01100
C 	C 	0.85810 0.35320 0.14090 0.35800
C 	C 	0.83750 0.26630 0.19710 -0.04100
C 	C 	0.88920 0.21490 0.19510 -0.01800
C 	C 	0.50490 0.85810 0.14090 0.35900
C 	C 	0.57120 0.83750 0.19710 -0.03500
C 	C 	0.67430 0.88920 0.19510 -0.01300
C 	C 	0.35320 0.49510 0.14090 0.36200
C 	C 	0.26630 0.42880 0.19710 -0.05800
C 	C 	0.21490 0.32570 0.19510 -0.02100
C 	C 	0.14190 0.64680 0.14090 0.36400
C 	C 	0.16250 0.73370 0.19710 -0.05800
C 	C 	0.11080 0.78510 0.19510 -0.01700
C 	C 	0.35320 0.85810 0.35910 0.35700
C 	C 	0.26630 0.83750 0.30290 -0.02900
C 	C 	0.21490 0.88920 0.30490 -0.01900
C 	C 	0.14190 0.49510 0.35910 0.36200
C 	C 	0.16250 0.42880 0.30290 -0.05300
C 	C 	0.11080 0.32570 0.30490 -0.02300
C 	C 	0.50490 0.64680 0.35910 0.36300
C 	C 	0.57120 0.73370 0.30290 -0.03200
C 	C 	0.67430 0.78510 0.30490 -0.01300
C 	C 	0.64680 0.14190 0.35910 0.36400
C 	C 	0.73370 0.16250 0.30290 -0.04600
C 	C 	0.78510 0.11080 0.30490 -0.01800
C 	C 	0.85810 0.50490 0.35910 0.35800
C 	C 	0.83750 0.57120 0.30290 -0.02300
C 	C 	0.88920 0.67430 0.30490 -0.01400
C 	C 	0.49510 0.35320 0.35910 0.36100
C 	C 	0.42880 0.26630 0.30290 -0.04500
C 	C 	0.32570 0.21490 0.30490 -0.02300
C 	C 	0.72730 0.86365 0.75000 -0.02000
C 	C 	0.13635 0.27270 0.75000 -0.04500
C 	C 	0.13635 0.86365 0.75000 -0.03200
C 	C 	0.27270 0.13635 0.75000 -0.04500
C 	C 	0.86365 0.72730 0.75000 -0.02000
C 	C 	0.86365 0.13635 0.75000 -0.03200
C 	C 	0.27270 0.13635 0.25000 -0.07200
C 	C 	0.86365 0.72730 0.25000 -0.04700
C 	C 	0.86365 0.13635 0.25000 -0.05800
C 	C 	0.72730 0.86365 0.25000 -0.04600
C 	C 	0.13635 0.27270 0.25000 -0.07200
C 	C 	0.13635 0.86365 0.25000 -0.05800
N 	N 	0.51900 0.75950 0.75000 -0.17800
N 	N 	0.24050 0.48100 0.75000 -0.17800
N 	N 	0.24050 0.75950 0.75000 -0.17800
N 	N 	0.48100 0.24050 0.75000 -0.17800
N 	N 	0.75950 0.51900 0.75000 -0.17800
N 	N 	0.75950 0.24050 0.75000 -0.17800
N 	N 	0.48100 0.24050 0.25000 -0.17300
N 	N 	0.75950 0.51900 0.25000 -0.17300
N 	N 	0.75950 0.24050 0.25000 -0.17300
N 	N 	0.51900 0.75950 0.25000 -0.17300
N 	N 	0.24050 0.48100 0.25000 -0.17300
N 	N 	0.24050 0.75950 0.25000 -0.17300
O 	O 	0.54930 0.93410 0.90680 -0.32800
O 	O 	0.41080 0.79870 0.85467 -0.37900
O 	O 	0.38480 0.45070 0.90680 -0.37300
O 	O 	0.38790 0.58920 0.85467 -0.39300
O 	O 	0.06590 0.61520 0.90680 -0.39700
O 	O 	0.20130 0.61210 0.85467 -0.40200
O 	O 	0.45070 0.06590 0.90680 -0.40000
O 	O 	0.58920 0.20130 0.85467 -0.40300
O 	O 	0.61520 0.54930 0.90680 -0.36600
O 	O 	0.61210 0.41080 0.85467 -0.39200
O 	O 	0.93410 0.38480 0.90680 -0.33200
O 	O 	0.79870 0.38790 0.85467 -0.38000
O 	O 	0.61520 0.06590 0.59320 -0.46600
O 	O 	0.61210 0.20130 0.64533 -0.43400
O 	O 	0.93410 0.54930 0.59320 -0.39500
O 	O 	0.79870 0.41080 0.64533 -0.41100
O 	O 	0.45070 0.38480 0.59320 -0.44300
O 	O 	0.58920 0.38790 0.64533 -0.42600
O 	O 	0.38480 0.93410 0.59320 -0.39900
O 	O 	0.38790 0.79870 0.64533 -0.41200
O 	O 	0.06590 0.45070 0.59320 -0.46900
O 	O 	0.20130 0.58920 0.64533 -0.43500
O 	O 	0.54930 0.61520 0.59320 -0.43500
O 	O 	0.41080 0.61210 0.64533 -0.42400
O 	O 	0.45070 0.06590 0.09320 -0.51300
O 	O 	0.58920 0.20130 0.14533 -0.45900
O 	O 	0.61520 0.54930 0.09320 -0.47800
O 	O 	0.61210 0.41080 0.14533 -0.44800
O 	O 	0.93410 0.38480 0.09320 -0.44000
O 	O 	0.79870 0.38790 0.14533 -0.43500
O 	O 	0.54930 0.93410 0.09320 -0.43700
O 	O 	0.41080 0.79870 0.14533 -0.43400
O 	O 	0.38480 0.45070 0.09320 -0.48600
O 	O 	0.38790 0.58920 0.14533 -0.44900
O 	O 	0.06590 0.61520 0.09320 -0.50900
O 	O 	0.20130 0.61210 0.14533 -0.45800
O 	O 	0.38480 0.93410 0.40680 -0.39900
O 	O 	0.38790 0.79870 0.35467 -0.41000
O 	O 	0.06590 0.45070 0.40680 -0.47000
O 	O 	0.20130 0.58920 0.35467 -0.43400
O 	O 	0.54930 0.61520 0.40680 -0.43500
O 	O 	0.41080 0.61210 0.35467 -0.42300
O 	O 	0.61520 0.06590 0.40680 -0.46600
O 	O 	0.61210 0.20130 0.35467 -0.43300
O 	O 	0.93410 0.54930 0.40680 -0.39500
O 	O 	0.79870 0.41080 0.35467 -0.41000
O 	O 	0.45070 0.38480 0.40680 -0.44300
O 	O 	0.58920 0.38790 0.35467 -0.42400
