data_crystal

_cell_length_a 19.99980
_cell_length_b 19.99980
_cell_length_c 19.99980
_cell_angle_alpha 90.00000
_cell_angle_beta  90.00000
_cell_angle_gamma 90.00000

_symmetry_space_group_name_	'P 1'
_symmetry_space_group_name_H-M	'P 1'

loop_
_symmetry_equiv_pos_as_xyz
  x,y,z

loop_
_atom_site_label
_atom_site_type_symbol
_atom_site_fract_x
_atom_site_fract_y
_atom_site_fract_z
_atom_site_charge
N 	N 	0.06000 0.53473 0.23990 -0.18000
H 	H 	0.10510 0.51090 0.24100 0.04200
C 	C 	0.08997 0.60300 0.22711 -0.20800
H 	H 	0.12190 0.59970 0.18950 0.06000
H 	H 	0.05380 0.63390 0.21330 0.04300
C 	C 	0.12513 0.63200 0.28611 0.17100
C 	C 	0.10070 0.68854 0.31799 -0.23800
H 	H 	0.06210 0.71020 0.30080 0.08300
C 	C 	0.02367 0.52829 0.30073 -0.59000
H 	H 	0.99870 0.57010 0.30900 0.25400
H 	H 	0.05570 0.52220 0.33790 0.17800
O 	O 	0.97942 0.57936 0.11005 -0.51300
N 	N 	0.06000 0.03473 0.73990 -0.17300
H 	H 	0.10510 0.01090 0.74100 0.02000
C 	C 	0.08997 0.10300 0.72711 -0.21000
H 	H 	0.12190 0.09970 0.68950 0.05700
H 	H 	0.05380 0.13390 0.71330 0.04300
C 	C 	0.12513 0.13200 0.78611 0.17200
C 	C 	0.10070 0.18854 0.81799 -0.23500
H 	H 	0.06210 0.21020 0.80080 0.08100
C 	C 	0.02367 0.02829 0.80073 -0.71000
H 	H 	0.99870 0.07010 0.80900 0.27700
H 	H 	0.05570 0.02220 0.83790 0.19600
O 	O 	0.97942 0.07936 0.61005 -0.52200
N 	N 	0.56000 0.53473 0.73990 -0.23400
H 	H 	0.60510 0.51090 0.74100 0.06000
C 	C 	0.58997 0.60300 0.72711 -0.18800
H 	H 	0.62190 0.59970 0.68950 0.06000
H 	H 	0.55380 0.63390 0.71330 0.06200
C 	C 	0.62513 0.63200 0.78611 0.17400
C 	C 	0.60070 0.68854 0.81799 -0.22800
H 	H 	0.56210 0.71020 0.80080 0.09500
C 	C 	0.52367 0.52829 0.80073 -0.09100
H 	H 	0.49870 0.57010 0.80900 0.04700
H 	H 	0.55570 0.52220 0.83790 0.06000
O 	O 	0.47942 0.57936 0.61005 -0.56700
N 	N 	0.56000 0.03473 0.23990 -0.22600
H 	H 	0.60510 0.01090 0.24100 0.03000
C 	C 	0.58997 0.10300 0.22711 -0.19100
H 	H 	0.62190 0.09970 0.18950 0.05300
H 	H 	0.55380 0.13390 0.21330 0.05700
C 	C 	0.62513 0.13200 0.28611 0.17300
C 	C 	0.60070 0.18854 0.31799 -0.23300
H 	H 	0.56210 0.21020 0.30080 0.09300
C 	C 	0.52367 0.02829 0.30073 -0.23600
H 	H 	0.49870 0.07010 0.30900 0.06300
H 	H 	0.55570 0.02220 0.33790 0.06400
O 	O 	0.47942 0.07936 0.11005 -0.60100
N 	N 	0.94000 0.46527 0.23990 -0.28500
H 	H 	0.89490 0.48910 0.24100 0.07100
C 	C 	0.91003 0.39700 0.22711 -0.16700
H 	H 	0.87810 0.40030 0.18950 0.05700
H 	H 	0.94620 0.36610 0.21330 0.07700
C 	C 	0.87487 0.36800 0.28611 0.17200
C 	C 	0.89930 0.31146 0.31799 -0.22300
H 	H 	0.93790 0.28980 0.30080 0.10600
C 	C 	0.97633 0.47171 0.30073 0.41700
H 	H 	0.00130 0.42990 0.30900 -0.17500
H 	H 	0.94430 0.47780 0.33790 -0.08000
O 	O 	0.02058 0.42064 0.11005 -0.62800
N 	N 	0.94000 0.96527 0.73990 -0.28300
H 	H 	0.89490 0.98910 0.74100 0.10000
C 	C 	0.91003 0.89700 0.72711 -0.16500
H 	H 	0.87810 0.90030 0.68950 0.06500
H 	H 	0.94620 0.86610 0.71330 0.08200
C 	C 	0.87487 0.86800 0.78611 0.17300
C 	C 	0.89930 0.81146 0.81799 -0.21900
H 	H 	0.93790 0.78980 0.80080 0.10700
C 	C 	0.97633 0.97171 0.80073 0.52600
H 	H 	0.00130 0.92990 0.80900 -0.17500
H 	H 	0.94430 0.97780 0.83790 -0.07700
O 	O 	0.02058 0.92064 0.61005 -0.58000
N 	N 	0.44000 0.46527 0.73990 -0.23500
H 	H 	0.39490 0.48910 0.74100 0.05900
C 	C 	0.41003 0.39700 0.72711 -0.18700
H 	H 	0.37810 0.40030 0.68950 0.06000
H 	H 	0.44620 0.36610 0.71330 0.06100
C 	C 	0.37487 0.36800 0.78611 0.17200
C 	C 	0.39930 0.31146 0.81799 -0.22500
H 	H 	0.43790 0.28980 0.80080 0.09300
C 	C 	0.47633 0.47171 0.80073 -0.09000
H 	H 	0.50130 0.42990 0.80900 0.04600
H 	H 	0.44430 0.47780 0.83790 0.06000
O 	O 	0.52058 0.42064 0.61005 -0.56700
N 	N 	0.44000 0.96527 0.23990 -0.23800
H 	H 	0.39490 0.98910 0.24100 0.08500
C 	C 	0.41003 0.89700 0.22711 -0.18300
H 	H 	0.37810 0.90030 0.18950 0.06500
H 	H 	0.44620 0.86610 0.21330 0.06300
C 	C 	0.37487 0.86800 0.28611 0.17100
C 	C 	0.39930 0.81146 0.31799 -0.22700
H 	H 	0.43790 0.78980 0.30080 0.09500
C 	C 	0.47633 0.97171 0.30073 0.06200
H 	H 	0.50130 0.92990 0.30900 0.01500
H 	H 	0.44430 0.97780 0.33790 0.03500
O 	O 	0.52058 0.92064 0.11005 -0.54500
N 	N 	0.94000 0.53473 0.76010 -0.28200
H 	H 	0.89490 0.51090 0.75900 0.07200
C 	C 	0.91003 0.60300 0.77289 -0.17100
H 	H 	0.87810 0.59970 0.81050 0.06200
H 	H 	0.94620 0.63390 0.78670 0.08100
C 	C 	0.87487 0.63200 0.71389 0.17500
C 	C 	0.89930 0.68854 0.68201 -0.22700
H 	H 	0.93790 0.71020 0.69920 0.10800
C 	C 	0.97633 0.52829 0.69927 0.40100
H 	H 	0.00130 0.57010 0.69100 -0.16600
H 	H 	0.94430 0.52220 0.66210 -0.07600
O 	O 	0.02058 0.57936 0.88995 -0.59600
N 	N 	0.94000 0.03473 0.26010 -0.27500
H 	H 	0.89490 0.01090 0.25900 0.04300
C 	C 	0.91003 0.10300 0.27289 -0.17300
H 	H 	0.87810 0.09970 0.31050 0.05500
H 	H 	0.94620 0.13390 0.28670 0.07700
C 	C 	0.87487 0.13200 0.21389 0.17400
C 	C 	0.89930 0.18854 0.18201 -0.23100
H 	H 	0.93790 0.21020 0.19920 0.10700
C 	C 	0.97633 0.02829 0.19927 0.27100
H 	H 	0.00130 0.07010 0.19100 -0.15700
H 	H 	0.94430 0.02220 0.16210 -0.07400
O 	O 	0.02058 0.07936 0.38995 -0.63700
N 	N 	0.44000 0.53473 0.26010 -0.23500
H 	H 	0.39490 0.51090 0.25900 0.05500
C 	C 	0.41003 0.60300 0.27289 -0.18900
H 	H 	0.37810 0.59970 0.31050 0.06100
H 	H 	0.44620 0.63390 0.28670 0.06100
C 	C 	0.37487 0.63200 0.21389 0.17300
C 	C 	0.39930 0.68854 0.18201 -0.23600
H 	H 	0.43790 0.71020 0.19920 0.09700
C 	C 	0.47633 0.52829 0.19927 -0.08700
H 	H 	0.50130 0.57010 0.19100 0.03400
H 	H 	0.44430 0.52220 0.16210 0.04000
O 	O 	0.52058 0.57936 0.38995 -0.56700
N 	N 	0.44000 0.03473 0.76010 -0.22500
H 	H 	0.39490 0.01090 0.75900 0.03200
C 	C 	0.41003 0.10300 0.77289 -0.19400
H 	H 	0.37810 0.09970 0.81050 0.05800
H 	H 	0.44620 0.13390 0.78670 0.06100
C 	C 	0.37487 0.13200 0.71389 0.17400
C 	C 	0.39930 0.18854 0.68201 -0.23400
H 	H 	0.43790 0.21020 0.69920 0.09500
C 	C 	0.47633 0.02829 0.69927 -0.23200
H 	H 	0.50130 0.07010 0.69100 0.06500
H 	H 	0.44430 0.02220 0.66210 0.06300
O 	O 	0.52058 0.07936 0.88995 -0.57000
N 	N 	0.06000 0.46527 0.76010 -0.18000
H 	H 	0.10510 0.48910 0.75900 0.04700
C 	C 	0.08997 0.39700 0.77289 -0.20800
H 	H 	0.12190 0.40030 0.81050 0.06500
H 	H 	0.05380 0.36610 0.78670 0.04700
C 	C 	0.12513 0.36800 0.71389 0.17300
C 	C 	0.10070 0.31146 0.68201 -0.23700
H 	H 	0.06210 0.28980 0.69920 0.08300
C 	C 	0.02367 0.47171 0.69927 -0.57600
H 	H 	0.99870 0.42990 0.69100 0.24900
H 	H 	0.05570 0.47780 0.66210 0.17500
O 	O 	0.97942 0.42064 0.88995 -0.48800
N 	N 	0.06000 0.96527 0.26010 -0.18200
H 	H 	0.10510 0.98910 0.25900 0.07300
C 	C 	0.08997 0.89700 0.27289 -0.20400
H 	H 	0.12190 0.90030 0.31050 0.06900
H 	H 	0.05380 0.86610 0.28670 0.04900
C 	C 	0.12513 0.86800 0.21389 0.17200
C 	C 	0.10070 0.81146 0.18201 -0.23800
H 	H 	0.06210 0.78980 0.19920 0.08500
C 	C 	0.02367 0.97171 0.19927 -0.43000
H 	H 	0.99870 0.92990 0.19100 0.21800
H 	H 	0.05570 0.97780 0.16210 0.15300
O 	O 	0.97942 0.92064 0.38995 -0.47200
N 	N 	0.56000 0.46527 0.26010 -0.23600
H 	H 	0.60510 0.48910 0.25900 0.05700
C 	C 	0.58997 0.39700 0.27289 -0.18800
H 	H 	0.62190 0.40030 0.31050 0.06100
H 	H 	0.55380 0.36610 0.28670 0.06000
C 	C 	0.62513 0.36800 0.21389 0.17300
C 	C 	0.60070 0.31146 0.18201 -0.23400
H 	H 	0.56210 0.28980 0.19920 0.09400
C 	C 	0.52367 0.47171 0.19927 -0.08500
H 	H 	0.49870 0.42990 0.19100 0.03200
H 	H 	0.55570 0.47780 0.16210 0.04000
O 	O 	0.47942 0.42064 0.38995 -0.56900
N 	N 	0.56000 0.96527 0.76010 -0.23700
H 	H 	0.60510 0.98910 0.75900 0.08700
C 	C 	0.58997 0.89700 0.77289 -0.18600
H 	H 	0.62190 0.90030 0.81050 0.06900
H 	H 	0.55380 0.86610 0.78670 0.06600
C 	C 	0.62513 0.86800 0.71389 0.17400
C 	C 	0.60070 0.81146 0.68201 -0.23000
H 	H 	0.56210 0.78980 0.69920 0.09600
C 	C 	0.52367 0.97171 0.69927 0.05800
H 	H 	0.49870 0.92990 0.69100 0.01600
H 	H 	0.55570 0.97780 0.66210 0.03600
O 	O 	0.47942 0.92064 0.88995 -0.51900
N 	N 	0.23990 0.06000 0.53473 -0.17900
H 	H 	0.24100 0.10510 0.51090 0.04300
C 	C 	0.22711 0.08997 0.60300 -0.20700
H 	H 	0.18950 0.12190 0.59970 0.06100
H 	H 	0.21330 0.05380 0.63390 0.04400
C 	C 	0.28611 0.12513 0.63200 0.17200
C 	C 	0.31799 0.10070 0.68854 -0.23700
H 	H 	0.30080 0.06210 0.71020 0.08300
C 	C 	0.30073 0.02367 0.52829 -0.59000
H 	H 	0.30900 0.99870 0.57010 0.25400
H 	H 	0.33790 0.05570 0.52220 0.17800
O 	O 	0.11005 0.97942 0.57936 -0.51300
N 	N 	0.23990 0.56000 0.03473 -0.22600
H 	H 	0.24100 0.60510 0.01090 0.03000
C 	C 	0.22711 0.58997 0.10300 -0.19100
H 	H 	0.18950 0.62190 0.09970 0.05300
H 	H 	0.21330 0.55380 0.13390 0.05700
C 	C 	0.28611 0.62513 0.13200 0.17300
C 	C 	0.31799 0.60070 0.18854 -0.23300
H 	H 	0.30080 0.56210 0.21020 0.09300
C 	C 	0.30073 0.52367 0.02829 -0.23600
H 	H 	0.30900 0.49870 0.07010 0.06300
H 	H 	0.33790 0.55570 0.02220 0.06400
O 	O 	0.11005 0.47942 0.07936 -0.60100
N 	N 	0.73990 0.06000 0.03473 -0.17300
H 	H 	0.74100 0.10510 0.01090 0.02000
C 	C 	0.72711 0.08997 0.10300 -0.21000
H 	H 	0.68950 0.12190 0.09970 0.05700
H 	H 	0.71330 0.05380 0.13390 0.04300
C 	C 	0.78611 0.12513 0.13200 0.17200
C 	C 	0.81799 0.10070 0.18854 -0.23500
H 	H 	0.80080 0.06210 0.21020 0.08100
C 	C 	0.80073 0.02367 0.02829 -0.71000
H 	H 	0.80900 0.99870 0.07010 0.27700
H 	H 	0.83790 0.05570 0.02220 0.19600
O 	O 	0.61005 0.97942 0.07936 -0.52200
N 	N 	0.73990 0.56000 0.53473 -0.23400
H 	H 	0.74100 0.60510 0.51090 0.06000
C 	C 	0.72711 0.58997 0.60300 -0.18800
H 	H 	0.68950 0.62190 0.59970 0.06000
H 	H 	0.71330 0.55380 0.63390 0.06200
C 	C 	0.78611 0.62513 0.63200 0.17400
C 	C 	0.81799 0.60070 0.68854 -0.22800
H 	H 	0.80080 0.56210 0.71020 0.09500
C 	C 	0.80073 0.52367 0.52829 -0.09100
H 	H 	0.80900 0.49870 0.57010 0.04700
H 	H 	0.83790 0.55570 0.52220 0.06000
O 	O 	0.61005 0.47942 0.57936 -0.56700
N 	N 	0.23990 0.94000 0.46527 -0.28500
H 	H 	0.24100 0.89490 0.48910 0.07100
C 	C 	0.22711 0.91003 0.39700 -0.16700
H 	H 	0.18950 0.87810 0.40030 0.05700
H 	H 	0.21330 0.94620 0.36610 0.07700
C 	C 	0.28611 0.87487 0.36800 0.17200
C 	C 	0.31799 0.89930 0.31146 -0.22300
H 	H 	0.30080 0.93790 0.28980 0.10600
C 	C 	0.30073 0.97633 0.47171 0.41700
H 	H 	0.30900 0.00130 0.42990 -0.17500
H 	H 	0.33790 0.94430 0.47780 -0.08000
O 	O 	0.11005 0.02058 0.42064 -0.62800
N 	N 	0.23990 0.44000 0.96527 -0.23800
H 	H 	0.24100 0.39490 0.98910 0.08500
C 	C 	0.22711 0.41003 0.89700 -0.18300
H 	H 	0.18950 0.37810 0.90030 0.06500
H 	H 	0.21330 0.44620 0.86610 0.06300
C 	C 	0.28611 0.37487 0.86800 0.17100
C 	C 	0.31799 0.39930 0.81146 -0.22700
H 	H 	0.30080 0.43790 0.78980 0.09500
C 	C 	0.30073 0.47633 0.97171 0.06200
H 	H 	0.30900 0.50130 0.92990 0.01500
H 	H 	0.33790 0.44430 0.97780 0.03500
O 	O 	0.11005 0.52058 0.92064 -0.54500
N 	N 	0.73990 0.94000 0.96527 -0.28300
H 	H 	0.74100 0.89490 0.98910 0.10000
C 	C 	0.72711 0.91003 0.89700 -0.16500
H 	H 	0.68950 0.87810 0.90030 0.06500
H 	H 	0.71330 0.94620 0.86610 0.08200
C 	C 	0.78611 0.87487 0.86800 0.17300
C 	C 	0.81799 0.89930 0.81146 -0.21900
H 	H 	0.80080 0.93790 0.78980 0.10700
C 	C 	0.80073 0.97633 0.97171 0.52600
H 	H 	0.80900 0.00130 0.92990 -0.17500
H 	H 	0.83790 0.94430 0.97780 -0.07700
O 	O 	0.61005 0.02058 0.92064 -0.58000
N 	N 	0.73990 0.44000 0.46527 -0.23500
H 	H 	0.74100 0.39490 0.48910 0.05900
C 	C 	0.72711 0.41003 0.39700 -0.18700
H 	H 	0.68950 0.37810 0.40030 0.06000
H 	H 	0.71330 0.44620 0.36610 0.06100
C 	C 	0.78611 0.37487 0.36800 0.17200
C 	C 	0.81799 0.39930 0.31146 -0.22500
H 	H 	0.80080 0.43790 0.28980 0.09300
C 	C 	0.80073 0.47633 0.47171 -0.09000
H 	H 	0.80900 0.50130 0.42990 0.04600
H 	H 	0.83790 0.44430 0.47780 0.06000
O 	O 	0.61005 0.52058 0.42064 -0.56700
N 	N 	0.76010 0.94000 0.53473 -0.28200
H 	H 	0.75900 0.89490 0.51090 0.07200
C 	C 	0.77289 0.91003 0.60300 -0.17100
H 	H 	0.81050 0.87810 0.59970 0.06200
H 	H 	0.78670 0.94620 0.63390 0.08100
C 	C 	0.71389 0.87487 0.63200 0.17500
C 	C 	0.68201 0.89930 0.68854 -0.22700
H 	H 	0.69920 0.93790 0.71020 0.10800
C 	C 	0.69927 0.97633 0.52829 0.40100
H 	H 	0.69100 0.00130 0.57010 -0.16600
H 	H 	0.66210 0.94430 0.52220 -0.07600
O 	O 	0.88995 0.02058 0.57936 -0.59600
N 	N 	0.76010 0.44000 0.03473 -0.22500
H 	H 	0.75900 0.39490 0.01090 0.03200
C 	C 	0.77289 0.41003 0.10300 -0.19400
H 	H 	0.81050 0.37810 0.09970 0.05800
H 	H 	0.78670 0.44620 0.13390 0.06100
C 	C 	0.71389 0.37487 0.13200 0.17400
C 	C 	0.68201 0.39930 0.18854 -0.23400
H 	H 	0.69920 0.43790 0.21020 0.09500
C 	C 	0.69927 0.47633 0.02829 -0.23200
H 	H 	0.69100 0.50130 0.07010 0.06500
H 	H 	0.66210 0.44430 0.02220 0.06300
O 	O 	0.88995 0.52058 0.07936 -0.57000
N 	N 	0.26010 0.94000 0.03473 -0.27500
H 	H 	0.25900 0.89490 0.01090 0.04300
C 	C 	0.27289 0.91003 0.10300 -0.17300
H 	H 	0.31050 0.87810 0.09970 0.05500
H 	H 	0.28670 0.94620 0.13390 0.07700
C 	C 	0.21389 0.87487 0.13200 0.17400
C 	C 	0.18201 0.89930 0.18854 -0.23100
H 	H 	0.19920 0.93790 0.21020 0.10700
C 	C 	0.19927 0.97633 0.02829 0.27100
H 	H 	0.19100 0.00130 0.07010 -0.15700
H 	H 	0.16210 0.94430 0.02220 -0.07400
O 	O 	0.38995 0.02058 0.07936 -0.63700
N 	N 	0.26010 0.44000 0.53473 -0.23500
H 	H 	0.25900 0.39490 0.51090 0.05500
C 	C 	0.27289 0.41003 0.60300 -0.18900
H 	H 	0.31050 0.37810 0.59970 0.06100
H 	H 	0.28670 0.44620 0.63390 0.06100
C 	C 	0.21389 0.37487 0.63200 0.17300
C 	C 	0.18201 0.39930 0.68854 -0.23600
H 	H 	0.19920 0.43790 0.71020 0.09700
C 	C 	0.19927 0.47633 0.52829 -0.08700
H 	H 	0.19100 0.50130 0.57010 0.03400
H 	H 	0.16210 0.44430 0.52220 0.04000
O 	O 	0.38995 0.52058 0.57936 -0.56700
N 	N 	0.76010 0.06000 0.46527 -0.18000
H 	H 	0.75900 0.10510 0.48910 0.04700
C 	C 	0.77289 0.08997 0.39700 -0.20800
H 	H 	0.81050 0.12190 0.40030 0.06500
H 	H 	0.78670 0.05380 0.36610 0.04700
C 	C 	0.71389 0.12513 0.36800 0.17300
C 	C 	0.68201 0.10070 0.31146 -0.23700
H 	H 	0.69920 0.06210 0.28980 0.08300
C 	C 	0.69927 0.02367 0.47171 -0.57600
H 	H 	0.69100 0.99870 0.42990 0.24900
H 	H 	0.66210 0.05570 0.47780 0.17500
O 	O 	0.88995 0.97942 0.42064 -0.48800
N 	N 	0.76010 0.56000 0.96527 -0.23700
H 	H 	0.75900 0.60510 0.98910 0.08700
C 	C 	0.77289 0.58997 0.89700 -0.18600
H 	H 	0.81050 0.62190 0.90030 0.06900
H 	H 	0.78670 0.55380 0.86610 0.06600
C 	C 	0.71389 0.62513 0.86800 0.17400
C 	C 	0.68201 0.60070 0.81146 -0.23000
H 	H 	0.69920 0.56210 0.78980 0.09600
C 	C 	0.69927 0.52367 0.97171 0.05800
H 	H 	0.69100 0.49870 0.92990 0.01600
H 	H 	0.66210 0.55570 0.97780 0.03600
O 	O 	0.88995 0.47942 0.92064 -0.51900
N 	N 	0.26010 0.06000 0.96527 -0.18200
H 	H 	0.25900 0.10510 0.98910 0.07300
C 	C 	0.27289 0.08997 0.89700 -0.20400
H 	H 	0.31050 0.12190 0.90030 0.06900
H 	H 	0.28670 0.05380 0.86610 0.04900
C 	C 	0.21389 0.12513 0.86800 0.17200
C 	C 	0.18201 0.10070 0.81146 -0.23800
H 	H 	0.19920 0.06210 0.78980 0.08500
C 	C 	0.19927 0.02367 0.97171 -0.43000
H 	H 	0.19100 0.99870 0.92990 0.21800
H 	H 	0.16210 0.05570 0.97780 0.15300
O 	O 	0.38995 0.97942 0.92064 -0.47200
N 	N 	0.26010 0.56000 0.46527 -0.23600
H 	H 	0.25900 0.60510 0.48910 0.05700
C 	C 	0.27289 0.58997 0.39700 -0.18800
H 	H 	0.31050 0.62190 0.40030 0.06100
H 	H 	0.28670 0.55380 0.36610 0.06000
C 	C 	0.21389 0.62513 0.36800 0.17300
C 	C 	0.18201 0.60070 0.31146 -0.23400
H 	H 	0.19920 0.56210 0.28980 0.09400
C 	C 	0.19927 0.52367 0.47171 -0.08500
H 	H 	0.19100 0.49870 0.42990 0.03200
H 	H 	0.16210 0.55570 0.47780 0.04000
O 	O 	0.38995 0.47942 0.42064 -0.56900
N 	N 	0.53473 0.23990 0.06000 -0.17900
H 	H 	0.51090 0.24100 0.10510 0.04300
C 	C 	0.60300 0.22711 0.08997 -0.20700
H 	H 	0.59970 0.18950 0.12190 0.06100
H 	H 	0.63390 0.21330 0.05380 0.04400
C 	C 	0.63200 0.28611 0.12513 0.17200
C 	C 	0.68854 0.31799 0.10070 -0.23700
H 	H 	0.71020 0.30080 0.06210 0.08300
C 	C 	0.52829 0.30073 0.02367 -0.59000
H 	H 	0.57010 0.30900 0.99870 0.25400
H 	H 	0.52220 0.33790 0.05570 0.17800
O 	O 	0.57936 0.11005 0.97942 -0.51300
N 	N 	0.53473 0.73990 0.56000 -0.23400
H 	H 	0.51090 0.74100 0.60510 0.06000
C 	C 	0.60300 0.72711 0.58997 -0.18800
H 	H 	0.59970 0.68950 0.62190 0.06000
H 	H 	0.63390 0.71330 0.55380 0.06200
C 	C 	0.63200 0.78611 0.62513 0.17400
C 	C 	0.68854 0.81799 0.60070 -0.22800
H 	H 	0.71020 0.80080 0.56210 0.09500
C 	C 	0.52829 0.80073 0.52367 -0.09100
H 	H 	0.57010 0.80900 0.49870 0.04700
H 	H 	0.52220 0.83790 0.55570 0.06000
O 	O 	0.57936 0.61005 0.47942 -0.56700
N 	N 	0.03473 0.23990 0.56000 -0.22600
H 	H 	0.01090 0.24100 0.60510 0.03000
C 	C 	0.10300 0.22711 0.58997 -0.19100
H 	H 	0.09970 0.18950 0.62190 0.05300
H 	H 	0.13390 0.21330 0.55380 0.05700
C 	C 	0.13200 0.28611 0.62513 0.17300
C 	C 	0.18854 0.31799 0.60070 -0.23300
H 	H 	0.21020 0.30080 0.56210 0.09300
C 	C 	0.02829 0.30073 0.52367 -0.23600
H 	H 	0.07010 0.30900 0.49870 0.06300
H 	H 	0.02220 0.33790 0.55570 0.06400
O 	O 	0.07936 0.11005 0.47942 -0.60100
N 	N 	0.03473 0.73990 0.06000 -0.17300
H 	H 	0.01090 0.74100 0.10510 0.02000
C 	C 	0.10300 0.72711 0.08997 -0.21000
H 	H 	0.09970 0.68950 0.12190 0.05700
H 	H 	0.13390 0.71330 0.05380 0.04300
C 	C 	0.13200 0.78611 0.12513 0.17200
C 	C 	0.18854 0.81799 0.10070 -0.23500
H 	H 	0.21020 0.80080 0.06210 0.08100
C 	C 	0.02829 0.80073 0.02367 -0.71000
H 	H 	0.07010 0.80900 0.99870 0.27700
H 	H 	0.02220 0.83790 0.05570 0.19600
O 	O 	0.07936 0.61005 0.97942 -0.52200
N 	N 	0.46527 0.23990 0.94000 -0.28500
H 	H 	0.48910 0.24100 0.89490 0.07100
C 	C 	0.39700 0.22711 0.91003 -0.16700
H 	H 	0.40030 0.18950 0.87810 0.05700
H 	H 	0.36610 0.21330 0.94620 0.07700
C 	C 	0.36800 0.28611 0.87487 0.17200
C 	C 	0.31146 0.31799 0.89930 -0.22300
H 	H 	0.28980 0.30080 0.93790 0.10600
C 	C 	0.47171 0.30073 0.97633 0.41700
H 	H 	0.42990 0.30900 0.00130 -0.17500
H 	H 	0.47780 0.33790 0.94430 -0.08000
O 	O 	0.42064 0.11005 0.02058 -0.62800
N 	N 	0.46527 0.73990 0.44000 -0.23500
H 	H 	0.48910 0.74100 0.39490 0.05900
C 	C 	0.39700 0.72711 0.41003 -0.18700
H 	H 	0.40030 0.68950 0.37810 0.06000
H 	H 	0.36610 0.71330 0.44620 0.06100
C 	C 	0.36800 0.78611 0.37487 0.17200
C 	C 	0.31146 0.81799 0.39930 -0.22500
H 	H 	0.28980 0.80080 0.43790 0.09300
C 	C 	0.47171 0.80073 0.47633 -0.09000
H 	H 	0.42990 0.80900 0.50130 0.04600
H 	H 	0.47780 0.83790 0.44430 0.06000
O 	O 	0.42064 0.61005 0.52058 -0.56700
N 	N 	0.96527 0.23990 0.44000 -0.23800
H 	H 	0.98910 0.24100 0.39490 0.08500
C 	C 	0.89700 0.22711 0.41003 -0.18300
H 	H 	0.90030 0.18950 0.37810 0.06500
H 	H 	0.86610 0.21330 0.44620 0.06300
C 	C 	0.86800 0.28611 0.37487 0.17100
C 	C 	0.81146 0.31799 0.39930 -0.22700
H 	H 	0.78980 0.30080 0.43790 0.09500
C 	C 	0.97171 0.30073 0.47633 0.06200
H 	H 	0.92990 0.30900 0.50130 0.01500
H 	H 	0.97780 0.33790 0.44430 0.03500
O 	O 	0.92064 0.11005 0.52058 -0.54500
N 	N 	0.96527 0.73990 0.94000 -0.28300
H 	H 	0.98910 0.74100 0.89490 0.10000
C 	C 	0.89700 0.72711 0.91003 -0.16500
H 	H 	0.90030 0.68950 0.87810 0.06500
H 	H 	0.86610 0.71330 0.94620 0.08200
C 	C 	0.86800 0.78611 0.87487 0.17300
C 	C 	0.81146 0.81799 0.89930 -0.21900
H 	H 	0.78980 0.80080 0.93790 0.10700
C 	C 	0.97171 0.80073 0.97633 0.52600
H 	H 	0.92990 0.80900 0.00130 -0.17500
H 	H 	0.97780 0.83790 0.94430 -0.07700
O 	O 	0.92064 0.61005 0.02058 -0.58000
N 	N 	0.53473 0.76010 0.94000 -0.28200
H 	H 	0.51090 0.75900 0.89490 0.07200
C 	C 	0.60300 0.77289 0.91003 -0.17100
H 	H 	0.59970 0.81050 0.87810 0.06200
H 	H 	0.63390 0.78670 0.94620 0.08100
C 	C 	0.63200 0.71389 0.87487 0.17500
C 	C 	0.68854 0.68201 0.89930 -0.22700
H 	H 	0.71020 0.69920 0.93790 0.10800
C 	C 	0.52829 0.69927 0.97633 0.40100
H 	H 	0.57010 0.69100 0.00130 -0.16600
H 	H 	0.52220 0.66210 0.94430 -0.07600
O 	O 	0.57936 0.88995 0.02058 -0.59600
N 	N 	0.53473 0.26010 0.44000 -0.23500
H 	H 	0.51090 0.25900 0.39490 0.05500
C 	C 	0.60300 0.27289 0.41003 -0.18900
H 	H 	0.59970 0.31050 0.37810 0.06100
H 	H 	0.63390 0.28670 0.44620 0.06100
C 	C 	0.63200 0.21389 0.37487 0.17300
C 	C 	0.68854 0.18201 0.39930 -0.23600
H 	H 	0.71020 0.19920 0.43790 0.09700
C 	C 	0.52829 0.19927 0.47633 -0.08700
H 	H 	0.57010 0.19100 0.50130 0.03400
H 	H 	0.52220 0.16210 0.44430 0.04000
O 	O 	0.57936 0.38995 0.52058 -0.56700
N 	N 	0.03473 0.76010 0.44000 -0.22500
H 	H 	0.01090 0.75900 0.39490 0.03200
C 	C 	0.10300 0.77289 0.41003 -0.19400
H 	H 	0.09970 0.81050 0.37810 0.05800
H 	H 	0.13390 0.78670 0.44620 0.06100
C 	C 	0.13200 0.71389 0.37487 0.17400
C 	C 	0.18854 0.68201 0.39930 -0.23400
H 	H 	0.21020 0.69920 0.43790 0.09500
C 	C 	0.02829 0.69927 0.47633 -0.23200
H 	H 	0.07010 0.69100 0.50130 0.06500
H 	H 	0.02220 0.66210 0.44430 0.06300
O 	O 	0.07936 0.88995 0.52058 -0.57000
N 	N 	0.03473 0.26010 0.94000 -0.27500
H 	H 	0.01090 0.25900 0.89490 0.04300
C 	C 	0.10300 0.27289 0.91003 -0.17300
H 	H 	0.09970 0.31050 0.87810 0.05500
H 	H 	0.13390 0.28670 0.94620 0.07700
C 	C 	0.13200 0.21389 0.87487 0.17400
C 	C 	0.18854 0.18201 0.89930 -0.23100
H 	H 	0.21020 0.19920 0.93790 0.10700
C 	C 	0.02829 0.19927 0.97633 0.27100
H 	H 	0.07010 0.19100 0.00130 -0.15700
H 	H 	0.02220 0.16210 0.94430 -0.07400
O 	O 	0.07936 0.38995 0.02058 -0.63700
N 	N 	0.46527 0.76010 0.06000 -0.18000
H 	H 	0.48910 0.75900 0.10510 0.04700
C 	C 	0.39700 0.77289 0.08997 -0.20800
H 	H 	0.40030 0.81050 0.12190 0.06500
H 	H 	0.36610 0.78670 0.05380 0.04700
C 	C 	0.36800 0.71389 0.12513 0.17300
C 	C 	0.31146 0.68201 0.10070 -0.23700
H 	H 	0.28980 0.69920 0.06210 0.08300
C 	C 	0.47171 0.69927 0.02367 -0.57600
H 	H 	0.42990 0.69100 0.99870 0.24900
H 	H 	0.47780 0.66210 0.05570 0.17500
O 	O 	0.42064 0.88995 0.97942 -0.48800
N 	N 	0.46527 0.26010 0.56000 -0.23600
H 	H 	0.48910 0.25900 0.60510 0.05700
C 	C 	0.39700 0.27289 0.58997 -0.18800
H 	H 	0.40030 0.31050 0.62190 0.06100
H 	H 	0.36610 0.28670 0.55380 0.06000
C 	C 	0.36800 0.21389 0.62513 0.17300
C 	C 	0.31146 0.18201 0.60070 -0.23400
H 	H 	0.28980 0.19920 0.56210 0.09400
C 	C 	0.47171 0.19927 0.52367 -0.08500
H 	H 	0.42990 0.19100 0.49870 0.03200
H 	H 	0.47780 0.16210 0.55570 0.04000
O 	O 	0.42064 0.38995 0.47942 -0.56900
N 	N 	0.96527 0.76010 0.56000 -0.23700
H 	H 	0.98910 0.75900 0.60510 0.08700
C 	C 	0.89700 0.77289 0.58997 -0.18600
H 	H 	0.90030 0.81050 0.62190 0.06900
H 	H 	0.86610 0.78670 0.55380 0.06600
C 	C 	0.86800 0.71389 0.62513 0.17400
C 	C 	0.81146 0.68201 0.60070 -0.23000
H 	H 	0.78980 0.69920 0.56210 0.09600
C 	C 	0.97171 0.69927 0.52367 0.05800
H 	H 	0.92990 0.69100 0.49870 0.01600
H 	H 	0.97780 0.66210 0.55570 0.03600
O 	O 	0.92064 0.88995 0.47942 -0.51900
N 	N 	0.96527 0.26010 0.06000 -0.18200
H 	H 	0.98910 0.25900 0.10510 0.07300
C 	C 	0.89700 0.27289 0.08997 -0.20400
H 	H 	0.90030 0.31050 0.12190 0.06900
H 	H 	0.86610 0.28670 0.05380 0.04900
C 	C 	0.86800 0.21389 0.12513 0.17200
C 	C 	0.81146 0.18201 0.10070 -0.23800
H 	H 	0.78980 0.19920 0.06210 0.08500
C 	C 	0.97171 0.19927 0.02367 -0.43000
H 	H 	0.92990 0.19100 0.99870 0.21800
H 	H 	0.97780 0.16210 0.05570 0.15300
O 	O 	0.92064 0.38995 0.97942 -0.47200
Zn	Zn	0.00000 0.50000 0.16343 1.17800
Zn	Zn	-0.00000 -0.00000 0.66343 1.15000
Zn	Zn	0.50000 0.50000 0.66343 1.20900
Zn	Zn	0.50000 0.00000 0.16343 1.17800
Zn	Zn	-0.00000 0.50000 0.83657 1.18100
Zn	Zn	-0.00000 -0.00000 0.33657 1.14900
Zn	Zn	0.50000 0.50000 0.33657 1.20900
Zn	Zn	0.50000 -0.00000 0.83657 1.18100
Zn	Zn	0.16343 0.00000 0.50000 1.17800
Zn	Zn	0.16343 0.50000 -0.00000 1.17800
Zn	Zn	0.66343 0.00000 -0.00000 1.15000
Zn	Zn	0.66343 0.50000 0.50000 1.20900
Zn	Zn	0.83657 0.00000 0.50000 1.18100
Zn	Zn	0.83657 0.50000 -0.00000 1.18100
Zn	Zn	0.33657 0.00000 -0.00000 1.14900
Zn	Zn	0.33657 0.50000 0.50000 1.20900
Zn	Zn	0.50000 0.16343 -0.00000 1.17800
Zn	Zn	0.50000 0.66343 0.50000 1.20900
Zn	Zn	0.00000 0.16343 0.50000 1.17800
Zn	Zn	-0.00000 0.66343 -0.00000 1.15000
Zn	Zn	0.50000 0.83657 -0.00000 1.18100
Zn	Zn	0.50000 0.33657 0.50000 1.20900
Zn	Zn	-0.00000 0.83657 0.50000 1.18100
Zn	Zn	-0.00000 0.33657 -0.00000 1.14900
C 	C 	0.92998 0.57002 0.07002 0.50300
C 	C 	0.07002 0.42998 0.07002 0.50800
C 	C 	0.07002 0.57002 0.92998 0.50300
C 	C 	0.92998 0.42998 0.92998 0.49800
C 	C 	0.07002 0.92998 0.57002 0.50300
C 	C 	0.07002 0.07002 0.42998 0.50800
C 	C 	0.92998 0.07002 0.57002 0.50300
C 	C 	0.92998 0.92998 0.42998 0.49800
C 	C 	0.57002 0.07002 0.92998 0.50300
C 	C 	0.57002 0.57002 0.42998 0.50600
C 	C 	0.42998 0.07002 0.07002 0.50800
C 	C 	0.42998 0.57002 0.57002 0.50600
C 	C 	0.57002 0.92998 0.07002 0.50300
C 	C 	0.57002 0.42998 0.57002 0.50600
C 	C 	0.42998 0.92998 0.92998 0.49800
C 	C 	0.42998 0.42998 0.42998 0.50500
