data_crystal

_cell_length_a 34.50200
_cell_length_b 34.50200
_cell_length_c 34.50200
_cell_angle_alpha 90.00000
_cell_angle_beta  90.00000
_cell_angle_gamma 90.00000

_symmetry_space_group_name_	'P 1'
_symmetry_space_group_name_H-M	'P 1'

loop_
_symmetry_equiv_pos_as_xyz
  x,y,z

loop_
_atom_site_label
_atom_site_type_symbol
_atom_site_fract_x
_atom_site_fract_y
_atom_site_fract_z
_atom_site_charge
C 	C 	0.01880 0.71720 0.07470 -0.04800
C 	C 	0.05120 0.77880 0.10520 -0.02300
C 	C 	0.10630 0.90020 0.04480 -0.17600
H 	H 	0.12170 0.89340 0.02310 0.06500
C 	C 	0.09180 0.93840 0.04690 0.34600
C 	C 	0.06840 0.94770 0.07740 -0.29400
H 	H 	0.05740 0.97280 0.07960 0.16200
C 	C 	0.06120 0.91960 0.10540 0.07300
H 	H 	0.04510 0.92540 0.12690 0.00700
C 	C 	0.07750 0.88320 0.10180 -0.05600
H 	H 	0.07290 0.86450 0.12150 0.03000
C 	C 	0.12810 0.73010 0.05060 0.02100
H 	H 	0.10060 0.73190 0.05220 0.02200
C 	C 	0.14540 0.69600 0.03970 -0.02700
C 	C 	0.18500 0.69220 0.03870 -0.00100
H 	H 	0.19670 0.66830 0.03150 0.02900
C 	C 	0.20610 0.72210 0.04790 -0.09900
H 	H 	0.23350 0.72010 0.04710 0.06900
C 	C 	0.18930 0.75630 0.05860 0.05800
H 	H 	0.20550 0.77730 0.06600 -0.00900
C 	C 	0.10250 0.96800 0.01560 -0.96600
H 	H 	0.12980 0.97270 0.01790 0.42400
H 	H 	0.09750 0.95790 0.99020 -0.10600
C 	C 	0.12590 0.66010 0.02430 0.02100
H 	H 	0.14380 0.64570 0.00700 0.04400
H 	H 	0.11840 0.64280 0.04600 0.00500
N 	N 	0.02970 0.69980 0.04860 -0.11000
N 	N 	0.07760 0.79350 0.09250 -0.23900
N 	N 	0.09970 0.87330 0.07140 -0.17700
N 	N 	0.15070 0.76120 0.05900 -0.23000
O 	O 	0.09210 0.67180 0.00330 -0.35200
H 	H 	0.07200 0.68000 0.99300 0.24900
O 	O 	0.08050 0.00150 0.01750 -1.04600
H 	H 	0.06130 0.01600 0.02300 0.40500
H 	H 	0.11200 0.95450 0.99330 0.33100
H 	H 	0.07990 0.98220 0.00780 0.92400
C 	C 	0.11820 0.66260 0.03530 0.04900
H 	H 	0.13280 0.63860 0.02960 0.00300
H 	H 	0.10320 0.65870 0.05940 0.02800
O 	O 	0.12970 0.99580 0.02820 -0.18600
H 	H 	0.14980 0.99300 0.01400 0.03600
C 	C 	0.51880 0.21720 0.57470 -0.04700
C 	C 	0.55120 0.27880 0.60520 -0.02300
C 	C 	0.60630 0.40020 0.54480 -0.17000
H 	H 	0.62170 0.39340 0.52310 0.06400
C 	C 	0.59180 0.43840 0.54690 0.33700
C 	C 	0.56840 0.44770 0.57740 -0.28700
H 	H 	0.55740 0.47280 0.57960 0.15800
C 	C 	0.56120 0.41960 0.60540 0.06900
H 	H 	0.54510 0.42540 0.62690 0.00900
C 	C 	0.57750 0.38320 0.60180 -0.05300
H 	H 	0.57290 0.36450 0.62150 0.03000
C 	C 	0.62810 0.23010 0.55060 0.02100
H 	H 	0.60060 0.23190 0.55220 0.02200
C 	C 	0.64540 0.19600 0.53970 -0.02500
C 	C 	0.68500 0.19220 0.53870 -0.00200
H 	H 	0.69670 0.16830 0.53150 0.03000
C 	C 	0.70610 0.22210 0.54790 -0.09900
H 	H 	0.73350 0.22010 0.54710 0.06900
C 	C 	0.68930 0.25630 0.55860 0.05800
H 	H 	0.70550 0.27730 0.56600 -0.00900
C 	C 	0.60250 0.46800 0.51560 -0.93900
H 	H 	0.62980 0.47270 0.51790 0.41800
H 	H 	0.59750 0.45790 0.49020 -0.10600
C 	C 	0.62590 0.16010 0.52430 0.02000
H 	H 	0.64380 0.14570 0.50700 0.04500
H 	H 	0.61840 0.14280 0.54600 0.00600
N 	N 	0.52970 0.19980 0.54860 -0.10900
N 	N 	0.57760 0.29350 0.59250 -0.23900
N 	N 	0.59970 0.37330 0.57140 -0.17900
N 	N 	0.65070 0.26120 0.55900 -0.22900
O 	O 	0.59210 0.17180 0.50330 -0.34600
H 	H 	0.57200 0.18000 0.49300 0.24400
O 	O 	0.58050 0.50150 0.51750 -1.02900
H 	H 	0.56130 0.51600 0.52300 0.40200
H 	H 	0.61200 0.45450 0.49330 0.32100
H 	H 	0.57990 0.48220 0.50780 0.90600
C 	C 	0.61820 0.16260 0.53530 0.04800
H 	H 	0.63280 0.13860 0.52960 0.00400
H 	H 	0.60320 0.15870 0.55940 0.02800
O 	O 	0.62970 0.49580 0.52820 -0.19300
H 	H 	0.64980 0.49300 0.51400 0.04000
C 	C 	0.48120 0.28280 0.57470 -0.04700
C 	C 	0.44880 0.22120 0.60520 -0.02300
C 	C 	0.39370 0.09980 0.54480 -0.16800
H 	H 	0.37830 0.10660 0.52310 0.06300
C 	C 	0.40820 0.06160 0.54690 0.33300
C 	C 	0.43160 0.05230 0.57740 -0.28400
H 	H 	0.44260 0.02720 0.57960 0.15600
C 	C 	0.43880 0.08040 0.60540 0.06700
H 	H 	0.45490 0.07460 0.62690 0.01000
C 	C 	0.42250 0.11680 0.60180 -0.05200
H 	H 	0.42710 0.13550 0.62150 0.02900
C 	C 	0.37190 0.26990 0.55060 0.02100
H 	H 	0.39940 0.26810 0.55220 0.02200
C 	C 	0.35460 0.30400 0.53970 -0.02500
C 	C 	0.31500 0.30780 0.53870 -0.00200
H 	H 	0.30330 0.33170 0.53150 0.03000
C 	C 	0.29390 0.27790 0.54790 -0.09900
H 	H 	0.26650 0.27990 0.54710 0.06900
C 	C 	0.31070 0.24370 0.55860 0.05800
H 	H 	0.29450 0.22270 0.56600 -0.00900
C 	C 	0.39750 0.03200 0.51560 -0.93000
H 	H 	0.37020 0.02730 0.51790 0.41700
H 	H 	0.40250 0.04210 0.49020 -0.10200
C 	C 	0.37410 0.33990 0.52430 0.02100
H 	H 	0.35620 0.35430 0.50700 0.04600
H 	H 	0.38160 0.35720 0.54600 0.00700
N 	N 	0.47030 0.30020 0.54860 -0.10800
N 	N 	0.42240 0.20650 0.59250 -0.23800
N 	N 	0.40030 0.12670 0.57140 -0.17800
N 	N 	0.34930 0.23880 0.55900 -0.22800
O 	O 	0.40790 0.32820 0.50330 -0.34500
H 	H 	0.42800 0.32000 0.49300 0.24500
O 	O 	0.41950 0.99850 0.51750 -1.01200
H 	H 	0.43870 0.98400 0.52300 0.39800
H 	H 	0.38800 0.04550 0.49330 0.31600
H 	H 	0.42010 0.01780 0.50780 0.89300
C 	C 	0.38180 0.33740 0.53530 0.04900
H 	H 	0.36720 0.36140 0.52960 0.00500
H 	H 	0.39680 0.34130 0.55940 0.02900
O 	O 	0.37030 0.00420 0.52820 -0.19600
H 	H 	0.35020 0.00700 0.51400 0.04200
C 	C 	0.98120 0.78280 0.07470 -0.04300
C 	C 	0.94880 0.72120 0.10520 -0.01900
C 	C 	0.89370 0.59980 0.04480 -0.17300
H 	H 	0.87830 0.60660 0.02310 0.06500
C 	C 	0.90820 0.56160 0.04690 0.34300
C 	C 	0.93160 0.55230 0.07740 -0.29000
H 	H 	0.94260 0.52720 0.07960 0.16100
C 	C 	0.93880 0.58040 0.10540 0.07200
H 	H 	0.95490 0.57460 0.12690 0.01000
C 	C 	0.92250 0.61680 0.10180 -0.05300
H 	H 	0.92710 0.63550 0.12150 0.03100
C 	C 	0.87190 0.76990 0.05060 0.02200
H 	H 	0.89940 0.76810 0.05220 0.02300
C 	C 	0.85460 0.80400 0.03970 -0.02600
C 	C 	0.81500 0.80780 0.03870 -0.00000
H 	H 	0.80330 0.83170 0.03150 0.03000
C 	C 	0.79390 0.77790 0.04790 -0.09800
H 	H 	0.76650 0.77990 0.04710 0.07000
C 	C 	0.81070 0.74370 0.05860 0.05900
H 	H 	0.79450 0.72270 0.06600 -0.00800
C 	C 	0.89750 0.53200 0.01560 -0.95600
H 	H 	0.87020 0.52730 0.01790 0.42400
H 	H 	0.90250 0.54210 0.99020 -0.10200
C 	C 	0.87410 0.83990 0.02430 0.02200
H 	H 	0.85620 0.85430 0.00700 0.04500
H 	H 	0.88160 0.85720 0.04600 0.00600
N 	N 	0.97030 0.80020 0.04860 -0.10900
N 	N 	0.92240 0.70650 0.09250 -0.23800
N 	N 	0.90030 0.62670 0.07140 -0.17700
N 	N 	0.84930 0.73880 0.05900 -0.22900
O 	O 	0.90790 0.82820 0.00330 -0.35100
H 	H 	0.92800 0.82000 0.99300 0.25100
O 	O 	0.91950 0.49850 0.01750 -1.03000
H 	H 	0.93870 0.48400 0.02300 0.40300
H 	H 	0.88800 0.54550 0.99330 0.32700
H 	H 	0.92010 0.51780 0.00780 0.91200
C 	C 	0.88180 0.83740 0.03530 0.05000
H 	H 	0.86720 0.86140 0.02960 0.00400
H 	H 	0.89680 0.84130 0.05940 0.02900
O 	O 	0.87030 0.50420 0.02820 -0.19000
H 	H 	0.85020 0.50700 0.01400 0.03800
C 	C 	0.98120 0.21720 0.42530 -0.04300
C 	C 	0.94880 0.27880 0.39480 -0.01900
C 	C 	0.89370 0.40020 0.45520 -0.16900
H 	H 	0.87830 0.39340 0.47690 0.06500
C 	C 	0.90820 0.43840 0.45310 0.33800
C 	C 	0.93160 0.44770 0.42260 -0.28600
H 	H 	0.94260 0.47280 0.42040 0.16000
C 	C 	0.93880 0.41960 0.39460 0.06900
H 	H 	0.95490 0.42540 0.37310 0.01100
C 	C 	0.92250 0.38320 0.39820 -0.05200
H 	H 	0.92710 0.36450 0.37850 0.03100
C 	C 	0.87190 0.23010 0.44940 0.02200
H 	H 	0.89940 0.23190 0.44780 0.02300
C 	C 	0.85460 0.19600 0.46030 -0.02400
C 	C 	0.81500 0.19220 0.46130 -0.00100
H 	H 	0.80330 0.16830 0.46850 0.03100
C 	C 	0.79390 0.22210 0.45210 -0.09800
H 	H 	0.76650 0.22010 0.45290 0.07000
C 	C 	0.81070 0.25630 0.44140 0.05900
H 	H 	0.79450 0.27730 0.43400 -0.00800
C 	C 	0.89750 0.46800 0.48440 -0.93900
H 	H 	0.87020 0.47270 0.48210 0.41900
H 	H 	0.90250 0.45790 0.50980 -0.10500
C 	C 	0.87410 0.16010 0.47570 0.02100
H 	H 	0.85620 0.14570 0.49300 0.04600
H 	H 	0.88160 0.14280 0.45400 0.00700
N 	N 	0.97030 0.19980 0.45140 -0.10800
N 	N 	0.92240 0.29350 0.40750 -0.23800
N 	N 	0.90030 0.37330 0.42860 -0.17800
N 	N 	0.84930 0.26120 0.44100 -0.22800
O 	O 	0.90790 0.17180 0.49670 -0.34500
H 	H 	0.92800 0.18000 0.50700 0.24600
O 	O 	0.91950 0.50150 0.48250 -1.02800
H 	H 	0.93870 0.51600 0.47700 0.40300
H 	H 	0.88800 0.45450 0.50670 0.32200
H 	H 	0.92010 0.48220 0.49220 0.90700
C 	C 	0.88180 0.16260 0.46470 0.04900
H 	H 	0.86720 0.13860 0.47040 0.00500
H 	H 	0.89680 0.15870 0.44060 0.02900
O 	O 	0.87030 0.49580 0.47180 -0.19200
H 	H 	0.85020 0.49300 0.48600 0.04100
C 	C 	0.48120 0.71720 0.92530 -0.04600
C 	C 	0.44880 0.77880 0.89480 -0.02200
C 	C 	0.39370 0.90020 0.95520 -0.16800
H 	H 	0.37830 0.89340 0.97690 0.06500
C 	C 	0.40820 0.93840 0.95310 0.33600
C 	C 	0.43160 0.94770 0.92260 -0.28500
H 	H 	0.44260 0.97280 0.92040 0.16000
C 	C 	0.43880 0.91960 0.89460 0.06900
H 	H 	0.45490 0.92540 0.87310 0.01100
C 	C 	0.42250 0.88320 0.89820 -0.05200
H 	H 	0.42710 0.86450 0.87850 0.03000
C 	C 	0.37190 0.73010 0.94940 0.02100
H 	H 	0.39940 0.73190 0.94780 0.02400
C 	C 	0.35460 0.69600 0.96030 -0.02300
C 	C 	0.31500 0.69220 0.96130 -0.00200
H 	H 	0.30330 0.66830 0.96850 0.03200
C 	C 	0.29390 0.72210 0.95210 -0.09700
H 	H 	0.26650 0.72010 0.95290 0.07000
C 	C 	0.31070 0.75630 0.94140 0.05900
H 	H 	0.29450 0.77730 0.93400 -0.00800
C 	C 	0.39750 0.96800 0.98440 -0.93000
H 	H 	0.37020 0.97270 0.98210 0.41600
H 	H 	0.40250 0.95790 0.00980 -0.11100
C 	C 	0.37410 0.66010 0.97570 0.01900
H 	H 	0.35620 0.64570 0.99300 0.04700
H 	H 	0.38160 0.64280 0.95400 0.00800
N 	N 	0.47030 0.69980 0.95140 -0.10800
N 	N 	0.42240 0.79350 0.90750 -0.23800
N 	N 	0.40030 0.87330 0.92860 -0.17800
N 	N 	0.34930 0.76120 0.94100 -0.22800
O 	O 	0.40790 0.67180 0.99670 -0.33900
H 	H 	0.42800 0.68000 0.00700 0.24000
O 	O 	0.41950 0.00150 0.98250 -1.04200
H 	H 	0.43870 0.01600 0.97700 0.40800
H 	H 	0.38800 0.95450 0.00670 0.32200
H 	H 	0.42010 0.98220 0.99220 0.91500
C 	C 	0.38180 0.66260 0.96470 0.04700
H 	H 	0.36720 0.63860 0.97040 0.00500
H 	H 	0.39680 0.65870 0.94060 0.02900
O 	O 	0.37030 0.99580 0.97180 -0.18900
H 	H 	0.35020 0.99300 0.98600 0.04300
C 	C 	0.51880 0.78280 0.92530 -0.04600
C 	C 	0.55120 0.72120 0.89480 -0.02200
C 	C 	0.60630 0.59980 0.95520 -0.16600
H 	H 	0.62170 0.60660 0.97690 0.06500
C 	C 	0.59180 0.56160 0.95310 0.33200
C 	C 	0.56840 0.55230 0.92260 -0.28200
H 	H 	0.55740 0.52720 0.92040 0.15800
C 	C 	0.56120 0.58040 0.89460 0.06700
H 	H 	0.54510 0.57460 0.87310 0.01100
C 	C 	0.57750 0.61680 0.89820 -0.05100
H 	H 	0.57290 0.63550 0.87850 0.03000
C 	C 	0.62810 0.76990 0.94940 0.02100
H 	H 	0.60060 0.76810 0.94780 0.02400
C 	C 	0.64540 0.80400 0.96030 -0.02300
C 	C 	0.68500 0.80780 0.96130 -0.00200
H 	H 	0.69670 0.83170 0.96850 0.03200
C 	C 	0.70610 0.77790 0.95210 -0.09700
H 	H 	0.73350 0.77990 0.95290 0.07100
C 	C 	0.68930 0.74370 0.94140 0.05900
H 	H 	0.70550 0.72270 0.93400 -0.00800
C 	C 	0.60250 0.53200 0.98440 -0.92000
H 	H 	0.62980 0.52730 0.98210 0.41400
H 	H 	0.59750 0.54210 0.00980 -0.10800
C 	C 	0.62590 0.83990 0.97570 0.01900
H 	H 	0.64380 0.85430 0.99300 0.04700
H 	H 	0.61840 0.85720 0.95400 0.00800
N 	N 	0.52970 0.80020 0.95140 -0.10800
N 	N 	0.57760 0.70650 0.90750 -0.23800
N 	N 	0.59970 0.62670 0.92860 -0.17900
N 	N 	0.65070 0.73880 0.94100 -0.22800
O 	O 	0.59210 0.82820 0.99670 -0.33900
H 	H 	0.57200 0.82000 0.00700 0.24000
O 	O 	0.58050 0.49850 0.98250 -1.02600
H 	H 	0.56130 0.48400 0.97700 0.40300
H 	H 	0.61200 0.54550 0.00670 0.31700
H 	H 	0.57990 0.51780 0.99220 0.90100
C 	C 	0.61820 0.83740 0.96470 0.04700
H 	H 	0.63280 0.86140 0.97040 0.00500
H 	H 	0.60320 0.84130 0.94060 0.02900
O 	O 	0.62970 0.50420 0.97180 -0.19300
H 	H 	0.64980 0.50700 0.98600 0.04400
C 	C 	0.01880 0.28280 0.42530 -0.04700
C 	C 	0.05120 0.22120 0.39480 -0.02200
C 	C 	0.10630 0.09980 0.45520 -0.16700
H 	H 	0.12170 0.10660 0.47690 0.06400
C 	C 	0.09180 0.06160 0.45310 0.33400
C 	C 	0.06840 0.05230 0.42260 -0.28300
H 	H 	0.05740 0.02720 0.42040 0.15700
C 	C 	0.06120 0.08040 0.39460 0.06800
H 	H 	0.04510 0.07460 0.37310 0.01000
C 	C 	0.07750 0.11680 0.39820 -0.05100
H 	H 	0.07290 0.13550 0.37850 0.03000
C 	C 	0.12810 0.26990 0.44940 0.02200
H 	H 	0.10060 0.26810 0.44780 0.02300
C 	C 	0.14540 0.30400 0.46030 -0.02400
C 	C 	0.18500 0.30780 0.46130 -0.00100
H 	H 	0.19670 0.33170 0.46850 0.03100
C 	C 	0.20610 0.27790 0.45210 -0.09800
H 	H 	0.23350 0.27990 0.45290 0.07000
C 	C 	0.18930 0.24370 0.44140 0.05900
H 	H 	0.20550 0.22270 0.43400 -0.00800
C 	C 	0.10250 0.03200 0.48440 -0.92900
H 	H 	0.12980 0.02730 0.48210 0.41700
H 	H 	0.09750 0.04210 0.50980 -0.10200
C 	C 	0.12590 0.33990 0.47570 0.02100
H 	H 	0.14380 0.35430 0.49300 0.04600
H 	H 	0.11840 0.35720 0.45400 0.00700
N 	N 	0.02970 0.30020 0.45140 -0.10900
N 	N 	0.07760 0.20650 0.40750 -0.23800
N 	N 	0.09970 0.12670 0.42860 -0.17800
N 	N 	0.15070 0.23880 0.44100 -0.22800
O 	O 	0.09210 0.32820 0.49670 -0.34500
H 	H 	0.07200 0.32000 0.50700 0.24500
O 	O 	0.08050 0.99850 0.48250 -1.01200
H 	H 	0.06130 0.98400 0.47700 0.39700
H 	H 	0.11200 0.04550 0.50670 0.31600
H 	H 	0.07990 0.01780 0.49220 0.89300
C 	C 	0.11820 0.33740 0.46470 0.04900
H 	H 	0.13280 0.36140 0.47040 0.00500
H 	H 	0.10320 0.34130 0.44060 0.02900
O 	O 	0.12970 0.00420 0.47180 -0.19700
H 	H 	0.14980 0.00700 0.48600 0.04200
C 	C 	0.07470 0.01880 0.71720 -0.04700
C 	C 	0.10520 0.05120 0.77880 -0.02200
C 	C 	0.04480 0.10630 0.90020 -0.17500
H 	H 	0.02310 0.12170 0.89340 0.06600
C 	C 	0.04690 0.09180 0.93840 0.34700
C 	C 	0.07740 0.06840 0.94770 -0.29300
H 	H 	0.07960 0.05740 0.97280 0.16300
C 	C 	0.10540 0.06120 0.91960 0.07400
H 	H 	0.12690 0.04510 0.92540 0.00800
C 	C 	0.10180 0.07750 0.88320 -0.05500
H 	H 	0.12150 0.07290 0.86450 0.03100
C 	C 	0.05060 0.12810 0.73010 0.02200
H 	H 	0.05220 0.10060 0.73190 0.02300
C 	C 	0.03970 0.14540 0.69600 -0.02600
C 	C 	0.03870 0.18500 0.69220 -0.00000
H 	H 	0.03150 0.19670 0.66830 0.03000
C 	C 	0.04790 0.20610 0.72210 -0.09800
H 	H 	0.04710 0.23350 0.72010 0.07000
C 	C 	0.05860 0.18930 0.75630 0.05900
H 	H 	0.06600 0.20550 0.77730 -0.00800
C 	C 	0.01560 0.10250 0.96800 -0.96500
H 	H 	0.01790 0.12980 0.97270 0.42500
H 	H 	0.99020 0.09750 0.95790 -0.10500
C 	C 	0.02430 0.12590 0.66010 0.02200
H 	H 	0.00700 0.14380 0.64570 0.04500
H 	H 	0.04600 0.11840 0.64280 0.00600
N 	N 	0.04860 0.02970 0.69980 -0.10900
N 	N 	0.09250 0.07760 0.79350 -0.23800
N 	N 	0.07140 0.09970 0.87330 -0.17600
N 	N 	0.05900 0.15070 0.76120 -0.22900
O 	O 	0.00330 0.09210 0.67180 -0.35100
H 	H 	0.99300 0.07200 0.68000 0.25000
O 	O 	0.01750 0.08050 0.00150 -1.04500
H 	H 	0.02300 0.06130 0.01600 0.40600
H 	H 	0.99330 0.11200 0.95450 0.33200
H 	H 	0.00780 0.07990 0.98220 0.92500
C 	C 	0.03530 0.11820 0.66260 0.05000
H 	H 	0.02960 0.13280 0.63860 0.00400
H 	H 	0.05940 0.10320 0.65870 0.02900
O 	O 	0.02820 0.12970 0.99580 -0.18500
H 	H 	0.01400 0.14980 0.99300 0.03700
C 	C 	0.57470 0.51880 0.21720 -0.04600
C 	C 	0.60520 0.55120 0.27880 -0.02200
C 	C 	0.54480 0.60630 0.40020 -0.16900
H 	H 	0.52310 0.62170 0.39340 0.06500
C 	C 	0.54690 0.59180 0.43840 0.33800
C 	C 	0.57740 0.56840 0.44770 -0.28600
H 	H 	0.57960 0.55740 0.47280 0.15900
C 	C 	0.60540 0.56120 0.41960 0.07000
H 	H 	0.62690 0.54510 0.42540 0.01000
C 	C 	0.60180 0.57750 0.38320 -0.05200
H 	H 	0.62150 0.57290 0.36450 0.03100
C 	C 	0.55060 0.62810 0.23010 0.02200
H 	H 	0.55220 0.60060 0.23190 0.02300
C 	C 	0.53970 0.64540 0.19600 -0.02400
C 	C 	0.53870 0.68500 0.19220 -0.00100
H 	H 	0.53150 0.69670 0.16830 0.03100
C 	C 	0.54790 0.70610 0.22210 -0.09800
H 	H 	0.54710 0.73350 0.22010 0.07000
C 	C 	0.55860 0.68930 0.25630 0.05900
H 	H 	0.56600 0.70550 0.27730 -0.00800
C 	C 	0.51560 0.60250 0.46800 -0.93800
H 	H 	0.51790 0.62980 0.47270 0.41900
H 	H 	0.49020 0.59750 0.45790 -0.10500
C 	C 	0.52430 0.62590 0.16010 0.02100
H 	H 	0.50700 0.64380 0.14570 0.04600
H 	H 	0.54600 0.61840 0.14280 0.00700
N 	N 	0.54860 0.52970 0.19980 -0.10800
N 	N 	0.59250 0.57760 0.29350 -0.23800
N 	N 	0.57140 0.59970 0.37330 -0.17800
N 	N 	0.55900 0.65070 0.26120 -0.22800
O 	O 	0.50330 0.59210 0.17180 -0.34500
H 	H 	0.49300 0.57200 0.18000 0.24500
O 	O 	0.51750 0.58050 0.50150 -1.02800
H 	H 	0.52300 0.56130 0.51600 0.40300
H 	H 	0.49330 0.61200 0.45450 0.32200
H 	H 	0.50780 0.57990 0.48220 0.90700
C 	C 	0.53530 0.61820 0.16260 0.04900
H 	H 	0.52960 0.63280 0.13860 0.00500
H 	H 	0.55940 0.60320 0.15870 0.02900
O 	O 	0.52820 0.62970 0.49580 -0.19200
H 	H 	0.51400 0.64980 0.49300 0.04100
C 	C 	0.57470 0.48120 0.28280 -0.04600
C 	C 	0.60520 0.44880 0.22120 -0.02200
C 	C 	0.54480 0.39370 0.09980 -0.16700
H 	H 	0.52310 0.37830 0.10660 0.06400
C 	C 	0.54690 0.40820 0.06160 0.33400
C 	C 	0.57740 0.43160 0.05230 -0.28300
H 	H 	0.57960 0.44260 0.02720 0.15700
C 	C 	0.60540 0.43880 0.08040 0.06800
H 	H 	0.62690 0.45490 0.07460 0.01100
C 	C 	0.60180 0.42250 0.11680 -0.05100
H 	H 	0.62150 0.42710 0.13550 0.03000
C 	C 	0.55060 0.37190 0.26990 0.02200
H 	H 	0.55220 0.39940 0.26810 0.02300
C 	C 	0.53970 0.35460 0.30400 -0.02400
C 	C 	0.53870 0.31500 0.30780 -0.00100
H 	H 	0.53150 0.30330 0.33170 0.03100
C 	C 	0.54790 0.29390 0.27790 -0.09800
H 	H 	0.54710 0.26650 0.27990 0.07000
C 	C 	0.55860 0.31070 0.24370 0.05900
H 	H 	0.56600 0.29450 0.22270 -0.00800
C 	C 	0.51560 0.39750 0.03200 -0.92900
H 	H 	0.51790 0.37020 0.02730 0.41800
H 	H 	0.49020 0.40250 0.04210 -0.10100
C 	C 	0.52430 0.37410 0.33990 0.02100
H 	H 	0.50700 0.35620 0.35430 0.04600
H 	H 	0.54600 0.38160 0.35720 0.00700
N 	N 	0.54860 0.47030 0.30020 -0.10800
N 	N 	0.59250 0.42240 0.20650 -0.23800
N 	N 	0.57140 0.40030 0.12670 -0.17800
N 	N 	0.55900 0.34930 0.23880 -0.22800
O 	O 	0.50330 0.40790 0.32820 -0.34500
H 	H 	0.49300 0.42800 0.32000 0.24500
O 	O 	0.51750 0.41950 0.99850 -1.01200
H 	H 	0.52300 0.43870 0.98400 0.39800
H 	H 	0.49330 0.38800 0.04550 0.31600
H 	H 	0.50780 0.42010 0.01780 0.89300
C 	C 	0.53530 0.38180 0.33740 0.04900
H 	H 	0.52960 0.36720 0.36140 0.00500
H 	H 	0.55940 0.39680 0.34130 0.02900
O 	O 	0.52820 0.37030 0.00420 -0.19600
H 	H 	0.51400 0.35020 0.00700 0.04200
C 	C 	0.07470 0.98120 0.78280 -0.04300
C 	C 	0.10520 0.94880 0.72120 -0.01900
C 	C 	0.04480 0.89370 0.59980 -0.17300
H 	H 	0.02310 0.87830 0.60660 0.06500
C 	C 	0.04690 0.90820 0.56160 0.34300
C 	C 	0.07740 0.93160 0.55230 -0.29000
H 	H 	0.07960 0.94260 0.52720 0.16100
C 	C 	0.10540 0.93880 0.58040 0.07200
H 	H 	0.12690 0.95490 0.57460 0.01000
C 	C 	0.10180 0.92250 0.61680 -0.05300
H 	H 	0.12150 0.92710 0.63550 0.03100
C 	C 	0.05060 0.87190 0.76990 0.02200
H 	H 	0.05220 0.89940 0.76810 0.02300
C 	C 	0.03970 0.85460 0.80400 -0.02600
C 	C 	0.03870 0.81500 0.80780 -0.00000
H 	H 	0.03150 0.80330 0.83170 0.03000
C 	C 	0.04790 0.79390 0.77790 -0.09800
H 	H 	0.04710 0.76650 0.77990 0.07000
C 	C 	0.05860 0.81070 0.74370 0.05900
H 	H 	0.06600 0.79450 0.72270 -0.00800
C 	C 	0.01560 0.89750 0.53200 -0.95600
H 	H 	0.01790 0.87020 0.52730 0.42400
H 	H 	0.99020 0.90250 0.54210 -0.10200
C 	C 	0.02430 0.87410 0.83990 0.02200
H 	H 	0.00700 0.85620 0.85430 0.04500
H 	H 	0.04600 0.88160 0.85720 0.00600
N 	N 	0.04860 0.97030 0.80020 -0.10900
N 	N 	0.09250 0.92240 0.70650 -0.23800
N 	N 	0.07140 0.90030 0.62670 -0.17700
N 	N 	0.05900 0.84930 0.73880 -0.22900
O 	O 	0.00330 0.90790 0.82820 -0.35100
H 	H 	0.99300 0.92800 0.82000 0.25100
O 	O 	0.01750 0.91950 0.49850 -1.03000
H 	H 	0.02300 0.93870 0.48400 0.40300
H 	H 	0.99330 0.88800 0.54550 0.32700
H 	H 	0.00780 0.92010 0.51780 0.91200
C 	C 	0.03530 0.88180 0.83740 0.05000
H 	H 	0.02960 0.86720 0.86140 0.00400
H 	H 	0.05940 0.89680 0.84130 0.02900
O 	O 	0.02820 0.87030 0.50420 -0.19000
H 	H 	0.01400 0.85020 0.50700 0.03800
C 	C 	0.42530 0.98120 0.21720 -0.04300
C 	C 	0.39480 0.94880 0.27880 -0.01900
C 	C 	0.45520 0.89370 0.40020 -0.16900
H 	H 	0.47690 0.87830 0.39340 0.06500
C 	C 	0.45310 0.90820 0.43840 0.33800
C 	C 	0.42260 0.93160 0.44770 -0.28600
H 	H 	0.42040 0.94260 0.47280 0.16000
C 	C 	0.39460 0.93880 0.41960 0.06900
H 	H 	0.37310 0.95490 0.42540 0.01100
C 	C 	0.39820 0.92250 0.38320 -0.05200
H 	H 	0.37850 0.92710 0.36450 0.03100
C 	C 	0.44940 0.87190 0.23010 0.02200
H 	H 	0.44780 0.89940 0.23190 0.02300
C 	C 	0.46030 0.85460 0.19600 -0.02400
C 	C 	0.46130 0.81500 0.19220 -0.00100
H 	H 	0.46850 0.80330 0.16830 0.03100
C 	C 	0.45210 0.79390 0.22210 -0.09800
H 	H 	0.45290 0.76650 0.22010 0.07000
C 	C 	0.44140 0.81070 0.25630 0.05900
H 	H 	0.43400 0.79450 0.27730 -0.00800
C 	C 	0.48440 0.89750 0.46800 -0.93900
H 	H 	0.48210 0.87020 0.47270 0.41900
H 	H 	0.50980 0.90250 0.45790 -0.10500
C 	C 	0.47570 0.87410 0.16010 0.02100
H 	H 	0.49300 0.85620 0.14570 0.04600
H 	H 	0.45400 0.88160 0.14280 0.00700
N 	N 	0.45140 0.97030 0.19980 -0.10800
N 	N 	0.40750 0.92240 0.29350 -0.23800
N 	N 	0.42860 0.90030 0.37330 -0.17800
N 	N 	0.44100 0.84930 0.26120 -0.22800
O 	O 	0.49670 0.90790 0.17180 -0.34500
H 	H 	0.50700 0.92800 0.18000 0.24600
O 	O 	0.48250 0.91950 0.50150 -1.02800
H 	H 	0.47700 0.93870 0.51600 0.40300
H 	H 	0.50670 0.88800 0.45450 0.32200
H 	H 	0.49220 0.92010 0.48220 0.90700
C 	C 	0.46470 0.88180 0.16260 0.04900
H 	H 	0.47040 0.86720 0.13860 0.00500
H 	H 	0.44060 0.89680 0.15870 0.02900
O 	O 	0.47180 0.87030 0.49580 -0.19200
H 	H 	0.48600 0.85020 0.49300 0.04100
C 	C 	0.92530 0.48120 0.71720 -0.04600
C 	C 	0.89480 0.44880 0.77880 -0.02200
C 	C 	0.95520 0.39370 0.90020 -0.16800
H 	H 	0.97690 0.37830 0.89340 0.06500
C 	C 	0.95310 0.40820 0.93840 0.33600
C 	C 	0.92260 0.43160 0.94770 -0.28500
H 	H 	0.92040 0.44260 0.97280 0.16000
C 	C 	0.89460 0.43880 0.91960 0.06900
H 	H 	0.87310 0.45490 0.92540 0.01100
C 	C 	0.89820 0.42250 0.88320 -0.05200
H 	H 	0.87850 0.42710 0.86450 0.03000
C 	C 	0.94940 0.37190 0.73010 0.02100
H 	H 	0.94780 0.39940 0.73190 0.02400
C 	C 	0.96030 0.35460 0.69600 -0.02300
C 	C 	0.96130 0.31500 0.69220 -0.00200
H 	H 	0.96850 0.30330 0.66830 0.03200
C 	C 	0.95210 0.29390 0.72210 -0.09700
H 	H 	0.95290 0.26650 0.72010 0.07000
C 	C 	0.94140 0.31070 0.75630 0.05900
H 	H 	0.93400 0.29450 0.77730 -0.00800
C 	C 	0.98440 0.39750 0.96800 -0.93000
H 	H 	0.98210 0.37020 0.97270 0.41600
H 	H 	0.00980 0.40250 0.95790 -0.11100
C 	C 	0.97570 0.37410 0.66010 0.01900
H 	H 	0.99300 0.35620 0.64570 0.04700
H 	H 	0.95400 0.38160 0.64280 0.00800
N 	N 	0.95140 0.47030 0.69980 -0.10800
N 	N 	0.90750 0.42240 0.79350 -0.23800
N 	N 	0.92860 0.40030 0.87330 -0.17800
N 	N 	0.94100 0.34930 0.76120 -0.22800
O 	O 	0.99670 0.40790 0.67180 -0.33900
H 	H 	0.00700 0.42800 0.68000 0.24000
O 	O 	0.98250 0.41950 0.00150 -1.04200
H 	H 	0.97700 0.43870 0.01600 0.40800
H 	H 	0.00670 0.38800 0.95450 0.32200
H 	H 	0.99220 0.42010 0.98220 0.91500
C 	C 	0.96470 0.38180 0.66260 0.04700
H 	H 	0.97040 0.36720 0.63860 0.00500
H 	H 	0.94060 0.39680 0.65870 0.02900
O 	O 	0.97180 0.37030 0.99580 -0.18900
H 	H 	0.98600 0.35020 0.99300 0.04300
C 	C 	0.92530 0.51880 0.78280 -0.04600
C 	C 	0.89480 0.55120 0.72120 -0.02200
C 	C 	0.95520 0.60630 0.59980 -0.16600
H 	H 	0.97690 0.62170 0.60660 0.06500
C 	C 	0.95310 0.59180 0.56160 0.33200
C 	C 	0.92260 0.56840 0.55230 -0.28200
H 	H 	0.92040 0.55740 0.52720 0.15800
C 	C 	0.89460 0.56120 0.58040 0.06700
H 	H 	0.87310 0.54510 0.57460 0.01100
C 	C 	0.89820 0.57750 0.61680 -0.05100
H 	H 	0.87850 0.57290 0.63550 0.03000
C 	C 	0.94940 0.62810 0.76990 0.02100
H 	H 	0.94780 0.60060 0.76810 0.02400
C 	C 	0.96030 0.64540 0.80400 -0.02300
C 	C 	0.96130 0.68500 0.80780 -0.00200
H 	H 	0.96850 0.69670 0.83170 0.03200
C 	C 	0.95210 0.70610 0.77790 -0.09700
H 	H 	0.95290 0.73350 0.77990 0.07100
C 	C 	0.94140 0.68930 0.74370 0.05900
H 	H 	0.93400 0.70550 0.72270 -0.00800
C 	C 	0.98440 0.60250 0.53200 -0.92000
H 	H 	0.98210 0.62980 0.52730 0.41400
H 	H 	0.00980 0.59750 0.54210 -0.10800
C 	C 	0.97570 0.62590 0.83990 0.01900
H 	H 	0.99300 0.64380 0.85430 0.04700
H 	H 	0.95400 0.61840 0.85720 0.00800
N 	N 	0.95140 0.52970 0.80020 -0.10800
N 	N 	0.90750 0.57760 0.70650 -0.23800
N 	N 	0.92860 0.59970 0.62670 -0.17900
N 	N 	0.94100 0.65070 0.73880 -0.22800
O 	O 	0.99670 0.59210 0.82820 -0.33900
H 	H 	0.00700 0.57200 0.82000 0.24000
O 	O 	0.98250 0.58050 0.49850 -1.02600
H 	H 	0.97700 0.56130 0.48400 0.40300
H 	H 	0.00670 0.61200 0.54550 0.31700
H 	H 	0.99220 0.57990 0.51780 0.90100
C 	C 	0.96470 0.61820 0.83740 0.04700
H 	H 	0.97040 0.63280 0.86140 0.00500
H 	H 	0.94060 0.60320 0.84130 0.02900
O 	O 	0.97180 0.62970 0.50420 -0.19300
H 	H 	0.98600 0.64980 0.50700 0.04400
C 	C 	0.42530 0.01880 0.28280 -0.04700
C 	C 	0.39480 0.05120 0.22120 -0.02200
C 	C 	0.45520 0.10630 0.09980 -0.16700
H 	H 	0.47690 0.12170 0.10660 0.06400
C 	C 	0.45310 0.09180 0.06160 0.33400
C 	C 	0.42260 0.06840 0.05230 -0.28300
H 	H 	0.42040 0.05740 0.02720 0.15700
C 	C 	0.39460 0.06120 0.08040 0.06800
H 	H 	0.37310 0.04510 0.07460 0.01000
C 	C 	0.39820 0.07750 0.11680 -0.05100
H 	H 	0.37850 0.07290 0.13550 0.03000
C 	C 	0.44940 0.12810 0.26990 0.02200
H 	H 	0.44780 0.10060 0.26810 0.02300
C 	C 	0.46030 0.14540 0.30400 -0.02400
C 	C 	0.46130 0.18500 0.30780 -0.00100
H 	H 	0.46850 0.19670 0.33170 0.03100
C 	C 	0.45210 0.20610 0.27790 -0.09800
H 	H 	0.45290 0.23350 0.27990 0.07000
C 	C 	0.44140 0.18930 0.24370 0.05900
H 	H 	0.43400 0.20550 0.22270 -0.00800
C 	C 	0.48440 0.10250 0.03200 -0.92900
H 	H 	0.48210 0.12980 0.02730 0.41700
H 	H 	0.50980 0.09750 0.04210 -0.10200
C 	C 	0.47570 0.12590 0.33990 0.02100
H 	H 	0.49300 0.14380 0.35430 0.04600
H 	H 	0.45400 0.11840 0.35720 0.00700
N 	N 	0.45140 0.02970 0.30020 -0.10900
N 	N 	0.40750 0.07760 0.20650 -0.23800
N 	N 	0.42860 0.09970 0.12670 -0.17800
N 	N 	0.44100 0.15070 0.23880 -0.22800
O 	O 	0.49670 0.09210 0.32820 -0.34500
H 	H 	0.50700 0.07200 0.32000 0.24500
O 	O 	0.48250 0.08050 0.99850 -1.01200
H 	H 	0.47700 0.06130 0.98400 0.39700
H 	H 	0.50670 0.11200 0.04550 0.31600
H 	H 	0.49220 0.07990 0.01780 0.89300
C 	C 	0.46470 0.11820 0.33740 0.04900
H 	H 	0.47040 0.13280 0.36140 0.00500
H 	H 	0.44060 0.10320 0.34130 0.02900
O 	O 	0.47180 0.12970 0.00420 -0.19700
H 	H 	0.48600 0.14980 0.00700 0.04200
C 	C 	0.71720 0.07470 0.01880 -0.04700
C 	C 	0.77880 0.10520 0.05120 -0.02200
C 	C 	0.90020 0.04480 0.10630 -0.17500
H 	H 	0.89340 0.02310 0.12170 0.06600
C 	C 	0.93840 0.04690 0.09180 0.34700
C 	C 	0.94770 0.07740 0.06840 -0.29300
H 	H 	0.97280 0.07960 0.05740 0.16300
C 	C 	0.91960 0.10540 0.06120 0.07400
H 	H 	0.92540 0.12690 0.04510 0.00800
C 	C 	0.88320 0.10180 0.07750 -0.05500
H 	H 	0.86450 0.12150 0.07290 0.03100
C 	C 	0.73010 0.05060 0.12810 0.02200
H 	H 	0.73190 0.05220 0.10060 0.02300
C 	C 	0.69600 0.03970 0.14540 -0.02600
C 	C 	0.69220 0.03870 0.18500 -0.00000
H 	H 	0.66830 0.03150 0.19670 0.03000
C 	C 	0.72210 0.04790 0.20610 -0.09800
H 	H 	0.72010 0.04710 0.23350 0.07000
C 	C 	0.75630 0.05860 0.18930 0.05900
H 	H 	0.77730 0.06600 0.20550 -0.00800
C 	C 	0.96800 0.01560 0.10250 -0.96500
H 	H 	0.97270 0.01790 0.12980 0.42500
H 	H 	0.95790 0.99020 0.09750 -0.10500
C 	C 	0.66010 0.02430 0.12590 0.02200
H 	H 	0.64570 0.00700 0.14380 0.04500
H 	H 	0.64280 0.04600 0.11840 0.00600
N 	N 	0.69980 0.04860 0.02970 -0.10900
N 	N 	0.79350 0.09250 0.07760 -0.23800
N 	N 	0.87330 0.07140 0.09970 -0.17600
N 	N 	0.76120 0.05900 0.15070 -0.22900
O 	O 	0.67180 0.00330 0.09210 -0.35100
H 	H 	0.68000 0.99300 0.07200 0.25000
O 	O 	0.00150 0.01750 0.08050 -1.04500
H 	H 	0.01600 0.02300 0.06130 0.40600
H 	H 	0.95450 0.99330 0.11200 0.33200
H 	H 	0.98220 0.00780 0.07990 0.92500
C 	C 	0.66260 0.03530 0.11820 0.05000
H 	H 	0.63860 0.02960 0.13280 0.00400
H 	H 	0.65870 0.05940 0.10320 0.02900
O 	O 	0.99580 0.02820 0.12970 -0.18500
H 	H 	0.99300 0.01400 0.14980 0.03700
C 	C 	0.21720 0.57470 0.51880 -0.04600
C 	C 	0.27880 0.60520 0.55120 -0.02200
C 	C 	0.40020 0.54480 0.60630 -0.16900
H 	H 	0.39340 0.52310 0.62170 0.06500
C 	C 	0.43840 0.54690 0.59180 0.33800
C 	C 	0.44770 0.57740 0.56840 -0.28600
H 	H 	0.47280 0.57960 0.55740 0.15900
C 	C 	0.41960 0.60540 0.56120 0.07000
H 	H 	0.42540 0.62690 0.54510 0.01000
C 	C 	0.38320 0.60180 0.57750 -0.05200
H 	H 	0.36450 0.62150 0.57290 0.03100
C 	C 	0.23010 0.55060 0.62810 0.02200
H 	H 	0.23190 0.55220 0.60060 0.02300
C 	C 	0.19600 0.53970 0.64540 -0.02400
C 	C 	0.19220 0.53870 0.68500 -0.00100
H 	H 	0.16830 0.53150 0.69670 0.03100
C 	C 	0.22210 0.54790 0.70610 -0.09800
H 	H 	0.22010 0.54710 0.73350 0.07000
C 	C 	0.25630 0.55860 0.68930 0.05900
H 	H 	0.27730 0.56600 0.70550 -0.00800
C 	C 	0.46800 0.51560 0.60250 -0.93800
H 	H 	0.47270 0.51790 0.62980 0.41900
H 	H 	0.45790 0.49020 0.59750 -0.10500
C 	C 	0.16010 0.52430 0.62590 0.02100
H 	H 	0.14570 0.50700 0.64380 0.04600
H 	H 	0.14280 0.54600 0.61840 0.00700
N 	N 	0.19980 0.54860 0.52970 -0.10800
N 	N 	0.29350 0.59250 0.57760 -0.23800
N 	N 	0.37330 0.57140 0.59970 -0.17800
N 	N 	0.26120 0.55900 0.65070 -0.22800
O 	O 	0.17180 0.50330 0.59210 -0.34500
H 	H 	0.18000 0.49300 0.57200 0.24500
O 	O 	0.50150 0.51750 0.58050 -1.02800
H 	H 	0.51600 0.52300 0.56130 0.40300
H 	H 	0.45450 0.49330 0.61200 0.32200
H 	H 	0.48220 0.50780 0.57990 0.90700
C 	C 	0.16260 0.53530 0.61820 0.04900
H 	H 	0.13860 0.52960 0.63280 0.00500
H 	H 	0.15870 0.55940 0.60320 0.02900
O 	O 	0.49580 0.52820 0.62970 -0.19200
H 	H 	0.49300 0.51400 0.64980 0.04100
C 	C 	0.28280 0.57470 0.48120 -0.04600
C 	C 	0.22120 0.60520 0.44880 -0.02200
C 	C 	0.09980 0.54480 0.39370 -0.16700
H 	H 	0.10660 0.52310 0.37830 0.06400
C 	C 	0.06160 0.54690 0.40820 0.33400
C 	C 	0.05230 0.57740 0.43160 -0.28300
H 	H 	0.02720 0.57960 0.44260 0.15700
C 	C 	0.08040 0.60540 0.43880 0.06800
H 	H 	0.07460 0.62690 0.45490 0.01100
C 	C 	0.11680 0.60180 0.42250 -0.05100
H 	H 	0.13550 0.62150 0.42710 0.03000
C 	C 	0.26990 0.55060 0.37190 0.02200
H 	H 	0.26810 0.55220 0.39940 0.02300
C 	C 	0.30400 0.53970 0.35460 -0.02400
C 	C 	0.30780 0.53870 0.31500 -0.00100
H 	H 	0.33170 0.53150 0.30330 0.03100
C 	C 	0.27790 0.54790 0.29390 -0.09800
H 	H 	0.27990 0.54710 0.26650 0.07000
C 	C 	0.24370 0.55860 0.31070 0.05900
H 	H 	0.22270 0.56600 0.29450 -0.00800
C 	C 	0.03200 0.51560 0.39750 -0.92900
H 	H 	0.02730 0.51790 0.37020 0.41800
H 	H 	0.04210 0.49020 0.40250 -0.10100
C 	C 	0.33990 0.52430 0.37410 0.02100
H 	H 	0.35430 0.50700 0.35620 0.04600
H 	H 	0.35720 0.54600 0.38160 0.00700
N 	N 	0.30020 0.54860 0.47030 -0.10800
N 	N 	0.20650 0.59250 0.42240 -0.23800
N 	N 	0.12670 0.57140 0.40030 -0.17800
N 	N 	0.23880 0.55900 0.34930 -0.22800
O 	O 	0.32820 0.50330 0.40790 -0.34500
H 	H 	0.32000 0.49300 0.42800 0.24500
O 	O 	0.99850 0.51750 0.41950 -1.01200
H 	H 	0.98400 0.52300 0.43870 0.39800
H 	H 	0.04550 0.49330 0.38800 0.31600
H 	H 	0.01780 0.50780 0.42010 0.89300
C 	C 	0.33740 0.53530 0.38180 0.04900
H 	H 	0.36140 0.52960 0.36720 0.00500
H 	H 	0.34130 0.55940 0.39680 0.02900
O 	O 	0.00420 0.52820 0.37030 -0.19600
H 	H 	0.00700 0.51400 0.35020 0.04200
C 	C 	0.78280 0.07470 0.98120 -0.04300
C 	C 	0.72120 0.10520 0.94880 -0.01900
C 	C 	0.59980 0.04480 0.89370 -0.17300
H 	H 	0.60660 0.02310 0.87830 0.06500
C 	C 	0.56160 0.04690 0.90820 0.34300
C 	C 	0.55230 0.07740 0.93160 -0.29000
H 	H 	0.52720 0.07960 0.94260 0.16100
C 	C 	0.58040 0.10540 0.93880 0.07200
H 	H 	0.57460 0.12690 0.95490 0.01000
C 	C 	0.61680 0.10180 0.92250 -0.05300
H 	H 	0.63550 0.12150 0.92710 0.03100
C 	C 	0.76990 0.05060 0.87190 0.02200
H 	H 	0.76810 0.05220 0.89940 0.02300
C 	C 	0.80400 0.03970 0.85460 -0.02600
C 	C 	0.80780 0.03870 0.81500 -0.00000
H 	H 	0.83170 0.03150 0.80330 0.03000
C 	C 	0.77790 0.04790 0.79390 -0.09800
H 	H 	0.77990 0.04710 0.76650 0.07000
C 	C 	0.74370 0.05860 0.81070 0.05900
H 	H 	0.72270 0.06600 0.79450 -0.00800
C 	C 	0.53200 0.01560 0.89750 -0.95600
H 	H 	0.52730 0.01790 0.87020 0.42400
H 	H 	0.54210 0.99020 0.90250 -0.10200
C 	C 	0.83990 0.02430 0.87410 0.02200
H 	H 	0.85430 0.00700 0.85620 0.04500
H 	H 	0.85720 0.04600 0.88160 0.00600
N 	N 	0.80020 0.04860 0.97030 -0.10900
N 	N 	0.70650 0.09250 0.92240 -0.23800
N 	N 	0.62670 0.07140 0.90030 -0.17700
N 	N 	0.73880 0.05900 0.84930 -0.22900
O 	O 	0.82820 0.00330 0.90790 -0.35100
H 	H 	0.82000 0.99300 0.92800 0.25100
O 	O 	0.49850 0.01750 0.91950 -1.03000
H 	H 	0.48400 0.02300 0.93870 0.40300
H 	H 	0.54550 0.99330 0.88800 0.32700
H 	H 	0.51780 0.00780 0.92010 0.91200
C 	C 	0.83740 0.03530 0.88180 0.05000
H 	H 	0.86140 0.02960 0.86720 0.00400
H 	H 	0.84130 0.05940 0.89680 0.02900
O 	O 	0.50420 0.02820 0.87030 -0.19000
H 	H 	0.50700 0.01400 0.85020 0.03800
C 	C 	0.21720 0.42530 0.98120 -0.04300
C 	C 	0.27880 0.39480 0.94880 -0.01900
C 	C 	0.40020 0.45520 0.89370 -0.16900
H 	H 	0.39340 0.47690 0.87830 0.06500
C 	C 	0.43840 0.45310 0.90820 0.33800
C 	C 	0.44770 0.42260 0.93160 -0.28600
H 	H 	0.47280 0.42040 0.94260 0.16000
C 	C 	0.41960 0.39460 0.93880 0.06900
H 	H 	0.42540 0.37310 0.95490 0.01100
C 	C 	0.38320 0.39820 0.92250 -0.05200
H 	H 	0.36450 0.37850 0.92710 0.03100
C 	C 	0.23010 0.44940 0.87190 0.02200
H 	H 	0.23190 0.44780 0.89940 0.02300
C 	C 	0.19600 0.46030 0.85460 -0.02400
C 	C 	0.19220 0.46130 0.81500 -0.00100
H 	H 	0.16830 0.46850 0.80330 0.03100
C 	C 	0.22210 0.45210 0.79390 -0.09800
H 	H 	0.22010 0.45290 0.76650 0.07000
C 	C 	0.25630 0.44140 0.81070 0.05900
H 	H 	0.27730 0.43400 0.79450 -0.00800
C 	C 	0.46800 0.48440 0.89750 -0.93900
H 	H 	0.47270 0.48210 0.87020 0.41900
H 	H 	0.45790 0.50980 0.90250 -0.10500
C 	C 	0.16010 0.47570 0.87410 0.02100
H 	H 	0.14570 0.49300 0.85620 0.04600
H 	H 	0.14280 0.45400 0.88160 0.00700
N 	N 	0.19980 0.45140 0.97030 -0.10800
N 	N 	0.29350 0.40750 0.92240 -0.23800
N 	N 	0.37330 0.42860 0.90030 -0.17800
N 	N 	0.26120 0.44100 0.84930 -0.22800
O 	O 	0.17180 0.49670 0.90790 -0.34500
H 	H 	0.18000 0.50700 0.92800 0.24600
O 	O 	0.50150 0.48250 0.91950 -1.02800
H 	H 	0.51600 0.47700 0.93870 0.40300
H 	H 	0.45450 0.50670 0.88800 0.32200
H 	H 	0.48220 0.49220 0.92010 0.90700
C 	C 	0.16260 0.46470 0.88180 0.04900
H 	H 	0.13860 0.47040 0.86720 0.00500
H 	H 	0.15870 0.44060 0.89680 0.02900
O 	O 	0.49580 0.47180 0.87030 -0.19200
H 	H 	0.49300 0.48600 0.85020 0.04100
C 	C 	0.71720 0.92530 0.48120 -0.04600
C 	C 	0.77880 0.89480 0.44880 -0.02200
C 	C 	0.90020 0.95520 0.39370 -0.16800
H 	H 	0.89340 0.97690 0.37830 0.06500
C 	C 	0.93840 0.95310 0.40820 0.33600
C 	C 	0.94770 0.92260 0.43160 -0.28500
H 	H 	0.97280 0.92040 0.44260 0.16000
C 	C 	0.91960 0.89460 0.43880 0.06900
H 	H 	0.92540 0.87310 0.45490 0.01100
C 	C 	0.88320 0.89820 0.42250 -0.05200
H 	H 	0.86450 0.87850 0.42710 0.03000
C 	C 	0.73010 0.94940 0.37190 0.02100
H 	H 	0.73190 0.94780 0.39940 0.02400
C 	C 	0.69600 0.96030 0.35460 -0.02300
C 	C 	0.69220 0.96130 0.31500 -0.00200
H 	H 	0.66830 0.96850 0.30330 0.03200
C 	C 	0.72210 0.95210 0.29390 -0.09700
H 	H 	0.72010 0.95290 0.26650 0.07000
C 	C 	0.75630 0.94140 0.31070 0.05900
H 	H 	0.77730 0.93400 0.29450 -0.00800
C 	C 	0.96800 0.98440 0.39750 -0.93000
H 	H 	0.97270 0.98210 0.37020 0.41600
H 	H 	0.95790 0.00980 0.40250 -0.11100
C 	C 	0.66010 0.97570 0.37410 0.01900
H 	H 	0.64570 0.99300 0.35620 0.04700
H 	H 	0.64280 0.95400 0.38160 0.00800
N 	N 	0.69980 0.95140 0.47030 -0.10800
N 	N 	0.79350 0.90750 0.42240 -0.23800
N 	N 	0.87330 0.92860 0.40030 -0.17800
N 	N 	0.76120 0.94100 0.34930 -0.22800
O 	O 	0.67180 0.99670 0.40790 -0.33900
H 	H 	0.68000 0.00700 0.42800 0.24000
O 	O 	0.00150 0.98250 0.41950 -1.04200
H 	H 	0.01600 0.97700 0.43870 0.40800
H 	H 	0.95450 0.00670 0.38800 0.32200
H 	H 	0.98220 0.99220 0.42010 0.91500
C 	C 	0.66260 0.96470 0.38180 0.04700
H 	H 	0.63860 0.97040 0.36720 0.00500
H 	H 	0.65870 0.94060 0.39680 0.02900
O 	O 	0.99580 0.97180 0.37030 -0.18900
H 	H 	0.99300 0.98600 0.35020 0.04300
C 	C 	0.78280 0.92530 0.51880 -0.04600
C 	C 	0.72120 0.89480 0.55120 -0.02200
C 	C 	0.59980 0.95520 0.60630 -0.16600
H 	H 	0.60660 0.97690 0.62170 0.06500
C 	C 	0.56160 0.95310 0.59180 0.33200
C 	C 	0.55230 0.92260 0.56840 -0.28200
H 	H 	0.52720 0.92040 0.55740 0.15800
C 	C 	0.58040 0.89460 0.56120 0.06700
H 	H 	0.57460 0.87310 0.54510 0.01100
C 	C 	0.61680 0.89820 0.57750 -0.05100
H 	H 	0.63550 0.87850 0.57290 0.03000
C 	C 	0.76990 0.94940 0.62810 0.02100
H 	H 	0.76810 0.94780 0.60060 0.02400
C 	C 	0.80400 0.96030 0.64540 -0.02300
C 	C 	0.80780 0.96130 0.68500 -0.00200
H 	H 	0.83170 0.96850 0.69670 0.03200
C 	C 	0.77790 0.95210 0.70610 -0.09700
H 	H 	0.77990 0.95290 0.73350 0.07100
C 	C 	0.74370 0.94140 0.68930 0.05900
H 	H 	0.72270 0.93400 0.70550 -0.00800
C 	C 	0.53200 0.98440 0.60250 -0.92000
H 	H 	0.52730 0.98210 0.62980 0.41400
H 	H 	0.54210 0.00980 0.59750 -0.10800
C 	C 	0.83990 0.97570 0.62590 0.01900
H 	H 	0.85430 0.99300 0.64380 0.04700
H 	H 	0.85720 0.95400 0.61840 0.00800
N 	N 	0.80020 0.95140 0.52970 -0.10800
N 	N 	0.70650 0.90750 0.57760 -0.23800
N 	N 	0.62670 0.92860 0.59970 -0.17900
N 	N 	0.73880 0.94100 0.65070 -0.22800
O 	O 	0.82820 0.99670 0.59210 -0.33900
H 	H 	0.82000 0.00700 0.57200 0.24000
O 	O 	0.49850 0.98250 0.58050 -1.02600
H 	H 	0.48400 0.97700 0.56130 0.40300
H 	H 	0.54550 0.00670 0.61200 0.31700
H 	H 	0.51780 0.99220 0.57990 0.90100
C 	C 	0.83740 0.96470 0.61820 0.04700
H 	H 	0.86140 0.97040 0.63280 0.00500
H 	H 	0.84130 0.94060 0.60320 0.02900
O 	O 	0.50420 0.97180 0.62970 -0.19300
H 	H 	0.50700 0.98600 0.64980 0.04400
C 	C 	0.28280 0.42530 0.01880 -0.04700
C 	C 	0.22120 0.39480 0.05120 -0.02200
C 	C 	0.09980 0.45520 0.10630 -0.16700
H 	H 	0.10660 0.47690 0.12170 0.06400
C 	C 	0.06160 0.45310 0.09180 0.33400
C 	C 	0.05230 0.42260 0.06840 -0.28300
H 	H 	0.02720 0.42040 0.05740 0.15700
C 	C 	0.08040 0.39460 0.06120 0.06800
H 	H 	0.07460 0.37310 0.04510 0.01000
C 	C 	0.11680 0.39820 0.07750 -0.05100
H 	H 	0.13550 0.37850 0.07290 0.03000
C 	C 	0.26990 0.44940 0.12810 0.02200
H 	H 	0.26810 0.44780 0.10060 0.02300
C 	C 	0.30400 0.46030 0.14540 -0.02400
C 	C 	0.30780 0.46130 0.18500 -0.00100
H 	H 	0.33170 0.46850 0.19670 0.03100
C 	C 	0.27790 0.45210 0.20610 -0.09800
H 	H 	0.27990 0.45290 0.23350 0.07000
C 	C 	0.24370 0.44140 0.18930 0.05900
H 	H 	0.22270 0.43400 0.20550 -0.00800
C 	C 	0.03200 0.48440 0.10250 -0.92900
H 	H 	0.02730 0.48210 0.12980 0.41700
H 	H 	0.04210 0.50980 0.09750 -0.10200
C 	C 	0.33990 0.47570 0.12590 0.02100
H 	H 	0.35430 0.49300 0.14380 0.04600
H 	H 	0.35720 0.45400 0.11840 0.00700
N 	N 	0.30020 0.45140 0.02970 -0.10900
N 	N 	0.20650 0.40750 0.07760 -0.23800
N 	N 	0.12670 0.42860 0.09970 -0.17800
N 	N 	0.23880 0.44100 0.15070 -0.22800
O 	O 	0.32820 0.49670 0.09210 -0.34500
H 	H 	0.32000 0.50700 0.07200 0.24500
O 	O 	0.99850 0.48250 0.08050 -1.01200
H 	H 	0.98400 0.47700 0.06130 0.39700
H 	H 	0.04550 0.50670 0.11200 0.31600
H 	H 	0.01780 0.49220 0.07990 0.89300
C 	C 	0.33740 0.46470 0.11820 0.04900
H 	H 	0.36140 0.47040 0.13280 0.00500
H 	H 	0.34130 0.44060 0.10320 0.02900
O 	O 	0.00420 0.47180 0.12970 -0.19700
H 	H 	0.00700 0.48600 0.14980 0.04200
C 	C 	0.46720 0.26880 0.17530 -0.04600
C 	C 	0.52880 0.30120 0.14480 -0.02200
C 	C 	0.65020 0.35630 0.20520 -0.16900
H 	H 	0.64340 0.37170 0.22690 0.06500
C 	C 	0.68840 0.34180 0.20310 0.33800
C 	C 	0.69770 0.31840 0.17260 -0.28600
H 	H 	0.72280 0.30740 0.17040 0.15900
C 	C 	0.66960 0.31120 0.14460 0.07000
H 	H 	0.67540 0.29510 0.12310 0.01000
C 	C 	0.63320 0.32750 0.14820 -0.05200
H 	H 	0.61450 0.32290 0.12850 0.03100
C 	C 	0.48010 0.37810 0.19940 0.02200
H 	H 	0.48190 0.35060 0.19780 0.02300
C 	C 	0.44600 0.39540 0.21030 -0.02400
C 	C 	0.44220 0.43500 0.21130 -0.00100
H 	H 	0.41830 0.44670 0.21850 0.03100
C 	C 	0.47210 0.45610 0.20210 -0.09800
H 	H 	0.47010 0.48350 0.20290 0.07000
C 	C 	0.50630 0.43930 0.19140 0.05900
H 	H 	0.52730 0.45550 0.18400 -0.00800
C 	C 	0.71800 0.35250 0.23440 -0.93800
H 	H 	0.72270 0.37980 0.23210 0.41900
H 	H 	0.70790 0.34750 0.25980 -0.10500
C 	C 	0.41010 0.37590 0.22570 0.02100
H 	H 	0.39570 0.39380 0.24300 0.04600
H 	H 	0.39280 0.36840 0.20400 0.00700
N 	N 	0.44980 0.27970 0.20140 -0.10800
N 	N 	0.54350 0.32760 0.15750 -0.23800
N 	N 	0.62330 0.34970 0.17860 -0.17800
N 	N 	0.51120 0.40070 0.19100 -0.22800
O 	O 	0.42180 0.34210 0.24670 -0.34500
H 	H 	0.43000 0.32200 0.25700 0.24500
O 	O 	0.75150 0.33050 0.23250 -1.02800
H 	H 	0.76600 0.31130 0.22700 0.40300
H 	H 	0.70450 0.36200 0.25670 0.32200
H 	H 	0.73220 0.32990 0.24220 0.90700
C 	C 	0.41260 0.36820 0.21470 0.04900
H 	H 	0.38860 0.38280 0.22040 0.00500
H 	H 	0.40870 0.35320 0.19060 0.02900
O 	O 	0.74580 0.37970 0.22180 -0.19200
H 	H 	0.74300 0.39980 0.23600 0.04100
C 	C 	0.96720 0.76880 0.67530 -0.04300
C 	C 	0.02880 0.80120 0.64480 -0.02200
C 	C 	0.15020 0.85630 0.70520 -0.16900
H 	H 	0.14340 0.87170 0.72690 0.06500
C 	C 	0.18840 0.84180 0.70310 0.33700
C 	C 	0.19770 0.81840 0.67260 -0.28600
H 	H 	0.22280 0.80740 0.67040 0.15900
C 	C 	0.16960 0.81120 0.64460 0.07000
H 	H 	0.17540 0.79510 0.62310 0.01000
C 	C 	0.13320 0.82750 0.64820 -0.05200
H 	H 	0.11450 0.82290 0.62850 0.03100
C 	C 	0.98010 0.87810 0.69940 0.02400
H 	H 	0.98190 0.85060 0.69780 0.02400
C 	C 	0.94600 0.89540 0.71030 -0.02300
C 	C 	0.94220 0.93500 0.71130 -0.00500
H 	H 	0.91830 0.94670 0.71850 0.03300
C 	C 	0.97210 0.95610 0.70210 -0.08800
H 	H 	0.97010 0.98350 0.70290 0.06900
C 	C 	0.00630 0.93930 0.69140 0.05200
H 	H 	0.02730 0.95550 0.68400 -0.00500
C 	C 	0.21800 0.85250 0.73440 -0.93800
H 	H 	0.22270 0.87980 0.73210 0.41900
H 	H 	0.20790 0.84750 0.75980 -0.10500
C 	C 	0.91010 0.87590 0.72570 0.02000
H 	H 	0.89570 0.89380 0.74300 0.04600
H 	H 	0.89280 0.86840 0.70400 0.00700
N 	N 	0.94980 0.77970 0.70140 -0.10800
N 	N 	0.04350 0.82760 0.65750 -0.23800
N 	N 	0.12330 0.84970 0.67860 -0.17800
N 	N 	0.01120 0.90070 0.69100 -0.22900
O 	O 	0.92180 0.84210 0.74670 -0.34400
H 	H 	0.93000 0.82200 0.75700 0.24600
O 	O 	0.25150 0.83050 0.73250 -1.02800
H 	H 	0.26600 0.81130 0.72700 0.40300
H 	H 	0.20450 0.86200 0.75670 0.32200
H 	H 	0.23220 0.82990 0.74220 0.90600
C 	C 	0.91260 0.86820 0.71470 0.04800
H 	H 	0.88860 0.88280 0.72040 0.00500
H 	H 	0.90870 0.85320 0.69060 0.02900
O 	O 	0.24580 0.87970 0.72180 -0.19200
H 	H 	0.24300 0.89980 0.73600 0.04100
C 	C 	0.03280 0.73120 0.67530 -0.04600
C 	C 	0.97120 0.69880 0.64480 -0.01900
C 	C 	0.84980 0.64370 0.70520 -0.16900
H 	H 	0.85660 0.62830 0.72690 0.06500
C 	C 	0.81160 0.65820 0.70310 0.33700
C 	C 	0.80230 0.68160 0.67260 -0.28600
H 	H 	0.77720 0.69260 0.67040 0.15900
C 	C 	0.83040 0.68880 0.64460 0.07000
H 	H 	0.82460 0.70490 0.62310 0.01000
C 	C 	0.86680 0.67250 0.64820 -0.05200
H 	H 	0.88550 0.67710 0.62850 0.03100
C 	C 	0.01990 0.62190 0.69940 0.01900
H 	H 	0.01810 0.64940 0.69780 0.02300
C 	C 	0.05400 0.60460 0.71030 -0.02600
C 	C 	0.05780 0.56500 0.71130 0.00400
H 	H 	0.08170 0.55330 0.71850 0.03000
C 	C 	0.02790 0.54390 0.70210 -0.10700
H 	H 	0.02990 0.51650 0.70290 0.07200
C 	C 	0.99370 0.56070 0.69140 0.06700
H 	H 	0.97270 0.54450 0.68400 -0.01000
C 	C 	0.78200 0.64750 0.73440 -0.93800
H 	H 	0.77730 0.62020 0.73210 0.41900
H 	H 	0.79210 0.65250 0.75980 -0.10500
C 	C 	0.08990 0.62410 0.72570 0.02100
H 	H 	0.10430 0.60620 0.74300 0.04600
H 	H 	0.10720 0.63160 0.70400 0.00700
N 	N 	0.05020 0.72030 0.70140 -0.10800
N 	N 	0.95650 0.67240 0.65750 -0.23800
N 	N 	0.87670 0.65030 0.67860 -0.17800
N 	N 	0.98880 0.59930 0.69100 -0.22800
O 	O 	0.07820 0.65790 0.74670 -0.34500
H 	H 	0.07000 0.67800 0.75700 0.24500
O 	O 	0.74850 0.66950 0.73250 -1.02800
H 	H 	0.73400 0.68870 0.72700 0.40300
H 	H 	0.79550 0.63800 0.75670 0.32200
H 	H 	0.76780 0.67010 0.74220 0.90700
C 	C 	0.08740 0.63180 0.71470 0.04900
H 	H 	0.11140 0.61720 0.72040 0.00400
H 	H 	0.09130 0.64680 0.69060 0.02900
O 	O 	0.75420 0.62030 0.72180 -0.19200
H 	H 	0.75700 0.60020 0.73600 0.04100
C 	C 	0.53280 0.23120 0.17530 -0.04600
C 	C 	0.47120 0.19880 0.14480 -0.02200
C 	C 	0.34980 0.14370 0.20520 -0.16900
H 	H 	0.35660 0.12830 0.22690 0.06500
C 	C 	0.31160 0.15820 0.20310 0.33800
C 	C 	0.30230 0.18160 0.17260 -0.28600
H 	H 	0.27720 0.19260 0.17040 0.15900
C 	C 	0.33040 0.18880 0.14460 0.07000
H 	H 	0.32460 0.20490 0.12310 0.01000
C 	C 	0.36680 0.17250 0.14820 -0.05200
H 	H 	0.38550 0.17710 0.12850 0.03100
C 	C 	0.51990 0.12190 0.19940 0.02200
H 	H 	0.51810 0.14940 0.19780 0.02300
C 	C 	0.55400 0.10460 0.21030 -0.02400
C 	C 	0.55780 0.06500 0.21130 -0.00100
H 	H 	0.58170 0.05330 0.21850 0.03100
C 	C 	0.52790 0.04390 0.20210 -0.09800
H 	H 	0.52990 0.01650 0.20290 0.06900
C 	C 	0.49370 0.06070 0.19140 0.05900
H 	H 	0.47270 0.04450 0.18400 -0.00900
C 	C 	0.28200 0.14750 0.23440 -0.93900
H 	H 	0.27730 0.12020 0.23210 0.41900
H 	H 	0.29210 0.15250 0.25980 -0.10500
C 	C 	0.58990 0.12410 0.22570 0.02100
H 	H 	0.60430 0.10620 0.24300 0.04600
H 	H 	0.60720 0.13160 0.20400 0.00700
N 	N 	0.55020 0.22030 0.20140 -0.10800
N 	N 	0.45650 0.17240 0.15750 -0.23800
N 	N 	0.37670 0.15030 0.17860 -0.17800
N 	N 	0.48880 0.09930 0.19100 -0.22800
O 	O 	0.57820 0.15790 0.24670 -0.34500
H 	H 	0.57000 0.17800 0.25700 0.24500
O 	O 	0.24850 0.16950 0.23250 -1.02800
H 	H 	0.23400 0.18870 0.22700 0.40300
H 	H 	0.29550 0.13800 0.25670 0.32200
H 	H 	0.26780 0.17010 0.24220 0.90700
C 	C 	0.58740 0.13180 0.21470 0.04900
H 	H 	0.61140 0.11720 0.22040 0.00500
H 	H 	0.59130 0.14680 0.19060 0.02900
O 	O 	0.25420 0.12030 0.22180 -0.19200
H 	H 	0.25700 0.10020 0.23600 0.04100
C 	C 	0.96720 0.23120 0.82470 -0.04300
C 	C 	0.02880 0.19880 0.85520 -0.02200
C 	C 	0.15020 0.14370 0.79480 -0.16900
H 	H 	0.14340 0.12830 0.77310 0.06500
C 	C 	0.18840 0.15820 0.79690 0.33800
C 	C 	0.19770 0.18160 0.82740 -0.28600
H 	H 	0.22280 0.19260 0.82960 0.15900
C 	C 	0.16960 0.18880 0.85540 0.07000
H 	H 	0.17540 0.20490 0.87690 0.01000
C 	C 	0.13320 0.17250 0.85180 -0.05200
H 	H 	0.11450 0.17710 0.87150 0.03100
C 	C 	0.98010 0.12190 0.80060 0.02400
H 	H 	0.98190 0.14940 0.80220 0.02400
C 	C 	0.94600 0.10460 0.78970 -0.02300
C 	C 	0.94220 0.06500 0.78870 -0.00600
H 	H 	0.91830 0.05330 0.78150 0.03300
C 	C 	0.97210 0.04390 0.79790 -0.08900
H 	H 	0.97010 0.01650 0.79710 0.06700
C 	C 	0.00630 0.06070 0.80860 0.05100
H 	H 	0.02730 0.04450 0.81600 -0.00600
C 	C 	0.21800 0.14750 0.76560 -0.93800
H 	H 	0.22270 0.12020 0.76790 0.41900
H 	H 	0.20790 0.15250 0.74020 -0.10500
C 	C 	0.91010 0.12410 0.77430 0.02000
H 	H 	0.89570 0.10620 0.75700 0.04600
H 	H 	0.89280 0.13160 0.79600 0.00700
N 	N 	0.94980 0.22030 0.79860 -0.10800
N 	N 	0.04350 0.17240 0.84250 -0.23800
N 	N 	0.12330 0.15030 0.82140 -0.17800
N 	N 	0.01120 0.09930 0.80900 -0.22900
O 	O 	0.92180 0.15790 0.75330 -0.34500
H 	H 	0.93000 0.17800 0.74300 0.24600
O 	O 	0.25150 0.16950 0.76750 -1.02800
H 	H 	0.26600 0.18870 0.77300 0.40300
H 	H 	0.20450 0.13800 0.74330 0.32200
H 	H 	0.23220 0.17010 0.75780 0.90700
C 	C 	0.91260 0.13180 0.78530 0.04900
H 	H 	0.88860 0.11720 0.77960 0.00500
H 	H 	0.90870 0.14680 0.80940 0.02900
O 	O 	0.24580 0.12030 0.77820 -0.19200
H 	H 	0.24300 0.10020 0.76400 0.04100
C 	C 	0.46720 0.73120 0.32470 -0.04600
C 	C 	0.52880 0.69880 0.35520 -0.02200
C 	C 	0.65020 0.64370 0.29480 -0.16900
H 	H 	0.64340 0.62830 0.27310 0.06500
C 	C 	0.68840 0.65820 0.29690 0.33800
C 	C 	0.69770 0.68160 0.32740 -0.28600
H 	H 	0.72280 0.69260 0.32960 0.15900
C 	C 	0.66960 0.68880 0.35540 0.07000
H 	H 	0.67540 0.70490 0.37690 0.01000
C 	C 	0.63320 0.67250 0.35180 -0.05200
H 	H 	0.61450 0.67710 0.37150 0.03100
C 	C 	0.48010 0.62190 0.30060 0.02200
H 	H 	0.48190 0.64940 0.30220 0.02300
C 	C 	0.44600 0.60460 0.28970 -0.02400
C 	C 	0.44220 0.56500 0.28870 -0.00100
H 	H 	0.41830 0.55330 0.28150 0.03100
C 	C 	0.47210 0.54390 0.29790 -0.09800
H 	H 	0.47010 0.51650 0.29710 0.07000
C 	C 	0.50630 0.56070 0.30860 0.05900
H 	H 	0.52730 0.54450 0.31600 -0.00800
C 	C 	0.71800 0.64750 0.26560 -0.93800
H 	H 	0.72270 0.62020 0.26790 0.41900
H 	H 	0.70790 0.65250 0.24020 -0.10500
C 	C 	0.41010 0.62410 0.27430 0.02100
H 	H 	0.39570 0.60620 0.25700 0.04600
H 	H 	0.39280 0.63160 0.29600 0.00700
N 	N 	0.44980 0.72030 0.29860 -0.10800
N 	N 	0.54350 0.67240 0.34250 -0.23800
N 	N 	0.62330 0.65030 0.32140 -0.17800
N 	N 	0.51120 0.59930 0.30900 -0.22800
O 	O 	0.42180 0.65790 0.25330 -0.34500
H 	H 	0.43000 0.67800 0.24300 0.24500
O 	O 	0.75150 0.66950 0.26750 -1.02800
H 	H 	0.76600 0.68870 0.27300 0.40300
H 	H 	0.70450 0.63800 0.24330 0.32200
H 	H 	0.73220 0.67010 0.25780 0.90700
C 	C 	0.41260 0.63180 0.28530 0.04900
H 	H 	0.38860 0.61720 0.27960 0.00500
H 	H 	0.40870 0.64680 0.30940 0.02900
O 	O 	0.74580 0.62030 0.27820 -0.19200
H 	H 	0.74300 0.60020 0.26400 0.04100
C 	C 	0.53280 0.76880 0.32470 -0.04600
C 	C 	0.47120 0.80120 0.35520 -0.02200
C 	C 	0.34980 0.85630 0.29480 -0.16900
H 	H 	0.35660 0.87170 0.27310 0.06500
C 	C 	0.31160 0.84180 0.29690 0.33700
C 	C 	0.30230 0.81840 0.32740 -0.28600
H 	H 	0.27720 0.80740 0.32960 0.15900
C 	C 	0.33040 0.81120 0.35540 0.07000
H 	H 	0.32460 0.79510 0.37690 0.01000
C 	C 	0.36680 0.82750 0.35180 -0.05200
H 	H 	0.38550 0.82290 0.37150 0.03100
C 	C 	0.51990 0.87810 0.30060 0.02200
H 	H 	0.51810 0.85060 0.30220 0.02300
C 	C 	0.55400 0.89540 0.28970 -0.02400
C 	C 	0.55780 0.93500 0.28870 -0.00100
H 	H 	0.58170 0.94670 0.28150 0.03200
C 	C 	0.52790 0.95610 0.29790 -0.09700
H 	H 	0.52990 0.98350 0.29710 0.07100
C 	C 	0.49370 0.93930 0.30860 0.06000
H 	H 	0.47270 0.95550 0.31600 -0.00700
C 	C 	0.28200 0.85250 0.26560 -0.93800
H 	H 	0.27730 0.87980 0.26790 0.41900
H 	H 	0.29210 0.84750 0.24020 -0.10500
C 	C 	0.58990 0.87590 0.27430 0.02100
H 	H 	0.60430 0.89380 0.25700 0.04600
H 	H 	0.60720 0.86840 0.29600 0.00700
N 	N 	0.55020 0.77970 0.29860 -0.10800
N 	N 	0.45650 0.82760 0.34250 -0.23800
N 	N 	0.37670 0.84970 0.32140 -0.17800
N 	N 	0.48880 0.90070 0.30900 -0.22800
O 	O 	0.57820 0.84210 0.25330 -0.34500
H 	H 	0.57000 0.82200 0.24300 0.24500
O 	O 	0.24850 0.83050 0.26750 -1.02800
H 	H 	0.23400 0.81130 0.27300 0.40300
H 	H 	0.29550 0.86200 0.24330 0.32200
H 	H 	0.26780 0.82990 0.25780 0.90700
C 	C 	0.58740 0.86820 0.28530 0.04900
H 	H 	0.61140 0.88280 0.27960 0.00500
H 	H 	0.59130 0.85320 0.30940 0.02900
O 	O 	0.25420 0.87970 0.27820 -0.19200
H 	H 	0.25700 0.89980 0.26400 0.04100
C 	C 	0.03280 0.26880 0.82470 -0.04600
C 	C 	0.97120 0.30120 0.85520 -0.01900
C 	C 	0.84980 0.35630 0.79480 -0.16900
H 	H 	0.85660 0.37170 0.77310 0.06500
C 	C 	0.81160 0.34180 0.79690 0.33800
C 	C 	0.80230 0.31840 0.82740 -0.28600
H 	H 	0.77720 0.30740 0.82960 0.15900
C 	C 	0.83040 0.31120 0.85540 0.07000
H 	H 	0.82460 0.29510 0.87690 0.01000
C 	C 	0.86680 0.32750 0.85180 -0.05200
H 	H 	0.88550 0.32290 0.87150 0.03100
C 	C 	0.01990 0.37810 0.80060 0.01900
H 	H 	0.01810 0.35060 0.80220 0.02300
C 	C 	0.05400 0.39540 0.78970 -0.02600
C 	C 	0.05780 0.43500 0.78870 0.00400
H 	H 	0.08170 0.44670 0.78150 0.03000
C 	C 	0.02790 0.45610 0.79790 -0.10700
H 	H 	0.02990 0.48350 0.79710 0.07200
C 	C 	0.99370 0.43930 0.80860 0.06700
H 	H 	0.97270 0.45550 0.81600 -0.01000
C 	C 	0.78200 0.35250 0.76560 -0.93800
H 	H 	0.77730 0.37980 0.76790 0.41900
H 	H 	0.79210 0.34750 0.74020 -0.10500
C 	C 	0.08990 0.37590 0.77430 0.02100
H 	H 	0.10430 0.39380 0.75700 0.04600
H 	H 	0.10720 0.36840 0.79600 0.00700
N 	N 	0.05020 0.27970 0.79860 -0.10800
N 	N 	0.95650 0.32760 0.84250 -0.23800
N 	N 	0.87670 0.34970 0.82140 -0.17800
N 	N 	0.98880 0.40070 0.80900 -0.22800
O 	O 	0.07820 0.34210 0.75330 -0.34500
H 	H 	0.07000 0.32200 0.74300 0.24500
O 	O 	0.74850 0.33050 0.76750 -1.02800
H 	H 	0.73400 0.31130 0.77300 0.40300
H 	H 	0.79550 0.36200 0.74330 0.32200
H 	H 	0.76780 0.32990 0.75780 0.90700
C 	C 	0.08740 0.36820 0.78530 0.04900
H 	H 	0.11140 0.38280 0.77960 0.00400
H 	H 	0.09130 0.35320 0.80940 0.02900
O 	O 	0.75420 0.37970 0.77820 -0.19200
H 	H 	0.75700 0.39980 0.76400 0.04100
C 	C 	0.76880 0.32470 0.53280 -0.04600
C 	C 	0.80120 0.35520 0.47120 -0.02200
C 	C 	0.85630 0.29480 0.34980 -0.16900
H 	H 	0.87170 0.27310 0.35660 0.06500
C 	C 	0.84180 0.29690 0.31160 0.33700
C 	C 	0.81840 0.32740 0.30230 -0.28600
H 	H 	0.80740 0.32960 0.27720 0.15900
C 	C 	0.81120 0.35540 0.33040 0.07000
H 	H 	0.79510 0.37690 0.32460 0.01000
C 	C 	0.82750 0.35180 0.36680 -0.05200
H 	H 	0.82290 0.37150 0.38550 0.03100
C 	C 	0.87810 0.30060 0.51990 0.02200
H 	H 	0.85060 0.30220 0.51810 0.02300
C 	C 	0.89540 0.28970 0.55400 -0.02400
C 	C 	0.93500 0.28870 0.55780 -0.00100
H 	H 	0.94670 0.28150 0.58170 0.03200
C 	C 	0.95610 0.29790 0.52790 -0.09700
H 	H 	0.98350 0.29710 0.52990 0.07100
C 	C 	0.93930 0.30860 0.49370 0.06000
H 	H 	0.95550 0.31600 0.47270 -0.00700
C 	C 	0.85250 0.26560 0.28200 -0.93800
H 	H 	0.87980 0.26790 0.27730 0.41900
H 	H 	0.84750 0.24020 0.29210 -0.10500
C 	C 	0.87590 0.27430 0.58990 0.02100
H 	H 	0.89380 0.25700 0.60430 0.04600
H 	H 	0.86840 0.29600 0.60720 0.00700
N 	N 	0.77970 0.29860 0.55020 -0.10800
N 	N 	0.82760 0.34250 0.45650 -0.23800
N 	N 	0.84970 0.32140 0.37670 -0.17800
N 	N 	0.90070 0.30900 0.48880 -0.22800
O 	O 	0.84210 0.25330 0.57820 -0.34500
H 	H 	0.82200 0.24300 0.57000 0.24500
O 	O 	0.83050 0.26750 0.24850 -1.02800
H 	H 	0.81130 0.27300 0.23400 0.40300
H 	H 	0.86200 0.24330 0.29550 0.32200
H 	H 	0.82990 0.25780 0.26780 0.90700
C 	C 	0.86820 0.28530 0.58740 0.04900
H 	H 	0.88280 0.27960 0.61140 0.00500
H 	H 	0.85320 0.30940 0.59130 0.02900
O 	O 	0.87970 0.27820 0.25420 -0.19200
H 	H 	0.89980 0.26400 0.25700 0.04100
C 	C 	0.26880 0.82470 0.03280 -0.04600
C 	C 	0.30120 0.85520 0.97120 -0.01900
C 	C 	0.35630 0.79480 0.84980 -0.16900
H 	H 	0.37170 0.77310 0.85660 0.06500
C 	C 	0.34180 0.79690 0.81160 0.33800
C 	C 	0.31840 0.82740 0.80230 -0.28600
H 	H 	0.30740 0.82960 0.77720 0.15900
C 	C 	0.31120 0.85540 0.83040 0.07000
H 	H 	0.29510 0.87690 0.82460 0.01000
C 	C 	0.32750 0.85180 0.86680 -0.05200
H 	H 	0.32290 0.87150 0.88550 0.03100
C 	C 	0.37810 0.80060 0.01990 0.01900
H 	H 	0.35060 0.80220 0.01810 0.02300
C 	C 	0.39540 0.78970 0.05400 -0.02600
C 	C 	0.43500 0.78870 0.05780 0.00400
H 	H 	0.44670 0.78150 0.08170 0.03000
C 	C 	0.45610 0.79790 0.02790 -0.10700
H 	H 	0.48350 0.79710 0.02990 0.07200
C 	C 	0.43930 0.80860 0.99370 0.06700
H 	H 	0.45550 0.81600 0.97270 -0.01000
C 	C 	0.35250 0.76560 0.78200 -0.93800
H 	H 	0.37980 0.76790 0.77730 0.41900
H 	H 	0.34750 0.74020 0.79210 -0.10500
C 	C 	0.37590 0.77430 0.08990 0.02100
H 	H 	0.39380 0.75700 0.10430 0.04600
H 	H 	0.36840 0.79600 0.10720 0.00700
N 	N 	0.27970 0.79860 0.05020 -0.10800
N 	N 	0.32760 0.84250 0.95650 -0.23800
N 	N 	0.34970 0.82140 0.87670 -0.17800
N 	N 	0.40070 0.80900 0.98880 -0.22800
O 	O 	0.34210 0.75330 0.07820 -0.34500
H 	H 	0.32200 0.74300 0.07000 0.24500
O 	O 	0.33050 0.76750 0.74850 -1.02800
H 	H 	0.31130 0.77300 0.73400 0.40300
H 	H 	0.36200 0.74330 0.79550 0.32200
H 	H 	0.32990 0.75780 0.76780 0.90700
C 	C 	0.36820 0.78530 0.08740 0.04900
H 	H 	0.38280 0.77960 0.11140 0.00400
H 	H 	0.35320 0.80940 0.09130 0.02900
O 	O 	0.37970 0.77820 0.75420 -0.19200
H 	H 	0.39980 0.76400 0.75700 0.04100
C 	C 	0.23120 0.82470 0.96720 -0.04300
C 	C 	0.19880 0.85520 0.02880 -0.02200
C 	C 	0.14370 0.79480 0.15020 -0.16900
H 	H 	0.12830 0.77310 0.14340 0.06500
C 	C 	0.15820 0.79690 0.18840 0.33800
C 	C 	0.18160 0.82740 0.19770 -0.28600
H 	H 	0.19260 0.82960 0.22280 0.15900
C 	C 	0.18880 0.85540 0.16960 0.07000
H 	H 	0.20490 0.87690 0.17540 0.01000
C 	C 	0.17250 0.85180 0.13320 -0.05200
H 	H 	0.17710 0.87150 0.11450 0.03100
C 	C 	0.12190 0.80060 0.98010 0.02400
H 	H 	0.14940 0.80220 0.98190 0.02400
C 	C 	0.10460 0.78970 0.94600 -0.02300
C 	C 	0.06500 0.78870 0.94220 -0.00600
H 	H 	0.05330 0.78150 0.91830 0.03300
C 	C 	0.04390 0.79790 0.97210 -0.08900
H 	H 	0.01650 0.79710 0.97010 0.06700
C 	C 	0.06070 0.80860 0.00630 0.05100
H 	H 	0.04450 0.81600 0.02730 -0.00600
C 	C 	0.14750 0.76560 0.21800 -0.93800
H 	H 	0.12020 0.76790 0.22270 0.41900
H 	H 	0.15250 0.74020 0.20790 -0.10500
C 	C 	0.12410 0.77430 0.91010 0.02000
H 	H 	0.10620 0.75700 0.89570 0.04600
H 	H 	0.13160 0.79600 0.89280 0.00700
N 	N 	0.22030 0.79860 0.94980 -0.10800
N 	N 	0.17240 0.84250 0.04350 -0.23800
N 	N 	0.15030 0.82140 0.12330 -0.17800
N 	N 	0.09930 0.80900 0.01120 -0.22900
O 	O 	0.15790 0.75330 0.92180 -0.34500
H 	H 	0.17800 0.74300 0.93000 0.24600
O 	O 	0.16950 0.76750 0.25150 -1.02800
H 	H 	0.18870 0.77300 0.26600 0.40300
H 	H 	0.13800 0.74330 0.20450 0.32200
H 	H 	0.17010 0.75780 0.23220 0.90700
C 	C 	0.13180 0.78530 0.91260 0.04900
H 	H 	0.11720 0.77960 0.88860 0.00500
H 	H 	0.14680 0.80940 0.90870 0.02900
O 	O 	0.12030 0.77820 0.24580 -0.19200
H 	H 	0.10020 0.76400 0.24300 0.04100
C 	C 	0.73120 0.32470 0.46720 -0.04600
C 	C 	0.69880 0.35520 0.52880 -0.02200
C 	C 	0.64370 0.29480 0.65020 -0.16900
H 	H 	0.62830 0.27310 0.64340 0.06500
C 	C 	0.65820 0.29690 0.68840 0.33800
C 	C 	0.68160 0.32740 0.69770 -0.28600
H 	H 	0.69260 0.32960 0.72280 0.15900
C 	C 	0.68880 0.35540 0.66960 0.07000
H 	H 	0.70490 0.37690 0.67540 0.01000
C 	C 	0.67250 0.35180 0.63320 -0.05200
H 	H 	0.67710 0.37150 0.61450 0.03100
C 	C 	0.62190 0.30060 0.48010 0.02200
H 	H 	0.64940 0.30220 0.48190 0.02300
C 	C 	0.60460 0.28970 0.44600 -0.02400
C 	C 	0.56500 0.28870 0.44220 -0.00100
H 	H 	0.55330 0.28150 0.41830 0.03100
C 	C 	0.54390 0.29790 0.47210 -0.09800
H 	H 	0.51650 0.29710 0.47010 0.07000
C 	C 	0.56070 0.30860 0.50630 0.05900
H 	H 	0.54450 0.31600 0.52730 -0.00800
C 	C 	0.64750 0.26560 0.71800 -0.93800
H 	H 	0.62020 0.26790 0.72270 0.41900
H 	H 	0.65250 0.24020 0.70790 -0.10500
C 	C 	0.62410 0.27430 0.41010 0.02100
H 	H 	0.60620 0.25700 0.39570 0.04600
H 	H 	0.63160 0.29600 0.39280 0.00700
N 	N 	0.72030 0.29860 0.44980 -0.10800
N 	N 	0.67240 0.34250 0.54350 -0.23800
N 	N 	0.65030 0.32140 0.62330 -0.17800
N 	N 	0.59930 0.30900 0.51120 -0.22800
O 	O 	0.65790 0.25330 0.42180 -0.34500
H 	H 	0.67800 0.24300 0.43000 0.24500
O 	O 	0.66950 0.26750 0.75150 -1.02800
H 	H 	0.68870 0.27300 0.76600 0.40300
H 	H 	0.63800 0.24330 0.70450 0.32200
H 	H 	0.67010 0.25780 0.73220 0.90700
C 	C 	0.63180 0.28530 0.41260 0.04900
H 	H 	0.61720 0.27960 0.38860 0.00500
H 	H 	0.64680 0.30940 0.40870 0.02900
O 	O 	0.62030 0.27820 0.74580 -0.19200
H 	H 	0.60020 0.26400 0.74300 0.04100
C 	C 	0.73120 0.67530 0.03280 -0.04600
C 	C 	0.69880 0.64480 0.97120 -0.01900
C 	C 	0.64370 0.70520 0.84980 -0.16900
H 	H 	0.62830 0.72690 0.85660 0.06500
C 	C 	0.65820 0.70310 0.81160 0.33700
C 	C 	0.68160 0.67260 0.80230 -0.28600
H 	H 	0.69260 0.67040 0.77720 0.15900
C 	C 	0.68880 0.64460 0.83040 0.07000
H 	H 	0.70490 0.62310 0.82460 0.01000
C 	C 	0.67250 0.64820 0.86680 -0.05200
H 	H 	0.67710 0.62850 0.88550 0.03100
C 	C 	0.62190 0.69940 0.01990 0.01900
H 	H 	0.64940 0.69780 0.01810 0.02300
C 	C 	0.60460 0.71030 0.05400 -0.02600
C 	C 	0.56500 0.71130 0.05780 0.00400
H 	H 	0.55330 0.71850 0.08170 0.03000
C 	C 	0.54390 0.70210 0.02790 -0.10700
H 	H 	0.51650 0.70290 0.02990 0.07200
C 	C 	0.56070 0.69140 0.99370 0.06700
H 	H 	0.54450 0.68400 0.97270 -0.01000
C 	C 	0.64750 0.73440 0.78200 -0.93800
H 	H 	0.62020 0.73210 0.77730 0.41900
H 	H 	0.65250 0.75980 0.79210 -0.10500
C 	C 	0.62410 0.72570 0.08990 0.02100
H 	H 	0.60620 0.74300 0.10430 0.04600
H 	H 	0.63160 0.70400 0.10720 0.00700
N 	N 	0.72030 0.70140 0.05020 -0.10800
N 	N 	0.67240 0.65750 0.95650 -0.23800
N 	N 	0.65030 0.67860 0.87670 -0.17800
N 	N 	0.59930 0.69100 0.98880 -0.22800
O 	O 	0.65790 0.74670 0.07820 -0.34500
H 	H 	0.67800 0.75700 0.07000 0.24500
O 	O 	0.66950 0.73250 0.74850 -1.02800
H 	H 	0.68870 0.72700 0.73400 0.40300
H 	H 	0.63800 0.75670 0.79550 0.32200
H 	H 	0.67010 0.74220 0.76780 0.90700
C 	C 	0.63180 0.71470 0.08740 0.04900
H 	H 	0.61720 0.72040 0.11140 0.00400
H 	H 	0.64680 0.69060 0.09130 0.02900
O 	O 	0.62030 0.72180 0.75420 -0.19200
H 	H 	0.60020 0.73600 0.75700 0.04100
C 	C 	0.23120 0.17530 0.53280 -0.04600
C 	C 	0.19880 0.14480 0.47120 -0.02200
C 	C 	0.14370 0.20520 0.34980 -0.16900
H 	H 	0.12830 0.22690 0.35660 0.06500
C 	C 	0.15820 0.20310 0.31160 0.33800
C 	C 	0.18160 0.17260 0.30230 -0.28600
H 	H 	0.19260 0.17040 0.27720 0.15900
C 	C 	0.18880 0.14460 0.33040 0.07000
H 	H 	0.20490 0.12310 0.32460 0.01000
C 	C 	0.17250 0.14820 0.36680 -0.05200
H 	H 	0.17710 0.12850 0.38550 0.03100
C 	C 	0.12190 0.19940 0.51990 0.02200
H 	H 	0.14940 0.19780 0.51810 0.02300
C 	C 	0.10460 0.21030 0.55400 -0.02400
C 	C 	0.06500 0.21130 0.55780 -0.00100
H 	H 	0.05330 0.21850 0.58170 0.03100
C 	C 	0.04390 0.20210 0.52790 -0.09800
H 	H 	0.01650 0.20290 0.52990 0.06900
C 	C 	0.06070 0.19140 0.49370 0.05900
H 	H 	0.04450 0.18400 0.47270 -0.00900
C 	C 	0.14750 0.23440 0.28200 -0.93900
H 	H 	0.12020 0.23210 0.27730 0.41900
H 	H 	0.15250 0.25980 0.29210 -0.10500
C 	C 	0.12410 0.22570 0.58990 0.02100
H 	H 	0.10620 0.24300 0.60430 0.04600
H 	H 	0.13160 0.20400 0.60720 0.00700
N 	N 	0.22030 0.20140 0.55020 -0.10800
N 	N 	0.17240 0.15750 0.45650 -0.23800
N 	N 	0.15030 0.17860 0.37670 -0.17800
N 	N 	0.09930 0.19100 0.48880 -0.22800
O 	O 	0.15790 0.24670 0.57820 -0.34500
H 	H 	0.17800 0.25700 0.57000 0.24500
O 	O 	0.16950 0.23250 0.24850 -1.02800
H 	H 	0.18870 0.22700 0.23400 0.40300
H 	H 	0.13800 0.25670 0.29550 0.32200
H 	H 	0.17010 0.24220 0.26780 0.90700
C 	C 	0.13180 0.21470 0.58740 0.04900
H 	H 	0.11720 0.22040 0.61140 0.00500
H 	H 	0.14680 0.19060 0.59130 0.02900
O 	O 	0.12030 0.22180 0.25420 -0.19200
H 	H 	0.10020 0.23600 0.25700 0.04100
C 	C 	0.26880 0.17530 0.46720 -0.04600
C 	C 	0.30120 0.14480 0.52880 -0.02200
C 	C 	0.35630 0.20520 0.65020 -0.16900
H 	H 	0.37170 0.22690 0.64340 0.06500
C 	C 	0.34180 0.20310 0.68840 0.33800
C 	C 	0.31840 0.17260 0.69770 -0.28600
H 	H 	0.30740 0.17040 0.72280 0.15900
C 	C 	0.31120 0.14460 0.66960 0.07000
H 	H 	0.29510 0.12310 0.67540 0.01000
C 	C 	0.32750 0.14820 0.63320 -0.05200
H 	H 	0.32290 0.12850 0.61450 0.03100
C 	C 	0.37810 0.19940 0.48010 0.02200
H 	H 	0.35060 0.19780 0.48190 0.02300
C 	C 	0.39540 0.21030 0.44600 -0.02400
C 	C 	0.43500 0.21130 0.44220 -0.00100
H 	H 	0.44670 0.21850 0.41830 0.03100
C 	C 	0.45610 0.20210 0.47210 -0.09800
H 	H 	0.48350 0.20290 0.47010 0.07000
C 	C 	0.43930 0.19140 0.50630 0.05900
H 	H 	0.45550 0.18400 0.52730 -0.00800
C 	C 	0.35250 0.23440 0.71800 -0.93800
H 	H 	0.37980 0.23210 0.72270 0.41900
H 	H 	0.34750 0.25980 0.70790 -0.10500
C 	C 	0.37590 0.22570 0.41010 0.02100
H 	H 	0.39380 0.24300 0.39570 0.04600
H 	H 	0.36840 0.20400 0.39280 0.00700
N 	N 	0.27970 0.20140 0.44980 -0.10800
N 	N 	0.32760 0.15750 0.54350 -0.23800
N 	N 	0.34970 0.17860 0.62330 -0.17800
N 	N 	0.40070 0.19100 0.51120 -0.22800
O 	O 	0.34210 0.24670 0.42180 -0.34500
H 	H 	0.32200 0.25700 0.43000 0.24500
O 	O 	0.33050 0.23250 0.75150 -1.02800
H 	H 	0.31130 0.22700 0.76600 0.40300
H 	H 	0.36200 0.25670 0.70450 0.32200
H 	H 	0.32990 0.24220 0.73220 0.90700
C 	C 	0.36820 0.21470 0.41260 0.04900
H 	H 	0.38280 0.22040 0.38860 0.00500
H 	H 	0.35320 0.19060 0.40870 0.02900
O 	O 	0.37970 0.22180 0.74580 -0.19200
H 	H 	0.39980 0.23600 0.74300 0.04100
C 	C 	0.76880 0.67530 0.96720 -0.04300
C 	C 	0.80120 0.64480 0.02880 -0.02200
C 	C 	0.85630 0.70520 0.15020 -0.16900
H 	H 	0.87170 0.72690 0.14340 0.06500
C 	C 	0.84180 0.70310 0.18840 0.33700
C 	C 	0.81840 0.67260 0.19770 -0.28600
H 	H 	0.80740 0.67040 0.22280 0.15900
C 	C 	0.81120 0.64460 0.16960 0.07000
H 	H 	0.79510 0.62310 0.17540 0.01000
C 	C 	0.82750 0.64820 0.13320 -0.05200
H 	H 	0.82290 0.62850 0.11450 0.03100
C 	C 	0.87810 0.69940 0.98010 0.02400
H 	H 	0.85060 0.69780 0.98190 0.02400
C 	C 	0.89540 0.71030 0.94600 -0.02300
C 	C 	0.93500 0.71130 0.94220 -0.00500
H 	H 	0.94670 0.71850 0.91830 0.03300
C 	C 	0.95610 0.70210 0.97210 -0.08800
H 	H 	0.98350 0.70290 0.97010 0.06900
C 	C 	0.93930 0.69140 0.00630 0.05200
H 	H 	0.95550 0.68400 0.02730 -0.00500
C 	C 	0.85250 0.73440 0.21800 -0.93800
H 	H 	0.87980 0.73210 0.22270 0.41900
H 	H 	0.84750 0.75980 0.20790 -0.10500
C 	C 	0.87590 0.72570 0.91010 0.02000
H 	H 	0.89380 0.74300 0.89570 0.04600
H 	H 	0.86840 0.70400 0.89280 0.00700
N 	N 	0.77970 0.70140 0.94980 -0.10800
N 	N 	0.82760 0.65750 0.04350 -0.23800
N 	N 	0.84970 0.67860 0.12330 -0.17800
N 	N 	0.90070 0.69100 0.01120 -0.22900
O 	O 	0.84210 0.74670 0.92180 -0.34400
H 	H 	0.82200 0.75700 0.93000 0.24600
O 	O 	0.83050 0.73250 0.25150 -1.02800
H 	H 	0.81130 0.72700 0.26600 0.40300
H 	H 	0.86200 0.75670 0.20450 0.32200
H 	H 	0.82990 0.74220 0.23220 0.90600
C 	C 	0.86820 0.71470 0.91260 0.04800
H 	H 	0.88280 0.72040 0.88860 0.00500
H 	H 	0.85320 0.69060 0.90870 0.02900
O 	O 	0.87970 0.72180 0.24580 -0.19200
H 	H 	0.89980 0.73600 0.24300 0.04100
C 	C 	0.82470 0.96720 0.23120 -0.04300
C 	C 	0.85520 0.02880 0.19880 -0.02200
C 	C 	0.79480 0.15020 0.14370 -0.16900
H 	H 	0.77310 0.14340 0.12830 0.06500
C 	C 	0.79690 0.18840 0.15820 0.33800
C 	C 	0.82740 0.19770 0.18160 -0.28600
H 	H 	0.82960 0.22280 0.19260 0.15900
C 	C 	0.85540 0.16960 0.18880 0.07000
H 	H 	0.87690 0.17540 0.20490 0.01000
C 	C 	0.85180 0.13320 0.17250 -0.05200
H 	H 	0.87150 0.11450 0.17710 0.03100
C 	C 	0.80060 0.98010 0.12190 0.02400
H 	H 	0.80220 0.98190 0.14940 0.02400
C 	C 	0.78970 0.94600 0.10460 -0.02300
C 	C 	0.78870 0.94220 0.06500 -0.00600
H 	H 	0.78150 0.91830 0.05330 0.03300
C 	C 	0.79790 0.97210 0.04390 -0.08900
H 	H 	0.79710 0.97010 0.01650 0.06700
C 	C 	0.80860 0.00630 0.06070 0.05100
H 	H 	0.81600 0.02730 0.04450 -0.00600
C 	C 	0.76560 0.21800 0.14750 -0.93800
H 	H 	0.76790 0.22270 0.12020 0.41900
H 	H 	0.74020 0.20790 0.15250 -0.10500
C 	C 	0.77430 0.91010 0.12410 0.02000
H 	H 	0.75700 0.89570 0.10620 0.04600
H 	H 	0.79600 0.89280 0.13160 0.00700
N 	N 	0.79860 0.94980 0.22030 -0.10800
N 	N 	0.84250 0.04350 0.17240 -0.23800
N 	N 	0.82140 0.12330 0.15030 -0.17800
N 	N 	0.80900 0.01120 0.09930 -0.22900
O 	O 	0.75330 0.92180 0.15790 -0.34500
H 	H 	0.74300 0.93000 0.17800 0.24600
O 	O 	0.76750 0.25150 0.16950 -1.02800
H 	H 	0.77300 0.26600 0.18870 0.40300
H 	H 	0.74330 0.20450 0.13800 0.32200
H 	H 	0.75780 0.23220 0.17010 0.90700
C 	C 	0.78530 0.91260 0.13180 0.04900
H 	H 	0.77960 0.88860 0.11720 0.00500
H 	H 	0.80940 0.90870 0.14680 0.02900
O 	O 	0.77820 0.24580 0.12030 -0.19200
H 	H 	0.76400 0.24300 0.10020 0.04100
C 	C 	0.32470 0.46720 0.73120 -0.04600
C 	C 	0.35520 0.52880 0.69880 -0.02200
C 	C 	0.29480 0.65020 0.64370 -0.16900
H 	H 	0.27310 0.64340 0.62830 0.06500
C 	C 	0.29690 0.68840 0.65820 0.33800
C 	C 	0.32740 0.69770 0.68160 -0.28600
H 	H 	0.32960 0.72280 0.69260 0.15900
C 	C 	0.35540 0.66960 0.68880 0.07000
H 	H 	0.37690 0.67540 0.70490 0.01000
C 	C 	0.35180 0.63320 0.67250 -0.05200
H 	H 	0.37150 0.61450 0.67710 0.03100
C 	C 	0.30060 0.48010 0.62190 0.02200
H 	H 	0.30220 0.48190 0.64940 0.02300
C 	C 	0.28970 0.44600 0.60460 -0.02400
C 	C 	0.28870 0.44220 0.56500 -0.00100
H 	H 	0.28150 0.41830 0.55330 0.03100
C 	C 	0.29790 0.47210 0.54390 -0.09800
H 	H 	0.29710 0.47010 0.51650 0.07000
C 	C 	0.30860 0.50630 0.56070 0.05900
H 	H 	0.31600 0.52730 0.54450 -0.00800
C 	C 	0.26560 0.71800 0.64750 -0.93800
H 	H 	0.26790 0.72270 0.62020 0.41900
H 	H 	0.24020 0.70790 0.65250 -0.10500
C 	C 	0.27430 0.41010 0.62410 0.02100
H 	H 	0.25700 0.39570 0.60620 0.04600
H 	H 	0.29600 0.39280 0.63160 0.00700
N 	N 	0.29860 0.44980 0.72030 -0.10800
N 	N 	0.34250 0.54350 0.67240 -0.23800
N 	N 	0.32140 0.62330 0.65030 -0.17800
N 	N 	0.30900 0.51120 0.59930 -0.22800
O 	O 	0.25330 0.42180 0.65790 -0.34500
H 	H 	0.24300 0.43000 0.67800 0.24500
O 	O 	0.26750 0.75150 0.66950 -1.02800
H 	H 	0.27300 0.76600 0.68870 0.40300
H 	H 	0.24330 0.70450 0.63800 0.32200
H 	H 	0.25780 0.73220 0.67010 0.90700
C 	C 	0.28530 0.41260 0.63180 0.04900
H 	H 	0.27960 0.38860 0.61720 0.00500
H 	H 	0.30940 0.40870 0.64680 0.02900
O 	O 	0.27820 0.74580 0.62030 -0.19200
H 	H 	0.26400 0.74300 0.60020 0.04100
C 	C 	0.32470 0.53280 0.76880 -0.04600
C 	C 	0.35520 0.47120 0.80120 -0.02200
C 	C 	0.29480 0.34980 0.85630 -0.16900
H 	H 	0.27310 0.35660 0.87170 0.06500
C 	C 	0.29690 0.31160 0.84180 0.33700
C 	C 	0.32740 0.30230 0.81840 -0.28600
H 	H 	0.32960 0.27720 0.80740 0.15900
C 	C 	0.35540 0.33040 0.81120 0.07000
H 	H 	0.37690 0.32460 0.79510 0.01000
C 	C 	0.35180 0.36680 0.82750 -0.05200
H 	H 	0.37150 0.38550 0.82290 0.03100
C 	C 	0.30060 0.51990 0.87810 0.02200
H 	H 	0.30220 0.51810 0.85060 0.02300
C 	C 	0.28970 0.55400 0.89540 -0.02400
C 	C 	0.28870 0.55780 0.93500 -0.00100
H 	H 	0.28150 0.58170 0.94670 0.03200
C 	C 	0.29790 0.52790 0.95610 -0.09700
H 	H 	0.29710 0.52990 0.98350 0.07100
C 	C 	0.30860 0.49370 0.93930 0.06000
H 	H 	0.31600 0.47270 0.95550 -0.00700
C 	C 	0.26560 0.28200 0.85250 -0.93800
H 	H 	0.26790 0.27730 0.87980 0.41900
H 	H 	0.24020 0.29210 0.84750 -0.10500
C 	C 	0.27430 0.58990 0.87590 0.02100
H 	H 	0.25700 0.60430 0.89380 0.04600
H 	H 	0.29600 0.60720 0.86840 0.00700
N 	N 	0.29860 0.55020 0.77970 -0.10800
N 	N 	0.34250 0.45650 0.82760 -0.23800
N 	N 	0.32140 0.37670 0.84970 -0.17800
N 	N 	0.30900 0.48880 0.90070 -0.22800
O 	O 	0.25330 0.57820 0.84210 -0.34500
H 	H 	0.24300 0.57000 0.82200 0.24500
O 	O 	0.26750 0.24850 0.83050 -1.02800
H 	H 	0.27300 0.23400 0.81130 0.40300
H 	H 	0.24330 0.29550 0.86200 0.32200
H 	H 	0.25780 0.26780 0.82990 0.90700
C 	C 	0.28530 0.58740 0.86820 0.04900
H 	H 	0.27960 0.61140 0.88280 0.00500
H 	H 	0.30940 0.59130 0.85320 0.02900
O 	O 	0.27820 0.25420 0.87970 -0.19200
H 	H 	0.26400 0.25700 0.89980 0.04100
C 	C 	0.82470 0.03280 0.26880 -0.04600
C 	C 	0.85520 0.97120 0.30120 -0.01900
C 	C 	0.79480 0.84980 0.35630 -0.16900
H 	H 	0.77310 0.85660 0.37170 0.06500
C 	C 	0.79690 0.81160 0.34180 0.33800
C 	C 	0.82740 0.80230 0.31840 -0.28600
H 	H 	0.82960 0.77720 0.30740 0.15900
C 	C 	0.85540 0.83040 0.31120 0.07000
H 	H 	0.87690 0.82460 0.29510 0.01000
C 	C 	0.85180 0.86680 0.32750 -0.05200
H 	H 	0.87150 0.88550 0.32290 0.03100
C 	C 	0.80060 0.01990 0.37810 0.01900
H 	H 	0.80220 0.01810 0.35060 0.02300
C 	C 	0.78970 0.05400 0.39540 -0.02600
C 	C 	0.78870 0.05780 0.43500 0.00400
H 	H 	0.78150 0.08170 0.44670 0.03000
C 	C 	0.79790 0.02790 0.45610 -0.10700
H 	H 	0.79710 0.02990 0.48350 0.07200
C 	C 	0.80860 0.99370 0.43930 0.06700
H 	H 	0.81600 0.97270 0.45550 -0.01000
C 	C 	0.76560 0.78200 0.35250 -0.93800
H 	H 	0.76790 0.77730 0.37980 0.41900
H 	H 	0.74020 0.79210 0.34750 -0.10500
C 	C 	0.77430 0.08990 0.37590 0.02100
H 	H 	0.75700 0.10430 0.39380 0.04600
H 	H 	0.79600 0.10720 0.36840 0.00700
N 	N 	0.79860 0.05020 0.27970 -0.10800
N 	N 	0.84250 0.95650 0.32760 -0.23800
N 	N 	0.82140 0.87670 0.34970 -0.17800
N 	N 	0.80900 0.98880 0.40070 -0.22800
O 	O 	0.75330 0.07820 0.34210 -0.34500
H 	H 	0.74300 0.07000 0.32200 0.24500
O 	O 	0.76750 0.74850 0.33050 -1.02800
H 	H 	0.77300 0.73400 0.31130 0.40300
H 	H 	0.74330 0.79550 0.36200 0.32200
H 	H 	0.75780 0.76780 0.32990 0.90700
C 	C 	0.78530 0.08740 0.36820 0.04900
H 	H 	0.77960 0.11140 0.38280 0.00400
H 	H 	0.80940 0.09130 0.35320 0.02900
O 	O 	0.77820 0.75420 0.37970 -0.19200
H 	H 	0.76400 0.75700 0.39980 0.04100
C 	C 	0.17530 0.46720 0.26880 -0.04600
C 	C 	0.14480 0.52880 0.30120 -0.02200
C 	C 	0.20520 0.65020 0.35630 -0.16900
H 	H 	0.22690 0.64340 0.37170 0.06500
C 	C 	0.20310 0.68840 0.34180 0.33800
C 	C 	0.17260 0.69770 0.31840 -0.28600
H 	H 	0.17040 0.72280 0.30740 0.15900
C 	C 	0.14460 0.66960 0.31120 0.07000
H 	H 	0.12310 0.67540 0.29510 0.01000
C 	C 	0.14820 0.63320 0.32750 -0.05200
H 	H 	0.12850 0.61450 0.32290 0.03100
C 	C 	0.19940 0.48010 0.37810 0.02200
H 	H 	0.19780 0.48190 0.35060 0.02300
C 	C 	0.21030 0.44600 0.39540 -0.02400
C 	C 	0.21130 0.44220 0.43500 -0.00100
H 	H 	0.21850 0.41830 0.44670 0.03100
C 	C 	0.20210 0.47210 0.45610 -0.09800
H 	H 	0.20290 0.47010 0.48350 0.07000
C 	C 	0.19140 0.50630 0.43930 0.05900
H 	H 	0.18400 0.52730 0.45550 -0.00800
C 	C 	0.23440 0.71800 0.35250 -0.93800
H 	H 	0.23210 0.72270 0.37980 0.41900
H 	H 	0.25980 0.70790 0.34750 -0.10500
C 	C 	0.22570 0.41010 0.37590 0.02100
H 	H 	0.24300 0.39570 0.39380 0.04600
H 	H 	0.20400 0.39280 0.36840 0.00700
N 	N 	0.20140 0.44980 0.27970 -0.10800
N 	N 	0.15750 0.54350 0.32760 -0.23800
N 	N 	0.17860 0.62330 0.34970 -0.17800
N 	N 	0.19100 0.51120 0.40070 -0.22800
O 	O 	0.24670 0.42180 0.34210 -0.34500
H 	H 	0.25700 0.43000 0.32200 0.24500
O 	O 	0.23250 0.75150 0.33050 -1.02800
H 	H 	0.22700 0.76600 0.31130 0.40300
H 	H 	0.25670 0.70450 0.36200 0.32200
H 	H 	0.24220 0.73220 0.32990 0.90700
C 	C 	0.21470 0.41260 0.36820 0.04900
H 	H 	0.22040 0.38860 0.38280 0.00500
H 	H 	0.19060 0.40870 0.35320 0.02900
O 	O 	0.22180 0.74580 0.37970 -0.19200
H 	H 	0.23600 0.74300 0.39980 0.04100
C 	C 	0.67530 0.96720 0.76880 -0.04300
C 	C 	0.64480 0.02880 0.80120 -0.02200
C 	C 	0.70520 0.15020 0.85630 -0.16900
H 	H 	0.72690 0.14340 0.87170 0.06500
C 	C 	0.70310 0.18840 0.84180 0.33700
C 	C 	0.67260 0.19770 0.81840 -0.28600
H 	H 	0.67040 0.22280 0.80740 0.15900
C 	C 	0.64460 0.16960 0.81120 0.07000
H 	H 	0.62310 0.17540 0.79510 0.01000
C 	C 	0.64820 0.13320 0.82750 -0.05200
H 	H 	0.62850 0.11450 0.82290 0.03100
C 	C 	0.69940 0.98010 0.87810 0.02400
H 	H 	0.69780 0.98190 0.85060 0.02400
C 	C 	0.71030 0.94600 0.89540 -0.02300
C 	C 	0.71130 0.94220 0.93500 -0.00500
H 	H 	0.71850 0.91830 0.94670 0.03300
C 	C 	0.70210 0.97210 0.95610 -0.08800
H 	H 	0.70290 0.97010 0.98350 0.06900
C 	C 	0.69140 0.00630 0.93930 0.05200
H 	H 	0.68400 0.02730 0.95550 -0.00500
C 	C 	0.73440 0.21800 0.85250 -0.93800
H 	H 	0.73210 0.22270 0.87980 0.41900
H 	H 	0.75980 0.20790 0.84750 -0.10500
C 	C 	0.72570 0.91010 0.87590 0.02000
H 	H 	0.74300 0.89570 0.89380 0.04600
H 	H 	0.70400 0.89280 0.86840 0.00700
N 	N 	0.70140 0.94980 0.77970 -0.10800
N 	N 	0.65750 0.04350 0.82760 -0.23800
N 	N 	0.67860 0.12330 0.84970 -0.17800
N 	N 	0.69100 0.01120 0.90070 -0.22900
O 	O 	0.74670 0.92180 0.84210 -0.34400
H 	H 	0.75700 0.93000 0.82200 0.24600
O 	O 	0.73250 0.25150 0.83050 -1.02800
H 	H 	0.72700 0.26600 0.81130 0.40300
H 	H 	0.75670 0.20450 0.86200 0.32200
H 	H 	0.74220 0.23220 0.82990 0.90600
C 	C 	0.71470 0.91260 0.86820 0.04800
H 	H 	0.72040 0.88860 0.88280 0.00500
H 	H 	0.69060 0.90870 0.85320 0.02900
O 	O 	0.72180 0.24580 0.87970 -0.19200
H 	H 	0.73600 0.24300 0.89980 0.04100
C 	C 	0.67530 0.03280 0.73120 -0.04600
C 	C 	0.64480 0.97120 0.69880 -0.01900
C 	C 	0.70520 0.84980 0.64370 -0.16900
H 	H 	0.72690 0.85660 0.62830 0.06500
C 	C 	0.70310 0.81160 0.65820 0.33700
C 	C 	0.67260 0.80230 0.68160 -0.28600
H 	H 	0.67040 0.77720 0.69260 0.15900
C 	C 	0.64460 0.83040 0.68880 0.07000
H 	H 	0.62310 0.82460 0.70490 0.01000
C 	C 	0.64820 0.86680 0.67250 -0.05200
H 	H 	0.62850 0.88550 0.67710 0.03100
C 	C 	0.69940 0.01990 0.62190 0.01900
H 	H 	0.69780 0.01810 0.64940 0.02300
C 	C 	0.71030 0.05400 0.60460 -0.02600
C 	C 	0.71130 0.05780 0.56500 0.00400
H 	H 	0.71850 0.08170 0.55330 0.03000
C 	C 	0.70210 0.02790 0.54390 -0.10700
H 	H 	0.70290 0.02990 0.51650 0.07200
C 	C 	0.69140 0.99370 0.56070 0.06700
H 	H 	0.68400 0.97270 0.54450 -0.01000
C 	C 	0.73440 0.78200 0.64750 -0.93800
H 	H 	0.73210 0.77730 0.62020 0.41900
H 	H 	0.75980 0.79210 0.65250 -0.10500
C 	C 	0.72570 0.08990 0.62410 0.02100
H 	H 	0.74300 0.10430 0.60620 0.04600
H 	H 	0.70400 0.10720 0.63160 0.00700
N 	N 	0.70140 0.05020 0.72030 -0.10800
N 	N 	0.65750 0.95650 0.67240 -0.23800
N 	N 	0.67860 0.87670 0.65030 -0.17800
N 	N 	0.69100 0.98880 0.59930 -0.22800
O 	O 	0.74670 0.07820 0.65790 -0.34500
H 	H 	0.75700 0.07000 0.67800 0.24500
O 	O 	0.73250 0.74850 0.66950 -1.02800
H 	H 	0.72700 0.73400 0.68870 0.40300
H 	H 	0.75670 0.79550 0.63800 0.32200
H 	H 	0.74220 0.76780 0.67010 0.90700
C 	C 	0.71470 0.08740 0.63180 0.04900
H 	H 	0.72040 0.11140 0.61720 0.00400
H 	H 	0.69060 0.09130 0.64680 0.02900
O 	O 	0.72180 0.75420 0.62030 -0.19200
H 	H 	0.73600 0.75700 0.60020 0.04100
C 	C 	0.17530 0.53280 0.23120 -0.04600
C 	C 	0.14480 0.47120 0.19880 -0.02200
C 	C 	0.20520 0.34980 0.14370 -0.16900
H 	H 	0.22690 0.35660 0.12830 0.06500
C 	C 	0.20310 0.31160 0.15820 0.33800
C 	C 	0.17260 0.30230 0.18160 -0.28600
H 	H 	0.17040 0.27720 0.19260 0.15900
C 	C 	0.14460 0.33040 0.18880 0.07000
H 	H 	0.12310 0.32460 0.20490 0.01000
C 	C 	0.14820 0.36680 0.17250 -0.05200
H 	H 	0.12850 0.38550 0.17710 0.03100
C 	C 	0.19940 0.51990 0.12190 0.02200
H 	H 	0.19780 0.51810 0.14940 0.02300
C 	C 	0.21030 0.55400 0.10460 -0.02400
C 	C 	0.21130 0.55780 0.06500 -0.00100
H 	H 	0.21850 0.58170 0.05330 0.03100
C 	C 	0.20210 0.52790 0.04390 -0.09800
H 	H 	0.20290 0.52990 0.01650 0.06900
C 	C 	0.19140 0.49370 0.06070 0.05900
H 	H 	0.18400 0.47270 0.04450 -0.00900
C 	C 	0.23440 0.28200 0.14750 -0.93900
H 	H 	0.23210 0.27730 0.12020 0.41900
H 	H 	0.25980 0.29210 0.15250 -0.10500
C 	C 	0.22570 0.58990 0.12410 0.02100
H 	H 	0.24300 0.60430 0.10620 0.04600
H 	H 	0.20400 0.60720 0.13160 0.00700
N 	N 	0.20140 0.55020 0.22030 -0.10800
N 	N 	0.15750 0.45650 0.17240 -0.23800
N 	N 	0.17860 0.37670 0.15030 -0.17800
N 	N 	0.19100 0.48880 0.09930 -0.22800
O 	O 	0.24670 0.57820 0.15790 -0.34500
H 	H 	0.25700 0.57000 0.17800 0.24500
O 	O 	0.23250 0.24850 0.16950 -1.02800
H 	H 	0.22700 0.23400 0.18870 0.40300
H 	H 	0.25670 0.29550 0.13800 0.32200
H 	H 	0.24220 0.26780 0.17010 0.90700
C 	C 	0.21470 0.58740 0.13180 0.04900
H 	H 	0.22040 0.61140 0.11720 0.00500
H 	H 	0.19060 0.59130 0.14680 0.02900
O 	O 	0.22180 0.25420 0.12030 -0.19200
H 	H 	0.23600 0.25700 0.10020 0.04100
C 	C 	0.98120 0.28280 0.92530 -0.04200
C 	C 	0.94880 0.22120 0.89480 -0.01900
C 	C 	0.89370 0.09980 0.95520 -0.16400
H 	H 	0.87830 0.10660 0.97690 0.06400
C 	C 	0.90820 0.06160 0.95310 0.32800
C 	C 	0.93160 0.05230 0.92260 -0.27900
H 	H 	0.94260 0.02720 0.92040 0.15600
C 	C 	0.93880 0.08040 0.89460 0.06500
H 	H 	0.95490 0.07460 0.87310 0.01200
C 	C 	0.92250 0.11680 0.89820 -0.05000
H 	H 	0.92710 0.13550 0.87850 0.03000
C 	C 	0.87190 0.26990 0.94940 0.02100
H 	H 	0.89940 0.26810 0.94780 0.02400
C 	C 	0.85460 0.30400 0.96030 -0.02300
C 	C 	0.81500 0.30780 0.96130 -0.00200
H 	H 	0.80330 0.33170 0.96850 0.03200
C 	C 	0.79390 0.27790 0.95210 -0.09700
H 	H 	0.76650 0.27990 0.95290 0.07100
C 	C 	0.81070 0.24370 0.94140 0.06000
H 	H 	0.79450 0.22270 0.93400 -0.00800
C 	C 	0.89750 0.03200 0.98440 -0.91200
H 	H 	0.87020 0.02730 0.98210 0.41300
H 	H 	0.90250 0.04210 0.00980 -0.10400
C 	C 	0.87410 0.33990 0.97570 0.01900
H 	H 	0.85620 0.35430 0.99300 0.04700
H 	H 	0.88160 0.35720 0.95400 0.00800
N 	N 	0.97030 0.30020 0.95140 -0.10800
N 	N 	0.92240 0.20650 0.90750 -0.23800
N 	N 	0.90030 0.12670 0.92860 -0.17900
N 	N 	0.84930 0.23880 0.94100 -0.22800
O 	O 	0.90790 0.32820 0.99670 -0.33900
H 	H 	0.92800 0.32000 0.00700 0.24000
O 	O 	0.91950 0.99850 0.98250 -1.01100
H 	H 	0.93870 0.98400 0.97700 0.39900
H 	H 	0.88800 0.04550 0.00670 0.31200
H 	H 	0.92010 0.01780 0.99220 0.88900
C 	C 	0.88180 0.33740 0.96470 0.04700
H 	H 	0.86720 0.36140 0.97040 0.00500
H 	H 	0.89680 0.34130 0.94060 0.02900
O 	O 	0.87030 0.00420 0.97180 -0.19800
H 	H 	0.85020 0.00700 0.98600 0.04500
C 	C 	0.48120 0.78280 0.42530 -0.04600
C 	C 	0.44880 0.72120 0.39480 -0.02200
C 	C 	0.39370 0.59980 0.45520 -0.16900
H 	H 	0.37830 0.60660 0.47690 0.06500
C 	C 	0.40820 0.56160 0.45310 0.33800
C 	C 	0.43160 0.55230 0.42260 -0.28600
H 	H 	0.44260 0.52720 0.42040 0.15900
C 	C 	0.43880 0.58040 0.39460 0.07000
H 	H 	0.45490 0.57460 0.37310 0.01000
C 	C 	0.42250 0.61680 0.39820 -0.05200
H 	H 	0.42710 0.63550 0.37850 0.03100
C 	C 	0.37190 0.76990 0.44940 0.02200
H 	H 	0.39940 0.76810 0.44780 0.02300
C 	C 	0.35460 0.80400 0.46030 -0.02400
C 	C 	0.31500 0.80780 0.46130 -0.00100
H 	H 	0.30330 0.83170 0.46850 0.03100
C 	C 	0.29390 0.77790 0.45210 -0.09700
H 	H 	0.26650 0.77990 0.45290 0.07000
C 	C 	0.31070 0.74370 0.44140 0.05900
H 	H 	0.29450 0.72270 0.43400 -0.00800
C 	C 	0.39750 0.53200 0.48440 -0.93800
H 	H 	0.37020 0.52730 0.48210 0.41900
H 	H 	0.40250 0.54210 0.50980 -0.10500
C 	C 	0.37410 0.83990 0.47570 0.02100
H 	H 	0.35620 0.85430 0.49300 0.04600
H 	H 	0.38160 0.85720 0.45400 0.00700
N 	N 	0.47030 0.80020 0.45140 -0.10800
N 	N 	0.42240 0.70650 0.40750 -0.23800
N 	N 	0.40030 0.62670 0.42860 -0.17800
N 	N 	0.34930 0.73880 0.44100 -0.22800
O 	O 	0.40790 0.82820 0.49670 -0.34500
H 	H 	0.42800 0.82000 0.50700 0.24500
O 	O 	0.41950 0.49850 0.48250 -1.02800
H 	H 	0.43870 0.48400 0.47700 0.40300
H 	H 	0.38800 0.54550 0.50670 0.32200
H 	H 	0.42010 0.51780 0.49220 0.90700
C 	C 	0.38180 0.83740 0.46470 0.04900
H 	H 	0.36720 0.86140 0.47040 0.00500
H 	H 	0.39680 0.84130 0.44060 0.02900
O 	O 	0.37030 0.50420 0.47180 -0.19200
H 	H 	0.35020 0.50700 0.48600 0.04100
C 	C 	0.51880 0.71720 0.42530 -0.04600
C 	C 	0.55120 0.77880 0.39480 -0.02200
C 	C 	0.60630 0.90020 0.45520 -0.17100
H 	H 	0.62170 0.89340 0.47690 0.06600
C 	C 	0.59180 0.93840 0.45310 0.34100
C 	C 	0.56840 0.94770 0.42260 -0.28900
H 	H 	0.55740 0.97280 0.42040 0.16200
C 	C 	0.56120 0.91960 0.39460 0.07200
H 	H 	0.54510 0.92540 0.37310 0.01000
C 	C 	0.57750 0.88320 0.39820 -0.05300
H 	H 	0.57290 0.86450 0.37850 0.03100
C 	C 	0.62810 0.73010 0.44940 0.02200
H 	H 	0.60060 0.73190 0.44780 0.02300
C 	C 	0.64540 0.69600 0.46030 -0.02400
C 	C 	0.68500 0.69220 0.46130 -0.00100
H 	H 	0.69670 0.66830 0.46850 0.03100
C 	C 	0.70610 0.72210 0.45210 -0.09800
H 	H 	0.73350 0.72010 0.45290 0.07000
C 	C 	0.68930 0.75630 0.44140 0.05900
H 	H 	0.70550 0.77730 0.43400 -0.00800
C 	C 	0.60250 0.96800 0.48440 -0.94800
H 	H 	0.62980 0.97270 0.48210 0.42000
H 	H 	0.59750 0.95790 0.50980 -0.10800
C 	C 	0.62590 0.66010 0.47570 0.02100
H 	H 	0.64380 0.64570 0.49300 0.04600
H 	H 	0.61840 0.64280 0.45400 0.00700
N 	N 	0.52970 0.69980 0.45140 -0.10800
N 	N 	0.57760 0.79350 0.40750 -0.23800
N 	N 	0.59970 0.87330 0.42860 -0.17700
N 	N 	0.65070 0.76120 0.44100 -0.22800
O 	O 	0.59210 0.67180 0.49670 -0.34500
H 	H 	0.57200 0.68000 0.50700 0.24500
O 	O 	0.58050 0.00150 0.48250 -1.04400
H 	H 	0.56130 0.01600 0.47700 0.40700
H 	H 	0.61200 0.95450 0.50670 0.32700
H 	H 	0.57990 0.98220 0.49220 0.92000
C 	C 	0.61820 0.66260 0.46470 0.04900
H 	H 	0.63280 0.63860 0.47040 0.00500
H 	H 	0.60320 0.65870 0.44060 0.02900
O 	O 	0.62970 0.99580 0.47180 -0.18700
H 	H 	0.64980 0.99300 0.48600 0.04000
C 	C 	0.01880 0.21720 0.92530 -0.04700
C 	C 	0.05120 0.27880 0.89480 -0.02200
C 	C 	0.10630 0.40020 0.95520 -0.16600
H 	H 	0.12170 0.39340 0.97690 0.06500
C 	C 	0.09180 0.43840 0.95310 0.33200
C 	C 	0.06840 0.44770 0.92260 -0.28200
H 	H 	0.05740 0.47280 0.92040 0.15800
C 	C 	0.06120 0.41960 0.89460 0.06700
H 	H 	0.04510 0.42540 0.87310 0.01000
C 	C 	0.07750 0.38320 0.89820 -0.05100
H 	H 	0.07290 0.36450 0.87850 0.03000
C 	C 	0.12810 0.23010 0.94940 0.02100
H 	H 	0.10060 0.23190 0.94780 0.02400
C 	C 	0.14540 0.19600 0.96030 -0.02300
C 	C 	0.18500 0.19220 0.96130 -0.00200
H 	H 	0.19670 0.16830 0.96850 0.03200
C 	C 	0.20610 0.22210 0.95210 -0.09700
H 	H 	0.23350 0.22010 0.95290 0.07100
C 	C 	0.18930 0.25630 0.94140 0.06000
H 	H 	0.20550 0.27730 0.93400 -0.00800
C 	C 	0.10250 0.46800 0.98440 -0.92000
H 	H 	0.12980 0.47270 0.98210 0.41400
H 	H 	0.09750 0.45790 0.00980 -0.10800
C 	C 	0.12590 0.16010 0.97570 0.01900
H 	H 	0.14380 0.14570 0.99300 0.04700
H 	H 	0.11840 0.14280 0.95400 0.00800
N 	N 	0.02970 0.19980 0.95140 -0.10800
N 	N 	0.07760 0.29350 0.90750 -0.23800
N 	N 	0.09970 0.37330 0.92860 -0.17900
N 	N 	0.15070 0.26120 0.94100 -0.22800
O 	O 	0.09210 0.17180 0.99670 -0.33900
H 	H 	0.07200 0.18000 0.00700 0.23900
O 	O 	0.08050 0.50150 0.98250 -1.02600
H 	H 	0.06130 0.51600 0.97700 0.40200
H 	H 	0.11200 0.45450 0.00670 0.31700
H 	H 	0.07990 0.48220 0.99220 0.90100
C 	C 	0.11820 0.16260 0.96470 0.04700
H 	H 	0.13280 0.13860 0.97040 0.00500
H 	H 	0.10320 0.15870 0.94060 0.02900
O 	O 	0.12970 0.49580 0.97180 -0.19400
H 	H 	0.14980 0.49300 0.98600 0.04400
C 	C 	0.01880 0.78280 0.57470 -0.04700
C 	C 	0.05120 0.72120 0.60520 -0.02200
C 	C 	0.10630 0.59980 0.54480 -0.16900
H 	H 	0.12170 0.60660 0.52310 0.06500
C 	C 	0.09180 0.56160 0.54690 0.33700
C 	C 	0.06840 0.55230 0.57740 -0.28600
H 	H 	0.05740 0.52720 0.57960 0.15900
C 	C 	0.06120 0.58040 0.60540 0.07000
H 	H 	0.04510 0.57460 0.62690 0.00900
C 	C 	0.07750 0.61680 0.60180 -0.05300
H 	H 	0.07290 0.63550 0.62150 0.03000
C 	C 	0.12810 0.76990 0.55060 0.02200
H 	H 	0.10060 0.76810 0.55220 0.02300
C 	C 	0.14540 0.80400 0.53970 -0.02400
C 	C 	0.18500 0.80780 0.53870 -0.00100
H 	H 	0.19670 0.83170 0.53150 0.03100
C 	C 	0.20610 0.77790 0.54790 -0.09700
H 	H 	0.23350 0.77990 0.54710 0.07000
C 	C 	0.18930 0.74370 0.55860 0.05900
H 	H 	0.20550 0.72270 0.56600 -0.00800
C 	C 	0.10250 0.53200 0.51560 -0.93800
H 	H 	0.12980 0.52730 0.51790 0.41900
H 	H 	0.09750 0.54210 0.49020 -0.10500
C 	C 	0.12590 0.83990 0.52430 0.02100
H 	H 	0.14380 0.85430 0.50700 0.04600
H 	H 	0.11840 0.85720 0.54600 0.00700
N 	N 	0.02970 0.80020 0.54860 -0.10900
N 	N 	0.07760 0.70650 0.59250 -0.23800
N 	N 	0.09970 0.62670 0.57140 -0.17800
N 	N 	0.15070 0.73880 0.55900 -0.22800
O 	O 	0.09210 0.82820 0.50330 -0.34500
H 	H 	0.07200 0.82000 0.49300 0.24500
O 	O 	0.08050 0.49850 0.51750 -1.02700
H 	H 	0.06130 0.48400 0.52300 0.40200
H 	H 	0.11200 0.54550 0.49330 0.32200
H 	H 	0.07990 0.51780 0.50780 0.90600
C 	C 	0.11820 0.83740 0.53530 0.04900
H 	H 	0.13280 0.86140 0.52960 0.00500
H 	H 	0.10320 0.84130 0.55940 0.02900
O 	O 	0.12970 0.50420 0.52820 -0.19200
H 	H 	0.14980 0.50700 0.51400 0.04100
C 	C 	0.51880 0.28280 0.07470 -0.04600
C 	C 	0.55120 0.22120 0.10520 -0.02200
C 	C 	0.60630 0.09980 0.04480 -0.17100
H 	H 	0.62170 0.10660 0.02310 0.06500
C 	C 	0.59180 0.06160 0.04690 0.33900
C 	C 	0.56840 0.05230 0.07740 -0.28700
H 	H 	0.55740 0.02720 0.07960 0.15900
C 	C 	0.56120 0.08040 0.10540 0.07000
H 	H 	0.54510 0.07460 0.12690 0.01000
C 	C 	0.57750 0.11680 0.10180 -0.05300
H 	H 	0.57290 0.13550 0.12150 0.03100
C 	C 	0.62810 0.26990 0.05060 0.02200
H 	H 	0.60060 0.26810 0.05220 0.02300
C 	C 	0.64540 0.30400 0.03970 -0.02600
C 	C 	0.68500 0.30780 0.03870 -0.00000
H 	H 	0.69670 0.33170 0.03150 0.03000
C 	C 	0.70610 0.27790 0.04790 -0.09800
H 	H 	0.73350 0.27990 0.04710 0.07000
C 	C 	0.68930 0.24370 0.05860 0.05900
H 	H 	0.70550 0.22270 0.06600 -0.00800
C 	C 	0.60250 0.03200 0.01560 -0.94700
H 	H 	0.62980 0.02730 0.01790 0.42200
H 	H 	0.59750 0.04210 0.99020 -0.09900
C 	C 	0.62590 0.33990 0.02430 0.02200
H 	H 	0.64380 0.35430 0.00700 0.04500
H 	H 	0.61840 0.35720 0.04600 0.00600
N 	N 	0.52970 0.30020 0.04860 -0.10900
N 	N 	0.57760 0.20650 0.09250 -0.23800
N 	N 	0.59970 0.12670 0.07140 -0.17800
N 	N 	0.65070 0.23880 0.05900 -0.22900
O 	O 	0.59210 0.32820 0.00330 -0.35100
H 	H 	0.57200 0.32000 0.99300 0.25100
O 	O 	0.58050 0.99850 0.01750 -1.01400
H 	H 	0.56130 0.98400 0.02300 0.39700
H 	H 	0.61200 0.04550 0.99330 0.32100
H 	H 	0.57990 0.01780 0.00780 0.89900
C 	C 	0.61820 0.33740 0.03530 0.05000
H 	H 	0.63280 0.36140 0.02960 0.00400
H 	H 	0.60320 0.34130 0.05940 0.02900
O 	O 	0.62970 0.00420 0.02820 -0.19500
H 	H 	0.64980 0.00700 0.01400 0.03900
C 	C 	0.48120 0.21720 0.07470 -0.04600
C 	C 	0.44880 0.27880 0.10520 -0.02200
C 	C 	0.39370 0.40020 0.04480 -0.17300
H 	H 	0.37830 0.39340 0.02310 0.06500
C 	C 	0.40820 0.43840 0.04690 0.34300
C 	C 	0.43160 0.44770 0.07740 -0.29000
H 	H 	0.44260 0.47280 0.07960 0.16100
C 	C 	0.43880 0.41960 0.10540 0.07200
H 	H 	0.45490 0.42540 0.12690 0.00900
C 	C 	0.42250 0.38320 0.10180 -0.05400
H 	H 	0.42710 0.36450 0.12150 0.03100
C 	C 	0.37190 0.23010 0.05060 0.02200
H 	H 	0.39940 0.23190 0.05220 0.02300
C 	C 	0.35460 0.19600 0.03970 -0.02600
C 	C 	0.31500 0.19220 0.03870 -0.00000
H 	H 	0.30330 0.16830 0.03150 0.03000
C 	C 	0.29390 0.22210 0.04790 -0.09800
H 	H 	0.26650 0.22010 0.04710 0.07000
C 	C 	0.31070 0.25630 0.05860 0.05900
H 	H 	0.29450 0.27730 0.06600 -0.00800
C 	C 	0.39750 0.46800 0.01560 -0.95600
H 	H 	0.37020 0.47270 0.01790 0.42400
H 	H 	0.40250 0.45790 0.99020 -0.10200
C 	C 	0.37410 0.16010 0.02430 0.02200
H 	H 	0.35620 0.14570 0.00700 0.04500
H 	H 	0.38160 0.14280 0.04600 0.00600
N 	N 	0.47030 0.19980 0.04860 -0.10900
N 	N 	0.42240 0.29350 0.09250 -0.23800
N 	N 	0.40030 0.37330 0.07140 -0.17700
N 	N 	0.34930 0.26120 0.05900 -0.22900
O 	O 	0.40790 0.17180 0.00330 -0.35100
H 	H 	0.42800 0.18000 0.99300 0.25100
O 	O 	0.41950 0.50150 0.01750 -1.03000
H 	H 	0.43870 0.51600 0.02300 0.40200
H 	H 	0.38800 0.45450 0.99330 0.32700
H 	H 	0.42010 0.48220 0.00780 0.91200
C 	C 	0.38180 0.16260 0.03530 0.05000
H 	H 	0.36720 0.13860 0.02960 0.00400
H 	H 	0.39680 0.15870 0.05940 0.02900
O 	O 	0.37030 0.49580 0.02820 -0.19000
H 	H 	0.35020 0.49300 0.01400 0.03800
C 	C 	0.98120 0.71720 0.57470 -0.04300
C 	C 	0.94880 0.77880 0.60520 -0.01900
C 	C 	0.89370 0.90020 0.54480 -0.17100
H 	H 	0.87830 0.89340 0.52310 0.06600
C 	C 	0.90820 0.93840 0.54690 0.34200
C 	C 	0.93160 0.94770 0.57740 -0.28900
H 	H 	0.94260 0.97280 0.57960 0.16200
C 	C 	0.93880 0.91960 0.60540 0.07100
H 	H 	0.95490 0.92540 0.62690 0.01000
C 	C 	0.92250 0.88320 0.60180 -0.05300
H 	H 	0.92710 0.86450 0.62150 0.03100
C 	C 	0.87190 0.73010 0.55060 0.02200
H 	H 	0.89940 0.73190 0.55220 0.02300
C 	C 	0.85460 0.69600 0.53970 -0.02400
C 	C 	0.81500 0.69220 0.53870 -0.00100
H 	H 	0.80330 0.66830 0.53150 0.03100
C 	C 	0.79390 0.72210 0.54790 -0.09800
H 	H 	0.76650 0.72010 0.54710 0.07000
C 	C 	0.81070 0.75630 0.55860 0.05900
H 	H 	0.79450 0.77730 0.56600 -0.00800
C 	C 	0.89750 0.96800 0.51560 -0.94800
H 	H 	0.87020 0.97270 0.51790 0.42100
H 	H 	0.90250 0.95790 0.49020 -0.10800
C 	C 	0.87410 0.66010 0.52430 0.02100
H 	H 	0.85620 0.64570 0.50700 0.04600
H 	H 	0.88160 0.64280 0.54600 0.00700
N 	N 	0.97030 0.69980 0.54860 -0.10800
N 	N 	0.92240 0.79350 0.59250 -0.23800
N 	N 	0.90030 0.87330 0.57140 -0.17700
N 	N 	0.84930 0.76120 0.55900 -0.22800
O 	O 	0.90790 0.67180 0.50330 -0.34500
H 	H 	0.92800 0.68000 0.49300 0.24600
O 	O 	0.91950 0.00150 0.51750 -1.04400
H 	H 	0.93870 0.01600 0.52300 0.40800
H 	H 	0.88800 0.95450 0.49330 0.32700
H 	H 	0.92010 0.98220 0.50780 0.92000
C 	C 	0.88180 0.66260 0.53530 0.04900
H 	H 	0.86720 0.63860 0.52960 0.00500
H 	H 	0.89680 0.65870 0.55940 0.02900
O 	O 	0.87030 0.99580 0.52820 -0.18700
H 	H 	0.85020 0.99300 0.51400 0.04000
C 	C 	0.92530 0.98120 0.28280 -0.04200
C 	C 	0.89480 0.94880 0.22120 -0.01900
C 	C 	0.95520 0.89370 0.09980 -0.16400
H 	H 	0.97690 0.87830 0.10660 0.06400
C 	C 	0.95310 0.90820 0.06160 0.32800
C 	C 	0.92260 0.93160 0.05230 -0.27900
H 	H 	0.92040 0.94260 0.02720 0.15600
C 	C 	0.89460 0.93880 0.08040 0.06500
H 	H 	0.87310 0.95490 0.07460 0.01200
C 	C 	0.89820 0.92250 0.11680 -0.05000
H 	H 	0.87850 0.92710 0.13550 0.03000
C 	C 	0.94940 0.87190 0.26990 0.02100
H 	H 	0.94780 0.89940 0.26810 0.02400
C 	C 	0.96030 0.85460 0.30400 -0.02300
C 	C 	0.96130 0.81500 0.30780 -0.00200
H 	H 	0.96850 0.80330 0.33170 0.03200
C 	C 	0.95210 0.79390 0.27790 -0.09700
H 	H 	0.95290 0.76650 0.27990 0.07100
C 	C 	0.94140 0.81070 0.24370 0.06000
H 	H 	0.93400 0.79450 0.22270 -0.00800
C 	C 	0.98440 0.89750 0.03200 -0.91200
H 	H 	0.98210 0.87020 0.02730 0.41300
H 	H 	0.00980 0.90250 0.04210 -0.10400
C 	C 	0.97570 0.87410 0.33990 0.01900
H 	H 	0.99300 0.85620 0.35430 0.04700
H 	H 	0.95400 0.88160 0.35720 0.00800
N 	N 	0.95140 0.97030 0.30020 -0.10800
N 	N 	0.90750 0.92240 0.20650 -0.23800
N 	N 	0.92860 0.90030 0.12670 -0.17900
N 	N 	0.94100 0.84930 0.23880 -0.22800
O 	O 	0.99670 0.90790 0.32820 -0.33900
H 	H 	0.00700 0.92800 0.32000 0.24000
O 	O 	0.98250 0.91950 0.99850 -1.01100
H 	H 	0.97700 0.93870 0.98400 0.39900
H 	H 	0.00670 0.88800 0.04550 0.31200
H 	H 	0.99220 0.92010 0.01780 0.88900
C 	C 	0.96470 0.88180 0.33740 0.04700
H 	H 	0.97040 0.86720 0.36140 0.00500
H 	H 	0.94060 0.89680 0.34130 0.02900
O 	O 	0.97180 0.87030 0.00420 -0.19800
H 	H 	0.98600 0.85020 0.00700 0.04500
C 	C 	0.42530 0.48120 0.78280 -0.04600
C 	C 	0.39480 0.44880 0.72120 -0.02200
C 	C 	0.45520 0.39370 0.59980 -0.16900
H 	H 	0.47690 0.37830 0.60660 0.06500
C 	C 	0.45310 0.40820 0.56160 0.33800
C 	C 	0.42260 0.43160 0.55230 -0.28600
H 	H 	0.42040 0.44260 0.52720 0.15900
C 	C 	0.39460 0.43880 0.58040 0.07000
H 	H 	0.37310 0.45490 0.57460 0.01000
C 	C 	0.39820 0.42250 0.61680 -0.05200
H 	H 	0.37850 0.42710 0.63550 0.03100
C 	C 	0.44940 0.37190 0.76990 0.02200
H 	H 	0.44780 0.39940 0.76810 0.02300
C 	C 	0.46030 0.35460 0.80400 -0.02400
C 	C 	0.46130 0.31500 0.80780 -0.00100
H 	H 	0.46850 0.30330 0.83170 0.03100
C 	C 	0.45210 0.29390 0.77790 -0.09700
H 	H 	0.45290 0.26650 0.77990 0.07000
C 	C 	0.44140 0.31070 0.74370 0.05900
H 	H 	0.43400 0.29450 0.72270 -0.00800
C 	C 	0.48440 0.39750 0.53200 -0.93800
H 	H 	0.48210 0.37020 0.52730 0.41900
H 	H 	0.50980 0.40250 0.54210 -0.10500
C 	C 	0.47570 0.37410 0.83990 0.02100
H 	H 	0.49300 0.35620 0.85430 0.04600
H 	H 	0.45400 0.38160 0.85720 0.00700
N 	N 	0.45140 0.47030 0.80020 -0.10800
N 	N 	0.40750 0.42240 0.70650 -0.23800
N 	N 	0.42860 0.40030 0.62670 -0.17800
N 	N 	0.44100 0.34930 0.73880 -0.22800
O 	O 	0.49670 0.40790 0.82820 -0.34500
H 	H 	0.50700 0.42800 0.82000 0.24500
O 	O 	0.48250 0.41950 0.49850 -1.02800
H 	H 	0.47700 0.43870 0.48400 0.40300
H 	H 	0.50670 0.38800 0.54550 0.32200
H 	H 	0.49220 0.42010 0.51780 0.90700
C 	C 	0.46470 0.38180 0.83740 0.04900
H 	H 	0.47040 0.36720 0.86140 0.00500
H 	H 	0.44060 0.39680 0.84130 0.02900
O 	O 	0.47180 0.37030 0.50420 -0.19200
H 	H 	0.48600 0.35020 0.50700 0.04100
C 	C 	0.42530 0.51880 0.71720 -0.04600
C 	C 	0.39480 0.55120 0.77880 -0.02200
C 	C 	0.45520 0.60630 0.90020 -0.17100
H 	H 	0.47690 0.62170 0.89340 0.06600
C 	C 	0.45310 0.59180 0.93840 0.34100
C 	C 	0.42260 0.56840 0.94770 -0.28900
H 	H 	0.42040 0.55740 0.97280 0.16200
C 	C 	0.39460 0.56120 0.91960 0.07200
H 	H 	0.37310 0.54510 0.92540 0.01000
C 	C 	0.39820 0.57750 0.88320 -0.05300
H 	H 	0.37850 0.57290 0.86450 0.03100
C 	C 	0.44940 0.62810 0.73010 0.02200
H 	H 	0.44780 0.60060 0.73190 0.02300
C 	C 	0.46030 0.64540 0.69600 -0.02400
C 	C 	0.46130 0.68500 0.69220 -0.00100
H 	H 	0.46850 0.69670 0.66830 0.03100
C 	C 	0.45210 0.70610 0.72210 -0.09800
H 	H 	0.45290 0.73350 0.72010 0.07000
C 	C 	0.44140 0.68930 0.75630 0.05900
H 	H 	0.43400 0.70550 0.77730 -0.00800
C 	C 	0.48440 0.60250 0.96800 -0.94800
H 	H 	0.48210 0.62980 0.97270 0.42000
H 	H 	0.50980 0.59750 0.95790 -0.10800
C 	C 	0.47570 0.62590 0.66010 0.02100
H 	H 	0.49300 0.64380 0.64570 0.04600
H 	H 	0.45400 0.61840 0.64280 0.00700
N 	N 	0.45140 0.52970 0.69980 -0.10800
N 	N 	0.40750 0.57760 0.79350 -0.23800
N 	N 	0.42860 0.59970 0.87330 -0.17700
N 	N 	0.44100 0.65070 0.76120 -0.22800
O 	O 	0.49670 0.59210 0.67180 -0.34500
H 	H 	0.50700 0.57200 0.68000 0.24500
O 	O 	0.48250 0.58050 0.00150 -1.04400
H 	H 	0.47700 0.56130 0.01600 0.40700
H 	H 	0.50670 0.61200 0.95450 0.32700
H 	H 	0.49220 0.57990 0.98220 0.92000
C 	C 	0.46470 0.61820 0.66260 0.04900
H 	H 	0.47040 0.63280 0.63860 0.00500
H 	H 	0.44060 0.60320 0.65870 0.02900
O 	O 	0.47180 0.62970 0.99580 -0.18700
H 	H 	0.48600 0.64980 0.99300 0.04000
C 	C 	0.92530 0.01880 0.21720 -0.04700
C 	C 	0.89480 0.05120 0.27880 -0.02200
C 	C 	0.95520 0.10630 0.40020 -0.16600
H 	H 	0.97690 0.12170 0.39340 0.06500
C 	C 	0.95310 0.09180 0.43840 0.33200
C 	C 	0.92260 0.06840 0.44770 -0.28200
H 	H 	0.92040 0.05740 0.47280 0.15800
C 	C 	0.89460 0.06120 0.41960 0.06700
H 	H 	0.87310 0.04510 0.42540 0.01000
C 	C 	0.89820 0.07750 0.38320 -0.05100
H 	H 	0.87850 0.07290 0.36450 0.03000
C 	C 	0.94940 0.12810 0.23010 0.02100
H 	H 	0.94780 0.10060 0.23190 0.02400
C 	C 	0.96030 0.14540 0.19600 -0.02300
C 	C 	0.96130 0.18500 0.19220 -0.00200
H 	H 	0.96850 0.19670 0.16830 0.03200
C 	C 	0.95210 0.20610 0.22210 -0.09700
H 	H 	0.95290 0.23350 0.22010 0.07100
C 	C 	0.94140 0.18930 0.25630 0.06000
H 	H 	0.93400 0.20550 0.27730 -0.00800
C 	C 	0.98440 0.10250 0.46800 -0.92000
H 	H 	0.98210 0.12980 0.47270 0.41400
H 	H 	0.00980 0.09750 0.45790 -0.10800
C 	C 	0.97570 0.12590 0.16010 0.01900
H 	H 	0.99300 0.14380 0.14570 0.04700
H 	H 	0.95400 0.11840 0.14280 0.00800
N 	N 	0.95140 0.02970 0.19980 -0.10800
N 	N 	0.90750 0.07760 0.29350 -0.23800
N 	N 	0.92860 0.09970 0.37330 -0.17900
N 	N 	0.94100 0.15070 0.26120 -0.22800
O 	O 	0.99670 0.09210 0.17180 -0.33900
H 	H 	0.00700 0.07200 0.18000 0.23900
O 	O 	0.98250 0.08050 0.50150 -1.02600
H 	H 	0.97700 0.06130 0.51600 0.40200
H 	H 	0.00670 0.11200 0.45450 0.31700
H 	H 	0.99220 0.07990 0.48220 0.90100
C 	C 	0.96470 0.11820 0.16260 0.04700
H 	H 	0.97040 0.13280 0.13860 0.00500
H 	H 	0.94060 0.10320 0.15870 0.02900
O 	O 	0.97180 0.12970 0.49580 -0.19400
H 	H 	0.98600 0.14980 0.49300 0.04400
C 	C 	0.57470 0.01880 0.78280 -0.04700
C 	C 	0.60520 0.05120 0.72120 -0.02200
C 	C 	0.54480 0.10630 0.59980 -0.16900
H 	H 	0.52310 0.12170 0.60660 0.06500
C 	C 	0.54690 0.09180 0.56160 0.33700
C 	C 	0.57740 0.06840 0.55230 -0.28600
H 	H 	0.57960 0.05740 0.52720 0.15900
C 	C 	0.60540 0.06120 0.58040 0.07000
H 	H 	0.62690 0.04510 0.57460 0.00900
C 	C 	0.60180 0.07750 0.61680 -0.05300
H 	H 	0.62150 0.07290 0.63550 0.03000
C 	C 	0.55060 0.12810 0.76990 0.02200
H 	H 	0.55220 0.10060 0.76810 0.02300
C 	C 	0.53970 0.14540 0.80400 -0.02400
C 	C 	0.53870 0.18500 0.80780 -0.00100
H 	H 	0.53150 0.19670 0.83170 0.03100
C 	C 	0.54790 0.20610 0.77790 -0.09700
H 	H 	0.54710 0.23350 0.77990 0.07000
C 	C 	0.55860 0.18930 0.74370 0.05900
H 	H 	0.56600 0.20550 0.72270 -0.00800
C 	C 	0.51560 0.10250 0.53200 -0.93800
H 	H 	0.51790 0.12980 0.52730 0.41900
H 	H 	0.49020 0.09750 0.54210 -0.10500
C 	C 	0.52430 0.12590 0.83990 0.02100
H 	H 	0.50700 0.14380 0.85430 0.04600
H 	H 	0.54600 0.11840 0.85720 0.00700
N 	N 	0.54860 0.02970 0.80020 -0.10900
N 	N 	0.59250 0.07760 0.70650 -0.23800
N 	N 	0.57140 0.09970 0.62670 -0.17800
N 	N 	0.55900 0.15070 0.73880 -0.22800
O 	O 	0.50330 0.09210 0.82820 -0.34500
H 	H 	0.49300 0.07200 0.82000 0.24500
O 	O 	0.51750 0.08050 0.49850 -1.02700
H 	H 	0.52300 0.06130 0.48400 0.40200
H 	H 	0.49330 0.11200 0.54550 0.32200
H 	H 	0.50780 0.07990 0.51780 0.90600
C 	C 	0.53530 0.11820 0.83740 0.04900
H 	H 	0.52960 0.13280 0.86140 0.00500
H 	H 	0.55940 0.10320 0.84130 0.02900
O 	O 	0.52820 0.12970 0.50420 -0.19200
H 	H 	0.51400 0.14980 0.50700 0.04100
C 	C 	0.07470 0.51880 0.28280 -0.04600
C 	C 	0.10520 0.55120 0.22120 -0.02200
C 	C 	0.04480 0.60630 0.09980 -0.17100
H 	H 	0.02310 0.62170 0.10660 0.06500
C 	C 	0.04690 0.59180 0.06160 0.33900
C 	C 	0.07740 0.56840 0.05230 -0.28700
H 	H 	0.07960 0.55740 0.02720 0.15900
C 	C 	0.10540 0.56120 0.08040 0.07000
H 	H 	0.12690 0.54510 0.07460 0.01000
C 	C 	0.10180 0.57750 0.11680 -0.05300
H 	H 	0.12150 0.57290 0.13550 0.03100
C 	C 	0.05060 0.62810 0.26990 0.02200
H 	H 	0.05220 0.60060 0.26810 0.02300
C 	C 	0.03970 0.64540 0.30400 -0.02600
C 	C 	0.03870 0.68500 0.30780 -0.00000
H 	H 	0.03150 0.69670 0.33170 0.03000
C 	C 	0.04790 0.70610 0.27790 -0.09800
H 	H 	0.04710 0.73350 0.27990 0.07000
C 	C 	0.05860 0.68930 0.24370 0.05900
H 	H 	0.06600 0.70550 0.22270 -0.00800
C 	C 	0.01560 0.60250 0.03200 -0.94700
H 	H 	0.01790 0.62980 0.02730 0.42200
H 	H 	0.99020 0.59750 0.04210 -0.09900
C 	C 	0.02430 0.62590 0.33990 0.02200
H 	H 	0.00700 0.64380 0.35430 0.04500
H 	H 	0.04600 0.61840 0.35720 0.00600
N 	N 	0.04860 0.52970 0.30020 -0.10900
N 	N 	0.09250 0.57760 0.20650 -0.23800
N 	N 	0.07140 0.59970 0.12670 -0.17800
N 	N 	0.05900 0.65070 0.23880 -0.22900
O 	O 	0.00330 0.59210 0.32820 -0.35100
H 	H 	0.99300 0.57200 0.32000 0.25100
O 	O 	0.01750 0.58050 0.99850 -1.01400
H 	H 	0.02300 0.56130 0.98400 0.39700
H 	H 	0.99330 0.61200 0.04550 0.32100
H 	H 	0.00780 0.57990 0.01780 0.89900
C 	C 	0.03530 0.61820 0.33740 0.05000
H 	H 	0.02960 0.63280 0.36140 0.00400
H 	H 	0.05940 0.60320 0.34130 0.02900
O 	O 	0.02820 0.62970 0.00420 -0.19500
H 	H 	0.01400 0.64980 0.00700 0.03900
C 	C 	0.07470 0.48120 0.21720 -0.04600
C 	C 	0.10520 0.44880 0.27880 -0.02200
C 	C 	0.04480 0.39370 0.40020 -0.17300
H 	H 	0.02310 0.37830 0.39340 0.06500
C 	C 	0.04690 0.40820 0.43840 0.34300
C 	C 	0.07740 0.43160 0.44770 -0.29000
H 	H 	0.07960 0.44260 0.47280 0.16100
C 	C 	0.10540 0.43880 0.41960 0.07200
H 	H 	0.12690 0.45490 0.42540 0.00900
C 	C 	0.10180 0.42250 0.38320 -0.05400
H 	H 	0.12150 0.42710 0.36450 0.03100
C 	C 	0.05060 0.37190 0.23010 0.02200
H 	H 	0.05220 0.39940 0.23190 0.02300
C 	C 	0.03970 0.35460 0.19600 -0.02600
C 	C 	0.03870 0.31500 0.19220 -0.00000
H 	H 	0.03150 0.30330 0.16830 0.03000
C 	C 	0.04790 0.29390 0.22210 -0.09800
H 	H 	0.04710 0.26650 0.22010 0.07000
C 	C 	0.05860 0.31070 0.25630 0.05900
H 	H 	0.06600 0.29450 0.27730 -0.00800
C 	C 	0.01560 0.39750 0.46800 -0.95600
H 	H 	0.01790 0.37020 0.47270 0.42400
H 	H 	0.99020 0.40250 0.45790 -0.10200
C 	C 	0.02430 0.37410 0.16010 0.02200
H 	H 	0.00700 0.35620 0.14570 0.04500
H 	H 	0.04600 0.38160 0.14280 0.00600
N 	N 	0.04860 0.47030 0.19980 -0.10900
N 	N 	0.09250 0.42240 0.29350 -0.23800
N 	N 	0.07140 0.40030 0.37330 -0.17700
N 	N 	0.05900 0.34930 0.26120 -0.22900
O 	O 	0.00330 0.40790 0.17180 -0.35100
H 	H 	0.99300 0.42800 0.18000 0.25100
O 	O 	0.01750 0.41950 0.50150 -1.03000
H 	H 	0.02300 0.43870 0.51600 0.40200
H 	H 	0.99330 0.38800 0.45450 0.32700
H 	H 	0.00780 0.42010 0.48220 0.91200
C 	C 	0.03530 0.38180 0.16260 0.05000
H 	H 	0.02960 0.36720 0.13860 0.00400
H 	H 	0.05940 0.39680 0.15870 0.02900
O 	O 	0.02820 0.37030 0.49580 -0.19000
H 	H 	0.01400 0.35020 0.49300 0.03800
C 	C 	0.57470 0.98120 0.71720 -0.04300
C 	C 	0.60520 0.94880 0.77880 -0.01900
C 	C 	0.54480 0.89370 0.90020 -0.17100
H 	H 	0.52310 0.87830 0.89340 0.06600
C 	C 	0.54690 0.90820 0.93840 0.34200
C 	C 	0.57740 0.93160 0.94770 -0.28900
H 	H 	0.57960 0.94260 0.97280 0.16200
C 	C 	0.60540 0.93880 0.91960 0.07100
H 	H 	0.62690 0.95490 0.92540 0.01000
C 	C 	0.60180 0.92250 0.88320 -0.05300
H 	H 	0.62150 0.92710 0.86450 0.03100
C 	C 	0.55060 0.87190 0.73010 0.02200
H 	H 	0.55220 0.89940 0.73190 0.02300
C 	C 	0.53970 0.85460 0.69600 -0.02400
C 	C 	0.53870 0.81500 0.69220 -0.00100
H 	H 	0.53150 0.80330 0.66830 0.03100
C 	C 	0.54790 0.79390 0.72210 -0.09800
H 	H 	0.54710 0.76650 0.72010 0.07000
C 	C 	0.55860 0.81070 0.75630 0.05900
H 	H 	0.56600 0.79450 0.77730 -0.00800
C 	C 	0.51560 0.89750 0.96800 -0.94800
H 	H 	0.51790 0.87020 0.97270 0.42100
H 	H 	0.49020 0.90250 0.95790 -0.10800
C 	C 	0.52430 0.87410 0.66010 0.02100
H 	H 	0.50700 0.85620 0.64570 0.04600
H 	H 	0.54600 0.88160 0.64280 0.00700
N 	N 	0.54860 0.97030 0.69980 -0.10800
N 	N 	0.59250 0.92240 0.79350 -0.23800
N 	N 	0.57140 0.90030 0.87330 -0.17700
N 	N 	0.55900 0.84930 0.76120 -0.22800
O 	O 	0.50330 0.90790 0.67180 -0.34500
H 	H 	0.49300 0.92800 0.68000 0.24600
O 	O 	0.51750 0.91950 0.00150 -1.04400
H 	H 	0.52300 0.93870 0.01600 0.40800
H 	H 	0.49330 0.88800 0.95450 0.32700
H 	H 	0.50780 0.92010 0.98220 0.92000
C 	C 	0.53530 0.88180 0.66260 0.04900
H 	H 	0.52960 0.86720 0.63860 0.00500
H 	H 	0.55940 0.89680 0.65870 0.02900
O 	O 	0.52820 0.87030 0.99580 -0.18700
H 	H 	0.51400 0.85020 0.99300 0.04000
C 	C 	0.28280 0.92530 0.98120 -0.04200
C 	C 	0.22120 0.89480 0.94880 -0.01900
C 	C 	0.09980 0.95520 0.89370 -0.16400
H 	H 	0.10660 0.97690 0.87830 0.06400
C 	C 	0.06160 0.95310 0.90820 0.32800
C 	C 	0.05230 0.92260 0.93160 -0.27900
H 	H 	0.02720 0.92040 0.94260 0.15600
C 	C 	0.08040 0.89460 0.93880 0.06500
H 	H 	0.07460 0.87310 0.95490 0.01200
C 	C 	0.11680 0.89820 0.92250 -0.05000
H 	H 	0.13550 0.87850 0.92710 0.03000
C 	C 	0.26990 0.94940 0.87190 0.02100
H 	H 	0.26810 0.94780 0.89940 0.02400
C 	C 	0.30400 0.96030 0.85460 -0.02300
C 	C 	0.30780 0.96130 0.81500 -0.00200
H 	H 	0.33170 0.96850 0.80330 0.03200
C 	C 	0.27790 0.95210 0.79390 -0.09700
H 	H 	0.27990 0.95290 0.76650 0.07100
C 	C 	0.24370 0.94140 0.81070 0.06000
H 	H 	0.22270 0.93400 0.79450 -0.00800
C 	C 	0.03200 0.98440 0.89750 -0.91200
H 	H 	0.02730 0.98210 0.87020 0.41300
H 	H 	0.04210 0.00980 0.90250 -0.10400
C 	C 	0.33990 0.97570 0.87410 0.01900
H 	H 	0.35430 0.99300 0.85620 0.04700
H 	H 	0.35720 0.95400 0.88160 0.00800
N 	N 	0.30020 0.95140 0.97030 -0.10800
N 	N 	0.20650 0.90750 0.92240 -0.23800
N 	N 	0.12670 0.92860 0.90030 -0.17900
N 	N 	0.23880 0.94100 0.84930 -0.22800
O 	O 	0.32820 0.99670 0.90790 -0.33900
H 	H 	0.32000 0.00700 0.92800 0.24000
O 	O 	0.99850 0.98250 0.91950 -1.01100
H 	H 	0.98400 0.97700 0.93870 0.39900
H 	H 	0.04550 0.00670 0.88800 0.31200
H 	H 	0.01780 0.99220 0.92010 0.88900
C 	C 	0.33740 0.96470 0.88180 0.04700
H 	H 	0.36140 0.97040 0.86720 0.00500
H 	H 	0.34130 0.94060 0.89680 0.02900
O 	O 	0.00420 0.97180 0.87030 -0.19800
H 	H 	0.00700 0.98600 0.85020 0.04500
C 	C 	0.78280 0.42530 0.48120 -0.04600
C 	C 	0.72120 0.39480 0.44880 -0.02200
C 	C 	0.59980 0.45520 0.39370 -0.16900
H 	H 	0.60660 0.47690 0.37830 0.06500
C 	C 	0.56160 0.45310 0.40820 0.33800
C 	C 	0.55230 0.42260 0.43160 -0.28600
H 	H 	0.52720 0.42040 0.44260 0.15900
C 	C 	0.58040 0.39460 0.43880 0.07000
H 	H 	0.57460 0.37310 0.45490 0.01000
C 	C 	0.61680 0.39820 0.42250 -0.05200
H 	H 	0.63550 0.37850 0.42710 0.03100
C 	C 	0.76990 0.44940 0.37190 0.02200
H 	H 	0.76810 0.44780 0.39940 0.02300
C 	C 	0.80400 0.46030 0.35460 -0.02400
C 	C 	0.80780 0.46130 0.31500 -0.00100
H 	H 	0.83170 0.46850 0.30330 0.03100
C 	C 	0.77790 0.45210 0.29390 -0.09700
H 	H 	0.77990 0.45290 0.26650 0.07000
C 	C 	0.74370 0.44140 0.31070 0.05900
H 	H 	0.72270 0.43400 0.29450 -0.00800
C 	C 	0.53200 0.48440 0.39750 -0.93800
H 	H 	0.52730 0.48210 0.37020 0.41900
H 	H 	0.54210 0.50980 0.40250 -0.10500
C 	C 	0.83990 0.47570 0.37410 0.02100
H 	H 	0.85430 0.49300 0.35620 0.04600
H 	H 	0.85720 0.45400 0.38160 0.00700
N 	N 	0.80020 0.45140 0.47030 -0.10800
N 	N 	0.70650 0.40750 0.42240 -0.23800
N 	N 	0.62670 0.42860 0.40030 -0.17800
N 	N 	0.73880 0.44100 0.34930 -0.22800
O 	O 	0.82820 0.49670 0.40790 -0.34500
H 	H 	0.82000 0.50700 0.42800 0.24500
O 	O 	0.49850 0.48250 0.41950 -1.02800
H 	H 	0.48400 0.47700 0.43870 0.40300
H 	H 	0.54550 0.50670 0.38800 0.32200
H 	H 	0.51780 0.49220 0.42010 0.90700
C 	C 	0.83740 0.46470 0.38180 0.04900
H 	H 	0.86140 0.47040 0.36720 0.00500
H 	H 	0.84130 0.44060 0.39680 0.02900
O 	O 	0.50420 0.47180 0.37030 -0.19200
H 	H 	0.50700 0.48600 0.35020 0.04100
C 	C 	0.71720 0.42530 0.51880 -0.04600
C 	C 	0.77880 0.39480 0.55120 -0.02200
C 	C 	0.90020 0.45520 0.60630 -0.17100
H 	H 	0.89340 0.47690 0.62170 0.06600
C 	C 	0.93840 0.45310 0.59180 0.34100
C 	C 	0.94770 0.42260 0.56840 -0.28900
H 	H 	0.97280 0.42040 0.55740 0.16200
C 	C 	0.91960 0.39460 0.56120 0.07200
H 	H 	0.92540 0.37310 0.54510 0.01000
C 	C 	0.88320 0.39820 0.57750 -0.05300
H 	H 	0.86450 0.37850 0.57290 0.03100
C 	C 	0.73010 0.44940 0.62810 0.02200
H 	H 	0.73190 0.44780 0.60060 0.02300
C 	C 	0.69600 0.46030 0.64540 -0.02400
C 	C 	0.69220 0.46130 0.68500 -0.00100
H 	H 	0.66830 0.46850 0.69670 0.03100
C 	C 	0.72210 0.45210 0.70610 -0.09800
H 	H 	0.72010 0.45290 0.73350 0.07000
C 	C 	0.75630 0.44140 0.68930 0.05900
H 	H 	0.77730 0.43400 0.70550 -0.00800
C 	C 	0.96800 0.48440 0.60250 -0.94800
H 	H 	0.97270 0.48210 0.62980 0.42000
H 	H 	0.95790 0.50980 0.59750 -0.10800
C 	C 	0.66010 0.47570 0.62590 0.02100
H 	H 	0.64570 0.49300 0.64380 0.04600
H 	H 	0.64280 0.45400 0.61840 0.00700
N 	N 	0.69980 0.45140 0.52970 -0.10800
N 	N 	0.79350 0.40750 0.57760 -0.23800
N 	N 	0.87330 0.42860 0.59970 -0.17700
N 	N 	0.76120 0.44100 0.65070 -0.22800
O 	O 	0.67180 0.49670 0.59210 -0.34500
H 	H 	0.68000 0.50700 0.57200 0.24500
O 	O 	0.00150 0.48250 0.58050 -1.04400
H 	H 	0.01600 0.47700 0.56130 0.40700
H 	H 	0.95450 0.50670 0.61200 0.32700
H 	H 	0.98220 0.49220 0.57990 0.92000
C 	C 	0.66260 0.46470 0.61820 0.04900
H 	H 	0.63860 0.47040 0.63280 0.00500
H 	H 	0.65870 0.44060 0.60320 0.02900
O 	O 	0.99580 0.47180 0.62970 -0.18700
H 	H 	0.99300 0.48600 0.64980 0.04000
C 	C 	0.21720 0.92530 0.01880 -0.04700
C 	C 	0.27880 0.89480 0.05120 -0.02200
C 	C 	0.40020 0.95520 0.10630 -0.16600
H 	H 	0.39340 0.97690 0.12170 0.06500
C 	C 	0.43840 0.95310 0.09180 0.33200
C 	C 	0.44770 0.92260 0.06840 -0.28200
H 	H 	0.47280 0.92040 0.05740 0.15800
C 	C 	0.41960 0.89460 0.06120 0.06700
H 	H 	0.42540 0.87310 0.04510 0.01000
C 	C 	0.38320 0.89820 0.07750 -0.05100
H 	H 	0.36450 0.87850 0.07290 0.03000
C 	C 	0.23010 0.94940 0.12810 0.02100
H 	H 	0.23190 0.94780 0.10060 0.02400
C 	C 	0.19600 0.96030 0.14540 -0.02300
C 	C 	0.19220 0.96130 0.18500 -0.00200
H 	H 	0.16830 0.96850 0.19670 0.03200
C 	C 	0.22210 0.95210 0.20610 -0.09700
H 	H 	0.22010 0.95290 0.23350 0.07100
C 	C 	0.25630 0.94140 0.18930 0.06000
H 	H 	0.27730 0.93400 0.20550 -0.00800
C 	C 	0.46800 0.98440 0.10250 -0.92000
H 	H 	0.47270 0.98210 0.12980 0.41400
H 	H 	0.45790 0.00980 0.09750 -0.10800
C 	C 	0.16010 0.97570 0.12590 0.01900
H 	H 	0.14570 0.99300 0.14380 0.04700
H 	H 	0.14280 0.95400 0.11840 0.00800
N 	N 	0.19980 0.95140 0.02970 -0.10800
N 	N 	0.29350 0.90750 0.07760 -0.23800
N 	N 	0.37330 0.92860 0.09970 -0.17900
N 	N 	0.26120 0.94100 0.15070 -0.22800
O 	O 	0.17180 0.99670 0.09210 -0.33900
H 	H 	0.18000 0.00700 0.07200 0.23900
O 	O 	0.50150 0.98250 0.08050 -1.02600
H 	H 	0.51600 0.97700 0.06130 0.40200
H 	H 	0.45450 0.00670 0.11200 0.31700
H 	H 	0.48220 0.99220 0.07990 0.90100
C 	C 	0.16260 0.96470 0.11820 0.04700
H 	H 	0.13860 0.97040 0.13280 0.00500
H 	H 	0.15870 0.94060 0.10320 0.02900
O 	O 	0.49580 0.97180 0.12970 -0.19400
H 	H 	0.49300 0.98600 0.14980 0.04400
C 	C 	0.78280 0.57470 0.01880 -0.04700
C 	C 	0.72120 0.60520 0.05120 -0.02200
C 	C 	0.59980 0.54480 0.10630 -0.16900
H 	H 	0.60660 0.52310 0.12170 0.06500
C 	C 	0.56160 0.54690 0.09180 0.33700
C 	C 	0.55230 0.57740 0.06840 -0.28600
H 	H 	0.52720 0.57960 0.05740 0.15900
C 	C 	0.58040 0.60540 0.06120 0.07000
H 	H 	0.57460 0.62690 0.04510 0.00900
C 	C 	0.61680 0.60180 0.07750 -0.05300
H 	H 	0.63550 0.62150 0.07290 0.03000
C 	C 	0.76990 0.55060 0.12810 0.02200
H 	H 	0.76810 0.55220 0.10060 0.02300
C 	C 	0.80400 0.53970 0.14540 -0.02400
C 	C 	0.80780 0.53870 0.18500 -0.00100
H 	H 	0.83170 0.53150 0.19670 0.03100
C 	C 	0.77790 0.54790 0.20610 -0.09700
H 	H 	0.77990 0.54710 0.23350 0.07000
C 	C 	0.74370 0.55860 0.18930 0.05900
H 	H 	0.72270 0.56600 0.20550 -0.00800
C 	C 	0.53200 0.51560 0.10250 -0.93800
H 	H 	0.52730 0.51790 0.12980 0.41900
H 	H 	0.54210 0.49020 0.09750 -0.10500
C 	C 	0.83990 0.52430 0.12590 0.02100
H 	H 	0.85430 0.50700 0.14380 0.04600
H 	H 	0.85720 0.54600 0.11840 0.00700
N 	N 	0.80020 0.54860 0.02970 -0.10900
N 	N 	0.70650 0.59250 0.07760 -0.23800
N 	N 	0.62670 0.57140 0.09970 -0.17800
N 	N 	0.73880 0.55900 0.15070 -0.22800
O 	O 	0.82820 0.50330 0.09210 -0.34500
H 	H 	0.82000 0.49300 0.07200 0.24500
O 	O 	0.49850 0.51750 0.08050 -1.02700
H 	H 	0.48400 0.52300 0.06130 0.40200
H 	H 	0.54550 0.49330 0.11200 0.32200
H 	H 	0.51780 0.50780 0.07990 0.90600
C 	C 	0.83740 0.53530 0.11820 0.04900
H 	H 	0.86140 0.52960 0.13280 0.00500
H 	H 	0.84130 0.55940 0.10320 0.02900
O 	O 	0.50420 0.52820 0.12970 -0.19200
H 	H 	0.50700 0.51400 0.14980 0.04100
C 	C 	0.28280 0.07470 0.51880 -0.04600
C 	C 	0.22120 0.10520 0.55120 -0.02200
C 	C 	0.09980 0.04480 0.60630 -0.17100
H 	H 	0.10660 0.02310 0.62170 0.06500
C 	C 	0.06160 0.04690 0.59180 0.33900
C 	C 	0.05230 0.07740 0.56840 -0.28700
H 	H 	0.02720 0.07960 0.55740 0.15900
C 	C 	0.08040 0.10540 0.56120 0.07000
H 	H 	0.07460 0.12690 0.54510 0.01000
C 	C 	0.11680 0.10180 0.57750 -0.05300
H 	H 	0.13550 0.12150 0.57290 0.03100
C 	C 	0.26990 0.05060 0.62810 0.02200
H 	H 	0.26810 0.05220 0.60060 0.02300
C 	C 	0.30400 0.03970 0.64540 -0.02600
C 	C 	0.30780 0.03870 0.68500 -0.00000
H 	H 	0.33170 0.03150 0.69670 0.03000
C 	C 	0.27790 0.04790 0.70610 -0.09800
H 	H 	0.27990 0.04710 0.73350 0.07000
C 	C 	0.24370 0.05860 0.68930 0.05900
H 	H 	0.22270 0.06600 0.70550 -0.00800
C 	C 	0.03200 0.01560 0.60250 -0.94700
H 	H 	0.02730 0.01790 0.62980 0.42200
H 	H 	0.04210 0.99020 0.59750 -0.09900
C 	C 	0.33990 0.02430 0.62590 0.02200
H 	H 	0.35430 0.00700 0.64380 0.04500
H 	H 	0.35720 0.04600 0.61840 0.00600
N 	N 	0.30020 0.04860 0.52970 -0.10900
N 	N 	0.20650 0.09250 0.57760 -0.23800
N 	N 	0.12670 0.07140 0.59970 -0.17800
N 	N 	0.23880 0.05900 0.65070 -0.22900
O 	O 	0.32820 0.00330 0.59210 -0.35100
H 	H 	0.32000 0.99300 0.57200 0.25100
O 	O 	0.99850 0.01750 0.58050 -1.01400
H 	H 	0.98400 0.02300 0.56130 0.39700
H 	H 	0.04550 0.99330 0.61200 0.32100
H 	H 	0.01780 0.00780 0.57990 0.89900
C 	C 	0.33740 0.03530 0.61820 0.05000
H 	H 	0.36140 0.02960 0.63280 0.00400
H 	H 	0.34130 0.05940 0.60320 0.02900
O 	O 	0.00420 0.02820 0.62970 -0.19500
H 	H 	0.00700 0.01400 0.64980 0.03900
C 	C 	0.21720 0.07470 0.48120 -0.04600
C 	C 	0.27880 0.10520 0.44880 -0.02200
C 	C 	0.40020 0.04480 0.39370 -0.17300
H 	H 	0.39340 0.02310 0.37830 0.06500
C 	C 	0.43840 0.04690 0.40820 0.34300
C 	C 	0.44770 0.07740 0.43160 -0.29000
H 	H 	0.47280 0.07960 0.44260 0.16100
C 	C 	0.41960 0.10540 0.43880 0.07200
H 	H 	0.42540 0.12690 0.45490 0.00900
C 	C 	0.38320 0.10180 0.42250 -0.05400
H 	H 	0.36450 0.12150 0.42710 0.03100
C 	C 	0.23010 0.05060 0.37190 0.02200
H 	H 	0.23190 0.05220 0.39940 0.02300
C 	C 	0.19600 0.03970 0.35460 -0.02600
C 	C 	0.19220 0.03870 0.31500 -0.00000
H 	H 	0.16830 0.03150 0.30330 0.03000
C 	C 	0.22210 0.04790 0.29390 -0.09800
H 	H 	0.22010 0.04710 0.26650 0.07000
C 	C 	0.25630 0.05860 0.31070 0.05900
H 	H 	0.27730 0.06600 0.29450 -0.00800
C 	C 	0.46800 0.01560 0.39750 -0.95600
H 	H 	0.47270 0.01790 0.37020 0.42400
H 	H 	0.45790 0.99020 0.40250 -0.10200
C 	C 	0.16010 0.02430 0.37410 0.02200
H 	H 	0.14570 0.00700 0.35620 0.04500
H 	H 	0.14280 0.04600 0.38160 0.00600
N 	N 	0.19980 0.04860 0.47030 -0.10900
N 	N 	0.29350 0.09250 0.42240 -0.23800
N 	N 	0.37330 0.07140 0.40030 -0.17700
N 	N 	0.26120 0.05900 0.34930 -0.22900
O 	O 	0.17180 0.00330 0.40790 -0.35100
H 	H 	0.18000 0.99300 0.42800 0.25100
O 	O 	0.50150 0.01750 0.41950 -1.03000
H 	H 	0.51600 0.02300 0.43870 0.40200
H 	H 	0.45450 0.99330 0.38800 0.32700
H 	H 	0.48220 0.00780 0.42010 0.91200
C 	C 	0.16260 0.03530 0.38180 0.05000
H 	H 	0.13860 0.02960 0.36720 0.00400
H 	H 	0.15870 0.05940 0.39680 0.02900
O 	O 	0.49580 0.02820 0.37030 -0.19000
H 	H 	0.49300 0.01400 0.35020 0.03800
C 	C 	0.71720 0.57470 0.98120 -0.04300
C 	C 	0.77880 0.60520 0.94880 -0.01900
C 	C 	0.90020 0.54480 0.89370 -0.17100
H 	H 	0.89340 0.52310 0.87830 0.06600
C 	C 	0.93840 0.54690 0.90820 0.34200
C 	C 	0.94770 0.57740 0.93160 -0.28900
H 	H 	0.97280 0.57960 0.94260 0.16200
C 	C 	0.91960 0.60540 0.93880 0.07100
H 	H 	0.92540 0.62690 0.95490 0.01000
C 	C 	0.88320 0.60180 0.92250 -0.05300
H 	H 	0.86450 0.62150 0.92710 0.03100
C 	C 	0.73010 0.55060 0.87190 0.02200
H 	H 	0.73190 0.55220 0.89940 0.02300
C 	C 	0.69600 0.53970 0.85460 -0.02400
C 	C 	0.69220 0.53870 0.81500 -0.00100
H 	H 	0.66830 0.53150 0.80330 0.03100
C 	C 	0.72210 0.54790 0.79390 -0.09800
H 	H 	0.72010 0.54710 0.76650 0.07000
C 	C 	0.75630 0.55860 0.81070 0.05900
H 	H 	0.77730 0.56600 0.79450 -0.00800
C 	C 	0.96800 0.51560 0.89750 -0.94800
H 	H 	0.97270 0.51790 0.87020 0.42100
H 	H 	0.95790 0.49020 0.90250 -0.10800
C 	C 	0.66010 0.52430 0.87410 0.02100
H 	H 	0.64570 0.50700 0.85620 0.04600
H 	H 	0.64280 0.54600 0.88160 0.00700
N 	N 	0.69980 0.54860 0.97030 -0.10800
N 	N 	0.79350 0.59250 0.92240 -0.23800
N 	N 	0.87330 0.57140 0.90030 -0.17700
N 	N 	0.76120 0.55900 0.84930 -0.22800
O 	O 	0.67180 0.50330 0.90790 -0.34500
H 	H 	0.68000 0.49300 0.92800 0.24600
O 	O 	0.00150 0.51750 0.91950 -1.04400
H 	H 	0.01600 0.52300 0.93870 0.40800
H 	H 	0.95450 0.49330 0.88800 0.32700
H 	H 	0.98220 0.50780 0.92010 0.92000
C 	C 	0.66260 0.53530 0.88180 0.04900
H 	H 	0.63860 0.52960 0.86720 0.00500
H 	H 	0.65870 0.55940 0.89680 0.02900
O 	O 	0.99580 0.52820 0.87030 -0.18700
H 	H 	0.99300 0.51400 0.85020 0.04000
C 	C 	0.53280 0.73120 0.82470 -0.04600
C 	C 	0.47120 0.69880 0.85520 -0.02200
C 	C 	0.34980 0.64370 0.79480 -0.16900
H 	H 	0.35660 0.62830 0.77310 0.06500
C 	C 	0.31160 0.65820 0.79690 0.33800
C 	C 	0.30230 0.68160 0.82740 -0.28600
H 	H 	0.27720 0.69260 0.82960 0.15900
C 	C 	0.33040 0.68880 0.85540 0.07000
H 	H 	0.32460 0.70490 0.87690 0.01000
C 	C 	0.36680 0.67250 0.85180 -0.05200
H 	H 	0.38550 0.67710 0.87150 0.03100
C 	C 	0.51990 0.62190 0.80060 0.02200
H 	H 	0.51810 0.64940 0.80220 0.02300
C 	C 	0.55400 0.60460 0.78970 -0.02400
C 	C 	0.55780 0.56500 0.78870 -0.00100
H 	H 	0.58170 0.55330 0.78150 0.03100
C 	C 	0.52790 0.54390 0.79790 -0.09800
H 	H 	0.52990 0.51650 0.79710 0.07000
C 	C 	0.49370 0.56070 0.80860 0.05900
H 	H 	0.47270 0.54450 0.81600 -0.00800
C 	C 	0.28200 0.64750 0.76560 -0.93800
H 	H 	0.27730 0.62020 0.76790 0.41900
H 	H 	0.29210 0.65250 0.74020 -0.10500
C 	C 	0.58990 0.62410 0.77430 0.02100
H 	H 	0.60430 0.60620 0.75700 0.04600
H 	H 	0.60720 0.63160 0.79600 0.00700
N 	N 	0.55020 0.72030 0.79860 -0.10800
N 	N 	0.45650 0.67240 0.84250 -0.23800
N 	N 	0.37670 0.65030 0.82140 -0.17800
N 	N 	0.48880 0.59930 0.80900 -0.22800
O 	O 	0.57820 0.65790 0.75330 -0.34500
H 	H 	0.57000 0.67800 0.74300 0.24500
O 	O 	0.24850 0.66950 0.76750 -1.02800
H 	H 	0.23400 0.68870 0.77300 0.40300
H 	H 	0.29550 0.63800 0.74330 0.32200
H 	H 	0.26780 0.67010 0.75780 0.90700
C 	C 	0.58740 0.63180 0.78530 0.04900
H 	H 	0.61140 0.61720 0.77960 0.00500
H 	H 	0.59130 0.64680 0.80940 0.02900
O 	O 	0.25420 0.62030 0.77820 -0.19200
H 	H 	0.25700 0.60020 0.76400 0.04100
C 	C 	0.03280 0.23120 0.32470 -0.04600
C 	C 	0.97120 0.19880 0.35520 -0.01900
C 	C 	0.84980 0.14370 0.29480 -0.16900
H 	H 	0.85660 0.12830 0.27310 0.06500
C 	C 	0.81160 0.15820 0.29690 0.33800
C 	C 	0.80230 0.18160 0.32740 -0.28600
H 	H 	0.77720 0.19260 0.32960 0.15900
C 	C 	0.83040 0.18880 0.35540 0.07000
H 	H 	0.82460 0.20490 0.37690 0.01000
C 	C 	0.86680 0.17250 0.35180 -0.05200
H 	H 	0.88550 0.17710 0.37150 0.03100
C 	C 	0.01990 0.12190 0.30060 0.01900
H 	H 	0.01810 0.14940 0.30220 0.02300
C 	C 	0.05400 0.10460 0.28970 -0.02600
C 	C 	0.05780 0.06500 0.28870 0.00400
H 	H 	0.08170 0.05330 0.28150 0.02900
C 	C 	0.02790 0.04390 0.29790 -0.10700
H 	H 	0.02990 0.01650 0.29710 0.07100
C 	C 	0.99370 0.06070 0.30860 0.06700
H 	H 	0.97270 0.04450 0.31600 -0.01100
C 	C 	0.78200 0.14750 0.26560 -0.93800
H 	H 	0.77730 0.12020 0.26790 0.41900
H 	H 	0.79210 0.15250 0.24020 -0.10500
C 	C 	0.08990 0.12410 0.27430 0.02100
H 	H 	0.10430 0.10620 0.25700 0.04500
H 	H 	0.10720 0.13160 0.29600 0.00700
N 	N 	0.05020 0.22030 0.29860 -0.10800
N 	N 	0.95650 0.17240 0.34250 -0.23800
N 	N 	0.87670 0.15030 0.32140 -0.17800
N 	N 	0.98880 0.09930 0.30900 -0.22800
O 	O 	0.07820 0.15790 0.25330 -0.34500
H 	H 	0.07000 0.17800 0.24300 0.24500
O 	O 	0.74850 0.16950 0.26750 -1.02800
H 	H 	0.73400 0.18870 0.27300 0.40300
H 	H 	0.79550 0.13800 0.24330 0.32200
H 	H 	0.76780 0.17010 0.25780 0.90700
C 	C 	0.08740 0.13180 0.28530 0.04900
H 	H 	0.11140 0.11720 0.27960 0.00400
H 	H 	0.09130 0.14680 0.30940 0.02900
O 	O 	0.75420 0.12030 0.27820 -0.19200
H 	H 	0.75700 0.10020 0.26400 0.04100
C 	C 	0.96720 0.26880 0.32470 -0.04300
C 	C 	0.02880 0.30120 0.35520 -0.02200
C 	C 	0.15020 0.35630 0.29480 -0.16900
H 	H 	0.14340 0.37170 0.27310 0.06500
C 	C 	0.18840 0.34180 0.29690 0.33800
C 	C 	0.19770 0.31840 0.32740 -0.28600
H 	H 	0.22280 0.30740 0.32960 0.15900
C 	C 	0.16960 0.31120 0.35540 0.07000
H 	H 	0.17540 0.29510 0.37690 0.01000
C 	C 	0.13320 0.32750 0.35180 -0.05200
H 	H 	0.11450 0.32290 0.37150 0.03100
C 	C 	0.98010 0.37810 0.30060 0.02400
H 	H 	0.98190 0.35060 0.30220 0.02400
C 	C 	0.94600 0.39540 0.28970 -0.02300
C 	C 	0.94220 0.43500 0.28870 -0.00600
H 	H 	0.91830 0.44670 0.28150 0.03300
C 	C 	0.97210 0.45610 0.29790 -0.08800
H 	H 	0.97010 0.48350 0.29710 0.06800
C 	C 	0.00630 0.43930 0.30860 0.05100
H 	H 	0.02730 0.45550 0.31600 -0.00600
C 	C 	0.21800 0.35250 0.26560 -0.93800
H 	H 	0.22270 0.37980 0.26790 0.41900
H 	H 	0.20790 0.34750 0.24020 -0.10500
C 	C 	0.91010 0.37590 0.27430 0.02000
H 	H 	0.89570 0.39380 0.25700 0.04600
H 	H 	0.89280 0.36840 0.29600 0.00700
N 	N 	0.94980 0.27970 0.29860 -0.10800
N 	N 	0.04350 0.32760 0.34250 -0.23800
N 	N 	0.12330 0.34970 0.32140 -0.17800
N 	N 	0.01120 0.40070 0.30900 -0.22900
O 	O 	0.92180 0.34210 0.25330 -0.34500
H 	H 	0.93000 0.32200 0.24300 0.24600
O 	O 	0.25150 0.33050 0.26750 -1.02800
H 	H 	0.26600 0.31130 0.27300 0.40300
H 	H 	0.20450 0.36200 0.24330 0.32200
H 	H 	0.23220 0.32990 0.25780 0.90700
C 	C 	0.91260 0.36820 0.28530 0.04900
H 	H 	0.88860 0.38280 0.27960 0.00500
H 	H 	0.90870 0.35320 0.30940 0.02900
O 	O 	0.24580 0.37970 0.27820 -0.19200
H 	H 	0.24300 0.39980 0.26400 0.04100
C 	C 	0.46720 0.76880 0.82470 -0.04600
C 	C 	0.52880 0.80120 0.85520 -0.02200
C 	C 	0.65020 0.85630 0.79480 -0.16900
H 	H 	0.64340 0.87170 0.77310 0.06500
C 	C 	0.68840 0.84180 0.79690 0.33700
C 	C 	0.69770 0.81840 0.82740 -0.28600
H 	H 	0.72280 0.80740 0.82960 0.15900
C 	C 	0.66960 0.81120 0.85540 0.07000
H 	H 	0.67540 0.79510 0.87690 0.01000
C 	C 	0.63320 0.82750 0.85180 -0.05200
H 	H 	0.61450 0.82290 0.87150 0.03100
C 	C 	0.48010 0.87810 0.80060 0.02200
H 	H 	0.48190 0.85060 0.80220 0.02300
C 	C 	0.44600 0.89540 0.78970 -0.02400
C 	C 	0.44220 0.93500 0.78870 -0.00100
H 	H 	0.41830 0.94670 0.78150 0.03200
C 	C 	0.47210 0.95610 0.79790 -0.09700
H 	H 	0.47010 0.98350 0.79710 0.07100
C 	C 	0.50630 0.93930 0.80860 0.06000
H 	H 	0.52730 0.95550 0.81600 -0.00700
C 	C 	0.71800 0.85250 0.76560 -0.93800
H 	H 	0.72270 0.87980 0.76790 0.41900
H 	H 	0.70790 0.84750 0.74020 -0.10500
C 	C 	0.41010 0.87590 0.77430 0.02100
H 	H 	0.39570 0.89380 0.75700 0.04600
H 	H 	0.39280 0.86840 0.79600 0.00700
N 	N 	0.44980 0.77970 0.79860 -0.10800
N 	N 	0.54350 0.82760 0.84250 -0.23800
N 	N 	0.62330 0.84970 0.82140 -0.17800
N 	N 	0.51120 0.90070 0.80900 -0.22800
O 	O 	0.42180 0.84210 0.75330 -0.34500
H 	H 	0.43000 0.82200 0.74300 0.24500
O 	O 	0.75150 0.83050 0.76750 -1.02800
H 	H 	0.76600 0.81130 0.77300 0.40300
H 	H 	0.70450 0.86200 0.74330 0.32200
H 	H 	0.73220 0.82990 0.75780 0.90600
C 	C 	0.41260 0.86820 0.78530 0.04900
H 	H 	0.38860 0.88280 0.77960 0.00500
H 	H 	0.40870 0.85320 0.80940 0.02900
O 	O 	0.74580 0.87970 0.77820 -0.19200
H 	H 	0.74300 0.89980 0.76400 0.04100
C 	C 	0.03280 0.76880 0.17530 -0.04600
C 	C 	0.97120 0.80120 0.14480 -0.01900
C 	C 	0.84980 0.85630 0.20520 -0.16900
H 	H 	0.85660 0.87170 0.22690 0.06500
C 	C 	0.81160 0.84180 0.20310 0.33700
C 	C 	0.80230 0.81840 0.17260 -0.28600
H 	H 	0.77720 0.80740 0.17040 0.15900
C 	C 	0.83040 0.81120 0.14460 0.06900
H 	H 	0.82460 0.79510 0.12310 0.01000
C 	C 	0.86680 0.82750 0.14820 -0.05200
H 	H 	0.88550 0.82290 0.12850 0.03100
C 	C 	0.01990 0.87810 0.19940 0.01900
H 	H 	0.01810 0.85060 0.19780 0.02300
C 	C 	0.05400 0.89540 0.21030 -0.02600
C 	C 	0.05780 0.93500 0.21130 0.00400
H 	H 	0.08170 0.94670 0.21850 0.03000
C 	C 	0.02790 0.95610 0.20210 -0.10600
H 	H 	0.02990 0.98350 0.20290 0.07400
C 	C 	0.99370 0.93930 0.19140 0.06800
H 	H 	0.97270 0.95550 0.18400 -0.01000
C 	C 	0.78200 0.85250 0.23440 -0.93800
H 	H 	0.77730 0.87980 0.23210 0.41900
H 	H 	0.79210 0.84750 0.25980 -0.10500
C 	C 	0.08990 0.87590 0.22570 0.02100
H 	H 	0.10430 0.89380 0.24300 0.04600
H 	H 	0.10720 0.86840 0.20400 0.00700
N 	N 	0.05020 0.77970 0.20140 -0.10800
N 	N 	0.95650 0.82760 0.15750 -0.23800
N 	N 	0.87670 0.84970 0.17860 -0.17800
N 	N 	0.98880 0.90070 0.19100 -0.22800
O 	O 	0.07820 0.84210 0.24670 -0.34500
H 	H 	0.07000 0.82200 0.25700 0.24500
O 	O 	0.74850 0.83050 0.23250 -1.02800
H 	H 	0.73400 0.81130 0.22700 0.40300
H 	H 	0.79550 0.86200 0.25670 0.32200
H 	H 	0.76780 0.82990 0.24220 0.90600
C 	C 	0.08740 0.86820 0.21470 0.04900
H 	H 	0.11140 0.88280 0.22040 0.00400
H 	H 	0.09130 0.85320 0.19060 0.02900
O 	O 	0.75420 0.87970 0.22180 -0.19200
H 	H 	0.75700 0.89980 0.23600 0.04100
C 	C 	0.53280 0.26880 0.67530 -0.04600
C 	C 	0.47120 0.30120 0.64480 -0.02200
C 	C 	0.34980 0.35630 0.70520 -0.16900
H 	H 	0.35660 0.37170 0.72690 0.06500
C 	C 	0.31160 0.34180 0.70310 0.33800
C 	C 	0.30230 0.31840 0.67260 -0.28600
H 	H 	0.27720 0.30740 0.67040 0.15900
C 	C 	0.33040 0.31120 0.64460 0.07000
H 	H 	0.32460 0.29510 0.62310 0.01000
C 	C 	0.36680 0.32750 0.64820 -0.05200
H 	H 	0.38550 0.32290 0.62850 0.03100
C 	C 	0.51990 0.37810 0.69940 0.02200
H 	H 	0.51810 0.35060 0.69780 0.02300
C 	C 	0.55400 0.39540 0.71030 -0.02400
C 	C 	0.55780 0.43500 0.71130 -0.00100
H 	H 	0.58170 0.44670 0.71850 0.03100
C 	C 	0.52790 0.45610 0.70210 -0.09800
H 	H 	0.52990 0.48350 0.70290 0.07000
C 	C 	0.49370 0.43930 0.69140 0.05900
H 	H 	0.47270 0.45550 0.68400 -0.00800
C 	C 	0.28200 0.35250 0.73440 -0.93800
H 	H 	0.27730 0.37980 0.73210 0.41900
H 	H 	0.29210 0.34750 0.75980 -0.10500
C 	C 	0.58990 0.37590 0.72570 0.02100
H 	H 	0.60430 0.39380 0.74300 0.04600
H 	H 	0.60720 0.36840 0.70400 0.00700
N 	N 	0.55020 0.27970 0.70140 -0.10800
N 	N 	0.45650 0.32760 0.65750 -0.23800
N 	N 	0.37670 0.34970 0.67860 -0.17800
N 	N 	0.48880 0.40070 0.69100 -0.22800
O 	O 	0.57820 0.34210 0.74670 -0.34500
H 	H 	0.57000 0.32200 0.75700 0.24500
O 	O 	0.24850 0.33050 0.73250 -1.02800
H 	H 	0.23400 0.31130 0.72700 0.40300
H 	H 	0.29550 0.36200 0.75670 0.32200
H 	H 	0.26780 0.32990 0.74220 0.90700
C 	C 	0.58740 0.36820 0.71470 0.04900
H 	H 	0.61140 0.38280 0.72040 0.00500
H 	H 	0.59130 0.35320 0.69060 0.02900
O 	O 	0.25420 0.37970 0.72180 -0.19200
H 	H 	0.25700 0.39980 0.73600 0.04100
C 	C 	0.46720 0.23120 0.67530 -0.04600
C 	C 	0.52880 0.19880 0.64480 -0.02200
C 	C 	0.65020 0.14370 0.70520 -0.16900
H 	H 	0.64340 0.12830 0.72690 0.06500
C 	C 	0.68840 0.15820 0.70310 0.33800
C 	C 	0.69770 0.18160 0.67260 -0.28600
H 	H 	0.72280 0.19260 0.67040 0.15900
C 	C 	0.66960 0.18880 0.64460 0.07000
H 	H 	0.67540 0.20490 0.62310 0.01000
C 	C 	0.63320 0.17250 0.64820 -0.05200
H 	H 	0.61450 0.17710 0.62850 0.03100
C 	C 	0.48010 0.12190 0.69940 0.02200
H 	H 	0.48190 0.14940 0.69780 0.02300
C 	C 	0.44600 0.10460 0.71030 -0.02400
C 	C 	0.44220 0.06500 0.71130 -0.00100
H 	H 	0.41830 0.05330 0.71850 0.03100
C 	C 	0.47210 0.04390 0.70210 -0.09800
H 	H 	0.47010 0.01650 0.70290 0.06900
C 	C 	0.50630 0.06070 0.69140 0.05900
H 	H 	0.52730 0.04450 0.68400 -0.00900
C 	C 	0.71800 0.14750 0.73440 -0.93800
H 	H 	0.72270 0.12020 0.73210 0.41900
H 	H 	0.70790 0.15250 0.75980 -0.10500
C 	C 	0.41010 0.12410 0.72570 0.02100
H 	H 	0.39570 0.10620 0.74300 0.04600
H 	H 	0.39280 0.13160 0.70400 0.00700
N 	N 	0.44980 0.22030 0.70140 -0.10800
N 	N 	0.54350 0.17240 0.65750 -0.23800
N 	N 	0.62330 0.15030 0.67860 -0.17800
N 	N 	0.51120 0.09930 0.69100 -0.22800
O 	O 	0.42180 0.15790 0.74670 -0.34500
H 	H 	0.43000 0.17800 0.75700 0.24500
O 	O 	0.75150 0.16950 0.73250 -1.02800
H 	H 	0.76600 0.18870 0.72700 0.40300
H 	H 	0.70450 0.13800 0.75670 0.32200
H 	H 	0.73220 0.17010 0.74220 0.90700
C 	C 	0.41260 0.13180 0.71470 0.04900
H 	H 	0.38860 0.11720 0.72040 0.00500
H 	H 	0.40870 0.14680 0.69060 0.02900
O 	O 	0.74580 0.12030 0.72180 -0.19200
H 	H 	0.74300 0.10020 0.73600 0.04100
C 	C 	0.96720 0.73120 0.17530 -0.04300
C 	C 	0.02880 0.69880 0.14480 -0.02200
C 	C 	0.15020 0.64370 0.20520 -0.16900
H 	H 	0.14340 0.62830 0.22690 0.06500
C 	C 	0.18840 0.65820 0.20310 0.33800
C 	C 	0.19770 0.68160 0.17260 -0.28600
H 	H 	0.22280 0.69260 0.17040 0.15900
C 	C 	0.16960 0.68880 0.14460 0.07000
H 	H 	0.17540 0.70490 0.12310 0.01000
C 	C 	0.13320 0.67250 0.14820 -0.05200
H 	H 	0.11450 0.67710 0.12850 0.03100
C 	C 	0.98010 0.62190 0.19940 0.02400
H 	H 	0.98190 0.64940 0.19780 0.02400
C 	C 	0.94600 0.60460 0.21030 -0.02300
C 	C 	0.94220 0.56500 0.21130 -0.00600
H 	H 	0.91830 0.55330 0.21850 0.03300
C 	C 	0.97210 0.54390 0.20210 -0.08800
H 	H 	0.97010 0.51650 0.20290 0.06800
C 	C 	0.00630 0.56070 0.19140 0.05100
H 	H 	0.02730 0.54450 0.18400 -0.00600
C 	C 	0.21800 0.64750 0.23440 -0.93800
H 	H 	0.22270 0.62020 0.23210 0.41900
H 	H 	0.20790 0.65250 0.25980 -0.10500
C 	C 	0.91010 0.62410 0.22570 0.02000
H 	H 	0.89570 0.60620 0.24300 0.04600
H 	H 	0.89280 0.63160 0.20400 0.00700
N 	N 	0.94980 0.72030 0.20140 -0.10800
N 	N 	0.04350 0.67240 0.15750 -0.23800
N 	N 	0.12330 0.65030 0.17860 -0.17800
N 	N 	0.01120 0.59930 0.19100 -0.22900
O 	O 	0.92180 0.65790 0.24670 -0.34500
H 	H 	0.93000 0.67800 0.25700 0.24600
O 	O 	0.25150 0.66950 0.23250 -1.02800
H 	H 	0.26600 0.68870 0.22700 0.40300
H 	H 	0.20450 0.63800 0.25670 0.32200
H 	H 	0.23220 0.67010 0.24220 0.90700
C 	C 	0.91260 0.63180 0.21470 0.04900
H 	H 	0.88860 0.61720 0.22040 0.00500
H 	H 	0.90870 0.64680 0.19060 0.02900
O 	O 	0.24580 0.62030 0.22180 -0.19200
H 	H 	0.24300 0.60020 0.23600 0.04100
C 	C 	0.23120 0.67530 0.46720 -0.04600
C 	C 	0.19880 0.64480 0.52880 -0.02200
C 	C 	0.14370 0.70520 0.65020 -0.16900
H 	H 	0.12830 0.72690 0.64340 0.06500
C 	C 	0.15820 0.70310 0.68840 0.33800
C 	C 	0.18160 0.67260 0.69770 -0.28600
H 	H 	0.19260 0.67040 0.72280 0.15900
C 	C 	0.18880 0.64460 0.66960 0.07000
H 	H 	0.20490 0.62310 0.67540 0.01000
C 	C 	0.17250 0.64820 0.63320 -0.05200
H 	H 	0.17710 0.62850 0.61450 0.03100
C 	C 	0.12190 0.69940 0.48010 0.02200
H 	H 	0.14940 0.69780 0.48190 0.02300
C 	C 	0.10460 0.71030 0.44600 -0.02400
C 	C 	0.06500 0.71130 0.44220 -0.00100
H 	H 	0.05330 0.71850 0.41830 0.03100
C 	C 	0.04390 0.70210 0.47210 -0.09800
H 	H 	0.01650 0.70290 0.47010 0.06900
C 	C 	0.06070 0.69140 0.50630 0.05900
H 	H 	0.04450 0.68400 0.52730 -0.00900
C 	C 	0.14750 0.73440 0.71800 -0.93800
H 	H 	0.12020 0.73210 0.72270 0.41900
H 	H 	0.15250 0.75980 0.70790 -0.10500
C 	C 	0.12410 0.72570 0.41010 0.02100
H 	H 	0.10620 0.74300 0.39570 0.04600
H 	H 	0.13160 0.70400 0.39280 0.00700
N 	N 	0.22030 0.70140 0.44980 -0.10800
N 	N 	0.17240 0.65750 0.54350 -0.23800
N 	N 	0.15030 0.67860 0.62330 -0.17800
N 	N 	0.09930 0.69100 0.51120 -0.22800
O 	O 	0.15790 0.74670 0.42180 -0.34500
H 	H 	0.17800 0.75700 0.43000 0.24500
O 	O 	0.16950 0.73250 0.75150 -1.02800
H 	H 	0.18870 0.72700 0.76600 0.40300
H 	H 	0.13800 0.75670 0.70450 0.32200
H 	H 	0.17010 0.74220 0.73220 0.90700
C 	C 	0.13180 0.71470 0.41260 0.04900
H 	H 	0.11720 0.72040 0.38860 0.00500
H 	H 	0.14680 0.69060 0.40870 0.02900
O 	O 	0.12030 0.72180 0.74580 -0.19200
H 	H 	0.10020 0.73600 0.74300 0.04100
C 	C 	0.73120 0.17530 0.96720 -0.04300
C 	C 	0.69880 0.14480 0.02880 -0.02200
C 	C 	0.64370 0.20520 0.15020 -0.16900
H 	H 	0.62830 0.22690 0.14340 0.06500
C 	C 	0.65820 0.20310 0.18840 0.33800
C 	C 	0.68160 0.17260 0.19770 -0.28600
H 	H 	0.69260 0.17040 0.22280 0.15900
C 	C 	0.68880 0.14460 0.16960 0.07000
H 	H 	0.70490 0.12310 0.17540 0.01000
C 	C 	0.67250 0.14820 0.13320 -0.05200
H 	H 	0.67710 0.12850 0.11450 0.03100
C 	C 	0.62190 0.19940 0.98010 0.02400
H 	H 	0.64940 0.19780 0.98190 0.02400
C 	C 	0.60460 0.21030 0.94600 -0.02300
C 	C 	0.56500 0.21130 0.94220 -0.00600
H 	H 	0.55330 0.21850 0.91830 0.03300
C 	C 	0.54390 0.20210 0.97210 -0.08800
H 	H 	0.51650 0.20290 0.97010 0.06800
C 	C 	0.56070 0.19140 0.00630 0.05100
H 	H 	0.54450 0.18400 0.02730 -0.00600
C 	C 	0.64750 0.23440 0.21800 -0.93800
H 	H 	0.62020 0.23210 0.22270 0.41900
H 	H 	0.65250 0.25980 0.20790 -0.10500
C 	C 	0.62410 0.22570 0.91010 0.02000
H 	H 	0.60620 0.24300 0.89570 0.04600
H 	H 	0.63160 0.20400 0.89280 0.00700
N 	N 	0.72030 0.20140 0.94980 -0.10800
N 	N 	0.67240 0.15750 0.04350 -0.23800
N 	N 	0.65030 0.17860 0.12330 -0.17800
N 	N 	0.59930 0.19100 0.01120 -0.22900
O 	O 	0.65790 0.24670 0.92180 -0.34500
H 	H 	0.67800 0.25700 0.93000 0.24600
O 	O 	0.66950 0.23250 0.25150 -1.02800
H 	H 	0.68870 0.22700 0.26600 0.40300
H 	H 	0.63800 0.25670 0.20450 0.32200
H 	H 	0.67010 0.24220 0.23220 0.90700
C 	C 	0.63180 0.21470 0.91260 0.04900
H 	H 	0.61720 0.22040 0.88860 0.00500
H 	H 	0.64680 0.19060 0.90870 0.02900
O 	O 	0.62030 0.22180 0.24580 -0.19200
H 	H 	0.60020 0.23600 0.24300 0.04100
C 	C 	0.76880 0.17530 0.03280 -0.04600
C 	C 	0.80120 0.14480 0.97120 -0.01900
C 	C 	0.85630 0.20520 0.84980 -0.16900
H 	H 	0.87170 0.22690 0.85660 0.06500
C 	C 	0.84180 0.20310 0.81160 0.33700
C 	C 	0.81840 0.17260 0.80230 -0.28600
H 	H 	0.80740 0.17040 0.77720 0.15900
C 	C 	0.81120 0.14460 0.83040 0.06900
H 	H 	0.79510 0.12310 0.82460 0.01000
C 	C 	0.82750 0.14820 0.86680 -0.05200
H 	H 	0.82290 0.12850 0.88550 0.03100
C 	C 	0.87810 0.19940 0.01990 0.01900
H 	H 	0.85060 0.19780 0.01810 0.02300
C 	C 	0.89540 0.21030 0.05400 -0.02600
C 	C 	0.93500 0.21130 0.05780 0.00400
H 	H 	0.94670 0.21850 0.08170 0.03000
C 	C 	0.95610 0.20210 0.02790 -0.10600
H 	H 	0.98350 0.20290 0.02990 0.07400
C 	C 	0.93930 0.19140 0.99370 0.06800
H 	H 	0.95550 0.18400 0.97270 -0.01000
C 	C 	0.85250 0.23440 0.78200 -0.93800
H 	H 	0.87980 0.23210 0.77730 0.41900
H 	H 	0.84750 0.25980 0.79210 -0.10500
C 	C 	0.87590 0.22570 0.08990 0.02100
H 	H 	0.89380 0.24300 0.10430 0.04600
H 	H 	0.86840 0.20400 0.10720 0.00700
N 	N 	0.77970 0.20140 0.05020 -0.10800
N 	N 	0.82760 0.15750 0.95650 -0.23800
N 	N 	0.84970 0.17860 0.87670 -0.17800
N 	N 	0.90070 0.19100 0.98880 -0.22800
O 	O 	0.84210 0.24670 0.07820 -0.34500
H 	H 	0.82200 0.25700 0.07000 0.24500
O 	O 	0.83050 0.23250 0.74850 -1.02800
H 	H 	0.81130 0.22700 0.73400 0.40300
H 	H 	0.86200 0.25670 0.79550 0.32200
H 	H 	0.82990 0.24220 0.76780 0.90600
C 	C 	0.86820 0.21470 0.08740 0.04900
H 	H 	0.88280 0.22040 0.11140 0.00400
H 	H 	0.85320 0.19060 0.09130 0.02900
O 	O 	0.87970 0.22180 0.75420 -0.19200
H 	H 	0.89980 0.23600 0.75700 0.04100
C 	C 	0.26880 0.67530 0.53280 -0.04600
C 	C 	0.30120 0.64480 0.47120 -0.02200
C 	C 	0.35630 0.70520 0.34980 -0.16900
H 	H 	0.37170 0.72690 0.35660 0.06500
C 	C 	0.34180 0.70310 0.31160 0.33800
C 	C 	0.31840 0.67260 0.30230 -0.28600
H 	H 	0.30740 0.67040 0.27720 0.15900
C 	C 	0.31120 0.64460 0.33040 0.07000
H 	H 	0.29510 0.62310 0.32460 0.01000
C 	C 	0.32750 0.64820 0.36680 -0.05200
H 	H 	0.32290 0.62850 0.38550 0.03100
C 	C 	0.37810 0.69940 0.51990 0.02200
H 	H 	0.35060 0.69780 0.51810 0.02300
C 	C 	0.39540 0.71030 0.55400 -0.02400
C 	C 	0.43500 0.71130 0.55780 -0.00100
H 	H 	0.44670 0.71850 0.58170 0.03100
C 	C 	0.45610 0.70210 0.52790 -0.09800
H 	H 	0.48350 0.70290 0.52990 0.07000
C 	C 	0.43930 0.69140 0.49370 0.05900
H 	H 	0.45550 0.68400 0.47270 -0.00800
C 	C 	0.35250 0.73440 0.28200 -0.93800
H 	H 	0.37980 0.73210 0.27730 0.41900
H 	H 	0.34750 0.75980 0.29210 -0.10500
C 	C 	0.37590 0.72570 0.58990 0.02100
H 	H 	0.39380 0.74300 0.60430 0.04600
H 	H 	0.36840 0.70400 0.60720 0.00700
N 	N 	0.27970 0.70140 0.55020 -0.10800
N 	N 	0.32760 0.65750 0.45650 -0.23800
N 	N 	0.34970 0.67860 0.37670 -0.17800
N 	N 	0.40070 0.69100 0.48880 -0.22800
O 	O 	0.34210 0.74670 0.57820 -0.34500
H 	H 	0.32200 0.75700 0.57000 0.24500
O 	O 	0.33050 0.73250 0.24850 -1.02800
H 	H 	0.31130 0.72700 0.23400 0.40300
H 	H 	0.36200 0.75670 0.29550 0.32200
H 	H 	0.32990 0.74220 0.26780 0.90700
C 	C 	0.36820 0.71470 0.58740 0.04900
H 	H 	0.38280 0.72040 0.61140 0.00500
H 	H 	0.35320 0.69060 0.59130 0.02900
O 	O 	0.37970 0.72180 0.25420 -0.19200
H 	H 	0.39980 0.73600 0.25700 0.04100
C 	C 	0.26880 0.32470 0.96720 -0.04300
C 	C 	0.30120 0.35520 0.02880 -0.02200
C 	C 	0.35630 0.29480 0.15020 -0.16900
H 	H 	0.37170 0.27310 0.14340 0.06500
C 	C 	0.34180 0.29690 0.18840 0.33800
C 	C 	0.31840 0.32740 0.19770 -0.28600
H 	H 	0.30740 0.32960 0.22280 0.15900
C 	C 	0.31120 0.35540 0.16960 0.07000
H 	H 	0.29510 0.37690 0.17540 0.01000
C 	C 	0.32750 0.35180 0.13320 -0.05200
H 	H 	0.32290 0.37150 0.11450 0.03100
C 	C 	0.37810 0.30060 0.98010 0.02400
H 	H 	0.35060 0.30220 0.98190 0.02400
C 	C 	0.39540 0.28970 0.94600 -0.02300
C 	C 	0.43500 0.28870 0.94220 -0.00600
H 	H 	0.44670 0.28150 0.91830 0.03300
C 	C 	0.45610 0.29790 0.97210 -0.08800
H 	H 	0.48350 0.29710 0.97010 0.06800
C 	C 	0.43930 0.30860 0.00630 0.05100
H 	H 	0.45550 0.31600 0.02730 -0.00600
C 	C 	0.35250 0.26560 0.21800 -0.93800
H 	H 	0.37980 0.26790 0.22270 0.41900
H 	H 	0.34750 0.24020 0.20790 -0.10500
C 	C 	0.37590 0.27430 0.91010 0.02000
H 	H 	0.39380 0.25700 0.89570 0.04600
H 	H 	0.36840 0.29600 0.89280 0.00700
N 	N 	0.27970 0.29860 0.94980 -0.10800
N 	N 	0.32760 0.34250 0.04350 -0.23800
N 	N 	0.34970 0.32140 0.12330 -0.17800
N 	N 	0.40070 0.30900 0.01120 -0.22900
O 	O 	0.34210 0.25330 0.92180 -0.34500
H 	H 	0.32200 0.24300 0.93000 0.24600
O 	O 	0.33050 0.26750 0.25150 -1.02800
H 	H 	0.31130 0.27300 0.26600 0.40300
H 	H 	0.36200 0.24330 0.20450 0.32200
H 	H 	0.32990 0.25780 0.23220 0.90700
C 	C 	0.36820 0.28530 0.91260 0.04900
H 	H 	0.38280 0.27960 0.88860 0.00500
H 	H 	0.35320 0.30940 0.90870 0.02900
O 	O 	0.37970 0.27820 0.24580 -0.19200
H 	H 	0.39980 0.26400 0.24300 0.04100
C 	C 	0.76880 0.82470 0.46720 -0.04600
C 	C 	0.80120 0.85520 0.52880 -0.02200
C 	C 	0.85630 0.79480 0.65020 -0.16900
H 	H 	0.87170 0.77310 0.64340 0.06500
C 	C 	0.84180 0.79690 0.68840 0.33700
C 	C 	0.81840 0.82740 0.69770 -0.28600
H 	H 	0.80740 0.82960 0.72280 0.15900
C 	C 	0.81120 0.85540 0.66960 0.07000
H 	H 	0.79510 0.87690 0.67540 0.01000
C 	C 	0.82750 0.85180 0.63320 -0.05200
H 	H 	0.82290 0.87150 0.61450 0.03100
C 	C 	0.87810 0.80060 0.48010 0.02200
H 	H 	0.85060 0.80220 0.48190 0.02300
C 	C 	0.89540 0.78970 0.44600 -0.02400
C 	C 	0.93500 0.78870 0.44220 -0.00100
H 	H 	0.94670 0.78150 0.41830 0.03200
C 	C 	0.95610 0.79790 0.47210 -0.09700
H 	H 	0.98350 0.79710 0.47010 0.07100
C 	C 	0.93930 0.80860 0.50630 0.06000
H 	H 	0.95550 0.81600 0.52730 -0.00700
C 	C 	0.85250 0.76560 0.71800 -0.93800
H 	H 	0.87980 0.76790 0.72270 0.41900
H 	H 	0.84750 0.74020 0.70790 -0.10500
C 	C 	0.87590 0.77430 0.41010 0.02100
H 	H 	0.89380 0.75700 0.39570 0.04600
H 	H 	0.86840 0.79600 0.39280 0.00700
N 	N 	0.77970 0.79860 0.44980 -0.10800
N 	N 	0.82760 0.84250 0.54350 -0.23800
N 	N 	0.84970 0.82140 0.62330 -0.17800
N 	N 	0.90070 0.80900 0.51120 -0.22800
O 	O 	0.84210 0.75330 0.42180 -0.34500
H 	H 	0.82200 0.74300 0.43000 0.24500
O 	O 	0.83050 0.76750 0.75150 -1.02800
H 	H 	0.81130 0.77300 0.76600 0.40300
H 	H 	0.86200 0.74330 0.70450 0.32200
H 	H 	0.82990 0.75780 0.73220 0.90600
C 	C 	0.86820 0.78530 0.41260 0.04900
H 	H 	0.88280 0.77960 0.38860 0.00500
H 	H 	0.85320 0.80940 0.40870 0.02900
O 	O 	0.87970 0.77820 0.74580 -0.19200
H 	H 	0.89980 0.76400 0.74300 0.04100
C 	C 	0.73120 0.82470 0.53280 -0.04600
C 	C 	0.69880 0.85520 0.47120 -0.02200
C 	C 	0.64370 0.79480 0.34980 -0.16900
H 	H 	0.62830 0.77310 0.35660 0.06500
C 	C 	0.65820 0.79690 0.31160 0.33800
C 	C 	0.68160 0.82740 0.30230 -0.28600
H 	H 	0.69260 0.82960 0.27720 0.15900
C 	C 	0.68880 0.85540 0.33040 0.07000
H 	H 	0.70490 0.87690 0.32460 0.01000
C 	C 	0.67250 0.85180 0.36680 -0.05200
H 	H 	0.67710 0.87150 0.38550 0.03100
C 	C 	0.62190 0.80060 0.51990 0.02200
H 	H 	0.64940 0.80220 0.51810 0.02300
C 	C 	0.60460 0.78970 0.55400 -0.02400
C 	C 	0.56500 0.78870 0.55780 -0.00100
H 	H 	0.55330 0.78150 0.58170 0.03100
C 	C 	0.54390 0.79790 0.52790 -0.09800
H 	H 	0.51650 0.79710 0.52990 0.07000
C 	C 	0.56070 0.80860 0.49370 0.05900
H 	H 	0.54450 0.81600 0.47270 -0.00800
C 	C 	0.64750 0.76560 0.28200 -0.93800
H 	H 	0.62020 0.76790 0.27730 0.41900
H 	H 	0.65250 0.74020 0.29210 -0.10500
C 	C 	0.62410 0.77430 0.58990 0.02100
H 	H 	0.60620 0.75700 0.60430 0.04600
H 	H 	0.63160 0.79600 0.60720 0.00700
N 	N 	0.72030 0.79860 0.55020 -0.10800
N 	N 	0.67240 0.84250 0.45650 -0.23800
N 	N 	0.65030 0.82140 0.37670 -0.17800
N 	N 	0.59930 0.80900 0.48880 -0.22800
O 	O 	0.65790 0.75330 0.57820 -0.34500
H 	H 	0.67800 0.74300 0.57000 0.24500
O 	O 	0.66950 0.76750 0.24850 -1.02800
H 	H 	0.68870 0.77300 0.23400 0.40300
H 	H 	0.63800 0.74330 0.29550 0.32200
H 	H 	0.67010 0.75780 0.26780 0.90700
C 	C 	0.63180 0.78530 0.58740 0.04900
H 	H 	0.61720 0.77960 0.61140 0.00500
H 	H 	0.64680 0.80940 0.59130 0.02900
O 	O 	0.62030 0.77820 0.25420 -0.19200
H 	H 	0.60020 0.76400 0.25700 0.04100
C 	C 	0.23120 0.32470 0.03280 -0.04600
C 	C 	0.19880 0.35520 0.97120 -0.01900
C 	C 	0.14370 0.29480 0.84980 -0.16900
H 	H 	0.12830 0.27310 0.85660 0.06500
C 	C 	0.15820 0.29690 0.81160 0.33800
C 	C 	0.18160 0.32740 0.80230 -0.28600
H 	H 	0.19260 0.32960 0.77720 0.15900
C 	C 	0.18880 0.35540 0.83040 0.07000
H 	H 	0.20490 0.37690 0.82460 0.01000
C 	C 	0.17250 0.35180 0.86680 -0.05200
H 	H 	0.17710 0.37150 0.88550 0.03100
C 	C 	0.12190 0.30060 0.01990 0.01900
H 	H 	0.14940 0.30220 0.01810 0.02300
C 	C 	0.10460 0.28970 0.05400 -0.02600
C 	C 	0.06500 0.28870 0.05780 0.00400
H 	H 	0.05330 0.28150 0.08170 0.02900
C 	C 	0.04390 0.29790 0.02790 -0.10700
H 	H 	0.01650 0.29710 0.02990 0.07100
C 	C 	0.06070 0.30860 0.99370 0.06700
H 	H 	0.04450 0.31600 0.97270 -0.01100
C 	C 	0.14750 0.26560 0.78200 -0.93800
H 	H 	0.12020 0.26790 0.77730 0.41900
H 	H 	0.15250 0.24020 0.79210 -0.10500
C 	C 	0.12410 0.27430 0.08990 0.02100
H 	H 	0.10620 0.25700 0.10430 0.04500
H 	H 	0.13160 0.29600 0.10720 0.00700
N 	N 	0.22030 0.29860 0.05020 -0.10800
N 	N 	0.17240 0.34250 0.95650 -0.23800
N 	N 	0.15030 0.32140 0.87670 -0.17800
N 	N 	0.09930 0.30900 0.98880 -0.22800
O 	O 	0.15790 0.25330 0.07820 -0.34500
H 	H 	0.17800 0.24300 0.07000 0.24500
O 	O 	0.16950 0.26750 0.74850 -1.02800
H 	H 	0.18870 0.27300 0.73400 0.40300
H 	H 	0.13800 0.24330 0.79550 0.32200
H 	H 	0.17010 0.25780 0.76780 0.90700
C 	C 	0.13180 0.28530 0.08740 0.04900
H 	H 	0.11720 0.27960 0.11140 0.00400
H 	H 	0.14680 0.30940 0.09130 0.02900
O 	O 	0.12030 0.27820 0.75420 -0.19200
H 	H 	0.10020 0.26400 0.75700 0.04100
C 	C 	0.17530 0.03280 0.76880 -0.04600
C 	C 	0.14480 0.97120 0.80120 -0.01900
C 	C 	0.20520 0.84980 0.85630 -0.16900
H 	H 	0.22690 0.85660 0.87170 0.06500
C 	C 	0.20310 0.81160 0.84180 0.33700
C 	C 	0.17260 0.80230 0.81840 -0.28600
H 	H 	0.17040 0.77720 0.80740 0.15900
C 	C 	0.14460 0.83040 0.81120 0.06900
H 	H 	0.12310 0.82460 0.79510 0.01000
C 	C 	0.14820 0.86680 0.82750 -0.05200
H 	H 	0.12850 0.88550 0.82290 0.03100
C 	C 	0.19940 0.01990 0.87810 0.01900
H 	H 	0.19780 0.01810 0.85060 0.02300
C 	C 	0.21030 0.05400 0.89540 -0.02600
C 	C 	0.21130 0.05780 0.93500 0.00400
H 	H 	0.21850 0.08170 0.94670 0.03000
C 	C 	0.20210 0.02790 0.95610 -0.10600
H 	H 	0.20290 0.02990 0.98350 0.07400
C 	C 	0.19140 0.99370 0.93930 0.06800
H 	H 	0.18400 0.97270 0.95550 -0.01000
C 	C 	0.23440 0.78200 0.85250 -0.93800
H 	H 	0.23210 0.77730 0.87980 0.41900
H 	H 	0.25980 0.79210 0.84750 -0.10500
C 	C 	0.22570 0.08990 0.87590 0.02100
H 	H 	0.24300 0.10430 0.89380 0.04600
H 	H 	0.20400 0.10720 0.86840 0.00700
N 	N 	0.20140 0.05020 0.77970 -0.10800
N 	N 	0.15750 0.95650 0.82760 -0.23800
N 	N 	0.17860 0.87670 0.84970 -0.17800
N 	N 	0.19100 0.98880 0.90070 -0.22800
O 	O 	0.24670 0.07820 0.84210 -0.34500
H 	H 	0.25700 0.07000 0.82200 0.24500
O 	O 	0.23250 0.74850 0.83050 -1.02800
H 	H 	0.22700 0.73400 0.81130 0.40300
H 	H 	0.25670 0.79550 0.86200 0.32200
H 	H 	0.24220 0.76780 0.82990 0.90600
C 	C 	0.21470 0.08740 0.86820 0.04900
H 	H 	0.22040 0.11140 0.88280 0.00400
H 	H 	0.19060 0.09130 0.85320 0.02900
O 	O 	0.22180 0.75420 0.87970 -0.19200
H 	H 	0.23600 0.75700 0.89980 0.04100
C 	C 	0.67530 0.53280 0.26880 -0.04600
C 	C 	0.64480 0.47120 0.30120 -0.02200
C 	C 	0.70520 0.34980 0.35630 -0.16900
H 	H 	0.72690 0.35660 0.37170 0.06500
C 	C 	0.70310 0.31160 0.34180 0.33800
C 	C 	0.67260 0.30230 0.31840 -0.28600
H 	H 	0.67040 0.27720 0.30740 0.15900
C 	C 	0.64460 0.33040 0.31120 0.07000
H 	H 	0.62310 0.32460 0.29510 0.01000
C 	C 	0.64820 0.36680 0.32750 -0.05200
H 	H 	0.62850 0.38550 0.32290 0.03100
C 	C 	0.69940 0.51990 0.37810 0.02200
H 	H 	0.69780 0.51810 0.35060 0.02300
C 	C 	0.71030 0.55400 0.39540 -0.02400
C 	C 	0.71130 0.55780 0.43500 -0.00100
H 	H 	0.71850 0.58170 0.44670 0.03100
C 	C 	0.70210 0.52790 0.45610 -0.09800
H 	H 	0.70290 0.52990 0.48350 0.07000
C 	C 	0.69140 0.49370 0.43930 0.05900
H 	H 	0.68400 0.47270 0.45550 -0.00800
C 	C 	0.73440 0.28200 0.35250 -0.93800
H 	H 	0.73210 0.27730 0.37980 0.41900
H 	H 	0.75980 0.29210 0.34750 -0.10500
C 	C 	0.72570 0.58990 0.37590 0.02100
H 	H 	0.74300 0.60430 0.39380 0.04600
H 	H 	0.70400 0.60720 0.36840 0.00700
N 	N 	0.70140 0.55020 0.27970 -0.10800
N 	N 	0.65750 0.45650 0.32760 -0.23800
N 	N 	0.67860 0.37670 0.34970 -0.17800
N 	N 	0.69100 0.48880 0.40070 -0.22800
O 	O 	0.74670 0.57820 0.34210 -0.34500
H 	H 	0.75700 0.57000 0.32200 0.24500
O 	O 	0.73250 0.24850 0.33050 -1.02800
H 	H 	0.72700 0.23400 0.31130 0.40300
H 	H 	0.75670 0.29550 0.36200 0.32200
H 	H 	0.74220 0.26780 0.32990 0.90700
C 	C 	0.71470 0.58740 0.36820 0.04900
H 	H 	0.72040 0.61140 0.38280 0.00500
H 	H 	0.69060 0.59130 0.35320 0.02900
O 	O 	0.72180 0.25420 0.37970 -0.19200
H 	H 	0.73600 0.25700 0.39980 0.04100
C 	C 	0.67530 0.46720 0.23120 -0.04600
C 	C 	0.64480 0.52880 0.19880 -0.02200
C 	C 	0.70520 0.65020 0.14370 -0.16900
H 	H 	0.72690 0.64340 0.12830 0.06500
C 	C 	0.70310 0.68840 0.15820 0.33800
C 	C 	0.67260 0.69770 0.18160 -0.28600
H 	H 	0.67040 0.72280 0.19260 0.15900
C 	C 	0.64460 0.66960 0.18880 0.07000
H 	H 	0.62310 0.67540 0.20490 0.01000
C 	C 	0.64820 0.63320 0.17250 -0.05200
H 	H 	0.62850 0.61450 0.17710 0.03100
C 	C 	0.69940 0.48010 0.12190 0.02200
H 	H 	0.69780 0.48190 0.14940 0.02300
C 	C 	0.71030 0.44600 0.10460 -0.02400
C 	C 	0.71130 0.44220 0.06500 -0.00100
H 	H 	0.71850 0.41830 0.05330 0.03100
C 	C 	0.70210 0.47210 0.04390 -0.09800
H 	H 	0.70290 0.47010 0.01650 0.06900
C 	C 	0.69140 0.50630 0.06070 0.05900
H 	H 	0.68400 0.52730 0.04450 -0.00900
C 	C 	0.73440 0.71800 0.14750 -0.93800
H 	H 	0.73210 0.72270 0.12020 0.41900
H 	H 	0.75980 0.70790 0.15250 -0.10500
C 	C 	0.72570 0.41010 0.12410 0.02100
H 	H 	0.74300 0.39570 0.10620 0.04600
H 	H 	0.70400 0.39280 0.13160 0.00700
N 	N 	0.70140 0.44980 0.22030 -0.10800
N 	N 	0.65750 0.54350 0.17240 -0.23800
N 	N 	0.67860 0.62330 0.15030 -0.17800
N 	N 	0.69100 0.51120 0.09930 -0.22800
O 	O 	0.74670 0.42180 0.15790 -0.34500
H 	H 	0.75700 0.43000 0.17800 0.24500
O 	O 	0.73250 0.75150 0.16950 -1.02800
H 	H 	0.72700 0.76600 0.18870 0.40300
H 	H 	0.75670 0.70450 0.13800 0.32200
H 	H 	0.74220 0.73220 0.17010 0.90700
C 	C 	0.71470 0.41260 0.13180 0.04900
H 	H 	0.72040 0.38860 0.11720 0.00500
H 	H 	0.69060 0.40870 0.14680 0.02900
O 	O 	0.72180 0.74580 0.12030 -0.19200
H 	H 	0.73600 0.74300 0.10020 0.04100
C 	C 	0.17530 0.96720 0.73120 -0.04300
C 	C 	0.14480 0.02880 0.69880 -0.02200
C 	C 	0.20520 0.15020 0.64370 -0.16900
H 	H 	0.22690 0.14340 0.62830 0.06500
C 	C 	0.20310 0.18840 0.65820 0.33800
C 	C 	0.17260 0.19770 0.68160 -0.28600
H 	H 	0.17040 0.22280 0.69260 0.15900
C 	C 	0.14460 0.16960 0.68880 0.07000
H 	H 	0.12310 0.17540 0.70490 0.01000
C 	C 	0.14820 0.13320 0.67250 -0.05200
H 	H 	0.12850 0.11450 0.67710 0.03100
C 	C 	0.19940 0.98010 0.62190 0.02400
H 	H 	0.19780 0.98190 0.64940 0.02400
C 	C 	0.21030 0.94600 0.60460 -0.02300
C 	C 	0.21130 0.94220 0.56500 -0.00600
H 	H 	0.21850 0.91830 0.55330 0.03300
C 	C 	0.20210 0.97210 0.54390 -0.08800
H 	H 	0.20290 0.97010 0.51650 0.06800
C 	C 	0.19140 0.00630 0.56070 0.05100
H 	H 	0.18400 0.02730 0.54450 -0.00600
C 	C 	0.23440 0.21800 0.64750 -0.93800
H 	H 	0.23210 0.22270 0.62020 0.41900
H 	H 	0.25980 0.20790 0.65250 -0.10500
C 	C 	0.22570 0.91010 0.62410 0.02000
H 	H 	0.24300 0.89570 0.60620 0.04600
H 	H 	0.20400 0.89280 0.63160 0.00700
N 	N 	0.20140 0.94980 0.72030 -0.10800
N 	N 	0.15750 0.04350 0.67240 -0.23800
N 	N 	0.17860 0.12330 0.65030 -0.17800
N 	N 	0.19100 0.01120 0.59930 -0.22900
O 	O 	0.24670 0.92180 0.65790 -0.34500
H 	H 	0.25700 0.93000 0.67800 0.24600
O 	O 	0.23250 0.25150 0.66950 -1.02800
H 	H 	0.22700 0.26600 0.68870 0.40300
H 	H 	0.25670 0.20450 0.63800 0.32200
H 	H 	0.24220 0.23220 0.67010 0.90700
C 	C 	0.21470 0.91260 0.63180 0.04900
H 	H 	0.22040 0.88860 0.61720 0.00500
H 	H 	0.19060 0.90870 0.64680 0.02900
O 	O 	0.22180 0.24580 0.62030 -0.19200
H 	H 	0.23600 0.24300 0.60020 0.04100
C 	C 	0.82470 0.53280 0.73120 -0.04600
C 	C 	0.85520 0.47120 0.69880 -0.02200
C 	C 	0.79480 0.34980 0.64370 -0.16900
H 	H 	0.77310 0.35660 0.62830 0.06500
C 	C 	0.79690 0.31160 0.65820 0.33800
C 	C 	0.82740 0.30230 0.68160 -0.28600
H 	H 	0.82960 0.27720 0.69260 0.15900
C 	C 	0.85540 0.33040 0.68880 0.07000
H 	H 	0.87690 0.32460 0.70490 0.01000
C 	C 	0.85180 0.36680 0.67250 -0.05200
H 	H 	0.87150 0.38550 0.67710 0.03100
C 	C 	0.80060 0.51990 0.62190 0.02200
H 	H 	0.80220 0.51810 0.64940 0.02300
C 	C 	0.78970 0.55400 0.60460 -0.02400
C 	C 	0.78870 0.55780 0.56500 -0.00100
H 	H 	0.78150 0.58170 0.55330 0.03100
C 	C 	0.79790 0.52790 0.54390 -0.09800
H 	H 	0.79710 0.52990 0.51650 0.07000
C 	C 	0.80860 0.49370 0.56070 0.05900
H 	H 	0.81600 0.47270 0.54450 -0.00800
C 	C 	0.76560 0.28200 0.64750 -0.93800
H 	H 	0.76790 0.27730 0.62020 0.41900
H 	H 	0.74020 0.29210 0.65250 -0.10500
C 	C 	0.77430 0.58990 0.62410 0.02100
H 	H 	0.75700 0.60430 0.60620 0.04600
H 	H 	0.79600 0.60720 0.63160 0.00700
N 	N 	0.79860 0.55020 0.72030 -0.10800
N 	N 	0.84250 0.45650 0.67240 -0.23800
N 	N 	0.82140 0.37670 0.65030 -0.17800
N 	N 	0.80900 0.48880 0.59930 -0.22800
O 	O 	0.75330 0.57820 0.65790 -0.34500
H 	H 	0.74300 0.57000 0.67800 0.24500
O 	O 	0.76750 0.24850 0.66950 -1.02800
H 	H 	0.77300 0.23400 0.68870 0.40300
H 	H 	0.74330 0.29550 0.63800 0.32200
H 	H 	0.75780 0.26780 0.67010 0.90700
C 	C 	0.78530 0.58740 0.63180 0.04900
H 	H 	0.77960 0.61140 0.61720 0.00500
H 	H 	0.80940 0.59130 0.64680 0.02900
O 	O 	0.77820 0.25420 0.62030 -0.19200
H 	H 	0.76400 0.25700 0.60020 0.04100
C 	C 	0.32470 0.03280 0.23120 -0.04600
C 	C 	0.35520 0.97120 0.19880 -0.01900
C 	C 	0.29480 0.84980 0.14370 -0.16900
H 	H 	0.27310 0.85660 0.12830 0.06500
C 	C 	0.29690 0.81160 0.15820 0.33800
C 	C 	0.32740 0.80230 0.18160 -0.28600
H 	H 	0.32960 0.77720 0.19260 0.15900
C 	C 	0.35540 0.83040 0.18880 0.07000
H 	H 	0.37690 0.82460 0.20490 0.01000
C 	C 	0.35180 0.86680 0.17250 -0.05200
H 	H 	0.37150 0.88550 0.17710 0.03100
C 	C 	0.30060 0.01990 0.12190 0.01900
H 	H 	0.30220 0.01810 0.14940 0.02300
C 	C 	0.28970 0.05400 0.10460 -0.02600
C 	C 	0.28870 0.05780 0.06500 0.00400
H 	H 	0.28150 0.08170 0.05330 0.02900
C 	C 	0.29790 0.02790 0.04390 -0.10700
H 	H 	0.29710 0.02990 0.01650 0.07100
C 	C 	0.30860 0.99370 0.06070 0.06700
H 	H 	0.31600 0.97270 0.04450 -0.01100
C 	C 	0.26560 0.78200 0.14750 -0.93800
H 	H 	0.26790 0.77730 0.12020 0.41900
H 	H 	0.24020 0.79210 0.15250 -0.10500
C 	C 	0.27430 0.08990 0.12410 0.02100
H 	H 	0.25700 0.10430 0.10620 0.04500
H 	H 	0.29600 0.10720 0.13160 0.00700
N 	N 	0.29860 0.05020 0.22030 -0.10800
N 	N 	0.34250 0.95650 0.17240 -0.23800
N 	N 	0.32140 0.87670 0.15030 -0.17800
N 	N 	0.30900 0.98880 0.09930 -0.22800
O 	O 	0.25330 0.07820 0.15790 -0.34500
H 	H 	0.24300 0.07000 0.17800 0.24500
O 	O 	0.26750 0.74850 0.16950 -1.02800
H 	H 	0.27300 0.73400 0.18870 0.40300
H 	H 	0.24330 0.79550 0.13800 0.32200
H 	H 	0.25780 0.76780 0.17010 0.90700
C 	C 	0.28530 0.08740 0.13180 0.04900
H 	H 	0.27960 0.11140 0.11720 0.00400
H 	H 	0.30940 0.09130 0.14680 0.02900
O 	O 	0.27820 0.75420 0.12030 -0.19200
H 	H 	0.26400 0.75700 0.10020 0.04100
C 	C 	0.32470 0.96720 0.26880 -0.04300
C 	C 	0.35520 0.02880 0.30120 -0.02200
C 	C 	0.29480 0.15020 0.35630 -0.16900
H 	H 	0.27310 0.14340 0.37170 0.06500
C 	C 	0.29690 0.18840 0.34180 0.33800
C 	C 	0.32740 0.19770 0.31840 -0.28600
H 	H 	0.32960 0.22280 0.30740 0.15900
C 	C 	0.35540 0.16960 0.31120 0.07000
H 	H 	0.37690 0.17540 0.29510 0.01000
C 	C 	0.35180 0.13320 0.32750 -0.05200
H 	H 	0.37150 0.11450 0.32290 0.03100
C 	C 	0.30060 0.98010 0.37810 0.02400
H 	H 	0.30220 0.98190 0.35060 0.02400
C 	C 	0.28970 0.94600 0.39540 -0.02300
C 	C 	0.28870 0.94220 0.43500 -0.00600
H 	H 	0.28150 0.91830 0.44670 0.03300
C 	C 	0.29790 0.97210 0.45610 -0.08800
H 	H 	0.29710 0.97010 0.48350 0.06800
C 	C 	0.30860 0.00630 0.43930 0.05100
H 	H 	0.31600 0.02730 0.45550 -0.00600
C 	C 	0.26560 0.21800 0.35250 -0.93800
H 	H 	0.26790 0.22270 0.37980 0.41900
H 	H 	0.24020 0.20790 0.34750 -0.10500
C 	C 	0.27430 0.91010 0.37590 0.02000
H 	H 	0.25700 0.89570 0.39380 0.04600
H 	H 	0.29600 0.89280 0.36840 0.00700
N 	N 	0.29860 0.94980 0.27970 -0.10800
N 	N 	0.34250 0.04350 0.32760 -0.23800
N 	N 	0.32140 0.12330 0.34970 -0.17800
N 	N 	0.30900 0.01120 0.40070 -0.22900
O 	O 	0.25330 0.92180 0.34210 -0.34500
H 	H 	0.24300 0.93000 0.32200 0.24600
O 	O 	0.26750 0.25150 0.33050 -1.02800
H 	H 	0.27300 0.26600 0.31130 0.40300
H 	H 	0.24330 0.20450 0.36200 0.32200
H 	H 	0.25780 0.23220 0.32990 0.90700
C 	C 	0.28530 0.91260 0.36820 0.04900
H 	H 	0.27960 0.88860 0.38280 0.00500
H 	H 	0.30940 0.90870 0.35320 0.02900
O 	O 	0.27820 0.24580 0.37970 -0.19200
H 	H 	0.26400 0.24300 0.39980 0.04100
C 	C 	0.82470 0.46720 0.76880 -0.04600
C 	C 	0.85520 0.52880 0.80120 -0.02200
C 	C 	0.79480 0.65020 0.85630 -0.16900
H 	H 	0.77310 0.64340 0.87170 0.06500
C 	C 	0.79690 0.68840 0.84180 0.33700
C 	C 	0.82740 0.69770 0.81840 -0.28600
H 	H 	0.82960 0.72280 0.80740 0.15900
C 	C 	0.85540 0.66960 0.81120 0.07000
H 	H 	0.87690 0.67540 0.79510 0.01000
C 	C 	0.85180 0.63320 0.82750 -0.05200
H 	H 	0.87150 0.61450 0.82290 0.03100
C 	C 	0.80060 0.48010 0.87810 0.02200
H 	H 	0.80220 0.48190 0.85060 0.02300
C 	C 	0.78970 0.44600 0.89540 -0.02400
C 	C 	0.78870 0.44220 0.93500 -0.00100
H 	H 	0.78150 0.41830 0.94670 0.03200
C 	C 	0.79790 0.47210 0.95610 -0.09700
H 	H 	0.79710 0.47010 0.98350 0.07100
C 	C 	0.80860 0.50630 0.93930 0.06000
H 	H 	0.81600 0.52730 0.95550 -0.00700
C 	C 	0.76560 0.71800 0.85250 -0.93800
H 	H 	0.76790 0.72270 0.87980 0.41900
H 	H 	0.74020 0.70790 0.84750 -0.10500
C 	C 	0.77430 0.41010 0.87590 0.02100
H 	H 	0.75700 0.39570 0.89380 0.04600
H 	H 	0.79600 0.39280 0.86840 0.00700
N 	N 	0.79860 0.44980 0.77970 -0.10800
N 	N 	0.84250 0.54350 0.82760 -0.23800
N 	N 	0.82140 0.62330 0.84970 -0.17800
N 	N 	0.80900 0.51120 0.90070 -0.22800
O 	O 	0.75330 0.42180 0.84210 -0.34500
H 	H 	0.74300 0.43000 0.82200 0.24500
O 	O 	0.76750 0.75150 0.83050 -1.02800
H 	H 	0.77300 0.76600 0.81130 0.40300
H 	H 	0.74330 0.70450 0.86200 0.32200
H 	H 	0.75780 0.73220 0.82990 0.90600
C 	C 	0.78530 0.41260 0.86820 0.04900
H 	H 	0.77960 0.38860 0.88280 0.00500
H 	H 	0.80940 0.40870 0.85320 0.02900
O 	O 	0.77820 0.74580 0.87970 -0.19200
H 	H 	0.76400 0.74300 0.89980 0.04100
Fe	Fe	0.12500 0.81694 0.06694 1.13800
Fe	Fe	0.62500 0.31694 0.56694 1.13800
Fe	Fe	0.37500 0.18306 0.56694 1.13800
Fe	Fe	0.87500 0.68306 0.06694 1.13800
Fe	Fe	0.87500 0.31694 0.43306 1.13800
Fe	Fe	0.37500 0.81694 0.93306 1.13800
Fe	Fe	0.62500 0.68306 0.93306 1.13800
Fe	Fe	0.12500 0.18306 0.43306 1.13800
Fe	Fe	0.06694 0.12500 0.81694 1.13800
Fe	Fe	0.56694 0.62500 0.31694 1.13800
Fe	Fe	0.56694 0.37500 0.18306 1.13800
Fe	Fe	0.06694 0.87500 0.68306 1.13800
Fe	Fe	0.43306 0.87500 0.31694 1.13800
Fe	Fe	0.93306 0.37500 0.81694 1.13800
Fe	Fe	0.93306 0.62500 0.68306 1.13800
Fe	Fe	0.43306 0.12500 0.18306 1.13800
Fe	Fe	0.81694 0.06694 0.12500 1.13800
Fe	Fe	0.31694 0.56694 0.62500 1.13800
Fe	Fe	0.18306 0.56694 0.37500 1.13800
Fe	Fe	0.68306 0.06694 0.87500 1.13800
Fe	Fe	0.31694 0.43306 0.87500 1.13800
Fe	Fe	0.81694 0.93306 0.37500 1.13800
Fe	Fe	0.68306 0.93306 0.62500 1.13800
Fe	Fe	0.18306 0.43306 0.12500 1.13800
Fe	Fe	0.87500 0.18306 0.93306 1.13800
Fe	Fe	0.37500 0.68306 0.43306 1.13800
Fe	Fe	0.62500 0.81694 0.43306 1.13800
Fe	Fe	0.12500 0.31694 0.93306 1.13800
Fe	Fe	0.12500 0.68306 0.56694 1.13800
Fe	Fe	0.62500 0.18306 0.06694 1.13800
Fe	Fe	0.37500 0.31694 0.06694 1.13800
Fe	Fe	0.87500 0.81694 0.56694 1.13800
Fe	Fe	0.93306 0.87500 0.18306 1.13800
Fe	Fe	0.43306 0.37500 0.68306 1.13800
Fe	Fe	0.43306 0.62500 0.81694 1.13800
Fe	Fe	0.93306 0.12500 0.31694 1.13800
Fe	Fe	0.56694 0.12500 0.68306 1.13800
Fe	Fe	0.06694 0.62500 0.18306 1.13800
Fe	Fe	0.06694 0.37500 0.31694 1.13800
Fe	Fe	0.56694 0.87500 0.81694 1.13800
Fe	Fe	0.18306 0.93306 0.87500 1.13800
Fe	Fe	0.68306 0.43306 0.37500 1.13800
Fe	Fe	0.81694 0.43306 0.62500 1.13800
Fe	Fe	0.31694 0.93306 0.12500 1.13800
Fe	Fe	0.68306 0.56694 0.12500 1.13800
Fe	Fe	0.18306 0.06694 0.62500 1.13800
Fe	Fe	0.31694 0.06694 0.37500 1.13800
Fe	Fe	0.81694 0.56694 0.87500 1.13800
W 	W 	0.00000 0.75000 0.12500 0.50100
W 	W 	0.50000 0.25000 0.62500 0.50800
W 	W 	0.00000 0.25000 0.37500 0.50100
W 	W 	0.50000 0.75000 0.87500 0.50800
W 	W 	0.12500 0.00000 0.75000 0.50100
W 	W 	0.62500 0.50000 0.25000 0.50800
W 	W 	0.37500 -0.00000 0.25000 0.50100
W 	W 	0.87500 0.50000 0.75000 0.50800
W 	W 	0.75000 0.12500 -0.00000 0.50100
W 	W 	0.25000 0.62500 0.50000 0.50800
W 	W 	0.25000 0.37500 -0.00000 0.50100
W 	W 	0.75000 0.87500 0.50000 0.50800
W 	W 	0.50000 0.25000 0.12500 0.50800
W 	W 	0.00000 0.75000 0.62500 0.50100
W 	W 	0.00000 0.25000 0.87500 0.50100
W 	W 	0.50000 0.75000 0.37500 0.50800
W 	W 	0.75000 0.37500 0.50000 0.50800
W 	W 	0.25000 0.87500 -0.00000 0.50100
W 	W 	0.75000 0.62500 -0.00000 0.50100
W 	W 	0.25000 0.12500 0.50000 0.50800
W 	W 	0.87500 -0.00000 0.25000 0.50100
W 	W 	0.37500 0.50000 0.75000 0.50800
W 	W 	0.12500 0.50000 0.25000 0.50800
W 	W 	0.62500 0.00000 0.75000 0.50100
