data_crystal

_cell_length_a 34.88070
_cell_length_b 34.88070
_cell_length_c 34.88070
_cell_angle_alpha 90.00000
_cell_angle_beta  90.00000
_cell_angle_gamma 90.00000

_symmetry_space_group_name_	'P 1'
_symmetry_space_group_name_H-M	'P 1'

loop_
_symmetry_equiv_pos_as_xyz
  x,y,z

loop_
_atom_site_label
_atom_site_type_symbol
_atom_site_fract_x
_atom_site_fract_y
_atom_site_fract_z
_atom_site_charge
C 	C 	0.01910 0.71770 0.07510 -0.04500
C 	C 	0.05040 0.77910 0.10610 -0.02600
C 	C 	0.10640 0.90300 0.04680 -0.16600
H 	H 	0.12260 0.89670 0.02660 0.06500
C 	C 	0.09140 0.94050 0.04830 0.32400
C 	C 	0.06730 0.94890 0.07740 -0.30200
H 	H 	0.05680 0.97330 0.07940 0.17000
C 	C 	0.05830 0.92120 0.10410 0.08900
H 	H 	0.04110 0.92640 0.12370 0.00100
C 	C 	0.07540 0.88530 0.10120 -0.05900
H 	H 	0.07030 0.86710 0.12000 0.03400
C 	C 	0.12930 0.72940 0.05180 0.02600
H 	H 	0.10280 0.73130 0.05430 0.02100
C 	C 	0.14550 0.69560 0.04050 -0.03600
C 	C 	0.18420 0.69230 0.03850 0.01500
H 	H 	0.19520 0.66910 0.03120 0.02600
C 	C 	0.20600 0.72120 0.04670 -0.11600
H 	H 	0.23250 0.71900 0.04500 0.07600
C 	C 	0.18910 0.75570 0.05800 0.07200
H 	H 	0.20490 0.77610 0.06460 -0.01400
C 	C 	0.10330 0.97020 0.01790 -0.84500
H 	H 	0.13060 0.97490 0.02010 0.41300
H 	H 	0.09840 0.96010 0.99250 -0.20100
C 	C 	0.13080 0.65880 0.02110 -0.00400
H 	H 	0.14760 0.65080 0.00040 0.05700
H 	H 	0.12820 0.63800 0.03930 0.00900
N 	N 	0.02970 0.70060 0.04910 -0.11000
N 	N 	0.07660 0.79419 0.09382 -0.23200
N 	N 	0.09859 0.87620 0.07240 -0.16700
N 	N 	0.15170 0.76040 0.05950 -0.22400
O 	O 	0.09430 0.67130 0.00690 -0.36600
H 	H 	0.07630 0.67900 0.99400 0.26200
O 	O 	0.08110 0.00140 0.02070 -1.41200
H 	H 	0.06200 0.01400 0.02900 0.53800
H 	H 	0.11280 0.95670 0.99550 0.36200
H 	H 	0.08070 0.98450 0.01010 1.14600
C 	C 	0.11840 0.66230 0.04060 0.09700
H 	H 	0.13190 0.63820 0.03730 0.00700
H 	H 	0.10340 0.66140 0.06390 0.01600
O 	O 	0.13200 0.99660 0.03060 -0.25300
H 	H 	0.15380 0.99640 0.01940 0.09800
C 	C 	0.51910 0.21770 0.57510 -0.04400
C 	C 	0.55040 0.27910 0.60610 -0.02600
C 	C 	0.60640 0.40300 0.54680 -0.16200
H 	H 	0.62260 0.39670 0.52660 0.06500
C 	C 	0.59140 0.44050 0.54830 0.31700
C 	C 	0.56730 0.44890 0.57740 -0.29600
H 	H 	0.55680 0.47330 0.57940 0.16700
C 	C 	0.55830 0.42120 0.60410 0.08400
H 	H 	0.54110 0.42640 0.62370 0.00300
C 	C 	0.57540 0.38530 0.60120 -0.05600
H 	H 	0.57030 0.36710 0.62000 0.03300
C 	C 	0.62930 0.22940 0.55180 0.02600
H 	H 	0.60280 0.23130 0.55430 0.02200
C 	C 	0.64550 0.19560 0.54050 -0.03400
C 	C 	0.68420 0.19230 0.53850 0.01400
H 	H 	0.69520 0.16910 0.53120 0.02600
C 	C 	0.70600 0.22120 0.54670 -0.11400
H 	H 	0.73250 0.21900 0.54500 0.07600
C 	C 	0.68910 0.25570 0.55800 0.07200
H 	H 	0.70490 0.27610 0.56460 -0.01400
C 	C 	0.60330 0.47020 0.51790 -0.82600
H 	H 	0.63060 0.47490 0.52010 0.41000
H 	H 	0.59840 0.46010 0.49250 -0.19900
C 	C 	0.63080 0.15880 0.52110 -0.00500
H 	H 	0.64760 0.15080 0.50040 0.05800
H 	H 	0.62820 0.13800 0.53930 0.00900
N 	N 	0.52970 0.20060 0.54910 -0.10900
N 	N 	0.57660 0.29419 0.59382 -0.23200
N 	N 	0.59859 0.37620 0.57240 -0.16800
N 	N 	0.65170 0.26040 0.55950 -0.22400
O 	O 	0.59430 0.17130 0.50690 -0.36000
H 	H 	0.57630 0.17900 0.49400 0.25700
O 	O 	0.58110 0.50140 0.52070 -1.39200
H 	H 	0.56200 0.51400 0.52900 0.53300
H 	H 	0.61280 0.45670 0.49550 0.35300
H 	H 	0.58070 0.48450 0.51010 1.12800
C 	C 	0.61840 0.16230 0.54060 0.09500
H 	H 	0.63190 0.13820 0.53730 0.00700
H 	H 	0.60340 0.16140 0.56390 0.01500
O 	O 	0.63200 0.49660 0.53060 -0.25900
H 	H 	0.65380 0.49640 0.51940 0.09900
C 	C 	0.48090 0.28230 0.57510 -0.04500
C 	C 	0.44960 0.22090 0.60610 -0.02700
C 	C 	0.39360 0.09700 0.54680 -0.16100
H 	H 	0.37740 0.10330 0.52660 0.06300
C 	C 	0.40860 0.05950 0.54830 0.31300
C 	C 	0.43270 0.05110 0.57740 -0.29400
H 	H 	0.44320 0.02670 0.57940 0.16400
C 	C 	0.44170 0.07880 0.60410 0.08200
H 	H 	0.45890 0.07360 0.62370 0.00300
C 	C 	0.42460 0.11470 0.60120 -0.05600
H 	H 	0.42970 0.13290 0.62000 0.03200
C 	C 	0.37070 0.27060 0.55180 0.02500
H 	H 	0.39720 0.26870 0.55430 0.02100
C 	C 	0.35450 0.30440 0.54050 -0.03500
C 	C 	0.31580 0.30770 0.53850 0.01300
H 	H 	0.30480 0.33090 0.53120 0.02500
C 	C 	0.29400 0.27880 0.54670 -0.11500
H 	H 	0.26750 0.28100 0.54500 0.07500
C 	C 	0.31090 0.24430 0.55800 0.07100
H 	H 	0.29510 0.22390 0.56460 -0.01500
C 	C 	0.39670 0.02980 0.51790 -0.82000
H 	H 	0.36940 0.02510 0.52010 0.40800
H 	H 	0.40160 0.03990 0.49250 -0.19600
C 	C 	0.36920 0.34120 0.52110 -0.00600
H 	H 	0.35240 0.34920 0.50040 0.05700
H 	H 	0.37180 0.36200 0.53930 0.00800
N 	N 	0.47030 0.29940 0.54910 -0.11000
N 	N 	0.42340 0.20581 0.59382 -0.23300
N 	N 	0.40141 0.12380 0.57240 -0.17000
N 	N 	0.34830 0.23960 0.55950 -0.22500
O 	O 	0.40570 0.32870 0.50690 -0.36100
H 	H 	0.42370 0.32100 0.49400 0.25600
O 	O 	0.41890 0.99860 0.52070 -1.37200
H 	H 	0.43800 0.98600 0.52900 0.52500
H 	H 	0.38720 0.04330 0.49550 0.34600
H 	H 	0.41930 0.01550 0.51010 1.11100
C 	C 	0.38160 0.33770 0.54060 0.09400
H 	H 	0.36810 0.36180 0.53730 0.00700
H 	H 	0.39660 0.33860 0.56390 0.01500
O 	O 	0.36800 0.00340 0.53060 -0.26400
H 	H 	0.34620 0.00360 0.51940 0.10000
C 	C 	0.98090 0.78230 0.07510 -0.04200
C 	C 	0.94960 0.72090 0.10610 -0.02500
C 	C 	0.89360 0.59700 0.04680 -0.16500
H 	H 	0.87740 0.60330 0.02660 0.06400
C 	C 	0.90860 0.55950 0.04830 0.32000
C 	C 	0.93270 0.55110 0.07740 -0.30000
H 	H 	0.94320 0.52670 0.07940 0.16800
C 	C 	0.94170 0.57880 0.10410 0.08500
H 	H 	0.95890 0.57360 0.12370 0.00300
C 	C 	0.92460 0.61470 0.10120 -0.05800
H 	H 	0.92970 0.63290 0.12000 0.03300
C 	C 	0.87070 0.77060 0.05180 0.02500
H 	H 	0.89720 0.76870 0.05430 0.02000
C 	C 	0.85450 0.80440 0.04050 -0.03700
C 	C 	0.81580 0.80770 0.03850 0.01400
H 	H 	0.80480 0.83090 0.03120 0.02500
C 	C 	0.79400 0.77880 0.04670 -0.11700
H 	H 	0.76750 0.78100 0.04500 0.07500
C 	C 	0.81090 0.74430 0.05800 0.07100
H 	H 	0.79510 0.72390 0.06460 -0.01500
C 	C 	0.89670 0.52980 0.01790 -0.83900
H 	H 	0.86940 0.52510 0.02010 0.41200
H 	H 	0.90160 0.53990 0.99250 -0.19800
C 	C 	0.86920 0.84120 0.02110 -0.00500
H 	H 	0.85240 0.84920 0.00040 0.05600
H 	H 	0.87180 0.86200 0.03930 0.00800
N 	N 	0.97030 0.79940 0.04910 -0.11000
N 	N 	0.92340 0.70581 0.09382 -0.23300
N 	N 	0.90141 0.62380 0.07240 -0.16900
N 	N 	0.84830 0.73960 0.05950 -0.22500
O 	O 	0.90570 0.82870 0.00690 -0.36700
H 	H 	0.92370 0.82100 0.99400 0.26100
O 	O 	0.91890 0.49860 0.02070 -1.39400
H 	H 	0.93800 0.48600 0.02900 0.53200
H 	H 	0.88720 0.54330 0.99550 0.35600
H 	H 	0.91930 0.51550 0.01010 1.13000
C 	C 	0.88160 0.83770 0.04060 0.09600
H 	H 	0.86810 0.86180 0.03730 0.00600
H 	H 	0.89660 0.83860 0.06390 0.01500
O 	O 	0.86800 0.50340 0.03060 -0.25900
H 	H 	0.84620 0.50360 0.01940 0.09700
C 	C 	0.98090 0.21770 0.42490 -0.04200
C 	C 	0.94960 0.27910 0.39390 -0.02500
C 	C 	0.89360 0.40300 0.45320 -0.16300
H 	H 	0.87740 0.39670 0.47340 0.06400
C 	C 	0.90860 0.44050 0.45170 0.31600
C 	C 	0.93270 0.44890 0.42260 -0.29700
H 	H 	0.94320 0.47330 0.42060 0.16600
C 	C 	0.94170 0.42120 0.39590 0.08300
H 	H 	0.95890 0.42640 0.37630 0.00300
C 	C 	0.92460 0.38530 0.39880 -0.05700
H 	H 	0.92970 0.36710 0.38000 0.03200
C 	C 	0.87070 0.22940 0.44820 0.02500
H 	H 	0.89720 0.23130 0.44570 0.02100
C 	C 	0.85450 0.19560 0.45950 -0.03500
C 	C 	0.81580 0.19230 0.46150 0.01300
H 	H 	0.80480 0.16910 0.46880 0.02500
C 	C 	0.79400 0.22120 0.45330 -0.11500
H 	H 	0.76750 0.21900 0.45500 0.07500
C 	C 	0.81090 0.25570 0.44200 0.07100
H 	H 	0.79510 0.27610 0.43540 -0.01500
C 	C 	0.89670 0.47020 0.48210 -0.82700
H 	H 	0.86940 0.47490 0.47990 0.40900
H 	H 	0.90160 0.46010 0.50750 -0.20000
C 	C 	0.86920 0.15880 0.47890 -0.00600
H 	H 	0.85240 0.15080 0.49960 0.05700
H 	H 	0.87180 0.13800 0.46070 0.00800
N 	N 	0.97030 0.20060 0.45090 -0.11000
N 	N 	0.92340 0.29419 0.40618 -0.23300
N 	N 	0.90141 0.37620 0.42760 -0.16900
N 	N 	0.84830 0.26040 0.44050 -0.22500
O 	O 	0.90570 0.17130 0.49310 -0.36100
H 	H 	0.92370 0.17900 0.50600 0.25600
O 	O 	0.91890 0.50140 0.47930 -1.39300
H 	H 	0.93800 0.51400 0.47100 0.53300
H 	H 	0.88720 0.45670 0.50450 0.35200
H 	H 	0.91930 0.48450 0.48990 1.12800
C 	C 	0.88160 0.16230 0.45940 0.09400
H 	H 	0.86810 0.13820 0.46270 0.00700
H 	H 	0.89660 0.16140 0.43610 0.01500
O 	O 	0.86800 0.49660 0.46940 -0.25900
H 	H 	0.84620 0.49640 0.48060 0.09900
C 	C 	0.48090 0.71770 0.92490 -0.04500
C 	C 	0.44960 0.77910 0.89390 -0.02700
C 	C 	0.39360 0.90300 0.95320 -0.16200
H 	H 	0.37740 0.89670 0.97340 0.06400
C 	C 	0.40860 0.94050 0.95170 0.31500
C 	C 	0.43270 0.94890 0.92260 -0.29600
H 	H 	0.44320 0.97330 0.92060 0.16700
C 	C 	0.44170 0.92120 0.89590 0.08300
H 	H 	0.45890 0.92640 0.87630 0.00300
C 	C 	0.42460 0.88530 0.89880 -0.05700
H 	H 	0.42970 0.86710 0.88000 0.03200
C 	C 	0.37070 0.72940 0.94820 0.02400
H 	H 	0.39720 0.73130 0.94570 0.02100
C 	C 	0.35450 0.69560 0.95950 -0.03400
C 	C 	0.31580 0.69230 0.96150 0.01200
H 	H 	0.30480 0.66910 0.96880 0.02600
C 	C 	0.29400 0.72120 0.95330 -0.11400
H 	H 	0.26750 0.71900 0.95500 0.07500
C 	C 	0.31090 0.75570 0.94200 0.07100
H 	H 	0.29510 0.77610 0.93540 -0.01400
C 	C 	0.39670 0.97020 0.98210 -0.82100
H 	H 	0.36940 0.97490 0.97990 0.40600
H 	H 	0.40160 0.96010 0.00750 -0.20800
C 	C 	0.36920 0.65880 0.97890 -0.00700
H 	H 	0.35240 0.65080 0.99960 0.05800
H 	H 	0.37180 0.63800 0.96070 0.00900
N 	N 	0.47030 0.70060 0.95090 -0.10900
N 	N 	0.42340 0.79419 0.90618 -0.23300
N 	N 	0.40141 0.87620 0.92760 -0.17000
N 	N 	0.34830 0.76040 0.94050 -0.22500
O 	O 	0.40570 0.67130 0.99310 -0.35500
H 	H 	0.42370 0.67900 0.00600 0.25100
O 	O 	0.41890 0.00140 0.97930 -1.41300
H 	H 	0.43800 0.01400 0.97100 0.53900
H 	H 	0.38720 0.95670 0.00450 0.35500
H 	H 	0.41930 0.98450 0.98990 1.14000
C 	C 	0.38160 0.66230 0.95940 0.09200
H 	H 	0.36810 0.63820 0.96270 0.00800
H 	H 	0.39660 0.66140 0.93610 0.01600
O 	O 	0.36800 0.99660 0.96940 -0.25600
H 	H 	0.34620 0.99640 0.98060 0.10000
C 	C 	0.51910 0.78230 0.92490 -0.04500
C 	C 	0.55040 0.72090 0.89390 -0.02700
C 	C 	0.60640 0.59700 0.95320 -0.16100
H 	H 	0.62260 0.60330 0.97340 0.06400
C 	C 	0.59140 0.55950 0.95170 0.31200
C 	C 	0.56730 0.55110 0.92260 -0.29400
H 	H 	0.55680 0.52670 0.92060 0.16500
C 	C 	0.55830 0.57880 0.89590 0.08100
H 	H 	0.54110 0.57360 0.87630 0.00300
C 	C 	0.57540 0.61470 0.89880 -0.05600
H 	H 	0.57030 0.63290 0.88000 0.03200
C 	C 	0.62930 0.77060 0.94820 0.02400
H 	H 	0.60280 0.76870 0.94570 0.02100
C 	C 	0.64550 0.80440 0.95950 -0.03400
C 	C 	0.68420 0.80770 0.96150 0.01200
H 	H 	0.69520 0.83090 0.96880 0.02600
C 	C 	0.70600 0.77880 0.95330 -0.11400
H 	H 	0.73250 0.78100 0.95500 0.07600
C 	C 	0.68910 0.74430 0.94200 0.07100
H 	H 	0.70490 0.72390 0.93540 -0.01400
C 	C 	0.60330 0.52980 0.98210 -0.81400
H 	H 	0.63060 0.52510 0.97990 0.40600
H 	H 	0.59840 0.53990 0.00750 -0.20300
C 	C 	0.63080 0.84120 0.97890 -0.00700
H 	H 	0.64760 0.84920 0.99960 0.05800
H 	H 	0.62820 0.86200 0.96070 0.00900
N 	N 	0.52970 0.79940 0.95090 -0.10900
N 	N 	0.57660 0.70581 0.90618 -0.23300
N 	N 	0.59859 0.62380 0.92760 -0.17000
N 	N 	0.65170 0.73960 0.94050 -0.22500
O 	O 	0.59430 0.82870 0.99310 -0.35500
H 	H 	0.57630 0.82100 0.00600 0.25100
O 	O 	0.58110 0.49860 0.97930 -1.39200
H 	H 	0.56200 0.48600 0.97100 0.53300
H 	H 	0.61280 0.54330 0.00450 0.34900
H 	H 	0.58070 0.51550 0.98990 1.12400
C 	C 	0.61840 0.83770 0.95940 0.09200
H 	H 	0.63190 0.86180 0.96270 0.00800
H 	H 	0.60340 0.83860 0.93610 0.01600
O 	O 	0.63200 0.50340 0.96940 -0.26000
H 	H 	0.65380 0.50360 0.98060 0.10100
C 	C 	0.01910 0.28230 0.42490 -0.04600
C 	C 	0.05040 0.22090 0.39390 -0.02700
C 	C 	0.10640 0.09700 0.45320 -0.16100
H 	H 	0.12260 0.10330 0.47340 0.06300
C 	C 	0.09140 0.05950 0.45170 0.31300
C 	C 	0.06730 0.05110 0.42260 -0.29500
H 	H 	0.05680 0.02670 0.42060 0.16400
C 	C 	0.05830 0.07880 0.39590 0.08200
H 	H 	0.04110 0.07360 0.37630 0.00200
C 	C 	0.07540 0.11470 0.39880 -0.05700
H 	H 	0.07030 0.13290 0.38000 0.03200
C 	C 	0.12930 0.27060 0.44820 0.02500
H 	H 	0.10280 0.26870 0.44570 0.02100
C 	C 	0.14550 0.30440 0.45950 -0.03500
C 	C 	0.18420 0.30770 0.46150 0.01300
H 	H 	0.19520 0.33090 0.46880 0.02500
C 	C 	0.20600 0.27880 0.45330 -0.11500
H 	H 	0.23250 0.28100 0.45500 0.07500
C 	C 	0.18910 0.24430 0.44200 0.07100
H 	H 	0.20490 0.22390 0.43540 -0.01500
C 	C 	0.10330 0.02980 0.48210 -0.82000
H 	H 	0.13060 0.02510 0.47990 0.40800
H 	H 	0.09840 0.03990 0.50750 -0.19500
C 	C 	0.13080 0.34120 0.47890 -0.00600
H 	H 	0.14760 0.34920 0.49960 0.05700
H 	H 	0.12820 0.36200 0.46070 0.00800
N 	N 	0.02970 0.29940 0.45090 -0.11000
N 	N 	0.07660 0.20581 0.40618 -0.23300
N 	N 	0.09859 0.12380 0.42760 -0.17000
N 	N 	0.15170 0.23960 0.44050 -0.22500
O 	O 	0.09430 0.32870 0.49310 -0.36100
H 	H 	0.07630 0.32100 0.50600 0.25500
O 	O 	0.08110 0.99860 0.47930 -1.37100
H 	H 	0.06200 0.98600 0.47100 0.52400
H 	H 	0.11280 0.04330 0.50450 0.34600
H 	H 	0.08070 0.01550 0.48990 1.11000
C 	C 	0.11840 0.33770 0.45940 0.09400
H 	H 	0.13190 0.36180 0.46270 0.00700
H 	H 	0.10340 0.33860 0.43610 0.01500
O 	O 	0.13200 0.00340 0.46940 -0.26400
H 	H 	0.15380 0.00360 0.48060 0.10000
C 	C 	0.07510 0.01910 0.71770 -0.04600
C 	C 	0.10610 0.05040 0.77910 -0.02700
C 	C 	0.04680 0.10640 0.90300 -0.16700
H 	H 	0.02660 0.12260 0.89670 0.06400
C 	C 	0.04830 0.09140 0.94050 0.32300
C 	C 	0.07740 0.06730 0.94890 -0.30300
H 	H 	0.07940 0.05680 0.97330 0.16900
C 	C 	0.10410 0.05830 0.92120 0.08800
H 	H 	0.12370 0.04110 0.92640 0.00000
C 	C 	0.10120 0.07540 0.88530 -0.06000
H 	H 	0.12000 0.07030 0.86710 0.03300
C 	C 	0.05180 0.12930 0.72940 0.02500
H 	H 	0.05430 0.10280 0.73130 0.02000
C 	C 	0.04050 0.14550 0.69560 -0.03700
C 	C 	0.03850 0.18420 0.69230 0.01400
H 	H 	0.03120 0.19520 0.66910 0.02500
C 	C 	0.04670 0.20600 0.72120 -0.11700
H 	H 	0.04500 0.23250 0.71900 0.07500
C 	C 	0.05800 0.18910 0.75570 0.07100
H 	H 	0.06460 0.20490 0.77610 -0.01500
C 	C 	0.01790 0.10330 0.97020 -0.84600
H 	H 	0.02010 0.13060 0.97490 0.41200
H 	H 	0.99250 0.09840 0.96010 -0.20200
C 	C 	0.02110 0.13080 0.65880 -0.00500
H 	H 	0.00040 0.14760 0.65080 0.05600
H 	H 	0.03930 0.12820 0.63800 0.00800
N 	N 	0.04910 0.02970 0.70060 -0.11100
N 	N 	0.09382 0.07660 0.79419 -0.23300
N 	N 	0.07240 0.09859 0.87620 -0.16800
N 	N 	0.05950 0.15170 0.76040 -0.22500
O 	O 	0.00690 0.09430 0.67130 -0.36700
H 	H 	0.99400 0.07630 0.67900 0.26100
O 	O 	0.02070 0.08110 0.00140 -1.41300
H 	H 	0.02900 0.06200 0.01400 0.53700
H 	H 	0.99550 0.11280 0.95670 0.36100
H 	H 	0.01010 0.08070 0.98450 1.14500
C 	C 	0.04060 0.11840 0.66230 0.09600
H 	H 	0.03730 0.13190 0.63820 0.00600
H 	H 	0.06390 0.10340 0.66140 0.01500
O 	O 	0.03060 0.13200 0.99660 -0.25400
H 	H 	0.01940 0.15380 0.99640 0.09700
C 	C 	0.57510 0.51910 0.21770 -0.04500
C 	C 	0.60610 0.55040 0.27910 -0.02700
C 	C 	0.54680 0.60640 0.40300 -0.16300
H 	H 	0.52660 0.62260 0.39670 0.06400
C 	C 	0.54830 0.59140 0.44050 0.31600
C 	C 	0.57740 0.56730 0.44890 -0.29700
H 	H 	0.57940 0.55680 0.47330 0.16600
C 	C 	0.60410 0.55830 0.42120 0.08300
H 	H 	0.62370 0.54110 0.42640 0.00200
C 	C 	0.60120 0.57540 0.38530 -0.05700
H 	H 	0.62000 0.57030 0.36710 0.03200
C 	C 	0.55180 0.62930 0.22940 0.02500
H 	H 	0.55430 0.60280 0.23130 0.02100
C 	C 	0.54050 0.64550 0.19560 -0.03500
C 	C 	0.53850 0.68420 0.19230 0.01300
H 	H 	0.53120 0.69520 0.16910 0.02500
C 	C 	0.54670 0.70600 0.22120 -0.11500
H 	H 	0.54500 0.73250 0.21900 0.07500
C 	C 	0.55800 0.68910 0.25570 0.07100
H 	H 	0.56460 0.70490 0.27610 -0.01500
C 	C 	0.51790 0.60330 0.47020 -0.82700
H 	H 	0.52010 0.63060 0.47490 0.40900
H 	H 	0.49250 0.59840 0.46010 -0.20000
C 	C 	0.52110 0.63080 0.15880 -0.00600
H 	H 	0.50040 0.64760 0.15080 0.05700
H 	H 	0.53930 0.62820 0.13800 0.00800
N 	N 	0.54910 0.52970 0.20060 -0.11000
N 	N 	0.59382 0.57660 0.29419 -0.23300
N 	N 	0.57240 0.59859 0.37620 -0.16900
N 	N 	0.55950 0.65170 0.26040 -0.22500
O 	O 	0.50690 0.59430 0.17130 -0.36100
H 	H 	0.49400 0.57630 0.17900 0.25600
O 	O 	0.52070 0.58110 0.50140 -1.39300
H 	H 	0.52900 0.56200 0.51400 0.53200
H 	H 	0.49550 0.61280 0.45670 0.35200
H 	H 	0.51010 0.58070 0.48450 1.12700
C 	C 	0.54060 0.61840 0.16230 0.09400
H 	H 	0.53730 0.63190 0.13820 0.00700
H 	H 	0.56390 0.60340 0.16140 0.01500
O 	O 	0.53060 0.63200 0.49660 -0.25900
H 	H 	0.51940 0.65380 0.49640 0.09900
C 	C 	0.57510 0.48090 0.28230 -0.04500
C 	C 	0.60610 0.44960 0.22090 -0.02700
C 	C 	0.54680 0.39360 0.09700 -0.16100
H 	H 	0.52660 0.37740 0.10330 0.06300
C 	C 	0.54830 0.40860 0.05950 0.31300
C 	C 	0.57740 0.43270 0.05110 -0.29400
H 	H 	0.57940 0.44320 0.02670 0.16400
C 	C 	0.60410 0.44170 0.07880 0.08200
H 	H 	0.62370 0.45890 0.07360 0.00300
C 	C 	0.60120 0.42460 0.11470 -0.05600
H 	H 	0.62000 0.42970 0.13290 0.03200
C 	C 	0.55180 0.37070 0.27060 0.02500
H 	H 	0.55430 0.39720 0.26870 0.02100
C 	C 	0.54050 0.35450 0.30440 -0.03500
C 	C 	0.53850 0.31580 0.30770 0.01300
H 	H 	0.53120 0.30480 0.33090 0.02500
C 	C 	0.54670 0.29400 0.27880 -0.11500
H 	H 	0.54500 0.26750 0.28100 0.07500
C 	C 	0.55800 0.31090 0.24430 0.07100
H 	H 	0.56460 0.29510 0.22390 -0.01500
C 	C 	0.51790 0.39670 0.02980 -0.82000
H 	H 	0.52010 0.36940 0.02510 0.40800
H 	H 	0.49250 0.40160 0.03990 -0.19600
C 	C 	0.52110 0.36920 0.34120 -0.00600
H 	H 	0.50040 0.35240 0.34920 0.05700
H 	H 	0.53930 0.37180 0.36200 0.00800
N 	N 	0.54910 0.47030 0.29940 -0.11000
N 	N 	0.59382 0.42340 0.20581 -0.23300
N 	N 	0.57240 0.40141 0.12380 -0.17000
N 	N 	0.55950 0.34830 0.23960 -0.22500
O 	O 	0.50690 0.40570 0.32870 -0.36100
H 	H 	0.49400 0.42370 0.32100 0.25600
O 	O 	0.52070 0.41890 0.99860 -1.37200
H 	H 	0.52900 0.43800 0.98600 0.52500
H 	H 	0.49550 0.38720 0.04330 0.34600
H 	H 	0.51010 0.41930 0.01550 1.11100
C 	C 	0.54060 0.38160 0.33770 0.09400
H 	H 	0.53730 0.36810 0.36180 0.00700
H 	H 	0.56390 0.39660 0.33860 0.01500
O 	O 	0.53060 0.36800 0.00340 -0.26400
H 	H 	0.51940 0.34620 0.00360 0.10000
C 	C 	0.07510 0.98090 0.78230 -0.04200
C 	C 	0.10610 0.94960 0.72090 -0.02500
C 	C 	0.04680 0.89360 0.59700 -0.16500
H 	H 	0.02660 0.87740 0.60330 0.06400
C 	C 	0.04830 0.90860 0.55950 0.32000
C 	C 	0.07740 0.93270 0.55110 -0.30000
H 	H 	0.07940 0.94320 0.52670 0.16800
C 	C 	0.10410 0.94170 0.57880 0.08500
H 	H 	0.12370 0.95890 0.57360 0.00300
C 	C 	0.10120 0.92460 0.61470 -0.05800
H 	H 	0.12000 0.92970 0.63290 0.03300
C 	C 	0.05180 0.87070 0.77060 0.02500
H 	H 	0.05430 0.89720 0.76870 0.02000
C 	C 	0.04050 0.85450 0.80440 -0.03700
C 	C 	0.03850 0.81580 0.80770 0.01400
H 	H 	0.03120 0.80480 0.83090 0.02500
C 	C 	0.04670 0.79400 0.77880 -0.11700
H 	H 	0.04500 0.76750 0.78100 0.07500
C 	C 	0.05800 0.81090 0.74430 0.07100
H 	H 	0.06460 0.79510 0.72390 -0.01500
C 	C 	0.01790 0.89670 0.52980 -0.83900
H 	H 	0.02010 0.86940 0.52510 0.41200
H 	H 	0.99250 0.90160 0.53990 -0.19800
C 	C 	0.02110 0.86920 0.84120 -0.00500
H 	H 	0.00040 0.85240 0.84920 0.05600
H 	H 	0.03930 0.87180 0.86200 0.00800
N 	N 	0.04910 0.97030 0.79940 -0.11000
N 	N 	0.09382 0.92340 0.70581 -0.23300
N 	N 	0.07240 0.90141 0.62380 -0.16900
N 	N 	0.05950 0.84830 0.73960 -0.22500
O 	O 	0.00690 0.90570 0.82870 -0.36700
H 	H 	0.99400 0.92370 0.82100 0.26100
O 	O 	0.02070 0.91890 0.49860 -1.39400
H 	H 	0.02900 0.93800 0.48600 0.53200
H 	H 	0.99550 0.88720 0.54330 0.35600
H 	H 	0.01010 0.91930 0.51550 1.13000
C 	C 	0.04060 0.88160 0.83770 0.09600
H 	H 	0.03730 0.86810 0.86180 0.00600
H 	H 	0.06390 0.89660 0.83860 0.01500
O 	O 	0.03060 0.86800 0.50340 -0.25900
H 	H 	0.01940 0.84620 0.50360 0.09700
C 	C 	0.42490 0.98090 0.21770 -0.04200
C 	C 	0.39390 0.94960 0.27910 -0.02500
C 	C 	0.45320 0.89360 0.40300 -0.16300
H 	H 	0.47340 0.87740 0.39670 0.06400
C 	C 	0.45170 0.90860 0.44050 0.31600
C 	C 	0.42260 0.93270 0.44890 -0.29700
H 	H 	0.42060 0.94320 0.47330 0.16600
C 	C 	0.39590 0.94170 0.42120 0.08300
H 	H 	0.37630 0.95890 0.42640 0.00300
C 	C 	0.39880 0.92460 0.38530 -0.05700
H 	H 	0.38000 0.92970 0.36710 0.03200
C 	C 	0.44820 0.87070 0.22940 0.02500
H 	H 	0.44570 0.89720 0.23130 0.02100
C 	C 	0.45950 0.85450 0.19560 -0.03500
C 	C 	0.46150 0.81580 0.19230 0.01300
H 	H 	0.46880 0.80480 0.16910 0.02500
C 	C 	0.45330 0.79400 0.22120 -0.11500
H 	H 	0.45500 0.76750 0.21900 0.07500
C 	C 	0.44200 0.81090 0.25570 0.07100
H 	H 	0.43540 0.79510 0.27610 -0.01500
C 	C 	0.48210 0.89670 0.47020 -0.82700
H 	H 	0.47990 0.86940 0.47490 0.40900
H 	H 	0.50750 0.90160 0.46010 -0.20000
C 	C 	0.47890 0.86920 0.15880 -0.00600
H 	H 	0.49960 0.85240 0.15080 0.05700
H 	H 	0.46070 0.87180 0.13800 0.00800
N 	N 	0.45090 0.97030 0.20060 -0.11000
N 	N 	0.40618 0.92340 0.29419 -0.23300
N 	N 	0.42760 0.90141 0.37620 -0.16900
N 	N 	0.44050 0.84830 0.26040 -0.22500
O 	O 	0.49310 0.90570 0.17130 -0.36100
H 	H 	0.50600 0.92370 0.17900 0.25600
O 	O 	0.47930 0.91890 0.50140 -1.39300
H 	H 	0.47100 0.93800 0.51400 0.53300
H 	H 	0.50450 0.88720 0.45670 0.35200
H 	H 	0.48990 0.91930 0.48450 1.12800
C 	C 	0.45940 0.88160 0.16230 0.09400
H 	H 	0.46270 0.86810 0.13820 0.00700
H 	H 	0.43610 0.89660 0.16140 0.01500
O 	O 	0.46940 0.86800 0.49660 -0.25900
H 	H 	0.48060 0.84620 0.49640 0.09900
C 	C 	0.92490 0.48090 0.71770 -0.04500
C 	C 	0.89390 0.44960 0.77910 -0.02700
C 	C 	0.95320 0.39360 0.90300 -0.16200
H 	H 	0.97340 0.37740 0.89670 0.06400
C 	C 	0.95170 0.40860 0.94050 0.31500
C 	C 	0.92260 0.43270 0.94890 -0.29600
H 	H 	0.92060 0.44320 0.97330 0.16700
C 	C 	0.89590 0.44170 0.92120 0.08300
H 	H 	0.87630 0.45890 0.92640 0.00300
C 	C 	0.89880 0.42460 0.88530 -0.05700
H 	H 	0.88000 0.42970 0.86710 0.03200
C 	C 	0.94820 0.37070 0.72940 0.02400
H 	H 	0.94570 0.39720 0.73130 0.02100
C 	C 	0.95950 0.35450 0.69560 -0.03400
C 	C 	0.96150 0.31580 0.69230 0.01200
H 	H 	0.96880 0.30480 0.66910 0.02600
C 	C 	0.95330 0.29400 0.72120 -0.11400
H 	H 	0.95500 0.26750 0.71900 0.07500
C 	C 	0.94200 0.31090 0.75570 0.07100
H 	H 	0.93540 0.29510 0.77610 -0.01400
C 	C 	0.98210 0.39670 0.97020 -0.82100
H 	H 	0.97990 0.36940 0.97490 0.40600
H 	H 	0.00750 0.40160 0.96010 -0.20800
C 	C 	0.97890 0.36920 0.65880 -0.00700
H 	H 	0.99960 0.35240 0.65080 0.05800
H 	H 	0.96070 0.37180 0.63800 0.00900
N 	N 	0.95090 0.47030 0.70060 -0.10900
N 	N 	0.90618 0.42340 0.79419 -0.23300
N 	N 	0.92760 0.40141 0.87620 -0.17000
N 	N 	0.94050 0.34830 0.76040 -0.22500
O 	O 	0.99310 0.40570 0.67130 -0.35500
H 	H 	0.00600 0.42370 0.67900 0.25100
O 	O 	0.97930 0.41890 0.00140 -1.41300
H 	H 	0.97100 0.43800 0.01400 0.53900
H 	H 	0.00450 0.38720 0.95670 0.35500
H 	H 	0.98990 0.41930 0.98450 1.14000
C 	C 	0.95940 0.38160 0.66230 0.09200
H 	H 	0.96270 0.36810 0.63820 0.00800
H 	H 	0.93610 0.39660 0.66140 0.01600
O 	O 	0.96940 0.36800 0.99660 -0.25600
H 	H 	0.98060 0.34620 0.99640 0.10000
C 	C 	0.92490 0.51910 0.78230 -0.04500
C 	C 	0.89390 0.55040 0.72090 -0.02700
C 	C 	0.95320 0.60640 0.59700 -0.16100
H 	H 	0.97340 0.62260 0.60330 0.06400
C 	C 	0.95170 0.59140 0.55950 0.31200
C 	C 	0.92260 0.56730 0.55110 -0.29400
H 	H 	0.92060 0.55680 0.52670 0.16500
C 	C 	0.89590 0.55830 0.57880 0.08100
H 	H 	0.87630 0.54110 0.57360 0.00300
C 	C 	0.89880 0.57540 0.61470 -0.05600
H 	H 	0.88000 0.57030 0.63290 0.03200
C 	C 	0.94820 0.62930 0.77060 0.02400
H 	H 	0.94570 0.60280 0.76870 0.02100
C 	C 	0.95950 0.64550 0.80440 -0.03400
C 	C 	0.96150 0.68420 0.80770 0.01200
H 	H 	0.96880 0.69520 0.83090 0.02600
C 	C 	0.95330 0.70600 0.77880 -0.11400
H 	H 	0.95500 0.73250 0.78100 0.07600
C 	C 	0.94200 0.68910 0.74430 0.07100
H 	H 	0.93540 0.70490 0.72390 -0.01400
C 	C 	0.98210 0.60330 0.52980 -0.81400
H 	H 	0.97990 0.63060 0.52510 0.40600
H 	H 	0.00750 0.59840 0.53990 -0.20300
C 	C 	0.97890 0.63080 0.84120 -0.00700
H 	H 	0.99960 0.64760 0.84920 0.05800
H 	H 	0.96070 0.62820 0.86200 0.00900
N 	N 	0.95090 0.52970 0.79940 -0.10900
N 	N 	0.90618 0.57660 0.70581 -0.23300
N 	N 	0.92760 0.59859 0.62380 -0.17000
N 	N 	0.94050 0.65170 0.73960 -0.22500
O 	O 	0.99310 0.59430 0.82870 -0.35500
H 	H 	0.00600 0.57630 0.82100 0.25100
O 	O 	0.97930 0.58110 0.49860 -1.39200
H 	H 	0.97100 0.56200 0.48600 0.53300
H 	H 	0.00450 0.61280 0.54330 0.34900
H 	H 	0.98990 0.58070 0.51550 1.12400
C 	C 	0.95940 0.61840 0.83770 0.09200
H 	H 	0.96270 0.63190 0.86180 0.00800
H 	H 	0.93610 0.60340 0.83860 0.01600
O 	O 	0.96940 0.63200 0.50340 -0.26000
H 	H 	0.98060 0.65380 0.50360 0.10100
C 	C 	0.42490 0.01910 0.28230 -0.04600
C 	C 	0.39390 0.05040 0.22090 -0.02700
C 	C 	0.45320 0.10640 0.09700 -0.16100
H 	H 	0.47340 0.12260 0.10330 0.06300
C 	C 	0.45170 0.09140 0.05950 0.31300
C 	C 	0.42260 0.06730 0.05110 -0.29500
H 	H 	0.42060 0.05680 0.02670 0.16400
C 	C 	0.39590 0.05830 0.07880 0.08200
H 	H 	0.37630 0.04110 0.07360 0.00200
C 	C 	0.39880 0.07540 0.11470 -0.05700
H 	H 	0.38000 0.07030 0.13290 0.03200
C 	C 	0.44820 0.12930 0.27060 0.02500
H 	H 	0.44570 0.10280 0.26870 0.02100
C 	C 	0.45950 0.14550 0.30440 -0.03500
C 	C 	0.46150 0.18420 0.30770 0.01300
H 	H 	0.46880 0.19520 0.33090 0.02500
C 	C 	0.45330 0.20600 0.27880 -0.11500
H 	H 	0.45500 0.23250 0.28100 0.07500
C 	C 	0.44200 0.18910 0.24430 0.07100
H 	H 	0.43540 0.20490 0.22390 -0.01500
C 	C 	0.48210 0.10330 0.02980 -0.82000
H 	H 	0.47990 0.13060 0.02510 0.40800
H 	H 	0.50750 0.09840 0.03990 -0.19500
C 	C 	0.47890 0.13080 0.34120 -0.00600
H 	H 	0.49960 0.14760 0.34920 0.05700
H 	H 	0.46070 0.12820 0.36200 0.00800
N 	N 	0.45090 0.02970 0.29940 -0.11000
N 	N 	0.40618 0.07660 0.20581 -0.23300
N 	N 	0.42760 0.09859 0.12380 -0.17000
N 	N 	0.44050 0.15170 0.23960 -0.22500
O 	O 	0.49310 0.09430 0.32870 -0.36100
H 	H 	0.50600 0.07630 0.32100 0.25500
O 	O 	0.47930 0.08110 0.99860 -1.37100
H 	H 	0.47100 0.06200 0.98600 0.52400
H 	H 	0.50450 0.11280 0.04330 0.34600
H 	H 	0.48990 0.08070 0.01550 1.11000
C 	C 	0.45940 0.11840 0.33770 0.09400
H 	H 	0.46270 0.13190 0.36180 0.00700
H 	H 	0.43610 0.10340 0.33860 0.01500
O 	O 	0.46940 0.13200 0.00340 -0.26400
H 	H 	0.48060 0.15380 0.00360 0.10000
C 	C 	0.71770 0.07510 0.01910 -0.04600
C 	C 	0.77910 0.10610 0.05040 -0.02700
C 	C 	0.90300 0.04680 0.10640 -0.16700
H 	H 	0.89670 0.02660 0.12260 0.06400
C 	C 	0.94050 0.04830 0.09140 0.32300
C 	C 	0.94890 0.07740 0.06730 -0.30300
H 	H 	0.97330 0.07940 0.05680 0.16900
C 	C 	0.92120 0.10410 0.05830 0.08800
H 	H 	0.92640 0.12370 0.04110 0.00000
C 	C 	0.88530 0.10120 0.07540 -0.06000
H 	H 	0.86710 0.12000 0.07030 0.03300
C 	C 	0.72940 0.05180 0.12930 0.02500
H 	H 	0.73130 0.05430 0.10280 0.02000
C 	C 	0.69560 0.04050 0.14550 -0.03700
C 	C 	0.69230 0.03850 0.18420 0.01400
H 	H 	0.66910 0.03120 0.19520 0.02500
C 	C 	0.72120 0.04670 0.20600 -0.11700
H 	H 	0.71900 0.04500 0.23250 0.07500
C 	C 	0.75570 0.05800 0.18910 0.07100
H 	H 	0.77610 0.06460 0.20490 -0.01500
C 	C 	0.97020 0.01790 0.10330 -0.84600
H 	H 	0.97490 0.02010 0.13060 0.41200
H 	H 	0.96010 0.99250 0.09840 -0.20200
C 	C 	0.65880 0.02110 0.13080 -0.00500
H 	H 	0.65080 0.00040 0.14760 0.05600
H 	H 	0.63800 0.03930 0.12820 0.00800
N 	N 	0.70060 0.04910 0.02970 -0.11100
N 	N 	0.79419 0.09382 0.07660 -0.23300
N 	N 	0.87620 0.07240 0.09859 -0.16800
N 	N 	0.76040 0.05950 0.15170 -0.22500
O 	O 	0.67130 0.00690 0.09430 -0.36700
H 	H 	0.67900 0.99400 0.07630 0.26100
O 	O 	0.00140 0.02070 0.08110 -1.41300
H 	H 	0.01400 0.02900 0.06200 0.53700
H 	H 	0.95670 0.99550 0.11280 0.36100
H 	H 	0.98450 0.01010 0.08070 1.14500
C 	C 	0.66230 0.04060 0.11840 0.09600
H 	H 	0.63820 0.03730 0.13190 0.00600
H 	H 	0.66140 0.06390 0.10340 0.01500
O 	O 	0.99660 0.03060 0.13200 -0.25400
H 	H 	0.99640 0.01940 0.15380 0.09700
C 	C 	0.21770 0.57510 0.51910 -0.04500
C 	C 	0.27910 0.60610 0.55040 -0.02700
C 	C 	0.40300 0.54680 0.60640 -0.16300
H 	H 	0.39670 0.52660 0.62260 0.06400
C 	C 	0.44050 0.54830 0.59140 0.31600
C 	C 	0.44890 0.57740 0.56730 -0.29700
H 	H 	0.47330 0.57940 0.55680 0.16600
C 	C 	0.42120 0.60410 0.55830 0.08300
H 	H 	0.42640 0.62370 0.54110 0.00200
C 	C 	0.38530 0.60120 0.57540 -0.05700
H 	H 	0.36710 0.62000 0.57030 0.03200
C 	C 	0.22940 0.55180 0.62930 0.02500
H 	H 	0.23130 0.55430 0.60280 0.02100
C 	C 	0.19560 0.54050 0.64550 -0.03500
C 	C 	0.19230 0.53850 0.68420 0.01300
H 	H 	0.16910 0.53120 0.69520 0.02500
C 	C 	0.22120 0.54670 0.70600 -0.11500
H 	H 	0.21900 0.54500 0.73250 0.07500
C 	C 	0.25570 0.55800 0.68910 0.07100
H 	H 	0.27610 0.56460 0.70490 -0.01500
C 	C 	0.47020 0.51790 0.60330 -0.82700
H 	H 	0.47490 0.52010 0.63060 0.40900
H 	H 	0.46010 0.49250 0.59840 -0.20000
C 	C 	0.15880 0.52110 0.63080 -0.00600
H 	H 	0.15080 0.50040 0.64760 0.05700
H 	H 	0.13800 0.53930 0.62820 0.00800
N 	N 	0.20060 0.54910 0.52970 -0.11000
N 	N 	0.29419 0.59382 0.57660 -0.23300
N 	N 	0.37620 0.57240 0.59859 -0.16900
N 	N 	0.26040 0.55950 0.65170 -0.22500
O 	O 	0.17130 0.50690 0.59430 -0.36100
H 	H 	0.17900 0.49400 0.57630 0.25600
O 	O 	0.50140 0.52070 0.58110 -1.39300
H 	H 	0.51400 0.52900 0.56200 0.53200
H 	H 	0.45670 0.49550 0.61280 0.35200
H 	H 	0.48450 0.51010 0.58070 1.12700
C 	C 	0.16230 0.54060 0.61840 0.09400
H 	H 	0.13820 0.53730 0.63190 0.00700
H 	H 	0.16140 0.56390 0.60340 0.01500
O 	O 	0.49660 0.53060 0.63200 -0.25900
H 	H 	0.49640 0.51940 0.65380 0.09900
C 	C 	0.28230 0.57510 0.48090 -0.04500
C 	C 	0.22090 0.60610 0.44960 -0.02700
C 	C 	0.09700 0.54680 0.39360 -0.16100
H 	H 	0.10330 0.52660 0.37740 0.06300
C 	C 	0.05950 0.54830 0.40860 0.31300
C 	C 	0.05110 0.57740 0.43270 -0.29400
H 	H 	0.02670 0.57940 0.44320 0.16400
C 	C 	0.07880 0.60410 0.44170 0.08200
H 	H 	0.07360 0.62370 0.45890 0.00300
C 	C 	0.11470 0.60120 0.42460 -0.05600
H 	H 	0.13290 0.62000 0.42970 0.03200
C 	C 	0.27060 0.55180 0.37070 0.02500
H 	H 	0.26870 0.55430 0.39720 0.02100
C 	C 	0.30440 0.54050 0.35450 -0.03500
C 	C 	0.30770 0.53850 0.31580 0.01300
H 	H 	0.33090 0.53120 0.30480 0.02500
C 	C 	0.27880 0.54670 0.29400 -0.11500
H 	H 	0.28100 0.54500 0.26750 0.07500
C 	C 	0.24430 0.55800 0.31090 0.07100
H 	H 	0.22390 0.56460 0.29510 -0.01500
C 	C 	0.02980 0.51790 0.39670 -0.82000
H 	H 	0.02510 0.52010 0.36940 0.40800
H 	H 	0.03990 0.49250 0.40160 -0.19600
C 	C 	0.34120 0.52110 0.36920 -0.00600
H 	H 	0.34920 0.50040 0.35240 0.05700
H 	H 	0.36200 0.53930 0.37180 0.00800
N 	N 	0.29940 0.54910 0.47030 -0.11000
N 	N 	0.20581 0.59382 0.42340 -0.23300
N 	N 	0.12380 0.57240 0.40141 -0.17000
N 	N 	0.23960 0.55950 0.34830 -0.22500
O 	O 	0.32870 0.50690 0.40570 -0.36100
H 	H 	0.32100 0.49400 0.42370 0.25600
O 	O 	0.99860 0.52070 0.41890 -1.37200
H 	H 	0.98600 0.52900 0.43800 0.52500
H 	H 	0.04330 0.49550 0.38720 0.34600
H 	H 	0.01550 0.51010 0.41930 1.11100
C 	C 	0.33770 0.54060 0.38160 0.09400
H 	H 	0.36180 0.53730 0.36810 0.00700
H 	H 	0.33860 0.56390 0.39660 0.01500
O 	O 	0.00340 0.53060 0.36800 -0.26400
H 	H 	0.00360 0.51940 0.34620 0.10000
C 	C 	0.78230 0.07510 0.98090 -0.04200
C 	C 	0.72090 0.10610 0.94960 -0.02500
C 	C 	0.59700 0.04680 0.89360 -0.16500
H 	H 	0.60330 0.02660 0.87740 0.06400
C 	C 	0.55950 0.04830 0.90860 0.32000
C 	C 	0.55110 0.07740 0.93270 -0.30000
H 	H 	0.52670 0.07940 0.94320 0.16800
C 	C 	0.57880 0.10410 0.94170 0.08500
H 	H 	0.57360 0.12370 0.95890 0.00300
C 	C 	0.61470 0.10120 0.92460 -0.05800
H 	H 	0.63290 0.12000 0.92970 0.03300
C 	C 	0.77060 0.05180 0.87070 0.02500
H 	H 	0.76870 0.05430 0.89720 0.02000
C 	C 	0.80440 0.04050 0.85450 -0.03700
C 	C 	0.80770 0.03850 0.81580 0.01400
H 	H 	0.83090 0.03120 0.80480 0.02500
C 	C 	0.77880 0.04670 0.79400 -0.11700
H 	H 	0.78100 0.04500 0.76750 0.07500
C 	C 	0.74430 0.05800 0.81090 0.07100
H 	H 	0.72390 0.06460 0.79510 -0.01500
C 	C 	0.52980 0.01790 0.89670 -0.83900
H 	H 	0.52510 0.02010 0.86940 0.41200
H 	H 	0.53990 0.99250 0.90160 -0.19800
C 	C 	0.84120 0.02110 0.86920 -0.00500
H 	H 	0.84920 0.00040 0.85240 0.05600
H 	H 	0.86200 0.03930 0.87180 0.00800
N 	N 	0.79940 0.04910 0.97030 -0.11000
N 	N 	0.70581 0.09382 0.92340 -0.23300
N 	N 	0.62380 0.07240 0.90141 -0.16900
N 	N 	0.73960 0.05950 0.84830 -0.22500
O 	O 	0.82870 0.00690 0.90570 -0.36700
H 	H 	0.82100 0.99400 0.92370 0.26100
O 	O 	0.49860 0.02070 0.91890 -1.39400
H 	H 	0.48600 0.02900 0.93800 0.53200
H 	H 	0.54330 0.99550 0.88720 0.35600
H 	H 	0.51550 0.01010 0.91930 1.13000
C 	C 	0.83770 0.04060 0.88160 0.09600
H 	H 	0.86180 0.03730 0.86810 0.00600
H 	H 	0.83860 0.06390 0.89660 0.01500
O 	O 	0.50340 0.03060 0.86800 -0.25900
H 	H 	0.50360 0.01940 0.84620 0.09700
C 	C 	0.21770 0.42490 0.98090 -0.04200
C 	C 	0.27910 0.39390 0.94960 -0.02500
C 	C 	0.40300 0.45320 0.89360 -0.16300
H 	H 	0.39670 0.47340 0.87740 0.06400
C 	C 	0.44050 0.45170 0.90860 0.31600
C 	C 	0.44890 0.42260 0.93270 -0.29700
H 	H 	0.47330 0.42060 0.94320 0.16600
C 	C 	0.42120 0.39590 0.94170 0.08300
H 	H 	0.42640 0.37630 0.95890 0.00300
C 	C 	0.38530 0.39880 0.92460 -0.05700
H 	H 	0.36710 0.38000 0.92970 0.03200
C 	C 	0.22940 0.44820 0.87070 0.02500
H 	H 	0.23130 0.44570 0.89720 0.02100
C 	C 	0.19560 0.45950 0.85450 -0.03500
C 	C 	0.19230 0.46150 0.81580 0.01300
H 	H 	0.16910 0.46880 0.80480 0.02500
C 	C 	0.22120 0.45330 0.79400 -0.11500
H 	H 	0.21900 0.45500 0.76750 0.07500
C 	C 	0.25570 0.44200 0.81090 0.07100
H 	H 	0.27610 0.43540 0.79510 -0.01500
C 	C 	0.47020 0.48210 0.89670 -0.82700
H 	H 	0.47490 0.47990 0.86940 0.40900
H 	H 	0.46010 0.50750 0.90160 -0.20000
C 	C 	0.15880 0.47890 0.86920 -0.00600
H 	H 	0.15080 0.49960 0.85240 0.05700
H 	H 	0.13800 0.46070 0.87180 0.00800
N 	N 	0.20060 0.45090 0.97030 -0.11000
N 	N 	0.29419 0.40618 0.92340 -0.23300
N 	N 	0.37620 0.42760 0.90141 -0.16900
N 	N 	0.26040 0.44050 0.84830 -0.22500
O 	O 	0.17130 0.49310 0.90570 -0.36100
H 	H 	0.17900 0.50600 0.92370 0.25600
O 	O 	0.50140 0.47930 0.91890 -1.39300
H 	H 	0.51400 0.47100 0.93800 0.53300
H 	H 	0.45670 0.50450 0.88720 0.35200
H 	H 	0.48450 0.48990 0.91930 1.12800
C 	C 	0.16230 0.45940 0.88160 0.09400
H 	H 	0.13820 0.46270 0.86810 0.00700
H 	H 	0.16140 0.43610 0.89660 0.01500
O 	O 	0.49660 0.46940 0.86800 -0.25900
H 	H 	0.49640 0.48060 0.84620 0.09900
C 	C 	0.71770 0.92490 0.48090 -0.04500
C 	C 	0.77910 0.89390 0.44960 -0.02700
C 	C 	0.90300 0.95320 0.39360 -0.16200
H 	H 	0.89670 0.97340 0.37740 0.06400
C 	C 	0.94050 0.95170 0.40860 0.31500
C 	C 	0.94890 0.92260 0.43270 -0.29600
H 	H 	0.97330 0.92060 0.44320 0.16700
C 	C 	0.92120 0.89590 0.44170 0.08300
H 	H 	0.92640 0.87630 0.45890 0.00300
C 	C 	0.88530 0.89880 0.42460 -0.05700
H 	H 	0.86710 0.88000 0.42970 0.03200
C 	C 	0.72940 0.94820 0.37070 0.02400
H 	H 	0.73130 0.94570 0.39720 0.02100
C 	C 	0.69560 0.95950 0.35450 -0.03400
C 	C 	0.69230 0.96150 0.31580 0.01200
H 	H 	0.66910 0.96880 0.30480 0.02600
C 	C 	0.72120 0.95330 0.29400 -0.11400
H 	H 	0.71900 0.95500 0.26750 0.07500
C 	C 	0.75570 0.94200 0.31090 0.07100
H 	H 	0.77610 0.93540 0.29510 -0.01400
C 	C 	0.97020 0.98210 0.39670 -0.82100
H 	H 	0.97490 0.97990 0.36940 0.40600
H 	H 	0.96010 0.00750 0.40160 -0.20800
C 	C 	0.65880 0.97890 0.36920 -0.00700
H 	H 	0.65080 0.99960 0.35240 0.05800
H 	H 	0.63800 0.96070 0.37180 0.00900
N 	N 	0.70060 0.95090 0.47030 -0.10900
N 	N 	0.79419 0.90618 0.42340 -0.23300
N 	N 	0.87620 0.92760 0.40141 -0.17000
N 	N 	0.76040 0.94050 0.34830 -0.22500
O 	O 	0.67130 0.99310 0.40570 -0.35500
H 	H 	0.67900 0.00600 0.42370 0.25100
O 	O 	0.00140 0.97930 0.41890 -1.41300
H 	H 	0.01400 0.97100 0.43800 0.53900
H 	H 	0.95670 0.00450 0.38720 0.35500
H 	H 	0.98450 0.98990 0.41930 1.14000
C 	C 	0.66230 0.95940 0.38160 0.09200
H 	H 	0.63820 0.96270 0.36810 0.00800
H 	H 	0.66140 0.93610 0.39660 0.01600
O 	O 	0.99660 0.96940 0.36800 -0.25600
H 	H 	0.99640 0.98060 0.34620 0.10000
C 	C 	0.78230 0.92490 0.51910 -0.04500
C 	C 	0.72090 0.89390 0.55040 -0.02700
C 	C 	0.59700 0.95320 0.60640 -0.16100
H 	H 	0.60330 0.97340 0.62260 0.06400
C 	C 	0.55950 0.95170 0.59140 0.31200
C 	C 	0.55110 0.92260 0.56730 -0.29400
H 	H 	0.52670 0.92060 0.55680 0.16500
C 	C 	0.57880 0.89590 0.55830 0.08100
H 	H 	0.57360 0.87630 0.54110 0.00300
C 	C 	0.61470 0.89880 0.57540 -0.05600
H 	H 	0.63290 0.88000 0.57030 0.03200
C 	C 	0.77060 0.94820 0.62930 0.02400
H 	H 	0.76870 0.94570 0.60280 0.02100
C 	C 	0.80440 0.95950 0.64550 -0.03400
C 	C 	0.80770 0.96150 0.68420 0.01200
H 	H 	0.83090 0.96880 0.69520 0.02600
C 	C 	0.77880 0.95330 0.70600 -0.11400
H 	H 	0.78100 0.95500 0.73250 0.07600
C 	C 	0.74430 0.94200 0.68910 0.07100
H 	H 	0.72390 0.93540 0.70490 -0.01400
C 	C 	0.52980 0.98210 0.60330 -0.81400
H 	H 	0.52510 0.97990 0.63060 0.40600
H 	H 	0.53990 0.00750 0.59840 -0.20300
C 	C 	0.84120 0.97890 0.63080 -0.00700
H 	H 	0.84920 0.99960 0.64760 0.05800
H 	H 	0.86200 0.96070 0.62820 0.00900
N 	N 	0.79940 0.95090 0.52970 -0.10900
N 	N 	0.70581 0.90618 0.57660 -0.23300
N 	N 	0.62380 0.92760 0.59859 -0.17000
N 	N 	0.73960 0.94050 0.65170 -0.22500
O 	O 	0.82870 0.99310 0.59430 -0.35500
H 	H 	0.82100 0.00600 0.57630 0.25100
O 	O 	0.49860 0.97930 0.58110 -1.39200
H 	H 	0.48600 0.97100 0.56200 0.53300
H 	H 	0.54330 0.00450 0.61280 0.34900
H 	H 	0.51550 0.98990 0.58070 1.12400
C 	C 	0.83770 0.95940 0.61840 0.09200
H 	H 	0.86180 0.96270 0.63190 0.00800
H 	H 	0.83860 0.93610 0.60340 0.01600
O 	O 	0.50340 0.96940 0.63200 -0.26000
H 	H 	0.50360 0.98060 0.65380 0.10100
C 	C 	0.28230 0.42490 0.01910 -0.04600
C 	C 	0.22090 0.39390 0.05040 -0.02700
C 	C 	0.09700 0.45320 0.10640 -0.16100
H 	H 	0.10330 0.47340 0.12260 0.06300
C 	C 	0.05950 0.45170 0.09140 0.31300
C 	C 	0.05110 0.42260 0.06730 -0.29500
H 	H 	0.02670 0.42060 0.05680 0.16400
C 	C 	0.07880 0.39590 0.05830 0.08200
H 	H 	0.07360 0.37630 0.04110 0.00200
C 	C 	0.11470 0.39880 0.07540 -0.05700
H 	H 	0.13290 0.38000 0.07030 0.03200
C 	C 	0.27060 0.44820 0.12930 0.02500
H 	H 	0.26870 0.44570 0.10280 0.02100
C 	C 	0.30440 0.45950 0.14550 -0.03500
C 	C 	0.30770 0.46150 0.18420 0.01300
H 	H 	0.33090 0.46880 0.19520 0.02500
C 	C 	0.27880 0.45330 0.20600 -0.11500
H 	H 	0.28100 0.45500 0.23250 0.07500
C 	C 	0.24430 0.44200 0.18910 0.07100
H 	H 	0.22390 0.43540 0.20490 -0.01500
C 	C 	0.02980 0.48210 0.10330 -0.82000
H 	H 	0.02510 0.47990 0.13060 0.40800
H 	H 	0.03990 0.50750 0.09840 -0.19500
C 	C 	0.34120 0.47890 0.13080 -0.00600
H 	H 	0.34920 0.49960 0.14760 0.05700
H 	H 	0.36200 0.46070 0.12820 0.00800
N 	N 	0.29940 0.45090 0.02970 -0.11000
N 	N 	0.20581 0.40618 0.07660 -0.23300
N 	N 	0.12380 0.42760 0.09859 -0.17000
N 	N 	0.23960 0.44050 0.15170 -0.22500
O 	O 	0.32870 0.49310 0.09430 -0.36100
H 	H 	0.32100 0.50600 0.07630 0.25500
O 	O 	0.99860 0.47930 0.08110 -1.37100
H 	H 	0.98600 0.47100 0.06200 0.52400
H 	H 	0.04330 0.50450 0.11280 0.34600
H 	H 	0.01550 0.48990 0.08070 1.11000
C 	C 	0.33770 0.45940 0.11840 0.09400
H 	H 	0.36180 0.46270 0.13190 0.00700
H 	H 	0.33860 0.43610 0.10340 0.01500
O 	O 	0.00340 0.46940 0.13200 -0.26400
H 	H 	0.00360 0.48060 0.15380 0.10000
C 	C 	0.46770 0.26910 0.17490 -0.04500
C 	C 	0.52910 0.30040 0.14390 -0.02700
C 	C 	0.65300 0.35640 0.20320 -0.16300
H 	H 	0.64670 0.37260 0.22340 0.06400
C 	C 	0.69050 0.34140 0.20170 0.31600
C 	C 	0.69890 0.31730 0.17260 -0.29700
H 	H 	0.72330 0.30680 0.17060 0.16600
C 	C 	0.67120 0.30830 0.14590 0.08300
H 	H 	0.67640 0.29110 0.12630 0.00200
C 	C 	0.63530 0.32540 0.14880 -0.05700
H 	H 	0.61710 0.32030 0.13000 0.03200
C 	C 	0.47940 0.37930 0.19820 0.02500
H 	H 	0.48130 0.35280 0.19570 0.02100
C 	C 	0.44560 0.39550 0.20950 -0.03500
C 	C 	0.44230 0.43420 0.21150 0.01300
H 	H 	0.41910 0.44520 0.21880 0.02500
C 	C 	0.47120 0.45600 0.20330 -0.11500
H 	H 	0.46900 0.48250 0.20500 0.07500
C 	C 	0.50570 0.43910 0.19200 0.07100
H 	H 	0.52610 0.45490 0.18540 -0.01500
C 	C 	0.72020 0.35330 0.23210 -0.82700
H 	H 	0.72490 0.38060 0.22990 0.40900
H 	H 	0.71010 0.34840 0.25750 -0.20000
C 	C 	0.40880 0.38080 0.22890 -0.00600
H 	H 	0.40080 0.39760 0.24960 0.05700
H 	H 	0.38800 0.37820 0.21070 0.00800
N 	N 	0.45060 0.27970 0.20090 -0.11000
N 	N 	0.54419 0.32660 0.15618 -0.23300
N 	N 	0.62620 0.34859 0.17760 -0.16900
N 	N 	0.51040 0.40170 0.19050 -0.22500
O 	O 	0.42130 0.34430 0.24310 -0.36100
H 	H 	0.42900 0.32630 0.25600 0.25600
O 	O 	0.75140 0.33110 0.22930 -1.39300
H 	H 	0.76400 0.31200 0.22100 0.53200
H 	H 	0.70670 0.36280 0.25450 0.35200
H 	H 	0.73450 0.33070 0.23990 1.12700
C 	C 	0.41230 0.36840 0.20940 0.09400
H 	H 	0.38820 0.38190 0.21270 0.00700
H 	H 	0.41140 0.35340 0.18610 0.01500
O 	O 	0.74660 0.38200 0.21940 -0.25900
H 	H 	0.74640 0.40380 0.23060 0.09900
C 	C 	0.96770 0.76910 0.67490 -0.04200
C 	C 	0.02910 0.80040 0.64390 -0.02700
C 	C 	0.15300 0.85640 0.70320 -0.16300
H 	H 	0.14670 0.87260 0.72340 0.06400
C 	C 	0.19050 0.84140 0.70170 0.31600
C 	C 	0.19890 0.81730 0.67260 -0.29700
H 	H 	0.22330 0.80680 0.67060 0.16600
C 	C 	0.17120 0.80830 0.64590 0.08300
H 	H 	0.17640 0.79110 0.62630 0.00200
C 	C 	0.13530 0.82540 0.64880 -0.05700
H 	H 	0.11710 0.82030 0.63000 0.03200
C 	C 	0.97940 0.87930 0.69820 0.02700
H 	H 	0.98130 0.85280 0.69570 0.02100
C 	C 	0.94560 0.89550 0.70950 -0.03300
C 	C 	0.94230 0.93420 0.71150 0.00800
H 	H 	0.91910 0.94520 0.71880 0.02800
C 	C 	0.97120 0.95600 0.70330 -0.10600
H 	H 	0.96900 0.98250 0.70500 0.07400
C 	C 	0.00570 0.93910 0.69200 0.06400
H 	H 	0.02610 0.95490 0.68540 -0.01200
C 	C 	0.22020 0.85330 0.73210 -0.82700
H 	H 	0.22490 0.88060 0.72990 0.40900
H 	H 	0.21010 0.84840 0.75750 -0.20000
C 	C 	0.90880 0.88080 0.72890 -0.00700
H 	H 	0.90080 0.89760 0.74960 0.05800
H 	H 	0.88800 0.87820 0.71070 0.00800
N 	N 	0.95060 0.77970 0.70090 -0.11000
N 	N 	0.04419 0.82660 0.65618 -0.23300
N 	N 	0.12620 0.84859 0.67760 -0.16900
N 	N 	0.01040 0.90170 0.69050 -0.22500
O 	O 	0.92130 0.84430 0.74310 -0.36100
H 	H 	0.92900 0.82630 0.75600 0.25600
O 	O 	0.25140 0.83110 0.72930 -1.39300
H 	H 	0.26400 0.81200 0.72100 0.53200
H 	H 	0.20670 0.86280 0.75450 0.35200
H 	H 	0.23450 0.83070 0.73990 1.12700
C 	C 	0.91230 0.86840 0.70940 0.09400
H 	H 	0.88820 0.88190 0.71270 0.00700
H 	H 	0.91140 0.85340 0.68610 0.01500
O 	O 	0.24660 0.88200 0.71940 -0.25900
H 	H 	0.24640 0.90380 0.73060 0.09900
C 	C 	0.03230 0.73090 0.67490 -0.04500
C 	C 	0.97090 0.69960 0.64390 -0.02400
C 	C 	0.84700 0.64360 0.70320 -0.16300
H 	H 	0.85330 0.62740 0.72340 0.06400
C 	C 	0.80950 0.65860 0.70170 0.31600
C 	C 	0.80110 0.68270 0.67260 -0.29700
H 	H 	0.77670 0.69320 0.67060 0.16600
C 	C 	0.82880 0.69170 0.64590 0.08300
H 	H 	0.82360 0.70890 0.62630 0.00200
C 	C 	0.86470 0.67460 0.64880 -0.05700
H 	H 	0.88290 0.67970 0.63000 0.03200
C 	C 	0.02060 0.62070 0.69820 0.02300
H 	H 	0.01870 0.64720 0.69570 0.02100
C 	C 	0.05440 0.60450 0.70950 -0.03700
C 	C 	0.05770 0.56580 0.71150 0.01800
H 	H 	0.08090 0.55480 0.71880 0.02400
C 	C 	0.02880 0.54400 0.70330 -0.12400
H 	H 	0.03100 0.51750 0.70500 0.07800
C 	C 	0.99430 0.56090 0.69200 0.07900
H 	H 	0.97390 0.54510 0.68540 -0.01700
C 	C 	0.77980 0.64670 0.73210 -0.82700
H 	H 	0.77510 0.61940 0.72990 0.40900
H 	H 	0.78990 0.65160 0.75750 -0.20000
C 	C 	0.09120 0.61920 0.72890 -0.00500
H 	H 	0.09920 0.60240 0.74960 0.05600
H 	H 	0.11200 0.62180 0.71070 0.00800
N 	N 	0.04940 0.72030 0.70090 -0.11000
N 	N 	0.95581 0.67340 0.65618 -0.23300
N 	N 	0.87380 0.65141 0.67760 -0.16900
N 	N 	0.98960 0.59830 0.69050 -0.22500
O 	O 	0.07870 0.65570 0.74310 -0.36100
H 	H 	0.07100 0.67370 0.75600 0.25500
O 	O 	0.74860 0.66890 0.72930 -1.39300
H 	H 	0.73600 0.68800 0.72100 0.53200
H 	H 	0.79330 0.63720 0.75450 0.35200
H 	H 	0.76550 0.66930 0.73990 1.12700
C 	C 	0.08770 0.63160 0.70940 0.09400
H 	H 	0.11180 0.61810 0.71270 0.00700
H 	H 	0.08860 0.64660 0.68610 0.01500
O 	O 	0.75340 0.61800 0.71940 -0.25900
H 	H 	0.75360 0.59620 0.73060 0.09900
C 	C 	0.53230 0.23090 0.17490 -0.04500
C 	C 	0.47090 0.19960 0.14390 -0.02700
C 	C 	0.34700 0.14360 0.20320 -0.16300
H 	H 	0.35330 0.12740 0.22340 0.06400
C 	C 	0.30950 0.15860 0.20170 0.31600
C 	C 	0.30110 0.18270 0.17260 -0.29700
H 	H 	0.27670 0.19320 0.17060 0.16600
C 	C 	0.32880 0.19170 0.14590 0.08300
H 	H 	0.32360 0.20890 0.12630 0.00200
C 	C 	0.36470 0.17460 0.14880 -0.05700
H 	H 	0.38290 0.17970 0.13000 0.03200
C 	C 	0.52060 0.12070 0.19820 0.02500
H 	H 	0.51870 0.14720 0.19570 0.02100
C 	C 	0.55440 0.10450 0.20950 -0.03500
C 	C 	0.55770 0.06580 0.21150 0.01300
H 	H 	0.58090 0.05480 0.21880 0.02500
C 	C 	0.52880 0.04400 0.20330 -0.11600
H 	H 	0.53100 0.01750 0.20500 0.07400
C 	C 	0.49430 0.06090 0.19200 0.07100
H 	H 	0.47390 0.04510 0.18540 -0.01500
C 	C 	0.27980 0.14670 0.23210 -0.82700
H 	H 	0.27510 0.11940 0.22990 0.40900
H 	H 	0.28990 0.15160 0.25750 -0.20000
C 	C 	0.59120 0.11920 0.22890 -0.00600
H 	H 	0.59920 0.10240 0.24960 0.05700
H 	H 	0.61200 0.12180 0.21070 0.00800
N 	N 	0.54940 0.22030 0.20090 -0.11000
N 	N 	0.45581 0.17340 0.15618 -0.23300
N 	N 	0.37380 0.15141 0.17760 -0.16900
N 	N 	0.48960 0.09830 0.19050 -0.22500
O 	O 	0.57870 0.15570 0.24310 -0.36100
H 	H 	0.57100 0.17370 0.25600 0.25600
O 	O 	0.24860 0.16890 0.22930 -1.39300
H 	H 	0.23600 0.18800 0.22100 0.53200
H 	H 	0.29330 0.13720 0.25450 0.35200
H 	H 	0.26550 0.16930 0.23990 1.12700
C 	C 	0.58770 0.13160 0.20940 0.09400
H 	H 	0.61180 0.11810 0.21270 0.00700
H 	H 	0.58860 0.14660 0.18610 0.01500
O 	O 	0.25340 0.11800 0.21940 -0.26000
H 	H 	0.25360 0.09620 0.23060 0.09900
C 	C 	0.96770 0.23090 0.82510 -0.04200
C 	C 	0.02910 0.19960 0.85610 -0.02700
C 	C 	0.15300 0.14360 0.79680 -0.16300
H 	H 	0.14670 0.12740 0.77660 0.06400
C 	C 	0.19050 0.15860 0.79830 0.31600
C 	C 	0.19890 0.18270 0.82740 -0.29700
H 	H 	0.22330 0.19320 0.82940 0.16600
C 	C 	0.17120 0.19170 0.85410 0.08400
H 	H 	0.17640 0.20890 0.87370 0.00200
C 	C 	0.13530 0.17460 0.85120 -0.05700
H 	H 	0.11710 0.17970 0.87000 0.03200
C 	C 	0.97940 0.12070 0.80180 0.02700
H 	H 	0.98130 0.14720 0.80430 0.02100
C 	C 	0.94560 0.10450 0.79050 -0.03400
C 	C 	0.94230 0.06580 0.78850 0.00800
H 	H 	0.91910 0.05480 0.78120 0.02700
C 	C 	0.97120 0.04400 0.79670 -0.10700
H 	H 	0.96900 0.01750 0.79500 0.07200
C 	C 	0.00570 0.06090 0.80800 0.06300
H 	H 	0.02610 0.04510 0.81460 -0.01300
C 	C 	0.22020 0.14670 0.76790 -0.82700
H 	H 	0.22490 0.11940 0.77010 0.40900
H 	H 	0.21010 0.15160 0.74250 -0.20000
C 	C 	0.90880 0.11920 0.77110 -0.00700
H 	H 	0.90080 0.10240 0.75040 0.05700
H 	H 	0.88800 0.12180 0.78930 0.00800
N 	N 	0.95060 0.22030 0.79910 -0.11000
N 	N 	0.04419 0.17340 0.84382 -0.23300
N 	N 	0.12620 0.15141 0.82240 -0.16900
N 	N 	0.01040 0.09830 0.80950 -0.22500
O 	O 	0.92130 0.15570 0.75690 -0.36100
H 	H 	0.92900 0.17370 0.74400 0.25600
O 	O 	0.25140 0.16890 0.77070 -1.39300
H 	H 	0.26400 0.18800 0.77900 0.53200
H 	H 	0.20670 0.13720 0.74550 0.35200
H 	H 	0.23450 0.16930 0.76010 1.12700
C 	C 	0.91230 0.13160 0.79060 0.09500
H 	H 	0.88820 0.11810 0.78730 0.00700
H 	H 	0.91140 0.14660 0.81390 0.01500
O 	O 	0.24660 0.11800 0.78060 -0.25900
H 	H 	0.24640 0.09620 0.76940 0.09900
C 	C 	0.46770 0.73090 0.32510 -0.04500
C 	C 	0.52910 0.69960 0.35610 -0.02700
C 	C 	0.65300 0.64360 0.29680 -0.16300
H 	H 	0.64670 0.62740 0.27660 0.06400
C 	C 	0.69050 0.65860 0.29830 0.31600
C 	C 	0.69890 0.68270 0.32740 -0.29700
H 	H 	0.72330 0.69320 0.32940 0.16600
C 	C 	0.67120 0.69170 0.35410 0.08300
H 	H 	0.67640 0.70890 0.37370 0.00200
C 	C 	0.63530 0.67460 0.35120 -0.05700
H 	H 	0.61710 0.67970 0.37000 0.03200
C 	C 	0.47940 0.62070 0.30180 0.02500
H 	H 	0.48130 0.64720 0.30430 0.02100
C 	C 	0.44560 0.60450 0.29050 -0.03500
C 	C 	0.44230 0.56580 0.28850 0.01300
H 	H 	0.41910 0.55480 0.28120 0.02500
C 	C 	0.47120 0.54400 0.29670 -0.11500
H 	H 	0.46900 0.51750 0.29500 0.07500
C 	C 	0.50570 0.56090 0.30800 0.07100
H 	H 	0.52610 0.54510 0.31460 -0.01500
C 	C 	0.72020 0.64670 0.26790 -0.82700
H 	H 	0.72490 0.61940 0.27010 0.40900
H 	H 	0.71010 0.65160 0.24250 -0.20000
C 	C 	0.40880 0.61920 0.27110 -0.00600
H 	H 	0.40080 0.60240 0.25040 0.05700
H 	H 	0.38800 0.62180 0.28930 0.00800
N 	N 	0.45060 0.72030 0.29910 -0.11000
N 	N 	0.54419 0.67340 0.34382 -0.23300
N 	N 	0.62620 0.65141 0.32240 -0.16900
N 	N 	0.51040 0.59830 0.30950 -0.22500
O 	O 	0.42130 0.65570 0.25690 -0.36100
H 	H 	0.42900 0.67370 0.24400 0.25600
O 	O 	0.75140 0.66890 0.27070 -1.39300
H 	H 	0.76400 0.68800 0.27900 0.53200
H 	H 	0.70670 0.63720 0.24550 0.35200
H 	H 	0.73450 0.66930 0.26010 1.12700
C 	C 	0.41230 0.63160 0.29060 0.09400
H 	H 	0.38820 0.61810 0.28730 0.00700
H 	H 	0.41140 0.64660 0.31390 0.01500
O 	O 	0.74660 0.61800 0.28060 -0.25900
H 	H 	0.74640 0.59620 0.26940 0.09900
C 	C 	0.53230 0.76910 0.32510 -0.04500
C 	C 	0.47090 0.80040 0.35610 -0.02700
C 	C 	0.34700 0.85640 0.29680 -0.16300
H 	H 	0.35330 0.87260 0.27660 0.06400
C 	C 	0.30950 0.84140 0.29830 0.31600
C 	C 	0.30110 0.81730 0.32740 -0.29700
H 	H 	0.27670 0.80680 0.32940 0.16600
C 	C 	0.32880 0.80830 0.35410 0.08300
H 	H 	0.32360 0.79110 0.37370 0.00200
C 	C 	0.36470 0.82540 0.35120 -0.05700
H 	H 	0.38290 0.82030 0.37000 0.03200
C 	C 	0.52060 0.87930 0.30180 0.02500
H 	H 	0.51870 0.85280 0.30430 0.02100
C 	C 	0.55440 0.89550 0.29050 -0.03500
C 	C 	0.55770 0.93420 0.28850 0.01300
H 	H 	0.58090 0.94520 0.28120 0.02600
C 	C 	0.52880 0.95600 0.29670 -0.11500
H 	H 	0.53100 0.98250 0.29500 0.07600
C 	C 	0.49430 0.93910 0.30800 0.07100
H 	H 	0.47390 0.95490 0.31460 -0.01400
C 	C 	0.27980 0.85330 0.26790 -0.82700
H 	H 	0.27510 0.88060 0.27010 0.40900
H 	H 	0.28990 0.84840 0.24250 -0.20000
C 	C 	0.59120 0.88080 0.27110 -0.00600
H 	H 	0.59920 0.89760 0.25040 0.05700
H 	H 	0.61200 0.87820 0.28930 0.00800
N 	N 	0.54940 0.77970 0.29910 -0.11000
N 	N 	0.45581 0.82660 0.34382 -0.23300
N 	N 	0.37380 0.84859 0.32240 -0.16900
N 	N 	0.48960 0.90170 0.30950 -0.22500
O 	O 	0.57870 0.84430 0.25690 -0.36100
H 	H 	0.57100 0.82630 0.24400 0.25600
O 	O 	0.24860 0.83110 0.27070 -1.39300
H 	H 	0.23600 0.81200 0.27900 0.53200
H 	H 	0.29330 0.86280 0.24550 0.35200
H 	H 	0.26550 0.83070 0.26010 1.12700
C 	C 	0.58770 0.86840 0.29060 0.09400
H 	H 	0.61180 0.88190 0.28730 0.00700
H 	H 	0.58860 0.85340 0.31390 0.01500
O 	O 	0.25340 0.88200 0.28060 -0.25900
H 	H 	0.25360 0.90380 0.26940 0.09900
C 	C 	0.03230 0.26910 0.82510 -0.04500
C 	C 	0.97090 0.30040 0.85610 -0.02400
C 	C 	0.84700 0.35640 0.79680 -0.16300
H 	H 	0.85330 0.37260 0.77660 0.06400
C 	C 	0.80950 0.34140 0.79830 0.31600
C 	C 	0.80110 0.31730 0.82740 -0.29700
H 	H 	0.77670 0.30680 0.82940 0.16600
C 	C 	0.82880 0.30830 0.85410 0.08300
H 	H 	0.82360 0.29110 0.87370 0.00200
C 	C 	0.86470 0.32540 0.85120 -0.05700
H 	H 	0.88290 0.32030 0.87000 0.03200
C 	C 	0.02060 0.37930 0.80180 0.02200
H 	H 	0.01870 0.35280 0.80430 0.02100
C 	C 	0.05440 0.39550 0.79050 -0.03700
C 	C 	0.05770 0.43420 0.78850 0.01800
H 	H 	0.08090 0.44520 0.78120 0.02400
C 	C 	0.02880 0.45600 0.79670 -0.12400
H 	H 	0.03100 0.48250 0.79500 0.07800
C 	C 	0.99430 0.43910 0.80800 0.07900
H 	H 	0.97390 0.45490 0.81460 -0.01700
C 	C 	0.77980 0.35330 0.76790 -0.82700
H 	H 	0.77510 0.38060 0.77010 0.40900
H 	H 	0.78990 0.34840 0.74250 -0.20000
C 	C 	0.09120 0.38080 0.77110 -0.00500
H 	H 	0.09920 0.39760 0.75040 0.05600
H 	H 	0.11200 0.37820 0.78930 0.00800
N 	N 	0.04940 0.27970 0.79910 -0.11000
N 	N 	0.95581 0.32660 0.84382 -0.23300
N 	N 	0.87380 0.34859 0.82240 -0.16900
N 	N 	0.98960 0.40170 0.80950 -0.22500
O 	O 	0.07870 0.34430 0.75690 -0.36100
H 	H 	0.07100 0.32630 0.74400 0.25500
O 	O 	0.74860 0.33110 0.77070 -1.39300
H 	H 	0.73600 0.31200 0.77900 0.53200
H 	H 	0.79330 0.36280 0.74550 0.35200
H 	H 	0.76550 0.33070 0.76010 1.12700
C 	C 	0.08770 0.36840 0.79060 0.09400
H 	H 	0.11180 0.38190 0.78730 0.00700
H 	H 	0.08860 0.35340 0.81390 0.01500
O 	O 	0.75340 0.38200 0.78060 -0.25900
H 	H 	0.75360 0.40380 0.76940 0.09900
C 	C 	0.76910 0.32510 0.53230 -0.04500
C 	C 	0.80040 0.35610 0.47090 -0.02700
C 	C 	0.85640 0.29680 0.34700 -0.16300
H 	H 	0.87260 0.27660 0.35330 0.06400
C 	C 	0.84140 0.29830 0.30950 0.31600
C 	C 	0.81730 0.32740 0.30110 -0.29700
H 	H 	0.80680 0.32940 0.27670 0.16600
C 	C 	0.80830 0.35410 0.32880 0.08300
H 	H 	0.79110 0.37370 0.32360 0.00200
C 	C 	0.82540 0.35120 0.36470 -0.05700
H 	H 	0.82030 0.37000 0.38290 0.03200
C 	C 	0.87930 0.30180 0.52060 0.02500
H 	H 	0.85280 0.30430 0.51870 0.02100
C 	C 	0.89550 0.29050 0.55440 -0.03500
C 	C 	0.93420 0.28850 0.55770 0.01300
H 	H 	0.94520 0.28120 0.58090 0.02600
C 	C 	0.95600 0.29670 0.52880 -0.11500
H 	H 	0.98250 0.29500 0.53100 0.07600
C 	C 	0.93910 0.30800 0.49430 0.07100
H 	H 	0.95490 0.31460 0.47390 -0.01400
C 	C 	0.85330 0.26790 0.27980 -0.82700
H 	H 	0.88060 0.27010 0.27510 0.40900
H 	H 	0.84840 0.24250 0.28990 -0.20000
C 	C 	0.88080 0.27110 0.59120 -0.00600
H 	H 	0.89760 0.25040 0.59920 0.05700
H 	H 	0.87820 0.28930 0.61200 0.00800
N 	N 	0.77970 0.29910 0.54940 -0.11000
N 	N 	0.82660 0.34382 0.45581 -0.23300
N 	N 	0.84859 0.32240 0.37380 -0.16900
N 	N 	0.90170 0.30950 0.48960 -0.22500
O 	O 	0.84430 0.25690 0.57870 -0.36100
H 	H 	0.82630 0.24400 0.57100 0.25600
O 	O 	0.83110 0.27070 0.24860 -1.39300
H 	H 	0.81200 0.27900 0.23600 0.53200
H 	H 	0.86280 0.24550 0.29330 0.35200
H 	H 	0.83070 0.26010 0.26550 1.12700
C 	C 	0.86840 0.29060 0.58770 0.09400
H 	H 	0.88190 0.28730 0.61180 0.00700
H 	H 	0.85340 0.31390 0.58860 0.01500
O 	O 	0.88200 0.28060 0.25340 -0.25900
H 	H 	0.90380 0.26940 0.25360 0.09900
C 	C 	0.26910 0.82510 0.03230 -0.04500
C 	C 	0.30040 0.85610 0.97090 -0.02400
C 	C 	0.35640 0.79680 0.84700 -0.16300
H 	H 	0.37260 0.77660 0.85330 0.06400
C 	C 	0.34140 0.79830 0.80950 0.31600
C 	C 	0.31730 0.82740 0.80110 -0.29700
H 	H 	0.30680 0.82940 0.77670 0.16600
C 	C 	0.30830 0.85410 0.82880 0.08300
H 	H 	0.29110 0.87370 0.82360 0.00200
C 	C 	0.32540 0.85120 0.86470 -0.05700
H 	H 	0.32030 0.87000 0.88290 0.03200
C 	C 	0.37930 0.80180 0.02060 0.02200
H 	H 	0.35280 0.80430 0.01870 0.02100
C 	C 	0.39550 0.79050 0.05440 -0.03700
C 	C 	0.43420 0.78850 0.05770 0.01800
H 	H 	0.44520 0.78120 0.08090 0.02400
C 	C 	0.45600 0.79670 0.02880 -0.12400
H 	H 	0.48250 0.79500 0.03100 0.07800
C 	C 	0.43910 0.80800 0.99430 0.07900
H 	H 	0.45490 0.81460 0.97390 -0.01700
C 	C 	0.35330 0.76790 0.77980 -0.82700
H 	H 	0.38060 0.77010 0.77510 0.40900
H 	H 	0.34840 0.74250 0.78990 -0.20000
C 	C 	0.38080 0.77110 0.09120 -0.00500
H 	H 	0.39760 0.75040 0.09920 0.05600
H 	H 	0.37820 0.78930 0.11200 0.00800
N 	N 	0.27970 0.79910 0.04940 -0.11000
N 	N 	0.32660 0.84382 0.95581 -0.23300
N 	N 	0.34859 0.82240 0.87380 -0.16900
N 	N 	0.40170 0.80950 0.98960 -0.22500
O 	O 	0.34430 0.75690 0.07870 -0.36100
H 	H 	0.32630 0.74400 0.07100 0.25500
O 	O 	0.33110 0.77070 0.74860 -1.39300
H 	H 	0.31200 0.77900 0.73600 0.53200
H 	H 	0.36280 0.74550 0.79330 0.35200
H 	H 	0.33070 0.76010 0.76550 1.12700
C 	C 	0.36840 0.79060 0.08770 0.09400
H 	H 	0.38190 0.78730 0.11180 0.00700
H 	H 	0.35340 0.81390 0.08860 0.01500
O 	O 	0.38200 0.78060 0.75340 -0.25900
H 	H 	0.40380 0.76940 0.75360 0.09900
C 	C 	0.23090 0.82510 0.96770 -0.04200
C 	C 	0.19960 0.85610 0.02910 -0.02700
C 	C 	0.14360 0.79680 0.15300 -0.16300
H 	H 	0.12740 0.77660 0.14670 0.06400
C 	C 	0.15860 0.79830 0.19050 0.31600
C 	C 	0.18270 0.82740 0.19890 -0.29700
H 	H 	0.19320 0.82940 0.22330 0.16600
C 	C 	0.19170 0.85410 0.17120 0.08400
H 	H 	0.20890 0.87370 0.17640 0.00200
C 	C 	0.17460 0.85120 0.13530 -0.05700
H 	H 	0.17970 0.87000 0.11710 0.03200
C 	C 	0.12070 0.80180 0.97940 0.02700
H 	H 	0.14720 0.80430 0.98130 0.02100
C 	C 	0.10450 0.79050 0.94560 -0.03400
C 	C 	0.06580 0.78850 0.94230 0.00800
H 	H 	0.05480 0.78120 0.91910 0.02700
C 	C 	0.04400 0.79670 0.97120 -0.10700
H 	H 	0.01750 0.79500 0.96900 0.07200
C 	C 	0.06090 0.80800 0.00570 0.06300
H 	H 	0.04510 0.81460 0.02610 -0.01300
C 	C 	0.14670 0.76790 0.22020 -0.82700
H 	H 	0.11940 0.77010 0.22490 0.40900
H 	H 	0.15160 0.74250 0.21010 -0.20000
C 	C 	0.11920 0.77110 0.90880 -0.00700
H 	H 	0.10240 0.75040 0.90080 0.05700
H 	H 	0.12180 0.78930 0.88800 0.00800
N 	N 	0.22030 0.79910 0.95060 -0.11000
N 	N 	0.17340 0.84382 0.04419 -0.23300
N 	N 	0.15141 0.82240 0.12620 -0.16900
N 	N 	0.09830 0.80950 0.01040 -0.22500
O 	O 	0.15570 0.75690 0.92130 -0.36100
H 	H 	0.17370 0.74400 0.92900 0.25600
O 	O 	0.16890 0.77070 0.25140 -1.39300
H 	H 	0.18800 0.77900 0.26400 0.53200
H 	H 	0.13720 0.74550 0.20670 0.35200
H 	H 	0.16930 0.76010 0.23450 1.12700
C 	C 	0.13160 0.79060 0.91230 0.09500
H 	H 	0.11810 0.78730 0.88820 0.00700
H 	H 	0.14660 0.81390 0.91140 0.01500
O 	O 	0.11800 0.78060 0.24660 -0.25900
H 	H 	0.09620 0.76940 0.24640 0.09900
C 	C 	0.73090 0.32510 0.46770 -0.04500
C 	C 	0.69960 0.35610 0.52910 -0.02700
C 	C 	0.64360 0.29680 0.65300 -0.16300
H 	H 	0.62740 0.27660 0.64670 0.06400
C 	C 	0.65860 0.29830 0.69050 0.31600
C 	C 	0.68270 0.32740 0.69890 -0.29700
H 	H 	0.69320 0.32940 0.72330 0.16600
C 	C 	0.69170 0.35410 0.67120 0.08300
H 	H 	0.70890 0.37370 0.67640 0.00200
C 	C 	0.67460 0.35120 0.63530 -0.05700
H 	H 	0.67970 0.37000 0.61710 0.03200
C 	C 	0.62070 0.30180 0.47940 0.02500
H 	H 	0.64720 0.30430 0.48130 0.02100
C 	C 	0.60450 0.29050 0.44560 -0.03500
C 	C 	0.56580 0.28850 0.44230 0.01300
H 	H 	0.55480 0.28120 0.41910 0.02500
C 	C 	0.54400 0.29670 0.47120 -0.11500
H 	H 	0.51750 0.29500 0.46900 0.07500
C 	C 	0.56090 0.30800 0.50570 0.07100
H 	H 	0.54510 0.31460 0.52610 -0.01500
C 	C 	0.64670 0.26790 0.72020 -0.82700
H 	H 	0.61940 0.27010 0.72490 0.40900
H 	H 	0.65160 0.24250 0.71010 -0.20000
C 	C 	0.61920 0.27110 0.40880 -0.00600
H 	H 	0.60240 0.25040 0.40080 0.05700
H 	H 	0.62180 0.28930 0.38800 0.00800
N 	N 	0.72030 0.29910 0.45060 -0.11000
N 	N 	0.67340 0.34382 0.54419 -0.23300
N 	N 	0.65141 0.32240 0.62620 -0.16900
N 	N 	0.59830 0.30950 0.51040 -0.22500
O 	O 	0.65570 0.25690 0.42130 -0.36100
H 	H 	0.67370 0.24400 0.42900 0.25600
O 	O 	0.66890 0.27070 0.75140 -1.39300
H 	H 	0.68800 0.27900 0.76400 0.53200
H 	H 	0.63720 0.24550 0.70670 0.35200
H 	H 	0.66930 0.26010 0.73450 1.12700
C 	C 	0.63160 0.29060 0.41230 0.09400
H 	H 	0.61810 0.28730 0.38820 0.00700
H 	H 	0.64660 0.31390 0.41140 0.01500
O 	O 	0.61800 0.28060 0.74660 -0.25900
H 	H 	0.59620 0.26940 0.74640 0.09900
C 	C 	0.73090 0.67490 0.03230 -0.04500
C 	C 	0.69960 0.64390 0.97090 -0.02400
C 	C 	0.64360 0.70320 0.84700 -0.16300
H 	H 	0.62740 0.72340 0.85330 0.06400
C 	C 	0.65860 0.70170 0.80950 0.31600
C 	C 	0.68270 0.67260 0.80110 -0.29700
H 	H 	0.69320 0.67060 0.77670 0.16600
C 	C 	0.69170 0.64590 0.82880 0.08300
H 	H 	0.70890 0.62630 0.82360 0.00200
C 	C 	0.67460 0.64880 0.86470 -0.05700
H 	H 	0.67970 0.63000 0.88290 0.03200
C 	C 	0.62070 0.69820 0.02060 0.02300
H 	H 	0.64720 0.69570 0.01870 0.02100
C 	C 	0.60450 0.70950 0.05440 -0.03700
C 	C 	0.56580 0.71150 0.05770 0.01800
H 	H 	0.55480 0.71880 0.08090 0.02400
C 	C 	0.54400 0.70330 0.02880 -0.12400
H 	H 	0.51750 0.70500 0.03100 0.07800
C 	C 	0.56090 0.69200 0.99430 0.07900
H 	H 	0.54510 0.68540 0.97390 -0.01700
C 	C 	0.64670 0.73210 0.77980 -0.82700
H 	H 	0.61940 0.72990 0.77510 0.40900
H 	H 	0.65160 0.75750 0.78990 -0.20000
C 	C 	0.61920 0.72890 0.09120 -0.00500
H 	H 	0.60240 0.74960 0.09920 0.05600
H 	H 	0.62180 0.71070 0.11200 0.00800
N 	N 	0.72030 0.70090 0.04940 -0.11000
N 	N 	0.67340 0.65618 0.95581 -0.23300
N 	N 	0.65141 0.67760 0.87380 -0.16900
N 	N 	0.59830 0.69050 0.98960 -0.22500
O 	O 	0.65570 0.74310 0.07870 -0.36100
H 	H 	0.67370 0.75600 0.07100 0.25500
O 	O 	0.66890 0.72930 0.74860 -1.39300
H 	H 	0.68800 0.72100 0.73600 0.53200
H 	H 	0.63720 0.75450 0.79330 0.35200
H 	H 	0.66930 0.73990 0.76550 1.12700
C 	C 	0.63160 0.70940 0.08770 0.09400
H 	H 	0.61810 0.71270 0.11180 0.00700
H 	H 	0.64660 0.68610 0.08860 0.01500
O 	O 	0.61800 0.71940 0.75340 -0.25900
H 	H 	0.59620 0.73060 0.75360 0.09900
C 	C 	0.23090 0.17490 0.53230 -0.04500
C 	C 	0.19960 0.14390 0.47090 -0.02700
C 	C 	0.14360 0.20320 0.34700 -0.16300
H 	H 	0.12740 0.22340 0.35330 0.06400
C 	C 	0.15860 0.20170 0.30950 0.31600
C 	C 	0.18270 0.17260 0.30110 -0.29700
H 	H 	0.19320 0.17060 0.27670 0.16600
C 	C 	0.19170 0.14590 0.32880 0.08300
H 	H 	0.20890 0.12630 0.32360 0.00200
C 	C 	0.17460 0.14880 0.36470 -0.05700
H 	H 	0.17970 0.13000 0.38290 0.03200
C 	C 	0.12070 0.19820 0.52060 0.02500
H 	H 	0.14720 0.19570 0.51870 0.02100
C 	C 	0.10450 0.20950 0.55440 -0.03500
C 	C 	0.06580 0.21150 0.55770 0.01300
H 	H 	0.05480 0.21880 0.58090 0.02500
C 	C 	0.04400 0.20330 0.52880 -0.11600
H 	H 	0.01750 0.20500 0.53100 0.07400
C 	C 	0.06090 0.19200 0.49430 0.07100
H 	H 	0.04510 0.18540 0.47390 -0.01500
C 	C 	0.14670 0.23210 0.27980 -0.82700
H 	H 	0.11940 0.22990 0.27510 0.40900
H 	H 	0.15160 0.25750 0.28990 -0.20000
C 	C 	0.11920 0.22890 0.59120 -0.00600
H 	H 	0.10240 0.24960 0.59920 0.05700
H 	H 	0.12180 0.21070 0.61200 0.00800
N 	N 	0.22030 0.20090 0.54940 -0.11000
N 	N 	0.17340 0.15618 0.45581 -0.23300
N 	N 	0.15141 0.17760 0.37380 -0.16900
N 	N 	0.09830 0.19050 0.48960 -0.22500
O 	O 	0.15570 0.24310 0.57870 -0.36100
H 	H 	0.17370 0.25600 0.57100 0.25600
O 	O 	0.16890 0.22930 0.24860 -1.39300
H 	H 	0.18800 0.22100 0.23600 0.53200
H 	H 	0.13720 0.25450 0.29330 0.35200
H 	H 	0.16930 0.23990 0.26550 1.12700
C 	C 	0.13160 0.20940 0.58770 0.09400
H 	H 	0.11810 0.21270 0.61180 0.00700
H 	H 	0.14660 0.18610 0.58860 0.01500
O 	O 	0.11800 0.21940 0.25340 -0.26000
H 	H 	0.09620 0.23060 0.25360 0.09900
C 	C 	0.26910 0.17490 0.46770 -0.04500
C 	C 	0.30040 0.14390 0.52910 -0.02700
C 	C 	0.35640 0.20320 0.65300 -0.16300
H 	H 	0.37260 0.22340 0.64670 0.06400
C 	C 	0.34140 0.20170 0.69050 0.31600
C 	C 	0.31730 0.17260 0.69890 -0.29700
H 	H 	0.30680 0.17060 0.72330 0.16600
C 	C 	0.30830 0.14590 0.67120 0.08300
H 	H 	0.29110 0.12630 0.67640 0.00200
C 	C 	0.32540 0.14880 0.63530 -0.05700
H 	H 	0.32030 0.13000 0.61710 0.03200
C 	C 	0.37930 0.19820 0.47940 0.02500
H 	H 	0.35280 0.19570 0.48130 0.02100
C 	C 	0.39550 0.20950 0.44560 -0.03500
C 	C 	0.43420 0.21150 0.44230 0.01300
H 	H 	0.44520 0.21880 0.41910 0.02500
C 	C 	0.45600 0.20330 0.47120 -0.11500
H 	H 	0.48250 0.20500 0.46900 0.07500
C 	C 	0.43910 0.19200 0.50570 0.07100
H 	H 	0.45490 0.18540 0.52610 -0.01500
C 	C 	0.35330 0.23210 0.72020 -0.82700
H 	H 	0.38060 0.22990 0.72490 0.40900
H 	H 	0.34840 0.25750 0.71010 -0.20000
C 	C 	0.38080 0.22890 0.40880 -0.00600
H 	H 	0.39760 0.24960 0.40080 0.05700
H 	H 	0.37820 0.21070 0.38800 0.00800
N 	N 	0.27970 0.20090 0.45060 -0.11000
N 	N 	0.32660 0.15618 0.54419 -0.23300
N 	N 	0.34859 0.17760 0.62620 -0.16900
N 	N 	0.40170 0.19050 0.51040 -0.22500
O 	O 	0.34430 0.24310 0.42130 -0.36100
H 	H 	0.32630 0.25600 0.42900 0.25600
O 	O 	0.33110 0.22930 0.75140 -1.39300
H 	H 	0.31200 0.22100 0.76400 0.53200
H 	H 	0.36280 0.25450 0.70670 0.35200
H 	H 	0.33070 0.23990 0.73450 1.12700
C 	C 	0.36840 0.20940 0.41230 0.09400
H 	H 	0.38190 0.21270 0.38820 0.00700
H 	H 	0.35340 0.18610 0.41140 0.01500
O 	O 	0.38200 0.21940 0.74660 -0.25900
H 	H 	0.40380 0.23060 0.74640 0.09900
C 	C 	0.76910 0.67490 0.96770 -0.04200
C 	C 	0.80040 0.64390 0.02910 -0.02700
C 	C 	0.85640 0.70320 0.15300 -0.16300
H 	H 	0.87260 0.72340 0.14670 0.06400
C 	C 	0.84140 0.70170 0.19050 0.31600
C 	C 	0.81730 0.67260 0.19890 -0.29700
H 	H 	0.80680 0.67060 0.22330 0.16600
C 	C 	0.80830 0.64590 0.17120 0.08300
H 	H 	0.79110 0.62630 0.17640 0.00200
C 	C 	0.82540 0.64880 0.13530 -0.05700
H 	H 	0.82030 0.63000 0.11710 0.03200
C 	C 	0.87930 0.69820 0.97940 0.02700
H 	H 	0.85280 0.69570 0.98130 0.02100
C 	C 	0.89550 0.70950 0.94560 -0.03300
C 	C 	0.93420 0.71150 0.94230 0.00800
H 	H 	0.94520 0.71880 0.91910 0.02800
C 	C 	0.95600 0.70330 0.97120 -0.10600
H 	H 	0.98250 0.70500 0.96900 0.07400
C 	C 	0.93910 0.69200 0.00570 0.06400
H 	H 	0.95490 0.68540 0.02610 -0.01200
C 	C 	0.85330 0.73210 0.22020 -0.82700
H 	H 	0.88060 0.72990 0.22490 0.40900
H 	H 	0.84840 0.75750 0.21010 -0.20000
C 	C 	0.88080 0.72890 0.90880 -0.00700
H 	H 	0.89760 0.74960 0.90080 0.05800
H 	H 	0.87820 0.71070 0.88800 0.00800
N 	N 	0.77970 0.70090 0.95060 -0.11000
N 	N 	0.82660 0.65618 0.04419 -0.23300
N 	N 	0.84859 0.67760 0.12620 -0.16900
N 	N 	0.90170 0.69050 0.01040 -0.22500
O 	O 	0.84430 0.74310 0.92130 -0.36100
H 	H 	0.82630 0.75600 0.92900 0.25600
O 	O 	0.83110 0.72930 0.25140 -1.39300
H 	H 	0.81200 0.72100 0.26400 0.53200
H 	H 	0.86280 0.75450 0.20670 0.35200
H 	H 	0.83070 0.73990 0.23450 1.12700
C 	C 	0.86840 0.70940 0.91230 0.09400
H 	H 	0.88190 0.71270 0.88820 0.00700
H 	H 	0.85340 0.68610 0.91140 0.01500
O 	O 	0.88200 0.71940 0.24660 -0.25900
H 	H 	0.90380 0.73060 0.24640 0.09900
C 	C 	0.82510 0.96770 0.23090 -0.04200
C 	C 	0.85610 0.02910 0.19960 -0.02700
C 	C 	0.79680 0.15300 0.14360 -0.16300
H 	H 	0.77660 0.14670 0.12740 0.06400
C 	C 	0.79830 0.19050 0.15860 0.31600
C 	C 	0.82740 0.19890 0.18270 -0.29700
H 	H 	0.82940 0.22330 0.19320 0.16600
C 	C 	0.85410 0.17120 0.19170 0.08400
H 	H 	0.87370 0.17640 0.20890 0.00200
C 	C 	0.85120 0.13530 0.17460 -0.05700
H 	H 	0.87000 0.11710 0.17970 0.03200
C 	C 	0.80180 0.97940 0.12070 0.02700
H 	H 	0.80430 0.98130 0.14720 0.02100
C 	C 	0.79050 0.94560 0.10450 -0.03400
C 	C 	0.78850 0.94230 0.06580 0.00800
H 	H 	0.78120 0.91910 0.05480 0.02700
C 	C 	0.79670 0.97120 0.04400 -0.10700
H 	H 	0.79500 0.96900 0.01750 0.07200
C 	C 	0.80800 0.00570 0.06090 0.06300
H 	H 	0.81460 0.02610 0.04510 -0.01300
C 	C 	0.76790 0.22020 0.14670 -0.82700
H 	H 	0.77010 0.22490 0.11940 0.40900
H 	H 	0.74250 0.21010 0.15160 -0.20000
C 	C 	0.77110 0.90880 0.11920 -0.00700
H 	H 	0.75040 0.90080 0.10240 0.05700
H 	H 	0.78930 0.88800 0.12180 0.00800
N 	N 	0.79910 0.95060 0.22030 -0.11000
N 	N 	0.84382 0.04419 0.17340 -0.23300
N 	N 	0.82240 0.12620 0.15141 -0.16900
N 	N 	0.80950 0.01040 0.09830 -0.22500
O 	O 	0.75690 0.92130 0.15570 -0.36100
H 	H 	0.74400 0.92900 0.17370 0.25600
O 	O 	0.77070 0.25140 0.16890 -1.39300
H 	H 	0.77900 0.26400 0.18800 0.53200
H 	H 	0.74550 0.20670 0.13720 0.35200
H 	H 	0.76010 0.23450 0.16930 1.12700
C 	C 	0.79060 0.91230 0.13160 0.09500
H 	H 	0.78730 0.88820 0.11810 0.00700
H 	H 	0.81390 0.91140 0.14660 0.01500
O 	O 	0.78060 0.24660 0.11800 -0.25900
H 	H 	0.76940 0.24640 0.09620 0.09900
C 	C 	0.32510 0.46770 0.73090 -0.04500
C 	C 	0.35610 0.52910 0.69960 -0.02700
C 	C 	0.29680 0.65300 0.64360 -0.16300
H 	H 	0.27660 0.64670 0.62740 0.06400
C 	C 	0.29830 0.69050 0.65860 0.31600
C 	C 	0.32740 0.69890 0.68270 -0.29700
H 	H 	0.32940 0.72330 0.69320 0.16600
C 	C 	0.35410 0.67120 0.69170 0.08300
H 	H 	0.37370 0.67640 0.70890 0.00200
C 	C 	0.35120 0.63530 0.67460 -0.05700
H 	H 	0.37000 0.61710 0.67970 0.03200
C 	C 	0.30180 0.47940 0.62070 0.02500
H 	H 	0.30430 0.48130 0.64720 0.02100
C 	C 	0.29050 0.44560 0.60450 -0.03500
C 	C 	0.28850 0.44230 0.56580 0.01300
H 	H 	0.28120 0.41910 0.55480 0.02500
C 	C 	0.29670 0.47120 0.54400 -0.11500
H 	H 	0.29500 0.46900 0.51750 0.07500
C 	C 	0.30800 0.50570 0.56090 0.07100
H 	H 	0.31460 0.52610 0.54510 -0.01500
C 	C 	0.26790 0.72020 0.64670 -0.82700
H 	H 	0.27010 0.72490 0.61940 0.40900
H 	H 	0.24250 0.71010 0.65160 -0.20000
C 	C 	0.27110 0.40880 0.61920 -0.00600
H 	H 	0.25040 0.40080 0.60240 0.05700
H 	H 	0.28930 0.38800 0.62180 0.00800
N 	N 	0.29910 0.45060 0.72030 -0.11000
N 	N 	0.34382 0.54419 0.67340 -0.23300
N 	N 	0.32240 0.62620 0.65141 -0.16900
N 	N 	0.30950 0.51040 0.59830 -0.22500
O 	O 	0.25690 0.42130 0.65570 -0.36100
H 	H 	0.24400 0.42900 0.67370 0.25600
O 	O 	0.27070 0.75140 0.66890 -1.39300
H 	H 	0.27900 0.76400 0.68800 0.53200
H 	H 	0.24550 0.70670 0.63720 0.35200
H 	H 	0.26010 0.73450 0.66930 1.12700
C 	C 	0.29060 0.41230 0.63160 0.09400
H 	H 	0.28730 0.38820 0.61810 0.00700
H 	H 	0.31390 0.41140 0.64660 0.01500
O 	O 	0.28060 0.74660 0.61800 -0.25900
H 	H 	0.26940 0.74640 0.59620 0.09900
C 	C 	0.32510 0.53230 0.76910 -0.04500
C 	C 	0.35610 0.47090 0.80040 -0.02700
C 	C 	0.29680 0.34700 0.85640 -0.16300
H 	H 	0.27660 0.35330 0.87260 0.06400
C 	C 	0.29830 0.30950 0.84140 0.31600
C 	C 	0.32740 0.30110 0.81730 -0.29700
H 	H 	0.32940 0.27670 0.80680 0.16600
C 	C 	0.35410 0.32880 0.80830 0.08300
H 	H 	0.37370 0.32360 0.79110 0.00200
C 	C 	0.35120 0.36470 0.82540 -0.05700
H 	H 	0.37000 0.38290 0.82030 0.03200
C 	C 	0.30180 0.52060 0.87930 0.02500
H 	H 	0.30430 0.51870 0.85280 0.02100
C 	C 	0.29050 0.55440 0.89550 -0.03500
C 	C 	0.28850 0.55770 0.93420 0.01300
H 	H 	0.28120 0.58090 0.94520 0.02600
C 	C 	0.29670 0.52880 0.95600 -0.11500
H 	H 	0.29500 0.53100 0.98250 0.07600
C 	C 	0.30800 0.49430 0.93910 0.07100
H 	H 	0.31460 0.47390 0.95490 -0.01400
C 	C 	0.26790 0.27980 0.85330 -0.82700
H 	H 	0.27010 0.27510 0.88060 0.40900
H 	H 	0.24250 0.28990 0.84840 -0.20000
C 	C 	0.27110 0.59120 0.88080 -0.00600
H 	H 	0.25040 0.59920 0.89760 0.05700
H 	H 	0.28930 0.61200 0.87820 0.00800
N 	N 	0.29910 0.54940 0.77970 -0.11000
N 	N 	0.34382 0.45581 0.82660 -0.23300
N 	N 	0.32240 0.37380 0.84859 -0.16900
N 	N 	0.30950 0.48960 0.90170 -0.22500
O 	O 	0.25690 0.57870 0.84430 -0.36100
H 	H 	0.24400 0.57100 0.82630 0.25600
O 	O 	0.27070 0.24860 0.83110 -1.39300
H 	H 	0.27900 0.23600 0.81200 0.53200
H 	H 	0.24550 0.29330 0.86280 0.35200
H 	H 	0.26010 0.26550 0.83070 1.12700
C 	C 	0.29060 0.58770 0.86840 0.09400
H 	H 	0.28730 0.61180 0.88190 0.00700
H 	H 	0.31390 0.58860 0.85340 0.01500
O 	O 	0.28060 0.25340 0.88200 -0.25900
H 	H 	0.26940 0.25360 0.90380 0.09900
C 	C 	0.82510 0.03230 0.26910 -0.04500
C 	C 	0.85610 0.97090 0.30040 -0.02400
C 	C 	0.79680 0.84700 0.35640 -0.16300
H 	H 	0.77660 0.85330 0.37260 0.06400
C 	C 	0.79830 0.80950 0.34140 0.31600
C 	C 	0.82740 0.80110 0.31730 -0.29700
H 	H 	0.82940 0.77670 0.30680 0.16600
C 	C 	0.85410 0.82880 0.30830 0.08300
H 	H 	0.87370 0.82360 0.29110 0.00200
C 	C 	0.85120 0.86470 0.32540 -0.05700
H 	H 	0.87000 0.88290 0.32030 0.03200
C 	C 	0.80180 0.02060 0.37930 0.02200
H 	H 	0.80430 0.01870 0.35280 0.02100
C 	C 	0.79050 0.05440 0.39550 -0.03700
C 	C 	0.78850 0.05770 0.43420 0.01800
H 	H 	0.78120 0.08090 0.44520 0.02400
C 	C 	0.79670 0.02880 0.45600 -0.12400
H 	H 	0.79500 0.03100 0.48250 0.07800
C 	C 	0.80800 0.99430 0.43910 0.07900
H 	H 	0.81460 0.97390 0.45490 -0.01700
C 	C 	0.76790 0.77980 0.35330 -0.82700
H 	H 	0.77010 0.77510 0.38060 0.40900
H 	H 	0.74250 0.78990 0.34840 -0.20000
C 	C 	0.77110 0.09120 0.38080 -0.00500
H 	H 	0.75040 0.09920 0.39760 0.05600
H 	H 	0.78930 0.11200 0.37820 0.00800
N 	N 	0.79910 0.04940 0.27970 -0.11000
N 	N 	0.84382 0.95581 0.32660 -0.23300
N 	N 	0.82240 0.87380 0.34859 -0.16900
N 	N 	0.80950 0.98960 0.40170 -0.22500
O 	O 	0.75690 0.07870 0.34430 -0.36100
H 	H 	0.74400 0.07100 0.32630 0.25500
O 	O 	0.77070 0.74860 0.33110 -1.39300
H 	H 	0.77900 0.73600 0.31200 0.53200
H 	H 	0.74550 0.79330 0.36280 0.35200
H 	H 	0.76010 0.76550 0.33070 1.12700
C 	C 	0.79060 0.08770 0.36840 0.09400
H 	H 	0.78730 0.11180 0.38190 0.00700
H 	H 	0.81390 0.08860 0.35340 0.01500
O 	O 	0.78060 0.75340 0.38200 -0.25900
H 	H 	0.76940 0.75360 0.40380 0.09900
C 	C 	0.17490 0.46770 0.26910 -0.04500
C 	C 	0.14390 0.52910 0.30040 -0.02700
C 	C 	0.20320 0.65300 0.35640 -0.16300
H 	H 	0.22340 0.64670 0.37260 0.06400
C 	C 	0.20170 0.69050 0.34140 0.31600
C 	C 	0.17260 0.69890 0.31730 -0.29700
H 	H 	0.17060 0.72330 0.30680 0.16600
C 	C 	0.14590 0.67120 0.30830 0.08300
H 	H 	0.12630 0.67640 0.29110 0.00200
C 	C 	0.14880 0.63530 0.32540 -0.05700
H 	H 	0.13000 0.61710 0.32030 0.03200
C 	C 	0.19820 0.47940 0.37930 0.02500
H 	H 	0.19570 0.48130 0.35280 0.02100
C 	C 	0.20950 0.44560 0.39550 -0.03500
C 	C 	0.21150 0.44230 0.43420 0.01300
H 	H 	0.21880 0.41910 0.44520 0.02500
C 	C 	0.20330 0.47120 0.45600 -0.11500
H 	H 	0.20500 0.46900 0.48250 0.07500
C 	C 	0.19200 0.50570 0.43910 0.07100
H 	H 	0.18540 0.52610 0.45490 -0.01500
C 	C 	0.23210 0.72020 0.35330 -0.82700
H 	H 	0.22990 0.72490 0.38060 0.40900
H 	H 	0.25750 0.71010 0.34840 -0.20000
C 	C 	0.22890 0.40880 0.38080 -0.00600
H 	H 	0.24960 0.40080 0.39760 0.05700
H 	H 	0.21070 0.38800 0.37820 0.00800
N 	N 	0.20090 0.45060 0.27970 -0.11000
N 	N 	0.15618 0.54419 0.32660 -0.23300
N 	N 	0.17760 0.62620 0.34859 -0.16900
N 	N 	0.19050 0.51040 0.40170 -0.22500
O 	O 	0.24310 0.42130 0.34430 -0.36100
H 	H 	0.25600 0.42900 0.32630 0.25600
O 	O 	0.22930 0.75140 0.33110 -1.39300
H 	H 	0.22100 0.76400 0.31200 0.53200
H 	H 	0.25450 0.70670 0.36280 0.35200
H 	H 	0.23990 0.73450 0.33070 1.12700
C 	C 	0.20940 0.41230 0.36840 0.09400
H 	H 	0.21270 0.38820 0.38190 0.00700
H 	H 	0.18610 0.41140 0.35340 0.01500
O 	O 	0.21940 0.74660 0.38200 -0.25900
H 	H 	0.23060 0.74640 0.40380 0.09900
C 	C 	0.67490 0.96770 0.76910 -0.04200
C 	C 	0.64390 0.02910 0.80040 -0.02700
C 	C 	0.70320 0.15300 0.85640 -0.16300
H 	H 	0.72340 0.14670 0.87260 0.06400
C 	C 	0.70170 0.19050 0.84140 0.31600
C 	C 	0.67260 0.19890 0.81730 -0.29700
H 	H 	0.67060 0.22330 0.80680 0.16600
C 	C 	0.64590 0.17120 0.80830 0.08300
H 	H 	0.62630 0.17640 0.79110 0.00200
C 	C 	0.64880 0.13530 0.82540 -0.05700
H 	H 	0.63000 0.11710 0.82030 0.03200
C 	C 	0.69820 0.97940 0.87930 0.02700
H 	H 	0.69570 0.98130 0.85280 0.02100
C 	C 	0.70950 0.94560 0.89550 -0.03300
C 	C 	0.71150 0.94230 0.93420 0.00800
H 	H 	0.71880 0.91910 0.94520 0.02800
C 	C 	0.70330 0.97120 0.95600 -0.10600
H 	H 	0.70500 0.96900 0.98250 0.07400
C 	C 	0.69200 0.00570 0.93910 0.06400
H 	H 	0.68540 0.02610 0.95490 -0.01200
C 	C 	0.73210 0.22020 0.85330 -0.82700
H 	H 	0.72990 0.22490 0.88060 0.40900
H 	H 	0.75750 0.21010 0.84840 -0.20000
C 	C 	0.72890 0.90880 0.88080 -0.00700
H 	H 	0.74960 0.90080 0.89760 0.05800
H 	H 	0.71070 0.88800 0.87820 0.00800
N 	N 	0.70090 0.95060 0.77970 -0.11000
N 	N 	0.65618 0.04419 0.82660 -0.23300
N 	N 	0.67760 0.12620 0.84859 -0.16900
N 	N 	0.69050 0.01040 0.90170 -0.22500
O 	O 	0.74310 0.92130 0.84430 -0.36100
H 	H 	0.75600 0.92900 0.82630 0.25600
O 	O 	0.72930 0.25140 0.83110 -1.39300
H 	H 	0.72100 0.26400 0.81200 0.53200
H 	H 	0.75450 0.20670 0.86280 0.35200
H 	H 	0.73990 0.23450 0.83070 1.12700
C 	C 	0.70940 0.91230 0.86840 0.09400
H 	H 	0.71270 0.88820 0.88190 0.00700
H 	H 	0.68610 0.91140 0.85340 0.01500
O 	O 	0.71940 0.24660 0.88200 -0.25900
H 	H 	0.73060 0.24640 0.90380 0.09900
C 	C 	0.67490 0.03230 0.73090 -0.04500
C 	C 	0.64390 0.97090 0.69960 -0.02400
C 	C 	0.70320 0.84700 0.64360 -0.16300
H 	H 	0.72340 0.85330 0.62740 0.06400
C 	C 	0.70170 0.80950 0.65860 0.31600
C 	C 	0.67260 0.80110 0.68270 -0.29700
H 	H 	0.67060 0.77670 0.69320 0.16600
C 	C 	0.64590 0.82880 0.69170 0.08300
H 	H 	0.62630 0.82360 0.70890 0.00200
C 	C 	0.64880 0.86470 0.67460 -0.05700
H 	H 	0.63000 0.88290 0.67970 0.03200
C 	C 	0.69820 0.02060 0.62070 0.02300
H 	H 	0.69570 0.01870 0.64720 0.02100
C 	C 	0.70950 0.05440 0.60450 -0.03700
C 	C 	0.71150 0.05770 0.56580 0.01800
H 	H 	0.71880 0.08090 0.55480 0.02400
C 	C 	0.70330 0.02880 0.54400 -0.12400
H 	H 	0.70500 0.03100 0.51750 0.07800
C 	C 	0.69200 0.99430 0.56090 0.07900
H 	H 	0.68540 0.97390 0.54510 -0.01700
C 	C 	0.73210 0.77980 0.64670 -0.82700
H 	H 	0.72990 0.77510 0.61940 0.40900
H 	H 	0.75750 0.78990 0.65160 -0.20000
C 	C 	0.72890 0.09120 0.61920 -0.00500
H 	H 	0.74960 0.09920 0.60240 0.05600
H 	H 	0.71070 0.11200 0.62180 0.00800
N 	N 	0.70090 0.04940 0.72030 -0.11000
N 	N 	0.65618 0.95581 0.67340 -0.23300
N 	N 	0.67760 0.87380 0.65141 -0.16900
N 	N 	0.69050 0.98960 0.59830 -0.22500
O 	O 	0.74310 0.07870 0.65570 -0.36100
H 	H 	0.75600 0.07100 0.67370 0.25500
O 	O 	0.72930 0.74860 0.66890 -1.39300
H 	H 	0.72100 0.73600 0.68800 0.53200
H 	H 	0.75450 0.79330 0.63720 0.35200
H 	H 	0.73990 0.76550 0.66930 1.12700
C 	C 	0.70940 0.08770 0.63160 0.09400
H 	H 	0.71270 0.11180 0.61810 0.00700
H 	H 	0.68610 0.08860 0.64660 0.01500
O 	O 	0.71940 0.75340 0.61800 -0.25900
H 	H 	0.73060 0.75360 0.59620 0.09900
C 	C 	0.17490 0.53230 0.23090 -0.04500
C 	C 	0.14390 0.47090 0.19960 -0.02700
C 	C 	0.20320 0.34700 0.14360 -0.16300
H 	H 	0.22340 0.35330 0.12740 0.06400
C 	C 	0.20170 0.30950 0.15860 0.31600
C 	C 	0.17260 0.30110 0.18270 -0.29700
H 	H 	0.17060 0.27670 0.19320 0.16600
C 	C 	0.14590 0.32880 0.19170 0.08300
H 	H 	0.12630 0.32360 0.20890 0.00200
C 	C 	0.14880 0.36470 0.17460 -0.05700
H 	H 	0.13000 0.38290 0.17970 0.03200
C 	C 	0.19820 0.52060 0.12070 0.02500
H 	H 	0.19570 0.51870 0.14720 0.02100
C 	C 	0.20950 0.55440 0.10450 -0.03500
C 	C 	0.21150 0.55770 0.06580 0.01300
H 	H 	0.21880 0.58090 0.05480 0.02500
C 	C 	0.20330 0.52880 0.04400 -0.11600
H 	H 	0.20500 0.53100 0.01750 0.07400
C 	C 	0.19200 0.49430 0.06090 0.07100
H 	H 	0.18540 0.47390 0.04510 -0.01500
C 	C 	0.23210 0.27980 0.14670 -0.82700
H 	H 	0.22990 0.27510 0.11940 0.40900
H 	H 	0.25750 0.28990 0.15160 -0.20000
C 	C 	0.22890 0.59120 0.11920 -0.00600
H 	H 	0.24960 0.59920 0.10240 0.05700
H 	H 	0.21070 0.61200 0.12180 0.00800
N 	N 	0.20090 0.54940 0.22030 -0.11000
N 	N 	0.15618 0.45581 0.17340 -0.23300
N 	N 	0.17760 0.37380 0.15141 -0.16900
N 	N 	0.19050 0.48960 0.09830 -0.22500
O 	O 	0.24310 0.57870 0.15570 -0.36100
H 	H 	0.25600 0.57100 0.17370 0.25600
O 	O 	0.22930 0.24860 0.16890 -1.39300
H 	H 	0.22100 0.23600 0.18800 0.53200
H 	H 	0.25450 0.29330 0.13720 0.35200
H 	H 	0.23990 0.26550 0.16930 1.12700
C 	C 	0.20940 0.58770 0.13160 0.09400
H 	H 	0.21270 0.61180 0.11810 0.00700
H 	H 	0.18610 0.58860 0.14660 0.01500
O 	O 	0.21940 0.25340 0.11800 -0.26000
H 	H 	0.23060 0.25360 0.09620 0.09900
C 	C 	0.98090 0.28230 0.92490 -0.04200
C 	C 	0.94960 0.22090 0.89390 -0.02500
C 	C 	0.89360 0.09700 0.95320 -0.15900
H 	H 	0.87740 0.10330 0.97340 0.06300
C 	C 	0.90860 0.05950 0.95170 0.30900
C 	C 	0.93270 0.05110 0.92260 -0.29100
H 	H 	0.94320 0.02670 0.92060 0.16300
C 	C 	0.94170 0.07880 0.89590 0.07900
H 	H 	0.95890 0.07360 0.87630 0.00400
C 	C 	0.92460 0.11470 0.89880 -0.05500
H 	H 	0.92970 0.13290 0.88000 0.03100
C 	C 	0.87070 0.27060 0.94820 0.02400
H 	H 	0.89720 0.26870 0.94570 0.02100
C 	C 	0.85450 0.30440 0.95950 -0.03400
C 	C 	0.81580 0.30770 0.96150 0.01200
H 	H 	0.80480 0.33090 0.96880 0.02600
C 	C 	0.79400 0.27880 0.95330 -0.11400
H 	H 	0.76750 0.28100 0.95500 0.07600
C 	C 	0.81090 0.24430 0.94200 0.07100
H 	H 	0.79510 0.22390 0.93540 -0.01400
C 	C 	0.89670 0.02980 0.98210 -0.80800
H 	H 	0.86940 0.02510 0.97990 0.40500
H 	H 	0.90160 0.03990 0.00750 -0.19800
C 	C 	0.86920 0.34120 0.97890 -0.00700
H 	H 	0.85240 0.34920 0.99960 0.05800
H 	H 	0.87180 0.36200 0.96070 0.00900
N 	N 	0.97030 0.29940 0.95090 -0.10900
N 	N 	0.92340 0.20581 0.90618 -0.23300
N 	N 	0.90141 0.12380 0.92760 -0.17100
N 	N 	0.84830 0.23960 0.94050 -0.22500
O 	O 	0.90570 0.32870 0.99310 -0.35500
H 	H 	0.92370 0.32100 0.00600 0.25100
O 	O 	0.91890 0.99860 0.97930 -1.37200
H 	H 	0.93800 0.98600 0.97100 0.52700
H 	H 	0.88720 0.04330 0.00450 0.34300
H 	H 	0.91930 0.01550 0.98990 1.10900
C 	C 	0.88160 0.33770 0.95940 0.09200
H 	H 	0.86810 0.36180 0.96270 0.00800
H 	H 	0.89660 0.33860 0.93610 0.01600
O 	O 	0.86800 0.00340 0.96940 -0.26500
H 	H 	0.84620 0.00360 0.98060 0.10200
C 	C 	0.48090 0.78230 0.42490 -0.04500
C 	C 	0.44960 0.72090 0.39390 -0.02700
C 	C 	0.39360 0.59700 0.45320 -0.16300
H 	H 	0.37740 0.60330 0.47340 0.06400
C 	C 	0.40860 0.55950 0.45170 0.31600
C 	C 	0.43270 0.55110 0.42260 -0.29700
H 	H 	0.44320 0.52670 0.42060 0.16600
C 	C 	0.44170 0.57880 0.39590 0.08300
H 	H 	0.45890 0.57360 0.37630 0.00200
C 	C 	0.42460 0.61470 0.39880 -0.05700
H 	H 	0.42970 0.63290 0.38000 0.03200
C 	C 	0.37070 0.77060 0.44820 0.02500
H 	H 	0.39720 0.76870 0.44570 0.02100
C 	C 	0.35450 0.80440 0.45950 -0.03500
C 	C 	0.31580 0.80770 0.46150 0.01300
H 	H 	0.30480 0.83090 0.46880 0.02500
C 	C 	0.29400 0.77880 0.45330 -0.11500
H 	H 	0.26750 0.78100 0.45500 0.07500
C 	C 	0.31090 0.74430 0.44200 0.07100
H 	H 	0.29510 0.72390 0.43540 -0.01500
C 	C 	0.39670 0.52980 0.48210 -0.82700
H 	H 	0.36940 0.52510 0.47990 0.40900
H 	H 	0.40160 0.53990 0.50750 -0.20000
C 	C 	0.36920 0.84120 0.47890 -0.00600
H 	H 	0.35240 0.84920 0.49960 0.05700
H 	H 	0.37180 0.86200 0.46070 0.00800
N 	N 	0.47030 0.79940 0.45090 -0.11000
N 	N 	0.42340 0.70581 0.40618 -0.23300
N 	N 	0.40141 0.62380 0.42760 -0.16900
N 	N 	0.34830 0.73960 0.44050 -0.22500
O 	O 	0.40570 0.82870 0.49310 -0.36100
H 	H 	0.42370 0.82100 0.50600 0.25600
O 	O 	0.41890 0.49860 0.47930 -1.39300
H 	H 	0.43800 0.48600 0.47100 0.53200
H 	H 	0.38720 0.54330 0.50450 0.35200
H 	H 	0.41930 0.51550 0.48990 1.12700
C 	C 	0.38160 0.83770 0.45940 0.09400
H 	H 	0.36810 0.86180 0.46270 0.00700
H 	H 	0.39660 0.83860 0.43610 0.01500
O 	O 	0.36800 0.50340 0.46940 -0.25900
H 	H 	0.34620 0.50360 0.48060 0.09900
C 	C 	0.51910 0.71770 0.42490 -0.04500
C 	C 	0.55040 0.77910 0.39390 -0.02700
C 	C 	0.60640 0.90300 0.45320 -0.16500
H 	H 	0.62260 0.89670 0.47340 0.06400
C 	C 	0.59140 0.94050 0.45170 0.31900
C 	C 	0.56730 0.94890 0.42260 -0.30000
H 	H 	0.55680 0.97330 0.42060 0.16800
C 	C 	0.55830 0.92120 0.39590 0.08500
H 	H 	0.54110 0.92640 0.37630 0.00200
C 	C 	0.57540 0.88530 0.39880 -0.05800
H 	H 	0.57030 0.86710 0.38000 0.03200
C 	C 	0.62930 0.72940 0.44820 0.02500
H 	H 	0.60280 0.73130 0.44570 0.02100
C 	C 	0.64550 0.69560 0.45950 -0.03500
C 	C 	0.68420 0.69230 0.46150 0.01300
H 	H 	0.69520 0.66910 0.46880 0.02500
C 	C 	0.70600 0.72120 0.45330 -0.11500
H 	H 	0.73250 0.71900 0.45500 0.07500
C 	C 	0.68910 0.75570 0.44200 0.07100
H 	H 	0.70490 0.77610 0.43540 -0.01500
C 	C 	0.60330 0.97020 0.48210 -0.83400
H 	H 	0.63060 0.97490 0.47990 0.40900
H 	H 	0.59840 0.96010 0.50750 -0.20500
C 	C 	0.63080 0.65880 0.47890 -0.00600
H 	H 	0.64760 0.65080 0.49960 0.05700
H 	H 	0.62820 0.63800 0.46070 0.00800
N 	N 	0.52970 0.70060 0.45090 -0.11000
N 	N 	0.57660 0.79419 0.40618 -0.23300
N 	N 	0.59859 0.87620 0.42760 -0.16900
N 	N 	0.65170 0.76040 0.44050 -0.22500
O 	O 	0.59430 0.67130 0.49310 -0.36100
H 	H 	0.57630 0.67900 0.50600 0.25600
O 	O 	0.58110 0.00140 0.47930 -1.41400
H 	H 	0.56200 0.01400 0.47100 0.53800
H 	H 	0.61280 0.95670 0.50450 0.35800
H 	H 	0.58070 0.98450 0.48990 1.14300
C 	C 	0.61840 0.66230 0.45940 0.09400
H 	H 	0.63190 0.63820 0.46270 0.00700
H 	H 	0.60340 0.66140 0.43610 0.01500
O 	O 	0.63200 0.99660 0.46940 -0.25500
H 	H 	0.65380 0.99640 0.48060 0.09800
C 	C 	0.01910 0.21770 0.92490 -0.04500
C 	C 	0.05040 0.27910 0.89390 -0.02700
C 	C 	0.10640 0.40300 0.95320 -0.16100
H 	H 	0.12260 0.39670 0.97340 0.06400
C 	C 	0.09140 0.44050 0.95170 0.31200
C 	C 	0.06730 0.44890 0.92260 -0.29400
H 	H 	0.05680 0.47330 0.92060 0.16500
C 	C 	0.05830 0.42120 0.89590 0.08200
H 	H 	0.04110 0.42640 0.87630 0.00200
C 	C 	0.07540 0.38530 0.89880 -0.05600
H 	H 	0.07030 0.36710 0.88000 0.03200
C 	C 	0.12930 0.22940 0.94820 0.02400
H 	H 	0.10280 0.23130 0.94570 0.02100
C 	C 	0.14550 0.19560 0.95950 -0.03400
C 	C 	0.18420 0.19230 0.96150 0.01200
H 	H 	0.19520 0.16910 0.96880 0.02600
C 	C 	0.20600 0.22120 0.95330 -0.11400
H 	H 	0.23250 0.21900 0.95500 0.07600
C 	C 	0.18910 0.25570 0.94200 0.07100
H 	H 	0.20490 0.27610 0.93540 -0.01400
C 	C 	0.10330 0.47020 0.98210 -0.81400
H 	H 	0.13060 0.47490 0.97990 0.40600
H 	H 	0.09840 0.46010 0.00750 -0.20300
C 	C 	0.13080 0.15880 0.97890 -0.00700
H 	H 	0.14760 0.15080 0.99960 0.05800
H 	H 	0.12820 0.13800 0.96070 0.00900
N 	N 	0.02970 0.20060 0.95090 -0.11000
N 	N 	0.07660 0.29419 0.90618 -0.23300
N 	N 	0.09859 0.37620 0.92760 -0.17000
N 	N 	0.15170 0.26040 0.94050 -0.22500
O 	O 	0.09430 0.17130 0.99310 -0.35500
H 	H 	0.07630 0.17900 0.00600 0.25000
O 	O 	0.08110 0.50140 0.97930 -1.39100
H 	H 	0.06200 0.51400 0.97100 0.53200
H 	H 	0.11280 0.45670 0.00450 0.34900
H 	H 	0.08070 0.48450 0.98990 1.12400
C 	C 	0.11840 0.16230 0.95940 0.09200
H 	H 	0.13190 0.13820 0.96270 0.00800
H 	H 	0.10340 0.16140 0.93610 0.01600
O 	O 	0.13200 0.49660 0.96940 -0.26000
H 	H 	0.15380 0.49640 0.98060 0.10100
C 	C 	0.01910 0.78230 0.57510 -0.04600
C 	C 	0.05040 0.72090 0.60610 -0.02700
C 	C 	0.10640 0.59700 0.54680 -0.16300
H 	H 	0.12260 0.60330 0.52660 0.06400
C 	C 	0.09140 0.55950 0.54830 0.31600
C 	C 	0.06730 0.55110 0.57740 -0.29800
H 	H 	0.05680 0.52670 0.57940 0.16600
C 	C 	0.05830 0.57880 0.60410 0.08400
H 	H 	0.04110 0.57360 0.62370 0.00200
C 	C 	0.07540 0.61470 0.60120 -0.05800
H 	H 	0.07030 0.63290 0.62000 0.03200
C 	C 	0.12930 0.77060 0.55180 0.02500
H 	H 	0.10280 0.76870 0.55430 0.02100
C 	C 	0.14550 0.80440 0.54050 -0.03500
C 	C 	0.18420 0.80770 0.53850 0.01300
H 	H 	0.19520 0.83090 0.53120 0.02500
C 	C 	0.20600 0.77880 0.54670 -0.11500
H 	H 	0.23250 0.78100 0.54500 0.07500
C 	C 	0.18910 0.74430 0.55800 0.07100
H 	H 	0.20490 0.72390 0.56460 -0.01500
C 	C 	0.10330 0.52980 0.51790 -0.82700
H 	H 	0.13060 0.52510 0.52010 0.40900
H 	H 	0.09840 0.53990 0.49250 -0.20000
C 	C 	0.13080 0.84120 0.52110 -0.00600
H 	H 	0.14760 0.84920 0.50040 0.05700
H 	H 	0.12820 0.86200 0.53930 0.00800
N 	N 	0.02970 0.79940 0.54910 -0.11000
N 	N 	0.07660 0.70581 0.59382 -0.23300
N 	N 	0.09859 0.62380 0.57240 -0.16900
N 	N 	0.15170 0.73960 0.55950 -0.22500
O 	O 	0.09430 0.82870 0.50690 -0.36100
H 	H 	0.07630 0.82100 0.49400 0.25500
O 	O 	0.08110 0.49860 0.52070 -1.39200
H 	H 	0.06200 0.48600 0.52900 0.53100
H 	H 	0.11280 0.54330 0.49550 0.35200
H 	H 	0.08070 0.51550 0.51010 1.12600
C 	C 	0.11840 0.83770 0.54060 0.09400
H 	H 	0.13190 0.86180 0.53730 0.00700
H 	H 	0.10340 0.83860 0.56390 0.01500
O 	O 	0.13200 0.50340 0.53060 -0.26000
H 	H 	0.15380 0.50360 0.51940 0.09900
C 	C 	0.51910 0.28230 0.07510 -0.04500
C 	C 	0.55040 0.22090 0.10610 -0.02700
C 	C 	0.60640 0.09700 0.04680 -0.16400
H 	H 	0.62260 0.10330 0.02660 0.06300
C 	C 	0.59140 0.05950 0.04830 0.31700
C 	C 	0.56730 0.05110 0.07740 -0.29800
H 	H 	0.55680 0.02670 0.07940 0.16500
C 	C 	0.55830 0.07880 0.10410 0.08400
H 	H 	0.54110 0.07360 0.12370 0.00200
C 	C 	0.57540 0.11470 0.10120 -0.05700
H 	H 	0.57030 0.13290 0.12000 0.03200
C 	C 	0.62930 0.27060 0.05180 0.02500
H 	H 	0.60280 0.26870 0.05430 0.02000
C 	C 	0.64550 0.30440 0.04050 -0.03700
C 	C 	0.68420 0.30770 0.03850 0.01400
H 	H 	0.69520 0.33090 0.03120 0.02500
C 	C 	0.70600 0.27880 0.04670 -0.11700
H 	H 	0.73250 0.28100 0.04500 0.07500
C 	C 	0.68910 0.24430 0.05800 0.07100
H 	H 	0.70490 0.22390 0.06460 -0.01500
C 	C 	0.60330 0.02980 0.01790 -0.83200
H 	H 	0.63060 0.02510 0.02010 0.41100
H 	H 	0.59840 0.03990 0.99250 -0.19300
C 	C 	0.63080 0.34120 0.02110 -0.00500
H 	H 	0.64760 0.34920 0.00040 0.05600
H 	H 	0.62820 0.36200 0.03930 0.00800
N 	N 	0.52970 0.29940 0.04910 -0.11000
N 	N 	0.57660 0.20581 0.09382 -0.23300
N 	N 	0.59859 0.12380 0.07240 -0.16900
N 	N 	0.65170 0.23960 0.05950 -0.22500
O 	O 	0.59430 0.32870 0.00690 -0.36700
H 	H 	0.57630 0.32100 0.99400 0.26100
O 	O 	0.58110 0.99860 0.02070 -1.37300
H 	H 	0.56200 0.98600 0.02900 0.52400
H 	H 	0.61280 0.04330 0.99550 0.35000
H 	H 	0.58070 0.01550 0.01010 1.11400
C 	C 	0.61840 0.33770 0.04060 0.09700
H 	H 	0.63190 0.36180 0.03730 0.00600
H 	H 	0.60340 0.33860 0.06390 0.01500
O 	O 	0.63200 0.00340 0.03060 -0.26300
H 	H 	0.65380 0.00360 0.01940 0.09800
C 	C 	0.48090 0.21770 0.07510 -0.04500
C 	C 	0.44960 0.27910 0.10610 -0.02700
C 	C 	0.39360 0.40300 0.04680 -0.16600
H 	H 	0.37740 0.39670 0.02660 0.06400
C 	C 	0.40860 0.44050 0.04830 0.32000
C 	C 	0.43270 0.44890 0.07740 -0.30000
H 	H 	0.44320 0.47330 0.07940 0.16700
C 	C 	0.44170 0.42120 0.10410 0.08600
H 	H 	0.45890 0.42640 0.12370 0.00200
C 	C 	0.42460 0.38530 0.10120 -0.05800
H 	H 	0.42970 0.36710 0.12000 0.03200
C 	C 	0.37070 0.22940 0.05180 0.02500
H 	H 	0.39720 0.23130 0.05430 0.02000
C 	C 	0.35450 0.19560 0.04050 -0.03700
C 	C 	0.31580 0.19230 0.03850 0.01400
H 	H 	0.30480 0.16910 0.03120 0.02500
C 	C 	0.29400 0.22120 0.04670 -0.11700
H 	H 	0.26750 0.21900 0.04500 0.07500
C 	C 	0.31090 0.25570 0.05800 0.07100
H 	H 	0.29510 0.27610 0.06460 -0.01500
C 	C 	0.39670 0.47020 0.01790 -0.83900
H 	H 	0.36940 0.47490 0.02010 0.41200
H 	H 	0.40160 0.46010 0.99250 -0.19800
C 	C 	0.36920 0.15880 0.02110 -0.00500
H 	H 	0.35240 0.15080 0.00040 0.05600
H 	H 	0.37180 0.13800 0.03930 0.00800
N 	N 	0.47030 0.20060 0.04910 -0.11000
N 	N 	0.42340 0.29419 0.09382 -0.23300
N 	N 	0.40141 0.37620 0.07240 -0.16900
N 	N 	0.34830 0.26040 0.05950 -0.22500
O 	O 	0.40570 0.17130 0.00690 -0.36700
H 	H 	0.42370 0.17900 0.99400 0.26100
O 	O 	0.41890 0.50140 0.02070 -1.39300
H 	H 	0.43800 0.51400 0.02900 0.53100
H 	H 	0.38720 0.45670 0.99550 0.35600
H 	H 	0.41930 0.48450 0.01010 1.13000
C 	C 	0.38160 0.16230 0.04060 0.09700
H 	H 	0.36810 0.13820 0.03730 0.00600
H 	H 	0.39660 0.16140 0.06390 0.01500
O 	O 	0.36800 0.49660 0.03060 -0.25900
H 	H 	0.34620 0.49640 0.01940 0.09700
C 	C 	0.98090 0.71770 0.57510 -0.04200
C 	C 	0.94960 0.77910 0.60610 -0.02500
C 	C 	0.89360 0.90300 0.54680 -0.16500
H 	H 	0.87740 0.89670 0.52660 0.06400
C 	C 	0.90860 0.94050 0.54830 0.31900
C 	C 	0.93270 0.94890 0.57740 -0.29900
H 	H 	0.94320 0.97330 0.57940 0.16800
C 	C 	0.94170 0.92120 0.60410 0.08500
H 	H 	0.95890 0.92640 0.62370 0.00300
C 	C 	0.92460 0.88530 0.60120 -0.05800
H 	H 	0.92970 0.86710 0.62000 0.03300
C 	C 	0.87070 0.72940 0.55180 0.02500
H 	H 	0.89720 0.73130 0.55430 0.02100
C 	C 	0.85450 0.69560 0.54050 -0.03500
C 	C 	0.81580 0.69230 0.53850 0.01300
H 	H 	0.80480 0.66910 0.53120 0.02500
C 	C 	0.79400 0.72120 0.54670 -0.11500
H 	H 	0.76750 0.71900 0.54500 0.07500
C 	C 	0.81090 0.75570 0.55800 0.07100
H 	H 	0.79510 0.77610 0.56460 -0.01500
C 	C 	0.89670 0.97020 0.51790 -0.83400
H 	H 	0.86940 0.97490 0.52010 0.40900
H 	H 	0.90160 0.96010 0.49250 -0.20500
C 	C 	0.86920 0.65880 0.52110 -0.00600
H 	H 	0.85240 0.65080 0.50040 0.05700
H 	H 	0.87180 0.63800 0.53930 0.00800
N 	N 	0.97030 0.70060 0.54910 -0.11000
N 	N 	0.92340 0.79419 0.59382 -0.23300
N 	N 	0.90141 0.87620 0.57240 -0.16900
N 	N 	0.84830 0.76040 0.55950 -0.22500
O 	O 	0.90570 0.67130 0.50690 -0.36100
H 	H 	0.92370 0.67900 0.49400 0.25600
O 	O 	0.91890 0.00140 0.52070 -1.41400
H 	H 	0.93800 0.01400 0.52900 0.53900
H 	H 	0.88720 0.95670 0.49550 0.35800
H 	H 	0.91930 0.98450 0.51010 1.14400
C 	C 	0.88160 0.66230 0.54060 0.09400
H 	H 	0.86810 0.63820 0.53730 0.00700
H 	H 	0.89660 0.66140 0.56390 0.01500
O 	O 	0.86800 0.99660 0.53060 -0.25500
H 	H 	0.84620 0.99640 0.51940 0.09800
C 	C 	0.92490 0.98090 0.28230 -0.04200
C 	C 	0.89390 0.94960 0.22090 -0.02500
C 	C 	0.95320 0.89360 0.09700 -0.15900
H 	H 	0.97340 0.87740 0.10330 0.06300
C 	C 	0.95170 0.90860 0.05950 0.30900
C 	C 	0.92260 0.93270 0.05110 -0.29100
H 	H 	0.92060 0.94320 0.02670 0.16300
C 	C 	0.89590 0.94170 0.07880 0.07900
H 	H 	0.87630 0.95890 0.07360 0.00400
C 	C 	0.89880 0.92460 0.11470 -0.05500
H 	H 	0.88000 0.92970 0.13290 0.03100
C 	C 	0.94820 0.87070 0.27060 0.02400
H 	H 	0.94570 0.89720 0.26870 0.02100
C 	C 	0.95950 0.85450 0.30440 -0.03400
C 	C 	0.96150 0.81580 0.30770 0.01200
H 	H 	0.96880 0.80480 0.33090 0.02600
C 	C 	0.95330 0.79400 0.27880 -0.11400
H 	H 	0.95500 0.76750 0.28100 0.07600
C 	C 	0.94200 0.81090 0.24430 0.07100
H 	H 	0.93540 0.79510 0.22390 -0.01400
C 	C 	0.98210 0.89670 0.02980 -0.80800
H 	H 	0.97990 0.86940 0.02510 0.40500
H 	H 	0.00750 0.90160 0.03990 -0.19800
C 	C 	0.97890 0.86920 0.34120 -0.00700
H 	H 	0.99960 0.85240 0.34920 0.05800
H 	H 	0.96070 0.87180 0.36200 0.00900
N 	N 	0.95090 0.97030 0.29940 -0.10900
N 	N 	0.90618 0.92340 0.20581 -0.23300
N 	N 	0.92760 0.90141 0.12380 -0.17100
N 	N 	0.94050 0.84830 0.23960 -0.22500
O 	O 	0.99310 0.90570 0.32870 -0.35500
H 	H 	0.00600 0.92370 0.32100 0.25100
O 	O 	0.97930 0.91890 0.99860 -1.37200
H 	H 	0.97100 0.93800 0.98600 0.52700
H 	H 	0.00450 0.88720 0.04330 0.34300
H 	H 	0.98990 0.91930 0.01550 1.10900
C 	C 	0.95940 0.88160 0.33770 0.09200
H 	H 	0.96270 0.86810 0.36180 0.00800
H 	H 	0.93610 0.89660 0.33860 0.01600
O 	O 	0.96940 0.86800 0.00340 -0.26500
H 	H 	0.98060 0.84620 0.00360 0.10200
C 	C 	0.42490 0.48090 0.78230 -0.04500
C 	C 	0.39390 0.44960 0.72090 -0.02700
C 	C 	0.45320 0.39360 0.59700 -0.16300
H 	H 	0.47340 0.37740 0.60330 0.06400
C 	C 	0.45170 0.40860 0.55950 0.31600
C 	C 	0.42260 0.43270 0.55110 -0.29700
H 	H 	0.42060 0.44320 0.52670 0.16600
C 	C 	0.39590 0.44170 0.57880 0.08300
H 	H 	0.37630 0.45890 0.57360 0.00200
C 	C 	0.39880 0.42460 0.61470 -0.05700
H 	H 	0.38000 0.42970 0.63290 0.03200
C 	C 	0.44820 0.37070 0.77060 0.02500
H 	H 	0.44570 0.39720 0.76870 0.02100
C 	C 	0.45950 0.35450 0.80440 -0.03500
C 	C 	0.46150 0.31580 0.80770 0.01300
H 	H 	0.46880 0.30480 0.83090 0.02500
C 	C 	0.45330 0.29400 0.77880 -0.11500
H 	H 	0.45500 0.26750 0.78100 0.07500
C 	C 	0.44200 0.31090 0.74430 0.07100
H 	H 	0.43540 0.29510 0.72390 -0.01500
C 	C 	0.48210 0.39670 0.52980 -0.82700
H 	H 	0.47990 0.36940 0.52510 0.40900
H 	H 	0.50750 0.40160 0.53990 -0.20000
C 	C 	0.47890 0.36920 0.84120 -0.00600
H 	H 	0.49960 0.35240 0.84920 0.05700
H 	H 	0.46070 0.37180 0.86200 0.00800
N 	N 	0.45090 0.47030 0.79940 -0.11000
N 	N 	0.40618 0.42340 0.70581 -0.23300
N 	N 	0.42760 0.40141 0.62380 -0.16900
N 	N 	0.44050 0.34830 0.73960 -0.22500
O 	O 	0.49310 0.40570 0.82870 -0.36100
H 	H 	0.50600 0.42370 0.82100 0.25600
O 	O 	0.47930 0.41890 0.49860 -1.39300
H 	H 	0.47100 0.43800 0.48600 0.53200
H 	H 	0.50450 0.38720 0.54330 0.35200
H 	H 	0.48990 0.41930 0.51550 1.12700
C 	C 	0.45940 0.38160 0.83770 0.09400
H 	H 	0.46270 0.36810 0.86180 0.00700
H 	H 	0.43610 0.39660 0.83860 0.01500
O 	O 	0.46940 0.36800 0.50340 -0.25900
H 	H 	0.48060 0.34620 0.50360 0.09900
C 	C 	0.42490 0.51910 0.71770 -0.04500
C 	C 	0.39390 0.55040 0.77910 -0.02700
C 	C 	0.45320 0.60640 0.90300 -0.16500
H 	H 	0.47340 0.62260 0.89670 0.06400
C 	C 	0.45170 0.59140 0.94050 0.31900
C 	C 	0.42260 0.56730 0.94890 -0.30000
H 	H 	0.42060 0.55680 0.97330 0.16800
C 	C 	0.39590 0.55830 0.92120 0.08500
H 	H 	0.37630 0.54110 0.92640 0.00200
C 	C 	0.39880 0.57540 0.88530 -0.05800
H 	H 	0.38000 0.57030 0.86710 0.03200
C 	C 	0.44820 0.62930 0.72940 0.02500
H 	H 	0.44570 0.60280 0.73130 0.02100
C 	C 	0.45950 0.64550 0.69560 -0.03500
C 	C 	0.46150 0.68420 0.69230 0.01300
H 	H 	0.46880 0.69520 0.66910 0.02500
C 	C 	0.45330 0.70600 0.72120 -0.11500
H 	H 	0.45500 0.73250 0.71900 0.07500
C 	C 	0.44200 0.68910 0.75570 0.07100
H 	H 	0.43540 0.70490 0.77610 -0.01500
C 	C 	0.48210 0.60330 0.97020 -0.83400
H 	H 	0.47990 0.63060 0.97490 0.40900
H 	H 	0.50750 0.59840 0.96010 -0.20500
C 	C 	0.47890 0.63080 0.65880 -0.00600
H 	H 	0.49960 0.64760 0.65080 0.05700
H 	H 	0.46070 0.62820 0.63800 0.00800
N 	N 	0.45090 0.52970 0.70060 -0.11000
N 	N 	0.40618 0.57660 0.79419 -0.23300
N 	N 	0.42760 0.59859 0.87620 -0.16900
N 	N 	0.44050 0.65170 0.76040 -0.22500
O 	O 	0.49310 0.59430 0.67130 -0.36100
H 	H 	0.50600 0.57630 0.67900 0.25600
O 	O 	0.47930 0.58110 0.00140 -1.41400
H 	H 	0.47100 0.56200 0.01400 0.53800
H 	H 	0.50450 0.61280 0.95670 0.35800
H 	H 	0.48990 0.58070 0.98450 1.14300
C 	C 	0.45940 0.61840 0.66230 0.09400
H 	H 	0.46270 0.63190 0.63820 0.00700
H 	H 	0.43610 0.60340 0.66140 0.01500
O 	O 	0.46940 0.63200 0.99660 -0.25500
H 	H 	0.48060 0.65380 0.99640 0.09800
C 	C 	0.92490 0.01910 0.21770 -0.04500
C 	C 	0.89390 0.05040 0.27910 -0.02700
C 	C 	0.95320 0.10640 0.40300 -0.16100
H 	H 	0.97340 0.12260 0.39670 0.06400
C 	C 	0.95170 0.09140 0.44050 0.31200
C 	C 	0.92260 0.06730 0.44890 -0.29400
H 	H 	0.92060 0.05680 0.47330 0.16500
C 	C 	0.89590 0.05830 0.42120 0.08200
H 	H 	0.87630 0.04110 0.42640 0.00200
C 	C 	0.89880 0.07540 0.38530 -0.05600
H 	H 	0.88000 0.07030 0.36710 0.03200
C 	C 	0.94820 0.12930 0.22940 0.02400
H 	H 	0.94570 0.10280 0.23130 0.02100
C 	C 	0.95950 0.14550 0.19560 -0.03400
C 	C 	0.96150 0.18420 0.19230 0.01200
H 	H 	0.96880 0.19520 0.16910 0.02600
C 	C 	0.95330 0.20600 0.22120 -0.11400
H 	H 	0.95500 0.23250 0.21900 0.07600
C 	C 	0.94200 0.18910 0.25570 0.07100
H 	H 	0.93540 0.20490 0.27610 -0.01400
C 	C 	0.98210 0.10330 0.47020 -0.81400
H 	H 	0.97990 0.13060 0.47490 0.40600
H 	H 	0.00750 0.09840 0.46010 -0.20300
C 	C 	0.97890 0.13080 0.15880 -0.00700
H 	H 	0.99960 0.14760 0.15080 0.05800
H 	H 	0.96070 0.12820 0.13800 0.00900
N 	N 	0.95090 0.02970 0.20060 -0.11000
N 	N 	0.90618 0.07660 0.29419 -0.23300
N 	N 	0.92760 0.09859 0.37620 -0.17000
N 	N 	0.94050 0.15170 0.26040 -0.22500
O 	O 	0.99310 0.09430 0.17130 -0.35500
H 	H 	0.00600 0.07630 0.17900 0.25000
O 	O 	0.97930 0.08110 0.50140 -1.39100
H 	H 	0.97100 0.06200 0.51400 0.53200
H 	H 	0.00450 0.11280 0.45670 0.34900
H 	H 	0.98990 0.08070 0.48450 1.12400
C 	C 	0.95940 0.11840 0.16230 0.09200
H 	H 	0.96270 0.13190 0.13820 0.00800
H 	H 	0.93610 0.10340 0.16140 0.01600
O 	O 	0.96940 0.13200 0.49660 -0.26000
H 	H 	0.98060 0.15380 0.49640 0.10100
C 	C 	0.57510 0.01910 0.78230 -0.04600
C 	C 	0.60610 0.05040 0.72090 -0.02700
C 	C 	0.54680 0.10640 0.59700 -0.16300
H 	H 	0.52660 0.12260 0.60330 0.06400
C 	C 	0.54830 0.09140 0.55950 0.31600
C 	C 	0.57740 0.06730 0.55110 -0.29800
H 	H 	0.57940 0.05680 0.52670 0.16600
C 	C 	0.60410 0.05830 0.57880 0.08400
H 	H 	0.62370 0.04110 0.57360 0.00200
C 	C 	0.60120 0.07540 0.61470 -0.05800
H 	H 	0.62000 0.07030 0.63290 0.03200
C 	C 	0.55180 0.12930 0.77060 0.02500
H 	H 	0.55430 0.10280 0.76870 0.02100
C 	C 	0.54050 0.14550 0.80440 -0.03500
C 	C 	0.53850 0.18420 0.80770 0.01300
H 	H 	0.53120 0.19520 0.83090 0.02500
C 	C 	0.54670 0.20600 0.77880 -0.11500
H 	H 	0.54500 0.23250 0.78100 0.07500
C 	C 	0.55800 0.18910 0.74430 0.07100
H 	H 	0.56460 0.20490 0.72390 -0.01500
C 	C 	0.51790 0.10330 0.52980 -0.82700
H 	H 	0.52010 0.13060 0.52510 0.40900
H 	H 	0.49250 0.09840 0.53990 -0.20000
C 	C 	0.52110 0.13080 0.84120 -0.00600
H 	H 	0.50040 0.14760 0.84920 0.05700
H 	H 	0.53930 0.12820 0.86200 0.00800
N 	N 	0.54910 0.02970 0.79940 -0.11000
N 	N 	0.59382 0.07660 0.70581 -0.23300
N 	N 	0.57240 0.09859 0.62380 -0.16900
N 	N 	0.55950 0.15170 0.73960 -0.22500
O 	O 	0.50690 0.09430 0.82870 -0.36100
H 	H 	0.49400 0.07630 0.82100 0.25500
O 	O 	0.52070 0.08110 0.49860 -1.39200
H 	H 	0.52900 0.06200 0.48600 0.53100
H 	H 	0.49550 0.11280 0.54330 0.35200
H 	H 	0.51010 0.08070 0.51550 1.12600
C 	C 	0.54060 0.11840 0.83770 0.09400
H 	H 	0.53730 0.13190 0.86180 0.00700
H 	H 	0.56390 0.10340 0.83860 0.01500
O 	O 	0.53060 0.13200 0.50340 -0.26000
H 	H 	0.51940 0.15380 0.50360 0.09900
C 	C 	0.07510 0.51910 0.28230 -0.04500
C 	C 	0.10610 0.55040 0.22090 -0.02700
C 	C 	0.04680 0.60640 0.09700 -0.16400
H 	H 	0.02660 0.62260 0.10330 0.06300
C 	C 	0.04830 0.59140 0.05950 0.31700
C 	C 	0.07740 0.56730 0.05110 -0.29800
H 	H 	0.07940 0.55680 0.02670 0.16500
C 	C 	0.10410 0.55830 0.07880 0.08400
H 	H 	0.12370 0.54110 0.07360 0.00200
C 	C 	0.10120 0.57540 0.11470 -0.05700
H 	H 	0.12000 0.57030 0.13290 0.03200
C 	C 	0.05180 0.62930 0.27060 0.02500
H 	H 	0.05430 0.60280 0.26870 0.02000
C 	C 	0.04050 0.64550 0.30440 -0.03700
C 	C 	0.03850 0.68420 0.30770 0.01400
H 	H 	0.03120 0.69520 0.33090 0.02500
C 	C 	0.04670 0.70600 0.27880 -0.11700
H 	H 	0.04500 0.73250 0.28100 0.07500
C 	C 	0.05800 0.68910 0.24430 0.07100
H 	H 	0.06460 0.70490 0.22390 -0.01500
C 	C 	0.01790 0.60330 0.02980 -0.83200
H 	H 	0.02010 0.63060 0.02510 0.41100
H 	H 	0.99250 0.59840 0.03990 -0.19300
C 	C 	0.02110 0.63080 0.34120 -0.00500
H 	H 	0.00040 0.64760 0.34920 0.05600
H 	H 	0.03930 0.62820 0.36200 0.00800
N 	N 	0.04910 0.52970 0.29940 -0.11000
N 	N 	0.09382 0.57660 0.20581 -0.23300
N 	N 	0.07240 0.59859 0.12380 -0.16900
N 	N 	0.05950 0.65170 0.23960 -0.22500
O 	O 	0.00690 0.59430 0.32870 -0.36700
H 	H 	0.99400 0.57630 0.32100 0.26100
O 	O 	0.02070 0.58110 0.99860 -1.37300
H 	H 	0.02900 0.56200 0.98600 0.52400
H 	H 	0.99550 0.61280 0.04330 0.35000
H 	H 	0.01010 0.58070 0.01550 1.11400
C 	C 	0.04060 0.61840 0.33770 0.09700
H 	H 	0.03730 0.63190 0.36180 0.00600
H 	H 	0.06390 0.60340 0.33860 0.01500
O 	O 	0.03060 0.63200 0.00340 -0.26300
H 	H 	0.01940 0.65380 0.00360 0.09800
C 	C 	0.07510 0.48090 0.21770 -0.04500
C 	C 	0.10610 0.44960 0.27910 -0.02700
C 	C 	0.04680 0.39360 0.40300 -0.16600
H 	H 	0.02660 0.37740 0.39670 0.06400
C 	C 	0.04830 0.40860 0.44050 0.32000
C 	C 	0.07740 0.43270 0.44890 -0.30000
H 	H 	0.07940 0.44320 0.47330 0.16700
C 	C 	0.10410 0.44170 0.42120 0.08600
H 	H 	0.12370 0.45890 0.42640 0.00200
C 	C 	0.10120 0.42460 0.38530 -0.05800
H 	H 	0.12000 0.42970 0.36710 0.03200
C 	C 	0.05180 0.37070 0.22940 0.02500
H 	H 	0.05430 0.39720 0.23130 0.02000
C 	C 	0.04050 0.35450 0.19560 -0.03700
C 	C 	0.03850 0.31580 0.19230 0.01400
H 	H 	0.03120 0.30480 0.16910 0.02500
C 	C 	0.04670 0.29400 0.22120 -0.11700
H 	H 	0.04500 0.26750 0.21900 0.07500
C 	C 	0.05800 0.31090 0.25570 0.07100
H 	H 	0.06460 0.29510 0.27610 -0.01500
C 	C 	0.01790 0.39670 0.47020 -0.83900
H 	H 	0.02010 0.36940 0.47490 0.41200
H 	H 	0.99250 0.40160 0.46010 -0.19800
C 	C 	0.02110 0.36920 0.15880 -0.00500
H 	H 	0.00040 0.35240 0.15080 0.05600
H 	H 	0.03930 0.37180 0.13800 0.00800
N 	N 	0.04910 0.47030 0.20060 -0.11000
N 	N 	0.09382 0.42340 0.29419 -0.23300
N 	N 	0.07240 0.40141 0.37620 -0.16900
N 	N 	0.05950 0.34830 0.26040 -0.22500
O 	O 	0.00690 0.40570 0.17130 -0.36700
H 	H 	0.99400 0.42370 0.17900 0.26100
O 	O 	0.02070 0.41890 0.50140 -1.39300
H 	H 	0.02900 0.43800 0.51400 0.53100
H 	H 	0.99550 0.38720 0.45670 0.35600
H 	H 	0.01010 0.41930 0.48450 1.13000
C 	C 	0.04060 0.38160 0.16230 0.09700
H 	H 	0.03730 0.36810 0.13820 0.00600
H 	H 	0.06390 0.39660 0.16140 0.01500
O 	O 	0.03060 0.36800 0.49660 -0.25900
H 	H 	0.01940 0.34620 0.49640 0.09700
C 	C 	0.57510 0.98090 0.71770 -0.04200
C 	C 	0.60610 0.94960 0.77910 -0.02500
C 	C 	0.54680 0.89360 0.90300 -0.16500
H 	H 	0.52660 0.87740 0.89670 0.06400
C 	C 	0.54830 0.90860 0.94050 0.31900
C 	C 	0.57740 0.93270 0.94890 -0.29900
H 	H 	0.57940 0.94320 0.97330 0.16800
C 	C 	0.60410 0.94170 0.92120 0.08500
H 	H 	0.62370 0.95890 0.92640 0.00300
C 	C 	0.60120 0.92460 0.88530 -0.05800
H 	H 	0.62000 0.92970 0.86710 0.03300
C 	C 	0.55180 0.87070 0.72940 0.02500
H 	H 	0.55430 0.89720 0.73130 0.02100
C 	C 	0.54050 0.85450 0.69560 -0.03500
C 	C 	0.53850 0.81580 0.69230 0.01300
H 	H 	0.53120 0.80480 0.66910 0.02500
C 	C 	0.54670 0.79400 0.72120 -0.11500
H 	H 	0.54500 0.76750 0.71900 0.07500
C 	C 	0.55800 0.81090 0.75570 0.07100
H 	H 	0.56460 0.79510 0.77610 -0.01500
C 	C 	0.51790 0.89670 0.97020 -0.83400
H 	H 	0.52010 0.86940 0.97490 0.40900
H 	H 	0.49250 0.90160 0.96010 -0.20500
C 	C 	0.52110 0.86920 0.65880 -0.00600
H 	H 	0.50040 0.85240 0.65080 0.05700
H 	H 	0.53930 0.87180 0.63800 0.00800
N 	N 	0.54910 0.97030 0.70060 -0.11000
N 	N 	0.59382 0.92340 0.79419 -0.23300
N 	N 	0.57240 0.90141 0.87620 -0.16900
N 	N 	0.55950 0.84830 0.76040 -0.22500
O 	O 	0.50690 0.90570 0.67130 -0.36100
H 	H 	0.49400 0.92370 0.67900 0.25600
O 	O 	0.52070 0.91890 0.00140 -1.41400
H 	H 	0.52900 0.93800 0.01400 0.53900
H 	H 	0.49550 0.88720 0.95670 0.35800
H 	H 	0.51010 0.91930 0.98450 1.14400
C 	C 	0.54060 0.88160 0.66230 0.09400
H 	H 	0.53730 0.86810 0.63820 0.00700
H 	H 	0.56390 0.89660 0.66140 0.01500
O 	O 	0.53060 0.86800 0.99660 -0.25500
H 	H 	0.51940 0.84620 0.99640 0.09800
C 	C 	0.28230 0.92490 0.98090 -0.04200
C 	C 	0.22090 0.89390 0.94960 -0.02500
C 	C 	0.09700 0.95320 0.89360 -0.15900
H 	H 	0.10330 0.97340 0.87740 0.06300
C 	C 	0.05950 0.95170 0.90860 0.30900
C 	C 	0.05110 0.92260 0.93270 -0.29100
H 	H 	0.02670 0.92060 0.94320 0.16300
C 	C 	0.07880 0.89590 0.94170 0.07900
H 	H 	0.07360 0.87630 0.95890 0.00400
C 	C 	0.11470 0.89880 0.92460 -0.05500
H 	H 	0.13290 0.88000 0.92970 0.03100
C 	C 	0.27060 0.94820 0.87070 0.02400
H 	H 	0.26870 0.94570 0.89720 0.02100
C 	C 	0.30440 0.95950 0.85450 -0.03400
C 	C 	0.30770 0.96150 0.81580 0.01200
H 	H 	0.33090 0.96880 0.80480 0.02600
C 	C 	0.27880 0.95330 0.79400 -0.11400
H 	H 	0.28100 0.95500 0.76750 0.07600
C 	C 	0.24430 0.94200 0.81090 0.07100
H 	H 	0.22390 0.93540 0.79510 -0.01400
C 	C 	0.02980 0.98210 0.89670 -0.80800
H 	H 	0.02510 0.97990 0.86940 0.40500
H 	H 	0.03990 0.00750 0.90160 -0.19800
C 	C 	0.34120 0.97890 0.86920 -0.00700
H 	H 	0.34920 0.99960 0.85240 0.05800
H 	H 	0.36200 0.96070 0.87180 0.00900
N 	N 	0.29940 0.95090 0.97030 -0.10900
N 	N 	0.20581 0.90618 0.92340 -0.23300
N 	N 	0.12380 0.92760 0.90141 -0.17100
N 	N 	0.23960 0.94050 0.84830 -0.22500
O 	O 	0.32870 0.99310 0.90570 -0.35500
H 	H 	0.32100 0.00600 0.92370 0.25100
O 	O 	0.99860 0.97930 0.91890 -1.37200
H 	H 	0.98600 0.97100 0.93800 0.52700
H 	H 	0.04330 0.00450 0.88720 0.34300
H 	H 	0.01550 0.98990 0.91930 1.10900
C 	C 	0.33770 0.95940 0.88160 0.09200
H 	H 	0.36180 0.96270 0.86810 0.00800
H 	H 	0.33860 0.93610 0.89660 0.01600
O 	O 	0.00340 0.96940 0.86800 -0.26500
H 	H 	0.00360 0.98060 0.84620 0.10200
C 	C 	0.78230 0.42490 0.48090 -0.04500
C 	C 	0.72090 0.39390 0.44960 -0.02700
C 	C 	0.59700 0.45320 0.39360 -0.16300
H 	H 	0.60330 0.47340 0.37740 0.06400
C 	C 	0.55950 0.45170 0.40860 0.31600
C 	C 	0.55110 0.42260 0.43270 -0.29700
H 	H 	0.52670 0.42060 0.44320 0.16600
C 	C 	0.57880 0.39590 0.44170 0.08300
H 	H 	0.57360 0.37630 0.45890 0.00200
C 	C 	0.61470 0.39880 0.42460 -0.05700
H 	H 	0.63290 0.38000 0.42970 0.03200
C 	C 	0.77060 0.44820 0.37070 0.02500
H 	H 	0.76870 0.44570 0.39720 0.02100
C 	C 	0.80440 0.45950 0.35450 -0.03500
C 	C 	0.80770 0.46150 0.31580 0.01300
H 	H 	0.83090 0.46880 0.30480 0.02500
C 	C 	0.77880 0.45330 0.29400 -0.11500
H 	H 	0.78100 0.45500 0.26750 0.07500
C 	C 	0.74430 0.44200 0.31090 0.07100
H 	H 	0.72390 0.43540 0.29510 -0.01500
C 	C 	0.52980 0.48210 0.39670 -0.82700
H 	H 	0.52510 0.47990 0.36940 0.40900
H 	H 	0.53990 0.50750 0.40160 -0.20000
C 	C 	0.84120 0.47890 0.36920 -0.00600
H 	H 	0.84920 0.49960 0.35240 0.05700
H 	H 	0.86200 0.46070 0.37180 0.00800
N 	N 	0.79940 0.45090 0.47030 -0.11000
N 	N 	0.70581 0.40618 0.42340 -0.23300
N 	N 	0.62380 0.42760 0.40141 -0.16900
N 	N 	0.73960 0.44050 0.34830 -0.22500
O 	O 	0.82870 0.49310 0.40570 -0.36100
H 	H 	0.82100 0.50600 0.42370 0.25600
O 	O 	0.49860 0.47930 0.41890 -1.39300
H 	H 	0.48600 0.47100 0.43800 0.53200
H 	H 	0.54330 0.50450 0.38720 0.35200
H 	H 	0.51550 0.48990 0.41930 1.12700
C 	C 	0.83770 0.45940 0.38160 0.09400
H 	H 	0.86180 0.46270 0.36810 0.00700
H 	H 	0.83860 0.43610 0.39660 0.01500
O 	O 	0.50340 0.46940 0.36800 -0.25900
H 	H 	0.50360 0.48060 0.34620 0.09900
C 	C 	0.71770 0.42490 0.51910 -0.04500
C 	C 	0.77910 0.39390 0.55040 -0.02700
C 	C 	0.90300 0.45320 0.60640 -0.16500
H 	H 	0.89670 0.47340 0.62260 0.06400
C 	C 	0.94050 0.45170 0.59140 0.31900
C 	C 	0.94890 0.42260 0.56730 -0.30000
H 	H 	0.97330 0.42060 0.55680 0.16800
C 	C 	0.92120 0.39590 0.55830 0.08500
H 	H 	0.92640 0.37630 0.54110 0.00200
C 	C 	0.88530 0.39880 0.57540 -0.05800
H 	H 	0.86710 0.38000 0.57030 0.03200
C 	C 	0.72940 0.44820 0.62930 0.02500
H 	H 	0.73130 0.44570 0.60280 0.02100
C 	C 	0.69560 0.45950 0.64550 -0.03500
C 	C 	0.69230 0.46150 0.68420 0.01300
H 	H 	0.66910 0.46880 0.69520 0.02500
C 	C 	0.72120 0.45330 0.70600 -0.11500
H 	H 	0.71900 0.45500 0.73250 0.07500
C 	C 	0.75570 0.44200 0.68910 0.07100
H 	H 	0.77610 0.43540 0.70490 -0.01500
C 	C 	0.97020 0.48210 0.60330 -0.83400
H 	H 	0.97490 0.47990 0.63060 0.40900
H 	H 	0.96010 0.50750 0.59840 -0.20500
C 	C 	0.65880 0.47890 0.63080 -0.00600
H 	H 	0.65080 0.49960 0.64760 0.05700
H 	H 	0.63800 0.46070 0.62820 0.00800
N 	N 	0.70060 0.45090 0.52970 -0.11000
N 	N 	0.79419 0.40618 0.57660 -0.23300
N 	N 	0.87620 0.42760 0.59859 -0.16900
N 	N 	0.76040 0.44050 0.65170 -0.22500
O 	O 	0.67130 0.49310 0.59430 -0.36100
H 	H 	0.67900 0.50600 0.57630 0.25600
O 	O 	0.00140 0.47930 0.58110 -1.41400
H 	H 	0.01400 0.47100 0.56200 0.53800
H 	H 	0.95670 0.50450 0.61280 0.35800
H 	H 	0.98450 0.48990 0.58070 1.14300
C 	C 	0.66230 0.45940 0.61840 0.09400
H 	H 	0.63820 0.46270 0.63190 0.00700
H 	H 	0.66140 0.43610 0.60340 0.01500
O 	O 	0.99660 0.46940 0.63200 -0.25500
H 	H 	0.99640 0.48060 0.65380 0.09800
C 	C 	0.21770 0.92490 0.01910 -0.04500
C 	C 	0.27910 0.89390 0.05040 -0.02700
C 	C 	0.40300 0.95320 0.10640 -0.16100
H 	H 	0.39670 0.97340 0.12260 0.06400
C 	C 	0.44050 0.95170 0.09140 0.31200
C 	C 	0.44890 0.92260 0.06730 -0.29400
H 	H 	0.47330 0.92060 0.05680 0.16500
C 	C 	0.42120 0.89590 0.05830 0.08200
H 	H 	0.42640 0.87630 0.04110 0.00200
C 	C 	0.38530 0.89880 0.07540 -0.05600
H 	H 	0.36710 0.88000 0.07030 0.03200
C 	C 	0.22940 0.94820 0.12930 0.02400
H 	H 	0.23130 0.94570 0.10280 0.02100
C 	C 	0.19560 0.95950 0.14550 -0.03400
C 	C 	0.19230 0.96150 0.18420 0.01200
H 	H 	0.16910 0.96880 0.19520 0.02600
C 	C 	0.22120 0.95330 0.20600 -0.11400
H 	H 	0.21900 0.95500 0.23250 0.07600
C 	C 	0.25570 0.94200 0.18910 0.07100
H 	H 	0.27610 0.93540 0.20490 -0.01400
C 	C 	0.47020 0.98210 0.10330 -0.81400
H 	H 	0.47490 0.97990 0.13060 0.40600
H 	H 	0.46010 0.00750 0.09840 -0.20300
C 	C 	0.15880 0.97890 0.13080 -0.00700
H 	H 	0.15080 0.99960 0.14760 0.05800
H 	H 	0.13800 0.96070 0.12820 0.00900
N 	N 	0.20060 0.95090 0.02970 -0.11000
N 	N 	0.29419 0.90618 0.07660 -0.23300
N 	N 	0.37620 0.92760 0.09859 -0.17000
N 	N 	0.26040 0.94050 0.15170 -0.22500
O 	O 	0.17130 0.99310 0.09430 -0.35500
H 	H 	0.17900 0.00600 0.07630 0.25000
O 	O 	0.50140 0.97930 0.08110 -1.39100
H 	H 	0.51400 0.97100 0.06200 0.53200
H 	H 	0.45670 0.00450 0.11280 0.34900
H 	H 	0.48450 0.98990 0.08070 1.12400
C 	C 	0.16230 0.95940 0.11840 0.09200
H 	H 	0.13820 0.96270 0.13190 0.00800
H 	H 	0.16140 0.93610 0.10340 0.01600
O 	O 	0.49660 0.96940 0.13200 -0.26000
H 	H 	0.49640 0.98060 0.15380 0.10100
C 	C 	0.78230 0.57510 0.01910 -0.04600
C 	C 	0.72090 0.60610 0.05040 -0.02700
C 	C 	0.59700 0.54680 0.10640 -0.16300
H 	H 	0.60330 0.52660 0.12260 0.06400
C 	C 	0.55950 0.54830 0.09140 0.31600
C 	C 	0.55110 0.57740 0.06730 -0.29800
H 	H 	0.52670 0.57940 0.05680 0.16600
C 	C 	0.57880 0.60410 0.05830 0.08400
H 	H 	0.57360 0.62370 0.04110 0.00200
C 	C 	0.61470 0.60120 0.07540 -0.05800
H 	H 	0.63290 0.62000 0.07030 0.03200
C 	C 	0.77060 0.55180 0.12930 0.02500
H 	H 	0.76870 0.55430 0.10280 0.02100
C 	C 	0.80440 0.54050 0.14550 -0.03500
C 	C 	0.80770 0.53850 0.18420 0.01300
H 	H 	0.83090 0.53120 0.19520 0.02500
C 	C 	0.77880 0.54670 0.20600 -0.11500
H 	H 	0.78100 0.54500 0.23250 0.07500
C 	C 	0.74430 0.55800 0.18910 0.07100
H 	H 	0.72390 0.56460 0.20490 -0.01500
C 	C 	0.52980 0.51790 0.10330 -0.82700
H 	H 	0.52510 0.52010 0.13060 0.40900
H 	H 	0.53990 0.49250 0.09840 -0.20000
C 	C 	0.84120 0.52110 0.13080 -0.00600
H 	H 	0.84920 0.50040 0.14760 0.05700
H 	H 	0.86200 0.53930 0.12820 0.00800
N 	N 	0.79940 0.54910 0.02970 -0.11000
N 	N 	0.70581 0.59382 0.07660 -0.23300
N 	N 	0.62380 0.57240 0.09859 -0.16900
N 	N 	0.73960 0.55950 0.15170 -0.22500
O 	O 	0.82870 0.50690 0.09430 -0.36100
H 	H 	0.82100 0.49400 0.07630 0.25500
O 	O 	0.49860 0.52070 0.08110 -1.39200
H 	H 	0.48600 0.52900 0.06200 0.53100
H 	H 	0.54330 0.49550 0.11280 0.35200
H 	H 	0.51550 0.51010 0.08070 1.12600
C 	C 	0.83770 0.54060 0.11840 0.09400
H 	H 	0.86180 0.53730 0.13190 0.00700
H 	H 	0.83860 0.56390 0.10340 0.01500
O 	O 	0.50340 0.53060 0.13200 -0.26000
H 	H 	0.50360 0.51940 0.15380 0.09900
C 	C 	0.28230 0.07510 0.51910 -0.04500
C 	C 	0.22090 0.10610 0.55040 -0.02700
C 	C 	0.09700 0.04680 0.60640 -0.16400
H 	H 	0.10330 0.02660 0.62260 0.06300
C 	C 	0.05950 0.04830 0.59140 0.31700
C 	C 	0.05110 0.07740 0.56730 -0.29800
H 	H 	0.02670 0.07940 0.55680 0.16500
C 	C 	0.07880 0.10410 0.55830 0.08400
H 	H 	0.07360 0.12370 0.54110 0.00200
C 	C 	0.11470 0.10120 0.57540 -0.05700
H 	H 	0.13290 0.12000 0.57030 0.03200
C 	C 	0.27060 0.05180 0.62930 0.02500
H 	H 	0.26870 0.05430 0.60280 0.02000
C 	C 	0.30440 0.04050 0.64550 -0.03700
C 	C 	0.30770 0.03850 0.68420 0.01400
H 	H 	0.33090 0.03120 0.69520 0.02500
C 	C 	0.27880 0.04670 0.70600 -0.11700
H 	H 	0.28100 0.04500 0.73250 0.07500
C 	C 	0.24430 0.05800 0.68910 0.07100
H 	H 	0.22390 0.06460 0.70490 -0.01500
C 	C 	0.02980 0.01790 0.60330 -0.83200
H 	H 	0.02510 0.02010 0.63060 0.41100
H 	H 	0.03990 0.99250 0.59840 -0.19300
C 	C 	0.34120 0.02110 0.63080 -0.00500
H 	H 	0.34920 0.00040 0.64760 0.05600
H 	H 	0.36200 0.03930 0.62820 0.00800
N 	N 	0.29940 0.04910 0.52970 -0.11000
N 	N 	0.20581 0.09382 0.57660 -0.23300
N 	N 	0.12380 0.07240 0.59859 -0.16900
N 	N 	0.23960 0.05950 0.65170 -0.22500
O 	O 	0.32870 0.00690 0.59430 -0.36700
H 	H 	0.32100 0.99400 0.57630 0.26100
O 	O 	0.99860 0.02070 0.58110 -1.37300
H 	H 	0.98600 0.02900 0.56200 0.52400
H 	H 	0.04330 0.99550 0.61280 0.35000
H 	H 	0.01550 0.01010 0.58070 1.11400
C 	C 	0.33770 0.04060 0.61840 0.09700
H 	H 	0.36180 0.03730 0.63190 0.00600
H 	H 	0.33860 0.06390 0.60340 0.01500
O 	O 	0.00340 0.03060 0.63200 -0.26300
H 	H 	0.00360 0.01940 0.65380 0.09800
C 	C 	0.21770 0.07510 0.48090 -0.04500
C 	C 	0.27910 0.10610 0.44960 -0.02700
C 	C 	0.40300 0.04680 0.39360 -0.16600
H 	H 	0.39670 0.02660 0.37740 0.06400
C 	C 	0.44050 0.04830 0.40860 0.32000
C 	C 	0.44890 0.07740 0.43270 -0.30000
H 	H 	0.47330 0.07940 0.44320 0.16700
C 	C 	0.42120 0.10410 0.44170 0.08600
H 	H 	0.42640 0.12370 0.45890 0.00200
C 	C 	0.38530 0.10120 0.42460 -0.05800
H 	H 	0.36710 0.12000 0.42970 0.03200
C 	C 	0.22940 0.05180 0.37070 0.02500
H 	H 	0.23130 0.05430 0.39720 0.02000
C 	C 	0.19560 0.04050 0.35450 -0.03700
C 	C 	0.19230 0.03850 0.31580 0.01400
H 	H 	0.16910 0.03120 0.30480 0.02500
C 	C 	0.22120 0.04670 0.29400 -0.11700
H 	H 	0.21900 0.04500 0.26750 0.07500
C 	C 	0.25570 0.05800 0.31090 0.07100
H 	H 	0.27610 0.06460 0.29510 -0.01500
C 	C 	0.47020 0.01790 0.39670 -0.83900
H 	H 	0.47490 0.02010 0.36940 0.41200
H 	H 	0.46010 0.99250 0.40160 -0.19800
C 	C 	0.15880 0.02110 0.36920 -0.00500
H 	H 	0.15080 0.00040 0.35240 0.05600
H 	H 	0.13800 0.03930 0.37180 0.00800
N 	N 	0.20060 0.04910 0.47030 -0.11000
N 	N 	0.29419 0.09382 0.42340 -0.23300
N 	N 	0.37620 0.07240 0.40141 -0.16900
N 	N 	0.26040 0.05950 0.34830 -0.22500
O 	O 	0.17130 0.00690 0.40570 -0.36700
H 	H 	0.17900 0.99400 0.42370 0.26100
O 	O 	0.50140 0.02070 0.41890 -1.39300
H 	H 	0.51400 0.02900 0.43800 0.53100
H 	H 	0.45670 0.99550 0.38720 0.35600
H 	H 	0.48450 0.01010 0.41930 1.13000
C 	C 	0.16230 0.04060 0.38160 0.09700
H 	H 	0.13820 0.03730 0.36810 0.00600
H 	H 	0.16140 0.06390 0.39660 0.01500
O 	O 	0.49660 0.03060 0.36800 -0.25900
H 	H 	0.49640 0.01940 0.34620 0.09700
C 	C 	0.71770 0.57510 0.98090 -0.04200
C 	C 	0.77910 0.60610 0.94960 -0.02500
C 	C 	0.90300 0.54680 0.89360 -0.16500
H 	H 	0.89670 0.52660 0.87740 0.06400
C 	C 	0.94050 0.54830 0.90860 0.31900
C 	C 	0.94890 0.57740 0.93270 -0.29900
H 	H 	0.97330 0.57940 0.94320 0.16800
C 	C 	0.92120 0.60410 0.94170 0.08500
H 	H 	0.92640 0.62370 0.95890 0.00300
C 	C 	0.88530 0.60120 0.92460 -0.05800
H 	H 	0.86710 0.62000 0.92970 0.03300
C 	C 	0.72940 0.55180 0.87070 0.02500
H 	H 	0.73130 0.55430 0.89720 0.02100
C 	C 	0.69560 0.54050 0.85450 -0.03500
C 	C 	0.69230 0.53850 0.81580 0.01300
H 	H 	0.66910 0.53120 0.80480 0.02500
C 	C 	0.72120 0.54670 0.79400 -0.11500
H 	H 	0.71900 0.54500 0.76750 0.07500
C 	C 	0.75570 0.55800 0.81090 0.07100
H 	H 	0.77610 0.56460 0.79510 -0.01500
C 	C 	0.97020 0.51790 0.89670 -0.83400
H 	H 	0.97490 0.52010 0.86940 0.40900
H 	H 	0.96010 0.49250 0.90160 -0.20500
C 	C 	0.65880 0.52110 0.86920 -0.00600
H 	H 	0.65080 0.50040 0.85240 0.05700
H 	H 	0.63800 0.53930 0.87180 0.00800
N 	N 	0.70060 0.54910 0.97030 -0.11000
N 	N 	0.79419 0.59382 0.92340 -0.23300
N 	N 	0.87620 0.57240 0.90141 -0.16900
N 	N 	0.76040 0.55950 0.84830 -0.22500
O 	O 	0.67130 0.50690 0.90570 -0.36100
H 	H 	0.67900 0.49400 0.92370 0.25600
O 	O 	0.00140 0.52070 0.91890 -1.41400
H 	H 	0.01400 0.52900 0.93800 0.53900
H 	H 	0.95670 0.49550 0.88720 0.35800
H 	H 	0.98450 0.51010 0.91930 1.14400
C 	C 	0.66230 0.54060 0.88160 0.09400
H 	H 	0.63820 0.53730 0.86810 0.00700
H 	H 	0.66140 0.56390 0.89660 0.01500
O 	O 	0.99660 0.53060 0.86800 -0.25500
H 	H 	0.99640 0.51940 0.84620 0.09800
C 	C 	0.53230 0.73090 0.82510 -0.04500
C 	C 	0.47090 0.69960 0.85610 -0.02700
C 	C 	0.34700 0.64360 0.79680 -0.16300
H 	H 	0.35330 0.62740 0.77660 0.06400
C 	C 	0.30950 0.65860 0.79830 0.31600
C 	C 	0.30110 0.68270 0.82740 -0.29700
H 	H 	0.27670 0.69320 0.82940 0.16600
C 	C 	0.32880 0.69170 0.85410 0.08300
H 	H 	0.32360 0.70890 0.87370 0.00200
C 	C 	0.36470 0.67460 0.85120 -0.05700
H 	H 	0.38290 0.67970 0.87000 0.03200
C 	C 	0.52060 0.62070 0.80180 0.02500
H 	H 	0.51870 0.64720 0.80430 0.02100
C 	C 	0.55440 0.60450 0.79050 -0.03500
C 	C 	0.55770 0.56580 0.78850 0.01300
H 	H 	0.58090 0.55480 0.78120 0.02500
C 	C 	0.52880 0.54400 0.79670 -0.11500
H 	H 	0.53100 0.51750 0.79500 0.07500
C 	C 	0.49430 0.56090 0.80800 0.07100
H 	H 	0.47390 0.54510 0.81460 -0.01500
C 	C 	0.27980 0.64670 0.76790 -0.82700
H 	H 	0.27510 0.61940 0.77010 0.40900
H 	H 	0.28990 0.65160 0.74250 -0.20000
C 	C 	0.59120 0.61920 0.77110 -0.00600
H 	H 	0.59920 0.60240 0.75040 0.05700
H 	H 	0.61200 0.62180 0.78930 0.00800
N 	N 	0.54940 0.72030 0.79910 -0.11000
N 	N 	0.45581 0.67340 0.84382 -0.23300
N 	N 	0.37380 0.65141 0.82240 -0.16900
N 	N 	0.48960 0.59830 0.80950 -0.22500
O 	O 	0.57870 0.65570 0.75690 -0.36100
H 	H 	0.57100 0.67370 0.74400 0.25600
O 	O 	0.24860 0.66890 0.77070 -1.39300
H 	H 	0.23600 0.68800 0.77900 0.53200
H 	H 	0.29330 0.63720 0.74550 0.35200
H 	H 	0.26550 0.66930 0.76010 1.12700
C 	C 	0.58770 0.63160 0.79060 0.09400
H 	H 	0.61180 0.61810 0.78730 0.00700
H 	H 	0.58860 0.64660 0.81390 0.01500
O 	O 	0.25340 0.61800 0.78060 -0.25900
H 	H 	0.25360 0.59620 0.76940 0.09900
C 	C 	0.03230 0.23090 0.32510 -0.04500
C 	C 	0.97090 0.19960 0.35610 -0.02400
C 	C 	0.84700 0.14360 0.29680 -0.16300
H 	H 	0.85330 0.12740 0.27660 0.06400
C 	C 	0.80950 0.15860 0.29830 0.31600
C 	C 	0.80110 0.18270 0.32740 -0.29700
H 	H 	0.77670 0.19320 0.32940 0.16600
C 	C 	0.82880 0.19170 0.35410 0.08300
H 	H 	0.82360 0.20890 0.37370 0.00200
C 	C 	0.86470 0.17460 0.35120 -0.05700
H 	H 	0.88290 0.17970 0.37000 0.03200
C 	C 	0.02060 0.12070 0.30180 0.02200
H 	H 	0.01870 0.14720 0.30430 0.02100
C 	C 	0.05440 0.10450 0.29050 -0.03700
C 	C 	0.05770 0.06580 0.28850 0.01800
H 	H 	0.08090 0.05480 0.28120 0.02300
C 	C 	0.02880 0.04400 0.29670 -0.12500
H 	H 	0.03100 0.01750 0.29500 0.07700
C 	C 	0.99430 0.06090 0.30800 0.07900
H 	H 	0.97390 0.04510 0.31460 -0.01700
C 	C 	0.77980 0.14670 0.26790 -0.82700
H 	H 	0.77510 0.11940 0.27010 0.40900
H 	H 	0.78990 0.15160 0.24250 -0.20000
C 	C 	0.09120 0.11920 0.27110 -0.00500
H 	H 	0.09920 0.10240 0.25040 0.05600
H 	H 	0.11200 0.12180 0.28930 0.00800
N 	N 	0.04940 0.22030 0.29910 -0.11000
N 	N 	0.95581 0.17340 0.34382 -0.23300
N 	N 	0.87380 0.15141 0.32240 -0.16900
N 	N 	0.98960 0.09830 0.30950 -0.22500
O 	O 	0.07870 0.15570 0.25690 -0.36100
H 	H 	0.07100 0.17370 0.24400 0.25500
O 	O 	0.74860 0.16890 0.27070 -1.39300
H 	H 	0.73600 0.18800 0.27900 0.53200
H 	H 	0.79330 0.13720 0.24550 0.35200
H 	H 	0.76550 0.16930 0.26010 1.12700
C 	C 	0.08770 0.13160 0.29060 0.09400
H 	H 	0.11180 0.11810 0.28730 0.00700
H 	H 	0.08860 0.14660 0.31390 0.01500
O 	O 	0.75340 0.11800 0.28060 -0.26000
H 	H 	0.75360 0.09620 0.26940 0.09900
C 	C 	0.96770 0.26910 0.32510 -0.04200
C 	C 	0.02910 0.30040 0.35610 -0.02700
C 	C 	0.15300 0.35640 0.29680 -0.16300
H 	H 	0.14670 0.37260 0.27660 0.06400
C 	C 	0.19050 0.34140 0.29830 0.31600
C 	C 	0.19890 0.31730 0.32740 -0.29700
H 	H 	0.22330 0.30680 0.32940 0.16600
C 	C 	0.17120 0.30830 0.35410 0.08400
H 	H 	0.17640 0.29110 0.37370 0.00200
C 	C 	0.13530 0.32540 0.35120 -0.05700
H 	H 	0.11710 0.32030 0.37000 0.03200
C 	C 	0.97940 0.37930 0.30180 0.02700
H 	H 	0.98130 0.35280 0.30430 0.02100
C 	C 	0.94560 0.39550 0.29050 -0.03300
C 	C 	0.94230 0.43420 0.28850 0.00800
H 	H 	0.91910 0.44520 0.28120 0.02700
C 	C 	0.97120 0.45600 0.29670 -0.10600
H 	H 	0.96900 0.48250 0.29500 0.07300
C 	C 	0.00570 0.43910 0.30800 0.06400
H 	H 	0.02610 0.45490 0.31460 -0.01200
C 	C 	0.22020 0.35330 0.26790 -0.82700
H 	H 	0.22490 0.38060 0.27010 0.40900
H 	H 	0.21010 0.34840 0.24250 -0.20000
C 	C 	0.90880 0.38080 0.27110 -0.00700
H 	H 	0.90080 0.39760 0.25040 0.05700
H 	H 	0.88800 0.37820 0.28930 0.00800
N 	N 	0.95060 0.27970 0.29910 -0.11000
N 	N 	0.04419 0.32660 0.34382 -0.23300
N 	N 	0.12620 0.34859 0.32240 -0.16900
N 	N 	0.01040 0.40170 0.30950 -0.22500
O 	O 	0.92130 0.34430 0.25690 -0.36100
H 	H 	0.92900 0.32630 0.24400 0.25600
O 	O 	0.25140 0.33110 0.27070 -1.39300
H 	H 	0.26400 0.31200 0.27900 0.53200
H 	H 	0.20670 0.36280 0.24550 0.35200
H 	H 	0.23450 0.33070 0.26010 1.12700
C 	C 	0.91230 0.36840 0.29060 0.09500
H 	H 	0.88820 0.38190 0.28730 0.00700
H 	H 	0.91140 0.35340 0.31390 0.01500
O 	O 	0.24660 0.38200 0.28060 -0.25900
H 	H 	0.24640 0.40380 0.26940 0.09900
C 	C 	0.46770 0.76910 0.82510 -0.04500
C 	C 	0.52910 0.80040 0.85610 -0.02700
C 	C 	0.65300 0.85640 0.79680 -0.16300
H 	H 	0.64670 0.87260 0.77660 0.06400
C 	C 	0.69050 0.84140 0.79830 0.31600
C 	C 	0.69890 0.81730 0.82740 -0.29700
H 	H 	0.72330 0.80680 0.82940 0.16600
C 	C 	0.67120 0.80830 0.85410 0.08300
H 	H 	0.67640 0.79110 0.87370 0.00200
C 	C 	0.63530 0.82540 0.85120 -0.05700
H 	H 	0.61710 0.82030 0.87000 0.03200
C 	C 	0.47940 0.87930 0.80180 0.02500
H 	H 	0.48130 0.85280 0.80430 0.02100
C 	C 	0.44560 0.89550 0.79050 -0.03500
C 	C 	0.44230 0.93420 0.78850 0.01300
H 	H 	0.41910 0.94520 0.78120 0.02600
C 	C 	0.47120 0.95600 0.79670 -0.11500
H 	H 	0.46900 0.98250 0.79500 0.07600
C 	C 	0.50570 0.93910 0.80800 0.07100
H 	H 	0.52610 0.95490 0.81460 -0.01400
C 	C 	0.72020 0.85330 0.76790 -0.82700
H 	H 	0.72490 0.88060 0.77010 0.40900
H 	H 	0.71010 0.84840 0.74250 -0.20000
C 	C 	0.40880 0.88080 0.77110 -0.00600
H 	H 	0.40080 0.89760 0.75040 0.05700
H 	H 	0.38800 0.87820 0.78930 0.00800
N 	N 	0.45060 0.77970 0.79910 -0.11000
N 	N 	0.54419 0.82660 0.84382 -0.23300
N 	N 	0.62620 0.84859 0.82240 -0.16900
N 	N 	0.51040 0.90170 0.80950 -0.22500
O 	O 	0.42130 0.84430 0.75690 -0.36100
H 	H 	0.42900 0.82630 0.74400 0.25600
O 	O 	0.75140 0.83110 0.77070 -1.39300
H 	H 	0.76400 0.81200 0.77900 0.53200
H 	H 	0.70670 0.86280 0.74550 0.35200
H 	H 	0.73450 0.83070 0.76010 1.12700
C 	C 	0.41230 0.86840 0.79060 0.09400
H 	H 	0.38820 0.88190 0.78730 0.00700
H 	H 	0.41140 0.85340 0.81390 0.01500
O 	O 	0.74660 0.88200 0.78060 -0.25900
H 	H 	0.74640 0.90380 0.76940 0.09900
C 	C 	0.03230 0.76910 0.17490 -0.04500
C 	C 	0.97090 0.80040 0.14390 -0.02400
C 	C 	0.84700 0.85640 0.20320 -0.16300
H 	H 	0.85330 0.87260 0.22340 0.06400
C 	C 	0.80950 0.84140 0.20170 0.31600
C 	C 	0.80110 0.81730 0.17260 -0.29700
H 	H 	0.77670 0.80680 0.17060 0.16600
C 	C 	0.82880 0.80830 0.14590 0.08300
H 	H 	0.82360 0.79110 0.12630 0.00200
C 	C 	0.86470 0.82540 0.14880 -0.05700
H 	H 	0.88290 0.82030 0.13000 0.03200
C 	C 	0.02060 0.87930 0.19820 0.02300
H 	H 	0.01870 0.85280 0.19570 0.02100
C 	C 	0.05440 0.89550 0.20950 -0.03700
C 	C 	0.05770 0.93420 0.21150 0.01800
H 	H 	0.08090 0.94520 0.21880 0.02400
C 	C 	0.02880 0.95600 0.20330 -0.12400
H 	H 	0.03100 0.98250 0.20500 0.07900
C 	C 	0.99430 0.93910 0.19200 0.07900
H 	H 	0.97390 0.95490 0.18540 -0.01600
C 	C 	0.77980 0.85330 0.23210 -0.82700
H 	H 	0.77510 0.88060 0.22990 0.40900
H 	H 	0.78990 0.84840 0.25750 -0.20000
C 	C 	0.09120 0.88080 0.22890 -0.00400
H 	H 	0.09920 0.89760 0.24960 0.05700
H 	H 	0.11200 0.87820 0.21070 0.00800
N 	N 	0.04940 0.77970 0.20090 -0.11000
N 	N 	0.95581 0.82660 0.15618 -0.23300
N 	N 	0.87380 0.84859 0.17760 -0.16900
N 	N 	0.98960 0.90170 0.19050 -0.22500
O 	O 	0.07870 0.84430 0.24310 -0.36100
H 	H 	0.07100 0.82630 0.25600 0.25500
O 	O 	0.74860 0.83110 0.22930 -1.39300
H 	H 	0.73600 0.81200 0.22100 0.53200
H 	H 	0.79330 0.86280 0.25450 0.35200
H 	H 	0.76550 0.83070 0.23990 1.12700
C 	C 	0.08770 0.86840 0.20940 0.09400
H 	H 	0.11180 0.88190 0.21270 0.00700
H 	H 	0.08860 0.85340 0.18610 0.01600
O 	O 	0.75340 0.88200 0.21940 -0.25900
H 	H 	0.75360 0.90380 0.23060 0.09900
C 	C 	0.53230 0.26910 0.67490 -0.04500
C 	C 	0.47090 0.30040 0.64390 -0.02700
C 	C 	0.34700 0.35640 0.70320 -0.16300
H 	H 	0.35330 0.37260 0.72340 0.06400
C 	C 	0.30950 0.34140 0.70170 0.31600
C 	C 	0.30110 0.31730 0.67260 -0.29700
H 	H 	0.27670 0.30680 0.67060 0.16600
C 	C 	0.32880 0.30830 0.64590 0.08300
H 	H 	0.32360 0.29110 0.62630 0.00200
C 	C 	0.36470 0.32540 0.64880 -0.05700
H 	H 	0.38290 0.32030 0.63000 0.03200
C 	C 	0.52060 0.37930 0.69820 0.02500
H 	H 	0.51870 0.35280 0.69570 0.02100
C 	C 	0.55440 0.39550 0.70950 -0.03500
C 	C 	0.55770 0.43420 0.71150 0.01300
H 	H 	0.58090 0.44520 0.71880 0.02500
C 	C 	0.52880 0.45600 0.70330 -0.11500
H 	H 	0.53100 0.48250 0.70500 0.07500
C 	C 	0.49430 0.43910 0.69200 0.07100
H 	H 	0.47390 0.45490 0.68540 -0.01500
C 	C 	0.27980 0.35330 0.73210 -0.82700
H 	H 	0.27510 0.38060 0.72990 0.40900
H 	H 	0.28990 0.34840 0.75750 -0.20000
C 	C 	0.59120 0.38080 0.72890 -0.00600
H 	H 	0.59920 0.39760 0.74960 0.05700
H 	H 	0.61200 0.37820 0.71070 0.00800
N 	N 	0.54940 0.27970 0.70090 -0.11000
N 	N 	0.45581 0.32660 0.65618 -0.23300
N 	N 	0.37380 0.34859 0.67760 -0.16900
N 	N 	0.48960 0.40170 0.69050 -0.22500
O 	O 	0.57870 0.34430 0.74310 -0.36100
H 	H 	0.57100 0.32630 0.75600 0.25600
O 	O 	0.24860 0.33110 0.72930 -1.39300
H 	H 	0.23600 0.31200 0.72100 0.53200
H 	H 	0.29330 0.36280 0.75450 0.35200
H 	H 	0.26550 0.33070 0.73990 1.12700
C 	C 	0.58770 0.36840 0.70940 0.09400
H 	H 	0.61180 0.38190 0.71270 0.00700
H 	H 	0.58860 0.35340 0.68610 0.01500
O 	O 	0.25340 0.38200 0.71940 -0.25900
H 	H 	0.25360 0.40380 0.73060 0.09900
C 	C 	0.46770 0.23090 0.67490 -0.04500
C 	C 	0.52910 0.19960 0.64390 -0.02700
C 	C 	0.65300 0.14360 0.70320 -0.16300
H 	H 	0.64670 0.12740 0.72340 0.06400
C 	C 	0.69050 0.15860 0.70170 0.31600
C 	C 	0.69890 0.18270 0.67260 -0.29700
H 	H 	0.72330 0.19320 0.67060 0.16600
C 	C 	0.67120 0.19170 0.64590 0.08400
H 	H 	0.67640 0.20890 0.62630 0.00200
C 	C 	0.63530 0.17460 0.64880 -0.05700
H 	H 	0.61710 0.17970 0.63000 0.03200
C 	C 	0.47940 0.12070 0.69820 0.02500
H 	H 	0.48130 0.14720 0.69570 0.02100
C 	C 	0.44560 0.10450 0.70950 -0.03500
C 	C 	0.44230 0.06580 0.71150 0.01300
H 	H 	0.41910 0.05480 0.71880 0.02500
C 	C 	0.47120 0.04400 0.70330 -0.11600
H 	H 	0.46900 0.01750 0.70500 0.07400
C 	C 	0.50570 0.06090 0.69200 0.07100
H 	H 	0.52610 0.04510 0.68540 -0.01500
C 	C 	0.72020 0.14670 0.73210 -0.82700
H 	H 	0.72490 0.11940 0.72990 0.40900
H 	H 	0.71010 0.15160 0.75750 -0.20000
C 	C 	0.40880 0.11920 0.72890 -0.00600
H 	H 	0.40080 0.10240 0.74960 0.05700
H 	H 	0.38800 0.12180 0.71070 0.00800
N 	N 	0.45060 0.22030 0.70090 -0.11000
N 	N 	0.54419 0.17340 0.65618 -0.23300
N 	N 	0.62620 0.15141 0.67760 -0.16900
N 	N 	0.51040 0.09830 0.69050 -0.22500
O 	O 	0.42130 0.15570 0.74310 -0.36100
H 	H 	0.42900 0.17370 0.75600 0.25600
O 	O 	0.75140 0.16890 0.72930 -1.39300
H 	H 	0.76400 0.18800 0.72100 0.53200
H 	H 	0.70670 0.13720 0.75450 0.35200
H 	H 	0.73450 0.16930 0.73990 1.12700
C 	C 	0.41230 0.13160 0.70940 0.09400
H 	H 	0.38820 0.11810 0.71270 0.00700
H 	H 	0.41140 0.14660 0.68610 0.01500
O 	O 	0.74660 0.11800 0.71940 -0.26000
H 	H 	0.74640 0.09620 0.73060 0.09900
C 	C 	0.96770 0.73090 0.17490 -0.04200
C 	C 	0.02910 0.69960 0.14390 -0.02700
C 	C 	0.15300 0.64360 0.20320 -0.16300
H 	H 	0.14670 0.62740 0.22340 0.06400
C 	C 	0.19050 0.65860 0.20170 0.31600
C 	C 	0.19890 0.68270 0.17260 -0.29700
H 	H 	0.22330 0.69320 0.17060 0.16600
C 	C 	0.17120 0.69170 0.14590 0.08300
H 	H 	0.17640 0.70890 0.12630 0.00200
C 	C 	0.13530 0.67460 0.14880 -0.05700
H 	H 	0.11710 0.67970 0.13000 0.03200
C 	C 	0.97940 0.62070 0.19820 0.02700
H 	H 	0.98130 0.64720 0.19570 0.02100
C 	C 	0.94560 0.60450 0.20950 -0.03300
C 	C 	0.94230 0.56580 0.21150 0.00800
H 	H 	0.91910 0.55480 0.21880 0.02700
C 	C 	0.97120 0.54400 0.20330 -0.10600
H 	H 	0.96900 0.51750 0.20500 0.07300
C 	C 	0.00570 0.56090 0.19200 0.06400
H 	H 	0.02610 0.54510 0.18540 -0.01200
C 	C 	0.22020 0.64670 0.23210 -0.82700
H 	H 	0.22490 0.61940 0.22990 0.40900
H 	H 	0.21010 0.65160 0.25750 -0.20000
C 	C 	0.90880 0.61920 0.22890 -0.00700
H 	H 	0.90080 0.60240 0.24960 0.05700
H 	H 	0.88800 0.62180 0.21070 0.00800
N 	N 	0.95060 0.72030 0.20090 -0.11000
N 	N 	0.04419 0.67340 0.15618 -0.23300
N 	N 	0.12620 0.65141 0.17760 -0.16900
N 	N 	0.01040 0.59830 0.19050 -0.22500
O 	O 	0.92130 0.65570 0.24310 -0.36100
H 	H 	0.92900 0.67370 0.25600 0.25600
O 	O 	0.25140 0.66890 0.22930 -1.39300
H 	H 	0.26400 0.68800 0.22100 0.53200
H 	H 	0.20670 0.63720 0.25450 0.35200
H 	H 	0.23450 0.66930 0.23990 1.12700
C 	C 	0.91230 0.63160 0.20940 0.09500
H 	H 	0.88820 0.61810 0.21270 0.00700
H 	H 	0.91140 0.64660 0.18610 0.01500
O 	O 	0.24660 0.61800 0.21940 -0.26000
H 	H 	0.24640 0.59620 0.23060 0.09900
C 	C 	0.23090 0.67490 0.46770 -0.04500
C 	C 	0.19960 0.64390 0.52910 -0.02700
C 	C 	0.14360 0.70320 0.65300 -0.16300
H 	H 	0.12740 0.72340 0.64670 0.06400
C 	C 	0.15860 0.70170 0.69050 0.31600
C 	C 	0.18270 0.67260 0.69890 -0.29700
H 	H 	0.19320 0.67060 0.72330 0.16600
C 	C 	0.19170 0.64590 0.67120 0.08400
H 	H 	0.20890 0.62630 0.67640 0.00200
C 	C 	0.17460 0.64880 0.63530 -0.05700
H 	H 	0.17970 0.63000 0.61710 0.03200
C 	C 	0.12070 0.69820 0.47940 0.02500
H 	H 	0.14720 0.69570 0.48130 0.02100
C 	C 	0.10450 0.70950 0.44560 -0.03500
C 	C 	0.06580 0.71150 0.44230 0.01300
H 	H 	0.05480 0.71880 0.41910 0.02500
C 	C 	0.04400 0.70330 0.47120 -0.11600
H 	H 	0.01750 0.70500 0.46900 0.07400
C 	C 	0.06090 0.69200 0.50570 0.07100
H 	H 	0.04510 0.68540 0.52610 -0.01500
C 	C 	0.14670 0.73210 0.72020 -0.82700
H 	H 	0.11940 0.72990 0.72490 0.40900
H 	H 	0.15160 0.75750 0.71010 -0.20000
C 	C 	0.11920 0.72890 0.40880 -0.00600
H 	H 	0.10240 0.74960 0.40080 0.05700
H 	H 	0.12180 0.71070 0.38800 0.00800
N 	N 	0.22030 0.70090 0.45060 -0.11000
N 	N 	0.17340 0.65618 0.54419 -0.23300
N 	N 	0.15141 0.67760 0.62620 -0.16900
N 	N 	0.09830 0.69050 0.51040 -0.22500
O 	O 	0.15570 0.74310 0.42130 -0.36100
H 	H 	0.17370 0.75600 0.42900 0.25600
O 	O 	0.16890 0.72930 0.75140 -1.39300
H 	H 	0.18800 0.72100 0.76400 0.53200
H 	H 	0.13720 0.75450 0.70670 0.35200
H 	H 	0.16930 0.73990 0.73450 1.12700
C 	C 	0.13160 0.70940 0.41230 0.09400
H 	H 	0.11810 0.71270 0.38820 0.00700
H 	H 	0.14660 0.68610 0.41140 0.01500
O 	O 	0.11800 0.71940 0.74660 -0.26000
H 	H 	0.09620 0.73060 0.74640 0.09900
C 	C 	0.73090 0.17490 0.96770 -0.04200
C 	C 	0.69960 0.14390 0.02910 -0.02700
C 	C 	0.64360 0.20320 0.15300 -0.16300
H 	H 	0.62740 0.22340 0.14670 0.06400
C 	C 	0.65860 0.20170 0.19050 0.31600
C 	C 	0.68270 0.17260 0.19890 -0.29700
H 	H 	0.69320 0.17060 0.22330 0.16600
C 	C 	0.69170 0.14590 0.17120 0.08300
H 	H 	0.70890 0.12630 0.17640 0.00200
C 	C 	0.67460 0.14880 0.13530 -0.05700
H 	H 	0.67970 0.13000 0.11710 0.03200
C 	C 	0.62070 0.19820 0.97940 0.02700
H 	H 	0.64720 0.19570 0.98130 0.02100
C 	C 	0.60450 0.20950 0.94560 -0.03300
C 	C 	0.56580 0.21150 0.94230 0.00800
H 	H 	0.55480 0.21880 0.91910 0.02700
C 	C 	0.54400 0.20330 0.97120 -0.10600
H 	H 	0.51750 0.20500 0.96900 0.07300
C 	C 	0.56090 0.19200 0.00570 0.06400
H 	H 	0.54510 0.18540 0.02610 -0.01200
C 	C 	0.64670 0.23210 0.22020 -0.82700
H 	H 	0.61940 0.22990 0.22490 0.40900
H 	H 	0.65160 0.25750 0.21010 -0.20000
C 	C 	0.61920 0.22890 0.90880 -0.00700
H 	H 	0.60240 0.24960 0.90080 0.05700
H 	H 	0.62180 0.21070 0.88800 0.00800
N 	N 	0.72030 0.20090 0.95060 -0.11000
N 	N 	0.67340 0.15618 0.04419 -0.23300
N 	N 	0.65141 0.17760 0.12620 -0.16900
N 	N 	0.59830 0.19050 0.01040 -0.22500
O 	O 	0.65570 0.24310 0.92130 -0.36100
H 	H 	0.67370 0.25600 0.92900 0.25600
O 	O 	0.66890 0.22930 0.25140 -1.39300
H 	H 	0.68800 0.22100 0.26400 0.53200
H 	H 	0.63720 0.25450 0.20670 0.35200
H 	H 	0.66930 0.23990 0.23450 1.12700
C 	C 	0.63160 0.20940 0.91230 0.09500
H 	H 	0.61810 0.21270 0.88820 0.00700
H 	H 	0.64660 0.18610 0.91140 0.01500
O 	O 	0.61800 0.21940 0.24660 -0.26000
H 	H 	0.59620 0.23060 0.24640 0.09900
C 	C 	0.76910 0.17490 0.03230 -0.04500
C 	C 	0.80040 0.14390 0.97090 -0.02400
C 	C 	0.85640 0.20320 0.84700 -0.16300
H 	H 	0.87260 0.22340 0.85330 0.06400
C 	C 	0.84140 0.20170 0.80950 0.31600
C 	C 	0.81730 0.17260 0.80110 -0.29700
H 	H 	0.80680 0.17060 0.77670 0.16600
C 	C 	0.80830 0.14590 0.82880 0.08300
H 	H 	0.79110 0.12630 0.82360 0.00200
C 	C 	0.82540 0.14880 0.86470 -0.05700
H 	H 	0.82030 0.13000 0.88290 0.03200
C 	C 	0.87930 0.19820 0.02060 0.02300
H 	H 	0.85280 0.19570 0.01870 0.02100
C 	C 	0.89550 0.20950 0.05440 -0.03700
C 	C 	0.93420 0.21150 0.05770 0.01800
H 	H 	0.94520 0.21880 0.08090 0.02400
C 	C 	0.95600 0.20330 0.02880 -0.12400
H 	H 	0.98250 0.20500 0.03100 0.07900
C 	C 	0.93910 0.19200 0.99430 0.07900
H 	H 	0.95490 0.18540 0.97390 -0.01600
C 	C 	0.85330 0.23210 0.77980 -0.82700
H 	H 	0.88060 0.22990 0.77510 0.40900
H 	H 	0.84840 0.25750 0.78990 -0.20000
C 	C 	0.88080 0.22890 0.09120 -0.00400
H 	H 	0.89760 0.24960 0.09920 0.05700
H 	H 	0.87820 0.21070 0.11200 0.00800
N 	N 	0.77970 0.20090 0.04940 -0.11000
N 	N 	0.82660 0.15618 0.95581 -0.23300
N 	N 	0.84859 0.17760 0.87380 -0.16900
N 	N 	0.90170 0.19050 0.98960 -0.22500
O 	O 	0.84430 0.24310 0.07870 -0.36100
H 	H 	0.82630 0.25600 0.07100 0.25500
O 	O 	0.83110 0.22930 0.74860 -1.39300
H 	H 	0.81200 0.22100 0.73600 0.53200
H 	H 	0.86280 0.25450 0.79330 0.35200
H 	H 	0.83070 0.23990 0.76550 1.12700
C 	C 	0.86840 0.20940 0.08770 0.09400
H 	H 	0.88190 0.21270 0.11180 0.00700
H 	H 	0.85340 0.18610 0.08860 0.01600
O 	O 	0.88200 0.21940 0.75340 -0.25900
H 	H 	0.90380 0.23060 0.75360 0.09900
C 	C 	0.26910 0.67490 0.53230 -0.04500
C 	C 	0.30040 0.64390 0.47090 -0.02700
C 	C 	0.35640 0.70320 0.34700 -0.16300
H 	H 	0.37260 0.72340 0.35330 0.06400
C 	C 	0.34140 0.70170 0.30950 0.31600
C 	C 	0.31730 0.67260 0.30110 -0.29700
H 	H 	0.30680 0.67060 0.27670 0.16600
C 	C 	0.30830 0.64590 0.32880 0.08300
H 	H 	0.29110 0.62630 0.32360 0.00200
C 	C 	0.32540 0.64880 0.36470 -0.05700
H 	H 	0.32030 0.63000 0.38290 0.03200
C 	C 	0.37930 0.69820 0.52060 0.02500
H 	H 	0.35280 0.69570 0.51870 0.02100
C 	C 	0.39550 0.70950 0.55440 -0.03500
C 	C 	0.43420 0.71150 0.55770 0.01300
H 	H 	0.44520 0.71880 0.58090 0.02500
C 	C 	0.45600 0.70330 0.52880 -0.11500
H 	H 	0.48250 0.70500 0.53100 0.07500
C 	C 	0.43910 0.69200 0.49430 0.07100
H 	H 	0.45490 0.68540 0.47390 -0.01500
C 	C 	0.35330 0.73210 0.27980 -0.82700
H 	H 	0.38060 0.72990 0.27510 0.40900
H 	H 	0.34840 0.75750 0.28990 -0.20000
C 	C 	0.38080 0.72890 0.59120 -0.00600
H 	H 	0.39760 0.74960 0.59920 0.05700
H 	H 	0.37820 0.71070 0.61200 0.00800
N 	N 	0.27970 0.70090 0.54940 -0.11000
N 	N 	0.32660 0.65618 0.45581 -0.23300
N 	N 	0.34859 0.67760 0.37380 -0.16900
N 	N 	0.40170 0.69050 0.48960 -0.22500
O 	O 	0.34430 0.74310 0.57870 -0.36100
H 	H 	0.32630 0.75600 0.57100 0.25600
O 	O 	0.33110 0.72930 0.24860 -1.39300
H 	H 	0.31200 0.72100 0.23600 0.53200
H 	H 	0.36280 0.75450 0.29330 0.35200
H 	H 	0.33070 0.73990 0.26550 1.12700
C 	C 	0.36840 0.70940 0.58770 0.09400
H 	H 	0.38190 0.71270 0.61180 0.00700
H 	H 	0.35340 0.68610 0.58860 0.01500
O 	O 	0.38200 0.71940 0.25340 -0.25900
H 	H 	0.40380 0.73060 0.25360 0.09900
C 	C 	0.26910 0.32510 0.96770 -0.04200
C 	C 	0.30040 0.35610 0.02910 -0.02700
C 	C 	0.35640 0.29680 0.15300 -0.16300
H 	H 	0.37260 0.27660 0.14670 0.06400
C 	C 	0.34140 0.29830 0.19050 0.31600
C 	C 	0.31730 0.32740 0.19890 -0.29700
H 	H 	0.30680 0.32940 0.22330 0.16600
C 	C 	0.30830 0.35410 0.17120 0.08400
H 	H 	0.29110 0.37370 0.17640 0.00200
C 	C 	0.32540 0.35120 0.13530 -0.05700
H 	H 	0.32030 0.37000 0.11710 0.03200
C 	C 	0.37930 0.30180 0.97940 0.02700
H 	H 	0.35280 0.30430 0.98130 0.02100
C 	C 	0.39550 0.29050 0.94560 -0.03300
C 	C 	0.43420 0.28850 0.94230 0.00800
H 	H 	0.44520 0.28120 0.91910 0.02700
C 	C 	0.45600 0.29670 0.97120 -0.10600
H 	H 	0.48250 0.29500 0.96900 0.07300
C 	C 	0.43910 0.30800 0.00570 0.06400
H 	H 	0.45490 0.31460 0.02610 -0.01200
C 	C 	0.35330 0.26790 0.22020 -0.82700
H 	H 	0.38060 0.27010 0.22490 0.40900
H 	H 	0.34840 0.24250 0.21010 -0.20000
C 	C 	0.38080 0.27110 0.90880 -0.00700
H 	H 	0.39760 0.25040 0.90080 0.05700
H 	H 	0.37820 0.28930 0.88800 0.00800
N 	N 	0.27970 0.29910 0.95060 -0.11000
N 	N 	0.32660 0.34382 0.04419 -0.23300
N 	N 	0.34859 0.32240 0.12620 -0.16900
N 	N 	0.40170 0.30950 0.01040 -0.22500
O 	O 	0.34430 0.25690 0.92130 -0.36100
H 	H 	0.32630 0.24400 0.92900 0.25600
O 	O 	0.33110 0.27070 0.25140 -1.39300
H 	H 	0.31200 0.27900 0.26400 0.53200
H 	H 	0.36280 0.24550 0.20670 0.35200
H 	H 	0.33070 0.26010 0.23450 1.12700
C 	C 	0.36840 0.29060 0.91230 0.09500
H 	H 	0.38190 0.28730 0.88820 0.00700
H 	H 	0.35340 0.31390 0.91140 0.01500
O 	O 	0.38200 0.28060 0.24660 -0.25900
H 	H 	0.40380 0.26940 0.24640 0.09900
C 	C 	0.76910 0.82510 0.46770 -0.04500
C 	C 	0.80040 0.85610 0.52910 -0.02700
C 	C 	0.85640 0.79680 0.65300 -0.16300
H 	H 	0.87260 0.77660 0.64670 0.06400
C 	C 	0.84140 0.79830 0.69050 0.31600
C 	C 	0.81730 0.82740 0.69890 -0.29700
H 	H 	0.80680 0.82940 0.72330 0.16600
C 	C 	0.80830 0.85410 0.67120 0.08300
H 	H 	0.79110 0.87370 0.67640 0.00200
C 	C 	0.82540 0.85120 0.63530 -0.05700
H 	H 	0.82030 0.87000 0.61710 0.03200
C 	C 	0.87930 0.80180 0.47940 0.02500
H 	H 	0.85280 0.80430 0.48130 0.02100
C 	C 	0.89550 0.79050 0.44560 -0.03500
C 	C 	0.93420 0.78850 0.44230 0.01300
H 	H 	0.94520 0.78120 0.41910 0.02600
C 	C 	0.95600 0.79670 0.47120 -0.11500
H 	H 	0.98250 0.79500 0.46900 0.07600
C 	C 	0.93910 0.80800 0.50570 0.07100
H 	H 	0.95490 0.81460 0.52610 -0.01400
C 	C 	0.85330 0.76790 0.72020 -0.82700
H 	H 	0.88060 0.77010 0.72490 0.40900
H 	H 	0.84840 0.74250 0.71010 -0.20000
C 	C 	0.88080 0.77110 0.40880 -0.00600
H 	H 	0.89760 0.75040 0.40080 0.05700
H 	H 	0.87820 0.78930 0.38800 0.00800
N 	N 	0.77970 0.79910 0.45060 -0.11000
N 	N 	0.82660 0.84382 0.54419 -0.23300
N 	N 	0.84859 0.82240 0.62620 -0.16900
N 	N 	0.90170 0.80950 0.51040 -0.22500
O 	O 	0.84430 0.75690 0.42130 -0.36100
H 	H 	0.82630 0.74400 0.42900 0.25600
O 	O 	0.83110 0.77070 0.75140 -1.39300
H 	H 	0.81200 0.77900 0.76400 0.53200
H 	H 	0.86280 0.74550 0.70670 0.35200
H 	H 	0.83070 0.76010 0.73450 1.12700
C 	C 	0.86840 0.79060 0.41230 0.09400
H 	H 	0.88190 0.78730 0.38820 0.00700
H 	H 	0.85340 0.81390 0.41140 0.01500
O 	O 	0.88200 0.78060 0.74660 -0.25900
H 	H 	0.90380 0.76940 0.74640 0.09900
C 	C 	0.73090 0.82510 0.53230 -0.04500
C 	C 	0.69960 0.85610 0.47090 -0.02700
C 	C 	0.64360 0.79680 0.34700 -0.16300
H 	H 	0.62740 0.77660 0.35330 0.06400
C 	C 	0.65860 0.79830 0.30950 0.31600
C 	C 	0.68270 0.82740 0.30110 -0.29700
H 	H 	0.69320 0.82940 0.27670 0.16600
C 	C 	0.69170 0.85410 0.32880 0.08300
H 	H 	0.70890 0.87370 0.32360 0.00200
C 	C 	0.67460 0.85120 0.36470 -0.05700
H 	H 	0.67970 0.87000 0.38290 0.03200
C 	C 	0.62070 0.80180 0.52060 0.02500
H 	H 	0.64720 0.80430 0.51870 0.02100
C 	C 	0.60450 0.79050 0.55440 -0.03500
C 	C 	0.56580 0.78850 0.55770 0.01300
H 	H 	0.55480 0.78120 0.58090 0.02500
C 	C 	0.54400 0.79670 0.52880 -0.11500
H 	H 	0.51750 0.79500 0.53100 0.07500
C 	C 	0.56090 0.80800 0.49430 0.07100
H 	H 	0.54510 0.81460 0.47390 -0.01500
C 	C 	0.64670 0.76790 0.27980 -0.82700
H 	H 	0.61940 0.77010 0.27510 0.40900
H 	H 	0.65160 0.74250 0.28990 -0.20000
C 	C 	0.61920 0.77110 0.59120 -0.00600
H 	H 	0.60240 0.75040 0.59920 0.05700
H 	H 	0.62180 0.78930 0.61200 0.00800
N 	N 	0.72030 0.79910 0.54940 -0.11000
N 	N 	0.67340 0.84382 0.45581 -0.23300
N 	N 	0.65141 0.82240 0.37380 -0.16900
N 	N 	0.59830 0.80950 0.48960 -0.22500
O 	O 	0.65570 0.75690 0.57870 -0.36100
H 	H 	0.67370 0.74400 0.57100 0.25600
O 	O 	0.66890 0.77070 0.24860 -1.39300
H 	H 	0.68800 0.77900 0.23600 0.53200
H 	H 	0.63720 0.74550 0.29330 0.35200
H 	H 	0.66930 0.76010 0.26550 1.12700
C 	C 	0.63160 0.79060 0.58770 0.09400
H 	H 	0.61810 0.78730 0.61180 0.00700
H 	H 	0.64660 0.81390 0.58860 0.01500
O 	O 	0.61800 0.78060 0.25340 -0.25900
H 	H 	0.59620 0.76940 0.25360 0.09900
C 	C 	0.23090 0.32510 0.03230 -0.04500
C 	C 	0.19960 0.35610 0.97090 -0.02400
C 	C 	0.14360 0.29680 0.84700 -0.16300
H 	H 	0.12740 0.27660 0.85330 0.06400
C 	C 	0.15860 0.29830 0.80950 0.31600
C 	C 	0.18270 0.32740 0.80110 -0.29700
H 	H 	0.19320 0.32940 0.77670 0.16600
C 	C 	0.19170 0.35410 0.82880 0.08300
H 	H 	0.20890 0.37370 0.82360 0.00200
C 	C 	0.17460 0.35120 0.86470 -0.05700
H 	H 	0.17970 0.37000 0.88290 0.03200
C 	C 	0.12070 0.30180 0.02060 0.02200
H 	H 	0.14720 0.30430 0.01870 0.02100
C 	C 	0.10450 0.29050 0.05440 -0.03700
C 	C 	0.06580 0.28850 0.05770 0.01800
H 	H 	0.05480 0.28120 0.08090 0.02300
C 	C 	0.04400 0.29670 0.02880 -0.12500
H 	H 	0.01750 0.29500 0.03100 0.07700
C 	C 	0.06090 0.30800 0.99430 0.07900
H 	H 	0.04510 0.31460 0.97390 -0.01700
C 	C 	0.14670 0.26790 0.77980 -0.82700
H 	H 	0.11940 0.27010 0.77510 0.40900
H 	H 	0.15160 0.24250 0.78990 -0.20000
C 	C 	0.11920 0.27110 0.09120 -0.00500
H 	H 	0.10240 0.25040 0.09920 0.05600
H 	H 	0.12180 0.28930 0.11200 0.00800
N 	N 	0.22030 0.29910 0.04940 -0.11000
N 	N 	0.17340 0.34382 0.95581 -0.23300
N 	N 	0.15141 0.32240 0.87380 -0.16900
N 	N 	0.09830 0.30950 0.98960 -0.22500
O 	O 	0.15570 0.25690 0.07870 -0.36100
H 	H 	0.17370 0.24400 0.07100 0.25500
O 	O 	0.16890 0.27070 0.74860 -1.39300
H 	H 	0.18800 0.27900 0.73600 0.53200
H 	H 	0.13720 0.24550 0.79330 0.35200
H 	H 	0.16930 0.26010 0.76550 1.12700
C 	C 	0.13160 0.29060 0.08770 0.09400
H 	H 	0.11810 0.28730 0.11180 0.00700
H 	H 	0.14660 0.31390 0.08860 0.01500
O 	O 	0.11800 0.28060 0.75340 -0.26000
H 	H 	0.09620 0.26940 0.75360 0.09900
C 	C 	0.17490 0.03230 0.76910 -0.04500
C 	C 	0.14390 0.97090 0.80040 -0.02400
C 	C 	0.20320 0.84700 0.85640 -0.16300
H 	H 	0.22340 0.85330 0.87260 0.06400
C 	C 	0.20170 0.80950 0.84140 0.31600
C 	C 	0.17260 0.80110 0.81730 -0.29700
H 	H 	0.17060 0.77670 0.80680 0.16600
C 	C 	0.14590 0.82880 0.80830 0.08300
H 	H 	0.12630 0.82360 0.79110 0.00200
C 	C 	0.14880 0.86470 0.82540 -0.05700
H 	H 	0.13000 0.88290 0.82030 0.03200
C 	C 	0.19820 0.02060 0.87930 0.02300
H 	H 	0.19570 0.01870 0.85280 0.02100
C 	C 	0.20950 0.05440 0.89550 -0.03700
C 	C 	0.21150 0.05770 0.93420 0.01800
H 	H 	0.21880 0.08090 0.94520 0.02400
C 	C 	0.20330 0.02880 0.95600 -0.12400
H 	H 	0.20500 0.03100 0.98250 0.07900
C 	C 	0.19200 0.99430 0.93910 0.07900
H 	H 	0.18540 0.97390 0.95490 -0.01600
C 	C 	0.23210 0.77980 0.85330 -0.82700
H 	H 	0.22990 0.77510 0.88060 0.40900
H 	H 	0.25750 0.78990 0.84840 -0.20000
C 	C 	0.22890 0.09120 0.88080 -0.00400
H 	H 	0.24960 0.09920 0.89760 0.05700
H 	H 	0.21070 0.11200 0.87820 0.00800
N 	N 	0.20090 0.04940 0.77970 -0.11000
N 	N 	0.15618 0.95581 0.82660 -0.23300
N 	N 	0.17760 0.87380 0.84859 -0.16900
N 	N 	0.19050 0.98960 0.90170 -0.22500
O 	O 	0.24310 0.07870 0.84430 -0.36100
H 	H 	0.25600 0.07100 0.82630 0.25500
O 	O 	0.22930 0.74860 0.83110 -1.39300
H 	H 	0.22100 0.73600 0.81200 0.53200
H 	H 	0.25450 0.79330 0.86280 0.35200
H 	H 	0.23990 0.76550 0.83070 1.12700
C 	C 	0.20940 0.08770 0.86840 0.09400
H 	H 	0.21270 0.11180 0.88190 0.00700
H 	H 	0.18610 0.08860 0.85340 0.01600
O 	O 	0.21940 0.75340 0.88200 -0.25900
H 	H 	0.23060 0.75360 0.90380 0.09900
C 	C 	0.67490 0.53230 0.26910 -0.04500
C 	C 	0.64390 0.47090 0.30040 -0.02700
C 	C 	0.70320 0.34700 0.35640 -0.16300
H 	H 	0.72340 0.35330 0.37260 0.06400
C 	C 	0.70170 0.30950 0.34140 0.31600
C 	C 	0.67260 0.30110 0.31730 -0.29700
H 	H 	0.67060 0.27670 0.30680 0.16600
C 	C 	0.64590 0.32880 0.30830 0.08300
H 	H 	0.62630 0.32360 0.29110 0.00200
C 	C 	0.64880 0.36470 0.32540 -0.05700
H 	H 	0.63000 0.38290 0.32030 0.03200
C 	C 	0.69820 0.52060 0.37930 0.02500
H 	H 	0.69570 0.51870 0.35280 0.02100
C 	C 	0.70950 0.55440 0.39550 -0.03500
C 	C 	0.71150 0.55770 0.43420 0.01300
H 	H 	0.71880 0.58090 0.44520 0.02500
C 	C 	0.70330 0.52880 0.45600 -0.11500
H 	H 	0.70500 0.53100 0.48250 0.07500
C 	C 	0.69200 0.49430 0.43910 0.07100
H 	H 	0.68540 0.47390 0.45490 -0.01500
C 	C 	0.73210 0.27980 0.35330 -0.82700
H 	H 	0.72990 0.27510 0.38060 0.40900
H 	H 	0.75750 0.28990 0.34840 -0.20000
C 	C 	0.72890 0.59120 0.38080 -0.00600
H 	H 	0.74960 0.59920 0.39760 0.05700
H 	H 	0.71070 0.61200 0.37820 0.00800
N 	N 	0.70090 0.54940 0.27970 -0.11000
N 	N 	0.65618 0.45581 0.32660 -0.23300
N 	N 	0.67760 0.37380 0.34859 -0.16900
N 	N 	0.69050 0.48960 0.40170 -0.22500
O 	O 	0.74310 0.57870 0.34430 -0.36100
H 	H 	0.75600 0.57100 0.32630 0.25600
O 	O 	0.72930 0.24860 0.33110 -1.39300
H 	H 	0.72100 0.23600 0.31200 0.53200
H 	H 	0.75450 0.29330 0.36280 0.35200
H 	H 	0.73990 0.26550 0.33070 1.12700
C 	C 	0.70940 0.58770 0.36840 0.09400
H 	H 	0.71270 0.61180 0.38190 0.00700
H 	H 	0.68610 0.58860 0.35340 0.01500
O 	O 	0.71940 0.25340 0.38200 -0.25900
H 	H 	0.73060 0.25360 0.40380 0.09900
C 	C 	0.67490 0.46770 0.23090 -0.04500
C 	C 	0.64390 0.52910 0.19960 -0.02700
C 	C 	0.70320 0.65300 0.14360 -0.16300
H 	H 	0.72340 0.64670 0.12740 0.06400
C 	C 	0.70170 0.69050 0.15860 0.31600
C 	C 	0.67260 0.69890 0.18270 -0.29700
H 	H 	0.67060 0.72330 0.19320 0.16600
C 	C 	0.64590 0.67120 0.19170 0.08400
H 	H 	0.62630 0.67640 0.20890 0.00200
C 	C 	0.64880 0.63530 0.17460 -0.05700
H 	H 	0.63000 0.61710 0.17970 0.03200
C 	C 	0.69820 0.47940 0.12070 0.02500
H 	H 	0.69570 0.48130 0.14720 0.02100
C 	C 	0.70950 0.44560 0.10450 -0.03500
C 	C 	0.71150 0.44230 0.06580 0.01300
H 	H 	0.71880 0.41910 0.05480 0.02500
C 	C 	0.70330 0.47120 0.04400 -0.11600
H 	H 	0.70500 0.46900 0.01750 0.07400
C 	C 	0.69200 0.50570 0.06090 0.07100
H 	H 	0.68540 0.52610 0.04510 -0.01500
C 	C 	0.73210 0.72020 0.14670 -0.82700
H 	H 	0.72990 0.72490 0.11940 0.40900
H 	H 	0.75750 0.71010 0.15160 -0.20000
C 	C 	0.72890 0.40880 0.11920 -0.00600
H 	H 	0.74960 0.40080 0.10240 0.05700
H 	H 	0.71070 0.38800 0.12180 0.00800
N 	N 	0.70090 0.45060 0.22030 -0.11000
N 	N 	0.65618 0.54419 0.17340 -0.23300
N 	N 	0.67760 0.62620 0.15141 -0.16900
N 	N 	0.69050 0.51040 0.09830 -0.22500
O 	O 	0.74310 0.42130 0.15570 -0.36100
H 	H 	0.75600 0.42900 0.17370 0.25600
O 	O 	0.72930 0.75140 0.16890 -1.39300
H 	H 	0.72100 0.76400 0.18800 0.53200
H 	H 	0.75450 0.70670 0.13720 0.35200
H 	H 	0.73990 0.73450 0.16930 1.12700
C 	C 	0.70940 0.41230 0.13160 0.09400
H 	H 	0.71270 0.38820 0.11810 0.00700
H 	H 	0.68610 0.41140 0.14660 0.01500
O 	O 	0.71940 0.74660 0.11800 -0.26000
H 	H 	0.73060 0.74640 0.09620 0.09900
C 	C 	0.17490 0.96770 0.73090 -0.04200
C 	C 	0.14390 0.02910 0.69960 -0.02700
C 	C 	0.20320 0.15300 0.64360 -0.16300
H 	H 	0.22340 0.14670 0.62740 0.06400
C 	C 	0.20170 0.19050 0.65860 0.31600
C 	C 	0.17260 0.19890 0.68270 -0.29700
H 	H 	0.17060 0.22330 0.69320 0.16600
C 	C 	0.14590 0.17120 0.69170 0.08300
H 	H 	0.12630 0.17640 0.70890 0.00200
C 	C 	0.14880 0.13530 0.67460 -0.05700
H 	H 	0.13000 0.11710 0.67970 0.03200
C 	C 	0.19820 0.97940 0.62070 0.02700
H 	H 	0.19570 0.98130 0.64720 0.02100
C 	C 	0.20950 0.94560 0.60450 -0.03300
C 	C 	0.21150 0.94230 0.56580 0.00800
H 	H 	0.21880 0.91910 0.55480 0.02700
C 	C 	0.20330 0.97120 0.54400 -0.10600
H 	H 	0.20500 0.96900 0.51750 0.07300
C 	C 	0.19200 0.00570 0.56090 0.06400
H 	H 	0.18540 0.02610 0.54510 -0.01200
C 	C 	0.23210 0.22020 0.64670 -0.82700
H 	H 	0.22990 0.22490 0.61940 0.40900
H 	H 	0.25750 0.21010 0.65160 -0.20000
C 	C 	0.22890 0.90880 0.61920 -0.00700
H 	H 	0.24960 0.90080 0.60240 0.05700
H 	H 	0.21070 0.88800 0.62180 0.00800
N 	N 	0.20090 0.95060 0.72030 -0.11000
N 	N 	0.15618 0.04419 0.67340 -0.23300
N 	N 	0.17760 0.12620 0.65141 -0.16900
N 	N 	0.19050 0.01040 0.59830 -0.22500
O 	O 	0.24310 0.92130 0.65570 -0.36100
H 	H 	0.25600 0.92900 0.67370 0.25600
O 	O 	0.22930 0.25140 0.66890 -1.39300
H 	H 	0.22100 0.26400 0.68800 0.53200
H 	H 	0.25450 0.20670 0.63720 0.35200
H 	H 	0.23990 0.23450 0.66930 1.12700
C 	C 	0.20940 0.91230 0.63160 0.09500
H 	H 	0.21270 0.88820 0.61810 0.00700
H 	H 	0.18610 0.91140 0.64660 0.01500
O 	O 	0.21940 0.24660 0.61800 -0.26000
H 	H 	0.23060 0.24640 0.59620 0.09900
C 	C 	0.82510 0.53230 0.73090 -0.04500
C 	C 	0.85610 0.47090 0.69960 -0.02700
C 	C 	0.79680 0.34700 0.64360 -0.16300
H 	H 	0.77660 0.35330 0.62740 0.06400
C 	C 	0.79830 0.30950 0.65860 0.31600
C 	C 	0.82740 0.30110 0.68270 -0.29700
H 	H 	0.82940 0.27670 0.69320 0.16600
C 	C 	0.85410 0.32880 0.69170 0.08300
H 	H 	0.87370 0.32360 0.70890 0.00200
C 	C 	0.85120 0.36470 0.67460 -0.05700
H 	H 	0.87000 0.38290 0.67970 0.03200
C 	C 	0.80180 0.52060 0.62070 0.02500
H 	H 	0.80430 0.51870 0.64720 0.02100
C 	C 	0.79050 0.55440 0.60450 -0.03500
C 	C 	0.78850 0.55770 0.56580 0.01300
H 	H 	0.78120 0.58090 0.55480 0.02500
C 	C 	0.79670 0.52880 0.54400 -0.11500
H 	H 	0.79500 0.53100 0.51750 0.07500
C 	C 	0.80800 0.49430 0.56090 0.07100
H 	H 	0.81460 0.47390 0.54510 -0.01500
C 	C 	0.76790 0.27980 0.64670 -0.82700
H 	H 	0.77010 0.27510 0.61940 0.40900
H 	H 	0.74250 0.28990 0.65160 -0.20000
C 	C 	0.77110 0.59120 0.61920 -0.00600
H 	H 	0.75040 0.59920 0.60240 0.05700
H 	H 	0.78930 0.61200 0.62180 0.00800
N 	N 	0.79910 0.54940 0.72030 -0.11000
N 	N 	0.84382 0.45581 0.67340 -0.23300
N 	N 	0.82240 0.37380 0.65141 -0.16900
N 	N 	0.80950 0.48960 0.59830 -0.22500
O 	O 	0.75690 0.57870 0.65570 -0.36100
H 	H 	0.74400 0.57100 0.67370 0.25600
O 	O 	0.77070 0.24860 0.66890 -1.39300
H 	H 	0.77900 0.23600 0.68800 0.53200
H 	H 	0.74550 0.29330 0.63720 0.35200
H 	H 	0.76010 0.26550 0.66930 1.12700
C 	C 	0.79060 0.58770 0.63160 0.09400
H 	H 	0.78730 0.61180 0.61810 0.00700
H 	H 	0.81390 0.58860 0.64660 0.01500
O 	O 	0.78060 0.25340 0.61800 -0.25900
H 	H 	0.76940 0.25360 0.59620 0.09900
C 	C 	0.32510 0.03230 0.23090 -0.04500
C 	C 	0.35610 0.97090 0.19960 -0.02400
C 	C 	0.29680 0.84700 0.14360 -0.16300
H 	H 	0.27660 0.85330 0.12740 0.06400
C 	C 	0.29830 0.80950 0.15860 0.31600
C 	C 	0.32740 0.80110 0.18270 -0.29700
H 	H 	0.32940 0.77670 0.19320 0.16600
C 	C 	0.35410 0.82880 0.19170 0.08300
H 	H 	0.37370 0.82360 0.20890 0.00200
C 	C 	0.35120 0.86470 0.17460 -0.05700
H 	H 	0.37000 0.88290 0.17970 0.03200
C 	C 	0.30180 0.02060 0.12070 0.02200
H 	H 	0.30430 0.01870 0.14720 0.02100
C 	C 	0.29050 0.05440 0.10450 -0.03700
C 	C 	0.28850 0.05770 0.06580 0.01800
H 	H 	0.28120 0.08090 0.05480 0.02300
C 	C 	0.29670 0.02880 0.04400 -0.12500
H 	H 	0.29500 0.03100 0.01750 0.07700
C 	C 	0.30800 0.99430 0.06090 0.07900
H 	H 	0.31460 0.97390 0.04510 -0.01700
C 	C 	0.26790 0.77980 0.14670 -0.82700
H 	H 	0.27010 0.77510 0.11940 0.40900
H 	H 	0.24250 0.78990 0.15160 -0.20000
C 	C 	0.27110 0.09120 0.11920 -0.00500
H 	H 	0.25040 0.09920 0.10240 0.05600
H 	H 	0.28930 0.11200 0.12180 0.00800
N 	N 	0.29910 0.04940 0.22030 -0.11000
N 	N 	0.34382 0.95581 0.17340 -0.23300
N 	N 	0.32240 0.87380 0.15141 -0.16900
N 	N 	0.30950 0.98960 0.09830 -0.22500
O 	O 	0.25690 0.07870 0.15570 -0.36100
H 	H 	0.24400 0.07100 0.17370 0.25500
O 	O 	0.27070 0.74860 0.16890 -1.39300
H 	H 	0.27900 0.73600 0.18800 0.53200
H 	H 	0.24550 0.79330 0.13720 0.35200
H 	H 	0.26010 0.76550 0.16930 1.12700
C 	C 	0.29060 0.08770 0.13160 0.09400
H 	H 	0.28730 0.11180 0.11810 0.00700
H 	H 	0.31390 0.08860 0.14660 0.01500
O 	O 	0.28060 0.75340 0.11800 -0.26000
H 	H 	0.26940 0.75360 0.09620 0.09900
C 	C 	0.32510 0.96770 0.26910 -0.04200
C 	C 	0.35610 0.02910 0.30040 -0.02700
C 	C 	0.29680 0.15300 0.35640 -0.16300
H 	H 	0.27660 0.14670 0.37260 0.06400
C 	C 	0.29830 0.19050 0.34140 0.31600
C 	C 	0.32740 0.19890 0.31730 -0.29700
H 	H 	0.32940 0.22330 0.30680 0.16600
C 	C 	0.35410 0.17120 0.30830 0.08400
H 	H 	0.37370 0.17640 0.29110 0.00200
C 	C 	0.35120 0.13530 0.32540 -0.05700
H 	H 	0.37000 0.11710 0.32030 0.03200
C 	C 	0.30180 0.97940 0.37930 0.02700
H 	H 	0.30430 0.98130 0.35280 0.02100
C 	C 	0.29050 0.94560 0.39550 -0.03300
C 	C 	0.28850 0.94230 0.43420 0.00800
H 	H 	0.28120 0.91910 0.44520 0.02700
C 	C 	0.29670 0.97120 0.45600 -0.10600
H 	H 	0.29500 0.96900 0.48250 0.07300
C 	C 	0.30800 0.00570 0.43910 0.06400
H 	H 	0.31460 0.02610 0.45490 -0.01200
C 	C 	0.26790 0.22020 0.35330 -0.82700
H 	H 	0.27010 0.22490 0.38060 0.40900
H 	H 	0.24250 0.21010 0.34840 -0.20000
C 	C 	0.27110 0.90880 0.38080 -0.00700
H 	H 	0.25040 0.90080 0.39760 0.05700
H 	H 	0.28930 0.88800 0.37820 0.00800
N 	N 	0.29910 0.95060 0.27970 -0.11000
N 	N 	0.34382 0.04419 0.32660 -0.23300
N 	N 	0.32240 0.12620 0.34859 -0.16900
N 	N 	0.30950 0.01040 0.40170 -0.22500
O 	O 	0.25690 0.92130 0.34430 -0.36100
H 	H 	0.24400 0.92900 0.32630 0.25600
O 	O 	0.27070 0.25140 0.33110 -1.39300
H 	H 	0.27900 0.26400 0.31200 0.53200
H 	H 	0.24550 0.20670 0.36280 0.35200
H 	H 	0.26010 0.23450 0.33070 1.12700
C 	C 	0.29060 0.91230 0.36840 0.09500
H 	H 	0.28730 0.88820 0.38190 0.00700
H 	H 	0.31390 0.91140 0.35340 0.01500
O 	O 	0.28060 0.24660 0.38200 -0.25900
H 	H 	0.26940 0.24640 0.40380 0.09900
C 	C 	0.82510 0.46770 0.76910 -0.04500
C 	C 	0.85610 0.52910 0.80040 -0.02700
C 	C 	0.79680 0.65300 0.85640 -0.16300
H 	H 	0.77660 0.64670 0.87260 0.06400
C 	C 	0.79830 0.69050 0.84140 0.31600
C 	C 	0.82740 0.69890 0.81730 -0.29700
H 	H 	0.82940 0.72330 0.80680 0.16600
C 	C 	0.85410 0.67120 0.80830 0.08300
H 	H 	0.87370 0.67640 0.79110 0.00200
C 	C 	0.85120 0.63530 0.82540 -0.05700
H 	H 	0.87000 0.61710 0.82030 0.03200
C 	C 	0.80180 0.47940 0.87930 0.02500
H 	H 	0.80430 0.48130 0.85280 0.02100
C 	C 	0.79050 0.44560 0.89550 -0.03500
C 	C 	0.78850 0.44230 0.93420 0.01300
H 	H 	0.78120 0.41910 0.94520 0.02600
C 	C 	0.79670 0.47120 0.95600 -0.11500
H 	H 	0.79500 0.46900 0.98250 0.07600
C 	C 	0.80800 0.50570 0.93910 0.07100
H 	H 	0.81460 0.52610 0.95490 -0.01400
C 	C 	0.76790 0.72020 0.85330 -0.82700
H 	H 	0.77010 0.72490 0.88060 0.40900
H 	H 	0.74250 0.71010 0.84840 -0.20000
C 	C 	0.77110 0.40880 0.88080 -0.00600
H 	H 	0.75040 0.40080 0.89760 0.05700
H 	H 	0.78930 0.38800 0.87820 0.00800
N 	N 	0.79910 0.45060 0.77970 -0.11000
N 	N 	0.84382 0.54419 0.82660 -0.23300
N 	N 	0.82240 0.62620 0.84859 -0.16900
N 	N 	0.80950 0.51040 0.90170 -0.22500
O 	O 	0.75690 0.42130 0.84430 -0.36100
H 	H 	0.74400 0.42900 0.82630 0.25600
O 	O 	0.77070 0.75140 0.83110 -1.39300
H 	H 	0.77900 0.76400 0.81200 0.53200
H 	H 	0.74550 0.70670 0.86280 0.35200
H 	H 	0.76010 0.73450 0.83070 1.12700
C 	C 	0.79060 0.41230 0.86840 0.09400
H 	H 	0.78730 0.38820 0.88190 0.00700
H 	H 	0.81390 0.41140 0.85340 0.01500
O 	O 	0.78060 0.74660 0.88200 -0.25900
H 	H 	0.76940 0.74640 0.90380 0.09900
Fe	Fe	0.12500 0.81796 0.06796 1.11700
Fe	Fe	0.62500 0.31796 0.56796 1.11700
Fe	Fe	0.37500 0.18204 0.56796 1.11700
Fe	Fe	0.87500 0.68204 0.06796 1.11700
Fe	Fe	0.87500 0.31796 0.43204 1.11700
Fe	Fe	0.37500 0.81796 0.93204 1.11800
Fe	Fe	0.62500 0.68204 0.93204 1.11800
Fe	Fe	0.12500 0.18204 0.43204 1.11700
Fe	Fe	0.06796 0.12500 0.81796 1.11700
Fe	Fe	0.56796 0.62500 0.31796 1.11700
Fe	Fe	0.56796 0.37500 0.18204 1.11700
Fe	Fe	0.06796 0.87500 0.68204 1.11700
Fe	Fe	0.43204 0.87500 0.31796 1.11700
Fe	Fe	0.93204 0.37500 0.81796 1.11800
Fe	Fe	0.93204 0.62500 0.68204 1.11800
Fe	Fe	0.43204 0.12500 0.18204 1.11700
Fe	Fe	0.81796 0.06796 0.12500 1.11700
Fe	Fe	0.31796 0.56796 0.62500 1.11700
Fe	Fe	0.18204 0.56796 0.37500 1.11700
Fe	Fe	0.68204 0.06796 0.87500 1.11700
Fe	Fe	0.31796 0.43204 0.87500 1.11700
Fe	Fe	0.81796 0.93204 0.37500 1.11800
Fe	Fe	0.68204 0.93204 0.62500 1.11800
Fe	Fe	0.18204 0.43204 0.12500 1.11700
Fe	Fe	0.87500 0.18204 0.93204 1.11800
Fe	Fe	0.37500 0.68204 0.43204 1.11700
Fe	Fe	0.62500 0.81796 0.43204 1.11700
Fe	Fe	0.12500 0.31796 0.93204 1.11800
Fe	Fe	0.12500 0.68204 0.56796 1.11700
Fe	Fe	0.62500 0.18204 0.06796 1.11700
Fe	Fe	0.37500 0.31796 0.06796 1.11700
Fe	Fe	0.87500 0.81796 0.56796 1.11700
Fe	Fe	0.93204 0.87500 0.18204 1.11800
Fe	Fe	0.43204 0.37500 0.68204 1.11700
Fe	Fe	0.43204 0.62500 0.81796 1.11700
Fe	Fe	0.93204 0.12500 0.31796 1.11800
Fe	Fe	0.56796 0.12500 0.68204 1.11700
Fe	Fe	0.06796 0.62500 0.18204 1.11700
Fe	Fe	0.06796 0.37500 0.31796 1.11700
Fe	Fe	0.56796 0.87500 0.81796 1.11700
Fe	Fe	0.18204 0.93204 0.87500 1.11800
Fe	Fe	0.68204 0.43204 0.37500 1.11700
Fe	Fe	0.81796 0.43204 0.62500 1.11700
Fe	Fe	0.31796 0.93204 0.12500 1.11800
Fe	Fe	0.68204 0.56796 0.12500 1.11700
Fe	Fe	0.18204 0.06796 0.62500 1.11700
Fe	Fe	0.31796 0.06796 0.37500 1.11700
Fe	Fe	0.81796 0.56796 0.87500 1.11700
W 	W 	-0.00000 0.75000 0.12500 0.50500
W 	W 	0.50000 0.25000 0.62500 0.51100
W 	W 	0.00000 0.25000 0.37500 0.50500
W 	W 	0.50000 0.75000 0.87500 0.51100
W 	W 	0.12500 0.00000 0.75000 0.50500
W 	W 	0.62500 0.50000 0.25000 0.51100
W 	W 	0.37500 0.00000 0.25000 0.50500
W 	W 	0.87500 0.50000 0.75000 0.51100
W 	W 	0.75000 0.12500 -0.00000 0.50500
W 	W 	0.25000 0.62500 0.50000 0.51100
W 	W 	0.25000 0.37500 -0.00000 0.50500
W 	W 	0.75000 0.87500 0.50000 0.51100
W 	W 	0.50000 0.25000 0.12500 0.51100
W 	W 	0.00000 0.75000 0.62500 0.50500
W 	W 	0.00000 0.25000 0.87500 0.50500
W 	W 	0.50000 0.75000 0.37500 0.51100
W 	W 	0.75000 0.37500 0.50000 0.51100
W 	W 	0.25000 0.87500 -0.00000 0.50500
W 	W 	0.75000 0.62500 -0.00000 0.50500
W 	W 	0.25000 0.12500 0.50000 0.51100
W 	W 	0.87500 0.00000 0.25000 0.50500
W 	W 	0.37500 0.50000 0.75000 0.51100
W 	W 	0.12500 0.50000 0.25000 0.51100
W 	W 	0.62500 0.00000 0.75000 0.50500
