data_crystal

_cell_length_a 34.18140
_cell_length_b 34.18140
_cell_length_c 34.18140
_cell_angle_alpha 90.00000
_cell_angle_beta  90.00000
_cell_angle_gamma 90.00000

_symmetry_space_group_name_	'P 1'
_symmetry_space_group_name_H-M	'P 1'

loop_
_symmetry_equiv_pos_as_xyz
  x,y,z

loop_
_atom_site_label
_atom_site_type_symbol
_atom_site_fract_x
_atom_site_fract_y
_atom_site_fract_z
_atom_site_charge
C 	C 	0.01900 0.71660 0.07450 -0.04500
C 	C 	0.05210 0.77830 0.10450 -0.01900
C 	C 	0.10640 0.89790 0.04410 -0.16300
H 	H 	0.12150 0.89120 0.02170 0.06400
C 	C 	0.09190 0.93610 0.04690 0.32200
C 	C 	0.06920 0.94530 0.07880 -0.26600
H 	H 	0.05810 0.97070 0.08150 0.15600
C 	C 	0.06260 0.91690 0.10710 0.05800
H 	H 	0.04720 0.92270 0.12940 0.01500
C 	C 	0.07870 0.88030 0.10240 -0.04100
H 	H 	0.07450 0.86130 0.12220 0.02900
C 	C 	0.12770 0.73100 0.04920 0.02700
H 	H 	0.10000 0.73270 0.04960 0.02400
C 	C 	0.14590 0.69620 0.03870 -0.03400
C 	C 	0.18570 0.69270 0.03850 0.00300
H 	H 	0.19780 0.66880 0.03110 0.03100
C 	C 	0.20720 0.72310 0.04900 -0.09800
H 	H 	0.23490 0.72110 0.04930 0.06900
C 	C 	0.18960 0.75740 0.05920 0.05600
H 	H 	0.20560 0.77870 0.06680 -0.00500
C 	C 	0.10100 0.96590 0.01500 -0.89000
H 	H 	0.12830 0.97060 0.01730 0.39200
H 	H 	0.09610 0.95580 0.98960 -0.06400
C 	C 	0.12430 0.66080 0.02480 0.04100
H 	H 	0.14220 0.64410 0.00930 0.05700
H 	H 	0.11530 0.64550 0.04760 -0.01200
N 	N 	0.03000 0.69900 0.04820 -0.10900
N 	N 	0.07900 0.79290 0.09080 -0.24400
N 	N 	0.10016 0.87040 0.07130 -0.18800
N 	N 	0.15000 0.76250 0.05890 -0.23700
O 	O 	0.09140 0.67170 0.00130 -0.36200
H 	H 	0.07040 0.67900 0.99200 0.25700
O 	O 	0.07990 0.00010 0.01740 -0.81600
H 	H 	0.05810 0.01100 0.02200 0.30800
H 	H 	0.11050 0.95240 0.99270 0.28700
H 	H 	0.07840 0.98020 0.00720 0.75100
C 	C 	0.11940 0.66220 0.03160 0.05500
H 	H 	0.13500 0.63910 0.02350 -0.02400
H 	H 	0.10540 0.65550 0.05600 0.03900
O 	O 	0.12750 0.99470 0.02790 -0.17200
H 	H 	0.14760 0.99220 0.01310 0.04100
C 	C 	0.51900 0.21660 0.57450 -0.04500
C 	C 	0.55210 0.27830 0.60450 -0.02000
C 	C 	0.60640 0.39790 0.54410 -0.15800
H 	H 	0.62150 0.39120 0.52170 0.06200
C 	C 	0.59190 0.43610 0.54690 0.31100
C 	C 	0.56920 0.44530 0.57880 -0.26000
H 	H 	0.55810 0.47070 0.58150 0.15100
C 	C 	0.56260 0.41690 0.60710 0.05200
H 	H 	0.54720 0.42270 0.62940 0.01600
C 	C 	0.57870 0.38030 0.60240 -0.03800
H 	H 	0.57450 0.36130 0.62220 0.02800
C 	C 	0.62770 0.23100 0.54920 0.02700
H 	H 	0.60000 0.23270 0.54960 0.02400
C 	C 	0.64590 0.19620 0.53870 -0.03200
C 	C 	0.68570 0.19270 0.53850 0.00200
H 	H 	0.69780 0.16880 0.53110 0.03100
C 	C 	0.70720 0.22310 0.54900 -0.09700
H 	H 	0.73490 0.22110 0.54930 0.07000
C 	C 	0.68960 0.25740 0.55920 0.05600
H 	H 	0.70560 0.27870 0.56680 -0.00500
C 	C 	0.60100 0.46590 0.51500 -0.86000
H 	H 	0.62830 0.47060 0.51730 0.38500
H 	H 	0.59610 0.45580 0.48960 -0.06500
C 	C 	0.62430 0.16080 0.52480 0.04000
H 	H 	0.64220 0.14410 0.50930 0.05900
H 	H 	0.61530 0.14550 0.54760 -0.01000
N 	N 	0.53000 0.19900 0.54820 -0.10800
N 	N 	0.57900 0.29290 0.59080 -0.24400
N 	N 	0.60016 0.37040 0.57130 -0.19000
N 	N 	0.65000 0.26250 0.55890 -0.23600
O 	O 	0.59140 0.17170 0.50130 -0.35500
H 	H 	0.57040 0.17900 0.49200 0.25100
O 	O 	0.57990 0.50010 0.51740 -0.80100
H 	H 	0.55810 0.51100 0.52200 0.30600
H 	H 	0.61050 0.45240 0.49270 0.27700
H 	H 	0.57840 0.48020 0.50720 0.73400
C 	C 	0.61940 0.16220 0.53160 0.05400
H 	H 	0.63500 0.13910 0.52350 -0.02400
H 	H 	0.60540 0.15550 0.55600 0.03800
O 	O 	0.62750 0.49470 0.52790 -0.17900
H 	H 	0.64760 0.49220 0.51310 0.04500
C 	C 	0.48100 0.28340 0.57450 -0.04500
C 	C 	0.44790 0.22170 0.60450 -0.02000
C 	C 	0.39360 0.10210 0.54410 -0.15600
H 	H 	0.37850 0.10880 0.52170 0.06200
C 	C 	0.40810 0.06390 0.54690 0.30700
C 	C 	0.43080 0.05470 0.57880 -0.25700
H 	H 	0.44190 0.02930 0.58150 0.14900
C 	C 	0.43740 0.08310 0.60710 0.05000
H 	H 	0.45280 0.07730 0.62940 0.01700
C 	C 	0.42130 0.11970 0.60240 -0.03700
H 	H 	0.42550 0.13870 0.62220 0.02800
C 	C 	0.37230 0.26900 0.54920 0.02700
H 	H 	0.40000 0.26730 0.54960 0.02400
C 	C 	0.35410 0.30380 0.53870 -0.03200
C 	C 	0.31430 0.30730 0.53850 0.00200
H 	H 	0.30220 0.33120 0.53110 0.03100
C 	C 	0.29280 0.27690 0.54900 -0.09700
H 	H 	0.26510 0.27890 0.54930 0.07000
C 	C 	0.31040 0.24260 0.55920 0.05600
H 	H 	0.29440 0.22130 0.56680 -0.00500
C 	C 	0.39900 0.03410 0.51500 -0.85100
H 	H 	0.37170 0.02940 0.51730 0.38400
H 	H 	0.40390 0.04420 0.48960 -0.06200
C 	C 	0.37570 0.33920 0.52480 0.04000
H 	H 	0.35780 0.35590 0.50930 0.05900
H 	H 	0.38470 0.35450 0.54760 -0.01000
N 	N 	0.47000 0.30100 0.54820 -0.10800
N 	N 	0.42100 0.20710 0.59080 -0.24400
N 	N 	0.39984 0.12960 0.57130 -0.19000
N 	N 	0.35000 0.23750 0.55890 -0.23600
O 	O 	0.40860 0.32830 0.50130 -0.35500
H 	H 	0.42960 0.32100 0.49200 0.25100
O 	O 	0.42010 0.99990 0.51740 -0.78800
H 	H 	0.44190 0.98900 0.52200 0.30300
H 	H 	0.38950 0.04760 0.49270 0.27200
H 	H 	0.42160 0.01980 0.50720 0.72200
C 	C 	0.38060 0.33780 0.53160 0.05400
H 	H 	0.36500 0.36090 0.52350 -0.02400
H 	H 	0.39460 0.34450 0.55600 0.03800
O 	O 	0.37250 0.00530 0.52790 -0.18400
H 	H 	0.35240 0.00780 0.51310 0.04600
C 	C 	0.98100 0.78340 0.07450 -0.04200
C 	C 	0.94790 0.72170 0.10450 -0.01800
C 	C 	0.89360 0.60210 0.04410 -0.16200
H 	H 	0.87850 0.60880 0.02170 0.06300
C 	C 	0.90810 0.56390 0.04690 0.31800
C 	C 	0.93080 0.55470 0.07880 -0.26500
H 	H 	0.94190 0.52930 0.08150 0.15300
C 	C 	0.93740 0.58310 0.10710 0.05500
H 	H 	0.95280 0.57730 0.12940 0.01600
C 	C 	0.92130 0.61970 0.10240 -0.04000
H 	H 	0.92550 0.63870 0.12220 0.02900
C 	C 	0.87230 0.76900 0.04920 0.02700
H 	H 	0.90000 0.76730 0.04960 0.02400
C 	C 	0.85410 0.80380 0.03870 -0.03400
C 	C 	0.81430 0.80730 0.03850 0.00300
H 	H 	0.80220 0.83120 0.03110 0.03100
C 	C 	0.79280 0.77690 0.04900 -0.09800
H 	H 	0.76510 0.77890 0.04930 0.07000
C 	C 	0.81040 0.74260 0.05920 0.05600
H 	H 	0.79440 0.72130 0.06680 -0.00500
C 	C 	0.89900 0.53410 0.01500 -0.88200
H 	H 	0.87170 0.52940 0.01730 0.39100
H 	H 	0.90390 0.54420 0.98960 -0.06100
C 	C 	0.87570 0.83920 0.02480 0.04100
H 	H 	0.85780 0.85590 0.00930 0.05800
H 	H 	0.88470 0.85450 0.04760 -0.01200
N 	N 	0.97000 0.80100 0.04820 -0.10900
N 	N 	0.92100 0.70710 0.09080 -0.24500
N 	N 	0.89984 0.62960 0.07130 -0.18900
N 	N 	0.85000 0.73750 0.05890 -0.23700
O 	O 	0.90860 0.82830 0.00130 -0.36200
H 	H 	0.92960 0.82100 0.99200 0.25800
O 	O 	0.92010 0.49990 0.01740 -0.80300
H 	H 	0.94190 0.48900 0.02200 0.30600
H 	H 	0.88950 0.54760 0.99270 0.28200
H 	H 	0.92160 0.51980 0.00720 0.74100
C 	C 	0.88060 0.83780 0.03160 0.05500
H 	H 	0.86500 0.86090 0.02350 -0.02400
H 	H 	0.89460 0.84450 0.05600 0.03900
O 	O 	0.87250 0.50530 0.02790 -0.17700
H 	H 	0.85240 0.50780 0.01310 0.04100
C 	C 	0.98100 0.21660 0.42550 -0.04200
C 	C 	0.94790 0.27830 0.39550 -0.01800
C 	C 	0.89360 0.39790 0.45590 -0.15800
H 	H 	0.87850 0.39120 0.47830 0.06200
C 	C 	0.90810 0.43610 0.45310 0.31100
C 	C 	0.93080 0.44530 0.42120 -0.25900
H 	H 	0.94190 0.47070 0.41850 0.15200
C 	C 	0.93740 0.41690 0.39290 0.05200
H 	H 	0.95280 0.42270 0.37060 0.01700
C 	C 	0.92130 0.38030 0.39760 -0.03800
H 	H 	0.92550 0.36130 0.37780 0.02800
C 	C 	0.87230 0.23100 0.45080 0.02700
H 	H 	0.90000 0.23270 0.45040 0.02400
C 	C 	0.85410 0.19620 0.46130 -0.03200
C 	C 	0.81430 0.19270 0.46150 0.00200
H 	H 	0.80220 0.16880 0.46890 0.03100
C 	C 	0.79280 0.22310 0.45100 -0.09700
H 	H 	0.76510 0.22110 0.45070 0.07000
C 	C 	0.81040 0.25740 0.44080 0.05600
H 	H 	0.79440 0.27870 0.43320 -0.00500
C 	C 	0.89900 0.46590 0.48500 -0.86000
H 	H 	0.87170 0.47060 0.48270 0.38500
H 	H 	0.90390 0.45580 0.51040 -0.06500
C 	C 	0.87570 0.16080 0.47520 0.04000
H 	H 	0.85780 0.14410 0.49070 0.05900
H 	H 	0.88470 0.14550 0.45240 -0.01000
N 	N 	0.97000 0.19900 0.45180 -0.10800
N 	N 	0.92100 0.29290 0.40920 -0.24500
N 	N 	0.89984 0.37040 0.42870 -0.19000
N 	N 	0.85000 0.26250 0.44110 -0.23600
O 	O 	0.90860 0.17170 0.49870 -0.35500
H 	H 	0.92960 0.17900 0.50800 0.25200
O 	O 	0.92010 0.50010 0.48260 -0.80200
H 	H 	0.94190 0.51100 0.47800 0.30700
H 	H 	0.88950 0.45240 0.50730 0.27700
H 	H 	0.92160 0.48020 0.49280 0.73400
C 	C 	0.88060 0.16220 0.46840 0.05400
H 	H 	0.86500 0.13910 0.47650 -0.02400
H 	H 	0.89460 0.15550 0.44400 0.03800
O 	O 	0.87250 0.49470 0.47210 -0.17900
H 	H 	0.85240 0.49220 0.48690 0.04500
C 	C 	0.48100 0.71660 0.92550 -0.04500
C 	C 	0.44790 0.77830 0.89550 -0.02000
C 	C 	0.39360 0.89790 0.95590 -0.15600
H 	H 	0.37850 0.89120 0.97830 0.06300
C 	C 	0.40810 0.93610 0.95310 0.30700
C 	C 	0.43080 0.94530 0.92120 -0.25700
H 	H 	0.44190 0.97070 0.91850 0.15200
C 	C 	0.43740 0.91690 0.89290 0.05100
H 	H 	0.45280 0.92270 0.87060 0.01700
C 	C 	0.42130 0.88030 0.89760 -0.03800
H 	H 	0.42550 0.86130 0.87780 0.02800
C 	C 	0.37230 0.73100 0.95080 0.02600
H 	H 	0.40000 0.73270 0.95040 0.02400
C 	C 	0.35410 0.69620 0.96130 -0.03100
C 	C 	0.31430 0.69270 0.96150 0.00100
H 	H 	0.30220 0.66880 0.96890 0.03200
C 	C 	0.29280 0.72310 0.95100 -0.09600
H 	H 	0.26510 0.72110 0.95070 0.07000
C 	C 	0.31040 0.75740 0.94080 0.05600
H 	H 	0.29440 0.77870 0.93320 -0.00500
C 	C 	0.39900 0.96590 0.98500 -0.84600
H 	H 	0.37170 0.97060 0.98270 0.38000
H 	H 	0.40390 0.95580 0.01040 -0.07100
C 	C 	0.37570 0.66080 0.97520 0.03800
H 	H 	0.35780 0.64410 0.99070 0.06000
H 	H 	0.38470 0.64550 0.95240 -0.00800
N 	N 	0.47000 0.69900 0.95180 -0.10700
N 	N 	0.42100 0.79290 0.90920 -0.24400
N 	N 	0.39984 0.87040 0.92870 -0.19000
N 	N 	0.35000 0.76250 0.94110 -0.23600
O 	O 	0.40860 0.67170 0.99870 -0.34900
H 	H 	0.42960 0.67900 0.00800 0.24600
O 	O 	0.42010 0.00010 0.98260 -0.81300
H 	H 	0.44190 0.01100 0.97800 0.31000
H 	H 	0.38950 0.95240 0.00730 0.27600
H 	H 	0.42160 0.98020 0.99280 0.73900
C 	C 	0.38060 0.66220 0.96840 0.05200
H 	H 	0.36500 0.63910 0.97650 -0.02300
H 	H 	0.39460 0.65550 0.94400 0.03800
O 	O 	0.37250 0.99470 0.97210 -0.17600
H 	H 	0.35240 0.99220 0.98690 0.04800
C 	C 	0.51900 0.78340 0.92550 -0.04500
C 	C 	0.55210 0.72170 0.89550 -0.02000
C 	C 	0.60640 0.60210 0.95590 -0.15400
H 	H 	0.62150 0.60880 0.97830 0.06200
C 	C 	0.59190 0.56390 0.95310 0.30300
C 	C 	0.56920 0.55470 0.92120 -0.25400
H 	H 	0.55810 0.52930 0.91850 0.15000
C 	C 	0.56260 0.58310 0.89290 0.04900
H 	H 	0.54720 0.57730 0.87060 0.01800
C 	C 	0.57870 0.61970 0.89760 -0.03700
H 	H 	0.57450 0.63870 0.87780 0.02700
C 	C 	0.62770 0.76900 0.95080 0.02600
H 	H 	0.60000 0.76730 0.95040 0.02400
C 	C 	0.64590 0.80380 0.96130 -0.03100
C 	C 	0.68570 0.80730 0.96150 0.00100
H 	H 	0.69780 0.83120 0.96890 0.03200
C 	C 	0.70720 0.77690 0.95100 -0.09600
H 	H 	0.73490 0.77890 0.95070 0.07000
C 	C 	0.68960 0.74260 0.94080 0.05600
H 	H 	0.70560 0.72130 0.93320 -0.00500
C 	C 	0.60100 0.53410 0.98500 -0.83800
H 	H 	0.62830 0.52940 0.98270 0.37900
H 	H 	0.59610 0.54420 0.01040 -0.06800
C 	C 	0.62430 0.83920 0.97520 0.03800
H 	H 	0.64220 0.85590 0.99070 0.06000
H 	H 	0.61530 0.85450 0.95240 -0.00800
N 	N 	0.53000 0.80100 0.95180 -0.10700
N 	N 	0.57900 0.70710 0.90920 -0.24400
N 	N 	0.60016 0.62960 0.92870 -0.19100
N 	N 	0.65000 0.73750 0.94110 -0.23600
O 	O 	0.59140 0.82830 0.99870 -0.34900
H 	H 	0.57040 0.82100 0.00800 0.24600
O 	O 	0.57990 0.49990 0.98260 -0.80000
H 	H 	0.55810 0.48900 0.97800 0.30700
H 	H 	0.61050 0.54760 0.00730 0.27100
H 	H 	0.57840 0.51980 0.99280 0.72700
C 	C 	0.61940 0.83780 0.96840 0.05200
H 	H 	0.63500 0.86090 0.97650 -0.02300
H 	H 	0.60540 0.84450 0.94400 0.03800
O 	O 	0.62750 0.50530 0.97210 -0.18100
H 	H 	0.64760 0.50780 0.98690 0.04900
C 	C 	0.01900 0.28340 0.42550 -0.04600
C 	C 	0.05210 0.22170 0.39550 -0.02000
C 	C 	0.10640 0.10210 0.45590 -0.15600
H 	H 	0.12150 0.10880 0.47830 0.06200
C 	C 	0.09190 0.06390 0.45310 0.30700
C 	C 	0.06920 0.05470 0.42120 -0.25700
H 	H 	0.05810 0.02930 0.41850 0.14900
C 	C 	0.06260 0.08310 0.39290 0.05100
H 	H 	0.04720 0.07730 0.37060 0.01600
C 	C 	0.07870 0.11970 0.39760 -0.03700
H 	H 	0.07450 0.13870 0.37780 0.02800
C 	C 	0.12770 0.26900 0.45080 0.02700
H 	H 	0.10000 0.26730 0.45040 0.02400
C 	C 	0.14590 0.30380 0.46130 -0.03200
C 	C 	0.18570 0.30730 0.46150 0.00200
H 	H 	0.19780 0.33120 0.46890 0.03100
C 	C 	0.20720 0.27690 0.45100 -0.09700
H 	H 	0.23490 0.27890 0.45070 0.07000
C 	C 	0.18960 0.24260 0.44080 0.05600
H 	H 	0.20560 0.22130 0.43320 -0.00500
C 	C 	0.10100 0.03410 0.48500 -0.85100
H 	H 	0.12830 0.02940 0.48270 0.38400
H 	H 	0.09610 0.04420 0.51040 -0.06200
C 	C 	0.12430 0.33920 0.47520 0.04000
H 	H 	0.14220 0.35590 0.49070 0.05900
H 	H 	0.11530 0.35450 0.45240 -0.01000
N 	N 	0.03000 0.30100 0.45180 -0.10900
N 	N 	0.07900 0.20710 0.40920 -0.24400
N 	N 	0.10016 0.12960 0.42870 -0.19000
N 	N 	0.15000 0.23750 0.44110 -0.23600
O 	O 	0.09140 0.32830 0.49870 -0.35500
H 	H 	0.07040 0.32100 0.50800 0.25100
O 	O 	0.07990 0.99990 0.48260 -0.78700
H 	H 	0.05810 0.98900 0.47800 0.30200
H 	H 	0.11050 0.04760 0.50730 0.27200
H 	H 	0.07840 0.01980 0.49280 0.72200
C 	C 	0.11940 0.33780 0.46840 0.05300
H 	H 	0.13500 0.36090 0.47650 -0.02400
H 	H 	0.10540 0.34450 0.44400 0.03800
O 	O 	0.12750 0.00530 0.47210 -0.18400
H 	H 	0.14760 0.00780 0.48690 0.04600
C 	C 	0.07450 0.01900 0.71660 -0.04600
C 	C 	0.10450 0.05210 0.77830 -0.02000
C 	C 	0.04410 0.10640 0.89790 -0.16400
H 	H 	0.02170 0.12150 0.89120 0.06300
C 	C 	0.04690 0.09190 0.93610 0.32100
C 	C 	0.07880 0.06920 0.94530 -0.26700
H 	H 	0.08150 0.05810 0.97070 0.15500
C 	C 	0.10710 0.06260 0.91690 0.05700
H 	H 	0.12940 0.04720 0.92270 0.01400
C 	C 	0.10240 0.07870 0.88030 -0.04100
H 	H 	0.12220 0.07450 0.86130 0.02900
C 	C 	0.04920 0.12770 0.73100 0.02700
H 	H 	0.04960 0.10000 0.73270 0.02400
C 	C 	0.03870 0.14590 0.69620 -0.03400
C 	C 	0.03850 0.18570 0.69270 0.00300
H 	H 	0.03110 0.19780 0.66880 0.03100
C 	C 	0.04900 0.20720 0.72310 -0.09800
H 	H 	0.04930 0.23490 0.72110 0.06900
C 	C 	0.05920 0.18960 0.75740 0.05600
H 	H 	0.06680 0.20560 0.77870 -0.00500
C 	C 	0.01500 0.10100 0.96590 -0.89000
H 	H 	0.01730 0.12830 0.97060 0.39200
H 	H 	0.98960 0.09610 0.95580 -0.06400
C 	C 	0.02480 0.12430 0.66080 0.04100
H 	H 	0.00930 0.14220 0.64410 0.05700
H 	H 	0.04760 0.11530 0.64550 -0.01200
N 	N 	0.04820 0.03000 0.69900 -0.10900
N 	N 	0.09080 0.07900 0.79290 -0.24400
N 	N 	0.07130 0.10016 0.87040 -0.18800
N 	N 	0.05890 0.15000 0.76250 -0.23700
O 	O 	0.00130 0.09140 0.67170 -0.36200
H 	H 	0.99200 0.07040 0.67900 0.25700
O 	O 	0.01740 0.07990 0.00010 -0.81600
H 	H 	0.02200 0.05810 0.01100 0.30800
H 	H 	0.99270 0.11050 0.95240 0.28700
H 	H 	0.00720 0.07840 0.98020 0.75100
C 	C 	0.03160 0.11940 0.66220 0.05500
H 	H 	0.02350 0.13500 0.63910 -0.02400
H 	H 	0.05600 0.10540 0.65550 0.03900
O 	O 	0.02790 0.12750 0.99470 -0.17200
H 	H 	0.01310 0.14760 0.99220 0.04100
C 	C 	0.57450 0.51900 0.21660 -0.04500
C 	C 	0.60450 0.55210 0.27830 -0.02000
C 	C 	0.54410 0.60640 0.39790 -0.15800
H 	H 	0.52170 0.62150 0.39120 0.06200
C 	C 	0.54690 0.59190 0.43610 0.31100
C 	C 	0.57880 0.56920 0.44530 -0.26000
H 	H 	0.58150 0.55810 0.47070 0.15100
C 	C 	0.60710 0.56260 0.41690 0.05200
H 	H 	0.62940 0.54720 0.42270 0.01600
C 	C 	0.60240 0.57870 0.38030 -0.03800
H 	H 	0.62220 0.57450 0.36130 0.02800
C 	C 	0.54920 0.62770 0.23100 0.02700
H 	H 	0.54960 0.60000 0.23270 0.02400
C 	C 	0.53870 0.64590 0.19620 -0.03200
C 	C 	0.53850 0.68570 0.19270 0.00200
H 	H 	0.53110 0.69780 0.16880 0.03100
C 	C 	0.54900 0.70720 0.22310 -0.09700
H 	H 	0.54930 0.73490 0.22110 0.07000
C 	C 	0.55920 0.68960 0.25740 0.05600
H 	H 	0.56680 0.70560 0.27870 -0.00500
C 	C 	0.51500 0.60100 0.46590 -0.86000
H 	H 	0.51730 0.62830 0.47060 0.38500
H 	H 	0.48960 0.59610 0.45580 -0.06500
C 	C 	0.52480 0.62430 0.16080 0.04000
H 	H 	0.50930 0.64220 0.14410 0.05900
H 	H 	0.54760 0.61530 0.14550 -0.01000
N 	N 	0.54820 0.53000 0.19900 -0.10800
N 	N 	0.59080 0.57900 0.29290 -0.24400
N 	N 	0.57130 0.60016 0.37040 -0.19000
N 	N 	0.55890 0.65000 0.26250 -0.23600
O 	O 	0.50130 0.59140 0.17170 -0.35500
H 	H 	0.49200 0.57040 0.17900 0.25100
O 	O 	0.51740 0.57990 0.50010 -0.80100
H 	H 	0.52200 0.55810 0.51100 0.30600
H 	H 	0.49270 0.61050 0.45240 0.27700
H 	H 	0.50720 0.57840 0.48020 0.73400
C 	C 	0.53160 0.61940 0.16220 0.05400
H 	H 	0.52350 0.63500 0.13910 -0.02400
H 	H 	0.55600 0.60540 0.15550 0.03800
O 	O 	0.52790 0.62750 0.49470 -0.17900
H 	H 	0.51310 0.64760 0.49220 0.04500
C 	C 	0.57450 0.48100 0.28340 -0.04500
C 	C 	0.60450 0.44790 0.22170 -0.02000
C 	C 	0.54410 0.39360 0.10210 -0.15600
H 	H 	0.52170 0.37850 0.10880 0.06200
C 	C 	0.54690 0.40810 0.06390 0.30700
C 	C 	0.57880 0.43080 0.05470 -0.25700
H 	H 	0.58150 0.44190 0.02930 0.14900
C 	C 	0.60710 0.43740 0.08310 0.05000
H 	H 	0.62940 0.45280 0.07730 0.01700
C 	C 	0.60240 0.42130 0.11970 -0.03700
H 	H 	0.62220 0.42550 0.13870 0.02800
C 	C 	0.54920 0.37230 0.26900 0.02700
H 	H 	0.54960 0.40000 0.26730 0.02400
C 	C 	0.53870 0.35410 0.30380 -0.03200
C 	C 	0.53850 0.31430 0.30730 0.00200
H 	H 	0.53110 0.30220 0.33120 0.03100
C 	C 	0.54900 0.29280 0.27690 -0.09700
H 	H 	0.54930 0.26510 0.27890 0.07000
C 	C 	0.55920 0.31040 0.24260 0.05600
H 	H 	0.56680 0.29440 0.22130 -0.00500
C 	C 	0.51500 0.39900 0.03410 -0.85100
H 	H 	0.51730 0.37170 0.02940 0.38400
H 	H 	0.48960 0.40390 0.04420 -0.06200
C 	C 	0.52480 0.37570 0.33920 0.04000
H 	H 	0.50930 0.35780 0.35590 0.05900
H 	H 	0.54760 0.38470 0.35450 -0.01000
N 	N 	0.54820 0.47000 0.30100 -0.10800
N 	N 	0.59080 0.42100 0.20710 -0.24400
N 	N 	0.57130 0.39984 0.12960 -0.19000
N 	N 	0.55890 0.35000 0.23750 -0.23600
O 	O 	0.50130 0.40860 0.32830 -0.35500
H 	H 	0.49200 0.42960 0.32100 0.25100
O 	O 	0.51740 0.42010 0.99990 -0.78800
H 	H 	0.52200 0.44190 0.98900 0.30300
H 	H 	0.49270 0.38950 0.04760 0.27200
H 	H 	0.50720 0.42160 0.01980 0.72200
C 	C 	0.53160 0.38060 0.33780 0.05400
H 	H 	0.52350 0.36500 0.36090 -0.02400
H 	H 	0.55600 0.39460 0.34450 0.03800
O 	O 	0.52790 0.37250 0.00530 -0.18400
H 	H 	0.51310 0.35240 0.00780 0.04600
C 	C 	0.07450 0.98100 0.78340 -0.04200
C 	C 	0.10450 0.94790 0.72170 -0.01800
C 	C 	0.04410 0.89360 0.60210 -0.16200
H 	H 	0.02170 0.87850 0.60880 0.06300
C 	C 	0.04690 0.90810 0.56390 0.31800
C 	C 	0.07880 0.93080 0.55470 -0.26500
H 	H 	0.08150 0.94190 0.52930 0.15300
C 	C 	0.10710 0.93740 0.58310 0.05500
H 	H 	0.12940 0.95280 0.57730 0.01600
C 	C 	0.10240 0.92130 0.61970 -0.04000
H 	H 	0.12220 0.92550 0.63870 0.02900
C 	C 	0.04920 0.87230 0.76900 0.02700
H 	H 	0.04960 0.90000 0.76730 0.02400
C 	C 	0.03870 0.85410 0.80380 -0.03400
C 	C 	0.03850 0.81430 0.80730 0.00300
H 	H 	0.03110 0.80220 0.83120 0.03100
C 	C 	0.04900 0.79280 0.77690 -0.09800
H 	H 	0.04930 0.76510 0.77890 0.07000
C 	C 	0.05920 0.81040 0.74260 0.05600
H 	H 	0.06680 0.79440 0.72130 -0.00500
C 	C 	0.01500 0.89900 0.53410 -0.88200
H 	H 	0.01730 0.87170 0.52940 0.39100
H 	H 	0.98960 0.90390 0.54420 -0.06100
C 	C 	0.02480 0.87570 0.83920 0.04100
H 	H 	0.00930 0.85780 0.85590 0.05800
H 	H 	0.04760 0.88470 0.85450 -0.01200
N 	N 	0.04820 0.97000 0.80100 -0.10900
N 	N 	0.09080 0.92100 0.70710 -0.24500
N 	N 	0.07130 0.89984 0.62960 -0.18900
N 	N 	0.05890 0.85000 0.73750 -0.23700
O 	O 	0.00130 0.90860 0.82830 -0.36200
H 	H 	0.99200 0.92960 0.82100 0.25800
O 	O 	0.01740 0.92010 0.49990 -0.80300
H 	H 	0.02200 0.94190 0.48900 0.30600
H 	H 	0.99270 0.88950 0.54760 0.28200
H 	H 	0.00720 0.92160 0.51980 0.74100
C 	C 	0.03160 0.88060 0.83780 0.05500
H 	H 	0.02350 0.86500 0.86090 -0.02400
H 	H 	0.05600 0.89460 0.84450 0.03900
O 	O 	0.02790 0.87250 0.50530 -0.17700
H 	H 	0.01310 0.85240 0.50780 0.04100
C 	C 	0.42550 0.98100 0.21660 -0.04200
C 	C 	0.39550 0.94790 0.27830 -0.01800
C 	C 	0.45590 0.89360 0.39790 -0.15800
H 	H 	0.47830 0.87850 0.39120 0.06200
C 	C 	0.45310 0.90810 0.43610 0.31100
C 	C 	0.42120 0.93080 0.44530 -0.25900
H 	H 	0.41850 0.94190 0.47070 0.15200
C 	C 	0.39290 0.93740 0.41690 0.05200
H 	H 	0.37060 0.95280 0.42270 0.01700
C 	C 	0.39760 0.92130 0.38030 -0.03800
H 	H 	0.37780 0.92550 0.36130 0.02800
C 	C 	0.45080 0.87230 0.23100 0.02700
H 	H 	0.45040 0.90000 0.23270 0.02400
C 	C 	0.46130 0.85410 0.19620 -0.03200
C 	C 	0.46150 0.81430 0.19270 0.00200
H 	H 	0.46890 0.80220 0.16880 0.03100
C 	C 	0.45100 0.79280 0.22310 -0.09700
H 	H 	0.45070 0.76510 0.22110 0.07000
C 	C 	0.44080 0.81040 0.25740 0.05600
H 	H 	0.43320 0.79440 0.27870 -0.00500
C 	C 	0.48500 0.89900 0.46590 -0.86000
H 	H 	0.48270 0.87170 0.47060 0.38500
H 	H 	0.51040 0.90390 0.45580 -0.06500
C 	C 	0.47520 0.87570 0.16080 0.04000
H 	H 	0.49070 0.85780 0.14410 0.05900
H 	H 	0.45240 0.88470 0.14550 -0.01000
N 	N 	0.45180 0.97000 0.19900 -0.10800
N 	N 	0.40920 0.92100 0.29290 -0.24500
N 	N 	0.42870 0.89984 0.37040 -0.19000
N 	N 	0.44110 0.85000 0.26250 -0.23600
O 	O 	0.49870 0.90860 0.17170 -0.35500
H 	H 	0.50800 0.92960 0.17900 0.25200
O 	O 	0.48260 0.92010 0.50010 -0.80200
H 	H 	0.47800 0.94190 0.51100 0.30700
H 	H 	0.50730 0.88950 0.45240 0.27700
H 	H 	0.49280 0.92160 0.48020 0.73400
C 	C 	0.46840 0.88060 0.16220 0.05400
H 	H 	0.47650 0.86500 0.13910 -0.02400
H 	H 	0.44400 0.89460 0.15550 0.03800
O 	O 	0.47210 0.87250 0.49470 -0.17900
H 	H 	0.48690 0.85240 0.49220 0.04500
C 	C 	0.92550 0.48100 0.71660 -0.04500
C 	C 	0.89550 0.44790 0.77830 -0.02000
C 	C 	0.95590 0.39360 0.89790 -0.15600
H 	H 	0.97830 0.37850 0.89120 0.06300
C 	C 	0.95310 0.40810 0.93610 0.30700
C 	C 	0.92120 0.43080 0.94530 -0.25700
H 	H 	0.91850 0.44190 0.97070 0.15200
C 	C 	0.89290 0.43740 0.91690 0.05100
H 	H 	0.87060 0.45280 0.92270 0.01700
C 	C 	0.89760 0.42130 0.88030 -0.03800
H 	H 	0.87780 0.42550 0.86130 0.02800
C 	C 	0.95080 0.37230 0.73100 0.02600
H 	H 	0.95040 0.40000 0.73270 0.02400
C 	C 	0.96130 0.35410 0.69620 -0.03100
C 	C 	0.96150 0.31430 0.69270 0.00100
H 	H 	0.96890 0.30220 0.66880 0.03200
C 	C 	0.95100 0.29280 0.72310 -0.09600
H 	H 	0.95070 0.26510 0.72110 0.07000
C 	C 	0.94080 0.31040 0.75740 0.05600
H 	H 	0.93320 0.29440 0.77870 -0.00500
C 	C 	0.98500 0.39900 0.96590 -0.84600
H 	H 	0.98270 0.37170 0.97060 0.38000
H 	H 	0.01040 0.40390 0.95580 -0.07100
C 	C 	0.97520 0.37570 0.66080 0.03800
H 	H 	0.99070 0.35780 0.64410 0.06000
H 	H 	0.95240 0.38470 0.64550 -0.00800
N 	N 	0.95180 0.47000 0.69900 -0.10700
N 	N 	0.90920 0.42100 0.79290 -0.24400
N 	N 	0.92870 0.39984 0.87040 -0.19000
N 	N 	0.94110 0.35000 0.76250 -0.23600
O 	O 	0.99870 0.40860 0.67170 -0.34900
H 	H 	0.00800 0.42960 0.67900 0.24600
O 	O 	0.98260 0.42010 0.00010 -0.81300
H 	H 	0.97800 0.44190 0.01100 0.31000
H 	H 	0.00730 0.38950 0.95240 0.27600
H 	H 	0.99280 0.42160 0.98020 0.73900
C 	C 	0.96840 0.38060 0.66220 0.05200
H 	H 	0.97650 0.36500 0.63910 -0.02300
H 	H 	0.94400 0.39460 0.65550 0.03800
O 	O 	0.97210 0.37250 0.99470 -0.17600
H 	H 	0.98690 0.35240 0.99220 0.04800
C 	C 	0.92550 0.51900 0.78340 -0.04500
C 	C 	0.89550 0.55210 0.72170 -0.02000
C 	C 	0.95590 0.60640 0.60210 -0.15400
H 	H 	0.97830 0.62150 0.60880 0.06200
C 	C 	0.95310 0.59190 0.56390 0.30300
C 	C 	0.92120 0.56920 0.55470 -0.25400
H 	H 	0.91850 0.55810 0.52930 0.15000
C 	C 	0.89290 0.56260 0.58310 0.04900
H 	H 	0.87060 0.54720 0.57730 0.01800
C 	C 	0.89760 0.57870 0.61970 -0.03700
H 	H 	0.87780 0.57450 0.63870 0.02700
C 	C 	0.95080 0.62770 0.76900 0.02600
H 	H 	0.95040 0.60000 0.76730 0.02400
C 	C 	0.96130 0.64590 0.80380 -0.03100
C 	C 	0.96150 0.68570 0.80730 0.00100
H 	H 	0.96890 0.69780 0.83120 0.03200
C 	C 	0.95100 0.70720 0.77690 -0.09600
H 	H 	0.95070 0.73490 0.77890 0.07000
C 	C 	0.94080 0.68960 0.74260 0.05600
H 	H 	0.93320 0.70560 0.72130 -0.00500
C 	C 	0.98500 0.60100 0.53410 -0.83800
H 	H 	0.98270 0.62830 0.52940 0.37900
H 	H 	0.01040 0.59610 0.54420 -0.06800
C 	C 	0.97520 0.62430 0.83920 0.03800
H 	H 	0.99070 0.64220 0.85590 0.06000
H 	H 	0.95240 0.61530 0.85450 -0.00800
N 	N 	0.95180 0.53000 0.80100 -0.10700
N 	N 	0.90920 0.57900 0.70710 -0.24400
N 	N 	0.92870 0.60016 0.62960 -0.19100
N 	N 	0.94110 0.65000 0.73750 -0.23600
O 	O 	0.99870 0.59140 0.82830 -0.34900
H 	H 	0.00800 0.57040 0.82100 0.24600
O 	O 	0.98260 0.57990 0.49990 -0.80000
H 	H 	0.97800 0.55810 0.48900 0.30700
H 	H 	0.00730 0.61050 0.54760 0.27100
H 	H 	0.99280 0.57840 0.51980 0.72700
C 	C 	0.96840 0.61940 0.83780 0.05200
H 	H 	0.97650 0.63500 0.86090 -0.02300
H 	H 	0.94400 0.60540 0.84450 0.03800
O 	O 	0.97210 0.62750 0.50530 -0.18100
H 	H 	0.98690 0.64760 0.50780 0.04900
C 	C 	0.42550 0.01900 0.28340 -0.04600
C 	C 	0.39550 0.05210 0.22170 -0.02000
C 	C 	0.45590 0.10640 0.10210 -0.15600
H 	H 	0.47830 0.12150 0.10880 0.06200
C 	C 	0.45310 0.09190 0.06390 0.30700
C 	C 	0.42120 0.06920 0.05470 -0.25700
H 	H 	0.41850 0.05810 0.02930 0.14900
C 	C 	0.39290 0.06260 0.08310 0.05100
H 	H 	0.37060 0.04720 0.07730 0.01600
C 	C 	0.39760 0.07870 0.11970 -0.03700
H 	H 	0.37780 0.07450 0.13870 0.02800
C 	C 	0.45080 0.12770 0.26900 0.02700
H 	H 	0.45040 0.10000 0.26730 0.02400
C 	C 	0.46130 0.14590 0.30380 -0.03200
C 	C 	0.46150 0.18570 0.30730 0.00200
H 	H 	0.46890 0.19780 0.33120 0.03100
C 	C 	0.45100 0.20720 0.27690 -0.09700
H 	H 	0.45070 0.23490 0.27890 0.07000
C 	C 	0.44080 0.18960 0.24260 0.05600
H 	H 	0.43320 0.20560 0.22130 -0.00500
C 	C 	0.48500 0.10100 0.03410 -0.85100
H 	H 	0.48270 0.12830 0.02940 0.38400
H 	H 	0.51040 0.09610 0.04420 -0.06200
C 	C 	0.47520 0.12430 0.33920 0.04000
H 	H 	0.49070 0.14220 0.35590 0.05900
H 	H 	0.45240 0.11530 0.35450 -0.01000
N 	N 	0.45180 0.03000 0.30100 -0.10900
N 	N 	0.40920 0.07900 0.20710 -0.24400
N 	N 	0.42870 0.10016 0.12960 -0.19000
N 	N 	0.44110 0.15000 0.23750 -0.23600
O 	O 	0.49870 0.09140 0.32830 -0.35500
H 	H 	0.50800 0.07040 0.32100 0.25100
O 	O 	0.48260 0.07990 0.99990 -0.78700
H 	H 	0.47800 0.05810 0.98900 0.30200
H 	H 	0.50730 0.11050 0.04760 0.27200
H 	H 	0.49280 0.07840 0.01980 0.72200
C 	C 	0.46840 0.11940 0.33780 0.05300
H 	H 	0.47650 0.13500 0.36090 -0.02400
H 	H 	0.44400 0.10540 0.34450 0.03800
O 	O 	0.47210 0.12750 0.00530 -0.18400
H 	H 	0.48690 0.14760 0.00780 0.04600
C 	C 	0.71660 0.07450 0.01900 -0.04600
C 	C 	0.77830 0.10450 0.05210 -0.02000
C 	C 	0.89790 0.04410 0.10640 -0.16400
H 	H 	0.89120 0.02170 0.12150 0.06300
C 	C 	0.93610 0.04690 0.09190 0.32100
C 	C 	0.94530 0.07880 0.06920 -0.26700
H 	H 	0.97070 0.08150 0.05810 0.15500
C 	C 	0.91690 0.10710 0.06260 0.05700
H 	H 	0.92270 0.12940 0.04720 0.01400
C 	C 	0.88030 0.10240 0.07870 -0.04100
H 	H 	0.86130 0.12220 0.07450 0.02900
C 	C 	0.73100 0.04920 0.12770 0.02700
H 	H 	0.73270 0.04960 0.10000 0.02400
C 	C 	0.69620 0.03870 0.14590 -0.03400
C 	C 	0.69270 0.03850 0.18570 0.00300
H 	H 	0.66880 0.03110 0.19780 0.03100
C 	C 	0.72310 0.04900 0.20720 -0.09800
H 	H 	0.72110 0.04930 0.23490 0.06900
C 	C 	0.75740 0.05920 0.18960 0.05600
H 	H 	0.77870 0.06680 0.20560 -0.00500
C 	C 	0.96590 0.01500 0.10100 -0.89000
H 	H 	0.97060 0.01730 0.12830 0.39200
H 	H 	0.95580 0.98960 0.09610 -0.06400
C 	C 	0.66080 0.02480 0.12430 0.04100
H 	H 	0.64410 0.00930 0.14220 0.05700
H 	H 	0.64550 0.04760 0.11530 -0.01200
N 	N 	0.69900 0.04820 0.03000 -0.10900
N 	N 	0.79290 0.09080 0.07900 -0.24400
N 	N 	0.87040 0.07130 0.10016 -0.18800
N 	N 	0.76250 0.05890 0.15000 -0.23700
O 	O 	0.67170 0.00130 0.09140 -0.36200
H 	H 	0.67900 0.99200 0.07040 0.25700
O 	O 	0.00010 0.01740 0.07990 -0.81600
H 	H 	0.01100 0.02200 0.05810 0.30800
H 	H 	0.95240 0.99270 0.11050 0.28700
H 	H 	0.98020 0.00720 0.07840 0.75100
C 	C 	0.66220 0.03160 0.11940 0.05500
H 	H 	0.63910 0.02350 0.13500 -0.02400
H 	H 	0.65550 0.05600 0.10540 0.03900
O 	O 	0.99470 0.02790 0.12750 -0.17200
H 	H 	0.99220 0.01310 0.14760 0.04100
C 	C 	0.21660 0.57450 0.51900 -0.04500
C 	C 	0.27830 0.60450 0.55210 -0.02000
C 	C 	0.39790 0.54410 0.60640 -0.15800
H 	H 	0.39120 0.52170 0.62150 0.06200
C 	C 	0.43610 0.54690 0.59190 0.31100
C 	C 	0.44530 0.57880 0.56920 -0.26000
H 	H 	0.47070 0.58150 0.55810 0.15100
C 	C 	0.41690 0.60710 0.56260 0.05200
H 	H 	0.42270 0.62940 0.54720 0.01600
C 	C 	0.38030 0.60240 0.57870 -0.03800
H 	H 	0.36130 0.62220 0.57450 0.02800
C 	C 	0.23100 0.54920 0.62770 0.02700
H 	H 	0.23270 0.54960 0.60000 0.02400
C 	C 	0.19620 0.53870 0.64590 -0.03200
C 	C 	0.19270 0.53850 0.68570 0.00200
H 	H 	0.16880 0.53110 0.69780 0.03100
C 	C 	0.22310 0.54900 0.70720 -0.09700
H 	H 	0.22110 0.54930 0.73490 0.07000
C 	C 	0.25740 0.55920 0.68960 0.05600
H 	H 	0.27870 0.56680 0.70560 -0.00500
C 	C 	0.46590 0.51500 0.60100 -0.86000
H 	H 	0.47060 0.51730 0.62830 0.38500
H 	H 	0.45580 0.48960 0.59610 -0.06500
C 	C 	0.16080 0.52480 0.62430 0.04000
H 	H 	0.14410 0.50930 0.64220 0.05900
H 	H 	0.14550 0.54760 0.61530 -0.01000
N 	N 	0.19900 0.54820 0.53000 -0.10800
N 	N 	0.29290 0.59080 0.57900 -0.24400
N 	N 	0.37040 0.57130 0.60016 -0.19000
N 	N 	0.26250 0.55890 0.65000 -0.23600
O 	O 	0.17170 0.50130 0.59140 -0.35500
H 	H 	0.17900 0.49200 0.57040 0.25100
O 	O 	0.50010 0.51740 0.57990 -0.80100
H 	H 	0.51100 0.52200 0.55810 0.30600
H 	H 	0.45240 0.49270 0.61050 0.27700
H 	H 	0.48020 0.50720 0.57840 0.73400
C 	C 	0.16220 0.53160 0.61940 0.05400
H 	H 	0.13910 0.52350 0.63500 -0.02400
H 	H 	0.15550 0.55600 0.60540 0.03800
O 	O 	0.49470 0.52790 0.62750 -0.17900
H 	H 	0.49220 0.51310 0.64760 0.04500
C 	C 	0.28340 0.57450 0.48100 -0.04500
C 	C 	0.22170 0.60450 0.44790 -0.02000
C 	C 	0.10210 0.54410 0.39360 -0.15600
H 	H 	0.10880 0.52170 0.37850 0.06200
C 	C 	0.06390 0.54690 0.40810 0.30700
C 	C 	0.05470 0.57880 0.43080 -0.25700
H 	H 	0.02930 0.58150 0.44190 0.14900
C 	C 	0.08310 0.60710 0.43740 0.05000
H 	H 	0.07730 0.62940 0.45280 0.01700
C 	C 	0.11970 0.60240 0.42130 -0.03700
H 	H 	0.13870 0.62220 0.42550 0.02800
C 	C 	0.26900 0.54920 0.37230 0.02700
H 	H 	0.26730 0.54960 0.40000 0.02400
C 	C 	0.30380 0.53870 0.35410 -0.03200
C 	C 	0.30730 0.53850 0.31430 0.00200
H 	H 	0.33120 0.53110 0.30220 0.03100
C 	C 	0.27690 0.54900 0.29280 -0.09700
H 	H 	0.27890 0.54930 0.26510 0.07000
C 	C 	0.24260 0.55920 0.31040 0.05600
H 	H 	0.22130 0.56680 0.29440 -0.00500
C 	C 	0.03410 0.51500 0.39900 -0.85100
H 	H 	0.02940 0.51730 0.37170 0.38400
H 	H 	0.04420 0.48960 0.40390 -0.06200
C 	C 	0.33920 0.52480 0.37570 0.04000
H 	H 	0.35590 0.50930 0.35780 0.05900
H 	H 	0.35450 0.54760 0.38470 -0.01000
N 	N 	0.30100 0.54820 0.47000 -0.10800
N 	N 	0.20710 0.59080 0.42100 -0.24400
N 	N 	0.12960 0.57130 0.39984 -0.19000
N 	N 	0.23750 0.55890 0.35000 -0.23600
O 	O 	0.32830 0.50130 0.40860 -0.35500
H 	H 	0.32100 0.49200 0.42960 0.25100
O 	O 	0.99990 0.51740 0.42010 -0.78800
H 	H 	0.98900 0.52200 0.44190 0.30300
H 	H 	0.04760 0.49270 0.38950 0.27200
H 	H 	0.01980 0.50720 0.42160 0.72200
C 	C 	0.33780 0.53160 0.38060 0.05400
H 	H 	0.36090 0.52350 0.36500 -0.02400
H 	H 	0.34450 0.55600 0.39460 0.03800
O 	O 	0.00530 0.52790 0.37250 -0.18400
H 	H 	0.00780 0.51310 0.35240 0.04600
C 	C 	0.78340 0.07450 0.98100 -0.04200
C 	C 	0.72170 0.10450 0.94790 -0.01800
C 	C 	0.60210 0.04410 0.89360 -0.16200
H 	H 	0.60880 0.02170 0.87850 0.06300
C 	C 	0.56390 0.04690 0.90810 0.31800
C 	C 	0.55470 0.07880 0.93080 -0.26500
H 	H 	0.52930 0.08150 0.94190 0.15300
C 	C 	0.58310 0.10710 0.93740 0.05500
H 	H 	0.57730 0.12940 0.95280 0.01600
C 	C 	0.61970 0.10240 0.92130 -0.04000
H 	H 	0.63870 0.12220 0.92550 0.02900
C 	C 	0.76900 0.04920 0.87230 0.02700
H 	H 	0.76730 0.04960 0.90000 0.02400
C 	C 	0.80380 0.03870 0.85410 -0.03400
C 	C 	0.80730 0.03850 0.81430 0.00300
H 	H 	0.83120 0.03110 0.80220 0.03100
C 	C 	0.77690 0.04900 0.79280 -0.09800
H 	H 	0.77890 0.04930 0.76510 0.07000
C 	C 	0.74260 0.05920 0.81040 0.05600
H 	H 	0.72130 0.06680 0.79440 -0.00500
C 	C 	0.53410 0.01500 0.89900 -0.88200
H 	H 	0.52940 0.01730 0.87170 0.39100
H 	H 	0.54420 0.98960 0.90390 -0.06100
C 	C 	0.83920 0.02480 0.87570 0.04100
H 	H 	0.85590 0.00930 0.85780 0.05800
H 	H 	0.85450 0.04760 0.88470 -0.01200
N 	N 	0.80100 0.04820 0.97000 -0.10900
N 	N 	0.70710 0.09080 0.92100 -0.24500
N 	N 	0.62960 0.07130 0.89984 -0.18900
N 	N 	0.73750 0.05890 0.85000 -0.23700
O 	O 	0.82830 0.00130 0.90860 -0.36200
H 	H 	0.82100 0.99200 0.92960 0.25800
O 	O 	0.49990 0.01740 0.92010 -0.80300
H 	H 	0.48900 0.02200 0.94190 0.30600
H 	H 	0.54760 0.99270 0.88950 0.28200
H 	H 	0.51980 0.00720 0.92160 0.74100
C 	C 	0.83780 0.03160 0.88060 0.05500
H 	H 	0.86090 0.02350 0.86500 -0.02400
H 	H 	0.84450 0.05600 0.89460 0.03900
O 	O 	0.50530 0.02790 0.87250 -0.17700
H 	H 	0.50780 0.01310 0.85240 0.04100
C 	C 	0.21660 0.42550 0.98100 -0.04200
C 	C 	0.27830 0.39550 0.94790 -0.01800
C 	C 	0.39790 0.45590 0.89360 -0.15800
H 	H 	0.39120 0.47830 0.87850 0.06200
C 	C 	0.43610 0.45310 0.90810 0.31100
C 	C 	0.44530 0.42120 0.93080 -0.25900
H 	H 	0.47070 0.41850 0.94190 0.15200
C 	C 	0.41690 0.39290 0.93740 0.05200
H 	H 	0.42270 0.37060 0.95280 0.01700
C 	C 	0.38030 0.39760 0.92130 -0.03800
H 	H 	0.36130 0.37780 0.92550 0.02800
C 	C 	0.23100 0.45080 0.87230 0.02700
H 	H 	0.23270 0.45040 0.90000 0.02400
C 	C 	0.19620 0.46130 0.85410 -0.03200
C 	C 	0.19270 0.46150 0.81430 0.00200
H 	H 	0.16880 0.46890 0.80220 0.03100
C 	C 	0.22310 0.45100 0.79280 -0.09700
H 	H 	0.22110 0.45070 0.76510 0.07000
C 	C 	0.25740 0.44080 0.81040 0.05600
H 	H 	0.27870 0.43320 0.79440 -0.00500
C 	C 	0.46590 0.48500 0.89900 -0.86000
H 	H 	0.47060 0.48270 0.87170 0.38500
H 	H 	0.45580 0.51040 0.90390 -0.06500
C 	C 	0.16080 0.47520 0.87570 0.04000
H 	H 	0.14410 0.49070 0.85780 0.05900
H 	H 	0.14550 0.45240 0.88470 -0.01000
N 	N 	0.19900 0.45180 0.97000 -0.10800
N 	N 	0.29290 0.40920 0.92100 -0.24500
N 	N 	0.37040 0.42870 0.89984 -0.19000
N 	N 	0.26250 0.44110 0.85000 -0.23600
O 	O 	0.17170 0.49870 0.90860 -0.35500
H 	H 	0.17900 0.50800 0.92960 0.25200
O 	O 	0.50010 0.48260 0.92010 -0.80200
H 	H 	0.51100 0.47800 0.94190 0.30700
H 	H 	0.45240 0.50730 0.88950 0.27700
H 	H 	0.48020 0.49280 0.92160 0.73400
C 	C 	0.16220 0.46840 0.88060 0.05400
H 	H 	0.13910 0.47650 0.86500 -0.02400
H 	H 	0.15550 0.44400 0.89460 0.03800
O 	O 	0.49470 0.47210 0.87250 -0.17900
H 	H 	0.49220 0.48690 0.85240 0.04500
C 	C 	0.71660 0.92550 0.48100 -0.04500
C 	C 	0.77830 0.89550 0.44790 -0.02000
C 	C 	0.89790 0.95590 0.39360 -0.15600
H 	H 	0.89120 0.97830 0.37850 0.06300
C 	C 	0.93610 0.95310 0.40810 0.30700
C 	C 	0.94530 0.92120 0.43080 -0.25700
H 	H 	0.97070 0.91850 0.44190 0.15200
C 	C 	0.91690 0.89290 0.43740 0.05100
H 	H 	0.92270 0.87060 0.45280 0.01700
C 	C 	0.88030 0.89760 0.42130 -0.03800
H 	H 	0.86130 0.87780 0.42550 0.02800
C 	C 	0.73100 0.95080 0.37230 0.02600
H 	H 	0.73270 0.95040 0.40000 0.02400
C 	C 	0.69620 0.96130 0.35410 -0.03100
C 	C 	0.69270 0.96150 0.31430 0.00100
H 	H 	0.66880 0.96890 0.30220 0.03200
C 	C 	0.72310 0.95100 0.29280 -0.09600
H 	H 	0.72110 0.95070 0.26510 0.07000
C 	C 	0.75740 0.94080 0.31040 0.05600
H 	H 	0.77870 0.93320 0.29440 -0.00500
C 	C 	0.96590 0.98500 0.39900 -0.84600
H 	H 	0.97060 0.98270 0.37170 0.38000
H 	H 	0.95580 0.01040 0.40390 -0.07100
C 	C 	0.66080 0.97520 0.37570 0.03800
H 	H 	0.64410 0.99070 0.35780 0.06000
H 	H 	0.64550 0.95240 0.38470 -0.00800
N 	N 	0.69900 0.95180 0.47000 -0.10700
N 	N 	0.79290 0.90920 0.42100 -0.24400
N 	N 	0.87040 0.92870 0.39984 -0.19000
N 	N 	0.76250 0.94110 0.35000 -0.23600
O 	O 	0.67170 0.99870 0.40860 -0.34900
H 	H 	0.67900 0.00800 0.42960 0.24600
O 	O 	0.00010 0.98260 0.42010 -0.81300
H 	H 	0.01100 0.97800 0.44190 0.31000
H 	H 	0.95240 0.00730 0.38950 0.27600
H 	H 	0.98020 0.99280 0.42160 0.73900
C 	C 	0.66220 0.96840 0.38060 0.05200
H 	H 	0.63910 0.97650 0.36500 -0.02300
H 	H 	0.65550 0.94400 0.39460 0.03800
O 	O 	0.99470 0.97210 0.37250 -0.17600
H 	H 	0.99220 0.98690 0.35240 0.04800
C 	C 	0.78340 0.92550 0.51900 -0.04500
C 	C 	0.72170 0.89550 0.55210 -0.02000
C 	C 	0.60210 0.95590 0.60640 -0.15400
H 	H 	0.60880 0.97830 0.62150 0.06200
C 	C 	0.56390 0.95310 0.59190 0.30300
C 	C 	0.55470 0.92120 0.56920 -0.25400
H 	H 	0.52930 0.91850 0.55810 0.15000
C 	C 	0.58310 0.89290 0.56260 0.04900
H 	H 	0.57730 0.87060 0.54720 0.01800
C 	C 	0.61970 0.89760 0.57870 -0.03700
H 	H 	0.63870 0.87780 0.57450 0.02700
C 	C 	0.76900 0.95080 0.62770 0.02600
H 	H 	0.76730 0.95040 0.60000 0.02400
C 	C 	0.80380 0.96130 0.64590 -0.03100
C 	C 	0.80730 0.96150 0.68570 0.00100
H 	H 	0.83120 0.96890 0.69780 0.03200
C 	C 	0.77690 0.95100 0.70720 -0.09600
H 	H 	0.77890 0.95070 0.73490 0.07000
C 	C 	0.74260 0.94080 0.68960 0.05600
H 	H 	0.72130 0.93320 0.70560 -0.00500
C 	C 	0.53410 0.98500 0.60100 -0.83800
H 	H 	0.52940 0.98270 0.62830 0.37900
H 	H 	0.54420 0.01040 0.59610 -0.06800
C 	C 	0.83920 0.97520 0.62430 0.03800
H 	H 	0.85590 0.99070 0.64220 0.06000
H 	H 	0.85450 0.95240 0.61530 -0.00800
N 	N 	0.80100 0.95180 0.53000 -0.10700
N 	N 	0.70710 0.90920 0.57900 -0.24400
N 	N 	0.62960 0.92870 0.60016 -0.19100
N 	N 	0.73750 0.94110 0.65000 -0.23600
O 	O 	0.82830 0.99870 0.59140 -0.34900
H 	H 	0.82100 0.00800 0.57040 0.24600
O 	O 	0.49990 0.98260 0.57990 -0.80000
H 	H 	0.48900 0.97800 0.55810 0.30700
H 	H 	0.54760 0.00730 0.61050 0.27100
H 	H 	0.51980 0.99280 0.57840 0.72700
C 	C 	0.83780 0.96840 0.61940 0.05200
H 	H 	0.86090 0.97650 0.63500 -0.02300
H 	H 	0.84450 0.94400 0.60540 0.03800
O 	O 	0.50530 0.97210 0.62750 -0.18100
H 	H 	0.50780 0.98690 0.64760 0.04900
C 	C 	0.28340 0.42550 0.01900 -0.04600
C 	C 	0.22170 0.39550 0.05210 -0.02000
C 	C 	0.10210 0.45590 0.10640 -0.15600
H 	H 	0.10880 0.47830 0.12150 0.06200
C 	C 	0.06390 0.45310 0.09190 0.30700
C 	C 	0.05470 0.42120 0.06920 -0.25700
H 	H 	0.02930 0.41850 0.05810 0.14900
C 	C 	0.08310 0.39290 0.06260 0.05100
H 	H 	0.07730 0.37060 0.04720 0.01600
C 	C 	0.11970 0.39760 0.07870 -0.03700
H 	H 	0.13870 0.37780 0.07450 0.02800
C 	C 	0.26900 0.45080 0.12770 0.02700
H 	H 	0.26730 0.45040 0.10000 0.02400
C 	C 	0.30380 0.46130 0.14590 -0.03200
C 	C 	0.30730 0.46150 0.18570 0.00200
H 	H 	0.33120 0.46890 0.19780 0.03100
C 	C 	0.27690 0.45100 0.20720 -0.09700
H 	H 	0.27890 0.45070 0.23490 0.07000
C 	C 	0.24260 0.44080 0.18960 0.05600
H 	H 	0.22130 0.43320 0.20560 -0.00500
C 	C 	0.03410 0.48500 0.10100 -0.85100
H 	H 	0.02940 0.48270 0.12830 0.38400
H 	H 	0.04420 0.51040 0.09610 -0.06200
C 	C 	0.33920 0.47520 0.12430 0.04000
H 	H 	0.35590 0.49070 0.14220 0.05900
H 	H 	0.35450 0.45240 0.11530 -0.01000
N 	N 	0.30100 0.45180 0.03000 -0.10900
N 	N 	0.20710 0.40920 0.07900 -0.24400
N 	N 	0.12960 0.42870 0.10016 -0.19000
N 	N 	0.23750 0.44110 0.15000 -0.23600
O 	O 	0.32830 0.49870 0.09140 -0.35500
H 	H 	0.32100 0.50800 0.07040 0.25100
O 	O 	0.99990 0.48260 0.07990 -0.78700
H 	H 	0.98900 0.47800 0.05810 0.30200
H 	H 	0.04760 0.50730 0.11050 0.27200
H 	H 	0.01980 0.49280 0.07840 0.72200
C 	C 	0.33780 0.46840 0.11940 0.05300
H 	H 	0.36090 0.47650 0.13500 -0.02400
H 	H 	0.34450 0.44400 0.10540 0.03800
O 	O 	0.00530 0.47210 0.12750 -0.18400
H 	H 	0.00780 0.48690 0.14760 0.04600
C 	C 	0.46660 0.26900 0.17550 -0.04500
C 	C 	0.52830 0.30210 0.14550 -0.02000
C 	C 	0.64790 0.35640 0.20590 -0.15800
H 	H 	0.64120 0.37150 0.22830 0.06200
C 	C 	0.68610 0.34190 0.20310 0.31100
C 	C 	0.69530 0.31920 0.17120 -0.26000
H 	H 	0.72070 0.30810 0.16850 0.15100
C 	C 	0.66690 0.31260 0.14290 0.05200
H 	H 	0.67270 0.29720 0.12060 0.01700
C 	C 	0.63030 0.32870 0.14760 -0.03800
H 	H 	0.61130 0.32450 0.12780 0.02800
C 	C 	0.48100 0.37770 0.20080 0.02700
H 	H 	0.48270 0.35000 0.20040 0.02400
C 	C 	0.44620 0.39590 0.21130 -0.03200
C 	C 	0.44270 0.43570 0.21150 0.00200
H 	H 	0.41880 0.44780 0.21890 0.03100
C 	C 	0.47310 0.45720 0.20100 -0.09700
H 	H 	0.47110 0.48490 0.20070 0.07000
C 	C 	0.50740 0.43960 0.19080 0.05600
H 	H 	0.52870 0.45560 0.18320 -0.00500
C 	C 	0.71590 0.35100 0.23500 -0.86000
H 	H 	0.72060 0.37830 0.23270 0.38500
H 	H 	0.70580 0.34610 0.26040 -0.06500
C 	C 	0.41080 0.37430 0.22520 0.04000
H 	H 	0.39410 0.39220 0.24070 0.05900
H 	H 	0.39550 0.36530 0.20240 -0.01000
N 	N 	0.44900 0.28000 0.20180 -0.10800
N 	N 	0.54290 0.32900 0.15920 -0.24400
N 	N 	0.62040 0.35016 0.17870 -0.19000
N 	N 	0.51250 0.40000 0.19110 -0.23600
O 	O 	0.42170 0.34140 0.24870 -0.35500
H 	H 	0.42900 0.32040 0.25800 0.25100
O 	O 	0.75010 0.32990 0.23260 -0.80100
H 	H 	0.76100 0.30810 0.22800 0.30600
H 	H 	0.70240 0.36050 0.25730 0.27700
H 	H 	0.73020 0.32840 0.24280 0.73400
C 	C 	0.41220 0.36940 0.21840 0.05400
H 	H 	0.38910 0.38500 0.22650 -0.02400
H 	H 	0.40550 0.35540 0.19400 0.03800
O 	O 	0.74470 0.37750 0.22210 -0.17900
H 	H 	0.74220 0.39760 0.23690 0.04500
C 	C 	0.96660 0.76900 0.67550 -0.04200
C 	C 	0.02830 0.80210 0.64550 -0.02100
C 	C 	0.14790 0.85640 0.70590 -0.15800
H 	H 	0.14120 0.87150 0.72830 0.06200
C 	C 	0.18610 0.84190 0.70310 0.31100
C 	C 	0.19530 0.81920 0.67120 -0.26000
H 	H 	0.22070 0.80810 0.66850 0.15100
C 	C 	0.16690 0.81260 0.64290 0.05200
H 	H 	0.17270 0.79720 0.62060 0.01700
C 	C 	0.13030 0.82870 0.64760 -0.03800
H 	H 	0.11130 0.82450 0.62780 0.02800
C 	C 	0.98100 0.87770 0.70080 0.02900
H 	H 	0.98270 0.85000 0.70040 0.02400
C 	C 	0.94620 0.89590 0.71130 -0.03100
C 	C 	0.94270 0.93570 0.71150 -0.00200
H 	H 	0.91880 0.94780 0.71890 0.03400
C 	C 	0.97310 0.95720 0.70100 -0.08800
H 	H 	0.97110 0.98490 0.70070 0.06900
C 	C 	0.00740 0.93960 0.69080 0.04800
H 	H 	0.02870 0.95560 0.68320 -0.00200
C 	C 	0.21590 0.85100 0.73500 -0.86000
H 	H 	0.22060 0.87830 0.73270 0.38500
H 	H 	0.20580 0.84610 0.76040 -0.06500
C 	C 	0.91080 0.87430 0.72520 0.03900
H 	H 	0.89410 0.89220 0.74070 0.05900
H 	H 	0.89550 0.86530 0.70240 -0.00900
N 	N 	0.94900 0.78000 0.70180 -0.10800
N 	N 	0.04290 0.82900 0.65920 -0.24400
N 	N 	0.12040 0.85016 0.67870 -0.19000
N 	N 	0.01250 0.90000 0.69110 -0.23700
O 	O 	0.92170 0.84140 0.74870 -0.35500
H 	H 	0.92900 0.82040 0.75800 0.25200
O 	O 	0.25010 0.82990 0.73260 -0.80100
H 	H 	0.26100 0.80810 0.72800 0.30600
H 	H 	0.20240 0.86050 0.75730 0.27700
H 	H 	0.23020 0.82840 0.74280 0.73400
C 	C 	0.91220 0.86940 0.71840 0.05300
H 	H 	0.88910 0.88500 0.72650 -0.02400
H 	H 	0.90550 0.85540 0.69400 0.03800
O 	O 	0.24470 0.87750 0.72210 -0.17900
H 	H 	0.24220 0.89760 0.73690 0.04500
C 	C 	0.03340 0.73100 0.67550 -0.04600
C 	C 	0.97170 0.69790 0.64550 -0.01700
C 	C 	0.85210 0.64360 0.70590 -0.15800
H 	H 	0.85880 0.62850 0.72830 0.06200
C 	C 	0.81390 0.65810 0.70310 0.31100
C 	C 	0.80470 0.68080 0.67120 -0.26000
H 	H 	0.77930 0.69190 0.66850 0.15100
C 	C 	0.83310 0.68740 0.64290 0.05200
H 	H 	0.82730 0.70280 0.62060 0.01600
C 	C 	0.86970 0.67130 0.64760 -0.03800
H 	H 	0.88870 0.67550 0.62780 0.02800
C 	C 	0.01900 0.62230 0.70080 0.02400
H 	H 	0.01730 0.65000 0.70040 0.02400
C 	C 	0.05380 0.60410 0.71130 -0.03400
C 	C 	0.05730 0.56430 0.71150 0.00600
H 	H 	0.08120 0.55220 0.71890 0.03000
C 	C 	0.02690 0.54280 0.70100 -0.10600
H 	H 	0.02890 0.51510 0.70070 0.07200
C 	C 	0.99260 0.56040 0.69080 0.06400
H 	H 	0.97130 0.54440 0.68320 -0.00700
C 	C 	0.78410 0.64900 0.73500 -0.86000
H 	H 	0.77940 0.62170 0.73270 0.38500
H 	H 	0.79420 0.65390 0.76040 -0.06500
C 	C 	0.08920 0.62570 0.72520 0.04000
H 	H 	0.10590 0.60780 0.74070 0.05800
H 	H 	0.10450 0.63470 0.70240 -0.01000
N 	N 	0.05100 0.72000 0.70180 -0.10800
N 	N 	0.95710 0.67100 0.65920 -0.24400
N 	N 	0.87960 0.64984 0.67870 -0.19000
N 	N 	0.98750 0.60000 0.69110 -0.23600
O 	O 	0.07830 0.65860 0.74870 -0.35600
H 	H 	0.07100 0.67960 0.75800 0.25100
O 	O 	0.74990 0.67010 0.73260 -0.80100
H 	H 	0.73900 0.69190 0.72800 0.30600
H 	H 	0.79760 0.63950 0.75730 0.27700
H 	H 	0.76980 0.67160 0.74280 0.73400
C 	C 	0.08780 0.63060 0.71840 0.05400
H 	H 	0.11090 0.61500 0.72650 -0.02400
H 	H 	0.09450 0.64460 0.69400 0.03800
O 	O 	0.75530 0.62250 0.72210 -0.17900
H 	H 	0.75780 0.60240 0.73690 0.04500
C 	C 	0.53340 0.23100 0.17550 -0.04500
C 	C 	0.47170 0.19790 0.14550 -0.02000
C 	C 	0.35210 0.14360 0.20590 -0.15800
H 	H 	0.35880 0.12850 0.22830 0.06200
C 	C 	0.31390 0.15810 0.20310 0.31100
C 	C 	0.30470 0.18080 0.17120 -0.26000
H 	H 	0.27930 0.19190 0.16850 0.15100
C 	C 	0.33310 0.18740 0.14290 0.05200
H 	H 	0.32730 0.20280 0.12060 0.01700
C 	C 	0.36970 0.17130 0.14760 -0.03800
H 	H 	0.38870 0.17550 0.12780 0.02800
C 	C 	0.51900 0.12230 0.20080 0.02700
H 	H 	0.51730 0.15000 0.20040 0.02400
C 	C 	0.55380 0.10410 0.21130 -0.03200
C 	C 	0.55730 0.06430 0.21150 0.00200
H 	H 	0.58120 0.05220 0.21890 0.03100
C 	C 	0.52690 0.04280 0.20100 -0.09700
H 	H 	0.52890 0.01510 0.20070 0.06800
C 	C 	0.49260 0.06040 0.19080 0.05600
H 	H 	0.47130 0.04440 0.18320 -0.00600
C 	C 	0.28410 0.14900 0.23500 -0.86000
H 	H 	0.27940 0.12170 0.23270 0.38500
H 	H 	0.29420 0.15390 0.26040 -0.06500
C 	C 	0.58920 0.12570 0.22520 0.04000
H 	H 	0.60590 0.10780 0.24070 0.05800
H 	H 	0.60450 0.13470 0.20240 -0.01000
N 	N 	0.55100 0.22000 0.20180 -0.10800
N 	N 	0.45710 0.17100 0.15920 -0.24400
N 	N 	0.37960 0.14984 0.17870 -0.19000
N 	N 	0.48750 0.10000 0.19110 -0.23600
O 	O 	0.57830 0.15860 0.24870 -0.35500
H 	H 	0.57100 0.17960 0.25800 0.25100
O 	O 	0.24990 0.17010 0.23260 -0.80100
H 	H 	0.23900 0.19190 0.22800 0.30600
H 	H 	0.29760 0.13950 0.25730 0.27700
H 	H 	0.26980 0.17160 0.24280 0.73400
C 	C 	0.58780 0.13060 0.21840 0.05400
H 	H 	0.61090 0.11500 0.22650 -0.02300
H 	H 	0.59450 0.14460 0.19400 0.03800
O 	O 	0.25530 0.12250 0.22210 -0.17900
H 	H 	0.25780 0.10240 0.23690 0.04500
C 	C 	0.96660 0.23100 0.82450 -0.04200
C 	C 	0.02830 0.19790 0.85450 -0.02100
C 	C 	0.14790 0.14360 0.79410 -0.15800
H 	H 	0.14120 0.12850 0.77170 0.06200
C 	C 	0.18610 0.15810 0.79690 0.31100
C 	C 	0.19530 0.18080 0.82880 -0.26000
H 	H 	0.22070 0.19190 0.83150 0.15100
C 	C 	0.16690 0.18740 0.85710 0.05200
H 	H 	0.17270 0.20280 0.87940 0.01600
C 	C 	0.13030 0.17130 0.85240 -0.03800
H 	H 	0.11130 0.17550 0.87220 0.02800
C 	C 	0.98100 0.12230 0.79920 0.02900
H 	H 	0.98270 0.15000 0.79960 0.02400
C 	C 	0.94620 0.10410 0.78870 -0.03100
C 	C 	0.94270 0.06430 0.78850 -0.00300
H 	H 	0.91880 0.05220 0.78110 0.03300
C 	C 	0.97310 0.04280 0.79900 -0.08800
H 	H 	0.97110 0.01510 0.79930 0.06600
C 	C 	0.00740 0.06040 0.80920 0.04800
H 	H 	0.02870 0.04440 0.81680 -0.00300
C 	C 	0.21590 0.14900 0.76500 -0.86000
H 	H 	0.22060 0.12170 0.76730 0.38500
H 	H 	0.20580 0.15390 0.73960 -0.06500
C 	C 	0.91080 0.12570 0.77480 0.03900
H 	H 	0.89410 0.10780 0.75930 0.05900
H 	H 	0.89550 0.13470 0.79760 -0.01000
N 	N 	0.94900 0.22000 0.79820 -0.10800
N 	N 	0.04290 0.17100 0.84080 -0.24400
N 	N 	0.12040 0.14984 0.82130 -0.19000
N 	N 	0.01250 0.10000 0.80890 -0.23700
O 	O 	0.92170 0.15860 0.75130 -0.35500
H 	H 	0.92900 0.17960 0.74200 0.25200
O 	O 	0.25010 0.17010 0.76740 -0.80100
H 	H 	0.26100 0.19190 0.77200 0.30600
H 	H 	0.20240 0.13950 0.74270 0.27700
H 	H 	0.23020 0.17160 0.75720 0.73400
C 	C 	0.91220 0.13060 0.78160 0.05300
H 	H 	0.88910 0.11500 0.77350 -0.02400
H 	H 	0.90550 0.14460 0.80600 0.03800
O 	O 	0.24470 0.12250 0.77790 -0.17900
H 	H 	0.24220 0.10240 0.76310 0.04500
C 	C 	0.46660 0.73100 0.32450 -0.04500
C 	C 	0.52830 0.69790 0.35450 -0.02000
C 	C 	0.64790 0.64360 0.29410 -0.15800
H 	H 	0.64120 0.62850 0.27170 0.06200
C 	C 	0.68610 0.65810 0.29690 0.31100
C 	C 	0.69530 0.68080 0.32880 -0.26000
H 	H 	0.72070 0.69190 0.33150 0.15100
C 	C 	0.66690 0.68740 0.35710 0.05200
H 	H 	0.67270 0.70280 0.37940 0.01600
C 	C 	0.63030 0.67130 0.35240 -0.03800
H 	H 	0.61130 0.67550 0.37220 0.02800
C 	C 	0.48100 0.62230 0.29920 0.02700
H 	H 	0.48270 0.65000 0.29960 0.02400
C 	C 	0.44620 0.60410 0.28870 -0.03200
C 	C 	0.44270 0.56430 0.28850 0.00200
H 	H 	0.41880 0.55220 0.28110 0.03100
C 	C 	0.47310 0.54280 0.29900 -0.09700
H 	H 	0.47110 0.51510 0.29930 0.07000
C 	C 	0.50740 0.56040 0.30920 0.05600
H 	H 	0.52870 0.54440 0.31680 -0.00500
C 	C 	0.71590 0.64900 0.26500 -0.86000
H 	H 	0.72060 0.62170 0.26730 0.38500
H 	H 	0.70580 0.65390 0.23960 -0.06500
C 	C 	0.41080 0.62570 0.27480 0.04000
H 	H 	0.39410 0.60780 0.25930 0.05900
H 	H 	0.39550 0.63470 0.29760 -0.01000
N 	N 	0.44900 0.72000 0.29820 -0.10800
N 	N 	0.54290 0.67100 0.34080 -0.24400
N 	N 	0.62040 0.64984 0.32130 -0.19000
N 	N 	0.51250 0.60000 0.30890 -0.23600
O 	O 	0.42170 0.65860 0.25130 -0.35500
H 	H 	0.42900 0.67960 0.24200 0.25100
O 	O 	0.75010 0.67010 0.26740 -0.80100
H 	H 	0.76100 0.69190 0.27200 0.30600
H 	H 	0.70240 0.63950 0.24270 0.27700
H 	H 	0.73020 0.67160 0.25720 0.73400
C 	C 	0.41220 0.63060 0.28160 0.05400
H 	H 	0.38910 0.61500 0.27350 -0.02400
H 	H 	0.40550 0.64460 0.30600 0.03800
O 	O 	0.74470 0.62250 0.27790 -0.17900
H 	H 	0.74220 0.60240 0.26310 0.04500
C 	C 	0.53340 0.76900 0.32450 -0.04500
C 	C 	0.47170 0.80210 0.35450 -0.02000
C 	C 	0.35210 0.85640 0.29410 -0.15800
H 	H 	0.35880 0.87150 0.27170 0.06200
C 	C 	0.31390 0.84190 0.29690 0.31100
C 	C 	0.30470 0.81920 0.32880 -0.26000
H 	H 	0.27930 0.80810 0.33150 0.15100
C 	C 	0.33310 0.81260 0.35710 0.05200
H 	H 	0.32730 0.79720 0.37940 0.01700
C 	C 	0.36970 0.82870 0.35240 -0.03800
H 	H 	0.38870 0.82450 0.37220 0.02800
C 	C 	0.51900 0.87770 0.29920 0.02700
H 	H 	0.51730 0.85000 0.29960 0.02400
C 	C 	0.55380 0.89590 0.28870 -0.03200
C 	C 	0.55730 0.93570 0.28850 0.00200
H 	H 	0.58120 0.94780 0.28110 0.03200
C 	C 	0.52690 0.95720 0.29900 -0.09700
H 	H 	0.52890 0.98490 0.29930 0.07100
C 	C 	0.49260 0.93960 0.30920 0.05700
H 	H 	0.47130 0.95560 0.31680 -0.00400
C 	C 	0.28410 0.85100 0.26500 -0.86000
H 	H 	0.27940 0.87830 0.26730 0.38500
H 	H 	0.29420 0.84610 0.23960 -0.06500
C 	C 	0.58920 0.87430 0.27480 0.04000
H 	H 	0.60590 0.89220 0.25930 0.05900
H 	H 	0.60450 0.86530 0.29760 -0.01000
N 	N 	0.55100 0.78000 0.29820 -0.10800
N 	N 	0.45710 0.82900 0.34080 -0.24400
N 	N 	0.37960 0.85016 0.32130 -0.19000
N 	N 	0.48750 0.90000 0.30890 -0.23600
O 	O 	0.57830 0.84140 0.25130 -0.35500
H 	H 	0.57100 0.82040 0.24200 0.25100
O 	O 	0.24990 0.82990 0.26740 -0.80100
H 	H 	0.23900 0.80810 0.27200 0.30600
H 	H 	0.29760 0.86050 0.24270 0.27700
H 	H 	0.26980 0.82840 0.25720 0.73400
C 	C 	0.58780 0.86940 0.28160 0.05400
H 	H 	0.61090 0.88500 0.27350 -0.02400
H 	H 	0.59450 0.85540 0.30600 0.03800
O 	O 	0.25530 0.87750 0.27790 -0.17900
H 	H 	0.25780 0.89760 0.26310 0.04500
C 	C 	0.03340 0.26900 0.82450 -0.04600
C 	C 	0.97170 0.30210 0.85450 -0.01700
C 	C 	0.85210 0.35640 0.79410 -0.15800
H 	H 	0.85880 0.37150 0.77170 0.06200
C 	C 	0.81390 0.34190 0.79690 0.31100
C 	C 	0.80470 0.31920 0.82880 -0.26000
H 	H 	0.77930 0.30810 0.83150 0.15100
C 	C 	0.83310 0.31260 0.85710 0.05200
H 	H 	0.82730 0.29720 0.87940 0.01600
C 	C 	0.86970 0.32870 0.85240 -0.03800
H 	H 	0.88870 0.32450 0.87220 0.02800
C 	C 	0.01900 0.37770 0.79920 0.02400
H 	H 	0.01730 0.35000 0.79960 0.02400
C 	C 	0.05380 0.39590 0.78870 -0.03400
C 	C 	0.05730 0.43570 0.78850 0.00600
H 	H 	0.08120 0.44780 0.78110 0.03000
C 	C 	0.02690 0.45720 0.79900 -0.10600
H 	H 	0.02890 0.48490 0.79930 0.07200
C 	C 	0.99260 0.43960 0.80920 0.06400
H 	H 	0.97130 0.45560 0.81680 -0.00700
C 	C 	0.78410 0.35100 0.76500 -0.86000
H 	H 	0.77940 0.37830 0.76730 0.38500
H 	H 	0.79420 0.34610 0.73960 -0.06500
C 	C 	0.08920 0.37430 0.77480 0.04000
H 	H 	0.10590 0.39220 0.75930 0.05800
H 	H 	0.10450 0.36530 0.79760 -0.01000
N 	N 	0.05100 0.28000 0.79820 -0.10800
N 	N 	0.95710 0.32900 0.84080 -0.24400
N 	N 	0.87960 0.35016 0.82130 -0.19000
N 	N 	0.98750 0.40000 0.80890 -0.23600
O 	O 	0.07830 0.34140 0.75130 -0.35600
H 	H 	0.07100 0.32040 0.74200 0.25100
O 	O 	0.74990 0.32990 0.76740 -0.80100
H 	H 	0.73900 0.30810 0.77200 0.30600
H 	H 	0.79760 0.36050 0.74270 0.27700
H 	H 	0.76980 0.32840 0.75720 0.73400
C 	C 	0.08780 0.36940 0.78160 0.05400
H 	H 	0.11090 0.38500 0.77350 -0.02400
H 	H 	0.09450 0.35540 0.80600 0.03800
O 	O 	0.75530 0.37750 0.77790 -0.17900
H 	H 	0.75780 0.39760 0.76310 0.04500
C 	C 	0.76900 0.32450 0.53340 -0.04500
C 	C 	0.80210 0.35450 0.47170 -0.02000
C 	C 	0.85640 0.29410 0.35210 -0.15800
H 	H 	0.87150 0.27170 0.35880 0.06200
C 	C 	0.84190 0.29690 0.31390 0.31100
C 	C 	0.81920 0.32880 0.30470 -0.26000
H 	H 	0.80810 0.33150 0.27930 0.15100
C 	C 	0.81260 0.35710 0.33310 0.05200
H 	H 	0.79720 0.37940 0.32730 0.01700
C 	C 	0.82870 0.35240 0.36970 -0.03800
H 	H 	0.82450 0.37220 0.38870 0.02800
C 	C 	0.87770 0.29920 0.51900 0.02700
H 	H 	0.85000 0.29960 0.51730 0.02400
C 	C 	0.89590 0.28870 0.55380 -0.03200
C 	C 	0.93570 0.28850 0.55730 0.00200
H 	H 	0.94780 0.28110 0.58120 0.03200
C 	C 	0.95720 0.29900 0.52690 -0.09700
H 	H 	0.98490 0.29930 0.52890 0.07100
C 	C 	0.93960 0.30920 0.49260 0.05700
H 	H 	0.95560 0.31680 0.47130 -0.00400
C 	C 	0.85100 0.26500 0.28410 -0.86000
H 	H 	0.87830 0.26730 0.27940 0.38500
H 	H 	0.84610 0.23960 0.29420 -0.06500
C 	C 	0.87430 0.27480 0.58920 0.04000
H 	H 	0.89220 0.25930 0.60590 0.05900
H 	H 	0.86530 0.29760 0.60450 -0.01000
N 	N 	0.78000 0.29820 0.55100 -0.10800
N 	N 	0.82900 0.34080 0.45710 -0.24400
N 	N 	0.85016 0.32130 0.37960 -0.19000
N 	N 	0.90000 0.30890 0.48750 -0.23600
O 	O 	0.84140 0.25130 0.57830 -0.35500
H 	H 	0.82040 0.24200 0.57100 0.25100
O 	O 	0.82990 0.26740 0.24990 -0.80100
H 	H 	0.80810 0.27200 0.23900 0.30600
H 	H 	0.86050 0.24270 0.29760 0.27700
H 	H 	0.82840 0.25720 0.26980 0.73400
C 	C 	0.86940 0.28160 0.58780 0.05400
H 	H 	0.88500 0.27350 0.61090 -0.02400
H 	H 	0.85540 0.30600 0.59450 0.03800
O 	O 	0.87750 0.27790 0.25530 -0.17900
H 	H 	0.89760 0.26310 0.25780 0.04500
C 	C 	0.26900 0.82450 0.03340 -0.04600
C 	C 	0.30210 0.85450 0.97170 -0.01700
C 	C 	0.35640 0.79410 0.85210 -0.15800
H 	H 	0.37150 0.77170 0.85880 0.06200
C 	C 	0.34190 0.79690 0.81390 0.31100
C 	C 	0.31920 0.82880 0.80470 -0.26000
H 	H 	0.30810 0.83150 0.77930 0.15100
C 	C 	0.31260 0.85710 0.83310 0.05200
H 	H 	0.29720 0.87940 0.82730 0.01600
C 	C 	0.32870 0.85240 0.86970 -0.03800
H 	H 	0.32450 0.87220 0.88870 0.02800
C 	C 	0.37770 0.79920 0.01900 0.02400
H 	H 	0.35000 0.79960 0.01730 0.02400
C 	C 	0.39590 0.78870 0.05380 -0.03400
C 	C 	0.43570 0.78850 0.05730 0.00600
H 	H 	0.44780 0.78110 0.08120 0.03000
C 	C 	0.45720 0.79900 0.02690 -0.10600
H 	H 	0.48490 0.79930 0.02890 0.07200
C 	C 	0.43960 0.80920 0.99260 0.06400
H 	H 	0.45560 0.81680 0.97130 -0.00700
C 	C 	0.35100 0.76500 0.78410 -0.86000
H 	H 	0.37830 0.76730 0.77940 0.38500
H 	H 	0.34610 0.73960 0.79420 -0.06500
C 	C 	0.37430 0.77480 0.08920 0.04000
H 	H 	0.39220 0.75930 0.10590 0.05800
H 	H 	0.36530 0.79760 0.10450 -0.01000
N 	N 	0.28000 0.79820 0.05100 -0.10800
N 	N 	0.32900 0.84080 0.95710 -0.24400
N 	N 	0.35016 0.82130 0.87960 -0.19000
N 	N 	0.40000 0.80890 0.98750 -0.23600
O 	O 	0.34140 0.75130 0.07830 -0.35600
H 	H 	0.32040 0.74200 0.07100 0.25100
O 	O 	0.32990 0.76740 0.74990 -0.80100
H 	H 	0.30810 0.77200 0.73900 0.30600
H 	H 	0.36050 0.74270 0.79760 0.27700
H 	H 	0.32840 0.75720 0.76980 0.73400
C 	C 	0.36940 0.78160 0.08780 0.05400
H 	H 	0.38500 0.77350 0.11090 -0.02400
H 	H 	0.35540 0.80600 0.09450 0.03800
O 	O 	0.37750 0.77790 0.75530 -0.17900
H 	H 	0.39760 0.76310 0.75780 0.04500
C 	C 	0.23100 0.82450 0.96660 -0.04200
C 	C 	0.19790 0.85450 0.02830 -0.02100
C 	C 	0.14360 0.79410 0.14790 -0.15800
H 	H 	0.12850 0.77170 0.14120 0.06200
C 	C 	0.15810 0.79690 0.18610 0.31100
C 	C 	0.18080 0.82880 0.19530 -0.26000
H 	H 	0.19190 0.83150 0.22070 0.15100
C 	C 	0.18740 0.85710 0.16690 0.05200
H 	H 	0.20280 0.87940 0.17270 0.01600
C 	C 	0.17130 0.85240 0.13030 -0.03800
H 	H 	0.17550 0.87220 0.11130 0.02800
C 	C 	0.12230 0.79920 0.98100 0.02900
H 	H 	0.15000 0.79960 0.98270 0.02400
C 	C 	0.10410 0.78870 0.94620 -0.03100
C 	C 	0.06430 0.78850 0.94270 -0.00300
H 	H 	0.05220 0.78110 0.91880 0.03300
C 	C 	0.04280 0.79900 0.97310 -0.08800
H 	H 	0.01510 0.79930 0.97110 0.06600
C 	C 	0.06040 0.80920 0.00740 0.04800
H 	H 	0.04440 0.81680 0.02870 -0.00300
C 	C 	0.14900 0.76500 0.21590 -0.86000
H 	H 	0.12170 0.76730 0.22060 0.38500
H 	H 	0.15390 0.73960 0.20580 -0.06500
C 	C 	0.12570 0.77480 0.91080 0.03900
H 	H 	0.10780 0.75930 0.89410 0.05900
H 	H 	0.13470 0.79760 0.89550 -0.01000
N 	N 	0.22000 0.79820 0.94900 -0.10800
N 	N 	0.17100 0.84080 0.04290 -0.24400
N 	N 	0.14984 0.82130 0.12040 -0.19000
N 	N 	0.10000 0.80890 0.01250 -0.23700
O 	O 	0.15860 0.75130 0.92170 -0.35500
H 	H 	0.17960 0.74200 0.92900 0.25200
O 	O 	0.17010 0.76740 0.25010 -0.80100
H 	H 	0.19190 0.77200 0.26100 0.30600
H 	H 	0.13950 0.74270 0.20240 0.27700
H 	H 	0.17160 0.75720 0.23020 0.73400
C 	C 	0.13060 0.78160 0.91220 0.05300
H 	H 	0.11500 0.77350 0.88910 -0.02400
H 	H 	0.14460 0.80600 0.90550 0.03800
O 	O 	0.12250 0.77790 0.24470 -0.17900
H 	H 	0.10240 0.76310 0.24220 0.04500
C 	C 	0.73100 0.32450 0.46660 -0.04500
C 	C 	0.69790 0.35450 0.52830 -0.02000
C 	C 	0.64360 0.29410 0.64790 -0.15800
H 	H 	0.62850 0.27170 0.64120 0.06200
C 	C 	0.65810 0.29690 0.68610 0.31100
C 	C 	0.68080 0.32880 0.69530 -0.26000
H 	H 	0.69190 0.33150 0.72070 0.15100
C 	C 	0.68740 0.35710 0.66690 0.05200
H 	H 	0.70280 0.37940 0.67270 0.01600
C 	C 	0.67130 0.35240 0.63030 -0.03800
H 	H 	0.67550 0.37220 0.61130 0.02800
C 	C 	0.62230 0.29920 0.48100 0.02700
H 	H 	0.65000 0.29960 0.48270 0.02400
C 	C 	0.60410 0.28870 0.44620 -0.03200
C 	C 	0.56430 0.28850 0.44270 0.00200
H 	H 	0.55220 0.28110 0.41880 0.03100
C 	C 	0.54280 0.29900 0.47310 -0.09700
H 	H 	0.51510 0.29930 0.47110 0.07000
C 	C 	0.56040 0.30920 0.50740 0.05600
H 	H 	0.54440 0.31680 0.52870 -0.00500
C 	C 	0.64900 0.26500 0.71590 -0.86000
H 	H 	0.62170 0.26730 0.72060 0.38500
H 	H 	0.65390 0.23960 0.70580 -0.06500
C 	C 	0.62570 0.27480 0.41080 0.04000
H 	H 	0.60780 0.25930 0.39410 0.05900
H 	H 	0.63470 0.29760 0.39550 -0.01000
N 	N 	0.72000 0.29820 0.44900 -0.10800
N 	N 	0.67100 0.34080 0.54290 -0.24400
N 	N 	0.64984 0.32130 0.62040 -0.19000
N 	N 	0.60000 0.30890 0.51250 -0.23600
O 	O 	0.65860 0.25130 0.42170 -0.35500
H 	H 	0.67960 0.24200 0.42900 0.25100
O 	O 	0.67010 0.26740 0.75010 -0.80100
H 	H 	0.69190 0.27200 0.76100 0.30600
H 	H 	0.63950 0.24270 0.70240 0.27700
H 	H 	0.67160 0.25720 0.73020 0.73400
C 	C 	0.63060 0.28160 0.41220 0.05400
H 	H 	0.61500 0.27350 0.38910 -0.02400
H 	H 	0.64460 0.30600 0.40550 0.03800
O 	O 	0.62250 0.27790 0.74470 -0.17900
H 	H 	0.60240 0.26310 0.74220 0.04500
C 	C 	0.73100 0.67550 0.03340 -0.04600
C 	C 	0.69790 0.64550 0.97170 -0.01700
C 	C 	0.64360 0.70590 0.85210 -0.15800
H 	H 	0.62850 0.72830 0.85880 0.06200
C 	C 	0.65810 0.70310 0.81390 0.31100
C 	C 	0.68080 0.67120 0.80470 -0.26000
H 	H 	0.69190 0.66850 0.77930 0.15100
C 	C 	0.68740 0.64290 0.83310 0.05200
H 	H 	0.70280 0.62060 0.82730 0.01600
C 	C 	0.67130 0.64760 0.86970 -0.03800
H 	H 	0.67550 0.62780 0.88870 0.02800
C 	C 	0.62230 0.70080 0.01900 0.02400
H 	H 	0.65000 0.70040 0.01730 0.02400
C 	C 	0.60410 0.71130 0.05380 -0.03400
C 	C 	0.56430 0.71150 0.05730 0.00600
H 	H 	0.55220 0.71890 0.08120 0.03000
C 	C 	0.54280 0.70100 0.02690 -0.10600
H 	H 	0.51510 0.70070 0.02890 0.07200
C 	C 	0.56040 0.69080 0.99260 0.06400
H 	H 	0.54440 0.68320 0.97130 -0.00700
C 	C 	0.64900 0.73500 0.78410 -0.86000
H 	H 	0.62170 0.73270 0.77940 0.38500
H 	H 	0.65390 0.76040 0.79420 -0.06500
C 	C 	0.62570 0.72520 0.08920 0.04000
H 	H 	0.60780 0.74070 0.10590 0.05800
H 	H 	0.63470 0.70240 0.10450 -0.01000
N 	N 	0.72000 0.70180 0.05100 -0.10800
N 	N 	0.67100 0.65920 0.95710 -0.24400
N 	N 	0.64984 0.67870 0.87960 -0.19000
N 	N 	0.60000 0.69110 0.98750 -0.23600
O 	O 	0.65860 0.74870 0.07830 -0.35600
H 	H 	0.67960 0.75800 0.07100 0.25100
O 	O 	0.67010 0.73260 0.74990 -0.80100
H 	H 	0.69190 0.72800 0.73900 0.30600
H 	H 	0.63950 0.75730 0.79760 0.27700
H 	H 	0.67160 0.74280 0.76980 0.73400
C 	C 	0.63060 0.71840 0.08780 0.05400
H 	H 	0.61500 0.72650 0.11090 -0.02400
H 	H 	0.64460 0.69400 0.09450 0.03800
O 	O 	0.62250 0.72210 0.75530 -0.17900
H 	H 	0.60240 0.73690 0.75780 0.04500
C 	C 	0.23100 0.17550 0.53340 -0.04500
C 	C 	0.19790 0.14550 0.47170 -0.02000
C 	C 	0.14360 0.20590 0.35210 -0.15800
H 	H 	0.12850 0.22830 0.35880 0.06200
C 	C 	0.15810 0.20310 0.31390 0.31100
C 	C 	0.18080 0.17120 0.30470 -0.26000
H 	H 	0.19190 0.16850 0.27930 0.15100
C 	C 	0.18740 0.14290 0.33310 0.05200
H 	H 	0.20280 0.12060 0.32730 0.01700
C 	C 	0.17130 0.14760 0.36970 -0.03800
H 	H 	0.17550 0.12780 0.38870 0.02800
C 	C 	0.12230 0.20080 0.51900 0.02700
H 	H 	0.15000 0.20040 0.51730 0.02400
C 	C 	0.10410 0.21130 0.55380 -0.03200
C 	C 	0.06430 0.21150 0.55730 0.00200
H 	H 	0.05220 0.21890 0.58120 0.03100
C 	C 	0.04280 0.20100 0.52690 -0.09700
H 	H 	0.01510 0.20070 0.52890 0.06800
C 	C 	0.06040 0.19080 0.49260 0.05600
H 	H 	0.04440 0.18320 0.47130 -0.00600
C 	C 	0.14900 0.23500 0.28410 -0.86000
H 	H 	0.12170 0.23270 0.27940 0.38500
H 	H 	0.15390 0.26040 0.29420 -0.06500
C 	C 	0.12570 0.22520 0.58920 0.04000
H 	H 	0.10780 0.24070 0.60590 0.05800
H 	H 	0.13470 0.20240 0.60450 -0.01000
N 	N 	0.22000 0.20180 0.55100 -0.10800
N 	N 	0.17100 0.15920 0.45710 -0.24400
N 	N 	0.14984 0.17870 0.37960 -0.19000
N 	N 	0.10000 0.19110 0.48750 -0.23600
O 	O 	0.15860 0.24870 0.57830 -0.35500
H 	H 	0.17960 0.25800 0.57100 0.25100
O 	O 	0.17010 0.23260 0.24990 -0.80100
H 	H 	0.19190 0.22800 0.23900 0.30600
H 	H 	0.13950 0.25730 0.29760 0.27700
H 	H 	0.17160 0.24280 0.26980 0.73400
C 	C 	0.13060 0.21840 0.58780 0.05400
H 	H 	0.11500 0.22650 0.61090 -0.02300
H 	H 	0.14460 0.19400 0.59450 0.03800
O 	O 	0.12250 0.22210 0.25530 -0.17900
H 	H 	0.10240 0.23690 0.25780 0.04500
C 	C 	0.26900 0.17550 0.46660 -0.04500
C 	C 	0.30210 0.14550 0.52830 -0.02000
C 	C 	0.35640 0.20590 0.64790 -0.15800
H 	H 	0.37150 0.22830 0.64120 0.06200
C 	C 	0.34190 0.20310 0.68610 0.31100
C 	C 	0.31920 0.17120 0.69530 -0.26000
H 	H 	0.30810 0.16850 0.72070 0.15100
C 	C 	0.31260 0.14290 0.66690 0.05200
H 	H 	0.29720 0.12060 0.67270 0.01700
C 	C 	0.32870 0.14760 0.63030 -0.03800
H 	H 	0.32450 0.12780 0.61130 0.02800
C 	C 	0.37770 0.20080 0.48100 0.02700
H 	H 	0.35000 0.20040 0.48270 0.02400
C 	C 	0.39590 0.21130 0.44620 -0.03200
C 	C 	0.43570 0.21150 0.44270 0.00200
H 	H 	0.44780 0.21890 0.41880 0.03100
C 	C 	0.45720 0.20100 0.47310 -0.09700
H 	H 	0.48490 0.20070 0.47110 0.07000
C 	C 	0.43960 0.19080 0.50740 0.05600
H 	H 	0.45560 0.18320 0.52870 -0.00500
C 	C 	0.35100 0.23500 0.71590 -0.86000
H 	H 	0.37830 0.23270 0.72060 0.38500
H 	H 	0.34610 0.26040 0.70580 -0.06500
C 	C 	0.37430 0.22520 0.41080 0.04000
H 	H 	0.39220 0.24070 0.39410 0.05900
H 	H 	0.36530 0.20240 0.39550 -0.01000
N 	N 	0.28000 0.20180 0.44900 -0.10800
N 	N 	0.32900 0.15920 0.54290 -0.24400
N 	N 	0.35016 0.17870 0.62040 -0.19000
N 	N 	0.40000 0.19110 0.51250 -0.23600
O 	O 	0.34140 0.24870 0.42170 -0.35500
H 	H 	0.32040 0.25800 0.42900 0.25100
O 	O 	0.32990 0.23260 0.75010 -0.80100
H 	H 	0.30810 0.22800 0.76100 0.30600
H 	H 	0.36050 0.25730 0.70240 0.27700
H 	H 	0.32840 0.24280 0.73020 0.73400
C 	C 	0.36940 0.21840 0.41220 0.05400
H 	H 	0.38500 0.22650 0.38910 -0.02400
H 	H 	0.35540 0.19400 0.40550 0.03800
O 	O 	0.37750 0.22210 0.74470 -0.17900
H 	H 	0.39760 0.23690 0.74220 0.04500
C 	C 	0.76900 0.67550 0.96660 -0.04200
C 	C 	0.80210 0.64550 0.02830 -0.02100
C 	C 	0.85640 0.70590 0.14790 -0.15800
H 	H 	0.87150 0.72830 0.14120 0.06200
C 	C 	0.84190 0.70310 0.18610 0.31100
C 	C 	0.81920 0.67120 0.19530 -0.26000
H 	H 	0.80810 0.66850 0.22070 0.15100
C 	C 	0.81260 0.64290 0.16690 0.05200
H 	H 	0.79720 0.62060 0.17270 0.01700
C 	C 	0.82870 0.64760 0.13030 -0.03800
H 	H 	0.82450 0.62780 0.11130 0.02800
C 	C 	0.87770 0.70080 0.98100 0.02900
H 	H 	0.85000 0.70040 0.98270 0.02400
C 	C 	0.89590 0.71130 0.94620 -0.03100
C 	C 	0.93570 0.71150 0.94270 -0.00200
H 	H 	0.94780 0.71890 0.91880 0.03400
C 	C 	0.95720 0.70100 0.97310 -0.08800
H 	H 	0.98490 0.70070 0.97110 0.06900
C 	C 	0.93960 0.69080 0.00740 0.04800
H 	H 	0.95560 0.68320 0.02870 -0.00200
C 	C 	0.85100 0.73500 0.21590 -0.86000
H 	H 	0.87830 0.73270 0.22060 0.38500
H 	H 	0.84610 0.76040 0.20580 -0.06500
C 	C 	0.87430 0.72520 0.91080 0.03900
H 	H 	0.89220 0.74070 0.89410 0.05900
H 	H 	0.86530 0.70240 0.89550 -0.00900
N 	N 	0.78000 0.70180 0.94900 -0.10800
N 	N 	0.82900 0.65920 0.04290 -0.24400
N 	N 	0.85016 0.67870 0.12040 -0.19000
N 	N 	0.90000 0.69110 0.01250 -0.23700
O 	O 	0.84140 0.74870 0.92170 -0.35500
H 	H 	0.82040 0.75800 0.92900 0.25200
O 	O 	0.82990 0.73260 0.25010 -0.80100
H 	H 	0.80810 0.72800 0.26100 0.30600
H 	H 	0.86050 0.75730 0.20240 0.27700
H 	H 	0.82840 0.74280 0.23020 0.73400
C 	C 	0.86940 0.71840 0.91220 0.05300
H 	H 	0.88500 0.72650 0.88910 -0.02400
H 	H 	0.85540 0.69400 0.90550 0.03800
O 	O 	0.87750 0.72210 0.24470 -0.17900
H 	H 	0.89760 0.73690 0.24220 0.04500
C 	C 	0.82450 0.96660 0.23100 -0.04200
C 	C 	0.85450 0.02830 0.19790 -0.02100
C 	C 	0.79410 0.14790 0.14360 -0.15800
H 	H 	0.77170 0.14120 0.12850 0.06200
C 	C 	0.79690 0.18610 0.15810 0.31100
C 	C 	0.82880 0.19530 0.18080 -0.26000
H 	H 	0.83150 0.22070 0.19190 0.15100
C 	C 	0.85710 0.16690 0.18740 0.05200
H 	H 	0.87940 0.17270 0.20280 0.01600
C 	C 	0.85240 0.13030 0.17130 -0.03800
H 	H 	0.87220 0.11130 0.17550 0.02800
C 	C 	0.79920 0.98100 0.12230 0.02900
H 	H 	0.79960 0.98270 0.15000 0.02400
C 	C 	0.78870 0.94620 0.10410 -0.03100
C 	C 	0.78850 0.94270 0.06430 -0.00300
H 	H 	0.78110 0.91880 0.05220 0.03300
C 	C 	0.79900 0.97310 0.04280 -0.08800
H 	H 	0.79930 0.97110 0.01510 0.06600
C 	C 	0.80920 0.00740 0.06040 0.04800
H 	H 	0.81680 0.02870 0.04440 -0.00300
C 	C 	0.76500 0.21590 0.14900 -0.86000
H 	H 	0.76730 0.22060 0.12170 0.38500
H 	H 	0.73960 0.20580 0.15390 -0.06500
C 	C 	0.77480 0.91080 0.12570 0.03900
H 	H 	0.75930 0.89410 0.10780 0.05900
H 	H 	0.79760 0.89550 0.13470 -0.01000
N 	N 	0.79820 0.94900 0.22000 -0.10800
N 	N 	0.84080 0.04290 0.17100 -0.24400
N 	N 	0.82130 0.12040 0.14984 -0.19000
N 	N 	0.80890 0.01250 0.10000 -0.23700
O 	O 	0.75130 0.92170 0.15860 -0.35500
H 	H 	0.74200 0.92900 0.17960 0.25200
O 	O 	0.76740 0.25010 0.17010 -0.80100
H 	H 	0.77200 0.26100 0.19190 0.30600
H 	H 	0.74270 0.20240 0.13950 0.27700
H 	H 	0.75720 0.23020 0.17160 0.73400
C 	C 	0.78160 0.91220 0.13060 0.05300
H 	H 	0.77350 0.88910 0.11500 -0.02400
H 	H 	0.80600 0.90550 0.14460 0.03800
O 	O 	0.77790 0.24470 0.12250 -0.17900
H 	H 	0.76310 0.24220 0.10240 0.04500
C 	C 	0.32450 0.46660 0.73100 -0.04500
C 	C 	0.35450 0.52830 0.69790 -0.02000
C 	C 	0.29410 0.64790 0.64360 -0.15800
H 	H 	0.27170 0.64120 0.62850 0.06200
C 	C 	0.29690 0.68610 0.65810 0.31100
C 	C 	0.32880 0.69530 0.68080 -0.26000
H 	H 	0.33150 0.72070 0.69190 0.15100
C 	C 	0.35710 0.66690 0.68740 0.05200
H 	H 	0.37940 0.67270 0.70280 0.01600
C 	C 	0.35240 0.63030 0.67130 -0.03800
H 	H 	0.37220 0.61130 0.67550 0.02800
C 	C 	0.29920 0.48100 0.62230 0.02700
H 	H 	0.29960 0.48270 0.65000 0.02400
C 	C 	0.28870 0.44620 0.60410 -0.03200
C 	C 	0.28850 0.44270 0.56430 0.00200
H 	H 	0.28110 0.41880 0.55220 0.03100
C 	C 	0.29900 0.47310 0.54280 -0.09700
H 	H 	0.29930 0.47110 0.51510 0.07000
C 	C 	0.30920 0.50740 0.56040 0.05600
H 	H 	0.31680 0.52870 0.54440 -0.00500
C 	C 	0.26500 0.71590 0.64900 -0.86000
H 	H 	0.26730 0.72060 0.62170 0.38500
H 	H 	0.23960 0.70580 0.65390 -0.06500
C 	C 	0.27480 0.41080 0.62570 0.04000
H 	H 	0.25930 0.39410 0.60780 0.05900
H 	H 	0.29760 0.39550 0.63470 -0.01000
N 	N 	0.29820 0.44900 0.72000 -0.10800
N 	N 	0.34080 0.54290 0.67100 -0.24400
N 	N 	0.32130 0.62040 0.64984 -0.19000
N 	N 	0.30890 0.51250 0.60000 -0.23600
O 	O 	0.25130 0.42170 0.65860 -0.35500
H 	H 	0.24200 0.42900 0.67960 0.25100
O 	O 	0.26740 0.75010 0.67010 -0.80100
H 	H 	0.27200 0.76100 0.69190 0.30600
H 	H 	0.24270 0.70240 0.63950 0.27700
H 	H 	0.25720 0.73020 0.67160 0.73400
C 	C 	0.28160 0.41220 0.63060 0.05400
H 	H 	0.27350 0.38910 0.61500 -0.02400
H 	H 	0.30600 0.40550 0.64460 0.03800
O 	O 	0.27790 0.74470 0.62250 -0.17900
H 	H 	0.26310 0.74220 0.60240 0.04500
C 	C 	0.32450 0.53340 0.76900 -0.04500
C 	C 	0.35450 0.47170 0.80210 -0.02000
C 	C 	0.29410 0.35210 0.85640 -0.15800
H 	H 	0.27170 0.35880 0.87150 0.06200
C 	C 	0.29690 0.31390 0.84190 0.31100
C 	C 	0.32880 0.30470 0.81920 -0.26000
H 	H 	0.33150 0.27930 0.80810 0.15100
C 	C 	0.35710 0.33310 0.81260 0.05200
H 	H 	0.37940 0.32730 0.79720 0.01700
C 	C 	0.35240 0.36970 0.82870 -0.03800
H 	H 	0.37220 0.38870 0.82450 0.02800
C 	C 	0.29920 0.51900 0.87770 0.02700
H 	H 	0.29960 0.51730 0.85000 0.02400
C 	C 	0.28870 0.55380 0.89590 -0.03200
C 	C 	0.28850 0.55730 0.93570 0.00200
H 	H 	0.28110 0.58120 0.94780 0.03200
C 	C 	0.29900 0.52690 0.95720 -0.09700
H 	H 	0.29930 0.52890 0.98490 0.07100
C 	C 	0.30920 0.49260 0.93960 0.05700
H 	H 	0.31680 0.47130 0.95560 -0.00400
C 	C 	0.26500 0.28410 0.85100 -0.86000
H 	H 	0.26730 0.27940 0.87830 0.38500
H 	H 	0.23960 0.29420 0.84610 -0.06500
C 	C 	0.27480 0.58920 0.87430 0.04000
H 	H 	0.25930 0.60590 0.89220 0.05900
H 	H 	0.29760 0.60450 0.86530 -0.01000
N 	N 	0.29820 0.55100 0.78000 -0.10800
N 	N 	0.34080 0.45710 0.82900 -0.24400
N 	N 	0.32130 0.37960 0.85016 -0.19000
N 	N 	0.30890 0.48750 0.90000 -0.23600
O 	O 	0.25130 0.57830 0.84140 -0.35500
H 	H 	0.24200 0.57100 0.82040 0.25100
O 	O 	0.26740 0.24990 0.82990 -0.80100
H 	H 	0.27200 0.23900 0.80810 0.30600
H 	H 	0.24270 0.29760 0.86050 0.27700
H 	H 	0.25720 0.26980 0.82840 0.73400
C 	C 	0.28160 0.58780 0.86940 0.05400
H 	H 	0.27350 0.61090 0.88500 -0.02400
H 	H 	0.30600 0.59450 0.85540 0.03800
O 	O 	0.27790 0.25530 0.87750 -0.17900
H 	H 	0.26310 0.25780 0.89760 0.04500
C 	C 	0.82450 0.03340 0.26900 -0.04600
C 	C 	0.85450 0.97170 0.30210 -0.01700
C 	C 	0.79410 0.85210 0.35640 -0.15800
H 	H 	0.77170 0.85880 0.37150 0.06200
C 	C 	0.79690 0.81390 0.34190 0.31100
C 	C 	0.82880 0.80470 0.31920 -0.26000
H 	H 	0.83150 0.77930 0.30810 0.15100
C 	C 	0.85710 0.83310 0.31260 0.05200
H 	H 	0.87940 0.82730 0.29720 0.01600
C 	C 	0.85240 0.86970 0.32870 -0.03800
H 	H 	0.87220 0.88870 0.32450 0.02800
C 	C 	0.79920 0.01900 0.37770 0.02400
H 	H 	0.79960 0.01730 0.35000 0.02400
C 	C 	0.78870 0.05380 0.39590 -0.03400
C 	C 	0.78850 0.05730 0.43570 0.00600
H 	H 	0.78110 0.08120 0.44780 0.03000
C 	C 	0.79900 0.02690 0.45720 -0.10600
H 	H 	0.79930 0.02890 0.48490 0.07200
C 	C 	0.80920 0.99260 0.43960 0.06400
H 	H 	0.81680 0.97130 0.45560 -0.00700
C 	C 	0.76500 0.78410 0.35100 -0.86000
H 	H 	0.76730 0.77940 0.37830 0.38500
H 	H 	0.73960 0.79420 0.34610 -0.06500
C 	C 	0.77480 0.08920 0.37430 0.04000
H 	H 	0.75930 0.10590 0.39220 0.05800
H 	H 	0.79760 0.10450 0.36530 -0.01000
N 	N 	0.79820 0.05100 0.28000 -0.10800
N 	N 	0.84080 0.95710 0.32900 -0.24400
N 	N 	0.82130 0.87960 0.35016 -0.19000
N 	N 	0.80890 0.98750 0.40000 -0.23600
O 	O 	0.75130 0.07830 0.34140 -0.35600
H 	H 	0.74200 0.07100 0.32040 0.25100
O 	O 	0.76740 0.74990 0.32990 -0.80100
H 	H 	0.77200 0.73900 0.30810 0.30600
H 	H 	0.74270 0.79760 0.36050 0.27700
H 	H 	0.75720 0.76980 0.32840 0.73400
C 	C 	0.78160 0.08780 0.36940 0.05400
H 	H 	0.77350 0.11090 0.38500 -0.02400
H 	H 	0.80600 0.09450 0.35540 0.03800
O 	O 	0.77790 0.75530 0.37750 -0.17900
H 	H 	0.76310 0.75780 0.39760 0.04500
C 	C 	0.17550 0.46660 0.26900 -0.04500
C 	C 	0.14550 0.52830 0.30210 -0.02000
C 	C 	0.20590 0.64790 0.35640 -0.15800
H 	H 	0.22830 0.64120 0.37150 0.06200
C 	C 	0.20310 0.68610 0.34190 0.31100
C 	C 	0.17120 0.69530 0.31920 -0.26000
H 	H 	0.16850 0.72070 0.30810 0.15100
C 	C 	0.14290 0.66690 0.31260 0.05200
H 	H 	0.12060 0.67270 0.29720 0.01700
C 	C 	0.14760 0.63030 0.32870 -0.03800
H 	H 	0.12780 0.61130 0.32450 0.02800
C 	C 	0.20080 0.48100 0.37770 0.02700
H 	H 	0.20040 0.48270 0.35000 0.02400
C 	C 	0.21130 0.44620 0.39590 -0.03200
C 	C 	0.21150 0.44270 0.43570 0.00200
H 	H 	0.21890 0.41880 0.44780 0.03100
C 	C 	0.20100 0.47310 0.45720 -0.09700
H 	H 	0.20070 0.47110 0.48490 0.07000
C 	C 	0.19080 0.50740 0.43960 0.05600
H 	H 	0.18320 0.52870 0.45560 -0.00500
C 	C 	0.23500 0.71590 0.35100 -0.86000
H 	H 	0.23270 0.72060 0.37830 0.38500
H 	H 	0.26040 0.70580 0.34610 -0.06500
C 	C 	0.22520 0.41080 0.37430 0.04000
H 	H 	0.24070 0.39410 0.39220 0.05900
H 	H 	0.20240 0.39550 0.36530 -0.01000
N 	N 	0.20180 0.44900 0.28000 -0.10800
N 	N 	0.15920 0.54290 0.32900 -0.24400
N 	N 	0.17870 0.62040 0.35016 -0.19000
N 	N 	0.19110 0.51250 0.40000 -0.23600
O 	O 	0.24870 0.42170 0.34140 -0.35500
H 	H 	0.25800 0.42900 0.32040 0.25100
O 	O 	0.23260 0.75010 0.32990 -0.80100
H 	H 	0.22800 0.76100 0.30810 0.30600
H 	H 	0.25730 0.70240 0.36050 0.27700
H 	H 	0.24280 0.73020 0.32840 0.73400
C 	C 	0.21840 0.41220 0.36940 0.05400
H 	H 	0.22650 0.38910 0.38500 -0.02400
H 	H 	0.19400 0.40550 0.35540 0.03800
O 	O 	0.22210 0.74470 0.37750 -0.17900
H 	H 	0.23690 0.74220 0.39760 0.04500
C 	C 	0.67550 0.96660 0.76900 -0.04200
C 	C 	0.64550 0.02830 0.80210 -0.02100
C 	C 	0.70590 0.14790 0.85640 -0.15800
H 	H 	0.72830 0.14120 0.87150 0.06200
C 	C 	0.70310 0.18610 0.84190 0.31100
C 	C 	0.67120 0.19530 0.81920 -0.26000
H 	H 	0.66850 0.22070 0.80810 0.15100
C 	C 	0.64290 0.16690 0.81260 0.05200
H 	H 	0.62060 0.17270 0.79720 0.01700
C 	C 	0.64760 0.13030 0.82870 -0.03800
H 	H 	0.62780 0.11130 0.82450 0.02800
C 	C 	0.70080 0.98100 0.87770 0.02900
H 	H 	0.70040 0.98270 0.85000 0.02400
C 	C 	0.71130 0.94620 0.89590 -0.03100
C 	C 	0.71150 0.94270 0.93570 -0.00200
H 	H 	0.71890 0.91880 0.94780 0.03400
C 	C 	0.70100 0.97310 0.95720 -0.08800
H 	H 	0.70070 0.97110 0.98490 0.06900
C 	C 	0.69080 0.00740 0.93960 0.04800
H 	H 	0.68320 0.02870 0.95560 -0.00200
C 	C 	0.73500 0.21590 0.85100 -0.86000
H 	H 	0.73270 0.22060 0.87830 0.38500
H 	H 	0.76040 0.20580 0.84610 -0.06500
C 	C 	0.72520 0.91080 0.87430 0.03900
H 	H 	0.74070 0.89410 0.89220 0.05900
H 	H 	0.70240 0.89550 0.86530 -0.00900
N 	N 	0.70180 0.94900 0.78000 -0.10800
N 	N 	0.65920 0.04290 0.82900 -0.24400
N 	N 	0.67870 0.12040 0.85016 -0.19000
N 	N 	0.69110 0.01250 0.90000 -0.23700
O 	O 	0.74870 0.92170 0.84140 -0.35500
H 	H 	0.75800 0.92900 0.82040 0.25200
O 	O 	0.73260 0.25010 0.82990 -0.80100
H 	H 	0.72800 0.26100 0.80810 0.30600
H 	H 	0.75730 0.20240 0.86050 0.27700
H 	H 	0.74280 0.23020 0.82840 0.73400
C 	C 	0.71840 0.91220 0.86940 0.05300
H 	H 	0.72650 0.88910 0.88500 -0.02400
H 	H 	0.69400 0.90550 0.85540 0.03800
O 	O 	0.72210 0.24470 0.87750 -0.17900
H 	H 	0.73690 0.24220 0.89760 0.04500
C 	C 	0.67550 0.03340 0.73100 -0.04600
C 	C 	0.64550 0.97170 0.69790 -0.01700
C 	C 	0.70590 0.85210 0.64360 -0.15800
H 	H 	0.72830 0.85880 0.62850 0.06200
C 	C 	0.70310 0.81390 0.65810 0.31100
C 	C 	0.67120 0.80470 0.68080 -0.26000
H 	H 	0.66850 0.77930 0.69190 0.15100
C 	C 	0.64290 0.83310 0.68740 0.05200
H 	H 	0.62060 0.82730 0.70280 0.01600
C 	C 	0.64760 0.86970 0.67130 -0.03800
H 	H 	0.62780 0.88870 0.67550 0.02800
C 	C 	0.70080 0.01900 0.62230 0.02400
H 	H 	0.70040 0.01730 0.65000 0.02400
C 	C 	0.71130 0.05380 0.60410 -0.03400
C 	C 	0.71150 0.05730 0.56430 0.00600
H 	H 	0.71890 0.08120 0.55220 0.03000
C 	C 	0.70100 0.02690 0.54280 -0.10600
H 	H 	0.70070 0.02890 0.51510 0.07200
C 	C 	0.69080 0.99260 0.56040 0.06400
H 	H 	0.68320 0.97130 0.54440 -0.00700
C 	C 	0.73500 0.78410 0.64900 -0.86000
H 	H 	0.73270 0.77940 0.62170 0.38500
H 	H 	0.76040 0.79420 0.65390 -0.06500
C 	C 	0.72520 0.08920 0.62570 0.04000
H 	H 	0.74070 0.10590 0.60780 0.05800
H 	H 	0.70240 0.10450 0.63470 -0.01000
N 	N 	0.70180 0.05100 0.72000 -0.10800
N 	N 	0.65920 0.95710 0.67100 -0.24400
N 	N 	0.67870 0.87960 0.64984 -0.19000
N 	N 	0.69110 0.98750 0.60000 -0.23600
O 	O 	0.74870 0.07830 0.65860 -0.35600
H 	H 	0.75800 0.07100 0.67960 0.25100
O 	O 	0.73260 0.74990 0.67010 -0.80100
H 	H 	0.72800 0.73900 0.69190 0.30600
H 	H 	0.75730 0.79760 0.63950 0.27700
H 	H 	0.74280 0.76980 0.67160 0.73400
C 	C 	0.71840 0.08780 0.63060 0.05400
H 	H 	0.72650 0.11090 0.61500 -0.02400
H 	H 	0.69400 0.09450 0.64460 0.03800
O 	O 	0.72210 0.75530 0.62250 -0.17900
H 	H 	0.73690 0.75780 0.60240 0.04500
C 	C 	0.17550 0.53340 0.23100 -0.04500
C 	C 	0.14550 0.47170 0.19790 -0.02000
C 	C 	0.20590 0.35210 0.14360 -0.15800
H 	H 	0.22830 0.35880 0.12850 0.06200
C 	C 	0.20310 0.31390 0.15810 0.31100
C 	C 	0.17120 0.30470 0.18080 -0.26000
H 	H 	0.16850 0.27930 0.19190 0.15100
C 	C 	0.14290 0.33310 0.18740 0.05200
H 	H 	0.12060 0.32730 0.20280 0.01700
C 	C 	0.14760 0.36970 0.17130 -0.03800
H 	H 	0.12780 0.38870 0.17550 0.02800
C 	C 	0.20080 0.51900 0.12230 0.02700
H 	H 	0.20040 0.51730 0.15000 0.02400
C 	C 	0.21130 0.55380 0.10410 -0.03200
C 	C 	0.21150 0.55730 0.06430 0.00200
H 	H 	0.21890 0.58120 0.05220 0.03100
C 	C 	0.20100 0.52690 0.04280 -0.09700
H 	H 	0.20070 0.52890 0.01510 0.06800
C 	C 	0.19080 0.49260 0.06040 0.05600
H 	H 	0.18320 0.47130 0.04440 -0.00600
C 	C 	0.23500 0.28410 0.14900 -0.86000
H 	H 	0.23270 0.27940 0.12170 0.38500
H 	H 	0.26040 0.29420 0.15390 -0.06500
C 	C 	0.22520 0.58920 0.12570 0.04000
H 	H 	0.24070 0.60590 0.10780 0.05800
H 	H 	0.20240 0.60450 0.13470 -0.01000
N 	N 	0.20180 0.55100 0.22000 -0.10800
N 	N 	0.15920 0.45710 0.17100 -0.24400
N 	N 	0.17870 0.37960 0.14984 -0.19000
N 	N 	0.19110 0.48750 0.10000 -0.23600
O 	O 	0.24870 0.57830 0.15860 -0.35500
H 	H 	0.25800 0.57100 0.17960 0.25100
O 	O 	0.23260 0.24990 0.17010 -0.80100
H 	H 	0.22800 0.23900 0.19190 0.30600
H 	H 	0.25730 0.29760 0.13950 0.27700
H 	H 	0.24280 0.26980 0.17160 0.73400
C 	C 	0.21840 0.58780 0.13060 0.05400
H 	H 	0.22650 0.61090 0.11500 -0.02300
H 	H 	0.19400 0.59450 0.14460 0.03800
O 	O 	0.22210 0.25530 0.12250 -0.17900
H 	H 	0.23690 0.25780 0.10240 0.04500
C 	C 	0.98100 0.28340 0.92550 -0.04200
C 	C 	0.94790 0.22170 0.89550 -0.01800
C 	C 	0.89360 0.10210 0.95590 -0.15200
H 	H 	0.87850 0.10880 0.97830 0.06200
C 	C 	0.90810 0.06390 0.95310 0.30000
C 	C 	0.93080 0.05470 0.92120 -0.25200
H 	H 	0.94190 0.02930 0.91850 0.14800
C 	C 	0.93740 0.08310 0.89290 0.04700
H 	H 	0.95280 0.07730 0.87060 0.01900
C 	C 	0.92130 0.11970 0.89760 -0.03500
H 	H 	0.92550 0.13870 0.87780 0.02700
C 	C 	0.87230 0.26900 0.95080 0.02600
H 	H 	0.90000 0.26730 0.95040 0.02400
C 	C 	0.85410 0.30380 0.96130 -0.03100
C 	C 	0.81430 0.30730 0.96150 0.00100
H 	H 	0.80220 0.33120 0.96890 0.03200
C 	C 	0.79280 0.27690 0.95100 -0.09600
H 	H 	0.76510 0.27890 0.95070 0.07000
C 	C 	0.81040 0.24260 0.94080 0.05600
H 	H 	0.79440 0.22130 0.93320 -0.00500
C 	C 	0.89900 0.03410 0.98500 -0.83000
H 	H 	0.87170 0.02940 0.98270 0.37800
H 	H 	0.90390 0.04420 0.01040 -0.06500
C 	C 	0.87570 0.33920 0.97520 0.03800
H 	H 	0.85780 0.35590 0.99070 0.06000
H 	H 	0.88470 0.35450 0.95240 -0.00800
N 	N 	0.97000 0.30100 0.95180 -0.10700
N 	N 	0.92100 0.20710 0.90920 -0.24500
N 	N 	0.89984 0.12960 0.92870 -0.19100
N 	N 	0.85000 0.23750 0.94110 -0.23600
O 	O 	0.90860 0.32830 0.99870 -0.34900
H 	H 	0.92960 0.32100 0.00800 0.24600
O 	O 	0.92010 0.99990 0.98260 -0.78700
H 	H 	0.94190 0.98900 0.97800 0.30400
H 	H 	0.88950 0.04760 0.00730 0.26600
H 	H 	0.92160 0.01980 0.99280 0.71700
C 	C 	0.88060 0.33780 0.96840 0.05200
H 	H 	0.86500 0.36090 0.97650 -0.02400
H 	H 	0.89460 0.34450 0.94400 0.03800
O 	O 	0.87250 0.00530 0.97210 -0.18600
H 	H 	0.85240 0.00780 0.98690 0.05000
C 	C 	0.48100 0.78340 0.42550 -0.04500
C 	C 	0.44790 0.72170 0.39550 -0.02000
C 	C 	0.39360 0.60210 0.45590 -0.15800
H 	H 	0.37850 0.60880 0.47830 0.06200
C 	C 	0.40810 0.56390 0.45310 0.31100
C 	C 	0.43080 0.55470 0.42120 -0.26000
H 	H 	0.44190 0.52930 0.41850 0.15100
C 	C 	0.43740 0.58310 0.39290 0.05200
H 	H 	0.45280 0.57730 0.37060 0.01600
C 	C 	0.42130 0.61970 0.39760 -0.03800
H 	H 	0.42550 0.63870 0.37780 0.02800
C 	C 	0.37230 0.76900 0.45080 0.02700
H 	H 	0.40000 0.76730 0.45040 0.02400
C 	C 	0.35410 0.80380 0.46130 -0.03200
C 	C 	0.31430 0.80730 0.46150 0.00200
H 	H 	0.30220 0.83120 0.46890 0.03100
C 	C 	0.29280 0.77690 0.45100 -0.09700
H 	H 	0.26510 0.77890 0.45070 0.07000
C 	C 	0.31040 0.74260 0.44080 0.05600
H 	H 	0.29440 0.72130 0.43320 -0.00500
C 	C 	0.39900 0.53410 0.48500 -0.86000
H 	H 	0.37170 0.52940 0.48270 0.38500
H 	H 	0.40390 0.54420 0.51040 -0.06500
C 	C 	0.37570 0.83920 0.47520 0.04000
H 	H 	0.35780 0.85590 0.49070 0.05900
H 	H 	0.38470 0.85450 0.45240 -0.01000
N 	N 	0.47000 0.80100 0.45180 -0.10800
N 	N 	0.42100 0.70710 0.40920 -0.24400
N 	N 	0.39984 0.62960 0.42870 -0.19000
N 	N 	0.35000 0.73750 0.44110 -0.23600
O 	O 	0.40860 0.82830 0.49870 -0.35500
H 	H 	0.42960 0.82100 0.50800 0.25100
O 	O 	0.42010 0.49990 0.48260 -0.80100
H 	H 	0.44190 0.48900 0.47800 0.30600
H 	H 	0.38950 0.54760 0.50730 0.27700
H 	H 	0.42160 0.51980 0.49280 0.73400
C 	C 	0.38060 0.83780 0.46840 0.05400
H 	H 	0.36500 0.86090 0.47650 -0.02400
H 	H 	0.39460 0.84450 0.44400 0.03800
O 	O 	0.37250 0.50530 0.47210 -0.17900
H 	H 	0.35240 0.50780 0.48690 0.04500
C 	C 	0.51900 0.71660 0.42550 -0.04500
C 	C 	0.55210 0.77830 0.39550 -0.02000
C 	C 	0.60640 0.89790 0.45590 -0.16000
H 	H 	0.62150 0.89120 0.47830 0.06300
C 	C 	0.59190 0.93610 0.45310 0.31400
C 	C 	0.56920 0.94530 0.42120 -0.26200
H 	H 	0.55810 0.97070 0.41850 0.15300
C 	C 	0.56260 0.91690 0.39290 0.05400
H 	H 	0.54720 0.92270 0.37060 0.01600
C 	C 	0.57870 0.88030 0.39760 -0.03900
H 	H 	0.57450 0.86130 0.37780 0.02800
C 	C 	0.62770 0.73100 0.45080 0.02700
H 	H 	0.60000 0.73270 0.45040 0.02400
C 	C 	0.64590 0.69620 0.46130 -0.03200
C 	C 	0.68570 0.69270 0.46150 0.00200
H 	H 	0.69780 0.66880 0.46890 0.03100
C 	C 	0.70720 0.72310 0.45100 -0.09700
H 	H 	0.73490 0.72110 0.45070 0.07000
C 	C 	0.68960 0.75740 0.44080 0.05600
H 	H 	0.70560 0.77870 0.43320 -0.00500
C 	C 	0.60100 0.96590 0.48500 -0.86800
H 	H 	0.62830 0.97060 0.48270 0.38600
H 	H 	0.59610 0.95580 0.51040 -0.06800
C 	C 	0.62430 0.66080 0.47520 0.04000
H 	H 	0.64220 0.64410 0.49070 0.05900
H 	H 	0.61530 0.64550 0.45240 -0.01000
N 	N 	0.53000 0.69900 0.45180 -0.10800
N 	N 	0.57900 0.79290 0.40920 -0.24400
N 	N 	0.60016 0.87040 0.42870 -0.18900
N 	N 	0.65000 0.76250 0.44110 -0.23600
O 	O 	0.59140 0.67170 0.49870 -0.35500
H 	H 	0.57040 0.67900 0.50800 0.25100
O 	O 	0.57990 0.00010 0.48260 -0.81500
H 	H 	0.55810 0.01100 0.47800 0.31000
H 	H 	0.61050 0.95240 0.50730 0.28200
H 	H 	0.57840 0.98020 0.49280 0.74600
C 	C 	0.61940 0.66220 0.46840 0.05400
H 	H 	0.63500 0.63910 0.47650 -0.02400
H 	H 	0.60540 0.65550 0.44400 0.03800
O 	O 	0.62750 0.99470 0.47210 -0.17400
H 	H 	0.64760 0.99220 0.48690 0.04400
C 	C 	0.01900 0.21660 0.92550 -0.04600
C 	C 	0.05210 0.27830 0.89550 -0.02000
C 	C 	0.10640 0.39790 0.95590 -0.15400
H 	H 	0.12150 0.39120 0.97830 0.06200
C 	C 	0.09190 0.43610 0.95310 0.30300
C 	C 	0.06920 0.44530 0.92120 -0.25500
H 	H 	0.05810 0.47070 0.91850 0.14900
C 	C 	0.06260 0.41690 0.89290 0.04900
H 	H 	0.04720 0.42270 0.87060 0.01700
C 	C 	0.07870 0.38030 0.89760 -0.03700
H 	H 	0.07450 0.36130 0.87780 0.02700
C 	C 	0.12770 0.23100 0.95080 0.02600
H 	H 	0.10000 0.23270 0.95040 0.02400
C 	C 	0.14590 0.19620 0.96130 -0.03100
C 	C 	0.18570 0.19270 0.96150 0.00100
H 	H 	0.19780 0.16880 0.96890 0.03200
C 	C 	0.20720 0.22310 0.95100 -0.09600
H 	H 	0.23490 0.22110 0.95070 0.07000
C 	C 	0.18960 0.25740 0.94080 0.05600
H 	H 	0.20560 0.27870 0.93320 -0.00500
C 	C 	0.10100 0.46590 0.98500 -0.83800
H 	H 	0.12830 0.47060 0.98270 0.37900
H 	H 	0.09610 0.45580 0.01040 -0.06800
C 	C 	0.12430 0.16080 0.97520 0.03800
H 	H 	0.14220 0.14410 0.99070 0.05900
H 	H 	0.11530 0.14550 0.95240 -0.00800
N 	N 	0.03000 0.19900 0.95180 -0.10800
N 	N 	0.07900 0.29290 0.90920 -0.24400
N 	N 	0.10016 0.37040 0.92870 -0.19100
N 	N 	0.15000 0.26250 0.94110 -0.23600
O 	O 	0.09140 0.17170 0.99870 -0.34900
H 	H 	0.07040 0.17900 0.00800 0.24500
O 	O 	0.07990 0.50010 0.98260 -0.79900
H 	H 	0.05810 0.51100 0.97800 0.30600
H 	H 	0.11050 0.45240 0.00730 0.27100
H 	H 	0.07840 0.48020 0.99280 0.72700
C 	C 	0.11940 0.16220 0.96840 0.05200
H 	H 	0.13500 0.13910 0.97650 -0.02300
H 	H 	0.10540 0.15550 0.94400 0.03800
O 	O 	0.12750 0.49470 0.97210 -0.18100
H 	H 	0.14760 0.49220 0.98690 0.04900
C 	C 	0.01900 0.78340 0.57450 -0.04600
C 	C 	0.05210 0.72170 0.60450 -0.02000
C 	C 	0.10640 0.60210 0.54410 -0.15800
H 	H 	0.12150 0.60880 0.52170 0.06200
C 	C 	0.09190 0.56390 0.54690 0.31100
C 	C 	0.06920 0.55470 0.57880 -0.26000
H 	H 	0.05810 0.52930 0.58150 0.15100
C 	C 	0.06260 0.58310 0.60710 0.05200
H 	H 	0.04720 0.57730 0.62940 0.01600
C 	C 	0.07870 0.61970 0.60240 -0.03800
H 	H 	0.07450 0.63870 0.62220 0.02800
C 	C 	0.12770 0.76900 0.54920 0.02700
H 	H 	0.10000 0.76730 0.54960 0.02400
C 	C 	0.14590 0.80380 0.53870 -0.03200
C 	C 	0.18570 0.80730 0.53850 0.00200
H 	H 	0.19780 0.83120 0.53110 0.03100
C 	C 	0.20720 0.77690 0.54900 -0.09700
H 	H 	0.23490 0.77890 0.54930 0.07000
C 	C 	0.18960 0.74260 0.55920 0.05600
H 	H 	0.20560 0.72130 0.56680 -0.00500
C 	C 	0.10100 0.53410 0.51500 -0.86000
H 	H 	0.12830 0.52940 0.51730 0.38500
H 	H 	0.09610 0.54420 0.48960 -0.06500
C 	C 	0.12430 0.83920 0.52480 0.04000
H 	H 	0.14220 0.85590 0.50930 0.05900
H 	H 	0.11530 0.85450 0.54760 -0.01000
N 	N 	0.03000 0.80100 0.54820 -0.10900
N 	N 	0.07900 0.70710 0.59080 -0.24400
N 	N 	0.10016 0.62960 0.57130 -0.19000
N 	N 	0.15000 0.73750 0.55890 -0.23600
O 	O 	0.09140 0.82830 0.50130 -0.35500
H 	H 	0.07040 0.82100 0.49200 0.25100
O 	O 	0.07990 0.49990 0.51740 -0.80100
H 	H 	0.05810 0.48900 0.52200 0.30500
H 	H 	0.11050 0.54760 0.49270 0.27700
H 	H 	0.07840 0.51980 0.50720 0.73400
C 	C 	0.11940 0.83780 0.53160 0.05300
H 	H 	0.13500 0.86090 0.52350 -0.02400
H 	H 	0.10540 0.84450 0.55600 0.03800
O 	O 	0.12750 0.50530 0.52790 -0.17900
H 	H 	0.14760 0.50780 0.51310 0.04500
C 	C 	0.51900 0.28340 0.07450 -0.04500
C 	C 	0.55210 0.22170 0.10450 -0.02000
C 	C 	0.60640 0.10210 0.04410 -0.16000
H 	H 	0.62150 0.10880 0.02170 0.06200
C 	C 	0.59190 0.06390 0.04690 0.31400
C 	C 	0.56920 0.05470 0.07880 -0.26200
H 	H 	0.55810 0.02930 0.08150 0.15100
C 	C 	0.56260 0.08310 0.10710 0.05400
H 	H 	0.54720 0.07730 0.12940 0.01600
C 	C 	0.57870 0.11970 0.10240 -0.03900
H 	H 	0.57450 0.13870 0.12220 0.02800
C 	C 	0.62770 0.26900 0.04920 0.02700
H 	H 	0.60000 0.26730 0.04960 0.02400
C 	C 	0.64590 0.30380 0.03870 -0.03400
C 	C 	0.68570 0.30730 0.03850 0.00300
H 	H 	0.69780 0.33120 0.03110 0.03100
C 	C 	0.70720 0.27690 0.04900 -0.09800
H 	H 	0.73490 0.27890 0.04930 0.07000
C 	C 	0.68960 0.24260 0.05920 0.05600
H 	H 	0.70560 0.22130 0.06680 -0.00500
C 	C 	0.60100 0.03410 0.01500 -0.87300
H 	H 	0.62830 0.02940 0.01730 0.39000
H 	H 	0.59610 0.04420 0.98960 -0.05800
C 	C 	0.62430 0.33920 0.02480 0.04100
H 	H 	0.64220 0.35590 0.00930 0.05800
H 	H 	0.61530 0.35450 0.04760 -0.01200
N 	N 	0.53000 0.30100 0.04820 -0.10900
N 	N 	0.57900 0.20710 0.09080 -0.24400
N 	N 	0.60016 0.12960 0.07130 -0.18900
N 	N 	0.65000 0.23750 0.05890 -0.23700
O 	O 	0.59140 0.32830 0.00130 -0.36200
H 	H 	0.57040 0.32100 0.99200 0.25700
O 	O 	0.57990 0.99990 0.01740 -0.78900
H 	H 	0.55810 0.98900 0.02200 0.30200
H 	H 	0.61050 0.04760 0.99270 0.27700
H 	H 	0.57840 0.01980 0.00720 0.72900
C 	C 	0.61940 0.33780 0.03160 0.05500
H 	H 	0.63500 0.36090 0.02350 -0.02400
H 	H 	0.60540 0.34450 0.05600 0.03900
O 	O 	0.62750 0.00530 0.02790 -0.18200
H 	H 	0.64760 0.00780 0.01310 0.04200
C 	C 	0.48100 0.21660 0.07450 -0.04500
C 	C 	0.44790 0.27830 0.10450 -0.02000
C 	C 	0.39360 0.39790 0.04410 -0.16200
H 	H 	0.37850 0.39120 0.02170 0.06300
C 	C 	0.40810 0.43610 0.04690 0.31800
C 	C 	0.43080 0.44530 0.07880 -0.26500
H 	H 	0.44190 0.47070 0.08150 0.15300
C 	C 	0.43740 0.41690 0.10710 0.05500
H 	H 	0.45280 0.42270 0.12940 0.01500
C 	C 	0.42130 0.38030 0.10240 -0.04000
H 	H 	0.42550 0.36130 0.12220 0.02900
C 	C 	0.37230 0.23100 0.04920 0.02700
H 	H 	0.40000 0.23270 0.04960 0.02400
C 	C 	0.35410 0.19620 0.03870 -0.03400
C 	C 	0.31430 0.19270 0.03850 0.00300
H 	H 	0.30220 0.16880 0.03110 0.03100
C 	C 	0.29280 0.22310 0.04900 -0.09800
H 	H 	0.26510 0.22110 0.04930 0.06900
C 	C 	0.31040 0.25740 0.05920 0.05600
H 	H 	0.29440 0.27870 0.06680 -0.00500
C 	C 	0.39900 0.46590 0.01500 -0.88200
H 	H 	0.37170 0.47060 0.01730 0.39100
H 	H 	0.40390 0.45580 0.98960 -0.06100
C 	C 	0.37570 0.16080 0.02480 0.04100
H 	H 	0.35780 0.14410 0.00930 0.05700
H 	H 	0.38470 0.14550 0.04760 -0.01200
N 	N 	0.47000 0.19900 0.04820 -0.10900
N 	N 	0.42100 0.29290 0.09080 -0.24400
N 	N 	0.39984 0.37040 0.07130 -0.18900
N 	N 	0.35000 0.26250 0.05890 -0.23700
O 	O 	0.40860 0.17170 0.00130 -0.36200
H 	H 	0.42960 0.17900 0.99200 0.25700
O 	O 	0.42010 0.50010 0.01740 -0.80300
H 	H 	0.44190 0.51100 0.02200 0.30500
H 	H 	0.38950 0.45240 0.99270 0.28200
H 	H 	0.42160 0.48020 0.00720 0.74000
C 	C 	0.38060 0.16220 0.03160 0.05500
H 	H 	0.36500 0.13910 0.02350 -0.02400
H 	H 	0.39460 0.15550 0.05600 0.03900
O 	O 	0.37250 0.49470 0.02790 -0.17700
H 	H 	0.35240 0.49220 0.01310 0.04100
C 	C 	0.98100 0.71660 0.57450 -0.04200
C 	C 	0.94790 0.77830 0.60450 -0.01800
C 	C 	0.89360 0.89790 0.54410 -0.16000
H 	H 	0.87850 0.89120 0.52170 0.06300
C 	C 	0.90810 0.93610 0.54690 0.31400
C 	C 	0.93080 0.94530 0.57880 -0.26200
H 	H 	0.94190 0.97070 0.58150 0.15400
C 	C 	0.93740 0.91690 0.60710 0.05400
H 	H 	0.95280 0.92270 0.62940 0.01700
C 	C 	0.92130 0.88030 0.60240 -0.03900
H 	H 	0.92550 0.86130 0.62220 0.02900
C 	C 	0.87230 0.73100 0.54920 0.02700
H 	H 	0.90000 0.73270 0.54960 0.02400
C 	C 	0.85410 0.69620 0.53870 -0.03200
C 	C 	0.81430 0.69270 0.53850 0.00200
H 	H 	0.80220 0.66880 0.53110 0.03100
C 	C 	0.79280 0.72310 0.54900 -0.09700
H 	H 	0.76510 0.72110 0.54930 0.07000
C 	C 	0.81040 0.75740 0.55920 0.05600
H 	H 	0.79440 0.77870 0.56680 -0.00500
C 	C 	0.89900 0.96590 0.51500 -0.86800
H 	H 	0.87170 0.97060 0.51730 0.38600
H 	H 	0.90390 0.95580 0.48960 -0.06800
C 	C 	0.87570 0.66080 0.52480 0.04000
H 	H 	0.85780 0.64410 0.50930 0.05900
H 	H 	0.88470 0.64550 0.54760 -0.01000
N 	N 	0.97000 0.69900 0.54820 -0.10800
N 	N 	0.92100 0.79290 0.59080 -0.24500
N 	N 	0.89984 0.87040 0.57130 -0.18900
N 	N 	0.85000 0.76250 0.55890 -0.23600
O 	O 	0.90860 0.67170 0.50130 -0.35500
H 	H 	0.92960 0.67900 0.49200 0.25200
O 	O 	0.92010 0.00010 0.51740 -0.81500
H 	H 	0.94190 0.01100 0.52200 0.31000
H 	H 	0.88950 0.95240 0.49270 0.28200
H 	H 	0.92160 0.98020 0.50720 0.74600
C 	C 	0.88060 0.66220 0.53160 0.05400
H 	H 	0.86500 0.63910 0.52350 -0.02400
H 	H 	0.89460 0.65550 0.55600 0.03800
O 	O 	0.87250 0.99470 0.52790 -0.17400
H 	H 	0.85240 0.99220 0.51310 0.04400
C 	C 	0.92550 0.98100 0.28340 -0.04200
C 	C 	0.89550 0.94790 0.22170 -0.01800
C 	C 	0.95590 0.89360 0.10210 -0.15200
H 	H 	0.97830 0.87850 0.10880 0.06200
C 	C 	0.95310 0.90810 0.06390 0.30000
C 	C 	0.92120 0.93080 0.05470 -0.25200
H 	H 	0.91850 0.94190 0.02930 0.14800
C 	C 	0.89290 0.93740 0.08310 0.04700
H 	H 	0.87060 0.95280 0.07730 0.01900
C 	C 	0.89760 0.92130 0.11970 -0.03500
H 	H 	0.87780 0.92550 0.13870 0.02700
C 	C 	0.95080 0.87230 0.26900 0.02600
H 	H 	0.95040 0.90000 0.26730 0.02400
C 	C 	0.96130 0.85410 0.30380 -0.03100
C 	C 	0.96150 0.81430 0.30730 0.00100
H 	H 	0.96890 0.80220 0.33120 0.03200
C 	C 	0.95100 0.79280 0.27690 -0.09600
H 	H 	0.95070 0.76510 0.27890 0.07000
C 	C 	0.94080 0.81040 0.24260 0.05600
H 	H 	0.93320 0.79440 0.22130 -0.00500
C 	C 	0.98500 0.89900 0.03410 -0.83000
H 	H 	0.98270 0.87170 0.02940 0.37800
H 	H 	0.01040 0.90390 0.04420 -0.06500
C 	C 	0.97520 0.87570 0.33920 0.03800
H 	H 	0.99070 0.85780 0.35590 0.06000
H 	H 	0.95240 0.88470 0.35450 -0.00800
N 	N 	0.95180 0.97000 0.30100 -0.10700
N 	N 	0.90920 0.92100 0.20710 -0.24500
N 	N 	0.92870 0.89984 0.12960 -0.19100
N 	N 	0.94110 0.85000 0.23750 -0.23600
O 	O 	0.99870 0.90860 0.32830 -0.34900
H 	H 	0.00800 0.92960 0.32100 0.24600
O 	O 	0.98260 0.92010 0.99990 -0.78700
H 	H 	0.97800 0.94190 0.98900 0.30400
H 	H 	0.00730 0.88950 0.04760 0.26600
H 	H 	0.99280 0.92160 0.01980 0.71700
C 	C 	0.96840 0.88060 0.33780 0.05200
H 	H 	0.97650 0.86500 0.36090 -0.02400
H 	H 	0.94400 0.89460 0.34450 0.03800
O 	O 	0.97210 0.87250 0.00530 -0.18600
H 	H 	0.98690 0.85240 0.00780 0.05000
C 	C 	0.42550 0.48100 0.78340 -0.04500
C 	C 	0.39550 0.44790 0.72170 -0.02000
C 	C 	0.45590 0.39360 0.60210 -0.15800
H 	H 	0.47830 0.37850 0.60880 0.06200
C 	C 	0.45310 0.40810 0.56390 0.31100
C 	C 	0.42120 0.43080 0.55470 -0.26000
H 	H 	0.41850 0.44190 0.52930 0.15100
C 	C 	0.39290 0.43740 0.58310 0.05200
H 	H 	0.37060 0.45280 0.57730 0.01600
C 	C 	0.39760 0.42130 0.61970 -0.03800
H 	H 	0.37780 0.42550 0.63870 0.02800
C 	C 	0.45080 0.37230 0.76900 0.02700
H 	H 	0.45040 0.40000 0.76730 0.02400
C 	C 	0.46130 0.35410 0.80380 -0.03200
C 	C 	0.46150 0.31430 0.80730 0.00200
H 	H 	0.46890 0.30220 0.83120 0.03100
C 	C 	0.45100 0.29280 0.77690 -0.09700
H 	H 	0.45070 0.26510 0.77890 0.07000
C 	C 	0.44080 0.31040 0.74260 0.05600
H 	H 	0.43320 0.29440 0.72130 -0.00500
C 	C 	0.48500 0.39900 0.53410 -0.86000
H 	H 	0.48270 0.37170 0.52940 0.38500
H 	H 	0.51040 0.40390 0.54420 -0.06500
C 	C 	0.47520 0.37570 0.83920 0.04000
H 	H 	0.49070 0.35780 0.85590 0.05900
H 	H 	0.45240 0.38470 0.85450 -0.01000
N 	N 	0.45180 0.47000 0.80100 -0.10800
N 	N 	0.40920 0.42100 0.70710 -0.24400
N 	N 	0.42870 0.39984 0.62960 -0.19000
N 	N 	0.44110 0.35000 0.73750 -0.23600
O 	O 	0.49870 0.40860 0.82830 -0.35500
H 	H 	0.50800 0.42960 0.82100 0.25100
O 	O 	0.48260 0.42010 0.49990 -0.80100
H 	H 	0.47800 0.44190 0.48900 0.30600
H 	H 	0.50730 0.38950 0.54760 0.27700
H 	H 	0.49280 0.42160 0.51980 0.73400
C 	C 	0.46840 0.38060 0.83780 0.05400
H 	H 	0.47650 0.36500 0.86090 -0.02400
H 	H 	0.44400 0.39460 0.84450 0.03800
O 	O 	0.47210 0.37250 0.50530 -0.17900
H 	H 	0.48690 0.35240 0.50780 0.04500
C 	C 	0.42550 0.51900 0.71660 -0.04500
C 	C 	0.39550 0.55210 0.77830 -0.02000
C 	C 	0.45590 0.60640 0.89790 -0.16000
H 	H 	0.47830 0.62150 0.89120 0.06300
C 	C 	0.45310 0.59190 0.93610 0.31400
C 	C 	0.42120 0.56920 0.94530 -0.26200
H 	H 	0.41850 0.55810 0.97070 0.15300
C 	C 	0.39290 0.56260 0.91690 0.05400
H 	H 	0.37060 0.54720 0.92270 0.01600
C 	C 	0.39760 0.57870 0.88030 -0.03900
H 	H 	0.37780 0.57450 0.86130 0.02800
C 	C 	0.45080 0.62770 0.73100 0.02700
H 	H 	0.45040 0.60000 0.73270 0.02400
C 	C 	0.46130 0.64590 0.69620 -0.03200
C 	C 	0.46150 0.68570 0.69270 0.00200
H 	H 	0.46890 0.69780 0.66880 0.03100
C 	C 	0.45100 0.70720 0.72310 -0.09700
H 	H 	0.45070 0.73490 0.72110 0.07000
C 	C 	0.44080 0.68960 0.75740 0.05600
H 	H 	0.43320 0.70560 0.77870 -0.00500
C 	C 	0.48500 0.60100 0.96590 -0.86800
H 	H 	0.48270 0.62830 0.97060 0.38600
H 	H 	0.51040 0.59610 0.95580 -0.06800
C 	C 	0.47520 0.62430 0.66080 0.04000
H 	H 	0.49070 0.64220 0.64410 0.05900
H 	H 	0.45240 0.61530 0.64550 -0.01000
N 	N 	0.45180 0.53000 0.69900 -0.10800
N 	N 	0.40920 0.57900 0.79290 -0.24400
N 	N 	0.42870 0.60016 0.87040 -0.18900
N 	N 	0.44110 0.65000 0.76250 -0.23600
O 	O 	0.49870 0.59140 0.67170 -0.35500
H 	H 	0.50800 0.57040 0.67900 0.25100
O 	O 	0.48260 0.57990 0.00010 -0.81500
H 	H 	0.47800 0.55810 0.01100 0.31000
H 	H 	0.50730 0.61050 0.95240 0.28200
H 	H 	0.49280 0.57840 0.98020 0.74600
C 	C 	0.46840 0.61940 0.66220 0.05400
H 	H 	0.47650 0.63500 0.63910 -0.02400
H 	H 	0.44400 0.60540 0.65550 0.03800
O 	O 	0.47210 0.62750 0.99470 -0.17400
H 	H 	0.48690 0.64760 0.99220 0.04400
C 	C 	0.92550 0.01900 0.21660 -0.04600
C 	C 	0.89550 0.05210 0.27830 -0.02000
C 	C 	0.95590 0.10640 0.39790 -0.15400
H 	H 	0.97830 0.12150 0.39120 0.06200
C 	C 	0.95310 0.09190 0.43610 0.30300
C 	C 	0.92120 0.06920 0.44530 -0.25500
H 	H 	0.91850 0.05810 0.47070 0.14900
C 	C 	0.89290 0.06260 0.41690 0.04900
H 	H 	0.87060 0.04720 0.42270 0.01700
C 	C 	0.89760 0.07870 0.38030 -0.03700
H 	H 	0.87780 0.07450 0.36130 0.02700
C 	C 	0.95080 0.12770 0.23100 0.02600
H 	H 	0.95040 0.10000 0.23270 0.02400
C 	C 	0.96130 0.14590 0.19620 -0.03100
C 	C 	0.96150 0.18570 0.19270 0.00100
H 	H 	0.96890 0.19780 0.16880 0.03200
C 	C 	0.95100 0.20720 0.22310 -0.09600
H 	H 	0.95070 0.23490 0.22110 0.07000
C 	C 	0.94080 0.18960 0.25740 0.05600
H 	H 	0.93320 0.20560 0.27870 -0.00500
C 	C 	0.98500 0.10100 0.46590 -0.83800
H 	H 	0.98270 0.12830 0.47060 0.37900
H 	H 	0.01040 0.09610 0.45580 -0.06800
C 	C 	0.97520 0.12430 0.16080 0.03800
H 	H 	0.99070 0.14220 0.14410 0.05900
H 	H 	0.95240 0.11530 0.14550 -0.00800
N 	N 	0.95180 0.03000 0.19900 -0.10800
N 	N 	0.90920 0.07900 0.29290 -0.24400
N 	N 	0.92870 0.10016 0.37040 -0.19100
N 	N 	0.94110 0.15000 0.26250 -0.23600
O 	O 	0.99870 0.09140 0.17170 -0.34900
H 	H 	0.00800 0.07040 0.17900 0.24500
O 	O 	0.98260 0.07990 0.50010 -0.79900
H 	H 	0.97800 0.05810 0.51100 0.30600
H 	H 	0.00730 0.11050 0.45240 0.27100
H 	H 	0.99280 0.07840 0.48020 0.72700
C 	C 	0.96840 0.11940 0.16220 0.05200
H 	H 	0.97650 0.13500 0.13910 -0.02300
H 	H 	0.94400 0.10540 0.15550 0.03800
O 	O 	0.97210 0.12750 0.49470 -0.18100
H 	H 	0.98690 0.14760 0.49220 0.04900
C 	C 	0.57450 0.01900 0.78340 -0.04600
C 	C 	0.60450 0.05210 0.72170 -0.02000
C 	C 	0.54410 0.10640 0.60210 -0.15800
H 	H 	0.52170 0.12150 0.60880 0.06200
C 	C 	0.54690 0.09190 0.56390 0.31100
C 	C 	0.57880 0.06920 0.55470 -0.26000
H 	H 	0.58150 0.05810 0.52930 0.15100
C 	C 	0.60710 0.06260 0.58310 0.05200
H 	H 	0.62940 0.04720 0.57730 0.01600
C 	C 	0.60240 0.07870 0.61970 -0.03800
H 	H 	0.62220 0.07450 0.63870 0.02800
C 	C 	0.54920 0.12770 0.76900 0.02700
H 	H 	0.54960 0.10000 0.76730 0.02400
C 	C 	0.53870 0.14590 0.80380 -0.03200
C 	C 	0.53850 0.18570 0.80730 0.00200
H 	H 	0.53110 0.19780 0.83120 0.03100
C 	C 	0.54900 0.20720 0.77690 -0.09700
H 	H 	0.54930 0.23490 0.77890 0.07000
C 	C 	0.55920 0.18960 0.74260 0.05600
H 	H 	0.56680 0.20560 0.72130 -0.00500
C 	C 	0.51500 0.10100 0.53410 -0.86000
H 	H 	0.51730 0.12830 0.52940 0.38500
H 	H 	0.48960 0.09610 0.54420 -0.06500
C 	C 	0.52480 0.12430 0.83920 0.04000
H 	H 	0.50930 0.14220 0.85590 0.05900
H 	H 	0.54760 0.11530 0.85450 -0.01000
N 	N 	0.54820 0.03000 0.80100 -0.10900
N 	N 	0.59080 0.07900 0.70710 -0.24400
N 	N 	0.57130 0.10016 0.62960 -0.19000
N 	N 	0.55890 0.15000 0.73750 -0.23600
O 	O 	0.50130 0.09140 0.82830 -0.35500
H 	H 	0.49200 0.07040 0.82100 0.25100
O 	O 	0.51740 0.07990 0.49990 -0.80100
H 	H 	0.52200 0.05810 0.48900 0.30500
H 	H 	0.49270 0.11050 0.54760 0.27700
H 	H 	0.50720 0.07840 0.51980 0.73400
C 	C 	0.53160 0.11940 0.83780 0.05300
H 	H 	0.52350 0.13500 0.86090 -0.02400
H 	H 	0.55600 0.10540 0.84450 0.03800
O 	O 	0.52790 0.12750 0.50530 -0.17900
H 	H 	0.51310 0.14760 0.50780 0.04500
C 	C 	0.07450 0.51900 0.28340 -0.04500
C 	C 	0.10450 0.55210 0.22170 -0.02000
C 	C 	0.04410 0.60640 0.10210 -0.16000
H 	H 	0.02170 0.62150 0.10880 0.06200
C 	C 	0.04690 0.59190 0.06390 0.31400
C 	C 	0.07880 0.56920 0.05470 -0.26200
H 	H 	0.08150 0.55810 0.02930 0.15100
C 	C 	0.10710 0.56260 0.08310 0.05400
H 	H 	0.12940 0.54720 0.07730 0.01600
C 	C 	0.10240 0.57870 0.11970 -0.03900
H 	H 	0.12220 0.57450 0.13870 0.02800
C 	C 	0.04920 0.62770 0.26900 0.02700
H 	H 	0.04960 0.60000 0.26730 0.02400
C 	C 	0.03870 0.64590 0.30380 -0.03400
C 	C 	0.03850 0.68570 0.30730 0.00300
H 	H 	0.03110 0.69780 0.33120 0.03100
C 	C 	0.04900 0.70720 0.27690 -0.09800
H 	H 	0.04930 0.73490 0.27890 0.07000
C 	C 	0.05920 0.68960 0.24260 0.05600
H 	H 	0.06680 0.70560 0.22130 -0.00500
C 	C 	0.01500 0.60100 0.03410 -0.87300
H 	H 	0.01730 0.62830 0.02940 0.39000
H 	H 	0.98960 0.59610 0.04420 -0.05800
C 	C 	0.02480 0.62430 0.33920 0.04100
H 	H 	0.00930 0.64220 0.35590 0.05800
H 	H 	0.04760 0.61530 0.35450 -0.01200
N 	N 	0.04820 0.53000 0.30100 -0.10900
N 	N 	0.09080 0.57900 0.20710 -0.24400
N 	N 	0.07130 0.60016 0.12960 -0.18900
N 	N 	0.05890 0.65000 0.23750 -0.23700
O 	O 	0.00130 0.59140 0.32830 -0.36200
H 	H 	0.99200 0.57040 0.32100 0.25700
O 	O 	0.01740 0.57990 0.99990 -0.78900
H 	H 	0.02200 0.55810 0.98900 0.30200
H 	H 	0.99270 0.61050 0.04760 0.27700
H 	H 	0.00720 0.57840 0.01980 0.72900
C 	C 	0.03160 0.61940 0.33780 0.05500
H 	H 	0.02350 0.63500 0.36090 -0.02400
H 	H 	0.05600 0.60540 0.34450 0.03900
O 	O 	0.02790 0.62750 0.00530 -0.18200
H 	H 	0.01310 0.64760 0.00780 0.04200
C 	C 	0.07450 0.48100 0.21660 -0.04500
C 	C 	0.10450 0.44790 0.27830 -0.02000
C 	C 	0.04410 0.39360 0.39790 -0.16200
H 	H 	0.02170 0.37850 0.39120 0.06300
C 	C 	0.04690 0.40810 0.43610 0.31800
C 	C 	0.07880 0.43080 0.44530 -0.26500
H 	H 	0.08150 0.44190 0.47070 0.15300
C 	C 	0.10710 0.43740 0.41690 0.05500
H 	H 	0.12940 0.45280 0.42270 0.01500
C 	C 	0.10240 0.42130 0.38030 -0.04000
H 	H 	0.12220 0.42550 0.36130 0.02900
C 	C 	0.04920 0.37230 0.23100 0.02700
H 	H 	0.04960 0.40000 0.23270 0.02400
C 	C 	0.03870 0.35410 0.19620 -0.03400
C 	C 	0.03850 0.31430 0.19270 0.00300
H 	H 	0.03110 0.30220 0.16880 0.03100
C 	C 	0.04900 0.29280 0.22310 -0.09800
H 	H 	0.04930 0.26510 0.22110 0.06900
C 	C 	0.05920 0.31040 0.25740 0.05600
H 	H 	0.06680 0.29440 0.27870 -0.00500
C 	C 	0.01500 0.39900 0.46590 -0.88200
H 	H 	0.01730 0.37170 0.47060 0.39100
H 	H 	0.98960 0.40390 0.45580 -0.06100
C 	C 	0.02480 0.37570 0.16080 0.04100
H 	H 	0.00930 0.35780 0.14410 0.05700
H 	H 	0.04760 0.38470 0.14550 -0.01200
N 	N 	0.04820 0.47000 0.19900 -0.10900
N 	N 	0.09080 0.42100 0.29290 -0.24400
N 	N 	0.07130 0.39984 0.37040 -0.18900
N 	N 	0.05890 0.35000 0.26250 -0.23700
O 	O 	0.00130 0.40860 0.17170 -0.36200
H 	H 	0.99200 0.42960 0.17900 0.25700
O 	O 	0.01740 0.42010 0.50010 -0.80300
H 	H 	0.02200 0.44190 0.51100 0.30500
H 	H 	0.99270 0.38950 0.45240 0.28200
H 	H 	0.00720 0.42160 0.48020 0.74000
C 	C 	0.03160 0.38060 0.16220 0.05500
H 	H 	0.02350 0.36500 0.13910 -0.02400
H 	H 	0.05600 0.39460 0.15550 0.03900
O 	O 	0.02790 0.37250 0.49470 -0.17700
H 	H 	0.01310 0.35240 0.49220 0.04100
C 	C 	0.57450 0.98100 0.71660 -0.04200
C 	C 	0.60450 0.94790 0.77830 -0.01800
C 	C 	0.54410 0.89360 0.89790 -0.16000
H 	H 	0.52170 0.87850 0.89120 0.06300
C 	C 	0.54690 0.90810 0.93610 0.31400
C 	C 	0.57880 0.93080 0.94530 -0.26200
H 	H 	0.58150 0.94190 0.97070 0.15400
C 	C 	0.60710 0.93740 0.91690 0.05400
H 	H 	0.62940 0.95280 0.92270 0.01700
C 	C 	0.60240 0.92130 0.88030 -0.03900
H 	H 	0.62220 0.92550 0.86130 0.02900
C 	C 	0.54920 0.87230 0.73100 0.02700
H 	H 	0.54960 0.90000 0.73270 0.02400
C 	C 	0.53870 0.85410 0.69620 -0.03200
C 	C 	0.53850 0.81430 0.69270 0.00200
H 	H 	0.53110 0.80220 0.66880 0.03100
C 	C 	0.54900 0.79280 0.72310 -0.09700
H 	H 	0.54930 0.76510 0.72110 0.07000
C 	C 	0.55920 0.81040 0.75740 0.05600
H 	H 	0.56680 0.79440 0.77870 -0.00500
C 	C 	0.51500 0.89900 0.96590 -0.86800
H 	H 	0.51730 0.87170 0.97060 0.38600
H 	H 	0.48960 0.90390 0.95580 -0.06800
C 	C 	0.52480 0.87570 0.66080 0.04000
H 	H 	0.50930 0.85780 0.64410 0.05900
H 	H 	0.54760 0.88470 0.64550 -0.01000
N 	N 	0.54820 0.97000 0.69900 -0.10800
N 	N 	0.59080 0.92100 0.79290 -0.24500
N 	N 	0.57130 0.89984 0.87040 -0.18900
N 	N 	0.55890 0.85000 0.76250 -0.23600
O 	O 	0.50130 0.90860 0.67170 -0.35500
H 	H 	0.49200 0.92960 0.67900 0.25200
O 	O 	0.51740 0.92010 0.00010 -0.81500
H 	H 	0.52200 0.94190 0.01100 0.31000
H 	H 	0.49270 0.88950 0.95240 0.28200
H 	H 	0.50720 0.92160 0.98020 0.74600
C 	C 	0.53160 0.88060 0.66220 0.05400
H 	H 	0.52350 0.86500 0.63910 -0.02400
H 	H 	0.55600 0.89460 0.65550 0.03800
O 	O 	0.52790 0.87250 0.99470 -0.17400
H 	H 	0.51310 0.85240 0.99220 0.04400
C 	C 	0.28340 0.92550 0.98100 -0.04200
C 	C 	0.22170 0.89550 0.94790 -0.01800
C 	C 	0.10210 0.95590 0.89360 -0.15200
H 	H 	0.10880 0.97830 0.87850 0.06200
C 	C 	0.06390 0.95310 0.90810 0.30000
C 	C 	0.05470 0.92120 0.93080 -0.25200
H 	H 	0.02930 0.91850 0.94190 0.14800
C 	C 	0.08310 0.89290 0.93740 0.04700
H 	H 	0.07730 0.87060 0.95280 0.01900
C 	C 	0.11970 0.89760 0.92130 -0.03500
H 	H 	0.13870 0.87780 0.92550 0.02700
C 	C 	0.26900 0.95080 0.87230 0.02600
H 	H 	0.26730 0.95040 0.90000 0.02400
C 	C 	0.30380 0.96130 0.85410 -0.03100
C 	C 	0.30730 0.96150 0.81430 0.00100
H 	H 	0.33120 0.96890 0.80220 0.03200
C 	C 	0.27690 0.95100 0.79280 -0.09600
H 	H 	0.27890 0.95070 0.76510 0.07000
C 	C 	0.24260 0.94080 0.81040 0.05600
H 	H 	0.22130 0.93320 0.79440 -0.00500
C 	C 	0.03410 0.98500 0.89900 -0.83000
H 	H 	0.02940 0.98270 0.87170 0.37800
H 	H 	0.04420 0.01040 0.90390 -0.06500
C 	C 	0.33920 0.97520 0.87570 0.03800
H 	H 	0.35590 0.99070 0.85780 0.06000
H 	H 	0.35450 0.95240 0.88470 -0.00800
N 	N 	0.30100 0.95180 0.97000 -0.10700
N 	N 	0.20710 0.90920 0.92100 -0.24500
N 	N 	0.12960 0.92870 0.89984 -0.19100
N 	N 	0.23750 0.94110 0.85000 -0.23600
O 	O 	0.32830 0.99870 0.90860 -0.34900
H 	H 	0.32100 0.00800 0.92960 0.24600
O 	O 	0.99990 0.98260 0.92010 -0.78700
H 	H 	0.98900 0.97800 0.94190 0.30400
H 	H 	0.04760 0.00730 0.88950 0.26600
H 	H 	0.01980 0.99280 0.92160 0.71700
C 	C 	0.33780 0.96840 0.88060 0.05200
H 	H 	0.36090 0.97650 0.86500 -0.02400
H 	H 	0.34450 0.94400 0.89460 0.03800
O 	O 	0.00530 0.97210 0.87250 -0.18600
H 	H 	0.00780 0.98690 0.85240 0.05000
C 	C 	0.78340 0.42550 0.48100 -0.04500
C 	C 	0.72170 0.39550 0.44790 -0.02000
C 	C 	0.60210 0.45590 0.39360 -0.15800
H 	H 	0.60880 0.47830 0.37850 0.06200
C 	C 	0.56390 0.45310 0.40810 0.31100
C 	C 	0.55470 0.42120 0.43080 -0.26000
H 	H 	0.52930 0.41850 0.44190 0.15100
C 	C 	0.58310 0.39290 0.43740 0.05200
H 	H 	0.57730 0.37060 0.45280 0.01600
C 	C 	0.61970 0.39760 0.42130 -0.03800
H 	H 	0.63870 0.37780 0.42550 0.02800
C 	C 	0.76900 0.45080 0.37230 0.02700
H 	H 	0.76730 0.45040 0.40000 0.02400
C 	C 	0.80380 0.46130 0.35410 -0.03200
C 	C 	0.80730 0.46150 0.31430 0.00200
H 	H 	0.83120 0.46890 0.30220 0.03100
C 	C 	0.77690 0.45100 0.29280 -0.09700
H 	H 	0.77890 0.45070 0.26510 0.07000
C 	C 	0.74260 0.44080 0.31040 0.05600
H 	H 	0.72130 0.43320 0.29440 -0.00500
C 	C 	0.53410 0.48500 0.39900 -0.86000
H 	H 	0.52940 0.48270 0.37170 0.38500
H 	H 	0.54420 0.51040 0.40390 -0.06500
C 	C 	0.83920 0.47520 0.37570 0.04000
H 	H 	0.85590 0.49070 0.35780 0.05900
H 	H 	0.85450 0.45240 0.38470 -0.01000
N 	N 	0.80100 0.45180 0.47000 -0.10800
N 	N 	0.70710 0.40920 0.42100 -0.24400
N 	N 	0.62960 0.42870 0.39984 -0.19000
N 	N 	0.73750 0.44110 0.35000 -0.23600
O 	O 	0.82830 0.49870 0.40860 -0.35500
H 	H 	0.82100 0.50800 0.42960 0.25100
O 	O 	0.49990 0.48260 0.42010 -0.80100
H 	H 	0.48900 0.47800 0.44190 0.30600
H 	H 	0.54760 0.50730 0.38950 0.27700
H 	H 	0.51980 0.49280 0.42160 0.73400
C 	C 	0.83780 0.46840 0.38060 0.05400
H 	H 	0.86090 0.47650 0.36500 -0.02400
H 	H 	0.84450 0.44400 0.39460 0.03800
O 	O 	0.50530 0.47210 0.37250 -0.17900
H 	H 	0.50780 0.48690 0.35240 0.04500
C 	C 	0.71660 0.42550 0.51900 -0.04500
C 	C 	0.77830 0.39550 0.55210 -0.02000
C 	C 	0.89790 0.45590 0.60640 -0.16000
H 	H 	0.89120 0.47830 0.62150 0.06300
C 	C 	0.93610 0.45310 0.59190 0.31400
C 	C 	0.94530 0.42120 0.56920 -0.26200
H 	H 	0.97070 0.41850 0.55810 0.15300
C 	C 	0.91690 0.39290 0.56260 0.05400
H 	H 	0.92270 0.37060 0.54720 0.01600
C 	C 	0.88030 0.39760 0.57870 -0.03900
H 	H 	0.86130 0.37780 0.57450 0.02800
C 	C 	0.73100 0.45080 0.62770 0.02700
H 	H 	0.73270 0.45040 0.60000 0.02400
C 	C 	0.69620 0.46130 0.64590 -0.03200
C 	C 	0.69270 0.46150 0.68570 0.00200
H 	H 	0.66880 0.46890 0.69780 0.03100
C 	C 	0.72310 0.45100 0.70720 -0.09700
H 	H 	0.72110 0.45070 0.73490 0.07000
C 	C 	0.75740 0.44080 0.68960 0.05600
H 	H 	0.77870 0.43320 0.70560 -0.00500
C 	C 	0.96590 0.48500 0.60100 -0.86800
H 	H 	0.97060 0.48270 0.62830 0.38600
H 	H 	0.95580 0.51040 0.59610 -0.06800
C 	C 	0.66080 0.47520 0.62430 0.04000
H 	H 	0.64410 0.49070 0.64220 0.05900
H 	H 	0.64550 0.45240 0.61530 -0.01000
N 	N 	0.69900 0.45180 0.53000 -0.10800
N 	N 	0.79290 0.40920 0.57900 -0.24400
N 	N 	0.87040 0.42870 0.60016 -0.18900
N 	N 	0.76250 0.44110 0.65000 -0.23600
O 	O 	0.67170 0.49870 0.59140 -0.35500
H 	H 	0.67900 0.50800 0.57040 0.25100
O 	O 	0.00010 0.48260 0.57990 -0.81500
H 	H 	0.01100 0.47800 0.55810 0.31000
H 	H 	0.95240 0.50730 0.61050 0.28200
H 	H 	0.98020 0.49280 0.57840 0.74600
C 	C 	0.66220 0.46840 0.61940 0.05400
H 	H 	0.63910 0.47650 0.63500 -0.02400
H 	H 	0.65550 0.44400 0.60540 0.03800
O 	O 	0.99470 0.47210 0.62750 -0.17400
H 	H 	0.99220 0.48690 0.64760 0.04400
C 	C 	0.21660 0.92550 0.01900 -0.04600
C 	C 	0.27830 0.89550 0.05210 -0.02000
C 	C 	0.39790 0.95590 0.10640 -0.15400
H 	H 	0.39120 0.97830 0.12150 0.06200
C 	C 	0.43610 0.95310 0.09190 0.30300
C 	C 	0.44530 0.92120 0.06920 -0.25500
H 	H 	0.47070 0.91850 0.05810 0.14900
C 	C 	0.41690 0.89290 0.06260 0.04900
H 	H 	0.42270 0.87060 0.04720 0.01700
C 	C 	0.38030 0.89760 0.07870 -0.03700
H 	H 	0.36130 0.87780 0.07450 0.02700
C 	C 	0.23100 0.95080 0.12770 0.02600
H 	H 	0.23270 0.95040 0.10000 0.02400
C 	C 	0.19620 0.96130 0.14590 -0.03100
C 	C 	0.19270 0.96150 0.18570 0.00100
H 	H 	0.16880 0.96890 0.19780 0.03200
C 	C 	0.22310 0.95100 0.20720 -0.09600
H 	H 	0.22110 0.95070 0.23490 0.07000
C 	C 	0.25740 0.94080 0.18960 0.05600
H 	H 	0.27870 0.93320 0.20560 -0.00500
C 	C 	0.46590 0.98500 0.10100 -0.83800
H 	H 	0.47060 0.98270 0.12830 0.37900
H 	H 	0.45580 0.01040 0.09610 -0.06800
C 	C 	0.16080 0.97520 0.12430 0.03800
H 	H 	0.14410 0.99070 0.14220 0.05900
H 	H 	0.14550 0.95240 0.11530 -0.00800
N 	N 	0.19900 0.95180 0.03000 -0.10800
N 	N 	0.29290 0.90920 0.07900 -0.24400
N 	N 	0.37040 0.92870 0.10016 -0.19100
N 	N 	0.26250 0.94110 0.15000 -0.23600
O 	O 	0.17170 0.99870 0.09140 -0.34900
H 	H 	0.17900 0.00800 0.07040 0.24500
O 	O 	0.50010 0.98260 0.07990 -0.79900
H 	H 	0.51100 0.97800 0.05810 0.30600
H 	H 	0.45240 0.00730 0.11050 0.27100
H 	H 	0.48020 0.99280 0.07840 0.72700
C 	C 	0.16220 0.96840 0.11940 0.05200
H 	H 	0.13910 0.97650 0.13500 -0.02300
H 	H 	0.15550 0.94400 0.10540 0.03800
O 	O 	0.49470 0.97210 0.12750 -0.18100
H 	H 	0.49220 0.98690 0.14760 0.04900
C 	C 	0.78340 0.57450 0.01900 -0.04600
C 	C 	0.72170 0.60450 0.05210 -0.02000
C 	C 	0.60210 0.54410 0.10640 -0.15800
H 	H 	0.60880 0.52170 0.12150 0.06200
C 	C 	0.56390 0.54690 0.09190 0.31100
C 	C 	0.55470 0.57880 0.06920 -0.26000
H 	H 	0.52930 0.58150 0.05810 0.15100
C 	C 	0.58310 0.60710 0.06260 0.05200
H 	H 	0.57730 0.62940 0.04720 0.01600
C 	C 	0.61970 0.60240 0.07870 -0.03800
H 	H 	0.63870 0.62220 0.07450 0.02800
C 	C 	0.76900 0.54920 0.12770 0.02700
H 	H 	0.76730 0.54960 0.10000 0.02400
C 	C 	0.80380 0.53870 0.14590 -0.03200
C 	C 	0.80730 0.53850 0.18570 0.00200
H 	H 	0.83120 0.53110 0.19780 0.03100
C 	C 	0.77690 0.54900 0.20720 -0.09700
H 	H 	0.77890 0.54930 0.23490 0.07000
C 	C 	0.74260 0.55920 0.18960 0.05600
H 	H 	0.72130 0.56680 0.20560 -0.00500
C 	C 	0.53410 0.51500 0.10100 -0.86000
H 	H 	0.52940 0.51730 0.12830 0.38500
H 	H 	0.54420 0.48960 0.09610 -0.06500
C 	C 	0.83920 0.52480 0.12430 0.04000
H 	H 	0.85590 0.50930 0.14220 0.05900
H 	H 	0.85450 0.54760 0.11530 -0.01000
N 	N 	0.80100 0.54820 0.03000 -0.10900
N 	N 	0.70710 0.59080 0.07900 -0.24400
N 	N 	0.62960 0.57130 0.10016 -0.19000
N 	N 	0.73750 0.55890 0.15000 -0.23600
O 	O 	0.82830 0.50130 0.09140 -0.35500
H 	H 	0.82100 0.49200 0.07040 0.25100
O 	O 	0.49990 0.51740 0.07990 -0.80100
H 	H 	0.48900 0.52200 0.05810 0.30500
H 	H 	0.54760 0.49270 0.11050 0.27700
H 	H 	0.51980 0.50720 0.07840 0.73400
C 	C 	0.83780 0.53160 0.11940 0.05300
H 	H 	0.86090 0.52350 0.13500 -0.02400
H 	H 	0.84450 0.55600 0.10540 0.03800
O 	O 	0.50530 0.52790 0.12750 -0.17900
H 	H 	0.50780 0.51310 0.14760 0.04500
C 	C 	0.28340 0.07450 0.51900 -0.04500
C 	C 	0.22170 0.10450 0.55210 -0.02000
C 	C 	0.10210 0.04410 0.60640 -0.16000
H 	H 	0.10880 0.02170 0.62150 0.06200
C 	C 	0.06390 0.04690 0.59190 0.31400
C 	C 	0.05470 0.07880 0.56920 -0.26200
H 	H 	0.02930 0.08150 0.55810 0.15100
C 	C 	0.08310 0.10710 0.56260 0.05400
H 	H 	0.07730 0.12940 0.54720 0.01600
C 	C 	0.11970 0.10240 0.57870 -0.03900
H 	H 	0.13870 0.12220 0.57450 0.02800
C 	C 	0.26900 0.04920 0.62770 0.02700
H 	H 	0.26730 0.04960 0.60000 0.02400
C 	C 	0.30380 0.03870 0.64590 -0.03400
C 	C 	0.30730 0.03850 0.68570 0.00300
H 	H 	0.33120 0.03110 0.69780 0.03100
C 	C 	0.27690 0.04900 0.70720 -0.09800
H 	H 	0.27890 0.04930 0.73490 0.07000
C 	C 	0.24260 0.05920 0.68960 0.05600
H 	H 	0.22130 0.06680 0.70560 -0.00500
C 	C 	0.03410 0.01500 0.60100 -0.87300
H 	H 	0.02940 0.01730 0.62830 0.39000
H 	H 	0.04420 0.98960 0.59610 -0.05800
C 	C 	0.33920 0.02480 0.62430 0.04100
H 	H 	0.35590 0.00930 0.64220 0.05800
H 	H 	0.35450 0.04760 0.61530 -0.01200
N 	N 	0.30100 0.04820 0.53000 -0.10900
N 	N 	0.20710 0.09080 0.57900 -0.24400
N 	N 	0.12960 0.07130 0.60016 -0.18900
N 	N 	0.23750 0.05890 0.65000 -0.23700
O 	O 	0.32830 0.00130 0.59140 -0.36200
H 	H 	0.32100 0.99200 0.57040 0.25700
O 	O 	0.99990 0.01740 0.57990 -0.78900
H 	H 	0.98900 0.02200 0.55810 0.30200
H 	H 	0.04760 0.99270 0.61050 0.27700
H 	H 	0.01980 0.00720 0.57840 0.72900
C 	C 	0.33780 0.03160 0.61940 0.05500
H 	H 	0.36090 0.02350 0.63500 -0.02400
H 	H 	0.34450 0.05600 0.60540 0.03900
O 	O 	0.00530 0.02790 0.62750 -0.18200
H 	H 	0.00780 0.01310 0.64760 0.04200
C 	C 	0.21660 0.07450 0.48100 -0.04500
C 	C 	0.27830 0.10450 0.44790 -0.02000
C 	C 	0.39790 0.04410 0.39360 -0.16200
H 	H 	0.39120 0.02170 0.37850 0.06300
C 	C 	0.43610 0.04690 0.40810 0.31800
C 	C 	0.44530 0.07880 0.43080 -0.26500
H 	H 	0.47070 0.08150 0.44190 0.15300
C 	C 	0.41690 0.10710 0.43740 0.05500
H 	H 	0.42270 0.12940 0.45280 0.01500
C 	C 	0.38030 0.10240 0.42130 -0.04000
H 	H 	0.36130 0.12220 0.42550 0.02900
C 	C 	0.23100 0.04920 0.37230 0.02700
H 	H 	0.23270 0.04960 0.40000 0.02400
C 	C 	0.19620 0.03870 0.35410 -0.03400
C 	C 	0.19270 0.03850 0.31430 0.00300
H 	H 	0.16880 0.03110 0.30220 0.03100
C 	C 	0.22310 0.04900 0.29280 -0.09800
H 	H 	0.22110 0.04930 0.26510 0.06900
C 	C 	0.25740 0.05920 0.31040 0.05600
H 	H 	0.27870 0.06680 0.29440 -0.00500
C 	C 	0.46590 0.01500 0.39900 -0.88200
H 	H 	0.47060 0.01730 0.37170 0.39100
H 	H 	0.45580 0.98960 0.40390 -0.06100
C 	C 	0.16080 0.02480 0.37570 0.04100
H 	H 	0.14410 0.00930 0.35780 0.05700
H 	H 	0.14550 0.04760 0.38470 -0.01200
N 	N 	0.19900 0.04820 0.47000 -0.10900
N 	N 	0.29290 0.09080 0.42100 -0.24400
N 	N 	0.37040 0.07130 0.39984 -0.18900
N 	N 	0.26250 0.05890 0.35000 -0.23700
O 	O 	0.17170 0.00130 0.40860 -0.36200
H 	H 	0.17900 0.99200 0.42960 0.25700
O 	O 	0.50010 0.01740 0.42010 -0.80300
H 	H 	0.51100 0.02200 0.44190 0.30500
H 	H 	0.45240 0.99270 0.38950 0.28200
H 	H 	0.48020 0.00720 0.42160 0.74000
C 	C 	0.16220 0.03160 0.38060 0.05500
H 	H 	0.13910 0.02350 0.36500 -0.02400
H 	H 	0.15550 0.05600 0.39460 0.03900
O 	O 	0.49470 0.02790 0.37250 -0.17700
H 	H 	0.49220 0.01310 0.35240 0.04100
C 	C 	0.71660 0.57450 0.98100 -0.04200
C 	C 	0.77830 0.60450 0.94790 -0.01800
C 	C 	0.89790 0.54410 0.89360 -0.16000
H 	H 	0.89120 0.52170 0.87850 0.06300
C 	C 	0.93610 0.54690 0.90810 0.31400
C 	C 	0.94530 0.57880 0.93080 -0.26200
H 	H 	0.97070 0.58150 0.94190 0.15400
C 	C 	0.91690 0.60710 0.93740 0.05400
H 	H 	0.92270 0.62940 0.95280 0.01700
C 	C 	0.88030 0.60240 0.92130 -0.03900
H 	H 	0.86130 0.62220 0.92550 0.02900
C 	C 	0.73100 0.54920 0.87230 0.02700
H 	H 	0.73270 0.54960 0.90000 0.02400
C 	C 	0.69620 0.53870 0.85410 -0.03200
C 	C 	0.69270 0.53850 0.81430 0.00200
H 	H 	0.66880 0.53110 0.80220 0.03100
C 	C 	0.72310 0.54900 0.79280 -0.09700
H 	H 	0.72110 0.54930 0.76510 0.07000
C 	C 	0.75740 0.55920 0.81040 0.05600
H 	H 	0.77870 0.56680 0.79440 -0.00500
C 	C 	0.96590 0.51500 0.89900 -0.86800
H 	H 	0.97060 0.51730 0.87170 0.38600
H 	H 	0.95580 0.48960 0.90390 -0.06800
C 	C 	0.66080 0.52480 0.87570 0.04000
H 	H 	0.64410 0.50930 0.85780 0.05900
H 	H 	0.64550 0.54760 0.88470 -0.01000
N 	N 	0.69900 0.54820 0.97000 -0.10800
N 	N 	0.79290 0.59080 0.92100 -0.24500
N 	N 	0.87040 0.57130 0.89984 -0.18900
N 	N 	0.76250 0.55890 0.85000 -0.23600
O 	O 	0.67170 0.50130 0.90860 -0.35500
H 	H 	0.67900 0.49200 0.92960 0.25200
O 	O 	0.00010 0.51740 0.92010 -0.81500
H 	H 	0.01100 0.52200 0.94190 0.31000
H 	H 	0.95240 0.49270 0.88950 0.28200
H 	H 	0.98020 0.50720 0.92160 0.74600
C 	C 	0.66220 0.53160 0.88060 0.05400
H 	H 	0.63910 0.52350 0.86500 -0.02400
H 	H 	0.65550 0.55600 0.89460 0.03800
O 	O 	0.99470 0.52790 0.87250 -0.17400
H 	H 	0.99220 0.51310 0.85240 0.04400
C 	C 	0.53340 0.73100 0.82450 -0.04500
C 	C 	0.47170 0.69790 0.85450 -0.02000
C 	C 	0.35210 0.64360 0.79410 -0.15800
H 	H 	0.35880 0.62850 0.77170 0.06200
C 	C 	0.31390 0.65810 0.79690 0.31100
C 	C 	0.30470 0.68080 0.82880 -0.26000
H 	H 	0.27930 0.69190 0.83150 0.15100
C 	C 	0.33310 0.68740 0.85710 0.05200
H 	H 	0.32730 0.70280 0.87940 0.01600
C 	C 	0.36970 0.67130 0.85240 -0.03800
H 	H 	0.38870 0.67550 0.87220 0.02800
C 	C 	0.51900 0.62230 0.79920 0.02700
H 	H 	0.51730 0.65000 0.79960 0.02400
C 	C 	0.55380 0.60410 0.78870 -0.03200
C 	C 	0.55730 0.56430 0.78850 0.00200
H 	H 	0.58120 0.55220 0.78110 0.03100
C 	C 	0.52690 0.54280 0.79900 -0.09700
H 	H 	0.52890 0.51510 0.79930 0.07000
C 	C 	0.49260 0.56040 0.80920 0.05600
H 	H 	0.47130 0.54440 0.81680 -0.00500
C 	C 	0.28410 0.64900 0.76500 -0.86000
H 	H 	0.27940 0.62170 0.76730 0.38500
H 	H 	0.29420 0.65390 0.73960 -0.06500
C 	C 	0.58920 0.62570 0.77480 0.04000
H 	H 	0.60590 0.60780 0.75930 0.05900
H 	H 	0.60450 0.63470 0.79760 -0.01000
N 	N 	0.55100 0.72000 0.79820 -0.10800
N 	N 	0.45710 0.67100 0.84080 -0.24400
N 	N 	0.37960 0.64984 0.82130 -0.19000
N 	N 	0.48750 0.60000 0.80890 -0.23600
O 	O 	0.57830 0.65860 0.75130 -0.35500
H 	H 	0.57100 0.67960 0.74200 0.25100
O 	O 	0.24990 0.67010 0.76740 -0.80100
H 	H 	0.23900 0.69190 0.77200 0.30600
H 	H 	0.29760 0.63950 0.74270 0.27700
H 	H 	0.26980 0.67160 0.75720 0.73400
C 	C 	0.58780 0.63060 0.78160 0.05400
H 	H 	0.61090 0.61500 0.77350 -0.02400
H 	H 	0.59450 0.64460 0.80600 0.03800
O 	O 	0.25530 0.62250 0.77790 -0.17900
H 	H 	0.25780 0.60240 0.76310 0.04500
C 	C 	0.03340 0.23100 0.32450 -0.04600
C 	C 	0.97170 0.19790 0.35450 -0.01700
C 	C 	0.85210 0.14360 0.29410 -0.15800
H 	H 	0.85880 0.12850 0.27170 0.06200
C 	C 	0.81390 0.15810 0.29690 0.31100
C 	C 	0.80470 0.18080 0.32880 -0.26000
H 	H 	0.77930 0.19190 0.33150 0.15100
C 	C 	0.83310 0.18740 0.35710 0.05200
H 	H 	0.82730 0.20280 0.37940 0.01600
C 	C 	0.86970 0.17130 0.35240 -0.03800
H 	H 	0.88870 0.17550 0.37220 0.02800
C 	C 	0.01900 0.12230 0.29920 0.02400
H 	H 	0.01730 0.15000 0.29960 0.02400
C 	C 	0.05380 0.10410 0.28870 -0.03400
C 	C 	0.05730 0.06430 0.28850 0.00600
H 	H 	0.08120 0.05220 0.28110 0.02900
C 	C 	0.02690 0.04280 0.29900 -0.10600
H 	H 	0.02890 0.01510 0.29930 0.07100
C 	C 	0.99260 0.06040 0.30920 0.06400
H 	H 	0.97130 0.04440 0.31680 -0.00800
C 	C 	0.78410 0.14900 0.26500 -0.86000
H 	H 	0.77940 0.12170 0.26730 0.38500
H 	H 	0.79420 0.15390 0.23960 -0.06500
C 	C 	0.08920 0.12570 0.27480 0.04000
H 	H 	0.10590 0.10780 0.25930 0.05800
H 	H 	0.10450 0.13470 0.29760 -0.01000
N 	N 	0.05100 0.22000 0.29820 -0.10800
N 	N 	0.95710 0.17100 0.34080 -0.24400
N 	N 	0.87960 0.14984 0.32130 -0.19000
N 	N 	0.98750 0.10000 0.30890 -0.23600
O 	O 	0.07830 0.15860 0.25130 -0.35600
H 	H 	0.07100 0.17960 0.24200 0.25100
O 	O 	0.74990 0.17010 0.26740 -0.80100
H 	H 	0.73900 0.19190 0.27200 0.30600
H 	H 	0.79760 0.13950 0.24270 0.27700
H 	H 	0.76980 0.17160 0.25720 0.73400
C 	C 	0.08780 0.13060 0.28160 0.05400
H 	H 	0.11090 0.11500 0.27350 -0.02300
H 	H 	0.09450 0.14460 0.30600 0.03900
O 	O 	0.75530 0.12250 0.27790 -0.17900
H 	H 	0.75780 0.10240 0.26310 0.04500
C 	C 	0.96660 0.26900 0.32450 -0.04200
C 	C 	0.02830 0.30210 0.35450 -0.02100
C 	C 	0.14790 0.35640 0.29410 -0.15800
H 	H 	0.14120 0.37150 0.27170 0.06200
C 	C 	0.18610 0.34190 0.29690 0.31100
C 	C 	0.19530 0.31920 0.32880 -0.26000
H 	H 	0.22070 0.30810 0.33150 0.15100
C 	C 	0.16690 0.31260 0.35710 0.05200
H 	H 	0.17270 0.29720 0.37940 0.01700
C 	C 	0.13030 0.32870 0.35240 -0.03800
H 	H 	0.11130 0.32450 0.37220 0.02800
C 	C 	0.98100 0.37770 0.29920 0.02900
H 	H 	0.98270 0.35000 0.29960 0.02400
C 	C 	0.94620 0.39590 0.28870 -0.03100
C 	C 	0.94270 0.43570 0.28850 -0.00300
H 	H 	0.91880 0.44780 0.28110 0.03300
C 	C 	0.97310 0.45720 0.29900 -0.08800
H 	H 	0.97110 0.48490 0.29930 0.06800
C 	C 	0.00740 0.43960 0.30920 0.04800
H 	H 	0.02870 0.45560 0.31680 -0.00300
C 	C 	0.21590 0.35100 0.26500 -0.86000
H 	H 	0.22060 0.37830 0.26730 0.38500
H 	H 	0.20580 0.34610 0.23960 -0.06500
C 	C 	0.91080 0.37430 0.27480 0.03900
H 	H 	0.89410 0.39220 0.25930 0.05900
H 	H 	0.89550 0.36530 0.29760 -0.01000
N 	N 	0.94900 0.28000 0.29820 -0.10800
N 	N 	0.04290 0.32900 0.34080 -0.24400
N 	N 	0.12040 0.35016 0.32130 -0.19000
N 	N 	0.01250 0.40000 0.30890 -0.23700
O 	O 	0.92170 0.34140 0.25130 -0.35500
H 	H 	0.92900 0.32040 0.24200 0.25200
O 	O 	0.25010 0.32990 0.26740 -0.80100
H 	H 	0.26100 0.30810 0.27200 0.30600
H 	H 	0.20240 0.36050 0.24270 0.27700
H 	H 	0.23020 0.32840 0.25720 0.73400
C 	C 	0.91220 0.36940 0.28160 0.05300
H 	H 	0.88910 0.38500 0.27350 -0.02400
H 	H 	0.90550 0.35540 0.30600 0.03800
O 	O 	0.24470 0.37750 0.27790 -0.17900
H 	H 	0.24220 0.39760 0.26310 0.04500
C 	C 	0.46660 0.76900 0.82450 -0.04500
C 	C 	0.52830 0.80210 0.85450 -0.02000
C 	C 	0.64790 0.85640 0.79410 -0.15800
H 	H 	0.64120 0.87150 0.77170 0.06200
C 	C 	0.68610 0.84190 0.79690 0.31100
C 	C 	0.69530 0.81920 0.82880 -0.26000
H 	H 	0.72070 0.80810 0.83150 0.15100
C 	C 	0.66690 0.81260 0.85710 0.05200
H 	H 	0.67270 0.79720 0.87940 0.01600
C 	C 	0.63030 0.82870 0.85240 -0.03800
H 	H 	0.61130 0.82450 0.87220 0.02800
C 	C 	0.48100 0.87770 0.79920 0.02700
H 	H 	0.48270 0.85000 0.79960 0.02400
C 	C 	0.44620 0.89590 0.78870 -0.03200
C 	C 	0.44270 0.93570 0.78850 0.00200
H 	H 	0.41880 0.94780 0.78110 0.03200
C 	C 	0.47310 0.95720 0.79900 -0.09700
H 	H 	0.47110 0.98490 0.79930 0.07100
C 	C 	0.50740 0.93960 0.80920 0.05600
H 	H 	0.52870 0.95560 0.81680 -0.00400
C 	C 	0.71590 0.85100 0.76500 -0.86000
H 	H 	0.72060 0.87830 0.76730 0.38500
H 	H 	0.70580 0.84610 0.73960 -0.06500
C 	C 	0.41080 0.87430 0.77480 0.04000
H 	H 	0.39410 0.89220 0.75930 0.05900
H 	H 	0.39550 0.86530 0.79760 -0.01000
N 	N 	0.44900 0.78000 0.79820 -0.10800
N 	N 	0.54290 0.82900 0.84080 -0.24400
N 	N 	0.62040 0.85016 0.82130 -0.19000
N 	N 	0.51250 0.90000 0.80890 -0.23600
O 	O 	0.42170 0.84140 0.75130 -0.35500
H 	H 	0.42900 0.82040 0.74200 0.25100
O 	O 	0.75010 0.82990 0.76740 -0.80100
H 	H 	0.76100 0.80810 0.77200 0.30600
H 	H 	0.70240 0.86050 0.74270 0.27700
H 	H 	0.73020 0.82840 0.75720 0.73400
C 	C 	0.41220 0.86940 0.78160 0.05400
H 	H 	0.38910 0.88500 0.77350 -0.02400
H 	H 	0.40550 0.85540 0.80600 0.03800
O 	O 	0.74470 0.87750 0.77790 -0.17900
H 	H 	0.74220 0.89760 0.76310 0.04500
C 	C 	0.03340 0.76900 0.17550 -0.04600
C 	C 	0.97170 0.80210 0.14550 -0.01700
C 	C 	0.85210 0.85640 0.20590 -0.15800
H 	H 	0.85880 0.87150 0.22830 0.06200
C 	C 	0.81390 0.84190 0.20310 0.31100
C 	C 	0.80470 0.81920 0.17120 -0.26000
H 	H 	0.77930 0.80810 0.16850 0.15100
C 	C 	0.83310 0.81260 0.14290 0.05200
H 	H 	0.82730 0.79720 0.12060 0.01700
C 	C 	0.86970 0.82870 0.14760 -0.03800
H 	H 	0.88870 0.82450 0.12780 0.02800
C 	C 	0.01900 0.87770 0.20080 0.02400
H 	H 	0.01730 0.85000 0.20040 0.02400
C 	C 	0.05380 0.89590 0.21130 -0.03400
C 	C 	0.05730 0.93570 0.21150 0.00700
H 	H 	0.08120 0.94780 0.21890 0.03000
C 	C 	0.02690 0.95720 0.20100 -0.10600
H 	H 	0.02890 0.98490 0.20070 0.07300
C 	C 	0.99260 0.93960 0.19080 0.06500
H 	H 	0.97130 0.95560 0.18320 -0.00600
C 	C 	0.78410 0.85100 0.23500 -0.86000
H 	H 	0.77940 0.87830 0.23270 0.38500
H 	H 	0.79420 0.84610 0.26040 -0.06500
C 	C 	0.08920 0.87430 0.22520 0.04000
H 	H 	0.10590 0.89220 0.24070 0.05900
H 	H 	0.10450 0.86530 0.20240 -0.01000
N 	N 	0.05100 0.78000 0.20180 -0.10800
N 	N 	0.95710 0.82900 0.15920 -0.24400
N 	N 	0.87960 0.85016 0.17870 -0.19000
N 	N 	0.98750 0.90000 0.19110 -0.23600
O 	O 	0.07830 0.84140 0.24870 -0.35500
H 	H 	0.07100 0.82040 0.25800 0.25100
O 	O 	0.74990 0.82990 0.23260 -0.80100
H 	H 	0.73900 0.80810 0.22800 0.30600
H 	H 	0.79760 0.86050 0.25730 0.27700
H 	H 	0.76980 0.82840 0.24280 0.73400
C 	C 	0.08780 0.86940 0.21840 0.05400
H 	H 	0.11090 0.88500 0.22650 -0.02400
H 	H 	0.09450 0.85540 0.19400 0.03800
O 	O 	0.75530 0.87750 0.22210 -0.17900
H 	H 	0.75780 0.89760 0.23690 0.04500
C 	C 	0.53340 0.26900 0.67550 -0.04500
C 	C 	0.47170 0.30210 0.64550 -0.02000
C 	C 	0.35210 0.35640 0.70590 -0.15800
H 	H 	0.35880 0.37150 0.72830 0.06200
C 	C 	0.31390 0.34190 0.70310 0.31100
C 	C 	0.30470 0.31920 0.67120 -0.26000
H 	H 	0.27930 0.30810 0.66850 0.15100
C 	C 	0.33310 0.31260 0.64290 0.05200
H 	H 	0.32730 0.29720 0.62060 0.01600
C 	C 	0.36970 0.32870 0.64760 -0.03800
H 	H 	0.38870 0.32450 0.62780 0.02800
C 	C 	0.51900 0.37770 0.70080 0.02700
H 	H 	0.51730 0.35000 0.70040 0.02400
C 	C 	0.55380 0.39590 0.71130 -0.03200
C 	C 	0.55730 0.43570 0.71150 0.00200
H 	H 	0.58120 0.44780 0.71890 0.03100
C 	C 	0.52690 0.45720 0.70100 -0.09700
H 	H 	0.52890 0.48490 0.70070 0.07000
C 	C 	0.49260 0.43960 0.69080 0.05600
H 	H 	0.47130 0.45560 0.68320 -0.00500
C 	C 	0.28410 0.35100 0.73500 -0.86000
H 	H 	0.27940 0.37830 0.73270 0.38500
H 	H 	0.29420 0.34610 0.76040 -0.06500
C 	C 	0.58920 0.37430 0.72520 0.04000
H 	H 	0.60590 0.39220 0.74070 0.05900
H 	H 	0.60450 0.36530 0.70240 -0.01000
N 	N 	0.55100 0.28000 0.70180 -0.10800
N 	N 	0.45710 0.32900 0.65920 -0.24400
N 	N 	0.37960 0.35016 0.67870 -0.19000
N 	N 	0.48750 0.40000 0.69110 -0.23600
O 	O 	0.57830 0.34140 0.74870 -0.35500
H 	H 	0.57100 0.32040 0.75800 0.25100
O 	O 	0.24990 0.32990 0.73260 -0.80100
H 	H 	0.23900 0.30810 0.72800 0.30600
H 	H 	0.29760 0.36050 0.75730 0.27700
H 	H 	0.26980 0.32840 0.74280 0.73400
C 	C 	0.58780 0.36940 0.71840 0.05400
H 	H 	0.61090 0.38500 0.72650 -0.02400
H 	H 	0.59450 0.35540 0.69400 0.03800
O 	O 	0.25530 0.37750 0.72210 -0.17900
H 	H 	0.25780 0.39760 0.73690 0.04500
C 	C 	0.46660 0.23100 0.67550 -0.04500
C 	C 	0.52830 0.19790 0.64550 -0.02000
C 	C 	0.64790 0.14360 0.70590 -0.15800
H 	H 	0.64120 0.12850 0.72830 0.06200
C 	C 	0.68610 0.15810 0.70310 0.31100
C 	C 	0.69530 0.18080 0.67120 -0.26000
H 	H 	0.72070 0.19190 0.66850 0.15100
C 	C 	0.66690 0.18740 0.64290 0.05200
H 	H 	0.67270 0.20280 0.62060 0.01600
C 	C 	0.63030 0.17130 0.64760 -0.03800
H 	H 	0.61130 0.17550 0.62780 0.02800
C 	C 	0.48100 0.12230 0.70080 0.02700
H 	H 	0.48270 0.15000 0.70040 0.02400
C 	C 	0.44620 0.10410 0.71130 -0.03200
C 	C 	0.44270 0.06430 0.71150 0.00200
H 	H 	0.41880 0.05220 0.71890 0.03100
C 	C 	0.47310 0.04280 0.70100 -0.09700
H 	H 	0.47110 0.01510 0.70070 0.06800
C 	C 	0.50740 0.06040 0.69080 0.05600
H 	H 	0.52870 0.04440 0.68320 -0.00600
C 	C 	0.71590 0.14900 0.73500 -0.86000
H 	H 	0.72060 0.12170 0.73270 0.38500
H 	H 	0.70580 0.15390 0.76040 -0.06500
C 	C 	0.41080 0.12570 0.72520 0.04000
H 	H 	0.39410 0.10780 0.74070 0.05800
H 	H 	0.39550 0.13470 0.70240 -0.01000
N 	N 	0.44900 0.22000 0.70180 -0.10800
N 	N 	0.54290 0.17100 0.65920 -0.24400
N 	N 	0.62040 0.14984 0.67870 -0.19000
N 	N 	0.51250 0.10000 0.69110 -0.23600
O 	O 	0.42170 0.15860 0.74870 -0.35500
H 	H 	0.42900 0.17960 0.75800 0.25100
O 	O 	0.75010 0.17010 0.73260 -0.80100
H 	H 	0.76100 0.19190 0.72800 0.30600
H 	H 	0.70240 0.13950 0.75730 0.27700
H 	H 	0.73020 0.17160 0.74280 0.73400
C 	C 	0.41220 0.13060 0.71840 0.05400
H 	H 	0.38910 0.11500 0.72650 -0.02300
H 	H 	0.40550 0.14460 0.69400 0.03800
O 	O 	0.74470 0.12250 0.72210 -0.17900
H 	H 	0.74220 0.10240 0.73690 0.04500
C 	C 	0.96660 0.73100 0.17550 -0.04200
C 	C 	0.02830 0.69790 0.14550 -0.02100
C 	C 	0.14790 0.64360 0.20590 -0.15800
H 	H 	0.14120 0.62850 0.22830 0.06200
C 	C 	0.18610 0.65810 0.20310 0.31100
C 	C 	0.19530 0.68080 0.17120 -0.26000
H 	H 	0.22070 0.69190 0.16850 0.15100
C 	C 	0.16690 0.68740 0.14290 0.05200
H 	H 	0.17270 0.70280 0.12060 0.01700
C 	C 	0.13030 0.67130 0.14760 -0.03800
H 	H 	0.11130 0.67550 0.12780 0.02800
C 	C 	0.98100 0.62230 0.20080 0.02900
H 	H 	0.98270 0.65000 0.20040 0.02400
C 	C 	0.94620 0.60410 0.21130 -0.03100
C 	C 	0.94270 0.56430 0.21150 -0.00300
H 	H 	0.91880 0.55220 0.21890 0.03300
C 	C 	0.97310 0.54280 0.20100 -0.08800
H 	H 	0.97110 0.51510 0.20070 0.06800
C 	C 	0.00740 0.56040 0.19080 0.04800
H 	H 	0.02870 0.54440 0.18320 -0.00300
C 	C 	0.21590 0.64900 0.23500 -0.86000
H 	H 	0.22060 0.62170 0.23270 0.38500
H 	H 	0.20580 0.65390 0.26040 -0.06500
C 	C 	0.91080 0.62570 0.22520 0.03900
H 	H 	0.89410 0.60780 0.24070 0.05900
H 	H 	0.89550 0.63470 0.20240 -0.01000
N 	N 	0.94900 0.72000 0.20180 -0.10800
N 	N 	0.04290 0.67100 0.15920 -0.24400
N 	N 	0.12040 0.64984 0.17870 -0.19000
N 	N 	0.01250 0.60000 0.19110 -0.23700
O 	O 	0.92170 0.65860 0.24870 -0.35500
H 	H 	0.92900 0.67960 0.25800 0.25200
O 	O 	0.25010 0.67010 0.23260 -0.80100
H 	H 	0.26100 0.69190 0.22800 0.30600
H 	H 	0.20240 0.63950 0.25730 0.27700
H 	H 	0.23020 0.67160 0.24280 0.73400
C 	C 	0.91220 0.63060 0.21840 0.05300
H 	H 	0.88910 0.61500 0.22650 -0.02400
H 	H 	0.90550 0.64460 0.19400 0.03800
O 	O 	0.24470 0.62250 0.22210 -0.17900
H 	H 	0.24220 0.60240 0.23690 0.04500
C 	C 	0.23100 0.67550 0.46660 -0.04500
C 	C 	0.19790 0.64550 0.52830 -0.02000
C 	C 	0.14360 0.70590 0.64790 -0.15800
H 	H 	0.12850 0.72830 0.64120 0.06200
C 	C 	0.15810 0.70310 0.68610 0.31100
C 	C 	0.18080 0.67120 0.69530 -0.26000
H 	H 	0.19190 0.66850 0.72070 0.15100
C 	C 	0.18740 0.64290 0.66690 0.05200
H 	H 	0.20280 0.62060 0.67270 0.01600
C 	C 	0.17130 0.64760 0.63030 -0.03800
H 	H 	0.17550 0.62780 0.61130 0.02800
C 	C 	0.12230 0.70080 0.48100 0.02700
H 	H 	0.15000 0.70040 0.48270 0.02400
C 	C 	0.10410 0.71130 0.44620 -0.03200
C 	C 	0.06430 0.71150 0.44270 0.00200
H 	H 	0.05220 0.71890 0.41880 0.03100
C 	C 	0.04280 0.70100 0.47310 -0.09700
H 	H 	0.01510 0.70070 0.47110 0.06800
C 	C 	0.06040 0.69080 0.50740 0.05600
H 	H 	0.04440 0.68320 0.52870 -0.00600
C 	C 	0.14900 0.73500 0.71590 -0.86000
H 	H 	0.12170 0.73270 0.72060 0.38500
H 	H 	0.15390 0.76040 0.70580 -0.06500
C 	C 	0.12570 0.72520 0.41080 0.04000
H 	H 	0.10780 0.74070 0.39410 0.05800
H 	H 	0.13470 0.70240 0.39550 -0.01000
N 	N 	0.22000 0.70180 0.44900 -0.10800
N 	N 	0.17100 0.65920 0.54290 -0.24400
N 	N 	0.14984 0.67870 0.62040 -0.19000
N 	N 	0.10000 0.69110 0.51250 -0.23600
O 	O 	0.15860 0.74870 0.42170 -0.35500
H 	H 	0.17960 0.75800 0.42900 0.25100
O 	O 	0.17010 0.73260 0.75010 -0.80100
H 	H 	0.19190 0.72800 0.76100 0.30600
H 	H 	0.13950 0.75730 0.70240 0.27700
H 	H 	0.17160 0.74280 0.73020 0.73400
C 	C 	0.13060 0.71840 0.41220 0.05400
H 	H 	0.11500 0.72650 0.38910 -0.02300
H 	H 	0.14460 0.69400 0.40550 0.03800
O 	O 	0.12250 0.72210 0.74470 -0.17900
H 	H 	0.10240 0.73690 0.74220 0.04500
C 	C 	0.73100 0.17550 0.96660 -0.04200
C 	C 	0.69790 0.14550 0.02830 -0.02100
C 	C 	0.64360 0.20590 0.14790 -0.15800
H 	H 	0.62850 0.22830 0.14120 0.06200
C 	C 	0.65810 0.20310 0.18610 0.31100
C 	C 	0.68080 0.17120 0.19530 -0.26000
H 	H 	0.69190 0.16850 0.22070 0.15100
C 	C 	0.68740 0.14290 0.16690 0.05200
H 	H 	0.70280 0.12060 0.17270 0.01700
C 	C 	0.67130 0.14760 0.13030 -0.03800
H 	H 	0.67550 0.12780 0.11130 0.02800
C 	C 	0.62230 0.20080 0.98100 0.02900
H 	H 	0.65000 0.20040 0.98270 0.02400
C 	C 	0.60410 0.21130 0.94620 -0.03100
C 	C 	0.56430 0.21150 0.94270 -0.00300
H 	H 	0.55220 0.21890 0.91880 0.03300
C 	C 	0.54280 0.20100 0.97310 -0.08800
H 	H 	0.51510 0.20070 0.97110 0.06800
C 	C 	0.56040 0.19080 0.00740 0.04800
H 	H 	0.54440 0.18320 0.02870 -0.00300
C 	C 	0.64900 0.23500 0.21590 -0.86000
H 	H 	0.62170 0.23270 0.22060 0.38500
H 	H 	0.65390 0.26040 0.20580 -0.06500
C 	C 	0.62570 0.22520 0.91080 0.03900
H 	H 	0.60780 0.24070 0.89410 0.05900
H 	H 	0.63470 0.20240 0.89550 -0.01000
N 	N 	0.72000 0.20180 0.94900 -0.10800
N 	N 	0.67100 0.15920 0.04290 -0.24400
N 	N 	0.64984 0.17870 0.12040 -0.19000
N 	N 	0.60000 0.19110 0.01250 -0.23700
O 	O 	0.65860 0.24870 0.92170 -0.35500
H 	H 	0.67960 0.25800 0.92900 0.25200
O 	O 	0.67010 0.23260 0.25010 -0.80100
H 	H 	0.69190 0.22800 0.26100 0.30600
H 	H 	0.63950 0.25730 0.20240 0.27700
H 	H 	0.67160 0.24280 0.23020 0.73400
C 	C 	0.63060 0.21840 0.91220 0.05300
H 	H 	0.61500 0.22650 0.88910 -0.02400
H 	H 	0.64460 0.19400 0.90550 0.03800
O 	O 	0.62250 0.22210 0.24470 -0.17900
H 	H 	0.60240 0.23690 0.24220 0.04500
C 	C 	0.76900 0.17550 0.03340 -0.04600
C 	C 	0.80210 0.14550 0.97170 -0.01700
C 	C 	0.85640 0.20590 0.85210 -0.15800
H 	H 	0.87150 0.22830 0.85880 0.06200
C 	C 	0.84190 0.20310 0.81390 0.31100
C 	C 	0.81920 0.17120 0.80470 -0.26000
H 	H 	0.80810 0.16850 0.77930 0.15100
C 	C 	0.81260 0.14290 0.83310 0.05200
H 	H 	0.79720 0.12060 0.82730 0.01700
C 	C 	0.82870 0.14760 0.86970 -0.03800
H 	H 	0.82450 0.12780 0.88870 0.02800
C 	C 	0.87770 0.20080 0.01900 0.02400
H 	H 	0.85000 0.20040 0.01730 0.02400
C 	C 	0.89590 0.21130 0.05380 -0.03400
C 	C 	0.93570 0.21150 0.05730 0.00700
H 	H 	0.94780 0.21890 0.08120 0.03000
C 	C 	0.95720 0.20100 0.02690 -0.10600
H 	H 	0.98490 0.20070 0.02890 0.07300
C 	C 	0.93960 0.19080 0.99260 0.06500
H 	H 	0.95560 0.18320 0.97130 -0.00600
C 	C 	0.85100 0.23500 0.78410 -0.86000
H 	H 	0.87830 0.23270 0.77940 0.38500
H 	H 	0.84610 0.26040 0.79420 -0.06500
C 	C 	0.87430 0.22520 0.08920 0.04000
H 	H 	0.89220 0.24070 0.10590 0.05900
H 	H 	0.86530 0.20240 0.10450 -0.01000
N 	N 	0.78000 0.20180 0.05100 -0.10800
N 	N 	0.82900 0.15920 0.95710 -0.24400
N 	N 	0.85016 0.17870 0.87960 -0.19000
N 	N 	0.90000 0.19110 0.98750 -0.23600
O 	O 	0.84140 0.24870 0.07830 -0.35500
H 	H 	0.82040 0.25800 0.07100 0.25100
O 	O 	0.82990 0.23260 0.74990 -0.80100
H 	H 	0.80810 0.22800 0.73900 0.30600
H 	H 	0.86050 0.25730 0.79760 0.27700
H 	H 	0.82840 0.24280 0.76980 0.73400
C 	C 	0.86940 0.21840 0.08780 0.05400
H 	H 	0.88500 0.22650 0.11090 -0.02400
H 	H 	0.85540 0.19400 0.09450 0.03800
O 	O 	0.87750 0.22210 0.75530 -0.17900
H 	H 	0.89760 0.23690 0.75780 0.04500
C 	C 	0.26900 0.67550 0.53340 -0.04500
C 	C 	0.30210 0.64550 0.47170 -0.02000
C 	C 	0.35640 0.70590 0.35210 -0.15800
H 	H 	0.37150 0.72830 0.35880 0.06200
C 	C 	0.34190 0.70310 0.31390 0.31100
C 	C 	0.31920 0.67120 0.30470 -0.26000
H 	H 	0.30810 0.66850 0.27930 0.15100
C 	C 	0.31260 0.64290 0.33310 0.05200
H 	H 	0.29720 0.62060 0.32730 0.01600
C 	C 	0.32870 0.64760 0.36970 -0.03800
H 	H 	0.32450 0.62780 0.38870 0.02800
C 	C 	0.37770 0.70080 0.51900 0.02700
H 	H 	0.35000 0.70040 0.51730 0.02400
C 	C 	0.39590 0.71130 0.55380 -0.03200
C 	C 	0.43570 0.71150 0.55730 0.00200
H 	H 	0.44780 0.71890 0.58120 0.03100
C 	C 	0.45720 0.70100 0.52690 -0.09700
H 	H 	0.48490 0.70070 0.52890 0.07000
C 	C 	0.43960 0.69080 0.49260 0.05600
H 	H 	0.45560 0.68320 0.47130 -0.00500
C 	C 	0.35100 0.73500 0.28410 -0.86000
H 	H 	0.37830 0.73270 0.27940 0.38500
H 	H 	0.34610 0.76040 0.29420 -0.06500
C 	C 	0.37430 0.72520 0.58920 0.04000
H 	H 	0.39220 0.74070 0.60590 0.05900
H 	H 	0.36530 0.70240 0.60450 -0.01000
N 	N 	0.28000 0.70180 0.55100 -0.10800
N 	N 	0.32900 0.65920 0.45710 -0.24400
N 	N 	0.35016 0.67870 0.37960 -0.19000
N 	N 	0.40000 0.69110 0.48750 -0.23600
O 	O 	0.34140 0.74870 0.57830 -0.35500
H 	H 	0.32040 0.75800 0.57100 0.25100
O 	O 	0.32990 0.73260 0.24990 -0.80100
H 	H 	0.30810 0.72800 0.23900 0.30600
H 	H 	0.36050 0.75730 0.29760 0.27700
H 	H 	0.32840 0.74280 0.26980 0.73400
C 	C 	0.36940 0.71840 0.58780 0.05400
H 	H 	0.38500 0.72650 0.61090 -0.02400
H 	H 	0.35540 0.69400 0.59450 0.03800
O 	O 	0.37750 0.72210 0.25530 -0.17900
H 	H 	0.39760 0.73690 0.25780 0.04500
C 	C 	0.26900 0.32450 0.96660 -0.04200
C 	C 	0.30210 0.35450 0.02830 -0.02100
C 	C 	0.35640 0.29410 0.14790 -0.15800
H 	H 	0.37150 0.27170 0.14120 0.06200
C 	C 	0.34190 0.29690 0.18610 0.31100
C 	C 	0.31920 0.32880 0.19530 -0.26000
H 	H 	0.30810 0.33150 0.22070 0.15100
C 	C 	0.31260 0.35710 0.16690 0.05200
H 	H 	0.29720 0.37940 0.17270 0.01700
C 	C 	0.32870 0.35240 0.13030 -0.03800
H 	H 	0.32450 0.37220 0.11130 0.02800
C 	C 	0.37770 0.29920 0.98100 0.02900
H 	H 	0.35000 0.29960 0.98270 0.02400
C 	C 	0.39590 0.28870 0.94620 -0.03100
C 	C 	0.43570 0.28850 0.94270 -0.00300
H 	H 	0.44780 0.28110 0.91880 0.03300
C 	C 	0.45720 0.29900 0.97310 -0.08800
H 	H 	0.48490 0.29930 0.97110 0.06800
C 	C 	0.43960 0.30920 0.00740 0.04800
H 	H 	0.45560 0.31680 0.02870 -0.00300
C 	C 	0.35100 0.26500 0.21590 -0.86000
H 	H 	0.37830 0.26730 0.22060 0.38500
H 	H 	0.34610 0.23960 0.20580 -0.06500
C 	C 	0.37430 0.27480 0.91080 0.03900
H 	H 	0.39220 0.25930 0.89410 0.05900
H 	H 	0.36530 0.29760 0.89550 -0.01000
N 	N 	0.28000 0.29820 0.94900 -0.10800
N 	N 	0.32900 0.34080 0.04290 -0.24400
N 	N 	0.35016 0.32130 0.12040 -0.19000
N 	N 	0.40000 0.30890 0.01250 -0.23700
O 	O 	0.34140 0.25130 0.92170 -0.35500
H 	H 	0.32040 0.24200 0.92900 0.25200
O 	O 	0.32990 0.26740 0.25010 -0.80100
H 	H 	0.30810 0.27200 0.26100 0.30600
H 	H 	0.36050 0.24270 0.20240 0.27700
H 	H 	0.32840 0.25720 0.23020 0.73400
C 	C 	0.36940 0.28160 0.91220 0.05300
H 	H 	0.38500 0.27350 0.88910 -0.02400
H 	H 	0.35540 0.30600 0.90550 0.03800
O 	O 	0.37750 0.27790 0.24470 -0.17900
H 	H 	0.39760 0.26310 0.24220 0.04500
C 	C 	0.76900 0.82450 0.46660 -0.04500
C 	C 	0.80210 0.85450 0.52830 -0.02000
C 	C 	0.85640 0.79410 0.64790 -0.15800
H 	H 	0.87150 0.77170 0.64120 0.06200
C 	C 	0.84190 0.79690 0.68610 0.31100
C 	C 	0.81920 0.82880 0.69530 -0.26000
H 	H 	0.80810 0.83150 0.72070 0.15100
C 	C 	0.81260 0.85710 0.66690 0.05200
H 	H 	0.79720 0.87940 0.67270 0.01600
C 	C 	0.82870 0.85240 0.63030 -0.03800
H 	H 	0.82450 0.87220 0.61130 0.02800
C 	C 	0.87770 0.79920 0.48100 0.02700
H 	H 	0.85000 0.79960 0.48270 0.02400
C 	C 	0.89590 0.78870 0.44620 -0.03200
C 	C 	0.93570 0.78850 0.44270 0.00200
H 	H 	0.94780 0.78110 0.41880 0.03200
C 	C 	0.95720 0.79900 0.47310 -0.09700
H 	H 	0.98490 0.79930 0.47110 0.07100
C 	C 	0.93960 0.80920 0.50740 0.05600
H 	H 	0.95560 0.81680 0.52870 -0.00400
C 	C 	0.85100 0.76500 0.71590 -0.86000
H 	H 	0.87830 0.76730 0.72060 0.38500
H 	H 	0.84610 0.73960 0.70580 -0.06500
C 	C 	0.87430 0.77480 0.41080 0.04000
H 	H 	0.89220 0.75930 0.39410 0.05900
H 	H 	0.86530 0.79760 0.39550 -0.01000
N 	N 	0.78000 0.79820 0.44900 -0.10800
N 	N 	0.82900 0.84080 0.54290 -0.24400
N 	N 	0.85016 0.82130 0.62040 -0.19000
N 	N 	0.90000 0.80890 0.51250 -0.23600
O 	O 	0.84140 0.75130 0.42170 -0.35500
H 	H 	0.82040 0.74200 0.42900 0.25100
O 	O 	0.82990 0.76740 0.75010 -0.80100
H 	H 	0.80810 0.77200 0.76100 0.30600
H 	H 	0.86050 0.74270 0.70240 0.27700
H 	H 	0.82840 0.75720 0.73020 0.73400
C 	C 	0.86940 0.78160 0.41220 0.05400
H 	H 	0.88500 0.77350 0.38910 -0.02400
H 	H 	0.85540 0.80600 0.40550 0.03800
O 	O 	0.87750 0.77790 0.74470 -0.17900
H 	H 	0.89760 0.76310 0.74220 0.04500
C 	C 	0.73100 0.82450 0.53340 -0.04500
C 	C 	0.69790 0.85450 0.47170 -0.02000
C 	C 	0.64360 0.79410 0.35210 -0.15800
H 	H 	0.62850 0.77170 0.35880 0.06200
C 	C 	0.65810 0.79690 0.31390 0.31100
C 	C 	0.68080 0.82880 0.30470 -0.26000
H 	H 	0.69190 0.83150 0.27930 0.15100
C 	C 	0.68740 0.85710 0.33310 0.05200
H 	H 	0.70280 0.87940 0.32730 0.01600
C 	C 	0.67130 0.85240 0.36970 -0.03800
H 	H 	0.67550 0.87220 0.38870 0.02800
C 	C 	0.62230 0.79920 0.51900 0.02700
H 	H 	0.65000 0.79960 0.51730 0.02400
C 	C 	0.60410 0.78870 0.55380 -0.03200
C 	C 	0.56430 0.78850 0.55730 0.00200
H 	H 	0.55220 0.78110 0.58120 0.03100
C 	C 	0.54280 0.79900 0.52690 -0.09700
H 	H 	0.51510 0.79930 0.52890 0.07000
C 	C 	0.56040 0.80920 0.49260 0.05600
H 	H 	0.54440 0.81680 0.47130 -0.00500
C 	C 	0.64900 0.76500 0.28410 -0.86000
H 	H 	0.62170 0.76730 0.27940 0.38500
H 	H 	0.65390 0.73960 0.29420 -0.06500
C 	C 	0.62570 0.77480 0.58920 0.04000
H 	H 	0.60780 0.75930 0.60590 0.05900
H 	H 	0.63470 0.79760 0.60450 -0.01000
N 	N 	0.72000 0.79820 0.55100 -0.10800
N 	N 	0.67100 0.84080 0.45710 -0.24400
N 	N 	0.64984 0.82130 0.37960 -0.19000
N 	N 	0.60000 0.80890 0.48750 -0.23600
O 	O 	0.65860 0.75130 0.57830 -0.35500
H 	H 	0.67960 0.74200 0.57100 0.25100
O 	O 	0.67010 0.76740 0.24990 -0.80100
H 	H 	0.69190 0.77200 0.23900 0.30600
H 	H 	0.63950 0.74270 0.29760 0.27700
H 	H 	0.67160 0.75720 0.26980 0.73400
C 	C 	0.63060 0.78160 0.58780 0.05400
H 	H 	0.61500 0.77350 0.61090 -0.02400
H 	H 	0.64460 0.80600 0.59450 0.03800
O 	O 	0.62250 0.77790 0.25530 -0.17900
H 	H 	0.60240 0.76310 0.25780 0.04500
C 	C 	0.23100 0.32450 0.03340 -0.04600
C 	C 	0.19790 0.35450 0.97170 -0.01700
C 	C 	0.14360 0.29410 0.85210 -0.15800
H 	H 	0.12850 0.27170 0.85880 0.06200
C 	C 	0.15810 0.29690 0.81390 0.31100
C 	C 	0.18080 0.32880 0.80470 -0.26000
H 	H 	0.19190 0.33150 0.77930 0.15100
C 	C 	0.18740 0.35710 0.83310 0.05200
H 	H 	0.20280 0.37940 0.82730 0.01600
C 	C 	0.17130 0.35240 0.86970 -0.03800
H 	H 	0.17550 0.37220 0.88870 0.02800
C 	C 	0.12230 0.29920 0.01900 0.02400
H 	H 	0.15000 0.29960 0.01730 0.02400
C 	C 	0.10410 0.28870 0.05380 -0.03400
C 	C 	0.06430 0.28850 0.05730 0.00600
H 	H 	0.05220 0.28110 0.08120 0.02900
C 	C 	0.04280 0.29900 0.02690 -0.10600
H 	H 	0.01510 0.29930 0.02890 0.07100
C 	C 	0.06040 0.30920 0.99260 0.06400
H 	H 	0.04440 0.31680 0.97130 -0.00800
C 	C 	0.14900 0.26500 0.78410 -0.86000
H 	H 	0.12170 0.26730 0.77940 0.38500
H 	H 	0.15390 0.23960 0.79420 -0.06500
C 	C 	0.12570 0.27480 0.08920 0.04000
H 	H 	0.10780 0.25930 0.10590 0.05800
H 	H 	0.13470 0.29760 0.10450 -0.01000
N 	N 	0.22000 0.29820 0.05100 -0.10800
N 	N 	0.17100 0.34080 0.95710 -0.24400
N 	N 	0.14984 0.32130 0.87960 -0.19000
N 	N 	0.10000 0.30890 0.98750 -0.23600
O 	O 	0.15860 0.25130 0.07830 -0.35600
H 	H 	0.17960 0.24200 0.07100 0.25100
O 	O 	0.17010 0.26740 0.74990 -0.80100
H 	H 	0.19190 0.27200 0.73900 0.30600
H 	H 	0.13950 0.24270 0.79760 0.27700
H 	H 	0.17160 0.25720 0.76980 0.73400
C 	C 	0.13060 0.28160 0.08780 0.05400
H 	H 	0.11500 0.27350 0.11090 -0.02300
H 	H 	0.14460 0.30600 0.09450 0.03900
O 	O 	0.12250 0.27790 0.75530 -0.17900
H 	H 	0.10240 0.26310 0.75780 0.04500
C 	C 	0.17550 0.03340 0.76900 -0.04600
C 	C 	0.14550 0.97170 0.80210 -0.01700
C 	C 	0.20590 0.85210 0.85640 -0.15800
H 	H 	0.22830 0.85880 0.87150 0.06200
C 	C 	0.20310 0.81390 0.84190 0.31100
C 	C 	0.17120 0.80470 0.81920 -0.26000
H 	H 	0.16850 0.77930 0.80810 0.15100
C 	C 	0.14290 0.83310 0.81260 0.05200
H 	H 	0.12060 0.82730 0.79720 0.01700
C 	C 	0.14760 0.86970 0.82870 -0.03800
H 	H 	0.12780 0.88870 0.82450 0.02800
C 	C 	0.20080 0.01900 0.87770 0.02400
H 	H 	0.20040 0.01730 0.85000 0.02400
C 	C 	0.21130 0.05380 0.89590 -0.03400
C 	C 	0.21150 0.05730 0.93570 0.00700
H 	H 	0.21890 0.08120 0.94780 0.03000
C 	C 	0.20100 0.02690 0.95720 -0.10600
H 	H 	0.20070 0.02890 0.98490 0.07300
C 	C 	0.19080 0.99260 0.93960 0.06500
H 	H 	0.18320 0.97130 0.95560 -0.00600
C 	C 	0.23500 0.78410 0.85100 -0.86000
H 	H 	0.23270 0.77940 0.87830 0.38500
H 	H 	0.26040 0.79420 0.84610 -0.06500
C 	C 	0.22520 0.08920 0.87430 0.04000
H 	H 	0.24070 0.10590 0.89220 0.05900
H 	H 	0.20240 0.10450 0.86530 -0.01000
N 	N 	0.20180 0.05100 0.78000 -0.10800
N 	N 	0.15920 0.95710 0.82900 -0.24400
N 	N 	0.17870 0.87960 0.85016 -0.19000
N 	N 	0.19110 0.98750 0.90000 -0.23600
O 	O 	0.24870 0.07830 0.84140 -0.35500
H 	H 	0.25800 0.07100 0.82040 0.25100
O 	O 	0.23260 0.74990 0.82990 -0.80100
H 	H 	0.22800 0.73900 0.80810 0.30600
H 	H 	0.25730 0.79760 0.86050 0.27700
H 	H 	0.24280 0.76980 0.82840 0.73400
C 	C 	0.21840 0.08780 0.86940 0.05400
H 	H 	0.22650 0.11090 0.88500 -0.02400
H 	H 	0.19400 0.09450 0.85540 0.03800
O 	O 	0.22210 0.75530 0.87750 -0.17900
H 	H 	0.23690 0.75780 0.89760 0.04500
C 	C 	0.67550 0.53340 0.26900 -0.04500
C 	C 	0.64550 0.47170 0.30210 -0.02000
C 	C 	0.70590 0.35210 0.35640 -0.15800
H 	H 	0.72830 0.35880 0.37150 0.06200
C 	C 	0.70310 0.31390 0.34190 0.31100
C 	C 	0.67120 0.30470 0.31920 -0.26000
H 	H 	0.66850 0.27930 0.30810 0.15100
C 	C 	0.64290 0.33310 0.31260 0.05200
H 	H 	0.62060 0.32730 0.29720 0.01600
C 	C 	0.64760 0.36970 0.32870 -0.03800
H 	H 	0.62780 0.38870 0.32450 0.02800
C 	C 	0.70080 0.51900 0.37770 0.02700
H 	H 	0.70040 0.51730 0.35000 0.02400
C 	C 	0.71130 0.55380 0.39590 -0.03200
C 	C 	0.71150 0.55730 0.43570 0.00200
H 	H 	0.71890 0.58120 0.44780 0.03100
C 	C 	0.70100 0.52690 0.45720 -0.09700
H 	H 	0.70070 0.52890 0.48490 0.07000
C 	C 	0.69080 0.49260 0.43960 0.05600
H 	H 	0.68320 0.47130 0.45560 -0.00500
C 	C 	0.73500 0.28410 0.35100 -0.86000
H 	H 	0.73270 0.27940 0.37830 0.38500
H 	H 	0.76040 0.29420 0.34610 -0.06500
C 	C 	0.72520 0.58920 0.37430 0.04000
H 	H 	0.74070 0.60590 0.39220 0.05900
H 	H 	0.70240 0.60450 0.36530 -0.01000
N 	N 	0.70180 0.55100 0.28000 -0.10800
N 	N 	0.65920 0.45710 0.32900 -0.24400
N 	N 	0.67870 0.37960 0.35016 -0.19000
N 	N 	0.69110 0.48750 0.40000 -0.23600
O 	O 	0.74870 0.57830 0.34140 -0.35500
H 	H 	0.75800 0.57100 0.32040 0.25100
O 	O 	0.73260 0.24990 0.32990 -0.80100
H 	H 	0.72800 0.23900 0.30810 0.30600
H 	H 	0.75730 0.29760 0.36050 0.27700
H 	H 	0.74280 0.26980 0.32840 0.73400
C 	C 	0.71840 0.58780 0.36940 0.05400
H 	H 	0.72650 0.61090 0.38500 -0.02400
H 	H 	0.69400 0.59450 0.35540 0.03800
O 	O 	0.72210 0.25530 0.37750 -0.17900
H 	H 	0.73690 0.25780 0.39760 0.04500
C 	C 	0.67550 0.46660 0.23100 -0.04500
C 	C 	0.64550 0.52830 0.19790 -0.02000
C 	C 	0.70590 0.64790 0.14360 -0.15800
H 	H 	0.72830 0.64120 0.12850 0.06200
C 	C 	0.70310 0.68610 0.15810 0.31100
C 	C 	0.67120 0.69530 0.18080 -0.26000
H 	H 	0.66850 0.72070 0.19190 0.15100
C 	C 	0.64290 0.66690 0.18740 0.05200
H 	H 	0.62060 0.67270 0.20280 0.01600
C 	C 	0.64760 0.63030 0.17130 -0.03800
H 	H 	0.62780 0.61130 0.17550 0.02800
C 	C 	0.70080 0.48100 0.12230 0.02700
H 	H 	0.70040 0.48270 0.15000 0.02400
C 	C 	0.71130 0.44620 0.10410 -0.03200
C 	C 	0.71150 0.44270 0.06430 0.00200
H 	H 	0.71890 0.41880 0.05220 0.03100
C 	C 	0.70100 0.47310 0.04280 -0.09700
H 	H 	0.70070 0.47110 0.01510 0.06800
C 	C 	0.69080 0.50740 0.06040 0.05600
H 	H 	0.68320 0.52870 0.04440 -0.00600
C 	C 	0.73500 0.71590 0.14900 -0.86000
H 	H 	0.73270 0.72060 0.12170 0.38500
H 	H 	0.76040 0.70580 0.15390 -0.06500
C 	C 	0.72520 0.41080 0.12570 0.04000
H 	H 	0.74070 0.39410 0.10780 0.05800
H 	H 	0.70240 0.39550 0.13470 -0.01000
N 	N 	0.70180 0.44900 0.22000 -0.10800
N 	N 	0.65920 0.54290 0.17100 -0.24400
N 	N 	0.67870 0.62040 0.14984 -0.19000
N 	N 	0.69110 0.51250 0.10000 -0.23600
O 	O 	0.74870 0.42170 0.15860 -0.35500
H 	H 	0.75800 0.42900 0.17960 0.25100
O 	O 	0.73260 0.75010 0.17010 -0.80100
H 	H 	0.72800 0.76100 0.19190 0.30600
H 	H 	0.75730 0.70240 0.13950 0.27700
H 	H 	0.74280 0.73020 0.17160 0.73400
C 	C 	0.71840 0.41220 0.13060 0.05400
H 	H 	0.72650 0.38910 0.11500 -0.02300
H 	H 	0.69400 0.40550 0.14460 0.03800
O 	O 	0.72210 0.74470 0.12250 -0.17900
H 	H 	0.73690 0.74220 0.10240 0.04500
C 	C 	0.17550 0.96660 0.73100 -0.04200
C 	C 	0.14550 0.02830 0.69790 -0.02100
C 	C 	0.20590 0.14790 0.64360 -0.15800
H 	H 	0.22830 0.14120 0.62850 0.06200
C 	C 	0.20310 0.18610 0.65810 0.31100
C 	C 	0.17120 0.19530 0.68080 -0.26000
H 	H 	0.16850 0.22070 0.69190 0.15100
C 	C 	0.14290 0.16690 0.68740 0.05200
H 	H 	0.12060 0.17270 0.70280 0.01700
C 	C 	0.14760 0.13030 0.67130 -0.03800
H 	H 	0.12780 0.11130 0.67550 0.02800
C 	C 	0.20080 0.98100 0.62230 0.02900
H 	H 	0.20040 0.98270 0.65000 0.02400
C 	C 	0.21130 0.94620 0.60410 -0.03100
C 	C 	0.21150 0.94270 0.56430 -0.00300
H 	H 	0.21890 0.91880 0.55220 0.03300
C 	C 	0.20100 0.97310 0.54280 -0.08800
H 	H 	0.20070 0.97110 0.51510 0.06800
C 	C 	0.19080 0.00740 0.56040 0.04800
H 	H 	0.18320 0.02870 0.54440 -0.00300
C 	C 	0.23500 0.21590 0.64900 -0.86000
H 	H 	0.23270 0.22060 0.62170 0.38500
H 	H 	0.26040 0.20580 0.65390 -0.06500
C 	C 	0.22520 0.91080 0.62570 0.03900
H 	H 	0.24070 0.89410 0.60780 0.05900
H 	H 	0.20240 0.89550 0.63470 -0.01000
N 	N 	0.20180 0.94900 0.72000 -0.10800
N 	N 	0.15920 0.04290 0.67100 -0.24400
N 	N 	0.17870 0.12040 0.64984 -0.19000
N 	N 	0.19110 0.01250 0.60000 -0.23700
O 	O 	0.24870 0.92170 0.65860 -0.35500
H 	H 	0.25800 0.92900 0.67960 0.25200
O 	O 	0.23260 0.25010 0.67010 -0.80100
H 	H 	0.22800 0.26100 0.69190 0.30600
H 	H 	0.25730 0.20240 0.63950 0.27700
H 	H 	0.24280 0.23020 0.67160 0.73400
C 	C 	0.21840 0.91220 0.63060 0.05300
H 	H 	0.22650 0.88910 0.61500 -0.02400
H 	H 	0.19400 0.90550 0.64460 0.03800
O 	O 	0.22210 0.24470 0.62250 -0.17900
H 	H 	0.23690 0.24220 0.60240 0.04500
C 	C 	0.82450 0.53340 0.73100 -0.04500
C 	C 	0.85450 0.47170 0.69790 -0.02000
C 	C 	0.79410 0.35210 0.64360 -0.15800
H 	H 	0.77170 0.35880 0.62850 0.06200
C 	C 	0.79690 0.31390 0.65810 0.31100
C 	C 	0.82880 0.30470 0.68080 -0.26000
H 	H 	0.83150 0.27930 0.69190 0.15100
C 	C 	0.85710 0.33310 0.68740 0.05200
H 	H 	0.87940 0.32730 0.70280 0.01600
C 	C 	0.85240 0.36970 0.67130 -0.03800
H 	H 	0.87220 0.38870 0.67550 0.02800
C 	C 	0.79920 0.51900 0.62230 0.02700
H 	H 	0.79960 0.51730 0.65000 0.02400
C 	C 	0.78870 0.55380 0.60410 -0.03200
C 	C 	0.78850 0.55730 0.56430 0.00200
H 	H 	0.78110 0.58120 0.55220 0.03100
C 	C 	0.79900 0.52690 0.54280 -0.09700
H 	H 	0.79930 0.52890 0.51510 0.07000
C 	C 	0.80920 0.49260 0.56040 0.05600
H 	H 	0.81680 0.47130 0.54440 -0.00500
C 	C 	0.76500 0.28410 0.64900 -0.86000
H 	H 	0.76730 0.27940 0.62170 0.38500
H 	H 	0.73960 0.29420 0.65390 -0.06500
C 	C 	0.77480 0.58920 0.62570 0.04000
H 	H 	0.75930 0.60590 0.60780 0.05900
H 	H 	0.79760 0.60450 0.63470 -0.01000
N 	N 	0.79820 0.55100 0.72000 -0.10800
N 	N 	0.84080 0.45710 0.67100 -0.24400
N 	N 	0.82130 0.37960 0.64984 -0.19000
N 	N 	0.80890 0.48750 0.60000 -0.23600
O 	O 	0.75130 0.57830 0.65860 -0.35500
H 	H 	0.74200 0.57100 0.67960 0.25100
O 	O 	0.76740 0.24990 0.67010 -0.80100
H 	H 	0.77200 0.23900 0.69190 0.30600
H 	H 	0.74270 0.29760 0.63950 0.27700
H 	H 	0.75720 0.26980 0.67160 0.73400
C 	C 	0.78160 0.58780 0.63060 0.05400
H 	H 	0.77350 0.61090 0.61500 -0.02400
H 	H 	0.80600 0.59450 0.64460 0.03800
O 	O 	0.77790 0.25530 0.62250 -0.17900
H 	H 	0.76310 0.25780 0.60240 0.04500
C 	C 	0.32450 0.03340 0.23100 -0.04600
C 	C 	0.35450 0.97170 0.19790 -0.01700
C 	C 	0.29410 0.85210 0.14360 -0.15800
H 	H 	0.27170 0.85880 0.12850 0.06200
C 	C 	0.29690 0.81390 0.15810 0.31100
C 	C 	0.32880 0.80470 0.18080 -0.26000
H 	H 	0.33150 0.77930 0.19190 0.15100
C 	C 	0.35710 0.83310 0.18740 0.05200
H 	H 	0.37940 0.82730 0.20280 0.01600
C 	C 	0.35240 0.86970 0.17130 -0.03800
H 	H 	0.37220 0.88870 0.17550 0.02800
C 	C 	0.29920 0.01900 0.12230 0.02400
H 	H 	0.29960 0.01730 0.15000 0.02400
C 	C 	0.28870 0.05380 0.10410 -0.03400
C 	C 	0.28850 0.05730 0.06430 0.00600
H 	H 	0.28110 0.08120 0.05220 0.02900
C 	C 	0.29900 0.02690 0.04280 -0.10600
H 	H 	0.29930 0.02890 0.01510 0.07100
C 	C 	0.30920 0.99260 0.06040 0.06400
H 	H 	0.31680 0.97130 0.04440 -0.00800
C 	C 	0.26500 0.78410 0.14900 -0.86000
H 	H 	0.26730 0.77940 0.12170 0.38500
H 	H 	0.23960 0.79420 0.15390 -0.06500
C 	C 	0.27480 0.08920 0.12570 0.04000
H 	H 	0.25930 0.10590 0.10780 0.05800
H 	H 	0.29760 0.10450 0.13470 -0.01000
N 	N 	0.29820 0.05100 0.22000 -0.10800
N 	N 	0.34080 0.95710 0.17100 -0.24400
N 	N 	0.32130 0.87960 0.14984 -0.19000
N 	N 	0.30890 0.98750 0.10000 -0.23600
O 	O 	0.25130 0.07830 0.15860 -0.35600
H 	H 	0.24200 0.07100 0.17960 0.25100
O 	O 	0.26740 0.74990 0.17010 -0.80100
H 	H 	0.27200 0.73900 0.19190 0.30600
H 	H 	0.24270 0.79760 0.13950 0.27700
H 	H 	0.25720 0.76980 0.17160 0.73400
C 	C 	0.28160 0.08780 0.13060 0.05400
H 	H 	0.27350 0.11090 0.11500 -0.02300
H 	H 	0.30600 0.09450 0.14460 0.03900
O 	O 	0.27790 0.75530 0.12250 -0.17900
H 	H 	0.26310 0.75780 0.10240 0.04500
C 	C 	0.32450 0.96660 0.26900 -0.04200
C 	C 	0.35450 0.02830 0.30210 -0.02100
C 	C 	0.29410 0.14790 0.35640 -0.15800
H 	H 	0.27170 0.14120 0.37150 0.06200
C 	C 	0.29690 0.18610 0.34190 0.31100
C 	C 	0.32880 0.19530 0.31920 -0.26000
H 	H 	0.33150 0.22070 0.30810 0.15100
C 	C 	0.35710 0.16690 0.31260 0.05200
H 	H 	0.37940 0.17270 0.29720 0.01700
C 	C 	0.35240 0.13030 0.32870 -0.03800
H 	H 	0.37220 0.11130 0.32450 0.02800
C 	C 	0.29920 0.98100 0.37770 0.02900
H 	H 	0.29960 0.98270 0.35000 0.02400
C 	C 	0.28870 0.94620 0.39590 -0.03100
C 	C 	0.28850 0.94270 0.43570 -0.00300
H 	H 	0.28110 0.91880 0.44780 0.03300
C 	C 	0.29900 0.97310 0.45720 -0.08800
H 	H 	0.29930 0.97110 0.48490 0.06800
C 	C 	0.30920 0.00740 0.43960 0.04800
H 	H 	0.31680 0.02870 0.45560 -0.00300
C 	C 	0.26500 0.21590 0.35100 -0.86000
H 	H 	0.26730 0.22060 0.37830 0.38500
H 	H 	0.23960 0.20580 0.34610 -0.06500
C 	C 	0.27480 0.91080 0.37430 0.03900
H 	H 	0.25930 0.89410 0.39220 0.05900
H 	H 	0.29760 0.89550 0.36530 -0.01000
N 	N 	0.29820 0.94900 0.28000 -0.10800
N 	N 	0.34080 0.04290 0.32900 -0.24400
N 	N 	0.32130 0.12040 0.35016 -0.19000
N 	N 	0.30890 0.01250 0.40000 -0.23700
O 	O 	0.25130 0.92170 0.34140 -0.35500
H 	H 	0.24200 0.92900 0.32040 0.25200
O 	O 	0.26740 0.25010 0.32990 -0.80100
H 	H 	0.27200 0.26100 0.30810 0.30600
H 	H 	0.24270 0.20240 0.36050 0.27700
H 	H 	0.25720 0.23020 0.32840 0.73400
C 	C 	0.28160 0.91220 0.36940 0.05300
H 	H 	0.27350 0.88910 0.38500 -0.02400
H 	H 	0.30600 0.90550 0.35540 0.03800
O 	O 	0.27790 0.24470 0.37750 -0.17900
H 	H 	0.26310 0.24220 0.39760 0.04500
C 	C 	0.82450 0.46660 0.76900 -0.04500
C 	C 	0.85450 0.52830 0.80210 -0.02000
C 	C 	0.79410 0.64790 0.85640 -0.15800
H 	H 	0.77170 0.64120 0.87150 0.06200
C 	C 	0.79690 0.68610 0.84190 0.31100
C 	C 	0.82880 0.69530 0.81920 -0.26000
H 	H 	0.83150 0.72070 0.80810 0.15100
C 	C 	0.85710 0.66690 0.81260 0.05200
H 	H 	0.87940 0.67270 0.79720 0.01600
C 	C 	0.85240 0.63030 0.82870 -0.03800
H 	H 	0.87220 0.61130 0.82450 0.02800
C 	C 	0.79920 0.48100 0.87770 0.02700
H 	H 	0.79960 0.48270 0.85000 0.02400
C 	C 	0.78870 0.44620 0.89590 -0.03200
C 	C 	0.78850 0.44270 0.93570 0.00200
H 	H 	0.78110 0.41880 0.94780 0.03200
C 	C 	0.79900 0.47310 0.95720 -0.09700
H 	H 	0.79930 0.47110 0.98490 0.07100
C 	C 	0.80920 0.50740 0.93960 0.05600
H 	H 	0.81680 0.52870 0.95560 -0.00400
C 	C 	0.76500 0.71590 0.85100 -0.86000
H 	H 	0.76730 0.72060 0.87830 0.38500
H 	H 	0.73960 0.70580 0.84610 -0.06500
C 	C 	0.77480 0.41080 0.87430 0.04000
H 	H 	0.75930 0.39410 0.89220 0.05900
H 	H 	0.79760 0.39550 0.86530 -0.01000
N 	N 	0.79820 0.44900 0.78000 -0.10800
N 	N 	0.84080 0.54290 0.82900 -0.24400
N 	N 	0.82130 0.62040 0.85016 -0.19000
N 	N 	0.80890 0.51250 0.90000 -0.23600
O 	O 	0.75130 0.42170 0.84140 -0.35500
H 	H 	0.74200 0.42900 0.82040 0.25100
O 	O 	0.76740 0.75010 0.82990 -0.80100
H 	H 	0.77200 0.76100 0.80810 0.30600
H 	H 	0.74270 0.70240 0.86050 0.27700
H 	H 	0.75720 0.73020 0.82840 0.73400
C 	C 	0.78160 0.41220 0.86940 0.05400
H 	H 	0.77350 0.38910 0.88500 -0.02400
H 	H 	0.80600 0.40550 0.85540 0.03800
O 	O 	0.77790 0.74470 0.87750 -0.17900
H 	H 	0.76310 0.74220 0.89760 0.04500
Fe	Fe	0.12500 0.81617 0.06617 1.16200
Fe	Fe	0.62500 0.31617 0.56617 1.16200
Fe	Fe	0.37500 0.18383 0.56617 1.16200
Fe	Fe	0.87500 0.68383 0.06617 1.16200
Fe	Fe	0.87500 0.31617 0.43383 1.16200
Fe	Fe	0.37500 0.81617 0.93383 1.16200
Fe	Fe	0.62500 0.68383 0.93383 1.16200
Fe	Fe	0.12500 0.18383 0.43383 1.16200
Fe	Fe	0.06617 0.12500 0.81617 1.16200
Fe	Fe	0.56617 0.62500 0.31617 1.16200
Fe	Fe	0.56617 0.37500 0.18383 1.16200
Fe	Fe	0.06617 0.87500 0.68383 1.16200
Fe	Fe	0.43383 0.87500 0.31617 1.16200
Fe	Fe	0.93383 0.37500 0.81617 1.16200
Fe	Fe	0.93383 0.62500 0.68383 1.16200
Fe	Fe	0.43383 0.12500 0.18383 1.16200
Fe	Fe	0.81617 0.06617 0.12500 1.16200
Fe	Fe	0.31617 0.56617 0.62500 1.16200
Fe	Fe	0.18383 0.56617 0.37500 1.16200
Fe	Fe	0.68383 0.06617 0.87500 1.16200
Fe	Fe	0.31617 0.43383 0.87500 1.16200
Fe	Fe	0.81617 0.93383 0.37500 1.16200
Fe	Fe	0.68383 0.93383 0.62500 1.16200
Fe	Fe	0.18383 0.43383 0.12500 1.16200
Fe	Fe	0.87500 0.18383 0.93383 1.16200
Fe	Fe	0.37500 0.68383 0.43383 1.16200
Fe	Fe	0.62500 0.81617 0.43383 1.16200
Fe	Fe	0.12500 0.31617 0.93383 1.16200
Fe	Fe	0.12500 0.68383 0.56617 1.16200
Fe	Fe	0.62500 0.18383 0.06617 1.16200
Fe	Fe	0.37500 0.31617 0.06617 1.16200
Fe	Fe	0.87500 0.81617 0.56617 1.16200
Fe	Fe	0.93383 0.87500 0.18383 1.16200
Fe	Fe	0.43383 0.37500 0.68383 1.16200
Fe	Fe	0.43383 0.62500 0.81617 1.16200
Fe	Fe	0.93383 0.12500 0.31617 1.16200
Fe	Fe	0.56617 0.12500 0.68383 1.16200
Fe	Fe	0.06617 0.62500 0.18383 1.16200
Fe	Fe	0.06617 0.37500 0.31617 1.16200
Fe	Fe	0.56617 0.87500 0.81617 1.16200
Fe	Fe	0.18383 0.93383 0.87500 1.16200
Fe	Fe	0.68383 0.43383 0.37500 1.16200
Fe	Fe	0.81617 0.43383 0.62500 1.16200
Fe	Fe	0.31617 0.93383 0.12500 1.16200
Fe	Fe	0.68383 0.56617 0.12500 1.16200
Fe	Fe	0.18383 0.06617 0.62500 1.16200
Fe	Fe	0.31617 0.06617 0.37500 1.16200
Fe	Fe	0.81617 0.56617 0.87500 1.16200
W 	W 	0.00000 0.75000 0.12500 0.50100
W 	W 	0.50000 0.25000 0.62500 0.50800
W 	W 	0.00000 0.25000 0.37500 0.50100
W 	W 	0.50000 0.75000 0.87500 0.50800
W 	W 	0.12500 0.00000 0.75000 0.50100
W 	W 	0.62500 0.50000 0.25000 0.50800
W 	W 	0.37500 0.00000 0.25000 0.50100
W 	W 	0.87500 0.50000 0.75000 0.50800
W 	W 	0.75000 0.12500 -0.00000 0.50100
W 	W 	0.25000 0.62500 0.50000 0.50800
W 	W 	0.25000 0.37500 -0.00000 0.50100
W 	W 	0.75000 0.87500 0.50000 0.50800
W 	W 	0.50000 0.25000 0.12500 0.50800
W 	W 	-0.00000 0.75000 0.62500 0.50100
W 	W 	0.00000 0.25000 0.87500 0.50100
W 	W 	0.50000 0.75000 0.37500 0.50800
W 	W 	0.75000 0.37500 0.50000 0.50800
W 	W 	0.25000 0.87500 -0.00000 0.50100
W 	W 	0.75000 0.62500 -0.00000 0.50100
W 	W 	0.25000 0.12500 0.50000 0.50800
W 	W 	0.87500 0.00000 0.25000 0.50100
W 	W 	0.37500 0.50000 0.75000 0.50800
W 	W 	0.12500 0.50000 0.25000 0.50800
W 	W 	0.62500 0.00000 0.75000 0.50100
