data_crystal

_cell_length_a 7.84940
_cell_length_b 9.98760
_cell_length_c 12.60670
_cell_angle_alpha 104.13100
_cell_angle_beta  91.09400
_cell_angle_gamma 111.88200

_symmetry_space_group_name_	'P 1'
_symmetry_space_group_name_H-M	'P 1'

loop_
_symmetry_equiv_pos_as_xyz
  x,y,z

loop_
_atom_site_label
_atom_site_type_symbol
_atom_site_fract_x
_atom_site_fract_y
_atom_site_fract_z
_atom_site_charge
Mn	Mn	0.98193 0.27892 0.46437 1.26700
Mn	Mn	0.01807 0.72108 0.53563 1.26700
H 	H 	0.46530 0.80640 0.45820 0.03600
H 	H 	0.62820 0.87060 0.16790 0.05200
H 	H 	0.25090 0.47660 0.18220 0.04600
H 	H 	0.47990 0.67090 0.99360 0.02800
H 	H 	0.26820 0.38660 0.01890 0.06400
H 	H 	0.90670 0.16940 0.68240 -0.02100
H 	H 	0.02970 0.22640 0.86360 0.09900
H 	H 	0.41420 0.59830 0.82210 0.10000
H 	H 	0.27980 0.52940 0.64430 -0.01700
H 	H 	0.53470 0.19360 0.54180 0.03600
H 	H 	0.37180 0.12940 0.83210 0.05200
H 	H 	0.74910 0.52340 0.81780 0.04600
H 	H 	0.52010 0.32910 0.00640 0.02800
H 	H 	0.73180 0.61340 0.98110 0.06400
H 	H 	0.09330 0.83060 0.31760 -0.02100
H 	H 	0.97030 0.77360 0.13640 0.09900
H 	H 	0.58580 0.40170 0.17790 0.10000
H 	H 	0.72020 0.47060 0.35570 -0.01700
C 	C 	0.21140 0.53840 0.39540 0.34600
C 	C 	0.33280 0.63160 0.32990 -0.10900
C 	C 	0.45580 0.77180 0.38190 0.01600
C 	C 	0.56950 0.86600 0.32200 -0.07600
C 	C 	0.71200 0.01710 0.37970 0.31000
C 	C 	0.55780 0.80920 0.20900 -0.02900
C 	C 	0.44280 0.66240 0.15620 -0.00200
C 	C 	0.32990 0.57480 0.21710 -0.01300
C 	C 	0.47460 0.60070 0.03710 0.00200
C 	C 	0.35050 0.43910 0.97180 -0.11700
C 	C 	0.01170 0.25650 0.71030 0.12000
C 	C 	0.08600 0.28930 0.81990 -0.19700
C 	C 	0.24390 0.41630 0.86200 0.14400
C 	C 	0.31250 0.50830 0.79570 -0.18800
C 	C 	0.22920 0.46610 0.68870 0.10400
C 	C 	0.78860 0.46160 0.60460 0.34600
C 	C 	0.66720 0.36840 0.67010 -0.10900
C 	C 	0.54420 0.22820 0.61810 0.01600
C 	C 	0.43050 0.13400 0.67800 -0.07600
C 	C 	0.28800 0.98290 0.62030 0.31000
C 	C 	0.44220 0.19080 0.79100 -0.02900
C 	C 	0.55720 0.33760 0.84380 -0.00200
C 	C 	0.67010 0.42520 0.78290 -0.01300
C 	C 	0.52540 0.39930 0.96290 0.00200
C 	C 	0.64950 0.56090 0.02820 -0.11700
C 	C 	0.98830 0.74350 0.28970 0.12000
C 	C 	0.91400 0.71070 0.18010 -0.19700
C 	C 	0.75610 0.58370 0.13800 0.14400
C 	C 	0.68750 0.49170 0.20430 -0.18800
C 	C 	0.77080 0.53390 0.31130 0.10400
N 	N 	0.08170 0.34130 0.64500 -0.26500
N 	N 	0.91830 0.65870 0.35500 -0.26500
O 	O 	0.12870 0.40030 0.35220 -0.43900
O 	O 	0.19670 0.60010 0.49290 -0.47100
O 	O 	0.77810 0.04310 0.47530 -0.40300
O 	O 	0.76300 0.11440 0.32670 -0.38700
O 	O 	0.87130 0.59970 0.64780 -0.43900
O 	O 	0.80330 0.39990 0.50710 -0.47100
O 	O 	0.22190 0.95690 0.52470 -0.40300
O 	O 	0.23700 0.88560 0.67330 -0.38700
