data_crystal

_cell_length_a 41.45900
_cell_length_b 41.45900
_cell_length_c 17.56100
_cell_angle_alpha 90.00000
_cell_angle_beta  90.00000
_cell_angle_gamma 120.00000

_symmetry_space_group_name_	'P 1'
_symmetry_space_group_name_H-M	'P 1'

loop_
_symmetry_equiv_pos_as_xyz
  x,y,z

loop_
_atom_site_label
_atom_site_type_symbol
_atom_site_fract_x
_atom_site_fract_y
_atom_site_fract_z
_atom_site_charge
Zn	Zn	0.02882 0.62833 0.59764 1.21100
Zn	Zn	0.06887 0.59144 0.50592 1.20900
Zn	Zn	0.02897 0.62793 0.41815 1.21300
Zn	Zn	0.10421 0.67888 0.50904 1.20900
H 	H 	0.98280 0.54330 0.75750 0.07000
H 	H 	0.96090 0.49580 0.84700 0.04000
H 	H 	0.17350 0.59680 0.45950 0.04100
H 	H 	0.23260 0.60380 0.46500 0.05600
H 	H 	0.27190 0.70470 0.56050 0.05600
H 	H 	0.21280 0.69770 0.55510 0.03300
H 	H 	0.28230 0.60750 0.50670 0.07100
H 	H 	0.15670 0.74950 0.69430 0.03100
H 	H 	0.18200 0.78500 0.80320 0.05800
H 	H 	0.08230 0.72970 0.90650 0.07700
H 	H 	0.05700 0.69420 0.79760 0.03800
H 	H 	0.19050 0.82720 0.89640 0.05800
H 	H 	0.20640 0.82070 0.12030 0.06700
H 	H 	0.11850 0.73660 0.01500 0.08500
H 	H 	0.06270 0.69800 0.22890 0.04200
H 	H 	0.08860 0.72820 0.11490 0.05800
H 	H 	0.19040 0.77760 0.21010 0.06100
H 	H 	0.16450 0.74740 0.32420 0.03200
H 	H 	0.31320 0.91880 0.11150 0.03000
H 	H 	0.25830 0.86180 0.11320 0.05500
H 	H 	0.23120 0.88390 0.90770 0.05100
H 	H 	0.28610 0.94090 0.90600 0.02100
H 	H 	0.06590 0.45450 0.67550 0.10300
H 	H 	0.04790 0.39570 0.64350 -0.00900
H 	H 	0.03330 0.38090 0.72620 -0.01000
H 	H 	0.04920 0.42740 0.82980 -0.17000
H 	H 	0.09720 0.48840 0.86610 0.35900
H 	H 	0.06280 0.48890 0.83040 0.36600
H 	H 	0.09890 0.50150 0.78170 0.35300
H 	H 	0.11280 0.44260 0.83900 0.36200
H 	H 	0.11720 0.45040 0.75110 0.34900
H 	H 	0.09050 0.41000 0.78130 0.36200
C 	C 	0.97170 0.43983 0.86501 0.42900
C 	C 	0.98720 0.46978 0.80415 -0.14800
C 	C 	0.01081 0.47125 0.74640 0.10100
C 	C 	0.02393 0.49970 0.69274 -0.05300
C 	C 	0.01344 0.52668 0.69691 -0.04400
C 	C 	0.98983 0.52521 0.75470 -0.06200
C 	C 	0.97671 0.49676 0.80832 0.03200
C 	C 	0.02578 0.55910 0.64140 0.35600
C 	C 	0.14788 0.64081 0.51840 0.31500
C 	C 	0.18730 0.64656 0.50680 -0.06800
C 	C 	0.19323 0.61843 0.47979 0.00600
C 	C 	0.22862 0.62260 0.48300 -0.08600
C 	C 	0.25808 0.65491 0.51330 0.02100
C 	C 	0.25215 0.68304 0.54030 -0.08400
C 	C 	0.21676 0.67887 0.53700 0.00200
C 	C 	0.29760 0.66225 0.50480 0.05800
C 	C 	0.30298 0.63133 0.50560 -0.12600
C 	C 	0.09207 0.69669 0.65755 0.39100
C 	C 	0.10433 0.71831 0.73514 -0.09900
C 	C 	0.14177 0.74553 0.73683 0.01700
C 	C 	0.15693 0.76681 0.80209 -0.08800
C 	C 	0.13466 0.76086 0.86566 0.02700
C 	C 	0.09722 0.73365 0.86396 -0.09200
C 	C 	0.08205 0.71237 0.79871 0.03200
C 	C 	0.15107 0.77931 0.94482 0.10800
C 	C 	0.18299 0.81421 0.94215 -0.06900
C 	C 	0.20371 0.82971 0.00789 0.00300
C 	C 	0.19252 0.81031 0.07630 -0.12100
C 	C 	0.16060 0.77542 0.07897 0.06600
C 	C 	0.13987 0.75992 0.01323 -0.20100
C 	C 	0.09084 0.69591 0.35370 0.39300
C 	C 	0.11105 0.71973 0.28784 -0.11700
C 	C 	0.08832 0.71397 0.22515 0.02800
C 	C 	0.10382 0.73204 0.15683 -0.09300
C 	C 	0.14205 0.75586 0.15120 0.02700
C 	C 	0.16478 0.76162 0.21389 -0.10300
C 	C 	0.14928 0.74356 0.28222 0.04200
C 	C 	0.34314 0.97224 0.01080 0.31100
C 	C 	0.30506 0.93550 0.00857 -0.14800
C 	C 	0.29674 0.91181 0.07063 0.02000
C 	C 	0.26388 0.87767 0.07164 -0.09500
C 	C 	0.23932 0.86720 0.01059 -0.01900
C 	C 	0.24763 0.89088 0.94853 -0.04900
C 	C 	0.28050 0.92503 0.94752 0.07200
C 	C 	0.04850 0.43700 0.71300 -0.25700
C 	C 	0.03290 0.39640 0.68510 0.13500
C 	C 	0.98720 0.41040 0.67880 0.32600
C 	C 	0.06770 0.44420 0.79280 0.64600
C 	C 	0.08310 0.48450 0.82030 -1.11900
C 	C 	0.10010 0.43600 0.79090 -1.12200
N 	N 	0.01530 0.44080 0.71750 -0.12800
O 	O 	0.05776 0.63162 0.50952 -0.96400
O 	O 	0.95283 0.44081 0.91993 -0.49700
O 	O 	0.97535 0.41206 0.85559 -0.51100
O 	O 	0.01426 0.58170 0.65080 -0.50000
O 	O 	0.04898 0.55904 0.59549 -0.49700
O 	O 	0.14599 0.66959 0.49530 -0.46000
O 	O 	0.12246 0.60905 0.49780 -0.47000
O 	O 	0.11046 0.70723 0.59661 -0.53600
O 	O 	0.06104 0.66839 0.66750 -0.51000
O 	O 	0.05683 0.67156 0.35580 -0.50100
O 	O 	0.11414 0.70394 0.40645 -0.47800
O 	O 	0.35291 0.98781 0.94712 -0.45800
O 	O 	0.35575 0.98292 0.07670 -0.50500
O 	O 	0.99550 0.38300 0.66020 -0.25200
O 	O 	0.95640 0.40640 0.66790 -0.23600
H 	H 	0.50089 0.45761 0.14534 0.04500
Zn	Zn	0.37167 0.40049 0.59764 1.21200
Zn	Zn	0.40856 0.47743 0.50592 1.21000
Zn	Zn	0.37207 0.40104 0.41815 1.21300
Zn	Zn	0.32112 0.42533 0.50904 1.20900
H 	H 	0.45670 0.43950 0.75750 0.07000
H 	H 	0.50420 0.46510 0.84700 0.04000
H 	H 	0.40320 0.57670 0.45950 0.04100
H 	H 	0.39620 0.62880 0.46500 0.05600
H 	H 	0.29530 0.56720 0.56050 0.05600
H 	H 	0.30230 0.51510 0.55510 0.03300
H 	H 	0.39250 0.67480 0.50670 0.07100
H 	H 	0.25050 0.40720 0.69430 0.03100
H 	H 	0.21500 0.39700 0.80320 0.05800
H 	H 	0.27030 0.35260 0.90650 0.07800
H 	H 	0.30580 0.36280 0.79760 0.03800
H 	H 	0.17280 0.36330 0.89640 0.05800
H 	H 	0.17930 0.38570 0.12030 0.06700
H 	H 	0.26340 0.38190 0.01500 0.08500
H 	H 	0.30200 0.36470 0.22890 0.04200
H 	H 	0.27180 0.36040 0.11490 0.05800
H 	H 	0.22240 0.41280 0.21010 0.06100
H 	H 	0.25260 0.41710 0.32420 0.03200
H 	H 	0.08120 0.39440 0.11150 0.03000
H 	H 	0.13820 0.39650 0.11320 0.05500
H 	H 	0.11610 0.34730 0.90770 0.05100
H 	H 	0.05910 0.34520 0.90600 0.02100
H 	H 	0.54550 0.61140 0.67550 0.10300
H 	H 	0.60430 0.65220 0.64350 -0.00900
H 	H 	0.61910 0.65240 0.72620 -0.01000
H 	H 	0.57260 0.62180 0.82980 -0.17000
H 	H 	0.51160 0.60880 0.86610 0.35900
H 	H 	0.51110 0.57390 0.83040 0.36600
H 	H 	0.49850 0.59740 0.78170 0.35300
H 	H 	0.55740 0.67020 0.83900 0.36200
H 	H 	0.54960 0.66680 0.75110 0.35000
H 	H 	0.59000 0.68050 0.78130 0.36200
C 	C 	0.56017 0.53187 0.86501 0.42900
C 	C 	0.53022 0.51742 0.80415 -0.14800
C 	C 	0.52875 0.53956 0.74640 0.10100
C 	C 	0.50030 0.52423 0.69274 -0.05300
C 	C 	0.47332 0.48676 0.69691 -0.04300
C 	C 	0.47479 0.46462 0.75470 -0.06200
C 	C 	0.50324 0.47995 0.80832 0.03200
C 	C 	0.44090 0.46668 0.64140 0.35600
C 	C 	0.35919 0.50707 0.51840 0.31500
C 	C 	0.35344 0.54074 0.50680 -0.06800
C 	C 	0.38157 0.57480 0.47979 0.00600
C 	C 	0.37740 0.60602 0.48300 -0.08600
C 	C 	0.34509 0.60317 0.51330 0.02100
C 	C 	0.31696 0.56911 0.54030 -0.08400
C 	C 	0.32113 0.53789 0.53700 0.00200
C 	C 	0.33775 0.63535 0.50480 0.05800
C 	C 	0.36867 0.67165 0.50560 -0.12600
C 	C 	0.30331 0.39538 0.65755 0.39100
C 	C 	0.28169 0.38602 0.73514 -0.09900
C 	C 	0.25447 0.39624 0.73683 0.01700
C 	C 	0.23319 0.39012 0.80209 -0.08800
C 	C 	0.23914 0.37380 0.86566 0.02700
C 	C 	0.26635 0.36357 0.86396 -0.09200
C 	C 	0.28763 0.36968 0.79871 0.03200
C 	C 	0.22069 0.37176 0.94482 0.10800
C 	C 	0.18579 0.36878 0.94215 -0.06900
C 	C 	0.17029 0.37400 0.00789 0.00300
C 	C 	0.18969 0.38221 0.07630 -0.12100
C 	C 	0.22458 0.38518 0.07897 0.06700
C 	C 	0.24008 0.37995 0.01323 -0.20200
C 	C 	0.30409 0.39493 0.35370 0.39300
C 	C 	0.28027 0.39132 0.28784 -0.11700
C 	C 	0.28603 0.37435 0.22515 0.02800
C 	C 	0.26796 0.37178 0.15683 -0.09200
C 	C 	0.24414 0.38619 0.15120 0.02700
C 	C 	0.23838 0.40316 0.21389 -0.10300
C 	C 	0.25644 0.40572 0.28222 0.04100
C 	C 	0.02776 0.37090 0.01080 0.31100
C 	C 	0.06450 0.36956 0.00857 -0.14800
C 	C 	0.08819 0.38493 0.07063 0.02000
C 	C 	0.12233 0.38621 0.07164 -0.09500
C 	C 	0.13280 0.37212 0.01059 -0.01900
C 	C 	0.10912 0.35675 0.94853 -0.04800
C 	C 	0.07497 0.35547 0.94752 0.07200
C 	C 	0.56300 0.61150 0.71300 -0.25700
C 	C 	0.60360 0.63650 0.68510 0.13500
C 	C 	0.58960 0.57680 0.67880 0.32600
C 	C 	0.55580 0.62350 0.79280 0.64600
C 	C 	0.51550 0.59860 0.82030 -1.11900
C 	C 	0.56400 0.66410 0.79090 -1.12200
N 	N 	0.55920 0.57450 0.71750 -0.12800
O 	O 	0.36838 0.42614 0.50952 -0.96400
O 	O 	0.55919 0.51202 0.91993 -0.49700
O 	O 	0.58794 0.56329 0.85559 -0.51100
O 	O 	0.41830 0.43256 0.65080 -0.50000
O 	O 	0.44096 0.48994 0.59549 -0.49700
O 	O 	0.33041 0.47640 0.49530 -0.46100
O 	O 	0.39095 0.51341 0.49780 -0.47000
O 	O 	0.29277 0.40323 0.59661 -0.53600
O 	O 	0.33161 0.39265 0.66750 -0.51000
O 	O 	0.32844 0.38527 0.35580 -0.50100
O 	O 	0.29606 0.41020 0.40645 -0.47800
O 	O 	0.01219 0.36510 0.94712 -0.45800
O 	O 	0.01708 0.37283 0.07670 -0.50500
O 	O 	0.61700 0.61250 0.66020 -0.25200
O 	O 	0.59360 0.55000 0.66790 -0.23600
H 	H 	0.54239 0.04329 0.14534 0.04500
Zn	Zn	0.59951 0.97118 0.59764 1.21200
Zn	Zn	0.52257 0.93113 0.50592 1.21000
Zn	Zn	0.59896 0.97103 0.41815 1.21300
Zn	Zn	0.57467 0.89579 0.50904 1.20900
H 	H 	0.56050 0.01720 0.75750 0.07000
H 	H 	0.53490 0.03910 0.84700 0.04000
H 	H 	0.42330 0.82650 0.45950 0.04100
H 	H 	0.37120 0.76740 0.46500 0.05600
H 	H 	0.43280 0.72810 0.56050 0.05600
H 	H 	0.48490 0.78720 0.55510 0.03300
H 	H 	0.32520 0.71770 0.50670 0.07100
H 	H 	0.59280 0.84330 0.69430 0.03100
H 	H 	0.60300 0.81800 0.80320 0.05800
H 	H 	0.64740 0.91770 0.90650 0.07700
H 	H 	0.63720 0.94300 0.79760 0.03800
H 	H 	0.63670 0.80950 0.89640 0.05800
H 	H 	0.61430 0.79360 0.12030 0.06700
H 	H 	0.61810 0.88150 0.01500 0.08500
H 	H 	0.63530 0.93730 0.22890 0.04200
H 	H 	0.63960 0.91140 0.11490 0.05800
H 	H 	0.58720 0.80960 0.21010 0.06100
H 	H 	0.58290 0.83550 0.32420 0.03200
H 	H 	0.60560 0.68680 0.11150 0.03000
H 	H 	0.60350 0.74170 0.11320 0.05500
H 	H 	0.65270 0.76880 0.90770 0.05100
H 	H 	0.65480 0.71390 0.90600 0.02100
H 	H 	0.38860 0.93410 0.67550 0.10300
H 	H 	0.34780 0.95210 0.64350 -0.00900
H 	H 	0.34760 0.96670 0.72620 -0.01000
H 	H 	0.37820 0.95080 0.82980 -0.17000
H 	H 	0.39120 0.90280 0.86610 0.35900
H 	H 	0.42610 0.93720 0.83040 0.36600
H 	H 	0.40260 0.90110 0.78170 0.35300
H 	H 	0.32980 0.88720 0.83900 0.36200
H 	H 	0.33320 0.88280 0.75110 0.34900
H 	H 	0.31950 0.90950 0.78130 0.36200
C 	C 	0.46813 0.02830 0.86501 0.42900
C 	C 	0.48258 0.01280 0.80415 -0.14800
C 	C 	0.46044 0.98919 0.74640 0.10100
C 	C 	0.47577 0.97607 0.69274 -0.05300
C 	C 	0.51324 0.98656 0.69691 -0.04400
C 	C 	0.53538 0.01017 0.75470 -0.06200
C 	C 	0.52005 0.02329 0.80832 0.03200
C 	C 	0.53332 0.97422 0.64140 0.35600
C 	C 	0.49293 0.85212 0.51840 0.31500
C 	C 	0.45926 0.81270 0.50680 -0.06800
C 	C 	0.42520 0.80677 0.47979 0.00600
C 	C 	0.39398 0.77138 0.48300 -0.08600
C 	C 	0.39683 0.74192 0.51330 0.02100
C 	C 	0.43089 0.74785 0.54030 -0.08400
C 	C 	0.46211 0.78324 0.53700 0.00200
C 	C 	0.36465 0.70240 0.50480 0.05800
C 	C 	0.32835 0.69702 0.50560 -0.12600
C 	C 	0.60462 0.90793 0.65755 0.39100
C 	C 	0.61398 0.89567 0.73514 -0.09900
C 	C 	0.60376 0.85823 0.73683 0.01700
C 	C 	0.60988 0.84307 0.80209 -0.08800
C 	C 	0.62620 0.86534 0.86566 0.02700
C 	C 	0.63643 0.90278 0.86396 -0.09200
C 	C 	0.63032 0.91795 0.79871 0.03200
C 	C 	0.62824 0.84893 0.94482 0.10800
C 	C 	0.63122 0.81701 0.94215 -0.06900
C 	C 	0.62600 0.79629 0.00789 0.00300
C 	C 	0.61779 0.80748 0.07630 -0.12100
C 	C 	0.61482 0.83940 0.07897 0.06600
C 	C 	0.62005 0.86013 0.01323 -0.20200
C 	C 	0.60507 0.90916 0.35370 0.39300
C 	C 	0.60868 0.88895 0.28784 -0.11700
C 	C 	0.62565 0.91168 0.22515 0.02800
C 	C 	0.62822 0.89618 0.15683 -0.09300
C 	C 	0.61381 0.85795 0.15120 0.02700
C 	C 	0.59684 0.83522 0.21389 -0.10300
C 	C 	0.59428 0.85072 0.28222 0.04200
C 	C 	0.62910 0.65686 0.01080 0.31000
C 	C 	0.63044 0.69494 0.00857 -0.14800
C 	C 	0.61507 0.70326 0.07063 0.02000
C 	C 	0.61379 0.73612 0.07164 -0.09500
C 	C 	0.62788 0.76068 0.01059 -0.01900
C 	C 	0.64325 0.75237 0.94853 -0.04800
C 	C 	0.64453 0.71950 0.94752 0.07200
C 	C 	0.38850 0.95150 0.71300 -0.25700
C 	C 	0.36350 0.96710 0.68510 0.13500
C 	C 	0.42320 0.01280 0.67880 0.32600
C 	C 	0.37650 0.93230 0.79280 0.64500
C 	C 	0.40140 0.91690 0.82030 -1.11900
C 	C 	0.33590 0.89990 0.79090 -1.12200
N 	N 	0.42550 0.98470 0.71750 -0.12800
O 	O 	0.57386 0.94224 0.50952 -0.96400
O 	O 	0.48798 0.04717 0.91993 -0.49700
O 	O 	0.43671 0.02465 0.85559 -0.51100
O 	O 	0.56744 0.98574 0.65080 -0.50000
O 	O 	0.51006 0.95102 0.59549 -0.49700
O 	O 	0.52360 0.85401 0.49530 -0.46000
O 	O 	0.48659 0.87754 0.49780 -0.47000
O 	O 	0.59677 0.88954 0.59661 -0.53600
O 	O 	0.60735 0.93896 0.66750 -0.51000
O 	O 	0.61473 0.94317 0.35580 -0.50100
O 	O 	0.58980 0.88586 0.40645 -0.47800
O 	O 	0.63490 0.64709 0.94712 -0.45800
O 	O 	0.62717 0.64425 0.07670 -0.50500
O 	O 	0.38750 0.00450 0.66020 -0.25200
O 	O 	0.45000 0.04360 0.66790 -0.23600
H 	H 	0.95671 0.49911 0.14534 0.04500
Zn	Zn	0.97118 0.37167 0.09764 1.20900
Zn	Zn	0.93113 0.40856 0.00592 1.19100
Zn	Zn	0.97103 0.37207 0.91815 1.22200
Zn	Zn	0.89579 0.32112 0.00904 1.19100
H 	H 	0.01720 0.45670 0.25750 0.06500
H 	H 	0.03910 0.50420 0.34700 0.03200
H 	H 	0.82650 0.40320 0.95950 0.04700
H 	H 	0.76740 0.39620 0.96500 0.04800
H 	H 	0.72810 0.29530 0.06050 0.03600
H 	H 	0.78720 0.30230 0.05510 0.03200
H 	H 	0.71770 0.39250 0.00670 0.07500
H 	H 	0.84330 0.25050 0.19430 0.02100
H 	H 	0.81800 0.21500 0.30320 0.05800
H 	H 	0.91770 0.27030 0.40650 0.06800
H 	H 	0.94300 0.30580 0.29760 0.02800
H 	H 	0.80950 0.17280 0.39640 0.06500
H 	H 	0.79360 0.17930 0.62030 0.07000
H 	H 	0.88150 0.26340 0.51500 0.07400
H 	H 	0.93730 0.30200 0.72890 0.04400
H 	H 	0.91140 0.27180 0.61490 0.06900
H 	H 	0.80960 0.22240 0.71010 0.06900
H 	H 	0.83550 0.25260 0.82420 0.03800
H 	H 	0.68680 0.08120 0.61150 0.03800
H 	H 	0.74170 0.13820 0.61320 0.06200
H 	H 	0.76880 0.11610 0.40770 0.05700
H 	H 	0.71390 0.05910 0.40600 0.02900
H 	H 	0.93410 0.54550 0.17550 0.09400
H 	H 	0.95210 0.60430 0.14350 -0.01700
H 	H 	0.96670 0.61910 0.22620 -0.01300
H 	H 	0.95080 0.57260 0.32980 -0.16300
H 	H 	0.90280 0.51160 0.36610 0.33400
H 	H 	0.93720 0.51110 0.33040 0.34500
H 	H 	0.90110 0.49850 0.28170 0.33200
H 	H 	0.88720 0.55740 0.33900 0.33800
H 	H 	0.88280 0.54960 0.25110 0.32800
H 	H 	0.90950 0.59000 0.28130 0.34200
C 	C 	0.02830 0.56017 0.36501 0.43100
C 	C 	0.01280 0.53022 0.30415 -0.15400
C 	C 	0.98919 0.52875 0.24640 0.10100
C 	C 	0.97607 0.50030 0.19274 -0.05500
C 	C 	0.98656 0.47332 0.19691 -0.04900
C 	C 	0.01017 0.47479 0.25470 -0.06500
C 	C 	0.02329 0.50324 0.30832 0.03000
C 	C 	0.97422 0.44090 0.14140 0.35500
C 	C 	0.85212 0.35919 0.01840 0.19700
C 	C 	0.81270 0.35344 0.00680 -0.09100
C 	C 	0.80677 0.38157 0.97979 0.03400
C 	C 	0.77138 0.37740 0.98300 0.00400
C 	C 	0.74192 0.34509 0.01330 -0.06700
C 	C 	0.74785 0.31696 0.04030 -0.05000
C 	C 	0.78324 0.32113 0.03700 -0.02500
C 	C 	0.70240 0.33775 0.00480 0.09500
C 	C 	0.69702 0.36867 0.00560 -0.17100
C 	C 	0.90793 0.30331 0.15755 0.39300
C 	C 	0.89567 0.28169 0.23514 -0.11200
C 	C 	0.85823 0.25447 0.23683 0.02400
C 	C 	0.84307 0.23319 0.30209 -0.10500
C 	C 	0.86534 0.23914 0.36566 0.03800
C 	C 	0.90278 0.26635 0.36396 -0.10900
C 	C 	0.91795 0.28763 0.29871 0.03800
C 	C 	0.84893 0.22069 0.44482 0.04900
C 	C 	0.81701 0.18579 0.44215 -0.11900
C 	C 	0.79629 0.17029 0.50789 0.05000
C 	C 	0.80748 0.18969 0.57630 -0.11700
C 	C 	0.83940 0.22458 0.57897 0.05100
C 	C 	0.86013 0.24008 0.51323 -0.11800
C 	C 	0.90916 0.30409 0.85370 0.39400
C 	C 	0.88895 0.28027 0.78784 -0.11500
C 	C 	0.91168 0.28603 0.72515 0.03600
C 	C 	0.89618 0.26796 0.65683 -0.09800
C 	C 	0.85795 0.24414 0.65120 0.04200
C 	C 	0.83522 0.23838 0.71389 -0.10600
C 	C 	0.85072 0.25644 0.78222 0.04800
C 	C 	0.65686 0.02776 0.51080 0.36700
C 	C 	0.69494 0.06450 0.50857 -0.09600
C 	C 	0.70326 0.08819 0.57063 0.01700
C 	C 	0.73612 0.12233 0.57164 -0.09600
C 	C 	0.76068 0.13280 0.51059 0.03100
C 	C 	0.75237 0.10912 0.44853 -0.10200
C 	C 	0.71950 0.07497 0.44752 0.01800
C 	C 	0.95150 0.56300 0.21300 -0.24600
C 	C 	0.96710 0.60360 0.18510 0.13400
C 	C 	0.01280 0.58960 0.17880 0.32500
C 	C 	0.93230 0.55580 0.29280 0.61000
C 	C 	0.91690 0.51550 0.32030 -1.06600
C 	C 	0.89990 0.56400 0.29090 -1.07000
N 	N 	0.98470 0.55920 0.21750 -0.13000
O 	O 	0.94224 0.36838 0.00952 -0.99400
O 	O 	0.04717 0.55919 0.41993 -0.52000
O 	O 	0.02465 0.58794 0.35559 -0.52000
O 	O 	0.98574 0.41830 0.15080 -0.50800
O 	O 	0.95102 0.44096 0.09549 -0.51400
O 	O 	0.85401 0.33041 0.99530 -0.37900
O 	O 	0.87754 0.39095 0.99780 -0.39000
O 	O 	0.88954 0.29277 0.09661 -0.55300
O 	O 	0.93896 0.33161 0.16750 -0.51800
O 	O 	0.94317 0.32844 0.85580 -0.49200
O 	O 	0.88586 0.29606 0.90645 -0.45800
O 	O 	0.64709 0.01219 0.44712 -0.51200
O 	O 	0.64425 0.01708 0.57670 -0.50900
O 	O 	0.00450 0.61700 0.16020 -0.26000
O 	O 	0.04360 0.59360 0.16790 -0.24600
H 	H 	0.49911 0.54239 0.64534 0.05300
Zn	Zn	0.62833 0.59951 0.09764 1.20900
Zn	Zn	0.59144 0.52257 0.00592 1.19100
Zn	Zn	0.62793 0.59896 0.91815 1.22200
Zn	Zn	0.67888 0.57467 0.00904 1.19100
H 	H 	0.54330 0.56050 0.25750 0.06500
H 	H 	0.49580 0.53490 0.34700 0.03200
H 	H 	0.59680 0.42330 0.95950 0.04700
H 	H 	0.60380 0.37120 0.96500 0.04800
H 	H 	0.70470 0.43280 0.06050 0.03600
H 	H 	0.69770 0.48490 0.05510 0.03200
H 	H 	0.60750 0.32520 0.00670 0.07500
H 	H 	0.74950 0.59280 0.19430 0.02100
H 	H 	0.78500 0.60300 0.30320 0.05800
H 	H 	0.72970 0.64740 0.40650 0.06800
H 	H 	0.69420 0.63720 0.29760 0.02800
H 	H 	0.82720 0.63670 0.39640 0.06500
H 	H 	0.82070 0.61430 0.62030 0.07000
H 	H 	0.73660 0.61810 0.51500 0.07400
H 	H 	0.69800 0.63530 0.72890 0.04400
H 	H 	0.72820 0.63960 0.61490 0.06900
H 	H 	0.77760 0.58720 0.71010 0.06900
H 	H 	0.74740 0.58290 0.82420 0.03800
H 	H 	0.91880 0.60560 0.61150 0.03800
H 	H 	0.86180 0.60350 0.61320 0.06200
H 	H 	0.88390 0.65270 0.40770 0.05700
H 	H 	0.94090 0.65480 0.40600 0.02900
H 	H 	0.45450 0.38860 0.17550 0.09400
H 	H 	0.39570 0.34780 0.14350 -0.01700
H 	H 	0.38090 0.34760 0.22620 -0.01300
H 	H 	0.42740 0.37820 0.32980 -0.16300
H 	H 	0.48840 0.39120 0.36610 0.33400
H 	H 	0.48890 0.42610 0.33040 0.34500
H 	H 	0.50150 0.40260 0.28170 0.33200
H 	H 	0.44260 0.32980 0.33900 0.33800
H 	H 	0.45040 0.33320 0.25110 0.32800
H 	H 	0.41000 0.31950 0.28130 0.34200
C 	C 	0.43983 0.46813 0.36501 0.43100
C 	C 	0.46978 0.48258 0.30415 -0.15400
C 	C 	0.47125 0.46044 0.24640 0.10100
C 	C 	0.49970 0.47577 0.19274 -0.05500
C 	C 	0.52668 0.51324 0.19691 -0.04900
C 	C 	0.52521 0.53538 0.25470 -0.06500
C 	C 	0.49676 0.52005 0.30832 0.03000
C 	C 	0.55910 0.53332 0.14140 0.35500
C 	C 	0.64081 0.49293 0.01840 0.19700
C 	C 	0.64656 0.45926 0.00680 -0.09100
C 	C 	0.61843 0.42520 0.97979 0.03400
C 	C 	0.62260 0.39398 0.98300 0.00400
C 	C 	0.65491 0.39683 0.01330 -0.06700
C 	C 	0.68304 0.43089 0.04030 -0.05000
C 	C 	0.67887 0.46211 0.03700 -0.02500
C 	C 	0.66225 0.36465 0.00480 0.09500
C 	C 	0.63133 0.32835 0.00560 -0.17100
C 	C 	0.69669 0.60462 0.15755 0.39300
C 	C 	0.71831 0.61398 0.23514 -0.11200
C 	C 	0.74553 0.60376 0.23683 0.02400
C 	C 	0.76681 0.60988 0.30209 -0.10500
C 	C 	0.76086 0.62620 0.36566 0.03800
C 	C 	0.73365 0.63643 0.36396 -0.10900
C 	C 	0.71237 0.63032 0.29871 0.03800
C 	C 	0.77931 0.62824 0.44482 0.04900
C 	C 	0.81421 0.63122 0.44215 -0.11900
C 	C 	0.82971 0.62600 0.50789 0.05000
C 	C 	0.81031 0.61779 0.57630 -0.11700
C 	C 	0.77542 0.61482 0.57897 0.05100
C 	C 	0.75992 0.62005 0.51323 -0.11800
C 	C 	0.69591 0.60507 0.85370 0.39400
C 	C 	0.71973 0.60868 0.78784 -0.11500
C 	C 	0.71397 0.62565 0.72515 0.03600
C 	C 	0.73204 0.62822 0.65683 -0.09800
C 	C 	0.75586 0.61381 0.65120 0.04200
C 	C 	0.76162 0.59684 0.71389 -0.10600
C 	C 	0.74356 0.59428 0.78222 0.04800
C 	C 	0.97224 0.62910 0.51080 0.36700
C 	C 	0.93550 0.63044 0.50857 -0.09600
C 	C 	0.91181 0.61507 0.57063 0.01700
C 	C 	0.87767 0.61379 0.57164 -0.09600
C 	C 	0.86720 0.62788 0.51059 0.03100
C 	C 	0.89088 0.64325 0.44853 -0.10200
C 	C 	0.92503 0.64453 0.44752 0.01800
C 	C 	0.43700 0.38850 0.21300 -0.24600
C 	C 	0.39640 0.36350 0.18510 0.13400
C 	C 	0.41040 0.42320 0.17880 0.32500
C 	C 	0.44420 0.37650 0.29280 0.61000
C 	C 	0.48450 0.40140 0.32030 -1.06600
C 	C 	0.43600 0.33590 0.29090 -1.07000
N 	N 	0.44080 0.42550 0.21750 -0.13000
O 	O 	0.63162 0.57386 0.00952 -0.99400
O 	O 	0.44081 0.48798 0.41993 -0.52000
O 	O 	0.41206 0.43671 0.35559 -0.52000
O 	O 	0.58170 0.56744 0.15080 -0.50800
O 	O 	0.55904 0.51006 0.09549 -0.51400
O 	O 	0.66959 0.52360 0.99530 -0.37900
O 	O 	0.60905 0.48659 0.99780 -0.39000
O 	O 	0.70723 0.59677 0.09661 -0.55300
O 	O 	0.66839 0.60735 0.16750 -0.51800
O 	O 	0.67156 0.61473 0.85580 -0.49200
O 	O 	0.70394 0.58980 0.90645 -0.45800
O 	O 	0.98781 0.63490 0.44712 -0.51200
O 	O 	0.98292 0.62717 0.57670 -0.50900
O 	O 	0.38300 0.38750 0.16020 -0.26000
O 	O 	0.40640 0.45000 0.16790 -0.24600
H 	H 	0.45761 0.95671 0.64534 0.05200
Zn	Zn	0.40049 0.02882 0.09764 1.20900
Zn	Zn	0.47743 0.06887 0.00592 1.19100
Zn	Zn	0.40104 0.02897 0.91815 1.22200
Zn	Zn	0.42533 0.10421 0.00904 1.19100
H 	H 	0.43950 0.98280 0.25750 0.06500
H 	H 	0.46510 0.96090 0.34700 0.03200
H 	H 	0.57670 0.17350 0.95950 0.04700
H 	H 	0.62880 0.23260 0.96500 0.04800
H 	H 	0.56720 0.27190 0.06050 0.03600
H 	H 	0.51510 0.21280 0.05510 0.03200
H 	H 	0.67480 0.28230 0.00670 0.07500
H 	H 	0.40720 0.15670 0.19430 0.02100
H 	H 	0.39700 0.18200 0.30320 0.05800
H 	H 	0.35260 0.08230 0.40650 0.06800
H 	H 	0.36280 0.05700 0.29760 0.02800
H 	H 	0.36330 0.19050 0.39640 0.06500
H 	H 	0.38570 0.20640 0.62030 0.07000
H 	H 	0.38190 0.11850 0.51500 0.07400
H 	H 	0.36470 0.06270 0.72890 0.04400
H 	H 	0.36040 0.08860 0.61490 0.06900
H 	H 	0.41280 0.19040 0.71010 0.06900
H 	H 	0.41710 0.16450 0.82420 0.03800
H 	H 	0.39440 0.31320 0.61150 0.03800
H 	H 	0.39650 0.25830 0.61320 0.06200
H 	H 	0.34730 0.23120 0.40770 0.05700
H 	H 	0.34520 0.28610 0.40600 0.02900
H 	H 	0.61140 0.06590 0.17550 0.09400
H 	H 	0.65220 0.04790 0.14350 -0.01700
H 	H 	0.65240 0.03330 0.22620 -0.01300
H 	H 	0.62180 0.04920 0.32980 -0.16300
H 	H 	0.60880 0.09720 0.36610 0.33400
H 	H 	0.57390 0.06280 0.33040 0.34500
H 	H 	0.59740 0.09890 0.28170 0.33200
H 	H 	0.67020 0.11280 0.33900 0.33800
H 	H 	0.66680 0.11720 0.25110 0.32800
H 	H 	0.68050 0.09050 0.28130 0.34200
C 	C 	0.53187 0.97170 0.36501 0.43100
C 	C 	0.51742 0.98720 0.30415 -0.15400
C 	C 	0.53956 0.01081 0.24640 0.10100
C 	C 	0.52423 0.02393 0.19274 -0.05500
C 	C 	0.48676 0.01344 0.19691 -0.04900
C 	C 	0.46462 0.98983 0.25470 -0.06500
C 	C 	0.47995 0.97671 0.30832 0.03000
C 	C 	0.46668 0.02578 0.14140 0.35500
C 	C 	0.50707 0.14788 0.01840 0.19700
C 	C 	0.54074 0.18730 0.00680 -0.09100
C 	C 	0.57480 0.19323 0.97979 0.03400
C 	C 	0.60602 0.22862 0.98300 0.00400
C 	C 	0.60317 0.25808 0.01330 -0.06700
C 	C 	0.56911 0.25215 0.04030 -0.05000
C 	C 	0.53789 0.21676 0.03700 -0.02500
C 	C 	0.63535 0.29760 0.00480 0.09500
C 	C 	0.67165 0.30298 0.00560 -0.17100
C 	C 	0.39538 0.09207 0.15755 0.39300
C 	C 	0.38602 0.10433 0.23514 -0.11200
C 	C 	0.39624 0.14177 0.23683 0.02400
C 	C 	0.39012 0.15693 0.30209 -0.10500
C 	C 	0.37380 0.13466 0.36566 0.03800
C 	C 	0.36357 0.09722 0.36396 -0.10900
C 	C 	0.36968 0.08205 0.29871 0.03800
C 	C 	0.37176 0.15107 0.44482 0.04900
C 	C 	0.36878 0.18299 0.44215 -0.11900
C 	C 	0.37400 0.20371 0.50789 0.05000
C 	C 	0.38221 0.19252 0.57630 -0.11700
C 	C 	0.38518 0.16060 0.57897 0.05100
C 	C 	0.37995 0.13987 0.51323 -0.11800
C 	C 	0.39493 0.09084 0.85370 0.39400
C 	C 	0.39132 0.11105 0.78784 -0.11500
C 	C 	0.37435 0.08832 0.72515 0.03600
C 	C 	0.37178 0.10382 0.65683 -0.09800
C 	C 	0.38619 0.14205 0.65120 0.04200
C 	C 	0.40316 0.16478 0.71389 -0.10600
C 	C 	0.40572 0.14928 0.78222 0.04800
C 	C 	0.37090 0.34314 0.51080 0.36700
C 	C 	0.36956 0.30506 0.50857 -0.09600
C 	C 	0.38493 0.29674 0.57063 0.01700
C 	C 	0.38621 0.26388 0.57164 -0.09600
C 	C 	0.37212 0.23932 0.51059 0.03100
C 	C 	0.35675 0.24763 0.44853 -0.10200
C 	C 	0.35547 0.28050 0.44752 0.01800
C 	C 	0.61150 0.04850 0.21300 -0.24600
C 	C 	0.63650 0.03290 0.18510 0.13400
C 	C 	0.57680 0.98720 0.17880 0.32500
C 	C 	0.62350 0.06770 0.29280 0.61000
C 	C 	0.59860 0.08310 0.32030 -1.06600
C 	C 	0.66410 0.10010 0.29090 -1.07000
N 	N 	0.57450 0.01530 0.21750 -0.13000
O 	O 	0.42614 0.05776 0.00952 -0.99400
O 	O 	0.51202 0.95283 0.41993 -0.52000
O 	O 	0.56329 0.97535 0.35559 -0.52000
O 	O 	0.43256 0.01426 0.15080 -0.50800
O 	O 	0.48994 0.04898 0.09549 -0.51400
O 	O 	0.47640 0.14599 0.99530 -0.37900
O 	O 	0.51341 0.12246 0.99780 -0.39000
O 	O 	0.40323 0.11046 0.09661 -0.55300
O 	O 	0.39265 0.06104 0.16750 -0.51800
O 	O 	0.38527 0.05683 0.85580 -0.49200
O 	O 	0.41020 0.11414 0.90645 -0.45800
O 	O 	0.36510 0.35291 0.44712 -0.51200
O 	O 	0.37283 0.35575 0.57670 -0.50900
O 	O 	0.61250 0.99550 0.16020 -0.26000
O 	O 	0.55000 0.95640 0.16790 -0.24600
H 	H 	0.04329 0.50089 0.64534 0.05200
