data_crystal

_cell_length_a 13.89420
_cell_length_b 27.57400
_cell_length_c 44.87400
_cell_angle_alpha 90.00000
_cell_angle_beta  90.00000
_cell_angle_gamma 90.00000

_symmetry_space_group_name_	'P 1'
_symmetry_space_group_name_H-M	'P 1'

loop_
_symmetry_equiv_pos_as_xyz
  x,y,z

loop_
_atom_site_label
_atom_site_type_symbol
_atom_site_fract_x
_atom_site_fract_y
_atom_site_fract_z
_atom_site_charge
Zn	Zn	0.15183 0.45413 0.08412 1.16600
Zn	Zn	0.38298 0.47755 0.91404 1.16500
Zn	Zn	0.17576 0.25854 0.81999 1.16600
Zn	Zn	0.84817 0.04587 0.58412 1.16600
Zn	Zn	0.61702 0.02245 0.41404 1.16500
Zn	Zn	0.82424 0.24146 0.31999 1.16600
Zn	Zn	0.65183 0.54587 0.41588 1.16500
Zn	Zn	0.88298 0.52245 0.58596 1.16400
Zn	Zn	0.67576 0.74146 0.68001 1.16500
Zn	Zn	0.34817 0.95413 0.91588 1.16500
Zn	Zn	0.11702 0.97755 0.08596 1.16400
Zn	Zn	0.32424 0.75854 0.18001 1.16500
H 	H 	0.03840 0.08670 0.17260 0.08300
H 	H 	0.06130 0.01490 0.14700 -0.00800
H 	H 	0.09740 0.08270 0.07150 -0.01700
H 	H 	0.07410 0.15670 0.09430 0.08700
H 	H 	0.01950 0.35130 0.16610 0.08000
H 	H 	0.05580 0.42190 0.13990 -0.00900
H 	H 	0.13280 0.34770 0.06960 -0.01300
H 	H 	0.10070 0.27390 0.09300 0.07900
H 	H 	0.94830 0.15420 0.23090 0.07900
H 	H 	0.88980 0.16170 0.27820 -0.00600
H 	H 	0.93530 0.30230 0.27720 -0.00400
H 	H 	0.98760 0.29890 0.22810 0.08100
H 	H 	0.69090 0.39550 0.88960 0.10800
H 	H 	0.53530 0.41970 0.88310 -0.01700
H 	H 	0.52360 0.46800 0.96460 -0.01200
H 	H 	0.67520 0.44090 0.97390 0.09900
H 	H 	0.87520 0.44880 0.01330 0.08900
H 	H 	0.95780 0.46860 0.05690 -0.01400
H 	H 	0.20350 0.42810 0.02020 0.00200
H 	H 	0.12540 0.40320 0.97690 0.07700
H 	H 	0.12640 0.35690 0.91150 0.08000
H 	H 	0.20880 0.31880 0.87350 -0.00500
H 	H 	0.96880 0.28110 0.83460 -0.01600
H 	H 	0.87590 0.31320 0.87370 0.08000
H 	H 	0.96160 0.41330 0.67260 0.08300
H 	H 	0.93870 0.48510 0.64700 -0.00800
H 	H 	0.90260 0.41730 0.57150 -0.01700
H 	H 	0.92590 0.34330 0.59430 0.08600
H 	H 	0.98050 0.14870 0.66610 0.08000
H 	H 	0.94420 0.07810 0.63990 -0.00900
H 	H 	0.86720 0.15230 0.56960 -0.01300
H 	H 	0.89930 0.22610 0.59300 0.07900
H 	H 	0.05170 0.34580 0.73090 0.07900
H 	H 	0.11020 0.33830 0.77820 -0.00600
H 	H 	0.06470 0.19770 0.77720 -0.00400
H 	H 	0.01240 0.20110 0.72810 0.08200
H 	H 	0.30910 0.10450 0.38960 0.10800
H 	H 	0.46470 0.08030 0.38310 -0.01700
H 	H 	0.47640 0.03200 0.46460 -0.01200
H 	H 	0.32480 0.05910 0.47390 0.09900
H 	H 	0.12480 0.05120 0.51330 0.08900
H 	H 	0.04220 0.03140 0.55690 -0.01400
H 	H 	0.79650 0.07190 0.52020 0.00200
H 	H 	0.87460 0.09680 0.47690 0.07700
H 	H 	0.87360 0.14310 0.41150 0.08000
H 	H 	0.79120 0.18120 0.37350 -0.00500
H 	H 	0.03120 0.21890 0.33460 -0.01400
H 	H 	0.12410 0.18680 0.37370 0.07900
H 	H 	0.53840 0.91330 0.32740 0.08300
H 	H 	0.56130 0.98510 0.35300 -0.00800
H 	H 	0.59740 0.91730 0.42850 -0.01700
H 	H 	0.57410 0.84330 0.40570 0.08700
H 	H 	0.51950 0.64870 0.33390 0.08000
H 	H 	0.55580 0.57810 0.36010 -0.00900
H 	H 	0.63280 0.65230 0.43040 -0.01300
H 	H 	0.60070 0.72610 0.40700 0.07900
H 	H 	0.44830 0.84580 0.26910 0.07900
H 	H 	0.38980 0.83830 0.22180 -0.00600
H 	H 	0.43530 0.69770 0.22280 -0.00400
H 	H 	0.48760 0.70110 0.27190 0.08200
H 	H 	0.19090 0.60450 0.61040 0.10800
H 	H 	0.03530 0.58030 0.61690 -0.01700
H 	H 	0.02360 0.53200 0.53540 -0.01200
H 	H 	0.17520 0.55910 0.52610 0.09900
H 	H 	0.37520 0.55120 0.48670 0.08900
H 	H 	0.45780 0.53140 0.44310 -0.01400
H 	H 	0.70350 0.57190 0.47980 0.00200
H 	H 	0.62540 0.59680 0.52310 0.07700
H 	H 	0.62640 0.64310 0.58850 0.08000
H 	H 	0.70880 0.68120 0.62650 -0.00500
H 	H 	0.46880 0.71890 0.66540 -0.01500
H 	H 	0.37590 0.68680 0.62630 0.08000
H 	H 	0.46160 0.58670 0.82740 0.08300
H 	H 	0.43870 0.51490 0.85300 -0.00800
H 	H 	0.40260 0.58270 0.92850 -0.01700
H 	H 	0.42590 0.65670 0.90570 0.08600
H 	H 	0.48050 0.85130 0.83390 0.08000
H 	H 	0.44420 0.92190 0.86010 -0.00900
H 	H 	0.36720 0.84770 0.93040 -0.01300
H 	H 	0.39930 0.77390 0.90700 0.07900
H 	H 	0.55170 0.65420 0.76910 0.07900
H 	H 	0.61020 0.66170 0.72180 -0.00600
H 	H 	0.56470 0.80230 0.72280 -0.00400
H 	H 	0.51240 0.79890 0.77190 0.08200
H 	H 	0.80910 0.89550 0.11040 0.10800
H 	H 	0.96470 0.91970 0.11690 -0.01600
H 	H 	0.97640 0.96800 0.03540 -0.01100
H 	H 	0.82480 0.94090 0.02610 0.09900
H 	H 	0.62480 0.94880 0.98670 0.08900
H 	H 	0.54220 0.96860 0.94310 -0.01400
H 	H 	0.29650 0.92810 0.97980 0.00200
H 	H 	0.37460 0.90320 0.02310 0.07700
H 	H 	0.37360 0.85690 0.08850 0.08000
H 	H 	0.29120 0.81880 0.12650 -0.00500
H 	H 	0.53120 0.78110 0.16540 -0.01500
H 	H 	0.62410 0.81320 0.12630 0.08000
C 	C 	0.03770 0.17780 0.15055 0.09700
C 	C 	0.05130 0.12980 0.13534 0.06500
C 	C 	0.04960 0.08670 0.15180 -0.12200
C 	C 	0.06500 0.04460 0.13630 0.06800
C 	C 	0.08590 0.08330 0.09230 0.09400
C 	C 	0.07080 0.12770 0.10570 -0.13100
C 	C 	0.03890 0.25930 0.14854 0.09900
C 	C 	0.05800 0.30520 0.13230 0.05300
C 	C 	0.04350 0.34960 0.14630 -0.11600
C 	C 	0.06550 0.39150 0.13040 0.06300
C 	C 	0.11030 0.34810 0.08955 0.06900
C 	C 	0.09130 0.30380 0.10321 -0.11800
C 	C 	0.00050 0.22200 0.19167 0.10500
C 	C 	0.97190 0.22470 0.22347 0.04900
C 	C 	0.94380 0.18550 0.23960 -0.11300
C 	C 	0.90940 0.18990 0.26780 0.05800
C 	C 	0.93450 0.27200 0.26720 0.07300
C 	C 	0.96790 0.27020 0.23803 -0.11400
C 	C 	0.80160 0.39860 0.93810 0.08100
C 	C 	0.69980 0.41230 0.93235 0.07500
C 	C 	0.65680 0.40900 0.90600 -0.16100
C 	C 	0.56480 0.42480 0.90200 0.10200
C 	C 	0.55800 0.45210 0.94916 0.09300
C 	C 	0.64740 0.43610 0.95480 -0.15200
C 	C 	0.93910 0.40530 0.96420 0.09900
C 	C 	0.99110 0.42160 0.99121 0.04900
C 	C 	0.94230 0.44270 0.01470 -0.11700
C 	C 	0.99210 0.45500 0.04060 0.06400
C 	C 	0.13540 0.43060 0.01910 0.05900
C 	C 	0.08970 0.41630 0.99310 -0.10900
C 	C 	0.93780 0.36430 0.92030 0.10500
C 	C 	0.99230 0.33980 0.89674 0.05700
C 	C 	0.09180 0.34060 0.89620 -0.10800
C 	C 	0.14050 0.31780 0.87350 0.06400
C 	C 	0.00110 0.29520 0.85120 0.07800
C 	C 	0.94410 0.31570 0.87400 -0.11800
C 	C 	0.96230 0.32220 0.65055 0.09600
C 	C 	0.94870 0.37020 0.63534 0.06400
C 	C 	0.95040 0.41330 0.65180 -0.12200
C 	C 	0.93500 0.45540 0.63630 0.06700
C 	C 	0.91410 0.41670 0.59230 0.09400
C 	C 	0.92920 0.37230 0.60570 -0.13100
C 	C 	0.96110 0.24070 0.64854 0.09900
C 	C 	0.94200 0.19480 0.63230 0.05200
C 	C 	0.95650 0.15040 0.64630 -0.11600
C 	C 	0.93450 0.10850 0.63040 0.06300
C 	C 	0.88970 0.15190 0.58955 0.06900
C 	C 	0.90870 0.19620 0.60321 -0.11800
C 	C 	0.99950 0.27800 0.69167 0.10400
C 	C 	0.02810 0.27530 0.72347 0.05000
C 	C 	0.05620 0.31450 0.73960 -0.11400
C 	C 	0.09060 0.31010 0.76780 0.05800
C 	C 	0.06550 0.22800 0.76720 0.07300
C 	C 	0.03210 0.22980 0.73803 -0.11500
C 	C 	0.19840 0.10140 0.43810 0.08100
C 	C 	0.30020 0.08770 0.43235 0.07500
C 	C 	0.34320 0.09100 0.40600 -0.16100
C 	C 	0.43520 0.07520 0.40200 0.10200
C 	C 	0.44200 0.04790 0.44916 0.09300
C 	C 	0.35260 0.06390 0.45480 -0.15200
C 	C 	0.06090 0.09470 0.46420 0.09800
C 	C 	0.00890 0.07840 0.49121 0.05100
C 	C 	0.05770 0.05730 0.51470 -0.11800
C 	C 	0.00790 0.04500 0.54060 0.06600
C 	C 	0.86460 0.06940 0.51910 0.06000
C 	C 	0.91030 0.08370 0.49310 -0.11100
C 	C 	0.06220 0.13570 0.42030 0.10500
C 	C 	0.00770 0.16020 0.39674 0.05800
C 	C 	0.90820 0.15940 0.39620 -0.10900
C 	C 	0.85950 0.18220 0.37350 0.06400
C 	C 	0.99890 0.20480 0.35120 0.07500
C 	C 	0.05590 0.18430 0.37400 -0.11600
C 	C 	0.53770 0.82220 0.34945 0.09600
C 	C 	0.55130 0.87020 0.36466 0.06400
C 	C 	0.54960 0.91330 0.34820 -0.12200
C 	C 	0.56500 0.95540 0.36370 0.06700
C 	C 	0.58590 0.91670 0.40770 0.09400
C 	C 	0.57080 0.87230 0.39430 -0.13100
C 	C 	0.53890 0.74070 0.35146 0.09900
C 	C 	0.55800 0.69480 0.36770 0.05300
C 	C 	0.54350 0.65040 0.35370 -0.11600
C 	C 	0.56550 0.60850 0.36960 0.06300
C 	C 	0.61030 0.65190 0.41045 0.06900
C 	C 	0.59130 0.69620 0.39679 -0.11800
C 	C 	0.50050 0.77800 0.30833 0.10500
C 	C 	0.47190 0.77530 0.27653 0.04900
C 	C 	0.44380 0.81450 0.26040 -0.11400
C 	C 	0.40940 0.81010 0.23220 0.05800
C 	C 	0.43450 0.72800 0.23280 0.07300
C 	C 	0.46790 0.72980 0.26197 -0.11500
C 	C 	0.30160 0.60140 0.56190 0.08100
C 	C 	0.19980 0.58770 0.56765 0.07500
C 	C 	0.15680 0.59100 0.59400 -0.16100
C 	C 	0.06480 0.57520 0.59800 0.10200
C 	C 	0.05800 0.54790 0.55084 0.09300
C 	C 	0.14740 0.56390 0.54520 -0.15200
C 	C 	0.43910 0.59470 0.53580 0.09800
C 	C 	0.49110 0.57840 0.50879 0.05000
C 	C 	0.44230 0.55730 0.48530 -0.11700
C 	C 	0.49210 0.54500 0.45940 0.06500
C 	C 	0.63540 0.56940 0.48090 0.05900
C 	C 	0.58970 0.58370 0.50690 -0.10900
C 	C 	0.43780 0.63570 0.57970 0.10500
C 	C 	0.49230 0.66020 0.60326 0.05800
C 	C 	0.59180 0.65940 0.60380 -0.10800
C 	C 	0.64050 0.68220 0.62650 0.06400
C 	C 	0.50110 0.70480 0.64880 0.07700
C 	C 	0.44410 0.68430 0.62600 -0.11700
C 	C 	0.46230 0.67780 0.84945 0.09600
C 	C 	0.44870 0.62980 0.86466 0.06400
C 	C 	0.45040 0.58670 0.84820 -0.12200
C 	C 	0.43500 0.54460 0.86370 0.06700
C 	C 	0.41410 0.58330 0.90770 0.09400
C 	C 	0.42920 0.62770 0.89430 -0.13100
C 	C 	0.46110 0.75930 0.85146 0.09900
C 	C 	0.44200 0.80520 0.86770 0.05300
C 	C 	0.45650 0.84960 0.85370 -0.11600
C 	C 	0.43450 0.89150 0.86960 0.06300
C 	C 	0.38970 0.84810 0.91045 0.06900
C 	C 	0.40870 0.80380 0.89679 -0.11800
C 	C 	0.49950 0.72200 0.80833 0.10500
C 	C 	0.52810 0.72470 0.77653 0.04900
C 	C 	0.55620 0.68550 0.76040 -0.11400
C 	C 	0.59060 0.68990 0.73220 0.05800
C 	C 	0.56550 0.77200 0.73280 0.07300
C 	C 	0.53210 0.77020 0.76197 -0.11500
C 	C 	0.69840 0.89860 0.06190 0.08100
C 	C 	0.80020 0.91230 0.06765 0.07500
C 	C 	0.84320 0.90900 0.09400 -0.16100
C 	C 	0.93520 0.92480 0.09800 0.10200
C 	C 	0.94200 0.95210 0.05084 0.09300
C 	C 	0.85260 0.93610 0.04520 -0.15100
C 	C 	0.56090 0.90530 0.03580 0.09800
C 	C 	0.50890 0.92160 0.00879 0.05000
C 	C 	0.55770 0.94270 0.98530 -0.11700
C 	C 	0.50790 0.95500 0.95940 0.06500
C 	C 	0.36460 0.93060 0.98090 0.05900
C 	C 	0.41030 0.91630 0.00690 -0.10900
C 	C 	0.56220 0.86430 0.07970 0.10500
C 	C 	0.50770 0.83980 0.10326 0.05800
C 	C 	0.40820 0.84060 0.10380 -0.10800
C 	C 	0.35950 0.81780 0.12650 0.06400
C 	C 	0.49890 0.79520 0.14880 0.07700
C 	C 	0.55590 0.81570 0.12600 -0.11700
I 	I 	0.33002 0.43813 0.07709 -0.38800
I 	I 	0.07865 0.52177 0.11487 -0.36300
I 	I 	0.30059 0.42485 0.87601 -0.37500
I 	I 	0.30629 0.49583 0.96478 -0.39000
I 	I 	0.33247 0.30588 0.81222 -0.36600
I 	I 	0.18598 0.16896 0.83332 -0.37300
I 	I 	0.66998 0.06187 0.57709 -0.38800
I 	I 	0.92135 0.97823 0.61487 -0.36200
I 	I 	0.69941 0.07515 0.37601 -0.37500
I 	I 	0.69371 0.00417 0.46478 -0.39000
I 	I 	0.66753 0.19412 0.31222 -0.36600
I 	I 	0.81402 0.33104 0.33332 -0.37400
I 	I 	0.83002 0.56187 0.42291 -0.38800
I 	I 	0.57865 0.47823 0.38513 -0.36300
I 	I 	0.80059 0.57515 0.62399 -0.37500
I 	I 	0.80629 0.50417 0.53522 -0.39000
I 	I 	0.83247 0.69412 0.68778 -0.36600
I 	I 	0.68598 0.83104 0.66668 -0.37400
I 	I 	0.16998 0.93813 0.92291 -0.38900
I 	I 	0.42135 0.02177 0.88513 -0.36200
I 	I 	0.19941 0.92485 0.12399 -0.37600
I 	I 	0.19371 0.99583 0.03522 -0.39000
I 	I 	0.16753 0.80588 0.18778 -0.36600
I 	I 	0.31402 0.66896 0.16668 -0.37400
N 	N 	0.09590 0.29420 0.85112 -0.27800
N 	N 	0.08770 0.44790 0.04310 -0.27000
N 	N 	0.51540 0.44660 0.92270 -0.28300
N 	N 	0.98980 0.38090 0.94372 -0.13800
N 	N 	0.84370 0.37020 0.91701 -0.13000
N 	N 	0.84640 0.41580 0.96187 -0.14400
N 	N 	0.08520 0.04240 0.10650 -0.27600
N 	N 	0.09900 0.39140 0.10276 -0.27300
N 	N 	0.90220 0.23430 0.28145 -0.27400
N 	N 	0.05040 0.21710 0.13432 -0.13800
N 	N 	0.01380 0.17750 0.18037 -0.13700
N 	N 	0.01460 0.26340 0.17787 -0.13900
N 	N 	0.90410 0.20580 0.35112 -0.27700
N 	N 	0.91230 0.05210 0.54310 -0.27100
N 	N 	0.48460 0.05340 0.42270 -0.28300
N 	N 	0.01020 0.11910 0.44372 -0.13800
N 	N 	0.15630 0.12980 0.41701 -0.13000
N 	N 	0.15360 0.08420 0.46187 -0.14400
N 	N 	0.91480 0.45760 0.60650 -0.27600
N 	N 	0.90100 0.10860 0.60276 -0.27300
N 	N 	0.09780 0.26570 0.78145 -0.27400
N 	N 	0.94960 0.28290 0.63432 -0.13900
N 	N 	0.98620 0.32250 0.68037 -0.13700
N 	N 	0.98540 0.23660 0.67787 -0.13900
N 	N 	0.59590 0.70580 0.64888 -0.27800
N 	N 	0.58770 0.55210 0.45690 -0.27000
N 	N 	0.01540 0.55340 0.57730 -0.28300
N 	N 	0.48980 0.61910 0.55628 -0.13800
N 	N 	0.34370 0.62980 0.58299 -0.13000
N 	N 	0.34640 0.58420 0.53813 -0.14400
N 	N 	0.58520 0.95760 0.39350 -0.27600
N 	N 	0.59900 0.60860 0.39724 -0.27300
N 	N 	0.40220 0.76570 0.21855 -0.27400
N 	N 	0.55040 0.78290 0.36568 -0.13800
N 	N 	0.51380 0.82250 0.31963 -0.13700
N 	N 	0.51460 0.73660 0.32213 -0.13900
N 	N 	0.40410 0.79420 0.14888 -0.27800
N 	N 	0.41230 0.94790 0.95690 -0.27000
N 	N 	0.98460 0.94660 0.07730 -0.28300
N 	N 	0.51020 0.88090 0.05628 -0.13800
N 	N 	0.65630 0.87020 0.08299 -0.13000
N 	N 	0.65360 0.91580 0.03813 -0.14400
N 	N 	0.41480 0.54240 0.89350 -0.27700
N 	N 	0.40100 0.89140 0.89724 -0.27300
N 	N 	0.59780 0.73430 0.71855 -0.27400
N 	N 	0.44960 0.71710 0.86568 -0.13900
N 	N 	0.48620 0.67750 0.81963 -0.13700
N 	N 	0.48540 0.76340 0.82213 -0.13900
Zn	Zn	0.84817 0.54587 0.91588 1.16500
Zn	Zn	0.61702 0.52245 0.08596 1.16400
Zn	Zn	0.82424 0.74146 0.18001 1.16500
Zn	Zn	0.15183 0.95413 0.41588 1.16500
Zn	Zn	0.38298 0.97755 0.58596 1.16400
Zn	Zn	0.17576 0.75854 0.68001 1.16500
Zn	Zn	0.34817 0.45413 0.58412 1.16500
Zn	Zn	0.11702 0.47755 0.41404 1.16400
Zn	Zn	0.32424 0.25854 0.31999 1.16500
Zn	Zn	0.65183 0.04587 0.08412 1.16500
Zn	Zn	0.88298 0.02245 0.91404 1.16400
Zn	Zn	0.67576 0.24146 0.81999 1.16500
H 	H 	0.96160 0.91330 0.82740 0.08300
H 	H 	0.93870 0.98510 0.85300 -0.00800
H 	H 	0.90260 0.91730 0.92850 -0.01700
H 	H 	0.92590 0.84330 0.90570 0.08700
H 	H 	0.98050 0.64870 0.83390 0.08000
H 	H 	0.94420 0.57810 0.86010 -0.00900
H 	H 	0.86720 0.65230 0.93040 -0.01300
H 	H 	0.89930 0.72610 0.90700 0.07900
H 	H 	0.05170 0.84580 0.76910 0.07900
H 	H 	0.11020 0.83830 0.72180 -0.00600
H 	H 	0.06470 0.69770 0.72280 -0.00400
H 	H 	0.01240 0.70110 0.77190 0.08100
H 	H 	0.30910 0.60450 0.11040 0.10800
H 	H 	0.46470 0.58030 0.11690 -0.01700
H 	H 	0.47640 0.53200 0.03540 -0.01200
H 	H 	0.32480 0.55910 0.02610 0.09900
H 	H 	0.12480 0.55120 0.98670 0.08900
H 	H 	0.04220 0.53140 0.94310 -0.01400
H 	H 	0.79650 0.57190 0.97980 0.00200
H 	H 	0.87460 0.59680 0.02310 0.07700
H 	H 	0.87360 0.64310 0.08850 0.08000
H 	H 	0.79120 0.68120 0.12650 -0.00500
H 	H 	0.03120 0.71890 0.16540 -0.01600
H 	H 	0.12410 0.68680 0.12630 0.08000
H 	H 	0.03840 0.58670 0.32740 0.08300
H 	H 	0.06130 0.51490 0.35300 -0.00800
H 	H 	0.09740 0.58270 0.42850 -0.01700
H 	H 	0.07410 0.65670 0.40570 0.08600
H 	H 	0.01950 0.85130 0.33390 0.08000
H 	H 	0.05580 0.92190 0.36010 -0.00900
H 	H 	0.13280 0.84770 0.43040 -0.01300
H 	H 	0.10070 0.77390 0.40700 0.07900
H 	H 	0.94830 0.65420 0.26910 0.07900
H 	H 	0.88980 0.66170 0.22180 -0.00600
H 	H 	0.93530 0.80230 0.22280 -0.00400
H 	H 	0.98760 0.79890 0.27190 0.08200
H 	H 	0.69090 0.89550 0.61040 0.10800
H 	H 	0.53530 0.91970 0.61690 -0.01700
H 	H 	0.52360 0.96800 0.53540 -0.01200
H 	H 	0.67520 0.94090 0.52610 0.09900
H 	H 	0.87520 0.94880 0.48670 0.08900
H 	H 	0.95780 0.96860 0.44310 -0.01400
H 	H 	0.20350 0.92810 0.47980 0.00200
H 	H 	0.12540 0.90320 0.52310 0.07700
H 	H 	0.12640 0.85690 0.58850 0.08000
H 	H 	0.20880 0.81880 0.62650 -0.00500
H 	H 	0.96880 0.78110 0.66540 -0.01400
H 	H 	0.87590 0.81320 0.62630 0.07900
H 	H 	0.46160 0.08670 0.67260 0.08300
H 	H 	0.43870 0.01490 0.64700 -0.00800
H 	H 	0.40260 0.08270 0.57150 -0.01700
H 	H 	0.42590 0.15670 0.59430 0.08700
H 	H 	0.48050 0.35130 0.66610 0.08000
H 	H 	0.44420 0.42190 0.63990 -0.00900
H 	H 	0.36720 0.34770 0.56960 -0.01300
H 	H 	0.39930 0.27390 0.59300 0.07900
H 	H 	0.55170 0.15420 0.73090 0.07900
H 	H 	0.61020 0.16170 0.77820 -0.00600
H 	H 	0.56470 0.30230 0.77720 -0.00400
H 	H 	0.51240 0.29890 0.72810 0.08200
H 	H 	0.80910 0.39550 0.38960 0.10800
H 	H 	0.96470 0.41970 0.38310 -0.01700
H 	H 	0.97640 0.46800 0.46460 -0.01200
H 	H 	0.82480 0.44090 0.47390 0.09900
H 	H 	0.62480 0.44880 0.51330 0.08900
H 	H 	0.54220 0.46860 0.55690 -0.01400
H 	H 	0.29650 0.42810 0.52020 0.00200
H 	H 	0.37460 0.40320 0.47690 0.07700
H 	H 	0.37360 0.35690 0.41150 0.08000
H 	H 	0.29120 0.31880 0.37350 -0.00500
H 	H 	0.53120 0.28110 0.33460 -0.01500
H 	H 	0.62410 0.31320 0.37370 0.08000
H 	H 	0.53840 0.41330 0.17260 0.08300
H 	H 	0.56130 0.48510 0.14700 -0.00800
H 	H 	0.59740 0.41730 0.07150 -0.01700
H 	H 	0.57410 0.34330 0.09430 0.08600
H 	H 	0.51950 0.14870 0.16610 0.08000
H 	H 	0.55580 0.07810 0.13990 -0.00900
H 	H 	0.63280 0.15230 0.06960 -0.01300
H 	H 	0.60070 0.22610 0.09300 0.07900
H 	H 	0.44830 0.34580 0.23090 0.07900
H 	H 	0.38980 0.33830 0.27820 -0.00600
H 	H 	0.43530 0.19770 0.27720 -0.00400
H 	H 	0.48760 0.20110 0.22810 0.08200
H 	H 	0.19090 0.10450 0.88960 0.10800
H 	H 	0.03530 0.08030 0.88310 -0.01600
H 	H 	0.02360 0.03200 0.96460 -0.01100
H 	H 	0.17520 0.05910 0.97390 0.09900
H 	H 	0.37520 0.05120 0.01330 0.08900
H 	H 	0.45780 0.03140 0.05690 -0.01400
H 	H 	0.70350 0.07190 0.02020 0.00200
H 	H 	0.62540 0.09680 0.97690 0.07700
H 	H 	0.62640 0.14310 0.91150 0.08000
H 	H 	0.70880 0.18120 0.87350 -0.00500
H 	H 	0.46880 0.21890 0.83460 -0.01500
H 	H 	0.37590 0.18680 0.87370 0.08000
C 	C 	0.96230 0.82220 0.84945 0.09700
C 	C 	0.94870 0.87020 0.86466 0.06500
C 	C 	0.95040 0.91330 0.84820 -0.12200
C 	C 	0.93500 0.95540 0.86370 0.06800
C 	C 	0.91410 0.91670 0.90770 0.09400
C 	C 	0.92920 0.87230 0.89430 -0.13100
C 	C 	0.96110 0.74070 0.85146 0.09900
C 	C 	0.94200 0.69480 0.86770 0.05300
C 	C 	0.95650 0.65040 0.85370 -0.11600
C 	C 	0.93450 0.60850 0.86960 0.06300
C 	C 	0.88970 0.65190 0.91045 0.06900
C 	C 	0.90870 0.69620 0.89679 -0.11800
C 	C 	0.99950 0.77800 0.80833 0.10500
C 	C 	0.02810 0.77530 0.77653 0.04900
C 	C 	0.05620 0.81450 0.76040 -0.11300
C 	C 	0.09060 0.81010 0.73220 0.05800
C 	C 	0.06550 0.72800 0.73280 0.07300
C 	C 	0.03210 0.72980 0.76197 -0.11400
C 	C 	0.19840 0.60140 0.06190 0.08100
C 	C 	0.30020 0.58770 0.06765 0.07500
C 	C 	0.34320 0.59100 0.09400 -0.16100
C 	C 	0.43520 0.57520 0.09800 0.10200
C 	C 	0.44200 0.54790 0.05084 0.09300
C 	C 	0.35260 0.56390 0.04520 -0.15200
C 	C 	0.06090 0.59470 0.03580 0.09900
C 	C 	0.00890 0.57840 0.00879 0.04900
C 	C 	0.05770 0.55730 0.98530 -0.11700
C 	C 	0.00790 0.54500 0.95940 0.06400
C 	C 	0.86460 0.56940 0.98090 0.05900
C 	C 	0.91030 0.58370 0.00690 -0.10900
C 	C 	0.06220 0.63570 0.07970 0.10500
C 	C 	0.00770 0.66020 0.10326 0.05700
C 	C 	0.90820 0.65940 0.10380 -0.10800
C 	C 	0.85950 0.68220 0.12650 0.06400
C 	C 	0.99890 0.70480 0.14880 0.07800
C 	C 	0.05590 0.68430 0.12600 -0.11800
C 	C 	0.03770 0.67780 0.34945 0.09600
C 	C 	0.05130 0.62980 0.36466 0.06400
C 	C 	0.04960 0.58670 0.34820 -0.12200
C 	C 	0.06500 0.54460 0.36370 0.06700
C 	C 	0.08590 0.58330 0.40770 0.09400
C 	C 	0.07080 0.62770 0.39430 -0.13100
C 	C 	0.03890 0.75930 0.35146 0.09900
C 	C 	0.05800 0.80520 0.36770 0.05200
C 	C 	0.04350 0.84960 0.35370 -0.11600
C 	C 	0.06550 0.89150 0.36960 0.06300
C 	C 	0.11030 0.84810 0.41045 0.06900
C 	C 	0.09130 0.80380 0.39679 -0.11800
C 	C 	0.00050 0.72200 0.30833 0.10400
C 	C 	0.97190 0.72470 0.27653 0.05000
C 	C 	0.94380 0.68550 0.26040 -0.11400
C 	C 	0.90940 0.68990 0.23220 0.05800
C 	C 	0.93450 0.77200 0.23280 0.07300
C 	C 	0.96790 0.77020 0.26197 -0.11500
C 	C 	0.80160 0.89860 0.56190 0.08100
C 	C 	0.69980 0.91230 0.56765 0.07500
C 	C 	0.65680 0.90900 0.59400 -0.16100
C 	C 	0.56480 0.92480 0.59800 0.10200
C 	C 	0.55800 0.95210 0.55084 0.09300
C 	C 	0.64740 0.93610 0.54520 -0.15200
C 	C 	0.93910 0.90530 0.53580 0.09800
C 	C 	0.99110 0.92160 0.50879 0.05100
C 	C 	0.94230 0.94270 0.48530 -0.11800
C 	C 	0.99210 0.95500 0.45940 0.06600
C 	C 	0.13540 0.93060 0.48090 0.06000
C 	C 	0.08970 0.91630 0.50690 -0.11100
C 	C 	0.93780 0.86430 0.57970 0.10500
C 	C 	0.99230 0.83980 0.60326 0.05800
C 	C 	0.09180 0.84060 0.60380 -0.10900
C 	C 	0.14050 0.81780 0.62650 0.06400
C 	C 	0.00110 0.79520 0.64880 0.07500
C 	C 	0.94410 0.81570 0.62600 -0.11600
C 	C 	0.46230 0.17780 0.65055 0.09600
C 	C 	0.44870 0.12980 0.63534 0.06400
C 	C 	0.45040 0.08670 0.65180 -0.12200
C 	C 	0.43500 0.04460 0.63630 0.06700
C 	C 	0.41410 0.08330 0.59230 0.09400
C 	C 	0.42920 0.12770 0.60570 -0.13100
C 	C 	0.46110 0.25930 0.64854 0.09900
C 	C 	0.44200 0.30520 0.63230 0.05300
C 	C 	0.45650 0.34960 0.64630 -0.11600
C 	C 	0.43450 0.39150 0.63040 0.06300
C 	C 	0.38970 0.34810 0.58955 0.06900
C 	C 	0.40870 0.30380 0.60321 -0.11800
C 	C 	0.49950 0.22200 0.69167 0.10500
C 	C 	0.52810 0.22470 0.72347 0.04900
C 	C 	0.55620 0.18550 0.73960 -0.11400
C 	C 	0.59060 0.18990 0.76780 0.05800
C 	C 	0.56550 0.27200 0.76720 0.07300
C 	C 	0.53210 0.27020 0.73803 -0.11500
C 	C 	0.69840 0.39860 0.43810 0.08100
C 	C 	0.80020 0.41230 0.43235 0.07500
C 	C 	0.84320 0.40900 0.40600 -0.16100
C 	C 	0.93520 0.42480 0.40200 0.10200
C 	C 	0.94200 0.45210 0.44916 0.09300
C 	C 	0.85260 0.43610 0.45480 -0.15200
C 	C 	0.56090 0.40530 0.46420 0.09800
C 	C 	0.50890 0.42160 0.49121 0.05000
C 	C 	0.55770 0.44270 0.51470 -0.11700
C 	C 	0.50790 0.45500 0.54060 0.06500
C 	C 	0.36460 0.43060 0.51910 0.05900
C 	C 	0.41030 0.41630 0.49310 -0.10900
C 	C 	0.56220 0.36430 0.42030 0.10500
C 	C 	0.50770 0.33980 0.39674 0.05800
C 	C 	0.40820 0.34060 0.39620 -0.10800
C 	C 	0.35950 0.31780 0.37350 0.06400
C 	C 	0.49890 0.29520 0.35120 0.07700
C 	C 	0.55590 0.31570 0.37400 -0.11700
C 	C 	0.53770 0.32220 0.15055 0.09600
C 	C 	0.55130 0.37020 0.13534 0.06400
C 	C 	0.54960 0.41330 0.15180 -0.12200
C 	C 	0.56500 0.45540 0.13630 0.06700
C 	C 	0.58590 0.41670 0.09230 0.09400
C 	C 	0.57080 0.37230 0.10570 -0.13100
C 	C 	0.53890 0.24070 0.14854 0.09900
C 	C 	0.55800 0.19480 0.13230 0.05300
C 	C 	0.54350 0.15040 0.14630 -0.11600
C 	C 	0.56550 0.10850 0.13040 0.06300
C 	C 	0.61030 0.15190 0.08955 0.06900
C 	C 	0.59130 0.19620 0.10321 -0.11800
C 	C 	0.50050 0.27800 0.19167 0.10500
C 	C 	0.47190 0.27530 0.22347 0.04900
C 	C 	0.44380 0.31450 0.23960 -0.11400
C 	C 	0.40940 0.31010 0.26780 0.05800
C 	C 	0.43450 0.22800 0.26720 0.07300
C 	C 	0.46790 0.22980 0.23803 -0.11500
C 	C 	0.30160 0.10140 0.93810 0.08100
C 	C 	0.19980 0.08770 0.93235 0.07500
C 	C 	0.15680 0.09100 0.90600 -0.16100
C 	C 	0.06480 0.07520 0.90200 0.10200
C 	C 	0.05800 0.04790 0.94916 0.09300
C 	C 	0.14740 0.06390 0.95480 -0.15100
C 	C 	0.43910 0.09470 0.96420 0.09800
C 	C 	0.49110 0.07840 0.99121 0.05000
C 	C 	0.44230 0.05730 0.01470 -0.11700
C 	C 	0.49210 0.04500 0.04060 0.06500
C 	C 	0.63540 0.06940 0.01910 0.05900
C 	C 	0.58970 0.08370 0.99310 -0.10900
C 	C 	0.43780 0.13570 0.92030 0.10500
C 	C 	0.49230 0.16020 0.89674 0.05800
C 	C 	0.59180 0.15940 0.89620 -0.10800
C 	C 	0.64050 0.18220 0.87350 0.06400
C 	C 	0.50110 0.20480 0.85120 0.07700
C 	C 	0.44410 0.18430 0.87400 -0.11700
I 	I 	0.66998 0.56187 0.92291 -0.38800
I 	I 	0.92135 0.47823 0.88513 -0.36300
I 	I 	0.69941 0.57515 0.12399 -0.37500
I 	I 	0.69371 0.50417 0.03522 -0.39000
I 	I 	0.66753 0.69412 0.18778 -0.36600
I 	I 	0.81402 0.83104 0.16668 -0.37300
I 	I 	0.33002 0.93813 0.42291 -0.38800
I 	I 	0.07865 0.02177 0.38513 -0.36200
I 	I 	0.30059 0.92485 0.62399 -0.37500
I 	I 	0.30629 0.99583 0.53522 -0.39000
I 	I 	0.33247 0.80588 0.68778 -0.36600
I 	I 	0.18598 0.66896 0.66668 -0.37400
I 	I 	0.16998 0.43813 0.57709 -0.38800
I 	I 	0.42135 0.52177 0.61487 -0.36300
I 	I 	0.19941 0.42485 0.37601 -0.37500
I 	I 	0.19371 0.49583 0.46478 -0.39000
I 	I 	0.16753 0.30588 0.31222 -0.36600
I 	I 	0.31402 0.16896 0.33332 -0.37400
I 	I 	0.83002 0.06187 0.07709 -0.38900
I 	I 	0.57865 0.97823 0.11487 -0.36200
I 	I 	0.80059 0.07515 0.87601 -0.37600
I 	I 	0.80629 0.00417 0.96478 -0.39000
I 	I 	0.83247 0.19412 0.81222 -0.36600
I 	I 	0.68598 0.33104 0.83332 -0.37400
N 	N 	0.90410 0.70580 0.14888 -0.27800
N 	N 	0.91230 0.55210 0.95690 -0.27000
N 	N 	0.48460 0.55340 0.07730 -0.28300
N 	N 	0.01020 0.61910 0.05628 -0.13800
N 	N 	0.15630 0.62980 0.08299 -0.13000
N 	N 	0.15360 0.58420 0.03813 -0.14400
N 	N 	0.91480 0.95760 0.89350 -0.27600
N 	N 	0.90100 0.60860 0.89724 -0.27300
N 	N 	0.09780 0.76570 0.71855 -0.27400
N 	N 	0.94960 0.78290 0.86568 -0.13800
N 	N 	0.98620 0.82250 0.81963 -0.13700
N 	N 	0.98540 0.73660 0.82213 -0.13900
N 	N 	0.09590 0.79420 0.64888 -0.27700
N 	N 	0.08770 0.94790 0.45690 -0.27100
N 	N 	0.51540 0.94660 0.57730 -0.28300
N 	N 	0.98980 0.88090 0.55628 -0.13800
N 	N 	0.84370 0.87020 0.58299 -0.13000
N 	N 	0.84640 0.91580 0.53813 -0.14400
N 	N 	0.08520 0.54240 0.39350 -0.27600
N 	N 	0.09900 0.89140 0.39724 -0.27300
N 	N 	0.90220 0.73430 0.21855 -0.27400
N 	N 	0.05040 0.71710 0.36568 -0.13900
N 	N 	0.01380 0.67750 0.31963 -0.13700
N 	N 	0.01460 0.76340 0.32213 -0.13900
N 	N 	0.40410 0.29420 0.35112 -0.27800
N 	N 	0.41230 0.44790 0.54310 -0.27000
N 	N 	0.98460 0.44660 0.42270 -0.28300
N 	N 	0.51020 0.38090 0.44372 -0.13800
N 	N 	0.65630 0.37020 0.41701 -0.13000
N 	N 	0.65360 0.41580 0.46187 -0.14400
N 	N 	0.41480 0.04240 0.60650 -0.27600
N 	N 	0.40100 0.39140 0.60276 -0.27300
N 	N 	0.59780 0.23430 0.78145 -0.27400
N 	N 	0.44960 0.21710 0.63432 -0.13800
N 	N 	0.48620 0.17750 0.68037 -0.13700
N 	N 	0.48540 0.26340 0.67787 -0.13900
N 	N 	0.59590 0.20580 0.85112 -0.27800
N 	N 	0.58770 0.05210 0.04310 -0.27000
N 	N 	0.01540 0.05340 0.92270 -0.28300
N 	N 	0.48980 0.11910 0.94372 -0.13800
N 	N 	0.34370 0.12980 0.91701 -0.13000
N 	N 	0.34640 0.08420 0.96187 -0.14400
N 	N 	0.58520 0.45760 0.10650 -0.27700
N 	N 	0.59900 0.10860 0.10276 -0.27300
N 	N 	0.40220 0.26570 0.28145 -0.27400
N 	N 	0.55040 0.28290 0.13432 -0.13900
N 	N 	0.51380 0.32250 0.18037 -0.13700
N 	N 	0.51460 0.23660 0.17787 -0.13900
