data_crystal

_cell_length_a 12.15380
_cell_length_b 12.15740
_cell_length_c 16.15360
_cell_angle_alpha 77.04500
_cell_angle_beta  82.55000
_cell_angle_gamma 83.52700

_symmetry_space_group_name_	'P 1'
_symmetry_space_group_name_H-M	'P 1'

loop_
_symmetry_equiv_pos_as_xyz
  x,y,z

loop_
_atom_site_label
_atom_site_type_symbol
_atom_site_fract_x
_atom_site_fract_y
_atom_site_fract_z
_atom_site_charge
N 	N 	0.11210 0.37910 0.59777 -0.25000
C 	C 	0.13530 0.26530 0.61340 0.07800
C 	C 	0.16150 0.40980 0.65670 0.09100
N 	N 	0.19440 0.22360 0.67730 -0.10900
N 	N 	0.21080 0.31920 0.70510 -0.12100
N 	N 	0.87210 0.98090 0.61930 -0.18200
C 	C 	0.81010 0.89350 0.65750 0.12300
C 	C 	0.83950 0.05830 0.66570 0.06100
H 	H 	0.86650 0.12920 0.65590 0.02200
N 	N 	0.74200 0.91240 0.72420 -0.07500
N 	N 	0.76240 0.01920 0.72834 -0.13200
C 	C 	0.71270 0.07040 0.79710 0.15900
C 	C 	0.67680 0.18530 0.77950 -0.10900
N 	N 	0.25270 0.46790 0.27615 -0.11800
C 	C 	0.54980 0.21600 0.00160 -0.00900
C 	C 	0.45210 0.28080 0.99220 -0.01900
N 	N 	0.14550 0.49740 0.38938 -0.25100
C 	C 	0.61200 0.16760 0.93040 -0.02900
C 	C 	0.15800 0.44330 0.32580 0.09200
H 	H 	0.10830 0.39530 0.31700 -0.04100
C 	C 	0.30050 0.42770 0.20120 0.10700
C 	C 	0.38990 0.29350 0.91660 -0.00100
C 	C 	0.59810 0.18080 0.08450 -0.00300
C 	C 	0.83980 0.05060 0.33580 0.10600
H 	H 	0.90090 0.05390 0.29440 0.01200
H 	H 	0.16200 0.47800 0.66000 -0.01300
O 	O 	0.08400 0.63150 0.54422 -0.49800
N 	N 	0.84550 0.02180 0.41897 -0.21400
O 	O 	0.01050 0.80880 0.50396 -0.53500
N 	N 	0.73420 0.07440 0.31942 -0.11700
C 	C 	0.75690 0.15180 0.16580 -0.12000
H 	H 	0.83220 0.15700 0.16790 0.09300
C 	C 	0.27490 0.40440 0.81170 -0.12000
H 	H 	0.23900 0.47390 0.78820 0.06500
N 	N 	0.66620 0.06550 0.39440 -0.09500
C 	C 	0.53250 0.13620 0.15950 -0.02000
H 	H 	0.45750 0.12970 0.15740 0.04200
C 	C 	0.68870 0.10950 0.23960 0.12100
C 	C 	0.45860 0.39840 0.10150 -0.02300
H 	H 	0.53240 0.40940 0.08060 0.04500
C 	C 	0.33250 0.39310 0.88130 -0.02600
H 	H 	0.33260 0.45570 0.90550 0.03600
C 	C 	0.23590 0.37470 0.15990 -0.11000
H 	H 	0.16080 0.36860 0.17870 0.04800
C 	C 	0.57660 0.10150 0.23640 -0.11900
H 	H 	0.53150 0.07290 0.28590 0.08300
C 	C 	0.32110 0.20620 0.81330 -0.11900
H 	H 	0.31550 0.14270 0.79140 0.07200
C 	C 	0.65910 0.05760 0.94510 0.05800
H 	H 	0.65780 0.01580 0.00100 0.00100
C 	C 	0.28450 0.33070 0.09040 -0.02800
H 	H 	0.24100 0.29560 0.06230 0.02700
C 	C 	0.07920 0.73620 0.53780 0.50900
H 	H 	0.13430 0.76240 0.56150 -0.15300
C 	C 	0.41150 0.44150 0.17140 -0.10900
H 	H 	0.45370 0.47940 0.19820 0.08200
N 	N 	0.30660 0.53890 0.30860 -0.09600
C 	C 	0.37970 0.19730 0.88270 -0.02400
H 	H 	0.41310 0.12710 0.90770 0.02900
C 	C 	0.27110 0.31020 0.77690 0.10800
C 	C 	0.62760 0.23380 0.84690 -0.00100
H 	H 	0.60470 0.31080 0.83680 0.04600
H 	H 	0.68300 0.23400 0.71800 0.07200
C 	C 	0.71090 0.18580 0.08940 -0.01600
H 	H 	0.75660 0.21290 0.03990 0.05300
C 	C 	0.70860 0.00750 0.87880 -0.24600
H 	H 	0.73840 0.93240 0.88970 0.16400
C 	C 	0.23850 0.55410 0.37620 0.08400
H 	H 	0.25300 0.59980 0.41190 0.00100
C 	C 	0.73700 0.03430 0.45140 0.09200
H 	H 	0.71480 0.02160 0.50980 -0.00800
H 	H 	0.81700 0.83100 0.64300 0.00600
H 	H 	0.11200 0.22100 0.58100 -0.03100
C 	C 	0.39740 0.33820 0.06160 0.00200
N 	N 	0.88790 0.62090 0.40223 -0.19900
C 	C 	0.86470 0.73470 0.38660 0.10600
C 	C 	0.83850 0.59020 0.34330 0.12500
N 	N 	0.80560 0.77640 0.32270 -0.07500
N 	N 	0.78920 0.68080 0.29490 -0.11500
N 	N 	0.12790 0.01910 0.38070 -0.29700
C 	C 	0.18990 0.10650 0.34250 0.07800
C 	C 	0.16050 0.94170 0.33430 0.13900
H 	H 	0.13350 0.87080 0.34410 -0.03700
N 	N 	0.25800 0.08760 0.27580 -0.11700
N 	N 	0.23760 0.98080 0.27166 -0.09300
C 	C 	0.28730 0.92960 0.20290 0.03300
C 	C 	0.32320 0.81470 0.22050 -0.02600
N 	N 	0.74730 0.53210 0.72385 -0.11400
C 	C 	0.45020 0.78400 0.99840 -0.04300
C 	C 	0.54790 0.71920 0.00780 -0.00100
N 	N 	0.85450 0.50260 0.61062 -0.20500
C 	C 	0.38800 0.83240 0.06960 0.07100
C 	C 	0.84200 0.55670 0.67420 0.11400
H 	H 	0.89170 0.60470 0.68300 0.02200
C 	C 	0.69950 0.57230 0.79880 0.13200
C 	C 	0.61010 0.70650 0.08340 -0.01100
C 	C 	0.40190 0.81920 0.91550 0.01800
C 	C 	0.16020 0.94940 0.66420 0.11200
H 	H 	0.09910 0.94610 0.70560 -0.03500
H 	H 	0.83800 0.52200 0.34000 0.00400
O 	O 	0.91600 0.36850 0.45578 -0.40500
N 	N 	0.15450 0.97820 0.58103 -0.23500
O 	O 	0.98950 0.19120 0.49604 -0.39800
N 	N 	0.26580 0.92560 0.68058 -0.11500
C 	C 	0.24310 0.84820 0.83420 -0.10700
H 	H 	0.16780 0.84300 0.83210 0.05400
C 	C 	0.72510 0.59560 0.18830 -0.12700
H 	H 	0.76100 0.52610 0.21180 0.09300
N 	N 	0.33380 0.93450 0.60560 -0.08400
C 	C 	0.46750 0.86380 0.84050 -0.02700
H 	H 	0.54250 0.87030 0.84260 0.06100
C 	C 	0.31130 0.89050 0.76040 0.11700
C 	C 	0.54140 0.60160 0.89850 -0.00800
H 	H 	0.46760 0.59060 0.91940 0.03700
C 	C 	0.66750 0.60690 0.11870 -0.00000
H 	H 	0.66740 0.54430 0.09450 0.03900
C 	C 	0.76410 0.62530 0.84010 -0.12000
H 	H 	0.83920 0.63140 0.82130 0.10000
C 	C 	0.42340 0.89850 0.76360 -0.10100
H 	H 	0.46850 0.92710 0.71410 0.09700
C 	C 	0.67890 0.79380 0.18670 -0.12300
H 	H 	0.68450 0.85730 0.20860 0.10900
C 	C 	0.34090 0.94240 0.05490 -0.13900
H 	H 	0.34220 0.98420 0.99900 0.09400
C 	C 	0.71550 0.66930 0.90960 -0.00700
H 	H 	0.75900 0.70440 0.93770 0.05100
C 	C 	0.92080 0.26380 0.46220 0.48300
H 	H 	0.86570 0.23760 0.43850 -0.12400
C 	C 	0.58850 0.55850 0.82860 -0.12100
H 	H 	0.54630 0.52060 0.80180 0.08800
N 	N 	0.69340 0.46110 0.69140 -0.09200
C 	C 	0.62030 0.80270 0.11730 0.00100
H 	H 	0.58690 0.87290 0.09230 0.05000
C 	C 	0.72890 0.68980 0.22310 0.14500
C 	C 	0.37240 0.76620 0.15310 -0.09600
H 	H 	0.39530 0.68920 0.16320 0.07300
H 	H 	0.31700 0.76600 0.28200 0.04600
C 	C 	0.28910 0.81420 0.91060 -0.03500
H 	H 	0.24340 0.78710 0.96010 0.03500
C 	C 	0.29140 0.99250 0.12120 0.06300
H 	H 	0.26160 0.06760 0.11030 -0.02500
C 	C 	0.76150 0.44590 0.62380 0.09700
H 	H 	0.74700 0.40020 0.58810 0.00400
C 	C 	0.26300 0.96570 0.54860 0.10200
H 	H 	0.28520 0.97840 0.49020 0.01200
H 	H 	0.18300 0.16900 0.35700 -0.02300
H 	H 	0.88800 0.77900 0.41900 0.04900
C 	C 	0.60260 0.66180 0.93840 -0.00600
Cd	Cd	-0.00000 0.50000 0.50000 1.17600
Cd	Cd	-0.00000 0.00000 0.50000 1.15600
