data_crystal

_cell_length_a 27.54470
_cell_length_b 32.73100
_cell_length_c 44.20800
_cell_angle_alpha 90.00000
_cell_angle_beta  90.00000
_cell_angle_gamma 90.00000

_symmetry_space_group_name_	'P 1'
_symmetry_space_group_name_H-M	'P 1'

loop_
_symmetry_equiv_pos_as_xyz
  x,y,z

loop_
_atom_site_label
_atom_site_type_symbol
_atom_site_fract_x
_atom_site_fract_y
_atom_site_fract_z
_atom_site_charge
Zn	Zn	0.03068 0.19288 0.10933 1.17800
N 	N 	0.02104 0.19666 0.06311 -0.27600
N 	N 	0.97556 0.15070 0.11082 -0.27400
N 	N 	0.02586 0.19898 0.15586 -0.27600
N 	N 	0.07063 0.24599 0.10826 -0.29000
C 	C 	0.04727 0.22098 0.04382 0.09100
C 	C 	0.03587 0.20985 0.01309 -0.06800
H 	H 	0.04860 0.22230 0.99540 0.05700
C 	C 	0.00465 0.17930 0.01386 -0.07600
H 	H 	0.99120 0.16540 0.99690 0.06000
C 	C 	0.99490 0.17099 0.04531 0.10100
C 	C 	0.96369 0.13997 0.05610 -0.12000
C 	C 	0.95429 0.13070 0.08660 0.09700
C 	C 	0.92274 0.09932 0.09696 -0.07300
H 	H 	0.90370 0.08140 0.08490 0.05800
C 	C 	0.92530 0.10020 0.12775 -0.08000
H 	H 	0.90820 0.08280 0.14130 0.06200
C 	C 	0.95785 0.13154 0.13589 0.10400
C 	C 	0.97090 0.14168 0.16571 -0.12600
C 	C 	0.00179 0.17384 0.17483 0.10400
C 	C 	0.01261 0.18451 0.20548 -0.08200
H 	H 	0.00030 0.17150 0.22310 0.05700
C 	C 	0.04331 0.21626 0.20483 -0.06600
H 	H 	0.05630 0.23010 0.22190 0.05200
C 	C 	0.05294 0.22550 0.17347 0.08800
C 	C 	0.08372 0.25585 0.16266 -0.12000
C 	C 	0.09288 0.26556 0.13199 0.08200
C 	C 	0.12543 0.29550 0.12134 -0.07500
H 	H 	0.14470 0.31320 0.13350 0.06100
C 	C 	0.12444 0.29465 0.09097 -0.07100
H 	H 	0.14270 0.31150 0.07770 0.05900
C 	C 	0.09097 0.26394 0.08255 0.07700
C 	C 	0.07935 0.25181 0.05281 -0.12100
C 	C 	0.94054 0.11496 0.03385 0.05800
C 	C 	0.92214 0.09518 0.01470 -0.08600
C 	C 	0.89962 0.07253 0.99060 0.11300
C 	C 	0.91038 0.08157 0.96033 -0.15300
H 	H 	0.93390 0.10180 0.95550 0.08600
C 	C 	0.88659 0.06090 0.93764 0.08800
H 	H 	0.89290 0.06800 0.91720 0.01500
C 	C 	0.85426 0.03065 0.94374 -0.15000
C 	C 	0.84442 0.02047 0.97367 0.08200
H 	H 	0.82220 0.99900 0.97790 0.02100
C 	C 	0.86587 0.04060 0.99693 -0.15100
H 	H 	0.85850 0.03350 0.01730 0.08300
C 	C 	0.82814 0.00820 0.91877 0.40500
O 	O 	0.83458 0.02217 0.89229 -0.51800
O 	O 	0.80177 0.97880 0.92563 -0.50000
C 	C 	0.95098 0.11689 0.18935 0.06000
C 	C 	0.93564 0.09604 0.20901 -0.08900
C 	C 	0.91479 0.07179 0.23261 0.11500
C 	C 	0.87980 0.04435 0.22682 -0.14200
H 	H 	0.87040 0.03950 0.20650 0.08400
C 	C 	0.85730 0.02292 0.24991 0.05700
H 	H 	0.83200 0.00410 0.24550 0.03900
C 	C 	0.87220 0.02930 0.27978 -0.10400
C 	C 	0.90950 0.05583 0.28534 0.05900
H 	H 	0.92050 0.05940 0.30550 0.03000
C 	C 	0.93132 0.07727 0.26257 -0.14000
H 	H 	0.95720 0.09560 0.26680 0.08000
C 	C 	0.84597 0.00908 0.30565 0.32100
O 	O 	0.80585 0.99057 0.30083 -0.38700
O 	O 	0.86343 0.01194 0.33142 -0.41100
C 	C 	0.10994 0.28040 0.18490 0.05900
C 	C 	0.13205 0.30070 0.20245 -0.09400
C 	C 	0.15714 0.32681 0.22249 0.13200
C 	C 	0.14620 0.32883 0.25219 -0.16100
H 	H 	0.12150 0.31160 0.26010 0.08700
C 	C 	0.17030 0.35565 0.27156 0.07700
H 	H 	0.16210 0.35630 0.29240 0.02100
C 	C 	0.20520 0.38060 0.26086 -0.12700
C 	C 	0.21530 0.37966 0.22963 0.07700
H 	H 	0.23830 0.39820 0.22130 0.02700
C 	C 	0.19270 0.35270 0.21142 -0.16000
H 	H 	0.20130 0.35140 0.19060 0.08700
C 	C 	0.23020 0.41041 0.28157 0.35500
O 	O 	0.21954 0.41101 0.30845 -0.28100
O 	O 	0.25816 0.43822 0.26712 -0.44100
H 	H 	0.27620 0.45000 0.27970 0.28400
C 	C 	0.10347 0.27327 0.02913 0.06200
C 	C 	0.12319 0.29095 0.00873 -0.09300
C 	C 	0.14509 0.31267 0.98443 0.13000
C 	C 	0.17732 0.34287 0.99013 -0.16600
H 	H 	0.18590 0.34910 0.01040 0.09000
C 	C 	0.19781 0.36470 0.96678 0.08300
H 	H 	0.22000 0.38620 0.97100 0.02200
C 	C 	0.18607 0.35535 0.93747 -0.13900
C 	C 	0.15420 0.32482 0.93144 0.08100
H 	H 	0.14620 0.31850 0.91110 0.01700
C 	C 	0.13352 0.30317 0.95451 -0.16300
H 	H 	0.11130 0.28170 0.95020 0.08600
C 	C 	0.20836 0.38018 0.91217 0.36200
O 	O 	0.23386 0.41015 0.92075 -0.47200
O 	O 	0.20072 0.37012 0.88545 -0.30900
N 	N 	0.09138 0.15003 0.10887 -0.21100
N 	N 	0.16353 0.09977 0.10708 -0.22400
Zn	Zn	0.77891 0.93928 0.89590 1.21300
Zn	Zn	0.80411 0.01821 0.85104 1.20200
O 	O 	0.76523 0.96140 0.85657 -0.66400
C 	C 	0.11160 0.14688 0.07781 -0.00100
C 	C 	0.07970 0.11160 0.12660 0.00400
C 	C 	0.13030 0.16336 0.12885 0.00600
C 	C 	0.14840 0.10910 0.07646 0.02700
C 	C 	0.17990 0.13810 0.12419 -0.02100
C 	C 	0.12260 0.08280 0.12560 0.01100
C 	C 	0.11690 0.07590 0.10320 -0.01200
C 	C 	0.16990 0.12900 0.08000 -0.02300
C 	C 	0.16230 0.11980 0.13570 0.03700
C 	C 	0.07270 0.10570 0.11100 -0.00600
Zn	Zn	0.53068 0.69288 0.10933 1.17700
N 	N 	0.52104 0.69666 0.06311 -0.27700
N 	N 	0.47556 0.65070 0.11082 -0.27500
N 	N 	0.52586 0.69898 0.15586 -0.27700
N 	N 	0.57063 0.74599 0.10826 -0.29100
C 	C 	0.54727 0.72098 0.04382 0.09000
C 	C 	0.53587 0.70985 0.01309 -0.06900
H 	H 	0.54860 0.72230 0.99540 0.05600
C 	C 	0.50465 0.67930 0.01386 -0.07700
H 	H 	0.49120 0.66540 0.99690 0.05900
C 	C 	0.49490 0.67099 0.04531 0.10000
C 	C 	0.46369 0.63997 0.05610 -0.12100
C 	C 	0.45429 0.63070 0.08660 0.09600
C 	C 	0.42274 0.59932 0.09696 -0.07400
H 	H 	0.40370 0.58140 0.08490 0.05700
C 	C 	0.42530 0.60020 0.12775 -0.08100
H 	H 	0.40820 0.58280 0.14130 0.06100
C 	C 	0.45785 0.63154 0.13589 0.10300
C 	C 	0.47090 0.64168 0.16571 -0.12700
C 	C 	0.50179 0.67384 0.17483 0.10300
C 	C 	0.51261 0.68451 0.20548 -0.08300
H 	H 	0.50030 0.67150 0.22310 0.05600
C 	C 	0.54331 0.71626 0.20483 -0.06700
H 	H 	0.55630 0.73010 0.22190 0.05100
C 	C 	0.55294 0.72550 0.17347 0.08700
C 	C 	0.58372 0.75585 0.16266 -0.12100
C 	C 	0.59288 0.76556 0.13199 0.08100
C 	C 	0.62543 0.79550 0.12134 -0.07600
H 	H 	0.64470 0.81320 0.13350 0.06000
C 	C 	0.62444 0.79465 0.09097 -0.07200
H 	H 	0.64270 0.81150 0.07770 0.05800
C 	C 	0.59097 0.76394 0.08255 0.07600
C 	C 	0.57935 0.75181 0.05281 -0.12100
C 	C 	0.44054 0.61496 0.03385 0.05800
C 	C 	0.42214 0.59518 0.01470 -0.08600
C 	C 	0.39962 0.57253 0.99060 0.11300
C 	C 	0.41038 0.58157 0.96033 -0.15300
H 	H 	0.43390 0.60180 0.95550 0.08600
C 	C 	0.38659 0.56090 0.93764 0.08800
H 	H 	0.39290 0.56800 0.91720 0.01500
C 	C 	0.35426 0.53065 0.94374 -0.15000
C 	C 	0.34442 0.52047 0.97367 0.08200
H 	H 	0.32220 0.49900 0.97790 0.02100
C 	C 	0.36587 0.54060 0.99693 -0.15100
H 	H 	0.35850 0.53350 0.01730 0.08300
C 	C 	0.32814 0.50820 0.91877 0.40500
O 	O 	0.33458 0.52217 0.89229 -0.51800
O 	O 	0.30177 0.47880 0.92563 -0.50000
C 	C 	0.45098 0.61689 0.18935 0.06000
C 	C 	0.43564 0.59604 0.20901 -0.08900
C 	C 	0.41479 0.57179 0.23261 0.11500
C 	C 	0.37980 0.54435 0.22682 -0.14200
H 	H 	0.37040 0.53950 0.20650 0.08400
C 	C 	0.35730 0.52292 0.24991 0.05700
H 	H 	0.33200 0.50410 0.24550 0.03900
C 	C 	0.37220 0.52930 0.27978 -0.10400
C 	C 	0.40950 0.55583 0.28534 0.05900
H 	H 	0.42050 0.55940 0.30550 0.03000
C 	C 	0.43132 0.57727 0.26257 -0.14000
H 	H 	0.45720 0.59560 0.26680 0.08000
C 	C 	0.34597 0.50908 0.30565 0.32100
O 	O 	0.30585 0.49057 0.30083 -0.38700
O 	O 	0.36343 0.51194 0.33142 -0.41100
C 	C 	0.60994 0.78040 0.18490 0.05900
C 	C 	0.63205 0.80070 0.20245 -0.09400
C 	C 	0.65714 0.82681 0.22249 0.13200
C 	C 	0.64620 0.82883 0.25219 -0.16100
H 	H 	0.62150 0.81160 0.26010 0.08700
C 	C 	0.67030 0.85565 0.27156 0.07700
H 	H 	0.66210 0.85630 0.29240 0.02100
C 	C 	0.70520 0.88060 0.26086 -0.12700
C 	C 	0.71530 0.87966 0.22963 0.07700
H 	H 	0.73830 0.89820 0.22130 0.02700
C 	C 	0.69270 0.85270 0.21142 -0.16000
H 	H 	0.70130 0.85140 0.19060 0.08700
C 	C 	0.73020 0.91041 0.28157 0.35500
O 	O 	0.71954 0.91101 0.30845 -0.28100
O 	O 	0.75816 0.93822 0.26712 -0.44100
H 	H 	0.77620 0.95000 0.27970 0.28400
C 	C 	0.60347 0.77327 0.02913 0.06200
C 	C 	0.62319 0.79095 0.00873 -0.09300
C 	C 	0.64509 0.81267 0.98443 0.13000
C 	C 	0.67732 0.84287 0.99013 -0.16600
H 	H 	0.68590 0.84910 0.01040 0.09000
C 	C 	0.69781 0.86470 0.96678 0.08300
H 	H 	0.72000 0.88620 0.97100 0.02200
C 	C 	0.68607 0.85535 0.93747 -0.13900
C 	C 	0.65420 0.82482 0.93144 0.08100
H 	H 	0.64620 0.81850 0.91110 0.01700
C 	C 	0.63352 0.80317 0.95451 -0.16300
H 	H 	0.61130 0.78170 0.95020 0.08600
C 	C 	0.70836 0.88018 0.91217 0.36200
O 	O 	0.73386 0.91015 0.92075 -0.47200
O 	O 	0.70072 0.87012 0.88545 -0.30900
N 	N 	0.59138 0.65003 0.10887 -0.21100
N 	N 	0.66353 0.59977 0.10708 -0.22400
Zn	Zn	0.27891 0.43928 0.89590 1.21300
Zn	Zn	0.30411 0.51821 0.85104 1.20200
O 	O 	0.26523 0.46140 0.85657 -0.66400
C 	C 	0.61160 0.64688 0.07781 -0.00100
C 	C 	0.57970 0.61160 0.12660 0.00400
C 	C 	0.63030 0.66336 0.12885 0.00600
C 	C 	0.64840 0.60910 0.07646 0.02700
C 	C 	0.67990 0.63810 0.12419 -0.02100
C 	C 	0.62260 0.58280 0.12560 0.01100
C 	C 	0.61690 0.57590 0.10320 -0.01200
C 	C 	0.66990 0.62900 0.08000 -0.02300
C 	C 	0.66230 0.61980 0.13570 0.03700
C 	C 	0.57270 0.60570 0.11100 -0.00600
Zn	Zn	0.46932 0.80712 0.10933 1.17700
N 	N 	0.47896 0.80334 0.06311 -0.27700
N 	N 	0.52444 0.84930 0.11082 -0.27500
N 	N 	0.47414 0.80102 0.15586 -0.27700
N 	N 	0.42937 0.75401 0.10826 -0.29100
C 	C 	0.45273 0.77902 0.04382 0.09000
C 	C 	0.46413 0.79015 0.01309 -0.06900
H 	H 	0.45140 0.77770 0.99540 0.05600
C 	C 	0.49535 0.82070 0.01386 -0.07700
H 	H 	0.50880 0.83460 0.99690 0.05900
C 	C 	0.50510 0.82901 0.04531 0.10000
C 	C 	0.53631 0.86003 0.05610 -0.12100
C 	C 	0.54571 0.86930 0.08660 0.09600
C 	C 	0.57726 0.90068 0.09696 -0.07400
H 	H 	0.59630 0.91860 0.08490 0.05700
C 	C 	0.57470 0.89980 0.12775 -0.08100
H 	H 	0.59180 0.91720 0.14130 0.06100
C 	C 	0.54215 0.86846 0.13589 0.10300
C 	C 	0.52910 0.85832 0.16571 -0.12700
C 	C 	0.49821 0.82616 0.17483 0.10300
C 	C 	0.48739 0.81549 0.20548 -0.08300
H 	H 	0.49970 0.82850 0.22310 0.05600
C 	C 	0.45669 0.78374 0.20483 -0.06700
H 	H 	0.44370 0.76990 0.22190 0.05100
C 	C 	0.44706 0.77450 0.17347 0.08700
C 	C 	0.41628 0.74415 0.16266 -0.12100
C 	C 	0.40712 0.73444 0.13199 0.08100
C 	C 	0.37457 0.70450 0.12134 -0.07600
H 	H 	0.35530 0.68680 0.13350 0.06000
C 	C 	0.37556 0.70535 0.09097 -0.07200
H 	H 	0.35730 0.68850 0.07770 0.05800
C 	C 	0.40903 0.73606 0.08255 0.07600
C 	C 	0.42065 0.74819 0.05281 -0.12100
C 	C 	0.55946 0.88504 0.03385 0.05800
C 	C 	0.57786 0.90482 0.01470 -0.08600
C 	C 	0.60038 0.92747 0.99060 0.11300
C 	C 	0.58962 0.91843 0.96033 -0.15300
H 	H 	0.56610 0.89820 0.95550 0.08600
C 	C 	0.61341 0.93910 0.93764 0.08800
H 	H 	0.60710 0.93200 0.91720 0.01500
C 	C 	0.64574 0.96935 0.94374 -0.15000
C 	C 	0.65558 0.97953 0.97367 0.08200
H 	H 	0.67780 0.00100 0.97790 0.02100
C 	C 	0.63413 0.95940 0.99693 -0.15100
H 	H 	0.64150 0.96650 0.01730 0.08300
C 	C 	0.67186 0.99180 0.91877 0.40500
O 	O 	0.66542 0.97783 0.89229 -0.51800
O 	O 	0.69823 0.02120 0.92563 -0.50000
C 	C 	0.54902 0.88311 0.18935 0.06000
C 	C 	0.56436 0.90396 0.20901 -0.08900
C 	C 	0.58521 0.92821 0.23261 0.11500
C 	C 	0.62020 0.95565 0.22682 -0.14200
H 	H 	0.62960 0.96050 0.20650 0.08400
C 	C 	0.64270 0.97708 0.24991 0.05700
H 	H 	0.66800 0.99590 0.24550 0.03900
C 	C 	0.62780 0.97070 0.27978 -0.10400
C 	C 	0.59050 0.94417 0.28534 0.05900
H 	H 	0.57950 0.94060 0.30550 0.03000
C 	C 	0.56868 0.92273 0.26257 -0.14000
H 	H 	0.54280 0.90440 0.26680 0.08000
C 	C 	0.65403 0.99092 0.30565 0.32100
O 	O 	0.69415 0.00943 0.30083 -0.38700
O 	O 	0.63657 0.98806 0.33142 -0.41100
C 	C 	0.39006 0.71960 0.18490 0.05900
C 	C 	0.36795 0.69930 0.20245 -0.09400
C 	C 	0.34286 0.67319 0.22249 0.13200
C 	C 	0.35380 0.67117 0.25219 -0.16100
H 	H 	0.37850 0.68840 0.26010 0.08700
C 	C 	0.32970 0.64435 0.27156 0.07700
H 	H 	0.33790 0.64370 0.29240 0.02100
C 	C 	0.29480 0.61940 0.26086 -0.12700
C 	C 	0.28470 0.62034 0.22963 0.07700
H 	H 	0.26170 0.60180 0.22130 0.02700
C 	C 	0.30730 0.64730 0.21142 -0.16000
H 	H 	0.29870 0.64860 0.19060 0.08700
C 	C 	0.26980 0.58959 0.28157 0.35500
O 	O 	0.28046 0.58899 0.30845 -0.28100
O 	O 	0.24184 0.56178 0.26712 -0.44100
H 	H 	0.22380 0.55000 0.27970 0.28400
C 	C 	0.39653 0.72673 0.02913 0.06200
C 	C 	0.37681 0.70905 0.00873 -0.09300
C 	C 	0.35491 0.68733 0.98443 0.13000
C 	C 	0.32268 0.65713 0.99013 -0.16600
H 	H 	0.31410 0.65090 0.01040 0.09000
C 	C 	0.30219 0.63530 0.96678 0.08300
H 	H 	0.28000 0.61380 0.97100 0.02200
C 	C 	0.31393 0.64465 0.93747 -0.13900
C 	C 	0.34580 0.67518 0.93144 0.08100
H 	H 	0.35380 0.68150 0.91110 0.01700
C 	C 	0.36648 0.69683 0.95451 -0.16300
H 	H 	0.38870 0.71830 0.95020 0.08600
C 	C 	0.29164 0.61982 0.91217 0.36200
O 	O 	0.26614 0.58985 0.92075 -0.47200
O 	O 	0.29928 0.62988 0.88545 -0.30900
N 	N 	0.40862 0.84997 0.10887 -0.21100
N 	N 	0.33647 0.90023 0.10708 -0.22400
Zn	Zn	0.72109 0.06072 0.89590 1.21300
Zn	Zn	0.69589 0.98179 0.85104 1.20200
O 	O 	0.73477 0.03860 0.85657 -0.66400
C 	C 	0.38840 0.85312 0.07781 -0.00100
C 	C 	0.42030 0.88840 0.12660 0.00400
C 	C 	0.36970 0.83664 0.12885 0.00600
C 	C 	0.35160 0.89090 0.07646 0.02700
C 	C 	0.32010 0.86190 0.12419 -0.02100
C 	C 	0.37740 0.91720 0.12560 0.01100
C 	C 	0.38310 0.92410 0.10320 -0.01200
C 	C 	0.33010 0.87100 0.08000 -0.02300
C 	C 	0.33770 0.88020 0.13570 0.03700
C 	C 	0.42730 0.89430 0.11100 -0.00600
Zn	Zn	0.96932 0.30712 0.10933 1.17700
N 	N 	0.97896 0.30334 0.06311 -0.27700
N 	N 	0.02444 0.34930 0.11082 -0.27500
N 	N 	0.97414 0.30102 0.15586 -0.27700
N 	N 	0.92937 0.25401 0.10826 -0.29100
C 	C 	0.95273 0.27902 0.04382 0.09000
C 	C 	0.96413 0.29015 0.01309 -0.06900
H 	H 	0.95140 0.27770 0.99540 0.05600
C 	C 	0.99535 0.32070 0.01386 -0.07700
H 	H 	0.00880 0.33460 0.99690 0.05900
C 	C 	0.00510 0.32901 0.04531 0.10000
C 	C 	0.03631 0.36003 0.05610 -0.12100
C 	C 	0.04571 0.36930 0.08660 0.09600
C 	C 	0.07726 0.40068 0.09696 -0.07400
H 	H 	0.09630 0.41860 0.08490 0.05700
C 	C 	0.07470 0.39980 0.12775 -0.08100
H 	H 	0.09180 0.41720 0.14130 0.06100
C 	C 	0.04215 0.36846 0.13589 0.10300
C 	C 	0.02910 0.35832 0.16571 -0.12700
C 	C 	0.99821 0.32616 0.17483 0.10300
C 	C 	0.98739 0.31549 0.20548 -0.08300
H 	H 	0.99970 0.32850 0.22310 0.05600
C 	C 	0.95669 0.28374 0.20483 -0.06700
H 	H 	0.94370 0.26990 0.22190 0.05100
C 	C 	0.94706 0.27450 0.17347 0.08700
C 	C 	0.91628 0.24415 0.16266 -0.12100
C 	C 	0.90712 0.23444 0.13199 0.08100
C 	C 	0.87457 0.20450 0.12134 -0.07600
H 	H 	0.85530 0.18680 0.13350 0.06000
C 	C 	0.87556 0.20535 0.09097 -0.07200
H 	H 	0.85730 0.18850 0.07770 0.05800
C 	C 	0.90903 0.23606 0.08255 0.07600
C 	C 	0.92065 0.24819 0.05281 -0.12100
C 	C 	0.05946 0.38504 0.03385 0.05800
C 	C 	0.07786 0.40482 0.01470 -0.08600
C 	C 	0.10038 0.42747 0.99060 0.11300
C 	C 	0.08962 0.41843 0.96033 -0.15300
H 	H 	0.06610 0.39820 0.95550 0.08600
C 	C 	0.11341 0.43910 0.93764 0.08800
H 	H 	0.10710 0.43200 0.91720 0.01500
C 	C 	0.14574 0.46935 0.94374 -0.15000
C 	C 	0.15558 0.47953 0.97367 0.08200
H 	H 	0.17780 0.50100 0.97790 0.02100
C 	C 	0.13413 0.45940 0.99693 -0.15100
H 	H 	0.14150 0.46650 0.01730 0.08300
C 	C 	0.17186 0.49180 0.91877 0.40500
O 	O 	0.16542 0.47783 0.89229 -0.51800
O 	O 	0.19823 0.52120 0.92563 -0.50000
C 	C 	0.04902 0.38311 0.18935 0.06000
C 	C 	0.06436 0.40396 0.20901 -0.08900
C 	C 	0.08521 0.42821 0.23261 0.11500
C 	C 	0.12020 0.45565 0.22682 -0.14200
H 	H 	0.12960 0.46050 0.20650 0.08400
C 	C 	0.14270 0.47708 0.24991 0.05700
H 	H 	0.16800 0.49590 0.24550 0.03900
C 	C 	0.12780 0.47070 0.27978 -0.10400
C 	C 	0.09050 0.44417 0.28534 0.05900
H 	H 	0.07950 0.44060 0.30550 0.03000
C 	C 	0.06868 0.42273 0.26257 -0.14000
H 	H 	0.04280 0.40440 0.26680 0.08000
C 	C 	0.15403 0.49092 0.30565 0.32100
O 	O 	0.19415 0.50943 0.30083 -0.38700
O 	O 	0.13657 0.48806 0.33142 -0.41100
C 	C 	0.89006 0.21960 0.18490 0.05900
C 	C 	0.86795 0.19930 0.20245 -0.09400
C 	C 	0.84286 0.17319 0.22249 0.13200
C 	C 	0.85380 0.17117 0.25219 -0.16100
H 	H 	0.87850 0.18840 0.26010 0.08700
C 	C 	0.82970 0.14435 0.27156 0.07700
H 	H 	0.83790 0.14370 0.29240 0.02100
C 	C 	0.79480 0.11940 0.26086 -0.12700
C 	C 	0.78470 0.12034 0.22963 0.07700
H 	H 	0.76170 0.10180 0.22130 0.02700
C 	C 	0.80730 0.14730 0.21142 -0.16000
H 	H 	0.79870 0.14860 0.19060 0.08700
C 	C 	0.76980 0.08959 0.28157 0.35500
O 	O 	0.78046 0.08899 0.30845 -0.28100
O 	O 	0.74184 0.06178 0.26712 -0.44100
H 	H 	0.72380 0.05000 0.27970 0.28400
C 	C 	0.89653 0.22673 0.02913 0.06200
C 	C 	0.87681 0.20905 0.00873 -0.09300
C 	C 	0.85491 0.18733 0.98443 0.13000
C 	C 	0.82268 0.15713 0.99013 -0.16600
H 	H 	0.81410 0.15090 0.01040 0.09000
C 	C 	0.80219 0.13530 0.96678 0.08300
H 	H 	0.78000 0.11380 0.97100 0.02200
C 	C 	0.81393 0.14465 0.93747 -0.13900
C 	C 	0.84580 0.17518 0.93144 0.08100
H 	H 	0.85380 0.18150 0.91110 0.01700
C 	C 	0.86648 0.19683 0.95451 -0.16300
H 	H 	0.88870 0.21830 0.95020 0.08600
C 	C 	0.79164 0.11982 0.91217 0.36200
O 	O 	0.76614 0.08985 0.92075 -0.47200
O 	O 	0.79928 0.12988 0.88545 -0.30900
N 	N 	0.90862 0.34997 0.10887 -0.21100
N 	N 	0.83647 0.40023 0.10708 -0.22400
Zn	Zn	0.22109 0.56072 0.89590 1.21300
Zn	Zn	0.19589 0.48179 0.85104 1.20200
O 	O 	0.23477 0.53860 0.85657 -0.66400
C 	C 	0.88840 0.35312 0.07781 -0.00100
C 	C 	0.92030 0.38840 0.12660 0.00400
C 	C 	0.86970 0.33664 0.12885 0.00600
C 	C 	0.85160 0.39090 0.07646 0.02700
C 	C 	0.82010 0.36190 0.12419 -0.02100
C 	C 	0.87740 0.41720 0.12560 0.01100
C 	C 	0.88310 0.42410 0.10320 -0.01200
C 	C 	0.83010 0.37100 0.08000 -0.02300
C 	C 	0.83770 0.38020 0.13570 0.03700
C 	C 	0.92730 0.39430 0.11100 -0.00600
Zn	Zn	0.96932 0.19288 0.39067 1.17700
N 	N 	0.97896 0.19666 0.43689 -0.27700
N 	N 	0.02444 0.15070 0.38918 -0.27500
N 	N 	0.97414 0.19898 0.34414 -0.27700
N 	N 	0.92937 0.24599 0.39174 -0.29100
C 	C 	0.95273 0.22098 0.45618 0.09000
C 	C 	0.96413 0.20985 0.48691 -0.06900
H 	H 	0.95140 0.22230 0.50460 0.05600
C 	C 	0.99535 0.17930 0.48614 -0.07700
H 	H 	0.00880 0.16540 0.50310 0.05900
C 	C 	0.00510 0.17099 0.45469 0.10000
C 	C 	0.03631 0.13997 0.44390 -0.12100
C 	C 	0.04571 0.13070 0.41340 0.09600
C 	C 	0.07726 0.09932 0.40304 -0.07400
H 	H 	0.09630 0.08140 0.41510 0.05700
C 	C 	0.07470 0.10020 0.37225 -0.08100
H 	H 	0.09180 0.08280 0.35870 0.06100
C 	C 	0.04215 0.13154 0.36411 0.10300
C 	C 	0.02910 0.14168 0.33429 -0.12700
C 	C 	0.99821 0.17384 0.32517 0.10300
C 	C 	0.98739 0.18451 0.29452 -0.08300
H 	H 	0.99970 0.17150 0.27690 0.05600
C 	C 	0.95669 0.21626 0.29517 -0.06700
H 	H 	0.94370 0.23010 0.27810 0.05100
C 	C 	0.94706 0.22550 0.32653 0.08700
C 	C 	0.91628 0.25585 0.33734 -0.12100
C 	C 	0.90712 0.26556 0.36801 0.08100
C 	C 	0.87457 0.29550 0.37866 -0.07600
H 	H 	0.85530 0.31320 0.36650 0.06000
C 	C 	0.87556 0.29465 0.40903 -0.07200
H 	H 	0.85730 0.31150 0.42230 0.05800
C 	C 	0.90903 0.26394 0.41745 0.07600
C 	C 	0.92065 0.25181 0.44719 -0.12100
C 	C 	0.05946 0.11496 0.46615 0.05800
C 	C 	0.07786 0.09518 0.48530 -0.08600
C 	C 	0.10038 0.07253 0.50940 0.11300
C 	C 	0.08962 0.08157 0.53967 -0.15300
H 	H 	0.06610 0.10180 0.54450 0.08600
C 	C 	0.11341 0.06090 0.56236 0.08800
H 	H 	0.10710 0.06800 0.58280 0.01500
C 	C 	0.14574 0.03065 0.55626 -0.15000
C 	C 	0.15558 0.02047 0.52633 0.08200
H 	H 	0.17780 0.99900 0.52210 0.02100
C 	C 	0.13413 0.04060 0.50307 -0.15100
H 	H 	0.14150 0.03350 0.48270 0.08300
C 	C 	0.17186 0.00820 0.58123 0.40500
O 	O 	0.16542 0.02217 0.60771 -0.51800
O 	O 	0.19823 0.97880 0.57437 -0.50000
C 	C 	0.04902 0.11689 0.31065 0.06000
C 	C 	0.06436 0.09604 0.29099 -0.08900
C 	C 	0.08521 0.07179 0.26739 0.11500
C 	C 	0.12020 0.04435 0.27318 -0.14200
H 	H 	0.12960 0.03950 0.29350 0.08400
C 	C 	0.14270 0.02292 0.25009 0.05700
H 	H 	0.16800 0.00410 0.25450 0.03900
C 	C 	0.12780 0.02930 0.22022 -0.10400
C 	C 	0.09050 0.05583 0.21466 0.05900
H 	H 	0.07950 0.05940 0.19450 0.03000
C 	C 	0.06868 0.07727 0.23743 -0.14000
H 	H 	0.04280 0.09560 0.23320 0.08000
C 	C 	0.15403 0.00908 0.19435 0.32100
O 	O 	0.19415 0.99057 0.19917 -0.38700
O 	O 	0.13657 0.01194 0.16858 -0.41100
C 	C 	0.89006 0.28040 0.31510 0.05900
C 	C 	0.86795 0.30070 0.29755 -0.09400
C 	C 	0.84286 0.32681 0.27751 0.13200
C 	C 	0.85380 0.32883 0.24781 -0.16100
H 	H 	0.87850 0.31160 0.23990 0.08700
C 	C 	0.82970 0.35565 0.22844 0.07700
H 	H 	0.83790 0.35630 0.20760 0.02100
C 	C 	0.79480 0.38060 0.23914 -0.12700
C 	C 	0.78470 0.37966 0.27037 0.07700
H 	H 	0.76170 0.39820 0.27870 0.02700
C 	C 	0.80730 0.35270 0.28858 -0.16000
H 	H 	0.79870 0.35140 0.30940 0.08700
C 	C 	0.76980 0.41041 0.21843 0.35500
O 	O 	0.78046 0.41101 0.19155 -0.28100
O 	O 	0.74184 0.43822 0.23288 -0.44100
H 	H 	0.72380 0.45000 0.22030 0.28400
C 	C 	0.89653 0.27327 0.47087 0.06200
C 	C 	0.87681 0.29095 0.49127 -0.09300
C 	C 	0.85491 0.31267 0.51557 0.13000
C 	C 	0.82268 0.34287 0.50987 -0.16600
H 	H 	0.81410 0.34910 0.48960 0.09000
C 	C 	0.80219 0.36470 0.53322 0.08300
H 	H 	0.78000 0.38620 0.52900 0.02200
C 	C 	0.81393 0.35535 0.56253 -0.13900
C 	C 	0.84580 0.32482 0.56856 0.08100
H 	H 	0.85380 0.31850 0.58890 0.01700
C 	C 	0.86648 0.30317 0.54549 -0.16300
H 	H 	0.88870 0.28170 0.54980 0.08600
C 	C 	0.79164 0.38018 0.58783 0.36200
O 	O 	0.76614 0.41015 0.57925 -0.47200
O 	O 	0.79928 0.37012 0.61455 -0.30900
N 	N 	0.90862 0.15003 0.39113 -0.21100
N 	N 	0.83647 0.09977 0.39292 -0.22400
Zn	Zn	0.22109 0.93928 0.60410 1.21300
Zn	Zn	0.19589 0.01821 0.64896 1.20200
O 	O 	0.23477 0.96140 0.64343 -0.66400
C 	C 	0.88840 0.14688 0.42219 -0.00100
C 	C 	0.92030 0.11160 0.37340 0.00400
C 	C 	0.86970 0.16336 0.37115 0.00600
C 	C 	0.85160 0.10910 0.42354 0.02700
C 	C 	0.82010 0.13810 0.37581 -0.02100
C 	C 	0.87740 0.08280 0.37440 0.01100
C 	C 	0.88310 0.07590 0.39680 -0.01200
C 	C 	0.83010 0.12900 0.42000 -0.02300
C 	C 	0.83770 0.11980 0.36430 0.03700
C 	C 	0.92730 0.10570 0.38900 -0.00600
Zn	Zn	0.46932 0.69288 0.39067 1.17700
N 	N 	0.47896 0.69666 0.43689 -0.27700
N 	N 	0.52444 0.65070 0.38918 -0.27500
N 	N 	0.47414 0.69898 0.34414 -0.27700
N 	N 	0.42937 0.74599 0.39174 -0.29100
C 	C 	0.45273 0.72098 0.45618 0.09000
C 	C 	0.46413 0.70985 0.48691 -0.06900
H 	H 	0.45140 0.72230 0.50460 0.05600
C 	C 	0.49535 0.67930 0.48614 -0.07700
H 	H 	0.50880 0.66540 0.50310 0.05900
C 	C 	0.50510 0.67099 0.45469 0.10000
C 	C 	0.53631 0.63997 0.44390 -0.12100
C 	C 	0.54571 0.63070 0.41340 0.09600
C 	C 	0.57726 0.59932 0.40304 -0.07400
H 	H 	0.59630 0.58140 0.41510 0.05700
C 	C 	0.57470 0.60020 0.37225 -0.08100
H 	H 	0.59180 0.58280 0.35870 0.06100
C 	C 	0.54215 0.63154 0.36411 0.10300
C 	C 	0.52910 0.64168 0.33429 -0.12700
C 	C 	0.49821 0.67384 0.32517 0.10300
C 	C 	0.48739 0.68451 0.29452 -0.08300
H 	H 	0.49970 0.67150 0.27690 0.05600
C 	C 	0.45669 0.71626 0.29517 -0.06700
H 	H 	0.44370 0.73010 0.27810 0.05100
C 	C 	0.44706 0.72550 0.32653 0.08700
C 	C 	0.41628 0.75585 0.33734 -0.12100
C 	C 	0.40712 0.76556 0.36801 0.08100
C 	C 	0.37457 0.79550 0.37866 -0.07600
H 	H 	0.35530 0.81320 0.36650 0.06000
C 	C 	0.37556 0.79465 0.40903 -0.07200
H 	H 	0.35730 0.81150 0.42230 0.05800
C 	C 	0.40903 0.76394 0.41745 0.07600
C 	C 	0.42065 0.75181 0.44719 -0.12100
C 	C 	0.55946 0.61496 0.46615 0.05800
C 	C 	0.57786 0.59518 0.48530 -0.08600
C 	C 	0.60038 0.57253 0.50940 0.11300
C 	C 	0.58962 0.58157 0.53967 -0.15300
H 	H 	0.56610 0.60180 0.54450 0.08600
C 	C 	0.61341 0.56090 0.56236 0.08800
H 	H 	0.60710 0.56800 0.58280 0.01500
C 	C 	0.64574 0.53065 0.55626 -0.15000
C 	C 	0.65558 0.52047 0.52633 0.08200
H 	H 	0.67780 0.49900 0.52210 0.02100
C 	C 	0.63413 0.54060 0.50307 -0.15100
H 	H 	0.64150 0.53350 0.48270 0.08300
C 	C 	0.67186 0.50820 0.58123 0.40500
O 	O 	0.66542 0.52217 0.60771 -0.51800
O 	O 	0.69823 0.47880 0.57437 -0.50000
C 	C 	0.54902 0.61689 0.31065 0.06000
C 	C 	0.56436 0.59604 0.29099 -0.08900
C 	C 	0.58521 0.57179 0.26739 0.11500
C 	C 	0.62020 0.54435 0.27318 -0.14200
H 	H 	0.62960 0.53950 0.29350 0.08400
C 	C 	0.64270 0.52292 0.25009 0.05700
H 	H 	0.66800 0.50410 0.25450 0.03900
C 	C 	0.62780 0.52930 0.22022 -0.10400
C 	C 	0.59050 0.55583 0.21466 0.05900
H 	H 	0.57950 0.55940 0.19450 0.03000
C 	C 	0.56868 0.57727 0.23743 -0.14000
H 	H 	0.54280 0.59560 0.23320 0.08000
C 	C 	0.65403 0.50908 0.19435 0.32100
O 	O 	0.69415 0.49057 0.19917 -0.38700
O 	O 	0.63657 0.51194 0.16858 -0.41100
C 	C 	0.39006 0.78040 0.31510 0.05900
C 	C 	0.36795 0.80070 0.29755 -0.09400
C 	C 	0.34286 0.82681 0.27751 0.13200
C 	C 	0.35380 0.82883 0.24781 -0.16100
H 	H 	0.37850 0.81160 0.23990 0.08700
C 	C 	0.32970 0.85565 0.22844 0.07700
H 	H 	0.33790 0.85630 0.20760 0.02100
C 	C 	0.29480 0.88060 0.23914 -0.12700
C 	C 	0.28470 0.87966 0.27037 0.07700
H 	H 	0.26170 0.89820 0.27870 0.02700
C 	C 	0.30730 0.85270 0.28858 -0.16000
H 	H 	0.29870 0.85140 0.30940 0.08700
C 	C 	0.26980 0.91041 0.21843 0.35500
O 	O 	0.28046 0.91101 0.19155 -0.28100
O 	O 	0.24184 0.93822 0.23288 -0.44100
H 	H 	0.22380 0.95000 0.22030 0.28400
C 	C 	0.39653 0.77327 0.47087 0.06200
C 	C 	0.37681 0.79095 0.49127 -0.09300
C 	C 	0.35491 0.81267 0.51557 0.13000
C 	C 	0.32268 0.84287 0.50987 -0.16600
H 	H 	0.31410 0.84910 0.48960 0.09000
C 	C 	0.30219 0.86470 0.53322 0.08300
H 	H 	0.28000 0.88620 0.52900 0.02200
C 	C 	0.31393 0.85535 0.56253 -0.13900
C 	C 	0.34580 0.82482 0.56856 0.08100
H 	H 	0.35380 0.81850 0.58890 0.01700
C 	C 	0.36648 0.80317 0.54549 -0.16300
H 	H 	0.38870 0.78170 0.54980 0.08600
C 	C 	0.29164 0.88018 0.58783 0.36200
O 	O 	0.26614 0.91015 0.57925 -0.47200
O 	O 	0.29928 0.87012 0.61455 -0.30900
N 	N 	0.40862 0.65003 0.39113 -0.21100
N 	N 	0.33647 0.59977 0.39292 -0.22400
Zn	Zn	0.72109 0.43928 0.60410 1.21300
Zn	Zn	0.69589 0.51821 0.64896 1.20200
O 	O 	0.73477 0.46140 0.64343 -0.66400
C 	C 	0.38840 0.64688 0.42219 -0.00100
C 	C 	0.42030 0.61160 0.37340 0.00400
C 	C 	0.36970 0.66336 0.37115 0.00600
C 	C 	0.35160 0.60910 0.42354 0.02700
C 	C 	0.32010 0.63810 0.37581 -0.02100
C 	C 	0.37740 0.58280 0.37440 0.01100
C 	C 	0.38310 0.57590 0.39680 -0.01200
C 	C 	0.33010 0.62900 0.42000 -0.02300
C 	C 	0.33770 0.61980 0.36430 0.03700
C 	C 	0.42730 0.60570 0.38900 -0.00600
Zn	Zn	0.53068 0.80712 0.39067 1.17700
N 	N 	0.52104 0.80334 0.43689 -0.27700
N 	N 	0.47556 0.84930 0.38918 -0.27500
N 	N 	0.52586 0.80102 0.34414 -0.27700
N 	N 	0.57063 0.75401 0.39174 -0.29100
C 	C 	0.54727 0.77902 0.45618 0.09000
C 	C 	0.53587 0.79015 0.48691 -0.06900
H 	H 	0.54860 0.77770 0.50460 0.05600
C 	C 	0.50465 0.82070 0.48614 -0.07700
H 	H 	0.49120 0.83460 0.50310 0.05900
C 	C 	0.49490 0.82901 0.45469 0.10000
C 	C 	0.46369 0.86003 0.44390 -0.12100
C 	C 	0.45429 0.86930 0.41340 0.09600
C 	C 	0.42274 0.90068 0.40304 -0.07400
H 	H 	0.40370 0.91860 0.41510 0.05700
C 	C 	0.42530 0.89980 0.37225 -0.08100
H 	H 	0.40820 0.91720 0.35870 0.06100
C 	C 	0.45785 0.86846 0.36411 0.10300
C 	C 	0.47090 0.85832 0.33429 -0.12700
C 	C 	0.50179 0.82616 0.32517 0.10300
C 	C 	0.51261 0.81549 0.29452 -0.08300
H 	H 	0.50030 0.82850 0.27690 0.05600
C 	C 	0.54331 0.78374 0.29517 -0.06700
H 	H 	0.55630 0.76990 0.27810 0.05100
C 	C 	0.55294 0.77450 0.32653 0.08700
C 	C 	0.58372 0.74415 0.33734 -0.12100
C 	C 	0.59288 0.73444 0.36801 0.08100
C 	C 	0.62543 0.70450 0.37866 -0.07600
H 	H 	0.64470 0.68680 0.36650 0.06000
C 	C 	0.62444 0.70535 0.40903 -0.07200
H 	H 	0.64270 0.68850 0.42230 0.05800
C 	C 	0.59097 0.73606 0.41745 0.07600
C 	C 	0.57935 0.74819 0.44719 -0.12100
C 	C 	0.44054 0.88504 0.46615 0.05800
C 	C 	0.42214 0.90482 0.48530 -0.08600
C 	C 	0.39962 0.92747 0.50940 0.11300
C 	C 	0.41038 0.91843 0.53967 -0.15300
H 	H 	0.43390 0.89820 0.54450 0.08600
C 	C 	0.38659 0.93910 0.56236 0.08800
H 	H 	0.39290 0.93200 0.58280 0.01500
C 	C 	0.35426 0.96935 0.55626 -0.15000
C 	C 	0.34442 0.97953 0.52633 0.08200
H 	H 	0.32220 0.00100 0.52210 0.02100
C 	C 	0.36587 0.95940 0.50307 -0.15100
H 	H 	0.35850 0.96650 0.48270 0.08300
C 	C 	0.32814 0.99180 0.58123 0.40500
O 	O 	0.33458 0.97783 0.60771 -0.51800
O 	O 	0.30177 0.02120 0.57437 -0.50000
C 	C 	0.45098 0.88311 0.31065 0.06000
C 	C 	0.43564 0.90396 0.29099 -0.08900
C 	C 	0.41479 0.92821 0.26739 0.11500
C 	C 	0.37980 0.95565 0.27318 -0.14200
H 	H 	0.37040 0.96050 0.29350 0.08400
C 	C 	0.35730 0.97708 0.25009 0.05700
H 	H 	0.33200 0.99590 0.25450 0.03900
C 	C 	0.37220 0.97070 0.22022 -0.10400
C 	C 	0.40950 0.94417 0.21466 0.05900
H 	H 	0.42050 0.94060 0.19450 0.03000
C 	C 	0.43132 0.92273 0.23743 -0.14000
H 	H 	0.45720 0.90440 0.23320 0.08000
C 	C 	0.34597 0.99092 0.19435 0.32100
O 	O 	0.30585 0.00943 0.19917 -0.38700
O 	O 	0.36343 0.98806 0.16858 -0.41100
C 	C 	0.60994 0.71960 0.31510 0.05900
C 	C 	0.63205 0.69930 0.29755 -0.09400
C 	C 	0.65714 0.67319 0.27751 0.13200
C 	C 	0.64620 0.67117 0.24781 -0.16100
H 	H 	0.62150 0.68840 0.23990 0.08700
C 	C 	0.67030 0.64435 0.22844 0.07700
H 	H 	0.66210 0.64370 0.20760 0.02100
C 	C 	0.70520 0.61940 0.23914 -0.12700
C 	C 	0.71530 0.62034 0.27037 0.07700
H 	H 	0.73830 0.60180 0.27870 0.02700
C 	C 	0.69270 0.64730 0.28858 -0.16000
H 	H 	0.70130 0.64860 0.30940 0.08700
C 	C 	0.73020 0.58959 0.21843 0.35500
O 	O 	0.71954 0.58899 0.19155 -0.28100
O 	O 	0.75816 0.56178 0.23288 -0.44100
H 	H 	0.77620 0.55000 0.22030 0.28400
C 	C 	0.60347 0.72673 0.47087 0.06200
C 	C 	0.62319 0.70905 0.49127 -0.09300
C 	C 	0.64509 0.68733 0.51557 0.13000
C 	C 	0.67732 0.65713 0.50987 -0.16600
H 	H 	0.68590 0.65090 0.48960 0.09000
C 	C 	0.69781 0.63530 0.53322 0.08300
H 	H 	0.72000 0.61380 0.52900 0.02200
C 	C 	0.68607 0.64465 0.56253 -0.13900
C 	C 	0.65420 0.67518 0.56856 0.08100
H 	H 	0.64620 0.68150 0.58890 0.01700
C 	C 	0.63352 0.69683 0.54549 -0.16300
H 	H 	0.61130 0.71830 0.54980 0.08600
C 	C 	0.70836 0.61982 0.58783 0.36200
O 	O 	0.73386 0.58985 0.57925 -0.47200
O 	O 	0.70072 0.62988 0.61455 -0.30900
N 	N 	0.59138 0.84997 0.39113 -0.21100
N 	N 	0.66353 0.90023 0.39292 -0.22400
Zn	Zn	0.27891 0.06072 0.60410 1.21300
Zn	Zn	0.30411 0.98179 0.64896 1.20200
O 	O 	0.26523 0.03860 0.64343 -0.66400
C 	C 	0.61160 0.85312 0.42219 -0.00100
C 	C 	0.57970 0.88840 0.37340 0.00400
C 	C 	0.63030 0.83664 0.37115 0.00600
C 	C 	0.64840 0.89090 0.42354 0.02700
C 	C 	0.67990 0.86190 0.37581 -0.02100
C 	C 	0.62260 0.91720 0.37440 0.01100
C 	C 	0.61690 0.92410 0.39680 -0.01200
C 	C 	0.66990 0.87100 0.42000 -0.02300
C 	C 	0.66230 0.88020 0.36430 0.03700
C 	C 	0.57270 0.89430 0.38900 -0.00600
Zn	Zn	0.03068 0.30712 0.39067 1.17700
N 	N 	0.02104 0.30334 0.43689 -0.27700
N 	N 	0.97556 0.34930 0.38918 -0.27500
N 	N 	0.02586 0.30102 0.34414 -0.27700
N 	N 	0.07063 0.25401 0.39174 -0.29100
C 	C 	0.04727 0.27902 0.45618 0.09000
C 	C 	0.03587 0.29015 0.48691 -0.06900
H 	H 	0.04860 0.27770 0.50460 0.05600
C 	C 	0.00465 0.32070 0.48614 -0.07700
H 	H 	0.99120 0.33460 0.50310 0.05900
C 	C 	0.99490 0.32901 0.45469 0.10000
C 	C 	0.96369 0.36003 0.44390 -0.12100
C 	C 	0.95429 0.36930 0.41340 0.09600
C 	C 	0.92274 0.40068 0.40304 -0.07400
H 	H 	0.90370 0.41860 0.41510 0.05700
C 	C 	0.92530 0.39980 0.37225 -0.08100
H 	H 	0.90820 0.41720 0.35870 0.06100
C 	C 	0.95785 0.36846 0.36411 0.10300
C 	C 	0.97090 0.35832 0.33429 -0.12700
C 	C 	0.00179 0.32616 0.32517 0.10300
C 	C 	0.01261 0.31549 0.29452 -0.08300
H 	H 	0.00030 0.32850 0.27690 0.05600
C 	C 	0.04331 0.28374 0.29517 -0.06700
H 	H 	0.05630 0.26990 0.27810 0.05100
C 	C 	0.05294 0.27450 0.32653 0.08700
C 	C 	0.08372 0.24415 0.33734 -0.12100
C 	C 	0.09288 0.23444 0.36801 0.08100
C 	C 	0.12543 0.20450 0.37866 -0.07600
H 	H 	0.14470 0.18680 0.36650 0.06000
C 	C 	0.12444 0.20535 0.40903 -0.07200
H 	H 	0.14270 0.18850 0.42230 0.05800
C 	C 	0.09097 0.23606 0.41745 0.07600
C 	C 	0.07935 0.24819 0.44719 -0.12100
C 	C 	0.94054 0.38504 0.46615 0.05800
C 	C 	0.92214 0.40482 0.48530 -0.08600
C 	C 	0.89962 0.42747 0.50940 0.11300
C 	C 	0.91038 0.41843 0.53967 -0.15300
H 	H 	0.93390 0.39820 0.54450 0.08600
C 	C 	0.88659 0.43910 0.56236 0.08800
H 	H 	0.89290 0.43200 0.58280 0.01500
C 	C 	0.85426 0.46935 0.55626 -0.15000
C 	C 	0.84442 0.47953 0.52633 0.08200
H 	H 	0.82220 0.50100 0.52210 0.02100
C 	C 	0.86587 0.45940 0.50307 -0.15100
H 	H 	0.85850 0.46650 0.48270 0.08300
C 	C 	0.82814 0.49180 0.58123 0.40500
O 	O 	0.83458 0.47783 0.60771 -0.51800
O 	O 	0.80177 0.52120 0.57437 -0.50000
C 	C 	0.95098 0.38311 0.31065 0.06000
C 	C 	0.93564 0.40396 0.29099 -0.08900
C 	C 	0.91479 0.42821 0.26739 0.11500
C 	C 	0.87980 0.45565 0.27318 -0.14200
H 	H 	0.87040 0.46050 0.29350 0.08400
C 	C 	0.85730 0.47708 0.25009 0.05700
H 	H 	0.83200 0.49590 0.25450 0.03900
C 	C 	0.87220 0.47070 0.22022 -0.10400
C 	C 	0.90950 0.44417 0.21466 0.05900
H 	H 	0.92050 0.44060 0.19450 0.03000
C 	C 	0.93132 0.42273 0.23743 -0.14000
H 	H 	0.95720 0.40440 0.23320 0.08000
C 	C 	0.84597 0.49092 0.19435 0.32100
O 	O 	0.80585 0.50943 0.19917 -0.38700
O 	O 	0.86343 0.48806 0.16858 -0.41100
C 	C 	0.10994 0.21960 0.31510 0.05900
C 	C 	0.13205 0.19930 0.29755 -0.09400
C 	C 	0.15714 0.17319 0.27751 0.13200
C 	C 	0.14620 0.17117 0.24781 -0.16100
H 	H 	0.12150 0.18840 0.23990 0.08700
C 	C 	0.17030 0.14435 0.22844 0.07700
H 	H 	0.16210 0.14370 0.20760 0.02100
C 	C 	0.20520 0.11940 0.23914 -0.12700
C 	C 	0.21530 0.12034 0.27037 0.07700
H 	H 	0.23830 0.10180 0.27870 0.02700
C 	C 	0.19270 0.14730 0.28858 -0.16000
H 	H 	0.20130 0.14860 0.30940 0.08700
C 	C 	0.23020 0.08959 0.21843 0.35500
O 	O 	0.21954 0.08899 0.19155 -0.28100
O 	O 	0.25816 0.06178 0.23288 -0.44100
H 	H 	0.27620 0.05000 0.22030 0.28400
C 	C 	0.10347 0.22673 0.47087 0.06200
C 	C 	0.12319 0.20905 0.49127 -0.09300
C 	C 	0.14509 0.18733 0.51557 0.13000
C 	C 	0.17732 0.15713 0.50987 -0.16600
H 	H 	0.18590 0.15090 0.48960 0.09000
C 	C 	0.19781 0.13530 0.53322 0.08300
H 	H 	0.22000 0.11380 0.52900 0.02200
C 	C 	0.18607 0.14465 0.56253 -0.13900
C 	C 	0.15420 0.17518 0.56856 0.08100
H 	H 	0.14620 0.18150 0.58890 0.01700
C 	C 	0.13352 0.19683 0.54549 -0.16300
H 	H 	0.11130 0.21830 0.54980 0.08600
C 	C 	0.20836 0.11982 0.58783 0.36200
O 	O 	0.23386 0.08985 0.57925 -0.47200
O 	O 	0.20072 0.12988 0.61455 -0.30900
N 	N 	0.09138 0.34997 0.39113 -0.21100
N 	N 	0.16353 0.40023 0.39292 -0.22400
Zn	Zn	0.77891 0.56072 0.60410 1.21300
Zn	Zn	0.80411 0.48179 0.64896 1.20200
O 	O 	0.76523 0.53860 0.64343 -0.66400
C 	C 	0.11160 0.35312 0.42219 -0.00100
C 	C 	0.07970 0.38840 0.37340 0.00400
C 	C 	0.13030 0.33664 0.37115 0.00600
C 	C 	0.14840 0.39090 0.42354 0.02700
C 	C 	0.17990 0.36190 0.37581 -0.02100
C 	C 	0.12260 0.41720 0.37440 0.01100
C 	C 	0.11690 0.42410 0.39680 -0.01200
C 	C 	0.16990 0.37100 0.42000 -0.02300
C 	C 	0.16230 0.38020 0.36430 0.03700
C 	C 	0.07270 0.39430 0.38900 -0.00600
Zn	Zn	0.96932 0.80712 0.89067 1.17700
N 	N 	0.97896 0.80334 0.93689 -0.27700
N 	N 	0.02444 0.84930 0.88918 -0.27500
N 	N 	0.97414 0.80102 0.84414 -0.27700
N 	N 	0.92937 0.75401 0.89174 -0.29100
C 	C 	0.95273 0.77902 0.95618 0.09000
C 	C 	0.96413 0.79015 0.98691 -0.06900
H 	H 	0.95140 0.77770 0.00460 0.05600
C 	C 	0.99535 0.82070 0.98614 -0.07700
H 	H 	0.00880 0.83460 0.00310 0.05900
C 	C 	0.00510 0.82901 0.95469 0.10000
C 	C 	0.03631 0.86003 0.94390 -0.12100
C 	C 	0.04571 0.86930 0.91340 0.09600
C 	C 	0.07726 0.90068 0.90304 -0.07400
H 	H 	0.09630 0.91860 0.91510 0.05700
C 	C 	0.07470 0.89980 0.87225 -0.08100
H 	H 	0.09180 0.91720 0.85870 0.06100
C 	C 	0.04215 0.86846 0.86411 0.10300
C 	C 	0.02910 0.85832 0.83429 -0.12700
C 	C 	0.99821 0.82616 0.82517 0.10300
C 	C 	0.98739 0.81549 0.79452 -0.08300
H 	H 	0.99970 0.82850 0.77690 0.05600
C 	C 	0.95669 0.78374 0.79517 -0.06700
H 	H 	0.94370 0.76990 0.77810 0.05100
C 	C 	0.94706 0.77450 0.82653 0.08700
C 	C 	0.91628 0.74415 0.83734 -0.12100
C 	C 	0.90712 0.73444 0.86801 0.08100
C 	C 	0.87457 0.70450 0.87866 -0.07600
H 	H 	0.85530 0.68680 0.86650 0.06000
C 	C 	0.87556 0.70535 0.90903 -0.07200
H 	H 	0.85730 0.68850 0.92230 0.05800
C 	C 	0.90903 0.73606 0.91745 0.07600
C 	C 	0.92065 0.74819 0.94719 -0.12100
C 	C 	0.05946 0.88504 0.96615 0.05800
C 	C 	0.07786 0.90482 0.98530 -0.08600
C 	C 	0.10038 0.92747 0.00940 0.11300
C 	C 	0.08962 0.91843 0.03967 -0.15300
H 	H 	0.06610 0.89820 0.04450 0.08600
C 	C 	0.11341 0.93910 0.06236 0.08800
H 	H 	0.10710 0.93200 0.08280 0.01500
C 	C 	0.14574 0.96935 0.05626 -0.15000
C 	C 	0.15558 0.97953 0.02633 0.08200
H 	H 	0.17780 0.00100 0.02210 0.02100
C 	C 	0.13413 0.95940 0.00307 -0.15100
H 	H 	0.14150 0.96650 0.98270 0.08300
C 	C 	0.17186 0.99180 0.08123 0.40500
O 	O 	0.16542 0.97783 0.10771 -0.51800
O 	O 	0.19823 0.02120 0.07437 -0.50000
C 	C 	0.04902 0.88311 0.81065 0.06000
C 	C 	0.06436 0.90396 0.79099 -0.08900
C 	C 	0.08521 0.92821 0.76739 0.11500
C 	C 	0.12020 0.95565 0.77318 -0.14200
H 	H 	0.12960 0.96050 0.79350 0.08400
C 	C 	0.14270 0.97708 0.75009 0.05700
H 	H 	0.16800 0.99590 0.75450 0.03900
C 	C 	0.12780 0.97070 0.72022 -0.10400
C 	C 	0.09050 0.94417 0.71466 0.05900
H 	H 	0.07950 0.94060 0.69450 0.03000
C 	C 	0.06868 0.92273 0.73743 -0.14000
H 	H 	0.04280 0.90440 0.73320 0.08000
C 	C 	0.15403 0.99092 0.69435 0.32100
O 	O 	0.19415 0.00943 0.69917 -0.38700
O 	O 	0.13657 0.98806 0.66858 -0.41100
C 	C 	0.89006 0.71960 0.81510 0.05900
C 	C 	0.86795 0.69930 0.79755 -0.09400
C 	C 	0.84286 0.67319 0.77751 0.13200
C 	C 	0.85380 0.67117 0.74781 -0.16100
H 	H 	0.87850 0.68840 0.73990 0.08700
C 	C 	0.82970 0.64435 0.72844 0.07700
H 	H 	0.83790 0.64370 0.70760 0.02100
C 	C 	0.79480 0.61940 0.73914 -0.12700
C 	C 	0.78470 0.62034 0.77037 0.07700
H 	H 	0.76170 0.60180 0.77870 0.02700
C 	C 	0.80730 0.64730 0.78858 -0.16000
H 	H 	0.79870 0.64860 0.80940 0.08700
C 	C 	0.76980 0.58959 0.71843 0.35500
O 	O 	0.78046 0.58899 0.69155 -0.28100
O 	O 	0.74184 0.56178 0.73288 -0.44100
H 	H 	0.72380 0.55000 0.72030 0.28400
C 	C 	0.89653 0.72673 0.97087 0.06200
C 	C 	0.87681 0.70905 0.99127 -0.09300
C 	C 	0.85491 0.68733 0.01557 0.13000
C 	C 	0.82268 0.65713 0.00987 -0.16600
H 	H 	0.81410 0.65090 0.98960 0.09000
C 	C 	0.80219 0.63530 0.03322 0.08300
H 	H 	0.78000 0.61380 0.02900 0.02200
C 	C 	0.81393 0.64465 0.06253 -0.13900
C 	C 	0.84580 0.67518 0.06856 0.08100
H 	H 	0.85380 0.68150 0.08890 0.01700
C 	C 	0.86648 0.69683 0.04549 -0.16300
H 	H 	0.88870 0.71830 0.04980 0.08600
C 	C 	0.79164 0.61982 0.08783 0.36200
O 	O 	0.76614 0.58985 0.07925 -0.47200
O 	O 	0.79928 0.62988 0.11455 -0.30900
N 	N 	0.90862 0.84997 0.89113 -0.21100
N 	N 	0.83647 0.90023 0.89292 -0.22400
Zn	Zn	0.22109 0.06072 0.10410 1.21300
Zn	Zn	0.19589 0.98179 0.14896 1.20200
O 	O 	0.23477 0.03860 0.14343 -0.66400
C 	C 	0.88840 0.85312 0.92219 -0.00100
C 	C 	0.92030 0.88840 0.87340 0.00400
C 	C 	0.86970 0.83664 0.87115 0.00600
C 	C 	0.85160 0.89090 0.92354 0.02700
C 	C 	0.82010 0.86190 0.87581 -0.02100
C 	C 	0.87740 0.91720 0.87440 0.01100
C 	C 	0.88310 0.92410 0.89680 -0.01200
C 	C 	0.83010 0.87100 0.92000 -0.02300
C 	C 	0.83770 0.88020 0.86430 0.03700
C 	C 	0.92730 0.89430 0.88900 -0.00600
Zn	Zn	0.46932 0.30712 0.89067 1.17700
N 	N 	0.47896 0.30334 0.93689 -0.27700
N 	N 	0.52444 0.34930 0.88918 -0.27500
N 	N 	0.47414 0.30102 0.84414 -0.27700
N 	N 	0.42937 0.25401 0.89174 -0.29100
C 	C 	0.45273 0.27902 0.95618 0.09000
C 	C 	0.46413 0.29015 0.98691 -0.06900
H 	H 	0.45140 0.27770 0.00460 0.05600
C 	C 	0.49535 0.32070 0.98614 -0.07700
H 	H 	0.50880 0.33460 0.00310 0.05900
C 	C 	0.50510 0.32901 0.95469 0.10000
C 	C 	0.53631 0.36003 0.94390 -0.12100
C 	C 	0.54571 0.36930 0.91340 0.09600
C 	C 	0.57726 0.40068 0.90304 -0.07400
H 	H 	0.59630 0.41860 0.91510 0.05700
C 	C 	0.57470 0.39980 0.87225 -0.08100
H 	H 	0.59180 0.41720 0.85870 0.06100
C 	C 	0.54215 0.36846 0.86411 0.10300
C 	C 	0.52910 0.35832 0.83429 -0.12700
C 	C 	0.49821 0.32616 0.82517 0.10300
C 	C 	0.48739 0.31549 0.79452 -0.08300
H 	H 	0.49970 0.32850 0.77690 0.05600
C 	C 	0.45669 0.28374 0.79517 -0.06700
H 	H 	0.44370 0.26990 0.77810 0.05100
C 	C 	0.44706 0.27450 0.82653 0.08700
C 	C 	0.41628 0.24415 0.83734 -0.12100
C 	C 	0.40712 0.23444 0.86801 0.08100
C 	C 	0.37457 0.20450 0.87866 -0.07600
H 	H 	0.35530 0.18680 0.86650 0.06000
C 	C 	0.37556 0.20535 0.90903 -0.07200
H 	H 	0.35730 0.18850 0.92230 0.05800
C 	C 	0.40903 0.23606 0.91745 0.07600
C 	C 	0.42065 0.24819 0.94719 -0.12100
C 	C 	0.55946 0.38504 0.96615 0.05800
C 	C 	0.57786 0.40482 0.98530 -0.08600
C 	C 	0.60038 0.42747 0.00940 0.11300
C 	C 	0.58962 0.41843 0.03967 -0.15300
H 	H 	0.56610 0.39820 0.04450 0.08600
C 	C 	0.61341 0.43910 0.06236 0.08800
H 	H 	0.60710 0.43200 0.08280 0.01500
C 	C 	0.64574 0.46935 0.05626 -0.15000
C 	C 	0.65558 0.47953 0.02633 0.08200
H 	H 	0.67780 0.50100 0.02210 0.02100
C 	C 	0.63413 0.45940 0.00307 -0.15100
H 	H 	0.64150 0.46650 0.98270 0.08300
C 	C 	0.67186 0.49180 0.08123 0.40500
O 	O 	0.66542 0.47783 0.10771 -0.51800
O 	O 	0.69823 0.52120 0.07437 -0.50000
C 	C 	0.54902 0.38311 0.81065 0.06000
C 	C 	0.56436 0.40396 0.79099 -0.08900
C 	C 	0.58521 0.42821 0.76739 0.11500
C 	C 	0.62020 0.45565 0.77318 -0.14200
H 	H 	0.62960 0.46050 0.79350 0.08400
C 	C 	0.64270 0.47708 0.75009 0.05700
H 	H 	0.66800 0.49590 0.75450 0.03900
C 	C 	0.62780 0.47070 0.72022 -0.10400
C 	C 	0.59050 0.44417 0.71466 0.05900
H 	H 	0.57950 0.44060 0.69450 0.03000
C 	C 	0.56868 0.42273 0.73743 -0.14000
H 	H 	0.54280 0.40440 0.73320 0.08000
C 	C 	0.65403 0.49092 0.69435 0.32100
O 	O 	0.69415 0.50943 0.69917 -0.38700
O 	O 	0.63657 0.48806 0.66858 -0.41100
C 	C 	0.39006 0.21960 0.81510 0.05900
C 	C 	0.36795 0.19930 0.79755 -0.09400
C 	C 	0.34286 0.17319 0.77751 0.13200
C 	C 	0.35380 0.17117 0.74781 -0.16100
H 	H 	0.37850 0.18840 0.73990 0.08700
C 	C 	0.32970 0.14435 0.72844 0.07700
H 	H 	0.33790 0.14370 0.70760 0.02100
C 	C 	0.29480 0.11940 0.73914 -0.12700
C 	C 	0.28470 0.12034 0.77037 0.07700
H 	H 	0.26170 0.10180 0.77870 0.02700
C 	C 	0.30730 0.14730 0.78858 -0.16000
H 	H 	0.29870 0.14860 0.80940 0.08700
C 	C 	0.26980 0.08959 0.71843 0.35500
O 	O 	0.28046 0.08899 0.69155 -0.28100
O 	O 	0.24184 0.06178 0.73288 -0.44100
H 	H 	0.22380 0.05000 0.72030 0.28400
C 	C 	0.39653 0.22673 0.97087 0.06200
C 	C 	0.37681 0.20905 0.99127 -0.09300
C 	C 	0.35491 0.18733 0.01557 0.13000
C 	C 	0.32268 0.15713 0.00987 -0.16600
H 	H 	0.31410 0.15090 0.98960 0.09000
C 	C 	0.30219 0.13530 0.03322 0.08300
H 	H 	0.28000 0.11380 0.02900 0.02200
C 	C 	0.31393 0.14465 0.06253 -0.13900
C 	C 	0.34580 0.17518 0.06856 0.08100
H 	H 	0.35380 0.18150 0.08890 0.01700
C 	C 	0.36648 0.19683 0.04549 -0.16300
H 	H 	0.38870 0.21830 0.04980 0.08600
C 	C 	0.29164 0.11982 0.08783 0.36200
O 	O 	0.26614 0.08985 0.07925 -0.47200
O 	O 	0.29928 0.12988 0.11455 -0.30900
N 	N 	0.40862 0.34997 0.89113 -0.21100
N 	N 	0.33647 0.40023 0.89292 -0.22400
Zn	Zn	0.72109 0.56072 0.10410 1.21300
Zn	Zn	0.69589 0.48179 0.14896 1.20200
O 	O 	0.73477 0.53860 0.14343 -0.66400
C 	C 	0.38840 0.35312 0.92219 -0.00100
C 	C 	0.42030 0.38840 0.87340 0.00400
C 	C 	0.36970 0.33664 0.87115 0.00600
C 	C 	0.35160 0.39090 0.92354 0.02700
C 	C 	0.32010 0.36190 0.87581 -0.02100
C 	C 	0.37740 0.41720 0.87440 0.01100
C 	C 	0.38310 0.42410 0.89680 -0.01200
C 	C 	0.33010 0.37100 0.92000 -0.02300
C 	C 	0.33770 0.38020 0.86430 0.03700
C 	C 	0.42730 0.39430 0.88900 -0.00600
Zn	Zn	0.53068 0.19288 0.89067 1.17700
N 	N 	0.52104 0.19666 0.93689 -0.27700
N 	N 	0.47556 0.15070 0.88918 -0.27500
N 	N 	0.52586 0.19898 0.84414 -0.27700
N 	N 	0.57063 0.24599 0.89174 -0.29100
C 	C 	0.54727 0.22098 0.95618 0.09000
C 	C 	0.53587 0.20985 0.98691 -0.06900
H 	H 	0.54860 0.22230 0.00460 0.05600
C 	C 	0.50465 0.17930 0.98614 -0.07700
H 	H 	0.49120 0.16540 0.00310 0.05900
C 	C 	0.49490 0.17099 0.95469 0.10000
C 	C 	0.46369 0.13997 0.94390 -0.12100
C 	C 	0.45429 0.13070 0.91340 0.09600
C 	C 	0.42274 0.09932 0.90304 -0.07400
H 	H 	0.40370 0.08140 0.91510 0.05700
C 	C 	0.42530 0.10020 0.87225 -0.08100
H 	H 	0.40820 0.08280 0.85870 0.06100
C 	C 	0.45785 0.13154 0.86411 0.10300
C 	C 	0.47090 0.14168 0.83429 -0.12700
C 	C 	0.50179 0.17384 0.82517 0.10300
C 	C 	0.51261 0.18451 0.79452 -0.08300
H 	H 	0.50030 0.17150 0.77690 0.05600
C 	C 	0.54331 0.21626 0.79517 -0.06700
H 	H 	0.55630 0.23010 0.77810 0.05100
C 	C 	0.55294 0.22550 0.82653 0.08700
C 	C 	0.58372 0.25585 0.83734 -0.12100
C 	C 	0.59288 0.26556 0.86801 0.08100
C 	C 	0.62543 0.29550 0.87866 -0.07600
H 	H 	0.64470 0.31320 0.86650 0.06000
C 	C 	0.62444 0.29465 0.90903 -0.07200
H 	H 	0.64270 0.31150 0.92230 0.05800
C 	C 	0.59097 0.26394 0.91745 0.07600
C 	C 	0.57935 0.25181 0.94719 -0.12100
C 	C 	0.44054 0.11496 0.96615 0.05800
C 	C 	0.42214 0.09518 0.98530 -0.08600
C 	C 	0.39962 0.07253 0.00940 0.11300
C 	C 	0.41038 0.08157 0.03967 -0.15300
H 	H 	0.43390 0.10180 0.04450 0.08600
C 	C 	0.38659 0.06090 0.06236 0.08800
H 	H 	0.39290 0.06800 0.08280 0.01500
C 	C 	0.35426 0.03065 0.05626 -0.15000
C 	C 	0.34442 0.02047 0.02633 0.08200
H 	H 	0.32220 0.99900 0.02210 0.02100
C 	C 	0.36587 0.04060 0.00307 -0.15100
H 	H 	0.35850 0.03350 0.98270 0.08300
C 	C 	0.32814 0.00820 0.08123 0.40500
O 	O 	0.33458 0.02217 0.10771 -0.51800
O 	O 	0.30177 0.97880 0.07437 -0.50000
C 	C 	0.45098 0.11689 0.81065 0.06000
C 	C 	0.43564 0.09604 0.79099 -0.08900
C 	C 	0.41479 0.07179 0.76739 0.11500
C 	C 	0.37980 0.04435 0.77318 -0.14200
H 	H 	0.37040 0.03950 0.79350 0.08400
C 	C 	0.35730 0.02292 0.75009 0.05700
H 	H 	0.33200 0.00410 0.75450 0.03900
C 	C 	0.37220 0.02930 0.72022 -0.10400
C 	C 	0.40950 0.05583 0.71466 0.05900
H 	H 	0.42050 0.05940 0.69450 0.03000
C 	C 	0.43132 0.07727 0.73743 -0.14000
H 	H 	0.45720 0.09560 0.73320 0.08000
C 	C 	0.34597 0.00908 0.69435 0.32100
O 	O 	0.30585 0.99057 0.69917 -0.38700
O 	O 	0.36343 0.01194 0.66858 -0.41100
C 	C 	0.60994 0.28040 0.81510 0.05900
C 	C 	0.63205 0.30070 0.79755 -0.09400
C 	C 	0.65714 0.32681 0.77751 0.13200
C 	C 	0.64620 0.32883 0.74781 -0.16100
H 	H 	0.62150 0.31160 0.73990 0.08700
C 	C 	0.67030 0.35565 0.72844 0.07700
H 	H 	0.66210 0.35630 0.70760 0.02100
C 	C 	0.70520 0.38060 0.73914 -0.12700
C 	C 	0.71530 0.37966 0.77037 0.07700
H 	H 	0.73830 0.39820 0.77870 0.02700
C 	C 	0.69270 0.35270 0.78858 -0.16000
H 	H 	0.70130 0.35140 0.80940 0.08700
C 	C 	0.73020 0.41041 0.71843 0.35500
O 	O 	0.71954 0.41101 0.69155 -0.28100
O 	O 	0.75816 0.43822 0.73288 -0.44100
H 	H 	0.77620 0.45000 0.72030 0.28400
C 	C 	0.60347 0.27327 0.97087 0.06200
C 	C 	0.62319 0.29095 0.99127 -0.09300
C 	C 	0.64509 0.31267 0.01557 0.13000
C 	C 	0.67732 0.34287 0.00987 -0.16600
H 	H 	0.68590 0.34910 0.98960 0.09000
C 	C 	0.69781 0.36470 0.03322 0.08300
H 	H 	0.72000 0.38620 0.02900 0.02200
C 	C 	0.68607 0.35535 0.06253 -0.13900
C 	C 	0.65420 0.32482 0.06856 0.08100
H 	H 	0.64620 0.31850 0.08890 0.01700
C 	C 	0.63352 0.30317 0.04549 -0.16300
H 	H 	0.61130 0.28170 0.04980 0.08600
C 	C 	0.70836 0.38018 0.08783 0.36200
O 	O 	0.73386 0.41015 0.07925 -0.47200
O 	O 	0.70072 0.37012 0.11455 -0.30900
N 	N 	0.59138 0.15003 0.89113 -0.21100
N 	N 	0.66353 0.09977 0.89292 -0.22400
Zn	Zn	0.27891 0.93928 0.10410 1.21300
Zn	Zn	0.30411 0.01821 0.14896 1.20200
O 	O 	0.26523 0.96140 0.14343 -0.66400
C 	C 	0.61160 0.14688 0.92219 -0.00100
C 	C 	0.57970 0.11160 0.87340 0.00400
C 	C 	0.63030 0.16336 0.87115 0.00600
C 	C 	0.64840 0.10910 0.92354 0.02700
C 	C 	0.67990 0.13810 0.87581 -0.02100
C 	C 	0.62260 0.08280 0.87440 0.01100
C 	C 	0.61690 0.07590 0.89680 -0.01200
C 	C 	0.66990 0.12900 0.92000 -0.02300
C 	C 	0.66230 0.11980 0.86430 0.03700
C 	C 	0.57270 0.10570 0.88900 -0.00600
Zn	Zn	0.03068 0.69288 0.89067 1.17700
N 	N 	0.02104 0.69666 0.93689 -0.27700
N 	N 	0.97556 0.65070 0.88918 -0.27500
N 	N 	0.02586 0.69898 0.84414 -0.27700
N 	N 	0.07063 0.74599 0.89174 -0.29100
C 	C 	0.04727 0.72098 0.95618 0.09000
C 	C 	0.03587 0.70985 0.98691 -0.06900
H 	H 	0.04860 0.72230 0.00460 0.05600
C 	C 	0.00465 0.67930 0.98614 -0.07700
H 	H 	0.99120 0.66540 0.00310 0.05900
C 	C 	0.99490 0.67099 0.95469 0.10000
C 	C 	0.96369 0.63997 0.94390 -0.12100
C 	C 	0.95429 0.63070 0.91340 0.09600
C 	C 	0.92274 0.59932 0.90304 -0.07400
H 	H 	0.90370 0.58140 0.91510 0.05700
C 	C 	0.92530 0.60020 0.87225 -0.08100
H 	H 	0.90820 0.58280 0.85870 0.06100
C 	C 	0.95785 0.63154 0.86411 0.10300
C 	C 	0.97090 0.64168 0.83429 -0.12700
C 	C 	0.00179 0.67384 0.82517 0.10300
C 	C 	0.01261 0.68451 0.79452 -0.08300
H 	H 	0.00030 0.67150 0.77690 0.05600
C 	C 	0.04331 0.71626 0.79517 -0.06700
H 	H 	0.05630 0.73010 0.77810 0.05100
C 	C 	0.05294 0.72550 0.82653 0.08700
C 	C 	0.08372 0.75585 0.83734 -0.12100
C 	C 	0.09288 0.76556 0.86801 0.08100
C 	C 	0.12543 0.79550 0.87866 -0.07600
H 	H 	0.14470 0.81320 0.86650 0.06000
C 	C 	0.12444 0.79465 0.90903 -0.07200
H 	H 	0.14270 0.81150 0.92230 0.05800
C 	C 	0.09097 0.76394 0.91745 0.07600
C 	C 	0.07935 0.75181 0.94719 -0.12100
C 	C 	0.94054 0.61496 0.96615 0.05800
C 	C 	0.92214 0.59518 0.98530 -0.08600
C 	C 	0.89962 0.57253 0.00940 0.11300
C 	C 	0.91038 0.58157 0.03967 -0.15300
H 	H 	0.93390 0.60180 0.04450 0.08600
C 	C 	0.88659 0.56090 0.06236 0.08800
H 	H 	0.89290 0.56800 0.08280 0.01500
C 	C 	0.85426 0.53065 0.05626 -0.15000
C 	C 	0.84442 0.52047 0.02633 0.08200
H 	H 	0.82220 0.49900 0.02210 0.02100
C 	C 	0.86587 0.54060 0.00307 -0.15100
H 	H 	0.85850 0.53350 0.98270 0.08300
C 	C 	0.82814 0.50820 0.08123 0.40500
O 	O 	0.83458 0.52217 0.10771 -0.51800
O 	O 	0.80177 0.47880 0.07437 -0.50000
C 	C 	0.95098 0.61689 0.81065 0.06000
C 	C 	0.93564 0.59604 0.79099 -0.08900
C 	C 	0.91479 0.57179 0.76739 0.11500
C 	C 	0.87980 0.54435 0.77318 -0.14200
H 	H 	0.87040 0.53950 0.79350 0.08400
C 	C 	0.85730 0.52292 0.75009 0.05700
H 	H 	0.83200 0.50410 0.75450 0.03900
C 	C 	0.87220 0.52930 0.72022 -0.10400
C 	C 	0.90950 0.55583 0.71466 0.05900
H 	H 	0.92050 0.55940 0.69450 0.03000
C 	C 	0.93132 0.57727 0.73743 -0.14000
H 	H 	0.95720 0.59560 0.73320 0.08000
C 	C 	0.84597 0.50908 0.69435 0.32100
O 	O 	0.80585 0.49057 0.69917 -0.38700
O 	O 	0.86343 0.51194 0.66858 -0.41100
C 	C 	0.10994 0.78040 0.81510 0.05900
C 	C 	0.13205 0.80070 0.79755 -0.09400
C 	C 	0.15714 0.82681 0.77751 0.13200
C 	C 	0.14620 0.82883 0.74781 -0.16100
H 	H 	0.12150 0.81160 0.73990 0.08700
C 	C 	0.17030 0.85565 0.72844 0.07700
H 	H 	0.16210 0.85630 0.70760 0.02100
C 	C 	0.20520 0.88060 0.73914 -0.12700
C 	C 	0.21530 0.87966 0.77037 0.07700
H 	H 	0.23830 0.89820 0.77870 0.02700
C 	C 	0.19270 0.85270 0.78858 -0.16000
H 	H 	0.20130 0.85140 0.80940 0.08700
C 	C 	0.23020 0.91041 0.71843 0.35500
O 	O 	0.21954 0.91101 0.69155 -0.28100
O 	O 	0.25816 0.93822 0.73288 -0.44100
H 	H 	0.27620 0.95000 0.72030 0.28400
C 	C 	0.10347 0.77327 0.97087 0.06200
C 	C 	0.12319 0.79095 0.99127 -0.09300
C 	C 	0.14509 0.81267 0.01557 0.13000
C 	C 	0.17732 0.84287 0.00987 -0.16600
H 	H 	0.18590 0.84910 0.98960 0.09000
C 	C 	0.19781 0.86470 0.03322 0.08300
H 	H 	0.22000 0.88620 0.02900 0.02200
C 	C 	0.18607 0.85535 0.06253 -0.13900
C 	C 	0.15420 0.82482 0.06856 0.08100
H 	H 	0.14620 0.81850 0.08890 0.01700
C 	C 	0.13352 0.80317 0.04549 -0.16300
H 	H 	0.11130 0.78170 0.04980 0.08600
C 	C 	0.20836 0.88018 0.08783 0.36200
O 	O 	0.23386 0.91015 0.07925 -0.47200
O 	O 	0.20072 0.87012 0.11455 -0.30900
N 	N 	0.09138 0.65003 0.89113 -0.21100
N 	N 	0.16353 0.59977 0.89292 -0.22400
Zn	Zn	0.77891 0.43928 0.10410 1.21300
Zn	Zn	0.80411 0.51821 0.14896 1.20200
O 	O 	0.76523 0.46140 0.14343 -0.66400
C 	C 	0.11160 0.64688 0.92219 -0.00100
C 	C 	0.07970 0.61160 0.87340 0.00400
C 	C 	0.13030 0.66336 0.87115 0.00600
C 	C 	0.14840 0.60910 0.92354 0.02700
C 	C 	0.17990 0.63810 0.87581 -0.02100
C 	C 	0.12260 0.58280 0.87440 0.01100
C 	C 	0.11690 0.57590 0.89680 -0.01200
C 	C 	0.16990 0.62900 0.92000 -0.02300
C 	C 	0.16230 0.61980 0.86430 0.03700
C 	C 	0.07270 0.60570 0.88900 -0.00600
Zn	Zn	0.03068 0.80712 0.60933 1.17700
N 	N 	0.02104 0.80334 0.56311 -0.27700
N 	N 	0.97556 0.84930 0.61082 -0.27500
N 	N 	0.02586 0.80102 0.65586 -0.27700
N 	N 	0.07063 0.75401 0.60826 -0.29100
C 	C 	0.04727 0.77902 0.54382 0.09000
C 	C 	0.03587 0.79015 0.51309 -0.06900
H 	H 	0.04860 0.77770 0.49540 0.05600
C 	C 	0.00465 0.82070 0.51386 -0.07700
H 	H 	0.99120 0.83460 0.49690 0.05900
C 	C 	0.99490 0.82901 0.54531 0.10000
C 	C 	0.96369 0.86003 0.55610 -0.12100
C 	C 	0.95429 0.86930 0.58660 0.09600
C 	C 	0.92274 0.90068 0.59696 -0.07400
H 	H 	0.90370 0.91860 0.58490 0.05700
C 	C 	0.92530 0.89980 0.62775 -0.08100
H 	H 	0.90820 0.91720 0.64130 0.06100
C 	C 	0.95785 0.86846 0.63589 0.10300
C 	C 	0.97090 0.85832 0.66571 -0.12700
C 	C 	0.00179 0.82616 0.67483 0.10300
C 	C 	0.01261 0.81549 0.70548 -0.08300
H 	H 	0.00030 0.82850 0.72310 0.05600
C 	C 	0.04331 0.78374 0.70483 -0.06700
H 	H 	0.05630 0.76990 0.72190 0.05100
C 	C 	0.05294 0.77450 0.67347 0.08700
C 	C 	0.08372 0.74415 0.66266 -0.12100
C 	C 	0.09288 0.73444 0.63199 0.08100
C 	C 	0.12543 0.70450 0.62134 -0.07600
H 	H 	0.14470 0.68680 0.63350 0.06000
C 	C 	0.12444 0.70535 0.59097 -0.07200
H 	H 	0.14270 0.68850 0.57770 0.05800
C 	C 	0.09097 0.73606 0.58255 0.07600
C 	C 	0.07935 0.74819 0.55281 -0.12100
C 	C 	0.94054 0.88504 0.53385 0.05800
C 	C 	0.92214 0.90482 0.51470 -0.08600
C 	C 	0.89962 0.92747 0.49060 0.11300
C 	C 	0.91038 0.91843 0.46033 -0.15300
H 	H 	0.93390 0.89820 0.45550 0.08600
C 	C 	0.88659 0.93910 0.43764 0.08800
H 	H 	0.89290 0.93200 0.41720 0.01500
C 	C 	0.85426 0.96935 0.44374 -0.15000
C 	C 	0.84442 0.97953 0.47367 0.08200
H 	H 	0.82220 0.00100 0.47790 0.02100
C 	C 	0.86587 0.95940 0.49693 -0.15100
H 	H 	0.85850 0.96650 0.51730 0.08300
C 	C 	0.82814 0.99180 0.41877 0.40500
O 	O 	0.83458 0.97783 0.39229 -0.51800
O 	O 	0.80177 0.02120 0.42563 -0.50000
C 	C 	0.95098 0.88311 0.68935 0.06000
C 	C 	0.93564 0.90396 0.70901 -0.08900
C 	C 	0.91479 0.92821 0.73261 0.11500
C 	C 	0.87980 0.95565 0.72682 -0.14200
H 	H 	0.87040 0.96050 0.70650 0.08400
C 	C 	0.85730 0.97708 0.74991 0.05700
H 	H 	0.83200 0.99590 0.74550 0.03900
C 	C 	0.87220 0.97070 0.77978 -0.10400
C 	C 	0.90950 0.94417 0.78534 0.05900
H 	H 	0.92050 0.94060 0.80550 0.03000
C 	C 	0.93132 0.92273 0.76257 -0.14000
H 	H 	0.95720 0.90440 0.76680 0.08000
C 	C 	0.84597 0.99092 0.80565 0.32100
O 	O 	0.80585 0.00943 0.80083 -0.38700
O 	O 	0.86343 0.98806 0.83142 -0.41100
C 	C 	0.10994 0.71960 0.68490 0.05900
C 	C 	0.13205 0.69930 0.70245 -0.09400
C 	C 	0.15714 0.67319 0.72249 0.13200
C 	C 	0.14620 0.67117 0.75219 -0.16100
H 	H 	0.12150 0.68840 0.76010 0.08700
C 	C 	0.17030 0.64435 0.77156 0.07700
H 	H 	0.16210 0.64370 0.79240 0.02100
C 	C 	0.20520 0.61940 0.76086 -0.12700
C 	C 	0.21530 0.62034 0.72963 0.07700
H 	H 	0.23830 0.60180 0.72130 0.02700
C 	C 	0.19270 0.64730 0.71142 -0.16000
H 	H 	0.20130 0.64860 0.69060 0.08700
C 	C 	0.23020 0.58959 0.78157 0.35500
O 	O 	0.21954 0.58899 0.80845 -0.28100
O 	O 	0.25816 0.56178 0.76712 -0.44100
H 	H 	0.27620 0.55000 0.77970 0.28400
C 	C 	0.10347 0.72673 0.52913 0.06200
C 	C 	0.12319 0.70905 0.50873 -0.09300
C 	C 	0.14509 0.68733 0.48443 0.13000
C 	C 	0.17732 0.65713 0.49013 -0.16600
H 	H 	0.18590 0.65090 0.51040 0.09000
C 	C 	0.19781 0.63530 0.46678 0.08300
H 	H 	0.22000 0.61380 0.47100 0.02200
C 	C 	0.18607 0.64465 0.43747 -0.13900
C 	C 	0.15420 0.67518 0.43144 0.08100
H 	H 	0.14620 0.68150 0.41110 0.01700
C 	C 	0.13352 0.69683 0.45451 -0.16300
H 	H 	0.11130 0.71830 0.45020 0.08600
C 	C 	0.20836 0.61982 0.41217 0.36200
O 	O 	0.23386 0.58985 0.42075 -0.47200
O 	O 	0.20072 0.62988 0.38545 -0.30900
N 	N 	0.09138 0.84997 0.60887 -0.21100
N 	N 	0.16353 0.90023 0.60708 -0.22400
Zn	Zn	0.77891 0.06072 0.39590 1.21300
Zn	Zn	0.80411 0.98179 0.35104 1.20200
O 	O 	0.76523 0.03860 0.35657 -0.66400
C 	C 	0.11160 0.85312 0.57781 -0.00100
C 	C 	0.07970 0.88840 0.62660 0.00400
C 	C 	0.13030 0.83664 0.62885 0.00600
C 	C 	0.14840 0.89090 0.57646 0.02700
C 	C 	0.17990 0.86190 0.62419 -0.02100
C 	C 	0.12260 0.91720 0.62560 0.01100
C 	C 	0.11690 0.92410 0.60320 -0.01200
C 	C 	0.16990 0.87100 0.58000 -0.02300
C 	C 	0.16230 0.88020 0.63570 0.03700
C 	C 	0.07270 0.89430 0.61100 -0.00600
Zn	Zn	0.53068 0.30712 0.60933 1.17700
N 	N 	0.52104 0.30334 0.56311 -0.27700
N 	N 	0.47556 0.34930 0.61082 -0.27500
N 	N 	0.52586 0.30102 0.65586 -0.27700
N 	N 	0.57063 0.25401 0.60826 -0.29100
C 	C 	0.54727 0.27902 0.54382 0.09000
C 	C 	0.53587 0.29015 0.51309 -0.06900
H 	H 	0.54860 0.27770 0.49540 0.05600
C 	C 	0.50465 0.32070 0.51386 -0.07700
H 	H 	0.49120 0.33460 0.49690 0.05900
C 	C 	0.49490 0.32901 0.54531 0.10000
C 	C 	0.46369 0.36003 0.55610 -0.12100
C 	C 	0.45429 0.36930 0.58660 0.09600
C 	C 	0.42274 0.40068 0.59696 -0.07400
H 	H 	0.40370 0.41860 0.58490 0.05700
C 	C 	0.42530 0.39980 0.62775 -0.08100
H 	H 	0.40820 0.41720 0.64130 0.06100
C 	C 	0.45785 0.36846 0.63589 0.10300
C 	C 	0.47090 0.35832 0.66571 -0.12700
C 	C 	0.50179 0.32616 0.67483 0.10300
C 	C 	0.51261 0.31549 0.70548 -0.08300
H 	H 	0.50030 0.32850 0.72310 0.05600
C 	C 	0.54331 0.28374 0.70483 -0.06700
H 	H 	0.55630 0.26990 0.72190 0.05100
C 	C 	0.55294 0.27450 0.67347 0.08700
C 	C 	0.58372 0.24415 0.66266 -0.12100
C 	C 	0.59288 0.23444 0.63199 0.08100
C 	C 	0.62543 0.20450 0.62134 -0.07600
H 	H 	0.64470 0.18680 0.63350 0.06000
C 	C 	0.62444 0.20535 0.59097 -0.07200
H 	H 	0.64270 0.18850 0.57770 0.05800
C 	C 	0.59097 0.23606 0.58255 0.07600
C 	C 	0.57935 0.24819 0.55281 -0.12100
C 	C 	0.44054 0.38504 0.53385 0.05800
C 	C 	0.42214 0.40482 0.51470 -0.08600
C 	C 	0.39962 0.42747 0.49060 0.11300
C 	C 	0.41038 0.41843 0.46033 -0.15300
H 	H 	0.43390 0.39820 0.45550 0.08600
C 	C 	0.38659 0.43910 0.43764 0.08800
H 	H 	0.39290 0.43200 0.41720 0.01500
C 	C 	0.35426 0.46935 0.44374 -0.15000
C 	C 	0.34442 0.47953 0.47367 0.08200
H 	H 	0.32220 0.50100 0.47790 0.02100
C 	C 	0.36587 0.45940 0.49693 -0.15100
H 	H 	0.35850 0.46650 0.51730 0.08300
C 	C 	0.32814 0.49180 0.41877 0.40500
O 	O 	0.33458 0.47783 0.39229 -0.51800
O 	O 	0.30177 0.52120 0.42563 -0.50000
C 	C 	0.45098 0.38311 0.68935 0.06000
C 	C 	0.43564 0.40396 0.70901 -0.08900
C 	C 	0.41479 0.42821 0.73261 0.11500
C 	C 	0.37980 0.45565 0.72682 -0.14200
H 	H 	0.37040 0.46050 0.70650 0.08400
C 	C 	0.35730 0.47708 0.74991 0.05700
H 	H 	0.33200 0.49590 0.74550 0.03900
C 	C 	0.37220 0.47070 0.77978 -0.10400
C 	C 	0.40950 0.44417 0.78534 0.05900
H 	H 	0.42050 0.44060 0.80550 0.03000
C 	C 	0.43132 0.42273 0.76257 -0.14000
H 	H 	0.45720 0.40440 0.76680 0.08000
C 	C 	0.34597 0.49092 0.80565 0.32100
O 	O 	0.30585 0.50943 0.80083 -0.38700
O 	O 	0.36343 0.48806 0.83142 -0.41100
C 	C 	0.60994 0.21960 0.68490 0.05900
C 	C 	0.63205 0.19930 0.70245 -0.09400
C 	C 	0.65714 0.17319 0.72249 0.13200
C 	C 	0.64620 0.17117 0.75219 -0.16100
H 	H 	0.62150 0.18840 0.76010 0.08700
C 	C 	0.67030 0.14435 0.77156 0.07700
H 	H 	0.66210 0.14370 0.79240 0.02100
C 	C 	0.70520 0.11940 0.76086 -0.12700
C 	C 	0.71530 0.12034 0.72963 0.07700
H 	H 	0.73830 0.10180 0.72130 0.02700
C 	C 	0.69270 0.14730 0.71142 -0.16000
H 	H 	0.70130 0.14860 0.69060 0.08700
C 	C 	0.73020 0.08959 0.78157 0.35500
O 	O 	0.71954 0.08899 0.80845 -0.28100
O 	O 	0.75816 0.06178 0.76712 -0.44100
H 	H 	0.77620 0.05000 0.77970 0.28400
C 	C 	0.60347 0.22673 0.52913 0.06200
C 	C 	0.62319 0.20905 0.50873 -0.09300
C 	C 	0.64509 0.18733 0.48443 0.13000
C 	C 	0.67732 0.15713 0.49013 -0.16600
H 	H 	0.68590 0.15090 0.51040 0.09000
C 	C 	0.69781 0.13530 0.46678 0.08300
H 	H 	0.72000 0.11380 0.47100 0.02200
C 	C 	0.68607 0.14465 0.43747 -0.13900
C 	C 	0.65420 0.17518 0.43144 0.08100
H 	H 	0.64620 0.18150 0.41110 0.01700
C 	C 	0.63352 0.19683 0.45451 -0.16300
H 	H 	0.61130 0.21830 0.45020 0.08600
C 	C 	0.70836 0.11982 0.41217 0.36200
O 	O 	0.73386 0.08985 0.42075 -0.47200
O 	O 	0.70072 0.12988 0.38545 -0.30900
N 	N 	0.59138 0.34997 0.60887 -0.21100
N 	N 	0.66353 0.40023 0.60708 -0.22400
Zn	Zn	0.27891 0.56072 0.39590 1.21300
Zn	Zn	0.30411 0.48179 0.35104 1.20200
O 	O 	0.26523 0.53860 0.35657 -0.66400
C 	C 	0.61160 0.35312 0.57781 -0.00100
C 	C 	0.57970 0.38840 0.62660 0.00400
C 	C 	0.63030 0.33664 0.62885 0.00600
C 	C 	0.64840 0.39090 0.57646 0.02700
C 	C 	0.67990 0.36190 0.62419 -0.02100
C 	C 	0.62260 0.41720 0.62560 0.01100
C 	C 	0.61690 0.42410 0.60320 -0.01200
C 	C 	0.66990 0.37100 0.58000 -0.02300
C 	C 	0.66230 0.38020 0.63570 0.03700
C 	C 	0.57270 0.39430 0.61100 -0.00600
Zn	Zn	0.46932 0.19288 0.60933 1.17700
N 	N 	0.47896 0.19666 0.56311 -0.27700
N 	N 	0.52444 0.15070 0.61082 -0.27500
N 	N 	0.47414 0.19898 0.65586 -0.27700
N 	N 	0.42937 0.24599 0.60826 -0.29100
C 	C 	0.45273 0.22098 0.54382 0.09000
C 	C 	0.46413 0.20985 0.51309 -0.06900
H 	H 	0.45140 0.22230 0.49540 0.05600
C 	C 	0.49535 0.17930 0.51386 -0.07700
H 	H 	0.50880 0.16540 0.49690 0.05900
C 	C 	0.50510 0.17099 0.54531 0.10000
C 	C 	0.53631 0.13997 0.55610 -0.12100
C 	C 	0.54571 0.13070 0.58660 0.09600
C 	C 	0.57726 0.09932 0.59696 -0.07400
H 	H 	0.59630 0.08140 0.58490 0.05700
C 	C 	0.57470 0.10020 0.62775 -0.08100
H 	H 	0.59180 0.08280 0.64130 0.06100
C 	C 	0.54215 0.13154 0.63589 0.10300
C 	C 	0.52910 0.14168 0.66571 -0.12700
C 	C 	0.49821 0.17384 0.67483 0.10300
C 	C 	0.48739 0.18451 0.70548 -0.08300
H 	H 	0.49970 0.17150 0.72310 0.05600
C 	C 	0.45669 0.21626 0.70483 -0.06700
H 	H 	0.44370 0.23010 0.72190 0.05100
C 	C 	0.44706 0.22550 0.67347 0.08700
C 	C 	0.41628 0.25585 0.66266 -0.12100
C 	C 	0.40712 0.26556 0.63199 0.08100
C 	C 	0.37457 0.29550 0.62134 -0.07600
H 	H 	0.35530 0.31320 0.63350 0.06000
C 	C 	0.37556 0.29465 0.59097 -0.07200
H 	H 	0.35730 0.31150 0.57770 0.05800
C 	C 	0.40903 0.26394 0.58255 0.07600
C 	C 	0.42065 0.25181 0.55281 -0.12100
C 	C 	0.55946 0.11496 0.53385 0.05800
C 	C 	0.57786 0.09518 0.51470 -0.08600
C 	C 	0.60038 0.07253 0.49060 0.11300
C 	C 	0.58962 0.08157 0.46033 -0.15300
H 	H 	0.56610 0.10180 0.45550 0.08600
C 	C 	0.61341 0.06090 0.43764 0.08800
H 	H 	0.60710 0.06800 0.41720 0.01500
C 	C 	0.64574 0.03065 0.44374 -0.15000
C 	C 	0.65558 0.02047 0.47367 0.08200
H 	H 	0.67780 0.99900 0.47790 0.02100
C 	C 	0.63413 0.04060 0.49693 -0.15100
H 	H 	0.64150 0.03350 0.51730 0.08300
C 	C 	0.67186 0.00820 0.41877 0.40500
O 	O 	0.66542 0.02217 0.39229 -0.51800
O 	O 	0.69823 0.97880 0.42563 -0.50000
C 	C 	0.54902 0.11689 0.68935 0.06000
C 	C 	0.56436 0.09604 0.70901 -0.08900
C 	C 	0.58521 0.07179 0.73261 0.11500
C 	C 	0.62020 0.04435 0.72682 -0.14200
H 	H 	0.62960 0.03950 0.70650 0.08400
C 	C 	0.64270 0.02292 0.74991 0.05700
H 	H 	0.66800 0.00410 0.74550 0.03900
C 	C 	0.62780 0.02930 0.77978 -0.10400
C 	C 	0.59050 0.05583 0.78534 0.05900
H 	H 	0.57950 0.05940 0.80550 0.03000
C 	C 	0.56868 0.07727 0.76257 -0.14000
H 	H 	0.54280 0.09560 0.76680 0.08000
C 	C 	0.65403 0.00908 0.80565 0.32100
O 	O 	0.69415 0.99057 0.80083 -0.38700
O 	O 	0.63657 0.01194 0.83142 -0.41100
C 	C 	0.39006 0.28040 0.68490 0.05900
C 	C 	0.36795 0.30070 0.70245 -0.09400
C 	C 	0.34286 0.32681 0.72249 0.13200
C 	C 	0.35380 0.32883 0.75219 -0.16100
H 	H 	0.37850 0.31160 0.76010 0.08700
C 	C 	0.32970 0.35565 0.77156 0.07700
H 	H 	0.33790 0.35630 0.79240 0.02100
C 	C 	0.29480 0.38060 0.76086 -0.12700
C 	C 	0.28470 0.37966 0.72963 0.07700
H 	H 	0.26170 0.39820 0.72130 0.02700
C 	C 	0.30730 0.35270 0.71142 -0.16000
H 	H 	0.29870 0.35140 0.69060 0.08700
C 	C 	0.26980 0.41041 0.78157 0.35500
O 	O 	0.28046 0.41101 0.80845 -0.28100
O 	O 	0.24184 0.43822 0.76712 -0.44100
H 	H 	0.22380 0.45000 0.77970 0.28400
C 	C 	0.39653 0.27327 0.52913 0.06200
C 	C 	0.37681 0.29095 0.50873 -0.09300
C 	C 	0.35491 0.31267 0.48443 0.13000
C 	C 	0.32268 0.34287 0.49013 -0.16600
H 	H 	0.31410 0.34910 0.51040 0.09000
C 	C 	0.30219 0.36470 0.46678 0.08300
H 	H 	0.28000 0.38620 0.47100 0.02200
C 	C 	0.31393 0.35535 0.43747 -0.13900
C 	C 	0.34580 0.32482 0.43144 0.08100
H 	H 	0.35380 0.31850 0.41110 0.01700
C 	C 	0.36648 0.30317 0.45451 -0.16300
H 	H 	0.38870 0.28170 0.45020 0.08600
C 	C 	0.29164 0.38018 0.41217 0.36200
O 	O 	0.26614 0.41015 0.42075 -0.47200
O 	O 	0.29928 0.37012 0.38545 -0.30900
N 	N 	0.40862 0.15003 0.60887 -0.21100
N 	N 	0.33647 0.09977 0.60708 -0.22400
Zn	Zn	0.72109 0.93928 0.39590 1.21300
Zn	Zn	0.69589 0.01821 0.35104 1.20200
O 	O 	0.73477 0.96140 0.35657 -0.66400
C 	C 	0.38840 0.14688 0.57781 -0.00100
C 	C 	0.42030 0.11160 0.62660 0.00400
C 	C 	0.36970 0.16336 0.62885 0.00600
C 	C 	0.35160 0.10910 0.57646 0.02700
C 	C 	0.32010 0.13810 0.62419 -0.02100
C 	C 	0.37740 0.08280 0.62560 0.01100
C 	C 	0.38310 0.07590 0.60320 -0.01200
C 	C 	0.33010 0.12900 0.58000 -0.02300
C 	C 	0.33770 0.11980 0.63570 0.03700
C 	C 	0.42730 0.10570 0.61100 -0.00600
Zn	Zn	0.96932 0.69288 0.60933 1.17700
N 	N 	0.97896 0.69666 0.56311 -0.27700
N 	N 	0.02444 0.65070 0.61082 -0.27500
N 	N 	0.97414 0.69898 0.65586 -0.27700
N 	N 	0.92937 0.74599 0.60826 -0.29100
C 	C 	0.95273 0.72098 0.54382 0.09000
C 	C 	0.96413 0.70985 0.51309 -0.06900
H 	H 	0.95140 0.72230 0.49540 0.05600
C 	C 	0.99535 0.67930 0.51386 -0.07700
H 	H 	0.00880 0.66540 0.49690 0.05900
C 	C 	0.00510 0.67099 0.54531 0.10000
C 	C 	0.03631 0.63997 0.55610 -0.12100
C 	C 	0.04571 0.63070 0.58660 0.09600
C 	C 	0.07726 0.59932 0.59696 -0.07400
H 	H 	0.09630 0.58140 0.58490 0.05700
C 	C 	0.07470 0.60020 0.62775 -0.08100
H 	H 	0.09180 0.58280 0.64130 0.06100
C 	C 	0.04215 0.63154 0.63589 0.10300
C 	C 	0.02910 0.64168 0.66571 -0.12700
C 	C 	0.99821 0.67384 0.67483 0.10300
C 	C 	0.98739 0.68451 0.70548 -0.08300
H 	H 	0.99970 0.67150 0.72310 0.05600
C 	C 	0.95669 0.71626 0.70483 -0.06700
H 	H 	0.94370 0.73010 0.72190 0.05100
C 	C 	0.94706 0.72550 0.67347 0.08700
C 	C 	0.91628 0.75585 0.66266 -0.12100
C 	C 	0.90712 0.76556 0.63199 0.08100
C 	C 	0.87457 0.79550 0.62134 -0.07600
H 	H 	0.85530 0.81320 0.63350 0.06000
C 	C 	0.87556 0.79465 0.59097 -0.07200
H 	H 	0.85730 0.81150 0.57770 0.05800
C 	C 	0.90903 0.76394 0.58255 0.07600
C 	C 	0.92065 0.75181 0.55281 -0.12100
C 	C 	0.05946 0.61496 0.53385 0.05800
C 	C 	0.07786 0.59518 0.51470 -0.08600
C 	C 	0.10038 0.57253 0.49060 0.11300
C 	C 	0.08962 0.58157 0.46033 -0.15300
H 	H 	0.06610 0.60180 0.45550 0.08600
C 	C 	0.11341 0.56090 0.43764 0.08800
H 	H 	0.10710 0.56800 0.41720 0.01500
C 	C 	0.14574 0.53065 0.44374 -0.15000
C 	C 	0.15558 0.52047 0.47367 0.08200
H 	H 	0.17780 0.49900 0.47790 0.02100
C 	C 	0.13413 0.54060 0.49693 -0.15100
H 	H 	0.14150 0.53350 0.51730 0.08300
C 	C 	0.17186 0.50820 0.41877 0.40500
O 	O 	0.16542 0.52217 0.39229 -0.51800
O 	O 	0.19823 0.47880 0.42563 -0.50000
C 	C 	0.04902 0.61689 0.68935 0.06000
C 	C 	0.06436 0.59604 0.70901 -0.08900
C 	C 	0.08521 0.57179 0.73261 0.11500
C 	C 	0.12020 0.54435 0.72682 -0.14200
H 	H 	0.12960 0.53950 0.70650 0.08400
C 	C 	0.14270 0.52292 0.74991 0.05700
H 	H 	0.16800 0.50410 0.74550 0.03900
C 	C 	0.12780 0.52930 0.77978 -0.10400
C 	C 	0.09050 0.55583 0.78534 0.05900
H 	H 	0.07950 0.55940 0.80550 0.03000
C 	C 	0.06868 0.57727 0.76257 -0.14000
H 	H 	0.04280 0.59560 0.76680 0.08000
C 	C 	0.15403 0.50908 0.80565 0.32100
O 	O 	0.19415 0.49057 0.80083 -0.38700
O 	O 	0.13657 0.51194 0.83142 -0.41100
C 	C 	0.89006 0.78040 0.68490 0.05900
C 	C 	0.86795 0.80070 0.70245 -0.09400
C 	C 	0.84286 0.82681 0.72249 0.13200
C 	C 	0.85380 0.82883 0.75219 -0.16100
H 	H 	0.87850 0.81160 0.76010 0.08700
C 	C 	0.82970 0.85565 0.77156 0.07700
H 	H 	0.83790 0.85630 0.79240 0.02100
C 	C 	0.79480 0.88060 0.76086 -0.12700
C 	C 	0.78470 0.87966 0.72963 0.07700
H 	H 	0.76170 0.89820 0.72130 0.02700
C 	C 	0.80730 0.85270 0.71142 -0.16000
H 	H 	0.79870 0.85140 0.69060 0.08700
C 	C 	0.76980 0.91041 0.78157 0.35500
O 	O 	0.78046 0.91101 0.80845 -0.28100
O 	O 	0.74184 0.93822 0.76712 -0.44100
H 	H 	0.72380 0.95000 0.77970 0.28400
C 	C 	0.89653 0.77327 0.52913 0.06200
C 	C 	0.87681 0.79095 0.50873 -0.09300
C 	C 	0.85491 0.81267 0.48443 0.13000
C 	C 	0.82268 0.84287 0.49013 -0.16600
H 	H 	0.81410 0.84910 0.51040 0.09000
C 	C 	0.80219 0.86470 0.46678 0.08300
H 	H 	0.78000 0.88620 0.47100 0.02200
C 	C 	0.81393 0.85535 0.43747 -0.13900
C 	C 	0.84580 0.82482 0.43144 0.08100
H 	H 	0.85380 0.81850 0.41110 0.01700
C 	C 	0.86648 0.80317 0.45451 -0.16300
H 	H 	0.88870 0.78170 0.45020 0.08600
C 	C 	0.79164 0.88018 0.41217 0.36200
O 	O 	0.76614 0.91015 0.42075 -0.47200
O 	O 	0.79928 0.87012 0.38545 -0.30900
N 	N 	0.90862 0.65003 0.60887 -0.21100
N 	N 	0.83647 0.59977 0.60708 -0.22400
Zn	Zn	0.22109 0.43928 0.39590 1.21300
Zn	Zn	0.19589 0.51821 0.35104 1.20200
O 	O 	0.23477 0.46140 0.35657 -0.66400
C 	C 	0.88840 0.64688 0.57781 -0.00100
C 	C 	0.92030 0.61160 0.62660 0.00400
C 	C 	0.86970 0.66336 0.62885 0.00600
C 	C 	0.85160 0.60910 0.57646 0.02700
C 	C 	0.82010 0.63810 0.62419 -0.02100
C 	C 	0.87740 0.58280 0.62560 0.01100
C 	C 	0.88310 0.57590 0.60320 -0.01200
C 	C 	0.83010 0.62900 0.58000 -0.02300
C 	C 	0.83770 0.61980 0.63570 0.03700
C 	C 	0.92730 0.60570 0.61100 -0.00600
