data_crystal

_cell_length_a 7.41300
_cell_length_b 23.88900
_cell_length_c 7.46700
_cell_angle_alpha 90.00000
_cell_angle_beta  92.22400
_cell_angle_gamma 90.00000

_symmetry_space_group_name_	'P 1'
_symmetry_space_group_name_H-M	'P 1'

loop_
_symmetry_equiv_pos_as_xyz
  x,y,z

loop_
_atom_site_label
_atom_site_type_symbol
_atom_site_fract_x
_atom_site_fract_y
_atom_site_fract_z
_atom_site_charge
O 	O 	0.53180 0.24248 0.66210 -0.50200
C 	C 	0.61330 0.19626 0.68030 0.54800
O 	O 	0.72160 0.17713 0.57090 -0.49100
C 	C 	0.57860 0.16042 0.84500 -0.73200
H 	H 	0.65540 0.12760 0.84360 0.26400
H 	H 	0.45410 0.14780 0.83910 0.23100
C 	C 	0.61460 0.19209 0.02080 0.54600
O 	O 	0.73230 0.17264 0.12920 -0.49200
O 	O 	0.52420 0.23563 0.04830 -0.50900
Mn	Mn	0.36503 0.28479 0.85513 1.28900
N 	N 	0.57550 0.35443 0.90090 -0.23800
C 	C 	0.54430 0.40010 0.99470 0.08900
H 	H 	0.43110 0.40480 0.04190 -0.00300
C 	C 	0.67490 0.44140 0.02580 -0.19000
H 	H 	0.64760 0.47240 0.09500 0.09100
C 	C 	0.84220 0.43710 0.95610 0.13800
C 	C 	0.87140 0.39050 0.86590 -0.21300
H 	H 	0.98380 0.38470 0.81780 0.10100
C 	C 	0.74060 0.35050 0.84180 0.11400
H 	H 	0.77000 0.31830 0.77930 -0.02200
C 	C 	0.98830 0.47860 0.96910 -0.09100
H 	H 	0.08940 0.46630 0.91050 0.05800
O 	O 	0.96820 0.74248 0.83790 -0.49100
C 	C 	0.88670 0.69626 0.81970 0.53800
O 	O 	0.77840 0.67713 0.92910 -0.48300
C 	C 	0.92140 0.66042 0.65500 -0.69900
H 	H 	0.84460 0.62760 0.65640 0.25700
H 	H 	0.04590 0.64780 0.66090 0.21500
C 	C 	0.88540 0.69209 0.47920 0.53300
O 	O 	0.76770 0.67264 0.37080 -0.48500
O 	O 	0.97580 0.73563 0.45170 -0.50300
Mn	Mn	0.13497 0.78479 0.64487 1.28700
N 	N 	0.92450 0.85443 0.59910 -0.24100
C 	C 	0.95570 0.90010 0.50530 0.12000
H 	H 	0.06890 0.90480 0.45810 -0.02000
C 	C 	0.82510 0.94140 0.47420 -0.21100
H 	H 	0.85240 0.97240 0.40500 0.09800
C 	C 	0.65780 0.93710 0.54390 0.15100
C 	C 	0.62860 0.89050 0.63410 -0.22100
H 	H 	0.51620 0.88470 0.68220 0.10700
C 	C 	0.75940 0.85050 0.65820 0.12200
H 	H 	0.73000 0.81830 0.72070 -0.02100
C 	C 	0.51170 0.97860 0.53090 -0.09800
H 	H 	0.41060 0.96630 0.58950 0.06100
O 	O 	0.46820 0.75752 0.33790 -0.50300
C 	C 	0.38670 0.80374 0.31970 0.54700
O 	O 	0.27840 0.82287 0.42910 -0.49200
C 	C 	0.42140 0.83958 0.15500 -0.73300
H 	H 	0.34460 0.87240 0.15640 0.26400
H 	H 	0.54590 0.85220 0.16090 0.23100
C 	C 	0.38540 0.80791 0.97920 0.54600
O 	O 	0.26770 0.82736 0.87080 -0.49200
O 	O 	0.47580 0.76437 0.95170 -0.50900
Mn	Mn	0.63497 0.71521 0.14487 1.28900
N 	N 	0.42450 0.64557 0.09910 -0.23800
C 	C 	0.45570 0.59990 0.00530 0.08900
H 	H 	0.56890 0.59520 0.95810 -0.00300
C 	C 	0.32510 0.55860 0.97420 -0.19000
H 	H 	0.35240 0.52760 0.90500 0.09100
C 	C 	0.15780 0.56290 0.04390 0.13800
C 	C 	0.12860 0.60950 0.13410 -0.21300
H 	H 	0.01620 0.61530 0.18220 0.10100
C 	C 	0.25940 0.64950 0.15820 0.11400
H 	H 	0.23000 0.68170 0.22070 -0.02200
C 	C 	0.01170 0.52140 0.03090 -0.09100
H 	H 	0.91060 0.53370 0.08950 0.05800
O 	O 	0.03180 0.25752 0.16210 -0.49100
C 	C 	0.11330 0.30374 0.18030 0.53800
O 	O 	0.22160 0.32287 0.07090 -0.48300
C 	C 	0.07860 0.33958 0.34500 -0.69900
H 	H 	0.15540 0.37240 0.34360 0.25700
H 	H 	0.95410 0.35220 0.33910 0.21500
C 	C 	0.11460 0.30791 0.52080 0.53300
O 	O 	0.23230 0.32736 0.62920 -0.48500
O 	O 	0.02420 0.26437 0.54830 -0.50300
Mn	Mn	0.86503 0.21521 0.35513 1.28700
N 	N 	0.07550 0.14557 0.40090 -0.24100
C 	C 	0.04430 0.09990 0.49470 0.12000
H 	H 	0.93110 0.09520 0.54190 -0.02000
C 	C 	0.17490 0.05860 0.52580 -0.21100
H 	H 	0.14760 0.02760 0.59500 0.09800
C 	C 	0.34220 0.06290 0.45610 0.15100
C 	C 	0.37140 0.10950 0.36590 -0.22100
H 	H 	0.48380 0.11530 0.31780 0.10700
C 	C 	0.24060 0.14950 0.34180 0.12200
H 	H 	0.27000 0.18170 0.27930 -0.02100
C 	C 	0.48830 0.02140 0.46910 -0.09800
H 	H 	0.58940 0.03370 0.41050 0.06100
