data_crystal

_cell_length_a 18.60190
_cell_length_b 18.60190
_cell_length_c 18.60190
_cell_angle_alpha 60.00000
_cell_angle_beta  60.00000
_cell_angle_gamma 60.00000

_symmetry_space_group_name_	'P 1'
_symmetry_space_group_name_H-M	'P 1'

loop_
_symmetry_equiv_pos_as_xyz
  x,y,z

loop_
_atom_site_label
_atom_site_type_symbol
_atom_site_fract_x
_atom_site_fract_y
_atom_site_fract_z
_atom_site_charge
Cu	Cu	0.07046 0.50000 0.92954 0.90300
Cu	Cu	0.50000 0.07046 0.50000 0.90300
Cu	Cu	0.92954 0.50000 0.07046 0.90300
Cu	Cu	0.50000 0.92954 0.50000 0.90300
Cu	Cu	0.07046 0.92954 0.50000 0.90300
Cu	Cu	0.50000 0.50000 0.92954 0.90300
Cu	Cu	0.92954 0.07046 0.50000 0.90300
Cu	Cu	0.50000 0.50000 0.07046 0.90300
Cu	Cu	0.07046 0.50000 0.50000 0.90300
Cu	Cu	0.50000 0.92954 0.07046 0.90300
Cu	Cu	0.92954 0.50000 0.50000 0.90300
Cu	Cu	0.50000 0.07046 0.92954 0.90300
H 	H 	0.77180 0.46500 0.99140 0.05000
H 	H 	0.46500 0.77180 0.77180 0.05100
H 	H 	0.99140 0.77180 0.77180 0.05000
H 	H 	0.77180 0.99140 0.46500 0.05000
H 	H 	0.77180 0.99140 0.77180 0.05000
H 	H 	0.46500 0.77180 0.99140 0.05000
H 	H 	0.99140 0.77180 0.46500 0.05000
H 	H 	0.77180 0.46500 0.77180 0.05100
H 	H 	0.77180 0.77180 0.46500 0.05100
H 	H 	0.46500 0.99140 0.77180 0.05000
H 	H 	0.99140 0.46500 0.77180 0.05000
H 	H 	0.77180 0.77180 0.99140 0.05000
H 	H 	0.53500 0.22820 0.00860 0.05000
H 	H 	0.22820 0.53500 0.22820 0.05100
H 	H 	0.22820 0.00860 0.22820 0.05000
H 	H 	0.00860 0.22820 0.53500 0.05000
H 	H 	0.00860 0.22820 0.22820 0.05000
H 	H 	0.22820 0.53500 0.00860 0.05000
H 	H 	0.22820 0.00860 0.53500 0.05000
H 	H 	0.53500 0.22820 0.22820 0.05100
H 	H 	0.22820 0.22820 0.53500 0.05100
H 	H 	0.00860 0.53500 0.22820 0.05000
H 	H 	0.53500 0.00860 0.22820 0.05000
H 	H 	0.22820 0.22820 0.00860 0.05000
C 	C 	0.80100 0.46600 0.93200 0.04700
C 	C 	0.46600 0.80100 0.80100 0.04800
C 	C 	0.93200 0.80100 0.80100 0.04000
C 	C 	0.80100 0.93200 0.46600 0.04700
C 	C 	0.80100 0.93200 0.80100 0.04000
C 	C 	0.46600 0.80100 0.93200 0.04700
C 	C 	0.93200 0.80100 0.46600 0.04700
C 	C 	0.80100 0.46600 0.80100 0.04800
C 	C 	0.80100 0.80100 0.46600 0.04800
C 	C 	0.46600 0.93200 0.80100 0.04700
C 	C 	0.93200 0.46600 0.80100 0.04700
C 	C 	0.80100 0.80100 0.93200 0.04000
C 	C 	0.53400 0.19900 0.06800 0.04700
C 	C 	0.19900 0.53400 0.19900 0.04800
C 	C 	0.19900 0.06800 0.19900 0.04000
C 	C 	0.06800 0.19900 0.53400 0.04700
C 	C 	0.06800 0.19900 0.19900 0.04000
C 	C 	0.19900 0.53400 0.06800 0.04700
C 	C 	0.19900 0.06800 0.53400 0.04700
C 	C 	0.53400 0.19900 0.19900 0.04800
C 	C 	0.19900 0.19900 0.53400 0.04800
C 	C 	0.06800 0.53400 0.19900 0.04700
C 	C 	0.53400 0.06800 0.19900 0.04700
C 	C 	0.19900 0.19900 0.06800 0.04000
C 	C 	0.88930 0.46670 0.88930 -0.10200
C 	C 	0.93120 0.47560 0.93120 0.33600
C 	C 	0.46670 0.88930 0.75470 -0.10400
C 	C 	0.47560 0.93120 0.66200 0.34800
C 	C 	0.88930 0.75470 0.88930 -0.09800
C 	C 	0.93120 0.66200 0.93120 0.32900
C 	C 	0.75470 0.88930 0.46670 -0.10400
C 	C 	0.66200 0.93120 0.47560 0.34800
C 	C 	0.88930 0.88930 0.75470 -0.09800
C 	C 	0.93120 0.93120 0.66200 0.32900
C 	C 	0.46670 0.75470 0.88930 -0.10400
C 	C 	0.47560 0.66200 0.93120 0.34800
C 	C 	0.88930 0.88930 0.46670 -0.10200
C 	C 	0.93120 0.93120 0.47560 0.33600
C 	C 	0.75470 0.46670 0.88930 -0.10400
C 	C 	0.66200 0.47560 0.93120 0.34800
C 	C 	0.88930 0.75470 0.46670 -0.10400
C 	C 	0.93120 0.66200 0.47560 0.34800
C 	C 	0.46670 0.88930 0.88930 -0.10200
C 	C 	0.47560 0.93120 0.93120 0.33600
C 	C 	0.88930 0.46670 0.75470 -0.10400
C 	C 	0.93120 0.47560 0.66200 0.34800
C 	C 	0.75470 0.88930 0.88930 -0.09800
C 	C 	0.66200 0.93120 0.93120 0.32900
C 	C 	0.53330 0.11070 0.11070 -0.10200
C 	C 	0.52440 0.06880 0.06880 0.33600
C 	C 	0.11070 0.53330 0.24530 -0.10400
C 	C 	0.06880 0.52440 0.33800 0.34800
C 	C 	0.24530 0.11070 0.11070 -0.09800
C 	C 	0.33800 0.06880 0.06880 0.32900
C 	C 	0.11070 0.24530 0.53330 -0.10400
C 	C 	0.06880 0.33800 0.52440 0.34800
C 	C 	0.11070 0.11070 0.24530 -0.09800
C 	C 	0.06880 0.06880 0.33800 0.32900
C 	C 	0.24530 0.53330 0.11070 -0.10400
C 	C 	0.33800 0.52440 0.06880 0.34800
C 	C 	0.11070 0.11070 0.53330 -0.10200
C 	C 	0.06880 0.06880 0.52440 0.33600
C 	C 	0.53330 0.24530 0.11070 -0.10400
C 	C 	0.52440 0.33800 0.06880 0.34800
C 	C 	0.24530 0.11070 0.53330 -0.10400
C 	C 	0.33800 0.06880 0.52440 0.34800
C 	C 	0.11070 0.53330 0.11070 -0.10200
C 	C 	0.06880 0.52440 0.06880 0.33600
C 	C 	0.53330 0.11070 0.24530 -0.10400
C 	C 	0.52440 0.06880 0.33800 0.34800
C 	C 	0.11070 0.24530 0.11070 -0.09800
C 	C 	0.06880 0.33800 0.06880 0.32900
O 	O 	0.00890 0.47870 0.88610 -0.39000
O 	O 	0.47870 0.00890 0.62630 -0.39600
O 	O 	0.88610 0.62630 0.00890 -0.38700
O 	O 	0.62630 0.88610 0.47870 -0.39800
O 	O 	0.00890 0.88610 0.62630 -0.38700
O 	O 	0.47870 0.62630 0.88610 -0.39800
O 	O 	0.88610 0.00890 0.47870 -0.39000
O 	O 	0.62630 0.47870 0.00890 -0.39600
O 	O 	0.00890 0.62630 0.47870 -0.39600
O 	O 	0.47870 0.88610 0.00890 -0.39000
O 	O 	0.88610 0.47870 0.62630 -0.39800
O 	O 	0.62630 0.00890 0.88610 -0.38700
O 	O 	0.52130 0.99110 0.11390 -0.39000
O 	O 	0.99110 0.52130 0.37370 -0.39600
O 	O 	0.37370 0.11390 0.99110 -0.38700
O 	O 	0.11390 0.37370 0.52130 -0.39800
O 	O 	0.11390 0.99110 0.37370 -0.38700
O 	O 	0.37370 0.52130 0.11390 -0.39800
O 	O 	0.99110 0.11390 0.52130 -0.39000
O 	O 	0.52130 0.37370 0.99110 -0.39600
O 	O 	0.37370 0.99110 0.52130 -0.39600
O 	O 	0.11390 0.52130 0.99110 -0.39000
O 	O 	0.52130 0.11390 0.37370 -0.39800
O 	O 	0.99110 0.37370 0.11390 -0.38700
O 	O 	0.99110 0.52130 0.11390 -0.39000
O 	O 	0.52130 0.99110 0.37370 -0.39600
O 	O 	0.11390 0.37370 0.99110 -0.38700
O 	O 	0.37370 0.11390 0.52130 -0.39800
O 	O 	0.99110 0.11390 0.37370 -0.38700
O 	O 	0.52130 0.37370 0.11390 -0.39800
O 	O 	0.11390 0.99110 0.52130 -0.39000
O 	O 	0.37370 0.52130 0.99110 -0.39600
O 	O 	0.99110 0.37370 0.52130 -0.39600
O 	O 	0.52130 0.11390 0.99110 -0.39000
O 	O 	0.11390 0.52130 0.37370 -0.39800
O 	O 	0.37370 0.99110 0.11390 -0.38700
O 	O 	0.47870 0.00890 0.88610 -0.39000
O 	O 	0.00890 0.47870 0.62630 -0.39600
O 	O 	0.62630 0.88610 0.00890 -0.38700
O 	O 	0.88610 0.62630 0.47870 -0.39800
O 	O 	0.88610 0.00890 0.62630 -0.38700
O 	O 	0.62630 0.47870 0.88610 -0.39800
O 	O 	0.00890 0.88610 0.47870 -0.39000
O 	O 	0.47870 0.62630 0.00890 -0.39600
O 	O 	0.62630 0.00890 0.47870 -0.39600
O 	O 	0.88610 0.47870 0.00890 -0.39000
O 	O 	0.47870 0.88610 0.62630 -0.39800
O 	O 	0.00890 0.62630 0.88610 -0.38700
