data_crystal

_cell_length_a 27.16500
_cell_length_b 13.74500
_cell_length_c 46.16200
_cell_angle_alpha 90.00000
_cell_angle_beta  90.00000
_cell_angle_gamma 90.00000

_symmetry_space_group_name_	'P 1'
_symmetry_space_group_name_H-M	'P 1'

loop_
_symmetry_equiv_pos_as_xyz
  x,y,z

loop_
_atom_site_label
_atom_site_type_symbol
_atom_site_fract_x
_atom_site_fract_y
_atom_site_fract_z
_atom_site_charge
Zn	Zn	0.75044 0.14559 0.19256 1.16400
Zn	Zn	0.46429 0.84555 0.40430 1.16300
Zn	Zn	0.95086 0.85653 0.43566 1.16300
I 	I 	0.69729 0.29735 0.20088 -0.36500
I 	I 	0.84194 0.16188 0.18123 -0.37400
I 	I 	0.47429 0.75766 0.45262 -0.37800
I 	I 	0.41986 0.77142 0.36105 -0.36100
I 	I 	0.01784 0.94634 0.40815 -0.36700
I 	I 	0.95903 0.67950 0.45157 -0.37000
C 	C 	0.69850 0.05680 0.24182 0.06300
H 	H 	0.67080 0.07960 0.23130 -0.00900
C 	C 	0.69120 0.01950 0.26916 -0.11400
H 	H 	0.65910 0.01530 0.27710 0.08100
C 	C 	0.73180 0.98790 0.28489 0.05000
C 	C 	0.77790 0.99130 0.27175 -0.11100
H 	H 	0.80620 0.96820 0.28170 0.08200
C 	C 	0.78180 0.02850 0.24424 0.06700
H 	H 	0.81330 0.03020 0.23530 0.00200
C 	C 	0.57250 0.88530 0.40570 0.06200
H 	H 	0.56760 0.87780 0.42600 -0.00600
C 	C 	0.61990 0.89780 0.39561 -0.11200
H 	H 	0.64700 0.89840 0.40860 0.07800
C 	C 	0.62710 0.90930 0.36605 0.05000
C 	C 	0.58650 0.91050 0.34776 -0.11200
H 	H 	0.59030 0.92130 0.32760 0.08000
C 	C 	0.54030 0.89570 0.35968 0.06100
H 	H 	0.51260 0.89420 0.34710 -0.00400
C 	C 	0.89140 0.89870 0.38258 0.06200
H 	H 	0.92320 0.90500 0.37430 -0.00900
C 	C 	0.85080 0.91300 0.36509 -0.11600
H 	H 	0.85480 0.92840 0.34520 0.08000
C 	C 	0.80400 0.90460 0.37702 0.05200
C 	C 	0.80000 0.88150 0.40594 -0.11800
H 	H 	0.76850 0.87570 0.41470 0.07800
C 	C 	0.84220 0.86680 0.42208 0.06500
H 	H 	0.83910 0.84950 0.44190 -0.01500
C 	C 	0.72610 0.95630 0.31553 0.10300
C 	C 	0.67760 0.92260 0.35386 0.10400
C 	C 	0.75980 0.91910 0.35861 0.10100
C 	C 	0.60130 0.10540 0.99129 0.06400
H 	H 	0.61210 0.17030 0.98820 -0.00900
C 	C 	0.61950 0.05480 0.01496 -0.10800
H 	H 	0.64250 0.08420 0.02770 0.07700
C 	C 	0.60330 0.95960 0.01964 0.04600
C 	C 	0.56950 0.91960 0.00059 -0.11500
H 	H 	0.55780 0.85520 0.00340 0.07700
C 	C 	0.55310 0.97480 0.97726 0.05600
H 	H 	0.52990 0.94720 0.96420 0.00100
C 	C 	0.71310 0.97000 0.16159 0.06200
H 	H 	0.72650 0.93720 0.17790 -0.01200
C 	C 	0.69240 0.91520 0.13939 -0.11000
H 	H 	0.69170 0.84620 0.14050 0.07100
C 	C 	0.67270 0.96300 0.11558 0.05100
C 	C 	0.67340 0.06440 0.11515 -0.10600
H 	H 	0.65960 0.09910 0.09930 0.07700
C 	C 	0.69470 0.11380 0.13818 0.06300
H 	H 	0.69500 0.18290 0.13790 -0.00800
C 	C 	0.57610 0.51210 0.06066 0.06800
H 	H 	0.57160 0.46860 0.04490 -0.00400
C 	C 	0.59300 0.60630 0.05496 -0.11300
H 	H 	0.59880 0.62730 0.03560 0.08200
C 	C 	0.60110 0.66860 0.07827 0.05200
C 	C 	0.59160 0.63520 0.10601 -0.12500
H 	H 	0.59720 0.67600 0.12230 0.09500
C 	C 	0.57420 0.54260 0.10965 0.07000
H 	H 	0.56740 0.52050 0.12870 -0.01000
C 	C 	0.62010 0.90540 0.04580 0.10100
C 	C 	0.65020 0.90780 0.09118 0.11000
C 	C 	0.61730 0.77030 0.07351 0.09700
N 	N 	0.74310 0.06240 0.22945 -0.27100
N 	N 	0.53290 0.88330 0.38820 -0.26900
N 	N 	0.88773 0.87620 0.41066 -0.27000
N 	N 	0.68040 0.94700 0.32578 -0.14000
N 	N 	0.71570 0.90790 0.37133 -0.14000
N 	N 	0.76726 0.94230 0.33087 -0.13900
N 	N 	0.56905 0.06630 0.97261 -0.26600
N 	N 	0.71480 0.06750 0.16079 -0.27100
N 	N 	0.56620 0.48120 0.08736 -0.27100
N 	N 	0.64290 0.95690 0.06646 -0.13600
N 	N 	0.63820 0.81560 0.09597 -0.13600
N 	N 	0.60810 0.81070 0.04746 -0.14100
Zn	Zn	0.74956 0.85441 0.69256 1.16300
Zn	Zn	0.03571 0.15445 0.90430 1.16200
Zn	Zn	0.54914 0.14347 0.93566 1.16200
I 	I 	0.80271 0.70265 0.70088 -0.36600
I 	I 	0.65806 0.83812 0.68123 -0.37500
I 	I 	0.02571 0.24234 0.95262 -0.38000
I 	I 	0.08014 0.22858 0.86105 -0.36200
I 	I 	0.48216 0.05366 0.90815 -0.36800
I 	I 	0.54097 0.32050 0.95157 -0.37100
C 	C 	0.80150 0.94320 0.74182 0.06200
H 	H 	0.82920 0.92040 0.73130 -0.01000
C 	C 	0.80880 0.98050 0.76916 -0.11600
H 	H 	0.84090 0.98470 0.77710 0.08000
C 	C 	0.76820 0.01210 0.78489 0.05000
C 	C 	0.72210 0.00870 0.77175 -0.11200
H 	H 	0.69380 0.03180 0.78170 0.08100
C 	C 	0.71820 0.97150 0.74424 0.06500
H 	H 	0.68670 0.96980 0.73530 0.00100
C 	C 	0.92750 0.11470 0.90570 0.06100
H 	H 	0.93240 0.12220 0.92600 -0.00700
C 	C 	0.88010 0.10220 0.89561 -0.11300
H 	H 	0.85300 0.10160 0.90860 0.07800
C 	C 	0.87290 0.09070 0.86605 0.04900
C 	C 	0.91350 0.08950 0.84776 -0.11300
H 	H 	0.90970 0.07870 0.82760 0.08000
C 	C 	0.95970 0.10430 0.85968 0.06100
H 	H 	0.98740 0.10580 0.84710 -0.00400
C 	C 	0.60860 0.10130 0.88258 0.06200
H 	H 	0.57680 0.09500 0.87430 -0.00900
C 	C 	0.64920 0.08700 0.86509 -0.11600
H 	H 	0.64520 0.07160 0.84520 0.08000
C 	C 	0.69600 0.09540 0.87702 0.05200
C 	C 	0.70000 0.11850 0.90594 -0.11800
H 	H 	0.73150 0.12430 0.91470 0.07800
C 	C 	0.65780 0.13320 0.92208 0.06500
H 	H 	0.66090 0.15050 0.94190 -0.01500
C 	C 	0.77390 0.04370 0.81553 0.10300
C 	C 	0.82240 0.07740 0.85386 0.10400
C 	C 	0.74020 0.08090 0.85861 0.10100
C 	C 	0.89870 0.89460 0.49129 0.06400
H 	H 	0.88790 0.82970 0.48820 -0.00900
C 	C 	0.88050 0.94520 0.51496 -0.10900
H 	H 	0.85750 0.91580 0.52770 0.07700
C 	C 	0.89670 0.04040 0.51964 0.04700
C 	C 	0.93050 0.08040 0.50059 -0.11500
H 	H 	0.94220 0.14480 0.50340 0.07700
C 	C 	0.94690 0.02520 0.47726 0.05700
H 	H 	0.97010 0.05280 0.46420 0.00100
C 	C 	0.78690 0.03000 0.66159 0.06300
H 	H 	0.77350 0.06280 0.67790 -0.01200
C 	C 	0.80760 0.08480 0.63939 -0.11100
H 	H 	0.80830 0.15380 0.64050 0.07200
C 	C 	0.82730 0.03700 0.61558 0.05300
C 	C 	0.82660 0.93560 0.61515 -0.10700
H 	H 	0.84040 0.90090 0.59930 0.07800
C 	C 	0.80530 0.88620 0.63818 0.06400
H 	H 	0.80500 0.81710 0.63790 -0.00800
C 	C 	0.92390 0.48790 0.56066 0.06800
H 	H 	0.92840 0.53140 0.54490 -0.00400
C 	C 	0.90700 0.39370 0.55496 -0.11300
H 	H 	0.90120 0.37270 0.53560 0.08200
C 	C 	0.89890 0.33140 0.57827 0.05200
C 	C 	0.90840 0.36480 0.60601 -0.12500
H 	H 	0.90280 0.32400 0.62230 0.09500
C 	C 	0.92580 0.45740 0.60965 0.07000
H 	H 	0.93260 0.47950 0.62870 -0.01000
C 	C 	0.87990 0.09460 0.54580 0.10100
C 	C 	0.84980 0.09220 0.59118 0.11000
C 	C 	0.88270 0.22970 0.57351 0.09700
N 	N 	0.75690 0.93760 0.72945 -0.27100
N 	N 	0.96710 0.11670 0.88820 -0.26900
N 	N 	0.61227 0.12380 0.91066 -0.27000
N 	N 	0.81960 0.05300 0.82578 -0.14000
N 	N 	0.78430 0.09210 0.87133 -0.14000
N 	N 	0.73274 0.05770 0.83087 -0.13900
N 	N 	0.93095 0.93370 0.47261 -0.26700
N 	N 	0.78520 0.93250 0.66079 -0.27100
N 	N 	0.93380 0.51880 0.58736 -0.27100
N 	N 	0.85710 0.04310 0.56646 -0.13600
N 	N 	0.86180 0.18440 0.59597 -0.13600
N 	N 	0.89190 0.18930 0.54746 -0.14100
Zn	Zn	0.24956 0.64559 0.30744 1.16300
Zn	Zn	0.53571 0.34555 0.09570 1.16200
Zn	Zn	0.04914 0.35653 0.06434 1.16200
I 	I 	0.30271 0.79735 0.29912 -0.36600
I 	I 	0.15806 0.66188 0.31877 -0.37500
I 	I 	0.52571 0.25766 0.04738 -0.38000
I 	I 	0.58014 0.27142 0.13895 -0.36200
I 	I 	0.98216 0.44634 0.09185 -0.36800
I 	I 	0.04097 0.17950 0.04843 -0.37100
C 	C 	0.30150 0.55680 0.25818 0.06200
H 	H 	0.32920 0.57960 0.26870 -0.01000
C 	C 	0.30880 0.51950 0.23084 -0.11400
H 	H 	0.34090 0.51530 0.22290 0.08000
C 	C 	0.26820 0.48790 0.21511 0.04900
C 	C 	0.22210 0.49130 0.22825 -0.11300
H 	H 	0.19380 0.46820 0.21830 0.08100
C 	C 	0.21820 0.52850 0.25576 0.06600
H 	H 	0.18670 0.53020 0.26470 0.00100
C 	C 	0.42750 0.38530 0.09430 0.06100
H 	H 	0.43240 0.37780 0.07400 -0.00700
C 	C 	0.38010 0.39780 0.10439 -0.11300
H 	H 	0.35300 0.39840 0.09140 0.07700
C 	C 	0.37290 0.40930 0.13395 0.04800
C 	C 	0.41350 0.41050 0.15224 -0.11300
H 	H 	0.40970 0.42130 0.17240 0.08000
C 	C 	0.45970 0.39570 0.14032 0.06100
H 	H 	0.48740 0.39420 0.15290 -0.00400
C 	C 	0.10860 0.39870 0.11742 0.06200
H 	H 	0.07680 0.40500 0.12570 -0.00900
C 	C 	0.14920 0.41300 0.13491 -0.11600
H 	H 	0.14520 0.42840 0.15480 0.08000
C 	C 	0.19600 0.40460 0.12298 0.05200
C 	C 	0.20000 0.38150 0.09406 -0.11800
H 	H 	0.23150 0.37570 0.08530 0.07800
C 	C 	0.15780 0.36680 0.07792 0.06500
H 	H 	0.16090 0.34950 0.05810 -0.01500
C 	C 	0.27390 0.45630 0.18447 0.10300
C 	C 	0.32240 0.42260 0.14614 0.10400
C 	C 	0.24020 0.41910 0.14139 0.10100
C 	C 	0.39870 0.60540 0.50871 0.06400
H 	H 	0.38790 0.67030 0.51180 -0.00900
C 	C 	0.38050 0.55480 0.48504 -0.10800
H 	H 	0.35750 0.58420 0.47230 0.07700
C 	C 	0.39670 0.45960 0.48036 0.04700
C 	C 	0.43050 0.41960 0.49941 -0.11500
H 	H 	0.44220 0.35520 0.49660 0.07700
C 	C 	0.44690 0.47480 0.52274 0.05700
H 	H 	0.47010 0.44720 0.53580 0.00100
C 	C 	0.28690 0.47000 0.33841 0.06200
H 	H 	0.27350 0.43720 0.32210 -0.01200
C 	C 	0.30760 0.41520 0.36061 -0.11000
H 	H 	0.30830 0.34620 0.35950 0.07100
C 	C 	0.32730 0.46300 0.38442 0.05100
C 	C 	0.32660 0.56440 0.38485 -0.10500
H 	H 	0.34040 0.59910 0.40070 0.07700
C 	C 	0.30530 0.61380 0.36182 0.06300
H 	H 	0.30500 0.68290 0.36210 -0.00800
C 	C 	0.42390 0.01210 0.43934 0.06700
H 	H 	0.42840 0.96860 0.45510 -0.00300
C 	C 	0.40700 0.10630 0.44504 -0.11200
H 	H 	0.40120 0.12730 0.46440 0.08100
C 	C 	0.39890 0.16860 0.42173 0.05200
C 	C 	0.40840 0.13520 0.39399 -0.12400
H 	H 	0.40280 0.17600 0.37770 0.09400
C 	C 	0.42580 0.04260 0.39035 0.06900
H 	H 	0.43260 0.02050 0.37130 -0.01000
C 	C 	0.37990 0.40540 0.45420 0.10100
C 	C 	0.34980 0.40780 0.40882 0.11000
C 	C 	0.38270 0.27030 0.42649 0.09700
N 	N 	0.25690 0.56240 0.27055 -0.27100
N 	N 	0.46710 0.38330 0.11180 -0.26900
N 	N 	0.11227 0.37620 0.08934 -0.27000
N 	N 	0.31960 0.44700 0.17422 -0.14000
N 	N 	0.28430 0.40790 0.12867 -0.14000
N 	N 	0.23274 0.44230 0.16913 -0.13900
N 	N 	0.43095 0.56630 0.52739 -0.26600
N 	N 	0.28520 0.56750 0.33921 -0.27000
N 	N 	0.43380 0.98120 0.41264 -0.27100
N 	N 	0.35710 0.45690 0.43354 -0.13600
N 	N 	0.36180 0.31560 0.40403 -0.13600
N 	N 	0.39190 0.31070 0.45254 -0.14100
Zn	Zn	0.25044 0.35441 0.80744 1.16300
Zn	Zn	0.96429 0.65445 0.59570 1.16200
Zn	Zn	0.45086 0.64347 0.56434 1.16200
I 	I 	0.19729 0.20265 0.79912 -0.36600
I 	I 	0.34194 0.33812 0.81877 -0.37500
I 	I 	0.97429 0.74234 0.54738 -0.38000
I 	I 	0.91986 0.72858 0.63895 -0.36300
I 	I 	0.51784 0.55366 0.59185 -0.36900
I 	I 	0.45903 0.82050 0.54843 -0.37100
C 	C 	0.19850 0.44320 0.75818 0.06200
H 	H 	0.17080 0.42040 0.76870 -0.01000
C 	C 	0.19120 0.48050 0.73084 -0.11400
H 	H 	0.15910 0.48470 0.72290 0.08000
C 	C 	0.23180 0.51210 0.71511 0.04900
C 	C 	0.27790 0.50870 0.72825 -0.11300
H 	H 	0.30620 0.53180 0.71830 0.08100
C 	C 	0.28180 0.47150 0.75576 0.06600
H 	H 	0.31330 0.46980 0.76470 0.00100
C 	C 	0.07250 0.61470 0.59430 0.06100
H 	H 	0.06760 0.62220 0.57400 -0.00700
C 	C 	0.11990 0.60220 0.60439 -0.11300
H 	H 	0.14700 0.60160 0.59140 0.07700
C 	C 	0.12710 0.59070 0.63395 0.04800
C 	C 	0.08650 0.58950 0.65224 -0.11300
H 	H 	0.09030 0.57870 0.67240 0.08000
C 	C 	0.04030 0.60430 0.64032 0.06100
H 	H 	0.01260 0.60580 0.65290 -0.00400
C 	C 	0.39140 0.60130 0.61742 0.06200
H 	H 	0.42320 0.59500 0.62570 -0.00900
C 	C 	0.35080 0.58700 0.63491 -0.11600
H 	H 	0.35480 0.57160 0.65480 0.08000
C 	C 	0.30400 0.59540 0.62298 0.05200
C 	C 	0.30000 0.61850 0.59406 -0.11800
H 	H 	0.26850 0.62430 0.58530 0.07800
C 	C 	0.34220 0.63320 0.57792 0.06500
H 	H 	0.33910 0.65050 0.55810 -0.01500
C 	C 	0.22610 0.54370 0.68447 0.10300
C 	C 	0.17760 0.57740 0.64614 0.10400
C 	C 	0.25980 0.58090 0.64139 0.10100
C 	C 	0.10130 0.39460 0.00871 0.06400
H 	H 	0.11210 0.32970 0.01180 -0.00900
C 	C 	0.11950 0.44520 0.98504 -0.10800
H 	H 	0.14250 0.41580 0.97230 0.07700
C 	C 	0.10330 0.54040 0.98036 0.04700
C 	C 	0.06950 0.58040 0.99941 -0.11500
H 	H 	0.05780 0.64480 0.99660 0.07700
C 	C 	0.05310 0.52520 0.02274 0.05700
H 	H 	0.02990 0.55280 0.03580 0.00100
C 	C 	0.21310 0.53000 0.83841 0.06200
H 	H 	0.22650 0.56280 0.82210 -0.01200
C 	C 	0.19240 0.58480 0.86061 -0.11000
H 	H 	0.19170 0.65380 0.85950 0.07100
C 	C 	0.17270 0.53700 0.88442 0.05100
C 	C 	0.17340 0.43560 0.88485 -0.10500
H 	H 	0.15960 0.40090 0.90070 0.07700
C 	C 	0.19470 0.38620 0.86182 0.06300
H 	H 	0.19500 0.31710 0.86210 -0.00800
C 	C 	0.07610 0.98790 0.93934 0.06900
H 	H 	0.07160 0.03140 0.95510 -0.00400
C 	C 	0.09300 0.89370 0.94504 -0.11300
H 	H 	0.09880 0.87270 0.96440 0.08200
C 	C 	0.10110 0.83140 0.92173 0.05200
C 	C 	0.09160 0.86480 0.89399 -0.12500
H 	H 	0.09720 0.82400 0.87770 0.09500
C 	C 	0.07420 0.95740 0.89035 0.07000
H 	H 	0.06740 0.97950 0.87130 -0.01000
C 	C 	0.12010 0.59460 0.95420 0.10100
C 	C 	0.15020 0.59220 0.90882 0.11000
C 	C 	0.11730 0.72970 0.92649 0.09700
N 	N 	0.24310 0.43760 0.77055 -0.27100
N 	N 	0.03290 0.61670 0.61180 -0.26900
N 	N 	0.38773 0.62380 0.58934 -0.27000
N 	N 	0.18040 0.55300 0.67422 -0.14000
N 	N 	0.21570 0.59210 0.62867 -0.14000
N 	N 	0.26726 0.55770 0.66913 -0.13900
N 	N 	0.06905 0.43370 0.02739 -0.26600
N 	N 	0.21480 0.43250 0.83921 -0.27000
N 	N 	0.06620 0.01880 0.91264 -0.27200
N 	N 	0.14290 0.54310 0.93354 -0.13600
N 	N 	0.13820 0.68440 0.90403 -0.13600
N 	N 	0.10810 0.68930 0.95254 -0.14100
Zn	Zn	0.24956 0.85441 0.80744 1.16300
Zn	Zn	0.53571 0.15445 0.59570 1.16200
Zn	Zn	0.04914 0.14347 0.56434 1.16200
I 	I 	0.30271 0.70265 0.79912 -0.36600
I 	I 	0.15806 0.83812 0.81877 -0.37500
I 	I 	0.52571 0.24234 0.54738 -0.37900
I 	I 	0.58014 0.22858 0.63895 -0.36200
I 	I 	0.98216 0.05366 0.59185 -0.36800
I 	I 	0.04097 0.32050 0.54843 -0.37100
C 	C 	0.30150 0.94320 0.75818 0.06200
H 	H 	0.32920 0.92040 0.76870 -0.01000
C 	C 	0.30880 0.98050 0.73084 -0.11500
H 	H 	0.34090 0.98470 0.72290 0.08000
C 	C 	0.26820 0.01210 0.71511 0.04900
C 	C 	0.22210 0.00870 0.72825 -0.11200
H 	H 	0.19380 0.03180 0.71830 0.08100
C 	C 	0.21820 0.97150 0.75576 0.06600
H 	H 	0.18670 0.96980 0.76470 0.00100
C 	C 	0.42750 0.11470 0.59430 0.06100
H 	H 	0.43240 0.12220 0.57400 -0.00700
C 	C 	0.38010 0.10220 0.60439 -0.11300
H 	H 	0.35300 0.10160 0.59140 0.07700
C 	C 	0.37290 0.09070 0.63395 0.04900
C 	C 	0.41350 0.08950 0.65224 -0.11300
H 	H 	0.40970 0.07870 0.67240 0.08000
C 	C 	0.45970 0.10430 0.64032 0.06100
H 	H 	0.48740 0.10580 0.65290 -0.00400
C 	C 	0.10860 0.10130 0.61742 0.06200
H 	H 	0.07680 0.09500 0.62570 -0.00900
C 	C 	0.14920 0.08700 0.63491 -0.11600
H 	H 	0.14520 0.07160 0.65480 0.08000
C 	C 	0.19600 0.09540 0.62298 0.05200
C 	C 	0.20000 0.11850 0.59406 -0.11800
H 	H 	0.23150 0.12430 0.58530 0.07800
C 	C 	0.15780 0.13320 0.57792 0.06500
H 	H 	0.16090 0.15050 0.55810 -0.01500
C 	C 	0.27390 0.04370 0.68447 0.10300
C 	C 	0.32240 0.07740 0.64614 0.10400
C 	C 	0.24020 0.08090 0.64139 0.10100
C 	C 	0.39870 0.89460 0.00871 0.06400
H 	H 	0.38790 0.82970 0.01180 -0.00900
C 	C 	0.38050 0.94520 0.98504 -0.10800
H 	H 	0.35750 0.91580 0.97230 0.07700
C 	C 	0.39670 0.04040 0.98036 0.04600
C 	C 	0.43050 0.08040 0.99941 -0.11500
H 	H 	0.44220 0.14480 0.99660 0.07700
C 	C 	0.44690 0.02520 0.02274 0.05600
H 	H 	0.47010 0.05280 0.03580 0.00100
C 	C 	0.28690 0.03000 0.83841 0.06200
H 	H 	0.27350 0.06280 0.82210 -0.01200
C 	C 	0.30760 0.08480 0.86061 -0.11000
H 	H 	0.30830 0.15380 0.85950 0.07100
C 	C 	0.32730 0.03700 0.88442 0.05100
C 	C 	0.32660 0.93560 0.88485 -0.10600
H 	H 	0.34040 0.90090 0.90070 0.07700
C 	C 	0.30530 0.88620 0.86182 0.06300
H 	H 	0.30500 0.81710 0.86210 -0.00800
C 	C 	0.42390 0.48790 0.93934 0.06800
H 	H 	0.42840 0.53140 0.95510 -0.00400
C 	C 	0.40700 0.39370 0.94504 -0.11300
H 	H 	0.40120 0.37270 0.96440 0.08200
C 	C 	0.39890 0.33140 0.92173 0.05200
C 	C 	0.40840 0.36480 0.89399 -0.12500
H 	H 	0.40280 0.32400 0.87770 0.09500
C 	C 	0.42580 0.45740 0.89035 0.07000
H 	H 	0.43260 0.47950 0.87130 -0.01000
C 	C 	0.37990 0.09460 0.95420 0.10100
C 	C 	0.34980 0.09220 0.90882 0.11000
C 	C 	0.38270 0.22970 0.92649 0.09700
N 	N 	0.25690 0.93760 0.77055 -0.27100
N 	N 	0.46710 0.11670 0.61180 -0.26900
N 	N 	0.11227 0.12380 0.58934 -0.27000
N 	N 	0.31960 0.05300 0.67422 -0.14000
N 	N 	0.28430 0.09210 0.62867 -0.14000
N 	N 	0.23274 0.05770 0.66913 -0.13900
N 	N 	0.43095 0.93370 0.02739 -0.26600
N 	N 	0.28520 0.93250 0.83921 -0.27100
N 	N 	0.43380 0.51880 0.91264 -0.27100
N 	N 	0.35710 0.04310 0.93354 -0.13600
N 	N 	0.36180 0.18440 0.90403 -0.13600
N 	N 	0.39190 0.18930 0.95254 -0.14100
Zn	Zn	0.25044 0.14559 0.30744 1.16300
Zn	Zn	0.96429 0.84555 0.09570 1.16200
Zn	Zn	0.45086 0.85653 0.06434 1.16200
I 	I 	0.19729 0.29735 0.29912 -0.36600
I 	I 	0.34194 0.16188 0.31877 -0.37500
I 	I 	0.97429 0.75766 0.04738 -0.38000
I 	I 	0.91986 0.77142 0.13895 -0.36200
I 	I 	0.51784 0.94634 0.09185 -0.36800
I 	I 	0.45903 0.67950 0.04843 -0.37100
C 	C 	0.19850 0.05680 0.25818 0.06200
H 	H 	0.17080 0.07960 0.26870 -0.01000
C 	C 	0.19120 0.01950 0.23084 -0.11600
H 	H 	0.15910 0.01530 0.22290 0.08000
C 	C 	0.23180 0.98790 0.21511 0.05000
C 	C 	0.27790 0.99130 0.22825 -0.11200
H 	H 	0.30620 0.96820 0.21830 0.08100
C 	C 	0.28180 0.02850 0.25576 0.06500
H 	H 	0.31330 0.03020 0.26470 0.00100
C 	C 	0.07250 0.88530 0.09430 0.06100
H 	H 	0.06760 0.87780 0.07400 -0.00700
C 	C 	0.11990 0.89780 0.10439 -0.11300
H 	H 	0.14700 0.89840 0.09140 0.07800
C 	C 	0.12710 0.90930 0.13395 0.04900
C 	C 	0.08650 0.91050 0.15224 -0.11300
H 	H 	0.09030 0.92130 0.17240 0.08000
C 	C 	0.04030 0.89570 0.14032 0.06100
H 	H 	0.01260 0.89420 0.15290 -0.00400
C 	C 	0.39140 0.89870 0.11742 0.06200
H 	H 	0.42320 0.90500 0.12570 -0.00900
C 	C 	0.35080 0.91300 0.13491 -0.11600
H 	H 	0.35480 0.92840 0.15480 0.08000
C 	C 	0.30400 0.90460 0.12298 0.05200
C 	C 	0.30000 0.88150 0.09406 -0.11800
H 	H 	0.26850 0.87570 0.08530 0.07800
C 	C 	0.34220 0.86680 0.07792 0.06500
H 	H 	0.33910 0.84950 0.05810 -0.01500
C 	C 	0.22610 0.95630 0.18447 0.10300
C 	C 	0.17760 0.92260 0.14614 0.10400
C 	C 	0.25980 0.91910 0.14139 0.10100
C 	C 	0.10130 0.10540 0.50871 0.06400
H 	H 	0.11210 0.17030 0.51180 -0.00900
C 	C 	0.11950 0.05480 0.48504 -0.10900
H 	H 	0.14250 0.08420 0.47230 0.07700
C 	C 	0.10330 0.95960 0.48036 0.04700
C 	C 	0.06950 0.91960 0.49941 -0.11500
H 	H 	0.05780 0.85520 0.49660 0.07700
C 	C 	0.05310 0.97480 0.52274 0.05700
H 	H 	0.02990 0.94720 0.53580 0.00100
C 	C 	0.21310 0.97000 0.33841 0.06300
H 	H 	0.22650 0.93720 0.32210 -0.01200
C 	C 	0.19240 0.91520 0.36061 -0.11100
H 	H 	0.19170 0.84620 0.35950 0.07200
C 	C 	0.17270 0.96300 0.38442 0.05300
C 	C 	0.17340 0.06440 0.38485 -0.10700
H 	H 	0.15960 0.09910 0.40070 0.07800
C 	C 	0.19470 0.11380 0.36182 0.06400
H 	H 	0.19500 0.18290 0.36210 -0.00800
C 	C 	0.07610 0.51210 0.43934 0.06800
H 	H 	0.07160 0.46860 0.45510 -0.00400
C 	C 	0.09300 0.60630 0.44504 -0.11300
H 	H 	0.09880 0.62730 0.46440 0.08200
C 	C 	0.10110 0.66860 0.42173 0.05200
C 	C 	0.09160 0.63520 0.39399 -0.12500
H 	H 	0.09720 0.67600 0.37770 0.09500
C 	C 	0.07420 0.54260 0.39035 0.07000
H 	H 	0.06740 0.52050 0.37130 -0.01000
C 	C 	0.12010 0.90540 0.45420 0.10100
C 	C 	0.15020 0.90780 0.40882 0.11000
C 	C 	0.11730 0.77030 0.42649 0.09700
N 	N 	0.24310 0.06240 0.27055 -0.27100
N 	N 	0.03290 0.88330 0.11180 -0.26900
N 	N 	0.38773 0.87620 0.08934 -0.27000
N 	N 	0.18040 0.94700 0.17422 -0.14000
N 	N 	0.21570 0.90790 0.12867 -0.14000
N 	N 	0.26726 0.94230 0.16913 -0.13900
N 	N 	0.06905 0.06630 0.52739 -0.26700
N 	N 	0.21480 0.06750 0.33921 -0.27100
N 	N 	0.06620 0.48120 0.41264 -0.27100
N 	N 	0.14290 0.95690 0.43354 -0.13600
N 	N 	0.13820 0.81560 0.40403 -0.13600
N 	N 	0.10810 0.81070 0.45254 -0.14100
Zn	Zn	0.75044 0.35441 0.69256 1.16300
Zn	Zn	0.46429 0.65445 0.90430 1.16200
Zn	Zn	0.95086 0.64347 0.93566 1.16200
I 	I 	0.69729 0.20265 0.70088 -0.36600
I 	I 	0.84194 0.33812 0.68123 -0.37500
I 	I 	0.47429 0.74234 0.95262 -0.38000
I 	I 	0.41986 0.72858 0.86105 -0.36200
I 	I 	0.01784 0.55366 0.90815 -0.36800
I 	I 	0.95903 0.82050 0.95157 -0.37100
C 	C 	0.69850 0.44320 0.74182 0.06200
H 	H 	0.67080 0.42040 0.73130 -0.01000
C 	C 	0.69120 0.48050 0.76916 -0.11400
H 	H 	0.65910 0.48470 0.77710 0.08000
C 	C 	0.73180 0.51210 0.78489 0.04900
C 	C 	0.77790 0.50870 0.77175 -0.11300
H 	H 	0.80620 0.53180 0.78170 0.08100
C 	C 	0.78180 0.47150 0.74424 0.06600
H 	H 	0.81330 0.46980 0.73530 0.00100
C 	C 	0.57250 0.61470 0.90570 0.06100
H 	H 	0.56760 0.62220 0.92600 -0.00700
C 	C 	0.61990 0.60220 0.89561 -0.11300
H 	H 	0.64700 0.60160 0.90860 0.07700
C 	C 	0.62710 0.59070 0.86605 0.04800
C 	C 	0.58650 0.58950 0.84776 -0.11300
H 	H 	0.59030 0.57870 0.82760 0.08000
C 	C 	0.54030 0.60430 0.85968 0.06100
H 	H 	0.51260 0.60580 0.84710 -0.00400
C 	C 	0.89140 0.60130 0.88258 0.06200
H 	H 	0.92320 0.59500 0.87430 -0.00900
C 	C 	0.85080 0.58700 0.86509 -0.11600
H 	H 	0.85480 0.57160 0.84520 0.08000
C 	C 	0.80400 0.59540 0.87702 0.05200
C 	C 	0.80000 0.61850 0.90594 -0.11800
H 	H 	0.76850 0.62430 0.91470 0.07800
C 	C 	0.84220 0.63320 0.92208 0.06500
H 	H 	0.83910 0.65050 0.94190 -0.01500
C 	C 	0.72610 0.54370 0.81553 0.10300
C 	C 	0.67760 0.57740 0.85386 0.10400
C 	C 	0.75980 0.58090 0.85861 0.10100
C 	C 	0.60130 0.39460 0.49129 0.06400
H 	H 	0.61210 0.32970 0.48820 -0.00900
C 	C 	0.61950 0.44520 0.51496 -0.10800
H 	H 	0.64250 0.41580 0.52770 0.07700
C 	C 	0.60330 0.54040 0.51964 0.04700
C 	C 	0.56950 0.58040 0.50059 -0.11500
H 	H 	0.55780 0.64480 0.50340 0.07700
C 	C 	0.55310 0.52520 0.47726 0.05700
H 	H 	0.52990 0.55280 0.46420 0.00100
C 	C 	0.71310 0.53000 0.66159 0.06200
H 	H 	0.72650 0.56280 0.67790 -0.01200
C 	C 	0.69240 0.58480 0.63939 -0.11000
H 	H 	0.69170 0.65380 0.64050 0.07100
C 	C 	0.67270 0.53700 0.61558 0.05100
C 	C 	0.67340 0.43560 0.61515 -0.10500
H 	H 	0.65960 0.40090 0.59930 0.07700
C 	C 	0.69470 0.38620 0.63818 0.06300
H 	H 	0.69500 0.31710 0.63790 -0.00800
C 	C 	0.57610 0.98790 0.56066 0.06700
H 	H 	0.57160 0.03140 0.54490 -0.00300
C 	C 	0.59300 0.89370 0.55496 -0.11200
H 	H 	0.59880 0.87270 0.53560 0.08100
C 	C 	0.60110 0.83140 0.57827 0.05200
C 	C 	0.59160 0.86480 0.60601 -0.12400
H 	H 	0.59720 0.82400 0.62230 0.09400
C 	C 	0.57420 0.95740 0.60965 0.06900
H 	H 	0.56740 0.97950 0.62870 -0.01000
C 	C 	0.62010 0.59460 0.54580 0.10100
C 	C 	0.65020 0.59220 0.59118 0.11000
C 	C 	0.61730 0.72970 0.57351 0.09700
N 	N 	0.74310 0.43760 0.72945 -0.27100
N 	N 	0.53290 0.61670 0.88820 -0.26900
N 	N 	0.88773 0.62380 0.91066 -0.27000
N 	N 	0.68040 0.55300 0.82578 -0.14000
N 	N 	0.71570 0.59210 0.87133 -0.14000
N 	N 	0.76726 0.55770 0.83087 -0.13900
N 	N 	0.56905 0.43370 0.47261 -0.26600
N 	N 	0.71480 0.43250 0.66079 -0.27000
N 	N 	0.56620 0.01880 0.58736 -0.27100
N 	N 	0.64290 0.54310 0.56646 -0.13600
N 	N 	0.63820 0.68440 0.59597 -0.13600
N 	N 	0.60810 0.68930 0.54746 -0.14100
Zn	Zn	0.74956 0.64559 0.19256 1.16300
Zn	Zn	0.03571 0.34555 0.40430 1.16200
Zn	Zn	0.54914 0.35653 0.43566 1.16200
I 	I 	0.80271 0.79735 0.20088 -0.36600
I 	I 	0.65806 0.66188 0.18123 -0.37500
I 	I 	0.02571 0.25766 0.45262 -0.38000
I 	I 	0.08014 0.27142 0.36105 -0.36300
I 	I 	0.48216 0.44634 0.40815 -0.36900
I 	I 	0.54097 0.17950 0.45157 -0.37100
C 	C 	0.80150 0.55680 0.24182 0.06200
H 	H 	0.82920 0.57960 0.23130 -0.01000
C 	C 	0.80880 0.51950 0.26916 -0.11400
H 	H 	0.84090 0.51530 0.27710 0.08000
C 	C 	0.76820 0.48790 0.28489 0.04900
C 	C 	0.72210 0.49130 0.27175 -0.11300
H 	H 	0.69380 0.46820 0.28170 0.08100
C 	C 	0.71820 0.52850 0.24424 0.06600
H 	H 	0.68670 0.53020 0.23530 0.00100
C 	C 	0.92750 0.38530 0.40570 0.06100
H 	H 	0.93240 0.37780 0.42600 -0.00700
C 	C 	0.88010 0.39780 0.39561 -0.11300
H 	H 	0.85300 0.39840 0.40860 0.07700
C 	C 	0.87290 0.40930 0.36605 0.04800
C 	C 	0.91350 0.41050 0.34776 -0.11300
H 	H 	0.90970 0.42130 0.32760 0.08000
C 	C 	0.95970 0.39570 0.35968 0.06100
H 	H 	0.98740 0.39420 0.34710 -0.00400
C 	C 	0.60860 0.39870 0.38258 0.06200
H 	H 	0.57680 0.40500 0.37430 -0.00900
C 	C 	0.64920 0.41300 0.36509 -0.11600
H 	H 	0.64520 0.42840 0.34520 0.08000
C 	C 	0.69600 0.40460 0.37702 0.05200
C 	C 	0.70000 0.38150 0.40594 -0.11800
H 	H 	0.73150 0.37570 0.41470 0.07800
C 	C 	0.65780 0.36680 0.42208 0.06500
H 	H 	0.66090 0.34950 0.44190 -0.01500
C 	C 	0.77390 0.45630 0.31553 0.10300
C 	C 	0.82240 0.42260 0.35386 0.10400
C 	C 	0.74020 0.41910 0.35861 0.10100
C 	C 	0.89870 0.60540 0.99129 0.06400
H 	H 	0.88790 0.67030 0.98820 -0.00900
C 	C 	0.88050 0.55480 0.01496 -0.10800
H 	H 	0.85750 0.58420 0.02770 0.07700
C 	C 	0.89670 0.45960 0.01964 0.04700
C 	C 	0.93050 0.41960 0.00059 -0.11500
H 	H 	0.94220 0.35520 0.00340 0.07700
C 	C 	0.94690 0.47480 0.97726 0.05700
H 	H 	0.97010 0.44720 0.96420 0.00100
C 	C 	0.78690 0.47000 0.16159 0.06200
H 	H 	0.77350 0.43720 0.17790 -0.01200
C 	C 	0.80760 0.41520 0.13939 -0.11000
H 	H 	0.80830 0.34620 0.14050 0.07100
C 	C 	0.82730 0.46300 0.11558 0.05100
C 	C 	0.82660 0.56440 0.11515 -0.10500
H 	H 	0.84040 0.59910 0.09930 0.07700
C 	C 	0.80530 0.61380 0.13818 0.06300
H 	H 	0.80500 0.68290 0.13790 -0.00800
C 	C 	0.92390 0.01210 0.06066 0.06900
H 	H 	0.92840 0.96860 0.04490 -0.00400
C 	C 	0.90700 0.10630 0.05496 -0.11300
H 	H 	0.90120 0.12730 0.03560 0.08200
C 	C 	0.89890 0.16860 0.07827 0.05200
C 	C 	0.90840 0.13520 0.10601 -0.12500
H 	H 	0.90280 0.17600 0.12230 0.09500
C 	C 	0.92580 0.04260 0.10965 0.07000
H 	H 	0.93260 0.02050 0.12870 -0.01000
C 	C 	0.87990 0.40540 0.04580 0.10100
C 	C 	0.84980 0.40780 0.09118 0.11000
C 	C 	0.88270 0.27030 0.07351 0.09700
N 	N 	0.75690 0.56240 0.22945 -0.27100
N 	N 	0.96710 0.38330 0.38820 -0.26900
N 	N 	0.61227 0.37620 0.41066 -0.27000
N 	N 	0.81960 0.44700 0.32578 -0.14000
N 	N 	0.78430 0.40790 0.37133 -0.14000
N 	N 	0.73274 0.44230 0.33087 -0.13900
N 	N 	0.93095 0.56630 0.97261 -0.26600
N 	N 	0.78520 0.56750 0.16079 -0.27000
N 	N 	0.93380 0.98120 0.08736 -0.27200
N 	N 	0.85710 0.45690 0.06646 -0.13600
N 	N 	0.86180 0.31560 0.09597 -0.13600
N 	N 	0.89190 0.31070 0.04746 -0.14100
