data_crystal

_cell_length_a 13.78500
_cell_length_b 27.11000
_cell_length_c 45.81400
_cell_angle_alpha 90.00000
_cell_angle_beta  90.00000
_cell_angle_gamma 90.00000

_symmetry_space_group_name_	'P 1'
_symmetry_space_group_name_H-M	'P 1'

loop_
_symmetry_equiv_pos_as_xyz
  x,y,z

loop_
_atom_site_label
_atom_site_type_symbol
_atom_site_fract_x
_atom_site_fract_y
_atom_site_fract_z
_atom_site_charge
Zn	Zn	0.34558 0.75656 0.68866 1.16200
Zn	Zn	0.64312 0.03271 0.91689 1.16300
Zn	Zn	0.64619 0.55103 0.92599 1.16300
Zn	Zn	0.65442 0.74344 0.18866 1.16200
Zn	Zn	0.35688 0.46729 0.41689 1.16300
Zn	Zn	0.35381 0.94897 0.42599 1.16300
Zn	Zn	0.84558 0.24344 0.81134 1.16200
Zn	Zn	0.14312 0.96729 0.58311 1.16300
Zn	Zn	0.14619 0.44897 0.57401 1.16300
Zn	Zn	0.15442 0.25656 0.31134 1.16200
Zn	Zn	0.85688 0.53271 0.08311 1.16300
Zn	Zn	0.85381 0.05103 0.07401 1.16200
H 	H 	0.44380 0.69540 0.73340 -0.00400
H 	H 	0.50050 0.70280 0.78190 0.07900
H 	H 	0.48950 0.85110 0.77180 0.08100
H 	H 	0.41970 0.84000 0.72730 -0.00900
H 	H 	0.60610 0.99650 0.85560 -0.00900
H 	H 	0.57610 0.92190 0.83050 0.08000
H 	H 	0.57740 0.85310 0.90760 0.08000
H 	H 	0.60600 0.92680 0.93100 -0.00700
H 	H 	0.63020 0.66010 0.93660 -0.01900
H 	H 	0.60850 0.73290 0.91300 0.08100
H 	H 	0.55040 0.65220 0.83900 0.08600
H 	H 	0.58450 0.58370 0.86650 -0.02000
H 	H 	0.55300 0.95380 0.45100 -0.01700
H 	H 	0.64070 0.93540 0.49250 0.08900
H 	H 	0.38950 0.88560 0.52860 0.07700
H 	H 	0.31080 0.90920 0.48580 -0.00600
H 	H 	0.31250 0.79620 0.63070 -0.01900
H 	H 	0.39780 0.83060 0.59080 0.08700
H 	H 	0.64280 0.81780 0.63550 0.08400
H 	H 	0.55810 0.78400 0.67420 -0.01400
H 	H 	0.99510 0.91070 0.61710 -0.01400
H 	H 	0.83980 0.88030 0.61210 0.09100
H 	H 	0.83190 0.92890 0.52900 0.08000
H 	H 	0.99680 0.95410 0.53390 0.01000
H 	H 	0.55620 0.80460 0.23340 -0.00300
H 	H 	0.49950 0.79720 0.28190 0.08000
H 	H 	0.51050 0.64890 0.27180 0.08200
H 	H 	0.58030 0.66000 0.22730 -0.00800
H 	H 	0.39390 0.50350 0.35560 -0.00800
H 	H 	0.42390 0.57810 0.33050 0.08100
H 	H 	0.42260 0.64690 0.40760 0.08100
H 	H 	0.39400 0.57320 0.43100 -0.00600
H 	H 	0.36980 0.83990 0.43660 -0.01800
H 	H 	0.39150 0.76710 0.41300 0.08200
H 	H 	0.44960 0.84780 0.33900 0.08700
H 	H 	0.41550 0.91630 0.36650 -0.01900
H 	H 	0.44700 0.54620 0.95100 -0.01600
H 	H 	0.35930 0.56460 0.99250 0.09000
H 	H 	0.61050 0.61440 0.02860 0.07700
H 	H 	0.68920 0.59080 0.98580 -0.00600
H 	H 	0.68750 0.70380 0.13070 -0.01800
H 	H 	0.60220 0.66940 0.09080 0.08700
H 	H 	0.35720 0.68220 0.13550 0.08400
H 	H 	0.44190 0.71600 0.17420 -0.01400
H 	H 	0.00490 0.58930 0.11710 -0.01400
H 	H 	0.16020 0.61970 0.11210 0.09100
H 	H 	0.16810 0.57110 0.02900 0.08000
H 	H 	0.00320 0.54590 0.03390 0.01000
H 	H 	0.94380 0.30460 0.76660 -0.00300
H 	H 	0.00050 0.29720 0.71810 0.08000
H 	H 	0.98950 0.14890 0.72820 0.08100
H 	H 	0.91970 0.16000 0.77270 -0.00800
H 	H 	0.10610 0.00350 0.64440 -0.00800
H 	H 	0.07610 0.07810 0.66950 0.08100
H 	H 	0.07740 0.14690 0.59240 0.08100
H 	H 	0.10600 0.07320 0.56900 -0.00600
H 	H 	0.13020 0.33990 0.56340 -0.01800
H 	H 	0.10850 0.26710 0.58700 0.08200
H 	H 	0.05040 0.34780 0.66100 0.08700
H 	H 	0.08450 0.41630 0.63350 -0.01900
H 	H 	0.05300 0.04620 0.04900 -0.01600
H 	H 	0.14070 0.06460 0.00750 0.09100
H 	H 	0.88950 0.11440 0.97140 0.07700
H 	H 	0.81080 0.09080 0.01420 -0.00600
H 	H 	0.81250 0.20380 0.86930 -0.01900
H 	H 	0.89780 0.16940 0.90920 0.08700
H 	H 	0.14280 0.18220 0.86450 0.08400
H 	H 	0.05810 0.21600 0.82580 -0.01400
H 	H 	0.49510 0.08930 0.88290 -0.01300
H 	H 	0.33980 0.11970 0.88790 0.09100
H 	H 	0.33190 0.07110 0.97100 0.08000
H 	H 	0.49680 0.04590 0.96610 0.01000
H 	H 	0.05620 0.19540 0.26660 -0.00200
H 	H 	0.99950 0.20280 0.21810 0.07900
H 	H 	0.01050 0.35110 0.22820 0.08200
H 	H 	0.08030 0.34000 0.27270 -0.00800
H 	H 	0.89390 0.49650 0.14440 -0.00800
H 	H 	0.92390 0.42190 0.16950 0.08100
H 	H 	0.92260 0.35310 0.09240 0.08100
H 	H 	0.89400 0.42680 0.06900 -0.00600
H 	H 	0.86980 0.16010 0.06340 -0.01800
H 	H 	0.89150 0.23290 0.08700 0.08200
H 	H 	0.94960 0.15220 0.16100 0.08700
H 	H 	0.91550 0.08370 0.13350 -0.02000
H 	H 	0.94700 0.45380 0.54900 -0.01600
H 	H 	0.85930 0.43540 0.50750 0.09000
H 	H 	0.11050 0.38560 0.47140 0.07700
H 	H 	0.18920 0.40920 0.51420 -0.00600
H 	H 	0.18750 0.29620 0.36930 -0.01800
H 	H 	0.10220 0.33060 0.40920 0.08700
H 	H 	0.85720 0.31780 0.36450 0.08300
H 	H 	0.94190 0.28400 0.32580 -0.01400
H 	H 	0.50490 0.41070 0.38290 -0.01300
H 	H 	0.66020 0.38030 0.38790 0.09100
H 	H 	0.66810 0.42890 0.47100 0.08000
H 	H 	0.50320 0.45410 0.46610 0.01000
C 	C 	0.45110 0.72740 0.74170 0.06100
C 	C 	0.48570 0.73120 0.77050 -0.11100
C 	C 	0.49740 0.77870 0.78170 0.05200
C 	C 	0.47710 0.81880 0.76470 -0.12100
C 	C 	0.43960 0.81190 0.73810 0.06400
C 	C 	0.60010 0.96660 0.86630 0.07100
C 	C 	0.58280 0.92200 0.85110 -0.11800
C 	C 	0.57600 0.87910 0.86670 0.05700
C 	C 	0.58370 0.88230 0.89630 -0.11500
C 	C 	0.60020 0.92610 0.91030 0.06600
C 	C 	0.61560 0.65930 0.91630 0.07800
C 	C 	0.60200 0.70250 0.90290 -0.13000
C 	C 	0.57700 0.70070 0.87270 0.06000
C 	C 	0.56850 0.65510 0.85890 -0.13700
C 	C 	0.58790 0.61490 0.87590 0.09200
C 	C 	0.52750 0.78420 0.81310 0.10400
C 	C 	0.56180 0.82970 0.85200 0.10300
C 	C 	0.56120 0.74670 0.85600 0.09500
C 	C 	0.51940 0.94030 0.46720 0.07800
C 	C 	0.57340 0.92820 0.49150 -0.12700
C 	C 	0.52550 0.90490 0.51470 0.04900
C 	C 	0.42540 0.89920 0.51290 -0.11500
C 	C 	0.37890 0.91410 0.48720 0.06900
C 	C 	0.38040 0.80150 0.63220 0.08200
C 	C 	0.43100 0.82240 0.60830 -0.12300
C 	C 	0.52770 0.83050 0.61080 0.07700
C 	C 	0.57420 0.81490 0.63450 -0.13200
C 	C 	0.52390 0.79460 0.65730 0.07400
C 	C 	0.96300 0.91420 0.59890 0.08500
C 	C 	0.86990 0.89610 0.59600 -0.12800
C 	C 	0.82030 0.90070 0.57040 0.04700
C 	C 	0.86570 0.92400 0.54690 -0.09800
C 	C 	0.96280 0.94030 0.55000 0.03600
C 	C 	0.58010 0.88780 0.54130 0.10800
C 	C 	0.58000 0.85350 0.58490 0.10400
C 	C 	0.71640 0.88640 0.56680 0.09800
C 	C 	0.54890 0.77260 0.24170 0.06100
C 	C 	0.51430 0.76880 0.27050 -0.11100
C 	C 	0.50260 0.72130 0.28170 0.05200
C 	C 	0.52290 0.68120 0.26470 -0.12100
C 	C 	0.56040 0.68810 0.23810 0.06400
C 	C 	0.39990 0.53340 0.36630 0.07100
C 	C 	0.41720 0.57800 0.35110 -0.11800
C 	C 	0.42400 0.62090 0.36670 0.05700
C 	C 	0.41630 0.61770 0.39630 -0.11500
C 	C 	0.39980 0.57390 0.41030 0.06600
C 	C 	0.38440 0.84070 0.41630 0.07800
C 	C 	0.39800 0.79750 0.40290 -0.13000
C 	C 	0.42300 0.79930 0.37270 0.06000
C 	C 	0.43150 0.84490 0.35890 -0.13700
C 	C 	0.41210 0.88510 0.37590 0.09200
C 	C 	0.47250 0.71580 0.31310 0.10400
C 	C 	0.43820 0.67030 0.35200 0.10300
C 	C 	0.43880 0.75330 0.35600 0.09500
C 	C 	0.48060 0.55970 0.96720 0.07800
C 	C 	0.42660 0.57180 0.99150 -0.12700
C 	C 	0.47450 0.59510 0.01470 0.04900
C 	C 	0.57460 0.60080 0.01290 -0.11500
C 	C 	0.62110 0.58590 0.98720 0.06900
C 	C 	0.61960 0.69850 0.13220 0.08200
C 	C 	0.56900 0.67760 0.10830 -0.12300
C 	C 	0.47230 0.66950 0.11080 0.07700
C 	C 	0.42580 0.68510 0.13450 -0.13200
C 	C 	0.47610 0.70540 0.15730 0.07400
C 	C 	0.03700 0.58580 0.09890 0.08400
C 	C 	0.13010 0.60390 0.09600 -0.12700
C 	C 	0.17970 0.59930 0.07040 0.04600
C 	C 	0.13430 0.57600 0.04690 -0.09800
C 	C 	0.03720 0.55970 0.05000 0.03500
C 	C 	0.41990 0.61220 0.04130 0.10800
C 	C 	0.42000 0.64650 0.08490 0.10400
C 	C 	0.28360 0.61360 0.06680 0.09800
C 	C 	0.95110 0.27260 0.75830 0.06100
C 	C 	0.98570 0.26880 0.72950 -0.11100
C 	C 	0.99740 0.22130 0.71830 0.05200
C 	C 	0.97710 0.18120 0.73530 -0.12100
C 	C 	0.93960 0.18810 0.76190 0.06300
C 	C 	0.10010 0.03340 0.63370 0.07100
C 	C 	0.08280 0.07800 0.64890 -0.11800
C 	C 	0.07600 0.12090 0.63330 0.05700
C 	C 	0.08370 0.11770 0.60370 -0.11500
C 	C 	0.10020 0.07390 0.58970 0.06600
C 	C 	0.11560 0.34070 0.58370 0.07800
C 	C 	0.10200 0.29750 0.59710 -0.13000
C 	C 	0.07700 0.29930 0.62730 0.06000
C 	C 	0.06850 0.34490 0.64110 -0.13700
C 	C 	0.08790 0.38510 0.62410 0.09200
C 	C 	0.02750 0.21580 0.68690 0.10400
C 	C 	0.06180 0.17030 0.64800 0.10300
C 	C 	0.06120 0.25330 0.64400 0.09500
C 	C 	0.01940 0.05970 0.03280 0.07800
C 	C 	0.07340 0.07180 0.00850 -0.12700
C 	C 	0.02550 0.09510 0.98530 0.05000
C 	C 	0.92540 0.10080 0.98710 -0.11600
C 	C 	0.87890 0.08590 0.01280 0.07000
C 	C 	0.88040 0.19850 0.86780 0.08200
C 	C 	0.93100 0.17760 0.89170 -0.12400
C 	C 	0.02770 0.16950 0.88920 0.07700
C 	C 	0.07420 0.18510 0.86550 -0.13300
C 	C 	0.02390 0.20540 0.84270 0.07400
C 	C 	0.46300 0.08580 0.90110 0.08400
C 	C 	0.36990 0.10390 0.90400 -0.12700
C 	C 	0.32030 0.09930 0.92960 0.04600
C 	C 	0.36570 0.07600 0.95310 -0.09800
C 	C 	0.46280 0.05970 0.95000 0.03500
C 	C 	0.08010 0.11220 0.95870 0.10800
C 	C 	0.08000 0.14650 0.91510 0.10400
C 	C 	0.21640 0.11360 0.93320 0.09800
C 	C 	0.04890 0.22740 0.25830 0.06100
C 	C 	0.01430 0.23120 0.22950 -0.11000
C 	C 	0.00260 0.27870 0.21830 0.05200
C 	C 	0.02290 0.31880 0.23530 -0.12100
C 	C 	0.06040 0.31190 0.26190 0.06400
C 	C 	0.89990 0.46660 0.13370 0.07100
C 	C 	0.91720 0.42200 0.14890 -0.11800
C 	C 	0.92400 0.37910 0.13330 0.05700
C 	C 	0.91630 0.38230 0.10370 -0.11500
C 	C 	0.89980 0.42610 0.08970 0.06600
C 	C 	0.88440 0.15930 0.08370 0.07800
C 	C 	0.89800 0.20250 0.09710 -0.13000
C 	C 	0.92300 0.20070 0.12730 0.06000
C 	C 	0.93150 0.15510 0.14110 -0.13700
C 	C 	0.91210 0.11490 0.12410 0.09200
C 	C 	0.97250 0.28420 0.18690 0.10400
C 	C 	0.93820 0.32970 0.14800 0.10300
C 	C 	0.93880 0.24670 0.14400 0.09500
C 	C 	0.98060 0.44030 0.53280 0.07700
C 	C 	0.92660 0.42820 0.50850 -0.12700
C 	C 	0.97450 0.40490 0.48530 0.04900
C 	C 	0.07460 0.39920 0.48710 -0.11400
C 	C 	0.12110 0.41410 0.51280 0.06900
C 	C 	0.11960 0.30150 0.36780 0.08200
C 	C 	0.06900 0.32240 0.39170 -0.12300
C 	C 	0.97230 0.33050 0.38920 0.07600
C 	C 	0.92580 0.31490 0.36550 -0.13200
C 	C 	0.97610 0.29460 0.34270 0.07300
C 	C 	0.53700 0.41420 0.40110 0.08400
C 	C 	0.63010 0.39610 0.40400 -0.12700
C 	C 	0.67970 0.40070 0.42960 0.04600
C 	C 	0.63430 0.42400 0.45310 -0.09800
C 	C 	0.53720 0.44030 0.45000 0.03500
C 	C 	0.91990 0.38780 0.45870 0.10800
C 	C 	0.92000 0.35350 0.41510 0.10500
C 	C 	0.78360 0.38640 0.43320 0.09800
I 	I 	0.32820 0.66364 0.67938 -0.37100
I 	I 	0.19127 0.80917 0.69497 -0.36500
I 	I 	0.73611 0.08519 0.88128 -0.37200
I 	I 	0.71042 0.00860 0.96683 -0.39000
I 	I 	0.55345 0.48341 0.89930 -0.36100
I 	I 	0.82765 0.55542 0.93515 -0.38000
I 	I 	0.67180 0.83636 0.17938 -0.37100
I 	I 	0.80873 0.69083 0.19497 -0.36500
I 	I 	0.26389 0.41481 0.38128 -0.37200
I 	I 	0.28958 0.49140 0.46683 -0.39000
I 	I 	0.44655 0.01659 0.39930 -0.36100
I 	I 	0.17235 0.94458 0.43515 -0.38100
I 	I 	0.82820 0.33636 0.82062 -0.37100
I 	I 	0.69127 0.19083 0.80503 -0.36500
I 	I 	0.23611 0.91481 0.61872 -0.37200
I 	I 	0.21042 0.99140 0.53317 -0.39000
I 	I 	0.05345 0.51659 0.60070 -0.36200
I 	I 	0.32765 0.44458 0.56485 -0.38000
I 	I 	0.17180 0.16364 0.32062 -0.37000
I 	I 	0.30873 0.30917 0.30503 -0.36500
I 	I 	0.76389 0.58519 0.11872 -0.37200
I 	I 	0.78958 0.50860 0.03317 -0.39000
I 	I 	0.94655 0.98341 0.10070 -0.36100
I 	I 	0.67235 0.05542 0.06485 -0.38100
N 	N 	0.42830 0.76610 0.72560 -0.27100
N 	N 	0.60810 0.96800 0.89490 -0.26800
N 	N 	0.61040 0.61450 0.90339 -0.28100
N 	N 	0.53910 0.82960 0.82390 -0.14000
N 	N 	0.57650 0.79070 0.86920 -0.13800
N 	N 	0.53670 0.74210 0.82750 -0.13800
N 	N 	0.42390 0.93460 0.46480 -0.27600
N 	N 	0.42520 0.78920 0.65620 -0.27700
N 	N 	0.00810 0.93570 0.57760 -0.26900
N 	N 	0.52910 0.86430 0.56140 -0.14000
N 	N 	0.67440 0.86330 0.58910 -0.13600
N 	N 	0.67150 0.89890 0.54210 -0.14800
N 	N 	0.57170 0.73390 0.22560 -0.27100
N 	N 	0.39190 0.53200 0.39490 -0.26800
N 	N 	0.38960 0.88550 0.40339 -0.28100
N 	N 	0.46090 0.67040 0.32390 -0.14000
N 	N 	0.42350 0.70930 0.36920 -0.13800
N 	N 	0.46330 0.75790 0.32750 -0.13800
N 	N 	0.57610 0.56540 0.96480 -0.27600
N 	N 	0.57480 0.71080 0.15620 -0.27700
N 	N 	0.99190 0.56430 0.07760 -0.26800
N 	N 	0.47090 0.63570 0.06140 -0.14000
N 	N 	0.32560 0.63670 0.08910 -0.13600
N 	N 	0.32850 0.60110 0.04210 -0.14800
N 	N 	0.92830 0.23390 0.77440 -0.27200
N 	N 	0.10810 0.03200 0.60510 -0.26800
N 	N 	0.11040 0.38550 0.59661 -0.28100
N 	N 	0.03910 0.17040 0.67610 -0.14000
N 	N 	0.07650 0.20930 0.63080 -0.13800
N 	N 	0.03670 0.25790 0.67250 -0.13900
N 	N 	0.92390 0.06540 0.03520 -0.27600
N 	N 	0.92520 0.21080 0.84380 -0.27800
N 	N 	0.50810 0.06430 0.92240 -0.26800
N 	N 	0.02910 0.13570 0.93860 -0.14000
N 	N 	0.17440 0.13670 0.91090 -0.13600
N 	N 	0.17150 0.10110 0.95790 -0.14800
N 	N 	0.07170 0.26610 0.27440 -0.27100
N 	N 	0.89190 0.46800 0.10510 -0.26800
N 	N 	0.88960 0.11450 0.09661 -0.28100
N 	N 	0.96090 0.32960 0.17610 -0.14000
N 	N 	0.92350 0.29070 0.13080 -0.13800
N 	N 	0.96330 0.24210 0.17250 -0.13900
N 	N 	0.07610 0.43460 0.53520 -0.27600
N 	N 	0.07480 0.28920 0.34380 -0.27700
N 	N 	0.49190 0.43570 0.42240 -0.26800
N 	N 	0.97090 0.36430 0.43860 -0.14100
N 	N 	0.82560 0.36330 0.41090 -0.13600
N 	N 	0.82850 0.39890 0.45790 -0.14800
Zn	Zn	0.65442 0.24344 0.31134 1.16300
Zn	Zn	0.35688 0.96729 0.08311 1.16400
Zn	Zn	0.35381 0.44897 0.07401 1.16400
Zn	Zn	0.34558 0.25656 0.81134 1.16300
Zn	Zn	0.64312 0.53271 0.58311 1.16400
Zn	Zn	0.64619 0.05103 0.57401 1.16400
Zn	Zn	0.15442 0.75656 0.18866 1.16300
Zn	Zn	0.85688 0.03271 0.41689 1.16400
Zn	Zn	0.85381 0.55103 0.42599 1.16400
Zn	Zn	0.84558 0.74344 0.68866 1.16300
Zn	Zn	0.14312 0.46729 0.91689 1.16400
Zn	Zn	0.14619 0.94897 0.92599 1.16300
H 	H 	0.55620 0.30460 0.26660 -0.00300
H 	H 	0.49950 0.29720 0.21810 0.08000
H 	H 	0.51050 0.14890 0.22820 0.08200
H 	H 	0.58030 0.16000 0.27270 -0.00800
H 	H 	0.39390 0.00350 0.14440 -0.00800
H 	H 	0.42390 0.07810 0.16950 0.08100
H 	H 	0.42260 0.14690 0.09240 0.08100
H 	H 	0.39400 0.07320 0.06900 -0.00600
H 	H 	0.36980 0.33990 0.06340 -0.01800
H 	H 	0.39150 0.26710 0.08700 0.08200
H 	H 	0.44960 0.34780 0.16100 0.08700
H 	H 	0.41550 0.41630 0.13350 -0.01900
H 	H 	0.44700 0.04620 0.54900 -0.01600
H 	H 	0.35930 0.06460 0.50750 0.09000
H 	H 	0.61050 0.11440 0.47140 0.07700
H 	H 	0.68920 0.09080 0.51420 -0.00600
H 	H 	0.68750 0.20380 0.36930 -0.01900
H 	H 	0.60220 0.16940 0.40920 0.08700
H 	H 	0.35720 0.18220 0.36450 0.08400
H 	H 	0.44190 0.21600 0.32580 -0.01400
H 	H 	0.00490 0.08930 0.38290 -0.01400
H 	H 	0.16020 0.11970 0.38790 0.09100
H 	H 	0.16810 0.07110 0.47100 0.08000
H 	H 	0.00320 0.04590 0.46610 0.01000
H 	H 	0.44380 0.19540 0.76660 -0.00300
H 	H 	0.50050 0.20280 0.71810 0.08000
H 	H 	0.48950 0.35110 0.72820 0.08200
H 	H 	0.41970 0.34000 0.77270 -0.00800
H 	H 	0.60610 0.49650 0.64440 -0.00800
H 	H 	0.57610 0.42190 0.66950 0.08100
H 	H 	0.57740 0.35310 0.59240 0.08100
H 	H 	0.60600 0.42680 0.56900 -0.00600
H 	H 	0.63020 0.16010 0.56340 -0.01800
H 	H 	0.60850 0.23290 0.58700 0.08200
H 	H 	0.55040 0.15220 0.66100 0.08700
H 	H 	0.58450 0.08370 0.63350 -0.01900
H 	H 	0.55300 0.45380 0.04900 -0.01600
H 	H 	0.64070 0.43540 0.00750 0.09000
H 	H 	0.38950 0.38560 0.97140 0.07700
H 	H 	0.31080 0.40920 0.01420 -0.00600
H 	H 	0.31250 0.29620 0.86930 -0.01800
H 	H 	0.39780 0.33060 0.90920 0.08700
H 	H 	0.64280 0.31780 0.86450 0.08400
H 	H 	0.55810 0.28400 0.82580 -0.01400
H 	H 	0.99510 0.41070 0.88290 -0.01400
H 	H 	0.83980 0.38030 0.88790 0.09100
H 	H 	0.83190 0.42890 0.97100 0.08000
H 	H 	0.99680 0.45410 0.96610 0.01000
H 	H 	0.05620 0.69540 0.23340 -0.00300
H 	H 	0.99950 0.70280 0.28190 0.08000
H 	H 	0.01050 0.85110 0.27180 0.08100
H 	H 	0.08030 0.84000 0.22730 -0.00800
H 	H 	0.89390 0.99650 0.35560 -0.00800
H 	H 	0.92390 0.92190 0.33050 0.08100
H 	H 	0.92260 0.85310 0.40760 0.08100
H 	H 	0.89400 0.92680 0.43100 -0.00600
H 	H 	0.86980 0.66010 0.43660 -0.01800
H 	H 	0.89150 0.73290 0.41300 0.08200
H 	H 	0.94960 0.65220 0.33900 0.08700
H 	H 	0.91550 0.58370 0.36650 -0.01900
H 	H 	0.94700 0.95380 0.95100 -0.01600
H 	H 	0.85930 0.93540 0.99250 0.09100
H 	H 	0.11050 0.88560 0.02860 0.07700
H 	H 	0.18920 0.90920 0.98580 -0.00600
H 	H 	0.18750 0.79620 0.13070 -0.01900
H 	H 	0.10220 0.83060 0.09080 0.08700
H 	H 	0.85720 0.81780 0.13550 0.08400
H 	H 	0.94190 0.78400 0.17420 -0.01400
H 	H 	0.50490 0.91070 0.11710 -0.01300
H 	H 	0.66020 0.88030 0.11210 0.09100
H 	H 	0.66810 0.92890 0.02900 0.08000
H 	H 	0.50320 0.95410 0.03390 0.01000
H 	H 	0.94380 0.80460 0.73340 -0.00200
H 	H 	0.00050 0.79720 0.78190 0.07900
H 	H 	0.98950 0.64890 0.77180 0.08200
H 	H 	0.91970 0.66000 0.72730 -0.00800
H 	H 	0.10610 0.50350 0.85560 -0.00800
H 	H 	0.07610 0.57810 0.83050 0.08100
H 	H 	0.07740 0.64690 0.90760 0.08100
H 	H 	0.10600 0.57320 0.93100 -0.00600
H 	H 	0.13020 0.83990 0.93660 -0.01800
H 	H 	0.10850 0.76710 0.91300 0.08200
H 	H 	0.05040 0.84780 0.83900 0.08700
H 	H 	0.08450 0.91630 0.86650 -0.02000
H 	H 	0.05300 0.54620 0.45100 -0.01600
H 	H 	0.14070 0.56460 0.49250 0.09000
H 	H 	0.88950 0.61440 0.52860 0.07700
H 	H 	0.81080 0.59080 0.48580 -0.00600
H 	H 	0.81250 0.70380 0.63070 -0.01800
H 	H 	0.89780 0.66940 0.59080 0.08700
H 	H 	0.14280 0.68220 0.63550 0.08300
H 	H 	0.05810 0.71600 0.67420 -0.01400
H 	H 	0.49510 0.58930 0.61710 -0.01300
H 	H 	0.33980 0.61970 0.61210 0.09100
H 	H 	0.33190 0.57110 0.52900 0.08000
H 	H 	0.49680 0.54590 0.53390 0.01000
C 	C 	0.54890 0.27260 0.25830 0.06100
C 	C 	0.51430 0.26880 0.22950 -0.11100
C 	C 	0.50260 0.22130 0.21830 0.05200
C 	C 	0.52290 0.18120 0.23530 -0.12100
C 	C 	0.56040 0.18810 0.26190 0.06400
C 	C 	0.39990 0.03340 0.13370 0.07100
C 	C 	0.41720 0.07800 0.14890 -0.11800
C 	C 	0.42400 0.12090 0.13330 0.05700
C 	C 	0.41630 0.11770 0.10370 -0.11500
C 	C 	0.39980 0.07390 0.08970 0.06600
C 	C 	0.38440 0.34070 0.08370 0.07800
C 	C 	0.39800 0.29750 0.09710 -0.13000
C 	C 	0.42300 0.29930 0.12730 0.06000
C 	C 	0.43150 0.34490 0.14110 -0.13700
C 	C 	0.41210 0.38510 0.12410 0.09200
C 	C 	0.47250 0.21580 0.18690 0.10400
C 	C 	0.43820 0.17030 0.14800 0.10300
C 	C 	0.43880 0.25330 0.14400 0.09500
C 	C 	0.48060 0.05970 0.53280 0.07800
C 	C 	0.42660 0.07180 0.50850 -0.12700
C 	C 	0.47450 0.09510 0.48530 0.04900
C 	C 	0.57460 0.10080 0.48710 -0.11500
C 	C 	0.62110 0.08590 0.51280 0.06900
C 	C 	0.61960 0.19850 0.36780 0.08200
C 	C 	0.56900 0.17760 0.39170 -0.12300
C 	C 	0.47230 0.16950 0.38920 0.07700
C 	C 	0.42580 0.18510 0.36550 -0.13200
C 	C 	0.47610 0.20540 0.34270 0.07400
C 	C 	0.03700 0.08580 0.40110 0.08500
C 	C 	0.13010 0.10390 0.40400 -0.12800
C 	C 	0.17970 0.09930 0.42960 0.04700
C 	C 	0.13430 0.07600 0.45310 -0.09800
C 	C 	0.03720 0.05970 0.45000 0.03600
C 	C 	0.41990 0.11220 0.45870 0.10800
C 	C 	0.42000 0.14650 0.41510 0.10400
C 	C 	0.28360 0.11360 0.43320 0.09800
C 	C 	0.45110 0.22740 0.75830 0.06100
C 	C 	0.48570 0.23120 0.72950 -0.11100
C 	C 	0.49740 0.27870 0.71830 0.05200
C 	C 	0.47710 0.31880 0.73530 -0.12100
C 	C 	0.43960 0.31190 0.76190 0.06400
C 	C 	0.60010 0.46660 0.63370 0.07100
C 	C 	0.58280 0.42200 0.64890 -0.11800
C 	C 	0.57600 0.37910 0.63330 0.05700
C 	C 	0.58370 0.38230 0.60370 -0.11500
C 	C 	0.60020 0.42610 0.58970 0.06600
C 	C 	0.61560 0.15930 0.58370 0.07800
C 	C 	0.60200 0.20250 0.59710 -0.13000
C 	C 	0.57700 0.20070 0.62730 0.06000
C 	C 	0.56850 0.15510 0.64110 -0.13700
C 	C 	0.58790 0.11490 0.62410 0.09200
C 	C 	0.52750 0.28420 0.68690 0.10400
C 	C 	0.56180 0.32970 0.64800 0.10300
C 	C 	0.56120 0.24670 0.64400 0.09500
C 	C 	0.51940 0.44030 0.03280 0.07800
C 	C 	0.57340 0.42820 0.00850 -0.12700
C 	C 	0.52550 0.40490 0.98530 0.04900
C 	C 	0.42540 0.39920 0.98710 -0.11500
C 	C 	0.37890 0.41410 0.01280 0.06900
C 	C 	0.38040 0.30150 0.86780 0.08200
C 	C 	0.43100 0.32240 0.89170 -0.12300
C 	C 	0.52770 0.33050 0.88920 0.07700
C 	C 	0.57420 0.31490 0.86550 -0.13200
C 	C 	0.52390 0.29460 0.84270 0.07400
C 	C 	0.96300 0.41420 0.90110 0.08400
C 	C 	0.86990 0.39610 0.90400 -0.12700
C 	C 	0.82030 0.40070 0.92960 0.04600
C 	C 	0.86570 0.42400 0.95310 -0.09800
C 	C 	0.96280 0.44030 0.95000 0.03500
C 	C 	0.58010 0.38780 0.95870 0.10800
C 	C 	0.58000 0.35350 0.91510 0.10400
C 	C 	0.71640 0.38640 0.93320 0.09800
C 	C 	0.04890 0.72740 0.24170 0.06100
C 	C 	0.01430 0.73120 0.27050 -0.11100
C 	C 	0.00260 0.77870 0.28170 0.05200
C 	C 	0.02290 0.81880 0.26470 -0.12100
C 	C 	0.06040 0.81190 0.23810 0.06300
C 	C 	0.89990 0.96660 0.36630 0.07100
C 	C 	0.91720 0.92200 0.35110 -0.11800
C 	C 	0.92400 0.87910 0.36670 0.05700
C 	C 	0.91630 0.88230 0.39630 -0.11500
C 	C 	0.89980 0.92610 0.41030 0.06600
C 	C 	0.88440 0.65930 0.41630 0.07800
C 	C 	0.89800 0.70250 0.40290 -0.13000
C 	C 	0.92300 0.70070 0.37270 0.06000
C 	C 	0.93150 0.65510 0.35890 -0.13700
C 	C 	0.91210 0.61490 0.37590 0.09200
C 	C 	0.97250 0.78420 0.31310 0.10400
C 	C 	0.93820 0.82970 0.35200 0.10300
C 	C 	0.93880 0.74670 0.35600 0.09500
C 	C 	0.98060 0.94030 0.96720 0.07800
C 	C 	0.92660 0.92820 0.99150 -0.12700
C 	C 	0.97450 0.90490 0.01470 0.05000
C 	C 	0.07460 0.89920 0.01290 -0.11600
C 	C 	0.12110 0.91410 0.98720 0.07000
C 	C 	0.11960 0.80150 0.13220 0.08200
C 	C 	0.06900 0.82240 0.10830 -0.12400
C 	C 	0.97230 0.83050 0.11080 0.07700
C 	C 	0.92580 0.81490 0.13450 -0.13300
C 	C 	0.97610 0.79460 0.15730 0.07400
C 	C 	0.53700 0.91420 0.09890 0.08400
C 	C 	0.63010 0.89610 0.09600 -0.12700
C 	C 	0.67970 0.90070 0.07040 0.04600
C 	C 	0.63430 0.92400 0.04690 -0.09800
C 	C 	0.53720 0.94030 0.05000 0.03500
C 	C 	0.91990 0.88780 0.04130 0.10800
C 	C 	0.92000 0.85350 0.08490 0.10400
C 	C 	0.78360 0.88640 0.06680 0.09800
C 	C 	0.95110 0.77260 0.74170 0.06100
C 	C 	0.98570 0.76880 0.77050 -0.11000
C 	C 	0.99740 0.72130 0.78170 0.05200
C 	C 	0.97710 0.68120 0.76470 -0.12100
C 	C 	0.93960 0.68810 0.73810 0.06400
C 	C 	0.10010 0.53340 0.86630 0.07100
C 	C 	0.08280 0.57800 0.85110 -0.11800
C 	C 	0.07600 0.62090 0.86670 0.05700
C 	C 	0.08370 0.61770 0.89630 -0.11500
C 	C 	0.10020 0.57390 0.91030 0.06600
C 	C 	0.11560 0.84070 0.91630 0.07800
C 	C 	0.10200 0.79750 0.90290 -0.13000
C 	C 	0.07700 0.79930 0.87270 0.06000
C 	C 	0.06850 0.84490 0.85890 -0.13700
C 	C 	0.08790 0.88510 0.87590 0.09200
C 	C 	0.02750 0.71580 0.81310 0.10400
C 	C 	0.06180 0.67030 0.85200 0.10300
C 	C 	0.06120 0.75330 0.85600 0.09500
C 	C 	0.01940 0.55970 0.46720 0.07700
C 	C 	0.07340 0.57180 0.49150 -0.12700
C 	C 	0.02550 0.59510 0.51470 0.04900
C 	C 	0.92540 0.60080 0.51290 -0.11400
C 	C 	0.87890 0.58590 0.48720 0.06900
C 	C 	0.88040 0.69850 0.63220 0.08200
C 	C 	0.93100 0.67760 0.60830 -0.12300
C 	C 	0.02770 0.66950 0.61080 0.07600
C 	C 	0.07420 0.68510 0.63450 -0.13200
C 	C 	0.02390 0.70540 0.65730 0.07300
C 	C 	0.46300 0.58580 0.59890 0.08400
C 	C 	0.36990 0.60390 0.59600 -0.12700
C 	C 	0.32030 0.59930 0.57040 0.04600
C 	C 	0.36570 0.57600 0.54690 -0.09800
C 	C 	0.46280 0.55970 0.55000 0.03500
C 	C 	0.08010 0.61220 0.54130 0.10800
C 	C 	0.08000 0.64650 0.58490 0.10500
C 	C 	0.21640 0.61360 0.56680 0.09800
I 	I 	0.67180 0.33636 0.32062 -0.37100
I 	I 	0.80873 0.19083 0.30503 -0.36500
I 	I 	0.26389 0.91481 0.11872 -0.37200
I 	I 	0.28958 0.99140 0.03317 -0.39000
I 	I 	0.44655 0.51659 0.10070 -0.36100
I 	I 	0.17235 0.44458 0.06485 -0.38000
I 	I 	0.32820 0.16364 0.82062 -0.37100
I 	I 	0.19127 0.30917 0.80503 -0.36500
I 	I 	0.73611 0.58519 0.61872 -0.37200
I 	I 	0.71042 0.50860 0.53317 -0.39000
I 	I 	0.55345 0.98341 0.60070 -0.36100
I 	I 	0.82765 0.05542 0.56485 -0.38100
I 	I 	0.17180 0.66364 0.17938 -0.37100
I 	I 	0.30873 0.80917 0.19497 -0.36500
I 	I 	0.76389 0.08519 0.38128 -0.37200
I 	I 	0.78958 0.00860 0.46683 -0.39000
I 	I 	0.94655 0.48341 0.39930 -0.36200
I 	I 	0.67235 0.55542 0.43515 -0.38000
I 	I 	0.82820 0.83636 0.67938 -0.37000
I 	I 	0.69127 0.69083 0.69497 -0.36500
I 	I 	0.23611 0.41481 0.88128 -0.37200
I 	I 	0.21042 0.49140 0.96683 -0.39000
I 	I 	0.05345 0.01659 0.89930 -0.36100
I 	I 	0.32765 0.94458 0.93515 -0.38100
N 	N 	0.57170 0.23390 0.27440 -0.27100
N 	N 	0.39190 0.03200 0.10510 -0.26800
N 	N 	0.38960 0.38550 0.09661 -0.28100
N 	N 	0.46090 0.17040 0.17610 -0.14000
N 	N 	0.42350 0.20930 0.13080 -0.13800
N 	N 	0.46330 0.25790 0.17250 -0.13800
N 	N 	0.57610 0.06540 0.53520 -0.27600
N 	N 	0.57480 0.21080 0.34380 -0.27700
N 	N 	0.99190 0.06430 0.42240 -0.26900
N 	N 	0.47090 0.13570 0.43860 -0.14000
N 	N 	0.32560 0.13670 0.41090 -0.13600
N 	N 	0.32850 0.10110 0.45790 -0.14800
N 	N 	0.42830 0.26610 0.77440 -0.27100
N 	N 	0.60810 0.46800 0.60510 -0.26800
N 	N 	0.61040 0.11450 0.59661 -0.28100
N 	N 	0.53910 0.32960 0.67610 -0.14000
N 	N 	0.57650 0.29070 0.63080 -0.13800
N 	N 	0.53670 0.24210 0.67250 -0.13800
N 	N 	0.42390 0.43460 0.03520 -0.27600
N 	N 	0.42520 0.28920 0.84380 -0.27700
N 	N 	0.00810 0.43570 0.92240 -0.26800
N 	N 	0.52910 0.36430 0.93860 -0.14000
N 	N 	0.67440 0.36330 0.91090 -0.13600
N 	N 	0.67150 0.39890 0.95790 -0.14800
N 	N 	0.07170 0.76610 0.22560 -0.27200
N 	N 	0.89190 0.96800 0.39490 -0.26800
N 	N 	0.88960 0.61450 0.40339 -0.28100
N 	N 	0.96090 0.82960 0.32390 -0.14000
N 	N 	0.92350 0.79070 0.36920 -0.13800
N 	N 	0.96330 0.74210 0.32750 -0.13900
N 	N 	0.07610 0.93460 0.96480 -0.27600
N 	N 	0.07480 0.78920 0.15620 -0.27800
N 	N 	0.49190 0.93570 0.07760 -0.26800
N 	N 	0.97090 0.86430 0.06140 -0.14000
N 	N 	0.82560 0.86330 0.08910 -0.13600
N 	N 	0.82850 0.89890 0.04210 -0.14800
N 	N 	0.92830 0.73390 0.72560 -0.27100
N 	N 	0.10810 0.53200 0.89490 -0.26800
N 	N 	0.11040 0.88550 0.90339 -0.28100
N 	N 	0.03910 0.67040 0.82390 -0.14000
N 	N 	0.07650 0.70930 0.86920 -0.13800
N 	N 	0.03670 0.75790 0.82750 -0.13900
N 	N 	0.92390 0.56540 0.46480 -0.27600
N 	N 	0.92520 0.71080 0.65620 -0.27700
N 	N 	0.50810 0.56430 0.57760 -0.26800
N 	N 	0.02910 0.63570 0.56140 -0.14100
N 	N 	0.17440 0.63670 0.58910 -0.13600
N 	N 	0.17150 0.60110 0.54210 -0.14800
