data_crystal

_cell_length_a 28.14700
_cell_length_b 13.89260
_cell_length_c 44.02800
_cell_angle_alpha 90.00000
_cell_angle_beta  90.00000
_cell_angle_gamma 90.00000

_symmetry_space_group_name_	'P 1'
_symmetry_space_group_name_H-M	'P 1'

loop_
_symmetry_equiv_pos_as_xyz
  x,y,z

loop_
_atom_site_label
_atom_site_type_symbol
_atom_site_fract_x
_atom_site_fract_y
_atom_site_fract_z
_atom_site_charge
Zn	Zn	0.02212 0.88888 0.91023 1.16300
Zn	Zn	0.54637 0.86352 0.90696 1.16300
Zn	Zn	0.76073 0.19089 0.67546 1.16300
I 	I 	0.00652 0.80378 0.96103 -0.39300
I 	I 	0.07090 0.81224 0.86847 -0.36900
I 	I 	0.55663 0.68203 0.90825 -0.38600
I 	I 	0.48174 0.95110 0.87713 -0.36000
I 	I 	0.67265 0.19159 0.66245 -0.37700
I 	I 	0.80338 0.35164 0.68203 -0.37100
C 	C 	0.91690 0.91260 0.90551 0.06200
H 	H 	0.91770 0.89720 0.92650 -0.00700
C 	C 	0.87290 0.92620 0.89157 -0.10800
H 	H 	0.84430 0.92000 0.90290 0.07800
C 	C 	0.87130 0.94890 0.86107 0.05400
C 	C 	0.91330 0.95800 0.84546 -0.11100
H 	H 	0.91300 0.97410 0.82450 0.08000
C 	C 	0.95590 0.94360 0.86030 0.06600
H 	H 	0.98460 0.95000 0.84910 -0.00500
C 	C 	0.81210 0.11280 0.72920 0.05400
H 	H 	0.83880 0.14090 0.71950 -0.00400
C 	C 	0.81790 0.07290 0.75726 -0.10400
H 	H 	0.84850 0.07150 0.76640 0.07600
C 	C 	0.77870 0.03370 0.77273 0.04000
C 	C 	0.73540 0.03260 0.75752 -0.10300
H 	H 	0.70820 0.00450 0.76670 0.07800
C 	C 	0.73220 0.07290 0.72882 0.05400
H 	H 	0.70240 0.07150 0.71880 0.00600
C 	C 	0.61370 0.94070 0.86229 0.06000
H 	H 	0.58490 0.95000 0.85140 -0.01200
C 	C 	0.65610 0.95780 0.84732 -0.11400
H 	H 	0.65650 0.97730 0.82660 0.08000
C 	C 	0.69820 0.94550 0.86359 0.05100
C 	C 	0.69620 0.91960 0.89393 -0.11700
H 	H 	0.72430 0.91330 0.90570 0.07800
C 	C 	0.65180 0.90310 0.90670 0.06700
H 	H 	0.65030 0.88470 0.92750 -0.01200
C 	C 	0.82400 0.96200 0.84532 0.10500
C 	C 	0.74500 0.95920 0.84767 0.10400
C 	C 	0.78170 0.99870 0.80411 0.10500
C 	C 	0.06660 0.63410 0.02642 0.06200
H 	H 	0.07250 0.70090 0.02920 -0.00400
C 	C 	0.07720 0.59260 0.99904 -0.11400
H 	H 	0.08920 0.63130 0.98300 0.08100
C 	C 	0.07050 0.49540 0.99437 0.05500
C 	C 	0.05030 0.44250 0.01853 -0.12500
H 	H 	0.04440 0.37550 0.01640 0.09400
C 	C 	0.03940 0.48870 0.04486 0.07500
H 	H 	0.02490 0.45260 0.06070 -0.01500
C 	C 	0.04250 0.06180 0.94880 0.06000
H 	H 	0.02700 0.02500 0.96400 -0.00200
C 	C 	0.05650 0.15550 0.95529 -0.11500
H 	H 	0.05050 0.18250 0.97470 0.08800
C 	C 	0.07960 0.21000 0.93287 0.04300
C 	C 	0.08810 0.16700 0.90457 -0.12200
H 	H 	0.10490 0.20080 0.88920 0.09700
C 	C 	0.07170 0.07450 0.89952 0.07000
H 	H 	0.07570 0.04730 0.87990 -0.00500
C 	C 	0.20120 0.51440 0.85414 0.07400
H 	H 	0.21830 0.48310 0.83840 -0.01400
C 	C 	0.17700 0.45940 0.87553 -0.12100
H 	H 	0.17700 0.39120 0.87420 0.08300
C 	C 	0.15290 0.50500 0.89871 0.06400
C 	C 	0.15240 0.60510 0.89900 -0.11900
H 	H 	0.13580 0.63910 0.91440 0.08000
C 	C 	0.17620 0.65350 0.87690 0.07700
H 	H 	0.17490 0.72180 0.87680 -0.01100
C 	C 	0.08630 0.44710 0.96619 0.09400
C 	C 	0.12630 0.44870 0.92238 0.10400
C 	C 	0.09250 0.31140 0.93806 0.09200
N 	N 	0.95840 0.92060 0.89016 -0.26800
N 	N 	0.61080 0.91190 0.89110 -0.27300
N 	N 	0.76930 0.11410 0.71442 -0.27000
N 	N 	0.78500 0.94560 0.86244 -0.14100
N 	N 	0.74100 0.98520 0.81821 -0.14100
N 	N 	0.82550 0.98750 0.81676 -0.14000
N 	N 	0.04800 0.58230 0.04972 -0.27400
N 	N 	0.20080 0.60980 0.85537 -0.27400
N 	N 	0.05060 0.02140 0.92101 -0.26800
N 	N 	0.11080 0.49890 0.94617 -0.14000
N 	N 	0.11910 0.35540 0.91719 -0.13500
N 	N 	0.07510 0.35240 0.96277 -0.14200
Zn	Zn	0.47788 0.11112 0.41023 1.16400
Zn	Zn	0.95363 0.13648 0.40696 1.16400
Zn	Zn	0.73927 0.80911 0.17546 1.16400
I 	I 	0.49348 0.19622 0.46103 -0.39200
I 	I 	0.42910 0.18776 0.36847 -0.36800
I 	I 	0.94337 0.31797 0.40825 -0.38500
I 	I 	0.01826 0.04890 0.37713 -0.35800
I 	I 	0.82735 0.80841 0.16245 -0.37600
I 	I 	0.69662 0.64836 0.18203 -0.37000
C 	C 	0.58310 0.08740 0.40551 0.06300
H 	H 	0.58230 0.10280 0.42650 -0.00700
C 	C 	0.62710 0.07380 0.39157 -0.10800
H 	H 	0.65570 0.08000 0.40290 0.07800
C 	C 	0.62870 0.05110 0.36107 0.05400
C 	C 	0.58670 0.04200 0.34546 -0.11100
H 	H 	0.58700 0.02590 0.32450 0.08000
C 	C 	0.54410 0.05640 0.36030 0.06600
H 	H 	0.51540 0.05000 0.34910 -0.00500
C 	C 	0.68790 0.88720 0.22920 0.05400
H 	H 	0.66120 0.85910 0.21950 -0.00400
C 	C 	0.68210 0.92710 0.25726 -0.10500
H 	H 	0.65150 0.92850 0.26640 0.07600
C 	C 	0.72130 0.96630 0.27273 0.04100
C 	C 	0.76460 0.96740 0.25752 -0.10300
H 	H 	0.79180 0.99550 0.26670 0.07800
C 	C 	0.76780 0.92710 0.22882 0.05500
H 	H 	0.79760 0.92850 0.21880 0.00600
C 	C 	0.88630 0.05930 0.36229 0.06000
H 	H 	0.91510 0.05000 0.35140 -0.01300
C 	C 	0.84390 0.04220 0.34732 -0.11400
H 	H 	0.84350 0.02270 0.32660 0.07900
C 	C 	0.80180 0.05450 0.36359 0.05100
C 	C 	0.80380 0.08040 0.39393 -0.11700
H 	H 	0.77570 0.08670 0.40570 0.07800
C 	C 	0.84820 0.09690 0.40670 0.06700
H 	H 	0.84970 0.11530 0.42750 -0.01200
C 	C 	0.67600 0.03800 0.34532 0.10500
C 	C 	0.75500 0.04080 0.34767 0.10400
C 	C 	0.71830 0.00130 0.30411 0.10400
C 	C 	0.43340 0.36590 0.52642 0.06200
H 	H 	0.42750 0.29910 0.52920 -0.00400
C 	C 	0.42280 0.40740 0.49904 -0.11400
H 	H 	0.41080 0.36870 0.48300 0.08100
C 	C 	0.42950 0.50460 0.49437 0.05500
C 	C 	0.44970 0.55750 0.51853 -0.12500
H 	H 	0.45560 0.62450 0.51640 0.09400
C 	C 	0.46060 0.51130 0.54486 0.07500
H 	H 	0.47510 0.54740 0.56070 -0.01500
C 	C 	0.45750 0.93820 0.44880 0.06000
H 	H 	0.47300 0.97500 0.46400 -0.00300
C 	C 	0.44350 0.84450 0.45529 -0.11500
H 	H 	0.44950 0.81750 0.47470 0.08800
C 	C 	0.42040 0.79000 0.43287 0.04300
C 	C 	0.41190 0.83300 0.40457 -0.12200
H 	H 	0.39510 0.79920 0.38920 0.09700
C 	C 	0.42830 0.92550 0.39952 0.07000
H 	H 	0.42430 0.95270 0.37990 -0.00500
C 	C 	0.29880 0.48560 0.35414 0.07400
H 	H 	0.28170 0.51690 0.33840 -0.01400
C 	C 	0.32300 0.54060 0.37553 -0.12200
H 	H 	0.32300 0.60880 0.37420 0.08300
C 	C 	0.34710 0.49500 0.39871 0.06400
C 	C 	0.34760 0.39490 0.39900 -0.11900
H 	H 	0.36420 0.36090 0.41440 0.08000
C 	C 	0.32380 0.34650 0.37690 0.07700
H 	H 	0.32510 0.27820 0.37680 -0.01100
C 	C 	0.41370 0.55290 0.46619 0.09400
C 	C 	0.37370 0.55130 0.42238 0.10400
C 	C 	0.40750 0.68860 0.43806 0.09200
N 	N 	0.54160 0.07940 0.39016 -0.26800
N 	N 	0.88920 0.08810 0.39110 -0.27300
N 	N 	0.73070 0.88590 0.21442 -0.27000
N 	N 	0.71500 0.05440 0.36244 -0.14100
N 	N 	0.75900 0.01480 0.31821 -0.14100
N 	N 	0.67450 0.01250 0.31676 -0.14000
N 	N 	0.45200 0.41770 0.54972 -0.27400
N 	N 	0.29920 0.39020 0.35537 -0.27400
N 	N 	0.44940 0.97860 0.42101 -0.26800
N 	N 	0.38920 0.50110 0.44617 -0.14000
N 	N 	0.38090 0.64460 0.41719 -0.13500
N 	N 	0.42490 0.64760 0.46277 -0.14200
Zn	Zn	0.97788 0.38888 0.58977 1.16400
Zn	Zn	0.45363 0.36352 0.59304 1.16400
Zn	Zn	0.23927 0.69089 0.82454 1.16400
I 	I 	0.99348 0.30378 0.53897 -0.39200
I 	I 	0.92910 0.31224 0.63153 -0.36800
I 	I 	0.44337 0.18203 0.59175 -0.38500
I 	I 	0.51826 0.45110 0.62287 -0.35900
I 	I 	0.32735 0.69159 0.83755 -0.37600
I 	I 	0.19662 0.85164 0.81797 -0.37000
C 	C 	0.08310 0.41260 0.59449 0.06300
H 	H 	0.08230 0.39720 0.57350 -0.00700
C 	C 	0.12710 0.42620 0.60843 -0.10800
H 	H 	0.15570 0.42000 0.59710 0.07800
C 	C 	0.12870 0.44890 0.63893 0.05400
C 	C 	0.08670 0.45800 0.65454 -0.11100
H 	H 	0.08700 0.47410 0.67550 0.08000
C 	C 	0.04410 0.44360 0.63970 0.06600
H 	H 	0.01540 0.45000 0.65090 -0.00500
C 	C 	0.18790 0.61280 0.77080 0.05400
H 	H 	0.16120 0.64090 0.78050 -0.00400
C 	C 	0.18210 0.57290 0.74274 -0.10500
H 	H 	0.15150 0.57150 0.73360 0.07600
C 	C 	0.22130 0.53370 0.72727 0.04100
C 	C 	0.26460 0.53260 0.74248 -0.10300
H 	H 	0.29180 0.50450 0.73330 0.07800
C 	C 	0.26780 0.57290 0.77118 0.05400
H 	H 	0.29760 0.57150 0.78120 0.00600
C 	C 	0.38630 0.44070 0.63771 0.06000
H 	H 	0.41510 0.45000 0.64860 -0.01200
C 	C 	0.34390 0.45780 0.65268 -0.11400
H 	H 	0.34350 0.47730 0.67340 0.08000
C 	C 	0.30180 0.44550 0.63641 0.05100
C 	C 	0.30380 0.41960 0.60607 -0.11700
H 	H 	0.27570 0.41330 0.59430 0.07800
C 	C 	0.34820 0.40310 0.59330 0.06700
H 	H 	0.34970 0.38470 0.57250 -0.01200
C 	C 	0.17600 0.46200 0.65468 0.10500
C 	C 	0.25500 0.45920 0.65233 0.10400
C 	C 	0.21830 0.49870 0.69589 0.10500
C 	C 	0.93340 0.13410 0.47358 0.06300
H 	H 	0.92750 0.20090 0.47080 -0.00400
C 	C 	0.92280 0.09260 0.50096 -0.11600
H 	H 	0.91080 0.13130 0.51700 0.08100
C 	C 	0.92950 0.99540 0.50563 0.05700
C 	C 	0.94970 0.94250 0.48147 -0.12600
H 	H 	0.95560 0.87550 0.48360 0.09400
C 	C 	0.96060 0.98870 0.45514 0.07600
H 	H 	0.97510 0.95260 0.43930 -0.01500
C 	C 	0.95750 0.56180 0.55120 0.06000
H 	H 	0.97300 0.52500 0.53600 -0.00200
C 	C 	0.94350 0.65550 0.54471 -0.11500
H 	H 	0.94950 0.68250 0.52530 0.08800
C 	C 	0.92040 0.71000 0.56713 0.04300
C 	C 	0.91190 0.66700 0.59543 -0.12200
H 	H 	0.89510 0.70080 0.61080 0.09700
C 	C 	0.92830 0.57450 0.60048 0.07000
H 	H 	0.92430 0.54730 0.62010 -0.00500
C 	C 	0.79880 0.01440 0.64586 0.07100
H 	H 	0.78170 0.98310 0.66160 -0.01300
C 	C 	0.82300 0.95940 0.62447 -0.11800
H 	H 	0.82300 0.89120 0.62580 0.08100
C 	C 	0.84710 0.00500 0.60129 0.06000
C 	C 	0.84760 0.10510 0.60100 -0.11700
H 	H 	0.86420 0.13910 0.58560 0.07900
C 	C 	0.82380 0.15350 0.62310 0.07600
H 	H 	0.82510 0.22180 0.62320 -0.01100
C 	C 	0.91370 0.94710 0.53381 0.09300
C 	C 	0.87370 0.94870 0.57762 0.10500
C 	C 	0.90750 0.81140 0.56194 0.09200
N 	N 	0.04160 0.42060 0.60984 -0.26800
N 	N 	0.38920 0.41190 0.60890 -0.27300
N 	N 	0.23070 0.61410 0.78558 -0.27000
N 	N 	0.21500 0.44560 0.63756 -0.14100
N 	N 	0.25900 0.48520 0.68179 -0.14100
N 	N 	0.17450 0.48750 0.68324 -0.14000
N 	N 	0.95200 0.08230 0.45028 -0.27400
N 	N 	0.79920 0.10980 0.64463 -0.27300
N 	N 	0.94940 0.52140 0.57899 -0.26800
N 	N 	0.88920 0.99890 0.55383 -0.14000
N 	N 	0.88090 0.85540 0.58281 -0.13600
N 	N 	0.92490 0.85240 0.53723 -0.14200
Zn	Zn	0.52212 0.61112 0.08977 1.16400
Zn	Zn	0.04637 0.63648 0.09304 1.16400
Zn	Zn	0.26073 0.30911 0.32454 1.16400
I 	I 	0.50652 0.69622 0.03897 -0.39200
I 	I 	0.57090 0.68776 0.13153 -0.36800
I 	I 	0.05663 0.81797 0.09175 -0.38600
I 	I 	0.98174 0.54890 0.12287 -0.35900
I 	I 	0.17265 0.30841 0.33755 -0.37600
I 	I 	0.30338 0.14836 0.31797 -0.36900
C 	C 	0.41690 0.58740 0.09449 0.06300
H 	H 	0.41770 0.60280 0.07350 -0.00700
C 	C 	0.37290 0.57380 0.10843 -0.10800
H 	H 	0.34430 0.58000 0.09710 0.07800
C 	C 	0.37130 0.55110 0.13893 0.05400
C 	C 	0.41330 0.54200 0.15454 -0.11100
H 	H 	0.41300 0.52590 0.17550 0.08000
C 	C 	0.45590 0.55640 0.13970 0.06600
H 	H 	0.48460 0.55000 0.15090 -0.00500
C 	C 	0.31210 0.38720 0.27080 0.05400
H 	H 	0.33880 0.35910 0.28050 -0.00400
C 	C 	0.31790 0.42710 0.24274 -0.10500
H 	H 	0.34850 0.42850 0.23360 0.07600
C 	C 	0.27870 0.46630 0.22727 0.04100
C 	C 	0.23540 0.46740 0.24248 -0.10300
H 	H 	0.20820 0.49550 0.23330 0.07800
C 	C 	0.23220 0.42710 0.27118 0.05400
H 	H 	0.20240 0.42850 0.28120 0.00600
C 	C 	0.11370 0.55930 0.13771 0.06000
H 	H 	0.08490 0.55000 0.14860 -0.01200
C 	C 	0.15610 0.54220 0.15268 -0.11400
H 	H 	0.15650 0.52270 0.17340 0.08000
C 	C 	0.19820 0.55450 0.13641 0.05100
C 	C 	0.19620 0.58040 0.10607 -0.11700
H 	H 	0.22430 0.58670 0.09430 0.07800
C 	C 	0.15180 0.59690 0.09330 0.06700
H 	H 	0.15030 0.61530 0.07250 -0.01200
C 	C 	0.32400 0.53800 0.15468 0.10500
C 	C 	0.24500 0.54080 0.15233 0.10400
C 	C 	0.28170 0.50130 0.19589 0.10500
C 	C 	0.56660 0.86590 0.97358 0.06200
H 	H 	0.57250 0.79910 0.97080 -0.00400
C 	C 	0.57720 0.90740 0.00096 -0.11400
H 	H 	0.58920 0.86870 0.01700 0.08100
C 	C 	0.57050 0.00460 0.00563 0.05500
C 	C 	0.55030 0.05750 0.98147 -0.12400
H 	H 	0.54440 0.12450 0.98360 0.09400
C 	C 	0.53940 0.01130 0.95514 0.07400
H 	H 	0.52490 0.04740 0.93930 -0.01500
C 	C 	0.54250 0.43820 0.05120 0.06000
H 	H 	0.52700 0.47500 0.03600 -0.00300
C 	C 	0.55650 0.34450 0.04471 -0.11500
H 	H 	0.55050 0.31750 0.02530 0.08800
C 	C 	0.57960 0.29000 0.06713 0.04300
C 	C 	0.58810 0.33300 0.09543 -0.12200
H 	H 	0.60490 0.29920 0.11080 0.09700
C 	C 	0.57170 0.42550 0.10048 0.07000
H 	H 	0.57570 0.45270 0.12010 -0.00500
C 	C 	0.70120 0.98560 0.14586 0.07500
H 	H 	0.71830 0.01690 0.16160 -0.01500
C 	C 	0.67700 0.04060 0.12447 -0.12200
H 	H 	0.67700 0.10880 0.12580 0.08300
C 	C 	0.65290 0.99500 0.10129 0.06400
C 	C 	0.65240 0.89490 0.10100 -0.11900
H 	H 	0.63580 0.86090 0.08560 0.08000
C 	C 	0.67620 0.84650 0.12310 0.07700
H 	H 	0.67490 0.77820 0.12320 -0.01100
C 	C 	0.58630 0.05290 0.03381 0.09400
C 	C 	0.62630 0.05130 0.07762 0.10300
C 	C 	0.59250 0.18860 0.06194 0.09200
N 	N 	0.45840 0.57940 0.10984 -0.26800
N 	N 	0.11080 0.58810 0.10890 -0.27300
N 	N 	0.26930 0.38590 0.28558 -0.27000
N 	N 	0.28500 0.55440 0.13756 -0.14100
N 	N 	0.24100 0.51480 0.18179 -0.14100
N 	N 	0.32550 0.51250 0.18324 -0.14100
N 	N 	0.54800 0.91770 0.95028 -0.27400
N 	N 	0.70080 0.89020 0.14463 -0.27400
N 	N 	0.55060 0.47860 0.07899 -0.26800
N 	N 	0.61080 0.00110 0.05383 -0.14000
N 	N 	0.61910 0.14460 0.08281 -0.13500
N 	N 	0.57510 0.14760 0.03723 -0.14200
Zn	Zn	0.97788 0.11112 0.08977 1.16400
Zn	Zn	0.45363 0.13648 0.09304 1.16400
Zn	Zn	0.23927 0.80911 0.32454 1.16400
I 	I 	0.99348 0.19622 0.03897 -0.39200
I 	I 	0.92910 0.18776 0.13153 -0.36800
I 	I 	0.44337 0.31797 0.09175 -0.38500
I 	I 	0.51826 0.04890 0.12287 -0.35900
I 	I 	0.32735 0.80841 0.33755 -0.37600
I 	I 	0.19662 0.64836 0.31797 -0.37000
C 	C 	0.08310 0.08740 0.09449 0.06300
H 	H 	0.08230 0.10280 0.07350 -0.00700
C 	C 	0.12710 0.07380 0.10843 -0.10800
H 	H 	0.15570 0.08000 0.09710 0.07800
C 	C 	0.12870 0.05110 0.13893 0.05400
C 	C 	0.08670 0.04200 0.15454 -0.11100
H 	H 	0.08700 0.02590 0.17550 0.08000
C 	C 	0.04410 0.05640 0.13970 0.06600
H 	H 	0.01540 0.05000 0.15090 -0.00500
C 	C 	0.18790 0.88720 0.27080 0.05400
H 	H 	0.16120 0.85910 0.28050 -0.00400
C 	C 	0.18210 0.92710 0.24274 -0.10400
H 	H 	0.15150 0.92850 0.23360 0.07600
C 	C 	0.22130 0.96630 0.22727 0.04000
C 	C 	0.26460 0.96740 0.24248 -0.10300
H 	H 	0.29180 0.99550 0.23330 0.07800
C 	C 	0.26780 0.92710 0.27118 0.05400
H 	H 	0.29760 0.92850 0.28120 0.00600
C 	C 	0.38630 0.05930 0.13771 0.06000
H 	H 	0.41510 0.05000 0.14860 -0.01200
C 	C 	0.34390 0.04220 0.15268 -0.11400
H 	H 	0.34350 0.02270 0.17340 0.08000
C 	C 	0.30180 0.05450 0.13641 0.05100
C 	C 	0.30380 0.08040 0.10607 -0.11700
H 	H 	0.27570 0.08670 0.09430 0.07800
C 	C 	0.34820 0.09690 0.09330 0.06700
H 	H 	0.34970 0.11530 0.07250 -0.01200
C 	C 	0.17600 0.03800 0.15468 0.10500
C 	C 	0.25500 0.04080 0.15233 0.10400
C 	C 	0.21830 0.00130 0.19589 0.10500
C 	C 	0.93340 0.36590 0.97358 0.06200
H 	H 	0.92750 0.29910 0.97080 -0.00400
C 	C 	0.92280 0.40740 0.00096 -0.11400
H 	H 	0.91080 0.36870 0.01700 0.08100
C 	C 	0.92950 0.50460 0.00563 0.05500
C 	C 	0.94970 0.55750 0.98147 -0.12500
H 	H 	0.95560 0.62450 0.98360 0.09400
C 	C 	0.96060 0.51130 0.95514 0.07500
H 	H 	0.97510 0.54740 0.93930 -0.01500
C 	C 	0.95750 0.93820 0.05120 0.06000
H 	H 	0.97300 0.97500 0.03600 -0.00200
C 	C 	0.94350 0.84450 0.04471 -0.11500
H 	H 	0.94950 0.81750 0.02530 0.08800
C 	C 	0.92040 0.79000 0.06713 0.04300
C 	C 	0.91190 0.83300 0.09543 -0.12200
H 	H 	0.89510 0.79920 0.11080 0.09700
C 	C 	0.92830 0.92550 0.10048 0.07000
H 	H 	0.92430 0.95270 0.12010 -0.00500
C 	C 	0.79880 0.48560 0.14586 0.07400
H 	H 	0.78170 0.51690 0.16160 -0.01400
C 	C 	0.82300 0.54060 0.12447 -0.12100
H 	H 	0.82300 0.60880 0.12580 0.08300
C 	C 	0.84710 0.49500 0.10129 0.06400
C 	C 	0.84760 0.39490 0.10100 -0.11900
H 	H 	0.86420 0.36090 0.08560 0.08000
C 	C 	0.82380 0.34650 0.12310 0.07700
H 	H 	0.82510 0.27820 0.12320 -0.01100
C 	C 	0.91370 0.55290 0.03381 0.09400
C 	C 	0.87370 0.55130 0.07762 0.10400
C 	C 	0.90750 0.68860 0.06194 0.09200
N 	N 	0.04160 0.07940 0.10984 -0.26800
N 	N 	0.38920 0.08810 0.10890 -0.27300
N 	N 	0.23070 0.88590 0.28558 -0.27000
N 	N 	0.21500 0.05440 0.13756 -0.14100
N 	N 	0.25900 0.01480 0.18179 -0.14100
N 	N 	0.17450 0.01250 0.18324 -0.14000
N 	N 	0.95200 0.41770 0.95028 -0.27400
N 	N 	0.79920 0.39020 0.14463 -0.27400
N 	N 	0.94940 0.97860 0.07899 -0.26800
N 	N 	0.88920 0.50110 0.05383 -0.14000
N 	N 	0.88090 0.64460 0.08281 -0.13500
N 	N 	0.92490 0.64760 0.03723 -0.14200
Zn	Zn	0.52212 0.88888 0.58977 1.16400
Zn	Zn	0.04637 0.86352 0.59304 1.16400
Zn	Zn	0.26073 0.19089 0.82454 1.16400
I 	I 	0.50652 0.80378 0.53897 -0.39200
I 	I 	0.57090 0.81224 0.63153 -0.36800
I 	I 	0.05663 0.68203 0.59175 -0.38500
I 	I 	0.98174 0.95110 0.62287 -0.35800
I 	I 	0.17265 0.19159 0.83755 -0.37600
I 	I 	0.30338 0.35164 0.81797 -0.37000
C 	C 	0.41690 0.91260 0.59449 0.06300
H 	H 	0.41770 0.89720 0.57350 -0.00700
C 	C 	0.37290 0.92620 0.60843 -0.10800
H 	H 	0.34430 0.92000 0.59710 0.07800
C 	C 	0.37130 0.94890 0.63893 0.05400
C 	C 	0.41330 0.95800 0.65454 -0.11100
H 	H 	0.41300 0.97410 0.67550 0.08000
C 	C 	0.45590 0.94360 0.63970 0.06600
H 	H 	0.48460 0.95000 0.65090 -0.00500
C 	C 	0.31210 0.11280 0.77080 0.05400
H 	H 	0.33880 0.14090 0.78050 -0.00400
C 	C 	0.31790 0.07290 0.74274 -0.10500
H 	H 	0.34850 0.07150 0.73360 0.07600
C 	C 	0.27870 0.03370 0.72727 0.04100
C 	C 	0.23540 0.03260 0.74248 -0.10300
H 	H 	0.20820 0.00450 0.73330 0.07800
C 	C 	0.23220 0.07290 0.77118 0.05500
H 	H 	0.20240 0.07150 0.78120 0.00600
C 	C 	0.11370 0.94070 0.63771 0.06000
H 	H 	0.08490 0.95000 0.64860 -0.01300
C 	C 	0.15610 0.95780 0.65268 -0.11400
H 	H 	0.15650 0.97730 0.67340 0.07900
C 	C 	0.19820 0.94550 0.63641 0.05100
C 	C 	0.19620 0.91960 0.60607 -0.11700
H 	H 	0.22430 0.91330 0.59430 0.07800
C 	C 	0.15180 0.90310 0.59330 0.06700
H 	H 	0.15030 0.88470 0.57250 -0.01200
C 	C 	0.32400 0.96200 0.65468 0.10500
C 	C 	0.24500 0.95920 0.65233 0.10400
C 	C 	0.28170 0.99870 0.69589 0.10400
C 	C 	0.56660 0.63410 0.47358 0.06200
H 	H 	0.57250 0.70090 0.47080 -0.00400
C 	C 	0.57720 0.59260 0.50096 -0.11400
H 	H 	0.58920 0.63130 0.51700 0.08100
C 	C 	0.57050 0.49540 0.50563 0.05500
C 	C 	0.55030 0.44250 0.48147 -0.12500
H 	H 	0.54440 0.37550 0.48360 0.09400
C 	C 	0.53940 0.48870 0.45514 0.07500
H 	H 	0.52490 0.45260 0.43930 -0.01500
C 	C 	0.54250 0.06180 0.55120 0.06000
H 	H 	0.52700 0.02500 0.53600 -0.00300
C 	C 	0.55650 0.15550 0.54471 -0.11500
H 	H 	0.55050 0.18250 0.52530 0.08800
C 	C 	0.57960 0.21000 0.56713 0.04300
C 	C 	0.58810 0.16700 0.59543 -0.12200
H 	H 	0.60490 0.20080 0.61080 0.09700
C 	C 	0.57170 0.07450 0.60048 0.07000
H 	H 	0.57570 0.04730 0.62010 -0.00500
C 	C 	0.70120 0.51440 0.64586 0.07400
H 	H 	0.71830 0.48310 0.66160 -0.01400
C 	C 	0.67700 0.45940 0.62447 -0.12200
H 	H 	0.67700 0.39120 0.62580 0.08300
C 	C 	0.65290 0.50500 0.60129 0.06400
C 	C 	0.65240 0.60510 0.60100 -0.11900
H 	H 	0.63580 0.63910 0.58560 0.08000
C 	C 	0.67620 0.65350 0.62310 0.07700
H 	H 	0.67490 0.72180 0.62320 -0.01100
C 	C 	0.58630 0.44710 0.53381 0.09400
C 	C 	0.62630 0.44870 0.57762 0.10400
C 	C 	0.59250 0.31140 0.56194 0.09200
N 	N 	0.45840 0.92060 0.60984 -0.26800
N 	N 	0.11080 0.91190 0.60890 -0.27300
N 	N 	0.26930 0.11410 0.78558 -0.27000
N 	N 	0.28500 0.94560 0.63756 -0.14100
N 	N 	0.24100 0.98520 0.68179 -0.14100
N 	N 	0.32550 0.98750 0.68324 -0.14000
N 	N 	0.54800 0.58230 0.45028 -0.27400
N 	N 	0.70080 0.60980 0.64463 -0.27400
N 	N 	0.55060 0.02140 0.57899 -0.26800
N 	N 	0.61080 0.49890 0.55383 -0.14000
N 	N 	0.61910 0.35540 0.58281 -0.13500
N 	N 	0.57510 0.35240 0.53723 -0.14200
Zn	Zn	0.02212 0.61112 0.41023 1.16400
Zn	Zn	0.54637 0.63648 0.40696 1.16400
Zn	Zn	0.76073 0.30911 0.17546 1.16400
I 	I 	0.00652 0.69622 0.46103 -0.39200
I 	I 	0.07090 0.68776 0.36847 -0.36800
I 	I 	0.55663 0.81797 0.40825 -0.38500
I 	I 	0.48174 0.54890 0.37713 -0.35900
I 	I 	0.67265 0.30841 0.16245 -0.37600
I 	I 	0.80338 0.14836 0.18203 -0.37000
C 	C 	0.91690 0.58740 0.40551 0.06300
H 	H 	0.91770 0.60280 0.42650 -0.00700
C 	C 	0.87290 0.57380 0.39157 -0.10800
H 	H 	0.84430 0.58000 0.40290 0.07800
C 	C 	0.87130 0.55110 0.36107 0.05400
C 	C 	0.91330 0.54200 0.34546 -0.11100
H 	H 	0.91300 0.52590 0.32450 0.08000
C 	C 	0.95590 0.55640 0.36030 0.06600
H 	H 	0.98460 0.55000 0.34910 -0.00500
C 	C 	0.81210 0.38720 0.22920 0.05400
H 	H 	0.83880 0.35910 0.21950 -0.00400
C 	C 	0.81790 0.42710 0.25726 -0.10500
H 	H 	0.84850 0.42850 0.26640 0.07600
C 	C 	0.77870 0.46630 0.27273 0.04100
C 	C 	0.73540 0.46740 0.25752 -0.10300
H 	H 	0.70820 0.49550 0.26670 0.07800
C 	C 	0.73220 0.42710 0.22882 0.05400
H 	H 	0.70240 0.42850 0.21880 0.00600
C 	C 	0.61370 0.55930 0.36229 0.06000
H 	H 	0.58490 0.55000 0.35140 -0.01200
C 	C 	0.65610 0.54220 0.34732 -0.11400
H 	H 	0.65650 0.52270 0.32660 0.08000
C 	C 	0.69820 0.55450 0.36359 0.05100
C 	C 	0.69620 0.58040 0.39393 -0.11700
H 	H 	0.72430 0.58670 0.40570 0.07800
C 	C 	0.65180 0.59690 0.40670 0.06700
H 	H 	0.65030 0.61530 0.42750 -0.01200
C 	C 	0.82400 0.53800 0.34532 0.10500
C 	C 	0.74500 0.54080 0.34767 0.10400
C 	C 	0.78170 0.50130 0.30411 0.10500
C 	C 	0.06660 0.86590 0.52642 0.06300
H 	H 	0.07250 0.79910 0.52920 -0.00400
C 	C 	0.07720 0.90740 0.49904 -0.11600
H 	H 	0.08920 0.86870 0.48300 0.08100
C 	C 	0.07050 0.00460 0.49437 0.05700
C 	C 	0.05030 0.05750 0.51853 -0.12600
H 	H 	0.04440 0.12450 0.51640 0.09400
C 	C 	0.03940 0.01130 0.54486 0.07600
H 	H 	0.02490 0.04740 0.56070 -0.01500
C 	C 	0.04250 0.43820 0.44880 0.06000
H 	H 	0.02700 0.47500 0.46400 -0.00200
C 	C 	0.05650 0.34450 0.45529 -0.11500
H 	H 	0.05050 0.31750 0.47470 0.08800
C 	C 	0.07960 0.29000 0.43287 0.04300
C 	C 	0.08810 0.33300 0.40457 -0.12200
H 	H 	0.10490 0.29920 0.38920 0.09700
C 	C 	0.07170 0.42550 0.39952 0.07000
H 	H 	0.07570 0.45270 0.37990 -0.00500
C 	C 	0.20120 0.98560 0.35414 0.07100
H 	H 	0.21830 0.01690 0.33840 -0.01300
C 	C 	0.17700 0.04060 0.37553 -0.11800
H 	H 	0.17700 0.10880 0.37420 0.08100
C 	C 	0.15290 0.99500 0.39871 0.06000
C 	C 	0.15240 0.89490 0.39900 -0.11700
H 	H 	0.13580 0.86090 0.41440 0.07900
C 	C 	0.17620 0.84650 0.37690 0.07600
H 	H 	0.17490 0.77820 0.37680 -0.01100
C 	C 	0.08630 0.05290 0.46619 0.09300
C 	C 	0.12630 0.05130 0.42238 0.10500
C 	C 	0.09250 0.18860 0.43806 0.09200
N 	N 	0.95840 0.57940 0.39016 -0.26800
N 	N 	0.61080 0.58810 0.39110 -0.27300
N 	N 	0.76930 0.38590 0.21442 -0.27000
N 	N 	0.78500 0.55440 0.36244 -0.14100
N 	N 	0.74100 0.51480 0.31821 -0.14100
N 	N 	0.82550 0.51250 0.31676 -0.14000
N 	N 	0.04800 0.91770 0.54972 -0.27400
N 	N 	0.20080 0.89020 0.35537 -0.27300
N 	N 	0.05060 0.47860 0.42101 -0.26800
N 	N 	0.11080 0.00110 0.44617 -0.14000
N 	N 	0.11910 0.14460 0.41719 -0.13600
N 	N 	0.07510 0.14760 0.46277 -0.14200
Zn	Zn	0.47788 0.38888 0.91023 1.16400
Zn	Zn	0.95363 0.36352 0.90696 1.16400
Zn	Zn	0.73927 0.69089 0.67546 1.16400
I 	I 	0.49348 0.30378 0.96103 -0.39200
I 	I 	0.42910 0.31224 0.86847 -0.36800
I 	I 	0.94337 0.18203 0.90825 -0.38600
I 	I 	0.01826 0.45110 0.87713 -0.35900
I 	I 	0.82735 0.69159 0.66245 -0.37600
I 	I 	0.69662 0.85164 0.68203 -0.36900
C 	C 	0.58310 0.41260 0.90551 0.06300
H 	H 	0.58230 0.39720 0.92650 -0.00700
C 	C 	0.62710 0.42620 0.89157 -0.10800
H 	H 	0.65570 0.42000 0.90290 0.07800
C 	C 	0.62870 0.44890 0.86107 0.05400
C 	C 	0.58670 0.45800 0.84546 -0.11100
H 	H 	0.58700 0.47410 0.82450 0.08000
C 	C 	0.54410 0.44360 0.86030 0.06600
H 	H 	0.51540 0.45000 0.84910 -0.00500
C 	C 	0.68790 0.61280 0.72920 0.05400
H 	H 	0.66120 0.64090 0.71950 -0.00400
C 	C 	0.68210 0.57290 0.75726 -0.10500
H 	H 	0.65150 0.57150 0.76640 0.07600
C 	C 	0.72130 0.53370 0.77273 0.04100
C 	C 	0.76460 0.53260 0.75752 -0.10300
H 	H 	0.79180 0.50450 0.76670 0.07800
C 	C 	0.76780 0.57290 0.72882 0.05400
H 	H 	0.79760 0.57150 0.71880 0.00600
C 	C 	0.88630 0.44070 0.86229 0.06000
H 	H 	0.91510 0.45000 0.85140 -0.01200
C 	C 	0.84390 0.45780 0.84732 -0.11400
H 	H 	0.84350 0.47730 0.82660 0.08000
C 	C 	0.80180 0.44550 0.86359 0.05100
C 	C 	0.80380 0.41960 0.89393 -0.11700
H 	H 	0.77570 0.41330 0.90570 0.07800
C 	C 	0.84820 0.40310 0.90670 0.06700
H 	H 	0.84970 0.38470 0.92750 -0.01200
C 	C 	0.67600 0.46200 0.84532 0.10500
C 	C 	0.75500 0.45920 0.84767 0.10400
C 	C 	0.71830 0.49870 0.80411 0.10500
C 	C 	0.43340 0.13410 0.02642 0.06200
H 	H 	0.42750 0.20090 0.02920 -0.00400
C 	C 	0.42280 0.09260 0.99904 -0.11400
H 	H 	0.41080 0.13130 0.98300 0.08100
C 	C 	0.42950 0.99540 0.99437 0.05500
C 	C 	0.44970 0.94250 0.01853 -0.12400
H 	H 	0.45560 0.87550 0.01640 0.09400
C 	C 	0.46060 0.98870 0.04486 0.07400
H 	H 	0.47510 0.95260 0.06070 -0.01500
C 	C 	0.45750 0.56180 0.94880 0.06000
H 	H 	0.47300 0.52500 0.96400 -0.00300
C 	C 	0.44350 0.65550 0.95529 -0.11500
H 	H 	0.44950 0.68250 0.97470 0.08800
C 	C 	0.42040 0.71000 0.93287 0.04300
C 	C 	0.41190 0.66700 0.90457 -0.12200
H 	H 	0.39510 0.70080 0.88920 0.09700
C 	C 	0.42830 0.57450 0.89952 0.07000
H 	H 	0.42430 0.54730 0.87990 -0.00500
C 	C 	0.29880 0.01440 0.85414 0.07500
H 	H 	0.28170 0.98310 0.83840 -0.01500
C 	C 	0.32300 0.95940 0.87553 -0.12200
H 	H 	0.32300 0.89120 0.87420 0.08300
C 	C 	0.34710 0.00500 0.89871 0.06400
C 	C 	0.34760 0.10510 0.89900 -0.11900
H 	H 	0.36420 0.13910 0.91440 0.08000
C 	C 	0.32380 0.15350 0.87690 0.07700
H 	H 	0.32510 0.22180 0.87680 -0.01100
C 	C 	0.41370 0.94710 0.96619 0.09400
C 	C 	0.37370 0.94870 0.92238 0.10300
C 	C 	0.40750 0.81140 0.93806 0.09200
N 	N 	0.54160 0.42060 0.89016 -0.26800
N 	N 	0.88920 0.41190 0.89110 -0.27300
N 	N 	0.73070 0.61410 0.71442 -0.27000
N 	N 	0.71500 0.44560 0.86244 -0.14100
N 	N 	0.75900 0.48520 0.81821 -0.14100
N 	N 	0.67450 0.48750 0.81676 -0.14100
N 	N 	0.45200 0.08230 0.04972 -0.27400
N 	N 	0.29920 0.10980 0.85537 -0.27400
N 	N 	0.44940 0.52140 0.92101 -0.26800
N 	N 	0.38920 0.99890 0.94617 -0.14000
N 	N 	0.38090 0.85540 0.91719 -0.13500
N 	N 	0.42490 0.85240 0.96277 -0.14200
