data_crystal

_cell_length_a 13.79800
_cell_length_b 27.24900
_cell_length_c 44.83400
_cell_angle_alpha 90.00000
_cell_angle_beta  90.00000
_cell_angle_gamma 90.00000

_symmetry_space_group_name_	'P 1'
_symmetry_space_group_name_H-M	'P 1'

loop_
_symmetry_equiv_pos_as_xyz
  x,y,z

loop_
_atom_site_label
_atom_site_type_symbol
_atom_site_fract_x
_atom_site_fract_y
_atom_site_fract_z
_atom_site_charge
Zn	Zn	0.62021 0.02770 0.91302 1.16500
Zn	Zn	0.64754 0.54374 0.91443 1.16400
Zn	Zn	0.32052 0.75603 0.68039 1.16600
Zn	Zn	0.37979 0.47230 0.41302 1.16500
Zn	Zn	0.35246 0.95626 0.41443 1.16400
Zn	Zn	0.67948 0.74397 0.18039 1.16600
Zn	Zn	0.12021 0.97230 0.58698 1.16500
Zn	Zn	0.14754 0.45626 0.58557 1.16400
Zn	Zn	0.82052 0.24397 0.81961 1.16600
Zn	Zn	0.87979 0.52770 0.08698 1.16500
Zn	Zn	0.85246 0.04374 0.08557 1.16400
Zn	Zn	0.17948 0.25603 0.31961 1.16600
H 	H 	0.59370 0.92040 0.92820 -0.00300
H 	H 	0.58750 0.84540 0.90330 0.07900
H 	H 	0.53100 0.91740 0.82720 0.08400
H 	H 	0.55890 0.98950 0.85190 -0.00800
H 	H 	0.56880 0.57790 0.85780 -0.02100
H 	H 	0.53240 0.64860 0.83160 0.08500
H 	H 	0.60330 0.72660 0.90650 0.08000
H 	H 	0.62280 0.64970 0.92960 -0.01900
H 	H 	0.38920 0.83870 0.71970 -0.00100
H 	H 	0.45270 0.85050 0.76770 0.07600
H 	H 	0.49060 0.70300 0.77120 0.08400
H 	H 	0.43480 0.69660 0.72430 -0.00600
H 	H 	0.79740 0.07220 0.02330 -0.00800
H 	H 	0.86970 0.10130 0.97910 0.08200
H 	H 	0.12750 0.05390 0.01200 0.08900
H 	H 	0.04450 0.02880 0.05700 -0.00700
H 	H 	0.02640 0.22590 0.83570 -0.01600
H 	H 	0.11880 0.18740 0.87330 0.07600
H 	H 	0.87250 0.15420 0.91460 0.07800
H 	H 	0.78690 0.18380 0.87460 -0.00500
H 	H 	0.48180 0.03230 0.96490 0.00200
H 	H 	0.33060 0.06450 0.97590 0.08100
H 	H 	0.31370 0.11490 0.89060 0.08900
H 	H 	0.46880 0.08810 0.88250 -0.00200
H 	H 	0.40630 0.57960 0.42820 -0.00400
H 	H 	0.41250 0.65460 0.40330 0.07800
H 	H 	0.46900 0.58260 0.32720 0.08300
H 	H 	0.44110 0.51050 0.35190 -0.00900
H 	H 	0.43120 0.92210 0.35780 -0.02200
H 	H 	0.46760 0.85140 0.33160 0.08400
H 	H 	0.39670 0.77340 0.40650 0.08000
H 	H 	0.37720 0.85030 0.42960 -0.01900
H 	H 	0.61080 0.66130 0.21970 -0.00100
H 	H 	0.54730 0.64950 0.26770 0.07600
H 	H 	0.50940 0.79700 0.27120 0.08400
H 	H 	0.56520 0.80340 0.22430 -0.00600
H 	H 	0.20260 0.42780 0.52330 -0.00800
H 	H 	0.13030 0.39870 0.47910 0.08100
H 	H 	0.87250 0.44610 0.51200 0.08900
H 	H 	0.95550 0.47120 0.55700 -0.00700
H 	H 	0.97360 0.27410 0.33570 -0.01800
H 	H 	0.88120 0.31260 0.37330 0.07700
H 	H 	0.12750 0.34580 0.41460 0.07700
H 	H 	0.21310 0.31620 0.37460 -0.00500
H 	H 	0.51820 0.46770 0.46490 0.00200
H 	H 	0.66940 0.43550 0.47590 0.08100
H 	H 	0.68630 0.38510 0.39060 0.08900
H 	H 	0.53120 0.41190 0.38250 -0.00300
H 	H 	0.09370 0.07960 0.57180 -0.00300
H 	H 	0.08750 0.15460 0.59670 0.07800
H 	H 	0.03100 0.08260 0.67280 0.08300
H 	H 	0.05890 0.01050 0.64810 -0.00800
H 	H 	0.06880 0.42210 0.64220 -0.02200
H 	H 	0.03240 0.35140 0.66840 0.08400
H 	H 	0.10330 0.27340 0.59350 0.08000
H 	H 	0.12280 0.35030 0.57040 -0.01900
H 	H 	0.88920 0.16130 0.78030 -0.00100
H 	H 	0.95270 0.14950 0.73230 0.07500
H 	H 	0.99060 0.29700 0.72880 0.08400
H 	H 	0.93480 0.30340 0.77570 -0.00600
H 	H 	0.29740 0.92780 0.47670 -0.00800
H 	H 	0.36970 0.89870 0.52090 0.08100
H 	H 	0.62750 0.94610 0.48800 0.08900
H 	H 	0.54450 0.97120 0.44300 -0.00700
H 	H 	0.52640 0.77410 0.66430 -0.01700
H 	H 	0.61880 0.81260 0.62670 0.07700
H 	H 	0.37250 0.84580 0.58540 0.07700
H 	H 	0.28690 0.81620 0.62540 -0.00500
H 	H 	0.98180 0.96770 0.53510 0.00200
H 	H 	0.83060 0.93550 0.52410 0.08100
H 	H 	0.81370 0.88510 0.60940 0.08900
H 	H 	0.96880 0.91190 0.61750 -0.00200
H 	H 	0.90630 0.42040 0.07180 -0.00400
H 	H 	0.91250 0.34540 0.09670 0.07800
H 	H 	0.96900 0.41740 0.17280 0.08300
H 	H 	0.94110 0.48950 0.14810 -0.00900
H 	H 	0.93120 0.07790 0.14220 -0.02200
H 	H 	0.96760 0.14860 0.16840 0.08400
H 	H 	0.89670 0.22660 0.09350 0.08000
H 	H 	0.87720 0.14970 0.07040 -0.01900
H 	H 	0.11080 0.33870 0.28030 -0.00100
H 	H 	0.04730 0.35050 0.23230 0.07600
H 	H 	0.00940 0.20300 0.22880 0.08400
H 	H 	0.06520 0.19660 0.27570 -0.00600
H 	H 	0.70260 0.57220 0.97670 -0.00800
H 	H 	0.63030 0.60130 0.02090 0.08100
H 	H 	0.37250 0.55390 0.98800 0.08900
H 	H 	0.45550 0.52880 0.94300 -0.00700
H 	H 	0.47360 0.72590 0.16430 -0.01700
H 	H 	0.38120 0.68740 0.12670 0.07700
H 	H 	0.62750 0.65420 0.08540 0.07700
H 	H 	0.71310 0.68380 0.12540 -0.00500
H 	H 	0.01820 0.53230 0.03510 0.00200
H 	H 	0.16940 0.56450 0.02410 0.08100
H 	H 	0.18630 0.61490 0.10940 0.08900
H 	H 	0.03120 0.58810 0.11750 -0.00300
C 	C 	0.58680 0.91980 0.90710 0.06200
C 	C 	0.57780 0.87510 0.89250 -0.10900
C 	C 	0.55510 0.87320 0.86280 0.05700
C 	C 	0.54740 0.91690 0.84780 -0.12200
C 	C 	0.56370 0.95970 0.86280 0.07800
C 	C 	0.57440 0.60860 0.86760 0.08800
C 	C 	0.55290 0.65070 0.85180 -0.12800
C 	C 	0.56160 0.69620 0.86570 0.05400
C 	C 	0.59290 0.69680 0.89590 -0.12200
C 	C 	0.60750 0.65060 0.90900 0.08100
C 	C 	0.41060 0.81090 0.73070 0.04700
C 	C 	0.44830 0.81850 0.75940 -0.10200
C 	C 	0.47920 0.77720 0.77540 0.04500
C 	C 	0.47090 0.73190 0.76100 -0.12100
C 	C 	0.43590 0.72820 0.73330 0.08300
C 	C 	0.54390 0.82600 0.84790 0.09700
C 	C 	0.54460 0.74390 0.84980 0.10600
C 	C 	0.50670 0.78100 0.80660 0.10700
C 	C 	0.86580 0.07000 0.02150 0.08100
C 	C 	0.90720 0.08660 0.99440 -0.12200
C 	C 	0.00630 0.07970 0.99180 0.05600
C 	C 	0.05970 0.05870 0.01420 -0.11300
C 	C 	0.00960 0.04410 0.04120 0.05200
C 	C 	0.99400 0.20980 0.85160 0.07700
C 	C 	0.05000 0.18680 0.87450 -0.11500
C 	C 	0.00640 0.16410 0.89810 0.06100
C 	C 	0.90700 0.16660 0.89790 -0.11000
C 	C 	0.85560 0.18630 0.87460 0.06500
C 	C 	0.44780 0.05090 0.95030 0.04900
C 	C 	0.35630 0.06800 0.95630 -0.10200
C 	C 	0.29910 0.09110 0.93380 0.03000
C 	C 	0.34710 0.09850 0.90620 -0.11100
C 	C 	0.43960 0.08300 0.90140 0.05800
C 	C 	0.05990 0.09780 0.96580 0.08900
C 	C 	0.05980 0.13980 0.92140 0.09800
C 	C 	0.19610 0.10480 0.93830 0.09900
C 	C 	0.41320 0.58020 0.40710 0.06200
C 	C 	0.42220 0.62490 0.39250 -0.10900
C 	C 	0.44490 0.62680 0.36280 0.05700
C 	C 	0.45260 0.58310 0.34780 -0.12200
C 	C 	0.43630 0.54030 0.36280 0.07800
C 	C 	0.42560 0.89140 0.36760 0.08800
C 	C 	0.44710 0.84930 0.35180 -0.12800
C 	C 	0.43840 0.80380 0.36570 0.05400
C 	C 	0.40710 0.80320 0.39590 -0.12200
C 	C 	0.39250 0.84940 0.40900 0.08100
C 	C 	0.58940 0.68910 0.23070 0.04700
C 	C 	0.55170 0.68150 0.25940 -0.10200
C 	C 	0.52080 0.72280 0.27540 0.04500
C 	C 	0.52910 0.76810 0.26100 -0.12100
C 	C 	0.56410 0.77180 0.23330 0.08300
C 	C 	0.45610 0.67400 0.34790 0.09700
C 	C 	0.45540 0.75610 0.34980 0.10600
C 	C 	0.49330 0.71900 0.30660 0.10700
C 	C 	0.13420 0.43000 0.52150 0.08000
C 	C 	0.09280 0.41340 0.49440 -0.12000
C 	C 	0.99370 0.42030 0.49180 0.05400
C 	C 	0.94030 0.44130 0.51420 -0.11200
C 	C 	0.99040 0.45590 0.54120 0.05100
C 	C 	0.00600 0.29020 0.35160 0.08000
C 	C 	0.95000 0.31320 0.37450 -0.11700
C 	C 	0.99360 0.33590 0.39810 0.06000
C 	C 	0.09300 0.33340 0.39790 -0.10900
C 	C 	0.14440 0.31370 0.37460 0.06500
C 	C 	0.55220 0.44910 0.45030 0.04900
C 	C 	0.64370 0.43200 0.45630 -0.10200
C 	C 	0.70090 0.40890 0.43380 0.03000
C 	C 	0.65290 0.40150 0.40620 -0.11100
C 	C 	0.56040 0.41700 0.40140 0.05800
C 	C 	0.94010 0.40220 0.46580 0.08900
C 	C 	0.94020 0.36020 0.42140 0.09800
C 	C 	0.80390 0.39520 0.43830 0.09900
C 	C 	0.08680 0.08020 0.59290 0.06200
C 	C 	0.07780 0.12490 0.60750 -0.10900
C 	C 	0.05510 0.12680 0.63720 0.05700
C 	C 	0.04740 0.08310 0.65220 -0.12200
C 	C 	0.06370 0.04030 0.63720 0.07800
C 	C 	0.07440 0.39140 0.63240 0.08800
C 	C 	0.05290 0.34930 0.64820 -0.12800
C 	C 	0.06160 0.30380 0.63430 0.05400
C 	C 	0.09290 0.30320 0.60410 -0.12200
C 	C 	0.10750 0.34940 0.59100 0.08100
C 	C 	0.91060 0.18910 0.76930 0.04700
C 	C 	0.94830 0.18150 0.74060 -0.10100
C 	C 	0.97920 0.22280 0.72460 0.04400
C 	C 	0.97090 0.26810 0.73900 -0.12100
C 	C 	0.93590 0.27180 0.76670 0.08200
C 	C 	0.04390 0.17400 0.65210 0.09700
C 	C 	0.04460 0.25610 0.65020 0.10600
C 	C 	0.00670 0.21900 0.69340 0.10700
C 	C 	0.36580 0.93000 0.47850 0.08100
C 	C 	0.40720 0.91340 0.50560 -0.12000
C 	C 	0.50630 0.92030 0.50820 0.05500
C 	C 	0.55970 0.94130 0.48580 -0.11200
C 	C 	0.50960 0.95590 0.45880 0.05100
C 	C 	0.49400 0.79020 0.64840 0.07900
C 	C 	0.55000 0.81320 0.62550 -0.11600
C 	C 	0.50640 0.83590 0.60190 0.06100
C 	C 	0.40700 0.83340 0.60210 -0.10900
C 	C 	0.35560 0.81370 0.62540 0.06500
C 	C 	0.94780 0.94910 0.54970 0.04900
C 	C 	0.85630 0.93200 0.54370 -0.10200
C 	C 	0.79910 0.90890 0.56620 0.03000
C 	C 	0.84710 0.90150 0.59380 -0.11100
C 	C 	0.93960 0.91700 0.59860 0.05800
C 	C 	0.55990 0.90220 0.53420 0.08900
C 	C 	0.55980 0.86020 0.57860 0.09800
C 	C 	0.69610 0.89520 0.56170 0.09900
C 	C 	0.91320 0.41980 0.09290 0.06200
C 	C 	0.92220 0.37510 0.10750 -0.10900
C 	C 	0.94490 0.37320 0.13720 0.05700
C 	C 	0.95260 0.41690 0.15220 -0.12200
C 	C 	0.93630 0.45970 0.13720 0.07800
C 	C 	0.92560 0.10860 0.13240 0.08800
C 	C 	0.94710 0.15070 0.14820 -0.12800
C 	C 	0.93840 0.19620 0.13430 0.05400
C 	C 	0.90710 0.19680 0.10410 -0.12200
C 	C 	0.89250 0.15060 0.09100 0.08000
C 	C 	0.08940 0.31090 0.26930 0.04800
C 	C 	0.05170 0.31850 0.24060 -0.10200
C 	C 	0.02080 0.27720 0.22460 0.04500
C 	C 	0.02910 0.23190 0.23900 -0.12100
C 	C 	0.06410 0.22820 0.26670 0.08300
C 	C 	0.95610 0.32600 0.15210 0.09700
C 	C 	0.95540 0.24390 0.15020 0.10600
C 	C 	0.99330 0.28100 0.19340 0.10600
C 	C 	0.63420 0.57000 0.97850 0.08100
C 	C 	0.59280 0.58660 0.00560 -0.12000
C 	C 	0.49370 0.57970 0.00820 0.05500
C 	C 	0.44030 0.55870 0.98580 -0.11200
C 	C 	0.49040 0.54410 0.95880 0.05100
C 	C 	0.50600 0.70980 0.14840 0.07900
C 	C 	0.45000 0.68680 0.12550 -0.11600
C 	C 	0.49360 0.66410 0.10190 0.06100
C 	C 	0.59300 0.66660 0.10210 -0.10900
C 	C 	0.64440 0.68630 0.12540 0.06500
C 	C 	0.05220 0.55090 0.04970 0.04900
C 	C 	0.14370 0.56800 0.04370 -0.10200
C 	C 	0.20090 0.59110 0.06620 0.03000
C 	C 	0.15290 0.59850 0.09380 -0.11100
C 	C 	0.06040 0.58300 0.09860 0.05800
C 	C 	0.44010 0.59780 0.03420 0.08900
C 	C 	0.44020 0.63980 0.07860 0.09800
C 	C 	0.30390 0.60480 0.06170 0.09900
I 	I 	0.70068 0.00646 0.96301 -0.38900
I 	I 	0.70262 0.07780 0.87320 -0.37300
I 	I 	0.55929 0.47650 0.88603 -0.36000
I 	I 	0.82976 0.55726 0.91983 -0.38400
I 	I 	0.16471 0.80375 0.68945 -0.37100
I 	I 	0.30922 0.66422 0.66952 -0.37300
I 	I 	0.29932 0.49354 0.46301 -0.38800
I 	I 	0.29738 0.42220 0.37320 -0.37300
I 	I 	0.44071 0.02350 0.38603 -0.35900
I 	I 	0.17024 0.94274 0.41983 -0.38500
I 	I 	0.83529 0.69625 0.18945 -0.37000
I 	I 	0.69078 0.83578 0.16952 -0.37300
I 	I 	0.20068 0.99354 0.53699 -0.38900
I 	I 	0.20262 0.92220 0.62680 -0.37300
I 	I 	0.05929 0.52350 0.61397 -0.36000
I 	I 	0.32976 0.44274 0.58017 -0.38400
I 	I 	0.66471 0.19625 0.81055 -0.37100
I 	I 	0.80922 0.33578 0.83048 -0.37300
I 	I 	0.79932 0.50646 0.03699 -0.38800
I 	I 	0.79738 0.57780 0.12680 -0.37300
I 	I 	0.94071 0.97650 0.11397 -0.35900
I 	I 	0.67024 0.05726 0.08017 -0.38400
I 	I 	0.33529 0.30375 0.31055 -0.37000
I 	I 	0.19078 0.16422 0.33048 -0.37200
N 	N 	0.58610 0.96270 0.89180 -0.26900
N 	N 	0.60140 0.60880 0.89480 -0.28000
N 	N 	0.40300 0.76510 0.71770 -0.27400
N 	N 	0.55750 0.78500 0.86390 -0.14100
N 	N 	0.52160 0.73910 0.82063 -0.14100
N 	N 	0.51600 0.82560 0.81860 -0.13700
N 	N 	0.91280 0.05220 0.04400 -0.27500
N 	N 	0.90060 0.20910 0.85190 -0.27600
N 	N 	0.49030 0.06050 0.92320 -0.26600
N 	N 	0.00610 0.12250 0.94510 -0.13300
N 	N 	0.15470 0.13230 0.91760 -0.13500
N 	N 	0.15470 0.08660 0.96250 -0.14400
N 	N 	0.41390 0.53730 0.39180 -0.26900
N 	N 	0.39860 0.89120 0.39480 -0.28000
N 	N 	0.59700 0.73490 0.21770 -0.27400
N 	N 	0.44250 0.71500 0.36390 -0.14100
N 	N 	0.47840 0.76090 0.32063 -0.14100
N 	N 	0.48400 0.67440 0.31860 -0.13700
N 	N 	0.08720 0.44780 0.54400 -0.27400
N 	N 	0.09940 0.29090 0.35190 -0.27600
N 	N 	0.50970 0.43950 0.42320 -0.26600
N 	N 	0.99390 0.37750 0.44510 -0.13300
N 	N 	0.84530 0.36770 0.41760 -0.13500
N 	N 	0.84530 0.41340 0.46250 -0.14500
N 	N 	0.08610 0.03730 0.60820 -0.26900
N 	N 	0.10140 0.39120 0.60520 -0.28000
N 	N 	0.90300 0.23490 0.78230 -0.27400
N 	N 	0.05750 0.21500 0.63610 -0.14100
N 	N 	0.02160 0.26090 0.67937 -0.14100
N 	N 	0.01600 0.17440 0.68140 -0.13700
N 	N 	0.41280 0.94780 0.45600 -0.27400
N 	N 	0.40060 0.79090 0.64810 -0.27600
N 	N 	0.99030 0.93950 0.57680 -0.26500
N 	N 	0.50610 0.87750 0.55490 -0.13300
N 	N 	0.65470 0.86770 0.58240 -0.13500
N 	N 	0.65470 0.91340 0.53750 -0.14500
N 	N 	0.91390 0.46270 0.10820 -0.26900
N 	N 	0.89860 0.10880 0.10520 -0.28000
N 	N 	0.09700 0.26510 0.28230 -0.27400
N 	N 	0.94250 0.28500 0.13610 -0.14100
N 	N 	0.97840 0.23910 0.17937 -0.14100
N 	N 	0.98400 0.32560 0.18140 -0.13700
N 	N 	0.58720 0.55220 0.95600 -0.27400
N 	N 	0.59940 0.70910 0.14810 -0.27600
N 	N 	0.00970 0.56050 0.07680 -0.26600
N 	N 	0.49390 0.62250 0.05490 -0.13300
N 	N 	0.34530 0.63230 0.08240 -0.13500
N 	N 	0.34530 0.58660 0.03750 -0.14500
Zn	Zn	0.37979 0.97230 0.08698 1.16400
Zn	Zn	0.35246 0.45626 0.08557 1.16300
Zn	Zn	0.67948 0.24397 0.31961 1.16500
Zn	Zn	0.62021 0.52770 0.58698 1.16400
Zn	Zn	0.64754 0.04374 0.58557 1.16300
Zn	Zn	0.32052 0.25603 0.81961 1.16500
Zn	Zn	0.87979 0.02770 0.41302 1.16400
Zn	Zn	0.85246 0.54374 0.41443 1.16300
Zn	Zn	0.17948 0.75603 0.18039 1.16500
Zn	Zn	0.12021 0.47230 0.91302 1.16400
Zn	Zn	0.14754 0.95626 0.91443 1.16300
Zn	Zn	0.82052 0.74397 0.68039 1.16500
H 	H 	0.40630 0.07960 0.07180 -0.00400
H 	H 	0.41250 0.15460 0.09670 0.07800
H 	H 	0.46900 0.08260 0.17280 0.08300
H 	H 	0.44110 0.01050 0.14810 -0.00900
H 	H 	0.43120 0.42210 0.14220 -0.02200
H 	H 	0.46760 0.35140 0.16840 0.08400
H 	H 	0.39670 0.27340 0.09350 0.08000
H 	H 	0.37720 0.35030 0.07040 -0.01900
H 	H 	0.61080 0.16130 0.28030 -0.00100
H 	H 	0.54730 0.14950 0.23230 0.07600
H 	H 	0.50940 0.29700 0.22880 0.08400
H 	H 	0.56520 0.30340 0.27570 -0.00600
H 	H 	0.20260 0.92780 0.97670 -0.00800
H 	H 	0.13030 0.89870 0.02090 0.08200
H 	H 	0.87250 0.94610 0.98800 0.08900
H 	H 	0.95550 0.97120 0.94300 -0.00700
H 	H 	0.97360 0.77410 0.16430 -0.01600
H 	H 	0.88120 0.81260 0.12670 0.07600
H 	H 	0.12750 0.84580 0.08540 0.07800
H 	H 	0.21310 0.81620 0.12540 -0.00500
H 	H 	0.51820 0.96770 0.03510 0.00200
H 	H 	0.66940 0.93550 0.02410 0.08100
H 	H 	0.68630 0.88510 0.10940 0.08900
H 	H 	0.53120 0.91190 0.11750 -0.00200
H 	H 	0.59370 0.42040 0.57180 -0.00400
H 	H 	0.58750 0.34540 0.59670 0.07800
H 	H 	0.53100 0.41740 0.67280 0.08300
H 	H 	0.55890 0.48950 0.64810 -0.00900
H 	H 	0.56880 0.07790 0.64220 -0.02200
H 	H 	0.53240 0.14860 0.66840 0.08400
H 	H 	0.60330 0.22660 0.59350 0.08000
H 	H 	0.62280 0.14970 0.57040 -0.01900
H 	H 	0.38920 0.33870 0.78030 -0.00100
H 	H 	0.45270 0.35050 0.73230 0.07600
H 	H 	0.49060 0.20300 0.72880 0.08400
H 	H 	0.43480 0.19660 0.77570 -0.00600
H 	H 	0.79740 0.57220 0.47670 -0.00800
H 	H 	0.86970 0.60130 0.52090 0.08100
H 	H 	0.12750 0.55390 0.48800 0.08900
H 	H 	0.04450 0.52880 0.44300 -0.00700
H 	H 	0.02640 0.72590 0.66430 -0.01800
H 	H 	0.11880 0.68740 0.62670 0.07700
H 	H 	0.87250 0.65420 0.58540 0.07700
H 	H 	0.78690 0.68380 0.62540 -0.00500
H 	H 	0.48180 0.53230 0.53510 0.00200
H 	H 	0.33060 0.56450 0.52410 0.08100
H 	H 	0.31370 0.61490 0.60940 0.08900
H 	H 	0.46880 0.58810 0.61750 -0.00300
H 	H 	0.90630 0.92040 0.42820 -0.00300
H 	H 	0.91250 0.84540 0.40330 0.07800
H 	H 	0.96900 0.91740 0.32720 0.08300
H 	H 	0.94110 0.98950 0.35190 -0.00800
H 	H 	0.93120 0.57790 0.35780 -0.02200
H 	H 	0.96760 0.64860 0.33160 0.08400
H 	H 	0.89670 0.72660 0.40650 0.08000
H 	H 	0.87720 0.64970 0.42960 -0.01900
H 	H 	0.11080 0.83870 0.21970 -0.00100
H 	H 	0.04730 0.85050 0.26770 0.07500
H 	H 	0.00940 0.70300 0.27120 0.08400
H 	H 	0.06520 0.69660 0.22430 -0.00600
H 	H 	0.70260 0.07220 0.52330 -0.00800
H 	H 	0.63030 0.10130 0.47910 0.08100
H 	H 	0.37250 0.05390 0.51200 0.08900
H 	H 	0.45550 0.02880 0.55700 -0.00700
H 	H 	0.47360 0.22590 0.33570 -0.01700
H 	H 	0.38120 0.18740 0.37330 0.07700
H 	H 	0.62750 0.15420 0.41460 0.07700
H 	H 	0.71310 0.18380 0.37460 -0.00500
H 	H 	0.01820 0.03230 0.46490 0.00200
H 	H 	0.16940 0.06450 0.47590 0.08100
H 	H 	0.18630 0.11490 0.39060 0.08900
H 	H 	0.03120 0.08810 0.38250 -0.00200
H 	H 	0.09370 0.57960 0.92820 -0.00400
H 	H 	0.08750 0.65460 0.90330 0.07800
H 	H 	0.03100 0.58260 0.82720 0.08300
H 	H 	0.05890 0.51050 0.85190 -0.00900
H 	H 	0.06880 0.92210 0.85780 -0.02200
H 	H 	0.03240 0.85140 0.83160 0.08400
H 	H 	0.10330 0.77340 0.90650 0.08000
H 	H 	0.12280 0.85030 0.92960 -0.01900
H 	H 	0.88920 0.66130 0.71970 -0.00100
H 	H 	0.95270 0.64950 0.76770 0.07600
H 	H 	0.99060 0.79700 0.77120 0.08400
H 	H 	0.93480 0.80340 0.72430 -0.00600
H 	H 	0.29740 0.42780 0.02330 -0.00800
H 	H 	0.36970 0.39870 0.97910 0.08100
H 	H 	0.62750 0.44610 0.01200 0.08900
H 	H 	0.54450 0.47120 0.05700 -0.00700
H 	H 	0.52640 0.27410 0.83570 -0.01700
H 	H 	0.61880 0.31260 0.87330 0.07700
H 	H 	0.37250 0.34580 0.91460 0.07700
H 	H 	0.28690 0.31620 0.87460 -0.00500
H 	H 	0.98180 0.46770 0.96490 0.00200
H 	H 	0.83060 0.43550 0.97590 0.08100
H 	H 	0.81370 0.38510 0.89060 0.08900
H 	H 	0.96880 0.41190 0.88250 -0.00300
C 	C 	0.41320 0.08020 0.09290 0.06200
C 	C 	0.42220 0.12490 0.10750 -0.10900
C 	C 	0.44490 0.12680 0.13720 0.05700
C 	C 	0.45260 0.08310 0.15220 -0.12200
C 	C 	0.43630 0.04030 0.13720 0.07800
C 	C 	0.42560 0.39140 0.13240 0.08800
C 	C 	0.44710 0.34930 0.14820 -0.12800
C 	C 	0.43840 0.30380 0.13430 0.05400
C 	C 	0.40710 0.30320 0.10410 -0.12200
C 	C 	0.39250 0.34940 0.09100 0.08100
C 	C 	0.58940 0.18910 0.26930 0.04700
C 	C 	0.55170 0.18150 0.24060 -0.10200
C 	C 	0.52080 0.22280 0.22460 0.04500
C 	C 	0.52910 0.26810 0.23900 -0.12100
C 	C 	0.56410 0.27180 0.26670 0.08300
C 	C 	0.45610 0.17400 0.15210 0.09700
C 	C 	0.45540 0.25610 0.15020 0.10600
C 	C 	0.49330 0.21900 0.19340 0.10700
C 	C 	0.13420 0.93000 0.97850 0.08100
C 	C 	0.09280 0.91340 0.00560 -0.12200
C 	C 	0.99370 0.92030 0.00820 0.05600
C 	C 	0.94030 0.94130 0.98580 -0.11300
C 	C 	0.99040 0.95590 0.95880 0.05200
C 	C 	0.00600 0.79020 0.14840 0.07700
C 	C 	0.95000 0.81320 0.12550 -0.11500
C 	C 	0.99360 0.83590 0.10190 0.06100
C 	C 	0.09300 0.83340 0.10210 -0.11000
C 	C 	0.14440 0.81370 0.12540 0.06500
C 	C 	0.55220 0.94910 0.04970 0.04900
C 	C 	0.64370 0.93200 0.04370 -0.10200
C 	C 	0.70090 0.90890 0.06620 0.03000
C 	C 	0.65290 0.90150 0.09380 -0.11100
C 	C 	0.56040 0.91700 0.09860 0.05800
C 	C 	0.94010 0.90220 0.03420 0.08900
C 	C 	0.94020 0.86020 0.07860 0.09800
C 	C 	0.80390 0.89520 0.06170 0.09900
C 	C 	0.58680 0.41980 0.59290 0.06200
C 	C 	0.57780 0.37510 0.60750 -0.10900
C 	C 	0.55510 0.37320 0.63720 0.05700
C 	C 	0.54740 0.41690 0.65220 -0.12200
C 	C 	0.56370 0.45970 0.63720 0.07800
C 	C 	0.57440 0.10860 0.63240 0.08800
C 	C 	0.55290 0.15070 0.64820 -0.12800
C 	C 	0.56160 0.19620 0.63430 0.05400
C 	C 	0.59290 0.19680 0.60410 -0.12200
C 	C 	0.60750 0.15060 0.59100 0.08100
C 	C 	0.41060 0.31090 0.76930 0.04700
C 	C 	0.44830 0.31850 0.74060 -0.10200
C 	C 	0.47920 0.27720 0.72460 0.04500
C 	C 	0.47090 0.23190 0.73900 -0.12100
C 	C 	0.43590 0.22820 0.76670 0.08300
C 	C 	0.54390 0.32600 0.65210 0.09700
C 	C 	0.54460 0.24390 0.65020 0.10600
C 	C 	0.50670 0.28100 0.69340 0.10700
C 	C 	0.86580 0.57000 0.47850 0.08000
C 	C 	0.90720 0.58660 0.50560 -0.12000
C 	C 	0.00630 0.57970 0.50820 0.05400
C 	C 	0.05970 0.55870 0.48580 -0.11200
C 	C 	0.00960 0.54410 0.45880 0.05100
C 	C 	0.99400 0.70980 0.64840 0.08000
C 	C 	0.05000 0.68680 0.62550 -0.11700
C 	C 	0.00640 0.66410 0.60190 0.06000
C 	C 	0.90700 0.66660 0.60210 -0.10900
C 	C 	0.85560 0.68630 0.62540 0.06500
C 	C 	0.44780 0.55090 0.54970 0.04900
C 	C 	0.35630 0.56800 0.54370 -0.10200
C 	C 	0.29910 0.59110 0.56620 0.03000
C 	C 	0.34710 0.59850 0.59380 -0.11100
C 	C 	0.43960 0.58300 0.59860 0.05800
C 	C 	0.05990 0.59780 0.53420 0.08900
C 	C 	0.05980 0.63980 0.57860 0.09800
C 	C 	0.19610 0.60480 0.56170 0.09900
C 	C 	0.91320 0.91980 0.40710 0.06200
C 	C 	0.92220 0.87510 0.39250 -0.10900
C 	C 	0.94490 0.87320 0.36280 0.05700
C 	C 	0.95260 0.91690 0.34780 -0.12200
C 	C 	0.93630 0.95970 0.36280 0.07800
C 	C 	0.92560 0.60860 0.36760 0.08800
C 	C 	0.94710 0.65070 0.35180 -0.12800
C 	C 	0.93840 0.69620 0.36570 0.05400
C 	C 	0.90710 0.69680 0.39590 -0.12200
C 	C 	0.89250 0.65060 0.40900 0.08100
C 	C 	0.08940 0.81090 0.23070 0.04700
C 	C 	0.05170 0.81850 0.25940 -0.10100
C 	C 	0.02080 0.77720 0.27540 0.04400
C 	C 	0.02910 0.73190 0.26100 -0.12100
C 	C 	0.06410 0.72820 0.23330 0.08200
C 	C 	0.95610 0.82600 0.34790 0.09700
C 	C 	0.95540 0.74390 0.34980 0.10600
C 	C 	0.99330 0.78100 0.30660 0.10700
C 	C 	0.63420 0.07000 0.52150 0.08100
C 	C 	0.59280 0.08660 0.49440 -0.12000
C 	C 	0.49370 0.07970 0.49180 0.05500
C 	C 	0.44030 0.05870 0.51420 -0.11200
C 	C 	0.49040 0.04410 0.54120 0.05100
C 	C 	0.50600 0.20980 0.35160 0.07900
C 	C 	0.45000 0.18680 0.37450 -0.11600
C 	C 	0.49360 0.16410 0.39810 0.06100
C 	C 	0.59300 0.16660 0.39790 -0.10900
C 	C 	0.64440 0.18630 0.37460 0.06500
C 	C 	0.05220 0.05090 0.45030 0.04900
C 	C 	0.14370 0.06800 0.45630 -0.10200
C 	C 	0.20090 0.09110 0.43380 0.03000
C 	C 	0.15290 0.09850 0.40620 -0.11100
C 	C 	0.06040 0.08300 0.40140 0.05800
C 	C 	0.44010 0.09780 0.46580 0.08900
C 	C 	0.44020 0.13980 0.42140 0.09800
C 	C 	0.30390 0.10480 0.43830 0.09900
C 	C 	0.08680 0.58020 0.90710 0.06200
C 	C 	0.07780 0.62490 0.89250 -0.10900
C 	C 	0.05510 0.62680 0.86280 0.05700
C 	C 	0.04740 0.58310 0.84780 -0.12200
C 	C 	0.06370 0.54030 0.86280 0.07800
C 	C 	0.07440 0.89140 0.86760 0.08800
C 	C 	0.05290 0.84930 0.85180 -0.12800
C 	C 	0.06160 0.80380 0.86570 0.05400
C 	C 	0.09290 0.80320 0.89590 -0.12200
C 	C 	0.10750 0.84940 0.90900 0.08000
C 	C 	0.91060 0.68910 0.73070 0.04800
C 	C 	0.94830 0.68150 0.75940 -0.10200
C 	C 	0.97920 0.72280 0.77540 0.04500
C 	C 	0.97090 0.76810 0.76100 -0.12100
C 	C 	0.93590 0.77180 0.73330 0.08300
C 	C 	0.04390 0.67400 0.84790 0.09700
C 	C 	0.04460 0.75610 0.84980 0.10600
C 	C 	0.00670 0.71900 0.80660 0.10600
C 	C 	0.36580 0.43000 0.02150 0.08100
C 	C 	0.40720 0.41340 0.99440 -0.12000
C 	C 	0.50630 0.42030 0.99180 0.05500
C 	C 	0.55970 0.44130 0.01420 -0.11200
C 	C 	0.50960 0.45590 0.04120 0.05100
C 	C 	0.49400 0.29020 0.85160 0.07900
C 	C 	0.55000 0.31320 0.87450 -0.11600
C 	C 	0.50640 0.33590 0.89810 0.06100
C 	C 	0.40700 0.33340 0.89790 -0.10900
C 	C 	0.35560 0.31370 0.87460 0.06500
C 	C 	0.94780 0.44910 0.95030 0.04900
C 	C 	0.85630 0.43200 0.95630 -0.10200
C 	C 	0.79910 0.40890 0.93380 0.03000
C 	C 	0.84710 0.40150 0.90620 -0.11100
C 	C 	0.93960 0.41700 0.90140 0.05800
C 	C 	0.55990 0.40220 0.96580 0.08900
C 	C 	0.55980 0.36020 0.92140 0.09800
C 	C 	0.69610 0.39520 0.93830 0.09900
I 	I 	0.29932 0.99354 0.03699 -0.38900
I 	I 	0.29738 0.92220 0.12680 -0.37300
I 	I 	0.44071 0.52350 0.11397 -0.36000
I 	I 	0.17024 0.44274 0.08017 -0.38400
I 	I 	0.83529 0.19625 0.31055 -0.37100
I 	I 	0.69078 0.33578 0.33048 -0.37300
I 	I 	0.70068 0.50646 0.53699 -0.38800
I 	I 	0.70262 0.57780 0.62680 -0.37300
I 	I 	0.55929 0.97650 0.61397 -0.35900
I 	I 	0.82976 0.05726 0.58017 -0.38500
I 	I 	0.16471 0.30375 0.81055 -0.37000
I 	I 	0.30922 0.16422 0.83048 -0.37300
I 	I 	0.79932 0.00646 0.46301 -0.38900
I 	I 	0.79738 0.07780 0.37320 -0.37300
I 	I 	0.94071 0.47650 0.38603 -0.36000
I 	I 	0.67024 0.55726 0.41983 -0.38400
I 	I 	0.33529 0.80375 0.18945 -0.37100
I 	I 	0.19078 0.66422 0.16952 -0.37300
I 	I 	0.20068 0.49354 0.96301 -0.38800
I 	I 	0.20262 0.42220 0.87320 -0.37300
I 	I 	0.05929 0.02350 0.88603 -0.35900
I 	I 	0.32976 0.94274 0.91983 -0.38400
I 	I 	0.66471 0.69625 0.68945 -0.37000
I 	I 	0.80922 0.83578 0.66952 -0.37200
N 	N 	0.41390 0.03730 0.10820 -0.26900
N 	N 	0.39860 0.39120 0.10520 -0.28000
N 	N 	0.59700 0.23490 0.28230 -0.27400
N 	N 	0.44250 0.21500 0.13610 -0.14100
N 	N 	0.47840 0.26090 0.17937 -0.14100
N 	N 	0.48400 0.17440 0.18140 -0.13700
N 	N 	0.08720 0.94780 0.95600 -0.27500
N 	N 	0.09940 0.79090 0.14810 -0.27600
N 	N 	0.50970 0.93950 0.07680 -0.26600
N 	N 	0.99390 0.87750 0.05490 -0.13300
N 	N 	0.84530 0.86770 0.08240 -0.13500
N 	N 	0.84530 0.91340 0.03750 -0.14400
N 	N 	0.58610 0.46270 0.60820 -0.26900
N 	N 	0.60140 0.10880 0.60520 -0.28000
N 	N 	0.40300 0.26510 0.78230 -0.27400
N 	N 	0.55750 0.28500 0.63610 -0.14100
N 	N 	0.52160 0.23910 0.67937 -0.14100
N 	N 	0.51600 0.32560 0.68140 -0.13700
N 	N 	0.91280 0.55220 0.45600 -0.27400
N 	N 	0.90060 0.70910 0.64810 -0.27600
N 	N 	0.49030 0.56050 0.57680 -0.26600
N 	N 	0.00610 0.62250 0.55490 -0.13300
N 	N 	0.15470 0.63230 0.58240 -0.13500
N 	N 	0.15470 0.58660 0.53750 -0.14500
N 	N 	0.91390 0.96270 0.39180 -0.26900
N 	N 	0.89860 0.60880 0.39480 -0.28000
N 	N 	0.09700 0.76510 0.21770 -0.27400
N 	N 	0.94250 0.78500 0.36390 -0.14100
N 	N 	0.97840 0.73910 0.32063 -0.14100
N 	N 	0.98400 0.82560 0.31860 -0.13700
N 	N 	0.58720 0.05220 0.54400 -0.27400
N 	N 	0.59940 0.20910 0.35190 -0.27600
N 	N 	0.00970 0.06050 0.42320 -0.26500
N 	N 	0.49390 0.12250 0.44510 -0.13300
N 	N 	0.34530 0.13230 0.41760 -0.13500
N 	N 	0.34530 0.08660 0.46250 -0.14500
N 	N 	0.08610 0.53730 0.89180 -0.26900
N 	N 	0.10140 0.89120 0.89480 -0.28000
N 	N 	0.90300 0.73490 0.71770 -0.27400
N 	N 	0.05750 0.71500 0.86390 -0.14100
N 	N 	0.02160 0.76090 0.82063 -0.14100
N 	N 	0.01600 0.67440 0.81860 -0.13700
N 	N 	0.41280 0.44780 0.04400 -0.27400
N 	N 	0.40060 0.29090 0.85190 -0.27600
N 	N 	0.99030 0.43950 0.92320 -0.26600
N 	N 	0.50610 0.37750 0.94510 -0.13300
N 	N 	0.65470 0.36770 0.91760 -0.13500
N 	N 	0.65470 0.41340 0.96250 -0.14500
