data_crystal

_cell_length_a 54.43800
_cell_length_b 14.50030
_cell_length_c 39.58170
_cell_angle_alpha 90.00000
_cell_angle_beta  128.01000
_cell_angle_gamma 90.00000

_symmetry_space_group_name_	'P 1'
_symmetry_space_group_name_H-M	'P 1'

loop_
_symmetry_equiv_pos_as_xyz
  x,y,z

loop_
_atom_site_label
_atom_site_type_symbol
_atom_site_fract_x
_atom_site_fract_y
_atom_site_fract_z
_atom_site_charge
Mo	Mo	0.17362 0.48442 0.48721 1.11100
Mo	Mo	0.19348 0.71286 0.50748 1.05800
Mo	Mo	0.15235 0.85132 0.59034 1.11800
Mo	Mo	0.07250 0.68445 0.42900 1.06400
Mo	Mo	0.08280 0.79362 0.51381 1.11300
Mo	Mo	0.16897 0.37641 0.55285 1.11500
Mo	Mo	0.11758 0.64848 0.42458 1.06500
Mo	Mo	0.20620 0.79594 0.57507 1.05100
Mo	Mo	0.18709 0.50048 0.63855 1.05800
Mo	Mo	0.20280 0.67397 0.65120 1.05300
Mo	Mo	0.06708 0.56188 0.50306 1.05200
Zn	Zn	0.12910 0.86106 0.48523 1.22300
Mo	Mo	0.10814 0.43515 0.55294 1.05500
Zn	Zn	0.22567 0.55099 0.59381 1.22200
Zn	Zn	0.09930 0.44710 0.45615 1.22300
Zn	Zn	0.12291 0.65713 0.60630 1.22000
O 	O 	0.21400 0.57010 0.63150 -0.73200
O 	O 	0.21740 0.67480 0.56740 -0.72600
O 	O 	0.14390 0.41660 0.49280 -0.70300
O 	O 	0.09080 0.57010 0.42960 -0.72200
O 	O 	0.19650 0.46240 0.54960 -0.70700
O 	O 	0.12000 0.85280 0.52690 -0.70000
O 	O 	0.17220 0.81170 0.51400 -0.72100
O 	O 	0.10850 0.75490 0.44500 -0.72700
O 	O 	0.17870 0.78940 0.64070 -0.59400
O 	O 	0.08620 0.46360 0.49250 -0.72500
O 	O 	0.19300 0.39850 0.60980 -0.59300
O 	O 	0.15870 0.70530 0.44870 -0.54800
O 	O 	0.20010 0.57680 0.49910 -0.57700
O 	O 	0.26920 0.52300 0.62760 -0.48300
O 	O 	0.16640 0.61150 0.63760 -0.72400
O 	O 	0.04750 0.60140 0.44050 -0.47400
O 	O 	0.13290 0.35090 0.54470 -0.59100
O 	O 	0.06670 0.78510 0.45890 -0.58700
O 	O 	0.11760 0.77230 0.57650 -0.71000
O 	O 	0.17990 0.88250 0.58220 -0.59700
O 	O 	0.22740 0.75090 0.63680 -0.48600
O 	O 	0.09960 0.55540 0.56510 -0.72800
O 	O 	0.57000 0.13890 0.91220 -0.49000
O 	O 	0.06220 0.69060 0.51380 -0.58900
O 	O 	0.14030 0.52850 0.43530 -0.57300
O 	O 	0.14690 0.43790 0.61770 -0.48700
N 	N 	0.12000 0.40550 0.36280 -0.17600
H 	H 	0.12280 0.42970 0.38480 0.10400
N 	N 	0.11030 0.30630 0.31690 -0.14400
C 	C 	0.11480 0.38690 0.30710 0.09800
O 	O 	0.11460 0.34490 0.14640 -0.48100
O 	O 	0.27820 0.65700 0.66050 -0.33100
C 	C 	0.12620 0.24290 0.41760 -0.08900
H 	H 	0.13910 0.29250 0.43370 0.01700
O 	O 	0.13100 0.98410 0.46990 -0.49400
N 	N 	0.12300 0.45170 0.33620 -0.10500
C 	C 	0.11590 0.40060 0.27200 0.02200
C 	C 	0.11240 0.32060 0.24720 -0.10900
H 	H 	0.10910 0.26290 0.25410 0.07100
C 	C 	0.11230 0.31790 0.35120 0.10600
C 	C 	0.10900 0.24410 0.37270 0.01200
N 	N 	0.42850 0.41860 0.77220 -0.13900
O 	O 	0.53130 0.04880 0.88990 -0.32900
C 	C 	0.45920 0.42720 0.80140 0.10200
C 	C 	0.48100 0.34980 0.82220 0.01900
C 	C 	0.53270 0.28710 0.87080 0.05100
H 	H 	0.55420 0.29440 0.88740 0.02800
C 	C 	0.48830 0.18380 0.83690 0.04000
H 	H 	0.48030 0.12460 0.83290 0.02300
C 	C 	0.46950 0.25790 0.81560 -0.10100
H 	H 	0.44810 0.24830 0.79580 0.07100
C 	C 	0.52100 0.20180 0.86560 -0.14700
C 	C 	0.54170 0.12500 0.88990 0.38700
C 	C 	0.51380 0.36420 0.85230 -0.11000
H 	H 	0.52210 0.42330 0.85930 0.06700
C 	C 	0.41800 0.50450 0.76510 0.08200
C 	C 	0.32130 0.56720 0.68350 -0.12800
C 	C 	0.33270 0.47850 0.68550 0.04100
H 	H 	0.31870 0.43030 0.67030 0.01400
C 	C 	0.12330 0.49020 0.22670 0.04100
H 	H 	0.12710 0.54720 0.22000 0.01500
C 	C 	0.12170 0.48390 0.26040 -0.10800
H 	H 	0.12450 0.53700 0.27560 0.06000
C 	C 	0.11390 0.32810 0.21470 0.04000
H 	H 	0.11130 0.27570 0.19920 0.01800
C 	C 	0.10640 0.09050 0.41290 -0.13400
C 	C 	0.34290 0.63620 0.71040 0.03300
H 	H 	0.33660 0.69480 0.71170 0.01600
C 	C 	0.10630 0.00810 0.43390 0.35600
N 	N 	0.46650 0.51730 0.80780 -0.17100
H 	H 	0.48520 0.53890 0.82360 0.10800
N 	N 	0.44030 0.56920 0.78580 -0.09800
C 	C 	0.36460 0.46180 0.70980 -0.13200
H 	H 	0.37190 0.40640 0.70720 0.07900
C 	C 	0.37460 0.61210 0.73530 -0.12400
H 	H 	0.38960 0.65740 0.75180 0.06800
C 	C 	0.28730 0.58240 0.65730 0.33300
C 	C 	0.38400 0.52540 0.73620 0.05400
C 	C 	0.12440 0.16800 0.43850 0.02300
H 	H 	0.13450 0.16900 0.46780 -0.00200
C 	C 	0.09150 0.16720 0.35080 -0.10200
H 	H 	0.08020 0.16730 0.32120 0.07300
O 	O 	0.08360 0.95640 0.41700 -0.36100
C 	C 	0.11950 0.41470 0.20340 -0.14200
O 	O 	0.12980 0.49200 0.16240 -0.31700
C 	C 	0.12240 0.41780 0.17040 0.33400
C 	C 	0.08930 0.09400 0.36790 0.04400
H 	H 	0.07670 0.04530 0.35080 0.01500
Mo	Mo	0.67362 0.98442 0.48721 1.11100
Mo	Mo	0.69348 0.21286 0.50748 1.05900
Mo	Mo	0.65235 0.35132 0.59034 1.11800
Mo	Mo	0.57250 0.18445 0.42900 1.06400
Mo	Mo	0.58280 0.29362 0.51381 1.11300
Mo	Mo	0.66897 0.87641 0.55285 1.11500
Mo	Mo	0.61758 0.14848 0.42458 1.06500
Mo	Mo	0.70620 0.29594 0.57507 1.05100
Mo	Mo	0.68709 0.00048 0.63855 1.05800
Mo	Mo	0.70280 0.17397 0.65120 1.05300
Mo	Mo	0.56708 0.06188 0.50306 1.05200
Zn	Zn	0.62910 0.36106 0.48523 1.22300
Mo	Mo	0.60814 0.93515 0.55294 1.05500
Zn	Zn	0.72567 0.05099 0.59381 1.22200
Zn	Zn	0.59930 0.94710 0.45615 1.22200
Zn	Zn	0.62291 0.15713 0.60630 1.22000
O 	O 	0.71400 0.07010 0.63150 -0.73200
O 	O 	0.71740 0.17480 0.56740 -0.72600
O 	O 	0.64390 0.91660 0.49280 -0.70400
O 	O 	0.59080 0.07010 0.42960 -0.72200
O 	O 	0.69650 0.96240 0.54960 -0.70700
O 	O 	0.62000 0.35280 0.52690 -0.70000
O 	O 	0.67220 0.31170 0.51400 -0.72100
O 	O 	0.60850 0.25490 0.44500 -0.72700
O 	O 	0.67870 0.28940 0.64070 -0.59400
O 	O 	0.58620 0.96360 0.49250 -0.72500
O 	O 	0.69300 0.89850 0.60980 -0.59300
O 	O 	0.65870 0.20530 0.44870 -0.54800
O 	O 	0.70010 0.07680 0.49910 -0.57600
O 	O 	0.76920 0.02300 0.62760 -0.48200
O 	O 	0.66640 0.11150 0.63760 -0.72400
O 	O 	0.54750 0.10140 0.44050 -0.47400
O 	O 	0.63290 0.85090 0.54470 -0.59100
O 	O 	0.56670 0.28510 0.45890 -0.58700
O 	O 	0.61760 0.27230 0.57650 -0.71000
O 	O 	0.67990 0.38250 0.58220 -0.59700
O 	O 	0.72740 0.25090 0.63680 -0.48600
O 	O 	0.59960 0.05540 0.56510 -0.72800
O 	O 	0.07000 0.63890 0.91220 -0.49000
O 	O 	0.56220 0.19060 0.51380 -0.58900
O 	O 	0.64030 0.02850 0.43530 -0.57200
O 	O 	0.64690 0.93790 0.61770 -0.48700
N 	N 	0.62000 0.90550 0.36280 -0.17600
H 	H 	0.62280 0.92970 0.38480 0.10300
N 	N 	0.61030 0.80630 0.31690 -0.14400
C 	C 	0.61480 0.88690 0.30710 0.09700
O 	O 	0.61460 0.84490 0.14640 -0.48100
O 	O 	0.77820 0.15700 0.66050 -0.33100
C 	C 	0.62620 0.74290 0.41760 -0.08900
H 	H 	0.63910 0.79250 0.43370 0.01700
O 	O 	0.63100 0.48410 0.46990 -0.49500
N 	N 	0.62300 0.95170 0.33620 -0.10500
C 	C 	0.61590 0.90060 0.27200 0.02300
C 	C 	0.61240 0.82060 0.24720 -0.10900
H 	H 	0.60910 0.76290 0.25410 0.07100
C 	C 	0.61230 0.81790 0.35120 0.10500
C 	C 	0.60900 0.74410 0.37270 0.01300
N 	N 	0.92850 0.91860 0.77220 -0.14000
O 	O 	0.03130 0.54880 0.88990 -0.32800
C 	C 	0.95920 0.92720 0.80140 0.10200
C 	C 	0.98100 0.84980 0.82220 0.01900
C 	C 	0.03270 0.78710 0.87080 0.05000
H 	H 	0.05420 0.79440 0.88740 0.02800
C 	C 	0.98830 0.68380 0.83690 0.03900
H 	H 	0.98030 0.62460 0.83290 0.02300
C 	C 	0.96950 0.75790 0.81560 -0.10100
H 	H 	0.94810 0.74830 0.79580 0.07100
C 	C 	0.02100 0.70180 0.86560 -0.14700
C 	C 	0.04170 0.62500 0.88990 0.38700
C 	C 	0.01380 0.86420 0.85230 -0.11000
H 	H 	0.02210 0.92330 0.85930 0.06700
C 	C 	0.91800 0.00450 0.76510 0.08200
C 	C 	0.82130 0.06720 0.68350 -0.12700
C 	C 	0.83270 0.97850 0.68550 0.04000
H 	H 	0.81870 0.93030 0.67030 0.01400
C 	C 	0.62330 0.99020 0.22670 0.04000
H 	H 	0.62710 0.04720 0.22000 0.01600
C 	C 	0.62170 0.98390 0.26040 -0.11000
H 	H 	0.62450 0.03700 0.27560 0.06200
C 	C 	0.61390 0.82810 0.21470 0.04000
H 	H 	0.61130 0.77570 0.19920 0.01800
C 	C 	0.60640 0.59050 0.41290 -0.13500
C 	C 	0.84290 0.13620 0.71040 0.03300
H 	H 	0.83660 0.19480 0.71170 0.01600
C 	C 	0.60630 0.50810 0.43390 0.35900
N 	N 	0.96650 0.01730 0.80780 -0.17100
H 	H 	0.98520 0.03890 0.82360 0.10800
N 	N 	0.94030 0.06920 0.78580 -0.09800
C 	C 	0.86460 0.96180 0.70980 -0.13300
H 	H 	0.87190 0.90640 0.70720 0.07900
C 	C 	0.87460 0.11210 0.73530 -0.12500
H 	H 	0.88960 0.15740 0.75180 0.06800
C 	C 	0.78730 0.08240 0.65730 0.33300
C 	C 	0.88400 0.02540 0.73620 0.05500
C 	C 	0.62440 0.66800 0.43850 0.02400
H 	H 	0.63450 0.66900 0.46780 -0.00300
C 	C 	0.59150 0.66720 0.35080 -0.10300
H 	H 	0.58020 0.66730 0.32120 0.07300
O 	O 	0.58360 0.45640 0.41700 -0.36200
C 	C 	0.61950 0.91470 0.20340 -0.14200
O 	O 	0.62980 0.99200 0.16240 -0.31800
C 	C 	0.62240 0.91780 0.17040 0.33400
C 	C 	0.58930 0.59400 0.36790 0.04500
H 	H 	0.57670 0.54530 0.35080 0.01500
Mo	Mo	0.17362 0.51558 0.98721 1.11200
Mo	Mo	0.19348 0.28714 0.00748 1.05900
Mo	Mo	0.15235 0.14868 0.09034 1.11800
Mo	Mo	0.07250 0.31555 0.92900 1.06400
Mo	Mo	0.08280 0.20638 0.01381 1.11400
Mo	Mo	0.16897 0.62359 0.05285 1.11500
Mo	Mo	0.11758 0.35152 0.92458 1.06500
Mo	Mo	0.20620 0.20406 0.07507 1.05100
Mo	Mo	0.18709 0.49952 0.13855 1.05800
Mo	Mo	0.20280 0.32603 0.15120 1.05300
Mo	Mo	0.06708 0.43812 0.00306 1.05200
Zn	Zn	0.12910 0.13894 0.98523 1.22300
Mo	Mo	0.10814 0.56485 0.05294 1.05500
Zn	Zn	0.22567 0.44901 0.09381 1.22200
Zn	Zn	0.09930 0.55290 0.95615 1.22300
Zn	Zn	0.12291 0.34287 0.10630 1.22000
O 	O 	0.21400 0.42990 0.13150 -0.73200
O 	O 	0.21740 0.32520 0.06740 -0.72600
O 	O 	0.14390 0.58340 0.99280 -0.70300
O 	O 	0.09080 0.42990 0.92960 -0.72200
O 	O 	0.19650 0.53760 0.04960 -0.70700
O 	O 	0.12000 0.14720 0.02690 -0.70000
O 	O 	0.17220 0.18830 0.01400 -0.72100
O 	O 	0.10850 0.24510 0.94500 -0.72700
O 	O 	0.17870 0.21060 0.14070 -0.59400
O 	O 	0.08620 0.53640 0.99250 -0.72400
O 	O 	0.19300 0.60150 0.10980 -0.59300
O 	O 	0.15870 0.29470 0.94870 -0.54800
O 	O 	0.20010 0.42320 0.99910 -0.57600
O 	O 	0.26920 0.47700 0.12760 -0.48300
O 	O 	0.16640 0.38850 0.13760 -0.72400
O 	O 	0.04750 0.39860 0.94050 -0.47400
O 	O 	0.13290 0.64910 0.04470 -0.59100
O 	O 	0.06670 0.21490 0.95890 -0.58700
O 	O 	0.11760 0.22770 0.07650 -0.71000
O 	O 	0.17990 0.11750 0.08220 -0.59700
O 	O 	0.22740 0.24910 0.13680 -0.48600
O 	O 	0.09960 0.44460 0.06510 -0.72800
O 	O 	0.57000 0.86110 0.41220 -0.49000
O 	O 	0.06220 0.30940 0.01380 -0.58900
O 	O 	0.14030 0.47150 0.93530 -0.57300
O 	O 	0.14690 0.56210 0.11770 -0.48700
N 	N 	0.12000 0.59450 0.86280 -0.17600
H 	H 	0.12280 0.57030 0.88480 0.10400
N 	N 	0.11030 0.69370 0.81690 -0.14400
C 	C 	0.11480 0.61310 0.80710 0.09800
O 	O 	0.11460 0.65510 0.64640 -0.48100
O 	O 	0.27820 0.34300 0.16050 -0.33100
C 	C 	0.12620 0.75710 0.91760 -0.08900
H 	H 	0.13910 0.70750 0.93370 0.01700
O 	O 	0.13100 0.01590 0.96990 -0.49500
N 	N 	0.12300 0.54830 0.83620 -0.10500
C 	C 	0.11590 0.59940 0.77200 0.02200
C 	C 	0.11240 0.67940 0.74720 -0.10900
H 	H 	0.10910 0.73710 0.75410 0.07100
C 	C 	0.11230 0.68210 0.85120 0.10600
C 	C 	0.10900 0.75590 0.87270 0.01300
N 	N 	0.42850 0.58140 0.27220 -0.13900
O 	O 	0.53130 0.95120 0.38990 -0.32900
C 	C 	0.45920 0.57280 0.30140 0.10200
C 	C 	0.48100 0.65020 0.32220 0.01900
C 	C 	0.53270 0.71290 0.37080 0.05100
H 	H 	0.55420 0.70560 0.38740 0.02800
C 	C 	0.48830 0.81620 0.33690 0.04000
H 	H 	0.48030 0.87540 0.33290 0.02300
C 	C 	0.46950 0.74210 0.31560 -0.10100
H 	H 	0.44810 0.75170 0.29580 0.07100
C 	C 	0.52100 0.79820 0.36560 -0.14700
C 	C 	0.54170 0.87500 0.38990 0.38700
C 	C 	0.51380 0.63580 0.35230 -0.11000
H 	H 	0.52210 0.57670 0.35930 0.06700
C 	C 	0.41800 0.49550 0.26510 0.08200
C 	C 	0.32130 0.43280 0.18350 -0.12800
C 	C 	0.33270 0.52150 0.18550 0.04100
H 	H 	0.31870 0.56970 0.17030 0.01400
C 	C 	0.12330 0.50980 0.72670 0.04100
H 	H 	0.12710 0.45280 0.72000 0.01500
C 	C 	0.12170 0.51610 0.76040 -0.10800
H 	H 	0.12450 0.46300 0.77560 0.06000
C 	C 	0.11390 0.67190 0.71470 0.04000
H 	H 	0.11130 0.72430 0.69920 0.01800
C 	C 	0.10640 0.90950 0.91290 -0.13400
C 	C 	0.34290 0.36380 0.21040 0.03300
H 	H 	0.33660 0.30520 0.21170 0.01600
C 	C 	0.10630 0.99190 0.93390 0.35700
N 	N 	0.46650 0.48270 0.30780 -0.17100
H 	H 	0.48520 0.46110 0.32360 0.10800
N 	N 	0.44030 0.43080 0.28580 -0.09800
C 	C 	0.36460 0.53820 0.20980 -0.13200
H 	H 	0.37190 0.59360 0.20720 0.07900
C 	C 	0.37460 0.38790 0.23530 -0.12400
H 	H 	0.38960 0.34260 0.25180 0.06800
C 	C 	0.28730 0.41760 0.15730 0.33300
C 	C 	0.38400 0.47460 0.23620 0.05400
C 	C 	0.12440 0.83200 0.93850 0.02400
H 	H 	0.13450 0.83100 0.96780 -0.00200
C 	C 	0.09150 0.83280 0.85080 -0.10200
H 	H 	0.08020 0.83270 0.82120 0.07300
O 	O 	0.08360 0.04360 0.91700 -0.36100
C 	C 	0.11950 0.58530 0.70340 -0.14200
O 	O 	0.12980 0.50800 0.66240 -0.31700
C 	C 	0.12240 0.58220 0.67040 0.33400
C 	C 	0.08930 0.90600 0.86790 0.04500
H 	H 	0.07670 0.95470 0.85080 0.01500
Mo	Mo	0.67362 0.01558 0.98721 1.11100
Mo	Mo	0.69348 0.78714 0.00748 1.05900
Mo	Mo	0.65235 0.64868 0.09034 1.11800
Mo	Mo	0.57250 0.81555 0.92900 1.06500
Mo	Mo	0.58280 0.70638 0.01381 1.11300
Mo	Mo	0.66897 0.12359 0.05285 1.11500
Mo	Mo	0.61758 0.85152 0.92458 1.06500
Mo	Mo	0.70620 0.70406 0.07507 1.05100
Mo	Mo	0.68709 0.99952 0.13855 1.05800
Mo	Mo	0.70280 0.82603 0.15120 1.05300
Mo	Mo	0.56708 0.93812 0.00306 1.05200
Zn	Zn	0.62910 0.63894 0.98523 1.22300
Mo	Mo	0.60814 0.06485 0.05294 1.05600
Zn	Zn	0.72567 0.94901 0.09381 1.22200
Zn	Zn	0.59930 0.05290 0.95615 1.22200
Zn	Zn	0.62291 0.84287 0.10630 1.22000
O 	O 	0.71400 0.92990 0.13150 -0.73200
O 	O 	0.71740 0.82520 0.06740 -0.72600
O 	O 	0.64390 0.08340 0.99280 -0.70400
O 	O 	0.59080 0.92990 0.92960 -0.72100
O 	O 	0.69650 0.03760 0.04960 -0.70700
O 	O 	0.62000 0.64720 0.02690 -0.70000
O 	O 	0.67220 0.68830 0.01400 -0.72100
O 	O 	0.60850 0.74510 0.94500 -0.72700
O 	O 	0.67870 0.71060 0.14070 -0.59400
O 	O 	0.58620 0.03640 0.99250 -0.72500
O 	O 	0.69300 0.10150 0.10980 -0.59300
O 	O 	0.65870 0.79470 0.94870 -0.54800
O 	O 	0.70010 0.92320 0.99910 -0.57500
O 	O 	0.76920 0.97700 0.12760 -0.48300
O 	O 	0.66640 0.88850 0.13760 -0.72400
O 	O 	0.54750 0.89860 0.94050 -0.47300
O 	O 	0.63290 0.14910 0.04470 -0.59100
O 	O 	0.56670 0.71490 0.95890 -0.58700
O 	O 	0.61760 0.72770 0.07650 -0.71000
O 	O 	0.67990 0.61750 0.08220 -0.59700
O 	O 	0.72740 0.74910 0.13680 -0.48600
O 	O 	0.59960 0.94460 0.06510 -0.72800
O 	O 	0.07000 0.36110 0.41220 -0.49000
O 	O 	0.56220 0.80940 0.01380 -0.58900
O 	O 	0.64030 0.97150 0.93530 -0.57200
O 	O 	0.64690 0.06210 0.11770 -0.48700
N 	N 	0.62000 0.09450 0.86280 -0.17600
H 	H 	0.62280 0.07030 0.88480 0.10300
N 	N 	0.61030 0.19370 0.81690 -0.14400
C 	C 	0.61480 0.11310 0.80710 0.09700
O 	O 	0.61460 0.15510 0.64640 -0.48100
O 	O 	0.77820 0.84300 0.16050 -0.33100
C 	C 	0.62620 0.25710 0.91760 -0.08900
H 	H 	0.63910 0.20750 0.93370 0.01700
O 	O 	0.63100 0.51590 0.96990 -0.49500
N 	N 	0.62300 0.04830 0.83620 -0.10500
C 	C 	0.61590 0.09940 0.77200 0.02300
C 	C 	0.61240 0.17940 0.74720 -0.10900
H 	H 	0.60910 0.23710 0.75410 0.07100
C 	C 	0.61230 0.18210 0.85120 0.10500
C 	C 	0.60900 0.25590 0.87270 0.01300
N 	N 	0.92850 0.08140 0.27220 -0.14000
O 	O 	0.03130 0.45120 0.38990 -0.32800
C 	C 	0.95920 0.07280 0.30140 0.10100
C 	C 	0.98100 0.15020 0.32220 0.01900
C 	C 	0.03270 0.21290 0.37080 0.05100
H 	H 	0.05420 0.20560 0.38740 0.02700
C 	C 	0.98830 0.31620 0.33690 0.04000
H 	H 	0.98030 0.37540 0.33290 0.02300
C 	C 	0.96950 0.24210 0.31560 -0.10100
H 	H 	0.94810 0.25170 0.29580 0.07100
C 	C 	0.02100 0.29820 0.36560 -0.14700
C 	C 	0.04170 0.37500 0.38990 0.38700
C 	C 	0.01380 0.13580 0.35230 -0.11000
H 	H 	0.02210 0.07670 0.35930 0.06700
C 	C 	0.91800 0.99550 0.26510 0.08200
C 	C 	0.82130 0.93280 0.18350 -0.12700
C 	C 	0.83270 0.02150 0.18550 0.04000
H 	H 	0.81870 0.06970 0.17030 0.01400
C 	C 	0.62330 0.00980 0.72670 0.04000
H 	H 	0.62710 0.95280 0.72000 0.01600
C 	C 	0.62170 0.01610 0.76040 -0.11000
H 	H 	0.62450 0.96300 0.77560 0.06200
C 	C 	0.61390 0.17190 0.71470 0.04000
H 	H 	0.61130 0.22430 0.69920 0.01800
C 	C 	0.60640 0.40950 0.91290 -0.13500
C 	C 	0.84290 0.86380 0.21040 0.03300
H 	H 	0.83660 0.80520 0.21170 0.01600
C 	C 	0.60630 0.49190 0.93390 0.35900
N 	N 	0.96650 0.98270 0.30780 -0.17100
H 	H 	0.98520 0.96110 0.32360 0.10800
N 	N 	0.94030 0.93080 0.28580 -0.09800
C 	C 	0.86460 0.03820 0.20980 -0.13300
H 	H 	0.87190 0.09360 0.20720 0.07900
C 	C 	0.87460 0.88790 0.23530 -0.12500
H 	H 	0.88960 0.84260 0.25180 0.06800
C 	C 	0.78730 0.91760 0.15730 0.33300
C 	C 	0.88400 0.97460 0.23620 0.05500
C 	C 	0.62440 0.33200 0.93850 0.02400
H 	H 	0.63450 0.33100 0.96780 -0.00200
C 	C 	0.59150 0.33280 0.85080 -0.10300
H 	H 	0.58020 0.33270 0.82120 0.07300
O 	O 	0.58360 0.54360 0.91700 -0.36200
C 	C 	0.61950 0.08530 0.70340 -0.14200
O 	O 	0.62980 0.00800 0.66240 -0.31800
C 	C 	0.62240 0.08220 0.67040 0.33400
C 	C 	0.58930 0.40600 0.86790 0.04500
H 	H 	0.57670 0.45470 0.85080 0.01500
Mo	Mo	0.82638 0.48442 0.01279 1.11200
Mo	Mo	0.80652 0.71286 0.99252 1.05900
Mo	Mo	0.84765 0.85132 0.90966 1.11800
Mo	Mo	0.92750 0.68445 0.07100 1.06400
Mo	Mo	0.91720 0.79362 0.98619 1.11400
Mo	Mo	0.83103 0.37641 0.94715 1.11500
Mo	Mo	0.88242 0.64848 0.07542 1.06500
Mo	Mo	0.79380 0.79594 0.92493 1.05100
Mo	Mo	0.81291 0.50048 0.86145 1.05800
Mo	Mo	0.79720 0.67397 0.84880 1.05300
Mo	Mo	0.93292 0.56188 0.99694 1.05200
Zn	Zn	0.87090 0.86106 0.01477 1.22300
Mo	Mo	0.89186 0.43515 0.94706 1.05500
Zn	Zn	0.77433 0.55099 0.90619 1.22200
Zn	Zn	0.90070 0.44710 0.04385 1.22300
Zn	Zn	0.87709 0.65713 0.89370 1.22000
O 	O 	0.78600 0.57010 0.86850 -0.73200
O 	O 	0.78260 0.67480 0.93260 -0.72600
O 	O 	0.85610 0.41660 0.00720 -0.70300
O 	O 	0.90920 0.57010 0.07040 -0.72200
O 	O 	0.80350 0.46240 0.95040 -0.70700
O 	O 	0.88000 0.85280 0.97310 -0.70000
O 	O 	0.82780 0.81170 0.98600 -0.72100
O 	O 	0.89150 0.75490 0.05500 -0.72700
O 	O 	0.82130 0.78940 0.85930 -0.59400
O 	O 	0.91380 0.46360 0.00750 -0.72400
O 	O 	0.80700 0.39850 0.89020 -0.59300
O 	O 	0.84130 0.70530 0.05130 -0.54800
O 	O 	0.79990 0.57680 0.00090 -0.57600
O 	O 	0.73080 0.52300 0.87240 -0.48300
O 	O 	0.83360 0.61150 0.86240 -0.72400
O 	O 	0.95250 0.60140 0.05950 -0.47400
O 	O 	0.86710 0.35090 0.95530 -0.59100
O 	O 	0.93330 0.78510 0.04110 -0.58700
O 	O 	0.88240 0.77230 0.92350 -0.71000
O 	O 	0.82010 0.88250 0.91780 -0.59700
O 	O 	0.77260 0.75090 0.86320 -0.48600
O 	O 	0.90040 0.55540 0.93490 -0.72800
O 	O 	0.43000 0.13890 0.58780 -0.49000
O 	O 	0.93780 0.69060 0.98620 -0.58900
O 	O 	0.85970 0.52850 0.06470 -0.57300
O 	O 	0.85310 0.43790 0.88230 -0.48700
N 	N 	0.88000 0.40550 0.13720 -0.17600
H 	H 	0.87720 0.42970 0.11520 0.10400
N 	N 	0.88970 0.30630 0.18310 -0.14400
C 	C 	0.88520 0.38690 0.19290 0.09800
O 	O 	0.88540 0.34490 0.35360 -0.48100
O 	O 	0.72180 0.65700 0.83950 -0.33100
C 	C 	0.87380 0.24290 0.08240 -0.08900
H 	H 	0.86090 0.29250 0.06630 0.01700
O 	O 	0.86900 0.98410 0.03010 -0.49500
N 	N 	0.87700 0.45170 0.16380 -0.10500
C 	C 	0.88410 0.40060 0.22800 0.02200
C 	C 	0.88760 0.32060 0.25280 -0.10900
H 	H 	0.89090 0.26290 0.24590 0.07100
C 	C 	0.88770 0.31790 0.14880 0.10600
C 	C 	0.89100 0.24410 0.12730 0.01300
N 	N 	0.57150 0.41860 0.72780 -0.13900
O 	O 	0.46870 0.04880 0.61010 -0.32900
C 	C 	0.54080 0.42720 0.69860 0.10200
C 	C 	0.51900 0.34980 0.67780 0.01900
C 	C 	0.46730 0.28710 0.62920 0.05100
H 	H 	0.44580 0.29440 0.61260 0.02800
C 	C 	0.51170 0.18380 0.66310 0.04000
H 	H 	0.51970 0.12460 0.66710 0.02300
C 	C 	0.53050 0.25790 0.68440 -0.10100
H 	H 	0.55190 0.24830 0.70420 0.07100
C 	C 	0.47900 0.20180 0.63440 -0.14700
C 	C 	0.45830 0.12500 0.61010 0.38700
C 	C 	0.48620 0.36420 0.64770 -0.11000
H 	H 	0.47790 0.42330 0.64070 0.06700
C 	C 	0.58200 0.50450 0.73490 0.08200
C 	C 	0.67870 0.56720 0.81650 -0.12800
C 	C 	0.66730 0.47850 0.81450 0.04100
H 	H 	0.68130 0.43030 0.82970 0.01400
C 	C 	0.87670 0.49020 0.27330 0.04100
H 	H 	0.87290 0.54720 0.28000 0.01500
C 	C 	0.87830 0.48390 0.23960 -0.10800
H 	H 	0.87550 0.53700 0.22440 0.06000
C 	C 	0.88610 0.32810 0.28530 0.04000
H 	H 	0.88870 0.27570 0.30080 0.01800
C 	C 	0.89360 0.09050 0.08710 -0.13400
C 	C 	0.65710 0.63620 0.78960 0.03300
H 	H 	0.66340 0.69480 0.78830 0.01600
C 	C 	0.89370 0.00810 0.06610 0.35700
N 	N 	0.53350 0.51730 0.69220 -0.17100
H 	H 	0.51480 0.53890 0.67640 0.10800
N 	N 	0.55970 0.56920 0.71420 -0.09800
C 	C 	0.63540 0.46180 0.79020 -0.13200
H 	H 	0.62810 0.40640 0.79280 0.07900
C 	C 	0.62540 0.61210 0.76470 -0.12400
H 	H 	0.61040 0.65740 0.74820 0.06800
C 	C 	0.71270 0.58240 0.84270 0.33300
C 	C 	0.61600 0.52540 0.76380 0.05400
C 	C 	0.87560 0.16800 0.06150 0.02400
H 	H 	0.86550 0.16900 0.03220 -0.00200
C 	C 	0.90850 0.16720 0.14920 -0.10200
H 	H 	0.91980 0.16730 0.17880 0.07300
O 	O 	0.91640 0.95640 0.08300 -0.36100
C 	C 	0.88050 0.41470 0.29660 -0.14200
O 	O 	0.87020 0.49200 0.33760 -0.31700
C 	C 	0.87760 0.41780 0.32960 0.33400
C 	C 	0.91070 0.09400 0.13210 0.04500
H 	H 	0.92330 0.04530 0.14920 0.01500
Mo	Mo	0.32638 0.98442 0.01279 1.11100
Mo	Mo	0.30652 0.21286 0.99252 1.05900
Mo	Mo	0.34765 0.35132 0.90966 1.11800
Mo	Mo	0.42750 0.18445 0.07100 1.06500
Mo	Mo	0.41720 0.29362 0.98619 1.11300
Mo	Mo	0.33103 0.87641 0.94715 1.11500
Mo	Mo	0.38242 0.14848 0.07542 1.06500
Mo	Mo	0.29380 0.29594 0.92493 1.05100
Mo	Mo	0.31291 0.00048 0.86145 1.05800
Mo	Mo	0.29720 0.17397 0.84880 1.05300
Mo	Mo	0.43292 0.06188 0.99694 1.05200
Zn	Zn	0.37090 0.36106 0.01477 1.22300
Mo	Mo	0.39186 0.93515 0.94706 1.05600
Zn	Zn	0.27433 0.05099 0.90619 1.22200
Zn	Zn	0.40070 0.94710 0.04385 1.22200
Zn	Zn	0.37709 0.15713 0.89370 1.22000
O 	O 	0.28600 0.07010 0.86850 -0.73200
O 	O 	0.28260 0.17480 0.93260 -0.72600
O 	O 	0.35610 0.91660 0.00720 -0.70400
O 	O 	0.40920 0.07010 0.07040 -0.72100
O 	O 	0.30350 0.96240 0.95040 -0.70700
O 	O 	0.38000 0.35280 0.97310 -0.70000
O 	O 	0.32780 0.31170 0.98600 -0.72100
O 	O 	0.39150 0.25490 0.05500 -0.72700
O 	O 	0.32130 0.28940 0.85930 -0.59400
O 	O 	0.41380 0.96360 0.00750 -0.72500
O 	O 	0.30700 0.89850 0.89020 -0.59300
O 	O 	0.34130 0.20530 0.05130 -0.54800
O 	O 	0.29990 0.07680 0.00090 -0.57500
O 	O 	0.23080 0.02300 0.87240 -0.48300
O 	O 	0.33360 0.11150 0.86240 -0.72400
O 	O 	0.45250 0.10140 0.05950 -0.47300
O 	O 	0.36710 0.85090 0.95530 -0.59100
O 	O 	0.43330 0.28510 0.04110 -0.58700
O 	O 	0.38240 0.27230 0.92350 -0.71000
O 	O 	0.32010 0.38250 0.91780 -0.59700
O 	O 	0.27260 0.25090 0.86320 -0.48600
O 	O 	0.40040 0.05540 0.93490 -0.72800
O 	O 	0.93000 0.63890 0.58780 -0.49000
O 	O 	0.43780 0.19060 0.98620 -0.58900
O 	O 	0.35970 0.02850 0.06470 -0.57200
O 	O 	0.35310 0.93790 0.88230 -0.48700
N 	N 	0.38000 0.90550 0.13720 -0.17600
H 	H 	0.37720 0.92970 0.11520 0.10300
N 	N 	0.38970 0.80630 0.18310 -0.14400
C 	C 	0.38520 0.88690 0.19290 0.09700
O 	O 	0.38540 0.84490 0.35360 -0.48100
O 	O 	0.22180 0.15700 0.83950 -0.33100
C 	C 	0.37380 0.74290 0.08240 -0.08900
H 	H 	0.36090 0.79250 0.06630 0.01700
O 	O 	0.36900 0.48410 0.03010 -0.49500
N 	N 	0.37700 0.95170 0.16380 -0.10500
C 	C 	0.38410 0.90060 0.22800 0.02300
C 	C 	0.38760 0.82060 0.25280 -0.10900
H 	H 	0.39090 0.76290 0.24590 0.07100
C 	C 	0.38770 0.81790 0.14880 0.10500
C 	C 	0.39100 0.74410 0.12730 0.01300
N 	N 	0.07150 0.91860 0.72780 -0.14000
O 	O 	0.96870 0.54880 0.61010 -0.32800
C 	C 	0.04080 0.92720 0.69860 0.10100
C 	C 	0.01900 0.84980 0.67780 0.01900
C 	C 	0.96730 0.78710 0.62920 0.05100
H 	H 	0.94580 0.79440 0.61260 0.02700
C 	C 	0.01170 0.68380 0.66310 0.04000
H 	H 	0.01970 0.62460 0.66710 0.02300
C 	C 	0.03050 0.75790 0.68440 -0.10100
H 	H 	0.05190 0.74830 0.70420 0.07100
C 	C 	0.97900 0.70180 0.63440 -0.14700
C 	C 	0.95830 0.62500 0.61010 0.38700
C 	C 	0.98620 0.86420 0.64770 -0.11000
H 	H 	0.97790 0.92330 0.64070 0.06700
C 	C 	0.08200 0.00450 0.73490 0.08200
C 	C 	0.17870 0.06720 0.81650 -0.12700
C 	C 	0.16730 0.97850 0.81450 0.04000
H 	H 	0.18130 0.93030 0.82970 0.01400
C 	C 	0.37670 0.99020 0.27330 0.04000
H 	H 	0.37290 0.04720 0.28000 0.01600
C 	C 	0.37830 0.98390 0.23960 -0.11000
H 	H 	0.37550 0.03700 0.22440 0.06200
C 	C 	0.38610 0.82810 0.28530 0.04000
H 	H 	0.38870 0.77570 0.30080 0.01800
C 	C 	0.39360 0.59050 0.08710 -0.13500
C 	C 	0.15710 0.13620 0.78960 0.03300
H 	H 	0.16340 0.19480 0.78830 0.01600
C 	C 	0.39370 0.50810 0.06610 0.35900
N 	N 	0.03350 0.01730 0.69220 -0.17100
H 	H 	0.01480 0.03890 0.67640 0.10800
N 	N 	0.05970 0.06920 0.71420 -0.09800
C 	C 	0.13540 0.96180 0.79020 -0.13300
H 	H 	0.12810 0.90640 0.79280 0.07900
C 	C 	0.12540 0.11210 0.76470 -0.12500
H 	H 	0.11040 0.15740 0.74820 0.06800
C 	C 	0.21270 0.08240 0.84270 0.33300
C 	C 	0.11600 0.02540 0.76380 0.05500
C 	C 	0.37560 0.66800 0.06150 0.02400
H 	H 	0.36550 0.66900 0.03220 -0.00200
C 	C 	0.40850 0.66720 0.14920 -0.10300
H 	H 	0.41980 0.66730 0.17880 0.07300
O 	O 	0.41640 0.45640 0.08300 -0.36200
C 	C 	0.38050 0.91470 0.29660 -0.14200
O 	O 	0.37020 0.99200 0.33760 -0.31800
C 	C 	0.37760 0.91780 0.32960 0.33400
C 	C 	0.41070 0.59400 0.13210 0.04500
H 	H 	0.42330 0.54530 0.14920 0.01500
Mo	Mo	0.82638 0.51558 0.51279 1.11200
Mo	Mo	0.80652 0.28714 0.49252 1.05900
Mo	Mo	0.84765 0.14868 0.40966 1.11800
Mo	Mo	0.92750 0.31555 0.57100 1.06400
Mo	Mo	0.91720 0.20638 0.48619 1.11300
Mo	Mo	0.83103 0.62359 0.44715 1.11500
Mo	Mo	0.88242 0.35152 0.57542 1.06500
Mo	Mo	0.79380 0.20406 0.42493 1.05100
Mo	Mo	0.81291 0.49952 0.36145 1.05800
Mo	Mo	0.79720 0.32603 0.34880 1.05300
Mo	Mo	0.93292 0.43812 0.49694 1.05200
Zn	Zn	0.87090 0.13894 0.51477 1.22300
Mo	Mo	0.89186 0.56485 0.44706 1.05500
Zn	Zn	0.77433 0.44901 0.40619 1.22200
Zn	Zn	0.90070 0.55290 0.54385 1.22300
Zn	Zn	0.87709 0.34287 0.39370 1.22000
O 	O 	0.78600 0.42990 0.36850 -0.73200
O 	O 	0.78260 0.32520 0.43260 -0.72600
O 	O 	0.85610 0.58340 0.50720 -0.70300
O 	O 	0.90920 0.42990 0.57040 -0.72200
O 	O 	0.80350 0.53760 0.45040 -0.70700
O 	O 	0.88000 0.14720 0.47310 -0.70000
O 	O 	0.82780 0.18830 0.48600 -0.72100
O 	O 	0.89150 0.24510 0.55500 -0.72700
O 	O 	0.82130 0.21060 0.35930 -0.59400
O 	O 	0.91380 0.53640 0.50750 -0.72500
O 	O 	0.80700 0.60150 0.39020 -0.59300
O 	O 	0.84130 0.29470 0.55130 -0.54800
O 	O 	0.79990 0.42320 0.50090 -0.57700
O 	O 	0.73080 0.47700 0.37240 -0.48300
O 	O 	0.83360 0.38850 0.36240 -0.72400
O 	O 	0.95250 0.39860 0.55950 -0.47400
O 	O 	0.86710 0.64910 0.45530 -0.59100
O 	O 	0.93330 0.21490 0.54110 -0.58700
O 	O 	0.88240 0.22770 0.42350 -0.71000
O 	O 	0.82010 0.11750 0.41780 -0.59700
O 	O 	0.77260 0.24910 0.36320 -0.48600
O 	O 	0.90040 0.44460 0.43490 -0.72800
O 	O 	0.43000 0.86110 0.08780 -0.49000
O 	O 	0.93780 0.30940 0.48620 -0.58900
O 	O 	0.85970 0.47150 0.56470 -0.57300
O 	O 	0.85310 0.56210 0.38230 -0.48700
N 	N 	0.88000 0.59450 0.63720 -0.17600
H 	H 	0.87720 0.57030 0.61520 0.10400
N 	N 	0.88970 0.69370 0.68310 -0.14400
C 	C 	0.88520 0.61310 0.69290 0.09800
O 	O 	0.88540 0.65510 0.85360 -0.48100
O 	O 	0.72180 0.34300 0.33950 -0.33100
C 	C 	0.87380 0.75710 0.58240 -0.08900
H 	H 	0.86090 0.70750 0.56630 0.01700
O 	O 	0.86900 0.01590 0.53010 -0.49400
N 	N 	0.87700 0.54830 0.66380 -0.10500
C 	C 	0.88410 0.59940 0.72800 0.02200
C 	C 	0.88760 0.67940 0.75280 -0.10900
H 	H 	0.89090 0.73710 0.74590 0.07100
C 	C 	0.88770 0.68210 0.64880 0.10600
C 	C 	0.89100 0.75590 0.62730 0.01200
N 	N 	0.57150 0.58140 0.22780 -0.13900
O 	O 	0.46870 0.95120 0.11010 -0.32900
C 	C 	0.54080 0.57280 0.19860 0.10200
C 	C 	0.51900 0.65020 0.17780 0.01900
C 	C 	0.46730 0.71290 0.12920 0.05100
H 	H 	0.44580 0.70560 0.11260 0.02800
C 	C 	0.51170 0.81620 0.16310 0.04000
H 	H 	0.51970 0.87540 0.16710 0.02300
C 	C 	0.53050 0.74210 0.18440 -0.10100
H 	H 	0.55190 0.75170 0.20420 0.07100
C 	C 	0.47900 0.79820 0.13440 -0.14700
C 	C 	0.45830 0.87500 0.11010 0.38700
C 	C 	0.48620 0.63580 0.14770 -0.11000
H 	H 	0.47790 0.57670 0.14070 0.06700
C 	C 	0.58200 0.49550 0.23490 0.08200
C 	C 	0.67870 0.43280 0.31650 -0.12800
C 	C 	0.66730 0.52150 0.31450 0.04100
H 	H 	0.68130 0.56970 0.32970 0.01400
C 	C 	0.87670 0.50980 0.77330 0.04100
H 	H 	0.87290 0.45280 0.78000 0.01500
C 	C 	0.87830 0.51610 0.73960 -0.10800
H 	H 	0.87550 0.46300 0.72440 0.06000
C 	C 	0.88610 0.67190 0.78530 0.04000
H 	H 	0.88870 0.72430 0.80080 0.01800
C 	C 	0.89360 0.90950 0.58710 -0.13400
C 	C 	0.65710 0.36380 0.28960 0.03300
H 	H 	0.66340 0.30520 0.28830 0.01600
C 	C 	0.89370 0.99190 0.56610 0.35600
N 	N 	0.53350 0.48270 0.19220 -0.17100
H 	H 	0.51480 0.46110 0.17640 0.10800
N 	N 	0.55970 0.43080 0.21420 -0.09800
C 	C 	0.63540 0.53820 0.29020 -0.13200
H 	H 	0.62810 0.59360 0.29280 0.07900
C 	C 	0.62540 0.38790 0.26470 -0.12400
H 	H 	0.61040 0.34260 0.24820 0.06800
C 	C 	0.71270 0.41760 0.34270 0.33300
C 	C 	0.61600 0.47460 0.26380 0.05400
C 	C 	0.87560 0.83200 0.56150 0.02300
H 	H 	0.86550 0.83100 0.53220 -0.00200
C 	C 	0.90850 0.83280 0.64920 -0.10200
H 	H 	0.91980 0.83270 0.67880 0.07300
O 	O 	0.91640 0.04360 0.58300 -0.36100
C 	C 	0.88050 0.58530 0.79660 -0.14200
O 	O 	0.87020 0.50800 0.83760 -0.31700
C 	C 	0.87760 0.58220 0.82960 0.33400
C 	C 	0.91070 0.90600 0.63210 0.04400
H 	H 	0.92330 0.95470 0.64920 0.01500
Mo	Mo	0.32638 0.01558 0.51279 1.11100
Mo	Mo	0.30652 0.78714 0.49252 1.05900
Mo	Mo	0.34765 0.64868 0.40966 1.11800
Mo	Mo	0.42750 0.81555 0.57100 1.06400
Mo	Mo	0.41720 0.70638 0.48619 1.11300
Mo	Mo	0.33103 0.12359 0.44715 1.11500
Mo	Mo	0.38242 0.85152 0.57542 1.06500
Mo	Mo	0.29380 0.70406 0.42493 1.05100
Mo	Mo	0.31291 0.99952 0.36145 1.05800
Mo	Mo	0.29720 0.82603 0.34880 1.05300
Mo	Mo	0.43292 0.93812 0.49694 1.05200
Zn	Zn	0.37090 0.63894 0.51477 1.22300
Mo	Mo	0.39186 0.06485 0.44706 1.05500
Zn	Zn	0.27433 0.94901 0.40619 1.22200
Zn	Zn	0.40070 0.05290 0.54385 1.22200
Zn	Zn	0.37709 0.84287 0.39370 1.22000
O 	O 	0.28600 0.92990 0.36850 -0.73200
O 	O 	0.28260 0.82520 0.43260 -0.72600
O 	O 	0.35610 0.08340 0.50720 -0.70400
O 	O 	0.40920 0.92990 0.57040 -0.72200
O 	O 	0.30350 0.03760 0.45040 -0.70700
O 	O 	0.38000 0.64720 0.47310 -0.70000
O 	O 	0.32780 0.68830 0.48600 -0.72100
O 	O 	0.39150 0.74510 0.55500 -0.72700
O 	O 	0.32130 0.71060 0.35930 -0.59400
O 	O 	0.41380 0.03640 0.50750 -0.72500
O 	O 	0.30700 0.10150 0.39020 -0.59300
O 	O 	0.34130 0.79470 0.55130 -0.54800
O 	O 	0.29990 0.92320 0.50090 -0.57600
O 	O 	0.23080 0.97700 0.37240 -0.48200
O 	O 	0.33360 0.88850 0.36240 -0.72400
O 	O 	0.45250 0.89860 0.55950 -0.47400
O 	O 	0.36710 0.14910 0.45530 -0.59100
O 	O 	0.43330 0.71490 0.54110 -0.58700
O 	O 	0.38240 0.72770 0.42350 -0.71000
O 	O 	0.32010 0.61750 0.41780 -0.59700
O 	O 	0.27260 0.74910 0.36320 -0.48600
O 	O 	0.40040 0.94460 0.43490 -0.72800
O 	O 	0.93000 0.36110 0.08780 -0.49000
O 	O 	0.43780 0.80940 0.48620 -0.58900
O 	O 	0.35970 0.97150 0.56470 -0.57200
O 	O 	0.35310 0.06210 0.38230 -0.48700
N 	N 	0.38000 0.09450 0.63720 -0.17600
H 	H 	0.37720 0.07030 0.61520 0.10300
N 	N 	0.38970 0.19370 0.68310 -0.14400
C 	C 	0.38520 0.11310 0.69290 0.09700
O 	O 	0.38540 0.15510 0.85360 -0.48100
O 	O 	0.22180 0.84300 0.33950 -0.33100
C 	C 	0.37380 0.25710 0.58240 -0.08900
H 	H 	0.36090 0.20750 0.56630 0.01700
O 	O 	0.36900 0.51590 0.53010 -0.49500
N 	N 	0.37700 0.04830 0.66380 -0.10500
C 	C 	0.38410 0.09940 0.72800 0.02300
C 	C 	0.38760 0.17940 0.75280 -0.10900
H 	H 	0.39090 0.23710 0.74590 0.07100
C 	C 	0.38770 0.18210 0.64880 0.10500
C 	C 	0.39100 0.25590 0.62730 0.01300
N 	N 	0.07150 0.08140 0.22780 -0.14000
O 	O 	0.96870 0.45120 0.11010 -0.32800
C 	C 	0.04080 0.07280 0.19860 0.10200
C 	C 	0.01900 0.15020 0.17780 0.01900
C 	C 	0.96730 0.21290 0.12920 0.05000
H 	H 	0.94580 0.20560 0.11260 0.02800
C 	C 	0.01170 0.31620 0.16310 0.03900
H 	H 	0.01970 0.37540 0.16710 0.02300
C 	C 	0.03050 0.24210 0.18440 -0.10100
H 	H 	0.05190 0.25170 0.20420 0.07100
C 	C 	0.97900 0.29820 0.13440 -0.14700
C 	C 	0.95830 0.37500 0.11010 0.38700
C 	C 	0.98620 0.13580 0.14770 -0.11000
H 	H 	0.97790 0.07670 0.14070 0.06700
C 	C 	0.08200 0.99550 0.23490 0.08200
C 	C 	0.17870 0.93280 0.31650 -0.12700
C 	C 	0.16730 0.02150 0.31450 0.04000
H 	H 	0.18130 0.06970 0.32970 0.01400
C 	C 	0.37670 0.00980 0.77330 0.04000
H 	H 	0.37290 0.95280 0.78000 0.01600
C 	C 	0.37830 0.01610 0.73960 -0.11000
H 	H 	0.37550 0.96300 0.72440 0.06200
C 	C 	0.38610 0.17190 0.78530 0.04000
H 	H 	0.38870 0.22430 0.80080 0.01800
C 	C 	0.39360 0.40950 0.58710 -0.13500
C 	C 	0.15710 0.86380 0.28960 0.03300
H 	H 	0.16340 0.80520 0.28830 0.01600
C 	C 	0.39370 0.49190 0.56610 0.35900
N 	N 	0.03350 0.98270 0.19220 -0.17100
H 	H 	0.01480 0.96110 0.17640 0.10800
N 	N 	0.05970 0.93080 0.21420 -0.09800
C 	C 	0.13540 0.03820 0.29020 -0.13300
H 	H 	0.12810 0.09360 0.29280 0.07900
C 	C 	0.12540 0.88790 0.26470 -0.12500
H 	H 	0.11040 0.84260 0.24820 0.06800
C 	C 	0.21270 0.91760 0.34270 0.33300
C 	C 	0.11600 0.97460 0.26380 0.05500
C 	C 	0.37560 0.33200 0.56150 0.02400
H 	H 	0.36550 0.33100 0.53220 -0.00300
C 	C 	0.40850 0.33280 0.64920 -0.10300
H 	H 	0.41980 0.33270 0.67880 0.07300
O 	O 	0.41640 0.54360 0.58300 -0.36200
C 	C 	0.38050 0.08530 0.79660 -0.14200
O 	O 	0.37020 0.00800 0.83760 -0.31800
C 	C 	0.37760 0.08220 0.82960 0.33400
C 	C 	0.41070 0.40600 0.63210 0.04500
H 	H 	0.42330 0.45470 0.64920 0.01500
