data_crystal

_cell_length_a 35.86130
_cell_length_b 14.89540
_cell_length_c 30.88450
_cell_angle_alpha 90.00000
_cell_angle_beta  101.99000
_cell_angle_gamma 90.00000

_symmetry_space_group_name_	'P 1'
_symmetry_space_group_name_H-M	'P 1'

loop_
_symmetry_equiv_pos_as_xyz
  x,y,z

loop_
_atom_site_label
_atom_site_type_symbol
_atom_site_fract_x
_atom_site_fract_y
_atom_site_fract_z
_atom_site_charge
C 	C 	0.55863 0.86550 0.49583 0.06000
C 	C 	0.27400 0.56000 0.33437 0.07000
C 	C 	0.51749 0.66500 0.43970 0.08500
C 	C 	0.16757 0.54070 0.21090 0.06900
C 	C 	0.55214 0.78590 0.46650 0.09100
C 	C 	0.20632 0.72630 0.28038 0.10300
C 	C 	0.56693 0.70710 0.41019 0.10600
C 	C 	0.17665 0.45310 0.20153 -0.14100
H 	H 	0.19800 0.42500 0.21820 0.08700
C 	C 	0.48407 0.60660 0.43928 0.06800
C 	C 	0.24207 0.60450 0.30350 0.08100
C 	C 	0.19178 0.59390 0.24662 0.10000
C 	C 	0.59236 0.69080 0.37889 0.07300
C 	C 	0.53192 0.89110 0.51996 -0.13100
H 	H 	0.50990 0.85760 0.51870 0.07600
C 	C 	0.15328 0.40860 0.16697 0.08100
H 	H 	0.15970 0.35040 0.16040 -0.01600
C 	C 	0.21582 0.97380 0.30590 0.08000
H 	H 	0.23230 0.01230 0.32450 -0.01500
C 	C 	0.16170 0.95240 0.25260 0.07100
H 	H 	0.14030 0.97570 0.23390 -0.01700
C 	C 	0.59188 0.91530 0.49990 -0.12800
H 	H 	0.61050 0.89930 0.48440 0.08500
C 	C 	0.13440 0.57830 0.18630 -0.13500
H 	H 	0.12700 0.63610 0.19230 0.09900
C 	C 	0.60630 0.62450 0.31390 0.08900
H 	H 	0.59850 0.58940 0.28870 -0.02400
C 	C 	0.32560 0.55700 0.39660 0.10000
H 	H 	0.34060 0.58740 0.42030 -0.01500
C 	C 	0.16760 0.86040 0.25270 -0.13100
H 	H 	0.15060 0.82330 0.23400 0.08900
C 	C 	0.29610 0.60350 0.36940 -0.14900
H 	H 	0.29150 0.66340 0.37490 0.09700
C 	C 	0.59670 0.98910 0.52770 0.07300
H 	H 	0.61910 0.02220 0.53070 -0.01800
C 	C 	0.11290 0.52860 0.15300 0.08400
H 	H 	0.09070 0.55400 0.13670 -0.01200
C 	C 	0.43490 0.51290 0.40080 0.09700
H 	H 	0.42250 0.48710 0.37430 -0.02500
C 	C 	0.46570 0.56540 0.40060 -0.15400
H 	H 	0.47450 0.57370 0.37460 0.09600
C 	C 	0.19918 0.82440 0.28091 0.06500
C 	C 	0.53857 0.96730 0.54584 0.07800
H 	H 	0.51990 0.98580 0.56080 -0.01300
C 	C 	0.46974 0.59350 0.47641 -0.14800
H 	H 	0.48060 0.62200 0.50280 0.08700
C 	C 	0.22364 0.88310 0.30810 -0.13400
H 	H 	0.24510 0.86140 0.32760 0.08500
C 	C 	0.43873 0.53720 0.47410 0.08500
H 	H 	0.42950 0.52710 0.49970 -0.01200
C 	C 	0.62863 0.72890 0.38620 -0.12900
H 	H 	0.63700 0.76560 0.41070 0.09200
C 	C 	0.28224 0.47100 0.32790 -0.14900
H 	H 	0.26760 0.43860 0.30460 0.10200
C 	C 	0.65174 0.71170 0.35710 0.07900
H 	H 	0.67610 0.73620 0.36260 -0.01300
C 	C 	0.58129 0.63600 0.34220 -0.13600
H 	H 	0.55770 0.60760 0.33660 0.09100
C 	C 	0.31220 0.43100 0.35600 0.08800
H 	H 	0.31800 0.37160 0.35090 -0.01200
I 	I 	0.02951 0.34263 0.12990 -0.01600
I 	I 	0.73478 0.73419 0.30082 -0.37800
I 	I 	0.63044 0.67165 0.19880 -0.41300
I 	I 	0.35818 0.41044 0.50890 -0.37000
I 	I 	0.39425 0.26649 0.39455 -0.34900
N 	N 	0.18246 0.67970 0.24954 -0.13400
N 	N 	0.52404 0.72960 0.47040 -0.14700
N 	N 	0.53790 0.65020 0.40859 -0.13300
N 	N 	0.22132 0.55260 0.27210 -0.13900
N 	N 	0.57469 0.77710 0.43724 -0.13400
N 	N 	0.23600 0.69250 0.30911 -0.13800
N 	N 	0.64051 0.66080 0.32083 -0.27900
N 	N 	0.33339 0.47350 0.39052 -0.28400
N 	N 	0.42156 0.49670 0.43685 -0.28300
N 	N 	0.18560 0.00920 0.27840 -0.27600
N 	N 	0.12207 0.44540 0.14276 -0.27600
N 	N 	0.57047 0.01540 0.55042 -0.27600
Zn	Zn	0.67377 0.64505 0.27422 1.16400
Zn	Zn	0.37666 0.40937 0.43401 1.16300
Zn	Zn	0.08375 0.37768 0.09389 1.15500
I 	I 	0.11671 0.25970 0.05650 -0.15000
I 	I 	0.12543 0.27600 0.05660 -0.19400
I 	I 	0.01966 0.36400 0.13038 -0.29400
I 	I 	0.38762 0.26780 0.40810 -0.01800
C 	C 	0.05863 0.36550 0.49583 0.05900
C 	C 	0.77400 0.06000 0.33437 0.07000
C 	C 	0.01749 0.16500 0.43970 0.08400
C 	C 	0.66757 0.04070 0.21090 0.06800
C 	C 	0.05214 0.28590 0.46650 0.09000
C 	C 	0.70632 0.22630 0.28038 0.10200
C 	C 	0.06693 0.20710 0.41019 0.10500
C 	C 	0.67665 0.95310 0.20153 -0.14200
H 	H 	0.69800 0.92500 0.21820 0.08700
C 	C 	0.98407 0.10660 0.43928 0.06800
C 	C 	0.74207 0.10450 0.30350 0.08100
C 	C 	0.69178 0.09390 0.24662 0.10000
C 	C 	0.09236 0.19080 0.37889 0.07300
C 	C 	0.03192 0.39110 0.51996 -0.13100
H 	H 	0.00990 0.35760 0.51870 0.07600
C 	C 	0.65328 0.90860 0.16697 0.08200
H 	H 	0.65970 0.85040 0.16040 -0.01600
C 	C 	0.71582 0.47380 0.30590 0.08000
H 	H 	0.73230 0.51230 0.32450 -0.01500
C 	C 	0.66170 0.45240 0.25260 0.07100
H 	H 	0.64030 0.47570 0.23390 -0.01700
C 	C 	0.09188 0.41530 0.49990 -0.12800
H 	H 	0.11050 0.39930 0.48440 0.08500
C 	C 	0.63440 0.07830 0.18630 -0.13500
H 	H 	0.62700 0.13610 0.19230 0.09900
C 	C 	0.10630 0.12450 0.31390 0.08900
H 	H 	0.09850 0.08940 0.28870 -0.02400
C 	C 	0.82560 0.05700 0.39660 0.10000
H 	H 	0.84060 0.08740 0.42030 -0.01500
C 	C 	0.66760 0.36040 0.25270 -0.13100
H 	H 	0.65060 0.32330 0.23400 0.08900
C 	C 	0.79610 0.10350 0.36940 -0.14900
H 	H 	0.79150 0.16340 0.37490 0.09700
C 	C 	0.09670 0.48910 0.52770 0.07300
H 	H 	0.11910 0.52220 0.53070 -0.01800
C 	C 	0.61290 0.02860 0.15300 0.08400
H 	H 	0.59070 0.05400 0.13670 -0.01200
C 	C 	0.93490 0.01290 0.40080 0.09700
H 	H 	0.92250 0.98710 0.37430 -0.02500
C 	C 	0.96570 0.06540 0.40060 -0.15400
H 	H 	0.97450 0.07370 0.37460 0.09600
C 	C 	0.69918 0.32440 0.28091 0.06600
C 	C 	0.03857 0.46730 0.54584 0.07800
H 	H 	0.01990 0.48580 0.56080 -0.01300
C 	C 	0.96974 0.09350 0.47641 -0.14800
H 	H 	0.98060 0.12200 0.50280 0.08700
C 	C 	0.72364 0.38310 0.30810 -0.13400
H 	H 	0.74510 0.36140 0.32760 0.08500
C 	C 	0.93873 0.03720 0.47410 0.08500
H 	H 	0.92950 0.02710 0.49970 -0.01200
C 	C 	0.12863 0.22890 0.38620 -0.12900
H 	H 	0.13700 0.26560 0.41070 0.09200
C 	C 	0.78224 0.97100 0.32790 -0.14900
H 	H 	0.76760 0.93860 0.30460 0.10200
C 	C 	0.15174 0.21170 0.35710 0.07900
H 	H 	0.17610 0.23620 0.36260 -0.01300
C 	C 	0.08129 0.13600 0.34220 -0.13600
H 	H 	0.05770 0.10760 0.33660 0.09100
C 	C 	0.81220 0.93100 0.35600 0.08800
H 	H 	0.81800 0.87160 0.35090 -0.01200
I 	I 	0.52951 0.84263 0.12990 -0.01600
I 	I 	0.23478 0.23419 0.30082 -0.37800
I 	I 	0.13044 0.17165 0.19880 -0.41300
I 	I 	0.85818 0.91044 0.50890 -0.37000
I 	I 	0.89425 0.76649 0.39455 -0.34900
N 	N 	0.68246 0.17970 0.24954 -0.13400
N 	N 	0.02404 0.22960 0.47040 -0.14700
N 	N 	0.03790 0.15020 0.40859 -0.13300
N 	N 	0.72132 0.05260 0.27210 -0.13900
N 	N 	0.07469 0.27710 0.43724 -0.13400
N 	N 	0.73600 0.19250 0.30911 -0.13800
N 	N 	0.14051 0.16080 0.32083 -0.27900
N 	N 	0.83339 0.97350 0.39052 -0.28400
N 	N 	0.92156 0.99670 0.43685 -0.28300
N 	N 	0.68560 0.50920 0.27840 -0.27600
N 	N 	0.62207 0.94540 0.14276 -0.27600
N 	N 	0.07047 0.51540 0.55042 -0.27600
Zn	Zn	0.17377 0.14505 0.27422 1.16400
Zn	Zn	0.87666 0.90937 0.43401 1.16300
Zn	Zn	0.58375 0.87768 0.09389 1.15500
I 	I 	0.61671 0.75970 0.05650 -0.15000
I 	I 	0.62543 0.77600 0.05660 -0.19400
I 	I 	0.51966 0.86400 0.13038 -0.29400
I 	I 	0.88762 0.76780 0.40810 -0.01800
C 	C 	0.55863 0.13450 0.99583 0.05900
C 	C 	0.27400 0.44000 0.83437 0.06900
C 	C 	0.51749 0.33500 0.93970 0.08400
C 	C 	0.16757 0.45930 0.71090 0.06800
C 	C 	0.55214 0.21410 0.96650 0.09000
C 	C 	0.20632 0.27370 0.78038 0.10200
C 	C 	0.56693 0.29290 0.91019 0.10500
C 	C 	0.17665 0.54690 0.70153 -0.14200
H 	H 	0.19800 0.57500 0.71820 0.08700
C 	C 	0.48407 0.39340 0.93928 0.06800
C 	C 	0.24207 0.39550 0.80350 0.08100
C 	C 	0.19178 0.40610 0.74662 0.10000
C 	C 	0.59236 0.30920 0.87889 0.07300
C 	C 	0.53192 0.10890 0.01996 -0.13100
H 	H 	0.50990 0.14240 0.01870 0.07600
C 	C 	0.15328 0.59140 0.66697 0.08100
H 	H 	0.15970 0.64960 0.66040 -0.01600
C 	C 	0.21582 0.02620 0.80590 0.07900
H 	H 	0.23230 0.98770 0.82450 -0.01500
C 	C 	0.16170 0.04760 0.75260 0.07100
H 	H 	0.14030 0.02430 0.73390 -0.01700
C 	C 	0.59188 0.08470 0.99990 -0.12800
H 	H 	0.61050 0.10070 0.98440 0.08500
C 	C 	0.13440 0.42170 0.68630 -0.13500
H 	H 	0.12700 0.36390 0.69230 0.09900
C 	C 	0.60630 0.37550 0.81390 0.08900
H 	H 	0.59850 0.41060 0.78870 -0.02400
C 	C 	0.32560 0.44300 0.89660 0.10000
H 	H 	0.34060 0.41260 0.92030 -0.01500
C 	C 	0.16760 0.13960 0.75270 -0.13100
H 	H 	0.15060 0.17670 0.73400 0.08900
C 	C 	0.29610 0.39650 0.86940 -0.14900
H 	H 	0.29150 0.33660 0.87490 0.09700
C 	C 	0.59670 0.01090 0.02770 0.07400
H 	H 	0.61910 0.97780 0.03070 -0.01800
C 	C 	0.11290 0.47140 0.65300 0.08400
H 	H 	0.09070 0.44600 0.63670 -0.01200
C 	C 	0.43490 0.48710 0.90080 0.09700
H 	H 	0.42250 0.51290 0.87430 -0.02500
C 	C 	0.46570 0.43460 0.90060 -0.15400
H 	H 	0.47450 0.42630 0.87460 0.09600
C 	C 	0.19918 0.17560 0.78091 0.06500
C 	C 	0.53857 0.03270 0.04584 0.07800
H 	H 	0.51990 0.01420 0.06080 -0.01300
C 	C 	0.46974 0.40650 0.97641 -0.14800
H 	H 	0.48060 0.37800 0.00280 0.08700
C 	C 	0.22364 0.11690 0.80810 -0.13400
H 	H 	0.24510 0.13860 0.82760 0.08500
C 	C 	0.43873 0.46280 0.97410 0.08500
H 	H 	0.42950 0.47290 0.99970 -0.01200
C 	C 	0.62863 0.27110 0.88620 -0.12900
H 	H 	0.63700 0.23440 0.91070 0.09200
C 	C 	0.28224 0.52900 0.82790 -0.14900
H 	H 	0.26760 0.56140 0.80460 0.10200
C 	C 	0.65174 0.28830 0.85710 0.07900
H 	H 	0.67610 0.26380 0.86260 -0.01300
C 	C 	0.58129 0.36400 0.84220 -0.13600
H 	H 	0.55770 0.39240 0.83660 0.09100
C 	C 	0.31220 0.56900 0.85600 0.08800
H 	H 	0.31800 0.62840 0.85090 -0.01200
I 	I 	0.02951 0.65737 0.62990 -0.01600
I 	I 	0.73478 0.26581 0.80082 -0.37800
I 	I 	0.63044 0.32835 0.69880 -0.41300
I 	I 	0.35818 0.58956 0.00890 -0.37000
I 	I 	0.39425 0.73351 0.89455 -0.34900
N 	N 	0.18246 0.32030 0.74954 -0.13400
N 	N 	0.52404 0.27040 0.97040 -0.14700
N 	N 	0.53790 0.34980 0.90859 -0.13300
N 	N 	0.22132 0.44740 0.77210 -0.13900
N 	N 	0.57469 0.22290 0.93724 -0.13400
N 	N 	0.23600 0.30750 0.80911 -0.13800
N 	N 	0.64051 0.33920 0.82083 -0.27900
N 	N 	0.33339 0.52650 0.89052 -0.28400
N 	N 	0.42156 0.50330 0.93685 -0.28300
N 	N 	0.18560 0.99080 0.77840 -0.27500
N 	N 	0.12207 0.55460 0.64276 -0.27600
N 	N 	0.57047 0.98460 0.05042 -0.27600
Zn	Zn	0.67377 0.35495 0.77422 1.16400
Zn	Zn	0.37666 0.59063 0.93401 1.16300
Zn	Zn	0.08375 0.62232 0.59389 1.15500
I 	I 	0.11671 0.74030 0.55650 -0.15000
I 	I 	0.12543 0.72400 0.55660 -0.19400
I 	I 	0.01966 0.63600 0.63038 -0.29400
I 	I 	0.38762 0.73220 0.90810 -0.01800
C 	C 	0.05863 0.63450 0.99583 0.05900
C 	C 	0.77400 0.94000 0.83437 0.07000
C 	C 	0.01749 0.83500 0.93970 0.08400
C 	C 	0.66757 0.95930 0.71090 0.06800
C 	C 	0.05214 0.71410 0.96650 0.09000
C 	C 	0.70632 0.77370 0.78038 0.10200
C 	C 	0.06693 0.79290 0.91019 0.10500
C 	C 	0.67665 0.04690 0.70153 -0.14200
H 	H 	0.69800 0.07500 0.71820 0.08700
C 	C 	0.98407 0.89340 0.93928 0.06800
C 	C 	0.74207 0.89550 0.80350 0.08100
C 	C 	0.69178 0.90610 0.74662 0.10000
C 	C 	0.09236 0.80920 0.87889 0.07300
C 	C 	0.03192 0.60890 0.01996 -0.13100
H 	H 	0.00990 0.64240 0.01870 0.07600
C 	C 	0.65328 0.09140 0.66697 0.08100
H 	H 	0.65970 0.14960 0.66040 -0.01600
C 	C 	0.71582 0.52620 0.80590 0.08000
H 	H 	0.73230 0.48770 0.82450 -0.01500
C 	C 	0.66170 0.54760 0.75260 0.07100
H 	H 	0.64030 0.52430 0.73390 -0.01700
C 	C 	0.09188 0.58470 0.99990 -0.12800
H 	H 	0.11050 0.60070 0.98440 0.08500
C 	C 	0.63440 0.92170 0.68630 -0.13500
H 	H 	0.62700 0.86390 0.69230 0.09900
C 	C 	0.10630 0.87550 0.81390 0.08900
H 	H 	0.09850 0.91060 0.78870 -0.02400
C 	C 	0.82560 0.94300 0.89660 0.10000
H 	H 	0.84060 0.91260 0.92030 -0.01500
C 	C 	0.66760 0.63960 0.75270 -0.13100
H 	H 	0.65060 0.67670 0.73400 0.08900
C 	C 	0.79610 0.89650 0.86940 -0.14900
H 	H 	0.79150 0.83660 0.87490 0.09700
C 	C 	0.09670 0.51090 0.02770 0.07300
H 	H 	0.11910 0.47780 0.03070 -0.01800
C 	C 	0.61290 0.97140 0.65300 0.08300
H 	H 	0.59070 0.94600 0.63670 -0.01200
C 	C 	0.93490 0.98710 0.90080 0.09700
H 	H 	0.92250 0.01290 0.87430 -0.02500
C 	C 	0.96570 0.93460 0.90060 -0.15400
H 	H 	0.97450 0.92630 0.87460 0.09600
C 	C 	0.69918 0.67560 0.78091 0.06600
C 	C 	0.03857 0.53270 0.04584 0.07800
H 	H 	0.01990 0.51420 0.06080 -0.01300
C 	C 	0.96974 0.90650 0.97641 -0.14800
H 	H 	0.98060 0.87800 0.00280 0.08700
C 	C 	0.72364 0.61690 0.80810 -0.13400
H 	H 	0.74510 0.63860 0.82760 0.08500
C 	C 	0.93873 0.96280 0.97410 0.08500
H 	H 	0.92950 0.97290 0.99970 -0.01200
C 	C 	0.12863 0.77110 0.88620 -0.12900
H 	H 	0.13700 0.73440 0.91070 0.09200
C 	C 	0.78224 0.02900 0.82790 -0.15000
H 	H 	0.76760 0.06140 0.80460 0.10200
C 	C 	0.15174 0.78830 0.85710 0.07900
H 	H 	0.17610 0.76380 0.86260 -0.01300
C 	C 	0.08129 0.86400 0.84220 -0.13600
H 	H 	0.05770 0.89240 0.83660 0.09100
C 	C 	0.81220 0.06900 0.85600 0.08800
H 	H 	0.81800 0.12840 0.85090 -0.01200
I 	I 	0.52951 0.15737 0.62990 -0.01600
I 	I 	0.23478 0.76581 0.80082 -0.37800
I 	I 	0.13044 0.82835 0.69880 -0.41300
I 	I 	0.85818 0.08956 0.00890 -0.37000
I 	I 	0.89425 0.23351 0.89455 -0.34900
N 	N 	0.68246 0.82030 0.74954 -0.13400
N 	N 	0.02404 0.77040 0.97040 -0.14700
N 	N 	0.03790 0.84980 0.90859 -0.13300
N 	N 	0.72132 0.94740 0.77210 -0.13900
N 	N 	0.07469 0.72290 0.93724 -0.13400
N 	N 	0.73600 0.80750 0.80911 -0.13800
N 	N 	0.14051 0.83920 0.82083 -0.27900
N 	N 	0.83339 0.02650 0.89052 -0.28400
N 	N 	0.92156 0.00330 0.93685 -0.28300
N 	N 	0.68560 0.49080 0.77840 -0.27600
N 	N 	0.62207 0.05460 0.64276 -0.27600
N 	N 	0.07047 0.48460 0.05042 -0.27600
Zn	Zn	0.17377 0.85495 0.77422 1.16400
Zn	Zn	0.87666 0.09063 0.93401 1.16300
Zn	Zn	0.58375 0.12232 0.59389 1.15500
I 	I 	0.61671 0.24030 0.55650 -0.15000
I 	I 	0.62543 0.22400 0.55660 -0.19400
I 	I 	0.51966 0.13600 0.63038 -0.29400
I 	I 	0.88762 0.23220 0.90810 -0.01800
C 	C 	0.44137 0.86550 0.00417 0.05900
C 	C 	0.72600 0.56000 0.16563 0.06900
C 	C 	0.48251 0.66500 0.06030 0.08400
C 	C 	0.83243 0.54070 0.28910 0.06800
C 	C 	0.44786 0.78590 0.03350 0.09000
C 	C 	0.79368 0.72630 0.21962 0.10200
C 	C 	0.43307 0.70710 0.08981 0.10500
C 	C 	0.82335 0.45310 0.29847 -0.14200
H 	H 	0.80200 0.42500 0.28180 0.08700
C 	C 	0.51593 0.60660 0.06072 0.06800
C 	C 	0.75793 0.60450 0.19650 0.08100
C 	C 	0.80822 0.59390 0.25338 0.10000
C 	C 	0.40764 0.69080 0.12111 0.07300
C 	C 	0.46808 0.89110 0.98004 -0.13100
H 	H 	0.49010 0.85760 0.98130 0.07600
C 	C 	0.84672 0.40860 0.33303 0.08100
H 	H 	0.84030 0.35040 0.33960 -0.01600
C 	C 	0.78418 0.97380 0.19410 0.07900
H 	H 	0.76770 0.01230 0.17550 -0.01500
C 	C 	0.83830 0.95240 0.24740 0.07100
H 	H 	0.85970 0.97570 0.26610 -0.01700
C 	C 	0.40812 0.91530 0.00010 -0.12800
H 	H 	0.38950 0.89930 0.01560 0.08500
C 	C 	0.86560 0.57830 0.31370 -0.13500
H 	H 	0.87300 0.63610 0.30770 0.09900
C 	C 	0.39370 0.62450 0.18610 0.08900
H 	H 	0.40150 0.58940 0.21130 -0.02400
C 	C 	0.67440 0.55700 0.10340 0.10000
H 	H 	0.65940 0.58740 0.07970 -0.01500
C 	C 	0.83240 0.86040 0.24730 -0.13100
H 	H 	0.84940 0.82330 0.26600 0.08900
C 	C 	0.70390 0.60350 0.13060 -0.14900
H 	H 	0.70850 0.66340 0.12510 0.09700
C 	C 	0.40330 0.98910 0.97230 0.07400
H 	H 	0.38090 0.02220 0.96930 -0.01800
C 	C 	0.88710 0.52860 0.34700 0.08400
H 	H 	0.90930 0.55400 0.36330 -0.01200
C 	C 	0.56510 0.51290 0.09920 0.09700
H 	H 	0.57750 0.48710 0.12570 -0.02500
C 	C 	0.53430 0.56540 0.09940 -0.15400
H 	H 	0.52550 0.57370 0.12540 0.09600
C 	C 	0.80082 0.82440 0.21909 0.06500
C 	C 	0.46143 0.96730 0.95416 0.07800
H 	H 	0.48010 0.98580 0.93920 -0.01300
C 	C 	0.53026 0.59350 0.02359 -0.14800
H 	H 	0.51940 0.62200 0.99720 0.08700
C 	C 	0.77636 0.88310 0.19190 -0.13400
H 	H 	0.75490 0.86140 0.17240 0.08500
C 	C 	0.56127 0.53720 0.02590 0.08500
H 	H 	0.57050 0.52710 0.00030 -0.01200
C 	C 	0.37137 0.72890 0.11380 -0.12900
H 	H 	0.36300 0.76560 0.08930 0.09200
C 	C 	0.71776 0.47100 0.17210 -0.14900
H 	H 	0.73240 0.43860 0.19540 0.10200
C 	C 	0.34826 0.71170 0.14290 0.07900
H 	H 	0.32390 0.73620 0.13740 -0.01300
C 	C 	0.41871 0.63600 0.15780 -0.13600
H 	H 	0.44230 0.60760 0.16340 0.09100
C 	C 	0.68780 0.43100 0.14400 0.08800
H 	H 	0.68200 0.37160 0.14910 -0.01200
I 	I 	0.97049 0.34263 0.37010 -0.01600
I 	I 	0.26522 0.73419 0.19918 -0.37800
I 	I 	0.36956 0.67165 0.30120 -0.41300
I 	I 	0.64182 0.41044 0.99110 -0.37000
I 	I 	0.60575 0.26649 0.10545 -0.34900
N 	N 	0.81754 0.67970 0.25046 -0.13400
N 	N 	0.47596 0.72960 0.02960 -0.14700
N 	N 	0.46210 0.65020 0.09141 -0.13300
N 	N 	0.77868 0.55260 0.22790 -0.13900
N 	N 	0.42531 0.77710 0.06276 -0.13400
N 	N 	0.76400 0.69250 0.19089 -0.13800
N 	N 	0.35949 0.66080 0.17917 -0.27900
N 	N 	0.66661 0.47350 0.10948 -0.28400
N 	N 	0.57844 0.49670 0.06315 -0.28300
N 	N 	0.81440 0.00920 0.22160 -0.27500
N 	N 	0.87793 0.44540 0.35724 -0.27600
N 	N 	0.42953 0.01540 0.94958 -0.27600
Zn	Zn	0.32623 0.64505 0.22578 1.16400
Zn	Zn	0.62334 0.40937 0.06599 1.16300
Zn	Zn	0.91625 0.37768 0.40611 1.15500
I 	I 	0.88329 0.25970 0.44350 -0.15000
I 	I 	0.87457 0.27600 0.44340 -0.19400
I 	I 	0.98034 0.36400 0.36962 -0.29400
I 	I 	0.61238 0.26780 0.09190 -0.01800
C 	C 	0.94137 0.36550 0.00417 0.05900
C 	C 	0.22600 0.06000 0.16563 0.07000
C 	C 	0.98251 0.16500 0.06030 0.08400
C 	C 	0.33243 0.04070 0.28910 0.06800
C 	C 	0.94786 0.28590 0.03350 0.09000
C 	C 	0.29368 0.22630 0.21962 0.10200
C 	C 	0.93307 0.20710 0.08981 0.10500
C 	C 	0.32335 0.95310 0.29847 -0.14200
H 	H 	0.30200 0.92500 0.28180 0.08700
C 	C 	0.01593 0.10660 0.06072 0.06800
C 	C 	0.25793 0.10450 0.19650 0.08100
C 	C 	0.30822 0.09390 0.25338 0.10000
C 	C 	0.90764 0.19080 0.12111 0.07300
C 	C 	0.96808 0.39110 0.98004 -0.13100
H 	H 	0.99010 0.35760 0.98130 0.07600
C 	C 	0.34672 0.90860 0.33303 0.08100
H 	H 	0.34030 0.85040 0.33960 -0.01600
C 	C 	0.28418 0.47380 0.19410 0.08000
H 	H 	0.26770 0.51230 0.17550 -0.01500
C 	C 	0.33830 0.45240 0.24740 0.07100
H 	H 	0.35970 0.47570 0.26610 -0.01700
C 	C 	0.90812 0.41530 0.00010 -0.12800
H 	H 	0.88950 0.39930 0.01560 0.08500
C 	C 	0.36560 0.07830 0.31370 -0.13500
H 	H 	0.37300 0.13610 0.30770 0.09900
C 	C 	0.89370 0.12450 0.18610 0.08900
H 	H 	0.90150 0.08940 0.21130 -0.02400
C 	C 	0.17440 0.05700 0.10340 0.10000
H 	H 	0.15940 0.08740 0.07970 -0.01500
C 	C 	0.33240 0.36040 0.24730 -0.13100
H 	H 	0.34940 0.32330 0.26600 0.08900
C 	C 	0.20390 0.10350 0.13060 -0.14900
H 	H 	0.20850 0.16340 0.12510 0.09700
C 	C 	0.90330 0.48910 0.97230 0.07300
H 	H 	0.88090 0.52220 0.96930 -0.01800
C 	C 	0.38710 0.02860 0.34700 0.08300
H 	H 	0.40930 0.05400 0.36330 -0.01200
C 	C 	0.06510 0.01290 0.09920 0.09700
H 	H 	0.07750 0.98710 0.12570 -0.02500
C 	C 	0.03430 0.06540 0.09940 -0.15400
H 	H 	0.02550 0.07370 0.12540 0.09600
C 	C 	0.30082 0.32440 0.21909 0.06600
C 	C 	0.96143 0.46730 0.95416 0.07800
H 	H 	0.98010 0.48580 0.93920 -0.01300
C 	C 	0.03026 0.09350 0.02359 -0.14800
H 	H 	0.01940 0.12200 0.99720 0.08700
C 	C 	0.27636 0.38310 0.19190 -0.13400
H 	H 	0.25490 0.36140 0.17240 0.08500
C 	C 	0.06127 0.03720 0.02590 0.08500
H 	H 	0.07050 0.02710 0.00030 -0.01200
C 	C 	0.87137 0.22890 0.11380 -0.12900
H 	H 	0.86300 0.26560 0.08930 0.09200
C 	C 	0.21776 0.97100 0.17210 -0.15000
H 	H 	0.23240 0.93860 0.19540 0.10200
C 	C 	0.84826 0.21170 0.14290 0.07900
H 	H 	0.82390 0.23620 0.13740 -0.01300
C 	C 	0.91871 0.13600 0.15780 -0.13600
H 	H 	0.94230 0.10760 0.16340 0.09100
C 	C 	0.18780 0.93100 0.14400 0.08800
H 	H 	0.18200 0.87160 0.14910 -0.01200
I 	I 	0.47049 0.84263 0.37010 -0.01600
I 	I 	0.76522 0.23419 0.19918 -0.37800
I 	I 	0.86956 0.17165 0.30120 -0.41300
I 	I 	0.14182 0.91044 0.99110 -0.37000
I 	I 	0.10575 0.76649 0.10545 -0.34900
N 	N 	0.31754 0.17970 0.25046 -0.13400
N 	N 	0.97596 0.22960 0.02960 -0.14700
N 	N 	0.96210 0.15020 0.09141 -0.13300
N 	N 	0.27868 0.05260 0.22790 -0.13900
N 	N 	0.92531 0.27710 0.06276 -0.13400
N 	N 	0.26400 0.19250 0.19089 -0.13800
N 	N 	0.85949 0.16080 0.17917 -0.27900
N 	N 	0.16661 0.97350 0.10948 -0.28400
N 	N 	0.07844 0.99670 0.06315 -0.28300
N 	N 	0.31440 0.50920 0.22160 -0.27600
N 	N 	0.37793 0.94540 0.35724 -0.27600
N 	N 	0.92953 0.51540 0.94958 -0.27600
Zn	Zn	0.82623 0.14505 0.22578 1.16400
Zn	Zn	0.12334 0.90937 0.06599 1.16300
Zn	Zn	0.41625 0.87768 0.40611 1.15500
I 	I 	0.38329 0.75970 0.44350 -0.15000
I 	I 	0.37457 0.77600 0.44340 -0.19400
I 	I 	0.48034 0.86400 0.36962 -0.29400
I 	I 	0.11238 0.76780 0.09190 -0.01800
C 	C 	0.44137 0.13450 0.50417 0.05900
C 	C 	0.72600 0.44000 0.66563 0.06900
C 	C 	0.48251 0.33500 0.56030 0.08400
C 	C 	0.83243 0.45930 0.78910 0.06800
C 	C 	0.44786 0.21410 0.53350 0.09000
C 	C 	0.79368 0.27370 0.71962 0.10200
C 	C 	0.43307 0.29290 0.58981 0.10500
C 	C 	0.82335 0.54690 0.79847 -0.14200
H 	H 	0.80200 0.57500 0.78180 0.08700
C 	C 	0.51593 0.39340 0.56072 0.06800
C 	C 	0.75793 0.39550 0.69650 0.08100
C 	C 	0.80822 0.40610 0.75338 0.10000
C 	C 	0.40764 0.30920 0.62111 0.07300
C 	C 	0.46808 0.10890 0.48004 -0.13100
H 	H 	0.49010 0.14240 0.48130 0.07600
C 	C 	0.84672 0.59140 0.83303 0.08100
H 	H 	0.84030 0.64960 0.83960 -0.01600
C 	C 	0.78418 0.02620 0.69410 0.08000
H 	H 	0.76770 0.98770 0.67550 -0.01500
C 	C 	0.83830 0.04760 0.74740 0.07100
H 	H 	0.85970 0.02430 0.76610 -0.01700
C 	C 	0.40812 0.08470 0.50010 -0.12800
H 	H 	0.38950 0.10070 0.51560 0.08500
C 	C 	0.86560 0.42170 0.81370 -0.13500
H 	H 	0.87300 0.36390 0.80770 0.09900
C 	C 	0.39370 0.37550 0.68610 0.08900
H 	H 	0.40150 0.41060 0.71130 -0.02400
C 	C 	0.67440 0.44300 0.60340 0.10000
H 	H 	0.65940 0.41260 0.57970 -0.01500
C 	C 	0.83240 0.13960 0.74730 -0.13100
H 	H 	0.84940 0.17670 0.76600 0.08900
C 	C 	0.70390 0.39650 0.63060 -0.14900
H 	H 	0.70850 0.33660 0.62510 0.09700
C 	C 	0.40330 0.01090 0.47230 0.07300
H 	H 	0.38090 0.97780 0.46930 -0.01800
C 	C 	0.88710 0.47140 0.84700 0.08400
H 	H 	0.90930 0.44600 0.86330 -0.01200
C 	C 	0.56510 0.48710 0.59920 0.09700
H 	H 	0.57750 0.51290 0.62570 -0.02500
C 	C 	0.53430 0.43460 0.59940 -0.15400
H 	H 	0.52550 0.42630 0.62540 0.09600
C 	C 	0.80082 0.17560 0.71909 0.06500
C 	C 	0.46143 0.03270 0.45416 0.07800
H 	H 	0.48010 0.01420 0.43920 -0.01300
C 	C 	0.53026 0.40650 0.52359 -0.14800
H 	H 	0.51940 0.37800 0.49720 0.08700
C 	C 	0.77636 0.11690 0.69190 -0.13400
H 	H 	0.75490 0.13860 0.67240 0.08500
C 	C 	0.56127 0.46280 0.52590 0.08500
H 	H 	0.57050 0.47290 0.50030 -0.01200
C 	C 	0.37137 0.27110 0.61380 -0.12900
H 	H 	0.36300 0.23440 0.58930 0.09200
C 	C 	0.71776 0.52900 0.67210 -0.14900
H 	H 	0.73240 0.56140 0.69540 0.10200
C 	C 	0.34826 0.28830 0.64290 0.07900
H 	H 	0.32390 0.26380 0.63740 -0.01300
C 	C 	0.41871 0.36400 0.65780 -0.13600
H 	H 	0.44230 0.39240 0.66340 0.09100
C 	C 	0.68780 0.56900 0.64400 0.08800
H 	H 	0.68200 0.62840 0.64910 -0.01200
I 	I 	0.97049 0.65737 0.87010 -0.01600
I 	I 	0.26522 0.26581 0.69918 -0.37800
I 	I 	0.36956 0.32835 0.80120 -0.41300
I 	I 	0.64182 0.58956 0.49110 -0.37000
I 	I 	0.60575 0.73351 0.60545 -0.34900
N 	N 	0.81754 0.32030 0.75046 -0.13400
N 	N 	0.47596 0.27040 0.52960 -0.14700
N 	N 	0.46210 0.34980 0.59141 -0.13300
N 	N 	0.77868 0.44740 0.72790 -0.13900
N 	N 	0.42531 0.22290 0.56276 -0.13400
N 	N 	0.76400 0.30750 0.69089 -0.13800
N 	N 	0.35949 0.33920 0.67917 -0.27900
N 	N 	0.66661 0.52650 0.60948 -0.28400
N 	N 	0.57844 0.50330 0.56315 -0.28300
N 	N 	0.81440 0.99080 0.72160 -0.27600
N 	N 	0.87793 0.55460 0.85724 -0.27600
N 	N 	0.42953 0.98460 0.44958 -0.27600
Zn	Zn	0.32623 0.35495 0.72578 1.16400
Zn	Zn	0.62334 0.59063 0.56599 1.16300
Zn	Zn	0.91625 0.62232 0.90611 1.15500
I 	I 	0.88329 0.74030 0.94350 -0.15000
I 	I 	0.87457 0.72400 0.94340 -0.19400
I 	I 	0.98034 0.63600 0.86962 -0.29400
I 	I 	0.61238 0.73220 0.59190 -0.01800
C 	C 	0.94137 0.63450 0.50417 0.05900
C 	C 	0.22600 0.94000 0.66563 0.07000
C 	C 	0.98251 0.83500 0.56030 0.08400
C 	C 	0.33243 0.95930 0.78910 0.06800
C 	C 	0.94786 0.71410 0.53350 0.09000
C 	C 	0.29368 0.77370 0.71962 0.10200
C 	C 	0.93307 0.79290 0.58981 0.10500
C 	C 	0.32335 0.04690 0.79847 -0.14200
H 	H 	0.30200 0.07500 0.78180 0.08700
C 	C 	0.01593 0.89340 0.56072 0.06800
C 	C 	0.25793 0.89550 0.69650 0.08100
C 	C 	0.30822 0.90610 0.75338 0.10000
C 	C 	0.90764 0.80920 0.62111 0.07300
C 	C 	0.96808 0.60890 0.48004 -0.13100
H 	H 	0.99010 0.64240 0.48130 0.07600
C 	C 	0.34672 0.09140 0.83303 0.08200
H 	H 	0.34030 0.14960 0.83960 -0.01600
C 	C 	0.28418 0.52620 0.69410 0.08000
H 	H 	0.26770 0.48770 0.67550 -0.01500
C 	C 	0.33830 0.54760 0.74740 0.07100
H 	H 	0.35970 0.52430 0.76610 -0.01700
C 	C 	0.90812 0.58470 0.50010 -0.12800
H 	H 	0.88950 0.60070 0.51560 0.08500
C 	C 	0.36560 0.92170 0.81370 -0.13500
H 	H 	0.37300 0.86390 0.80770 0.09900
C 	C 	0.89370 0.87550 0.68610 0.08900
H 	H 	0.90150 0.91060 0.71130 -0.02400
C 	C 	0.17440 0.94300 0.60340 0.10000
H 	H 	0.15940 0.91260 0.57970 -0.01500
C 	C 	0.33240 0.63960 0.74730 -0.13100
H 	H 	0.34940 0.67670 0.76600 0.08900
C 	C 	0.20390 0.89650 0.63060 -0.14900
H 	H 	0.20850 0.83660 0.62510 0.09700
C 	C 	0.90330 0.51090 0.47230 0.07300
H 	H 	0.88090 0.47780 0.46930 -0.01800
C 	C 	0.38710 0.97140 0.84700 0.08400
H 	H 	0.40930 0.94600 0.86330 -0.01200
C 	C 	0.06510 0.98710 0.59920 0.09700
H 	H 	0.07750 0.01290 0.62570 -0.02500
C 	C 	0.03430 0.93460 0.59940 -0.15400
H 	H 	0.02550 0.92630 0.62540 0.09600
C 	C 	0.30082 0.67560 0.71909 0.06600
C 	C 	0.96143 0.53270 0.45416 0.07800
H 	H 	0.98010 0.51420 0.43920 -0.01300
C 	C 	0.03026 0.90650 0.52359 -0.14800
H 	H 	0.01940 0.87800 0.49720 0.08700
C 	C 	0.27636 0.61690 0.69190 -0.13400
H 	H 	0.25490 0.63860 0.67240 0.08500
C 	C 	0.06127 0.96280 0.52590 0.08500
H 	H 	0.07050 0.97290 0.50030 -0.01200
C 	C 	0.87137 0.77110 0.61380 -0.12900
H 	H 	0.86300 0.73440 0.58930 0.09200
C 	C 	0.21776 0.02900 0.67210 -0.14900
H 	H 	0.23240 0.06140 0.69540 0.10200
C 	C 	0.84826 0.78830 0.64290 0.07900
H 	H 	0.82390 0.76380 0.63740 -0.01300
C 	C 	0.91871 0.86400 0.65780 -0.13600
H 	H 	0.94230 0.89240 0.66340 0.09100
C 	C 	0.18780 0.06900 0.64400 0.08800
H 	H 	0.18200 0.12840 0.64910 -0.01200
I 	I 	0.47049 0.15737 0.87010 -0.01600
I 	I 	0.76522 0.76581 0.69918 -0.37800
I 	I 	0.86956 0.82835 0.80120 -0.41300
I 	I 	0.14182 0.08956 0.49110 -0.37000
I 	I 	0.10575 0.23351 0.60545 -0.34900
N 	N 	0.31754 0.82030 0.75046 -0.13400
N 	N 	0.97596 0.77040 0.52960 -0.14700
N 	N 	0.96210 0.84980 0.59141 -0.13300
N 	N 	0.27868 0.94740 0.72790 -0.13900
N 	N 	0.92531 0.72290 0.56276 -0.13400
N 	N 	0.26400 0.80750 0.69089 -0.13800
N 	N 	0.85949 0.83920 0.67917 -0.27900
N 	N 	0.16661 0.02650 0.60948 -0.28400
N 	N 	0.07844 0.00330 0.56315 -0.28300
N 	N 	0.31440 0.49080 0.72160 -0.27600
N 	N 	0.37793 0.05460 0.85724 -0.27600
N 	N 	0.92953 0.48460 0.44958 -0.27600
Zn	Zn	0.82623 0.85495 0.72578 1.16400
Zn	Zn	0.12334 0.09063 0.56599 1.16300
Zn	Zn	0.41625 0.12232 0.90611 1.15500
I 	I 	0.38329 0.24030 0.94350 -0.15000
I 	I 	0.37457 0.22400 0.94340 -0.19400
I 	I 	0.48034 0.13600 0.86962 -0.29400
I 	I 	0.11238 0.23220 0.59190 -0.01800
