data_crystal

_cell_length_a 35.05020
_cell_length_b 15.05030
_cell_length_c 31.37520
_cell_angle_alpha 90.00000
_cell_angle_beta  102.53100
_cell_angle_gamma 90.00000

_symmetry_space_group_name_	'P 1'
_symmetry_space_group_name_H-M	'P 1'

loop_
_symmetry_equiv_pos_as_xyz
  x,y,z

loop_
_atom_site_label
_atom_site_type_symbol
_atom_site_fract_x
_atom_site_fract_y
_atom_site_fract_z
_atom_site_charge
I 	I 	0.23856 0.73420 0.30440 0.00300
I 	I 	0.13202 0.67660 0.20148 -0.42700
I 	I 	0.35273 0.92664 0.50997 -0.36900
I 	I 	0.61501 0.73452 0.56319 0.02600
I 	I 	0.52031 0.63713 0.62901 -0.46400
I 	I 	0.38912 0.76605 0.40531 -0.47000
Zn	Zn	0.17717 0.64842 0.27826 1.15200
Zn	Zn	0.37387 0.91323 0.43790 1.16300
Zn	Zn	0.58092 0.61441 0.59415 1.15300
N 	N 	0.18793 0.51290 0.28026 -0.27900
N 	N 	0.56837 0.51310 0.54874 -0.27600
N 	N 	0.33186 0.97720 0.39202 -0.27500
N 	N 	0.21984 0.06040 0.27161 -0.14300
N 	N 	0.18089 0.18790 0.24916 -0.13300
N 	N 	0.11961 0.95550 0.14173 -0.27400
N 	N 	0.23640 0.19810 0.30793 -0.14100
N 	N 	0.42139 0.99540 0.44085 -0.28400
N 	N 	0.64339 0.16300 0.32423 -0.28400
N 	N 	0.57743 0.27400 0.43997 -0.13500
N 	N 	0.52485 0.22820 0.47112 -0.14800
C 	C 	0.24127 0.11120 0.30271 0.08400
C 	C 	0.27307 0.06520 0.33390 0.05500
N 	N 	0.53984 0.14820 0.41134 -0.13200
C 	C 	0.19970 0.33010 0.28091 0.06500
C 	C 	0.16220 0.45900 0.25460 0.07000
H 	H 	0.14030 0.48410 0.23650 -0.01500
C 	C 	0.20624 0.23260 0.27961 0.09800
C 	C 	0.16513 0.05040 0.21008 0.06900
C 	C 	0.11150 0.03980 0.14960 0.08600
H 	H 	0.08980 0.06620 0.13180 -0.00700
C 	C 	0.55869 0.36360 0.49571 0.05800
C 	C 	0.65572 0.21040 0.36070 0.08300
H 	H 	0.68090 0.23370 0.36630 -0.01800
C 	C 	0.17376 0.96240 0.20228 -0.13800
H 	H 	0.19510 0.93420 0.21990 0.08000
C 	C 	0.55360 0.28380 0.46756 0.09200
C 	C 	0.56965 0.20450 0.41328 0.10200
C 	C 	0.51890 0.16320 0.44174 0.08300
C 	C 	0.31192 0.93610 0.35637 0.07300
H 	H 	0.31830 0.87760 0.35120 -0.00200
C 	C 	0.53079 0.38590 0.51950 -0.12300
H 	H 	0.50850 0.35130 0.51780 0.07300
C 	C 	0.21900 0.47620 0.30630 0.08000
H 	H 	0.23670 0.51300 0.32450 -0.01600
C 	C 	0.13353 0.08980 0.18280 -0.13300
H 	H 	0.12720 0.14880 0.18680 0.10200
C 	C 	0.48559 0.10360 0.44170 0.07100
C 	C 	0.29440 0.10800 0.37054 -0.12900
H 	H 	0.28930 0.16710 0.37610 0.09400
C 	C 	0.59556 0.18950 0.38226 0.08000
C 	C 	0.28204 0.97750 0.32667 -0.13200
H 	H 	0.26830 0.94700 0.30240 0.09000
C 	C 	0.43740 0.04200 0.47520 0.10000
H 	H 	0.42710 0.03720 0.50000 -0.01800
C 	C 	0.15042 0.91790 0.16823 0.07800
H 	H 	0.15630 0.85910 0.16330 -0.01400
C 	C 	0.58350 0.13800 0.34540 -0.14000
H 	H 	0.55900 0.11100 0.33980 0.09300
C 	C 	0.16683 0.36770 0.25390 -0.13100
H 	H 	0.14840 0.33220 0.23590 0.09000
C 	C 	0.53691 0.46070 0.54577 0.07000
H 	H 	0.51850 0.47530 0.56200 -0.00900
C 	C 	0.32323 0.06180 0.39860 0.07900
H 	H 	0.33730 0.09070 0.42330 -0.00500
C 	C 	0.59048 0.41920 0.49810 -0.12800
H 	H 	0.60920 0.40690 0.48200 0.08700
C 	C 	0.63240 0.22590 0.39000 -0.13600
H 	H 	0.64140 0.26040 0.41470 0.09300
C 	C 	0.22598 0.38550 0.30750 -0.13800
H 	H 	0.24810 0.36230 0.32600 0.08700
C 	C 	0.59410 0.49260 0.52460 0.07700
H 	H 	0.61550 0.52980 0.52570 -0.01400
C 	C 	0.60820 0.12720 0.31700 0.09200
H 	H 	0.59980 0.09350 0.29190 -0.02500
C 	C 	0.46880 0.09760 0.47664 -0.16000
H 	H 	0.47850 0.13110 0.50150 0.09100
C 	C 	0.43500 0.00990 0.40480 0.08700
H 	H 	0.42290 0.98050 0.37940 -0.02000
C 	C 	0.46600 0.06560 0.40280 -0.14800
H 	H 	0.47330 0.07710 0.37660 0.09500
C 	C 	0.18975 0.10240 0.24602 0.09600
I 	I 	0.52944 0.66560 0.62076 0.10600
I 	I 	0.63116 0.72197 0.56101 -0.36700
I 	I 	0.14555 0.69240 0.21061 0.02500
I 	I 	0.37470 0.75970 0.42100 0.08800
I 	I 	0.24940 0.72960 0.31680 -0.33000
I 	I 	0.73856 0.23420 0.30440 0.00400
I 	I 	0.63202 0.17660 0.20148 -0.42600
I 	I 	0.85273 0.42664 0.50997 -0.36800
I 	I 	0.11501 0.23452 0.56319 0.02700
I 	I 	0.02031 0.13713 0.62901 -0.46300
I 	I 	0.88912 0.26605 0.40531 -0.46800
Zn	Zn	0.67717 0.14842 0.27826 1.15300
Zn	Zn	0.87387 0.41323 0.43790 1.16400
Zn	Zn	0.08092 0.11441 0.59415 1.15400
N 	N 	0.68793 0.01290 0.28026 -0.27700
N 	N 	0.06837 0.01310 0.54874 -0.27600
N 	N 	0.83186 0.47720 0.39202 -0.27500
N 	N 	0.71984 0.56040 0.27161 -0.14300
N 	N 	0.68089 0.68790 0.24916 -0.13300
N 	N 	0.61961 0.45550 0.14173 -0.27400
N 	N 	0.73640 0.69810 0.30793 -0.14100
N 	N 	0.92139 0.49540 0.44085 -0.28400
N 	N 	0.14339 0.66300 0.32423 -0.28400
N 	N 	0.07743 0.77400 0.43997 -0.13500
N 	N 	0.02485 0.72820 0.47112 -0.14800
C 	C 	0.74127 0.61120 0.30271 0.08400
C 	C 	0.77307 0.56520 0.33390 0.05500
N 	N 	0.03984 0.64820 0.41134 -0.13200
C 	C 	0.69970 0.83010 0.28091 0.06500
C 	C 	0.66220 0.95900 0.25460 0.07000
H 	H 	0.64030 0.98410 0.23650 -0.01500
C 	C 	0.70624 0.73260 0.27961 0.09800
C 	C 	0.66513 0.55040 0.21008 0.06900
C 	C 	0.61150 0.53980 0.14960 0.08600
H 	H 	0.58980 0.56620 0.13180 -0.00700
C 	C 	0.05869 0.86360 0.49571 0.05800
C 	C 	0.15572 0.71040 0.36070 0.08300
H 	H 	0.18090 0.73370 0.36630 -0.01800
C 	C 	0.67376 0.46240 0.20228 -0.13800
H 	H 	0.69510 0.43420 0.21990 0.08000
C 	C 	0.05360 0.78380 0.46756 0.09200
C 	C 	0.06965 0.70450 0.41328 0.10200
C 	C 	0.01890 0.66320 0.44174 0.08300
C 	C 	0.81192 0.43610 0.35637 0.07300
H 	H 	0.81830 0.37760 0.35120 -0.00200
C 	C 	0.03079 0.88590 0.51950 -0.12300
H 	H 	0.00850 0.85130 0.51780 0.07300
C 	C 	0.71900 0.97620 0.30630 0.08000
H 	H 	0.73670 0.01300 0.32450 -0.01600
C 	C 	0.63353 0.58980 0.18280 -0.13300
H 	H 	0.62720 0.64880 0.18680 0.10200
C 	C 	0.98559 0.60360 0.44170 0.07100
C 	C 	0.79440 0.60800 0.37054 -0.12900
H 	H 	0.78930 0.66710 0.37610 0.09400
C 	C 	0.09556 0.68950 0.38226 0.08000
C 	C 	0.78204 0.47750 0.32667 -0.13200
H 	H 	0.76830 0.44700 0.30240 0.09000
C 	C 	0.93740 0.54200 0.47520 0.10000
H 	H 	0.92710 0.53720 0.50000 -0.01800
C 	C 	0.65042 0.41790 0.16823 0.07800
H 	H 	0.65630 0.35910 0.16330 -0.01400
C 	C 	0.08350 0.63800 0.34540 -0.14000
H 	H 	0.05900 0.61100 0.33980 0.09300
C 	C 	0.66683 0.86770 0.25390 -0.13100
H 	H 	0.64840 0.83220 0.23590 0.09000
C 	C 	0.03691 0.96070 0.54577 0.07000
H 	H 	0.01850 0.97530 0.56200 -0.00900
C 	C 	0.82323 0.56180 0.39860 0.07900
H 	H 	0.83730 0.59070 0.42330 -0.00500
C 	C 	0.09048 0.91920 0.49810 -0.12800
H 	H 	0.10920 0.90690 0.48200 0.08700
C 	C 	0.13240 0.72590 0.39000 -0.13600
H 	H 	0.14140 0.76040 0.41470 0.09300
C 	C 	0.72598 0.88550 0.30750 -0.13800
H 	H 	0.74810 0.86230 0.32600 0.08700
C 	C 	0.09410 0.99260 0.52460 0.07700
H 	H 	0.11550 0.02980 0.52570 -0.01500
C 	C 	0.10820 0.62720 0.31700 0.09200
H 	H 	0.09980 0.59350 0.29190 -0.02500
C 	C 	0.96880 0.59760 0.47664 -0.16000
H 	H 	0.97850 0.63110 0.50150 0.09100
C 	C 	0.93500 0.50990 0.40480 0.08700
H 	H 	0.92290 0.48050 0.37940 -0.02000
C 	C 	0.96600 0.56560 0.40280 -0.14800
H 	H 	0.97330 0.57710 0.37660 0.09500
C 	C 	0.68975 0.60240 0.24602 0.09600
I 	I 	0.02944 0.16560 0.62076 0.10600
I 	I 	0.13116 0.22197 0.56101 -0.36700
I 	I 	0.64555 0.19240 0.21061 0.02500
I 	I 	0.87470 0.25970 0.42100 0.08800
I 	I 	0.74940 0.22960 0.31680 -0.33000
I 	I 	0.23856 0.26580 0.80440 0.00400
I 	I 	0.13202 0.32340 0.70148 -0.42600
I 	I 	0.35273 0.07336 0.00997 -0.36800
I 	I 	0.61501 0.26548 0.06319 0.02700
I 	I 	0.52031 0.36287 0.12901 -0.46300
I 	I 	0.38912 0.23395 0.90531 -0.46900
Zn	Zn	0.17717 0.35158 0.77826 1.15300
Zn	Zn	0.37387 0.08677 0.93790 1.16400
Zn	Zn	0.58092 0.38559 0.09415 1.15400
N 	N 	0.18793 0.48710 0.78026 -0.27800
N 	N 	0.56837 0.48690 0.04874 -0.27600
N 	N 	0.33186 0.02280 0.89202 -0.27500
N 	N 	0.21984 0.93960 0.77161 -0.14300
N 	N 	0.18089 0.81210 0.74916 -0.13300
N 	N 	0.11961 0.04450 0.64173 -0.27400
N 	N 	0.23640 0.80190 0.80793 -0.14100
N 	N 	0.42139 0.00460 0.94085 -0.28400
N 	N 	0.64339 0.83700 0.82423 -0.28400
N 	N 	0.57743 0.72600 0.93997 -0.13500
N 	N 	0.52485 0.77180 0.97112 -0.14800
C 	C 	0.24127 0.88880 0.80271 0.08400
C 	C 	0.27307 0.93480 0.83390 0.05500
N 	N 	0.53984 0.85180 0.91134 -0.13200
C 	C 	0.19970 0.66990 0.78091 0.06500
C 	C 	0.16220 0.54100 0.75460 0.07000
H 	H 	0.14030 0.51590 0.73650 -0.01500
C 	C 	0.20624 0.76740 0.77961 0.09800
C 	C 	0.16513 0.94960 0.71008 0.06900
C 	C 	0.11150 0.96020 0.64960 0.08600
H 	H 	0.08980 0.93380 0.63180 -0.00700
C 	C 	0.55869 0.63640 0.99571 0.05800
C 	C 	0.65572 0.78960 0.86070 0.08300
H 	H 	0.68090 0.76630 0.86630 -0.01800
C 	C 	0.17376 0.03760 0.70228 -0.13800
H 	H 	0.19510 0.06580 0.71990 0.08000
C 	C 	0.55360 0.71620 0.96756 0.09200
C 	C 	0.56965 0.79550 0.91328 0.10200
C 	C 	0.51890 0.83680 0.94174 0.08200
C 	C 	0.31192 0.06390 0.85637 0.07300
H 	H 	0.31830 0.12240 0.85120 -0.00200
C 	C 	0.53079 0.61410 0.01950 -0.12200
H 	H 	0.50850 0.64870 0.01780 0.07200
C 	C 	0.21900 0.52380 0.80630 0.08000
H 	H 	0.23670 0.48700 0.82450 -0.01600
C 	C 	0.13353 0.91020 0.68280 -0.13300
H 	H 	0.12720 0.85120 0.68680 0.10200
C 	C 	0.48559 0.89640 0.94170 0.07100
C 	C 	0.29440 0.89200 0.87054 -0.12900
H 	H 	0.28930 0.83290 0.87610 0.09400
C 	C 	0.59556 0.81050 0.88226 0.08000
C 	C 	0.28204 0.02250 0.82667 -0.13200
H 	H 	0.26830 0.05300 0.80240 0.09000
C 	C 	0.43740 0.95800 0.97520 0.10000
H 	H 	0.42710 0.96280 -0.00000 -0.01800
C 	C 	0.15042 0.08210 0.66823 0.07800
H 	H 	0.15630 0.14090 0.66330 -0.01400
C 	C 	0.58350 0.86200 0.84540 -0.14000
H 	H 	0.55900 0.88900 0.83980 0.09300
C 	C 	0.16683 0.63230 0.75390 -0.13100
H 	H 	0.14840 0.66780 0.73590 0.09000
C 	C 	0.53691 0.53930 0.04577 0.07000
H 	H 	0.51850 0.52470 0.06200 -0.00900
C 	C 	0.32323 0.93820 0.89860 0.07900
H 	H 	0.33730 0.90930 0.92330 -0.00500
C 	C 	0.59048 0.58080 0.99810 -0.12900
H 	H 	0.60920 0.59310 0.98200 0.08700
C 	C 	0.63240 0.77410 0.89000 -0.13600
H 	H 	0.64140 0.73960 0.91470 0.09300
C 	C 	0.22598 0.61450 0.80750 -0.13800
H 	H 	0.24810 0.63770 0.82600 0.08700
C 	C 	0.59410 0.50740 0.02460 0.07700
H 	H 	0.61550 0.47020 0.02570 -0.01500
C 	C 	0.60820 0.87280 0.81700 0.09200
H 	H 	0.59980 0.90650 0.79190 -0.02500
C 	C 	0.46880 0.90240 0.97664 -0.16000
H 	H 	0.47850 0.86890 0.00150 0.09100
C 	C 	0.43500 0.99010 0.90480 0.08800
H 	H 	0.42290 0.01950 0.87940 -0.02000
C 	C 	0.46600 0.93440 0.90280 -0.14800
H 	H 	0.47330 0.92290 0.87660 0.09500
C 	C 	0.18975 0.89760 0.74602 0.09600
I 	I 	0.52944 0.33440 0.12076 0.10600
I 	I 	0.63116 0.27803 0.06101 -0.36700
I 	I 	0.14555 0.30760 0.71061 0.02500
I 	I 	0.37470 0.24030 0.92100 0.08900
I 	I 	0.24940 0.27040 0.81680 -0.33000
I 	I 	0.73856 0.76580 0.80440 0.00400
I 	I 	0.63202 0.82340 0.70148 -0.42600
I 	I 	0.85273 0.57336 0.00997 -0.36800
I 	I 	0.11501 0.76548 0.06319 0.02700
I 	I 	0.02031 0.86287 0.12901 -0.46300
I 	I 	0.88912 0.73395 0.90531 -0.46900
Zn	Zn	0.67717 0.85158 0.77826 1.15300
Zn	Zn	0.87387 0.58677 0.93790 1.16400
Zn	Zn	0.08092 0.88559 0.09415 1.15400
N 	N 	0.68793 0.98710 0.78026 -0.27700
N 	N 	0.06837 0.98690 0.04874 -0.27600
N 	N 	0.83186 0.52280 0.89202 -0.27500
N 	N 	0.71984 0.43960 0.77161 -0.14300
N 	N 	0.68089 0.31210 0.74916 -0.13300
N 	N 	0.61961 0.54450 0.64173 -0.27400
N 	N 	0.73640 0.30190 0.80793 -0.14100
N 	N 	0.92139 0.50460 0.94085 -0.28400
N 	N 	0.14339 0.33700 0.82423 -0.28400
N 	N 	0.07743 0.22600 0.93997 -0.13500
N 	N 	0.02485 0.27180 0.97112 -0.14800
C 	C 	0.74127 0.38880 0.80271 0.08400
C 	C 	0.77307 0.43480 0.83390 0.05500
N 	N 	0.03984 0.35180 0.91134 -0.13200
C 	C 	0.69970 0.16990 0.78091 0.06500
C 	C 	0.66220 0.04100 0.75460 0.07000
H 	H 	0.64030 0.01590 0.73650 -0.01500
C 	C 	0.70624 0.26740 0.77961 0.09800
C 	C 	0.66513 0.44960 0.71008 0.06900
C 	C 	0.61150 0.46020 0.64960 0.08600
H 	H 	0.58980 0.43380 0.63180 -0.00700
C 	C 	0.05869 0.13640 0.99571 0.05800
C 	C 	0.15572 0.28960 0.86070 0.08300
H 	H 	0.18090 0.26630 0.86630 -0.01800
C 	C 	0.67376 0.53760 0.70228 -0.13800
H 	H 	0.69510 0.56580 0.71990 0.08000
C 	C 	0.05360 0.21620 0.96756 0.09200
C 	C 	0.06965 0.29550 0.91328 0.10200
C 	C 	0.01890 0.33680 0.94174 0.08200
C 	C 	0.81192 0.56390 0.85637 0.07300
H 	H 	0.81830 0.62240 0.85120 -0.00200
C 	C 	0.03079 0.11410 0.01950 -0.12200
H 	H 	0.00850 0.14870 0.01780 0.07300
C 	C 	0.71900 0.02380 0.80630 0.08000
H 	H 	0.73670 0.98700 0.82450 -0.01600
C 	C 	0.63353 0.41020 0.68280 -0.13300
H 	H 	0.62720 0.35120 0.68680 0.10200
C 	C 	0.98559 0.39640 0.94170 0.07100
C 	C 	0.79440 0.39200 0.87054 -0.12900
H 	H 	0.78930 0.33290 0.87610 0.09400
C 	C 	0.09556 0.31050 0.88226 0.08000
C 	C 	0.78204 0.52250 0.82667 -0.13200
H 	H 	0.76830 0.55300 0.80240 0.09000
C 	C 	0.93740 0.45800 0.97520 0.10000
H 	H 	0.92710 0.46280 -0.00000 -0.01700
C 	C 	0.65042 0.58210 0.66823 0.07800
H 	H 	0.65630 0.64090 0.66330 -0.01400
C 	C 	0.08350 0.36200 0.84540 -0.14000
H 	H 	0.05900 0.38900 0.83980 0.09300
C 	C 	0.66683 0.13230 0.75390 -0.13000
H 	H 	0.64840 0.16780 0.73590 0.09000
C 	C 	0.03691 0.03930 0.04577 0.07000
H 	H 	0.01850 0.02470 0.06200 -0.00900
C 	C 	0.82323 0.43820 0.89860 0.07900
H 	H 	0.83730 0.40930 0.92330 -0.00500
C 	C 	0.09048 0.08080 0.99810 -0.12900
H 	H 	0.10920 0.09310 0.98200 0.08700
C 	C 	0.13240 0.27410 0.89000 -0.13600
H 	H 	0.14140 0.23960 0.91470 0.09300
C 	C 	0.72598 0.11450 0.80750 -0.13800
H 	H 	0.74810 0.13770 0.82600 0.08700
C 	C 	0.09410 0.00740 0.02460 0.07800
H 	H 	0.11550 0.97020 0.02570 -0.01500
C 	C 	0.10820 0.37280 0.81700 0.09200
H 	H 	0.09980 0.40650 0.79190 -0.02500
C 	C 	0.96880 0.40240 0.97664 -0.16000
H 	H 	0.97850 0.36890 0.00150 0.09100
C 	C 	0.93500 0.49010 0.90480 0.08700
H 	H 	0.92290 0.51950 0.87940 -0.02000
C 	C 	0.96600 0.43440 0.90280 -0.14800
H 	H 	0.97330 0.42290 0.87660 0.09500
C 	C 	0.68975 0.39760 0.74602 0.09600
I 	I 	0.02944 0.83440 0.12076 0.10600
I 	I 	0.13116 0.77803 0.06101 -0.36700
I 	I 	0.64555 0.80760 0.71061 0.02500
I 	I 	0.87470 0.74030 0.92100 0.08800
I 	I 	0.74940 0.77040 0.81680 -0.33000
I 	I 	0.76144 0.73420 0.19560 0.00400
I 	I 	0.86798 0.67660 0.29852 -0.42600
I 	I 	0.64727 0.92664 0.99003 -0.36800
I 	I 	0.38499 0.73452 0.93681 0.02700
I 	I 	0.47969 0.63713 0.87099 -0.46300
I 	I 	0.61088 0.76605 0.09469 -0.46800
Zn	Zn	0.82283 0.64842 0.22174 1.15300
Zn	Zn	0.62613 0.91323 0.06210 1.16400
Zn	Zn	0.41908 0.61441 0.90585 1.15400
N 	N 	0.81207 0.51290 0.21974 -0.27700
N 	N 	0.43163 0.51310 0.95126 -0.27600
N 	N 	0.66814 0.97720 0.10798 -0.27500
N 	N 	0.78016 0.06040 0.22839 -0.14300
N 	N 	0.81911 0.18790 0.25084 -0.13300
N 	N 	0.88039 0.95550 0.35827 -0.27400
N 	N 	0.76360 0.19810 0.19207 -0.14100
N 	N 	0.57861 0.99540 0.05915 -0.28400
N 	N 	0.35661 0.16300 0.17577 -0.28400
N 	N 	0.42257 0.27400 0.06003 -0.13500
N 	N 	0.47515 0.22820 0.02888 -0.14800
C 	C 	0.75873 0.11120 0.19729 0.08400
C 	C 	0.72693 0.06520 0.16610 0.05500
N 	N 	0.46016 0.14820 0.08866 -0.13200
C 	C 	0.80030 0.33010 0.21909 0.06500
C 	C 	0.83780 0.45900 0.24540 0.07000
H 	H 	0.85970 0.48410 0.26350 -0.01500
C 	C 	0.79376 0.23260 0.22039 0.09800
C 	C 	0.83487 0.05040 0.28992 0.06900
C 	C 	0.88850 0.03980 0.35040 0.08600
H 	H 	0.91020 0.06620 0.36820 -0.00700
C 	C 	0.44131 0.36360 0.00429 0.05900
C 	C 	0.34428 0.21040 0.13930 0.08300
H 	H 	0.31910 0.23370 0.13370 -0.01800
C 	C 	0.82624 0.96240 0.29772 -0.13800
H 	H 	0.80490 0.93420 0.28010 0.08000
C 	C 	0.44640 0.28380 0.03244 0.09200
C 	C 	0.43035 0.20450 0.08672 0.10200
C 	C 	0.48110 0.16320 0.05826 0.08300
C 	C 	0.68808 0.93610 0.14363 0.07300
H 	H 	0.68170 0.87760 0.14880 -0.00200
C 	C 	0.46921 0.38590 0.98050 -0.12300
H 	H 	0.49150 0.35130 0.98220 0.07300
C 	C 	0.78100 0.47620 0.19370 0.08000
H 	H 	0.76330 0.51300 0.17550 -0.01600
C 	C 	0.86647 0.08980 0.31720 -0.13300
H 	H 	0.87280 0.14880 0.31320 0.10200
C 	C 	0.51441 0.10360 0.05830 0.07000
C 	C 	0.70560 0.10800 0.12946 -0.12900
H 	H 	0.71070 0.16710 0.12390 0.09500
C 	C 	0.40444 0.18950 0.11774 0.08000
C 	C 	0.71796 0.97750 0.17333 -0.13200
H 	H 	0.73170 0.94700 0.19760 0.09000
C 	C 	0.56260 0.04200 0.02480 0.10000
H 	H 	0.57290 0.03720 -0.00000 -0.01700
C 	C 	0.84958 0.91790 0.33177 0.07800
H 	H 	0.84370 0.85910 0.33670 -0.01400
C 	C 	0.41650 0.13800 0.15460 -0.14000
H 	H 	0.44100 0.11100 0.16020 0.09300
C 	C 	0.83317 0.36770 0.24610 -0.13100
H 	H 	0.85160 0.33220 0.26410 0.09000
C 	C 	0.46309 0.46070 0.95423 0.07000
H 	H 	0.48150 0.47530 0.93800 -0.00900
C 	C 	0.67677 0.06180 0.10140 0.07900
H 	H 	0.66270 0.09070 0.07670 -0.00500
C 	C 	0.40952 0.41920 0.00190 -0.12700
H 	H 	0.39080 0.40690 0.01800 0.08700
C 	C 	0.36760 0.22590 0.11000 -0.13600
H 	H 	0.35860 0.26040 0.08530 0.09300
C 	C 	0.77402 0.38550 0.19250 -0.13800
H 	H 	0.75190 0.36230 0.17400 0.08700
C 	C 	0.40590 0.49260 0.97540 0.07600
H 	H 	0.38450 0.52980 0.97430 -0.01400
C 	C 	0.39180 0.12720 0.18300 0.09200
H 	H 	0.40020 0.09350 0.20810 -0.02500
C 	C 	0.53120 0.09760 0.02336 -0.15800
H 	H 	0.52150 0.13110 0.99850 0.09000
C 	C 	0.56500 0.00990 0.09520 0.08700
H 	H 	0.57710 0.98050 0.12060 -0.02000
C 	C 	0.53400 0.06560 0.09720 -0.14800
H 	H 	0.52670 0.07710 0.12340 0.09500
C 	C 	0.81025 0.10240 0.25398 0.09600
I 	I 	0.47056 0.66560 0.87924 0.10600
I 	I 	0.36884 0.72197 0.93899 -0.36700
I 	I 	0.85445 0.69240 0.28939 0.02500
I 	I 	0.62530 0.75970 0.07900 0.08800
I 	I 	0.75060 0.72960 0.18320 -0.33000
I 	I 	0.26144 0.23420 0.19560 0.00400
I 	I 	0.36798 0.17660 0.29852 -0.42600
I 	I 	0.14727 0.42664 0.99003 -0.36800
I 	I 	0.88499 0.23452 0.93681 0.02700
I 	I 	0.97969 0.13713 0.87099 -0.46300
I 	I 	0.11088 0.26605 0.09469 -0.46800
Zn	Zn	0.32283 0.14842 0.22174 1.15300
Zn	Zn	0.12613 0.41323 0.06210 1.16400
Zn	Zn	0.91908 0.11441 0.90585 1.15400
N 	N 	0.31207 0.01290 0.21974 -0.27700
N 	N 	0.93163 0.01310 0.95126 -0.27600
N 	N 	0.16814 0.47720 0.10798 -0.27500
N 	N 	0.28016 0.56040 0.22839 -0.14300
N 	N 	0.31911 0.68790 0.25084 -0.13300
N 	N 	0.38039 0.45550 0.35827 -0.27400
N 	N 	0.26360 0.69810 0.19207 -0.14100
N 	N 	0.07861 0.49540 0.05915 -0.28300
N 	N 	0.85661 0.66300 0.17577 -0.28400
N 	N 	0.92257 0.77400 0.06003 -0.13500
N 	N 	0.97515 0.72820 0.02888 -0.14800
C 	C 	0.25873 0.61120 0.19729 0.08400
C 	C 	0.22693 0.56520 0.16610 0.05500
N 	N 	0.96016 0.64820 0.08866 -0.13200
C 	C 	0.30030 0.83010 0.21909 0.06500
C 	C 	0.33780 0.95900 0.24540 0.07000
H 	H 	0.35970 0.98410 0.26350 -0.01500
C 	C 	0.29376 0.73260 0.22039 0.09800
C 	C 	0.33487 0.55040 0.28992 0.06900
C 	C 	0.38850 0.53980 0.35040 0.08600
H 	H 	0.41020 0.56620 0.36820 -0.00700
C 	C 	0.94131 0.86360 0.00429 0.05900
C 	C 	0.84428 0.71040 0.13930 0.08300
H 	H 	0.81910 0.73370 0.13370 -0.01800
C 	C 	0.32624 0.46240 0.29772 -0.13800
H 	H 	0.30490 0.43420 0.28010 0.08000
C 	C 	0.94640 0.78380 0.03244 0.09200
C 	C 	0.93035 0.70450 0.08672 0.10200
C 	C 	0.98110 0.66320 0.05826 0.08300
C 	C 	0.18808 0.43610 0.14363 0.07300
H 	H 	0.18170 0.37760 0.14880 -0.00200
C 	C 	0.96921 0.88590 0.98050 -0.12300
H 	H 	0.99150 0.85130 0.98220 0.07300
C 	C 	0.28100 0.97620 0.19370 0.08000
H 	H 	0.26330 0.01300 0.17550 -0.01600
C 	C 	0.36647 0.58980 0.31720 -0.13300
H 	H 	0.37280 0.64880 0.31320 0.10200
C 	C 	0.01441 0.60360 0.05830 0.07000
C 	C 	0.20560 0.60800 0.12946 -0.12900
H 	H 	0.21070 0.66710 0.12390 0.09400
C 	C 	0.90444 0.68950 0.11774 0.08000
C 	C 	0.21796 0.47750 0.17333 -0.13200
H 	H 	0.23170 0.44700 0.19760 0.09000
C 	C 	0.06260 0.54200 0.02480 0.10000
H 	H 	0.07290 0.53720 -0.00000 -0.01700
C 	C 	0.34958 0.41790 0.33177 0.07800
H 	H 	0.34370 0.35910 0.33670 -0.01400
C 	C 	0.91650 0.63800 0.15460 -0.14000
H 	H 	0.94100 0.61100 0.16020 0.09300
C 	C 	0.33317 0.86770 0.24610 -0.13000
H 	H 	0.35160 0.83220 0.26410 0.09000
C 	C 	0.96309 0.96070 0.95423 0.07100
H 	H 	0.98150 0.97530 0.93800 -0.00900
C 	C 	0.17677 0.56180 0.10140 0.07900
H 	H 	0.16270 0.59070 0.07670 -0.00500
C 	C 	0.90952 0.91920 0.00190 -0.12800
H 	H 	0.89080 0.90690 0.01800 0.08700
C 	C 	0.86760 0.72590 0.11000 -0.13600
H 	H 	0.85860 0.76040 0.08530 0.09300
C 	C 	0.27402 0.88550 0.19250 -0.13800
H 	H 	0.25190 0.86230 0.17400 0.08700
C 	C 	0.90590 0.99260 0.97540 0.07700
H 	H 	0.88450 0.02980 0.97430 -0.01500
C 	C 	0.89180 0.62720 0.18300 0.09200
H 	H 	0.90020 0.59350 0.20810 -0.02500
C 	C 	0.03120 0.59760 0.02336 -0.15800
H 	H 	0.02150 0.63110 0.99850 0.09000
C 	C 	0.06500 0.50990 0.09520 0.08700
H 	H 	0.07710 0.48050 0.12060 -0.02000
C 	C 	0.03400 0.56560 0.09720 -0.14700
H 	H 	0.02670 0.57710 0.12340 0.09500
C 	C 	0.31025 0.60240 0.25398 0.09600
I 	I 	0.97056 0.16560 0.87924 0.10600
I 	I 	0.86884 0.22197 0.93899 -0.36700
I 	I 	0.35445 0.19240 0.28939 0.02500
I 	I 	0.12530 0.25970 0.07900 0.08800
I 	I 	0.25060 0.22960 0.18320 -0.33000
I 	I 	0.76144 0.26580 0.69560 0.00400
I 	I 	0.86798 0.32340 0.79852 -0.42600
I 	I 	0.64727 0.07336 0.49003 -0.36800
I 	I 	0.38499 0.26548 0.43681 0.02700
I 	I 	0.47969 0.36287 0.37099 -0.46300
I 	I 	0.61088 0.23395 0.59469 -0.46800
Zn	Zn	0.82283 0.35158 0.72174 1.15300
Zn	Zn	0.62613 0.08677 0.56210 1.16400
Zn	Zn	0.41908 0.38559 0.40585 1.15400
N 	N 	0.81207 0.48710 0.71974 -0.27800
N 	N 	0.43163 0.48690 0.45126 -0.27600
N 	N 	0.66814 0.02280 0.60798 -0.27500
N 	N 	0.78016 0.93960 0.72839 -0.14300
N 	N 	0.81911 0.81210 0.75084 -0.13300
N 	N 	0.88039 0.04450 0.85827 -0.27400
N 	N 	0.76360 0.80190 0.69207 -0.14100
N 	N 	0.57861 0.00460 0.55915 -0.28400
N 	N 	0.35661 0.83700 0.67577 -0.28400
N 	N 	0.42257 0.72600 0.56003 -0.13500
N 	N 	0.47515 0.77180 0.52888 -0.14800
C 	C 	0.75873 0.88880 0.69729 0.08400
C 	C 	0.72693 0.93480 0.66610 0.05500
N 	N 	0.46016 0.85180 0.58866 -0.13200
C 	C 	0.80030 0.66990 0.71909 0.06500
C 	C 	0.83780 0.54100 0.74540 0.07000
H 	H 	0.85970 0.51590 0.76350 -0.01500
C 	C 	0.79376 0.76740 0.72039 0.09800
C 	C 	0.83487 0.94960 0.78992 0.06900
C 	C 	0.88850 0.96020 0.85040 0.08600
H 	H 	0.91020 0.93380 0.86820 -0.00700
C 	C 	0.44131 0.63640 0.50429 0.05800
C 	C 	0.34428 0.78960 0.63930 0.08300
H 	H 	0.31910 0.76630 0.63370 -0.01800
C 	C 	0.82624 0.03760 0.79772 -0.13800
H 	H 	0.80490 0.06580 0.78010 0.08000
C 	C 	0.44640 0.71620 0.53244 0.09200
C 	C 	0.43035 0.79550 0.58672 0.10200
C 	C 	0.48110 0.83680 0.55826 0.08300
C 	C 	0.68808 0.06390 0.64363 0.07300
H 	H 	0.68170 0.12240 0.64880 -0.00200
C 	C 	0.46921 0.61410 0.48050 -0.12300
H 	H 	0.49150 0.64870 0.48220 0.07300
C 	C 	0.78100 0.52380 0.69370 0.08000
H 	H 	0.76330 0.48700 0.67550 -0.01600
C 	C 	0.86647 0.91020 0.81720 -0.13300
H 	H 	0.87280 0.85120 0.81320 0.10200
C 	C 	0.51441 0.89640 0.55830 0.07100
C 	C 	0.70560 0.89200 0.62946 -0.12900
H 	H 	0.71070 0.83290 0.62390 0.09400
C 	C 	0.40444 0.81050 0.61774 0.08000
C 	C 	0.71796 0.02250 0.67333 -0.13200
H 	H 	0.73170 0.05300 0.69760 0.09000
C 	C 	0.56260 0.95800 0.52480 0.10000
H 	H 	0.57290 0.96280 0.50000 -0.01800
C 	C 	0.84958 0.08210 0.83177 0.07800
H 	H 	0.84370 0.14090 0.83670 -0.01400
C 	C 	0.41650 0.86200 0.65460 -0.14000
H 	H 	0.44100 0.88900 0.66020 0.09300
C 	C 	0.83317 0.63230 0.74610 -0.13100
H 	H 	0.85160 0.66780 0.76410 0.09000
C 	C 	0.46309 0.53930 0.45423 0.07000
H 	H 	0.48150 0.52470 0.43800 -0.00900
C 	C 	0.67677 0.93820 0.60140 0.07900
H 	H 	0.66270 0.90930 0.57670 -0.00500
C 	C 	0.40952 0.58080 0.50190 -0.12800
H 	H 	0.39080 0.59310 0.51800 0.08700
C 	C 	0.36760 0.77410 0.61000 -0.13600
H 	H 	0.35860 0.73960 0.58530 0.09300
C 	C 	0.77402 0.61450 0.69250 -0.13800
H 	H 	0.75190 0.63770 0.67400 0.08700
C 	C 	0.40590 0.50740 0.47540 0.07700
H 	H 	0.38450 0.47020 0.47430 -0.01400
C 	C 	0.39180 0.87280 0.68300 0.09200
H 	H 	0.40020 0.90650 0.70810 -0.02500
C 	C 	0.53120 0.90240 0.52336 -0.16000
H 	H 	0.52150 0.86890 0.49850 0.09100
C 	C 	0.56500 0.99010 0.59520 0.08700
H 	H 	0.57710 0.01950 0.62060 -0.02000
C 	C 	0.53400 0.93440 0.59720 -0.14800
H 	H 	0.52670 0.92290 0.62340 0.09500
C 	C 	0.81025 0.89760 0.75398 0.09600
I 	I 	0.47056 0.33440 0.37924 0.10600
I 	I 	0.36884 0.27803 0.43899 -0.36700
I 	I 	0.85445 0.30760 0.78939 0.02500
I 	I 	0.62530 0.24030 0.57900 0.08800
I 	I 	0.75060 0.27040 0.68320 -0.33000
I 	I 	0.26144 0.76580 0.69560 0.00400
I 	I 	0.36798 0.82340 0.79852 -0.42600
I 	I 	0.14727 0.57336 0.49003 -0.36800
I 	I 	0.88499 0.76548 0.43681 0.02700
I 	I 	0.97969 0.86287 0.37099 -0.46300
I 	I 	0.11088 0.73395 0.59469 -0.46800
Zn	Zn	0.32283 0.85158 0.72174 1.15300
Zn	Zn	0.12613 0.58677 0.56210 1.16400
Zn	Zn	0.91908 0.88559 0.40585 1.15400
N 	N 	0.31207 0.98710 0.71974 -0.27700
N 	N 	0.93163 0.98690 0.45126 -0.27600
N 	N 	0.16814 0.52280 0.60798 -0.27500
N 	N 	0.28016 0.43960 0.72839 -0.14300
N 	N 	0.31911 0.31210 0.75084 -0.13300
N 	N 	0.38039 0.54450 0.85827 -0.27400
N 	N 	0.26360 0.30190 0.69207 -0.14100
N 	N 	0.07861 0.50460 0.55915 -0.28400
N 	N 	0.85661 0.33700 0.67577 -0.28400
N 	N 	0.92257 0.22600 0.56003 -0.13500
N 	N 	0.97515 0.27180 0.52888 -0.14800
C 	C 	0.25873 0.38880 0.69729 0.08400
C 	C 	0.22693 0.43480 0.66610 0.05500
N 	N 	0.96016 0.35180 0.58866 -0.13200
C 	C 	0.30030 0.16990 0.71909 0.06500
C 	C 	0.33780 0.04100 0.74540 0.07000
H 	H 	0.35970 0.01590 0.76350 -0.01500
C 	C 	0.29376 0.26740 0.72039 0.09800
C 	C 	0.33487 0.44960 0.78992 0.06900
C 	C 	0.38850 0.46020 0.85040 0.08600
H 	H 	0.41020 0.43380 0.86820 -0.00700
C 	C 	0.94131 0.13640 0.50429 0.05800
C 	C 	0.84428 0.28960 0.63930 0.08300
H 	H 	0.81910 0.26630 0.63370 -0.01800
C 	C 	0.32624 0.53760 0.79772 -0.13800
H 	H 	0.30490 0.56580 0.78010 0.08000
C 	C 	0.94640 0.21620 0.53244 0.09200
C 	C 	0.93035 0.29550 0.58672 0.10200
C 	C 	0.98110 0.33680 0.55826 0.08300
C 	C 	0.18808 0.56390 0.64363 0.07300
H 	H 	0.18170 0.62240 0.64880 -0.00200
C 	C 	0.96921 0.11410 0.48050 -0.12300
H 	H 	0.99150 0.14870 0.48220 0.07300
C 	C 	0.28100 0.02380 0.69370 0.08000
H 	H 	0.26330 0.98700 0.67550 -0.01600
C 	C 	0.36647 0.41020 0.81720 -0.13300
H 	H 	0.37280 0.35120 0.81320 0.10200
C 	C 	0.01441 0.39640 0.55830 0.07100
C 	C 	0.20560 0.39200 0.62946 -0.12900
H 	H 	0.21070 0.33290 0.62390 0.09400
C 	C 	0.90444 0.31050 0.61774 0.08000
C 	C 	0.21796 0.52250 0.67333 -0.13200
H 	H 	0.23170 0.55300 0.69760 0.09000
C 	C 	0.06260 0.45800 0.52480 0.10000
H 	H 	0.07290 0.46280 0.50000 -0.01800
C 	C 	0.34958 0.58210 0.83177 0.07800
H 	H 	0.34370 0.64090 0.83670 -0.01400
C 	C 	0.91650 0.36200 0.65460 -0.14000
H 	H 	0.94100 0.38900 0.66020 0.09300
C 	C 	0.33317 0.13230 0.74610 -0.13000
H 	H 	0.35160 0.16780 0.76410 0.09000
C 	C 	0.96309 0.03930 0.45423 0.07000
H 	H 	0.98150 0.02470 0.43800 -0.00900
C 	C 	0.17677 0.43820 0.60140 0.07900
H 	H 	0.16270 0.40930 0.57670 -0.00500
C 	C 	0.90952 0.08080 0.50190 -0.12800
H 	H 	0.89080 0.09310 0.51800 0.08700
C 	C 	0.86760 0.27410 0.61000 -0.13600
H 	H 	0.85860 0.23960 0.58530 0.09300
C 	C 	0.27402 0.11450 0.69250 -0.13800
H 	H 	0.25190 0.13770 0.67400 0.08700
C 	C 	0.90590 0.00740 0.47540 0.07700
H 	H 	0.88450 0.97020 0.47430 -0.01400
C 	C 	0.89180 0.37280 0.68300 0.09200
H 	H 	0.90020 0.40650 0.70810 -0.02500
C 	C 	0.03120 0.40240 0.52336 -0.16000
H 	H 	0.02150 0.36890 0.49850 0.09100
C 	C 	0.06500 0.49010 0.59520 0.08700
H 	H 	0.07710 0.51950 0.62060 -0.02000
C 	C 	0.03400 0.43440 0.59720 -0.14800
H 	H 	0.02670 0.42290 0.62340 0.09500
C 	C 	0.31025 0.39760 0.75398 0.09600
I 	I 	0.97056 0.83440 0.37924 0.10600
I 	I 	0.86884 0.77803 0.43899 -0.36700
I 	I 	0.35445 0.80760 0.78939 0.02500
I 	I 	0.12530 0.74030 0.57900 0.08800
I 	I 	0.25060 0.77040 0.68320 -0.33000
