data_crystal

_cell_length_a 35.05710
_cell_length_b 14.64950
_cell_length_c 31.15470
_cell_angle_alpha 90.00000
_cell_angle_beta  100.84600
_cell_angle_gamma 90.00000

_symmetry_space_group_name_	'P 1'
_symmetry_space_group_name_H-M	'P 1'

loop_
_symmetry_equiv_pos_as_xyz
  x,y,z

loop_
_atom_site_label
_atom_site_type_symbol
_atom_site_fract_x
_atom_site_fract_y
_atom_site_fract_z
_atom_site_charge
I 	I 	0.73580 0.76039 0.79610 -0.38000
I 	I 	0.63079 0.83840 0.69850 -0.40800
I 	I 	0.35413 0.89270 0.50559 -0.23100
I 	I 	0.61690 0.74648 0.56308 0.06900
I 	I 	0.52299 0.66292 0.63504 -0.51800
I 	I 	0.39384 0.75190 0.39425 -0.19100
Zn	Zn	0.67371 0.85145 0.77399 1.16400
Zn	Zn	0.58179 0.62886 0.60006 1.15400
Zn	Zn	0.37671 0.89609 0.43250 1.16100
N 	N 	0.68380 0.99020 0.78380 -0.27600
N 	N 	0.73460 0.31250 0.81280 -0.13800
N 	N 	0.68060 0.32290 0.75440 -0.13400
N 	N 	0.72110 0.45160 0.77400 -0.14100
N 	N 	0.61990 0.56000 0.64760 -0.27500
N 	N 	0.56930 0.52110 0.55610 -0.27300
N 	N 	0.57530 0.28640 0.44170 -0.13200
N 	N 	0.52350 0.23310 0.47460 -0.14800
N 	N 	0.54050 0.15230 0.41490 -0.13200
N 	N 	0.63980 0.17630 0.31930 -0.28100
N 	N 	0.42310 0.98490 0.44000 -0.28200
N 	N 	0.83440 0.53620 0.88950 -0.27500
C 	C 	0.71590 0.02500 0.80710 0.08300
H 	H 	0.73450 0.98520 0.82200 -0.01500
C 	C 	0.72330 0.11880 0.81050 -0.13800
H 	H 	0.74590 0.14060 0.82800 0.08800
C 	C 	0.69670 0.17800 0.78770 0.06800
C 	C 	0.66230 0.14200 0.76380 -0.13200
H 	H 	0.64320 0.18030 0.74880 0.08900
C 	C 	0.65730 0.04880 0.76270 0.07200
H 	H 	0.63430 0.02520 0.74670 -0.01600
C 	C 	0.70440 0.27680 0.78570 0.10100
C 	C 	0.74140 0.40090 0.80490 0.08900
C 	C 	0.69030 0.40980 0.75030 0.09900
C 	C 	0.66620 0.46350 0.71490 0.06600
C 	C 	0.67590 0.55130 0.70420 -0.14000
H 	H 	0.69810 0.57930 0.71970 0.08600
C 	C 	0.65230 0.59660 0.67040 0.07900
H 	H 	0.65920 0.65510 0.66320 -0.01400
C 	C 	0.61000 0.47610 0.65860 0.07900
H 	H 	0.58700 0.45090 0.64350 -0.01000
C 	C 	0.63250 0.42460 0.69150 -0.12900
H 	H 	0.62520 0.36570 0.69760 0.09600
C 	C 	0.53650 0.47190 0.55140 0.07200
H 	H 	0.51750 0.48930 0.56690 -0.00900
C 	C 	0.52990 0.39610 0.52430 -0.12600
H 	H 	0.50700 0.36300 0.52200 0.07500
C 	C 	0.55800 0.37060 0.50070 0.05600
C 	C 	0.59140 0.42100 0.50540 -0.12800
H 	H 	0.61070 0.40550 0.49000 0.08600
C 	C 	0.59620 0.49640 0.53370 0.07200
H 	H 	0.61900 0.53020 0.53680 -0.01200
C 	C 	0.55200 0.29170 0.47040 0.08800
C 	C 	0.51840 0.16550 0.44520 0.08100
C 	C 	0.56790 0.21360 0.41410 0.10200
C 	C 	0.59270 0.20310 0.38110 0.07900
C 	C 	0.62890 0.24250 0.38610 -0.13200
H 	H 	0.63770 0.28050 0.40980 0.09300
C 	C 	0.65230 0.22530 0.35540 0.08000
H 	H 	0.67740 0.24870 0.36020 -0.01200
C 	C 	0.60410 0.14250 0.31380 0.08800
H 	H 	0.59480 0.10940 0.28850 -0.02200
C 	C 	0.58000 0.15420 0.34360 -0.13800
H 	H 	0.55520 0.12890 0.33840 0.09500
C 	C 	0.48600 0.10280 0.44450 0.06800
C 	C 	0.46730 0.09270 0.47850 -0.15600
H 	H 	0.47530 0.12650 0.50380 0.08800
C 	C 	0.43700 0.03340 0.47590 0.09100
H 	H 	0.42540 0.02650 0.50030 -0.01400
C 	C 	0.44070 0.99750 0.40590 0.08600
H 	H 	0.43140 0.96570 0.38020 -0.02100
C 	C 	0.47140 0.05440 0.40690 -0.14900
H 	H 	0.48260 0.06080 0.38230 0.09600
C 	C 	0.82140 0.45340 0.90080 0.06900
H 	H 	0.83270 0.42800 0.92760 -0.00400
C 	C 	0.79220 0.40610 0.87390 -0.12300
H 	H 	0.78470 0.34860 0.88180 0.09300
C 	C 	0.77430 0.44650 0.83480 0.05700
C 	C 	0.78720 0.53040 0.82380 -0.13600
H 	H 	0.77550 0.55860 0.79780 0.09500
C 	C 	0.81770 0.57310 0.85160 0.07900
H 	H 	0.82660 0.62910 0.84350 -0.01000
I 	I 	0.35040 0.87100 0.49850 -0.11200
I 	I 	0.63300 0.72740 0.55850 -0.40300
I 	I 	0.53070 0.67540 0.62180 0.14100
I 	I 	0.40150 0.77310 0.38900 -0.15600
I 	I 	0.23580 0.26039 0.79610 -0.38000
I 	I 	0.13079 0.33840 0.69850 -0.40800
I 	I 	0.85413 0.39270 0.50559 -0.23100
I 	I 	0.11690 0.24648 0.56308 0.06900
I 	I 	0.02299 0.16292 0.63504 -0.51800
I 	I 	0.89384 0.25190 0.39425 -0.19100
Zn	Zn	0.17371 0.35145 0.77399 1.16400
Zn	Zn	0.08179 0.12886 0.60006 1.15400
Zn	Zn	0.87671 0.39609 0.43250 1.16100
N 	N 	0.18380 0.49020 0.78380 -0.27600
N 	N 	0.23460 0.81250 0.81280 -0.13800
N 	N 	0.18060 0.82290 0.75440 -0.13400
N 	N 	0.22110 0.95160 0.77400 -0.14100
N 	N 	0.11990 0.06000 0.64760 -0.27500
N 	N 	0.06930 0.02110 0.55610 -0.27300
N 	N 	0.07530 0.78640 0.44170 -0.13200
N 	N 	0.02350 0.73310 0.47460 -0.14800
N 	N 	0.04050 0.65230 0.41490 -0.13200
N 	N 	0.13980 0.67630 0.31930 -0.28100
N 	N 	0.92310 0.48490 0.44000 -0.28200
N 	N 	0.33440 0.03620 0.88950 -0.27500
C 	C 	0.21590 0.52500 0.80710 0.08400
H 	H 	0.23450 0.48520 0.82200 -0.01600
C 	C 	0.22330 0.61880 0.81050 -0.13800
H 	H 	0.24590 0.64060 0.82800 0.08800
C 	C 	0.19670 0.67800 0.78770 0.06800
C 	C 	0.16230 0.64200 0.76380 -0.13200
H 	H 	0.14320 0.68030 0.74880 0.08900
C 	C 	0.15730 0.54880 0.76270 0.07200
H 	H 	0.13430 0.52520 0.74670 -0.01600
C 	C 	0.20440 0.77680 0.78570 0.10100
C 	C 	0.24140 0.90090 0.80490 0.08900
C 	C 	0.19030 0.90980 0.75030 0.09900
C 	C 	0.16620 0.96350 0.71490 0.06600
C 	C 	0.17590 0.05130 0.70420 -0.14000
H 	H 	0.19810 0.07930 0.71970 0.08600
C 	C 	0.15230 0.09660 0.67040 0.07900
H 	H 	0.15920 0.15510 0.66320 -0.01400
C 	C 	0.11000 0.97610 0.65860 0.07900
H 	H 	0.08700 0.95090 0.64350 -0.01000
C 	C 	0.13250 0.92460 0.69150 -0.12900
H 	H 	0.12520 0.86570 0.69760 0.09600
C 	C 	0.03650 0.97190 0.55140 0.07200
H 	H 	0.01750 0.98930 0.56690 -0.00900
C 	C 	0.02990 0.89610 0.52430 -0.12600
H 	H 	0.00700 0.86300 0.52200 0.07500
C 	C 	0.05800 0.87060 0.50070 0.05600
C 	C 	0.09140 0.92100 0.50540 -0.12800
H 	H 	0.11070 0.90550 0.49000 0.08600
C 	C 	0.09620 0.99640 0.53370 0.07200
H 	H 	0.11900 0.03020 0.53680 -0.01200
C 	C 	0.05200 0.79170 0.47040 0.08800
C 	C 	0.01840 0.66550 0.44520 0.08100
C 	C 	0.06790 0.71360 0.41410 0.10200
C 	C 	0.09270 0.70310 0.38110 0.07900
C 	C 	0.12890 0.74250 0.38610 -0.13200
H 	H 	0.13770 0.78050 0.40980 0.09300
C 	C 	0.15230 0.72530 0.35540 0.08000
H 	H 	0.17740 0.74870 0.36020 -0.01200
C 	C 	0.10410 0.64250 0.31380 0.08800
H 	H 	0.09480 0.60940 0.28850 -0.02200
C 	C 	0.08000 0.65420 0.34360 -0.13800
H 	H 	0.05520 0.62890 0.33840 0.09500
C 	C 	0.98600 0.60280 0.44450 0.06800
C 	C 	0.96730 0.59270 0.47850 -0.15600
H 	H 	0.97530 0.62650 0.50380 0.08800
C 	C 	0.93700 0.53340 0.47590 0.09100
H 	H 	0.92540 0.52650 0.50030 -0.01400
C 	C 	0.94070 0.49750 0.40590 0.08600
H 	H 	0.93140 0.46570 0.38020 -0.02100
C 	C 	0.97140 0.55440 0.40690 -0.14900
H 	H 	0.98260 0.56080 0.38230 0.09600
C 	C 	0.32140 0.95340 0.90080 0.06900
H 	H 	0.33270 0.92800 0.92760 -0.00400
C 	C 	0.29220 0.90610 0.87390 -0.12300
H 	H 	0.28470 0.84860 0.88180 0.09300
C 	C 	0.27430 0.94650 0.83480 0.05700
C 	C 	0.28720 0.03040 0.82380 -0.13600
H 	H 	0.27550 0.05860 0.79780 0.09500
C 	C 	0.31770 0.07310 0.85160 0.07900
H 	H 	0.32660 0.12910 0.84350 -0.01000
I 	I 	0.85040 0.37100 0.49850 -0.11200
I 	I 	0.13300 0.22740 0.55850 -0.40300
I 	I 	0.03070 0.17540 0.62180 0.14100
I 	I 	0.90150 0.27310 0.38900 -0.15600
I 	I 	0.73580 0.23961 0.29610 -0.38000
I 	I 	0.63079 0.16160 0.19850 -0.40800
I 	I 	0.35413 0.10730 0.00559 -0.23200
I 	I 	0.61690 0.25352 0.06308 0.06900
I 	I 	0.52299 0.33708 0.13504 -0.51800
I 	I 	0.39384 0.24810 0.89425 -0.19100
Zn	Zn	0.67371 0.14855 0.27399 1.16400
Zn	Zn	0.58179 0.37114 0.10006 1.15400
Zn	Zn	0.37671 0.10391 0.93250 1.16100
N 	N 	0.68380 0.00980 0.28380 -0.27600
N 	N 	0.73460 0.68750 0.31280 -0.13800
N 	N 	0.68060 0.67710 0.25440 -0.13400
N 	N 	0.72110 0.54840 0.27400 -0.14100
N 	N 	0.61990 0.44000 0.14760 -0.27500
N 	N 	0.56930 0.47890 0.05610 -0.27300
N 	N 	0.57530 0.71360 0.94170 -0.13200
N 	N 	0.52350 0.76690 0.97460 -0.14800
N 	N 	0.54050 0.84770 0.91490 -0.13200
N 	N 	0.63980 0.82370 0.81930 -0.28100
N 	N 	0.42310 0.01510 0.94000 -0.28200
N 	N 	0.83440 0.46380 0.38950 -0.27500
C 	C 	0.71590 0.97500 0.30710 0.08300
H 	H 	0.73450 0.01480 0.32200 -0.01500
C 	C 	0.72330 0.88120 0.31050 -0.13800
H 	H 	0.74590 0.85940 0.32800 0.08800
C 	C 	0.69670 0.82200 0.28770 0.06800
C 	C 	0.66230 0.85800 0.26380 -0.13200
H 	H 	0.64320 0.81970 0.24880 0.08900
C 	C 	0.65730 0.95120 0.26270 0.07200
H 	H 	0.63430 0.97480 0.24670 -0.01600
C 	C 	0.70440 0.72320 0.28570 0.10100
C 	C 	0.74140 0.59910 0.30490 0.08900
C 	C 	0.69030 0.59020 0.25030 0.09900
C 	C 	0.66620 0.53650 0.21490 0.06600
C 	C 	0.67590 0.44870 0.20420 -0.14000
H 	H 	0.69810 0.42070 0.21970 0.08600
C 	C 	0.65230 0.40340 0.17040 0.07900
H 	H 	0.65920 0.34490 0.16320 -0.01400
C 	C 	0.61000 0.52390 0.15860 0.07900
H 	H 	0.58700 0.54910 0.14350 -0.01000
C 	C 	0.63250 0.57540 0.19150 -0.12900
H 	H 	0.62520 0.63430 0.19760 0.09600
C 	C 	0.53650 0.52810 0.05140 0.07200
H 	H 	0.51750 0.51070 0.06690 -0.00900
C 	C 	0.52990 0.60390 0.02430 -0.12600
H 	H 	0.50700 0.63700 0.02200 0.07500
C 	C 	0.55800 0.62940 0.00070 0.05600
C 	C 	0.59140 0.57900 0.00540 -0.12800
H 	H 	0.61070 0.59450 0.99000 0.08600
C 	C 	0.59620 0.50360 0.03370 0.07200
H 	H 	0.61900 0.46980 0.03680 -0.01200
C 	C 	0.55200 0.70830 0.97040 0.08800
C 	C 	0.51840 0.83450 0.94520 0.08100
C 	C 	0.56790 0.78640 0.91410 0.10200
C 	C 	0.59270 0.79690 0.88110 0.07900
C 	C 	0.62890 0.75750 0.88610 -0.13200
H 	H 	0.63770 0.71950 0.90980 0.09300
C 	C 	0.65230 0.77470 0.85540 0.08000
H 	H 	0.67740 0.75130 0.86020 -0.01200
C 	C 	0.60410 0.85750 0.81380 0.08800
H 	H 	0.59480 0.89060 0.78850 -0.02200
C 	C 	0.58000 0.84580 0.84360 -0.13800
H 	H 	0.55520 0.87110 0.83840 0.09500
C 	C 	0.48600 0.89720 0.94450 0.06800
C 	C 	0.46730 0.90730 0.97850 -0.15600
H 	H 	0.47530 0.87350 0.00380 0.08800
C 	C 	0.43700 0.96660 0.97590 0.09200
H 	H 	0.42540 0.97350 0.00030 -0.01400
C 	C 	0.44070 0.00250 0.90590 0.08500
H 	H 	0.43140 0.03430 0.88020 -0.02100
C 	C 	0.47140 0.94560 0.90690 -0.14900
H 	H 	0.48260 0.93920 0.88230 0.09600
C 	C 	0.82140 0.54660 0.40080 0.06900
H 	H 	0.83270 0.57200 0.42760 -0.00400
C 	C 	0.79220 0.59390 0.37390 -0.12300
H 	H 	0.78470 0.65140 0.38180 0.09300
C 	C 	0.77430 0.55350 0.33480 0.05700
C 	C 	0.78720 0.46960 0.32380 -0.13600
H 	H 	0.77550 0.44140 0.29780 0.09500
C 	C 	0.81770 0.42690 0.35160 0.07900
H 	H 	0.82660 0.37090 0.34350 -0.01000
I 	I 	0.35040 0.12900 0.99850 -0.11200
I 	I 	0.63300 0.27260 0.05850 -0.40300
I 	I 	0.53070 0.32460 0.12180 0.14100
I 	I 	0.40150 0.22690 0.88900 -0.15600
I 	I 	0.23580 0.73961 0.29610 -0.38000
I 	I 	0.13079 0.66160 0.19850 -0.40800
I 	I 	0.85413 0.60730 0.00559 -0.23100
I 	I 	0.11690 0.75352 0.06308 0.06900
I 	I 	0.02299 0.83708 0.13504 -0.51800
I 	I 	0.89384 0.74810 0.89425 -0.19100
Zn	Zn	0.17371 0.64855 0.27399 1.16400
Zn	Zn	0.08179 0.87114 0.10006 1.15400
Zn	Zn	0.87671 0.60391 0.93250 1.16100
N 	N 	0.18380 0.50980 0.28380 -0.27600
N 	N 	0.23460 0.18750 0.31280 -0.13800
N 	N 	0.18060 0.17710 0.25440 -0.13400
N 	N 	0.22110 0.04840 0.27400 -0.14100
N 	N 	0.11990 0.94000 0.14760 -0.27500
N 	N 	0.06930 0.97890 0.05610 -0.27400
N 	N 	0.07530 0.21360 0.94170 -0.13200
N 	N 	0.02350 0.26690 0.97460 -0.14800
N 	N 	0.04050 0.34770 0.91490 -0.13200
N 	N 	0.13980 0.32370 0.81930 -0.28100
N 	N 	0.92310 0.51510 0.94000 -0.28200
N 	N 	0.33440 0.96380 0.38950 -0.27500
C 	C 	0.21590 0.47500 0.30710 0.08400
H 	H 	0.23450 0.51480 0.32200 -0.01600
C 	C 	0.22330 0.38120 0.31050 -0.13800
H 	H 	0.24590 0.35940 0.32800 0.08800
C 	C 	0.19670 0.32200 0.28770 0.06800
C 	C 	0.16230 0.35800 0.26380 -0.13200
H 	H 	0.14320 0.31970 0.24880 0.08900
C 	C 	0.15730 0.45120 0.26270 0.07200
H 	H 	0.13430 0.47480 0.24670 -0.01600
C 	C 	0.20440 0.22320 0.28570 0.10100
C 	C 	0.24140 0.09910 0.30490 0.08900
C 	C 	0.19030 0.09020 0.25030 0.09900
C 	C 	0.16620 0.03650 0.21490 0.06600
C 	C 	0.17590 0.94870 0.20420 -0.14000
H 	H 	0.19810 0.92070 0.21970 0.08600
C 	C 	0.15230 0.90340 0.17040 0.07900
H 	H 	0.15920 0.84490 0.16320 -0.01400
C 	C 	0.11000 0.02390 0.15860 0.07900
H 	H 	0.08700 0.04910 0.14350 -0.01000
C 	C 	0.13250 0.07540 0.19150 -0.12900
H 	H 	0.12520 0.13430 0.19760 0.09600
C 	C 	0.03650 0.02810 0.05140 0.07200
H 	H 	0.01750 0.01070 0.06690 -0.00900
C 	C 	0.02990 0.10390 0.02430 -0.12600
H 	H 	0.00700 0.13700 0.02200 0.07500
C 	C 	0.05800 0.12940 0.00070 0.05600
C 	C 	0.09140 0.07900 0.00540 -0.12800
H 	H 	0.11070 0.09450 0.99000 0.08600
C 	C 	0.09620 0.00360 0.03370 0.07200
H 	H 	0.11900 0.96980 0.03680 -0.01300
C 	C 	0.05200 0.20830 0.97040 0.08700
C 	C 	0.01840 0.33450 0.94520 0.08100
C 	C 	0.06790 0.28640 0.91410 0.10200
C 	C 	0.09270 0.29690 0.88110 0.07900
C 	C 	0.12890 0.25750 0.88610 -0.13200
H 	H 	0.13770 0.21950 0.90980 0.09300
C 	C 	0.15230 0.27470 0.85540 0.08000
H 	H 	0.17740 0.25130 0.86020 -0.01200
C 	C 	0.10410 0.35750 0.81380 0.08800
H 	H 	0.09480 0.39060 0.78850 -0.02200
C 	C 	0.08000 0.34580 0.84360 -0.13800
H 	H 	0.05520 0.37110 0.83840 0.09500
C 	C 	0.98600 0.39720 0.94450 0.06800
C 	C 	0.96730 0.40730 0.97850 -0.15600
H 	H 	0.97530 0.37350 0.00380 0.08900
C 	C 	0.93700 0.46660 0.97590 0.09100
H 	H 	0.92540 0.47350 0.00030 -0.01400
C 	C 	0.94070 0.50250 0.90590 0.08600
H 	H 	0.93140 0.53430 0.88020 -0.02100
C 	C 	0.97140 0.44560 0.90690 -0.14900
H 	H 	0.98260 0.43920 0.88230 0.09600
C 	C 	0.32140 0.04660 0.40080 0.06900
H 	H 	0.33270 0.07200 0.42760 -0.00400
C 	C 	0.29220 0.09390 0.37390 -0.12300
H 	H 	0.28470 0.15140 0.38180 0.09300
C 	C 	0.27430 0.05350 0.33480 0.05700
C 	C 	0.28720 0.96960 0.32380 -0.13600
H 	H 	0.27550 0.94140 0.29780 0.09500
C 	C 	0.31770 0.92690 0.35160 0.07900
H 	H 	0.32660 0.87090 0.34350 -0.01000
I 	I 	0.85040 0.62900 0.99850 -0.11300
I 	I 	0.13300 0.77260 0.05850 -0.40300
I 	I 	0.03070 0.82460 0.12180 0.14100
I 	I 	0.90150 0.72690 0.88900 -0.15600
I 	I 	0.26420 0.76039 0.70390 -0.38000
I 	I 	0.36921 0.83840 0.80150 -0.40800
I 	I 	0.64587 0.89270 0.99441 -0.23200
I 	I 	0.38310 0.74648 0.93692 0.06900
I 	I 	0.47701 0.66292 0.86496 -0.51800
I 	I 	0.60616 0.75190 0.10575 -0.19100
Zn	Zn	0.32629 0.85145 0.72601 1.16400
Zn	Zn	0.41821 0.62886 0.89994 1.15400
Zn	Zn	0.62329 0.89609 0.06750 1.16100
N 	N 	0.31620 0.99020 0.71620 -0.27600
N 	N 	0.26540 0.31250 0.68720 -0.13800
N 	N 	0.31940 0.32290 0.74560 -0.13400
N 	N 	0.27890 0.45160 0.72600 -0.14100
N 	N 	0.38010 0.56000 0.85240 -0.27500
N 	N 	0.43070 0.52110 0.94390 -0.27300
N 	N 	0.42470 0.28640 0.05830 -0.13200
N 	N 	0.47650 0.23310 0.02540 -0.14800
N 	N 	0.45950 0.15230 0.08510 -0.13200
N 	N 	0.36020 0.17630 0.18070 -0.28100
N 	N 	0.57690 0.98490 0.06000 -0.28200
N 	N 	0.16560 0.53620 0.61050 -0.27500
C 	C 	0.28410 0.02500 0.69290 0.08300
H 	H 	0.26550 0.98520 0.67800 -0.01500
C 	C 	0.27670 0.11880 0.68950 -0.13800
H 	H 	0.25410 0.14060 0.67200 0.08800
C 	C 	0.30330 0.17800 0.71230 0.06800
C 	C 	0.33770 0.14200 0.73620 -0.13200
H 	H 	0.35680 0.18030 0.75120 0.08900
C 	C 	0.34270 0.04880 0.73730 0.07200
H 	H 	0.36570 0.02520 0.75330 -0.01600
C 	C 	0.29560 0.27680 0.71430 0.10100
C 	C 	0.25860 0.40090 0.69510 0.08900
C 	C 	0.30970 0.40980 0.74970 0.09900
C 	C 	0.33380 0.46350 0.78510 0.06600
C 	C 	0.32410 0.55130 0.79580 -0.14000
H 	H 	0.30190 0.57930 0.78030 0.08600
C 	C 	0.34770 0.59660 0.82960 0.07900
H 	H 	0.34080 0.65510 0.83680 -0.01400
C 	C 	0.39000 0.47610 0.84140 0.07900
H 	H 	0.41300 0.45090 0.85650 -0.01000
C 	C 	0.36750 0.42460 0.80850 -0.12900
H 	H 	0.37480 0.36570 0.80240 0.09600
C 	C 	0.46350 0.47190 0.94860 0.07200
H 	H 	0.48250 0.48930 0.93310 -0.00900
C 	C 	0.47010 0.39610 0.97570 -0.12600
H 	H 	0.49300 0.36300 0.97800 0.07500
C 	C 	0.44200 0.37060 0.99930 0.05600
C 	C 	0.40860 0.42100 0.99460 -0.12800
H 	H 	0.38930 0.40550 0.01000 0.08600
C 	C 	0.40380 0.49640 0.96630 0.07200
H 	H 	0.38100 0.53020 0.96320 -0.01200
C 	C 	0.44800 0.29170 0.02960 0.08800
C 	C 	0.48160 0.16550 0.05480 0.08100
C 	C 	0.43210 0.21360 0.08590 0.10200
C 	C 	0.40730 0.20310 0.11890 0.07900
C 	C 	0.37110 0.24250 0.11390 -0.13200
H 	H 	0.36230 0.28050 0.09020 0.09300
C 	C 	0.34770 0.22530 0.14460 0.08000
H 	H 	0.32260 0.24870 0.13980 -0.01200
C 	C 	0.39590 0.14250 0.18620 0.08800
H 	H 	0.40520 0.10940 0.21150 -0.02200
C 	C 	0.42000 0.15420 0.15640 -0.13800
H 	H 	0.44480 0.12890 0.16160 0.09500
C 	C 	0.51400 0.10280 0.05550 0.06800
C 	C 	0.53270 0.09270 0.02150 -0.15600
H 	H 	0.52470 0.12650 0.99620 0.08800
C 	C 	0.56300 0.03340 0.02410 0.09200
H 	H 	0.57460 0.02650 0.99970 -0.01400
C 	C 	0.55930 0.99750 0.09410 0.08500
H 	H 	0.56860 0.96570 0.11980 -0.02100
C 	C 	0.52860 0.05440 0.09310 -0.14900
H 	H 	0.51740 0.06080 0.11770 0.09600
C 	C 	0.17860 0.45340 0.59920 0.06900
H 	H 	0.16730 0.42800 0.57240 -0.00400
C 	C 	0.20780 0.40610 0.62610 -0.12300
H 	H 	0.21530 0.34860 0.61820 0.09300
C 	C 	0.22570 0.44650 0.66520 0.05700
C 	C 	0.21280 0.53040 0.67620 -0.13600
H 	H 	0.22450 0.55860 0.70220 0.09500
C 	C 	0.18230 0.57310 0.64840 0.07900
H 	H 	0.17340 0.62910 0.65650 -0.01000
I 	I 	0.64960 0.87100 0.00150 -0.11200
I 	I 	0.36700 0.72740 0.94150 -0.40300
I 	I 	0.46930 0.67540 0.87820 0.14100
I 	I 	0.59850 0.77310 0.11100 -0.15600
I 	I 	0.76420 0.26039 0.70390 -0.38000
I 	I 	0.86921 0.33840 0.80150 -0.40800
I 	I 	0.14587 0.39270 0.99441 -0.23100
I 	I 	0.88310 0.24648 0.93692 0.06900
I 	I 	0.97701 0.16292 0.86496 -0.51800
I 	I 	0.10616 0.25190 0.10575 -0.19100
Zn	Zn	0.82629 0.35145 0.72601 1.16400
Zn	Zn	0.91821 0.12886 0.89994 1.15400
Zn	Zn	0.12329 0.39609 0.06750 1.16100
N 	N 	0.81620 0.49020 0.71620 -0.27600
N 	N 	0.76540 0.81250 0.68720 -0.13800
N 	N 	0.81940 0.82290 0.74560 -0.13400
N 	N 	0.77890 0.95160 0.72600 -0.14100
N 	N 	0.88010 0.06000 0.85240 -0.27500
N 	N 	0.93070 0.02110 0.94390 -0.27400
N 	N 	0.92470 0.78640 0.05830 -0.13200
N 	N 	0.97650 0.73310 0.02540 -0.14800
N 	N 	0.95950 0.65230 0.08510 -0.13200
N 	N 	0.86020 0.67630 0.18070 -0.28100
N 	N 	0.07690 0.48490 0.06000 -0.28200
N 	N 	0.66560 0.03620 0.61050 -0.27500
C 	C 	0.78410 0.52500 0.69290 0.08400
H 	H 	0.76550 0.48520 0.67800 -0.01600
C 	C 	0.77670 0.61880 0.68950 -0.13800
H 	H 	0.75410 0.64060 0.67200 0.08800
C 	C 	0.80330 0.67800 0.71230 0.06800
C 	C 	0.83770 0.64200 0.73620 -0.13200
H 	H 	0.85680 0.68030 0.75120 0.08900
C 	C 	0.84270 0.54880 0.73730 0.07200
H 	H 	0.86570 0.52520 0.75330 -0.01600
C 	C 	0.79560 0.77680 0.71430 0.10100
C 	C 	0.75860 0.90090 0.69510 0.08900
C 	C 	0.80970 0.90980 0.74970 0.09900
C 	C 	0.83380 0.96350 0.78510 0.06600
C 	C 	0.82410 0.05130 0.79580 -0.14000
H 	H 	0.80190 0.07930 0.78030 0.08600
C 	C 	0.84770 0.09660 0.82960 0.07900
H 	H 	0.84080 0.15510 0.83680 -0.01400
C 	C 	0.89000 0.97610 0.84140 0.07900
H 	H 	0.91300 0.95090 0.85650 -0.01000
C 	C 	0.86750 0.92460 0.80850 -0.12900
H 	H 	0.87480 0.86570 0.80240 0.09600
C 	C 	0.96350 0.97190 0.94860 0.07200
H 	H 	0.98250 0.98930 0.93310 -0.00900
C 	C 	0.97010 0.89610 0.97570 -0.12600
H 	H 	0.99300 0.86300 0.97800 0.07500
C 	C 	0.94200 0.87060 0.99930 0.05600
C 	C 	0.90860 0.92100 0.99460 -0.12800
H 	H 	0.88930 0.90550 0.01000 0.08600
C 	C 	0.90380 0.99640 0.96630 0.07200
H 	H 	0.88100 0.03020 0.96320 -0.01300
C 	C 	0.94800 0.79170 0.02960 0.08700
C 	C 	0.98160 0.66550 0.05480 0.08100
C 	C 	0.93210 0.71360 0.08590 0.10200
C 	C 	0.90730 0.70310 0.11890 0.07900
C 	C 	0.87110 0.74250 0.11390 -0.13200
H 	H 	0.86230 0.78050 0.09020 0.09300
C 	C 	0.84770 0.72530 0.14460 0.08000
H 	H 	0.82260 0.74870 0.13980 -0.01200
C 	C 	0.89590 0.64250 0.18620 0.08800
H 	H 	0.90520 0.60940 0.21150 -0.02200
C 	C 	0.92000 0.65420 0.15640 -0.13800
H 	H 	0.94480 0.62890 0.16160 0.09500
C 	C 	0.01400 0.60280 0.05550 0.06800
C 	C 	0.03270 0.59270 0.02150 -0.15600
H 	H 	0.02470 0.62650 0.99620 0.08900
C 	C 	0.06300 0.53340 0.02410 0.09100
H 	H 	0.07460 0.52650 0.99970 -0.01400
C 	C 	0.05930 0.49750 0.09410 0.08600
H 	H 	0.06860 0.46570 0.11980 -0.02100
C 	C 	0.02860 0.55440 0.09310 -0.14900
H 	H 	0.01740 0.56080 0.11770 0.09600
C 	C 	0.67860 0.95340 0.59920 0.06900
H 	H 	0.66730 0.92800 0.57240 -0.00400
C 	C 	0.70780 0.90610 0.62610 -0.12300
H 	H 	0.71530 0.84860 0.61820 0.09300
C 	C 	0.72570 0.94650 0.66520 0.05700
C 	C 	0.71280 0.03040 0.67620 -0.13600
H 	H 	0.72450 0.05860 0.70220 0.09500
C 	C 	0.68230 0.07310 0.64840 0.07900
H 	H 	0.67340 0.12910 0.65650 -0.01000
I 	I 	0.14960 0.37100 0.00150 -0.11300
I 	I 	0.86700 0.22740 0.94150 -0.40300
I 	I 	0.96930 0.17540 0.87820 0.14100
I 	I 	0.09850 0.27310 0.11100 -0.15600
I 	I 	0.26420 0.23961 0.20390 -0.38000
I 	I 	0.36921 0.16160 0.30150 -0.40800
I 	I 	0.64587 0.10730 0.49441 -0.23100
I 	I 	0.38310 0.25352 0.43692 0.06900
I 	I 	0.47701 0.33708 0.36496 -0.51800
I 	I 	0.60616 0.24810 0.60575 -0.19100
Zn	Zn	0.32629 0.14855 0.22601 1.16400
Zn	Zn	0.41821 0.37114 0.39994 1.15400
Zn	Zn	0.62329 0.10391 0.56750 1.16100
N 	N 	0.31620 0.00980 0.21620 -0.27600
N 	N 	0.26540 0.68750 0.18720 -0.13800
N 	N 	0.31940 0.67710 0.24560 -0.13400
N 	N 	0.27890 0.54840 0.22600 -0.14100
N 	N 	0.38010 0.44000 0.35240 -0.27500
N 	N 	0.43070 0.47890 0.44390 -0.27300
N 	N 	0.42470 0.71360 0.55830 -0.13200
N 	N 	0.47650 0.76690 0.52540 -0.14800
N 	N 	0.45950 0.84770 0.58510 -0.13200
N 	N 	0.36020 0.82370 0.68070 -0.28100
N 	N 	0.57690 0.01510 0.56000 -0.28200
N 	N 	0.16560 0.46380 0.11050 -0.27500
C 	C 	0.28410 0.97500 0.19290 0.08300
H 	H 	0.26550 0.01480 0.17800 -0.01500
C 	C 	0.27670 0.88120 0.18950 -0.13800
H 	H 	0.25410 0.85940 0.17200 0.08800
C 	C 	0.30330 0.82200 0.21230 0.06800
C 	C 	0.33770 0.85800 0.23620 -0.13200
H 	H 	0.35680 0.81970 0.25120 0.08900
C 	C 	0.34270 0.95120 0.23730 0.07200
H 	H 	0.36570 0.97480 0.25330 -0.01600
C 	C 	0.29560 0.72320 0.21430 0.10100
C 	C 	0.25860 0.59910 0.19510 0.08900
C 	C 	0.30970 0.59020 0.24970 0.09900
C 	C 	0.33380 0.53650 0.28510 0.06600
C 	C 	0.32410 0.44870 0.29580 -0.14000
H 	H 	0.30190 0.42070 0.28030 0.08600
C 	C 	0.34770 0.40340 0.32960 0.07900
H 	H 	0.34080 0.34490 0.33680 -0.01400
C 	C 	0.39000 0.52390 0.34140 0.07900
H 	H 	0.41300 0.54910 0.35650 -0.01000
C 	C 	0.36750 0.57540 0.30850 -0.12900
H 	H 	0.37480 0.63430 0.30240 0.09600
C 	C 	0.46350 0.52810 0.44860 0.07200
H 	H 	0.48250 0.51070 0.43310 -0.00900
C 	C 	0.47010 0.60390 0.47570 -0.12600
H 	H 	0.49300 0.63700 0.47800 0.07500
C 	C 	0.44200 0.62940 0.49930 0.05600
C 	C 	0.40860 0.57900 0.49460 -0.12800
H 	H 	0.38930 0.59450 0.51000 0.08600
C 	C 	0.40380 0.50360 0.46630 0.07200
H 	H 	0.38100 0.46980 0.46320 -0.01200
C 	C 	0.44800 0.70830 0.52960 0.08800
C 	C 	0.48160 0.83450 0.55480 0.08100
C 	C 	0.43210 0.78640 0.58590 0.10200
C 	C 	0.40730 0.79690 0.61890 0.07900
C 	C 	0.37110 0.75750 0.61390 -0.13200
H 	H 	0.36230 0.71950 0.59020 0.09300
C 	C 	0.34770 0.77470 0.64460 0.08000
H 	H 	0.32260 0.75130 0.63980 -0.01200
C 	C 	0.39590 0.85750 0.68620 0.08800
H 	H 	0.40520 0.89060 0.71150 -0.02200
C 	C 	0.42000 0.84580 0.65640 -0.13800
H 	H 	0.44480 0.87110 0.66160 0.09500
C 	C 	0.51400 0.89720 0.55550 0.06800
C 	C 	0.53270 0.90730 0.52150 -0.15600
H 	H 	0.52470 0.87350 0.49620 0.08800
C 	C 	0.56300 0.96660 0.52410 0.09100
H 	H 	0.57460 0.97350 0.49970 -0.01400
C 	C 	0.55930 0.00250 0.59410 0.08600
H 	H 	0.56860 0.03430 0.61980 -0.02100
C 	C 	0.52860 0.94560 0.59310 -0.14900
H 	H 	0.51740 0.93920 0.61770 0.09600
C 	C 	0.17860 0.54660 0.09920 0.06900
H 	H 	0.16730 0.57200 0.07240 -0.00400
C 	C 	0.20780 0.59390 0.12610 -0.12300
H 	H 	0.21530 0.65140 0.11820 0.09300
C 	C 	0.22570 0.55350 0.16520 0.05700
C 	C 	0.21280 0.46960 0.17620 -0.13600
H 	H 	0.22450 0.44140 0.20220 0.09500
C 	C 	0.18230 0.42690 0.14840 0.07900
H 	H 	0.17340 0.37090 0.15650 -0.01000
I 	I 	0.64960 0.12900 0.50150 -0.11200
I 	I 	0.36700 0.27260 0.44150 -0.40300
I 	I 	0.46930 0.32460 0.37820 0.14100
I 	I 	0.59850 0.22690 0.61100 -0.15600
I 	I 	0.76420 0.73961 0.20390 -0.38000
I 	I 	0.86921 0.66160 0.30150 -0.40800
I 	I 	0.14587 0.60730 0.49441 -0.23100
I 	I 	0.88310 0.75352 0.43692 0.06900
I 	I 	0.97701 0.83708 0.36496 -0.51800
I 	I 	0.10616 0.74810 0.60575 -0.19100
Zn	Zn	0.82629 0.64855 0.22601 1.16400
Zn	Zn	0.91821 0.87114 0.39994 1.15400
Zn	Zn	0.12329 0.60391 0.56750 1.16100
N 	N 	0.81620 0.50980 0.21620 -0.27600
N 	N 	0.76540 0.18750 0.18720 -0.13800
N 	N 	0.81940 0.17710 0.24560 -0.13400
N 	N 	0.77890 0.04840 0.22600 -0.14100
N 	N 	0.88010 0.94000 0.35240 -0.27500
N 	N 	0.93070 0.97890 0.44390 -0.27300
N 	N 	0.92470 0.21360 0.55830 -0.13200
N 	N 	0.97650 0.26690 0.52540 -0.14800
N 	N 	0.95950 0.34770 0.58510 -0.13200
N 	N 	0.86020 0.32370 0.68070 -0.28100
N 	N 	0.07690 0.51510 0.56000 -0.28200
N 	N 	0.66560 0.96380 0.11050 -0.27500
C 	C 	0.78410 0.47500 0.19290 0.08400
H 	H 	0.76550 0.51480 0.17800 -0.01600
C 	C 	0.77670 0.38120 0.18950 -0.13800
H 	H 	0.75410 0.35940 0.17200 0.08800
C 	C 	0.80330 0.32200 0.21230 0.06800
C 	C 	0.83770 0.35800 0.23620 -0.13200
H 	H 	0.85680 0.31970 0.25120 0.08900
C 	C 	0.84270 0.45120 0.23730 0.07200
H 	H 	0.86570 0.47480 0.25330 -0.01600
C 	C 	0.79560 0.22320 0.21430 0.10100
C 	C 	0.75860 0.09910 0.19510 0.08900
C 	C 	0.80970 0.09020 0.24970 0.09900
C 	C 	0.83380 0.03650 0.28510 0.06600
C 	C 	0.82410 0.94870 0.29580 -0.14000
H 	H 	0.80190 0.92070 0.28030 0.08600
C 	C 	0.84770 0.90340 0.32960 0.07900
H 	H 	0.84080 0.84490 0.33680 -0.01400
C 	C 	0.89000 0.02390 0.34140 0.07900
H 	H 	0.91300 0.04910 0.35650 -0.01000
C 	C 	0.86750 0.07540 0.30850 -0.12900
H 	H 	0.87480 0.13430 0.30240 0.09600
C 	C 	0.96350 0.02810 0.44860 0.07200
H 	H 	0.98250 0.01070 0.43310 -0.00900
C 	C 	0.97010 0.10390 0.47570 -0.12600
H 	H 	0.99300 0.13700 0.47800 0.07500
C 	C 	0.94200 0.12940 0.49930 0.05600
C 	C 	0.90860 0.07900 0.49460 -0.12800
H 	H 	0.88930 0.09450 0.51000 0.08600
C 	C 	0.90380 0.00360 0.46630 0.07200
H 	H 	0.88100 0.96980 0.46320 -0.01200
C 	C 	0.94800 0.20830 0.52960 0.08800
C 	C 	0.98160 0.33450 0.55480 0.08100
C 	C 	0.93210 0.28640 0.58590 0.10200
C 	C 	0.90730 0.29690 0.61890 0.07900
C 	C 	0.87110 0.25750 0.61390 -0.13200
H 	H 	0.86230 0.21950 0.59020 0.09300
C 	C 	0.84770 0.27470 0.64460 0.08000
H 	H 	0.82260 0.25130 0.63980 -0.01200
C 	C 	0.89590 0.35750 0.68620 0.08800
H 	H 	0.90520 0.39060 0.71150 -0.02200
C 	C 	0.92000 0.34580 0.65640 -0.13800
H 	H 	0.94480 0.37110 0.66160 0.09500
C 	C 	0.01400 0.39720 0.55550 0.06800
C 	C 	0.03270 0.40730 0.52150 -0.15600
H 	H 	0.02470 0.37350 0.49620 0.08800
C 	C 	0.06300 0.46660 0.52410 0.09100
H 	H 	0.07460 0.47350 0.49970 -0.01400
C 	C 	0.05930 0.50250 0.59410 0.08600
H 	H 	0.06860 0.53430 0.61980 -0.02100
C 	C 	0.02860 0.44560 0.59310 -0.14900
H 	H 	0.01740 0.43920 0.61770 0.09600
C 	C 	0.67860 0.04660 0.09920 0.06900
H 	H 	0.66730 0.07200 0.07240 -0.00400
C 	C 	0.70780 0.09390 0.12610 -0.12300
H 	H 	0.71530 0.15140 0.11820 0.09300
C 	C 	0.72570 0.05350 0.16520 0.05700
C 	C 	0.71280 0.96960 0.17620 -0.13600
H 	H 	0.72450 0.94140 0.20220 0.09500
C 	C 	0.68230 0.92690 0.14840 0.07900
H 	H 	0.67340 0.87090 0.15650 -0.01000
I 	I 	0.14960 0.62900 0.50150 -0.11200
I 	I 	0.86700 0.77260 0.44150 -0.40300
I 	I 	0.96930 0.82460 0.37820 0.14100
I 	I 	0.09850 0.72690 0.61100 -0.15600
