data_crystal

_cell_length_a 35.40760
_cell_length_b 14.85010
_cell_length_c 30.90560
_cell_angle_alpha 90.00000
_cell_angle_beta  101.97200
_cell_angle_gamma 90.00000

_symmetry_space_group_name_	'P 1'
_symmetry_space_group_name_H-M	'P 1'

loop_
_symmetry_equiv_pos_as_xyz
  x,y,z

loop_
_atom_site_label
_atom_site_type_symbol
_atom_site_fract_x
_atom_site_fract_y
_atom_site_fract_z
_atom_site_charge
I 	I 	0.76774 0.73436 0.70723 -0.00100
I 	I 	0.47140 0.65192 0.37040 -0.35400
I 	I 	0.87059 0.65295 0.80719 -0.40900
I 	I 	0.64343 0.90904 0.48596 -0.37000
I 	I 	0.60370 0.76281 0.59934 -0.27900
I 	I 	0.37808 0.73782 0.44353 -0.38200
Zn	Zn	0.41438 0.62461 0.40699 1.16400
Zn	Zn	0.62307 0.90380 0.55972 1.16300
Zn	Zn	0.82820 0.63950 0.73012 1.15500
N 	N 	0.81578 0.50300 0.72080 -0.27000
N 	N 	0.81774 0.17400 0.74710 -0.13700
N 	N 	0.42848 0.51920 0.45210 -0.26800
N 	N 	0.77699 0.04820 0.72600 -0.14300
N 	N 	0.66634 0.96700 0.60490 -0.26900
N 	N 	0.47543 0.23090 0.52951 -0.14700
N 	N 	0.36203 0.16110 0.68410 -0.27900
N 	N 	0.76460 0.18640 0.68660 -0.14100
N 	N 	0.57694 0.99030 0.55710 -0.27800
N 	N 	0.42557 0.27940 0.56510 -0.13400
N 	N 	0.46138 0.14810 0.59000 -0.13500
C 	C 	0.80710 0.08960 0.75170 0.10300
C 	C 	0.43340 0.20710 0.59160 0.10700
C 	C 	0.75750 0.09900 0.69290 0.08500
C 	C 	0.72540 0.05460 0.66180 0.04500
C 	C 	0.48150 0.16410 0.55890 0.09200
C 	C 	0.44140 0.36930 0.50650 0.04900
C 	C 	0.80210 0.31840 0.71450 0.05200
C 	C 	0.79450 0.22000 0.71550 0.10400
C 	C 	0.56260 0.04140 0.52240 0.08000
H 	H 	0.57400 0.03870 0.49720 -0.00700
C 	C 	0.67760 0.04980 0.59540 0.06700
H 	H 	0.66530 0.07720 0.56840 0.00100
C 	C 	0.35100 0.21750 0.64910 0.06500
H 	H 	0.32660 0.24660 0.64550 -0.01000
C 	C 	0.51430 0.10190 0.55740 0.05800
C 	C 	0.46740 0.39270 0.48070 -0.11400
H 	H 	0.48980 0.35730 0.48090 0.07100
C 	C 	0.40890 0.19140 0.62370 0.06500
C 	C 	0.70630 0.09630 0.62360 -0.11200
H 	H 	0.71280 0.15590 0.61680 0.08400
C 	C 	0.44762 0.28860 0.53520 0.09200
C 	C 	0.78330 0.47010 0.69590 0.06900
H 	H 	0.76480 0.51120 0.68030 -0.00800
C 	C 	0.40310 0.49510 0.47700 0.06600
H 	H 	0.38070 0.53080 0.47580 -0.01100
C 	C 	0.71420 0.96810 0.67080 -0.12100
H 	H 	0.72690 0.93790 0.69690 0.08500
C 	C 	0.46010 0.46870 0.45460 0.06700
H 	H 	0.47840 0.48590 0.43760 -0.00700
C 	C 	0.68480 0.92630 0.64190 0.06900
H 	H 	0.67730 0.86720 0.64840 -0.00300
C 	C 	0.84220 0.44410 0.74210 0.05700
H 	H 	0.86570 0.46660 0.75930 -0.01200
C 	C 	0.77560 0.37920 0.69180 -0.11900
H 	H 	0.75230 0.35850 0.67360 0.07700
C 	C 	0.37340 0.23400 0.61900 -0.11400
H 	H 	0.36480 0.27420 0.59510 0.08400
C 	C 	0.40850 0.42190 0.50390 -0.11600
H 	H 	0.38980 0.40660 0.52070 0.07900
C 	C 	0.53170 0.09850 0.52160 -0.13000
H 	H 	0.52250 0.13510 0.49640 0.07900
C 	C 	0.83630 0.35220 0.73990 -0.11200
H 	H 	0.85530 0.31240 0.75550 0.08000
C 	C 	0.39570 0.12160 0.68820 0.08400
H 	H 	0.40390 0.08270 0.71270 -0.02100
C 	C 	0.52980 0.05040 0.59340 -0.13100
H 	H 	0.51960 0.05320 0.61950 0.08800
C 	C 	0.41990 0.13350 0.65870 -0.12300
H 	H 	0.44380 0.10220 0.66270 0.08500
C 	C 	0.56010 0.99490 0.59120 0.08600
H 	H 	0.56960 0.95710 0.61580 -0.02000
C 	C 	0.83062 0.03802 0.78878 0.05100
C 	C 	0.82372 0.94673 0.79517 -0.11700
H 	H 	0.80400 0.91560 0.77520 0.07000
C 	C 	0.86035 0.08000 0.81790 -0.11300
H 	H 	0.86580 0.14200 0.81460 0.09000
C 	C 	0.84578 0.90230 0.83078 0.05900
H 	H 	0.84020 0.84110 0.83590 -0.00900
C 	C 	0.88198 0.02990 0.85186 0.06700
H 	H 	0.90280 0.05850 0.87130 -0.00400
N 	N 	0.87504 0.94350 0.85858 -0.26600
I 	I 	0.61133 0.76200 0.59040 -0.07600
I 	I 	0.75740 0.72490 0.69240 -0.32400
I 	I 	0.26774 0.23436 0.70723 -0.00100
I 	I 	0.97140 0.15192 0.37040 -0.35400
I 	I 	0.37059 0.15295 0.80719 -0.40900
I 	I 	0.14343 0.40904 0.48596 -0.37000
I 	I 	0.10370 0.26281 0.59934 -0.27900
I 	I 	0.87808 0.23782 0.44353 -0.38200
Zn	Zn	0.91438 0.12461 0.40699 1.16400
Zn	Zn	0.12307 0.40380 0.55972 1.16300
Zn	Zn	0.32820 0.13950 0.73012 1.15500
N 	N 	0.31578 0.00300 0.72080 -0.27000
N 	N 	0.31774 0.67400 0.74710 -0.13700
N 	N 	0.92848 0.01920 0.45210 -0.26800
N 	N 	0.27699 0.54820 0.72600 -0.14300
N 	N 	0.16634 0.46700 0.60490 -0.26900
N 	N 	0.97543 0.73090 0.52951 -0.14700
N 	N 	0.86203 0.66110 0.68410 -0.27900
N 	N 	0.26460 0.68640 0.68660 -0.14100
N 	N 	0.07694 0.49030 0.55710 -0.27800
N 	N 	0.92557 0.77940 0.56510 -0.13400
N 	N 	0.96138 0.64810 0.59000 -0.13500
C 	C 	0.30710 0.58960 0.75170 0.10300
C 	C 	0.93340 0.70710 0.59160 0.10700
C 	C 	0.25750 0.59900 0.69290 0.08500
C 	C 	0.22540 0.55460 0.66180 0.04500
C 	C 	0.98150 0.66410 0.55890 0.09200
C 	C 	0.94140 0.86930 0.50650 0.04900
C 	C 	0.30210 0.81840 0.71450 0.05200
C 	C 	0.29450 0.72000 0.71550 0.10400
C 	C 	0.06260 0.54140 0.52240 0.08000
H 	H 	0.07400 0.53870 0.49720 -0.00700
C 	C 	0.17760 0.54980 0.59540 0.06700
H 	H 	0.16530 0.57720 0.56840 0.00100
C 	C 	0.85100 0.71750 0.64910 0.06500
H 	H 	0.82660 0.74660 0.64550 -0.01000
C 	C 	0.01430 0.60190 0.55740 0.05800
C 	C 	0.96740 0.89270 0.48070 -0.11400
H 	H 	0.98980 0.85730 0.48090 0.07100
C 	C 	0.90890 0.69140 0.62370 0.06500
C 	C 	0.20630 0.59630 0.62360 -0.11100
H 	H 	0.21280 0.65590 0.61680 0.08400
C 	C 	0.94762 0.78860 0.53520 0.09200
C 	C 	0.28330 0.97010 0.69590 0.06900
H 	H 	0.26480 0.01120 0.68030 -0.00800
C 	C 	0.90310 0.99510 0.47700 0.06600
H 	H 	0.88070 0.03080 0.47580 -0.01100
C 	C 	0.21420 0.46810 0.67080 -0.12100
H 	H 	0.22690 0.43790 0.69690 0.08500
C 	C 	0.96010 0.96870 0.45460 0.06700
H 	H 	0.97840 0.98590 0.43760 -0.00700
C 	C 	0.18480 0.42630 0.64190 0.06900
H 	H 	0.17730 0.36720 0.64840 -0.00300
C 	C 	0.34220 0.94410 0.74210 0.05700
H 	H 	0.36570 0.96660 0.75930 -0.01200
C 	C 	0.27560 0.87920 0.69180 -0.11800
H 	H 	0.25230 0.85850 0.67360 0.07700
C 	C 	0.87340 0.73400 0.61900 -0.11400
H 	H 	0.86480 0.77420 0.59510 0.08400
C 	C 	0.90850 0.92190 0.50390 -0.11600
H 	H 	0.88980 0.90660 0.52070 0.07900
C 	C 	0.03170 0.59850 0.52160 -0.13000
H 	H 	0.02250 0.63510 0.49640 0.07900
C 	C 	0.33630 0.85220 0.73990 -0.11200
H 	H 	0.35530 0.81240 0.75550 0.08000
C 	C 	0.89570 0.62160 0.68820 0.08400
H 	H 	0.90390 0.58270 0.71270 -0.02100
C 	C 	0.02980 0.55040 0.59340 -0.13100
H 	H 	0.01960 0.55320 0.61950 0.08800
C 	C 	0.91990 0.63350 0.65870 -0.12300
H 	H 	0.94380 0.60220 0.66270 0.08500
C 	C 	0.06010 0.49490 0.59120 0.08700
H 	H 	0.06960 0.45710 0.61580 -0.02000
C 	C 	0.33062 0.53802 0.78878 0.05100
C 	C 	0.32372 0.44673 0.79517 -0.11700
H 	H 	0.30400 0.41560 0.77520 0.07000
C 	C 	0.36035 0.58000 0.81790 -0.11300
H 	H 	0.36580 0.64200 0.81460 0.09000
C 	C 	0.34578 0.40230 0.83078 0.05900
H 	H 	0.34020 0.34110 0.83590 -0.00900
C 	C 	0.38198 0.52990 0.85186 0.06700
H 	H 	0.40280 0.55850 0.87130 -0.00400
N 	N 	0.37504 0.44350 0.85858 -0.26600
I 	I 	0.11133 0.26200 0.59040 -0.07600
I 	I 	0.25740 0.22490 0.69240 -0.32400
I 	I 	0.76774 0.26564 0.20723 -0.00100
I 	I 	0.47140 0.34808 0.87040 -0.35400
I 	I 	0.87059 0.34705 0.30719 -0.40900
I 	I 	0.64343 0.09096 0.98596 -0.37000
I 	I 	0.60370 0.23719 0.09934 -0.27900
I 	I 	0.37808 0.26218 0.94353 -0.38200
Zn	Zn	0.41438 0.37539 0.90699 1.16400
Zn	Zn	0.62307 0.09620 0.05972 1.16300
Zn	Zn	0.82820 0.36050 0.23012 1.15500
N 	N 	0.81578 0.49700 0.22080 -0.27000
N 	N 	0.81774 0.82600 0.24710 -0.13700
N 	N 	0.42848 0.48080 0.95210 -0.26800
N 	N 	0.77699 0.95180 0.22600 -0.14300
N 	N 	0.66634 0.03300 0.10490 -0.26900
N 	N 	0.47543 0.76910 0.02951 -0.14700
N 	N 	0.36203 0.83890 0.18410 -0.27900
N 	N 	0.76460 0.81360 0.18660 -0.14100
N 	N 	0.57694 0.00970 0.05710 -0.27800
N 	N 	0.42557 0.72060 0.06510 -0.13400
N 	N 	0.46138 0.85190 0.09000 -0.13500
C 	C 	0.80710 0.91040 0.25170 0.10300
C 	C 	0.43340 0.79290 0.09160 0.10700
C 	C 	0.75750 0.90100 0.19290 0.08500
C 	C 	0.72540 0.94540 0.16180 0.04500
C 	C 	0.48150 0.83590 0.05890 0.09300
C 	C 	0.44140 0.63070 0.00650 0.04900
C 	C 	0.80210 0.68160 0.21450 0.05200
C 	C 	0.79450 0.78000 0.21550 0.10400
C 	C 	0.56260 0.95860 0.02240 0.08100
H 	H 	0.57400 0.96130 0.99720 -0.00800
C 	C 	0.67760 0.95020 0.09540 0.06700
H 	H 	0.66530 0.92280 0.06840 0.00100
C 	C 	0.35100 0.78250 0.14910 0.06500
H 	H 	0.32660 0.75340 0.14550 -0.01000
C 	C 	0.51430 0.89810 0.05740 0.05800
C 	C 	0.46740 0.60730 0.98070 -0.11400
H 	H 	0.48980 0.64270 0.98090 0.07100
C 	C 	0.40890 0.80860 0.12370 0.06500
C 	C 	0.70630 0.90370 0.12360 -0.11200
H 	H 	0.71280 0.84410 0.11680 0.08400
C 	C 	0.44762 0.71140 0.03520 0.09200
C 	C 	0.78330 0.52990 0.19590 0.06900
H 	H 	0.76480 0.48880 0.18030 -0.00800
C 	C 	0.40310 0.50490 0.97700 0.06600
H 	H 	0.38070 0.46920 0.97580 -0.01100
C 	C 	0.71420 0.03190 0.17080 -0.12200
H 	H 	0.72690 0.06210 0.19690 0.08500
C 	C 	0.46010 0.53130 0.95460 0.06700
H 	H 	0.47840 0.51410 0.93760 -0.00700
C 	C 	0.68480 0.07370 0.14190 0.06900
H 	H 	0.67730 0.13280 0.14840 -0.00300
C 	C 	0.84220 0.55590 0.24210 0.05700
H 	H 	0.86570 0.53340 0.25930 -0.01200
C 	C 	0.77560 0.62080 0.19180 -0.11900
H 	H 	0.75230 0.64150 0.17360 0.07700
C 	C 	0.37340 0.76600 0.11900 -0.11400
H 	H 	0.36480 0.72580 0.09510 0.08400
C 	C 	0.40850 0.57810 0.00390 -0.11600
H 	H 	0.38980 0.59340 0.02070 0.07900
C 	C 	0.53170 0.90150 0.02160 -0.12900
H 	H 	0.52250 0.86490 0.99640 0.07900
C 	C 	0.83630 0.64780 0.23990 -0.11200
H 	H 	0.85530 0.68760 0.25550 0.08000
C 	C 	0.39570 0.87840 0.18820 0.08400
H 	H 	0.40390 0.91730 0.21270 -0.02100
C 	C 	0.52980 0.94960 0.09340 -0.13100
H 	H 	0.51960 0.94680 0.11950 0.08800
C 	C 	0.41990 0.86650 0.15870 -0.12300
H 	H 	0.44380 0.89780 0.16270 0.08500
C 	C 	0.56010 0.00510 0.09120 0.08600
H 	H 	0.56960 0.04290 0.11580 -0.02000
C 	C 	0.83062 0.96198 0.28878 0.05100
C 	C 	0.82372 0.05327 0.29517 -0.11700
H 	H 	0.80400 0.08440 0.27520 0.07000
C 	C 	0.86035 0.92000 0.31790 -0.11300
H 	H 	0.86580 0.85800 0.31460 0.09000
C 	C 	0.84578 0.09770 0.33078 0.05900
H 	H 	0.84020 0.15890 0.33590 -0.00900
C 	C 	0.88198 0.97010 0.35186 0.06700
H 	H 	0.90280 0.94150 0.37130 -0.00400
N 	N 	0.87504 0.05650 0.35858 -0.26600
I 	I 	0.61133 0.23800 0.09040 -0.07600
I 	I 	0.75740 0.27510 0.19240 -0.32400
I 	I 	0.26774 0.76564 0.20723 -0.00100
I 	I 	0.97140 0.84808 0.87040 -0.35400
I 	I 	0.37059 0.84705 0.30719 -0.40900
I 	I 	0.14343 0.59096 0.98596 -0.37000
I 	I 	0.10370 0.73719 0.09934 -0.27900
I 	I 	0.87808 0.76218 0.94353 -0.38200
Zn	Zn	0.91438 0.87539 0.90699 1.16400
Zn	Zn	0.12307 0.59620 0.05972 1.16300
Zn	Zn	0.32820 0.86050 0.23012 1.15500
N 	N 	0.31578 0.99700 0.22080 -0.27000
N 	N 	0.31774 0.32600 0.24710 -0.13700
N 	N 	0.92848 0.98080 0.95210 -0.26900
N 	N 	0.27699 0.45180 0.22600 -0.14300
N 	N 	0.16634 0.53300 0.10490 -0.26900
N 	N 	0.97543 0.26910 0.02951 -0.14700
N 	N 	0.86203 0.33890 0.18410 -0.27900
N 	N 	0.26460 0.31360 0.18660 -0.14100
N 	N 	0.07694 0.50970 0.05710 -0.27800
N 	N 	0.92557 0.22060 0.06510 -0.13400
N 	N 	0.96138 0.35190 0.09000 -0.13500
C 	C 	0.30710 0.41040 0.25170 0.10300
C 	C 	0.93340 0.29290 0.09160 0.10700
C 	C 	0.25750 0.40100 0.19290 0.08500
C 	C 	0.22540 0.44540 0.16180 0.04500
C 	C 	0.98150 0.33590 0.05890 0.09200
C 	C 	0.94140 0.13070 0.00650 0.04900
C 	C 	0.30210 0.18160 0.21450 0.05200
C 	C 	0.29450 0.28000 0.21550 0.10400
C 	C 	0.06260 0.45860 0.02240 0.08000
H 	H 	0.07400 0.46130 0.99720 -0.00700
C 	C 	0.17760 0.45020 0.09540 0.06700
H 	H 	0.16530 0.42280 0.06840 0.00100
C 	C 	0.85100 0.28250 0.14910 0.06500
H 	H 	0.82660 0.25340 0.14550 -0.01000
C 	C 	0.01430 0.39810 0.05740 0.05800
C 	C 	0.96740 0.10730 0.98070 -0.11400
H 	H 	0.98980 0.14270 0.98090 0.07100
C 	C 	0.90890 0.30860 0.12370 0.06500
C 	C 	0.20630 0.40370 0.12360 -0.11100
H 	H 	0.21280 0.34410 0.11680 0.08400
C 	C 	0.94762 0.21140 0.03520 0.09200
C 	C 	0.28330 0.02990 0.19590 0.06900
H 	H 	0.26480 0.98880 0.18030 -0.00800
C 	C 	0.90310 0.00490 0.97700 0.06700
H 	H 	0.88070 0.96920 0.97580 -0.01200
C 	C 	0.21420 0.53190 0.17080 -0.12100
H 	H 	0.22690 0.56210 0.19690 0.08500
C 	C 	0.96010 0.03130 0.95460 0.06700
H 	H 	0.97840 0.01410 0.93760 -0.00700
C 	C 	0.18480 0.57370 0.14190 0.06900
H 	H 	0.17730 0.63280 0.14840 -0.00300
C 	C 	0.34220 0.05590 0.24210 0.05700
H 	H 	0.36570 0.03340 0.25930 -0.01200
C 	C 	0.27560 0.12080 0.19180 -0.11800
H 	H 	0.25230 0.14150 0.17360 0.07700
C 	C 	0.87340 0.26600 0.11900 -0.11400
H 	H 	0.86480 0.22580 0.09510 0.08400
C 	C 	0.90850 0.07810 0.00390 -0.11600
H 	H 	0.88980 0.09340 0.02070 0.07900
C 	C 	0.03170 0.40150 0.02160 -0.13000
H 	H 	0.02250 0.36490 0.99640 0.08000
C 	C 	0.33630 0.14780 0.23990 -0.11100
H 	H 	0.35530 0.18760 0.25550 0.08000
C 	C 	0.89570 0.37840 0.18820 0.08400
H 	H 	0.90390 0.41730 0.21270 -0.02100
C 	C 	0.02980 0.44960 0.09340 -0.13100
H 	H 	0.01960 0.44680 0.11950 0.08800
C 	C 	0.91990 0.36650 0.15870 -0.12300
H 	H 	0.94380 0.39780 0.16270 0.08500
C 	C 	0.06010 0.50510 0.09120 0.08700
H 	H 	0.06960 0.54290 0.11580 -0.02000
C 	C 	0.33062 0.46198 0.28878 0.05100
C 	C 	0.32372 0.55327 0.29517 -0.11700
H 	H 	0.30400 0.58440 0.27520 0.07000
C 	C 	0.36035 0.42000 0.31790 -0.11300
H 	H 	0.36580 0.35800 0.31460 0.09000
C 	C 	0.34578 0.59770 0.33078 0.05900
H 	H 	0.34020 0.65890 0.33590 -0.00900
C 	C 	0.38198 0.47010 0.35186 0.06700
H 	H 	0.40280 0.44150 0.37130 -0.00400
N 	N 	0.37504 0.55650 0.35858 -0.26600
I 	I 	0.11133 0.73800 0.09040 -0.07600
I 	I 	0.25740 0.77510 0.19240 -0.32400
I 	I 	0.23226 0.73436 0.79277 -0.00100
I 	I 	0.52860 0.65192 0.12960 -0.35400
I 	I 	0.12941 0.65295 0.69281 -0.40900
I 	I 	0.35657 0.90904 0.01404 -0.37000
I 	I 	0.39630 0.76281 0.90066 -0.27900
I 	I 	0.62192 0.73782 0.05647 -0.38200
Zn	Zn	0.58562 0.62461 0.09301 1.16400
Zn	Zn	0.37693 0.90380 0.94028 1.16300
Zn	Zn	0.17180 0.63950 0.76988 1.15500
N 	N 	0.18422 0.50300 0.77920 -0.27000
N 	N 	0.18226 0.17400 0.75290 -0.13700
N 	N 	0.57152 0.51920 0.04790 -0.26800
N 	N 	0.22301 0.04820 0.77400 -0.14300
N 	N 	0.33366 0.96700 0.89510 -0.26900
N 	N 	0.52457 0.23090 0.97049 -0.14700
N 	N 	0.63797 0.16110 0.81590 -0.27900
N 	N 	0.23540 0.18640 0.81340 -0.14100
N 	N 	0.42306 0.99030 0.94290 -0.27800
N 	N 	0.57443 0.27940 0.93490 -0.13400
N 	N 	0.53862 0.14810 0.91000 -0.13500
C 	C 	0.19290 0.08960 0.74830 0.10300
C 	C 	0.56660 0.20710 0.90840 0.10700
C 	C 	0.24250 0.09900 0.80710 0.08500
C 	C 	0.27460 0.05460 0.83820 0.04500
C 	C 	0.51850 0.16410 0.94110 0.09300
C 	C 	0.55860 0.36930 0.99350 0.04900
C 	C 	0.19790 0.31840 0.78550 0.05200
C 	C 	0.20550 0.22000 0.78450 0.10400
C 	C 	0.43740 0.04140 0.97760 0.08100
H 	H 	0.42600 0.03870 0.00280 -0.00800
C 	C 	0.32240 0.04980 0.90460 0.06700
H 	H 	0.33470 0.07720 0.93160 0.00100
C 	C 	0.64900 0.21750 0.85090 0.06500
H 	H 	0.67340 0.24660 0.85450 -0.01000
C 	C 	0.48570 0.10190 0.94260 0.05800
C 	C 	0.53260 0.39270 0.01930 -0.11400
H 	H 	0.51020 0.35730 0.01910 0.07100
C 	C 	0.59110 0.19140 0.87630 0.06500
C 	C 	0.29370 0.09630 0.87640 -0.11200
H 	H 	0.28720 0.15590 0.88320 0.08400
C 	C 	0.55238 0.28860 0.96480 0.09200
C 	C 	0.21670 0.47010 0.80410 0.06900
H 	H 	0.23520 0.51120 0.81970 -0.00800
C 	C 	0.59690 0.49510 0.02300 0.06600
H 	H 	0.61930 0.53080 0.02420 -0.01100
C 	C 	0.28580 0.96810 0.82920 -0.12200
H 	H 	0.27310 0.93790 0.80310 0.08500
C 	C 	0.53990 0.46870 0.04540 0.06700
H 	H 	0.52160 0.48590 0.06240 -0.00700
C 	C 	0.31520 0.92630 0.85810 0.06900
H 	H 	0.32270 0.86720 0.85160 -0.00300
C 	C 	0.15780 0.44410 0.75790 0.05700
H 	H 	0.13430 0.46660 0.74070 -0.01200
C 	C 	0.22440 0.37920 0.80820 -0.11900
H 	H 	0.24770 0.35850 0.82640 0.07700
C 	C 	0.62660 0.23400 0.88100 -0.11400
H 	H 	0.63520 0.27420 0.90490 0.08400
C 	C 	0.59150 0.42190 0.99610 -0.11600
H 	H 	0.61020 0.40660 0.97930 0.07900
C 	C 	0.46830 0.09850 0.97840 -0.12900
H 	H 	0.47750 0.13510 0.00360 0.07900
C 	C 	0.16370 0.35220 0.76010 -0.11200
H 	H 	0.14470 0.31240 0.74450 0.08000
C 	C 	0.60430 0.12160 0.81180 0.08400
H 	H 	0.59610 0.08270 0.78730 -0.02100
C 	C 	0.47020 0.05040 0.90660 -0.13100
H 	H 	0.48040 0.05320 0.88050 0.08800
C 	C 	0.58010 0.13350 0.84130 -0.12300
H 	H 	0.55620 0.10220 0.83730 0.08500
C 	C 	0.43990 0.99490 0.90880 0.08600
H 	H 	0.43040 0.95710 0.88420 -0.02000
C 	C 	0.16938 0.03802 0.71122 0.05100
C 	C 	0.17628 0.94673 0.70483 -0.11700
H 	H 	0.19600 0.91560 0.72480 0.07000
C 	C 	0.13965 0.08000 0.68210 -0.11300
H 	H 	0.13420 0.14200 0.68540 0.09000
C 	C 	0.15422 0.90230 0.66922 0.05900
H 	H 	0.15980 0.84110 0.66410 -0.00900
C 	C 	0.11802 0.02990 0.64814 0.06700
H 	H 	0.09720 0.05850 0.62870 -0.00400
N 	N 	0.12496 0.94350 0.64142 -0.26600
I 	I 	0.38867 0.76200 0.90960 -0.07600
I 	I 	0.24260 0.72490 0.80760 -0.32400
I 	I 	0.73226 0.23436 0.79277 -0.00100
I 	I 	0.02860 0.15192 0.12960 -0.35400
I 	I 	0.62941 0.15295 0.69281 -0.40900
I 	I 	0.85657 0.40904 0.01404 -0.37000
I 	I 	0.89630 0.26281 0.90066 -0.27900
I 	I 	0.12192 0.23782 0.05647 -0.38200
Zn	Zn	0.08562 0.12461 0.09301 1.16400
Zn	Zn	0.87693 0.40380 0.94028 1.16300
Zn	Zn	0.67180 0.13950 0.76988 1.15500
N 	N 	0.68422 0.00300 0.77920 -0.27000
N 	N 	0.68226 0.67400 0.75290 -0.13700
N 	N 	0.07152 0.01920 0.04790 -0.26900
N 	N 	0.72301 0.54820 0.77400 -0.14300
N 	N 	0.83366 0.46700 0.89510 -0.26900
N 	N 	0.02457 0.73090 0.97049 -0.14700
N 	N 	0.13797 0.66110 0.81590 -0.27900
N 	N 	0.73540 0.68640 0.81340 -0.14100
N 	N 	0.92306 0.49030 0.94290 -0.27800
N 	N 	0.07443 0.77940 0.93490 -0.13400
N 	N 	0.03862 0.64810 0.91000 -0.13500
C 	C 	0.69290 0.58960 0.74830 0.10300
C 	C 	0.06660 0.70710 0.90840 0.10700
C 	C 	0.74250 0.59900 0.80710 0.08500
C 	C 	0.77460 0.55460 0.83820 0.04500
C 	C 	0.01850 0.66410 0.94110 0.09200
C 	C 	0.05860 0.86930 0.99350 0.04900
C 	C 	0.69790 0.81840 0.78550 0.05200
C 	C 	0.70550 0.72000 0.78450 0.10400
C 	C 	0.93740 0.54140 0.97760 0.08000
H 	H 	0.92600 0.53870 0.00280 -0.00700
C 	C 	0.82240 0.54980 0.90460 0.06700
H 	H 	0.83470 0.57720 0.93160 0.00100
C 	C 	0.14900 0.71750 0.85090 0.06500
H 	H 	0.17340 0.74660 0.85450 -0.01000
C 	C 	0.98570 0.60190 0.94260 0.05800
C 	C 	0.03260 0.89270 0.01930 -0.11400
H 	H 	0.01020 0.85730 0.01910 0.07100
C 	C 	0.09110 0.69140 0.87630 0.06500
C 	C 	0.79370 0.59630 0.87640 -0.11100
H 	H 	0.78720 0.65590 0.88320 0.08400
C 	C 	0.05238 0.78860 0.96480 0.09200
C 	C 	0.71670 0.97010 0.80410 0.06900
H 	H 	0.73520 0.01120 0.81970 -0.00800
C 	C 	0.09690 0.99510 0.02300 0.06700
H 	H 	0.11930 0.03080 0.02420 -0.01200
C 	C 	0.78580 0.46810 0.82920 -0.12100
H 	H 	0.77310 0.43790 0.80310 0.08500
C 	C 	0.03990 0.96870 0.04540 0.06700
H 	H 	0.02160 0.98590 0.06240 -0.00700
C 	C 	0.81520 0.42630 0.85810 0.06900
H 	H 	0.82270 0.36720 0.85160 -0.00300
C 	C 	0.65780 0.94410 0.75790 0.05700
H 	H 	0.63430 0.96660 0.74070 -0.01200
C 	C 	0.72440 0.87920 0.80820 -0.11800
H 	H 	0.74770 0.85850 0.82640 0.07700
C 	C 	0.12660 0.73400 0.88100 -0.11400
H 	H 	0.13520 0.77420 0.90490 0.08400
C 	C 	0.09150 0.92190 0.99610 -0.11600
H 	H 	0.11020 0.90660 0.97930 0.07900
C 	C 	0.96830 0.59850 0.97840 -0.13000
H 	H 	0.97750 0.63510 0.00360 0.08000
C 	C 	0.66370 0.85220 0.76010 -0.11100
H 	H 	0.64470 0.81240 0.74450 0.08000
C 	C 	0.10430 0.62160 0.81180 0.08400
H 	H 	0.09610 0.58270 0.78730 -0.02100
C 	C 	0.97020 0.55040 0.90660 -0.13100
H 	H 	0.98040 0.55320 0.88050 0.08800
C 	C 	0.08010 0.63350 0.84130 -0.12300
H 	H 	0.05620 0.60220 0.83730 0.08500
C 	C 	0.93990 0.49490 0.90880 0.08700
H 	H 	0.93040 0.45710 0.88420 -0.02000
C 	C 	0.66938 0.53802 0.71122 0.05100
C 	C 	0.67628 0.44673 0.70483 -0.11700
H 	H 	0.69600 0.41560 0.72480 0.07000
C 	C 	0.63965 0.58000 0.68210 -0.11300
H 	H 	0.63420 0.64200 0.68540 0.09000
C 	C 	0.65422 0.40230 0.66922 0.05900
H 	H 	0.65980 0.34110 0.66410 -0.00900
C 	C 	0.61802 0.52990 0.64814 0.06700
H 	H 	0.59720 0.55850 0.62870 -0.00400
N 	N 	0.62496 0.44350 0.64142 -0.26600
I 	I 	0.88867 0.26200 0.90960 -0.07600
I 	I 	0.74260 0.22490 0.80760 -0.32400
I 	I 	0.23226 0.26564 0.29277 -0.00100
I 	I 	0.52860 0.34808 0.62960 -0.35400
I 	I 	0.12941 0.34705 0.19281 -0.40900
I 	I 	0.35657 0.09096 0.51404 -0.37000
I 	I 	0.39630 0.23719 0.40066 -0.27900
I 	I 	0.62192 0.26218 0.55647 -0.38200
Zn	Zn	0.58562 0.37539 0.59301 1.16400
Zn	Zn	0.37693 0.09620 0.44028 1.16300
Zn	Zn	0.17180 0.36050 0.26988 1.15500
N 	N 	0.18422 0.49700 0.27920 -0.27000
N 	N 	0.18226 0.82600 0.25290 -0.13700
N 	N 	0.57152 0.48080 0.54790 -0.26800
N 	N 	0.22301 0.95180 0.27400 -0.14300
N 	N 	0.33366 0.03300 0.39510 -0.26900
N 	N 	0.52457 0.76910 0.47049 -0.14700
N 	N 	0.63797 0.83890 0.31590 -0.27900
N 	N 	0.23540 0.81360 0.31340 -0.14100
N 	N 	0.42306 0.00970 0.44290 -0.27800
N 	N 	0.57443 0.72060 0.43490 -0.13400
N 	N 	0.53862 0.85190 0.41000 -0.13500
C 	C 	0.19290 0.91040 0.24830 0.10300
C 	C 	0.56660 0.79290 0.40840 0.10700
C 	C 	0.24250 0.90100 0.30710 0.08500
C 	C 	0.27460 0.94540 0.33820 0.04500
C 	C 	0.51850 0.83590 0.44110 0.09200
C 	C 	0.55860 0.63070 0.49350 0.04900
C 	C 	0.19790 0.68160 0.28550 0.05200
C 	C 	0.20550 0.78000 0.28450 0.10400
C 	C 	0.43740 0.95860 0.47760 0.08000
H 	H 	0.42600 0.96130 0.50280 -0.00700
C 	C 	0.32240 0.95020 0.40460 0.06700
H 	H 	0.33470 0.92280 0.43160 0.00100
C 	C 	0.64900 0.78250 0.35090 0.06500
H 	H 	0.67340 0.75340 0.35450 -0.01000
C 	C 	0.48570 0.89810 0.44260 0.05800
C 	C 	0.53260 0.60730 0.51930 -0.11400
H 	H 	0.51020 0.64270 0.51910 0.07100
C 	C 	0.59110 0.80860 0.37630 0.06500
C 	C 	0.29370 0.90370 0.37640 -0.11200
H 	H 	0.28720 0.84410 0.38320 0.08400
C 	C 	0.55238 0.71140 0.46480 0.09200
C 	C 	0.21670 0.52990 0.30410 0.06900
H 	H 	0.23520 0.48880 0.31970 -0.00800
C 	C 	0.59690 0.50490 0.52300 0.06600
H 	H 	0.61930 0.46920 0.52420 -0.01100
C 	C 	0.28580 0.03190 0.32920 -0.12100
H 	H 	0.27310 0.06210 0.30310 0.08500
C 	C 	0.53990 0.53130 0.54540 0.06700
H 	H 	0.52160 0.51410 0.56240 -0.00700
C 	C 	0.31520 0.07370 0.35810 0.06900
H 	H 	0.32270 0.13280 0.35160 -0.00300
C 	C 	0.15780 0.55590 0.25790 0.05700
H 	H 	0.13430 0.53340 0.24070 -0.01200
C 	C 	0.22440 0.62080 0.30820 -0.11900
H 	H 	0.24770 0.64150 0.32640 0.07700
C 	C 	0.62660 0.76600 0.38100 -0.11400
H 	H 	0.63520 0.72580 0.40490 0.08400
C 	C 	0.59150 0.57810 0.49610 -0.11600
H 	H 	0.61020 0.59340 0.47930 0.07900
C 	C 	0.46830 0.90150 0.47840 -0.13000
H 	H 	0.47750 0.86490 0.50360 0.07900
C 	C 	0.16370 0.64780 0.26010 -0.11200
H 	H 	0.14470 0.68760 0.24450 0.08000
C 	C 	0.60430 0.87840 0.31180 0.08400
H 	H 	0.59610 0.91730 0.28730 -0.02100
C 	C 	0.47020 0.94960 0.40660 -0.13100
H 	H 	0.48040 0.94680 0.38050 0.08800
C 	C 	0.58010 0.86650 0.34130 -0.12300
H 	H 	0.55620 0.89780 0.33730 0.08500
C 	C 	0.43990 0.00510 0.40880 0.08600
H 	H 	0.43040 0.04290 0.38420 -0.02000
C 	C 	0.16938 0.96198 0.21122 0.05100
C 	C 	0.17628 0.05327 0.20483 -0.11700
H 	H 	0.19600 0.08440 0.22480 0.07000
C 	C 	0.13965 0.92000 0.18210 -0.11300
H 	H 	0.13420 0.85800 0.18540 0.09000
C 	C 	0.15422 0.09770 0.16922 0.05900
H 	H 	0.15980 0.15890 0.16410 -0.00900
C 	C 	0.11802 0.97010 0.14814 0.06700
H 	H 	0.09720 0.94150 0.12870 -0.00400
N 	N 	0.12496 0.05650 0.14142 -0.26600
I 	I 	0.38867 0.23800 0.40960 -0.07600
I 	I 	0.24260 0.27510 0.30760 -0.32400
I 	I 	0.73226 0.76564 0.29277 -0.00100
I 	I 	0.02860 0.84808 0.62960 -0.35400
I 	I 	0.62941 0.84705 0.19281 -0.40900
I 	I 	0.85657 0.59096 0.51404 -0.37000
I 	I 	0.89630 0.73719 0.40066 -0.27900
I 	I 	0.12192 0.76218 0.55647 -0.38200
Zn	Zn	0.08562 0.87539 0.59301 1.16400
Zn	Zn	0.87693 0.59620 0.44028 1.16300
Zn	Zn	0.67180 0.86050 0.26988 1.15500
N 	N 	0.68422 0.99700 0.27920 -0.27000
N 	N 	0.68226 0.32600 0.25290 -0.13700
N 	N 	0.07152 0.98080 0.54790 -0.26800
N 	N 	0.72301 0.45180 0.27400 -0.14300
N 	N 	0.83366 0.53300 0.39510 -0.26900
N 	N 	0.02457 0.26910 0.47049 -0.14700
N 	N 	0.13797 0.33890 0.31590 -0.27900
N 	N 	0.73540 0.31360 0.31340 -0.14100
N 	N 	0.92306 0.50970 0.44290 -0.27800
N 	N 	0.07443 0.22060 0.43490 -0.13400
N 	N 	0.03862 0.35190 0.41000 -0.13500
C 	C 	0.69290 0.41040 0.24830 0.10300
C 	C 	0.06660 0.29290 0.40840 0.10700
C 	C 	0.74250 0.40100 0.30710 0.08500
C 	C 	0.77460 0.44540 0.33820 0.04500
C 	C 	0.01850 0.33590 0.44110 0.09200
C 	C 	0.05860 0.13070 0.49350 0.04900
C 	C 	0.69790 0.18160 0.28550 0.05200
C 	C 	0.70550 0.28000 0.28450 0.10400
C 	C 	0.93740 0.45860 0.47760 0.08000
H 	H 	0.92600 0.46130 0.50280 -0.00700
C 	C 	0.82240 0.45020 0.40460 0.06700
H 	H 	0.83470 0.42280 0.43160 0.00100
C 	C 	0.14900 0.28250 0.35090 0.06500
H 	H 	0.17340 0.25340 0.35450 -0.01000
C 	C 	0.98570 0.39810 0.44260 0.05800
C 	C 	0.03260 0.10730 0.51930 -0.11400
H 	H 	0.01020 0.14270 0.51910 0.07100
C 	C 	0.09110 0.30860 0.37630 0.06500
C 	C 	0.79370 0.40370 0.37640 -0.11100
H 	H 	0.78720 0.34410 0.38320 0.08400
C 	C 	0.05238 0.21140 0.46480 0.09200
C 	C 	0.71670 0.02990 0.30410 0.06900
H 	H 	0.73520 0.98880 0.31970 -0.00800
C 	C 	0.09690 0.00490 0.52300 0.06600
H 	H 	0.11930 0.96920 0.52420 -0.01100
C 	C 	0.78580 0.53190 0.32920 -0.12100
H 	H 	0.77310 0.56210 0.30310 0.08500
C 	C 	0.03990 0.03130 0.54540 0.06700
H 	H 	0.02160 0.01410 0.56240 -0.00700
C 	C 	0.81520 0.57370 0.35810 0.06900
H 	H 	0.82270 0.63280 0.35160 -0.00300
C 	C 	0.65780 0.05590 0.25790 0.05700
H 	H 	0.63430 0.03340 0.24070 -0.01200
C 	C 	0.72440 0.12080 0.30820 -0.11800
H 	H 	0.74770 0.14150 0.32640 0.07700
C 	C 	0.12660 0.26600 0.38100 -0.11400
H 	H 	0.13520 0.22580 0.40490 0.08400
C 	C 	0.09150 0.07810 0.49610 -0.11600
H 	H 	0.11020 0.09340 0.47930 0.07900
C 	C 	0.96830 0.40150 0.47840 -0.13000
H 	H 	0.97750 0.36490 0.50360 0.07900
C 	C 	0.66370 0.14780 0.26010 -0.11200
H 	H 	0.64470 0.18760 0.24450 0.08000
C 	C 	0.10430 0.37840 0.31180 0.08400
H 	H 	0.09610 0.41730 0.28730 -0.02100
C 	C 	0.97020 0.44960 0.40660 -0.13100
H 	H 	0.98040 0.44680 0.38050 0.08800
C 	C 	0.08010 0.36650 0.34130 -0.12300
H 	H 	0.05620 0.39780 0.33730 0.08500
C 	C 	0.93990 0.50510 0.40880 0.08700
H 	H 	0.93040 0.54290 0.38420 -0.02000
C 	C 	0.66938 0.46198 0.21122 0.05100
C 	C 	0.67628 0.55327 0.20483 -0.11700
H 	H 	0.69600 0.58440 0.22480 0.07000
C 	C 	0.63965 0.42000 0.18210 -0.11300
H 	H 	0.63420 0.35800 0.18540 0.09000
C 	C 	0.65422 0.59770 0.16922 0.05900
H 	H 	0.65980 0.65890 0.16410 -0.00900
C 	C 	0.61802 0.47010 0.14814 0.06700
H 	H 	0.59720 0.44150 0.12870 -0.00400
N 	N 	0.62496 0.55650 0.14142 -0.26600
I 	I 	0.88867 0.73800 0.40960 -0.07600
I 	I 	0.74260 0.77510 0.30760 -0.32400
