data_crystal

_cell_length_a 14.30260
_cell_length_b 12.04210
_cell_length_c 21.69870
_cell_angle_alpha 90.00000
_cell_angle_beta  90.00000
_cell_angle_gamma 90.00000

_symmetry_space_group_name_	'P 1'
_symmetry_space_group_name_H-M	'P 1'

loop_
_symmetry_equiv_pos_as_xyz
  x,y,z

loop_
_atom_site_label
_atom_site_type_symbol
_atom_site_fract_x
_atom_site_fract_y
_atom_site_fract_z
_atom_site_charge
N 	N 	0.61309 0.94887 0.64161 -0.19000
Cu	Cu	0.94980 0.01142 0.05231 0.91500
O 	O 	0.50612 0.62921 0.92049 -0.39800
O 	O 	0.59061 0.64588 0.00715 -0.40200
O 	O 	0.93102 0.91900 0.92176 -0.39600
O 	O 	0.84907 0.93060 0.00997 -0.39000
C 	C 	0.55677 0.96930 0.68892 0.06200
H 	H 	0.49970 0.00720 0.68100 0.01900
C 	C 	0.57664 0.93810 0.75002 -0.11600
H 	H 	0.53360 0.95520 0.78200 0.07500
C 	C 	0.65813 0.88306 0.76336 0.04500
C 	C 	0.71863 0.85547 0.71405 -0.04500
C 	C 	0.69367 0.89050 0.65340 0.11000
C 	C 	0.75302 0.86450 0.60332 -0.12600
H 	H 	0.73850 0.89090 0.56320 0.08800
C 	C 	0.83130 0.80130 0.61245 0.02700
H 	H 	0.87050 0.78350 0.57850 0.04000
C 	C 	0.85405 0.76260 0.67150 -0.07200
H 	H 	0.90740 0.71680 0.67700 0.06500
C 	C 	0.80014 0.79020 0.72134 -0.01300
H 	H 	0.81760 0.76530 0.76120 0.04300
C 	C 	0.67917 0.85163 0.82842 -0.01300
C 	C 	0.61721 0.78247 0.85979 -0.01400
H 	H 	0.56370 0.75420 0.83910 0.04900
C 	C 	0.63296 0.75438 0.92126 -0.08100
C 	C 	0.71067 0.79741 0.95186 0.02300
H 	H 	0.72050 0.78090 0.99420 0.04900
C 	C 	0.77353 0.86414 0.92053 -0.07800
C 	C 	0.75885 0.89060 0.85857 -0.01500
H 	H 	0.80300 0.93500 0.83700 0.05100
C 	C 	0.57050 0.67077 0.95263 0.34800
C 	C 	0.85832 0.90759 0.95366 0.34300
N 	N 	0.88691 0.05113 0.14161 -0.19100
Cu	Cu	0.55020 0.98858 0.55231 0.91600
O 	O 	0.99388 0.37079 0.42049 -0.39800
O 	O 	0.90939 0.35412 0.50715 -0.40300
O 	O 	0.56898 0.08100 0.42176 -0.39800
O 	O 	0.65093 0.06940 0.50997 -0.39500
C 	C 	0.94323 0.03070 0.18892 0.06000
H 	H 	0.00030 0.99280 0.18100 0.01900
C 	C 	0.92336 0.06190 0.25002 -0.11500
H 	H 	0.96640 0.04480 0.28200 0.07500
C 	C 	0.84187 0.11694 0.26336 0.04500
C 	C 	0.78137 0.14453 0.21405 -0.04500
C 	C 	0.80633 0.10950 0.15340 0.11000
C 	C 	0.74698 0.13550 0.10332 -0.12600
H 	H 	0.76150 0.10910 0.06320 0.08700
C 	C 	0.66870 0.19870 0.11245 0.02700
H 	H 	0.62950 0.21650 0.07850 0.03900
C 	C 	0.64595 0.23740 0.17150 -0.07200
H 	H 	0.59260 0.28320 0.17700 0.06500
C 	C 	0.69986 0.20980 0.22134 -0.01400
H 	H 	0.68240 0.23470 0.26120 0.04300
C 	C 	0.82083 0.14837 0.32842 -0.01300
C 	C 	0.88279 0.21753 0.35979 -0.01400
H 	H 	0.93630 0.24580 0.33910 0.04900
C 	C 	0.86704 0.24562 0.42126 -0.08100
C 	C 	0.78933 0.20259 0.45186 0.02400
H 	H 	0.77950 0.21910 0.49420 0.05000
C 	C 	0.72647 0.13586 0.42053 -0.07900
C 	C 	0.74115 0.10940 0.35857 -0.01400
H 	H 	0.69700 0.06500 0.33700 0.05000
C 	C 	0.92950 0.32923 0.45263 0.34900
C 	C 	0.64168 0.09241 0.45366 0.34600
N 	N 	0.38691 0.44887 0.85839 -0.19100
Cu	Cu	0.05020 0.51142 0.44769 0.91600
O 	O 	0.49388 0.12921 0.57951 -0.39800
O 	O 	0.40939 0.14588 0.49285 -0.40300
O 	O 	0.06898 0.41900 0.57824 -0.39700
O 	O 	0.15093 0.43060 0.49003 -0.39500
C 	C 	0.44323 0.46930 0.81108 0.06400
H 	H 	0.50030 0.50720 0.81900 0.01700
C 	C 	0.42336 0.43810 0.74998 -0.11700
H 	H 	0.46640 0.45520 0.71800 0.07600
C 	C 	0.34187 0.38306 0.73664 0.04600
C 	C 	0.28137 0.35547 0.78595 -0.04500
C 	C 	0.30633 0.39050 0.84660 0.11100
C 	C 	0.24698 0.36450 0.89668 -0.12600
H 	H 	0.26150 0.39090 0.93680 0.08700
C 	C 	0.16870 0.30130 0.88755 0.02800
H 	H 	0.12950 0.28350 0.92150 0.04000
C 	C 	0.14595 0.26260 0.82850 -0.07300
H 	H 	0.09260 0.21680 0.82300 0.06600
C 	C 	0.19986 0.29020 0.77866 -0.01300
H 	H 	0.18240 0.26530 0.73880 0.04300
C 	C 	0.32083 0.35163 0.67158 -0.01300
C 	C 	0.38279 0.28247 0.64021 -0.01400
H 	H 	0.43630 0.25420 0.66090 0.04900
C 	C 	0.36704 0.25438 0.57874 -0.08100
C 	C 	0.28933 0.29741 0.54814 0.02400
H 	H 	0.27950 0.28090 0.50580 0.05000
C 	C 	0.22647 0.36414 0.57947 -0.07900
C 	C 	0.24115 0.39060 0.64143 -0.01400
H 	H 	0.19700 0.43500 0.66300 0.05000
C 	C 	0.42950 0.17077 0.54737 0.35000
C 	C 	0.14168 0.40759 0.54634 0.34600
N 	N 	0.11309 0.55113 0.35839 -0.19100
Cu	Cu	0.44980 0.48858 0.94769 0.91500
O 	O 	0.00612 0.87079 0.07951 -0.39800
O 	O 	0.09061 0.85412 0.99285 -0.40600
O 	O 	0.43102 0.58100 0.07824 -0.39800
O 	O 	0.34907 0.56940 0.99003 -0.39500
C 	C 	0.05677 0.53070 0.31108 0.06400
H 	H 	0.99970 0.49280 0.31900 0.01800
C 	C 	0.07664 0.56190 0.24998 -0.11700
H 	H 	0.03360 0.54480 0.21800 0.07600
C 	C 	0.15813 0.61694 0.23664 0.04600
C 	C 	0.21863 0.64453 0.28595 -0.04500
C 	C 	0.19367 0.60950 0.34660 0.11000
C 	C 	0.25302 0.63550 0.39668 -0.12700
H 	H 	0.23850 0.60910 0.43680 0.08700
C 	C 	0.33130 0.69870 0.38755 0.02700
H 	H 	0.37050 0.71650 0.42150 0.03900
C 	C 	0.35405 0.73740 0.32850 -0.07300
H 	H 	0.40740 0.78320 0.32300 0.06500
C 	C 	0.30014 0.70980 0.27866 -0.01300
H 	H 	0.31760 0.73470 0.23880 0.04300
C 	C 	0.17917 0.64837 0.17158 -0.01400
C 	C 	0.11721 0.71753 0.14021 -0.01300
H 	H 	0.06370 0.74580 0.16090 0.04900
C 	C 	0.13296 0.74562 0.07874 -0.08200
C 	C 	0.21067 0.70259 0.04814 0.02500
H 	H 	0.22050 0.71910 0.00580 0.05000
C 	C 	0.27353 0.63586 0.07947 -0.07900
C 	C 	0.25885 0.60940 0.14143 -0.01400
H 	H 	0.30300 0.56500 0.16300 0.05000
C 	C 	0.07050 0.82923 0.04737 0.35200
C 	C 	0.35832 0.59241 0.04634 0.34700
N 	N 	0.38691 0.05113 0.35839 -0.19100
Cu	Cu	0.05020 0.98858 0.94769 0.91400
O 	O 	0.49388 0.37079 0.07951 -0.39800
O 	O 	0.40939 0.35412 0.99285 -0.40200
O 	O 	0.06898 0.08100 0.07824 -0.39600
O 	O 	0.15093 0.06940 0.99003 -0.39000
C 	C 	0.44323 0.03070 0.31108 0.06200
H 	H 	0.50030 0.99280 0.31900 0.01900
C 	C 	0.42336 0.06190 0.24998 -0.11600
H 	H 	0.46640 0.04480 0.21800 0.07500
C 	C 	0.34187 0.11694 0.23664 0.04500
C 	C 	0.28137 0.14453 0.28595 -0.04500
C 	C 	0.30633 0.10950 0.34660 0.11000
C 	C 	0.24698 0.13550 0.39668 -0.12600
H 	H 	0.26150 0.10910 0.43680 0.08800
C 	C 	0.16870 0.19870 0.38755 0.02700
H 	H 	0.12950 0.21650 0.42150 0.04000
C 	C 	0.14595 0.23740 0.32850 -0.07200
H 	H 	0.09260 0.28320 0.32300 0.06500
C 	C 	0.19986 0.20980 0.27866 -0.01300
H 	H 	0.18240 0.23470 0.23880 0.04300
C 	C 	0.32083 0.14837 0.17158 -0.01300
C 	C 	0.38279 0.21753 0.14021 -0.01400
H 	H 	0.43630 0.24580 0.16090 0.04900
C 	C 	0.36704 0.24562 0.07874 -0.08100
C 	C 	0.28933 0.20259 0.04814 0.02300
H 	H 	0.27950 0.21910 0.00580 0.04900
C 	C 	0.22647 0.13586 0.07947 -0.07800
C 	C 	0.24115 0.10940 0.14143 -0.01500
H 	H 	0.19700 0.06500 0.16300 0.05100
C 	C 	0.42950 0.32923 0.04737 0.34800
C 	C 	0.14168 0.09241 0.04634 0.34300
N 	N 	0.11309 0.94887 0.85839 -0.19100
Cu	Cu	0.44980 0.01142 0.44769 0.91600
O 	O 	0.00612 0.62921 0.57951 -0.39800
O 	O 	0.09061 0.64588 0.49285 -0.40300
O 	O 	0.43102 0.91900 0.57824 -0.39800
O 	O 	0.34907 0.93060 0.49003 -0.39500
C 	C 	0.05677 0.96930 0.81108 0.06000
H 	H 	0.99970 0.00720 0.81900 0.01900
C 	C 	0.07664 0.93810 0.74998 -0.11500
H 	H 	0.03360 0.95520 0.71800 0.07500
C 	C 	0.15813 0.88306 0.73664 0.04500
C 	C 	0.21863 0.85547 0.78595 -0.04500
C 	C 	0.19367 0.89050 0.84660 0.11000
C 	C 	0.25302 0.86450 0.89668 -0.12600
H 	H 	0.23850 0.89090 0.93680 0.08700
C 	C 	0.33130 0.80130 0.88755 0.02700
H 	H 	0.37050 0.78350 0.92150 0.03900
C 	C 	0.35405 0.76260 0.82850 -0.07200
H 	H 	0.40740 0.71680 0.82300 0.06500
C 	C 	0.30014 0.79020 0.77866 -0.01400
H 	H 	0.31760 0.76530 0.73880 0.04300
C 	C 	0.17917 0.85163 0.67158 -0.01300
C 	C 	0.11721 0.78247 0.64021 -0.01400
H 	H 	0.06370 0.75420 0.66090 0.04900
C 	C 	0.13296 0.75438 0.57874 -0.08100
C 	C 	0.21067 0.79741 0.54814 0.02400
H 	H 	0.22050 0.78090 0.50580 0.05000
C 	C 	0.27353 0.86414 0.57947 -0.07900
C 	C 	0.25885 0.89060 0.64143 -0.01400
H 	H 	0.30300 0.93500 0.66300 0.05000
C 	C 	0.07050 0.67077 0.54737 0.34900
C 	C 	0.35832 0.90759 0.54634 0.34600
N 	N 	0.61309 0.55113 0.14161 -0.19100
Cu	Cu	0.94980 0.48858 0.55231 0.91600
O 	O 	0.50612 0.87079 0.42049 -0.39800
O 	O 	0.59061 0.85412 0.50715 -0.40300
O 	O 	0.93102 0.58100 0.42176 -0.39700
O 	O 	0.84907 0.56940 0.50997 -0.39500
C 	C 	0.55677 0.53070 0.18892 0.06400
H 	H 	0.49970 0.49280 0.18100 0.01700
C 	C 	0.57664 0.56190 0.25002 -0.11700
H 	H 	0.53360 0.54480 0.28200 0.07600
C 	C 	0.65813 0.61694 0.26336 0.04600
C 	C 	0.71863 0.64453 0.21405 -0.04500
C 	C 	0.69367 0.60950 0.15340 0.11100
C 	C 	0.75302 0.63550 0.10332 -0.12600
H 	H 	0.73850 0.60910 0.06320 0.08700
C 	C 	0.83130 0.69870 0.11245 0.02800
H 	H 	0.87050 0.71650 0.07850 0.04000
C 	C 	0.85405 0.73740 0.17150 -0.07300
H 	H 	0.90740 0.78320 0.17700 0.06600
C 	C 	0.80014 0.70980 0.22134 -0.01300
H 	H 	0.81760 0.73470 0.26120 0.04300
C 	C 	0.67917 0.64837 0.32842 -0.01300
C 	C 	0.61721 0.71753 0.35979 -0.01400
H 	H 	0.56370 0.74580 0.33910 0.04900
C 	C 	0.63296 0.74562 0.42126 -0.08100
C 	C 	0.71067 0.70259 0.45186 0.02400
H 	H 	0.72050 0.71910 0.49420 0.05000
C 	C 	0.77353 0.63586 0.42053 -0.07900
C 	C 	0.75885 0.60940 0.35857 -0.01400
H 	H 	0.80300 0.56500 0.33700 0.05000
C 	C 	0.57050 0.82923 0.45263 0.35000
C 	C 	0.85832 0.59241 0.45366 0.34600
N 	N 	0.88691 0.44887 0.64161 -0.19100
Cu	Cu	0.55020 0.51142 0.05231 0.91500
O 	O 	0.99388 0.12921 0.92049 -0.39800
O 	O 	0.90939 0.14588 0.00715 -0.40600
O 	O 	0.56898 0.41900 0.92176 -0.39800
O 	O 	0.65093 0.43060 0.00997 -0.39500
C 	C 	0.94323 0.46930 0.68892 0.06400
H 	H 	0.00030 0.50720 0.68100 0.01800
C 	C 	0.92336 0.43810 0.75002 -0.11700
H 	H 	0.96640 0.45520 0.78200 0.07600
C 	C 	0.84187 0.38306 0.76336 0.04600
C 	C 	0.78137 0.35547 0.71405 -0.04500
C 	C 	0.80633 0.39050 0.65340 0.11000
C 	C 	0.74698 0.36450 0.60332 -0.12700
H 	H 	0.76150 0.39090 0.56320 0.08700
C 	C 	0.66870 0.30130 0.61245 0.02700
H 	H 	0.62950 0.28350 0.57850 0.03900
C 	C 	0.64595 0.26260 0.67150 -0.07300
H 	H 	0.59260 0.21680 0.67700 0.06500
C 	C 	0.69986 0.29020 0.72134 -0.01300
H 	H 	0.68240 0.26530 0.76120 0.04300
C 	C 	0.82083 0.35163 0.82842 -0.01400
C 	C 	0.88279 0.28247 0.85979 -0.01300
H 	H 	0.93630 0.25420 0.83910 0.04900
C 	C 	0.86704 0.25438 0.92126 -0.08200
C 	C 	0.78933 0.29741 0.95186 0.02500
H 	H 	0.77950 0.28090 0.99420 0.05000
C 	C 	0.72647 0.36414 0.92053 -0.07900
C 	C 	0.74115 0.39060 0.85857 -0.01400
H 	H 	0.69700 0.43500 0.83700 0.05000
C 	C 	0.92950 0.17077 0.95263 0.35200
C 	C 	0.64168 0.40759 0.95366 0.34700
