data_crystal

_cell_length_a 51.55210
_cell_length_b 51.55210
_cell_length_c 51.55210
_cell_angle_alpha 60.00000
_cell_angle_beta  60.00000
_cell_angle_gamma 60.00000

_symmetry_space_group_name_	'P 1'
_symmetry_space_group_name_H-M	'P 1'

loop_
_symmetry_equiv_pos_as_xyz
  x,y,z

loop_
_atom_site_label
_atom_site_type_symbol
_atom_site_fract_x
_atom_site_fract_y
_atom_site_fract_z
_atom_site_charge
Cr	Cr	0.74634 0.89055 0.95500 1.57300
Cr	Cr	0.58531 0.13928 0.92989 1.57800
O 	O 	0.76118 0.80445 0.85440 -0.53700
O 	O 	0.73951 0.78283 0.83271 -0.53900
O 	O 	0.55889 0.99271 0.94308 -0.53400
O 	O 	0.44698 0.04674 0.00357 -0.51100
O 	O 	0.53276 0.04073 0.94818 -0.52700
O 	O 	0.72993 0.86735 0.91703 -0.54300
O 	O 	0.67764 0.95214 0.90269 -0.54000
O 	O 	0.75723 0.85369 0.94707 -0.53600
O 	O 	0.88755 0.93086 0.78978 -0.52100
O 	O 	0.73654 0.92441 0.96755 -0.52600
O 	O 	0.70453 0.98201 0.89050 -0.53300
O 	O 	0.59473 0.16727 0.96916 -0.52200
O 	O 	0.30193 0.10300 0.00097 -0.49900
O 	O 	0.56832 0.17564 0.94087 -0.53900
O 	O 	0.34748 0.11342 0.97168 -0.51400
O 	O 	0.59725 0.10559 0.91740 -0.54700
O 	O 	0.65013 0.08466 0.90273 -0.53200
C 	C 	0.37864 0.06475 0.01749 0.07000
C 	C 	0.34622 0.07125 0.02258 -0.13900
C 	C 	0.33057 0.09781 0.99719 0.40500
C 	C 	0.76349 0.81042 0.90451 0.11300
C 	C 	0.76901 0.81651 0.92482 -0.19300
C 	C 	0.75053 0.84750 0.93060 0.46300
C 	C 	0.64847 0.00575 0.90025 -0.17400
C 	C 	0.64899 0.03414 0.89694 0.10500
C 	C 	0.62094 0.05793 0.90647 -0.17900
C 	C 	0.59130 0.05401 0.91785 0.10000
C 	C 	0.58959 0.02608 0.92083 -0.16800
C 	C 	0.61864 0.00208 0.91177 0.10100
C 	C 	0.55833 0.01976 0.93795 0.44200
C 	C 	0.62301 0.08460 0.90853 0.45800
C 	C 	0.67891 0.97844 0.89695 0.45000
C 	C 	0.68853 0.02860 0.98047 -0.17000
C 	C 	0.70729 0.00846 0.96148 0.09300
C 	C 	0.57534 0.18578 0.95360 0.44100
H 	H 	0.39126 0.08004 0.99649 0.02900
H 	H 	0.74397 0.82719 0.89547 0.02200
H 	H 	0.67161 0.03685 0.88891 0.02400
H 	H 	0.56957 0.07194 0.92615 0.02400
H 	H 	0.61811 0.97973 0.91544 0.02300
H 	H 	0.71339 0.01907 0.93592 0.02700
Cr	Cr	0.89055 0.74634 0.40811 1.57300
Cr	Cr	0.13928 0.58531 0.34552 1.57800
O 	O 	0.80445 0.76118 0.57997 -0.53700
O 	O 	0.78283 0.73951 0.64495 -0.53900
O 	O 	0.99271 0.55889 0.50532 -0.53400
O 	O 	0.04674 0.44698 0.50271 -0.51200
O 	O 	0.04073 0.53276 0.47833 -0.52600
O 	O 	0.86735 0.72993 0.48569 -0.54300
O 	O 	0.95214 0.67764 0.46753 -0.54000
O 	O 	0.85369 0.75723 0.44201 -0.53600
O 	O 	0.93086 0.88755 0.39181 -0.52100
O 	O 	0.92441 0.73654 0.37150 -0.52500
O 	O 	0.98201 0.70453 0.42296 -0.53300
O 	O 	0.16727 0.59473 0.26884 -0.52100
O 	O 	0.10300 0.30193 0.59410 -0.50300
O 	O 	0.17564 0.56832 0.31517 -0.53800
O 	O 	0.11342 0.34748 0.56742 -0.51500
O 	O 	0.10559 0.59725 0.37976 -0.54700
O 	O 	0.08466 0.65013 0.36248 -0.53200
C 	C 	0.06475 0.37864 0.53912 0.06700
C 	C 	0.07125 0.34622 0.55995 -0.14100
C 	C 	0.09781 0.33057 0.57443 0.41100
C 	C 	0.81042 0.76349 0.52158 0.11400
C 	C 	0.81651 0.76901 0.48966 -0.19100
C 	C 	0.84750 0.75053 0.47137 0.46500
C 	C 	0.00575 0.64847 0.44553 -0.17300
C 	C 	0.03414 0.64899 0.41993 0.10600
C 	C 	0.05793 0.62094 0.41466 -0.17800
C 	C 	0.05401 0.59130 0.43684 0.10100
C 	C 	0.02608 0.58959 0.46350 -0.16700
C 	C 	0.00208 0.61864 0.46751 0.10200
C 	C 	0.01976 0.55833 0.48396 0.44400
C 	C 	0.08460 0.62301 0.38386 0.45900
C 	C 	0.97844 0.67891 0.44570 0.45100
C 	C 	0.02860 0.68853 0.30240 -0.16500
C 	C 	0.00846 0.70729 0.32277 0.09200
C 	C 	0.18578 0.57534 0.28528 0.44200
H 	H 	0.08004 0.39126 0.53221 0.03200
H 	H 	0.82719 0.74397 0.53337 0.02300
H 	H 	0.03685 0.67161 0.40263 0.02500
H 	H 	0.07194 0.56957 0.43234 0.02500
H 	H 	0.97973 0.61811 0.48672 0.02400
H 	H 	0.01907 0.71339 0.33162 0.02800
Cr	Cr	0.95500 0.40811 0.74634 1.57400
Cr	Cr	0.92989 0.34552 0.58531 1.57900
O 	O 	0.85440 0.57997 0.76118 -0.53600
O 	O 	0.83271 0.64495 0.73951 -0.53800
O 	O 	0.94308 0.50532 0.55889 -0.53100
O 	O 	0.00357 0.50271 0.44698 -0.51000
O 	O 	0.94818 0.47833 0.53276 -0.52600
O 	O 	0.91703 0.48569 0.72993 -0.54200
O 	O 	0.90269 0.46753 0.67764 -0.53900
O 	O 	0.94707 0.44201 0.75723 -0.53500
O 	O 	0.78978 0.39181 0.88755 -0.52000
O 	O 	0.96755 0.37150 0.73654 -0.52400
O 	O 	0.89050 0.42296 0.70453 -0.53200
O 	O 	0.96916 0.26884 0.59473 -0.52100
O 	O 	0.00097 0.59410 0.30193 -0.49900
O 	O 	0.94087 0.31517 0.56832 -0.53800
O 	O 	0.97168 0.56742 0.34748 -0.51300
O 	O 	0.91740 0.37976 0.59725 -0.54600
O 	O 	0.90273 0.36248 0.65013 -0.53200
C 	C 	0.01749 0.53912 0.37864 0.07000
C 	C 	0.02258 0.55995 0.34622 -0.13800
C 	C 	0.99719 0.57443 0.33057 0.40700
C 	C 	0.90451 0.52158 0.76349 0.11400
C 	C 	0.92482 0.48966 0.76901 -0.19200
C 	C 	0.93060 0.47137 0.75053 0.46400
C 	C 	0.90025 0.44553 0.64847 -0.17500
C 	C 	0.89694 0.41993 0.64899 0.10600
C 	C 	0.90647 0.41466 0.62094 -0.17800
C 	C 	0.91785 0.43684 0.59130 0.10000
C 	C 	0.92083 0.46350 0.58959 -0.16600
C 	C 	0.91177 0.46751 0.61864 0.09900
C 	C 	0.93795 0.48396 0.55833 0.44000
C 	C 	0.90853 0.38386 0.62301 0.45900
C 	C 	0.89695 0.44570 0.67891 0.45400
C 	C 	0.98047 0.30240 0.68853 -0.16800
C 	C 	0.96148 0.32277 0.70729 0.09000
C 	C 	0.95360 0.28528 0.57534 0.44200
H 	H 	0.99649 0.53221 0.39126 0.03000
H 	H 	0.89547 0.53337 0.74397 0.02300
H 	H 	0.88891 0.40263 0.67161 0.02500
H 	H 	0.92615 0.43234 0.56957 0.02500
H 	H 	0.91544 0.48672 0.61811 0.02600
H 	H 	0.93592 0.33162 0.71339 0.02800
Cr	Cr	0.40811 0.95500 0.89055 1.57400
Cr	Cr	0.34552 0.92989 0.13928 1.57900
O 	O 	0.57997 0.85440 0.80445 -0.53600
O 	O 	0.64495 0.83271 0.78283 -0.53800
O 	O 	0.50532 0.94308 0.99271 -0.53300
O 	O 	0.50271 0.00357 0.04674 -0.51000
O 	O 	0.47833 0.94818 0.04073 -0.52600
O 	O 	0.48569 0.91703 0.86735 -0.54200
O 	O 	0.46753 0.90269 0.95214 -0.53900
O 	O 	0.44201 0.94707 0.85369 -0.53500
O 	O 	0.39181 0.78978 0.93086 -0.52000
O 	O 	0.37150 0.96755 0.92441 -0.52500
O 	O 	0.42296 0.89050 0.98201 -0.53200
O 	O 	0.26884 0.96916 0.16727 -0.52100
O 	O 	0.59410 0.00097 0.10300 -0.49800
O 	O 	0.31517 0.94087 0.17564 -0.53800
O 	O 	0.56742 0.97168 0.11342 -0.51300
O 	O 	0.37976 0.91740 0.10559 -0.54600
O 	O 	0.36248 0.90273 0.08466 -0.53100
C 	C 	0.53912 0.01749 0.06475 0.07100
C 	C 	0.55995 0.02258 0.07125 -0.13800
C 	C 	0.57443 0.99719 0.09781 0.40700
C 	C 	0.52158 0.90451 0.81042 0.11400
C 	C 	0.48966 0.92482 0.81651 -0.19200
C 	C 	0.47137 0.93060 0.84750 0.46400
C 	C 	0.44553 0.90025 0.00575 -0.17300
C 	C 	0.41993 0.89694 0.03414 0.10600
C 	C 	0.41466 0.90647 0.05793 -0.17800
C 	C 	0.43684 0.91785 0.05401 0.10100
C 	C 	0.46350 0.92083 0.02608 -0.16700
C 	C 	0.46751 0.91177 0.00208 0.10200
C 	C 	0.48396 0.93795 0.01976 0.44300
C 	C 	0.38386 0.90853 0.08460 0.45900
C 	C 	0.44570 0.89695 0.97844 0.45100
C 	C 	0.30240 0.98047 0.02860 -0.17000
C 	C 	0.32277 0.96148 0.00846 0.09400
C 	C 	0.28528 0.95360 0.18578 0.44200
H 	H 	0.53221 0.99649 0.08004 0.03000
H 	H 	0.53337 0.89547 0.82719 0.02300
H 	H 	0.40263 0.88891 0.03685 0.02500
H 	H 	0.43234 0.92615 0.07194 0.02500
H 	H 	0.48672 0.91544 0.97973 0.02400
H 	H 	0.33162 0.93592 0.01907 0.02800
Cr	Cr	0.95500 0.74634 0.89055 1.57400
Cr	Cr	0.92989 0.58531 0.13928 1.57900
O 	O 	0.85440 0.76118 0.80445 -0.53600
O 	O 	0.83271 0.73951 0.78283 -0.53800
O 	O 	0.94308 0.55889 0.99271 -0.53300
O 	O 	0.00357 0.44698 0.04674 -0.51000
O 	O 	0.94818 0.53276 0.04073 -0.52600
O 	O 	0.91703 0.72993 0.86735 -0.54200
O 	O 	0.90269 0.67764 0.95214 -0.53900
O 	O 	0.94707 0.75723 0.85369 -0.53500
O 	O 	0.78978 0.88755 0.93086 -0.52000
O 	O 	0.96755 0.73654 0.92441 -0.52500
O 	O 	0.89050 0.70453 0.98201 -0.53200
O 	O 	0.96916 0.59473 0.16727 -0.52100
O 	O 	0.00097 0.30193 0.10300 -0.49800
O 	O 	0.94087 0.56832 0.17564 -0.53800
O 	O 	0.97168 0.34748 0.11342 -0.51300
O 	O 	0.91740 0.59725 0.10559 -0.54600
O 	O 	0.90273 0.65013 0.08466 -0.53100
C 	C 	0.01749 0.37864 0.06475 0.07100
C 	C 	0.02258 0.34622 0.07125 -0.13800
C 	C 	0.99719 0.33057 0.09781 0.40600
C 	C 	0.90451 0.76349 0.81042 0.11400
C 	C 	0.92482 0.76901 0.81651 -0.19200
C 	C 	0.93060 0.75053 0.84750 0.46400
C 	C 	0.90025 0.64847 0.00575 -0.17300
C 	C 	0.89694 0.64899 0.03414 0.10600
C 	C 	0.90647 0.62094 0.05793 -0.17800
C 	C 	0.91785 0.59130 0.05401 0.10100
C 	C 	0.92083 0.58959 0.02608 -0.16700
C 	C 	0.91177 0.61864 0.00208 0.10200
C 	C 	0.93795 0.55833 0.01976 0.44300
C 	C 	0.90853 0.62301 0.08460 0.45900
C 	C 	0.89695 0.67891 0.97844 0.45100
C 	C 	0.98047 0.68853 0.02860 -0.16900
C 	C 	0.96148 0.70729 0.00846 0.09400
C 	C 	0.95360 0.57534 0.18578 0.44200
H 	H 	0.99649 0.39126 0.08004 0.03000
H 	H 	0.89547 0.74397 0.82719 0.02300
H 	H 	0.88891 0.67161 0.03685 0.02500
H 	H 	0.92615 0.56957 0.07194 0.02500
H 	H 	0.91544 0.61811 0.97973 0.02400
H 	H 	0.93592 0.71339 0.01907 0.02800
Cr	Cr	0.40811 0.89055 0.74634 1.57400
Cr	Cr	0.34552 0.13928 0.58531 1.57900
O 	O 	0.57997 0.80445 0.76118 -0.53600
O 	O 	0.64495 0.78283 0.73951 -0.53800
O 	O 	0.50532 0.99271 0.55889 -0.53300
O 	O 	0.50271 0.04674 0.44698 -0.51100
O 	O 	0.47833 0.04073 0.53276 -0.52500
O 	O 	0.48569 0.86735 0.72993 -0.54200
O 	O 	0.46753 0.95214 0.67764 -0.53900
O 	O 	0.44201 0.85369 0.75723 -0.53500
O 	O 	0.39181 0.93086 0.88755 -0.52000
O 	O 	0.37150 0.92441 0.73654 -0.52400
O 	O 	0.42296 0.98201 0.70453 -0.53200
O 	O 	0.26884 0.16727 0.59473 -0.52000
O 	O 	0.59410 0.10300 0.30193 -0.50200
O 	O 	0.31517 0.17564 0.56832 -0.53700
O 	O 	0.56742 0.11342 0.34748 -0.51400
O 	O 	0.37976 0.10559 0.59725 -0.54600
O 	O 	0.36248 0.08466 0.65013 -0.53100
C 	C 	0.53912 0.06475 0.37864 0.06800
C 	C 	0.55995 0.07125 0.34622 -0.14000
C 	C 	0.57443 0.09781 0.33057 0.41200
C 	C 	0.52158 0.81042 0.76349 0.11400
C 	C 	0.48966 0.81651 0.76901 -0.19100
C 	C 	0.47137 0.84750 0.75053 0.46500
C 	C 	0.44553 0.00575 0.64847 -0.17300
C 	C 	0.41993 0.03414 0.64899 0.10600
C 	C 	0.41466 0.05793 0.62094 -0.17800
C 	C 	0.43684 0.05401 0.59130 0.10100
C 	C 	0.46350 0.02608 0.58959 -0.16700
C 	C 	0.46751 0.00208 0.61864 0.10200
C 	C 	0.48396 0.01976 0.55833 0.44400
C 	C 	0.38386 0.08460 0.62301 0.45900
C 	C 	0.44570 0.97844 0.67891 0.45100
C 	C 	0.30240 0.02860 0.68853 -0.16500
C 	C 	0.32277 0.00846 0.70729 0.09200
C 	C 	0.28528 0.18578 0.57534 0.44200
H 	H 	0.53221 0.08004 0.39126 0.03200
H 	H 	0.53337 0.82719 0.74397 0.02300
H 	H 	0.40263 0.03685 0.67161 0.02500
H 	H 	0.43234 0.07194 0.56957 0.02500
H 	H 	0.48672 0.97973 0.61811 0.02400
H 	H 	0.33162 0.01907 0.71339 0.02800
Cr	Cr	0.74634 0.95500 0.40811 1.57400
Cr	Cr	0.58531 0.92989 0.34552 1.57900
O 	O 	0.76118 0.85440 0.57997 -0.53600
O 	O 	0.73951 0.83271 0.64495 -0.53800
O 	O 	0.55889 0.94308 0.50532 -0.53100
O 	O 	0.44698 0.00357 0.50271 -0.51000
O 	O 	0.53276 0.94818 0.47833 -0.52600
O 	O 	0.72993 0.91703 0.48569 -0.54200
O 	O 	0.67764 0.90269 0.46753 -0.53900
O 	O 	0.75723 0.94707 0.44201 -0.53500
O 	O 	0.88755 0.78978 0.39181 -0.52000
O 	O 	0.73654 0.96755 0.37150 -0.52400
O 	O 	0.70453 0.89050 0.42296 -0.53200
O 	O 	0.59473 0.96916 0.26884 -0.52100
O 	O 	0.30193 0.00097 0.59410 -0.49900
O 	O 	0.56832 0.94087 0.31517 -0.53800
O 	O 	0.34748 0.97168 0.56742 -0.51300
O 	O 	0.59725 0.91740 0.37976 -0.54600
O 	O 	0.65013 0.90273 0.36248 -0.53200
C 	C 	0.37864 0.01749 0.53912 0.07000
C 	C 	0.34622 0.02258 0.55995 -0.13800
C 	C 	0.33057 0.99719 0.57443 0.40700
C 	C 	0.76349 0.90451 0.52158 0.11400
C 	C 	0.76901 0.92482 0.48966 -0.19200
C 	C 	0.75053 0.93060 0.47137 0.46400
C 	C 	0.64847 0.90025 0.44553 -0.17500
C 	C 	0.64899 0.89694 0.41993 0.10600
C 	C 	0.62094 0.90647 0.41466 -0.17800
C 	C 	0.59130 0.91785 0.43684 0.10000
C 	C 	0.58959 0.92083 0.46350 -0.16600
C 	C 	0.61864 0.91177 0.46751 0.09900
C 	C 	0.55833 0.93795 0.48396 0.44000
C 	C 	0.62301 0.90853 0.38386 0.45900
C 	C 	0.67891 0.89695 0.44570 0.45400
C 	C 	0.68853 0.98047 0.30240 -0.16800
C 	C 	0.70729 0.96148 0.32277 0.09000
C 	C 	0.57534 0.95360 0.28528 0.44200
H 	H 	0.39126 0.99649 0.53221 0.03000
H 	H 	0.74397 0.89547 0.53337 0.02300
H 	H 	0.67161 0.88891 0.40263 0.02500
H 	H 	0.56957 0.92615 0.43234 0.02500
H 	H 	0.61811 0.91544 0.48672 0.02600
H 	H 	0.71339 0.93592 0.33162 0.02800
Cr	Cr	0.89055 0.40811 0.95500 1.57400
Cr	Cr	0.13928 0.34552 0.92989 1.57900
O 	O 	0.80445 0.57997 0.85440 -0.53600
O 	O 	0.78283 0.64495 0.83271 -0.53800
O 	O 	0.99271 0.50532 0.94308 -0.53300
O 	O 	0.04674 0.50271 0.00357 -0.51000
O 	O 	0.04073 0.47833 0.94818 -0.52600
O 	O 	0.86735 0.48569 0.91703 -0.54200
O 	O 	0.95214 0.46753 0.90269 -0.53900
O 	O 	0.85369 0.44201 0.94707 -0.53500
O 	O 	0.93086 0.39181 0.78978 -0.52000
O 	O 	0.92441 0.37150 0.96755 -0.52500
O 	O 	0.98201 0.42296 0.89050 -0.53200
O 	O 	0.16727 0.26884 0.96916 -0.52100
O 	O 	0.10300 0.59410 0.00097 -0.49800
O 	O 	0.17564 0.31517 0.94087 -0.53800
O 	O 	0.11342 0.56742 0.97168 -0.51300
O 	O 	0.10559 0.37976 0.91740 -0.54600
O 	O 	0.08466 0.36248 0.90273 -0.53100
C 	C 	0.06475 0.53912 0.01749 0.07100
C 	C 	0.07125 0.55995 0.02258 -0.13800
C 	C 	0.09781 0.57443 0.99719 0.40700
C 	C 	0.81042 0.52158 0.90451 0.11400
C 	C 	0.81651 0.48966 0.92482 -0.19200
C 	C 	0.84750 0.47137 0.93060 0.46400
C 	C 	0.00575 0.44553 0.90025 -0.17300
C 	C 	0.03414 0.41993 0.89694 0.10600
C 	C 	0.05793 0.41466 0.90647 -0.17800
C 	C 	0.05401 0.43684 0.91785 0.10100
C 	C 	0.02608 0.46350 0.92083 -0.16700
C 	C 	0.00208 0.46751 0.91177 0.10200
C 	C 	0.01976 0.48396 0.93795 0.44300
C 	C 	0.08460 0.38386 0.90853 0.45900
C 	C 	0.97844 0.44570 0.89695 0.45100
C 	C 	0.02860 0.30240 0.98047 -0.17000
C 	C 	0.00846 0.32277 0.96148 0.09400
C 	C 	0.18578 0.28528 0.95360 0.44200
H 	H 	0.08004 0.53221 0.99649 0.03000
H 	H 	0.82719 0.53337 0.89547 0.02300
H 	H 	0.03685 0.40263 0.88891 0.02500
H 	H 	0.07194 0.43234 0.92615 0.02500
H 	H 	0.97973 0.48672 0.91544 0.02400
H 	H 	0.01907 0.33162 0.93592 0.02800
Cr	Cr	0.89055 0.95500 0.74634 1.57400
Cr	Cr	0.13928 0.92989 0.58531 1.57900
O 	O 	0.80445 0.85440 0.76118 -0.53600
O 	O 	0.78283 0.83271 0.73951 -0.53800
O 	O 	0.99271 0.94308 0.55889 -0.53300
O 	O 	0.04674 0.00357 0.44698 -0.51000
O 	O 	0.04073 0.94818 0.53276 -0.52600
O 	O 	0.86735 0.91703 0.72993 -0.54200
O 	O 	0.95214 0.90269 0.67764 -0.53900
O 	O 	0.85369 0.94707 0.75723 -0.53500
O 	O 	0.93086 0.78978 0.88755 -0.52000
O 	O 	0.92441 0.96755 0.73654 -0.52500
O 	O 	0.98201 0.89050 0.70453 -0.53200
O 	O 	0.16727 0.96916 0.59473 -0.52100
O 	O 	0.10300 0.00097 0.30193 -0.49800
O 	O 	0.17564 0.94087 0.56832 -0.53800
O 	O 	0.11342 0.97168 0.34748 -0.51300
O 	O 	0.10559 0.91740 0.59725 -0.54600
O 	O 	0.08466 0.90273 0.65013 -0.53100
C 	C 	0.06475 0.01749 0.37864 0.07100
C 	C 	0.07125 0.02258 0.34622 -0.13800
C 	C 	0.09781 0.99719 0.33057 0.40600
C 	C 	0.81042 0.90451 0.76349 0.11400
C 	C 	0.81651 0.92482 0.76901 -0.19200
C 	C 	0.84750 0.93060 0.75053 0.46400
C 	C 	0.00575 0.90025 0.64847 -0.17300
C 	C 	0.03414 0.89694 0.64899 0.10600
C 	C 	0.05793 0.90647 0.62094 -0.17800
C 	C 	0.05401 0.91785 0.59130 0.10100
C 	C 	0.02608 0.92083 0.58959 -0.16700
C 	C 	0.00208 0.91177 0.61864 0.10200
C 	C 	0.01976 0.93795 0.55833 0.44300
C 	C 	0.08460 0.90853 0.62301 0.45900
C 	C 	0.97844 0.89695 0.67891 0.45100
C 	C 	0.02860 0.98047 0.68853 -0.16900
C 	C 	0.00846 0.96148 0.70729 0.09400
C 	C 	0.18578 0.95360 0.57534 0.44200
H 	H 	0.08004 0.99649 0.39126 0.03000
H 	H 	0.82719 0.89547 0.74397 0.02300
H 	H 	0.03685 0.88891 0.67161 0.02500
H 	H 	0.07194 0.92615 0.56957 0.02500
H 	H 	0.97973 0.91544 0.61811 0.02400
H 	H 	0.01907 0.93592 0.71339 0.02800
Cr	Cr	0.74634 0.40811 0.89055 1.57400
Cr	Cr	0.58531 0.34552 0.13928 1.57900
O 	O 	0.76118 0.57997 0.80445 -0.53600
O 	O 	0.73951 0.64495 0.78283 -0.53800
O 	O 	0.55889 0.50532 0.99271 -0.53300
O 	O 	0.44698 0.50271 0.04674 -0.51100
O 	O 	0.53276 0.47833 0.04073 -0.52500
O 	O 	0.72993 0.48569 0.86735 -0.54200
O 	O 	0.67764 0.46753 0.95214 -0.53900
O 	O 	0.75723 0.44201 0.85369 -0.53500
O 	O 	0.88755 0.39181 0.93086 -0.52000
O 	O 	0.73654 0.37150 0.92441 -0.52400
O 	O 	0.70453 0.42296 0.98201 -0.53200
O 	O 	0.59473 0.26884 0.16727 -0.52000
O 	O 	0.30193 0.59410 0.10300 -0.50200
O 	O 	0.56832 0.31517 0.17564 -0.53700
O 	O 	0.34748 0.56742 0.11342 -0.51400
O 	O 	0.59725 0.37976 0.10559 -0.54600
O 	O 	0.65013 0.36248 0.08466 -0.53100
C 	C 	0.37864 0.53912 0.06475 0.06800
C 	C 	0.34622 0.55995 0.07125 -0.14000
C 	C 	0.33057 0.57443 0.09781 0.41200
C 	C 	0.76349 0.52158 0.81042 0.11400
C 	C 	0.76901 0.48966 0.81651 -0.19100
C 	C 	0.75053 0.47137 0.84750 0.46500
C 	C 	0.64847 0.44553 0.00575 -0.17300
C 	C 	0.64899 0.41993 0.03414 0.10600
C 	C 	0.62094 0.41466 0.05793 -0.17800
C 	C 	0.59130 0.43684 0.05401 0.10100
C 	C 	0.58959 0.46350 0.02608 -0.16700
C 	C 	0.61864 0.46751 0.00208 0.10200
C 	C 	0.55833 0.48396 0.01976 0.44400
C 	C 	0.62301 0.38386 0.08460 0.45900
C 	C 	0.67891 0.44570 0.97844 0.45100
C 	C 	0.68853 0.30240 0.02860 -0.16500
C 	C 	0.70729 0.32277 0.00846 0.09200
C 	C 	0.57534 0.28528 0.18578 0.44200
H 	H 	0.39126 0.53221 0.08004 0.03200
H 	H 	0.74397 0.53337 0.82719 0.02300
H 	H 	0.67161 0.40263 0.03685 0.02500
H 	H 	0.56957 0.43234 0.07194 0.02500
H 	H 	0.61811 0.48672 0.97973 0.02400
H 	H 	0.71339 0.33162 0.01907 0.02800
Cr	Cr	0.40811 0.74634 0.95500 1.57400
Cr	Cr	0.34552 0.58531 0.92989 1.57900
O 	O 	0.57997 0.76118 0.85440 -0.53600
O 	O 	0.64495 0.73951 0.83271 -0.53800
O 	O 	0.50532 0.55889 0.94308 -0.53100
O 	O 	0.50271 0.44698 0.00357 -0.51000
O 	O 	0.47833 0.53276 0.94818 -0.52600
O 	O 	0.48569 0.72993 0.91703 -0.54200
O 	O 	0.46753 0.67764 0.90269 -0.53900
O 	O 	0.44201 0.75723 0.94707 -0.53500
O 	O 	0.39181 0.88755 0.78978 -0.52000
O 	O 	0.37150 0.73654 0.96755 -0.52400
O 	O 	0.42296 0.70453 0.89050 -0.53200
O 	O 	0.26884 0.59473 0.96916 -0.52100
O 	O 	0.59410 0.30193 0.00097 -0.49900
O 	O 	0.31517 0.56832 0.94087 -0.53800
O 	O 	0.56742 0.34748 0.97168 -0.51300
O 	O 	0.37976 0.59725 0.91740 -0.54600
O 	O 	0.36248 0.65013 0.90273 -0.53200
C 	C 	0.53912 0.37864 0.01749 0.07000
C 	C 	0.55995 0.34622 0.02258 -0.13800
C 	C 	0.57443 0.33057 0.99719 0.40700
C 	C 	0.52158 0.76349 0.90451 0.11400
C 	C 	0.48966 0.76901 0.92482 -0.19200
C 	C 	0.47137 0.75053 0.93060 0.46400
C 	C 	0.44553 0.64847 0.90025 -0.17500
C 	C 	0.41993 0.64899 0.89694 0.10600
C 	C 	0.41466 0.62094 0.90647 -0.17800
C 	C 	0.43684 0.59130 0.91785 0.10000
C 	C 	0.46350 0.58959 0.92083 -0.16600
C 	C 	0.46751 0.61864 0.91177 0.09900
C 	C 	0.48396 0.55833 0.93795 0.44000
C 	C 	0.38386 0.62301 0.90853 0.45900
C 	C 	0.44570 0.67891 0.89695 0.45400
C 	C 	0.30240 0.68853 0.98047 -0.16800
C 	C 	0.32277 0.70729 0.96148 0.09000
C 	C 	0.28528 0.57534 0.95360 0.44200
H 	H 	0.53221 0.39126 0.99649 0.03000
H 	H 	0.53337 0.74397 0.89547 0.02300
H 	H 	0.40263 0.67161 0.88891 0.02500
H 	H 	0.43234 0.56957 0.92615 0.02500
H 	H 	0.48672 0.61811 0.91544 0.02600
H 	H 	0.33162 0.71339 0.93592 0.02800
Cr	Cr	0.95500 0.89055 0.40811 1.57400
Cr	Cr	0.92989 0.13928 0.34552 1.57900
O 	O 	0.85440 0.80445 0.57997 -0.53600
O 	O 	0.83271 0.78283 0.64495 -0.53800
O 	O 	0.94308 0.99271 0.50532 -0.53300
O 	O 	0.00357 0.04674 0.50271 -0.51000
O 	O 	0.94818 0.04073 0.47833 -0.52600
O 	O 	0.91703 0.86735 0.48569 -0.54200
O 	O 	0.90269 0.95214 0.46753 -0.53900
O 	O 	0.94707 0.85369 0.44201 -0.53500
O 	O 	0.78978 0.93086 0.39181 -0.52000
O 	O 	0.96755 0.92441 0.37150 -0.52500
O 	O 	0.89050 0.98201 0.42296 -0.53200
O 	O 	0.96916 0.16727 0.26884 -0.52100
O 	O 	0.00097 0.10300 0.59410 -0.49800
O 	O 	0.94087 0.17564 0.31517 -0.53800
O 	O 	0.97168 0.11342 0.56742 -0.51300
O 	O 	0.91740 0.10559 0.37976 -0.54600
O 	O 	0.90273 0.08466 0.36248 -0.53100
C 	C 	0.01749 0.06475 0.53912 0.07100
C 	C 	0.02258 0.07125 0.55995 -0.13800
C 	C 	0.99719 0.09781 0.57443 0.40700
C 	C 	0.90451 0.81042 0.52158 0.11400
C 	C 	0.92482 0.81651 0.48966 -0.19200
C 	C 	0.93060 0.84750 0.47137 0.46400
C 	C 	0.90025 0.00575 0.44553 -0.17300
C 	C 	0.89694 0.03414 0.41993 0.10600
C 	C 	0.90647 0.05793 0.41466 -0.17800
C 	C 	0.91785 0.05401 0.43684 0.10100
C 	C 	0.92083 0.02608 0.46350 -0.16700
C 	C 	0.91177 0.00208 0.46751 0.10200
C 	C 	0.93795 0.01976 0.48396 0.44300
C 	C 	0.90853 0.08460 0.38386 0.45900
C 	C 	0.89695 0.97844 0.44570 0.45100
C 	C 	0.98047 0.02860 0.30240 -0.17000
C 	C 	0.96148 0.00846 0.32277 0.09400
C 	C 	0.95360 0.18578 0.28528 0.44200
H 	H 	0.99649 0.08004 0.53221 0.03000
H 	H 	0.89547 0.82719 0.53337 0.02300
H 	H 	0.88891 0.03685 0.40263 0.02500
H 	H 	0.92615 0.07194 0.43234 0.02500
H 	H 	0.91544 0.97973 0.48672 0.02400
H 	H 	0.93592 0.01907 0.33162 0.02800
Cr	Cr	0.50366 0.35945 0.84189 1.57400
Cr	Cr	0.66469 0.11072 0.90448 1.57900
O 	O 	0.48882 0.44555 0.67003 -0.53600
O 	O 	0.51049 0.46717 0.60505 -0.53800
O 	O 	0.69111 0.25729 0.74468 -0.53100
O 	O 	0.80302 0.20326 0.74729 -0.51200
O 	O 	0.71724 0.20927 0.77167 -0.52500
O 	O 	0.52007 0.38265 0.76431 -0.54200
O 	O 	0.57236 0.29786 0.78247 -0.53900
O 	O 	0.49277 0.39631 0.80799 -0.53500
O 	O 	0.36245 0.31914 0.85819 -0.52000
O 	O 	0.51346 0.32559 0.87850 -0.52300
O 	O 	0.54547 0.26799 0.82704 -0.53200
O 	O 	0.65527 0.08273 0.98116 -0.52200
O 	O 	0.94807 0.14700 0.65590 -0.50300
O 	O 	0.68168 0.07436 0.93483 -0.53800
O 	O 	0.90252 0.13658 0.68258 -0.51400
O 	O 	0.65275 0.14441 0.87024 -0.54600
O 	O 	0.59987 0.16534 0.88752 -0.53200
C 	C 	0.87136 0.18525 0.71088 0.06800
C 	C 	0.90378 0.17875 0.69005 -0.14000
C 	C 	0.91943 0.15219 0.67557 0.41200
C 	C 	0.48651 0.43958 0.72842 0.11400
C 	C 	0.48099 0.43349 0.76034 -0.19100
C 	C 	0.49947 0.40250 0.77863 0.46500
C 	C 	0.60153 0.24425 0.80447 -0.17400
C 	C 	0.60101 0.21586 0.83007 0.10600
C 	C 	0.62906 0.19207 0.83534 -0.17800
C 	C 	0.65870 0.19599 0.81316 0.10000
C 	C 	0.66041 0.22392 0.78650 -0.16500
C 	C 	0.63136 0.24792 0.78249 0.09900
C 	C 	0.69167 0.23024 0.76604 0.44000
C 	C 	0.62699 0.16540 0.86614 0.45900
C 	C 	0.57109 0.27156 0.80430 0.45400
C 	C 	0.56147 0.22140 0.94760 -0.16400
C 	C 	0.54271 0.24154 0.92723 0.08800
C 	C 	0.67466 0.06422 0.96472 0.44400
H 	H 	0.85874 0.16996 0.71779 0.03200
H 	H 	0.50603 0.42281 0.71663 0.02400
H 	H 	0.57839 0.21315 0.84737 0.02500
H 	H 	0.68043 0.17806 0.81766 0.02500
H 	H 	0.63189 0.27027 0.76328 0.02700
H 	H 	0.53661 0.23093 0.91838 0.02900
Cr	Cr	0.35945 0.50366 0.29500 1.57400
Cr	Cr	0.11072 0.66469 0.32011 1.57900
O 	O 	0.44555 0.48882 0.39560 -0.53600
O 	O 	0.46717 0.51049 0.41729 -0.53800
O 	O 	0.25729 0.69111 0.30692 -0.53100
O 	O 	0.20326 0.80302 0.24643 -0.51200
O 	O 	0.20927 0.71724 0.30182 -0.52500
O 	O 	0.38265 0.52007 0.33297 -0.54200
O 	O 	0.29786 0.57236 0.34731 -0.53900
O 	O 	0.39631 0.49277 0.30293 -0.53500
O 	O 	0.31914 0.36245 0.46022 -0.52000
O 	O 	0.32559 0.51346 0.28245 -0.52300
O 	O 	0.26799 0.54547 0.35950 -0.53200
O 	O 	0.08273 0.65527 0.28084 -0.52000
O 	O 	0.14700 0.94807 0.24903 -0.50200
O 	O 	0.07436 0.68168 0.30913 -0.53700
O 	O 	0.13658 0.90252 0.27832 -0.51400
O 	O 	0.14441 0.65275 0.33260 -0.54600
O 	O 	0.16534 0.59987 0.34727 -0.53100
C 	C 	0.18525 0.87136 0.23251 0.06800
C 	C 	0.17875 0.90378 0.22742 -0.14000
C 	C 	0.15219 0.91943 0.25281 0.41200
C 	C 	0.43958 0.48651 0.34549 0.11400
C 	C 	0.43349 0.48099 0.32518 -0.19100
C 	C 	0.40250 0.49947 0.31940 0.46400
C 	C 	0.24425 0.60153 0.34975 -0.17400
C 	C 	0.21586 0.60101 0.35306 0.10600
C 	C 	0.19207 0.62906 0.34353 -0.17800
C 	C 	0.19599 0.65870 0.33215 0.10000
C 	C 	0.22392 0.66041 0.32917 -0.16500
C 	C 	0.24792 0.63136 0.33823 0.09900
C 	C 	0.23024 0.69167 0.31205 0.44000
C 	C 	0.16540 0.62699 0.34147 0.45900
C 	C 	0.27156 0.57109 0.35305 0.45400
C 	C 	0.22140 0.56147 0.26953 -0.16400
C 	C 	0.24154 0.54271 0.28852 0.08800
C 	C 	0.06422 0.67466 0.29640 0.44300
H 	H 	0.16996 0.85874 0.25351 0.03200
H 	H 	0.42281 0.50603 0.35453 0.02400
H 	H 	0.21315 0.57839 0.36109 0.02500
H 	H 	0.17806 0.68043 0.32385 0.02500
H 	H 	0.27027 0.63189 0.33456 0.02700
H 	H 	0.23093 0.53661 0.31408 0.02900
Cr	Cr	0.29500 0.84189 0.35945 1.57400
Cr	Cr	0.32011 0.90448 0.11072 1.57900
O 	O 	0.39560 0.67003 0.44555 -0.53600
O 	O 	0.41729 0.60505 0.46717 -0.53800
O 	O 	0.30692 0.74468 0.25729 -0.53100
O 	O 	0.24643 0.74729 0.20326 -0.51100
O 	O 	0.30182 0.77167 0.20927 -0.52500
O 	O 	0.33297 0.76431 0.38265 -0.54200
O 	O 	0.34731 0.78247 0.29786 -0.53900
O 	O 	0.30293 0.80799 0.39631 -0.53500
O 	O 	0.46022 0.85819 0.31914 -0.52000
O 	O 	0.28245 0.87850 0.32559 -0.52300
O 	O 	0.35950 0.82704 0.26799 -0.53200
O 	O 	0.28084 0.98116 0.08273 -0.52200
O 	O 	0.24903 0.65590 0.14700 -0.50200
O 	O 	0.30913 0.93483 0.07436 -0.53800
O 	O 	0.27832 0.68258 0.13658 -0.51400
O 	O 	0.33260 0.87024 0.14441 -0.54600
O 	O 	0.34727 0.88752 0.16534 -0.53200
C 	C 	0.23251 0.71088 0.18525 0.06800
C 	C 	0.22742 0.69005 0.17875 -0.14000
C 	C 	0.25281 0.67557 0.15219 0.41200
C 	C 	0.34549 0.72842 0.43958 0.11400
C 	C 	0.32518 0.76034 0.43349 -0.19100
C 	C 	0.31940 0.77863 0.40250 0.46500
C 	C 	0.34975 0.80447 0.24425 -0.17500
C 	C 	0.35306 0.83007 0.21586 0.10600
C 	C 	0.34353 0.83534 0.19207 -0.17800
C 	C 	0.33215 0.81316 0.19599 0.10000
C 	C 	0.32917 0.78650 0.22392 -0.16500
C 	C 	0.33823 0.78249 0.24792 0.09900
C 	C 	0.31205 0.76604 0.23024 0.44000
C 	C 	0.34147 0.86614 0.16540 0.45900
C 	C 	0.35305 0.80430 0.27156 0.45400
C 	C 	0.26953 0.94760 0.22140 -0.16400
C 	C 	0.28852 0.92723 0.24154 0.08800
C 	C 	0.29640 0.96472 0.06422 0.44400
H 	H 	0.25351 0.71779 0.16996 0.03200
H 	H 	0.35453 0.71663 0.42281 0.02400
H 	H 	0.36109 0.84737 0.21315 0.02500
H 	H 	0.32385 0.81766 0.17806 0.02500
H 	H 	0.33456 0.76328 0.27027 0.02700
H 	H 	0.31408 0.91838 0.23093 0.02900
Cr	Cr	0.84189 0.29500 0.50366 1.57400
Cr	Cr	0.90448 0.32011 0.66469 1.57900
O 	O 	0.67003 0.39560 0.48882 -0.53600
O 	O 	0.60505 0.41729 0.51049 -0.53800
O 	O 	0.74468 0.30692 0.69111 -0.53100
O 	O 	0.74729 0.24643 0.80302 -0.51200
O 	O 	0.77167 0.30182 0.71724 -0.52500
O 	O 	0.76431 0.33297 0.52007 -0.54200
O 	O 	0.78247 0.34731 0.57236 -0.53900
O 	O 	0.80799 0.30293 0.49277 -0.53500
O 	O 	0.85819 0.46022 0.36245 -0.52000
O 	O 	0.87850 0.28245 0.51346 -0.52300
O 	O 	0.82704 0.35950 0.54547 -0.53200
O 	O 	0.98116 0.28084 0.65527 -0.52200
O 	O 	0.65590 0.24903 0.94807 -0.50300
O 	O 	0.93483 0.30913 0.68168 -0.53800
O 	O 	0.68258 0.27832 0.90252 -0.51400
O 	O 	0.87024 0.33260 0.65275 -0.54600
O 	O 	0.88752 0.34727 0.59987 -0.53200
C 	C 	0.71088 0.23251 0.87136 0.06800
C 	C 	0.69005 0.22742 0.90378 -0.14000
C 	C 	0.67557 0.25281 0.91943 0.41200
C 	C 	0.72842 0.34549 0.48651 0.11400
C 	C 	0.76034 0.32518 0.48099 -0.19100
C 	C 	0.77863 0.31940 0.49947 0.46500
C 	C 	0.80447 0.34975 0.60153 -0.17500
C 	C 	0.83007 0.35306 0.60101 0.10600
C 	C 	0.83534 0.34353 0.62906 -0.17800
C 	C 	0.81316 0.33215 0.65870 0.10000
C 	C 	0.78650 0.32917 0.66041 -0.16500
C 	C 	0.78249 0.33823 0.63136 0.09900
C 	C 	0.76604 0.31205 0.69167 0.44000
C 	C 	0.86614 0.34147 0.62699 0.45900
C 	C 	0.80430 0.35305 0.57109 0.45400
C 	C 	0.94760 0.26953 0.56147 -0.16400
C 	C 	0.92723 0.28852 0.54271 0.08800
C 	C 	0.96472 0.29640 0.67466 0.44300
H 	H 	0.71779 0.25351 0.85874 0.03200
H 	H 	0.71663 0.35453 0.50603 0.02400
H 	H 	0.84737 0.36109 0.57839 0.02500
H 	H 	0.81766 0.32385 0.68043 0.02500
H 	H 	0.76328 0.33456 0.63189 0.02700
H 	H 	0.91838 0.31408 0.53661 0.02900
Cr	Cr	0.29500 0.50366 0.84189 1.57400
Cr	Cr	0.32011 0.66469 0.90448 1.57900
O 	O 	0.39560 0.48882 0.67003 -0.53600
O 	O 	0.41729 0.51049 0.60505 -0.53800
O 	O 	0.30692 0.69111 0.74468 -0.53100
O 	O 	0.24643 0.80302 0.74729 -0.51200
O 	O 	0.30182 0.71724 0.77167 -0.52500
O 	O 	0.33297 0.52007 0.76431 -0.54200
O 	O 	0.34731 0.57236 0.78247 -0.53900
O 	O 	0.30293 0.49277 0.80799 -0.53500
O 	O 	0.46022 0.36245 0.85819 -0.52000
O 	O 	0.28245 0.51346 0.87850 -0.52300
O 	O 	0.35950 0.54547 0.82704 -0.53200
O 	O 	0.28084 0.65527 0.98116 -0.52200
O 	O 	0.24903 0.94807 0.65590 -0.50300
O 	O 	0.30913 0.68168 0.93483 -0.53800
O 	O 	0.27832 0.90252 0.68258 -0.51400
O 	O 	0.33260 0.65275 0.87024 -0.54600
O 	O 	0.34727 0.59987 0.88752 -0.53200
C 	C 	0.23251 0.87136 0.71088 0.06800
C 	C 	0.22742 0.90378 0.69005 -0.14000
C 	C 	0.25281 0.91943 0.67557 0.41200
C 	C 	0.34549 0.48651 0.72842 0.11400
C 	C 	0.32518 0.48099 0.76034 -0.19100
C 	C 	0.31940 0.49947 0.77863 0.46500
C 	C 	0.34975 0.60153 0.80447 -0.17500
C 	C 	0.35306 0.60101 0.83007 0.10600
C 	C 	0.34353 0.62906 0.83534 -0.17800
C 	C 	0.33215 0.65870 0.81316 0.10000
C 	C 	0.32917 0.66041 0.78650 -0.16500
C 	C 	0.33823 0.63136 0.78249 0.09900
C 	C 	0.31205 0.69167 0.76604 0.44000
C 	C 	0.34147 0.62699 0.86614 0.45900
C 	C 	0.35305 0.57109 0.80430 0.45400
C 	C 	0.26953 0.56147 0.94760 -0.16400
C 	C 	0.28852 0.54271 0.92723 0.08800
C 	C 	0.29640 0.67466 0.96472 0.44300
H 	H 	0.25351 0.85874 0.71779 0.03200
H 	H 	0.35453 0.50603 0.71663 0.02400
H 	H 	0.36109 0.57839 0.84737 0.02500
H 	H 	0.32385 0.68043 0.81766 0.02500
H 	H 	0.33456 0.63189 0.76328 0.02700
H 	H 	0.31408 0.53661 0.91838 0.02900
Cr	Cr	0.84189 0.35945 0.29500 1.57400
Cr	Cr	0.90448 0.11072 0.32011 1.57900
O 	O 	0.67003 0.44555 0.39560 -0.53600
O 	O 	0.60505 0.46717 0.41729 -0.53800
O 	O 	0.74468 0.25729 0.30692 -0.53100
O 	O 	0.74729 0.20326 0.24643 -0.51100
O 	O 	0.77167 0.20927 0.30182 -0.52500
O 	O 	0.76431 0.38265 0.33297 -0.54200
O 	O 	0.78247 0.29786 0.34731 -0.53900
O 	O 	0.80799 0.39631 0.30293 -0.53500
O 	O 	0.85819 0.31914 0.46022 -0.52000
O 	O 	0.87850 0.32559 0.28245 -0.52300
O 	O 	0.82704 0.26799 0.35950 -0.53200
O 	O 	0.98116 0.08273 0.28084 -0.52200
O 	O 	0.65590 0.14700 0.24903 -0.50200
O 	O 	0.93483 0.07436 0.30913 -0.53800
O 	O 	0.68258 0.13658 0.27832 -0.51400
O 	O 	0.87024 0.14441 0.33260 -0.54600
O 	O 	0.88752 0.16534 0.34727 -0.53200
C 	C 	0.71088 0.18525 0.23251 0.06800
C 	C 	0.69005 0.17875 0.22742 -0.14000
C 	C 	0.67557 0.15219 0.25281 0.41200
C 	C 	0.72842 0.43958 0.34549 0.11400
C 	C 	0.76034 0.43349 0.32518 -0.19100
C 	C 	0.77863 0.40250 0.31940 0.46500
C 	C 	0.80447 0.24425 0.34975 -0.17500
C 	C 	0.83007 0.21586 0.35306 0.10600
C 	C 	0.83534 0.19207 0.34353 -0.17800
C 	C 	0.81316 0.19599 0.33215 0.10000
C 	C 	0.78650 0.22392 0.32917 -0.16500
C 	C 	0.78249 0.24792 0.33823 0.09900
C 	C 	0.76604 0.23024 0.31205 0.44000
C 	C 	0.86614 0.16540 0.34147 0.45900
C 	C 	0.80430 0.27156 0.35305 0.45400
C 	C 	0.94760 0.22140 0.26953 -0.16400
C 	C 	0.92723 0.24154 0.28852 0.08800
C 	C 	0.96472 0.06422 0.29640 0.44400
H 	H 	0.71779 0.16996 0.25351 0.03200
H 	H 	0.71663 0.42281 0.35453 0.02400
H 	H 	0.84737 0.21315 0.36109 0.02500
H 	H 	0.81766 0.17806 0.32385 0.02500
H 	H 	0.76328 0.27027 0.33456 0.02700
H 	H 	0.91838 0.23093 0.31408 0.02900
Cr	Cr	0.50366 0.29500 0.35945 1.57400
Cr	Cr	0.66469 0.32011 0.11072 1.57900
O 	O 	0.48882 0.39560 0.44555 -0.53600
O 	O 	0.51049 0.41729 0.46717 -0.53800
O 	O 	0.69111 0.30692 0.25729 -0.53100
O 	O 	0.80302 0.24643 0.20326 -0.51200
O 	O 	0.71724 0.30182 0.20927 -0.52500
O 	O 	0.52007 0.33297 0.38265 -0.54200
O 	O 	0.57236 0.34731 0.29786 -0.53900
O 	O 	0.49277 0.30293 0.39631 -0.53500
O 	O 	0.36245 0.46022 0.31914 -0.52000
O 	O 	0.51346 0.28245 0.32559 -0.52300
O 	O 	0.54547 0.35950 0.26799 -0.53200
O 	O 	0.65527 0.28084 0.08273 -0.52000
O 	O 	0.94807 0.24903 0.14700 -0.50200
O 	O 	0.68168 0.30913 0.07436 -0.53700
O 	O 	0.90252 0.27832 0.13658 -0.51400
O 	O 	0.65275 0.33260 0.14441 -0.54600
O 	O 	0.59987 0.34727 0.16534 -0.53100
C 	C 	0.87136 0.23251 0.18525 0.06800
C 	C 	0.90378 0.22742 0.17875 -0.14000
C 	C 	0.91943 0.25281 0.15219 0.41200
C 	C 	0.48651 0.34549 0.43958 0.11400
C 	C 	0.48099 0.32518 0.43349 -0.19100
C 	C 	0.49947 0.31940 0.40250 0.46400
C 	C 	0.60153 0.34975 0.24425 -0.17400
C 	C 	0.60101 0.35306 0.21586 0.10600
C 	C 	0.62906 0.34353 0.19207 -0.17800
C 	C 	0.65870 0.33215 0.19599 0.10000
C 	C 	0.66041 0.32917 0.22392 -0.16500
C 	C 	0.63136 0.33823 0.24792 0.09900
C 	C 	0.69167 0.31205 0.23024 0.44000
C 	C 	0.62699 0.34147 0.16540 0.45900
C 	C 	0.57109 0.35305 0.27156 0.45400
C 	C 	0.56147 0.26953 0.22140 -0.16400
C 	C 	0.54271 0.28852 0.24154 0.08800
C 	C 	0.67466 0.29640 0.06422 0.44300
H 	H 	0.85874 0.25351 0.16996 0.03200
H 	H 	0.50603 0.35453 0.42281 0.02400
H 	H 	0.57839 0.36109 0.21315 0.02500
H 	H 	0.68043 0.32385 0.17806 0.02500
H 	H 	0.63189 0.33456 0.27027 0.02700
H 	H 	0.53661 0.31408 0.23093 0.02900
Cr	Cr	0.35945 0.84189 0.50366 1.57400
Cr	Cr	0.11072 0.90448 0.66469 1.57900
O 	O 	0.44555 0.67003 0.48882 -0.53600
O 	O 	0.46717 0.60505 0.51049 -0.53800
O 	O 	0.25729 0.74468 0.69111 -0.53100
O 	O 	0.20326 0.74729 0.80302 -0.51200
O 	O 	0.20927 0.77167 0.71724 -0.52500
O 	O 	0.38265 0.76431 0.52007 -0.54200
O 	O 	0.29786 0.78247 0.57236 -0.53900
O 	O 	0.39631 0.80799 0.49277 -0.53500
O 	O 	0.31914 0.85819 0.36245 -0.52000
O 	O 	0.32559 0.87850 0.51346 -0.52300
O 	O 	0.26799 0.82704 0.54547 -0.53200
O 	O 	0.08273 0.98116 0.65527 -0.52200
O 	O 	0.14700 0.65590 0.94807 -0.50300
O 	O 	0.07436 0.93483 0.68168 -0.53800
O 	O 	0.13658 0.68258 0.90252 -0.51400
O 	O 	0.14441 0.87024 0.65275 -0.54600
O 	O 	0.16534 0.88752 0.59987 -0.53200
C 	C 	0.18525 0.71088 0.87136 0.06800
C 	C 	0.17875 0.69005 0.90378 -0.14000
C 	C 	0.15219 0.67557 0.91943 0.41200
C 	C 	0.43958 0.72842 0.48651 0.11400
C 	C 	0.43349 0.76034 0.48099 -0.19100
C 	C 	0.40250 0.77863 0.49947 0.46500
C 	C 	0.24425 0.80447 0.60153 -0.17400
C 	C 	0.21586 0.83007 0.60101 0.10600
C 	C 	0.19207 0.83534 0.62906 -0.17800
C 	C 	0.19599 0.81316 0.65870 0.10000
C 	C 	0.22392 0.78650 0.66041 -0.16500
C 	C 	0.24792 0.78249 0.63136 0.09900
C 	C 	0.23024 0.76604 0.69167 0.44000
C 	C 	0.16540 0.86614 0.62699 0.45900
C 	C 	0.27156 0.80430 0.57109 0.45400
C 	C 	0.22140 0.94760 0.56147 -0.16400
C 	C 	0.24154 0.92723 0.54271 0.08800
C 	C 	0.06422 0.96472 0.67466 0.44400
H 	H 	0.16996 0.71779 0.85874 0.03200
H 	H 	0.42281 0.71663 0.50603 0.02400
H 	H 	0.21315 0.84737 0.57839 0.02500
H 	H 	0.17806 0.81766 0.68043 0.02500
H 	H 	0.27027 0.76328 0.63189 0.02700
H 	H 	0.23093 0.91838 0.53661 0.02900
Cr	Cr	0.35945 0.29500 0.84189 1.57400
Cr	Cr	0.11072 0.32011 0.90448 1.57900
O 	O 	0.44555 0.39560 0.67003 -0.53600
O 	O 	0.46717 0.41729 0.60505 -0.53800
O 	O 	0.25729 0.30692 0.74468 -0.53100
O 	O 	0.20326 0.24643 0.74729 -0.51100
O 	O 	0.20927 0.30182 0.77167 -0.52500
O 	O 	0.38265 0.33297 0.76431 -0.54200
O 	O 	0.29786 0.34731 0.78247 -0.53900
O 	O 	0.39631 0.30293 0.80799 -0.53500
O 	O 	0.31914 0.46022 0.85819 -0.52000
O 	O 	0.32559 0.28245 0.87850 -0.52300
O 	O 	0.26799 0.35950 0.82704 -0.53200
O 	O 	0.08273 0.28084 0.98116 -0.52200
O 	O 	0.14700 0.24903 0.65590 -0.50200
O 	O 	0.07436 0.30913 0.93483 -0.53800
O 	O 	0.13658 0.27832 0.68258 -0.51400
O 	O 	0.14441 0.33260 0.87024 -0.54600
O 	O 	0.16534 0.34727 0.88752 -0.53200
C 	C 	0.18525 0.23251 0.71088 0.06800
C 	C 	0.17875 0.22742 0.69005 -0.14000
C 	C 	0.15219 0.25281 0.67557 0.41200
C 	C 	0.43958 0.34549 0.72842 0.11400
C 	C 	0.43349 0.32518 0.76034 -0.19100
C 	C 	0.40250 0.31940 0.77863 0.46500
C 	C 	0.24425 0.34975 0.80447 -0.17500
C 	C 	0.21586 0.35306 0.83007 0.10600
C 	C 	0.19207 0.34353 0.83534 -0.17800
C 	C 	0.19599 0.33215 0.81316 0.10000
C 	C 	0.22392 0.32917 0.78650 -0.16500
C 	C 	0.24792 0.33823 0.78249 0.09900
C 	C 	0.23024 0.31205 0.76604 0.44000
C 	C 	0.16540 0.34147 0.86614 0.45900
C 	C 	0.27156 0.35305 0.80430 0.45400
C 	C 	0.22140 0.26953 0.94760 -0.16400
C 	C 	0.24154 0.28852 0.92723 0.08800
C 	C 	0.06422 0.29640 0.96472 0.44400
H 	H 	0.16996 0.25351 0.71779 0.03200
H 	H 	0.42281 0.35453 0.71663 0.02400
H 	H 	0.21315 0.36109 0.84737 0.02500
H 	H 	0.17806 0.32385 0.81766 0.02500
H 	H 	0.27027 0.33456 0.76328 0.02700
H 	H 	0.23093 0.31408 0.91838 0.02900
Cr	Cr	0.50366 0.84189 0.29500 1.57400
Cr	Cr	0.66469 0.90448 0.32011 1.57900
O 	O 	0.48882 0.67003 0.39560 -0.53600
O 	O 	0.51049 0.60505 0.41729 -0.53800
O 	O 	0.69111 0.74468 0.30692 -0.53100
O 	O 	0.80302 0.74729 0.24643 -0.51200
O 	O 	0.71724 0.77167 0.30182 -0.52500
O 	O 	0.52007 0.76431 0.33297 -0.54200
O 	O 	0.57236 0.78247 0.34731 -0.53900
O 	O 	0.49277 0.80799 0.30293 -0.53500
O 	O 	0.36245 0.85819 0.46022 -0.52000
O 	O 	0.51346 0.87850 0.28245 -0.52300
O 	O 	0.54547 0.82704 0.35950 -0.53200
O 	O 	0.65527 0.98116 0.28084 -0.52200
O 	O 	0.94807 0.65590 0.24903 -0.50300
O 	O 	0.68168 0.93483 0.30913 -0.53800
O 	O 	0.90252 0.68258 0.27832 -0.51400
O 	O 	0.65275 0.87024 0.33260 -0.54600
O 	O 	0.59987 0.88752 0.34727 -0.53200
C 	C 	0.87136 0.71088 0.23251 0.06800
C 	C 	0.90378 0.69005 0.22742 -0.14000
C 	C 	0.91943 0.67557 0.25281 0.41200
C 	C 	0.48651 0.72842 0.34549 0.11400
C 	C 	0.48099 0.76034 0.32518 -0.19100
C 	C 	0.49947 0.77863 0.31940 0.46500
C 	C 	0.60153 0.80447 0.34975 -0.17500
C 	C 	0.60101 0.83007 0.35306 0.10600
C 	C 	0.62906 0.83534 0.34353 -0.17800
C 	C 	0.65870 0.81316 0.33215 0.10000
C 	C 	0.66041 0.78650 0.32917 -0.16500
C 	C 	0.63136 0.78249 0.33823 0.09900
C 	C 	0.69167 0.76604 0.31205 0.44000
C 	C 	0.62699 0.86614 0.34147 0.45900
C 	C 	0.57109 0.80430 0.35305 0.45400
C 	C 	0.56147 0.94760 0.26953 -0.16400
C 	C 	0.54271 0.92723 0.28852 0.08800
C 	C 	0.67466 0.96472 0.29640 0.44300
H 	H 	0.85874 0.71779 0.25351 0.03200
H 	H 	0.50603 0.71663 0.35453 0.02400
H 	H 	0.57839 0.84737 0.36109 0.02500
H 	H 	0.68043 0.81766 0.32385 0.02500
H 	H 	0.63189 0.76328 0.33456 0.02700
H 	H 	0.53661 0.91838 0.31408 0.02900
Cr	Cr	0.84189 0.50366 0.35945 1.57400
Cr	Cr	0.90448 0.66469 0.11072 1.57900
O 	O 	0.67003 0.48882 0.44555 -0.53600
O 	O 	0.60505 0.51049 0.46717 -0.53800
O 	O 	0.74468 0.69111 0.25729 -0.53100
O 	O 	0.74729 0.80302 0.20326 -0.51200
O 	O 	0.77167 0.71724 0.20927 -0.52500
O 	O 	0.76431 0.52007 0.38265 -0.54200
O 	O 	0.78247 0.57236 0.29786 -0.53900
O 	O 	0.80799 0.49277 0.39631 -0.53500
O 	O 	0.85819 0.36245 0.31914 -0.52000
O 	O 	0.87850 0.51346 0.32559 -0.52300
O 	O 	0.82704 0.54547 0.26799 -0.53200
O 	O 	0.98116 0.65527 0.08273 -0.52200
O 	O 	0.65590 0.94807 0.14700 -0.50300
O 	O 	0.93483 0.68168 0.07436 -0.53800
O 	O 	0.68258 0.90252 0.13658 -0.51400
O 	O 	0.87024 0.65275 0.14441 -0.54600
O 	O 	0.88752 0.59987 0.16534 -0.53200
C 	C 	0.71088 0.87136 0.18525 0.06800
C 	C 	0.69005 0.90378 0.17875 -0.14000
C 	C 	0.67557 0.91943 0.15219 0.41200
C 	C 	0.72842 0.48651 0.43958 0.11400
C 	C 	0.76034 0.48099 0.43349 -0.19100
C 	C 	0.77863 0.49947 0.40250 0.46500
C 	C 	0.80447 0.60153 0.24425 -0.17400
C 	C 	0.83007 0.60101 0.21586 0.10600
C 	C 	0.83534 0.62906 0.19207 -0.17800
C 	C 	0.81316 0.65870 0.19599 0.10000
C 	C 	0.78650 0.66041 0.22392 -0.16500
C 	C 	0.78249 0.63136 0.24792 0.09900
C 	C 	0.76604 0.69167 0.23024 0.44000
C 	C 	0.86614 0.62699 0.16540 0.45900
C 	C 	0.80430 0.57109 0.27156 0.45400
C 	C 	0.94760 0.56147 0.22140 -0.16400
C 	C 	0.92723 0.54271 0.24154 0.08800
C 	C 	0.96472 0.67466 0.06422 0.44400
H 	H 	0.71779 0.85874 0.16996 0.03200
H 	H 	0.71663 0.50603 0.42281 0.02400
H 	H 	0.84737 0.57839 0.21315 0.02500
H 	H 	0.81766 0.68043 0.17806 0.02500
H 	H 	0.76328 0.63189 0.27027 0.02700
H 	H 	0.91838 0.53661 0.23093 0.02900
Cr	Cr	0.29500 0.35945 0.50366 1.57400
Cr	Cr	0.32011 0.11072 0.66469 1.57900
O 	O 	0.39560 0.44555 0.48882 -0.53600
O 	O 	0.41729 0.46717 0.51049 -0.53800
O 	O 	0.30692 0.25729 0.69111 -0.53100
O 	O 	0.24643 0.20326 0.80302 -0.51200
O 	O 	0.30182 0.20927 0.71724 -0.52500
O 	O 	0.33297 0.38265 0.52007 -0.54200
O 	O 	0.34731 0.29786 0.57236 -0.53900
O 	O 	0.30293 0.39631 0.49277 -0.53500
O 	O 	0.46022 0.31914 0.36245 -0.52000
O 	O 	0.28245 0.32559 0.51346 -0.52300
O 	O 	0.35950 0.26799 0.54547 -0.53200
O 	O 	0.28084 0.08273 0.65527 -0.52000
O 	O 	0.24903 0.14700 0.94807 -0.50200
O 	O 	0.30913 0.07436 0.68168 -0.53700
O 	O 	0.27832 0.13658 0.90252 -0.51400
O 	O 	0.33260 0.14441 0.65275 -0.54600
O 	O 	0.34727 0.16534 0.59987 -0.53100
C 	C 	0.23251 0.18525 0.87136 0.06800
C 	C 	0.22742 0.17875 0.90378 -0.14000
C 	C 	0.25281 0.15219 0.91943 0.41200
C 	C 	0.34549 0.43958 0.48651 0.11400
C 	C 	0.32518 0.43349 0.48099 -0.19100
C 	C 	0.31940 0.40250 0.49947 0.46400
C 	C 	0.34975 0.24425 0.60153 -0.17400
C 	C 	0.35306 0.21586 0.60101 0.10600
C 	C 	0.34353 0.19207 0.62906 -0.17800
C 	C 	0.33215 0.19599 0.65870 0.10000
C 	C 	0.32917 0.22392 0.66041 -0.16500
C 	C 	0.33823 0.24792 0.63136 0.09900
C 	C 	0.31205 0.23024 0.69167 0.44000
C 	C 	0.34147 0.16540 0.62699 0.45900
C 	C 	0.35305 0.27156 0.57109 0.45400
C 	C 	0.26953 0.22140 0.56147 -0.16400
C 	C 	0.28852 0.24154 0.54271 0.08800
C 	C 	0.29640 0.06422 0.67466 0.44300
H 	H 	0.25351 0.16996 0.85874 0.03200
H 	H 	0.35453 0.42281 0.50603 0.02400
H 	H 	0.36109 0.21315 0.57839 0.02500
H 	H 	0.32385 0.17806 0.68043 0.02500
H 	H 	0.33456 0.27027 0.63189 0.02700
H 	H 	0.31408 0.23093 0.53661 0.02900
Cr	Cr	0.50366 0.35945 0.29500 1.57400
Cr	Cr	0.66469 0.11072 0.32011 1.57900
O 	O 	0.48882 0.44555 0.39560 -0.53600
O 	O 	0.51049 0.46717 0.41729 -0.53800
O 	O 	0.69111 0.25729 0.30692 -0.53100
O 	O 	0.80302 0.20326 0.24643 -0.51200
O 	O 	0.71724 0.20927 0.30182 -0.52500
O 	O 	0.52007 0.38265 0.33297 -0.54200
O 	O 	0.57236 0.29786 0.34731 -0.53900
O 	O 	0.49277 0.39631 0.30293 -0.53500
O 	O 	0.36245 0.31914 0.46022 -0.52000
O 	O 	0.51346 0.32559 0.28245 -0.52300
O 	O 	0.54547 0.26799 0.35950 -0.53200
O 	O 	0.65527 0.08273 0.28084 -0.52000
O 	O 	0.94807 0.14700 0.24903 -0.50200
O 	O 	0.68168 0.07436 0.30913 -0.53700
O 	O 	0.90252 0.13658 0.27832 -0.51400
O 	O 	0.65275 0.14441 0.33260 -0.54600
O 	O 	0.59987 0.16534 0.34727 -0.53100
C 	C 	0.87136 0.18525 0.23251 0.06800
C 	C 	0.90378 0.17875 0.22742 -0.14000
C 	C 	0.91943 0.15219 0.25281 0.41200
C 	C 	0.48651 0.43958 0.34549 0.11400
C 	C 	0.48099 0.43349 0.32518 -0.19100
C 	C 	0.49947 0.40250 0.31940 0.46400
C 	C 	0.60153 0.24425 0.34975 -0.17400
C 	C 	0.60101 0.21586 0.35306 0.10600
C 	C 	0.62906 0.19207 0.34353 -0.17800
C 	C 	0.65870 0.19599 0.33215 0.10000
C 	C 	0.66041 0.22392 0.32917 -0.16500
C 	C 	0.63136 0.24792 0.33823 0.09900
C 	C 	0.69167 0.23024 0.31205 0.44000
C 	C 	0.62699 0.16540 0.34147 0.45900
C 	C 	0.57109 0.27156 0.35305 0.45400
C 	C 	0.56147 0.22140 0.26953 -0.16400
C 	C 	0.54271 0.24154 0.28852 0.08800
C 	C 	0.67466 0.06422 0.29640 0.44300
H 	H 	0.85874 0.16996 0.25351 0.03200
H 	H 	0.50603 0.42281 0.35453 0.02400
H 	H 	0.57839 0.21315 0.36109 0.02500
H 	H 	0.68043 0.17806 0.32385 0.02500
H 	H 	0.63189 0.27027 0.33456 0.02700
H 	H 	0.53661 0.23093 0.31408 0.02900
Cr	Cr	0.35945 0.50366 0.84189 1.57400
Cr	Cr	0.11072 0.66469 0.90448 1.57900
O 	O 	0.44555 0.48882 0.67003 -0.53600
O 	O 	0.46717 0.51049 0.60505 -0.53800
O 	O 	0.25729 0.69111 0.74468 -0.53100
O 	O 	0.20326 0.80302 0.74729 -0.51200
O 	O 	0.20927 0.71724 0.77167 -0.52500
O 	O 	0.38265 0.52007 0.76431 -0.54200
O 	O 	0.29786 0.57236 0.78247 -0.53900
O 	O 	0.39631 0.49277 0.80799 -0.53500
O 	O 	0.31914 0.36245 0.85819 -0.52000
O 	O 	0.32559 0.51346 0.87850 -0.52300
O 	O 	0.26799 0.54547 0.82704 -0.53200
O 	O 	0.08273 0.65527 0.98116 -0.52200
O 	O 	0.14700 0.94807 0.65590 -0.50300
O 	O 	0.07436 0.68168 0.93483 -0.53800
O 	O 	0.13658 0.90252 0.68258 -0.51400
O 	O 	0.14441 0.65275 0.87024 -0.54600
O 	O 	0.16534 0.59987 0.88752 -0.53200
C 	C 	0.18525 0.87136 0.71088 0.06800
C 	C 	0.17875 0.90378 0.69005 -0.14000
C 	C 	0.15219 0.91943 0.67557 0.41200
C 	C 	0.43958 0.48651 0.72842 0.11400
C 	C 	0.43349 0.48099 0.76034 -0.19100
C 	C 	0.40250 0.49947 0.77863 0.46500
C 	C 	0.24425 0.60153 0.80447 -0.17400
C 	C 	0.21586 0.60101 0.83007 0.10600
C 	C 	0.19207 0.62906 0.83534 -0.17800
C 	C 	0.19599 0.65870 0.81316 0.10000
C 	C 	0.22392 0.66041 0.78650 -0.16500
C 	C 	0.24792 0.63136 0.78249 0.09900
C 	C 	0.23024 0.69167 0.76604 0.44000
C 	C 	0.16540 0.62699 0.86614 0.45900
C 	C 	0.27156 0.57109 0.80430 0.45400
C 	C 	0.22140 0.56147 0.94760 -0.16400
C 	C 	0.24154 0.54271 0.92723 0.08800
C 	C 	0.06422 0.67466 0.96472 0.44400
H 	H 	0.16996 0.85874 0.71779 0.03200
H 	H 	0.42281 0.50603 0.71663 0.02400
H 	H 	0.21315 0.57839 0.84737 0.02500
H 	H 	0.17806 0.68043 0.81766 0.02500
H 	H 	0.27027 0.63189 0.76328 0.02700
H 	H 	0.23093 0.53661 0.91838 0.02900
Cr	Cr	0.29500 0.84189 0.50366 1.57400
Cr	Cr	0.32011 0.90448 0.66469 1.57900
O 	O 	0.39560 0.67003 0.48882 -0.53600
O 	O 	0.41729 0.60505 0.51049 -0.53800
O 	O 	0.30692 0.74468 0.69111 -0.53100
O 	O 	0.24643 0.74729 0.80302 -0.51200
O 	O 	0.30182 0.77167 0.71724 -0.52500
O 	O 	0.33297 0.76431 0.52007 -0.54200
O 	O 	0.34731 0.78247 0.57236 -0.53900
O 	O 	0.30293 0.80799 0.49277 -0.53500
O 	O 	0.46022 0.85819 0.36245 -0.52000
O 	O 	0.28245 0.87850 0.51346 -0.52300
O 	O 	0.35950 0.82704 0.54547 -0.53200
O 	O 	0.28084 0.98116 0.65527 -0.52200
O 	O 	0.24903 0.65590 0.94807 -0.50300
O 	O 	0.30913 0.93483 0.68168 -0.53800
O 	O 	0.27832 0.68258 0.90252 -0.51400
O 	O 	0.33260 0.87024 0.65275 -0.54600
O 	O 	0.34727 0.88752 0.59987 -0.53200
C 	C 	0.23251 0.71088 0.87136 0.06800
C 	C 	0.22742 0.69005 0.90378 -0.14000
C 	C 	0.25281 0.67557 0.91943 0.41200
C 	C 	0.34549 0.72842 0.48651 0.11400
C 	C 	0.32518 0.76034 0.48099 -0.19100
C 	C 	0.31940 0.77863 0.49947 0.46500
C 	C 	0.34975 0.80447 0.60153 -0.17500
C 	C 	0.35306 0.83007 0.60101 0.10600
C 	C 	0.34353 0.83534 0.62906 -0.17800
C 	C 	0.33215 0.81316 0.65870 0.10000
C 	C 	0.32917 0.78650 0.66041 -0.16500
C 	C 	0.33823 0.78249 0.63136 0.09900
C 	C 	0.31205 0.76604 0.69167 0.44000
C 	C 	0.34147 0.86614 0.62699 0.45900
C 	C 	0.35305 0.80430 0.57109 0.45400
C 	C 	0.26953 0.94760 0.56147 -0.16400
C 	C 	0.28852 0.92723 0.54271 0.08800
C 	C 	0.29640 0.96472 0.67466 0.44300
H 	H 	0.25351 0.71779 0.85874 0.03200
H 	H 	0.35453 0.71663 0.50603 0.02400
H 	H 	0.36109 0.84737 0.57839 0.02500
H 	H 	0.32385 0.81766 0.68043 0.02500
H 	H 	0.33456 0.76328 0.63189 0.02700
H 	H 	0.31408 0.91838 0.53661 0.02900
Cr	Cr	0.84189 0.29500 0.35945 1.57400
Cr	Cr	0.90448 0.32011 0.11072 1.57900
O 	O 	0.67003 0.39560 0.44555 -0.53600
O 	O 	0.60505 0.41729 0.46717 -0.53800
O 	O 	0.74468 0.30692 0.25729 -0.53100
O 	O 	0.74729 0.24643 0.20326 -0.51100
O 	O 	0.77167 0.30182 0.20927 -0.52500
O 	O 	0.76431 0.33297 0.38265 -0.54200
O 	O 	0.78247 0.34731 0.29786 -0.53900
O 	O 	0.80799 0.30293 0.39631 -0.53500
O 	O 	0.85819 0.46022 0.31914 -0.52000
O 	O 	0.87850 0.28245 0.32559 -0.52300
O 	O 	0.82704 0.35950 0.26799 -0.53200
O 	O 	0.98116 0.28084 0.08273 -0.52200
O 	O 	0.65590 0.24903 0.14700 -0.50200
O 	O 	0.93483 0.30913 0.07436 -0.53800
O 	O 	0.68258 0.27832 0.13658 -0.51400
O 	O 	0.87024 0.33260 0.14441 -0.54600
O 	O 	0.88752 0.34727 0.16534 -0.53200
C 	C 	0.71088 0.23251 0.18525 0.06800
C 	C 	0.69005 0.22742 0.17875 -0.14000
C 	C 	0.67557 0.25281 0.15219 0.41200
C 	C 	0.72842 0.34549 0.43958 0.11400
C 	C 	0.76034 0.32518 0.43349 -0.19100
C 	C 	0.77863 0.31940 0.40250 0.46500
C 	C 	0.80447 0.34975 0.24425 -0.17500
C 	C 	0.83007 0.35306 0.21586 0.10600
C 	C 	0.83534 0.34353 0.19207 -0.17800
C 	C 	0.81316 0.33215 0.19599 0.10000
C 	C 	0.78650 0.32917 0.22392 -0.16500
C 	C 	0.78249 0.33823 0.24792 0.09900
C 	C 	0.76604 0.31205 0.23024 0.44000
C 	C 	0.86614 0.34147 0.16540 0.45900
C 	C 	0.80430 0.35305 0.27156 0.45400
C 	C 	0.94760 0.26953 0.22140 -0.16400
C 	C 	0.92723 0.28852 0.24154 0.08800
C 	C 	0.96472 0.29640 0.06422 0.44400
H 	H 	0.71779 0.25351 0.16996 0.03200
H 	H 	0.71663 0.35453 0.42281 0.02400
H 	H 	0.84737 0.36109 0.21315 0.02500
H 	H 	0.81766 0.32385 0.17806 0.02500
H 	H 	0.76328 0.33456 0.27027 0.02700
H 	H 	0.91838 0.31408 0.23093 0.02900
Cr	Cr	0.29500 0.50366 0.35945 1.57400
Cr	Cr	0.32011 0.66469 0.11072 1.57900
O 	O 	0.39560 0.48882 0.44555 -0.53600
O 	O 	0.41729 0.51049 0.46717 -0.53800
O 	O 	0.30692 0.69111 0.25729 -0.53100
O 	O 	0.24643 0.80302 0.20326 -0.51200
O 	O 	0.30182 0.71724 0.20927 -0.52500
O 	O 	0.33297 0.52007 0.38265 -0.54200
O 	O 	0.34731 0.57236 0.29786 -0.53900
O 	O 	0.30293 0.49277 0.39631 -0.53500
O 	O 	0.46022 0.36245 0.31914 -0.52000
O 	O 	0.28245 0.51346 0.32559 -0.52300
O 	O 	0.35950 0.54547 0.26799 -0.53200
O 	O 	0.28084 0.65527 0.08273 -0.52000
O 	O 	0.24903 0.94807 0.14700 -0.50200
O 	O 	0.30913 0.68168 0.07436 -0.53700
O 	O 	0.27832 0.90252 0.13658 -0.51400
O 	O 	0.33260 0.65275 0.14441 -0.54600
O 	O 	0.34727 0.59987 0.16534 -0.53100
C 	C 	0.23251 0.87136 0.18525 0.06800
C 	C 	0.22742 0.90378 0.17875 -0.14000
C 	C 	0.25281 0.91943 0.15219 0.41200
C 	C 	0.34549 0.48651 0.43958 0.11400
C 	C 	0.32518 0.48099 0.43349 -0.19100
C 	C 	0.31940 0.49947 0.40250 0.46400
C 	C 	0.34975 0.60153 0.24425 -0.17400
C 	C 	0.35306 0.60101 0.21586 0.10600
C 	C 	0.34353 0.62906 0.19207 -0.17800
C 	C 	0.33215 0.65870 0.19599 0.10000
C 	C 	0.32917 0.66041 0.22392 -0.16500
C 	C 	0.33823 0.63136 0.24792 0.09900
C 	C 	0.31205 0.69167 0.23024 0.44000
C 	C 	0.34147 0.62699 0.16540 0.45900
C 	C 	0.35305 0.57109 0.27156 0.45400
C 	C 	0.26953 0.56147 0.22140 -0.16400
C 	C 	0.28852 0.54271 0.24154 0.08800
C 	C 	0.29640 0.67466 0.06422 0.44300
H 	H 	0.25351 0.85874 0.16996 0.03200
H 	H 	0.35453 0.50603 0.42281 0.02400
H 	H 	0.36109 0.57839 0.21315 0.02500
H 	H 	0.32385 0.68043 0.17806 0.02500
H 	H 	0.33456 0.63189 0.27027 0.02700
H 	H 	0.31408 0.53661 0.23093 0.02900
Cr	Cr	0.84189 0.35945 0.50366 1.57400
Cr	Cr	0.90448 0.11072 0.66469 1.57900
O 	O 	0.67003 0.44555 0.48882 -0.53600
O 	O 	0.60505 0.46717 0.51049 -0.53800
O 	O 	0.74468 0.25729 0.69111 -0.53100
O 	O 	0.74729 0.20326 0.80302 -0.51200
O 	O 	0.77167 0.20927 0.71724 -0.52500
O 	O 	0.76431 0.38265 0.52007 -0.54200
O 	O 	0.78247 0.29786 0.57236 -0.53900
O 	O 	0.80799 0.39631 0.49277 -0.53500
O 	O 	0.85819 0.31914 0.36245 -0.52000
O 	O 	0.87850 0.32559 0.51346 -0.52300
O 	O 	0.82704 0.26799 0.54547 -0.53200
O 	O 	0.98116 0.08273 0.65527 -0.52200
O 	O 	0.65590 0.14700 0.94807 -0.50300
O 	O 	0.93483 0.07436 0.68168 -0.53800
O 	O 	0.68258 0.13658 0.90252 -0.51400
O 	O 	0.87024 0.14441 0.65275 -0.54600
O 	O 	0.88752 0.16534 0.59987 -0.53200
C 	C 	0.71088 0.18525 0.87136 0.06800
C 	C 	0.69005 0.17875 0.90378 -0.14000
C 	C 	0.67557 0.15219 0.91943 0.41200
C 	C 	0.72842 0.43958 0.48651 0.11400
C 	C 	0.76034 0.43349 0.48099 -0.19100
C 	C 	0.77863 0.40250 0.49947 0.46500
C 	C 	0.80447 0.24425 0.60153 -0.17400
C 	C 	0.83007 0.21586 0.60101 0.10600
C 	C 	0.83534 0.19207 0.62906 -0.17800
C 	C 	0.81316 0.19599 0.65870 0.10000
C 	C 	0.78650 0.22392 0.66041 -0.16500
C 	C 	0.78249 0.24792 0.63136 0.09900
C 	C 	0.76604 0.23024 0.69167 0.44000
C 	C 	0.86614 0.16540 0.62699 0.45900
C 	C 	0.80430 0.27156 0.57109 0.45400
C 	C 	0.94760 0.22140 0.56147 -0.16400
C 	C 	0.92723 0.24154 0.54271 0.08800
C 	C 	0.96472 0.06422 0.67466 0.44400
H 	H 	0.71779 0.16996 0.85874 0.03200
H 	H 	0.71663 0.42281 0.50603 0.02400
H 	H 	0.84737 0.21315 0.57839 0.02500
H 	H 	0.81766 0.17806 0.68043 0.02500
H 	H 	0.76328 0.27027 0.63189 0.02700
H 	H 	0.91838 0.23093 0.53661 0.02900
Cr	Cr	0.50366 0.29500 0.84189 1.57400
Cr	Cr	0.66469 0.32011 0.90448 1.57900
O 	O 	0.48882 0.39560 0.67003 -0.53600
O 	O 	0.51049 0.41729 0.60505 -0.53800
O 	O 	0.69111 0.30692 0.74468 -0.53100
O 	O 	0.80302 0.24643 0.74729 -0.51200
O 	O 	0.71724 0.30182 0.77167 -0.52500
O 	O 	0.52007 0.33297 0.76431 -0.54200
O 	O 	0.57236 0.34731 0.78247 -0.53900
O 	O 	0.49277 0.30293 0.80799 -0.53500
O 	O 	0.36245 0.46022 0.85819 -0.52000
O 	O 	0.51346 0.28245 0.87850 -0.52300
O 	O 	0.54547 0.35950 0.82704 -0.53200
O 	O 	0.65527 0.28084 0.98116 -0.52200
O 	O 	0.94807 0.24903 0.65590 -0.50300
O 	O 	0.68168 0.30913 0.93483 -0.53800
O 	O 	0.90252 0.27832 0.68258 -0.51400
O 	O 	0.65275 0.33260 0.87024 -0.54600
O 	O 	0.59987 0.34727 0.88752 -0.53200
C 	C 	0.87136 0.23251 0.71088 0.06800
C 	C 	0.90378 0.22742 0.69005 -0.14000
C 	C 	0.91943 0.25281 0.67557 0.41200
C 	C 	0.48651 0.34549 0.72842 0.11400
C 	C 	0.48099 0.32518 0.76034 -0.19100
C 	C 	0.49947 0.31940 0.77863 0.46500
C 	C 	0.60153 0.34975 0.80447 -0.17500
C 	C 	0.60101 0.35306 0.83007 0.10600
C 	C 	0.62906 0.34353 0.83534 -0.17800
C 	C 	0.65870 0.33215 0.81316 0.10000
C 	C 	0.66041 0.32917 0.78650 -0.16500
C 	C 	0.63136 0.33823 0.78249 0.09900
C 	C 	0.69167 0.31205 0.76604 0.44000
C 	C 	0.62699 0.34147 0.86614 0.45900
C 	C 	0.57109 0.35305 0.80430 0.45400
C 	C 	0.56147 0.26953 0.94760 -0.16400
C 	C 	0.54271 0.28852 0.92723 0.08800
C 	C 	0.67466 0.29640 0.96472 0.44300
H 	H 	0.85874 0.25351 0.71779 0.03200
H 	H 	0.50603 0.35453 0.71663 0.02400
H 	H 	0.57839 0.36109 0.84737 0.02500
H 	H 	0.68043 0.32385 0.81766 0.02500
H 	H 	0.63189 0.33456 0.76328 0.02700
H 	H 	0.53661 0.31408 0.91838 0.02900
Cr	Cr	0.35945 0.84189 0.29500 1.57400
Cr	Cr	0.11072 0.90448 0.32011 1.57900
O 	O 	0.44555 0.67003 0.39560 -0.53600
O 	O 	0.46717 0.60505 0.41729 -0.53800
O 	O 	0.25729 0.74468 0.30692 -0.53100
O 	O 	0.20326 0.74729 0.24643 -0.51100
O 	O 	0.20927 0.77167 0.30182 -0.52500
O 	O 	0.38265 0.76431 0.33297 -0.54200
O 	O 	0.29786 0.78247 0.34731 -0.53900
O 	O 	0.39631 0.80799 0.30293 -0.53500
O 	O 	0.31914 0.85819 0.46022 -0.52000
O 	O 	0.32559 0.87850 0.28245 -0.52300
O 	O 	0.26799 0.82704 0.35950 -0.53200
O 	O 	0.08273 0.98116 0.28084 -0.52200
O 	O 	0.14700 0.65590 0.24903 -0.50200
O 	O 	0.07436 0.93483 0.30913 -0.53800
O 	O 	0.13658 0.68258 0.27832 -0.51400
O 	O 	0.14441 0.87024 0.33260 -0.54600
O 	O 	0.16534 0.88752 0.34727 -0.53200
C 	C 	0.18525 0.71088 0.23251 0.06800
C 	C 	0.17875 0.69005 0.22742 -0.14000
C 	C 	0.15219 0.67557 0.25281 0.41200
C 	C 	0.43958 0.72842 0.34549 0.11400
C 	C 	0.43349 0.76034 0.32518 -0.19100
C 	C 	0.40250 0.77863 0.31940 0.46500
C 	C 	0.24425 0.80447 0.34975 -0.17500
C 	C 	0.21586 0.83007 0.35306 0.10600
C 	C 	0.19207 0.83534 0.34353 -0.17800
C 	C 	0.19599 0.81316 0.33215 0.10000
C 	C 	0.22392 0.78650 0.32917 -0.16500
C 	C 	0.24792 0.78249 0.33823 0.09900
C 	C 	0.23024 0.76604 0.31205 0.44000
C 	C 	0.16540 0.86614 0.34147 0.45900
C 	C 	0.27156 0.80430 0.35305 0.45400
C 	C 	0.22140 0.94760 0.26953 -0.16400
C 	C 	0.24154 0.92723 0.28852 0.08800
C 	C 	0.06422 0.96472 0.29640 0.44400
H 	H 	0.16996 0.71779 0.25351 0.03200
H 	H 	0.42281 0.71663 0.35453 0.02400
H 	H 	0.21315 0.84737 0.36109 0.02500
H 	H 	0.17806 0.81766 0.32385 0.02500
H 	H 	0.27027 0.76328 0.33456 0.02700
H 	H 	0.23093 0.91838 0.31408 0.02900
Cr	Cr	0.35945 0.29500 0.50366 1.57400
Cr	Cr	0.11072 0.32011 0.66469 1.57900
O 	O 	0.44555 0.39560 0.48882 -0.53600
O 	O 	0.46717 0.41729 0.51049 -0.53800
O 	O 	0.25729 0.30692 0.69111 -0.53100
O 	O 	0.20326 0.24643 0.80302 -0.51200
O 	O 	0.20927 0.30182 0.71724 -0.52500
O 	O 	0.38265 0.33297 0.52007 -0.54200
O 	O 	0.29786 0.34731 0.57236 -0.53900
O 	O 	0.39631 0.30293 0.49277 -0.53500
O 	O 	0.31914 0.46022 0.36245 -0.52000
O 	O 	0.32559 0.28245 0.51346 -0.52300
O 	O 	0.26799 0.35950 0.54547 -0.53200
O 	O 	0.08273 0.28084 0.65527 -0.52000
O 	O 	0.14700 0.24903 0.94807 -0.50200
O 	O 	0.07436 0.30913 0.68168 -0.53700
O 	O 	0.13658 0.27832 0.90252 -0.51400
O 	O 	0.14441 0.33260 0.65275 -0.54600
O 	O 	0.16534 0.34727 0.59987 -0.53100
C 	C 	0.18525 0.23251 0.87136 0.06800
C 	C 	0.17875 0.22742 0.90378 -0.14000
C 	C 	0.15219 0.25281 0.91943 0.41200
C 	C 	0.43958 0.34549 0.48651 0.11400
C 	C 	0.43349 0.32518 0.48099 -0.19100
C 	C 	0.40250 0.31940 0.49947 0.46400
C 	C 	0.24425 0.34975 0.60153 -0.17400
C 	C 	0.21586 0.35306 0.60101 0.10600
C 	C 	0.19207 0.34353 0.62906 -0.17800
C 	C 	0.19599 0.33215 0.65870 0.10000
C 	C 	0.22392 0.32917 0.66041 -0.16500
C 	C 	0.24792 0.33823 0.63136 0.09900
C 	C 	0.23024 0.31205 0.69167 0.44000
C 	C 	0.16540 0.34147 0.62699 0.45900
C 	C 	0.27156 0.35305 0.57109 0.45400
C 	C 	0.22140 0.26953 0.56147 -0.16400
C 	C 	0.24154 0.28852 0.54271 0.08800
C 	C 	0.06422 0.29640 0.67466 0.44300
H 	H 	0.16996 0.25351 0.85874 0.03200
H 	H 	0.42281 0.35453 0.50603 0.02400
H 	H 	0.21315 0.36109 0.57839 0.02500
H 	H 	0.17806 0.32385 0.68043 0.02500
H 	H 	0.27027 0.33456 0.63189 0.02700
H 	H 	0.23093 0.31408 0.53661 0.02900
Cr	Cr	0.50366 0.84189 0.35945 1.57400
Cr	Cr	0.66469 0.90448 0.11072 1.57900
O 	O 	0.48882 0.67003 0.44555 -0.53600
O 	O 	0.51049 0.60505 0.46717 -0.53800
O 	O 	0.69111 0.74468 0.25729 -0.53100
O 	O 	0.80302 0.74729 0.20326 -0.51200
O 	O 	0.71724 0.77167 0.20927 -0.52500
O 	O 	0.52007 0.76431 0.38265 -0.54200
O 	O 	0.57236 0.78247 0.29786 -0.53900
O 	O 	0.49277 0.80799 0.39631 -0.53500
O 	O 	0.36245 0.85819 0.31914 -0.52000
O 	O 	0.51346 0.87850 0.32559 -0.52300
O 	O 	0.54547 0.82704 0.26799 -0.53200
O 	O 	0.65527 0.98116 0.08273 -0.52200
O 	O 	0.94807 0.65590 0.14700 -0.50300
O 	O 	0.68168 0.93483 0.07436 -0.53800
O 	O 	0.90252 0.68258 0.13658 -0.51400
O 	O 	0.65275 0.87024 0.14441 -0.54600
O 	O 	0.59987 0.88752 0.16534 -0.53200
C 	C 	0.87136 0.71088 0.18525 0.06800
C 	C 	0.90378 0.69005 0.17875 -0.14000
C 	C 	0.91943 0.67557 0.15219 0.41200
C 	C 	0.48651 0.72842 0.43958 0.11400
C 	C 	0.48099 0.76034 0.43349 -0.19100
C 	C 	0.49947 0.77863 0.40250 0.46500
C 	C 	0.60153 0.80447 0.24425 -0.17400
C 	C 	0.60101 0.83007 0.21586 0.10600
C 	C 	0.62906 0.83534 0.19207 -0.17800
C 	C 	0.65870 0.81316 0.19599 0.10000
C 	C 	0.66041 0.78650 0.22392 -0.16500
C 	C 	0.63136 0.78249 0.24792 0.09900
C 	C 	0.69167 0.76604 0.23024 0.44000
C 	C 	0.62699 0.86614 0.16540 0.45900
C 	C 	0.57109 0.80430 0.27156 0.45400
C 	C 	0.56147 0.94760 0.22140 -0.16400
C 	C 	0.54271 0.92723 0.24154 0.08800
C 	C 	0.67466 0.96472 0.06422 0.44400
H 	H 	0.85874 0.71779 0.16996 0.03200
H 	H 	0.50603 0.71663 0.42281 0.02400
H 	H 	0.57839 0.84737 0.21315 0.02500
H 	H 	0.68043 0.81766 0.17806 0.02500
H 	H 	0.63189 0.76328 0.27027 0.02700
H 	H 	0.53661 0.91838 0.23093 0.02900
Cr	Cr	0.84189 0.50366 0.29500 1.57400
Cr	Cr	0.90448 0.66469 0.32011 1.57900
O 	O 	0.67003 0.48882 0.39560 -0.53600
O 	O 	0.60505 0.51049 0.41729 -0.53800
O 	O 	0.74468 0.69111 0.30692 -0.53100
O 	O 	0.74729 0.80302 0.24643 -0.51200
O 	O 	0.77167 0.71724 0.30182 -0.52500
O 	O 	0.76431 0.52007 0.33297 -0.54200
O 	O 	0.78247 0.57236 0.34731 -0.53900
O 	O 	0.80799 0.49277 0.30293 -0.53500
O 	O 	0.85819 0.36245 0.46022 -0.52000
O 	O 	0.87850 0.51346 0.28245 -0.52300
O 	O 	0.82704 0.54547 0.35950 -0.53200
O 	O 	0.98116 0.65527 0.28084 -0.52200
O 	O 	0.65590 0.94807 0.24903 -0.50300
O 	O 	0.93483 0.68168 0.30913 -0.53800
O 	O 	0.68258 0.90252 0.27832 -0.51400
O 	O 	0.87024 0.65275 0.33260 -0.54600
O 	O 	0.88752 0.59987 0.34727 -0.53200
C 	C 	0.71088 0.87136 0.23251 0.06800
C 	C 	0.69005 0.90378 0.22742 -0.14000
C 	C 	0.67557 0.91943 0.25281 0.41200
C 	C 	0.72842 0.48651 0.34549 0.11400
C 	C 	0.76034 0.48099 0.32518 -0.19100
C 	C 	0.77863 0.49947 0.31940 0.46500
C 	C 	0.80447 0.60153 0.34975 -0.17500
C 	C 	0.83007 0.60101 0.35306 0.10600
C 	C 	0.83534 0.62906 0.34353 -0.17800
C 	C 	0.81316 0.65870 0.33215 0.10000
C 	C 	0.78650 0.66041 0.32917 -0.16500
C 	C 	0.78249 0.63136 0.33823 0.09900
C 	C 	0.76604 0.69167 0.31205 0.44000
C 	C 	0.86614 0.62699 0.34147 0.45900
C 	C 	0.80430 0.57109 0.35305 0.45400
C 	C 	0.94760 0.56147 0.26953 -0.16400
C 	C 	0.92723 0.54271 0.28852 0.08800
C 	C 	0.96472 0.67466 0.29640 0.44300
H 	H 	0.71779 0.85874 0.25351 0.03200
H 	H 	0.71663 0.50603 0.35453 0.02400
H 	H 	0.84737 0.57839 0.36109 0.02500
H 	H 	0.81766 0.68043 0.32385 0.02500
H 	H 	0.76328 0.63189 0.33456 0.02700
H 	H 	0.91838 0.53661 0.31408 0.02900
Cr	Cr	0.29500 0.35945 0.84189 1.57400
Cr	Cr	0.32011 0.11072 0.90448 1.57900
O 	O 	0.39560 0.44555 0.67003 -0.53600
O 	O 	0.41729 0.46717 0.60505 -0.53800
O 	O 	0.30692 0.25729 0.74468 -0.53100
O 	O 	0.24643 0.20326 0.74729 -0.51100
O 	O 	0.30182 0.20927 0.77167 -0.52500
O 	O 	0.33297 0.38265 0.76431 -0.54200
O 	O 	0.34731 0.29786 0.78247 -0.53900
O 	O 	0.30293 0.39631 0.80799 -0.53500
O 	O 	0.46022 0.31914 0.85819 -0.52000
O 	O 	0.28245 0.32559 0.87850 -0.52300
O 	O 	0.35950 0.26799 0.82704 -0.53200
O 	O 	0.28084 0.08273 0.98116 -0.52200
O 	O 	0.24903 0.14700 0.65590 -0.50200
O 	O 	0.30913 0.07436 0.93483 -0.53800
O 	O 	0.27832 0.13658 0.68258 -0.51400
O 	O 	0.33260 0.14441 0.87024 -0.54600
O 	O 	0.34727 0.16534 0.88752 -0.53200
C 	C 	0.23251 0.18525 0.71088 0.06800
C 	C 	0.22742 0.17875 0.69005 -0.14000
C 	C 	0.25281 0.15219 0.67557 0.41200
C 	C 	0.34549 0.43958 0.72842 0.11400
C 	C 	0.32518 0.43349 0.76034 -0.19100
C 	C 	0.31940 0.40250 0.77863 0.46500
C 	C 	0.34975 0.24425 0.80447 -0.17500
C 	C 	0.35306 0.21586 0.83007 0.10600
C 	C 	0.34353 0.19207 0.83534 -0.17800
C 	C 	0.33215 0.19599 0.81316 0.10000
C 	C 	0.32917 0.22392 0.78650 -0.16500
C 	C 	0.33823 0.24792 0.78249 0.09900
C 	C 	0.31205 0.23024 0.76604 0.44000
C 	C 	0.34147 0.16540 0.86614 0.45900
C 	C 	0.35305 0.27156 0.80430 0.45400
C 	C 	0.26953 0.22140 0.94760 -0.16400
C 	C 	0.28852 0.24154 0.92723 0.08800
C 	C 	0.29640 0.06422 0.96472 0.44400
H 	H 	0.25351 0.16996 0.71779 0.03200
H 	H 	0.35453 0.42281 0.71663 0.02400
H 	H 	0.36109 0.21315 0.84737 0.02500
H 	H 	0.32385 0.17806 0.81766 0.02500
H 	H 	0.33456 0.27027 0.76328 0.02700
H 	H 	0.31408 0.23093 0.91838 0.02900
Cr	Cr	0.74634 0.89055 0.40811 1.57400
Cr	Cr	0.58531 0.13928 0.34552 1.57900
O 	O 	0.76118 0.80445 0.57997 -0.53600
O 	O 	0.73951 0.78283 0.64495 -0.53800
O 	O 	0.55889 0.99271 0.50532 -0.53300
O 	O 	0.44698 0.04674 0.50271 -0.51100
O 	O 	0.53276 0.04073 0.47833 -0.52500
O 	O 	0.72993 0.86735 0.48569 -0.54200
O 	O 	0.67764 0.95214 0.46753 -0.53900
O 	O 	0.75723 0.85369 0.44201 -0.53500
O 	O 	0.88755 0.93086 0.39181 -0.52000
O 	O 	0.73654 0.92441 0.37150 -0.52400
O 	O 	0.70453 0.98201 0.42296 -0.53200
O 	O 	0.59473 0.16727 0.26884 -0.52000
O 	O 	0.30193 0.10300 0.59410 -0.50200
O 	O 	0.56832 0.17564 0.31517 -0.53700
O 	O 	0.34748 0.11342 0.56742 -0.51400
O 	O 	0.59725 0.10559 0.37976 -0.54600
O 	O 	0.65013 0.08466 0.36248 -0.53100
C 	C 	0.37864 0.06475 0.53912 0.06800
C 	C 	0.34622 0.07125 0.55995 -0.14000
C 	C 	0.33057 0.09781 0.57443 0.41200
C 	C 	0.76349 0.81042 0.52158 0.11400
C 	C 	0.76901 0.81651 0.48966 -0.19100
C 	C 	0.75053 0.84750 0.47137 0.46500
C 	C 	0.64847 0.00575 0.44553 -0.17300
C 	C 	0.64899 0.03414 0.41993 0.10600
C 	C 	0.62094 0.05793 0.41466 -0.17800
C 	C 	0.59130 0.05401 0.43684 0.10100
C 	C 	0.58959 0.02608 0.46350 -0.16700
C 	C 	0.61864 0.00208 0.46751 0.10200
C 	C 	0.55833 0.01976 0.48396 0.44400
C 	C 	0.62301 0.08460 0.38386 0.45900
C 	C 	0.67891 0.97844 0.44570 0.45100
C 	C 	0.68853 0.02860 0.30240 -0.16500
C 	C 	0.70729 0.00846 0.32277 0.09200
C 	C 	0.57534 0.18578 0.28528 0.44200
H 	H 	0.39126 0.08004 0.53221 0.03200
H 	H 	0.74397 0.82719 0.53337 0.02300
H 	H 	0.67161 0.03685 0.40263 0.02500
H 	H 	0.56957 0.07194 0.43234 0.02500
H 	H 	0.61811 0.97973 0.48672 0.02400
H 	H 	0.71339 0.01907 0.33162 0.02800
Cr	Cr	0.89055 0.74634 0.95500 1.57400
Cr	Cr	0.13928 0.58531 0.92989 1.57900
O 	O 	0.80445 0.76118 0.85440 -0.53600
O 	O 	0.78283 0.73951 0.83271 -0.53800
O 	O 	0.99271 0.55889 0.94308 -0.53300
O 	O 	0.04674 0.44698 0.00357 -0.51000
O 	O 	0.04073 0.53276 0.94818 -0.52600
O 	O 	0.86735 0.72993 0.91703 -0.54200
O 	O 	0.95214 0.67764 0.90269 -0.53900
O 	O 	0.85369 0.75723 0.94707 -0.53500
O 	O 	0.93086 0.88755 0.78978 -0.52000
O 	O 	0.92441 0.73654 0.96755 -0.52500
O 	O 	0.98201 0.70453 0.89050 -0.53200
O 	O 	0.16727 0.59473 0.96916 -0.52100
O 	O 	0.10300 0.30193 0.00097 -0.49800
O 	O 	0.17564 0.56832 0.94087 -0.53800
O 	O 	0.11342 0.34748 0.97168 -0.51300
O 	O 	0.10559 0.59725 0.91740 -0.54600
O 	O 	0.08466 0.65013 0.90273 -0.53100
C 	C 	0.06475 0.37864 0.01749 0.07100
C 	C 	0.07125 0.34622 0.02258 -0.13800
C 	C 	0.09781 0.33057 0.99719 0.40600
C 	C 	0.81042 0.76349 0.90451 0.11400
C 	C 	0.81651 0.76901 0.92482 -0.19200
C 	C 	0.84750 0.75053 0.93060 0.46400
C 	C 	0.00575 0.64847 0.90025 -0.17300
C 	C 	0.03414 0.64899 0.89694 0.10600
C 	C 	0.05793 0.62094 0.90647 -0.17800
C 	C 	0.05401 0.59130 0.91785 0.10100
C 	C 	0.02608 0.58959 0.92083 -0.16700
C 	C 	0.00208 0.61864 0.91177 0.10200
C 	C 	0.01976 0.55833 0.93795 0.44300
C 	C 	0.08460 0.62301 0.90853 0.45900
C 	C 	0.97844 0.67891 0.89695 0.45100
C 	C 	0.02860 0.68853 0.98047 -0.16900
C 	C 	0.00846 0.70729 0.96148 0.09400
C 	C 	0.18578 0.57534 0.95360 0.44200
H 	H 	0.08004 0.39126 0.99649 0.03000
H 	H 	0.82719 0.74397 0.89547 0.02300
H 	H 	0.03685 0.67161 0.88891 0.02500
H 	H 	0.07194 0.56957 0.92615 0.02500
H 	H 	0.97973 0.61811 0.91544 0.02400
H 	H 	0.01907 0.71339 0.93592 0.02800
Cr	Cr	0.95500 0.40811 0.89055 1.57400
Cr	Cr	0.92989 0.34552 0.13928 1.57900
O 	O 	0.85440 0.57997 0.80445 -0.53600
O 	O 	0.83271 0.64495 0.78283 -0.53800
O 	O 	0.94308 0.50532 0.99271 -0.53300
O 	O 	0.00357 0.50271 0.04674 -0.51000
O 	O 	0.94818 0.47833 0.04073 -0.52600
O 	O 	0.91703 0.48569 0.86735 -0.54200
O 	O 	0.90269 0.46753 0.95214 -0.53900
O 	O 	0.94707 0.44201 0.85369 -0.53500
O 	O 	0.78978 0.39181 0.93086 -0.52000
O 	O 	0.96755 0.37150 0.92441 -0.52500
O 	O 	0.89050 0.42296 0.98201 -0.53200
O 	O 	0.96916 0.26884 0.16727 -0.52100
O 	O 	0.00097 0.59410 0.10300 -0.49800
O 	O 	0.94087 0.31517 0.17564 -0.53800
O 	O 	0.97168 0.56742 0.11342 -0.51300
O 	O 	0.91740 0.37976 0.10559 -0.54600
O 	O 	0.90273 0.36248 0.08466 -0.53100
C 	C 	0.01749 0.53912 0.06475 0.07100
C 	C 	0.02258 0.55995 0.07125 -0.13800
C 	C 	0.99719 0.57443 0.09781 0.40700
C 	C 	0.90451 0.52158 0.81042 0.11400
C 	C 	0.92482 0.48966 0.81651 -0.19200
C 	C 	0.93060 0.47137 0.84750 0.46400
C 	C 	0.90025 0.44553 0.00575 -0.17300
C 	C 	0.89694 0.41993 0.03414 0.10600
C 	C 	0.90647 0.41466 0.05793 -0.17800
C 	C 	0.91785 0.43684 0.05401 0.10100
C 	C 	0.92083 0.46350 0.02608 -0.16700
C 	C 	0.91177 0.46751 0.00208 0.10200
C 	C 	0.93795 0.48396 0.01976 0.44300
C 	C 	0.90853 0.38386 0.08460 0.45900
C 	C 	0.89695 0.44570 0.97844 0.45100
C 	C 	0.98047 0.30240 0.02860 -0.17000
C 	C 	0.96148 0.32277 0.00846 0.09400
C 	C 	0.95360 0.28528 0.18578 0.44200
H 	H 	0.99649 0.53221 0.08004 0.03000
H 	H 	0.89547 0.53337 0.82719 0.02300
H 	H 	0.88891 0.40263 0.03685 0.02500
H 	H 	0.92615 0.43234 0.07194 0.02500
H 	H 	0.91544 0.48672 0.97973 0.02400
H 	H 	0.93592 0.33162 0.01907 0.02800
Cr	Cr	0.40811 0.95500 0.74634 1.57400
Cr	Cr	0.34552 0.92989 0.58531 1.57900
O 	O 	0.57997 0.85440 0.76118 -0.53600
O 	O 	0.64495 0.83271 0.73951 -0.53800
O 	O 	0.50532 0.94308 0.55889 -0.53100
O 	O 	0.50271 0.00357 0.44698 -0.51000
O 	O 	0.47833 0.94818 0.53276 -0.52600
O 	O 	0.48569 0.91703 0.72993 -0.54200
O 	O 	0.46753 0.90269 0.67764 -0.53900
O 	O 	0.44201 0.94707 0.75723 -0.53500
O 	O 	0.39181 0.78978 0.88755 -0.52000
O 	O 	0.37150 0.96755 0.73654 -0.52400
O 	O 	0.42296 0.89050 0.70453 -0.53200
O 	O 	0.26884 0.96916 0.59473 -0.52100
O 	O 	0.59410 0.00097 0.30193 -0.49900
O 	O 	0.31517 0.94087 0.56832 -0.53800
O 	O 	0.56742 0.97168 0.34748 -0.51300
O 	O 	0.37976 0.91740 0.59725 -0.54600
O 	O 	0.36248 0.90273 0.65013 -0.53200
C 	C 	0.53912 0.01749 0.37864 0.07000
C 	C 	0.55995 0.02258 0.34622 -0.13800
C 	C 	0.57443 0.99719 0.33057 0.40700
C 	C 	0.52158 0.90451 0.76349 0.11400
C 	C 	0.48966 0.92482 0.76901 -0.19200
C 	C 	0.47137 0.93060 0.75053 0.46400
C 	C 	0.44553 0.90025 0.64847 -0.17500
C 	C 	0.41993 0.89694 0.64899 0.10600
C 	C 	0.41466 0.90647 0.62094 -0.17800
C 	C 	0.43684 0.91785 0.59130 0.10000
C 	C 	0.46350 0.92083 0.58959 -0.16600
C 	C 	0.46751 0.91177 0.61864 0.09900
C 	C 	0.48396 0.93795 0.55833 0.44000
C 	C 	0.38386 0.90853 0.62301 0.45900
C 	C 	0.44570 0.89695 0.67891 0.45400
C 	C 	0.30240 0.98047 0.68853 -0.16800
C 	C 	0.32277 0.96148 0.70729 0.09000
C 	C 	0.28528 0.95360 0.57534 0.44200
H 	H 	0.53221 0.99649 0.39126 0.03000
H 	H 	0.53337 0.89547 0.74397 0.02300
H 	H 	0.40263 0.88891 0.67161 0.02500
H 	H 	0.43234 0.92615 0.56957 0.02500
H 	H 	0.48672 0.91544 0.61811 0.02600
H 	H 	0.33162 0.93592 0.71339 0.02800
Cr	Cr	0.95500 0.74634 0.40811 1.57400
Cr	Cr	0.92989 0.58531 0.34552 1.57900
O 	O 	0.85440 0.76118 0.57997 -0.53600
O 	O 	0.83271 0.73951 0.64495 -0.53800
O 	O 	0.94308 0.55889 0.50532 -0.53100
O 	O 	0.00357 0.44698 0.50271 -0.51000
O 	O 	0.94818 0.53276 0.47833 -0.52600
O 	O 	0.91703 0.72993 0.48569 -0.54200
O 	O 	0.90269 0.67764 0.46753 -0.53900
O 	O 	0.94707 0.75723 0.44201 -0.53500
O 	O 	0.78978 0.88755 0.39181 -0.52000
O 	O 	0.96755 0.73654 0.37150 -0.52400
O 	O 	0.89050 0.70453 0.42296 -0.53200
O 	O 	0.96916 0.59473 0.26884 -0.52100
O 	O 	0.00097 0.30193 0.59410 -0.49900
O 	O 	0.94087 0.56832 0.31517 -0.53800
O 	O 	0.97168 0.34748 0.56742 -0.51300
O 	O 	0.91740 0.59725 0.37976 -0.54600
O 	O 	0.90273 0.65013 0.36248 -0.53200
C 	C 	0.01749 0.37864 0.53912 0.07000
C 	C 	0.02258 0.34622 0.55995 -0.13800
C 	C 	0.99719 0.33057 0.57443 0.40700
C 	C 	0.90451 0.76349 0.52158 0.11400
C 	C 	0.92482 0.76901 0.48966 -0.19200
C 	C 	0.93060 0.75053 0.47137 0.46400
C 	C 	0.90025 0.64847 0.44553 -0.17500
C 	C 	0.89694 0.64899 0.41993 0.10600
C 	C 	0.90647 0.62094 0.41466 -0.17800
C 	C 	0.91785 0.59130 0.43684 0.10000
C 	C 	0.92083 0.58959 0.46350 -0.16600
C 	C 	0.91177 0.61864 0.46751 0.09900
C 	C 	0.93795 0.55833 0.48396 0.44000
C 	C 	0.90853 0.62301 0.38386 0.45900
C 	C 	0.89695 0.67891 0.44570 0.45400
C 	C 	0.98047 0.68853 0.30240 -0.16800
C 	C 	0.96148 0.70729 0.32277 0.09000
C 	C 	0.95360 0.57534 0.28528 0.44200
H 	H 	0.99649 0.39126 0.53221 0.03000
H 	H 	0.89547 0.74397 0.53337 0.02300
H 	H 	0.88891 0.67161 0.40263 0.02500
H 	H 	0.92615 0.56957 0.43234 0.02500
H 	H 	0.91544 0.61811 0.48672 0.02600
H 	H 	0.93592 0.71339 0.33162 0.02800
Cr	Cr	0.40811 0.89055 0.95500 1.57400
Cr	Cr	0.34552 0.13928 0.92989 1.57900
O 	O 	0.57997 0.80445 0.85440 -0.53600
O 	O 	0.64495 0.78283 0.83271 -0.53800
O 	O 	0.50532 0.99271 0.94308 -0.53300
O 	O 	0.50271 0.04674 0.00357 -0.51000
O 	O 	0.47833 0.04073 0.94818 -0.52600
O 	O 	0.48569 0.86735 0.91703 -0.54200
O 	O 	0.46753 0.95214 0.90269 -0.53900
O 	O 	0.44201 0.85369 0.94707 -0.53500
O 	O 	0.39181 0.93086 0.78978 -0.52000
O 	O 	0.37150 0.92441 0.96755 -0.52500
O 	O 	0.42296 0.98201 0.89050 -0.53200
O 	O 	0.26884 0.16727 0.96916 -0.52100
O 	O 	0.59410 0.10300 0.00097 -0.49800
O 	O 	0.31517 0.17564 0.94087 -0.53800
O 	O 	0.56742 0.11342 0.97168 -0.51300
O 	O 	0.37976 0.10559 0.91740 -0.54600
O 	O 	0.36248 0.08466 0.90273 -0.53100
C 	C 	0.53912 0.06475 0.01749 0.07100
C 	C 	0.55995 0.07125 0.02258 -0.13800
C 	C 	0.57443 0.09781 0.99719 0.40700
C 	C 	0.52158 0.81042 0.90451 0.11400
C 	C 	0.48966 0.81651 0.92482 -0.19200
C 	C 	0.47137 0.84750 0.93060 0.46400
C 	C 	0.44553 0.00575 0.90025 -0.17300
C 	C 	0.41993 0.03414 0.89694 0.10600
C 	C 	0.41466 0.05793 0.90647 -0.17800
C 	C 	0.43684 0.05401 0.91785 0.10100
C 	C 	0.46350 0.02608 0.92083 -0.16700
C 	C 	0.46751 0.00208 0.91177 0.10200
C 	C 	0.48396 0.01976 0.93795 0.44300
C 	C 	0.38386 0.08460 0.90853 0.45900
C 	C 	0.44570 0.97844 0.89695 0.45100
C 	C 	0.30240 0.02860 0.98047 -0.17000
C 	C 	0.32277 0.00846 0.96148 0.09400
C 	C 	0.28528 0.18578 0.95360 0.44200
H 	H 	0.53221 0.08004 0.99649 0.03000
H 	H 	0.53337 0.82719 0.89547 0.02300
H 	H 	0.40263 0.03685 0.88891 0.02500
H 	H 	0.43234 0.07194 0.92615 0.02500
H 	H 	0.48672 0.97973 0.91544 0.02400
H 	H 	0.33162 0.01907 0.93592 0.02800
Cr	Cr	0.74634 0.95500 0.89055 1.57400
Cr	Cr	0.58531 0.92989 0.13928 1.57900
O 	O 	0.76118 0.85440 0.80445 -0.53600
O 	O 	0.73951 0.83271 0.78283 -0.53800
O 	O 	0.55889 0.94308 0.99271 -0.53300
O 	O 	0.44698 0.00357 0.04674 -0.51000
O 	O 	0.53276 0.94818 0.04073 -0.52600
O 	O 	0.72993 0.91703 0.86735 -0.54200
O 	O 	0.67764 0.90269 0.95214 -0.53900
O 	O 	0.75723 0.94707 0.85369 -0.53500
O 	O 	0.88755 0.78978 0.93086 -0.52000
O 	O 	0.73654 0.96755 0.92441 -0.52500
O 	O 	0.70453 0.89050 0.98201 -0.53200
O 	O 	0.59473 0.96916 0.16727 -0.52100
O 	O 	0.30193 0.00097 0.10300 -0.49800
O 	O 	0.56832 0.94087 0.17564 -0.53800
O 	O 	0.34748 0.97168 0.11342 -0.51300
O 	O 	0.59725 0.91740 0.10559 -0.54600
O 	O 	0.65013 0.90273 0.08466 -0.53100
C 	C 	0.37864 0.01749 0.06475 0.07100
C 	C 	0.34622 0.02258 0.07125 -0.13800
C 	C 	0.33057 0.99719 0.09781 0.40600
C 	C 	0.76349 0.90451 0.81042 0.11400
C 	C 	0.76901 0.92482 0.81651 -0.19200
C 	C 	0.75053 0.93060 0.84750 0.46400
C 	C 	0.64847 0.90025 0.00575 -0.17300
C 	C 	0.64899 0.89694 0.03414 0.10600
C 	C 	0.62094 0.90647 0.05793 -0.17800
C 	C 	0.59130 0.91785 0.05401 0.10100
C 	C 	0.58959 0.92083 0.02608 -0.16700
C 	C 	0.61864 0.91177 0.00208 0.10200
C 	C 	0.55833 0.93795 0.01976 0.44300
C 	C 	0.62301 0.90853 0.08460 0.45900
C 	C 	0.67891 0.89695 0.97844 0.45100
C 	C 	0.68853 0.98047 0.02860 -0.16900
C 	C 	0.70729 0.96148 0.00846 0.09400
C 	C 	0.57534 0.95360 0.18578 0.44200
H 	H 	0.39126 0.99649 0.08004 0.03000
H 	H 	0.74397 0.89547 0.82719 0.02300
H 	H 	0.67161 0.88891 0.03685 0.02500
H 	H 	0.56957 0.92615 0.07194 0.02500
H 	H 	0.61811 0.91544 0.97973 0.02400
H 	H 	0.71339 0.93592 0.01907 0.02800
Cr	Cr	0.89055 0.40811 0.74634 1.57400
Cr	Cr	0.13928 0.34552 0.58531 1.57900
O 	O 	0.80445 0.57997 0.76118 -0.53600
O 	O 	0.78283 0.64495 0.73951 -0.53800
O 	O 	0.99271 0.50532 0.55889 -0.53300
O 	O 	0.04674 0.50271 0.44698 -0.51100
O 	O 	0.04073 0.47833 0.53276 -0.52500
O 	O 	0.86735 0.48569 0.72993 -0.54200
O 	O 	0.95214 0.46753 0.67764 -0.53900
O 	O 	0.85369 0.44201 0.75723 -0.53500
O 	O 	0.93086 0.39181 0.88755 -0.52000
O 	O 	0.92441 0.37150 0.73654 -0.52400
O 	O 	0.98201 0.42296 0.70453 -0.53200
O 	O 	0.16727 0.26884 0.59473 -0.52000
O 	O 	0.10300 0.59410 0.30193 -0.50200
O 	O 	0.17564 0.31517 0.56832 -0.53700
O 	O 	0.11342 0.56742 0.34748 -0.51400
O 	O 	0.10559 0.37976 0.59725 -0.54600
O 	O 	0.08466 0.36248 0.65013 -0.53100
C 	C 	0.06475 0.53912 0.37864 0.06800
C 	C 	0.07125 0.55995 0.34622 -0.14000
C 	C 	0.09781 0.57443 0.33057 0.41200
C 	C 	0.81042 0.52158 0.76349 0.11400
C 	C 	0.81651 0.48966 0.76901 -0.19100
C 	C 	0.84750 0.47137 0.75053 0.46500
C 	C 	0.00575 0.44553 0.64847 -0.17300
C 	C 	0.03414 0.41993 0.64899 0.10600
C 	C 	0.05793 0.41466 0.62094 -0.17800
C 	C 	0.05401 0.43684 0.59130 0.10100
C 	C 	0.02608 0.46350 0.58959 -0.16700
C 	C 	0.00208 0.46751 0.61864 0.10200
C 	C 	0.01976 0.48396 0.55833 0.44400
C 	C 	0.08460 0.38386 0.62301 0.45900
C 	C 	0.97844 0.44570 0.67891 0.45100
C 	C 	0.02860 0.30240 0.68853 -0.16500
C 	C 	0.00846 0.32277 0.70729 0.09200
C 	C 	0.18578 0.28528 0.57534 0.44200
H 	H 	0.08004 0.53221 0.39126 0.03200
H 	H 	0.82719 0.53337 0.74397 0.02300
H 	H 	0.03685 0.40263 0.67161 0.02500
H 	H 	0.07194 0.43234 0.56957 0.02500
H 	H 	0.97973 0.48672 0.61811 0.02400
H 	H 	0.01907 0.33162 0.71339 0.02800
Cr	Cr	0.89055 0.95500 0.40811 1.57400
Cr	Cr	0.13928 0.92989 0.34552 1.57900
O 	O 	0.80445 0.85440 0.57997 -0.53600
O 	O 	0.78283 0.83271 0.64495 -0.53800
O 	O 	0.99271 0.94308 0.50532 -0.53300
O 	O 	0.04674 0.00357 0.50271 -0.51000
O 	O 	0.04073 0.94818 0.47833 -0.52600
O 	O 	0.86735 0.91703 0.48569 -0.54200
O 	O 	0.95214 0.90269 0.46753 -0.53900
O 	O 	0.85369 0.94707 0.44201 -0.53500
O 	O 	0.93086 0.78978 0.39181 -0.52000
O 	O 	0.92441 0.96755 0.37150 -0.52500
O 	O 	0.98201 0.89050 0.42296 -0.53200
O 	O 	0.16727 0.96916 0.26884 -0.52100
O 	O 	0.10300 0.00097 0.59410 -0.49800
O 	O 	0.17564 0.94087 0.31517 -0.53800
O 	O 	0.11342 0.97168 0.56742 -0.51300
O 	O 	0.10559 0.91740 0.37976 -0.54600
O 	O 	0.08466 0.90273 0.36248 -0.53100
C 	C 	0.06475 0.01749 0.53912 0.07100
C 	C 	0.07125 0.02258 0.55995 -0.13800
C 	C 	0.09781 0.99719 0.57443 0.40700
C 	C 	0.81042 0.90451 0.52158 0.11400
C 	C 	0.81651 0.92482 0.48966 -0.19200
C 	C 	0.84750 0.93060 0.47137 0.46400
C 	C 	0.00575 0.90025 0.44553 -0.17300
C 	C 	0.03414 0.89694 0.41993 0.10600
C 	C 	0.05793 0.90647 0.41466 -0.17800
C 	C 	0.05401 0.91785 0.43684 0.10100
C 	C 	0.02608 0.92083 0.46350 -0.16700
C 	C 	0.00208 0.91177 0.46751 0.10200
C 	C 	0.01976 0.93795 0.48396 0.44300
C 	C 	0.08460 0.90853 0.38386 0.45900
C 	C 	0.97844 0.89695 0.44570 0.45100
C 	C 	0.02860 0.98047 0.30240 -0.17000
C 	C 	0.00846 0.96148 0.32277 0.09400
C 	C 	0.18578 0.95360 0.28528 0.44200
H 	H 	0.08004 0.99649 0.53221 0.03000
H 	H 	0.82719 0.89547 0.53337 0.02300
H 	H 	0.03685 0.88891 0.40263 0.02500
H 	H 	0.07194 0.92615 0.43234 0.02500
H 	H 	0.97973 0.91544 0.48672 0.02400
H 	H 	0.01907 0.93592 0.33162 0.02800
Cr	Cr	0.74634 0.40811 0.95500 1.57400
Cr	Cr	0.58531 0.34552 0.92989 1.57900
O 	O 	0.76118 0.57997 0.85440 -0.53600
O 	O 	0.73951 0.64495 0.83271 -0.53800
O 	O 	0.55889 0.50532 0.94308 -0.53100
O 	O 	0.44698 0.50271 0.00357 -0.51000
O 	O 	0.53276 0.47833 0.94818 -0.52600
O 	O 	0.72993 0.48569 0.91703 -0.54200
O 	O 	0.67764 0.46753 0.90269 -0.53900
O 	O 	0.75723 0.44201 0.94707 -0.53500
O 	O 	0.88755 0.39181 0.78978 -0.52000
O 	O 	0.73654 0.37150 0.96755 -0.52400
O 	O 	0.70453 0.42296 0.89050 -0.53200
O 	O 	0.59473 0.26884 0.96916 -0.52100
O 	O 	0.30193 0.59410 0.00097 -0.49900
O 	O 	0.56832 0.31517 0.94087 -0.53800
O 	O 	0.34748 0.56742 0.97168 -0.51300
O 	O 	0.59725 0.37976 0.91740 -0.54600
O 	O 	0.65013 0.36248 0.90273 -0.53200
C 	C 	0.37864 0.53912 0.01749 0.07000
C 	C 	0.34622 0.55995 0.02258 -0.13800
C 	C 	0.33057 0.57443 0.99719 0.40700
C 	C 	0.76349 0.52158 0.90451 0.11400
C 	C 	0.76901 0.48966 0.92482 -0.19200
C 	C 	0.75053 0.47137 0.93060 0.46400
C 	C 	0.64847 0.44553 0.90025 -0.17500
C 	C 	0.64899 0.41993 0.89694 0.10600
C 	C 	0.62094 0.41466 0.90647 -0.17800
C 	C 	0.59130 0.43684 0.91785 0.10000
C 	C 	0.58959 0.46350 0.92083 -0.16600
C 	C 	0.61864 0.46751 0.91177 0.09900
C 	C 	0.55833 0.48396 0.93795 0.44000
C 	C 	0.62301 0.38386 0.90853 0.45900
C 	C 	0.67891 0.44570 0.89695 0.45400
C 	C 	0.68853 0.30240 0.98047 -0.16800
C 	C 	0.70729 0.32277 0.96148 0.09000
C 	C 	0.57534 0.28528 0.95360 0.44200
H 	H 	0.39126 0.53221 0.99649 0.03000
H 	H 	0.74397 0.53337 0.89547 0.02300
H 	H 	0.67161 0.40263 0.88891 0.02500
H 	H 	0.56957 0.43234 0.92615 0.02500
H 	H 	0.61811 0.48672 0.91544 0.02600
H 	H 	0.71339 0.33162 0.93592 0.02800
Cr	Cr	0.40811 0.74634 0.89055 1.57400
Cr	Cr	0.34552 0.58531 0.13928 1.57900
O 	O 	0.57997 0.76118 0.80445 -0.53600
O 	O 	0.64495 0.73951 0.78283 -0.53800
O 	O 	0.50532 0.55889 0.99271 -0.53300
O 	O 	0.50271 0.44698 0.04674 -0.51100
O 	O 	0.47833 0.53276 0.04073 -0.52500
O 	O 	0.48569 0.72993 0.86735 -0.54200
O 	O 	0.46753 0.67764 0.95214 -0.53900
O 	O 	0.44201 0.75723 0.85369 -0.53500
O 	O 	0.39181 0.88755 0.93086 -0.52000
O 	O 	0.37150 0.73654 0.92441 -0.52400
O 	O 	0.42296 0.70453 0.98201 -0.53200
O 	O 	0.26884 0.59473 0.16727 -0.52000
O 	O 	0.59410 0.30193 0.10300 -0.50200
O 	O 	0.31517 0.56832 0.17564 -0.53700
O 	O 	0.56742 0.34748 0.11342 -0.51400
O 	O 	0.37976 0.59725 0.10559 -0.54600
O 	O 	0.36248 0.65013 0.08466 -0.53100
C 	C 	0.53912 0.37864 0.06475 0.06800
C 	C 	0.55995 0.34622 0.07125 -0.14000
C 	C 	0.57443 0.33057 0.09781 0.41200
C 	C 	0.52158 0.76349 0.81042 0.11400
C 	C 	0.48966 0.76901 0.81651 -0.19100
C 	C 	0.47137 0.75053 0.84750 0.46500
C 	C 	0.44553 0.64847 0.00575 -0.17300
C 	C 	0.41993 0.64899 0.03414 0.10600
C 	C 	0.41466 0.62094 0.05793 -0.17800
C 	C 	0.43684 0.59130 0.05401 0.10100
C 	C 	0.46350 0.58959 0.02608 -0.16700
C 	C 	0.46751 0.61864 0.00208 0.10200
C 	C 	0.48396 0.55833 0.01976 0.44400
C 	C 	0.38386 0.62301 0.08460 0.45900
C 	C 	0.44570 0.67891 0.97844 0.45100
C 	C 	0.30240 0.68853 0.02860 -0.16500
C 	C 	0.32277 0.70729 0.00846 0.09200
C 	C 	0.28528 0.57534 0.18578 0.44200
H 	H 	0.53221 0.39126 0.08004 0.03200
H 	H 	0.53337 0.74397 0.82719 0.02300
H 	H 	0.40263 0.67161 0.03685 0.02500
H 	H 	0.43234 0.56957 0.07194 0.02500
H 	H 	0.48672 0.61811 0.97973 0.02400
H 	H 	0.33162 0.71339 0.01907 0.02800
Cr	Cr	0.95500 0.89055 0.74634 1.57400
Cr	Cr	0.92989 0.13928 0.58531 1.57900
O 	O 	0.85440 0.80445 0.76118 -0.53600
O 	O 	0.83271 0.78283 0.73951 -0.53800
O 	O 	0.94308 0.99271 0.55889 -0.53300
O 	O 	0.00357 0.04674 0.44698 -0.51000
O 	O 	0.94818 0.04073 0.53276 -0.52600
O 	O 	0.91703 0.86735 0.72993 -0.54200
O 	O 	0.90269 0.95214 0.67764 -0.53900
O 	O 	0.94707 0.85369 0.75723 -0.53500
O 	O 	0.78978 0.93086 0.88755 -0.52000
O 	O 	0.96755 0.92441 0.73654 -0.52500
O 	O 	0.89050 0.98201 0.70453 -0.53200
O 	O 	0.96916 0.16727 0.59473 -0.52100
O 	O 	0.00097 0.10300 0.30193 -0.49800
O 	O 	0.94087 0.17564 0.56832 -0.53800
O 	O 	0.97168 0.11342 0.34748 -0.51300
O 	O 	0.91740 0.10559 0.59725 -0.54600
O 	O 	0.90273 0.08466 0.65013 -0.53100
C 	C 	0.01749 0.06475 0.37864 0.07100
C 	C 	0.02258 0.07125 0.34622 -0.13800
C 	C 	0.99719 0.09781 0.33057 0.40600
C 	C 	0.90451 0.81042 0.76349 0.11400
C 	C 	0.92482 0.81651 0.76901 -0.19200
C 	C 	0.93060 0.84750 0.75053 0.46400
C 	C 	0.90025 0.00575 0.64847 -0.17300
C 	C 	0.89694 0.03414 0.64899 0.10600
C 	C 	0.90647 0.05793 0.62094 -0.17800
C 	C 	0.91785 0.05401 0.59130 0.10100
C 	C 	0.92083 0.02608 0.58959 -0.16700
C 	C 	0.91177 0.00208 0.61864 0.10200
C 	C 	0.93795 0.01976 0.55833 0.44300
C 	C 	0.90853 0.08460 0.62301 0.45900
C 	C 	0.89695 0.97844 0.67891 0.45100
C 	C 	0.98047 0.02860 0.68853 -0.16900
C 	C 	0.96148 0.00846 0.70729 0.09400
C 	C 	0.95360 0.18578 0.57534 0.44200
H 	H 	0.99649 0.08004 0.39126 0.03000
H 	H 	0.89547 0.82719 0.74397 0.02300
H 	H 	0.88891 0.03685 0.67161 0.02500
H 	H 	0.92615 0.07194 0.56957 0.02500
H 	H 	0.91544 0.97973 0.61811 0.02400
H 	H 	0.93592 0.01907 0.71339 0.02800
Cr	Cr	0.75267 0.81744 0.81744 1.58200
Cr	Cr	0.70539 0.91025 0.91025 1.58600
O 	O 	0.43010 0.91860 0.91860 -0.76400
C 	C 	0.67905 0.01402 0.01402 0.12100
C 	C 	0.71639 0.97489 0.97489 -0.16200
C 	C 	0.73124 0.95428 0.95428 0.43400
Cr	Cr	0.81744 0.75267 0.61245 1.58200
Cr	Cr	0.91025 0.70539 0.47411 1.58600
O 	O 	0.91860 0.43010 0.73270 -0.76400
C 	C 	0.01402 0.67905 0.29291 0.11700
C 	C 	0.97489 0.71639 0.33383 -0.15900
C 	C 	0.95428 0.73124 0.36020 0.43300
Cr	Cr	0.81744 0.61245 0.75267 1.58200
Cr	Cr	0.91025 0.47411 0.70539 1.58600
O 	O 	0.91860 0.73270 0.43010 -0.76400
C 	C 	0.01402 0.29291 0.67905 0.11700
C 	C 	0.97489 0.33383 0.71639 -0.15900
C 	C 	0.95428 0.36020 0.73124 0.43300
Cr	Cr	0.61245 0.81744 0.81744 1.58200
Cr	Cr	0.47411 0.91025 0.91025 1.58600
O 	O 	0.73270 0.91860 0.91860 -0.76400
C 	C 	0.29291 0.01402 0.01402 0.12100
C 	C 	0.33383 0.97489 0.97489 -0.16300
C 	C 	0.36020 0.95428 0.95428 0.43400
Cr	Cr	0.81744 0.75267 0.81744 1.58200
Cr	Cr	0.91025 0.70539 0.91025 1.58600
O 	O 	0.91860 0.43010 0.91860 -0.76400
C 	C 	0.01402 0.67905 0.01402 0.12100
C 	C 	0.97489 0.71639 0.97489 -0.16200
C 	C 	0.95428 0.73124 0.95428 0.43400
Cr	Cr	0.61245 0.81744 0.75267 1.58200
Cr	Cr	0.47411 0.91025 0.70539 1.58600
O 	O 	0.73270 0.91860 0.43010 -0.76400
C 	C 	0.29291 0.01402 0.67905 0.11700
C 	C 	0.33383 0.97489 0.71639 -0.15900
C 	C 	0.36020 0.95428 0.73124 0.43300
Cr	Cr	0.75267 0.81744 0.61245 1.58200
Cr	Cr	0.70539 0.91025 0.47411 1.58600
O 	O 	0.43010 0.91860 0.73270 -0.76400
C 	C 	0.67905 0.01402 0.29291 0.11700
C 	C 	0.71639 0.97489 0.33383 -0.15900
C 	C 	0.73124 0.95428 0.36020 0.43300
Cr	Cr	0.81744 0.61245 0.81744 1.58200
Cr	Cr	0.91025 0.47411 0.91025 1.58600
O 	O 	0.91860 0.73270 0.91860 -0.76400
C 	C 	0.01402 0.29291 0.01402 0.12100
C 	C 	0.97489 0.33383 0.97489 -0.16300
C 	C 	0.95428 0.36020 0.95428 0.43400
Cr	Cr	0.81744 0.81744 0.75267 1.58200
Cr	Cr	0.91025 0.91025 0.70539 1.58600
O 	O 	0.91860 0.91860 0.43010 -0.76400
C 	C 	0.01402 0.01402 0.67905 0.12100
C 	C 	0.97489 0.97489 0.71639 -0.16200
C 	C 	0.95428 0.95428 0.73124 0.43400
Cr	Cr	0.75267 0.61245 0.81744 1.58200
Cr	Cr	0.70539 0.47411 0.91025 1.58600
O 	O 	0.43010 0.73270 0.91860 -0.76400
C 	C 	0.67905 0.29291 0.01402 0.11700
C 	C 	0.71639 0.33383 0.97489 -0.15900
C 	C 	0.73124 0.36020 0.95428 0.43300
Cr	Cr	0.61245 0.75267 0.81744 1.58200
Cr	Cr	0.47411 0.70539 0.91025 1.58600
O 	O 	0.73270 0.43010 0.91860 -0.76400
C 	C 	0.29291 0.67905 0.01402 0.11700
C 	C 	0.33383 0.71639 0.97489 -0.15900
C 	C 	0.36020 0.73124 0.95428 0.43300
Cr	Cr	0.81744 0.81744 0.61245 1.58200
Cr	Cr	0.91025 0.91025 0.47411 1.58600
O 	O 	0.91860 0.91860 0.73270 -0.76400
C 	C 	0.01402 0.01402 0.29291 0.12100
C 	C 	0.97489 0.97489 0.33383 -0.16300
C 	C 	0.95428 0.95428 0.36020 0.43400
Cr	Cr	0.49733 0.43256 0.63755 1.58200
Cr	Cr	0.54461 0.33975 0.77589 1.58600
O 	O 	0.81990 0.33140 0.51730 -0.76400
C 	C 	0.57095 0.23598 0.95709 0.11300
C 	C 	0.53361 0.27511 0.91617 -0.15500
C 	C 	0.51876 0.29572 0.88980 0.43200
Cr	Cr	0.43256 0.49733 0.43256 1.58200
Cr	Cr	0.33975 0.54461 0.33975 1.58600
O 	O 	0.33140 0.81990 0.33140 -0.76400
C 	C 	0.23598 0.57095 0.23598 0.11300
C 	C 	0.27511 0.53361 0.27511 -0.15500
C 	C 	0.29572 0.51876 0.29572 0.43200
Cr	Cr	0.43256 0.63755 0.43256 1.58200
Cr	Cr	0.33975 0.77589 0.33975 1.58600
O 	O 	0.33140 0.51730 0.33140 -0.76400
C 	C 	0.23598 0.95709 0.23598 0.11300
C 	C 	0.27511 0.91617 0.27511 -0.15500
C 	C 	0.29572 0.88980 0.29572 0.43200
Cr	Cr	0.63755 0.43256 0.49733 1.58200
Cr	Cr	0.77589 0.33975 0.54461 1.58600
O 	O 	0.51730 0.33140 0.81990 -0.76400
C 	C 	0.95709 0.23598 0.57095 0.11300
C 	C 	0.91617 0.27511 0.53361 -0.15500
C 	C 	0.88980 0.29572 0.51876 0.43200
Cr	Cr	0.43256 0.49733 0.63755 1.58200
Cr	Cr	0.33975 0.54461 0.77589 1.58600
O 	O 	0.33140 0.81990 0.51730 -0.76400
C 	C 	0.23598 0.57095 0.95709 0.11300
C 	C 	0.27511 0.53361 0.91617 -0.15500
C 	C 	0.29572 0.51876 0.88980 0.43200
Cr	Cr	0.63755 0.43256 0.43256 1.58200
Cr	Cr	0.77589 0.33975 0.33975 1.58600
O 	O 	0.51730 0.33140 0.33140 -0.76400
C 	C 	0.95709 0.23598 0.23598 0.11300
C 	C 	0.91617 0.27511 0.27511 -0.15500
C 	C 	0.88980 0.29572 0.29572 0.43200
Cr	Cr	0.49733 0.43256 0.43256 1.58200
Cr	Cr	0.54461 0.33975 0.33975 1.58600
O 	O 	0.81990 0.33140 0.33140 -0.76400
C 	C 	0.57095 0.23598 0.23598 0.11300
C 	C 	0.53361 0.27511 0.27511 -0.15500
C 	C 	0.51876 0.29572 0.29572 0.43200
Cr	Cr	0.43256 0.63755 0.49733 1.58200
Cr	Cr	0.33975 0.77589 0.54461 1.58600
O 	O 	0.33140 0.51730 0.81990 -0.76400
C 	C 	0.23598 0.95709 0.57095 0.11300
C 	C 	0.27511 0.91617 0.53361 -0.15500
C 	C 	0.29572 0.88980 0.51876 0.43200
Cr	Cr	0.43256 0.43256 0.63755 1.58200
Cr	Cr	0.33975 0.33975 0.77589 1.58600
O 	O 	0.33140 0.33140 0.51730 -0.76400
C 	C 	0.23598 0.23598 0.95709 0.11300
C 	C 	0.27511 0.27511 0.91617 -0.15500
C 	C 	0.29572 0.29572 0.88980 0.43200
Cr	Cr	0.49733 0.63755 0.43256 1.58200
Cr	Cr	0.54461 0.77589 0.33975 1.58600
O 	O 	0.81990 0.51730 0.33140 -0.76400
C 	C 	0.57095 0.95709 0.23598 0.11300
C 	C 	0.53361 0.91617 0.27511 -0.15500
C 	C 	0.51876 0.88980 0.29572 0.43200
Cr	Cr	0.63755 0.49733 0.43256 1.58200
Cr	Cr	0.77589 0.54461 0.33975 1.58600
O 	O 	0.51730 0.81990 0.33140 -0.76400
C 	C 	0.95709 0.57095 0.23598 0.11300
C 	C 	0.91617 0.53361 0.27511 -0.15500
C 	C 	0.88980 0.51876 0.29572 0.43200
Cr	Cr	0.43256 0.43256 0.49733 1.58200
Cr	Cr	0.33975 0.33975 0.54461 1.58600
O 	O 	0.33140 0.33140 0.81990 -0.76400
C 	C 	0.23598 0.23598 0.57095 0.11300
C 	C 	0.27511 0.27511 0.53361 -0.15500
C 	C 	0.29572 0.29572 0.51876 0.43200
C 	C 	0.39566 0.03797 0.03797 -0.13300
C 	C 	0.33087 0.04951 0.04951 0.09700
C 	C 	0.43201 0.02914 0.02914 0.41000
C 	C 	0.03797 0.39566 0.52840 -0.13300
C 	C 	0.04951 0.33087 0.57011 0.09700
C 	C 	0.02914 0.43201 0.50971 0.40900
C 	C 	0.03797 0.52840 0.39566 -0.13300
C 	C 	0.04951 0.57011 0.33087 0.09700
C 	C 	0.02914 0.50971 0.43201 0.40900
C 	C 	0.52840 0.03797 0.03797 -0.13300
C 	C 	0.57011 0.04951 0.04951 0.09700
C 	C 	0.50971 0.02914 0.02914 0.41000
C 	C 	0.03797 0.39566 0.03797 -0.13300
C 	C 	0.04951 0.33087 0.04951 0.09700
C 	C 	0.02914 0.43201 0.02914 0.41000
C 	C 	0.52840 0.03797 0.39566 -0.13300
C 	C 	0.57011 0.04951 0.33087 0.09700
C 	C 	0.50971 0.02914 0.43201 0.40900
C 	C 	0.39566 0.03797 0.52840 -0.13300
C 	C 	0.33087 0.04951 0.57011 0.09700
C 	C 	0.43201 0.02914 0.50971 0.40900
C 	C 	0.03797 0.52840 0.03797 -0.13300
C 	C 	0.04951 0.57011 0.04951 0.09700
C 	C 	0.02914 0.50971 0.02914 0.41000
C 	C 	0.03797 0.03797 0.39566 -0.13300
C 	C 	0.04951 0.04951 0.33087 0.09700
C 	C 	0.02914 0.02914 0.43201 0.41000
C 	C 	0.39566 0.52840 0.03797 -0.13300
C 	C 	0.33087 0.57011 0.04951 0.09700
C 	C 	0.43201 0.50971 0.02914 0.40900
C 	C 	0.52840 0.39566 0.03797 -0.13300
C 	C 	0.57011 0.33087 0.04951 0.09700
C 	C 	0.50971 0.43201 0.02914 0.40900
C 	C 	0.03797 0.03797 0.52840 -0.13300
C 	C 	0.04951 0.04951 0.57011 0.09700
C 	C 	0.02914 0.02914 0.50971 0.41000
C 	C 	0.85434 0.21203 0.72160 -0.13300
C 	C 	0.91913 0.20049 0.67989 0.09700
C 	C 	0.81799 0.22086 0.74029 0.40900
C 	C 	0.21203 0.85434 0.21203 -0.13200
C 	C 	0.20049 0.91913 0.20049 0.09700
C 	C 	0.22086 0.81799 0.22086 0.40900
C 	C 	0.21203 0.72160 0.21203 -0.13200
C 	C 	0.20049 0.67989 0.20049 0.09700
C 	C 	0.22086 0.74029 0.22086 0.40900
C 	C 	0.72160 0.21203 0.85434 -0.13300
C 	C 	0.67989 0.20049 0.91913 0.09700
C 	C 	0.74029 0.22086 0.81799 0.40900
C 	C 	0.21203 0.85434 0.72160 -0.13300
C 	C 	0.20049 0.91913 0.67989 0.09700
C 	C 	0.22086 0.81799 0.74029 0.40900
C 	C 	0.72160 0.21203 0.21203 -0.13200
C 	C 	0.67989 0.20049 0.20049 0.09700
C 	C 	0.74029 0.22086 0.22086 0.40900
C 	C 	0.85434 0.21203 0.21203 -0.13200
C 	C 	0.91913 0.20049 0.20049 0.09700
C 	C 	0.81799 0.22086 0.22086 0.40900
C 	C 	0.21203 0.72160 0.85434 -0.13300
C 	C 	0.20049 0.67989 0.91913 0.09700
C 	C 	0.22086 0.74029 0.81799 0.40900
C 	C 	0.21203 0.21203 0.72160 -0.13200
C 	C 	0.20049 0.20049 0.67989 0.09700
C 	C 	0.22086 0.22086 0.74029 0.40900
C 	C 	0.85434 0.72160 0.21203 -0.13300
C 	C 	0.91913 0.67989 0.20049 0.09700
C 	C 	0.81799 0.74029 0.22086 0.40900
C 	C 	0.72160 0.85434 0.21203 -0.13300
C 	C 	0.67989 0.91913 0.20049 0.09700
C 	C 	0.74029 0.81799 0.22086 0.40900
C 	C 	0.21203 0.21203 0.85434 -0.13200
C 	C 	0.20049 0.20049 0.91913 0.09700
C 	C 	0.22086 0.22086 0.81799 0.40900
Cr	Cr	0.53061 0.96939 0.96939 1.57800
O 	O 	0.50408 0.99592 0.99592 -0.77300
Cr	Cr	0.96939 0.53061 0.53061 1.57800
O 	O 	0.99592 0.50408 0.50408 -0.77100
Cr	Cr	0.96939 0.53061 0.96939 1.57800
O 	O 	0.99592 0.50408 0.99592 -0.77300
Cr	Cr	0.53061 0.96939 0.53061 1.57800
O 	O 	0.50408 0.99592 0.50408 -0.77100
Cr	Cr	0.96939 0.96939 0.53061 1.57800
O 	O 	0.99592 0.99592 0.50408 -0.77300
Cr	Cr	0.53061 0.53061 0.96939 1.57800
O 	O 	0.50408 0.50408 0.99592 -0.77100
Cr	Cr	0.71939 0.28061 0.71939 1.57800
O 	O 	0.74592 0.25408 0.74592 -0.77000
Cr	Cr	0.28061 0.71939 0.28061 1.57800
O 	O 	0.25408 0.74592 0.25408 -0.77000
Cr	Cr	0.28061 0.71939 0.71939 1.57800
O 	O 	0.25408 0.74592 0.74592 -0.77000
Cr	Cr	0.71939 0.28061 0.28061 1.57800
O 	O 	0.74592 0.25408 0.25408 -0.77000
Cr	Cr	0.28061 0.28061 0.71939 1.57800
O 	O 	0.25408 0.25408 0.74592 -0.77000
Cr	Cr	0.71939 0.71939 0.28061 1.57800
O 	O 	0.74592 0.74592 0.25408 -0.77000
Cr	Cr	0.49080 0.04143 0.97696 1.56600
C 	C 	0.70352 0.75042 0.84255 0.14600
Cr	Cr	0.04143 0.49080 0.49080 1.56600
C 	C 	0.75042 0.70352 0.70352 0.14600
Cr	Cr	0.97696 0.49080 0.49080 1.56500
C 	C 	0.84255 0.70352 0.70352 0.14600
Cr	Cr	0.49080 0.97696 0.04143 1.56600
C 	C 	0.70352 0.84255 0.75042 0.14600
Cr	Cr	0.97696 0.49080 0.04143 1.56600
C 	C 	0.84255 0.70352 0.75042 0.14600
Cr	Cr	0.49080 0.04143 0.49080 1.56600
C 	C 	0.70352 0.75042 0.70352 0.14600
Cr	Cr	0.49080 0.97696 0.49080 1.56500
C 	C 	0.70352 0.84255 0.70352 0.14600
Cr	Cr	0.04143 0.49080 0.97696 1.56600
C 	C 	0.75042 0.70352 0.84255 0.14600
Cr	Cr	0.04143 0.97696 0.49080 1.56600
C 	C 	0.75042 0.84255 0.70352 0.14600
Cr	Cr	0.49080 0.49080 0.04143 1.56600
C 	C 	0.70352 0.70352 0.75042 0.14600
Cr	Cr	0.49080 0.49080 0.97696 1.56500
C 	C 	0.70352 0.70352 0.84255 0.14600
Cr	Cr	0.97696 0.04143 0.49080 1.56600
C 	C 	0.84255 0.75042 0.70352 0.14600
Cr	Cr	0.75920 0.20857 0.75920 1.56600
C 	C 	0.54648 0.49958 0.54648 0.14600
Cr	Cr	0.20857 0.75920 0.27304 1.56600
C 	C 	0.49958 0.54648 0.40745 0.14600
Cr	Cr	0.27304 0.75920 0.20857 1.56600
C 	C 	0.40745 0.54648 0.49958 0.14600
Cr	Cr	0.75920 0.27304 0.75920 1.56600
C 	C 	0.54648 0.40745 0.54648 0.14600
Cr	Cr	0.27304 0.75920 0.75920 1.56600
C 	C 	0.40745 0.54648 0.54648 0.14600
Cr	Cr	0.75920 0.20857 0.27304 1.56600
C 	C 	0.54648 0.49958 0.40745 0.14600
Cr	Cr	0.75920 0.27304 0.20857 1.56600
C 	C 	0.54648 0.40745 0.49958 0.14600
Cr	Cr	0.20857 0.75920 0.75920 1.56600
C 	C 	0.49958 0.54648 0.54648 0.14600
Cr	Cr	0.20857 0.27304 0.75920 1.56600
C 	C 	0.49958 0.40745 0.54648 0.14600
Cr	Cr	0.75920 0.75920 0.27304 1.56600
C 	C 	0.54648 0.54648 0.40745 0.14600
Cr	Cr	0.75920 0.75920 0.20857 1.56600
C 	C 	0.54648 0.54648 0.49958 0.14600
Cr	Cr	0.27304 0.20857 0.75920 1.56600
C 	C 	0.40745 0.49958 0.54648 0.14600
Cr	Cr	0.27693 0.97307 0.12500 1.56100
O 	O 	0.31421 0.93579 0.12500 -0.76900
Cr	Cr	0.97307 0.27693 0.62500 1.56100
O 	O 	0.93579 0.31421 0.62500 -0.76900
Cr	Cr	0.12500 0.62500 0.27693 1.56200
O 	O 	0.12500 0.62500 0.31421 -0.76900
Cr	Cr	0.62500 0.12500 0.97307 1.56100
O 	O 	0.62500 0.12500 0.93579 -0.76900
Cr	Cr	0.12500 0.27693 0.97307 1.56100
O 	O 	0.12500 0.31421 0.93579 -0.76900
Cr	Cr	0.62500 0.97307 0.27693 1.56100
O 	O 	0.62500 0.93579 0.31421 -0.76900
Cr	Cr	0.27693 0.12500 0.62500 1.56200
O 	O 	0.31421 0.12500 0.62500 -0.76900
Cr	Cr	0.97307 0.62500 0.12500 1.56100
O 	O 	0.93579 0.62500 0.12500 -0.76900
Cr	Cr	0.97307 0.12500 0.27693 1.56100
O 	O 	0.93579 0.12500 0.31421 -0.76900
Cr	Cr	0.27693 0.62500 0.97307 1.56100
O 	O 	0.31421 0.62500 0.93579 -0.76900
Cr	Cr	0.62500 0.27693 0.12500 1.56200
O 	O 	0.62500 0.31421 0.12500 -0.76900
Cr	Cr	0.12500 0.97307 0.62500 1.56100
O 	O 	0.12500 0.93579 0.62500 -0.76900
Cr	Cr	0.97307 0.27693 0.12500 1.56100
O 	O 	0.93579 0.31421 0.12500 -0.76900
Cr	Cr	0.27693 0.97307 0.62500 1.56100
O 	O 	0.31421 0.93579 0.62500 -0.76900
Cr	Cr	0.12500 0.62500 0.97307 1.56100
O 	O 	0.12500 0.62500 0.93579 -0.76900
Cr	Cr	0.62500 0.12500 0.27693 1.56200
O 	O 	0.62500 0.12500 0.31421 -0.76900
Cr	Cr	0.12500 0.97307 0.27693 1.56100
O 	O 	0.12500 0.93579 0.31421 -0.76900
Cr	Cr	0.62500 0.27693 0.97307 1.56100
O 	O 	0.62500 0.31421 0.93579 -0.76900
Cr	Cr	0.97307 0.12500 0.62500 1.56100
O 	O 	0.93579 0.12500 0.62500 -0.76900
Cr	Cr	0.27693 0.62500 0.12500 1.56200
O 	O 	0.31421 0.62500 0.12500 -0.76900
Cr	Cr	0.27693 0.12500 0.97307 1.56100
O 	O 	0.31421 0.12500 0.93579 -0.76900
Cr	Cr	0.97307 0.62500 0.27693 1.56100
O 	O 	0.93579 0.62500 0.31421 -0.76900
Cr	Cr	0.62500 0.97307 0.12500 1.56100
O 	O 	0.62500 0.93579 0.12500 -0.76900
Cr	Cr	0.12500 0.27693 0.62500 1.56200
O 	O 	0.12500 0.31421 0.62500 -0.76900
O 	O 	0.79585 0.79585 0.79585 -0.76100
O 	O 	0.79585 0.79585 0.61245 -0.76100
O 	O 	0.79585 0.61245 0.79585 -0.76100
O 	O 	0.61245 0.79585 0.79585 -0.76100
O 	O 	0.45415 0.45415 0.63755 -0.76100
O 	O 	0.45415 0.45415 0.45415 -0.76100
O 	O 	0.45415 0.63755 0.45415 -0.76100
O 	O 	0.63755 0.45415 0.45415 -0.76100
C 	C 	0.88823 0.88823 0.83992 -0.17300
C 	C 	0.90340 0.90340 0.80443 0.43500
C 	C 	0.78456 0.78456 0.89336 -0.18300
C 	C 	0.79576 0.79576 0.93452 0.13500
C 	C 	0.78290 0.78290 0.86611 0.45800
C 	C 	0.88823 0.88823 0.38362 -0.17300
C 	C 	0.90340 0.90340 0.38877 0.43500
C 	C 	0.78456 0.78456 0.53752 -0.18300
C 	C 	0.79576 0.79576 0.47396 0.13600
C 	C 	0.78290 0.78290 0.56809 0.45800
C 	C 	0.83992 0.38362 0.88823 -0.17300
C 	C 	0.80443 0.38877 0.90340 0.43500
C 	C 	0.89336 0.53752 0.78456 -0.18300
C 	C 	0.93452 0.47396 0.79576 0.13500
C 	C 	0.86611 0.56809 0.78290 0.45800
C 	C 	0.38362 0.83992 0.88823 -0.17300
C 	C 	0.38877 0.80443 0.90340 0.43500
C 	C 	0.53752 0.89336 0.78456 -0.18300
C 	C 	0.47396 0.93452 0.79576 0.13500
C 	C 	0.56809 0.86611 0.78290 0.45800
C 	C 	0.83992 0.88823 0.88823 -0.17300
C 	C 	0.80443 0.90340 0.90340 0.43500
C 	C 	0.89336 0.78456 0.78456 -0.18300
C 	C 	0.93452 0.79576 0.79576 0.13500
C 	C 	0.86611 0.78290 0.78290 0.45800
C 	C 	0.38362 0.88823 0.88823 -0.17300
C 	C 	0.38877 0.90340 0.90340 0.43500
C 	C 	0.53752 0.78456 0.78456 -0.18300
C 	C 	0.47396 0.79576 0.79576 0.13600
C 	C 	0.56809 0.78290 0.78290 0.45800
C 	C 	0.88823 0.83992 0.38362 -0.17300
C 	C 	0.90340 0.80443 0.38877 0.43500
C 	C 	0.78456 0.89336 0.53752 -0.18300
C 	C 	0.79576 0.93452 0.47396 0.13500
C 	C 	0.78290 0.86611 0.56809 0.45800
C 	C 	0.88823 0.38362 0.83992 -0.17300
C 	C 	0.90340 0.38877 0.80443 0.43500
C 	C 	0.78456 0.53752 0.89336 -0.18300
C 	C 	0.79576 0.47396 0.93452 0.13500
C 	C 	0.78290 0.56809 0.86611 0.45800
C 	C 	0.88823 0.83992 0.88823 -0.17300
C 	C 	0.90340 0.80443 0.90340 0.43500
C 	C 	0.78456 0.89336 0.78456 -0.18300
C 	C 	0.79576 0.93452 0.79576 0.13500
C 	C 	0.78290 0.86611 0.78290 0.45800
C 	C 	0.88823 0.38362 0.88823 -0.17300
C 	C 	0.90340 0.38877 0.90340 0.43500
C 	C 	0.78456 0.53752 0.78456 -0.18300
C 	C 	0.79576 0.47396 0.79576 0.13600
C 	C 	0.78290 0.56809 0.78290 0.45800
C 	C 	0.38362 0.88823 0.83992 -0.17300
C 	C 	0.38877 0.90340 0.80443 0.43500
C 	C 	0.53752 0.78456 0.89336 -0.18300
C 	C 	0.47396 0.79576 0.93452 0.13500
C 	C 	0.56809 0.78290 0.86611 0.45800
C 	C 	0.83992 0.88823 0.38362 -0.17300
C 	C 	0.80443 0.90340 0.38877 0.43500
C 	C 	0.89336 0.78456 0.53752 -0.18300
C 	C 	0.93452 0.79576 0.47396 0.13500
C 	C 	0.86611 0.78290 0.56809 0.45800
C 	C 	0.36177 0.36177 0.86638 -0.17300
C 	C 	0.34660 0.34660 0.86123 0.43500
C 	C 	0.46544 0.46544 0.71248 -0.18300
C 	C 	0.45424 0.45424 0.77604 0.13600
C 	C 	0.46710 0.46710 0.68191 0.45800
C 	C 	0.36177 0.36177 0.41008 -0.17300
C 	C 	0.34660 0.34660 0.44557 0.43500
C 	C 	0.46544 0.46544 0.35664 -0.18300
C 	C 	0.45424 0.45424 0.31548 0.13600
C 	C 	0.46710 0.46710 0.38389 0.45800
C 	C 	0.41008 0.86638 0.36177 -0.17300
C 	C 	0.44557 0.86123 0.34660 0.43500
C 	C 	0.35664 0.71248 0.46544 -0.18300
C 	C 	0.31548 0.77604 0.45424 0.13600
C 	C 	0.38389 0.68191 0.46710 0.45800
C 	C 	0.86638 0.41008 0.36177 -0.17300
C 	C 	0.86123 0.44557 0.34660 0.43500
C 	C 	0.71248 0.35664 0.46544 -0.18300
C 	C 	0.77604 0.31548 0.45424 0.13600
C 	C 	0.68191 0.38389 0.46710 0.45800
C 	C 	0.41008 0.36177 0.86638 -0.17300
C 	C 	0.44557 0.34660 0.86123 0.43500
C 	C 	0.35664 0.46544 0.71248 -0.18300
C 	C 	0.31548 0.45424 0.77604 0.13600
C 	C 	0.38389 0.46710 0.68191 0.45800
C 	C 	0.86638 0.36177 0.41008 -0.17300
C 	C 	0.86123 0.34660 0.44557 0.43500
C 	C 	0.71248 0.46544 0.35664 -0.18300
C 	C 	0.77604 0.45424 0.31548 0.13600
C 	C 	0.68191 0.46710 0.38389 0.45800
C 	C 	0.36177 0.41008 0.36177 -0.17300
C 	C 	0.34660 0.44557 0.34660 0.43500
C 	C 	0.46544 0.35664 0.46544 -0.18300
C 	C 	0.45424 0.31548 0.45424 0.13600
C 	C 	0.46710 0.38389 0.46710 0.45800
C 	C 	0.36177 0.86638 0.36177 -0.17300
C 	C 	0.34660 0.86123 0.34660 0.43500
C 	C 	0.46544 0.71248 0.46544 -0.18300
C 	C 	0.45424 0.77604 0.45424 0.13600
C 	C 	0.46710 0.68191 0.46710 0.45800
C 	C 	0.36177 0.41008 0.86638 -0.17300
C 	C 	0.34660 0.44557 0.86123 0.43500
C 	C 	0.46544 0.35664 0.71248 -0.18300
C 	C 	0.45424 0.31548 0.77604 0.13600
C 	C 	0.46710 0.38389 0.68191 0.45800
C 	C 	0.36177 0.86638 0.41008 -0.17300
C 	C 	0.34660 0.86123 0.44557 0.43500
C 	C 	0.46544 0.71248 0.35664 -0.18300
C 	C 	0.45424 0.77604 0.31548 0.13600
C 	C 	0.46710 0.68191 0.38389 0.45800
C 	C 	0.86638 0.36177 0.36177 -0.17300
C 	C 	0.86123 0.34660 0.34660 0.43500
C 	C 	0.71248 0.46544 0.46544 -0.18300
C 	C 	0.77604 0.45424 0.45424 0.13600
C 	C 	0.68191 0.46710 0.46710 0.45800
C 	C 	0.41008 0.36177 0.36177 -0.17300
C 	C 	0.44557 0.34660 0.34660 0.43500
C 	C 	0.35664 0.46544 0.46544 -0.18300
C 	C 	0.31548 0.45424 0.45424 0.13600
C 	C 	0.38389 0.46710 0.46710 0.45800
C 	C 	0.73491 0.73491 0.84281 -0.20700
C 	C 	0.75340 0.75340 0.83639 0.46900
C 	C 	0.73491 0.73491 0.68737 -0.20700
C 	C 	0.75340 0.75340 0.65681 0.46900
C 	C 	0.84281 0.68737 0.73491 -0.20700
C 	C 	0.83639 0.65681 0.75340 0.46900
C 	C 	0.68737 0.84281 0.73491 -0.20700
C 	C 	0.65681 0.83639 0.75340 0.46900
C 	C 	0.84281 0.73491 0.73491 -0.20700
C 	C 	0.83639 0.75340 0.75340 0.46900
C 	C 	0.68737 0.73491 0.73491 -0.20700
C 	C 	0.65681 0.75340 0.75340 0.46900
C 	C 	0.73491 0.84281 0.68737 -0.20700
C 	C 	0.75340 0.83639 0.65681 0.46900
C 	C 	0.73491 0.68737 0.84281 -0.20700
C 	C 	0.75340 0.65681 0.83639 0.46900
C 	C 	0.73491 0.84281 0.73491 -0.20700
C 	C 	0.75340 0.83639 0.75340 0.46900
C 	C 	0.73491 0.68737 0.73491 -0.20700
C 	C 	0.75340 0.65681 0.75340 0.46900
C 	C 	0.68737 0.73491 0.84281 -0.20700
C 	C 	0.65681 0.75340 0.83639 0.46900
C 	C 	0.84281 0.73491 0.68737 -0.20700
C 	C 	0.83639 0.75340 0.65681 0.46900
C 	C 	0.51509 0.51509 0.56263 -0.20700
C 	C 	0.49660 0.49660 0.59319 0.46900
C 	C 	0.51509 0.51509 0.40719 -0.20700
C 	C 	0.49660 0.49660 0.41361 0.46900
C 	C 	0.40719 0.56263 0.51509 -0.20700
C 	C 	0.41361 0.59319 0.49660 0.46900
C 	C 	0.56263 0.40719 0.51509 -0.20700
C 	C 	0.59319 0.41361 0.49660 0.46900
C 	C 	0.40719 0.51509 0.56263 -0.20700
C 	C 	0.41361 0.49660 0.59319 0.46900
C 	C 	0.56263 0.51509 0.40719 -0.20700
C 	C 	0.59319 0.49660 0.41361 0.46900
C 	C 	0.51509 0.40719 0.51509 -0.20700
C 	C 	0.49660 0.41361 0.49660 0.46900
C 	C 	0.51509 0.56263 0.51509 -0.20700
C 	C 	0.49660 0.59319 0.49660 0.46900
C 	C 	0.51509 0.40719 0.56263 -0.20700
C 	C 	0.49660 0.41361 0.59319 0.46900
C 	C 	0.51509 0.56263 0.40719 -0.20700
C 	C 	0.49660 0.59319 0.41361 0.46900
C 	C 	0.56263 0.51509 0.51509 -0.20700
C 	C 	0.59319 0.49660 0.49660 0.46900
C 	C 	0.40719 0.51509 0.51509 -0.20700
C 	C 	0.41361 0.49660 0.49660 0.46900
C 	C 	0.85632 0.90346 0.85632 0.12000
C 	C 	0.90346 0.85632 0.38390 0.12000
C 	C 	0.85632 0.38390 0.85632 0.12000
C 	C 	0.38390 0.85632 0.90346 0.12000
C 	C 	0.85632 0.85632 0.90346 0.12000
C 	C 	0.38390 0.90346 0.85632 0.12000
C 	C 	0.85632 0.85632 0.38390 0.12000
C 	C 	0.90346 0.38390 0.85632 0.12000
C 	C 	0.90346 0.85632 0.85632 0.12000
C 	C 	0.85632 0.38390 0.90346 0.12000
C 	C 	0.38390 0.85632 0.85632 0.12000
C 	C 	0.85632 0.90346 0.38390 0.12000
C 	C 	0.39368 0.34654 0.86610 0.12000
C 	C 	0.34654 0.39368 0.39368 0.12000
C 	C 	0.39368 0.86610 0.34654 0.12000
C 	C 	0.86610 0.39368 0.39368 0.12000
C 	C 	0.39368 0.39368 0.86610 0.12000
C 	C 	0.86610 0.34654 0.39368 0.12000
C 	C 	0.39368 0.39368 0.34654 0.12000
C 	C 	0.34654 0.86610 0.39368 0.12000
C 	C 	0.34654 0.39368 0.86610 0.12000
C 	C 	0.39368 0.86610 0.39368 0.12000
C 	C 	0.86610 0.39368 0.34654 0.12000
C 	C 	0.39368 0.34654 0.39368 0.12000
