data_crystal

_cell_length_a 32.65200
_cell_length_b 32.65200
_cell_length_c 32.65200
_cell_angle_alpha 90.00000
_cell_angle_beta  90.00000
_cell_angle_gamma 90.00000

_symmetry_space_group_name_	'P 1'
_symmetry_space_group_name_H-M	'P 1'

loop_
_symmetry_equiv_pos_as_xyz
  x,y,z

loop_
_atom_site_label
_atom_site_type_symbol
_atom_site_fract_x
_atom_site_fract_y
_atom_site_fract_z
_atom_site_charge
Zn	Zn	0.30822 0.63752 0.02570 1.23300
Zn	Zn	0.13793 0.58404 0.98307 1.23300
P 	P 	0.20419 0.63841 0.02681 0.49700
P 	P 	0.13521 0.49524 0.94124 0.47200
O 	O 	0.08417 0.64483 0.17848 -0.48800
O 	O 	0.06999 0.64344 0.11223 -0.53000
O 	O 	0.24992 0.63893 0.02229 -0.44100
O 	O 	0.18447 0.67393 0.00481 -0.47000
O 	O 	0.18623 0.59745 0.01397 -0.45800
O 	O 	0.20613 0.41460 0.06140 -0.49900
O 	O 	0.17250 0.35820 0.07440 -0.38800
O 	O 	0.14134 0.52677 0.97481 -0.43800
O 	O 	0.17394 0.49114 0.91635 -0.46700
O 	O 	0.09788 0.50428 0.91515 -0.47300
C 	C 	0.09407 0.64503 0.14158 0.44600
C 	C 	0.13882 0.64670 0.13134 -0.17900
C 	C 	0.15123 0.64307 0.09166 0.09600
H 	H 	0.13150 0.63960 0.07140 -0.01300
C 	C 	0.19169 0.64440 0.08034 -0.14300
C 	C 	0.22070 0.65140 0.11060 0.07000
H 	H 	0.24830 0.65380 0.10370 0.01500
C 	C 	0.20860 0.65490 0.15090 -0.15300
H 	H 	0.22820 0.65870 0.17120 0.08100
C 	C 	0.16830 0.65270 0.16120 0.09300
H 	H 	0.16050 0.65530 0.18840 0.00700
C 	C 	0.17600 0.39110 0.05580 0.37700
C 	C 	0.14700 0.40180 0.02280 -0.14800
C 	C 	0.15273 0.43692 0.00036 0.06400
H 	H 	0.17460 0.45400 0.00670 0.03400
C 	C 	0.12643 0.44768 0.96821 -0.11800
C 	C 	0.09380 0.42230 0.96040 0.05200
H 	H 	0.07600 0.42870 0.93920 0.00700
C 	C 	0.08700 0.38820 0.98270 -0.12600
H 	H 	0.06480 0.37150 0.97640 0.07100
C 	C 	0.11280 0.37800 0.01490 0.06300
H 	H 	0.10710 0.35520 0.03110 0.01200
Zn	Zn	0.19178 0.86248 0.02570 1.23300
Zn	Zn	0.36207 0.91596 0.98307 1.23300
P 	P 	0.29581 0.86159 0.02681 0.49700
P 	P 	0.36479 0.00476 0.94124 0.47200
O 	O 	0.41583 0.85517 0.17848 -0.48800
O 	O 	0.43001 0.85656 0.11223 -0.53000
O 	O 	0.25008 0.86107 0.02229 -0.44100
O 	O 	0.31553 0.82607 0.00481 -0.47000
O 	O 	0.31377 0.90255 0.01397 -0.45800
O 	O 	0.29387 0.08540 0.06140 -0.49900
O 	O 	0.32750 0.14180 0.07440 -0.38800
O 	O 	0.35866 0.97323 0.97481 -0.43800
O 	O 	0.32606 0.00886 0.91635 -0.46700
O 	O 	0.40212 0.99572 0.91515 -0.47300
C 	C 	0.40593 0.85497 0.14158 0.44600
C 	C 	0.36118 0.85330 0.13134 -0.17900
C 	C 	0.34877 0.85693 0.09166 0.09600
H 	H 	0.36850 0.86040 0.07140 -0.01300
C 	C 	0.30831 0.85560 0.08034 -0.14300
C 	C 	0.27930 0.84860 0.11060 0.07000
H 	H 	0.25170 0.84620 0.10370 0.01500
C 	C 	0.29140 0.84510 0.15090 -0.15300
H 	H 	0.27180 0.84130 0.17120 0.08100
C 	C 	0.33170 0.84730 0.16120 0.09300
H 	H 	0.33950 0.84470 0.18840 0.00700
C 	C 	0.32400 0.10890 0.05580 0.37700
C 	C 	0.35300 0.09820 0.02280 -0.14800
C 	C 	0.34727 0.06308 0.00036 0.06300
H 	H 	0.32540 0.04600 0.00670 0.03300
C 	C 	0.37357 0.05232 0.96821 -0.11800
C 	C 	0.40620 0.07770 0.96040 0.05200
H 	H 	0.42400 0.07130 0.93920 0.00700
C 	C 	0.41300 0.11180 0.98270 -0.12600
H 	H 	0.43520 0.12850 0.97640 0.07100
C 	C 	0.38720 0.12200 0.01490 0.06300
H 	H 	0.39290 0.14480 0.03110 0.01200
Zn	Zn	0.19178 0.63752 0.47430 1.23400
Zn	Zn	0.36207 0.58404 0.51693 1.23400
P 	P 	0.29581 0.63841 0.47319 0.49800
P 	P 	0.36479 0.49524 0.55876 0.47300
O 	O 	0.41583 0.64483 0.32152 -0.48700
O 	O 	0.43001 0.64344 0.38777 -0.52900
O 	O 	0.25008 0.63893 0.47771 -0.44000
O 	O 	0.31553 0.67393 0.49519 -0.46900
O 	O 	0.31377 0.59745 0.48603 -0.45700
O 	O 	0.29387 0.41460 0.43860 -0.49800
O 	O 	0.32750 0.35820 0.42560 -0.38700
O 	O 	0.35866 0.52677 0.52519 -0.43700
O 	O 	0.32606 0.49114 0.58365 -0.46600
O 	O 	0.40212 0.50428 0.58485 -0.47200
C 	C 	0.40593 0.64503 0.35842 0.44700
C 	C 	0.36118 0.64670 0.36866 -0.17800
C 	C 	0.34877 0.64307 0.40834 0.09700
H 	H 	0.36850 0.63960 0.42860 -0.01200
C 	C 	0.30831 0.64440 0.41966 -0.14200
C 	C 	0.27930 0.65140 0.38940 0.07100
H 	H 	0.25170 0.65380 0.39630 0.01600
C 	C 	0.29140 0.65490 0.34910 -0.15200
H 	H 	0.27180 0.65870 0.32880 0.08200
C 	C 	0.33170 0.65270 0.33880 0.09400
H 	H 	0.33950 0.65530 0.31160 0.00800
C 	C 	0.32400 0.39110 0.44420 0.37900
C 	C 	0.35300 0.40180 0.47720 -0.14700
C 	C 	0.34727 0.43692 0.49964 0.06500
H 	H 	0.32540 0.45400 0.49330 0.03400
C 	C 	0.37357 0.44768 0.53179 -0.11800
C 	C 	0.40620 0.42230 0.53960 0.05300
H 	H 	0.42400 0.42870 0.56080 0.00800
C 	C 	0.41300 0.38820 0.51730 -0.12500
H 	H 	0.43520 0.37150 0.52360 0.07200
C 	C 	0.38720 0.37800 0.48510 0.06500
H 	H 	0.39290 0.35520 0.46890 0.01300
Zn	Zn	0.30822 0.86248 0.47430 1.23400
Zn	Zn	0.13793 0.91596 0.51693 1.23400
P 	P 	0.20419 0.86159 0.47319 0.49800
P 	P 	0.13521 0.00476 0.55876 0.47300
O 	O 	0.08417 0.85517 0.32152 -0.48700
O 	O 	0.06999 0.85656 0.38777 -0.52900
O 	O 	0.24992 0.86107 0.47771 -0.44000
O 	O 	0.18447 0.82607 0.49519 -0.46900
O 	O 	0.18623 0.90255 0.48603 -0.45700
O 	O 	0.20613 0.08540 0.43860 -0.49800
O 	O 	0.17250 0.14180 0.42560 -0.38700
O 	O 	0.14134 0.97323 0.52519 -0.43700
O 	O 	0.17394 0.00886 0.58365 -0.46600
O 	O 	0.09788 0.99572 0.58485 -0.47200
C 	C 	0.09407 0.85497 0.35842 0.44700
C 	C 	0.13882 0.85330 0.36866 -0.17800
C 	C 	0.15123 0.85693 0.40834 0.09700
H 	H 	0.13150 0.86040 0.42860 -0.01200
C 	C 	0.19169 0.85560 0.41966 -0.14200
C 	C 	0.22070 0.84860 0.38940 0.07100
H 	H 	0.24830 0.84620 0.39630 0.01600
C 	C 	0.20860 0.84510 0.34910 -0.15200
H 	H 	0.22820 0.84130 0.32880 0.08200
C 	C 	0.16830 0.84730 0.33880 0.09400
H 	H 	0.16050 0.84470 0.31160 0.00800
C 	C 	0.17600 0.10890 0.44420 0.37900
C 	C 	0.14700 0.09820 0.47720 -0.14700
C 	C 	0.15273 0.06308 0.49964 0.06500
H 	H 	0.17460 0.04600 0.49330 0.03400
C 	C 	0.12643 0.05232 0.53179 -0.11800
C 	C 	0.09380 0.07770 0.53960 0.05300
H 	H 	0.07600 0.07130 0.56080 0.00800
C 	C 	0.08700 0.11180 0.51730 -0.12500
H 	H 	0.06480 0.12850 0.52360 0.07200
C 	C 	0.11280 0.12200 0.48510 0.06500
H 	H 	0.10710 0.14480 0.46890 0.01300
Zn	Zn	0.02570 0.30822 0.63752 1.23400
Zn	Zn	0.98307 0.13793 0.58404 1.23400
P 	P 	0.02681 0.20419 0.63841 0.49800
P 	P 	0.94124 0.13521 0.49524 0.47300
O 	O 	0.17848 0.08417 0.64483 -0.48700
O 	O 	0.11223 0.06999 0.64344 -0.52900
O 	O 	0.02229 0.24992 0.63893 -0.44000
O 	O 	0.00481 0.18447 0.67393 -0.46900
O 	O 	0.01397 0.18623 0.59745 -0.45700
O 	O 	0.06140 0.20613 0.41460 -0.49800
O 	O 	0.07440 0.17250 0.35820 -0.38700
O 	O 	0.97481 0.14134 0.52677 -0.43700
O 	O 	0.91635 0.17394 0.49114 -0.46600
O 	O 	0.91515 0.09788 0.50428 -0.47200
C 	C 	0.14158 0.09407 0.64503 0.44700
C 	C 	0.13134 0.13882 0.64670 -0.17800
C 	C 	0.09166 0.15123 0.64307 0.09700
H 	H 	0.07140 0.13150 0.63960 -0.01200
C 	C 	0.08034 0.19169 0.64440 -0.14200
C 	C 	0.11060 0.22070 0.65140 0.07100
H 	H 	0.10370 0.24830 0.65380 0.01600
C 	C 	0.15090 0.20860 0.65490 -0.15200
H 	H 	0.17120 0.22820 0.65870 0.08200
C 	C 	0.16120 0.16830 0.65270 0.09400
H 	H 	0.18840 0.16050 0.65530 0.00800
C 	C 	0.05580 0.17600 0.39110 0.37800
C 	C 	0.02280 0.14700 0.40180 -0.14700
C 	C 	0.00036 0.15273 0.43692 0.06500
H 	H 	0.00670 0.17460 0.45400 0.03500
C 	C 	0.96821 0.12643 0.44768 -0.11700
C 	C 	0.96040 0.09380 0.42230 0.05300
H 	H 	0.93920 0.07600 0.42870 0.00800
C 	C 	0.98270 0.08700 0.38820 -0.12500
H 	H 	0.97640 0.06480 0.37150 0.07200
C 	C 	0.01490 0.11280 0.37800 0.06400
H 	H 	0.03110 0.10710 0.35520 0.01300
Zn	Zn	0.02570 0.19178 0.86248 1.23400
Zn	Zn	0.98307 0.36207 0.91596 1.23400
P 	P 	0.02681 0.29581 0.86159 0.49800
P 	P 	0.94124 0.36479 0.00476 0.47300
O 	O 	0.17848 0.41583 0.85517 -0.48700
O 	O 	0.11223 0.43001 0.85656 -0.52900
O 	O 	0.02229 0.25008 0.86107 -0.44000
O 	O 	0.00481 0.31553 0.82607 -0.46900
O 	O 	0.01397 0.31377 0.90255 -0.45700
O 	O 	0.06140 0.29387 0.08540 -0.49800
O 	O 	0.07440 0.32750 0.14180 -0.38700
O 	O 	0.97481 0.35866 0.97323 -0.43700
O 	O 	0.91635 0.32606 0.00886 -0.46600
O 	O 	0.91515 0.40212 0.99572 -0.47200
C 	C 	0.14158 0.40593 0.85497 0.44700
C 	C 	0.13134 0.36118 0.85330 -0.17800
C 	C 	0.09166 0.34877 0.85693 0.09700
H 	H 	0.07140 0.36850 0.86040 -0.01200
C 	C 	0.08034 0.30831 0.85560 -0.14200
C 	C 	0.11060 0.27930 0.84860 0.07100
H 	H 	0.10370 0.25170 0.84620 0.01600
C 	C 	0.15090 0.29140 0.84510 -0.15200
H 	H 	0.17120 0.27180 0.84130 0.08200
C 	C 	0.16120 0.33170 0.84730 0.09400
H 	H 	0.18840 0.33950 0.84470 0.00800
C 	C 	0.05580 0.32400 0.10890 0.37800
C 	C 	0.02280 0.35300 0.09820 -0.14700
C 	C 	0.00036 0.34727 0.06308 0.06400
H 	H 	0.00670 0.32540 0.04600 0.03400
C 	C 	0.96821 0.37357 0.05232 -0.11700
C 	C 	0.96040 0.40620 0.07770 0.05300
H 	H 	0.93920 0.42400 0.07130 0.00800
C 	C 	0.98270 0.41300 0.11180 -0.12500
H 	H 	0.97640 0.43520 0.12850 0.07200
C 	C 	0.01490 0.38720 0.12200 0.06400
H 	H 	0.03110 0.39290 0.14480 0.01300
Zn	Zn	0.47430 0.19178 0.63752 1.23400
Zn	Zn	0.51693 0.36207 0.58404 1.23400
P 	P 	0.47319 0.29581 0.63841 0.49800
P 	P 	0.55876 0.36479 0.49524 0.47300
O 	O 	0.32152 0.41583 0.64483 -0.48700
O 	O 	0.38777 0.43001 0.64344 -0.52900
O 	O 	0.47771 0.25008 0.63893 -0.44000
O 	O 	0.49519 0.31553 0.67393 -0.46900
O 	O 	0.48603 0.31377 0.59745 -0.45700
O 	O 	0.43860 0.29387 0.41460 -0.49800
O 	O 	0.42560 0.32750 0.35820 -0.38700
O 	O 	0.52519 0.35866 0.52677 -0.43700
O 	O 	0.58365 0.32606 0.49114 -0.46600
O 	O 	0.58485 0.40212 0.50428 -0.47200
C 	C 	0.35842 0.40593 0.64503 0.44700
C 	C 	0.36866 0.36118 0.64670 -0.17800
C 	C 	0.40834 0.34877 0.64307 0.09700
H 	H 	0.42860 0.36850 0.63960 -0.01200
C 	C 	0.41966 0.30831 0.64440 -0.14200
C 	C 	0.38940 0.27930 0.65140 0.07100
H 	H 	0.39630 0.25170 0.65380 0.01600
C 	C 	0.34910 0.29140 0.65490 -0.15200
H 	H 	0.32880 0.27180 0.65870 0.08200
C 	C 	0.33880 0.33170 0.65270 0.09400
H 	H 	0.31160 0.33950 0.65530 0.00800
C 	C 	0.44420 0.32400 0.39110 0.37900
C 	C 	0.47720 0.35300 0.40180 -0.14700
C 	C 	0.49964 0.34727 0.43692 0.06500
H 	H 	0.49330 0.32540 0.45400 0.03400
C 	C 	0.53179 0.37357 0.44768 -0.11800
C 	C 	0.53960 0.40620 0.42230 0.05300
H 	H 	0.56080 0.42400 0.42870 0.00800
C 	C 	0.51730 0.41300 0.38820 -0.12500
H 	H 	0.52360 0.43520 0.37150 0.07200
C 	C 	0.48510 0.38720 0.37800 0.06500
H 	H 	0.46890 0.39290 0.35520 0.01300
Zn	Zn	0.47430 0.30822 0.86248 1.23400
Zn	Zn	0.51693 0.13793 0.91596 1.23400
P 	P 	0.47319 0.20419 0.86159 0.49800
P 	P 	0.55876 0.13521 0.00476 0.47300
O 	O 	0.32152 0.08417 0.85517 -0.48700
O 	O 	0.38777 0.06999 0.85656 -0.52900
O 	O 	0.47771 0.24992 0.86107 -0.44000
O 	O 	0.49519 0.18447 0.82607 -0.46900
O 	O 	0.48603 0.18623 0.90255 -0.45700
O 	O 	0.43860 0.20613 0.08540 -0.49800
O 	O 	0.42560 0.17250 0.14180 -0.38700
O 	O 	0.52519 0.14134 0.97323 -0.43700
O 	O 	0.58365 0.17394 0.00886 -0.46600
O 	O 	0.58485 0.09788 0.99572 -0.47200
C 	C 	0.35842 0.09407 0.85497 0.44700
C 	C 	0.36866 0.13882 0.85330 -0.17800
C 	C 	0.40834 0.15123 0.85693 0.09700
H 	H 	0.42860 0.13150 0.86040 -0.01200
C 	C 	0.41966 0.19169 0.85560 -0.14200
C 	C 	0.38940 0.22070 0.84860 0.07100
H 	H 	0.39630 0.24830 0.84620 0.01600
C 	C 	0.34910 0.20860 0.84510 -0.15200
H 	H 	0.32880 0.22820 0.84130 0.08200
C 	C 	0.33880 0.16830 0.84730 0.09400
H 	H 	0.31160 0.16050 0.84470 0.00800
C 	C 	0.44420 0.17600 0.10890 0.37900
C 	C 	0.47720 0.14700 0.09820 -0.14700
C 	C 	0.49964 0.15273 0.06308 0.06500
H 	H 	0.49330 0.17460 0.04600 0.03400
C 	C 	0.53179 0.12643 0.05232 -0.11800
C 	C 	0.53960 0.09380 0.07770 0.05300
H 	H 	0.56080 0.07600 0.07130 0.00800
C 	C 	0.51730 0.08700 0.11180 -0.12500
H 	H 	0.52360 0.06480 0.12850 0.07200
C 	C 	0.48510 0.11280 0.12200 0.06500
H 	H 	0.46890 0.10710 0.14480 0.01300
Zn	Zn	0.63752 0.02570 0.30822 1.23400
Zn	Zn	0.58404 0.98307 0.13793 1.23400
P 	P 	0.63841 0.02681 0.20419 0.49800
P 	P 	0.49524 0.94124 0.13521 0.47300
O 	O 	0.64483 0.17848 0.08417 -0.48700
O 	O 	0.64344 0.11223 0.06999 -0.52900
O 	O 	0.63893 0.02229 0.24992 -0.44000
O 	O 	0.67393 0.00481 0.18447 -0.46900
O 	O 	0.59745 0.01397 0.18623 -0.45700
O 	O 	0.41460 0.06140 0.20613 -0.49800
O 	O 	0.35820 0.07440 0.17250 -0.38700
O 	O 	0.52677 0.97481 0.14134 -0.43700
O 	O 	0.49114 0.91635 0.17394 -0.46600
O 	O 	0.50428 0.91515 0.09788 -0.47200
C 	C 	0.64503 0.14158 0.09407 0.44700
C 	C 	0.64670 0.13134 0.13882 -0.17800
C 	C 	0.64307 0.09166 0.15123 0.09700
H 	H 	0.63960 0.07140 0.13150 -0.01200
C 	C 	0.64440 0.08034 0.19169 -0.14200
C 	C 	0.65140 0.11060 0.22070 0.07100
H 	H 	0.65380 0.10370 0.24830 0.01600
C 	C 	0.65490 0.15090 0.20860 -0.15200
H 	H 	0.65870 0.17120 0.22820 0.08200
C 	C 	0.65270 0.16120 0.16830 0.09400
H 	H 	0.65530 0.18840 0.16050 0.00800
C 	C 	0.39110 0.05580 0.17600 0.37800
C 	C 	0.40180 0.02280 0.14700 -0.14700
C 	C 	0.43692 0.00036 0.15273 0.06500
H 	H 	0.45400 0.00670 0.17460 0.03500
C 	C 	0.44768 0.96821 0.12643 -0.11700
C 	C 	0.42230 0.96040 0.09380 0.05300
H 	H 	0.42870 0.93920 0.07600 0.00800
C 	C 	0.38820 0.98270 0.08700 -0.12500
H 	H 	0.37150 0.97640 0.06480 0.07200
C 	C 	0.37800 0.01490 0.11280 0.06400
H 	H 	0.35520 0.03110 0.10710 0.01300
Zn	Zn	0.86248 0.02570 0.19178 1.23400
Zn	Zn	0.91596 0.98307 0.36207 1.23400
P 	P 	0.86159 0.02681 0.29581 0.49800
P 	P 	0.00476 0.94124 0.36479 0.47300
O 	O 	0.85517 0.17848 0.41583 -0.48700
O 	O 	0.85656 0.11223 0.43001 -0.52900
O 	O 	0.86107 0.02229 0.25008 -0.44000
O 	O 	0.82607 0.00481 0.31553 -0.46900
O 	O 	0.90255 0.01397 0.31377 -0.45700
O 	O 	0.08540 0.06140 0.29387 -0.49800
O 	O 	0.14180 0.07440 0.32750 -0.38700
O 	O 	0.97323 0.97481 0.35866 -0.43700
O 	O 	0.00886 0.91635 0.32606 -0.46600
O 	O 	0.99572 0.91515 0.40212 -0.47200
C 	C 	0.85497 0.14158 0.40593 0.44700
C 	C 	0.85330 0.13134 0.36118 -0.17800
C 	C 	0.85693 0.09166 0.34877 0.09700
H 	H 	0.86040 0.07140 0.36850 -0.01200
C 	C 	0.85560 0.08034 0.30831 -0.14200
C 	C 	0.84860 0.11060 0.27930 0.07100
H 	H 	0.84620 0.10370 0.25170 0.01600
C 	C 	0.84510 0.15090 0.29140 -0.15200
H 	H 	0.84130 0.17120 0.27180 0.08200
C 	C 	0.84730 0.16120 0.33170 0.09400
H 	H 	0.84470 0.18840 0.33950 0.00800
C 	C 	0.10890 0.05580 0.32400 0.37800
C 	C 	0.09820 0.02280 0.35300 -0.14700
C 	C 	0.06308 0.00036 0.34727 0.06400
H 	H 	0.04600 0.00670 0.32540 0.03400
C 	C 	0.05232 0.96821 0.37357 -0.11700
C 	C 	0.07770 0.96040 0.40620 0.05300
H 	H 	0.07130 0.93920 0.42400 0.00800
C 	C 	0.11180 0.98270 0.41300 -0.12500
H 	H 	0.12850 0.97640 0.43520 0.07200
C 	C 	0.12200 0.01490 0.38720 0.06400
H 	H 	0.14480 0.03110 0.39290 0.01300
Zn	Zn	0.63752 0.47430 0.19178 1.23400
Zn	Zn	0.58404 0.51693 0.36207 1.23400
P 	P 	0.63841 0.47319 0.29581 0.49800
P 	P 	0.49524 0.55876 0.36479 0.47300
O 	O 	0.64483 0.32152 0.41583 -0.48700
O 	O 	0.64344 0.38777 0.43001 -0.52900
O 	O 	0.63893 0.47771 0.25008 -0.44000
O 	O 	0.67393 0.49519 0.31553 -0.46900
O 	O 	0.59745 0.48603 0.31377 -0.45700
O 	O 	0.41460 0.43860 0.29387 -0.49800
O 	O 	0.35820 0.42560 0.32750 -0.38700
O 	O 	0.52677 0.52519 0.35866 -0.43700
O 	O 	0.49114 0.58365 0.32606 -0.46600
O 	O 	0.50428 0.58485 0.40212 -0.47200
C 	C 	0.64503 0.35842 0.40593 0.44700
C 	C 	0.64670 0.36866 0.36118 -0.17800
C 	C 	0.64307 0.40834 0.34877 0.09700
H 	H 	0.63960 0.42860 0.36850 -0.01200
C 	C 	0.64440 0.41966 0.30831 -0.14200
C 	C 	0.65140 0.38940 0.27930 0.07100
H 	H 	0.65380 0.39630 0.25170 0.01600
C 	C 	0.65490 0.34910 0.29140 -0.15200
H 	H 	0.65870 0.32880 0.27180 0.08200
C 	C 	0.65270 0.33880 0.33170 0.09400
H 	H 	0.65530 0.31160 0.33950 0.00800
C 	C 	0.39110 0.44420 0.32400 0.37900
C 	C 	0.40180 0.47720 0.35300 -0.14700
C 	C 	0.43692 0.49964 0.34727 0.06500
H 	H 	0.45400 0.49330 0.32540 0.03400
C 	C 	0.44768 0.53179 0.37357 -0.11800
C 	C 	0.42230 0.53960 0.40620 0.05300
H 	H 	0.42870 0.56080 0.42400 0.00800
C 	C 	0.38820 0.51730 0.41300 -0.12500
H 	H 	0.37150 0.52360 0.43520 0.07200
C 	C 	0.37800 0.48510 0.38720 0.06500
H 	H 	0.35520 0.46890 0.39290 0.01300
Zn	Zn	0.86248 0.47430 0.30822 1.23400
Zn	Zn	0.91596 0.51693 0.13793 1.23400
P 	P 	0.86159 0.47319 0.20419 0.49800
P 	P 	0.00476 0.55876 0.13521 0.47300
O 	O 	0.85517 0.32152 0.08417 -0.48700
O 	O 	0.85656 0.38777 0.06999 -0.52900
O 	O 	0.86107 0.47771 0.24992 -0.44000
O 	O 	0.82607 0.49519 0.18447 -0.46900
O 	O 	0.90255 0.48603 0.18623 -0.45700
O 	O 	0.08540 0.43860 0.20613 -0.49800
O 	O 	0.14180 0.42560 0.17250 -0.38700
O 	O 	0.97323 0.52519 0.14134 -0.43700
O 	O 	0.00886 0.58365 0.17394 -0.46600
O 	O 	0.99572 0.58485 0.09788 -0.47200
C 	C 	0.85497 0.35842 0.09407 0.44700
C 	C 	0.85330 0.36866 0.13882 -0.17800
C 	C 	0.85693 0.40834 0.15123 0.09700
H 	H 	0.86040 0.42860 0.13150 -0.01200
C 	C 	0.85560 0.41966 0.19169 -0.14200
C 	C 	0.84860 0.38940 0.22070 0.07100
H 	H 	0.84620 0.39630 0.24830 0.01600
C 	C 	0.84510 0.34910 0.20860 -0.15200
H 	H 	0.84130 0.32880 0.22820 0.08200
C 	C 	0.84730 0.33880 0.16830 0.09400
H 	H 	0.84470 0.31160 0.16050 0.00800
C 	C 	0.10890 0.44420 0.17600 0.37900
C 	C 	0.09820 0.47720 0.14700 -0.14700
C 	C 	0.06308 0.49964 0.15273 0.06500
H 	H 	0.04600 0.49330 0.17460 0.03400
C 	C 	0.05232 0.53179 0.12643 -0.11800
C 	C 	0.07770 0.53960 0.09380 0.05300
H 	H 	0.07130 0.56080 0.07600 0.00800
C 	C 	0.11180 0.51730 0.08700 -0.12500
H 	H 	0.12850 0.52360 0.06480 0.07200
C 	C 	0.12200 0.48510 0.11280 0.06500
H 	H 	0.14480 0.46890 0.10710 0.01300
Zn	Zn	0.63752 0.30822 0.47430 1.23400
Zn	Zn	0.58404 0.13793 0.51693 1.23400
P 	P 	0.63841 0.20419 0.47319 0.49800
P 	P 	0.49524 0.13521 0.55876 0.47300
O 	O 	0.64483 0.08417 0.32152 -0.48700
O 	O 	0.64344 0.06999 0.38777 -0.52900
O 	O 	0.63893 0.24992 0.47771 -0.44000
O 	O 	0.67393 0.18447 0.49519 -0.46900
O 	O 	0.59745 0.18623 0.48603 -0.45700
O 	O 	0.41460 0.20613 0.43860 -0.49800
O 	O 	0.35820 0.17250 0.42560 -0.38700
O 	O 	0.52677 0.14134 0.52519 -0.43700
O 	O 	0.49114 0.17394 0.58365 -0.46600
O 	O 	0.50428 0.09788 0.58485 -0.47200
C 	C 	0.64503 0.09407 0.35842 0.44700
C 	C 	0.64670 0.13882 0.36866 -0.17800
C 	C 	0.64307 0.15123 0.40834 0.09700
H 	H 	0.63960 0.13150 0.42860 -0.01200
C 	C 	0.64440 0.19169 0.41966 -0.14200
C 	C 	0.65140 0.22070 0.38940 0.07100
H 	H 	0.65380 0.24830 0.39630 0.01600
C 	C 	0.65490 0.20860 0.34910 -0.15200
H 	H 	0.65870 0.22820 0.32880 0.08200
C 	C 	0.65270 0.16830 0.33880 0.09400
H 	H 	0.65530 0.16050 0.31160 0.00800
C 	C 	0.39110 0.17600 0.44420 0.37900
C 	C 	0.40180 0.14700 0.47720 -0.14700
C 	C 	0.43692 0.15273 0.49964 0.06500
H 	H 	0.45400 0.17460 0.49330 0.03400
C 	C 	0.44768 0.12643 0.53179 -0.11800
C 	C 	0.42230 0.09380 0.53960 0.05300
H 	H 	0.42870 0.07600 0.56080 0.00800
C 	C 	0.38820 0.08700 0.51730 -0.12500
H 	H 	0.37150 0.06480 0.52360 0.07200
C 	C 	0.37800 0.11280 0.48510 0.06500
H 	H 	0.35520 0.10710 0.46890 0.01300
Zn	Zn	0.86248 0.19178 0.47430 1.23400
Zn	Zn	0.91596 0.36207 0.51693 1.23400
P 	P 	0.86159 0.29581 0.47319 0.49800
P 	P 	0.00476 0.36479 0.55876 0.47300
O 	O 	0.85517 0.41583 0.32152 -0.48700
O 	O 	0.85656 0.43001 0.38777 -0.52900
O 	O 	0.86107 0.25008 0.47771 -0.44000
O 	O 	0.82607 0.31553 0.49519 -0.46900
O 	O 	0.90255 0.31377 0.48603 -0.45700
O 	O 	0.08540 0.29387 0.43860 -0.49800
O 	O 	0.14180 0.32750 0.42560 -0.38700
O 	O 	0.97323 0.35866 0.52519 -0.43700
O 	O 	0.00886 0.32606 0.58365 -0.46600
O 	O 	0.99572 0.40212 0.58485 -0.47200
C 	C 	0.85497 0.40593 0.35842 0.44700
C 	C 	0.85330 0.36118 0.36866 -0.17800
C 	C 	0.85693 0.34877 0.40834 0.09700
H 	H 	0.86040 0.36850 0.42860 -0.01200
C 	C 	0.85560 0.30831 0.41966 -0.14200
C 	C 	0.84860 0.27930 0.38940 0.07100
H 	H 	0.84620 0.25170 0.39630 0.01600
C 	C 	0.84510 0.29140 0.34910 -0.15200
H 	H 	0.84130 0.27180 0.32880 0.08200
C 	C 	0.84730 0.33170 0.33880 0.09400
H 	H 	0.84470 0.33950 0.31160 0.00800
C 	C 	0.10890 0.32400 0.44420 0.37900
C 	C 	0.09820 0.35300 0.47720 -0.14700
C 	C 	0.06308 0.34727 0.49964 0.06500
H 	H 	0.04600 0.32540 0.49330 0.03400
C 	C 	0.05232 0.37357 0.53179 -0.11800
C 	C 	0.07770 0.40620 0.53960 0.05300
H 	H 	0.07130 0.42400 0.56080 0.00800
C 	C 	0.11180 0.41300 0.51730 -0.12500
H 	H 	0.12850 0.43520 0.52360 0.07200
C 	C 	0.12200 0.38720 0.48510 0.06500
H 	H 	0.14480 0.39290 0.46890 0.01300
Zn	Zn	0.63752 0.19178 0.02570 1.23400
Zn	Zn	0.58404 0.36207 0.98307 1.23400
P 	P 	0.63841 0.29581 0.02681 0.49800
P 	P 	0.49524 0.36479 0.94124 0.47300
O 	O 	0.64483 0.41583 0.17848 -0.48700
O 	O 	0.64344 0.43001 0.11223 -0.52900
O 	O 	0.63893 0.25008 0.02229 -0.44000
O 	O 	0.67393 0.31553 0.00481 -0.46900
O 	O 	0.59745 0.31377 0.01397 -0.45700
O 	O 	0.41460 0.29387 0.06140 -0.49800
O 	O 	0.35820 0.32750 0.07440 -0.38700
O 	O 	0.52677 0.35866 0.97481 -0.43700
O 	O 	0.49114 0.32606 0.91635 -0.46600
O 	O 	0.50428 0.40212 0.91515 -0.47200
C 	C 	0.64503 0.40593 0.14158 0.44700
C 	C 	0.64670 0.36118 0.13134 -0.17800
C 	C 	0.64307 0.34877 0.09166 0.09700
H 	H 	0.63960 0.36850 0.07140 -0.01200
C 	C 	0.64440 0.30831 0.08034 -0.14200
C 	C 	0.65140 0.27930 0.11060 0.07100
H 	H 	0.65380 0.25170 0.10370 0.01600
C 	C 	0.65490 0.29140 0.15090 -0.15200
H 	H 	0.65870 0.27180 0.17120 0.08200
C 	C 	0.65270 0.33170 0.16120 0.09400
H 	H 	0.65530 0.33950 0.18840 0.00800
C 	C 	0.39110 0.32400 0.05580 0.37800
C 	C 	0.40180 0.35300 0.02280 -0.14700
C 	C 	0.43692 0.34727 0.00036 0.06500
H 	H 	0.45400 0.32540 0.00670 0.03400
C 	C 	0.44768 0.37357 0.96821 -0.11700
C 	C 	0.42230 0.40620 0.96040 0.05300
H 	H 	0.42870 0.42400 0.93920 0.00800
C 	C 	0.38820 0.41300 0.98270 -0.12500
H 	H 	0.37150 0.43520 0.97640 0.07200
C 	C 	0.37800 0.38720 0.01490 0.06400
H 	H 	0.35520 0.39290 0.03110 0.01300
Zn	Zn	0.86248 0.30822 0.02570 1.23400
Zn	Zn	0.91596 0.13793 0.98307 1.23400
P 	P 	0.86159 0.20419 0.02681 0.49800
P 	P 	0.00476 0.13521 0.94124 0.47300
O 	O 	0.85517 0.08417 0.17848 -0.48700
O 	O 	0.85656 0.06999 0.11223 -0.52900
O 	O 	0.86107 0.24992 0.02229 -0.44000
O 	O 	0.82607 0.18447 0.00481 -0.46900
O 	O 	0.90255 0.18623 0.01397 -0.45700
O 	O 	0.08540 0.20613 0.06140 -0.49800
O 	O 	0.14180 0.17250 0.07440 -0.38700
O 	O 	0.97323 0.14134 0.97481 -0.43700
O 	O 	0.00886 0.17394 0.91635 -0.46600
O 	O 	0.99572 0.09788 0.91515 -0.47200
C 	C 	0.85497 0.09407 0.14158 0.44700
C 	C 	0.85330 0.13882 0.13134 -0.17800
C 	C 	0.85693 0.15123 0.09166 0.09700
H 	H 	0.86040 0.13150 0.07140 -0.01200
C 	C 	0.85560 0.19169 0.08034 -0.14200
C 	C 	0.84860 0.22070 0.11060 0.07100
H 	H 	0.84620 0.24830 0.10370 0.01600
C 	C 	0.84510 0.20860 0.15090 -0.15200
H 	H 	0.84130 0.22820 0.17120 0.08200
C 	C 	0.84730 0.16830 0.16120 0.09400
H 	H 	0.84470 0.16050 0.18840 0.00800
C 	C 	0.10890 0.17600 0.05580 0.37800
C 	C 	0.09820 0.14700 0.02280 -0.14700
C 	C 	0.06308 0.15273 0.00036 0.06400
H 	H 	0.04600 0.17460 0.00670 0.03500
C 	C 	0.05232 0.12643 0.96821 -0.11700
C 	C 	0.07770 0.09380 0.96040 0.05200
H 	H 	0.07130 0.07600 0.93920 0.00900
C 	C 	0.11180 0.08700 0.98270 -0.12500
H 	H 	0.12850 0.06480 0.97640 0.07200
C 	C 	0.12200 0.11280 0.01490 0.06400
H 	H 	0.14480 0.10710 0.03110 0.01300
Zn	Zn	0.30822 0.02570 0.86248 1.23400
Zn	Zn	0.13793 0.98307 0.91596 1.23400
P 	P 	0.20419 0.02681 0.86159 0.49800
P 	P 	0.13521 0.94124 0.00476 0.47300
O 	O 	0.08417 0.17848 0.85517 -0.48700
O 	O 	0.06999 0.11223 0.85656 -0.52900
O 	O 	0.24992 0.02229 0.86107 -0.44000
O 	O 	0.18447 0.00481 0.82607 -0.46900
O 	O 	0.18623 0.01397 0.90255 -0.45700
O 	O 	0.20613 0.06140 0.08540 -0.49800
O 	O 	0.17250 0.07440 0.14180 -0.38700
O 	O 	0.14134 0.97481 0.97323 -0.43700
O 	O 	0.17394 0.91635 0.00886 -0.46600
O 	O 	0.09788 0.91515 0.99572 -0.47200
C 	C 	0.09407 0.14158 0.85497 0.44700
C 	C 	0.13882 0.13134 0.85330 -0.17800
C 	C 	0.15123 0.09166 0.85693 0.09700
H 	H 	0.13150 0.07140 0.86040 -0.01200
C 	C 	0.19169 0.08034 0.85560 -0.14200
C 	C 	0.22070 0.11060 0.84860 0.07100
H 	H 	0.24830 0.10370 0.84620 0.01600
C 	C 	0.20860 0.15090 0.84510 -0.15200
H 	H 	0.22820 0.17120 0.84130 0.08200
C 	C 	0.16830 0.16120 0.84730 0.09400
H 	H 	0.16050 0.18840 0.84470 0.00800
C 	C 	0.17600 0.05580 0.10890 0.37800
C 	C 	0.14700 0.02280 0.09820 -0.14700
C 	C 	0.15273 0.00036 0.06308 0.06400
H 	H 	0.17460 0.00670 0.04600 0.03500
C 	C 	0.12643 0.96821 0.05232 -0.11700
C 	C 	0.09380 0.96040 0.07770 0.05200
H 	H 	0.07600 0.93920 0.07130 0.00900
C 	C 	0.08700 0.98270 0.11180 -0.12500
H 	H 	0.06480 0.97640 0.12850 0.07200
C 	C 	0.11280 0.01490 0.12200 0.06400
H 	H 	0.10710 0.03110 0.14480 0.01300
Zn	Zn	0.19178 0.02570 0.63752 1.23400
Zn	Zn	0.36207 0.98307 0.58404 1.23400
P 	P 	0.29581 0.02681 0.63841 0.49800
P 	P 	0.36479 0.94124 0.49524 0.47300
O 	O 	0.41583 0.17848 0.64483 -0.48700
O 	O 	0.43001 0.11223 0.64344 -0.52900
O 	O 	0.25008 0.02229 0.63893 -0.44000
O 	O 	0.31553 0.00481 0.67393 -0.46900
O 	O 	0.31377 0.01397 0.59745 -0.45700
O 	O 	0.29387 0.06140 0.41460 -0.49800
O 	O 	0.32750 0.07440 0.35820 -0.38700
O 	O 	0.35866 0.97481 0.52677 -0.43700
O 	O 	0.32606 0.91635 0.49114 -0.46600
O 	O 	0.40212 0.91515 0.50428 -0.47200
C 	C 	0.40593 0.14158 0.64503 0.44700
C 	C 	0.36118 0.13134 0.64670 -0.17800
C 	C 	0.34877 0.09166 0.64307 0.09700
H 	H 	0.36850 0.07140 0.63960 -0.01200
C 	C 	0.30831 0.08034 0.64440 -0.14200
C 	C 	0.27930 0.11060 0.65140 0.07100
H 	H 	0.25170 0.10370 0.65380 0.01600
C 	C 	0.29140 0.15090 0.65490 -0.15200
H 	H 	0.27180 0.17120 0.65870 0.08200
C 	C 	0.33170 0.16120 0.65270 0.09400
H 	H 	0.33950 0.18840 0.65530 0.00800
C 	C 	0.32400 0.05580 0.39110 0.37800
C 	C 	0.35300 0.02280 0.40180 -0.14700
C 	C 	0.34727 0.00036 0.43692 0.06500
H 	H 	0.32540 0.00670 0.45400 0.03400
C 	C 	0.37357 0.96821 0.44768 -0.11700
C 	C 	0.40620 0.96040 0.42230 0.05300
H 	H 	0.42400 0.93920 0.42870 0.00800
C 	C 	0.41300 0.98270 0.38820 -0.12500
H 	H 	0.43520 0.97640 0.37150 0.07200
C 	C 	0.38720 0.01490 0.37800 0.06400
H 	H 	0.39290 0.03110 0.35520 0.01300
Zn	Zn	0.19178 0.47430 0.86248 1.23400
Zn	Zn	0.36207 0.51693 0.91596 1.23400
P 	P 	0.29581 0.47319 0.86159 0.49800
P 	P 	0.36479 0.55876 0.00476 0.47300
O 	O 	0.41583 0.32152 0.85517 -0.48700
O 	O 	0.43001 0.38777 0.85656 -0.52900
O 	O 	0.25008 0.47771 0.86107 -0.44000
O 	O 	0.31553 0.49519 0.82607 -0.46900
O 	O 	0.31377 0.48603 0.90255 -0.45700
O 	O 	0.29387 0.43860 0.08540 -0.49800
O 	O 	0.32750 0.42560 0.14180 -0.38700
O 	O 	0.35866 0.52519 0.97323 -0.43700
O 	O 	0.32606 0.58365 0.00886 -0.46600
O 	O 	0.40212 0.58485 0.99572 -0.47200
C 	C 	0.40593 0.35842 0.85497 0.44700
C 	C 	0.36118 0.36866 0.85330 -0.17800
C 	C 	0.34877 0.40834 0.85693 0.09700
H 	H 	0.36850 0.42860 0.86040 -0.01200
C 	C 	0.30831 0.41966 0.85560 -0.14200
C 	C 	0.27930 0.38940 0.84860 0.07100
H 	H 	0.25170 0.39630 0.84620 0.01600
C 	C 	0.29140 0.34910 0.84510 -0.15200
H 	H 	0.27180 0.32880 0.84130 0.08200
C 	C 	0.33170 0.33880 0.84730 0.09400
H 	H 	0.33950 0.31160 0.84470 0.00800
C 	C 	0.32400 0.44420 0.10890 0.37900
C 	C 	0.35300 0.47720 0.09820 -0.14700
C 	C 	0.34727 0.49964 0.06308 0.06500
H 	H 	0.32540 0.49330 0.04600 0.03400
C 	C 	0.37357 0.53179 0.05232 -0.11800
C 	C 	0.40620 0.53960 0.07770 0.05300
H 	H 	0.42400 0.56080 0.07130 0.00800
C 	C 	0.41300 0.51730 0.11180 -0.12500
H 	H 	0.43520 0.52360 0.12850 0.07200
C 	C 	0.38720 0.48510 0.12200 0.06500
H 	H 	0.39290 0.46890 0.14480 0.01300
Zn	Zn	0.30822 0.47430 0.63752 1.23400
Zn	Zn	0.13793 0.51693 0.58404 1.23400
P 	P 	0.20419 0.47319 0.63841 0.49800
P 	P 	0.13521 0.55876 0.49524 0.47300
O 	O 	0.08417 0.32152 0.64483 -0.48700
O 	O 	0.06999 0.38777 0.64344 -0.52900
O 	O 	0.24992 0.47771 0.63893 -0.44000
O 	O 	0.18447 0.49519 0.67393 -0.46900
O 	O 	0.18623 0.48603 0.59745 -0.45700
O 	O 	0.20613 0.43860 0.41460 -0.49800
O 	O 	0.17250 0.42560 0.35820 -0.38700
O 	O 	0.14134 0.52519 0.52677 -0.43700
O 	O 	0.17394 0.58365 0.49114 -0.46600
O 	O 	0.09788 0.58485 0.50428 -0.47200
C 	C 	0.09407 0.35842 0.64503 0.44700
C 	C 	0.13882 0.36866 0.64670 -0.17800
C 	C 	0.15123 0.40834 0.64307 0.09700
H 	H 	0.13150 0.42860 0.63960 -0.01200
C 	C 	0.19169 0.41966 0.64440 -0.14200
C 	C 	0.22070 0.38940 0.65140 0.07100
H 	H 	0.24830 0.39630 0.65380 0.01600
C 	C 	0.20860 0.34910 0.65490 -0.15200
H 	H 	0.22820 0.32880 0.65870 0.08200
C 	C 	0.16830 0.33880 0.65270 0.09400
H 	H 	0.16050 0.31160 0.65530 0.00800
C 	C 	0.17600 0.44420 0.39110 0.37900
C 	C 	0.14700 0.47720 0.40180 -0.14700
C 	C 	0.15273 0.49964 0.43692 0.06500
H 	H 	0.17460 0.49330 0.45400 0.03400
C 	C 	0.12643 0.53179 0.44768 -0.11800
C 	C 	0.09380 0.53960 0.42230 0.05300
H 	H 	0.07600 0.56080 0.42870 0.00800
C 	C 	0.08700 0.51730 0.38820 -0.12500
H 	H 	0.06480 0.52360 0.37150 0.07200
C 	C 	0.11280 0.48510 0.37800 0.06500
H 	H 	0.10710 0.46890 0.35520 0.01300
Zn	Zn	0.02570 0.63752 0.19178 1.23400
Zn	Zn	0.98307 0.58404 0.36207 1.23400
P 	P 	0.02681 0.63841 0.29581 0.49800
P 	P 	0.94124 0.49524 0.36479 0.47300
O 	O 	0.17848 0.64483 0.41583 -0.48700
O 	O 	0.11223 0.64344 0.43001 -0.52900
O 	O 	0.02229 0.63893 0.25008 -0.44000
O 	O 	0.00481 0.67393 0.31553 -0.46900
O 	O 	0.01397 0.59745 0.31377 -0.45700
O 	O 	0.06140 0.41460 0.29387 -0.49800
O 	O 	0.07440 0.35820 0.32750 -0.38700
O 	O 	0.97481 0.52677 0.35866 -0.43700
O 	O 	0.91635 0.49114 0.32606 -0.46600
O 	O 	0.91515 0.50428 0.40212 -0.47200
C 	C 	0.14158 0.64503 0.40593 0.44700
C 	C 	0.13134 0.64670 0.36118 -0.17800
C 	C 	0.09166 0.64307 0.34877 0.09700
H 	H 	0.07140 0.63960 0.36850 -0.01200
C 	C 	0.08034 0.64440 0.30831 -0.14200
C 	C 	0.11060 0.65140 0.27930 0.07100
H 	H 	0.10370 0.65380 0.25170 0.01600
C 	C 	0.15090 0.65490 0.29140 -0.15200
H 	H 	0.17120 0.65870 0.27180 0.08200
C 	C 	0.16120 0.65270 0.33170 0.09400
H 	H 	0.18840 0.65530 0.33950 0.00800
C 	C 	0.05580 0.39110 0.32400 0.37800
C 	C 	0.02280 0.40180 0.35300 -0.14700
C 	C 	0.00036 0.43692 0.34727 0.06500
H 	H 	0.00670 0.45400 0.32540 0.03400
C 	C 	0.96821 0.44768 0.37357 -0.11700
C 	C 	0.96040 0.42230 0.40620 0.05300
H 	H 	0.93920 0.42870 0.42400 0.00800
C 	C 	0.98270 0.38820 0.41300 -0.12500
H 	H 	0.97640 0.37150 0.43520 0.07200
C 	C 	0.01490 0.37800 0.38720 0.06400
H 	H 	0.03110 0.35520 0.39290 0.01300
Zn	Zn	0.02570 0.86248 0.30822 1.23400
Zn	Zn	0.98307 0.91596 0.13793 1.23400
P 	P 	0.02681 0.86159 0.20419 0.49800
P 	P 	0.94124 0.00476 0.13521 0.47300
O 	O 	0.17848 0.85517 0.08417 -0.48700
O 	O 	0.11223 0.85656 0.06999 -0.52900
O 	O 	0.02229 0.86107 0.24992 -0.44000
O 	O 	0.00481 0.82607 0.18447 -0.46900
O 	O 	0.01397 0.90255 0.18623 -0.45700
O 	O 	0.06140 0.08540 0.20613 -0.49800
O 	O 	0.07440 0.14180 0.17250 -0.38700
O 	O 	0.97481 0.97323 0.14134 -0.43700
O 	O 	0.91635 0.00886 0.17394 -0.46600
O 	O 	0.91515 0.99572 0.09788 -0.47200
C 	C 	0.14158 0.85497 0.09407 0.44700
C 	C 	0.13134 0.85330 0.13882 -0.17800
C 	C 	0.09166 0.85693 0.15123 0.09700
H 	H 	0.07140 0.86040 0.13150 -0.01200
C 	C 	0.08034 0.85560 0.19169 -0.14200
C 	C 	0.11060 0.84860 0.22070 0.07100
H 	H 	0.10370 0.84620 0.24830 0.01600
C 	C 	0.15090 0.84510 0.20860 -0.15200
H 	H 	0.17120 0.84130 0.22820 0.08200
C 	C 	0.16120 0.84730 0.16830 0.09400
H 	H 	0.18840 0.84470 0.16050 0.00800
C 	C 	0.05580 0.10890 0.17600 0.37800
C 	C 	0.02280 0.09820 0.14700 -0.14700
C 	C 	0.00036 0.06308 0.15273 0.06400
H 	H 	0.00670 0.04600 0.17460 0.03500
C 	C 	0.96821 0.05232 0.12643 -0.11700
C 	C 	0.96040 0.07770 0.09380 0.05200
H 	H 	0.93920 0.07130 0.07600 0.00900
C 	C 	0.98270 0.11180 0.08700 -0.12500
H 	H 	0.97640 0.12850 0.06480 0.07200
C 	C 	0.01490 0.12200 0.11280 0.06400
H 	H 	0.03110 0.14480 0.10710 0.01300
Zn	Zn	0.47430 0.63752 0.30822 1.23400
Zn	Zn	0.51693 0.58404 0.13793 1.23400
P 	P 	0.47319 0.63841 0.20419 0.49800
P 	P 	0.55876 0.49524 0.13521 0.47300
O 	O 	0.32152 0.64483 0.08417 -0.48700
O 	O 	0.38777 0.64344 0.06999 -0.52900
O 	O 	0.47771 0.63893 0.24992 -0.44000
O 	O 	0.49519 0.67393 0.18447 -0.46900
O 	O 	0.48603 0.59745 0.18623 -0.45700
O 	O 	0.43860 0.41460 0.20613 -0.49800
O 	O 	0.42560 0.35820 0.17250 -0.38700
O 	O 	0.52519 0.52677 0.14134 -0.43700
O 	O 	0.58365 0.49114 0.17394 -0.46600
O 	O 	0.58485 0.50428 0.09788 -0.47200
C 	C 	0.35842 0.64503 0.09407 0.44700
C 	C 	0.36866 0.64670 0.13882 -0.17800
C 	C 	0.40834 0.64307 0.15123 0.09700
H 	H 	0.42860 0.63960 0.13150 -0.01200
C 	C 	0.41966 0.64440 0.19169 -0.14200
C 	C 	0.38940 0.65140 0.22070 0.07100
H 	H 	0.39630 0.65380 0.24830 0.01600
C 	C 	0.34910 0.65490 0.20860 -0.15200
H 	H 	0.32880 0.65870 0.22820 0.08200
C 	C 	0.33880 0.65270 0.16830 0.09400
H 	H 	0.31160 0.65530 0.16050 0.00800
C 	C 	0.44420 0.39110 0.17600 0.37900
C 	C 	0.47720 0.40180 0.14700 -0.14700
C 	C 	0.49964 0.43692 0.15273 0.06500
H 	H 	0.49330 0.45400 0.17460 0.03400
C 	C 	0.53179 0.44768 0.12643 -0.11800
C 	C 	0.53960 0.42230 0.09380 0.05300
H 	H 	0.56080 0.42870 0.07600 0.00800
C 	C 	0.51730 0.38820 0.08700 -0.12500
H 	H 	0.52360 0.37150 0.06480 0.07200
C 	C 	0.48510 0.37800 0.11280 0.06500
H 	H 	0.46890 0.35520 0.10710 0.01300
Zn	Zn	0.47430 0.86248 0.19178 1.23400
Zn	Zn	0.51693 0.91596 0.36207 1.23400
P 	P 	0.47319 0.86159 0.29581 0.49800
P 	P 	0.55876 0.00476 0.36479 0.47300
O 	O 	0.32152 0.85517 0.41583 -0.48700
O 	O 	0.38777 0.85656 0.43001 -0.52900
O 	O 	0.47771 0.86107 0.25008 -0.44000
O 	O 	0.49519 0.82607 0.31553 -0.46900
O 	O 	0.48603 0.90255 0.31377 -0.45700
O 	O 	0.43860 0.08540 0.29387 -0.49800
O 	O 	0.42560 0.14180 0.32750 -0.38700
O 	O 	0.52519 0.97323 0.35866 -0.43700
O 	O 	0.58365 0.00886 0.32606 -0.46600
O 	O 	0.58485 0.99572 0.40212 -0.47200
C 	C 	0.35842 0.85497 0.40593 0.44700
C 	C 	0.36866 0.85330 0.36118 -0.17800
C 	C 	0.40834 0.85693 0.34877 0.09700
H 	H 	0.42860 0.86040 0.36850 -0.01200
C 	C 	0.41966 0.85560 0.30831 -0.14200
C 	C 	0.38940 0.84860 0.27930 0.07100
H 	H 	0.39630 0.84620 0.25170 0.01600
C 	C 	0.34910 0.84510 0.29140 -0.15200
H 	H 	0.32880 0.84130 0.27180 0.08200
C 	C 	0.33880 0.84730 0.33170 0.09400
H 	H 	0.31160 0.84470 0.33950 0.00800
C 	C 	0.44420 0.10890 0.32400 0.37900
C 	C 	0.47720 0.09820 0.35300 -0.14700
C 	C 	0.49964 0.06308 0.34727 0.06500
H 	H 	0.49330 0.04600 0.32540 0.03400
C 	C 	0.53179 0.05232 0.37357 -0.11800
C 	C 	0.53960 0.07770 0.40620 0.05300
H 	H 	0.56080 0.07130 0.42400 0.00800
C 	C 	0.51730 0.11180 0.41300 -0.12500
H 	H 	0.52360 0.12850 0.43520 0.07200
C 	C 	0.48510 0.12200 0.38720 0.06500
H 	H 	0.46890 0.14480 0.39290 0.01300
Zn	Zn	0.69178 0.36248 0.97430 1.23400
Zn	Zn	0.86207 0.41596 0.01693 1.23400
P 	P 	0.79581 0.36159 0.97319 0.49800
P 	P 	0.86479 0.50476 0.05876 0.47300
O 	O 	0.91583 0.35517 0.82152 -0.48700
O 	O 	0.93001 0.35656 0.88777 -0.52900
O 	O 	0.75008 0.36107 0.97771 -0.44000
O 	O 	0.81553 0.32607 0.99519 -0.46900
O 	O 	0.81377 0.40255 0.98603 -0.45700
O 	O 	0.79387 0.58540 0.93860 -0.49800
O 	O 	0.82750 0.64180 0.92560 -0.38700
O 	O 	0.85866 0.47323 0.02519 -0.43700
O 	O 	0.82606 0.50886 0.08365 -0.46600
O 	O 	0.90212 0.49572 0.08485 -0.47200
C 	C 	0.90593 0.35497 0.85842 0.44700
C 	C 	0.86118 0.35330 0.86866 -0.17800
C 	C 	0.84877 0.35693 0.90834 0.09700
H 	H 	0.86850 0.36040 0.92860 -0.01200
C 	C 	0.80831 0.35560 0.91966 -0.14200
C 	C 	0.77930 0.34860 0.88940 0.07100
H 	H 	0.75170 0.34620 0.89630 0.01600
C 	C 	0.79140 0.34510 0.84910 -0.15200
H 	H 	0.77180 0.34130 0.82880 0.08200
C 	C 	0.83170 0.34730 0.83880 0.09400
H 	H 	0.83950 0.34470 0.81160 0.00800
C 	C 	0.82400 0.60890 0.94420 0.37800
C 	C 	0.85300 0.59820 0.97720 -0.14700
C 	C 	0.84727 0.56308 0.99964 0.06500
H 	H 	0.82540 0.54600 0.99330 0.03500
C 	C 	0.87357 0.55232 0.03179 -0.11700
C 	C 	0.90620 0.57770 0.03960 0.05300
H 	H 	0.92400 0.57130 0.06080 0.00800
C 	C 	0.91300 0.61180 0.01730 -0.12500
H 	H 	0.93520 0.62850 0.02360 0.07200
C 	C 	0.88720 0.62200 0.98510 0.06400
H 	H 	0.89290 0.64480 0.96890 0.01300
Zn	Zn	0.80822 0.13752 0.97430 1.23400
Zn	Zn	0.63793 0.08404 0.01693 1.23400
P 	P 	0.70419 0.13841 0.97319 0.49800
P 	P 	0.63521 0.99524 0.05876 0.47300
O 	O 	0.58417 0.14483 0.82152 -0.48700
O 	O 	0.56999 0.14344 0.88777 -0.52900
O 	O 	0.74992 0.13893 0.97771 -0.44000
O 	O 	0.68447 0.17393 0.99519 -0.46900
O 	O 	0.68623 0.09745 0.98603 -0.45700
O 	O 	0.70613 0.91460 0.93860 -0.49800
O 	O 	0.67250 0.85820 0.92560 -0.38700
O 	O 	0.64134 0.02677 0.02519 -0.43700
O 	O 	0.67394 0.99114 0.08365 -0.46600
O 	O 	0.59788 0.00428 0.08485 -0.47200
C 	C 	0.59407 0.14503 0.85842 0.44700
C 	C 	0.63882 0.14670 0.86866 -0.17800
C 	C 	0.65123 0.14307 0.90834 0.09700
H 	H 	0.63150 0.13960 0.92860 -0.01200
C 	C 	0.69169 0.14440 0.91966 -0.14200
C 	C 	0.72070 0.15140 0.88940 0.07100
H 	H 	0.74830 0.15380 0.89630 0.01600
C 	C 	0.70860 0.15490 0.84910 -0.15200
H 	H 	0.72820 0.15870 0.82880 0.08200
C 	C 	0.66830 0.15270 0.83880 0.09400
H 	H 	0.66050 0.15530 0.81160 0.00800
C 	C 	0.67600 0.89110 0.94420 0.37800
C 	C 	0.64700 0.90180 0.97720 -0.14700
C 	C 	0.65273 0.93692 0.99964 0.06400
H 	H 	0.67460 0.95400 0.99330 0.03400
C 	C 	0.62643 0.94768 0.03179 -0.11700
C 	C 	0.59380 0.92230 0.03960 0.05300
H 	H 	0.57600 0.92870 0.06080 0.00800
C 	C 	0.58700 0.88820 0.01730 -0.12500
H 	H 	0.56480 0.87150 0.02360 0.07200
C 	C 	0.61280 0.87800 0.98510 0.06400
H 	H 	0.60710 0.85520 0.96890 0.01300
Zn	Zn	0.80822 0.36248 0.52570 1.23400
Zn	Zn	0.63793 0.41596 0.48307 1.23400
P 	P 	0.70419 0.36159 0.52681 0.49800
P 	P 	0.63521 0.50476 0.44124 0.47300
O 	O 	0.58417 0.35517 0.67848 -0.48700
O 	O 	0.56999 0.35656 0.61223 -0.52900
O 	O 	0.74992 0.36107 0.52229 -0.44000
O 	O 	0.68447 0.32607 0.50481 -0.46900
O 	O 	0.68623 0.40255 0.51397 -0.45700
O 	O 	0.70613 0.58540 0.56140 -0.49800
O 	O 	0.67250 0.64180 0.57440 -0.38700
O 	O 	0.64134 0.47323 0.47481 -0.43700
O 	O 	0.67394 0.50886 0.41635 -0.46600
O 	O 	0.59788 0.49572 0.41515 -0.47200
C 	C 	0.59407 0.35497 0.64158 0.44700
C 	C 	0.63882 0.35330 0.63134 -0.17800
C 	C 	0.65123 0.35693 0.59166 0.09700
H 	H 	0.63150 0.36040 0.57140 -0.01200
C 	C 	0.69169 0.35560 0.58034 -0.14200
C 	C 	0.72070 0.34860 0.61060 0.07100
H 	H 	0.74830 0.34620 0.60370 0.01600
C 	C 	0.70860 0.34510 0.65090 -0.15200
H 	H 	0.72820 0.34130 0.67120 0.08200
C 	C 	0.66830 0.34730 0.66120 0.09400
H 	H 	0.66050 0.34470 0.68840 0.00800
C 	C 	0.67600 0.60890 0.55580 0.37900
C 	C 	0.64700 0.59820 0.52280 -0.14700
C 	C 	0.65273 0.56308 0.50036 0.06500
H 	H 	0.67460 0.54600 0.50670 0.03400
C 	C 	0.62643 0.55232 0.46821 -0.11800
C 	C 	0.59380 0.57770 0.46040 0.05300
H 	H 	0.57600 0.57130 0.43920 0.00800
C 	C 	0.58700 0.61180 0.48270 -0.12500
H 	H 	0.56480 0.62850 0.47640 0.07200
C 	C 	0.61280 0.62200 0.51490 0.06500
H 	H 	0.60710 0.64480 0.53110 0.01300
Zn	Zn	0.69178 0.13752 0.52570 1.23400
Zn	Zn	0.86207 0.08404 0.48307 1.23400
P 	P 	0.79581 0.13841 0.52681 0.49800
P 	P 	0.86479 0.99524 0.44124 0.47300
O 	O 	0.91583 0.14483 0.67848 -0.48700
O 	O 	0.93001 0.14344 0.61223 -0.52900
O 	O 	0.75008 0.13893 0.52229 -0.44000
O 	O 	0.81553 0.17393 0.50481 -0.46900
O 	O 	0.81377 0.09745 0.51397 -0.45700
O 	O 	0.79387 0.91460 0.56140 -0.49800
O 	O 	0.82750 0.85820 0.57440 -0.38700
O 	O 	0.85866 0.02677 0.47481 -0.43700
O 	O 	0.82606 0.99114 0.41635 -0.46600
O 	O 	0.90212 0.00428 0.41515 -0.47200
C 	C 	0.90593 0.14503 0.64158 0.44700
C 	C 	0.86118 0.14670 0.63134 -0.17800
C 	C 	0.84877 0.14307 0.59166 0.09700
H 	H 	0.86850 0.13960 0.57140 -0.01200
C 	C 	0.80831 0.14440 0.58034 -0.14200
C 	C 	0.77930 0.15140 0.61060 0.07100
H 	H 	0.75170 0.15380 0.60370 0.01600
C 	C 	0.79140 0.15490 0.65090 -0.15200
H 	H 	0.77180 0.15870 0.67120 0.08200
C 	C 	0.83170 0.15270 0.66120 0.09400
H 	H 	0.83950 0.15530 0.68840 0.00800
C 	C 	0.82400 0.89110 0.55580 0.37900
C 	C 	0.85300 0.90180 0.52280 -0.14700
C 	C 	0.84727 0.93692 0.50036 0.06500
H 	H 	0.82540 0.95400 0.50670 0.03400
C 	C 	0.87357 0.94768 0.46821 -0.11800
C 	C 	0.90620 0.92230 0.46040 0.05300
H 	H 	0.92400 0.92870 0.43920 0.00800
C 	C 	0.91300 0.88820 0.48270 -0.12500
H 	H 	0.93520 0.87150 0.47640 0.07200
C 	C 	0.88720 0.87800 0.51490 0.06500
H 	H 	0.89290 0.85520 0.53110 0.01300
Zn	Zn	0.97430 0.69178 0.36248 1.23400
Zn	Zn	0.01693 0.86207 0.41596 1.23400
P 	P 	0.97319 0.79581 0.36159 0.49800
P 	P 	0.05876 0.86479 0.50476 0.47300
O 	O 	0.82152 0.91583 0.35517 -0.48700
O 	O 	0.88777 0.93001 0.35656 -0.52900
O 	O 	0.97771 0.75008 0.36107 -0.44000
O 	O 	0.99519 0.81553 0.32607 -0.46900
O 	O 	0.98603 0.81377 0.40255 -0.45700
O 	O 	0.93860 0.79387 0.58540 -0.49800
O 	O 	0.92560 0.82750 0.64180 -0.38700
O 	O 	0.02519 0.85866 0.47323 -0.43700
O 	O 	0.08365 0.82606 0.50886 -0.46600
O 	O 	0.08485 0.90212 0.49572 -0.47200
C 	C 	0.85842 0.90593 0.35497 0.44700
C 	C 	0.86866 0.86118 0.35330 -0.17800
C 	C 	0.90834 0.84877 0.35693 0.09700
H 	H 	0.92860 0.86850 0.36040 -0.01200
C 	C 	0.91966 0.80831 0.35560 -0.14200
C 	C 	0.88940 0.77930 0.34860 0.07100
H 	H 	0.89630 0.75170 0.34620 0.01600
C 	C 	0.84910 0.79140 0.34510 -0.15200
H 	H 	0.82880 0.77180 0.34130 0.08200
C 	C 	0.83880 0.83170 0.34730 0.09400
H 	H 	0.81160 0.83950 0.34470 0.00800
C 	C 	0.94420 0.82400 0.60890 0.37800
C 	C 	0.97720 0.85300 0.59820 -0.14700
C 	C 	0.99964 0.84727 0.56308 0.06500
H 	H 	0.99330 0.82540 0.54600 0.03500
C 	C 	0.03179 0.87357 0.55232 -0.11700
C 	C 	0.03960 0.90620 0.57770 0.05300
H 	H 	0.06080 0.92400 0.57130 0.00800
C 	C 	0.01730 0.91300 0.61180 -0.12500
H 	H 	0.02360 0.93520 0.62850 0.07200
C 	C 	0.98510 0.88720 0.62200 0.06400
H 	H 	0.96890 0.89290 0.64480 0.01300
Zn	Zn	0.97430 0.80822 0.13752 1.23400
Zn	Zn	0.01693 0.63793 0.08404 1.23400
P 	P 	0.97319 0.70419 0.13841 0.49800
P 	P 	0.05876 0.63521 0.99524 0.47300
O 	O 	0.82152 0.58417 0.14483 -0.48700
O 	O 	0.88777 0.56999 0.14344 -0.52900
O 	O 	0.97771 0.74992 0.13893 -0.44000
O 	O 	0.99519 0.68447 0.17393 -0.46900
O 	O 	0.98603 0.68623 0.09745 -0.45700
O 	O 	0.93860 0.70613 0.91460 -0.49800
O 	O 	0.92560 0.67250 0.85820 -0.38700
O 	O 	0.02519 0.64134 0.02677 -0.43700
O 	O 	0.08365 0.67394 0.99114 -0.46600
O 	O 	0.08485 0.59788 0.00428 -0.47200
C 	C 	0.85842 0.59407 0.14503 0.44700
C 	C 	0.86866 0.63882 0.14670 -0.17800
C 	C 	0.90834 0.65123 0.14307 0.09700
H 	H 	0.92860 0.63150 0.13960 -0.01200
C 	C 	0.91966 0.69169 0.14440 -0.14200
C 	C 	0.88940 0.72070 0.15140 0.07100
H 	H 	0.89630 0.74830 0.15380 0.01600
C 	C 	0.84910 0.70860 0.15490 -0.15200
H 	H 	0.82880 0.72820 0.15870 0.08200
C 	C 	0.83880 0.66830 0.15270 0.09400
H 	H 	0.81160 0.66050 0.15530 0.00800
C 	C 	0.94420 0.67600 0.89110 0.37800
C 	C 	0.97720 0.64700 0.90180 -0.14700
C 	C 	0.99964 0.65273 0.93692 0.06400
H 	H 	0.99330 0.67460 0.95400 0.03400
C 	C 	0.03179 0.62643 0.94768 -0.11700
C 	C 	0.03960 0.59380 0.92230 0.05300
H 	H 	0.06080 0.57600 0.92870 0.00800
C 	C 	0.01730 0.58700 0.88820 -0.12500
H 	H 	0.02360 0.56480 0.87150 0.07200
C 	C 	0.98510 0.61280 0.87800 0.06400
H 	H 	0.96890 0.60710 0.85520 0.01300
Zn	Zn	0.52570 0.80822 0.36248 1.23400
Zn	Zn	0.48307 0.63793 0.41596 1.23400
P 	P 	0.52681 0.70419 0.36159 0.49800
P 	P 	0.44124 0.63521 0.50476 0.47300
O 	O 	0.67848 0.58417 0.35517 -0.48700
O 	O 	0.61223 0.56999 0.35656 -0.52900
O 	O 	0.52229 0.74992 0.36107 -0.44000
O 	O 	0.50481 0.68447 0.32607 -0.46900
O 	O 	0.51397 0.68623 0.40255 -0.45700
O 	O 	0.56140 0.70613 0.58540 -0.49800
O 	O 	0.57440 0.67250 0.64180 -0.38700
O 	O 	0.47481 0.64134 0.47323 -0.43700
O 	O 	0.41635 0.67394 0.50886 -0.46600
O 	O 	0.41515 0.59788 0.49572 -0.47200
C 	C 	0.64158 0.59407 0.35497 0.44700
C 	C 	0.63134 0.63882 0.35330 -0.17800
C 	C 	0.59166 0.65123 0.35693 0.09700
H 	H 	0.57140 0.63150 0.36040 -0.01200
C 	C 	0.58034 0.69169 0.35560 -0.14200
C 	C 	0.61060 0.72070 0.34860 0.07100
H 	H 	0.60370 0.74830 0.34620 0.01600
C 	C 	0.65090 0.70860 0.34510 -0.15200
H 	H 	0.67120 0.72820 0.34130 0.08200
C 	C 	0.66120 0.66830 0.34730 0.09400
H 	H 	0.68840 0.66050 0.34470 0.00800
C 	C 	0.55580 0.67600 0.60890 0.37900
C 	C 	0.52280 0.64700 0.59820 -0.14700
C 	C 	0.50036 0.65273 0.56308 0.06500
H 	H 	0.50670 0.67460 0.54600 0.03400
C 	C 	0.46821 0.62643 0.55232 -0.11800
C 	C 	0.46040 0.59380 0.57770 0.05300
H 	H 	0.43920 0.57600 0.57130 0.00800
C 	C 	0.48270 0.58700 0.61180 -0.12500
H 	H 	0.47640 0.56480 0.62850 0.07200
C 	C 	0.51490 0.61280 0.62200 0.06500
H 	H 	0.53110 0.60710 0.64480 0.01300
Zn	Zn	0.52570 0.69178 0.13752 1.23400
Zn	Zn	0.48307 0.86207 0.08404 1.23400
P 	P 	0.52681 0.79581 0.13841 0.49800
P 	P 	0.44124 0.86479 0.99524 0.47300
O 	O 	0.67848 0.91583 0.14483 -0.48700
O 	O 	0.61223 0.93001 0.14344 -0.52900
O 	O 	0.52229 0.75008 0.13893 -0.44000
O 	O 	0.50481 0.81553 0.17393 -0.46900
O 	O 	0.51397 0.81377 0.09745 -0.45700
O 	O 	0.56140 0.79387 0.91460 -0.49800
O 	O 	0.57440 0.82750 0.85820 -0.38700
O 	O 	0.47481 0.85866 0.02677 -0.43700
O 	O 	0.41635 0.82606 0.99114 -0.46600
O 	O 	0.41515 0.90212 0.00428 -0.47200
C 	C 	0.64158 0.90593 0.14503 0.44700
C 	C 	0.63134 0.86118 0.14670 -0.17800
C 	C 	0.59166 0.84877 0.14307 0.09700
H 	H 	0.57140 0.86850 0.13960 -0.01200
C 	C 	0.58034 0.80831 0.14440 -0.14200
C 	C 	0.61060 0.77930 0.15140 0.07100
H 	H 	0.60370 0.75170 0.15380 0.01600
C 	C 	0.65090 0.79140 0.15490 -0.15200
H 	H 	0.67120 0.77180 0.15870 0.08200
C 	C 	0.66120 0.83170 0.15270 0.09400
H 	H 	0.68840 0.83950 0.15530 0.00800
C 	C 	0.55580 0.82400 0.89110 0.37900
C 	C 	0.52280 0.85300 0.90180 -0.14700
C 	C 	0.50036 0.84727 0.93692 0.06500
H 	H 	0.50670 0.82540 0.95400 0.03400
C 	C 	0.46821 0.87357 0.94768 -0.11800
C 	C 	0.46040 0.90620 0.92230 0.05300
H 	H 	0.43920 0.92400 0.92870 0.00800
C 	C 	0.48270 0.91300 0.88820 -0.12500
H 	H 	0.47640 0.93520 0.87150 0.07200
C 	C 	0.51490 0.88720 0.87800 0.06500
H 	H 	0.53110 0.89290 0.85520 0.01300
Zn	Zn	0.36248 0.97430 0.69178 1.23400
Zn	Zn	0.41596 0.01693 0.86207 1.23400
P 	P 	0.36159 0.97319 0.79581 0.49800
P 	P 	0.50476 0.05876 0.86479 0.47300
O 	O 	0.35517 0.82152 0.91583 -0.48700
O 	O 	0.35656 0.88777 0.93001 -0.52900
O 	O 	0.36107 0.97771 0.75008 -0.44000
O 	O 	0.32607 0.99519 0.81553 -0.46900
O 	O 	0.40255 0.98603 0.81377 -0.45700
O 	O 	0.58540 0.93860 0.79387 -0.49800
O 	O 	0.64180 0.92560 0.82750 -0.38700
O 	O 	0.47323 0.02519 0.85866 -0.43700
O 	O 	0.50886 0.08365 0.82606 -0.46600
O 	O 	0.49572 0.08485 0.90212 -0.47200
C 	C 	0.35497 0.85842 0.90593 0.44700
C 	C 	0.35330 0.86866 0.86118 -0.17800
C 	C 	0.35693 0.90834 0.84877 0.09700
H 	H 	0.36040 0.92860 0.86850 -0.01200
C 	C 	0.35560 0.91966 0.80831 -0.14200
C 	C 	0.34860 0.88940 0.77930 0.07100
H 	H 	0.34620 0.89630 0.75170 0.01600
C 	C 	0.34510 0.84910 0.79140 -0.15200
H 	H 	0.34130 0.82880 0.77180 0.08200
C 	C 	0.34730 0.83880 0.83170 0.09400
H 	H 	0.34470 0.81160 0.83950 0.00800
C 	C 	0.60890 0.94420 0.82400 0.37800
C 	C 	0.59820 0.97720 0.85300 -0.14700
C 	C 	0.56308 0.99964 0.84727 0.06500
H 	H 	0.54600 0.99330 0.82540 0.03500
C 	C 	0.55232 0.03179 0.87357 -0.11700
C 	C 	0.57770 0.03960 0.90620 0.05300
H 	H 	0.57130 0.06080 0.92400 0.00800
C 	C 	0.61180 0.01730 0.91300 -0.12500
H 	H 	0.62850 0.02360 0.93520 0.07200
C 	C 	0.62200 0.98510 0.88720 0.06400
H 	H 	0.64480 0.96890 0.89290 0.01300
Zn	Zn	0.13752 0.97430 0.80822 1.23400
Zn	Zn	0.08404 0.01693 0.63793 1.23400
P 	P 	0.13841 0.97319 0.70419 0.49800
P 	P 	0.99524 0.05876 0.63521 0.47300
O 	O 	0.14483 0.82152 0.58417 -0.48700
O 	O 	0.14344 0.88777 0.56999 -0.52900
O 	O 	0.13893 0.97771 0.74992 -0.44000
O 	O 	0.17393 0.99519 0.68447 -0.46900
O 	O 	0.09745 0.98603 0.68623 -0.45700
O 	O 	0.91460 0.93860 0.70613 -0.49800
O 	O 	0.85820 0.92560 0.67250 -0.38700
O 	O 	0.02677 0.02519 0.64134 -0.43700
O 	O 	0.99114 0.08365 0.67394 -0.46600
O 	O 	0.00428 0.08485 0.59788 -0.47200
C 	C 	0.14503 0.85842 0.59407 0.44700
C 	C 	0.14670 0.86866 0.63882 -0.17800
C 	C 	0.14307 0.90834 0.65123 0.09700
H 	H 	0.13960 0.92860 0.63150 -0.01200
C 	C 	0.14440 0.91966 0.69169 -0.14200
C 	C 	0.15140 0.88940 0.72070 0.07100
H 	H 	0.15380 0.89630 0.74830 0.01600
C 	C 	0.15490 0.84910 0.70860 -0.15200
H 	H 	0.15870 0.82880 0.72820 0.08200
C 	C 	0.15270 0.83880 0.66830 0.09400
H 	H 	0.15530 0.81160 0.66050 0.00800
C 	C 	0.89110 0.94420 0.67600 0.37800
C 	C 	0.90180 0.97720 0.64700 -0.14700
C 	C 	0.93692 0.99964 0.65273 0.06400
H 	H 	0.95400 0.99330 0.67460 0.03400
C 	C 	0.94768 0.03179 0.62643 -0.11700
C 	C 	0.92230 0.03960 0.59380 0.05300
H 	H 	0.92870 0.06080 0.57600 0.00800
C 	C 	0.88820 0.01730 0.58700 -0.12500
H 	H 	0.87150 0.02360 0.56480 0.07200
C 	C 	0.87800 0.98510 0.61280 0.06400
H 	H 	0.85520 0.96890 0.60710 0.01300
Zn	Zn	0.36248 0.52570 0.80822 1.23400
Zn	Zn	0.41596 0.48307 0.63793 1.23400
P 	P 	0.36159 0.52681 0.70419 0.49800
P 	P 	0.50476 0.44124 0.63521 0.47300
O 	O 	0.35517 0.67848 0.58417 -0.48700
O 	O 	0.35656 0.61223 0.56999 -0.52900
O 	O 	0.36107 0.52229 0.74992 -0.44000
O 	O 	0.32607 0.50481 0.68447 -0.46900
O 	O 	0.40255 0.51397 0.68623 -0.45700
O 	O 	0.58540 0.56140 0.70613 -0.49800
O 	O 	0.64180 0.57440 0.67250 -0.38700
O 	O 	0.47323 0.47481 0.64134 -0.43700
O 	O 	0.50886 0.41635 0.67394 -0.46600
O 	O 	0.49572 0.41515 0.59788 -0.47200
C 	C 	0.35497 0.64158 0.59407 0.44700
C 	C 	0.35330 0.63134 0.63882 -0.17800
C 	C 	0.35693 0.59166 0.65123 0.09700
H 	H 	0.36040 0.57140 0.63150 -0.01200
C 	C 	0.35560 0.58034 0.69169 -0.14200
C 	C 	0.34860 0.61060 0.72070 0.07100
H 	H 	0.34620 0.60370 0.74830 0.01600
C 	C 	0.34510 0.65090 0.70860 -0.15200
H 	H 	0.34130 0.67120 0.72820 0.08200
C 	C 	0.34730 0.66120 0.66830 0.09400
H 	H 	0.34470 0.68840 0.66050 0.00800
C 	C 	0.60890 0.55580 0.67600 0.37900
C 	C 	0.59820 0.52280 0.64700 -0.14700
C 	C 	0.56308 0.50036 0.65273 0.06500
H 	H 	0.54600 0.50670 0.67460 0.03400
C 	C 	0.55232 0.46821 0.62643 -0.11800
C 	C 	0.57770 0.46040 0.59380 0.05300
H 	H 	0.57130 0.43920 0.57600 0.00800
C 	C 	0.61180 0.48270 0.58700 -0.12500
H 	H 	0.62850 0.47640 0.56480 0.07200
C 	C 	0.62200 0.51490 0.61280 0.06500
H 	H 	0.64480 0.53110 0.60710 0.01300
Zn	Zn	0.13752 0.52570 0.69178 1.23400
Zn	Zn	0.08404 0.48307 0.86207 1.23400
P 	P 	0.13841 0.52681 0.79581 0.49800
P 	P 	0.99524 0.44124 0.86479 0.47300
O 	O 	0.14483 0.67848 0.91583 -0.48700
O 	O 	0.14344 0.61223 0.93001 -0.52900
O 	O 	0.13893 0.52229 0.75008 -0.44000
O 	O 	0.17393 0.50481 0.81553 -0.46900
O 	O 	0.09745 0.51397 0.81377 -0.45700
O 	O 	0.91460 0.56140 0.79387 -0.49800
O 	O 	0.85820 0.57440 0.82750 -0.38700
O 	O 	0.02677 0.47481 0.85866 -0.43700
O 	O 	0.99114 0.41635 0.82606 -0.46600
O 	O 	0.00428 0.41515 0.90212 -0.47200
C 	C 	0.14503 0.64158 0.90593 0.44700
C 	C 	0.14670 0.63134 0.86118 -0.17800
C 	C 	0.14307 0.59166 0.84877 0.09700
H 	H 	0.13960 0.57140 0.86850 -0.01200
C 	C 	0.14440 0.58034 0.80831 -0.14200
C 	C 	0.15140 0.61060 0.77930 0.07100
H 	H 	0.15380 0.60370 0.75170 0.01600
C 	C 	0.15490 0.65090 0.79140 -0.15200
H 	H 	0.15870 0.67120 0.77180 0.08200
C 	C 	0.15270 0.66120 0.83170 0.09400
H 	H 	0.15530 0.68840 0.83950 0.00800
C 	C 	0.89110 0.55580 0.82400 0.37900
C 	C 	0.90180 0.52280 0.85300 -0.14700
C 	C 	0.93692 0.50036 0.84727 0.06500
H 	H 	0.95400 0.50670 0.82540 0.03400
C 	C 	0.94768 0.46821 0.87357 -0.11800
C 	C 	0.92230 0.46040 0.90620 0.05300
H 	H 	0.92870 0.43920 0.92400 0.00800
C 	C 	0.88820 0.48270 0.91300 -0.12500
H 	H 	0.87150 0.47640 0.93520 0.07200
C 	C 	0.87800 0.51490 0.88720 0.06500
H 	H 	0.85520 0.53110 0.89290 0.01300
Zn	Zn	0.36248 0.69178 0.52570 1.23400
Zn	Zn	0.41596 0.86207 0.48307 1.23400
P 	P 	0.36159 0.79581 0.52681 0.49800
P 	P 	0.50476 0.86479 0.44124 0.47300
O 	O 	0.35517 0.91583 0.67848 -0.48700
O 	O 	0.35656 0.93001 0.61223 -0.52900
O 	O 	0.36107 0.75008 0.52229 -0.44000
O 	O 	0.32607 0.81553 0.50481 -0.46900
O 	O 	0.40255 0.81377 0.51397 -0.45700
O 	O 	0.58540 0.79387 0.56140 -0.49800
O 	O 	0.64180 0.82750 0.57440 -0.38700
O 	O 	0.47323 0.85866 0.47481 -0.43700
O 	O 	0.50886 0.82606 0.41635 -0.46600
O 	O 	0.49572 0.90212 0.41515 -0.47200
C 	C 	0.35497 0.90593 0.64158 0.44700
C 	C 	0.35330 0.86118 0.63134 -0.17800
C 	C 	0.35693 0.84877 0.59166 0.09700
H 	H 	0.36040 0.86850 0.57140 -0.01200
C 	C 	0.35560 0.80831 0.58034 -0.14200
C 	C 	0.34860 0.77930 0.61060 0.07100
H 	H 	0.34620 0.75170 0.60370 0.01600
C 	C 	0.34510 0.79140 0.65090 -0.15200
H 	H 	0.34130 0.77180 0.67120 0.08200
C 	C 	0.34730 0.83170 0.66120 0.09400
H 	H 	0.34470 0.83950 0.68840 0.00800
C 	C 	0.60890 0.82400 0.55580 0.37900
C 	C 	0.59820 0.85300 0.52280 -0.14700
C 	C 	0.56308 0.84727 0.50036 0.06500
H 	H 	0.54600 0.82540 0.50670 0.03400
C 	C 	0.55232 0.87357 0.46821 -0.11800
C 	C 	0.57770 0.90620 0.46040 0.05300
H 	H 	0.57130 0.92400 0.43920 0.00800
C 	C 	0.61180 0.91300 0.48270 -0.12500
H 	H 	0.62850 0.93520 0.47640 0.07200
C 	C 	0.62200 0.88720 0.51490 0.06500
H 	H 	0.64480 0.89290 0.53110 0.01300
Zn	Zn	0.13752 0.80822 0.52570 1.23400
Zn	Zn	0.08404 0.63793 0.48307 1.23400
P 	P 	0.13841 0.70419 0.52681 0.49800
P 	P 	0.99524 0.63521 0.44124 0.47300
O 	O 	0.14483 0.58417 0.67848 -0.48700
O 	O 	0.14344 0.56999 0.61223 -0.52900
O 	O 	0.13893 0.74992 0.52229 -0.44000
O 	O 	0.17393 0.68447 0.50481 -0.46900
O 	O 	0.09745 0.68623 0.51397 -0.45700
O 	O 	0.91460 0.70613 0.56140 -0.49800
O 	O 	0.85820 0.67250 0.57440 -0.38700
O 	O 	0.02677 0.64134 0.47481 -0.43700
O 	O 	0.99114 0.67394 0.41635 -0.46600
O 	O 	0.00428 0.59788 0.41515 -0.47200
C 	C 	0.14503 0.59407 0.64158 0.44700
C 	C 	0.14670 0.63882 0.63134 -0.17800
C 	C 	0.14307 0.65123 0.59166 0.09700
H 	H 	0.13960 0.63150 0.57140 -0.01200
C 	C 	0.14440 0.69169 0.58034 -0.14200
C 	C 	0.15140 0.72070 0.61060 0.07100
H 	H 	0.15380 0.74830 0.60370 0.01600
C 	C 	0.15490 0.70860 0.65090 -0.15200
H 	H 	0.15870 0.72820 0.67120 0.08200
C 	C 	0.15270 0.66830 0.66120 0.09400
H 	H 	0.15530 0.66050 0.68840 0.00800
C 	C 	0.89110 0.67600 0.55580 0.37900
C 	C 	0.90180 0.64700 0.52280 -0.14700
C 	C 	0.93692 0.65273 0.50036 0.06500
H 	H 	0.95400 0.67460 0.50670 0.03400
C 	C 	0.94768 0.62643 0.46821 -0.11800
C 	C 	0.92230 0.59380 0.46040 0.05300
H 	H 	0.92870 0.57600 0.43920 0.00800
C 	C 	0.88820 0.58700 0.48270 -0.12500
H 	H 	0.87150 0.56480 0.47640 0.07200
C 	C 	0.87800 0.61280 0.51490 0.06500
H 	H 	0.85520 0.60710 0.53110 0.01300
Zn	Zn	0.36248 0.80822 0.97430 1.23400
Zn	Zn	0.41596 0.63793 0.01693 1.23400
P 	P 	0.36159 0.70419 0.97319 0.49800
P 	P 	0.50476 0.63521 0.05876 0.47300
O 	O 	0.35517 0.58417 0.82152 -0.48700
O 	O 	0.35656 0.56999 0.88777 -0.52900
O 	O 	0.36107 0.74992 0.97771 -0.44000
O 	O 	0.32607 0.68447 0.99519 -0.46900
O 	O 	0.40255 0.68623 0.98603 -0.45700
O 	O 	0.58540 0.70613 0.93860 -0.49800
O 	O 	0.64180 0.67250 0.92560 -0.38700
O 	O 	0.47323 0.64134 0.02519 -0.43700
O 	O 	0.50886 0.67394 0.08365 -0.46600
O 	O 	0.49572 0.59788 0.08485 -0.47200
C 	C 	0.35497 0.59407 0.85842 0.44700
C 	C 	0.35330 0.63882 0.86866 -0.17800
C 	C 	0.35693 0.65123 0.90834 0.09700
H 	H 	0.36040 0.63150 0.92860 -0.01200
C 	C 	0.35560 0.69169 0.91966 -0.14200
C 	C 	0.34860 0.72070 0.88940 0.07100
H 	H 	0.34620 0.74830 0.89630 0.01600
C 	C 	0.34510 0.70860 0.84910 -0.15200
H 	H 	0.34130 0.72820 0.82880 0.08200
C 	C 	0.34730 0.66830 0.83880 0.09400
H 	H 	0.34470 0.66050 0.81160 0.00800
C 	C 	0.60890 0.67600 0.94420 0.37800
C 	C 	0.59820 0.64700 0.97720 -0.14700
C 	C 	0.56308 0.65273 0.99964 0.06500
H 	H 	0.54600 0.67460 0.99330 0.03400
C 	C 	0.55232 0.62643 0.03179 -0.11700
C 	C 	0.57770 0.59380 0.03960 0.05300
H 	H 	0.57130 0.57600 0.06080 0.00800
C 	C 	0.61180 0.58700 0.01730 -0.12500
H 	H 	0.62850 0.56480 0.02360 0.07200
C 	C 	0.62200 0.61280 0.98510 0.06400
H 	H 	0.64480 0.60710 0.96890 0.01300
Zn	Zn	0.13752 0.69178 0.97430 1.23400
Zn	Zn	0.08404 0.86207 0.01693 1.23400
P 	P 	0.13841 0.79581 0.97319 0.49800
P 	P 	0.99524 0.86479 0.05876 0.47300
O 	O 	0.14483 0.91583 0.82152 -0.48700
O 	O 	0.14344 0.93001 0.88777 -0.52900
O 	O 	0.13893 0.75008 0.97771 -0.44000
O 	O 	0.17393 0.81553 0.99519 -0.46900
O 	O 	0.09745 0.81377 0.98603 -0.45700
O 	O 	0.91460 0.79387 0.93860 -0.49800
O 	O 	0.85820 0.82750 0.92560 -0.38700
O 	O 	0.02677 0.85866 0.02519 -0.43700
O 	O 	0.99114 0.82606 0.08365 -0.46600
O 	O 	0.00428 0.90212 0.08485 -0.47200
C 	C 	0.14503 0.90593 0.85842 0.44700
C 	C 	0.14670 0.86118 0.86866 -0.17800
C 	C 	0.14307 0.84877 0.90834 0.09700
H 	H 	0.13960 0.86850 0.92860 -0.01200
C 	C 	0.14440 0.80831 0.91966 -0.14200
C 	C 	0.15140 0.77930 0.88940 0.07100
H 	H 	0.15380 0.75170 0.89630 0.01600
C 	C 	0.15490 0.79140 0.84910 -0.15200
H 	H 	0.15870 0.77180 0.82880 0.08200
C 	C 	0.15270 0.83170 0.83880 0.09400
H 	H 	0.15530 0.83950 0.81160 0.00800
C 	C 	0.89110 0.82400 0.94420 0.37800
C 	C 	0.90180 0.85300 0.97720 -0.14700
C 	C 	0.93692 0.84727 0.99964 0.06400
H 	H 	0.95400 0.82540 0.99330 0.03500
C 	C 	0.94768 0.87357 0.03179 -0.11700
C 	C 	0.92230 0.90620 0.03960 0.05200
H 	H 	0.92870 0.92400 0.06080 0.00900
C 	C 	0.88820 0.91300 0.01730 -0.12500
H 	H 	0.87150 0.93520 0.02360 0.07200
C 	C 	0.87800 0.88720 0.98510 0.06400
H 	H 	0.85520 0.89290 0.96890 0.01300
Zn	Zn	0.69178 0.97430 0.13752 1.23400
Zn	Zn	0.86207 0.01693 0.08404 1.23400
P 	P 	0.79581 0.97319 0.13841 0.49800
P 	P 	0.86479 0.05876 0.99524 0.47300
O 	O 	0.91583 0.82152 0.14483 -0.48700
O 	O 	0.93001 0.88777 0.14344 -0.52900
O 	O 	0.75008 0.97771 0.13893 -0.44000
O 	O 	0.81553 0.99519 0.17393 -0.46900
O 	O 	0.81377 0.98603 0.09745 -0.45700
O 	O 	0.79387 0.93860 0.91460 -0.49800
O 	O 	0.82750 0.92560 0.85820 -0.38700
O 	O 	0.85866 0.02519 0.02677 -0.43700
O 	O 	0.82606 0.08365 0.99114 -0.46600
O 	O 	0.90212 0.08485 0.00428 -0.47200
C 	C 	0.90593 0.85842 0.14503 0.44700
C 	C 	0.86118 0.86866 0.14670 -0.17800
C 	C 	0.84877 0.90834 0.14307 0.09700
H 	H 	0.86850 0.92860 0.13960 -0.01200
C 	C 	0.80831 0.91966 0.14440 -0.14200
C 	C 	0.77930 0.88940 0.15140 0.07100
H 	H 	0.75170 0.89630 0.15380 0.01600
C 	C 	0.79140 0.84910 0.15490 -0.15200
H 	H 	0.77180 0.82880 0.15870 0.08200
C 	C 	0.83170 0.83880 0.15270 0.09400
H 	H 	0.83950 0.81160 0.15530 0.00800
C 	C 	0.82400 0.94420 0.89110 0.37800
C 	C 	0.85300 0.97720 0.90180 -0.14700
C 	C 	0.84727 0.99964 0.93692 0.06400
H 	H 	0.82540 0.99330 0.95400 0.03500
C 	C 	0.87357 0.03179 0.94768 -0.11700
C 	C 	0.90620 0.03960 0.92230 0.05200
H 	H 	0.92400 0.06080 0.92870 0.00900
C 	C 	0.91300 0.01730 0.88820 -0.12500
H 	H 	0.93520 0.02360 0.87150 0.07200
C 	C 	0.88720 0.98510 0.87800 0.06400
H 	H 	0.89290 0.96890 0.85520 0.01300
Zn	Zn	0.80822 0.97430 0.36248 1.23400
Zn	Zn	0.63793 0.01693 0.41596 1.23400
P 	P 	0.70419 0.97319 0.36159 0.49800
P 	P 	0.63521 0.05876 0.50476 0.47300
O 	O 	0.58417 0.82152 0.35517 -0.48700
O 	O 	0.56999 0.88777 0.35656 -0.52900
O 	O 	0.74992 0.97771 0.36107 -0.44000
O 	O 	0.68447 0.99519 0.32607 -0.46900
O 	O 	0.68623 0.98603 0.40255 -0.45700
O 	O 	0.70613 0.93860 0.58540 -0.49800
O 	O 	0.67250 0.92560 0.64180 -0.38700
O 	O 	0.64134 0.02519 0.47323 -0.43700
O 	O 	0.67394 0.08365 0.50886 -0.46600
O 	O 	0.59788 0.08485 0.49572 -0.47200
C 	C 	0.59407 0.85842 0.35497 0.44700
C 	C 	0.63882 0.86866 0.35330 -0.17800
C 	C 	0.65123 0.90834 0.35693 0.09700
H 	H 	0.63150 0.92860 0.36040 -0.01200
C 	C 	0.69169 0.91966 0.35560 -0.14200
C 	C 	0.72070 0.88940 0.34860 0.07100
H 	H 	0.74830 0.89630 0.34620 0.01600
C 	C 	0.70860 0.84910 0.34510 -0.15200
H 	H 	0.72820 0.82880 0.34130 0.08200
C 	C 	0.66830 0.83880 0.34730 0.09400
H 	H 	0.66050 0.81160 0.34470 0.00800
C 	C 	0.67600 0.94420 0.60890 0.37800
C 	C 	0.64700 0.97720 0.59820 -0.14700
C 	C 	0.65273 0.99964 0.56308 0.06500
H 	H 	0.67460 0.99330 0.54600 0.03400
C 	C 	0.62643 0.03179 0.55232 -0.11700
C 	C 	0.59380 0.03960 0.57770 0.05300
H 	H 	0.57600 0.06080 0.57130 0.00800
C 	C 	0.58700 0.01730 0.61180 -0.12500
H 	H 	0.56480 0.02360 0.62850 0.07200
C 	C 	0.61280 0.98510 0.62200 0.06400
H 	H 	0.60710 0.96890 0.64480 0.01300
Zn	Zn	0.80822 0.52570 0.13752 1.23400
Zn	Zn	0.63793 0.48307 0.08404 1.23400
P 	P 	0.70419 0.52681 0.13841 0.49800
P 	P 	0.63521 0.44124 0.99524 0.47300
O 	O 	0.58417 0.67848 0.14483 -0.48700
O 	O 	0.56999 0.61223 0.14344 -0.52900
O 	O 	0.74992 0.52229 0.13893 -0.44000
O 	O 	0.68447 0.50481 0.17393 -0.46900
O 	O 	0.68623 0.51397 0.09745 -0.45700
O 	O 	0.70613 0.56140 0.91460 -0.49800
O 	O 	0.67250 0.57440 0.85820 -0.38700
O 	O 	0.64134 0.47481 0.02677 -0.43700
O 	O 	0.67394 0.41635 0.99114 -0.46600
O 	O 	0.59788 0.41515 0.00428 -0.47200
C 	C 	0.59407 0.64158 0.14503 0.44700
C 	C 	0.63882 0.63134 0.14670 -0.17800
C 	C 	0.65123 0.59166 0.14307 0.09700
H 	H 	0.63150 0.57140 0.13960 -0.01200
C 	C 	0.69169 0.58034 0.14440 -0.14200
C 	C 	0.72070 0.61060 0.15140 0.07100
H 	H 	0.74830 0.60370 0.15380 0.01600
C 	C 	0.70860 0.65090 0.15490 -0.15200
H 	H 	0.72820 0.67120 0.15870 0.08200
C 	C 	0.66830 0.66120 0.15270 0.09400
H 	H 	0.66050 0.68840 0.15530 0.00800
C 	C 	0.67600 0.55580 0.89110 0.37900
C 	C 	0.64700 0.52280 0.90180 -0.14700
C 	C 	0.65273 0.50036 0.93692 0.06500
H 	H 	0.67460 0.50670 0.95400 0.03400
C 	C 	0.62643 0.46821 0.94768 -0.11800
C 	C 	0.59380 0.46040 0.92230 0.05300
H 	H 	0.57600 0.43920 0.92870 0.00800
C 	C 	0.58700 0.48270 0.88820 -0.12500
H 	H 	0.56480 0.47640 0.87150 0.07200
C 	C 	0.61280 0.51490 0.87800 0.06500
H 	H 	0.60710 0.53110 0.85520 0.01300
Zn	Zn	0.69178 0.52570 0.36248 1.23400
Zn	Zn	0.86207 0.48307 0.41596 1.23400
P 	P 	0.79581 0.52681 0.36159 0.49800
P 	P 	0.86479 0.44124 0.50476 0.47300
O 	O 	0.91583 0.67848 0.35517 -0.48700
O 	O 	0.93001 0.61223 0.35656 -0.52900
O 	O 	0.75008 0.52229 0.36107 -0.44000
O 	O 	0.81553 0.50481 0.32607 -0.46900
O 	O 	0.81377 0.51397 0.40255 -0.45700
O 	O 	0.79387 0.56140 0.58540 -0.49800
O 	O 	0.82750 0.57440 0.64180 -0.38700
O 	O 	0.85866 0.47481 0.47323 -0.43700
O 	O 	0.82606 0.41635 0.50886 -0.46600
O 	O 	0.90212 0.41515 0.49572 -0.47200
C 	C 	0.90593 0.64158 0.35497 0.44700
C 	C 	0.86118 0.63134 0.35330 -0.17800
C 	C 	0.84877 0.59166 0.35693 0.09700
H 	H 	0.86850 0.57140 0.36040 -0.01200
C 	C 	0.80831 0.58034 0.35560 -0.14200
C 	C 	0.77930 0.61060 0.34860 0.07100
H 	H 	0.75170 0.60370 0.34620 0.01600
C 	C 	0.79140 0.65090 0.34510 -0.15200
H 	H 	0.77180 0.67120 0.34130 0.08200
C 	C 	0.83170 0.66120 0.34730 0.09400
H 	H 	0.83950 0.68840 0.34470 0.00800
C 	C 	0.82400 0.55580 0.60890 0.37900
C 	C 	0.85300 0.52280 0.59820 -0.14700
C 	C 	0.84727 0.50036 0.56308 0.06500
H 	H 	0.82540 0.50670 0.54600 0.03400
C 	C 	0.87357 0.46821 0.55232 -0.11800
C 	C 	0.90620 0.46040 0.57770 0.05300
H 	H 	0.92400 0.43920 0.57130 0.00800
C 	C 	0.91300 0.48270 0.61180 -0.12500
H 	H 	0.93520 0.47640 0.62850 0.07200
C 	C 	0.88720 0.51490 0.62200 0.06500
H 	H 	0.89290 0.53110 0.64480 0.01300
Zn	Zn	0.97430 0.36248 0.80822 1.23400
Zn	Zn	0.01693 0.41596 0.63793 1.23400
P 	P 	0.97319 0.36159 0.70419 0.49800
P 	P 	0.05876 0.50476 0.63521 0.47300
O 	O 	0.82152 0.35517 0.58417 -0.48700
O 	O 	0.88777 0.35656 0.56999 -0.52900
O 	O 	0.97771 0.36107 0.74992 -0.44000
O 	O 	0.99519 0.32607 0.68447 -0.46900
O 	O 	0.98603 0.40255 0.68623 -0.45700
O 	O 	0.93860 0.58540 0.70613 -0.49800
O 	O 	0.92560 0.64180 0.67250 -0.38700
O 	O 	0.02519 0.47323 0.64134 -0.43700
O 	O 	0.08365 0.50886 0.67394 -0.46600
O 	O 	0.08485 0.49572 0.59788 -0.47200
C 	C 	0.85842 0.35497 0.59407 0.44700
C 	C 	0.86866 0.35330 0.63882 -0.17800
C 	C 	0.90834 0.35693 0.65123 0.09700
H 	H 	0.92860 0.36040 0.63150 -0.01200
C 	C 	0.91966 0.35560 0.69169 -0.14200
C 	C 	0.88940 0.34860 0.72070 0.07100
H 	H 	0.89630 0.34620 0.74830 0.01600
C 	C 	0.84910 0.34510 0.70860 -0.15200
H 	H 	0.82880 0.34130 0.72820 0.08200
C 	C 	0.83880 0.34730 0.66830 0.09400
H 	H 	0.81160 0.34470 0.66050 0.00800
C 	C 	0.94420 0.60890 0.67600 0.37800
C 	C 	0.97720 0.59820 0.64700 -0.14700
C 	C 	0.99964 0.56308 0.65273 0.06500
H 	H 	0.99330 0.54600 0.67460 0.03400
C 	C 	0.03179 0.55232 0.62643 -0.11700
C 	C 	0.03960 0.57770 0.59380 0.05300
H 	H 	0.06080 0.57130 0.57600 0.00800
C 	C 	0.01730 0.61180 0.58700 -0.12500
H 	H 	0.02360 0.62850 0.56480 0.07200
C 	C 	0.98510 0.62200 0.61280 0.06400
H 	H 	0.96890 0.64480 0.60710 0.01300
Zn	Zn	0.97430 0.13752 0.69178 1.23400
Zn	Zn	0.01693 0.08404 0.86207 1.23400
P 	P 	0.97319 0.13841 0.79581 0.49800
P 	P 	0.05876 0.99524 0.86479 0.47300
O 	O 	0.82152 0.14483 0.91583 -0.48700
O 	O 	0.88777 0.14344 0.93001 -0.52900
O 	O 	0.97771 0.13893 0.75008 -0.44000
O 	O 	0.99519 0.17393 0.81553 -0.46900
O 	O 	0.98603 0.09745 0.81377 -0.45700
O 	O 	0.93860 0.91460 0.79387 -0.49800
O 	O 	0.92560 0.85820 0.82750 -0.38700
O 	O 	0.02519 0.02677 0.85866 -0.43700
O 	O 	0.08365 0.99114 0.82606 -0.46600
O 	O 	0.08485 0.00428 0.90212 -0.47200
C 	C 	0.85842 0.14503 0.90593 0.44700
C 	C 	0.86866 0.14670 0.86118 -0.17800
C 	C 	0.90834 0.14307 0.84877 0.09700
H 	H 	0.92860 0.13960 0.86850 -0.01200
C 	C 	0.91966 0.14440 0.80831 -0.14200
C 	C 	0.88940 0.15140 0.77930 0.07100
H 	H 	0.89630 0.15380 0.75170 0.01600
C 	C 	0.84910 0.15490 0.79140 -0.15200
H 	H 	0.82880 0.15870 0.77180 0.08200
C 	C 	0.83880 0.15270 0.83170 0.09400
H 	H 	0.81160 0.15530 0.83950 0.00800
C 	C 	0.94420 0.89110 0.82400 0.37800
C 	C 	0.97720 0.90180 0.85300 -0.14700
C 	C 	0.99964 0.93692 0.84727 0.06400
H 	H 	0.99330 0.95400 0.82540 0.03500
C 	C 	0.03179 0.94768 0.87357 -0.11700
C 	C 	0.03960 0.92230 0.90620 0.05200
H 	H 	0.06080 0.92870 0.92400 0.00900
C 	C 	0.01730 0.88820 0.91300 -0.12500
H 	H 	0.02360 0.87150 0.93520 0.07200
C 	C 	0.98510 0.87800 0.88720 0.06400
H 	H 	0.96890 0.85520 0.89290 0.01300
Zn	Zn	0.52570 0.36248 0.69178 1.23400
Zn	Zn	0.48307 0.41596 0.86207 1.23400
P 	P 	0.52681 0.36159 0.79581 0.49800
P 	P 	0.44124 0.50476 0.86479 0.47300
O 	O 	0.67848 0.35517 0.91583 -0.48700
O 	O 	0.61223 0.35656 0.93001 -0.52900
O 	O 	0.52229 0.36107 0.75008 -0.44000
O 	O 	0.50481 0.32607 0.81553 -0.46900
O 	O 	0.51397 0.40255 0.81377 -0.45700
O 	O 	0.56140 0.58540 0.79387 -0.49800
O 	O 	0.57440 0.64180 0.82750 -0.38700
O 	O 	0.47481 0.47323 0.85866 -0.43700
O 	O 	0.41635 0.50886 0.82606 -0.46600
O 	O 	0.41515 0.49572 0.90212 -0.47200
C 	C 	0.64158 0.35497 0.90593 0.44700
C 	C 	0.63134 0.35330 0.86118 -0.17800
C 	C 	0.59166 0.35693 0.84877 0.09700
H 	H 	0.57140 0.36040 0.86850 -0.01200
C 	C 	0.58034 0.35560 0.80831 -0.14200
C 	C 	0.61060 0.34860 0.77930 0.07100
H 	H 	0.60370 0.34620 0.75170 0.01600
C 	C 	0.65090 0.34510 0.79140 -0.15200
H 	H 	0.67120 0.34130 0.77180 0.08200
C 	C 	0.66120 0.34730 0.83170 0.09400
H 	H 	0.68840 0.34470 0.83950 0.00800
C 	C 	0.55580 0.60890 0.82400 0.37900
C 	C 	0.52280 0.59820 0.85300 -0.14700
C 	C 	0.50036 0.56308 0.84727 0.06500
H 	H 	0.50670 0.54600 0.82540 0.03400
C 	C 	0.46821 0.55232 0.87357 -0.11800
C 	C 	0.46040 0.57770 0.90620 0.05300
H 	H 	0.43920 0.57130 0.92400 0.00800
C 	C 	0.48270 0.61180 0.91300 -0.12500
H 	H 	0.47640 0.62850 0.93520 0.07200
C 	C 	0.51490 0.62200 0.88720 0.06500
H 	H 	0.53110 0.64480 0.89290 0.01300
Zn	Zn	0.52570 0.13752 0.80822 1.23400
Zn	Zn	0.48307 0.08404 0.63793 1.23400
P 	P 	0.52681 0.13841 0.70419 0.49800
P 	P 	0.44124 0.99524 0.63521 0.47300
O 	O 	0.67848 0.14483 0.58417 -0.48700
O 	O 	0.61223 0.14344 0.56999 -0.52900
O 	O 	0.52229 0.13893 0.74992 -0.44000
O 	O 	0.50481 0.17393 0.68447 -0.46900
O 	O 	0.51397 0.09745 0.68623 -0.45700
O 	O 	0.56140 0.91460 0.70613 -0.49800
O 	O 	0.57440 0.85820 0.67250 -0.38700
O 	O 	0.47481 0.02677 0.64134 -0.43700
O 	O 	0.41635 0.99114 0.67394 -0.46600
O 	O 	0.41515 0.00428 0.59788 -0.47200
C 	C 	0.64158 0.14503 0.59407 0.44700
C 	C 	0.63134 0.14670 0.63882 -0.17800
C 	C 	0.59166 0.14307 0.65123 0.09700
H 	H 	0.57140 0.13960 0.63150 -0.01200
C 	C 	0.58034 0.14440 0.69169 -0.14200
C 	C 	0.61060 0.15140 0.72070 0.07100
H 	H 	0.60370 0.15380 0.74830 0.01600
C 	C 	0.65090 0.15490 0.70860 -0.15200
H 	H 	0.67120 0.15870 0.72820 0.08200
C 	C 	0.66120 0.15270 0.66830 0.09400
H 	H 	0.68840 0.15530 0.66050 0.00800
C 	C 	0.55580 0.89110 0.67600 0.37900
C 	C 	0.52280 0.90180 0.64700 -0.14700
C 	C 	0.50036 0.93692 0.65273 0.06500
H 	H 	0.50670 0.95400 0.67460 0.03400
C 	C 	0.46821 0.94768 0.62643 -0.11800
C 	C 	0.46040 0.92230 0.59380 0.05300
H 	H 	0.43920 0.92870 0.57600 0.00800
C 	C 	0.48270 0.88820 0.58700 -0.12500
H 	H 	0.47640 0.87150 0.56480 0.07200
C 	C 	0.51490 0.87800 0.61280 0.06500
H 	H 	0.53110 0.85520 0.60710 0.01300
Zn	Zn	0.25000 0.40039 0.09961 1.15000
Zn	Zn	0.25000 0.09961 0.09961 1.15000
Zn	Zn	0.25000 0.40039 0.40039 1.15000
Zn	Zn	0.25000 0.09961 0.40039 1.15000
Zn	Zn	0.09961 0.25000 0.40039 1.15000
Zn	Zn	0.09961 0.25000 0.09961 1.15000
Zn	Zn	0.40039 0.25000 0.40039 1.15000
Zn	Zn	0.40039 0.25000 0.09961 1.15000
Zn	Zn	0.40039 0.09961 0.25000 1.15000
Zn	Zn	0.09961 0.09961 0.25000 1.15000
Zn	Zn	0.40039 0.40039 0.25000 1.15000
Zn	Zn	0.09961 0.40039 0.25000 1.15000
Zn	Zn	0.75000 0.59961 0.90039 1.15000
Zn	Zn	0.75000 0.90039 0.90039 1.15000
Zn	Zn	0.75000 0.59961 0.59961 1.15000
Zn	Zn	0.75000 0.90039 0.59961 1.15000
Zn	Zn	0.90039 0.75000 0.59961 1.15000
Zn	Zn	0.90039 0.75000 0.90039 1.15000
Zn	Zn	0.59961 0.75000 0.59961 1.15000
Zn	Zn	0.59961 0.75000 0.90039 1.15000
Zn	Zn	0.59961 0.90039 0.75000 1.15000
Zn	Zn	0.90039 0.90039 0.75000 1.15000
Zn	Zn	0.59961 0.59961 0.75000 1.15000
Zn	Zn	0.90039 0.59961 0.75000 1.15000
