data_crystal

_cell_length_a 14.65500
_cell_length_b 25.89600
_cell_length_c 36.31700
_cell_angle_alpha 90.00000
_cell_angle_beta  90.00000
_cell_angle_gamma 90.00000

_symmetry_space_group_name_	'P 1'
_symmetry_space_group_name_H-M	'P 1'

loop_
_symmetry_equiv_pos_as_xyz
  x,y,z

loop_
_atom_site_label
_atom_site_type_symbol
_atom_site_fract_x
_atom_site_fract_y
_atom_site_fract_z
_atom_site_charge
Ag	Ag	0.06701 0.34157 0.90793 0.51500
O 	O 	0.03830 0.37389 0.09204 -0.25900
O 	O 	0.03140 0.40918 0.03583 -0.54100
O 	O 	0.85390 0.23993 0.93548 -0.29500
O 	O 	0.90890 0.31976 0.93143 -0.39100
O 	O 	0.85310 0.21225 0.11133 -0.35100
O 	O 	0.81620 0.16610 0.06134 -0.34300
C 	C 	0.96230 0.32860 0.04341 -0.12100
C 	C 	0.92960 0.29000 0.06706 0.04800
C 	C 	0.88010 0.24910 0.05218 -0.09100
C 	C 	0.86560 0.24610 0.01432 0.03200
C 	C 	0.89930 0.28420 0.99085 -0.10400
C 	C 	0.94710 0.32570 0.00558 0.06100
C 	C 	0.01420 0.37250 0.05974 0.42100
C 	C 	0.88610 0.28050 0.94991 0.32800
C 	C 	0.84620 0.20580 0.07620 0.31500
H 	H 	0.94650 0.29020 0.09120 0.04400
H 	H 	0.83760 0.21800 0.00660 0.04800
H 	H 	0.97090 0.35410 0.98990 0.05000
H 	H 	0.05510 0.43580 0.04120 0.36300
Ag	Ag	0.06701 0.84157 0.40793 0.51600
O 	O 	0.03830 0.87389 0.59204 -0.25800
O 	O 	0.03140 0.90918 0.53583 -0.54000
O 	O 	0.85390 0.73993 0.43548 -0.29400
O 	O 	0.90890 0.81976 0.43143 -0.39000
O 	O 	0.85310 0.71225 0.61133 -0.35000
O 	O 	0.81620 0.66610 0.56134 -0.34200
C 	C 	0.96230 0.82860 0.54341 -0.12000
C 	C 	0.92960 0.79000 0.56706 0.05000
C 	C 	0.88010 0.74910 0.55218 -0.09000
C 	C 	0.86560 0.74610 0.51432 0.03400
C 	C 	0.89930 0.78420 0.49085 -0.10400
C 	C 	0.94710 0.82570 0.50558 0.06100
C 	C 	0.01420 0.87250 0.55974 0.42200
C 	C 	0.88610 0.78050 0.44991 0.32800
C 	C 	0.84620 0.70580 0.57620 0.31600
H 	H 	0.94650 0.79020 0.59120 0.04400
H 	H 	0.83760 0.71800 0.50660 0.04800
H 	H 	0.97090 0.85410 0.48990 0.05000
H 	H 	0.05510 0.93580 0.54120 0.36300
Ag	Ag	0.56701 0.34157 0.40793 0.51600
O 	O 	0.53830 0.37389 0.59204 -0.25800
O 	O 	0.53140 0.40918 0.53583 -0.54000
O 	O 	0.35390 0.23993 0.43548 -0.29400
O 	O 	0.40890 0.31976 0.43143 -0.39000
O 	O 	0.35310 0.21225 0.61133 -0.35000
O 	O 	0.31620 0.16610 0.56134 -0.34200
C 	C 	0.46230 0.32860 0.54341 -0.12000
C 	C 	0.42960 0.29000 0.56706 0.05000
C 	C 	0.38010 0.24910 0.55218 -0.09000
C 	C 	0.36560 0.24610 0.51432 0.03400
C 	C 	0.39930 0.28420 0.49085 -0.10400
C 	C 	0.44710 0.32570 0.50558 0.06100
C 	C 	0.51420 0.37250 0.55974 0.42100
C 	C 	0.38610 0.28050 0.44991 0.32800
C 	C 	0.34620 0.20580 0.57620 0.31600
H 	H 	0.44650 0.29020 0.59120 0.04400
H 	H 	0.33760 0.21800 0.50660 0.04800
H 	H 	0.47090 0.35410 0.48990 0.05000
H 	H 	0.55510 0.43580 0.54120 0.36300
Ag	Ag	0.56701 0.84157 0.90793 0.51600
O 	O 	0.53830 0.87389 0.09204 -0.25800
O 	O 	0.53140 0.90918 0.03583 -0.54000
O 	O 	0.35390 0.73993 0.93548 -0.29400
O 	O 	0.40890 0.81976 0.93143 -0.39000
O 	O 	0.35310 0.71225 0.11133 -0.35000
O 	O 	0.31620 0.66610 0.06134 -0.34200
C 	C 	0.46230 0.82860 0.04341 -0.12000
C 	C 	0.42960 0.79000 0.06706 0.05000
C 	C 	0.38010 0.74910 0.05218 -0.09100
C 	C 	0.36560 0.74610 0.01432 0.03400
C 	C 	0.39930 0.78420 0.99085 -0.10500
C 	C 	0.44710 0.82570 0.00558 0.06200
C 	C 	0.51420 0.87250 0.05974 0.42100
C 	C 	0.38610 0.78050 0.94991 0.32900
C 	C 	0.34620 0.70580 0.07620 0.31600
H 	H 	0.44650 0.79020 0.09120 0.04400
H 	H 	0.33760 0.71800 0.00660 0.04800
H 	H 	0.47090 0.85410 0.98990 0.04900
H 	H 	0.55510 0.93580 0.04120 0.36300
Ag	Ag	0.68299 0.40843 0.90793 0.51600
O 	O 	0.71170 0.37611 0.09204 -0.25800
O 	O 	0.71860 0.34082 0.03583 -0.54000
O 	O 	0.89610 0.51007 0.93548 -0.29400
O 	O 	0.84110 0.43024 0.93143 -0.39000
O 	O 	0.89690 0.53775 0.11133 -0.35000
O 	O 	0.93380 0.58390 0.06134 -0.34200
C 	C 	0.78770 0.42140 0.04341 -0.12000
C 	C 	0.82040 0.46000 0.06706 0.05000
C 	C 	0.86990 0.50090 0.05218 -0.09000
C 	C 	0.88440 0.50390 0.01432 0.03400
C 	C 	0.85070 0.46580 0.99085 -0.10400
C 	C 	0.80290 0.42430 0.00558 0.06100
C 	C 	0.73580 0.37750 0.05974 0.42100
C 	C 	0.86390 0.46950 0.94991 0.32800
C 	C 	0.90380 0.54420 0.07620 0.31500
H 	H 	0.80350 0.45980 0.09120 0.04400
H 	H 	0.91240 0.53200 0.00660 0.04800
H 	H 	0.77910 0.39590 0.98990 0.05000
H 	H 	0.69490 0.31420 0.04120 0.36300
Ag	Ag	0.68299 0.90843 0.40793 0.51600
O 	O 	0.71170 0.87611 0.59204 -0.25800
O 	O 	0.71860 0.84082 0.53583 -0.54000
O 	O 	0.89610 0.01007 0.43548 -0.29400
O 	O 	0.84110 0.93024 0.43143 -0.39000
O 	O 	0.89690 0.03775 0.61133 -0.35000
O 	O 	0.93380 0.08390 0.56134 -0.34200
C 	C 	0.78770 0.92140 0.54341 -0.12000
C 	C 	0.82040 0.96000 0.56706 0.04900
C 	C 	0.86990 0.00090 0.55218 -0.09000
C 	C 	0.88440 0.00390 0.51432 0.03400
C 	C 	0.85070 0.96580 0.49085 -0.10400
C 	C 	0.80290 0.92430 0.50558 0.06100
C 	C 	0.73580 0.87750 0.55974 0.42100
C 	C 	0.86390 0.96950 0.44991 0.32800
C 	C 	0.90380 0.04420 0.57620 0.31500
H 	H 	0.80350 0.95980 0.59120 0.04400
H 	H 	0.91240 0.03200 0.50660 0.04800
H 	H 	0.77910 0.89590 0.48990 0.05000
H 	H 	0.69490 0.81420 0.54120 0.36300
Ag	Ag	0.18299 0.40843 0.40793 0.51600
O 	O 	0.21170 0.37611 0.59204 -0.25800
O 	O 	0.21860 0.34082 0.53583 -0.54000
O 	O 	0.39610 0.51007 0.43548 -0.29400
O 	O 	0.34110 0.43024 0.43143 -0.39000
O 	O 	0.39690 0.53775 0.61133 -0.35000
O 	O 	0.43380 0.58390 0.56134 -0.34200
C 	C 	0.28770 0.42140 0.54341 -0.12000
C 	C 	0.32040 0.46000 0.56706 0.05000
C 	C 	0.36990 0.50090 0.55218 -0.09000
C 	C 	0.38440 0.50390 0.51432 0.03400
C 	C 	0.35070 0.46580 0.49085 -0.10400
C 	C 	0.30290 0.42430 0.50558 0.06100
C 	C 	0.23580 0.37750 0.55974 0.42100
C 	C 	0.36390 0.46950 0.44991 0.32800
C 	C 	0.40380 0.54420 0.57620 0.31600
H 	H 	0.30350 0.45980 0.59120 0.04400
H 	H 	0.41240 0.53200 0.50660 0.04800
H 	H 	0.27910 0.39590 0.48990 0.05000
H 	H 	0.19490 0.31420 0.54120 0.36300
Ag	Ag	0.18299 0.90843 0.90793 0.51600
O 	O 	0.21170 0.87611 0.09204 -0.25800
O 	O 	0.21860 0.84082 0.03583 -0.54000
O 	O 	0.39610 0.01007 0.93548 -0.29400
O 	O 	0.34110 0.93024 0.93143 -0.39000
O 	O 	0.39690 0.03775 0.11133 -0.35000
O 	O 	0.43380 0.08390 0.06134 -0.34200
C 	C 	0.28770 0.92140 0.04341 -0.12000
C 	C 	0.32040 0.96000 0.06706 0.05100
C 	C 	0.36990 0.00090 0.05218 -0.09100
C 	C 	0.38440 0.00390 0.01432 0.03400
C 	C 	0.35070 0.96580 0.99085 -0.10500
C 	C 	0.30290 0.92430 0.00558 0.06200
C 	C 	0.23580 0.87750 0.05974 0.42200
C 	C 	0.36390 0.96950 0.94991 0.32900
C 	C 	0.40380 0.04420 0.07620 0.31600
H 	H 	0.30350 0.95980 0.09120 0.04400
H 	H 	0.41240 0.03200 0.00660 0.04800
H 	H 	0.27910 0.89590 0.98990 0.04900
H 	H 	0.19490 0.81420 0.04120 0.36300
Ag	Ag	0.68299 0.34157 0.84207 0.51600
O 	O 	0.71170 0.37389 0.65796 -0.25800
O 	O 	0.71860 0.40918 0.71417 -0.54000
O 	O 	0.89610 0.23993 0.81452 -0.29400
O 	O 	0.84110 0.31976 0.81857 -0.39000
O 	O 	0.89690 0.21225 0.63867 -0.35000
O 	O 	0.93380 0.16610 0.68866 -0.34200
C 	C 	0.78770 0.32860 0.70659 -0.12000
C 	C 	0.82040 0.29000 0.68294 0.05000
C 	C 	0.86990 0.24910 0.69782 -0.09000
C 	C 	0.88440 0.24610 0.73568 0.03400
C 	C 	0.85070 0.28420 0.75915 -0.10400
C 	C 	0.80290 0.32570 0.74442 0.06100
C 	C 	0.73580 0.37250 0.69026 0.42100
C 	C 	0.86390 0.28050 0.80009 0.32800
C 	C 	0.90380 0.20580 0.67380 0.31600
H 	H 	0.80350 0.29020 0.65880 0.04400
H 	H 	0.91240 0.21800 0.74340 0.04800
H 	H 	0.77910 0.35410 0.76010 0.05000
H 	H 	0.69490 0.43580 0.70880 0.36300
Ag	Ag	0.68299 0.84157 0.34207 0.51600
O 	O 	0.71170 0.87389 0.15796 -0.25800
O 	O 	0.71860 0.90918 0.21417 -0.54000
O 	O 	0.89610 0.73993 0.31452 -0.29400
O 	O 	0.84110 0.81976 0.31857 -0.39000
O 	O 	0.89690 0.71225 0.13867 -0.35000
O 	O 	0.93380 0.66610 0.18866 -0.34200
C 	C 	0.78770 0.82860 0.20659 -0.12000
C 	C 	0.82040 0.79000 0.18294 0.05000
C 	C 	0.86990 0.74910 0.19782 -0.09000
C 	C 	0.88440 0.74610 0.23568 0.03400
C 	C 	0.85070 0.78420 0.25915 -0.10400
C 	C 	0.80290 0.82570 0.24442 0.06100
C 	C 	0.73580 0.87250 0.19026 0.42100
C 	C 	0.86390 0.78050 0.30009 0.32800
C 	C 	0.90380 0.70580 0.17380 0.31600
H 	H 	0.80350 0.79020 0.15880 0.04400
H 	H 	0.91240 0.71800 0.24340 0.04800
H 	H 	0.77910 0.85410 0.26010 0.05000
H 	H 	0.69490 0.93580 0.20880 0.36300
Ag	Ag	0.18299 0.34157 0.34207 0.51600
O 	O 	0.21170 0.37389 0.15796 -0.25800
O 	O 	0.21860 0.40918 0.21417 -0.54000
O 	O 	0.39610 0.23993 0.31452 -0.29400
O 	O 	0.34110 0.31976 0.31857 -0.39000
O 	O 	0.39690 0.21225 0.13867 -0.35000
O 	O 	0.43380 0.16610 0.18866 -0.34200
C 	C 	0.28770 0.32860 0.20659 -0.12000
C 	C 	0.32040 0.29000 0.18294 0.05000
C 	C 	0.36990 0.24910 0.19782 -0.09000
C 	C 	0.38440 0.24610 0.23568 0.03400
C 	C 	0.35070 0.28420 0.25915 -0.10400
C 	C 	0.30290 0.32570 0.24442 0.06100
C 	C 	0.23580 0.37250 0.19026 0.42100
C 	C 	0.36390 0.28050 0.30009 0.32800
C 	C 	0.40380 0.20580 0.17380 0.31600
H 	H 	0.30350 0.29020 0.15880 0.04400
H 	H 	0.41240 0.21800 0.24340 0.04800
H 	H 	0.27910 0.35410 0.26010 0.05000
H 	H 	0.19490 0.43580 0.20880 0.36300
Ag	Ag	0.18299 0.84157 0.84207 0.51600
O 	O 	0.21170 0.87389 0.65796 -0.25800
O 	O 	0.21860 0.90918 0.71417 -0.54000
O 	O 	0.39610 0.73993 0.81452 -0.29400
O 	O 	0.34110 0.81976 0.81857 -0.39000
O 	O 	0.39690 0.71225 0.63867 -0.35000
O 	O 	0.43380 0.66610 0.68866 -0.34200
C 	C 	0.28770 0.82860 0.70659 -0.12000
C 	C 	0.32040 0.79000 0.68294 0.05000
C 	C 	0.36990 0.74910 0.69782 -0.09000
C 	C 	0.38440 0.74610 0.73568 0.03400
C 	C 	0.35070 0.78420 0.75915 -0.10400
C 	C 	0.30290 0.82570 0.74442 0.06100
C 	C 	0.23580 0.87250 0.69026 0.42100
C 	C 	0.36390 0.78050 0.80009 0.32800
C 	C 	0.40380 0.70580 0.67380 0.31600
H 	H 	0.30350 0.79020 0.65880 0.04400
H 	H 	0.41240 0.71800 0.74340 0.04800
H 	H 	0.27910 0.85410 0.76010 0.05000
H 	H 	0.19490 0.93580 0.70880 0.36300
Ag	Ag	0.06701 0.40843 0.84207 0.51600
O 	O 	0.03830 0.37611 0.65796 -0.25800
O 	O 	0.03140 0.34082 0.71417 -0.54000
O 	O 	0.85390 0.51007 0.81452 -0.29400
O 	O 	0.90890 0.43024 0.81857 -0.39000
O 	O 	0.85310 0.53775 0.63867 -0.35000
O 	O 	0.81620 0.58390 0.68866 -0.34200
C 	C 	0.96230 0.42140 0.70659 -0.12000
C 	C 	0.92960 0.46000 0.68294 0.05000
C 	C 	0.88010 0.50090 0.69782 -0.09000
C 	C 	0.86560 0.50390 0.73568 0.03400
C 	C 	0.89930 0.46580 0.75915 -0.10400
C 	C 	0.94710 0.42430 0.74442 0.06100
C 	C 	0.01420 0.37750 0.69026 0.42100
C 	C 	0.88610 0.46950 0.80009 0.32800
C 	C 	0.84620 0.54420 0.67380 0.31600
H 	H 	0.94650 0.45980 0.65880 0.04400
H 	H 	0.83760 0.53200 0.74340 0.04800
H 	H 	0.97090 0.39590 0.76010 0.05000
H 	H 	0.05510 0.31420 0.70880 0.36300
Ag	Ag	0.06701 0.90843 0.34207 0.51600
O 	O 	0.03830 0.87611 0.15796 -0.25800
O 	O 	0.03140 0.84082 0.21417 -0.54000
O 	O 	0.85390 0.01007 0.31452 -0.29400
O 	O 	0.90890 0.93024 0.31857 -0.39000
O 	O 	0.85310 0.03775 0.13867 -0.35000
O 	O 	0.81620 0.08390 0.18866 -0.34200
C 	C 	0.96230 0.92140 0.20659 -0.12000
C 	C 	0.92960 0.96000 0.18294 0.05000
C 	C 	0.88010 0.00090 0.19782 -0.09000
C 	C 	0.86560 0.00390 0.23568 0.03400
C 	C 	0.89930 0.96580 0.25915 -0.10400
C 	C 	0.94710 0.92430 0.24442 0.06200
C 	C 	0.01420 0.87750 0.19026 0.42200
C 	C 	0.88610 0.96950 0.30009 0.32800
C 	C 	0.84620 0.04420 0.17380 0.31600
H 	H 	0.94650 0.95980 0.15880 0.04400
H 	H 	0.83760 0.03200 0.24340 0.04800
H 	H 	0.97090 0.89590 0.26010 0.05000
H 	H 	0.05510 0.81420 0.20880 0.36300
Ag	Ag	0.56701 0.40843 0.34207 0.51600
O 	O 	0.53830 0.37611 0.15796 -0.25800
O 	O 	0.53140 0.34082 0.21417 -0.54000
O 	O 	0.35390 0.51007 0.31452 -0.29400
O 	O 	0.40890 0.43024 0.31857 -0.39000
O 	O 	0.35310 0.53775 0.13867 -0.35000
O 	O 	0.31620 0.58390 0.18866 -0.34200
C 	C 	0.46230 0.42140 0.20659 -0.12000
C 	C 	0.42960 0.46000 0.18294 0.05000
C 	C 	0.38010 0.50090 0.19782 -0.09000
C 	C 	0.36560 0.50390 0.23568 0.03400
C 	C 	0.39930 0.46580 0.25915 -0.10400
C 	C 	0.44710 0.42430 0.24442 0.06100
C 	C 	0.51420 0.37750 0.19026 0.42100
C 	C 	0.38610 0.46950 0.30009 0.32800
C 	C 	0.34620 0.54420 0.17380 0.31600
H 	H 	0.44650 0.45980 0.15880 0.04400
H 	H 	0.33760 0.53200 0.24340 0.04800
H 	H 	0.47090 0.39590 0.26010 0.05000
H 	H 	0.55510 0.31420 0.20880 0.36300
Ag	Ag	0.56701 0.90843 0.84207 0.51600
O 	O 	0.53830 0.87611 0.65796 -0.25800
O 	O 	0.53140 0.84082 0.71417 -0.54000
O 	O 	0.35390 0.01007 0.81452 -0.29400
O 	O 	0.40890 0.93024 0.81857 -0.39000
O 	O 	0.35310 0.03775 0.63867 -0.35000
O 	O 	0.31620 0.08390 0.68866 -0.34200
C 	C 	0.46230 0.92140 0.70659 -0.12000
C 	C 	0.42960 0.96000 0.68294 0.05000
C 	C 	0.38010 0.00090 0.69782 -0.09000
C 	C 	0.36560 0.00390 0.73568 0.03400
C 	C 	0.39930 0.96580 0.75915 -0.10400
C 	C 	0.44710 0.92430 0.74442 0.06100
C 	C 	0.51420 0.87750 0.69026 0.42100
C 	C 	0.38610 0.96950 0.80009 0.32800
C 	C 	0.34620 0.04420 0.67380 0.31600
H 	H 	0.44650 0.95980 0.65880 0.04400
H 	H 	0.33760 0.03200 0.74340 0.04800
H 	H 	0.47090 0.89590 0.76010 0.05000
H 	H 	0.55510 0.81420 0.70880 0.36300
Ag	Ag	0.93299 0.65843 0.09207 0.51600
O 	O 	0.96170 0.62611 0.90796 -0.25800
O 	O 	0.96860 0.59082 0.96417 -0.54000
O 	O 	0.14610 0.76007 0.06452 -0.29400
O 	O 	0.09110 0.68024 0.06857 -0.39000
O 	O 	0.14690 0.78775 0.88867 -0.35000
O 	O 	0.18380 0.83390 0.93866 -0.34200
C 	C 	0.03770 0.67140 0.95659 -0.12000
C 	C 	0.07040 0.71000 0.93294 0.04900
C 	C 	0.11990 0.75090 0.94782 -0.09000
C 	C 	0.13440 0.75390 0.98568 0.03300
C 	C 	0.10070 0.71580 0.00915 -0.10300
C 	C 	0.05290 0.67430 0.99442 0.06100
C 	C 	0.98580 0.62750 0.94026 0.42100
C 	C 	0.11390 0.71950 0.05009 0.32800
C 	C 	0.15380 0.79420 0.92380 0.31500
H 	H 	0.05350 0.70980 0.90880 0.04400
H 	H 	0.16240 0.78200 0.99340 0.04800
H 	H 	0.02910 0.64590 0.01010 0.05000
H 	H 	0.94490 0.56420 0.95880 0.36300
Ag	Ag	0.93299 0.15843 0.59207 0.51600
O 	O 	0.96170 0.12611 0.40796 -0.25800
O 	O 	0.96860 0.09082 0.46417 -0.54000
O 	O 	0.14610 0.26007 0.56452 -0.29400
O 	O 	0.09110 0.18024 0.56857 -0.39000
O 	O 	0.14690 0.28775 0.38867 -0.35000
O 	O 	0.18380 0.33390 0.43866 -0.34200
C 	C 	0.03770 0.17140 0.45659 -0.12000
C 	C 	0.07040 0.21000 0.43294 0.05000
C 	C 	0.11990 0.25090 0.44782 -0.09000
C 	C 	0.13440 0.25390 0.48568 0.03400
C 	C 	0.10070 0.21580 0.50915 -0.10400
C 	C 	0.05290 0.17430 0.49442 0.06100
C 	C 	0.98580 0.12750 0.44026 0.42200
C 	C 	0.11390 0.21950 0.55009 0.32800
C 	C 	0.15380 0.29420 0.42380 0.31600
H 	H 	0.05350 0.20980 0.40880 0.04400
H 	H 	0.16240 0.28200 0.49340 0.04800
H 	H 	0.02910 0.14590 0.51010 0.05000
H 	H 	0.94490 0.06420 0.45880 0.36300
Ag	Ag	0.43299 0.65843 0.59207 0.51600
O 	O 	0.46170 0.62611 0.40796 -0.25800
O 	O 	0.46860 0.59082 0.46417 -0.54000
O 	O 	0.64610 0.76007 0.56452 -0.29400
O 	O 	0.59110 0.68024 0.56857 -0.39000
O 	O 	0.64690 0.78775 0.38867 -0.35000
O 	O 	0.68380 0.83390 0.43866 -0.34200
C 	C 	0.53770 0.67140 0.45659 -0.12000
C 	C 	0.57040 0.71000 0.43294 0.05000
C 	C 	0.61990 0.75090 0.44782 -0.09000
C 	C 	0.63440 0.75390 0.48568 0.03400
C 	C 	0.60070 0.71580 0.50915 -0.10400
C 	C 	0.55290 0.67430 0.49442 0.06100
C 	C 	0.48580 0.62750 0.44026 0.42100
C 	C 	0.61390 0.71950 0.55009 0.32800
C 	C 	0.65380 0.79420 0.42380 0.31600
H 	H 	0.55350 0.70980 0.40880 0.04400
H 	H 	0.66240 0.78200 0.49340 0.04800
H 	H 	0.52910 0.64590 0.51010 0.05000
H 	H 	0.44490 0.56420 0.45880 0.36300
Ag	Ag	0.43299 0.15843 0.09207 0.51600
O 	O 	0.46170 0.12611 0.90796 -0.25800
O 	O 	0.46860 0.09082 0.96417 -0.54000
O 	O 	0.64610 0.26007 0.06452 -0.29400
O 	O 	0.59110 0.18024 0.06857 -0.39000
O 	O 	0.64690 0.28775 0.88867 -0.35000
O 	O 	0.68380 0.33390 0.93866 -0.34200
C 	C 	0.53770 0.17140 0.95659 -0.12000
C 	C 	0.57040 0.21000 0.93294 0.05000
C 	C 	0.61990 0.25090 0.94782 -0.09100
C 	C 	0.63440 0.25390 0.98568 0.03400
C 	C 	0.60070 0.21580 0.00915 -0.10500
C 	C 	0.55290 0.17430 0.99442 0.06200
C 	C 	0.48580 0.12750 0.94026 0.42100
C 	C 	0.61390 0.21950 0.05009 0.32900
C 	C 	0.65380 0.29420 0.92380 0.31600
H 	H 	0.55350 0.20980 0.90880 0.04400
H 	H 	0.66240 0.28200 0.99340 0.04800
H 	H 	0.52910 0.14590 0.01010 0.04900
H 	H 	0.44490 0.06420 0.95880 0.36300
Ag	Ag	0.31701 0.59157 0.09207 0.51600
O 	O 	0.28830 0.62389 0.90796 -0.25800
O 	O 	0.28140 0.65918 0.96417 -0.54000
O 	O 	0.10390 0.48993 0.06452 -0.29400
O 	O 	0.15890 0.56976 0.06857 -0.39000
O 	O 	0.10310 0.46225 0.88867 -0.35000
O 	O 	0.06620 0.41610 0.93866 -0.34200
C 	C 	0.21230 0.57860 0.95659 -0.12000
C 	C 	0.17960 0.54000 0.93294 0.05000
C 	C 	0.13010 0.49910 0.94782 -0.09000
C 	C 	0.11560 0.49610 0.98568 0.03400
C 	C 	0.14930 0.53420 0.00915 -0.10400
C 	C 	0.19710 0.57570 0.99442 0.06100
C 	C 	0.26420 0.62250 0.94026 0.42100
C 	C 	0.13610 0.53050 0.05009 0.32800
C 	C 	0.09620 0.45580 0.92380 0.31500
H 	H 	0.19650 0.54020 0.90880 0.04400
H 	H 	0.08760 0.46800 0.99340 0.04800
H 	H 	0.22090 0.60410 0.01010 0.05000
H 	H 	0.30510 0.68580 0.95880 0.36300
Ag	Ag	0.31701 0.09157 0.59207 0.51600
O 	O 	0.28830 0.12389 0.40796 -0.25800
O 	O 	0.28140 0.15918 0.46417 -0.54000
O 	O 	0.10390 0.98993 0.56452 -0.29400
O 	O 	0.15890 0.06976 0.56857 -0.39000
O 	O 	0.10310 0.96225 0.38867 -0.35000
O 	O 	0.06620 0.91610 0.43866 -0.34200
C 	C 	0.21230 0.07860 0.45659 -0.12000
C 	C 	0.17960 0.04000 0.43294 0.04900
C 	C 	0.13010 0.99910 0.44782 -0.09000
C 	C 	0.11560 0.99610 0.48568 0.03400
C 	C 	0.14930 0.03420 0.50915 -0.10400
C 	C 	0.19710 0.07570 0.49442 0.06100
C 	C 	0.26420 0.12250 0.44026 0.42100
C 	C 	0.13610 0.03050 0.55009 0.32800
C 	C 	0.09620 0.95580 0.42380 0.31500
H 	H 	0.19650 0.04020 0.40880 0.04400
H 	H 	0.08760 0.96800 0.49340 0.04800
H 	H 	0.22090 0.10410 0.51010 0.05000
H 	H 	0.30510 0.18580 0.45880 0.36300
Ag	Ag	0.81701 0.59157 0.59207 0.51600
O 	O 	0.78830 0.62389 0.40796 -0.25800
O 	O 	0.78140 0.65918 0.46417 -0.54000
O 	O 	0.60390 0.48993 0.56452 -0.29400
O 	O 	0.65890 0.56976 0.56857 -0.39000
O 	O 	0.60310 0.46225 0.38867 -0.35000
O 	O 	0.56620 0.41610 0.43866 -0.34200
C 	C 	0.71230 0.57860 0.45659 -0.12000
C 	C 	0.67960 0.54000 0.43294 0.05000
C 	C 	0.63010 0.49910 0.44782 -0.09000
C 	C 	0.61560 0.49610 0.48568 0.03400
C 	C 	0.64930 0.53420 0.50915 -0.10400
C 	C 	0.69710 0.57570 0.49442 0.06100
C 	C 	0.76420 0.62250 0.44026 0.42100
C 	C 	0.63610 0.53050 0.55009 0.32800
C 	C 	0.59620 0.45580 0.42380 0.31600
H 	H 	0.69650 0.54020 0.40880 0.04400
H 	H 	0.58760 0.46800 0.49340 0.04800
H 	H 	0.72090 0.60410 0.51010 0.05000
H 	H 	0.80510 0.68580 0.45880 0.36300
Ag	Ag	0.81701 0.09157 0.09207 0.51600
O 	O 	0.78830 0.12389 0.90796 -0.25800
O 	O 	0.78140 0.15918 0.96417 -0.54000
O 	O 	0.60390 0.98993 0.06452 -0.29400
O 	O 	0.65890 0.06976 0.06857 -0.39000
O 	O 	0.60310 0.96225 0.88867 -0.35000
O 	O 	0.56620 0.91610 0.93866 -0.34200
C 	C 	0.71230 0.07860 0.95659 -0.12000
C 	C 	0.67960 0.04000 0.93294 0.05100
C 	C 	0.63010 0.99910 0.94782 -0.09100
C 	C 	0.61560 0.99610 0.98568 0.03400
C 	C 	0.64930 0.03420 0.00915 -0.10500
C 	C 	0.69710 0.07570 0.99442 0.06200
C 	C 	0.76420 0.12250 0.94026 0.42200
C 	C 	0.63610 0.03050 0.05009 0.32900
C 	C 	0.59620 0.95580 0.92380 0.31600
H 	H 	0.69650 0.04020 0.90880 0.04400
H 	H 	0.58760 0.96800 0.99340 0.04800
H 	H 	0.72090 0.10410 0.01010 0.04900
H 	H 	0.80510 0.18580 0.95880 0.36300
Ag	Ag	0.31701 0.65843 0.15793 0.51600
O 	O 	0.28830 0.62611 0.34204 -0.25800
O 	O 	0.28140 0.59082 0.28583 -0.54000
O 	O 	0.10390 0.76007 0.18548 -0.29400
O 	O 	0.15890 0.68024 0.18143 -0.39000
O 	O 	0.10310 0.78775 0.36133 -0.35000
O 	O 	0.06620 0.83390 0.31134 -0.34200
C 	C 	0.21230 0.67140 0.29341 -0.12000
C 	C 	0.17960 0.71000 0.31706 0.05000
C 	C 	0.13010 0.75090 0.30218 -0.09000
C 	C 	0.11560 0.75390 0.26432 0.03400
C 	C 	0.14930 0.71580 0.24085 -0.10400
C 	C 	0.19710 0.67430 0.25558 0.06100
C 	C 	0.26420 0.62750 0.30974 0.42100
C 	C 	0.13610 0.71950 0.19991 0.32800
C 	C 	0.09620 0.79420 0.32620 0.31600
H 	H 	0.19650 0.70980 0.34120 0.04400
H 	H 	0.08760 0.78200 0.25660 0.04800
H 	H 	0.22090 0.64590 0.23990 0.05000
H 	H 	0.30510 0.56420 0.29120 0.36300
Ag	Ag	0.31701 0.15843 0.65793 0.51600
O 	O 	0.28830 0.12611 0.84204 -0.25800
O 	O 	0.28140 0.09082 0.78583 -0.54000
O 	O 	0.10390 0.26007 0.68548 -0.29400
O 	O 	0.15890 0.18024 0.68143 -0.39000
O 	O 	0.10310 0.28775 0.86133 -0.35000
O 	O 	0.06620 0.33390 0.81134 -0.34200
C 	C 	0.21230 0.17140 0.79341 -0.12000
C 	C 	0.17960 0.21000 0.81706 0.05000
C 	C 	0.13010 0.25090 0.80218 -0.09000
C 	C 	0.11560 0.25390 0.76432 0.03400
C 	C 	0.14930 0.21580 0.74085 -0.10400
C 	C 	0.19710 0.17430 0.75558 0.06100
C 	C 	0.26420 0.12750 0.80974 0.42100
C 	C 	0.13610 0.21950 0.69991 0.32800
C 	C 	0.09620 0.29420 0.82620 0.31600
H 	H 	0.19650 0.20980 0.84120 0.04400
H 	H 	0.08760 0.28200 0.75660 0.04800
H 	H 	0.22090 0.14590 0.73990 0.05000
H 	H 	0.30510 0.06420 0.79120 0.36300
Ag	Ag	0.81701 0.65843 0.65793 0.51600
O 	O 	0.78830 0.62611 0.84204 -0.25800
O 	O 	0.78140 0.59082 0.78583 -0.54000
O 	O 	0.60390 0.76007 0.68548 -0.29400
O 	O 	0.65890 0.68024 0.68143 -0.39000
O 	O 	0.60310 0.78775 0.86133 -0.35000
O 	O 	0.56620 0.83390 0.81134 -0.34200
C 	C 	0.71230 0.67140 0.79341 -0.12000
C 	C 	0.67960 0.71000 0.81706 0.05000
C 	C 	0.63010 0.75090 0.80218 -0.09000
C 	C 	0.61560 0.75390 0.76432 0.03400
C 	C 	0.64930 0.71580 0.74085 -0.10400
C 	C 	0.69710 0.67430 0.75558 0.06100
C 	C 	0.76420 0.62750 0.80974 0.42100
C 	C 	0.63610 0.71950 0.69991 0.32800
C 	C 	0.59620 0.79420 0.82620 0.31600
H 	H 	0.69650 0.70980 0.84120 0.04400
H 	H 	0.58760 0.78200 0.75660 0.04800
H 	H 	0.72090 0.64590 0.73990 0.05000
H 	H 	0.80510 0.56420 0.79120 0.36300
Ag	Ag	0.81701 0.15843 0.15793 0.51600
O 	O 	0.78830 0.12611 0.34204 -0.25800
O 	O 	0.78140 0.09082 0.28583 -0.54000
O 	O 	0.60390 0.26007 0.18548 -0.29400
O 	O 	0.65890 0.18024 0.18143 -0.39000
O 	O 	0.60310 0.28775 0.36133 -0.35000
O 	O 	0.56620 0.33390 0.31134 -0.34200
C 	C 	0.71230 0.17140 0.29341 -0.12000
C 	C 	0.67960 0.21000 0.31706 0.05000
C 	C 	0.63010 0.25090 0.30218 -0.09000
C 	C 	0.61560 0.25390 0.26432 0.03400
C 	C 	0.64930 0.21580 0.24085 -0.10400
C 	C 	0.69710 0.17430 0.25558 0.06100
C 	C 	0.76420 0.12750 0.30974 0.42100
C 	C 	0.63610 0.21950 0.19991 0.32800
C 	C 	0.59620 0.29420 0.32620 0.31600
H 	H 	0.69650 0.20980 0.34120 0.04400
H 	H 	0.58760 0.28200 0.25660 0.04800
H 	H 	0.72090 0.14590 0.23990 0.05000
H 	H 	0.80510 0.06420 0.29120 0.36300
Ag	Ag	0.93299 0.59157 0.15793 0.51600
O 	O 	0.96170 0.62389 0.34204 -0.25800
O 	O 	0.96860 0.65918 0.28583 -0.54000
O 	O 	0.14610 0.48993 0.18548 -0.29400
O 	O 	0.09110 0.56976 0.18143 -0.39000
O 	O 	0.14690 0.46225 0.36133 -0.35000
O 	O 	0.18380 0.41610 0.31134 -0.34200
C 	C 	0.03770 0.57860 0.29341 -0.12000
C 	C 	0.07040 0.54000 0.31706 0.05000
C 	C 	0.11990 0.49910 0.30218 -0.09000
C 	C 	0.13440 0.49610 0.26432 0.03400
C 	C 	0.10070 0.53420 0.24085 -0.10400
C 	C 	0.05290 0.57570 0.25558 0.06100
C 	C 	0.98580 0.62250 0.30974 0.42100
C 	C 	0.11390 0.53050 0.19991 0.32800
C 	C 	0.15380 0.45580 0.32620 0.31600
H 	H 	0.05350 0.54020 0.34120 0.04400
H 	H 	0.16240 0.46800 0.25660 0.04800
H 	H 	0.02910 0.60410 0.23990 0.05000
H 	H 	0.94490 0.68580 0.29120 0.36300
Ag	Ag	0.93299 0.09157 0.65793 0.51600
O 	O 	0.96170 0.12389 0.84204 -0.25800
O 	O 	0.96860 0.15918 0.78583 -0.54000
O 	O 	0.14610 0.98993 0.68548 -0.29400
O 	O 	0.09110 0.06976 0.68143 -0.39000
O 	O 	0.14690 0.96225 0.86133 -0.35000
O 	O 	0.18380 0.91610 0.81134 -0.34200
C 	C 	0.03770 0.07860 0.79341 -0.12000
C 	C 	0.07040 0.04000 0.81706 0.05000
C 	C 	0.11990 0.99910 0.80218 -0.09000
C 	C 	0.13440 0.99610 0.76432 0.03400
C 	C 	0.10070 0.03420 0.74085 -0.10400
C 	C 	0.05290 0.07570 0.75558 0.06200
C 	C 	0.98580 0.12250 0.80974 0.42200
C 	C 	0.11390 0.03050 0.69991 0.32800
C 	C 	0.15380 0.95580 0.82620 0.31600
H 	H 	0.05350 0.04020 0.84120 0.04400
H 	H 	0.16240 0.96800 0.75660 0.04800
H 	H 	0.02910 0.10410 0.73990 0.05000
H 	H 	0.94490 0.18580 0.79120 0.36300
Ag	Ag	0.43299 0.59157 0.65793 0.51600
O 	O 	0.46170 0.62389 0.84204 -0.25800
O 	O 	0.46860 0.65918 0.78583 -0.54000
O 	O 	0.64610 0.48993 0.68548 -0.29400
O 	O 	0.59110 0.56976 0.68143 -0.39000
O 	O 	0.64690 0.46225 0.86133 -0.35000
O 	O 	0.68380 0.41610 0.81134 -0.34200
C 	C 	0.53770 0.57860 0.79341 -0.12000
C 	C 	0.57040 0.54000 0.81706 0.05000
C 	C 	0.61990 0.49910 0.80218 -0.09000
C 	C 	0.63440 0.49610 0.76432 0.03400
C 	C 	0.60070 0.53420 0.74085 -0.10400
C 	C 	0.55290 0.57570 0.75558 0.06100
C 	C 	0.48580 0.62250 0.80974 0.42100
C 	C 	0.61390 0.53050 0.69991 0.32800
C 	C 	0.65380 0.45580 0.82620 0.31600
H 	H 	0.55350 0.54020 0.84120 0.04400
H 	H 	0.66240 0.46800 0.75660 0.04800
H 	H 	0.52910 0.60410 0.73990 0.05000
H 	H 	0.44490 0.68580 0.79120 0.36300
Ag	Ag	0.43299 0.09157 0.15793 0.51600
O 	O 	0.46170 0.12389 0.34204 -0.25800
O 	O 	0.46860 0.15918 0.28583 -0.54000
O 	O 	0.64610 0.98993 0.18548 -0.29400
O 	O 	0.59110 0.06976 0.18143 -0.39000
O 	O 	0.64690 0.96225 0.36133 -0.35000
O 	O 	0.68380 0.91610 0.31134 -0.34200
C 	C 	0.53770 0.07860 0.29341 -0.12000
C 	C 	0.57040 0.04000 0.31706 0.05000
C 	C 	0.61990 0.99910 0.30218 -0.09000
C 	C 	0.63440 0.99610 0.26432 0.03400
C 	C 	0.60070 0.03420 0.24085 -0.10400
C 	C 	0.55290 0.07570 0.25558 0.06100
C 	C 	0.48580 0.12250 0.30974 0.42100
C 	C 	0.61390 0.03050 0.19991 0.32800
C 	C 	0.65380 0.95580 0.32620 0.31600
H 	H 	0.55350 0.04020 0.34120 0.04400
H 	H 	0.66240 0.96800 0.25660 0.04800
H 	H 	0.52910 0.10410 0.23990 0.05000
H 	H 	0.44490 0.18580 0.29120 0.36300
Ag	Ag	0.87500 0.31605 0.87500 0.51500
Ag	Ag	0.87500 0.81605 0.37500 0.51500
Ag	Ag	0.37500 0.31605 0.37500 0.51500
Ag	Ag	0.37500 0.81605 0.87500 0.51500
Ag	Ag	0.87500 0.43395 0.87500 0.51500
Ag	Ag	0.87500 0.93395 0.37500 0.51500
Ag	Ag	0.37500 0.43395 0.37500 0.51500
Ag	Ag	0.37500 0.93395 0.87500 0.51500
Ag	Ag	0.12500 0.68395 0.12500 0.51500
Ag	Ag	0.12500 0.18395 0.62500 0.51500
Ag	Ag	0.62500 0.68395 0.62500 0.51500
Ag	Ag	0.62500 0.18395 0.12500 0.51500
Ag	Ag	0.12500 0.56605 0.12500 0.51500
Ag	Ag	0.12500 0.06605 0.62500 0.51500
Ag	Ag	0.62500 0.56605 0.62500 0.51500
Ag	Ag	0.62500 0.06605 0.12500 0.51500
