data_crystal

_cell_length_a 14.87750
_cell_length_b 25.92610
_cell_length_c 36.37770
_cell_angle_alpha 90.00000
_cell_angle_beta  90.00000
_cell_angle_gamma 90.00000

_symmetry_space_group_name_	'P 1'
_symmetry_space_group_name_H-M	'P 1'

loop_
_symmetry_equiv_pos_as_xyz
  x,y,z

loop_
_atom_site_label
_atom_site_type_symbol
_atom_site_fract_x
_atom_site_fract_y
_atom_site_fract_z
_atom_site_charge
Ag	Ag	0.68234 0.90864 0.40835 0.51800
O 	O 	0.89540 0.01058 0.43560 -0.29300
O 	O 	0.84040 0.93118 0.43114 -0.39000
C 	C 	0.85080 0.96630 0.49083 -0.09300
C 	C 	0.80320 0.92510 0.50537 0.03800
H 	H 	0.78120 0.89950 0.48990 0.05100
C 	C 	0.86370 0.97000 0.44976 0.33000
C 	C 	0.78810 0.92190 0.54324 -0.09000
C 	C 	0.73600 0.87800 0.55925 0.35100
C 	C 	0.82060 0.95990 0.56679 0.03300
H 	H 	0.81030 0.95780 0.59200 0.05100
C 	C 	0.86930 0.00130 0.55184 -0.08300
O 	O 	0.71260 0.87654 0.59164 -0.24000
O 	O 	0.71920 0.84150 0.53595 -0.39200
C 	C 	0.90390 0.04380 0.57645 0.31500
C 	C 	0.88370 0.00400 0.51486 0.03300
H 	H 	0.91600 0.03170 0.50540 0.05900
O 	O 	0.89730 0.03793 0.61129 -0.35000
O 	O 	0.93340 0.08387 0.56156 -0.33900
H 	H 	0.69200 0.81400 0.54800 0.25100
Ag	Ag	0.68234 0.40864 0.90835 0.51800
O 	O 	0.89540 0.51058 0.93560 -0.29300
O 	O 	0.84040 0.43118 0.93114 -0.39000
C 	C 	0.85080 0.46630 0.99083 -0.09200
C 	C 	0.80320 0.42510 0.00537 0.03800
H 	H 	0.78120 0.39950 0.98990 0.05100
C 	C 	0.86370 0.47000 0.94976 0.33000
C 	C 	0.78810 0.42190 0.04324 -0.09000
C 	C 	0.73600 0.37800 0.05925 0.35100
C 	C 	0.82060 0.45990 0.06679 0.03300
H 	H 	0.81030 0.45780 0.09200 0.05100
C 	C 	0.86930 0.50130 0.05184 -0.08300
O 	O 	0.71260 0.37654 0.09164 -0.24000
O 	O 	0.71920 0.34150 0.03595 -0.39200
C 	C 	0.90390 0.54380 0.07645 0.31500
C 	C 	0.88370 0.50400 0.01486 0.03200
H 	H 	0.91600 0.53170 0.00540 0.05900
O 	O 	0.89730 0.53793 0.11129 -0.35000
O 	O 	0.93340 0.58387 0.06156 -0.33900
H 	H 	0.69200 0.31400 0.04800 0.25100
Ag	Ag	0.18234 0.90864 0.90835 0.51800
O 	O 	0.39540 0.01058 0.93560 -0.29300
O 	O 	0.34040 0.93118 0.93114 -0.39000
C 	C 	0.35080 0.96630 0.99083 -0.09300
C 	C 	0.30320 0.92510 0.00537 0.03900
H 	H 	0.28120 0.89950 0.98990 0.05100
C 	C 	0.36370 0.97000 0.94976 0.33000
C 	C 	0.28810 0.92190 0.04324 -0.09100
C 	C 	0.23600 0.87800 0.05925 0.35100
C 	C 	0.32060 0.95990 0.06679 0.03400
H 	H 	0.31030 0.95780 0.09200 0.05100
C 	C 	0.36930 0.00130 0.05184 -0.08400
O 	O 	0.21260 0.87654 0.09164 -0.24100
O 	O 	0.21920 0.84150 0.03595 -0.39300
C 	C 	0.40390 0.04380 0.07645 0.31500
C 	C 	0.38370 0.00400 0.01486 0.03200
H 	H 	0.41600 0.03170 0.00540 0.05800
O 	O 	0.39730 0.03793 0.11129 -0.35200
O 	O 	0.43340 0.08387 0.06156 -0.34000
H 	H 	0.19200 0.81400 0.04800 0.25000
Ag	Ag	0.18234 0.40864 0.40835 0.51700
O 	O 	0.39540 0.51058 0.43560 -0.29400
O 	O 	0.34040 0.43118 0.43114 -0.39100
C 	C 	0.35080 0.46630 0.49083 -0.09400
C 	C 	0.30320 0.42510 0.50537 0.03700
H 	H 	0.28120 0.39950 0.48990 0.05000
C 	C 	0.36370 0.47000 0.44976 0.32900
C 	C 	0.28810 0.42190 0.54324 -0.09100
C 	C 	0.23600 0.37800 0.55925 0.35000
C 	C 	0.32060 0.45990 0.56679 0.03200
H 	H 	0.31030 0.45780 0.59200 0.05000
C 	C 	0.36930 0.50130 0.55184 -0.08400
O 	O 	0.21260 0.37654 0.59164 -0.24100
O 	O 	0.21920 0.34150 0.53595 -0.39300
C 	C 	0.40390 0.54380 0.57645 0.31400
C 	C 	0.38370 0.50400 0.51486 0.03200
H 	H 	0.41600 0.53170 0.50540 0.05800
O 	O 	0.39730 0.53793 0.61129 -0.35100
O 	O 	0.43340 0.58387 0.56156 -0.34000
H 	H 	0.19200 0.31400 0.54800 0.25000
Ag	Ag	0.06766 0.84136 0.40835 0.51700
O 	O 	0.85460 0.73942 0.43560 -0.29400
O 	O 	0.90960 0.81882 0.43114 -0.39100
C 	C 	0.89920 0.78370 0.49083 -0.09400
C 	C 	0.94680 0.82490 0.50537 0.03800
H 	H 	0.96880 0.85050 0.48990 0.05000
C 	C 	0.88630 0.78000 0.44976 0.32900
C 	C 	0.96190 0.82810 0.54324 -0.09200
C 	C 	0.01400 0.87200 0.55925 0.35000
C 	C 	0.92940 0.79010 0.56679 0.03300
H 	H 	0.93970 0.79220 0.59200 0.05000
C 	C 	0.88070 0.74870 0.55184 -0.08400
O 	O 	0.03740 0.87346 0.59164 -0.24100
O 	O 	0.03080 0.90850 0.53595 -0.39300
C 	C 	0.84610 0.70620 0.57645 0.31500
C 	C 	0.86630 0.74600 0.51486 0.03200
H 	H 	0.83400 0.71830 0.50540 0.05800
O 	O 	0.85270 0.71207 0.61129 -0.35200
O 	O 	0.81660 0.66613 0.56156 -0.34000
H 	H 	0.05800 0.93600 0.54800 0.25000
Ag	Ag	0.06766 0.34136 0.90835 0.51700
O 	O 	0.85460 0.23942 0.93560 -0.29400
O 	O 	0.90960 0.31882 0.93114 -0.39100
C 	C 	0.89920 0.28370 0.99083 -0.09300
C 	C 	0.94680 0.32490 0.00537 0.03700
H 	H 	0.96880 0.35050 0.98990 0.05100
C 	C 	0.88630 0.28000 0.94976 0.32900
C 	C 	0.96190 0.32810 0.04324 -0.09100
C 	C 	0.01400 0.37200 0.05925 0.35000
C 	C 	0.92940 0.29010 0.06679 0.03200
H 	H 	0.93970 0.29220 0.09200 0.05100
C 	C 	0.88070 0.24870 0.05184 -0.08400
O 	O 	0.03740 0.37346 0.09164 -0.24100
O 	O 	0.03080 0.40850 0.03595 -0.39300
C 	C 	0.84610 0.20620 0.07645 0.31400
C 	C 	0.86630 0.24600 0.01486 0.03100
H 	H 	0.83400 0.21830 0.00540 0.05800
O 	O 	0.85270 0.21207 0.11129 -0.35100
O 	O 	0.81660 0.16613 0.06156 -0.34000
H 	H 	0.05800 0.43600 0.04800 0.25000
Ag	Ag	0.56766 0.84136 0.90835 0.51700
O 	O 	0.35460 0.73942 0.93560 -0.29400
O 	O 	0.40960 0.81882 0.93114 -0.39100
C 	C 	0.39920 0.78370 0.99083 -0.09400
C 	C 	0.44680 0.82490 0.00537 0.03800
H 	H 	0.46880 0.85050 0.98990 0.05000
C 	C 	0.38630 0.78000 0.94976 0.32900
C 	C 	0.46190 0.82810 0.04324 -0.09200
C 	C 	0.51400 0.87200 0.05925 0.35000
C 	C 	0.42940 0.79010 0.06679 0.03300
H 	H 	0.43970 0.79220 0.09200 0.05000
C 	C 	0.38070 0.74870 0.05184 -0.08400
O 	O 	0.53740 0.87346 0.09164 -0.24100
O 	O 	0.53080 0.90850 0.03595 -0.39300
C 	C 	0.34610 0.70620 0.07645 0.31500
C 	C 	0.36630 0.74600 0.01486 0.03200
H 	H 	0.33400 0.71830 0.00540 0.05800
O 	O 	0.35270 0.71207 0.11129 -0.35200
O 	O 	0.31660 0.66613 0.06156 -0.34000
H 	H 	0.55800 0.93600 0.04800 0.25000
Ag	Ag	0.56766 0.34136 0.40835 0.51700
O 	O 	0.35460 0.23942 0.43560 -0.29400
O 	O 	0.40960 0.31882 0.43114 -0.39100
C 	C 	0.39920 0.28370 0.49083 -0.09400
C 	C 	0.44680 0.32490 0.50537 0.03700
H 	H 	0.46880 0.35050 0.48990 0.05000
C 	C 	0.38630 0.28000 0.44976 0.32900
C 	C 	0.46190 0.32810 0.54324 -0.09100
C 	C 	0.51400 0.37200 0.55925 0.35000
C 	C 	0.42940 0.29010 0.56679 0.03200
H 	H 	0.43970 0.29220 0.59200 0.05000
C 	C 	0.38070 0.24870 0.55184 -0.08400
O 	O 	0.53740 0.37346 0.59164 -0.24100
O 	O 	0.53080 0.40850 0.53595 -0.39300
C 	C 	0.34610 0.20620 0.57645 0.31400
C 	C 	0.36630 0.24600 0.51486 0.03200
H 	H 	0.33400 0.21830 0.50540 0.05800
O 	O 	0.35270 0.21207 0.61129 -0.35100
O 	O 	0.31660 0.16613 0.56156 -0.34000
H 	H 	0.55800 0.43600 0.54800 0.25000
Ag	Ag	0.06766 0.90864 0.34165 0.51700
O 	O 	0.85460 0.01058 0.31440 -0.29400
O 	O 	0.90960 0.93118 0.31886 -0.39100
C 	C 	0.89920 0.96630 0.25917 -0.09400
C 	C 	0.94680 0.92510 0.24463 0.03800
H 	H 	0.96880 0.89950 0.26010 0.05000
C 	C 	0.88630 0.97000 0.30024 0.32900
C 	C 	0.96190 0.92190 0.20676 -0.09200
C 	C 	0.01400 0.87800 0.19075 0.35100
C 	C 	0.92940 0.95990 0.18321 0.03200
H 	H 	0.93970 0.95780 0.15800 0.05000
C 	C 	0.88070 0.00130 0.19816 -0.08400
O 	O 	0.03740 0.87654 0.15836 -0.24100
O 	O 	0.03080 0.84150 0.21405 -0.39300
C 	C 	0.84610 0.04380 0.17355 0.31400
C 	C 	0.86630 0.00400 0.23514 0.03200
H 	H 	0.83400 0.03170 0.24460 0.05800
O 	O 	0.85270 0.03793 0.13871 -0.35200
O 	O 	0.81660 0.08387 0.18844 -0.34000
H 	H 	0.05800 0.81400 0.20200 0.25000
Ag	Ag	0.06766 0.40864 0.84165 0.51700
O 	O 	0.85460 0.51058 0.81440 -0.29400
O 	O 	0.90960 0.43118 0.81886 -0.39100
C 	C 	0.89920 0.46630 0.75917 -0.09400
C 	C 	0.94680 0.42510 0.74463 0.03700
H 	H 	0.96880 0.39950 0.76010 0.05000
C 	C 	0.88630 0.47000 0.80024 0.32900
C 	C 	0.96190 0.42190 0.70676 -0.09100
C 	C 	0.01400 0.37800 0.69075 0.35000
C 	C 	0.92940 0.45990 0.68321 0.03200
H 	H 	0.93970 0.45780 0.65800 0.05000
C 	C 	0.88070 0.50130 0.69816 -0.08400
O 	O 	0.03740 0.37654 0.65836 -0.24100
O 	O 	0.03080 0.34150 0.71405 -0.39300
C 	C 	0.84610 0.54380 0.67355 0.31400
C 	C 	0.86630 0.50400 0.73514 0.03200
H 	H 	0.83400 0.53170 0.74460 0.05800
O 	O 	0.85270 0.53793 0.63871 -0.35100
O 	O 	0.81660 0.58387 0.68844 -0.34000
H 	H 	0.05800 0.31400 0.70200 0.25000
Ag	Ag	0.56766 0.90864 0.84165 0.51700
O 	O 	0.35460 0.01058 0.81440 -0.29400
O 	O 	0.40960 0.93118 0.81886 -0.39100
C 	C 	0.39920 0.96630 0.75917 -0.09400
C 	C 	0.44680 0.92510 0.74463 0.03700
H 	H 	0.46880 0.89950 0.76010 0.05000
C 	C 	0.38630 0.97000 0.80024 0.32900
C 	C 	0.46190 0.92190 0.70676 -0.09200
C 	C 	0.51400 0.87800 0.69075 0.35000
C 	C 	0.42940 0.95990 0.68321 0.03200
H 	H 	0.43970 0.95780 0.65800 0.05000
C 	C 	0.38070 0.00130 0.69816 -0.08400
O 	O 	0.53740 0.87654 0.65836 -0.24100
O 	O 	0.53080 0.84150 0.71405 -0.39300
C 	C 	0.34610 0.04380 0.67355 0.31400
C 	C 	0.36630 0.00400 0.73514 0.03200
H 	H 	0.33400 0.03170 0.74460 0.05800
O 	O 	0.35270 0.03793 0.63871 -0.35200
O 	O 	0.31660 0.08387 0.68844 -0.34000
H 	H 	0.55800 0.81400 0.70200 0.25000
Ag	Ag	0.56766 0.40864 0.34165 0.51700
O 	O 	0.35460 0.51058 0.31440 -0.29400
O 	O 	0.40960 0.43118 0.31886 -0.39100
C 	C 	0.39920 0.46630 0.25917 -0.09400
C 	C 	0.44680 0.42510 0.24463 0.03700
H 	H 	0.46880 0.39950 0.26010 0.05000
C 	C 	0.38630 0.47000 0.30024 0.32900
C 	C 	0.46190 0.42190 0.20676 -0.09100
C 	C 	0.51400 0.37800 0.19075 0.35000
C 	C 	0.42940 0.45990 0.18321 0.03200
H 	H 	0.43970 0.45780 0.15800 0.05000
C 	C 	0.38070 0.50130 0.19816 -0.08400
O 	O 	0.53740 0.37654 0.15836 -0.24100
O 	O 	0.53080 0.34150 0.21405 -0.39300
C 	C 	0.34610 0.54380 0.17355 0.31400
C 	C 	0.36630 0.50400 0.23514 0.03200
H 	H 	0.33400 0.53170 0.24460 0.05800
O 	O 	0.35270 0.53793 0.13871 -0.35100
O 	O 	0.31660 0.58387 0.18844 -0.34000
H 	H 	0.55800 0.31400 0.20200 0.25000
Ag	Ag	0.68234 0.84136 0.34165 0.51700
O 	O 	0.89540 0.73942 0.31440 -0.29400
O 	O 	0.84040 0.81882 0.31886 -0.39100
C 	C 	0.85080 0.78370 0.25917 -0.09400
C 	C 	0.80320 0.82490 0.24463 0.03700
H 	H 	0.78120 0.85050 0.26010 0.05000
C 	C 	0.86370 0.78000 0.30024 0.32900
C 	C 	0.78810 0.82810 0.20676 -0.09200
C 	C 	0.73600 0.87200 0.19075 0.35000
C 	C 	0.82060 0.79010 0.18321 0.03200
H 	H 	0.81030 0.79220 0.15800 0.05000
C 	C 	0.86930 0.74870 0.19816 -0.08400
O 	O 	0.71260 0.87346 0.15836 -0.24100
O 	O 	0.71920 0.90850 0.21405 -0.39300
C 	C 	0.90390 0.70620 0.17355 0.31400
C 	C 	0.88370 0.74600 0.23514 0.03200
H 	H 	0.91600 0.71830 0.24460 0.05800
O 	O 	0.89730 0.71207 0.13871 -0.35200
O 	O 	0.93340 0.66613 0.18844 -0.34000
H 	H 	0.69200 0.93600 0.20200 0.25000
Ag	Ag	0.68234 0.34136 0.84165 0.51700
O 	O 	0.89540 0.23942 0.81440 -0.29400
O 	O 	0.84040 0.31882 0.81886 -0.39100
C 	C 	0.85080 0.28370 0.75917 -0.09400
C 	C 	0.80320 0.32490 0.74463 0.03700
H 	H 	0.78120 0.35050 0.76010 0.05000
C 	C 	0.86370 0.28000 0.80024 0.32900
C 	C 	0.78810 0.32810 0.70676 -0.09100
C 	C 	0.73600 0.37200 0.69075 0.35000
C 	C 	0.82060 0.29010 0.68321 0.03200
H 	H 	0.81030 0.29220 0.65800 0.05000
C 	C 	0.86930 0.24870 0.69816 -0.08400
O 	O 	0.71260 0.37346 0.65836 -0.24100
O 	O 	0.71920 0.40850 0.71405 -0.39300
C 	C 	0.90390 0.20620 0.67355 0.31400
C 	C 	0.88370 0.24600 0.73514 0.03200
H 	H 	0.91600 0.21830 0.74460 0.05800
O 	O 	0.89730 0.21207 0.63871 -0.35100
O 	O 	0.93340 0.16613 0.68844 -0.34000
H 	H 	0.69200 0.43600 0.70200 0.25000
Ag	Ag	0.18234 0.84136 0.84165 0.51700
O 	O 	0.39540 0.73942 0.81440 -0.29400
O 	O 	0.34040 0.81882 0.81886 -0.39100
C 	C 	0.35080 0.78370 0.75917 -0.09400
C 	C 	0.30320 0.82490 0.74463 0.03700
H 	H 	0.28120 0.85050 0.76010 0.05000
C 	C 	0.36370 0.78000 0.80024 0.32900
C 	C 	0.28810 0.82810 0.70676 -0.09100
C 	C 	0.23600 0.87200 0.69075 0.35000
C 	C 	0.32060 0.79010 0.68321 0.03200
H 	H 	0.31030 0.79220 0.65800 0.05000
C 	C 	0.36930 0.74870 0.69816 -0.08400
O 	O 	0.21260 0.87346 0.65836 -0.24100
O 	O 	0.21920 0.90850 0.71405 -0.39300
C 	C 	0.40390 0.70620 0.67355 0.31400
C 	C 	0.38370 0.74600 0.73514 0.03200
H 	H 	0.41600 0.71830 0.74460 0.05800
O 	O 	0.39730 0.71207 0.63871 -0.35100
O 	O 	0.43340 0.66613 0.68844 -0.34000
H 	H 	0.19200 0.93600 0.70200 0.25000
Ag	Ag	0.18234 0.34136 0.34165 0.51700
O 	O 	0.39540 0.23942 0.31440 -0.29400
O 	O 	0.34040 0.31882 0.31886 -0.39100
C 	C 	0.35080 0.28370 0.25917 -0.09400
C 	C 	0.30320 0.32490 0.24463 0.03700
H 	H 	0.28120 0.35050 0.26010 0.05000
C 	C 	0.36370 0.28000 0.30024 0.32900
C 	C 	0.28810 0.32810 0.20676 -0.09200
C 	C 	0.23600 0.37200 0.19075 0.35000
C 	C 	0.32060 0.29010 0.18321 0.03200
H 	H 	0.31030 0.29220 0.15800 0.05000
C 	C 	0.36930 0.24870 0.19816 -0.08400
O 	O 	0.21260 0.37346 0.15836 -0.24100
O 	O 	0.21920 0.40850 0.21405 -0.39300
C 	C 	0.40390 0.20620 0.17355 0.31400
C 	C 	0.38370 0.24600 0.23514 0.03200
H 	H 	0.41600 0.21830 0.24460 0.05800
O 	O 	0.39730 0.21207 0.13871 -0.35200
O 	O 	0.43340 0.16613 0.18844 -0.34000
H 	H 	0.19200 0.43600 0.20200 0.25000
Ag	Ag	0.31766 0.09136 0.59165 0.51700
O 	O 	0.10460 0.98942 0.56440 -0.29400
O 	O 	0.15960 0.06882 0.56886 -0.39100
C 	C 	0.14920 0.03370 0.50917 -0.09400
C 	C 	0.19680 0.07490 0.49463 0.03700
H 	H 	0.21880 0.10050 0.51010 0.05000
C 	C 	0.13630 0.03000 0.55024 0.32900
C 	C 	0.21190 0.07810 0.45676 -0.09100
C 	C 	0.26400 0.12200 0.44075 0.35000
C 	C 	0.17940 0.04010 0.43321 0.03200
H 	H 	0.18970 0.04220 0.40800 0.05000
C 	C 	0.13070 0.99870 0.44816 -0.08400
O 	O 	0.28740 0.12346 0.40836 -0.24100
O 	O 	0.28080 0.15850 0.46405 -0.39300
C 	C 	0.09610 0.95620 0.42355 0.31400
C 	C 	0.11630 0.99600 0.48514 0.03200
H 	H 	0.08400 0.96830 0.49460 0.05800
O 	O 	0.10270 0.96207 0.38871 -0.35100
O 	O 	0.06660 0.91613 0.43844 -0.34000
H 	H 	0.30800 0.18600 0.45200 0.25000
Ag	Ag	0.31766 0.59136 0.09165 0.51700
O 	O 	0.10460 0.48942 0.06440 -0.29400
O 	O 	0.15960 0.56882 0.06886 -0.39100
C 	C 	0.14920 0.53370 0.00917 -0.09300
C 	C 	0.19680 0.57490 0.99463 0.03700
H 	H 	0.21880 0.60050 0.01010 0.05000
C 	C 	0.13630 0.53000 0.05024 0.32900
C 	C 	0.21190 0.57810 0.95676 -0.09100
C 	C 	0.26400 0.62200 0.94075 0.35000
C 	C 	0.17940 0.54010 0.93321 0.03200
H 	H 	0.18970 0.54220 0.90800 0.05000
C 	C 	0.13070 0.49870 0.94816 -0.08400
O 	O 	0.28740 0.62346 0.90836 -0.24100
O 	O 	0.28080 0.65850 0.96405 -0.39300
C 	C 	0.09610 0.45620 0.92355 0.31400
C 	C 	0.11630 0.49600 0.98514 0.03100
H 	H 	0.08400 0.46830 0.99460 0.05800
O 	O 	0.10270 0.46207 0.88871 -0.35100
O 	O 	0.06660 0.41613 0.93844 -0.34000
H 	H 	0.30800 0.68600 0.95200 0.25000
Ag	Ag	0.81766 0.09136 0.09165 0.51700
O 	O 	0.60460 0.98942 0.06440 -0.29400
O 	O 	0.65960 0.06882 0.06886 -0.39100
C 	C 	0.64920 0.03370 0.00917 -0.09400
C 	C 	0.69680 0.07490 0.99463 0.03800
H 	H 	0.71880 0.10050 0.01010 0.05000
C 	C 	0.63630 0.03000 0.05024 0.32900
C 	C 	0.71190 0.07810 0.95676 -0.09200
C 	C 	0.76400 0.12200 0.94075 0.35000
C 	C 	0.67940 0.04010 0.93321 0.03300
H 	H 	0.68970 0.04220 0.90800 0.05000
C 	C 	0.63070 0.99870 0.94816 -0.08500
O 	O 	0.78740 0.12346 0.90836 -0.24100
O 	O 	0.78080 0.15850 0.96405 -0.39300
C 	C 	0.59610 0.95620 0.92355 0.31500
C 	C 	0.61630 0.99600 0.98514 0.03200
H 	H 	0.58400 0.96830 0.99460 0.05800
O 	O 	0.60270 0.96207 0.88871 -0.35200
O 	O 	0.56660 0.91613 0.93844 -0.34000
H 	H 	0.80800 0.18600 0.95200 0.25000
Ag	Ag	0.81766 0.59136 0.59165 0.51700
O 	O 	0.60460 0.48942 0.56440 -0.29400
O 	O 	0.65960 0.56882 0.56886 -0.39100
C 	C 	0.64920 0.53370 0.50917 -0.09400
C 	C 	0.69680 0.57490 0.49463 0.03700
H 	H 	0.71880 0.60050 0.51010 0.05000
C 	C 	0.63630 0.53000 0.55024 0.32900
C 	C 	0.71190 0.57810 0.45676 -0.09100
C 	C 	0.76400 0.62200 0.44075 0.35000
C 	C 	0.67940 0.54010 0.43321 0.03200
H 	H 	0.68970 0.54220 0.40800 0.05000
C 	C 	0.63070 0.49870 0.44816 -0.08400
O 	O 	0.78740 0.62346 0.40836 -0.24100
O 	O 	0.78080 0.65850 0.46405 -0.39300
C 	C 	0.59610 0.45620 0.42355 0.31400
C 	C 	0.61630 0.49600 0.48514 0.03200
H 	H 	0.58400 0.46830 0.49460 0.05800
O 	O 	0.60270 0.46207 0.38871 -0.35100
O 	O 	0.56660 0.41613 0.43844 -0.34000
H 	H 	0.80800 0.68600 0.45200 0.25000
Ag	Ag	0.93234 0.15864 0.59165 0.51700
O 	O 	0.14540 0.26058 0.56440 -0.29400
O 	O 	0.09040 0.18118 0.56886 -0.39100
C 	C 	0.10080 0.21630 0.50917 -0.09400
C 	C 	0.05320 0.17510 0.49463 0.03800
H 	H 	0.03120 0.14950 0.51010 0.05000
C 	C 	0.11370 0.22000 0.55024 0.32900
C 	C 	0.03810 0.17190 0.45676 -0.09200
C 	C 	0.98600 0.12800 0.44075 0.35000
C 	C 	0.07060 0.20990 0.43321 0.03300
H 	H 	0.06030 0.20780 0.40800 0.05000
C 	C 	0.11930 0.25130 0.44816 -0.08400
O 	O 	0.96260 0.12654 0.40836 -0.24100
O 	O 	0.96920 0.09150 0.46405 -0.39300
C 	C 	0.15390 0.29380 0.42355 0.31500
C 	C 	0.13370 0.25400 0.48514 0.03200
H 	H 	0.16600 0.28170 0.49460 0.05800
O 	O 	0.14730 0.28793 0.38871 -0.35200
O 	O 	0.18340 0.33387 0.43844 -0.34000
H 	H 	0.94200 0.06400 0.45200 0.25000
Ag	Ag	0.93234 0.65864 0.09165 0.51700
O 	O 	0.14540 0.76058 0.06440 -0.29400
O 	O 	0.09040 0.68118 0.06886 -0.39100
C 	C 	0.10080 0.71630 0.00917 -0.09300
C 	C 	0.05320 0.67510 0.99463 0.03700
H 	H 	0.03120 0.64950 0.01010 0.05100
C 	C 	0.11370 0.72000 0.05024 0.32900
C 	C 	0.03810 0.67190 0.95676 -0.09100
C 	C 	0.98600 0.62800 0.94075 0.35000
C 	C 	0.07060 0.70990 0.93321 0.03200
H 	H 	0.06030 0.70780 0.90800 0.05100
C 	C 	0.11930 0.75130 0.94816 -0.08400
O 	O 	0.96260 0.62654 0.90836 -0.24100
O 	O 	0.96920 0.59150 0.96405 -0.39300
C 	C 	0.15390 0.79380 0.92355 0.31400
C 	C 	0.13370 0.75400 0.98514 0.03100
H 	H 	0.16600 0.78170 0.99460 0.05800
O 	O 	0.14730 0.78793 0.88871 -0.35100
O 	O 	0.18340 0.83387 0.93844 -0.34000
H 	H 	0.94200 0.56400 0.95200 0.25000
Ag	Ag	0.43234 0.15864 0.09165 0.51700
O 	O 	0.64540 0.26058 0.06440 -0.29400
O 	O 	0.59040 0.18118 0.06886 -0.39100
C 	C 	0.60080 0.21630 0.00917 -0.09400
C 	C 	0.55320 0.17510 0.99463 0.03800
H 	H 	0.53120 0.14950 0.01010 0.05000
C 	C 	0.61370 0.22000 0.05024 0.32900
C 	C 	0.53810 0.17190 0.95676 -0.09200
C 	C 	0.48600 0.12800 0.94075 0.35000
C 	C 	0.57060 0.20990 0.93321 0.03300
H 	H 	0.56030 0.20780 0.90800 0.05000
C 	C 	0.61930 0.25130 0.94816 -0.08400
O 	O 	0.46260 0.12654 0.90836 -0.24100
O 	O 	0.46920 0.09150 0.96405 -0.39300
C 	C 	0.65390 0.29380 0.92355 0.31500
C 	C 	0.63370 0.25400 0.98514 0.03200
H 	H 	0.66600 0.28170 0.99460 0.05800
O 	O 	0.64730 0.28793 0.88871 -0.35200
O 	O 	0.68340 0.33387 0.93844 -0.34000
H 	H 	0.44200 0.06400 0.95200 0.25000
Ag	Ag	0.43234 0.65864 0.59165 0.51700
O 	O 	0.64540 0.76058 0.56440 -0.29400
O 	O 	0.59040 0.68118 0.56886 -0.39100
C 	C 	0.60080 0.71630 0.50917 -0.09400
C 	C 	0.55320 0.67510 0.49463 0.03700
H 	H 	0.53120 0.64950 0.51010 0.05000
C 	C 	0.61370 0.72000 0.55024 0.32900
C 	C 	0.53810 0.67190 0.45676 -0.09100
C 	C 	0.48600 0.62800 0.44075 0.35000
C 	C 	0.57060 0.70990 0.43321 0.03200
H 	H 	0.56030 0.70780 0.40800 0.05000
C 	C 	0.61930 0.75130 0.44816 -0.08400
O 	O 	0.46260 0.62654 0.40836 -0.24100
O 	O 	0.46920 0.59150 0.46405 -0.39300
C 	C 	0.65390 0.79380 0.42355 0.31400
C 	C 	0.63370 0.75400 0.48514 0.03200
H 	H 	0.66600 0.78170 0.49460 0.05800
O 	O 	0.64730 0.78793 0.38871 -0.35100
O 	O 	0.68340 0.83387 0.43844 -0.34000
H 	H 	0.44200 0.56400 0.45200 0.25000
Ag	Ag	0.93234 0.09136 0.65835 0.51700
O 	O 	0.14540 0.98942 0.68560 -0.29400
O 	O 	0.09040 0.06882 0.68114 -0.39100
C 	C 	0.10080 0.03370 0.74083 -0.09400
C 	C 	0.05320 0.07490 0.75537 0.03800
H 	H 	0.03120 0.10050 0.73990 0.05000
C 	C 	0.11370 0.03000 0.69976 0.32900
C 	C 	0.03810 0.07810 0.79324 -0.09200
C 	C 	0.98600 0.12200 0.80925 0.35100
C 	C 	0.07060 0.04010 0.81679 0.03200
H 	H 	0.06030 0.04220 0.84200 0.05000
C 	C 	0.11930 0.99870 0.80184 -0.08400
O 	O 	0.96260 0.12346 0.84164 -0.24100
O 	O 	0.96920 0.15850 0.78595 -0.39300
C 	C 	0.15390 0.95620 0.82645 0.31400
C 	C 	0.13370 0.99600 0.76486 0.03200
H 	H 	0.16600 0.96830 0.75540 0.05800
O 	O 	0.14730 0.96207 0.86129 -0.35200
O 	O 	0.18340 0.91613 0.81156 -0.34000
H 	H 	0.94200 0.18600 0.79800 0.25000
Ag	Ag	0.93234 0.59136 0.15835 0.51700
O 	O 	0.14540 0.48942 0.18560 -0.29400
O 	O 	0.09040 0.56882 0.18114 -0.39100
C 	C 	0.10080 0.53370 0.24083 -0.09400
C 	C 	0.05320 0.57490 0.25537 0.03700
H 	H 	0.03120 0.60050 0.23990 0.05000
C 	C 	0.11370 0.53000 0.19976 0.32900
C 	C 	0.03810 0.57810 0.29324 -0.09100
C 	C 	0.98600 0.62200 0.30925 0.35000
C 	C 	0.07060 0.54010 0.31679 0.03200
H 	H 	0.06030 0.54220 0.34200 0.05000
C 	C 	0.11930 0.49870 0.30184 -0.08400
O 	O 	0.96260 0.62346 0.34164 -0.24100
O 	O 	0.96920 0.65850 0.28595 -0.39300
C 	C 	0.15390 0.45620 0.32645 0.31400
C 	C 	0.13370 0.49600 0.26486 0.03200
H 	H 	0.16600 0.46830 0.25540 0.05800
O 	O 	0.14730 0.46207 0.36129 -0.35100
O 	O 	0.18340 0.41613 0.31156 -0.34000
H 	H 	0.94200 0.68600 0.29800 0.25000
Ag	Ag	0.43234 0.09136 0.15835 0.51700
O 	O 	0.64540 0.98942 0.18560 -0.29400
O 	O 	0.59040 0.06882 0.18114 -0.39100
C 	C 	0.60080 0.03370 0.24083 -0.09400
C 	C 	0.55320 0.07490 0.25537 0.03700
H 	H 	0.53120 0.10050 0.23990 0.05000
C 	C 	0.61370 0.03000 0.19976 0.32900
C 	C 	0.53810 0.07810 0.29324 -0.09200
C 	C 	0.48600 0.12200 0.30925 0.35000
C 	C 	0.57060 0.04010 0.31679 0.03200
H 	H 	0.56030 0.04220 0.34200 0.05000
C 	C 	0.61930 0.99870 0.30184 -0.08400
O 	O 	0.46260 0.12346 0.34164 -0.24100
O 	O 	0.46920 0.15850 0.28595 -0.39300
C 	C 	0.65390 0.95620 0.32645 0.31400
C 	C 	0.63370 0.99600 0.26486 0.03200
H 	H 	0.66600 0.96830 0.25540 0.05800
O 	O 	0.64730 0.96207 0.36129 -0.35200
O 	O 	0.68340 0.91613 0.31156 -0.34000
H 	H 	0.44200 0.18600 0.29800 0.25000
Ag	Ag	0.43234 0.59136 0.65835 0.51700
O 	O 	0.64540 0.48942 0.68560 -0.29400
O 	O 	0.59040 0.56882 0.68114 -0.39100
C 	C 	0.60080 0.53370 0.74083 -0.09400
C 	C 	0.55320 0.57490 0.75537 0.03700
H 	H 	0.53120 0.60050 0.73990 0.05000
C 	C 	0.61370 0.53000 0.69976 0.32900
C 	C 	0.53810 0.57810 0.79324 -0.09100
C 	C 	0.48600 0.62200 0.80925 0.35000
C 	C 	0.57060 0.54010 0.81679 0.03200
H 	H 	0.56030 0.54220 0.84200 0.05000
C 	C 	0.61930 0.49870 0.80184 -0.08400
O 	O 	0.46260 0.62346 0.84164 -0.24100
O 	O 	0.46920 0.65850 0.78595 -0.39300
C 	C 	0.65390 0.45620 0.82645 0.31400
C 	C 	0.63370 0.49600 0.76486 0.03200
H 	H 	0.66600 0.46830 0.75540 0.05800
O 	O 	0.64730 0.46207 0.86129 -0.35100
O 	O 	0.68340 0.41613 0.81156 -0.34000
H 	H 	0.44200 0.68600 0.79800 0.25000
Ag	Ag	0.31766 0.15864 0.65835 0.51700
O 	O 	0.10460 0.26058 0.68560 -0.29400
O 	O 	0.15960 0.18118 0.68114 -0.39100
C 	C 	0.14920 0.21630 0.74083 -0.09400
C 	C 	0.19680 0.17510 0.75537 0.03700
H 	H 	0.21880 0.14950 0.73990 0.05000
C 	C 	0.13630 0.22000 0.69976 0.32900
C 	C 	0.21190 0.17190 0.79324 -0.09200
C 	C 	0.26400 0.12800 0.80925 0.35000
C 	C 	0.17940 0.20990 0.81679 0.03200
H 	H 	0.18970 0.20780 0.84200 0.05000
C 	C 	0.13070 0.25130 0.80184 -0.08400
O 	O 	0.28740 0.12654 0.84164 -0.24100
O 	O 	0.28080 0.09150 0.78595 -0.39300
C 	C 	0.09610 0.29380 0.82645 0.31400
C 	C 	0.11630 0.25400 0.76486 0.03200
H 	H 	0.08400 0.28170 0.75540 0.05800
O 	O 	0.10270 0.28793 0.86129 -0.35200
O 	O 	0.06660 0.33387 0.81156 -0.34000
H 	H 	0.30800 0.06400 0.79800 0.25000
Ag	Ag	0.31766 0.65864 0.15835 0.51700
O 	O 	0.10460 0.76058 0.18560 -0.29400
O 	O 	0.15960 0.68118 0.18114 -0.39100
C 	C 	0.14920 0.71630 0.24083 -0.09400
C 	C 	0.19680 0.67510 0.25537 0.03700
H 	H 	0.21880 0.64950 0.23990 0.05000
C 	C 	0.13630 0.72000 0.19976 0.32900
C 	C 	0.21190 0.67190 0.29324 -0.09100
C 	C 	0.26400 0.62800 0.30925 0.35000
C 	C 	0.17940 0.70990 0.31679 0.03200
H 	H 	0.18970 0.70780 0.34200 0.05000
C 	C 	0.13070 0.75130 0.30184 -0.08400
O 	O 	0.28740 0.62654 0.34164 -0.24100
O 	O 	0.28080 0.59150 0.28595 -0.39300
C 	C 	0.09610 0.79380 0.32645 0.31400
C 	C 	0.11630 0.75400 0.26486 0.03200
H 	H 	0.08400 0.78170 0.25540 0.05800
O 	O 	0.10270 0.78793 0.36129 -0.35100
O 	O 	0.06660 0.83387 0.31156 -0.34000
H 	H 	0.30800 0.56400 0.29800 0.25000
Ag	Ag	0.81766 0.15864 0.15835 0.51700
O 	O 	0.60460 0.26058 0.18560 -0.29400
O 	O 	0.65960 0.18118 0.18114 -0.39100
C 	C 	0.64920 0.21630 0.24083 -0.09400
C 	C 	0.69680 0.17510 0.25537 0.03700
H 	H 	0.71880 0.14950 0.23990 0.05000
C 	C 	0.63630 0.22000 0.19976 0.32900
C 	C 	0.71190 0.17190 0.29324 -0.09100
C 	C 	0.76400 0.12800 0.30925 0.35000
C 	C 	0.67940 0.20990 0.31679 0.03200
H 	H 	0.68970 0.20780 0.34200 0.05000
C 	C 	0.63070 0.25130 0.30184 -0.08400
O 	O 	0.78740 0.12654 0.34164 -0.24100
O 	O 	0.78080 0.09150 0.28595 -0.39300
C 	C 	0.59610 0.29380 0.32645 0.31400
C 	C 	0.61630 0.25400 0.26486 0.03200
H 	H 	0.58400 0.28170 0.25540 0.05800
O 	O 	0.60270 0.28793 0.36129 -0.35100
O 	O 	0.56660 0.33387 0.31156 -0.34000
H 	H 	0.80800 0.06400 0.29800 0.25000
Ag	Ag	0.81766 0.65864 0.65835 0.51700
O 	O 	0.60460 0.76058 0.68560 -0.29400
O 	O 	0.65960 0.68118 0.68114 -0.39100
C 	C 	0.64920 0.71630 0.74083 -0.09400
C 	C 	0.69680 0.67510 0.75537 0.03700
H 	H 	0.71880 0.64950 0.73990 0.05000
C 	C 	0.63630 0.72000 0.69976 0.32900
C 	C 	0.71190 0.67190 0.79324 -0.09200
C 	C 	0.76400 0.62800 0.80925 0.35000
C 	C 	0.67940 0.70990 0.81679 0.03200
H 	H 	0.68970 0.70780 0.84200 0.05000
C 	C 	0.63070 0.75130 0.80184 -0.08400
O 	O 	0.78740 0.62654 0.84164 -0.24100
O 	O 	0.78080 0.59150 0.78595 -0.39300
C 	C 	0.59610 0.79380 0.82645 0.31400
C 	C 	0.61630 0.75400 0.76486 0.03200
H 	H 	0.58400 0.78170 0.75540 0.05800
O 	O 	0.60270 0.78793 0.86129 -0.35200
O 	O 	0.56660 0.83387 0.81156 -0.34000
H 	H 	0.80800 0.56400 0.79800 0.25000
Ag	Ag	0.87500 0.93462 0.37500 0.51700
Ag	Ag	0.87500 0.43462 0.87500 0.51700
Ag	Ag	0.37500 0.93462 0.87500 0.51700
Ag	Ag	0.37500 0.43462 0.37500 0.51700
Ag	Ag	0.87500 0.81538 0.37500 0.51700
Ag	Ag	0.87500 0.31538 0.87500 0.51700
Ag	Ag	0.37500 0.81538 0.87500 0.51700
Ag	Ag	0.37500 0.31538 0.37500 0.51700
Ag	Ag	0.12500 0.06538 0.62500 0.51700
Ag	Ag	0.12500 0.56538 0.12500 0.51700
Ag	Ag	0.62500 0.06538 0.12500 0.51700
Ag	Ag	0.62500 0.56538 0.62500 0.51700
Ag	Ag	0.12500 0.18462 0.62500 0.51700
Ag	Ag	0.12500 0.68462 0.12500 0.51700
Ag	Ag	0.62500 0.18462 0.12500 0.51700
Ag	Ag	0.62500 0.68462 0.62500 0.51700
