data_crystal

_cell_length_a 14.62480
_cell_length_b 25.90120
_cell_length_c 36.31620
_cell_angle_alpha 90.00000
_cell_angle_beta  90.00000
_cell_angle_gamma 90.00000

_symmetry_space_group_name_	'P 1'
_symmetry_space_group_name_H-M	'P 1'

loop_
_symmetry_equiv_pos_as_xyz
  x,y,z

loop_
_atom_site_label
_atom_site_type_symbol
_atom_site_fract_x
_atom_site_fract_y
_atom_site_fract_z
_atom_site_charge
Ag	Ag	0.93297 0.65843 0.09211 0.51500
O 	O 	0.93358 0.58393 0.06138 -0.34200
O 	O 	0.89684 0.53766 0.11132 -0.35100
O 	O 	0.71205 0.37594 0.09207 -0.26700
O 	O 	0.71860 0.34088 0.03576 -0.58500
H 	H 	0.68910 0.31820 0.04240 0.39500
O 	O 	0.84100 0.43008 0.93134 -0.39000
O 	O 	0.89601 0.51011 0.93546 -0.29700
C 	C 	0.86973 0.50104 0.05206 -0.09100
C 	C 	0.82010 0.45989 0.06699 0.05100
H 	H 	0.80900 0.45820 0.09220 0.04300
C 	C 	0.78741 0.42143 0.04349 -0.12100
C 	C 	0.80280 0.42435 0.00543 0.05800
H 	H 	0.78110 0.39850 0.99000 0.04900
C 	C 	0.85066 0.46598 0.99077 -0.10400
C 	C 	0.88440 0.50412 0.01431 0.04000
H 	H 	0.91700 0.53180 0.00460 0.04900
C 	C 	0.90385 0.54419 0.07614 0.31600
C 	C 	0.73560 0.37745 0.05970 0.43000
C 	C 	0.86386 0.46951 0.94985 0.32700
Ag	Ag	0.93297 0.15843 0.59211 0.51500
O 	O 	0.93358 0.08393 0.56138 -0.34200
O 	O 	0.89684 0.03766 0.61132 -0.35100
O 	O 	0.71205 0.87594 0.59207 -0.26700
O 	O 	0.71860 0.84088 0.53576 -0.58500
H 	H 	0.68910 0.81820 0.54240 0.39500
O 	O 	0.84100 0.93008 0.43134 -0.39000
O 	O 	0.89601 0.01011 0.43546 -0.29600
C 	C 	0.86973 0.00104 0.55206 -0.09100
C 	C 	0.82010 0.95989 0.56699 0.05100
H 	H 	0.80900 0.95820 0.59220 0.04400
C 	C 	0.78741 0.92143 0.54349 -0.12000
C 	C 	0.80280 0.92435 0.50543 0.06000
H 	H 	0.78110 0.89850 0.49000 0.05000
C 	C 	0.85066 0.96598 0.49077 -0.10400
C 	C 	0.88440 0.00412 0.51431 0.04100
H 	H 	0.91700 0.03180 0.50460 0.05000
C 	C 	0.90385 0.04419 0.57614 0.31700
C 	C 	0.73560 0.87745 0.55970 0.43100
C 	C 	0.86386 0.96951 0.44985 0.32700
Ag	Ag	0.43297 0.65843 0.59211 0.51600
O 	O 	0.43358 0.58393 0.56138 -0.34100
O 	O 	0.39684 0.53766 0.61132 -0.35000
O 	O 	0.21205 0.37594 0.59207 -0.26600
O 	O 	0.21860 0.34088 0.53576 -0.58400
H 	H 	0.18910 0.31820 0.54240 0.39600
O 	O 	0.34100 0.43008 0.43134 -0.38900
O 	O 	0.39601 0.51011 0.43546 -0.29600
C 	C 	0.36973 0.50104 0.55206 -0.09100
C 	C 	0.32010 0.45989 0.56699 0.05200
H 	H 	0.30900 0.45820 0.59220 0.04400
C 	C 	0.28741 0.42143 0.54349 -0.12000
C 	C 	0.30280 0.42435 0.50543 0.06000
H 	H 	0.28110 0.39850 0.49000 0.05000
C 	C 	0.35066 0.46598 0.49077 -0.10400
C 	C 	0.38440 0.50412 0.51431 0.04100
H 	H 	0.41700 0.53180 0.50460 0.05000
C 	C 	0.40385 0.54419 0.57614 0.31700
C 	C 	0.23560 0.37745 0.55970 0.43100
C 	C 	0.36386 0.46951 0.44985 0.32800
Ag	Ag	0.43297 0.15843 0.09211 0.51600
O 	O 	0.43358 0.08393 0.06138 -0.34100
O 	O 	0.39684 0.03766 0.11132 -0.35000
O 	O 	0.21205 0.87594 0.09207 -0.26600
O 	O 	0.21860 0.84088 0.03576 -0.58400
H 	H 	0.18910 0.81820 0.04240 0.39600
O 	O 	0.34100 0.93008 0.93134 -0.38900
O 	O 	0.39601 0.01011 0.93546 -0.29600
C 	C 	0.36973 0.00104 0.05206 -0.09100
C 	C 	0.32010 0.95989 0.06699 0.05300
H 	H 	0.30900 0.95820 0.09220 0.04400
C 	C 	0.28741 0.92143 0.04349 -0.12000
C 	C 	0.30280 0.92435 0.00543 0.06100
H 	H 	0.28110 0.89850 0.99000 0.04900
C 	C 	0.35066 0.96598 0.99077 -0.10400
C 	C 	0.38440 0.00412 0.01431 0.04100
H 	H 	0.41700 0.03180 0.00460 0.04900
C 	C 	0.40385 0.04419 0.07614 0.31700
C 	C 	0.23560 0.87745 0.05970 0.43100
C 	C 	0.36386 0.96951 0.94985 0.32800
Ag	Ag	0.81703 0.09157 0.09211 0.51600
O 	O 	0.81642 0.16607 0.06138 -0.34100
O 	O 	0.85316 0.21234 0.11132 -0.35000
O 	O 	0.03795 0.37406 0.09207 -0.26600
O 	O 	0.03140 0.40912 0.03576 -0.58300
H 	H 	0.06090 0.43180 0.04240 0.39600
O 	O 	0.90900 0.31992 0.93134 -0.38900
O 	O 	0.85399 0.23989 0.93546 -0.29600
C 	C 	0.88027 0.24896 0.05206 -0.09000
C 	C 	0.92990 0.29011 0.06699 0.05200
H 	H 	0.94100 0.29180 0.09220 0.04400
C 	C 	0.96259 0.32857 0.04349 -0.12000
C 	C 	0.94720 0.32565 0.00543 0.05900
H 	H 	0.96890 0.35150 0.99000 0.05000
C 	C 	0.89934 0.28402 0.99077 -0.10300
C 	C 	0.86560 0.24588 0.01431 0.04000
H 	H 	0.83300 0.21820 0.00460 0.05000
C 	C 	0.84615 0.20581 0.07614 0.31700
C 	C 	0.01440 0.37255 0.05970 0.43100
C 	C 	0.88614 0.28049 0.94985 0.32700
Ag	Ag	0.81703 0.59157 0.59211 0.51600
O 	O 	0.81642 0.66607 0.56138 -0.34100
O 	O 	0.85316 0.71234 0.61132 -0.35000
O 	O 	0.03795 0.87406 0.59207 -0.26600
O 	O 	0.03140 0.90912 0.53576 -0.58300
H 	H 	0.06090 0.93180 0.54240 0.39600
O 	O 	0.90900 0.81992 0.43134 -0.38900
O 	O 	0.85399 0.73989 0.43546 -0.29600
C 	C 	0.88027 0.74896 0.55206 -0.09100
C 	C 	0.92990 0.79011 0.56699 0.05200
H 	H 	0.94100 0.79180 0.59220 0.04400
C 	C 	0.96259 0.82857 0.54349 -0.12000
C 	C 	0.94720 0.82565 0.50543 0.06000
H 	H 	0.96890 0.85150 0.49000 0.05000
C 	C 	0.89934 0.78402 0.49077 -0.10400
C 	C 	0.86560 0.74588 0.51431 0.04100
H 	H 	0.83300 0.71820 0.50460 0.04900
C 	C 	0.84615 0.70581 0.57614 0.31700
C 	C 	0.01440 0.87255 0.55970 0.43100
C 	C 	0.88614 0.78049 0.44985 0.32800
Ag	Ag	0.31703 0.09157 0.59211 0.51600
O 	O 	0.31642 0.16607 0.56138 -0.34100
O 	O 	0.35316 0.21234 0.61132 -0.35000
O 	O 	0.53795 0.37406 0.59207 -0.26600
O 	O 	0.53140 0.40912 0.53576 -0.58400
H 	H 	0.56090 0.43180 0.54240 0.39600
O 	O 	0.40900 0.31992 0.43134 -0.38900
O 	O 	0.35399 0.23989 0.43546 -0.29600
C 	C 	0.38027 0.24896 0.55206 -0.09100
C 	C 	0.42990 0.29011 0.56699 0.05200
H 	H 	0.44100 0.29180 0.59220 0.04400
C 	C 	0.46259 0.32857 0.54349 -0.12000
C 	C 	0.44720 0.32565 0.50543 0.06000
H 	H 	0.46890 0.35150 0.49000 0.05000
C 	C 	0.39934 0.28402 0.49077 -0.10400
C 	C 	0.36560 0.24588 0.51431 0.04100
H 	H 	0.33300 0.21820 0.50460 0.05000
C 	C 	0.34615 0.20581 0.57614 0.31700
C 	C 	0.51440 0.37255 0.55970 0.43100
C 	C 	0.38614 0.28049 0.44985 0.32800
Ag	Ag	0.31703 0.59157 0.09211 0.51600
O 	O 	0.31642 0.66607 0.06138 -0.34100
O 	O 	0.35316 0.71234 0.11132 -0.35000
O 	O 	0.53795 0.87406 0.09207 -0.26600
O 	O 	0.53140 0.90912 0.03576 -0.58400
H 	H 	0.56090 0.93180 0.04240 0.39600
O 	O 	0.40900 0.81992 0.93134 -0.38900
O 	O 	0.35399 0.73989 0.93546 -0.29600
C 	C 	0.38027 0.74896 0.05206 -0.09100
C 	C 	0.42990 0.79011 0.06699 0.05200
H 	H 	0.44100 0.79180 0.09220 0.04400
C 	C 	0.46259 0.82857 0.04349 -0.12000
C 	C 	0.44720 0.82565 0.00543 0.06100
H 	H 	0.46890 0.85150 0.99000 0.04900
C 	C 	0.39934 0.78402 0.99077 -0.10400
C 	C 	0.36560 0.74588 0.01431 0.04100
H 	H 	0.33300 0.71820 0.00460 0.04900
C 	C 	0.34615 0.70581 0.07614 0.31700
C 	C 	0.51440 0.87255 0.05970 0.43100
C 	C 	0.38614 0.78049 0.94985 0.32800
Ag	Ag	0.81703 0.65843 0.65789 0.51600
O 	O 	0.81642 0.58393 0.68862 -0.34100
O 	O 	0.85316 0.53766 0.63868 -0.35000
O 	O 	0.03795 0.37594 0.65793 -0.26600
O 	O 	0.03140 0.34088 0.71424 -0.58400
H 	H 	0.06090 0.31820 0.70760 0.39600
O 	O 	0.90900 0.43008 0.81866 -0.38900
O 	O 	0.85399 0.51011 0.81454 -0.29600
C 	C 	0.88027 0.50104 0.69794 -0.09100
C 	C 	0.92990 0.45989 0.68301 0.05200
H 	H 	0.94100 0.45820 0.65780 0.04400
C 	C 	0.96259 0.42143 0.70651 -0.12000
C 	C 	0.94720 0.42435 0.74457 0.06000
H 	H 	0.96890 0.39850 0.76000 0.05000
C 	C 	0.89934 0.46598 0.75923 -0.10400
C 	C 	0.86560 0.50412 0.73569 0.04100
H 	H 	0.83300 0.53180 0.74540 0.05000
C 	C 	0.84615 0.54419 0.67386 0.31700
C 	C 	0.01440 0.37745 0.69030 0.43100
C 	C 	0.88614 0.46951 0.80015 0.32800
Ag	Ag	0.81703 0.15843 0.15789 0.51600
O 	O 	0.81642 0.08393 0.18862 -0.34100
O 	O 	0.85316 0.03766 0.13868 -0.35000
O 	O 	0.03795 0.87594 0.15793 -0.26600
O 	O 	0.03140 0.84088 0.21424 -0.58400
H 	H 	0.06090 0.81820 0.20760 0.39600
O 	O 	0.90900 0.93008 0.31866 -0.38900
O 	O 	0.85399 0.01011 0.31454 -0.29600
C 	C 	0.88027 0.00104 0.19794 -0.09100
C 	C 	0.92990 0.95989 0.18301 0.05200
H 	H 	0.94100 0.95820 0.15780 0.04400
C 	C 	0.96259 0.92143 0.20651 -0.12000
C 	C 	0.94720 0.92435 0.24457 0.06000
H 	H 	0.96890 0.89850 0.26000 0.05000
C 	C 	0.89934 0.96598 0.25923 -0.10400
C 	C 	0.86560 0.00412 0.23569 0.04100
H 	H 	0.83300 0.03180 0.24540 0.04900
C 	C 	0.84615 0.04419 0.17386 0.31700
C 	C 	0.01440 0.87745 0.19030 0.43100
C 	C 	0.88614 0.96951 0.30015 0.32800
Ag	Ag	0.31703 0.65843 0.15789 0.51600
O 	O 	0.31642 0.58393 0.18862 -0.34100
O 	O 	0.35316 0.53766 0.13868 -0.35000
O 	O 	0.53795 0.37594 0.15793 -0.26600
O 	O 	0.53140 0.34088 0.21424 -0.58400
H 	H 	0.56090 0.31820 0.20760 0.39600
O 	O 	0.40900 0.43008 0.31866 -0.38900
O 	O 	0.35399 0.51011 0.31454 -0.29600
C 	C 	0.38027 0.50104 0.19794 -0.09100
C 	C 	0.42990 0.45989 0.18301 0.05200
H 	H 	0.44100 0.45820 0.15780 0.04400
C 	C 	0.46259 0.42143 0.20651 -0.12000
C 	C 	0.44720 0.42435 0.24457 0.06000
H 	H 	0.46890 0.39850 0.26000 0.05000
C 	C 	0.39934 0.46598 0.25923 -0.10400
C 	C 	0.36560 0.50412 0.23569 0.04100
H 	H 	0.33300 0.53180 0.24540 0.05000
C 	C 	0.34615 0.54419 0.17386 0.31700
C 	C 	0.51440 0.37745 0.19030 0.43100
C 	C 	0.38614 0.46951 0.30015 0.32800
Ag	Ag	0.31703 0.15843 0.65789 0.51600
O 	O 	0.31642 0.08393 0.68862 -0.34100
O 	O 	0.35316 0.03766 0.63868 -0.35000
O 	O 	0.53795 0.87594 0.65793 -0.26600
O 	O 	0.53140 0.84088 0.71424 -0.58400
H 	H 	0.56090 0.81820 0.70760 0.39600
O 	O 	0.40900 0.93008 0.81866 -0.38900
O 	O 	0.35399 0.01011 0.81454 -0.29600
C 	C 	0.38027 0.00104 0.69794 -0.09100
C 	C 	0.42990 0.95989 0.68301 0.05200
H 	H 	0.44100 0.95820 0.65780 0.04400
C 	C 	0.46259 0.92143 0.70651 -0.12000
C 	C 	0.44720 0.92435 0.74457 0.06000
H 	H 	0.46890 0.89850 0.76000 0.05000
C 	C 	0.39934 0.96598 0.75923 -0.10400
C 	C 	0.36560 0.00412 0.73569 0.04100
H 	H 	0.33300 0.03180 0.74540 0.05000
C 	C 	0.34615 0.04419 0.67386 0.31700
C 	C 	0.51440 0.87745 0.69030 0.43100
C 	C 	0.38614 0.96951 0.80015 0.32800
Ag	Ag	0.93297 0.09157 0.65789 0.51600
O 	O 	0.93358 0.16607 0.68862 -0.34100
O 	O 	0.89684 0.21234 0.63868 -0.35000
O 	O 	0.71205 0.37406 0.65793 -0.26600
O 	O 	0.71860 0.40912 0.71424 -0.58400
H 	H 	0.68910 0.43180 0.70760 0.39600
O 	O 	0.84100 0.31992 0.81866 -0.38900
O 	O 	0.89601 0.23989 0.81454 -0.29600
C 	C 	0.86973 0.24896 0.69794 -0.09100
C 	C 	0.82010 0.29011 0.68301 0.05200
H 	H 	0.80900 0.29180 0.65780 0.04400
C 	C 	0.78741 0.32857 0.70651 -0.12000
C 	C 	0.80280 0.32565 0.74457 0.06000
H 	H 	0.78110 0.35150 0.76000 0.05000
C 	C 	0.85066 0.28402 0.75923 -0.10400
C 	C 	0.88440 0.24588 0.73569 0.04100
H 	H 	0.91700 0.21820 0.74540 0.05000
C 	C 	0.90385 0.20581 0.67386 0.31700
C 	C 	0.73560 0.37255 0.69030 0.43100
C 	C 	0.86386 0.28049 0.80015 0.32800
Ag	Ag	0.93297 0.59157 0.15789 0.51600
O 	O 	0.93358 0.66607 0.18862 -0.34100
O 	O 	0.89684 0.71234 0.13868 -0.35000
O 	O 	0.71205 0.87406 0.15793 -0.26600
O 	O 	0.71860 0.90912 0.21424 -0.58400
H 	H 	0.68910 0.93180 0.20760 0.39600
O 	O 	0.84100 0.81992 0.31866 -0.38900
O 	O 	0.89601 0.73989 0.31454 -0.29600
C 	C 	0.86973 0.74896 0.19794 -0.09100
C 	C 	0.82010 0.79011 0.18301 0.05200
H 	H 	0.80900 0.79180 0.15780 0.04400
C 	C 	0.78741 0.82857 0.20651 -0.12000
C 	C 	0.80280 0.82565 0.24457 0.06000
H 	H 	0.78110 0.85150 0.26000 0.05000
C 	C 	0.85066 0.78402 0.25923 -0.10400
C 	C 	0.88440 0.74588 0.23569 0.04100
H 	H 	0.91700 0.71820 0.24540 0.04900
C 	C 	0.90385 0.70581 0.17386 0.31700
C 	C 	0.73560 0.87255 0.19030 0.43100
C 	C 	0.86386 0.78049 0.30015 0.32800
Ag	Ag	0.43297 0.09157 0.15789 0.51600
O 	O 	0.43358 0.16607 0.18862 -0.34100
O 	O 	0.39684 0.21234 0.13868 -0.35000
O 	O 	0.21205 0.37406 0.15793 -0.26600
O 	O 	0.21860 0.40912 0.21424 -0.58400
H 	H 	0.18910 0.43180 0.20760 0.39600
O 	O 	0.34100 0.31992 0.31866 -0.38900
O 	O 	0.39601 0.23989 0.31454 -0.29600
C 	C 	0.36973 0.24896 0.19794 -0.09100
C 	C 	0.32010 0.29011 0.18301 0.05200
H 	H 	0.30900 0.29180 0.15780 0.04400
C 	C 	0.28741 0.32857 0.20651 -0.12000
C 	C 	0.30280 0.32565 0.24457 0.06000
H 	H 	0.28110 0.35150 0.26000 0.05000
C 	C 	0.35066 0.28402 0.25923 -0.10400
C 	C 	0.38440 0.24588 0.23569 0.04100
H 	H 	0.41700 0.21820 0.24540 0.05000
C 	C 	0.40385 0.20581 0.17386 0.31700
C 	C 	0.23560 0.37255 0.19030 0.43100
C 	C 	0.36386 0.28049 0.30015 0.32800
Ag	Ag	0.43297 0.59157 0.65789 0.51600
O 	O 	0.43358 0.66607 0.68862 -0.34100
O 	O 	0.39684 0.71234 0.63868 -0.35000
O 	O 	0.21205 0.87406 0.65793 -0.26600
O 	O 	0.21860 0.90912 0.71424 -0.58400
H 	H 	0.18910 0.93180 0.70760 0.39600
O 	O 	0.34100 0.81992 0.81866 -0.38900
O 	O 	0.39601 0.73989 0.81454 -0.29600
C 	C 	0.36973 0.74896 0.69794 -0.09100
C 	C 	0.32010 0.79011 0.68301 0.05200
H 	H 	0.30900 0.79180 0.65780 0.04400
C 	C 	0.28741 0.82857 0.70651 -0.12000
C 	C 	0.30280 0.82565 0.74457 0.06000
H 	H 	0.28110 0.85150 0.76000 0.05000
C 	C 	0.35066 0.78402 0.75923 -0.10400
C 	C 	0.38440 0.74588 0.73569 0.04100
H 	H 	0.41700 0.71820 0.74540 0.05000
C 	C 	0.40385 0.70581 0.67386 0.31700
C 	C 	0.23560 0.87255 0.69030 0.43100
C 	C 	0.36386 0.78049 0.80015 0.32800
Ag	Ag	0.06703 0.34157 0.90789 0.51600
O 	O 	0.06642 0.41607 0.93862 -0.34100
O 	O 	0.10316 0.46234 0.88868 -0.35000
O 	O 	0.28795 0.62406 0.90793 -0.26600
O 	O 	0.28140 0.65912 0.96424 -0.58400
H 	H 	0.31090 0.68180 0.95760 0.39600
O 	O 	0.15900 0.56992 0.06866 -0.38900
O 	O 	0.10399 0.48989 0.06454 -0.29600
C 	C 	0.13027 0.49896 0.94794 -0.09000
C 	C 	0.17990 0.54011 0.93301 0.05200
H 	H 	0.19100 0.54180 0.90780 0.04400
C 	C 	0.21259 0.57857 0.95651 -0.12000
C 	C 	0.19720 0.57565 0.99457 0.05900
H 	H 	0.21890 0.60150 0.01000 0.05000
C 	C 	0.14934 0.53402 0.00923 -0.10300
C 	C 	0.11560 0.49588 0.98569 0.04100
H 	H 	0.08300 0.46820 0.99540 0.05000
C 	C 	0.09615 0.45581 0.92386 0.31700
C 	C 	0.26440 0.62255 0.94030 0.43100
C 	C 	0.13614 0.53049 0.05015 0.32800
Ag	Ag	0.06703 0.84157 0.40789 0.51600
O 	O 	0.06642 0.91607 0.43862 -0.34100
O 	O 	0.10316 0.96234 0.38868 -0.35000
O 	O 	0.28795 0.12406 0.40793 -0.26600
O 	O 	0.28140 0.15912 0.46424 -0.58400
H 	H 	0.31090 0.18180 0.45760 0.39600
O 	O 	0.15900 0.06992 0.56866 -0.38900
O 	O 	0.10399 0.98989 0.56454 -0.29500
C 	C 	0.13027 0.99896 0.44794 -0.09000
C 	C 	0.17990 0.04011 0.43301 0.05200
H 	H 	0.19100 0.04180 0.40780 0.04400
C 	C 	0.21259 0.07857 0.45651 -0.12000
C 	C 	0.19720 0.07565 0.49457 0.06000
H 	H 	0.21890 0.10150 0.51000 0.05000
C 	C 	0.14934 0.03402 0.50923 -0.10400
C 	C 	0.11560 0.99588 0.48569 0.04100
H 	H 	0.08300 0.96820 0.49540 0.05000
C 	C 	0.09615 0.95581 0.42386 0.31700
C 	C 	0.26440 0.12255 0.44030 0.43100
C 	C 	0.13614 0.03049 0.55015 0.32700
Ag	Ag	0.56703 0.34157 0.40789 0.51600
O 	O 	0.56642 0.41607 0.43862 -0.34100
O 	O 	0.60316 0.46234 0.38868 -0.35000
O 	O 	0.78795 0.62406 0.40793 -0.26600
O 	O 	0.78140 0.65912 0.46424 -0.58400
H 	H 	0.81090 0.68180 0.45760 0.39600
O 	O 	0.65900 0.56992 0.56866 -0.38900
O 	O 	0.60399 0.48989 0.56454 -0.29600
C 	C 	0.63027 0.49896 0.44794 -0.09100
C 	C 	0.67990 0.54011 0.43301 0.05200
H 	H 	0.69100 0.54180 0.40780 0.04400
C 	C 	0.71259 0.57857 0.45651 -0.12000
C 	C 	0.69720 0.57565 0.49457 0.06000
H 	H 	0.71890 0.60150 0.51000 0.05000
C 	C 	0.64934 0.53402 0.50923 -0.10400
C 	C 	0.61560 0.49588 0.48569 0.04100
H 	H 	0.58300 0.46820 0.49540 0.05000
C 	C 	0.59615 0.45581 0.42386 0.31700
C 	C 	0.76440 0.62255 0.44030 0.43100
C 	C 	0.63614 0.53049 0.55015 0.32800
Ag	Ag	0.56703 0.84157 0.90789 0.51600
O 	O 	0.56642 0.91607 0.93862 -0.34100
O 	O 	0.60316 0.96234 0.88868 -0.35000
O 	O 	0.78795 0.12406 0.90793 -0.26600
O 	O 	0.78140 0.15912 0.96424 -0.58400
H 	H 	0.81090 0.18180 0.95760 0.39600
O 	O 	0.65900 0.06992 0.06866 -0.38900
O 	O 	0.60399 0.98989 0.06454 -0.29600
C 	C 	0.63027 0.99896 0.94794 -0.09100
C 	C 	0.67990 0.04011 0.93301 0.05300
H 	H 	0.69100 0.04180 0.90780 0.04400
C 	C 	0.71259 0.07857 0.95651 -0.12000
C 	C 	0.69720 0.07565 0.99457 0.06100
H 	H 	0.71890 0.10150 0.01000 0.04900
C 	C 	0.64934 0.03402 0.00923 -0.10400
C 	C 	0.61560 0.99588 0.98569 0.04100
H 	H 	0.58300 0.96820 0.99540 0.04900
C 	C 	0.59615 0.95581 0.92386 0.31700
C 	C 	0.76440 0.12255 0.94030 0.43100
C 	C 	0.63614 0.03049 0.05015 0.32800
Ag	Ag	0.18297 0.90843 0.90789 0.51600
O 	O 	0.18358 0.83393 0.93862 -0.34100
O 	O 	0.14684 0.78766 0.88868 -0.35000
O 	O 	0.96205 0.62594 0.90793 -0.26600
O 	O 	0.96860 0.59088 0.96424 -0.58300
H 	H 	0.93910 0.56820 0.95760 0.39600
O 	O 	0.09100 0.68008 0.06866 -0.38900
O 	O 	0.14601 0.76011 0.06454 -0.29600
C 	C 	0.11973 0.75104 0.94794 -0.09000
C 	C 	0.07010 0.70989 0.93301 0.05200
H 	H 	0.05900 0.70820 0.90780 0.04400
C 	C 	0.03741 0.67143 0.95651 -0.12000
C 	C 	0.05280 0.67435 0.99457 0.05900
H 	H 	0.03110 0.64850 0.01000 0.05000
C 	C 	0.10066 0.71598 0.00923 -0.10300
C 	C 	0.13440 0.75412 0.98569 0.04000
H 	H 	0.16700 0.78180 0.99540 0.05000
C 	C 	0.15385 0.79419 0.92386 0.31700
C 	C 	0.98560 0.62745 0.94030 0.43100
C 	C 	0.11386 0.71951 0.05015 0.32700
Ag	Ag	0.18297 0.40843 0.40789 0.51600
O 	O 	0.18358 0.33393 0.43862 -0.34100
O 	O 	0.14684 0.28766 0.38868 -0.35000
O 	O 	0.96205 0.12594 0.40793 -0.26600
O 	O 	0.96860 0.09088 0.46424 -0.58300
H 	H 	0.93910 0.06820 0.45760 0.39600
O 	O 	0.09100 0.18008 0.56866 -0.38900
O 	O 	0.14601 0.26011 0.56454 -0.29600
C 	C 	0.11973 0.25104 0.44794 -0.09100
C 	C 	0.07010 0.20989 0.43301 0.05200
H 	H 	0.05900 0.20820 0.40780 0.04400
C 	C 	0.03741 0.17143 0.45651 -0.12000
C 	C 	0.05280 0.17435 0.49457 0.06000
H 	H 	0.03110 0.14850 0.51000 0.05000
C 	C 	0.10066 0.21598 0.50923 -0.10400
C 	C 	0.13440 0.25412 0.48569 0.04100
H 	H 	0.16700 0.28180 0.49540 0.04900
C 	C 	0.15385 0.29419 0.42386 0.31700
C 	C 	0.98560 0.12745 0.44030 0.43100
C 	C 	0.11386 0.21951 0.55015 0.32800
Ag	Ag	0.68297 0.90843 0.40789 0.51600
O 	O 	0.68358 0.83393 0.43862 -0.34100
O 	O 	0.64684 0.78766 0.38868 -0.35000
O 	O 	0.46205 0.62594 0.40793 -0.26600
O 	O 	0.46860 0.59088 0.46424 -0.58400
H 	H 	0.43910 0.56820 0.45760 0.39600
O 	O 	0.59100 0.68008 0.56866 -0.38900
O 	O 	0.64601 0.76011 0.56454 -0.29600
C 	C 	0.61973 0.75104 0.44794 -0.09100
C 	C 	0.57010 0.70989 0.43301 0.05200
H 	H 	0.55900 0.70820 0.40780 0.04400
C 	C 	0.53741 0.67143 0.45651 -0.12000
C 	C 	0.55280 0.67435 0.49457 0.06000
H 	H 	0.53110 0.64850 0.51000 0.05000
C 	C 	0.60066 0.71598 0.50923 -0.10400
C 	C 	0.63440 0.75412 0.48569 0.04100
H 	H 	0.66700 0.78180 0.49540 0.05000
C 	C 	0.65385 0.79419 0.42386 0.31700
C 	C 	0.48560 0.62745 0.44030 0.43100
C 	C 	0.61386 0.71951 0.55015 0.32800
Ag	Ag	0.68297 0.40843 0.90789 0.51600
O 	O 	0.68358 0.33393 0.93862 -0.34100
O 	O 	0.64684 0.28766 0.88868 -0.35000
O 	O 	0.46205 0.12594 0.90793 -0.26600
O 	O 	0.46860 0.09088 0.96424 -0.58400
H 	H 	0.43910 0.06820 0.95760 0.39600
O 	O 	0.59100 0.18008 0.06866 -0.38900
O 	O 	0.64601 0.26011 0.06454 -0.29600
C 	C 	0.61973 0.25104 0.94794 -0.09100
C 	C 	0.57010 0.20989 0.93301 0.05200
H 	H 	0.55900 0.20820 0.90780 0.04400
C 	C 	0.53741 0.17143 0.95651 -0.12000
C 	C 	0.55280 0.17435 0.99457 0.06100
H 	H 	0.53110 0.14850 0.01000 0.04900
C 	C 	0.60066 0.21598 0.00923 -0.10400
C 	C 	0.63440 0.25412 0.98569 0.04100
H 	H 	0.66700 0.28180 0.99540 0.04900
C 	C 	0.65385 0.29419 0.92386 0.31700
C 	C 	0.48560 0.12745 0.94030 0.43100
C 	C 	0.61386 0.21951 0.05015 0.32800
Ag	Ag	0.18297 0.34157 0.34211 0.51600
O 	O 	0.18358 0.41607 0.31138 -0.34100
O 	O 	0.14684 0.46234 0.36132 -0.35000
O 	O 	0.96205 0.62406 0.34207 -0.26600
O 	O 	0.96860 0.65912 0.28576 -0.58400
H 	H 	0.93910 0.68180 0.29240 0.39600
O 	O 	0.09100 0.56992 0.18134 -0.38900
O 	O 	0.14601 0.48989 0.18546 -0.29600
C 	C 	0.11973 0.49896 0.30206 -0.09100
C 	C 	0.07010 0.54011 0.31699 0.05200
H 	H 	0.05900 0.54180 0.34220 0.04400
C 	C 	0.03741 0.57857 0.29349 -0.12000
C 	C 	0.05280 0.57565 0.25543 0.06000
H 	H 	0.03110 0.60150 0.24000 0.05000
C 	C 	0.10066 0.53402 0.24077 -0.10400
C 	C 	0.13440 0.49588 0.26431 0.04100
H 	H 	0.16700 0.46820 0.25460 0.05000
C 	C 	0.15385 0.45581 0.32614 0.31700
C 	C 	0.98560 0.62255 0.30970 0.43100
C 	C 	0.11386 0.53049 0.19985 0.32800
Ag	Ag	0.18297 0.84157 0.84211 0.51600
O 	O 	0.18358 0.91607 0.81138 -0.34100
O 	O 	0.14684 0.96234 0.86132 -0.35000
O 	O 	0.96205 0.12406 0.84207 -0.26600
O 	O 	0.96860 0.15912 0.78576 -0.58400
H 	H 	0.93910 0.18180 0.79240 0.39600
O 	O 	0.09100 0.06992 0.68134 -0.38900
O 	O 	0.14601 0.98989 0.68546 -0.29600
C 	C 	0.11973 0.99896 0.80206 -0.09100
C 	C 	0.07010 0.04011 0.81699 0.05200
H 	H 	0.05900 0.04180 0.84220 0.04400
C 	C 	0.03741 0.07857 0.79349 -0.12000
C 	C 	0.05280 0.07565 0.75543 0.06000
H 	H 	0.03110 0.10150 0.74000 0.05000
C 	C 	0.10066 0.03402 0.74077 -0.10400
C 	C 	0.13440 0.99588 0.76431 0.04100
H 	H 	0.16700 0.96820 0.75460 0.04900
C 	C 	0.15385 0.95581 0.82614 0.31700
C 	C 	0.98560 0.12255 0.80970 0.43100
C 	C 	0.11386 0.03049 0.69985 0.32800
Ag	Ag	0.68297 0.34157 0.84211 0.51600
O 	O 	0.68358 0.41607 0.81138 -0.34100
O 	O 	0.64684 0.46234 0.86132 -0.35000
O 	O 	0.46205 0.62406 0.84207 -0.26600
O 	O 	0.46860 0.65912 0.78576 -0.58400
H 	H 	0.43910 0.68180 0.79240 0.39600
O 	O 	0.59100 0.56992 0.68134 -0.38900
O 	O 	0.64601 0.48989 0.68546 -0.29600
C 	C 	0.61973 0.49896 0.80206 -0.09100
C 	C 	0.57010 0.54011 0.81699 0.05200
H 	H 	0.55900 0.54180 0.84220 0.04400
C 	C 	0.53741 0.57857 0.79349 -0.12000
C 	C 	0.55280 0.57565 0.75543 0.06000
H 	H 	0.53110 0.60150 0.74000 0.05000
C 	C 	0.60066 0.53402 0.74077 -0.10400
C 	C 	0.63440 0.49588 0.76431 0.04100
H 	H 	0.66700 0.46820 0.75460 0.05000
C 	C 	0.65385 0.45581 0.82614 0.31700
C 	C 	0.48560 0.62255 0.80970 0.43100
C 	C 	0.61386 0.53049 0.69985 0.32800
Ag	Ag	0.68297 0.84157 0.34211 0.51600
O 	O 	0.68358 0.91607 0.31138 -0.34100
O 	O 	0.64684 0.96234 0.36132 -0.35000
O 	O 	0.46205 0.12406 0.34207 -0.26600
O 	O 	0.46860 0.15912 0.28576 -0.58400
H 	H 	0.43910 0.18180 0.29240 0.39600
O 	O 	0.59100 0.06992 0.18134 -0.38900
O 	O 	0.64601 0.98989 0.18546 -0.29600
C 	C 	0.61973 0.99896 0.30206 -0.09100
C 	C 	0.57010 0.04011 0.31699 0.05200
H 	H 	0.55900 0.04180 0.34220 0.04400
C 	C 	0.53741 0.07857 0.29349 -0.12000
C 	C 	0.55280 0.07565 0.25543 0.06000
H 	H 	0.53110 0.10150 0.24000 0.05000
C 	C 	0.60066 0.03402 0.24077 -0.10400
C 	C 	0.63440 0.99588 0.26431 0.04100
H 	H 	0.66700 0.96820 0.25460 0.05000
C 	C 	0.65385 0.95581 0.32614 0.31700
C 	C 	0.48560 0.12255 0.30970 0.43100
C 	C 	0.61386 0.03049 0.19985 0.32800
Ag	Ag	0.06703 0.90843 0.34211 0.51600
O 	O 	0.06642 0.83393 0.31138 -0.34100
O 	O 	0.10316 0.78766 0.36132 -0.35000
O 	O 	0.28795 0.62594 0.34207 -0.26600
O 	O 	0.28140 0.59088 0.28576 -0.58400
H 	H 	0.31090 0.56820 0.29240 0.39600
O 	O 	0.15900 0.68008 0.18134 -0.38900
O 	O 	0.10399 0.76011 0.18546 -0.29600
C 	C 	0.13027 0.75104 0.30206 -0.09100
C 	C 	0.17990 0.70989 0.31699 0.05200
H 	H 	0.19100 0.70820 0.34220 0.04400
C 	C 	0.21259 0.67143 0.29349 -0.12000
C 	C 	0.19720 0.67435 0.25543 0.06000
H 	H 	0.21890 0.64850 0.24000 0.05000
C 	C 	0.14934 0.71598 0.24077 -0.10400
C 	C 	0.11560 0.75412 0.26431 0.04100
H 	H 	0.08300 0.78180 0.25460 0.05000
C 	C 	0.09615 0.79419 0.32614 0.31700
C 	C 	0.26440 0.62745 0.30970 0.43100
C 	C 	0.13614 0.71951 0.19985 0.32800
Ag	Ag	0.06703 0.40843 0.84211 0.51600
O 	O 	0.06642 0.33393 0.81138 -0.34100
O 	O 	0.10316 0.28766 0.86132 -0.35000
O 	O 	0.28795 0.12594 0.84207 -0.26600
O 	O 	0.28140 0.09088 0.78576 -0.58400
H 	H 	0.31090 0.06820 0.79240 0.39600
O 	O 	0.15900 0.18008 0.68134 -0.38900
O 	O 	0.10399 0.26011 0.68546 -0.29600
C 	C 	0.13027 0.25104 0.80206 -0.09100
C 	C 	0.17990 0.20989 0.81699 0.05200
H 	H 	0.19100 0.20820 0.84220 0.04400
C 	C 	0.21259 0.17143 0.79349 -0.12000
C 	C 	0.19720 0.17435 0.75543 0.06000
H 	H 	0.21890 0.14850 0.74000 0.05000
C 	C 	0.14934 0.21598 0.74077 -0.10400
C 	C 	0.11560 0.25412 0.76431 0.04100
H 	H 	0.08300 0.28180 0.75460 0.04900
C 	C 	0.09615 0.29419 0.82614 0.31700
C 	C 	0.26440 0.12745 0.80970 0.43100
C 	C 	0.13614 0.21951 0.69985 0.32800
Ag	Ag	0.56703 0.90843 0.84211 0.51600
O 	O 	0.56642 0.83393 0.81138 -0.34100
O 	O 	0.60316 0.78766 0.86132 -0.35000
O 	O 	0.78795 0.62594 0.84207 -0.26600
O 	O 	0.78140 0.59088 0.78576 -0.58400
H 	H 	0.81090 0.56820 0.79240 0.39600
O 	O 	0.65900 0.68008 0.68134 -0.38900
O 	O 	0.60399 0.76011 0.68546 -0.29600
C 	C 	0.63027 0.75104 0.80206 -0.09100
C 	C 	0.67990 0.70989 0.81699 0.05200
H 	H 	0.69100 0.70820 0.84220 0.04400
C 	C 	0.71259 0.67143 0.79349 -0.12000
C 	C 	0.69720 0.67435 0.75543 0.06000
H 	H 	0.71890 0.64850 0.74000 0.05000
C 	C 	0.64934 0.71598 0.74077 -0.10400
C 	C 	0.61560 0.75412 0.76431 0.04100
H 	H 	0.58300 0.78180 0.75460 0.05000
C 	C 	0.59615 0.79419 0.82614 0.31700
C 	C 	0.76440 0.62745 0.80970 0.43100
C 	C 	0.63614 0.71951 0.69985 0.32800
Ag	Ag	0.56703 0.40843 0.34211 0.51600
O 	O 	0.56642 0.33393 0.31138 -0.34100
O 	O 	0.60316 0.28766 0.36132 -0.35000
O 	O 	0.78795 0.12594 0.34207 -0.26600
O 	O 	0.78140 0.09088 0.28576 -0.58400
H 	H 	0.81090 0.06820 0.29240 0.39600
O 	O 	0.65900 0.18008 0.18134 -0.38900
O 	O 	0.60399 0.26011 0.18546 -0.29600
C 	C 	0.63027 0.25104 0.30206 -0.09100
C 	C 	0.67990 0.20989 0.31699 0.05200
H 	H 	0.69100 0.20820 0.34220 0.04400
C 	C 	0.71259 0.17143 0.29349 -0.12000
C 	C 	0.69720 0.17435 0.25543 0.06000
H 	H 	0.71890 0.14850 0.24000 0.05000
C 	C 	0.64934 0.21598 0.24077 -0.10400
C 	C 	0.61560 0.25412 0.26431 0.04100
H 	H 	0.58300 0.28180 0.25460 0.05000
C 	C 	0.59615 0.29419 0.32614 0.31700
C 	C 	0.76440 0.12745 0.30970 0.43100
C 	C 	0.63614 0.21951 0.19985 0.32800
Ag	Ag	0.87500 0.43377 0.87500 0.51400
Ag	Ag	0.87500 0.93377 0.37500 0.51400
Ag	Ag	0.37500 0.43377 0.37500 0.51400
Ag	Ag	0.37500 0.93377 0.87500 0.51400
Ag	Ag	0.87500 0.31623 0.87500 0.51400
Ag	Ag	0.87500 0.81623 0.37500 0.51400
Ag	Ag	0.37500 0.31623 0.37500 0.51400
Ag	Ag	0.37500 0.81623 0.87500 0.51400
Ag	Ag	0.12500 0.56623 0.12500 0.51400
Ag	Ag	0.12500 0.06623 0.62500 0.51400
Ag	Ag	0.62500 0.56623 0.62500 0.51400
Ag	Ag	0.62500 0.06623 0.12500 0.51400
Ag	Ag	0.12500 0.68377 0.12500 0.51400
Ag	Ag	0.12500 0.18377 0.62500 0.51400
Ag	Ag	0.62500 0.68377 0.62500 0.51400
Ag	Ag	0.62500 0.18377 0.12500 0.51400
