data_crystal

_cell_length_a 14.33840
_cell_length_b 13.35220
_cell_length_c 12.34440
_cell_angle_alpha 90.00000
_cell_angle_beta  90.00000
_cell_angle_gamma 90.00000

_symmetry_space_group_name_	'P 1'
_symmetry_space_group_name_H-M	'P 1'

loop_
_symmetry_equiv_pos_as_xyz
  x,y,z

loop_
_atom_site_label
_atom_site_type_symbol
_atom_site_fract_x
_atom_site_fract_y
_atom_site_fract_z
_atom_site_charge
C 	C 	0.45810 0.48560 0.13020 -0.33400
C 	C 	0.31890 0.47090 0.91920 -0.23000
C 	C 	0.47240 0.48790 0.46850 -0.22000
C 	C 	0.36460 0.29460 0.36500 -0.21300
C 	C 	0.46890 0.29330 0.95910 -0.22700
Cu	Cu	0.44566 0.43738 0.96104 0.78900
Cu	Cu	0.37818 0.44357 0.36343 0.82700
N 	N 	0.42500 0.47120 0.21150 -0.18600
N 	N 	0.24540 0.49510 0.89330 -0.21100
C 	C 	0.04190 0.51440 0.63020 -0.33300
C 	C 	0.18110 0.52910 0.41920 -0.22900
C 	C 	0.02760 0.51210 0.96850 -0.21800
C 	C 	0.13540 0.70540 0.86500 -0.21200
C 	C 	0.03110 0.70670 0.45910 -0.22600
Cu	Cu	0.05434 0.56262 0.46104 0.79000
Cu	Cu	0.12182 0.55643 0.86343 0.82700
N 	N 	0.07500 0.52880 0.71150 -0.18600
N 	N 	0.25460 0.50490 0.39330 -0.21100
C 	C 	0.54190 0.98560 0.86980 -0.33300
C 	C 	0.68110 0.97090 0.08080 -0.22900
C 	C 	0.52760 0.98790 0.53150 -0.21900
C 	C 	0.63540 0.79460 0.63500 -0.21200
C 	C 	0.53110 0.79330 0.04090 -0.22600
Cu	Cu	0.55434 0.93738 0.03896 0.79000
Cu	Cu	0.62182 0.94357 0.63657 0.82700
N 	N 	0.57500 0.97120 0.78850 -0.18600
N 	N 	0.75460 0.99510 0.10670 -0.21200
C 	C 	0.95810 0.01440 0.36980 -0.33400
C 	C 	0.81890 0.02910 0.58080 -0.22900
C 	C 	0.97240 0.01210 0.03150 -0.21800
C 	C 	0.86460 0.20540 0.13500 -0.21200
C 	C 	0.96890 0.20670 0.54090 -0.22600
Cu	Cu	0.94566 0.06262 0.53896 0.79000
Cu	Cu	0.87818 0.05643 0.13657 0.82700
N 	N 	0.92500 0.02880 0.28850 -0.18600
N 	N 	0.74540 0.00490 0.60670 -0.21200
C 	C 	0.54190 0.51440 0.86980 -0.33300
C 	C 	0.68110 0.52910 0.08080 -0.22900
C 	C 	0.52760 0.51210 0.53150 -0.21900
C 	C 	0.63540 0.70540 0.63500 -0.21200
C 	C 	0.53110 0.70670 0.04090 -0.22600
Cu	Cu	0.55434 0.56262 0.03896 0.79000
Cu	Cu	0.62182 0.55643 0.63657 0.82700
N 	N 	0.57500 0.52880 0.78850 -0.18600
N 	N 	0.75460 0.50490 0.10670 -0.21100
C 	C 	0.95810 0.48560 0.36980 -0.33300
C 	C 	0.81890 0.47090 0.58080 -0.22900
C 	C 	0.97240 0.48790 0.03150 -0.21800
C 	C 	0.86460 0.29460 0.13500 -0.21200
C 	C 	0.96890 0.29330 0.54090 -0.22600
Cu	Cu	0.94566 0.43738 0.53896 0.79000
Cu	Cu	0.87818 0.44357 0.13657 0.82700
N 	N 	0.92500 0.47120 0.28850 -0.18600
N 	N 	0.74540 0.49510 0.60670 -0.21100
C 	C 	0.45810 0.01440 0.13020 -0.33300
C 	C 	0.31890 0.02910 0.91920 -0.22900
C 	C 	0.47240 0.01210 0.46850 -0.21900
C 	C 	0.36460 0.20540 0.36500 -0.21200
C 	C 	0.46890 0.20670 0.95910 -0.22600
Cu	Cu	0.44566 0.06262 0.96104 0.79000
Cu	Cu	0.37818 0.05643 0.36343 0.82700
N 	N 	0.42500 0.02880 0.21150 -0.18600
N 	N 	0.24540 0.00490 0.89330 -0.21200
C 	C 	0.04190 0.98560 0.63020 -0.33400
C 	C 	0.18110 0.97090 0.41920 -0.22900
C 	C 	0.02760 0.98790 0.96850 -0.21800
C 	C 	0.13540 0.79460 0.86500 -0.21200
C 	C 	0.03110 0.79330 0.45910 -0.22600
Cu	Cu	0.05434 0.93738 0.46104 0.79000
Cu	Cu	0.12182 0.94357 0.86343 0.82700
N 	N 	0.07500 0.97120 0.71150 -0.18600
N 	N 	0.25460 0.99510 0.39330 -0.21200
