data_crystal

_cell_length_a 8.19530
_cell_length_b 7.55770
_cell_length_c 13.45930
_cell_angle_alpha 90.00000
_cell_angle_beta  90.00000
_cell_angle_gamma 90.00000

_symmetry_space_group_name_	'P 1'
_symmetry_space_group_name_H-M	'P 1'

loop_
_symmetry_equiv_pos_as_xyz
  x,y,z

loop_
_atom_site_label
_atom_site_type_symbol
_atom_site_fract_x
_atom_site_fract_y
_atom_site_fract_z
_atom_site_charge
Cu	Cu	0.05634 0.09757 0.56530 0.78200
N 	N 	0.25140 0.24680 0.53810 -0.20100
C 	C 	0.85810 0.16680 0.48400 -0.34700
C 	C 	0.01500 0.08170 0.70850 -0.23400
Cu	Cu	0.44366 0.40243 0.06530 0.78200
N 	N 	0.24860 0.25320 0.03810 -0.20100
C 	C 	0.64190 0.33320 0.98400 -0.34800
C 	C 	0.48500 0.41830 0.20850 -0.23400
Cu	Cu	0.94366 0.09757 0.93470 0.78100
N 	N 	0.74860 0.24680 0.96190 -0.20100
C 	C 	0.14190 0.16680 0.01600 -0.34500
C 	C 	0.98500 0.08170 0.79150 -0.23500
Cu	Cu	0.55634 0.40243 0.43470 0.78200
N 	N 	0.75140 0.25320 0.46190 -0.20000
C 	C 	0.35810 0.33320 0.51600 -0.34700
C 	C 	0.51500 0.41830 0.29150 -0.23400
Cu	Cu	0.94366 0.90243 0.43470 0.78200
N 	N 	0.74860 0.75320 0.46190 -0.20100
C 	C 	0.14190 0.83320 0.51600 -0.34700
C 	C 	0.98500 0.91830 0.29150 -0.23400
Cu	Cu	0.55634 0.59757 0.93470 0.78200
N 	N 	0.75140 0.74680 0.96190 -0.20100
C 	C 	0.35810 0.66680 0.01600 -0.34800
C 	C 	0.51500 0.58170 0.79150 -0.23400
Cu	Cu	0.05634 0.90243 0.06530 0.78100
N 	N 	0.25140 0.75320 0.03810 -0.20100
C 	C 	0.85810 0.83320 0.98400 -0.34500
C 	C 	0.01500 0.91830 0.20850 -0.23500
Cu	Cu	0.44366 0.59757 0.56530 0.78200
N 	N 	0.24860 0.74680 0.53810 -0.20000
C 	C 	0.64190 0.66680 0.48400 -0.34700
C 	C 	0.48500 0.58170 0.70850 -0.23400
