data_crystal

_cell_length_a 7.00120
_cell_length_b 16.00200
_cell_length_c 16.00200
_cell_angle_alpha 62.08920
_cell_angle_beta  81.61410
_cell_angle_gamma 98.38590

_symmetry_space_group_name_	'P 1'
_symmetry_space_group_name_H-M	'P 1'

loop_
_symmetry_equiv_pos_as_xyz
  x,y,z

loop_
_atom_site_label
_atom_site_type_symbol
_atom_site_fract_x
_atom_site_fract_y
_atom_site_fract_z
_atom_site_charge
Dy	Dy	0.28898 0.06436 0.84684 1.92200
Dy	Dy	0.13582 0.84684 0.08880 1.83800
Dy	Dy	0.22462 0.08880 0.06436 2.01700
Dy	Dy	0.71102 0.93564 0.15316 1.80800
Dy	Dy	0.86418 0.15316 0.91120 1.87300
Dy	Dy	0.77538 0.91120 0.93564 1.73300
Cu	Cu	0.50000 1.00000 0.50000 0.86000
Cu	Cu	-0.00000 0.50000 0.50000 0.88300
Cu	Cu	0.50000 0.50000 -0.00000 0.91700
H 	H 	0.84540 0.91120 0.57710 0.03800
H 	H 	0.95600 0.87510 0.71560 -0.00900
H 	H 	0.42250 0.57710 0.51170 0.04400
H 	H 	0.67160 0.71560 0.40930 -0.00200
H 	H 	0.93420 0.51170 0.91120 0.04300
H 	H 	0.08090 0.40930 0.87510 -0.02900
H 	H 	0.15460 0.08880 0.42290 0.05400
H 	H 	0.04400 0.12490 0.28440 0.00100
H 	H 	0.57750 0.42290 0.48830 0.04700
H 	H 	0.32840 0.28440 0.59070 -0.00400
H 	H 	0.06580 0.48830 0.08880 0.04000
H 	H 	0.91910 0.59070 0.12490 0.03500
C 	C 	0.61450 0.97010 0.75660 0.31800
C 	C 	0.54110 0.98740 0.67370 -0.28400
C 	C 	0.78280 0.92480 0.62310 -0.06400
C 	C 	0.85040 0.90480 0.70540 0.07700
C 	C 	0.36750 0.03030 0.64880 0.49200
C 	C 	0.37110 0.75660 0.27330 0.29400
C 	C 	0.21480 0.67370 0.33890 -0.19700
C 	C 	0.40590 0.62310 0.45210 -0.05400
C 	C 	0.55580 0.70540 0.38980 0.08000
C 	C 	0.01630 0.64880 0.32090 0.36900
C 	C 	0.64440 0.27330 0.97010 0.32200
C 	C 	0.55370 0.33890 0.98740 -0.28300
C 	C 	0.85800 0.45210 0.92480 -0.07700
C 	C 	0.94560 0.38980 0.90480 0.10700
C 	C 	0.33720 0.32090 0.03030 0.49300
C 	C 	0.38550 0.02990 0.24340 0.28600
C 	C 	0.45890 0.01260 0.32630 -0.12200
C 	C 	0.21720 0.07520 0.37690 -0.04400
C 	C 	0.14960 0.09520 0.29460 0.09200
C 	C 	0.63250 0.96970 0.35120 0.33700
C 	C 	0.62890 0.24340 0.72670 0.31000
C 	C 	0.78520 0.32630 0.66110 -0.21400
C 	C 	0.59410 0.37690 0.54790 -0.05400
C 	C 	0.44420 0.29460 0.61020 0.08800
C 	C 	0.98370 0.35120 0.67910 0.45500
C 	C 	0.35560 0.72670 0.02990 0.28500
C 	C 	0.44630 0.66110 0.01260 -0.13600
C 	C 	0.14200 0.54790 0.07520 -0.02200
C 	C 	0.05440 0.61020 0.09520 0.03900
C 	C 	0.66280 0.67910 0.96970 0.34800
N 	N 	0.76950 0.92670 0.77080 -0.27000
N 	N 	0.62660 0.96410 0.60990 -0.16400
N 	N 	0.54030 0.77080 0.30250 -0.26200
N 	N 	0.23650 0.60990 0.42600 -0.16900
N 	N 	0.84280 0.30250 0.92670 -0.27900
N 	N 	0.66250 0.42600 0.96410 -0.16700
N 	N 	0.23050 0.07330 0.22920 -0.26000
N 	N 	0.37340 0.03590 0.39010 -0.15900
N 	N 	0.45970 0.22920 0.69750 -0.26700
N 	N 	0.76350 0.39010 0.57400 -0.16000
N 	N 	0.15720 0.69750 0.07330 -0.24800
N 	N 	0.33750 0.57400 0.03590 -0.17100
O 	O 	0.54828 0.99113 0.82149 -0.59600
O 	O 	0.27199 0.05107 0.70500 -0.46200
O 	O 	0.32417 0.04037 0.57136 -0.42100
O 	O 	0.10676 0.90130 0.92372 -0.70000
O 	O 	0.36977 0.82149 0.18738 -0.55400
O 	O 	0.97699 0.70500 0.24393 -0.42800
O 	O 	0.89553 0.57136 0.38827 -0.40800
O 	O 	0.03048 0.92372 0.17498 -0.70400
O 	O 	0.55715 0.18738 0.99113 -0.59900
O 	O 	0.22092 0.24393 0.05107 -0.47400
O 	O 	0.28380 0.38827 0.04037 -0.43600
O 	O 	0.20546 0.17498 0.90130 -0.69800
O 	O 	0.45172 0.00887 0.17851 -0.50400
O 	O 	0.72801 0.94893 0.29500 -0.46100
O 	O 	0.67583 0.95963 0.42864 -0.43700
O 	O 	0.89324 0.09870 0.07628 -0.60300
O 	O 	0.63023 0.17851 0.81262 -0.55000
O 	O 	0.02301 0.29500 0.75607 -0.48500
O 	O 	0.10447 0.42864 0.61173 -0.45400
O 	O 	0.96952 0.07628 0.82502 -0.61900
O 	O 	0.44285 0.81262 0.00887 -0.50900
O 	O 	0.77908 0.75607 0.94893 -0.45200
O 	O 	0.71620 0.61173 0.95963 -0.44600
O 	O 	0.79454 0.82502 0.09870 -0.61600
O 	O 	0.31923 0.00000 -0.00000 -0.73000
O 	O 	0.68077 1.00000 -0.00000 -0.78600
O 	O 	-0.00000 0.00000 -0.00000 -0.64200
