data_crystal

_cell_length_a 14.88250
_cell_length_b 23.32810
_cell_length_c 9.10870
_cell_angle_alpha 90.00000
_cell_angle_beta  90.00000
_cell_angle_gamma 90.00000

_symmetry_space_group_name_	'P 1'
_symmetry_space_group_name_H-M	'P 1'

loop_
_symmetry_equiv_pos_as_xyz
  x,y,z

loop_
_atom_site_label
_atom_site_type_symbol
_atom_site_fract_x
_atom_site_fract_y
_atom_site_fract_z
_atom_site_charge
Fe	Fe	0.57784 0.05464 0.26258 1.25400
Cl	Cl	0.68191 0.99408 0.16597 -0.44200
O 	O 	0.66363 0.12498 0.20788 -0.29600
O 	O 	0.63440 0.07199 0.46158 -0.26700
C 	C 	0.70883 0.14183 0.31480 0.24100
C 	C 	0.69113 0.11189 0.46190 0.23100
O 	O 	0.73414 0.13020 0.56996 -0.25900
O 	O 	0.76842 0.18048 0.31479 -0.32300
Fe	Fe	0.57784 0.55464 0.76258 1.25300
Cl	Cl	0.68191 0.49408 0.66597 -0.35800
O 	O 	0.66363 0.62498 0.70788 -0.26600
O 	O 	0.63440 0.57199 0.96158 -0.27900
C 	C 	0.70883 0.64183 0.81480 0.20300
C 	C 	0.69113 0.61189 0.96190 0.38900
O 	O 	0.73414 0.63020 0.06996 -0.39400
O 	O 	0.76842 0.68048 0.81479 -0.26500
Fe	Fe	0.07784 0.05464 0.76258 1.26200
Cl	Cl	0.18191 0.99408 0.66597 -0.37700
O 	O 	0.16363 0.12498 0.70788 -0.25800
O 	O 	0.13440 0.07199 0.96158 -0.27000
C 	C 	0.20883 0.14183 0.81480 0.20400
C 	C 	0.19113 0.11189 0.96190 0.39000
O 	O 	0.23414 0.13020 0.06996 -0.39100
O 	O 	0.26842 0.18048 0.81479 -0.26100
Fe	Fe	0.07784 0.55464 0.26258 1.25400
Cl	Cl	0.18191 0.49408 0.16597 -0.41400
O 	O 	0.16363 0.62498 0.20788 -0.29400
O 	O 	0.13440 0.57199 0.46158 -0.26800
C 	C 	0.20883 0.64183 0.31480 0.24100
C 	C 	0.19113 0.61189 0.46190 0.23200
O 	O 	0.23414 0.63020 0.56996 -0.25800
O 	O 	0.26842 0.68048 0.31479 -0.32200
Fe	Fe	0.42216 0.94536 0.26258 1.23900
Cl	Cl	0.31809 0.00592 0.16597 -0.39400
O 	O 	0.33637 0.87502 0.20788 -0.30000
O 	O 	0.36560 0.92801 0.46158 -0.28000
C 	C 	0.29117 0.85817 0.31480 0.23900
C 	C 	0.30887 0.88811 0.46190 0.23200
O 	O 	0.26586 0.86980 0.56996 -0.26200
O 	O 	0.23158 0.81952 0.31479 -0.32100
Fe	Fe	0.42216 0.44536 0.76258 1.25300
Cl	Cl	0.31809 0.50592 0.66597 -0.35400
O 	O 	0.33637 0.37502 0.70788 -0.26400
O 	O 	0.36560 0.42801 0.96158 -0.27900
C 	C 	0.29117 0.35817 0.81480 0.20300
C 	C 	0.30887 0.38811 0.96190 0.39000
O 	O 	0.26586 0.36980 0.06996 -0.39400
O 	O 	0.23158 0.31952 0.81479 -0.26100
Fe	Fe	0.92216 0.94536 0.76258 1.23300
Cl	Cl	0.81809 0.00592 0.66597 -0.33900
O 	O 	0.83637 0.87502 0.70788 -0.27200
O 	O 	0.86560 0.92801 0.96158 -0.29500
C 	C 	0.79117 0.85817 0.81480 0.20100
C 	C 	0.80887 0.88811 0.96190 0.38900
O 	O 	0.76586 0.86980 0.06996 -0.39700
O 	O 	0.73158 0.81952 0.81479 -0.26400
Fe	Fe	0.92216 0.44536 0.26258 1.24000
Cl	Cl	0.81809 0.50592 0.16597 -0.42000
O 	O 	0.83637 0.37502 0.20788 -0.30200
O 	O 	0.86560 0.42801 0.46158 -0.28000
C 	C 	0.79117 0.35817 0.31480 0.23900
C 	C 	0.80887 0.38811 0.46190 0.23100
O 	O 	0.76586 0.36980 0.56996 -0.26200
O 	O 	0.73158 0.31952 0.31479 -0.32300
Fe	Fe	0.82784 0.19536 0.51258 1.25100
Cl	Cl	0.93191 0.25592 0.41597 -0.39700
O 	O 	0.91363 0.12502 0.45788 -0.28000
O 	O 	0.88440 0.17801 0.71158 -0.27000
C 	C 	0.95883 0.10817 0.56480 0.20700
C 	C 	0.94113 0.13811 0.71190 0.24000
O 	O 	0.98414 0.11980 0.81996 -0.27000
O 	O 	0.01842 0.06952 0.56479 -0.27800
Fe	Fe	0.82784 0.69536 0.01258 1.18800
Cl	Cl	0.93191 0.75592 0.91597 -0.30800
O 	O 	0.91363 0.62502 0.95788 -0.12700
O 	O 	0.88440 0.67801 0.21158 -0.31200
C 	C 	0.95883 0.60817 0.06480 0.05200
C 	C 	0.94113 0.63811 0.21190 0.27800
O 	O 	0.98414 0.61980 0.31996 -0.29800
O 	O 	0.01842 0.56952 0.06479 -0.27100
Fe	Fe	0.32784 0.19536 0.01258 1.18700
Cl	Cl	0.43191 0.25592 0.91597 -0.29100
O 	O 	0.41363 0.12502 0.95788 -0.12600
O 	O 	0.38440 0.17801 0.21158 -0.30500
C 	C 	0.45883 0.10817 0.06480 0.08300
C 	C 	0.44113 0.13811 0.21190 0.27100
O 	O 	0.48414 0.11980 0.31996 -0.27800
O 	O 	0.51842 0.06952 0.06479 -0.29200
Fe	Fe	0.32784 0.69536 0.51258 1.25100
Cl	Cl	0.43191 0.75592 0.41597 -0.38300
O 	O 	0.41363 0.62502 0.45788 -0.28700
O 	O 	0.38440 0.67801 0.71158 -0.26300
C 	C 	0.45883 0.60817 0.56480 0.24100
C 	C 	0.44113 0.63811 0.71190 0.23100
O 	O 	0.48414 0.61980 0.81996 -0.25100
O 	O 	0.51842 0.56952 0.56479 -0.31300
Fe	Fe	0.67216 0.30464 0.51258 1.25100
Cl	Cl	0.56809 0.24408 0.41597 -0.38200
O 	O 	0.58637 0.37498 0.45788 -0.28700
O 	O 	0.61560 0.32199 0.71158 -0.26400
C 	C 	0.54117 0.39183 0.56480 0.24100
C 	C 	0.55887 0.36189 0.71190 0.23200
O 	O 	0.51586 0.38020 0.81996 -0.25100
O 	O 	0.48158 0.43048 0.56479 -0.31300
Fe	Fe	0.67216 0.80464 0.01258 1.18700
Cl	Cl	0.56809 0.74408 0.91597 -0.29200
O 	O 	0.58637 0.87498 0.95788 -0.13200
O 	O 	0.61560 0.82199 0.21158 -0.30700
C 	C 	0.54117 0.89183 0.06480 0.08600
C 	C 	0.55887 0.86189 0.21190 0.26900
O 	O 	0.51586 0.88020 0.31996 -0.28300
O 	O 	0.48158 0.93048 0.06479 -0.30800
Fe	Fe	0.17216 0.30464 0.01258 1.18800
Cl	Cl	0.06809 0.24408 0.91597 -0.27800
O 	O 	0.08637 0.37498 0.95788 -0.13300
O 	O 	0.11560 0.32199 0.21158 -0.30000
C 	C 	0.04117 0.39183 0.06480 0.11800
C 	C 	0.05887 0.36189 0.21190 0.26200
O 	O 	0.01586 0.38020 0.31996 -0.26300
O 	O 	0.98158 0.43048 0.06479 -0.32900
Fe	Fe	0.17216 0.80464 0.51258 1.25100
Cl	Cl	0.06809 0.74408 0.41597 -0.36800
O 	O 	0.08637 0.87498 0.45788 -0.29400
O 	O 	0.11560 0.82199 0.71158 -0.25800
C 	C 	0.04117 0.89183 0.56480 0.27700
C 	C 	0.05887 0.86189 0.71190 0.22300
O 	O 	0.01586 0.88020 0.81996 -0.23800
O 	O 	0.98158 0.93048 0.56479 -0.35300
O 	O 	0.50000 0.00000 0.34370 -0.43100
O 	O 	0.50000 0.50000 0.84370 -0.43000
O 	O 	0.00000 0.00000 0.84370 -0.40000
O 	O 	-0.00000 0.50000 0.34370 -0.43200
O 	O 	0.75000 0.25000 0.59370 -0.44200
O 	O 	0.75000 0.75000 0.09370 -0.48800
O 	O 	0.25000 0.25000 0.09370 -0.48600
O 	O 	0.25000 0.75000 0.59370 -0.44100
