data_crystal

_cell_length_a 27.86000
_cell_length_b 27.86000
_cell_length_c 53.54000
_cell_angle_alpha 90.00000
_cell_angle_beta  90.00000
_cell_angle_gamma 90.00000

_symmetry_space_group_name_	'P 1'
_symmetry_space_group_name_H-M	'P 1'

loop_
_symmetry_equiv_pos_as_xyz
  x,y,z

loop_
_atom_site_label
_atom_site_type_symbol
_atom_site_fract_x
_atom_site_fract_y
_atom_site_fract_z
_atom_site_charge
O 	O 	0.54969 0.29924 0.14609 -0.39500
O 	O 	0.78782 0.69996 0.22367 -0.41700
O 	O 	0.70859 0.70004 0.22489 -0.40700
C 	C 	0.74807 0.68440 0.21668 0.43100
C 	C 	0.74662 0.64550 0.19861 -0.23800
C 	C 	0.78790 0.62490 0.18901 0.17400
H 	H 	0.81730 0.63630 0.19470 -0.01300
C 	C 	0.78780 0.58930 0.17180 -0.24000
H 	H 	0.81690 0.57670 0.16640 0.11900
C 	C 	0.74630 0.57170 0.16227 0.17200
C 	C 	0.70520 0.58960 0.17203 -0.25500
H 	H 	0.67590 0.57670 0.16710 0.13200
C 	C 	0.70580 0.62630 0.18910 0.22700
C 	C 	0.74570 0.53370 0.14296 -0.04100
C 	C 	0.71050 0.49760 0.14286 -0.03100
H 	H 	0.68640 0.49780 0.15490 0.04500
C 	C 	0.65480 0.40550 0.10280 -0.23500
H 	H 	0.66620 0.41680 0.08760 0.12800
C 	C 	0.62010 0.37170 0.10297 0.21300
N 	N 	0.60320 0.36290 0.07760 -0.10500
N 	N 	0.65820 0.64640 0.19410 -0.11600
C 	C 	0.89820 0.79060 0.24920 5.03700
H 	H 	0.88160 0.81960 0.24970 -1.69200
C 	C 	0.94760 0.79120 0.24930 -5.28100
H 	H 	0.96370 0.82040 0.25010 1.91900
C 	C 	0.89800 0.73130 0.22787 -1.89200
H 	H 	0.88110 0.71920 0.21430 0.73900
C 	C 	0.94790 0.73070 0.22780 1.66200
H 	H 	0.96440 0.71790 0.21430 -0.59600
C 	C 	0.94850 0.76690 0.26863 1.89200
H 	H 	0.96540 0.77830 0.28240 -0.68900
C 	C 	0.89860 0.76750 0.26871 -2.10900
H 	H 	0.88220 0.77960 0.28240 0.82700
O 	O 	0.04969 0.79924 0.64609 -0.40100
O 	O 	0.28782 0.19996 0.72367 -0.42100
O 	O 	0.20859 0.20004 0.72489 -0.41000
C 	C 	0.24807 0.18440 0.71668 0.42800
C 	C 	0.24662 0.14550 0.69861 -0.23700
C 	C 	0.28790 0.12490 0.68901 0.16700
H 	H 	0.31730 0.13630 0.69470 -0.01200
C 	C 	0.28780 0.08930 0.67180 -0.23700
H 	H 	0.31690 0.07670 0.66640 0.11500
C 	C 	0.24630 0.07170 0.66227 0.16700
C 	C 	0.20520 0.08960 0.67203 -0.25300
H 	H 	0.17590 0.07670 0.66710 0.12700
C 	C 	0.20580 0.12630 0.68910 0.22000
C 	C 	0.24570 0.03370 0.64296 -0.04200
C 	C 	0.21050 0.99760 0.64286 -0.03300
H 	H 	0.18640 0.99780 0.65490 0.04200
C 	C 	0.15480 0.90550 0.60280 -0.23600
H 	H 	0.16620 0.91680 0.58760 0.12500
C 	C 	0.12010 0.87170 0.60297 0.21000
N 	N 	0.10320 0.86290 0.57760 -0.10900
N 	N 	0.15820 0.14640 0.69410 -0.11100
C 	C 	0.39820 0.29060 0.74920 1.05200
H 	H 	0.38160 0.31960 0.74970 -0.32500
C 	C 	0.44760 0.29120 0.74930 -1.08500
H 	H 	0.46370 0.32040 0.75010 0.40100
C 	C 	0.39800 0.23130 0.72787 -0.40400
H 	H 	0.38110 0.21920 0.71430 0.18300
C 	C 	0.44790 0.23070 0.72780 0.33000
H 	H 	0.46440 0.21790 0.71430 -0.10000
C 	C 	0.44850 0.26690 0.76863 0.37900
H 	H 	0.46540 0.27830 0.78240 -0.11500
C 	C 	0.39860 0.26750 0.76871 -0.45100
H 	H 	0.38220 0.27960 0.78240 0.21100
O 	O 	0.95031 0.70076 0.64609 -0.38600
O 	O 	0.71218 0.30004 0.72367 -0.42100
O 	O 	0.79141 0.29996 0.72489 -0.40600
C 	C 	0.75193 0.31560 0.71668 0.43000
C 	C 	0.75338 0.35450 0.69861 -0.24000
C 	C 	0.71210 0.37510 0.68901 0.17100
H 	H 	0.68270 0.36370 0.69470 -0.01300
C 	C 	0.71220 0.41070 0.67180 -0.24100
H 	H 	0.68310 0.42330 0.66640 0.11600
C 	C 	0.75370 0.42830 0.66227 0.17200
C 	C 	0.79480 0.41040 0.67203 -0.25900
H 	H 	0.82410 0.42330 0.66710 0.13400
C 	C 	0.79420 0.37370 0.68910 0.23200
C 	C 	0.75430 0.46630 0.64296 -0.04300
C 	C 	0.78950 0.50240 0.64286 -0.03200
H 	H 	0.81360 0.50220 0.65490 0.04600
C 	C 	0.84520 0.59450 0.60280 -0.23500
H 	H 	0.83380 0.58320 0.58760 0.12800
C 	C 	0.87990 0.62830 0.60297 0.21300
N 	N 	0.89680 0.63710 0.57760 -0.10300
N 	N 	0.84180 0.35360 0.69410 -0.12400
C 	C 	0.60180 0.20940 0.74920 0.25100
H 	H 	0.61840 0.18040 0.74970 -0.04900
C 	C 	0.55240 0.20880 0.74930 -0.24200
H 	H 	0.53630 0.17960 0.75010 0.09800
C 	C 	0.60200 0.26870 0.72787 -0.10300
H 	H 	0.61890 0.28080 0.71430 0.07000
C 	C 	0.55210 0.26930 0.72780 0.06000
H 	H 	0.53560 0.28210 0.71430 0.00200
C 	C 	0.55150 0.23310 0.76863 0.07300
H 	H 	0.53460 0.22170 0.78240 0.00200
C 	C 	0.60140 0.23250 0.76871 -0.11700
H 	H 	0.61780 0.22040 0.78240 0.08600
O 	O 	0.45031 0.20076 0.14609 -0.39600
O 	O 	0.21218 0.80004 0.22367 -0.42400
O 	O 	0.29141 0.79996 0.22489 -0.40800
C 	C 	0.25193 0.81560 0.21668 0.42900
C 	C 	0.25338 0.85450 0.19861 -0.23800
C 	C 	0.21210 0.87510 0.18901 0.16500
H 	H 	0.18270 0.86370 0.19470 -0.01100
C 	C 	0.21220 0.91070 0.17180 -0.23700
H 	H 	0.18310 0.92330 0.16640 0.11300
C 	C 	0.25370 0.92830 0.16227 0.16800
C 	C 	0.29480 0.91040 0.17203 -0.25500
H 	H 	0.32410 0.92330 0.16710 0.13000
C 	C 	0.29420 0.87370 0.18910 0.22500
C 	C 	0.25430 0.96630 0.14296 -0.04200
C 	C 	0.28950 0.00240 0.14286 -0.03300
H 	H 	0.31360 0.00220 0.15490 0.04400
C 	C 	0.34520 0.09450 0.10280 -0.23600
H 	H 	0.33380 0.08320 0.08760 0.12600
C 	C 	0.37990 0.12830 0.10297 0.21100
N 	N 	0.39680 0.13710 0.07760 -0.10600
N 	N 	0.34180 0.85360 0.19410 -0.11800
C 	C 	0.10180 0.70940 0.24920 -3.73300
H 	H 	0.11840 0.68040 0.24970 1.31900
C 	C 	0.05240 0.70880 0.24930 3.95500
H 	H 	0.03630 0.67960 0.25010 -1.41900
C 	C 	0.10200 0.76870 0.22787 1.38600
H 	H 	0.11890 0.78080 0.21430 -0.48500
C 	C 	0.05210 0.76930 0.22780 -1.27100
H 	H 	0.03560 0.78210 0.21430 0.49900
C 	C 	0.05150 0.73310 0.26863 -1.43900
H 	H 	0.03460 0.72170 0.28240 0.57500
C 	C 	0.10140 0.73250 0.26871 1.54100
H 	H 	0.11780 0.72040 0.28240 -0.53000
O 	O 	0.95076 0.29969 0.39609 -0.38600
O 	O 	0.55004 0.53782 0.47367 -0.42100
O 	O 	0.54996 0.45859 0.47489 -0.40800
C 	C 	0.56560 0.49807 0.46668 0.43000
C 	C 	0.60450 0.49662 0.44861 -0.23800
C 	C 	0.62510 0.53790 0.43901 0.16900
H 	H 	0.61370 0.56730 0.44470 -0.01300
C 	C 	0.66070 0.53780 0.42180 -0.23900
H 	H 	0.67330 0.56690 0.41640 0.11600
C 	C 	0.67830 0.49630 0.41227 0.17000
C 	C 	0.66040 0.45520 0.42203 -0.25600
H 	H 	0.67330 0.42590 0.41710 0.13100
C 	C 	0.62370 0.45580 0.43910 0.22600
C 	C 	0.71630 0.49570 0.39296 -0.04200
C 	C 	0.75240 0.46050 0.39286 -0.03300
H 	H 	0.75220 0.43640 0.40490 0.04400
C 	C 	0.84450 0.40480 0.35280 -0.23500
H 	H 	0.83320 0.41620 0.33760 0.12800
C 	C 	0.87830 0.37010 0.35297 0.21300
N 	N 	0.88710 0.35320 0.32760 -0.10300
N 	N 	0.60360 0.40820 0.44410 -0.11700
C 	C 	0.45940 0.64820 0.49920 0.65100
H 	H 	0.43040 0.63160 0.49970 -0.18700
C 	C 	0.45880 0.69760 0.49930 -0.66400
H 	H 	0.42960 0.71370 0.50010 0.24900
C 	C 	0.51870 0.64800 0.47787 -0.25300
H 	H 	0.53080 0.63110 0.46430 0.12700
C 	C 	0.51930 0.69790 0.47780 0.19500
H 	H 	0.53210 0.71440 0.46430 -0.04900
C 	C 	0.48310 0.69850 0.51863 0.22600
H 	H 	0.47170 0.71540 0.53240 -0.05700
C 	C 	0.48250 0.64860 0.51871 -0.28400
H 	H 	0.47040 0.63220 0.53240 0.14800
O 	O 	0.45076 0.79969 0.89609 -0.39600
O 	O 	0.05004 0.03782 0.97367 -0.42500
O 	O 	0.04996 0.95859 0.97489 -0.41100
C 	C 	0.06560 0.99807 0.96668 0.42800
C 	C 	0.10450 0.99662 0.94861 -0.24000
C 	C 	0.12510 0.03790 0.93901 0.16800
H 	H 	0.11370 0.06730 0.94470 -0.01300
C 	C 	0.16070 0.03780 0.92180 -0.24000
H 	H 	0.17330 0.06690 0.91640 0.11500
C 	C 	0.17830 0.99630 0.91227 0.16900
C 	C 	0.16040 0.95520 0.92203 -0.25600
H 	H 	0.17330 0.92590 0.91710 0.12900
C 	C 	0.12370 0.95580 0.93910 0.22500
C 	C 	0.21630 0.99570 0.89296 -0.04300
C 	C 	0.25240 0.96050 0.89286 -0.03300
H 	H 	0.25220 0.93640 0.90490 0.04400
C 	C 	0.34450 0.90480 0.85280 -0.23600
H 	H 	0.33320 0.91620 0.83760 0.12600
C 	C 	0.37830 0.87010 0.85297 0.21100
N 	N 	0.38710 0.85320 0.82760 -0.10700
N 	N 	0.10360 0.90820 0.94410 -0.11900
C 	C 	0.95940 0.14820 0.99920 0.73500
H 	H 	0.93040 0.13160 0.99970 -0.21300
C 	C 	0.95880 0.19760 0.99930 -0.53100
H 	H 	0.92960 0.21370 0.00010 0.20800
C 	C 	0.01870 0.14800 0.97787 -0.17100
H 	H 	0.03080 0.13110 0.96430 0.09300
C 	C 	0.01930 0.19790 0.97780 0.28000
H 	H 	0.03210 0.21440 0.96430 -0.08100
C 	C 	0.98310 0.19850 0.01863 0.09200
H 	H 	0.97170 0.21540 0.03240 -0.00600
C 	C 	0.98250 0.14860 0.01871 -0.41100
H 	H 	0.97040 0.13220 0.03240 0.19700
O 	O 	0.54924 0.70031 0.89609 -0.39600
O 	O 	0.94996 0.46218 0.97367 -0.41200
O 	O 	0.95004 0.54141 0.97489 -0.39900
C 	C 	0.93440 0.50193 0.96668 0.42800
C 	C 	0.89550 0.50338 0.94861 -0.23600
C 	C 	0.87490 0.46210 0.93901 0.16900
H 	H 	0.88630 0.43270 0.94470 -0.01100
C 	C 	0.83930 0.46220 0.92180 -0.23800
H 	H 	0.82670 0.43310 0.91640 0.11500
C 	C 	0.82170 0.50370 0.91227 0.17000
C 	C 	0.83960 0.54480 0.92203 -0.25500
H 	H 	0.82670 0.57410 0.91710 0.13100
C 	C 	0.87630 0.54420 0.93910 0.22600
C 	C 	0.78370 0.50430 0.89296 -0.04200
C 	C 	0.74760 0.53950 0.89286 -0.03300
H 	H 	0.74780 0.56360 0.90490 0.04400
C 	C 	0.65550 0.59520 0.85280 -0.23600
H 	H 	0.66680 0.58380 0.83760 0.12700
C 	C 	0.62170 0.62990 0.85297 0.21200
N 	N 	0.61290 0.64680 0.82760 -0.10600
N 	N 	0.89640 0.59180 0.94410 -0.11600
C 	C 	0.04060 0.35180 0.99920 0.54000
H 	H 	0.06960 0.36840 0.99970 -0.15000
C 	C 	0.04120 0.30240 0.99930 -0.74600
H 	H 	0.07040 0.28630 0.00010 0.27600
C 	C 	0.98130 0.35200 0.97787 -0.32200
H 	H 	0.96920 0.36890 0.96430 0.15600
C 	C 	0.98070 0.30210 0.97780 0.10800
H 	H 	0.96790 0.28560 0.96430 -0.01400
C 	C 	0.01690 0.30150 0.01863 0.35700
H 	H 	0.02830 0.28460 0.03240 -0.10400
C 	C 	0.01750 0.35140 0.01871 -0.14000
H 	H 	0.02960 0.36780 0.03240 0.09400
O 	O 	0.04924 0.20031 0.39609 -0.40100
O 	O 	0.44996 0.96218 0.47367 -0.42100
O 	O 	0.45004 0.04141 0.47489 -0.40800
C 	C 	0.43440 0.00193 0.46668 0.42900
C 	C 	0.39550 0.00338 0.44861 -0.23800
C 	C 	0.37490 0.96210 0.43901 0.16900
H 	H 	0.38630 0.93270 0.44470 -0.01300
C 	C 	0.33930 0.96220 0.42180 -0.23900
H 	H 	0.32670 0.93310 0.41640 0.11500
C 	C 	0.32170 0.00370 0.41227 0.16900
C 	C 	0.33960 0.04480 0.42203 -0.25600
H 	H 	0.32670 0.07410 0.41710 0.13000
C 	C 	0.37630 0.04420 0.43910 0.22600
C 	C 	0.28370 0.00430 0.39296 -0.04300
C 	C 	0.24760 0.03950 0.39286 -0.03300
H 	H 	0.24780 0.06360 0.40490 0.04400
C 	C 	0.15550 0.09520 0.35280 -0.23600
H 	H 	0.16680 0.08380 0.33760 0.12500
C 	C 	0.12170 0.12990 0.35297 0.21000
N 	N 	0.11290 0.14680 0.32760 -0.10900
N 	N 	0.39640 0.09180 0.44410 -0.11700
C 	C 	0.54060 0.85180 0.49920 0.65100
H 	H 	0.56960 0.86840 0.49970 -0.18700
C 	C 	0.54120 0.80240 0.49930 -0.66300
H 	H 	0.57040 0.78630 0.50010 0.25000
C 	C 	0.48130 0.85200 0.47787 -0.25300
H 	H 	0.46920 0.86890 0.46430 0.12600
C 	C 	0.48070 0.80210 0.47780 0.19500
H 	H 	0.46790 0.78560 0.46430 -0.04900
C 	C 	0.51690 0.80150 0.51863 0.22600
H 	H 	0.52830 0.78460 0.53240 -0.05700
C 	C 	0.51750 0.85140 0.51871 -0.28400
H 	H 	0.52960 0.86780 0.53240 0.14800
O 	O 	0.95031 0.29924 0.35391 -0.38600
O 	O 	0.71218 0.69996 0.27633 -0.42100
O 	O 	0.79141 0.70004 0.27511 -0.40600
C 	C 	0.75193 0.68440 0.28332 0.43000
C 	C 	0.75338 0.64550 0.30139 -0.24000
C 	C 	0.71210 0.62490 0.31099 0.17100
H 	H 	0.68270 0.63630 0.30530 -0.01300
C 	C 	0.71220 0.58930 0.32820 -0.24100
H 	H 	0.68310 0.57670 0.33360 0.11600
C 	C 	0.75370 0.57170 0.33773 0.17200
C 	C 	0.79480 0.58960 0.32797 -0.25900
H 	H 	0.82410 0.57670 0.33290 0.13400
C 	C 	0.79420 0.62630 0.31090 0.23200
C 	C 	0.75430 0.53370 0.35704 -0.04300
C 	C 	0.78950 0.49760 0.35714 -0.03200
H 	H 	0.81360 0.49780 0.34510 0.04600
C 	C 	0.84520 0.40550 0.39720 -0.23500
H 	H 	0.83380 0.41680 0.41240 0.12800
C 	C 	0.87990 0.37170 0.39703 0.21300
N 	N 	0.89680 0.36290 0.42240 -0.10300
N 	N 	0.84180 0.64640 0.30590 -0.12400
C 	C 	0.60180 0.79060 0.25080 0.25100
H 	H 	0.61840 0.81960 0.25030 -0.04900
C 	C 	0.55240 0.79120 0.25070 -0.24200
H 	H 	0.53630 0.82040 0.24990 0.09800
C 	C 	0.60200 0.73130 0.27213 -0.10300
H 	H 	0.61890 0.71920 0.28570 0.07000
C 	C 	0.55210 0.73070 0.27220 0.06000
H 	H 	0.53560 0.71790 0.28570 0.00200
C 	C 	0.55150 0.76690 0.23137 0.07300
H 	H 	0.53460 0.77830 0.21760 0.00200
C 	C 	0.60140 0.76750 0.23129 -0.11700
H 	H 	0.61780 0.77960 0.21760 0.08600
O 	O 	0.45031 0.79924 0.85391 -0.39600
O 	O 	0.21218 0.19996 0.77633 -0.42400
O 	O 	0.29141 0.20004 0.77511 -0.40800
C 	C 	0.25193 0.18440 0.78332 0.42900
C 	C 	0.25338 0.14550 0.80139 -0.23800
C 	C 	0.21210 0.12490 0.81099 0.16500
H 	H 	0.18270 0.13630 0.80530 -0.01100
C 	C 	0.21220 0.08930 0.82820 -0.23700
H 	H 	0.18310 0.07670 0.83360 0.11300
C 	C 	0.25370 0.07170 0.83773 0.16800
C 	C 	0.29480 0.08960 0.82797 -0.25500
H 	H 	0.32410 0.07670 0.83290 0.13000
C 	C 	0.29420 0.12630 0.81090 0.22500
C 	C 	0.25430 0.03370 0.85704 -0.04200
C 	C 	0.28950 0.99760 0.85714 -0.03300
H 	H 	0.31360 0.99780 0.84510 0.04400
C 	C 	0.34520 0.90550 0.89720 -0.23600
H 	H 	0.33380 0.91680 0.91240 0.12600
C 	C 	0.37990 0.87170 0.89703 0.21100
N 	N 	0.39680 0.86290 0.92240 -0.10600
N 	N 	0.34180 0.14640 0.80590 -0.11800
C 	C 	0.10180 0.29060 0.75080 -3.73300
H 	H 	0.11840 0.31960 0.75030 1.31900
C 	C 	0.05240 0.29120 0.75070 3.95500
H 	H 	0.03630 0.32040 0.74990 -1.41900
C 	C 	0.10200 0.23130 0.77213 1.38600
H 	H 	0.11890 0.21920 0.78570 -0.48500
C 	C 	0.05210 0.23070 0.77220 -1.27100
H 	H 	0.03560 0.21790 0.78570 0.49900
C 	C 	0.05150 0.26690 0.73137 -1.43900
H 	H 	0.03460 0.27830 0.71760 0.57500
C 	C 	0.10140 0.26750 0.73129 1.54100
H 	H 	0.11780 0.27960 0.71760 -0.53000
O 	O 	0.54969 0.70076 0.85391 -0.39600
O 	O 	0.78782 0.30004 0.77633 -0.41800
O 	O 	0.70859 0.29996 0.77511 -0.40800
C 	C 	0.74807 0.31560 0.78332 0.43000
C 	C 	0.74662 0.35450 0.80139 -0.23900
C 	C 	0.78790 0.37510 0.81099 0.17300
H 	H 	0.81730 0.36370 0.80530 -0.01400
C 	C 	0.78780 0.41070 0.82820 -0.24100
H 	H 	0.81690 0.42330 0.83360 0.11800
C 	C 	0.74630 0.42830 0.83773 0.17100
C 	C 	0.70520 0.41040 0.82797 -0.25600
H 	H 	0.67590 0.42330 0.83290 0.13100
C 	C 	0.70580 0.37370 0.81090 0.22600
C 	C 	0.74570 0.46630 0.85704 -0.04200
C 	C 	0.71050 0.50240 0.85714 -0.03200
H 	H 	0.68640 0.50220 0.84510 0.04400
C 	C 	0.65480 0.59450 0.89720 -0.23600
H 	H 	0.66620 0.58320 0.91240 0.12700
C 	C 	0.62010 0.62830 0.89703 0.21200
N 	N 	0.60320 0.63710 0.92240 -0.10600
N 	N 	0.65820 0.35360 0.80590 -0.11700
C 	C 	0.89820 0.20940 0.75080 5.03600
H 	H 	0.88160 0.18040 0.75030 -1.69300
C 	C 	0.94760 0.20880 0.75070 -5.28200
H 	H 	0.96370 0.17960 0.74990 1.91800
C 	C 	0.89800 0.26870 0.77213 -1.89300
H 	H 	0.88110 0.28080 0.78570 0.73800
C 	C 	0.94790 0.26930 0.77220 1.66100
H 	H 	0.96440 0.28210 0.78570 -0.59700
C 	C 	0.94850 0.23310 0.73137 1.89100
H 	H 	0.96540 0.22170 0.71760 -0.68900
C 	C 	0.89860 0.23250 0.73129 -2.10900
H 	H 	0.88220 0.22040 0.71760 0.82700
O 	O 	0.04969 0.20076 0.35391 -0.40100
O 	O 	0.28782 0.80004 0.27633 -0.42100
O 	O 	0.20859 0.79996 0.27511 -0.41000
C 	C 	0.24807 0.81560 0.28332 0.42800
C 	C 	0.24662 0.85450 0.30139 -0.23700
C 	C 	0.28790 0.87510 0.31099 0.16700
H 	H 	0.31730 0.86370 0.30530 -0.01200
C 	C 	0.28780 0.91070 0.32820 -0.23700
H 	H 	0.31690 0.92330 0.33360 0.11500
C 	C 	0.24630 0.92830 0.33773 0.16700
C 	C 	0.20520 0.91040 0.32797 -0.25300
H 	H 	0.17590 0.92330 0.33290 0.12700
C 	C 	0.20580 0.87370 0.31090 0.22000
C 	C 	0.24570 0.96630 0.35704 -0.04200
C 	C 	0.21050 0.00240 0.35714 -0.03300
H 	H 	0.18640 0.00220 0.34510 0.04200
C 	C 	0.15480 0.09450 0.39720 -0.23600
H 	H 	0.16620 0.08320 0.41240 0.12500
C 	C 	0.12010 0.12830 0.39703 0.21000
N 	N 	0.10320 0.13710 0.42240 -0.10900
N 	N 	0.15820 0.85360 0.30590 -0.11100
C 	C 	0.39820 0.70940 0.25080 1.05200
H 	H 	0.38160 0.68040 0.25030 -0.32500
C 	C 	0.44760 0.70880 0.25070 -1.08500
H 	H 	0.46370 0.67960 0.24990 0.40100
C 	C 	0.39800 0.76870 0.27213 -0.40400
H 	H 	0.38110 0.78080 0.28570 0.18300
C 	C 	0.44790 0.76930 0.27220 0.33000
H 	H 	0.46440 0.78210 0.28570 -0.10000
C 	C 	0.44850 0.73310 0.23137 0.37900
H 	H 	0.46540 0.72170 0.21760 -0.11500
C 	C 	0.39860 0.73250 0.23129 -0.45100
H 	H 	0.38220 0.72040 0.21760 0.21100
O 	O 	0.54924 0.29969 0.10391 -0.39600
O 	O 	0.94996 0.53782 0.02633 -0.41200
O 	O 	0.95004 0.45859 0.02511 -0.39900
C 	C 	0.93440 0.49807 0.03332 0.42800
C 	C 	0.89550 0.49662 0.05139 -0.23600
C 	C 	0.87490 0.53790 0.06099 0.16900
H 	H 	0.88630 0.56730 0.05530 -0.01100
C 	C 	0.83930 0.53780 0.07820 -0.23800
H 	H 	0.82670 0.56690 0.08360 0.11500
C 	C 	0.82170 0.49630 0.08773 0.17000
C 	C 	0.83960 0.45520 0.07797 -0.25500
H 	H 	0.82670 0.42590 0.08290 0.13100
C 	C 	0.87630 0.45580 0.06090 0.22600
C 	C 	0.78370 0.49570 0.10704 -0.04200
C 	C 	0.74760 0.46050 0.10714 -0.03300
H 	H 	0.74780 0.43640 0.09510 0.04400
C 	C 	0.65550 0.40480 0.14720 -0.23600
H 	H 	0.66680 0.41620 0.16240 0.12700
C 	C 	0.62170 0.37010 0.14703 0.21200
N 	N 	0.61290 0.35320 0.17240 -0.10600
N 	N 	0.89640 0.40820 0.05590 -0.11600
C 	C 	0.04060 0.64820 0.00080 0.54000
H 	H 	0.06960 0.63160 0.00030 -0.15000
C 	C 	0.04120 0.69760 0.00070 -0.74600
H 	H 	0.07040 0.71370 0.99990 0.27600
C 	C 	0.98130 0.64800 0.02213 -0.32200
H 	H 	0.96920 0.63110 0.03570 0.15600
C 	C 	0.98070 0.69790 0.02220 0.10800
H 	H 	0.96790 0.71440 0.03570 -0.01400
C 	C 	0.01690 0.69850 0.98137 0.35700
H 	H 	0.02830 0.71540 0.96760 -0.10400
C 	C 	0.01750 0.64860 0.98129 -0.14000
H 	H 	0.02960 0.63220 0.96760 0.09400
O 	O 	0.04924 0.79969 0.60391 -0.40100
O 	O 	0.44996 0.03782 0.52633 -0.42100
O 	O 	0.45004 0.95859 0.52511 -0.40800
C 	C 	0.43440 0.99807 0.53332 0.42900
C 	C 	0.39550 0.99662 0.55139 -0.23800
C 	C 	0.37490 0.03790 0.56099 0.16900
H 	H 	0.38630 0.06730 0.55530 -0.01300
C 	C 	0.33930 0.03780 0.57820 -0.23900
H 	H 	0.32670 0.06690 0.58360 0.11500
C 	C 	0.32170 0.99630 0.58773 0.16900
C 	C 	0.33960 0.95520 0.57797 -0.25600
H 	H 	0.32670 0.92590 0.58290 0.13000
C 	C 	0.37630 0.95580 0.56090 0.22600
C 	C 	0.28370 0.99570 0.60704 -0.04300
C 	C 	0.24760 0.96050 0.60714 -0.03300
H 	H 	0.24780 0.93640 0.59510 0.04400
C 	C 	0.15550 0.90480 0.64720 -0.23600
H 	H 	0.16680 0.91620 0.66240 0.12500
C 	C 	0.12170 0.87010 0.64703 0.21000
N 	N 	0.11290 0.85320 0.67240 -0.10900
N 	N 	0.39640 0.90820 0.55590 -0.11700
C 	C 	0.54060 0.14820 0.50080 0.65100
H 	H 	0.56960 0.13160 0.50030 -0.18700
C 	C 	0.54120 0.19760 0.50070 -0.66300
H 	H 	0.57040 0.21370 0.49990 0.25000
C 	C 	0.48130 0.14800 0.52213 -0.25300
H 	H 	0.46920 0.13110 0.53570 0.12600
C 	C 	0.48070 0.19790 0.52220 0.19500
H 	H 	0.46790 0.21440 0.53570 -0.04900
C 	C 	0.51690 0.19850 0.48137 0.22600
H 	H 	0.52830 0.21540 0.46760 -0.05700
C 	C 	0.51750 0.14860 0.48129 -0.28400
H 	H 	0.52960 0.13220 0.46760 0.14800
O 	O 	0.95076 0.70031 0.60391 -0.38600
O 	O 	0.55004 0.46218 0.52633 -0.42100
O 	O 	0.54996 0.54141 0.52511 -0.40800
C 	C 	0.56560 0.50193 0.53332 0.43000
C 	C 	0.60450 0.50338 0.55139 -0.23800
C 	C 	0.62510 0.46210 0.56099 0.16900
H 	H 	0.61370 0.43270 0.55530 -0.01300
C 	C 	0.66070 0.46220 0.57820 -0.23900
H 	H 	0.67330 0.43310 0.58360 0.11600
C 	C 	0.67830 0.50370 0.58773 0.17000
C 	C 	0.66040 0.54480 0.57797 -0.25600
H 	H 	0.67330 0.57410 0.58290 0.13100
C 	C 	0.62370 0.54420 0.56090 0.22600
C 	C 	0.71630 0.50430 0.60704 -0.04200
C 	C 	0.75240 0.53950 0.60714 -0.03300
H 	H 	0.75220 0.56360 0.59510 0.04400
C 	C 	0.84450 0.59520 0.64720 -0.23500
H 	H 	0.83320 0.58380 0.66240 0.12800
C 	C 	0.87830 0.62990 0.64703 0.21300
N 	N 	0.88710 0.64680 0.67240 -0.10300
N 	N 	0.60360 0.59180 0.55590 -0.11700
C 	C 	0.45940 0.35180 0.50080 0.65100
H 	H 	0.43040 0.36840 0.50030 -0.18700
C 	C 	0.45880 0.30240 0.50070 -0.66400
H 	H 	0.42960 0.28630 0.49990 0.24900
C 	C 	0.51870 0.35200 0.52213 -0.25300
H 	H 	0.53080 0.36890 0.53570 0.12700
C 	C 	0.51930 0.30210 0.52220 0.19500
H 	H 	0.53210 0.28560 0.53570 -0.04900
C 	C 	0.48310 0.30150 0.48137 0.22600
H 	H 	0.47170 0.28460 0.46760 -0.05700
C 	C 	0.48250 0.35140 0.48129 -0.28400
H 	H 	0.47040 0.36780 0.46760 0.14800
O 	O 	0.45076 0.20031 0.10391 -0.39600
O 	O 	0.05004 0.96218 0.02633 -0.42500
O 	O 	0.04996 0.04141 0.02511 -0.41100
C 	C 	0.06560 0.00193 0.03332 0.42800
C 	C 	0.10450 0.00338 0.05139 -0.24000
C 	C 	0.12510 0.96210 0.06099 0.16800
H 	H 	0.11370 0.93270 0.05530 -0.01300
C 	C 	0.16070 0.96220 0.07820 -0.24000
H 	H 	0.17330 0.93310 0.08360 0.11500
C 	C 	0.17830 0.00370 0.08773 0.16900
C 	C 	0.16040 0.04480 0.07797 -0.25600
H 	H 	0.17330 0.07410 0.08290 0.12900
C 	C 	0.12370 0.04420 0.06090 0.22500
C 	C 	0.21630 0.00430 0.10704 -0.04300
C 	C 	0.25240 0.03950 0.10714 -0.03300
H 	H 	0.25220 0.06360 0.09510 0.04400
C 	C 	0.34450 0.09520 0.14720 -0.23600
H 	H 	0.33320 0.08380 0.16240 0.12600
C 	C 	0.37830 0.12990 0.14703 0.21100
N 	N 	0.38710 0.14680 0.17240 -0.10700
N 	N 	0.10360 0.09180 0.05590 -0.11900
C 	C 	0.95940 0.85180 0.00080 0.73500
H 	H 	0.93040 0.86840 0.00030 -0.21300
C 	C 	0.95880 0.80240 0.00070 -0.53100
H 	H 	0.92960 0.78630 0.99990 0.20800
C 	C 	0.01870 0.85200 0.02213 -0.17100
H 	H 	0.03080 0.86890 0.03570 0.09300
C 	C 	0.01930 0.80210 0.02220 0.28000
H 	H 	0.03210 0.78560 0.03570 -0.08100
C 	C 	0.98310 0.80150 0.98137 0.09200
H 	H 	0.97170 0.78460 0.96760 -0.00600
C 	C 	0.98250 0.85140 0.98129 -0.41100
H 	H 	0.97040 0.86780 0.96760 0.19700
O 	O 	0.45031 0.70076 0.85391 -0.39600
O 	O 	0.21218 0.30004 0.77633 -0.42400
O 	O 	0.29141 0.29996 0.77511 -0.40800
C 	C 	0.25193 0.31560 0.78332 0.42900
C 	C 	0.25338 0.35450 0.80139 -0.23800
C 	C 	0.21210 0.37510 0.81099 0.16500
H 	H 	0.18270 0.36370 0.80530 -0.01100
C 	C 	0.21220 0.41070 0.82820 -0.23700
H 	H 	0.18310 0.42330 0.83360 0.11300
C 	C 	0.25370 0.42830 0.83773 0.16800
C 	C 	0.29480 0.41040 0.82797 -0.25500
H 	H 	0.32410 0.42330 0.83290 0.13000
C 	C 	0.29420 0.37370 0.81090 0.22500
C 	C 	0.25430 0.46630 0.85704 -0.04200
C 	C 	0.28950 0.50240 0.85714 -0.03300
H 	H 	0.31360 0.50220 0.84510 0.04400
C 	C 	0.34520 0.59450 0.89720 -0.23600
H 	H 	0.33380 0.58320 0.91240 0.12600
C 	C 	0.37990 0.62830 0.89703 0.21100
N 	N 	0.39680 0.63710 0.92240 -0.10600
N 	N 	0.34180 0.35360 0.80590 -0.11800
C 	C 	0.10180 0.20940 0.75080 -3.73300
H 	H 	0.11840 0.18040 0.75030 1.31900
C 	C 	0.05240 0.20880 0.75070 3.95500
H 	H 	0.03630 0.17960 0.74990 -1.41900
C 	C 	0.10200 0.26870 0.77213 1.38600
H 	H 	0.11890 0.28080 0.78570 -0.48500
C 	C 	0.05210 0.26930 0.77220 -1.27100
H 	H 	0.03560 0.28210 0.78570 0.49900
C 	C 	0.05150 0.23310 0.73137 -1.43900
H 	H 	0.03460 0.22170 0.71760 0.57500
C 	C 	0.10140 0.23250 0.73129 1.54100
H 	H 	0.11780 0.22040 0.71760 -0.53000
O 	O 	0.95031 0.20076 0.35391 -0.38600
O 	O 	0.71218 0.80004 0.27633 -0.42100
O 	O 	0.79141 0.79996 0.27511 -0.40600
C 	C 	0.75193 0.81560 0.28332 0.43000
C 	C 	0.75338 0.85450 0.30139 -0.24000
C 	C 	0.71210 0.87510 0.31099 0.17100
H 	H 	0.68270 0.86370 0.30530 -0.01300
C 	C 	0.71220 0.91070 0.32820 -0.24100
H 	H 	0.68310 0.92330 0.33360 0.11600
C 	C 	0.75370 0.92830 0.33773 0.17200
C 	C 	0.79480 0.91040 0.32797 -0.25800
H 	H 	0.82410 0.92330 0.33290 0.13400
C 	C 	0.79420 0.87370 0.31090 0.23200
C 	C 	0.75430 0.96630 0.35704 -0.04200
C 	C 	0.78950 0.00240 0.35714 -0.03200
H 	H 	0.81360 0.00220 0.34510 0.04600
C 	C 	0.84520 0.09450 0.39720 -0.23500
H 	H 	0.83380 0.08320 0.41240 0.12800
C 	C 	0.87990 0.12830 0.39703 0.21300
N 	N 	0.89680 0.13710 0.42240 -0.10300
N 	N 	0.84180 0.85360 0.30590 -0.12400
C 	C 	0.60180 0.70940 0.25080 0.25100
H 	H 	0.61840 0.68040 0.25030 -0.04900
C 	C 	0.55240 0.70880 0.25070 -0.24200
H 	H 	0.53630 0.67960 0.24990 0.09800
C 	C 	0.60200 0.76870 0.27213 -0.10300
H 	H 	0.61890 0.78080 0.28570 0.07000
C 	C 	0.55210 0.76930 0.27220 0.06000
H 	H 	0.53560 0.78210 0.28570 0.00200
C 	C 	0.55150 0.73310 0.23137 0.07300
H 	H 	0.53460 0.72170 0.21760 0.00200
C 	C 	0.60140 0.73250 0.23129 -0.11700
H 	H 	0.61780 0.72040 0.21760 0.08600
O 	O 	0.04969 0.29924 0.35391 -0.40100
O 	O 	0.28782 0.69996 0.27633 -0.42100
O 	O 	0.20859 0.70004 0.27511 -0.41000
C 	C 	0.24807 0.68440 0.28332 0.42800
C 	C 	0.24662 0.64550 0.30139 -0.23700
C 	C 	0.28790 0.62490 0.31099 0.16700
H 	H 	0.31730 0.63630 0.30530 -0.01200
C 	C 	0.28780 0.58930 0.32820 -0.23700
H 	H 	0.31690 0.57670 0.33360 0.11500
C 	C 	0.24630 0.57170 0.33773 0.16700
C 	C 	0.20520 0.58960 0.32797 -0.25300
H 	H 	0.17590 0.57670 0.33290 0.12700
C 	C 	0.20580 0.62630 0.31090 0.21900
C 	C 	0.24570 0.53370 0.35704 -0.04200
C 	C 	0.21050 0.49760 0.35714 -0.03300
H 	H 	0.18640 0.49780 0.34510 0.04200
C 	C 	0.15480 0.40550 0.39720 -0.23600
H 	H 	0.16620 0.41680 0.41240 0.12500
C 	C 	0.12010 0.37170 0.39703 0.21000
N 	N 	0.10320 0.36290 0.42240 -0.10900
N 	N 	0.15820 0.64640 0.30590 -0.11100
C 	C 	0.39820 0.79060 0.25080 1.05200
H 	H 	0.38160 0.81960 0.25030 -0.32500
C 	C 	0.44760 0.79120 0.25070 -1.08500
H 	H 	0.46370 0.82040 0.24990 0.40100
C 	C 	0.39800 0.73130 0.27213 -0.40400
H 	H 	0.38110 0.71920 0.28570 0.18300
C 	C 	0.44790 0.73070 0.27220 0.33000
H 	H 	0.46440 0.71790 0.28570 -0.10000
C 	C 	0.44850 0.76690 0.23137 0.37900
H 	H 	0.46540 0.77830 0.21760 -0.11500
C 	C 	0.39860 0.76750 0.23129 -0.45100
H 	H 	0.38220 0.77960 0.21760 0.21100
O 	O 	0.54969 0.79924 0.85391 -0.39600
O 	O 	0.78782 0.19996 0.77633 -0.41800
O 	O 	0.70859 0.20004 0.77511 -0.40800
C 	C 	0.74807 0.18440 0.78332 0.43000
C 	C 	0.74662 0.14550 0.80139 -0.23900
C 	C 	0.78790 0.12490 0.81099 0.17300
H 	H 	0.81730 0.13630 0.80530 -0.01400
C 	C 	0.78780 0.08930 0.82820 -0.24100
H 	H 	0.81690 0.07670 0.83360 0.11800
C 	C 	0.74630 0.07170 0.83773 0.17100
C 	C 	0.70520 0.08960 0.82797 -0.25600
H 	H 	0.67590 0.07670 0.83290 0.13100
C 	C 	0.70580 0.12630 0.81090 0.22600
C 	C 	0.74570 0.03370 0.85704 -0.04200
C 	C 	0.71050 0.99760 0.85714 -0.03200
H 	H 	0.68640 0.99780 0.84510 0.04400
C 	C 	0.65480 0.90550 0.89720 -0.23600
H 	H 	0.66620 0.91680 0.91240 0.12700
C 	C 	0.62010 0.87170 0.89703 0.21200
N 	N 	0.60320 0.86290 0.92240 -0.10600
N 	N 	0.65820 0.14640 0.80590 -0.11700
C 	C 	0.89820 0.29060 0.75080 5.03600
H 	H 	0.88160 0.31960 0.75030 -1.69300
C 	C 	0.94760 0.29120 0.75070 -5.28200
H 	H 	0.96370 0.32040 0.74990 1.91800
C 	C 	0.89800 0.23130 0.77213 -1.89300
H 	H 	0.88110 0.21920 0.78570 0.73800
C 	C 	0.94790 0.23070 0.77220 1.66100
H 	H 	0.96440 0.21790 0.78570 -0.59700
C 	C 	0.94850 0.26690 0.73137 1.89100
H 	H 	0.96540 0.27830 0.71760 -0.68900
C 	C 	0.89860 0.26750 0.73129 -2.10900
H 	H 	0.88220 0.27960 0.71760 0.82700
O 	O 	0.04924 0.70031 0.60391 -0.40100
O 	O 	0.44996 0.46218 0.52633 -0.42100
O 	O 	0.45004 0.54141 0.52511 -0.40800
C 	C 	0.43440 0.50193 0.53332 0.42900
C 	C 	0.39550 0.50338 0.55139 -0.23800
C 	C 	0.37490 0.46210 0.56099 0.16900
H 	H 	0.38630 0.43270 0.55530 -0.01300
C 	C 	0.33930 0.46220 0.57820 -0.23900
H 	H 	0.32670 0.43310 0.58360 0.11500
C 	C 	0.32170 0.50370 0.58773 0.16900
C 	C 	0.33960 0.54480 0.57797 -0.25600
H 	H 	0.32670 0.57410 0.58290 0.13000
C 	C 	0.37630 0.54420 0.56090 0.22600
C 	C 	0.28370 0.50430 0.60704 -0.04300
C 	C 	0.24760 0.53950 0.60714 -0.03300
H 	H 	0.24780 0.56360 0.59510 0.04400
C 	C 	0.15550 0.59520 0.64720 -0.23600
H 	H 	0.16680 0.58380 0.66240 0.12500
C 	C 	0.12170 0.62990 0.64703 0.21000
N 	N 	0.11290 0.64680 0.67240 -0.10900
N 	N 	0.39640 0.59180 0.55590 -0.11700
C 	C 	0.54060 0.35180 0.50080 0.65200
H 	H 	0.56960 0.36840 0.50030 -0.18700
C 	C 	0.54120 0.30240 0.50070 -0.66300
H 	H 	0.57040 0.28630 0.49990 0.25000
C 	C 	0.48130 0.35200 0.52213 -0.25300
H 	H 	0.46920 0.36890 0.53570 0.12600
C 	C 	0.48070 0.30210 0.52220 0.19500
H 	H 	0.46790 0.28560 0.53570 -0.04900
C 	C 	0.51690 0.30150 0.48137 0.22600
H 	H 	0.52830 0.28460 0.46760 -0.05700
C 	C 	0.51750 0.35140 0.48129 -0.28400
H 	H 	0.52960 0.36780 0.46760 0.14800
O 	O 	0.54924 0.20031 0.10391 -0.39600
O 	O 	0.94996 0.96218 0.02633 -0.41200
O 	O 	0.95004 0.04141 0.02511 -0.39900
C 	C 	0.93440 0.00193 0.03332 0.42800
C 	C 	0.89550 0.00338 0.05139 -0.23600
C 	C 	0.87490 0.96210 0.06099 0.16900
H 	H 	0.88630 0.93270 0.05530 -0.01100
C 	C 	0.83930 0.96220 0.07820 -0.23800
H 	H 	0.82670 0.93310 0.08360 0.11500
C 	C 	0.82170 0.00370 0.08773 0.17000
C 	C 	0.83960 0.04480 0.07797 -0.25500
H 	H 	0.82670 0.07410 0.08290 0.13100
C 	C 	0.87630 0.04420 0.06090 0.22600
C 	C 	0.78370 0.00430 0.10704 -0.04200
C 	C 	0.74760 0.03950 0.10714 -0.03300
H 	H 	0.74780 0.06360 0.09510 0.04400
C 	C 	0.65550 0.09520 0.14720 -0.23600
H 	H 	0.66680 0.08380 0.16240 0.12700
C 	C 	0.62170 0.12990 0.14703 0.21200
N 	N 	0.61290 0.14680 0.17240 -0.10600
N 	N 	0.89640 0.09180 0.05590 -0.11600
C 	C 	0.04060 0.85180 0.00080 0.53300
H 	H 	0.06960 0.86840 0.00030 -0.14800
C 	C 	0.04120 0.80240 0.00070 -0.73800
H 	H 	0.07040 0.78630 0.99990 0.27300
C 	C 	0.98130 0.85200 0.02213 -0.31900
H 	H 	0.96920 0.86890 0.03570 0.15500
C 	C 	0.98070 0.80210 0.02220 0.10600
H 	H 	0.96790 0.78560 0.03570 -0.01300
C 	C 	0.01690 0.80150 0.98137 0.35400
H 	H 	0.02830 0.78460 0.96760 -0.10300
C 	C 	0.01750 0.85140 0.98129 -0.13800
H 	H 	0.02960 0.86780 0.96760 0.09400
O 	O 	0.45076 0.29969 0.10391 -0.39600
O 	O 	0.05004 0.53782 0.02633 -0.42500
O 	O 	0.04996 0.45859 0.02511 -0.41100
C 	C 	0.06560 0.49807 0.03332 0.42800
C 	C 	0.10450 0.49662 0.05139 -0.24000
C 	C 	0.12510 0.53790 0.06099 0.16800
H 	H 	0.11370 0.56730 0.05530 -0.01400
C 	C 	0.16070 0.53780 0.07820 -0.24000
H 	H 	0.17330 0.56690 0.08360 0.11500
C 	C 	0.17830 0.49630 0.08773 0.16900
C 	C 	0.16040 0.45520 0.07797 -0.25600
H 	H 	0.17330 0.42590 0.08290 0.12900
C 	C 	0.12370 0.45580 0.06090 0.22500
C 	C 	0.21630 0.49570 0.10704 -0.04300
C 	C 	0.25240 0.46050 0.10714 -0.03300
H 	H 	0.25220 0.43640 0.09510 0.04400
C 	C 	0.34450 0.40480 0.14720 -0.23600
H 	H 	0.33320 0.41620 0.16240 0.12600
C 	C 	0.37830 0.37010 0.14703 0.21100
N 	N 	0.38710 0.35320 0.17240 -0.10700
N 	N 	0.10360 0.40820 0.05590 -0.11900
C 	C 	0.95940 0.64820 0.00080 0.74200
H 	H 	0.93040 0.63160 0.00030 -0.21600
C 	C 	0.95880 0.69760 0.00070 -0.53800
H 	H 	0.92960 0.71370 0.99990 0.21000
C 	C 	0.01870 0.64800 0.02213 -0.17300
H 	H 	0.03080 0.63110 0.03570 0.09400
C 	C 	0.01930 0.69790 0.02220 0.28200
H 	H 	0.03210 0.71440 0.03570 -0.08200
C 	C 	0.98310 0.69850 0.98137 0.09400
H 	H 	0.97170 0.71540 0.96760 -0.00700
C 	C 	0.98250 0.64860 0.98129 -0.41500
H 	H 	0.97040 0.63220 0.96760 0.19900
O 	O 	0.95076 0.79969 0.60391 -0.38600
O 	O 	0.55004 0.03782 0.52633 -0.42100
O 	O 	0.54996 0.95859 0.52511 -0.40800
C 	C 	0.56560 0.99807 0.53332 0.43000
C 	C 	0.60450 0.99662 0.55139 -0.23800
C 	C 	0.62510 0.03790 0.56099 0.16900
H 	H 	0.61370 0.06730 0.55530 -0.01300
C 	C 	0.66070 0.03780 0.57820 -0.23900
H 	H 	0.67330 0.06690 0.58360 0.11600
C 	C 	0.67830 0.99630 0.58773 0.17000
C 	C 	0.66040 0.95520 0.57797 -0.25600
H 	H 	0.67330 0.92590 0.58290 0.13100
C 	C 	0.62370 0.95580 0.56090 0.22600
C 	C 	0.71630 0.99570 0.60704 -0.04200
C 	C 	0.75240 0.96050 0.60714 -0.03300
H 	H 	0.75220 0.93640 0.59510 0.04400
C 	C 	0.84450 0.90480 0.64720 -0.23500
H 	H 	0.83320 0.91620 0.66240 0.12800
C 	C 	0.87830 0.87010 0.64703 0.21300
N 	N 	0.88710 0.85320 0.67240 -0.10300
N 	N 	0.60360 0.90820 0.55590 -0.11700
C 	C 	0.45940 0.14820 0.50080 0.65100
H 	H 	0.43040 0.13160 0.50030 -0.18700
C 	C 	0.45880 0.19760 0.50070 -0.66300
H 	H 	0.42960 0.21370 0.49990 0.24900
C 	C 	0.51870 0.14800 0.52213 -0.25300
H 	H 	0.53080 0.13110 0.53570 0.12700
C 	C 	0.51930 0.19790 0.52220 0.19500
H 	H 	0.53210 0.21440 0.53570 -0.04900
C 	C 	0.48310 0.19850 0.48137 0.22600
H 	H 	0.47170 0.21540 0.46760 -0.05700
C 	C 	0.48250 0.14860 0.48129 -0.28400
H 	H 	0.47040 0.13220 0.46760 0.14800
O 	O 	0.04969 0.70076 0.64609 -0.40100
O 	O 	0.28782 0.30004 0.72367 -0.42100
O 	O 	0.20859 0.29996 0.72489 -0.41000
C 	C 	0.24807 0.31560 0.71668 0.42800
C 	C 	0.24662 0.35450 0.69861 -0.23700
C 	C 	0.28790 0.37510 0.68901 0.16700
H 	H 	0.31730 0.36370 0.69470 -0.01200
C 	C 	0.28780 0.41070 0.67180 -0.23700
H 	H 	0.31690 0.42330 0.66640 0.11500
C 	C 	0.24630 0.42830 0.66227 0.16700
C 	C 	0.20520 0.41040 0.67203 -0.25300
H 	H 	0.17590 0.42330 0.66710 0.12700
C 	C 	0.20580 0.37370 0.68910 0.21900
C 	C 	0.24570 0.46630 0.64296 -0.04200
C 	C 	0.21050 0.50240 0.64286 -0.03300
H 	H 	0.18640 0.50220 0.65490 0.04200
C 	C 	0.15480 0.59450 0.60280 -0.23600
H 	H 	0.16620 0.58320 0.58760 0.12500
C 	C 	0.12010 0.62830 0.60297 0.21000
N 	N 	0.10320 0.63710 0.57760 -0.10900
N 	N 	0.15820 0.35360 0.69410 -0.11100
C 	C 	0.39820 0.20940 0.74920 1.05200
H 	H 	0.38160 0.18040 0.74970 -0.32500
C 	C 	0.44760 0.20880 0.74930 -1.08500
H 	H 	0.46370 0.17960 0.75010 0.40100
C 	C 	0.39800 0.26870 0.72787 -0.40400
H 	H 	0.38110 0.28080 0.71430 0.18300
C 	C 	0.44790 0.26930 0.72780 0.33000
H 	H 	0.46440 0.28210 0.71430 -0.10000
C 	C 	0.44850 0.23310 0.76863 0.37900
H 	H 	0.46540 0.22170 0.78240 -0.11500
C 	C 	0.39860 0.23250 0.76871 -0.45100
H 	H 	0.38220 0.22040 0.78240 0.21100
O 	O 	0.54969 0.20076 0.14609 -0.39600
O 	O 	0.78782 0.80004 0.22367 -0.41800
O 	O 	0.70859 0.79996 0.22489 -0.40800
C 	C 	0.74807 0.81560 0.21668 0.43000
C 	C 	0.74662 0.85450 0.19861 -0.23900
C 	C 	0.78790 0.87510 0.18901 0.17300
H 	H 	0.81730 0.86370 0.19470 -0.01400
C 	C 	0.78780 0.91070 0.17180 -0.24100
H 	H 	0.81690 0.92330 0.16640 0.11800
C 	C 	0.74630 0.92830 0.16227 0.17100
C 	C 	0.70520 0.91040 0.17203 -0.25600
H 	H 	0.67590 0.92330 0.16710 0.13100
C 	C 	0.70580 0.87370 0.18910 0.22600
C 	C 	0.74570 0.96630 0.14296 -0.04200
C 	C 	0.71050 0.00240 0.14286 -0.03200
H 	H 	0.68640 0.00220 0.15490 0.04400
C 	C 	0.65480 0.09450 0.10280 -0.23600
H 	H 	0.66620 0.08320 0.08760 0.12700
C 	C 	0.62010 0.12830 0.10297 0.21200
N 	N 	0.60320 0.13710 0.07760 -0.10600
N 	N 	0.65820 0.85360 0.19410 -0.11700
C 	C 	0.89820 0.70940 0.24920 5.03600
H 	H 	0.88160 0.68040 0.24970 -1.69300
C 	C 	0.94760 0.70880 0.24930 -5.28200
H 	H 	0.96370 0.67960 0.25010 1.91800
C 	C 	0.89800 0.76870 0.22787 -1.89300
H 	H 	0.88110 0.78080 0.21430 0.73800
C 	C 	0.94790 0.76930 0.22780 1.66100
H 	H 	0.96440 0.78210 0.21430 -0.59700
C 	C 	0.94850 0.73310 0.26863 1.89100
H 	H 	0.96540 0.72170 0.28240 -0.68900
C 	C 	0.89860 0.73250 0.26871 -2.10900
H 	H 	0.88220 0.72040 0.28240 0.82700
O 	O 	0.45031 0.29924 0.14609 -0.39600
O 	O 	0.21218 0.69996 0.22367 -0.42400
O 	O 	0.29141 0.70004 0.22489 -0.40800
C 	C 	0.25193 0.68440 0.21668 0.42900
C 	C 	0.25338 0.64550 0.19861 -0.23800
C 	C 	0.21210 0.62490 0.18901 0.16500
H 	H 	0.18270 0.63630 0.19470 -0.01100
C 	C 	0.21220 0.58930 0.17180 -0.23700
H 	H 	0.18310 0.57670 0.16640 0.11300
C 	C 	0.25370 0.57170 0.16227 0.16800
C 	C 	0.29480 0.58960 0.17203 -0.25500
H 	H 	0.32410 0.57670 0.16710 0.13000
C 	C 	0.29420 0.62630 0.18910 0.22500
C 	C 	0.25430 0.53370 0.14296 -0.04200
C 	C 	0.28950 0.49760 0.14286 -0.03300
H 	H 	0.31360 0.49780 0.15490 0.04400
C 	C 	0.34520 0.40550 0.10280 -0.23600
H 	H 	0.33380 0.41680 0.08760 0.12600
C 	C 	0.37990 0.37170 0.10297 0.21100
N 	N 	0.39680 0.36290 0.07760 -0.10600
N 	N 	0.34180 0.64640 0.19410 -0.11800
C 	C 	0.10180 0.79060 0.24920 -3.73300
H 	H 	0.11840 0.81960 0.24970 1.31900
C 	C 	0.05240 0.79120 0.24930 3.95500
H 	H 	0.03630 0.82040 0.25010 -1.41900
C 	C 	0.10200 0.73130 0.22787 1.38600
H 	H 	0.11890 0.71920 0.21430 -0.48500
C 	C 	0.05210 0.73070 0.22780 -1.27100
H 	H 	0.03560 0.71790 0.21430 0.49900
C 	C 	0.05150 0.76690 0.26863 -1.43900
H 	H 	0.03460 0.77830 0.28240 0.57500
C 	C 	0.10140 0.76750 0.26871 1.54100
H 	H 	0.11780 0.77960 0.28240 -0.53000
O 	O 	0.95031 0.79924 0.64609 -0.38600
O 	O 	0.71218 0.19996 0.72367 -0.42100
O 	O 	0.79141 0.20004 0.72489 -0.40600
C 	C 	0.75193 0.18440 0.71668 0.43000
C 	C 	0.75338 0.14550 0.69861 -0.24000
C 	C 	0.71210 0.12490 0.68901 0.17100
H 	H 	0.68270 0.13630 0.69470 -0.01300
C 	C 	0.71220 0.08930 0.67180 -0.24100
H 	H 	0.68310 0.07670 0.66640 0.11600
C 	C 	0.75370 0.07170 0.66227 0.17200
C 	C 	0.79480 0.08960 0.67203 -0.25800
H 	H 	0.82410 0.07670 0.66710 0.13400
C 	C 	0.79420 0.12630 0.68910 0.23200
C 	C 	0.75430 0.03370 0.64296 -0.04200
C 	C 	0.78950 0.99760 0.64286 -0.03200
H 	H 	0.81360 0.99780 0.65490 0.04600
C 	C 	0.84520 0.90550 0.60280 -0.23500
H 	H 	0.83380 0.91680 0.58760 0.12800
C 	C 	0.87990 0.87170 0.60297 0.21300
N 	N 	0.89680 0.86290 0.57760 -0.10300
N 	N 	0.84180 0.14640 0.69410 -0.12400
C 	C 	0.60180 0.29060 0.74920 0.25100
H 	H 	0.61840 0.31960 0.74970 -0.04900
C 	C 	0.55240 0.29120 0.74930 -0.24200
H 	H 	0.53630 0.32040 0.75010 0.09800
C 	C 	0.60200 0.23130 0.72787 -0.10300
H 	H 	0.61890 0.21920 0.71430 0.07000
C 	C 	0.55210 0.23070 0.72780 0.06000
H 	H 	0.53560 0.21790 0.71430 0.00200
C 	C 	0.55150 0.26690 0.76863 0.07300
H 	H 	0.53460 0.27830 0.78240 0.00200
C 	C 	0.60140 0.26750 0.76871 -0.11700
H 	H 	0.61780 0.27960 0.78240 0.08600
O 	O 	0.45076 0.70031 0.89609 -0.39600
O 	O 	0.05004 0.46218 0.97367 -0.42500
O 	O 	0.04996 0.54141 0.97489 -0.41100
C 	C 	0.06560 0.50193 0.96668 0.42800
C 	C 	0.10450 0.50338 0.94861 -0.24000
C 	C 	0.12510 0.46210 0.93901 0.16800
H 	H 	0.11370 0.43270 0.94470 -0.01400
C 	C 	0.16070 0.46220 0.92180 -0.24000
H 	H 	0.17330 0.43310 0.91640 0.11500
C 	C 	0.17830 0.50370 0.91227 0.16900
C 	C 	0.16040 0.54480 0.92203 -0.25600
H 	H 	0.17330 0.57410 0.91710 0.12900
C 	C 	0.12370 0.54420 0.93910 0.22500
C 	C 	0.21630 0.50430 0.89296 -0.04300
C 	C 	0.25240 0.53950 0.89286 -0.03300
H 	H 	0.25220 0.56360 0.90490 0.04400
C 	C 	0.34450 0.59520 0.85280 -0.23600
H 	H 	0.33320 0.58380 0.83760 0.12600
C 	C 	0.37830 0.62990 0.85297 0.21100
N 	N 	0.38710 0.64680 0.82760 -0.10700
N 	N 	0.10360 0.59180 0.94410 -0.11900
C 	C 	0.95940 0.35180 0.99920 0.74200
H 	H 	0.93040 0.36840 0.99970 -0.21600
C 	C 	0.95880 0.30240 0.99930 -0.53800
H 	H 	0.92960 0.28630 0.00010 0.21000
C 	C 	0.01870 0.35200 0.97787 -0.17300
H 	H 	0.03080 0.36890 0.96430 0.09400
C 	C 	0.01930 0.30210 0.97780 0.28200
H 	H 	0.03210 0.28560 0.96430 -0.08200
C 	C 	0.98310 0.30150 0.01863 0.09400
H 	H 	0.97170 0.28460 0.03240 -0.00700
C 	C 	0.98250 0.35140 0.01871 -0.41500
H 	H 	0.97040 0.36780 0.03240 0.19900
O 	O 	0.95076 0.20031 0.39609 -0.38600
O 	O 	0.55004 0.96218 0.47367 -0.42100
O 	O 	0.54996 0.04141 0.47489 -0.40800
C 	C 	0.56560 0.00193 0.46668 0.43000
C 	C 	0.60450 0.00338 0.44861 -0.23800
C 	C 	0.62510 0.96210 0.43901 0.16900
H 	H 	0.61370 0.93270 0.44470 -0.01300
C 	C 	0.66070 0.96220 0.42180 -0.23900
H 	H 	0.67330 0.93310 0.41640 0.11600
C 	C 	0.67830 0.00370 0.41227 0.17000
C 	C 	0.66040 0.04480 0.42203 -0.25600
H 	H 	0.67330 0.07410 0.41710 0.13100
C 	C 	0.62370 0.04420 0.43910 0.22600
C 	C 	0.71630 0.00430 0.39296 -0.04200
C 	C 	0.75240 0.03950 0.39286 -0.03300
H 	H 	0.75220 0.06360 0.40490 0.04400
C 	C 	0.84450 0.09520 0.35280 -0.23500
H 	H 	0.83320 0.08380 0.33760 0.12800
C 	C 	0.87830 0.12990 0.35297 0.21300
N 	N 	0.88710 0.14680 0.32760 -0.10300
N 	N 	0.60360 0.09180 0.44410 -0.11700
C 	C 	0.45940 0.85180 0.49920 0.65100
H 	H 	0.43040 0.86840 0.49970 -0.18700
C 	C 	0.45880 0.80240 0.49930 -0.66300
H 	H 	0.42960 0.78630 0.50010 0.24900
C 	C 	0.51870 0.85200 0.47787 -0.25300
H 	H 	0.53080 0.86890 0.46430 0.12700
C 	C 	0.51930 0.80210 0.47780 0.19500
H 	H 	0.53210 0.78560 0.46430 -0.04900
C 	C 	0.48310 0.80150 0.51863 0.22600
H 	H 	0.47170 0.78460 0.53240 -0.05700
C 	C 	0.48250 0.85140 0.51871 -0.28400
H 	H 	0.47040 0.86780 0.53240 0.14800
O 	O 	0.04924 0.29969 0.39609 -0.40100
O 	O 	0.44996 0.53782 0.47367 -0.42100
O 	O 	0.45004 0.45859 0.47489 -0.40800
C 	C 	0.43440 0.49807 0.46668 0.42900
C 	C 	0.39550 0.49662 0.44861 -0.23800
C 	C 	0.37490 0.53790 0.43901 0.16900
H 	H 	0.38630 0.56730 0.44470 -0.01300
C 	C 	0.33930 0.53780 0.42180 -0.23900
H 	H 	0.32670 0.56690 0.41640 0.11500
C 	C 	0.32170 0.49630 0.41227 0.16900
C 	C 	0.33960 0.45520 0.42203 -0.25600
H 	H 	0.32670 0.42590 0.41710 0.13000
C 	C 	0.37630 0.45580 0.43910 0.22600
C 	C 	0.28370 0.49570 0.39296 -0.04300
C 	C 	0.24760 0.46050 0.39286 -0.03300
H 	H 	0.24780 0.43640 0.40490 0.04400
C 	C 	0.15550 0.40480 0.35280 -0.23600
H 	H 	0.16680 0.41620 0.33760 0.12500
C 	C 	0.12170 0.37010 0.35297 0.21000
N 	N 	0.11290 0.35320 0.32760 -0.10900
N 	N 	0.39640 0.40820 0.44410 -0.11700
C 	C 	0.54060 0.64820 0.49920 0.65200
H 	H 	0.56960 0.63160 0.49970 -0.18700
C 	C 	0.54120 0.69760 0.49930 -0.66300
H 	H 	0.57040 0.71370 0.50010 0.25000
C 	C 	0.48130 0.64800 0.47787 -0.25300
H 	H 	0.46920 0.63110 0.46430 0.12600
C 	C 	0.48070 0.69790 0.47780 0.19500
H 	H 	0.46790 0.71440 0.46430 -0.04900
C 	C 	0.51690 0.69850 0.51863 0.22600
H 	H 	0.52830 0.71540 0.53240 -0.05700
C 	C 	0.51750 0.64860 0.51871 -0.28400
H 	H 	0.52960 0.63220 0.53240 0.14800
O 	O 	0.54924 0.79969 0.89609 -0.39600
O 	O 	0.94996 0.03782 0.97367 -0.41200
O 	O 	0.95004 0.95859 0.97489 -0.39900
C 	C 	0.93440 0.99807 0.96668 0.42800
C 	C 	0.89550 0.99662 0.94861 -0.23600
C 	C 	0.87490 0.03790 0.93901 0.16900
H 	H 	0.88630 0.06730 0.94470 -0.01100
C 	C 	0.83930 0.03780 0.92180 -0.23800
H 	H 	0.82670 0.06690 0.91640 0.11500
C 	C 	0.82170 0.99630 0.91227 0.17000
C 	C 	0.83960 0.95520 0.92203 -0.25500
H 	H 	0.82670 0.92590 0.91710 0.13100
C 	C 	0.87630 0.95580 0.93910 0.22600
C 	C 	0.78370 0.99570 0.89296 -0.04200
C 	C 	0.74760 0.96050 0.89286 -0.03300
H 	H 	0.74780 0.93640 0.90490 0.04400
C 	C 	0.65550 0.90480 0.85280 -0.23600
H 	H 	0.66680 0.91620 0.83760 0.12700
C 	C 	0.62170 0.87010 0.85297 0.21200
N 	N 	0.61290 0.85320 0.82760 -0.10600
N 	N 	0.89640 0.90820 0.94410 -0.11600
C 	C 	0.04060 0.14820 0.99920 0.53300
H 	H 	0.06960 0.13160 0.99970 -0.14800
C 	C 	0.04120 0.19760 0.99930 -0.73800
H 	H 	0.07040 0.21370 0.00010 0.27300
C 	C 	0.98130 0.14800 0.97787 -0.31900
H 	H 	0.96920 0.13110 0.96430 0.15500
C 	C 	0.98070 0.19790 0.97780 0.10600
H 	H 	0.96790 0.21440 0.96430 -0.01300
C 	C 	0.01690 0.19850 0.01863 0.35400
H 	H 	0.02830 0.21540 0.03240 -0.10300
C 	C 	0.01750 0.14860 0.01871 -0.13800
H 	H 	0.02960 0.13220 0.03240 0.09400
Cu	Cu	0.79728 0.75000 0.24924 0.93000
N 	N 	0.87338 0.75000 0.24833 -0.75500
C 	C 	0.97316 0.75000 0.24818 1.83400
Cu	Cu	0.70272 0.25000 0.74924 0.91800
N 	N 	0.62662 0.25000 0.74833 -0.19800
C 	C 	0.52684 0.25000 0.74818 -0.03400
Cu	Cu	0.50000 0.54728 0.49924 0.91900
N 	N 	0.50000 0.62338 0.49833 -0.24400
C 	C 	0.50000 0.72316 0.49818 0.11900
Cu	Cu	-0.00000 0.04728 0.99924 0.91100
N 	N 	0.00000 0.12338 0.99833 -0.25600
C 	C 	0.00000 0.22316 0.99818 0.08900
Cu	Cu	0.00000 0.45272 0.99924 0.91100
N 	N 	-0.00000 0.37662 0.99833 -0.25600
C 	C 	-0.00000 0.27684 0.99818 0.09100
Cu	Cu	0.50000 0.95272 0.49924 0.91900
N 	N 	0.50000 0.87662 0.49833 -0.24400
C 	C 	0.50000 0.77684 0.49818 0.11900
Cu	Cu	0.70272 0.75000 0.25076 0.91800
N 	N 	0.62662 0.75000 0.25167 -0.19800
C 	C 	0.52684 0.75000 0.25182 -0.03400
Cu	Cu	0.79728 0.25000 0.75076 0.93000
N 	N 	0.87338 0.25000 0.75167 -0.75500
C 	C 	0.97316 0.25000 0.75182 1.83400
Cu	Cu	-0.00000 0.54728 0.00076 0.91100
N 	N 	0.00000 0.62338 0.00167 -0.25600
C 	C 	-0.00000 0.72316 0.00182 0.09100
Cu	Cu	0.50000 0.04728 0.50076 0.91900
N 	N 	0.50000 0.12338 0.50167 -0.24400
C 	C 	0.50000 0.22316 0.50182 0.11900
Cu	Cu	0.50000 0.45272 0.50076 0.91900
N 	N 	0.50000 0.37662 0.50167 -0.24400
C 	C 	0.50000 0.27684 0.50182 0.11900
Cu	Cu	0.00000 0.95272 0.00076 0.91100
N 	N 	-0.00000 0.87662 0.00167 -0.25600
C 	C 	-0.00000 0.77684 0.00182 0.08900
Cu	Cu	0.20272 0.25000 0.75076 0.90800
N 	N 	0.12662 0.25000 0.75167 0.26600
C 	C 	0.02684 0.25000 0.75182 -1.59700
Cu	Cu	0.29728 0.75000 0.25076 0.92000
N 	N 	0.37338 0.75000 0.25167 -0.29100
C 	C 	0.47316 0.75000 0.25182 0.27100
Cu	Cu	0.29728 0.25000 0.74924 0.92000
N 	N 	0.37338 0.25000 0.74833 -0.29100
C 	C 	0.47316 0.25000 0.74818 0.27100
Cu	Cu	0.20272 0.75000 0.24924 0.90800
N 	N 	0.12662 0.75000 0.24833 0.26600
C 	C 	0.02684 0.75000 0.24818 -1.59700
Cu	Cu	0.50000 0.25000 0.14968 0.90900
Cu	Cu	-0.00000 0.75000 0.64968 0.89900
Cu	Cu	0.00000 0.25000 0.39968 0.89900
Cu	Cu	0.50000 0.75000 0.89968 0.90900
Cu	Cu	0.00000 0.25000 0.35032 0.89900
Cu	Cu	0.50000 0.75000 0.85032 0.90900
Cu	Cu	0.50000 0.25000 0.10032 0.90900
Cu	Cu	0.00000 0.75000 0.60032 0.89900
C 	C 	0.78170 0.53170 0.12500 -0.02800
H 	H 	0.80530 0.55530 0.12500 0.03900
C 	C 	0.71150 0.46150 0.12500 -0.03200
C 	C 	0.67380 0.42380 0.12500 0.15000
C 	C 	0.60170 0.35170 0.12500 -0.21300
C 	C 	0.56430 0.31430 0.12500 0.39700
C 	C 	0.28170 0.03170 0.62500 -0.02900
H 	H 	0.30530 0.05530 0.62500 0.03900
C 	C 	0.21150 0.96150 0.62500 -0.03300
C 	C 	0.17380 0.92380 0.62500 0.14800
C 	C 	0.10170 0.85170 0.62500 -0.21500
C 	C 	0.06430 0.81430 0.62500 0.39700
C 	C 	0.71830 0.46830 0.62500 -0.02800
H 	H 	0.69470 0.44470 0.62500 0.03900
C 	C 	0.78850 0.53850 0.62500 -0.03200
C 	C 	0.82620 0.57620 0.62500 0.15000
C 	C 	0.89830 0.64830 0.62500 -0.21100
C 	C 	0.93570 0.68570 0.62500 0.39600
C 	C 	0.21830 0.96830 0.12500 -0.02900
H 	H 	0.19470 0.94470 0.12500 0.03900
C 	C 	0.28850 0.03850 0.12500 -0.03200
C 	C 	0.32620 0.07620 0.12500 0.14900
C 	C 	0.39830 0.14830 0.12500 -0.21300
C 	C 	0.43570 0.18570 0.12500 0.39700
C 	C 	0.71830 0.53170 0.37500 -0.02800
H 	H 	0.69470 0.55530 0.37500 0.03900
C 	C 	0.78850 0.46150 0.37500 -0.03200
C 	C 	0.82620 0.42380 0.37500 0.15000
C 	C 	0.89830 0.35170 0.37500 -0.21100
C 	C 	0.93570 0.31430 0.37500 0.39600
C 	C 	0.21830 0.03170 0.87500 -0.02900
H 	H 	0.19470 0.05530 0.87500 0.03900
C 	C 	0.28850 0.96150 0.87500 -0.03200
C 	C 	0.32620 0.92380 0.87500 0.14900
C 	C 	0.39830 0.85170 0.87500 -0.21300
C 	C 	0.43570 0.81430 0.87500 0.39700
C 	C 	0.78170 0.46830 0.87500 -0.02800
H 	H 	0.80530 0.44470 0.87500 0.03900
C 	C 	0.71150 0.53850 0.87500 -0.03200
C 	C 	0.67380 0.57620 0.87500 0.15000
C 	C 	0.60170 0.64830 0.87500 -0.21300
C 	C 	0.56430 0.68570 0.87500 0.39700
C 	C 	0.28170 0.96830 0.37500 -0.02900
H 	H 	0.30530 0.94470 0.37500 0.03900
C 	C 	0.21150 0.03850 0.37500 -0.03300
C 	C 	0.17380 0.07620 0.37500 0.14800
C 	C 	0.10170 0.14830 0.37500 -0.21500
C 	C 	0.06430 0.18570 0.37500 0.39700
C 	C 	0.21830 0.46830 0.87500 -0.02900
H 	H 	0.19470 0.44470 0.87500 0.03900
C 	C 	0.28850 0.53850 0.87500 -0.03200
C 	C 	0.32620 0.57620 0.87500 0.14900
C 	C 	0.39830 0.64830 0.87500 -0.21300
C 	C 	0.43570 0.68570 0.87500 0.39700
C 	C 	0.71830 0.96830 0.37500 -0.02800
H 	H 	0.69470 0.94470 0.37500 0.03900
C 	C 	0.78850 0.03850 0.37500 -0.03200
C 	C 	0.82620 0.07620 0.37500 0.15000
C 	C 	0.89830 0.14830 0.37500 -0.21100
C 	C 	0.93570 0.18570 0.37500 0.39600
C 	C 	0.28170 0.53170 0.37500 -0.02900
H 	H 	0.30530 0.55530 0.37500 0.03900
C 	C 	0.21150 0.46150 0.37500 -0.03300
C 	C 	0.17380 0.42380 0.37500 0.14800
C 	C 	0.10170 0.35170 0.37500 -0.21500
C 	C 	0.06430 0.31430 0.37500 0.39700
C 	C 	0.78170 0.03170 0.87500 -0.02800
H 	H 	0.80530 0.05530 0.87500 0.03900
C 	C 	0.71150 0.96150 0.87500 -0.03200
C 	C 	0.67380 0.92380 0.87500 0.15000
C 	C 	0.60170 0.85170 0.87500 -0.21300
C 	C 	0.56430 0.81430 0.87500 0.39700
C 	C 	0.28170 0.46830 0.62500 -0.02900
H 	H 	0.30530 0.44470 0.62500 0.03900
C 	C 	0.21150 0.53850 0.62500 -0.03300
C 	C 	0.17380 0.57620 0.62500 0.14800
C 	C 	0.10170 0.64830 0.62500 -0.21500
C 	C 	0.06430 0.68570 0.62500 0.39700
C 	C 	0.78170 0.96830 0.12500 -0.02800
H 	H 	0.80530 0.94470 0.12500 0.03900
C 	C 	0.71150 0.03850 0.12500 -0.03200
C 	C 	0.67380 0.07620 0.12500 0.15000
C 	C 	0.60170 0.14830 0.12500 -0.21300
C 	C 	0.56430 0.18570 0.12500 0.39700
C 	C 	0.21830 0.53170 0.12500 -0.02900
H 	H 	0.19470 0.55530 0.12500 0.03900
C 	C 	0.28850 0.46150 0.12500 -0.03200
C 	C 	0.32620 0.42380 0.12500 0.14900
C 	C 	0.39830 0.35170 0.12500 -0.21300
C 	C 	0.43570 0.31430 0.12500 0.39700
C 	C 	0.71830 0.03170 0.62500 -0.02800
H 	H 	0.69470 0.05530 0.62500 0.03900
C 	C 	0.78850 0.96150 0.62500 -0.03200
C 	C 	0.82620 0.92380 0.62500 0.15000
C 	C 	0.89830 0.85170 0.62500 -0.21100
C 	C 	0.93570 0.81430 0.62500 0.39600
