data_crystal

_cell_length_a 44.27100
_cell_length_b 44.27100
_cell_length_c 44.27100
_cell_angle_alpha 90.00000
_cell_angle_beta  90.00000
_cell_angle_gamma 90.00000

_symmetry_space_group_name_	'P 1'
_symmetry_space_group_name_H-M	'P 1'

loop_
_symmetry_equiv_pos_as_xyz
  x,y,z

loop_
_atom_site_label
_atom_site_type_symbol
_atom_site_fract_x
_atom_site_fract_y
_atom_site_fract_z
_atom_site_charge
O 	O 	0.64409 0.53066 0.18761 -0.37800
O 	O 	0.60851 0.53121 0.15170 -0.37700
C 	C 	0.61934 0.54073 0.17559 0.32700
C 	C 	0.60341 0.56450 0.19177 -0.03600
C 	C 	0.60840 0.57180 0.22272 -0.33500
H 	H 	0.62320 0.56060 0.23300 0.19100
C 	C 	0.58980 0.62310 0.28800 1.65500
N 	N 	0.60560 0.62550 0.31350 -0.56400
C 	C 	0.60020 0.63370 0.27650 -1.66200
H 	H 	0.58340 0.64550 0.27110 0.65900
N 	N 	0.61610 0.63620 0.30200 0.20700
C 	C 	0.61600 0.57710 0.21710 0.16100
H 	H 	0.63340 0.56880 0.22590 -0.07500
H 	H 	0.57240 0.63430 0.28310 -0.60500
N 	N 	0.62310 0.58980 0.28800 -1.17100
O 	O 	0.64409 0.03066 0.68761 -0.37900
O 	O 	0.60851 0.03121 0.65170 -0.37800
C 	C 	0.61934 0.04073 0.67559 0.32600
C 	C 	0.60341 0.06450 0.69177 -0.03600
C 	C 	0.60840 0.07180 0.72272 -0.33500
H 	H 	0.62320 0.06060 0.73300 0.19000
C 	C 	0.58980 0.12310 0.78800 1.65600
N 	N 	0.60560 0.12550 0.81350 -0.56400
C 	C 	0.60020 0.13370 0.77650 -1.66300
H 	H 	0.58340 0.14550 0.77110 0.66000
N 	N 	0.61610 0.13620 0.80200 0.20700
C 	C 	0.61600 0.07710 0.71710 0.16100
H 	H 	0.63340 0.06880 0.72590 -0.07500
H 	H 	0.57240 0.13430 0.78310 -0.60500
N 	N 	0.62310 0.08980 0.78800 -1.17100
O 	O 	0.14409 0.53066 0.68761 -0.37800
O 	O 	0.10851 0.53121 0.65170 -0.37900
C 	C 	0.11934 0.54073 0.67559 0.32600
C 	C 	0.10341 0.56450 0.69177 -0.03700
C 	C 	0.10840 0.57180 0.72272 -0.33600
H 	H 	0.12320 0.56060 0.73300 0.19000
C 	C 	0.08980 0.62310 0.78800 1.65500
N 	N 	0.10560 0.62550 0.81350 -0.56500
C 	C 	0.10020 0.63370 0.77650 -1.66400
H 	H 	0.08340 0.64550 0.77110 0.65800
N 	N 	0.11610 0.63620 0.80200 0.20600
C 	C 	0.11600 0.57710 0.71710 0.16100
H 	H 	0.13340 0.56880 0.72590 -0.07600
H 	H 	0.07240 0.63430 0.78310 -0.60700
N 	N 	0.12310 0.58980 0.78800 -1.17200
O 	O 	0.14409 0.03066 0.18761 -0.38000
O 	O 	0.10851 0.03121 0.15170 -0.37900
C 	C 	0.11934 0.04073 0.17559 0.32500
C 	C 	0.10341 0.06450 0.19177 -0.03800
C 	C 	0.10840 0.07180 0.22272 -0.33700
H 	H 	0.12320 0.06060 0.23300 0.19000
C 	C 	0.08980 0.12310 0.28800 1.65600
N 	N 	0.10560 0.12550 0.31350 -0.56500
C 	C 	0.10020 0.13370 0.27650 -1.66500
H 	H 	0.08340 0.14550 0.27110 0.65900
N 	N 	0.11610 0.13620 0.30200 0.20600
C 	C 	0.11600 0.07710 0.21710 0.16100
H 	H 	0.13340 0.06880 0.22590 -0.07600
H 	H 	0.07240 0.13430 0.28310 -0.60700
N 	N 	0.12310 0.08980 0.28800 -1.17200
O 	O 	0.35591 0.46934 0.18761 -0.37900
O 	O 	0.39149 0.46879 0.15170 -0.37800
C 	C 	0.38066 0.45927 0.17559 0.32600
C 	C 	0.39659 0.43550 0.19177 -0.03700
C 	C 	0.39160 0.42820 0.22272 -0.33600
H 	H 	0.37680 0.43940 0.23300 0.19000
C 	C 	0.41020 0.37690 0.28800 1.65500
N 	N 	0.39440 0.37450 0.31350 -0.56500
C 	C 	0.39980 0.36630 0.27650 -1.66300
H 	H 	0.41660 0.35450 0.27110 0.65800
N 	N 	0.38390 0.36380 0.30200 0.20600
C 	C 	0.38400 0.42290 0.21710 0.16000
H 	H 	0.36660 0.43120 0.22590 -0.07600
H 	H 	0.42760 0.36570 0.28310 -0.60600
N 	N 	0.37690 0.41020 0.28800 -1.17200
O 	O 	0.35591 0.96934 0.68761 -0.37700
O 	O 	0.39149 0.96879 0.65170 -0.37700
C 	C 	0.38066 0.95927 0.67559 0.32500
C 	C 	0.39659 0.93550 0.69177 -0.03700
C 	C 	0.39160 0.92820 0.72272 -0.33600
H 	H 	0.37680 0.93940 0.73300 0.19000
C 	C 	0.41020 0.87690 0.78800 1.65400
N 	N 	0.39440 0.87450 0.81350 -0.56400
C 	C 	0.39980 0.86630 0.77650 -1.66200
H 	H 	0.41660 0.85450 0.77110 0.65800
N 	N 	0.38390 0.86380 0.80200 0.20600
C 	C 	0.38400 0.92290 0.71710 0.16000
H 	H 	0.36660 0.93120 0.72590 -0.07600
H 	H 	0.42760 0.86570 0.78310 -0.60600
N 	N 	0.37690 0.91020 0.78800 -1.17200
O 	O 	0.85591 0.46934 0.68761 -0.37900
O 	O 	0.89149 0.46879 0.65170 -0.37800
C 	C 	0.88066 0.45927 0.67559 0.32600
C 	C 	0.89659 0.43550 0.69177 -0.03700
C 	C 	0.89160 0.42820 0.72272 -0.33500
H 	H 	0.87680 0.43940 0.73300 0.19000
C 	C 	0.91020 0.37690 0.78800 1.65400
N 	N 	0.89440 0.37450 0.81350 -0.56400
C 	C 	0.89980 0.36630 0.77650 -1.66200
H 	H 	0.91660 0.35450 0.77110 0.65800
N 	N 	0.88390 0.36380 0.80200 0.20600
C 	C 	0.88400 0.42290 0.71710 0.16000
H 	H 	0.86660 0.43120 0.72590 -0.07600
H 	H 	0.92760 0.36570 0.78310 -0.60500
N 	N 	0.87690 0.41020 0.78800 -1.17200
O 	O 	0.85591 0.96934 0.18761 -0.37700
O 	O 	0.89149 0.96879 0.15170 -0.37700
C 	C 	0.88066 0.95927 0.17559 0.32500
C 	C 	0.89659 0.93550 0.19177 -0.03600
C 	C 	0.89160 0.92820 0.22272 -0.33500
H 	H 	0.87680 0.93940 0.23300 0.19000
C 	C 	0.91020 0.87690 0.28800 1.65300
N 	N 	0.89440 0.87450 0.31350 -0.56400
C 	C 	0.89980 0.86630 0.27650 -1.66100
H 	H 	0.91660 0.85450 0.27110 0.65800
N 	N 	0.88390 0.86380 0.30200 0.20600
C 	C 	0.88400 0.92290 0.21710 0.15900
H 	H 	0.86660 0.93120 0.22590 -0.07600
H 	H 	0.92760 0.86570 0.28310 -0.60500
N 	N 	0.87690 0.91020 0.28800 -1.17100
O 	O 	0.35591 0.53066 0.81239 -0.37900
O 	O 	0.39149 0.53121 0.84830 -0.37800
C 	C 	0.38066 0.54073 0.82441 0.32600
C 	C 	0.39659 0.56450 0.80823 -0.03700
C 	C 	0.39160 0.57180 0.77728 -0.33600
H 	H 	0.37680 0.56060 0.76700 0.19000
C 	C 	0.41020 0.62310 0.71200 1.65400
N 	N 	0.39440 0.62550 0.68650 -0.56500
C 	C 	0.39980 0.63370 0.72350 -1.66300
H 	H 	0.41660 0.64550 0.72890 0.65800
N 	N 	0.38390 0.63620 0.69800 0.20600
C 	C 	0.38400 0.57710 0.78290 0.16000
H 	H 	0.36660 0.56880 0.77410 -0.07600
H 	H 	0.42760 0.63430 0.71690 -0.60600
N 	N 	0.37690 0.58980 0.71200 -1.17200
O 	O 	0.35591 0.03066 0.31239 -0.38000
O 	O 	0.39149 0.03121 0.34830 -0.37900
C 	C 	0.38066 0.04073 0.32441 0.32500
C 	C 	0.39659 0.06450 0.30823 -0.03700
C 	C 	0.39160 0.07180 0.27728 -0.33600
H 	H 	0.37680 0.06060 0.26700 0.18900
C 	C 	0.41020 0.12310 0.21200 1.65500
N 	N 	0.39440 0.12550 0.18650 -0.56500
C 	C 	0.39980 0.13370 0.22350 -1.66400
H 	H 	0.41660 0.14550 0.22890 0.65900
N 	N 	0.38390 0.13620 0.19800 0.20600
C 	C 	0.38400 0.07710 0.28290 0.16000
H 	H 	0.36660 0.06880 0.27410 -0.07600
H 	H 	0.42760 0.13430 0.21690 -0.60600
N 	N 	0.37690 0.08980 0.21200 -1.17200
O 	O 	0.85591 0.53066 0.31239 -0.37900
O 	O 	0.89149 0.53121 0.34830 -0.37800
C 	C 	0.88066 0.54073 0.32441 0.32600
C 	C 	0.89659 0.56450 0.30823 -0.03700
C 	C 	0.89160 0.57180 0.27728 -0.33500
H 	H 	0.87680 0.56060 0.26700 0.19000
C 	C 	0.91020 0.62310 0.21200 1.65400
N 	N 	0.89440 0.62550 0.18650 -0.56400
C 	C 	0.89980 0.63370 0.22350 -1.66200
H 	H 	0.91660 0.64550 0.22890 0.65800
N 	N 	0.88390 0.63620 0.19800 0.20600
C 	C 	0.88400 0.57710 0.28290 0.16000
H 	H 	0.86660 0.56880 0.27410 -0.07600
H 	H 	0.92760 0.63430 0.21690 -0.60500
N 	N 	0.87690 0.58980 0.21200 -1.17200
O 	O 	0.85591 0.03066 0.81239 -0.38000
O 	O 	0.89149 0.03121 0.84830 -0.37900
C 	C 	0.88066 0.04073 0.82441 0.32500
C 	C 	0.89659 0.06450 0.80823 -0.03700
C 	C 	0.89160 0.07180 0.77728 -0.33600
H 	H 	0.87680 0.06060 0.76700 0.18900
C 	C 	0.91020 0.12310 0.71200 1.65500
N 	N 	0.89440 0.12550 0.68650 -0.56500
C 	C 	0.89980 0.13370 0.72350 -1.66300
H 	H 	0.91660 0.14550 0.72890 0.65800
N 	N 	0.88390 0.13620 0.69800 0.20600
C 	C 	0.88400 0.07710 0.78290 0.16000
H 	H 	0.86660 0.06880 0.77410 -0.07600
H 	H 	0.92760 0.13430 0.71690 -0.60600
N 	N 	0.87690 0.08980 0.71200 -1.17200
O 	O 	0.64409 0.46934 0.81239 -0.37900
O 	O 	0.60851 0.46879 0.84830 -0.37800
C 	C 	0.61934 0.45927 0.82441 0.32600
C 	C 	0.60341 0.43550 0.80823 -0.03700
C 	C 	0.60840 0.42820 0.77728 -0.33600
H 	H 	0.62320 0.43940 0.76700 0.19000
C 	C 	0.58980 0.37690 0.71200 1.65400
N 	N 	0.60560 0.37450 0.68650 -0.56500
C 	C 	0.60020 0.36630 0.72350 -1.66300
H 	H 	0.58340 0.35450 0.72890 0.65800
N 	N 	0.61610 0.36380 0.69800 0.20600
C 	C 	0.61600 0.42290 0.78290 0.16000
H 	H 	0.63340 0.43120 0.77410 -0.07600
H 	H 	0.57240 0.36570 0.71690 -0.60600
N 	N 	0.62310 0.41020 0.71200 -1.17200
O 	O 	0.64409 0.96934 0.31239 -0.37700
O 	O 	0.60851 0.96879 0.34830 -0.37700
C 	C 	0.61934 0.95927 0.32441 0.32500
C 	C 	0.60341 0.93550 0.30823 -0.03700
C 	C 	0.60840 0.92820 0.27728 -0.33500
H 	H 	0.62320 0.93940 0.26700 0.19000
C 	C 	0.58980 0.87690 0.21200 1.65400
N 	N 	0.60560 0.87450 0.18650 -0.56400
C 	C 	0.60020 0.86630 0.22350 -1.66200
H 	H 	0.58340 0.85450 0.22890 0.65800
N 	N 	0.61610 0.86380 0.19800 0.20600
C 	C 	0.61600 0.92290 0.28290 0.16000
H 	H 	0.63340 0.93120 0.27410 -0.07600
H 	H 	0.57240 0.86570 0.21690 -0.60600
N 	N 	0.62310 0.91020 0.21200 -1.17100
O 	O 	0.14409 0.46934 0.31239 -0.37900
O 	O 	0.10851 0.46879 0.34830 -0.37900
C 	C 	0.11934 0.45927 0.32441 0.32600
C 	C 	0.10341 0.43550 0.30823 -0.03700
C 	C 	0.10840 0.42820 0.27728 -0.33600
H 	H 	0.12320 0.43940 0.26700 0.19000
C 	C 	0.08980 0.37690 0.21200 1.65500
N 	N 	0.10560 0.37450 0.18650 -0.56500
C 	C 	0.10020 0.36630 0.22350 -1.66400
H 	H 	0.08340 0.35450 0.22890 0.65800
N 	N 	0.11610 0.36380 0.19800 0.20600
C 	C 	0.11600 0.42290 0.28290 0.16100
H 	H 	0.13340 0.43120 0.27410 -0.07600
H 	H 	0.07240 0.36570 0.21690 -0.60700
N 	N 	0.12310 0.41020 0.21200 -1.17200
O 	O 	0.14409 0.96934 0.81239 -0.37700
O 	O 	0.10851 0.96879 0.84830 -0.37700
C 	C 	0.11934 0.95927 0.82441 0.32500
C 	C 	0.10341 0.93550 0.80823 -0.03700
C 	C 	0.10840 0.92820 0.77728 -0.33600
H 	H 	0.12320 0.93940 0.76700 0.19000
C 	C 	0.08980 0.87690 0.71200 1.65400
N 	N 	0.10560 0.87450 0.68650 -0.56500
C 	C 	0.10020 0.86630 0.72350 -1.66300
H 	H 	0.08340 0.85450 0.72890 0.65800
N 	N 	0.11610 0.86380 0.69800 0.20600
C 	C 	0.11600 0.92290 0.78290 0.16000
H 	H 	0.13340 0.93120 0.77410 -0.07600
H 	H 	0.07240 0.86570 0.71690 -0.60600
N 	N 	0.12310 0.91020 0.71200 -1.17200
O 	O 	0.18761 0.64409 0.53066 -0.37900
O 	O 	0.15170 0.60851 0.53121 -0.37800
C 	C 	0.17559 0.61934 0.54073 0.32600
C 	C 	0.19177 0.60341 0.56450 -0.03700
C 	C 	0.22272 0.60840 0.57180 -0.33600
H 	H 	0.23300 0.62320 0.56060 0.19000
C 	C 	0.28800 0.58980 0.62310 1.65400
N 	N 	0.31350 0.60560 0.62550 -0.56500
C 	C 	0.27650 0.60020 0.63370 -1.66300
H 	H 	0.27110 0.58340 0.64550 0.65800
N 	N 	0.30200 0.61610 0.63620 0.20600
C 	C 	0.21710 0.61600 0.57710 0.16000
H 	H 	0.22590 0.63340 0.56880 -0.07600
H 	H 	0.28310 0.57240 0.63430 -0.60600
N 	N 	0.28800 0.62310 0.58980 -1.17200
O 	O 	0.18761 0.14409 0.03066 -0.38000
O 	O 	0.15170 0.10851 0.03121 -0.37900
C 	C 	0.17559 0.11934 0.04073 0.32500
C 	C 	0.19177 0.10341 0.06450 -0.03800
C 	C 	0.22272 0.10840 0.07180 -0.33700
H 	H 	0.23300 0.12320 0.06060 0.19000
C 	C 	0.28800 0.08980 0.12310 1.65600
N 	N 	0.31350 0.10560 0.12550 -0.56500
C 	C 	0.27650 0.10020 0.13370 -1.66500
H 	H 	0.27110 0.08340 0.14550 0.65900
N 	N 	0.30200 0.11610 0.13620 0.20600
C 	C 	0.21710 0.11600 0.07710 0.16100
H 	H 	0.22590 0.13340 0.06880 -0.07600
H 	H 	0.28310 0.07240 0.13430 -0.60700
N 	N 	0.28800 0.12310 0.08980 -1.17200
O 	O 	0.68761 0.64409 0.03066 -0.38000
O 	O 	0.65170 0.60851 0.03121 -0.37900
C 	C 	0.67559 0.61934 0.04073 0.32500
C 	C 	0.69177 0.60341 0.06450 -0.03700
C 	C 	0.72272 0.60840 0.07180 -0.33600
H 	H 	0.73300 0.62320 0.06060 0.18900
C 	C 	0.78800 0.58980 0.12310 1.65500
N 	N 	0.81350 0.60560 0.12550 -0.56500
C 	C 	0.77650 0.60020 0.13370 -1.66400
H 	H 	0.77110 0.58340 0.14550 0.65900
N 	N 	0.80200 0.61610 0.13620 0.20600
C 	C 	0.71710 0.61600 0.07710 0.16000
H 	H 	0.72590 0.63340 0.06880 -0.07600
H 	H 	0.78310 0.57240 0.13430 -0.60600
N 	N 	0.78800 0.62310 0.08980 -1.17200
O 	O 	0.68761 0.14409 0.53066 -0.37900
O 	O 	0.65170 0.10851 0.53121 -0.37900
C 	C 	0.67559 0.11934 0.54073 0.32600
C 	C 	0.69177 0.10341 0.56450 -0.03700
C 	C 	0.72272 0.10840 0.57180 -0.33600
H 	H 	0.73300 0.12320 0.56060 0.19000
C 	C 	0.78800 0.08980 0.62310 1.65500
N 	N 	0.81350 0.10560 0.62550 -0.56500
C 	C 	0.77650 0.10020 0.63370 -1.66400
H 	H 	0.77110 0.08340 0.64550 0.65800
N 	N 	0.80200 0.11610 0.63620 0.20600
C 	C 	0.71710 0.11600 0.57710 0.16100
H 	H 	0.72590 0.13340 0.56880 -0.07600
H 	H 	0.78310 0.07240 0.63430 -0.60700
N 	N 	0.78800 0.12310 0.58980 -1.17200
O 	O 	0.18761 0.35591 0.46934 -0.37900
O 	O 	0.15170 0.39149 0.46879 -0.37800
C 	C 	0.17559 0.38066 0.45927 0.32600
C 	C 	0.19177 0.39659 0.43550 -0.03700
C 	C 	0.22272 0.39160 0.42820 -0.33600
H 	H 	0.23300 0.37680 0.43940 0.19000
C 	C 	0.28800 0.41020 0.37690 1.65500
N 	N 	0.31350 0.39440 0.37450 -0.56500
C 	C 	0.27650 0.39980 0.36630 -1.66300
H 	H 	0.27110 0.41660 0.35450 0.65800
N 	N 	0.30200 0.38390 0.36380 0.20600
C 	C 	0.21710 0.38400 0.42290 0.16000
H 	H 	0.22590 0.36660 0.43120 -0.07600
H 	H 	0.28310 0.42760 0.36570 -0.60600
N 	N 	0.28800 0.37690 0.41020 -1.17200
O 	O 	0.18761 0.85591 0.96934 -0.37700
O 	O 	0.15170 0.89149 0.96879 -0.37700
C 	C 	0.17559 0.88066 0.95927 0.32500
C 	C 	0.19177 0.89659 0.93550 -0.03600
C 	C 	0.22272 0.89160 0.92820 -0.33500
H 	H 	0.23300 0.87680 0.93940 0.19000
C 	C 	0.28800 0.91020 0.87690 1.65300
N 	N 	0.31350 0.89440 0.87450 -0.56400
C 	C 	0.27650 0.89980 0.86630 -1.66100
H 	H 	0.27110 0.91660 0.85450 0.65800
N 	N 	0.30200 0.88390 0.86380 0.20600
C 	C 	0.21710 0.88400 0.92290 0.15900
H 	H 	0.22590 0.86660 0.93120 -0.07600
H 	H 	0.28310 0.92760 0.86570 -0.60500
N 	N 	0.28800 0.87690 0.91020 -1.17100
O 	O 	0.68761 0.35591 0.96934 -0.37700
O 	O 	0.65170 0.39149 0.96879 -0.37700
C 	C 	0.67559 0.38066 0.95927 0.32500
C 	C 	0.69177 0.39659 0.93550 -0.03700
C 	C 	0.72272 0.39160 0.92820 -0.33600
H 	H 	0.73300 0.37680 0.93940 0.19000
C 	C 	0.78800 0.41020 0.87690 1.65400
N 	N 	0.81350 0.39440 0.87450 -0.56400
C 	C 	0.77650 0.39980 0.86630 -1.66200
H 	H 	0.77110 0.41660 0.85450 0.65800
N 	N 	0.80200 0.38390 0.86380 0.20600
C 	C 	0.71710 0.38400 0.92290 0.16000
H 	H 	0.72590 0.36660 0.93120 -0.07600
H 	H 	0.78310 0.42760 0.86570 -0.60600
N 	N 	0.78800 0.37690 0.91020 -1.17200
O 	O 	0.68761 0.85591 0.46934 -0.37900
O 	O 	0.65170 0.89149 0.46879 -0.37800
C 	C 	0.67559 0.88066 0.45927 0.32600
C 	C 	0.69177 0.89659 0.43550 -0.03700
C 	C 	0.72272 0.89160 0.42820 -0.33500
H 	H 	0.73300 0.87680 0.43940 0.19000
C 	C 	0.78800 0.91020 0.37690 1.65400
N 	N 	0.81350 0.89440 0.37450 -0.56400
C 	C 	0.77650 0.89980 0.36630 -1.66200
H 	H 	0.77110 0.91660 0.35450 0.65800
N 	N 	0.80200 0.88390 0.36380 0.20600
C 	C 	0.71710 0.88400 0.42290 0.16000
H 	H 	0.72590 0.86660 0.43120 -0.07600
H 	H 	0.78310 0.92760 0.36570 -0.60500
N 	N 	0.78800 0.87690 0.41020 -1.17200
O 	O 	0.81239 0.35591 0.53066 -0.37900
O 	O 	0.84830 0.39149 0.53121 -0.37800
C 	C 	0.82441 0.38066 0.54073 0.32600
C 	C 	0.80823 0.39659 0.56450 -0.03700
C 	C 	0.77728 0.39160 0.57180 -0.33600
H 	H 	0.76700 0.37680 0.56060 0.19000
C 	C 	0.71200 0.41020 0.62310 1.65400
N 	N 	0.68650 0.39440 0.62550 -0.56500
C 	C 	0.72350 0.39980 0.63370 -1.66300
H 	H 	0.72890 0.41660 0.64550 0.65800
N 	N 	0.69800 0.38390 0.63620 0.20600
C 	C 	0.78290 0.38400 0.57710 0.16000
H 	H 	0.77410 0.36660 0.56880 -0.07600
H 	H 	0.71690 0.42760 0.63430 -0.60600
N 	N 	0.71200 0.37690 0.58980 -1.17200
O 	O 	0.81239 0.85591 0.03066 -0.38000
O 	O 	0.84830 0.89149 0.03121 -0.37900
C 	C 	0.82441 0.88066 0.04073 0.32500
C 	C 	0.80823 0.89659 0.06450 -0.03700
C 	C 	0.77728 0.89160 0.07180 -0.33600
H 	H 	0.76700 0.87680 0.06060 0.18900
C 	C 	0.71200 0.91020 0.12310 1.65500
N 	N 	0.68650 0.89440 0.12550 -0.56500
C 	C 	0.72350 0.89980 0.13370 -1.66300
H 	H 	0.72890 0.91660 0.14550 0.65800
N 	N 	0.69800 0.88390 0.13620 0.20600
C 	C 	0.78290 0.88400 0.07710 0.16000
H 	H 	0.77410 0.86660 0.06880 -0.07600
H 	H 	0.71690 0.92760 0.13430 -0.60600
N 	N 	0.71200 0.87690 0.08980 -1.17200
O 	O 	0.31239 0.35591 0.03066 -0.38000
O 	O 	0.34830 0.39149 0.03121 -0.37900
C 	C 	0.32441 0.38066 0.04073 0.32500
C 	C 	0.30823 0.39659 0.06450 -0.03700
C 	C 	0.27728 0.39160 0.07180 -0.33600
H 	H 	0.26700 0.37680 0.06060 0.18900
C 	C 	0.21200 0.41020 0.12310 1.65500
N 	N 	0.18650 0.39440 0.12550 -0.56500
C 	C 	0.22350 0.39980 0.13370 -1.66400
H 	H 	0.22890 0.41660 0.14550 0.65900
N 	N 	0.19800 0.38390 0.13620 0.20600
C 	C 	0.28290 0.38400 0.07710 0.16000
H 	H 	0.27410 0.36660 0.06880 -0.07600
H 	H 	0.21690 0.42760 0.13430 -0.60600
N 	N 	0.21200 0.37690 0.08980 -1.17200
O 	O 	0.31239 0.85591 0.53066 -0.37900
O 	O 	0.34830 0.89149 0.53121 -0.37800
C 	C 	0.32441 0.88066 0.54073 0.32600
C 	C 	0.30823 0.89659 0.56450 -0.03700
C 	C 	0.27728 0.89160 0.57180 -0.33500
H 	H 	0.26700 0.87680 0.56060 0.19000
C 	C 	0.21200 0.91020 0.62310 1.65400
N 	N 	0.18650 0.89440 0.62550 -0.56400
C 	C 	0.22350 0.89980 0.63370 -1.66200
H 	H 	0.22890 0.91660 0.64550 0.65800
N 	N 	0.19800 0.88390 0.63620 0.20600
C 	C 	0.28290 0.88400 0.57710 0.16000
H 	H 	0.27410 0.86660 0.56880 -0.07600
H 	H 	0.21690 0.92760 0.63430 -0.60500
N 	N 	0.21200 0.87690 0.58980 -1.17200
O 	O 	0.81239 0.64409 0.46934 -0.37900
O 	O 	0.84830 0.60851 0.46879 -0.37800
C 	C 	0.82441 0.61934 0.45927 0.32600
C 	C 	0.80823 0.60341 0.43550 -0.03700
C 	C 	0.77728 0.60840 0.42820 -0.33600
H 	H 	0.76700 0.62320 0.43940 0.19000
C 	C 	0.71200 0.58980 0.37690 1.65400
N 	N 	0.68650 0.60560 0.37450 -0.56500
C 	C 	0.72350 0.60020 0.36630 -1.66300
H 	H 	0.72890 0.58340 0.35450 0.65800
N 	N 	0.69800 0.61610 0.36380 0.20600
C 	C 	0.78290 0.61600 0.42290 0.16000
H 	H 	0.77410 0.63340 0.43120 -0.07600
H 	H 	0.71690 0.57240 0.36570 -0.60600
N 	N 	0.71200 0.62310 0.41020 -1.17200
O 	O 	0.81239 0.14409 0.96934 -0.37700
O 	O 	0.84830 0.10851 0.96879 -0.37700
C 	C 	0.82441 0.11934 0.95927 0.32500
C 	C 	0.80823 0.10341 0.93550 -0.03700
C 	C 	0.77728 0.10840 0.92820 -0.33600
H 	H 	0.76700 0.12320 0.93940 0.19000
C 	C 	0.71200 0.08980 0.87690 1.65400
N 	N 	0.68650 0.10560 0.87450 -0.56500
C 	C 	0.72350 0.10020 0.86630 -1.66300
H 	H 	0.72890 0.08340 0.85450 0.65800
N 	N 	0.69800 0.11610 0.86380 0.20600
C 	C 	0.78290 0.11600 0.92290 0.16000
H 	H 	0.77410 0.13340 0.93120 -0.07600
H 	H 	0.71690 0.07240 0.86570 -0.60600
N 	N 	0.71200 0.12310 0.91020 -1.17200
O 	O 	0.31239 0.64409 0.96934 -0.37700
O 	O 	0.34830 0.60851 0.96879 -0.37700
C 	C 	0.32441 0.61934 0.95927 0.32500
C 	C 	0.30823 0.60341 0.93550 -0.03700
C 	C 	0.27728 0.60840 0.92820 -0.33500
H 	H 	0.26700 0.62320 0.93940 0.19000
C 	C 	0.21200 0.58980 0.87690 1.65400
N 	N 	0.18650 0.60560 0.87450 -0.56400
C 	C 	0.22350 0.60020 0.86630 -1.66200
H 	H 	0.22890 0.58340 0.85450 0.65800
N 	N 	0.19800 0.61610 0.86380 0.20600
C 	C 	0.28290 0.61600 0.92290 0.16000
H 	H 	0.27410 0.63340 0.93120 -0.07600
H 	H 	0.21690 0.57240 0.86570 -0.60600
N 	N 	0.21200 0.62310 0.91020 -1.17100
O 	O 	0.31239 0.14409 0.46934 -0.37900
O 	O 	0.34830 0.10851 0.46879 -0.37900
C 	C 	0.32441 0.11934 0.45927 0.32600
C 	C 	0.30823 0.10341 0.43550 -0.03700
C 	C 	0.27728 0.10840 0.42820 -0.33600
H 	H 	0.26700 0.12320 0.43940 0.19000
C 	C 	0.21200 0.08980 0.37690 1.65500
N 	N 	0.18650 0.10560 0.37450 -0.56500
C 	C 	0.22350 0.10020 0.36630 -1.66400
H 	H 	0.22890 0.08340 0.35450 0.65800
N 	N 	0.19800 0.11610 0.36380 0.20600
C 	C 	0.28290 0.11600 0.42290 0.16100
H 	H 	0.27410 0.13340 0.43120 -0.07600
H 	H 	0.21690 0.07240 0.36570 -0.60700
N 	N 	0.21200 0.12310 0.41020 -1.17200
O 	O 	0.53066 0.18761 0.64409 -0.37900
O 	O 	0.53121 0.15170 0.60851 -0.37800
C 	C 	0.54073 0.17559 0.61934 0.32600
C 	C 	0.56450 0.19177 0.60341 -0.03700
C 	C 	0.57180 0.22272 0.60840 -0.33600
H 	H 	0.56060 0.23300 0.62320 0.19000
C 	C 	0.62310 0.28800 0.58980 1.65400
N 	N 	0.62550 0.31350 0.60560 -0.56500
C 	C 	0.63370 0.27650 0.60020 -1.66300
H 	H 	0.64550 0.27110 0.58340 0.65800
N 	N 	0.63620 0.30200 0.61610 0.20600
C 	C 	0.57710 0.21710 0.61600 0.16000
H 	H 	0.56880 0.22590 0.63340 -0.07600
H 	H 	0.63430 0.28310 0.57240 -0.60600
N 	N 	0.58980 0.28800 0.62310 -1.17200
O 	O 	0.53066 0.68761 0.14409 -0.37900
O 	O 	0.53121 0.65170 0.10851 -0.37900
C 	C 	0.54073 0.67559 0.11934 0.32600
C 	C 	0.56450 0.69177 0.10341 -0.03700
C 	C 	0.57180 0.72272 0.10840 -0.33600
H 	H 	0.56060 0.73300 0.12320 0.19000
C 	C 	0.62310 0.78800 0.08980 1.65500
N 	N 	0.62550 0.81350 0.10560 -0.56500
C 	C 	0.63370 0.77650 0.10020 -1.66400
H 	H 	0.64550 0.77110 0.08340 0.65800
N 	N 	0.63620 0.80200 0.11610 0.20600
C 	C 	0.57710 0.71710 0.11600 0.16100
H 	H 	0.56880 0.72590 0.13340 -0.07600
H 	H 	0.63430 0.78310 0.07240 -0.60700
N 	N 	0.58980 0.78800 0.12310 -1.17200
O 	O 	0.03066 0.18761 0.14409 -0.38000
O 	O 	0.03121 0.15170 0.10851 -0.37900
C 	C 	0.04073 0.17559 0.11934 0.32500
C 	C 	0.06450 0.19177 0.10341 -0.03800
C 	C 	0.07180 0.22272 0.10840 -0.33700
H 	H 	0.06060 0.23300 0.12320 0.19000
C 	C 	0.12310 0.28800 0.08980 1.65600
N 	N 	0.12550 0.31350 0.10560 -0.56500
C 	C 	0.13370 0.27650 0.10020 -1.66500
H 	H 	0.14550 0.27110 0.08340 0.65900
N 	N 	0.13620 0.30200 0.11610 0.20600
C 	C 	0.07710 0.21710 0.11600 0.16100
H 	H 	0.06880 0.22590 0.13340 -0.07600
H 	H 	0.13430 0.28310 0.07240 -0.60700
N 	N 	0.08980 0.28800 0.12310 -1.17200
O 	O 	0.03066 0.68761 0.64409 -0.38000
O 	O 	0.03121 0.65170 0.60851 -0.37900
C 	C 	0.04073 0.67559 0.61934 0.32500
C 	C 	0.06450 0.69177 0.60341 -0.03700
C 	C 	0.07180 0.72272 0.60840 -0.33600
H 	H 	0.06060 0.73300 0.62320 0.18900
C 	C 	0.12310 0.78800 0.58980 1.65500
N 	N 	0.12550 0.81350 0.60560 -0.56500
C 	C 	0.13370 0.77650 0.60020 -1.66400
H 	H 	0.14550 0.77110 0.58340 0.65900
N 	N 	0.13620 0.80200 0.61610 0.20600
C 	C 	0.07710 0.71710 0.61600 0.16000
H 	H 	0.06880 0.72590 0.63340 -0.07600
H 	H 	0.13430 0.78310 0.57240 -0.60600
N 	N 	0.08980 0.78800 0.62310 -1.17200
O 	O 	0.46934 0.18761 0.35591 -0.37900
O 	O 	0.46879 0.15170 0.39149 -0.37800
C 	C 	0.45927 0.17559 0.38066 0.32600
C 	C 	0.43550 0.19177 0.39659 -0.03700
C 	C 	0.42820 0.22272 0.39160 -0.33600
H 	H 	0.43940 0.23300 0.37680 0.19000
C 	C 	0.37690 0.28800 0.41020 1.65500
N 	N 	0.37450 0.31350 0.39440 -0.56500
C 	C 	0.36630 0.27650 0.39980 -1.66300
H 	H 	0.35450 0.27110 0.41660 0.65800
N 	N 	0.36380 0.30200 0.38390 0.20600
C 	C 	0.42290 0.21710 0.38400 0.16000
H 	H 	0.43120 0.22590 0.36660 -0.07600
H 	H 	0.36570 0.28310 0.42760 -0.60600
N 	N 	0.41020 0.28800 0.37690 -1.17200
O 	O 	0.46934 0.68761 0.85591 -0.37900
O 	O 	0.46879 0.65170 0.89149 -0.37800
C 	C 	0.45927 0.67559 0.88066 0.32600
C 	C 	0.43550 0.69177 0.89659 -0.03700
C 	C 	0.42820 0.72272 0.89160 -0.33500
H 	H 	0.43940 0.73300 0.87680 0.19000
C 	C 	0.37690 0.78800 0.91020 1.65400
N 	N 	0.37450 0.81350 0.89440 -0.56400
C 	C 	0.36630 0.77650 0.89980 -1.66200
H 	H 	0.35450 0.77110 0.91660 0.65800
N 	N 	0.36380 0.80200 0.88390 0.20600
C 	C 	0.42290 0.71710 0.88400 0.16000
H 	H 	0.43120 0.72590 0.86660 -0.07600
H 	H 	0.36570 0.78310 0.92760 -0.60500
N 	N 	0.41020 0.78800 0.87690 -1.17200
O 	O 	0.96934 0.18761 0.85591 -0.37700
O 	O 	0.96879 0.15170 0.89149 -0.37700
C 	C 	0.95927 0.17559 0.88066 0.32500
C 	C 	0.93550 0.19177 0.89659 -0.03600
C 	C 	0.92820 0.22272 0.89160 -0.33500
H 	H 	0.93940 0.23300 0.87680 0.19000
C 	C 	0.87690 0.28800 0.91020 1.65300
N 	N 	0.87450 0.31350 0.89440 -0.56400
C 	C 	0.86630 0.27650 0.89980 -1.66100
H 	H 	0.85450 0.27110 0.91660 0.65800
N 	N 	0.86380 0.30200 0.88390 0.20600
C 	C 	0.92290 0.21710 0.88400 0.15900
H 	H 	0.93120 0.22590 0.86660 -0.07600
H 	H 	0.86570 0.28310 0.92760 -0.60500
N 	N 	0.91020 0.28800 0.87690 -1.17100
O 	O 	0.96934 0.68761 0.35591 -0.37700
O 	O 	0.96879 0.65170 0.39149 -0.37700
C 	C 	0.95927 0.67559 0.38066 0.32500
C 	C 	0.93550 0.69177 0.39659 -0.03700
C 	C 	0.92820 0.72272 0.39160 -0.33600
H 	H 	0.93940 0.73300 0.37680 0.19000
C 	C 	0.87690 0.78800 0.41020 1.65400
N 	N 	0.87450 0.81350 0.39440 -0.56400
C 	C 	0.86630 0.77650 0.39980 -1.66200
H 	H 	0.85450 0.77110 0.41660 0.65800
N 	N 	0.86380 0.80200 0.38390 0.20600
C 	C 	0.92290 0.71710 0.38400 0.16000
H 	H 	0.93120 0.72590 0.36660 -0.07600
H 	H 	0.86570 0.78310 0.42760 -0.60600
N 	N 	0.91020 0.78800 0.37690 -1.17200
O 	O 	0.53066 0.81239 0.35591 -0.37900
O 	O 	0.53121 0.84830 0.39149 -0.37800
C 	C 	0.54073 0.82441 0.38066 0.32600
C 	C 	0.56450 0.80823 0.39659 -0.03700
C 	C 	0.57180 0.77728 0.39160 -0.33600
H 	H 	0.56060 0.76700 0.37680 0.19000
C 	C 	0.62310 0.71200 0.41020 1.65400
N 	N 	0.62550 0.68650 0.39440 -0.56500
C 	C 	0.63370 0.72350 0.39980 -1.66300
H 	H 	0.64550 0.72890 0.41660 0.65800
N 	N 	0.63620 0.69800 0.38390 0.20600
C 	C 	0.57710 0.78290 0.38400 0.16000
H 	H 	0.56880 0.77410 0.36660 -0.07600
H 	H 	0.63430 0.71690 0.42760 -0.60600
N 	N 	0.58980 0.71200 0.37690 -1.17200
O 	O 	0.53066 0.31239 0.85591 -0.37900
O 	O 	0.53121 0.34830 0.89149 -0.37800
C 	C 	0.54073 0.32441 0.88066 0.32600
C 	C 	0.56450 0.30823 0.89659 -0.03700
C 	C 	0.57180 0.27728 0.89160 -0.33500
H 	H 	0.56060 0.26700 0.87680 0.19000
C 	C 	0.62310 0.21200 0.91020 1.65400
N 	N 	0.62550 0.18650 0.89440 -0.56400
C 	C 	0.63370 0.22350 0.89980 -1.66200
H 	H 	0.64550 0.22890 0.91660 0.65800
N 	N 	0.63620 0.19800 0.88390 0.20600
C 	C 	0.57710 0.28290 0.88400 0.16000
H 	H 	0.56880 0.27410 0.86660 -0.07600
H 	H 	0.63430 0.21690 0.92760 -0.60500
N 	N 	0.58980 0.21200 0.87690 -1.17200
O 	O 	0.03066 0.81239 0.85591 -0.38000
O 	O 	0.03121 0.84830 0.89149 -0.37900
C 	C 	0.04073 0.82441 0.88066 0.32500
C 	C 	0.06450 0.80823 0.89659 -0.03700
C 	C 	0.07180 0.77728 0.89160 -0.33600
H 	H 	0.06060 0.76700 0.87680 0.18900
C 	C 	0.12310 0.71200 0.91020 1.65500
N 	N 	0.12550 0.68650 0.89440 -0.56500
C 	C 	0.13370 0.72350 0.89980 -1.66300
H 	H 	0.14550 0.72890 0.91660 0.65800
N 	N 	0.13620 0.69800 0.88390 0.20600
C 	C 	0.07710 0.78290 0.88400 0.16000
H 	H 	0.06880 0.77410 0.86660 -0.07600
H 	H 	0.13430 0.71690 0.92760 -0.60600
N 	N 	0.08980 0.71200 0.87690 -1.17200
O 	O 	0.03066 0.31239 0.35591 -0.38000
O 	O 	0.03121 0.34830 0.39149 -0.37900
C 	C 	0.04073 0.32441 0.38066 0.32500
C 	C 	0.06450 0.30823 0.39659 -0.03700
C 	C 	0.07180 0.27728 0.39160 -0.33600
H 	H 	0.06060 0.26700 0.37680 0.18900
C 	C 	0.12310 0.21200 0.41020 1.65500
N 	N 	0.12550 0.18650 0.39440 -0.56500
C 	C 	0.13370 0.22350 0.39980 -1.66400
H 	H 	0.14550 0.22890 0.41660 0.65900
N 	N 	0.13620 0.19800 0.38390 0.20600
C 	C 	0.07710 0.28290 0.38400 0.16000
H 	H 	0.06880 0.27410 0.36660 -0.07600
H 	H 	0.13430 0.21690 0.42760 -0.60600
N 	N 	0.08980 0.21200 0.37690 -1.17200
O 	O 	0.46934 0.81239 0.64409 -0.37900
O 	O 	0.46879 0.84830 0.60851 -0.37800
C 	C 	0.45927 0.82441 0.61934 0.32600
C 	C 	0.43550 0.80823 0.60341 -0.03700
C 	C 	0.42820 0.77728 0.60840 -0.33600
H 	H 	0.43940 0.76700 0.62320 0.19000
C 	C 	0.37690 0.71200 0.58980 1.65400
N 	N 	0.37450 0.68650 0.60560 -0.56500
C 	C 	0.36630 0.72350 0.60020 -1.66300
H 	H 	0.35450 0.72890 0.58340 0.65800
N 	N 	0.36380 0.69800 0.61610 0.20600
C 	C 	0.42290 0.78290 0.61600 0.16000
H 	H 	0.43120 0.77410 0.63340 -0.07600
H 	H 	0.36570 0.71690 0.57240 -0.60600
N 	N 	0.41020 0.71200 0.62310 -1.17200
O 	O 	0.46934 0.31239 0.14409 -0.37900
O 	O 	0.46879 0.34830 0.10851 -0.37900
C 	C 	0.45927 0.32441 0.11934 0.32600
C 	C 	0.43550 0.30823 0.10341 -0.03700
C 	C 	0.42820 0.27728 0.10840 -0.33600
H 	H 	0.43940 0.26700 0.12320 0.19000
C 	C 	0.37690 0.21200 0.08980 1.65500
N 	N 	0.37450 0.18650 0.10560 -0.56500
C 	C 	0.36630 0.22350 0.10020 -1.66400
H 	H 	0.35450 0.22890 0.08340 0.65800
N 	N 	0.36380 0.19800 0.11610 0.20600
C 	C 	0.42290 0.28290 0.11600 0.16100
H 	H 	0.43120 0.27410 0.13340 -0.07600
H 	H 	0.36570 0.21690 0.07240 -0.60700
N 	N 	0.41020 0.21200 0.12310 -1.17200
O 	O 	0.96934 0.81239 0.14409 -0.37700
O 	O 	0.96879 0.84830 0.10851 -0.37700
C 	C 	0.95927 0.82441 0.11934 0.32500
C 	C 	0.93550 0.80823 0.10341 -0.03700
C 	C 	0.92820 0.77728 0.10840 -0.33600
H 	H 	0.93940 0.76700 0.12320 0.19000
C 	C 	0.87690 0.71200 0.08980 1.65400
N 	N 	0.87450 0.68650 0.10560 -0.56500
C 	C 	0.86630 0.72350 0.10020 -1.66300
H 	H 	0.85450 0.72890 0.08340 0.65800
N 	N 	0.86380 0.69800 0.11610 0.20600
C 	C 	0.92290 0.78290 0.11600 0.16000
H 	H 	0.93120 0.77410 0.13340 -0.07600
H 	H 	0.86570 0.71690 0.07240 -0.60600
N 	N 	0.91020 0.71200 0.12310 -1.17200
O 	O 	0.96934 0.31239 0.64409 -0.37700
O 	O 	0.96879 0.34830 0.60851 -0.37700
C 	C 	0.95927 0.32441 0.61934 0.32500
C 	C 	0.93550 0.30823 0.60341 -0.03700
C 	C 	0.92820 0.27728 0.60840 -0.33500
H 	H 	0.93940 0.26700 0.62320 0.19000
C 	C 	0.87690 0.21200 0.58980 1.65400
N 	N 	0.87450 0.18650 0.60560 -0.56400
C 	C 	0.86630 0.22350 0.60020 -1.66200
H 	H 	0.85450 0.22890 0.58340 0.65800
N 	N 	0.86380 0.19800 0.61610 0.20600
C 	C 	0.92290 0.28290 0.61600 0.16000
H 	H 	0.93120 0.27410 0.63340 -0.07600
H 	H 	0.86570 0.21690 0.57240 -0.60600
N 	N 	0.91020 0.21200 0.62310 -1.17100
O 	O 	0.53066 0.64409 0.81239 -0.37900
O 	O 	0.53121 0.60851 0.84830 -0.37900
C 	C 	0.54073 0.61934 0.82441 0.32600
C 	C 	0.56450 0.60341 0.80823 -0.03700
C 	C 	0.57180 0.60840 0.77728 -0.33600
H 	H 	0.56060 0.62320 0.76700 0.19000
C 	C 	0.62310 0.58980 0.71200 1.65400
N 	N 	0.62550 0.60560 0.68650 -0.56500
C 	C 	0.63370 0.60020 0.72350 -1.66300
H 	H 	0.64550 0.58340 0.72890 0.65800
N 	N 	0.63620 0.61610 0.69800 0.20600
C 	C 	0.57710 0.61600 0.78290 0.16000
H 	H 	0.56880 0.63340 0.77410 -0.07600
H 	H 	0.63430 0.57240 0.71690 -0.60600
N 	N 	0.58980 0.62310 0.71200 -1.17200
O 	O 	0.53066 0.14409 0.31239 -0.37900
O 	O 	0.53121 0.10851 0.34830 -0.37900
C 	C 	0.54073 0.11934 0.32441 0.32600
C 	C 	0.56450 0.10341 0.30823 -0.03700
C 	C 	0.57180 0.10840 0.27728 -0.33600
H 	H 	0.56060 0.12320 0.26700 0.19000
C 	C 	0.62310 0.08980 0.21200 1.65500
N 	N 	0.62550 0.10560 0.18650 -0.56500
C 	C 	0.63370 0.10020 0.22350 -1.66400
H 	H 	0.64550 0.08340 0.22890 0.65800
N 	N 	0.63620 0.11610 0.19800 0.20600
C 	C 	0.57710 0.11600 0.28290 0.16100
H 	H 	0.56880 0.13340 0.27410 -0.07600
H 	H 	0.63430 0.07240 0.21690 -0.60700
N 	N 	0.58980 0.12310 0.21200 -1.17200
O 	O 	0.03066 0.64409 0.31239 -0.38000
O 	O 	0.03121 0.60851 0.34830 -0.37900
C 	C 	0.04073 0.61934 0.32441 0.32500
C 	C 	0.06450 0.60341 0.30823 -0.03800
C 	C 	0.07180 0.60840 0.27728 -0.33600
H 	H 	0.06060 0.62320 0.26700 0.18900
C 	C 	0.12310 0.58980 0.21200 1.65500
N 	N 	0.12550 0.60560 0.18650 -0.56500
C 	C 	0.13370 0.60020 0.22350 -1.66400
H 	H 	0.14550 0.58340 0.22890 0.65900
N 	N 	0.13620 0.61610 0.19800 0.20600
C 	C 	0.07710 0.61600 0.28290 0.16000
H 	H 	0.06880 0.63340 0.27410 -0.07600
H 	H 	0.13430 0.57240 0.21690 -0.60600
N 	N 	0.08980 0.62310 0.21200 -1.17200
O 	O 	0.03066 0.14409 0.81239 -0.38000
O 	O 	0.03121 0.10851 0.84830 -0.37900
C 	C 	0.04073 0.11934 0.82441 0.32500
C 	C 	0.06450 0.10341 0.80823 -0.03800
C 	C 	0.07180 0.10840 0.77728 -0.33700
H 	H 	0.06060 0.12320 0.76700 0.19000
C 	C 	0.12310 0.08980 0.71200 1.65600
N 	N 	0.12550 0.10560 0.68650 -0.56500
C 	C 	0.13370 0.10020 0.72350 -1.66500
H 	H 	0.14550 0.08340 0.72890 0.65900
N 	N 	0.13620 0.11610 0.69800 0.20600
C 	C 	0.07710 0.11600 0.78290 0.16100
H 	H 	0.06880 0.13340 0.77410 -0.07600
H 	H 	0.13430 0.07240 0.71690 -0.60700
N 	N 	0.08980 0.12310 0.71200 -1.17200
O 	O 	0.46934 0.35591 0.81239 -0.37900
O 	O 	0.46879 0.39149 0.84830 -0.37800
C 	C 	0.45927 0.38066 0.82441 0.32600
C 	C 	0.43550 0.39659 0.80823 -0.03700
C 	C 	0.42820 0.39160 0.77728 -0.33600
H 	H 	0.43940 0.37680 0.76700 0.19000
C 	C 	0.37690 0.41020 0.71200 1.65500
N 	N 	0.37450 0.39440 0.68650 -0.56500
C 	C 	0.36630 0.39980 0.72350 -1.66300
H 	H 	0.35450 0.41660 0.72890 0.65800
N 	N 	0.36380 0.38390 0.69800 0.20600
C 	C 	0.42290 0.38400 0.78290 0.16000
H 	H 	0.43120 0.36660 0.77410 -0.07600
H 	H 	0.36570 0.42760 0.71690 -0.60600
N 	N 	0.41020 0.37690 0.71200 -1.17200
O 	O 	0.46934 0.85591 0.31239 -0.37900
O 	O 	0.46879 0.89149 0.34830 -0.37800
C 	C 	0.45927 0.88066 0.32441 0.32600
C 	C 	0.43550 0.89659 0.30823 -0.03700
C 	C 	0.42820 0.89160 0.27728 -0.33500
H 	H 	0.43940 0.87680 0.26700 0.19000
C 	C 	0.37690 0.91020 0.21200 1.65400
N 	N 	0.37450 0.89440 0.18650 -0.56400
C 	C 	0.36630 0.89980 0.22350 -1.66200
H 	H 	0.35450 0.91660 0.22890 0.65800
N 	N 	0.36380 0.88390 0.19800 0.20600
C 	C 	0.42290 0.88400 0.28290 0.16000
H 	H 	0.43120 0.86660 0.27410 -0.07600
H 	H 	0.36570 0.92760 0.21690 -0.60500
N 	N 	0.41020 0.87690 0.21200 -1.17200
O 	O 	0.96934 0.35591 0.31239 -0.37700
O 	O 	0.96879 0.39149 0.34830 -0.37700
C 	C 	0.95927 0.38066 0.32441 0.32500
C 	C 	0.93550 0.39659 0.30823 -0.03700
C 	C 	0.92820 0.39160 0.27728 -0.33600
H 	H 	0.93940 0.37680 0.26700 0.19000
C 	C 	0.87690 0.41020 0.21200 1.65400
N 	N 	0.87450 0.39440 0.18650 -0.56400
C 	C 	0.86630 0.39980 0.22350 -1.66200
H 	H 	0.85450 0.41660 0.22890 0.65800
N 	N 	0.86380 0.38390 0.19800 0.20600
C 	C 	0.92290 0.38400 0.28290 0.16000
H 	H 	0.93120 0.36660 0.27410 -0.07600
H 	H 	0.86570 0.42760 0.21690 -0.60600
N 	N 	0.91020 0.37690 0.21200 -1.17100
O 	O 	0.96934 0.85591 0.81239 -0.37700
O 	O 	0.96879 0.89149 0.84830 -0.37700
C 	C 	0.95927 0.88066 0.82441 0.32500
C 	C 	0.93550 0.89659 0.80823 -0.03600
C 	C 	0.92820 0.89160 0.77728 -0.33500
H 	H 	0.93940 0.87680 0.76700 0.19000
C 	C 	0.87690 0.91020 0.71200 1.65300
N 	N 	0.87450 0.89440 0.68650 -0.56400
C 	C 	0.86630 0.89980 0.72350 -1.66100
H 	H 	0.85450 0.91660 0.72890 0.65800
N 	N 	0.86380 0.88390 0.69800 0.20600
C 	C 	0.92290 0.88400 0.78290 0.15900
H 	H 	0.93120 0.86660 0.77410 -0.07600
H 	H 	0.86570 0.92760 0.71690 -0.60500
N 	N 	0.91020 0.87690 0.71200 -1.17100
O 	O 	0.53066 0.35591 0.18761 -0.37900
O 	O 	0.53121 0.39149 0.15170 -0.37800
C 	C 	0.54073 0.38066 0.17559 0.32600
C 	C 	0.56450 0.39659 0.19177 -0.03700
C 	C 	0.57180 0.39160 0.22272 -0.33600
H 	H 	0.56060 0.37680 0.23300 0.19000
C 	C 	0.62310 0.41020 0.28800 1.65400
N 	N 	0.62550 0.39440 0.31350 -0.56500
C 	C 	0.63370 0.39980 0.27650 -1.66300
H 	H 	0.64550 0.41660 0.27110 0.65800
N 	N 	0.63620 0.38390 0.30200 0.20600
C 	C 	0.57710 0.38400 0.21710 0.16000
H 	H 	0.56880 0.36660 0.22590 -0.07600
H 	H 	0.63430 0.42760 0.28310 -0.60600
N 	N 	0.58980 0.37690 0.28800 -1.17200
O 	O 	0.53066 0.85591 0.68761 -0.37900
O 	O 	0.53121 0.89149 0.65170 -0.37800
C 	C 	0.54073 0.88066 0.67559 0.32600
C 	C 	0.56450 0.89659 0.69177 -0.03700
C 	C 	0.57180 0.89160 0.72272 -0.33500
H 	H 	0.56060 0.87680 0.73300 0.19000
C 	C 	0.62310 0.91020 0.78800 1.65400
N 	N 	0.62550 0.89440 0.81350 -0.56400
C 	C 	0.63370 0.89980 0.77650 -1.66200
H 	H 	0.64550 0.91660 0.77110 0.65800
N 	N 	0.63620 0.88390 0.80200 0.20600
C 	C 	0.57710 0.88400 0.71710 0.16000
H 	H 	0.56880 0.86660 0.72590 -0.07600
H 	H 	0.63430 0.92760 0.78310 -0.60500
N 	N 	0.58980 0.87690 0.78800 -1.17200
O 	O 	0.03066 0.35591 0.68761 -0.38000
O 	O 	0.03121 0.39149 0.65170 -0.37900
C 	C 	0.04073 0.38066 0.67559 0.32500
C 	C 	0.06450 0.39659 0.69177 -0.03700
C 	C 	0.07180 0.39160 0.72272 -0.33600
H 	H 	0.06060 0.37680 0.73300 0.18900
C 	C 	0.12310 0.41020 0.78800 1.65500
N 	N 	0.12550 0.39440 0.81350 -0.56500
C 	C 	0.13370 0.39980 0.77650 -1.66400
H 	H 	0.14550 0.41660 0.77110 0.65900
N 	N 	0.13620 0.38390 0.80200 0.20600
C 	C 	0.07710 0.38400 0.71710 0.16000
H 	H 	0.06880 0.36660 0.72590 -0.07600
H 	H 	0.13430 0.42760 0.78310 -0.60600
N 	N 	0.08980 0.37690 0.78800 -1.17200
O 	O 	0.03066 0.85591 0.18761 -0.37900
O 	O 	0.03121 0.89149 0.15170 -0.37900
C 	C 	0.04073 0.88066 0.17559 0.32500
C 	C 	0.06450 0.89659 0.19177 -0.03700
C 	C 	0.07180 0.89160 0.22272 -0.33600
H 	H 	0.06060 0.87680 0.23300 0.18900
C 	C 	0.12310 0.91020 0.28800 1.65500
N 	N 	0.12550 0.89440 0.31350 -0.56500
C 	C 	0.13370 0.89980 0.27650 -1.66300
H 	H 	0.14550 0.91660 0.27110 0.65800
N 	N 	0.13620 0.88390 0.30200 0.20600
C 	C 	0.07710 0.88400 0.21710 0.16000
H 	H 	0.06880 0.86660 0.22590 -0.07600
H 	H 	0.13430 0.92760 0.28310 -0.60600
N 	N 	0.08980 0.87690 0.28800 -1.17200
O 	O 	0.46934 0.64409 0.18761 -0.37900
O 	O 	0.46879 0.60851 0.15170 -0.37800
C 	C 	0.45927 0.61934 0.17559 0.32600
C 	C 	0.43550 0.60341 0.19177 -0.03700
C 	C 	0.42820 0.60840 0.22272 -0.33600
H 	H 	0.43940 0.62320 0.23300 0.19000
C 	C 	0.37690 0.58980 0.28800 1.65400
N 	N 	0.37450 0.60560 0.31350 -0.56500
C 	C 	0.36630 0.60020 0.27650 -1.66300
H 	H 	0.35450 0.58340 0.27110 0.65800
N 	N 	0.36380 0.61610 0.30200 0.20600
C 	C 	0.42290 0.61600 0.21710 0.16000
H 	H 	0.43120 0.63340 0.22590 -0.07600
H 	H 	0.36570 0.57240 0.28310 -0.60600
N 	N 	0.41020 0.62310 0.28800 -1.17200
O 	O 	0.46934 0.14409 0.68761 -0.37900
O 	O 	0.46879 0.10851 0.65170 -0.37900
C 	C 	0.45927 0.11934 0.67559 0.32600
C 	C 	0.43550 0.10341 0.69177 -0.03700
C 	C 	0.42820 0.10840 0.72272 -0.33600
H 	H 	0.43940 0.12320 0.73300 0.19000
C 	C 	0.37690 0.08980 0.78800 1.65500
N 	N 	0.37450 0.10560 0.81350 -0.56500
C 	C 	0.36630 0.10020 0.77650 -1.66400
H 	H 	0.35450 0.08340 0.77110 0.65800
N 	N 	0.36380 0.11610 0.80200 0.20600
C 	C 	0.42290 0.11600 0.71710 0.16100
H 	H 	0.43120 0.13340 0.72590 -0.07600
H 	H 	0.36570 0.07240 0.78310 -0.60700
N 	N 	0.41020 0.12310 0.78800 -1.17200
O 	O 	0.96934 0.64409 0.68761 -0.37700
O 	O 	0.96879 0.60851 0.65170 -0.37700
C 	C 	0.95927 0.61934 0.67559 0.32500
C 	C 	0.93550 0.60341 0.69177 -0.03700
C 	C 	0.92820 0.60840 0.72272 -0.33600
H 	H 	0.93940 0.62320 0.73300 0.19000
C 	C 	0.87690 0.58980 0.78800 1.65400
N 	N 	0.87450 0.60560 0.81350 -0.56400
C 	C 	0.86630 0.60020 0.77650 -1.66200
H 	H 	0.85450 0.58340 0.77110 0.65800
N 	N 	0.86380 0.61610 0.80200 0.20600
C 	C 	0.92290 0.61600 0.71710 0.16000
H 	H 	0.93120 0.63340 0.72590 -0.07600
H 	H 	0.86570 0.57240 0.78310 -0.60600
N 	N 	0.91020 0.62310 0.78800 -1.17200
O 	O 	0.96934 0.14409 0.18761 -0.37700
O 	O 	0.96879 0.10851 0.15170 -0.37700
C 	C 	0.95927 0.11934 0.17559 0.32500
C 	C 	0.93550 0.10341 0.19177 -0.03700
C 	C 	0.92820 0.10840 0.22272 -0.33600
H 	H 	0.93940 0.12320 0.23300 0.19000
C 	C 	0.87690 0.08980 0.28800 1.65400
N 	N 	0.87450 0.10560 0.31350 -0.56500
C 	C 	0.86630 0.10020 0.27650 -1.66300
H 	H 	0.85450 0.08340 0.27110 0.65800
N 	N 	0.86380 0.11610 0.30200 0.20600
C 	C 	0.92290 0.11600 0.21710 0.16000
H 	H 	0.93120 0.13340 0.22590 -0.07600
H 	H 	0.86570 0.07240 0.28310 -0.60600
N 	N 	0.91020 0.12310 0.28800 -1.17200
O 	O 	0.64409 0.18761 0.46934 -0.37900
O 	O 	0.60851 0.15170 0.46879 -0.37800
C 	C 	0.61934 0.17559 0.45927 0.32600
C 	C 	0.60341 0.19177 0.43550 -0.03700
C 	C 	0.60840 0.22272 0.42820 -0.33600
H 	H 	0.62320 0.23300 0.43940 0.19000
C 	C 	0.58980 0.28800 0.37690 1.65400
N 	N 	0.60560 0.31350 0.37450 -0.56500
C 	C 	0.60020 0.27650 0.36630 -1.66300
H 	H 	0.58340 0.27110 0.35450 0.65800
N 	N 	0.61610 0.30200 0.36380 0.20600
C 	C 	0.61600 0.21710 0.42290 0.16000
H 	H 	0.63340 0.22590 0.43120 -0.07600
H 	H 	0.57240 0.28310 0.36570 -0.60600
N 	N 	0.62310 0.28800 0.41020 -1.17200
O 	O 	0.64409 0.68761 0.96934 -0.37700
O 	O 	0.60851 0.65170 0.96879 -0.37700
C 	C 	0.61934 0.67559 0.95927 0.32500
C 	C 	0.60341 0.69177 0.93550 -0.03700
C 	C 	0.60840 0.72272 0.92820 -0.33600
H 	H 	0.62320 0.73300 0.93940 0.19000
C 	C 	0.58980 0.78800 0.87690 1.65400
N 	N 	0.60560 0.81350 0.87450 -0.56400
C 	C 	0.60020 0.77650 0.86630 -1.66200
H 	H 	0.58340 0.77110 0.85450 0.65800
N 	N 	0.61610 0.80200 0.86380 0.20600
C 	C 	0.61600 0.71710 0.92290 0.16000
H 	H 	0.63340 0.72590 0.93120 -0.07600
H 	H 	0.57240 0.78310 0.86570 -0.60600
N 	N 	0.62310 0.78800 0.91020 -1.17200
O 	O 	0.14409 0.18761 0.96934 -0.37700
O 	O 	0.10851 0.15170 0.96879 -0.37700
C 	C 	0.11934 0.17559 0.95927 0.32500
C 	C 	0.10341 0.19177 0.93550 -0.03700
C 	C 	0.10840 0.22272 0.92820 -0.33600
H 	H 	0.12320 0.23300 0.93940 0.19000
C 	C 	0.08980 0.28800 0.87690 1.65400
N 	N 	0.10560 0.31350 0.87450 -0.56500
C 	C 	0.10020 0.27650 0.86630 -1.66300
H 	H 	0.08340 0.27110 0.85450 0.65800
N 	N 	0.11610 0.30200 0.86380 0.20600
C 	C 	0.11600 0.21710 0.92290 0.16000
H 	H 	0.13340 0.22590 0.93120 -0.07600
H 	H 	0.07240 0.28310 0.86570 -0.60600
N 	N 	0.12310 0.28800 0.91020 -1.17200
O 	O 	0.14409 0.68761 0.46934 -0.37900
O 	O 	0.10851 0.65170 0.46879 -0.37900
C 	C 	0.11934 0.67559 0.45927 0.32600
C 	C 	0.10341 0.69177 0.43550 -0.03700
C 	C 	0.10840 0.72272 0.42820 -0.33600
H 	H 	0.12320 0.73300 0.43940 0.19000
C 	C 	0.08980 0.78800 0.37690 1.65500
N 	N 	0.10560 0.81350 0.37450 -0.56500
C 	C 	0.10020 0.77650 0.36630 -1.66400
H 	H 	0.08340 0.77110 0.35450 0.65800
N 	N 	0.11610 0.80200 0.36380 0.20600
C 	C 	0.11600 0.71710 0.42290 0.16100
H 	H 	0.13340 0.72590 0.43120 -0.07600
H 	H 	0.07240 0.78310 0.36570 -0.60700
N 	N 	0.12310 0.78800 0.41020 -1.17200
O 	O 	0.35591 0.18761 0.53066 -0.37900
O 	O 	0.39149 0.15170 0.53121 -0.37800
C 	C 	0.38066 0.17559 0.54073 0.32600
C 	C 	0.39659 0.19177 0.56450 -0.03700
C 	C 	0.39160 0.22272 0.57180 -0.33600
H 	H 	0.37680 0.23300 0.56060 0.19000
C 	C 	0.41020 0.28800 0.62310 1.65400
N 	N 	0.39440 0.31350 0.62550 -0.56500
C 	C 	0.39980 0.27650 0.63370 -1.66300
H 	H 	0.41660 0.27110 0.64550 0.65800
N 	N 	0.38390 0.30200 0.63620 0.20600
C 	C 	0.38400 0.21710 0.57710 0.16000
H 	H 	0.36660 0.22590 0.56880 -0.07600
H 	H 	0.42760 0.28310 0.63430 -0.60600
N 	N 	0.37690 0.28800 0.58980 -1.17200
O 	O 	0.35591 0.68761 0.03066 -0.38000
O 	O 	0.39149 0.65170 0.03121 -0.37900
C 	C 	0.38066 0.67559 0.04073 0.32500
C 	C 	0.39659 0.69177 0.06450 -0.03700
C 	C 	0.39160 0.72272 0.07180 -0.33600
H 	H 	0.37680 0.73300 0.06060 0.18900
C 	C 	0.41020 0.78800 0.12310 1.65500
N 	N 	0.39440 0.81350 0.12550 -0.56500
C 	C 	0.39980 0.77650 0.13370 -1.66400
H 	H 	0.41660 0.77110 0.14550 0.65900
N 	N 	0.38390 0.80200 0.13620 0.20600
C 	C 	0.38400 0.71710 0.07710 0.16000
H 	H 	0.36660 0.72590 0.06880 -0.07600
H 	H 	0.42760 0.78310 0.13430 -0.60600
N 	N 	0.37690 0.78800 0.08980 -1.17200
O 	O 	0.85591 0.18761 0.03066 -0.37900
O 	O 	0.89149 0.15170 0.03121 -0.37900
C 	C 	0.88066 0.17559 0.04073 0.32500
C 	C 	0.89659 0.19177 0.06450 -0.03700
C 	C 	0.89160 0.22272 0.07180 -0.33600
H 	H 	0.87680 0.23300 0.06060 0.18900
C 	C 	0.91020 0.28800 0.12310 1.65500
N 	N 	0.89440 0.31350 0.12550 -0.56500
C 	C 	0.89980 0.27650 0.13370 -1.66300
H 	H 	0.91660 0.27110 0.14550 0.65800
N 	N 	0.88390 0.30200 0.13620 0.20600
C 	C 	0.88400 0.21710 0.07710 0.16000
H 	H 	0.86660 0.22590 0.06880 -0.07600
H 	H 	0.92760 0.28310 0.13430 -0.60600
N 	N 	0.87690 0.28800 0.08980 -1.17200
O 	O 	0.85591 0.68761 0.53066 -0.37900
O 	O 	0.89149 0.65170 0.53121 -0.37800
C 	C 	0.88066 0.67559 0.54073 0.32600
C 	C 	0.89659 0.69177 0.56450 -0.03700
C 	C 	0.89160 0.72272 0.57180 -0.33500
H 	H 	0.87680 0.73300 0.56060 0.19000
C 	C 	0.91020 0.78800 0.62310 1.65400
N 	N 	0.89440 0.81350 0.62550 -0.56400
C 	C 	0.89980 0.77650 0.63370 -1.66200
H 	H 	0.91660 0.77110 0.64550 0.65800
N 	N 	0.88390 0.80200 0.63620 0.20600
C 	C 	0.88400 0.71710 0.57710 0.16000
H 	H 	0.86660 0.72590 0.56880 -0.07600
H 	H 	0.92760 0.78310 0.63430 -0.60500
N 	N 	0.87690 0.78800 0.58980 -1.17200
O 	O 	0.35591 0.81239 0.46934 -0.37900
O 	O 	0.39149 0.84830 0.46879 -0.37800
C 	C 	0.38066 0.82441 0.45927 0.32600
C 	C 	0.39659 0.80823 0.43550 -0.03700
C 	C 	0.39160 0.77728 0.42820 -0.33600
H 	H 	0.37680 0.76700 0.43940 0.19000
C 	C 	0.41020 0.71200 0.37690 1.65500
N 	N 	0.39440 0.68650 0.37450 -0.56500
C 	C 	0.39980 0.72350 0.36630 -1.66300
H 	H 	0.41660 0.72890 0.35450 0.65800
N 	N 	0.38390 0.69800 0.36380 0.20600
C 	C 	0.38400 0.78290 0.42290 0.16000
H 	H 	0.36660 0.77410 0.43120 -0.07600
H 	H 	0.42760 0.71690 0.36570 -0.60600
N 	N 	0.37690 0.71200 0.41020 -1.17200
O 	O 	0.35591 0.31239 0.96934 -0.37700
O 	O 	0.39149 0.34830 0.96879 -0.37700
C 	C 	0.38066 0.32441 0.95927 0.32500
C 	C 	0.39659 0.30823 0.93550 -0.03700
C 	C 	0.39160 0.27728 0.92820 -0.33600
H 	H 	0.37680 0.26700 0.93940 0.19000
C 	C 	0.41020 0.21200 0.87690 1.65400
N 	N 	0.39440 0.18650 0.87450 -0.56400
C 	C 	0.39980 0.22350 0.86630 -1.66200
H 	H 	0.41660 0.22890 0.85450 0.65800
N 	N 	0.38390 0.19800 0.86380 0.20600
C 	C 	0.38400 0.28290 0.92290 0.16000
H 	H 	0.36660 0.27410 0.93120 -0.07600
H 	H 	0.42760 0.21690 0.86570 -0.60600
N 	N 	0.37690 0.21200 0.91020 -1.17100
O 	O 	0.85591 0.81239 0.96934 -0.37700
O 	O 	0.89149 0.84830 0.96879 -0.37700
C 	C 	0.88066 0.82441 0.95927 0.32500
C 	C 	0.89659 0.80823 0.93550 -0.03600
C 	C 	0.89160 0.77728 0.92820 -0.33500
H 	H 	0.87680 0.76700 0.93940 0.19000
C 	C 	0.91020 0.71200 0.87690 1.65300
N 	N 	0.89440 0.68650 0.87450 -0.56400
C 	C 	0.89980 0.72350 0.86630 -1.66100
H 	H 	0.91660 0.72890 0.85450 0.65800
N 	N 	0.88390 0.69800 0.86380 0.20600
C 	C 	0.88400 0.78290 0.92290 0.15900
H 	H 	0.86660 0.77410 0.93120 -0.07600
H 	H 	0.92760 0.71690 0.86570 -0.60500
N 	N 	0.87690 0.71200 0.91020 -1.17100
O 	O 	0.85591 0.31239 0.46934 -0.37900
O 	O 	0.89149 0.34830 0.46879 -0.37800
C 	C 	0.88066 0.32441 0.45927 0.32600
C 	C 	0.89659 0.30823 0.43550 -0.03700
C 	C 	0.89160 0.27728 0.42820 -0.33500
H 	H 	0.87680 0.26700 0.43940 0.19000
C 	C 	0.91020 0.21200 0.37690 1.65400
N 	N 	0.89440 0.18650 0.37450 -0.56400
C 	C 	0.89980 0.22350 0.36630 -1.66200
H 	H 	0.91660 0.22890 0.35450 0.65800
N 	N 	0.88390 0.19800 0.36380 0.20600
C 	C 	0.88400 0.28290 0.42290 0.16000
H 	H 	0.86660 0.27410 0.43120 -0.07600
H 	H 	0.92760 0.21690 0.36570 -0.60500
N 	N 	0.87690 0.21200 0.41020 -1.17200
O 	O 	0.64409 0.81239 0.53066 -0.37900
O 	O 	0.60851 0.84830 0.53121 -0.37900
C 	C 	0.61934 0.82441 0.54073 0.32600
C 	C 	0.60341 0.80823 0.56450 -0.03700
C 	C 	0.60840 0.77728 0.57180 -0.33600
H 	H 	0.62320 0.76700 0.56060 0.19000
C 	C 	0.58980 0.71200 0.62310 1.65400
N 	N 	0.60560 0.68650 0.62550 -0.56500
C 	C 	0.60020 0.72350 0.63370 -1.66300
H 	H 	0.58340 0.72890 0.64550 0.65800
N 	N 	0.61610 0.69800 0.63620 0.20600
C 	C 	0.61600 0.78290 0.57710 0.16000
H 	H 	0.63340 0.77410 0.56880 -0.07600
H 	H 	0.57240 0.71690 0.63430 -0.60600
N 	N 	0.62310 0.71200 0.58980 -1.17200
O 	O 	0.64409 0.31239 0.03066 -0.38000
O 	O 	0.60851 0.34830 0.03121 -0.37900
C 	C 	0.61934 0.32441 0.04073 0.32500
C 	C 	0.60341 0.30823 0.06450 -0.03800
C 	C 	0.60840 0.27728 0.07180 -0.33600
H 	H 	0.62320 0.26700 0.06060 0.18900
C 	C 	0.58980 0.21200 0.12310 1.65500
N 	N 	0.60560 0.18650 0.12550 -0.56500
C 	C 	0.60020 0.22350 0.13370 -1.66400
H 	H 	0.58340 0.22890 0.14550 0.65900
N 	N 	0.61610 0.19800 0.13620 0.20600
C 	C 	0.61600 0.28290 0.07710 0.16000
H 	H 	0.63340 0.27410 0.06880 -0.07600
H 	H 	0.57240 0.21690 0.13430 -0.60600
N 	N 	0.62310 0.21200 0.08980 -1.17200
O 	O 	0.14409 0.81239 0.03066 -0.38000
O 	O 	0.10851 0.84830 0.03121 -0.37900
C 	C 	0.11934 0.82441 0.04073 0.32500
C 	C 	0.10341 0.80823 0.06450 -0.03800
C 	C 	0.10840 0.77728 0.07180 -0.33700
H 	H 	0.12320 0.76700 0.06060 0.19000
C 	C 	0.08980 0.71200 0.12310 1.65600
N 	N 	0.10560 0.68650 0.12550 -0.56500
C 	C 	0.10020 0.72350 0.13370 -1.66500
H 	H 	0.08340 0.72890 0.14550 0.65900
N 	N 	0.11610 0.69800 0.13620 0.20600
C 	C 	0.11600 0.78290 0.07710 0.16100
H 	H 	0.13340 0.77410 0.06880 -0.07600
H 	H 	0.07240 0.71690 0.13430 -0.60700
N 	N 	0.12310 0.71200 0.08980 -1.17200
O 	O 	0.14409 0.31239 0.53066 -0.37900
O 	O 	0.10851 0.34830 0.53121 -0.37900
C 	C 	0.11934 0.32441 0.54073 0.32600
C 	C 	0.10341 0.30823 0.56450 -0.03700
C 	C 	0.10840 0.27728 0.57180 -0.33600
H 	H 	0.12320 0.26700 0.56060 0.19000
C 	C 	0.08980 0.21200 0.62310 1.65500
N 	N 	0.10560 0.18650 0.62550 -0.56500
C 	C 	0.10020 0.22350 0.63370 -1.66400
H 	H 	0.08340 0.22890 0.64550 0.65800
N 	N 	0.11610 0.19800 0.63620 0.20600
C 	C 	0.11600 0.28290 0.57710 0.16100
H 	H 	0.13340 0.27410 0.56880 -0.07600
H 	H 	0.07240 0.21690 0.63430 -0.60700
N 	N 	0.12310 0.21200 0.58980 -1.17200
O 	O 	0.18761 0.53066 0.35591 -0.37900
O 	O 	0.15170 0.53121 0.39149 -0.37800
C 	C 	0.17559 0.54073 0.38066 0.32600
C 	C 	0.19177 0.56450 0.39659 -0.03700
C 	C 	0.22272 0.57180 0.39160 -0.33600
H 	H 	0.23300 0.56060 0.37680 0.19000
C 	C 	0.28800 0.62310 0.41020 1.65400
N 	N 	0.31350 0.62550 0.39440 -0.56500
C 	C 	0.27650 0.63370 0.39980 -1.66300
H 	H 	0.27110 0.64550 0.41660 0.65800
N 	N 	0.30200 0.63620 0.38390 0.20600
C 	C 	0.21710 0.57710 0.38400 0.16000
H 	H 	0.22590 0.56880 0.36660 -0.07600
H 	H 	0.28310 0.63430 0.42760 -0.60600
N 	N 	0.28800 0.58980 0.37690 -1.17200
O 	O 	0.18761 0.03066 0.85591 -0.37900
O 	O 	0.15170 0.03121 0.89149 -0.37900
C 	C 	0.17559 0.04073 0.88066 0.32500
C 	C 	0.19177 0.06450 0.89659 -0.03700
C 	C 	0.22272 0.07180 0.89160 -0.33600
H 	H 	0.23300 0.06060 0.87680 0.18900
C 	C 	0.28800 0.12310 0.91020 1.65500
N 	N 	0.31350 0.12550 0.89440 -0.56500
C 	C 	0.27650 0.13370 0.89980 -1.66300
H 	H 	0.27110 0.14550 0.91660 0.65800
N 	N 	0.30200 0.13620 0.88390 0.20600
C 	C 	0.21710 0.07710 0.88400 0.16000
H 	H 	0.22590 0.06880 0.86660 -0.07600
H 	H 	0.28310 0.13430 0.92760 -0.60600
N 	N 	0.28800 0.08980 0.87690 -1.17200
O 	O 	0.68761 0.53066 0.85591 -0.37900
O 	O 	0.65170 0.53121 0.89149 -0.37800
C 	C 	0.67559 0.54073 0.88066 0.32600
C 	C 	0.69177 0.56450 0.89659 -0.03700
C 	C 	0.72272 0.57180 0.89160 -0.33500
H 	H 	0.73300 0.56060 0.87680 0.19000
C 	C 	0.78800 0.62310 0.91020 1.65400
N 	N 	0.81350 0.62550 0.89440 -0.56400
C 	C 	0.77650 0.63370 0.89980 -1.66200
H 	H 	0.77110 0.64550 0.91660 0.65800
N 	N 	0.80200 0.63620 0.88390 0.20600
C 	C 	0.71710 0.57710 0.88400 0.16000
H 	H 	0.72590 0.56880 0.86660 -0.07600
H 	H 	0.78310 0.63430 0.92760 -0.60500
N 	N 	0.78800 0.58980 0.87690 -1.17200
O 	O 	0.68761 0.03066 0.35591 -0.38000
O 	O 	0.65170 0.03121 0.39149 -0.37900
C 	C 	0.67559 0.04073 0.38066 0.32500
C 	C 	0.69177 0.06450 0.39659 -0.03700
C 	C 	0.72272 0.07180 0.39160 -0.33600
H 	H 	0.73300 0.06060 0.37680 0.18900
C 	C 	0.78800 0.12310 0.41020 1.65500
N 	N 	0.81350 0.12550 0.39440 -0.56500
C 	C 	0.77650 0.13370 0.39980 -1.66400
H 	H 	0.77110 0.14550 0.41660 0.65900
N 	N 	0.80200 0.13620 0.38390 0.20600
C 	C 	0.71710 0.07710 0.38400 0.16000
H 	H 	0.72590 0.06880 0.36660 -0.07600
H 	H 	0.78310 0.13430 0.42760 -0.60600
N 	N 	0.78800 0.08980 0.37690 -1.17200
O 	O 	0.18761 0.46934 0.64409 -0.37900
O 	O 	0.15170 0.46879 0.60851 -0.37800
C 	C 	0.17559 0.45927 0.61934 0.32600
C 	C 	0.19177 0.43550 0.60341 -0.03700
C 	C 	0.22272 0.42820 0.60840 -0.33600
H 	H 	0.23300 0.43940 0.62320 0.19000
C 	C 	0.28800 0.37690 0.58980 1.65400
N 	N 	0.31350 0.37450 0.60560 -0.56500
C 	C 	0.27650 0.36630 0.60020 -1.66300
H 	H 	0.27110 0.35450 0.58340 0.65800
N 	N 	0.30200 0.36380 0.61610 0.20600
C 	C 	0.21710 0.42290 0.61600 0.16000
H 	H 	0.22590 0.43120 0.63340 -0.07600
H 	H 	0.28310 0.36570 0.57240 -0.60600
N 	N 	0.28800 0.41020 0.62310 -1.17200
O 	O 	0.18761 0.96934 0.14409 -0.37700
O 	O 	0.15170 0.96879 0.10851 -0.37700
C 	C 	0.17559 0.95927 0.11934 0.32500
C 	C 	0.19177 0.93550 0.10341 -0.03700
C 	C 	0.22272 0.92820 0.10840 -0.33600
H 	H 	0.23300 0.93940 0.12320 0.19000
C 	C 	0.28800 0.87690 0.08980 1.65400
N 	N 	0.31350 0.87450 0.10560 -0.56500
C 	C 	0.27650 0.86630 0.10020 -1.66300
H 	H 	0.27110 0.85450 0.08340 0.65800
N 	N 	0.30200 0.86380 0.11610 0.20600
C 	C 	0.21710 0.92290 0.11600 0.16000
H 	H 	0.22590 0.93120 0.13340 -0.07600
H 	H 	0.28310 0.86570 0.07240 -0.60600
N 	N 	0.28800 0.91020 0.12310 -1.17200
O 	O 	0.68761 0.46934 0.14409 -0.37900
O 	O 	0.65170 0.46879 0.10851 -0.37900
C 	C 	0.67559 0.45927 0.11934 0.32600
C 	C 	0.69177 0.43550 0.10341 -0.03700
C 	C 	0.72272 0.42820 0.10840 -0.33600
H 	H 	0.73300 0.43940 0.12320 0.19000
C 	C 	0.78800 0.37690 0.08980 1.65500
N 	N 	0.81350 0.37450 0.10560 -0.56500
C 	C 	0.77650 0.36630 0.10020 -1.66400
H 	H 	0.77110 0.35450 0.08340 0.65800
N 	N 	0.80200 0.36380 0.11610 0.20600
C 	C 	0.71710 0.42290 0.11600 0.16100
H 	H 	0.72590 0.43120 0.13340 -0.07600
H 	H 	0.78310 0.36570 0.07240 -0.60700
N 	N 	0.78800 0.41020 0.12310 -1.17200
O 	O 	0.68761 0.96934 0.64409 -0.37700
O 	O 	0.65170 0.96879 0.60851 -0.37700
C 	C 	0.67559 0.95927 0.61934 0.32500
C 	C 	0.69177 0.93550 0.60341 -0.03700
C 	C 	0.72272 0.92820 0.60840 -0.33600
H 	H 	0.73300 0.93940 0.62320 0.19000
C 	C 	0.78800 0.87690 0.58980 1.65400
N 	N 	0.81350 0.87450 0.60560 -0.56400
C 	C 	0.77650 0.86630 0.60020 -1.66200
H 	H 	0.77110 0.85450 0.58340 0.65800
N 	N 	0.80200 0.86380 0.61610 0.20600
C 	C 	0.71710 0.92290 0.61600 0.16000
H 	H 	0.72590 0.93120 0.63340 -0.07600
H 	H 	0.78310 0.86570 0.57240 -0.60600
N 	N 	0.78800 0.91020 0.62310 -1.17200
O 	O 	0.81239 0.53066 0.64409 -0.37900
O 	O 	0.84830 0.53121 0.60851 -0.37900
C 	C 	0.82441 0.54073 0.61934 0.32600
C 	C 	0.80823 0.56450 0.60341 -0.03700
C 	C 	0.77728 0.57180 0.60840 -0.33600
H 	H 	0.76700 0.56060 0.62320 0.19000
C 	C 	0.71200 0.62310 0.58980 1.65400
N 	N 	0.68650 0.62550 0.60560 -0.56500
C 	C 	0.72350 0.63370 0.60020 -1.66300
H 	H 	0.72890 0.64550 0.58340 0.65800
N 	N 	0.69800 0.63620 0.61610 0.20600
C 	C 	0.78290 0.57710 0.61600 0.16000
H 	H 	0.77410 0.56880 0.63340 -0.07600
H 	H 	0.71690 0.63430 0.57240 -0.60600
N 	N 	0.71200 0.58980 0.62310 -1.17200
O 	O 	0.81239 0.03066 0.14409 -0.38000
O 	O 	0.84830 0.03121 0.10851 -0.37900
C 	C 	0.82441 0.04073 0.11934 0.32500
C 	C 	0.80823 0.06450 0.10341 -0.03800
C 	C 	0.77728 0.07180 0.10840 -0.33700
H 	H 	0.76700 0.06060 0.12320 0.19000
C 	C 	0.71200 0.12310 0.08980 1.65600
N 	N 	0.68650 0.12550 0.10560 -0.56500
C 	C 	0.72350 0.13370 0.10020 -1.66500
H 	H 	0.72890 0.14550 0.08340 0.65900
N 	N 	0.69800 0.13620 0.11610 0.20600
C 	C 	0.78290 0.07710 0.11600 0.16100
H 	H 	0.77410 0.06880 0.13340 -0.07600
H 	H 	0.71690 0.13430 0.07240 -0.60700
N 	N 	0.71200 0.08980 0.12310 -1.17200
O 	O 	0.31239 0.53066 0.14409 -0.37900
O 	O 	0.34830 0.53121 0.10851 -0.37900
C 	C 	0.32441 0.54073 0.11934 0.32600
C 	C 	0.30823 0.56450 0.10341 -0.03700
C 	C 	0.27728 0.57180 0.10840 -0.33600
H 	H 	0.26700 0.56060 0.12320 0.19000
C 	C 	0.21200 0.62310 0.08980 1.65500
N 	N 	0.18650 0.62550 0.10560 -0.56500
C 	C 	0.22350 0.63370 0.10020 -1.66400
H 	H 	0.22890 0.64550 0.08340 0.65800
N 	N 	0.19800 0.63620 0.11610 0.20600
C 	C 	0.28290 0.57710 0.11600 0.16100
H 	H 	0.27410 0.56880 0.13340 -0.07600
H 	H 	0.21690 0.63430 0.07240 -0.60700
N 	N 	0.21200 0.58980 0.12310 -1.17200
O 	O 	0.31239 0.03066 0.64409 -0.38000
O 	O 	0.34830 0.03121 0.60851 -0.37900
C 	C 	0.32441 0.04073 0.61934 0.32500
C 	C 	0.30823 0.06450 0.60341 -0.03800
C 	C 	0.27728 0.07180 0.60840 -0.33600
H 	H 	0.26700 0.06060 0.62320 0.18900
C 	C 	0.21200 0.12310 0.58980 1.65500
N 	N 	0.18650 0.12550 0.60560 -0.56500
C 	C 	0.22350 0.13370 0.60020 -1.66400
H 	H 	0.22890 0.14550 0.58340 0.65900
N 	N 	0.19800 0.13620 0.61610 0.20600
C 	C 	0.28290 0.07710 0.61600 0.16000
H 	H 	0.27410 0.06880 0.63340 -0.07600
H 	H 	0.21690 0.13430 0.57240 -0.60600
N 	N 	0.21200 0.08980 0.62310 -1.17200
O 	O 	0.81239 0.46934 0.35591 -0.37900
O 	O 	0.84830 0.46879 0.39149 -0.37800
C 	C 	0.82441 0.45927 0.38066 0.32600
C 	C 	0.80823 0.43550 0.39659 -0.03700
C 	C 	0.77728 0.42820 0.39160 -0.33600
H 	H 	0.76700 0.43940 0.37680 0.19000
C 	C 	0.71200 0.37690 0.41020 1.65500
N 	N 	0.68650 0.37450 0.39440 -0.56500
C 	C 	0.72350 0.36630 0.39980 -1.66300
H 	H 	0.72890 0.35450 0.41660 0.65800
N 	N 	0.69800 0.36380 0.38390 0.20600
C 	C 	0.78290 0.42290 0.38400 0.16000
H 	H 	0.77410 0.43120 0.36660 -0.07600
H 	H 	0.71690 0.36570 0.42760 -0.60600
N 	N 	0.71200 0.41020 0.37690 -1.17200
O 	O 	0.81239 0.96934 0.85591 -0.37700
O 	O 	0.84830 0.96879 0.89149 -0.37700
C 	C 	0.82441 0.95927 0.88066 0.32500
C 	C 	0.80823 0.93550 0.89659 -0.03600
C 	C 	0.77728 0.92820 0.89160 -0.33500
H 	H 	0.76700 0.93940 0.87680 0.19000
C 	C 	0.71200 0.87690 0.91020 1.65300
N 	N 	0.68650 0.87450 0.89440 -0.56400
C 	C 	0.72350 0.86630 0.89980 -1.66100
H 	H 	0.72890 0.85450 0.91660 0.65800
N 	N 	0.69800 0.86380 0.88390 0.20600
C 	C 	0.78290 0.92290 0.88400 0.15900
H 	H 	0.77410 0.93120 0.86660 -0.07600
H 	H 	0.71690 0.86570 0.92760 -0.60500
N 	N 	0.71200 0.91020 0.87690 -1.17100
O 	O 	0.31239 0.46934 0.85591 -0.37900
O 	O 	0.34830 0.46879 0.89149 -0.37800
C 	C 	0.32441 0.45927 0.88066 0.32600
C 	C 	0.30823 0.43550 0.89659 -0.03700
C 	C 	0.27728 0.42820 0.89160 -0.33500
H 	H 	0.26700 0.43940 0.87680 0.19000
C 	C 	0.21200 0.37690 0.91020 1.65400
N 	N 	0.18650 0.37450 0.89440 -0.56400
C 	C 	0.22350 0.36630 0.89980 -1.66200
H 	H 	0.22890 0.35450 0.91660 0.65800
N 	N 	0.19800 0.36380 0.88390 0.20600
C 	C 	0.28290 0.42290 0.88400 0.16000
H 	H 	0.27410 0.43120 0.86660 -0.07600
H 	H 	0.21690 0.36570 0.92760 -0.60500
N 	N 	0.21200 0.41020 0.87690 -1.17200
O 	O 	0.31239 0.96934 0.35591 -0.37700
O 	O 	0.34830 0.96879 0.39149 -0.37700
C 	C 	0.32441 0.95927 0.38066 0.32500
C 	C 	0.30823 0.93550 0.39659 -0.03700
C 	C 	0.27728 0.92820 0.39160 -0.33600
H 	H 	0.26700 0.93940 0.37680 0.19000
C 	C 	0.21200 0.87690 0.41020 1.65400
N 	N 	0.18650 0.87450 0.39440 -0.56400
C 	C 	0.22350 0.86630 0.39980 -1.66200
H 	H 	0.22890 0.85450 0.41660 0.65800
N 	N 	0.19800 0.86380 0.38390 0.20600
C 	C 	0.28290 0.92290 0.38400 0.16000
H 	H 	0.27410 0.93120 0.36660 -0.07600
H 	H 	0.21690 0.86570 0.42760 -0.60600
N 	N 	0.21200 0.91020 0.37690 -1.17100
O 	O 	0.35591 0.46934 0.81239 -0.38000
O 	O 	0.39149 0.46879 0.84830 -0.37900
C 	C 	0.38066 0.45927 0.82441 0.32700
C 	C 	0.39659 0.43550 0.80823 -0.03900
C 	C 	0.39160 0.42820 0.77728 -0.32400
H 	H 	0.37680 0.43940 0.76700 0.18100
N 	N 	0.39440 0.37450 0.68650 0.11100
C 	C 	0.39980 0.36630 0.72350 1.82300
H 	H 	0.41660 0.35450 0.72890 -0.68800
N 	N 	0.38390 0.36380 0.69800 -0.49400
C 	C 	0.38400 0.42290 0.78290 0.16100
H 	H 	0.36660 0.43120 0.77410 -0.06800
H 	H 	0.42760 0.36570 0.71690 0.42600
O 	O 	0.35591 0.96934 0.31239 -0.37700
O 	O 	0.39149 0.96879 0.34830 -0.37700
C 	C 	0.38066 0.95927 0.32441 0.32700
C 	C 	0.39659 0.93550 0.30823 -0.03800
C 	C 	0.39160 0.92820 0.27728 -0.32300
H 	H 	0.37680 0.93940 0.26700 0.18200
N 	N 	0.39440 0.87450 0.18650 0.11100
C 	C 	0.39980 0.86630 0.22350 1.82300
H 	H 	0.41660 0.85450 0.22890 -0.68800
N 	N 	0.38390 0.86380 0.19800 -0.49400
C 	C 	0.38400 0.92290 0.28290 0.16000
H 	H 	0.36660 0.93120 0.27410 -0.06700
H 	H 	0.42760 0.86570 0.21690 0.42600
O 	O 	0.85591 0.46934 0.31239 -0.38000
O 	O 	0.89149 0.46879 0.34830 -0.37900
C 	C 	0.88066 0.45927 0.32441 0.32700
C 	C 	0.89659 0.43550 0.30823 -0.03900
C 	C 	0.89160 0.42820 0.27728 -0.32300
H 	H 	0.87680 0.43940 0.26700 0.18100
N 	N 	0.89440 0.37450 0.18650 0.11100
C 	C 	0.89980 0.36630 0.22350 1.82300
H 	H 	0.91660 0.35450 0.22890 -0.68700
N 	N 	0.88390 0.36380 0.19800 -0.49400
C 	C 	0.88400 0.42290 0.28290 0.16000
H 	H 	0.86660 0.43120 0.27410 -0.06700
H 	H 	0.92760 0.36570 0.21690 0.42600
O 	O 	0.85591 0.96934 0.81239 -0.37700
O 	O 	0.89149 0.96879 0.84830 -0.37700
C 	C 	0.88066 0.95927 0.82441 0.32700
C 	C 	0.89659 0.93550 0.80823 -0.03800
C 	C 	0.89160 0.92820 0.77728 -0.32300
H 	H 	0.87680 0.93940 0.76700 0.18100
N 	N 	0.89440 0.87450 0.68650 0.11100
C 	C 	0.89980 0.86630 0.72350 1.82300
H 	H 	0.91660 0.85450 0.72890 -0.68700
N 	N 	0.88390 0.86380 0.69800 -0.49400
C 	C 	0.88400 0.92290 0.78290 0.16000
H 	H 	0.86660 0.93120 0.77410 -0.06700
H 	H 	0.92760 0.86570 0.71690 0.42600
O 	O 	0.64409 0.53066 0.81239 -0.38000
O 	O 	0.60851 0.53121 0.84830 -0.37900
C 	C 	0.61934 0.54073 0.82441 0.32700
C 	C 	0.60341 0.56450 0.80823 -0.03900
C 	C 	0.60840 0.57180 0.77728 -0.32400
H 	H 	0.62320 0.56060 0.76700 0.18100
N 	N 	0.60560 0.62550 0.68650 0.11100
C 	C 	0.60020 0.63370 0.72350 1.82300
H 	H 	0.58340 0.64550 0.72890 -0.68800
N 	N 	0.61610 0.63620 0.69800 -0.49400
C 	C 	0.61600 0.57710 0.78290 0.16100
H 	H 	0.63340 0.56880 0.77410 -0.06800
H 	H 	0.57240 0.63430 0.71690 0.42600
O 	O 	0.64409 0.03066 0.31239 -0.38000
O 	O 	0.60851 0.03121 0.34830 -0.37900
C 	C 	0.61934 0.04073 0.32441 0.32700
C 	C 	0.60341 0.06450 0.30823 -0.03900
C 	C 	0.60840 0.07180 0.27728 -0.32400
H 	H 	0.62320 0.06060 0.26700 0.18100
N 	N 	0.60560 0.12550 0.18650 0.11100
C 	C 	0.60020 0.13370 0.22350 1.82300
H 	H 	0.58340 0.14550 0.22890 -0.68800
N 	N 	0.61610 0.13620 0.19800 -0.49400
C 	C 	0.61600 0.07710 0.28290 0.16100
H 	H 	0.63340 0.06880 0.27410 -0.06800
H 	H 	0.57240 0.13430 0.21690 0.42500
O 	O 	0.14409 0.53066 0.31239 -0.38000
O 	O 	0.10851 0.53121 0.34830 -0.37900
C 	C 	0.11934 0.54073 0.32441 0.32700
C 	C 	0.10341 0.56450 0.30823 -0.03900
C 	C 	0.10840 0.57180 0.27728 -0.32400
H 	H 	0.12320 0.56060 0.26700 0.18100
N 	N 	0.10560 0.62550 0.18650 0.11100
C 	C 	0.10020 0.63370 0.22350 1.82300
H 	H 	0.08340 0.64550 0.22890 -0.68800
N 	N 	0.11610 0.63620 0.19800 -0.49400
C 	C 	0.11600 0.57710 0.28290 0.16100
H 	H 	0.13340 0.56880 0.27410 -0.06800
H 	H 	0.07240 0.63430 0.21690 0.42500
O 	O 	0.14409 0.03066 0.81239 -0.38000
O 	O 	0.10851 0.03121 0.84830 -0.38000
C 	C 	0.11934 0.04073 0.82441 0.32700
C 	C 	0.10341 0.06450 0.80823 -0.04000
C 	C 	0.10840 0.07180 0.77728 -0.32500
H 	H 	0.12320 0.06060 0.76700 0.18100
N 	N 	0.10560 0.12550 0.68650 0.11100
C 	C 	0.10020 0.13370 0.72350 1.82300
H 	H 	0.08340 0.14550 0.72890 -0.68800
N 	N 	0.11610 0.13620 0.69800 -0.49400
C 	C 	0.11600 0.07710 0.78290 0.16100
H 	H 	0.13340 0.06880 0.77410 -0.06800
H 	H 	0.07240 0.13430 0.71690 0.42500
O 	O 	0.64409 0.46934 0.18761 -0.38000
O 	O 	0.60851 0.46879 0.15170 -0.37900
C 	C 	0.61934 0.45927 0.17559 0.32700
C 	C 	0.60341 0.43550 0.19177 -0.03900
C 	C 	0.60840 0.42820 0.22272 -0.32400
H 	H 	0.62320 0.43940 0.23300 0.18100
N 	N 	0.60560 0.37450 0.31350 0.11100
C 	C 	0.60020 0.36630 0.27650 1.82300
H 	H 	0.58340 0.35450 0.27110 -0.68800
N 	N 	0.61610 0.36380 0.30200 -0.49400
C 	C 	0.61600 0.42290 0.21710 0.16100
H 	H 	0.63340 0.43120 0.22590 -0.06800
H 	H 	0.57240 0.36570 0.28310 0.42600
O 	O 	0.64409 0.96934 0.68761 -0.37700
O 	O 	0.60851 0.96879 0.65170 -0.37700
C 	C 	0.61934 0.95927 0.67559 0.32700
C 	C 	0.60341 0.93550 0.69177 -0.03800
C 	C 	0.60840 0.92820 0.72272 -0.32300
H 	H 	0.62320 0.93940 0.73300 0.18200
N 	N 	0.60560 0.87450 0.81350 0.11100
C 	C 	0.60020 0.86630 0.77650 1.82300
H 	H 	0.58340 0.85450 0.77110 -0.68800
N 	N 	0.61610 0.86380 0.80200 -0.49500
C 	C 	0.61600 0.92290 0.71710 0.16000
H 	H 	0.63340 0.93120 0.72590 -0.06700
H 	H 	0.57240 0.86570 0.78310 0.42600
O 	O 	0.14409 0.46934 0.68761 -0.38000
O 	O 	0.10851 0.46879 0.65170 -0.37900
C 	C 	0.11934 0.45927 0.67559 0.32700
C 	C 	0.10341 0.43550 0.69177 -0.03900
C 	C 	0.10840 0.42820 0.72272 -0.32400
H 	H 	0.12320 0.43940 0.73300 0.18100
N 	N 	0.10560 0.37450 0.81350 0.11100
C 	C 	0.10020 0.36630 0.77650 1.82300
H 	H 	0.08340 0.35450 0.77110 -0.68800
N 	N 	0.11610 0.36380 0.80200 -0.49500
C 	C 	0.11600 0.42290 0.71710 0.16100
H 	H 	0.13340 0.43120 0.72590 -0.06800
H 	H 	0.07240 0.36570 0.78310 0.42500
O 	O 	0.14409 0.96934 0.18761 -0.37700
O 	O 	0.10851 0.96879 0.15170 -0.37800
C 	C 	0.11934 0.95927 0.17559 0.32700
C 	C 	0.10341 0.93550 0.19177 -0.03900
C 	C 	0.10840 0.92820 0.22272 -0.32400
H 	H 	0.12320 0.93940 0.23300 0.18200
N 	N 	0.10560 0.87450 0.31350 0.11100
C 	C 	0.10020 0.86630 0.27650 1.82300
H 	H 	0.08340 0.85450 0.27110 -0.68800
N 	N 	0.11610 0.86380 0.30200 -0.49500
C 	C 	0.11600 0.92290 0.21710 0.16100
H 	H 	0.13340 0.93120 0.22590 -0.06800
H 	H 	0.07240 0.86570 0.28310 0.42500
O 	O 	0.35591 0.53066 0.18761 -0.38000
O 	O 	0.39149 0.53121 0.15170 -0.37900
C 	C 	0.38066 0.54073 0.17559 0.32700
C 	C 	0.39659 0.56450 0.19177 -0.03900
C 	C 	0.39160 0.57180 0.22272 -0.32400
H 	H 	0.37680 0.56060 0.23300 0.18100
N 	N 	0.39440 0.62550 0.31350 0.11100
C 	C 	0.39980 0.63370 0.27650 1.82300
H 	H 	0.41660 0.64550 0.27110 -0.68800
N 	N 	0.38390 0.63620 0.30200 -0.49400
C 	C 	0.38400 0.57710 0.21710 0.16100
H 	H 	0.36660 0.56880 0.22590 -0.06800
H 	H 	0.42760 0.63430 0.28310 0.42600
O 	O 	0.35591 0.03066 0.68761 -0.38000
O 	O 	0.39149 0.03121 0.65170 -0.37900
C 	C 	0.38066 0.04073 0.67559 0.32700
C 	C 	0.39659 0.06450 0.69177 -0.03900
C 	C 	0.39160 0.07180 0.72272 -0.32400
H 	H 	0.37680 0.06060 0.73300 0.18100
N 	N 	0.39440 0.12550 0.81350 0.11100
C 	C 	0.39980 0.13370 0.77650 1.82300
H 	H 	0.41660 0.14550 0.77110 -0.68800
N 	N 	0.38390 0.13620 0.80200 -0.49500
C 	C 	0.38400 0.07710 0.71710 0.16100
H 	H 	0.36660 0.06880 0.72590 -0.06800
H 	H 	0.42760 0.13430 0.78310 0.42600
O 	O 	0.85591 0.53066 0.68761 -0.38000
O 	O 	0.89149 0.53121 0.65170 -0.37900
C 	C 	0.88066 0.54073 0.67559 0.32700
C 	C 	0.89659 0.56450 0.69177 -0.03900
C 	C 	0.89160 0.57180 0.72272 -0.32300
H 	H 	0.87680 0.56060 0.73300 0.18100
N 	N 	0.89440 0.62550 0.81350 0.11100
C 	C 	0.89980 0.63370 0.77650 1.82300
H 	H 	0.91660 0.64550 0.77110 -0.68700
N 	N 	0.88390 0.63620 0.80200 -0.49500
C 	C 	0.88400 0.57710 0.71710 0.16000
H 	H 	0.86660 0.56880 0.72590 -0.06700
H 	H 	0.92760 0.63430 0.78310 0.42600
O 	O 	0.85591 0.03066 0.18761 -0.38000
O 	O 	0.89149 0.03121 0.15170 -0.37900
C 	C 	0.88066 0.04073 0.17559 0.32700
C 	C 	0.89659 0.06450 0.19177 -0.03900
C 	C 	0.89160 0.07180 0.22272 -0.32400
H 	H 	0.87680 0.06060 0.23300 0.18100
N 	N 	0.89440 0.12550 0.31350 0.11100
C 	C 	0.89980 0.13370 0.27650 1.82300
H 	H 	0.91660 0.14550 0.27110 -0.68700
N 	N 	0.88390 0.13620 0.30200 -0.49400
C 	C 	0.88400 0.07710 0.21710 0.16000
H 	H 	0.86660 0.06880 0.22590 -0.06700
H 	H 	0.92760 0.13430 0.28310 0.42600
O 	O 	0.81239 0.35591 0.46934 -0.38000
O 	O 	0.84830 0.39149 0.46879 -0.37900
C 	C 	0.82441 0.38066 0.45927 0.32700
C 	C 	0.80823 0.39659 0.43550 -0.03900
C 	C 	0.77728 0.39160 0.42820 -0.32400
H 	H 	0.76700 0.37680 0.43940 0.18100
N 	N 	0.68650 0.39440 0.37450 0.11100
C 	C 	0.72350 0.39980 0.36630 1.82300
H 	H 	0.72890 0.41660 0.35450 -0.68800
N 	N 	0.69800 0.38390 0.36380 -0.49400
C 	C 	0.78290 0.38400 0.42290 0.16100
H 	H 	0.77410 0.36660 0.43120 -0.06800
H 	H 	0.71690 0.42760 0.36570 0.42600
O 	O 	0.81239 0.85591 0.96934 -0.37700
O 	O 	0.84830 0.89149 0.96879 -0.37700
C 	C 	0.82441 0.88066 0.95927 0.32700
C 	C 	0.80823 0.89659 0.93550 -0.03800
C 	C 	0.77728 0.89160 0.92820 -0.32300
H 	H 	0.76700 0.87680 0.93940 0.18100
N 	N 	0.68650 0.89440 0.87450 0.11100
C 	C 	0.72350 0.89980 0.86630 1.82300
H 	H 	0.72890 0.91660 0.85450 -0.68700
N 	N 	0.69800 0.88390 0.86380 -0.49400
C 	C 	0.78290 0.88400 0.92290 0.16000
H 	H 	0.77410 0.86660 0.93120 -0.06700
H 	H 	0.71690 0.92760 0.86570 0.42600
O 	O 	0.31239 0.35591 0.96934 -0.37700
O 	O 	0.34830 0.39149 0.96879 -0.37700
C 	C 	0.32441 0.38066 0.95927 0.32700
C 	C 	0.30823 0.39659 0.93550 -0.03800
C 	C 	0.27728 0.39160 0.92820 -0.32300
H 	H 	0.26700 0.37680 0.93940 0.18200
N 	N 	0.18650 0.39440 0.87450 0.11100
C 	C 	0.22350 0.39980 0.86630 1.82300
H 	H 	0.22890 0.41660 0.85450 -0.68800
N 	N 	0.19800 0.38390 0.86380 -0.49400
C 	C 	0.28290 0.38400 0.92290 0.16000
H 	H 	0.27410 0.36660 0.93120 -0.06700
H 	H 	0.21690 0.42760 0.86570 0.42600
O 	O 	0.31239 0.85591 0.46934 -0.38000
O 	O 	0.34830 0.89149 0.46879 -0.37900
C 	C 	0.32441 0.88066 0.45927 0.32700
C 	C 	0.30823 0.89659 0.43550 -0.03900
C 	C 	0.27728 0.89160 0.42820 -0.32300
H 	H 	0.26700 0.87680 0.43940 0.18100
N 	N 	0.18650 0.89440 0.37450 0.11100
C 	C 	0.22350 0.89980 0.36630 1.82300
H 	H 	0.22890 0.91660 0.35450 -0.68700
N 	N 	0.19800 0.88390 0.36380 -0.49400
C 	C 	0.28290 0.88400 0.42290 0.16000
H 	H 	0.27410 0.86660 0.43120 -0.06700
H 	H 	0.21690 0.92760 0.36570 0.42600
O 	O 	0.81239 0.64409 0.53066 -0.38000
O 	O 	0.84830 0.60851 0.53121 -0.37900
C 	C 	0.82441 0.61934 0.54073 0.32700
C 	C 	0.80823 0.60341 0.56450 -0.03900
C 	C 	0.77728 0.60840 0.57180 -0.32400
H 	H 	0.76700 0.62320 0.56060 0.18100
N 	N 	0.68650 0.60560 0.62550 0.11100
C 	C 	0.72350 0.60020 0.63370 1.82300
H 	H 	0.72890 0.58340 0.64550 -0.68800
N 	N 	0.69800 0.61610 0.63620 -0.49400
C 	C 	0.78290 0.61600 0.57710 0.16100
H 	H 	0.77410 0.63340 0.56880 -0.06800
H 	H 	0.71690 0.57240 0.63430 0.42600
O 	O 	0.81239 0.14409 0.03066 -0.38000
O 	O 	0.84830 0.10851 0.03121 -0.38000
C 	C 	0.82441 0.11934 0.04073 0.32700
C 	C 	0.80823 0.10341 0.06450 -0.04000
C 	C 	0.77728 0.10840 0.07180 -0.32500
H 	H 	0.76700 0.12320 0.06060 0.18100
N 	N 	0.68650 0.10560 0.12550 0.11100
C 	C 	0.72350 0.10020 0.13370 1.82300
H 	H 	0.72890 0.08340 0.14550 -0.68800
N 	N 	0.69800 0.11610 0.13620 -0.49400
C 	C 	0.78290 0.11600 0.07710 0.16100
H 	H 	0.77410 0.13340 0.06880 -0.06800
H 	H 	0.71690 0.07240 0.13430 0.42500
O 	O 	0.31239 0.64409 0.03066 -0.38000
O 	O 	0.34830 0.60851 0.03121 -0.37900
C 	C 	0.32441 0.61934 0.04073 0.32700
C 	C 	0.30823 0.60341 0.06450 -0.03900
C 	C 	0.27728 0.60840 0.07180 -0.32400
H 	H 	0.26700 0.62320 0.06060 0.18100
N 	N 	0.18650 0.60560 0.12550 0.11100
C 	C 	0.22350 0.60020 0.13370 1.82300
H 	H 	0.22890 0.58340 0.14550 -0.68800
N 	N 	0.19800 0.61610 0.13620 -0.49400
C 	C 	0.28290 0.61600 0.07710 0.16100
H 	H 	0.27410 0.63340 0.06880 -0.06800
H 	H 	0.21690 0.57240 0.13430 0.42500
O 	O 	0.31239 0.14409 0.53066 -0.38000
O 	O 	0.34830 0.10851 0.53121 -0.37900
C 	C 	0.32441 0.11934 0.54073 0.32700
C 	C 	0.30823 0.10341 0.56450 -0.03900
C 	C 	0.27728 0.10840 0.57180 -0.32400
H 	H 	0.26700 0.12320 0.56060 0.18100
N 	N 	0.18650 0.10560 0.62550 0.11100
C 	C 	0.22350 0.10020 0.63370 1.82300
H 	H 	0.22890 0.08340 0.64550 -0.68800
N 	N 	0.19800 0.11610 0.63620 -0.49400
C 	C 	0.28290 0.11600 0.57710 0.16100
H 	H 	0.27410 0.13340 0.56880 -0.06800
H 	H 	0.21690 0.07240 0.63430 0.42500
O 	O 	0.18761 0.64409 0.46934 -0.38000
O 	O 	0.15170 0.60851 0.46879 -0.37900
C 	C 	0.17559 0.61934 0.45927 0.32700
C 	C 	0.19177 0.60341 0.43550 -0.03900
C 	C 	0.22272 0.60840 0.42820 -0.32400
H 	H 	0.23300 0.62320 0.43940 0.18100
N 	N 	0.31350 0.60560 0.37450 0.11100
C 	C 	0.27650 0.60020 0.36630 1.82300
H 	H 	0.27110 0.58340 0.35450 -0.68800
N 	N 	0.30200 0.61610 0.36380 -0.49400
C 	C 	0.21710 0.61600 0.42290 0.16100
H 	H 	0.22590 0.63340 0.43120 -0.06800
H 	H 	0.28310 0.57240 0.36570 0.42600
O 	O 	0.18761 0.14409 0.96934 -0.37700
O 	O 	0.15170 0.10851 0.96879 -0.37800
C 	C 	0.17559 0.11934 0.95927 0.32700
C 	C 	0.19177 0.10341 0.93550 -0.03900
C 	C 	0.22272 0.10840 0.92820 -0.32400
H 	H 	0.23300 0.12320 0.93940 0.18200
N 	N 	0.31350 0.10560 0.87450 0.11100
C 	C 	0.27650 0.10020 0.86630 1.82300
H 	H 	0.27110 0.08340 0.85450 -0.68800
N 	N 	0.30200 0.11610 0.86380 -0.49500
C 	C 	0.21710 0.11600 0.92290 0.16100
H 	H 	0.22590 0.13340 0.93120 -0.06800
H 	H 	0.28310 0.07240 0.86570 0.42500
O 	O 	0.68761 0.64409 0.96934 -0.37700
O 	O 	0.65170 0.60851 0.96879 -0.37700
C 	C 	0.67559 0.61934 0.95927 0.32700
C 	C 	0.69177 0.60341 0.93550 -0.03800
C 	C 	0.72272 0.60840 0.92820 -0.32300
H 	H 	0.73300 0.62320 0.93940 0.18200
N 	N 	0.81350 0.60560 0.87450 0.11100
C 	C 	0.77650 0.60020 0.86630 1.82300
H 	H 	0.77110 0.58340 0.85450 -0.68800
N 	N 	0.80200 0.61610 0.86380 -0.49500
C 	C 	0.71710 0.61600 0.92290 0.16000
H 	H 	0.72590 0.63340 0.93120 -0.06700
H 	H 	0.78310 0.57240 0.86570 0.42600
O 	O 	0.68761 0.14409 0.46934 -0.38000
O 	O 	0.65170 0.10851 0.46879 -0.37900
C 	C 	0.67559 0.11934 0.45927 0.32700
C 	C 	0.69177 0.10341 0.43550 -0.03900
C 	C 	0.72272 0.10840 0.42820 -0.32400
H 	H 	0.73300 0.12320 0.43940 0.18100
N 	N 	0.81350 0.10560 0.37450 0.11100
C 	C 	0.77650 0.10020 0.36630 1.82300
H 	H 	0.77110 0.08340 0.35450 -0.68800
N 	N 	0.80200 0.11610 0.36380 -0.49500
C 	C 	0.71710 0.11600 0.42290 0.16100
H 	H 	0.72590 0.13340 0.43120 -0.06800
H 	H 	0.78310 0.07240 0.36570 0.42500
O 	O 	0.18761 0.35591 0.53066 -0.38000
O 	O 	0.15170 0.39149 0.53121 -0.37900
C 	C 	0.17559 0.38066 0.54073 0.32700
C 	C 	0.19177 0.39659 0.56450 -0.03900
C 	C 	0.22272 0.39160 0.57180 -0.32400
H 	H 	0.23300 0.37680 0.56060 0.18100
N 	N 	0.31350 0.39440 0.62550 0.11100
C 	C 	0.27650 0.39980 0.63370 1.82300
H 	H 	0.27110 0.41660 0.64550 -0.68800
N 	N 	0.30200 0.38390 0.63620 -0.49400
C 	C 	0.21710 0.38400 0.57710 0.16100
H 	H 	0.22590 0.36660 0.56880 -0.06800
H 	H 	0.28310 0.42760 0.63430 0.42600
O 	O 	0.18761 0.85591 0.03066 -0.38000
O 	O 	0.15170 0.89149 0.03121 -0.37900
C 	C 	0.17559 0.88066 0.04073 0.32700
C 	C 	0.19177 0.89659 0.06450 -0.03900
C 	C 	0.22272 0.89160 0.07180 -0.32400
H 	H 	0.23300 0.87680 0.06060 0.18100
N 	N 	0.31350 0.89440 0.12550 0.11100
C 	C 	0.27650 0.89980 0.13370 1.82300
H 	H 	0.27110 0.91660 0.14550 -0.68700
N 	N 	0.30200 0.88390 0.13620 -0.49400
C 	C 	0.21710 0.88400 0.07710 0.16000
H 	H 	0.22590 0.86660 0.06880 -0.06700
H 	H 	0.28310 0.92760 0.13430 0.42600
O 	O 	0.68761 0.35591 0.03066 -0.38000
O 	O 	0.65170 0.39149 0.03121 -0.37900
C 	C 	0.67559 0.38066 0.04073 0.32700
C 	C 	0.69177 0.39659 0.06450 -0.03900
C 	C 	0.72272 0.39160 0.07180 -0.32400
H 	H 	0.73300 0.37680 0.06060 0.18100
N 	N 	0.81350 0.39440 0.12550 0.11100
C 	C 	0.77650 0.39980 0.13370 1.82300
H 	H 	0.77110 0.41660 0.14550 -0.68800
N 	N 	0.80200 0.38390 0.13620 -0.49500
C 	C 	0.71710 0.38400 0.07710 0.16100
H 	H 	0.72590 0.36660 0.06880 -0.06800
H 	H 	0.78310 0.42760 0.13430 0.42600
O 	O 	0.68761 0.85591 0.53066 -0.38000
O 	O 	0.65170 0.89149 0.53121 -0.37900
C 	C 	0.67559 0.88066 0.54073 0.32700
C 	C 	0.69177 0.89659 0.56450 -0.03900
C 	C 	0.72272 0.89160 0.57180 -0.32300
H 	H 	0.73300 0.87680 0.56060 0.18100
N 	N 	0.81350 0.89440 0.62550 0.11100
C 	C 	0.77650 0.89980 0.63370 1.82300
H 	H 	0.77110 0.91660 0.64550 -0.68700
N 	N 	0.80200 0.88390 0.63620 -0.49500
C 	C 	0.71710 0.88400 0.57710 0.16000
H 	H 	0.72590 0.86660 0.56880 -0.06700
H 	H 	0.78310 0.92760 0.63430 0.42600
O 	O 	0.46934 0.81239 0.35591 -0.38000
O 	O 	0.46879 0.84830 0.39149 -0.37900
C 	C 	0.45927 0.82441 0.38066 0.32700
C 	C 	0.43550 0.80823 0.39659 -0.03900
C 	C 	0.42820 0.77728 0.39160 -0.32400
H 	H 	0.43940 0.76700 0.37680 0.18100
N 	N 	0.37450 0.68650 0.39440 0.11100
C 	C 	0.36630 0.72350 0.39980 1.82300
H 	H 	0.35450 0.72890 0.41660 -0.68800
N 	N 	0.36380 0.69800 0.38390 -0.49400
C 	C 	0.42290 0.78290 0.38400 0.16100
H 	H 	0.43120 0.77410 0.36660 -0.06800
H 	H 	0.36570 0.71690 0.42760 0.42600
O 	O 	0.46934 0.31239 0.85591 -0.38000
O 	O 	0.46879 0.34830 0.89149 -0.37900
C 	C 	0.45927 0.32441 0.88066 0.32700
C 	C 	0.43550 0.30823 0.89659 -0.03900
C 	C 	0.42820 0.27728 0.89160 -0.32300
H 	H 	0.43940 0.26700 0.87680 0.18100
N 	N 	0.37450 0.18650 0.89440 0.11100
C 	C 	0.36630 0.22350 0.89980 1.82300
H 	H 	0.35450 0.22890 0.91660 -0.68700
N 	N 	0.36380 0.19800 0.88390 -0.49400
C 	C 	0.42290 0.28290 0.88400 0.16000
H 	H 	0.43120 0.27410 0.86660 -0.06700
H 	H 	0.36570 0.21690 0.92760 0.42600
O 	O 	0.96934 0.81239 0.85591 -0.37700
O 	O 	0.96879 0.84830 0.89149 -0.37700
C 	C 	0.95927 0.82441 0.88066 0.32700
C 	C 	0.93550 0.80823 0.89659 -0.03800
C 	C 	0.92820 0.77728 0.89160 -0.32300
H 	H 	0.93940 0.76700 0.87680 0.18100
N 	N 	0.87450 0.68650 0.89440 0.11100
C 	C 	0.86630 0.72350 0.89980 1.82300
H 	H 	0.85450 0.72890 0.91660 -0.68700
N 	N 	0.86380 0.69800 0.88390 -0.49400
C 	C 	0.92290 0.78290 0.88400 0.16000
H 	H 	0.93120 0.77410 0.86660 -0.06700
H 	H 	0.86570 0.71690 0.92760 0.42600
O 	O 	0.96934 0.31239 0.35591 -0.37700
O 	O 	0.96879 0.34830 0.39149 -0.37700
C 	C 	0.95927 0.32441 0.38066 0.32700
C 	C 	0.93550 0.30823 0.39659 -0.03800
C 	C 	0.92820 0.27728 0.39160 -0.32300
H 	H 	0.93940 0.26700 0.37680 0.18200
N 	N 	0.87450 0.18650 0.39440 0.11100
C 	C 	0.86630 0.22350 0.39980 1.82300
H 	H 	0.85450 0.22890 0.41660 -0.68800
N 	N 	0.86380 0.19800 0.38390 -0.49400
C 	C 	0.92290 0.28290 0.38400 0.16000
H 	H 	0.93120 0.27410 0.36660 -0.06700
H 	H 	0.86570 0.21690 0.42760 0.42600
O 	O 	0.53066 0.81239 0.64409 -0.38000
O 	O 	0.53121 0.84830 0.60851 -0.37900
C 	C 	0.54073 0.82441 0.61934 0.32700
C 	C 	0.56450 0.80823 0.60341 -0.03900
C 	C 	0.57180 0.77728 0.60840 -0.32400
H 	H 	0.56060 0.76700 0.62320 0.18100
N 	N 	0.62550 0.68650 0.60560 0.11100
C 	C 	0.63370 0.72350 0.60020 1.82300
H 	H 	0.64550 0.72890 0.58340 -0.68800
N 	N 	0.63620 0.69800 0.61610 -0.49400
C 	C 	0.57710 0.78290 0.61600 0.16100
H 	H 	0.56880 0.77410 0.63340 -0.06800
H 	H 	0.63430 0.71690 0.57240 0.42600
O 	O 	0.53066 0.31239 0.14409 -0.38000
O 	O 	0.53121 0.34830 0.10851 -0.37900
C 	C 	0.54073 0.32441 0.11934 0.32700
C 	C 	0.56450 0.30823 0.10341 -0.03900
C 	C 	0.57180 0.27728 0.10840 -0.32400
H 	H 	0.56060 0.26700 0.12320 0.18100
N 	N 	0.62550 0.18650 0.10560 0.11100
C 	C 	0.63370 0.22350 0.10020 1.82300
H 	H 	0.64550 0.22890 0.08340 -0.68800
N 	N 	0.63620 0.19800 0.11610 -0.49400
C 	C 	0.57710 0.28290 0.11600 0.16100
H 	H 	0.56880 0.27410 0.13340 -0.06800
H 	H 	0.63430 0.21690 0.07240 0.42500
O 	O 	0.03066 0.81239 0.14409 -0.38000
O 	O 	0.03121 0.84830 0.10851 -0.38000
C 	C 	0.04073 0.82441 0.11934 0.32700
C 	C 	0.06450 0.80823 0.10341 -0.04000
C 	C 	0.07180 0.77728 0.10840 -0.32500
H 	H 	0.06060 0.76700 0.12320 0.18100
N 	N 	0.12550 0.68650 0.10560 0.11100
C 	C 	0.13370 0.72350 0.10020 1.82300
H 	H 	0.14550 0.72890 0.08340 -0.68800
N 	N 	0.13620 0.69800 0.11610 -0.49400
C 	C 	0.07710 0.78290 0.11600 0.16100
H 	H 	0.06880 0.77410 0.13340 -0.06800
H 	H 	0.13430 0.71690 0.07240 0.42500
O 	O 	0.03066 0.31239 0.64409 -0.38000
O 	O 	0.03121 0.34830 0.60851 -0.37900
C 	C 	0.04073 0.32441 0.61934 0.32700
C 	C 	0.06450 0.30823 0.60341 -0.03900
C 	C 	0.07180 0.27728 0.60840 -0.32400
H 	H 	0.06060 0.26700 0.62320 0.18100
N 	N 	0.12550 0.18650 0.60560 0.11100
C 	C 	0.13370 0.22350 0.60020 1.82300
H 	H 	0.14550 0.22890 0.58340 -0.68800
N 	N 	0.13620 0.19800 0.61610 -0.49400
C 	C 	0.07710 0.28290 0.61600 0.16100
H 	H 	0.06880 0.27410 0.63340 -0.06800
H 	H 	0.13430 0.21690 0.57240 0.42500
O 	O 	0.46934 0.18761 0.64409 -0.38000
O 	O 	0.46879 0.15170 0.60851 -0.37900
C 	C 	0.45927 0.17559 0.61934 0.32700
C 	C 	0.43550 0.19177 0.60341 -0.03900
C 	C 	0.42820 0.22272 0.60840 -0.32400
H 	H 	0.43940 0.23300 0.62320 0.18100
N 	N 	0.37450 0.31350 0.60560 0.11100
C 	C 	0.36630 0.27650 0.60020 1.82300
H 	H 	0.35450 0.27110 0.58340 -0.68800
N 	N 	0.36380 0.30200 0.61610 -0.49400
C 	C 	0.42290 0.21710 0.61600 0.16100
H 	H 	0.43120 0.22590 0.63340 -0.06800
H 	H 	0.36570 0.28310 0.57240 0.42600
O 	O 	0.46934 0.68761 0.14409 -0.38000
O 	O 	0.46879 0.65170 0.10851 -0.37900
C 	C 	0.45927 0.67559 0.11934 0.32700
C 	C 	0.43550 0.69177 0.10341 -0.03900
C 	C 	0.42820 0.72272 0.10840 -0.32400
H 	H 	0.43940 0.73300 0.12320 0.18100
N 	N 	0.37450 0.81350 0.10560 0.11100
C 	C 	0.36630 0.77650 0.10020 1.82300
H 	H 	0.35450 0.77110 0.08340 -0.68800
N 	N 	0.36380 0.80200 0.11610 -0.49500
C 	C 	0.42290 0.71710 0.11600 0.16100
H 	H 	0.43120 0.72590 0.13340 -0.06800
H 	H 	0.36570 0.78310 0.07240 0.42500
O 	O 	0.96934 0.18761 0.14409 -0.37700
O 	O 	0.96879 0.15170 0.10851 -0.37800
C 	C 	0.95927 0.17559 0.11934 0.32700
C 	C 	0.93550 0.19177 0.10341 -0.03900
C 	C 	0.92820 0.22272 0.10840 -0.32400
H 	H 	0.93940 0.23300 0.12320 0.18200
N 	N 	0.87450 0.31350 0.10560 0.11100
C 	C 	0.86630 0.27650 0.10020 1.82300
H 	H 	0.85450 0.27110 0.08340 -0.68800
N 	N 	0.86380 0.30200 0.11610 -0.49500
C 	C 	0.92290 0.21710 0.11600 0.16100
H 	H 	0.93120 0.22590 0.13340 -0.06800
H 	H 	0.86570 0.28310 0.07240 0.42500
O 	O 	0.96934 0.68761 0.64409 -0.37700
O 	O 	0.96879 0.65170 0.60851 -0.37700
C 	C 	0.95927 0.67559 0.61934 0.32700
C 	C 	0.93550 0.69177 0.60341 -0.03800
C 	C 	0.92820 0.72272 0.60840 -0.32300
H 	H 	0.93940 0.73300 0.62320 0.18200
N 	N 	0.87450 0.81350 0.60560 0.11100
C 	C 	0.86630 0.77650 0.60020 1.82300
H 	H 	0.85450 0.77110 0.58340 -0.68800
N 	N 	0.86380 0.80200 0.61610 -0.49500
C 	C 	0.92290 0.71710 0.61600 0.16000
H 	H 	0.93120 0.72590 0.63340 -0.06700
H 	H 	0.86570 0.78310 0.57240 0.42600
O 	O 	0.53066 0.18761 0.35591 -0.38000
O 	O 	0.53121 0.15170 0.39149 -0.37900
C 	C 	0.54073 0.17559 0.38066 0.32700
C 	C 	0.56450 0.19177 0.39659 -0.03900
C 	C 	0.57180 0.22272 0.39160 -0.32400
H 	H 	0.56060 0.23300 0.37680 0.18100
N 	N 	0.62550 0.31350 0.39440 0.11100
C 	C 	0.63370 0.27650 0.39980 1.82300
H 	H 	0.64550 0.27110 0.41660 -0.68800
N 	N 	0.63620 0.30200 0.38390 -0.49400
C 	C 	0.57710 0.21710 0.38400 0.16100
H 	H 	0.56880 0.22590 0.36660 -0.06800
H 	H 	0.63430 0.28310 0.42760 0.42600
O 	O 	0.53066 0.68761 0.85591 -0.38000
O 	O 	0.53121 0.65170 0.89149 -0.37900
C 	C 	0.54073 0.67559 0.88066 0.32700
C 	C 	0.56450 0.69177 0.89659 -0.03900
C 	C 	0.57180 0.72272 0.89160 -0.32300
H 	H 	0.56060 0.73300 0.87680 0.18100
N 	N 	0.62550 0.81350 0.89440 0.11100
C 	C 	0.63370 0.77650 0.89980 1.82300
H 	H 	0.64550 0.77110 0.91660 -0.68700
N 	N 	0.63620 0.80200 0.88390 -0.49500
C 	C 	0.57710 0.71710 0.88400 0.16000
H 	H 	0.56880 0.72590 0.86660 -0.06700
H 	H 	0.63430 0.78310 0.92760 0.42600
O 	O 	0.03066 0.18761 0.85591 -0.38000
O 	O 	0.03121 0.15170 0.89149 -0.37900
C 	C 	0.04073 0.17559 0.88066 0.32700
C 	C 	0.06450 0.19177 0.89659 -0.03900
C 	C 	0.07180 0.22272 0.89160 -0.32400
H 	H 	0.06060 0.23300 0.87680 0.18100
N 	N 	0.12550 0.31350 0.89440 0.11100
C 	C 	0.13370 0.27650 0.89980 1.82300
H 	H 	0.14550 0.27110 0.91660 -0.68700
N 	N 	0.13620 0.30200 0.88390 -0.49400
C 	C 	0.07710 0.21710 0.88400 0.16000
H 	H 	0.06880 0.22590 0.86660 -0.06700
H 	H 	0.13430 0.28310 0.92760 0.42600
O 	O 	0.03066 0.68761 0.35591 -0.38000
O 	O 	0.03121 0.65170 0.39149 -0.37900
C 	C 	0.04073 0.67559 0.38066 0.32700
C 	C 	0.06450 0.69177 0.39659 -0.03900
C 	C 	0.07180 0.72272 0.39160 -0.32400
H 	H 	0.06060 0.73300 0.37680 0.18100
N 	N 	0.12550 0.81350 0.39440 0.11100
C 	C 	0.13370 0.77650 0.39980 1.82300
H 	H 	0.14550 0.77110 0.41660 -0.68800
N 	N 	0.13620 0.80200 0.38390 -0.49500
C 	C 	0.07710 0.71710 0.38400 0.16100
H 	H 	0.06880 0.72590 0.36660 -0.06800
H 	H 	0.13430 0.78310 0.42760 0.42600
O 	O 	0.46934 0.35591 0.18761 -0.38000
O 	O 	0.46879 0.39149 0.15170 -0.37900
C 	C 	0.45927 0.38066 0.17559 0.32700
C 	C 	0.43550 0.39659 0.19177 -0.03900
C 	C 	0.42820 0.39160 0.22272 -0.32400
H 	H 	0.43940 0.37680 0.23300 0.18100
N 	N 	0.37450 0.39440 0.31350 0.11100
C 	C 	0.36630 0.39980 0.27650 1.82300
H 	H 	0.35450 0.41660 0.27110 -0.68800
N 	N 	0.36380 0.38390 0.30200 -0.49400
C 	C 	0.42290 0.38400 0.21710 0.16100
H 	H 	0.43120 0.36660 0.22590 -0.06800
H 	H 	0.36570 0.42760 0.28310 0.42600
O 	O 	0.46934 0.85591 0.68761 -0.38000
O 	O 	0.46879 0.89149 0.65170 -0.37900
C 	C 	0.45927 0.88066 0.67559 0.32700
C 	C 	0.43550 0.89659 0.69177 -0.03900
C 	C 	0.42820 0.89160 0.72272 -0.32300
H 	H 	0.43940 0.87680 0.73300 0.18100
N 	N 	0.37450 0.89440 0.81350 0.11100
C 	C 	0.36630 0.89980 0.77650 1.82300
H 	H 	0.35450 0.91660 0.77110 -0.68700
N 	N 	0.36380 0.88390 0.80200 -0.49500
C 	C 	0.42290 0.88400 0.71710 0.16000
H 	H 	0.43120 0.86660 0.72590 -0.06700
H 	H 	0.36570 0.92760 0.78310 0.42600
O 	O 	0.96934 0.35591 0.68761 -0.37700
O 	O 	0.96879 0.39149 0.65170 -0.37700
C 	C 	0.95927 0.38066 0.67559 0.32700
C 	C 	0.93550 0.39659 0.69177 -0.03800
C 	C 	0.92820 0.39160 0.72272 -0.32300
H 	H 	0.93940 0.37680 0.73300 0.18200
N 	N 	0.87450 0.39440 0.81350 0.11100
C 	C 	0.86630 0.39980 0.77650 1.82300
H 	H 	0.85450 0.41660 0.77110 -0.68800
N 	N 	0.86380 0.38390 0.80200 -0.49500
C 	C 	0.92290 0.38400 0.71710 0.16000
H 	H 	0.93120 0.36660 0.72590 -0.06700
H 	H 	0.86570 0.42760 0.78310 0.42600
O 	O 	0.96934 0.85591 0.18761 -0.37700
O 	O 	0.96879 0.89149 0.15170 -0.37700
C 	C 	0.95927 0.88066 0.17559 0.32700
C 	C 	0.93550 0.89659 0.19177 -0.03800
C 	C 	0.92820 0.89160 0.22272 -0.32300
H 	H 	0.93940 0.87680 0.23300 0.18100
N 	N 	0.87450 0.89440 0.31350 0.11100
C 	C 	0.86630 0.89980 0.27650 1.82300
H 	H 	0.85450 0.91660 0.27110 -0.68700
N 	N 	0.86380 0.88390 0.30200 -0.49400
C 	C 	0.92290 0.88400 0.21710 0.16000
H 	H 	0.93120 0.86660 0.22590 -0.06700
H 	H 	0.86570 0.92760 0.28310 0.42600
O 	O 	0.53066 0.64409 0.18761 -0.38000
O 	O 	0.53121 0.60851 0.15170 -0.37900
C 	C 	0.54073 0.61934 0.17559 0.32700
C 	C 	0.56450 0.60341 0.19177 -0.03900
C 	C 	0.57180 0.60840 0.22272 -0.32400
H 	H 	0.56060 0.62320 0.23300 0.18100
N 	N 	0.62550 0.60560 0.31350 0.11100
C 	C 	0.63370 0.60020 0.27650 1.82300
H 	H 	0.64550 0.58340 0.27110 -0.68800
N 	N 	0.63620 0.61610 0.30200 -0.49400
C 	C 	0.57710 0.61600 0.21710 0.16100
H 	H 	0.56880 0.63340 0.22590 -0.06800
H 	H 	0.63430 0.57240 0.28310 0.42600
O 	O 	0.53066 0.14409 0.68761 -0.38000
O 	O 	0.53121 0.10851 0.65170 -0.37900
C 	C 	0.54073 0.11934 0.67559 0.32700
C 	C 	0.56450 0.10341 0.69177 -0.03900
C 	C 	0.57180 0.10840 0.72272 -0.32400
H 	H 	0.56060 0.12320 0.73300 0.18100
N 	N 	0.62550 0.10560 0.81350 0.11100
C 	C 	0.63370 0.10020 0.77650 1.82300
H 	H 	0.64550 0.08340 0.77110 -0.68800
N 	N 	0.63620 0.11610 0.80200 -0.49500
C 	C 	0.57710 0.11600 0.71710 0.16100
H 	H 	0.56880 0.13340 0.72590 -0.06800
H 	H 	0.63430 0.07240 0.78310 0.42500
O 	O 	0.03066 0.64409 0.68761 -0.38000
O 	O 	0.03121 0.60851 0.65170 -0.37900
C 	C 	0.04073 0.61934 0.67559 0.32700
C 	C 	0.06450 0.60341 0.69177 -0.03900
C 	C 	0.07180 0.60840 0.72272 -0.32400
H 	H 	0.06060 0.62320 0.73300 0.18100
N 	N 	0.12550 0.60560 0.81350 0.11100
C 	C 	0.13370 0.60020 0.77650 1.82300
H 	H 	0.14550 0.58340 0.77110 -0.68800
N 	N 	0.13620 0.61610 0.80200 -0.49500
C 	C 	0.07710 0.61600 0.71710 0.16100
H 	H 	0.06880 0.63340 0.72590 -0.06800
H 	H 	0.13430 0.57240 0.78310 0.42600
O 	O 	0.03066 0.14409 0.18761 -0.38000
O 	O 	0.03121 0.10851 0.15170 -0.38000
C 	C 	0.04073 0.11934 0.17559 0.32700
C 	C 	0.06450 0.10341 0.19177 -0.04000
C 	C 	0.07180 0.10840 0.22272 -0.32500
H 	H 	0.06060 0.12320 0.23300 0.18100
N 	N 	0.12550 0.10560 0.31350 0.11100
C 	C 	0.13370 0.10020 0.27650 1.82300
H 	H 	0.14550 0.08340 0.27110 -0.68800
N 	N 	0.13620 0.11610 0.30200 -0.49400
C 	C 	0.07710 0.11600 0.21710 0.16100
H 	H 	0.06880 0.13340 0.22590 -0.06800
H 	H 	0.13430 0.07240 0.28310 0.42500
O 	O 	0.46934 0.64409 0.81239 -0.38000
O 	O 	0.46879 0.60851 0.84830 -0.37900
C 	C 	0.45927 0.61934 0.82441 0.32700
C 	C 	0.43550 0.60341 0.80823 -0.03900
C 	C 	0.42820 0.60840 0.77728 -0.32400
H 	H 	0.43940 0.62320 0.76700 0.18100
N 	N 	0.37450 0.60560 0.68650 0.11100
C 	C 	0.36630 0.60020 0.72350 1.82300
H 	H 	0.35450 0.58340 0.72890 -0.68800
N 	N 	0.36380 0.61610 0.69800 -0.49400
C 	C 	0.42290 0.61600 0.78290 0.16100
H 	H 	0.43120 0.63340 0.77410 -0.06800
H 	H 	0.36570 0.57240 0.71690 0.42600
O 	O 	0.46934 0.14409 0.31239 -0.38000
O 	O 	0.46879 0.10851 0.34830 -0.37900
C 	C 	0.45927 0.11934 0.32441 0.32700
C 	C 	0.43550 0.10341 0.30823 -0.03900
C 	C 	0.42820 0.10840 0.27728 -0.32400
H 	H 	0.43940 0.12320 0.26700 0.18100
N 	N 	0.37450 0.10560 0.18650 0.11100
C 	C 	0.36630 0.10020 0.22350 1.82300
H 	H 	0.35450 0.08340 0.22890 -0.68800
N 	N 	0.36380 0.11610 0.19800 -0.49400
C 	C 	0.42290 0.11600 0.28290 0.16100
H 	H 	0.43120 0.13340 0.27410 -0.06800
H 	H 	0.36570 0.07240 0.21690 0.42500
O 	O 	0.96934 0.64409 0.31239 -0.37700
O 	O 	0.96879 0.60851 0.34830 -0.37700
C 	C 	0.95927 0.61934 0.32441 0.32700
C 	C 	0.93550 0.60341 0.30823 -0.03800
C 	C 	0.92820 0.60840 0.27728 -0.32300
H 	H 	0.93940 0.62320 0.26700 0.18200
N 	N 	0.87450 0.60560 0.18650 0.11100
C 	C 	0.86630 0.60020 0.22350 1.82300
H 	H 	0.85450 0.58340 0.22890 -0.68800
N 	N 	0.86380 0.61610 0.19800 -0.49400
C 	C 	0.92290 0.61600 0.28290 0.16000
H 	H 	0.93120 0.63340 0.27410 -0.06700
H 	H 	0.86570 0.57240 0.21690 0.42600
O 	O 	0.96934 0.14409 0.81239 -0.37800
O 	O 	0.96879 0.10851 0.84830 -0.37800
C 	C 	0.95927 0.11934 0.82441 0.32700
C 	C 	0.93550 0.10341 0.80823 -0.03900
C 	C 	0.92820 0.10840 0.77728 -0.32400
H 	H 	0.93940 0.12320 0.76700 0.18200
N 	N 	0.87450 0.10560 0.68650 0.11100
C 	C 	0.86630 0.10020 0.72350 1.82300
H 	H 	0.85450 0.08340 0.72890 -0.68800
N 	N 	0.86380 0.11610 0.69800 -0.49500
C 	C 	0.92290 0.11600 0.78290 0.16100
H 	H 	0.93120 0.13340 0.77410 -0.06800
H 	H 	0.86570 0.07240 0.71690 0.42500
O 	O 	0.53066 0.35591 0.81239 -0.38000
O 	O 	0.53121 0.39149 0.84830 -0.37900
C 	C 	0.54073 0.38066 0.82441 0.32700
C 	C 	0.56450 0.39659 0.80823 -0.03900
C 	C 	0.57180 0.39160 0.77728 -0.32400
H 	H 	0.56060 0.37680 0.76700 0.18100
N 	N 	0.62550 0.39440 0.68650 0.11100
C 	C 	0.63370 0.39980 0.72350 1.82300
H 	H 	0.64550 0.41660 0.72890 -0.68800
N 	N 	0.63620 0.38390 0.69800 -0.49400
C 	C 	0.57710 0.38400 0.78290 0.16100
H 	H 	0.56880 0.36660 0.77410 -0.06800
H 	H 	0.63430 0.42760 0.71690 0.42600
O 	O 	0.53066 0.85591 0.31239 -0.38000
O 	O 	0.53121 0.89149 0.34830 -0.37900
C 	C 	0.54073 0.88066 0.32441 0.32700
C 	C 	0.56450 0.89659 0.30823 -0.03900
C 	C 	0.57180 0.89160 0.27728 -0.32300
H 	H 	0.56060 0.87680 0.26700 0.18100
N 	N 	0.62550 0.89440 0.18650 0.11100
C 	C 	0.63370 0.89980 0.22350 1.82300
H 	H 	0.64550 0.91660 0.22890 -0.68700
N 	N 	0.63620 0.88390 0.19800 -0.49400
C 	C 	0.57710 0.88400 0.28290 0.16000
H 	H 	0.56880 0.86660 0.27410 -0.06700
H 	H 	0.63430 0.92760 0.21690 0.42600
O 	O 	0.03066 0.35591 0.31239 -0.38000
O 	O 	0.03121 0.39149 0.34830 -0.37900
C 	C 	0.04073 0.38066 0.32441 0.32700
C 	C 	0.06450 0.39659 0.30823 -0.03900
C 	C 	0.07180 0.39160 0.27728 -0.32400
H 	H 	0.06060 0.37680 0.26700 0.18100
N 	N 	0.12550 0.39440 0.18650 0.11100
C 	C 	0.13370 0.39980 0.22350 1.82300
H 	H 	0.14550 0.41660 0.22890 -0.68800
N 	N 	0.13620 0.38390 0.19800 -0.49400
C 	C 	0.07710 0.38400 0.28290 0.16100
H 	H 	0.06880 0.36660 0.27410 -0.06800
H 	H 	0.13430 0.42760 0.21690 0.42500
O 	O 	0.03066 0.85591 0.81239 -0.38000
O 	O 	0.03121 0.89149 0.84830 -0.37900
C 	C 	0.04073 0.88066 0.82441 0.32700
C 	C 	0.06450 0.89659 0.80823 -0.03900
C 	C 	0.07180 0.89160 0.77728 -0.32400
H 	H 	0.06060 0.87680 0.76700 0.18100
N 	N 	0.12550 0.89440 0.68650 0.11100
C 	C 	0.13370 0.89980 0.72350 1.82300
H 	H 	0.14550 0.91660 0.72890 -0.68700
N 	N 	0.13620 0.88390 0.69800 -0.49400
C 	C 	0.07710 0.88400 0.78290 0.16000
H 	H 	0.06880 0.86660 0.77410 -0.06800
H 	H 	0.13430 0.92760 0.71690 0.42600
O 	O 	0.35591 0.81239 0.53066 -0.38000
O 	O 	0.39149 0.84830 0.53121 -0.37900
C 	C 	0.38066 0.82441 0.54073 0.32700
C 	C 	0.39659 0.80823 0.56450 -0.03900
C 	C 	0.39160 0.77728 0.57180 -0.32400
H 	H 	0.37680 0.76700 0.56060 0.18100
N 	N 	0.39440 0.68650 0.62550 0.11100
C 	C 	0.39980 0.72350 0.63370 1.82300
H 	H 	0.41660 0.72890 0.64550 -0.68800
N 	N 	0.38390 0.69800 0.63620 -0.49400
C 	C 	0.38400 0.78290 0.57710 0.16100
H 	H 	0.36660 0.77410 0.56880 -0.06800
H 	H 	0.42760 0.71690 0.63430 0.42600
O 	O 	0.35591 0.31239 0.03066 -0.38000
O 	O 	0.39149 0.34830 0.03121 -0.37900
C 	C 	0.38066 0.32441 0.04073 0.32700
C 	C 	0.39659 0.30823 0.06450 -0.03900
C 	C 	0.39160 0.27728 0.07180 -0.32400
H 	H 	0.37680 0.26700 0.06060 0.18100
N 	N 	0.39440 0.18650 0.12550 0.11100
C 	C 	0.39980 0.22350 0.13370 1.82300
H 	H 	0.41660 0.22890 0.14550 -0.68800
N 	N 	0.38390 0.19800 0.13620 -0.49400
C 	C 	0.38400 0.28290 0.07710 0.16100
H 	H 	0.36660 0.27410 0.06880 -0.06800
H 	H 	0.42760 0.21690 0.13430 0.42500
O 	O 	0.85591 0.81239 0.03066 -0.38000
O 	O 	0.89149 0.84830 0.03121 -0.37900
C 	C 	0.88066 0.82441 0.04073 0.32700
C 	C 	0.89659 0.80823 0.06450 -0.03900
C 	C 	0.89160 0.77728 0.07180 -0.32400
H 	H 	0.87680 0.76700 0.06060 0.18100
N 	N 	0.89440 0.68650 0.12550 0.11100
C 	C 	0.89980 0.72350 0.13370 1.82300
H 	H 	0.91660 0.72890 0.14550 -0.68700
N 	N 	0.88390 0.69800 0.13620 -0.49400
C 	C 	0.88400 0.78290 0.07710 0.16000
H 	H 	0.86660 0.77410 0.06880 -0.06800
H 	H 	0.92760 0.71690 0.13430 0.42600
O 	O 	0.85591 0.31239 0.53066 -0.38000
O 	O 	0.89149 0.34830 0.53121 -0.37900
C 	C 	0.88066 0.32441 0.54073 0.32700
C 	C 	0.89659 0.30823 0.56450 -0.03900
C 	C 	0.89160 0.27728 0.57180 -0.32300
H 	H 	0.87680 0.26700 0.56060 0.18100
N 	N 	0.89440 0.18650 0.62550 0.11100
C 	C 	0.89980 0.22350 0.63370 1.82300
H 	H 	0.91660 0.22890 0.64550 -0.68700
N 	N 	0.88390 0.19800 0.63620 -0.49400
C 	C 	0.88400 0.28290 0.57710 0.16000
H 	H 	0.86660 0.27410 0.56880 -0.06700
H 	H 	0.92760 0.21690 0.63430 0.42600
O 	O 	0.64409 0.81239 0.46934 -0.38000
O 	O 	0.60851 0.84830 0.46879 -0.37900
C 	C 	0.61934 0.82441 0.45927 0.32700
C 	C 	0.60341 0.80823 0.43550 -0.03900
C 	C 	0.60840 0.77728 0.42820 -0.32400
H 	H 	0.62320 0.76700 0.43940 0.18100
N 	N 	0.60560 0.68650 0.37450 0.11100
C 	C 	0.60020 0.72350 0.36630 1.82300
H 	H 	0.58340 0.72890 0.35450 -0.68800
N 	N 	0.61610 0.69800 0.36380 -0.49400
C 	C 	0.61600 0.78290 0.42290 0.16100
H 	H 	0.63340 0.77410 0.43120 -0.06800
H 	H 	0.57240 0.71690 0.36570 0.42600
O 	O 	0.64409 0.31239 0.96934 -0.37700
O 	O 	0.60851 0.34830 0.96879 -0.37700
C 	C 	0.61934 0.32441 0.95927 0.32700
C 	C 	0.60341 0.30823 0.93550 -0.03800
C 	C 	0.60840 0.27728 0.92820 -0.32300
H 	H 	0.62320 0.26700 0.93940 0.18200
N 	N 	0.60560 0.18650 0.87450 0.11100
C 	C 	0.60020 0.22350 0.86630 1.82300
H 	H 	0.58340 0.22890 0.85450 -0.68800
N 	N 	0.61610 0.19800 0.86380 -0.49400
C 	C 	0.61600 0.28290 0.92290 0.16000
H 	H 	0.63340 0.27410 0.93120 -0.06700
H 	H 	0.57240 0.21690 0.86570 0.42600
O 	O 	0.14409 0.81239 0.96934 -0.37800
O 	O 	0.10851 0.84830 0.96879 -0.37800
C 	C 	0.11934 0.82441 0.95927 0.32700
C 	C 	0.10341 0.80823 0.93550 -0.03900
C 	C 	0.10840 0.77728 0.92820 -0.32400
H 	H 	0.12320 0.76700 0.93940 0.18200
N 	N 	0.10560 0.68650 0.87450 0.11100
C 	C 	0.10020 0.72350 0.86630 1.82300
H 	H 	0.08340 0.72890 0.85450 -0.68800
N 	N 	0.11610 0.69800 0.86380 -0.49500
C 	C 	0.11600 0.78290 0.92290 0.16100
H 	H 	0.13340 0.77410 0.93120 -0.06800
H 	H 	0.07240 0.71690 0.86570 0.42500
O 	O 	0.14409 0.31239 0.46934 -0.38000
O 	O 	0.10851 0.34830 0.46879 -0.37900
C 	C 	0.11934 0.32441 0.45927 0.32700
C 	C 	0.10341 0.30823 0.43550 -0.03900
C 	C 	0.10840 0.27728 0.42820 -0.32400
H 	H 	0.12320 0.26700 0.43940 0.18100
N 	N 	0.10560 0.18650 0.37450 0.11100
C 	C 	0.10020 0.22350 0.36630 1.82300
H 	H 	0.08340 0.22890 0.35450 -0.68800
N 	N 	0.11610 0.19800 0.36380 -0.49400
C 	C 	0.11600 0.28290 0.42290 0.16100
H 	H 	0.13340 0.27410 0.43120 -0.06800
H 	H 	0.07240 0.21690 0.36570 0.42500
O 	O 	0.64409 0.18761 0.53066 -0.38000
O 	O 	0.60851 0.15170 0.53121 -0.37900
C 	C 	0.61934 0.17559 0.54073 0.32700
C 	C 	0.60341 0.19177 0.56450 -0.03900
C 	C 	0.60840 0.22272 0.57180 -0.32400
H 	H 	0.62320 0.23300 0.56060 0.18100
N 	N 	0.60560 0.31350 0.62550 0.11100
C 	C 	0.60020 0.27650 0.63370 1.82300
H 	H 	0.58340 0.27110 0.64550 -0.68800
N 	N 	0.61610 0.30200 0.63620 -0.49400
C 	C 	0.61600 0.21710 0.57710 0.16100
H 	H 	0.63340 0.22590 0.56880 -0.06800
H 	H 	0.57240 0.28310 0.63430 0.42600
O 	O 	0.64409 0.68761 0.03066 -0.38000
O 	O 	0.60851 0.65170 0.03121 -0.37900
C 	C 	0.61934 0.67559 0.04073 0.32700
C 	C 	0.60341 0.69177 0.06450 -0.03900
C 	C 	0.60840 0.72272 0.07180 -0.32400
H 	H 	0.62320 0.73300 0.06060 0.18100
N 	N 	0.60560 0.81350 0.12550 0.11100
C 	C 	0.60020 0.77650 0.13370 1.82300
H 	H 	0.58340 0.77110 0.14550 -0.68800
N 	N 	0.61610 0.80200 0.13620 -0.49500
C 	C 	0.61600 0.71710 0.07710 0.16100
H 	H 	0.63340 0.72590 0.06880 -0.06800
H 	H 	0.57240 0.78310 0.13430 0.42600
O 	O 	0.14409 0.18761 0.03066 -0.38000
O 	O 	0.10851 0.15170 0.03121 -0.38000
C 	C 	0.11934 0.17559 0.04073 0.32700
C 	C 	0.10341 0.19177 0.06450 -0.04000
C 	C 	0.10840 0.22272 0.07180 -0.32500
H 	H 	0.12320 0.23300 0.06060 0.18100
N 	N 	0.10560 0.31350 0.12550 0.11100
C 	C 	0.10020 0.27650 0.13370 1.82300
H 	H 	0.08340 0.27110 0.14550 -0.68800
N 	N 	0.11610 0.30200 0.13620 -0.49400
C 	C 	0.11600 0.21710 0.07710 0.16100
H 	H 	0.13340 0.22590 0.06880 -0.06800
H 	H 	0.07240 0.28310 0.13430 0.42500
O 	O 	0.14409 0.68761 0.53066 -0.38000
O 	O 	0.10851 0.65170 0.53121 -0.37900
C 	C 	0.11934 0.67559 0.54073 0.32700
C 	C 	0.10341 0.69177 0.56450 -0.03900
C 	C 	0.10840 0.72272 0.57180 -0.32400
H 	H 	0.12320 0.73300 0.56060 0.18100
N 	N 	0.10560 0.81350 0.62550 0.11100
C 	C 	0.10020 0.77650 0.63370 1.82300
H 	H 	0.08340 0.77110 0.64550 -0.68800
N 	N 	0.11610 0.80200 0.63620 -0.49500
C 	C 	0.11600 0.71710 0.57710 0.16100
H 	H 	0.13340 0.72590 0.56880 -0.06800
H 	H 	0.07240 0.78310 0.63430 0.42500
O 	O 	0.35591 0.18761 0.46934 -0.38000
O 	O 	0.39149 0.15170 0.46879 -0.37900
C 	C 	0.38066 0.17559 0.45927 0.32700
C 	C 	0.39659 0.19177 0.43550 -0.03900
C 	C 	0.39160 0.22272 0.42820 -0.32400
H 	H 	0.37680 0.23300 0.43940 0.18100
N 	N 	0.39440 0.31350 0.37450 0.11100
C 	C 	0.39980 0.27650 0.36630 1.82300
H 	H 	0.41660 0.27110 0.35450 -0.68800
N 	N 	0.38390 0.30200 0.36380 -0.49400
C 	C 	0.38400 0.21710 0.42290 0.16100
H 	H 	0.36660 0.22590 0.43120 -0.06800
H 	H 	0.42760 0.28310 0.36570 0.42600
O 	O 	0.35591 0.68761 0.96934 -0.37700
O 	O 	0.39149 0.65170 0.96879 -0.37700
C 	C 	0.38066 0.67559 0.95927 0.32700
C 	C 	0.39659 0.69177 0.93550 -0.03800
C 	C 	0.39160 0.72272 0.92820 -0.32300
H 	H 	0.37680 0.73300 0.93940 0.18200
N 	N 	0.39440 0.81350 0.87450 0.11100
C 	C 	0.39980 0.77650 0.86630 1.82300
H 	H 	0.41660 0.77110 0.85450 -0.68800
N 	N 	0.38390 0.80200 0.86380 -0.49500
C 	C 	0.38400 0.71710 0.92290 0.16000
H 	H 	0.36660 0.72590 0.93120 -0.06700
H 	H 	0.42760 0.78310 0.86570 0.42600
O 	O 	0.85591 0.18761 0.96934 -0.37700
O 	O 	0.89149 0.15170 0.96879 -0.37700
C 	C 	0.88066 0.17559 0.95927 0.32700
C 	C 	0.89659 0.19177 0.93550 -0.03800
C 	C 	0.89160 0.22272 0.92820 -0.32300
H 	H 	0.87680 0.23300 0.93940 0.18100
N 	N 	0.89440 0.31350 0.87450 0.11100
C 	C 	0.89980 0.27650 0.86630 1.82300
H 	H 	0.91660 0.27110 0.85450 -0.68700
N 	N 	0.88390 0.30200 0.86380 -0.49400
C 	C 	0.88400 0.21710 0.92290 0.16000
H 	H 	0.86660 0.22590 0.93120 -0.06700
H 	H 	0.92760 0.28310 0.86570 0.42600
O 	O 	0.85591 0.68761 0.46934 -0.38000
O 	O 	0.89149 0.65170 0.46879 -0.37900
C 	C 	0.88066 0.67559 0.45927 0.32700
C 	C 	0.89659 0.69177 0.43550 -0.03900
C 	C 	0.89160 0.72272 0.42820 -0.32300
H 	H 	0.87680 0.73300 0.43940 0.18100
N 	N 	0.89440 0.81350 0.37450 0.11100
C 	C 	0.89980 0.77650 0.36630 1.82300
H 	H 	0.91660 0.77110 0.35450 -0.68700
N 	N 	0.88390 0.80200 0.36380 -0.49500
C 	C 	0.88400 0.71710 0.42290 0.16000
H 	H 	0.86660 0.72590 0.43120 -0.06700
H 	H 	0.92760 0.78310 0.36570 0.42600
O 	O 	0.81239 0.46934 0.64409 -0.38000
O 	O 	0.84830 0.46879 0.60851 -0.37900
C 	C 	0.82441 0.45927 0.61934 0.32700
C 	C 	0.80823 0.43550 0.60341 -0.03900
C 	C 	0.77728 0.42820 0.60840 -0.32400
H 	H 	0.76700 0.43940 0.62320 0.18100
N 	N 	0.68650 0.37450 0.60560 0.11100
C 	C 	0.72350 0.36630 0.60020 1.82300
H 	H 	0.72890 0.35450 0.58340 -0.68800
N 	N 	0.69800 0.36380 0.61610 -0.49400
C 	C 	0.78290 0.42290 0.61600 0.16100
H 	H 	0.77410 0.43120 0.63340 -0.06800
H 	H 	0.71690 0.36570 0.57240 0.42600
O 	O 	0.81239 0.96934 0.14409 -0.37800
O 	O 	0.84830 0.96879 0.10851 -0.37800
C 	C 	0.82441 0.95927 0.11934 0.32700
C 	C 	0.80823 0.93550 0.10341 -0.03900
C 	C 	0.77728 0.92820 0.10840 -0.32400
H 	H 	0.76700 0.93940 0.12320 0.18200
N 	N 	0.68650 0.87450 0.10560 0.11100
C 	C 	0.72350 0.86630 0.10020 1.82300
H 	H 	0.72890 0.85450 0.08340 -0.68800
N 	N 	0.69800 0.86380 0.11610 -0.49500
C 	C 	0.78290 0.92290 0.11600 0.16100
H 	H 	0.77410 0.93120 0.13340 -0.06800
H 	H 	0.71690 0.86570 0.07240 0.42500
O 	O 	0.31239 0.46934 0.14409 -0.38000
O 	O 	0.34830 0.46879 0.10851 -0.37900
C 	C 	0.32441 0.45927 0.11934 0.32700
C 	C 	0.30823 0.43550 0.10341 -0.03900
C 	C 	0.27728 0.42820 0.10840 -0.32400
H 	H 	0.26700 0.43940 0.12320 0.18100
N 	N 	0.18650 0.37450 0.10560 0.11100
C 	C 	0.22350 0.36630 0.10020 1.82300
H 	H 	0.22890 0.35450 0.08340 -0.68800
N 	N 	0.19800 0.36380 0.11610 -0.49400
C 	C 	0.28290 0.42290 0.11600 0.16100
H 	H 	0.27410 0.43120 0.13340 -0.06800
H 	H 	0.21690 0.36570 0.07240 0.42500
O 	O 	0.31239 0.96934 0.64409 -0.37700
O 	O 	0.34830 0.96879 0.60851 -0.37700
C 	C 	0.32441 0.95927 0.61934 0.32700
C 	C 	0.30823 0.93550 0.60341 -0.03800
C 	C 	0.27728 0.92820 0.60840 -0.32300
H 	H 	0.26700 0.93940 0.62320 0.18200
N 	N 	0.18650 0.87450 0.60560 0.11100
C 	C 	0.22350 0.86630 0.60020 1.82300
H 	H 	0.22890 0.85450 0.58340 -0.68800
N 	N 	0.19800 0.86380 0.61610 -0.49400
C 	C 	0.28290 0.92290 0.61600 0.16000
H 	H 	0.27410 0.93120 0.63340 -0.06700
H 	H 	0.21690 0.86570 0.57240 0.42600
O 	O 	0.81239 0.53066 0.35591 -0.38000
O 	O 	0.84830 0.53121 0.39149 -0.37900
C 	C 	0.82441 0.54073 0.38066 0.32700
C 	C 	0.80823 0.56450 0.39659 -0.03900
C 	C 	0.77728 0.57180 0.39160 -0.32400
H 	H 	0.76700 0.56060 0.37680 0.18100
N 	N 	0.68650 0.62550 0.39440 0.11100
C 	C 	0.72350 0.63370 0.39980 1.82300
H 	H 	0.72890 0.64550 0.41660 -0.68800
N 	N 	0.69800 0.63620 0.38390 -0.49400
C 	C 	0.78290 0.57710 0.38400 0.16100
H 	H 	0.77410 0.56880 0.36660 -0.06800
H 	H 	0.71690 0.63430 0.42760 0.42600
O 	O 	0.81239 0.03066 0.85591 -0.38000
O 	O 	0.84830 0.03121 0.89149 -0.37900
C 	C 	0.82441 0.04073 0.88066 0.32700
C 	C 	0.80823 0.06450 0.89659 -0.03900
C 	C 	0.77728 0.07180 0.89160 -0.32400
H 	H 	0.76700 0.06060 0.87680 0.18100
N 	N 	0.68650 0.12550 0.89440 0.11100
C 	C 	0.72350 0.13370 0.89980 1.82300
H 	H 	0.72890 0.14550 0.91660 -0.68700
N 	N 	0.69800 0.13620 0.88390 -0.49400
C 	C 	0.78290 0.07710 0.88400 0.16000
H 	H 	0.77410 0.06880 0.86660 -0.06800
H 	H 	0.71690 0.13430 0.92760 0.42600
O 	O 	0.31239 0.53066 0.85591 -0.38000
O 	O 	0.34830 0.53121 0.89149 -0.37900
C 	C 	0.32441 0.54073 0.88066 0.32700
C 	C 	0.30823 0.56450 0.89659 -0.03900
C 	C 	0.27728 0.57180 0.89160 -0.32300
H 	H 	0.26700 0.56060 0.87680 0.18100
N 	N 	0.18650 0.62550 0.89440 0.11100
C 	C 	0.22350 0.63370 0.89980 1.82300
H 	H 	0.22890 0.64550 0.91660 -0.68700
N 	N 	0.19800 0.63620 0.88390 -0.49400
C 	C 	0.28290 0.57710 0.88400 0.16000
H 	H 	0.27410 0.56880 0.86660 -0.06700
H 	H 	0.21690 0.63430 0.92760 0.42600
O 	O 	0.31239 0.03066 0.35591 -0.38000
O 	O 	0.34830 0.03121 0.39149 -0.37900
C 	C 	0.32441 0.04073 0.38066 0.32700
C 	C 	0.30823 0.06450 0.39659 -0.03900
C 	C 	0.27728 0.07180 0.39160 -0.32400
H 	H 	0.26700 0.06060 0.37680 0.18100
N 	N 	0.18650 0.12550 0.39440 0.11100
C 	C 	0.22350 0.13370 0.39980 1.82300
H 	H 	0.22890 0.14550 0.41660 -0.68800
N 	N 	0.19800 0.13620 0.38390 -0.49400
C 	C 	0.28290 0.07710 0.38400 0.16100
H 	H 	0.27410 0.06880 0.36660 -0.06800
H 	H 	0.21690 0.13430 0.42760 0.42500
O 	O 	0.18761 0.46934 0.35591 -0.38000
O 	O 	0.15170 0.46879 0.39149 -0.37900
C 	C 	0.17559 0.45927 0.38066 0.32700
C 	C 	0.19177 0.43550 0.39659 -0.03900
C 	C 	0.22272 0.42820 0.39160 -0.32400
H 	H 	0.23300 0.43940 0.37680 0.18100
N 	N 	0.31350 0.37450 0.39440 0.11100
C 	C 	0.27650 0.36630 0.39980 1.82300
H 	H 	0.27110 0.35450 0.41660 -0.68800
N 	N 	0.30200 0.36380 0.38390 -0.49400
C 	C 	0.21710 0.42290 0.38400 0.16100
H 	H 	0.22590 0.43120 0.36660 -0.06800
H 	H 	0.28310 0.36570 0.42760 0.42600
O 	O 	0.18761 0.96934 0.85591 -0.37700
O 	O 	0.15170 0.96879 0.89149 -0.37700
C 	C 	0.17559 0.95927 0.88066 0.32700
C 	C 	0.19177 0.93550 0.89659 -0.03800
C 	C 	0.22272 0.92820 0.89160 -0.32300
H 	H 	0.23300 0.93940 0.87680 0.18100
N 	N 	0.31350 0.87450 0.89440 0.11100
C 	C 	0.27650 0.86630 0.89980 1.82300
H 	H 	0.27110 0.85450 0.91660 -0.68700
N 	N 	0.30200 0.86380 0.88390 -0.49400
C 	C 	0.21710 0.92290 0.88400 0.16000
H 	H 	0.22590 0.93120 0.86660 -0.06700
H 	H 	0.28310 0.86570 0.92760 0.42600
O 	O 	0.68761 0.46934 0.85591 -0.38000
O 	O 	0.65170 0.46879 0.89149 -0.37900
C 	C 	0.67559 0.45927 0.88066 0.32700
C 	C 	0.69177 0.43550 0.89659 -0.03900
C 	C 	0.72272 0.42820 0.89160 -0.32300
H 	H 	0.73300 0.43940 0.87680 0.18100
N 	N 	0.81350 0.37450 0.89440 0.11100
C 	C 	0.77650 0.36630 0.89980 1.82300
H 	H 	0.77110 0.35450 0.91660 -0.68700
N 	N 	0.80200 0.36380 0.88390 -0.49500
C 	C 	0.71710 0.42290 0.88400 0.16000
H 	H 	0.72590 0.43120 0.86660 -0.06700
H 	H 	0.78310 0.36570 0.92760 0.42600
O 	O 	0.68761 0.96934 0.35591 -0.37700
O 	O 	0.65170 0.96879 0.39149 -0.37700
C 	C 	0.67559 0.95927 0.38066 0.32700
C 	C 	0.69177 0.93550 0.39659 -0.03800
C 	C 	0.72272 0.92820 0.39160 -0.32300
H 	H 	0.73300 0.93940 0.37680 0.18200
N 	N 	0.81350 0.87450 0.39440 0.11100
C 	C 	0.77650 0.86630 0.39980 1.82300
H 	H 	0.77110 0.85450 0.41660 -0.68800
N 	N 	0.80200 0.86380 0.38390 -0.49500
C 	C 	0.71710 0.92290 0.38400 0.16000
H 	H 	0.72590 0.93120 0.36660 -0.06700
H 	H 	0.78310 0.86570 0.42760 0.42600
O 	O 	0.18761 0.53066 0.64409 -0.38000
O 	O 	0.15170 0.53121 0.60851 -0.37900
C 	C 	0.17559 0.54073 0.61934 0.32700
C 	C 	0.19177 0.56450 0.60341 -0.03900
C 	C 	0.22272 0.57180 0.60840 -0.32400
H 	H 	0.23300 0.56060 0.62320 0.18100
N 	N 	0.31350 0.62550 0.60560 0.11100
C 	C 	0.27650 0.63370 0.60020 1.82300
H 	H 	0.27110 0.64550 0.58340 -0.68800
N 	N 	0.30200 0.63620 0.61610 -0.49400
C 	C 	0.21710 0.57710 0.61600 0.16100
H 	H 	0.22590 0.56880 0.63340 -0.06800
H 	H 	0.28310 0.63430 0.57240 0.42600
O 	O 	0.18761 0.03066 0.14409 -0.38000
O 	O 	0.15170 0.03121 0.10851 -0.38000
C 	C 	0.17559 0.04073 0.11934 0.32700
C 	C 	0.19177 0.06450 0.10341 -0.04000
C 	C 	0.22272 0.07180 0.10840 -0.32500
H 	H 	0.23300 0.06060 0.12320 0.18100
N 	N 	0.31350 0.12550 0.10560 0.11100
C 	C 	0.27650 0.13370 0.10020 1.82300
H 	H 	0.27110 0.14550 0.08340 -0.68800
N 	N 	0.30200 0.13620 0.11610 -0.49400
C 	C 	0.21710 0.07710 0.11600 0.16100
H 	H 	0.22590 0.06880 0.13340 -0.06800
H 	H 	0.28310 0.13430 0.07240 0.42500
O 	O 	0.68761 0.53066 0.14409 -0.38000
O 	O 	0.65170 0.53121 0.10851 -0.37900
C 	C 	0.67559 0.54073 0.11934 0.32700
C 	C 	0.69177 0.56450 0.10341 -0.03900
C 	C 	0.72272 0.57180 0.10840 -0.32400
H 	H 	0.73300 0.56060 0.12320 0.18100
N 	N 	0.81350 0.62550 0.10560 0.11100
C 	C 	0.77650 0.63370 0.10020 1.82300
H 	H 	0.77110 0.64550 0.08340 -0.68800
N 	N 	0.80200 0.63620 0.11610 -0.49500
C 	C 	0.71710 0.57710 0.11600 0.16100
H 	H 	0.72590 0.56880 0.13340 -0.06800
H 	H 	0.78310 0.63430 0.07240 0.42500
O 	O 	0.68761 0.03066 0.64409 -0.38000
O 	O 	0.65170 0.03121 0.60851 -0.37900
C 	C 	0.67559 0.04073 0.61934 0.32700
C 	C 	0.69177 0.06450 0.60341 -0.03900
C 	C 	0.72272 0.07180 0.60840 -0.32400
H 	H 	0.73300 0.06060 0.62320 0.18100
N 	N 	0.81350 0.12550 0.60560 0.11100
C 	C 	0.77650 0.13370 0.60020 1.82300
H 	H 	0.77110 0.14550 0.58340 -0.68800
N 	N 	0.80200 0.13620 0.61610 -0.49500
C 	C 	0.71710 0.07710 0.61600 0.16100
H 	H 	0.72590 0.06880 0.63340 -0.06800
H 	H 	0.78310 0.13430 0.57240 0.42600
Cu	Cu	0.66919 0.50000 0.16919 0.93100
Cu	Cu	0.62670 0.50000 0.12670 0.93400
Cu	Cu	0.66919 -0.00000 0.66919 0.93000
Cu	Cu	0.62670 -0.00000 0.62670 0.93200
Cu	Cu	0.33081 0.50000 0.16919 0.93100
Cu	Cu	0.37330 0.50000 0.12670 0.93400
Cu	Cu	0.33081 -0.00000 0.66919 0.93000
Cu	Cu	0.37330 -0.00000 0.62670 0.93200
Cu	Cu	0.33081 0.50000 0.83081 0.93100
Cu	Cu	0.37330 0.50000 0.87330 0.93400
Cu	Cu	0.33081 0.00000 0.33081 0.93000
Cu	Cu	0.37330 -0.00000 0.37330 0.93200
Cu	Cu	0.66919 0.50000 0.83081 0.93100
Cu	Cu	0.62670 0.50000 0.87330 0.93400
Cu	Cu	0.66919 0.00000 0.33081 0.93000
Cu	Cu	0.62670 -0.00000 0.37330 0.93200
Cu	Cu	0.16919 0.66919 0.50000 0.93100
Cu	Cu	0.12670 0.62670 0.50000 0.93400
Cu	Cu	0.16919 0.16919 -0.00000 0.93000
Cu	Cu	0.12670 0.12670 -0.00000 0.93200
Cu	Cu	0.16919 0.33081 0.50000 0.93100
Cu	Cu	0.12670 0.37330 0.50000 0.93400
Cu	Cu	0.16919 0.83081 -0.00000 0.93000
Cu	Cu	0.12670 0.87330 -0.00000 0.93200
Cu	Cu	0.83081 0.33081 0.50000 0.93100
Cu	Cu	0.87330 0.37330 0.50000 0.93400
Cu	Cu	0.83081 0.83081 -0.00000 0.93000
Cu	Cu	0.87330 0.87330 -0.00000 0.93200
Cu	Cu	0.83081 0.66919 0.50000 0.93100
Cu	Cu	0.87330 0.62670 0.50000 0.93400
Cu	Cu	0.83081 0.16919 -0.00000 0.93000
Cu	Cu	0.87330 0.12670 -0.00000 0.93200
Cu	Cu	0.50000 0.16919 0.66919 0.93100
Cu	Cu	0.50000 0.12670 0.62670 0.93400
Cu	Cu	0.00000 0.16919 0.16919 0.93000
Cu	Cu	0.00000 0.12670 0.12670 0.93200
Cu	Cu	0.50000 0.16919 0.33081 0.93100
Cu	Cu	0.50000 0.12670 0.37330 0.93400
Cu	Cu	0.00000 0.16919 0.83081 0.93000
Cu	Cu	0.00000 0.12670 0.87330 0.93200
Cu	Cu	0.50000 0.83081 0.33081 0.93100
Cu	Cu	0.50000 0.87330 0.37330 0.93400
Cu	Cu	0.00000 0.83081 0.83081 0.93000
Cu	Cu	0.00000 0.87330 0.87330 0.93200
Cu	Cu	0.50000 0.83081 0.66919 0.93100
Cu	Cu	0.50000 0.87330 0.62670 0.93400
Cu	Cu	0.00000 0.83081 0.16919 0.93000
Cu	Cu	0.00000 0.87330 0.12670 0.93200
Cu	Cu	0.50000 0.66919 0.83081 0.93100
Cu	Cu	0.50000 0.62670 0.87330 0.93400
Cu	Cu	0.00000 0.66919 0.33081 0.93000
Cu	Cu	0.00000 0.62670 0.37330 0.93200
Cu	Cu	0.50000 0.33081 0.83081 0.93100
Cu	Cu	0.50000 0.37330 0.87330 0.93400
Cu	Cu	0.00000 0.33081 0.33081 0.93000
Cu	Cu	0.00000 0.37330 0.37330 0.93200
Cu	Cu	0.50000 0.33081 0.16919 0.93100
Cu	Cu	0.50000 0.37330 0.12670 0.93400
Cu	Cu	0.00000 0.33081 0.66919 0.93000
Cu	Cu	0.00000 0.37330 0.62670 0.93200
Cu	Cu	0.50000 0.66919 0.16919 0.93100
Cu	Cu	0.50000 0.62670 0.12670 0.93400
Cu	Cu	-0.00000 0.66919 0.66919 0.93000
Cu	Cu	0.00000 0.62670 0.62670 0.93200
Cu	Cu	0.66919 0.16919 0.50000 0.93100
Cu	Cu	0.62670 0.12670 0.50000 0.93400
Cu	Cu	0.66919 0.66919 -0.00000 0.93000
Cu	Cu	0.62670 0.62670 -0.00000 0.93200
Cu	Cu	0.33081 0.16919 0.50000 0.93100
Cu	Cu	0.37330 0.12670 0.50000 0.93400
Cu	Cu	0.33081 0.66919 -0.00000 0.93000
Cu	Cu	0.37330 0.62670 -0.00000 0.93200
Cu	Cu	0.33081 0.83081 0.50000 0.93100
Cu	Cu	0.37330 0.87330 0.50000 0.93400
Cu	Cu	0.33081 0.33081 -0.00000 0.93000
Cu	Cu	0.37330 0.37330 -0.00000 0.93200
Cu	Cu	0.66919 0.83081 0.50000 0.93100
Cu	Cu	0.62670 0.87330 0.50000 0.93400
Cu	Cu	0.66919 0.33081 -0.00000 0.93000
Cu	Cu	0.62670 0.37330 -0.00000 0.93200
Cu	Cu	0.16919 0.50000 0.33081 0.93100
Cu	Cu	0.12670 0.50000 0.37330 0.93400
Cu	Cu	0.16919 -0.00000 0.83081 0.93000
Cu	Cu	0.12670 0.00000 0.87330 0.93200
Cu	Cu	0.16919 0.50000 0.66919 0.93100
Cu	Cu	0.12670 0.50000 0.62670 0.93400
Cu	Cu	0.16919 -0.00000 0.16919 0.93000
Cu	Cu	0.12670 0.00000 0.12670 0.93200
Cu	Cu	0.83081 0.50000 0.66919 0.93100
Cu	Cu	0.87330 0.50000 0.62670 0.93400
Cu	Cu	0.83081 -0.00000 0.16919 0.93000
Cu	Cu	0.87330 0.00000 0.12670 0.93200
Cu	Cu	0.83081 0.50000 0.33081 0.93100
Cu	Cu	0.87330 0.50000 0.37330 0.93400
Cu	Cu	0.83081 -0.00000 0.83081 0.93000
Cu	Cu	0.87330 0.00000 0.87330 0.93200
O 	O 	0.70800 0.50000 0.19950 -0.10100
O 	O 	0.70800 -0.00000 0.69950 -0.10300
O 	O 	0.20800 0.50000 0.69950 -0.10200
O 	O 	0.20800 -0.00000 0.19950 -0.10300
O 	O 	0.29200 0.50000 0.19950 -0.10100
O 	O 	0.29200 -0.00000 0.69950 -0.10200
O 	O 	0.79200 0.50000 0.69950 -0.10100
O 	O 	0.79200 -0.00000 0.19950 -0.10100
O 	O 	0.29200 0.50000 0.80050 -0.10200
O 	O 	0.29200 -0.00000 0.30050 -0.10300
O 	O 	0.79200 0.50000 0.30050 -0.10100
O 	O 	0.79200 0.00000 0.80050 -0.10300
O 	O 	0.70800 0.50000 0.80050 -0.10300
O 	O 	0.70800 -0.00000 0.30050 -0.10300
O 	O 	0.20800 0.50000 0.30050 -0.10300
O 	O 	0.20800 0.00000 0.80050 -0.10400
O 	O 	0.19950 0.70800 0.50000 -0.10100
O 	O 	0.19950 0.20800 -0.00000 -0.10300
O 	O 	0.69950 0.70800 -0.00000 -0.10300
O 	O 	0.69950 0.20800 0.50000 -0.10200
O 	O 	0.19950 0.29200 0.50000 -0.10100
O 	O 	0.19950 0.79200 -0.00000 -0.10100
O 	O 	0.69950 0.29200 -0.00000 -0.10200
O 	O 	0.69950 0.79200 0.50000 -0.10100
O 	O 	0.80050 0.29200 0.50000 -0.10200
O 	O 	0.80050 0.79200 -0.00000 -0.10300
O 	O 	0.30050 0.29200 -0.00000 -0.10300
O 	O 	0.30050 0.79200 0.50000 -0.10100
O 	O 	0.80050 0.70800 0.50000 -0.10300
O 	O 	0.80050 0.20800 -0.00000 -0.10400
O 	O 	0.30050 0.70800 -0.00000 -0.10300
O 	O 	0.30050 0.20800 0.50000 -0.10300
O 	O 	0.50000 0.19950 0.70800 -0.10100
O 	O 	0.50000 0.69950 0.20800 -0.10200
O 	O 	0.00000 0.19950 0.20800 -0.10300
O 	O 	0.00000 0.69950 0.70800 -0.10300
O 	O 	0.50000 0.19950 0.29200 -0.10100
O 	O 	0.50000 0.69950 0.79200 -0.10100
O 	O 	0.00000 0.19950 0.79200 -0.10100
O 	O 	0.00000 0.69950 0.29200 -0.10200
O 	O 	0.50000 0.80050 0.29200 -0.10200
O 	O 	0.50000 0.30050 0.79200 -0.10100
O 	O 	-0.00000 0.80050 0.79200 -0.10300
O 	O 	0.00000 0.30050 0.29200 -0.10300
O 	O 	0.50000 0.80050 0.70800 -0.10300
O 	O 	0.50000 0.30050 0.20800 -0.10300
O 	O 	0.00000 0.80050 0.20800 -0.10400
O 	O 	0.00000 0.30050 0.70800 -0.10300
O 	O 	0.50000 0.70800 0.80050 -0.10300
O 	O 	0.50000 0.20800 0.30050 -0.10300
O 	O 	0.00000 0.70800 0.30050 -0.10300
O 	O 	0.00000 0.20800 0.80050 -0.10400
O 	O 	0.50000 0.29200 0.80050 -0.10200
O 	O 	0.50000 0.79200 0.30050 -0.10100
O 	O 	0.00000 0.29200 0.30050 -0.10300
O 	O 	-0.00000 0.79200 0.80050 -0.10300
O 	O 	0.50000 0.29200 0.19950 -0.10100
O 	O 	0.50000 0.79200 0.69950 -0.10100
O 	O 	0.00000 0.29200 0.69950 -0.10200
O 	O 	0.00000 0.79200 0.19950 -0.10100
O 	O 	0.50000 0.70800 0.19950 -0.10100
O 	O 	0.50000 0.20800 0.69950 -0.10200
O 	O 	0.00000 0.70800 0.69950 -0.10300
O 	O 	0.00000 0.20800 0.19950 -0.10300
O 	O 	0.70800 0.19950 0.50000 -0.10100
O 	O 	0.70800 0.69950 -0.00000 -0.10300
O 	O 	0.20800 0.19950 -0.00000 -0.10300
O 	O 	0.20800 0.69950 0.50000 -0.10200
O 	O 	0.29200 0.19950 0.50000 -0.10100
O 	O 	0.29200 0.69950 -0.00000 -0.10200
O 	O 	0.79200 0.19950 -0.00000 -0.10100
O 	O 	0.79200 0.69950 0.50000 -0.10100
O 	O 	0.29200 0.80050 0.50000 -0.10200
O 	O 	0.29200 0.30050 -0.00000 -0.10300
O 	O 	0.79200 0.80050 -0.00000 -0.10300
O 	O 	0.79200 0.30050 0.50000 -0.10100
O 	O 	0.70800 0.80050 0.50000 -0.10300
O 	O 	0.70800 0.30050 -0.00000 -0.10300
O 	O 	0.20800 0.80050 -0.00000 -0.10400
O 	O 	0.20800 0.30050 0.50000 -0.10300
O 	O 	0.19950 0.50000 0.29200 -0.10100
O 	O 	0.19950 -0.00000 0.79200 -0.10100
O 	O 	0.69950 0.50000 0.79200 -0.10100
O 	O 	0.69950 -0.00000 0.29200 -0.10200
O 	O 	0.19950 0.50000 0.70800 -0.10100
O 	O 	0.19950 -0.00000 0.20800 -0.10300
O 	O 	0.69950 0.50000 0.20800 -0.10200
O 	O 	0.69950 -0.00000 0.70800 -0.10300
O 	O 	0.80050 0.50000 0.70800 -0.10300
O 	O 	0.80050 -0.00000 0.20800 -0.10400
O 	O 	0.30050 0.50000 0.20800 -0.10300
O 	O 	0.30050 -0.00000 0.70800 -0.10300
O 	O 	0.80050 0.50000 0.29200 -0.10200
O 	O 	0.80050 -0.00000 0.79200 -0.10300
O 	O 	0.30050 0.50000 0.79200 -0.10100
O 	O 	0.30050 -0.00000 0.29200 -0.10300
O 	O 	0.59169 0.50782 0.09169 -0.08800
O 	O 	0.59169 0.00782 0.59169 -0.10600
O 	O 	0.40831 0.49218 0.09169 -0.08800
O 	O 	0.40831 0.99218 0.59169 -0.06900
O 	O 	0.90831 0.49218 0.59169 -0.08800
O 	O 	0.40831 0.50782 0.90831 -0.08800
O 	O 	0.40831 0.00782 0.40831 -0.10600
O 	O 	0.90831 0.00782 0.90831 -0.10600
O 	O 	0.59169 0.49218 0.90831 -0.08800
O 	O 	0.59169 0.99218 0.40831 -0.06900
O 	O 	0.09169 0.59169 0.50782 -0.08800
O 	O 	0.09169 0.09169 0.00782 -0.10600
O 	O 	0.59169 0.59169 0.00782 -0.10600
O 	O 	0.09169 0.40831 0.49218 -0.08800
O 	O 	0.09169 0.90831 0.99218 -0.06900
O 	O 	0.59169 0.90831 0.49218 -0.08800
O 	O 	0.90831 0.40831 0.50782 -0.08800
O 	O 	0.90831 0.90831 0.00782 -0.10600
O 	O 	0.90831 0.59169 0.49218 -0.08800
O 	O 	0.90831 0.09169 0.99218 -0.06900
O 	O 	0.50782 0.09169 0.59169 -0.08800
O 	O 	0.00782 0.09169 0.09169 -0.10600
O 	O 	0.00782 0.59169 0.59169 -0.10600
O 	O 	0.49218 0.09169 0.40831 -0.08800
O 	O 	0.49218 0.59169 0.90831 -0.08800
O 	O 	0.99218 0.09169 0.90831 -0.06900
O 	O 	0.50782 0.90831 0.40831 -0.08800
O 	O 	0.00782 0.90831 0.90831 -0.10600
O 	O 	0.49218 0.90831 0.59169 -0.08800
O 	O 	0.99218 0.90831 0.09169 -0.06900
O 	O 	0.50782 0.59169 0.90831 -0.08800
O 	O 	0.00782 0.59169 0.40831 -0.10600
O 	O 	0.49218 0.40831 0.90831 -0.08800
O 	O 	0.99218 0.40831 0.40831 -0.06900
O 	O 	0.99218 0.90831 0.90831 -0.06900
O 	O 	0.50782 0.40831 0.09169 -0.08800
O 	O 	0.50782 0.90831 0.59169 -0.08800
O 	O 	0.00782 0.40831 0.59169 -0.10600
O 	O 	0.49218 0.59169 0.09169 -0.08800
O 	O 	0.99218 0.59169 0.59169 -0.06900
O 	O 	0.59169 0.09169 0.49218 -0.08800
O 	O 	0.59169 0.59169 0.99218 -0.06900
O 	O 	0.40831 0.09169 0.50782 -0.08800
O 	O 	0.40831 0.59169 0.00782 -0.10600
O 	O 	0.90831 0.59169 0.50782 -0.08800
O 	O 	0.40831 0.90831 0.49218 -0.08800
O 	O 	0.40831 0.40831 0.99218 -0.06900
O 	O 	0.90831 0.90831 0.99218 -0.06900
O 	O 	0.59169 0.90831 0.50782 -0.08800
O 	O 	0.59169 0.40831 0.00782 -0.10600
O 	O 	0.09169 0.50782 0.40831 -0.08800
O 	O 	0.09169 0.00782 0.90831 -0.10600
O 	O 	0.59169 0.50782 0.90831 -0.08800
O 	O 	0.09169 0.49218 0.59169 -0.08800
O 	O 	0.09169 0.99218 0.09169 -0.07000
O 	O 	0.59169 0.99218 0.59169 -0.06900
O 	O 	0.90831 0.50782 0.59169 -0.08800
O 	O 	0.90831 0.00782 0.09169 -0.10600
O 	O 	0.90831 0.49218 0.40831 -0.08800
O 	O 	0.90831 0.99218 0.90831 -0.06900
O 	O 	0.40831 0.49218 0.90831 -0.08800
O 	O 	0.40831 0.99218 0.40831 -0.06900
O 	O 	0.59169 0.00782 0.40831 -0.10600
O 	O 	0.59169 0.49218 0.09169 -0.08800
O 	O 	0.40831 0.50782 0.09169 -0.08800
O 	O 	0.40831 0.00782 0.59169 -0.10600
O 	O 	0.90831 0.40831 0.49218 -0.08800
O 	O 	0.90831 0.09169 0.00782 -0.10600
O 	O 	0.09169 0.59169 0.49218 -0.08800
O 	O 	0.09169 0.09169 0.99218 -0.07000
O 	O 	0.09169 0.40831 0.50782 -0.08800
O 	O 	0.09169 0.90831 0.00782 -0.10600
O 	O 	0.49218 0.90831 0.40831 -0.08800
O 	O 	0.00782 0.90831 0.09169 -0.10600
O 	O 	0.49218 0.09169 0.59169 -0.08800
O 	O 	0.99218 0.09169 0.09169 -0.07000
O 	O 	0.50782 0.09169 0.40831 -0.08800
O 	O 	0.00782 0.09169 0.90831 -0.10600
O 	O 	0.49218 0.40831 0.09169 -0.08800
O 	O 	0.99218 0.40831 0.59169 -0.06900
O 	O 	0.50782 0.59169 0.09169 -0.08800
O 	O 	0.99218 0.59169 0.40831 -0.06900
O 	O 	0.50782 0.40831 0.90831 -0.08800
O 	O 	0.00782 0.40831 0.40831 -0.10600
O 	O 	0.40831 0.90831 0.50782 -0.08800
O 	O 	0.40831 0.40831 0.00782 -0.10600
O 	O 	0.59169 0.40831 0.99218 -0.06900
O 	O 	0.59169 0.09169 0.50782 -0.08800
O 	O 	0.40831 0.09169 0.49218 -0.08800
O 	O 	0.40831 0.59169 0.99218 -0.06900
O 	O 	0.90831 0.99218 0.09169 -0.06900
O 	O 	0.90831 0.50782 0.40831 -0.08800
O 	O 	0.09169 0.49218 0.40831 -0.08800
O 	O 	0.09169 0.99218 0.90831 -0.06900
O 	O 	0.09169 0.50782 0.59169 -0.08800
O 	O 	0.09169 0.00782 0.09169 -0.10600
C 	C 	0.57905 0.57905 0.17714 -0.02800
H 	H 	0.57260 0.57260 0.15800 0.08600
C 	C 	0.59370 0.59370 0.23900 -0.76800
C 	C 	0.60250 0.60250 0.27090 0.60300
C 	C 	0.60250 0.60250 0.22920 1.00600
C 	C 	0.61200 0.61200 0.26040 -0.84400
C 	C 	0.57905 0.07905 0.67714 -0.02800
H 	H 	0.57260 0.07260 0.65800 0.08600
C 	C 	0.59370 0.09370 0.73900 -0.77000
C 	C 	0.60250 0.10250 0.77090 0.60300
C 	C 	0.60250 0.10250 0.72920 1.00800
C 	C 	0.61200 0.11200 0.76040 -0.84400
C 	C 	0.07905 0.57905 0.67714 -0.02800
H 	H 	0.07260 0.57260 0.65800 0.08600
C 	C 	0.09370 0.59370 0.73900 -0.77000
C 	C 	0.10250 0.60250 0.77090 0.60300
C 	C 	0.10250 0.60250 0.72920 1.00800
C 	C 	0.11200 0.61200 0.76040 -0.84400
C 	C 	0.07905 0.07905 0.17714 -0.02800
H 	H 	0.07260 0.07260 0.15800 0.08600
C 	C 	0.09370 0.09370 0.23900 -0.77200
C 	C 	0.10250 0.10250 0.27090 0.60300
C 	C 	0.10250 0.10250 0.22920 1.01000
C 	C 	0.11200 0.11200 0.26040 -0.84400
C 	C 	0.42095 0.42095 0.17714 -0.02800
H 	H 	0.42740 0.42740 0.15800 0.08600
C 	C 	0.40630 0.40630 0.23900 -0.76800
C 	C 	0.39750 0.39750 0.27090 0.60300
C 	C 	0.39750 0.39750 0.22920 1.00600
C 	C 	0.38800 0.38800 0.26040 -0.84400
C 	C 	0.42095 0.92095 0.67714 -0.02800
H 	H 	0.42740 0.92740 0.65800 0.08600
C 	C 	0.40630 0.90630 0.73900 -0.76600
C 	C 	0.39750 0.89750 0.77090 0.60300
C 	C 	0.39750 0.89750 0.72920 1.00400
C 	C 	0.38800 0.88800 0.76040 -0.84400
C 	C 	0.92095 0.42095 0.67714 -0.02800
H 	H 	0.92740 0.42740 0.65800 0.08600
C 	C 	0.90630 0.40630 0.73900 -0.76600
C 	C 	0.89750 0.39750 0.77090 0.60300
C 	C 	0.89750 0.39750 0.72920 1.00500
C 	C 	0.88800 0.38800 0.76040 -0.84400
C 	C 	0.92095 0.92095 0.17714 -0.02800
H 	H 	0.92740 0.92740 0.15800 0.08600
C 	C 	0.90630 0.90630 0.23900 -0.76400
C 	C 	0.89750 0.89750 0.27090 0.60300
C 	C 	0.89750 0.89750 0.22920 1.00300
C 	C 	0.88800 0.88800 0.26040 -0.84400
C 	C 	0.42095 0.57905 0.82286 -0.02800
H 	H 	0.42740 0.57260 0.84200 0.08600
C 	C 	0.40630 0.59370 0.76100 -0.76800
C 	C 	0.39750 0.60250 0.72910 0.60300
C 	C 	0.39750 0.60250 0.77080 1.00600
C 	C 	0.38800 0.61200 0.73960 -0.84400
C 	C 	0.42095 0.07905 0.32286 -0.02800
H 	H 	0.42740 0.07260 0.34200 0.08600
C 	C 	0.40630 0.09370 0.26100 -0.77000
C 	C 	0.39750 0.10250 0.22910 0.60300
C 	C 	0.39750 0.10250 0.27080 1.00800
C 	C 	0.38800 0.11200 0.23960 -0.84400
C 	C 	0.92095 0.57905 0.32286 -0.02800
H 	H 	0.92740 0.57260 0.34200 0.08600
C 	C 	0.90630 0.59370 0.26100 -0.76600
C 	C 	0.89750 0.60250 0.22910 0.60300
C 	C 	0.89750 0.60250 0.27080 1.00500
C 	C 	0.88800 0.61200 0.23960 -0.84400
C 	C 	0.92095 0.07905 0.82286 -0.02800
H 	H 	0.92740 0.07260 0.84200 0.08600
C 	C 	0.90630 0.09370 0.76100 -0.76800
C 	C 	0.89750 0.10250 0.72910 0.60300
C 	C 	0.89750 0.10250 0.77080 1.00700
C 	C 	0.88800 0.11200 0.73960 -0.84400
C 	C 	0.57905 0.42095 0.82286 -0.02800
H 	H 	0.57260 0.42740 0.84200 0.08600
C 	C 	0.59370 0.40630 0.76100 -0.76800
C 	C 	0.60250 0.39750 0.72910 0.60300
C 	C 	0.60250 0.39750 0.77080 1.00600
C 	C 	0.61200 0.38800 0.73960 -0.84400
C 	C 	0.57905 0.92095 0.32286 -0.02800
H 	H 	0.57260 0.92740 0.34200 0.08600
C 	C 	0.59370 0.90630 0.26100 -0.76600
C 	C 	0.60250 0.89750 0.22910 0.60300
C 	C 	0.60250 0.89750 0.27080 1.00400
C 	C 	0.61200 0.88800 0.23960 -0.84400
C 	C 	0.07905 0.42095 0.32286 -0.02800
H 	H 	0.07260 0.42740 0.34200 0.08600
C 	C 	0.09370 0.40630 0.26100 -0.77000
C 	C 	0.10250 0.39750 0.22910 0.60300
C 	C 	0.10250 0.39750 0.27080 1.00800
C 	C 	0.11200 0.38800 0.23960 -0.84300
C 	C 	0.07905 0.92095 0.82286 -0.02800
H 	H 	0.07260 0.92740 0.84200 0.08600
C 	C 	0.09370 0.90630 0.76100 -0.76800
C 	C 	0.10250 0.89750 0.72910 0.60300
C 	C 	0.10250 0.89750 0.77080 1.00600
C 	C 	0.11200 0.88800 0.73960 -0.84400
C 	C 	0.17714 0.57905 0.57905 -0.02800
H 	H 	0.15800 0.57260 0.57260 0.08600
C 	C 	0.23900 0.59370 0.59370 -0.76800
C 	C 	0.27090 0.60250 0.60250 0.60300
C 	C 	0.22920 0.60250 0.60250 1.00600
C 	C 	0.26040 0.61200 0.61200 -0.84400
C 	C 	0.17714 0.07905 0.07905 -0.02800
H 	H 	0.15800 0.07260 0.07260 0.08600
C 	C 	0.23900 0.09370 0.09370 -0.77200
C 	C 	0.27090 0.10250 0.10250 0.60300
C 	C 	0.22920 0.10250 0.10250 1.01000
C 	C 	0.26040 0.11200 0.11200 -0.84400
C 	C 	0.67714 0.57905 0.07905 -0.02800
H 	H 	0.65800 0.57260 0.07260 0.08600
C 	C 	0.73900 0.59370 0.09370 -0.77000
C 	C 	0.77090 0.60250 0.10250 0.60300
C 	C 	0.72920 0.60250 0.10250 1.00800
C 	C 	0.76040 0.61200 0.11200 -0.84400
C 	C 	0.67714 0.07905 0.57905 -0.02800
H 	H 	0.65800 0.07260 0.57260 0.08600
C 	C 	0.73900 0.09370 0.59370 -0.77000
C 	C 	0.77090 0.10250 0.60250 0.60300
C 	C 	0.72920 0.10250 0.60250 1.00800
C 	C 	0.76040 0.11200 0.61200 -0.84400
C 	C 	0.17714 0.42095 0.42095 -0.02800
H 	H 	0.15800 0.42740 0.42740 0.08600
C 	C 	0.23900 0.40630 0.40630 -0.76800
C 	C 	0.27090 0.39750 0.39750 0.60300
C 	C 	0.22920 0.39750 0.39750 1.00600
C 	C 	0.26040 0.38800 0.38800 -0.84400
C 	C 	0.17714 0.92095 0.92095 -0.02800
H 	H 	0.15800 0.92740 0.92740 0.08600
C 	C 	0.23900 0.90630 0.90630 -0.76400
C 	C 	0.27090 0.89750 0.89750 0.60300
C 	C 	0.22920 0.89750 0.89750 1.00300
C 	C 	0.26040 0.88800 0.88800 -0.84400
C 	C 	0.67714 0.42095 0.92095 -0.02800
H 	H 	0.65800 0.42740 0.92740 0.08600
C 	C 	0.73900 0.40630 0.90630 -0.76600
C 	C 	0.77090 0.39750 0.89750 0.60300
C 	C 	0.72920 0.39750 0.89750 1.00400
C 	C 	0.76040 0.38800 0.88800 -0.84400
C 	C 	0.67714 0.92095 0.42095 -0.02800
H 	H 	0.65800 0.92740 0.42740 0.08600
C 	C 	0.73900 0.90630 0.40630 -0.76600
C 	C 	0.77090 0.89750 0.39750 0.60300
C 	C 	0.72920 0.89750 0.39750 1.00500
C 	C 	0.76040 0.88800 0.38800 -0.84400
C 	C 	0.82286 0.42095 0.57905 -0.02800
H 	H 	0.84200 0.42740 0.57260 0.08600
C 	C 	0.76100 0.40630 0.59370 -0.76800
C 	C 	0.72910 0.39750 0.60250 0.60300
C 	C 	0.77080 0.39750 0.60250 1.00600
C 	C 	0.73960 0.38800 0.61200 -0.84400
C 	C 	0.82286 0.92095 0.07905 -0.02800
H 	H 	0.84200 0.92740 0.07260 0.08600
C 	C 	0.76100 0.90630 0.09370 -0.76800
C 	C 	0.72910 0.89750 0.10250 0.60300
C 	C 	0.77080 0.89750 0.10250 1.00700
C 	C 	0.73960 0.88800 0.11200 -0.84400
C 	C 	0.32286 0.42095 0.07905 -0.02800
H 	H 	0.34200 0.42740 0.07260 0.08600
C 	C 	0.26100 0.40630 0.09370 -0.77000
C 	C 	0.22910 0.39750 0.10250 0.60300
C 	C 	0.27080 0.39750 0.10250 1.00800
C 	C 	0.23960 0.38800 0.11200 -0.84400
C 	C 	0.32286 0.92095 0.57905 -0.02800
H 	H 	0.34200 0.92740 0.57260 0.08600
C 	C 	0.26100 0.90630 0.59370 -0.76600
C 	C 	0.22910 0.89750 0.60250 0.60300
C 	C 	0.27080 0.89750 0.60250 1.00500
C 	C 	0.23960 0.88800 0.61200 -0.84400
C 	C 	0.82286 0.57905 0.42095 -0.02800
H 	H 	0.84200 0.57260 0.42740 0.08600
C 	C 	0.76100 0.59370 0.40630 -0.76800
C 	C 	0.72910 0.60250 0.39750 0.60300
C 	C 	0.77080 0.60250 0.39750 1.00600
C 	C 	0.73960 0.61200 0.38800 -0.84400
C 	C 	0.82286 0.07905 0.92095 -0.02800
H 	H 	0.84200 0.07260 0.92740 0.08600
C 	C 	0.76100 0.09370 0.90630 -0.76800
C 	C 	0.72910 0.10250 0.89750 0.60300
C 	C 	0.77080 0.10250 0.89750 1.00600
C 	C 	0.73960 0.11200 0.88800 -0.84400
C 	C 	0.32286 0.57905 0.92095 -0.02800
H 	H 	0.34200 0.57260 0.92740 0.08600
C 	C 	0.26100 0.59370 0.90630 -0.76600
C 	C 	0.22910 0.60250 0.89750 0.60300
C 	C 	0.27080 0.60250 0.89750 1.00400
C 	C 	0.23960 0.61200 0.88800 -0.84400
C 	C 	0.32286 0.07905 0.42095 -0.02800
H 	H 	0.34200 0.07260 0.42740 0.08600
C 	C 	0.26100 0.09370 0.40630 -0.77000
C 	C 	0.22910 0.10250 0.39750 0.60300
C 	C 	0.27080 0.10250 0.39750 1.00800
C 	C 	0.23960 0.11200 0.38800 -0.84300
C 	C 	0.57905 0.17714 0.57905 -0.02800
H 	H 	0.57260 0.15800 0.57260 0.08600
C 	C 	0.59370 0.23900 0.59370 -0.76800
C 	C 	0.60250 0.27090 0.60250 0.60300
C 	C 	0.60250 0.22920 0.60250 1.00600
C 	C 	0.61200 0.26040 0.61200 -0.84400
C 	C 	0.57905 0.67714 0.07905 -0.02800
H 	H 	0.57260 0.65800 0.07260 0.08600
C 	C 	0.59370 0.73900 0.09370 -0.77000
C 	C 	0.60250 0.77090 0.10250 0.60300
C 	C 	0.60250 0.72920 0.10250 1.00800
C 	C 	0.61200 0.76040 0.11200 -0.84400
C 	C 	0.07905 0.17714 0.07905 -0.02800
H 	H 	0.07260 0.15800 0.07260 0.08600
C 	C 	0.09370 0.23900 0.09370 -0.77200
C 	C 	0.10250 0.27090 0.10250 0.60300
C 	C 	0.10250 0.22920 0.10250 1.01000
C 	C 	0.11200 0.26040 0.11200 -0.84400
C 	C 	0.07905 0.67714 0.57905 -0.02800
H 	H 	0.07260 0.65800 0.57260 0.08600
C 	C 	0.09370 0.73900 0.59370 -0.77000
C 	C 	0.10250 0.77090 0.60250 0.60300
C 	C 	0.10250 0.72920 0.60250 1.00800
C 	C 	0.11200 0.76040 0.61200 -0.84400
C 	C 	0.42095 0.17714 0.42095 -0.02800
H 	H 	0.42740 0.15800 0.42740 0.08600
C 	C 	0.40630 0.23900 0.40630 -0.76800
C 	C 	0.39750 0.27090 0.39750 0.60300
C 	C 	0.39750 0.22920 0.39750 1.00600
C 	C 	0.38800 0.26040 0.38800 -0.84400
C 	C 	0.42095 0.67714 0.92095 -0.02800
H 	H 	0.42740 0.65800 0.92740 0.08600
C 	C 	0.40630 0.73900 0.90630 -0.76600
C 	C 	0.39750 0.77090 0.89750 0.60300
C 	C 	0.39750 0.72920 0.89750 1.00500
C 	C 	0.38800 0.76040 0.88800 -0.84400
C 	C 	0.92095 0.17714 0.92095 -0.02800
H 	H 	0.92740 0.15800 0.92740 0.08600
C 	C 	0.90630 0.23900 0.90630 -0.76400
C 	C 	0.89750 0.27090 0.89750 0.60300
C 	C 	0.89750 0.22920 0.89750 1.00300
C 	C 	0.88800 0.26040 0.88800 -0.84400
C 	C 	0.92095 0.67714 0.42095 -0.02800
H 	H 	0.92740 0.65800 0.42740 0.08600
C 	C 	0.90630 0.73900 0.40630 -0.76600
C 	C 	0.89750 0.77090 0.39750 0.60300
C 	C 	0.89750 0.72920 0.39750 1.00400
C 	C 	0.88800 0.76040 0.38800 -0.84400
C 	C 	0.57905 0.82286 0.42095 -0.02800
H 	H 	0.57260 0.84200 0.42740 0.08600
C 	C 	0.59370 0.76100 0.40630 -0.76800
C 	C 	0.60250 0.72910 0.39750 0.60300
C 	C 	0.60250 0.77080 0.39750 1.00600
C 	C 	0.61200 0.73960 0.38800 -0.84400
C 	C 	0.57905 0.32286 0.92095 -0.02800
H 	H 	0.57260 0.34200 0.92740 0.08600
C 	C 	0.59370 0.26100 0.90630 -0.76600
C 	C 	0.60250 0.22910 0.89750 0.60300
C 	C 	0.60250 0.27080 0.89750 1.00500
C 	C 	0.61200 0.23960 0.88800 -0.84400
C 	C 	0.07905 0.82286 0.92095 -0.02800
H 	H 	0.07260 0.84200 0.92740 0.08600
C 	C 	0.09370 0.76100 0.90630 -0.76800
C 	C 	0.10250 0.72910 0.89750 0.60300
C 	C 	0.10250 0.77080 0.89750 1.00700
C 	C 	0.11200 0.73960 0.88800 -0.84400
C 	C 	0.07905 0.32286 0.42095 -0.02800
H 	H 	0.07260 0.34200 0.42740 0.08600
C 	C 	0.09370 0.26100 0.40630 -0.77000
C 	C 	0.10250 0.22910 0.39750 0.60300
C 	C 	0.10250 0.27080 0.39750 1.00800
C 	C 	0.11200 0.23960 0.38800 -0.84400
C 	C 	0.42095 0.82286 0.57905 -0.02800
H 	H 	0.42740 0.84200 0.57260 0.08600
C 	C 	0.40630 0.76100 0.59370 -0.76800
C 	C 	0.39750 0.72910 0.60250 0.60300
C 	C 	0.39750 0.77080 0.60250 1.00600
C 	C 	0.38800 0.73960 0.61200 -0.84400
C 	C 	0.42095 0.32286 0.07905 -0.02800
H 	H 	0.42740 0.34200 0.07260 0.08600
C 	C 	0.40630 0.26100 0.09370 -0.77000
C 	C 	0.39750 0.22910 0.10250 0.60300
C 	C 	0.39750 0.27080 0.10250 1.00800
C 	C 	0.38800 0.23960 0.11200 -0.84300
C 	C 	0.92095 0.82286 0.07905 -0.02800
H 	H 	0.92740 0.84200 0.07260 0.08600
C 	C 	0.90630 0.76100 0.09370 -0.76800
C 	C 	0.89750 0.72910 0.10250 0.60300
C 	C 	0.89750 0.77080 0.10250 1.00600
C 	C 	0.88800 0.73960 0.11200 -0.84400
C 	C 	0.92095 0.32286 0.57905 -0.02800
H 	H 	0.92740 0.34200 0.57260 0.08600
C 	C 	0.90630 0.26100 0.59370 -0.76600
C 	C 	0.89750 0.22910 0.60250 0.60300
C 	C 	0.89750 0.27080 0.60250 1.00400
C 	C 	0.88800 0.23960 0.61200 -0.84400
C 	C 	0.57905 0.57905 0.82286 -0.02800
H 	H 	0.57260 0.57260 0.84200 0.08600
C 	C 	0.59370 0.59370 0.76100 -0.76800
C 	C 	0.60250 0.60250 0.72910 0.60300
C 	C 	0.60250 0.60250 0.77080 1.00600
C 	C 	0.61200 0.61200 0.73960 -0.84400
C 	C 	0.57905 0.07905 0.32286 -0.02800
H 	H 	0.57260 0.07260 0.34200 0.08600
C 	C 	0.59370 0.09370 0.26100 -0.77000
C 	C 	0.60250 0.10250 0.22910 0.60300
C 	C 	0.60250 0.10250 0.27080 1.00800
C 	C 	0.61200 0.11200 0.23960 -0.84300
C 	C 	0.07905 0.57905 0.32286 -0.02800
H 	H 	0.07260 0.57260 0.34200 0.08600
C 	C 	0.09370 0.59370 0.26100 -0.77000
C 	C 	0.10250 0.60250 0.22910 0.60300
C 	C 	0.10250 0.60250 0.27080 1.00800
C 	C 	0.11200 0.61200 0.23960 -0.84400
C 	C 	0.07905 0.07905 0.82286 -0.02800
H 	H 	0.07260 0.07260 0.84200 0.08600
C 	C 	0.09370 0.09370 0.76100 -0.77300
C 	C 	0.10250 0.10250 0.72910 0.60300
C 	C 	0.10250 0.10250 0.77080 1.01000
C 	C 	0.11200 0.11200 0.73960 -0.84400
C 	C 	0.42095 0.42095 0.82286 -0.02800
H 	H 	0.42740 0.42740 0.84200 0.08600
C 	C 	0.40630 0.40630 0.76100 -0.76800
C 	C 	0.39750 0.39750 0.72910 0.60300
C 	C 	0.39750 0.39750 0.77080 1.00600
C 	C 	0.38800 0.38800 0.73960 -0.84400
C 	C 	0.42095 0.92095 0.32286 -0.02800
H 	H 	0.42740 0.92740 0.34200 0.08600
C 	C 	0.40630 0.90630 0.26100 -0.76600
C 	C 	0.39750 0.89750 0.22910 0.60300
C 	C 	0.39750 0.89750 0.27080 1.00500
C 	C 	0.38800 0.88800 0.23960 -0.84400
C 	C 	0.92095 0.42095 0.32286 -0.02800
H 	H 	0.92740 0.42740 0.34200 0.08600
C 	C 	0.90630 0.40630 0.26100 -0.76600
C 	C 	0.89750 0.39750 0.22910 0.60300
C 	C 	0.89750 0.39750 0.27080 1.00400
C 	C 	0.88800 0.38800 0.23960 -0.84400
C 	C 	0.92095 0.92095 0.82286 -0.02800
H 	H 	0.92740 0.92740 0.84200 0.08600
C 	C 	0.90630 0.90630 0.76100 -0.76400
C 	C 	0.89750 0.89750 0.72910 0.60300
C 	C 	0.89750 0.89750 0.77080 1.00300
C 	C 	0.88800 0.88800 0.73960 -0.84400
C 	C 	0.57905 0.42095 0.17714 -0.02800
H 	H 	0.57260 0.42740 0.15800 0.08600
C 	C 	0.59370 0.40630 0.23900 -0.76800
C 	C 	0.60250 0.39750 0.27090 0.60300
C 	C 	0.60250 0.39750 0.22920 1.00600
C 	C 	0.61200 0.38800 0.26040 -0.84400
C 	C 	0.57905 0.92095 0.67714 -0.02800
H 	H 	0.57260 0.92740 0.65800 0.08600
C 	C 	0.59370 0.90630 0.73900 -0.76600
C 	C 	0.60250 0.89750 0.77090 0.60300
C 	C 	0.60250 0.89750 0.72920 1.00500
C 	C 	0.61200 0.88800 0.76040 -0.84400
C 	C 	0.07905 0.42095 0.67714 -0.02800
H 	H 	0.07260 0.42740 0.65800 0.08600
C 	C 	0.09370 0.40630 0.73900 -0.77000
C 	C 	0.10250 0.39750 0.77090 0.60300
C 	C 	0.10250 0.39750 0.72920 1.00900
C 	C 	0.11200 0.38800 0.76040 -0.84400
C 	C 	0.07905 0.92095 0.17714 -0.02800
H 	H 	0.07260 0.92740 0.15800 0.08600
C 	C 	0.09370 0.90630 0.23900 -0.76800
C 	C 	0.10250 0.89750 0.27090 0.60300
C 	C 	0.10250 0.89750 0.22920 1.00700
C 	C 	0.11200 0.88800 0.26040 -0.84400
C 	C 	0.42095 0.57905 0.17714 -0.02800
H 	H 	0.42740 0.57260 0.15800 0.08600
C 	C 	0.40630 0.59370 0.23900 -0.76800
C 	C 	0.39750 0.60250 0.27090 0.60300
C 	C 	0.39750 0.60250 0.22920 1.00600
C 	C 	0.38800 0.61200 0.26040 -0.84400
C 	C 	0.42095 0.07905 0.67714 -0.02800
H 	H 	0.42740 0.07260 0.65800 0.08600
C 	C 	0.40630 0.09370 0.73900 -0.77000
C 	C 	0.39750 0.10250 0.77090 0.60300
C 	C 	0.39750 0.10250 0.72920 1.00800
C 	C 	0.38800 0.11200 0.76040 -0.84400
C 	C 	0.92095 0.57905 0.67714 -0.02800
H 	H 	0.92740 0.57260 0.65800 0.08600
C 	C 	0.90630 0.59370 0.73900 -0.76600
C 	C 	0.89750 0.60250 0.77090 0.60300
C 	C 	0.89750 0.60250 0.72920 1.00400
C 	C 	0.88800 0.61200 0.76040 -0.84400
C 	C 	0.92095 0.07905 0.17714 -0.02800
H 	H 	0.92740 0.07260 0.15800 0.08600
C 	C 	0.90630 0.09370 0.23900 -0.76800
C 	C 	0.89750 0.10250 0.27090 0.60300
C 	C 	0.89750 0.10250 0.22920 1.00600
C 	C 	0.88800 0.11200 0.26040 -0.84400
C 	C 	0.57905 0.17714 0.42095 -0.02800
H 	H 	0.57260 0.15800 0.42740 0.08600
C 	C 	0.59370 0.23900 0.40630 -0.76800
C 	C 	0.60250 0.27090 0.39750 0.60300
C 	C 	0.60250 0.22920 0.39750 1.00600
C 	C 	0.61200 0.26040 0.38800 -0.84400
C 	C 	0.57905 0.67714 0.92095 -0.02800
H 	H 	0.57260 0.65800 0.92740 0.08600
C 	C 	0.59370 0.73900 0.90630 -0.76600
C 	C 	0.60250 0.77090 0.89750 0.60300
C 	C 	0.60250 0.72920 0.89750 1.00400
C 	C 	0.61200 0.76040 0.88800 -0.84400
C 	C 	0.07905 0.17714 0.92095 -0.02800
H 	H 	0.07260 0.15800 0.92740 0.08600
C 	C 	0.09370 0.23900 0.90630 -0.76800
C 	C 	0.10250 0.27090 0.89750 0.60300
C 	C 	0.10250 0.22920 0.89750 1.00600
C 	C 	0.11200 0.26040 0.88800 -0.84400
C 	C 	0.07905 0.67714 0.42095 -0.02800
H 	H 	0.07260 0.65800 0.42740 0.08600
C 	C 	0.09370 0.73900 0.40630 -0.77000
C 	C 	0.10250 0.77090 0.39750 0.60300
C 	C 	0.10250 0.72920 0.39750 1.00800
C 	C 	0.11200 0.76040 0.38800 -0.84400
C 	C 	0.42095 0.17714 0.57905 -0.02800
H 	H 	0.42740 0.15800 0.57260 0.08600
C 	C 	0.40630 0.23900 0.59370 -0.76800
C 	C 	0.39750 0.27090 0.60250 0.60300
C 	C 	0.39750 0.22920 0.60250 1.00600
C 	C 	0.38800 0.26040 0.61200 -0.84400
C 	C 	0.42095 0.67714 0.07905 -0.02800
H 	H 	0.42740 0.65800 0.07260 0.08600
C 	C 	0.40630 0.73900 0.09370 -0.77000
C 	C 	0.39750 0.77090 0.10250 0.60300
C 	C 	0.39750 0.72920 0.10250 1.00900
C 	C 	0.38800 0.76040 0.11200 -0.84400
C 	C 	0.92095 0.17714 0.07905 -0.02800
H 	H 	0.92740 0.15800 0.07260 0.08600
C 	C 	0.90630 0.23900 0.09370 -0.76800
C 	C 	0.89750 0.27090 0.10250 0.60300
C 	C 	0.89750 0.22920 0.10250 1.00700
C 	C 	0.88800 0.26040 0.11200 -0.84400
C 	C 	0.92095 0.67714 0.57905 -0.02800
H 	H 	0.92740 0.65800 0.57260 0.08600
C 	C 	0.90630 0.73900 0.59370 -0.76600
C 	C 	0.89750 0.77090 0.60250 0.60300
C 	C 	0.89750 0.72920 0.60250 1.00500
C 	C 	0.88800 0.76040 0.61200 -0.84400
C 	C 	0.42095 0.82286 0.42095 -0.02800
H 	H 	0.42740 0.84200 0.42740 0.08600
C 	C 	0.40630 0.76100 0.40630 -0.76800
C 	C 	0.39750 0.72910 0.39750 0.60300
C 	C 	0.39750 0.77080 0.39750 1.00600
C 	C 	0.38800 0.73960 0.38800 -0.84400
C 	C 	0.42095 0.32286 0.92095 -0.02800
H 	H 	0.42740 0.34200 0.92740 0.08600
C 	C 	0.40630 0.26100 0.90630 -0.76600
C 	C 	0.39750 0.22910 0.89750 0.60300
C 	C 	0.39750 0.27080 0.89750 1.00400
C 	C 	0.38800 0.23960 0.88800 -0.84400
C 	C 	0.92095 0.82286 0.92095 -0.02800
H 	H 	0.92740 0.84200 0.92740 0.08600
C 	C 	0.90630 0.76100 0.90630 -0.76400
C 	C 	0.89750 0.72910 0.89750 0.60300
C 	C 	0.89750 0.77080 0.89750 1.00300
C 	C 	0.88800 0.73960 0.88800 -0.84400
C 	C 	0.92095 0.32286 0.42095 -0.02800
H 	H 	0.92740 0.34200 0.42740 0.08600
C 	C 	0.90630 0.26100 0.40630 -0.76600
C 	C 	0.89750 0.22910 0.39750 0.60300
C 	C 	0.89750 0.27080 0.39750 1.00500
C 	C 	0.88800 0.23960 0.38800 -0.84400
C 	C 	0.57905 0.82286 0.57905 -0.02800
H 	H 	0.57260 0.84200 0.57260 0.08600
C 	C 	0.59370 0.76100 0.59370 -0.76800
C 	C 	0.60250 0.72910 0.60250 0.60300
C 	C 	0.60250 0.77080 0.60250 1.00600
C 	C 	0.61200 0.73960 0.61200 -0.84400
C 	C 	0.57905 0.32286 0.07905 -0.02800
H 	H 	0.57260 0.34200 0.07260 0.08600
C 	C 	0.59370 0.26100 0.09370 -0.77000
C 	C 	0.60250 0.22910 0.10250 0.60300
C 	C 	0.60250 0.27080 0.10250 1.00800
C 	C 	0.61200 0.23960 0.11200 -0.84400
C 	C 	0.07905 0.82286 0.07905 -0.02800
H 	H 	0.07260 0.84200 0.07260 0.08600
C 	C 	0.09370 0.76100 0.09370 -0.77300
C 	C 	0.10250 0.72910 0.10250 0.60300
C 	C 	0.10250 0.77080 0.10250 1.01000
C 	C 	0.11200 0.73960 0.11200 -0.84400
C 	C 	0.07905 0.32286 0.57905 -0.02800
H 	H 	0.07260 0.34200 0.57260 0.08600
C 	C 	0.09370 0.26100 0.59370 -0.77000
C 	C 	0.10250 0.22910 0.60250 0.60300
C 	C 	0.10250 0.27080 0.60250 1.00800
C 	C 	0.11200 0.23960 0.61200 -0.84300
C 	C 	0.17714 0.57905 0.42095 -0.02800
H 	H 	0.15800 0.57260 0.42740 0.08600
C 	C 	0.23900 0.59370 0.40630 -0.76800
C 	C 	0.27090 0.60250 0.39750 0.60300
C 	C 	0.22920 0.60250 0.39750 1.00600
C 	C 	0.26040 0.61200 0.38800 -0.84400
C 	C 	0.17714 0.07905 0.92095 -0.02800
H 	H 	0.15800 0.07260 0.92740 0.08600
C 	C 	0.23900 0.09370 0.90630 -0.76800
C 	C 	0.27090 0.10250 0.89750 0.60300
C 	C 	0.22920 0.10250 0.89750 1.00700
C 	C 	0.26040 0.11200 0.88800 -0.84400
C 	C 	0.67714 0.57905 0.92095 -0.02800
H 	H 	0.65800 0.57260 0.92740 0.08600
C 	C 	0.73900 0.59370 0.90630 -0.76600
C 	C 	0.77090 0.60250 0.89750 0.60300
C 	C 	0.72920 0.60250 0.89750 1.00500
C 	C 	0.76040 0.61200 0.88800 -0.84400
C 	C 	0.67714 0.07905 0.42095 -0.02800
H 	H 	0.65800 0.07260 0.42740 0.08600
C 	C 	0.73900 0.09370 0.40630 -0.77000
C 	C 	0.77090 0.10250 0.39750 0.60300
C 	C 	0.72920 0.10250 0.39750 1.00900
C 	C 	0.76040 0.11200 0.38800 -0.84400
C 	C 	0.17714 0.42095 0.57905 -0.02800
H 	H 	0.15800 0.42740 0.57260 0.08600
C 	C 	0.23900 0.40630 0.59370 -0.76800
C 	C 	0.27090 0.39750 0.60250 0.60300
C 	C 	0.22920 0.39750 0.60250 1.00600
C 	C 	0.26040 0.38800 0.61200 -0.84400
C 	C 	0.17714 0.92095 0.07905 -0.02800
H 	H 	0.15800 0.92740 0.07260 0.08600
C 	C 	0.23900 0.90630 0.09370 -0.76800
C 	C 	0.27090 0.89750 0.10250 0.60300
C 	C 	0.22920 0.89750 0.10250 1.00600
C 	C 	0.26040 0.88800 0.11200 -0.84400
C 	C 	0.67714 0.42095 0.07905 -0.02800
H 	H 	0.65800 0.42740 0.07260 0.08600
C 	C 	0.73900 0.40630 0.09370 -0.77000
C 	C 	0.77090 0.39750 0.10250 0.60300
C 	C 	0.72920 0.39750 0.10250 1.00800
C 	C 	0.76040 0.38800 0.11200 -0.84400
C 	C 	0.67714 0.92095 0.57905 -0.02800
H 	H 	0.65800 0.92740 0.57260 0.08600
C 	C 	0.73900 0.90630 0.59370 -0.76600
C 	C 	0.77090 0.89750 0.60250 0.60300
C 	C 	0.72920 0.89750 0.60250 1.00400
C 	C 	0.76040 0.88800 0.61200 -0.84400
C 	C 	0.82286 0.57905 0.57905 -0.02800
H 	H 	0.84200 0.57260 0.57260 0.08600
C 	C 	0.76100 0.59370 0.59370 -0.76800
C 	C 	0.72910 0.60250 0.60250 0.60300
C 	C 	0.77080 0.60250 0.60250 1.00600
C 	C 	0.73960 0.61200 0.61200 -0.84400
C 	C 	0.82286 0.07905 0.07905 -0.02800
H 	H 	0.84200 0.07260 0.07260 0.08600
C 	C 	0.76100 0.09370 0.09370 -0.77300
C 	C 	0.72910 0.10250 0.10250 0.60300
C 	C 	0.77080 0.10250 0.10250 1.01000
C 	C 	0.73960 0.11200 0.11200 -0.84400
C 	C 	0.32286 0.57905 0.07905 -0.02800
H 	H 	0.34200 0.57260 0.07260 0.08600
C 	C 	0.26100 0.59370 0.09370 -0.77000
C 	C 	0.22910 0.60250 0.10250 0.60300
C 	C 	0.27080 0.60250 0.10250 1.00800
C 	C 	0.23960 0.61200 0.11200 -0.84300
C 	C 	0.32286 0.07905 0.57905 -0.02800
H 	H 	0.34200 0.07260 0.57260 0.08600
C 	C 	0.26100 0.09370 0.59370 -0.77000
C 	C 	0.22910 0.10250 0.60250 0.60300
C 	C 	0.27080 0.10250 0.60250 1.00800
C 	C 	0.23960 0.11200 0.61200 -0.84400
C 	C 	0.82286 0.42095 0.42095 -0.02800
H 	H 	0.84200 0.42740 0.42740 0.08600
C 	C 	0.76100 0.40630 0.40630 -0.76800
C 	C 	0.72910 0.39750 0.39750 0.60300
C 	C 	0.77080 0.39750 0.39750 1.00600
C 	C 	0.73960 0.38800 0.38800 -0.84400
C 	C 	0.82286 0.92095 0.92095 -0.02800
H 	H 	0.84200 0.92740 0.92740 0.08600
C 	C 	0.76100 0.90630 0.90630 -0.76400
C 	C 	0.72910 0.89750 0.89750 0.60300
C 	C 	0.77080 0.89750 0.89750 1.00300
C 	C 	0.73960 0.88800 0.88800 -0.84400
C 	C 	0.32286 0.42095 0.92095 -0.02800
H 	H 	0.34200 0.42740 0.92740 0.08600
C 	C 	0.26100 0.40630 0.90630 -0.76600
C 	C 	0.22910 0.39750 0.89750 0.60300
C 	C 	0.27080 0.39750 0.89750 1.00500
C 	C 	0.23960 0.38800 0.88800 -0.84400
C 	C 	0.32286 0.92095 0.42095 -0.02800
H 	H 	0.34200 0.92740 0.42740 0.08600
C 	C 	0.26100 0.90630 0.40630 -0.76600
C 	C 	0.22910 0.89750 0.39750 0.60300
C 	C 	0.27080 0.89750 0.39750 1.00400
C 	C 	0.23960 0.88800 0.38800 -0.84400
Cu	Cu	0.60030 0.65383 0.34617 0.58500
O 	O 	0.56880 0.67690 0.32310 -0.34500
Cu	Cu	0.61300 0.66472 0.33528 0.59400
Cu	Cu	0.60030 0.15383 0.84617 0.58500
O 	O 	0.56880 0.17690 0.82310 -0.34500
Cu	Cu	0.61300 0.16472 0.83528 0.59400
Cu	Cu	0.10030 0.65383 0.84617 0.58500
O 	O 	0.06880 0.67690 0.82310 -0.34500
Cu	Cu	0.11300 0.66472 0.83528 0.59400
Cu	Cu	0.10030 0.15383 0.34617 0.58500
O 	O 	0.06880 0.17690 0.32310 -0.34500
Cu	Cu	0.11300 0.16472 0.33528 0.59400
Cu	Cu	0.39970 0.34617 0.34617 0.58500
O 	O 	0.43120 0.32310 0.32310 -0.34500
Cu	Cu	0.38700 0.33528 0.33528 0.59400
Cu	Cu	0.39970 0.84617 0.84617 0.58500
O 	O 	0.43120 0.82310 0.82310 -0.34400
Cu	Cu	0.38700 0.83528 0.83528 0.59400
Cu	Cu	0.89970 0.34617 0.84617 0.58500
O 	O 	0.93120 0.32310 0.82310 -0.34400
Cu	Cu	0.88700 0.33528 0.83528 0.59400
Cu	Cu	0.89970 0.84617 0.34617 0.58500
O 	O 	0.93120 0.82310 0.32310 -0.34400
Cu	Cu	0.88700 0.83528 0.33528 0.59400
Cu	Cu	0.39970 0.65383 0.65383 0.58500
O 	O 	0.43120 0.67690 0.67690 -0.34500
Cu	Cu	0.38700 0.66472 0.66472 0.59400
Cu	Cu	0.39970 0.15383 0.15383 0.58500
O 	O 	0.43120 0.17690 0.17690 -0.34500
Cu	Cu	0.38700 0.16472 0.16472 0.59400
Cu	Cu	0.89970 0.65383 0.15383 0.58500
O 	O 	0.93120 0.67690 0.17690 -0.34400
Cu	Cu	0.88700 0.66472 0.16472 0.59400
Cu	Cu	0.89970 0.15383 0.65383 0.58500
O 	O 	0.93120 0.17690 0.67690 -0.34400
Cu	Cu	0.88700 0.16472 0.66472 0.59400
Cu	Cu	0.60030 0.34617 0.65383 0.58500
O 	O 	0.56880 0.32310 0.67690 -0.34500
Cu	Cu	0.61300 0.33528 0.66472 0.59400
Cu	Cu	0.60030 0.84617 0.15383 0.58500
O 	O 	0.56880 0.82310 0.17690 -0.34500
Cu	Cu	0.61300 0.83528 0.16472 0.59400
Cu	Cu	0.10030 0.34617 0.15383 0.58500
O 	O 	0.06880 0.32310 0.17690 -0.34500
Cu	Cu	0.11300 0.33528 0.16472 0.59400
Cu	Cu	0.10030 0.84617 0.65383 0.58500
O 	O 	0.06880 0.82310 0.67690 -0.34500
Cu	Cu	0.11300 0.83528 0.66472 0.59400
Cu	Cu	0.34617 0.60030 0.65383 0.58500
O 	O 	0.32310 0.56880 0.67690 -0.34500
Cu	Cu	0.33528 0.61300 0.66472 0.59400
Cu	Cu	0.34617 0.10030 0.15383 0.58500
O 	O 	0.32310 0.06880 0.17690 -0.34500
Cu	Cu	0.33528 0.11300 0.16472 0.59400
Cu	Cu	0.84617 0.60030 0.15383 0.58500
O 	O 	0.82310 0.56880 0.17690 -0.34500
Cu	Cu	0.83528 0.61300 0.16472 0.59400
Cu	Cu	0.84617 0.10030 0.65383 0.58500
O 	O 	0.82310 0.06880 0.67690 -0.34500
Cu	Cu	0.83528 0.11300 0.66472 0.59400
Cu	Cu	0.34617 0.39970 0.34617 0.58500
O 	O 	0.32310 0.43120 0.32310 -0.34500
Cu	Cu	0.33528 0.38700 0.33528 0.59400
Cu	Cu	0.34617 0.89970 0.84617 0.58500
O 	O 	0.32310 0.93120 0.82310 -0.34400
Cu	Cu	0.33528 0.88700 0.83528 0.59400
Cu	Cu	0.84617 0.39970 0.84617 0.58500
O 	O 	0.82310 0.43120 0.82310 -0.34400
Cu	Cu	0.83528 0.38700 0.83528 0.59400
Cu	Cu	0.84617 0.89970 0.34617 0.58500
O 	O 	0.82310 0.93120 0.32310 -0.34400
Cu	Cu	0.83528 0.88700 0.33528 0.59400
Cu	Cu	0.65383 0.39970 0.65383 0.58500
O 	O 	0.67690 0.43120 0.67690 -0.34500
Cu	Cu	0.66472 0.38700 0.66472 0.59400
Cu	Cu	0.65383 0.89970 0.15383 0.58500
O 	O 	0.67690 0.93120 0.17690 -0.34400
Cu	Cu	0.66472 0.88700 0.16472 0.59400
Cu	Cu	0.15383 0.39970 0.15383 0.58500
O 	O 	0.17690 0.43120 0.17690 -0.34500
Cu	Cu	0.16472 0.38700 0.16472 0.59400
Cu	Cu	0.15383 0.89970 0.65383 0.58500
O 	O 	0.17690 0.93120 0.67690 -0.34400
Cu	Cu	0.16472 0.88700 0.66472 0.59400
Cu	Cu	0.65383 0.60030 0.34617 0.58500
O 	O 	0.67690 0.56880 0.32310 -0.34500
Cu	Cu	0.66472 0.61300 0.33528 0.59400
Cu	Cu	0.65383 0.10030 0.84617 0.58500
O 	O 	0.67690 0.06880 0.82310 -0.34500
Cu	Cu	0.66472 0.11300 0.83528 0.59400
Cu	Cu	0.15383 0.60030 0.84617 0.58500
O 	O 	0.17690 0.56880 0.82310 -0.34500
Cu	Cu	0.16472 0.61300 0.83528 0.59400
Cu	Cu	0.15383 0.10030 0.34617 0.58500
O 	O 	0.17690 0.06880 0.32310 -0.34500
Cu	Cu	0.16472 0.11300 0.33528 0.59400
Cu	Cu	0.65383 0.34617 0.60030 0.58500
O 	O 	0.67690 0.32310 0.56880 -0.34500
Cu	Cu	0.66472 0.33528 0.61300 0.59400
Cu	Cu	0.65383 0.84617 0.10030 0.58500
O 	O 	0.67690 0.82310 0.06880 -0.34500
Cu	Cu	0.66472 0.83528 0.11300 0.59400
Cu	Cu	0.15383 0.34617 0.10030 0.58500
O 	O 	0.17690 0.32310 0.06880 -0.34500
Cu	Cu	0.16472 0.33528 0.11300 0.59400
Cu	Cu	0.15383 0.84617 0.60030 0.58500
O 	O 	0.17690 0.82310 0.56880 -0.34500
Cu	Cu	0.16472 0.83528 0.61300 0.59400
Cu	Cu	0.34617 0.34617 0.39970 0.58500
O 	O 	0.32310 0.32310 0.43120 -0.34500
Cu	Cu	0.33528 0.33528 0.38700 0.59400
Cu	Cu	0.34617 0.84617 0.89970 0.58500
O 	O 	0.32310 0.82310 0.93120 -0.34400
Cu	Cu	0.33528 0.83528 0.88700 0.59400
Cu	Cu	0.84617 0.34617 0.89970 0.58500
O 	O 	0.82310 0.32310 0.93120 -0.34400
Cu	Cu	0.83528 0.33528 0.88700 0.59400
Cu	Cu	0.84617 0.84617 0.39970 0.58500
O 	O 	0.82310 0.82310 0.43120 -0.34400
Cu	Cu	0.83528 0.83528 0.38700 0.59400
Cu	Cu	0.65383 0.65383 0.39970 0.58500
O 	O 	0.67690 0.67690 0.43120 -0.34500
Cu	Cu	0.66472 0.66472 0.38700 0.59400
Cu	Cu	0.65383 0.15383 0.89970 0.58500
O 	O 	0.67690 0.17690 0.93120 -0.34400
Cu	Cu	0.66472 0.16472 0.88700 0.59400
Cu	Cu	0.15383 0.65383 0.89970 0.58500
O 	O 	0.17690 0.67690 0.93120 -0.34400
Cu	Cu	0.16472 0.66472 0.88700 0.59400
Cu	Cu	0.15383 0.15383 0.39970 0.58500
O 	O 	0.17690 0.17690 0.43120 -0.34500
Cu	Cu	0.16472 0.16472 0.38700 0.59400
Cu	Cu	0.34617 0.65383 0.60030 0.58500
O 	O 	0.32310 0.67690 0.56880 -0.34500
Cu	Cu	0.33528 0.66472 0.61300 0.59400
Cu	Cu	0.34617 0.15383 0.10030 0.58500
O 	O 	0.32310 0.17690 0.06880 -0.34500
Cu	Cu	0.33528 0.16472 0.11300 0.59400
Cu	Cu	0.84617 0.65383 0.10030 0.58500
O 	O 	0.82310 0.67690 0.06880 -0.34500
Cu	Cu	0.83528 0.66472 0.11300 0.59400
Cu	Cu	0.84617 0.15383 0.60030 0.58500
O 	O 	0.82310 0.17690 0.56880 -0.34500
Cu	Cu	0.83528 0.16472 0.61300 0.59400
Cu	Cu	0.65383 0.60030 0.65383 0.58500
O 	O 	0.67690 0.56880 0.67690 -0.34500
Cu	Cu	0.66472 0.61300 0.66472 0.59400
Cu	Cu	0.65383 0.10030 0.15383 0.58500
O 	O 	0.67690 0.06880 0.17690 -0.34500
Cu	Cu	0.66472 0.11300 0.16472 0.59400
Cu	Cu	0.15383 0.60030 0.15383 0.58500
O 	O 	0.17690 0.56880 0.17690 -0.34500
Cu	Cu	0.16472 0.61300 0.16472 0.59400
Cu	Cu	0.15383 0.10030 0.65383 0.58500
O 	O 	0.17690 0.06880 0.67690 -0.34500
Cu	Cu	0.16472 0.11300 0.66472 0.59400
Cu	Cu	0.34617 0.39970 0.65383 0.58500
O 	O 	0.32310 0.43120 0.67690 -0.34500
Cu	Cu	0.33528 0.38700 0.66472 0.59400
Cu	Cu	0.34617 0.89970 0.15383 0.58500
O 	O 	0.32310 0.93120 0.17690 -0.34400
Cu	Cu	0.33528 0.88700 0.16472 0.59400
Cu	Cu	0.84617 0.39970 0.15383 0.58500
O 	O 	0.82310 0.43120 0.17690 -0.34500
Cu	Cu	0.83528 0.38700 0.16472 0.59400
Cu	Cu	0.84617 0.89970 0.65383 0.58500
O 	O 	0.82310 0.93120 0.67690 -0.34400
Cu	Cu	0.83528 0.88700 0.66472 0.59400
Cu	Cu	0.65383 0.39970 0.34617 0.58500
O 	O 	0.67690 0.43120 0.32310 -0.34500
Cu	Cu	0.66472 0.38700 0.33528 0.59400
Cu	Cu	0.65383 0.89970 0.84617 0.58500
O 	O 	0.67690 0.93120 0.82310 -0.34400
Cu	Cu	0.66472 0.88700 0.83528 0.59400
Cu	Cu	0.15383 0.39970 0.84617 0.58500
O 	O 	0.17690 0.43120 0.82310 -0.34500
Cu	Cu	0.16472 0.38700 0.83528 0.59400
Cu	Cu	0.15383 0.89970 0.34617 0.58500
O 	O 	0.17690 0.93120 0.32310 -0.34400
Cu	Cu	0.16472 0.88700 0.33528 0.59400
Cu	Cu	0.34617 0.60030 0.34617 0.58500
O 	O 	0.32310 0.56880 0.32310 -0.34500
Cu	Cu	0.33528 0.61300 0.33528 0.59400
Cu	Cu	0.34617 0.10030 0.84617 0.58500
O 	O 	0.32310 0.06880 0.82310 -0.34500
Cu	Cu	0.33528 0.11300 0.83528 0.59400
Cu	Cu	0.84617 0.60030 0.84617 0.58500
O 	O 	0.82310 0.56880 0.82310 -0.34400
Cu	Cu	0.83528 0.61300 0.83528 0.59400
Cu	Cu	0.84617 0.10030 0.34617 0.58500
O 	O 	0.82310 0.06880 0.32310 -0.34500
Cu	Cu	0.83528 0.11300 0.33528 0.59400
Cu	Cu	0.60030 0.34617 0.34617 0.58500
O 	O 	0.56880 0.32310 0.32310 -0.34500
Cu	Cu	0.61300 0.33528 0.33528 0.59400
Cu	Cu	0.60030 0.84617 0.84617 0.58500
O 	O 	0.56880 0.82310 0.82310 -0.34400
Cu	Cu	0.61300 0.83528 0.83528 0.59400
Cu	Cu	0.10030 0.34617 0.84617 0.58500
O 	O 	0.06880 0.32310 0.82310 -0.34500
Cu	Cu	0.11300 0.33528 0.83528 0.59400
Cu	Cu	0.10030 0.84617 0.34617 0.58500
O 	O 	0.06880 0.82310 0.32310 -0.34500
Cu	Cu	0.11300 0.83528 0.33528 0.59400
Cu	Cu	0.39970 0.34617 0.65383 0.58500
O 	O 	0.43120 0.32310 0.67690 -0.34500
Cu	Cu	0.38700 0.33528 0.66472 0.59400
Cu	Cu	0.39970 0.84617 0.15383 0.58500
O 	O 	0.43120 0.82310 0.17690 -0.34500
Cu	Cu	0.38700 0.83528 0.16472 0.59400
Cu	Cu	0.89970 0.34617 0.15383 0.58500
O 	O 	0.93120 0.32310 0.17690 -0.34400
Cu	Cu	0.88700 0.33528 0.16472 0.59400
Cu	Cu	0.89970 0.84617 0.65383 0.58500
O 	O 	0.93120 0.82310 0.67690 -0.34400
Cu	Cu	0.88700 0.83528 0.66472 0.59400
Cu	Cu	0.39970 0.65383 0.34617 0.58500
O 	O 	0.43120 0.67690 0.32310 -0.34500
Cu	Cu	0.38700 0.66472 0.33528 0.59400
Cu	Cu	0.39970 0.15383 0.84617 0.58500
O 	O 	0.43120 0.17690 0.82310 -0.34500
Cu	Cu	0.38700 0.16472 0.83528 0.59400
Cu	Cu	0.89970 0.65383 0.84617 0.58500
O 	O 	0.93120 0.67690 0.82310 -0.34400
Cu	Cu	0.88700 0.66472 0.83528 0.59400
Cu	Cu	0.89970 0.15383 0.34617 0.58500
O 	O 	0.93120 0.17690 0.32310 -0.34400
Cu	Cu	0.88700 0.16472 0.33528 0.59400
Cu	Cu	0.60030 0.65383 0.65383 0.58500
O 	O 	0.56880 0.67690 0.67690 -0.34500
Cu	Cu	0.61300 0.66472 0.66472 0.59400
Cu	Cu	0.60030 0.15383 0.15383 0.58500
O 	O 	0.56880 0.17690 0.17690 -0.34500
Cu	Cu	0.61300 0.16472 0.16472 0.59400
Cu	Cu	0.10030 0.65383 0.15383 0.58500
O 	O 	0.06880 0.67690 0.17690 -0.34500
Cu	Cu	0.11300 0.66472 0.16472 0.59400
Cu	Cu	0.10030 0.15383 0.65383 0.58500
O 	O 	0.06880 0.17690 0.67690 -0.34500
Cu	Cu	0.11300 0.16472 0.66472 0.59400
Cu	Cu	0.34617 0.65383 0.39970 0.58500
O 	O 	0.32310 0.67690 0.43120 -0.34500
Cu	Cu	0.33528 0.66472 0.38700 0.59400
Cu	Cu	0.34617 0.15383 0.89970 0.58500
O 	O 	0.32310 0.17690 0.93120 -0.34400
Cu	Cu	0.33528 0.16472 0.88700 0.59400
Cu	Cu	0.84617 0.65383 0.89970 0.58500
O 	O 	0.82310 0.67690 0.93120 -0.34400
Cu	Cu	0.83528 0.66472 0.88700 0.59400
Cu	Cu	0.84617 0.15383 0.39970 0.58500
O 	O 	0.82310 0.17690 0.43120 -0.34500
Cu	Cu	0.83528 0.16472 0.38700 0.59400
Cu	Cu	0.34617 0.34617 0.60030 0.58500
O 	O 	0.32310 0.32310 0.56880 -0.34500
Cu	Cu	0.33528 0.33528 0.61300 0.59400
Cu	Cu	0.34617 0.84617 0.10030 0.58500
O 	O 	0.32310 0.82310 0.06880 -0.34500
Cu	Cu	0.33528 0.83528 0.11300 0.59400
Cu	Cu	0.84617 0.34617 0.10030 0.58500
O 	O 	0.82310 0.32310 0.06880 -0.34500
Cu	Cu	0.83528 0.33528 0.11300 0.59400
Cu	Cu	0.84617 0.84617 0.60030 0.58500
O 	O 	0.82310 0.82310 0.56880 -0.34400
Cu	Cu	0.83528 0.83528 0.61300 0.59400
Cu	Cu	0.65383 0.65383 0.60030 0.58500
O 	O 	0.67690 0.67690 0.56880 -0.34500
Cu	Cu	0.66472 0.66472 0.61300 0.59400
Cu	Cu	0.65383 0.15383 0.10030 0.58500
O 	O 	0.67690 0.17690 0.06880 -0.34500
Cu	Cu	0.66472 0.16472 0.11300 0.59400
Cu	Cu	0.15383 0.65383 0.10030 0.58500
O 	O 	0.17690 0.67690 0.06880 -0.34500
Cu	Cu	0.16472 0.66472 0.11300 0.59400
Cu	Cu	0.15383 0.15383 0.60030 0.58500
O 	O 	0.17690 0.17690 0.56880 -0.34500
Cu	Cu	0.16472 0.16472 0.61300 0.59400
Cu	Cu	0.65383 0.34617 0.39970 0.58500
O 	O 	0.67690 0.32310 0.43120 -0.34500
Cu	Cu	0.66472 0.33528 0.38700 0.59400
Cu	Cu	0.65383 0.84617 0.89970 0.58500
O 	O 	0.67690 0.82310 0.93120 -0.34400
Cu	Cu	0.66472 0.83528 0.88700 0.59400
Cu	Cu	0.15383 0.34617 0.89970 0.58500
O 	O 	0.17690 0.32310 0.93120 -0.34400
Cu	Cu	0.16472 0.33528 0.88700 0.59400
Cu	Cu	0.15383 0.84617 0.39970 0.58500
O 	O 	0.17690 0.82310 0.43120 -0.34500
Cu	Cu	0.16472 0.83528 0.38700 0.59400
O 	O 	0.63360 0.63360 0.36640 -0.33700
O 	O 	0.64420 0.64420 0.35580 -0.48100
O 	O 	0.63360 0.13360 0.86640 -0.33700
O 	O 	0.64420 0.14420 0.85580 -0.48100
O 	O 	0.13360 0.63360 0.86640 -0.33700
O 	O 	0.14420 0.64420 0.85580 -0.48100
O 	O 	0.13360 0.13360 0.36640 -0.33800
O 	O 	0.14420 0.14420 0.35580 -0.48100
O 	O 	0.36640 0.36640 0.36640 -0.33700
O 	O 	0.35580 0.35580 0.35580 -0.48100
O 	O 	0.36640 0.86640 0.86640 -0.33600
O 	O 	0.35580 0.85580 0.85580 -0.48100
O 	O 	0.86640 0.36640 0.86640 -0.33600
O 	O 	0.85580 0.35580 0.85580 -0.48100
O 	O 	0.86640 0.86640 0.36640 -0.33600
O 	O 	0.85580 0.85580 0.35580 -0.48100
O 	O 	0.36640 0.63360 0.63360 -0.33700
O 	O 	0.35580 0.64420 0.64420 -0.48100
O 	O 	0.36640 0.13360 0.13360 -0.33800
O 	O 	0.35580 0.14420 0.14420 -0.48100
O 	O 	0.86640 0.63360 0.13360 -0.33700
O 	O 	0.85580 0.64420 0.14420 -0.48100
O 	O 	0.86640 0.13360 0.63360 -0.33700
O 	O 	0.85580 0.14420 0.64420 -0.48100
O 	O 	0.63360 0.36640 0.63360 -0.33700
O 	O 	0.64420 0.35580 0.64420 -0.48100
O 	O 	0.63360 0.86640 0.13360 -0.33700
O 	O 	0.64420 0.85580 0.14420 -0.48100
O 	O 	0.13360 0.36640 0.13360 -0.33800
O 	O 	0.14420 0.35580 0.14420 -0.48100
O 	O 	0.13360 0.86640 0.63360 -0.33700
O 	O 	0.14420 0.85580 0.64420 -0.48100
O 	O 	0.63360 0.63360 0.63360 -0.33700
O 	O 	0.64420 0.64420 0.64420 -0.48100
O 	O 	0.63360 0.13360 0.13360 -0.33800
O 	O 	0.64420 0.14420 0.14420 -0.48100
O 	O 	0.13360 0.63360 0.13360 -0.33800
O 	O 	0.14420 0.64420 0.14420 -0.48100
O 	O 	0.13360 0.13360 0.63360 -0.33800
O 	O 	0.14420 0.14420 0.64420 -0.48100
O 	O 	0.36640 0.36640 0.63360 -0.33700
O 	O 	0.35580 0.35580 0.64420 -0.48100
O 	O 	0.36640 0.86640 0.13360 -0.33700
O 	O 	0.35580 0.85580 0.14420 -0.48100
O 	O 	0.86640 0.36640 0.13360 -0.33700
O 	O 	0.85580 0.35580 0.14420 -0.48100
O 	O 	0.86640 0.86640 0.63360 -0.33600
O 	O 	0.85580 0.85580 0.64420 -0.48100
O 	O 	0.63360 0.36640 0.36640 -0.33700
O 	O 	0.64420 0.35580 0.35580 -0.48100
O 	O 	0.63360 0.86640 0.86640 -0.33600
O 	O 	0.64420 0.85580 0.85580 -0.48100
O 	O 	0.13360 0.36640 0.86640 -0.33700
O 	O 	0.14420 0.35580 0.85580 -0.48100
O 	O 	0.13360 0.86640 0.36640 -0.33700
O 	O 	0.14420 0.85580 0.35580 -0.48100
O 	O 	0.36640 0.63360 0.36640 -0.33700
O 	O 	0.35580 0.64420 0.35580 -0.48100
O 	O 	0.36640 0.13360 0.86640 -0.33700
O 	O 	0.35580 0.14420 0.85580 -0.48100
O 	O 	0.86640 0.63360 0.86640 -0.33600
O 	O 	0.85580 0.64420 0.85580 -0.48100
O 	O 	0.86640 0.13360 0.36640 -0.33700
O 	O 	0.85580 0.14420 0.35580 -0.48100
