data_crystal

_cell_length_a 7.44160
_cell_length_b 24.80560
_cell_length_c 30.31400
_cell_angle_alpha 90.00000
_cell_angle_beta  91.63700
_cell_angle_gamma 90.00000

_symmetry_space_group_name_	'P 1'
_symmetry_space_group_name_H-M	'P 1'

loop_
_symmetry_equiv_pos_as_xyz
  x,y,z

loop_
_atom_site_label
_atom_site_type_symbol
_atom_site_fract_x
_atom_site_fract_y
_atom_site_fract_z
_atom_site_charge
O 	O 	0.25170 0.35729 0.73456 -0.42500
C 	C 	0.19480 0.38900 0.70425 0.34700
O 	O 	0.02920 0.39574 0.70023 -0.38600
C 	C 	0.32340 0.41380 0.67391 -0.17100
C 	C 	0.26260 0.44490 0.63850 0.09900
C 	C 	0.38220 0.46380 0.60770 -0.20600
C 	C 	0.56390 0.45160 0.61251 0.16600
C 	C 	0.62440 0.42250 0.64880 -0.21800
C 	C 	0.50520 0.40340 0.67900 0.11400
C 	C 	0.69190 0.46820 0.57768 -0.17600
C 	C 	0.17940 0.49300 0.41167 0.07400
N 	N 	0.04750 0.47510 0.43882 -0.30900
N 	N 	0.79080 0.45050 0.50228 -0.28400
C 	C 	0.68180 0.44210 0.53730 0.11100
C 	C 	0.55450 0.40080 0.52690 -0.09200
C 	C 	0.58910 0.38270 0.48670 -0.10000
C 	C 	0.73450 0.41420 0.47010 0.12400
C 	C 	0.81180 0.40670 0.42960 -0.21500
C 	C 	0.95790 0.43600 0.41532 0.20200
C 	C 	0.03460 0.42930 0.37200 -0.23400
C 	C 	0.16930 0.46510 0.37042 -0.01200
C 	C 	0.73160 0.36550 0.39940 0.21100
C 	C 	0.82430 0.31910 0.38890 -0.26300
C 	C 	0.74650 0.28170 0.35950 0.16400
C 	C 	0.58270 0.29050 0.34080 -0.23900
C 	C 	0.48860 0.33540 0.35190 0.16800
C 	C 	0.56310 0.37320 0.38010 -0.26100
C 	C 	0.49460 0.25340 0.30760 0.42100
O 	O 	0.59310 0.21420 0.29499 -0.46500
O 	O 	0.34440 0.26060 0.29300 -0.39400
H 	H 	0.13980 0.45300 0.63530 -0.00400
H 	H 	0.34030 0.48480 0.58430 0.08400
H 	H 	0.74590 0.41510 0.65290 0.13200
H 	H 	0.54650 0.38320 0.70320 0.00600
H 	H 	0.46720 0.38840 0.54540 0.05300
H 	H 	0.52760 0.35580 0.47170 0.06200
H 	H 	0.99640 0.40550 0.34990 0.13100
H 	H 	0.24560 0.47050 0.34680 0.03400
H 	H 	0.93560 0.31240 0.40200 0.12600
H 	H 	0.81020 0.25060 0.35280 -0.03000
H 	H 	0.37310 0.34060 0.34030 -0.02900
H 	H 	0.49980 0.40440 0.38680 0.12100
O 	O 	0.75170 0.85729 0.73456 -0.40700
C 	C 	0.69480 0.88900 0.70425 0.31500
O 	O 	0.52920 0.89574 0.70023 -0.35700
C 	C 	0.82340 0.91380 0.67391 -0.07600
C 	C 	0.76260 0.94490 0.63850 0.01800
C 	C 	0.88220 0.96380 0.60770 -0.09200
C 	C 	0.06390 0.95160 0.61251 0.07000
C 	C 	0.12440 0.92250 0.64880 -0.12000
C 	C 	0.00520 0.90340 0.67900 0.00500
C 	C 	0.19190 0.96820 0.57768 -0.10000
C 	C 	0.67940 0.99300 0.41167 0.16400
N 	N 	0.54750 0.97510 0.43882 -0.28400
N 	N 	0.29080 0.95050 0.50228 -0.27700
C 	C 	0.18180 0.94210 0.53730 0.10100
C 	C 	0.05450 0.90080 0.52690 -0.13900
C 	C 	0.08910 0.88270 0.48670 -0.07500
C 	C 	0.23450 0.91420 0.47010 0.11600
C 	C 	0.31180 0.90670 0.42960 -0.21900
C 	C 	0.45790 0.93600 0.41532 0.12400
C 	C 	0.53460 0.92930 0.37200 -0.07400
C 	C 	0.66930 0.96510 0.37042 -0.11000
C 	C 	0.23160 0.86550 0.39940 0.31100
C 	C 	0.32430 0.81910 0.38890 -0.37700
C 	C 	0.24650 0.78170 0.35950 0.30100
C 	C 	0.08270 0.79050 0.34080 -0.41500
C 	C 	0.98860 0.83540 0.35190 0.39300
C 	C 	0.06310 0.87320 0.38010 -0.46600
C 	C 	0.99460 0.75340 0.30760 0.53000
O 	O 	0.09310 0.71420 0.29499 -0.50800
O 	O 	0.84440 0.76060 0.29300 -0.41300
H 	H 	0.63980 0.95300 0.63530 0.04100
H 	H 	0.84030 0.98480 0.58430 0.06300
H 	H 	0.24590 0.91510 0.65290 0.09400
H 	H 	0.04650 0.88320 0.70320 0.03800
H 	H 	0.96720 0.88840 0.54540 0.09000
H 	H 	0.02760 0.85580 0.47170 0.04800
H 	H 	0.49640 0.90550 0.34990 0.05800
H 	H 	0.74560 0.97050 0.34680 0.08500
H 	H 	0.43560 0.81240 0.40200 0.16000
H 	H 	0.31020 0.75060 0.35280 -0.08100
H 	H 	0.87310 0.84060 0.34030 -0.09800
H 	H 	0.99980 0.90440 0.38680 0.21200
O 	O 	0.74830 0.35729 0.76544 -0.41400
C 	C 	0.80520 0.38900 0.79575 0.33500
O 	O 	0.97080 0.39574 0.79977 -0.34700
C 	C 	0.67660 0.41380 0.82609 -0.14400
C 	C 	0.73740 0.44490 0.86150 0.07700
C 	C 	0.61780 0.46380 0.89230 -0.17500
C 	C 	0.43610 0.45160 0.88749 0.13500
C 	C 	0.37560 0.42250 0.85120 -0.18600
C 	C 	0.49480 0.40340 0.82100 0.08800
C 	C 	0.30810 0.46820 0.92232 -0.14200
C 	C 	0.82060 0.49300 0.08833 0.14000
N 	N 	0.95250 0.47510 0.06118 -0.25900
N 	N 	0.20920 0.45050 0.99772 -0.26700
C 	C 	0.31820 0.44210 0.96270 0.08800
C 	C 	0.44550 0.40080 0.97310 -0.04400
C 	C 	0.41090 0.38270 0.01330 -0.12900
C 	C 	0.26550 0.41420 0.02990 0.08000
C 	C 	0.18820 0.40670 0.07040 -0.13500
C 	C 	0.04210 0.43600 0.08468 0.00900
C 	C 	0.96540 0.42930 0.12800 0.07300
C 	C 	0.83070 0.46510 0.12958 -0.16800
C 	C 	0.26840 0.36550 0.10060 0.15500
C 	C 	0.17570 0.31910 0.11110 -0.22000
C 	C 	0.25350 0.28170 0.14050 0.12600
C 	C 	0.41730 0.29050 0.15920 -0.21000
C 	C 	0.51140 0.33540 0.14810 0.13200
C 	C 	0.43690 0.37320 0.11990 -0.21700
C 	C 	0.50540 0.25340 0.19240 0.40900
O 	O 	0.40690 0.21420 0.20501 -0.46500
O 	O 	0.65560 0.26060 0.20700 -0.38000
H 	H 	0.86020 0.45300 0.86470 0.02100
H 	H 	0.65970 0.48480 0.91570 0.07900
H 	H 	0.25410 0.41510 0.84710 0.10900
H 	H 	0.45350 0.38320 0.79680 0.01500
H 	H 	0.53280 0.38840 0.95460 0.04500
H 	H 	0.47240 0.35580 0.02830 0.07100
H 	H 	0.00360 0.40550 0.15010 -0.01700
H 	H 	0.75440 0.47050 0.15320 0.09800
H 	H 	0.06440 0.31240 0.09800 0.09500
H 	H 	0.18980 0.25060 0.14720 -0.02600
H 	H 	0.62690 0.34060 0.15970 -0.00900
H 	H 	0.50020 0.40440 0.11320 0.10700
O 	O 	0.24830 0.85729 0.76544 -0.43300
C 	C 	0.30520 0.88900 0.79575 0.36200
O 	O 	0.47080 0.89574 0.79977 -0.37100
C 	C 	0.17660 0.91380 0.82609 -0.21700
C 	C 	0.23740 0.94490 0.86150 0.14200
C 	C 	0.11780 0.96380 0.89230 -0.25400
C 	C 	0.93610 0.95160 0.88749 0.20000
C 	C 	0.87560 0.92250 0.85120 -0.24600
C 	C 	0.99480 0.90340 0.82100 0.17700
C 	C 	0.80810 0.96820 0.92232 -0.11700
C 	C 	0.32060 0.99300 0.08833 0.15700
N 	N 	0.45250 0.97510 0.06118 -0.28100
N 	N 	0.70920 0.95050 0.99772 -0.25400
C 	C 	0.81820 0.94210 0.96270 0.07300
C 	C 	0.94550 0.90080 0.97310 0.02500
C 	C 	0.91090 0.88270 0.01330 -0.16000
C 	C 	0.76550 0.91420 0.02990 0.09700
C 	C 	0.68820 0.90670 0.07040 -0.12000
C 	C 	0.54210 0.93600 0.08468 0.08500
C 	C 	0.46540 0.92930 0.12800 -0.05400
C 	C 	0.33070 0.96510 0.12958 -0.11400
C 	C 	0.76840 0.86550 0.10060 0.05000
C 	C 	0.67570 0.81910 0.11110 -0.09900
C 	C 	0.75350 0.78170 0.14050 -0.01800
C 	C 	0.91730 0.79050 0.15920 -0.02300
C 	C 	0.01140 0.83540 0.14810 -0.10500
C 	C 	0.93690 0.87320 0.11990 0.00200
C 	C 	0.00540 0.75340 0.19240 0.29500
O 	O 	0.90690 0.71420 0.20501 -0.41500
O 	O 	0.15560 0.76060 0.20700 -0.35900
H 	H 	0.36020 0.95300 0.86470 -0.00300
H 	H 	0.15970 0.98480 0.91570 0.11000
H 	H 	0.75410 0.91510 0.84710 0.14000
H 	H 	0.95350 0.88320 0.79680 -0.00800
H 	H 	0.03280 0.88840 0.95460 0.00200
H 	H 	0.97240 0.85580 0.02830 0.08800
H 	H 	0.50360 0.90550 0.15010 0.05000
H 	H 	0.25440 0.97050 0.15320 0.08400
H 	H 	0.56440 0.81240 0.09800 0.05700
H 	H 	0.68980 0.75060 0.14720 0.02800
H 	H 	0.12690 0.84060 0.15970 0.06600
H 	H 	0.00020 0.90440 0.11320 0.01800
O 	O 	0.74830 0.64271 0.26544 -0.41400
C 	C 	0.80520 0.61100 0.29575 0.33500
O 	O 	0.97080 0.60426 0.29977 -0.34700
C 	C 	0.67660 0.58620 0.32609 -0.14500
C 	C 	0.73740 0.55510 0.36150 0.07700
C 	C 	0.61780 0.53620 0.39230 -0.17700
C 	C 	0.43610 0.54840 0.38749 0.13800
C 	C 	0.37560 0.57750 0.35120 -0.18800
C 	C 	0.49480 0.59660 0.32100 0.08900
C 	C 	0.30810 0.53180 0.42232 -0.15100
C 	C 	0.82060 0.50700 0.58833 0.13800
N 	N 	0.95250 0.52490 0.56118 -0.25700
N 	N 	0.20920 0.54950 0.49772 -0.28400
C 	C 	0.31820 0.55790 0.46270 0.10000
C 	C 	0.44550 0.59920 0.47310 -0.09700
C 	C 	0.41090 0.61730 0.51330 -0.08000
C 	C 	0.26550 0.58580 0.52990 0.08500
C 	C 	0.18820 0.59330 0.57040 -0.13500
C 	C 	0.04210 0.56400 0.58468 0.01200
C 	C 	0.96540 0.57070 0.62800 0.07100
C 	C 	0.83070 0.53490 0.62958 -0.16600
C 	C 	0.26840 0.63450 0.60060 0.15600
C 	C 	0.17570 0.68090 0.61110 -0.22000
C 	C 	0.25350 0.71830 0.64050 0.12700
C 	C 	0.41730 0.70950 0.65920 -0.21000
C 	C 	0.51140 0.66460 0.64810 0.13300
C 	C 	0.43690 0.62680 0.61990 -0.21700
C 	C 	0.50540 0.74660 0.69240 0.41000
O 	O 	0.40690 0.78580 0.70501 -0.46500
O 	O 	0.65560 0.73940 0.70700 -0.38000
H 	H 	0.86020 0.54700 0.36470 0.02000
H 	H 	0.65970 0.51520 0.41570 0.07800
H 	H 	0.25410 0.58490 0.34710 0.10900
H 	H 	0.45350 0.61680 0.29680 0.01400
H 	H 	0.53280 0.61160 0.45460 0.06000
H 	H 	0.47240 0.64420 0.52830 0.05800
H 	H 	0.00360 0.59450 0.65010 -0.01600
H 	H 	0.75440 0.52950 0.65320 0.09700
H 	H 	0.06440 0.68760 0.59800 0.09700
H 	H 	0.18980 0.74940 0.64720 -0.02500
H 	H 	0.62690 0.65940 0.65970 -0.00900
H 	H 	0.50020 0.59560 0.61320 0.10700
O 	O 	0.24830 0.14271 0.26544 -0.43500
C 	C 	0.30520 0.11100 0.29575 0.36600
O 	O 	0.47080 0.10426 0.29977 -0.38100
C 	C 	0.17660 0.08620 0.32609 -0.24100
C 	C 	0.23740 0.05510 0.36150 0.15800
C 	C 	0.11780 0.03620 0.39230 -0.29100
C 	C 	0.93610 0.04840 0.38749 0.23300
C 	C 	0.87560 0.07750 0.35120 -0.28500
C 	C 	0.99480 0.09660 0.32100 0.19700
C 	C 	0.80810 0.03180 0.42232 -0.22600
C 	C 	0.32060 0.00700 0.58833 0.04800
N 	N 	0.45250 0.02490 0.56118 -0.28100
N 	N 	0.70920 0.04950 0.49772 -0.29000
C 	C 	0.81820 0.05790 0.46270 0.10900
C 	C 	0.94550 0.09920 0.47310 -0.04800
C 	C 	0.91090 0.11730 0.51330 -0.10600
C 	C 	0.76550 0.08580 0.52990 0.09200
C 	C 	0.68820 0.09330 0.57040 -0.12800
C 	C 	0.54210 0.06400 0.58468 0.08700
C 	C 	0.46540 0.07070 0.62800 -0.08800
C 	C 	0.33070 0.03490 0.62958 -0.06900
C 	C 	0.76840 0.13450 0.60060 0.04900
C 	C 	0.67570 0.18090 0.61110 -0.09900
C 	C 	0.75350 0.21830 0.64050 -0.01800
C 	C 	0.91730 0.20950 0.65920 -0.02400
C 	C 	0.01140 0.16460 0.64810 -0.10600
C 	C 	0.93690 0.12680 0.61990 0.00100
C 	C 	0.00540 0.24660 0.69240 0.29600
O 	O 	0.90690 0.28580 0.70501 -0.41500
O 	O 	0.15560 0.23940 0.70700 -0.36000
H 	H 	0.36020 0.04700 0.36470 -0.02500
H 	H 	0.15970 0.01520 0.41570 0.09900
H 	H 	0.75410 0.08490 0.34710 0.14600
H 	H 	0.95350 0.11680 0.29680 -0.01800
H 	H 	0.03280 0.11160 0.45460 0.02200
H 	H 	0.97240 0.14420 0.52830 0.07300
H 	H 	0.50360 0.09450 0.65010 0.05500
H 	H 	0.25440 0.02950 0.65320 0.04600
H 	H 	0.56440 0.18760 0.59800 0.05900
H 	H 	0.68980 0.24940 0.64720 0.02800
H 	H 	0.12690 0.15940 0.65970 0.06400
H 	H 	0.00020 0.09560 0.61320 0.01000
O 	O 	0.25170 0.64271 0.23456 -0.42600
C 	C 	0.19480 0.61100 0.20425 0.34600
O 	O 	0.02920 0.60426 0.20023 -0.38700
C 	C 	0.32340 0.58620 0.17391 -0.17300
C 	C 	0.26260 0.55510 0.13850 0.10000
C 	C 	0.38220 0.53620 0.10770 -0.20800
C 	C 	0.56390 0.54840 0.11251 0.16900
C 	C 	0.62440 0.57750 0.14880 -0.22000
C 	C 	0.50520 0.59660 0.17900 0.11500
C 	C 	0.69190 0.53180 0.07768 -0.18300
C 	C 	0.17940 0.50700 0.91167 0.07300
N 	N 	0.04750 0.52490 0.93882 -0.30300
N 	N 	0.79080 0.54950 0.00228 -0.29700
C 	C 	0.68180 0.55790 0.03730 0.12300
C 	C 	0.55450 0.59920 0.02690 -0.14500
C 	C 	0.58910 0.61730 0.98670 -0.05100
C 	C 	0.73450 0.58580 0.97010 0.12800
C 	C 	0.81180 0.59330 0.92960 -0.21200
C 	C 	0.95790 0.56400 0.91532 0.20200
C 	C 	0.03460 0.57070 0.87200 -0.23300
C 	C 	0.16930 0.53490 0.87042 -0.01200
C 	C 	0.73160 0.63450 0.89940 0.21100
C 	C 	0.82430 0.68090 0.88890 -0.26200
C 	C 	0.74650 0.71830 0.85950 0.16400
C 	C 	0.58270 0.70950 0.84080 -0.23800
C 	C 	0.48860 0.66460 0.85190 0.16800
C 	C 	0.56310 0.62680 0.88010 -0.26000
C 	C 	0.49460 0.74660 0.80760 0.42200
O 	O 	0.59310 0.78580 0.79499 -0.46500
O 	O 	0.34440 0.73940 0.79300 -0.39400
H 	H 	0.13980 0.54700 0.13530 -0.00500
H 	H 	0.34030 0.51520 0.08430 0.08300
H 	H 	0.74590 0.58490 0.15290 0.13200
H 	H 	0.54650 0.61680 0.20320 0.00500
H 	H 	0.46720 0.61160 0.04540 0.06800
H 	H 	0.52760 0.64420 0.97170 0.04900
H 	H 	0.99640 0.59450 0.84990 0.13000
H 	H 	0.24560 0.52950 0.84680 0.03400
H 	H 	0.93560 0.68760 0.90200 0.12800
H 	H 	0.81020 0.74940 0.85280 -0.02900
H 	H 	0.37310 0.65940 0.84030 -0.02900
H 	H 	0.49980 0.59560 0.88680 0.12100
O 	O 	0.75170 0.14271 0.23456 -0.41000
C 	C 	0.69480 0.11100 0.20425 0.31800
O 	O 	0.52920 0.10426 0.20023 -0.36700
C 	C 	0.82340 0.08620 0.17391 -0.09700
C 	C 	0.76260 0.05510 0.13850 0.03200
C 	C 	0.88220 0.03620 0.10770 -0.12700
C 	C 	0.06390 0.04840 0.11251 0.10100
C 	C 	0.12440 0.07750 0.14880 -0.15800
C 	C 	0.00520 0.09660 0.17900 0.02300
C 	C 	0.19190 0.03180 0.07768 -0.20900
C 	C 	0.67940 0.00700 0.91167 0.05700
N 	N 	0.54750 0.02490 0.93882 -0.28100
N 	N 	0.29080 0.04950 0.00228 -0.31100
C 	C 	0.18180 0.05790 0.03730 0.13900
C 	C 	0.05450 0.09920 0.02690 -0.21700
C 	C 	0.08910 0.11730 0.98670 -0.01600
C 	C 	0.23450 0.08580 0.97010 0.11100
C 	C 	0.31180 0.09330 0.92960 -0.22400
C 	C 	0.45790 0.06400 0.91532 0.12600
C 	C 	0.53460 0.07070 0.87200 -0.10700
C 	C 	0.66930 0.03490 0.87042 -0.06600
C 	C 	0.23160 0.13450 0.89940 0.30600
C 	C 	0.32430 0.18090 0.88890 -0.37400
C 	C 	0.24650 0.21830 0.85950 0.29700
C 	C 	0.08270 0.20950 0.84080 -0.41100
C 	C 	0.98860 0.16460 0.85190 0.38600
C 	C 	0.06310 0.12680 0.88010 -0.46100
C 	C 	0.99460 0.24660 0.80760 0.52800
O 	O 	0.09310 0.28580 0.79499 -0.50700
O 	O 	0.84440 0.23940 0.79300 -0.41400
H 	H 	0.63980 0.04700 0.13530 0.02000
H 	H 	0.84030 0.01520 0.08430 0.05100
H 	H 	0.24590 0.08490 0.15290 0.10000
H 	H 	0.04650 0.11680 0.20320 0.02900
H 	H 	0.96720 0.11160 0.04540 0.11200
H 	H 	0.02760 0.14420 0.97170 0.03100
H 	H 	0.49640 0.09450 0.84990 0.06400
H 	H 	0.74560 0.02950 0.84680 0.04800
H 	H 	0.43560 0.18760 0.90200 0.16100
H 	H 	0.31020 0.24940 0.85280 -0.08000
H 	H 	0.87310 0.15940 0.84030 -0.09800
H 	H 	0.99980 0.09560 0.88680 0.20200
Cs	Cs	0.00000 0.24602 0.25000 0.70900
Cs	Cs	0.50000 0.74602 0.25000 0.71700
Cs	Cs	0.00000 0.75398 0.75000 0.70800
Cs	Cs	0.50000 0.25398 0.75000 0.71600
Fe	Fe	0.00000 0.33305 0.75000 1.22900
Fe	Fe	0.50000 0.83305 0.75000 1.24400
Fe	Fe	0.00000 0.66695 0.25000 1.22800
Fe	Fe	0.50000 0.16695 0.25000 1.24300
Fe	Fe	0.00000 0.50000 0.50000 1.09400
Fe	Fe	0.50000 0.00000 0.50000 1.09300
Fe	Fe	-0.00000 0.50000 -0.00000 1.08300
Fe	Fe	0.50000 0.00000 -0.00000 1.08200
