data_crystal

_cell_length_a 8.93990
_cell_length_b 13.69300
_cell_length_c 22.10300
_cell_angle_alpha 90.00000
_cell_angle_beta  90.00000
_cell_angle_gamma 95.46000

_symmetry_space_group_name_	'P 1'
_symmetry_space_group_name_H-M	'P 1'

loop_
_symmetry_equiv_pos_as_xyz
  x,y,z

loop_
_atom_site_label
_atom_site_type_symbol
_atom_site_fract_x
_atom_site_fract_y
_atom_site_fract_z
_atom_site_charge
Er	Er	0.01716 0.02390 0.67364 1.77600
Er	Er	0.45350 0.74456 0.60909 1.15700
Er	Er	0.98284 0.47610 0.17365 1.78700
Er	Er	0.54650 0.75544 0.10909 1.15500
Er	Er	0.98284 0.97610 0.32636 1.77500
Er	Er	0.54650 0.25544 0.39091 1.15600
Er	Er	0.01716 0.52390 0.82636 1.78600
Er	Er	0.45350 0.24456 0.89091 1.15400
C 	C 	0.91840 0.78840 0.70720 -0.03400
C 	C 	0.93480 0.69480 0.72830 -0.00300
C 	C 	0.11930 0.75940 0.79540 -0.01200
C 	C 	0.10380 0.85330 0.77290 -0.00900
C 	C 	0.80170 0.81800 0.66230 0.39100
C 	C 	0.86050 0.59660 0.70650 0.32000
C 	C 	0.23550 0.72680 0.84050 0.32500
C 	C 	0.18110 0.95200 0.79400 0.32900
C 	C 	0.92860 0.07030 0.52930 0.00500
C 	C 	0.90950 0.05400 0.46710 -0.03300
C 	C 	0.86480 0.14660 0.57030 0.31900
C 	C 	0.81020 0.10350 0.42310 0.38900
C 	C 	0.08160 0.71160 0.20720 -0.03000
C 	C 	0.06520 0.80520 0.22830 0.00000
C 	C 	0.88070 0.74060 0.29540 -0.01200
C 	C 	0.89620 0.64670 0.27290 -0.00900
C 	C 	0.19830 0.68200 0.16230 0.39100
C 	C 	0.13950 0.90340 0.20650 0.31900
C 	C 	0.76450 0.77320 0.34050 0.32500
C 	C 	0.81890 0.54800 0.29400 0.32400
C 	C 	0.07140 0.42970 0.02930 0.00600
C 	C 	0.09050 0.44600 0.96710 -0.04000
C 	C 	0.13520 0.35340 0.07030 0.31900
C 	C 	0.18980 0.39650 0.92310 0.39000
C 	C 	0.08160 0.21160 0.29280 -0.03400
C 	C 	0.06520 0.30520 0.27170 -0.00300
C 	C 	0.88070 0.24060 0.20460 -0.01200
C 	C 	0.89620 0.14670 0.22710 -0.00900
C 	C 	0.19830 0.18200 0.33770 0.39100
C 	C 	0.13950 0.40340 0.29350 0.32000
C 	C 	0.76450 0.27320 0.15950 0.32500
C 	C 	0.81890 0.04800 0.20600 0.32900
C 	C 	0.07140 0.92970 0.47070 0.00500
C 	C 	0.09050 0.94600 0.53290 -0.03300
C 	C 	0.13520 0.85340 0.42970 0.31900
C 	C 	0.18980 0.89650 0.57690 0.38900
C 	C 	0.91840 0.28840 0.79280 -0.03000
C 	C 	0.93480 0.19480 0.77170 0.00000
C 	C 	0.11930 0.25940 0.70460 -0.01200
C 	C 	0.10380 0.35330 0.72710 -0.00900
C 	C 	0.80170 0.31800 0.83770 0.39100
C 	C 	0.86050 0.09660 0.79350 0.31900
C 	C 	0.23550 0.22680 0.65950 0.32500
C 	C 	0.18110 0.45200 0.70600 0.32400
C 	C 	0.92860 0.57030 0.97070 0.00600
C 	C 	0.90950 0.55400 0.03290 -0.04000
C 	C 	0.86480 0.64660 0.92970 0.31900
C 	C 	0.81020 0.60350 0.07690 0.39000
N 	N 	0.00550 0.86430 0.72910 -0.17000
N 	N 	0.03290 0.68360 0.77280 -0.18500
N 	N 	0.01700 0.01490 0.55910 -0.17100
N 	N 	0.99450 0.63570 0.22910 -0.17400
N 	N 	0.96710 0.81640 0.27280 -0.18700
N 	N 	0.98300 0.48510 0.05910 -0.16700
N 	N 	0.99450 0.13570 0.27090 -0.17000
N 	N 	0.96710 0.31640 0.22720 -0.18500
N 	N 	0.98300 0.98510 0.44090 -0.17100
N 	N 	0.00550 0.36430 0.77090 -0.17400
N 	N 	0.03290 0.18360 0.72720 -0.18700
N 	N 	0.01700 0.51490 0.94090 -0.16700
O 	O 	0.82930 0.90230 0.63940 -0.43900
O 	O 	0.68870 0.75970 0.65430 -0.44000
O 	O 	0.82920 0.58360 0.65240 -0.25100
O 	O 	0.84590 0.53130 0.74750 -0.40500
O 	O 	0.20260 0.64090 0.86190 -0.40900
O 	O 	0.35140 0.78060 0.84950 -0.24600
O 	O 	0.21070 0.96450 0.84790 -0.26500
O 	O 	0.19650 0.01630 0.75230 -0.41700
O 	O 	0.84930 0.11960 0.62510 -0.39200
O 	O 	0.84250 0.22780 0.55000 -0.24200
O 	O 	0.71880 0.15920 0.44150 -0.42200
O 	O 	0.82330 0.07850 0.36840 -0.46600
O 	O 	0.17070 0.59770 0.13940 -0.43800
O 	O 	0.31130 0.74030 0.15430 -0.44000
O 	O 	0.17080 0.91640 0.15240 -0.25000
O 	O 	0.15410 0.96870 0.24750 -0.40200
O 	O 	0.79740 0.85910 0.36190 -0.40900
O 	O 	0.64860 0.71940 0.34950 -0.24700
O 	O 	0.78930 0.53550 0.34790 -0.26500
O 	O 	0.80350 0.48370 0.25230 -0.41300
O 	O 	0.15070 0.38040 0.12510 -0.39500
O 	O 	0.15750 0.27220 0.05000 -0.24200
O 	O 	0.28120 0.34080 0.94150 -0.42400
O 	O 	0.17670 0.42150 0.86840 -0.47000
O 	O 	0.17070 0.09770 0.36060 -0.43900
O 	O 	0.31130 0.24030 0.34570 -0.44000
O 	O 	0.17080 0.41640 0.34760 -0.25100
O 	O 	0.15410 0.46870 0.25250 -0.40500
O 	O 	0.79740 0.35910 0.13810 -0.40900
O 	O 	0.64860 0.21940 0.15050 -0.24600
O 	O 	0.78930 0.03550 0.15210 -0.26500
O 	O 	0.80350 0.98370 0.24770 -0.41700
O 	O 	0.15070 0.88040 0.37490 -0.39200
O 	O 	0.15750 0.77220 0.45000 -0.24200
O 	O 	0.28120 0.84080 0.55850 -0.42200
O 	O 	0.17670 0.92150 0.63160 -0.46600
O 	O 	0.82930 0.40230 0.86060 -0.43800
O 	O 	0.68870 0.25970 0.84570 -0.44000
O 	O 	0.82920 0.08360 0.84760 -0.25000
O 	O 	0.84590 0.03130 0.75250 -0.40200
O 	O 	0.20260 0.14090 0.63810 -0.40900
O 	O 	0.35140 0.28060 0.65050 -0.24700
O 	O 	0.21070 0.46450 0.65210 -0.26500
O 	O 	0.19650 0.51630 0.74770 -0.41300
O 	O 	0.84930 0.61960 0.87490 -0.39500
O 	O 	0.84250 0.72780 0.95000 -0.24200
O 	O 	0.71880 0.65920 0.05850 -0.42400
O 	O 	0.82330 0.57850 0.13160 -0.47000
