data_crystal

_cell_length_a 8.53000
_cell_length_b 11.28000
_cell_length_c 13.91700
_cell_angle_alpha 90.00000
_cell_angle_beta  112.75000
_cell_angle_gamma 90.00000

_symmetry_space_group_name_	'P 1'
_symmetry_space_group_name_H-M	'P 1'

loop_
_symmetry_equiv_pos_as_xyz
  x,y,z

loop_
_atom_site_label
_atom_site_type_symbol
_atom_site_fract_x
_atom_site_fract_y
_atom_site_fract_z
_atom_site_charge
Cu	Cu	0.61642 0.41223 0.53093 0.92900
C 	C 	0.95030 0.65330 0.40420 -0.26100
H 	H 	0.00380 0.59610 0.45430 0.15100
C 	C 	0.77970 0.66200 0.36460 0.15600
C 	C 	0.78120 0.81110 0.25120 0.15000
C 	C 	0.95220 0.81510 0.29070 -0.23700
H 	H 	0.00730 0.87220 0.26690 0.15000
C 	C 	0.05070 0.73170 0.36950 0.32600
C 	C 	0.66910 0.59560 0.40880 0.28600
C 	C 	0.67160 0.88440 0.15910 0.28900
O 	O 	0.69120 0.73720 0.28717 -0.19900
O 	O 	0.20870 0.72900 0.40361 -0.32000
O 	O 	0.73060 0.50030 0.45490 -0.37200
O 	O 	0.53310 0.64430 0.39990 -0.34200
O 	O 	0.53360 0.83840 0.10060 -0.34200
O 	O 	0.73210 0.98200 0.14936 -0.36100
Cu	Cu	0.38358 0.91223 0.96907 0.92600
C 	C 	0.04970 0.15330 0.09580 -0.23100
H 	H 	0.99620 0.09610 0.04570 0.13500
C 	C 	0.22030 0.16200 0.13540 0.14600
C 	C 	0.21880 0.31110 0.24880 0.14400
C 	C 	0.04780 0.31510 0.20930 -0.22400
H 	H 	0.99270 0.37220 0.23310 0.14700
C 	C 	0.94930 0.23170 0.13050 0.30800
C 	C 	0.33090 0.09560 0.09120 0.29000
C 	C 	0.32840 0.38440 0.34090 0.29200
O 	O 	0.30880 0.23720 0.21283 -0.19500
O 	O 	0.79130 0.22900 0.09639 -0.31600
O 	O 	0.26940 0.00030 0.04510 -0.37200
O 	O 	0.46690 0.14430 0.10010 -0.34500
O 	O 	0.46640 0.33840 0.39940 -0.34600
O 	O 	0.26790 0.48200 0.35064 -0.36600
Cu	Cu	0.38358 0.58777 0.46907 0.93000
C 	C 	0.04970 0.34670 0.59580 -0.26000
H 	H 	0.99620 0.40390 0.54570 0.15200
C 	C 	0.22030 0.33800 0.63540 0.15700
C 	C 	0.21880 0.18890 0.74880 0.15100
C 	C 	0.04780 0.18490 0.70930 -0.23600
H 	H 	0.99270 0.12780 0.73310 0.15100
C 	C 	0.94930 0.26830 0.63050 0.32700
C 	C 	0.33090 0.40440 0.59120 0.28600
C 	C 	0.32840 0.11560 0.84090 0.28900
O 	O 	0.30880 0.26280 0.71283 -0.19900
O 	O 	0.79130 0.27100 0.59639 -0.32000
O 	O 	0.26940 0.49970 0.54510 -0.37200
O 	O 	0.46690 0.35570 0.60010 -0.34200
O 	O 	0.46640 0.16160 0.89940 -0.34200
O 	O 	0.26790 0.01800 0.85064 -0.36100
Cu	Cu	0.61642 0.08777 0.03093 0.92600
C 	C 	0.95030 0.84670 0.90420 -0.23100
H 	H 	0.00380 0.90390 0.95430 0.13500
C 	C 	0.77970 0.83800 0.86460 0.14600
C 	C 	0.78120 0.68890 0.75120 0.14400
C 	C 	0.95220 0.68490 0.79070 -0.22400
H 	H 	0.00730 0.62780 0.76690 0.14700
C 	C 	0.05070 0.76830 0.86950 0.30800
C 	C 	0.66910 0.90440 0.90880 0.29000
C 	C 	0.67160 0.61560 0.65910 0.29200
O 	O 	0.69120 0.76280 0.78717 -0.19500
O 	O 	0.20870 0.77100 0.90361 -0.31600
O 	O 	0.73060 0.99970 0.95490 -0.37200
O 	O 	0.53310 0.85570 0.89990 -0.34500
O 	O 	0.53360 0.66160 0.60060 -0.34600
O 	O 	0.73210 0.51800 0.64936 -0.36600
