data_crystal

_cell_length_a 9.48900
_cell_length_b 13.44100
_cell_length_c 18.52900
_cell_angle_alpha 109.80400
_cell_angle_beta  90.00800
_cell_angle_gamma 107.13500

_symmetry_space_group_name_	'P 1'
_symmetry_space_group_name_H-M	'P 1'

loop_
_symmetry_equiv_pos_as_xyz
  x,y,z

loop_
_atom_site_label
_atom_site_type_symbol
_atom_site_fract_x
_atom_site_fract_y
_atom_site_fract_z
_atom_site_charge
Co	Co	0.23010 0.48802 0.31735 1.16500
Co	Co	0.72450 0.47660 0.17144 1.16500
O 	O 	0.37590 0.39700 0.29300 -0.37600
O 	O 	0.38250 0.58080 0.26260 -0.34200
O 	O 	0.58410 0.39580 0.23770 -0.35700
O 	O 	0.58280 0.57270 0.20130 -0.35800
O 	O 	0.08730 0.58420 0.32850 -0.35900
O 	O 	0.09220 0.40000 0.21310 -0.36300
O 	O 	0.87520 0.57730 0.27190 -0.35000
O 	O 	0.87270 0.38840 0.15980 -0.38700
N 	N 	0.34220 0.59500 0.42810 -0.24900
N 	N 	0.52150 0.90440 0.69070 -0.07200
N 	N 	0.08830 0.36820 0.35730 -0.24900
N 	N 	0.93460 0.05090 0.45750 -0.07400
N 	N 	0.58690 0.35410 0.07340 -0.25400
N 	N 	0.41680 0.02370 0.82990 -0.07500
N 	N 	0.83420 0.58350 0.11200 -0.24900
N 	N 	0.02980 0.91690 0.02480 -0.07400
C 	C 	0.48080 0.43440 0.25690 0.21200
C 	C 	0.48230 0.53590 0.23840 0.19700
C 	C 	0.97850 0.54010 0.27620 0.21000
C 	C 	0.98190 0.43240 0.20920 0.22600
C 	C 	0.39860 0.70620 0.44360 0.10300
H 	H 	0.38510 0.73360 0.40390 -0.00600
C 	C 	0.47360 0.78100 0.51250 -0.20200
H 	H 	0.50890 0.85830 0.52090 0.09600
C 	C 	0.49720 0.74140 0.57000 0.17300
C 	C 	0.43930 0.63180 0.55670 -0.21600
H 	H 	0.44940 0.60360 0.59640 0.11700
C 	C 	0.36510 0.56020 0.48530 0.11500
H 	H 	0.32880 0.48280 0.47650 -0.01700
C 	C 	0.58870 0.81920 0.64640 -0.18900
H 	H 	0.59940 0.77470 0.67790 0.10100
H 	H 	0.68920 0.85670 0.63630 0.08500
C 	C 	0.38620 0.85120 0.71940 -0.06800
H 	H 	0.41120 0.81470 0.75360 0.06800
H 	H 	0.31570 0.79340 0.67540 0.06000
C 	C 	0.62410 0.98330 0.75810 -0.05700
H 	H 	0.71940 0.01810 0.74140 0.04500
H 	H 	0.64410 0.94370 0.79130 0.05100
C 	C 	0.00790 0.39320 0.41660 0.10900
H 	H 	0.00180 0.46670 0.43720 -0.01600
C 	C 	0.93400 0.31670 0.44850 -0.19800
H 	H 	0.88110 0.33910 0.49150 0.10100
C 	C 	0.93500 0.20830 0.41970 0.16300
C 	C 	0.00930 0.18340 0.35490 -0.20600
H 	H 	0.00710 0.10860 0.32910 0.09800
C 	C 	0.08440 0.26240 0.32750 0.11800
H 	H 	0.13760 0.24140 0.28450 -0.01300
C 	C 	0.85220 0.12580 0.45470 -0.18200
H 	H 	0.83410 0.16600 0.50770 0.08800
H 	H 	0.75480 0.08170 0.42390 0.08400
C 	C 	0.84310 0.96750 0.48860 -0.05600
H 	H 	0.74870 0.92460 0.45460 0.04600
H 	H 	0.81910 0.00620 0.54050 0.05000
C 	C 	0.07590 0.11040 0.50650 -0.06300
H 	H 	0.05740 0.15220 0.55900 0.06400
H 	H 	0.13850 0.16480 0.48530 0.05400
C 	C 	0.58270 0.24850 0.05570 0.10500
H 	H 	0.63220 0.22880 0.09080 -0.00900
C 	C 	0.50700 0.16660 0.98690 -0.20400
H 	H 	0.50720 0.09200 0.97420 0.09900
C 	C 	0.43240 0.19480 0.93790 0.17500
C 	C 	0.43300 0.30280 0.95880 -0.21900
H 	H 	0.37900 0.32410 0.92660 0.11200
C 	C 	0.51110 0.37870 0.02540 0.13000
H 	H 	0.51180 0.45370 0.03870 -0.02200
C 	C 	0.34610 0.11020 0.86330 -0.18600
H 	H 	0.24380 0.07530 0.87270 0.08600
H 	H 	0.34000 0.14770 0.82620 0.08900
C 	C 	0.31630 0.93560 0.76250 -0.05400
H 	H 	0.22430 0.89850 0.78060 0.04800
H 	H 	0.28870 0.97010 0.72750 0.05000
C 	C 	0.55780 0.07220 0.80320 -0.06100
H 	H 	0.62870 0.12630 0.84830 0.05100
H 	H 	0.54050 0.11280 0.77010 0.06000
C 	C 	0.85730 0.55280 0.03750 0.11800
H 	H 	0.81930 0.47590 0.00680 -0.01800
C 	C 	0.93110 0.62350 0.00270 -0.20900
H 	H 	0.94510 0.59560 0.94970 0.11300
C 	C 	0.98610 0.73690 0.04440 0.16100
C 	C 	0.96440 0.77120 0.12190 -0.19100
H 	H 	0.00100 0.84760 0.15370 0.09500
C 	C 	0.88790 0.69160 0.15220 0.10000
H 	H 	0.87310 0.71640 0.20520 -0.00300
C 	C 	0.08140 0.82080 0.01330 -0.18000
H 	H 	0.18410 0.84730 0.03870 0.08400
H 	H 	0.08390 0.78380 0.95730 0.09700
C 	C 	0.90390 0.89110 0.96920 -0.06600
H 	H 	0.82170 0.82890 0.97390 0.05800
H 	H 	0.93300 0.86690 0.91630 0.06100
C 	C 	0.14810 0.01020 0.01790 -0.05300
H 	H 	0.18130 0.98790 0.96580 0.04900
H 	H 	0.23390 0.03030 0.05620 0.04400
Co	Co	0.76990 0.51198 0.68265 1.16600
Co	Co	0.27550 0.52340 0.82856 1.16600
O 	O 	0.62410 0.60300 0.70700 -0.37500
O 	O 	0.61750 0.41920 0.73740 -0.34100
O 	O 	0.41590 0.60420 0.76230 -0.35600
O 	O 	0.41720 0.42730 0.79870 -0.35700
O 	O 	0.91270 0.41580 0.67150 -0.35900
O 	O 	0.90780 0.60000 0.78690 -0.36300
O 	O 	0.12480 0.42270 0.72810 -0.35000
O 	O 	0.12730 0.61160 0.84020 -0.38700
N 	N 	0.65780 0.40500 0.57190 -0.24900
N 	N 	0.47850 0.09560 0.30930 -0.07200
N 	N 	0.91170 0.63180 0.64270 -0.24900
N 	N 	0.06540 0.94910 0.54250 -0.07400
N 	N 	0.41310 0.64590 0.92660 -0.25400
N 	N 	0.58320 0.97630 0.17010 -0.07500
N 	N 	0.16580 0.41650 0.88800 -0.24900
N 	N 	0.97020 0.08310 0.97520 -0.07400
C 	C 	0.51920 0.56560 0.74310 0.21200
C 	C 	0.51770 0.46410 0.76160 0.19700
C 	C 	0.02150 0.45990 0.72380 0.21000
C 	C 	0.01810 0.56760 0.79080 0.22600
C 	C 	0.60140 0.29380 0.55640 0.10300
H 	H 	0.61490 0.26640 0.59610 -0.00600
C 	C 	0.52640 0.21900 0.48750 -0.20200
H 	H 	0.49110 0.14170 0.47910 0.09600
C 	C 	0.50280 0.25860 0.43000 0.17300
C 	C 	0.56070 0.36820 0.44330 -0.21600
H 	H 	0.55060 0.39640 0.40360 0.11700
C 	C 	0.63490 0.43980 0.51470 0.11500
H 	H 	0.67120 0.51720 0.52350 -0.01700
C 	C 	0.41130 0.18080 0.35360 -0.18900
H 	H 	0.40060 0.22530 0.32210 0.10100
H 	H 	0.31080 0.14330 0.36370 0.08500
C 	C 	0.61380 0.14880 0.28060 -0.06800
H 	H 	0.58880 0.18530 0.24640 0.06800
H 	H 	0.68430 0.20660 0.32460 0.06000
C 	C 	0.37590 0.01670 0.24190 -0.05700
H 	H 	0.28060 0.98190 0.25860 0.04500
H 	H 	0.35590 0.05630 0.20870 0.05100
C 	C 	0.99210 0.60680 0.58340 0.10900
H 	H 	0.99820 0.53330 0.56280 -0.01600
C 	C 	0.06600 0.68330 0.55150 -0.19800
H 	H 	0.11890 0.66090 0.50850 0.10100
C 	C 	0.06500 0.79170 0.58030 0.16300
C 	C 	0.99070 0.81660 0.64510 -0.20600
H 	H 	0.99290 0.89140 0.67090 0.09800
C 	C 	0.91560 0.73760 0.67250 0.11800
H 	H 	0.86240 0.75860 0.71550 -0.01300
C 	C 	0.14780 0.87420 0.54530 -0.18200
H 	H 	0.16590 0.83400 0.49230 0.08800
H 	H 	0.24520 0.91830 0.57610 0.08400
C 	C 	0.15690 0.03250 0.51140 -0.05600
H 	H 	0.25130 0.07540 0.54540 0.04600
H 	H 	0.18090 0.99380 0.45950 0.05000
C 	C 	0.92410 0.88960 0.49350 -0.06300
H 	H 	0.94260 0.84780 0.44100 0.06400
H 	H 	0.86150 0.83520 0.51470 0.05400
C 	C 	0.41730 0.75150 0.94430 0.10500
H 	H 	0.36780 0.77120 0.90920 -0.00900
C 	C 	0.49300 0.83340 0.01310 -0.20400
H 	H 	0.49280 0.90800 0.02580 0.09900
C 	C 	0.56760 0.80520 0.06210 0.17500
C 	C 	0.56700 0.69720 0.04120 -0.21900
H 	H 	0.62100 0.67590 0.07340 0.11200
C 	C 	0.48890 0.62130 0.97460 0.13000
H 	H 	0.48820 0.54630 0.96130 -0.02200
C 	C 	0.65390 0.88980 0.13670 -0.18600
H 	H 	0.75620 0.92470 0.12730 0.08600
H 	H 	0.66000 0.85230 0.17380 0.08900
C 	C 	0.68370 0.06440 0.23750 -0.05400
H 	H 	0.77570 0.10150 0.21940 0.04800
H 	H 	0.71130 0.02990 0.27250 0.05000
C 	C 	0.44220 0.92780 0.19680 -0.06100
H 	H 	0.37130 0.87370 0.15170 0.05100
H 	H 	0.45950 0.88720 0.22990 0.06000
C 	C 	0.14270 0.44720 0.96250 0.11800
H 	H 	0.18070 0.52410 0.99320 -0.01800
C 	C 	0.06890 0.37650 0.99730 -0.20900
H 	H 	0.05490 0.40440 0.05030 0.11300
C 	C 	0.01390 0.26310 0.95560 0.16100
C 	C 	0.03560 0.22880 0.87810 -0.19100
H 	H 	0.99900 0.15240 0.84630 0.09500
C 	C 	0.11210 0.30840 0.84780 0.10000
H 	H 	0.12690 0.28360 0.79480 -0.00300
C 	C 	0.91860 0.17920 0.98670 -0.18000
H 	H 	0.81590 0.15270 0.96130 0.08400
H 	H 	0.91610 0.21620 0.04270 0.09700
C 	C 	0.09610 0.10890 0.03080 -0.06600
H 	H 	0.17830 0.17110 0.02610 0.05800
H 	H 	0.06700 0.13310 0.08370 0.06100
C 	C 	0.85190 0.98980 0.98210 -0.05300
H 	H 	0.81870 0.01210 0.03420 0.04900
H 	H 	0.76610 0.96970 0.94380 0.04400
