data_crystal

_cell_length_a 52.93450
_cell_length_b 52.93450
_cell_length_c 52.93450
_cell_angle_alpha 90.00000
_cell_angle_beta  90.00000
_cell_angle_gamma 90.00000

_symmetry_space_group_name_	'P 1'
_symmetry_space_group_name_H-M	'P 1'

loop_
_symmetry_equiv_pos_as_xyz
  x,y,z

loop_
_atom_site_label
_atom_site_type_symbol
_atom_site_fract_x
_atom_site_fract_y
_atom_site_fract_z
_atom_site_charge
Zn	Zn	0.72820 0.27180 0.22820 1.11000
Zn	Zn	0.27180 0.72820 0.22820 1.11000
Zn	Zn	0.27180 0.27180 0.77180 1.11000
Zn	Zn	0.72820 0.72820 0.77180 1.11000
Zn	Zn	0.22820 0.72820 0.27180 1.11000
Zn	Zn	0.22820 0.22820 0.77180 1.11000
Zn	Zn	0.22820 0.27180 0.72820 1.11000
Zn	Zn	0.22820 0.77180 0.22820 1.11000
Zn	Zn	0.77180 0.27180 0.27180 1.11000
Zn	Zn	0.77180 0.77180 0.77180 1.11000
Zn	Zn	0.77180 0.72820 0.72820 1.11000
Zn	Zn	0.77180 0.22820 0.22820 1.11000
Zn	Zn	0.27180 0.22820 0.72820 1.11000
Zn	Zn	0.72820 0.22820 0.27180 1.11000
Zn	Zn	0.27180 0.77180 0.27180 1.11000
Zn	Zn	0.72820 0.77180 0.72820 1.11000
Zn	Zn	0.27180 0.72820 0.77180 1.11000
Zn	Zn	0.72820 0.27180 0.77180 1.11000
Zn	Zn	0.27180 0.27180 0.22820 1.11000
Zn	Zn	0.72820 0.72820 0.22820 1.11000
Zn	Zn	0.72820 0.22820 0.72820 1.11000
Zn	Zn	0.27180 0.22820 0.27180 1.11000
Zn	Zn	0.27180 0.77180 0.72820 1.11000
Zn	Zn	0.72820 0.77180 0.27180 1.11000
Zn	Zn	0.22820 0.27180 0.27180 1.11000
Zn	Zn	0.22820 0.77180 0.77180 1.11000
Zn	Zn	0.22820 0.72820 0.72820 1.11000
Zn	Zn	0.22820 0.22820 0.22820 1.11000
Zn	Zn	0.77180 0.27180 0.72820 1.11000
Zn	Zn	0.77180 0.77180 0.22820 1.11000
Zn	Zn	0.77180 0.72820 0.27180 1.11000
Zn	Zn	0.77180 0.22820 0.77180 1.11000
O 	O 	0.69000 0.26750 0.23250 -0.49300
C 	C 	0.64190 0.26620 0.23380 0.19100
H 	H 	0.65060 0.27700 0.22300 -0.00400
C 	C 	0.61550 0.26620 0.23380 -0.23700
H 	H 	0.60660 0.27690 0.22310 0.11500
O 	O 	0.19000 0.26750 0.73250 -0.49300
C 	C 	0.14190 0.26620 0.73380 0.19100
H 	H 	0.15060 0.27700 0.72300 -0.00400
C 	C 	0.11550 0.26620 0.73380 -0.23700
H 	H 	0.10660 0.27690 0.72310 0.11500
O 	O 	0.31000 0.73250 0.23250 -0.49300
C 	C 	0.35810 0.73380 0.23380 0.19100
H 	H 	0.34940 0.72300 0.22300 -0.00400
C 	C 	0.38450 0.73380 0.23380 -0.23700
H 	H 	0.39340 0.72310 0.22310 0.11500
O 	O 	0.81000 0.73250 0.73250 -0.49300
C 	C 	0.85810 0.73380 0.73380 0.19100
H 	H 	0.84940 0.72300 0.72300 -0.00400
C 	C 	0.88450 0.73380 0.73380 -0.23700
H 	H 	0.89340 0.72310 0.72310 0.11500
O 	O 	0.81000 0.23250 0.23250 -0.49300
C 	C 	0.85810 0.23380 0.23380 0.19100
H 	H 	0.84940 0.22300 0.22300 -0.00400
C 	C 	0.88450 0.23380 0.23380 -0.23700
H 	H 	0.89340 0.22310 0.22310 0.11500
O 	O 	0.31000 0.26750 0.76750 -0.49300
C 	C 	0.35810 0.26620 0.76620 0.19100
H 	H 	0.34940 0.27700 0.77700 -0.00400
C 	C 	0.38450 0.26620 0.76620 -0.23700
H 	H 	0.39340 0.27690 0.77690 0.11500
O 	O 	0.81000 0.26750 0.26750 -0.49300
C 	C 	0.85810 0.26620 0.26620 0.19100
H 	H 	0.84940 0.27700 0.27700 -0.00400
C 	C 	0.88450 0.26620 0.26620 -0.23700
H 	H 	0.89340 0.27690 0.27690 0.11500
O 	O 	0.69000 0.73250 0.76750 -0.49300
C 	C 	0.64190 0.73380 0.76620 0.19100
H 	H 	0.65060 0.72300 0.77700 -0.00400
C 	C 	0.61550 0.73380 0.76620 -0.23700
H 	H 	0.60660 0.72310 0.77690 0.11500
O 	O 	0.69000 0.23250 0.26750 -0.49300
C 	C 	0.64190 0.23380 0.26620 0.19100
H 	H 	0.65060 0.22300 0.27700 -0.00400
C 	C 	0.61550 0.23380 0.26620 -0.23700
H 	H 	0.60660 0.22310 0.27690 0.11500
O 	O 	0.19000 0.73250 0.26750 -0.49300
C 	C 	0.14190 0.73380 0.26620 0.19100
H 	H 	0.15060 0.72300 0.27700 -0.00400
C 	C 	0.11550 0.73380 0.26620 -0.23600
H 	H 	0.10660 0.72310 0.27690 0.11600
O 	O 	0.23250 0.69000 0.26750 -0.49200
C 	C 	0.23380 0.64190 0.26620 0.19200
H 	H 	0.22300 0.65060 0.27700 -0.00300
C 	C 	0.23380 0.61550 0.26620 -0.23600
H 	H 	0.22310 0.60660 0.27690 0.11600
O 	O 	0.23250 0.19000 0.76750 -0.49200
C 	C 	0.23380 0.14190 0.76620 0.19200
H 	H 	0.22300 0.15060 0.77700 -0.00300
C 	C 	0.23380 0.11550 0.76620 -0.23600
H 	H 	0.22310 0.10660 0.77690 0.11600
O 	O 	0.23250 0.31000 0.73250 -0.49200
C 	C 	0.23380 0.35810 0.73380 0.19200
H 	H 	0.22300 0.34940 0.72300 -0.00300
C 	C 	0.23380 0.38450 0.73380 -0.23600
H 	H 	0.22310 0.39340 0.72310 0.11600
O 	O 	0.23250 0.81000 0.23250 -0.49200
C 	C 	0.23380 0.85810 0.23380 0.19200
H 	H 	0.22300 0.84940 0.22300 -0.00300
C 	C 	0.23380 0.88450 0.23380 -0.23600
H 	H 	0.22310 0.89340 0.22310 0.11600
O 	O 	0.76750 0.31000 0.26750 -0.49200
C 	C 	0.76620 0.35810 0.26620 0.19200
H 	H 	0.77700 0.34940 0.27700 -0.00300
C 	C 	0.76620 0.38450 0.26620 -0.23600
H 	H 	0.77690 0.39340 0.27690 0.11600
O 	O 	0.76750 0.81000 0.76750 -0.49200
C 	C 	0.76620 0.85810 0.76620 0.19200
H 	H 	0.77700 0.84940 0.77700 -0.00300
C 	C 	0.76620 0.88450 0.76620 -0.23600
H 	H 	0.77690 0.89340 0.77690 0.11600
O 	O 	0.26750 0.81000 0.26750 -0.49200
C 	C 	0.26620 0.85810 0.26620 0.19200
H 	H 	0.27700 0.84940 0.27700 -0.00300
C 	C 	0.26620 0.88450 0.26620 -0.23600
H 	H 	0.27690 0.89340 0.27690 0.11600
O 	O 	0.76750 0.69000 0.73250 -0.49200
C 	C 	0.76620 0.64190 0.73380 0.19200
H 	H 	0.77700 0.65060 0.72300 -0.00300
C 	C 	0.76620 0.61550 0.73380 -0.23600
H 	H 	0.77690 0.60660 0.72310 0.11600
O 	O 	0.76750 0.19000 0.23250 -0.49200
C 	C 	0.76620 0.14190 0.23380 0.19200
H 	H 	0.77700 0.15060 0.22300 -0.00300
C 	C 	0.76620 0.11550 0.23380 -0.23600
H 	H 	0.77690 0.10660 0.22310 0.11600
O 	O 	0.26750 0.69000 0.23250 -0.49200
C 	C 	0.26620 0.64190 0.23380 0.19200
H 	H 	0.27700 0.65060 0.22300 -0.00300
C 	C 	0.26620 0.61550 0.23380 -0.23600
H 	H 	0.27690 0.60660 0.22310 0.11600
O 	O 	0.26750 0.23250 0.69000 -0.49200
C 	C 	0.26620 0.23380 0.64190 0.19200
H 	H 	0.27700 0.22300 0.65060 -0.00300
C 	C 	0.26620 0.23380 0.61550 -0.23600
H 	H 	0.27690 0.22310 0.60660 0.11600
O 	O 	0.26750 0.73250 0.19000 -0.49200
C 	C 	0.26620 0.73380 0.14190 0.19200
H 	H 	0.27700 0.72300 0.15060 -0.00300
C 	C 	0.26620 0.73380 0.11550 -0.23600
H 	H 	0.27690 0.72310 0.10660 0.11600
O 	O 	0.73250 0.23250 0.31000 -0.49200
C 	C 	0.73380 0.23380 0.35810 0.19200
H 	H 	0.72300 0.22300 0.34940 -0.00300
C 	C 	0.73380 0.23380 0.38450 -0.23600
H 	H 	0.72310 0.22310 0.39340 0.11600
O 	O 	0.73250 0.73250 0.81000 -0.49200
C 	C 	0.73380 0.73380 0.85810 0.19200
H 	H 	0.72300 0.72300 0.84940 -0.00300
C 	C 	0.73380 0.73380 0.88450 -0.23600
H 	H 	0.72310 0.72310 0.89340 0.11600
O 	O 	0.23250 0.23250 0.81000 -0.49200
C 	C 	0.23380 0.23380 0.85810 0.19200
H 	H 	0.22300 0.22300 0.84940 -0.00300
C 	C 	0.23380 0.23380 0.88450 -0.23600
H 	H 	0.22310 0.22310 0.89340 0.11600
O 	O 	0.26750 0.76750 0.31000 -0.49200
C 	C 	0.26620 0.76620 0.35810 0.19200
H 	H 	0.27700 0.77700 0.34940 -0.00300
C 	C 	0.26620 0.76620 0.38450 -0.23600
H 	H 	0.27690 0.77690 0.39340 0.11600
O 	O 	0.26750 0.26750 0.81000 -0.49200
C 	C 	0.26620 0.26620 0.85810 0.19200
H 	H 	0.27700 0.27700 0.84940 -0.00300
C 	C 	0.26620 0.26620 0.88450 -0.23600
H 	H 	0.27690 0.27690 0.89340 0.11600
O 	O 	0.73250 0.76750 0.69000 -0.49200
C 	C 	0.73380 0.76620 0.64190 0.19200
H 	H 	0.72300 0.77700 0.65060 -0.00300
C 	C 	0.73380 0.76620 0.61550 -0.23600
H 	H 	0.72310 0.77690 0.60660 0.11600
O 	O 	0.73250 0.26750 0.19000 -0.49200
C 	C 	0.73380 0.26620 0.14190 0.19200
H 	H 	0.72300 0.27700 0.15060 -0.00300
C 	C 	0.73380 0.26620 0.11550 -0.23600
H 	H 	0.72310 0.27690 0.10660 0.11600
O 	O 	0.23250 0.26750 0.69000 -0.49200
C 	C 	0.23380 0.26620 0.64190 0.19200
H 	H 	0.22300 0.27700 0.65060 -0.00300
C 	C 	0.23380 0.26620 0.61550 -0.23600
H 	H 	0.22310 0.27690 0.60660 0.11600
O 	O 	0.26750 0.69000 0.76750 -0.49200
C 	C 	0.26620 0.64190 0.76620 0.19200
H 	H 	0.27700 0.65060 0.77700 -0.00300
C 	C 	0.26620 0.61550 0.76620 -0.23600
H 	H 	0.27690 0.60660 0.77690 0.11600
O 	O 	0.26750 0.19000 0.26750 -0.49200
C 	C 	0.26620 0.14190 0.26620 0.19200
H 	H 	0.27700 0.15060 0.27700 -0.00300
C 	C 	0.26620 0.11550 0.26620 -0.23600
H 	H 	0.27690 0.10660 0.27690 0.11600
O 	O 	0.73250 0.31000 0.76750 -0.49200
C 	C 	0.73380 0.35810 0.76620 0.19200
H 	H 	0.72300 0.34940 0.77700 -0.00300
C 	C 	0.73380 0.38450 0.76620 -0.23600
H 	H 	0.72310 0.39340 0.77690 0.11600
O 	O 	0.73250 0.81000 0.26750 -0.49200
C 	C 	0.73380 0.85810 0.26620 0.19200
H 	H 	0.72300 0.84940 0.27700 -0.00300
C 	C 	0.73380 0.88450 0.26620 -0.23600
H 	H 	0.72310 0.89340 0.27690 0.11600
O 	O 	0.23250 0.31000 0.26750 -0.49200
C 	C 	0.23380 0.35810 0.26620 0.19200
H 	H 	0.22300 0.34940 0.27700 -0.00300
C 	C 	0.23380 0.38450 0.26620 -0.23600
H 	H 	0.22310 0.39340 0.27690 0.11600
O 	O 	0.26750 0.31000 0.23250 -0.49200
C 	C 	0.26620 0.35810 0.23380 0.19200
H 	H 	0.27700 0.34940 0.22300 -0.00300
C 	C 	0.26620 0.38450 0.23380 -0.23600
H 	H 	0.27690 0.39340 0.22310 0.11600
O 	O 	0.26750 0.81000 0.73250 -0.49200
C 	C 	0.26620 0.85810 0.73380 0.19200
H 	H 	0.27700 0.84940 0.72300 -0.00300
C 	C 	0.26620 0.88450 0.73380 -0.23600
H 	H 	0.27690 0.89340 0.72310 0.11600
O 	O 	0.73250 0.69000 0.23250 -0.49200
C 	C 	0.73380 0.64190 0.23380 0.19200
H 	H 	0.72300 0.65060 0.22300 -0.00300
C 	C 	0.73380 0.61550 0.23380 -0.23600
H 	H 	0.72310 0.60660 0.22310 0.11600
O 	O 	0.73250 0.19000 0.73250 -0.49200
C 	C 	0.73380 0.14190 0.73380 0.19200
H 	H 	0.72300 0.15060 0.72300 -0.00300
C 	C 	0.73380 0.11550 0.73380 -0.23600
H 	H 	0.72310 0.10660 0.72310 0.11600
O 	O 	0.23250 0.19000 0.23250 -0.49200
C 	C 	0.23380 0.14190 0.23380 0.19200
H 	H 	0.22300 0.15060 0.22300 -0.00300
C 	C 	0.23380 0.11550 0.23380 -0.23600
H 	H 	0.22310 0.10660 0.22310 0.11600
O 	O 	0.69000 0.23250 0.73250 -0.49200
C 	C 	0.64190 0.23380 0.73380 0.19200
H 	H 	0.65060 0.22300 0.72300 -0.00300
C 	C 	0.61550 0.23380 0.73380 -0.23600
H 	H 	0.60660 0.22310 0.72310 0.11600
O 	O 	0.19000 0.23250 0.23250 -0.49200
C 	C 	0.14190 0.23380 0.23380 0.19200
H 	H 	0.15060 0.22300 0.22300 -0.00300
C 	C 	0.11550 0.23380 0.23380 -0.23600
H 	H 	0.10660 0.22310 0.22310 0.11600
O 	O 	0.31000 0.23250 0.26750 -0.49200
C 	C 	0.35810 0.23380 0.26620 0.19200
H 	H 	0.34940 0.22300 0.27700 -0.00300
C 	C 	0.38450 0.23380 0.26620 -0.23600
H 	H 	0.39340 0.22310 0.27690 0.11600
O 	O 	0.81000 0.23250 0.76750 -0.49200
C 	C 	0.85810 0.23380 0.76620 0.19200
H 	H 	0.84940 0.22300 0.77700 -0.00300
C 	C 	0.88450 0.23380 0.76620 -0.23600
H 	H 	0.89340 0.22310 0.77690 0.11600
O 	O 	0.31000 0.76750 0.73250 -0.49200
C 	C 	0.35810 0.76620 0.73380 0.19200
H 	H 	0.34940 0.77700 0.72300 -0.00300
C 	C 	0.38450 0.76620 0.73380 -0.23600
H 	H 	0.39340 0.77690 0.72310 0.11600
O 	O 	0.31000 0.26750 0.23250 -0.49200
C 	C 	0.35810 0.26620 0.23380 0.19200
H 	H 	0.34940 0.27700 0.22300 -0.00300
C 	C 	0.38450 0.26620 0.23380 -0.23600
H 	H 	0.39340 0.27690 0.22310 0.11600
O 	O 	0.81000 0.76750 0.23250 -0.49200
C 	C 	0.85810 0.76620 0.23380 0.19200
H 	H 	0.84940 0.77700 0.22300 -0.00300
C 	C 	0.88450 0.76620 0.23380 -0.23600
H 	H 	0.89340 0.77690 0.22310 0.11600
O 	O 	0.69000 0.76750 0.26750 -0.49200
C 	C 	0.64190 0.76620 0.26620 0.19200
H 	H 	0.65060 0.77700 0.27700 -0.00300
C 	C 	0.61550 0.76620 0.26620 -0.23600
H 	H 	0.60660 0.77690 0.27690 0.11600
O 	O 	0.19000 0.76750 0.76750 -0.49200
C 	C 	0.14190 0.76620 0.76620 0.19200
H 	H 	0.15060 0.77700 0.77700 -0.00300
C 	C 	0.11550 0.76620 0.76620 -0.23600
H 	H 	0.10660 0.77690 0.77690 0.11600
O 	O 	0.19000 0.26750 0.26750 -0.49200
C 	C 	0.14190 0.26620 0.26620 0.19200
H 	H 	0.15060 0.27700 0.27700 -0.00300
C 	C 	0.11550 0.26620 0.26620 -0.23600
H 	H 	0.10660 0.27690 0.27690 0.11600
O 	O 	0.23250 0.26750 0.31000 -0.49200
C 	C 	0.23380 0.26620 0.35810 0.19200
H 	H 	0.22300 0.27700 0.34940 -0.00300
C 	C 	0.23380 0.26620 0.38450 -0.23600
H 	H 	0.22310 0.27690 0.39340 0.11600
O 	O 	0.23250 0.76750 0.81000 -0.49200
C 	C 	0.23380 0.76620 0.85810 0.19200
H 	H 	0.22300 0.77700 0.84940 -0.00300
C 	C 	0.23380 0.76620 0.88450 -0.23600
H 	H 	0.22310 0.77690 0.89340 0.11600
O 	O 	0.23250 0.73250 0.69000 -0.49200
C 	C 	0.23380 0.73380 0.64190 0.19200
H 	H 	0.22300 0.72300 0.65060 -0.00300
C 	C 	0.23380 0.73380 0.61550 -0.23600
H 	H 	0.22310 0.72310 0.60660 0.11600
O 	O 	0.23250 0.23250 0.19000 -0.49200
C 	C 	0.23380 0.23380 0.14190 0.19200
H 	H 	0.22300 0.22300 0.15060 -0.00300
C 	C 	0.23380 0.23380 0.11550 -0.23600
H 	H 	0.22310 0.22310 0.10660 0.11600
O 	O 	0.76750 0.26750 0.69000 -0.49200
C 	C 	0.76620 0.26620 0.64190 0.19200
H 	H 	0.77700 0.27700 0.65060 -0.00300
C 	C 	0.76620 0.26620 0.61550 -0.23600
H 	H 	0.77690 0.27690 0.60660 0.11600
O 	O 	0.76750 0.76750 0.19000 -0.49200
C 	C 	0.76620 0.76620 0.14190 0.19200
H 	H 	0.77700 0.77700 0.15060 -0.00300
C 	C 	0.76620 0.76620 0.11550 -0.23600
H 	H 	0.77690 0.77690 0.10660 0.11600
O 	O 	0.26750 0.26750 0.19000 -0.49200
C 	C 	0.26620 0.26620 0.14190 0.19200
H 	H 	0.27700 0.27700 0.15060 -0.00300
C 	C 	0.26620 0.26620 0.11550 -0.23600
H 	H 	0.27690 0.27690 0.10660 0.11600
O 	O 	0.76750 0.73250 0.31000 -0.49200
C 	C 	0.76620 0.73380 0.35810 0.19200
H 	H 	0.77700 0.72300 0.34940 -0.00300
C 	C 	0.76620 0.73380 0.38450 -0.23600
H 	H 	0.77690 0.72310 0.39340 0.11600
O 	O 	0.76750 0.23250 0.81000 -0.49200
C 	C 	0.76620 0.23380 0.85810 0.19200
H 	H 	0.77700 0.22300 0.84940 -0.00300
C 	C 	0.76620 0.23380 0.88450 -0.23600
H 	H 	0.77690 0.22310 0.89340 0.11600
O 	O 	0.26750 0.23250 0.31000 -0.49200
C 	C 	0.26620 0.23380 0.35810 0.19200
H 	H 	0.27700 0.22300 0.34940 -0.00300
C 	C 	0.26620 0.23380 0.38450 -0.23600
H 	H 	0.27690 0.22310 0.39340 0.11600
O 	O 	0.31000 0.73250 0.76750 -0.49200
C 	C 	0.35810 0.73380 0.76620 0.19200
H 	H 	0.34940 0.72300 0.77700 -0.00300
C 	C 	0.38450 0.73380 0.76620 -0.23600
H 	H 	0.39340 0.72310 0.77690 0.11600
O 	O 	0.81000 0.73250 0.26750 -0.49200
C 	C 	0.85810 0.73380 0.26620 0.19200
H 	H 	0.84940 0.72300 0.27700 -0.00300
C 	C 	0.88450 0.73380 0.26620 -0.23600
H 	H 	0.89340 0.72310 0.27690 0.11600
O 	O 	0.69000 0.26750 0.76750 -0.49200
C 	C 	0.64190 0.26620 0.76620 0.19200
H 	H 	0.65060 0.27700 0.77700 -0.00300
C 	C 	0.61550 0.26620 0.76620 -0.23600
H 	H 	0.60660 0.27690 0.77690 0.11600
O 	O 	0.69000 0.73250 0.23250 -0.49200
C 	C 	0.64190 0.73380 0.23380 0.19200
H 	H 	0.65060 0.72300 0.22300 -0.00300
C 	C 	0.61550 0.73380 0.23380 -0.23600
H 	H 	0.60660 0.72310 0.22310 0.11600
O 	O 	0.19000 0.73250 0.73250 -0.49200
C 	C 	0.14190 0.73380 0.73380 0.19200
H 	H 	0.15060 0.72300 0.72300 -0.00300
C 	C 	0.11550 0.73380 0.73380 -0.23600
H 	H 	0.10660 0.72310 0.72310 0.11600
O 	O 	0.81000 0.26750 0.73250 -0.49200
C 	C 	0.85810 0.26620 0.73380 0.19200
H 	H 	0.84940 0.27700 0.72300 -0.00300
C 	C 	0.88450 0.26620 0.73380 -0.23600
H 	H 	0.89340 0.27690 0.72310 0.11600
O 	O 	0.76750 0.31000 0.73250 -0.49200
C 	C 	0.76620 0.35810 0.73380 0.19200
H 	H 	0.77700 0.34940 0.72300 -0.00300
C 	C 	0.76620 0.38450 0.73380 -0.23600
H 	H 	0.77690 0.39340 0.72310 0.11600
O 	O 	0.76750 0.81000 0.23250 -0.49200
C 	C 	0.76620 0.85810 0.23380 0.19200
H 	H 	0.77700 0.84940 0.22300 -0.00300
C 	C 	0.76620 0.88450 0.23380 -0.23600
H 	H 	0.77690 0.89340 0.22310 0.11600
O 	O 	0.76750 0.69000 0.26750 -0.49200
C 	C 	0.76620 0.64190 0.26620 0.19200
H 	H 	0.77700 0.65060 0.27700 -0.00300
C 	C 	0.76620 0.61550 0.26620 -0.23600
H 	H 	0.77690 0.60660 0.27690 0.11600
O 	O 	0.76750 0.19000 0.76750 -0.49200
C 	C 	0.76620 0.14190 0.76620 0.19200
H 	H 	0.77700 0.15060 0.77700 -0.00300
C 	C 	0.76620 0.11550 0.76620 -0.23600
H 	H 	0.77690 0.10660 0.77690 0.11600
O 	O 	0.23250 0.69000 0.73250 -0.49200
C 	C 	0.23380 0.64190 0.73380 0.19200
H 	H 	0.22300 0.65060 0.72300 -0.00300
C 	C 	0.23380 0.61550 0.73380 -0.23600
H 	H 	0.22310 0.60660 0.72310 0.11600
O 	O 	0.23250 0.81000 0.76750 -0.49200
C 	C 	0.23380 0.85810 0.76620 0.19200
H 	H 	0.22300 0.84940 0.77700 -0.00300
C 	C 	0.23380 0.88450 0.76620 -0.23600
H 	H 	0.22310 0.89340 0.77690 0.11600
O 	O 	0.73250 0.76750 0.31000 -0.49200
C 	C 	0.73380 0.76620 0.35810 0.19200
H 	H 	0.72300 0.77700 0.34940 -0.00300
C 	C 	0.73380 0.76620 0.38450 -0.23600
H 	H 	0.72310 0.77690 0.39340 0.11600
O 	O 	0.73250 0.26750 0.81000 -0.49200
C 	C 	0.73380 0.26620 0.85810 0.19200
H 	H 	0.72300 0.27700 0.84940 -0.00300
C 	C 	0.73380 0.26620 0.88450 -0.23600
H 	H 	0.72310 0.27690 0.89340 0.11600
O 	O 	0.26750 0.76750 0.69000 -0.49200
C 	C 	0.26620 0.76620 0.64190 0.19200
H 	H 	0.27700 0.77700 0.65060 -0.00300
C 	C 	0.26620 0.76620 0.61550 -0.23600
H 	H 	0.27690 0.77690 0.60660 0.11600
O 	O 	0.73250 0.23250 0.69000 -0.49200
C 	C 	0.73380 0.23380 0.64190 0.19200
H 	H 	0.72300 0.22300 0.65060 -0.00300
C 	C 	0.73380 0.23380 0.61550 -0.23600
H 	H 	0.72310 0.22310 0.60660 0.11600
O 	O 	0.73250 0.73250 0.19000 -0.49200
C 	C 	0.73380 0.73380 0.14190 0.19200
H 	H 	0.72300 0.72300 0.15060 -0.00300
C 	C 	0.73380 0.73380 0.11550 -0.23600
H 	H 	0.72310 0.72310 0.10660 0.11600
O 	O 	0.26750 0.73250 0.81000 -0.49200
C 	C 	0.26620 0.73380 0.85810 0.19200
H 	H 	0.27700 0.72300 0.84940 -0.00300
C 	C 	0.26620 0.73380 0.88450 -0.23600
H 	H 	0.27690 0.72310 0.89340 0.11600
O 	O 	0.73250 0.31000 0.23250 -0.49200
C 	C 	0.73380 0.35810 0.23380 0.19200
H 	H 	0.72300 0.34940 0.22300 -0.00300
C 	C 	0.73380 0.38450 0.23380 -0.23600
H 	H 	0.72310 0.39340 0.22310 0.11600
O 	O 	0.73250 0.81000 0.73250 -0.49200
C 	C 	0.73380 0.85810 0.73380 0.19200
H 	H 	0.72300 0.84940 0.72300 -0.00300
C 	C 	0.73380 0.88450 0.73380 -0.23600
H 	H 	0.72310 0.89340 0.72310 0.11600
O 	O 	0.26750 0.19000 0.73250 -0.49200
C 	C 	0.26620 0.14190 0.73380 0.19200
H 	H 	0.27700 0.15060 0.72300 -0.00300
C 	C 	0.26620 0.11550 0.73380 -0.23600
H 	H 	0.27690 0.10660 0.72310 0.11600
O 	O 	0.73250 0.69000 0.76750 -0.49200
C 	C 	0.73380 0.64190 0.76620 0.19200
H 	H 	0.72300 0.65060 0.77700 -0.00300
C 	C 	0.73380 0.61550 0.76620 -0.23600
H 	H 	0.72310 0.60660 0.77690 0.11600
O 	O 	0.73250 0.19000 0.26750 -0.49200
C 	C 	0.73380 0.14190 0.26620 0.19200
H 	H 	0.72300 0.15060 0.27700 -0.00300
C 	C 	0.73380 0.11550 0.26620 -0.23600
H 	H 	0.72310 0.10660 0.27690 0.11600
O 	O 	0.26750 0.31000 0.76750 -0.49200
C 	C 	0.26620 0.35810 0.76620 0.19200
H 	H 	0.27700 0.34940 0.77700 -0.00300
C 	C 	0.26620 0.38450 0.76620 -0.23600
H 	H 	0.27690 0.39340 0.77690 0.11600
O 	O 	0.31000 0.76750 0.26750 -0.49200
C 	C 	0.35810 0.76620 0.26620 0.19200
H 	H 	0.34940 0.77700 0.27700 -0.00300
C 	C 	0.38450 0.76620 0.26620 -0.23600
H 	H 	0.39340 0.77690 0.27690 0.11600
O 	O 	0.81000 0.76750 0.76750 -0.49200
C 	C 	0.85810 0.76620 0.76620 0.19200
H 	H 	0.84940 0.77700 0.77700 -0.00300
C 	C 	0.88450 0.76620 0.76620 -0.23600
H 	H 	0.89340 0.77690 0.77690 0.11600
O 	O 	0.69000 0.76750 0.73250 -0.49200
C 	C 	0.64190 0.76620 0.73380 0.19200
H 	H 	0.65060 0.77700 0.72300 -0.00300
C 	C 	0.61550 0.76620 0.73380 -0.23600
H 	H 	0.60660 0.77690 0.72310 0.11600
O 	O 	0.19000 0.76750 0.23250 -0.49200
C 	C 	0.14190 0.76620 0.23380 0.19200
H 	H 	0.15060 0.77700 0.22300 -0.00300
C 	C 	0.11550 0.76620 0.23380 -0.23600
H 	H 	0.10660 0.77690 0.22310 0.11600
O 	O 	0.19000 0.23250 0.76750 -0.49200
C 	C 	0.14190 0.23380 0.76620 0.19200
H 	H 	0.15060 0.22300 0.77700 -0.00300
C 	C 	0.11550 0.23380 0.76620 -0.23600
H 	H 	0.10660 0.22310 0.77690 0.11600
O 	O 	0.31000 0.23250 0.73250 -0.49200
C 	C 	0.35810 0.23380 0.73380 0.19200
H 	H 	0.34940 0.22300 0.72300 -0.00300
C 	C 	0.38450 0.23380 0.73380 -0.23600
H 	H 	0.39340 0.22310 0.72310 0.11600
O 	O 	0.76750 0.73250 0.69000 -0.49200
C 	C 	0.76620 0.73380 0.64190 0.19200
H 	H 	0.77700 0.72300 0.65060 -0.00300
C 	C 	0.76620 0.73380 0.61550 -0.23600
H 	H 	0.77690 0.72310 0.60660 0.11600
O 	O 	0.76750 0.23250 0.19000 -0.49200
C 	C 	0.76620 0.23380 0.14190 0.19200
H 	H 	0.77700 0.22300 0.15060 -0.00300
C 	C 	0.76620 0.23380 0.11550 -0.23600
H 	H 	0.77690 0.22310 0.10660 0.11600
O 	O 	0.76750 0.26750 0.31000 -0.49200
C 	C 	0.76620 0.26620 0.35810 0.19200
H 	H 	0.77700 0.27700 0.34940 -0.00300
C 	C 	0.76620 0.26620 0.38450 -0.23600
H 	H 	0.77690 0.27690 0.39340 0.11600
O 	O 	0.76750 0.76750 0.81000 -0.49200
C 	C 	0.76620 0.76620 0.85810 0.19200
H 	H 	0.77700 0.77700 0.84940 -0.00300
C 	C 	0.76620 0.76620 0.88450 -0.23600
H 	H 	0.77690 0.77690 0.89340 0.11600
O 	O 	0.23250 0.73250 0.31000 -0.49200
C 	C 	0.23380 0.73380 0.35810 0.19200
H 	H 	0.22300 0.72300 0.34940 -0.00300
C 	C 	0.23380 0.73380 0.38450 -0.23600
H 	H 	0.22310 0.72310 0.39340 0.11600
O 	O 	0.23250 0.76750 0.19000 -0.49200
C 	C 	0.23380 0.76620 0.14190 0.19200
H 	H 	0.22300 0.77700 0.15060 -0.00300
C 	C 	0.23380 0.76620 0.11550 -0.23600
H 	H 	0.22310 0.77690 0.10660 0.11600
Zn	Zn	0.72884 0.22884 0.22884 1.13200
Zn	Zn	0.72884 0.72884 0.72884 1.13200
Zn	Zn	0.27116 0.77116 0.22884 1.13200
Zn	Zn	0.27116 0.27116 0.72884 1.13200
Zn	Zn	0.77116 0.77116 0.72884 1.13200
Zn	Zn	0.27116 0.22884 0.77116 1.13200
Zn	Zn	0.27116 0.72884 0.27116 1.13200
Zn	Zn	0.77116 0.72884 0.77116 1.13200
Zn	Zn	0.72884 0.77116 0.77116 1.13200
Zn	Zn	0.72884 0.27116 0.27116 1.13200
Zn	Zn	0.22884 0.72884 0.22884 1.13200
Zn	Zn	0.22884 0.27116 0.77116 1.13200
Zn	Zn	0.77116 0.27116 0.22884 1.13200
Zn	Zn	0.22884 0.22884 0.72884 1.13200
Zn	Zn	0.77116 0.22884 0.27116 1.13200
Zn	Zn	0.22884 0.77116 0.27116 1.13200
Zn	Zn	0.22884 0.72884 0.77116 1.13200
Zn	Zn	0.72884 0.72884 0.27116 1.13200
Zn	Zn	0.77116 0.27116 0.77116 1.13200
Zn	Zn	0.22884 0.27116 0.22884 1.13200
Zn	Zn	0.22884 0.77116 0.72884 1.13200
Zn	Zn	0.72884 0.77116 0.22884 1.13200
Zn	Zn	0.77116 0.72884 0.22884 1.13200
Zn	Zn	0.72884 0.22884 0.77116 1.13200
Zn	Zn	0.27116 0.22884 0.22884 1.13200
Zn	Zn	0.27116 0.72884 0.72884 1.13200
Zn	Zn	0.77116 0.22884 0.72884 1.13200
Zn	Zn	0.27116 0.77116 0.77116 1.13200
Zn	Zn	0.27116 0.27116 0.27116 1.13200
Zn	Zn	0.72884 0.27116 0.72884 1.13200
Zn	Zn	0.22884 0.22884 0.27116 1.13200
Zn	Zn	0.77116 0.77116 0.27116 1.13200
O 	O 	0.69380 0.23540 0.23540 -0.68300
C 	C 	0.51350 0.23365 0.23365 -0.04700
H 	H 	0.52250 0.22290 0.22290 0.04700
C 	C 	0.61530 0.23400 0.23400 -0.24800
H 	H 	0.60630 0.22330 0.22330 0.11900
C 	C 	0.64210 0.23400 0.23400 0.20700
H 	H 	0.65090 0.22330 0.22330 -0.01200
O 	O 	0.69380 0.73540 0.73540 -0.68300
C 	C 	0.51350 0.73365 0.73365 -0.04700
H 	H 	0.52250 0.72290 0.72290 0.04700
C 	C 	0.61530 0.73400 0.73400 -0.24800
H 	H 	0.60630 0.72330 0.72330 0.11900
C 	C 	0.64210 0.73400 0.73400 0.20700
H 	H 	0.65090 0.72330 0.72330 -0.01200
O 	O 	0.19380 0.23540 0.73540 -0.68300
C 	C 	0.01350 0.23365 0.73365 -0.04700
H 	H 	0.02250 0.22290 0.72290 0.04700
C 	C 	0.11530 0.23400 0.73400 -0.24800
H 	H 	0.10630 0.22330 0.72330 0.11900
C 	C 	0.14210 0.23400 0.73400 0.20700
H 	H 	0.15090 0.22330 0.72330 -0.01200
O 	O 	0.19380 0.73540 0.23540 -0.68300
C 	C 	0.01350 0.73365 0.23365 -0.04700
H 	H 	0.02250 0.72290 0.22290 0.04700
C 	C 	0.11530 0.73400 0.23400 -0.24800
H 	H 	0.10630 0.72330 0.22330 0.11900
C 	C 	0.14210 0.73400 0.23400 0.20700
H 	H 	0.15090 0.72330 0.22330 -0.01200
O 	O 	0.30620 0.76460 0.23540 -0.68300
C 	C 	0.48650 0.76635 0.23365 -0.04700
H 	H 	0.47750 0.77710 0.22290 0.04700
C 	C 	0.38470 0.76600 0.23400 -0.24800
H 	H 	0.39370 0.77670 0.22330 0.11900
C 	C 	0.35790 0.76600 0.23400 0.20700
H 	H 	0.34910 0.77670 0.22330 -0.01200
O 	O 	0.30620 0.26460 0.73540 -0.68300
C 	C 	0.48650 0.26635 0.73365 -0.04700
H 	H 	0.47750 0.27710 0.72290 0.04700
C 	C 	0.38470 0.26600 0.73400 -0.24800
H 	H 	0.39370 0.27670 0.72330 0.11900
C 	C 	0.35790 0.26600 0.73400 0.20700
H 	H 	0.34910 0.27670 0.72330 -0.01200
O 	O 	0.80620 0.76460 0.73540 -0.68300
C 	C 	0.98650 0.76635 0.73365 -0.04700
H 	H 	0.97750 0.77710 0.72290 0.04700
C 	C 	0.88470 0.76600 0.73400 -0.24800
H 	H 	0.89370 0.77670 0.72330 0.11900
C 	C 	0.85790 0.76600 0.73400 0.20700
H 	H 	0.84910 0.77670 0.72330 -0.01200
O 	O 	0.80620 0.26460 0.23540 -0.68300
C 	C 	0.98650 0.26635 0.23365 -0.04700
H 	H 	0.97750 0.27710 0.22290 0.04700
C 	C 	0.88470 0.26600 0.23400 -0.24800
H 	H 	0.89370 0.27670 0.22330 0.11900
C 	C 	0.85790 0.26600 0.23400 0.20700
H 	H 	0.84910 0.27670 0.22330 -0.01200
O 	O 	0.30620 0.23540 0.76460 -0.68300
C 	C 	0.48650 0.23365 0.76635 -0.04700
H 	H 	0.47750 0.22290 0.77710 0.04700
C 	C 	0.38470 0.23400 0.76600 -0.24800
H 	H 	0.39370 0.22330 0.77670 0.11900
C 	C 	0.35790 0.23400 0.76600 0.20700
H 	H 	0.34910 0.22330 0.77670 -0.01200
O 	O 	0.30620 0.73540 0.26460 -0.68300
C 	C 	0.48650 0.73365 0.26635 -0.04700
H 	H 	0.47750 0.72290 0.27710 0.04700
C 	C 	0.38470 0.73400 0.26600 -0.24800
H 	H 	0.39370 0.72330 0.27670 0.11900
C 	C 	0.35790 0.73400 0.26600 0.20700
H 	H 	0.34910 0.72330 0.27670 -0.01200
O 	O 	0.80620 0.23540 0.26460 -0.68300
C 	C 	0.98650 0.23365 0.26635 -0.04700
H 	H 	0.97750 0.22290 0.27710 0.04700
C 	C 	0.88470 0.23400 0.26600 -0.24800
H 	H 	0.89370 0.22330 0.27670 0.11900
C 	C 	0.85790 0.23400 0.26600 0.20700
H 	H 	0.84910 0.22330 0.27670 -0.01200
O 	O 	0.80620 0.73540 0.76460 -0.68300
C 	C 	0.98650 0.73365 0.76635 -0.04700
H 	H 	0.97750 0.72290 0.77710 0.04700
C 	C 	0.88470 0.73400 0.76600 -0.24800
H 	H 	0.89370 0.72330 0.77670 0.11900
C 	C 	0.85790 0.73400 0.76600 0.20700
H 	H 	0.84910 0.72330 0.77670 -0.01200
O 	O 	0.69380 0.76460 0.76460 -0.68300
C 	C 	0.51350 0.76635 0.76635 -0.04700
H 	H 	0.52250 0.77710 0.77710 0.04700
C 	C 	0.61530 0.76600 0.76600 -0.24800
H 	H 	0.60630 0.77670 0.77670 0.11900
C 	C 	0.64210 0.76600 0.76600 0.20700
H 	H 	0.65090 0.77670 0.77670 -0.01200
O 	O 	0.69380 0.26460 0.26460 -0.68300
C 	C 	0.51350 0.26635 0.26635 -0.04700
H 	H 	0.52250 0.27710 0.27710 0.04700
C 	C 	0.61530 0.26600 0.26600 -0.24800
H 	H 	0.60630 0.27670 0.27670 0.11900
C 	C 	0.64210 0.26600 0.26600 0.20700
H 	H 	0.65090 0.27670 0.27670 -0.01200
O 	O 	0.19380 0.76460 0.26460 -0.68300
C 	C 	0.01350 0.76635 0.26635 -0.04700
H 	H 	0.02250 0.77710 0.27710 0.04700
C 	C 	0.11530 0.76600 0.26600 -0.24800
H 	H 	0.10630 0.77670 0.27670 0.11900
C 	C 	0.14210 0.76600 0.26600 0.20700
H 	H 	0.15090 0.77670 0.27670 -0.01200
O 	O 	0.19380 0.26460 0.76460 -0.68300
C 	C 	0.01350 0.26635 0.76635 -0.04700
H 	H 	0.02250 0.27710 0.77710 0.04700
C 	C 	0.11530 0.26600 0.76600 -0.24800
H 	H 	0.10630 0.27670 0.77670 0.11900
C 	C 	0.14210 0.26600 0.76600 0.20700
H 	H 	0.15090 0.27670 0.77670 -0.01200
O 	O 	0.23540 0.69380 0.23540 -0.68300
C 	C 	0.23365 0.51350 0.23365 -0.04700
H 	H 	0.22290 0.52250 0.22290 0.04700
C 	C 	0.23400 0.61530 0.23400 -0.24800
H 	H 	0.22330 0.60630 0.22330 0.11900
C 	C 	0.23400 0.64210 0.23400 0.20700
H 	H 	0.22330 0.65090 0.22330 -0.01200
O 	O 	0.23540 0.19380 0.73540 -0.68300
C 	C 	0.23365 0.01350 0.73365 -0.04700
H 	H 	0.22290 0.02250 0.72290 0.04700
C 	C 	0.23400 0.11530 0.73400 -0.24800
H 	H 	0.22330 0.10630 0.72330 0.11900
C 	C 	0.23400 0.14210 0.73400 0.20700
H 	H 	0.22330 0.15090 0.72330 -0.01200
O 	O 	0.73540 0.69380 0.73540 -0.68300
C 	C 	0.73365 0.51350 0.73365 -0.04700
H 	H 	0.72290 0.52250 0.72290 0.04700
C 	C 	0.73400 0.61530 0.73400 -0.24800
H 	H 	0.72330 0.60630 0.72330 0.11900
C 	C 	0.73400 0.64210 0.73400 0.20700
H 	H 	0.72330 0.65090 0.72330 -0.01200
O 	O 	0.73540 0.19380 0.23540 -0.68300
C 	C 	0.73365 0.01350 0.23365 -0.04700
H 	H 	0.72290 0.02250 0.22290 0.04700
C 	C 	0.73400 0.11530 0.23400 -0.24800
H 	H 	0.72330 0.10630 0.22330 0.11900
C 	C 	0.73400 0.14210 0.23400 0.20700
H 	H 	0.72330 0.15090 0.22330 -0.01200
O 	O 	0.23540 0.30620 0.76460 -0.68300
C 	C 	0.23365 0.48650 0.76635 -0.04700
H 	H 	0.22290 0.47750 0.77710 0.04700
C 	C 	0.23400 0.38470 0.76600 -0.24800
H 	H 	0.22330 0.39370 0.77670 0.11900
C 	C 	0.23400 0.35790 0.76600 0.20700
H 	H 	0.22330 0.34910 0.77670 -0.01200
O 	O 	0.23540 0.80620 0.26460 -0.68300
C 	C 	0.23365 0.98650 0.26635 -0.04700
H 	H 	0.22290 0.97750 0.27710 0.04700
C 	C 	0.23400 0.88470 0.26600 -0.24800
H 	H 	0.22330 0.89370 0.27670 0.11900
C 	C 	0.23400 0.85790 0.26600 0.20700
H 	H 	0.22330 0.84910 0.27670 -0.01200
O 	O 	0.73540 0.30620 0.26460 -0.68300
C 	C 	0.73365 0.48650 0.26635 -0.04700
H 	H 	0.72290 0.47750 0.27710 0.04700
C 	C 	0.73400 0.38470 0.26600 -0.24800
H 	H 	0.72330 0.39370 0.27670 0.11900
C 	C 	0.73400 0.35790 0.26600 0.20700
H 	H 	0.72330 0.34910 0.27670 -0.01200
O 	O 	0.73540 0.80620 0.76460 -0.68300
C 	C 	0.73365 0.98650 0.76635 -0.04700
H 	H 	0.72290 0.97750 0.77710 0.04700
C 	C 	0.73400 0.88470 0.76600 -0.24800
H 	H 	0.72330 0.89370 0.77670 0.11900
C 	C 	0.73400 0.85790 0.76600 0.20700
H 	H 	0.72330 0.84910 0.77670 -0.01200
O 	O 	0.76460 0.30620 0.23540 -0.68300
C 	C 	0.76635 0.48650 0.23365 -0.04700
H 	H 	0.77710 0.47750 0.22290 0.04700
C 	C 	0.76600 0.38470 0.23400 -0.24800
H 	H 	0.77670 0.39370 0.22330 0.11900
C 	C 	0.76600 0.35790 0.23400 0.20700
H 	H 	0.77670 0.34910 0.22330 -0.01200
O 	O 	0.76460 0.80620 0.73540 -0.68300
C 	C 	0.76635 0.98650 0.73365 -0.04700
H 	H 	0.77710 0.97750 0.72290 0.04700
C 	C 	0.76600 0.88470 0.73400 -0.24800
H 	H 	0.77670 0.89370 0.72330 0.11900
C 	C 	0.76600 0.85790 0.73400 0.20700
H 	H 	0.77670 0.84910 0.72330 -0.01200
O 	O 	0.26460 0.30620 0.73540 -0.68300
C 	C 	0.26635 0.48650 0.73365 -0.04700
H 	H 	0.27710 0.47750 0.72290 0.04700
C 	C 	0.26600 0.38470 0.73400 -0.24800
H 	H 	0.27670 0.39370 0.72330 0.11900
C 	C 	0.26600 0.35790 0.73400 0.20700
H 	H 	0.27670 0.34910 0.72330 -0.01200
O 	O 	0.26460 0.80620 0.23540 -0.68300
C 	C 	0.26635 0.98650 0.23365 -0.04700
H 	H 	0.27710 0.97750 0.22290 0.04700
C 	C 	0.26600 0.88470 0.23400 -0.24800
H 	H 	0.27670 0.89370 0.22330 0.11900
C 	C 	0.26600 0.85790 0.23400 0.20700
H 	H 	0.27670 0.84910 0.22330 -0.01200
O 	O 	0.76460 0.69380 0.76460 -0.68300
C 	C 	0.76635 0.51350 0.76635 -0.04700
H 	H 	0.77710 0.52250 0.77710 0.04700
C 	C 	0.76600 0.61530 0.76600 -0.24800
H 	H 	0.77670 0.60630 0.77670 0.11900
C 	C 	0.76600 0.64210 0.76600 0.20700
H 	H 	0.77670 0.65090 0.77670 -0.01200
O 	O 	0.76460 0.19380 0.26460 -0.68300
C 	C 	0.76635 0.01350 0.26635 -0.04700
H 	H 	0.77710 0.02250 0.27710 0.04700
C 	C 	0.76600 0.11530 0.26600 -0.24800
H 	H 	0.77670 0.10630 0.27670 0.11900
C 	C 	0.76600 0.14210 0.26600 0.20700
H 	H 	0.77670 0.15090 0.27670 -0.01200
O 	O 	0.26460 0.69380 0.26460 -0.68300
C 	C 	0.26635 0.51350 0.26635 -0.04700
H 	H 	0.27710 0.52250 0.27710 0.04700
C 	C 	0.26600 0.61530 0.26600 -0.24800
H 	H 	0.27670 0.60630 0.27670 0.11900
C 	C 	0.26600 0.64210 0.26600 0.20700
H 	H 	0.27670 0.65090 0.27670 -0.01200
O 	O 	0.26460 0.19380 0.76460 -0.68300
C 	C 	0.26635 0.01350 0.76635 -0.04700
H 	H 	0.27710 0.02250 0.77710 0.04700
C 	C 	0.26600 0.11530 0.76600 -0.24800
H 	H 	0.27670 0.10630 0.77670 0.11900
C 	C 	0.26600 0.14210 0.76600 0.20700
H 	H 	0.27670 0.15090 0.77670 -0.01200
O 	O 	0.23540 0.23540 0.69380 -0.68300
C 	C 	0.23365 0.23365 0.51350 -0.04700
H 	H 	0.22290 0.22290 0.52250 0.04700
C 	C 	0.23400 0.23400 0.61530 -0.24800
H 	H 	0.22330 0.22330 0.60630 0.11900
C 	C 	0.23400 0.23400 0.64210 0.20700
H 	H 	0.22330 0.22330 0.65090 -0.01200
O 	O 	0.23540 0.73540 0.19380 -0.68300
C 	C 	0.23365 0.73365 0.01350 -0.04700
H 	H 	0.22290 0.72290 0.02250 0.04700
C 	C 	0.23400 0.73400 0.11530 -0.24800
H 	H 	0.22330 0.72330 0.10630 0.11900
C 	C 	0.23400 0.73400 0.14210 0.20700
H 	H 	0.22330 0.72330 0.15090 -0.01200
O 	O 	0.73540 0.23540 0.19380 -0.68300
C 	C 	0.73365 0.23365 0.01350 -0.04700
H 	H 	0.72290 0.22290 0.02250 0.04700
C 	C 	0.73400 0.23400 0.11530 -0.24800
H 	H 	0.72330 0.22330 0.10630 0.11900
C 	C 	0.73400 0.23400 0.14210 0.20700
H 	H 	0.72330 0.22330 0.15090 -0.01200
O 	O 	0.73540 0.73540 0.69380 -0.68300
C 	C 	0.73365 0.73365 0.51350 -0.04700
H 	H 	0.72290 0.72290 0.52250 0.04700
C 	C 	0.73400 0.73400 0.61530 -0.24800
H 	H 	0.72330 0.72330 0.60630 0.11900
C 	C 	0.73400 0.73400 0.64210 0.20700
H 	H 	0.72330 0.72330 0.65090 -0.01200
O 	O 	0.76460 0.23540 0.30620 -0.68300
C 	C 	0.76635 0.23365 0.48650 -0.04700
H 	H 	0.77710 0.22290 0.47750 0.04700
C 	C 	0.76600 0.23400 0.38470 -0.24800
H 	H 	0.77670 0.22330 0.39370 0.11900
C 	C 	0.76600 0.23400 0.35790 0.20700
H 	H 	0.77670 0.22330 0.34910 -0.01200
O 	O 	0.76460 0.73540 0.80620 -0.68300
C 	C 	0.76635 0.73365 0.98650 -0.04700
H 	H 	0.77710 0.72290 0.97750 0.04700
C 	C 	0.76600 0.73400 0.88470 -0.24800
H 	H 	0.77670 0.72330 0.89370 0.11900
C 	C 	0.76600 0.73400 0.85790 0.20700
H 	H 	0.77670 0.72330 0.84910 -0.01200
O 	O 	0.26460 0.23540 0.80620 -0.68300
C 	C 	0.26635 0.23365 0.98650 -0.04700
H 	H 	0.27710 0.22290 0.97750 0.04700
C 	C 	0.26600 0.23400 0.88470 -0.24800
H 	H 	0.27670 0.22330 0.89370 0.11900
C 	C 	0.26600 0.23400 0.85790 0.20700
H 	H 	0.27670 0.22330 0.84910 -0.01200
O 	O 	0.26460 0.73540 0.30620 -0.68300
C 	C 	0.26635 0.73365 0.48650 -0.04700
H 	H 	0.27710 0.72290 0.47750 0.04700
C 	C 	0.26600 0.73400 0.38470 -0.24800
H 	H 	0.27670 0.72330 0.39370 0.11900
C 	C 	0.26600 0.73400 0.35790 0.20700
H 	H 	0.27670 0.72330 0.34910 -0.01200
O 	O 	0.23540 0.76460 0.30620 -0.68300
C 	C 	0.23365 0.76635 0.48650 -0.04700
H 	H 	0.22290 0.77710 0.47750 0.04700
C 	C 	0.23400 0.76600 0.38470 -0.24800
H 	H 	0.22330 0.77670 0.39370 0.11900
C 	C 	0.23400 0.76600 0.35790 0.20700
H 	H 	0.22330 0.77670 0.34910 -0.01200
O 	O 	0.23540 0.26460 0.80620 -0.68300
C 	C 	0.23365 0.26635 0.98650 -0.04700
H 	H 	0.22290 0.27710 0.97750 0.04700
C 	C 	0.23400 0.26600 0.88470 -0.24800
H 	H 	0.22330 0.27670 0.89370 0.11900
C 	C 	0.23400 0.26600 0.85790 0.20700
H 	H 	0.22330 0.27670 0.84910 -0.01200
O 	O 	0.73540 0.76460 0.80620 -0.68300
C 	C 	0.73365 0.76635 0.98650 -0.04700
H 	H 	0.72290 0.77710 0.97750 0.04700
C 	C 	0.73400 0.76600 0.88470 -0.24800
H 	H 	0.72330 0.77670 0.89370 0.11900
C 	C 	0.73400 0.76600 0.85790 0.20700
H 	H 	0.72330 0.77670 0.84910 -0.01200
O 	O 	0.73540 0.26460 0.30620 -0.68300
C 	C 	0.73365 0.26635 0.48650 -0.04700
H 	H 	0.72290 0.27710 0.47750 0.04700
C 	C 	0.73400 0.26600 0.38470 -0.24800
H 	H 	0.72330 0.27670 0.39370 0.11900
C 	C 	0.73400 0.26600 0.35790 0.20700
H 	H 	0.72330 0.27670 0.34910 -0.01200
O 	O 	0.76460 0.76460 0.69380 -0.68300
C 	C 	0.76635 0.76635 0.51350 -0.04700
H 	H 	0.77710 0.77710 0.52250 0.04700
C 	C 	0.76600 0.76600 0.61530 -0.24800
H 	H 	0.77670 0.77670 0.60630 0.11900
C 	C 	0.76600 0.76600 0.64210 0.20700
H 	H 	0.77670 0.77670 0.65090 -0.01200
O 	O 	0.76460 0.26460 0.19380 -0.68300
C 	C 	0.76635 0.26635 0.01350 -0.04700
H 	H 	0.77710 0.27710 0.02250 0.04700
C 	C 	0.76600 0.26600 0.11530 -0.24800
H 	H 	0.77670 0.27670 0.10630 0.11900
C 	C 	0.76600 0.26600 0.14210 0.20700
H 	H 	0.77670 0.27670 0.15090 -0.01200
O 	O 	0.26460 0.76460 0.19380 -0.68300
C 	C 	0.26635 0.76635 0.01350 -0.04700
H 	H 	0.27710 0.77710 0.02250 0.04700
C 	C 	0.26600 0.76600 0.11530 -0.24800
H 	H 	0.27670 0.77670 0.10630 0.11900
C 	C 	0.26600 0.76600 0.14210 0.20700
H 	H 	0.27670 0.77670 0.15090 -0.01200
O 	O 	0.26460 0.26460 0.69380 -0.68300
C 	C 	0.26635 0.26635 0.51350 -0.04700
H 	H 	0.27710 0.27710 0.52250 0.04700
C 	C 	0.26600 0.26600 0.61530 -0.24800
H 	H 	0.27670 0.27670 0.60630 0.11900
C 	C 	0.26600 0.26600 0.64210 0.20700
H 	H 	0.27670 0.27670 0.65090 -0.01200
O 	O 	0.23540 0.69380 0.76460 -0.68300
C 	C 	0.23365 0.51350 0.76635 -0.04700
H 	H 	0.22290 0.52250 0.77710 0.04700
C 	C 	0.23400 0.61530 0.76600 -0.24800
H 	H 	0.22330 0.60630 0.77670 0.11900
C 	C 	0.23400 0.64210 0.76600 0.20700
H 	H 	0.22330 0.65090 0.77670 -0.01200
O 	O 	0.23540 0.19380 0.26460 -0.68300
C 	C 	0.23365 0.01350 0.26635 -0.04700
H 	H 	0.22290 0.02250 0.27710 0.04700
C 	C 	0.23400 0.11530 0.26600 -0.24800
H 	H 	0.22330 0.10630 0.27670 0.11900
C 	C 	0.23400 0.14210 0.26600 0.20700
H 	H 	0.22330 0.15090 0.27670 -0.01200
O 	O 	0.73540 0.69380 0.26460 -0.68300
C 	C 	0.73365 0.51350 0.26635 -0.04700
H 	H 	0.72290 0.52250 0.27710 0.04700
C 	C 	0.73400 0.61530 0.26600 -0.24800
H 	H 	0.72330 0.60630 0.27670 0.11900
C 	C 	0.73400 0.64210 0.26600 0.20700
H 	H 	0.72330 0.65090 0.27670 -0.01200
O 	O 	0.73540 0.19380 0.76460 -0.68300
C 	C 	0.73365 0.01350 0.76635 -0.04700
H 	H 	0.72290 0.02250 0.77710 0.04700
C 	C 	0.73400 0.11530 0.76600 -0.24800
H 	H 	0.72330 0.10630 0.77670 0.11900
C 	C 	0.73400 0.14210 0.76600 0.20700
H 	H 	0.72330 0.15090 0.77670 -0.01200
O 	O 	0.76460 0.30620 0.76460 -0.68300
C 	C 	0.76635 0.48650 0.76635 -0.04700
H 	H 	0.77710 0.47750 0.77710 0.04700
C 	C 	0.76600 0.38470 0.76600 -0.24800
H 	H 	0.77670 0.39370 0.77670 0.11900
C 	C 	0.76600 0.35790 0.76600 0.20700
H 	H 	0.77670 0.34910 0.77670 -0.01200
O 	O 	0.76460 0.80620 0.26460 -0.68300
C 	C 	0.76635 0.98650 0.26635 -0.04700
H 	H 	0.77710 0.97750 0.27710 0.04700
C 	C 	0.76600 0.88470 0.26600 -0.24800
H 	H 	0.77670 0.89370 0.27670 0.11900
C 	C 	0.76600 0.85790 0.26600 0.20700
H 	H 	0.77670 0.84910 0.27670 -0.01200
O 	O 	0.26460 0.30620 0.26460 -0.68300
C 	C 	0.26635 0.48650 0.26635 -0.04700
H 	H 	0.27710 0.47750 0.27710 0.04700
C 	C 	0.26600 0.38470 0.26600 -0.24800
H 	H 	0.27670 0.39370 0.27670 0.11900
C 	C 	0.26600 0.35790 0.26600 0.20700
H 	H 	0.27670 0.34910 0.27670 -0.01200
O 	O 	0.26460 0.80620 0.76460 -0.68300
C 	C 	0.26635 0.98650 0.76635 -0.04700
H 	H 	0.27710 0.97750 0.77710 0.04700
C 	C 	0.26600 0.88470 0.76600 -0.24800
H 	H 	0.27670 0.89370 0.77670 0.11900
C 	C 	0.26600 0.85790 0.76600 0.20700
H 	H 	0.27670 0.84910 0.77670 -0.01200
O 	O 	0.23540 0.30620 0.23540 -0.68300
C 	C 	0.23365 0.48650 0.23365 -0.04700
H 	H 	0.22290 0.47750 0.22290 0.04700
C 	C 	0.23400 0.38470 0.23400 -0.24800
H 	H 	0.22330 0.39370 0.22330 0.11900
C 	C 	0.23400 0.35790 0.23400 0.20700
H 	H 	0.22330 0.34910 0.22330 -0.01200
O 	O 	0.23540 0.80620 0.73540 -0.68300
C 	C 	0.23365 0.98650 0.73365 -0.04700
H 	H 	0.22290 0.97750 0.72290 0.04700
C 	C 	0.23400 0.88470 0.73400 -0.24800
H 	H 	0.22330 0.89370 0.72330 0.11900
C 	C 	0.23400 0.85790 0.73400 0.20700
H 	H 	0.22330 0.84910 0.72330 -0.01200
O 	O 	0.73540 0.30620 0.73540 -0.68300
C 	C 	0.73365 0.48650 0.73365 -0.04700
H 	H 	0.72290 0.47750 0.72290 0.04700
C 	C 	0.73400 0.38470 0.73400 -0.24800
H 	H 	0.72330 0.39370 0.72330 0.11900
C 	C 	0.73400 0.35790 0.73400 0.20700
H 	H 	0.72330 0.34910 0.72330 -0.01200
O 	O 	0.73540 0.80620 0.23540 -0.68300
C 	C 	0.73365 0.98650 0.23365 -0.04700
H 	H 	0.72290 0.97750 0.22290 0.04700
C 	C 	0.73400 0.88470 0.23400 -0.24800
H 	H 	0.72330 0.89370 0.22330 0.11900
C 	C 	0.73400 0.85790 0.23400 0.20700
H 	H 	0.72330 0.84910 0.22330 -0.01200
O 	O 	0.76460 0.69380 0.23540 -0.68300
C 	C 	0.76635 0.51350 0.23365 -0.04700
H 	H 	0.77710 0.52250 0.22290 0.04700
C 	C 	0.76600 0.61530 0.23400 -0.24800
H 	H 	0.77670 0.60630 0.22330 0.11900
C 	C 	0.76600 0.64210 0.23400 0.20700
H 	H 	0.77670 0.65090 0.22330 -0.01200
O 	O 	0.76460 0.19380 0.73540 -0.68300
C 	C 	0.76635 0.01350 0.73365 -0.04700
H 	H 	0.77710 0.02250 0.72290 0.04700
C 	C 	0.76600 0.11530 0.73400 -0.24800
H 	H 	0.77670 0.10630 0.72330 0.11900
C 	C 	0.76600 0.14210 0.73400 0.20700
H 	H 	0.77670 0.15090 0.72330 -0.01200
O 	O 	0.26460 0.69380 0.73540 -0.68300
C 	C 	0.26635 0.51350 0.73365 -0.04700
H 	H 	0.27710 0.52250 0.72290 0.04700
C 	C 	0.26600 0.61530 0.73400 -0.24800
H 	H 	0.27670 0.60630 0.72330 0.11900
C 	C 	0.26600 0.64210 0.73400 0.20700
H 	H 	0.27670 0.65090 0.72330 -0.01200
O 	O 	0.26460 0.19380 0.23540 -0.68300
C 	C 	0.26635 0.01350 0.23365 -0.04700
H 	H 	0.27710 0.02250 0.22290 0.04700
C 	C 	0.26600 0.11530 0.23400 -0.24800
H 	H 	0.27670 0.10630 0.22330 0.11900
C 	C 	0.26600 0.14210 0.23400 0.20700
H 	H 	0.27670 0.15090 0.22330 -0.01200
O 	O 	0.69380 0.23540 0.76460 -0.68300
C 	C 	0.51350 0.23365 0.76635 -0.04700
H 	H 	0.52250 0.22290 0.77710 0.04700
C 	C 	0.61530 0.23400 0.76600 -0.24800
H 	H 	0.60630 0.22330 0.77670 0.11900
C 	C 	0.64210 0.23400 0.76600 0.20700
H 	H 	0.65090 0.22330 0.77670 -0.01200
O 	O 	0.69380 0.73540 0.26460 -0.68300
C 	C 	0.51350 0.73365 0.26635 -0.04700
H 	H 	0.52250 0.72290 0.27710 0.04700
C 	C 	0.61530 0.73400 0.26600 -0.24800
H 	H 	0.60630 0.72330 0.27670 0.11900
C 	C 	0.64210 0.73400 0.26600 0.20700
H 	H 	0.65090 0.72330 0.27670 -0.01200
O 	O 	0.19380 0.23540 0.26460 -0.68300
C 	C 	0.01350 0.23365 0.26635 -0.04700
H 	H 	0.02250 0.22290 0.27710 0.04700
C 	C 	0.11530 0.23400 0.26600 -0.24800
H 	H 	0.10630 0.22330 0.27670 0.11900
C 	C 	0.14210 0.23400 0.26600 0.20700
H 	H 	0.15090 0.22330 0.27670 -0.01200
O 	O 	0.19380 0.73540 0.76460 -0.68300
C 	C 	0.01350 0.73365 0.76635 -0.04700
H 	H 	0.02250 0.72290 0.77710 0.04700
C 	C 	0.11530 0.73400 0.76600 -0.24800
H 	H 	0.10630 0.72330 0.77670 0.11900
C 	C 	0.14210 0.73400 0.76600 0.20700
H 	H 	0.15090 0.72330 0.77670 -0.01200
O 	O 	0.30620 0.23540 0.23540 -0.68300
C 	C 	0.48650 0.23365 0.23365 -0.04700
H 	H 	0.47750 0.22290 0.22290 0.04700
C 	C 	0.38470 0.23400 0.23400 -0.24800
H 	H 	0.39370 0.22330 0.22330 0.11900
C 	C 	0.35790 0.23400 0.23400 0.20700
H 	H 	0.34910 0.22330 0.22330 -0.01200
O 	O 	0.30620 0.73540 0.73540 -0.68300
C 	C 	0.48650 0.73365 0.73365 -0.04700
H 	H 	0.47750 0.72290 0.72290 0.04700
C 	C 	0.38470 0.73400 0.73400 -0.24800
H 	H 	0.39370 0.72330 0.72330 0.11900
C 	C 	0.35790 0.73400 0.73400 0.20700
H 	H 	0.34910 0.72330 0.72330 -0.01200
O 	O 	0.80620 0.23540 0.73540 -0.68300
C 	C 	0.98650 0.23365 0.73365 -0.04700
H 	H 	0.97750 0.22290 0.72290 0.04700
C 	C 	0.88470 0.23400 0.73400 -0.24800
H 	H 	0.89370 0.22330 0.72330 0.11900
C 	C 	0.85790 0.23400 0.73400 0.20700
H 	H 	0.84910 0.22330 0.72330 -0.01200
O 	O 	0.80620 0.73540 0.23540 -0.68300
C 	C 	0.98650 0.73365 0.23365 -0.04700
H 	H 	0.97750 0.72290 0.22290 0.04700
C 	C 	0.88470 0.73400 0.23400 -0.24800
H 	H 	0.89370 0.72330 0.22330 0.11900
C 	C 	0.85790 0.73400 0.23400 0.20700
H 	H 	0.84910 0.72330 0.22330 -0.01200
O 	O 	0.30620 0.76460 0.76460 -0.68300
C 	C 	0.48650 0.76635 0.76635 -0.04700
H 	H 	0.47750 0.77710 0.77710 0.04700
C 	C 	0.38470 0.76600 0.76600 -0.24800
H 	H 	0.39370 0.77670 0.77670 0.11900
C 	C 	0.35790 0.76600 0.76600 0.20700
H 	H 	0.34910 0.77670 0.77670 -0.01200
O 	O 	0.30620 0.26460 0.26460 -0.68300
C 	C 	0.48650 0.26635 0.26635 -0.04700
H 	H 	0.47750 0.27710 0.27710 0.04700
C 	C 	0.38470 0.26600 0.26600 -0.24800
H 	H 	0.39370 0.27670 0.27670 0.11900
C 	C 	0.35790 0.26600 0.26600 0.20700
H 	H 	0.34910 0.27670 0.27670 -0.01200
O 	O 	0.80620 0.76460 0.26460 -0.68300
C 	C 	0.98650 0.76635 0.26635 -0.04700
H 	H 	0.97750 0.77710 0.27710 0.04700
C 	C 	0.88470 0.76600 0.26600 -0.24800
H 	H 	0.89370 0.77670 0.27670 0.11900
C 	C 	0.85790 0.76600 0.26600 0.20700
H 	H 	0.84910 0.77670 0.27670 -0.01200
O 	O 	0.80620 0.26460 0.76460 -0.68300
C 	C 	0.98650 0.26635 0.76635 -0.04700
H 	H 	0.97750 0.27710 0.77710 0.04700
C 	C 	0.88470 0.26600 0.76600 -0.24800
H 	H 	0.89370 0.27670 0.77670 0.11900
C 	C 	0.85790 0.26600 0.76600 0.20700
H 	H 	0.84910 0.27670 0.77670 -0.01200
O 	O 	0.69380 0.76460 0.23540 -0.68300
C 	C 	0.51350 0.76635 0.23365 -0.04700
H 	H 	0.52250 0.77710 0.22290 0.04700
C 	C 	0.61530 0.76600 0.23400 -0.24800
H 	H 	0.60630 0.77670 0.22330 0.11900
C 	C 	0.64210 0.76600 0.23400 0.20700
H 	H 	0.65090 0.77670 0.22330 -0.01200
O 	O 	0.69380 0.26460 0.73540 -0.68300
C 	C 	0.51350 0.26635 0.73365 -0.04700
H 	H 	0.52250 0.27710 0.72290 0.04700
C 	C 	0.61530 0.26600 0.73400 -0.24800
H 	H 	0.60630 0.27670 0.72330 0.11900
C 	C 	0.64210 0.26600 0.73400 0.20700
H 	H 	0.65090 0.27670 0.72330 -0.01200
O 	O 	0.19380 0.76460 0.73540 -0.68300
C 	C 	0.01350 0.76635 0.73365 -0.04700
H 	H 	0.02250 0.77710 0.72290 0.04700
C 	C 	0.11530 0.76600 0.73400 -0.24800
H 	H 	0.10630 0.77670 0.72330 0.11900
C 	C 	0.14210 0.76600 0.73400 0.20700
H 	H 	0.15090 0.77670 0.72330 -0.01200
O 	O 	0.19380 0.26460 0.23540 -0.68300
C 	C 	0.01350 0.26635 0.23365 -0.04700
H 	H 	0.02250 0.27710 0.22290 0.04700
C 	C 	0.11530 0.26600 0.23400 -0.24800
H 	H 	0.10630 0.27670 0.22330 0.11900
C 	C 	0.14210 0.26600 0.23400 0.20700
H 	H 	0.15090 0.27670 0.22330 -0.01200
O 	O 	0.23540 0.23540 0.30620 -0.68300
C 	C 	0.23365 0.23365 0.48650 -0.04700
H 	H 	0.22290 0.22290 0.47750 0.04700
C 	C 	0.23400 0.23400 0.38470 -0.24800
H 	H 	0.22330 0.22330 0.39370 0.11900
C 	C 	0.23400 0.23400 0.35790 0.20700
H 	H 	0.22330 0.22330 0.34910 -0.01200
O 	O 	0.23540 0.73540 0.80620 -0.68300
C 	C 	0.23365 0.73365 0.98650 -0.04700
H 	H 	0.22290 0.72290 0.97750 0.04700
C 	C 	0.23400 0.73400 0.88470 -0.24800
H 	H 	0.22330 0.72330 0.89370 0.11900
C 	C 	0.23400 0.73400 0.85790 0.20700
H 	H 	0.22330 0.72330 0.84910 -0.01200
O 	O 	0.73540 0.23540 0.80620 -0.68300
C 	C 	0.73365 0.23365 0.98650 -0.04700
H 	H 	0.72290 0.22290 0.97750 0.04700
C 	C 	0.73400 0.23400 0.88470 -0.24800
H 	H 	0.72330 0.22330 0.89370 0.11900
C 	C 	0.73400 0.23400 0.85790 0.20700
H 	H 	0.72330 0.22330 0.84910 -0.01200
O 	O 	0.73540 0.73540 0.30620 -0.68300
C 	C 	0.73365 0.73365 0.48650 -0.04700
H 	H 	0.72290 0.72290 0.47750 0.04700
C 	C 	0.73400 0.73400 0.38470 -0.24800
H 	H 	0.72330 0.72330 0.39370 0.11900
C 	C 	0.73400 0.73400 0.35790 0.20700
H 	H 	0.72330 0.72330 0.34910 -0.01200
O 	O 	0.23540 0.76460 0.69380 -0.68300
C 	C 	0.23365 0.76635 0.51350 -0.04700
H 	H 	0.22290 0.77710 0.52250 0.04700
C 	C 	0.23400 0.76600 0.61530 -0.24800
H 	H 	0.22330 0.77670 0.60630 0.11900
C 	C 	0.23400 0.76600 0.64210 0.20700
H 	H 	0.22330 0.77670 0.65090 -0.01200
O 	O 	0.23540 0.26460 0.19380 -0.68300
C 	C 	0.23365 0.26635 0.01350 -0.04700
H 	H 	0.22290 0.27710 0.02250 0.04700
C 	C 	0.23400 0.26600 0.11530 -0.24800
H 	H 	0.22330 0.27670 0.10630 0.11900
C 	C 	0.23400 0.26600 0.14210 0.20700
H 	H 	0.22330 0.27670 0.15090 -0.01200
O 	O 	0.73540 0.76460 0.19380 -0.68300
C 	C 	0.73365 0.76635 0.01350 -0.04700
H 	H 	0.72290 0.77710 0.02250 0.04700
C 	C 	0.73400 0.76600 0.11530 -0.24800
H 	H 	0.72330 0.77670 0.10630 0.11900
C 	C 	0.73400 0.76600 0.14210 0.20700
H 	H 	0.72330 0.77670 0.15090 -0.01200
O 	O 	0.73540 0.26460 0.69380 -0.68300
C 	C 	0.73365 0.26635 0.51350 -0.04700
H 	H 	0.72290 0.27710 0.52250 0.04700
C 	C 	0.73400 0.26600 0.61530 -0.24800
H 	H 	0.72330 0.27670 0.60630 0.11900
C 	C 	0.73400 0.26600 0.64210 0.20700
H 	H 	0.72330 0.27670 0.65090 -0.01200
O 	O 	0.76460 0.23540 0.69380 -0.68300
C 	C 	0.76635 0.23365 0.51350 -0.04700
H 	H 	0.77710 0.22290 0.52250 0.04700
C 	C 	0.76600 0.23400 0.61530 -0.24800
H 	H 	0.77670 0.22330 0.60630 0.11900
C 	C 	0.76600 0.23400 0.64210 0.20700
H 	H 	0.77670 0.22330 0.65090 -0.01200
O 	O 	0.76460 0.73540 0.19380 -0.68300
C 	C 	0.76635 0.73365 0.01350 -0.04700
H 	H 	0.77710 0.72290 0.02250 0.04700
C 	C 	0.76600 0.73400 0.11530 -0.24800
H 	H 	0.77670 0.72330 0.10630 0.11900
C 	C 	0.76600 0.73400 0.14210 0.20700
H 	H 	0.77670 0.72330 0.15090 -0.01200
O 	O 	0.26460 0.23540 0.19380 -0.68300
C 	C 	0.26635 0.23365 0.01350 -0.04700
H 	H 	0.27710 0.22290 0.02250 0.04700
C 	C 	0.26600 0.23400 0.11530 -0.24800
H 	H 	0.27670 0.22330 0.10630 0.11900
C 	C 	0.26600 0.23400 0.14210 0.20700
H 	H 	0.27670 0.22330 0.15090 -0.01200
O 	O 	0.26460 0.73540 0.69380 -0.68300
C 	C 	0.26635 0.73365 0.51350 -0.04700
H 	H 	0.27710 0.72290 0.52250 0.04700
C 	C 	0.26600 0.73400 0.61530 -0.24800
H 	H 	0.27670 0.72330 0.60630 0.11900
C 	C 	0.26600 0.73400 0.64210 0.20700
H 	H 	0.27670 0.72330 0.65090 -0.01200
O 	O 	0.76460 0.76460 0.30620 -0.68300
C 	C 	0.76635 0.76635 0.48650 -0.04700
H 	H 	0.77710 0.77710 0.47750 0.04700
C 	C 	0.76600 0.76600 0.38470 -0.24800
H 	H 	0.77670 0.77670 0.39370 0.11900
C 	C 	0.76600 0.76600 0.35790 0.20700
H 	H 	0.77670 0.77670 0.34910 -0.01200
O 	O 	0.76460 0.26460 0.80620 -0.68300
C 	C 	0.76635 0.26635 0.98650 -0.04700
H 	H 	0.77710 0.27710 0.97750 0.04700
C 	C 	0.76600 0.26600 0.88470 -0.24800
H 	H 	0.77670 0.27670 0.89370 0.11900
C 	C 	0.76600 0.26600 0.85790 0.20700
H 	H 	0.77670 0.27670 0.84910 -0.01200
O 	O 	0.26460 0.76460 0.80620 -0.68300
C 	C 	0.26635 0.76635 0.98650 -0.04700
H 	H 	0.27710 0.77710 0.97750 0.04700
C 	C 	0.26600 0.76600 0.88470 -0.24800
H 	H 	0.27670 0.77670 0.89370 0.11900
C 	C 	0.26600 0.76600 0.85790 0.20700
H 	H 	0.27670 0.77670 0.84910 -0.01200
O 	O 	0.26460 0.26460 0.30620 -0.68300
C 	C 	0.26635 0.26635 0.48650 -0.04700
H 	H 	0.27710 0.27710 0.47750 0.04700
C 	C 	0.26600 0.26600 0.38470 -0.24800
H 	H 	0.27670 0.27670 0.39370 0.11900
C 	C 	0.26600 0.26600 0.35790 0.20700
H 	H 	0.27670 0.27670 0.34910 -0.01200
O 	O 	0.75000 0.25000 0.25000 -1.55200
O 	O 	0.25000 0.75000 0.25000 -1.55200
O 	O 	0.25000 0.25000 0.75000 -1.55200
O 	O 	0.75000 0.75000 0.75000 -1.55200
O 	O 	0.25000 0.75000 0.75000 -1.55200
O 	O 	0.75000 0.25000 0.75000 -1.55200
O 	O 	0.25000 0.25000 0.25000 -1.55200
O 	O 	0.75000 0.75000 0.25000 -1.55200
C 	C 	0.68380 0.25000 0.25000 1.06800
C 	C 	0.65510 0.25000 0.25000 -0.47300
C 	C 	0.60280 0.25000 0.25000 0.36600
C 	C 	0.57570 0.25000 0.25000 -0.18200
C 	C 	0.55440 0.25000 0.25000 0.07600
C 	C 	0.52630 0.25000 0.25000 -0.01000
C 	C 	0.18380 0.25000 0.75000 1.06800
C 	C 	0.15510 0.25000 0.75000 -0.47300
C 	C 	0.10280 0.25000 0.75000 0.36600
C 	C 	0.07570 0.25000 0.75000 -0.18200
C 	C 	0.05440 0.25000 0.75000 0.07600
C 	C 	0.02630 0.25000 0.75000 -0.01000
C 	C 	0.31620 0.75000 0.25000 1.06800
C 	C 	0.34490 0.75000 0.25000 -0.47300
C 	C 	0.39720 0.75000 0.25000 0.36600
C 	C 	0.42430 0.75000 0.25000 -0.18200
C 	C 	0.44560 0.75000 0.25000 0.07600
C 	C 	0.47370 0.75000 0.25000 -0.01000
C 	C 	0.81620 0.75000 0.75000 1.06800
C 	C 	0.84490 0.75000 0.75000 -0.47300
C 	C 	0.89720 0.75000 0.75000 0.36600
C 	C 	0.92430 0.75000 0.75000 -0.18200
C 	C 	0.94560 0.75000 0.75000 0.07600
C 	C 	0.97370 0.75000 0.75000 -0.01000
C 	C 	0.81620 0.25000 0.25000 1.06800
C 	C 	0.84490 0.25000 0.25000 -0.47300
C 	C 	0.89720 0.25000 0.25000 0.36600
C 	C 	0.92430 0.25000 0.25000 -0.18200
C 	C 	0.94560 0.25000 0.25000 0.07600
C 	C 	0.97370 0.25000 0.25000 -0.01000
C 	C 	0.31620 0.25000 0.75000 1.06800
C 	C 	0.34490 0.25000 0.75000 -0.47300
C 	C 	0.39720 0.25000 0.75000 0.36600
C 	C 	0.42430 0.25000 0.75000 -0.18200
C 	C 	0.44560 0.25000 0.75000 0.07600
C 	C 	0.47370 0.25000 0.75000 -0.01000
C 	C 	0.68380 0.75000 0.75000 1.06800
C 	C 	0.65510 0.75000 0.75000 -0.47300
C 	C 	0.60280 0.75000 0.75000 0.36600
C 	C 	0.57570 0.75000 0.75000 -0.18200
C 	C 	0.55440 0.75000 0.75000 0.07600
C 	C 	0.52630 0.75000 0.75000 -0.01000
C 	C 	0.18380 0.75000 0.25000 1.06800
C 	C 	0.15510 0.75000 0.25000 -0.47300
C 	C 	0.10280 0.75000 0.25000 0.36600
C 	C 	0.07570 0.75000 0.25000 -0.18200
C 	C 	0.05440 0.75000 0.25000 0.07600
C 	C 	0.02630 0.75000 0.25000 -0.01000
C 	C 	0.25000 0.68380 0.25000 1.06800
C 	C 	0.25000 0.65510 0.25000 -0.47300
C 	C 	0.25000 0.60280 0.25000 0.36600
C 	C 	0.25000 0.57570 0.25000 -0.18200
C 	C 	0.25000 0.55440 0.25000 0.07600
C 	C 	0.25000 0.52630 0.25000 -0.01000
C 	C 	0.25000 0.18380 0.75000 1.06800
C 	C 	0.25000 0.15510 0.75000 -0.47300
C 	C 	0.25000 0.10280 0.75000 0.36600
C 	C 	0.25000 0.07570 0.75000 -0.18200
C 	C 	0.25000 0.05440 0.75000 0.07600
C 	C 	0.25000 0.02630 0.75000 -0.01000
C 	C 	0.25000 0.31620 0.75000 1.06800
C 	C 	0.25000 0.34490 0.75000 -0.47300
C 	C 	0.25000 0.39720 0.75000 0.36600
C 	C 	0.25000 0.42430 0.75000 -0.18200
C 	C 	0.25000 0.44560 0.75000 0.07600
C 	C 	0.25000 0.47370 0.75000 -0.01000
C 	C 	0.25000 0.81620 0.25000 1.06800
C 	C 	0.25000 0.84490 0.25000 -0.47300
C 	C 	0.25000 0.89720 0.25000 0.36600
C 	C 	0.25000 0.92430 0.25000 -0.18200
C 	C 	0.25000 0.94560 0.25000 0.07600
C 	C 	0.25000 0.97370 0.25000 -0.01000
C 	C 	0.75000 0.31620 0.25000 1.06800
C 	C 	0.75000 0.34490 0.25000 -0.47300
C 	C 	0.75000 0.39720 0.25000 0.36600
C 	C 	0.75000 0.42430 0.25000 -0.18200
C 	C 	0.75000 0.44560 0.25000 0.07600
C 	C 	0.75000 0.47370 0.25000 -0.01000
C 	C 	0.75000 0.81620 0.75000 1.06800
C 	C 	0.75000 0.84490 0.75000 -0.47300
C 	C 	0.75000 0.89720 0.75000 0.36600
C 	C 	0.75000 0.92430 0.75000 -0.18200
C 	C 	0.75000 0.94560 0.75000 0.07600
C 	C 	0.75000 0.97370 0.75000 -0.01000
C 	C 	0.75000 0.68380 0.75000 1.06800
C 	C 	0.75000 0.65510 0.75000 -0.47300
C 	C 	0.75000 0.60280 0.75000 0.36600
C 	C 	0.75000 0.57570 0.75000 -0.18200
C 	C 	0.75000 0.55440 0.75000 0.07600
C 	C 	0.75000 0.52630 0.75000 -0.01000
C 	C 	0.75000 0.18380 0.25000 1.06800
C 	C 	0.75000 0.15510 0.25000 -0.47300
C 	C 	0.75000 0.10280 0.25000 0.36600
C 	C 	0.75000 0.07570 0.25000 -0.18200
C 	C 	0.75000 0.05440 0.25000 0.07600
C 	C 	0.75000 0.02630 0.25000 -0.01000
C 	C 	0.25000 0.25000 0.68380 1.06800
C 	C 	0.25000 0.25000 0.65510 -0.47300
C 	C 	0.25000 0.25000 0.60280 0.36600
C 	C 	0.25000 0.25000 0.57570 -0.18200
C 	C 	0.25000 0.25000 0.55440 0.07600
C 	C 	0.25000 0.25000 0.52630 -0.01000
C 	C 	0.25000 0.75000 0.18380 1.06800
C 	C 	0.25000 0.75000 0.15510 -0.47300
C 	C 	0.25000 0.75000 0.10280 0.36600
C 	C 	0.25000 0.75000 0.07570 -0.18200
C 	C 	0.25000 0.75000 0.05440 0.07600
C 	C 	0.25000 0.75000 0.02630 -0.01000
C 	C 	0.75000 0.25000 0.31620 1.06800
C 	C 	0.75000 0.25000 0.34490 -0.47300
C 	C 	0.75000 0.25000 0.39720 0.36600
C 	C 	0.75000 0.25000 0.42430 -0.18200
C 	C 	0.75000 0.25000 0.44560 0.07600
C 	C 	0.75000 0.25000 0.47370 -0.01000
C 	C 	0.75000 0.75000 0.81620 1.06800
C 	C 	0.75000 0.75000 0.84490 -0.47300
C 	C 	0.75000 0.75000 0.89720 0.36600
C 	C 	0.75000 0.75000 0.92430 -0.18200
C 	C 	0.75000 0.75000 0.94560 0.07600
C 	C 	0.75000 0.75000 0.97370 -0.01000
C 	C 	0.25000 0.25000 0.81620 1.06800
C 	C 	0.25000 0.25000 0.84490 -0.47300
C 	C 	0.25000 0.25000 0.89720 0.36600
C 	C 	0.25000 0.25000 0.92430 -0.18200
C 	C 	0.25000 0.25000 0.94560 0.07600
C 	C 	0.25000 0.25000 0.97370 -0.01000
C 	C 	0.25000 0.75000 0.31620 1.06800
C 	C 	0.25000 0.75000 0.34490 -0.47300
C 	C 	0.25000 0.75000 0.39720 0.36600
C 	C 	0.25000 0.75000 0.42430 -0.18200
C 	C 	0.25000 0.75000 0.44560 0.07600
C 	C 	0.25000 0.75000 0.47370 -0.01000
C 	C 	0.75000 0.75000 0.68380 1.06800
C 	C 	0.75000 0.75000 0.65510 -0.47300
C 	C 	0.75000 0.75000 0.60280 0.36600
C 	C 	0.75000 0.75000 0.57570 -0.18200
C 	C 	0.75000 0.75000 0.55440 0.07600
C 	C 	0.75000 0.75000 0.52630 -0.01000
C 	C 	0.75000 0.25000 0.18380 1.06800
C 	C 	0.75000 0.25000 0.15510 -0.47300
C 	C 	0.75000 0.25000 0.10280 0.36600
C 	C 	0.75000 0.25000 0.07570 -0.18200
C 	C 	0.75000 0.25000 0.05440 0.07600
C 	C 	0.75000 0.25000 0.02630 -0.01000
C 	C 	0.25000 0.68380 0.75000 1.06800
C 	C 	0.25000 0.65510 0.75000 -0.47300
C 	C 	0.25000 0.60280 0.75000 0.36600
C 	C 	0.25000 0.57570 0.75000 -0.18200
C 	C 	0.25000 0.55440 0.75000 0.07600
C 	C 	0.25000 0.52630 0.75000 -0.01000
C 	C 	0.25000 0.18380 0.25000 1.06800
C 	C 	0.25000 0.15510 0.25000 -0.47300
C 	C 	0.25000 0.10280 0.25000 0.36600
C 	C 	0.25000 0.07570 0.25000 -0.18200
C 	C 	0.25000 0.05440 0.25000 0.07600
C 	C 	0.25000 0.02630 0.25000 -0.01000
C 	C 	0.75000 0.31620 0.75000 1.06800
C 	C 	0.75000 0.34490 0.75000 -0.47300
C 	C 	0.75000 0.39720 0.75000 0.36600
C 	C 	0.75000 0.42430 0.75000 -0.18200
C 	C 	0.75000 0.44560 0.75000 0.07600
C 	C 	0.75000 0.47370 0.75000 -0.01000
C 	C 	0.75000 0.81620 0.25000 1.06800
C 	C 	0.75000 0.84490 0.25000 -0.47300
C 	C 	0.75000 0.89720 0.25000 0.36600
C 	C 	0.75000 0.92430 0.25000 -0.18200
C 	C 	0.75000 0.94560 0.25000 0.07600
C 	C 	0.75000 0.97370 0.25000 -0.01000
C 	C 	0.25000 0.31620 0.25000 1.06800
C 	C 	0.25000 0.34490 0.25000 -0.47300
C 	C 	0.25000 0.39720 0.25000 0.36600
C 	C 	0.25000 0.42430 0.25000 -0.18200
C 	C 	0.25000 0.44560 0.25000 0.07600
C 	C 	0.25000 0.47370 0.25000 -0.01000
C 	C 	0.25000 0.81620 0.75000 1.06800
C 	C 	0.25000 0.84490 0.75000 -0.47300
C 	C 	0.25000 0.89720 0.75000 0.36600
C 	C 	0.25000 0.92430 0.75000 -0.18200
C 	C 	0.25000 0.94560 0.75000 0.07600
C 	C 	0.25000 0.97370 0.75000 -0.01000
C 	C 	0.75000 0.68380 0.25000 1.06800
C 	C 	0.75000 0.65510 0.25000 -0.47300
C 	C 	0.75000 0.60280 0.25000 0.36600
C 	C 	0.75000 0.57570 0.25000 -0.18200
C 	C 	0.75000 0.55440 0.25000 0.07600
C 	C 	0.75000 0.52630 0.25000 -0.01000
C 	C 	0.75000 0.18380 0.75000 1.06800
C 	C 	0.75000 0.15510 0.75000 -0.47300
C 	C 	0.75000 0.10280 0.75000 0.36600
C 	C 	0.75000 0.07570 0.75000 -0.18200
C 	C 	0.75000 0.05440 0.75000 0.07600
C 	C 	0.75000 0.02630 0.75000 -0.01000
C 	C 	0.68380 0.25000 0.75000 1.06800
C 	C 	0.65510 0.25000 0.75000 -0.47300
C 	C 	0.60280 0.25000 0.75000 0.36600
C 	C 	0.57570 0.25000 0.75000 -0.18200
C 	C 	0.55440 0.25000 0.75000 0.07600
C 	C 	0.52630 0.25000 0.75000 -0.01000
C 	C 	0.18380 0.25000 0.25000 1.06800
C 	C 	0.15510 0.25000 0.25000 -0.47300
C 	C 	0.10280 0.25000 0.25000 0.36600
C 	C 	0.07570 0.25000 0.25000 -0.18200
C 	C 	0.05440 0.25000 0.25000 0.07600
C 	C 	0.02630 0.25000 0.25000 -0.01000
C 	C 	0.31620 0.25000 0.25000 1.06800
C 	C 	0.34490 0.25000 0.25000 -0.47300
C 	C 	0.39720 0.25000 0.25000 0.36600
C 	C 	0.42430 0.25000 0.25000 -0.18200
C 	C 	0.44560 0.25000 0.25000 0.07600
C 	C 	0.47370 0.25000 0.25000 -0.01000
C 	C 	0.81620 0.25000 0.75000 1.06800
C 	C 	0.84490 0.25000 0.75000 -0.47300
C 	C 	0.89720 0.25000 0.75000 0.36600
C 	C 	0.92430 0.25000 0.75000 -0.18200
C 	C 	0.94560 0.25000 0.75000 0.07600
C 	C 	0.97370 0.25000 0.75000 -0.01000
C 	C 	0.31620 0.75000 0.75000 1.06800
C 	C 	0.34490 0.75000 0.75000 -0.47300
C 	C 	0.39720 0.75000 0.75000 0.36600
C 	C 	0.42430 0.75000 0.75000 -0.18200
C 	C 	0.44560 0.75000 0.75000 0.07600
C 	C 	0.47370 0.75000 0.75000 -0.01000
C 	C 	0.81620 0.75000 0.25000 1.06800
C 	C 	0.84490 0.75000 0.25000 -0.47300
C 	C 	0.89720 0.75000 0.25000 0.36600
C 	C 	0.92430 0.75000 0.25000 -0.18200
C 	C 	0.94560 0.75000 0.25000 0.07600
C 	C 	0.97370 0.75000 0.25000 -0.01000
C 	C 	0.68380 0.75000 0.25000 1.06800
C 	C 	0.65510 0.75000 0.25000 -0.47300
C 	C 	0.60280 0.75000 0.25000 0.36600
C 	C 	0.57570 0.75000 0.25000 -0.18200
C 	C 	0.55440 0.75000 0.25000 0.07600
C 	C 	0.52630 0.75000 0.25000 -0.01000
C 	C 	0.18380 0.75000 0.75000 1.06800
C 	C 	0.15510 0.75000 0.75000 -0.47300
C 	C 	0.10280 0.75000 0.75000 0.36600
C 	C 	0.07570 0.75000 0.75000 -0.18200
C 	C 	0.05440 0.75000 0.75000 0.07600
C 	C 	0.02630 0.75000 0.75000 -0.01000
C 	C 	0.25000 0.25000 0.31620 1.06800
C 	C 	0.25000 0.25000 0.34490 -0.47300
C 	C 	0.25000 0.25000 0.39720 0.36600
C 	C 	0.25000 0.25000 0.42430 -0.18200
C 	C 	0.25000 0.25000 0.44560 0.07600
C 	C 	0.25000 0.25000 0.47370 -0.01000
C 	C 	0.25000 0.75000 0.81620 1.06800
C 	C 	0.25000 0.75000 0.84490 -0.47300
C 	C 	0.25000 0.75000 0.89720 0.36600
C 	C 	0.25000 0.75000 0.92430 -0.18200
C 	C 	0.25000 0.75000 0.94560 0.07600
C 	C 	0.25000 0.75000 0.97370 -0.01000
C 	C 	0.25000 0.75000 0.68380 1.06800
C 	C 	0.25000 0.75000 0.65510 -0.47300
C 	C 	0.25000 0.75000 0.60280 0.36600
C 	C 	0.25000 0.75000 0.57570 -0.18200
C 	C 	0.25000 0.75000 0.55440 0.07600
C 	C 	0.25000 0.75000 0.52630 -0.01000
C 	C 	0.25000 0.25000 0.18380 1.06800
C 	C 	0.25000 0.25000 0.15510 -0.47300
C 	C 	0.25000 0.25000 0.10280 0.36600
C 	C 	0.25000 0.25000 0.07570 -0.18200
C 	C 	0.25000 0.25000 0.05440 0.07600
C 	C 	0.25000 0.25000 0.02630 -0.01000
C 	C 	0.75000 0.25000 0.68380 1.06800
C 	C 	0.75000 0.25000 0.65510 -0.47300
C 	C 	0.75000 0.25000 0.60280 0.36600
C 	C 	0.75000 0.25000 0.57570 -0.18200
C 	C 	0.75000 0.25000 0.55440 0.07600
C 	C 	0.75000 0.25000 0.52630 -0.01000
C 	C 	0.75000 0.75000 0.18380 1.06800
C 	C 	0.75000 0.75000 0.15510 -0.47300
C 	C 	0.75000 0.75000 0.10280 0.36600
C 	C 	0.75000 0.75000 0.07570 -0.18200
C 	C 	0.75000 0.75000 0.05440 0.07600
C 	C 	0.75000 0.75000 0.02630 -0.01000
C 	C 	0.75000 0.75000 0.31620 1.06800
C 	C 	0.75000 0.75000 0.34490 -0.47300
C 	C 	0.75000 0.75000 0.39720 0.36600
C 	C 	0.75000 0.75000 0.42430 -0.18200
C 	C 	0.75000 0.75000 0.44560 0.07600
C 	C 	0.75000 0.75000 0.47370 -0.01000
C 	C 	0.75000 0.25000 0.81620 1.06800
C 	C 	0.75000 0.25000 0.84490 -0.47300
C 	C 	0.75000 0.25000 0.89720 0.36600
C 	C 	0.75000 0.25000 0.92430 -0.18200
C 	C 	0.75000 0.25000 0.94560 0.07600
C 	C 	0.75000 0.25000 0.97370 -0.01000
