data_crystal

_cell_length_a 12.37470
_cell_length_b 14.19460
_cell_length_c 15.31760
_cell_angle_alpha 107.77000
_cell_angle_beta  113.82500
_cell_angle_gamma 90.00000

_symmetry_space_group_name_	'P 1'
_symmetry_space_group_name_H-M	'P 1'

loop_
_symmetry_equiv_pos_as_xyz
  x,y,z

loop_
_atom_site_label
_atom_site_type_symbol
_atom_site_fract_x
_atom_site_fract_y
_atom_site_fract_z
_atom_site_charge
Mn	Mn	0.98203 0.00360 0.75206 1.28000
Mn	Mn	0.22997 0.49640 0.24794 1.28000
Mn	Mn	0.01797 0.99640 0.24794 1.27700
Mn	Mn	0.77003 0.50360 0.75206 1.28700
Mn	Mn	-0.00000 0.00000 0.50000 1.29000
Mn	Mn	0.50000 0.50000 0.50000 1.32200
H 	H 	0.15270 0.28870 0.90500 0.05600
H 	H 	0.37410 0.55830 0.16360 0.19600
H 	H 	0.35860 0.52840 0.93040 0.10800
H 	H 	0.21870 0.29500 0.66740 0.09700
H 	H 	0.46410 0.56890 0.76520 -0.01100
H 	H 	0.46770 0.56230 0.86880 -0.00200
H 	H 	0.32390 0.54140 0.61520 0.09700
H 	H 	0.15440 0.74650 0.49280 0.06300
H 	H 	0.22720 0.77630 0.78320 0.10100
H 	H 	0.24770 0.21130 0.09500 0.07200
H 	H 	0.21050 0.94170 0.83640 0.19400
H 	H 	0.42820 0.97160 0.06960 0.16100
H 	H 	0.55130 0.20500 0.33260 0.11000
H 	H 	0.69890 0.93110 0.23480 -0.01700
H 	H 	0.59890 0.93770 0.13120 -0.00800
H 	H 	0.70870 0.95860 0.38480 0.11500
H 	H 	0.66160 0.75350 0.50720 0.07400
H 	H 	0.44400 0.72370 0.21680 0.10700
H 	H 	0.84730 0.71130 0.09500 0.08000
H 	H 	0.62590 0.44170 0.83640 0.19600
H 	H 	0.64140 0.47160 0.06960 0.11500
H 	H 	0.78130 0.70500 0.33260 0.10800
H 	H 	0.53590 0.43110 0.23480 -0.01100
H 	H 	0.53230 0.43770 0.13120 -0.00100
H 	H 	0.67610 0.45860 0.38480 0.10100
H 	H 	0.84560 0.25350 0.50720 0.07400
H 	H 	0.77280 0.22370 0.21680 0.10900
H 	H 	0.75230 0.78870 0.90500 0.05900
H 	H 	0.78950 0.05830 0.16360 0.19700
H 	H 	0.57180 0.02840 0.93040 0.04000
H 	H 	0.44870 0.79500 0.66740 0.09100
H 	H 	0.30110 0.06890 0.76520 -0.00300
H 	H 	0.40110 0.06230 0.86880 0.00500
H 	H 	0.29130 0.04140 0.61520 0.08600
H 	H 	0.33840 0.24650 0.49280 0.06400
H 	H 	0.55600 0.27630 0.78320 0.10000
C 	C 	0.09959 0.17560 0.71438 0.37700
C 	C 	0.17348 0.27690 0.77596 -0.04800
C 	C 	0.18902 0.32170 0.87624 -0.01600
C 	C 	0.25809 0.41470 0.93318 -0.03900
C 	C 	0.27493 0.46280 0.03966 0.34200
C 	C 	0.31257 0.46420 0.89154 -0.12400
C 	C 	0.29828 0.41800 0.79336 0.19800
C 	C 	0.22867 0.32530 0.73514 -0.11500
C 	C 	0.41402 0.55640 0.79824 0.20600
C 	C 	0.28539 0.65450 0.71218 0.19400
C 	C 	0.28873 0.60120 0.62166 -0.13000
C 	C 	0.24017 0.63590 0.53994 -0.03300
C 	C 	0.25166 0.58130 0.44352 0.31700
C 	C 	0.18707 0.72290 0.54854 -0.02000
C 	C 	0.18248 0.77440 0.63976 -0.04500
C 	C 	0.12640 0.86890 0.64740 0.38100
C 	C 	0.23099 0.74080 0.72118 -0.11600
C 	C 	0.98717 0.86080 0.89534 0.17100
C 	C 	0.00640 0.79850 0.95200 -0.10700
C 	C 	0.38521 0.32440 0.28562 0.36800
C 	C 	0.39752 0.22310 0.22404 -0.01700
C 	C 	0.31278 0.17830 0.12376 -0.05300
C 	C 	0.32491 0.08530 0.06682 0.02100
C 	C 	0.23527 0.03720 0.96034 0.26900
C 	C 	0.42103 0.03580 0.10846 -0.22300
C 	C 	0.50492 0.08200 0.20664 0.24500
C 	C 	0.49353 0.17470 0.26486 -0.14800
C 	C 	0.61578 0.94360 0.20176 0.25600
C 	C 	0.57321 0.84550 0.28782 0.21200
C 	C 	0.66707 0.89880 0.37834 -0.14100
C 	C 	0.70023 0.86410 0.46006 -0.01200
C 	C 	0.80814 0.91870 0.55648 0.31000
C 	C 	0.63853 0.77710 0.45146 -0.02800
C 	C 	0.54272 0.72560 0.36024 -0.03200
C 	C 	0.47900 0.63110 0.35260 0.38300
C 	C 	0.50981 0.75920 0.27882 -0.12300
C 	C 	0.09183 0.63920 0.10466 0.08200
C 	C 	0.05440 0.70150 0.04800 -0.06400
C 	C 	0.90041 0.82440 0.28562 0.36900
C 	C 	0.82652 0.72310 0.22404 -0.02100
C 	C 	0.81098 0.67830 0.12376 -0.02800
C 	C 	0.74191 0.58530 0.06682 -0.01300
C 	C 	0.72507 0.53720 0.96034 0.33000
C 	C 	0.68743 0.53580 0.10846 -0.13300
C 	C 	0.70172 0.58200 0.20664 0.21100
C 	C 	0.77133 0.67470 0.26486 -0.12300
C 	C 	0.58598 0.44360 0.20176 0.20700
C 	C 	0.71461 0.34550 0.28782 0.20300
C 	C 	0.71127 0.39880 0.37834 -0.13100
C 	C 	0.75983 0.36410 0.46006 -0.02200
C 	C 	0.74834 0.41870 0.55648 0.31800
C 	C 	0.81293 0.27710 0.45146 -0.02200
C 	C 	0.81752 0.22560 0.36024 -0.03200
C 	C 	0.87360 0.13110 0.35260 0.38500
C 	C 	0.76901 0.25920 0.27882 -0.11600
C 	C 	0.01283 0.13920 0.10466 0.00900
C 	C 	0.99360 0.20150 0.04800 0.02800
C 	C 	0.61479 0.67560 0.71438 0.38400
C 	C 	0.60248 0.77690 0.77596 -0.06100
C 	C 	0.68722 0.82170 0.87624 0.01700
C 	C 	0.67509 0.91470 0.93318 -0.08200
C 	C 	0.76473 0.96280 0.03966 0.39600
C 	C 	0.57897 0.96420 0.89154 -0.00100
C 	C 	0.49508 0.91800 0.79336 0.15000
C 	C 	0.50647 0.82530 0.73514 -0.07900
C 	C 	0.38422 0.05640 0.79824 0.15000
C 	C 	0.42679 0.15450 0.71218 0.18500
C 	C 	0.33293 0.10120 0.62166 -0.12200
C 	C 	0.29977 0.13590 0.53994 -0.04000
C 	C 	0.19186 0.08130 0.44352 0.32200
C 	C 	0.36147 0.22290 0.54854 -0.01600
C 	C 	0.45728 0.27440 0.63976 -0.04600
C 	C 	0.52100 0.36890 0.64740 0.38600
C 	C 	0.49019 0.24080 0.72118 -0.11000
C 	C 	0.90817 0.36080 0.89534 0.10400
C 	C 	0.94560 0.29850 0.95200 -0.04500
N 	N 	0.94783 0.90210 0.83026 -0.21000
N 	N 	0.11757 0.59790 0.16974 -0.22600
N 	N 	0.05217 0.09790 0.16974 -0.22100
N 	N 	0.88243 0.40210 0.83026 -0.21200
O 	O 	0.04739 0.14066 0.75658 -0.48400
O 	O 	0.09425 0.13413 0.62790 -0.44300
O 	O 	0.35355 0.54341 0.08888 -0.35800
O 	O 	0.22063 0.43020 0.07726 -0.38700
O 	O 	0.35127 0.45891 0.74664 -0.25200
O 	O 	0.33694 0.62914 0.79934 -0.24900
O 	O 	0.30925 0.50810 0.44108 -0.46700
O 	O 	0.20448 0.61100 0.36900 -0.41100
O 	O 	0.11310 0.91197 0.72812 -0.45700
O 	O 	0.09640 0.90025 0.57500 -0.43400
O 	O 	0.29081 0.35934 0.24342 -0.45700
O 	O 	0.46635 0.36587 0.37210 -0.42300
O 	O 	0.26467 0.95659 0.91112 -0.31500
O 	O 	0.14337 0.06980 0.92274 -0.38600
O 	O 	0.60463 0.04109 0.25336 -0.29300
O 	O 	0.53760 0.87086 0.20066 -0.25500
O 	O 	0.86817 0.99190 0.55892 -0.41900
O 	O 	0.83548 0.88900 0.63100 -0.38100
O 	O 	0.38498 0.58803 0.27188 -0.45500
O 	O 	0.52140 0.59975 0.42500 -0.43300
O 	O 	0.95261 0.85934 0.24342 -0.41600
O 	O 	0.90575 0.86587 0.37210 -0.39200
O 	O 	0.64645 0.45659 0.91112 -0.35500
O 	O 	0.77937 0.56980 0.92274 -0.36700
O 	O 	0.64873 0.54109 0.25336 -0.25000
O 	O 	0.66306 0.37086 0.20066 -0.24500
O 	O 	0.69075 0.49190 0.55892 -0.46100
O 	O 	0.79552 0.38900 0.63100 -0.39800
O 	O 	0.88690 0.08803 0.27188 -0.45100
O 	O 	0.90360 0.09975 0.42500 -0.42900
O 	O 	0.70919 0.64066 0.75658 -0.45000
O 	O 	0.53365 0.63413 0.62790 -0.42500
O 	O 	0.73533 0.04341 0.08888 -0.38700
O 	O 	0.85663 0.93020 0.07726 -0.36400
O 	O 	0.39537 0.95891 0.74664 -0.20000
O 	O 	0.46240 0.12914 0.79934 -0.24100
O 	O 	0.13183 0.00810 0.44108 -0.49300
O 	O 	0.16452 0.11100 0.36900 -0.42200
O 	O 	0.61502 0.41197 0.72812 -0.45700
O 	O 	0.47860 0.40025 0.57500 -0.43700
