data_crystal

_cell_length_a 10.20670
_cell_length_b 11.12970
_cell_length_c 13.92510
_cell_angle_alpha 112.66300
_cell_angle_beta  104.57400
_cell_angle_gamma 94.79600

_symmetry_space_group_name_	'P 1'
_symmetry_space_group_name_H-M	'P 1'

loop_
_symmetry_equiv_pos_as_xyz
  x,y,z

loop_
_atom_site_label
_atom_site_type_symbol
_atom_site_fract_x
_atom_site_fract_y
_atom_site_fract_z
_atom_site_charge
Co	Co	0.49430 0.13633 0.49098 1.15500
Co	Co	0.61382 0.92176 0.30240 1.18900
Co	Co	0.50570 0.86367 0.50902 1.15500
Co	Co	0.38618 0.07824 0.69760 1.18900
H 	H 	0.07850 0.96670 0.30650 0.08200
H 	H 	0.79990 0.69070 0.02570 0.11500
H 	H 	0.21060 0.73080 0.05920 0.11200
H 	H 	0.14050 0.53000 0.93570 -0.00600
H 	H 	0.02710 0.45230 0.81690 -0.00300
H 	H 	0.21110 0.78090 0.77400 0.10900
H 	H 	0.41580 0.53260 0.59690 0.07000
H 	H 	0.22090 0.42030 0.77850 0.09200
H 	H 	0.92150 0.03330 0.69350 0.08200
H 	H 	0.20010 0.30930 0.97430 0.11500
H 	H 	0.78940 0.26920 0.94080 0.11200
H 	H 	0.85950 0.47000 0.06430 -0.00600
H 	H 	0.97290 0.54770 0.18310 -0.00300
H 	H 	0.78890 0.21910 0.22600 0.10900
H 	H 	0.58420 0.46740 0.40310 0.07000
H 	H 	0.77910 0.57970 0.22150 0.09200
C 	C 	0.31230 0.93090 0.25780 0.31700
C 	C 	0.16550 0.86210 0.19140 -0.00600
C 	C 	0.05850 0.89840 0.23480 -0.05600
C 	C 	0.92290 0.83490 0.17360 0.01700
C 	C 	0.80730 0.87160 0.22100 0.25900
C 	C 	0.89280 0.73290 0.06870 -0.14600
C 	C 	0.00100 0.69450 0.02860 0.21100
C 	C 	0.13770 0.75790 0.08810 -0.13700
C 	C 	0.06470 0.53970 0.88050 0.19000
C 	C 	0.20030 0.60280 0.78280 0.18900
C 	C 	0.24050 0.69860 0.75010 -0.11300
C 	C 	0.32380 0.67500 0.68250 -0.02700
C 	C 	0.37100 0.78110 0.65060 0.35300
C 	C 	0.36270 0.55190 0.64610 -0.02100
C 	C 	0.32420 0.45760 0.68130 -0.02200
C 	C 	0.37230 0.32820 0.64680 0.33600
C 	C 	0.24450 0.48330 0.75200 -0.12200
C 	C 	0.68770 0.06910 0.74220 0.31700
C 	C 	0.83450 0.13790 0.80860 -0.00600
C 	C 	0.94150 0.10160 0.76520 -0.05600
C 	C 	0.07710 0.16510 0.82640 0.01700
C 	C 	0.19270 0.12840 0.77900 0.25900
C 	C 	0.10720 0.26710 0.93130 -0.14600
C 	C 	0.99900 0.30550 0.97140 0.21100
C 	C 	0.86230 0.24210 0.91190 -0.13700
C 	C 	0.93530 0.46030 0.11950 0.19000
C 	C 	0.79970 0.39720 0.21720 0.18900
C 	C 	0.75950 0.30140 0.24990 -0.11300
C 	C 	0.67620 0.32500 0.31750 -0.02700
C 	C 	0.62900 0.21890 0.34940 0.35300
C 	C 	0.63730 0.44810 0.35390 -0.02100
C 	C 	0.67580 0.54240 0.31870 -0.02200
C 	C 	0.62770 0.67180 0.35320 0.33600
C 	C 	0.75550 0.51670 0.24800 -0.12200
O 	O 	0.33050 0.03700 0.34347 -0.39300
O 	O 	0.40600 0.87880 0.22402 -0.41100
O 	O 	0.68550 0.84470 0.15888 -0.32200
O 	O 	0.83670 0.93070 0.32451 -0.32900
O 	O 	0.95990 0.58730 0.92557 -0.23500
O 	O 	0.11350 0.63740 0.84726 -0.23200
O 	O 	0.42130 0.74690 0.57231 -0.41400
O 	O 	0.35640 0.89640 0.70468 -0.40700
O 	O 	0.38630 0.28080 0.55116 -0.39600
O 	O 	0.39450 0.27360 0.71093 -0.40300
O 	O 	0.60680 0.98950 0.45646 -0.59500
O 	O 	0.66950 0.96300 0.65653 -0.39300
O 	O 	0.59400 0.12120 0.77598 -0.41100
O 	O 	0.31450 0.15530 0.84112 -0.32200
O 	O 	0.16330 0.06930 0.67549 -0.32900
O 	O 	0.04010 0.41270 0.07443 -0.23500
O 	O 	0.88650 0.36260 0.15274 -0.23200
O 	O 	0.57870 0.25310 0.42769 -0.41400
O 	O 	0.64360 0.10360 0.29532 -0.40700
O 	O 	0.61370 0.71920 0.44884 -0.39600
O 	O 	0.60550 0.72640 0.28907 -0.40300
O 	O 	0.39320 0.01050 0.54354 -0.59500
