data_crystal

_cell_length_a 8.34400
_cell_length_b 12.31940
_cell_length_c 17.55800
_cell_angle_alpha 98.05830
_cell_angle_beta  90.00000
_cell_angle_gamma 109.79500

_symmetry_space_group_name_	'P 1'
_symmetry_space_group_name_H-M	'P 1'

loop_
_symmetry_equiv_pos_as_xyz
  x,y,z

loop_
_atom_site_label
_atom_site_type_symbol
_atom_site_fract_x
_atom_site_fract_y
_atom_site_fract_z
_atom_site_charge
Yb	Yb	0.81773 0.00000 0.75000 1.39000
Yb	Yb	0.18227 0.00000 0.25000 1.37100
Yb	Yb	-0.00000 0.00000 -0.00000 1.32500
Yb	Yb	-0.00000 0.00000 0.50000 1.36700
H 	H 	0.74480 0.62180 0.93630 0.09700
H 	H 	0.50730 0.69140 0.76140 0.05800
H 	H 	0.32750 0.50120 0.73760 0.05200
H 	H 	0.64330 0.42000 0.97300 0.11300
H 	H 	0.44810 0.23820 0.95670 0.01200
H 	H 	0.22920 0.30320 0.77400 0.02300
H 	H 	0.97640 0.35780 0.87120 0.06300
H 	H 	0.80010 0.24400 0.06970 0.03300
H 	H 	0.88250 0.43020 0.13100 0.06300
H 	H 	0.12300 0.37820 0.56370 0.06100
H 	H 	0.81590 0.30860 0.73860 0.01700
H 	H 	0.82630 0.49880 0.76240 0.07800
H 	H 	0.22330 0.58000 0.52700 0.06600
H 	H 	0.20990 0.76180 0.54330 0.06600
H 	H 	0.92600 0.69680 0.72600 0.06300
H 	H 	0.61860 0.64220 0.62880 0.07000
H 	H 	0.55610 0.75600 0.43030 0.08500
H 	H 	0.45230 0.56980 0.36900 0.05800
H 	H 	0.25520 0.37820 0.06370 0.01700
H 	H 	0.49270 0.30860 0.23860 0.00400
H 	H 	0.67250 0.49880 0.26240 0.09400
H 	H 	0.35670 0.58000 0.02700 0.03400
H 	H 	0.55190 0.76180 0.04330 0.06600
H 	H 	0.77080 0.69680 0.22600 0.09300
H 	H 	0.02360 0.64220 0.12880 0.05200
H 	H 	0.19990 0.75600 0.93030 0.04900
H 	H 	0.11750 0.56980 0.86900 0.07100
H 	H 	0.87700 0.62180 0.43630 0.05300
H 	H 	0.18410 0.69140 0.26140 0.04400
H 	H 	0.17370 0.50120 0.23760 0.06600
H 	H 	0.77670 0.42000 0.47300 0.08200
H 	H 	0.79010 0.23820 0.45670 0.01000
H 	H 	0.07400 0.30320 0.27400 0.05300
H 	H 	0.38140 0.35780 0.37120 0.04300
H 	H 	0.44390 0.24400 0.56970 -0.00400
H 	H 	0.54770 0.43020 0.63100 0.07600
C 	C 	0.65890 0.59680 0.89750 -0.07400
C 	C 	0.64230 0.67360 0.85250 -0.05000
C 	C 	0.51700 0.63780 0.79210 -0.01700
C 	C 	0.40920 0.52440 0.77810 -0.05900
C 	C 	0.42050 0.44300 0.82430 -0.02200
C 	C 	0.54830 0.47960 0.88650 0.08000
C 	C 	0.55780 0.39820 0.93420 -0.14900
C 	C 	0.44390 0.28980 0.92350 0.08500
C 	C 	0.31730 0.25240 0.86250 -0.16300
C 	C 	0.31070 0.32880 0.81470 0.01400
C 	C 	0.75340 0.79920 0.86880 0.37000
C 	C 	0.18140 0.13480 0.85630 0.42100
C 	C 	0.95950 0.37340 0.92330 -0.01400
C 	C 	0.88210 0.28340 0.96230 -0.01300
C 	C 	0.85300 0.30560 0.04290 -0.08300
C 	C 	0.90280 0.41600 0.07910 -0.06500
C 	C 	0.01440 0.48900 0.96000 0.02000
C 	C 	0.83270 0.15700 0.92220 0.36900
C 	C 	0.06210 0.40320 0.60250 -0.07000
C 	C 	0.96870 0.32640 0.64750 -0.08800
C 	C 	0.87920 0.36220 0.70790 0.03700
C 	C 	0.88480 0.47560 0.72190 -0.11800
C 	C 	0.97750 0.55700 0.67570 0.07600
C 	C 	0.06870 0.52040 0.61350 -0.02000
C 	C 	0.15960 0.60180 0.56580 -0.07800
C 	C 	0.15410 0.71020 0.57650 0.00100
C 	C 	0.06490 0.74760 0.63750 -0.09000
C 	C 	0.98190 0.67120 0.68530 -0.00800
C 	C 	0.95420 0.20080 0.63120 0.46400
C 	C 	0.04660 0.86520 0.64370 0.30800
C 	C 	0.58610 0.62660 0.57670 -0.07600
C 	C 	0.59870 0.71660 0.53770 -0.03400
C 	C 	0.54740 0.69440 0.45710 -0.03000
C 	C 	0.48680 0.58400 0.42090 -0.05200
C 	C 	0.52540 0.51100 0.54000 0.05900
C 	C 	0.67570 0.84300 0.57780 0.33100
C 	C 	0.34110 0.40320 0.10250 0.01800
C 	C 	0.35770 0.32640 0.14750 -0.17000
C 	C 	0.48300 0.36220 0.20790 0.07400
C 	C 	0.59080 0.47560 0.22190 -0.15800
C 	C 	0.57950 0.55700 0.17570 0.08400
C 	C 	0.45170 0.52040 0.11350 -0.03700
C 	C 	0.44220 0.60180 0.06580 -0.04100
C 	C 	0.55610 0.71020 0.07650 -0.03600
C 	C 	0.68270 0.74760 0.13750 -0.02400
C 	C 	0.68930 0.67120 0.18530 -0.09000
C 	C 	0.24660 0.20080 0.13120 0.43100
C 	C 	0.81860 0.86520 0.14370 0.34100
C 	C 	0.04050 0.62660 0.07670 -0.07400
C 	C 	0.11790 0.71660 0.03770 -0.14300
C 	C 	0.14700 0.69440 0.95710 0.09900
C 	C 	0.09720 0.58400 0.92090 -0.11900
C 	C 	0.98560 0.51100 0.04000 0.02900
C 	C 	0.16730 0.84300 0.07780 0.35000
C 	C 	0.93790 0.59680 0.39750 0.01200
C 	C 	0.03130 0.67360 0.35250 -0.13200
C 	C 	0.12080 0.63780 0.29210 0.01900
C 	C 	0.11520 0.52440 0.27810 -0.09800
C 	C 	0.02250 0.44300 0.32430 -0.01600
C 	C 	0.93130 0.47960 0.38650 0.06500
C 	C 	0.84040 0.39820 0.43420 -0.11500
C 	C 	0.84590 0.28980 0.42350 0.04900
C 	C 	0.93510 0.25240 0.36250 -0.09800
C 	C 	0.01810 0.32880 0.31470 -0.07000
C 	C 	0.04580 0.79920 0.36880 0.34100
C 	C 	0.95340 0.13480 0.35630 0.46300
C 	C 	0.41390 0.37340 0.42330 -0.00700
C 	C 	0.40130 0.28340 0.46230 -0.12700
C 	C 	0.45260 0.30560 0.54290 0.05000
C 	C 	0.51320 0.41600 0.57910 -0.13300
C 	C 	0.47460 0.48900 0.46000 -0.01200
C 	C 	0.32430 0.15700 0.42220 0.39200
O 	O 	0.74110 0.86640 0.82420 -0.32300
O 	O 	0.85820 0.83180 0.92600 -0.29000
O 	O 	0.08540 0.10060 0.79720 -0.53100
O 	O 	0.16950 0.07540 0.91030 -0.52600
O 	O 	0.80940 0.13960 0.85150 -0.46400
O 	O 	0.81930 0.08000 0.96570 -0.48400
O 	O 	0.87470 0.13360 0.67580 -0.55200
O 	O 	0.02640 0.16820 0.57400 -0.53700
O 	O 	0.98480 0.89940 0.70280 -0.23500
O 	O 	0.09410 0.92460 0.58970 -0.28500
O 	O 	0.66980 0.86040 0.64850 -0.31900
O 	O 	0.73930 0.92000 0.53430 -0.26200
O 	O 	0.25890 0.13360 0.17580 -0.56100
O 	O 	0.14180 0.16820 0.07400 -0.52700
O 	O 	0.91460 0.89940 0.20280 -0.25000
O 	O 	0.83050 0.92460 0.08970 -0.27800
O 	O 	0.19060 0.86040 0.14850 -0.33400
O 	O 	0.18070 0.92000 0.03430 -0.31100
O 	O 	0.12530 0.86640 0.32420 -0.33100
O 	O 	0.97360 0.83180 0.42600 -0.28900
O 	O 	0.01520 0.10060 0.29720 -0.55600
O 	O 	0.90590 0.07540 0.41030 -0.53500
O 	O 	0.33020 0.13960 0.35150 -0.48300
O 	O 	0.26070 0.08000 0.46570 -0.55000
