data_crystal

_cell_length_a 13.47500
_cell_length_b 13.47500
_cell_length_c 8.02910
_cell_angle_alpha 90.00000
_cell_angle_beta  90.00000
_cell_angle_gamma 120.00000

_symmetry_space_group_name_	'P 1'
_symmetry_space_group_name_H-M	'P 1'

loop_
_symmetry_equiv_pos_as_xyz
  x,y,z

loop_
_atom_site_label
_atom_site_type_symbol
_atom_site_fract_x
_atom_site_fract_y
_atom_site_fract_z
_atom_site_charge
Mn	Mn	0.30265 0.33739 0.95416 1.21900
O 	O 	0.22656 0.17902 0.09350 -0.36000
C 	C 	0.53497 0.32188 0.94990 -0.31400
C 	C 	0.35407 0.55960 0.72430 -0.25700
O 	O 	0.23911 0.05498 0.25740 -0.40000
C 	C 	0.26342 0.15580 0.22150 0.35300
N 	N 	0.34632 0.20777 0.50150 -0.30900
H 	H 	0.28610 0.19770 0.56290 0.13000
H 	H 	0.41130 0.25610 0.55570 0.08600
C 	C 	0.34394 0.25337 0.33640 -0.15000
H 	H 	0.42110 0.28500 0.28980 0.05400
N 	N 	0.36683 0.42781 0.19820 -0.33100
H 	H 	0.44370 0.46070 0.20040 0.10800
H 	H 	0.34950 0.48410 0.20530 0.10200
C 	C 	0.31899 0.35239 0.34530 -0.01500
H 	H 	0.23680 0.32190 0.34990 0.02900
H 	H 	0.35250 0.39650 0.44590 0.01800
N 	N 	0.45553 0.31973 0.89260 -0.19400
N 	N 	0.36777 0.49852 0.80870 -0.21400
Mn	Mn	0.66261 0.96526 0.95416 1.22000
O 	O 	0.82098 0.04754 0.09350 -0.36800
C 	C 	0.67812 0.21309 0.94990 -0.31300
C 	C 	0.44040 0.79447 0.72430 -0.25700
O 	O 	0.94502 0.18413 0.25740 -0.40300
C 	C 	0.84420 0.10762 0.22150 0.35500
N 	N 	0.79223 0.13855 0.50150 -0.30800
H 	H 	0.80230 0.08840 0.56290 0.12800
H 	H 	0.74390 0.15520 0.55570 0.08500
C 	C 	0.74663 0.09057 0.33640 -0.15800
H 	H 	0.71500 0.13610 0.28980 0.05400
N 	N 	0.57219 0.93902 0.19820 -0.33200
H 	H 	0.53930 0.98300 0.20040 0.11000
H 	H 	0.51590 0.86540 0.20530 0.10300
C 	C 	0.64761 0.96660 0.34530 -0.00600
H 	H 	0.67810 0.91490 0.34990 0.02700
H 	H 	0.60350 0.95600 0.44590 0.01600
N 	N 	0.68027 0.13580 0.89260 -0.19300
N 	N 	0.50148 0.86925 0.80870 -0.21400
Mn	Mn	0.03474 0.69735 0.95416 1.21900
O 	O 	0.95246 0.77344 0.09350 -0.36300
C 	C 	0.78691 0.46503 0.94990 -0.31300
C 	C 	0.20553 0.64593 0.72430 -0.25700
O 	O 	0.81587 0.76089 0.25740 -0.39800
C 	C 	0.89238 0.73658 0.22150 0.35400
N 	N 	0.86145 0.65368 0.50150 -0.30800
H 	H 	0.91160 0.71390 0.56290 0.12900
H 	H 	0.84480 0.58870 0.55570 0.08500
C 	C 	0.90943 0.65606 0.33640 -0.15700
H 	H 	0.86390 0.57890 0.28980 0.05400
N 	N 	0.06098 0.63317 0.19820 -0.33100
H 	H 	0.01700 0.55630 0.20040 0.11000
H 	H 	0.13460 0.65050 0.20530 0.10300
C 	C 	0.03340 0.68101 0.34530 -0.00700
H 	H 	0.08510 0.76320 0.34990 0.02800
H 	H 	0.04400 0.64750 0.44590 0.01700
N 	N 	0.86420 0.54447 0.89260 -0.19400
N 	N 	0.13075 0.63223 0.80870 -0.21400
Mn	Mn	0.69735 0.66261 0.45416 1.26100
O 	O 	0.77344 0.82098 0.59350 -0.42000
C 	C 	0.46503 0.67812 0.44990 -0.24500
C 	C 	0.64593 0.44040 0.22430 -0.20000
O 	O 	0.76089 0.94502 0.75740 -0.44100
C 	C 	0.73658 0.84420 0.72150 0.37200
N 	N 	0.65368 0.79223 0.00150 -0.25000
H 	H 	0.71390 0.80230 0.06290 0.14700
H 	H 	0.58870 0.74390 0.05570 0.10700
C 	C 	0.65606 0.74663 0.83640 -0.25400
H 	H 	0.57890 0.71500 0.78980 0.06100
N 	N 	0.63317 0.57219 0.69820 -0.34700
H 	H 	0.55630 0.53930 0.70040 0.08700
H 	H 	0.65050 0.51590 0.70530 0.08800
C 	C 	0.68101 0.64761 0.84530 0.03600
H 	H 	0.76320 0.67810 0.84990 -0.00900
H 	H 	0.64750 0.60350 0.94590 -0.03200
N 	N 	0.54447 0.68027 0.39260 -0.18600
N 	N 	0.63223 0.50148 0.30870 -0.19900
Mn	Mn	0.33739 0.03474 0.45416 1.25900
O 	O 	0.17902 0.95246 0.59350 -0.41700
C 	C 	0.32188 0.78691 0.44990 -0.24500
C 	C 	0.55960 0.20553 0.22430 -0.20200
O 	O 	0.05498 0.81587 0.75740 -0.44100
C 	C 	0.15580 0.89238 0.72150 0.37200
N 	N 	0.20777 0.86145 0.00150 -0.24800
H 	H 	0.19770 0.91160 0.06290 0.15000
H 	H 	0.25610 0.84480 0.05570 0.10800
C 	C 	0.25337 0.90943 0.83640 -0.25600
H 	H 	0.28500 0.86390 0.78980 0.06100
N 	N 	0.42781 0.06098 0.69820 -0.34700
H 	H 	0.46070 0.01700 0.70040 0.08600
H 	H 	0.48410 0.13460 0.70530 0.08800
C 	C 	0.35239 0.03340 0.84530 0.03600
H 	H 	0.32190 0.08510 0.84990 -0.00900
H 	H 	0.39650 0.04400 0.94590 -0.03200
N 	N 	0.31973 0.86420 0.39260 -0.18500
N 	N 	0.49852 0.13075 0.30870 -0.20000
Mn	Mn	0.96526 0.30265 0.45416 1.25900
O 	O 	0.04754 0.22656 0.59350 -0.41800
C 	C 	0.21309 0.53497 0.44990 -0.24500
C 	C 	0.79447 0.35407 0.22430 -0.20200
O 	O 	0.18413 0.23911 0.75740 -0.44200
C 	C 	0.10762 0.26342 0.72150 0.37200
N 	N 	0.13855 0.34632 0.00150 -0.25000
H 	H 	0.08840 0.28610 0.06290 0.14800
H 	H 	0.15520 0.41130 0.05570 0.10800
C 	C 	0.09057 0.34394 0.83640 -0.25300
H 	H 	0.13610 0.42110 0.78980 0.06100
N 	N 	0.93902 0.36683 0.69820 -0.34600
H 	H 	0.98300 0.44370 0.70040 0.08600
H 	H 	0.86540 0.34950 0.70530 0.08800
C 	C 	0.96660 0.31899 0.84530 0.03400
H 	H 	0.91490 0.23680 0.84990 -0.00700
H 	H 	0.95600 0.35250 0.94590 -0.03000
N 	N 	0.13580 0.45553 0.39260 -0.18500
N 	N 	0.86925 0.36777 0.30870 -0.20000
Mn	Mn	0.33333 0.66667 0.57900 1.28300
Mn	Mn	0.66667 0.33333 0.07900 1.32700
