data_crystal

_cell_length_a 13.53290
_cell_length_b 13.53290
_cell_length_c 8.08160
_cell_angle_alpha 90.00000
_cell_angle_beta  90.00000
_cell_angle_gamma 120.00000

_symmetry_space_group_name_	'P 1'
_symmetry_space_group_name_H-M	'P 1'

loop_
_symmetry_equiv_pos_as_xyz
  x,y,z

loop_
_atom_site_label
_atom_site_type_symbol
_atom_site_fract_x
_atom_site_fract_y
_atom_site_fract_z
_atom_site_charge
Mn	Mn	0.30086 0.33799 0.54514 1.25800
O 	O 	0.22937 0.18133 0.40590 -0.41800
C 	C 	0.53474 0.32295 0.54790 -0.24700
C 	C 	0.35360 0.55970 0.77670 -0.23300
O 	O 	0.24559 0.05855 0.24630 -0.42400
C 	C 	0.26710 0.15810 0.28000 0.35700
N 	N 	0.34670 0.20900 0.00070 -0.33600
H 	H 	0.41110 0.25700 0.94600 0.10300
H 	H 	0.28650 0.19910 0.94050 0.14700
C 	C 	0.34550 0.25520 0.16380 -0.15100
H 	H 	0.42290 0.28740 0.20840 0.04400
N 	N 	0.36580 0.42797 0.30390 -0.33900
H 	H 	0.34820 0.48380 0.29620 0.08600
H 	H 	0.44240 0.46110 0.30290 0.08800
C 	C 	0.31960 0.35310 0.15740 -0.02100
H 	H 	0.35290 0.39770 0.05790 0.01600
H 	H 	0.23770 0.32200 0.15230 0.02500
N 	N 	0.45560 0.32180 0.60250 -0.18700
N 	N 	0.36740 0.49980 0.69220 -0.19400
Mn	Mn	0.66201 0.96287 0.54514 1.25900
O 	O 	0.81867 0.04804 0.40590 -0.41800
C 	C 	0.67705 0.21179 0.54790 -0.24700
C 	C 	0.44030 0.79390 0.77670 -0.23300
O 	O 	0.94145 0.18704 0.24630 -0.42400
C 	C 	0.84190 0.10900 0.28000 0.35700
N 	N 	0.79100 0.13770 0.00070 -0.34000
H 	H 	0.74300 0.15410 0.94600 0.10600
H 	H 	0.80090 0.08740 0.94050 0.15000
C 	C 	0.74480 0.09030 0.16380 -0.15200
H 	H 	0.71260 0.13550 0.20840 0.04400
N 	N 	0.57203 0.93783 0.30390 -0.33900
H 	H 	0.51620 0.86440 0.29620 0.08600
H 	H 	0.53890 0.98130 0.30290 0.08800
C 	C 	0.64690 0.96650 0.15740 -0.02000
H 	H 	0.60230 0.95520 0.05790 0.01600
H 	H 	0.67800 0.91570 0.15230 0.02400
N 	N 	0.67820 0.13380 0.60250 -0.18700
N 	N 	0.50020 0.86760 0.69220 -0.19500
Mn	Mn	0.03713 0.69914 0.54514 1.25900
O 	O 	0.95196 0.77063 0.40590 -0.41800
C 	C 	0.78821 0.46526 0.54790 -0.24700
C 	C 	0.20610 0.64640 0.77670 -0.23400
O 	O 	0.81296 0.75441 0.24630 -0.42400
C 	C 	0.89100 0.73290 0.28000 0.35700
N 	N 	0.86230 0.65330 0.00070 -0.33700
H 	H 	0.84590 0.58890 0.94600 0.10400
H 	H 	0.91260 0.71350 0.94050 0.14800
C 	C 	0.90970 0.65450 0.16380 -0.15200
H 	H 	0.86450 0.57710 0.20840 0.04400
N 	N 	0.06217 0.63420 0.30390 -0.33900
H 	H 	0.13560 0.65180 0.29620 0.08600
H 	H 	0.01870 0.55760 0.30290 0.08800
C 	C 	0.03350 0.68040 0.15740 -0.02100
H 	H 	0.04480 0.64710 0.05790 0.01700
H 	H 	0.08430 0.76230 0.15230 0.02500
N 	N 	0.86620 0.54440 0.60250 -0.18700
N 	N 	0.13240 0.63260 0.69220 -0.19500
Mn	Mn	0.69914 0.66201 0.04514 1.25400
O 	O 	0.77063 0.81867 0.90590 -0.41000
C 	C 	0.46526 0.67705 0.04790 -0.25700
C 	C 	0.64640 0.44030 0.27670 -0.24100
O 	O 	0.75441 0.94145 0.74630 -0.42100
C 	C 	0.73290 0.84190 0.78000 0.35800
N 	N 	0.65330 0.79100 0.50070 -0.31000
H 	H 	0.58890 0.74300 0.44600 0.08600
H 	H 	0.71350 0.80090 0.44050 0.13000
C 	C 	0.65450 0.74480 0.66380 -0.15100
H 	H 	0.57710 0.71260 0.70840 0.04700
N 	N 	0.63420 0.57203 0.80390 -0.33700
H 	H 	0.65180 0.51620 0.79620 0.08800
H 	H 	0.55760 0.53890 0.80290 0.09100
C 	C 	0.68040 0.64690 0.65740 -0.02100
H 	H 	0.64710 0.60230 0.55790 0.02100
H 	H 	0.76230 0.67800 0.65230 0.02800
N 	N 	0.54440 0.67820 0.10250 -0.18800
N 	N 	0.63260 0.50020 0.19220 -0.19600
Mn	Mn	0.33799 0.03713 0.04514 1.25400
O 	O 	0.18133 0.95196 0.90590 -0.41300
C 	C 	0.32295 0.78821 0.04790 -0.25600
C 	C 	0.55970 0.20610 0.27670 -0.24100
O 	O 	0.05855 0.81296 0.74630 -0.42200
C 	C 	0.15810 0.89100 0.78000 0.35900
N 	N 	0.20900 0.86230 0.50070 -0.31000
H 	H 	0.25700 0.84590 0.44600 0.08600
H 	H 	0.19910 0.91260 0.44050 0.13000
C 	C 	0.25520 0.90970 0.66380 -0.15400
H 	H 	0.28740 0.86450 0.70840 0.04700
N 	N 	0.42797 0.06217 0.80390 -0.33800
H 	H 	0.48380 0.13560 0.79620 0.08800
H 	H 	0.46110 0.01870 0.80290 0.09200
C 	C 	0.35310 0.03350 0.65740 -0.01800
H 	H 	0.39770 0.04480 0.55790 0.02100
H 	H 	0.32200 0.08430 0.65230 0.02700
N 	N 	0.32180 0.86620 0.10250 -0.18800
N 	N 	0.49980 0.13240 0.19220 -0.19700
Mn	Mn	0.96287 0.30086 0.04514 1.25300
O 	O 	0.04804 0.22937 0.90590 -0.41100
C 	C 	0.21179 0.53474 0.04790 -0.25600
C 	C 	0.79390 0.35360 0.27670 -0.24100
O 	O 	0.18704 0.24559 0.74630 -0.42000
C 	C 	0.10900 0.26710 0.78000 0.35900
N 	N 	0.13770 0.34670 0.50070 -0.31000
H 	H 	0.15410 0.41110 0.44600 0.08600
H 	H 	0.08740 0.28650 0.44050 0.13000
C 	C 	0.09030 0.34550 0.66380 -0.15300
H 	H 	0.13550 0.42290 0.70840 0.04700
N 	N 	0.93783 0.36580 0.80390 -0.33700
H 	H 	0.86440 0.34820 0.79620 0.08800
H 	H 	0.98130 0.44240 0.80290 0.09200
C 	C 	0.96650 0.31960 0.65740 -0.01900
H 	H 	0.95520 0.35290 0.55790 0.02100
H 	H 	0.91570 0.23770 0.65230 0.02700
N 	N 	0.13380 0.45560 0.10250 -0.18800
N 	N 	0.86760 0.36740 0.19220 -0.19700
Mn	Mn	0.33333 0.66667 0.92237 1.28700
Mn	Mn	0.66667 0.33333 0.42237 1.28100
