data_crystal

_cell_length_a 13.50680
_cell_length_b 13.50680
_cell_length_c 8.06760
_cell_angle_alpha 90.00000
_cell_angle_beta  90.00000
_cell_angle_gamma 120.00000

_symmetry_space_group_name_	'P 1'
_symmetry_space_group_name_H-M	'P 1'

loop_
_symmetry_equiv_pos_as_xyz
  x,y,z

loop_
_atom_site_label
_atom_site_type_symbol
_atom_site_fract_x
_atom_site_fract_y
_atom_site_fract_z
_atom_site_charge
Mn	Mn	0.30249 0.33787 0.54595 1.25800
O 	O 	0.22970 0.18051 0.40702 -0.41800
C 	C 	0.53539 0.32267 0.54860 -0.24800
C 	C 	0.35424 0.56007 0.77620 -0.23800
O 	O 	0.24420 0.05708 0.24600 -0.42300
C 	C 	0.26685 0.15690 0.28060 0.35700
N 	N 	0.34672 0.20793 0.00035 -0.33600
H 	H 	0.41120 0.25590 0.94540 0.10400
H 	H 	0.28640 0.19790 0.94000 0.14700
C 	C 	0.34553 0.25434 0.16400 -0.15100
H 	H 	0.42310 0.28670 0.20870 0.04300
N 	N 	0.36695 0.42765 0.30300 -0.33900
H 	H 	0.34970 0.48380 0.29550 0.08700
H 	H 	0.44360 0.46050 0.30120 0.08900
C 	C 	0.31970 0.35247 0.15620 -0.02100
H 	H 	0.35280 0.39680 0.05630 0.01600
H 	H 	0.23760 0.32150 0.15170 0.02500
N 	N 	0.45618 0.32068 0.60580 -0.18800
N 	N 	0.36840 0.49985 0.69010 -0.19600
Mn	Mn	0.66213 0.96462 0.54595 1.25900
O 	O 	0.81949 0.04919 0.40702 -0.41700
C 	C 	0.67733 0.21272 0.54860 -0.24700
C 	C 	0.43993 0.79417 0.77620 -0.23700
O 	O 	0.94292 0.18712 0.24600 -0.42300
C 	C 	0.84310 0.10995 0.28060 0.35700
N 	N 	0.79207 0.13879 0.00035 -0.33900
H 	H 	0.74410 0.15530 0.94540 0.10600
H 	H 	0.80210 0.08850 0.94000 0.15000
C 	C 	0.74566 0.09119 0.16400 -0.15200
H 	H 	0.71330 0.13640 0.20870 0.04400
N 	N 	0.57235 0.93930 0.30300 -0.33900
H 	H 	0.51620 0.86590 0.29550 0.08700
H 	H 	0.53950 0.98310 0.30120 0.08900
C 	C 	0.64753 0.96723 0.15620 -0.02000
H 	H 	0.60320 0.95600 0.05630 0.01600
H 	H 	0.67850 0.91610 0.15170 0.02500
N 	N 	0.67932 0.13550 0.60580 -0.18800
N 	N 	0.50015 0.86855 0.69010 -0.19700
Mn	Mn	0.03538 0.69751 0.54595 1.25900
O 	O 	0.95081 0.77030 0.40702 -0.41700
C 	C 	0.78728 0.46461 0.54860 -0.24700
C 	C 	0.20583 0.64576 0.77620 -0.23800
O 	O 	0.81288 0.75580 0.24600 -0.42300
C 	C 	0.89005 0.73315 0.28060 0.35700
N 	N 	0.86121 0.65328 0.00035 -0.33600
H 	H 	0.84470 0.58880 0.94540 0.10400
H 	H 	0.91150 0.71360 0.94000 0.14800
C 	C 	0.90881 0.65447 0.16400 -0.15200
H 	H 	0.86360 0.57690 0.20870 0.04400
N 	N 	0.06070 0.63305 0.30300 -0.33900
H 	H 	0.13410 0.65030 0.29550 0.08700
H 	H 	0.01690 0.55640 0.30120 0.08900
C 	C 	0.03277 0.68030 0.15620 -0.02000
H 	H 	0.04400 0.64720 0.05630 0.01600
H 	H 	0.08390 0.76240 0.15170 0.02500
N 	N 	0.86450 0.54382 0.60580 -0.18800
N 	N 	0.13145 0.63160 0.69010 -0.19700
Mn	Mn	0.69751 0.66213 0.04595 1.25400
O 	O 	0.77030 0.81949 0.90702 -0.41000
C 	C 	0.46461 0.67733 0.04860 -0.25700
C 	C 	0.64576 0.43993 0.27620 -0.24400
O 	O 	0.75580 0.94292 0.74600 -0.42000
C 	C 	0.73315 0.84310 0.78060 0.35900
N 	N 	0.65328 0.79207 0.50035 -0.31000
H 	H 	0.58880 0.74410 0.44540 0.08700
H 	H 	0.71360 0.80210 0.44000 0.13100
C 	C 	0.65447 0.74566 0.66400 -0.15100
H 	H 	0.57690 0.71330 0.70870 0.04600
N 	N 	0.63305 0.57235 0.80300 -0.33700
H 	H 	0.65030 0.51620 0.79550 0.09000
H 	H 	0.55640 0.53950 0.80120 0.09200
C 	C 	0.68030 0.64753 0.65620 -0.02100
H 	H 	0.64720 0.60320 0.55630 0.02100
H 	H 	0.76240 0.67850 0.65170 0.02800
N 	N 	0.54382 0.67932 0.10580 -0.18900
N 	N 	0.63160 0.50015 0.19010 -0.19800
Mn	Mn	0.33787 0.03538 0.04595 1.25400
O 	O 	0.18051 0.95081 0.90702 -0.41200
C 	C 	0.32267 0.78728 0.04860 -0.25600
C 	C 	0.56007 0.20583 0.27620 -0.24400
O 	O 	0.05708 0.81288 0.74600 -0.42100
C 	C 	0.15690 0.89005 0.78060 0.35900
N 	N 	0.20793 0.86121 0.50035 -0.30900
H 	H 	0.25590 0.84470 0.44540 0.08700
H 	H 	0.19790 0.91150 0.44000 0.13100
C 	C 	0.25434 0.90881 0.66400 -0.15300
H 	H 	0.28670 0.86360 0.70870 0.04700
N 	N 	0.42765 0.06070 0.80300 -0.33800
H 	H 	0.48380 0.13410 0.79550 0.09000
H 	H 	0.46050 0.01690 0.80120 0.09300
C 	C 	0.35247 0.03277 0.65620 -0.01800
H 	H 	0.39680 0.04400 0.55630 0.02000
H 	H 	0.32150 0.08390 0.65170 0.02800
N 	N 	0.32068 0.86450 0.10580 -0.18900
N 	N 	0.49985 0.13145 0.19010 -0.19900
Mn	Mn	0.96462 0.30249 0.04595 1.25300
O 	O 	0.04919 0.22970 0.90702 -0.41000
C 	C 	0.21272 0.53539 0.04860 -0.25700
C 	C 	0.79417 0.35424 0.27620 -0.24400
O 	O 	0.18712 0.24420 0.74600 -0.41900
C 	C 	0.10995 0.26685 0.78060 0.35900
N 	N 	0.13879 0.34672 0.50035 -0.30900
H 	H 	0.15530 0.41120 0.44540 0.08700
H 	H 	0.08850 0.28640 0.44000 0.13100
C 	C 	0.09119 0.34553 0.66400 -0.15300
H 	H 	0.13640 0.42310 0.70870 0.04700
N 	N 	0.93930 0.36695 0.80300 -0.33700
H 	H 	0.86590 0.34970 0.79550 0.09000
H 	H 	0.98310 0.44360 0.80120 0.09300
C 	C 	0.96723 0.31970 0.65620 -0.01800
H 	H 	0.95600 0.35280 0.55630 0.02000
H 	H 	0.91610 0.23760 0.65170 0.02800
N 	N 	0.13550 0.45618 0.10580 -0.18900
N 	N 	0.86855 0.36840 0.19010 -0.19900
Mn	Mn	0.33333 0.66667 0.92056 1.28900
Mn	Mn	0.66667 0.33333 0.42056 1.28300
