data_crystal

_cell_length_a 13.49170
_cell_length_b 13.49170
_cell_length_c 8.06440
_cell_angle_alpha 90.00000
_cell_angle_beta  90.00000
_cell_angle_gamma 120.00000

_symmetry_space_group_name_	'P 1'
_symmetry_space_group_name_H-M	'P 1'

loop_
_symmetry_equiv_pos_as_xyz
  x,y,z

loop_
_atom_site_label
_atom_site_type_symbol
_atom_site_fract_x
_atom_site_fract_y
_atom_site_fract_z
_atom_site_charge
Mn	Mn	0.30259 0.33801 0.95420 1.21800
O 	O 	0.22856 0.18034 0.09360 -0.36400
C 	C 	0.53517 0.32237 0.95090 -0.31400
C 	C 	0.35398 0.55983 0.72340 -0.25700
O 	O 	0.24225 0.05669 0.25590 -0.40400
C 	C 	0.26591 0.15691 0.22050 0.35600
N 	N 	0.34703 0.20836 0.50000 -0.30900
H 	H 	0.28680 0.19840 0.56070 0.12900
H 	H 	0.41170 0.25650 0.55440 0.08600
C 	C 	0.34531 0.25425 0.33590 -0.15000
H 	H 	0.42270 0.28630 0.29040 0.05400
N 	N 	0.36693 0.42807 0.19720 -0.33100
H 	H 	0.44370 0.46110 0.19890 0.10800
H 	H 	0.34950 0.48420 0.20450 0.10200
C 	C 	0.31980 0.35290 0.34400 -0.01500
H 	H 	0.23770 0.32210 0.34880 0.02900
H 	H 	0.35320 0.39730 0.44390 0.01900
N 	N 	0.45563 0.32038 0.89410 -0.19300
N 	N 	0.36820 0.49931 0.80910 -0.21400
Mn	Mn	0.66199 0.96458 0.95420 1.22000
O 	O 	0.81966 0.04822 0.09360 -0.37000
C 	C 	0.67763 0.21280 0.95090 -0.31300
C 	C 	0.44017 0.79415 0.72340 -0.25700
O 	O 	0.94331 0.18556 0.25590 -0.40700
C 	C 	0.84309 0.10900 0.22050 0.35800
N 	N 	0.79164 0.13867 0.50000 -0.30800
H 	H 	0.80160 0.08840 0.56070 0.12800
H 	H 	0.74350 0.15520 0.55440 0.08500
C 	C 	0.74575 0.09106 0.33590 -0.15800
H 	H 	0.71370 0.13640 0.29040 0.05500
N 	N 	0.57193 0.93886 0.19720 -0.33200
H 	H 	0.53890 0.98260 0.19890 0.11100
H 	H 	0.51580 0.86530 0.20450 0.10300
C 	C 	0.64710 0.96690 0.34400 -0.00700
H 	H 	0.67790 0.91560 0.34880 0.02700
H 	H 	0.60270 0.95590 0.44390 0.01700
N 	N 	0.67962 0.13525 0.89410 -0.19300
N 	N 	0.50069 0.86889 0.80910 -0.21300
Mn	Mn	0.03542 0.69741 0.95420 1.21900
O 	O 	0.95178 0.77144 0.09360 -0.36600
C 	C 	0.78720 0.46483 0.95090 -0.31300
C 	C 	0.20585 0.64602 0.72340 -0.25700
O 	O 	0.81444 0.75775 0.25590 -0.40200
C 	C 	0.89100 0.73409 0.22050 0.35700
N 	N 	0.86133 0.65297 0.50000 -0.30800
H 	H 	0.91160 0.71320 0.56070 0.12800
H 	H 	0.84480 0.58830 0.55440 0.08500
C 	C 	0.90894 0.65469 0.33590 -0.15700
H 	H 	0.86360 0.57730 0.29040 0.05500
N 	N 	0.06114 0.63307 0.19720 -0.33100
H 	H 	0.01740 0.55630 0.19890 0.11100
H 	H 	0.13470 0.65050 0.20450 0.10300
C 	C 	0.03310 0.68020 0.34400 -0.00800
H 	H 	0.08440 0.76230 0.34880 0.02800
H 	H 	0.04410 0.64680 0.44390 0.01700
N 	N 	0.86475 0.54437 0.89410 -0.19300
N 	N 	0.13111 0.63180 0.80910 -0.21400
Mn	Mn	0.69741 0.66199 0.45420 1.26100
O 	O 	0.77144 0.81966 0.59360 -0.42200
C 	C 	0.46483 0.67763 0.45090 -0.24400
C 	C 	0.64602 0.44017 0.22340 -0.20100
O 	O 	0.75775 0.94331 0.75590 -0.44400
C 	C 	0.73409 0.84309 0.72050 0.37500
N 	N 	0.65297 0.79164 -0.00000 -0.25000
H 	H 	0.71320 0.80160 0.06070 0.14700
H 	H 	0.58830 0.74350 0.05440 0.10700
C 	C 	0.65469 0.74575 0.83590 -0.25400
H 	H 	0.57730 0.71370 0.79040 0.06200
N 	N 	0.63307 0.57193 0.69720 -0.34600
H 	H 	0.55630 0.53890 0.69890 0.08700
H 	H 	0.65050 0.51580 0.70450 0.08800
C 	C 	0.68020 0.64710 0.84400 0.03600
H 	H 	0.76230 0.67790 0.84880 -0.00800
H 	H 	0.64680 0.60270 0.94390 -0.03100
N 	N 	0.54437 0.67962 0.39410 -0.18500
N 	N 	0.63180 0.50069 0.30910 -0.19800
Mn	Mn	0.33801 0.03542 0.45420 1.26000
O 	O 	0.18034 0.95178 0.59360 -0.42000
C 	C 	0.32237 0.78720 0.45090 -0.24400
C 	C 	0.55983 0.20585 0.22340 -0.20200
O 	O 	0.05669 0.81444 0.75590 -0.44500
C 	C 	0.15691 0.89100 0.72050 0.37500
N 	N 	0.20836 0.86133 -0.00000 -0.24800
H 	H 	0.19840 0.91160 0.06070 0.14900
H 	H 	0.25650 0.84480 0.05440 0.10800
C 	C 	0.25425 0.90894 0.83590 -0.25600
H 	H 	0.28630 0.86360 0.79040 0.06200
N 	N 	0.42807 0.06114 0.69720 -0.34700
H 	H 	0.46110 0.01740 0.69890 0.08700
H 	H 	0.48420 0.13470 0.70450 0.08800
C 	C 	0.35290 0.03310 0.84400 0.03500
H 	H 	0.32210 0.08440 0.84880 -0.00900
H 	H 	0.39730 0.04410 0.94390 -0.03100
N 	N 	0.32038 0.86475 0.39410 -0.18400
N 	N 	0.49931 0.13111 0.30910 -0.19900
Mn	Mn	0.96458 0.30259 0.45420 1.25900
O 	O 	0.04822 0.22856 0.59360 -0.42100
C 	C 	0.21280 0.53517 0.45090 -0.24400
C 	C 	0.79415 0.35398 0.22340 -0.20200
O 	O 	0.18556 0.24225 0.75590 -0.44600
C 	C 	0.10900 0.26591 0.72050 0.37500
N 	N 	0.13867 0.34703 -0.00000 -0.25000
H 	H 	0.08840 0.28680 0.06070 0.14800
H 	H 	0.15520 0.41170 0.05440 0.10800
C 	C 	0.09106 0.34531 0.83590 -0.25300
H 	H 	0.13640 0.42270 0.79040 0.06200
N 	N 	0.93886 0.36693 0.69720 -0.34600
H 	H 	0.98260 0.44370 0.69890 0.08700
H 	H 	0.86530 0.34950 0.70450 0.08800
C 	C 	0.96690 0.31980 0.84400 0.03400
H 	H 	0.91560 0.23770 0.84880 -0.00700
H 	H 	0.95590 0.35320 0.94390 -0.02900
N 	N 	0.13525 0.45563 0.39410 -0.18400
N 	N 	0.86889 0.36820 0.30910 -0.19900
Mn	Mn	0.33333 0.66667 0.57888 1.28300
Mn	Mn	0.66667 0.33333 0.07888 1.32800
