data_crystal

_cell_length_a 13.48460
_cell_length_b 13.48460
_cell_length_c 8.03200
_cell_angle_alpha 90.00000
_cell_angle_beta  90.00000
_cell_angle_gamma 120.00000

_symmetry_space_group_name_	'P 1'
_symmetry_space_group_name_H-M	'P 1'

loop_
_symmetry_equiv_pos_as_xyz
  x,y,z

loop_
_atom_site_label
_atom_site_type_symbol
_atom_site_fract_x
_atom_site_fract_y
_atom_site_fract_z
_atom_site_charge
Mn	Mn	0.30142 0.33873 0.54463 1.26000
O 	O 	0.22620 0.18127 0.40320 -0.42100
C 	C 	0.53360 0.32250 0.54810 -0.24700
C 	C 	0.35330 0.55930 0.77860 -0.19700
O 	O 	0.24040 0.05749 0.24240 -0.44200
C 	C 	0.26450 0.15770 0.27700 0.37600
N 	N 	0.34850 0.21040 0.99930 -0.24800
H 	H 	0.41390 0.25880 0.94600 0.10500
H 	H 	0.28890 0.20090 0.93690 0.14500
C 	C 	0.34520 0.25520 0.16260 -0.25400
H 	H 	0.42210 0.28660 0.20990 0.06100
N 	N 	0.36650 0.42900 0.30210 -0.34700
H 	H 	0.34880 0.48500 0.29470 0.08600
H 	H 	0.44330 0.46230 0.30130 0.08700
C 	C 	0.32070 0.35480 0.15410 0.03600
H 	H 	0.35550 0.39960 0.05460 -0.03200
H 	H 	0.23870 0.32460 0.14720 -0.00800
N 	N 	0.45400 0.32030 0.60370 -0.18500
N 	N 	0.36690 0.49930 0.69290 -0.19800
Mn	Mn	0.66127 0.96269 0.54463 1.25900
O 	O 	0.81873 0.04493 0.40320 -0.41800
C 	C 	0.67750 0.21110 0.54810 -0.24600
C 	C 	0.44070 0.79400 0.77860 -0.19800
O 	O 	0.94251 0.18291 0.24240 -0.44300
C 	C 	0.84230 0.10680 0.27700 0.37600
N 	N 	0.78960 0.13810 0.99930 -0.24700
H 	H 	0.74120 0.15510 0.94600 0.10600
H 	H 	0.79910 0.08800 0.93690 0.14700
C 	C 	0.74480 0.09000 0.16260 -0.25600
H 	H 	0.71340 0.13550 0.20990 0.06200
N 	N 	0.57100 0.93750 0.30210 -0.34700
H 	H 	0.51500 0.86380 0.29470 0.08600
H 	H 	0.53770 0.98100 0.30130 0.08600
C 	C 	0.64520 0.96590 0.15410 0.03600
H 	H 	0.60040 0.95590 0.05460 -0.03100
H 	H 	0.67540 0.91410 0.14720 -0.00900
N 	N 	0.67970 0.13370 0.60370 -0.18400
N 	N 	0.50070 0.86760 0.69290 -0.20000
Mn	Mn	0.03731 0.69858 0.54463 1.25900
O 	O 	0.95507 0.77380 0.40320 -0.41900
C 	C 	0.78890 0.46640 0.54810 -0.24600
C 	C 	0.20600 0.64670 0.77860 -0.19800
O 	O 	0.81709 0.75960 0.24240 -0.44400
C 	C 	0.89320 0.73550 0.27700 0.37600
N 	N 	0.86190 0.65150 0.99930 -0.24900
H 	H 	0.84490 0.58610 0.94600 0.10600
H 	H 	0.91200 0.71110 0.93690 0.14600
C 	C 	0.91000 0.65480 0.16260 -0.25300
H 	H 	0.86450 0.57790 0.20990 0.06100
N 	N 	0.06250 0.63350 0.30210 -0.34700
H 	H 	0.13620 0.65120 0.29470 0.08600
H 	H 	0.01900 0.55670 0.30130 0.08600
C 	C 	0.03410 0.67930 0.15410 0.03400
H 	H 	0.04410 0.64450 0.05460 -0.03000
H 	H 	0.08590 0.76130 0.14720 -0.00700
N 	N 	0.86630 0.54600 0.60370 -0.18400
N 	N 	0.13240 0.63310 0.69290 -0.20000
Mn	Mn	0.69858 0.66127 0.04463 1.21900
O 	O 	0.77380 0.81873 0.90320 -0.36100
C 	C 	0.46640 0.67750 0.04810 -0.31600
C 	C 	0.64670 0.44070 0.27860 -0.25300
O 	O 	0.75960 0.94251 0.74240 -0.40200
C 	C 	0.73550 0.84230 0.77700 0.35700
N 	N 	0.65150 0.78960 0.49930 -0.30800
H 	H 	0.58610 0.74120 0.44600 0.08400
H 	H 	0.71110 0.79910 0.43690 0.12700
C 	C 	0.65480 0.74480 0.66260 -0.15000
H 	H 	0.57790 0.71340 0.70990 0.05400
N 	N 	0.63350 0.57100 0.80210 -0.33200
H 	H 	0.65120 0.51500 0.79470 0.10000
H 	H 	0.55670 0.53770 0.80130 0.10800
C 	C 	0.67930 0.64520 0.65410 -0.01500
H 	H 	0.64450 0.60040 0.55460 0.01800
H 	H 	0.76130 0.67540 0.64720 0.02900
N 	N 	0.54600 0.67970 0.10370 -0.19300
N 	N 	0.63310 0.50070 0.19290 -0.21300
Mn	Mn	0.33873 0.03731 0.04463 1.22000
O 	O 	0.18127 0.95507 0.90320 -0.36900
C 	C 	0.32250 0.78890 0.04810 -0.31500
C 	C 	0.55930 0.20600 0.27860 -0.25300
O 	O 	0.05749 0.81709 0.74240 -0.40500
C 	C 	0.15770 0.89320 0.77700 0.35900
N 	N 	0.21040 0.86190 0.49930 -0.30700
H 	H 	0.25880 0.84490 0.44600 0.08400
H 	H 	0.20090 0.91200 0.43690 0.12600
C 	C 	0.25520 0.91000 0.66260 -0.15700
H 	H 	0.28660 0.86450 0.70990 0.05500
N 	N 	0.42900 0.06250 0.80210 -0.33200
H 	H 	0.48500 0.13620 0.79470 0.10000
H 	H 	0.46230 0.01900 0.80130 0.11000
C 	C 	0.35480 0.03410 0.65410 -0.00600
H 	H 	0.39960 0.04410 0.55460 0.01600
H 	H 	0.32460 0.08590 0.64720 0.02700
N 	N 	0.32030 0.86630 0.10370 -0.19300
N 	N 	0.49930 0.13240 0.19290 -0.21300
Mn	Mn	0.96269 0.30142 0.04463 1.21900
O 	O 	0.04493 0.22620 0.90320 -0.36400
C 	C 	0.21110 0.53360 0.04810 -0.31500
C 	C 	0.79400 0.35330 0.27860 -0.25300
O 	O 	0.18291 0.24040 0.74240 -0.40000
C 	C 	0.10680 0.26450 0.77700 0.35800
N 	N 	0.13810 0.34850 0.49930 -0.30700
H 	H 	0.15510 0.41390 0.44600 0.08400
H 	H 	0.08800 0.28890 0.43690 0.12700
C 	C 	0.09000 0.34520 0.66260 -0.15600
H 	H 	0.13550 0.42210 0.70990 0.05500
N 	N 	0.93750 0.36650 0.80210 -0.33200
H 	H 	0.86380 0.34880 0.79470 0.10100
H 	H 	0.98100 0.44330 0.80130 0.11000
C 	C 	0.96590 0.32070 0.65410 -0.00700
H 	H 	0.95590 0.35550 0.55460 0.01600
H 	H 	0.91410 0.23870 0.64720 0.02800
N 	N 	0.13370 0.45400 0.10370 -0.19300
N 	N 	0.86760 0.36690 0.19290 -0.21300
Mn	Mn	0.33333 0.66667 0.92480 1.32700
Mn	Mn	0.66667 0.33333 0.42480 1.28200
