data_crystal

_cell_length_a 13.52740
_cell_length_b 13.52740
_cell_length_c 8.07260
_cell_angle_alpha 90.00000
_cell_angle_beta  90.00000
_cell_angle_gamma 120.00000

_symmetry_space_group_name_	'P 1'
_symmetry_space_group_name_H-M	'P 1'

loop_
_symmetry_equiv_pos_as_xyz
  x,y,z

loop_
_atom_site_label
_atom_site_type_symbol
_atom_site_fract_x
_atom_site_fract_y
_atom_site_fract_z
_atom_site_charge
Mn	Mn	0.30132 0.33822 0.54516 1.26000
O 	O 	0.22957 0.18151 0.40610 -0.41700
C 	C 	0.53477 0.32292 0.54850 -0.24700
C 	C 	0.35367 0.55980 0.77660 -0.23300
O 	O 	0.24563 0.05844 0.24650 -0.42300
C 	C 	0.26730 0.15800 0.28010 0.35800
N 	N 	0.34690 0.20880 0.00010 -0.33600
H 	H 	0.41120 0.25680 0.94530 0.10400
H 	H 	0.28660 0.19880 0.93980 0.14700
C 	C 	0.34560 0.25500 0.16380 -0.15300
H 	H 	0.42310 0.28730 0.20850 0.04400
N 	N 	0.36593 0.42779 0.30290 -0.33900
H 	H 	0.34840 0.48370 0.29520 0.08600
H 	H 	0.44250 0.46090 0.30170 0.08800
C 	C 	0.31970 0.35310 0.15640 -0.01900
H 	H 	0.35310 0.39760 0.05690 0.01600
H 	H 	0.23780 0.32200 0.15120 0.02400
N 	N 	0.45550 0.32150 0.60310 -0.18800
N 	N 	0.36780 0.50010 0.69190 -0.19500
Mn	Mn	0.66178 0.96310 0.54516 1.25900
O 	O 	0.81849 0.04806 0.40610 -0.41800
C 	C 	0.67708 0.21185 0.54850 -0.24700
C 	C 	0.44020 0.79387 0.77660 -0.23400
O 	O 	0.94156 0.18719 0.24650 -0.42400
C 	C 	0.84200 0.10930 0.28010 0.35700
N 	N 	0.79120 0.13810 0.00010 -0.34000
H 	H 	0.74320 0.15440 0.94530 0.10600
H 	H 	0.80120 0.08780 0.93980 0.15000
C 	C 	0.74500 0.09060 0.16380 -0.15400
H 	H 	0.71270 0.13580 0.20850 0.04400
N 	N 	0.57221 0.93814 0.30290 -0.33900
H 	H 	0.51630 0.86470 0.29520 0.08600
H 	H 	0.53910 0.98160 0.30170 0.08800
C 	C 	0.64690 0.96660 0.15640 -0.01800
H 	H 	0.60240 0.95550 0.05690 0.01600
H 	H 	0.67800 0.91580 0.15120 0.02400
N 	N 	0.67850 0.13400 0.60310 -0.18800
N 	N 	0.49990 0.86770 0.69190 -0.19500
Mn	Mn	0.03690 0.69868 0.54516 1.25900
O 	O 	0.95194 0.77043 0.40610 -0.41800
C 	C 	0.78815 0.46523 0.54850 -0.24700
C 	C 	0.20613 0.64633 0.77660 -0.23400
O 	O 	0.81281 0.75437 0.24650 -0.42400
C 	C 	0.89070 0.73270 0.28010 0.35800
N 	N 	0.86190 0.65310 0.00010 -0.33700
H 	H 	0.84560 0.58880 0.94530 0.10400
H 	H 	0.91220 0.71340 0.93980 0.14800
C 	C 	0.90940 0.65440 0.16380 -0.15300
H 	H 	0.86420 0.57690 0.20850 0.04400
N 	N 	0.06186 0.63407 0.30290 -0.33900
H 	H 	0.13530 0.65160 0.29520 0.08600
H 	H 	0.01840 0.55750 0.30170 0.08800
C 	C 	0.03340 0.68030 0.15640 -0.01900
H 	H 	0.04450 0.64690 0.05690 0.01600
H 	H 	0.08420 0.76220 0.15120 0.02500
N 	N 	0.86600 0.54450 0.60310 -0.18800
N 	N 	0.13230 0.63220 0.69190 -0.19500
Mn	Mn	0.69868 0.66178 0.04516 1.25400
O 	O 	0.77043 0.81849 0.90610 -0.41000
C 	C 	0.46523 0.67708 0.04850 -0.25700
C 	C 	0.64633 0.44020 0.27660 -0.24100
O 	O 	0.75437 0.94156 0.74650 -0.42100
C 	C 	0.73270 0.84200 0.78010 0.35900
N 	N 	0.65310 0.79120 0.50010 -0.31000
H 	H 	0.58880 0.74320 0.44530 0.08600
H 	H 	0.71340 0.80120 0.43980 0.13000
C 	C 	0.65440 0.74500 0.66380 -0.15300
H 	H 	0.57690 0.71270 0.70850 0.04700
N 	N 	0.63407 0.57221 0.80290 -0.33700
H 	H 	0.65160 0.51630 0.79520 0.08800
H 	H 	0.55750 0.53910 0.80170 0.09200
C 	C 	0.68030 0.64690 0.65640 -0.01900
H 	H 	0.64690 0.60240 0.55690 0.02100
H 	H 	0.76220 0.67800 0.65120 0.02800
N 	N 	0.54450 0.67850 0.10310 -0.18900
N 	N 	0.63220 0.49990 0.19190 -0.19700
Mn	Mn	0.33822 0.03690 0.04516 1.25400
O 	O 	0.18151 0.95194 0.90610 -0.41300
C 	C 	0.32292 0.78815 0.04850 -0.25600
C 	C 	0.55980 0.20613 0.27660 -0.24100
O 	O 	0.05844 0.81281 0.74650 -0.42200
C 	C 	0.15800 0.89070 0.78010 0.36000
N 	N 	0.20880 0.86190 0.50010 -0.31000
H 	H 	0.25680 0.84560 0.44530 0.08600
H 	H 	0.19880 0.91220 0.43980 0.13000
C 	C 	0.25500 0.90940 0.66380 -0.15500
H 	H 	0.28730 0.86420 0.70850 0.04700
N 	N 	0.42779 0.06186 0.80290 -0.33700
H 	H 	0.48370 0.13530 0.79520 0.08800
H 	H 	0.46090 0.01840 0.80170 0.09200
C 	C 	0.35310 0.03340 0.65640 -0.01700
H 	H 	0.39760 0.04450 0.55690 0.02000
H 	H 	0.32200 0.08420 0.65120 0.02700
N 	N 	0.32150 0.86600 0.10310 -0.18800
N 	N 	0.50010 0.13230 0.19190 -0.19700
Mn	Mn	0.96310 0.30132 0.04516 1.25300
O 	O 	0.04806 0.22957 0.90610 -0.41100
C 	C 	0.21185 0.53477 0.04850 -0.25600
C 	C 	0.79387 0.35367 0.27660 -0.24100
O 	O 	0.18719 0.24563 0.74650 -0.42000
C 	C 	0.10930 0.26730 0.78010 0.35900
N 	N 	0.13810 0.34690 0.50010 -0.31000
H 	H 	0.15440 0.41120 0.44530 0.08600
H 	H 	0.08780 0.28660 0.43980 0.13000
C 	C 	0.09060 0.34560 0.66380 -0.15500
H 	H 	0.13580 0.42310 0.70850 0.04700
N 	N 	0.93814 0.36593 0.80290 -0.33700
H 	H 	0.86470 0.34840 0.79520 0.08800
H 	H 	0.98160 0.44250 0.80170 0.09200
C 	C 	0.96660 0.31970 0.65640 -0.01700
H 	H 	0.95550 0.35310 0.55690 0.02000
H 	H 	0.91580 0.23780 0.65120 0.02700
N 	N 	0.13400 0.45550 0.10310 -0.18900
N 	N 	0.86770 0.36780 0.19190 -0.19700
Mn	Mn	0.33333 0.66667 0.92240 1.28700
Mn	Mn	0.66667 0.33333 0.42240 1.28100
