data_crystal

_cell_length_a 13.51050
_cell_length_b 13.51050
_cell_length_c 8.04630
_cell_angle_alpha 90.00000
_cell_angle_beta  90.00000
_cell_angle_gamma 120.00000

_symmetry_space_group_name_	'P 1'
_symmetry_space_group_name_H-M	'P 1'

loop_
_symmetry_equiv_pos_as_xyz
  x,y,z

loop_
_atom_site_label
_atom_site_type_symbol
_atom_site_fract_x
_atom_site_fract_y
_atom_site_fract_z
_atom_site_charge
Mn	Mn	0.30249 0.33811 0.95433 1.21800
O 	O 	0.22935 0.18085 0.09350 -0.36600
C 	C 	0.53506 0.32246 0.95120 -0.31500
C 	C 	0.35410 0.55990 0.72370 -0.25700
O 	O 	0.24407 0.05720 0.25410 -0.40600
C 	C 	0.26690 0.15740 0.21990 0.35700
N 	N 	0.34660 0.20800 0.50020 -0.31000
H 	H 	0.28610 0.19780 0.56060 0.12900
H 	H 	0.41100 0.25600 0.55540 0.08600
C 	C 	0.34550 0.25420 0.33610 -0.15100
H 	H 	0.42300 0.28640 0.29120 0.05500
N 	N 	0.36680 0.42757 0.19800 -0.33100
H 	H 	0.44350 0.46040 0.19980 0.10800
H 	H 	0.34960 0.48370 0.20560 0.10200
C 	C 	0.31970 0.35240 0.34450 -0.01400
H 	H 	0.23770 0.32150 0.34920 0.02900
H 	H 	0.35290 0.39660 0.44490 0.01800
N 	N 	0.45590 0.32080 0.89390 -0.19300
N 	N 	0.36840 0.50000 0.81000 -0.21300
Mn	Mn	0.66189 0.96438 0.95433 1.22000
O 	O 	0.81915 0.04850 0.09350 -0.37300
C 	C 	0.67754 0.21260 0.95120 -0.31300
C 	C 	0.44010 0.79420 0.72370 -0.25600
O 	O 	0.94280 0.18687 0.25410 -0.40800
C 	C 	0.84260 0.10950 0.21990 0.36000
N 	N 	0.79200 0.13860 0.50020 -0.30700
H 	H 	0.80220 0.08830 0.56060 0.12800
H 	H 	0.74400 0.15500 0.55540 0.08500
C 	C 	0.74580 0.09130 0.33610 -0.15900
H 	H 	0.71360 0.13660 0.29120 0.05600
N 	N 	0.57243 0.93923 0.19800 -0.33200
H 	H 	0.53960 0.98310 0.19980 0.11100
H 	H 	0.51630 0.86590 0.20560 0.10300
C 	C 	0.64760 0.96730 0.34450 -0.00500
H 	H 	0.67850 0.91620 0.34920 0.02700
H 	H 	0.60340 0.95630 0.44490 0.01700
N 	N 	0.67920 0.13510 0.89390 -0.19200
N 	N 	0.50000 0.86840 0.81000 -0.21300
Mn	Mn	0.03562 0.69751 0.95433 1.21900
O 	O 	0.95150 0.77065 0.09350 -0.36800
C 	C 	0.78740 0.46494 0.95120 -0.31400
C 	C 	0.20580 0.64590 0.72370 -0.25600
O 	O 	0.81313 0.75593 0.25410 -0.40300
C 	C 	0.89050 0.73310 0.21990 0.35900
N 	N 	0.86140 0.65340 0.50020 -0.30700
H 	H 	0.91170 0.71390 0.56060 0.12800
H 	H 	0.84500 0.58900 0.55540 0.08500
C 	C 	0.90870 0.65450 0.33610 -0.15800
H 	H 	0.86340 0.57700 0.29120 0.05600
N 	N 	0.06077 0.63320 0.19800 -0.33200
H 	H 	0.01690 0.55650 0.19980 0.11100
H 	H 	0.13410 0.65040 0.20560 0.10300
C 	C 	0.03270 0.68030 0.34450 -0.00600
H 	H 	0.08380 0.76230 0.34920 0.02800
H 	H 	0.04370 0.64710 0.44490 0.01700
N 	N 	0.86490 0.54410 0.89390 -0.19300
N 	N 	0.13160 0.63160 0.81000 -0.21300
Mn	Mn	0.69751 0.66189 0.45433 1.26100
O 	O 	0.77065 0.81915 0.59350 -0.42500
C 	C 	0.46494 0.67754 0.45120 -0.24400
C 	C 	0.64590 0.44010 0.22370 -0.19900
O 	O 	0.75593 0.94280 0.75410 -0.44600
C 	C 	0.73310 0.84260 0.71990 0.37800
N 	N 	0.65340 0.79200 0.00020 -0.24900
H 	H 	0.71390 0.80220 0.06060 0.14700
H 	H 	0.58900 0.74400 0.05540 0.10700
C 	C 	0.65450 0.74580 0.83610 -0.25700
H 	H 	0.57700 0.71360 0.79120 0.06200
N 	N 	0.63320 0.57243 0.69800 -0.34700
H 	H 	0.55650 0.53960 0.69980 0.08700
H 	H 	0.65040 0.51630 0.70560 0.08800
C 	C 	0.68030 0.64760 0.84450 0.03800
H 	H 	0.76230 0.67850 0.84920 -0.00900
H 	H 	0.64710 0.60340 0.94490 -0.03200
N 	N 	0.54410 0.67920 0.39390 -0.18400
N 	N 	0.63160 0.50000 0.31000 -0.19800
Mn	Mn	0.33811 0.03562 0.45433 1.26000
O 	O 	0.18085 0.95150 0.59350 -0.42300
C 	C 	0.32246 0.78740 0.45120 -0.24400
C 	C 	0.55990 0.20580 0.22370 -0.20100
O 	O 	0.05720 0.81313 0.75410 -0.44600
C 	C 	0.15740 0.89050 0.71990 0.37800
N 	N 	0.20800 0.86140 0.00020 -0.24700
H 	H 	0.19780 0.91170 0.06060 0.14900
H 	H 	0.25600 0.84500 0.05540 0.10800
C 	C 	0.25420 0.90870 0.83610 -0.25800
H 	H 	0.28640 0.86340 0.79120 0.06300
N 	N 	0.42757 0.06077 0.69800 -0.34700
H 	H 	0.46040 0.01690 0.69980 0.08700
H 	H 	0.48370 0.13410 0.70560 0.08800
C 	C 	0.35240 0.03270 0.84450 0.03800
H 	H 	0.32150 0.08380 0.84920 -0.00900
H 	H 	0.39660 0.04370 0.94490 -0.03100
N 	N 	0.32080 0.86490 0.39390 -0.18300
N 	N 	0.50000 0.13160 0.31000 -0.19900
Mn	Mn	0.96438 0.30249 0.45433 1.26000
O 	O 	0.04850 0.22935 0.59350 -0.42300
C 	C 	0.21260 0.53506 0.45120 -0.24400
C 	C 	0.79420 0.35410 0.22370 -0.20100
O 	O 	0.18687 0.24407 0.75410 -0.44700
C 	C 	0.10950 0.26690 0.71990 0.37700
N 	N 	0.13860 0.34660 0.00020 -0.24900
H 	H 	0.08830 0.28610 0.06060 0.14800
H 	H 	0.15500 0.41100 0.05540 0.10700
C 	C 	0.09130 0.34550 0.83610 -0.25500
H 	H 	0.13660 0.42300 0.79120 0.06200
N 	N 	0.93923 0.36680 0.69800 -0.34700
H 	H 	0.98310 0.44350 0.69980 0.08600
H 	H 	0.86590 0.34960 0.70560 0.08800
C 	C 	0.96730 0.31970 0.84450 0.03600
H 	H 	0.91620 0.23770 0.84920 -0.00800
H 	H 	0.95630 0.35290 0.94490 -0.03000
N 	N 	0.13510 0.45590 0.39390 -0.18300
N 	N 	0.86840 0.36840 0.31000 -0.19900
Mn	Mn	0.33333 0.66667 0.57877 1.28300
Mn	Mn	0.66667 0.33333 0.07877 1.32700
