data_crystal

_cell_length_a 13.48730
_cell_length_b 13.48730
_cell_length_c 8.02560
_cell_angle_alpha 90.00000
_cell_angle_beta  90.00000
_cell_angle_gamma 120.00000

_symmetry_space_group_name_	'P 1'
_symmetry_space_group_name_H-M	'P 1'

loop_
_symmetry_equiv_pos_as_xyz
  x,y,z

loop_
_atom_site_label
_atom_site_type_symbol
_atom_site_fract_x
_atom_site_fract_y
_atom_site_fract_z
_atom_site_charge
Mn	Mn	0.30158 0.33859 0.54474 1.26000
O 	O 	0.22616 0.18084 0.40370 -0.42000
C 	C 	0.53366 0.32224 0.54860 -0.24500
C 	C 	0.35340 0.55970 0.77860 -0.19800
O 	O 	0.24023 0.05707 0.24220 -0.44000
C 	C 	0.26440 0.15780 0.27730 0.37500
N 	N 	0.34820 0.20990 0.99820 -0.25000
H 	H 	0.41350 0.25820 0.94470 0.10600
H 	H 	0.28850 0.20020 0.93600 0.14600
C 	C 	0.34500 0.25510 0.16310 -0.25600
H 	H 	0.42190 0.28660 0.21040 0.06200
N 	N 	0.36661 0.42887 0.30120 -0.34700
H 	H 	0.34910 0.48490 0.29370 0.08700
H 	H 	0.44340 0.46200 0.30010 0.08700
C 	C 	0.32040 0.35430 0.15350 0.03800
H 	H 	0.35490 0.39870 0.05360 -0.03200
H 	H 	0.23840 0.32400 0.14710 -0.00900
N 	N 	0.45440 0.32060 0.60390 -0.18600
N 	N 	0.36670 0.49920 0.69290 -0.19800
Mn	Mn	0.66141 0.96299 0.54474 1.25900
O 	O 	0.81916 0.04532 0.40370 -0.41800
C 	C 	0.67776 0.21142 0.54860 -0.24500
C 	C 	0.44030 0.79370 0.77860 -0.19900
O 	O 	0.94293 0.18316 0.24220 -0.44100
C 	C 	0.84220 0.10660 0.27730 0.37500
N 	N 	0.79010 0.13830 0.99820 -0.24800
H 	H 	0.74180 0.15530 0.94470 0.10700
H 	H 	0.79980 0.08830 0.93600 0.14800
C 	C 	0.74490 0.08990 0.16310 -0.25800
H 	H 	0.71340 0.13530 0.21040 0.06300
N 	N 	0.57113 0.93774 0.30120 -0.34700
H 	H 	0.51510 0.86420 0.29370 0.08700
H 	H 	0.53800 0.98140 0.30010 0.08600
C 	C 	0.64570 0.96610 0.15350 0.03800
H 	H 	0.60130 0.95620 0.05360 -0.03200
H 	H 	0.67600 0.91440 0.14710 -0.00900
N 	N 	0.67940 0.13380 0.60390 -0.18500
N 	N 	0.50080 0.86750 0.69290 -0.19900
Mn	Mn	0.03701 0.69842 0.54474 1.25900
O 	O 	0.95468 0.77384 0.40370 -0.41800
C 	C 	0.78858 0.46634 0.54860 -0.24500
C 	C 	0.20630 0.64660 0.77860 -0.20000
O 	O 	0.81684 0.75977 0.24220 -0.44200
C 	C 	0.89340 0.73560 0.27730 0.37400
N 	N 	0.86170 0.65180 0.99820 -0.25000
H 	H 	0.84470 0.58650 0.94470 0.10600
H 	H 	0.91170 0.71150 0.93600 0.14700
C 	C 	0.91010 0.65500 0.16310 -0.25500
H 	H 	0.86470 0.57810 0.21040 0.06200
N 	N 	0.06226 0.63339 0.30120 -0.34700
H 	H 	0.13580 0.65090 0.29370 0.08700
H 	H 	0.01860 0.55660 0.30010 0.08600
C 	C 	0.03390 0.67960 0.15350 0.03600
H 	H 	0.04380 0.64510 0.05360 -0.03100
H 	H 	0.08560 0.76160 0.14710 -0.00800
N 	N 	0.86620 0.54560 0.60390 -0.18500
N 	N 	0.13250 0.63330 0.69290 -0.19900
Mn	Mn	0.69842 0.66141 0.04474 1.21900
O 	O 	0.77384 0.81916 0.90370 -0.36100
C 	C 	0.46634 0.67776 0.04860 -0.31500
C 	C 	0.64660 0.44030 0.27860 -0.25500
O 	O 	0.75977 0.94293 0.74220 -0.40000
C 	C 	0.73560 0.84220 0.77730 0.35500
N 	N 	0.65180 0.79010 0.49820 -0.30900
H 	H 	0.58650 0.74180 0.44470 0.08500
H 	H 	0.71150 0.79980 0.43600 0.12800
C 	C 	0.65500 0.74490 0.66310 -0.15300
H 	H 	0.57810 0.71340 0.71040 0.05500
N 	N 	0.63339 0.57113 0.80120 -0.33200
H 	H 	0.65090 0.51510 0.79370 0.10100
H 	H 	0.55660 0.53800 0.80010 0.10800
C 	C 	0.67960 0.64570 0.65350 -0.01300
H 	H 	0.64510 0.60130 0.55360 0.01700
H 	H 	0.76160 0.67600 0.64710 0.02800
N 	N 	0.54560 0.67940 0.10390 -0.19300
N 	N 	0.63330 0.50080 0.19290 -0.21300
Mn	Mn	0.33859 0.03701 0.04474 1.22000
O 	O 	0.18084 0.95468 0.90370 -0.36900
C 	C 	0.32224 0.78858 0.04860 -0.31400
C 	C 	0.55970 0.20630 0.27860 -0.25500
O 	O 	0.05707 0.81684 0.74220 -0.40300
C 	C 	0.15780 0.89340 0.77730 0.35700
N 	N 	0.20990 0.86170 0.49820 -0.30800
H 	H 	0.25820 0.84470 0.44470 0.08400
H 	H 	0.20020 0.91170 0.43600 0.12700
C 	C 	0.25510 0.91010 0.66310 -0.16100
H 	H 	0.28660 0.86470 0.71040 0.05600
N 	N 	0.42887 0.06226 0.80120 -0.33200
H 	H 	0.48490 0.13580 0.79370 0.10100
H 	H 	0.46200 0.01860 0.80010 0.11000
C 	C 	0.35430 0.03390 0.65350 -0.00400
H 	H 	0.39870 0.04380 0.55360 0.01500
H 	H 	0.32400 0.08560 0.64710 0.02600
N 	N 	0.32060 0.86620 0.10390 -0.19300
N 	N 	0.49920 0.13250 0.19290 -0.21300
Mn	Mn	0.96299 0.30158 0.04474 1.21900
O 	O 	0.04532 0.22616 0.90370 -0.36400
C 	C 	0.21142 0.53366 0.04860 -0.31400
C 	C 	0.79370 0.35340 0.27860 -0.25500
O 	O 	0.18316 0.24023 0.74220 -0.39800
C 	C 	0.10660 0.26440 0.77730 0.35600
N 	N 	0.13830 0.34820 0.49820 -0.30800
H 	H 	0.15530 0.41350 0.44470 0.08400
H 	H 	0.08830 0.28850 0.43600 0.12700
C 	C 	0.08990 0.34500 0.66310 -0.15900
H 	H 	0.13530 0.42190 0.71040 0.05600
N 	N 	0.93774 0.36661 0.80120 -0.33200
H 	H 	0.86420 0.34910 0.79370 0.10100
H 	H 	0.98140 0.44340 0.80010 0.11000
C 	C 	0.96610 0.32040 0.65350 -0.00500
H 	H 	0.95620 0.35490 0.55360 0.01600
H 	H 	0.91440 0.23840 0.64710 0.02700
N 	N 	0.13380 0.45440 0.10390 -0.19300
N 	N 	0.86750 0.36670 0.19290 -0.21300
Mn	Mn	0.33333 0.66667 0.92447 1.32700
Mn	Mn	0.66667 0.33333 0.42447 1.28300
