data_crystal

_cell_length_a 13.52630
_cell_length_b 13.52630
_cell_length_c 8.05670
_cell_angle_alpha 90.00000
_cell_angle_beta  90.00000
_cell_angle_gamma 120.00000

_symmetry_space_group_name_	'P 1'
_symmetry_space_group_name_H-M	'P 1'

loop_
_symmetry_equiv_pos_as_xyz
  x,y,z

loop_
_atom_site_label
_atom_site_type_symbol
_atom_site_fract_x
_atom_site_fract_y
_atom_site_fract_z
_atom_site_charge
C 	C 	0.35426 0.56009 0.72420 -0.24300
C 	C 	0.46465 0.67738 0.45110 -0.24600
N 	N 	0.36859 0.50032 0.81020 -0.19700
Mn	Mn	0.30250 0.33791 0.95413 1.25500
O 	O 	0.22991 0.18078 0.09280 -0.40900
N 	N 	0.36678 0.42724 0.19760 -0.33600
N 	N 	0.45632 0.32084 0.89370 -0.18900
O 	O 	0.18784 0.24517 0.75310 -0.42400
N 	N 	0.13888 0.34651 0.99970 -0.33700
C 	C 	0.26724 0.15694 0.21910 0.35800
H 	H 	0.44330 0.46000 0.19940 0.09200
H 	H 	0.34950 0.48330 0.20530 0.08900
C 	C 	0.31960 0.35190 0.34410 -0.02000
C 	C 	0.34566 0.25420 0.33600 -0.15100
H 	H 	0.23760 0.32080 0.34840 0.02800
H 	H 	0.35240 0.39600 0.44440 0.02100
H 	H 	0.42320 0.28670 0.29150 0.04600
H 	H 	0.28610 0.19750 0.55990 0.13100
H 	H 	0.41070 0.25550 0.55500 0.08700
C 	C 	0.43991 0.79417 0.72420 -0.24400
C 	C 	0.32262 0.78727 0.45110 -0.24700
N 	N 	0.49968 0.86827 0.81020 -0.19800
Mn	Mn	0.66209 0.96459 0.95413 1.25400
O 	O 	0.81922 0.04913 0.09280 -0.41300
N 	N 	0.57276 0.93954 0.19760 -0.33800
N 	N 	0.67916 0.13548 0.89370 -0.18800
O 	O 	0.75483 0.94267 0.75310 -0.42400
N 	N 	0.65349 0.79237 0.99970 -0.33600
C 	C 	0.84306 0.11030 0.21910 0.35900
H 	H 	0.54000 0.98330 0.19940 0.09200
H 	H 	0.51670 0.86620 0.20530 0.09000
C 	C 	0.64810 0.96770 0.34410 -0.01800
C 	C 	0.74580 0.09146 0.33600 -0.15300
H 	H 	0.67920 0.91680 0.34840 0.02700
H 	H 	0.60400 0.95640 0.44440 0.02000
H 	H 	0.71330 0.13650 0.29150 0.04700
H 	H 	0.80250 0.08860 0.55990 0.13000
H 	H 	0.74450 0.15520 0.55500 0.08700
C 	C 	0.20583 0.64574 0.72420 -0.24400
C 	C 	0.21273 0.53535 0.45110 -0.24700
N 	N 	0.13173 0.63141 0.81020 -0.19800
Mn	Mn	0.03541 0.69750 0.95413 1.25300
O 	O 	0.95087 0.77009 0.09280 -0.41100
N 	N 	0.06046 0.63322 0.19760 -0.33700
N 	N 	0.86452 0.54368 0.89370 -0.18900
O 	O 	0.05733 0.81216 0.75310 -0.42400
N 	N 	0.20763 0.86112 0.99970 -0.34000
C 	C 	0.88970 0.73276 0.21910 0.35900
H 	H 	0.01670 0.55670 0.19940 0.09200
H 	H 	0.13380 0.65050 0.20530 0.09000
C 	C 	0.03230 0.68040 0.34410 -0.01800
C 	C 	0.90854 0.65434 0.33600 -0.15300
H 	H 	0.08320 0.76240 0.34840 0.02800
H 	H 	0.04360 0.64760 0.44440 0.02000
H 	H 	0.86350 0.57680 0.29150 0.04700
H 	H 	0.91140 0.71390 0.55990 0.13100
H 	H 	0.84480 0.58930 0.55500 0.08700
C 	C 	0.64574 0.43991 0.22420 -0.23600
C 	C 	0.53535 0.32262 0.95110 -0.25700
N 	N 	0.63141 0.49968 0.31020 -0.19600
Mn	Mn	0.69750 0.66209 0.45413 1.25900
O 	O 	0.77009 0.81922 0.59280 -0.41800
N 	N 	0.63322 0.57276 0.69760 -0.33900
N 	N 	0.54368 0.67916 0.39370 -0.18800
O 	O 	0.81216 0.75483 0.25310 -0.42000
N 	N 	0.86112 0.65349 0.49970 -0.31000
C 	C 	0.73276 0.84306 0.71910 0.35700
H 	H 	0.55670 0.54000 0.69940 0.08900
H 	H 	0.65050 0.51670 0.70530 0.08700
C 	C 	0.68040 0.64810 0.84410 -0.02000
C 	C 	0.65434 0.74580 0.83600 -0.15100
H 	H 	0.76240 0.67920 0.84840 0.02500
H 	H 	0.64760 0.60400 0.94440 0.01600
H 	H 	0.57680 0.71330 0.79150 0.04300
H 	H 	0.71390 0.80250 0.05990 0.14800
H 	H 	0.58930 0.74450 0.05500 0.10400
C 	C 	0.56009 0.20583 0.22420 -0.23700
C 	C 	0.67738 0.21273 0.95110 -0.25600
N 	N 	0.50032 0.13173 0.31020 -0.19600
Mn	Mn	0.33791 0.03541 0.45413 1.25900
O 	O 	0.18078 0.95087 0.59280 -0.41700
N 	N 	0.42724 0.06046 0.69760 -0.33900
N 	N 	0.32084 0.86452 0.39370 -0.18800
O 	O 	0.24517 0.05733 0.25310 -0.42100
N 	N 	0.34651 0.20763 0.49970 -0.31000
C 	C 	0.15694 0.88970 0.71910 0.35700
H 	H 	0.46000 0.01670 0.69940 0.08900
H 	H 	0.48330 0.13380 0.70530 0.08700
C 	C 	0.35190 0.03230 0.84410 -0.01900
C 	C 	0.25420 0.90854 0.83600 -0.15200
H 	H 	0.32080 0.08320 0.84840 0.02400
H 	H 	0.39600 0.04360 0.94440 0.01600
H 	H 	0.28670 0.86350 0.79150 0.04300
H 	H 	0.19750 0.91140 0.05990 0.15000
H 	H 	0.25550 0.84480 0.05500 0.10700
C 	C 	0.79417 0.35426 0.22420 -0.23700
C 	C 	0.78727 0.46465 0.95110 -0.25700
N 	N 	0.86827 0.36859 0.31020 -0.19600
Mn	Mn	0.96459 0.30250 0.45413 1.25900
O 	O 	0.04913 0.22991 0.59280 -0.41700
N 	N 	0.93954 0.36678 0.69760 -0.33900
N 	N 	0.13548 0.45632 0.39370 -0.18800
O 	O 	0.94267 0.18784 0.25310 -0.42200
N 	N 	0.79237 0.13888 0.49970 -0.30900
C 	C 	0.11030 0.26724 0.71910 0.35700
H 	H 	0.98330 0.44330 0.69940 0.08900
H 	H 	0.86620 0.34950 0.70530 0.08700
C 	C 	0.96770 0.31960 0.84410 -0.02000
C 	C 	0.09146 0.34566 0.83600 -0.15200
H 	H 	0.91680 0.23760 0.84840 0.02500
H 	H 	0.95640 0.35240 0.94440 0.01600
H 	H 	0.13650 0.42320 0.79150 0.04300
H 	H 	0.08860 0.28610 0.05990 0.14800
H 	H 	0.15520 0.41070 0.05500 0.10500
Mn	Mn	0.33333 0.66667 0.57942 1.28200
Mn	Mn	0.66667 0.33333 0.07942 1.28800
