data_crystal

_cell_length_a 13.61440
_cell_length_b 13.61440
_cell_length_c 8.18420
_cell_angle_alpha 90.00000
_cell_angle_beta  90.00000
_cell_angle_gamma 120.00000

_symmetry_space_group_name_	'P 1'
_symmetry_space_group_name_H-M	'P 1'

loop_
_symmetry_equiv_pos_as_xyz
  x,y,z

loop_
_atom_site_label
_atom_site_type_symbol
_atom_site_fract_x
_atom_site_fract_y
_atom_site_fract_z
_atom_site_charge
Mn	Mn	0.29539 0.33438 0.54368 1.25800
O 	O 	0.22850 0.18060 0.40460 -0.42200
C 	C 	0.52980 0.32110 0.55430 -0.27700
C 	C 	0.35400 0.55570 0.77590 -0.26600
O 	O 	0.24460 0.05900 0.24610 -0.42100
C 	C 	0.26670 0.15900 0.28040 0.35400
N 	N 	0.34520 0.21020 0.00430 -0.33000
H 	H 	0.40950 0.25790 0.95100 0.09800
H 	H 	0.28580 0.20150 0.94480 0.14000
C 	C 	0.34400 0.25530 0.16670 -0.15300
H 	H 	0.42090 0.28710 0.21050 0.04200
N 	N 	0.36310 0.42550 0.30770 -0.34000
H 	H 	0.34640 0.48150 0.30020 0.08400
H 	H 	0.43910 0.45780 0.30840 0.09000
C 	C 	0.31840 0.35260 0.16160 -0.02000
H 	H 	0.35230 0.39790 0.06440 0.01700
H 	H 	0.23710 0.32180 0.15530 0.02400
N 	N 	0.44950 0.31950 0.60270 -0.18100
N 	N 	0.36590 0.49520 0.69190 -0.18600
Mn	Mn	0.66562 0.96101 0.54368 1.25900
O 	O 	0.81940 0.04790 0.40460 -0.42200
C 	C 	0.67890 0.20870 0.55430 -0.27700
C 	C 	0.44430 0.79830 0.77590 -0.26700
O 	O 	0.94100 0.18560 0.24610 -0.42100
C 	C 	0.84100 0.10770 0.28040 0.35400
N 	N 	0.78980 0.13500 0.00430 -0.33500
H 	H 	0.74210 0.15160 0.95100 0.10000
H 	H 	0.79850 0.08430 0.94480 0.14400
C 	C 	0.74470 0.08870 0.16670 -0.15500
H 	H 	0.71290 0.13380 0.21050 0.04200
N 	N 	0.57450 0.93760 0.30770 -0.34000
H 	H 	0.51850 0.86490 0.30020 0.08400
H 	H 	0.54220 0.98130 0.30840 0.09000
C 	C 	0.64740 0.96580 0.16160 -0.01800
H 	H 	0.60210 0.95440 0.06440 0.01700
H 	H 	0.67820 0.91530 0.15530 0.02400
N 	N 	0.68050 0.13000 0.60270 -0.18100
N 	N 	0.50480 0.87070 0.69190 -0.18600
Mn	Mn	0.03899 0.70461 0.54368 1.25900
O 	O 	0.95210 0.77150 0.40460 -0.42200
C 	C 	0.79130 0.47020 0.55430 -0.27700
C 	C 	0.20170 0.64600 0.77590 -0.26700
O 	O 	0.81440 0.75540 0.24610 -0.42100
C 	C 	0.89230 0.73330 0.28040 0.35400
N 	N 	0.86500 0.65480 0.00430 -0.33100
H 	H 	0.84840 0.59050 0.95100 0.09800
H 	H 	0.91570 0.71420 0.94480 0.14100
C 	C 	0.91130 0.65600 0.16670 -0.15400
H 	H 	0.86620 0.57910 0.21050 0.04200
N 	N 	0.06240 0.63690 0.30770 -0.34000
H 	H 	0.13510 0.65360 0.30020 0.08400
H 	H 	0.01870 0.56090 0.30840 0.09000
C 	C 	0.03420 0.68160 0.16160 -0.01900
H 	H 	0.04560 0.64770 0.06440 0.01800
H 	H 	0.08470 0.76290 0.15530 0.02400
N 	N 	0.87000 0.55050 0.60270 -0.18100
N 	N 	0.12930 0.63410 0.69190 -0.18700
Mn	Mn	0.70461 0.66562 0.04368 1.25600
O 	O 	0.77150 0.81940 0.90460 -0.41700
C 	C 	0.47020 0.67890 0.05430 -0.28200
C 	C 	0.64600 0.44430 0.27590 -0.27100
O 	O 	0.75540 0.94100 0.74610 -0.41900
C 	C 	0.73330 0.84100 0.78040 0.35500
N 	N 	0.65480 0.78980 0.50430 -0.31200
H 	H 	0.59050 0.74210 0.45100 0.08600
H 	H 	0.71420 0.79850 0.44480 0.12900
C 	C 	0.65600 0.74470 0.66670 -0.15400
H 	H 	0.57910 0.71290 0.71050 0.04400
N 	N 	0.63690 0.57450 0.80770 -0.33900
H 	H 	0.65360 0.51850 0.80020 0.08500
H 	H 	0.56090 0.54220 0.80840 0.09200
C 	C 	0.68160 0.64740 0.66160 -0.01900
H 	H 	0.64770 0.60210 0.56440 0.02000
H 	H 	0.76290 0.67820 0.65530 0.02600
N 	N 	0.55050 0.68050 0.10270 -0.18200
N 	N 	0.63410 0.50480 0.19190 -0.18700
Mn	Mn	0.33438 0.03899 0.04368 1.25600
O 	O 	0.18060 0.95210 0.90460 -0.42000
C 	C 	0.32110 0.79130 0.05430 -0.28200
C 	C 	0.55570 0.20170 0.27590 -0.27100
O 	O 	0.05900 0.81440 0.74610 -0.42000
C 	C 	0.15900 0.89230 0.78040 0.35600
N 	N 	0.21020 0.86500 0.50430 -0.31200
H 	H 	0.25790 0.84840 0.45100 0.08600
H 	H 	0.20150 0.91570 0.44480 0.12900
C 	C 	0.25530 0.91130 0.66670 -0.15600
H 	H 	0.28710 0.86620 0.71050 0.04500
N 	N 	0.42550 0.06240 0.80770 -0.33900
H 	H 	0.48150 0.13510 0.80020 0.08500
H 	H 	0.45780 0.01870 0.80840 0.09200
C 	C 	0.35260 0.03420 0.66160 -0.01700
H 	H 	0.39790 0.04560 0.56440 0.02000
H 	H 	0.32180 0.08470 0.65530 0.02600
N 	N 	0.31950 0.87000 0.10270 -0.18100
N 	N 	0.49520 0.12930 0.19190 -0.18800
Mn	Mn	0.96101 0.29539 0.04368 1.25500
O 	O 	0.04790 0.22850 0.90460 -0.41800
C 	C 	0.20870 0.52980 0.05430 -0.28200
C 	C 	0.79830 0.35400 0.27590 -0.27100
O 	O 	0.18560 0.24460 0.74610 -0.41800
C 	C 	0.10770 0.26670 0.78040 0.35500
N 	N 	0.13500 0.34520 0.50430 -0.31200
H 	H 	0.15160 0.40950 0.45100 0.08600
H 	H 	0.08430 0.28580 0.44480 0.12900
C 	C 	0.08870 0.34400 0.66670 -0.15600
H 	H 	0.13380 0.42090 0.71050 0.04500
N 	N 	0.93760 0.36310 0.80770 -0.33900
H 	H 	0.86490 0.34640 0.80020 0.08600
H 	H 	0.98130 0.43910 0.80840 0.09200
C 	C 	0.96580 0.31840 0.66160 -0.01700
H 	H 	0.95440 0.35230 0.56440 0.02000
H 	H 	0.91530 0.23710 0.65530 0.02600
N 	N 	0.13000 0.44950 0.10270 -0.18100
N 	N 	0.87070 0.36590 0.19190 -0.18800
Cr	Cr	0.33333 0.66667 0.92497 1.46900
Cr	Cr	0.66667 0.33333 0.42497 1.46500
