data_crystal

_cell_length_a 13.57390
_cell_length_b 13.57390
_cell_length_c 8.11560
_cell_angle_alpha 90.00000
_cell_angle_beta  90.00000
_cell_angle_gamma 120.00000

_symmetry_space_group_name_	'P 1'
_symmetry_space_group_name_H-M	'P 1'

loop_
_symmetry_equiv_pos_as_xyz
  x,y,z

loop_
_atom_site_label
_atom_site_type_symbol
_atom_site_fract_x
_atom_site_fract_y
_atom_site_fract_z
_atom_site_charge
Mn	Mn	0.29540 0.33182 0.54438 1.25700
O 	O 	0.22720 0.17750 0.40640 -0.43100
C 	C 	0.53070 0.32080 0.55910 -0.27800
C 	C 	0.35240 0.55420 0.77330 -0.26700
O 	O 	0.23930 0.05500 0.24640 -0.42300
C 	C 	0.26250 0.15550 0.28080 0.36400
N 	N 	0.33980 0.20720 0.00080 -0.33100
H 	H 	0.40340 0.25510 0.94520 0.10000
H 	H 	0.27910 0.19720 0.94230 0.14500
C 	C 	0.33990 0.25290 0.16510 -0.15800
H 	H 	0.41740 0.28480 0.20820 0.04100
N 	N 	0.36260 0.42350 0.30490 -0.34000
H 	H 	0.34660 0.48020 0.29800 0.08600
H 	H 	0.43880 0.45500 0.30390 0.08800
C 	C 	0.31510 0.34930 0.15930 -0.01300
H 	H 	0.34780 0.39370 0.06000 0.01400
H 	H 	0.23340 0.31880 0.15550 0.02100
N 	N 	0.45180 0.31890 0.61130 -0.17800
N 	N 	0.36310 0.49380 0.69100 -0.18500
Mn	Mn	0.66818 0.96358 0.54438 1.25800
O 	O 	0.82250 0.04970 0.40640 -0.43000
C 	C 	0.67920 0.20990 0.55910 -0.27700
C 	C 	0.44580 0.79820 0.77330 -0.26800
O 	O 	0.94500 0.18430 0.24640 -0.42400
C 	C 	0.84450 0.10700 0.28080 0.36400
N 	N 	0.79280 0.13260 0.00080 -0.33500
H 	H 	0.74490 0.14830 0.94520 0.10200
H 	H 	0.80280 0.08190 0.94230 0.14800
C 	C 	0.74710 0.08700 0.16510 -0.15900
H 	H 	0.71520 0.13260 0.20820 0.04100
N 	N 	0.57650 0.93910 0.30490 -0.34000
H 	H 	0.51980 0.86640 0.29800 0.08600
H 	H 	0.54500 0.98380 0.30390 0.08800
C 	C 	0.65070 0.96580 0.15930 -0.01200
H 	H 	0.60630 0.95410 0.06000 0.01400
H 	H 	0.68120 0.91460 0.15550 0.02100
N 	N 	0.68110 0.13290 0.61130 -0.17800
N 	N 	0.50620 0.86930 0.69100 -0.18600
Mn	Mn	0.03642 0.70460 0.54438 1.25800
O 	O 	0.95030 0.77280 0.40640 -0.43000
C 	C 	0.79010 0.46930 0.55910 -0.27700
C 	C 	0.20180 0.64760 0.77330 -0.26800
O 	O 	0.81570 0.76070 0.24640 -0.42300
C 	C 	0.89300 0.73750 0.28080 0.36400
N 	N 	0.86740 0.66020 0.00080 -0.33200
H 	H 	0.85170 0.59660 0.94520 0.10000
H 	H 	0.91810 0.72090 0.94230 0.14600
C 	C 	0.91300 0.66010 0.16510 -0.15900
H 	H 	0.86740 0.58260 0.20820 0.04100
N 	N 	0.06090 0.63740 0.30490 -0.34000
H 	H 	0.13360 0.65340 0.29800 0.08600
H 	H 	0.01620 0.56120 0.30390 0.08800
C 	C 	0.03420 0.68490 0.15930 -0.01300
H 	H 	0.04590 0.65220 0.06000 0.01500
H 	H 	0.08540 0.76660 0.15550 0.02100
N 	N 	0.86710 0.54820 0.61130 -0.17800
N 	N 	0.13070 0.63690 0.69100 -0.18600
Mn	Mn	0.70460 0.66818 0.04438 1.25500
O 	O 	0.77280 0.82250 0.90640 -0.42500
C 	C 	0.46930 0.67920 0.05910 -0.28300
C 	C 	0.64760 0.44580 0.27330 -0.27300
O 	O 	0.76070 0.94500 0.74640 -0.42200
C 	C 	0.73750 0.84450 0.78080 0.36400
N 	N 	0.66020 0.79280 0.50080 -0.31200
H 	H 	0.59660 0.74490 0.44520 0.08700
H 	H 	0.72090 0.80280 0.44230 0.13200
C 	C 	0.66010 0.74710 0.66510 -0.15800
H 	H 	0.58260 0.71520 0.70820 0.04300
N 	N 	0.63740 0.57650 0.80490 -0.33900
H 	H 	0.65340 0.51980 0.79800 0.08700
H 	H 	0.56120 0.54500 0.80390 0.09100
C 	C 	0.68490 0.65070 0.65930 -0.01300
H 	H 	0.65220 0.60630 0.56000 0.01800
H 	H 	0.76660 0.68120 0.65550 0.02300
N 	N 	0.54820 0.68110 0.11130 -0.17900
N 	N 	0.63690 0.50620 0.19100 -0.18700
Mn	Mn	0.33182 0.03642 0.04438 1.25500
O 	O 	0.17750 0.95030 0.90640 -0.42700
C 	C 	0.32080 0.79010 0.05910 -0.28300
C 	C 	0.55420 0.20180 0.27330 -0.27300
O 	O 	0.05500 0.81570 0.74640 -0.42300
C 	C 	0.15550 0.89300 0.78080 0.36500
N 	N 	0.20720 0.86740 0.50080 -0.31100
H 	H 	0.25510 0.85170 0.44520 0.08700
H 	H 	0.19720 0.91810 0.44230 0.13200
C 	C 	0.25290 0.91300 0.66510 -0.16100
H 	H 	0.28480 0.86740 0.70820 0.04300
N 	N 	0.42350 0.06090 0.80490 -0.33900
H 	H 	0.48020 0.13360 0.79800 0.08800
H 	H 	0.45500 0.01620 0.80390 0.09100
C 	C 	0.34930 0.03420 0.65930 -0.01000
H 	H 	0.39370 0.04590 0.56000 0.01700
H 	H 	0.31880 0.08540 0.65550 0.02300
N 	N 	0.31890 0.86710 0.11130 -0.17800
N 	N 	0.49380 0.13070 0.19100 -0.18700
Mn	Mn	0.96358 0.29540 0.04438 1.25400
O 	O 	0.04970 0.22720 0.90640 -0.42500
C 	C 	0.20990 0.53070 0.05910 -0.28300
C 	C 	0.79820 0.35240 0.27330 -0.27300
O 	O 	0.18430 0.23930 0.74640 -0.42100
C 	C 	0.10700 0.26250 0.78080 0.36500
N 	N 	0.13260 0.33980 0.50080 -0.31100
H 	H 	0.14830 0.40340 0.44520 0.08700
H 	H 	0.08190 0.27910 0.44230 0.13200
C 	C 	0.08700 0.33990 0.66510 -0.16000
H 	H 	0.13260 0.41740 0.70820 0.04300
N 	N 	0.93910 0.36260 0.80490 -0.33900
H 	H 	0.86640 0.34660 0.79800 0.08800
H 	H 	0.98380 0.43880 0.80390 0.09100
C 	C 	0.96580 0.31510 0.65930 -0.01000
H 	H 	0.95410 0.34780 0.56000 0.01700
H 	H 	0.91460 0.23340 0.65550 0.02300
N 	N 	0.13290 0.45180 0.11130 -0.17900
N 	N 	0.86930 0.36310 0.19100 -0.18700
Cr	Cr	0.33333 0.66667 0.92330 1.46800
Cr	Cr	0.66667 0.33333 0.42330 1.46400
