data_crystal

_cell_length_a 13.53920
_cell_length_b 13.53920
_cell_length_c 8.06920
_cell_angle_alpha 90.00000
_cell_angle_beta  90.00000
_cell_angle_gamma 120.00000

_symmetry_space_group_name_	'P 1'
_symmetry_space_group_name_H-M	'P 1'

loop_
_symmetry_equiv_pos_as_xyz
  x,y,z

loop_
_atom_site_label
_atom_site_type_symbol
_atom_site_fract_x
_atom_site_fract_y
_atom_site_fract_z
_atom_site_charge
Mn	Mn	0.29673 0.33238 0.54381 1.26400
O 	O 	0.22590 0.17690 0.40670 -0.43100
C 	C 	0.53070 0.31950 0.56130 -0.27500
C 	C 	0.35410 0.55490 0.77310 -0.23000
O 	O 	0.23970 0.05330 0.24530 -0.44500
C 	C 	0.26150 0.15410 0.28030 0.37200
N 	N 	0.34040 0.20500 0.99870 -0.25800
H 	H 	0.40410 0.25270 0.94260 0.10800
H 	H 	0.27960 0.19460 0.93960 0.15000
C 	C 	0.34060 0.25200 0.16340 -0.24900
H 	H 	0.41800 0.28370 0.20740 0.05600
N 	N 	0.36390 0.42420 0.30370 -0.34800
H 	H 	0.34790 0.48110 0.29680 0.08700
H 	H 	0.44020 0.45560 0.30240 0.08800
C 	C 	0.31570 0.34950 0.15770 0.03600
H 	H 	0.34810 0.39370 0.05760 -0.03000
H 	H 	0.23380 0.31890 0.15450 -0.00900
N 	N 	0.45060 0.31740 0.61260 -0.17600
N 	N 	0.36490 0.49410 0.68870 -0.19000
Mn	Mn	0.66762 0.96435 0.54381 1.26200
O 	O 	0.82310 0.04900 0.40670 -0.43000
C 	C 	0.68050 0.21120 0.56130 -0.27500
C 	C 	0.44510 0.79920 0.77310 -0.23200
O 	O 	0.94670 0.18640 0.24530 -0.44500
C 	C 	0.84590 0.10740 0.28030 0.37200
N 	N 	0.79500 0.13540 0.99870 -0.25700
H 	H 	0.74730 0.15140 0.94260 0.10900
H 	H 	0.80540 0.08500 0.93960 0.15200
C 	C 	0.74800 0.08860 0.16340 -0.25100
H 	H 	0.71630 0.13430 0.20740 0.05600
N 	N 	0.57580 0.93970 0.30370 -0.34800
H 	H 	0.51890 0.86680 0.29680 0.08700
H 	H 	0.54440 0.98460 0.30240 0.08700
C 	C 	0.65050 0.96620 0.15770 0.03600
H 	H 	0.60630 0.95440 0.05760 -0.03000
H 	H 	0.68110 0.91490 0.15450 -0.00900
N 	N 	0.68260 0.13320 0.61260 -0.17500
N 	N 	0.50590 0.87080 0.68870 -0.19100
Mn	Mn	0.03565 0.70327 0.54381 1.26100
O 	O 	0.95100 0.77410 0.40670 -0.43100
C 	C 	0.78880 0.46930 0.56130 -0.27500
C 	C 	0.20080 0.64590 0.77310 -0.23300
O 	O 	0.81360 0.76030 0.24530 -0.44600
C 	C 	0.89260 0.73850 0.28030 0.37100
N 	N 	0.86460 0.65960 0.99870 -0.25900
H 	H 	0.84860 0.59590 0.94260 0.10900
H 	H 	0.91500 0.72040 0.93960 0.15100
C 	C 	0.91140 0.65940 0.16340 -0.24800
H 	H 	0.86570 0.58200 0.20740 0.05600
N 	N 	0.06030 0.63610 0.30370 -0.34800
H 	H 	0.13320 0.65210 0.29680 0.08700
H 	H 	0.01540 0.55980 0.30240 0.08700
C 	C 	0.03380 0.68430 0.15770 0.03400
H 	H 	0.04560 0.65190 0.05760 -0.02900
H 	H 	0.08510 0.76620 0.15450 -0.00800
N 	N 	0.86680 0.54940 0.61260 -0.17500
N 	N 	0.12920 0.63510 0.68870 -0.19100
Mn	Mn	0.70327 0.66762 0.04381 1.22200
O 	O 	0.77410 0.82310 0.90670 -0.37400
C 	C 	0.46930 0.68050 0.06130 -0.33900
C 	C 	0.64590 0.44510 0.27310 -0.28500
O 	O 	0.76030 0.94670 0.74530 -0.40700
C 	C 	0.73850 0.84590 0.78030 0.35300
N 	N 	0.65960 0.79500 0.49870 -0.31600
H 	H 	0.59590 0.74730 0.44260 0.08800
H 	H 	0.72040 0.80540 0.43960 0.13300
C 	C 	0.65940 0.74800 0.66340 -0.14800
H 	H 	0.58200 0.71630 0.70740 0.04800
N 	N 	0.63610 0.57580 0.80370 -0.33300
H 	H 	0.65210 0.51890 0.79680 0.10100
H 	H 	0.55980 0.54440 0.80240 0.10800
C 	C 	0.68430 0.65050 0.65770 -0.01500
H 	H 	0.65190 0.60630 0.55760 0.01800
H 	H 	0.76620 0.68110 0.65450 0.02700
N 	N 	0.54940 0.68260 0.11260 -0.18500
N 	N 	0.63510 0.50590 0.18870 -0.20400
Mn	Mn	0.33238 0.03565 0.04381 1.22300
O 	O 	0.17690 0.95100 0.90670 -0.38200
C 	C 	0.31950 0.78880 0.06130 -0.33800
C 	C 	0.55490 0.20080 0.27310 -0.28400
O 	O 	0.05330 0.81360 0.74530 -0.41000
C 	C 	0.15410 0.89260 0.78030 0.35600
N 	N 	0.20500 0.86460 0.49870 -0.31500
H 	H 	0.25270 0.84860 0.44260 0.08700
H 	H 	0.19460 0.91500 0.43960 0.13200
C 	C 	0.25200 0.91140 0.66340 -0.15600
H 	H 	0.28370 0.86570 0.70740 0.04900
N 	N 	0.42420 0.06030 0.80370 -0.33400
H 	H 	0.48110 0.13320 0.79680 0.10200
H 	H 	0.45560 0.01540 0.80240 0.11100
C 	C 	0.34950 0.03380 0.65770 -0.00600
H 	H 	0.39370 0.04560 0.55760 0.01700
H 	H 	0.31890 0.08510 0.65450 0.02500
N 	N 	0.31740 0.86680 0.11260 -0.18400
N 	N 	0.49410 0.12920 0.18870 -0.20400
Mn	Mn	0.96435 0.29673 0.04381 1.22200
O 	O 	0.04900 0.22590 0.90670 -0.37700
C 	C 	0.21120 0.53070 0.06130 -0.33900
C 	C 	0.79920 0.35410 0.27310 -0.28400
O 	O 	0.18640 0.23970 0.74530 -0.40400
C 	C 	0.10740 0.26150 0.78030 0.35500
N 	N 	0.13540 0.34040 0.49870 -0.31500
H 	H 	0.15140 0.40410 0.44260 0.08700
H 	H 	0.08500 0.27960 0.43960 0.13200
C 	C 	0.08860 0.34060 0.66340 -0.15500
H 	H 	0.13430 0.41800 0.70740 0.04900
N 	N 	0.93970 0.36390 0.80370 -0.33300
H 	H 	0.86680 0.34790 0.79680 0.10200
H 	H 	0.98460 0.44020 0.80240 0.11100
C 	C 	0.96620 0.31570 0.65770 -0.00700
H 	H 	0.95440 0.34810 0.55760 0.01700
H 	H 	0.91490 0.23380 0.65450 0.02600
N 	N 	0.13320 0.45060 0.11260 -0.18500
N 	N 	0.87080 0.36490 0.18870 -0.20400
Cr	Cr	0.33333 0.66667 0.92440 1.50600
Cr	Cr	0.66667 0.33333 0.42440 1.46400
