data_crystal

_cell_length_a 13.55760
_cell_length_b 13.55760
_cell_length_c 8.09940
_cell_angle_alpha 90.00000
_cell_angle_beta  90.00000
_cell_angle_gamma 120.00000

_symmetry_space_group_name_	'P 1'
_symmetry_space_group_name_H-M	'P 1'

loop_
_symmetry_equiv_pos_as_xyz
  x,y,z

loop_
_atom_site_label
_atom_site_type_symbol
_atom_site_fract_x
_atom_site_fract_y
_atom_site_fract_z
_atom_site_charge
Mn	Mn	0.29573 0.33190 0.54415 1.26100
O 	O 	0.22620 0.17670 0.40710 -0.42600
C 	C 	0.53080 0.32030 0.56060 -0.27600
C 	C 	0.35300 0.55460 0.77300 -0.26600
O 	O 	0.23970 0.05440 0.24520 -0.42400
C 	C 	0.26140 0.15460 0.28050 0.36000
N 	N 	0.34010 0.20660 -0.00000 -0.33200
H 	H 	0.40410 0.25450 0.94490 0.10000
H 	H 	0.27970 0.19660 0.94070 0.14500
C 	C 	0.33960 0.25250 0.16470 -0.15500
H 	H 	0.41700 0.28440 0.20860 0.04000
N 	N 	0.36270 0.42350 0.30450 -0.34000
H 	H 	0.34680 0.48030 0.29770 0.08600
H 	H 	0.43900 0.45490 0.30330 0.08900
C 	C 	0.31480 0.34900 0.15890 -0.01500
H 	H 	0.34730 0.39330 0.05920 0.01500
H 	H 	0.23300 0.31840 0.15550 0.02200
N 	N 	0.45130 0.31880 0.61090 -0.18000
N 	N 	0.36340 0.49330 0.68960 -0.18800
Mn	Mn	0.66810 0.96383 0.54415 1.26000
O 	O 	0.82330 0.04950 0.40710 -0.42700
C 	C 	0.67970 0.21050 0.56060 -0.27700
C 	C 	0.44540 0.79840 0.77300 -0.26800
O 	O 	0.94560 0.18530 0.24520 -0.42500
C 	C 	0.84540 0.10680 0.28050 0.36000
N 	N 	0.79340 0.13350 -0.00000 -0.33600
H 	H 	0.74550 0.14960 0.94490 0.10200
H 	H 	0.80340 0.08310 0.94070 0.14800
C 	C 	0.74750 0.08710 0.16470 -0.15600
H 	H 	0.71560 0.13260 0.20860 0.04000
N 	N 	0.57650 0.93920 0.30450 -0.34100
H 	H 	0.51970 0.86650 0.29770 0.08600
H 	H 	0.54510 0.98410 0.30330 0.08900
C 	C 	0.65100 0.96580 0.15890 -0.01400
H 	H 	0.60670 0.95400 0.05920 0.01500
H 	H 	0.68160 0.91460 0.15550 0.02200
N 	N 	0.68120 0.13250 0.61090 -0.17900
N 	N 	0.50670 0.87010 0.68960 -0.18800
Mn	Mn	0.03617 0.70427 0.54415 1.26000
O 	O 	0.95050 0.77380 0.40710 -0.42700
C 	C 	0.78950 0.46920 0.56060 -0.27700
C 	C 	0.20160 0.64700 0.77300 -0.26800
O 	O 	0.81470 0.76030 0.24520 -0.42400
C 	C 	0.89320 0.73860 0.28050 0.36000
N 	N 	0.86650 0.65990 -0.00000 -0.33300
H 	H 	0.85040 0.59590 0.94490 0.10100
H 	H 	0.91690 0.72030 0.94070 0.14600
C 	C 	0.91290 0.66040 0.16470 -0.15600
H 	H 	0.86740 0.58300 0.20860 0.04000
N 	N 	0.06080 0.63730 0.30450 -0.34100
H 	H 	0.13350 0.65320 0.29770 0.08600
H 	H 	0.01590 0.56100 0.30330 0.08900
C 	C 	0.03420 0.68520 0.15890 -0.01500
H 	H 	0.04600 0.65270 0.05920 0.01600
H 	H 	0.08540 0.76700 0.15550 0.02200
N 	N 	0.86750 0.54870 0.61090 -0.17900
N 	N 	0.12990 0.63660 0.68960 -0.18800
Mn	Mn	0.70427 0.66810 0.04415 1.25700
O 	O 	0.77380 0.82330 0.90710 -0.42200
C 	C 	0.46920 0.67970 0.06060 -0.28300
C 	C 	0.64700 0.44540 0.27300 -0.27200
O 	O 	0.76030 0.94560 0.74520 -0.42300
C 	C 	0.73860 0.84540 0.78050 0.36100
N 	N 	0.65990 0.79340 0.50000 -0.31300
H 	H 	0.59590 0.74550 0.44490 0.08700
H 	H 	0.72030 0.80340 0.44070 0.13300
C 	C 	0.66040 0.74750 0.66470 -0.15500
H 	H 	0.58300 0.71560 0.70860 0.04200
N 	N 	0.63730 0.57650 0.80450 -0.33900
H 	H 	0.65320 0.51970 0.79770 0.08800
H 	H 	0.56100 0.54510 0.80330 0.09100
C 	C 	0.68520 0.65100 0.65890 -0.01500
H 	H 	0.65270 0.60670 0.55920 0.01900
H 	H 	0.76700 0.68160 0.65550 0.02400
N 	N 	0.54870 0.68120 0.11090 -0.18000
N 	N 	0.63660 0.50670 0.18960 -0.18900
Mn	Mn	0.33190 0.03617 0.04415 1.25600
O 	O 	0.17670 0.95050 0.90710 -0.42500
C 	C 	0.32030 0.78950 0.06060 -0.28200
C 	C 	0.55460 0.20160 0.27300 -0.27200
O 	O 	0.05440 0.81470 0.74520 -0.42400
C 	C 	0.15460 0.89320 0.78050 0.36100
N 	N 	0.20660 0.86650 0.50000 -0.31300
H 	H 	0.25450 0.85040 0.44490 0.08700
H 	H 	0.19660 0.91690 0.44070 0.13300
C 	C 	0.25250 0.91290 0.66470 -0.15800
H 	H 	0.28440 0.86740 0.70860 0.04200
N 	N 	0.42350 0.06080 0.80450 -0.34000
H 	H 	0.48030 0.13350 0.79770 0.08800
H 	H 	0.45490 0.01590 0.80330 0.09200
C 	C 	0.34900 0.03420 0.65890 -0.01200
H 	H 	0.39330 0.04600 0.55920 0.01800
H 	H 	0.31840 0.08540 0.65550 0.02400
N 	N 	0.31880 0.86750 0.11090 -0.18000
N 	N 	0.49330 0.12990 0.18960 -0.18900
Mn	Mn	0.96383 0.29573 0.04415 1.25600
O 	O 	0.04950 0.22620 0.90710 -0.42200
C 	C 	0.21050 0.53080 0.06060 -0.28200
C 	C 	0.79840 0.35300 0.27300 -0.27200
O 	O 	0.18530 0.23970 0.74520 -0.42200
C 	C 	0.10680 0.26140 0.78050 0.36100
N 	N 	0.13350 0.34010 0.50000 -0.31300
H 	H 	0.14960 0.40410 0.44490 0.08700
H 	H 	0.08310 0.27970 0.44070 0.13300
C 	C 	0.08710 0.33960 0.66470 -0.15700
H 	H 	0.13260 0.41700 0.70860 0.04200
N 	N 	0.93920 0.36270 0.80450 -0.33900
H 	H 	0.86650 0.34680 0.79770 0.08800
H 	H 	0.98410 0.43900 0.80330 0.09200
C 	C 	0.96580 0.31480 0.65890 -0.01300
H 	H 	0.95400 0.34730 0.55920 0.01800
H 	H 	0.91460 0.23300 0.65550 0.02400
N 	N 	0.13250 0.45130 0.11090 -0.18000
N 	N 	0.87010 0.36340 0.18960 -0.18900
Cr	Cr	0.33333 0.66667 0.92380 1.46800
Cr	Cr	0.66667 0.33333 0.42380 1.46400
