data_crystal

_cell_length_a 16.13400
_cell_length_b 16.13400
_cell_length_c 4.54890
_cell_angle_alpha 90.00000
_cell_angle_beta  90.00000
_cell_angle_gamma 90.00000

_symmetry_space_group_name_	'P 1'
_symmetry_space_group_name_H-M	'P 1'

loop_
_symmetry_equiv_pos_as_xyz
  x,y,z

loop_
_atom_site_label
_atom_site_type_symbol
_atom_site_fract_x
_atom_site_fract_y
_atom_site_fract_z
_atom_site_charge
Cu	Cu	0.19906 0.53858 0.50160 0.98700
O 	O 	0.07860 0.69330 0.17300 -0.41300
H 	H 	0.04550 0.65490 0.18080 0.28700
O 	O 	0.13190 0.61840 0.75400 -0.25300
O 	O 	0.21970 0.62130 0.20500 -0.28600
O 	O 	0.42400 0.96370 0.78100 -0.23300
O 	O 	0.47650 0.90230 0.27200 -0.29100
O 	O 	0.45490 0.81000 0.82600 -0.26900
P 	P 	0.15928 0.66462 0.99800 0.63200
P 	P 	0.42488 0.88450 0.99950 0.60300
C 	C 	0.20720 0.76060 0.89400 0.05400
C 	C 	0.28390 0.78400 0.00700 -0.09000
H 	H 	0.31060 0.75230 0.14940 0.09300
C 	C 	0.32000 0.85860 0.89700 0.05100
C 	C 	0.27860 0.90880 0.69500 -0.27800
H 	H 	0.30250 0.95820 0.63200 0.17700
C 	C 	0.20060 0.88440 0.58700 0.38300
C 	C 	0.16670 0.81200 0.68100 -0.28400
H 	H 	0.11590 0.79530 0.60470 0.14100
C 	C 	0.15300 0.93880 0.38100 -0.91900
H 	H 	0.10100 0.91300 0.33390 0.26900
H 	H 	0.18440 0.94670 0.20370 0.32300
H 	H 	0.14310 0.99150 0.47200 0.30100
O 	O 	0.22100 0.62100 0.78200 -0.28400
O 	O 	0.13400 0.60920 0.28300 -0.25000
O 	O 	0.08100 0.69400 0.85200 -0.17500
O 	O 	0.45730 0.80510 0.17200 -0.26100
O 	O 	0.47700 0.90400 0.75800 -0.27400
O 	O 	0.41620 0.96150 0.20700 -0.20900
Cu	Cu	0.80094 0.46142 0.50160 0.98800
O 	O 	0.92140 0.30670 0.17300 -0.40600
H 	H 	0.95450 0.34510 0.18080 0.33200
O 	O 	0.86810 0.38160 0.75400 -0.24200
O 	O 	0.78030 0.37870 0.20500 -0.28600
O 	O 	0.57600 0.03630 0.78100 -0.28200
O 	O 	0.52350 0.09770 0.27200 -0.30400
O 	O 	0.54510 0.19000 0.82600 -0.27000
P 	P 	0.84072 0.33538 0.99800 0.62300
P 	P 	0.57512 0.11550 0.99950 0.61900
C 	C 	0.79280 0.23940 0.89400 0.05000
C 	C 	0.71610 0.21600 0.00700 -0.08000
H 	H 	0.68940 0.24770 0.14940 0.09000
C 	C 	0.68000 0.14140 0.89700 0.03200
C 	C 	0.72140 0.09120 0.69500 -0.25100
H 	H 	0.69750 0.04180 0.63200 0.13600
C 	C 	0.79940 0.11560 0.58700 0.34800
C 	C 	0.83330 0.18800 0.68100 -0.26600
H 	H 	0.88410 0.20470 0.60470 0.15800
C 	C 	0.84700 0.06120 0.38100 -0.84400
H 	H 	0.89900 0.08700 0.33390 0.26600
H 	H 	0.81560 0.05330 0.20370 0.28300
H 	H 	0.85690 0.00850 0.47200 0.24300
O 	O 	0.77900 0.37900 0.78200 -0.28400
O 	O 	0.86600 0.39080 0.28300 -0.23900
O 	O 	0.91900 0.30600 0.85200 -0.13600
O 	O 	0.54270 0.19490 0.17200 -0.26200
O 	O 	0.52300 0.09600 0.75800 -0.28400
O 	O 	0.58380 0.03850 0.20700 -0.25400
Cu	Cu	0.53858 0.80094 0.49840 0.98800
O 	O 	0.69330 0.92140 0.82700 -0.40600
H 	H 	0.65490 0.95450 0.81920 0.33200
O 	O 	0.61840 0.86810 0.24600 -0.24100
O 	O 	0.62130 0.78030 0.79500 -0.28600
O 	O 	0.96370 0.57600 0.21900 -0.23300
O 	O 	0.90230 0.52350 0.72800 -0.29000
O 	O 	0.81000 0.54510 0.17400 -0.26900
P 	P 	0.66462 0.84072 0.00200 0.61900
P 	P 	0.88450 0.57512 0.00050 0.60000
C 	C 	0.76060 0.79280 0.10600 0.07500
C 	C 	0.78400 0.71610 0.99300 -0.10700
H 	H 	0.75230 0.68940 0.85060 0.09900
C 	C 	0.85860 0.68000 0.10300 0.06500
C 	C 	0.90880 0.72140 0.30500 -0.31000
H 	H 	0.95820 0.69750 0.36800 0.18800
C 	C 	0.88440 0.79940 0.41300 0.43600
C 	C 	0.81200 0.83330 0.31900 -0.32000
H 	H 	0.79530 0.88410 0.39530 0.17600
C 	C 	0.93880 0.84700 0.61900 -1.01400
H 	H 	0.91300 0.89900 0.66610 0.32800
H 	H 	0.94670 0.81560 0.79630 0.35500
H 	H 	0.99150 0.85690 0.52800 0.33700
O 	O 	0.62100 0.77900 0.21800 -0.28400
O 	O 	0.60920 0.86600 0.71700 -0.23800
O 	O 	0.69400 0.91900 0.14800 -0.13700
O 	O 	0.80510 0.54270 0.82800 -0.26100
O 	O 	0.90400 0.52300 0.24200 -0.27300
O 	O 	0.96150 0.58380 0.79300 -0.20900
Cu	Cu	0.46142 0.19906 0.49840 0.98800
O 	O 	0.30670 0.07860 0.82700 -0.41100
H 	H 	0.34510 0.04550 0.81920 0.28700
O 	O 	0.38160 0.13190 0.24600 -0.25400
O 	O 	0.37870 0.21970 0.79500 -0.28600
O 	O 	0.03630 0.42400 0.21900 -0.28200
O 	O 	0.09770 0.47650 0.72800 -0.30400
O 	O 	0.19000 0.45490 0.17400 -0.27000
P 	P 	0.33538 0.15928 0.00200 0.63700
P 	P 	0.11550 0.42488 0.00050 0.62200
C 	C 	0.23940 0.20720 0.10600 0.02900
C 	C 	0.21600 0.28390 0.99300 -0.06300
H 	H 	0.24770 0.31060 0.85060 0.08400
C 	C 	0.14140 0.32000 0.10300 0.01700
C 	C 	0.09120 0.27860 0.30500 -0.21800
H 	H 	0.04180 0.30250 0.36800 0.12600
C 	C 	0.11560 0.20060 0.41300 0.29600
C 	C 	0.18800 0.16670 0.31900 -0.23000
H 	H 	0.20470 0.11590 0.39530 0.12300
C 	C 	0.06120 0.15300 0.61900 -0.74900
H 	H 	0.08700 0.10100 0.66610 0.20700
H 	H 	0.05330 0.18440 0.79630 0.25100
H 	H 	0.00850 0.14310 0.52800 0.20800
O 	O 	0.37900 0.22100 0.21800 -0.28300
O 	O 	0.39080 0.13400 0.71700 -0.25000
O 	O 	0.30600 0.08100 0.14800 -0.17400
O 	O 	0.19490 0.45730 0.82800 -0.26200
O 	O 	0.09600 0.47700 0.24200 -0.28500
O 	O 	0.03850 0.41620 0.79300 -0.25400
Cu	Cu	0.50000 0.00000 0.50050 0.98500
Cu	Cu	-0.00000 0.50000 0.49950 0.98500
