data_crystal

_cell_length_a 22.38190
_cell_length_b 22.38190
_cell_length_c 22.38190
_cell_angle_alpha 90.00000
_cell_angle_beta  90.00000
_cell_angle_gamma 90.00000

_symmetry_space_group_name_	'P 1'
_symmetry_space_group_name_H-M	'P 1'

loop_
_symmetry_equiv_pos_as_xyz
  x,y,z

loop_
_atom_site_label
_atom_site_type_symbol
_atom_site_fract_x
_atom_site_fract_y
_atom_site_fract_z
_atom_site_charge
N 	N 	0.56290 0.71660 0.82330 -0.30400
N 	N 	0.63400 0.69870 0.76020 -0.31400
N 	N 	0.57780 0.65740 0.82360 -0.09400
N 	N 	0.62220 0.64920 0.78790 -0.10000
C 	C 	0.59900 0.74210 0.78360 0.28000
C 	C 	0.60410 0.80650 0.77100 -0.83000
H 	H 	0.63340 0.81280 0.74040 0.22800
H 	H 	0.56610 0.82150 0.75780 0.23700
H 	H 	0.61600 0.82720 0.80670 0.24300
N 	N 	0.06290 0.21660 0.32330 -0.30900
N 	N 	0.13400 0.19870 0.26020 -0.31600
N 	N 	0.07780 0.15740 0.32360 -0.10500
N 	N 	0.12220 0.14920 0.28790 -0.10700
C 	C 	0.09900 0.24210 0.28360 0.26300
C 	C 	0.10410 0.30650 0.27100 -0.79400
H 	H 	0.13340 0.31280 0.24040 0.21100
H 	H 	0.06610 0.32150 0.25780 0.21600
H 	H 	0.11600 0.32720 0.30670 0.22600
N 	N 	0.93710 0.28340 0.32330 -0.29800
N 	N 	0.86600 0.30130 0.26020 -0.31400
N 	N 	0.92220 0.34260 0.32360 -0.09000
N 	N 	0.87780 0.35080 0.28790 -0.09900
C 	C 	0.90100 0.25790 0.28360 0.27600
C 	C 	0.89590 0.19350 0.27100 -0.81400
H 	H 	0.86660 0.18720 0.24040 0.21800
H 	H 	0.93390 0.17850 0.25780 0.23300
H 	H 	0.88400 0.17280 0.30670 0.23300
N 	N 	0.43710 0.78340 0.82330 -0.30500
N 	N 	0.36600 0.80130 0.76020 -0.31400
N 	N 	0.42220 0.84260 0.82360 -0.09200
N 	N 	0.37780 0.85080 0.78790 -0.09700
C 	C 	0.40100 0.75790 0.78360 0.27600
C 	C 	0.39590 0.69350 0.77100 -0.81800
H 	H 	0.36660 0.68720 0.74040 0.22100
H 	H 	0.43390 0.67850 0.75780 0.23100
H 	H 	0.38400 0.67280 0.80670 0.23600
N 	N 	0.43710 0.21660 0.67670 -0.30600
N 	N 	0.36600 0.19870 0.73980 -0.31400
N 	N 	0.42220 0.15740 0.67640 -0.09800
N 	N 	0.37780 0.14920 0.71210 -0.10300
C 	C 	0.40100 0.24210 0.71640 0.27400
C 	C 	0.39590 0.30650 0.72900 -0.81600
H 	H 	0.36660 0.31280 0.75960 0.22100
H 	H 	0.43390 0.32150 0.74220 0.23100
H 	H 	0.38400 0.32720 0.69330 0.23400
N 	N 	0.93710 0.71660 0.17670 -0.29900
N 	N 	0.86600 0.69870 0.23980 -0.31400
N 	N 	0.92220 0.65740 0.17640 -0.09200
N 	N 	0.87780 0.64920 0.21210 -0.10000
C 	C 	0.90100 0.74210 0.21640 0.28300
C 	C 	0.89590 0.80650 0.22900 -0.83500
H 	H 	0.86660 0.81280 0.25960 0.22900
H 	H 	0.93390 0.82150 0.24220 0.24500
H 	H 	0.88400 0.82720 0.19330 0.24300
N 	N 	0.06290 0.78340 0.17670 -0.30900
N 	N 	0.13400 0.80130 0.23980 -0.31400
N 	N 	0.07780 0.84260 0.17640 -0.10300
N 	N 	0.12220 0.85080 0.21210 -0.10200
C 	C 	0.09900 0.75790 0.21640 0.26400
C 	C 	0.10410 0.69350 0.22900 -0.79500
H 	H 	0.13340 0.68720 0.25960 0.21200
H 	H 	0.06610 0.67850 0.24220 0.21800
H 	H 	0.11600 0.67280 0.19330 0.22500
N 	N 	0.56290 0.28340 0.67670 -0.30500
N 	N 	0.63400 0.30130 0.73980 -0.31300
N 	N 	0.57780 0.34260 0.67640 -0.09600
N 	N 	0.62220 0.35080 0.71210 -0.10000
C 	C 	0.59900 0.25790 0.71640 0.27300
C 	C 	0.60410 0.19350 0.72900 -0.80900
H 	H 	0.63340 0.18720 0.75960 0.21700
H 	H 	0.56610 0.17850 0.74220 0.22700
H 	H 	0.61600 0.17280 0.69330 0.23100
N 	N 	0.82330 0.56290 0.71660 -0.30500
N 	N 	0.76020 0.63400 0.69870 -0.31400
N 	N 	0.82360 0.57780 0.65740 -0.09400
N 	N 	0.78790 0.62220 0.64920 -0.10000
C 	C 	0.78360 0.59900 0.74210 0.28000
C 	C 	0.77100 0.60410 0.80650 -0.83000
H 	H 	0.74040 0.63340 0.81280 0.22800
H 	H 	0.75780 0.56610 0.82150 0.23700
H 	H 	0.80670 0.61600 0.82720 0.24300
N 	N 	0.32330 0.06290 0.21660 -0.30900
N 	N 	0.26020 0.13400 0.19870 -0.31600
N 	N 	0.32360 0.07780 0.15740 -0.10500
N 	N 	0.28790 0.12220 0.14920 -0.10700
C 	C 	0.28360 0.09900 0.24210 0.26300
C 	C 	0.27100 0.10410 0.30650 -0.79400
H 	H 	0.24040 0.13340 0.31280 0.21100
H 	H 	0.25780 0.06610 0.32150 0.21600
H 	H 	0.30670 0.11600 0.32720 0.22600
N 	N 	0.32330 0.93710 0.28340 -0.29800
N 	N 	0.26020 0.86600 0.30130 -0.31400
N 	N 	0.32360 0.92220 0.34260 -0.09000
N 	N 	0.28790 0.87780 0.35080 -0.09900
C 	C 	0.28360 0.90100 0.25790 0.27600
C 	C 	0.27100 0.89590 0.19350 -0.81400
H 	H 	0.24040 0.86660 0.18720 0.21800
H 	H 	0.25780 0.93390 0.17850 0.23300
H 	H 	0.30670 0.88400 0.17280 0.23300
N 	N 	0.82330 0.43710 0.78340 -0.30500
N 	N 	0.76020 0.36600 0.80130 -0.31400
N 	N 	0.82360 0.42220 0.84260 -0.09200
N 	N 	0.78790 0.37780 0.85080 -0.09700
C 	C 	0.78360 0.40100 0.75790 0.27600
C 	C 	0.77100 0.39590 0.69350 -0.81800
H 	H 	0.74040 0.36660 0.68720 0.22100
H 	H 	0.75780 0.43390 0.67850 0.23100
H 	H 	0.80670 0.38400 0.67280 0.23600
N 	N 	0.67670 0.43710 0.21660 -0.30600
N 	N 	0.73980 0.36600 0.19870 -0.31400
N 	N 	0.67640 0.42220 0.15740 -0.09800
N 	N 	0.71210 0.37780 0.14920 -0.10300
C 	C 	0.71640 0.40100 0.24210 0.27400
C 	C 	0.72900 0.39590 0.30650 -0.81600
H 	H 	0.75960 0.36660 0.31280 0.22100
H 	H 	0.74220 0.43390 0.32150 0.23100
H 	H 	0.69330 0.38400 0.32720 0.23400
N 	N 	0.17670 0.93710 0.71660 -0.29900
N 	N 	0.23980 0.86600 0.69870 -0.31400
N 	N 	0.17640 0.92220 0.65740 -0.09200
N 	N 	0.21210 0.87780 0.64920 -0.10000
C 	C 	0.21640 0.90100 0.74210 0.28300
C 	C 	0.22900 0.89590 0.80650 -0.83500
H 	H 	0.25960 0.86660 0.81280 0.22900
H 	H 	0.24220 0.93390 0.82150 0.24500
H 	H 	0.19330 0.88400 0.82720 0.24300
N 	N 	0.17670 0.06290 0.78340 -0.30900
N 	N 	0.23980 0.13400 0.80130 -0.31400
N 	N 	0.17640 0.07780 0.84260 -0.10300
N 	N 	0.21210 0.12220 0.85080 -0.10200
C 	C 	0.21640 0.09900 0.75790 0.26400
C 	C 	0.22900 0.10410 0.69350 -0.79500
H 	H 	0.25960 0.13340 0.68720 0.21200
H 	H 	0.24220 0.06610 0.67850 0.21800
H 	H 	0.19330 0.11600 0.67280 0.22500
N 	N 	0.67670 0.56290 0.28340 -0.30500
N 	N 	0.73980 0.63400 0.30130 -0.31300
N 	N 	0.67640 0.57780 0.34260 -0.09600
N 	N 	0.71210 0.62220 0.35080 -0.10000
C 	C 	0.71640 0.59900 0.25790 0.27300
C 	C 	0.72900 0.60410 0.19350 -0.80900
H 	H 	0.75960 0.63340 0.18720 0.21700
H 	H 	0.74220 0.56610 0.17850 0.22700
H 	H 	0.69330 0.61600 0.17280 0.23100
N 	N 	0.71660 0.82330 0.56290 -0.30500
N 	N 	0.69870 0.76020 0.63400 -0.31400
N 	N 	0.65740 0.82360 0.57780 -0.09400
N 	N 	0.64920 0.78790 0.62220 -0.10000
C 	C 	0.74210 0.78360 0.59900 0.28000
C 	C 	0.80650 0.77100 0.60410 -0.83000
H 	H 	0.81280 0.74040 0.63340 0.22800
H 	H 	0.82150 0.75780 0.56610 0.23700
H 	H 	0.82720 0.80670 0.61600 0.24300
N 	N 	0.21660 0.32330 0.06290 -0.30900
N 	N 	0.19870 0.26020 0.13400 -0.31600
N 	N 	0.15740 0.32360 0.07780 -0.10500
N 	N 	0.14920 0.28790 0.12220 -0.10700
C 	C 	0.24210 0.28360 0.09900 0.26300
C 	C 	0.30650 0.27100 0.10410 -0.79400
H 	H 	0.31280 0.24040 0.13340 0.21100
H 	H 	0.32150 0.25780 0.06610 0.21600
H 	H 	0.32720 0.30670 0.11600 0.22600
N 	N 	0.28340 0.32330 0.93710 -0.29800
N 	N 	0.30130 0.26020 0.86600 -0.31400
N 	N 	0.34260 0.32360 0.92220 -0.09000
N 	N 	0.35080 0.28790 0.87780 -0.09900
C 	C 	0.25790 0.28360 0.90100 0.27600
C 	C 	0.19350 0.27100 0.89590 -0.81400
H 	H 	0.18720 0.24040 0.86660 0.21800
H 	H 	0.17850 0.25780 0.93390 0.23300
H 	H 	0.17280 0.30670 0.88400 0.23300
N 	N 	0.78340 0.82330 0.43710 -0.30500
N 	N 	0.80130 0.76020 0.36600 -0.31400
N 	N 	0.84260 0.82360 0.42220 -0.09200
N 	N 	0.85080 0.78790 0.37780 -0.09700
C 	C 	0.75790 0.78360 0.40100 0.27600
C 	C 	0.69350 0.77100 0.39590 -0.81800
H 	H 	0.68720 0.74040 0.36660 0.22100
H 	H 	0.67850 0.75780 0.43390 0.23100
H 	H 	0.67280 0.80670 0.38400 0.23600
N 	N 	0.21660 0.67670 0.43710 -0.30600
N 	N 	0.19870 0.73980 0.36600 -0.31400
N 	N 	0.15740 0.67640 0.42220 -0.09800
N 	N 	0.14920 0.71210 0.37780 -0.10300
C 	C 	0.24210 0.71640 0.40100 0.27400
C 	C 	0.30650 0.72900 0.39590 -0.81600
H 	H 	0.31280 0.75960 0.36660 0.22100
H 	H 	0.32150 0.74220 0.43390 0.23100
H 	H 	0.32720 0.69330 0.38400 0.23400
N 	N 	0.71660 0.17670 0.93710 -0.29900
N 	N 	0.69870 0.23980 0.86600 -0.31400
N 	N 	0.65740 0.17640 0.92220 -0.09200
N 	N 	0.64920 0.21210 0.87780 -0.10000
C 	C 	0.74210 0.21640 0.90100 0.28300
C 	C 	0.80650 0.22900 0.89590 -0.83500
H 	H 	0.81280 0.25960 0.86660 0.22900
H 	H 	0.82150 0.24220 0.93390 0.24500
H 	H 	0.82720 0.19330 0.88400 0.24300
N 	N 	0.78340 0.17670 0.06290 -0.30900
N 	N 	0.80130 0.23980 0.13400 -0.31400
N 	N 	0.84260 0.17640 0.07780 -0.10300
N 	N 	0.85080 0.21210 0.12220 -0.10200
C 	C 	0.75790 0.21640 0.09900 0.26400
C 	C 	0.69350 0.22900 0.10410 -0.79500
H 	H 	0.68720 0.25960 0.13340 0.21200
H 	H 	0.67850 0.24220 0.06610 0.21800
H 	H 	0.67280 0.19330 0.11600 0.22500
N 	N 	0.28340 0.67670 0.56290 -0.30500
N 	N 	0.30130 0.73980 0.63400 -0.31300
N 	N 	0.34260 0.67640 0.57780 -0.09600
N 	N 	0.35080 0.71210 0.62220 -0.10000
C 	C 	0.25790 0.71640 0.59900 0.27300
C 	C 	0.19350 0.72900 0.60410 -0.80900
H 	H 	0.18720 0.75960 0.63340 0.21700
H 	H 	0.17850 0.74220 0.56610 0.22700
H 	H 	0.17280 0.69330 0.61600 0.23100
N 	N 	0.96660 0.81290 0.07330 -0.31300
N 	N 	0.94870 0.88400 0.01020 -0.33200
N 	N 	0.90740 0.82780 0.07360 -0.09600
N 	N 	0.89920 0.87220 0.03790 -0.10300
C 	C 	0.99210 0.84900 0.03360 0.35600
C 	C 	0.05650 0.85410 0.02100 -1.05200
H 	H 	0.06280 0.88340 0.99040 0.30700
H 	H 	0.07150 0.81610 0.00780 0.28600
H 	H 	0.07720 0.86600 0.05670 0.29500
N 	N 	0.46660 0.31290 0.57330 -0.30500
N 	N 	0.44870 0.38400 0.51020 -0.31400
N 	N 	0.40740 0.32780 0.57360 -0.09600
N 	N 	0.39920 0.37220 0.53790 -0.10100
C 	C 	0.49210 0.34900 0.53360 0.27300
C 	C 	0.55650 0.35410 0.52100 -0.81400
H 	H 	0.56280 0.38340 0.49040 0.22000
H 	H 	0.57150 0.31610 0.50780 0.22900
H 	H 	0.57720 0.36600 0.55670 0.23400
N 	N 	0.53340 0.18710 0.57330 -0.30500
N 	N 	0.55130 0.11600 0.51020 -0.31600
N 	N 	0.59260 0.17220 0.57360 -0.09700
N 	N 	0.60080 0.12780 0.53790 -0.10300
C 	C 	0.50790 0.15100 0.53360 0.27000
C 	C 	0.44350 0.14590 0.52100 -0.80500
H 	H 	0.43720 0.11660 0.49040 0.21400
H 	H 	0.42850 0.18390 0.50780 0.22600
H 	H 	0.42280 0.13400 0.55670 0.22800
N 	N 	0.03340 0.68710 0.07330 -0.31100
N 	N 	0.05130 0.61600 0.01020 -0.32800
N 	N 	0.09260 0.67220 0.07360 -0.10100
N 	N 	0.10080 0.62780 0.03790 -0.10800
C 	C 	0.00790 0.65100 0.03360 0.25500
C 	C 	0.94350 0.64590 0.02100 -0.86700
H 	H 	0.93720 0.61660 0.99040 0.26300
H 	H 	0.92850 0.68390 0.00780 0.24400
H 	H 	0.92280 0.63400 0.05670 0.25100
N 	N 	0.46660 0.68710 0.92670 -0.29700
N 	N 	0.44870 0.61600 0.98980 -0.29800
N 	N 	0.40740 0.67220 0.92640 -0.09300
N 	N 	0.39920 0.62780 0.96210 -0.09500
C 	C 	0.49210 0.65100 0.96640 0.24400
C 	C 	0.55650 0.64590 0.97900 -0.67200
H 	H 	0.56280 0.61660 0.00960 0.15700
H 	H 	0.57150 0.68390 0.99220 0.19700
H 	H 	0.57720 0.63400 0.94330 0.19800
N 	N 	0.96660 0.18710 0.42670 -0.30400
N 	N 	0.94870 0.11600 0.48980 -0.31900
N 	N 	0.90740 0.17220 0.42640 -0.09500
N 	N 	0.89920 0.12780 0.46210 -0.10200
C 	C 	0.99210 0.15100 0.46640 0.31900
C 	C 	0.05650 0.14590 0.47900 -0.89300
H 	H 	0.06280 0.11660 0.50960 0.23400
H 	H 	0.07150 0.18390 0.49220 0.24700
H 	H 	0.07720 0.13400 0.44330 0.24900
N 	N 	0.03340 0.31290 0.42670 -0.30300
N 	N 	0.05130 0.38400 0.48980 -0.31100
N 	N 	0.09260 0.32780 0.42640 -0.09800
N 	N 	0.10080 0.37220 0.46210 -0.10300
C 	C 	0.00790 0.34900 0.46640 0.22500
C 	C 	0.94350 0.35410 0.47900 -0.72500
H 	H 	0.93720 0.38340 0.50960 0.20000
H 	H 	0.92850 0.31610 0.49220 0.20900
H 	H 	0.92280 0.36600 0.44330 0.21400
N 	N 	0.53340 0.81290 0.92670 -0.29800
N 	N 	0.55130 0.88400 0.98980 -0.29600
N 	N 	0.59260 0.82780 0.92640 -0.09200
N 	N 	0.60080 0.87220 0.96210 -0.09300
C 	C 	0.50790 0.84900 0.96640 0.24800
C 	C 	0.44350 0.85410 0.97900 -0.68000
H 	H 	0.43720 0.88340 0.00960 0.16200
H 	H 	0.42850 0.81610 0.99220 0.19900
H 	H 	0.42280 0.86600 0.94330 0.20200
N 	N 	0.81290 0.07330 0.96660 -0.31300
N 	N 	0.88400 0.01020 0.94870 -0.33200
N 	N 	0.82780 0.07360 0.90740 -0.09600
N 	N 	0.87220 0.03790 0.89920 -0.10300
C 	C 	0.84900 0.03360 0.99210 0.35600
C 	C 	0.85410 0.02100 0.05650 -1.05200
H 	H 	0.88340 0.99040 0.06280 0.30700
H 	H 	0.81610 0.00780 0.07150 0.28600
H 	H 	0.86600 0.05670 0.07720 0.29500
N 	N 	0.31290 0.57330 0.46660 -0.30500
N 	N 	0.38400 0.51020 0.44870 -0.31400
N 	N 	0.32780 0.57360 0.40740 -0.09600
N 	N 	0.37220 0.53790 0.39920 -0.10100
C 	C 	0.34900 0.53360 0.49210 0.27300
C 	C 	0.35410 0.52100 0.55650 -0.81400
H 	H 	0.38340 0.49040 0.56280 0.22000
H 	H 	0.31610 0.50780 0.57150 0.22900
H 	H 	0.36600 0.55670 0.57720 0.23400
N 	N 	0.18710 0.57330 0.53340 -0.30500
N 	N 	0.11600 0.51020 0.55130 -0.31600
N 	N 	0.17220 0.57360 0.59260 -0.09700
N 	N 	0.12780 0.53790 0.60080 -0.10300
C 	C 	0.15100 0.53360 0.50790 0.27000
C 	C 	0.14590 0.52100 0.44350 -0.80500
H 	H 	0.11660 0.49040 0.43720 0.21400
H 	H 	0.18390 0.50780 0.42850 0.22600
H 	H 	0.13400 0.55670 0.42280 0.22800
N 	N 	0.68710 0.07330 0.03340 -0.31100
N 	N 	0.61600 0.01020 0.05130 -0.32800
N 	N 	0.67220 0.07360 0.09260 -0.10100
N 	N 	0.62780 0.03790 0.10080 -0.10800
C 	C 	0.65100 0.03360 0.00790 0.25500
C 	C 	0.64590 0.02100 0.94350 -0.86700
H 	H 	0.61660 0.99040 0.93720 0.26300
H 	H 	0.68390 0.00780 0.92850 0.24400
H 	H 	0.63400 0.05670 0.92280 0.25100
N 	N 	0.68710 0.92670 0.46660 -0.29700
N 	N 	0.61600 0.98980 0.44870 -0.29800
N 	N 	0.67220 0.92640 0.40740 -0.09300
N 	N 	0.62780 0.96210 0.39920 -0.09500
C 	C 	0.65100 0.96640 0.49210 0.24400
C 	C 	0.64590 0.97900 0.55650 -0.67200
H 	H 	0.61660 0.00960 0.56280 0.15700
H 	H 	0.68390 0.99220 0.57150 0.19700
H 	H 	0.63400 0.94330 0.57720 0.19800
N 	N 	0.18710 0.42670 0.96660 -0.30400
N 	N 	0.11600 0.48980 0.94870 -0.31900
N 	N 	0.17220 0.42640 0.90740 -0.09500
N 	N 	0.12780 0.46210 0.89920 -0.10200
C 	C 	0.15100 0.46640 0.99210 0.31900
C 	C 	0.14590 0.47900 0.05650 -0.89300
H 	H 	0.11660 0.50960 0.06280 0.23400
H 	H 	0.18390 0.49220 0.07150 0.24700
H 	H 	0.13400 0.44330 0.07720 0.24900
N 	N 	0.31290 0.42670 0.03340 -0.30300
N 	N 	0.38400 0.48980 0.05130 -0.31100
N 	N 	0.32780 0.42640 0.09260 -0.09800
N 	N 	0.37220 0.46210 0.10080 -0.10300
C 	C 	0.34900 0.46640 0.00790 0.22500
C 	C 	0.35410 0.47900 0.94350 -0.72500
H 	H 	0.38340 0.50960 0.93720 0.20000
H 	H 	0.31610 0.49220 0.92850 0.20900
H 	H 	0.36600 0.44330 0.92280 0.21400
N 	N 	0.81290 0.92670 0.53340 -0.29800
N 	N 	0.88400 0.98980 0.55130 -0.29600
N 	N 	0.82780 0.92640 0.59260 -0.09200
N 	N 	0.87220 0.96210 0.60080 -0.09300
C 	C 	0.84900 0.96640 0.50790 0.24800
C 	C 	0.85410 0.97900 0.44350 -0.68000
H 	H 	0.88340 0.00960 0.43720 0.16200
H 	H 	0.81610 0.99220 0.42850 0.19900
H 	H 	0.86600 0.94330 0.42280 0.20200
N 	N 	0.07330 0.96660 0.81290 -0.31300
N 	N 	0.01020 0.94870 0.88400 -0.33200
N 	N 	0.07360 0.90740 0.82780 -0.09600
N 	N 	0.03790 0.89920 0.87220 -0.10300
C 	C 	0.03360 0.99210 0.84900 0.35600
C 	C 	0.02100 0.05650 0.85410 -1.05200
H 	H 	0.99040 0.06280 0.88340 0.30700
H 	H 	0.00780 0.07150 0.81610 0.28600
H 	H 	0.05670 0.07720 0.86600 0.29500
N 	N 	0.57330 0.46660 0.31290 -0.30500
N 	N 	0.51020 0.44870 0.38400 -0.31400
N 	N 	0.57360 0.40740 0.32780 -0.09600
N 	N 	0.53790 0.39920 0.37220 -0.10100
C 	C 	0.53360 0.49210 0.34900 0.27300
C 	C 	0.52100 0.55650 0.35410 -0.81400
H 	H 	0.49040 0.56280 0.38340 0.22000
H 	H 	0.50780 0.57150 0.31610 0.22900
H 	H 	0.55670 0.57720 0.36600 0.23400
N 	N 	0.57330 0.53340 0.18710 -0.30500
N 	N 	0.51020 0.55130 0.11600 -0.31600
N 	N 	0.57360 0.59260 0.17220 -0.09700
N 	N 	0.53790 0.60080 0.12780 -0.10300
C 	C 	0.53360 0.50790 0.15100 0.27000
C 	C 	0.52100 0.44350 0.14590 -0.80500
H 	H 	0.49040 0.43720 0.11660 0.21400
H 	H 	0.50780 0.42850 0.18390 0.22600
H 	H 	0.55670 0.42280 0.13400 0.22800
N 	N 	0.07330 0.03340 0.68710 -0.31100
N 	N 	0.01020 0.05130 0.61600 -0.32800
N 	N 	0.07360 0.09260 0.67220 -0.10100
N 	N 	0.03790 0.10080 0.62780 -0.10800
C 	C 	0.03360 0.00790 0.65100 0.25500
C 	C 	0.02100 0.94350 0.64590 -0.86700
H 	H 	0.99040 0.93720 0.61660 0.26300
H 	H 	0.00780 0.92850 0.68390 0.24400
H 	H 	0.05670 0.92280 0.63400 0.25100
N 	N 	0.92670 0.46660 0.68710 -0.29700
N 	N 	0.98980 0.44870 0.61600 -0.29800
N 	N 	0.92640 0.40740 0.67220 -0.09300
N 	N 	0.96210 0.39920 0.62780 -0.09500
C 	C 	0.96640 0.49210 0.65100 0.24400
C 	C 	0.97900 0.55650 0.64590 -0.67200
H 	H 	0.00960 0.56280 0.61660 0.15700
H 	H 	0.99220 0.57150 0.68390 0.19700
H 	H 	0.94330 0.57720 0.63400 0.19800
N 	N 	0.42670 0.96660 0.18710 -0.30400
N 	N 	0.48980 0.94870 0.11600 -0.31900
N 	N 	0.42640 0.90740 0.17220 -0.09500
N 	N 	0.46210 0.89920 0.12780 -0.10200
C 	C 	0.46640 0.99210 0.15100 0.31900
C 	C 	0.47900 0.05650 0.14590 -0.89300
H 	H 	0.50960 0.06280 0.11660 0.23400
H 	H 	0.49220 0.07150 0.18390 0.24700
H 	H 	0.44330 0.07720 0.13400 0.24900
N 	N 	0.42670 0.03340 0.31290 -0.30300
N 	N 	0.48980 0.05130 0.38400 -0.31100
N 	N 	0.42640 0.09260 0.32780 -0.09800
N 	N 	0.46210 0.10080 0.37220 -0.10300
C 	C 	0.46640 0.00790 0.34900 0.22500
C 	C 	0.47900 0.94350 0.35410 -0.72500
H 	H 	0.50960 0.93720 0.38340 0.20000
H 	H 	0.49220 0.92850 0.31610 0.20900
H 	H 	0.44330 0.92280 0.36600 0.21400
N 	N 	0.92670 0.53340 0.81290 -0.29800
N 	N 	0.98980 0.55130 0.88400 -0.29600
N 	N 	0.92640 0.59260 0.82780 -0.09200
N 	N 	0.96210 0.60080 0.87220 -0.09300
C 	C 	0.96640 0.50790 0.84900 0.24800
C 	C 	0.97900 0.44350 0.85410 -0.68000
H 	H 	0.00960 0.43720 0.88340 0.16200
H 	H 	0.99220 0.42850 0.81610 0.19900
H 	H 	0.94330 0.42280 0.86600 0.20200
Zn	Zn	0.50000 0.75000 0.87500 1.17800
Zn	Zn	-0.00000 0.25000 0.37500 1.16800
Zn	Zn	0.50000 0.25000 0.62500 1.17700
Zn	Zn	0.00000 0.75000 0.12500 1.16800
Zn	Zn	0.87500 0.50000 0.75000 1.17800
Zn	Zn	0.37500 0.00000 0.25000 1.16800
Zn	Zn	0.62500 0.50000 0.25000 1.17700
Zn	Zn	0.12500 0.00000 0.75000 1.16800
Zn	Zn	0.75000 0.87500 0.50000 1.17800
Zn	Zn	0.25000 0.37500 -0.00000 1.16800
Zn	Zn	0.25000 0.62500 0.50000 1.17700
Zn	Zn	0.75000 0.12500 -0.00000 1.16800
Zn	Zn	0.69677 0.69677 0.69677 1.13900
Zn	Zn	0.19677 0.19677 0.19677 1.13500
Zn	Zn	0.80323 0.30323 0.19677 1.13800
Zn	Zn	0.30323 0.80323 0.69677 1.13900
Zn	Zn	0.30323 0.19677 0.80323 1.13800
Zn	Zn	0.80323 0.69677 0.30323 1.13900
Zn	Zn	0.19677 0.80323 0.30323 1.13800
Zn	Zn	0.69677 0.30323 0.80323 1.13900
Zn	Zn	0.94677 0.94677 0.94677 1.15600
Zn	Zn	0.44677 0.44677 0.44677 1.13800
Zn	Zn	0.55323 0.05323 0.44677 1.13200
Zn	Zn	0.05323 0.55323 0.94677 1.13900
Zn	Zn	0.44677 0.55323 0.05323 1.13200
Zn	Zn	0.94677 0.05323 0.55323 1.13900
Zn	Zn	0.05323 0.44677 0.55323 1.13200
Zn	Zn	0.55323 0.94677 0.05323 1.13900
