data_crystal

_cell_length_a 16.67900
_cell_length_b 16.67900
_cell_length_c 19.05000
_cell_angle_alpha 90.00000
_cell_angle_beta  90.00000
_cell_angle_gamma 120.00000

_symmetry_space_group_name_	'P 1'
_symmetry_space_group_name_H-M	'P 1'

loop_
_symmetry_equiv_pos_as_xyz
  x,y,z

loop_
_atom_site_label
_atom_site_type_symbol
_atom_site_fract_x
_atom_site_fract_y
_atom_site_fract_z
_atom_site_charge
O 	O 	0.48370 0.65170 0.72140 -0.42100
N 	N 	0.55100 0.36530 0.37570 -0.21500
C 	C 	0.50460 0.36690 0.43120 0.11100
H 	H 	0.44480 0.31860 0.44430 -0.01900
C 	C 	0.66260 0.76150 0.80900 0.06500
H 	H 	0.62910 0.69580 0.81070 0.00100
C 	C 	0.75770 0.80680 0.81030 -0.11100
H 	H 	0.78930 0.77260 0.80990 0.07700
C 	C 	0.43920 0.41980 0.55530 -0.21800
H 	H 	0.39890 0.36110 0.53490 0.10700
C 	C 	0.41150 0.45180 0.61260 0.13000
H 	H 	0.35210 0.41260 0.63240 0.00400
O 	O 	0.34830 0.83200 0.72140 -0.42000
N 	N 	0.63470 0.18570 0.37570 -0.21400
C 	C 	0.63310 0.13770 0.43120 0.11200
H 	H 	0.68140 0.12620 0.44430 -0.01800
C 	C 	0.23850 0.90110 0.80900 0.06600
H 	H 	0.30420 0.93330 0.81070 0.00200
C 	C 	0.19320 0.95090 0.81030 -0.11300
H 	H 	0.22740 0.01670 0.80990 0.07800
C 	C 	0.58020 0.01940 0.55530 -0.21600
H 	H 	0.63890 0.03780 0.53490 0.10600
C 	C 	0.54820 0.95970 0.61260 0.12900
H 	H 	0.58740 0.93950 0.63240 0.00500
O 	O 	0.16800 0.51630 0.72140 -0.42000
N 	N 	0.81430 0.44900 0.37570 -0.21400
C 	C 	0.86230 0.49540 0.43120 0.11200
H 	H 	0.87380 0.55520 0.44430 -0.01800
C 	C 	0.09890 0.33740 0.80900 0.06600
H 	H 	0.06670 0.37090 0.81070 0.00200
C 	C 	0.04910 0.24230 0.81030 -0.11200
H 	H 	0.98330 0.21070 0.80990 0.07700
C 	C 	0.98060 0.56080 0.55530 -0.21600
H 	H 	0.96220 0.60110 0.53490 0.10600
C 	C 	0.04030 0.58850 0.61260 0.12900
H 	H 	0.06050 0.64790 0.63240 0.00500
O 	O 	0.51630 0.34830 0.22140 -0.42000
N 	N 	0.44900 0.63470 0.87570 -0.21300
C 	C 	0.49540 0.63310 0.93120 0.11300
H 	H 	0.55520 0.68140 0.94430 -0.01400
C 	C 	0.33740 0.23850 0.30900 0.06400
H 	H 	0.37090 0.30420 0.31070 0.00200
C 	C 	0.24230 0.19320 0.31030 -0.11100
H 	H 	0.21070 0.22740 0.30990 0.07500
C 	C 	0.56080 0.58020 0.05530 -0.20800
H 	H 	0.60110 0.63890 0.03490 0.09900
C 	C 	0.58850 0.54820 0.11260 0.12100
H 	H 	0.64790 0.58740 0.13240 0.00600
O 	O 	0.65170 0.16800 0.22140 -0.42000
N 	N 	0.36530 0.81430 0.87570 -0.21300
C 	C 	0.36690 0.86230 0.93120 0.11300
H 	H 	0.31860 0.87380 0.94430 -0.01500
C 	C 	0.76150 0.09890 0.30900 0.06400
H 	H 	0.69580 0.06670 0.31070 0.00200
C 	C 	0.80680 0.04910 0.31030 -0.11000
H 	H 	0.77260 0.98330 0.30990 0.07500
C 	C 	0.41980 0.98060 0.05530 -0.20900
H 	H 	0.36110 0.96220 0.03490 0.09900
C 	C 	0.45180 0.04030 0.11260 0.12300
H 	H 	0.41260 0.06050 0.13240 0.00600
O 	O 	0.83200 0.48370 0.22140 -0.42000
N 	N 	0.18570 0.55100 0.87570 -0.21300
C 	C 	0.13770 0.50460 0.93120 0.11300
H 	H 	0.12620 0.44480 0.94430 -0.01500
C 	C 	0.90110 0.66260 0.30900 0.06400
H 	H 	0.93330 0.62910 0.31070 0.00200
C 	C 	0.95090 0.75770 0.31030 -0.11000
H 	H 	0.01670 0.78930 0.30990 0.07500
C 	C 	0.01940 0.43920 0.05530 -0.20900
H 	H 	0.03780 0.39890 0.03490 0.09900
C 	C 	0.95970 0.41150 0.11260 0.12300
H 	H 	0.93950 0.35210 0.13240 0.00600
O 	O 	0.34830 0.51630 0.72140 -0.42000
N 	N 	0.63470 0.44900 0.37570 -0.21400
C 	C 	0.63310 0.49540 0.43120 0.11200
H 	H 	0.68140 0.55520 0.44430 -0.01800
C 	C 	0.23850 0.33740 0.80900 0.06600
H 	H 	0.30420 0.37090 0.81070 0.00200
C 	C 	0.19320 0.24230 0.81030 -0.11100
H 	H 	0.22740 0.21070 0.80990 0.07700
C 	C 	0.58020 0.56080 0.55530 -0.21800
H 	H 	0.63890 0.60110 0.53490 0.10700
C 	C 	0.54820 0.58850 0.61260 0.13000
H 	H 	0.58740 0.64790 0.63240 0.00400
O 	O 	0.16800 0.65170 0.72140 -0.42000
N 	N 	0.81430 0.36530 0.37570 -0.21400
C 	C 	0.86230 0.36690 0.43120 0.11200
H 	H 	0.87380 0.31860 0.44430 -0.01800
C 	C 	0.09890 0.76150 0.80900 0.06600
H 	H 	0.06670 0.69580 0.81070 0.00200
C 	C 	0.04910 0.80680 0.81030 -0.11300
H 	H 	0.98330 0.77260 0.80990 0.07800
C 	C 	0.98060 0.41980 0.55530 -0.21600
H 	H 	0.96220 0.36110 0.53490 0.10600
C 	C 	0.04030 0.45180 0.61260 0.12900
H 	H 	0.06050 0.41260 0.63240 0.00500
O 	O 	0.48370 0.83200 0.72140 -0.42000
N 	N 	0.55100 0.18570 0.37570 -0.21400
C 	C 	0.50460 0.13770 0.43120 0.11200
H 	H 	0.44480 0.12620 0.44430 -0.01800
C 	C 	0.66260 0.90110 0.80900 0.06600
H 	H 	0.62910 0.93330 0.81070 0.00200
C 	C 	0.75770 0.95090 0.81030 -0.11200
H 	H 	0.78930 0.01670 0.80990 0.07700
C 	C 	0.43920 0.01940 0.55530 -0.21600
H 	H 	0.39890 0.03780 0.53490 0.10600
C 	C 	0.41150 0.95970 0.61260 0.12900
H 	H 	0.35210 0.93950 0.63240 0.00500
O 	O 	0.65170 0.48370 0.22140 -0.42000
N 	N 	0.36530 0.55100 0.87570 -0.21300
C 	C 	0.36690 0.50460 0.93120 0.11300
H 	H 	0.31860 0.44480 0.94430 -0.01400
C 	C 	0.76150 0.66260 0.30900 0.06400
H 	H 	0.69580 0.62910 0.31070 0.00200
C 	C 	0.80680 0.75770 0.31030 -0.11100
H 	H 	0.77260 0.78930 0.30990 0.07500
C 	C 	0.41980 0.43920 0.05530 -0.20800
H 	H 	0.36110 0.39890 0.03490 0.09900
C 	C 	0.45180 0.41150 0.11260 0.12100
H 	H 	0.41260 0.35210 0.13240 0.00600
O 	O 	0.83200 0.34830 0.22140 -0.42000
N 	N 	0.18570 0.63470 0.87570 -0.21300
C 	C 	0.13770 0.63310 0.93120 0.11300
H 	H 	0.12620 0.68140 0.94430 -0.01500
C 	C 	0.90110 0.23850 0.30900 0.06400
H 	H 	0.93330 0.30420 0.31070 0.00200
C 	C 	0.95090 0.19320 0.31030 -0.11000
H 	H 	0.01670 0.22740 0.30990 0.07500
C 	C 	0.01940 0.58020 0.05530 -0.20900
H 	H 	0.03780 0.63890 0.03490 0.09900
C 	C 	0.95970 0.54820 0.11260 0.12300
H 	H 	0.93950 0.58740 0.13240 0.00600
O 	O 	0.51630 0.16800 0.22140 -0.42000
N 	N 	0.44900 0.81430 0.87570 -0.21300
C 	C 	0.49540 0.86230 0.93120 0.11300
H 	H 	0.55520 0.87380 0.94430 -0.01500
C 	C 	0.33740 0.09890 0.30900 0.06400
H 	H 	0.37090 0.06670 0.31070 0.00200
C 	C 	0.24230 0.04910 0.31030 -0.11000
H 	H 	0.21070 0.98330 0.30990 0.07500
C 	C 	0.56080 0.98060 0.05530 -0.20900
H 	H 	0.60110 0.96220 0.03490 0.09900
C 	C 	0.58850 0.04030 0.11260 0.12300
H 	H 	0.64790 0.06050 0.13240 0.00600
Co	Co	0.47093 0.73547 0.79685 1.16100
N 	N 	0.61550 0.80775 0.80510 -0.23100
C 	C 	0.80790 0.90395 0.81230 0.04700
C 	C 	0.91110 0.95555 0.81310 0.10300
Co	Co	0.26453 0.73547 0.79685 1.16100
N 	N 	0.19225 0.80775 0.80510 -0.23100
C 	C 	0.09605 0.90395 0.81230 0.04800
C 	C 	0.04445 0.95555 0.81310 0.10200
Co	Co	0.26453 0.52907 0.79685 1.16100
N 	N 	0.19225 0.38450 0.80510 -0.23100
C 	C 	0.09605 0.19210 0.81230 0.04700
C 	C 	0.04445 0.08890 0.81310 0.10300
Co	Co	0.52907 0.26453 0.29685 1.16000
N 	N 	0.38450 0.19225 0.30510 -0.23100
C 	C 	0.19210 0.09605 0.31230 0.04500
C 	C 	0.08890 0.04445 0.31310 0.10200
Co	Co	0.73547 0.26453 0.29685 1.16000
N 	N 	0.80775 0.19225 0.30510 -0.23100
C 	C 	0.90395 0.09605 0.31230 0.04400
C 	C 	0.95555 0.04445 0.31310 0.10300
Co	Co	0.73547 0.47093 0.29685 1.16000
N 	N 	0.80775 0.61550 0.30510 -0.23100
C 	C 	0.90395 0.80790 0.31230 0.04500
C 	C 	0.95555 0.91110 0.31310 0.10200
O 	O 	0.33333 0.66667 0.77660 -0.59300
O 	O 	0.66667 0.33333 0.27660 -0.59400
C 	C 	0.42930 0.57070 0.69950 0.40100
N 	N 	0.55370 0.44630 0.46640 -0.17100
C 	C 	0.46480 0.53520 0.64110 -0.18900
C 	C 	0.52520 0.47480 0.52960 0.19300
C 	C 	0.42930 0.85860 0.69950 0.40000
N 	N 	0.55370 0.10740 0.46640 -0.17100
C 	C 	0.46480 0.92960 0.64110 -0.18800
C 	C 	0.52520 0.05040 0.52960 0.19200
C 	C 	0.14140 0.57070 0.69950 0.40000
N 	N 	0.89260 0.44630 0.46640 -0.17100
C 	C 	0.07040 0.53520 0.64110 -0.18800
C 	C 	0.94960 0.47480 0.52960 0.19200
C 	C 	0.57070 0.42930 0.19950 0.39800
N 	N 	0.44630 0.55370 0.96640 -0.16300
C 	C 	0.53520 0.46480 0.14110 -0.18300
C 	C 	0.47480 0.52520 0.02960 0.17500
C 	C 	0.57070 0.14140 0.19950 0.39800
N 	N 	0.44630 0.89260 0.96640 -0.16300
C 	C 	0.53520 0.07040 0.14110 -0.18400
C 	C 	0.47480 0.94960 0.02960 0.17600
C 	C 	0.85860 0.42930 0.19950 0.39800
N 	N 	0.10740 0.55370 0.96640 -0.16300
C 	C 	0.92960 0.46480 0.14110 -0.18400
C 	C 	0.05040 0.52520 0.02960 0.17600
N 	N 	0.95215 0.90430 0.81430 -0.14000
N 	N 	0.09570 0.04785 0.81430 -0.14000
N 	N 	0.95215 0.04785 0.81430 -0.14000
N 	N 	0.04785 0.09570 0.31430 -0.14200
N 	N 	0.90430 0.95215 0.31430 -0.14200
N 	N 	0.04785 0.95215 0.31430 -0.14200
