data_crystal

_cell_length_a 47.23300
_cell_length_b 11.45710
_cell_length_c 25.45500
_cell_angle_alpha 90.00000
_cell_angle_beta  119.85600
_cell_angle_gamma 90.00000

_symmetry_space_group_name_	'P 1'
_symmetry_space_group_name_H-M	'P 1'

loop_
_symmetry_equiv_pos_as_xyz
  x,y,z

loop_
_atom_site_label
_atom_site_type_symbol
_atom_site_fract_x
_atom_site_fract_y
_atom_site_fract_z
_atom_site_charge
Zn	Zn	0.23134 0.04570 0.24984 1.20800
S 	S 	0.05801 0.41890 0.01218 0.27500
S 	S 	0.18607 0.67850 0.49064 0.27600
O 	O 	0.01357 0.64530 0.20310 -0.46900
O 	O 	0.03780 0.80020 0.19020 -0.32600
O 	O 	0.06640 0.50050 0.97940 -0.23000
O 	O 	0.03230 0.33390 0.98040 -0.22700
O 	O 	0.17427 0.03590 0.18150 -0.35500
O 	O 	0.20490 0.19380 0.20590 -0.41400
O 	O 	0.20970 0.05910 0.31720 -0.35600
O 	O 	0.22822 0.90160 0.29420 -0.41600
O 	O 	0.21150 0.59290 0.52230 -0.22500
O 	O 	0.17810 0.76060 0.52380 -0.22700
O 	O 	0.03859 0.46310 0.29910 -0.45100
O 	O 	0.06850 0.30430 0.30880 -0.31500
N 	N 	0.22410 0.39360 0.68520 -0.27300
N 	N 	0.14480 0.21260 0.54950 -0.12500
N 	N 	0.10030 0.06260 0.45510 -0.12500
N 	N 	0.03330 0.84180 0.31700 -0.27600
N 	N 	0.24070 0.98530 0.18440 -0.27000
N 	N 	0.24920 0.81430 0.04690 -0.12200
N 	N 	0.99550 0.05530 0.04550 -0.12100
N 	N 	0.99830 0.26110 0.18310 -0.27200
C 	C 	0.21110 0.29960 0.69660 0.09800
H 	H 	0.22100 0.27290 0.73730 -0.00900
C 	C 	0.18440 0.23890 0.65360 -0.19100
H 	H 	0.17610 0.17380 0.66480 0.10600
C 	C 	0.16980 0.27450 0.59370 0.16900
C 	C 	0.18250 0.37540 0.58160 -0.19000
H 	H 	0.17230 0.40720 0.54190 0.10300
C 	C 	0.20940 0.42730 0.62700 0.10800
H 	H 	0.21850 0.49170 0.61690 0.00300
C 	C 	0.12610 0.25560 0.48660 -0.04900
H 	H 	0.13940 0.31300 0.47920 0.04600
H 	H 	0.10610 0.29540 0.48050 0.06100
C 	C 	0.12790 0.11970 0.56130 -0.04700
H 	H 	0.10820 0.15250 0.56040 0.04800
H 	H 	0.14230 0.08860 0.60250 0.05900
C 	C 	0.11790 0.02370 0.51780 -0.04400
H 	H 	0.13760 0.98030 0.52470 0.06000
H 	H 	0.10400 0.96930 0.52500 0.04400
C 	C 	0.11690 0.15760 0.44250 -0.04900
H 	H 	0.10240 0.18750 0.40110 0.05600
H 	H 	0.13690 0.12640 0.44410 0.05000
C 	C 	0.07950 0.99100 0.41020 0.16100
C 	C 	0.06500 0.89270 0.42170 -0.17400
H 	H 	0.07130 0.87360 0.46230 0.09700
C 	C 	0.04220 0.82420 0.37540 0.09600
H 	H 	0.03240 0.76180 0.38530 0.00300
C 	C 	0.04740 0.93420 0.30580 0.10300
H 	H 	0.04160 0.94920 0.26490 -0.01300
C 	C 	0.06940 0.00730 0.34940 -0.18900
H 	H 	0.07790 0.07090 0.33780 0.10500
C 	C 	0.02990 0.69780 0.18320 0.35000
C 	C 	0.03730 0.62540 0.14100 -0.08100
C 	C 	0.02420 0.51490 0.12210 0.02600
H 	H 	0.01110 0.48230 0.13710 0.03000
C 	C 	0.02970 0.45050 0.08160 -0.06600
H 	H 	0.02000 0.37600 0.06760 0.06600
C 	C 	0.04970 0.49920 0.06270 -0.00300
C 	C 	0.06380 0.60780 0.08120 -0.06300
H 	H 	0.07780 0.63790 0.06770 0.05800
C 	C 	0.05700 0.67350 0.12050 0.00800
H 	H 	0.06570 0.74980 0.13270 0.03800
C 	C 	0.09350 0.34030 0.06100 -0.01300
C 	C 	0.09020 0.23490 0.08430 -0.05900
H 	H 	0.06920 0.20710 0.07440 0.05800
C 	C 	0.11780 0.17060 0.12200 -0.00400
H 	H 	0.11590 0.09650 0.13670 0.04300
C 	C 	0.14810 0.21550 0.13780 -0.06900
C 	C 	0.15100 0.32200 0.11590 0.00500
H 	H 	0.17210 0.35220 0.12780 0.05100
C 	C 	0.12320 0.38640 0.07640 -0.05400
H 	H 	0.12510 0.45960 0.06080 0.06300
C 	C 	0.17770 0.14420 0.17790 0.30800
C 	C 	0.25920 0.89090 0.19540 0.10100
H 	H 	0.27120 0.86350 0.23600 -0.01000
C 	C 	0.26190 0.83120 0.15190 -0.18500
H 	H 	0.27500 0.76270 0.16260 0.10300
C 	C 	0.24590 0.86870 0.09190 0.15500
C 	C 	0.22780 0.97360 0.08100 -0.17100
H 	H 	0.21730 0.00770 0.04180 0.09500
C 	C 	0.22540 0.02510 0.12680 0.09600
H 	H 	0.21230 0.09320 0.11770 0.00500
C 	C 	0.23010 0.85060 0.98480 -0.03200
H 	H 	0.22910 0.93690 0.98320 0.04500
H 	H 	0.20760 0.82070 0.96800 0.04500
C 	C 	0.25670 0.69020 0.05200 -0.06200
H 	H 	0.27250 0.67230 0.09490 0.06400
H 	H 	0.23640 0.64610 0.04090 0.06600
C 	C 	0.21550 0.95350 0.32160 0.30600
C 	C 	0.20760 0.88030 0.36230 -0.05800
C 	C 	0.18670 0.92770 0.38020 -0.01200
H 	H 	0.17700 0.00210 0.36580 0.04700
C 	C 	0.18020 0.86460 0.41970 -0.05000
H 	H 	0.16570 0.89490 0.43210 0.05400
C 	C 	0.19510 0.75610 0.44120 -0.01800
C 	C 	0.21560 0.71080 0.42340 -0.04600
H 	H 	0.22580 0.63760 0.43880 0.06100
C 	C 	0.22170 0.77180 0.38250 -0.00100
H 	H 	0.23530 0.73900 0.36880 0.05200
C 	C 	0.15030 0.59970 0.44130 -0.00800
C 	C 	0.12050 0.64450 0.42560 -0.06500
H 	H 	0.11870 0.71690 0.44190 0.06700
C 	C 	0.09280 0.58370 0.38560 0.01900
H 	H 	0.07190 0.61490 0.37440 0.03700
C 	C 	0.09510 0.47870 0.36190 -0.08400
C 	C 	0.12620 0.43470 0.37880 0.00500
H 	H 	0.12800 0.36220 0.36260 0.03900
C 	C 	0.15360 0.49300 0.41760 -0.06700
H 	H 	0.17460 0.46270 0.42860 0.06200
C 	C 	0.06560 0.40800 0.32020 0.32300
C 	C 	0.01740 0.16920 0.19530 0.11100
H 	H 	0.03260 0.15250 0.23650 -0.01800
C 	C 	0.01670 0.09620 0.15170 -0.20600
H 	H 	0.03060 0.03010 0.16390 0.11100
C 	C 	0.99580 0.11690 0.09010 0.17900
C 	C 	0.97540 0.21520 0.07820 -0.17900
H 	H 	0.96000 0.23480 0.03750 0.09800
C 	C 	0.97740 0.28350 0.12500 0.10400
H 	H 	0.96330 0.34880 0.11510 -0.00000
C 	C 	0.01150 0.93830 0.05670 -0.10000
H 	H 	0.02840 0.93110 0.09990 0.06900
H 	H 	0.99510 0.87620 0.04710 0.08800
C 	C 	0.97330 0.07580 0.98140 -0.03300
H 	H 	0.96450 0.15600 0.97620 0.04000
H 	H 	0.95470 0.02100 0.96720 0.04500
Zn	Zn	0.73134 0.54570 0.24984 1.20900
S 	S 	0.55801 0.91890 0.01218 0.27500
S 	S 	0.68607 0.17850 0.49064 0.27800
O 	O 	0.51357 0.14530 0.20310 -0.46600
O 	O 	0.53780 0.30020 0.19020 -0.32400
O 	O 	0.56640 0.00050 0.97940 -0.22700
O 	O 	0.53230 0.83390 0.98040 -0.22400
O 	O 	0.67427 0.53590 0.18150 -0.35500
O 	O 	0.70490 0.69380 0.20590 -0.41400
O 	O 	0.70970 0.55910 0.31720 -0.35600
O 	O 	0.72822 0.40160 0.29420 -0.41600
O 	O 	0.71150 0.09290 0.52230 -0.22600
O 	O 	0.67810 0.26060 0.52380 -0.22700
O 	O 	0.53859 0.96310 0.29910 -0.44900
O 	O 	0.56850 0.80430 0.30880 -0.31500
N 	N 	0.72410 0.89360 0.68520 -0.27300
N 	N 	0.64480 0.71260 0.54950 -0.12600
N 	N 	0.60030 0.56260 0.45510 -0.12500
N 	N 	0.53330 0.34180 0.31700 -0.27500
N 	N 	0.74070 0.48530 0.18440 -0.27200
N 	N 	0.74920 0.31430 0.04690 -0.12300
N 	N 	0.49550 0.55530 0.04550 -0.12800
N 	N 	0.49830 0.76110 0.18310 -0.27700
C 	C 	0.71110 0.79960 0.69660 0.09800
H 	H 	0.72100 0.77290 0.73730 -0.00900
C 	C 	0.68440 0.73890 0.65360 -0.19100
H 	H 	0.67610 0.67380 0.66480 0.10500
C 	C 	0.66980 0.77450 0.59370 0.16800
C 	C 	0.68250 0.87540 0.58160 -0.19000
H 	H 	0.67230 0.90720 0.54190 0.10300
C 	C 	0.70940 0.92730 0.62700 0.10700
H 	H 	0.71850 0.99170 0.61690 0.00300
C 	C 	0.62610 0.75560 0.48660 -0.04900
H 	H 	0.63940 0.81300 0.47920 0.04600
H 	H 	0.60610 0.79540 0.48050 0.06100
C 	C 	0.62790 0.61970 0.56130 -0.04600
H 	H 	0.60820 0.65250 0.56040 0.04800
H 	H 	0.64230 0.58860 0.60250 0.05800
C 	C 	0.61790 0.52370 0.51780 -0.04600
H 	H 	0.63760 0.48030 0.52470 0.06100
H 	H 	0.60400 0.46930 0.52500 0.04500
C 	C 	0.61690 0.65760 0.44250 -0.04900
H 	H 	0.60240 0.68750 0.40110 0.05600
H 	H 	0.63690 0.62640 0.44410 0.05000
C 	C 	0.57950 0.49100 0.41020 0.16100
C 	C 	0.56500 0.39270 0.42170 -0.17400
H 	H 	0.57130 0.37360 0.46230 0.09700
C 	C 	0.54220 0.32420 0.37540 0.09600
H 	H 	0.53240 0.26180 0.38530 0.00500
C 	C 	0.54740 0.43420 0.30580 0.10400
H 	H 	0.54160 0.44920 0.26490 -0.01300
C 	C 	0.56940 0.50730 0.34940 -0.19000
H 	H 	0.57790 0.57090 0.33780 0.10600
C 	C 	0.52990 0.19780 0.18320 0.34900
C 	C 	0.53730 0.12540 0.14100 -0.07900
C 	C 	0.52420 0.01490 0.12210 0.02300
H 	H 	0.51110 0.98230 0.13710 0.03400
C 	C 	0.52970 0.95050 0.08160 -0.06300
H 	H 	0.52000 0.87600 0.06760 0.06700
C 	C 	0.54970 0.99920 0.06270 -0.00200
C 	C 	0.56380 0.10780 0.08120 -0.06300
H 	H 	0.57780 0.13790 0.06770 0.05800
C 	C 	0.55700 0.17350 0.12050 0.00700
H 	H 	0.56570 0.24980 0.13270 0.03900
C 	C 	0.59350 0.84030 0.06100 -0.01300
C 	C 	0.59020 0.73490 0.08430 -0.05900
H 	H 	0.56920 0.70710 0.07440 0.05900
C 	C 	0.61780 0.67060 0.12200 -0.00400
H 	H 	0.61590 0.59650 0.13670 0.04300
C 	C 	0.64810 0.71550 0.13780 -0.07000
C 	C 	0.65100 0.82200 0.11590 0.00500
H 	H 	0.67210 0.85220 0.12780 0.05100
C 	C 	0.62320 0.88640 0.07640 -0.05400
H 	H 	0.62510 0.95960 0.06080 0.06300
C 	C 	0.67770 0.64420 0.17790 0.30700
C 	C 	0.75920 0.39090 0.19540 0.10100
H 	H 	0.77120 0.36350 0.23600 -0.01000
C 	C 	0.76190 0.33120 0.15190 -0.18600
H 	H 	0.77500 0.26270 0.16260 0.10400
C 	C 	0.74590 0.36870 0.09190 0.15700
C 	C 	0.72780 0.47360 0.08100 -0.17700
H 	H 	0.71730 0.50770 0.04180 0.09800
C 	C 	0.72540 0.52510 0.12680 0.10100
H 	H 	0.71230 0.59320 0.11770 0.00400
C 	C 	0.73010 0.35060 0.98480 -0.03100
H 	H 	0.72910 0.43690 0.98320 0.04500
H 	H 	0.70760 0.32070 0.96800 0.04500
C 	C 	0.75670 0.19020 0.05200 -0.06200
H 	H 	0.77250 0.17230 0.09490 0.06400
H 	H 	0.73640 0.14610 0.04090 0.06600
C 	C 	0.71550 0.45350 0.32160 0.30600
C 	C 	0.70760 0.38030 0.36230 -0.05800
C 	C 	0.68670 0.42770 0.38020 -0.01200
H 	H 	0.67700 0.50210 0.36580 0.04700
C 	C 	0.68020 0.36460 0.41970 -0.05000
H 	H 	0.66570 0.39490 0.43210 0.05400
C 	C 	0.69510 0.25610 0.44120 -0.01800
C 	C 	0.71560 0.21080 0.42340 -0.04600
H 	H 	0.72580 0.13760 0.43880 0.06100
C 	C 	0.72170 0.27180 0.38250 -0.00100
H 	H 	0.73530 0.23900 0.36880 0.05200
C 	C 	0.65030 0.09970 0.44130 -0.00900
C 	C 	0.62050 0.14450 0.42560 -0.06400
H 	H 	0.61870 0.21690 0.44190 0.06600
C 	C 	0.59280 0.08370 0.38560 0.01700
H 	H 	0.57190 0.11490 0.37440 0.03800
C 	C 	0.59510 0.97870 0.36190 -0.08200
C 	C 	0.62620 0.93470 0.37880 0.00400
H 	H 	0.62800 0.86220 0.36260 0.04000
C 	C 	0.65360 0.99300 0.41760 -0.06500
H 	H 	0.67460 0.96270 0.42860 0.06100
C 	C 	0.56560 0.90800 0.32020 0.32200
C 	C 	0.51740 0.66920 0.19530 0.11700
H 	H 	0.53260 0.65250 0.23650 -0.01800
C 	C 	0.51670 0.59620 0.15170 -0.19700
H 	H 	0.53060 0.53010 0.16390 0.10900
C 	C 	0.49580 0.61690 0.09010 0.17000
C 	C 	0.47540 0.71520 0.07820 -0.17700
H 	H 	0.46000 0.73480 0.03750 0.09700
C 	C 	0.47740 0.78350 0.12500 0.10100
H 	H 	0.46330 0.84880 0.11510 -0.00000
C 	C 	0.51150 0.43830 0.05670 -0.07400
H 	H 	0.52840 0.43110 0.09990 0.06200
H 	H 	0.49510 0.37620 0.04710 0.07500
C 	C 	0.47330 0.57580 0.98140 -0.02100
H 	H 	0.46450 0.65600 0.97620 0.03600
H 	H 	0.45470 0.52100 0.96720 0.04200
Zn	Zn	0.76866 0.04570 0.25016 1.20900
S 	S 	0.94199 0.41890 0.48782 0.27500
S 	S 	0.81393 0.67850 0.00936 0.27900
O 	O 	0.98643 0.64530 0.29690 -0.46100
O 	O 	0.96220 0.80020 0.30980 -0.32200
O 	O 	0.93360 0.50050 0.52060 -0.22600
O 	O 	0.96770 0.33390 0.51960 -0.22100
O 	O 	0.82573 0.03590 0.31850 -0.35500
O 	O 	0.79510 0.19380 0.29410 -0.41400
O 	O 	0.79030 0.05910 0.18280 -0.35700
O 	O 	0.77178 0.90160 0.20580 -0.41600
O 	O 	0.78850 0.59290 0.97770 -0.22600
O 	O 	0.82190 0.76060 0.97620 -0.22800
O 	O 	0.96141 0.46310 0.20090 -0.44600
O 	O 	0.93150 0.30430 0.19120 -0.31400
N 	N 	0.77590 0.39360 0.81480 -0.27300
N 	N 	0.85520 0.21260 0.95050 -0.12500
N 	N 	0.89970 0.06260 0.04490 -0.12600
N 	N 	0.96670 0.84180 0.18300 -0.27300
N 	N 	0.75930 0.98530 0.31560 -0.27100
N 	N 	0.75080 0.81430 0.45310 -0.12200
N 	N 	0.00450 0.05530 0.45450 -0.13400
N 	N 	0.00170 0.26110 0.31690 -0.28200
C 	C 	0.78890 0.29960 0.80340 0.09800
H 	H 	0.77900 0.27290 0.76270 -0.00900
C 	C 	0.81560 0.23890 0.84640 -0.19100
H 	H 	0.82390 0.17380 0.83520 0.10500
C 	C 	0.83020 0.27450 0.90630 0.16800
C 	C 	0.81750 0.37540 0.91840 -0.19000
H 	H 	0.82770 0.40720 0.95810 0.10300
C 	C 	0.79060 0.42730 0.87300 0.10700
H 	H 	0.78150 0.49170 0.88310 0.00300
C 	C 	0.87390 0.25560 0.01340 -0.05000
H 	H 	0.86060 0.31300 0.02080 0.04700
H 	H 	0.89390 0.29540 0.01950 0.06100
C 	C 	0.87210 0.11970 0.93870 -0.04900
H 	H 	0.89180 0.15250 0.93960 0.04900
H 	H 	0.85770 0.08860 0.89750 0.05900
C 	C 	0.88210 0.02370 0.98220 -0.04000
H 	H 	0.86240 0.98030 0.97530 0.05800
H 	H 	0.89600 0.96930 0.97500 0.04200
C 	C 	0.88310 0.15760 0.05750 -0.04800
H 	H 	0.89760 0.18750 0.09890 0.05600
H 	H 	0.86310 0.12640 0.05590 0.05000
C 	C 	0.92050 0.99100 0.08980 0.16300
C 	C 	0.93500 0.89270 0.07830 -0.17400
H 	H 	0.92870 0.87360 0.03770 0.09800
C 	C 	0.95780 0.82420 0.12460 0.09700
H 	H 	0.96760 0.76180 0.11470 0.00600
C 	C 	0.95260 0.93420 0.19420 0.10500
H 	H 	0.95840 0.94920 0.23510 -0.01200
C 	C 	0.93060 0.00730 0.15060 -0.19100
H 	H 	0.92210 0.07090 0.16220 0.10600
C 	C 	0.97010 0.69780 0.31680 0.34900
C 	C 	0.96270 0.62540 0.35900 -0.07800
C 	C 	0.97580 0.51490 0.37790 0.02700
H 	H 	0.98890 0.48230 0.36290 0.03500
C 	C 	0.97030 0.45050 0.41840 -0.06400
H 	H 	0.98000 0.37600 0.43240 0.07000
C 	C 	0.95030 0.49920 0.43730 -0.00100
C 	C 	0.93620 0.60780 0.41880 -0.06200
H 	H 	0.92220 0.63790 0.43230 0.05800
C 	C 	0.94300 0.67350 0.37950 0.00800
H 	H 	0.93430 0.74980 0.36730 0.03900
C 	C 	0.90650 0.34030 0.43900 -0.01300
C 	C 	0.90980 0.23490 0.41570 -0.05900
H 	H 	0.93080 0.20710 0.42560 0.05900
C 	C 	0.88220 0.17060 0.37800 -0.00400
H 	H 	0.88410 0.09650 0.36330 0.04300
C 	C 	0.85190 0.21550 0.36220 -0.07000
C 	C 	0.84900 0.32200 0.38410 0.00500
H 	H 	0.82790 0.35220 0.37220 0.05000
C 	C 	0.87680 0.38640 0.42360 -0.05400
H 	H 	0.87490 0.45960 0.43920 0.06300
C 	C 	0.82230 0.14420 0.32210 0.30800
C 	C 	0.74080 0.89090 0.30460 0.10100
H 	H 	0.72880 0.86350 0.26400 -0.01000
C 	C 	0.73810 0.83120 0.34810 -0.18500
H 	H 	0.72500 0.76270 0.33740 0.10300
C 	C 	0.75410 0.86870 0.40810 0.15600
C 	C 	0.77220 0.97360 0.41900 -0.17400
H 	H 	0.78270 0.00770 0.45820 0.09600
C 	C 	0.77460 0.02510 0.37320 0.09800
H 	H 	0.78770 0.09320 0.38230 0.00500
C 	C 	0.76990 0.85060 0.51520 -0.03100
H 	H 	0.77090 0.93690 0.51680 0.04500
H 	H 	0.79240 0.82070 0.53200 0.04500
C 	C 	0.74330 0.69020 0.44800 -0.06200
H 	H 	0.72750 0.67230 0.40510 0.06400
H 	H 	0.76360 0.64610 0.45910 0.06600
C 	C 	0.78450 0.95350 0.17840 0.30700
C 	C 	0.79240 0.88030 0.13770 -0.05800
C 	C 	0.81330 0.92770 0.11980 -0.01100
H 	H 	0.82300 0.00210 0.13420 0.04600
C 	C 	0.81980 0.86460 0.08030 -0.05100
H 	H 	0.83430 0.89490 0.06790 0.05400
C 	C 	0.80490 0.75610 0.05880 -0.01800
C 	C 	0.78440 0.71080 0.07660 -0.04600
H 	H 	0.77420 0.63760 0.06120 0.06100
C 	C 	0.77830 0.77180 0.11750 -0.00000
H 	H 	0.76470 0.73900 0.13120 0.05200
C 	C 	0.84970 0.59970 0.05870 -0.00900
C 	C 	0.87950 0.64450 0.07440 -0.06400
H 	H 	0.88130 0.71690 0.05810 0.06700
C 	C 	0.90720 0.58370 0.11440 0.01800
H 	H 	0.92810 0.61490 0.12560 0.03900
C 	C 	0.90490 0.47870 0.13810 -0.08300
C 	C 	0.87380 0.43470 0.12120 0.00400
H 	H 	0.87200 0.36220 0.13740 0.04000
C 	C 	0.84640 0.49300 0.08240 -0.06600
H 	H 	0.82540 0.46270 0.07140 0.06100
C 	C 	0.93440 0.40800 0.17980 0.32200
C 	C 	0.98260 0.16920 0.30470 0.12200
H 	H 	0.96740 0.15250 0.26350 -0.01900
C 	C 	0.98330 0.09620 0.34830 -0.18700
H 	H 	0.96940 0.03010 0.33610 0.10700
C 	C 	0.00420 0.11690 0.40990 0.16100
C 	C 	0.02460 0.21520 0.42180 -0.17600
H 	H 	0.04000 0.23480 0.46250 0.09600
C 	C 	0.02260 0.28350 0.37500 0.09700
H 	H 	0.03670 0.34880 0.38490 -0.00000
C 	C 	0.98850 0.93830 0.44330 -0.04700
H 	H 	0.97160 0.93110 0.40010 0.05600
H 	H 	0.00490 0.87620 0.45290 0.06200
C 	C 	0.02670 0.07580 0.51860 -0.01000
H 	H 	0.03550 0.15600 0.52380 0.03200
H 	H 	0.04530 0.02100 0.53280 0.03800
Zn	Zn	0.26866 0.54570 0.25016 1.20900
S 	S 	0.44199 0.91890 0.48782 0.27500
S 	S 	0.31393 0.17850 0.00936 0.27700
O 	O 	0.48643 0.14530 0.29690 -0.46600
O 	O 	0.46220 0.30020 0.30980 -0.32400
O 	O 	0.43360 0.00050 0.52060 -0.22700
O 	O 	0.46770 0.83390 0.51960 -0.22300
O 	O 	0.32573 0.53590 0.31850 -0.35500
O 	O 	0.29510 0.69380 0.29410 -0.41400
O 	O 	0.29030 0.55910 0.18280 -0.35600
O 	O 	0.27178 0.40160 0.20580 -0.41600
O 	O 	0.28850 0.09290 0.97770 -0.22500
O 	O 	0.32190 0.26060 0.97620 -0.22600
O 	O 	0.46141 0.96310 0.20090 -0.44900
O 	O 	0.43150 0.80430 0.19120 -0.31500
N 	N 	0.27590 0.89360 0.81480 -0.27300
N 	N 	0.35520 0.71260 0.95050 -0.12600
N 	N 	0.39970 0.56260 0.04490 -0.12500
N 	N 	0.46670 0.34180 0.18300 -0.27500
N 	N 	0.25930 0.48530 0.31560 -0.27200
N 	N 	0.25080 0.31430 0.45310 -0.12300
N 	N 	0.50450 0.55530 0.45450 -0.12800
N 	N 	0.50170 0.76110 0.31690 -0.27700
C 	C 	0.28890 0.79960 0.80340 0.09800
H 	H 	0.27900 0.77290 0.76270 -0.00900
C 	C 	0.31560 0.73890 0.84640 -0.19100
H 	H 	0.32390 0.67380 0.83520 0.10500
C 	C 	0.33020 0.77450 0.90630 0.16800
C 	C 	0.31750 0.87540 0.91840 -0.19000
H 	H 	0.32770 0.90720 0.95810 0.10300
C 	C 	0.29060 0.92730 0.87300 0.10700
H 	H 	0.28150 0.99170 0.88310 0.00200
C 	C 	0.37390 0.75560 0.01340 -0.04900
H 	H 	0.36060 0.81300 0.02080 0.04600
H 	H 	0.39390 0.79540 0.01950 0.06100
C 	C 	0.37210 0.61970 0.93870 -0.04600
H 	H 	0.39180 0.65250 0.93960 0.04800
H 	H 	0.35770 0.58860 0.89750 0.05800
C 	C 	0.38210 0.52370 0.98220 -0.04700
H 	H 	0.36240 0.48030 0.97530 0.06100
H 	H 	0.39600 0.46930 0.97500 0.04500
C 	C 	0.38310 0.65760 0.05750 -0.04900
H 	H 	0.39760 0.68750 0.09890 0.05600
H 	H 	0.36310 0.62640 0.05590 0.05000
C 	C 	0.42050 0.49100 0.08980 0.16100
C 	C 	0.43500 0.39270 0.07830 -0.17400
H 	H 	0.42870 0.37360 0.03770 0.09700
C 	C 	0.45780 0.32420 0.12460 0.09600
H 	H 	0.46760 0.26180 0.11470 0.00500
C 	C 	0.45260 0.43420 0.19420 0.10400
H 	H 	0.45840 0.44920 0.23510 -0.01300
C 	C 	0.43060 0.50730 0.15060 -0.19000
H 	H 	0.42210 0.57090 0.16220 0.10600
C 	C 	0.47010 0.19780 0.31680 0.34900
C 	C 	0.46270 0.12540 0.35900 -0.07900
C 	C 	0.47580 0.01490 0.37790 0.02400
H 	H 	0.48890 0.98230 0.36290 0.03300
C 	C 	0.47030 0.95050 0.41840 -0.06400
H 	H 	0.48000 0.87600 0.43240 0.06800
C 	C 	0.45030 0.99920 0.43730 -0.00300
C 	C 	0.43620 0.10780 0.41880 -0.06200
H 	H 	0.42220 0.13790 0.43230 0.05800
C 	C 	0.44300 0.17350 0.37950 0.00700
H 	H 	0.43430 0.24980 0.36730 0.03800
C 	C 	0.40650 0.84030 0.43900 -0.01300
C 	C 	0.40980 0.73490 0.41570 -0.05900
H 	H 	0.43080 0.70710 0.42560 0.05900
C 	C 	0.38220 0.67060 0.37800 -0.00400
H 	H 	0.38410 0.59650 0.36330 0.04300
C 	C 	0.35190 0.71550 0.36220 -0.07000
C 	C 	0.34900 0.82200 0.38410 0.00500
H 	H 	0.32790 0.85220 0.37220 0.05100
C 	C 	0.37680 0.88640 0.42360 -0.05400
H 	H 	0.37490 0.95960 0.43920 0.06300
C 	C 	0.32230 0.64420 0.32210 0.30800
C 	C 	0.24080 0.39090 0.30460 0.10100
H 	H 	0.22880 0.36350 0.26400 -0.01000
C 	C 	0.23810 0.33120 0.34810 -0.18600
H 	H 	0.22500 0.26270 0.33740 0.10400
C 	C 	0.25410 0.36870 0.40810 0.15700
C 	C 	0.27220 0.47360 0.41900 -0.17700
H 	H 	0.28270 0.50770 0.45820 0.09800
C 	C 	0.27460 0.52510 0.37320 0.10100
H 	H 	0.28770 0.59320 0.38230 0.00400
C 	C 	0.26990 0.35060 0.51520 -0.03100
H 	H 	0.27090 0.43690 0.51680 0.04500
H 	H 	0.29240 0.32070 0.53200 0.04500
C 	C 	0.24330 0.19020 0.44800 -0.06200
H 	H 	0.22750 0.17230 0.40510 0.06400
H 	H 	0.26360 0.14610 0.45910 0.06600
C 	C 	0.28450 0.45350 0.17840 0.30600
C 	C 	0.29240 0.38030 0.13770 -0.05800
C 	C 	0.31330 0.42770 0.11980 -0.01200
H 	H 	0.32300 0.50210 0.13420 0.04700
C 	C 	0.31980 0.36460 0.08030 -0.05000
H 	H 	0.33430 0.39490 0.06790 0.05400
C 	C 	0.30490 0.25610 0.05880 -0.01800
C 	C 	0.28440 0.21080 0.07660 -0.04600
H 	H 	0.27420 0.13760 0.06120 0.06000
C 	C 	0.27830 0.27180 0.11750 -0.00100
H 	H 	0.26470 0.23900 0.13120 0.05200
C 	C 	0.34970 0.09970 0.05870 -0.01000
C 	C 	0.37950 0.14450 0.07440 -0.06300
H 	H 	0.38130 0.21690 0.05810 0.06600
C 	C 	0.40720 0.08370 0.11440 0.01600
H 	H 	0.42810 0.11490 0.12560 0.03900
C 	C 	0.40490 0.97870 0.13810 -0.08100
C 	C 	0.37380 0.93470 0.12120 0.00300
H 	H 	0.37200 0.86220 0.13740 0.04000
C 	C 	0.34640 0.99300 0.08240 -0.06400
H 	H 	0.32540 0.96270 0.07140 0.06100
C 	C 	0.43440 0.90800 0.17980 0.32200
C 	C 	0.48260 0.66920 0.30470 0.11700
H 	H 	0.46740 0.65250 0.26350 -0.01800
C 	C 	0.48330 0.59620 0.34830 -0.19700
H 	H 	0.46940 0.53010 0.33610 0.10900
C 	C 	0.50420 0.61690 0.40990 0.17000
C 	C 	0.52460 0.71520 0.42180 -0.17700
H 	H 	0.54000 0.73480 0.46250 0.09700
C 	C 	0.52260 0.78350 0.37500 0.10100
H 	H 	0.53670 0.84880 0.38490 -0.00000
C 	C 	0.48850 0.43830 0.44330 -0.07400
H 	H 	0.47160 0.43110 0.40010 0.06300
H 	H 	0.50490 0.37620 0.45290 0.07500
C 	C 	0.52670 0.57580 0.51860 -0.02100
H 	H 	0.53550 0.65600 0.52380 0.03600
H 	H 	0.54530 0.52100 0.53280 0.04200
Zn	Zn	0.76866 0.95430 0.75016 1.20900
S 	S 	0.94199 0.58110 0.98782 0.27200
S 	S 	0.81393 0.32150 0.50936 0.27700
O 	O 	0.98643 0.35470 0.79690 -0.46100
O 	O 	0.96220 0.19980 0.80980 -0.32200
O 	O 	0.93360 0.49950 0.02060 -0.22500
O 	O 	0.96770 0.66610 0.01960 -0.21900
O 	O 	0.82573 0.96410 0.81850 -0.35500
O 	O 	0.79510 0.80620 0.79410 -0.41400
O 	O 	0.79030 0.94090 0.68280 -0.35600
O 	O 	0.77178 0.09840 0.70580 -0.41600
O 	O 	0.78850 0.40710 0.47770 -0.22600
O 	O 	0.82190 0.23940 0.47620 -0.22700
O 	O 	0.96141 0.53690 0.70090 -0.44600
O 	O 	0.93150 0.69570 0.69120 -0.31400
N 	N 	0.77590 0.60640 0.31480 -0.27300
N 	N 	0.85520 0.78740 0.45050 -0.12500
N 	N 	0.89970 0.93740 0.54490 -0.12500
N 	N 	0.96670 0.15820 0.68300 -0.27300
N 	N 	0.75930 0.01470 0.81560 -0.27000
N 	N 	0.75080 0.18570 0.95310 -0.12200
N 	N 	0.00450 0.94470 0.95450 -0.13500
N 	N 	0.00170 0.73890 0.81690 -0.28200
C 	C 	0.78890 0.70040 0.30340 0.09800
H 	H 	0.77900 0.72710 0.26270 -0.00900
C 	C 	0.81560 0.76110 0.34640 -0.19100
H 	H 	0.82390 0.82620 0.33520 0.10500
C 	C 	0.83020 0.72550 0.40630 0.16800
C 	C 	0.81750 0.62460 0.41840 -0.19000
H 	H 	0.82770 0.59280 0.45810 0.10300
C 	C 	0.79060 0.57270 0.37300 0.10800
H 	H 	0.78150 0.50830 0.38310 0.00300
C 	C 	0.87390 0.74440 0.51340 -0.04900
H 	H 	0.86060 0.68700 0.52080 0.04600
H 	H 	0.89390 0.70460 0.51950 0.06100
C 	C 	0.87210 0.88030 0.43870 -0.04700
H 	H 	0.89180 0.84750 0.43960 0.04800
H 	H 	0.85770 0.91140 0.39750 0.05800
C 	C 	0.88210 0.97630 0.48220 -0.04400
H 	H 	0.86240 0.01970 0.47530 0.06000
H 	H 	0.89600 0.03070 0.47500 0.04400
C 	C 	0.88310 0.84240 0.55750 -0.04900
H 	H 	0.89760 0.81250 0.59890 0.05600
H 	H 	0.86310 0.87360 0.55590 0.05000
C 	C 	0.92050 0.00900 0.58980 0.16100
C 	C 	0.93500 0.10730 0.57830 -0.17300
H 	H 	0.92870 0.12640 0.53770 0.09700
C 	C 	0.95780 0.17580 0.62460 0.09700
H 	H 	0.96760 0.23820 0.61470 0.00700
C 	C 	0.95260 0.06580 0.69420 0.10400
H 	H 	0.95840 0.05080 0.73510 -0.01200
C 	C 	0.93060 0.99270 0.65060 -0.18900
H 	H 	0.92210 0.92910 0.66220 0.10500
C 	C 	0.97010 0.30220 0.81680 0.34900
C 	C 	0.96270 0.37460 0.85900 -0.07800
C 	C 	0.97580 0.48510 0.87790 0.02700
H 	H 	0.98890 0.51770 0.86290 0.03500
C 	C 	0.97030 0.54950 0.91840 -0.06500
H 	H 	0.98000 0.62400 0.93240 0.07000
C 	C 	0.95030 0.50080 0.93730 -0.00100
C 	C 	0.93620 0.39220 0.91880 -0.06300
H 	H 	0.92220 0.36210 0.93230 0.05800
C 	C 	0.94300 0.32650 0.87950 0.00800
H 	H 	0.93430 0.25020 0.86730 0.03900
C 	C 	0.90650 0.65970 0.93900 -0.01200
C 	C 	0.90980 0.76510 0.91570 -0.06000
H 	H 	0.93080 0.79290 0.92560 0.05900
C 	C 	0.88220 0.82940 0.87800 -0.00300
H 	H 	0.88410 0.90350 0.86330 0.04300
C 	C 	0.85190 0.78450 0.86220 -0.07000
C 	C 	0.84900 0.67800 0.88410 0.00500
H 	H 	0.82790 0.64780 0.87220 0.05000
C 	C 	0.87680 0.61360 0.92360 -0.05500
H 	H 	0.87490 0.54040 0.93920 0.06300
C 	C 	0.82230 0.85580 0.82210 0.30800
C 	C 	0.74080 0.10910 0.80460 0.10000
H 	H 	0.72880 0.13650 0.76400 -0.01000
C 	C 	0.73810 0.16880 0.84810 -0.18500
H 	H 	0.72500 0.23730 0.83740 0.10300
C 	C 	0.75410 0.13130 0.90810 0.15400
C 	C 	0.77220 0.02640 0.91900 -0.17100
H 	H 	0.78270 0.99230 0.95820 0.09500
C 	C 	0.77460 0.97490 0.87320 0.09600
H 	H 	0.78770 0.90680 0.88230 0.00500
C 	C 	0.76990 0.14940 0.01520 -0.03200
H 	H 	0.77090 0.06310 0.01680 0.04500
H 	H 	0.79240 0.17930 0.03200 0.04500
C 	C 	0.74330 0.30980 0.94800 -0.06200
H 	H 	0.72750 0.32770 0.90510 0.06400
H 	H 	0.76360 0.35390 0.95910 0.06600
C 	C 	0.78450 0.04650 0.67840 0.30600
C 	C 	0.79240 0.11970 0.63770 -0.05800
C 	C 	0.81330 0.07230 0.61980 -0.01200
H 	H 	0.82300 0.99790 0.63420 0.04700
C 	C 	0.81980 0.13540 0.58030 -0.05000
H 	H 	0.83430 0.10510 0.56790 0.05400
C 	C 	0.80490 0.24390 0.55880 -0.01800
C 	C 	0.78440 0.28920 0.57660 -0.04600
H 	H 	0.77420 0.36240 0.56120 0.06100
C 	C 	0.77830 0.22820 0.61750 -0.00100
H 	H 	0.76470 0.26100 0.63120 0.05200
C 	C 	0.84970 0.40030 0.55870 -0.00800
C 	C 	0.87950 0.35550 0.57440 -0.06500
H 	H 	0.88130 0.28310 0.55810 0.06700
C 	C 	0.90720 0.41630 0.61440 0.01800
H 	H 	0.92810 0.38510 0.62560 0.03900
C 	C 	0.90490 0.52130 0.63810 -0.08300
C 	C 	0.87380 0.56530 0.62120 0.00500
H 	H 	0.87200 0.63780 0.63740 0.04000
C 	C 	0.84640 0.50700 0.58240 -0.06600
H 	H 	0.82540 0.53730 0.57140 0.06100
C 	C 	0.93440 0.59200 0.67980 0.32200
C 	C 	0.98260 0.83080 0.80470 0.12200
H 	H 	0.96740 0.84750 0.76350 -0.01900
C 	C 	0.98330 0.90380 0.84830 -0.18800
H 	H 	0.96940 0.96990 0.83610 0.10700
C 	C 	0.00420 0.88310 0.90990 0.16100
C 	C 	0.02460 0.78480 0.92180 -0.17600
H 	H 	0.04000 0.76520 0.96250 0.09600
C 	C 	0.02260 0.71650 0.87500 0.09700
H 	H 	0.03670 0.65120 0.88490 -0.00000
C 	C 	0.98850 0.06170 0.94330 -0.04800
H 	H 	0.97160 0.06890 0.90010 0.05600
H 	H 	0.00490 0.12380 0.95290 0.06300
C 	C 	0.02670 0.92420 0.01860 -0.00900
H 	H 	0.03550 0.84400 0.02380 0.03200
H 	H 	0.04530 0.97900 0.03280 0.03800
Zn	Zn	0.26866 0.45430 0.75016 1.20900
S 	S 	0.44199 0.08110 0.98782 0.27600
S 	S 	0.31393 0.82150 0.50936 0.27800
O 	O 	0.48643 0.85470 0.79690 -0.46600
O 	O 	0.46220 0.69980 0.80980 -0.32400
O 	O 	0.43360 0.99950 0.02060 -0.22700
O 	O 	0.46770 0.16610 0.01960 -0.22400
O 	O 	0.32573 0.46410 0.81850 -0.35500
O 	O 	0.29510 0.30620 0.79410 -0.41400
O 	O 	0.29030 0.44090 0.68280 -0.35600
O 	O 	0.27178 0.59840 0.70580 -0.41600
O 	O 	0.28850 0.90710 0.47770 -0.22600
O 	O 	0.32190 0.73940 0.47620 -0.22700
O 	O 	0.46141 0.03690 0.70090 -0.44900
O 	O 	0.43150 0.19570 0.69120 -0.31500
N 	N 	0.27590 0.10640 0.31480 -0.27300
N 	N 	0.35520 0.28740 0.45050 -0.12600
N 	N 	0.39970 0.43740 0.54490 -0.12500
N 	N 	0.46670 0.65820 0.68300 -0.27500
N 	N 	0.25930 0.51470 0.81560 -0.27200
N 	N 	0.25080 0.68570 0.95310 -0.12300
N 	N 	0.50450 0.44470 0.95450 -0.12800
N 	N 	0.50170 0.23890 0.81690 -0.27700
C 	C 	0.28890 0.20040 0.30340 0.09800
H 	H 	0.27900 0.22710 0.26270 -0.00900
C 	C 	0.31560 0.26110 0.34640 -0.19100
H 	H 	0.32390 0.32620 0.33520 0.10500
C 	C 	0.33020 0.22550 0.40630 0.16800
C 	C 	0.31750 0.12460 0.41840 -0.19000
H 	H 	0.32770 0.09280 0.45810 0.10300
C 	C 	0.29060 0.07270 0.37300 0.10700
H 	H 	0.28150 0.00830 0.38310 0.00300
C 	C 	0.37390 0.24440 0.51340 -0.04900
H 	H 	0.36060 0.18700 0.52080 0.04600
H 	H 	0.39390 0.20460 0.51950 0.06100
C 	C 	0.37210 0.38030 0.43870 -0.04600
H 	H 	0.39180 0.34750 0.43960 0.04800
H 	H 	0.35770 0.41140 0.39750 0.05800
C 	C 	0.38210 0.47630 0.48220 -0.04600
H 	H 	0.36240 0.51970 0.47530 0.06100
H 	H 	0.39600 0.53070 0.47500 0.04500
C 	C 	0.38310 0.34240 0.55750 -0.04900
H 	H 	0.39760 0.31250 0.59890 0.05600
H 	H 	0.36310 0.37360 0.55590 0.05000
C 	C 	0.42050 0.50900 0.58980 0.16100
C 	C 	0.43500 0.60730 0.57830 -0.17400
H 	H 	0.42870 0.62640 0.53770 0.09700
C 	C 	0.45780 0.67580 0.62460 0.09600
H 	H 	0.46760 0.73820 0.61470 0.00500
C 	C 	0.45260 0.56580 0.69420 0.10400
H 	H 	0.45840 0.55080 0.73510 -0.01300
C 	C 	0.43060 0.49270 0.65060 -0.19000
H 	H 	0.42210 0.42910 0.66220 0.10600
C 	C 	0.47010 0.80220 0.81680 0.34900
C 	C 	0.46270 0.87460 0.85900 -0.07900
C 	C 	0.47580 0.98510 0.87790 0.02300
H 	H 	0.48890 0.01770 0.86290 0.03400
C 	C 	0.47030 0.04950 0.91840 -0.06200
H 	H 	0.48000 0.12400 0.93240 0.06700
C 	C 	0.45030 0.00080 0.93730 -0.00200
C 	C 	0.43620 0.89220 0.91880 -0.06300
H 	H 	0.42220 0.86210 0.93230 0.05800
C 	C 	0.44300 0.82650 0.87950 0.00700
H 	H 	0.43430 0.75020 0.86730 0.03900
C 	C 	0.40650 0.15970 0.93900 -0.01300
C 	C 	0.40980 0.26510 0.91570 -0.05900
H 	H 	0.43080 0.29290 0.92560 0.05900
C 	C 	0.38220 0.32940 0.87800 -0.00400
H 	H 	0.38410 0.40350 0.86330 0.04300
C 	C 	0.35190 0.28450 0.86220 -0.06900
C 	C 	0.34900 0.17800 0.88410 0.00500
H 	H 	0.32790 0.14780 0.87220 0.05100
C 	C 	0.37680 0.11360 0.92360 -0.05400
H 	H 	0.37490 0.04040 0.93920 0.06300
C 	C 	0.32230 0.35580 0.82210 0.30700
C 	C 	0.24080 0.60910 0.80460 0.10200
H 	H 	0.22880 0.63650 0.76400 -0.01000
C 	C 	0.23810 0.66880 0.84810 -0.18600
H 	H 	0.22500 0.73730 0.83740 0.10400
C 	C 	0.25410 0.63130 0.90810 0.15700
C 	C 	0.27220 0.52640 0.91900 -0.17700
H 	H 	0.28270 0.49230 0.95820 0.09800
C 	C 	0.27460 0.47490 0.87320 0.10100
H 	H 	0.28770 0.40680 0.88230 0.00400
C 	C 	0.26990 0.64940 0.01520 -0.03000
H 	H 	0.27090 0.56310 0.01680 0.04500
H 	H 	0.29240 0.67930 0.03200 0.04500
C 	C 	0.24330 0.80980 0.94800 -0.06200
H 	H 	0.22750 0.82770 0.90510 0.06400
H 	H 	0.26360 0.85390 0.95910 0.06600
C 	C 	0.28450 0.54650 0.67840 0.30600
C 	C 	0.29240 0.61970 0.63770 -0.05800
C 	C 	0.31330 0.57230 0.61980 -0.01200
H 	H 	0.32300 0.49790 0.63420 0.04700
C 	C 	0.31980 0.63540 0.58030 -0.05000
H 	H 	0.33430 0.60510 0.56790 0.05400
C 	C 	0.30490 0.74390 0.55880 -0.01800
C 	C 	0.28440 0.78920 0.57660 -0.04600
H 	H 	0.27420 0.86240 0.56120 0.06100
C 	C 	0.27830 0.72820 0.61750 -0.00100
H 	H 	0.26470 0.76100 0.63120 0.05200
C 	C 	0.34970 0.90030 0.55870 -0.00900
C 	C 	0.37950 0.85550 0.57440 -0.06400
H 	H 	0.38130 0.78310 0.55810 0.06600
C 	C 	0.40720 0.91630 0.61440 0.01700
H 	H 	0.42810 0.88510 0.62560 0.03800
C 	C 	0.40490 0.02130 0.63810 -0.08200
C 	C 	0.37380 0.06530 0.62120 0.00400
H 	H 	0.37200 0.13780 0.63740 0.04000
C 	C 	0.34640 0.00700 0.58240 -0.06500
H 	H 	0.32540 0.03730 0.57140 0.06100
C 	C 	0.43440 0.09200 0.67980 0.32200
C 	C 	0.48260 0.33080 0.80470 0.11700
H 	H 	0.46740 0.34750 0.76350 -0.01800
C 	C 	0.48330 0.40380 0.84830 -0.19700
H 	H 	0.46940 0.46990 0.83610 0.10900
C 	C 	0.50420 0.38310 0.90990 0.17000
C 	C 	0.52460 0.28480 0.92180 -0.17700
H 	H 	0.54000 0.26520 0.96250 0.09700
C 	C 	0.52260 0.21650 0.87500 0.10100
H 	H 	0.53670 0.15120 0.88490 -0.00000
C 	C 	0.48850 0.56170 0.94330 -0.07400
H 	H 	0.47160 0.56890 0.90010 0.06300
H 	H 	0.50490 0.62380 0.95290 0.07500
C 	C 	0.52670 0.42420 0.01860 -0.02100
H 	H 	0.53550 0.34400 0.02380 0.03600
H 	H 	0.54530 0.47900 0.03280 0.04200
Zn	Zn	0.23134 0.95430 0.74984 1.20900
S 	S 	0.05801 0.58110 0.51218 0.27400
S 	S 	0.18607 0.32150 0.99064 0.27700
O 	O 	0.01357 0.35470 0.70310 -0.46800
O 	O 	0.03780 0.19980 0.69020 -0.32500
O 	O 	0.06640 0.49950 0.47940 -0.22800
O 	O 	0.03230 0.66610 0.48040 -0.22500
O 	O 	0.17427 0.96410 0.68150 -0.35500
O 	O 	0.20490 0.80620 0.70590 -0.41400
O 	O 	0.20970 0.94090 0.81720 -0.35600
O 	O 	0.22822 0.09840 0.79420 -0.41600
O 	O 	0.21150 0.40710 0.02230 -0.22500
O 	O 	0.17810 0.23940 0.02380 -0.22700
O 	O 	0.03859 0.53690 0.79910 -0.45100
O 	O 	0.06850 0.69570 0.80880 -0.31500
N 	N 	0.22410 0.60640 0.18520 -0.27300
N 	N 	0.14480 0.78740 0.04950 -0.12500
N 	N 	0.10030 0.93740 0.95510 -0.12700
N 	N 	0.03330 0.15820 0.81700 -0.27600
N 	N 	0.24070 0.01470 0.68440 -0.27100
N 	N 	0.24920 0.18570 0.54690 -0.12200
N 	N 	0.99550 0.94470 0.54550 -0.12100
N 	N 	0.99830 0.73890 0.68310 -0.27200
C 	C 	0.21110 0.70040 0.19660 0.09800
H 	H 	0.22100 0.72710 0.23730 -0.00900
C 	C 	0.18440 0.76110 0.15360 -0.19100
H 	H 	0.17610 0.82620 0.16480 0.10500
C 	C 	0.16980 0.72550 0.09370 0.16800
C 	C 	0.18250 0.62460 0.08160 -0.19000
H 	H 	0.17230 0.59280 0.04190 0.10300
C 	C 	0.20940 0.57270 0.12700 0.10800
H 	H 	0.21850 0.50830 0.11690 0.00300
C 	C 	0.12610 0.74440 0.98660 -0.05000
H 	H 	0.13940 0.68700 0.97920 0.04700
H 	H 	0.10610 0.70460 0.98050 0.06100
C 	C 	0.12790 0.88030 0.06130 -0.04900
H 	H 	0.10820 0.84750 0.06040 0.04900
H 	H 	0.14230 0.91140 0.10250 0.05900
C 	C 	0.11790 0.97630 0.01780 -0.03900
H 	H 	0.13760 0.01970 0.02470 0.05800
H 	H 	0.10400 0.03070 0.02500 0.04200
C 	C 	0.11690 0.84240 0.94250 -0.04800
H 	H 	0.10240 0.81250 0.90110 0.05600
H 	H 	0.13690 0.87360 0.94410 0.05000
C 	C 	0.07950 0.00900 0.91020 0.16300
C 	C 	0.06500 0.10730 0.92170 -0.17500
H 	H 	0.07130 0.12640 0.96230 0.09700
C 	C 	0.04220 0.17580 0.87540 0.09600
H 	H 	0.03240 0.23820 0.88530 0.00300
C 	C 	0.04740 0.06580 0.80580 0.10400
H 	H 	0.04160 0.05080 0.76490 -0.01400
C 	C 	0.06940 0.99270 0.84940 -0.19200
H 	H 	0.07790 0.92910 0.83780 0.10600
C 	C 	0.02990 0.30220 0.68320 0.35000
C 	C 	0.03730 0.37460 0.64100 -0.08200
C 	C 	0.02420 0.48510 0.62210 0.02600
H 	H 	0.01110 0.51770 0.63710 0.03000
C 	C 	0.02970 0.54950 0.58160 -0.06600
H 	H 	0.02000 0.62400 0.56760 0.06600
C 	C 	0.04970 0.50080 0.56270 -0.00300
C 	C 	0.06380 0.39220 0.58120 -0.06300
H 	H 	0.07780 0.36210 0.56770 0.05800
C 	C 	0.05700 0.32650 0.62050 0.00800
H 	H 	0.06570 0.25020 0.63270 0.03800
C 	C 	0.09350 0.65970 0.56100 -0.01300
C 	C 	0.09020 0.76510 0.58430 -0.05900
H 	H 	0.06920 0.79290 0.57440 0.05800
C 	C 	0.11780 0.82940 0.62200 -0.00400
H 	H 	0.11590 0.90350 0.63670 0.04300
C 	C 	0.14810 0.78450 0.63780 -0.07000
C 	C 	0.15100 0.67800 0.61590 0.00500
H 	H 	0.17210 0.64780 0.62780 0.05100
C 	C 	0.12320 0.61360 0.57640 -0.05400
H 	H 	0.12510 0.54040 0.56080 0.06300
C 	C 	0.17770 0.85580 0.67790 0.30800
C 	C 	0.25920 0.10910 0.69540 0.10100
H 	H 	0.27120 0.13650 0.73600 -0.01000
C 	C 	0.26190 0.16880 0.65190 -0.18500
H 	H 	0.27500 0.23730 0.66260 0.10300
C 	C 	0.24590 0.13130 0.59190 0.15600
C 	C 	0.22780 0.02640 0.58100 -0.17400
H 	H 	0.21730 0.99230 0.54180 0.09600
C 	C 	0.22540 0.97490 0.62680 0.09800
H 	H 	0.21230 0.90680 0.61770 0.00500
C 	C 	0.23010 0.14940 0.48480 -0.03100
H 	H 	0.22910 0.06310 0.48320 0.04500
H 	H 	0.20760 0.17930 0.46800 0.04500
C 	C 	0.25670 0.30980 0.55200 -0.06200
H 	H 	0.27250 0.32770 0.59490 0.06400
H 	H 	0.23640 0.35390 0.54090 0.06600
C 	C 	0.21550 0.04650 0.82160 0.30700
C 	C 	0.20760 0.11970 0.86230 -0.05800
C 	C 	0.18670 0.07230 0.88020 -0.01000
H 	H 	0.17700 0.99790 0.86580 0.04600
C 	C 	0.18020 0.13540 0.91970 -0.05100
H 	H 	0.16570 0.10510 0.93210 0.05500
C 	C 	0.19510 0.24390 0.94120 -0.01700
C 	C 	0.21560 0.28920 0.92340 -0.04700
H 	H 	0.22580 0.36240 0.93880 0.06100
C 	C 	0.22170 0.22820 0.88250 -0.00000
H 	H 	0.23530 0.26100 0.86880 0.05200
C 	C 	0.15030 0.40030 0.94130 -0.00800
C 	C 	0.12050 0.35550 0.92560 -0.06500
H 	H 	0.11870 0.28310 0.94190 0.06700
C 	C 	0.09280 0.41630 0.88560 0.01900
H 	H 	0.07190 0.38510 0.87440 0.03700
C 	C 	0.09510 0.52130 0.86190 -0.08400
C 	C 	0.12620 0.56530 0.87880 0.00500
H 	H 	0.12800 0.63780 0.86260 0.03900
C 	C 	0.15360 0.50700 0.91760 -0.06700
H 	H 	0.17460 0.53730 0.92860 0.06200
C 	C 	0.06560 0.59200 0.82020 0.32300
C 	C 	0.01740 0.83080 0.69530 0.11100
H 	H 	0.03260 0.84750 0.73650 -0.01800
C 	C 	0.01670 0.90380 0.65170 -0.20600
H 	H 	0.03060 0.96990 0.66390 0.11100
C 	C 	0.99580 0.88310 0.59010 0.17900
C 	C 	0.97540 0.78480 0.57820 -0.17900
H 	H 	0.96000 0.76520 0.53750 0.09800
C 	C 	0.97740 0.71650 0.62500 0.10400
H 	H 	0.96330 0.65120 0.61510 -0.00000
C 	C 	0.01150 0.06170 0.55670 -0.10000
H 	H 	0.02840 0.06890 0.59990 0.06900
H 	H 	0.99510 0.12380 0.54710 0.08800
C 	C 	0.97330 0.92420 0.48140 -0.03200
H 	H 	0.96450 0.84400 0.47620 0.04000
H 	H 	0.95470 0.97900 0.46720 0.04500
Zn	Zn	0.73134 0.45430 0.74984 1.20900
S 	S 	0.55801 0.08110 0.51218 0.27500
S 	S 	0.68607 0.82150 0.99064 0.27600
O 	O 	0.51357 0.85470 0.70310 -0.46600
O 	O 	0.53780 0.69980 0.69020 -0.32400
O 	O 	0.56640 0.99950 0.47940 -0.22700
O 	O 	0.53230 0.16610 0.48040 -0.22300
O 	O 	0.67427 0.46410 0.68150 -0.35500
O 	O 	0.70490 0.30620 0.70590 -0.41400
O 	O 	0.70970 0.44090 0.81720 -0.35600
O 	O 	0.72822 0.59840 0.79420 -0.41600
O 	O 	0.71150 0.90710 0.02230 -0.22500
O 	O 	0.67810 0.73940 0.02380 -0.22600
O 	O 	0.53859 0.03690 0.79910 -0.44900
O 	O 	0.56850 0.19570 0.80880 -0.31500
N 	N 	0.72410 0.10640 0.18520 -0.27300
N 	N 	0.64480 0.28740 0.04950 -0.12600
N 	N 	0.60030 0.43740 0.95510 -0.12500
N 	N 	0.53330 0.65820 0.81700 -0.27500
N 	N 	0.74070 0.51470 0.68440 -0.27200
N 	N 	0.74920 0.68570 0.54690 -0.12300
N 	N 	0.49550 0.44470 0.54550 -0.12800
N 	N 	0.49830 0.23890 0.68310 -0.27700
C 	C 	0.71110 0.20040 0.19660 0.09800
H 	H 	0.72100 0.22710 0.23730 -0.00900
C 	C 	0.68440 0.26110 0.15360 -0.19100
H 	H 	0.67610 0.32620 0.16480 0.10500
C 	C 	0.66980 0.22550 0.09370 0.16800
C 	C 	0.68250 0.12460 0.08160 -0.19000
H 	H 	0.67230 0.09280 0.04190 0.10300
C 	C 	0.70940 0.07270 0.12700 0.10700
H 	H 	0.71850 0.00830 0.11690 0.00200
C 	C 	0.62610 0.24440 0.98660 -0.04900
H 	H 	0.63940 0.18700 0.97920 0.04600
H 	H 	0.60610 0.20460 0.98050 0.06100
C 	C 	0.62790 0.38030 0.06130 -0.04600
H 	H 	0.60820 0.34750 0.06040 0.04800
H 	H 	0.64230 0.41140 0.10250 0.05800
C 	C 	0.61790 0.47630 0.01780 -0.04700
H 	H 	0.63760 0.51970 0.02470 0.06100
H 	H 	0.60400 0.53070 0.02500 0.04500
C 	C 	0.61690 0.34240 0.94250 -0.04900
H 	H 	0.60240 0.31250 0.90110 0.05600
H 	H 	0.63690 0.37360 0.94410 0.05000
C 	C 	0.57950 0.50900 0.91020 0.16100
C 	C 	0.56500 0.60730 0.92170 -0.17400
H 	H 	0.57130 0.62640 0.96230 0.09700
C 	C 	0.54220 0.67580 0.87540 0.09600
H 	H 	0.53240 0.73820 0.88530 0.00500
C 	C 	0.54740 0.56580 0.80580 0.10400
H 	H 	0.54160 0.55080 0.76490 -0.01300
C 	C 	0.56940 0.49270 0.84940 -0.19000
H 	H 	0.57790 0.42910 0.83780 0.10600
C 	C 	0.52990 0.80220 0.68320 0.34900
C 	C 	0.53730 0.87460 0.64100 -0.07900
C 	C 	0.52420 0.98510 0.62210 0.02400
H 	H 	0.51110 0.01770 0.63710 0.03300
C 	C 	0.52970 0.04950 0.58160 -0.06400
H 	H 	0.52000 0.12400 0.56760 0.06800
C 	C 	0.54970 0.00080 0.56270 -0.00300
C 	C 	0.56380 0.89220 0.58120 -0.06200
H 	H 	0.57780 0.86210 0.56770 0.05800
C 	C 	0.55700 0.82650 0.62050 0.00700
H 	H 	0.56570 0.75020 0.63270 0.03800
C 	C 	0.59350 0.15970 0.56100 -0.01300
C 	C 	0.59020 0.26510 0.58430 -0.05900
H 	H 	0.56920 0.29290 0.57440 0.05900
C 	C 	0.61780 0.32940 0.62200 -0.00400
H 	H 	0.61590 0.40350 0.63670 0.04300
C 	C 	0.64810 0.28450 0.63780 -0.07000
C 	C 	0.65100 0.17800 0.61590 0.00500
H 	H 	0.67210 0.14780 0.62780 0.05100
C 	C 	0.62320 0.11360 0.57640 -0.05400
H 	H 	0.62510 0.04040 0.56080 0.06300
C 	C 	0.67770 0.35580 0.67790 0.30800
C 	C 	0.75920 0.60910 0.69540 0.10100
H 	H 	0.77120 0.63650 0.73600 -0.01000
C 	C 	0.76190 0.66880 0.65190 -0.18600
H 	H 	0.77500 0.73730 0.66260 0.10400
C 	C 	0.74590 0.63130 0.59190 0.15700
C 	C 	0.72780 0.52640 0.58100 -0.17700
H 	H 	0.71730 0.49230 0.54180 0.09800
C 	C 	0.72540 0.47490 0.62680 0.10100
H 	H 	0.71230 0.40680 0.61770 0.00400
C 	C 	0.73010 0.64940 0.48480 -0.03100
H 	H 	0.72910 0.56310 0.48320 0.04500
H 	H 	0.70760 0.67930 0.46800 0.04500
C 	C 	0.75670 0.80980 0.55200 -0.06200
H 	H 	0.77250 0.82770 0.59490 0.06400
H 	H 	0.73640 0.85390 0.54090 0.06600
C 	C 	0.71550 0.54650 0.82160 0.30600
C 	C 	0.70760 0.61970 0.86230 -0.05800
C 	C 	0.68670 0.57230 0.88020 -0.01200
H 	H 	0.67700 0.49790 0.86580 0.04700
C 	C 	0.68020 0.63540 0.91970 -0.05000
H 	H 	0.66570 0.60510 0.93210 0.05400
C 	C 	0.69510 0.74390 0.94120 -0.01800
C 	C 	0.71560 0.78920 0.92340 -0.04700
H 	H 	0.72580 0.86240 0.93880 0.06000
C 	C 	0.72170 0.72820 0.88250 -0.00100
H 	H 	0.73530 0.76100 0.86880 0.05200
C 	C 	0.65030 0.90030 0.94130 -0.01000
C 	C 	0.62050 0.85550 0.92560 -0.06300
H 	H 	0.61870 0.78310 0.94190 0.06600
C 	C 	0.59280 0.91630 0.88560 0.01600
H 	H 	0.57190 0.88510 0.87440 0.03900
C 	C 	0.59510 0.02130 0.86190 -0.08100
C 	C 	0.62620 0.06530 0.87880 0.00300
H 	H 	0.62800 0.13780 0.86260 0.04000
C 	C 	0.65360 0.00700 0.91760 -0.06400
H 	H 	0.67460 0.03730 0.92860 0.06100
C 	C 	0.56560 0.09200 0.82020 0.32200
C 	C 	0.51740 0.33080 0.69530 0.11700
H 	H 	0.53260 0.34750 0.73650 -0.01800
C 	C 	0.51670 0.40380 0.65170 -0.19700
H 	H 	0.53060 0.46990 0.66390 0.10900
C 	C 	0.49580 0.38310 0.59010 0.17000
C 	C 	0.47540 0.28480 0.57820 -0.17700
H 	H 	0.46000 0.26520 0.53750 0.09700
C 	C 	0.47740 0.21650 0.62500 0.10100
H 	H 	0.46330 0.15120 0.61510 -0.00000
C 	C 	0.51150 0.56170 0.55670 -0.07400
H 	H 	0.52840 0.56890 0.59990 0.06300
H 	H 	0.49510 0.62380 0.54710 0.07500
C 	C 	0.47330 0.42420 0.48140 -0.02100
H 	H 	0.46450 0.34400 0.47620 0.03600
H 	H 	0.45470 0.47900 0.46720 0.04200
Zn	Zn	0.00000 0.73920 0.25000 1.21100
Zn	Zn	0.00000 0.36504 0.25000 1.20600
Zn	Zn	0.50000 0.23920 0.25000 1.21300
Zn	Zn	0.50000 0.86504 0.25000 1.20800
Zn	Zn	0.00000 0.26080 0.75000 1.21100
Zn	Zn	0.00000 0.63496 0.75000 1.20600
Zn	Zn	0.50000 0.76080 0.75000 1.21300
Zn	Zn	0.50000 0.13496 0.75000 1.20800
