data_crystal

_cell_length_a 22.32800
_cell_length_b 22.32800
_cell_length_c 22.32800
_cell_angle_alpha 90.00000
_cell_angle_beta  90.00000
_cell_angle_gamma 90.00000

_symmetry_space_group_name_	'P 1'
_symmetry_space_group_name_H-M	'P 1'

loop_
_symmetry_equiv_pos_as_xyz
  x,y,z

loop_
_atom_site_label
_atom_site_type_symbol
_atom_site_fract_x
_atom_site_fract_y
_atom_site_fract_z
_atom_site_charge
Zn	Zn	0.57819 0.03768 0.01585 1.13100
C 	C 	0.57940 0.06830 0.19680 -0.30100
C 	C 	0.54270 0.08740 0.24200 0.25100
H 	H 	0.50050 0.08310 0.23780 -0.02800
C 	C 	0.56530 0.11240 0.29290 -0.31900
H 	H 	0.53880 0.12490 0.32380 0.14900
C 	C 	0.62510 0.11970 0.30000 0.26400
C 	C 	0.66260 0.09970 0.25770 -0.28500
H 	H 	0.70460 0.10400 0.26300 0.13400
C 	C 	0.64050 0.07270 0.20570 0.21700
H 	H 	0.66750 0.05730 0.17660 -0.01100
C 	C 	0.55800 0.04220 0.13940 0.65400
O 	O 	0.58280 0.00300 0.11020 -0.42600
O 	O 	0.59430 0.03990 0.09880 -0.41200
O 	O 	0.56430 0.12210 0.99500 -0.48800
O 	O 	0.50280 0.02760 0.14180 -0.35100
Zn	Zn	0.92181 0.96232 0.51585 1.06000
C 	C 	0.92060 0.93170 0.69680 -0.38400
C 	C 	0.95730 0.91260 0.74200 0.28000
H 	H 	0.99950 0.91690 0.73780 -0.08000
C 	C 	0.93470 0.88760 0.79290 -0.37100
H 	H 	0.96120 0.87510 0.82380 0.13300
C 	C 	0.87490 0.88030 0.80000 0.27700
C 	C 	0.83740 0.90030 0.75770 -0.33200
H 	H 	0.79540 0.89600 0.76300 0.13400
C 	C 	0.85950 0.92730 0.70570 0.24800
H 	H 	0.83250 0.94270 0.67660 -0.06400
C 	C 	0.94200 0.95780 0.63940 0.71700
O 	O 	0.91720 0.99700 0.61020 -0.53900
O 	O 	0.90570 0.96010 0.59880 -0.44000
O 	O 	0.93570 0.87790 0.49500 -0.48200
O 	O 	0.99720 0.97240 0.64180 -0.44500
Zn	Zn	0.42181 0.53768 0.48415 1.09300
C 	C 	0.42060 0.56830 0.30320 -0.34100
C 	C 	0.45730 0.58740 0.25800 0.26900
H 	H 	0.49950 0.58310 0.26220 -0.04500
C 	C 	0.43470 0.61240 0.20710 -0.34500
H 	H 	0.46120 0.62490 0.17620 0.15400
C 	C 	0.37490 0.61970 0.20000 0.27500
C 	C 	0.33740 0.59970 0.24230 -0.31100
H 	H 	0.29540 0.60400 0.23700 0.13800
C 	C 	0.35950 0.57270 0.29430 0.23400
H 	H 	0.33250 0.55730 0.32340 -0.03800
C 	C 	0.44200 0.54220 0.36060 0.68200
O 	O 	0.41720 0.50300 0.38980 -0.47600
O 	O 	0.40570 0.53990 0.40120 -0.43100
O 	O 	0.43570 0.62210 0.50500 -0.46800
O 	O 	0.49720 0.52760 0.35820 -0.38500
Zn	Zn	0.07819 0.46232 0.98415 1.06300
C 	C 	0.07940 0.43170 0.80320 -0.33900
C 	C 	0.04270 0.41260 0.75800 0.27300
H 	H 	0.00050 0.41690 0.76220 -0.02800
C 	C 	0.06530 0.38760 0.70710 -0.34700
H 	H 	0.03880 0.37510 0.67620 0.17700
C 	C 	0.12510 0.38030 0.70000 0.28000
C 	C 	0.16260 0.40030 0.74230 -0.31200
H 	H 	0.20460 0.39600 0.73700 0.13600
C 	C 	0.14050 0.42730 0.79430 0.23300
H 	H 	0.16750 0.44270 0.82340 -0.04200
C 	C 	0.05800 0.45780 0.86060 0.67600
O 	O 	0.08280 0.49700 0.88980 -0.47000
O 	O 	0.09430 0.46010 0.90120 -0.44800
O 	O 	0.06430 0.37790 0.00500 -0.44500
O 	O 	0.00280 0.47240 0.85820 -0.36200
Zn	Zn	0.01585 0.57819 0.03768 1.13200
C 	C 	0.19680 0.57940 0.06830 -0.30000
C 	C 	0.24200 0.54270 0.08740 0.25200
H 	H 	0.23780 0.50050 0.08310 -0.02700
C 	C 	0.29290 0.56530 0.11240 -0.31800
H 	H 	0.32380 0.53880 0.12490 0.15000
C 	C 	0.30000 0.62510 0.11970 0.26500
C 	C 	0.25770 0.66260 0.09970 -0.28400
H 	H 	0.26300 0.70460 0.10400 0.13500
C 	C 	0.20570 0.64050 0.07270 0.21800
H 	H 	0.17660 0.66750 0.05730 -0.01000
C 	C 	0.13940 0.55800 0.04220 0.65500
O 	O 	0.11020 0.58280 0.00300 -0.42500
O 	O 	0.09880 0.59430 0.03990 -0.41100
O 	O 	0.99500 0.56430 0.12210 -0.48700
O 	O 	0.14180 0.50280 0.02760 -0.35000
Zn	Zn	0.51585 0.92181 0.96232 1.06100
C 	C 	0.69680 0.92060 0.93170 -0.38300
C 	C 	0.74200 0.95730 0.91260 0.28100
H 	H 	0.73780 0.99950 0.91690 -0.07900
C 	C 	0.79290 0.93470 0.88760 -0.37000
H 	H 	0.82380 0.96120 0.87510 0.13300
C 	C 	0.80000 0.87490 0.88030 0.27700
C 	C 	0.75770 0.83740 0.90030 -0.33200
H 	H 	0.76300 0.79540 0.89600 0.13400
C 	C 	0.70570 0.85950 0.92730 0.24800
H 	H 	0.67660 0.83250 0.94270 -0.06400
C 	C 	0.63940 0.94200 0.95780 0.71700
O 	O 	0.61020 0.91720 0.99700 -0.53900
O 	O 	0.59880 0.90570 0.96010 -0.44000
O 	O 	0.49500 0.93570 0.87790 -0.48200
O 	O 	0.64180 0.99720 0.97240 -0.44500
Zn	Zn	0.48415 0.42181 0.53768 1.09300
C 	C 	0.30320 0.42060 0.56830 -0.34100
C 	C 	0.25800 0.45730 0.58740 0.26900
H 	H 	0.26220 0.49950 0.58310 -0.04500
C 	C 	0.20710 0.43470 0.61240 -0.34500
H 	H 	0.17620 0.46120 0.62490 0.15400
C 	C 	0.20000 0.37490 0.61970 0.27500
C 	C 	0.24230 0.33740 0.59970 -0.31100
H 	H 	0.23700 0.29540 0.60400 0.13800
C 	C 	0.29430 0.35950 0.57270 0.23400
H 	H 	0.32340 0.33250 0.55730 -0.03800
C 	C 	0.36060 0.44200 0.54220 0.68200
O 	O 	0.38980 0.41720 0.50300 -0.47600
O 	O 	0.40120 0.40570 0.53990 -0.43100
O 	O 	0.50500 0.43570 0.62210 -0.46800
O 	O 	0.35820 0.49720 0.52760 -0.38500
Zn	Zn	0.98415 0.07819 0.46232 1.06300
C 	C 	0.80320 0.07940 0.43170 -0.33900
C 	C 	0.75800 0.04270 0.41260 0.27300
H 	H 	0.76220 0.00050 0.41690 -0.02800
C 	C 	0.70710 0.06530 0.38760 -0.34700
H 	H 	0.67620 0.03880 0.37510 0.17700
C 	C 	0.70000 0.12510 0.38030 0.28000
C 	C 	0.74230 0.16260 0.40030 -0.31200
H 	H 	0.73700 0.20460 0.39600 0.13600
C 	C 	0.79430 0.14050 0.42730 0.23300
H 	H 	0.82340 0.16750 0.44270 -0.04200
C 	C 	0.86060 0.05800 0.45780 0.67600
O 	O 	0.88980 0.08280 0.49700 -0.47000
O 	O 	0.90120 0.09430 0.46010 -0.44800
O 	O 	0.00500 0.06430 0.37790 -0.44500
O 	O 	0.85820 0.00280 0.47240 -0.36200
Zn	Zn	0.03768 0.01585 0.57819 1.13200
C 	C 	0.06830 0.19680 0.57940 -0.30000
C 	C 	0.08740 0.24200 0.54270 0.25200
H 	H 	0.08310 0.23780 0.50050 -0.02700
C 	C 	0.11240 0.29290 0.56530 -0.31800
H 	H 	0.12490 0.32380 0.53880 0.15000
C 	C 	0.11970 0.30000 0.62510 0.26500
C 	C 	0.09970 0.25770 0.66260 -0.28400
H 	H 	0.10400 0.26300 0.70460 0.13500
C 	C 	0.07270 0.20570 0.64050 0.21800
H 	H 	0.05730 0.17660 0.66750 -0.01000
C 	C 	0.04220 0.13940 0.55800 0.65500
O 	O 	0.00300 0.11020 0.58280 -0.42500
O 	O 	0.03990 0.09880 0.59430 -0.41100
O 	O 	0.12210 0.99500 0.56430 -0.48700
O 	O 	0.02760 0.14180 0.50280 -0.35000
Zn	Zn	0.96232 0.51585 0.92181 1.06100
C 	C 	0.93170 0.69680 0.92060 -0.38300
C 	C 	0.91260 0.74200 0.95730 0.28100
H 	H 	0.91690 0.73780 0.99950 -0.07900
C 	C 	0.88760 0.79290 0.93470 -0.37000
H 	H 	0.87510 0.82380 0.96120 0.13300
C 	C 	0.88030 0.80000 0.87490 0.27700
C 	C 	0.90030 0.75770 0.83740 -0.33200
H 	H 	0.89600 0.76300 0.79540 0.13400
C 	C 	0.92730 0.70570 0.85950 0.24800
H 	H 	0.94270 0.67660 0.83250 -0.06400
C 	C 	0.95780 0.63940 0.94200 0.71700
O 	O 	0.99700 0.61020 0.91720 -0.53900
O 	O 	0.96010 0.59880 0.90570 -0.44000
O 	O 	0.87790 0.49500 0.93570 -0.48200
O 	O 	0.97240 0.64180 0.99720 -0.44500
Zn	Zn	0.53768 0.48415 0.42181 1.09300
C 	C 	0.56830 0.30320 0.42060 -0.34100
C 	C 	0.58740 0.25800 0.45730 0.26900
H 	H 	0.58310 0.26220 0.49950 -0.04500
C 	C 	0.61240 0.20710 0.43470 -0.34500
H 	H 	0.62490 0.17620 0.46120 0.15400
C 	C 	0.61970 0.20000 0.37490 0.27500
C 	C 	0.59970 0.24230 0.33740 -0.31100
H 	H 	0.60400 0.23700 0.29540 0.13800
C 	C 	0.57270 0.29430 0.35950 0.23400
H 	H 	0.55730 0.32340 0.33250 -0.03800
C 	C 	0.54220 0.36060 0.44200 0.68200
O 	O 	0.50300 0.38980 0.41720 -0.47600
O 	O 	0.53990 0.40120 0.40570 -0.43100
O 	O 	0.62210 0.50500 0.43570 -0.46800
O 	O 	0.52760 0.35820 0.49720 -0.38500
Zn	Zn	0.46232 0.98415 0.07819 1.06300
C 	C 	0.43170 0.80320 0.07940 -0.33900
C 	C 	0.41260 0.75800 0.04270 0.27300
H 	H 	0.41690 0.76220 0.00050 -0.02800
C 	C 	0.38760 0.70710 0.06530 -0.34700
H 	H 	0.37510 0.67620 0.03880 0.17700
C 	C 	0.38030 0.70000 0.12510 0.28000
C 	C 	0.40030 0.74230 0.16260 -0.31200
H 	H 	0.39600 0.73700 0.20460 0.13600
C 	C 	0.42730 0.79430 0.14050 0.23300
H 	H 	0.44270 0.82340 0.16750 -0.04200
C 	C 	0.45780 0.86060 0.05800 0.67600
O 	O 	0.49700 0.88980 0.08280 -0.47000
O 	O 	0.46010 0.90120 0.09430 -0.44800
O 	O 	0.37790 0.00500 0.06430 -0.44500
O 	O 	0.47240 0.85820 0.00280 -0.36200
Zn	Zn	0.42181 0.96232 0.98415 1.03900
C 	C 	0.42060 0.93170 0.80320 -0.38100
C 	C 	0.45730 0.91260 0.75800 0.28500
H 	H 	0.49950 0.91690 0.76220 -0.06300
C 	C 	0.43470 0.88760 0.70710 -0.37200
H 	H 	0.46120 0.87510 0.67620 0.15600
C 	C 	0.37490 0.88030 0.70000 0.28300
C 	C 	0.33740 0.90030 0.74230 -0.33500
H 	H 	0.29540 0.89600 0.73700 0.13600
C 	C 	0.35950 0.92730 0.79430 0.24800
H 	H 	0.33250 0.94270 0.82340 -0.06700
C 	C 	0.44200 0.95780 0.86060 0.71000
O 	O 	0.41720 0.99700 0.88980 -0.53100
O 	O 	0.40570 0.96010 0.90120 -0.45500
O 	O 	0.43570 0.87790 0.00500 -0.45700
O 	O 	0.49720 0.97240 0.85820 -0.42100
Zn	Zn	0.07819 0.03768 0.48415 1.11000
C 	C 	0.07940 0.06830 0.30320 -0.29700
C 	C 	0.04270 0.08740 0.25800 0.25700
H 	H 	0.00050 0.08310 0.26220 -0.00900
C 	C 	0.06530 0.11240 0.20710 -0.32000
H 	H 	0.03880 0.12490 0.17620 0.17600
C 	C 	0.12510 0.11970 0.20000 0.27200
C 	C 	0.16260 0.09970 0.24230 -0.28700
H 	H 	0.20460 0.10400 0.23700 0.13800
C 	C 	0.14050 0.07270 0.29430 0.21800
H 	H 	0.16750 0.05730 0.32340 -0.01200
C 	C 	0.05800 0.04220 0.36060 0.64700
O 	O 	0.08280 0.00300 0.38980 -0.41500
O 	O 	0.09430 0.03990 0.40120 -0.42500
O 	O 	0.06430 0.12210 0.50500 -0.46000
O 	O 	0.00280 0.02760 0.35820 -0.32500
Zn	Zn	0.57819 0.46232 0.51585 1.09300
C 	C 	0.57940 0.43170 0.69680 -0.34100
C 	C 	0.54270 0.41260 0.74200 0.26800
H 	H 	0.50050 0.41690 0.73780 -0.04500
C 	C 	0.56530 0.38760 0.79290 -0.34500
H 	H 	0.53880 0.37510 0.82380 0.15200
C 	C 	0.62510 0.38030 0.80000 0.27300
C 	C 	0.66260 0.40030 0.75770 -0.30900
H 	H 	0.70460 0.39600 0.76300 0.13300
C 	C 	0.64050 0.42730 0.70570 0.23200
H 	H 	0.66750 0.44270 0.67660 -0.03900
C 	C 	0.55800 0.45780 0.63940 0.68200
O 	O 	0.58280 0.49700 0.61020 -0.47600
O 	O 	0.59430 0.46010 0.59880 -0.43100
O 	O 	0.56430 0.37790 0.49500 -0.46800
O 	O 	0.50280 0.47240 0.64180 -0.38500
Zn	Zn	0.92181 0.53768 0.01585 1.10600
C 	C 	0.92060 0.56830 0.19680 -0.34500
C 	C 	0.95730 0.58740 0.24200 0.26500
H 	H 	0.99950 0.58310 0.23780 -0.06200
C 	C 	0.93470 0.61240 0.29290 -0.34300
H 	H 	0.96120 0.62490 0.32380 0.12900
C 	C 	0.87490 0.61970 0.30000 0.26900
C 	C 	0.83740 0.59970 0.25770 -0.30800
H 	H 	0.79540 0.60400 0.26300 0.13600
C 	C 	0.85950 0.57270 0.20570 0.23400
H 	H 	0.83250 0.55730 0.17660 -0.03600
C 	C 	0.94200 0.54220 0.13940 0.69000
O 	O 	0.91720 0.50300 0.11020 -0.48800
O 	O 	0.90570 0.53990 0.09880 -0.41900
O 	O 	0.93570 0.62210 0.99500 -0.49600
O 	O 	0.99720 0.52760 0.14180 -0.41200
Zn	Zn	0.98415 0.42181 0.96232 1.03900
C 	C 	0.80320 0.42060 0.93170 -0.38100
C 	C 	0.75800 0.45730 0.91260 0.28500
H 	H 	0.76220 0.49950 0.91690 -0.06300
C 	C 	0.70710 0.43470 0.88760 -0.37200
H 	H 	0.67620 0.46120 0.87510 0.15600
C 	C 	0.70000 0.37490 0.88030 0.28300
C 	C 	0.74230 0.33740 0.90030 -0.33500
H 	H 	0.73700 0.29540 0.89600 0.13600
C 	C 	0.79430 0.35950 0.92730 0.24800
H 	H 	0.82340 0.33250 0.94270 -0.06700
C 	C 	0.86060 0.44200 0.95780 0.71000
O 	O 	0.88980 0.41720 0.99700 -0.53100
O 	O 	0.90120 0.40570 0.96010 -0.45500
O 	O 	0.00500 0.43570 0.87790 -0.45700
O 	O 	0.85820 0.49720 0.97240 -0.42100
Zn	Zn	0.48415 0.07819 0.03768 1.11000
C 	C 	0.30320 0.07940 0.06830 -0.29700
C 	C 	0.25800 0.04270 0.08740 0.25700
H 	H 	0.26220 0.00050 0.08310 -0.00900
C 	C 	0.20710 0.06530 0.11240 -0.32000
H 	H 	0.17620 0.03880 0.12490 0.17600
C 	C 	0.20000 0.12510 0.11970 0.27200
C 	C 	0.24230 0.16260 0.09970 -0.28700
H 	H 	0.23700 0.20460 0.10400 0.13800
C 	C 	0.29430 0.14050 0.07270 0.21800
H 	H 	0.32340 0.16750 0.05730 -0.01200
C 	C 	0.36060 0.05800 0.04220 0.64700
O 	O 	0.38980 0.08280 0.00300 -0.41500
O 	O 	0.40120 0.09430 0.03990 -0.42500
O 	O 	0.50500 0.06430 0.12210 -0.46000
O 	O 	0.35820 0.00280 0.02760 -0.32500
Zn	Zn	0.51585 0.57819 0.46232 1.09300
C 	C 	0.69680 0.57940 0.43170 -0.34100
C 	C 	0.74200 0.54270 0.41260 0.26800
H 	H 	0.73780 0.50050 0.41690 -0.04500
C 	C 	0.79290 0.56530 0.38760 -0.34500
H 	H 	0.82380 0.53880 0.37510 0.15200
C 	C 	0.80000 0.62510 0.38030 0.27300
C 	C 	0.75770 0.66260 0.40030 -0.30900
H 	H 	0.76300 0.70460 0.39600 0.13300
C 	C 	0.70570 0.64050 0.42730 0.23200
H 	H 	0.67660 0.66750 0.44270 -0.03900
C 	C 	0.63940 0.55800 0.45780 0.68200
O 	O 	0.61020 0.58280 0.49700 -0.47600
O 	O 	0.59880 0.59430 0.46010 -0.43100
O 	O 	0.49500 0.56430 0.37790 -0.46800
O 	O 	0.64180 0.50280 0.47240 -0.38500
Zn	Zn	0.01585 0.92181 0.53768 1.10600
C 	C 	0.19680 0.92060 0.56830 -0.34500
C 	C 	0.24200 0.95730 0.58740 0.26500
H 	H 	0.23780 0.99950 0.58310 -0.06200
C 	C 	0.29290 0.93470 0.61240 -0.34300
H 	H 	0.32380 0.96120 0.62490 0.12900
C 	C 	0.30000 0.87490 0.61970 0.26900
C 	C 	0.25770 0.83740 0.59970 -0.30800
H 	H 	0.26300 0.79540 0.60400 0.13600
C 	C 	0.20570 0.85950 0.57270 0.23400
H 	H 	0.17660 0.83250 0.55730 -0.03600
C 	C 	0.13940 0.94200 0.54220 0.69000
O 	O 	0.11020 0.91720 0.50300 -0.48800
O 	O 	0.09880 0.90570 0.53990 -0.41900
O 	O 	0.99500 0.93570 0.62210 -0.49600
O 	O 	0.14180 0.99720 0.52760 -0.41200
Zn	Zn	0.96232 0.98415 0.42181 1.03900
C 	C 	0.93170 0.80320 0.42060 -0.38100
C 	C 	0.91260 0.75800 0.45730 0.28500
H 	H 	0.91690 0.76220 0.49950 -0.06300
C 	C 	0.88760 0.70710 0.43470 -0.37200
H 	H 	0.87510 0.67620 0.46120 0.15600
C 	C 	0.88030 0.70000 0.37490 0.28300
C 	C 	0.90030 0.74230 0.33740 -0.33500
H 	H 	0.89600 0.73700 0.29540 0.13600
C 	C 	0.92730 0.79430 0.35950 0.24800
H 	H 	0.94270 0.82340 0.33250 -0.06700
C 	C 	0.95780 0.86060 0.44200 0.71000
O 	O 	0.99700 0.88980 0.41720 -0.53100
O 	O 	0.96010 0.90120 0.40570 -0.45500
O 	O 	0.87790 0.00500 0.43570 -0.45700
O 	O 	0.97240 0.85820 0.49720 -0.42100
Zn	Zn	0.03768 0.48415 0.07819 1.11000
C 	C 	0.06830 0.30320 0.07940 -0.29700
C 	C 	0.08740 0.25800 0.04270 0.25700
H 	H 	0.08310 0.26220 0.00050 -0.00900
C 	C 	0.11240 0.20710 0.06530 -0.32000
H 	H 	0.12490 0.17620 0.03880 0.17600
C 	C 	0.11970 0.20000 0.12510 0.27200
C 	C 	0.09970 0.24230 0.16260 -0.28700
H 	H 	0.10400 0.23700 0.20460 0.13800
C 	C 	0.07270 0.29430 0.14050 0.21800
H 	H 	0.05730 0.32340 0.16750 -0.01200
C 	C 	0.04220 0.36060 0.05800 0.64700
O 	O 	0.00300 0.38980 0.08280 -0.41500
O 	O 	0.03990 0.40120 0.09430 -0.42500
O 	O 	0.12210 0.50500 0.06430 -0.46000
O 	O 	0.02760 0.35820 0.00280 -0.32500
Zn	Zn	0.46232 0.51585 0.57819 1.09300
C 	C 	0.43170 0.69680 0.57940 -0.34100
C 	C 	0.41260 0.74200 0.54270 0.26800
H 	H 	0.41690 0.73780 0.50050 -0.04500
C 	C 	0.38760 0.79290 0.56530 -0.34500
H 	H 	0.37510 0.82380 0.53880 0.15200
C 	C 	0.38030 0.80000 0.62510 0.27300
C 	C 	0.40030 0.75770 0.66260 -0.30900
H 	H 	0.39600 0.76300 0.70460 0.13300
C 	C 	0.42730 0.70570 0.64050 0.23200
H 	H 	0.44270 0.67660 0.66750 -0.03900
C 	C 	0.45780 0.63940 0.55800 0.68200
O 	O 	0.49700 0.61020 0.58280 -0.47600
O 	O 	0.46010 0.59880 0.59430 -0.43100
O 	O 	0.37790 0.49500 0.56430 -0.46800
O 	O 	0.47240 0.64180 0.50280 -0.38500
Zn	Zn	0.53768 0.01585 0.92181 1.10600
C 	C 	0.56830 0.19680 0.92060 -0.34500
C 	C 	0.58740 0.24200 0.95730 0.26500
H 	H 	0.58310 0.23780 0.99950 -0.06200
C 	C 	0.61240 0.29290 0.93470 -0.34300
H 	H 	0.62490 0.32380 0.96120 0.12900
C 	C 	0.61970 0.30000 0.87490 0.26900
C 	C 	0.59970 0.25770 0.83740 -0.30800
H 	H 	0.60400 0.26300 0.79540 0.13600
C 	C 	0.57270 0.20570 0.85950 0.23400
H 	H 	0.55730 0.17660 0.83250 -0.03600
C 	C 	0.54220 0.13940 0.94200 0.69000
O 	O 	0.50300 0.11020 0.91720 -0.48800
O 	O 	0.53990 0.09880 0.90570 -0.41900
O 	O 	0.62210 0.99500 0.93570 -0.49600
O 	O 	0.52760 0.14180 0.99720 -0.41200
Zn	Zn	0.54650 0.95350 0.04650 1.06000
Zn	Zn	0.95350 0.04650 0.54650 1.06000
Zn	Zn	0.45350 0.45350 0.45350 1.07000
Zn	Zn	0.04650 0.54650 0.95350 1.06000
Zn	Zn	0.45350 0.04650 0.95350 1.06000
Zn	Zn	0.04650 0.95350 0.45350 1.06000
Zn	Zn	0.54650 0.54650 0.54650 1.07000
Zn	Zn	0.95350 0.45350 0.04650 1.06000
N 	N 	0.64800 0.14800 0.35200 -0.24600
N 	N 	0.85200 0.85200 0.85200 -0.25500
N 	N 	0.35200 0.64800 0.14800 -0.24600
N 	N 	0.14800 0.35200 0.64800 -0.24600
N 	N 	0.35200 0.85200 0.64800 -0.25100
N 	N 	0.14800 0.14800 0.14800 -0.24100
N 	N 	0.64800 0.35200 0.85200 -0.25100
N 	N 	0.85200 0.64800 0.35200 -0.25100
O 	O 	0.50000 0.00000 -0.00000 -1.52800
O 	O 	0.00000 0.00000 0.50000 -1.52800
O 	O 	0.50000 0.50000 0.50000 -1.63300
O 	O 	-0.00000 0.50000 -0.00000 -1.52800
Zn	Zn	0.07819 0.53768 0.51585 1.09500
C 	C 	0.07940 0.56830 0.69680 -0.33000
C 	C 	0.04270 0.58740 0.74200 0.26900
H 	H 	0.00050 0.58310 0.73780 -0.02600
C 	C 	0.06530 0.61240 0.79290 -0.34300
H 	H 	0.03880 0.62490 0.82380 0.17500
C 	C 	0.12510 0.61970 0.80000 0.27700
C 	C 	0.16260 0.59970 0.75770 -0.30800
H 	H 	0.20460 0.60400 0.76300 0.13500
C 	C 	0.14050 0.57270 0.70570 0.22900
H 	H 	0.16750 0.55730 0.67660 -0.03700
C 	C 	0.05800 0.54220 0.63940 0.66800
O 	O 	0.08280 0.50300 0.61020 -0.46600
O 	O 	0.09430 0.53990 0.59880 -0.42800
O 	O 	0.06430 0.62210 0.49500 -0.47200
O 	O 	0.00280 0.52760 0.64180 -0.36200
Zn	Zn	0.42181 0.46232 0.01585 1.11700
C 	C 	0.42060 0.43170 0.19680 -0.33300
C 	C 	0.45730 0.41260 0.24200 0.26500
H 	H 	0.49950 0.41690 0.23780 -0.04200
C 	C 	0.43470 0.38760 0.29290 -0.34100
H 	H 	0.46120 0.37510 0.32380 0.15200
C 	C 	0.37490 0.38030 0.30000 0.27300
C 	C 	0.33740 0.40030 0.25770 -0.30600
H 	H 	0.29540 0.39600 0.26300 0.13800
C 	C 	0.35950 0.42730 0.20570 0.23100
H 	H 	0.33250 0.44270 0.17660 -0.03300
C 	C 	0.44200 0.45780 0.13940 0.67600
O 	O 	0.41720 0.49700 0.11020 -0.47500
O 	O 	0.40570 0.46010 0.09880 -0.41200
O 	O 	0.43570 0.37790 0.99500 -0.49800
O 	O 	0.49720 0.47240 0.14180 -0.38700
Zn	Zn	0.92181 0.03768 0.98415 1.06600
C 	C 	0.92060 0.06830 0.80320 -0.33100
C 	C 	0.95730 0.08740 0.75800 0.26100
H 	H 	0.99950 0.08310 0.76220 -0.05300
C 	C 	0.93470 0.11240 0.70710 -0.33000
H 	H 	0.96120 0.12490 0.67620 0.13000
C 	C 	0.87490 0.11970 0.70000 0.26700
C 	C 	0.83740 0.09970 0.74230 -0.29700
H 	H 	0.79540 0.10400 0.73700 0.13800
C 	C 	0.85950 0.07270 0.79430 0.22900
H 	H 	0.83250 0.05730 0.82340 -0.02200
C 	C 	0.94200 0.04220 0.86060 0.68200
O 	O 	0.91720 0.00300 0.88980 -0.44300
O 	O 	0.90570 0.03990 0.90120 -0.45300
O 	O 	0.93570 0.12210 0.00500 -0.43000
O 	O 	0.99720 0.02760 0.85820 -0.37200
Zn	Zn	0.57819 0.96232 0.48415 1.07000
C 	C 	0.57940 0.93170 0.30320 -0.37200
C 	C 	0.54270 0.91260 0.25800 0.28000
H 	H 	0.50050 0.91690 0.26220 -0.06000
C 	C 	0.56530 0.88760 0.20710 -0.36600
H 	H 	0.53880 0.87510 0.17620 0.15500
C 	C 	0.62510 0.88030 0.20000 0.27900
C 	C 	0.66260 0.90030 0.24230 -0.32900
H 	H 	0.70460 0.89600 0.23700 0.13100
C 	C 	0.64050 0.92730 0.29430 0.24300
H 	H 	0.66750 0.94270 0.32340 -0.06300
C 	C 	0.55800 0.95780 0.36060 0.70300
O 	O 	0.58280 0.99700 0.38980 -0.52900
O 	O 	0.59430 0.96010 0.40120 -0.43500
O 	O 	0.56430 0.87790 0.50500 -0.48300
O 	O 	0.50280 0.97240 0.35820 -0.42400
Zn	Zn	0.51585 0.07819 0.53768 1.09500
C 	C 	0.69680 0.07940 0.56830 -0.33000
C 	C 	0.74200 0.04270 0.58740 0.26900
H 	H 	0.73780 0.00050 0.58310 -0.02600
C 	C 	0.79290 0.06530 0.61240 -0.34300
H 	H 	0.82380 0.03880 0.62490 0.17500
C 	C 	0.80000 0.12510 0.61970 0.27700
C 	C 	0.75770 0.16260 0.59970 -0.30800
H 	H 	0.76300 0.20460 0.60400 0.13500
C 	C 	0.70570 0.14050 0.57270 0.22900
H 	H 	0.67660 0.16750 0.55730 -0.03700
C 	C 	0.63940 0.05800 0.54220 0.66800
O 	O 	0.61020 0.08280 0.50300 -0.46600
O 	O 	0.59880 0.09430 0.53990 -0.42800
O 	O 	0.49500 0.06430 0.62210 -0.47200
O 	O 	0.64180 0.00280 0.52760 -0.36200
Zn	Zn	0.01585 0.42181 0.46232 1.11700
C 	C 	0.19680 0.42060 0.43170 -0.33300
C 	C 	0.24200 0.45730 0.41260 0.26500
H 	H 	0.23780 0.49950 0.41690 -0.04200
C 	C 	0.29290 0.43470 0.38760 -0.34100
H 	H 	0.32380 0.46120 0.37510 0.15200
C 	C 	0.30000 0.37490 0.38030 0.27300
C 	C 	0.25770 0.33740 0.40030 -0.30600
H 	H 	0.26300 0.29540 0.39600 0.13800
C 	C 	0.20570 0.35950 0.42730 0.23100
H 	H 	0.17660 0.33250 0.44270 -0.03300
C 	C 	0.13940 0.44200 0.45780 0.67600
O 	O 	0.11020 0.41720 0.49700 -0.47500
O 	O 	0.09880 0.40570 0.46010 -0.41200
O 	O 	0.99500 0.43570 0.37790 -0.49800
O 	O 	0.14180 0.49720 0.47240 -0.38700
Zn	Zn	0.98415 0.92181 0.03768 1.06600
C 	C 	0.80320 0.92060 0.06830 -0.33100
C 	C 	0.75800 0.95730 0.08740 0.26100
H 	H 	0.76220 0.99950 0.08310 -0.05300
C 	C 	0.70710 0.93470 0.11240 -0.33000
H 	H 	0.67620 0.96120 0.12490 0.13000
C 	C 	0.70000 0.87490 0.11970 0.26700
C 	C 	0.74230 0.83740 0.09970 -0.29700
H 	H 	0.73700 0.79540 0.10400 0.13800
C 	C 	0.79430 0.85950 0.07270 0.22900
H 	H 	0.82340 0.83250 0.05730 -0.02200
C 	C 	0.86060 0.94200 0.04220 0.68200
O 	O 	0.88980 0.91720 0.00300 -0.44300
O 	O 	0.90120 0.90570 0.03990 -0.45300
O 	O 	0.00500 0.93570 0.12210 -0.43000
O 	O 	0.85820 0.99720 0.02760 -0.37200
Zn	Zn	0.48415 0.57819 0.96232 1.07000
C 	C 	0.30320 0.57940 0.93170 -0.37200
C 	C 	0.25800 0.54270 0.91260 0.28000
H 	H 	0.26220 0.50050 0.91690 -0.06000
C 	C 	0.20710 0.56530 0.88760 -0.36600
H 	H 	0.17620 0.53880 0.87510 0.15500
C 	C 	0.20000 0.62510 0.88030 0.27900
C 	C 	0.24230 0.66260 0.90030 -0.32900
H 	H 	0.23700 0.70460 0.89600 0.13100
C 	C 	0.29430 0.64050 0.92730 0.24300
H 	H 	0.32340 0.66750 0.94270 -0.06300
C 	C 	0.36060 0.55800 0.95780 0.70300
O 	O 	0.38980 0.58280 0.99700 -0.52900
O 	O 	0.40120 0.59430 0.96010 -0.43500
O 	O 	0.50500 0.56430 0.87790 -0.48300
O 	O 	0.35820 0.50280 0.97240 -0.42400
Zn	Zn	0.53768 0.51585 0.07819 1.09500
C 	C 	0.56830 0.69680 0.07940 -0.33000
C 	C 	0.58740 0.74200 0.04270 0.26900
H 	H 	0.58310 0.73780 0.00050 -0.02600
C 	C 	0.61240 0.79290 0.06530 -0.34300
H 	H 	0.62490 0.82380 0.03880 0.17500
C 	C 	0.61970 0.80000 0.12510 0.27700
C 	C 	0.59970 0.75770 0.16260 -0.30800
H 	H 	0.60400 0.76300 0.20460 0.13500
C 	C 	0.57270 0.70570 0.14050 0.22900
H 	H 	0.55730 0.67660 0.16750 -0.03700
C 	C 	0.54220 0.63940 0.05800 0.66800
O 	O 	0.50300 0.61020 0.08280 -0.46600
O 	O 	0.53990 0.59880 0.09430 -0.42800
O 	O 	0.62210 0.49500 0.06430 -0.47200
O 	O 	0.52760 0.64180 0.00280 -0.36200
Zn	Zn	0.46232 0.01585 0.42181 1.11700
C 	C 	0.43170 0.19680 0.42060 -0.33300
C 	C 	0.41260 0.24200 0.45730 0.26500
H 	H 	0.41690 0.23780 0.49950 -0.04200
C 	C 	0.38760 0.29290 0.43470 -0.34100
H 	H 	0.37510 0.32380 0.46120 0.15200
C 	C 	0.38030 0.30000 0.37490 0.27300
C 	C 	0.40030 0.25770 0.33740 -0.30600
H 	H 	0.39600 0.26300 0.29540 0.13800
C 	C 	0.42730 0.20570 0.35950 0.23100
H 	H 	0.44270 0.17660 0.33250 -0.03300
C 	C 	0.45780 0.13940 0.44200 0.67600
O 	O 	0.49700 0.11020 0.41720 -0.47500
O 	O 	0.46010 0.09880 0.40570 -0.41200
O 	O 	0.37790 0.99500 0.43570 -0.49800
O 	O 	0.47240 0.14180 0.49720 -0.38700
Zn	Zn	0.03768 0.98415 0.92181 1.06600
C 	C 	0.06830 0.80320 0.92060 -0.33100
C 	C 	0.08740 0.75800 0.95730 0.26100
H 	H 	0.08310 0.76220 0.99950 -0.05300
C 	C 	0.11240 0.70710 0.93470 -0.33000
H 	H 	0.12490 0.67620 0.96120 0.13000
C 	C 	0.11970 0.70000 0.87490 0.26700
C 	C 	0.09970 0.74230 0.83740 -0.29700
H 	H 	0.10400 0.73700 0.79540 0.13800
C 	C 	0.07270 0.79430 0.85950 0.22900
H 	H 	0.05730 0.82340 0.83250 -0.02200
C 	C 	0.04220 0.86060 0.94200 0.68200
O 	O 	0.00300 0.88980 0.91720 -0.44300
O 	O 	0.03990 0.90120 0.90570 -0.45300
O 	O 	0.12210 0.00500 0.93570 -0.43000
O 	O 	0.02760 0.85820 0.99720 -0.37200
Zn	Zn	0.96232 0.48415 0.57819 1.07000
C 	C 	0.93170 0.30320 0.57940 -0.37200
C 	C 	0.91260 0.25800 0.54270 0.28000
H 	H 	0.91690 0.26220 0.50050 -0.06000
C 	C 	0.88760 0.20710 0.56530 -0.36600
H 	H 	0.87510 0.17620 0.53880 0.15500
C 	C 	0.88030 0.20000 0.62510 0.27900
C 	C 	0.90030 0.24230 0.66260 -0.32900
H 	H 	0.89600 0.23700 0.70460 0.13100
C 	C 	0.92730 0.29430 0.64050 0.24300
H 	H 	0.94270 0.32340 0.66750 -0.06300
C 	C 	0.95780 0.36060 0.55800 0.70300
O 	O 	0.99700 0.38980 0.58280 -0.52900
O 	O 	0.96010 0.40120 0.59430 -0.43500
O 	O 	0.87790 0.50500 0.56430 -0.48300
O 	O 	0.97240 0.35820 0.50280 -0.42400
Zn	Zn	0.92181 0.46232 0.48415 1.08300
C 	C 	0.92060 0.43170 0.30320 -0.35300
C 	C 	0.95730 0.41260 0.25800 0.26800
H 	H 	0.99950 0.41690 0.26220 -0.06500
C 	C 	0.93470 0.38760 0.20710 -0.34600
H 	H 	0.96120 0.37510 0.17620 0.13000
C 	C 	0.87490 0.38030 0.20000 0.27100
C 	C 	0.83740 0.40030 0.24230 -0.31200
H 	H 	0.79540 0.39600 0.23700 0.13600
C 	C 	0.85950 0.42730 0.29430 0.23600
H 	H 	0.83250 0.44270 0.32340 -0.04000
C 	C 	0.94200 0.45780 0.36060 0.69600
O 	O 	0.91720 0.49700 0.38980 -0.48900
O 	O 	0.90570 0.46010 0.40120 -0.43600
O 	O 	0.93570 0.37790 0.50500 -0.46800
O 	O 	0.99720 0.47240 0.35820 -0.41000
Zn	Zn	0.57819 0.53768 0.98415 1.06100
C 	C 	0.57940 0.56830 0.80320 -0.34900
C 	C 	0.54270 0.58740 0.75800 0.27200
H 	H 	0.50050 0.58310 0.76220 -0.04800
C 	C 	0.56530 0.61240 0.70710 -0.34900
H 	H 	0.53880 0.62490 0.67620 0.15400
C 	C 	0.62510 0.61970 0.70000 0.27500
C 	C 	0.66260 0.59970 0.74230 -0.31400
H 	H 	0.70460 0.60400 0.73700 0.13300
C 	C 	0.64050 0.57270 0.79430 0.23500
H 	H 	0.66750 0.55730 0.82340 -0.04400
C 	C 	0.55800 0.54220 0.86060 0.68800
O 	O 	0.58280 0.50300 0.88980 -0.47900
O 	O 	0.59430 0.53990 0.90120 -0.45100
O 	O 	0.56430 0.62210 0.00500 -0.44200
O 	O 	0.50280 0.52760 0.85820 -0.38400
Zn	Zn	0.07819 0.96232 0.01585 1.09600
C 	C 	0.07940 0.93170 0.19680 -0.35400
C 	C 	0.04270 0.91260 0.24200 0.27800
H 	H 	0.00050 0.91690 0.23780 -0.03800
C 	C 	0.06530 0.88760 0.29290 -0.36100
H 	H 	0.03880 0.87510 0.32380 0.17600
C 	C 	0.12510 0.88030 0.30000 0.28100
C 	C 	0.16260 0.90030 0.25770 -0.32400
H 	H 	0.20460 0.89600 0.26300 0.13300
C 	C 	0.14050 0.92730 0.20570 0.23800
H 	H 	0.16750 0.94270 0.17660 -0.05700
C 	C 	0.05800 0.95780 0.13940 0.68500
O 	O 	0.08280 0.99700 0.11020 -0.52000
O 	O 	0.09430 0.96010 0.09880 -0.41400
O 	O 	0.06430 0.87790 0.99500 -0.51400
O 	O 	0.00280 0.97240 0.14180 -0.40300
Zn	Zn	0.42181 0.03768 0.51585 1.10800
C 	C 	0.42060 0.06830 0.69680 -0.31000
C 	C 	0.45730 0.08740 0.74200 0.25700
H 	H 	0.49950 0.08310 0.73780 -0.03100
C 	C 	0.43470 0.11240 0.79290 -0.32400
H 	H 	0.46120 0.12490 0.82380 0.15100
C 	C 	0.37490 0.11970 0.80000 0.26900
C 	C 	0.33740 0.09970 0.75770 -0.29000
H 	H 	0.29540 0.10400 0.76300 0.14000
C 	C 	0.35950 0.07270 0.70570 0.22300
H 	H 	0.33250 0.05730 0.67660 -0.01400
C 	C 	0.44200 0.04220 0.63940 0.66100
O 	O 	0.41720 0.00300 0.61020 -0.42500
O 	O 	0.40570 0.03990 0.59880 -0.42800
O 	O 	0.43570 0.12210 0.49500 -0.45700
O 	O 	0.49720 0.02760 0.64180 -0.34800
Zn	Zn	0.48415 0.92181 0.46232 1.08300
C 	C 	0.30320 0.92060 0.43170 -0.35300
C 	C 	0.25800 0.95730 0.41260 0.26800
H 	H 	0.26220 0.99950 0.41690 -0.06500
C 	C 	0.20710 0.93470 0.38760 -0.34600
H 	H 	0.17620 0.96120 0.37510 0.13000
C 	C 	0.20000 0.87490 0.38030 0.27100
C 	C 	0.24230 0.83740 0.40030 -0.31200
H 	H 	0.23700 0.79540 0.39600 0.13600
C 	C 	0.29430 0.85950 0.42730 0.23600
H 	H 	0.32340 0.83250 0.44270 -0.04000
C 	C 	0.36060 0.94200 0.45780 0.69600
O 	O 	0.38980 0.91720 0.49700 -0.48900
O 	O 	0.40120 0.90570 0.46010 -0.43600
O 	O 	0.50500 0.93570 0.37790 -0.46800
O 	O 	0.35820 0.99720 0.47240 -0.41000
Zn	Zn	0.98415 0.57819 0.53768 1.06100
C 	C 	0.80320 0.57940 0.56830 -0.34900
C 	C 	0.75800 0.54270 0.58740 0.27200
H 	H 	0.76220 0.50050 0.58310 -0.04800
C 	C 	0.70710 0.56530 0.61240 -0.34900
H 	H 	0.67620 0.53880 0.62490 0.15400
C 	C 	0.70000 0.62510 0.61970 0.27500
C 	C 	0.74230 0.66260 0.59970 -0.31400
H 	H 	0.73700 0.70460 0.60400 0.13300
C 	C 	0.79430 0.64050 0.57270 0.23500
H 	H 	0.82340 0.66750 0.55730 -0.04400
C 	C 	0.86060 0.55800 0.54220 0.68800
O 	O 	0.88980 0.58280 0.50300 -0.47900
O 	O 	0.90120 0.59430 0.53990 -0.45100
O 	O 	0.00500 0.56430 0.62210 -0.44200
O 	O 	0.85820 0.50280 0.52760 -0.38400
Zn	Zn	0.01585 0.07819 0.96232 1.09600
C 	C 	0.19680 0.07940 0.93170 -0.35400
C 	C 	0.24200 0.04270 0.91260 0.27800
H 	H 	0.23780 0.00050 0.91690 -0.03800
C 	C 	0.29290 0.06530 0.88760 -0.36100
H 	H 	0.32380 0.03880 0.87510 0.17600
C 	C 	0.30000 0.12510 0.88030 0.28100
C 	C 	0.25770 0.16260 0.90030 -0.32400
H 	H 	0.26300 0.20460 0.89600 0.13300
C 	C 	0.20570 0.14050 0.92730 0.23800
H 	H 	0.17660 0.16750 0.94270 -0.05700
C 	C 	0.13940 0.05800 0.95780 0.68500
O 	O 	0.11020 0.08280 0.99700 -0.52000
O 	O 	0.09880 0.09430 0.96010 -0.41400
O 	O 	0.99500 0.06430 0.87790 -0.51400
O 	O 	0.14180 0.00280 0.97240 -0.40300
Zn	Zn	0.51585 0.42181 0.03768 1.10800
C 	C 	0.69680 0.42060 0.06830 -0.31000
C 	C 	0.74200 0.45730 0.08740 0.25700
H 	H 	0.73780 0.49950 0.08310 -0.03100
C 	C 	0.79290 0.43470 0.11240 -0.32400
H 	H 	0.82380 0.46120 0.12490 0.15100
C 	C 	0.80000 0.37490 0.11970 0.26900
C 	C 	0.75770 0.33740 0.09970 -0.29000
H 	H 	0.76300 0.29540 0.10400 0.14000
C 	C 	0.70570 0.35950 0.07270 0.22300
H 	H 	0.67660 0.33250 0.05730 -0.01400
C 	C 	0.63940 0.44200 0.04220 0.66100
O 	O 	0.61020 0.41720 0.00300 -0.42500
O 	O 	0.59880 0.40570 0.03990 -0.42800
O 	O 	0.49500 0.43570 0.12210 -0.45700
O 	O 	0.64180 0.49720 0.02760 -0.34800
Zn	Zn	0.46232 0.48415 0.92181 1.08300
C 	C 	0.43170 0.30320 0.92060 -0.35300
C 	C 	0.41260 0.25800 0.95730 0.26800
H 	H 	0.41690 0.26220 0.99950 -0.06500
C 	C 	0.38760 0.20710 0.93470 -0.34600
H 	H 	0.37510 0.17620 0.96120 0.13000
C 	C 	0.38030 0.20000 0.87490 0.27100
C 	C 	0.40030 0.24230 0.83740 -0.31200
H 	H 	0.39600 0.23700 0.79540 0.13600
C 	C 	0.42730 0.29430 0.85950 0.23600
H 	H 	0.44270 0.32340 0.83250 -0.04000
C 	C 	0.45780 0.36060 0.94200 0.69600
O 	O 	0.49700 0.38980 0.91720 -0.48900
O 	O 	0.46010 0.40120 0.90570 -0.43600
O 	O 	0.37790 0.50500 0.93570 -0.46800
O 	O 	0.47240 0.35820 0.99720 -0.41000
Zn	Zn	0.53768 0.98415 0.57819 1.06100
C 	C 	0.56830 0.80320 0.57940 -0.34900
C 	C 	0.58740 0.75800 0.54270 0.27200
H 	H 	0.58310 0.76220 0.50050 -0.04800
C 	C 	0.61240 0.70710 0.56530 -0.34900
H 	H 	0.62490 0.67620 0.53880 0.15400
C 	C 	0.61970 0.70000 0.62510 0.27500
C 	C 	0.59970 0.74230 0.66260 -0.31400
H 	H 	0.60400 0.73700 0.70460 0.13300
C 	C 	0.57270 0.79430 0.64050 0.23500
H 	H 	0.55730 0.82340 0.66750 -0.04400
C 	C 	0.54220 0.86060 0.55800 0.68800
O 	O 	0.50300 0.88980 0.58280 -0.47900
O 	O 	0.53990 0.90120 0.59430 -0.45100
O 	O 	0.62210 0.00500 0.56430 -0.44200
O 	O 	0.52760 0.85820 0.50280 -0.38400
Zn	Zn	0.96232 0.01585 0.07819 1.09600
C 	C 	0.93170 0.19680 0.07940 -0.35400
C 	C 	0.91260 0.24200 0.04270 0.27800
H 	H 	0.91690 0.23780 0.00050 -0.03800
C 	C 	0.88760 0.29290 0.06530 -0.36100
H 	H 	0.87510 0.32380 0.03880 0.17600
C 	C 	0.88030 0.30000 0.12510 0.28100
C 	C 	0.90030 0.25770 0.16260 -0.32400
H 	H 	0.89600 0.26300 0.20460 0.13300
C 	C 	0.92730 0.20570 0.14050 0.23800
H 	H 	0.94270 0.17660 0.16750 -0.05700
C 	C 	0.95780 0.13940 0.05800 0.68500
O 	O 	0.99700 0.11020 0.08280 -0.52000
O 	O 	0.96010 0.09880 0.09430 -0.41400
O 	O 	0.87790 0.99500 0.06430 -0.51400
O 	O 	0.97240 0.14180 0.00280 -0.40300
Zn	Zn	0.03768 0.51585 0.42181 1.10800
C 	C 	0.06830 0.69680 0.42060 -0.31000
C 	C 	0.08740 0.74200 0.45730 0.25700
H 	H 	0.08310 0.73780 0.49950 -0.03100
C 	C 	0.11240 0.79290 0.43470 -0.32400
H 	H 	0.12490 0.82380 0.46120 0.15100
C 	C 	0.11970 0.80000 0.37490 0.26900
C 	C 	0.09970 0.75770 0.33740 -0.29000
H 	H 	0.10400 0.76300 0.29540 0.14000
C 	C 	0.07270 0.70570 0.35950 0.22300
H 	H 	0.05730 0.67660 0.33250 -0.01400
C 	C 	0.04220 0.63940 0.44200 0.66100
O 	O 	0.00300 0.61020 0.41720 -0.42500
O 	O 	0.03990 0.59880 0.40570 -0.42800
O 	O 	0.12210 0.49500 0.43570 -0.45700
O 	O 	0.02760 0.64180 0.49720 -0.34800
Zn	Zn	0.04650 0.45350 0.54650 1.08300
Zn	Zn	0.45350 0.54650 0.04650 1.08300
Zn	Zn	0.95350 0.95350 0.95350 1.00800
Zn	Zn	0.54650 0.04650 0.45350 1.08300
Zn	Zn	0.95350 0.54650 0.45350 1.04800
Zn	Zn	0.54650 0.45350 0.95350 1.04800
Zn	Zn	0.04650 0.04650 0.04650 1.10800
Zn	Zn	0.45350 0.95350 0.54650 1.04800
N 	N 	0.14800 0.64800 0.85200 -0.24800
N 	N 	0.35200 0.35200 0.35200 -0.24700
N 	N 	0.85200 0.14800 0.64800 -0.24800
N 	N 	0.64800 0.85200 0.14800 -0.24800
N 	N 	0.85200 0.35200 0.14800 -0.24800
N 	N 	0.64800 0.64800 0.64800 -0.24900
N 	N 	0.14800 0.85200 0.35200 -0.24800
N 	N 	0.35200 0.14800 0.85200 -0.24800
O 	O 	0.00000 0.50000 0.50000 -1.58000
O 	O 	0.50000 0.50000 -0.00000 -1.58000
O 	O 	-0.00000 0.00000 -0.00000 -1.47500
O 	O 	0.50000 0.00000 0.50000 -1.58000
