data_crystal

_cell_length_a 12.27310
_cell_length_b 12.27310
_cell_length_c 25.13500
_cell_angle_alpha 90.00000
_cell_angle_beta  90.00000
_cell_angle_gamma 90.00000

_symmetry_space_group_name_	'P 1'
_symmetry_space_group_name_H-M	'P 1'

loop_
_symmetry_equiv_pos_as_xyz
  x,y,z

loop_
_atom_site_label
_atom_site_type_symbol
_atom_site_fract_x
_atom_site_fract_y
_atom_site_fract_z
_atom_site_charge
Cd	Cd	0.75000 0.75000 0.92322 1.19200
Cd	Cd	0.25000 0.25000 0.42322 1.19200
H 	H 	0.91900 0.57300 0.86940 -0.03800
H 	H 	0.93520 0.43500 0.80810 0.14400
H 	H 	0.63350 0.50460 0.75900 0.14200
H 	H 	0.62600 0.63790 0.82290 -0.03200
H 	H 	0.64770 0.32470 0.72780 0.04800
H 	H 	0.69320 0.40790 0.68560 0.04400
H 	H 	0.60170 0.17350 0.66090 0.05200
H 	H 	0.68150 0.15720 0.61240 0.05500
H 	H 	0.41940 0.11370 0.49720 -0.04100
H 	H 	0.54030 0.12130 0.56730 0.15100
H 	H 	0.49980 0.44360 0.56600 0.14300
H 	H 	0.37830 0.42300 0.49770 -0.05700
H 	H 	0.50870 0.77080 0.94750 0.15000
H 	H 	0.58100 0.92700 0.86940 -0.04000
H 	H 	0.56480 0.06500 0.80810 0.14300
H 	H 	0.86650 0.99540 0.75900 0.14100
H 	H 	0.87400 0.86210 0.82290 -0.03300
H 	H 	0.85230 0.17530 0.72780 0.04700
H 	H 	0.80680 0.09210 0.68560 0.04300
H 	H 	0.89830 0.32650 0.66090 0.05100
H 	H 	0.81850 0.34280 0.61240 0.05400
H 	H 	0.08060 0.38630 0.49720 -0.04200
H 	H 	0.95970 0.37870 0.56730 0.15000
H 	H 	0.00020 0.05640 0.56600 0.14200
H 	H 	0.12170 0.07700 0.49770 -0.05800
H 	H 	0.99130 0.72920 0.94750 0.15000
H 	H 	0.42700 0.41900 0.36940 -0.03900
H 	H 	0.56500 0.43520 0.30810 0.14300
H 	H 	0.49540 0.13350 0.25900 0.14100
H 	H 	0.36210 0.12600 0.32290 -0.03300
H 	H 	0.67530 0.14770 0.22780 0.04700
H 	H 	0.59210 0.19320 0.18560 0.04400
H 	H 	0.82650 0.10170 0.16090 0.05100
H 	H 	0.84280 0.18150 0.11240 0.05400
H 	H 	0.88630 0.91940 0.99720 -0.04000
H 	H 	0.87870 0.04030 0.06730 0.14800
H 	H 	0.55640 0.99980 0.06600 0.14100
H 	H 	0.57700 0.87830 0.99770 -0.05600
H 	H 	0.22920 0.00870 0.44750 0.15000
H 	H 	0.07300 0.08100 0.36940 -0.04000
H 	H 	0.93500 0.06480 0.30810 0.14300
H 	H 	0.00460 0.36650 0.25900 0.14100
H 	H 	0.13790 0.37400 0.32290 -0.03300
H 	H 	0.82470 0.35230 0.22780 0.04700
H 	H 	0.90790 0.30680 0.18560 0.04300
H 	H 	0.67350 0.39830 0.16090 0.05200
H 	H 	0.65720 0.31850 0.11240 0.05400
H 	H 	0.61370 0.58060 0.99720 -0.04200
H 	H 	0.62130 0.45970 0.06730 0.14900
H 	H 	0.94360 0.50020 0.06600 0.14100
H 	H 	0.92300 0.62170 0.99770 -0.05600
H 	H 	0.27080 0.49130 0.44750 0.15000
C 	C 	0.85990 0.55790 0.84754 0.15400
C 	C 	0.87110 0.47510 0.81030 -0.29400
C 	C 	0.78520 0.45390 0.77681 0.31300
C 	C 	0.69260 0.51600 0.78140 -0.29800
C 	C 	0.68900 0.59620 0.82030 0.15800
C 	C 	0.71170 0.34560 0.70753 0.01600
C 	C 	0.65570 0.20910 0.63868 -0.00200
C 	C 	0.43560 0.18160 0.51160 0.16800
C 	C 	0.51030 0.18470 0.55340 -0.31400
C 	C 	0.53730 0.28390 0.57272 0.31500
C 	C 	0.48540 0.37460 0.55240 -0.30300
C 	C 	0.41180 0.36120 0.51150 0.17200
C 	C 	0.64010 0.94210 0.84754 0.15500
C 	C 	0.62890 0.02490 0.81030 -0.29500
C 	C 	0.71480 0.04610 0.77681 0.31300
C 	C 	0.80740 0.98400 0.78140 -0.29700
C 	C 	0.81100 0.90380 0.82030 0.15800
C 	C 	0.78830 0.15440 0.70753 0.01600
C 	C 	0.84430 0.29090 0.63868 -0.00200
C 	C 	0.06440 0.31840 0.51160 0.16800
C 	C 	0.98970 0.31530 0.55340 -0.31400
C 	C 	0.96270 0.21610 0.57272 0.31500
C 	C 	0.01460 0.12540 0.55240 -0.30300
C 	C 	0.08820 0.13880 0.51150 0.17200
C 	C 	0.44210 0.35990 0.34754 0.15400
C 	C 	0.52490 0.37110 0.31030 -0.29400
C 	C 	0.54610 0.28520 0.27681 0.31300
C 	C 	0.48400 0.19260 0.28140 -0.29800
C 	C 	0.40380 0.18900 0.32030 0.15800
C 	C 	0.65440 0.21170 0.20753 0.01600
C 	C 	0.79090 0.15570 0.13868 -0.00200
C 	C 	0.81840 0.93560 0.01160 0.16300
C 	C 	0.81530 0.01030 0.05340 -0.31000
C 	C 	0.71610 0.03730 0.07272 0.31300
C 	C 	0.62540 0.98540 0.05240 -0.30100
C 	C 	0.63880 0.91180 0.01150 0.16900
C 	C 	0.05790 0.14010 0.34754 0.15500
C 	C 	0.97510 0.12890 0.31030 -0.29400
C 	C 	0.95390 0.21480 0.27681 0.31300
C 	C 	0.01600 0.30740 0.28140 -0.29800
C 	C 	0.09620 0.31100 0.32030 0.15800
C 	C 	0.84560 0.28830 0.20753 0.01600
C 	C 	0.70910 0.34430 0.13868 -0.00200
C 	C 	0.68160 0.56440 0.01160 0.16600
C 	C 	0.68470 0.48970 0.05340 -0.31200
C 	C 	0.78390 0.46270 0.07272 0.31300
C 	C 	0.87460 0.51460 0.05240 -0.30100
C 	C 	0.86120 0.58820 0.01150 0.16900
C 	C 	0.75000 0.25000 0.67250 0.02600
C 	C 	0.75000 0.25000 0.17250 0.02600
S 	S 	0.54178 0.72386 0.92154 -0.38500
S 	S 	0.95822 0.77614 0.92154 -0.38500
S 	S 	0.27614 0.04178 0.42154 -0.38500
S 	S 	0.22386 0.45822 0.42154 -0.38500
N 	N 	0.76980 0.61720 0.85394 -0.26500
N 	N 	0.38620 0.26680 0.49086 -0.27800
N 	N 	0.73020 0.88280 0.85394 -0.26500
N 	N 	0.11380 0.23320 0.49086 -0.27800
N 	N 	0.38280 0.26980 0.35394 -0.26500
N 	N 	0.73320 0.88620 0.99086 -0.27600
N 	N 	0.11720 0.23020 0.35394 -0.26500
N 	N 	0.76680 0.61380 0.99086 -0.27700
O 	O 	0.79930 0.37230 0.74258 -0.26000
O 	O 	0.60920 0.30250 0.61290 -0.25600
O 	O 	0.70070 0.12770 0.74258 -0.26000
O 	O 	0.89080 0.19750 0.61290 -0.25600
O 	O 	0.62770 0.29930 0.24258 -0.26000
O 	O 	0.69750 0.10920 0.11290 -0.25600
O 	O 	0.87230 0.20070 0.24258 -0.26000
O 	O 	0.80250 0.39080 0.11290 -0.25600
Cd	Cd	0.25000 0.25000 0.07678 1.19100
Cd	Cd	0.75000 0.75000 0.57678 1.19100
H 	H 	0.08100 0.42700 0.13060 -0.03900
H 	H 	0.06480 0.56500 0.19190 0.14300
H 	H 	0.36650 0.49540 0.24100 0.14100
H 	H 	0.37400 0.36210 0.17710 -0.03300
H 	H 	0.35230 0.67530 0.27220 0.04700
H 	H 	0.30680 0.59210 0.31440 0.04300
H 	H 	0.39830 0.82650 0.33910 0.05100
H 	H 	0.31850 0.84280 0.38760 0.05400
H 	H 	0.58060 0.88630 0.50280 -0.04200
H 	H 	0.45970 0.87870 0.43270 0.15000
H 	H 	0.50020 0.55640 0.43400 0.14200
H 	H 	0.62170 0.57700 0.50230 -0.05800
H 	H 	0.49130 0.22920 0.05250 0.15000
H 	H 	0.41900 0.07300 0.13060 -0.04000
H 	H 	0.43520 0.93500 0.19190 0.14300
H 	H 	0.13350 0.00460 0.24100 0.14100
H 	H 	0.12600 0.13790 0.17710 -0.03300
H 	H 	0.14770 0.82470 0.27220 0.04700
H 	H 	0.19320 0.90790 0.31440 0.04300
H 	H 	0.10170 0.67350 0.33910 0.05100
H 	H 	0.18150 0.65720 0.38760 0.05400
H 	H 	0.91940 0.61370 0.50280 -0.04200
H 	H 	0.04030 0.62130 0.43270 0.15000
H 	H 	0.99980 0.94360 0.43400 0.14200
H 	H 	0.87830 0.92300 0.50230 -0.05800
H 	H 	0.00870 0.27080 0.05250 0.15000
H 	H 	0.57300 0.58100 0.63060 -0.03900
H 	H 	0.43500 0.56480 0.69190 0.14300
H 	H 	0.50460 0.86650 0.74100 0.14100
H 	H 	0.63790 0.87400 0.67710 -0.03300
H 	H 	0.32470 0.85230 0.77220 0.04700
H 	H 	0.40790 0.80680 0.81440 0.04400
H 	H 	0.17350 0.89830 0.83910 0.05100
H 	H 	0.15720 0.81850 0.88760 0.05400
H 	H 	0.11370 0.08060 0.00280 -0.04000
H 	H 	0.12130 0.95970 0.93270 0.14800
H 	H 	0.44360 0.00020 0.93400 0.14100
H 	H 	0.42300 0.12170 0.00230 -0.05600
H 	H 	0.77080 0.99130 0.55250 0.15000
H 	H 	0.92700 0.91900 0.63060 -0.04000
H 	H 	0.06500 0.93520 0.69190 0.14300
H 	H 	0.99540 0.63350 0.74100 0.14100
H 	H 	0.86210 0.62600 0.67710 -0.03300
H 	H 	0.17530 0.64770 0.77220 0.04700
H 	H 	0.09210 0.69320 0.81440 0.04300
H 	H 	0.32650 0.60170 0.83910 0.05200
H 	H 	0.34280 0.68150 0.88760 0.05400
H 	H 	0.38630 0.41940 0.00280 -0.04200
H 	H 	0.37870 0.54030 0.93270 0.14900
H 	H 	0.05640 0.49980 0.93400 0.14100
H 	H 	0.07700 0.37830 0.00230 -0.05600
H 	H 	0.72920 0.50870 0.55250 0.15000
C 	C 	0.14010 0.44210 0.15246 0.15400
C 	C 	0.12890 0.52490 0.18970 -0.29400
C 	C 	0.21480 0.54610 0.22319 0.31300
C 	C 	0.30740 0.48400 0.21860 -0.29800
C 	C 	0.31100 0.40380 0.17970 0.15800
C 	C 	0.28830 0.65440 0.29247 0.01600
C 	C 	0.34430 0.79090 0.36132 -0.00200
C 	C 	0.56440 0.81840 0.48840 0.16800
C 	C 	0.48970 0.81530 0.44660 -0.31400
C 	C 	0.46270 0.71610 0.42728 0.31500
C 	C 	0.51460 0.62540 0.44760 -0.30300
C 	C 	0.58820 0.63880 0.48850 0.17200
C 	C 	0.35990 0.05790 0.15246 0.15500
C 	C 	0.37110 0.97510 0.18970 -0.29500
C 	C 	0.28520 0.95390 0.22319 0.31300
C 	C 	0.19260 0.01600 0.21860 -0.29700
C 	C 	0.18900 0.09620 0.17970 0.15800
C 	C 	0.21170 0.84560 0.29247 0.01600
C 	C 	0.15570 0.70910 0.36132 -0.00200
C 	C 	0.93560 0.68160 0.48840 0.16800
C 	C 	0.01030 0.68470 0.44660 -0.31400
C 	C 	0.03730 0.78390 0.42728 0.31500
C 	C 	0.98540 0.87460 0.44760 -0.30300
C 	C 	0.91180 0.86120 0.48850 0.17200
C 	C 	0.55790 0.64010 0.65246 0.15400
C 	C 	0.47510 0.62890 0.68970 -0.29400
C 	C 	0.45390 0.71480 0.72319 0.31300
C 	C 	0.51600 0.80740 0.71860 -0.29800
C 	C 	0.59620 0.81100 0.67970 0.15800
C 	C 	0.34560 0.78830 0.79247 0.01600
C 	C 	0.20910 0.84430 0.86132 -0.00200
C 	C 	0.18160 0.06440 0.98840 0.16300
C 	C 	0.18470 0.98970 0.94660 -0.31000
C 	C 	0.28390 0.96270 0.92728 0.31300
C 	C 	0.37460 0.01460 0.94760 -0.30100
C 	C 	0.36120 0.08820 0.98850 0.16900
C 	C 	0.94210 0.85990 0.65246 0.15500
C 	C 	0.02490 0.87110 0.68970 -0.29400
C 	C 	0.04610 0.78520 0.72319 0.31300
C 	C 	0.98400 0.69260 0.71860 -0.29800
C 	C 	0.90380 0.68900 0.67970 0.15800
C 	C 	0.15440 0.71170 0.79247 0.01600
C 	C 	0.29090 0.65570 0.86132 -0.00200
C 	C 	0.31840 0.43560 0.98840 0.16600
C 	C 	0.31530 0.51030 0.94660 -0.31200
C 	C 	0.21610 0.53730 0.92728 0.31300
C 	C 	0.12540 0.48540 0.94760 -0.30100
C 	C 	0.13880 0.41180 0.98850 0.16900
C 	C 	0.25000 0.75000 0.32750 0.02600
C 	C 	0.25000 0.75000 0.82750 0.02600
S 	S 	0.45822 0.27614 0.07846 -0.38500
S 	S 	0.04178 0.22386 0.07846 -0.38500
S 	S 	0.72386 0.95822 0.57846 -0.38500
S 	S 	0.77614 0.54178 0.57846 -0.38500
N 	N 	0.23020 0.38280 0.14606 -0.26500
N 	N 	0.61380 0.73320 0.50914 -0.27800
N 	N 	0.26980 0.11720 0.14606 -0.26500
N 	N 	0.88620 0.76680 0.50914 -0.27800
N 	N 	0.61720 0.73020 0.64606 -0.26500
N 	N 	0.26680 0.11380 0.00914 -0.27600
N 	N 	0.88280 0.76980 0.64606 -0.26500
N 	N 	0.23320 0.38620 0.00914 -0.27700
O 	O 	0.20070 0.62770 0.25742 -0.26000
O 	O 	0.39080 0.69750 0.38710 -0.25600
O 	O 	0.29930 0.87230 0.25742 -0.26000
O 	O 	0.10920 0.80250 0.38710 -0.25600
O 	O 	0.37230 0.70070 0.75742 -0.26000
O 	O 	0.30250 0.89080 0.88710 -0.25600
O 	O 	0.12770 0.79930 0.75742 -0.26000
O 	O 	0.19750 0.60920 0.88710 -0.25600
