data_crystal

_cell_length_a 14.69100
_cell_length_b 14.81800
_cell_length_c 17.71300
_cell_angle_alpha 98.13000
_cell_angle_beta  93.10000
_cell_angle_gamma 115.29000

_symmetry_space_group_name_	'P 1'
_symmetry_space_group_name_H-M	'P 1'

loop_
_symmetry_equiv_pos_as_xyz
  x,y,z

loop_
_atom_site_label
_atom_site_type_symbol
_atom_site_fract_x
_atom_site_fract_y
_atom_site_fract_z
_atom_site_charge
Mn	Mn	0.96982 0.00857 0.21754 1.26100
Mn	Mn	0.75557 0.76153 0.25770 1.29200
Mn	Mn	0.51390 0.54040 0.28340 1.22800
C 	C 	0.07610 0.43430 0.12040 -0.03400
O 	O 	0.86670 0.91500 0.30130 -0.47900
O 	O 	0.64260 0.56040 0.35760 -0.50300
O 	O 	0.95920 0.46090 0.19700 -0.16500
O 	O 	0.10080 0.11970 0.08270 -0.47800
O 	O 	0.36340 0.19640 0.70760 -0.45200
O 	O 	0.86440 0.75080 0.18280 -0.47200
O 	O 	0.56280 0.87640 0.86640 -0.18300
O 	O 	0.60640 0.88610 0.62930 -0.20100
C 	C 	0.03010 0.58210 0.11380 -0.06100
O 	O 	0.47620 0.31530 0.64970 -0.45100
O 	O 	0.33900 0.83920 0.10490 -0.20500
O 	O 	0.22340 0.60180 0.99300 -0.16800
O 	O 	0.04170 0.15860 0.19410 -0.44300
O 	O 	0.67260 0.18990 0.46620 -0.20400
C 	C 	0.09350 0.61290 0.06150 0.02500
O 	O 	0.79120 0.68190 0.33760 -0.47800
C 	C 	0.50660 0.85730 0.91940 0.10300
C 	C 	0.69190 0.97330 0.52890 0.00600
C 	C 	0.10230 0.69750 0.03040 -0.10800
H 	H 	0.14550 0.71640 0.99170 0.10400
C 	C 	0.05720 0.33920 0.14080 -0.01800
H 	H 	0.00760 0.31100 0.17380 0.05500
C 	C 	0.45910 0.79210 0.03990 -0.05800
O 	O 	0.10920 0.64340 0.41530 -0.17500
C 	C 	0.36920 0.89220 0.98490 -0.03100
C 	C 	0.99230 0.73020 0.11150 -0.05300
C 	C 	0.66000 0.12600 0.50430 0.14900
C 	C 	0.59550 0.11120 0.56780 -0.04000
C 	C 	0.05150 0.75610 0.05290 -0.01400
H 	H 	0.05750 0.81150 0.02890 0.02200
C 	C 	0.48850 0.15930 0.64680 -0.08100
C 	C 	0.73250 0.90160 0.50880 -0.03700
H 	H 	0.71600 0.84630 0.53530 0.05200
O 	O 	0.92360 0.08620 0.32070 -0.34500
C 	C 	0.70980 0.05090 0.48680 -0.02600
C 	C 	0.55100 0.17550 0.58630 0.00500
H 	H 	0.56180 0.22950 0.55930 0.05300
O 	O 	0.97160 0.88100 0.13280 -0.47900
C 	C 	0.78890 0.44840 0.49760 -0.04700
H 	H 	0.75430 0.40560 0.53210 0.06800
C 	C 	0.02210 0.49290 0.15440 0.11400
C 	C 	0.62290 0.95480 0.59150 0.13000
C 	C 	0.08480 0.18120 0.13310 0.31400
C 	C 	0.42260 0.89180 0.91920 0.02600
C 	C 	0.20780 0.42000 0.03950 -0.06600
H 	H 	0.25850 0.44910 0.00740 0.06000
C 	C 	0.40560 0.94070 0.85830 -0.08500
H 	H 	0.44610 0.95140 0.81740 0.08400
C 	C 	0.14340 0.46960 0.07170 0.00200
C 	C 	0.57270 0.02560 0.60890 0.00700
C 	C 	0.81030 0.99060 0.40570 -0.00000
C 	C 	0.11150 0.28740 0.11230 -0.08300
O 	O 	0.46760 0.58840 0.18650 -0.44800
O 	O 	0.62800 0.64140 0.17710 -0.50100
C 	C 	0.43300 0.22980 0.66680 0.38200
C 	C 	0.18340 0.32160 0.06320 -0.01500
H 	H 	0.21710 0.28210 0.04480 0.03000
C 	C 	0.94730 0.54410 0.45490 0.02500
C 	C 	0.79230 0.91090 0.45400 -0.04100
H 	H 	0.82390 0.86680 0.44550 0.04700
C 	C 	0.51150 0.01070 0.66460 -0.09700
H 	H 	0.49710 0.95490 0.69030 0.09900
C 	C 	0.05220 0.57270 0.45280 0.05900
C 	C 	0.54570 0.63760 0.15290 0.36400
C 	C 	0.96940 0.63670 0.14090 0.02400
H 	H 	0.91980 0.61240 0.17480 0.05400
C 	C 	0.51700 0.80810 0.97940 0.02700
C 	C 	0.79530 0.56370 0.41680 -0.06400
C 	C 	0.87160 0.00430 0.34040 0.21500
C 	C 	0.77160 0.06550 0.42810 -0.06000
H 	H 	0.78820 0.12240 0.40350 0.08200
C 	C 	0.53890 0.70040 0.09730 -0.12400
C 	C 	0.59310 0.70680 0.04230 -0.00200
H 	H 	0.63200 0.66950 0.03720 0.02500
C 	C 	0.73830 0.61030 0.36400 0.40500
C 	C 	0.38040 0.83700 0.04990 0.15300
C 	C 	0.59430 0.77540 0.98460 -0.05300
H 	H 	0.64670 0.79580 0.95260 0.06500
C 	C 	0.16050 0.56360 0.03390 0.08700
C 	C 	0.88490 0.46420 0.49110 -0.00200
C 	C 	0.28950 0.91850 0.98140 0.05100
H 	H 	0.24660 0.90680 0.02090 0.02900
C 	C 	0.32990 0.97140 0.86090 0.05500
H 	H 	0.31680 0.00060 0.81970 0.01700
C 	C 	0.89750 0.58800 0.41270 -0.02400
H 	H 	0.93420 0.63460 0.38110 0.07800
C 	C 	0.46860 0.07990 0.68450 0.02600
H 	H 	0.42610 0.07050 0.72410 0.03500
C 	C 	0.93470 0.79430 0.14840 0.39900
C 	C 	0.46670 0.73840 0.09510 0.02700
H 	H 	0.42160 0.72670 0.13300 0.05100
C 	C 	0.73380 0.49080 0.45640 -0.00900
H 	H 	0.66320 0.47110 0.45650 0.03500
C 	C 	0.27110 0.96170 0.92150 -0.10200
O 	O 	0.16620 0.02230 0.85460 -0.46300
O 	O 	0.12200 0.97050 0.96740 -0.45700
C 	C 	0.17870 0.99050 0.91650 0.39100
Mn	Mn	0.03018 0.99143 0.78246 1.26100
Mn	Mn	0.24443 0.23847 0.74230 1.29100
Mn	Mn	0.48610 0.45960 0.71660 1.22900
C 	C 	0.92390 0.56570 0.87960 -0.02400
O 	O 	0.13330 0.08500 0.69870 -0.52500
O 	O 	0.35740 0.43960 0.64240 -0.50500
O 	O 	0.04080 0.53910 0.80300 -0.23000
O 	O 	0.89920 0.88030 0.91730 -0.43300
O 	O 	0.63660 0.80360 0.29240 -0.45000
O 	O 	0.13560 0.24920 0.81720 -0.47500
O 	O 	0.43720 0.12360 0.13360 -0.20200
O 	O 	0.39360 0.11390 0.37070 -0.20600
C 	C 	0.96990 0.41790 0.88620 0.01400
O 	O 	0.52380 0.68470 0.35030 -0.45100
O 	O 	0.66100 0.16080 0.89510 -0.20900
O 	O 	0.77660 0.39820 0.00700 -0.23200
O 	O 	0.95830 0.84140 0.80590 -0.40400
O 	O 	0.32740 0.81010 0.53380 -0.20300
C 	C 	0.90650 0.38710 0.93850 -0.02400
O 	O 	0.20880 0.31810 0.66240 -0.48600
C 	C 	0.49340 0.14270 0.08060 0.11500
C 	C 	0.30810 0.02670 0.47110 -0.02400
C 	C 	0.89770 0.30250 0.96960 0.00600
H 	H 	0.85450 0.28360 0.00830 0.04200
C 	C 	0.94280 0.66080 0.85920 -0.01100
H 	H 	0.99240 0.68900 0.82620 0.07500
C 	C 	0.54090 0.20790 0.96010 -0.00800
O 	O 	0.89080 0.35660 0.58470 -0.17700
C 	C 	0.63080 0.10780 0.01510 -0.02800
C 	C 	0.00770 0.26980 0.88850 -0.09000
C 	C 	0.34000 0.87400 0.49570 0.15000
C 	C 	0.40450 0.88880 0.43220 -0.02900
C 	C 	0.94850 0.24390 0.94710 0.01800
H 	H 	0.94250 0.18850 0.97110 0.04500
C 	C 	0.51150 0.84070 0.35320 -0.06400
C 	C 	0.26750 0.09840 0.49120 -0.05600
H 	H 	0.28400 0.15370 0.46470 0.05200
O 	O 	0.07640 0.91380 0.67930 -0.38100
C 	C 	0.29020 0.94910 0.51320 -0.00700
C 	C 	0.44900 0.82450 0.41370 -0.00600
H 	H 	0.43820 0.77050 0.44070 0.05600
O 	O 	0.02840 0.11900 0.86720 -0.50900
C 	C 	0.21110 0.55160 0.50240 -0.08900
H 	H 	0.24570 0.59440 0.46790 0.08000
C 	C 	0.97790 0.50710 0.84560 0.17400
C 	C 	0.37710 0.04520 0.40850 0.10700
C 	C 	0.91520 0.81880 0.86690 0.31100
C 	C 	0.57740 0.10820 0.08080 -0.01400
C 	C 	0.79220 0.58000 0.96050 -0.04500
H 	H 	0.74150 0.55090 0.99260 0.07100
C 	C 	0.59440 0.05930 0.14170 -0.01800
H 	H 	0.55390 0.04860 0.18260 0.05000
C 	C 	0.85660 0.53040 0.92830 -0.00800
C 	C 	0.42730 0.97440 0.39110 0.01200
C 	C 	0.18970 0.00940 0.59430 -0.09900
C 	C 	0.88850 0.71260 0.88770 -0.06300
O 	O 	0.53240 0.41160 0.81350 -0.44500
O 	O 	0.37200 0.35860 0.82290 -0.49900
C 	C 	0.56700 0.77020 0.33320 0.37700
C 	C 	0.81660 0.67840 0.93680 -0.01500
H 	H 	0.78290 0.71790 0.95520 0.04400
C 	C 	0.05270 0.45590 0.54510 -0.08200
C 	C 	0.20770 0.08910 0.54600 -0.01300
H 	H 	0.17610 0.13320 0.55450 0.02600
C 	C 	0.48850 0.98930 0.33540 -0.01500
H 	H 	0.50290 0.04510 0.30970 0.04900
C 	C 	0.94780 0.42730 0.54720 0.15400
C 	C 	0.45430 0.36240 0.84710 0.37100
C 	C 	0.03060 0.36330 0.85910 -0.03700
H 	H 	0.08020 0.38760 0.82520 0.06800
C 	C 	0.48300 0.19190 0.02060 -0.02500
C 	C 	0.20470 0.43630 0.58320 -0.09600
C 	C 	0.12840 0.99570 0.65960 0.30700
C 	C 	0.22840 0.93450 0.57190 0.00200
H 	H 	0.21180 0.87760 0.59650 0.06100
C 	C 	0.46110 0.29960 0.90270 -0.13500
C 	C 	0.40690 0.29320 0.95770 0.05200
H 	H 	0.36800 0.33050 0.96280 0.02300
C 	C 	0.26170 0.38970 0.63600 0.41300
C 	C 	0.61960 0.16300 0.95010 0.17100
C 	C 	0.40570 0.22460 0.01540 -0.10000
H 	H 	0.35330 0.20420 0.04740 0.06600
C 	C 	0.83950 0.43640 0.96610 0.17800
C 	C 	0.11510 0.53580 0.50890 0.04900
C 	C 	0.71050 0.08150 0.01860 -0.06900
H 	H 	0.75340 0.09320 0.97910 0.09700
C 	C 	0.67010 0.02860 0.13910 -0.07600
H 	H 	0.68320 0.99940 0.18030 0.08700
C 	C 	0.10250 0.41200 0.58730 0.02500
H 	H 	0.06580 0.36540 0.61890 0.04500
C 	C 	0.53140 0.92010 0.31550 -0.00800
H 	H 	0.57390 0.92950 0.27590 0.05400
C 	C 	0.06530 0.20570 0.85160 0.40900
C 	C 	0.53330 0.26160 0.90490 0.02100
H 	H 	0.57840 0.27330 0.86700 0.05500
C 	C 	0.26620 0.50920 0.54360 0.02000
H 	H 	0.33680 0.52890 0.54350 0.02500
C 	C 	0.72890 0.03830 0.07850 -0.02900
O 	O 	0.83380 0.97770 0.14540 -0.41100
O 	O 	0.87800 0.02950 0.03260 -0.45800
C 	C 	0.82130 0.00950 0.08350 0.31800
Mn	Mn	-0.00000 0.00000 -0.00000 1.26000
