data_crystal

_cell_length_a 16.54920
_cell_length_b 14.85230
_cell_length_c 17.73130
_cell_angle_alpha 90.00000
_cell_angle_beta  112.75800
_cell_angle_gamma 90.00000

_symmetry_space_group_name_	'P 1'
_symmetry_space_group_name_H-M	'P 1'

loop_
_symmetry_equiv_pos_as_xyz
  x,y,z

loop_
_atom_site_label
_atom_site_type_symbol
_atom_site_fract_x
_atom_site_fract_y
_atom_site_fract_z
_atom_site_charge
C 	C 	0.87900 0.81100 0.31870 0.35900
C 	C 	0.78640 0.79310 0.30630 -0.21200
C 	C 	0.75930 0.71160 0.32550 0.20800
H 	H 	0.80080 0.66640 0.34680 -0.03600
C 	C 	0.67270 0.69350 0.31460 -0.38500
C 	C 	0.61470 0.76520 0.28590 0.21400
H 	H 	0.55660 0.75780 0.27950 -0.05800
C 	C 	0.64170 0.84780 0.26660 -0.24700
H 	H 	0.60140 0.89450 0.24740 0.12100
C 	C 	0.72650 0.86100 0.27550 0.15500
H 	H 	0.74350 0.91580 0.26080 -0.00400
C 	C 	0.82680 0.32990 0.54640 0.43700
C 	C 	0.79630 0.42650 0.53500 -0.22300
C 	C 	0.74440 0.45750 0.45830 0.20200
H 	H 	0.72940 0.41840 0.41390 -0.03300
C 	C 	0.71350 0.54660 0.44530 -0.38100
C 	C 	0.73860 0.60420 0.51140 0.21600
H 	H 	0.72040 0.66400 0.50370 -0.05300
C 	C 	0.79070 0.57400 0.58930 -0.24600
H 	H 	0.80580 0.61290 0.63380 0.12800
C 	C 	0.82010 0.48560 0.60050 0.15700
H 	H 	0.85610 0.46580 0.65240 0.00100
C 	C 	0.73510 0.42940 0.11510 0.43200
C 	C 	0.68930 0.42260 0.17090 -0.26300
C 	C 	0.68450 0.49630 0.21780 0.24800
H 	H 	0.71270 0.54950 0.21460 -0.04700
C 	C 	0.63940 0.49290 0.26870 -0.40900
C 	C 	0.59690 0.41060 0.27000 0.24900
H 	H 	0.56360 0.40630 0.30170 -0.07000
C 	C 	0.60310 0.33780 0.22650 -0.29800
H 	H 	0.57650 0.28380 0.23040 0.14000
C 	C 	0.64870 0.34460 0.17680 0.21100
H 	H 	0.65200 0.29480 0.14630 -0.02300
C 	C 	0.29030 0.61000 0.17300 0.38100
C 	C 	0.36490 0.59850 0.25540 -0.20800
C 	C 	0.45210 0.59410 0.26140 0.18700
H 	H 	0.46310 0.59580 0.21380 -0.03200
C 	C 	0.52180 0.58730 0.33590 -0.37500
C 	C 	0.50250 0.58380 0.40590 0.20000
H 	H 	0.54780 0.57930 0.45710 -0.05100
C 	C 	0.41630 0.58690 0.39960 -0.24200
H 	H 	0.40420 0.58330 0.44650 0.11700
C 	C 	0.34870 0.59540 0.32430 0.15000
H 	H 	0.29130 0.59900 0.32090 -0.00300
C 	C 	0.11790 0.78310 0.22650 0.00400
H 	H 	0.15140 0.73340 0.25210 0.04600
C 	C 	0.11150 0.81770 0.15470 0.01100
H 	H 	0.13940 0.79690 0.12150 0.04200
C 	C 	0.03110 0.89540 0.20220 0.10800
H 	H 	0.99300 0.93890 0.20700 -0.00100
N 	N 	0.06680 0.83280 0.25610 -0.25900
N 	N 	0.05590 0.88950 0.13970 -0.13800
O 	O 	0.90210 0.88430 0.30050 -0.34700
O 	O 	0.93430 0.74760 0.34830 -0.43800
O 	O 	0.88040 0.30750 0.61340 -0.49800
O 	O 	0.79270 0.27900 0.48410 -0.48200
O 	O 	0.21710 0.62580 0.16980 -0.32200
O 	O 	0.31000 0.60740 0.11030 -0.45600
O 	O 	0.73060 0.36000 0.07180 -0.48400
O 	O 	0.77430 0.49660 0.11340 -0.33100
O 	O 	0.09630 0.88910 0.45040 -0.53500
C 	C 	0.02750 0.94650 0.06820 0.08300
Si	Si	0.63725 0.58249 0.34062 0.93500
Zn	Zn	0.04732 0.80535 0.35899 1.21400
Zn	Zn	0.21712 0.85496 0.50932 1.23100
C 	C 	0.99830 0.90710 0.99180 -0.06300
H 	H 	0.99810 0.84480 0.98670 0.06200
C 	C 	0.03060 0.03880 0.07710 -0.07400
H 	H 	0.05190 0.06460 0.12900 0.07700
C 	C 	0.12100 0.31100 0.18130 0.36000
C 	C 	0.21360 0.29310 0.19370 -0.21100
C 	C 	0.24070 0.21160 0.17450 0.20900
H 	H 	0.19920 0.16640 0.15320 -0.03400
C 	C 	0.32730 0.19350 0.18540 -0.38500
C 	C 	0.38530 0.26520 0.21410 0.21400
H 	H 	0.44340 0.25780 0.22050 -0.05800
C 	C 	0.35830 0.34780 0.23340 -0.24700
H 	H 	0.39860 0.39450 0.25260 0.12100
C 	C 	0.27350 0.36100 0.22450 0.15500
H 	H 	0.25650 0.41580 0.23920 -0.00400
C 	C 	0.17320 0.82990 0.95360 0.43600
C 	C 	0.20370 0.92650 0.96500 -0.21800
C 	C 	0.25560 0.95750 0.04170 0.19500
H 	H 	0.27060 0.91840 0.08610 -0.03100
C 	C 	0.28650 0.04660 0.05470 -0.37600
C 	C 	0.26140 0.10420 0.98860 0.21100
H 	H 	0.27960 0.16400 0.99630 -0.05100
C 	C 	0.20930 0.07400 0.91070 -0.23800
H 	H 	0.19420 0.11290 0.86620 0.12600
C 	C 	0.17990 0.98560 0.89950 0.14800
H 	H 	0.14390 0.96580 0.84760 0.00300
C 	C 	0.26490 0.92940 0.38490 0.43100
C 	C 	0.31070 0.92260 0.32910 -0.26100
C 	C 	0.31550 0.99630 0.28220 0.24300
H 	H 	0.28730 0.04950 0.28540 -0.04400
C 	C 	0.36060 0.99290 0.23130 -0.40800
C 	C 	0.40310 0.91060 0.23000 0.24800
H 	H 	0.43640 0.90630 0.19830 -0.06900
C 	C 	0.39690 0.83780 0.27350 -0.29700
H 	H 	0.42350 0.78380 0.26960 0.13900
C 	C 	0.35130 0.84460 0.32320 0.20900
H 	H 	0.34800 0.79480 0.35370 -0.02200
C 	C 	0.70970 0.11000 0.32700 0.38100
C 	C 	0.63510 0.09850 0.24460 -0.20800
C 	C 	0.54790 0.09410 0.23860 0.18700
H 	H 	0.53690 0.09580 0.28620 -0.03200
C 	C 	0.47820 0.08730 0.16410 -0.37500
C 	C 	0.49750 0.08380 0.09410 0.20000
H 	H 	0.45220 0.07930 0.04290 -0.05100
C 	C 	0.58370 0.08690 0.10040 -0.24100
H 	H 	0.59580 0.08330 0.05350 0.11700
C 	C 	0.65130 0.09540 0.17570 0.15000
H 	H 	0.70870 0.09900 0.17910 -0.00300
C 	C 	0.88210 0.28310 0.27350 0.00400
H 	H 	0.84860 0.23340 0.24790 0.04600
C 	C 	0.88850 0.31770 0.34530 0.01100
H 	H 	0.86060 0.29690 0.37850 0.04200
C 	C 	0.96890 0.39540 0.29780 0.11600
H 	H 	0.00700 0.43890 0.29300 -0.00600
N 	N 	0.93320 0.33280 0.24390 -0.26000
N 	N 	0.94410 0.38950 0.36030 -0.14000
O 	O 	0.09790 0.38430 0.19950 -0.34800
O 	O 	0.06570 0.24760 0.15170 -0.43800
O 	O 	0.11960 0.80750 0.88660 -0.49800
O 	O 	0.20730 0.77900 0.01590 -0.48200
O 	O 	0.78290 0.12580 0.33020 -0.32200
O 	O 	0.69000 0.10740 0.38970 -0.45700
O 	O 	0.26940 0.86000 0.42820 -0.48400
O 	O 	0.22570 0.99660 0.38660 -0.33200
O 	O 	0.90370 0.38910 0.04960 -0.53400
C 	C 	0.97250 0.44650 0.43180 0.09000
Si	Si	0.36275 0.08249 0.15938 0.93300
Zn	Zn	0.95268 0.30535 0.14101 1.21400
Zn	Zn	0.78288 0.35496 0.99068 1.23000
C 	C 	0.00170 0.40710 0.50820 -0.06700
H 	H 	0.00190 0.34480 0.51330 0.06300
C 	C 	0.96940 0.53880 0.42290 -0.07900
H 	H 	0.94810 0.56460 0.37100 0.07800
C 	C 	0.12100 0.18900 0.68130 0.36000
C 	C 	0.21360 0.20690 0.69370 -0.21100
C 	C 	0.24070 0.28840 0.67450 0.20900
H 	H 	0.19920 0.33360 0.65320 -0.03500
C 	C 	0.32730 0.30650 0.68540 -0.38500
C 	C 	0.38530 0.23480 0.71410 0.21400
H 	H 	0.44340 0.24220 0.72050 -0.05800
C 	C 	0.35830 0.15220 0.73340 -0.24700
H 	H 	0.39860 0.10550 0.75260 0.12100
C 	C 	0.27350 0.13900 0.72450 0.15500
H 	H 	0.25650 0.08420 0.73920 -0.00400
C 	C 	0.17320 0.67010 0.45360 0.43700
C 	C 	0.20370 0.57350 0.46500 -0.22300
C 	C 	0.25560 0.54250 0.54170 0.20200
H 	H 	0.27060 0.58160 0.58610 -0.03300
C 	C 	0.28650 0.45340 0.55470 -0.38100
C 	C 	0.26140 0.39580 0.48860 0.21600
H 	H 	0.27960 0.33600 0.49630 -0.05300
C 	C 	0.20930 0.42600 0.41070 -0.24600
H 	H 	0.19420 0.38710 0.36620 0.12800
C 	C 	0.17990 0.51440 0.39950 0.15700
H 	H 	0.14390 0.53420 0.34760 0.00100
C 	C 	0.26490 0.57060 0.88490 0.43200
C 	C 	0.31070 0.57740 0.82910 -0.26300
C 	C 	0.31550 0.50370 0.78220 0.24800
H 	H 	0.28730 0.45050 0.78540 -0.04700
C 	C 	0.36060 0.50710 0.73130 -0.40900
C 	C 	0.40310 0.58940 0.73000 0.24900
H 	H 	0.43640 0.59370 0.69830 -0.07000
C 	C 	0.39690 0.66220 0.77350 -0.29800
H 	H 	0.42350 0.71620 0.76960 0.14000
C 	C 	0.35130 0.65540 0.82320 0.21100
H 	H 	0.34800 0.70520 0.85370 -0.02300
C 	C 	0.70970 0.39000 0.82700 0.38100
C 	C 	0.63510 0.40150 0.74460 -0.20800
C 	C 	0.54790 0.40590 0.73860 0.18700
H 	H 	0.53690 0.40420 0.78620 -0.03200
C 	C 	0.47820 0.41270 0.66410 -0.37500
C 	C 	0.49750 0.41620 0.59410 0.20000
H 	H 	0.45220 0.42070 0.54290 -0.05100
C 	C 	0.58370 0.41310 0.60040 -0.24200
H 	H 	0.59580 0.41670 0.55350 0.11700
C 	C 	0.65130 0.40460 0.67570 0.15000
H 	H 	0.70870 0.40100 0.67910 -0.00300
C 	C 	0.88210 0.21690 0.77350 0.00400
H 	H 	0.84860 0.26660 0.74790 0.04600
C 	C 	0.88850 0.18230 0.84530 0.01100
H 	H 	0.86060 0.20310 0.87850 0.04200
C 	C 	0.96890 0.10460 0.79780 0.10800
H 	H 	0.00700 0.06110 0.79300 -0.00100
N 	N 	0.93320 0.16720 0.74390 -0.25900
N 	N 	0.94410 0.11050 0.86030 -0.13800
O 	O 	0.09790 0.11570 0.69950 -0.34700
O 	O 	0.06570 0.25240 0.65170 -0.43800
O 	O 	0.11960 0.69250 0.38660 -0.49800
O 	O 	0.20730 0.72100 0.51590 -0.48200
O 	O 	0.78290 0.37420 0.83020 -0.32200
O 	O 	0.69000 0.39260 0.88970 -0.45600
O 	O 	0.26940 0.64000 0.92820 -0.48400
O 	O 	0.22570 0.50340 0.88660 -0.33100
O 	O 	0.90370 0.11090 0.54960 -0.53500
C 	C 	0.97250 0.05350 0.93180 0.08300
Si	Si	0.36275 0.41751 0.65938 0.93500
Zn	Zn	0.95268 0.19465 0.64101 1.21400
Zn	Zn	0.78288 0.14504 0.49068 1.23100
C 	C 	0.00170 0.09290 0.00820 -0.06300
H 	H 	0.00190 0.15520 0.01330 0.06200
C 	C 	0.96940 0.96120 0.92290 -0.07400
H 	H 	0.94810 0.93540 0.87100 0.07700
C 	C 	0.87900 0.68900 0.81870 0.36000
C 	C 	0.78640 0.70690 0.80630 -0.21100
C 	C 	0.75930 0.78840 0.82550 0.20900
H 	H 	0.80080 0.83360 0.84680 -0.03400
C 	C 	0.67270 0.80650 0.81460 -0.38500
C 	C 	0.61470 0.73480 0.78590 0.21400
H 	H 	0.55660 0.74220 0.77950 -0.05800
C 	C 	0.64170 0.65220 0.76660 -0.24700
H 	H 	0.60140 0.60550 0.74740 0.12100
C 	C 	0.72650 0.63900 0.77550 0.15500
H 	H 	0.74350 0.58420 0.76080 -0.00400
C 	C 	0.82680 0.17010 0.04640 0.43600
C 	C 	0.79630 0.07350 0.03500 -0.21800
C 	C 	0.74440 0.04250 0.95830 0.19500
H 	H 	0.72940 0.08160 0.91390 -0.03100
C 	C 	0.71350 0.95340 0.94530 -0.37600
C 	C 	0.73860 0.89580 0.01140 0.21100
H 	H 	0.72040 0.83600 0.00370 -0.05100
C 	C 	0.79070 0.92600 0.08930 -0.23800
H 	H 	0.80580 0.88710 0.13380 0.12600
C 	C 	0.82010 0.01440 0.10050 0.14800
H 	H 	0.85610 0.03420 0.15240 0.00300
C 	C 	0.73510 0.07060 0.61510 0.43100
C 	C 	0.68930 0.07740 0.67090 -0.26100
C 	C 	0.68450 0.00370 0.71780 0.24300
H 	H 	0.71270 0.95050 0.71460 -0.04400
C 	C 	0.63940 0.00710 0.76870 -0.40800
C 	C 	0.59690 0.08940 0.77000 0.24800
H 	H 	0.56360 0.09370 0.80170 -0.06900
C 	C 	0.60310 0.16220 0.72650 -0.29700
H 	H 	0.57650 0.21620 0.73040 0.13900
C 	C 	0.64870 0.15540 0.67680 0.20900
H 	H 	0.65200 0.20520 0.64630 -0.02200
C 	C 	0.29030 0.89000 0.67300 0.38100
C 	C 	0.36490 0.90150 0.75540 -0.20800
C 	C 	0.45210 0.90590 0.76140 0.18700
H 	H 	0.46310 0.90420 0.71380 -0.03200
C 	C 	0.52180 0.91270 0.83590 -0.37500
C 	C 	0.50250 0.91620 0.90590 0.20000
H 	H 	0.54780 0.92070 0.95710 -0.05100
C 	C 	0.41630 0.91310 0.89960 -0.24100
H 	H 	0.40420 0.91670 0.94650 0.11700
C 	C 	0.34870 0.90460 0.82430 0.15000
H 	H 	0.29130 0.90100 0.82090 -0.00300
C 	C 	0.11790 0.71690 0.72650 0.00400
H 	H 	0.15140 0.76660 0.75210 0.04600
C 	C 	0.11150 0.68230 0.65470 0.01100
H 	H 	0.13940 0.70310 0.62150 0.04200
C 	C 	0.03110 0.60460 0.70220 0.11600
H 	H 	0.99300 0.56110 0.70700 -0.00600
N 	N 	0.06680 0.66720 0.75610 -0.26000
N 	N 	0.05590 0.61050 0.63970 -0.14000
O 	O 	0.90210 0.61570 0.80050 -0.34800
O 	O 	0.93430 0.75240 0.84830 -0.43800
O 	O 	0.88040 0.19250 0.11340 -0.49800
O 	O 	0.79270 0.22100 0.98410 -0.48200
O 	O 	0.21710 0.87420 0.66980 -0.32200
O 	O 	0.31000 0.89260 0.61030 -0.45700
O 	O 	0.73060 0.14000 0.57180 -0.48400
O 	O 	0.77430 0.00340 0.61340 -0.33200
O 	O 	0.09630 0.61090 0.95040 -0.53400
C 	C 	0.02750 0.55350 0.56820 0.09000
Si	Si	0.63725 0.91751 0.84062 0.93300
Zn	Zn	0.04732 0.69465 0.85899 1.21400
Zn	Zn	0.21712 0.64504 0.00932 1.23000
C 	C 	0.99830 0.59290 0.49180 -0.06700
H 	H 	0.99810 0.65520 0.48670 0.06300
C 	C 	0.03060 0.46120 0.57710 -0.07900
H 	H 	0.05190 0.43540 0.62900 0.07800
