data_crystal

_cell_length_a 13.91900
_cell_length_b 17.89650
_cell_length_c 16.13610
_cell_angle_alpha 90.00000
_cell_angle_beta  98.61900
_cell_angle_gamma 90.00000

_symmetry_space_group_name_	'P 1'
_symmetry_space_group_name_H-M	'P 1'

loop_
_symmetry_equiv_pos_as_xyz
  x,y,z

loop_
_atom_site_label
_atom_site_type_symbol
_atom_site_fract_x
_atom_site_fract_y
_atom_site_fract_z
_atom_site_charge
C 	C 	0.99460 0.30050 0.23610 -0.30400
C 	C 	0.00460 0.50090 0.16660 -0.34300
C 	C 	0.99460 0.43230 0.30840 -0.28100
C 	C 	0.00450 0.36870 0.08780 -0.35800
C 	C 	0.13960 0.39700 0.22220 -0.34300
C 	C 	0.86050 0.40240 0.17610 -0.29500
C 	C 	0.78260 0.44740 0.44410 0.09200
H 	H 	0.81490 0.41180 0.41650 -0.04400
C 	C 	0.68400 0.43960 0.44100 -0.18900
H 	H 	0.65150 0.39990 0.41210 0.07800
C 	C 	0.63350 0.49110 0.48110 0.11400
C 	C 	0.68570 0.54960 0.52070 -0.18300
H 	H 	0.65420 0.58680 0.54670 0.08600
C 	C 	0.78530 0.55290 0.52160 0.09100
H 	H 	0.81940 0.59220 0.55000 -0.03200
C 	C 	0.52590 0.48120 0.47920 -0.08600
H 	H 	0.49540 0.44420 0.44430 0.04700
N 	N 	0.99140 0.24240 0.26780 -0.19200
N 	N 	0.00780 0.56260 0.15120 -0.20300
N 	N 	0.99250 0.44930 0.37600 -0.17200
N 	N 	0.00730 0.35080 0.01910 -0.22700
N 	N 	0.22190 0.39610 0.23740 -0.05500
N 	N 	0.77710 0.40450 0.16640 -0.05900
N 	N 	0.83520 0.50260 0.48390 -0.25700
Co	Co	0.99839 0.17827 0.38682 1.02500
Cr	Cr	0.99974 0.39971 0.19847 1.55500
C 	C 	0.00540 0.80050 0.26390 -0.35600
C 	C 	0.99540 0.00090 0.33340 -0.30600
C 	C 	0.00540 0.93230 0.19160 -0.33200
C 	C 	0.99550 0.86870 0.41220 -0.25300
C 	C 	0.86040 0.89700 0.27780 -0.26200
C 	C 	0.13950 0.90240 0.32390 -0.31900
C 	C 	0.21740 0.94740 0.05590 0.15400
H 	H 	0.18510 0.91180 0.08350 -0.07200
C 	C 	0.31600 0.93960 0.05900 -0.25000
H 	H 	0.34850 0.89990 0.08790 0.09900
C 	C 	0.36650 0.99110 0.01890 0.16800
C 	C 	0.31430 0.04960 0.97930 -0.24700
H 	H 	0.34580 0.08680 0.95330 0.10300
C 	C 	0.21470 0.05290 0.97840 0.15200
H 	H 	0.18060 0.09220 0.95000 -0.07400
C 	C 	0.47410 0.98120 0.02080 -0.13400
H 	H 	0.50460 0.94420 0.05570 0.06800
N 	N 	0.00860 0.74240 0.23220 -0.20100
N 	N 	0.99220 0.06260 0.34880 -0.18800
N 	N 	0.00750 0.94930 0.12400 -0.19100
N 	N 	0.99270 0.85080 0.48090 -0.17900
N 	N 	0.77810 0.89610 0.26260 -0.05200
N 	N 	0.22290 0.90450 0.33360 -0.05000
N 	N 	0.16480 0.00260 0.01610 -0.33500
Co	Co	0.00161 0.67827 0.11318 0.98700
Cr	Cr	0.00026 0.89971 0.30153 1.51400
C 	C 	0.00540 0.69950 0.76390 -0.34800
C 	C 	0.99540 0.49910 0.83340 -0.25200
C 	C 	0.00540 0.56770 0.69160 -0.34000
C 	C 	0.99550 0.63130 0.91220 -0.25700
C 	C 	0.86040 0.60300 0.77780 -0.26900
C 	C 	0.13950 0.59760 0.82390 -0.32500
C 	C 	0.21740 0.55260 0.55590 0.09200
H 	H 	0.18510 0.58820 0.58350 -0.05100
C 	C 	0.31600 0.56040 0.55900 -0.19800
H 	H 	0.34850 0.60010 0.58790 0.08500
C 	C 	0.36650 0.50890 0.51890 0.12100
C 	C 	0.31430 0.45040 0.47930 -0.19400
H 	H 	0.34580 0.41320 0.45330 0.08100
C 	C 	0.21470 0.44710 0.47840 0.09000
H 	H 	0.18060 0.40780 0.45000 -0.05900
C 	C 	0.47410 0.51880 0.52080 -0.09800
H 	H 	0.50460 0.55580 0.55570 0.05600
N 	N 	0.00860 0.75760 0.73220 -0.19400
N 	N 	0.99220 0.43740 0.84880 -0.18300
N 	N 	0.00750 0.55070 0.62400 -0.19500
N 	N 	0.99270 0.64920 0.98090 -0.16800
N 	N 	0.77810 0.60390 0.76260 -0.04900
N 	N 	0.22290 0.59550 0.83360 -0.04800
N 	N 	0.16480 0.49740 0.51610 -0.27600
Co	Co	0.00161 0.82173 0.61318 1.00000
Cr	Cr	0.00026 0.60029 0.80153 1.50900
C 	C 	0.99460 0.19950 0.73610 -0.29700
C 	C 	0.00460 0.99910 0.66660 -0.29900
C 	C 	0.99460 0.06770 0.80840 -0.29300
C 	C 	0.00450 0.13130 0.58780 -0.35800
C 	C 	0.13960 0.10300 0.72220 -0.34500
C 	C 	0.86050 0.09760 0.67610 -0.30100
C 	C 	0.78260 0.05260 0.94410 0.02000
H 	H 	0.81490 0.08820 0.91650 -0.01800
C 	C 	0.68400 0.06040 0.94100 -0.13100
H 	H 	0.65150 0.10010 0.91210 0.06100
C 	C 	0.63350 0.00890 0.98110 0.05900
C 	C 	0.68570 0.95040 0.02070 -0.12200
H 	H 	0.65420 0.91320 0.04670 0.06100
C 	C 	0.78530 0.94710 0.02160 0.02700
H 	H 	0.81940 0.90780 0.05000 -0.01400
C 	C 	0.52590 0.01880 0.97920 -0.04900
H 	H 	0.49540 0.05580 0.94430 0.03500
N 	N 	0.99140 0.25760 0.76780 -0.18400
N 	N 	0.00780 0.93740 0.65120 -0.19800
N 	N 	0.99250 0.05070 0.87600 -0.16900
N 	N 	0.00730 0.14920 0.51910 -0.21500
N 	N 	0.22190 0.10390 0.73740 -0.05300
N 	N 	0.77710 0.09550 0.66640 -0.05800
N 	N 	0.83520 0.99740 0.98390 -0.18600
Co	Co	0.99839 0.32173 0.88682 1.04000
Cr	Cr	0.99974 0.10029 0.69847 1.54900
Co	Co	-0.00000 0.50000 0.50000 1.01400
Co	Co	-0.00000 0.00000 -0.00000 0.98500
