data_crystal

_cell_length_a 33.53750
_cell_length_b 33.53750
_cell_length_c 33.53750
_cell_angle_alpha 90.00000
_cell_angle_beta  90.00000
_cell_angle_gamma 90.00000

_symmetry_space_group_name_	'P 1'
_symmetry_space_group_name_H-M	'P 1'

loop_
_symmetry_equiv_pos_as_xyz
  x,y,z

loop_
_atom_site_label
_atom_site_type_symbol
_atom_site_fract_x
_atom_site_fract_y
_atom_site_fract_z
_atom_site_charge
Cu	Cu	0.06370 0.15852 0.85684 0.92300
O 	O 	0.06434 0.10049 0.85236 -0.48100
C 	C 	0.02989 0.08232 0.86182 0.25300
C 	C 	0.01104 0.05689 0.83514 -0.26000
H 	H 	0.02250 0.05190 0.81010 0.12100
C 	C 	0.97565 0.03911 0.84547 0.11400
H 	H 	0.96290 0.02190 0.82740 -0.01900
C 	C 	0.95866 0.04638 0.88236 -0.16100
H 	H 	0.93440 0.03410 0.88940 0.07600
C 	C 	0.97751 0.07180 0.90892 0.05200
H 	H 	0.96590 0.07670 0.93390 0.01500
C 	C 	0.01300 0.09001 0.89926 -0.12100
C 	C 	0.03471 0.11660 0.92819 -0.01200
H 	H 	0.01940 0.11850 0.95300 0.03800
H 	H 	0.06070 0.10480 0.93460 0.03000
N 	N 	0.04076 0.15728 0.91146 -0.28700
H 	H 	0.01910 0.16750 0.90860 0.16300
C 	C 	0.06506 0.18610 0.93495 -0.00600
C 	C 	0.04628 0.19768 0.97508 -0.10500
H 	H 	0.03280 0.22350 0.97300 0.06400
H 	H 	0.02670 0.17760 0.98340 0.06200
C 	C 	0.07980 0.19990 0.00460 -0.08100
H 	H 	0.07030 0.19600 0.03200 0.04300
H 	H 	0.09400 0.22540 0.00280 0.05600
C 	C 	0.10660 0.16460 0.99060 -0.05600
H 	H 	0.13350 0.16680 0.00170 0.03600
H 	H 	0.09510 0.13900 0.99860 0.03900
C 	C 	0.10703 0.16893 0.94571 -0.12700
H 	H 	0.11120 0.14300 0.93280 0.04600
H 	H 	0.12820 0.18720 0.93730 0.06400
C 	C 	0.07233 0.22193 0.90760 0.29300
O 	O 	0.07344 0.21442 0.87002 -0.39100
O 	O 	0.07794 0.25497 0.92260 -0.34800
C 	C 	0.11970 0.19390 0.98220 -0.00100
Cu	Cu	0.56370 0.65852 0.35684 0.92300
O 	O 	0.56434 0.60049 0.35236 -0.48100
C 	C 	0.52989 0.58232 0.36182 0.25300
C 	C 	0.51104 0.55689 0.33514 -0.26000
H 	H 	0.52250 0.55190 0.31010 0.12100
C 	C 	0.47565 0.53911 0.34547 0.11400
H 	H 	0.46290 0.52190 0.32740 -0.01900
C 	C 	0.45866 0.54638 0.38236 -0.16100
H 	H 	0.43440 0.53410 0.38940 0.07600
C 	C 	0.47751 0.57180 0.40892 0.05200
H 	H 	0.46590 0.57670 0.43390 0.01500
C 	C 	0.51300 0.59001 0.39926 -0.12100
C 	C 	0.53471 0.61660 0.42819 -0.01300
H 	H 	0.51940 0.61850 0.45300 0.03900
H 	H 	0.56070 0.60480 0.43460 0.03000
N 	N 	0.54076 0.65728 0.41146 -0.28700
H 	H 	0.51910 0.66750 0.40860 0.16300
C 	C 	0.56506 0.68610 0.43495 -0.00600
C 	C 	0.54628 0.69768 0.47508 -0.10500
H 	H 	0.53280 0.72350 0.47300 0.06400
H 	H 	0.52670 0.67760 0.48340 0.06200
C 	C 	0.57980 0.69990 0.50460 -0.08000
H 	H 	0.57030 0.69600 0.53200 0.04300
H 	H 	0.59400 0.72540 0.50280 0.05600
C 	C 	0.60660 0.66460 0.49060 -0.05700
H 	H 	0.63350 0.66680 0.50170 0.03600
H 	H 	0.59510 0.63900 0.49860 0.04000
C 	C 	0.60703 0.66893 0.44571 -0.12700
H 	H 	0.61120 0.64300 0.43280 0.04600
H 	H 	0.62820 0.68720 0.43730 0.06400
C 	C 	0.57233 0.72193 0.40760 0.29300
O 	O 	0.57344 0.71442 0.37002 -0.39100
O 	O 	0.57794 0.75497 0.42260 -0.34800
C 	C 	0.61970 0.69390 0.48220 -0.00100
Cu	Cu	0.43630 0.84148 0.35684 0.92300
O 	O 	0.43566 0.89951 0.35236 -0.48100
C 	C 	0.47011 0.91768 0.36182 0.25300
C 	C 	0.48896 0.94311 0.33514 -0.26000
H 	H 	0.47750 0.94810 0.31010 0.12100
C 	C 	0.52435 0.96089 0.34547 0.11400
H 	H 	0.53710 0.97810 0.32740 -0.01900
C 	C 	0.54134 0.95362 0.38236 -0.16100
H 	H 	0.56560 0.96590 0.38940 0.07600
C 	C 	0.52249 0.92820 0.40892 0.05200
H 	H 	0.53410 0.92330 0.43390 0.01500
C 	C 	0.48700 0.90999 0.39926 -0.12100
C 	C 	0.46529 0.88340 0.42819 -0.01300
H 	H 	0.48060 0.88150 0.45300 0.03800
H 	H 	0.43930 0.89520 0.43460 0.03000
N 	N 	0.45924 0.84272 0.41146 -0.28700
H 	H 	0.48090 0.83250 0.40860 0.16300
C 	C 	0.43494 0.81390 0.43495 -0.00600
C 	C 	0.45372 0.80232 0.47508 -0.10500
H 	H 	0.46720 0.77650 0.47300 0.06400
H 	H 	0.47330 0.82240 0.48340 0.06200
C 	C 	0.42020 0.80010 0.50460 -0.08000
H 	H 	0.42970 0.80400 0.53200 0.04300
H 	H 	0.40600 0.77460 0.50280 0.05600
C 	C 	0.39340 0.83540 0.49060 -0.05700
H 	H 	0.36650 0.83320 0.50170 0.03600
H 	H 	0.40490 0.86100 0.49860 0.04000
C 	C 	0.39297 0.83107 0.44571 -0.12700
H 	H 	0.38880 0.85700 0.43280 0.04600
H 	H 	0.37180 0.81280 0.43730 0.06400
C 	C 	0.42767 0.77807 0.40760 0.29300
O 	O 	0.42656 0.78558 0.37002 -0.39100
O 	O 	0.42206 0.74503 0.42260 -0.34800
C 	C 	0.38030 0.80610 0.48220 -0.00100
Cu	Cu	0.93630 0.34148 0.85684 0.92300
O 	O 	0.93566 0.39951 0.85236 -0.48100
C 	C 	0.97011 0.41768 0.86182 0.25300
C 	C 	0.98896 0.44311 0.83514 -0.26000
H 	H 	0.97750 0.44810 0.81010 0.12100
C 	C 	0.02435 0.46089 0.84547 0.11400
H 	H 	0.03710 0.47810 0.82740 -0.01900
C 	C 	0.04134 0.45362 0.88236 -0.16100
H 	H 	0.06560 0.46590 0.88940 0.07600
C 	C 	0.02249 0.42820 0.90892 0.05200
H 	H 	0.03410 0.42330 0.93390 0.01500
C 	C 	0.98700 0.40999 0.89926 -0.12100
C 	C 	0.96529 0.38340 0.92819 -0.01200
H 	H 	0.98060 0.38150 0.95300 0.03800
H 	H 	0.93930 0.39520 0.93460 0.03000
N 	N 	0.95924 0.34272 0.91146 -0.28700
H 	H 	0.98090 0.33250 0.90860 0.16300
C 	C 	0.93494 0.31390 0.93495 -0.00600
C 	C 	0.95372 0.30232 0.97508 -0.10500
H 	H 	0.96720 0.27650 0.97300 0.06400
H 	H 	0.97330 0.32240 0.98340 0.06200
C 	C 	0.92020 0.30010 0.00460 -0.08100
H 	H 	0.92970 0.30400 0.03200 0.04300
H 	H 	0.90600 0.27460 0.00280 0.05600
C 	C 	0.89340 0.33540 0.99060 -0.05600
H 	H 	0.86650 0.33320 0.00170 0.03600
H 	H 	0.90490 0.36100 0.99860 0.03900
C 	C 	0.89297 0.33107 0.94571 -0.12700
H 	H 	0.88880 0.35700 0.93280 0.04600
H 	H 	0.87180 0.31280 0.93730 0.06400
C 	C 	0.92767 0.27807 0.90760 0.29200
O 	O 	0.92656 0.28558 0.87002 -0.39200
O 	O 	0.92206 0.24503 0.92260 -0.34900
C 	C 	0.88030 0.30610 0.98220 -0.00200
Cu	Cu	0.93630 0.65852 0.64316 0.92200
O 	O 	0.93566 0.60049 0.64764 -0.48200
C 	C 	0.97011 0.58232 0.63818 0.25200
C 	C 	0.98896 0.55689 0.66486 -0.26100
H 	H 	0.97750 0.55190 0.68990 0.12000
C 	C 	0.02435 0.53911 0.65453 0.11300
H 	H 	0.03710 0.52190 0.67260 -0.02000
C 	C 	0.04134 0.54638 0.61764 -0.16200
H 	H 	0.06560 0.53410 0.61060 0.07500
C 	C 	0.02249 0.57180 0.59108 0.05100
H 	H 	0.03410 0.57670 0.56610 0.01400
C 	C 	0.98700 0.59001 0.60074 -0.12200
C 	C 	0.96529 0.61660 0.57181 -0.01300
H 	H 	0.98060 0.61850 0.54700 0.03700
H 	H 	0.93930 0.60480 0.56540 0.02900
N 	N 	0.95924 0.65728 0.58854 -0.28800
H 	H 	0.98090 0.66750 0.59140 0.16200
C 	C 	0.93494 0.68610 0.56505 -0.00700
C 	C 	0.95372 0.69768 0.52492 -0.10600
H 	H 	0.96720 0.72350 0.52700 0.06300
H 	H 	0.97330 0.67760 0.51660 0.06100
C 	C 	0.92020 0.69990 0.49540 -0.08100
H 	H 	0.92970 0.69600 0.46800 0.04200
H 	H 	0.90600 0.72540 0.49720 0.05500
C 	C 	0.89340 0.66460 0.50940 -0.05800
H 	H 	0.86650 0.66680 0.49830 0.03500
H 	H 	0.90490 0.63900 0.50140 0.03900
C 	C 	0.89297 0.66893 0.55429 -0.12800
H 	H 	0.88880 0.64300 0.56720 0.04500
H 	H 	0.87180 0.68720 0.56270 0.06300
C 	C 	0.92767 0.72193 0.59240 0.29200
O 	O 	0.92656 0.71442 0.62998 -0.39200
O 	O 	0.92206 0.75497 0.57740 -0.34900
C 	C 	0.88030 0.69390 0.51780 -0.00200
Cu	Cu	0.43630 0.15852 0.14316 0.92200
O 	O 	0.43566 0.10049 0.14764 -0.48200
C 	C 	0.47011 0.08232 0.13818 0.25200
C 	C 	0.48896 0.05689 0.16486 -0.26100
H 	H 	0.47750 0.05190 0.18990 0.12000
C 	C 	0.52435 0.03911 0.15453 0.11300
H 	H 	0.53710 0.02190 0.17260 -0.02000
C 	C 	0.54134 0.04638 0.11764 -0.16200
H 	H 	0.56560 0.03410 0.11060 0.07500
C 	C 	0.52249 0.07180 0.09108 0.05100
H 	H 	0.53410 0.07670 0.06610 0.01400
C 	C 	0.48700 0.09001 0.10074 -0.12200
C 	C 	0.46529 0.11660 0.07181 -0.01400
H 	H 	0.48060 0.11850 0.04700 0.03700
H 	H 	0.43930 0.10480 0.06540 0.02900
N 	N 	0.45924 0.15728 0.08854 -0.28800
H 	H 	0.48090 0.16750 0.09140 0.16200
C 	C 	0.43494 0.18610 0.06505 -0.00700
C 	C 	0.45372 0.19768 0.02492 -0.10600
H 	H 	0.46720 0.22350 0.02700 0.06300
H 	H 	0.47330 0.17760 0.01660 0.06100
C 	C 	0.42020 0.19990 0.99540 -0.08200
H 	H 	0.42970 0.19600 0.96800 0.04200
H 	H 	0.40600 0.22540 0.99720 0.05500
C 	C 	0.39340 0.16460 0.00940 -0.05700
H 	H 	0.36650 0.16680 0.99830 0.03500
H 	H 	0.40490 0.13900 0.00140 0.03800
C 	C 	0.39297 0.16893 0.05429 -0.12800
H 	H 	0.38880 0.14300 0.06720 0.04500
H 	H 	0.37180 0.18720 0.06270 0.06300
C 	C 	0.42767 0.22193 0.09240 0.29200
O 	O 	0.42656 0.21442 0.12998 -0.39200
O 	O 	0.42206 0.25497 0.07740 -0.34900
C 	C 	0.38030 0.19390 0.01780 -0.00200
Cu	Cu	0.56370 0.34148 0.14316 0.92200
O 	O 	0.56434 0.39951 0.14764 -0.48200
C 	C 	0.52989 0.41768 0.13818 0.25200
C 	C 	0.51104 0.44311 0.16486 -0.26100
H 	H 	0.52250 0.44810 0.18990 0.12000
C 	C 	0.47565 0.46089 0.15453 0.11300
H 	H 	0.46290 0.47810 0.17260 -0.02000
C 	C 	0.45866 0.45362 0.11764 -0.16200
H 	H 	0.43440 0.46590 0.11060 0.07500
C 	C 	0.47751 0.42820 0.09108 0.05100
H 	H 	0.46590 0.42330 0.06610 0.01400
C 	C 	0.51300 0.40999 0.10074 -0.12200
C 	C 	0.53471 0.38340 0.07181 -0.01400
H 	H 	0.51940 0.38150 0.04700 0.03700
H 	H 	0.56070 0.39520 0.06540 0.02900
N 	N 	0.54076 0.34272 0.08854 -0.28800
H 	H 	0.51910 0.33250 0.09140 0.16200
C 	C 	0.56506 0.31390 0.06505 -0.00700
C 	C 	0.54628 0.30232 0.02492 -0.10600
H 	H 	0.53280 0.27650 0.02700 0.06300
H 	H 	0.52670 0.32240 0.01660 0.06100
C 	C 	0.57980 0.30010 0.99540 -0.08200
H 	H 	0.57030 0.30400 0.96800 0.04200
H 	H 	0.59400 0.27460 0.99720 0.05500
C 	C 	0.60660 0.33540 0.00940 -0.05700
H 	H 	0.63350 0.33320 0.99830 0.03500
H 	H 	0.59510 0.36100 0.00140 0.03900
C 	C 	0.60703 0.33107 0.05429 -0.12800
H 	H 	0.61120 0.35700 0.06720 0.04500
H 	H 	0.62820 0.31280 0.06270 0.06300
C 	C 	0.57233 0.27807 0.09240 0.29200
O 	O 	0.57344 0.28558 0.12998 -0.39200
O 	O 	0.57794 0.24503 0.07740 -0.34900
C 	C 	0.61970 0.30610 0.01780 -0.00200
Cu	Cu	0.06370 0.84148 0.64316 0.92200
O 	O 	0.06434 0.89951 0.64764 -0.48200
C 	C 	0.02989 0.91768 0.63818 0.25200
C 	C 	0.01104 0.94311 0.66486 -0.26100
H 	H 	0.02250 0.94810 0.68990 0.12000
C 	C 	0.97565 0.96089 0.65453 0.11300
H 	H 	0.96290 0.97810 0.67260 -0.02000
C 	C 	0.95866 0.95362 0.61764 -0.16200
H 	H 	0.93440 0.96590 0.61060 0.07500
C 	C 	0.97751 0.92820 0.59108 0.05100
H 	H 	0.96590 0.92330 0.56610 0.01400
C 	C 	0.01300 0.90999 0.60074 -0.12200
C 	C 	0.03471 0.88340 0.57181 -0.01300
H 	H 	0.01940 0.88150 0.54700 0.03700
H 	H 	0.06070 0.89520 0.56540 0.02900
N 	N 	0.04076 0.84272 0.58854 -0.28800
H 	H 	0.01910 0.83250 0.59140 0.16200
C 	C 	0.06506 0.81390 0.56505 -0.00700
C 	C 	0.04628 0.80232 0.52492 -0.10600
H 	H 	0.03280 0.77650 0.52700 0.06300
H 	H 	0.02670 0.82240 0.51660 0.06100
C 	C 	0.07980 0.80010 0.49540 -0.08100
H 	H 	0.07030 0.80400 0.46800 0.04200
H 	H 	0.09400 0.77460 0.49720 0.05500
C 	C 	0.10660 0.83540 0.50940 -0.05800
H 	H 	0.13350 0.83320 0.49830 0.03500
H 	H 	0.09510 0.86100 0.50140 0.03900
C 	C 	0.10703 0.83107 0.55429 -0.12800
H 	H 	0.11120 0.85700 0.56720 0.04500
H 	H 	0.12820 0.81280 0.56270 0.06300
C 	C 	0.07233 0.77807 0.59240 0.29200
O 	O 	0.07344 0.78558 0.62998 -0.39200
O 	O 	0.07794 0.74503 0.57740 -0.34900
C 	C 	0.11970 0.80610 0.51780 -0.00200
Cu	Cu	0.85684 0.06370 0.15852 0.92200
O 	O 	0.85236 0.06434 0.10049 -0.48200
C 	C 	0.86182 0.02989 0.08232 0.25200
C 	C 	0.83514 0.01104 0.05689 -0.26100
H 	H 	0.81010 0.02250 0.05190 0.12000
C 	C 	0.84547 0.97565 0.03911 0.11300
H 	H 	0.82740 0.96290 0.02190 -0.02000
C 	C 	0.88236 0.95866 0.04638 -0.16200
H 	H 	0.88940 0.93440 0.03410 0.07500
C 	C 	0.90892 0.97751 0.07180 0.05100
H 	H 	0.93390 0.96590 0.07670 0.01400
C 	C 	0.89926 0.01300 0.09001 -0.12200
C 	C 	0.92819 0.03471 0.11660 -0.01300
H 	H 	0.95300 0.01940 0.11850 0.03700
H 	H 	0.93460 0.06070 0.10480 0.02900
N 	N 	0.91146 0.04076 0.15728 -0.28800
H 	H 	0.90860 0.01910 0.16750 0.16200
C 	C 	0.93495 0.06506 0.18610 -0.00700
C 	C 	0.97508 0.04628 0.19768 -0.10600
H 	H 	0.97300 0.03280 0.22350 0.06300
H 	H 	0.98340 0.02670 0.17760 0.06100
C 	C 	0.00460 0.07980 0.19990 -0.08200
H 	H 	0.03200 0.07030 0.19600 0.04200
H 	H 	0.00280 0.09400 0.22540 0.05500
C 	C 	0.99060 0.10660 0.16460 -0.05700
H 	H 	0.00170 0.13350 0.16680 0.03500
H 	H 	0.99860 0.09510 0.13900 0.03800
C 	C 	0.94571 0.10703 0.16893 -0.12800
H 	H 	0.93280 0.11120 0.14300 0.04500
H 	H 	0.93730 0.12820 0.18720 0.06300
C 	C 	0.90760 0.07233 0.22193 0.29200
O 	O 	0.87002 0.07344 0.21442 -0.39200
O 	O 	0.92260 0.07794 0.25497 -0.34900
C 	C 	0.98220 0.11970 0.19390 -0.00200
Cu	Cu	0.35684 0.56370 0.65852 0.92200
O 	O 	0.35236 0.56434 0.60049 -0.48200
C 	C 	0.36182 0.52989 0.58232 0.25200
C 	C 	0.33514 0.51104 0.55689 -0.26100
H 	H 	0.31010 0.52250 0.55190 0.12000
C 	C 	0.34547 0.47565 0.53911 0.11300
H 	H 	0.32740 0.46290 0.52190 -0.02000
C 	C 	0.38236 0.45866 0.54638 -0.16200
H 	H 	0.38940 0.43440 0.53410 0.07500
C 	C 	0.40892 0.47751 0.57180 0.05100
H 	H 	0.43390 0.46590 0.57670 0.01400
C 	C 	0.39926 0.51300 0.59001 -0.12200
C 	C 	0.42819 0.53471 0.61660 -0.01400
H 	H 	0.45300 0.51940 0.61850 0.03800
H 	H 	0.43460 0.56070 0.60480 0.02900
N 	N 	0.41146 0.54076 0.65728 -0.28800
H 	H 	0.40860 0.51910 0.66750 0.16200
C 	C 	0.43495 0.56506 0.68610 -0.00700
C 	C 	0.47508 0.54628 0.69768 -0.10600
H 	H 	0.47300 0.53280 0.72350 0.06300
H 	H 	0.48340 0.52670 0.67760 0.06100
C 	C 	0.50460 0.57980 0.69990 -0.08100
H 	H 	0.53200 0.57030 0.69600 0.04200
H 	H 	0.50280 0.59400 0.72540 0.05500
C 	C 	0.49060 0.60660 0.66460 -0.05800
H 	H 	0.50170 0.63350 0.66680 0.03500
H 	H 	0.49860 0.59510 0.63900 0.03900
C 	C 	0.44571 0.60703 0.66893 -0.12800
H 	H 	0.43280 0.61120 0.64300 0.04500
H 	H 	0.43730 0.62820 0.68720 0.06300
C 	C 	0.40760 0.57233 0.72193 0.29200
O 	O 	0.37002 0.57344 0.71442 -0.39200
O 	O 	0.42260 0.57794 0.75497 -0.34900
C 	C 	0.48220 0.61970 0.69390 -0.00200
Cu	Cu	0.35684 0.43630 0.84148 0.92200
O 	O 	0.35236 0.43566 0.89951 -0.48200
C 	C 	0.36182 0.47011 0.91768 0.25200
C 	C 	0.33514 0.48896 0.94311 -0.26100
H 	H 	0.31010 0.47750 0.94810 0.12000
C 	C 	0.34547 0.52435 0.96089 0.11300
H 	H 	0.32740 0.53710 0.97810 -0.02000
C 	C 	0.38236 0.54134 0.95362 -0.16200
H 	H 	0.38940 0.56560 0.96590 0.07500
C 	C 	0.40892 0.52249 0.92820 0.05100
H 	H 	0.43390 0.53410 0.92330 0.01400
C 	C 	0.39926 0.48700 0.90999 -0.12200
C 	C 	0.42819 0.46529 0.88340 -0.01400
H 	H 	0.45300 0.48060 0.88150 0.03700
H 	H 	0.43460 0.43930 0.89520 0.02900
N 	N 	0.41146 0.45924 0.84272 -0.28800
H 	H 	0.40860 0.48090 0.83250 0.16200
C 	C 	0.43495 0.43494 0.81390 -0.00700
C 	C 	0.47508 0.45372 0.80232 -0.10600
H 	H 	0.47300 0.46720 0.77650 0.06300
H 	H 	0.48340 0.47330 0.82240 0.06100
C 	C 	0.50460 0.42020 0.80010 -0.08100
H 	H 	0.53200 0.42970 0.80400 0.04200
H 	H 	0.50280 0.40600 0.77460 0.05500
C 	C 	0.49060 0.39340 0.83540 -0.05800
H 	H 	0.50170 0.36650 0.83320 0.03500
H 	H 	0.49860 0.40490 0.86100 0.03900
C 	C 	0.44571 0.39297 0.83107 -0.12800
H 	H 	0.43280 0.38880 0.85700 0.04500
H 	H 	0.43730 0.37180 0.81280 0.06300
C 	C 	0.40760 0.42767 0.77807 0.29200
O 	O 	0.37002 0.42656 0.78558 -0.39200
O 	O 	0.42260 0.42206 0.74503 -0.34900
C 	C 	0.48220 0.38030 0.80610 -0.00200
Cu	Cu	0.85684 0.93630 0.34148 0.92200
O 	O 	0.85236 0.93566 0.39951 -0.48200
C 	C 	0.86182 0.97011 0.41768 0.25200
C 	C 	0.83514 0.98896 0.44311 -0.26100
H 	H 	0.81010 0.97750 0.44810 0.12000
C 	C 	0.84547 0.02435 0.46089 0.11300
H 	H 	0.82740 0.03710 0.47810 -0.02000
C 	C 	0.88236 0.04134 0.45362 -0.16200
H 	H 	0.88940 0.06560 0.46590 0.07500
C 	C 	0.90892 0.02249 0.42820 0.05100
H 	H 	0.93390 0.03410 0.42330 0.01400
C 	C 	0.89926 0.98700 0.40999 -0.12200
C 	C 	0.92819 0.96529 0.38340 -0.01300
H 	H 	0.95300 0.98060 0.38150 0.03700
H 	H 	0.93460 0.93930 0.39520 0.02900
N 	N 	0.91146 0.95924 0.34272 -0.28800
H 	H 	0.90860 0.98090 0.33250 0.16200
C 	C 	0.93495 0.93494 0.31390 -0.00700
C 	C 	0.97508 0.95372 0.30232 -0.10600
H 	H 	0.97300 0.96720 0.27650 0.06300
H 	H 	0.98340 0.97330 0.32240 0.06100
C 	C 	0.00460 0.92020 0.30010 -0.08200
H 	H 	0.03200 0.92970 0.30400 0.04200
H 	H 	0.00280 0.90600 0.27460 0.05500
C 	C 	0.99060 0.89340 0.33540 -0.05700
H 	H 	0.00170 0.86650 0.33320 0.03500
H 	H 	0.99860 0.90490 0.36100 0.03800
C 	C 	0.94571 0.89297 0.33107 -0.12800
H 	H 	0.93280 0.88880 0.35700 0.04500
H 	H 	0.93730 0.87180 0.31280 0.06300
C 	C 	0.90760 0.92767 0.27807 0.29200
O 	O 	0.87002 0.92656 0.28558 -0.39200
O 	O 	0.92260 0.92206 0.24503 -0.34900
C 	C 	0.98220 0.88030 0.30610 -0.00200
Cu	Cu	0.64316 0.93630 0.65852 0.92200
O 	O 	0.64764 0.93566 0.60049 -0.48200
C 	C 	0.63818 0.97011 0.58232 0.25200
C 	C 	0.66486 0.98896 0.55689 -0.26100
H 	H 	0.68990 0.97750 0.55190 0.12000
C 	C 	0.65453 0.02435 0.53911 0.11300
H 	H 	0.67260 0.03710 0.52190 -0.02000
C 	C 	0.61764 0.04134 0.54638 -0.16200
H 	H 	0.61060 0.06560 0.53410 0.07500
C 	C 	0.59108 0.02249 0.57180 0.05100
H 	H 	0.56610 0.03410 0.57670 0.01400
C 	C 	0.60074 0.98700 0.59001 -0.12200
C 	C 	0.57181 0.96529 0.61660 -0.01300
H 	H 	0.54700 0.98060 0.61850 0.03700
H 	H 	0.56540 0.93930 0.60480 0.02900
N 	N 	0.58854 0.95924 0.65728 -0.28800
H 	H 	0.59140 0.98090 0.66750 0.16200
C 	C 	0.56505 0.93494 0.68610 -0.00700
C 	C 	0.52492 0.95372 0.69768 -0.10600
H 	H 	0.52700 0.96720 0.72350 0.06300
H 	H 	0.51660 0.97330 0.67760 0.06100
C 	C 	0.49540 0.92020 0.69990 -0.08100
H 	H 	0.46800 0.92970 0.69600 0.04200
H 	H 	0.49720 0.90600 0.72540 0.05500
C 	C 	0.50940 0.89340 0.66460 -0.05800
H 	H 	0.49830 0.86650 0.66680 0.03500
H 	H 	0.50140 0.90490 0.63900 0.03900
C 	C 	0.55429 0.89297 0.66893 -0.12800
H 	H 	0.56720 0.88880 0.64300 0.04500
H 	H 	0.56270 0.87180 0.68720 0.06300
C 	C 	0.59240 0.92767 0.72193 0.29200
O 	O 	0.62998 0.92656 0.71442 -0.39200
O 	O 	0.57740 0.92206 0.75497 -0.34900
C 	C 	0.51780 0.88030 0.69390 -0.00200
Cu	Cu	0.14316 0.43630 0.15852 0.92200
O 	O 	0.14764 0.43566 0.10049 -0.48200
C 	C 	0.13818 0.47011 0.08232 0.25200
C 	C 	0.16486 0.48896 0.05689 -0.26100
H 	H 	0.18990 0.47750 0.05190 0.12000
C 	C 	0.15453 0.52435 0.03911 0.11300
H 	H 	0.17260 0.53710 0.02190 -0.02000
C 	C 	0.11764 0.54134 0.04638 -0.16200
H 	H 	0.11060 0.56560 0.03410 0.07500
C 	C 	0.09108 0.52249 0.07180 0.05100
H 	H 	0.06610 0.53410 0.07670 0.01400
C 	C 	0.10074 0.48700 0.09001 -0.12200
C 	C 	0.07181 0.46529 0.11660 -0.01400
H 	H 	0.04700 0.48060 0.11850 0.03700
H 	H 	0.06540 0.43930 0.10480 0.02900
N 	N 	0.08854 0.45924 0.15728 -0.28800
H 	H 	0.09140 0.48090 0.16750 0.16200
C 	C 	0.06505 0.43494 0.18610 -0.00700
C 	C 	0.02492 0.45372 0.19768 -0.10600
H 	H 	0.02700 0.46720 0.22350 0.06300
H 	H 	0.01660 0.47330 0.17760 0.06100
C 	C 	0.99540 0.42020 0.19990 -0.08200
H 	H 	0.96800 0.42970 0.19600 0.04200
H 	H 	0.99720 0.40600 0.22540 0.05500
C 	C 	0.00940 0.39340 0.16460 -0.05700
H 	H 	0.99830 0.36650 0.16680 0.03500
H 	H 	0.00140 0.40490 0.13900 0.03800
C 	C 	0.05429 0.39297 0.16893 -0.12800
H 	H 	0.06720 0.38880 0.14300 0.04500
H 	H 	0.06270 0.37180 0.18720 0.06300
C 	C 	0.09240 0.42767 0.22193 0.29200
O 	O 	0.12998 0.42656 0.21442 -0.39200
O 	O 	0.07740 0.42206 0.25497 -0.34900
C 	C 	0.01780 0.38030 0.19390 -0.00200
Cu	Cu	0.14316 0.56370 0.34148 0.92200
O 	O 	0.14764 0.56434 0.39951 -0.48200
C 	C 	0.13818 0.52989 0.41768 0.25200
C 	C 	0.16486 0.51104 0.44311 -0.26100
H 	H 	0.18990 0.52250 0.44810 0.12000
C 	C 	0.15453 0.47565 0.46089 0.11300
H 	H 	0.17260 0.46290 0.47810 -0.02000
C 	C 	0.11764 0.45866 0.45362 -0.16200
H 	H 	0.11060 0.43440 0.46590 0.07500
C 	C 	0.09108 0.47751 0.42820 0.05100
H 	H 	0.06610 0.46590 0.42330 0.01400
C 	C 	0.10074 0.51300 0.40999 -0.12200
C 	C 	0.07181 0.53471 0.38340 -0.01400
H 	H 	0.04700 0.51940 0.38150 0.03700
H 	H 	0.06540 0.56070 0.39520 0.02900
N 	N 	0.08854 0.54076 0.34272 -0.28800
H 	H 	0.09140 0.51910 0.33250 0.16200
C 	C 	0.06505 0.56506 0.31390 -0.00700
C 	C 	0.02492 0.54628 0.30232 -0.10600
H 	H 	0.02700 0.53280 0.27650 0.06300
H 	H 	0.01660 0.52670 0.32240 0.06100
C 	C 	0.99540 0.57980 0.30010 -0.08200
H 	H 	0.96800 0.57030 0.30400 0.04200
H 	H 	0.99720 0.59400 0.27460 0.05500
C 	C 	0.00940 0.60660 0.33540 -0.05700
H 	H 	0.99830 0.63350 0.33320 0.03500
H 	H 	0.00140 0.59510 0.36100 0.03900
C 	C 	0.05429 0.60703 0.33107 -0.12800
H 	H 	0.06720 0.61120 0.35700 0.04500
H 	H 	0.06270 0.62820 0.31280 0.06300
C 	C 	0.09240 0.57233 0.27807 0.29200
O 	O 	0.12998 0.57344 0.28558 -0.39200
O 	O 	0.07740 0.57794 0.24503 -0.34900
C 	C 	0.01780 0.61970 0.30610 -0.00200
Cu	Cu	0.64316 0.06370 0.84148 0.92200
O 	O 	0.64764 0.06434 0.89951 -0.48200
C 	C 	0.63818 0.02989 0.91768 0.25200
C 	C 	0.66486 0.01104 0.94311 -0.26100
H 	H 	0.68990 0.02250 0.94810 0.12000
C 	C 	0.65453 0.97565 0.96089 0.11300
H 	H 	0.67260 0.96290 0.97810 -0.02000
C 	C 	0.61764 0.95866 0.95362 -0.16200
H 	H 	0.61060 0.93440 0.96590 0.07500
C 	C 	0.59108 0.97751 0.92820 0.05100
H 	H 	0.56610 0.96590 0.92330 0.01400
C 	C 	0.60074 0.01300 0.90999 -0.12200
C 	C 	0.57181 0.03471 0.88340 -0.01300
H 	H 	0.54700 0.01940 0.88150 0.03700
H 	H 	0.56540 0.06070 0.89520 0.02900
N 	N 	0.58854 0.04076 0.84272 -0.28800
H 	H 	0.59140 0.01910 0.83250 0.16200
C 	C 	0.56505 0.06506 0.81390 -0.00700
C 	C 	0.52492 0.04628 0.80232 -0.10600
H 	H 	0.52700 0.03280 0.77650 0.06300
H 	H 	0.51660 0.02670 0.82240 0.06100
C 	C 	0.49540 0.07980 0.80010 -0.08100
H 	H 	0.46800 0.07030 0.80400 0.04200
H 	H 	0.49720 0.09400 0.77460 0.05500
C 	C 	0.50940 0.10660 0.83540 -0.05800
H 	H 	0.49830 0.13350 0.83320 0.03500
H 	H 	0.50140 0.09510 0.86100 0.03900
C 	C 	0.55429 0.10703 0.83107 -0.12800
H 	H 	0.56720 0.11120 0.85700 0.04500
H 	H 	0.56270 0.12820 0.81280 0.06300
C 	C 	0.59240 0.07233 0.77807 0.29200
O 	O 	0.62998 0.07344 0.78558 -0.39200
O 	O 	0.57740 0.07794 0.74503 -0.34900
C 	C 	0.51780 0.11970 0.80610 -0.00200
Cu	Cu	0.15852 0.85684 0.06370 0.92200
O 	O 	0.10049 0.85236 0.06434 -0.48200
C 	C 	0.08232 0.86182 0.02989 0.25200
C 	C 	0.05689 0.83514 0.01104 -0.26100
H 	H 	0.05190 0.81010 0.02250 0.12000
C 	C 	0.03911 0.84547 0.97565 0.11300
H 	H 	0.02190 0.82740 0.96290 -0.02000
C 	C 	0.04638 0.88236 0.95866 -0.16200
H 	H 	0.03410 0.88940 0.93440 0.07500
C 	C 	0.07180 0.90892 0.97751 0.05100
H 	H 	0.07670 0.93390 0.96590 0.01400
C 	C 	0.09001 0.89926 0.01300 -0.12200
C 	C 	0.11660 0.92819 0.03471 -0.01300
H 	H 	0.11850 0.95300 0.01940 0.03700
H 	H 	0.10480 0.93460 0.06070 0.02900
N 	N 	0.15728 0.91146 0.04076 -0.28800
H 	H 	0.16750 0.90860 0.01910 0.16200
C 	C 	0.18610 0.93495 0.06506 -0.00700
C 	C 	0.19768 0.97508 0.04628 -0.10600
H 	H 	0.22350 0.97300 0.03280 0.06300
H 	H 	0.17760 0.98340 0.02670 0.06100
C 	C 	0.19990 0.00460 0.07980 -0.08200
H 	H 	0.19600 0.03200 0.07030 0.04200
H 	H 	0.22540 0.00280 0.09400 0.05500
C 	C 	0.16460 0.99060 0.10660 -0.05700
H 	H 	0.16680 0.00170 0.13350 0.03500
H 	H 	0.13900 0.99860 0.09510 0.03800
C 	C 	0.16893 0.94571 0.10703 -0.12800
H 	H 	0.14300 0.93280 0.11120 0.04500
H 	H 	0.18720 0.93730 0.12820 0.06300
C 	C 	0.22193 0.90760 0.07233 0.29200
O 	O 	0.21442 0.87002 0.07344 -0.39200
O 	O 	0.25497 0.92260 0.07794 -0.34900
C 	C 	0.19390 0.98220 0.11970 -0.00200
Cu	Cu	0.65852 0.35684 0.56370 0.92200
O 	O 	0.60049 0.35236 0.56434 -0.48200
C 	C 	0.58232 0.36182 0.52989 0.25200
C 	C 	0.55689 0.33514 0.51104 -0.26100
H 	H 	0.55190 0.31010 0.52250 0.12000
C 	C 	0.53911 0.34547 0.47565 0.11300
H 	H 	0.52190 0.32740 0.46290 -0.02000
C 	C 	0.54638 0.38236 0.45866 -0.16200
H 	H 	0.53410 0.38940 0.43440 0.07500
C 	C 	0.57180 0.40892 0.47751 0.05100
H 	H 	0.57670 0.43390 0.46590 0.01400
C 	C 	0.59001 0.39926 0.51300 -0.12200
C 	C 	0.61660 0.42819 0.53471 -0.01400
H 	H 	0.61850 0.45300 0.51940 0.03800
H 	H 	0.60480 0.43460 0.56070 0.02900
N 	N 	0.65728 0.41146 0.54076 -0.28800
H 	H 	0.66750 0.40860 0.51910 0.16200
C 	C 	0.68610 0.43495 0.56506 -0.00700
C 	C 	0.69768 0.47508 0.54628 -0.10600
H 	H 	0.72350 0.47300 0.53280 0.06300
H 	H 	0.67760 0.48340 0.52670 0.06100
C 	C 	0.69990 0.50460 0.57980 -0.08100
H 	H 	0.69600 0.53200 0.57030 0.04200
H 	H 	0.72540 0.50280 0.59400 0.05500
C 	C 	0.66460 0.49060 0.60660 -0.05800
H 	H 	0.66680 0.50170 0.63350 0.03500
H 	H 	0.63900 0.49860 0.59510 0.03900
C 	C 	0.66893 0.44571 0.60703 -0.12800
H 	H 	0.64300 0.43280 0.61120 0.04500
H 	H 	0.68720 0.43730 0.62820 0.06300
C 	C 	0.72193 0.40760 0.57233 0.29200
O 	O 	0.71442 0.37002 0.57344 -0.39200
O 	O 	0.75497 0.42260 0.57794 -0.34900
C 	C 	0.69390 0.48220 0.61970 -0.00200
Cu	Cu	0.84148 0.35684 0.43630 0.92200
O 	O 	0.89951 0.35236 0.43566 -0.48200
C 	C 	0.91768 0.36182 0.47011 0.25200
C 	C 	0.94311 0.33514 0.48896 -0.26100
H 	H 	0.94810 0.31010 0.47750 0.12000
C 	C 	0.96089 0.34547 0.52435 0.11300
H 	H 	0.97810 0.32740 0.53710 -0.02000
C 	C 	0.95362 0.38236 0.54134 -0.16200
H 	H 	0.96590 0.38940 0.56560 0.07500
C 	C 	0.92820 0.40892 0.52249 0.05100
H 	H 	0.92330 0.43390 0.53410 0.01400
C 	C 	0.90999 0.39926 0.48700 -0.12200
C 	C 	0.88340 0.42819 0.46529 -0.01400
H 	H 	0.88150 0.45300 0.48060 0.03700
H 	H 	0.89520 0.43460 0.43930 0.02900
N 	N 	0.84272 0.41146 0.45924 -0.28800
H 	H 	0.83250 0.40860 0.48090 0.16200
C 	C 	0.81390 0.43495 0.43494 -0.00700
C 	C 	0.80232 0.47508 0.45372 -0.10600
H 	H 	0.77650 0.47300 0.46720 0.06300
H 	H 	0.82240 0.48340 0.47330 0.06100
C 	C 	0.80010 0.50460 0.42020 -0.08100
H 	H 	0.80400 0.53200 0.42970 0.04200
H 	H 	0.77460 0.50280 0.40600 0.05500
C 	C 	0.83540 0.49060 0.39340 -0.05800
H 	H 	0.83320 0.50170 0.36650 0.03500
H 	H 	0.86100 0.49860 0.40490 0.03900
C 	C 	0.83107 0.44571 0.39297 -0.12800
H 	H 	0.85700 0.43280 0.38880 0.04500
H 	H 	0.81280 0.43730 0.37180 0.06300
C 	C 	0.77807 0.40760 0.42767 0.29200
O 	O 	0.78558 0.37002 0.42656 -0.39200
O 	O 	0.74503 0.42260 0.42206 -0.34900
C 	C 	0.80610 0.48220 0.38030 -0.00200
Cu	Cu	0.34148 0.85684 0.93630 0.92200
O 	O 	0.39951 0.85236 0.93566 -0.48200
C 	C 	0.41768 0.86182 0.97011 0.25200
C 	C 	0.44311 0.83514 0.98896 -0.26100
H 	H 	0.44810 0.81010 0.97750 0.12000
C 	C 	0.46089 0.84547 0.02435 0.11300
H 	H 	0.47810 0.82740 0.03710 -0.02000
C 	C 	0.45362 0.88236 0.04134 -0.16200
H 	H 	0.46590 0.88940 0.06560 0.07500
C 	C 	0.42820 0.90892 0.02249 0.05100
H 	H 	0.42330 0.93390 0.03410 0.01400
C 	C 	0.40999 0.89926 0.98700 -0.12200
C 	C 	0.38340 0.92819 0.96529 -0.01300
H 	H 	0.38150 0.95300 0.98060 0.03700
H 	H 	0.39520 0.93460 0.93930 0.02900
N 	N 	0.34272 0.91146 0.95924 -0.28800
H 	H 	0.33250 0.90860 0.98090 0.16200
C 	C 	0.31390 0.93495 0.93494 -0.00700
C 	C 	0.30232 0.97508 0.95372 -0.10600
H 	H 	0.27650 0.97300 0.96720 0.06300
H 	H 	0.32240 0.98340 0.97330 0.06100
C 	C 	0.30010 0.00460 0.92020 -0.08200
H 	H 	0.30400 0.03200 0.92970 0.04200
H 	H 	0.27460 0.00280 0.90600 0.05500
C 	C 	0.33540 0.99060 0.89340 -0.05700
H 	H 	0.33320 0.00170 0.86650 0.03500
H 	H 	0.36100 0.99860 0.90490 0.03800
C 	C 	0.33107 0.94571 0.89297 -0.12800
H 	H 	0.35700 0.93280 0.88880 0.04500
H 	H 	0.31280 0.93730 0.87180 0.06300
C 	C 	0.27807 0.90760 0.92767 0.29200
O 	O 	0.28558 0.87002 0.92656 -0.39200
O 	O 	0.24503 0.92260 0.92206 -0.34900
C 	C 	0.30610 0.98220 0.88030 -0.00200
Cu	Cu	0.65852 0.64316 0.93630 0.92200
O 	O 	0.60049 0.64764 0.93566 -0.48200
C 	C 	0.58232 0.63818 0.97011 0.25200
C 	C 	0.55689 0.66486 0.98896 -0.26100
H 	H 	0.55190 0.68990 0.97750 0.12000
C 	C 	0.53911 0.65453 0.02435 0.11300
H 	H 	0.52190 0.67260 0.03710 -0.02000
C 	C 	0.54638 0.61764 0.04134 -0.16200
H 	H 	0.53410 0.61060 0.06560 0.07500
C 	C 	0.57180 0.59108 0.02249 0.05100
H 	H 	0.57670 0.56610 0.03410 0.01400
C 	C 	0.59001 0.60074 0.98700 -0.12200
C 	C 	0.61660 0.57181 0.96529 -0.01300
H 	H 	0.61850 0.54700 0.98060 0.03700
H 	H 	0.60480 0.56540 0.93930 0.02900
N 	N 	0.65728 0.58854 0.95924 -0.28800
H 	H 	0.66750 0.59140 0.98090 0.16200
C 	C 	0.68610 0.56505 0.93494 -0.00700
C 	C 	0.69768 0.52492 0.95372 -0.10600
H 	H 	0.72350 0.52700 0.96720 0.06300
H 	H 	0.67760 0.51660 0.97330 0.06100
C 	C 	0.69990 0.49540 0.92020 -0.08100
H 	H 	0.69600 0.46800 0.92970 0.04200
H 	H 	0.72540 0.49720 0.90600 0.05500
C 	C 	0.66460 0.50940 0.89340 -0.05800
H 	H 	0.66680 0.49830 0.86650 0.03500
H 	H 	0.63900 0.50140 0.90490 0.03900
C 	C 	0.66893 0.55429 0.89297 -0.12800
H 	H 	0.64300 0.56720 0.88880 0.04500
H 	H 	0.68720 0.56270 0.87180 0.06300
C 	C 	0.72193 0.59240 0.92767 0.29200
O 	O 	0.71442 0.62998 0.92656 -0.39200
O 	O 	0.75497 0.57740 0.92206 -0.34900
C 	C 	0.69390 0.51780 0.88030 -0.00200
Cu	Cu	0.15852 0.14316 0.43630 0.92200
O 	O 	0.10049 0.14764 0.43566 -0.48200
C 	C 	0.08232 0.13818 0.47011 0.25200
C 	C 	0.05689 0.16486 0.48896 -0.26100
H 	H 	0.05190 0.18990 0.47750 0.12000
C 	C 	0.03911 0.15453 0.52435 0.11300
H 	H 	0.02190 0.17260 0.53710 -0.02000
C 	C 	0.04638 0.11764 0.54134 -0.16200
H 	H 	0.03410 0.11060 0.56560 0.07500
C 	C 	0.07180 0.09108 0.52249 0.05100
H 	H 	0.07670 0.06610 0.53410 0.01400
C 	C 	0.09001 0.10074 0.48700 -0.12200
C 	C 	0.11660 0.07181 0.46529 -0.01400
H 	H 	0.11850 0.04700 0.48060 0.03700
H 	H 	0.10480 0.06540 0.43930 0.02900
N 	N 	0.15728 0.08854 0.45924 -0.28800
H 	H 	0.16750 0.09140 0.48090 0.16200
C 	C 	0.18610 0.06505 0.43494 -0.00700
C 	C 	0.19768 0.02492 0.45372 -0.10600
H 	H 	0.22350 0.02700 0.46720 0.06300
H 	H 	0.17760 0.01660 0.47330 0.06100
C 	C 	0.19990 0.99540 0.42020 -0.08200
H 	H 	0.19600 0.96800 0.42970 0.04200
H 	H 	0.22540 0.99720 0.40600 0.05500
C 	C 	0.16460 0.00940 0.39340 -0.05700
H 	H 	0.16680 0.99830 0.36650 0.03500
H 	H 	0.13900 0.00140 0.40490 0.03800
C 	C 	0.16893 0.05429 0.39297 -0.12800
H 	H 	0.14300 0.06720 0.38880 0.04500
H 	H 	0.18720 0.06270 0.37180 0.06300
C 	C 	0.22193 0.09240 0.42767 0.29200
O 	O 	0.21442 0.12998 0.42656 -0.39200
O 	O 	0.25497 0.07740 0.42206 -0.34900
C 	C 	0.19390 0.01780 0.38030 -0.00200
Cu	Cu	0.34148 0.14316 0.56370 0.92200
O 	O 	0.39951 0.14764 0.56434 -0.48200
C 	C 	0.41768 0.13818 0.52989 0.25200
C 	C 	0.44311 0.16486 0.51104 -0.26100
H 	H 	0.44810 0.18990 0.52250 0.12000
C 	C 	0.46089 0.15453 0.47565 0.11300
H 	H 	0.47810 0.17260 0.46290 -0.02000
C 	C 	0.45362 0.11764 0.45866 -0.16200
H 	H 	0.46590 0.11060 0.43440 0.07500
C 	C 	0.42820 0.09108 0.47751 0.05100
H 	H 	0.42330 0.06610 0.46590 0.01400
C 	C 	0.40999 0.10074 0.51300 -0.12200
C 	C 	0.38340 0.07181 0.53471 -0.01400
H 	H 	0.38150 0.04700 0.51940 0.03700
H 	H 	0.39520 0.06540 0.56070 0.02900
N 	N 	0.34272 0.08854 0.54076 -0.28800
H 	H 	0.33250 0.09140 0.51910 0.16200
C 	C 	0.31390 0.06505 0.56506 -0.00700
C 	C 	0.30232 0.02492 0.54628 -0.10600
H 	H 	0.27650 0.02700 0.53280 0.06300
H 	H 	0.32240 0.01660 0.52670 0.06100
C 	C 	0.30010 0.99540 0.57980 -0.08200
H 	H 	0.30400 0.96800 0.57030 0.04200
H 	H 	0.27460 0.99720 0.59400 0.05500
C 	C 	0.33540 0.00940 0.60660 -0.05700
H 	H 	0.33320 0.99830 0.63350 0.03500
H 	H 	0.36100 0.00140 0.59510 0.03900
C 	C 	0.33107 0.05429 0.60703 -0.12800
H 	H 	0.35700 0.06720 0.61120 0.04500
H 	H 	0.31280 0.06270 0.62820 0.06300
C 	C 	0.27807 0.09240 0.57233 0.29200
O 	O 	0.28558 0.12998 0.57344 -0.39200
O 	O 	0.24503 0.07740 0.57794 -0.34900
C 	C 	0.30610 0.01780 0.61970 -0.00200
Cu	Cu	0.84148 0.64316 0.06370 0.92200
O 	O 	0.89951 0.64764 0.06434 -0.48200
C 	C 	0.91768 0.63818 0.02989 0.25200
C 	C 	0.94311 0.66486 0.01104 -0.26100
H 	H 	0.94810 0.68990 0.02250 0.12000
C 	C 	0.96089 0.65453 0.97565 0.11300
H 	H 	0.97810 0.67260 0.96290 -0.02000
C 	C 	0.95362 0.61764 0.95866 -0.16200
H 	H 	0.96590 0.61060 0.93440 0.07500
C 	C 	0.92820 0.59108 0.97751 0.05100
H 	H 	0.92330 0.56610 0.96590 0.01400
C 	C 	0.90999 0.60074 0.01300 -0.12200
C 	C 	0.88340 0.57181 0.03471 -0.01300
H 	H 	0.88150 0.54700 0.01940 0.03700
H 	H 	0.89520 0.56540 0.06070 0.02900
N 	N 	0.84272 0.58854 0.04076 -0.28800
H 	H 	0.83250 0.59140 0.01910 0.16200
C 	C 	0.81390 0.56505 0.06506 -0.00700
C 	C 	0.80232 0.52492 0.04628 -0.10600
H 	H 	0.77650 0.52700 0.03280 0.06300
H 	H 	0.82240 0.51660 0.02670 0.06100
C 	C 	0.80010 0.49540 0.07980 -0.08100
H 	H 	0.80400 0.46800 0.07030 0.04200
H 	H 	0.77460 0.49720 0.09400 0.05500
C 	C 	0.83540 0.50940 0.10660 -0.05800
H 	H 	0.83320 0.49830 0.13350 0.03500
H 	H 	0.86100 0.50140 0.09510 0.03900
C 	C 	0.83107 0.55429 0.10703 -0.12800
H 	H 	0.85700 0.56720 0.11120 0.04500
H 	H 	0.81280 0.56270 0.12820 0.06300
C 	C 	0.77807 0.59240 0.07233 0.29200
O 	O 	0.78558 0.62998 0.07344 -0.39200
O 	O 	0.74503 0.57740 0.07794 -0.34900
C 	C 	0.80610 0.51780 0.11970 -0.00200
Cu	Cu	0.90852 0.31370 0.39316 0.92200
O 	O 	0.85049 0.31434 0.39764 -0.48200
C 	C 	0.83232 0.27989 0.38818 0.25200
C 	C 	0.80689 0.26104 0.41486 -0.26100
H 	H 	0.80190 0.27250 0.43990 0.12000
C 	C 	0.78911 0.22565 0.40453 0.11300
H 	H 	0.77190 0.21290 0.42260 -0.02000
C 	C 	0.79638 0.20866 0.36764 -0.16200
H 	H 	0.78410 0.18440 0.36060 0.07500
C 	C 	0.82180 0.22751 0.34108 0.05100
H 	H 	0.82670 0.21590 0.31610 0.01400
C 	C 	0.84001 0.26300 0.35074 -0.12200
C 	C 	0.86660 0.28471 0.32181 -0.01400
H 	H 	0.86850 0.26940 0.29700 0.03800
H 	H 	0.85480 0.31070 0.31540 0.02900
N 	N 	0.90728 0.29076 0.33854 -0.28800
H 	H 	0.91750 0.26910 0.34140 0.16200
C 	C 	0.93610 0.31506 0.31505 -0.00700
C 	C 	0.94768 0.29628 0.27492 -0.10600
H 	H 	0.97350 0.28280 0.27700 0.06300
H 	H 	0.92760 0.27670 0.26660 0.06100
C 	C 	0.94990 0.32980 0.24540 -0.08100
H 	H 	0.94600 0.32030 0.21800 0.04200
H 	H 	0.97540 0.34400 0.24720 0.05500
C 	C 	0.91460 0.35660 0.25940 -0.05800
H 	H 	0.91680 0.38350 0.24830 0.03500
H 	H 	0.88900 0.34510 0.25140 0.03900
C 	C 	0.91893 0.35703 0.30429 -0.12800
H 	H 	0.89300 0.36120 0.31720 0.04500
H 	H 	0.93720 0.37820 0.31270 0.06300
C 	C 	0.97193 0.32233 0.34240 0.29200
O 	O 	0.96442 0.32344 0.37998 -0.39200
O 	O 	0.00497 0.32794 0.32740 -0.34900
C 	C 	0.94390 0.36970 0.26780 -0.00200
Cu	Cu	0.40852 0.81370 0.89316 0.92200
O 	O 	0.35049 0.81434 0.89764 -0.48200
C 	C 	0.33232 0.77989 0.88818 0.25200
C 	C 	0.30689 0.76104 0.91486 -0.26100
H 	H 	0.30190 0.77250 0.93990 0.12000
C 	C 	0.28911 0.72565 0.90453 0.11300
H 	H 	0.27190 0.71290 0.92260 -0.02000
C 	C 	0.29638 0.70866 0.86764 -0.16200
H 	H 	0.28410 0.68440 0.86060 0.07500
C 	C 	0.32180 0.72751 0.84108 0.05100
H 	H 	0.32670 0.71590 0.81610 0.01400
C 	C 	0.34001 0.76300 0.85074 -0.12200
C 	C 	0.36660 0.78471 0.82181 -0.01400
H 	H 	0.36850 0.76940 0.79700 0.03800
H 	H 	0.35480 0.81070 0.81540 0.02900
N 	N 	0.40728 0.79076 0.83854 -0.28800
H 	H 	0.41750 0.76910 0.84140 0.16200
C 	C 	0.43610 0.81506 0.81505 -0.00700
C 	C 	0.44768 0.79628 0.77492 -0.10600
H 	H 	0.47350 0.78280 0.77700 0.06300
H 	H 	0.42760 0.77670 0.76660 0.06100
C 	C 	0.44990 0.82980 0.74540 -0.08100
H 	H 	0.44600 0.82030 0.71800 0.04200
H 	H 	0.47540 0.84400 0.74720 0.05500
C 	C 	0.41460 0.85660 0.75940 -0.05800
H 	H 	0.41680 0.88350 0.74830 0.03500
H 	H 	0.38900 0.84510 0.75140 0.03900
C 	C 	0.41893 0.85703 0.80429 -0.12800
H 	H 	0.39300 0.86120 0.81720 0.04500
H 	H 	0.43720 0.87820 0.81270 0.06300
C 	C 	0.47193 0.82233 0.84240 0.29200
O 	O 	0.46442 0.82344 0.87998 -0.39200
O 	O 	0.50497 0.82794 0.82740 -0.34900
C 	C 	0.44390 0.86970 0.76780 -0.00200
Cu	Cu	0.59148 0.68630 0.89316 0.92200
O 	O 	0.64951 0.68566 0.89764 -0.48200
C 	C 	0.66768 0.72011 0.88818 0.25200
C 	C 	0.69311 0.73896 0.91486 -0.26100
H 	H 	0.69810 0.72750 0.93990 0.12000
C 	C 	0.71089 0.77435 0.90453 0.11300
H 	H 	0.72810 0.78710 0.92260 -0.02000
C 	C 	0.70362 0.79134 0.86764 -0.16200
H 	H 	0.71590 0.81560 0.86060 0.07500
C 	C 	0.67820 0.77249 0.84108 0.05100
H 	H 	0.67330 0.78410 0.81610 0.01400
C 	C 	0.65999 0.73700 0.85074 -0.12200
C 	C 	0.63340 0.71529 0.82181 -0.01400
H 	H 	0.63150 0.73060 0.79700 0.03800
H 	H 	0.64520 0.68930 0.81540 0.02900
N 	N 	0.59272 0.70924 0.83854 -0.28800
H 	H 	0.58250 0.73090 0.84140 0.16200
C 	C 	0.56390 0.68494 0.81505 -0.00700
C 	C 	0.55232 0.70372 0.77492 -0.10600
H 	H 	0.52650 0.71720 0.77700 0.06300
H 	H 	0.57240 0.72330 0.76660 0.06100
C 	C 	0.55010 0.67020 0.74540 -0.08100
H 	H 	0.55400 0.67970 0.71800 0.04200
H 	H 	0.52460 0.65600 0.74720 0.05500
C 	C 	0.58540 0.64340 0.75940 -0.05800
H 	H 	0.58320 0.61650 0.74830 0.03500
H 	H 	0.61100 0.65490 0.75140 0.03900
C 	C 	0.58107 0.64297 0.80429 -0.12800
H 	H 	0.60700 0.63880 0.81720 0.04500
H 	H 	0.56280 0.62180 0.81270 0.06300
C 	C 	0.52807 0.67767 0.84240 0.29200
O 	O 	0.53558 0.67656 0.87998 -0.39200
O 	O 	0.49503 0.67206 0.82740 -0.34900
C 	C 	0.55610 0.63030 0.76780 -0.00200
Cu	Cu	0.09148 0.18630 0.39316 0.92200
O 	O 	0.14951 0.18566 0.39764 -0.48200
C 	C 	0.16768 0.22011 0.38818 0.25200
C 	C 	0.19311 0.23896 0.41486 -0.26100
H 	H 	0.19810 0.22750 0.43990 0.12000
C 	C 	0.21089 0.27435 0.40453 0.11300
H 	H 	0.22810 0.28710 0.42260 -0.02000
C 	C 	0.20362 0.29134 0.36764 -0.16200
H 	H 	0.21590 0.31560 0.36060 0.07500
C 	C 	0.17820 0.27249 0.34108 0.05100
H 	H 	0.17330 0.28410 0.31610 0.01400
C 	C 	0.15999 0.23700 0.35074 -0.12200
C 	C 	0.13340 0.21529 0.32181 -0.01400
H 	H 	0.13150 0.23060 0.29700 0.03800
H 	H 	0.14520 0.18930 0.31540 0.02900
N 	N 	0.09272 0.20924 0.33854 -0.28800
H 	H 	0.08250 0.23090 0.34140 0.16200
C 	C 	0.06390 0.18494 0.31505 -0.00700
C 	C 	0.05232 0.20372 0.27492 -0.10600
H 	H 	0.02650 0.21720 0.27700 0.06300
H 	H 	0.07240 0.22330 0.26660 0.06100
C 	C 	0.05010 0.17020 0.24540 -0.08100
H 	H 	0.05400 0.17970 0.21800 0.04200
H 	H 	0.02460 0.15600 0.24720 0.05500
C 	C 	0.08540 0.14340 0.25940 -0.05800
H 	H 	0.08320 0.11650 0.24830 0.03500
H 	H 	0.11100 0.15490 0.25140 0.03900
C 	C 	0.08107 0.14297 0.30429 -0.12800
H 	H 	0.10700 0.13880 0.31720 0.04500
H 	H 	0.06280 0.12180 0.31270 0.06300
C 	C 	0.02807 0.17767 0.34240 0.29200
O 	O 	0.03558 0.17656 0.37998 -0.39200
O 	O 	0.99503 0.17206 0.32740 -0.34900
C 	C 	0.05610 0.13030 0.26780 -0.00200
Cu	Cu	0.40852 0.18630 0.60684 0.92200
O 	O 	0.35049 0.18566 0.60236 -0.48200
C 	C 	0.33232 0.22011 0.61182 0.25200
C 	C 	0.30689 0.23896 0.58514 -0.26100
H 	H 	0.30190 0.22750 0.56010 0.12000
C 	C 	0.28911 0.27435 0.59547 0.11300
H 	H 	0.27190 0.28710 0.57740 -0.02000
C 	C 	0.29638 0.29134 0.63236 -0.16200
H 	H 	0.28410 0.31560 0.63940 0.07500
C 	C 	0.32180 0.27249 0.65892 0.05100
H 	H 	0.32670 0.28410 0.68390 0.01400
C 	C 	0.34001 0.23700 0.64926 -0.12200
C 	C 	0.36660 0.21529 0.67819 -0.01400
H 	H 	0.36850 0.23060 0.70300 0.03800
H 	H 	0.35480 0.18930 0.68460 0.02900
N 	N 	0.40728 0.20924 0.66146 -0.28800
H 	H 	0.41750 0.23090 0.65860 0.16200
C 	C 	0.43610 0.18494 0.68495 -0.00700
C 	C 	0.44768 0.20372 0.72508 -0.10600
H 	H 	0.47350 0.21720 0.72300 0.06300
H 	H 	0.42760 0.22330 0.73340 0.06100
C 	C 	0.44990 0.17020 0.75460 -0.08100
H 	H 	0.44600 0.17970 0.78200 0.04200
H 	H 	0.47540 0.15600 0.75280 0.05500
C 	C 	0.41460 0.14340 0.74060 -0.05800
H 	H 	0.41680 0.11650 0.75170 0.03500
H 	H 	0.38900 0.15490 0.74860 0.03900
C 	C 	0.41893 0.14297 0.69571 -0.12800
H 	H 	0.39300 0.13880 0.68280 0.04500
H 	H 	0.43720 0.12180 0.68730 0.06300
C 	C 	0.47193 0.17767 0.65760 0.29200
O 	O 	0.46442 0.17656 0.62002 -0.39200
O 	O 	0.50497 0.17206 0.67260 -0.34900
C 	C 	0.44390 0.13030 0.73220 -0.00200
Cu	Cu	0.90852 0.68630 0.10684 0.92200
O 	O 	0.85049 0.68566 0.10236 -0.48200
C 	C 	0.83232 0.72011 0.11182 0.25200
C 	C 	0.80689 0.73896 0.08514 -0.26100
H 	H 	0.80190 0.72750 0.06010 0.12000
C 	C 	0.78911 0.77435 0.09547 0.11300
H 	H 	0.77190 0.78710 0.07740 -0.02000
C 	C 	0.79638 0.79134 0.13236 -0.16200
H 	H 	0.78410 0.81560 0.13940 0.07500
C 	C 	0.82180 0.77249 0.15892 0.05100
H 	H 	0.82670 0.78410 0.18390 0.01400
C 	C 	0.84001 0.73700 0.14926 -0.12200
C 	C 	0.86660 0.71529 0.17819 -0.01400
H 	H 	0.86850 0.73060 0.20300 0.03800
H 	H 	0.85480 0.68930 0.18460 0.02900
N 	N 	0.90728 0.70924 0.16146 -0.28800
H 	H 	0.91750 0.73090 0.15860 0.16200
C 	C 	0.93610 0.68494 0.18495 -0.00700
C 	C 	0.94768 0.70372 0.22508 -0.10600
H 	H 	0.97350 0.71720 0.22300 0.06300
H 	H 	0.92760 0.72330 0.23340 0.06100
C 	C 	0.94990 0.67020 0.25460 -0.08100
H 	H 	0.94600 0.67970 0.28200 0.04200
H 	H 	0.97540 0.65600 0.25280 0.05500
C 	C 	0.91460 0.64340 0.24060 -0.05800
H 	H 	0.91680 0.61650 0.25170 0.03500
H 	H 	0.88900 0.65490 0.24860 0.03900
C 	C 	0.91893 0.64297 0.19571 -0.12800
H 	H 	0.89300 0.63880 0.18280 0.04500
H 	H 	0.93720 0.62180 0.18730 0.06300
C 	C 	0.97193 0.67767 0.15760 0.29200
O 	O 	0.96442 0.67656 0.12002 -0.39200
O 	O 	0.00497 0.67206 0.17260 -0.34900
C 	C 	0.94390 0.63030 0.23220 -0.00200
Cu	Cu	0.09148 0.81370 0.10684 0.92200
O 	O 	0.14951 0.81434 0.10236 -0.48200
C 	C 	0.16768 0.77989 0.11182 0.25200
C 	C 	0.19311 0.76104 0.08514 -0.26100
H 	H 	0.19810 0.77250 0.06010 0.12000
C 	C 	0.21089 0.72565 0.09547 0.11300
H 	H 	0.22810 0.71290 0.07740 -0.02000
C 	C 	0.20362 0.70866 0.13236 -0.16200
H 	H 	0.21590 0.68440 0.13940 0.07500
C 	C 	0.17820 0.72751 0.15892 0.05100
H 	H 	0.17330 0.71590 0.18390 0.01400
C 	C 	0.15999 0.76300 0.14926 -0.12200
C 	C 	0.13340 0.78471 0.17819 -0.01400
H 	H 	0.13150 0.76940 0.20300 0.03800
H 	H 	0.14520 0.81070 0.18460 0.02900
N 	N 	0.09272 0.79076 0.16146 -0.28800
H 	H 	0.08250 0.76910 0.15860 0.16200
C 	C 	0.06390 0.81506 0.18495 -0.00700
C 	C 	0.05232 0.79628 0.22508 -0.10600
H 	H 	0.02650 0.78280 0.22300 0.06300
H 	H 	0.07240 0.77670 0.23340 0.06100
C 	C 	0.05010 0.82980 0.25460 -0.08100
H 	H 	0.05400 0.82030 0.28200 0.04200
H 	H 	0.02460 0.84400 0.25280 0.05500
C 	C 	0.08540 0.85660 0.24060 -0.05800
H 	H 	0.08320 0.88350 0.25170 0.03500
H 	H 	0.11100 0.84510 0.24860 0.03900
C 	C 	0.08107 0.85703 0.19571 -0.12800
H 	H 	0.10700 0.86120 0.18280 0.04500
H 	H 	0.06280 0.87820 0.18730 0.06300
C 	C 	0.02807 0.82233 0.15760 0.29200
O 	O 	0.03558 0.82344 0.12002 -0.39200
O 	O 	0.99503 0.82794 0.17260 -0.34900
C 	C 	0.05610 0.86970 0.23220 -0.00200
Cu	Cu	0.59148 0.31370 0.60684 0.92200
O 	O 	0.64951 0.31434 0.60236 -0.48200
C 	C 	0.66768 0.27989 0.61182 0.25200
C 	C 	0.69311 0.26104 0.58514 -0.26100
H 	H 	0.69810 0.27250 0.56010 0.12000
C 	C 	0.71089 0.22565 0.59547 0.11300
H 	H 	0.72810 0.21290 0.57740 -0.02000
C 	C 	0.70362 0.20866 0.63236 -0.16200
H 	H 	0.71590 0.18440 0.63940 0.07500
C 	C 	0.67820 0.22751 0.65892 0.05100
H 	H 	0.67330 0.21590 0.68390 0.01400
C 	C 	0.65999 0.26300 0.64926 -0.12200
C 	C 	0.63340 0.28471 0.67819 -0.01400
H 	H 	0.63150 0.26940 0.70300 0.03800
H 	H 	0.64520 0.31070 0.68460 0.02900
N 	N 	0.59272 0.29076 0.66146 -0.28800
H 	H 	0.58250 0.26910 0.65860 0.16200
C 	C 	0.56390 0.31506 0.68495 -0.00700
C 	C 	0.55232 0.29628 0.72508 -0.10600
H 	H 	0.52650 0.28280 0.72300 0.06300
H 	H 	0.57240 0.27670 0.73340 0.06100
C 	C 	0.55010 0.32980 0.75460 -0.08100
H 	H 	0.55400 0.32030 0.78200 0.04200
H 	H 	0.52460 0.34400 0.75280 0.05500
C 	C 	0.58540 0.35660 0.74060 -0.05800
H 	H 	0.58320 0.38350 0.75170 0.03500
H 	H 	0.61100 0.34510 0.74860 0.03900
C 	C 	0.58107 0.35703 0.69571 -0.12800
H 	H 	0.60700 0.36120 0.68280 0.04500
H 	H 	0.56280 0.37820 0.68730 0.06300
C 	C 	0.52807 0.32233 0.65760 0.29200
O 	O 	0.53558 0.32344 0.62002 -0.39200
O 	O 	0.49503 0.32794 0.67260 -0.34900
C 	C 	0.55610 0.36970 0.73220 -0.00200
Cu	Cu	0.81370 0.10684 0.09148 0.92200
O 	O 	0.81434 0.10236 0.14951 -0.48200
C 	C 	0.77989 0.11182 0.16768 0.25200
C 	C 	0.76104 0.08514 0.19311 -0.26100
H 	H 	0.77250 0.06010 0.19810 0.12000
C 	C 	0.72565 0.09547 0.21089 0.11300
H 	H 	0.71290 0.07740 0.22810 -0.02000
C 	C 	0.70866 0.13236 0.20362 -0.16200
H 	H 	0.68440 0.13940 0.21590 0.07500
C 	C 	0.72751 0.15892 0.17820 0.05100
H 	H 	0.71590 0.18390 0.17330 0.01400
C 	C 	0.76300 0.14926 0.15999 -0.12200
C 	C 	0.78471 0.17819 0.13340 -0.01400
H 	H 	0.76940 0.20300 0.13150 0.03800
H 	H 	0.81070 0.18460 0.14520 0.02900
N 	N 	0.79076 0.16146 0.09272 -0.28800
H 	H 	0.76910 0.15860 0.08250 0.16200
C 	C 	0.81506 0.18495 0.06390 -0.00700
C 	C 	0.79628 0.22508 0.05232 -0.10600
H 	H 	0.78280 0.22300 0.02650 0.06300
H 	H 	0.77670 0.23340 0.07240 0.06100
C 	C 	0.82980 0.25460 0.05010 -0.08100
H 	H 	0.82030 0.28200 0.05400 0.04200
H 	H 	0.84400 0.25280 0.02460 0.05500
C 	C 	0.85660 0.24060 0.08540 -0.05800
H 	H 	0.88350 0.25170 0.08320 0.03500
H 	H 	0.84510 0.24860 0.11100 0.03900
C 	C 	0.85703 0.19571 0.08107 -0.12800
H 	H 	0.86120 0.18280 0.10700 0.04500
H 	H 	0.87820 0.18730 0.06280 0.06300
C 	C 	0.82233 0.15760 0.02807 0.29200
O 	O 	0.82344 0.12002 0.03558 -0.39200
O 	O 	0.82794 0.17260 0.99503 -0.34900
C 	C 	0.86970 0.23220 0.05610 -0.00200
Cu	Cu	0.31370 0.60684 0.59148 0.92200
O 	O 	0.31434 0.60236 0.64951 -0.48200
C 	C 	0.27989 0.61182 0.66768 0.25200
C 	C 	0.26104 0.58514 0.69311 -0.26100
H 	H 	0.27250 0.56010 0.69810 0.12000
C 	C 	0.22565 0.59547 0.71089 0.11300
H 	H 	0.21290 0.57740 0.72810 -0.02000
C 	C 	0.20866 0.63236 0.70362 -0.16200
H 	H 	0.18440 0.63940 0.71590 0.07500
C 	C 	0.22751 0.65892 0.67820 0.05100
H 	H 	0.21590 0.68390 0.67330 0.01400
C 	C 	0.26300 0.64926 0.65999 -0.12200
C 	C 	0.28471 0.67819 0.63340 -0.01400
H 	H 	0.26940 0.70300 0.63150 0.03800
H 	H 	0.31070 0.68460 0.64520 0.02900
N 	N 	0.29076 0.66146 0.59272 -0.28800
H 	H 	0.26910 0.65860 0.58250 0.16200
C 	C 	0.31506 0.68495 0.56390 -0.00700
C 	C 	0.29628 0.72508 0.55232 -0.10600
H 	H 	0.28280 0.72300 0.52650 0.06300
H 	H 	0.27670 0.73340 0.57240 0.06100
C 	C 	0.32980 0.75460 0.55010 -0.08100
H 	H 	0.32030 0.78200 0.55400 0.04200
H 	H 	0.34400 0.75280 0.52460 0.05500
C 	C 	0.35660 0.74060 0.58540 -0.05800
H 	H 	0.38350 0.75170 0.58320 0.03500
H 	H 	0.34510 0.74860 0.61100 0.03900
C 	C 	0.35703 0.69571 0.58107 -0.12800
H 	H 	0.36120 0.68280 0.60700 0.04500
H 	H 	0.37820 0.68730 0.56280 0.06300
C 	C 	0.32233 0.65760 0.52807 0.29200
O 	O 	0.32344 0.62002 0.53558 -0.39200
O 	O 	0.32794 0.67260 0.49503 -0.34900
C 	C 	0.36970 0.73220 0.55610 -0.00200
Cu	Cu	0.18630 0.60684 0.40852 0.92200
O 	O 	0.18566 0.60236 0.35049 -0.48200
C 	C 	0.22011 0.61182 0.33232 0.25200
C 	C 	0.23896 0.58514 0.30689 -0.26100
H 	H 	0.22750 0.56010 0.30190 0.12000
C 	C 	0.27435 0.59547 0.28911 0.11300
H 	H 	0.28710 0.57740 0.27190 -0.02000
C 	C 	0.29134 0.63236 0.29638 -0.16200
H 	H 	0.31560 0.63940 0.28410 0.07500
C 	C 	0.27249 0.65892 0.32180 0.05100
H 	H 	0.28410 0.68390 0.32670 0.01400
C 	C 	0.23700 0.64926 0.34001 -0.12200
C 	C 	0.21529 0.67819 0.36660 -0.01400
H 	H 	0.23060 0.70300 0.36850 0.03800
H 	H 	0.18930 0.68460 0.35480 0.02900
N 	N 	0.20924 0.66146 0.40728 -0.28800
H 	H 	0.23090 0.65860 0.41750 0.16200
C 	C 	0.18494 0.68495 0.43610 -0.00700
C 	C 	0.20372 0.72508 0.44768 -0.10600
H 	H 	0.21720 0.72300 0.47350 0.06300
H 	H 	0.22330 0.73340 0.42760 0.06100
C 	C 	0.17020 0.75460 0.44990 -0.08100
H 	H 	0.17970 0.78200 0.44600 0.04200
H 	H 	0.15600 0.75280 0.47540 0.05500
C 	C 	0.14340 0.74060 0.41460 -0.05800
H 	H 	0.11650 0.75170 0.41680 0.03500
H 	H 	0.15490 0.74860 0.38900 0.03900
C 	C 	0.14297 0.69571 0.41893 -0.12800
H 	H 	0.13880 0.68280 0.39300 0.04500
H 	H 	0.12180 0.68730 0.43720 0.06300
C 	C 	0.17767 0.65760 0.47193 0.29200
O 	O 	0.17656 0.62002 0.46442 -0.39200
O 	O 	0.17206 0.67260 0.50497 -0.34900
C 	C 	0.13030 0.73220 0.44390 -0.00200
Cu	Cu	0.68630 0.10684 0.90852 0.92200
O 	O 	0.68566 0.10236 0.85049 -0.48200
C 	C 	0.72011 0.11182 0.83232 0.25200
C 	C 	0.73896 0.08514 0.80689 -0.26100
H 	H 	0.72750 0.06010 0.80190 0.12000
C 	C 	0.77435 0.09547 0.78911 0.11300
H 	H 	0.78710 0.07740 0.77190 -0.02000
C 	C 	0.79134 0.13236 0.79638 -0.16200
H 	H 	0.81560 0.13940 0.78410 0.07500
C 	C 	0.77249 0.15892 0.82180 0.05100
H 	H 	0.78410 0.18390 0.82670 0.01400
C 	C 	0.73700 0.14926 0.84001 -0.12200
C 	C 	0.71529 0.17819 0.86660 -0.01400
H 	H 	0.73060 0.20300 0.86850 0.03800
H 	H 	0.68930 0.18460 0.85480 0.02900
N 	N 	0.70924 0.16146 0.90728 -0.28800
H 	H 	0.73090 0.15860 0.91750 0.16200
C 	C 	0.68494 0.18495 0.93610 -0.00700
C 	C 	0.70372 0.22508 0.94768 -0.10600
H 	H 	0.71720 0.22300 0.97350 0.06300
H 	H 	0.72330 0.23340 0.92760 0.06100
C 	C 	0.67020 0.25460 0.94990 -0.08100
H 	H 	0.67970 0.28200 0.94600 0.04200
H 	H 	0.65600 0.25280 0.97540 0.05500
C 	C 	0.64340 0.24060 0.91460 -0.05800
H 	H 	0.61650 0.25170 0.91680 0.03500
H 	H 	0.65490 0.24860 0.88900 0.03900
C 	C 	0.64297 0.19571 0.91893 -0.12800
H 	H 	0.63880 0.18280 0.89300 0.04500
H 	H 	0.62180 0.18730 0.93720 0.06300
C 	C 	0.67767 0.15760 0.97193 0.29200
O 	O 	0.67656 0.12002 0.96442 -0.39200
O 	O 	0.67206 0.17260 0.00497 -0.34900
C 	C 	0.63030 0.23220 0.94390 -0.00200
Cu	Cu	0.68630 0.89316 0.59148 0.92200
O 	O 	0.68566 0.89764 0.64951 -0.48200
C 	C 	0.72011 0.88818 0.66768 0.25200
C 	C 	0.73896 0.91486 0.69311 -0.26100
H 	H 	0.72750 0.93990 0.69810 0.12000
C 	C 	0.77435 0.90453 0.71089 0.11300
H 	H 	0.78710 0.92260 0.72810 -0.02000
C 	C 	0.79134 0.86764 0.70362 -0.16200
H 	H 	0.81560 0.86060 0.71590 0.07500
C 	C 	0.77249 0.84108 0.67820 0.05100
H 	H 	0.78410 0.81610 0.67330 0.01400
C 	C 	0.73700 0.85074 0.65999 -0.12200
C 	C 	0.71529 0.82181 0.63340 -0.01400
H 	H 	0.73060 0.79700 0.63150 0.03800
H 	H 	0.68930 0.81540 0.64520 0.02900
N 	N 	0.70924 0.83854 0.59272 -0.28800
H 	H 	0.73090 0.84140 0.58250 0.16200
C 	C 	0.68494 0.81505 0.56390 -0.00700
C 	C 	0.70372 0.77492 0.55232 -0.10600
H 	H 	0.71720 0.77700 0.52650 0.06300
H 	H 	0.72330 0.76660 0.57240 0.06100
C 	C 	0.67020 0.74540 0.55010 -0.08100
H 	H 	0.67970 0.71800 0.55400 0.04200
H 	H 	0.65600 0.74720 0.52460 0.05500
C 	C 	0.64340 0.75940 0.58540 -0.05800
H 	H 	0.61650 0.74830 0.58320 0.03500
H 	H 	0.65490 0.75140 0.61100 0.03900
C 	C 	0.64297 0.80429 0.58107 -0.12800
H 	H 	0.63880 0.81720 0.60700 0.04500
H 	H 	0.62180 0.81270 0.56280 0.06300
C 	C 	0.67767 0.84240 0.52807 0.29200
O 	O 	0.67656 0.87998 0.53558 -0.39200
O 	O 	0.67206 0.82740 0.49503 -0.34900
C 	C 	0.63030 0.76780 0.55610 -0.00200
Cu	Cu	0.18630 0.39316 0.09148 0.92200
O 	O 	0.18566 0.39764 0.14951 -0.48200
C 	C 	0.22011 0.38818 0.16768 0.25200
C 	C 	0.23896 0.41486 0.19311 -0.26100
H 	H 	0.22750 0.43990 0.19810 0.12000
C 	C 	0.27435 0.40453 0.21089 0.11300
H 	H 	0.28710 0.42260 0.22810 -0.02000
C 	C 	0.29134 0.36764 0.20362 -0.16200
H 	H 	0.31560 0.36060 0.21590 0.07500
C 	C 	0.27249 0.34108 0.17820 0.05100
H 	H 	0.28410 0.31610 0.17330 0.01400
C 	C 	0.23700 0.35074 0.15999 -0.12200
C 	C 	0.21529 0.32181 0.13340 -0.01400
H 	H 	0.23060 0.29700 0.13150 0.03800
H 	H 	0.18930 0.31540 0.14520 0.02900
N 	N 	0.20924 0.33854 0.09272 -0.28800
H 	H 	0.23090 0.34140 0.08250 0.16200
C 	C 	0.18494 0.31505 0.06390 -0.00700
C 	C 	0.20372 0.27492 0.05232 -0.10600
H 	H 	0.21720 0.27700 0.02650 0.06300
H 	H 	0.22330 0.26660 0.07240 0.06100
C 	C 	0.17020 0.24540 0.05010 -0.08100
H 	H 	0.17970 0.21800 0.05400 0.04200
H 	H 	0.15600 0.24720 0.02460 0.05500
C 	C 	0.14340 0.25940 0.08540 -0.05800
H 	H 	0.11650 0.24830 0.08320 0.03500
H 	H 	0.15490 0.25140 0.11100 0.03900
C 	C 	0.14297 0.30429 0.08107 -0.12800
H 	H 	0.13880 0.31720 0.10700 0.04500
H 	H 	0.12180 0.31270 0.06280 0.06300
C 	C 	0.17767 0.34240 0.02807 0.29200
O 	O 	0.17656 0.37998 0.03558 -0.39200
O 	O 	0.17206 0.32740 0.99503 -0.34900
C 	C 	0.13030 0.26780 0.05610 -0.00200
Cu	Cu	0.31370 0.39316 0.90852 0.92200
O 	O 	0.31434 0.39764 0.85049 -0.48200
C 	C 	0.27989 0.38818 0.83232 0.25200
C 	C 	0.26104 0.41486 0.80689 -0.26100
H 	H 	0.27250 0.43990 0.80190 0.12000
C 	C 	0.22565 0.40453 0.78911 0.11300
H 	H 	0.21290 0.42260 0.77190 -0.02000
C 	C 	0.20866 0.36764 0.79638 -0.16200
H 	H 	0.18440 0.36060 0.78410 0.07500
C 	C 	0.22751 0.34108 0.82180 0.05100
H 	H 	0.21590 0.31610 0.82670 0.01400
C 	C 	0.26300 0.35074 0.84001 -0.12200
C 	C 	0.28471 0.32181 0.86660 -0.01400
H 	H 	0.26940 0.29700 0.86850 0.03800
H 	H 	0.31070 0.31540 0.85480 0.02900
N 	N 	0.29076 0.33854 0.90728 -0.28800
H 	H 	0.26910 0.34140 0.91750 0.16200
C 	C 	0.31506 0.31505 0.93610 -0.00700
C 	C 	0.29628 0.27492 0.94768 -0.10600
H 	H 	0.28280 0.27700 0.97350 0.06300
H 	H 	0.27670 0.26660 0.92760 0.06100
C 	C 	0.32980 0.24540 0.94990 -0.08100
H 	H 	0.32030 0.21800 0.94600 0.04200
H 	H 	0.34400 0.24720 0.97540 0.05500
C 	C 	0.35660 0.25940 0.91460 -0.05800
H 	H 	0.38350 0.24830 0.91680 0.03500
H 	H 	0.34510 0.25140 0.88900 0.03900
C 	C 	0.35703 0.30429 0.91893 -0.12800
H 	H 	0.36120 0.31720 0.89300 0.04500
H 	H 	0.37820 0.31270 0.93720 0.06300
C 	C 	0.32233 0.34240 0.97193 0.29200
O 	O 	0.32344 0.37998 0.96442 -0.39200
O 	O 	0.32794 0.32740 0.00497 -0.34900
C 	C 	0.36970 0.26780 0.94390 -0.00200
Cu	Cu	0.81370 0.89316 0.40852 0.92200
O 	O 	0.81434 0.89764 0.35049 -0.48200
C 	C 	0.77989 0.88818 0.33232 0.25200
C 	C 	0.76104 0.91486 0.30689 -0.26100
H 	H 	0.77250 0.93990 0.30190 0.12000
C 	C 	0.72565 0.90453 0.28911 0.11300
H 	H 	0.71290 0.92260 0.27190 -0.02000
C 	C 	0.70866 0.86764 0.29638 -0.16200
H 	H 	0.68440 0.86060 0.28410 0.07500
C 	C 	0.72751 0.84108 0.32180 0.05100
H 	H 	0.71590 0.81610 0.32670 0.01400
C 	C 	0.76300 0.85074 0.34001 -0.12200
C 	C 	0.78471 0.82181 0.36660 -0.01400
H 	H 	0.76940 0.79700 0.36850 0.03800
H 	H 	0.81070 0.81540 0.35480 0.02900
N 	N 	0.79076 0.83854 0.40728 -0.28800
H 	H 	0.76910 0.84140 0.41750 0.16200
C 	C 	0.81506 0.81505 0.43610 -0.00700
C 	C 	0.79628 0.77492 0.44768 -0.10600
H 	H 	0.78280 0.77700 0.47350 0.06300
H 	H 	0.77670 0.76660 0.42760 0.06100
C 	C 	0.82980 0.74540 0.44990 -0.08100
H 	H 	0.82030 0.71800 0.44600 0.04200
H 	H 	0.84400 0.74720 0.47540 0.05500
C 	C 	0.85660 0.75940 0.41460 -0.05800
H 	H 	0.88350 0.74830 0.41680 0.03500
H 	H 	0.84510 0.75140 0.38900 0.03900
C 	C 	0.85703 0.80429 0.41893 -0.12800
H 	H 	0.86120 0.81720 0.39300 0.04500
H 	H 	0.87820 0.81270 0.43720 0.06300
C 	C 	0.82233 0.84240 0.47193 0.29200
O 	O 	0.82344 0.87998 0.46442 -0.39200
O 	O 	0.82794 0.82740 0.50497 -0.34900
C 	C 	0.86970 0.76780 0.44390 -0.00200
Cu	Cu	0.60684 0.40852 0.18630 0.92200
O 	O 	0.60236 0.35049 0.18566 -0.48200
C 	C 	0.61182 0.33232 0.22011 0.25200
C 	C 	0.58514 0.30689 0.23896 -0.26100
H 	H 	0.56010 0.30190 0.22750 0.12000
C 	C 	0.59547 0.28911 0.27435 0.11300
H 	H 	0.57740 0.27190 0.28710 -0.02000
C 	C 	0.63236 0.29638 0.29134 -0.16200
H 	H 	0.63940 0.28410 0.31560 0.07500
C 	C 	0.65892 0.32180 0.27249 0.05100
H 	H 	0.68390 0.32670 0.28410 0.01400
C 	C 	0.64926 0.34001 0.23700 -0.12200
C 	C 	0.67819 0.36660 0.21529 -0.01400
H 	H 	0.70300 0.36850 0.23060 0.03800
H 	H 	0.68460 0.35480 0.18930 0.02900
N 	N 	0.66146 0.40728 0.20924 -0.28800
H 	H 	0.65860 0.41750 0.23090 0.16200
C 	C 	0.68495 0.43610 0.18494 -0.00700
C 	C 	0.72508 0.44768 0.20372 -0.10600
H 	H 	0.72300 0.47350 0.21720 0.06300
H 	H 	0.73340 0.42760 0.22330 0.06100
C 	C 	0.75460 0.44990 0.17020 -0.08100
H 	H 	0.78200 0.44600 0.17970 0.04200
H 	H 	0.75280 0.47540 0.15600 0.05500
C 	C 	0.74060 0.41460 0.14340 -0.05800
H 	H 	0.75170 0.41680 0.11650 0.03500
H 	H 	0.74860 0.38900 0.15490 0.03900
C 	C 	0.69571 0.41893 0.14297 -0.12800
H 	H 	0.68280 0.39300 0.13880 0.04500
H 	H 	0.68730 0.43720 0.12180 0.06300
C 	C 	0.65760 0.47193 0.17767 0.29200
O 	O 	0.62002 0.46442 0.17656 -0.39200
O 	O 	0.67260 0.50497 0.17206 -0.34900
C 	C 	0.73220 0.44390 0.13030 -0.00200
Cu	Cu	0.10684 0.90852 0.68630 0.92200
O 	O 	0.10236 0.85049 0.68566 -0.48200
C 	C 	0.11182 0.83232 0.72011 0.25200
C 	C 	0.08514 0.80689 0.73896 -0.26100
H 	H 	0.06010 0.80190 0.72750 0.12000
C 	C 	0.09547 0.78911 0.77435 0.11300
H 	H 	0.07740 0.77190 0.78710 -0.02000
C 	C 	0.13236 0.79638 0.79134 -0.16200
H 	H 	0.13940 0.78410 0.81560 0.07500
C 	C 	0.15892 0.82180 0.77249 0.05100
H 	H 	0.18390 0.82670 0.78410 0.01400
C 	C 	0.14926 0.84001 0.73700 -0.12200
C 	C 	0.17819 0.86660 0.71529 -0.01400
H 	H 	0.20300 0.86850 0.73060 0.03800
H 	H 	0.18460 0.85480 0.68930 0.02900
N 	N 	0.16146 0.90728 0.70924 -0.28800
H 	H 	0.15860 0.91750 0.73090 0.16200
C 	C 	0.18495 0.93610 0.68494 -0.00700
C 	C 	0.22508 0.94768 0.70372 -0.10600
H 	H 	0.22300 0.97350 0.71720 0.06300
H 	H 	0.23340 0.92760 0.72330 0.06100
C 	C 	0.25460 0.94990 0.67020 -0.08100
H 	H 	0.28200 0.94600 0.67970 0.04200
H 	H 	0.25280 0.97540 0.65600 0.05500
C 	C 	0.24060 0.91460 0.64340 -0.05800
H 	H 	0.25170 0.91680 0.61650 0.03500
H 	H 	0.24860 0.88900 0.65490 0.03900
C 	C 	0.19571 0.91893 0.64297 -0.12800
H 	H 	0.18280 0.89300 0.63880 0.04500
H 	H 	0.18730 0.93720 0.62180 0.06300
C 	C 	0.15760 0.97193 0.67767 0.29200
O 	O 	0.12002 0.96442 0.67656 -0.39200
O 	O 	0.17260 0.00497 0.67206 -0.34900
C 	C 	0.23220 0.94390 0.63030 -0.00200
Cu	Cu	0.10684 0.09148 0.81370 0.92200
O 	O 	0.10236 0.14951 0.81434 -0.48200
C 	C 	0.11182 0.16768 0.77989 0.25200
C 	C 	0.08514 0.19311 0.76104 -0.26100
H 	H 	0.06010 0.19810 0.77250 0.12000
C 	C 	0.09547 0.21089 0.72565 0.11300
H 	H 	0.07740 0.22810 0.71290 -0.02000
C 	C 	0.13236 0.20362 0.70866 -0.16200
H 	H 	0.13940 0.21590 0.68440 0.07500
C 	C 	0.15892 0.17820 0.72751 0.05100
H 	H 	0.18390 0.17330 0.71590 0.01400
C 	C 	0.14926 0.15999 0.76300 -0.12200
C 	C 	0.17819 0.13340 0.78471 -0.01400
H 	H 	0.20300 0.13150 0.76940 0.03800
H 	H 	0.18460 0.14520 0.81070 0.02900
N 	N 	0.16146 0.09272 0.79076 -0.28800
H 	H 	0.15860 0.08250 0.76910 0.16200
C 	C 	0.18495 0.06390 0.81506 -0.00700
C 	C 	0.22508 0.05232 0.79628 -0.10600
H 	H 	0.22300 0.02650 0.78280 0.06300
H 	H 	0.23340 0.07240 0.77670 0.06100
C 	C 	0.25460 0.05010 0.82980 -0.08100
H 	H 	0.28200 0.05400 0.82030 0.04200
H 	H 	0.25280 0.02460 0.84400 0.05500
C 	C 	0.24060 0.08540 0.85660 -0.05800
H 	H 	0.25170 0.08320 0.88350 0.03500
H 	H 	0.24860 0.11100 0.84510 0.03900
C 	C 	0.19571 0.08107 0.85703 -0.12800
H 	H 	0.18280 0.10700 0.86120 0.04500
H 	H 	0.18730 0.06280 0.87820 0.06300
C 	C 	0.15760 0.02807 0.82233 0.29200
O 	O 	0.12002 0.03558 0.82344 -0.39200
O 	O 	0.17260 0.99503 0.82794 -0.34900
C 	C 	0.23220 0.05610 0.86970 -0.00200
Cu	Cu	0.60684 0.59148 0.31370 0.92200
O 	O 	0.60236 0.64951 0.31434 -0.48200
C 	C 	0.61182 0.66768 0.27989 0.25200
C 	C 	0.58514 0.69311 0.26104 -0.26100
H 	H 	0.56010 0.69810 0.27250 0.12000
C 	C 	0.59547 0.71089 0.22565 0.11300
H 	H 	0.57740 0.72810 0.21290 -0.02000
C 	C 	0.63236 0.70362 0.20866 -0.16200
H 	H 	0.63940 0.71590 0.18440 0.07500
C 	C 	0.65892 0.67820 0.22751 0.05100
H 	H 	0.68390 0.67330 0.21590 0.01400
C 	C 	0.64926 0.65999 0.26300 -0.12200
C 	C 	0.67819 0.63340 0.28471 -0.01400
H 	H 	0.70300 0.63150 0.26940 0.03800
H 	H 	0.68460 0.64520 0.31070 0.02900
N 	N 	0.66146 0.59272 0.29076 -0.28800
H 	H 	0.65860 0.58250 0.26910 0.16200
C 	C 	0.68495 0.56390 0.31506 -0.00700
C 	C 	0.72508 0.55232 0.29628 -0.10600
H 	H 	0.72300 0.52650 0.28280 0.06300
H 	H 	0.73340 0.57240 0.27670 0.06100
C 	C 	0.75460 0.55010 0.32980 -0.08100
H 	H 	0.78200 0.55400 0.32030 0.04200
H 	H 	0.75280 0.52460 0.34400 0.05500
C 	C 	0.74060 0.58540 0.35660 -0.05800
H 	H 	0.75170 0.58320 0.38350 0.03500
H 	H 	0.74860 0.61100 0.34510 0.03900
C 	C 	0.69571 0.58107 0.35703 -0.12800
H 	H 	0.68280 0.60700 0.36120 0.04500
H 	H 	0.68730 0.56280 0.37820 0.06300
C 	C 	0.65760 0.52807 0.32233 0.29200
O 	O 	0.62002 0.53558 0.32344 -0.39200
O 	O 	0.67260 0.49503 0.32794 -0.34900
C 	C 	0.73220 0.55610 0.36970 -0.00200
Cu	Cu	0.39316 0.90852 0.31370 0.92200
O 	O 	0.39764 0.85049 0.31434 -0.48200
C 	C 	0.38818 0.83232 0.27989 0.25200
C 	C 	0.41486 0.80689 0.26104 -0.26100
H 	H 	0.43990 0.80190 0.27250 0.12000
C 	C 	0.40453 0.78911 0.22565 0.11300
H 	H 	0.42260 0.77190 0.21290 -0.02000
C 	C 	0.36764 0.79638 0.20866 -0.16200
H 	H 	0.36060 0.78410 0.18440 0.07500
C 	C 	0.34108 0.82180 0.22751 0.05100
H 	H 	0.31610 0.82670 0.21590 0.01400
C 	C 	0.35074 0.84001 0.26300 -0.12200
C 	C 	0.32181 0.86660 0.28471 -0.01400
H 	H 	0.29700 0.86850 0.26940 0.03800
H 	H 	0.31540 0.85480 0.31070 0.02900
N 	N 	0.33854 0.90728 0.29076 -0.28800
H 	H 	0.34140 0.91750 0.26910 0.16200
C 	C 	0.31505 0.93610 0.31506 -0.00700
C 	C 	0.27492 0.94768 0.29628 -0.10600
H 	H 	0.27700 0.97350 0.28280 0.06300
H 	H 	0.26660 0.92760 0.27670 0.06100
C 	C 	0.24540 0.94990 0.32980 -0.08100
H 	H 	0.21800 0.94600 0.32030 0.04200
H 	H 	0.24720 0.97540 0.34400 0.05500
C 	C 	0.25940 0.91460 0.35660 -0.05800
H 	H 	0.24830 0.91680 0.38350 0.03500
H 	H 	0.25140 0.88900 0.34510 0.03900
C 	C 	0.30429 0.91893 0.35703 -0.12800
H 	H 	0.31720 0.89300 0.36120 0.04500
H 	H 	0.31270 0.93720 0.37820 0.06300
C 	C 	0.34240 0.97193 0.32233 0.29200
O 	O 	0.37998 0.96442 0.32344 -0.39200
O 	O 	0.32740 0.00497 0.32794 -0.34900
C 	C 	0.26780 0.94390 0.36970 -0.00200
Cu	Cu	0.89316 0.40852 0.81370 0.92200
O 	O 	0.89764 0.35049 0.81434 -0.48200
C 	C 	0.88818 0.33232 0.77989 0.25200
C 	C 	0.91486 0.30689 0.76104 -0.26100
H 	H 	0.93990 0.30190 0.77250 0.12000
C 	C 	0.90453 0.28911 0.72565 0.11300
H 	H 	0.92260 0.27190 0.71290 -0.02000
C 	C 	0.86764 0.29638 0.70866 -0.16200
H 	H 	0.86060 0.28410 0.68440 0.07500
C 	C 	0.84108 0.32180 0.72751 0.05100
H 	H 	0.81610 0.32670 0.71590 0.01400
C 	C 	0.85074 0.34001 0.76300 -0.12200
C 	C 	0.82181 0.36660 0.78471 -0.01400
H 	H 	0.79700 0.36850 0.76940 0.03800
H 	H 	0.81540 0.35480 0.81070 0.02900
N 	N 	0.83854 0.40728 0.79076 -0.28800
H 	H 	0.84140 0.41750 0.76910 0.16200
C 	C 	0.81505 0.43610 0.81506 -0.00700
C 	C 	0.77492 0.44768 0.79628 -0.10600
H 	H 	0.77700 0.47350 0.78280 0.06300
H 	H 	0.76660 0.42760 0.77670 0.06100
C 	C 	0.74540 0.44990 0.82980 -0.08100
H 	H 	0.71800 0.44600 0.82030 0.04200
H 	H 	0.74720 0.47540 0.84400 0.05500
C 	C 	0.75940 0.41460 0.85660 -0.05800
H 	H 	0.74830 0.41680 0.88350 0.03500
H 	H 	0.75140 0.38900 0.84510 0.03900
C 	C 	0.80429 0.41893 0.85703 -0.12800
H 	H 	0.81720 0.39300 0.86120 0.04500
H 	H 	0.81270 0.43720 0.87820 0.06300
C 	C 	0.84240 0.47193 0.82233 0.29200
O 	O 	0.87998 0.46442 0.82344 -0.39200
O 	O 	0.82740 0.50497 0.82794 -0.34900
C 	C 	0.76780 0.44390 0.86970 -0.00200
Cu	Cu	0.89316 0.59148 0.68630 0.92200
O 	O 	0.89764 0.64951 0.68566 -0.48200
C 	C 	0.88818 0.66768 0.72011 0.25200
C 	C 	0.91486 0.69311 0.73896 -0.26100
H 	H 	0.93990 0.69810 0.72750 0.12000
C 	C 	0.90453 0.71089 0.77435 0.11300
H 	H 	0.92260 0.72810 0.78710 -0.02000
C 	C 	0.86764 0.70362 0.79134 -0.16200
H 	H 	0.86060 0.71590 0.81560 0.07500
C 	C 	0.84108 0.67820 0.77249 0.05100
H 	H 	0.81610 0.67330 0.78410 0.01400
C 	C 	0.85074 0.65999 0.73700 -0.12200
C 	C 	0.82181 0.63340 0.71529 -0.01400
H 	H 	0.79700 0.63150 0.73060 0.03800
H 	H 	0.81540 0.64520 0.68930 0.02900
N 	N 	0.83854 0.59272 0.70924 -0.28800
H 	H 	0.84140 0.58250 0.73090 0.16200
C 	C 	0.81505 0.56390 0.68494 -0.00700
C 	C 	0.77492 0.55232 0.70372 -0.10600
H 	H 	0.77700 0.52650 0.71720 0.06300
H 	H 	0.76660 0.57240 0.72330 0.06100
C 	C 	0.74540 0.55010 0.67020 -0.08100
H 	H 	0.71800 0.55400 0.67970 0.04200
H 	H 	0.74720 0.52460 0.65600 0.05500
C 	C 	0.75940 0.58540 0.64340 -0.05800
H 	H 	0.74830 0.58320 0.61650 0.03500
H 	H 	0.75140 0.61100 0.65490 0.03900
C 	C 	0.80429 0.58107 0.64297 -0.12800
H 	H 	0.81720 0.60700 0.63880 0.04500
H 	H 	0.81270 0.56280 0.62180 0.06300
C 	C 	0.84240 0.52807 0.67767 0.29200
O 	O 	0.87998 0.53558 0.67656 -0.39200
O 	O 	0.82740 0.49503 0.67206 -0.34900
C 	C 	0.76780 0.55610 0.63030 -0.00200
Cu	Cu	0.39316 0.09148 0.18630 0.92200
O 	O 	0.39764 0.14951 0.18566 -0.48200
C 	C 	0.38818 0.16768 0.22011 0.25200
C 	C 	0.41486 0.19311 0.23896 -0.26100
H 	H 	0.43990 0.19810 0.22750 0.12000
C 	C 	0.40453 0.21089 0.27435 0.11300
H 	H 	0.42260 0.22810 0.28710 -0.02000
C 	C 	0.36764 0.20362 0.29134 -0.16200
H 	H 	0.36060 0.21590 0.31560 0.07500
C 	C 	0.34108 0.17820 0.27249 0.05100
H 	H 	0.31610 0.17330 0.28410 0.01400
C 	C 	0.35074 0.15999 0.23700 -0.12200
C 	C 	0.32181 0.13340 0.21529 -0.01400
H 	H 	0.29700 0.13150 0.23060 0.03800
H 	H 	0.31540 0.14520 0.18930 0.02900
N 	N 	0.33854 0.09272 0.20924 -0.28800
H 	H 	0.34140 0.08250 0.23090 0.16200
C 	C 	0.31505 0.06390 0.18494 -0.00700
C 	C 	0.27492 0.05232 0.20372 -0.10600
H 	H 	0.27700 0.02650 0.21720 0.06300
H 	H 	0.26660 0.07240 0.22330 0.06100
C 	C 	0.24540 0.05010 0.17020 -0.08100
H 	H 	0.21800 0.05400 0.17970 0.04200
H 	H 	0.24720 0.02460 0.15600 0.05500
C 	C 	0.25940 0.08540 0.14340 -0.05800
H 	H 	0.24830 0.08320 0.11650 0.03500
H 	H 	0.25140 0.11100 0.15490 0.03900
C 	C 	0.30429 0.08107 0.14297 -0.12800
H 	H 	0.31720 0.10700 0.13880 0.04500
H 	H 	0.31270 0.06280 0.12180 0.06300
C 	C 	0.34240 0.02807 0.17767 0.29200
O 	O 	0.37998 0.03558 0.17656 -0.39200
O 	O 	0.32740 0.99503 0.17206 -0.34900
C 	C 	0.26780 0.05610 0.13030 -0.00200
Cu	Cu	0.93630 0.84148 0.14316 0.92200
O 	O 	0.93566 0.89951 0.14764 -0.48200
C 	C 	0.97011 0.91768 0.13818 0.25200
C 	C 	0.98896 0.94311 0.16486 -0.26100
H 	H 	0.97750 0.94810 0.18990 0.12000
C 	C 	0.02435 0.96089 0.15453 0.11300
H 	H 	0.03710 0.97810 0.17260 -0.02000
C 	C 	0.04134 0.95362 0.11764 -0.16200
H 	H 	0.06560 0.96590 0.11060 0.07500
C 	C 	0.02249 0.92820 0.09108 0.05100
H 	H 	0.03410 0.92330 0.06610 0.01400
C 	C 	0.98700 0.90999 0.10074 -0.12200
C 	C 	0.96529 0.88340 0.07181 -0.01300
H 	H 	0.98060 0.88150 0.04700 0.03700
H 	H 	0.93930 0.89520 0.06540 0.02900
N 	N 	0.95924 0.84272 0.08854 -0.28800
H 	H 	0.98090 0.83250 0.09140 0.16200
C 	C 	0.93494 0.81390 0.06505 -0.00700
C 	C 	0.95372 0.80232 0.02492 -0.10600
H 	H 	0.96720 0.77650 0.02700 0.06300
H 	H 	0.97330 0.82240 0.01660 0.06100
C 	C 	0.92020 0.80010 0.99540 -0.08200
H 	H 	0.92970 0.80400 0.96800 0.04200
H 	H 	0.90600 0.77460 0.99720 0.05500
C 	C 	0.89340 0.83540 0.00940 -0.05700
H 	H 	0.86650 0.83320 0.99830 0.03500
H 	H 	0.90490 0.86100 0.00140 0.03800
C 	C 	0.89297 0.83107 0.05429 -0.12800
H 	H 	0.88880 0.85700 0.06720 0.04500
H 	H 	0.87180 0.81280 0.06270 0.06300
C 	C 	0.92767 0.77807 0.09240 0.29200
O 	O 	0.92656 0.78558 0.12998 -0.39200
O 	O 	0.92206 0.74503 0.07740 -0.34900
C 	C 	0.88030 0.80610 0.01780 -0.00200
Cu	Cu	0.43630 0.34148 0.64316 0.92200
O 	O 	0.43566 0.39951 0.64764 -0.48200
C 	C 	0.47011 0.41768 0.63818 0.25200
C 	C 	0.48896 0.44311 0.66486 -0.26100
H 	H 	0.47750 0.44810 0.68990 0.12000
C 	C 	0.52435 0.46089 0.65453 0.11300
H 	H 	0.53710 0.47810 0.67260 -0.02000
C 	C 	0.54134 0.45362 0.61764 -0.16200
H 	H 	0.56560 0.46590 0.61060 0.07500
C 	C 	0.52249 0.42820 0.59108 0.05100
H 	H 	0.53410 0.42330 0.56610 0.01400
C 	C 	0.48700 0.40999 0.60074 -0.12200
C 	C 	0.46529 0.38340 0.57181 -0.01400
H 	H 	0.48060 0.38150 0.54700 0.03800
H 	H 	0.43930 0.39520 0.56540 0.02900
N 	N 	0.45924 0.34272 0.58854 -0.28800
H 	H 	0.48090 0.33250 0.59140 0.16200
C 	C 	0.43494 0.31390 0.56505 -0.00700
C 	C 	0.45372 0.30232 0.52492 -0.10600
H 	H 	0.46720 0.27650 0.52700 0.06300
H 	H 	0.47330 0.32240 0.51660 0.06100
C 	C 	0.42020 0.30010 0.49540 -0.08100
H 	H 	0.42970 0.30400 0.46800 0.04200
H 	H 	0.40600 0.27460 0.49720 0.05500
C 	C 	0.39340 0.33540 0.50940 -0.05800
H 	H 	0.36650 0.33320 0.49830 0.03500
H 	H 	0.40490 0.36100 0.50140 0.03900
C 	C 	0.39297 0.33107 0.55429 -0.12800
H 	H 	0.38880 0.35700 0.56720 0.04500
H 	H 	0.37180 0.31280 0.56270 0.06300
C 	C 	0.42767 0.27807 0.59240 0.29200
O 	O 	0.42656 0.28558 0.62998 -0.39200
O 	O 	0.42206 0.24503 0.57740 -0.34900
C 	C 	0.38030 0.30610 0.51780 -0.00200
Cu	Cu	0.56370 0.15852 0.64316 0.92200
O 	O 	0.56434 0.10049 0.64764 -0.48200
C 	C 	0.52989 0.08232 0.63818 0.25200
C 	C 	0.51104 0.05689 0.66486 -0.26100
H 	H 	0.52250 0.05190 0.68990 0.12000
C 	C 	0.47565 0.03911 0.65453 0.11300
H 	H 	0.46290 0.02190 0.67260 -0.02000
C 	C 	0.45866 0.04638 0.61764 -0.16200
H 	H 	0.43440 0.03410 0.61060 0.07500
C 	C 	0.47751 0.07180 0.59108 0.05100
H 	H 	0.46590 0.07670 0.56610 0.01400
C 	C 	0.51300 0.09001 0.60074 -0.12200
C 	C 	0.53471 0.11660 0.57181 -0.01400
H 	H 	0.51940 0.11850 0.54700 0.03700
H 	H 	0.56070 0.10480 0.56540 0.02900
N 	N 	0.54076 0.15728 0.58854 -0.28800
H 	H 	0.51910 0.16750 0.59140 0.16200
C 	C 	0.56506 0.18610 0.56505 -0.00700
C 	C 	0.54628 0.19768 0.52492 -0.10600
H 	H 	0.53280 0.22350 0.52700 0.06300
H 	H 	0.52670 0.17760 0.51660 0.06100
C 	C 	0.57980 0.19990 0.49540 -0.08100
H 	H 	0.57030 0.19600 0.46800 0.04200
H 	H 	0.59400 0.22540 0.49720 0.05500
C 	C 	0.60660 0.16460 0.50940 -0.05800
H 	H 	0.63350 0.16680 0.49830 0.03500
H 	H 	0.59510 0.13900 0.50140 0.03900
C 	C 	0.60703 0.16893 0.55429 -0.12800
H 	H 	0.61120 0.14300 0.56720 0.04500
H 	H 	0.62820 0.18720 0.56270 0.06300
C 	C 	0.57233 0.22193 0.59240 0.29200
O 	O 	0.57344 0.21442 0.62998 -0.39200
O 	O 	0.57794 0.25497 0.57740 -0.34900
C 	C 	0.61970 0.19390 0.51780 -0.00200
Cu	Cu	0.06370 0.65852 0.14316 0.92200
O 	O 	0.06434 0.60049 0.14764 -0.48200
C 	C 	0.02989 0.58232 0.13818 0.25200
C 	C 	0.01104 0.55689 0.16486 -0.26100
H 	H 	0.02250 0.55190 0.18990 0.12000
C 	C 	0.97565 0.53911 0.15453 0.11300
H 	H 	0.96290 0.52190 0.17260 -0.02000
C 	C 	0.95866 0.54638 0.11764 -0.16200
H 	H 	0.93440 0.53410 0.11060 0.07500
C 	C 	0.97751 0.57180 0.09108 0.05100
H 	H 	0.96590 0.57670 0.06610 0.01400
C 	C 	0.01300 0.59001 0.10074 -0.12200
C 	C 	0.03471 0.61660 0.07181 -0.01300
H 	H 	0.01940 0.61850 0.04700 0.03700
H 	H 	0.06070 0.60480 0.06540 0.02900
N 	N 	0.04076 0.65728 0.08854 -0.28800
H 	H 	0.01910 0.66750 0.09140 0.16200
C 	C 	0.06506 0.68610 0.06505 -0.00700
C 	C 	0.04628 0.69768 0.02492 -0.10600
H 	H 	0.03280 0.72350 0.02700 0.06300
H 	H 	0.02670 0.67760 0.01660 0.06100
C 	C 	0.07980 0.69990 0.99540 -0.08200
H 	H 	0.07030 0.69600 0.96800 0.04200
H 	H 	0.09400 0.72540 0.99720 0.05500
C 	C 	0.10660 0.66460 0.00940 -0.05700
H 	H 	0.13350 0.66680 0.99830 0.03500
H 	H 	0.09510 0.63900 0.00140 0.03800
C 	C 	0.10703 0.66893 0.05429 -0.12800
H 	H 	0.11120 0.64300 0.06720 0.04500
H 	H 	0.12820 0.68720 0.06270 0.06300
C 	C 	0.07233 0.72193 0.09240 0.29200
O 	O 	0.07344 0.71442 0.12998 -0.39200
O 	O 	0.07794 0.75497 0.07740 -0.34900
C 	C 	0.11970 0.69390 0.01780 -0.00200
Cu	Cu	0.06370 0.34148 0.35684 0.92200
O 	O 	0.06434 0.39951 0.35236 -0.48200
C 	C 	0.02989 0.41768 0.36182 0.25200
C 	C 	0.01104 0.44311 0.33514 -0.26100
H 	H 	0.02250 0.44810 0.31010 0.12000
C 	C 	0.97565 0.46089 0.34547 0.11300
H 	H 	0.96290 0.47810 0.32740 -0.02000
C 	C 	0.95866 0.45362 0.38236 -0.16200
H 	H 	0.93440 0.46590 0.38940 0.07500
C 	C 	0.97751 0.42820 0.40892 0.05100
H 	H 	0.96590 0.42330 0.43390 0.01400
C 	C 	0.01300 0.40999 0.39926 -0.12200
C 	C 	0.03471 0.38340 0.42819 -0.01300
H 	H 	0.01940 0.38150 0.45300 0.03700
H 	H 	0.06070 0.39520 0.43460 0.02900
N 	N 	0.04076 0.34272 0.41146 -0.28800
H 	H 	0.01910 0.33250 0.40860 0.16200
C 	C 	0.06506 0.31390 0.43495 -0.00700
C 	C 	0.04628 0.30232 0.47508 -0.10600
H 	H 	0.03280 0.27650 0.47300 0.06300
H 	H 	0.02670 0.32240 0.48340 0.06100
C 	C 	0.07980 0.30010 0.50460 -0.08100
H 	H 	0.07030 0.30400 0.53200 0.04200
H 	H 	0.09400 0.27460 0.50280 0.05500
C 	C 	0.10660 0.33540 0.49060 -0.05800
H 	H 	0.13350 0.33320 0.50170 0.03500
H 	H 	0.09510 0.36100 0.49860 0.03900
C 	C 	0.10703 0.33107 0.44571 -0.12800
H 	H 	0.11120 0.35700 0.43280 0.04500
H 	H 	0.12820 0.31280 0.43730 0.06300
C 	C 	0.07233 0.27807 0.40760 0.29200
O 	O 	0.07344 0.28558 0.37002 -0.39200
O 	O 	0.07794 0.24503 0.42260 -0.34900
C 	C 	0.11970 0.30610 0.48220 -0.00200
Cu	Cu	0.56370 0.84148 0.85684 0.92200
O 	O 	0.56434 0.89951 0.85236 -0.48200
C 	C 	0.52989 0.91768 0.86182 0.25200
C 	C 	0.51104 0.94311 0.83514 -0.26100
H 	H 	0.52250 0.94810 0.81010 0.12000
C 	C 	0.47565 0.96089 0.84547 0.11300
H 	H 	0.46290 0.97810 0.82740 -0.02000
C 	C 	0.45866 0.95362 0.88236 -0.16200
H 	H 	0.43440 0.96590 0.88940 0.07500
C 	C 	0.47751 0.92820 0.90892 0.05100
H 	H 	0.46590 0.92330 0.93390 0.01400
C 	C 	0.51300 0.90999 0.89926 -0.12200
C 	C 	0.53471 0.88340 0.92819 -0.01400
H 	H 	0.51940 0.88150 0.95300 0.03700
H 	H 	0.56070 0.89520 0.93460 0.02900
N 	N 	0.54076 0.84272 0.91146 -0.28800
H 	H 	0.51910 0.83250 0.90860 0.16200
C 	C 	0.56506 0.81390 0.93495 -0.00700
C 	C 	0.54628 0.80232 0.97508 -0.10600
H 	H 	0.53280 0.77650 0.97300 0.06300
H 	H 	0.52670 0.82240 0.98340 0.06100
C 	C 	0.57980 0.80010 0.00460 -0.08200
H 	H 	0.57030 0.80400 0.03200 0.04200
H 	H 	0.59400 0.77460 0.00280 0.05500
C 	C 	0.60660 0.83540 0.99060 -0.05700
H 	H 	0.63350 0.83320 0.00170 0.03500
H 	H 	0.59510 0.86100 0.99860 0.03800
C 	C 	0.60703 0.83107 0.94571 -0.12800
H 	H 	0.61120 0.85700 0.93280 0.04500
H 	H 	0.62820 0.81280 0.93730 0.06300
C 	C 	0.57233 0.77807 0.90760 0.29200
O 	O 	0.57344 0.78558 0.87002 -0.39200
O 	O 	0.57794 0.74503 0.92260 -0.34900
C 	C 	0.61970 0.80610 0.98220 -0.00200
Cu	Cu	0.43630 0.65852 0.85684 0.92200
O 	O 	0.43566 0.60049 0.85236 -0.48200
C 	C 	0.47011 0.58232 0.86182 0.25200
C 	C 	0.48896 0.55689 0.83514 -0.26100
H 	H 	0.47750 0.55190 0.81010 0.12000
C 	C 	0.52435 0.53911 0.84547 0.11300
H 	H 	0.53710 0.52190 0.82740 -0.02000
C 	C 	0.54134 0.54638 0.88236 -0.16200
H 	H 	0.56560 0.53410 0.88940 0.07500
C 	C 	0.52249 0.57180 0.90892 0.05100
H 	H 	0.53410 0.57670 0.93390 0.01400
C 	C 	0.48700 0.59001 0.89926 -0.12200
C 	C 	0.46529 0.61660 0.92819 -0.01400
H 	H 	0.48060 0.61850 0.95300 0.03700
H 	H 	0.43930 0.60480 0.93460 0.02900
N 	N 	0.45924 0.65728 0.91146 -0.28800
H 	H 	0.48090 0.66750 0.90860 0.16200
C 	C 	0.43494 0.68610 0.93495 -0.00700
C 	C 	0.45372 0.69768 0.97508 -0.10600
H 	H 	0.46720 0.72350 0.97300 0.06300
H 	H 	0.47330 0.67760 0.98340 0.06100
C 	C 	0.42020 0.69990 0.00460 -0.08200
H 	H 	0.42970 0.69600 0.03200 0.04200
H 	H 	0.40600 0.72540 0.00280 0.05500
C 	C 	0.39340 0.66460 0.99060 -0.05700
H 	H 	0.36650 0.66680 0.00170 0.03500
H 	H 	0.40490 0.63900 0.99860 0.03900
C 	C 	0.39297 0.66893 0.94571 -0.12800
H 	H 	0.38880 0.64300 0.93280 0.04500
H 	H 	0.37180 0.68720 0.93730 0.06300
C 	C 	0.42767 0.72193 0.90760 0.29200
O 	O 	0.42656 0.71442 0.87002 -0.39200
O 	O 	0.42206 0.75497 0.92260 -0.34900
C 	C 	0.38030 0.69390 0.98220 -0.00200
Cu	Cu	0.93630 0.15852 0.35684 0.92200
O 	O 	0.93566 0.10049 0.35236 -0.48200
C 	C 	0.97011 0.08232 0.36182 0.25200
C 	C 	0.98896 0.05689 0.33514 -0.26100
H 	H 	0.97750 0.05190 0.31010 0.12000
C 	C 	0.02435 0.03911 0.34547 0.11300
H 	H 	0.03710 0.02190 0.32740 -0.02000
C 	C 	0.04134 0.04638 0.38236 -0.16200
H 	H 	0.06560 0.03410 0.38940 0.07500
C 	C 	0.02249 0.07180 0.40892 0.05100
H 	H 	0.03410 0.07670 0.43390 0.01400
C 	C 	0.98700 0.09001 0.39926 -0.12200
C 	C 	0.96529 0.11660 0.42819 -0.01300
H 	H 	0.98060 0.11850 0.45300 0.03700
H 	H 	0.93930 0.10480 0.43460 0.02900
N 	N 	0.95924 0.15728 0.41146 -0.28800
H 	H 	0.98090 0.16750 0.40860 0.16200
C 	C 	0.93494 0.18610 0.43495 -0.00700
C 	C 	0.95372 0.19768 0.47508 -0.10600
H 	H 	0.96720 0.22350 0.47300 0.06300
H 	H 	0.97330 0.17760 0.48340 0.06100
C 	C 	0.92020 0.19990 0.50460 -0.08100
H 	H 	0.92970 0.19600 0.53200 0.04200
H 	H 	0.90600 0.22540 0.50280 0.05500
C 	C 	0.89340 0.16460 0.49060 -0.05800
H 	H 	0.86650 0.16680 0.50170 0.03500
H 	H 	0.90490 0.13900 0.49860 0.03900
C 	C 	0.89297 0.16893 0.44571 -0.12800
H 	H 	0.88880 0.14300 0.43280 0.04500
H 	H 	0.87180 0.18720 0.43730 0.06300
C 	C 	0.92767 0.22193 0.40760 0.29200
O 	O 	0.92656 0.21442 0.37002 -0.39200
O 	O 	0.92206 0.25497 0.42260 -0.34900
C 	C 	0.88030 0.19390 0.48220 -0.00200
Cu	Cu	0.14316 0.93630 0.84148 0.92200
O 	O 	0.14764 0.93566 0.89951 -0.48200
C 	C 	0.13818 0.97011 0.91768 0.25200
C 	C 	0.16486 0.98896 0.94311 -0.26100
H 	H 	0.18990 0.97750 0.94810 0.12000
C 	C 	0.15453 0.02435 0.96089 0.11300
H 	H 	0.17260 0.03710 0.97810 -0.02000
C 	C 	0.11764 0.04134 0.95362 -0.16200
H 	H 	0.11060 0.06560 0.96590 0.07500
C 	C 	0.09108 0.02249 0.92820 0.05100
H 	H 	0.06610 0.03410 0.92330 0.01400
C 	C 	0.10074 0.98700 0.90999 -0.12200
C 	C 	0.07181 0.96529 0.88340 -0.01300
H 	H 	0.04700 0.98060 0.88150 0.03700
H 	H 	0.06540 0.93930 0.89520 0.02900
N 	N 	0.08854 0.95924 0.84272 -0.28800
H 	H 	0.09140 0.98090 0.83250 0.16200
C 	C 	0.06505 0.93494 0.81390 -0.00700
C 	C 	0.02492 0.95372 0.80232 -0.10600
H 	H 	0.02700 0.96720 0.77650 0.06300
H 	H 	0.01660 0.97330 0.82240 0.06100
C 	C 	0.99540 0.92020 0.80010 -0.08200
H 	H 	0.96800 0.92970 0.80400 0.04200
H 	H 	0.99720 0.90600 0.77460 0.05500
C 	C 	0.00940 0.89340 0.83540 -0.05700
H 	H 	0.99830 0.86650 0.83320 0.03500
H 	H 	0.00140 0.90490 0.86100 0.03800
C 	C 	0.05429 0.89297 0.83107 -0.12800
H 	H 	0.06720 0.88880 0.85700 0.04500
H 	H 	0.06270 0.87180 0.81280 0.06300
C 	C 	0.09240 0.92767 0.77807 0.29200
O 	O 	0.12998 0.92656 0.78558 -0.39200
O 	O 	0.07740 0.92206 0.74503 -0.34900
C 	C 	0.01780 0.88030 0.80610 -0.00200
Cu	Cu	0.64316 0.43630 0.34148 0.92200
O 	O 	0.64764 0.43566 0.39951 -0.48200
C 	C 	0.63818 0.47011 0.41768 0.25200
C 	C 	0.66486 0.48896 0.44311 -0.26100
H 	H 	0.68990 0.47750 0.44810 0.12000
C 	C 	0.65453 0.52435 0.46089 0.11300
H 	H 	0.67260 0.53710 0.47810 -0.02000
C 	C 	0.61764 0.54134 0.45362 -0.16200
H 	H 	0.61060 0.56560 0.46590 0.07500
C 	C 	0.59108 0.52249 0.42820 0.05100
H 	H 	0.56610 0.53410 0.42330 0.01400
C 	C 	0.60074 0.48700 0.40999 -0.12200
C 	C 	0.57181 0.46529 0.38340 -0.01400
H 	H 	0.54700 0.48060 0.38150 0.03800
H 	H 	0.56540 0.43930 0.39520 0.02900
N 	N 	0.58854 0.45924 0.34272 -0.28800
H 	H 	0.59140 0.48090 0.33250 0.16200
C 	C 	0.56505 0.43494 0.31390 -0.00700
C 	C 	0.52492 0.45372 0.30232 -0.10600
H 	H 	0.52700 0.46720 0.27650 0.06300
H 	H 	0.51660 0.47330 0.32240 0.06100
C 	C 	0.49540 0.42020 0.30010 -0.08100
H 	H 	0.46800 0.42970 0.30400 0.04200
H 	H 	0.49720 0.40600 0.27460 0.05500
C 	C 	0.50940 0.39340 0.33540 -0.05800
H 	H 	0.49830 0.36650 0.33320 0.03500
H 	H 	0.50140 0.40490 0.36100 0.03900
C 	C 	0.55429 0.39297 0.33107 -0.12800
H 	H 	0.56720 0.38880 0.35700 0.04500
H 	H 	0.56270 0.37180 0.31280 0.06300
C 	C 	0.59240 0.42767 0.27807 0.29200
O 	O 	0.62998 0.42656 0.28558 -0.39200
O 	O 	0.57740 0.42206 0.24503 -0.34900
C 	C 	0.51780 0.38030 0.30610 -0.00200
Cu	Cu	0.64316 0.56370 0.15852 0.92200
O 	O 	0.64764 0.56434 0.10049 -0.48200
C 	C 	0.63818 0.52989 0.08232 0.25200
C 	C 	0.66486 0.51104 0.05689 -0.26100
H 	H 	0.68990 0.52250 0.05190 0.12000
C 	C 	0.65453 0.47565 0.03911 0.11300
H 	H 	0.67260 0.46290 0.02190 -0.02000
C 	C 	0.61764 0.45866 0.04638 -0.16200
H 	H 	0.61060 0.43440 0.03410 0.07500
C 	C 	0.59108 0.47751 0.07180 0.05100
H 	H 	0.56610 0.46590 0.07670 0.01400
C 	C 	0.60074 0.51300 0.09001 -0.12200
C 	C 	0.57181 0.53471 0.11660 -0.01400
H 	H 	0.54700 0.51940 0.11850 0.03700
H 	H 	0.56540 0.56070 0.10480 0.02900
N 	N 	0.58854 0.54076 0.15728 -0.28800
H 	H 	0.59140 0.51910 0.16750 0.16200
C 	C 	0.56505 0.56506 0.18610 -0.00700
C 	C 	0.52492 0.54628 0.19768 -0.10600
H 	H 	0.52700 0.53280 0.22350 0.06300
H 	H 	0.51660 0.52670 0.17760 0.06100
C 	C 	0.49540 0.57980 0.19990 -0.08100
H 	H 	0.46800 0.57030 0.19600 0.04200
H 	H 	0.49720 0.59400 0.22540 0.05500
C 	C 	0.50940 0.60660 0.16460 -0.05800
H 	H 	0.49830 0.63350 0.16680 0.03500
H 	H 	0.50140 0.59510 0.13900 0.03900
C 	C 	0.55429 0.60703 0.16893 -0.12800
H 	H 	0.56720 0.61120 0.14300 0.04500
H 	H 	0.56270 0.62820 0.18720 0.06300
C 	C 	0.59240 0.57233 0.22193 0.29200
O 	O 	0.62998 0.57344 0.21442 -0.39200
O 	O 	0.57740 0.57794 0.25497 -0.34900
C 	C 	0.51780 0.61970 0.19390 -0.00200
Cu	Cu	0.14316 0.06370 0.65852 0.92200
O 	O 	0.14764 0.06434 0.60049 -0.48200
C 	C 	0.13818 0.02989 0.58232 0.25200
C 	C 	0.16486 0.01104 0.55689 -0.26100
H 	H 	0.18990 0.02250 0.55190 0.12000
C 	C 	0.15453 0.97565 0.53911 0.11300
H 	H 	0.17260 0.96290 0.52190 -0.02000
C 	C 	0.11764 0.95866 0.54638 -0.16200
H 	H 	0.11060 0.93440 0.53410 0.07500
C 	C 	0.09108 0.97751 0.57180 0.05100
H 	H 	0.06610 0.96590 0.57670 0.01400
C 	C 	0.10074 0.01300 0.59001 -0.12200
C 	C 	0.07181 0.03471 0.61660 -0.01300
H 	H 	0.04700 0.01940 0.61850 0.03700
H 	H 	0.06540 0.06070 0.60480 0.02900
N 	N 	0.08854 0.04076 0.65728 -0.28800
H 	H 	0.09140 0.01910 0.66750 0.16200
C 	C 	0.06505 0.06506 0.68610 -0.00700
C 	C 	0.02492 0.04628 0.69768 -0.10600
H 	H 	0.02700 0.03280 0.72350 0.06300
H 	H 	0.01660 0.02670 0.67760 0.06100
C 	C 	0.99540 0.07980 0.69990 -0.08200
H 	H 	0.96800 0.07030 0.69600 0.04200
H 	H 	0.99720 0.09400 0.72540 0.05500
C 	C 	0.00940 0.10660 0.66460 -0.05700
H 	H 	0.99830 0.13350 0.66680 0.03500
H 	H 	0.00140 0.09510 0.63900 0.03800
C 	C 	0.05429 0.10703 0.66893 -0.12800
H 	H 	0.06720 0.11120 0.64300 0.04500
H 	H 	0.06270 0.12820 0.68720 0.06300
C 	C 	0.09240 0.07233 0.72193 0.29200
O 	O 	0.12998 0.07344 0.71442 -0.39200
O 	O 	0.07740 0.07794 0.75497 -0.34900
C 	C 	0.01780 0.11970 0.69390 -0.00200
Cu	Cu	0.35684 0.06370 0.34148 0.92200
O 	O 	0.35236 0.06434 0.39951 -0.48200
C 	C 	0.36182 0.02989 0.41768 0.25200
C 	C 	0.33514 0.01104 0.44311 -0.26100
H 	H 	0.31010 0.02250 0.44810 0.12000
C 	C 	0.34547 0.97565 0.46089 0.11300
H 	H 	0.32740 0.96290 0.47810 -0.02000
C 	C 	0.38236 0.95866 0.45362 -0.16200
H 	H 	0.38940 0.93440 0.46590 0.07500
C 	C 	0.40892 0.97751 0.42820 0.05100
H 	H 	0.43390 0.96590 0.42330 0.01400
C 	C 	0.39926 0.01300 0.40999 -0.12200
C 	C 	0.42819 0.03471 0.38340 -0.01300
H 	H 	0.45300 0.01940 0.38150 0.03700
H 	H 	0.43460 0.06070 0.39520 0.02900
N 	N 	0.41146 0.04076 0.34272 -0.28800
H 	H 	0.40860 0.01910 0.33250 0.16200
C 	C 	0.43495 0.06506 0.31390 -0.00700
C 	C 	0.47508 0.04628 0.30232 -0.10600
H 	H 	0.47300 0.03280 0.27650 0.06300
H 	H 	0.48340 0.02670 0.32240 0.06100
C 	C 	0.50460 0.07980 0.30010 -0.08100
H 	H 	0.53200 0.07030 0.30400 0.04200
H 	H 	0.50280 0.09400 0.27460 0.05500
C 	C 	0.49060 0.10660 0.33540 -0.05800
H 	H 	0.50170 0.13350 0.33320 0.03500
H 	H 	0.49860 0.09510 0.36100 0.03900
C 	C 	0.44571 0.10703 0.33107 -0.12800
H 	H 	0.43280 0.11120 0.35700 0.04500
H 	H 	0.43730 0.12820 0.31280 0.06300
C 	C 	0.40760 0.07233 0.27807 0.29200
O 	O 	0.37002 0.07344 0.28558 -0.39200
O 	O 	0.42260 0.07794 0.24503 -0.34900
C 	C 	0.48220 0.11970 0.30610 -0.00200
Cu	Cu	0.85684 0.56370 0.84148 0.92200
O 	O 	0.85236 0.56434 0.89951 -0.48200
C 	C 	0.86182 0.52989 0.91768 0.25200
C 	C 	0.83514 0.51104 0.94311 -0.26100
H 	H 	0.81010 0.52250 0.94810 0.12000
C 	C 	0.84547 0.47565 0.96089 0.11300
H 	H 	0.82740 0.46290 0.97810 -0.02000
C 	C 	0.88236 0.45866 0.95362 -0.16200
H 	H 	0.88940 0.43440 0.96590 0.07500
C 	C 	0.90892 0.47751 0.92820 0.05100
H 	H 	0.93390 0.46590 0.92330 0.01400
C 	C 	0.89926 0.51300 0.90999 -0.12200
C 	C 	0.92819 0.53471 0.88340 -0.01400
H 	H 	0.95300 0.51940 0.88150 0.03700
H 	H 	0.93460 0.56070 0.89520 0.02900
N 	N 	0.91146 0.54076 0.84272 -0.28800
H 	H 	0.90860 0.51910 0.83250 0.16200
C 	C 	0.93495 0.56506 0.81390 -0.00700
C 	C 	0.97508 0.54628 0.80232 -0.10600
H 	H 	0.97300 0.53280 0.77650 0.06300
H 	H 	0.98340 0.52670 0.82240 0.06100
C 	C 	0.00460 0.57980 0.80010 -0.08200
H 	H 	0.03200 0.57030 0.80400 0.04200
H 	H 	0.00280 0.59400 0.77460 0.05500
C 	C 	0.99060 0.60660 0.83540 -0.05700
H 	H 	0.00170 0.63350 0.83320 0.03500
H 	H 	0.99860 0.59510 0.86100 0.03800
C 	C 	0.94571 0.60703 0.83107 -0.12800
H 	H 	0.93280 0.61120 0.85700 0.04500
H 	H 	0.93730 0.62820 0.81280 0.06300
C 	C 	0.90760 0.57233 0.77807 0.29200
O 	O 	0.87002 0.57344 0.78558 -0.39200
O 	O 	0.92260 0.57794 0.74503 -0.34900
C 	C 	0.98220 0.61970 0.80610 -0.00200
Cu	Cu	0.85684 0.43630 0.65852 0.92200
O 	O 	0.85236 0.43566 0.60049 -0.48200
C 	C 	0.86182 0.47011 0.58232 0.25200
C 	C 	0.83514 0.48896 0.55689 -0.26100
H 	H 	0.81010 0.47750 0.55190 0.12000
C 	C 	0.84547 0.52435 0.53911 0.11300
H 	H 	0.82740 0.53710 0.52190 -0.02000
C 	C 	0.88236 0.54134 0.54638 -0.16200
H 	H 	0.88940 0.56560 0.53410 0.07500
C 	C 	0.90892 0.52249 0.57180 0.05100
H 	H 	0.93390 0.53410 0.57670 0.01400
C 	C 	0.89926 0.48700 0.59001 -0.12200
C 	C 	0.92819 0.46529 0.61660 -0.01400
H 	H 	0.95300 0.48060 0.61850 0.03700
H 	H 	0.93460 0.43930 0.60480 0.02900
N 	N 	0.91146 0.45924 0.65728 -0.28800
H 	H 	0.90860 0.48090 0.66750 0.16200
C 	C 	0.93495 0.43494 0.68610 -0.00700
C 	C 	0.97508 0.45372 0.69768 -0.10600
H 	H 	0.97300 0.46720 0.72350 0.06300
H 	H 	0.98340 0.47330 0.67760 0.06100
C 	C 	0.00460 0.42020 0.69990 -0.08200
H 	H 	0.03200 0.42970 0.69600 0.04200
H 	H 	0.00280 0.40600 0.72540 0.05500
C 	C 	0.99060 0.39340 0.66460 -0.05700
H 	H 	0.00170 0.36650 0.66680 0.03500
H 	H 	0.99860 0.40490 0.63900 0.03900
C 	C 	0.94571 0.39297 0.66893 -0.12800
H 	H 	0.93280 0.38880 0.64300 0.04500
H 	H 	0.93730 0.37180 0.68720 0.06300
C 	C 	0.90760 0.42767 0.72193 0.29200
O 	O 	0.87002 0.42656 0.71442 -0.39200
O 	O 	0.92260 0.42206 0.75497 -0.34900
C 	C 	0.98220 0.38030 0.69390 -0.00200
Cu	Cu	0.35684 0.93630 0.15852 0.92200
O 	O 	0.35236 0.93566 0.10049 -0.48200
C 	C 	0.36182 0.97011 0.08232 0.25200
C 	C 	0.33514 0.98896 0.05689 -0.26100
H 	H 	0.31010 0.97750 0.05190 0.12000
C 	C 	0.34547 0.02435 0.03911 0.11300
H 	H 	0.32740 0.03710 0.02190 -0.02000
C 	C 	0.38236 0.04134 0.04638 -0.16200
H 	H 	0.38940 0.06560 0.03410 0.07500
C 	C 	0.40892 0.02249 0.07180 0.05100
H 	H 	0.43390 0.03410 0.07670 0.01400
C 	C 	0.39926 0.98700 0.09001 -0.12200
C 	C 	0.42819 0.96529 0.11660 -0.01300
H 	H 	0.45300 0.98060 0.11850 0.03700
H 	H 	0.43460 0.93930 0.10480 0.02900
N 	N 	0.41146 0.95924 0.15728 -0.28800
H 	H 	0.40860 0.98090 0.16750 0.16200
C 	C 	0.43495 0.93494 0.18610 -0.00700
C 	C 	0.47508 0.95372 0.19768 -0.10600
H 	H 	0.47300 0.96720 0.22350 0.06300
H 	H 	0.48340 0.97330 0.17760 0.06100
C 	C 	0.50460 0.92020 0.19990 -0.08100
H 	H 	0.53200 0.92970 0.19600 0.04200
H 	H 	0.50280 0.90600 0.22540 0.05500
C 	C 	0.49060 0.89340 0.16460 -0.05800
H 	H 	0.50170 0.86650 0.16680 0.03500
H 	H 	0.49860 0.90490 0.13900 0.03900
C 	C 	0.44571 0.89297 0.16893 -0.12800
H 	H 	0.43280 0.88880 0.14300 0.04500
H 	H 	0.43730 0.87180 0.18720 0.06300
C 	C 	0.40760 0.92767 0.22193 0.29200
O 	O 	0.37002 0.92656 0.21442 -0.39200
O 	O 	0.42260 0.92206 0.25497 -0.34900
C 	C 	0.48220 0.88030 0.19390 -0.00200
Cu	Cu	0.84148 0.14316 0.93630 0.92200
O 	O 	0.89951 0.14764 0.93566 -0.48200
C 	C 	0.91768 0.13818 0.97011 0.25200
C 	C 	0.94311 0.16486 0.98896 -0.26100
H 	H 	0.94810 0.18990 0.97750 0.12000
C 	C 	0.96089 0.15453 0.02435 0.11300
H 	H 	0.97810 0.17260 0.03710 -0.02000
C 	C 	0.95362 0.11764 0.04134 -0.16200
H 	H 	0.96590 0.11060 0.06560 0.07500
C 	C 	0.92820 0.09108 0.02249 0.05100
H 	H 	0.92330 0.06610 0.03410 0.01400
C 	C 	0.90999 0.10074 0.98700 -0.12200
C 	C 	0.88340 0.07181 0.96529 -0.01300
H 	H 	0.88150 0.04700 0.98060 0.03700
H 	H 	0.89520 0.06540 0.93930 0.02900
N 	N 	0.84272 0.08854 0.95924 -0.28800
H 	H 	0.83250 0.09140 0.98090 0.16200
C 	C 	0.81390 0.06505 0.93494 -0.00700
C 	C 	0.80232 0.02492 0.95372 -0.10600
H 	H 	0.77650 0.02700 0.96720 0.06300
H 	H 	0.82240 0.01660 0.97330 0.06100
C 	C 	0.80010 0.99540 0.92020 -0.08200
H 	H 	0.80400 0.96800 0.92970 0.04200
H 	H 	0.77460 0.99720 0.90600 0.05500
C 	C 	0.83540 0.00940 0.89340 -0.05700
H 	H 	0.83320 0.99830 0.86650 0.03500
H 	H 	0.86100 0.00140 0.90490 0.03800
C 	C 	0.83107 0.05429 0.89297 -0.12800
H 	H 	0.85700 0.06720 0.88880 0.04500
H 	H 	0.81280 0.06270 0.87180 0.06300
C 	C 	0.77807 0.09240 0.92767 0.29200
O 	O 	0.78558 0.12998 0.92656 -0.39200
O 	O 	0.74503 0.07740 0.92206 -0.34900
C 	C 	0.80610 0.01780 0.88030 -0.00200
Cu	Cu	0.34148 0.64316 0.43630 0.92200
O 	O 	0.39951 0.64764 0.43566 -0.48200
C 	C 	0.41768 0.63818 0.47011 0.25200
C 	C 	0.44311 0.66486 0.48896 -0.26100
H 	H 	0.44810 0.68990 0.47750 0.12000
C 	C 	0.46089 0.65453 0.52435 0.11300
H 	H 	0.47810 0.67260 0.53710 -0.02000
C 	C 	0.45362 0.61764 0.54134 -0.16200
H 	H 	0.46590 0.61060 0.56560 0.07500
C 	C 	0.42820 0.59108 0.52249 0.05100
H 	H 	0.42330 0.56610 0.53410 0.01400
C 	C 	0.40999 0.60074 0.48700 -0.12200
C 	C 	0.38340 0.57181 0.46529 -0.01400
H 	H 	0.38150 0.54700 0.48060 0.03800
H 	H 	0.39520 0.56540 0.43930 0.02900
N 	N 	0.34272 0.58854 0.45924 -0.28800
H 	H 	0.33250 0.59140 0.48090 0.16200
C 	C 	0.31390 0.56505 0.43494 -0.00700
C 	C 	0.30232 0.52492 0.45372 -0.10600
H 	H 	0.27650 0.52700 0.46720 0.06300
H 	H 	0.32240 0.51660 0.47330 0.06100
C 	C 	0.30010 0.49540 0.42020 -0.08100
H 	H 	0.30400 0.46800 0.42970 0.04200
H 	H 	0.27460 0.49720 0.40600 0.05500
C 	C 	0.33540 0.50940 0.39340 -0.05800
H 	H 	0.33320 0.49830 0.36650 0.03500
H 	H 	0.36100 0.50140 0.40490 0.03900
C 	C 	0.33107 0.55429 0.39297 -0.12800
H 	H 	0.35700 0.56720 0.38880 0.04500
H 	H 	0.31280 0.56270 0.37180 0.06300
C 	C 	0.27807 0.59240 0.42767 0.29200
O 	O 	0.28558 0.62998 0.42656 -0.39200
O 	O 	0.24503 0.57740 0.42206 -0.34900
C 	C 	0.30610 0.51780 0.38030 -0.00200
Cu	Cu	0.15852 0.64316 0.56370 0.92200
O 	O 	0.10049 0.64764 0.56434 -0.48200
C 	C 	0.08232 0.63818 0.52989 0.25200
C 	C 	0.05689 0.66486 0.51104 -0.26100
H 	H 	0.05190 0.68990 0.52250 0.12000
C 	C 	0.03911 0.65453 0.47565 0.11300
H 	H 	0.02190 0.67260 0.46290 -0.02000
C 	C 	0.04638 0.61764 0.45866 -0.16200
H 	H 	0.03410 0.61060 0.43440 0.07500
C 	C 	0.07180 0.59108 0.47751 0.05100
H 	H 	0.07670 0.56610 0.46590 0.01400
C 	C 	0.09001 0.60074 0.51300 -0.12200
C 	C 	0.11660 0.57181 0.53471 -0.01400
H 	H 	0.11850 0.54700 0.51940 0.03700
H 	H 	0.10480 0.56540 0.56070 0.02900
N 	N 	0.15728 0.58854 0.54076 -0.28800
H 	H 	0.16750 0.59140 0.51910 0.16200
C 	C 	0.18610 0.56505 0.56506 -0.00700
C 	C 	0.19768 0.52492 0.54628 -0.10600
H 	H 	0.22350 0.52700 0.53280 0.06300
H 	H 	0.17760 0.51660 0.52670 0.06100
C 	C 	0.19990 0.49540 0.57980 -0.08100
H 	H 	0.19600 0.46800 0.57030 0.04200
H 	H 	0.22540 0.49720 0.59400 0.05500
C 	C 	0.16460 0.50940 0.60660 -0.05800
H 	H 	0.16680 0.49830 0.63350 0.03500
H 	H 	0.13900 0.50140 0.59510 0.03900
C 	C 	0.16893 0.55429 0.60703 -0.12800
H 	H 	0.14300 0.56720 0.61120 0.04500
H 	H 	0.18720 0.56270 0.62820 0.06300
C 	C 	0.22193 0.59240 0.57233 0.29200
O 	O 	0.21442 0.62998 0.57344 -0.39200
O 	O 	0.25497 0.57740 0.57794 -0.34900
C 	C 	0.19390 0.51780 0.61970 -0.00200
Cu	Cu	0.65852 0.14316 0.06370 0.92200
O 	O 	0.60049 0.14764 0.06434 -0.48200
C 	C 	0.58232 0.13818 0.02989 0.25200
C 	C 	0.55689 0.16486 0.01104 -0.26100
H 	H 	0.55190 0.18990 0.02250 0.12000
C 	C 	0.53911 0.15453 0.97565 0.11300
H 	H 	0.52190 0.17260 0.96290 -0.02000
C 	C 	0.54638 0.11764 0.95866 -0.16200
H 	H 	0.53410 0.11060 0.93440 0.07500
C 	C 	0.57180 0.09108 0.97751 0.05100
H 	H 	0.57670 0.06610 0.96590 0.01400
C 	C 	0.59001 0.10074 0.01300 -0.12200
C 	C 	0.61660 0.07181 0.03471 -0.01300
H 	H 	0.61850 0.04700 0.01940 0.03700
H 	H 	0.60480 0.06540 0.06070 0.02900
N 	N 	0.65728 0.08854 0.04076 -0.28800
H 	H 	0.66750 0.09140 0.01910 0.16200
C 	C 	0.68610 0.06505 0.06506 -0.00700
C 	C 	0.69768 0.02492 0.04628 -0.10600
H 	H 	0.72350 0.02700 0.03280 0.06300
H 	H 	0.67760 0.01660 0.02670 0.06100
C 	C 	0.69990 0.99540 0.07980 -0.08200
H 	H 	0.69600 0.96800 0.07030 0.04200
H 	H 	0.72540 0.99720 0.09400 0.05500
C 	C 	0.66460 0.00940 0.10660 -0.05700
H 	H 	0.66680 0.99830 0.13350 0.03500
H 	H 	0.63900 0.00140 0.09510 0.03800
C 	C 	0.66893 0.05429 0.10703 -0.12800
H 	H 	0.64300 0.06720 0.11120 0.04500
H 	H 	0.68720 0.06270 0.12820 0.06300
C 	C 	0.72193 0.09240 0.07233 0.29200
O 	O 	0.71442 0.12998 0.07344 -0.39200
O 	O 	0.75497 0.07740 0.07794 -0.34900
C 	C 	0.69390 0.01780 0.11970 -0.00200
Cu	Cu	0.34148 0.35684 0.06370 0.92200
O 	O 	0.39951 0.35236 0.06434 -0.48200
C 	C 	0.41768 0.36182 0.02989 0.25200
C 	C 	0.44311 0.33514 0.01104 -0.26100
H 	H 	0.44810 0.31010 0.02250 0.12000
C 	C 	0.46089 0.34547 0.97565 0.11300
H 	H 	0.47810 0.32740 0.96290 -0.02000
C 	C 	0.45362 0.38236 0.95866 -0.16200
H 	H 	0.46590 0.38940 0.93440 0.07500
C 	C 	0.42820 0.40892 0.97751 0.05100
H 	H 	0.42330 0.43390 0.96590 0.01400
C 	C 	0.40999 0.39926 0.01300 -0.12200
C 	C 	0.38340 0.42819 0.03471 -0.01300
H 	H 	0.38150 0.45300 0.01940 0.03700
H 	H 	0.39520 0.43460 0.06070 0.02900
N 	N 	0.34272 0.41146 0.04076 -0.28800
H 	H 	0.33250 0.40860 0.01910 0.16200
C 	C 	0.31390 0.43495 0.06506 -0.00700
C 	C 	0.30232 0.47508 0.04628 -0.10600
H 	H 	0.27650 0.47300 0.03280 0.06300
H 	H 	0.32240 0.48340 0.02670 0.06100
C 	C 	0.30010 0.50460 0.07980 -0.08100
H 	H 	0.30400 0.53200 0.07030 0.04200
H 	H 	0.27460 0.50280 0.09400 0.05500
C 	C 	0.33540 0.49060 0.10660 -0.05800
H 	H 	0.33320 0.50170 0.13350 0.03500
H 	H 	0.36100 0.49860 0.09510 0.03900
C 	C 	0.33107 0.44571 0.10703 -0.12800
H 	H 	0.35700 0.43280 0.11120 0.04500
H 	H 	0.31280 0.43730 0.12820 0.06300
C 	C 	0.27807 0.40760 0.07233 0.29200
O 	O 	0.28558 0.37002 0.07344 -0.39200
O 	O 	0.24503 0.42260 0.07794 -0.34900
C 	C 	0.30610 0.48220 0.11970 -0.00200
Cu	Cu	0.84148 0.85684 0.56370 0.92200
O 	O 	0.89951 0.85236 0.56434 -0.48200
C 	C 	0.91768 0.86182 0.52989 0.25200
C 	C 	0.94311 0.83514 0.51104 -0.26100
H 	H 	0.94810 0.81010 0.52250 0.12000
C 	C 	0.96089 0.84547 0.47565 0.11300
H 	H 	0.97810 0.82740 0.46290 -0.02000
C 	C 	0.95362 0.88236 0.45866 -0.16200
H 	H 	0.96590 0.88940 0.43440 0.07500
C 	C 	0.92820 0.90892 0.47751 0.05100
H 	H 	0.92330 0.93390 0.46590 0.01400
C 	C 	0.90999 0.89926 0.51300 -0.12200
C 	C 	0.88340 0.92819 0.53471 -0.01400
H 	H 	0.88150 0.95300 0.51940 0.03700
H 	H 	0.89520 0.93460 0.56070 0.02900
N 	N 	0.84272 0.91146 0.54076 -0.28800
H 	H 	0.83250 0.90860 0.51910 0.16200
C 	C 	0.81390 0.93495 0.56506 -0.00700
C 	C 	0.80232 0.97508 0.54628 -0.10600
H 	H 	0.77650 0.97300 0.53280 0.06300
H 	H 	0.82240 0.98340 0.52670 0.06100
C 	C 	0.80010 0.00460 0.57980 -0.08200
H 	H 	0.80400 0.03200 0.57030 0.04200
H 	H 	0.77460 0.00280 0.59400 0.05500
C 	C 	0.83540 0.99060 0.60660 -0.05700
H 	H 	0.83320 0.00170 0.63350 0.03500
H 	H 	0.86100 0.99860 0.59510 0.03800
C 	C 	0.83107 0.94571 0.60703 -0.12800
H 	H 	0.85700 0.93280 0.61120 0.04500
H 	H 	0.81280 0.93730 0.62820 0.06300
C 	C 	0.77807 0.90760 0.57233 0.29200
O 	O 	0.78558 0.87002 0.57344 -0.39200
O 	O 	0.74503 0.92260 0.57794 -0.34900
C 	C 	0.80610 0.98220 0.61970 -0.00200
Cu	Cu	0.65852 0.85684 0.43630 0.92200
O 	O 	0.60049 0.85236 0.43566 -0.48200
C 	C 	0.58232 0.86182 0.47011 0.25200
C 	C 	0.55689 0.83514 0.48896 -0.26100
H 	H 	0.55190 0.81010 0.47750 0.12000
C 	C 	0.53911 0.84547 0.52435 0.11300
H 	H 	0.52190 0.82740 0.53710 -0.02000
C 	C 	0.54638 0.88236 0.54134 -0.16200
H 	H 	0.53410 0.88940 0.56560 0.07500
C 	C 	0.57180 0.90892 0.52249 0.05100
H 	H 	0.57670 0.93390 0.53410 0.01400
C 	C 	0.59001 0.89926 0.48700 -0.12200
C 	C 	0.61660 0.92819 0.46529 -0.01400
H 	H 	0.61850 0.95300 0.48060 0.03700
H 	H 	0.60480 0.93460 0.43930 0.02900
N 	N 	0.65728 0.91146 0.45924 -0.28800
H 	H 	0.66750 0.90860 0.48090 0.16200
C 	C 	0.68610 0.93495 0.43494 -0.00700
C 	C 	0.69768 0.97508 0.45372 -0.10600
H 	H 	0.72350 0.97300 0.46720 0.06300
H 	H 	0.67760 0.98340 0.47330 0.06100
C 	C 	0.69990 0.00460 0.42020 -0.08200
H 	H 	0.69600 0.03200 0.42970 0.04200
H 	H 	0.72540 0.00280 0.40600 0.05500
C 	C 	0.66460 0.99060 0.39340 -0.05700
H 	H 	0.66680 0.00170 0.36650 0.03500
H 	H 	0.63900 0.99860 0.40490 0.03900
C 	C 	0.66893 0.94571 0.39297 -0.12800
H 	H 	0.64300 0.93280 0.38880 0.04500
H 	H 	0.68720 0.93730 0.37180 0.06300
C 	C 	0.72193 0.90760 0.42767 0.29200
O 	O 	0.71442 0.87002 0.42656 -0.39200
O 	O 	0.75497 0.92260 0.42206 -0.34900
C 	C 	0.69390 0.98220 0.38030 -0.00200
Cu	Cu	0.15852 0.35684 0.93630 0.92200
O 	O 	0.10049 0.35236 0.93566 -0.48200
C 	C 	0.08232 0.36182 0.97011 0.25200
C 	C 	0.05689 0.33514 0.98896 -0.26100
H 	H 	0.05190 0.31010 0.97750 0.12000
C 	C 	0.03911 0.34547 0.02435 0.11300
H 	H 	0.02190 0.32740 0.03710 -0.02000
C 	C 	0.04638 0.38236 0.04134 -0.16200
H 	H 	0.03410 0.38940 0.06560 0.07500
C 	C 	0.07180 0.40892 0.02249 0.05100
H 	H 	0.07670 0.43390 0.03410 0.01400
C 	C 	0.09001 0.39926 0.98700 -0.12200
C 	C 	0.11660 0.42819 0.96529 -0.01300
H 	H 	0.11850 0.45300 0.98060 0.03700
H 	H 	0.10480 0.43460 0.93930 0.02900
N 	N 	0.15728 0.41146 0.95924 -0.28800
H 	H 	0.16750 0.40860 0.98090 0.16200
C 	C 	0.18610 0.43495 0.93494 -0.00700
C 	C 	0.19768 0.47508 0.95372 -0.10600
H 	H 	0.22350 0.47300 0.96720 0.06300
H 	H 	0.17760 0.48340 0.97330 0.06100
C 	C 	0.19990 0.50460 0.92020 -0.08100
H 	H 	0.19600 0.53200 0.92970 0.04200
H 	H 	0.22540 0.50280 0.90600 0.05500
C 	C 	0.16460 0.49060 0.89340 -0.05800
H 	H 	0.16680 0.50170 0.86650 0.03500
H 	H 	0.13900 0.49860 0.90490 0.03900
C 	C 	0.16893 0.44571 0.89297 -0.12800
H 	H 	0.14300 0.43280 0.88880 0.04500
H 	H 	0.18720 0.43730 0.87180 0.06300
C 	C 	0.22193 0.40760 0.92767 0.29200
O 	O 	0.21442 0.37002 0.92656 -0.39200
O 	O 	0.25497 0.42260 0.92206 -0.34900
C 	C 	0.19390 0.48220 0.88030 -0.00200
Cu	Cu	0.09148 0.68630 0.60684 0.92200
O 	O 	0.14951 0.68566 0.60236 -0.48200
C 	C 	0.16768 0.72011 0.61182 0.25200
C 	C 	0.19311 0.73896 0.58514 -0.26100
H 	H 	0.19810 0.72750 0.56010 0.12000
C 	C 	0.21089 0.77435 0.59547 0.11300
H 	H 	0.22810 0.78710 0.57740 -0.02000
C 	C 	0.20362 0.79134 0.63236 -0.16200
H 	H 	0.21590 0.81560 0.63940 0.07500
C 	C 	0.17820 0.77249 0.65892 0.05100
H 	H 	0.17330 0.78410 0.68390 0.01400
C 	C 	0.15999 0.73700 0.64926 -0.12200
C 	C 	0.13340 0.71529 0.67819 -0.01400
H 	H 	0.13150 0.73060 0.70300 0.03800
H 	H 	0.14520 0.68930 0.68460 0.02900
N 	N 	0.09272 0.70924 0.66146 -0.28800
H 	H 	0.08250 0.73090 0.65860 0.16200
C 	C 	0.06390 0.68494 0.68495 -0.00700
C 	C 	0.05232 0.70372 0.72508 -0.10600
H 	H 	0.02650 0.71720 0.72300 0.06300
H 	H 	0.07240 0.72330 0.73340 0.06100
C 	C 	0.05010 0.67020 0.75460 -0.08100
H 	H 	0.05400 0.67970 0.78200 0.04200
H 	H 	0.02460 0.65600 0.75280 0.05500
C 	C 	0.08540 0.64340 0.74060 -0.05800
H 	H 	0.08320 0.61650 0.75170 0.03500
H 	H 	0.11100 0.65490 0.74860 0.03900
C 	C 	0.08107 0.64297 0.69571 -0.12800
H 	H 	0.10700 0.63880 0.68280 0.04500
H 	H 	0.06280 0.62180 0.68730 0.06300
C 	C 	0.02807 0.67767 0.65760 0.29200
O 	O 	0.03558 0.67656 0.62002 -0.39200
O 	O 	0.99503 0.67206 0.67260 -0.34900
C 	C 	0.05610 0.63030 0.73220 -0.00200
Cu	Cu	0.59148 0.18630 0.10684 0.92200
O 	O 	0.64951 0.18566 0.10236 -0.48200
C 	C 	0.66768 0.22011 0.11182 0.25200
C 	C 	0.69311 0.23896 0.08514 -0.26100
H 	H 	0.69810 0.22750 0.06010 0.12000
C 	C 	0.71089 0.27435 0.09547 0.11300
H 	H 	0.72810 0.28710 0.07740 -0.02000
C 	C 	0.70362 0.29134 0.13236 -0.16200
H 	H 	0.71590 0.31560 0.13940 0.07500
C 	C 	0.67820 0.27249 0.15892 0.05100
H 	H 	0.67330 0.28410 0.18390 0.01400
C 	C 	0.65999 0.23700 0.14926 -0.12200
C 	C 	0.63340 0.21529 0.17819 -0.01400
H 	H 	0.63150 0.23060 0.20300 0.03800
H 	H 	0.64520 0.18930 0.18460 0.02900
N 	N 	0.59272 0.20924 0.16146 -0.28800
H 	H 	0.58250 0.23090 0.15860 0.16200
C 	C 	0.56390 0.18494 0.18495 -0.00700
C 	C 	0.55232 0.20372 0.22508 -0.10600
H 	H 	0.52650 0.21720 0.22300 0.06300
H 	H 	0.57240 0.22330 0.23340 0.06100
C 	C 	0.55010 0.17020 0.25460 -0.08100
H 	H 	0.55400 0.17970 0.28200 0.04200
H 	H 	0.52460 0.15600 0.25280 0.05500
C 	C 	0.58540 0.14340 0.24060 -0.05800
H 	H 	0.58320 0.11650 0.25170 0.03500
H 	H 	0.61100 0.15490 0.24860 0.03900
C 	C 	0.58107 0.14297 0.19571 -0.12800
H 	H 	0.60700 0.13880 0.18280 0.04500
H 	H 	0.56280 0.12180 0.18730 0.06300
C 	C 	0.52807 0.17767 0.15760 0.29200
O 	O 	0.53558 0.17656 0.12002 -0.39200
O 	O 	0.49503 0.17206 0.17260 -0.34900
C 	C 	0.55610 0.13030 0.23220 -0.00200
Cu	Cu	0.40852 0.31370 0.10684 0.92200
O 	O 	0.35049 0.31434 0.10236 -0.48200
C 	C 	0.33232 0.27989 0.11182 0.25200
C 	C 	0.30689 0.26104 0.08514 -0.26100
H 	H 	0.30190 0.27250 0.06010 0.12000
C 	C 	0.28911 0.22565 0.09547 0.11300
H 	H 	0.27190 0.21290 0.07740 -0.02000
C 	C 	0.29638 0.20866 0.13236 -0.16200
H 	H 	0.28410 0.18440 0.13940 0.07500
C 	C 	0.32180 0.22751 0.15892 0.05100
H 	H 	0.32670 0.21590 0.18390 0.01400
C 	C 	0.34001 0.26300 0.14926 -0.12200
C 	C 	0.36660 0.28471 0.17819 -0.01400
H 	H 	0.36850 0.26940 0.20300 0.03800
H 	H 	0.35480 0.31070 0.18460 0.02900
N 	N 	0.40728 0.29076 0.16146 -0.28800
H 	H 	0.41750 0.26910 0.15860 0.16200
C 	C 	0.43610 0.31506 0.18495 -0.00700
C 	C 	0.44768 0.29628 0.22508 -0.10600
H 	H 	0.47350 0.28280 0.22300 0.06300
H 	H 	0.42760 0.27670 0.23340 0.06100
C 	C 	0.44990 0.32980 0.25460 -0.08100
H 	H 	0.44600 0.32030 0.28200 0.04200
H 	H 	0.47540 0.34400 0.25280 0.05500
C 	C 	0.41460 0.35660 0.24060 -0.05800
H 	H 	0.41680 0.38350 0.25170 0.03500
H 	H 	0.38900 0.34510 0.24860 0.03900
C 	C 	0.41893 0.35703 0.19571 -0.12800
H 	H 	0.39300 0.36120 0.18280 0.04500
H 	H 	0.43720 0.37820 0.18730 0.06300
C 	C 	0.47193 0.32233 0.15760 0.29200
O 	O 	0.46442 0.32344 0.12002 -0.39200
O 	O 	0.50497 0.32794 0.17260 -0.34900
C 	C 	0.44390 0.36970 0.23220 -0.00200
Cu	Cu	0.90852 0.81370 0.60684 0.92200
O 	O 	0.85049 0.81434 0.60236 -0.48200
C 	C 	0.83232 0.77989 0.61182 0.25200
C 	C 	0.80689 0.76104 0.58514 -0.26100
H 	H 	0.80190 0.77250 0.56010 0.12000
C 	C 	0.78911 0.72565 0.59547 0.11300
H 	H 	0.77190 0.71290 0.57740 -0.02000
C 	C 	0.79638 0.70866 0.63236 -0.16200
H 	H 	0.78410 0.68440 0.63940 0.07500
C 	C 	0.82180 0.72751 0.65892 0.05100
H 	H 	0.82670 0.71590 0.68390 0.01400
C 	C 	0.84001 0.76300 0.64926 -0.12200
C 	C 	0.86660 0.78471 0.67819 -0.01400
H 	H 	0.86850 0.76940 0.70300 0.03800
H 	H 	0.85480 0.81070 0.68460 0.02900
N 	N 	0.90728 0.79076 0.66146 -0.28800
H 	H 	0.91750 0.76910 0.65860 0.16200
C 	C 	0.93610 0.81506 0.68495 -0.00700
C 	C 	0.94768 0.79628 0.72508 -0.10600
H 	H 	0.97350 0.78280 0.72300 0.06300
H 	H 	0.92760 0.77670 0.73340 0.06100
C 	C 	0.94990 0.82980 0.75460 -0.08100
H 	H 	0.94600 0.82030 0.78200 0.04200
H 	H 	0.97540 0.84400 0.75280 0.05500
C 	C 	0.91460 0.85660 0.74060 -0.05800
H 	H 	0.91680 0.88350 0.75170 0.03500
H 	H 	0.88900 0.84510 0.74860 0.03900
C 	C 	0.91893 0.85703 0.69571 -0.12800
H 	H 	0.89300 0.86120 0.68280 0.04500
H 	H 	0.93720 0.87820 0.68730 0.06300
C 	C 	0.97193 0.82233 0.65760 0.29200
O 	O 	0.96442 0.82344 0.62002 -0.39200
O 	O 	0.00497 0.82794 0.67260 -0.34900
C 	C 	0.94390 0.86970 0.73220 -0.00200
Cu	Cu	0.59148 0.81370 0.39316 0.92200
O 	O 	0.64951 0.81434 0.39764 -0.48200
C 	C 	0.66768 0.77989 0.38818 0.25200
C 	C 	0.69311 0.76104 0.41486 -0.26100
H 	H 	0.69810 0.77250 0.43990 0.12000
C 	C 	0.71089 0.72565 0.40453 0.11300
H 	H 	0.72810 0.71290 0.42260 -0.02000
C 	C 	0.70362 0.70866 0.36764 -0.16200
H 	H 	0.71590 0.68440 0.36060 0.07500
C 	C 	0.67820 0.72751 0.34108 0.05100
H 	H 	0.67330 0.71590 0.31610 0.01400
C 	C 	0.65999 0.76300 0.35074 -0.12200
C 	C 	0.63340 0.78471 0.32181 -0.01400
H 	H 	0.63150 0.76940 0.29700 0.03800
H 	H 	0.64520 0.81070 0.31540 0.02900
N 	N 	0.59272 0.79076 0.33854 -0.28800
H 	H 	0.58250 0.76910 0.34140 0.16200
C 	C 	0.56390 0.81506 0.31505 -0.00700
C 	C 	0.55232 0.79628 0.27492 -0.10600
H 	H 	0.52650 0.78280 0.27700 0.06300
H 	H 	0.57240 0.77670 0.26660 0.06100
C 	C 	0.55010 0.82980 0.24540 -0.08100
H 	H 	0.55400 0.82030 0.21800 0.04200
H 	H 	0.52460 0.84400 0.24720 0.05500
C 	C 	0.58540 0.85660 0.25940 -0.05800
H 	H 	0.58320 0.88350 0.24830 0.03500
H 	H 	0.61100 0.84510 0.25140 0.03900
C 	C 	0.58107 0.85703 0.30429 -0.12800
H 	H 	0.60700 0.86120 0.31720 0.04500
H 	H 	0.56280 0.87820 0.31270 0.06300
C 	C 	0.52807 0.82233 0.34240 0.29200
O 	O 	0.53558 0.82344 0.37998 -0.39200
O 	O 	0.49503 0.82794 0.32740 -0.34900
C 	C 	0.55610 0.86970 0.26780 -0.00200
Cu	Cu	0.09148 0.31370 0.89316 0.92200
O 	O 	0.14951 0.31434 0.89764 -0.48200
C 	C 	0.16768 0.27989 0.88818 0.25200
C 	C 	0.19311 0.26104 0.91486 -0.26100
H 	H 	0.19810 0.27250 0.93990 0.12000
C 	C 	0.21089 0.22565 0.90453 0.11300
H 	H 	0.22810 0.21290 0.92260 -0.02000
C 	C 	0.20362 0.20866 0.86764 -0.16200
H 	H 	0.21590 0.18440 0.86060 0.07500
C 	C 	0.17820 0.22751 0.84108 0.05100
H 	H 	0.17330 0.21590 0.81610 0.01400
C 	C 	0.15999 0.26300 0.85074 -0.12200
C 	C 	0.13340 0.28471 0.82181 -0.01400
H 	H 	0.13150 0.26940 0.79700 0.03800
H 	H 	0.14520 0.31070 0.81540 0.02900
N 	N 	0.09272 0.29076 0.83854 -0.28800
H 	H 	0.08250 0.26910 0.84140 0.16200
C 	C 	0.06390 0.31506 0.81505 -0.00700
C 	C 	0.05232 0.29628 0.77492 -0.10600
H 	H 	0.02650 0.28280 0.77700 0.06300
H 	H 	0.07240 0.27670 0.76660 0.06100
C 	C 	0.05010 0.32980 0.74540 -0.08100
H 	H 	0.05400 0.32030 0.71800 0.04200
H 	H 	0.02460 0.34400 0.74720 0.05500
C 	C 	0.08540 0.35660 0.75940 -0.05800
H 	H 	0.08320 0.38350 0.74830 0.03500
H 	H 	0.11100 0.34510 0.75140 0.03900
C 	C 	0.08107 0.35703 0.80429 -0.12800
H 	H 	0.10700 0.36120 0.81720 0.04500
H 	H 	0.06280 0.37820 0.81270 0.06300
C 	C 	0.02807 0.32233 0.84240 0.29200
O 	O 	0.03558 0.32344 0.87998 -0.39200
O 	O 	0.99503 0.32794 0.82740 -0.34900
C 	C 	0.05610 0.36970 0.76780 -0.00200
Cu	Cu	0.90852 0.18630 0.89316 0.92200
O 	O 	0.85049 0.18566 0.89764 -0.48200
C 	C 	0.83232 0.22011 0.88818 0.25200
C 	C 	0.80689 0.23896 0.91486 -0.26100
H 	H 	0.80190 0.22750 0.93990 0.12000
C 	C 	0.78911 0.27435 0.90453 0.11300
H 	H 	0.77190 0.28710 0.92260 -0.02000
C 	C 	0.79638 0.29134 0.86764 -0.16200
H 	H 	0.78410 0.31560 0.86060 0.07500
C 	C 	0.82180 0.27249 0.84108 0.05100
H 	H 	0.82670 0.28410 0.81610 0.01400
C 	C 	0.84001 0.23700 0.85074 -0.12200
C 	C 	0.86660 0.21529 0.82181 -0.01400
H 	H 	0.86850 0.23060 0.79700 0.03800
H 	H 	0.85480 0.18930 0.81540 0.02900
N 	N 	0.90728 0.20924 0.83854 -0.28800
H 	H 	0.91750 0.23090 0.84140 0.16200
C 	C 	0.93610 0.18494 0.81505 -0.00700
C 	C 	0.94768 0.20372 0.77492 -0.10600
H 	H 	0.97350 0.21720 0.77700 0.06300
H 	H 	0.92760 0.22330 0.76660 0.06100
C 	C 	0.94990 0.17020 0.74540 -0.08100
H 	H 	0.94600 0.17970 0.71800 0.04200
H 	H 	0.97540 0.15600 0.74720 0.05500
C 	C 	0.91460 0.14340 0.75940 -0.05800
H 	H 	0.91680 0.11650 0.74830 0.03500
H 	H 	0.88900 0.15490 0.75140 0.03900
C 	C 	0.91893 0.14297 0.80429 -0.12800
H 	H 	0.89300 0.13880 0.81720 0.04500
H 	H 	0.93720 0.12180 0.81270 0.06300
C 	C 	0.97193 0.17767 0.84240 0.29200
O 	O 	0.96442 0.17656 0.87998 -0.39200
O 	O 	0.00497 0.17206 0.82740 -0.34900
C 	C 	0.94390 0.13030 0.76780 -0.00200
Cu	Cu	0.40852 0.68630 0.39316 0.92200
O 	O 	0.35049 0.68566 0.39764 -0.48200
C 	C 	0.33232 0.72011 0.38818 0.25200
C 	C 	0.30689 0.73896 0.41486 -0.26100
H 	H 	0.30190 0.72750 0.43990 0.12000
C 	C 	0.28911 0.77435 0.40453 0.11300
H 	H 	0.27190 0.78710 0.42260 -0.02000
C 	C 	0.29638 0.79134 0.36764 -0.16200
H 	H 	0.28410 0.81560 0.36060 0.07500
C 	C 	0.32180 0.77249 0.34108 0.05100
H 	H 	0.32670 0.78410 0.31610 0.01400
C 	C 	0.34001 0.73700 0.35074 -0.12200
C 	C 	0.36660 0.71529 0.32181 -0.01400
H 	H 	0.36850 0.73060 0.29700 0.03800
H 	H 	0.35480 0.68930 0.31540 0.02900
N 	N 	0.40728 0.70924 0.33854 -0.28800
H 	H 	0.41750 0.73090 0.34140 0.16200
C 	C 	0.43610 0.68494 0.31505 -0.00700
C 	C 	0.44768 0.70372 0.27492 -0.10600
H 	H 	0.47350 0.71720 0.27700 0.06300
H 	H 	0.42760 0.72330 0.26660 0.06100
C 	C 	0.44990 0.67020 0.24540 -0.08100
H 	H 	0.44600 0.67970 0.21800 0.04200
H 	H 	0.47540 0.65600 0.24720 0.05500
C 	C 	0.41460 0.64340 0.25940 -0.05800
H 	H 	0.41680 0.61650 0.24830 0.03500
H 	H 	0.38900 0.65490 0.25140 0.03900
C 	C 	0.41893 0.64297 0.30429 -0.12800
H 	H 	0.39300 0.63880 0.31720 0.04500
H 	H 	0.43720 0.62180 0.31270 0.06300
C 	C 	0.47193 0.67767 0.34240 0.29200
O 	O 	0.46442 0.67656 0.37998 -0.39200
O 	O 	0.50497 0.67206 0.32740 -0.34900
C 	C 	0.44390 0.63030 0.26780 -0.00200
Cu	Cu	0.18630 0.89316 0.90852 0.92200
O 	O 	0.18566 0.89764 0.85049 -0.48200
C 	C 	0.22011 0.88818 0.83232 0.25200
C 	C 	0.23896 0.91486 0.80689 -0.26100
H 	H 	0.22750 0.93990 0.80190 0.12000
C 	C 	0.27435 0.90453 0.78911 0.11300
H 	H 	0.28710 0.92260 0.77190 -0.02000
C 	C 	0.29134 0.86764 0.79638 -0.16200
H 	H 	0.31560 0.86060 0.78410 0.07500
C 	C 	0.27249 0.84108 0.82180 0.05100
H 	H 	0.28410 0.81610 0.82670 0.01400
C 	C 	0.23700 0.85074 0.84001 -0.12200
C 	C 	0.21529 0.82181 0.86660 -0.01400
H 	H 	0.23060 0.79700 0.86850 0.03800
H 	H 	0.18930 0.81540 0.85480 0.02900
N 	N 	0.20924 0.83854 0.90728 -0.28800
H 	H 	0.23090 0.84140 0.91750 0.16200
C 	C 	0.18494 0.81505 0.93610 -0.00700
C 	C 	0.20372 0.77492 0.94768 -0.10600
H 	H 	0.21720 0.77700 0.97350 0.06300
H 	H 	0.22330 0.76660 0.92760 0.06100
C 	C 	0.17020 0.74540 0.94990 -0.08100
H 	H 	0.17970 0.71800 0.94600 0.04200
H 	H 	0.15600 0.74720 0.97540 0.05500
C 	C 	0.14340 0.75940 0.91460 -0.05800
H 	H 	0.11650 0.74830 0.91680 0.03500
H 	H 	0.15490 0.75140 0.88900 0.03900
C 	C 	0.14297 0.80429 0.91893 -0.12800
H 	H 	0.13880 0.81720 0.89300 0.04500
H 	H 	0.12180 0.81270 0.93720 0.06300
C 	C 	0.17767 0.84240 0.97193 0.29200
O 	O 	0.17656 0.87998 0.96442 -0.39200
O 	O 	0.17206 0.82740 0.00497 -0.34900
C 	C 	0.13030 0.76780 0.94390 -0.00200
Cu	Cu	0.68630 0.39316 0.40852 0.92200
O 	O 	0.68566 0.39764 0.35049 -0.48200
C 	C 	0.72011 0.38818 0.33232 0.25200
C 	C 	0.73896 0.41486 0.30689 -0.26100
H 	H 	0.72750 0.43990 0.30190 0.12000
C 	C 	0.77435 0.40453 0.28911 0.11300
H 	H 	0.78710 0.42260 0.27190 -0.02000
C 	C 	0.79134 0.36764 0.29638 -0.16200
H 	H 	0.81560 0.36060 0.28410 0.07500
C 	C 	0.77249 0.34108 0.32180 0.05100
H 	H 	0.78410 0.31610 0.32670 0.01400
C 	C 	0.73700 0.35074 0.34001 -0.12200
C 	C 	0.71529 0.32181 0.36660 -0.01400
H 	H 	0.73060 0.29700 0.36850 0.03800
H 	H 	0.68930 0.31540 0.35480 0.02900
N 	N 	0.70924 0.33854 0.40728 -0.28800
H 	H 	0.73090 0.34140 0.41750 0.16200
C 	C 	0.68494 0.31505 0.43610 -0.00700
C 	C 	0.70372 0.27492 0.44768 -0.10600
H 	H 	0.71720 0.27700 0.47350 0.06300
H 	H 	0.72330 0.26660 0.42760 0.06100
C 	C 	0.67020 0.24540 0.44990 -0.08100
H 	H 	0.67970 0.21800 0.44600 0.04200
H 	H 	0.65600 0.24720 0.47540 0.05500
C 	C 	0.64340 0.25940 0.41460 -0.05800
H 	H 	0.61650 0.24830 0.41680 0.03500
H 	H 	0.65490 0.25140 0.38900 0.03900
C 	C 	0.64297 0.30429 0.41893 -0.12800
H 	H 	0.63880 0.31720 0.39300 0.04500
H 	H 	0.62180 0.31270 0.43720 0.06300
C 	C 	0.67767 0.34240 0.47193 0.29200
O 	O 	0.67656 0.37998 0.46442 -0.39200
O 	O 	0.67206 0.32740 0.50497 -0.34900
C 	C 	0.63030 0.26780 0.44390 -0.00200
Cu	Cu	0.81370 0.39316 0.59148 0.92200
O 	O 	0.81434 0.39764 0.64951 -0.48200
C 	C 	0.77989 0.38818 0.66768 0.25200
C 	C 	0.76104 0.41486 0.69311 -0.26100
H 	H 	0.77250 0.43990 0.69810 0.12000
C 	C 	0.72565 0.40453 0.71089 0.11300
H 	H 	0.71290 0.42260 0.72810 -0.02000
C 	C 	0.70866 0.36764 0.70362 -0.16200
H 	H 	0.68440 0.36060 0.71590 0.07500
C 	C 	0.72751 0.34108 0.67820 0.05100
H 	H 	0.71590 0.31610 0.67330 0.01400
C 	C 	0.76300 0.35074 0.65999 -0.12200
C 	C 	0.78471 0.32181 0.63340 -0.01400
H 	H 	0.76940 0.29700 0.63150 0.03800
H 	H 	0.81070 0.31540 0.64520 0.02900
N 	N 	0.79076 0.33854 0.59272 -0.28800
H 	H 	0.76910 0.34140 0.58250 0.16200
C 	C 	0.81506 0.31505 0.56390 -0.00700
C 	C 	0.79628 0.27492 0.55232 -0.10600
H 	H 	0.78280 0.27700 0.52650 0.06300
H 	H 	0.77670 0.26660 0.57240 0.06100
C 	C 	0.82980 0.24540 0.55010 -0.08100
H 	H 	0.82030 0.21800 0.55400 0.04200
H 	H 	0.84400 0.24720 0.52460 0.05500
C 	C 	0.85660 0.25940 0.58540 -0.05800
H 	H 	0.88350 0.24830 0.58320 0.03500
H 	H 	0.84510 0.25140 0.61100 0.03900
C 	C 	0.85703 0.30429 0.58107 -0.12800
H 	H 	0.86120 0.31720 0.60700 0.04500
H 	H 	0.87820 0.31270 0.56280 0.06300
C 	C 	0.82233 0.34240 0.52807 0.29200
O 	O 	0.82344 0.37998 0.53558 -0.39200
O 	O 	0.82794 0.32740 0.49503 -0.34900
C 	C 	0.86970 0.26780 0.55610 -0.00200
Cu	Cu	0.31370 0.89316 0.09148 0.92200
O 	O 	0.31434 0.89764 0.14951 -0.48200
C 	C 	0.27989 0.88818 0.16768 0.25200
C 	C 	0.26104 0.91486 0.19311 -0.26100
H 	H 	0.27250 0.93990 0.19810 0.12000
C 	C 	0.22565 0.90453 0.21089 0.11300
H 	H 	0.21290 0.92260 0.22810 -0.02000
C 	C 	0.20866 0.86764 0.20362 -0.16200
H 	H 	0.18440 0.86060 0.21590 0.07500
C 	C 	0.22751 0.84108 0.17820 0.05100
H 	H 	0.21590 0.81610 0.17330 0.01400
C 	C 	0.26300 0.85074 0.15999 -0.12200
C 	C 	0.28471 0.82181 0.13340 -0.01400
H 	H 	0.26940 0.79700 0.13150 0.03800
H 	H 	0.31070 0.81540 0.14520 0.02900
N 	N 	0.29076 0.83854 0.09272 -0.28800
H 	H 	0.26910 0.84140 0.08250 0.16200
C 	C 	0.31506 0.81505 0.06390 -0.00700
C 	C 	0.29628 0.77492 0.05232 -0.10600
H 	H 	0.28280 0.77700 0.02650 0.06300
H 	H 	0.27670 0.76660 0.07240 0.06100
C 	C 	0.32980 0.74540 0.05010 -0.08100
H 	H 	0.32030 0.71800 0.05400 0.04200
H 	H 	0.34400 0.74720 0.02460 0.05500
C 	C 	0.35660 0.75940 0.08540 -0.05800
H 	H 	0.38350 0.74830 0.08320 0.03500
H 	H 	0.34510 0.75140 0.11100 0.03900
C 	C 	0.35703 0.80429 0.08107 -0.12800
H 	H 	0.36120 0.81720 0.10700 0.04500
H 	H 	0.37820 0.81270 0.06280 0.06300
C 	C 	0.32233 0.84240 0.02807 0.29200
O 	O 	0.32344 0.87998 0.03558 -0.39200
O 	O 	0.32794 0.82740 0.99503 -0.34900
C 	C 	0.36970 0.76780 0.05610 -0.00200
Cu	Cu	0.31370 0.10684 0.40852 0.92200
O 	O 	0.31434 0.10236 0.35049 -0.48200
C 	C 	0.27989 0.11182 0.33232 0.25200
C 	C 	0.26104 0.08514 0.30689 -0.26100
H 	H 	0.27250 0.06010 0.30190 0.12000
C 	C 	0.22565 0.09547 0.28911 0.11300
H 	H 	0.21290 0.07740 0.27190 -0.02000
C 	C 	0.20866 0.13236 0.29638 -0.16200
H 	H 	0.18440 0.13940 0.28410 0.07500
C 	C 	0.22751 0.15892 0.32180 0.05100
H 	H 	0.21590 0.18390 0.32670 0.01400
C 	C 	0.26300 0.14926 0.34001 -0.12200
C 	C 	0.28471 0.17819 0.36660 -0.01400
H 	H 	0.26940 0.20300 0.36850 0.03800
H 	H 	0.31070 0.18460 0.35480 0.02900
N 	N 	0.29076 0.16146 0.40728 -0.28800
H 	H 	0.26910 0.15860 0.41750 0.16200
C 	C 	0.31506 0.18495 0.43610 -0.00700
C 	C 	0.29628 0.22508 0.44768 -0.10600
H 	H 	0.28280 0.22300 0.47350 0.06300
H 	H 	0.27670 0.23340 0.42760 0.06100
C 	C 	0.32980 0.25460 0.44990 -0.08100
H 	H 	0.32030 0.28200 0.44600 0.04200
H 	H 	0.34400 0.25280 0.47540 0.05500
C 	C 	0.35660 0.24060 0.41460 -0.05800
H 	H 	0.38350 0.25170 0.41680 0.03500
H 	H 	0.34510 0.24860 0.38900 0.03900
C 	C 	0.35703 0.19571 0.41893 -0.12800
H 	H 	0.36120 0.18280 0.39300 0.04500
H 	H 	0.37820 0.18730 0.43720 0.06300
C 	C 	0.32233 0.15760 0.47193 0.29200
O 	O 	0.32344 0.12002 0.46442 -0.39200
O 	O 	0.32794 0.17260 0.50497 -0.34900
C 	C 	0.36970 0.23220 0.44390 -0.00200
Cu	Cu	0.81370 0.60684 0.90852 0.92200
O 	O 	0.81434 0.60236 0.85049 -0.48200
C 	C 	0.77989 0.61182 0.83232 0.25200
C 	C 	0.76104 0.58514 0.80689 -0.26100
H 	H 	0.77250 0.56010 0.80190 0.12000
C 	C 	0.72565 0.59547 0.78911 0.11300
H 	H 	0.71290 0.57740 0.77190 -0.02000
C 	C 	0.70866 0.63236 0.79638 -0.16200
H 	H 	0.68440 0.63940 0.78410 0.07500
C 	C 	0.72751 0.65892 0.82180 0.05100
H 	H 	0.71590 0.68390 0.82670 0.01400
C 	C 	0.76300 0.64926 0.84001 -0.12200
C 	C 	0.78471 0.67819 0.86660 -0.01400
H 	H 	0.76940 0.70300 0.86850 0.03800
H 	H 	0.81070 0.68460 0.85480 0.02900
N 	N 	0.79076 0.66146 0.90728 -0.28800
H 	H 	0.76910 0.65860 0.91750 0.16200
C 	C 	0.81506 0.68495 0.93610 -0.00700
C 	C 	0.79628 0.72508 0.94768 -0.10600
H 	H 	0.78280 0.72300 0.97350 0.06300
H 	H 	0.77670 0.73340 0.92760 0.06100
C 	C 	0.82980 0.75460 0.94990 -0.08100
H 	H 	0.82030 0.78200 0.94600 0.04200
H 	H 	0.84400 0.75280 0.97540 0.05500
C 	C 	0.85660 0.74060 0.91460 -0.05800
H 	H 	0.88350 0.75170 0.91680 0.03500
H 	H 	0.84510 0.74860 0.88900 0.03900
C 	C 	0.85703 0.69571 0.91893 -0.12800
H 	H 	0.86120 0.68280 0.89300 0.04500
H 	H 	0.87820 0.68730 0.93720 0.06300
C 	C 	0.82233 0.65760 0.97193 0.29200
O 	O 	0.82344 0.62002 0.96442 -0.39200
O 	O 	0.82794 0.67260 0.00497 -0.34900
C 	C 	0.86970 0.73220 0.94390 -0.00200
Cu	Cu	0.68630 0.60684 0.09148 0.92200
O 	O 	0.68566 0.60236 0.14951 -0.48200
C 	C 	0.72011 0.61182 0.16768 0.25200
C 	C 	0.73896 0.58514 0.19311 -0.26100
H 	H 	0.72750 0.56010 0.19810 0.12000
C 	C 	0.77435 0.59547 0.21089 0.11300
H 	H 	0.78710 0.57740 0.22810 -0.02000
C 	C 	0.79134 0.63236 0.20362 -0.16200
H 	H 	0.81560 0.63940 0.21590 0.07500
C 	C 	0.77249 0.65892 0.17820 0.05100
H 	H 	0.78410 0.68390 0.17330 0.01400
C 	C 	0.73700 0.64926 0.15999 -0.12200
C 	C 	0.71529 0.67819 0.13340 -0.01400
H 	H 	0.73060 0.70300 0.13150 0.03800
H 	H 	0.68930 0.68460 0.14520 0.02900
N 	N 	0.70924 0.66146 0.09272 -0.28800
H 	H 	0.73090 0.65860 0.08250 0.16200
C 	C 	0.68494 0.68495 0.06390 -0.00700
C 	C 	0.70372 0.72508 0.05232 -0.10600
H 	H 	0.71720 0.72300 0.02650 0.06300
H 	H 	0.72330 0.73340 0.07240 0.06100
C 	C 	0.67020 0.75460 0.05010 -0.08100
H 	H 	0.67970 0.78200 0.05400 0.04200
H 	H 	0.65600 0.75280 0.02460 0.05500
C 	C 	0.64340 0.74060 0.08540 -0.05800
H 	H 	0.61650 0.75170 0.08320 0.03500
H 	H 	0.65490 0.74860 0.11100 0.03900
C 	C 	0.64297 0.69571 0.08107 -0.12800
H 	H 	0.63880 0.68280 0.10700 0.04500
H 	H 	0.62180 0.68730 0.06280 0.06300
C 	C 	0.67767 0.65760 0.02807 0.29200
O 	O 	0.67656 0.62002 0.03558 -0.39200
O 	O 	0.67206 0.67260 0.99503 -0.34900
C 	C 	0.63030 0.73220 0.05610 -0.00200
Cu	Cu	0.18630 0.10684 0.59148 0.92200
O 	O 	0.18566 0.10236 0.64951 -0.48200
C 	C 	0.22011 0.11182 0.66768 0.25200
C 	C 	0.23896 0.08514 0.69311 -0.26100
H 	H 	0.22750 0.06010 0.69810 0.12000
C 	C 	0.27435 0.09547 0.71089 0.11300
H 	H 	0.28710 0.07740 0.72810 -0.02000
C 	C 	0.29134 0.13236 0.70362 -0.16200
H 	H 	0.31560 0.13940 0.71590 0.07500
C 	C 	0.27249 0.15892 0.67820 0.05100
H 	H 	0.28410 0.18390 0.67330 0.01400
C 	C 	0.23700 0.14926 0.65999 -0.12200
C 	C 	0.21529 0.17819 0.63340 -0.01400
H 	H 	0.23060 0.20300 0.63150 0.03800
H 	H 	0.18930 0.18460 0.64520 0.02900
N 	N 	0.20924 0.16146 0.59272 -0.28800
H 	H 	0.23090 0.15860 0.58250 0.16200
C 	C 	0.18494 0.18495 0.56390 -0.00700
C 	C 	0.20372 0.22508 0.55232 -0.10600
H 	H 	0.21720 0.22300 0.52650 0.06300
H 	H 	0.22330 0.23340 0.57240 0.06100
C 	C 	0.17020 0.25460 0.55010 -0.08100
H 	H 	0.17970 0.28200 0.55400 0.04200
H 	H 	0.15600 0.25280 0.52460 0.05500
C 	C 	0.14340 0.24060 0.58540 -0.05800
H 	H 	0.11650 0.25170 0.58320 0.03500
H 	H 	0.15490 0.24860 0.61100 0.03900
C 	C 	0.14297 0.19571 0.58107 -0.12800
H 	H 	0.13880 0.18280 0.60700 0.04500
H 	H 	0.12180 0.18730 0.56280 0.06300
C 	C 	0.17767 0.15760 0.52807 0.29200
O 	O 	0.17656 0.12002 0.53558 -0.39200
O 	O 	0.17206 0.17260 0.49503 -0.34900
C 	C 	0.13030 0.23220 0.55610 -0.00200
Cu	Cu	0.39316 0.59148 0.81370 0.92200
O 	O 	0.39764 0.64951 0.81434 -0.48200
C 	C 	0.38818 0.66768 0.77989 0.25200
C 	C 	0.41486 0.69311 0.76104 -0.26100
H 	H 	0.43990 0.69810 0.77250 0.12000
C 	C 	0.40453 0.71089 0.72565 0.11300
H 	H 	0.42260 0.72810 0.71290 -0.02000
C 	C 	0.36764 0.70362 0.70866 -0.16200
H 	H 	0.36060 0.71590 0.68440 0.07500
C 	C 	0.34108 0.67820 0.72751 0.05100
H 	H 	0.31610 0.67330 0.71590 0.01400
C 	C 	0.35074 0.65999 0.76300 -0.12200
C 	C 	0.32181 0.63340 0.78471 -0.01400
H 	H 	0.29700 0.63150 0.76940 0.03800
H 	H 	0.31540 0.64520 0.81070 0.02900
N 	N 	0.33854 0.59272 0.79076 -0.28800
H 	H 	0.34140 0.58250 0.76910 0.16200
C 	C 	0.31505 0.56390 0.81506 -0.00700
C 	C 	0.27492 0.55232 0.79628 -0.10600
H 	H 	0.27700 0.52650 0.78280 0.06300
H 	H 	0.26660 0.57240 0.77670 0.06100
C 	C 	0.24540 0.55010 0.82980 -0.08100
H 	H 	0.21800 0.55400 0.82030 0.04200
H 	H 	0.24720 0.52460 0.84400 0.05500
C 	C 	0.25940 0.58540 0.85660 -0.05800
H 	H 	0.24830 0.58320 0.88350 0.03500
H 	H 	0.25140 0.61100 0.84510 0.03900
C 	C 	0.30429 0.58107 0.85703 -0.12800
H 	H 	0.31720 0.60700 0.86120 0.04500
H 	H 	0.31270 0.56280 0.87820 0.06300
C 	C 	0.34240 0.52807 0.82233 0.29200
O 	O 	0.37998 0.53558 0.82344 -0.39200
O 	O 	0.32740 0.49503 0.82794 -0.34900
C 	C 	0.26780 0.55610 0.86970 -0.00200
Cu	Cu	0.89316 0.09148 0.31370 0.92200
O 	O 	0.89764 0.14951 0.31434 -0.48200
C 	C 	0.88818 0.16768 0.27989 0.25200
C 	C 	0.91486 0.19311 0.26104 -0.26100
H 	H 	0.93990 0.19810 0.27250 0.12000
C 	C 	0.90453 0.21089 0.22565 0.11300
H 	H 	0.92260 0.22810 0.21290 -0.02000
C 	C 	0.86764 0.20362 0.20866 -0.16200
H 	H 	0.86060 0.21590 0.18440 0.07500
C 	C 	0.84108 0.17820 0.22751 0.05100
H 	H 	0.81610 0.17330 0.21590 0.01400
C 	C 	0.85074 0.15999 0.26300 -0.12200
C 	C 	0.82181 0.13340 0.28471 -0.01400
H 	H 	0.79700 0.13150 0.26940 0.03800
H 	H 	0.81540 0.14520 0.31070 0.02900
N 	N 	0.83854 0.09272 0.29076 -0.28800
H 	H 	0.84140 0.08250 0.26910 0.16200
C 	C 	0.81505 0.06390 0.31506 -0.00700
C 	C 	0.77492 0.05232 0.29628 -0.10600
H 	H 	0.77700 0.02650 0.28280 0.06300
H 	H 	0.76660 0.07240 0.27670 0.06100
C 	C 	0.74540 0.05010 0.32980 -0.08100
H 	H 	0.71800 0.05400 0.32030 0.04200
H 	H 	0.74720 0.02460 0.34400 0.05500
C 	C 	0.75940 0.08540 0.35660 -0.05800
H 	H 	0.74830 0.08320 0.38350 0.03500
H 	H 	0.75140 0.11100 0.34510 0.03900
C 	C 	0.80429 0.08107 0.35703 -0.12800
H 	H 	0.81720 0.10700 0.36120 0.04500
H 	H 	0.81270 0.06280 0.37820 0.06300
C 	C 	0.84240 0.02807 0.32233 0.29200
O 	O 	0.87998 0.03558 0.32344 -0.39200
O 	O 	0.82740 0.99503 0.32794 -0.34900
C 	C 	0.76780 0.05610 0.36970 -0.00200
Cu	Cu	0.89316 0.90852 0.18630 0.92200
O 	O 	0.89764 0.85049 0.18566 -0.48200
C 	C 	0.88818 0.83232 0.22011 0.25200
C 	C 	0.91486 0.80689 0.23896 -0.26100
H 	H 	0.93990 0.80190 0.22750 0.12000
C 	C 	0.90453 0.78911 0.27435 0.11300
H 	H 	0.92260 0.77190 0.28710 -0.02000
C 	C 	0.86764 0.79638 0.29134 -0.16200
H 	H 	0.86060 0.78410 0.31560 0.07500
C 	C 	0.84108 0.82180 0.27249 0.05100
H 	H 	0.81610 0.82670 0.28410 0.01400
C 	C 	0.85074 0.84001 0.23700 -0.12200
C 	C 	0.82181 0.86660 0.21529 -0.01400
H 	H 	0.79700 0.86850 0.23060 0.03800
H 	H 	0.81540 0.85480 0.18930 0.02900
N 	N 	0.83854 0.90728 0.20924 -0.28800
H 	H 	0.84140 0.91750 0.23090 0.16200
C 	C 	0.81505 0.93610 0.18494 -0.00700
C 	C 	0.77492 0.94768 0.20372 -0.10600
H 	H 	0.77700 0.97350 0.21720 0.06300
H 	H 	0.76660 0.92760 0.22330 0.06100
C 	C 	0.74540 0.94990 0.17020 -0.08100
H 	H 	0.71800 0.94600 0.17970 0.04200
H 	H 	0.74720 0.97540 0.15600 0.05500
C 	C 	0.75940 0.91460 0.14340 -0.05800
H 	H 	0.74830 0.91680 0.11650 0.03500
H 	H 	0.75140 0.88900 0.15490 0.03900
C 	C 	0.80429 0.91893 0.14297 -0.12800
H 	H 	0.81720 0.89300 0.13880 0.04500
H 	H 	0.81270 0.93720 0.12180 0.06300
C 	C 	0.84240 0.97193 0.17767 0.29200
O 	O 	0.87998 0.96442 0.17656 -0.39200
O 	O 	0.82740 0.00497 0.17206 -0.34900
C 	C 	0.76780 0.94390 0.13030 -0.00200
Cu	Cu	0.39316 0.40852 0.68630 0.92200
O 	O 	0.39764 0.35049 0.68566 -0.48200
C 	C 	0.38818 0.33232 0.72011 0.25200
C 	C 	0.41486 0.30689 0.73896 -0.26100
H 	H 	0.43990 0.30190 0.72750 0.12000
C 	C 	0.40453 0.28911 0.77435 0.11300
H 	H 	0.42260 0.27190 0.78710 -0.02000
C 	C 	0.36764 0.29638 0.79134 -0.16200
H 	H 	0.36060 0.28410 0.81560 0.07500
C 	C 	0.34108 0.32180 0.77249 0.05100
H 	H 	0.31610 0.32670 0.78410 0.01400
C 	C 	0.35074 0.34001 0.73700 -0.12200
C 	C 	0.32181 0.36660 0.71529 -0.01400
H 	H 	0.29700 0.36850 0.73060 0.03800
H 	H 	0.31540 0.35480 0.68930 0.02900
N 	N 	0.33854 0.40728 0.70924 -0.28800
H 	H 	0.34140 0.41750 0.73090 0.16200
C 	C 	0.31505 0.43610 0.68494 -0.00700
C 	C 	0.27492 0.44768 0.70372 -0.10600
H 	H 	0.27700 0.47350 0.71720 0.06300
H 	H 	0.26660 0.42760 0.72330 0.06100
C 	C 	0.24540 0.44990 0.67020 -0.08100
H 	H 	0.21800 0.44600 0.67970 0.04200
H 	H 	0.24720 0.47540 0.65600 0.05500
C 	C 	0.25940 0.41460 0.64340 -0.05800
H 	H 	0.24830 0.41680 0.61650 0.03500
H 	H 	0.25140 0.38900 0.65490 0.03900
C 	C 	0.30429 0.41893 0.64297 -0.12800
H 	H 	0.31720 0.39300 0.63880 0.04500
H 	H 	0.31270 0.43720 0.62180 0.06300
C 	C 	0.34240 0.47193 0.67767 0.29200
O 	O 	0.37998 0.46442 0.67656 -0.39200
O 	O 	0.32740 0.50497 0.67206 -0.34900
C 	C 	0.26780 0.44390 0.63030 -0.00200
Cu	Cu	0.60684 0.09148 0.68630 0.92200
O 	O 	0.60236 0.14951 0.68566 -0.48200
C 	C 	0.61182 0.16768 0.72011 0.25200
C 	C 	0.58514 0.19311 0.73896 -0.26100
H 	H 	0.56010 0.19810 0.72750 0.12000
C 	C 	0.59547 0.21089 0.77435 0.11300
H 	H 	0.57740 0.22810 0.78710 -0.02000
C 	C 	0.63236 0.20362 0.79134 -0.16200
H 	H 	0.63940 0.21590 0.81560 0.07500
C 	C 	0.65892 0.17820 0.77249 0.05100
H 	H 	0.68390 0.17330 0.78410 0.01400
C 	C 	0.64926 0.15999 0.73700 -0.12200
C 	C 	0.67819 0.13340 0.71529 -0.01400
H 	H 	0.70300 0.13150 0.73060 0.03800
H 	H 	0.68460 0.14520 0.68930 0.02900
N 	N 	0.66146 0.09272 0.70924 -0.28800
H 	H 	0.65860 0.08250 0.73090 0.16200
C 	C 	0.68495 0.06390 0.68494 -0.00700
C 	C 	0.72508 0.05232 0.70372 -0.10600
H 	H 	0.72300 0.02650 0.71720 0.06300
H 	H 	0.73340 0.07240 0.72330 0.06100
C 	C 	0.75460 0.05010 0.67020 -0.08100
H 	H 	0.78200 0.05400 0.67970 0.04200
H 	H 	0.75280 0.02460 0.65600 0.05500
C 	C 	0.74060 0.08540 0.64340 -0.05800
H 	H 	0.75170 0.08320 0.61650 0.03500
H 	H 	0.74860 0.11100 0.65490 0.03900
C 	C 	0.69571 0.08107 0.64297 -0.12800
H 	H 	0.68280 0.10700 0.63880 0.04500
H 	H 	0.68730 0.06280 0.62180 0.06300
C 	C 	0.65760 0.02807 0.67767 0.29200
O 	O 	0.62002 0.03558 0.67656 -0.39200
O 	O 	0.67260 0.99503 0.67206 -0.34900
C 	C 	0.73220 0.05610 0.63030 -0.00200
Cu	Cu	0.10684 0.59148 0.18630 0.92200
O 	O 	0.10236 0.64951 0.18566 -0.48200
C 	C 	0.11182 0.66768 0.22011 0.25200
C 	C 	0.08514 0.69311 0.23896 -0.26100
H 	H 	0.06010 0.69810 0.22750 0.12000
C 	C 	0.09547 0.71089 0.27435 0.11300
H 	H 	0.07740 0.72810 0.28710 -0.02000
C 	C 	0.13236 0.70362 0.29134 -0.16200
H 	H 	0.13940 0.71590 0.31560 0.07500
C 	C 	0.15892 0.67820 0.27249 0.05100
H 	H 	0.18390 0.67330 0.28410 0.01400
C 	C 	0.14926 0.65999 0.23700 -0.12200
C 	C 	0.17819 0.63340 0.21529 -0.01400
H 	H 	0.20300 0.63150 0.23060 0.03800
H 	H 	0.18460 0.64520 0.18930 0.02900
N 	N 	0.16146 0.59272 0.20924 -0.28800
H 	H 	0.15860 0.58250 0.23090 0.16200
C 	C 	0.18495 0.56390 0.18494 -0.00700
C 	C 	0.22508 0.55232 0.20372 -0.10600
H 	H 	0.22300 0.52650 0.21720 0.06300
H 	H 	0.23340 0.57240 0.22330 0.06100
C 	C 	0.25460 0.55010 0.17020 -0.08100
H 	H 	0.28200 0.55400 0.17970 0.04200
H 	H 	0.25280 0.52460 0.15600 0.05500
C 	C 	0.24060 0.58540 0.14340 -0.05800
H 	H 	0.25170 0.58320 0.11650 0.03500
H 	H 	0.24860 0.61100 0.15490 0.03900
C 	C 	0.19571 0.58107 0.14297 -0.12800
H 	H 	0.18280 0.60700 0.13880 0.04500
H 	H 	0.18730 0.56280 0.12180 0.06300
C 	C 	0.15760 0.52807 0.17767 0.29200
O 	O 	0.12002 0.53558 0.17656 -0.39200
O 	O 	0.17260 0.49503 0.17206 -0.34900
C 	C 	0.23220 0.55610 0.13030 -0.00200
Cu	Cu	0.10684 0.40852 0.31370 0.92200
O 	O 	0.10236 0.35049 0.31434 -0.48200
C 	C 	0.11182 0.33232 0.27989 0.25200
C 	C 	0.08514 0.30689 0.26104 -0.26100
H 	H 	0.06010 0.30190 0.27250 0.12000
C 	C 	0.09547 0.28911 0.22565 0.11300
H 	H 	0.07740 0.27190 0.21290 -0.02000
C 	C 	0.13236 0.29638 0.20866 -0.16200
H 	H 	0.13940 0.28410 0.18440 0.07500
C 	C 	0.15892 0.32180 0.22751 0.05100
H 	H 	0.18390 0.32670 0.21590 0.01400
C 	C 	0.14926 0.34001 0.26300 -0.12200
C 	C 	0.17819 0.36660 0.28471 -0.01400
H 	H 	0.20300 0.36850 0.26940 0.03800
H 	H 	0.18460 0.35480 0.31070 0.02900
N 	N 	0.16146 0.40728 0.29076 -0.28800
H 	H 	0.15860 0.41750 0.26910 0.16200
C 	C 	0.18495 0.43610 0.31506 -0.00700
C 	C 	0.22508 0.44768 0.29628 -0.10600
H 	H 	0.22300 0.47350 0.28280 0.06300
H 	H 	0.23340 0.42760 0.27670 0.06100
C 	C 	0.25460 0.44990 0.32980 -0.08100
H 	H 	0.28200 0.44600 0.32030 0.04200
H 	H 	0.25280 0.47540 0.34400 0.05500
C 	C 	0.24060 0.41460 0.35660 -0.05800
H 	H 	0.25170 0.41680 0.38350 0.03500
H 	H 	0.24860 0.38900 0.34510 0.03900
C 	C 	0.19571 0.41893 0.35703 -0.12800
H 	H 	0.18280 0.39300 0.36120 0.04500
H 	H 	0.18730 0.43720 0.37820 0.06300
C 	C 	0.15760 0.47193 0.32233 0.29200
O 	O 	0.12002 0.46442 0.32344 -0.39200
O 	O 	0.17260 0.50497 0.32794 -0.34900
C 	C 	0.23220 0.44390 0.36970 -0.00200
Cu	Cu	0.60684 0.90852 0.81370 0.92200
O 	O 	0.60236 0.85049 0.81434 -0.48200
C 	C 	0.61182 0.83232 0.77989 0.25200
C 	C 	0.58514 0.80689 0.76104 -0.26100
H 	H 	0.56010 0.80190 0.77250 0.12000
C 	C 	0.59547 0.78911 0.72565 0.11300
H 	H 	0.57740 0.77190 0.71290 -0.02000
C 	C 	0.63236 0.79638 0.70866 -0.16200
H 	H 	0.63940 0.78410 0.68440 0.07500
C 	C 	0.65892 0.82180 0.72751 0.05100
H 	H 	0.68390 0.82670 0.71590 0.01400
C 	C 	0.64926 0.84001 0.76300 -0.12200
C 	C 	0.67819 0.86660 0.78471 -0.01400
H 	H 	0.70300 0.86850 0.76940 0.03800
H 	H 	0.68460 0.85480 0.81070 0.02900
N 	N 	0.66146 0.90728 0.79076 -0.28800
H 	H 	0.65860 0.91750 0.76910 0.16200
C 	C 	0.68495 0.93610 0.81506 -0.00700
C 	C 	0.72508 0.94768 0.79628 -0.10600
H 	H 	0.72300 0.97350 0.78280 0.06300
H 	H 	0.73340 0.92760 0.77670 0.06100
C 	C 	0.75460 0.94990 0.82980 -0.08100
H 	H 	0.78200 0.94600 0.82030 0.04200
H 	H 	0.75280 0.97540 0.84400 0.05500
C 	C 	0.74060 0.91460 0.85660 -0.05800
H 	H 	0.75170 0.91680 0.88350 0.03500
H 	H 	0.74860 0.88900 0.84510 0.03900
C 	C 	0.69571 0.91893 0.85703 -0.12800
H 	H 	0.68280 0.89300 0.86120 0.04500
H 	H 	0.68730 0.93720 0.87820 0.06300
C 	C 	0.65760 0.97193 0.82233 0.29200
O 	O 	0.62002 0.96442 0.82344 -0.39200
O 	O 	0.67260 0.00497 0.82794 -0.34900
C 	C 	0.73220 0.94390 0.86970 -0.00200
