data_crystal

_cell_length_a 28.63760
_cell_length_b 10.58120
_cell_length_c 22.76850
_cell_angle_alpha 90.00000
_cell_angle_beta  90.00000
_cell_angle_gamma 90.00000

_symmetry_space_group_name_	'P 1'
_symmetry_space_group_name_H-M	'P 1'

loop_
_symmetry_equiv_pos_as_xyz
  x,y,z

loop_
_atom_site_label
_atom_site_type_symbol
_atom_site_fract_x
_atom_site_fract_y
_atom_site_fract_z
_atom_site_charge
C 	C 	0.61471 0.11760 0.43960 0.14600
C 	C 	0.65977 0.16890 0.41940 -0.12600
C 	C 	0.68433 0.24980 0.45490 0.10900
H 	H 	0.67220 0.27260 0.49130 -0.00600
C 	C 	0.72693 0.29760 0.43700 -0.26100
H 	H 	0.74340 0.35220 0.46140 0.12500
C 	C 	0.74523 0.26460 0.38290 0.27900
C 	C 	0.72130 0.18140 0.34770 -0.25800
H 	H 	0.73380 0.15660 0.31180 0.12900
C 	C 	0.67890 0.13480 0.36590 0.10900
H 	H 	0.66270 0.07910 0.34170 -0.00700
C 	C 	0.82390 0.32780 0.40170 0.26700
C 	C 	0.84576 0.44290 0.40560 -0.24600
H 	H 	0.83450 0.51180 0.38460 0.13600
C 	C 	0.88468 0.45560 0.44109 0.10400
H 	H 	0.89990 0.53300 0.44390 0.00200
C 	C 	0.90109 0.35090 0.47283 -0.13600
C 	C 	0.87821 0.23590 0.46870 0.08500
H 	H 	0.88900 0.16650 0.48980 -0.01000
C 	C 	0.83893 0.22440 0.43290 -0.24800
H 	H 	0.82310 0.14780 0.43030 0.12400
C 	C 	0.94411 0.36060 0.50809 0.14000
C 	C 	0.04130 0.91150 0.35070 0.00900
H 	H 	0.01490 0.86670 0.36240 0.00400
C 	C 	0.09210 0.06000 0.33990 -0.06900
H 	H 	0.10800 0.13630 0.34400 0.03400
C 	C 	0.10420 0.96570 0.30280 -0.01800
H 	H 	0.12910 0.96610 0.27650 0.03300
N 	N 	0.05330 0.02610 0.37030 -0.05100
N 	N 	0.07340 0.87050 0.31120 0.00900
C 	C 	0.06894 0.74880 0.28063 0.07000
C 	C 	0.06422 0.73880 0.21978 -0.03900
H 	H 	0.06230 0.81100 0.19660 0.05400
C 	C 	0.06249 0.62010 0.19439 -0.11900
H 	H 	0.05980 0.61190 0.15390 0.09200
C 	C 	0.06479 0.51430 0.22946 0.15100
C 	C 	0.07050 0.52320 0.28998 -0.11400
H 	H 	0.07290 0.45100 0.31310 0.06500
C 	C 	0.07254 0.64240 0.31490 -0.05100
H 	H 	0.07640 0.65060 0.35530 0.06200
C 	C 	0.09440 0.30170 0.21010 -0.31800
H 	H 	0.11900 0.29860 0.23670 0.14500
C 	C 	0.08060 0.20910 0.17290 0.27200
H 	H 	0.09490 0.13050 0.16960 -0.05600
C 	C 	0.03300 0.36450 0.15950 -0.00800
H 	H 	0.00820 0.41370 0.14640 0.01200
N 	N 	0.06470 0.40090 0.20050 -0.31400
N 	N 	0.04260 0.24740 0.14090 0.05100
N 	N 	0.59881 0.13330 0.49440 -0.12300
N 	N 	0.55727 0.07080 0.49537 -0.17000
N 	N 	0.54983 0.02090 0.44303 -0.16900
N 	N 	0.58535 0.04930 0.40642 -0.11500
N 	N 	0.95343 0.45190 0.54643 -0.10900
N 	N 	0.99630 0.42160 0.56911 -0.05800
N 	N 	0.01106 0.31650 0.54555 -0.06500
N 	N 	0.97889 0.27600 0.50595 -0.22100
O 	O 	0.78628 0.31590 0.36160 -0.29500
Cd	Cd	0.00371 0.14397 0.43100 1.18300
N 	N 	0.05880 0.87220 0.30120 -0.13700
N 	N 	0.03650 0.02830 0.35800 -0.19300
C 	C 	0.07220 0.98190 0.27520 0.00200
H 	H 	0.08840 0.98990 0.24000 0.01900
C 	C 	0.05770 0.07740 0.31010 0.05000
H 	H 	0.06170 0.16300 0.30240 -0.00600
C 	C 	0.04130 0.90220 0.35470 0.07000
H 	H 	0.03380 0.84490 0.38420 -0.00100
C 	C 	0.06790 0.26200 0.22810 0.24500
H 	H 	0.08560 0.24840 0.26170 -0.05200
C 	C 	0.05140 0.17250 0.19120 -0.34000
H 	H 	0.05530 0.08590 0.19600 0.13700
C 	C 	0.03290 0.35400 0.15410 -0.00900
H 	H 	0.02350 0.41590 0.12770 0.02200
N 	N 	0.05360 0.37650 0.20680 0.21000
N 	N 	0.02820 0.22850 0.14600 -0.25500
C 	C 	0.88529 0.88240 0.43960 0.14700
C 	C 	0.84023 0.83110 0.41940 -0.12500
C 	C 	0.81567 0.75020 0.45490 0.11000
H 	H 	0.82780 0.72740 0.49130 -0.00500
C 	C 	0.77307 0.70240 0.43700 -0.26000
H 	H 	0.75660 0.64780 0.46140 0.12600
C 	C 	0.75477 0.73540 0.38290 0.28000
C 	C 	0.77870 0.81860 0.34770 -0.25700
H 	H 	0.76620 0.84340 0.31180 0.13000
C 	C 	0.82110 0.86520 0.36590 0.11000
H 	H 	0.83730 0.92090 0.34170 -0.00600
C 	C 	0.67610 0.67220 0.40170 0.26800
C 	C 	0.65424 0.55710 0.40560 -0.24500
H 	H 	0.66550 0.48820 0.38460 0.13700
C 	C 	0.61532 0.54440 0.44109 0.10500
H 	H 	0.60010 0.46700 0.44390 0.00300
C 	C 	0.59891 0.64910 0.47283 -0.13500
C 	C 	0.62179 0.76410 0.46870 0.08600
H 	H 	0.61100 0.83350 0.48980 -0.00900
C 	C 	0.66107 0.77560 0.43290 -0.24700
H 	H 	0.67690 0.85220 0.43030 0.12400
C 	C 	0.55589 0.63940 0.50809 0.14000
C 	C 	0.45870 0.08850 0.35070 0.00900
H 	H 	0.48510 0.13330 0.36240 0.00400
C 	C 	0.40790 0.94000 0.33990 -0.07000
H 	H 	0.39200 0.86370 0.34400 0.03400
C 	C 	0.39580 0.03430 0.30280 -0.01800
H 	H 	0.37090 0.03390 0.27650 0.03300
N 	N 	0.44670 0.97390 0.37030 -0.05100
N 	N 	0.42660 0.12950 0.31120 0.01000
C 	C 	0.43106 0.25120 0.28063 0.07000
C 	C 	0.43578 0.26120 0.21978 -0.03900
H 	H 	0.43770 0.18900 0.19660 0.05400
C 	C 	0.43751 0.37990 0.19439 -0.11900
H 	H 	0.44020 0.38810 0.15390 0.09200
C 	C 	0.43521 0.48570 0.22946 0.15100
C 	C 	0.42950 0.47680 0.28998 -0.11400
H 	H 	0.42710 0.54900 0.31310 0.06500
C 	C 	0.42746 0.35760 0.31490 -0.05100
H 	H 	0.42360 0.34940 0.35530 0.06200
C 	C 	0.40560 0.69830 0.21010 -0.31800
H 	H 	0.38100 0.70140 0.23670 0.14500
C 	C 	0.41940 0.79090 0.17290 0.27300
H 	H 	0.40510 0.86950 0.16960 -0.05600
C 	C 	0.46700 0.63550 0.15950 -0.00800
H 	H 	0.49180 0.58630 0.14640 0.01200
N 	N 	0.43530 0.59910 0.20050 -0.31500
N 	N 	0.45740 0.75260 0.14090 0.05100
N 	N 	0.90119 0.86670 0.49440 -0.12300
N 	N 	0.94273 0.92920 0.49537 -0.17000
N 	N 	0.95017 0.97910 0.44303 -0.16900
N 	N 	0.91465 0.95070 0.40642 -0.11500
N 	N 	0.54657 0.54810 0.54643 -0.10900
N 	N 	0.50370 0.57840 0.56911 -0.05800
N 	N 	0.48894 0.68350 0.54555 -0.06500
N 	N 	0.52111 0.72400 0.50595 -0.22100
O 	O 	0.71372 0.68410 0.36160 -0.29500
Cd	Cd	0.49629 0.85603 0.43100 1.18300
N 	N 	0.44120 0.12780 0.30120 -0.13700
N 	N 	0.46350 0.97170 0.35800 -0.19300
C 	C 	0.42780 0.01810 0.27520 0.00200
H 	H 	0.41160 0.01010 0.24000 0.01900
C 	C 	0.44230 0.92260 0.31010 0.05000
H 	H 	0.43830 0.83700 0.30240 -0.00600
C 	C 	0.45870 0.09780 0.35470 0.07000
H 	H 	0.46620 0.15510 0.38420 -0.00100
C 	C 	0.43210 0.73800 0.22810 0.24500
H 	H 	0.41440 0.75160 0.26170 -0.05200
C 	C 	0.44860 0.82750 0.19120 -0.34100
H 	H 	0.44470 0.91410 0.19600 0.13700
C 	C 	0.46710 0.64600 0.15410 -0.00900
H 	H 	0.47650 0.58410 0.12770 0.02200
N 	N 	0.44640 0.62350 0.20680 0.21100
N 	N 	0.47180 0.77150 0.14600 -0.25500
C 	C 	0.38529 0.11760 0.06040 0.14700
C 	C 	0.34023 0.16890 0.08060 -0.12500
C 	C 	0.31567 0.24980 0.04510 0.11000
H 	H 	0.32780 0.27260 0.00870 -0.00500
C 	C 	0.27307 0.29760 0.06300 -0.26000
H 	H 	0.25660 0.35220 0.03860 0.12600
C 	C 	0.25477 0.26460 0.11710 0.28000
C 	C 	0.27870 0.18140 0.15230 -0.25700
H 	H 	0.26620 0.15660 0.18820 0.13000
C 	C 	0.32110 0.13480 0.13410 0.11000
H 	H 	0.33730 0.07910 0.15830 -0.00600
C 	C 	0.17610 0.32780 0.09830 0.26700
C 	C 	0.15424 0.44290 0.09440 -0.24500
H 	H 	0.16550 0.51180 0.11540 0.13700
C 	C 	0.11532 0.45560 0.05891 0.10400
H 	H 	0.10010 0.53300 0.05610 0.00300
C 	C 	0.09891 0.35090 0.02717 -0.13300
C 	C 	0.12179 0.23590 0.03130 0.08500
H 	H 	0.11100 0.16650 0.01020 -0.00800
C 	C 	0.16107 0.22440 0.06710 -0.24600
H 	H 	0.17690 0.14780 0.06970 0.12400
C 	C 	0.05589 0.36060 0.99191 0.13900
C 	C 	0.95870 0.91150 0.14930 0.00900
H 	H 	0.98510 0.86670 0.13760 0.00400
C 	C 	0.90790 0.06000 0.16010 -0.07000
H 	H 	0.89200 0.13630 0.15600 0.03400
C 	C 	0.89580 0.96570 0.19720 -0.01800
H 	H 	0.87090 0.96610 0.22350 0.03300
N 	N 	0.94670 0.02610 0.12970 -0.05100
N 	N 	0.92660 0.87050 0.18880 0.01000
C 	C 	0.93106 0.74880 0.21937 0.07000
C 	C 	0.93578 0.73880 0.28022 -0.03900
H 	H 	0.93770 0.81100 0.30340 0.05400
C 	C 	0.93751 0.62010 0.30561 -0.11900
H 	H 	0.94020 0.61190 0.34610 0.09200
C 	C 	0.93521 0.51430 0.27054 0.15100
C 	C 	0.92950 0.52320 0.21002 -0.11400
H 	H 	0.92710 0.45100 0.18690 0.06500
C 	C 	0.92746 0.64240 0.18510 -0.05100
H 	H 	0.92360 0.65060 0.14470 0.06200
C 	C 	0.90560 0.30170 0.28990 -0.31800
H 	H 	0.88100 0.29860 0.26330 0.14500
C 	C 	0.91940 0.20910 0.32710 0.27300
H 	H 	0.90510 0.13050 0.33040 -0.05600
C 	C 	0.96700 0.36450 0.34050 -0.00800
H 	H 	0.99180 0.41370 0.35360 0.01200
N 	N 	0.93530 0.40090 0.29950 -0.31500
N 	N 	0.95740 0.24740 0.35910 0.05100
N 	N 	0.40119 0.13330 0.00560 -0.12300
N 	N 	0.44273 0.07080 0.00463 -0.17000
N 	N 	0.45017 0.02090 0.05697 -0.16900
N 	N 	0.41465 0.04930 0.09358 -0.11500
N 	N 	0.04657 0.45190 0.95357 -0.10900
N 	N 	0.00370 0.42160 0.93089 -0.05900
N 	N 	0.98894 0.31650 0.95445 -0.06400
N 	N 	0.02111 0.27600 0.99405 -0.22200
O 	O 	0.21372 0.31590 0.13840 -0.29500
Cd	Cd	0.99629 0.14397 0.06900 1.18300
N 	N 	0.94120 0.87220 0.19880 -0.13700
N 	N 	0.96350 0.02830 0.14200 -0.19300
C 	C 	0.92780 0.98190 0.22480 0.00100
H 	H 	0.91160 0.98990 0.26000 0.01900
C 	C 	0.94230 0.07740 0.18990 0.05000
H 	H 	0.93830 0.16300 0.19760 -0.00600
C 	C 	0.95870 0.90220 0.14530 0.07000
H 	H 	0.96620 0.84490 0.11580 -0.00100
C 	C 	0.93210 0.26200 0.27190 0.24500
H 	H 	0.91440 0.24840 0.23830 -0.05200
C 	C 	0.94860 0.17250 0.30880 -0.34100
H 	H 	0.94470 0.08590 0.30400 0.13700
C 	C 	0.96710 0.35400 0.34590 -0.00900
H 	H 	0.97650 0.41590 0.37230 0.02200
N 	N 	0.94640 0.37650 0.29320 0.21100
N 	N 	0.97180 0.22850 0.35400 -0.25500
C 	C 	0.11471 0.88240 0.06040 0.14700
C 	C 	0.15977 0.83110 0.08060 -0.12500
C 	C 	0.18433 0.75020 0.04510 0.11000
H 	H 	0.17220 0.72740 0.00870 -0.00500
C 	C 	0.22693 0.70240 0.06300 -0.26000
H 	H 	0.24340 0.64780 0.03860 0.12600
C 	C 	0.24523 0.73540 0.11710 0.28000
C 	C 	0.22130 0.81860 0.15230 -0.25700
H 	H 	0.23380 0.84340 0.18820 0.13000
C 	C 	0.17890 0.86520 0.13410 0.11000
H 	H 	0.16270 0.92090 0.15830 -0.00600
C 	C 	0.32390 0.67220 0.09830 0.26700
C 	C 	0.34576 0.55710 0.09440 -0.24500
H 	H 	0.33450 0.48820 0.11540 0.13700
C 	C 	0.38468 0.54440 0.05891 0.10500
H 	H 	0.39990 0.46700 0.05610 0.00300
C 	C 	0.40109 0.64910 0.02717 -0.13400
C 	C 	0.37821 0.76410 0.03130 0.08600
H 	H 	0.38900 0.83350 0.01020 -0.00900
C 	C 	0.33893 0.77560 0.06710 -0.24700
H 	H 	0.32310 0.85220 0.06970 0.12400
C 	C 	0.44411 0.63940 0.99191 0.14000
C 	C 	0.54130 0.08850 0.14930 0.00900
H 	H 	0.51490 0.13330 0.13760 0.00400
C 	C 	0.59210 0.94000 0.16010 -0.07000
H 	H 	0.60800 0.86370 0.15600 0.03400
C 	C 	0.60420 0.03430 0.19720 -0.01800
H 	H 	0.62910 0.03390 0.22350 0.03300
N 	N 	0.55330 0.97390 0.12970 -0.05100
N 	N 	0.57340 0.12950 0.18880 0.01000
C 	C 	0.56894 0.25120 0.21937 0.07000
C 	C 	0.56422 0.26120 0.28022 -0.03900
H 	H 	0.56230 0.18900 0.30340 0.05400
C 	C 	0.56249 0.37990 0.30561 -0.11900
H 	H 	0.55980 0.38810 0.34610 0.09200
C 	C 	0.56479 0.48570 0.27054 0.15100
C 	C 	0.57050 0.47680 0.21002 -0.11400
H 	H 	0.57290 0.54900 0.18690 0.06500
C 	C 	0.57254 0.35760 0.18510 -0.05100
H 	H 	0.57640 0.34940 0.14470 0.06200
C 	C 	0.59440 0.69830 0.28990 -0.31800
H 	H 	0.61900 0.70140 0.26330 0.14500
C 	C 	0.58060 0.79090 0.32710 0.27300
H 	H 	0.59490 0.86950 0.33040 -0.05600
C 	C 	0.53300 0.63550 0.34050 -0.00800
H 	H 	0.50820 0.58630 0.35360 0.01200
N 	N 	0.56470 0.59910 0.29950 -0.31500
N 	N 	0.54260 0.75260 0.35910 0.05100
N 	N 	0.09881 0.86670 0.00560 -0.12300
N 	N 	0.05727 0.92920 0.00463 -0.17000
N 	N 	0.04983 0.97910 0.05697 -0.16900
N 	N 	0.08535 0.95070 0.09358 -0.11500
N 	N 	0.45343 0.54810 0.95357 -0.10900
N 	N 	0.49630 0.57840 0.93089 -0.05800
N 	N 	0.51106 0.68350 0.95445 -0.06500
N 	N 	0.47889 0.72400 0.99405 -0.22100
O 	O 	0.28628 0.68410 0.13840 -0.29500
Cd	Cd	0.50371 0.85603 0.06900 1.18300
N 	N 	0.55880 0.12780 0.19880 -0.13700
N 	N 	0.53650 0.97170 0.14200 -0.19300
C 	C 	0.57220 0.01810 0.22480 0.00200
H 	H 	0.58840 0.01010 0.26000 0.01900
C 	C 	0.55770 0.92260 0.18990 0.05000
H 	H 	0.56170 0.83700 0.19760 -0.00600
C 	C 	0.54130 0.09780 0.14530 0.07000
H 	H 	0.53380 0.15510 0.11580 -0.00100
C 	C 	0.56790 0.73800 0.27190 0.24500
H 	H 	0.58560 0.75160 0.23830 -0.05200
C 	C 	0.55140 0.82750 0.30880 -0.34100
H 	H 	0.55530 0.91410 0.30400 0.13700
C 	C 	0.53290 0.64600 0.34590 -0.00900
H 	H 	0.52350 0.58410 0.37230 0.02200
N 	N 	0.55360 0.62350 0.29320 0.21100
N 	N 	0.52820 0.77150 0.35400 -0.25500
C 	C 	0.38529 0.88240 0.56040 0.14700
C 	C 	0.34023 0.83110 0.58060 -0.12500
C 	C 	0.31567 0.75020 0.54510 0.11000
H 	H 	0.32780 0.72740 0.50870 -0.00500
C 	C 	0.27307 0.70240 0.56300 -0.26000
H 	H 	0.25660 0.64780 0.53860 0.12600
C 	C 	0.25477 0.73540 0.61710 0.28000
C 	C 	0.27870 0.81860 0.65230 -0.25700
H 	H 	0.26620 0.84340 0.68820 0.13000
C 	C 	0.32110 0.86520 0.63410 0.11000
H 	H 	0.33730 0.92090 0.65830 -0.00600
C 	C 	0.17610 0.67220 0.59830 0.26800
C 	C 	0.15424 0.55710 0.59440 -0.24500
H 	H 	0.16550 0.48820 0.61540 0.13700
C 	C 	0.11532 0.54440 0.55891 0.10500
H 	H 	0.10010 0.46700 0.55610 0.00300
C 	C 	0.09891 0.64910 0.52717 -0.13500
C 	C 	0.12179 0.76410 0.53130 0.08600
H 	H 	0.11100 0.83350 0.51020 -0.00900
C 	C 	0.16107 0.77560 0.56710 -0.24700
H 	H 	0.17690 0.85220 0.56970 0.12400
C 	C 	0.05589 0.63940 0.49191 0.14000
C 	C 	0.95870 0.08850 0.64930 0.00900
H 	H 	0.98510 0.13330 0.63760 0.00400
C 	C 	0.90790 0.94000 0.66010 -0.06900
H 	H 	0.89200 0.86370 0.65600 0.03400
C 	C 	0.89580 0.03430 0.69720 -0.01800
H 	H 	0.87090 0.03390 0.72350 0.03300
N 	N 	0.94670 0.97390 0.62970 -0.05100
N 	N 	0.92660 0.12950 0.68880 0.00900
C 	C 	0.93106 0.25120 0.71937 0.07000
C 	C 	0.93578 0.26120 0.78022 -0.03900
H 	H 	0.93770 0.18900 0.80340 0.05400
C 	C 	0.93751 0.37990 0.80561 -0.11900
H 	H 	0.94020 0.38810 0.84610 0.09200
C 	C 	0.93521 0.48570 0.77054 0.15100
C 	C 	0.92950 0.47680 0.71002 -0.11400
H 	H 	0.92710 0.54900 0.68690 0.06500
C 	C 	0.92746 0.35760 0.68510 -0.05100
H 	H 	0.92360 0.34940 0.64470 0.06200
C 	C 	0.90560 0.69830 0.78990 -0.31800
H 	H 	0.88100 0.70140 0.76330 0.14500
C 	C 	0.91940 0.79090 0.82710 0.27200
H 	H 	0.90510 0.86950 0.83040 -0.05600
C 	C 	0.96700 0.63550 0.84050 -0.00800
H 	H 	0.99180 0.58630 0.85360 0.01200
N 	N 	0.93530 0.59910 0.79950 -0.31400
N 	N 	0.95740 0.75260 0.85910 0.05100
N 	N 	0.40119 0.86670 0.50560 -0.12300
N 	N 	0.44273 0.92920 0.50463 -0.17000
N 	N 	0.45017 0.97910 0.55697 -0.16900
N 	N 	0.41465 0.95070 0.59358 -0.11500
N 	N 	0.04657 0.54810 0.45357 -0.10900
N 	N 	0.00370 0.57840 0.43089 -0.05800
N 	N 	0.98894 0.68350 0.45445 -0.06500
N 	N 	0.02111 0.72400 0.49405 -0.22100
O 	O 	0.21372 0.68410 0.63840 -0.29500
Cd	Cd	0.99629 0.85603 0.56900 1.18300
N 	N 	0.94120 0.12780 0.69880 -0.13700
N 	N 	0.96350 0.97170 0.64200 -0.19300
C 	C 	0.92780 0.01810 0.72480 0.00200
H 	H 	0.91160 0.01010 0.76000 0.01900
C 	C 	0.94230 0.92260 0.68990 0.05000
H 	H 	0.93830 0.83700 0.69760 -0.00600
C 	C 	0.95870 0.09780 0.64530 0.07000
H 	H 	0.96620 0.15510 0.61580 -0.00100
C 	C 	0.93210 0.73800 0.77190 0.24500
H 	H 	0.91440 0.75160 0.73830 -0.05200
C 	C 	0.94860 0.82750 0.80880 -0.34000
H 	H 	0.94470 0.91410 0.80400 0.13700
C 	C 	0.96710 0.64600 0.84590 -0.00900
H 	H 	0.97650 0.58410 0.87230 0.02200
N 	N 	0.94640 0.62350 0.79320 0.21000
N 	N 	0.97180 0.77150 0.85400 -0.25500
C 	C 	0.11471 0.11760 0.56040 0.14700
C 	C 	0.15977 0.16890 0.58060 -0.12500
C 	C 	0.18433 0.24980 0.54510 0.11000
H 	H 	0.17220 0.27260 0.50870 -0.00500
C 	C 	0.22693 0.29760 0.56300 -0.26000
H 	H 	0.24340 0.35220 0.53860 0.12600
C 	C 	0.24523 0.26460 0.61710 0.28000
C 	C 	0.22130 0.18140 0.65230 -0.25700
H 	H 	0.23380 0.15660 0.68820 0.13000
C 	C 	0.17890 0.13480 0.63410 0.11000
H 	H 	0.16270 0.07910 0.65830 -0.00600
C 	C 	0.32390 0.32780 0.59830 0.26800
C 	C 	0.34576 0.44290 0.59440 -0.24500
H 	H 	0.33450 0.51180 0.61540 0.13700
C 	C 	0.38468 0.45560 0.55891 0.10500
H 	H 	0.39990 0.53300 0.55610 0.00300
C 	C 	0.40109 0.35090 0.52717 -0.13500
C 	C 	0.37821 0.23590 0.53130 0.08600
H 	H 	0.38900 0.16650 0.51020 -0.00900
C 	C 	0.33893 0.22440 0.56710 -0.24700
H 	H 	0.32310 0.14780 0.56970 0.12400
C 	C 	0.44411 0.36060 0.49191 0.14000
C 	C 	0.54130 0.91150 0.64930 0.00900
H 	H 	0.51490 0.86670 0.63760 0.00400
C 	C 	0.59210 0.06000 0.66010 -0.07000
H 	H 	0.60800 0.13630 0.65600 0.03400
C 	C 	0.60420 0.96570 0.69720 -0.01800
H 	H 	0.62910 0.96610 0.72350 0.03300
N 	N 	0.55330 0.02610 0.62970 -0.05100
N 	N 	0.57340 0.87050 0.68880 0.01000
C 	C 	0.56894 0.74880 0.71937 0.07000
C 	C 	0.56422 0.73880 0.78022 -0.03900
H 	H 	0.56230 0.81100 0.80340 0.05400
C 	C 	0.56249 0.62010 0.80561 -0.11900
H 	H 	0.55980 0.61190 0.84610 0.09200
C 	C 	0.56479 0.51430 0.77054 0.15100
C 	C 	0.57050 0.52320 0.71002 -0.11400
H 	H 	0.57290 0.45100 0.68690 0.06500
C 	C 	0.57254 0.64240 0.68510 -0.05100
H 	H 	0.57640 0.65060 0.64470 0.06200
C 	C 	0.59440 0.30170 0.78990 -0.31800
H 	H 	0.61900 0.29860 0.76330 0.14500
C 	C 	0.58060 0.20910 0.82710 0.27300
H 	H 	0.59490 0.13050 0.83040 -0.05600
C 	C 	0.53300 0.36450 0.84050 -0.00800
H 	H 	0.50820 0.41370 0.85360 0.01200
N 	N 	0.56470 0.40090 0.79950 -0.31500
N 	N 	0.54260 0.24740 0.85910 0.05100
N 	N 	0.09881 0.13330 0.50560 -0.12300
N 	N 	0.05727 0.07080 0.50463 -0.17000
N 	N 	0.04983 0.02090 0.55697 -0.16900
N 	N 	0.08535 0.04930 0.59358 -0.11500
N 	N 	0.45343 0.45190 0.45357 -0.10900
N 	N 	0.49630 0.42160 0.43089 -0.05800
N 	N 	0.51106 0.31650 0.45445 -0.06500
N 	N 	0.47889 0.27600 0.49405 -0.22100
O 	O 	0.28628 0.31590 0.63840 -0.29500
Cd	Cd	0.50371 0.14397 0.56900 1.18300
N 	N 	0.55880 0.87220 0.69880 -0.13700
N 	N 	0.53650 0.02830 0.64200 -0.19300
C 	C 	0.57220 0.98190 0.72480 0.00200
H 	H 	0.58840 0.98990 0.76000 0.01900
C 	C 	0.55770 0.07740 0.68990 0.05000
H 	H 	0.56170 0.16300 0.69760 -0.00600
C 	C 	0.54130 0.90220 0.64530 0.07000
H 	H 	0.53380 0.84490 0.61580 -0.00100
C 	C 	0.56790 0.26200 0.77190 0.24500
H 	H 	0.58560 0.24840 0.73830 -0.05200
C 	C 	0.55140 0.17250 0.80880 -0.34100
H 	H 	0.55530 0.08590 0.80400 0.13700
C 	C 	0.53290 0.35400 0.84590 -0.00900
H 	H 	0.52350 0.41590 0.87230 0.02200
N 	N 	0.55360 0.37650 0.79320 0.21100
N 	N 	0.52820 0.22850 0.85400 -0.25500
C 	C 	0.61471 0.88240 0.93960 0.14700
C 	C 	0.65977 0.83110 0.91940 -0.12500
C 	C 	0.68433 0.75020 0.95490 0.11000
H 	H 	0.67220 0.72740 0.99130 -0.00500
C 	C 	0.72693 0.70240 0.93700 -0.26000
H 	H 	0.74340 0.64780 0.96140 0.12600
C 	C 	0.74523 0.73540 0.88290 0.28000
C 	C 	0.72130 0.81860 0.84770 -0.25700
H 	H 	0.73380 0.84340 0.81180 0.13000
C 	C 	0.67890 0.86520 0.86590 0.11000
H 	H 	0.66270 0.92090 0.84170 -0.00600
C 	C 	0.82390 0.67220 0.90170 0.26700
C 	C 	0.84576 0.55710 0.90560 -0.24500
H 	H 	0.83450 0.48820 0.88460 0.13700
C 	C 	0.88468 0.54440 0.94109 0.10400
H 	H 	0.89990 0.46700 0.94390 0.00300
C 	C 	0.90109 0.64910 0.97283 -0.13300
C 	C 	0.87821 0.76410 0.96870 0.08500
H 	H 	0.88900 0.83350 0.98980 -0.00800
C 	C 	0.83893 0.77560 0.93290 -0.24600
H 	H 	0.82310 0.85220 0.93030 0.12400
C 	C 	0.94411 0.63940 0.00809 0.13900
C 	C 	0.04130 0.08850 0.85070 0.00900
H 	H 	0.01490 0.13330 0.86240 0.00400
C 	C 	0.09210 0.94000 0.83990 -0.07000
H 	H 	0.10800 0.86370 0.84400 0.03400
C 	C 	0.10420 0.03430 0.80280 -0.01800
H 	H 	0.12910 0.03390 0.77650 0.03300
N 	N 	0.05330 0.97390 0.87030 -0.05100
N 	N 	0.07340 0.12950 0.81120 0.01000
C 	C 	0.06894 0.25120 0.78063 0.07000
C 	C 	0.06422 0.26120 0.71978 -0.03900
H 	H 	0.06230 0.18900 0.69660 0.05400
C 	C 	0.06249 0.37990 0.69439 -0.11900
H 	H 	0.05980 0.38810 0.65390 0.09200
C 	C 	0.06479 0.48570 0.72946 0.15100
C 	C 	0.07050 0.47680 0.78998 -0.11400
H 	H 	0.07290 0.54900 0.81310 0.06500
C 	C 	0.07254 0.35760 0.81490 -0.05100
H 	H 	0.07640 0.34940 0.85530 0.06200
C 	C 	0.09440 0.69830 0.71010 -0.31800
H 	H 	0.11900 0.70140 0.73670 0.14500
C 	C 	0.08060 0.79090 0.67290 0.27300
H 	H 	0.09490 0.86950 0.66960 -0.05600
C 	C 	0.03300 0.63550 0.65950 -0.00800
H 	H 	0.00820 0.58630 0.64640 0.01200
N 	N 	0.06470 0.59910 0.70050 -0.31500
N 	N 	0.04260 0.75260 0.64090 0.05100
N 	N 	0.59881 0.86670 0.99440 -0.12300
N 	N 	0.55727 0.92920 0.99537 -0.17000
N 	N 	0.54983 0.97910 0.94303 -0.16900
N 	N 	0.58535 0.95070 0.90642 -0.11500
N 	N 	0.95343 0.54810 0.04643 -0.10900
N 	N 	0.99630 0.57840 0.06911 -0.05900
N 	N 	0.01106 0.68350 0.04555 -0.06400
N 	N 	0.97889 0.72400 0.00595 -0.22200
O 	O 	0.78628 0.68410 0.86160 -0.29500
Cd	Cd	0.00371 0.85603 0.93100 1.18300
N 	N 	0.05880 0.12780 0.80120 -0.13700
N 	N 	0.03650 0.97170 0.85800 -0.19300
C 	C 	0.07220 0.01810 0.77520 0.00100
H 	H 	0.08840 0.01010 0.74000 0.01900
C 	C 	0.05770 0.92260 0.81010 0.05000
H 	H 	0.06170 0.83700 0.80240 -0.00600
C 	C 	0.04130 0.09780 0.85470 0.07000
H 	H 	0.03380 0.15510 0.88420 -0.00100
C 	C 	0.06790 0.73800 0.72810 0.24500
H 	H 	0.08560 0.75160 0.76170 -0.05200
C 	C 	0.05140 0.82750 0.69120 -0.34100
H 	H 	0.05530 0.91410 0.69600 0.13700
C 	C 	0.03290 0.64600 0.65410 -0.00900
H 	H 	0.02350 0.58410 0.62770 0.02200
N 	N 	0.05360 0.62350 0.70680 0.21100
N 	N 	0.02820 0.77150 0.64600 -0.25500
C 	C 	0.88529 0.11760 0.93960 0.14700
C 	C 	0.84023 0.16890 0.91940 -0.12500
C 	C 	0.81567 0.24980 0.95490 0.11000
H 	H 	0.82780 0.27260 0.99130 -0.00500
C 	C 	0.77307 0.29760 0.93700 -0.26000
H 	H 	0.75660 0.35220 0.96140 0.12600
C 	C 	0.75477 0.26460 0.88290 0.28000
C 	C 	0.77870 0.18140 0.84770 -0.25700
H 	H 	0.76620 0.15660 0.81180 0.13000
C 	C 	0.82110 0.13480 0.86590 0.11000
H 	H 	0.83730 0.07910 0.84170 -0.00600
C 	C 	0.67610 0.32780 0.90170 0.26700
C 	C 	0.65424 0.44290 0.90560 -0.24500
H 	H 	0.66550 0.51180 0.88460 0.13700
C 	C 	0.61532 0.45560 0.94109 0.10500
H 	H 	0.60010 0.53300 0.94390 0.00300
C 	C 	0.59891 0.35090 0.97283 -0.13400
C 	C 	0.62179 0.23590 0.96870 0.08600
H 	H 	0.61100 0.16650 0.98980 -0.00900
C 	C 	0.66107 0.22440 0.93290 -0.24700
H 	H 	0.67690 0.14780 0.93030 0.12400
C 	C 	0.55589 0.36060 0.00809 0.14000
C 	C 	0.45870 0.91150 0.85070 0.00900
H 	H 	0.48510 0.86670 0.86240 0.00400
C 	C 	0.40790 0.06000 0.83990 -0.07000
H 	H 	0.39200 0.13630 0.84400 0.03400
C 	C 	0.39580 0.96570 0.80280 -0.01800
H 	H 	0.37090 0.96610 0.77650 0.03300
N 	N 	0.44670 0.02610 0.87030 -0.05100
N 	N 	0.42660 0.87050 0.81120 0.01000
C 	C 	0.43106 0.74880 0.78063 0.07000
C 	C 	0.43578 0.73880 0.71978 -0.03900
H 	H 	0.43770 0.81100 0.69660 0.05400
C 	C 	0.43751 0.62010 0.69439 -0.11900
H 	H 	0.44020 0.61190 0.65390 0.09200
C 	C 	0.43521 0.51430 0.72946 0.15100
C 	C 	0.42950 0.52320 0.78998 -0.11400
H 	H 	0.42710 0.45100 0.81310 0.06500
C 	C 	0.42746 0.64240 0.81490 -0.05100
H 	H 	0.42360 0.65060 0.85530 0.06200
C 	C 	0.40560 0.30170 0.71010 -0.31800
H 	H 	0.38100 0.29860 0.73670 0.14500
C 	C 	0.41940 0.20910 0.67290 0.27300
H 	H 	0.40510 0.13050 0.66960 -0.05600
C 	C 	0.46700 0.36450 0.65950 -0.00800
H 	H 	0.49180 0.41370 0.64640 0.01200
N 	N 	0.43530 0.40090 0.70050 -0.31500
N 	N 	0.45740 0.24740 0.64090 0.05100
N 	N 	0.90119 0.13330 0.99440 -0.12300
N 	N 	0.94273 0.07080 0.99537 -0.17000
N 	N 	0.95017 0.02090 0.94303 -0.16900
N 	N 	0.91465 0.04930 0.90642 -0.11500
N 	N 	0.54657 0.45190 0.04643 -0.10900
N 	N 	0.50370 0.42160 0.06911 -0.05800
N 	N 	0.48894 0.31650 0.04555 -0.06500
N 	N 	0.52111 0.27600 0.00595 -0.22100
O 	O 	0.71372 0.31590 0.86160 -0.29500
Cd	Cd	0.49629 0.14397 0.93100 1.18300
N 	N 	0.44120 0.87220 0.80120 -0.13700
N 	N 	0.46350 0.02830 0.85800 -0.19300
C 	C 	0.42780 0.98190 0.77520 0.00200
H 	H 	0.41160 0.98990 0.74000 0.01900
C 	C 	0.44230 0.07740 0.81010 0.05000
H 	H 	0.43830 0.16300 0.80240 -0.00600
C 	C 	0.45870 0.90220 0.85470 0.07000
H 	H 	0.46620 0.84490 0.88420 -0.00100
C 	C 	0.43210 0.26200 0.72810 0.24500
H 	H 	0.41440 0.24840 0.76170 -0.05200
C 	C 	0.44860 0.17250 0.69120 -0.34100
H 	H 	0.44470 0.08590 0.69600 0.13700
C 	C 	0.46710 0.35400 0.65410 -0.00900
H 	H 	0.47650 0.41590 0.62770 0.02200
N 	N 	0.44640 0.37650 0.70680 0.21100
N 	N 	0.47180 0.22850 0.64600 -0.25500
