data_crystal

_cell_length_a 35.17630
_cell_length_b 14.96710
_cell_length_c 30.23490
_cell_angle_alpha 90.00000
_cell_angle_beta  100.75900
_cell_angle_gamma 90.00000

_symmetry_space_group_name_	'P 1'
_symmetry_space_group_name_H-M	'P 1'

loop_
_symmetry_equiv_pos_as_xyz
  x,y,z

loop_
_atom_site_label
_atom_site_type_symbol
_atom_site_fract_x
_atom_site_fract_y
_atom_site_fract_z
_atom_site_charge
I 	I 	0.61563 0.23668 0.55840 -0.37400
I 	I 	0.52080 0.15676 0.63481 -0.35600
I 	I 	0.34910 0.42139 0.51575 -0.22700
I 	I 	0.38946 0.27447 0.39862 -0.37200
Zn	Zn	0.57858 0.12670 0.59799 1.16500
Zn	Zn	0.37082 0.41258 0.43919 1.16300
N 	N 	0.68633 0.48680 0.78146 -0.27300
N 	N 	0.56553 0.01760 0.55453 -0.27000
N 	N 	0.73172 0.80420 0.81111 -0.13800
N 	N 	0.67848 0.81470 0.75012 -0.13100
N 	N 	0.53650 0.65080 0.41401 -0.13200
N 	N 	0.71792 0.94140 0.77183 -0.14100
N 	N 	0.57440 0.77520 0.44434 -0.13600
N 	N 	0.61714 0.05420 0.64483 -0.27000
N 	N 	0.52063 0.72990 0.47620 -0.14400
C 	C 	0.69617 0.67120 0.78313 0.06700
C 	C 	0.55574 0.86480 0.50255 0.06500
C 	C 	0.65343 0.71850 0.36109 0.07900
H 	H 	0.67790 0.74450 0.36660 -0.01400
C 	C 	0.66375 0.95280 0.71011 0.06800
C 	C 	0.70244 0.76910 0.78190 0.09900
C 	C 	0.68814 0.89970 0.74616 0.10000
C 	C 	0.56655 0.70630 0.41601 0.10000
C 	C 	0.55017 0.78440 0.47305 0.08600
C 	C 	0.62877 0.73390 0.39066 -0.12800
H 	H 	0.63620 0.77160 0.41520 0.08800
C 	C 	0.65327 0.08010 0.66160 0.07800
H 	H 	0.66260 0.13240 0.65080 -0.00900
C 	C 	0.51478 0.66550 0.44525 0.08600
C 	C 	0.59284 0.69290 0.38367 0.07200
C 	C 	0.77791 0.02470 0.82939 -0.13500
H 	H 	0.76400 0.05610 0.80510 0.09300
C 	C 	0.58882 0.91610 0.50537 -0.13100
H 	H 	0.60810 0.89960 0.48980 0.08600
C 	C 	0.43570 0.53350 0.48156 0.08400
H 	H 	0.42740 0.51920 0.50810 -0.01200
C 	C 	0.66785 0.63100 0.75112 -0.13500
H 	H 	0.65160 0.66540 0.73000 0.09300
C 	C 	0.52784 0.89030 0.52702 -0.13400
H 	H 	0.50560 0.85640 0.52640 0.08100
N 	N 	0.41623 0.50050 0.44281 -0.27700
N 	N 	0.82795 0.02380 0.89435 -0.27500
C 	C 	0.48053 0.60800 0.44436 0.06000
C 	C 	0.46029 0.57500 0.40396 -0.13800
H 	H 	0.46820 0.58810 0.37700 0.09100
C 	C 	0.53412 0.96760 0.55243 0.08300
H 	H 	0.51550 0.98520 0.56880 -0.01300
C 	C 	0.58232 0.63870 0.34584 -0.13100
H 	H 	0.55840 0.61020 0.34010 0.09100
C 	C 	0.80769 0.06560 0.85871 0.07600
H 	H 	0.81380 0.12460 0.85330 -0.00400
C 	C 	0.62675 0.92460 0.69217 -0.13000
H 	H 	0.61720 0.87090 0.70120 0.09500
C 	C 	0.42820 0.52230 0.40453 0.08100
H 	H 	0.41430 0.50100 0.37740 -0.01800
C 	C 	0.60813 0.62830 0.31732 0.08200
H 	H 	0.60110 0.59300 0.29180 -0.02100
C 	C 	0.71880 0.61660 0.81519 -0.13700
H 	H 	0.73750 0.64140 0.83770 0.08700
C 	C 	0.73793 0.89090 0.80476 0.08500
C 	C 	0.71310 0.52640 0.81300 0.07900
H 	H 	0.72850 0.49060 0.83430 -0.01400
C 	C 	0.78995 0.89320 0.87387 -0.12600
H 	H 	0.78450 0.83410 0.87980 0.09000
C 	C 	0.81897 0.93910 0.90213 0.07600
H 	H 	0.83270 0.91000 0.92730 -0.00400
C 	C 	0.60421 0.97850 0.66037 0.08300
H 	H 	0.57880 0.96120 0.64930 -0.01400
C 	C 	0.59276 0.99180 0.53148 0.07700
H 	H 	0.61500 0.02620 0.53330 -0.01700
C 	C 	0.67736 0.03170 0.69464 -0.13600
H 	H 	0.70220 0.05170 0.70620 0.08400
C 	C 	0.46760 0.58760 0.48374 -0.13600
H 	H 	0.48030 0.61020 0.51120 0.08600
C 	C 	0.66431 0.53970 0.75116 0.07500
H 	H 	0.64580 0.51320 0.72910 -0.01500
Zn	Zn	0.67877 0.34943 0.77818 1.16300
I 	I 	0.74355 0.27619 0.81089 -0.39600
I 	I 	0.63870 0.31640 0.70079 -0.40800
N 	N 	0.64309 0.66710 0.32470 -0.27600
C 	C 	0.76910 0.93660 0.83661 0.05600
I 	I 	0.35060 0.41190 0.51150 -0.10700
I 	I 	0.73280 0.26350 0.79550 0.01900
I 	I 	0.11563 0.73668 0.55840 -0.37500
I 	I 	0.02080 0.65676 0.63481 -0.35700
I 	I 	0.84910 0.92139 0.51575 -0.22800
I 	I 	0.88946 0.77447 0.39862 -0.37300
Zn	Zn	0.07858 0.62670 0.59799 1.16400
Zn	Zn	0.87082 0.91258 0.43919 1.16200
N 	N 	0.18633 0.98680 0.78146 -0.27300
N 	N 	0.06553 0.51760 0.55453 -0.27100
N 	N 	0.23172 0.30420 0.81111 -0.13900
N 	N 	0.17848 0.31470 0.75012 -0.13200
N 	N 	0.03650 0.15080 0.41401 -0.13300
N 	N 	0.21792 0.44140 0.77183 -0.14200
N 	N 	0.07440 0.27520 0.44434 -0.13700
N 	N 	0.11714 0.55420 0.64483 -0.27100
N 	N 	0.02063 0.22990 0.47620 -0.14500
C 	C 	0.19617 0.17120 0.78313 0.06600
C 	C 	0.05574 0.36480 0.50255 0.06300
C 	C 	0.15343 0.21850 0.36109 0.07800
H 	H 	0.17790 0.24450 0.36660 -0.01400
C 	C 	0.16375 0.45280 0.71011 0.06800
C 	C 	0.20244 0.26910 0.78190 0.09900
C 	C 	0.18814 0.39970 0.74616 0.10000
C 	C 	0.06655 0.20630 0.41601 0.10000
C 	C 	0.05017 0.28440 0.47305 0.08600
C 	C 	0.12877 0.23390 0.39066 -0.12800
H 	H 	0.13620 0.27160 0.41520 0.08800
C 	C 	0.15327 0.58010 0.66160 0.07700
H 	H 	0.16260 0.63240 0.65080 -0.00900
C 	C 	0.01478 0.16550 0.44525 0.08600
C 	C 	0.09284 0.19290 0.38367 0.07200
C 	C 	0.27791 0.52470 0.82939 -0.13400
H 	H 	0.26400 0.55610 0.80510 0.09300
C 	C 	0.08882 0.41610 0.50537 -0.13100
H 	H 	0.10810 0.39960 0.48980 0.08600
C 	C 	0.93570 0.03350 0.48156 0.08400
H 	H 	0.92740 0.01920 0.50810 -0.01200
C 	C 	0.16785 0.13100 0.75112 -0.13400
H 	H 	0.15160 0.16540 0.73000 0.09300
C 	C 	0.02784 0.39030 0.52702 -0.13400
H 	H 	0.00560 0.35640 0.52640 0.08100
N 	N 	0.91623 0.00050 0.44281 -0.27700
N 	N 	0.32795 0.52380 0.89435 -0.27400
C 	C 	0.98053 0.10800 0.44436 0.06000
C 	C 	0.96029 0.07500 0.40396 -0.13800
H 	H 	0.96820 0.08810 0.37700 0.09100
C 	C 	0.03412 0.46760 0.55243 0.08300
H 	H 	0.01550 0.48520 0.56880 -0.01300
C 	C 	0.08232 0.13870 0.34584 -0.13100
H 	H 	0.05840 0.11020 0.34010 0.09000
C 	C 	0.30769 0.56560 0.85871 0.07500
H 	H 	0.31380 0.62460 0.85330 -0.00400
C 	C 	0.12675 0.42460 0.69217 -0.12900
H 	H 	0.11720 0.37090 0.70120 0.09500
C 	C 	0.92820 0.02230 0.40453 0.08100
H 	H 	0.91430 0.00100 0.37740 -0.01800
C 	C 	0.10813 0.12830 0.31732 0.08200
H 	H 	0.10110 0.09300 0.29180 -0.02100
C 	C 	0.21880 0.11660 0.81519 -0.13600
H 	H 	0.23750 0.14140 0.83770 0.08600
C 	C 	0.23793 0.39090 0.80476 0.08500
C 	C 	0.21310 0.02640 0.81300 0.07700
H 	H 	0.22850 0.99060 0.83430 -0.01400
C 	C 	0.28995 0.39320 0.87387 -0.12500
H 	H 	0.28450 0.33410 0.87980 0.09000
C 	C 	0.31897 0.43910 0.90213 0.07500
H 	H 	0.33270 0.41000 0.92730 -0.00300
C 	C 	0.10421 0.47850 0.66037 0.08200
H 	H 	0.07880 0.46120 0.64930 -0.01400
C 	C 	0.09276 0.49180 0.53148 0.07600
H 	H 	0.11500 0.52620 0.53330 -0.01700
C 	C 	0.17736 0.53170 0.69464 -0.13500
H 	H 	0.20220 0.55170 0.70620 0.08400
C 	C 	0.96760 0.08760 0.48374 -0.13600
H 	H 	0.98030 0.11020 0.51120 0.08600
C 	C 	0.16431 0.03970 0.75116 0.07400
H 	H 	0.14580 0.01320 0.72910 -0.01500
Zn	Zn	0.17877 0.84943 0.77818 1.16300
I 	I 	0.24355 0.77619 0.81089 -0.39600
I 	I 	0.13870 0.81640 0.70079 -0.40800
N 	N 	0.14309 0.16710 0.32470 -0.27600
C 	C 	0.26910 0.43660 0.83661 0.05500
I 	I 	0.85060 0.91190 0.51150 -0.10700
I 	I 	0.23280 0.76350 0.79550 0.01900
I 	I 	0.61563 0.76332 0.05840 -0.37500
I 	I 	0.52080 0.84324 0.13481 -0.35700
I 	I 	0.34910 0.57861 0.01575 -0.22800
I 	I 	0.38946 0.72553 0.89862 -0.37300
Zn	Zn	0.57858 0.87330 0.09799 1.16400
Zn	Zn	0.37082 0.58742 0.93919 1.16200
N 	N 	0.68633 0.51320 0.28146 -0.27400
N 	N 	0.56553 0.98240 0.05453 -0.27200
N 	N 	0.73172 0.19580 0.31111 -0.13900
N 	N 	0.67848 0.18530 0.25012 -0.13200
N 	N 	0.53650 0.34920 0.91401 -0.13300
N 	N 	0.71792 0.05860 0.27183 -0.14200
N 	N 	0.57440 0.22480 0.94434 -0.13700
N 	N 	0.61714 0.94580 0.14483 -0.27100
N 	N 	0.52063 0.27010 0.97620 -0.14500
C 	C 	0.69617 0.32880 0.28313 0.06600
C 	C 	0.55574 0.13520 0.00255 0.06400
C 	C 	0.65343 0.28150 0.86109 0.07800
H 	H 	0.67790 0.25550 0.86660 -0.01400
C 	C 	0.66375 0.04720 0.21011 0.06900
C 	C 	0.70244 0.23090 0.28190 0.09900
C 	C 	0.68814 0.10030 0.24616 0.10000
C 	C 	0.56655 0.29370 0.91601 0.10000
C 	C 	0.55017 0.21560 0.97305 0.08600
C 	C 	0.62877 0.26610 0.89066 -0.12800
H 	H 	0.63620 0.22840 0.91520 0.08800
C 	C 	0.65327 0.91990 0.16160 0.07800
H 	H 	0.66260 0.86760 0.15080 -0.00900
C 	C 	0.51478 0.33450 0.94525 0.08600
C 	C 	0.59284 0.30710 0.88367 0.07200
C 	C 	0.77791 0.97530 0.32939 -0.13500
H 	H 	0.76400 0.94390 0.30510 0.09300
C 	C 	0.58882 0.08390 0.00537 -0.13100
H 	H 	0.60810 0.10040 0.98980 0.08500
C 	C 	0.43570 0.46650 0.98156 0.08400
H 	H 	0.42740 0.48080 0.00810 -0.01200
C 	C 	0.66785 0.36900 0.25112 -0.13500
H 	H 	0.65160 0.33460 0.23000 0.09300
C 	C 	0.52784 0.10970 0.02702 -0.13500
H 	H 	0.50560 0.14360 0.02640 0.08100
N 	N 	0.41623 0.49950 0.94281 -0.27700
N 	N 	0.82795 0.97620 0.39435 -0.27500
C 	C 	0.48053 0.39200 0.94436 0.06100
C 	C 	0.46029 0.42500 0.90396 -0.13900
H 	H 	0.46820 0.41190 0.87700 0.09100
C 	C 	0.53412 0.03240 0.05243 0.08400
H 	H 	0.51550 0.01480 0.06880 -0.01300
C 	C 	0.58232 0.36130 0.84584 -0.13100
H 	H 	0.55840 0.38980 0.84010 0.09100
C 	C 	0.80769 0.93440 0.35871 0.07500
H 	H 	0.81380 0.87540 0.35330 -0.00400
C 	C 	0.62675 0.07540 0.19217 -0.13000
H 	H 	0.61720 0.12910 0.20120 0.09600
C 	C 	0.42820 0.47770 0.90453 0.08100
H 	H 	0.41430 0.49900 0.87740 -0.01800
C 	C 	0.60813 0.37170 0.81732 0.08200
H 	H 	0.60110 0.40700 0.79180 -0.02100
C 	C 	0.71880 0.38340 0.31519 -0.13700
H 	H 	0.73750 0.35860 0.33770 0.08700
C 	C 	0.73793 0.10910 0.30476 0.08500
C 	C 	0.71310 0.47360 0.31300 0.07900
H 	H 	0.72850 0.50940 0.33430 -0.01400
C 	C 	0.78995 0.10680 0.37387 -0.12600
H 	H 	0.78450 0.16590 0.37980 0.09000
C 	C 	0.81897 0.06090 0.40213 0.07500
H 	H 	0.83270 0.09000 0.42730 -0.00400
C 	C 	0.60421 0.02150 0.16037 0.08300
H 	H 	0.57880 0.03880 0.14930 -0.01400
C 	C 	0.59276 0.00820 0.03148 0.07800
H 	H 	0.61500 0.97380 0.03330 -0.01700
C 	C 	0.67736 0.96830 0.19464 -0.13600
H 	H 	0.70220 0.94830 0.20620 0.08400
C 	C 	0.46760 0.41240 0.98374 -0.13700
H 	H 	0.48030 0.38980 0.01120 0.08700
C 	C 	0.66431 0.46030 0.25116 0.07500
H 	H 	0.64580 0.48680 0.22910 -0.01500
Zn	Zn	0.67877 0.65057 0.27818 1.16300
I 	I 	0.74355 0.72381 0.31089 -0.39600
I 	I 	0.63870 0.68360 0.20079 -0.40800
N 	N 	0.64309 0.33290 0.82470 -0.27600
C 	C 	0.76910 0.06340 0.33661 0.05600
I 	I 	0.35060 0.58810 0.01150 -0.10700
I 	I 	0.73280 0.73650 0.29550 0.01900
I 	I 	0.11563 0.26332 0.05840 -0.37500
I 	I 	0.02080 0.34324 0.13481 -0.35700
I 	I 	0.84910 0.07861 0.01575 -0.22800
I 	I 	0.88946 0.22553 0.89862 -0.37300
Zn	Zn	0.07858 0.37330 0.09799 1.16400
Zn	Zn	0.87082 0.08742 0.93919 1.16200
N 	N 	0.18633 0.01320 0.28146 -0.27400
N 	N 	0.06553 0.48240 0.05453 -0.27100
N 	N 	0.23172 0.69580 0.31111 -0.13900
N 	N 	0.17848 0.68530 0.25012 -0.13200
N 	N 	0.03650 0.84920 0.91401 -0.13300
N 	N 	0.21792 0.55860 0.27183 -0.14200
N 	N 	0.07440 0.72480 0.94434 -0.13700
N 	N 	0.11714 0.44580 0.14483 -0.27100
N 	N 	0.02063 0.77010 0.97620 -0.14500
C 	C 	0.19617 0.82880 0.28313 0.06600
C 	C 	0.05574 0.63520 0.00255 0.06300
C 	C 	0.15343 0.78150 0.86109 0.07800
H 	H 	0.17790 0.75550 0.86660 -0.01400
C 	C 	0.16375 0.54720 0.21011 0.06800
C 	C 	0.20244 0.73090 0.28190 0.09900
C 	C 	0.18814 0.60030 0.24616 0.10000
C 	C 	0.06655 0.79370 0.91601 0.10000
C 	C 	0.05017 0.71560 0.97305 0.08600
C 	C 	0.12877 0.76610 0.89066 -0.12800
H 	H 	0.13620 0.72840 0.91520 0.08800
C 	C 	0.15327 0.41990 0.16160 0.07700
H 	H 	0.16260 0.36760 0.15080 -0.00900
C 	C 	0.01478 0.83450 0.94525 0.08600
C 	C 	0.09284 0.80710 0.88367 0.07200
C 	C 	0.27791 0.47530 0.32939 -0.13400
H 	H 	0.26400 0.44390 0.30510 0.09300
C 	C 	0.08882 0.58390 0.00537 -0.13100
H 	H 	0.10810 0.60040 0.98980 0.08600
C 	C 	0.93570 0.96650 0.98156 0.08500
H 	H 	0.92740 0.98080 0.00810 -0.01300
C 	C 	0.16785 0.86900 0.25112 -0.13400
H 	H 	0.15160 0.83460 0.23000 0.09300
C 	C 	0.02784 0.60970 0.02702 -0.13400
H 	H 	0.00560 0.64360 0.02640 0.08100
N 	N 	0.91623 0.99950 0.94281 -0.27700
N 	N 	0.32795 0.47620 0.39435 -0.27400
C 	C 	0.98053 0.89200 0.94436 0.06000
C 	C 	0.96029 0.92500 0.90396 -0.13800
H 	H 	0.96820 0.91190 0.87700 0.09100
C 	C 	0.03412 0.53240 0.05243 0.08300
H 	H 	0.01550 0.51480 0.06880 -0.01300
C 	C 	0.08232 0.86130 0.84584 -0.13100
H 	H 	0.05840 0.88980 0.84010 0.09100
C 	C 	0.30769 0.43440 0.35871 0.07500
H 	H 	0.31380 0.37540 0.35330 -0.00400
C 	C 	0.12675 0.57540 0.19217 -0.12900
H 	H 	0.11720 0.62910 0.20120 0.09500
C 	C 	0.92820 0.97770 0.90453 0.08100
H 	H 	0.91430 0.99900 0.87740 -0.01700
C 	C 	0.10813 0.87170 0.81732 0.08200
H 	H 	0.10110 0.90700 0.79180 -0.02100
C 	C 	0.21880 0.88340 0.31519 -0.13700
H 	H 	0.23750 0.85860 0.33770 0.08600
C 	C 	0.23793 0.60910 0.30476 0.08500
C 	C 	0.21310 0.97360 0.31300 0.07800
H 	H 	0.22850 0.00940 0.33430 -0.01400
C 	C 	0.28995 0.60680 0.37387 -0.12500
H 	H 	0.28450 0.66590 0.37980 0.09000
C 	C 	0.31897 0.56090 0.40213 0.07500
H 	H 	0.33270 0.59000 0.42730 -0.00300
C 	C 	0.10421 0.52150 0.16037 0.08200
H 	H 	0.07880 0.53880 0.14930 -0.01400
C 	C 	0.09276 0.50820 0.03148 0.07600
H 	H 	0.11500 0.47380 0.03330 -0.01700
C 	C 	0.17736 0.46830 0.19464 -0.13500
H 	H 	0.20220 0.44830 0.20620 0.08400
C 	C 	0.96760 0.91240 0.98374 -0.13600
H 	H 	0.98030 0.88980 0.01120 0.08600
C 	C 	0.16431 0.96030 0.25116 0.07400
H 	H 	0.14580 0.98680 0.22910 -0.01500
Zn	Zn	0.17877 0.15057 0.27818 1.16300
I 	I 	0.24355 0.22381 0.31089 -0.39600
I 	I 	0.13870 0.18360 0.20079 -0.40700
N 	N 	0.14309 0.83290 0.82470 -0.27600
C 	C 	0.26910 0.56340 0.33661 0.05500
I 	I 	0.85060 0.08810 0.01150 -0.10700
I 	I 	0.23280 0.23650 0.29550 0.01900
I 	I 	0.38437 0.23668 0.94160 -0.37500
I 	I 	0.47920 0.15676 0.86519 -0.35700
I 	I 	0.65090 0.42139 0.98425 -0.22800
I 	I 	0.61054 0.27447 0.10138 -0.37300
Zn	Zn	0.42142 0.12670 0.90201 1.16400
Zn	Zn	0.62918 0.41258 0.06081 1.16200
N 	N 	0.31367 0.48680 0.71854 -0.27400
N 	N 	0.43447 0.01760 0.94547 -0.27200
N 	N 	0.26828 0.80420 0.68889 -0.13900
N 	N 	0.32152 0.81470 0.74988 -0.13200
N 	N 	0.46350 0.65080 0.08599 -0.13300
N 	N 	0.28208 0.94140 0.72817 -0.14200
N 	N 	0.42560 0.77520 0.05566 -0.13700
N 	N 	0.38286 0.05420 0.85517 -0.27100
N 	N 	0.47937 0.72990 0.02380 -0.14500
C 	C 	0.30383 0.67120 0.71687 0.06600
C 	C 	0.44426 0.86480 0.99745 0.06400
C 	C 	0.34657 0.71850 0.13891 0.07800
H 	H 	0.32210 0.74450 0.13340 -0.01400
C 	C 	0.33625 0.95280 0.78989 0.06900
C 	C 	0.29756 0.76910 0.71810 0.09900
C 	C 	0.31186 0.89970 0.75384 0.10000
C 	C 	0.43345 0.70630 0.08399 0.10000
C 	C 	0.44983 0.78440 0.02695 0.08600
C 	C 	0.37123 0.73390 0.10934 -0.12800
H 	H 	0.36380 0.77160 0.08480 0.08800
C 	C 	0.34673 0.08010 0.83840 0.07800
H 	H 	0.33740 0.13240 0.84920 -0.00900
C 	C 	0.48522 0.66550 0.05475 0.08600
C 	C 	0.40716 0.69290 0.11633 0.07200
C 	C 	0.22209 0.02470 0.67061 -0.13500
H 	H 	0.23600 0.05610 0.69490 0.09300
C 	C 	0.41118 0.91610 0.99463 -0.13100
H 	H 	0.39190 0.89960 0.01020 0.08500
C 	C 	0.56430 0.53350 0.01844 0.08400
H 	H 	0.57260 0.51920 0.99190 -0.01200
C 	C 	0.33215 0.63100 0.74888 -0.13500
H 	H 	0.34840 0.66540 0.77000 0.09300
C 	C 	0.47216 0.89030 0.97298 -0.13500
H 	H 	0.49440 0.85640 0.97360 0.08100
N 	N 	0.58377 0.50050 0.05719 -0.27700
N 	N 	0.17205 0.02380 0.60565 -0.27500
C 	C 	0.51947 0.60800 0.05564 0.06100
C 	C 	0.53971 0.57500 0.09604 -0.13900
H 	H 	0.53180 0.58810 0.12300 0.09100
C 	C 	0.46588 0.96760 0.94757 0.08400
H 	H 	0.48450 0.98520 0.93120 -0.01300
C 	C 	0.41768 0.63870 0.15416 -0.13100
H 	H 	0.44160 0.61020 0.15990 0.09100
C 	C 	0.19231 0.06560 0.64129 0.07500
H 	H 	0.18620 0.12460 0.64670 -0.00400
C 	C 	0.37325 0.92460 0.80783 -0.13000
H 	H 	0.38280 0.87090 0.79880 0.09600
C 	C 	0.57180 0.52230 0.09547 0.08100
H 	H 	0.58570 0.50100 0.12260 -0.01800
C 	C 	0.39187 0.62830 0.18268 0.08200
H 	H 	0.39890 0.59300 0.20820 -0.02100
C 	C 	0.28120 0.61660 0.68481 -0.13700
H 	H 	0.26250 0.64140 0.66230 0.08700
C 	C 	0.26207 0.89090 0.69524 0.08500
C 	C 	0.28690 0.52640 0.68700 0.07900
H 	H 	0.27150 0.49060 0.66570 -0.01400
C 	C 	0.21005 0.89320 0.62613 -0.12600
H 	H 	0.21550 0.83410 0.62020 0.09000
C 	C 	0.18103 0.93910 0.59787 0.07500
H 	H 	0.16730 0.91000 0.57270 -0.00400
C 	C 	0.39579 0.97850 0.83963 0.08300
H 	H 	0.42120 0.96120 0.85070 -0.01400
C 	C 	0.40724 0.99180 0.96852 0.07800
H 	H 	0.38500 0.02620 0.96670 -0.01700
C 	C 	0.32264 0.03170 0.80536 -0.13600
H 	H 	0.29780 0.05170 0.79380 0.08400
C 	C 	0.53240 0.58760 0.01626 -0.13700
H 	H 	0.51970 0.61020 0.98880 0.08700
C 	C 	0.33569 0.53970 0.74884 0.07500
H 	H 	0.35420 0.51320 0.77090 -0.01500
Zn	Zn	0.32123 0.34943 0.72182 1.16300
I 	I 	0.25645 0.27619 0.68911 -0.39600
I 	I 	0.36130 0.31640 0.79921 -0.40800
N 	N 	0.35691 0.66710 0.17530 -0.27600
C 	C 	0.23090 0.93660 0.66339 0.05600
I 	I 	0.64940 0.41190 0.98850 -0.10700
I 	I 	0.26720 0.26350 0.70450 0.01900
I 	I 	0.88437 0.73668 0.94160 -0.37500
I 	I 	0.97920 0.65676 0.86519 -0.35700
I 	I 	0.15090 0.92139 0.98425 -0.22800
I 	I 	0.11054 0.77447 0.10138 -0.37300
Zn	Zn	0.92142 0.62670 0.90201 1.16400
Zn	Zn	0.12918 0.91258 0.06081 1.16200
N 	N 	0.81367 0.98680 0.71854 -0.27400
N 	N 	0.93447 0.51760 0.94547 -0.27100
N 	N 	0.76828 0.30420 0.68889 -0.13900
N 	N 	0.82152 0.31470 0.74988 -0.13200
N 	N 	0.96350 0.15080 0.08599 -0.13300
N 	N 	0.78208 0.44140 0.72817 -0.14200
N 	N 	0.92560 0.27520 0.05566 -0.13700
N 	N 	0.88286 0.55420 0.85517 -0.27100
N 	N 	0.97937 0.22990 0.02380 -0.14500
C 	C 	0.80383 0.17120 0.71687 0.06600
C 	C 	0.94426 0.36480 0.99745 0.06300
C 	C 	0.84657 0.21850 0.13891 0.07800
H 	H 	0.82210 0.24450 0.13340 -0.01400
C 	C 	0.83625 0.45280 0.78989 0.06800
C 	C 	0.79756 0.26910 0.71810 0.09900
C 	C 	0.81186 0.39970 0.75384 0.10000
C 	C 	0.93345 0.20630 0.08399 0.10000
C 	C 	0.94983 0.28440 0.02695 0.08600
C 	C 	0.87123 0.23390 0.10934 -0.12800
H 	H 	0.86380 0.27160 0.08480 0.08800
C 	C 	0.84673 0.58010 0.83840 0.07700
H 	H 	0.83740 0.63240 0.84920 -0.00900
C 	C 	0.98522 0.16550 0.05475 0.08600
C 	C 	0.90716 0.19290 0.11633 0.07200
C 	C 	0.72209 0.52470 0.67061 -0.13400
H 	H 	0.73600 0.55610 0.69490 0.09300
C 	C 	0.91118 0.41610 0.99463 -0.13100
H 	H 	0.89190 0.39960 0.01020 0.08600
C 	C 	0.06430 0.03350 0.01844 0.08500
H 	H 	0.07260 0.01920 0.99190 -0.01300
C 	C 	0.83215 0.13100 0.74888 -0.13400
H 	H 	0.84840 0.16540 0.77000 0.09300
C 	C 	0.97216 0.39030 0.97298 -0.13400
H 	H 	0.99440 0.35640 0.97360 0.08100
N 	N 	0.08377 0.00050 0.05719 -0.27700
N 	N 	0.67205 0.52380 0.60565 -0.27400
C 	C 	0.01947 0.10800 0.05564 0.06000
C 	C 	0.03971 0.07500 0.09604 -0.13800
H 	H 	0.03180 0.08810 0.12300 0.09100
C 	C 	0.96588 0.46760 0.94757 0.08300
H 	H 	0.98450 0.48520 0.93120 -0.01300
C 	C 	0.91768 0.13870 0.15416 -0.13100
H 	H 	0.94160 0.11020 0.15990 0.09100
C 	C 	0.69231 0.56560 0.64129 0.07500
H 	H 	0.68620 0.62460 0.64670 -0.00400
C 	C 	0.87325 0.42460 0.80783 -0.12900
H 	H 	0.88280 0.37090 0.79880 0.09500
C 	C 	0.07180 0.02230 0.09547 0.08100
H 	H 	0.08570 0.00100 0.12260 -0.01700
C 	C 	0.89187 0.12830 0.18268 0.08200
H 	H 	0.89890 0.09300 0.20820 -0.02100
C 	C 	0.78120 0.11660 0.68481 -0.13700
H 	H 	0.76250 0.14140 0.66230 0.08600
C 	C 	0.76207 0.39090 0.69524 0.08500
C 	C 	0.78690 0.02640 0.68700 0.07800
H 	H 	0.77150 0.99060 0.66570 -0.01400
C 	C 	0.71005 0.39320 0.62613 -0.12500
H 	H 	0.71550 0.33410 0.62020 0.09000
C 	C 	0.68103 0.43910 0.59787 0.07500
H 	H 	0.66730 0.41000 0.57270 -0.00300
C 	C 	0.89579 0.47850 0.83963 0.08200
H 	H 	0.92120 0.46120 0.85070 -0.01400
C 	C 	0.90724 0.49180 0.96852 0.07600
H 	H 	0.88500 0.52620 0.96670 -0.01700
C 	C 	0.82264 0.53170 0.80536 -0.13500
H 	H 	0.79780 0.55170 0.79380 0.08400
C 	C 	0.03240 0.08760 0.01626 -0.13600
H 	H 	0.01970 0.11020 0.98880 0.08600
C 	C 	0.83569 0.03970 0.74884 0.07400
H 	H 	0.85420 0.01320 0.77090 -0.01500
Zn	Zn	0.82123 0.84943 0.72182 1.16300
I 	I 	0.75645 0.77619 0.68911 -0.39600
I 	I 	0.86130 0.81640 0.79921 -0.40700
N 	N 	0.85691 0.16710 0.17530 -0.27600
C 	C 	0.73090 0.43660 0.66339 0.05500
I 	I 	0.14940 0.91190 0.98850 -0.10700
I 	I 	0.76720 0.76350 0.70450 0.01900
I 	I 	0.38437 0.76332 0.44160 -0.37500
I 	I 	0.47920 0.84324 0.36519 -0.35700
I 	I 	0.65090 0.57861 0.48425 -0.22800
I 	I 	0.61054 0.72553 0.60138 -0.37300
Zn	Zn	0.42142 0.87330 0.40201 1.16400
Zn	Zn	0.62918 0.58742 0.56081 1.16200
N 	N 	0.31367 0.51320 0.21854 -0.27400
N 	N 	0.43447 0.98240 0.44547 -0.27100
N 	N 	0.26828 0.19580 0.18889 -0.13900
N 	N 	0.32152 0.18530 0.24988 -0.13200
N 	N 	0.46350 0.34920 0.58599 -0.13300
N 	N 	0.28208 0.05860 0.22817 -0.14200
N 	N 	0.42560 0.22480 0.55566 -0.13700
N 	N 	0.38286 0.94580 0.35517 -0.27100
N 	N 	0.47937 0.27010 0.52380 -0.14500
C 	C 	0.30383 0.32880 0.21687 0.06600
C 	C 	0.44426 0.13520 0.49745 0.06400
C 	C 	0.34657 0.28150 0.63891 0.07800
H 	H 	0.32210 0.25550 0.63340 -0.01400
C 	C 	0.33625 0.04720 0.28989 0.06800
C 	C 	0.29756 0.23090 0.21810 0.09900
C 	C 	0.31186 0.10030 0.25384 0.10000
C 	C 	0.43345 0.29370 0.58399 0.10000
C 	C 	0.44983 0.21560 0.52695 0.08600
C 	C 	0.37123 0.26610 0.60934 -0.12800
H 	H 	0.36380 0.22840 0.58480 0.08800
C 	C 	0.34673 0.91990 0.33840 0.07800
H 	H 	0.33740 0.86760 0.34920 -0.00900
C 	C 	0.48522 0.33450 0.55475 0.08600
C 	C 	0.40716 0.30710 0.61633 0.07200
C 	C 	0.22209 0.97530 0.17061 -0.13500
H 	H 	0.23600 0.94390 0.19490 0.09300
C 	C 	0.41118 0.08390 0.49463 -0.13100
H 	H 	0.39190 0.10040 0.51020 0.08600
C 	C 	0.56430 0.46650 0.51844 0.08400
H 	H 	0.57260 0.48080 0.49190 -0.01200
C 	C 	0.33215 0.36900 0.24888 -0.13500
H 	H 	0.34840 0.33460 0.27000 0.09300
C 	C 	0.47216 0.10970 0.47298 -0.13400
H 	H 	0.49440 0.14360 0.47360 0.08100
N 	N 	0.58377 0.49950 0.55719 -0.27700
N 	N 	0.17205 0.97620 0.10565 -0.27500
C 	C 	0.51947 0.39200 0.55564 0.06000
C 	C 	0.53971 0.42500 0.59604 -0.13800
H 	H 	0.53180 0.41190 0.62300 0.09100
C 	C 	0.46588 0.03240 0.44757 0.08300
H 	H 	0.48450 0.01480 0.43120 -0.01300
C 	C 	0.41768 0.36130 0.65416 -0.13100
H 	H 	0.44160 0.38980 0.65990 0.09100
C 	C 	0.19231 0.93440 0.14129 0.07600
H 	H 	0.18620 0.87540 0.14670 -0.00400
C 	C 	0.37325 0.07540 0.30783 -0.13000
H 	H 	0.38280 0.12910 0.29880 0.09500
C 	C 	0.57180 0.47770 0.59547 0.08100
H 	H 	0.58570 0.49900 0.62260 -0.01800
C 	C 	0.39187 0.37170 0.68268 0.08200
H 	H 	0.39890 0.40700 0.70820 -0.02100
C 	C 	0.28120 0.38340 0.18481 -0.13700
H 	H 	0.26250 0.35860 0.16230 0.08700
C 	C 	0.26207 0.10910 0.19524 0.08500
C 	C 	0.28690 0.47360 0.18700 0.07900
H 	H 	0.27150 0.50940 0.16570 -0.01400
C 	C 	0.21005 0.10680 0.12613 -0.12600
H 	H 	0.21550 0.16590 0.12020 0.09000
C 	C 	0.18103 0.06090 0.09787 0.07600
H 	H 	0.16730 0.09000 0.07270 -0.00400
C 	C 	0.39579 0.02150 0.33963 0.08300
H 	H 	0.42120 0.03880 0.35070 -0.01400
C 	C 	0.40724 0.00820 0.46852 0.07700
H 	H 	0.38500 0.97380 0.46670 -0.01700
C 	C 	0.32264 0.96830 0.30536 -0.13600
H 	H 	0.29780 0.94830 0.29380 0.08400
C 	C 	0.53240 0.41240 0.51626 -0.13600
H 	H 	0.51970 0.38980 0.48880 0.08600
C 	C 	0.33569 0.46030 0.24884 0.07500
H 	H 	0.35420 0.48680 0.27090 -0.01500
Zn	Zn	0.32123 0.65057 0.22182 1.16300
I 	I 	0.25645 0.72381 0.18911 -0.39600
I 	I 	0.36130 0.68360 0.29921 -0.40800
N 	N 	0.35691 0.33290 0.67530 -0.27600
C 	C 	0.23090 0.06340 0.16339 0.05600
I 	I 	0.64940 0.58810 0.48850 -0.10700
I 	I 	0.26720 0.73650 0.20450 0.01900
I 	I 	0.88437 0.26332 0.44160 -0.37500
I 	I 	0.97920 0.34324 0.36519 -0.35700
I 	I 	0.15090 0.07861 0.48425 -0.22800
I 	I 	0.11054 0.22553 0.60138 -0.37300
Zn	Zn	0.92142 0.37330 0.40201 1.16400
Zn	Zn	0.12918 0.08742 0.56081 1.16200
N 	N 	0.81367 0.01320 0.21854 -0.27300
N 	N 	0.93447 0.48240 0.44547 -0.27100
N 	N 	0.76828 0.69580 0.18889 -0.13900
N 	N 	0.82152 0.68530 0.24988 -0.13200
N 	N 	0.96350 0.84920 0.58599 -0.13300
N 	N 	0.78208 0.55860 0.22817 -0.14200
N 	N 	0.92560 0.72480 0.55566 -0.13700
N 	N 	0.88286 0.44580 0.35517 -0.27100
N 	N 	0.97937 0.77010 0.52380 -0.14500
C 	C 	0.80383 0.82880 0.21687 0.06600
C 	C 	0.94426 0.63520 0.49745 0.06300
C 	C 	0.84657 0.78150 0.63891 0.07800
H 	H 	0.82210 0.75550 0.63340 -0.01400
C 	C 	0.83625 0.54720 0.28989 0.06800
C 	C 	0.79756 0.73090 0.21810 0.09900
C 	C 	0.81186 0.60030 0.25384 0.10000
C 	C 	0.93345 0.79370 0.58399 0.10000
C 	C 	0.94983 0.71560 0.52695 0.08600
C 	C 	0.87123 0.76610 0.60934 -0.12800
H 	H 	0.86380 0.72840 0.58480 0.08800
C 	C 	0.84673 0.41990 0.33840 0.07700
H 	H 	0.83740 0.36760 0.34920 -0.00900
C 	C 	0.98522 0.83450 0.55475 0.08600
C 	C 	0.90716 0.80710 0.61633 0.07200
C 	C 	0.72209 0.47530 0.17061 -0.13400
H 	H 	0.73600 0.44390 0.19490 0.09300
C 	C 	0.91118 0.58390 0.49463 -0.13100
H 	H 	0.89190 0.60040 0.51020 0.08600
C 	C 	0.06430 0.96650 0.51844 0.08400
H 	H 	0.07260 0.98080 0.49190 -0.01200
C 	C 	0.83215 0.86900 0.24888 -0.13400
H 	H 	0.84840 0.83460 0.27000 0.09300
C 	C 	0.97216 0.60970 0.47298 -0.13400
H 	H 	0.99440 0.64360 0.47360 0.08100
N 	N 	0.08377 0.99950 0.55719 -0.27700
N 	N 	0.67205 0.47620 0.10565 -0.27400
C 	C 	0.01947 0.89200 0.55564 0.06000
C 	C 	0.03971 0.92500 0.59604 -0.13800
H 	H 	0.03180 0.91190 0.62300 0.09100
C 	C 	0.96588 0.53240 0.44757 0.08300
H 	H 	0.98450 0.51480 0.43120 -0.01300
C 	C 	0.91768 0.86130 0.65416 -0.13100
H 	H 	0.94160 0.88980 0.65990 0.09000
C 	C 	0.69231 0.43440 0.14129 0.07500
H 	H 	0.68620 0.37540 0.14670 -0.00400
C 	C 	0.87325 0.57540 0.30783 -0.12900
H 	H 	0.88280 0.62910 0.29880 0.09500
C 	C 	0.07180 0.97770 0.59547 0.08100
H 	H 	0.08570 0.99900 0.62260 -0.01800
C 	C 	0.89187 0.87170 0.68268 0.08200
H 	H 	0.89890 0.90700 0.70820 -0.02100
C 	C 	0.78120 0.88340 0.18481 -0.13600
H 	H 	0.76250 0.85860 0.16230 0.08600
C 	C 	0.76207 0.60910 0.19524 0.08500
C 	C 	0.78690 0.97360 0.18700 0.07700
H 	H 	0.77150 0.00940 0.16570 -0.01400
C 	C 	0.71005 0.60680 0.12613 -0.12500
H 	H 	0.71550 0.66590 0.12020 0.09000
C 	C 	0.68103 0.56090 0.09787 0.07500
H 	H 	0.66730 0.59000 0.07270 -0.00300
C 	C 	0.89579 0.52150 0.33963 0.08200
H 	H 	0.92120 0.53880 0.35070 -0.01400
C 	C 	0.90724 0.50820 0.46852 0.07600
H 	H 	0.88500 0.47380 0.46670 -0.01700
C 	C 	0.82264 0.46830 0.30536 -0.13500
H 	H 	0.79780 0.44830 0.29380 0.08400
C 	C 	0.03240 0.91240 0.51626 -0.13600
H 	H 	0.01970 0.88980 0.48880 0.08600
C 	C 	0.83569 0.96030 0.24884 0.07400
H 	H 	0.85420 0.98680 0.27090 -0.01500
Zn	Zn	0.82123 0.15057 0.22182 1.16300
I 	I 	0.75645 0.22381 0.18911 -0.39600
I 	I 	0.86130 0.18360 0.29921 -0.40800
N 	N 	0.85691 0.83290 0.67530 -0.27600
C 	C 	0.73090 0.56340 0.16339 0.05500
I 	I 	0.14940 0.08810 0.48850 -0.10700
I 	I 	0.76720 0.23650 0.20450 0.01900
