data_crystal

_cell_length_a 35.00870
_cell_length_b 14.94580
_cell_length_c 30.69490
_cell_angle_alpha 90.00000
_cell_angle_beta  100.80000
_cell_angle_gamma 90.00000

_symmetry_space_group_name_	'P 1'
_symmetry_space_group_name_H-M	'P 1'

loop_
_symmetry_equiv_pos_as_xyz
  x,y,z

loop_
_atom_site_label
_atom_site_type_symbol
_atom_site_fract_x
_atom_site_fract_y
_atom_site_fract_z
_atom_site_charge
I 	I 	0.38396 0.23726 0.43965 -0.27300
I 	I 	0.47889 0.15581 0.36602 -0.35900
I 	I 	0.61087 0.27100 0.59806 -0.03500
I 	I 	0.25658 0.72426 0.69000 -0.33100
Zn	Zn	0.42090 0.12396 0.40206 1.16400
Zn	Zn	0.62907 0.41010 0.56190 1.15400
Zn	Zn	0.32204 0.64978 0.72175 1.15900
N 	N 	0.43390 0.01680 0.44520 -0.27100
N 	N 	0.58330 0.49750 0.55830 -0.27700
N 	N 	0.35730 0.66630 0.67540 -0.27800
N 	N 	0.46310 0.65080 0.58570 -0.13200
N 	N 	0.47910 0.73030 0.52440 -0.14500
N 	N 	0.42510 0.77610 0.55580 -0.13800
N 	N 	0.38250 0.94860 0.85510 -0.27400
N 	N 	0.17170 0.97470 0.60680 -0.27500
N 	N 	0.31370 0.51230 0.71890 -0.27700
N 	N 	0.32070 0.18430 0.74890 -0.13500
N 	N 	0.26730 0.19550 0.68990 -0.14000
N 	N 	0.28190 0.05690 0.72780 -0.14100
C 	C 	0.56480 0.53380 0.52030 0.08100
H 	H 	0.57420 0.52150 0.49460 -0.00600
C 	C 	0.53270 0.58840 0.51710 -0.13300
H 	H 	0.52050 0.61160 0.49000 0.08600
C 	C 	0.51910 0.60770 0.55620 0.06000
C 	C 	0.53840 0.57330 0.59520 -0.13600
H 	H 	0.52970 0.58510 0.62150 0.09100
C 	C 	0.57130 0.51990 0.59570 0.07700
H 	H 	0.58520 0.49960 0.62270 -0.01700
C 	C 	0.44390 0.86440 0.49840 0.05600
C 	C 	0.47160 0.89050 0.47410 -0.13500
H 	H 	0.49430 0.85730 0.47540 0.08100
C 	C 	0.46540 0.96500 0.44840 0.08500
H 	H 	0.48410 0.98080 0.43200 -0.01200
C 	C 	0.40640 0.99160 0.46890 0.06200
H 	H 	0.38420 0.02640 0.46720 -0.01100
C 	C 	0.41050 0.91590 0.49540 -0.12300
H 	H 	0.39110 0.89970 0.51090 0.08000
C 	C 	0.40720 0.69290 0.61570 0.07200
C 	C 	0.36990 0.73160 0.60940 -0.12800
H 	H 	0.36150 0.76840 0.58510 0.08800
C 	C 	0.34620 0.71530 0.63870 0.08300
H 	H 	0.32120 0.73920 0.63320 -0.01600
C 	C 	0.39280 0.62950 0.68250 0.08200
H 	H 	0.40070 0.59500 0.70780 -0.02100
C 	C 	0.41800 0.64150 0.65350 -0.13000
H 	H 	0.44240 0.61490 0.65940 0.09100
C 	C 	0.43300 0.70660 0.58380 0.10000
C 	C 	0.44920 0.78570 0.52770 0.08400
C 	C 	0.48520 0.66610 0.55530 0.08600
C 	C 	0.33600 0.04580 0.78910 0.07100
C 	C 	0.37270 0.07820 0.80930 -0.14000
H 	H 	0.38210 0.13250 0.80090 0.10000
C 	C 	0.39410 0.02610 0.84200 0.09500
H 	H 	0.41840 0.04710 0.85570 -0.01800
C 	C 	0.34730 0.91780 0.83520 0.07800
H 	H 	0.33880 0.86290 0.84400 -0.01400
C 	C 	0.32400 0.96490 0.80240 -0.14200
H 	H 	0.29990 0.94190 0.78910 0.08400
C 	C 	0.23050 0.06160 0.66410 0.05300
C 	C 	0.22240 0.97180 0.67050 -0.13200
H 	H 	0.23680 0.93990 0.69400 0.09200
C 	C 	0.19280 0.93120 0.64170 0.07000
H 	H 	0.18700 0.87160 0.64630 -0.00600
C 	C 	0.17980 0.05950 0.59990 0.07900
H 	H 	0.16560 0.08900 0.57540 -0.00500
C 	C 	0.20870 0.10570 0.62800 -0.12900
H 	H 	0.21350 0.16550 0.62280 0.08900
C 	C 	0.30360 0.32760 0.71700 0.06500
C 	C 	0.27950 0.38220 0.68690 -0.13500
H 	H 	0.25960 0.35790 0.66590 0.08600
C 	C 	0.28600 0.47390 0.68900 0.08000
H 	H 	0.27030 0.51040 0.66850 -0.01600
C 	C 	0.33620 0.45950 0.74780 0.07700
H 	H 	0.35550 0.48600 0.76880 -0.01900
C 	C 	0.33240 0.36670 0.74840 -0.13500
H 	H 	0.34870 0.33200 0.76910 0.09300
C 	C 	0.29700 0.22950 0.71850 0.10400
C 	C 	0.26170 0.10630 0.69550 0.08300
C 	C 	0.31180 0.09930 0.75370 0.09700
I 	I 	0.65075 0.42135 0.48578 -0.51600
I 	I 	0.36845 0.68260 0.79960 -0.29200
I 	I 	0.35711 0.68270 0.79530 -0.07600
I 	I 	0.60630 0.27570 0.61250 -0.30000
I 	I 	0.64924 0.38640 0.49740 0.13600
I 	I 	0.26600 0.73600 0.70290 -0.03900
I 	I 	0.39430 0.21200 0.45540 -0.09200
I 	I 	0.88396 0.73726 0.43965 -0.27200
I 	I 	0.97889 0.65581 0.36602 -0.35800
I 	I 	0.11087 0.77100 0.59806 -0.03500
I 	I 	0.75658 0.22426 0.69000 -0.33100
Zn	Zn	0.92090 0.62396 0.40206 1.16400
Zn	Zn	0.12907 0.91010 0.56190 1.15400
Zn	Zn	0.82204 0.14978 0.72175 1.15900
N 	N 	0.93390 0.51680 0.44520 -0.27100
N 	N 	0.08330 0.99750 0.55830 -0.27700
N 	N 	0.85730 0.16630 0.67540 -0.27800
N 	N 	0.96310 0.15080 0.58570 -0.13200
N 	N 	0.97910 0.23030 0.52440 -0.14500
N 	N 	0.92510 0.27610 0.55580 -0.13800
N 	N 	0.88250 0.44860 0.85510 -0.27400
N 	N 	0.67170 0.47470 0.60680 -0.27500
N 	N 	0.81370 0.01230 0.71890 -0.27700
N 	N 	0.82070 0.68430 0.74890 -0.13500
N 	N 	0.76730 0.69550 0.68990 -0.14000
N 	N 	0.78190 0.55690 0.72780 -0.14100
C 	C 	0.06480 0.03380 0.52030 0.08100
H 	H 	0.07420 0.02150 0.49460 -0.00600
C 	C 	0.03270 0.08840 0.51710 -0.13400
H 	H 	0.02050 0.11160 0.49000 0.08600
C 	C 	0.01910 0.10770 0.55620 0.06000
C 	C 	0.03840 0.07330 0.59520 -0.13600
H 	H 	0.02970 0.08510 0.62150 0.09100
C 	C 	0.07130 0.01990 0.59570 0.07700
H 	H 	0.08520 0.99960 0.62270 -0.01700
C 	C 	0.94390 0.36440 0.49840 0.05600
C 	C 	0.97160 0.39050 0.47410 -0.13500
H 	H 	0.99430 0.35730 0.47540 0.08100
C 	C 	0.96540 0.46500 0.44840 0.08500
H 	H 	0.98410 0.48080 0.43200 -0.01200
C 	C 	0.90640 0.49160 0.46890 0.06200
H 	H 	0.88420 0.52640 0.46720 -0.01100
C 	C 	0.91050 0.41590 0.49540 -0.12300
H 	H 	0.89110 0.39970 0.51090 0.08000
C 	C 	0.90720 0.19290 0.61570 0.07200
C 	C 	0.86990 0.23160 0.60940 -0.12800
H 	H 	0.86150 0.26840 0.58510 0.08800
C 	C 	0.84620 0.21530 0.63870 0.08300
H 	H 	0.82120 0.23920 0.63320 -0.01600
C 	C 	0.89280 0.12950 0.68250 0.08200
H 	H 	0.90070 0.09500 0.70780 -0.02100
C 	C 	0.91800 0.14150 0.65350 -0.13000
H 	H 	0.94240 0.11490 0.65940 0.09100
C 	C 	0.93300 0.20660 0.58380 0.10000
C 	C 	0.94920 0.28570 0.52770 0.08400
C 	C 	0.98520 0.16610 0.55530 0.08600
C 	C 	0.83600 0.54580 0.78910 0.07100
C 	C 	0.87270 0.57820 0.80930 -0.13900
H 	H 	0.88210 0.63250 0.80090 0.10000
C 	C 	0.89410 0.52610 0.84200 0.09500
H 	H 	0.91840 0.54710 0.85570 -0.01800
C 	C 	0.84730 0.41780 0.83520 0.07800
H 	H 	0.83880 0.36290 0.84400 -0.01400
C 	C 	0.82400 0.46490 0.80240 -0.14200
H 	H 	0.79990 0.44190 0.78910 0.08400
C 	C 	0.73050 0.56160 0.66410 0.05300
C 	C 	0.72240 0.47180 0.67050 -0.13200
H 	H 	0.73680 0.43990 0.69400 0.09200
C 	C 	0.69280 0.43120 0.64170 0.07000
H 	H 	0.68700 0.37160 0.64630 -0.00600
C 	C 	0.67980 0.55950 0.59990 0.07800
H 	H 	0.66560 0.58900 0.57540 -0.00500
C 	C 	0.70870 0.60570 0.62800 -0.12900
H 	H 	0.71350 0.66550 0.62280 0.08900
C 	C 	0.80360 0.82760 0.71700 0.06500
C 	C 	0.77950 0.88220 0.68690 -0.13500
H 	H 	0.75960 0.85790 0.66590 0.08600
C 	C 	0.78600 0.97390 0.68900 0.07900
H 	H 	0.77030 0.01040 0.66850 -0.01600
C 	C 	0.83620 0.95950 0.74780 0.07700
H 	H 	0.85550 0.98600 0.76880 -0.01900
C 	C 	0.83240 0.86670 0.74840 -0.13400
H 	H 	0.84870 0.83200 0.76910 0.09300
C 	C 	0.79700 0.72950 0.71850 0.10400
C 	C 	0.76170 0.60630 0.69550 0.08300
C 	C 	0.81180 0.59930 0.75370 0.09700
I 	I 	0.15075 0.92135 0.48578 -0.51600
I 	I 	0.86845 0.18260 0.79960 -0.29200
I 	I 	0.85711 0.18270 0.79530 -0.07600
I 	I 	0.10630 0.77570 0.61250 -0.30000
I 	I 	0.14924 0.88640 0.49740 0.13600
I 	I 	0.76600 0.23600 0.70290 -0.03900
I 	I 	0.89430 0.71200 0.45540 -0.09200
I 	I 	0.38396 0.76274 0.93965 -0.27300
I 	I 	0.47889 0.84419 0.86602 -0.35800
I 	I 	0.61087 0.72900 0.09806 -0.03500
I 	I 	0.25658 0.27574 0.19000 -0.33100
Zn	Zn	0.42090 0.87604 0.90206 1.16400
Zn	Zn	0.62907 0.58990 0.06190 1.15400
Zn	Zn	0.32204 0.35022 0.22175 1.15900
N 	N 	0.43390 0.98320 0.94520 -0.27100
N 	N 	0.58330 0.50250 0.05830 -0.27700
N 	N 	0.35730 0.33370 0.17540 -0.27800
N 	N 	0.46310 0.34920 0.08570 -0.13200
N 	N 	0.47910 0.26970 0.02440 -0.14500
N 	N 	0.42510 0.22390 0.05580 -0.13800
N 	N 	0.38250 0.05140 0.35510 -0.27400
N 	N 	0.17170 0.02530 0.10680 -0.27500
N 	N 	0.31370 0.48770 0.21890 -0.27700
N 	N 	0.32070 0.81570 0.24890 -0.13500
N 	N 	0.26730 0.80450 0.18990 -0.14000
N 	N 	0.28190 0.94310 0.22780 -0.14100
C 	C 	0.56480 0.46620 0.02030 0.08100
H 	H 	0.57420 0.47850 0.99460 -0.00600
C 	C 	0.53270 0.41160 0.01710 -0.13400
H 	H 	0.52050 0.38840 0.99000 0.08600
C 	C 	0.51910 0.39230 0.05620 0.06000
C 	C 	0.53840 0.42670 0.09520 -0.13600
H 	H 	0.52970 0.41490 0.12150 0.09100
C 	C 	0.57130 0.48010 0.09570 0.07700
H 	H 	0.58520 0.50040 0.12270 -0.01700
C 	C 	0.44390 0.13560 0.99840 0.05600
C 	C 	0.47160 0.10950 0.97410 -0.13600
H 	H 	0.49430 0.14270 0.97540 0.08200
C 	C 	0.46540 0.03500 0.94840 0.08500
H 	H 	0.48410 0.01920 0.93200 -0.01200
C 	C 	0.40640 0.00840 0.96890 0.06300
H 	H 	0.38420 0.97360 0.96720 -0.01100
C 	C 	0.41050 0.08410 0.99540 -0.12300
H 	H 	0.39110 0.10030 0.01090 0.08000
C 	C 	0.40720 0.30710 0.11570 0.07200
C 	C 	0.36990 0.26840 0.10940 -0.12800
H 	H 	0.36150 0.23160 0.08510 0.08800
C 	C 	0.34620 0.28470 0.13870 0.08300
H 	H 	0.32120 0.26080 0.13320 -0.01600
C 	C 	0.39280 0.37050 0.18250 0.08200
H 	H 	0.40070 0.40500 0.20780 -0.02100
C 	C 	0.41800 0.35850 0.15350 -0.13000
H 	H 	0.44240 0.38510 0.15940 0.09100
C 	C 	0.43300 0.29340 0.08380 0.10000
C 	C 	0.44920 0.21430 0.02770 0.08400
C 	C 	0.48520 0.33390 0.05530 0.08600
C 	C 	0.33600 0.95420 0.28910 0.07100
C 	C 	0.37270 0.92180 0.30930 -0.14000
H 	H 	0.38210 0.86750 0.30090 0.10000
C 	C 	0.39410 0.97390 0.34200 0.09500
H 	H 	0.41840 0.95290 0.35570 -0.01800
C 	C 	0.34730 0.08220 0.33520 0.07800
H 	H 	0.33880 0.13710 0.34400 -0.01400
C 	C 	0.32400 0.03510 0.30240 -0.14200
H 	H 	0.29990 0.05810 0.28910 0.08400
C 	C 	0.23050 0.93840 0.16410 0.05400
C 	C 	0.22240 0.02820 0.17050 -0.13300
H 	H 	0.23680 0.06010 0.19400 0.09200
C 	C 	0.19280 0.06880 0.14170 0.07000
H 	H 	0.18700 0.12840 0.14630 -0.00600
C 	C 	0.17980 0.94050 0.09990 0.07900
H 	H 	0.16560 0.91100 0.07540 -0.00500
C 	C 	0.20870 0.89430 0.12800 -0.12900
H 	H 	0.21350 0.83450 0.12280 0.08900
C 	C 	0.30360 0.67240 0.21700 0.06500
C 	C 	0.27950 0.61780 0.18690 -0.13500
H 	H 	0.25960 0.64210 0.16590 0.08600
C 	C 	0.28600 0.52610 0.18900 0.08000
H 	H 	0.27030 0.48960 0.16850 -0.01600
C 	C 	0.33620 0.54050 0.24780 0.07700
H 	H 	0.35550 0.51400 0.26880 -0.01900
C 	C 	0.33240 0.63330 0.24840 -0.13500
H 	H 	0.34870 0.66800 0.26910 0.09300
C 	C 	0.29700 0.77050 0.21850 0.10400
C 	C 	0.26170 0.89370 0.19550 0.08300
C 	C 	0.31180 0.90070 0.25370 0.09700
I 	I 	0.65075 0.57865 0.98578 -0.51600
I 	I 	0.36845 0.31740 0.29960 -0.29200
I 	I 	0.35711 0.31730 0.29530 -0.07600
I 	I 	0.60630 0.72430 0.11250 -0.30000
I 	I 	0.64924 0.61360 0.99740 0.13600
I 	I 	0.26600 0.26400 0.20290 -0.03900
I 	I 	0.39430 0.78800 0.95540 -0.09200
I 	I 	0.88396 0.26274 0.93965 -0.27200
I 	I 	0.97889 0.34419 0.86602 -0.35800
I 	I 	0.11087 0.22900 0.09806 -0.03500
I 	I 	0.75658 0.77574 0.19000 -0.33100
Zn	Zn	0.92090 0.37604 0.90206 1.16400
Zn	Zn	0.12907 0.08990 0.06190 1.15400
Zn	Zn	0.82204 0.85022 0.22175 1.15900
N 	N 	0.93390 0.48320 0.94520 -0.27100
N 	N 	0.08330 0.00250 0.05830 -0.27800
N 	N 	0.85730 0.83370 0.17540 -0.27800
N 	N 	0.96310 0.84920 0.08570 -0.13200
N 	N 	0.97910 0.76970 0.02440 -0.14500
N 	N 	0.92510 0.72390 0.05580 -0.13800
N 	N 	0.88250 0.55140 0.35510 -0.27400
N 	N 	0.67170 0.52530 0.10680 -0.27500
N 	N 	0.81370 0.98770 0.21890 -0.27700
N 	N 	0.82070 0.31570 0.24890 -0.13500
N 	N 	0.76730 0.30450 0.18990 -0.14000
N 	N 	0.78190 0.44310 0.22780 -0.14100
C 	C 	0.06480 0.96620 0.02030 0.08200
H 	H 	0.07420 0.97850 0.99460 -0.00700
C 	C 	0.03270 0.91160 0.01710 -0.13400
H 	H 	0.02050 0.88840 0.99000 0.08600
C 	C 	0.01910 0.89230 0.05620 0.06000
C 	C 	0.03840 0.92670 0.09520 -0.13600
H 	H 	0.02970 0.91490 0.12150 0.09100
C 	C 	0.07130 0.98010 0.09570 0.07800
H 	H 	0.08520 0.00040 0.12270 -0.01700
C 	C 	0.94390 0.63560 0.99840 0.05600
C 	C 	0.97160 0.60950 0.97410 -0.13500
H 	H 	0.99430 0.64270 0.97540 0.08100
C 	C 	0.96540 0.53500 0.94840 0.08500
H 	H 	0.98410 0.51920 0.93200 -0.01200
C 	C 	0.90640 0.50840 0.96890 0.06200
H 	H 	0.88420 0.47360 0.96720 -0.01100
C 	C 	0.91050 0.58410 0.99540 -0.12300
H 	H 	0.89110 0.60030 0.01090 0.08000
C 	C 	0.90720 0.80710 0.11570 0.07200
C 	C 	0.86990 0.76840 0.10940 -0.12800
H 	H 	0.86150 0.73160 0.08510 0.08800
C 	C 	0.84620 0.78470 0.13870 0.08300
H 	H 	0.82120 0.76080 0.13320 -0.01600
C 	C 	0.89280 0.87050 0.18250 0.08200
H 	H 	0.90070 0.90500 0.20780 -0.02100
C 	C 	0.91800 0.85850 0.15350 -0.13000
H 	H 	0.94240 0.88510 0.15940 0.09100
C 	C 	0.93300 0.79340 0.08380 0.10000
C 	C 	0.94920 0.71430 0.02770 0.08400
C 	C 	0.98520 0.83390 0.05530 0.08600
C 	C 	0.83600 0.45420 0.28910 0.07100
C 	C 	0.87270 0.42180 0.30930 -0.13900
H 	H 	0.88210 0.36750 0.30090 0.10000
C 	C 	0.89410 0.47390 0.34200 0.09500
H 	H 	0.91840 0.45290 0.35570 -0.01800
C 	C 	0.84730 0.58220 0.33520 0.07800
H 	H 	0.83880 0.63710 0.34400 -0.01400
C 	C 	0.82400 0.53510 0.30240 -0.14200
H 	H 	0.79990 0.55810 0.28910 0.08400
C 	C 	0.73050 0.43840 0.16410 0.05300
C 	C 	0.72240 0.52820 0.17050 -0.13200
H 	H 	0.73680 0.56010 0.19400 0.09200
C 	C 	0.69280 0.56880 0.14170 0.07000
H 	H 	0.68700 0.62840 0.14630 -0.00600
C 	C 	0.67980 0.44050 0.09990 0.07800
H 	H 	0.66560 0.41100 0.07540 -0.00500
C 	C 	0.70870 0.39430 0.12800 -0.12900
H 	H 	0.71350 0.33450 0.12280 0.08900
C 	C 	0.80360 0.17240 0.21700 0.06500
C 	C 	0.77950 0.11780 0.18690 -0.13500
H 	H 	0.75960 0.14210 0.16590 0.08600
C 	C 	0.78600 0.02610 0.18900 0.07900
H 	H 	0.77030 0.98960 0.16850 -0.01600
C 	C 	0.83620 0.04050 0.24780 0.07700
H 	H 	0.85550 0.01400 0.26880 -0.01900
C 	C 	0.83240 0.13330 0.24840 -0.13400
H 	H 	0.84870 0.16800 0.26910 0.09300
C 	C 	0.79700 0.27050 0.21850 0.10400
C 	C 	0.76170 0.39370 0.19550 0.08300
C 	C 	0.81180 0.40070 0.25370 0.09700
I 	I 	0.15075 0.07865 0.98578 -0.51600
I 	I 	0.86845 0.81740 0.29960 -0.29200
I 	I 	0.85711 0.81730 0.29530 -0.07600
I 	I 	0.10630 0.22430 0.11250 -0.30000
I 	I 	0.14924 0.11360 0.99740 0.13600
I 	I 	0.76600 0.76400 0.20290 -0.03900
I 	I 	0.89430 0.28800 0.95540 -0.09200
I 	I 	0.61604 0.23726 0.06035 -0.27300
I 	I 	0.52111 0.15581 0.13398 -0.35800
I 	I 	0.38913 0.27100 0.90194 -0.03500
I 	I 	0.74342 0.72426 0.81000 -0.33100
Zn	Zn	0.57910 0.12396 0.09794 1.16400
Zn	Zn	0.37093 0.41010 0.93810 1.15400
Zn	Zn	0.67796 0.64978 0.77825 1.15900
N 	N 	0.56610 0.01680 0.05480 -0.27100
N 	N 	0.41670 0.49750 0.94170 -0.27700
N 	N 	0.64270 0.66630 0.82460 -0.27800
N 	N 	0.53690 0.65080 0.91430 -0.13200
N 	N 	0.52090 0.73030 0.97560 -0.14500
N 	N 	0.57490 0.77610 0.94420 -0.13800
N 	N 	0.61750 0.94860 0.64490 -0.27400
N 	N 	0.82830 0.97470 0.89320 -0.27500
N 	N 	0.68630 0.51230 0.78110 -0.27700
N 	N 	0.67930 0.18430 0.75110 -0.13500
N 	N 	0.73270 0.19550 0.81010 -0.14000
N 	N 	0.71810 0.05690 0.77220 -0.14100
C 	C 	0.43520 0.53380 0.97970 0.08100
H 	H 	0.42580 0.52150 0.00540 -0.00600
C 	C 	0.46730 0.58840 0.98290 -0.13400
H 	H 	0.47950 0.61160 0.01000 0.08600
C 	C 	0.48090 0.60770 0.94380 0.06000
C 	C 	0.46160 0.57330 0.90480 -0.13600
H 	H 	0.47030 0.58510 0.87850 0.09100
C 	C 	0.42870 0.51990 0.90430 0.07700
H 	H 	0.41480 0.49960 0.87730 -0.01700
C 	C 	0.55610 0.86440 0.00160 0.05600
C 	C 	0.52840 0.89050 0.02590 -0.13600
H 	H 	0.50570 0.85730 0.02460 0.08200
C 	C 	0.53460 0.96500 0.05160 0.08500
H 	H 	0.51590 0.98080 0.06800 -0.01200
C 	C 	0.59360 0.99160 0.03110 0.06300
H 	H 	0.61580 0.02640 0.03280 -0.01100
C 	C 	0.58950 0.91590 0.00460 -0.12300
H 	H 	0.60890 0.89970 0.98910 0.08000
C 	C 	0.59280 0.69290 0.88430 0.07200
C 	C 	0.63010 0.73160 0.89060 -0.12800
H 	H 	0.63850 0.76840 0.91490 0.08800
C 	C 	0.65380 0.71530 0.86130 0.08300
H 	H 	0.67880 0.73920 0.86680 -0.01600
C 	C 	0.60720 0.62950 0.81750 0.08200
H 	H 	0.59930 0.59500 0.79220 -0.02100
C 	C 	0.58200 0.64150 0.84650 -0.13000
H 	H 	0.55760 0.61490 0.84060 0.09100
C 	C 	0.56700 0.70660 0.91620 0.10000
C 	C 	0.55080 0.78570 0.97230 0.08400
C 	C 	0.51480 0.66610 0.94470 0.08600
C 	C 	0.66400 0.04580 0.71090 0.07100
C 	C 	0.62730 0.07820 0.69070 -0.14000
H 	H 	0.61790 0.13250 0.69910 0.10000
C 	C 	0.60590 0.02610 0.65800 0.09500
H 	H 	0.58160 0.04710 0.64430 -0.01800
C 	C 	0.65270 0.91780 0.66480 0.07800
H 	H 	0.66120 0.86290 0.65600 -0.01400
C 	C 	0.67600 0.96490 0.69760 -0.14200
H 	H 	0.70010 0.94190 0.71090 0.08400
C 	C 	0.76950 0.06160 0.83590 0.05400
C 	C 	0.77760 0.97180 0.82950 -0.13300
H 	H 	0.76320 0.93990 0.80600 0.09200
C 	C 	0.80720 0.93120 0.85830 0.07000
H 	H 	0.81300 0.87160 0.85370 -0.00600
C 	C 	0.82020 0.05950 0.90010 0.07900
H 	H 	0.83440 0.08900 0.92460 -0.00500
C 	C 	0.79130 0.10570 0.87200 -0.12900
H 	H 	0.78650 0.16550 0.87720 0.08900
C 	C 	0.69640 0.32760 0.78300 0.06500
C 	C 	0.72050 0.38220 0.81310 -0.13500
H 	H 	0.74040 0.35790 0.83410 0.08600
C 	C 	0.71400 0.47390 0.81100 0.08000
H 	H 	0.72970 0.51040 0.83150 -0.01600
C 	C 	0.66380 0.45950 0.75220 0.07700
H 	H 	0.64450 0.48600 0.73120 -0.01900
C 	C 	0.66760 0.36670 0.75160 -0.13500
H 	H 	0.65130 0.33200 0.73090 0.09300
C 	C 	0.70300 0.22950 0.78150 0.10400
C 	C 	0.73830 0.10630 0.80450 0.08300
C 	C 	0.68820 0.09930 0.74630 0.09700
I 	I 	0.34925 0.42135 0.01422 -0.51600
I 	I 	0.63155 0.68260 0.70040 -0.29200
I 	I 	0.64289 0.68270 0.70470 -0.07600
I 	I 	0.39370 0.27570 0.88750 -0.30000
I 	I 	0.35076 0.38640 0.00260 0.13600
I 	I 	0.73400 0.73600 0.79710 -0.03900
I 	I 	0.60570 0.21200 0.04460 -0.09200
I 	I 	0.11604 0.73726 0.06035 -0.27200
I 	I 	0.02111 0.65581 0.13398 -0.35800
I 	I 	0.88913 0.77100 0.90194 -0.03500
I 	I 	0.24342 0.22426 0.81000 -0.33100
Zn	Zn	0.07910 0.62396 0.09794 1.16400
Zn	Zn	0.87093 0.91010 0.93810 1.15400
Zn	Zn	0.17796 0.14978 0.77825 1.15900
N 	N 	0.06610 0.51680 0.05480 -0.27100
N 	N 	0.91670 0.99750 0.94170 -0.27800
N 	N 	0.14270 0.16630 0.82460 -0.27800
N 	N 	0.03690 0.15080 0.91430 -0.13200
N 	N 	0.02090 0.23030 0.97560 -0.14500
N 	N 	0.07490 0.27610 0.94420 -0.13800
N 	N 	0.11750 0.44860 0.64490 -0.27400
N 	N 	0.32830 0.47470 0.89320 -0.27500
N 	N 	0.18630 0.01230 0.78110 -0.27700
N 	N 	0.17930 0.68430 0.75110 -0.13500
N 	N 	0.23270 0.69550 0.81010 -0.14000
N 	N 	0.21810 0.55690 0.77220 -0.14100
C 	C 	0.93520 0.03380 0.97970 0.08200
H 	H 	0.92580 0.02150 0.00540 -0.00700
C 	C 	0.96730 0.08840 0.98290 -0.13400
H 	H 	0.97950 0.11160 0.01000 0.08600
C 	C 	0.98090 0.10770 0.94380 0.06000
C 	C 	0.96160 0.07330 0.90480 -0.13600
H 	H 	0.97030 0.08510 0.87850 0.09100
C 	C 	0.92870 0.01990 0.90430 0.07800
H 	H 	0.91480 0.99960 0.87730 -0.01700
C 	C 	0.05610 0.36440 0.00160 0.05600
C 	C 	0.02840 0.39050 0.02590 -0.13500
H 	H 	0.00570 0.35730 0.02460 0.08100
C 	C 	0.03460 0.46500 0.05160 0.08500
H 	H 	0.01590 0.48080 0.06800 -0.01200
C 	C 	0.09360 0.49160 0.03110 0.06200
H 	H 	0.11580 0.52640 0.03280 -0.01100
C 	C 	0.08950 0.41590 0.00460 -0.12300
H 	H 	0.10890 0.39970 0.98910 0.08000
C 	C 	0.09280 0.19290 0.88430 0.07200
C 	C 	0.13010 0.23160 0.89060 -0.12800
H 	H 	0.13850 0.26840 0.91490 0.08800
C 	C 	0.15380 0.21530 0.86130 0.08300
H 	H 	0.17880 0.23920 0.86680 -0.01600
C 	C 	0.10720 0.12950 0.81750 0.08200
H 	H 	0.09930 0.09500 0.79220 -0.02100
C 	C 	0.08200 0.14150 0.84650 -0.13000
H 	H 	0.05760 0.11490 0.84060 0.09100
C 	C 	0.06700 0.20660 0.91620 0.10000
C 	C 	0.05080 0.28570 0.97230 0.08400
C 	C 	0.01480 0.16610 0.94470 0.08600
C 	C 	0.16400 0.54580 0.71090 0.07100
C 	C 	0.12730 0.57820 0.69070 -0.13900
H 	H 	0.11790 0.63250 0.69910 0.10000
C 	C 	0.10590 0.52610 0.65800 0.09500
H 	H 	0.08160 0.54710 0.64430 -0.01800
C 	C 	0.15270 0.41780 0.66480 0.07800
H 	H 	0.16120 0.36290 0.65600 -0.01400
C 	C 	0.17600 0.46490 0.69760 -0.14200
H 	H 	0.20010 0.44190 0.71090 0.08400
C 	C 	0.26950 0.56160 0.83590 0.05300
C 	C 	0.27760 0.47180 0.82950 -0.13200
H 	H 	0.26320 0.43990 0.80600 0.09200
C 	C 	0.30720 0.43120 0.85830 0.07000
H 	H 	0.31300 0.37160 0.85370 -0.00600
C 	C 	0.32020 0.55950 0.90010 0.07800
H 	H 	0.33440 0.58900 0.92460 -0.00500
C 	C 	0.29130 0.60570 0.87200 -0.12900
H 	H 	0.28650 0.66550 0.87720 0.08900
C 	C 	0.19640 0.82760 0.78300 0.06500
C 	C 	0.22050 0.88220 0.81310 -0.13500
H 	H 	0.24040 0.85790 0.83410 0.08600
C 	C 	0.21400 0.97390 0.81100 0.07900
H 	H 	0.22970 0.01040 0.83150 -0.01600
C 	C 	0.16380 0.95950 0.75220 0.07700
H 	H 	0.14450 0.98600 0.73120 -0.01900
C 	C 	0.16760 0.86670 0.75160 -0.13400
H 	H 	0.15130 0.83200 0.73090 0.09300
C 	C 	0.20300 0.72950 0.78150 0.10400
C 	C 	0.23830 0.60630 0.80450 0.08300
C 	C 	0.18820 0.59930 0.74630 0.09700
I 	I 	0.84925 0.92135 0.01422 -0.51600
I 	I 	0.13155 0.18260 0.70040 -0.29200
I 	I 	0.14289 0.18270 0.70470 -0.07600
I 	I 	0.89370 0.77570 0.88750 -0.30000
I 	I 	0.85076 0.88640 0.00260 0.13600
I 	I 	0.23400 0.23600 0.79710 -0.03900
I 	I 	0.10570 0.71200 0.04460 -0.09200
I 	I 	0.61604 0.76274 0.56035 -0.27200
I 	I 	0.52111 0.84419 0.63398 -0.35800
I 	I 	0.38913 0.72900 0.40194 -0.03500
I 	I 	0.74342 0.27574 0.31000 -0.33100
Zn	Zn	0.57910 0.87604 0.59794 1.16400
Zn	Zn	0.37093 0.58990 0.43810 1.15400
Zn	Zn	0.67796 0.35022 0.27825 1.15900
N 	N 	0.56610 0.98320 0.55480 -0.27100
N 	N 	0.41670 0.50250 0.44170 -0.27700
N 	N 	0.64270 0.33370 0.32460 -0.27800
N 	N 	0.53690 0.34920 0.41430 -0.13200
N 	N 	0.52090 0.26970 0.47560 -0.14500
N 	N 	0.57490 0.22390 0.44420 -0.13800
N 	N 	0.61750 0.05140 0.14490 -0.27400
N 	N 	0.82830 0.02530 0.39320 -0.27500
N 	N 	0.68630 0.48770 0.28110 -0.27700
N 	N 	0.67930 0.81570 0.25110 -0.13500
N 	N 	0.73270 0.80450 0.31010 -0.14000
N 	N 	0.71810 0.94310 0.27220 -0.14100
C 	C 	0.43520 0.46620 0.47970 0.08100
H 	H 	0.42580 0.47850 0.50540 -0.00600
C 	C 	0.46730 0.41160 0.48290 -0.13300
H 	H 	0.47950 0.38840 0.51000 0.08600
C 	C 	0.48090 0.39230 0.44380 0.06000
C 	C 	0.46160 0.42670 0.40480 -0.13600
H 	H 	0.47030 0.41490 0.37850 0.09100
C 	C 	0.42870 0.48010 0.40430 0.07700
H 	H 	0.41480 0.50040 0.37730 -0.01700
C 	C 	0.55610 0.13560 0.50160 0.05600
C 	C 	0.52840 0.10950 0.52590 -0.13500
H 	H 	0.50570 0.14270 0.52460 0.08100
C 	C 	0.53460 0.03500 0.55160 0.08500
H 	H 	0.51590 0.01920 0.56800 -0.01200
C 	C 	0.59360 0.00840 0.53110 0.06200
H 	H 	0.61580 0.97360 0.53280 -0.01100
C 	C 	0.58950 0.08410 0.50460 -0.12300
H 	H 	0.60890 0.10030 0.48910 0.08000
C 	C 	0.59280 0.30710 0.38430 0.07200
C 	C 	0.63010 0.26840 0.39060 -0.12800
H 	H 	0.63850 0.23160 0.41490 0.08800
C 	C 	0.65380 0.28470 0.36130 0.08300
H 	H 	0.67880 0.26080 0.36680 -0.01600
C 	C 	0.60720 0.37050 0.31750 0.08200
H 	H 	0.59930 0.40500 0.29220 -0.02100
C 	C 	0.58200 0.35850 0.34650 -0.13000
H 	H 	0.55760 0.38510 0.34060 0.09100
C 	C 	0.56700 0.29340 0.41620 0.10000
C 	C 	0.55080 0.21430 0.47230 0.08400
C 	C 	0.51480 0.33390 0.44470 0.08600
C 	C 	0.66400 0.95420 0.21090 0.07100
C 	C 	0.62730 0.92180 0.19070 -0.14000
H 	H 	0.61790 0.86750 0.19910 0.10000
C 	C 	0.60590 0.97390 0.15800 0.09500
H 	H 	0.58160 0.95290 0.14430 -0.01800
C 	C 	0.65270 0.08220 0.16480 0.07800
H 	H 	0.66120 0.13710 0.15600 -0.01400
C 	C 	0.67600 0.03510 0.19760 -0.14200
H 	H 	0.70010 0.05810 0.21090 0.08400
C 	C 	0.76950 0.93840 0.33590 0.05300
C 	C 	0.77760 0.02820 0.32950 -0.13200
H 	H 	0.76320 0.06010 0.30600 0.09200
C 	C 	0.80720 0.06880 0.35830 0.07000
H 	H 	0.81300 0.12840 0.35370 -0.00600
C 	C 	0.82020 0.94050 0.40010 0.07900
H 	H 	0.83440 0.91100 0.42460 -0.00500
C 	C 	0.79130 0.89430 0.37200 -0.12900
H 	H 	0.78650 0.83450 0.37720 0.08900
C 	C 	0.69640 0.67240 0.28300 0.06500
C 	C 	0.72050 0.61780 0.31310 -0.13500
H 	H 	0.74040 0.64210 0.33410 0.08600
C 	C 	0.71400 0.52610 0.31100 0.08000
H 	H 	0.72970 0.48960 0.33150 -0.01600
C 	C 	0.66380 0.54050 0.25220 0.07700
H 	H 	0.64450 0.51400 0.23120 -0.01900
C 	C 	0.66760 0.63330 0.25160 -0.13500
H 	H 	0.65130 0.66800 0.23090 0.09300
C 	C 	0.70300 0.77050 0.28150 0.10400
C 	C 	0.73830 0.89370 0.30450 0.08300
C 	C 	0.68820 0.90070 0.24630 0.09700
I 	I 	0.34925 0.57865 0.51422 -0.51600
I 	I 	0.63155 0.31740 0.20040 -0.29200
I 	I 	0.64289 0.31730 0.20470 -0.07600
I 	I 	0.39370 0.72430 0.38750 -0.30000
I 	I 	0.35076 0.61360 0.50260 0.13600
I 	I 	0.73400 0.26400 0.29710 -0.03900
I 	I 	0.60570 0.78800 0.54460 -0.09200
I 	I 	0.11604 0.26274 0.56035 -0.27200
I 	I 	0.02111 0.34419 0.63398 -0.35800
I 	I 	0.88913 0.22900 0.40194 -0.03500
I 	I 	0.24342 0.77574 0.31000 -0.33100
Zn	Zn	0.07910 0.37604 0.59794 1.16400
Zn	Zn	0.87093 0.08990 0.43810 1.15400
Zn	Zn	0.17796 0.85022 0.27825 1.15900
N 	N 	0.06610 0.48320 0.55480 -0.27100
N 	N 	0.91670 0.00250 0.44170 -0.27700
N 	N 	0.14270 0.83370 0.32460 -0.27800
N 	N 	0.03690 0.84920 0.41430 -0.13200
N 	N 	0.02090 0.76970 0.47560 -0.14500
N 	N 	0.07490 0.72390 0.44420 -0.13800
N 	N 	0.11750 0.55140 0.14490 -0.27400
N 	N 	0.32830 0.52530 0.39320 -0.27500
N 	N 	0.18630 0.98770 0.28110 -0.27700
N 	N 	0.17930 0.31570 0.25110 -0.13500
N 	N 	0.23270 0.30450 0.31010 -0.14000
N 	N 	0.21810 0.44310 0.27220 -0.14100
C 	C 	0.93520 0.96620 0.47970 0.08100
H 	H 	0.92580 0.97850 0.50540 -0.00600
C 	C 	0.96730 0.91160 0.48290 -0.13400
H 	H 	0.97950 0.88840 0.51000 0.08600
C 	C 	0.98090 0.89230 0.44380 0.06000
C 	C 	0.96160 0.92670 0.40480 -0.13600
H 	H 	0.97030 0.91490 0.37850 0.09100
C 	C 	0.92870 0.98010 0.40430 0.07700
H 	H 	0.91480 0.00040 0.37730 -0.01700
C 	C 	0.05610 0.63560 0.50160 0.05600
C 	C 	0.02840 0.60950 0.52590 -0.13500
H 	H 	0.00570 0.64270 0.52460 0.08100
C 	C 	0.03460 0.53500 0.55160 0.08500
H 	H 	0.01590 0.51920 0.56800 -0.01200
C 	C 	0.09360 0.50840 0.53110 0.06200
H 	H 	0.11580 0.47360 0.53280 -0.01100
C 	C 	0.08950 0.58410 0.50460 -0.12300
H 	H 	0.10890 0.60030 0.48910 0.08000
C 	C 	0.09280 0.80710 0.38430 0.07200
C 	C 	0.13010 0.76840 0.39060 -0.12800
H 	H 	0.13850 0.73160 0.41490 0.08800
C 	C 	0.15380 0.78470 0.36130 0.08300
H 	H 	0.17880 0.76080 0.36680 -0.01600
C 	C 	0.10720 0.87050 0.31750 0.08200
H 	H 	0.09930 0.90500 0.29220 -0.02100
C 	C 	0.08200 0.85850 0.34650 -0.13000
H 	H 	0.05760 0.88510 0.34060 0.09100
C 	C 	0.06700 0.79340 0.41620 0.10000
C 	C 	0.05080 0.71430 0.47230 0.08400
C 	C 	0.01480 0.83390 0.44470 0.08600
C 	C 	0.16400 0.45420 0.21090 0.07100
C 	C 	0.12730 0.42180 0.19070 -0.13900
H 	H 	0.11790 0.36750 0.19910 0.10000
C 	C 	0.10590 0.47390 0.15800 0.09500
H 	H 	0.08160 0.45290 0.14430 -0.01800
C 	C 	0.15270 0.58220 0.16480 0.07800
H 	H 	0.16120 0.63710 0.15600 -0.01400
C 	C 	0.17600 0.53510 0.19760 -0.14200
H 	H 	0.20010 0.55810 0.21090 0.08400
C 	C 	0.26950 0.43840 0.33590 0.05300
C 	C 	0.27760 0.52820 0.32950 -0.13200
H 	H 	0.26320 0.56010 0.30600 0.09200
C 	C 	0.30720 0.56880 0.35830 0.07000
H 	H 	0.31300 0.62840 0.35370 -0.00600
C 	C 	0.32020 0.44050 0.40010 0.07800
H 	H 	0.33440 0.41100 0.42460 -0.00500
C 	C 	0.29130 0.39430 0.37200 -0.12900
H 	H 	0.28650 0.33450 0.37720 0.08900
C 	C 	0.19640 0.17240 0.28300 0.06500
C 	C 	0.22050 0.11780 0.31310 -0.13500
H 	H 	0.24040 0.14210 0.33410 0.08600
C 	C 	0.21400 0.02610 0.31100 0.07900
H 	H 	0.22970 0.98960 0.33150 -0.01600
C 	C 	0.16380 0.04050 0.25220 0.07700
H 	H 	0.14450 0.01400 0.23120 -0.01900
C 	C 	0.16760 0.13330 0.25160 -0.13400
H 	H 	0.15130 0.16800 0.23090 0.09300
C 	C 	0.20300 0.27050 0.28150 0.10400
C 	C 	0.23830 0.39370 0.30450 0.08300
C 	C 	0.18820 0.40070 0.24630 0.09700
I 	I 	0.84925 0.07865 0.51422 -0.51600
I 	I 	0.13155 0.81740 0.20040 -0.29200
I 	I 	0.14289 0.81730 0.20470 -0.07600
I 	I 	0.89370 0.22430 0.38750 -0.30000
I 	I 	0.85076 0.11360 0.50260 0.13600
I 	I 	0.23400 0.76400 0.29710 -0.03900
I 	I 	0.10570 0.28800 0.54460 -0.09200
