data_crystal

_cell_length_a 35.35240
_cell_length_b 14.97970
_cell_length_c 31.02750
_cell_angle_alpha 90.00000
_cell_angle_beta  101.95100
_cell_angle_gamma 90.00000

_symmetry_space_group_name_	'P 1'
_symmetry_space_group_name_H-M	'P 1'

loop_
_symmetry_equiv_pos_as_xyz
  x,y,z

loop_
_atom_site_label
_atom_site_type_symbol
_atom_site_fract_x
_atom_site_fract_y
_atom_site_fract_z
_atom_site_charge
I 	I 	0.97506 0.64936 0.86861 -0.34900
I 	I 	0.26260 0.26685 0.69743 -0.37900
I 	I 	0.88102 0.73440 0.93903 -0.37600
I 	I 	0.36760 0.32393 0.79978 -0.39700
I 	I 	0.64573 0.58575 0.49128 -0.38700
I 	I 	0.60607 0.73323 0.60457 -0.92500
Zn	Zn	0.91854 0.61900 0.90539 1.16600
Zn	Zn	0.32500 0.35313 0.72430 1.16400
Zn	Zn	0.62560 0.59017 0.56492 1.15400
N 	N 	0.81405 0.98930 0.72099 -0.27200
N 	N 	0.43201 0.98460 0.45001 -0.27200
N 	N 	0.88012 0.54910 0.85730 -0.26800
N 	N 	0.81919 0.31560 0.75045 -0.13300
N 	N 	0.66843 0.52610 0.60920 -0.27700
N 	N 	0.35861 0.33800 0.67760 -0.27400
N 	N 	0.78032 0.44300 0.72848 -0.14200
N 	N 	0.42516 0.22310 0.56147 -0.13700
N 	N 	0.76526 0.30480 0.69105 -0.14000
N 	N 	0.58010 0.50350 0.56160 -0.27900
N 	N 	0.46234 0.34980 0.58976 -0.13200
C 	C 	0.89000 0.46770 0.84680 0.08100
H 	H 	0.91370 0.44330 0.86250 -0.00100
C 	C 	0.83440 0.45350 0.78990 0.06200
C 	C 	0.44297 0.13300 0.50430 0.04800
C 	C 	0.79505 0.27030 0.71960 0.10600
C 	C 	0.72755 0.43800 0.66540 0.05300
C 	C 	0.48328 0.33460 0.55930 0.09100
C 	C 	0.46945 0.11180 0.47840 -0.11400
H 	H 	0.49140 0.14850 0.47890 0.07400
C 	C 	0.78330 0.02480 0.69430 0.07100
H 	H 	0.76540 0.98620 0.67620 -0.01200
C 	C 	0.83880 0.04380 0.74640 0.07000
H 	H 	0.86100 0.01890 0.76510 -0.01300
C 	C 	0.44857 0.21320 0.53300 0.08800
C 	C 	0.34700 0.28860 0.64140 0.07000
H 	H 	0.32160 0.26450 0.63570 -0.01100
C 	C 	0.75937 0.39170 0.69680 0.08800
C 	C 	0.71830 0.52480 0.67330 -0.12600
H 	H 	0.73220 0.55540 0.69850 0.09000
C 	C 	0.84790 0.58540 0.83380 0.06800
H 	H 	0.84090 0.64420 0.84050 -0.00700
C 	C 	0.40721 0.30960 0.61950 0.06000
C 	C 	0.80979 0.40140 0.75380 0.10300
C 	C 	0.51710 0.39320 0.55960 0.05600
C 	C 	0.46340 0.03690 0.45230 0.06800
H 	H 	0.48190 0.02160 0.43520 -0.00500
C 	C 	0.56330 0.46330 0.52490 0.08100
H 	H 	0.57300 0.47330 0.49890 -0.00800
C 	C 	0.82450 0.53940 0.79970 -0.12400
H 	H 	0.80180 0.56660 0.78320 0.07800
C 	C 	0.43270 0.29270 0.58840 0.10700
C 	C 	0.80160 0.17230 0.71890 0.06000
C 	C 	0.41120 0.07740 0.50230 -0.12700
H 	H 	0.39270 0.08940 0.51990 0.07800
C 	C 	0.40710 0.00680 0.47540 0.07500
H 	H 	0.38500 0.97000 0.47410 -0.01700
C 	C 	0.41870 0.36300 0.65630 -0.11400
H 	H 	0.44340 0.39090 0.66190 0.08400
C 	C 	0.70610 0.39420 0.62970 -0.12200
H 	H 	0.71100 0.33360 0.62380 0.08800
C 	C 	0.68900 0.56740 0.64470 0.07000
H 	H 	0.68310 0.62770 0.65020 -0.00300
C 	C 	0.83370 0.13510 0.74650 -0.12200
H 	H 	0.85180 0.17210 0.76530 0.09200
C 	C 	0.53180 0.40670 0.52290 -0.12700
H 	H 	0.52060 0.37750 0.49610 0.08200
C 	C 	0.67680 0.44220 0.60250 0.07800
H 	H 	0.66200 0.41270 0.57760 -0.00300
C 	C 	0.37030 0.27140 0.61230 -0.11300
H 	H 	0.36160 0.23390 0.58760 0.08200
C 	C 	0.77650 0.11600 0.69200 -0.12200
H 	H 	0.75460 0.13930 0.67200 0.07900
C 	C 	0.86780 0.41710 0.81420 -0.12400
H 	H 	0.87530 0.35800 0.80860 0.10800
C 	C 	0.39370 0.37500 0.68460 0.07200
H 	H 	0.40180 0.41100 0.71010 -0.01500
C 	C 	0.56810 0.48560 0.59750 0.08800
H 	H 	0.58160 0.51150 0.62420 -0.01200
C 	C 	0.53650 0.43030 0.59910 -0.12500
H 	H 	0.52860 0.41860 0.62610 0.08900
N 	N 	0.47728 0.26920 0.52927 -0.14600
I 	I 	0.61749 0.73355 0.58493 0.54100
I 	I 	0.47506 0.14936 0.86861 -0.35000
I 	I 	0.76260 0.76685 0.69743 -0.38000
I 	I 	0.38102 0.23440 0.93903 -0.37700
I 	I 	0.86760 0.82393 0.79978 -0.39800
I 	I 	0.14573 0.08575 0.49128 -0.38800
I 	I 	0.10607 0.23323 0.60457 -0.92600
Zn	Zn	0.41854 0.11900 0.90539 1.16500
Zn	Zn	0.82500 0.85313 0.72430 1.16300
Zn	Zn	0.12560 0.09017 0.56492 1.15300
N 	N 	0.31405 0.48930 0.72099 -0.27300
N 	N 	0.93201 0.48460 0.45001 -0.27300
N 	N 	0.38012 0.04910 0.85730 -0.26900
N 	N 	0.31919 0.81560 0.75045 -0.13300
N 	N 	0.16843 0.02610 0.60920 -0.27700
N 	N 	0.85861 0.83800 0.67760 -0.27400
N 	N 	0.28032 0.94300 0.72848 -0.14200
N 	N 	0.92516 0.72310 0.56147 -0.13700
N 	N 	0.26526 0.80480 0.69105 -0.14000
N 	N 	0.08010 0.00350 0.56160 -0.27900
N 	N 	0.96234 0.84980 0.58976 -0.13200
C 	C 	0.39000 0.96770 0.84680 0.08200
H 	H 	0.41370 0.94330 0.86250 -0.00100
C 	C 	0.33440 0.95350 0.78990 0.06200
C 	C 	0.94297 0.63300 0.50430 0.04800
C 	C 	0.29505 0.77030 0.71960 0.10600
C 	C 	0.22755 0.93800 0.66540 0.05300
C 	C 	0.98328 0.83460 0.55930 0.09100
C 	C 	0.96945 0.61180 0.47840 -0.11400
H 	H 	0.99140 0.64850 0.47890 0.07400
C 	C 	0.28330 0.52480 0.69430 0.07100
H 	H 	0.26540 0.48620 0.67620 -0.01200
C 	C 	0.33880 0.54380 0.74640 0.07000
H 	H 	0.36100 0.51890 0.76510 -0.01300
C 	C 	0.94857 0.71320 0.53300 0.08800
C 	C 	0.84700 0.78860 0.64140 0.07000
H 	H 	0.82160 0.76450 0.63570 -0.01100
C 	C 	0.25937 0.89170 0.69680 0.08800
C 	C 	0.21830 0.02480 0.67330 -0.12600
H 	H 	0.23220 0.05540 0.69850 0.09000
C 	C 	0.34790 0.08540 0.83380 0.06800
H 	H 	0.34090 0.14420 0.84050 -0.00700
C 	C 	0.90721 0.80960 0.61950 0.06000
C 	C 	0.30979 0.90140 0.75380 0.10300
C 	C 	0.01710 0.89320 0.55960 0.05600
C 	C 	0.96340 0.53690 0.45230 0.06800
H 	H 	0.98190 0.52160 0.43520 -0.00500
C 	C 	0.06330 0.96330 0.52490 0.08100
H 	H 	0.07300 0.97330 0.49890 -0.00800
C 	C 	0.32450 0.03940 0.79970 -0.12400
H 	H 	0.30180 0.06660 0.78320 0.07800
C 	C 	0.93270 0.79270 0.58840 0.10700
C 	C 	0.30160 0.67230 0.71890 0.06000
C 	C 	0.91120 0.57740 0.50230 -0.12700
H 	H 	0.89270 0.58940 0.51990 0.07800
C 	C 	0.90710 0.50680 0.47540 0.07500
H 	H 	0.88500 0.47000 0.47410 -0.01700
C 	C 	0.91870 0.86300 0.65630 -0.11400
H 	H 	0.94340 0.89090 0.66190 0.08400
C 	C 	0.20610 0.89420 0.62970 -0.12200
H 	H 	0.21100 0.83360 0.62380 0.08800
C 	C 	0.18900 0.06740 0.64470 0.07000
H 	H 	0.18310 0.12770 0.65020 -0.00300
C 	C 	0.33370 0.63510 0.74650 -0.12200
H 	H 	0.35180 0.67210 0.76530 0.09200
C 	C 	0.03180 0.90670 0.52290 -0.12700
H 	H 	0.02060 0.87750 0.49610 0.08200
C 	C 	0.17680 0.94220 0.60250 0.07800
H 	H 	0.16200 0.91270 0.57760 -0.00300
C 	C 	0.87030 0.77140 0.61230 -0.11300
H 	H 	0.86160 0.73390 0.58760 0.08200
C 	C 	0.27650 0.61600 0.69200 -0.12200
H 	H 	0.25460 0.63930 0.67200 0.07900
C 	C 	0.36780 0.91710 0.81420 -0.12400
H 	H 	0.37530 0.85800 0.80860 0.10800
C 	C 	0.89370 0.87500 0.68460 0.07200
H 	H 	0.90180 0.91100 0.71010 -0.01500
C 	C 	0.06810 0.98560 0.59750 0.08800
H 	H 	0.08160 0.01150 0.62420 -0.01200
C 	C 	0.03650 0.93030 0.59910 -0.12500
H 	H 	0.02860 0.91860 0.62610 0.08900
N 	N 	0.97728 0.76920 0.52927 -0.14600
I 	I 	0.11749 0.23355 0.58493 0.54100
I 	I 	0.97506 0.35064 0.36861 -0.35000
I 	I 	0.26260 0.73315 0.19743 -0.38000
I 	I 	0.88102 0.26560 0.43903 -0.37700
I 	I 	0.36760 0.67607 0.29978 -0.39800
I 	I 	0.64573 0.41425 0.99128 -0.38800
I 	I 	0.60607 0.26677 0.10457 -0.92600
Zn	Zn	0.91854 0.38100 0.40539 1.16500
Zn	Zn	0.32500 0.64687 0.22430 1.16300
Zn	Zn	0.62560 0.40983 0.06492 1.15300
N 	N 	0.81405 0.01070 0.22099 -0.27300
N 	N 	0.43201 0.01540 0.95001 -0.27300
N 	N 	0.88012 0.45090 0.35730 -0.26900
N 	N 	0.81919 0.68440 0.25045 -0.13300
N 	N 	0.66843 0.47390 0.10920 -0.27700
N 	N 	0.35861 0.66200 0.17760 -0.27400
N 	N 	0.78032 0.55700 0.22848 -0.14200
N 	N 	0.42516 0.77690 0.06147 -0.13700
N 	N 	0.76526 0.69520 0.19105 -0.14000
N 	N 	0.58010 0.49650 0.06160 -0.27900
N 	N 	0.46234 0.65020 0.08976 -0.13200
C 	C 	0.89000 0.53230 0.34680 0.08100
H 	H 	0.91370 0.55670 0.36250 -0.00100
C 	C 	0.83440 0.54650 0.28990 0.06200
C 	C 	0.44297 0.86700 0.00430 0.04800
C 	C 	0.79505 0.72970 0.21960 0.10600
C 	C 	0.72755 0.56200 0.16540 0.05300
C 	C 	0.48328 0.66540 0.05930 0.09100
C 	C 	0.46945 0.88820 0.97840 -0.11400
H 	H 	0.49140 0.85150 0.97890 0.07400
C 	C 	0.78330 0.97520 0.19430 0.07100
H 	H 	0.76540 0.01380 0.17620 -0.01200
C 	C 	0.83880 0.95620 0.24640 0.07000
H 	H 	0.86100 0.98110 0.26510 -0.01300
C 	C 	0.44857 0.78680 0.03300 0.08800
C 	C 	0.34700 0.71140 0.14140 0.07000
H 	H 	0.32160 0.73550 0.13570 -0.01100
C 	C 	0.75937 0.60830 0.19680 0.08800
C 	C 	0.71830 0.47520 0.17330 -0.12600
H 	H 	0.73220 0.44460 0.19850 0.09000
C 	C 	0.84790 0.41460 0.33380 0.06800
H 	H 	0.84090 0.35580 0.34050 -0.00700
C 	C 	0.40721 0.69040 0.11950 0.06000
C 	C 	0.80979 0.59860 0.25380 0.10300
C 	C 	0.51710 0.60680 0.05960 0.05600
C 	C 	0.46340 0.96310 0.95230 0.06800
H 	H 	0.48190 0.97840 0.93520 -0.00500
C 	C 	0.56330 0.53670 0.02490 0.08100
H 	H 	0.57300 0.52670 0.99890 -0.00800
C 	C 	0.82450 0.46060 0.29970 -0.12400
H 	H 	0.80180 0.43340 0.28320 0.07800
C 	C 	0.43270 0.70730 0.08840 0.10700
C 	C 	0.80160 0.82770 0.21890 0.06000
C 	C 	0.41120 0.92260 0.00230 -0.12700
H 	H 	0.39270 0.91060 0.01990 0.07800
C 	C 	0.40710 0.99320 0.97540 0.07600
H 	H 	0.38500 0.03000 0.97410 -0.01700
C 	C 	0.41870 0.63700 0.15630 -0.11400
H 	H 	0.44340 0.60910 0.16190 0.08400
C 	C 	0.70610 0.60580 0.12970 -0.12200
H 	H 	0.71100 0.66640 0.12380 0.08800
C 	C 	0.68900 0.43260 0.14470 0.07000
H 	H 	0.68310 0.37230 0.15020 -0.00300
C 	C 	0.83370 0.86490 0.24650 -0.12200
H 	H 	0.85180 0.82790 0.26530 0.09200
C 	C 	0.53180 0.59330 0.02290 -0.12800
H 	H 	0.52060 0.62250 0.99610 0.08200
C 	C 	0.67680 0.55780 0.10250 0.07800
H 	H 	0.66200 0.58730 0.07760 -0.00300
C 	C 	0.37030 0.72860 0.11230 -0.11300
H 	H 	0.36160 0.76610 0.08760 0.08200
C 	C 	0.77650 0.88400 0.19200 -0.12200
H 	H 	0.75460 0.86070 0.17200 0.07900
C 	C 	0.86780 0.58290 0.31420 -0.12400
H 	H 	0.87530 0.64200 0.30860 0.10800
C 	C 	0.39370 0.62500 0.18460 0.07200
H 	H 	0.40180 0.58900 0.21010 -0.01500
C 	C 	0.56810 0.51440 0.09750 0.08800
H 	H 	0.58160 0.48850 0.12420 -0.01200
C 	C 	0.53650 0.56970 0.09910 -0.12500
H 	H 	0.52860 0.58140 0.12610 0.08900
N 	N 	0.47728 0.73080 0.02927 -0.14600
I 	I 	0.61749 0.26645 0.08493 0.54100
I 	I 	0.47506 0.85064 0.36861 -0.34900
I 	I 	0.76260 0.23315 0.19743 -0.38000
I 	I 	0.38102 0.76560 0.43903 -0.37700
I 	I 	0.86760 0.17607 0.29978 -0.39800
I 	I 	0.14573 0.91425 0.99128 -0.38800
I 	I 	0.10607 0.76677 0.10457 -0.92700
Zn	Zn	0.41854 0.88100 0.40539 1.16500
Zn	Zn	0.82500 0.14687 0.22430 1.16300
Zn	Zn	0.12560 0.90983 0.06492 1.15300
N 	N 	0.31405 0.51070 0.22099 -0.27300
N 	N 	0.93201 0.51540 0.95001 -0.27300
N 	N 	0.38012 0.95090 0.35730 -0.26900
N 	N 	0.31919 0.18440 0.25045 -0.13300
N 	N 	0.16843 0.97390 0.10920 -0.27700
N 	N 	0.85861 0.16200 0.17760 -0.27400
N 	N 	0.28032 0.05700 0.22848 -0.14200
N 	N 	0.92516 0.27690 0.06147 -0.13700
N 	N 	0.26526 0.19520 0.19105 -0.14000
N 	N 	0.08010 0.99650 0.06160 -0.27900
N 	N 	0.96234 0.15020 0.08976 -0.13200
C 	C 	0.39000 0.03230 0.34680 0.08100
H 	H 	0.41370 0.05670 0.36250 -0.00100
C 	C 	0.33440 0.04650 0.28990 0.06200
C 	C 	0.94297 0.36700 0.00430 0.04800
C 	C 	0.29505 0.22970 0.21960 0.10600
C 	C 	0.22755 0.06200 0.16540 0.05300
C 	C 	0.98328 0.16540 0.05930 0.09100
C 	C 	0.96945 0.38820 0.97840 -0.11400
H 	H 	0.99140 0.35150 0.97890 0.07400
C 	C 	0.28330 0.47520 0.19430 0.07100
H 	H 	0.26540 0.51380 0.17620 -0.01200
C 	C 	0.33880 0.45620 0.24640 0.07000
H 	H 	0.36100 0.48110 0.26510 -0.01300
C 	C 	0.94857 0.28680 0.03300 0.08800
C 	C 	0.84700 0.21140 0.14140 0.07000
H 	H 	0.82160 0.23550 0.13570 -0.01100
C 	C 	0.25937 0.10830 0.19680 0.08800
C 	C 	0.21830 0.97520 0.17330 -0.12600
H 	H 	0.23220 0.94460 0.19850 0.09000
C 	C 	0.34790 0.91460 0.33380 0.06800
H 	H 	0.34090 0.85580 0.34050 -0.00700
C 	C 	0.90721 0.19040 0.11950 0.06000
C 	C 	0.30979 0.09860 0.25380 0.10300
C 	C 	0.01710 0.10680 0.05960 0.05600
C 	C 	0.96340 0.46310 0.95230 0.06800
H 	H 	0.98190 0.47840 0.93520 -0.00500
C 	C 	0.06330 0.03670 0.02490 0.08100
H 	H 	0.07300 0.02670 0.99890 -0.00900
C 	C 	0.32450 0.96060 0.29970 -0.12400
H 	H 	0.30180 0.93340 0.28320 0.07800
C 	C 	0.93270 0.20730 0.08840 0.10700
C 	C 	0.30160 0.32770 0.21890 0.06000
C 	C 	0.91120 0.42260 0.00230 -0.12700
H 	H 	0.89270 0.41060 0.01990 0.07800
C 	C 	0.90710 0.49320 0.97540 0.07500
H 	H 	0.88500 0.53000 0.97410 -0.01700
C 	C 	0.91870 0.13700 0.15630 -0.11400
H 	H 	0.94340 0.10910 0.16190 0.08400
C 	C 	0.20610 0.10580 0.12970 -0.12200
H 	H 	0.21100 0.16640 0.12380 0.08800
C 	C 	0.18900 0.93260 0.14470 0.07000
H 	H 	0.18310 0.87230 0.15020 -0.00300
C 	C 	0.33370 0.36490 0.24650 -0.12200
H 	H 	0.35180 0.32790 0.26530 0.09200
C 	C 	0.03180 0.09330 0.02290 -0.12800
H 	H 	0.02060 0.12250 0.99610 0.08200
C 	C 	0.17680 0.05780 0.10250 0.07800
H 	H 	0.16200 0.08730 0.07760 -0.00300
C 	C 	0.87030 0.22860 0.11230 -0.11300
H 	H 	0.86160 0.26610 0.08760 0.08200
C 	C 	0.27650 0.38400 0.19200 -0.12200
H 	H 	0.25460 0.36070 0.17200 0.07900
C 	C 	0.36780 0.08290 0.31420 -0.12400
H 	H 	0.37530 0.14200 0.30860 0.10800
C 	C 	0.89370 0.12500 0.18460 0.07200
H 	H 	0.90180 0.08900 0.21010 -0.01500
C 	C 	0.06810 0.01440 0.09750 0.08800
H 	H 	0.08160 0.98850 0.12420 -0.01300
C 	C 	0.03650 0.06970 0.09910 -0.12500
H 	H 	0.02860 0.08140 0.12610 0.08900
N 	N 	0.97728 0.23080 0.02927 -0.14600
I 	I 	0.11749 0.76645 0.08493 0.54100
I 	I 	0.02494 0.64936 0.63139 -0.35000
I 	I 	0.73740 0.26685 0.80257 -0.38000
I 	I 	0.11898 0.73440 0.56097 -0.37700
I 	I 	0.63240 0.32393 0.70022 -0.39800
I 	I 	0.35427 0.58575 0.00872 -0.38800
I 	I 	0.39393 0.73323 0.89543 -0.92600
Zn	Zn	0.08146 0.61900 0.59461 1.16500
Zn	Zn	0.67500 0.35313 0.77570 1.16300
Zn	Zn	0.37440 0.59017 0.93508 1.15300
N 	N 	0.18595 0.98930 0.77901 -0.27300
N 	N 	0.56799 0.98460 0.04999 -0.27300
N 	N 	0.11988 0.54910 0.64270 -0.26900
N 	N 	0.18081 0.31560 0.74955 -0.13300
N 	N 	0.33157 0.52610 0.89080 -0.27700
N 	N 	0.64139 0.33800 0.82240 -0.27400
N 	N 	0.21968 0.44300 0.77152 -0.14200
N 	N 	0.57484 0.22310 0.93853 -0.13700
N 	N 	0.23474 0.30480 0.80895 -0.14000
N 	N 	0.41990 0.50350 0.93840 -0.27900
N 	N 	0.53766 0.34980 0.91024 -0.13200
C 	C 	0.11000 0.46770 0.65320 0.08100
H 	H 	0.08630 0.44330 0.63750 -0.00100
C 	C 	0.16560 0.45350 0.71010 0.06200
C 	C 	0.55703 0.13300 0.99570 0.04800
C 	C 	0.20495 0.27030 0.78040 0.10600
C 	C 	0.27245 0.43800 0.83460 0.05300
C 	C 	0.51672 0.33460 0.94070 0.09100
C 	C 	0.53055 0.11180 0.02160 -0.11400
H 	H 	0.50860 0.14850 0.02110 0.07400
C 	C 	0.21670 0.02480 0.80570 0.07100
H 	H 	0.23460 0.98620 0.82380 -0.01200
C 	C 	0.16120 0.04380 0.75360 0.07000
H 	H 	0.13900 0.01890 0.73490 -0.01300
C 	C 	0.55143 0.21320 0.96700 0.08800
C 	C 	0.65300 0.28860 0.85860 0.07000
H 	H 	0.67840 0.26450 0.86430 -0.01100
C 	C 	0.24063 0.39170 0.80320 0.08800
C 	C 	0.28170 0.52480 0.82670 -0.12600
H 	H 	0.26780 0.55540 0.80150 0.09000
C 	C 	0.15210 0.58540 0.66620 0.06800
H 	H 	0.15910 0.64420 0.65950 -0.00700
C 	C 	0.59279 0.30960 0.88050 0.06000
C 	C 	0.19021 0.40140 0.74620 0.10300
C 	C 	0.48290 0.39320 0.94040 0.05600
C 	C 	0.53660 0.03690 0.04770 0.06800
H 	H 	0.51810 0.02160 0.06480 -0.00500
C 	C 	0.43670 0.46330 0.97510 0.08100
H 	H 	0.42700 0.47330 0.00110 -0.00800
C 	C 	0.17550 0.53940 0.70030 -0.12400
H 	H 	0.19820 0.56660 0.71680 0.07800
C 	C 	0.56730 0.29270 0.91160 0.10700
C 	C 	0.19840 0.17230 0.78110 0.06000
C 	C 	0.58880 0.07740 0.99770 -0.12700
H 	H 	0.60730 0.08940 0.98010 0.07800
C 	C 	0.59290 0.00680 0.02460 0.07600
H 	H 	0.61500 0.97000 0.02590 -0.01700
C 	C 	0.58130 0.36300 0.84370 -0.11400
H 	H 	0.55660 0.39090 0.83810 0.08400
C 	C 	0.29390 0.39420 0.87030 -0.12200
H 	H 	0.28900 0.33360 0.87620 0.08800
C 	C 	0.31100 0.56740 0.85530 0.07000
H 	H 	0.31690 0.62770 0.84980 -0.00300
C 	C 	0.16630 0.13510 0.75350 -0.12200
H 	H 	0.14820 0.17210 0.73470 0.09200
C 	C 	0.46820 0.40670 0.97710 -0.12800
H 	H 	0.47940 0.37750 0.00390 0.08200
C 	C 	0.32320 0.44220 0.89750 0.07800
H 	H 	0.33800 0.41270 0.92240 -0.00300
C 	C 	0.62970 0.27140 0.88770 -0.11300
H 	H 	0.63840 0.23390 0.91240 0.08200
C 	C 	0.22350 0.11600 0.80800 -0.12200
H 	H 	0.24540 0.13930 0.82800 0.07900
C 	C 	0.13220 0.41710 0.68580 -0.12400
H 	H 	0.12470 0.35800 0.69140 0.10800
C 	C 	0.60630 0.37500 0.81540 0.07200
H 	H 	0.59820 0.41100 0.78990 -0.01500
C 	C 	0.43190 0.48560 0.90250 0.08800
H 	H 	0.41840 0.51150 0.87580 -0.01200
C 	C 	0.46350 0.43030 0.90090 -0.12500
H 	H 	0.47140 0.41860 0.87390 0.08900
N 	N 	0.52272 0.26920 0.97073 -0.14600
I 	I 	0.38251 0.73355 0.91507 0.54100
I 	I 	0.52494 0.14936 0.63139 -0.34900
I 	I 	0.23740 0.76685 0.80257 -0.38000
I 	I 	0.61898 0.23440 0.56097 -0.37700
I 	I 	0.13240 0.82393 0.70022 -0.39800
I 	I 	0.85427 0.08575 0.00872 -0.38800
I 	I 	0.89393 0.23323 0.89543 -0.92700
Zn	Zn	0.58146 0.11900 0.59461 1.16500
Zn	Zn	0.17500 0.85313 0.77570 1.16300
Zn	Zn	0.87440 0.09017 0.93508 1.15300
N 	N 	0.68595 0.48930 0.77901 -0.27300
N 	N 	0.06799 0.48460 0.04999 -0.27300
N 	N 	0.61988 0.04910 0.64270 -0.26900
N 	N 	0.68081 0.81560 0.74955 -0.13300
N 	N 	0.83157 0.02610 0.89080 -0.27700
N 	N 	0.14139 0.83800 0.82240 -0.27400
N 	N 	0.71968 0.94300 0.77152 -0.14200
N 	N 	0.07484 0.72310 0.93853 -0.13700
N 	N 	0.73474 0.80480 0.80895 -0.14000
N 	N 	0.91990 0.00350 0.93840 -0.27900
N 	N 	0.03766 0.84980 0.91024 -0.13200
C 	C 	0.61000 0.96770 0.65320 0.08100
H 	H 	0.58630 0.94330 0.63750 -0.00100
C 	C 	0.66560 0.95350 0.71010 0.06200
C 	C 	0.05703 0.63300 0.99570 0.04800
C 	C 	0.70495 0.77030 0.78040 0.10600
C 	C 	0.77245 0.93800 0.83460 0.05300
C 	C 	0.01672 0.83460 0.94070 0.09100
C 	C 	0.03055 0.61180 0.02160 -0.11400
H 	H 	0.00860 0.64850 0.02110 0.07400
C 	C 	0.71670 0.52480 0.80570 0.07100
H 	H 	0.73460 0.48620 0.82380 -0.01200
C 	C 	0.66120 0.54380 0.75360 0.07000
H 	H 	0.63900 0.51890 0.73490 -0.01300
C 	C 	0.05143 0.71320 0.96700 0.08800
C 	C 	0.15300 0.78860 0.85860 0.07000
H 	H 	0.17840 0.76450 0.86430 -0.01100
C 	C 	0.74063 0.89170 0.80320 0.08800
C 	C 	0.78170 0.02480 0.82670 -0.12600
H 	H 	0.76780 0.05540 0.80150 0.09000
C 	C 	0.65210 0.08540 0.66620 0.06800
H 	H 	0.65910 0.14420 0.65950 -0.00700
C 	C 	0.09279 0.80960 0.88050 0.06000
C 	C 	0.69021 0.90140 0.74620 0.10300
C 	C 	0.98290 0.89320 0.94040 0.05600
C 	C 	0.03660 0.53690 0.04770 0.06800
H 	H 	0.01810 0.52160 0.06480 -0.00500
C 	C 	0.93670 0.96330 0.97510 0.08100
H 	H 	0.92700 0.97330 0.00110 -0.00900
C 	C 	0.67550 0.03940 0.70030 -0.12400
H 	H 	0.69820 0.06660 0.71680 0.07800
C 	C 	0.06730 0.79270 0.91160 0.10700
C 	C 	0.69840 0.67230 0.78110 0.06000
C 	C 	0.08880 0.57740 0.99770 -0.12700
H 	H 	0.10730 0.58940 0.98010 0.07800
C 	C 	0.09290 0.50680 0.02460 0.07500
H 	H 	0.11500 0.47000 0.02590 -0.01700
C 	C 	0.08130 0.86300 0.84370 -0.11400
H 	H 	0.05660 0.89090 0.83810 0.08400
C 	C 	0.79390 0.89420 0.87030 -0.12200
H 	H 	0.78900 0.83360 0.87620 0.08800
C 	C 	0.81100 0.06740 0.85530 0.07000
H 	H 	0.81690 0.12770 0.84980 -0.00300
C 	C 	0.66630 0.63510 0.75350 -0.12200
H 	H 	0.64820 0.67210 0.73470 0.09200
C 	C 	0.96820 0.90670 0.97710 -0.12800
H 	H 	0.97940 0.87750 0.00390 0.08200
C 	C 	0.82320 0.94220 0.89750 0.07800
H 	H 	0.83800 0.91270 0.92240 -0.00300
C 	C 	0.12970 0.77140 0.88770 -0.11300
H 	H 	0.13840 0.73390 0.91240 0.08200
C 	C 	0.72350 0.61600 0.80800 -0.12200
H 	H 	0.74540 0.63930 0.82800 0.07900
C 	C 	0.63220 0.91710 0.68580 -0.12400
H 	H 	0.62470 0.85800 0.69140 0.10800
C 	C 	0.10630 0.87500 0.81540 0.07200
H 	H 	0.09820 0.91100 0.78990 -0.01500
C 	C 	0.93190 0.98560 0.90250 0.08800
H 	H 	0.91840 0.01150 0.87580 -0.01300
C 	C 	0.96350 0.93030 0.90090 -0.12500
H 	H 	0.97140 0.91860 0.87390 0.08900
N 	N 	0.02272 0.76920 0.97073 -0.14600
I 	I 	0.88251 0.23355 0.91507 0.54100
I 	I 	0.02494 0.35064 0.13139 -0.35000
I 	I 	0.73740 0.73315 0.30257 -0.38000
I 	I 	0.11898 0.26560 0.06097 -0.37700
I 	I 	0.63240 0.67607 0.20022 -0.39800
I 	I 	0.35427 0.41425 0.50872 -0.38800
I 	I 	0.39393 0.26677 0.39543 -0.92600
Zn	Zn	0.08146 0.38100 0.09461 1.16500
Zn	Zn	0.67500 0.64687 0.27570 1.16300
Zn	Zn	0.37440 0.40983 0.43508 1.15300
N 	N 	0.18595 0.01070 0.27901 -0.27300
N 	N 	0.56799 0.01540 0.54999 -0.27300
N 	N 	0.11988 0.45090 0.14270 -0.26900
N 	N 	0.18081 0.68440 0.24955 -0.13300
N 	N 	0.33157 0.47390 0.39080 -0.27700
N 	N 	0.64139 0.66200 0.32240 -0.27400
N 	N 	0.21968 0.55700 0.27152 -0.14200
N 	N 	0.57484 0.77690 0.43853 -0.13700
N 	N 	0.23474 0.69520 0.30895 -0.14000
N 	N 	0.41990 0.49650 0.43840 -0.27900
N 	N 	0.53766 0.65020 0.41024 -0.13200
C 	C 	0.11000 0.53230 0.15320 0.08100
H 	H 	0.08630 0.55670 0.13750 -0.00100
C 	C 	0.16560 0.54650 0.21010 0.06200
C 	C 	0.55703 0.86700 0.49570 0.04800
C 	C 	0.20495 0.72970 0.28040 0.10600
C 	C 	0.27245 0.56200 0.33460 0.05300
C 	C 	0.51672 0.66540 0.44070 0.09100
C 	C 	0.53055 0.88820 0.52160 -0.11400
H 	H 	0.50860 0.85150 0.52110 0.07400
C 	C 	0.21670 0.97520 0.30570 0.07100
H 	H 	0.23460 0.01380 0.32380 -0.01200
C 	C 	0.16120 0.95620 0.25360 0.07000
H 	H 	0.13900 0.98110 0.23490 -0.01300
C 	C 	0.55143 0.78680 0.46700 0.08800
C 	C 	0.65300 0.71140 0.35860 0.07000
H 	H 	0.67840 0.73550 0.36430 -0.01100
C 	C 	0.24063 0.60830 0.30320 0.08800
C 	C 	0.28170 0.47520 0.32670 -0.12600
H 	H 	0.26780 0.44460 0.30150 0.09000
C 	C 	0.15210 0.41460 0.16620 0.06800
H 	H 	0.15910 0.35580 0.15950 -0.00700
C 	C 	0.59279 0.69040 0.38050 0.06000
C 	C 	0.19021 0.59860 0.24620 0.10300
C 	C 	0.48290 0.60680 0.44040 0.05600
C 	C 	0.53660 0.96310 0.54770 0.06800
H 	H 	0.51810 0.97840 0.56480 -0.00500
C 	C 	0.43670 0.53670 0.47510 0.08100
H 	H 	0.42700 0.52670 0.50110 -0.00800
C 	C 	0.17550 0.46060 0.20030 -0.12400
H 	H 	0.19820 0.43340 0.21680 0.07800
C 	C 	0.56730 0.70730 0.41160 0.10700
C 	C 	0.19840 0.82770 0.28110 0.06000
C 	C 	0.58880 0.92260 0.49770 -0.12700
H 	H 	0.60730 0.91060 0.48010 0.07800
C 	C 	0.59290 0.99320 0.52460 0.07500
H 	H 	0.61500 0.03000 0.52590 -0.01700
C 	C 	0.58130 0.63700 0.34370 -0.11400
H 	H 	0.55660 0.60910 0.33810 0.08400
C 	C 	0.29390 0.60580 0.37030 -0.12200
H 	H 	0.28900 0.66640 0.37620 0.08800
C 	C 	0.31100 0.43260 0.35530 0.07000
H 	H 	0.31690 0.37230 0.34980 -0.00300
C 	C 	0.16630 0.86490 0.25350 -0.12200
H 	H 	0.14820 0.82790 0.23470 0.09200
C 	C 	0.46820 0.59330 0.47710 -0.12700
H 	H 	0.47940 0.62250 0.50390 0.08200
C 	C 	0.32320 0.55780 0.39750 0.07800
H 	H 	0.33800 0.58730 0.42240 -0.00300
C 	C 	0.62970 0.72860 0.38770 -0.11300
H 	H 	0.63840 0.76610 0.41240 0.08200
C 	C 	0.22350 0.88400 0.30800 -0.12200
H 	H 	0.24540 0.86070 0.32800 0.07900
C 	C 	0.13220 0.58290 0.18580 -0.12400
H 	H 	0.12470 0.64200 0.19140 0.10800
C 	C 	0.60630 0.62500 0.31540 0.07200
H 	H 	0.59820 0.58900 0.28990 -0.01500
C 	C 	0.43190 0.51440 0.40250 0.08800
H 	H 	0.41840 0.48850 0.37580 -0.01200
C 	C 	0.46350 0.56970 0.40090 -0.12500
H 	H 	0.47140 0.58140 0.37390 0.08900
N 	N 	0.52272 0.73080 0.47073 -0.14600
I 	I 	0.38251 0.26645 0.41507 0.54100
I 	I 	0.52494 0.85064 0.13139 -0.35000
I 	I 	0.23740 0.23315 0.30257 -0.38000
I 	I 	0.61898 0.76560 0.06097 -0.37700
I 	I 	0.13240 0.17607 0.20022 -0.39800
I 	I 	0.85427 0.91425 0.50872 -0.38800
I 	I 	0.89393 0.76677 0.39543 -0.92600
Zn	Zn	0.58146 0.88100 0.09461 1.16500
Zn	Zn	0.17500 0.14687 0.27570 1.16300
Zn	Zn	0.87440 0.90983 0.43508 1.15300
N 	N 	0.68595 0.51070 0.27901 -0.27300
N 	N 	0.06799 0.51540 0.54999 -0.27300
N 	N 	0.61988 0.95090 0.14270 -0.26900
N 	N 	0.68081 0.18440 0.24955 -0.13300
N 	N 	0.83157 0.97390 0.39080 -0.27700
N 	N 	0.14139 0.16200 0.32240 -0.27400
N 	N 	0.71968 0.05700 0.27152 -0.14200
N 	N 	0.07484 0.27690 0.43853 -0.13700
N 	N 	0.73474 0.19520 0.30895 -0.14000
N 	N 	0.91990 0.99650 0.43840 -0.27900
N 	N 	0.03766 0.15020 0.41024 -0.13200
C 	C 	0.61000 0.03230 0.15320 0.08200
H 	H 	0.58630 0.05670 0.13750 -0.00100
C 	C 	0.66560 0.04650 0.21010 0.06200
C 	C 	0.05703 0.36700 0.49570 0.04800
C 	C 	0.70495 0.22970 0.28040 0.10600
C 	C 	0.77245 0.06200 0.33460 0.05300
C 	C 	0.01672 0.16540 0.44070 0.09100
C 	C 	0.03055 0.38820 0.52160 -0.11400
H 	H 	0.00860 0.35150 0.52110 0.07400
C 	C 	0.71670 0.47520 0.30570 0.07100
H 	H 	0.73460 0.51380 0.32380 -0.01200
C 	C 	0.66120 0.45620 0.25360 0.07000
H 	H 	0.63900 0.48110 0.23490 -0.01300
C 	C 	0.05143 0.28680 0.46700 0.08800
C 	C 	0.15300 0.21140 0.35860 0.07000
H 	H 	0.17840 0.23550 0.36430 -0.01100
C 	C 	0.74063 0.10830 0.30320 0.08800
C 	C 	0.78170 0.97520 0.32670 -0.12600
H 	H 	0.76780 0.94460 0.30150 0.09000
C 	C 	0.65210 0.91460 0.16620 0.06800
H 	H 	0.65910 0.85580 0.15950 -0.00700
C 	C 	0.09279 0.19040 0.38050 0.06000
C 	C 	0.69021 0.09860 0.24620 0.10300
C 	C 	0.98290 0.10680 0.44040 0.05600
C 	C 	0.03660 0.46310 0.54770 0.06800
H 	H 	0.01810 0.47840 0.56480 -0.00500
C 	C 	0.93670 0.03670 0.47510 0.08100
H 	H 	0.92700 0.02670 0.50110 -0.00800
C 	C 	0.67550 0.96060 0.20030 -0.12400
H 	H 	0.69820 0.93340 0.21680 0.07800
C 	C 	0.06730 0.20730 0.41160 0.10700
C 	C 	0.69840 0.32770 0.28110 0.06000
C 	C 	0.08880 0.42260 0.49770 -0.12700
H 	H 	0.10730 0.41060 0.48010 0.07800
C 	C 	0.09290 0.49320 0.52460 0.07500
H 	H 	0.11500 0.53000 0.52590 -0.01700
C 	C 	0.08130 0.13700 0.34370 -0.11400
H 	H 	0.05660 0.10910 0.33810 0.08400
C 	C 	0.79390 0.10580 0.37030 -0.12200
H 	H 	0.78900 0.16640 0.37620 0.08800
C 	C 	0.81100 0.93260 0.35530 0.07000
H 	H 	0.81690 0.87230 0.34980 -0.00300
C 	C 	0.66630 0.36490 0.25350 -0.12200
H 	H 	0.64820 0.32790 0.23470 0.09200
C 	C 	0.96820 0.09330 0.47710 -0.12700
H 	H 	0.97940 0.12250 0.50390 0.08200
C 	C 	0.82320 0.05780 0.39750 0.07800
H 	H 	0.83800 0.08730 0.42240 -0.00300
C 	C 	0.12970 0.22860 0.38770 -0.11300
H 	H 	0.13840 0.26610 0.41240 0.08200
C 	C 	0.72350 0.38400 0.30800 -0.12200
H 	H 	0.74540 0.36070 0.32800 0.07900
C 	C 	0.63220 0.08290 0.18580 -0.12400
H 	H 	0.62470 0.14200 0.19140 0.10800
C 	C 	0.10630 0.12500 0.31540 0.07200
H 	H 	0.09820 0.08900 0.28990 -0.01500
C 	C 	0.93190 0.01440 0.40250 0.08800
H 	H 	0.91840 0.98850 0.37580 -0.01200
C 	C 	0.96350 0.06970 0.40090 -0.12500
H 	H 	0.97140 0.08140 0.37390 0.08900
N 	N 	0.02272 0.23080 0.47073 -0.14600
I 	I 	0.88251 0.76645 0.41507 0.54100
