data_crystal

_cell_length_a 35.26540
_cell_length_b 15.11240
_cell_length_c 30.91400
_cell_angle_alpha 90.00000
_cell_angle_beta  102.12800
_cell_angle_gamma 90.00000

_symmetry_space_group_name_	'P 1'
_symmetry_space_group_name_H-M	'P 1'

loop_
_symmetry_equiv_pos_as_xyz
  x,y,z

loop_
_atom_site_label
_atom_site_type_symbol
_atom_site_fract_x
_atom_site_fract_y
_atom_site_fract_z
_atom_site_charge
I 	I 	0.73988 0.22634 0.30832 -0.38000
I 	I 	0.52579 0.64800 0.63668 -0.35100
I 	I 	0.63349 0.17496 0.20499 -0.39400
I 	I 	0.61545 0.73778 0.56152 -0.37800
I 	I 	0.89697 0.72878 0.90258 -0.38100
I 	I 	0.85488 0.58585 0.01048 -0.36900
Zn	Zn	0.57967 0.62016 0.59511 1.16400
Zn	Zn	0.67741 0.14121 0.28001 1.16200
Zn	Zn	0.87524 0.58939 0.93649 1.16400
N 	N 	0.68862 0.99300 0.78040 -0.27600
N 	N 	0.83237 0.52840 0.89065 -0.27800
N 	N 	0.64314 0.15920 0.32600 -0.27900
N 	N 	0.68222 0.31760 0.74830 -0.13600
N 	N 	0.41978 0.00020 0.43940 -0.27700
N 	N 	0.61968 0.54830 0.64072 -0.27500
N 	N 	0.53693 0.15550 0.41065 -0.13300
N 	N 	0.71942 0.44480 0.77143 -0.14100
N 	N 	0.57371 0.28320 0.43847 -0.13300
N 	N 	0.52077 0.23760 0.46997 -0.14700
N 	N 	0.56438 0.52170 0.54870 -0.27600
N 	N 	0.73709 0.30720 0.80700 -0.14000
C 	C 	0.66592 0.45360 0.70890 0.07100
C 	C 	0.51527 0.17230 0.44042 0.08900
C 	C 	0.80980 0.57130 0.85750 0.08200
H 	H 	0.81420 0.63120 0.85380 -0.00800
C 	C 	0.69006 0.40250 0.74520 0.09900
C 	C 	0.54942 0.29290 0.46636 0.08800
C 	C 	0.59322 0.19410 0.38200 0.07700
C 	C 	0.77353 0.44030 0.83330 0.05800
C 	C 	0.56640 0.21200 0.41207 0.10100
C 	C 	0.65380 0.21200 0.36100 0.08200
H 	H 	0.67850 0.23670 0.36640 -0.01400
C 	C 	0.55443 0.37340 0.49467 0.06400
C 	C 	0.67240 0.54260 0.70190 -0.14300
H 	H 	0.69240 0.57240 0.72050 0.08600
C 	C 	0.48233 0.11220 0.44050 0.05900
C 	C 	0.79760 0.39570 0.86720 -0.13200
H 	H 	0.79460 0.33530 0.87110 0.09300
C 	C 	0.70703 0.27260 0.77870 0.10300
C 	C 	0.52907 0.39120 0.52230 -0.13400
H 	H 	0.50840 0.35350 0.52310 0.08200
C 	C 	0.43790 0.03840 0.47660 0.08900
H 	H 	0.42940 0.02620 0.50250 -0.01200
C 	C 	0.72770 0.11950 0.80520 -0.13300
H 	H 	0.75040 0.14230 0.82260 0.08400
C 	C 	0.53514 0.46610 0.54870 0.08200
H 	H 	0.51810 0.47800 0.56710 -0.01400
C 	C 	0.60770 0.12300 0.31900 0.08600
H 	H 	0.60010 0.08610 0.29460 -0.02100
C 	C 	0.74155 0.39440 0.80220 0.08500
C 	C 	0.70070 0.17520 0.77980 0.06500
C 	C 	0.78020 0.53030 0.82830 -0.13700
H 	H 	0.76470 0.56230 0.80540 0.09600
C 	C 	0.58220 0.13770 0.34610 -0.13600
H 	H 	0.55800 0.11050 0.34060 0.09300
C 	C 	0.66190 0.04770 0.75630 0.06800
H 	H 	0.63920 0.02360 0.73970 -0.01500
C 	C 	0.64910 0.58660 0.66740 0.08700
H 	H 	0.65430 0.64570 0.66260 -0.01500
C 	C 	0.82630 0.44180 0.89500 0.07900
H 	H 	0.84220 0.41150 0.91810 -0.00300
C 	C 	0.66730 0.13780 0.75550 -0.12800
H 	H 	0.64830 0.17360 0.73850 0.08700
C 	C 	0.58370 0.43170 0.49340 -0.12900
H 	H 	0.60060 0.42200 0.47450 0.08700
C 	C 	0.58810 0.50560 0.52060 0.06900
H 	H 	0.60810 0.54520 0.51950 -0.01300
C 	C 	0.62970 0.23160 0.38960 -0.13100
H 	H 	0.63790 0.26930 0.41360 0.09200
C 	C 	0.43180 0.01830 0.40190 0.08100
H 	H 	0.41900 0.99210 0.37560 -0.01800
C 	C 	0.46870 0.09510 0.47870 -0.13800
H 	H 	0.48020 0.12170 0.50530 0.08600
C 	C 	0.63490 0.41400 0.68160 -0.13700
H 	H 	0.62880 0.35510 0.68570 0.10100
C 	C 	0.61290 0.46330 0.64790 0.08600
H 	H 	0.59220 0.43570 0.62910 -0.00800
C 	C 	0.72050 0.02880 0.80430 0.07800
H 	H 	0.73890 0.99180 0.82130 -0.01500
C 	C 	0.46250 0.07420 0.40100 -0.13400
H 	H 	0.46980 0.08650 0.37450 0.09200
I 	I 	0.23988 0.72634 0.30832 -0.37900
I 	I 	0.02579 0.14800 0.63668 -0.35000
I 	I 	0.13349 0.67496 0.20499 -0.39300
I 	I 	0.11545 0.23778 0.56152 -0.37700
I 	I 	0.39697 0.22878 0.90258 -0.38000
I 	I 	0.35488 0.08585 0.01048 -0.36800
Zn	Zn	0.07967 0.12016 0.59511 1.16500
Zn	Zn	0.17741 0.64121 0.28001 1.16300
Zn	Zn	0.37524 0.08939 0.93649 1.16400
N 	N 	0.18862 0.49300 0.78040 -0.27600
N 	N 	0.33237 0.02840 0.89065 -0.27700
N 	N 	0.14314 0.65920 0.32600 -0.27800
N 	N 	0.18222 0.81760 0.74830 -0.13500
N 	N 	0.91978 0.50020 0.43940 -0.27600
N 	N 	0.11968 0.04830 0.64072 -0.27500
N 	N 	0.03693 0.65550 0.41065 -0.13200
N 	N 	0.21942 0.94480 0.77143 -0.14100
N 	N 	0.07371 0.78320 0.43847 -0.13400
N 	N 	0.02077 0.73760 0.46997 -0.14700
N 	N 	0.06438 0.02170 0.54870 -0.27600
N 	N 	0.23709 0.80720 0.80700 -0.14000
C 	C 	0.16592 0.95360 0.70890 0.07200
C 	C 	0.01527 0.67230 0.44042 0.08900
C 	C 	0.30980 0.07130 0.85750 0.08300
H 	H 	0.31420 0.13120 0.85380 -0.00800
C 	C 	0.19006 0.90250 0.74520 0.09900
C 	C 	0.04942 0.79290 0.46636 0.08800
C 	C 	0.09322 0.69410 0.38200 0.07700
C 	C 	0.27353 0.94030 0.83330 0.05900
C 	C 	0.06640 0.71200 0.41207 0.10100
C 	C 	0.15380 0.71200 0.36100 0.08200
H 	H 	0.17850 0.73670 0.36640 -0.01400
C 	C 	0.05443 0.87340 0.49467 0.06400
C 	C 	0.17240 0.04260 0.70190 -0.14400
H 	H 	0.19240 0.07240 0.72050 0.08600
C 	C 	0.98233 0.61220 0.44050 0.05900
C 	C 	0.29760 0.89570 0.86720 -0.13300
H 	H 	0.29460 0.83530 0.87110 0.09400
C 	C 	0.20703 0.77260 0.77870 0.10300
C 	C 	0.02907 0.89120 0.52230 -0.13400
H 	H 	0.00840 0.85350 0.52310 0.08200
C 	C 	0.93790 0.53840 0.47660 0.08900
H 	H 	0.92940 0.52620 0.50250 -0.01200
C 	C 	0.22770 0.61950 0.80520 -0.13300
H 	H 	0.25040 0.64230 0.82260 0.08500
C 	C 	0.03514 0.96610 0.54870 0.08300
H 	H 	0.01810 0.97800 0.56710 -0.01400
C 	C 	0.10770 0.62300 0.31900 0.08600
H 	H 	0.10010 0.58610 0.29460 -0.02200
C 	C 	0.24155 0.89440 0.80220 0.08500
C 	C 	0.20070 0.67520 0.77980 0.06500
C 	C 	0.28020 0.03030 0.82830 -0.13800
H 	H 	0.26470 0.06230 0.80540 0.09600
C 	C 	0.08220 0.63770 0.34610 -0.13600
H 	H 	0.05800 0.61050 0.34060 0.09300
C 	C 	0.16190 0.54770 0.75630 0.06800
H 	H 	0.13920 0.52360 0.73970 -0.01500
C 	C 	0.14910 0.08660 0.66740 0.08700
H 	H 	0.15430 0.14570 0.66260 -0.01500
C 	C 	0.32630 0.94180 0.89500 0.08000
H 	H 	0.34220 0.91150 0.91810 -0.00300
C 	C 	0.16730 0.63780 0.75550 -0.12900
H 	H 	0.14830 0.67360 0.73850 0.08700
C 	C 	0.08370 0.93170 0.49340 -0.12900
H 	H 	0.10060 0.92200 0.47450 0.08700
C 	C 	0.08810 0.00560 0.52060 0.06800
H 	H 	0.10810 0.04520 0.51950 -0.01300
C 	C 	0.12970 0.73160 0.38960 -0.13100
H 	H 	0.13790 0.76930 0.41360 0.09200
C 	C 	0.93180 0.51830 0.40190 0.08100
H 	H 	0.91900 0.49210 0.37560 -0.01700
C 	C 	0.96870 0.59510 0.47870 -0.13700
H 	H 	0.98020 0.62170 0.50530 0.08600
C 	C 	0.13490 0.91400 0.68160 -0.13700
H 	H 	0.12880 0.85510 0.68570 0.10100
C 	C 	0.11290 0.96330 0.64790 0.08600
H 	H 	0.09220 0.93570 0.62910 -0.00800
C 	C 	0.22050 0.52880 0.80430 0.08000
H 	H 	0.23890 0.49180 0.82130 -0.01500
C 	C 	0.96250 0.57420 0.40100 -0.13400
H 	H 	0.96980 0.58650 0.37450 0.09200
I 	I 	0.73988 0.77366 0.80832 -0.37900
I 	I 	0.52579 0.35200 0.13668 -0.35000
I 	I 	0.63349 0.82504 0.70499 -0.39300
I 	I 	0.61545 0.26222 0.06152 -0.37700
I 	I 	0.89697 0.27122 0.40258 -0.38000
I 	I 	0.85488 0.41415 0.51048 -0.36800
Zn	Zn	0.57967 0.37984 0.09511 1.16500
Zn	Zn	0.67741 0.85879 0.78001 1.16300
Zn	Zn	0.87524 0.41061 0.43649 1.16500
N 	N 	0.68862 0.00700 0.28040 -0.27600
N 	N 	0.83237 0.47160 0.39065 -0.27700
N 	N 	0.64314 0.84080 0.82600 -0.27800
N 	N 	0.68222 0.68240 0.24830 -0.13500
N 	N 	0.41978 0.99980 0.93940 -0.27600
N 	N 	0.61968 0.45170 0.14072 -0.27400
N 	N 	0.53693 0.84450 0.91065 -0.13200
N 	N 	0.71942 0.55520 0.27143 -0.14100
N 	N 	0.57371 0.71680 0.93847 -0.13300
N 	N 	0.52077 0.76240 0.96997 -0.14700
N 	N 	0.56438 0.47830 0.04870 -0.27600
N 	N 	0.73709 0.69280 0.30700 -0.14000
C 	C 	0.66592 0.54640 0.20890 0.07100
C 	C 	0.51527 0.82770 0.94042 0.08900
C 	C 	0.80980 0.42870 0.35750 0.08200
H 	H 	0.81420 0.36880 0.35380 -0.00800
C 	C 	0.69006 0.59750 0.24520 0.09900
C 	C 	0.54942 0.70710 0.96636 0.08800
C 	C 	0.59322 0.80590 0.88200 0.07700
C 	C 	0.77353 0.55970 0.33330 0.05800
C 	C 	0.56640 0.78800 0.91207 0.10100
C 	C 	0.65380 0.78800 0.86100 0.08200
H 	H 	0.67850 0.76330 0.86640 -0.01400
C 	C 	0.55443 0.62660 0.99467 0.06400
C 	C 	0.67240 0.45740 0.20190 -0.14300
H 	H 	0.69240 0.42760 0.22050 0.08600
C 	C 	0.48233 0.88780 0.94050 0.05900
C 	C 	0.79760 0.60430 0.36720 -0.13200
H 	H 	0.79460 0.66470 0.37110 0.09300
C 	C 	0.70703 0.72740 0.27870 0.10300
C 	C 	0.52907 0.60880 0.02230 -0.13400
H 	H 	0.50840 0.64650 0.02310 0.08200
C 	C 	0.43790 0.96160 0.97660 0.08900
H 	H 	0.42940 0.97380 0.00250 -0.01300
C 	C 	0.72770 0.88050 0.30520 -0.13300
H 	H 	0.75040 0.85770 0.32260 0.08500
C 	C 	0.53514 0.53390 0.04870 0.08300
H 	H 	0.51810 0.52200 0.06710 -0.01400
C 	C 	0.60770 0.87700 0.81900 0.08600
H 	H 	0.60010 0.91390 0.79460 -0.02100
C 	C 	0.74155 0.60560 0.30220 0.08500
C 	C 	0.70070 0.82480 0.27980 0.06500
C 	C 	0.78020 0.46970 0.32830 -0.13700
H 	H 	0.76470 0.43770 0.30540 0.09600
C 	C 	0.58220 0.86230 0.84610 -0.13600
H 	H 	0.55800 0.88950 0.84060 0.09300
C 	C 	0.66190 0.95230 0.25630 0.06800
H 	H 	0.63920 0.97640 0.23970 -0.01500
C 	C 	0.64910 0.41340 0.16740 0.08700
H 	H 	0.65430 0.35430 0.16260 -0.01500
C 	C 	0.82630 0.55820 0.39500 0.07900
H 	H 	0.84220 0.58850 0.41810 -0.00300
C 	C 	0.66730 0.86220 0.25550 -0.12800
H 	H 	0.64830 0.82640 0.23850 0.08700
C 	C 	0.58370 0.56830 0.99340 -0.12900
H 	H 	0.60060 0.57800 0.97450 0.08700
C 	C 	0.58810 0.49440 0.02060 0.06900
H 	H 	0.60810 0.45480 0.01950 -0.01400
C 	C 	0.62970 0.76840 0.88960 -0.13100
H 	H 	0.63790 0.73070 0.91360 0.09200
C 	C 	0.43180 0.98170 0.90190 0.08200
H 	H 	0.41900 0.00790 0.87560 -0.01800
C 	C 	0.46870 0.90490 0.97870 -0.13700
H 	H 	0.48020 0.87830 0.00530 0.08600
C 	C 	0.63490 0.58600 0.18160 -0.13700
H 	H 	0.62880 0.64490 0.18570 0.10100
C 	C 	0.61290 0.53670 0.14790 0.08600
H 	H 	0.59220 0.56430 0.12910 -0.00800
C 	C 	0.72050 0.97120 0.30430 0.07900
H 	H 	0.73890 0.00820 0.32130 -0.01500
C 	C 	0.46250 0.92580 0.90100 -0.13400
H 	H 	0.46980 0.91350 0.87450 0.09300
I 	I 	0.23988 0.27366 0.80832 -0.37900
I 	I 	0.02579 0.85200 0.13668 -0.35000
I 	I 	0.13349 0.32504 0.70499 -0.39300
I 	I 	0.11545 0.76222 0.06152 -0.37700
I 	I 	0.39697 0.77122 0.40258 -0.38000
I 	I 	0.35488 0.91415 0.51048 -0.36800
Zn	Zn	0.07967 0.87984 0.09511 1.16500
Zn	Zn	0.17741 0.35879 0.78001 1.16300
Zn	Zn	0.37524 0.91061 0.43649 1.16500
N 	N 	0.18862 0.50700 0.28040 -0.27600
N 	N 	0.33237 0.97160 0.39065 -0.27700
N 	N 	0.14314 0.34080 0.82600 -0.27800
N 	N 	0.18222 0.18240 0.24830 -0.13500
N 	N 	0.91978 0.49980 0.93940 -0.27600
N 	N 	0.11968 0.95170 0.14072 -0.27500
N 	N 	0.03693 0.34450 0.91065 -0.13200
N 	N 	0.21942 0.05520 0.27143 -0.14100
N 	N 	0.07371 0.21680 0.93847 -0.13400
N 	N 	0.02077 0.26240 0.96997 -0.14700
N 	N 	0.06438 0.97830 0.04870 -0.27600
N 	N 	0.23709 0.19280 0.30700 -0.14000
C 	C 	0.16592 0.04640 0.20890 0.07200
C 	C 	0.01527 0.32770 0.94042 0.08900
C 	C 	0.30980 0.92870 0.35750 0.08300
H 	H 	0.31420 0.86880 0.35380 -0.00800
C 	C 	0.19006 0.09750 0.24520 0.09900
C 	C 	0.04942 0.20710 0.96636 0.08800
C 	C 	0.09322 0.30590 0.88200 0.07700
C 	C 	0.27353 0.05970 0.33330 0.05900
C 	C 	0.06640 0.28800 0.91207 0.10100
C 	C 	0.15380 0.28800 0.86100 0.08200
H 	H 	0.17850 0.26330 0.86640 -0.01400
C 	C 	0.05443 0.12660 0.99467 0.06300
C 	C 	0.17240 0.95740 0.20190 -0.14400
H 	H 	0.19240 0.92760 0.22050 0.08700
C 	C 	0.98233 0.38780 0.94050 0.05900
C 	C 	0.29760 0.10430 0.36720 -0.13200
H 	H 	0.29460 0.16470 0.37110 0.09300
C 	C 	0.20703 0.22740 0.27870 0.10300
C 	C 	0.02907 0.10880 0.02230 -0.13400
H 	H 	0.00840 0.14650 0.02310 0.08200
C 	C 	0.93790 0.46160 0.97660 0.08900
H 	H 	0.92940 0.47380 0.00250 -0.01200
C 	C 	0.22770 0.38050 0.30520 -0.13300
H 	H 	0.25040 0.35770 0.32260 0.08500
C 	C 	0.03514 0.03390 0.04870 0.08300
H 	H 	0.01810 0.02200 0.06710 -0.01400
C 	C 	0.10770 0.37700 0.81900 0.08600
H 	H 	0.10010 0.41390 0.79460 -0.02200
C 	C 	0.24155 0.10560 0.30220 0.08500
C 	C 	0.20070 0.32480 0.27980 0.06500
C 	C 	0.28020 0.96970 0.32830 -0.13700
H 	H 	0.26470 0.93770 0.30540 0.09600
C 	C 	0.08220 0.36230 0.84610 -0.13600
H 	H 	0.05800 0.38950 0.84060 0.09300
C 	C 	0.16190 0.45230 0.25630 0.06800
H 	H 	0.13920 0.47640 0.23970 -0.01500
C 	C 	0.14910 0.91340 0.16740 0.08700
H 	H 	0.15430 0.85430 0.16260 -0.01500
C 	C 	0.32630 0.05820 0.39500 0.07900
H 	H 	0.34220 0.08850 0.41810 -0.00300
C 	C 	0.16730 0.36220 0.25550 -0.12900
H 	H 	0.14830 0.32640 0.23850 0.08700
C 	C 	0.08370 0.06830 0.99340 -0.12900
H 	H 	0.10060 0.07800 0.97450 0.08700
C 	C 	0.08810 0.99440 0.02060 0.06800
H 	H 	0.10810 0.95480 0.01950 -0.01300
C 	C 	0.12970 0.26840 0.88960 -0.13100
H 	H 	0.13790 0.23070 0.91360 0.09200
C 	C 	0.93180 0.48170 0.90190 0.08100
H 	H 	0.91900 0.50790 0.87560 -0.01700
C 	C 	0.96870 0.40490 0.97870 -0.13800
H 	H 	0.98020 0.37830 0.00530 0.08600
C 	C 	0.13490 0.08600 0.18160 -0.13800
H 	H 	0.12880 0.14490 0.18570 0.10100
C 	C 	0.11290 0.03670 0.14790 0.08600
H 	H 	0.09220 0.06430 0.12910 -0.00800
C 	C 	0.22050 0.47120 0.30430 0.08000
H 	H 	0.23890 0.50820 0.32130 -0.01500
C 	C 	0.96250 0.42580 0.90100 -0.13400
H 	H 	0.96980 0.41350 0.87450 0.09200
I 	I 	0.26012 0.22634 0.19168 -0.37900
I 	I 	0.47421 0.64800 0.86332 -0.35000
I 	I 	0.36651 0.17496 0.29501 -0.39300
I 	I 	0.38455 0.73778 0.93848 -0.37700
I 	I 	0.10303 0.72878 0.59742 -0.38000
I 	I 	0.14512 0.58585 0.48952 -0.36800
Zn	Zn	0.42033 0.62016 0.90489 1.16500
Zn	Zn	0.32259 0.14121 0.21999 1.16300
Zn	Zn	0.12476 0.58939 0.56351 1.16500
N 	N 	0.31138 0.99300 0.71960 -0.27600
N 	N 	0.16763 0.52840 0.60935 -0.27700
N 	N 	0.35686 0.15920 0.17400 -0.27800
N 	N 	0.31778 0.31760 0.75170 -0.13500
N 	N 	0.58022 0.00020 0.06060 -0.27600
N 	N 	0.38032 0.54830 0.85928 -0.27400
N 	N 	0.46307 0.15550 0.08935 -0.13200
N 	N 	0.28058 0.44480 0.72857 -0.14100
N 	N 	0.42629 0.28320 0.06153 -0.13300
N 	N 	0.47923 0.23760 0.03003 -0.14700
N 	N 	0.43562 0.52170 0.95130 -0.27600
N 	N 	0.26291 0.30720 0.69300 -0.14000
C 	C 	0.33408 0.45360 0.79110 0.07100
C 	C 	0.48473 0.17230 0.05958 0.08900
C 	C 	0.19020 0.57130 0.64250 0.08200
H 	H 	0.18580 0.63120 0.64620 -0.00800
C 	C 	0.30994 0.40250 0.75480 0.09900
C 	C 	0.45058 0.29290 0.03364 0.08800
C 	C 	0.40678 0.19410 0.11800 0.07700
C 	C 	0.22647 0.44030 0.66670 0.05800
C 	C 	0.43360 0.21200 0.08793 0.10100
C 	C 	0.34620 0.21200 0.13900 0.08200
H 	H 	0.32150 0.23670 0.13360 -0.01400
C 	C 	0.44557 0.37340 0.00533 0.06400
C 	C 	0.32760 0.54260 0.79810 -0.14300
H 	H 	0.30760 0.57240 0.77950 0.08600
C 	C 	0.51767 0.11220 0.05950 0.05900
C 	C 	0.20240 0.39570 0.63280 -0.13200
H 	H 	0.20540 0.33530 0.62890 0.09300
C 	C 	0.29297 0.27260 0.72130 0.10300
C 	C 	0.47093 0.39120 0.97770 -0.13400
H 	H 	0.49160 0.35350 0.97690 0.08200
C 	C 	0.56210 0.03840 0.02340 0.08900
H 	H 	0.57060 0.02620 0.99750 -0.01300
C 	C 	0.27230 0.11950 0.69480 -0.13300
H 	H 	0.24960 0.14230 0.67740 0.08500
C 	C 	0.46486 0.46610 0.95130 0.08300
H 	H 	0.48190 0.47800 0.93290 -0.01400
C 	C 	0.39230 0.12300 0.18100 0.08600
H 	H 	0.39990 0.08610 0.20540 -0.02100
C 	C 	0.25845 0.39440 0.69780 0.08500
C 	C 	0.29930 0.17520 0.72020 0.06500
C 	C 	0.21980 0.53030 0.67170 -0.13700
H 	H 	0.23530 0.56230 0.69460 0.09600
C 	C 	0.41780 0.13770 0.15390 -0.13600
H 	H 	0.44200 0.11050 0.15940 0.09300
C 	C 	0.33810 0.04770 0.74370 0.06800
H 	H 	0.36080 0.02360 0.76030 -0.01500
C 	C 	0.35090 0.58660 0.83260 0.08700
H 	H 	0.34570 0.64570 0.83740 -0.01500
C 	C 	0.17370 0.44180 0.60500 0.07900
H 	H 	0.15780 0.41150 0.58190 -0.00300
C 	C 	0.33270 0.13780 0.74450 -0.12800
H 	H 	0.35170 0.17360 0.76150 0.08700
C 	C 	0.41630 0.43170 0.00660 -0.12900
H 	H 	0.39940 0.42200 0.02550 0.08700
C 	C 	0.41190 0.50560 0.97940 0.06900
H 	H 	0.39190 0.54520 0.98050 -0.01400
C 	C 	0.37030 0.23160 0.11040 -0.13100
H 	H 	0.36210 0.26930 0.08640 0.09200
C 	C 	0.56820 0.01830 0.09810 0.08200
H 	H 	0.58100 0.99210 0.12440 -0.01800
C 	C 	0.53130 0.09510 0.02130 -0.13700
H 	H 	0.51980 0.12170 0.99470 0.08600
C 	C 	0.36510 0.41400 0.81840 -0.13700
H 	H 	0.37120 0.35510 0.81430 0.10100
C 	C 	0.38710 0.46330 0.85210 0.08600
H 	H 	0.40780 0.43570 0.87090 -0.00800
C 	C 	0.27950 0.02880 0.69570 0.07900
H 	H 	0.26110 0.99180 0.67870 -0.01500
C 	C 	0.53750 0.07420 0.09900 -0.13400
H 	H 	0.53020 0.08650 0.12550 0.09300
I 	I 	0.76012 0.72634 0.19168 -0.37900
I 	I 	0.97421 0.14800 0.86332 -0.35000
I 	I 	0.86651 0.67496 0.29501 -0.39300
I 	I 	0.88455 0.23778 0.93848 -0.37700
I 	I 	0.60303 0.22878 0.59742 -0.38000
I 	I 	0.64512 0.08585 0.48952 -0.36800
Zn	Zn	0.92033 0.12016 0.90489 1.16500
Zn	Zn	0.82259 0.64121 0.21999 1.16300
Zn	Zn	0.62476 0.08939 0.56351 1.16500
N 	N 	0.81138 0.49300 0.71960 -0.27600
N 	N 	0.66763 0.02840 0.60935 -0.27700
N 	N 	0.85686 0.65920 0.17400 -0.27800
N 	N 	0.81778 0.81760 0.75170 -0.13500
N 	N 	0.08022 0.50020 0.06060 -0.27600
N 	N 	0.88032 0.04830 0.85928 -0.27500
N 	N 	0.96307 0.65550 0.08935 -0.13200
N 	N 	0.78058 0.94480 0.72857 -0.14100
N 	N 	0.92629 0.78320 0.06153 -0.13400
N 	N 	0.97923 0.73760 0.03003 -0.14700
N 	N 	0.93562 0.02170 0.95130 -0.27600
N 	N 	0.76291 0.80720 0.69300 -0.14000
C 	C 	0.83408 0.95360 0.79110 0.07200
C 	C 	0.98473 0.67230 0.05958 0.08900
C 	C 	0.69020 0.07130 0.64250 0.08300
H 	H 	0.68580 0.13120 0.64620 -0.00800
C 	C 	0.80994 0.90250 0.75480 0.09900
C 	C 	0.95058 0.79290 0.03364 0.08800
C 	C 	0.90678 0.69410 0.11800 0.07700
C 	C 	0.72647 0.94030 0.66670 0.05900
C 	C 	0.93360 0.71200 0.08793 0.10100
C 	C 	0.84620 0.71200 0.13900 0.08200
H 	H 	0.82150 0.73670 0.13360 -0.01400
C 	C 	0.94557 0.87340 0.00533 0.06300
C 	C 	0.82760 0.04260 0.79810 -0.14400
H 	H 	0.80760 0.07240 0.77950 0.08700
C 	C 	0.01767 0.61220 0.05950 0.05900
C 	C 	0.70240 0.89570 0.63280 -0.13200
H 	H 	0.70540 0.83530 0.62890 0.09300
C 	C 	0.79297 0.77260 0.72130 0.10300
C 	C 	0.97093 0.89120 0.97770 -0.13400
H 	H 	0.99160 0.85350 0.97690 0.08200
C 	C 	0.06210 0.53840 0.02340 0.08900
H 	H 	0.07060 0.52620 0.99750 -0.01200
C 	C 	0.77230 0.61950 0.69480 -0.13300
H 	H 	0.74960 0.64230 0.67740 0.08500
C 	C 	0.96486 0.96610 0.95130 0.08300
H 	H 	0.98190 0.97800 0.93290 -0.01400
C 	C 	0.89230 0.62300 0.18100 0.08600
H 	H 	0.89990 0.58610 0.20540 -0.02200
C 	C 	0.75845 0.89440 0.69780 0.08500
C 	C 	0.79930 0.67520 0.72020 0.06500
C 	C 	0.71980 0.03030 0.67170 -0.13700
H 	H 	0.73530 0.06230 0.69460 0.09600
C 	C 	0.91780 0.63770 0.15390 -0.13600
H 	H 	0.94200 0.61050 0.15940 0.09300
C 	C 	0.83810 0.54770 0.74370 0.06800
H 	H 	0.86080 0.52360 0.76030 -0.01500
C 	C 	0.85090 0.08660 0.83260 0.08700
H 	H 	0.84570 0.14570 0.83740 -0.01500
C 	C 	0.67370 0.94180 0.60500 0.07900
H 	H 	0.65780 0.91150 0.58190 -0.00300
C 	C 	0.83270 0.63780 0.74450 -0.12900
H 	H 	0.85170 0.67360 0.76150 0.08700
C 	C 	0.91630 0.93170 0.00660 -0.12900
H 	H 	0.89940 0.92200 0.02550 0.08700
C 	C 	0.91190 0.00560 0.97940 0.06800
H 	H 	0.89190 0.04520 0.98050 -0.01300
C 	C 	0.87030 0.73160 0.11040 -0.13100
H 	H 	0.86210 0.76930 0.08640 0.09200
C 	C 	0.06820 0.51830 0.09810 0.08100
H 	H 	0.08100 0.49210 0.12440 -0.01700
C 	C 	0.03130 0.59510 0.02130 -0.13800
H 	H 	0.01980 0.62170 0.99470 0.08600
C 	C 	0.86510 0.91400 0.81840 -0.13800
H 	H 	0.87120 0.85510 0.81430 0.10100
C 	C 	0.88710 0.96330 0.85210 0.08600
H 	H 	0.90780 0.93570 0.87090 -0.00800
C 	C 	0.77950 0.52880 0.69570 0.08000
H 	H 	0.76110 0.49180 0.67870 -0.01500
C 	C 	0.03750 0.57420 0.09900 -0.13400
H 	H 	0.03020 0.58650 0.12550 0.09200
I 	I 	0.26012 0.77366 0.69168 -0.37900
I 	I 	0.47421 0.35200 0.36332 -0.35000
I 	I 	0.36651 0.82504 0.79501 -0.39300
I 	I 	0.38455 0.26222 0.43848 -0.37700
I 	I 	0.10303 0.27122 0.09742 -0.38000
I 	I 	0.14512 0.41415 0.98952 -0.36800
Zn	Zn	0.42033 0.37984 0.40489 1.16500
Zn	Zn	0.32259 0.85879 0.71999 1.16300
Zn	Zn	0.12476 0.41061 0.06351 1.16500
N 	N 	0.31138 0.00700 0.21960 -0.27500
N 	N 	0.16763 0.47160 0.10935 -0.27700
N 	N 	0.35686 0.84080 0.67400 -0.27800
N 	N 	0.31778 0.68240 0.25170 -0.13500
N 	N 	0.58022 0.99980 0.56060 -0.27600
N 	N 	0.38032 0.45170 0.35928 -0.27400
N 	N 	0.46307 0.84450 0.58935 -0.13200
N 	N 	0.28058 0.55520 0.22857 -0.14100
N 	N 	0.42629 0.71680 0.56153 -0.13300
N 	N 	0.47923 0.76240 0.53003 -0.14700
N 	N 	0.43562 0.47830 0.45130 -0.27600
N 	N 	0.26291 0.69280 0.19300 -0.14000
C 	C 	0.33408 0.54640 0.29110 0.07100
C 	C 	0.48473 0.82770 0.55958 0.08900
C 	C 	0.19020 0.42870 0.14250 0.08200
H 	H 	0.18580 0.36880 0.14620 -0.00800
C 	C 	0.30994 0.59750 0.25480 0.09900
C 	C 	0.45058 0.70710 0.53364 0.08800
C 	C 	0.40678 0.80590 0.61800 0.07700
C 	C 	0.22647 0.55970 0.16670 0.05800
C 	C 	0.43360 0.78800 0.58793 0.10100
C 	C 	0.34620 0.78800 0.63900 0.08200
H 	H 	0.32150 0.76330 0.63360 -0.01400
C 	C 	0.44557 0.62660 0.50533 0.06400
C 	C 	0.32760 0.45740 0.29810 -0.14300
H 	H 	0.30760 0.42760 0.27950 0.08600
C 	C 	0.51767 0.88780 0.55950 0.05900
C 	C 	0.20240 0.60430 0.13280 -0.13200
H 	H 	0.20540 0.66470 0.12890 0.09300
C 	C 	0.29297 0.72740 0.22130 0.10300
C 	C 	0.47093 0.60880 0.47770 -0.13400
H 	H 	0.49160 0.64650 0.47690 0.08200
C 	C 	0.56210 0.96160 0.52340 0.08900
H 	H 	0.57060 0.97380 0.49750 -0.01200
C 	C 	0.27230 0.88050 0.19480 -0.13300
H 	H 	0.24960 0.85770 0.17740 0.08400
C 	C 	0.46486 0.53390 0.45130 0.08200
H 	H 	0.48190 0.52200 0.43290 -0.01400
C 	C 	0.39230 0.87700 0.68100 0.08600
H 	H 	0.39990 0.91390 0.70540 -0.02100
C 	C 	0.25845 0.60560 0.19780 0.08500
C 	C 	0.29930 0.82480 0.22020 0.06500
C 	C 	0.21980 0.46970 0.17170 -0.13700
H 	H 	0.23530 0.43770 0.19460 0.09600
C 	C 	0.41780 0.86230 0.65390 -0.13600
H 	H 	0.44200 0.88950 0.65940 0.09300
C 	C 	0.33810 0.95230 0.24370 0.06800
H 	H 	0.36080 0.97640 0.26030 -0.01500
C 	C 	0.35090 0.41340 0.33260 0.08700
H 	H 	0.34570 0.35430 0.33740 -0.01500
C 	C 	0.17370 0.55820 0.10500 0.07900
H 	H 	0.15780 0.58850 0.08190 -0.00300
C 	C 	0.33270 0.86220 0.24450 -0.12800
H 	H 	0.35170 0.82640 0.26150 0.08700
C 	C 	0.41630 0.56830 0.50660 -0.12900
H 	H 	0.39940 0.57800 0.52550 0.08700
C 	C 	0.41190 0.49440 0.47940 0.06900
H 	H 	0.39190 0.45480 0.48050 -0.01300
C 	C 	0.37030 0.76840 0.61040 -0.13100
H 	H 	0.36210 0.73070 0.58640 0.09200
C 	C 	0.56820 0.98170 0.59810 0.08100
H 	H 	0.58100 0.00790 0.62440 -0.01800
C 	C 	0.53130 0.90490 0.52130 -0.13800
H 	H 	0.51980 0.87830 0.49470 0.08600
C 	C 	0.36510 0.58600 0.31840 -0.13700
H 	H 	0.37120 0.64490 0.31430 0.10100
C 	C 	0.38710 0.53670 0.35210 0.08600
H 	H 	0.40780 0.56430 0.37090 -0.00800
C 	C 	0.27950 0.97120 0.19570 0.07800
H 	H 	0.26110 0.00820 0.17870 -0.01500
C 	C 	0.53750 0.92580 0.59900 -0.13400
H 	H 	0.53020 0.91350 0.62550 0.09200
I 	I 	0.76012 0.27366 0.69168 -0.37900
I 	I 	0.97421 0.85200 0.36332 -0.35000
I 	I 	0.86651 0.32504 0.79501 -0.39300
I 	I 	0.88455 0.76222 0.43848 -0.37700
I 	I 	0.60303 0.77122 0.09742 -0.38000
I 	I 	0.64512 0.91415 0.98952 -0.36800
Zn	Zn	0.92033 0.87984 0.40489 1.16500
Zn	Zn	0.82259 0.35879 0.71999 1.16300
Zn	Zn	0.62476 0.91061 0.06351 1.16400
N 	N 	0.81138 0.50700 0.21960 -0.27600
N 	N 	0.66763 0.97160 0.10935 -0.27700
N 	N 	0.85686 0.34080 0.67400 -0.27800
N 	N 	0.81778 0.18240 0.25170 -0.13500
N 	N 	0.08022 0.49980 0.56060 -0.27600
N 	N 	0.88032 0.95170 0.35928 -0.27500
N 	N 	0.96307 0.34450 0.58935 -0.13200
N 	N 	0.78058 0.05520 0.22857 -0.14100
N 	N 	0.92629 0.21680 0.56153 -0.13400
N 	N 	0.97923 0.26240 0.53003 -0.14700
N 	N 	0.93562 0.97830 0.45130 -0.27600
N 	N 	0.76291 0.19280 0.19300 -0.14000
C 	C 	0.83408 0.04640 0.29110 0.07200
C 	C 	0.98473 0.32770 0.55958 0.08900
C 	C 	0.69020 0.92870 0.14250 0.08300
H 	H 	0.68580 0.86880 0.14620 -0.00800
C 	C 	0.80994 0.09750 0.25480 0.09900
C 	C 	0.95058 0.20710 0.53364 0.08800
C 	C 	0.90678 0.30590 0.61800 0.07700
C 	C 	0.72647 0.05970 0.16670 0.05900
C 	C 	0.93360 0.28800 0.58793 0.10100
C 	C 	0.84620 0.28800 0.63900 0.08200
H 	H 	0.82150 0.26330 0.63360 -0.01400
C 	C 	0.94557 0.12660 0.50533 0.06400
C 	C 	0.82760 0.95740 0.29810 -0.14400
H 	H 	0.80760 0.92760 0.27950 0.08600
C 	C 	0.01767 0.38780 0.55950 0.05900
C 	C 	0.70240 0.10430 0.13280 -0.13300
H 	H 	0.70540 0.16470 0.12890 0.09400
C 	C 	0.79297 0.22740 0.22130 0.10300
C 	C 	0.97093 0.10880 0.47770 -0.13400
H 	H 	0.99160 0.14650 0.47690 0.08200
C 	C 	0.06210 0.46160 0.52340 0.08900
H 	H 	0.07060 0.47380 0.49750 -0.01200
C 	C 	0.77230 0.38050 0.19480 -0.13300
H 	H 	0.74960 0.35770 0.17740 0.08500
C 	C 	0.96486 0.03390 0.45130 0.08300
H 	H 	0.98190 0.02200 0.43290 -0.01400
C 	C 	0.89230 0.37700 0.68100 0.08600
H 	H 	0.89990 0.41390 0.70540 -0.02200
C 	C 	0.75845 0.10560 0.19780 0.08500
C 	C 	0.79930 0.32480 0.22020 0.06500
C 	C 	0.71980 0.96970 0.17170 -0.13800
H 	H 	0.73530 0.93770 0.19460 0.09600
C 	C 	0.91780 0.36230 0.65390 -0.13600
H 	H 	0.94200 0.38950 0.65940 0.09300
C 	C 	0.83810 0.45230 0.24370 0.06800
H 	H 	0.86080 0.47640 0.26030 -0.01500
C 	C 	0.85090 0.91340 0.33260 0.08700
H 	H 	0.84570 0.85430 0.33740 -0.01500
C 	C 	0.67370 0.05820 0.10500 0.08000
H 	H 	0.65780 0.08850 0.08190 -0.00300
C 	C 	0.83270 0.36220 0.24450 -0.12900
H 	H 	0.85170 0.32640 0.26150 0.08700
C 	C 	0.91630 0.06830 0.50660 -0.12900
H 	H 	0.89940 0.07800 0.52550 0.08700
C 	C 	0.91190 0.99440 0.47940 0.06800
H 	H 	0.89190 0.95480 0.48050 -0.01300
C 	C 	0.87030 0.26840 0.61040 -0.13100
H 	H 	0.86210 0.23070 0.58640 0.09200
C 	C 	0.06820 0.48170 0.59810 0.08100
H 	H 	0.08100 0.50790 0.62440 -0.01700
C 	C 	0.03130 0.40490 0.52130 -0.13700
H 	H 	0.01980 0.37830 0.49470 0.08600
C 	C 	0.86510 0.08600 0.31840 -0.13700
H 	H 	0.87120 0.14490 0.31430 0.10100
C 	C 	0.88710 0.03670 0.35210 0.08600
H 	H 	0.90780 0.06430 0.37090 -0.00800
C 	C 	0.77950 0.47120 0.19570 0.08000
H 	H 	0.76110 0.50820 0.17870 -0.01500
C 	C 	0.03750 0.42580 0.59900 -0.13400
H 	H 	0.03020 0.41350 0.62550 0.09200
