data_crystal

_cell_length_a 34.72850
_cell_length_b 14.85920
_cell_length_c 30.94110
_cell_angle_alpha 90.00000
_cell_angle_beta  101.51400
_cell_angle_gamma 90.00000

_symmetry_space_group_name_	'P 1'
_symmetry_space_group_name_H-M	'P 1'

loop_
_symmetry_equiv_pos_as_xyz
  x,y,z

loop_
_atom_site_label
_atom_site_type_symbol
_atom_site_fract_x
_atom_site_fract_y
_atom_site_fract_z
_atom_site_charge
I 	I 	0.52647 0.15177 0.13313 -0.35000
I 	I 	0.62052 0.23941 0.05817 -0.38200
I 	I 	0.88967 0.24065 0.40476 -0.37900
I 	I 	0.85114 0.09016 0.51464 -0.37000
I 	I 	0.74011 0.27388 0.30380 -0.38400
Zn	Zn	0.58328 0.12495 0.09389 1.16400
Zn	Zn	0.87300 0.09726 0.44147 1.16500
Zn	Zn	0.67616 0.35521 0.27502 1.16000
N 	N 	0.72040 0.94950 0.27330 -0.14200
N 	N 	0.68030 0.82220 0.25130 -0.13600
N 	N 	0.73300 0.81080 0.31240 -0.14000
N 	N 	0.62220 0.05350 0.14060 -0.27700
N 	N 	0.68520 0.49270 0.28030 -0.28300
N 	N 	0.53780 0.35170 0.41220 -0.13400
N 	N 	0.57410 0.22040 0.43790 -0.13500
N 	N 	0.83050 0.03320 0.39640 -0.28000
N 	N 	0.52210 0.26880 0.47180 -0.14800
N 	N 	0.56930 0.97970 0.54870 -0.27400
N 	N 	0.64170 0.33650 0.32100 -0.28500
C 	C 	0.69000 0.90670 0.24760 0.09800
C 	C 	0.66720 0.95950 0.21050 0.07000
C 	C 	0.70360 0.77700 0.28320 0.09900
N 	N 	0.42000 0.51200 0.44440 -0.28400
C 	C 	0.51670 0.33600 0.44310 0.08400
C 	C 	0.55720 0.13030 0.49560 0.06600
C 	C 	0.77120 0.94560 0.33800 0.06200
C 	C 	0.69690 0.67770 0.28410 0.07600
C 	C 	0.48320 0.39740 0.44390 0.07200
C 	C 	0.67810 0.04500 0.19940 -0.14100
H 	H 	0.70080 0.07180 0.21530 0.08400
C 	C 	0.55030 0.21120 0.46680 0.08600
C 	C 	0.53030 0.10740 0.52100 -0.13200
H 	H 	0.50810 0.14250 0.52070 0.07900
C 	C 	0.56660 0.29210 0.41160 0.10100
C 	C 	0.73930 0.89980 0.30680 0.08100
C 	C 	0.81020 0.07490 0.36080 0.08400
H 	H 	0.81610 0.13450 0.35580 -0.00600
C 	C 	0.78100 0.03320 0.33150 -0.14500
H 	H 	0.76770 0.06450 0.30700 0.09800
C 	C 	0.46700 0.40540 0.47980 -0.14800
H 	H 	0.47670 0.37120 0.50480 0.08900
C 	C 	0.65500 0.08950 0.16480 0.07900
H 	H 	0.66240 0.14710 0.15790 -0.01500
C 	C 	0.66770 0.63980 0.25380 -0.14700
H 	H 	0.65110 0.67590 0.23360 0.09500
C 	C 	0.53730 0.03070 0.54720 0.07700
H 	H 	0.51920 0.01440 0.56410 -0.01200
C 	C 	0.72070 0.62150 0.31300 -0.14500
H 	H 	0.74120 0.64470 0.33420 0.08900
C 	C 	0.71370 0.52960 0.31010 0.08700
H 	H 	0.72970 0.49180 0.32990 -0.01700
C 	C 	0.66270 0.54750 0.25290 0.08800
H 	H 	0.64250 0.52300 0.23190 -0.02100
C 	C 	0.79180 0.90100 0.37460 -0.13400
H 	H 	0.78670 0.84100 0.38000 0.09300
C 	C 	0.43600 0.46460 0.47980 0.09200
H 	H 	0.42610 0.47110 0.50540 -0.01200
C 	C 	0.59210 0.30680 0.38000 0.07600
C 	C 	0.58900 0.07650 0.49730 -0.13600
H 	H 	0.60730 0.09060 0.48000 0.08800
C 	C 	0.63450 0.92140 0.18470 -0.13900
H 	H 	0.62720 0.86280 0.18980 0.10100
C 	C 	0.62880 0.26610 0.38600 -0.12900
H 	H 	0.63730 0.22840 0.41000 0.09100
C 	C 	0.59490 0.00200 0.52380 0.08300
H 	H 	0.61700 0.96650 0.52430 -0.01800
C 	C 	0.58210 0.36400 0.34400 -0.14100
H 	H 	0.55840 0.39500 0.33940 0.09400
C 	C 	0.82080 0.94980 0.40350 0.08600
H 	H 	0.83390 0.92150 0.42910 -0.00700
C 	C 	0.61250 0.97170 0.15090 0.09200
H 	H 	0.58970 0.94630 0.13470 -0.01300
C 	C 	0.60710 0.37490 0.31530 0.09800
H 	H 	0.59920 0.41120 0.29070 -0.02700
C 	C 	0.65260 0.28260 0.35570 0.08100
H 	H 	0.67700 0.25480 0.35980 -0.01300
C 	C 	0.43600 0.50150 0.40940 0.09800
H 	H 	0.42490 0.53340 0.38410 -0.02400
C 	C 	0.46770 0.44760 0.40710 -0.15000
H 	H 	0.47820 0.44510 0.38170 0.09700
I 	I 	0.64330 0.32060 0.20201 0.00200
I 	I 	0.62809 0.33410 0.19622 -0.37600
I 	I 	0.02647 0.65177 0.13313 -0.34900
I 	I 	0.12052 0.73941 0.05817 -0.38100
I 	I 	0.38967 0.74065 0.40476 -0.37800
I 	I 	0.35114 0.59016 0.51464 -0.36900
I 	I 	0.24011 0.77388 0.30380 -0.38300
Zn	Zn	0.08328 0.62495 0.09389 1.16500
Zn	Zn	0.37300 0.59726 0.44147 1.16600
Zn	Zn	0.17616 0.85521 0.27502 1.16100
N 	N 	0.22040 0.44950 0.27330 -0.14100
N 	N 	0.18030 0.32220 0.25130 -0.13500
N 	N 	0.23300 0.31080 0.31240 -0.13900
N 	N 	0.12220 0.55350 0.14060 -0.27600
N 	N 	0.18520 0.99270 0.28030 -0.28200
N 	N 	0.03780 0.85170 0.41220 -0.13300
N 	N 	0.07410 0.72040 0.43790 -0.13400
N 	N 	0.33050 0.53320 0.39640 -0.27900
N 	N 	0.02210 0.76880 0.47180 -0.14700
N 	N 	0.06930 0.47970 0.54870 -0.27300
N 	N 	0.14170 0.83650 0.32100 -0.28400
C 	C 	0.19000 0.40670 0.24760 0.09900
C 	C 	0.16720 0.45950 0.21050 0.07100
C 	C 	0.20360 0.27700 0.28320 0.10000
N 	N 	0.92000 0.01200 0.44440 -0.28300
C 	C 	0.01670 0.83600 0.44310 0.08500
C 	C 	0.05720 0.63030 0.49560 0.06700
C 	C 	0.27120 0.44560 0.33800 0.06300
C 	C 	0.19690 0.17770 0.28410 0.07700
C 	C 	0.98320 0.89740 0.44390 0.07300
C 	C 	0.17810 0.54500 0.19940 -0.14100
H 	H 	0.20080 0.57180 0.21530 0.08400
C 	C 	0.05030 0.71120 0.46680 0.08600
C 	C 	0.03030 0.60740 0.52100 -0.13200
H 	H 	0.00810 0.64250 0.52070 0.07900
C 	C 	0.06660 0.79210 0.41160 0.10100
C 	C 	0.23930 0.39980 0.30680 0.08100
C 	C 	0.31020 0.57490 0.36080 0.08400
H 	H 	0.31610 0.63450 0.35580 -0.00600
C 	C 	0.28100 0.53320 0.33150 -0.14500
H 	H 	0.26770 0.56450 0.30700 0.09800
C 	C 	0.96700 0.90540 0.47980 -0.14800
H 	H 	0.97670 0.87120 0.50480 0.08900
C 	C 	0.15500 0.58950 0.16480 0.07900
H 	H 	0.16240 0.64710 0.15790 -0.01500
C 	C 	0.16770 0.13980 0.25380 -0.14600
H 	H 	0.15110 0.17590 0.23360 0.09500
C 	C 	0.03730 0.53070 0.54720 0.07700
H 	H 	0.01920 0.51440 0.56410 -0.01200
C 	C 	0.22070 0.12150 0.31300 -0.14500
H 	H 	0.24120 0.14470 0.33420 0.08900
C 	C 	0.21370 0.02960 0.31010 0.08700
H 	H 	0.22970 0.99180 0.32990 -0.01700
C 	C 	0.16270 0.04750 0.25290 0.08800
H 	H 	0.14250 0.02300 0.23190 -0.02100
C 	C 	0.29180 0.40100 0.37460 -0.13400
H 	H 	0.28670 0.34100 0.38000 0.09300
C 	C 	0.93600 0.96460 0.47980 0.09200
H 	H 	0.92610 0.97110 0.50540 -0.01200
C 	C 	0.09210 0.80680 0.38000 0.07600
C 	C 	0.08900 0.57650 0.49730 -0.13600
H 	H 	0.10730 0.59060 0.48000 0.08800
C 	C 	0.13450 0.42140 0.18470 -0.13800
H 	H 	0.12720 0.36280 0.18980 0.10100
C 	C 	0.12880 0.76610 0.38600 -0.12900
H 	H 	0.13730 0.72840 0.41000 0.09100
C 	C 	0.09490 0.50200 0.52380 0.08300
H 	H 	0.11700 0.46650 0.52430 -0.01700
C 	C 	0.08210 0.86400 0.34400 -0.14100
H 	H 	0.05840 0.89500 0.33940 0.09400
C 	C 	0.32080 0.44980 0.40350 0.08600
H 	H 	0.33390 0.42150 0.42910 -0.00700
C 	C 	0.11250 0.47170 0.15090 0.09200
H 	H 	0.08970 0.44630 0.13470 -0.01300
C 	C 	0.10710 0.87490 0.31530 0.09800
H 	H 	0.09920 0.91120 0.29070 -0.02700
C 	C 	0.15260 0.78260 0.35570 0.08100
H 	H 	0.17700 0.75480 0.35980 -0.01300
C 	C 	0.93600 0.00150 0.40940 0.09800
H 	H 	0.92490 0.03340 0.38410 -0.02400
C 	C 	0.96770 0.94760 0.40710 -0.15000
H 	H 	0.97820 0.94510 0.38170 0.09700
I 	I 	0.14330 0.82060 0.20201 0.00200
I 	I 	0.12809 0.83410 0.19622 -0.37600
I 	I 	0.52647 0.84823 0.63313 -0.34900
I 	I 	0.62052 0.76059 0.55817 -0.38100
I 	I 	0.88967 0.75935 0.90476 -0.37800
I 	I 	0.85114 0.90984 0.01464 -0.36900
I 	I 	0.74011 0.72612 0.80380 -0.38300
Zn	Zn	0.58328 0.87505 0.59389 1.16500
Zn	Zn	0.87300 0.90274 0.94147 1.16600
Zn	Zn	0.67616 0.64479 0.77502 1.16100
N 	N 	0.72040 0.05050 0.77330 -0.14100
N 	N 	0.68030 0.17780 0.75130 -0.13500
N 	N 	0.73300 0.18920 0.81240 -0.13900
N 	N 	0.62220 0.94650 0.64060 -0.27600
N 	N 	0.68520 0.50730 0.78030 -0.28200
N 	N 	0.53780 0.64830 0.91220 -0.13300
N 	N 	0.57410 0.77960 0.93790 -0.13400
N 	N 	0.83050 0.96680 0.89640 -0.28000
N 	N 	0.52210 0.73120 0.97180 -0.14700
N 	N 	0.56930 0.02030 0.04870 -0.27300
N 	N 	0.64170 0.66350 0.82100 -0.28400
C 	C 	0.69000 0.09330 0.74760 0.09900
C 	C 	0.66720 0.04050 0.71050 0.07100
C 	C 	0.70360 0.22300 0.78320 0.10000
N 	N 	0.42000 0.48800 0.94440 -0.28300
C 	C 	0.51670 0.66400 0.94310 0.08500
C 	C 	0.55720 0.86970 0.99560 0.06700
C 	C 	0.77120 0.05440 0.83800 0.06400
C 	C 	0.69690 0.32230 0.78410 0.07700
C 	C 	0.48320 0.60260 0.94390 0.07300
C 	C 	0.67810 0.95500 0.69940 -0.14100
H 	H 	0.70080 0.92820 0.71530 0.08400
C 	C 	0.55030 0.78880 0.96680 0.08600
C 	C 	0.53030 0.89260 0.02100 -0.13200
H 	H 	0.50810 0.85750 0.02070 0.07900
C 	C 	0.56660 0.70790 0.91160 0.10100
C 	C 	0.73930 0.10020 0.80680 0.08000
C 	C 	0.81020 0.92510 0.86080 0.08400
H 	H 	0.81610 0.86550 0.85580 -0.00700
C 	C 	0.78100 0.96680 0.83150 -0.14600
H 	H 	0.76770 0.93550 0.80700 0.09800
C 	C 	0.46700 0.59460 0.97980 -0.14800
H 	H 	0.47670 0.62880 0.00480 0.08900
C 	C 	0.65500 0.91050 0.66480 0.07900
H 	H 	0.66240 0.85290 0.65790 -0.01500
C 	C 	0.66770 0.36020 0.75380 -0.14700
H 	H 	0.65110 0.32410 0.73360 0.09500
C 	C 	0.53730 0.96930 0.04720 0.07700
H 	H 	0.51920 0.98560 0.06410 -0.01200
C 	C 	0.72070 0.37850 0.81300 -0.14500
H 	H 	0.74120 0.35530 0.83420 0.08900
C 	C 	0.71370 0.47040 0.81010 0.08700
H 	H 	0.72970 0.50820 0.82990 -0.01700
C 	C 	0.66270 0.45250 0.75290 0.08800
H 	H 	0.64250 0.47700 0.73190 -0.02100
C 	C 	0.79180 0.09900 0.87460 -0.13500
H 	H 	0.78670 0.15900 0.88000 0.09300
C 	C 	0.43600 0.53540 0.97980 0.09200
H 	H 	0.42610 0.52890 0.00540 -0.01200
C 	C 	0.59210 0.69320 0.88000 0.07600
C 	C 	0.58900 0.92350 0.99730 -0.13700
H 	H 	0.60730 0.90940 0.98000 0.08800
C 	C 	0.63450 0.07860 0.68470 -0.13800
H 	H 	0.62720 0.13720 0.68980 0.10100
C 	C 	0.62880 0.73390 0.88600 -0.12900
H 	H 	0.63730 0.77160 0.91000 0.09100
C 	C 	0.59490 0.99800 0.02380 0.08400
H 	H 	0.61700 0.03350 0.02430 -0.01800
C 	C 	0.58210 0.63600 0.84400 -0.14100
H 	H 	0.55840 0.60500 0.83940 0.09400
C 	C 	0.82080 0.05020 0.90350 0.08600
H 	H 	0.83390 0.07850 0.92910 -0.00700
C 	C 	0.61250 0.02830 0.65090 0.09200
H 	H 	0.58970 0.05370 0.63470 -0.01300
C 	C 	0.60710 0.62510 0.81530 0.09800
H 	H 	0.59920 0.58880 0.79070 -0.02700
C 	C 	0.65260 0.71740 0.85570 0.08100
H 	H 	0.67700 0.74520 0.85980 -0.01300
C 	C 	0.43600 0.49850 0.90940 0.09800
H 	H 	0.42490 0.46660 0.88410 -0.02400
C 	C 	0.46770 0.55240 0.90710 -0.15000
H 	H 	0.47820 0.55490 0.88170 0.09700
I 	I 	0.64330 0.67940 0.70201 0.00200
I 	I 	0.62809 0.66590 0.69622 -0.37600
I 	I 	0.02647 0.34823 0.63313 -0.34900
I 	I 	0.12052 0.26059 0.55817 -0.38100
I 	I 	0.38967 0.25935 0.90476 -0.37800
I 	I 	0.35114 0.40984 0.01464 -0.36900
I 	I 	0.24011 0.22612 0.80380 -0.38300
Zn	Zn	0.08328 0.37505 0.59389 1.16500
Zn	Zn	0.37300 0.40274 0.94147 1.16600
Zn	Zn	0.17616 0.14479 0.77502 1.16100
N 	N 	0.22040 0.55050 0.77330 -0.14100
N 	N 	0.18030 0.67780 0.75130 -0.13500
N 	N 	0.23300 0.68920 0.81240 -0.13900
N 	N 	0.12220 0.44650 0.64060 -0.27600
N 	N 	0.18520 0.00730 0.78030 -0.28100
N 	N 	0.03780 0.14830 0.91220 -0.13300
N 	N 	0.07410 0.27960 0.93790 -0.13400
N 	N 	0.33050 0.46680 0.89640 -0.27900
N 	N 	0.02210 0.23120 0.97180 -0.14700
N 	N 	0.06930 0.52030 0.04870 -0.27300
N 	N 	0.14170 0.16350 0.82100 -0.28400
C 	C 	0.19000 0.59330 0.74760 0.09900
C 	C 	0.16720 0.54050 0.71050 0.07100
C 	C 	0.20360 0.72300 0.78320 0.10000
N 	N 	0.92000 0.98800 0.94440 -0.28300
C 	C 	0.01670 0.16400 0.94310 0.08600
C 	C 	0.05720 0.36970 0.99560 0.06700
C 	C 	0.27120 0.55440 0.83800 0.06300
C 	C 	0.19690 0.82230 0.78410 0.07700
C 	C 	0.98320 0.10260 0.94390 0.07300
C 	C 	0.17810 0.45500 0.69940 -0.14100
H 	H 	0.20080 0.42820 0.71530 0.08400
C 	C 	0.05030 0.28880 0.96680 0.08600
C 	C 	0.03030 0.39260 0.02100 -0.13200
H 	H 	0.00810 0.35750 0.02070 0.07900
C 	C 	0.06660 0.20790 0.91160 0.10100
C 	C 	0.23930 0.60020 0.80680 0.08100
C 	C 	0.31020 0.42510 0.86080 0.08400
H 	H 	0.31610 0.36550 0.85580 -0.00600
C 	C 	0.28100 0.46680 0.83150 -0.14500
H 	H 	0.26770 0.43550 0.80700 0.09800
C 	C 	0.96700 0.09460 0.97980 -0.14800
H 	H 	0.97670 0.12880 0.00480 0.08900
C 	C 	0.15500 0.41050 0.66480 0.07900
H 	H 	0.16240 0.35290 0.65790 -0.01500
C 	C 	0.16770 0.86020 0.75380 -0.14600
H 	H 	0.15110 0.82410 0.73360 0.09500
C 	C 	0.03730 0.46930 0.04720 0.07700
H 	H 	0.01920 0.48560 0.06410 -0.01200
C 	C 	0.22070 0.87850 0.81300 -0.14500
H 	H 	0.24120 0.85530 0.83420 0.08900
C 	C 	0.21370 0.97040 0.81010 0.08700
H 	H 	0.22970 0.00820 0.82990 -0.01700
C 	C 	0.16270 0.95250 0.75290 0.08800
H 	H 	0.14250 0.97700 0.73190 -0.02100
C 	C 	0.29180 0.59900 0.87460 -0.13400
H 	H 	0.28670 0.65900 0.88000 0.09300
C 	C 	0.93600 0.03540 0.97980 0.09200
H 	H 	0.92610 0.02890 0.00540 -0.01200
C 	C 	0.09210 0.19320 0.88000 0.07600
C 	C 	0.08900 0.42350 0.99730 -0.13600
H 	H 	0.10730 0.40940 0.98000 0.08800
C 	C 	0.13450 0.57860 0.68470 -0.13800
H 	H 	0.12720 0.63720 0.68980 0.10100
C 	C 	0.12880 0.23390 0.88600 -0.12900
H 	H 	0.13730 0.27160 0.91000 0.09100
C 	C 	0.09490 0.49800 0.02380 0.08300
H 	H 	0.11700 0.53350 0.02430 -0.01700
C 	C 	0.08210 0.13600 0.84400 -0.14100
H 	H 	0.05840 0.10500 0.83940 0.09400
C 	C 	0.32080 0.55020 0.90350 0.08600
H 	H 	0.33390 0.57850 0.92910 -0.00700
C 	C 	0.11250 0.52830 0.65090 0.09200
H 	H 	0.08970 0.55370 0.63470 -0.01300
C 	C 	0.10710 0.12510 0.81530 0.09800
H 	H 	0.09920 0.08880 0.79070 -0.02700
C 	C 	0.15260 0.21740 0.85570 0.08100
H 	H 	0.17700 0.24520 0.85980 -0.01300
C 	C 	0.93600 0.99850 0.90940 0.09700
H 	H 	0.92490 0.96660 0.88410 -0.02300
C 	C 	0.96770 0.05240 0.90710 -0.14900
H 	H 	0.97820 0.05490 0.88170 0.09700
I 	I 	0.14330 0.17940 0.70201 0.00200
I 	I 	0.12809 0.16590 0.69622 -0.37600
I 	I 	0.47353 0.15177 0.36687 -0.34900
I 	I 	0.37948 0.23941 0.44183 -0.38100
I 	I 	0.11033 0.24065 0.09524 -0.37800
I 	I 	0.14886 0.09016 0.98536 -0.36900
I 	I 	0.25989 0.27388 0.19620 -0.38300
Zn	Zn	0.41672 0.12495 0.40611 1.16500
Zn	Zn	0.12700 0.09726 0.05853 1.16600
Zn	Zn	0.32384 0.35521 0.22498 1.16100
N 	N 	0.27960 0.94950 0.22670 -0.14100
N 	N 	0.31970 0.82220 0.24870 -0.13500
N 	N 	0.26700 0.81080 0.18760 -0.13900
N 	N 	0.37780 0.05350 0.35940 -0.27600
N 	N 	0.31480 0.49270 0.21970 -0.28200
N 	N 	0.46220 0.35170 0.08780 -0.13300
N 	N 	0.42590 0.22040 0.06210 -0.13400
N 	N 	0.16950 0.03320 0.10360 -0.28000
N 	N 	0.47790 0.26880 0.02820 -0.14700
N 	N 	0.43070 0.97970 0.95130 -0.27300
N 	N 	0.35830 0.33650 0.17900 -0.28400
C 	C 	0.31000 0.90670 0.25240 0.09900
C 	C 	0.33280 0.95950 0.28950 0.07100
C 	C 	0.29640 0.77700 0.21680 0.10000
N 	N 	0.58000 0.51200 0.05560 -0.28300
C 	C 	0.48330 0.33600 0.05690 0.08500
C 	C 	0.44280 0.13030 0.00440 0.06700
C 	C 	0.22880 0.94560 0.16200 0.06400
C 	C 	0.30310 0.67770 0.21590 0.07700
C 	C 	0.51680 0.39740 0.05610 0.07300
C 	C 	0.32190 0.04500 0.30060 -0.14100
H 	H 	0.29920 0.07180 0.28470 0.08400
C 	C 	0.44970 0.21120 0.03320 0.08600
C 	C 	0.46970 0.10740 0.97900 -0.13200
H 	H 	0.49190 0.14250 0.97930 0.07900
C 	C 	0.43340 0.29210 0.08840 0.10100
C 	C 	0.26070 0.89980 0.19320 0.08000
C 	C 	0.18980 0.07490 0.13920 0.08400
H 	H 	0.18390 0.13450 0.14420 -0.00700
C 	C 	0.21900 0.03320 0.16850 -0.14600
H 	H 	0.23230 0.06450 0.19300 0.09800
C 	C 	0.53300 0.40540 0.02020 -0.14800
H 	H 	0.52330 0.37120 0.99520 0.08900
C 	C 	0.34500 0.08950 0.33520 0.07900
H 	H 	0.33760 0.14710 0.34210 -0.01500
C 	C 	0.33230 0.63980 0.24620 -0.14700
H 	H 	0.34890 0.67590 0.26640 0.09500
C 	C 	0.46270 0.03070 0.95280 0.07700
H 	H 	0.48080 0.01440 0.93590 -0.01200
C 	C 	0.27930 0.62150 0.18700 -0.14500
H 	H 	0.25880 0.64470 0.16580 0.08900
C 	C 	0.28630 0.52960 0.18990 0.08700
H 	H 	0.27030 0.49180 0.17010 -0.01700
C 	C 	0.33730 0.54750 0.24710 0.08800
H 	H 	0.35750 0.52300 0.26810 -0.02100
C 	C 	0.20820 0.90100 0.12540 -0.13500
H 	H 	0.21330 0.84100 0.12000 0.09300
C 	C 	0.56400 0.46460 0.02020 0.09200
H 	H 	0.57390 0.47110 0.99460 -0.01200
C 	C 	0.40790 0.30680 0.12000 0.07600
C 	C 	0.41100 0.07650 0.00270 -0.13700
H 	H 	0.39270 0.09060 0.02000 0.08800
C 	C 	0.36550 0.92140 0.31530 -0.13800
H 	H 	0.37280 0.86280 0.31020 0.10100
C 	C 	0.37120 0.26610 0.11400 -0.12900
H 	H 	0.36270 0.22840 0.09000 0.09100
C 	C 	0.40510 0.00200 0.97620 0.08400
H 	H 	0.38300 0.96650 0.97570 -0.01800
C 	C 	0.41790 0.36400 0.15600 -0.14100
H 	H 	0.44160 0.39500 0.16060 0.09400
C 	C 	0.17920 0.94980 0.09650 0.08600
H 	H 	0.16610 0.92150 0.07090 -0.00700
C 	C 	0.38750 0.97170 0.34910 0.09200
H 	H 	0.41030 0.94630 0.36530 -0.01300
C 	C 	0.39290 0.37490 0.18470 0.09800
H 	H 	0.40080 0.41120 0.20930 -0.02700
C 	C 	0.34740 0.28260 0.14430 0.08100
H 	H 	0.32300 0.25480 0.14020 -0.01300
C 	C 	0.56400 0.50150 0.09060 0.09800
H 	H 	0.57510 0.53340 0.11590 -0.02400
C 	C 	0.53230 0.44760 0.09290 -0.15000
H 	H 	0.52180 0.44510 0.11830 0.09700
I 	I 	0.35670 0.32060 0.29799 0.00200
I 	I 	0.37191 0.33410 0.30378 -0.37600
I 	I 	0.97353 0.65177 0.36687 -0.34900
I 	I 	0.87948 0.73941 0.44183 -0.38100
I 	I 	0.61033 0.74065 0.09524 -0.37800
I 	I 	0.64886 0.59016 0.98536 -0.36900
I 	I 	0.75989 0.77388 0.19620 -0.38300
Zn	Zn	0.91672 0.62495 0.40611 1.16500
Zn	Zn	0.62700 0.59726 0.05853 1.16600
Zn	Zn	0.82384 0.85521 0.22498 1.16100
N 	N 	0.77960 0.44950 0.22670 -0.14100
N 	N 	0.81970 0.32220 0.24870 -0.13500
N 	N 	0.76700 0.31080 0.18760 -0.13900
N 	N 	0.87780 0.55350 0.35940 -0.27600
N 	N 	0.81480 0.99270 0.21970 -0.28100
N 	N 	0.96220 0.85170 0.08780 -0.13300
N 	N 	0.92590 0.72040 0.06210 -0.13400
N 	N 	0.66950 0.53320 0.10360 -0.27900
N 	N 	0.97790 0.76880 0.02820 -0.14700
N 	N 	0.93070 0.47970 0.95130 -0.27300
N 	N 	0.85830 0.83650 0.17900 -0.28400
C 	C 	0.81000 0.40670 0.25240 0.09900
C 	C 	0.83280 0.45950 0.28950 0.07100
C 	C 	0.79640 0.27700 0.21680 0.10000
N 	N 	0.08000 0.01200 0.05560 -0.28300
C 	C 	0.98330 0.83600 0.05690 0.08600
C 	C 	0.94280 0.63030 0.00440 0.06700
C 	C 	0.72880 0.44560 0.16200 0.06300
C 	C 	0.80310 0.17770 0.21590 0.07700
C 	C 	0.01680 0.89740 0.05610 0.07300
C 	C 	0.82190 0.54500 0.30060 -0.14100
H 	H 	0.79920 0.57180 0.28470 0.08400
C 	C 	0.94970 0.71120 0.03320 0.08600
C 	C 	0.96970 0.60740 0.97900 -0.13200
H 	H 	0.99190 0.64250 0.97930 0.07900
C 	C 	0.93340 0.79210 0.08840 0.10100
C 	C 	0.76070 0.39980 0.19320 0.08100
C 	C 	0.68980 0.57490 0.13920 0.08400
H 	H 	0.68390 0.63450 0.14420 -0.00600
C 	C 	0.71900 0.53320 0.16850 -0.14500
H 	H 	0.73230 0.56450 0.19300 0.09800
C 	C 	0.03300 0.90540 0.02020 -0.14800
H 	H 	0.02330 0.87120 0.99520 0.08900
C 	C 	0.84500 0.58950 0.33520 0.07900
H 	H 	0.83760 0.64710 0.34210 -0.01500
C 	C 	0.83230 0.13980 0.24620 -0.14600
H 	H 	0.84890 0.17590 0.26640 0.09500
C 	C 	0.96270 0.53070 0.95280 0.07700
H 	H 	0.98080 0.51440 0.93590 -0.01200
C 	C 	0.77930 0.12150 0.18700 -0.14500
H 	H 	0.75880 0.14470 0.16580 0.08900
C 	C 	0.78630 0.02960 0.18990 0.08700
H 	H 	0.77030 0.99180 0.17010 -0.01700
C 	C 	0.83730 0.04750 0.24710 0.08800
H 	H 	0.85750 0.02300 0.26810 -0.02100
C 	C 	0.70820 0.40100 0.12540 -0.13400
H 	H 	0.71330 0.34100 0.12000 0.09300
C 	C 	0.06400 0.96460 0.02020 0.09200
H 	H 	0.07390 0.97110 0.99460 -0.01200
C 	C 	0.90790 0.80680 0.12000 0.07600
C 	C 	0.91100 0.57650 0.00270 -0.13600
H 	H 	0.89270 0.59060 0.02000 0.08800
C 	C 	0.86550 0.42140 0.31530 -0.13800
H 	H 	0.87280 0.36280 0.31020 0.10100
C 	C 	0.87120 0.76610 0.11400 -0.12900
H 	H 	0.86270 0.72840 0.09000 0.09100
C 	C 	0.90510 0.50200 0.97620 0.08300
H 	H 	0.88300 0.46650 0.97570 -0.01700
C 	C 	0.91790 0.86400 0.15600 -0.14100
H 	H 	0.94160 0.89500 0.16060 0.09400
C 	C 	0.67920 0.44980 0.09650 0.08600
H 	H 	0.66610 0.42150 0.07090 -0.00700
C 	C 	0.88750 0.47170 0.34910 0.09200
H 	H 	0.91030 0.44630 0.36530 -0.01300
C 	C 	0.89290 0.87490 0.18470 0.09800
H 	H 	0.90080 0.91120 0.20930 -0.02700
C 	C 	0.84740 0.78260 0.14430 0.08100
H 	H 	0.82300 0.75480 0.14020 -0.01300
C 	C 	0.06400 0.00150 0.09060 0.09700
H 	H 	0.07510 0.03340 0.11590 -0.02300
C 	C 	0.03230 0.94760 0.09290 -0.14900
H 	H 	0.02180 0.94510 0.11830 0.09700
I 	I 	0.85670 0.82060 0.29799 0.00200
I 	I 	0.87191 0.83410 0.30378 -0.37600
I 	I 	0.47353 0.84823 0.86687 -0.34900
I 	I 	0.37948 0.76059 0.94183 -0.38100
I 	I 	0.11033 0.75935 0.59524 -0.37800
I 	I 	0.14886 0.90984 0.48536 -0.36900
I 	I 	0.25989 0.72612 0.69620 -0.38300
Zn	Zn	0.41672 0.87505 0.90611 1.16500
Zn	Zn	0.12700 0.90274 0.55853 1.16600
Zn	Zn	0.32384 0.64479 0.72498 1.16100
N 	N 	0.27960 0.05050 0.72670 -0.14100
N 	N 	0.31970 0.17780 0.74870 -0.13500
N 	N 	0.26700 0.18920 0.68760 -0.13900
N 	N 	0.37780 0.94650 0.85940 -0.27600
N 	N 	0.31480 0.50730 0.71970 -0.28200
N 	N 	0.46220 0.64830 0.58780 -0.13300
N 	N 	0.42590 0.77960 0.56210 -0.13400
N 	N 	0.16950 0.96680 0.60360 -0.27900
N 	N 	0.47790 0.73120 0.52820 -0.14700
N 	N 	0.43070 0.02030 0.45130 -0.27300
N 	N 	0.35830 0.66350 0.67900 -0.28400
C 	C 	0.31000 0.09330 0.75240 0.09900
C 	C 	0.33280 0.04050 0.78950 0.07100
C 	C 	0.29640 0.22300 0.71680 0.10000
N 	N 	0.58000 0.48800 0.55560 -0.28300
C 	C 	0.48330 0.66400 0.55690 0.08500
C 	C 	0.44280 0.86970 0.50440 0.06700
C 	C 	0.22880 0.05440 0.66200 0.06300
C 	C 	0.30310 0.32230 0.71590 0.07700
C 	C 	0.51680 0.60260 0.55610 0.07300
C 	C 	0.32190 0.95500 0.80060 -0.14100
H 	H 	0.29920 0.92820 0.78470 0.08400
C 	C 	0.44970 0.78880 0.53320 0.08600
C 	C 	0.46970 0.89260 0.47900 -0.13200
H 	H 	0.49190 0.85750 0.47930 0.07900
C 	C 	0.43340 0.70790 0.58840 0.10100
C 	C 	0.26070 0.10020 0.69320 0.08100
C 	C 	0.18980 0.92510 0.63920 0.08400
H 	H 	0.18390 0.86550 0.64420 -0.00600
C 	C 	0.21900 0.96680 0.66850 -0.14500
H 	H 	0.23230 0.93550 0.69300 0.09800
C 	C 	0.53300 0.59460 0.52020 -0.14800
H 	H 	0.52330 0.62880 0.49520 0.08900
C 	C 	0.34500 0.91050 0.83520 0.07900
H 	H 	0.33760 0.85290 0.84210 -0.01500
C 	C 	0.33230 0.36020 0.74620 -0.14700
H 	H 	0.34890 0.32410 0.76640 0.09500
C 	C 	0.46270 0.96930 0.45280 0.07700
H 	H 	0.48080 0.98560 0.43590 -0.01200
C 	C 	0.27930 0.37850 0.68700 -0.14500
H 	H 	0.25880 0.35530 0.66580 0.08900
C 	C 	0.28630 0.47040 0.68990 0.08700
H 	H 	0.27030 0.50820 0.67010 -0.01700
C 	C 	0.33730 0.45250 0.74710 0.08800
H 	H 	0.35750 0.47700 0.76810 -0.02100
C 	C 	0.20820 0.09900 0.62540 -0.13400
H 	H 	0.21330 0.15900 0.62000 0.09300
C 	C 	0.56400 0.53540 0.52020 0.09200
H 	H 	0.57390 0.52890 0.49460 -0.01200
C 	C 	0.40790 0.69320 0.62000 0.07600
C 	C 	0.41100 0.92350 0.50270 -0.13600
H 	H 	0.39270 0.90940 0.52000 0.08800
C 	C 	0.36550 0.07860 0.81530 -0.13900
H 	H 	0.37280 0.13720 0.81020 0.10100
C 	C 	0.37120 0.73390 0.61400 -0.12900
H 	H 	0.36270 0.77160 0.59000 0.09100
C 	C 	0.40510 0.99800 0.47620 0.08300
H 	H 	0.38300 0.03350 0.47570 -0.01800
C 	C 	0.41790 0.63600 0.65600 -0.14100
H 	H 	0.44160 0.60500 0.66060 0.09400
C 	C 	0.17920 0.05020 0.59650 0.08600
H 	H 	0.16610 0.07850 0.57090 -0.00700
C 	C 	0.38750 0.02830 0.84910 0.09200
H 	H 	0.41030 0.05370 0.86530 -0.01300
C 	C 	0.39290 0.62510 0.68470 0.09800
H 	H 	0.40080 0.58880 0.70930 -0.02700
C 	C 	0.34740 0.71740 0.64430 0.08100
H 	H 	0.32300 0.74520 0.64020 -0.01300
C 	C 	0.56400 0.49850 0.59060 0.09800
H 	H 	0.57510 0.46660 0.61590 -0.02400
C 	C 	0.53230 0.55240 0.59290 -0.15000
H 	H 	0.52180 0.55490 0.61830 0.09700
I 	I 	0.35670 0.67940 0.79799 0.00200
I 	I 	0.37191 0.66590 0.80378 -0.37600
I 	I 	0.97353 0.34823 0.86687 -0.34900
I 	I 	0.87948 0.26059 0.94183 -0.38100
I 	I 	0.61033 0.25935 0.59524 -0.37800
I 	I 	0.64886 0.40984 0.48536 -0.36900
I 	I 	0.75989 0.22612 0.69620 -0.38300
Zn	Zn	0.91672 0.37505 0.90611 1.16500
Zn	Zn	0.62700 0.40274 0.55853 1.16600
Zn	Zn	0.82384 0.14479 0.72498 1.16100
N 	N 	0.77960 0.55050 0.72670 -0.14100
N 	N 	0.81970 0.67780 0.74870 -0.13500
N 	N 	0.76700 0.68920 0.68760 -0.13900
N 	N 	0.87780 0.44650 0.85940 -0.27600
N 	N 	0.81480 0.00730 0.71970 -0.28200
N 	N 	0.96220 0.14830 0.58780 -0.13300
N 	N 	0.92590 0.27960 0.56210 -0.13400
N 	N 	0.66950 0.46680 0.60360 -0.27900
N 	N 	0.97790 0.23120 0.52820 -0.14700
N 	N 	0.93070 0.52030 0.45130 -0.27300
N 	N 	0.85830 0.16350 0.67900 -0.28400
C 	C 	0.81000 0.59330 0.75240 0.09900
C 	C 	0.83280 0.54050 0.78950 0.07100
C 	C 	0.79640 0.72300 0.71680 0.10000
N 	N 	0.08000 0.98800 0.55560 -0.28300
C 	C 	0.98330 0.16400 0.55690 0.08500
C 	C 	0.94280 0.36970 0.50440 0.06700
C 	C 	0.72880 0.55440 0.66200 0.06300
C 	C 	0.80310 0.82230 0.71590 0.07700
C 	C 	0.01680 0.10260 0.55610 0.07300
C 	C 	0.82190 0.45500 0.80060 -0.14100
H 	H 	0.79920 0.42820 0.78470 0.08400
C 	C 	0.94970 0.28880 0.53320 0.08600
C 	C 	0.96970 0.39260 0.47900 -0.13200
H 	H 	0.99190 0.35750 0.47930 0.07900
C 	C 	0.93340 0.20790 0.58840 0.10100
C 	C 	0.76070 0.60020 0.69320 0.08100
C 	C 	0.68980 0.42510 0.63920 0.08400
H 	H 	0.68390 0.36550 0.64420 -0.00600
C 	C 	0.71900 0.46680 0.66850 -0.14500
H 	H 	0.73230 0.43550 0.69300 0.09800
C 	C 	0.03300 0.09460 0.52020 -0.14800
H 	H 	0.02330 0.12880 0.49520 0.08900
C 	C 	0.84500 0.41050 0.83520 0.07900
H 	H 	0.83760 0.35290 0.84210 -0.01500
C 	C 	0.83230 0.86020 0.74620 -0.14600
H 	H 	0.84890 0.82410 0.76640 0.09500
C 	C 	0.96270 0.46930 0.45280 0.07700
H 	H 	0.98080 0.48560 0.43590 -0.01200
C 	C 	0.77930 0.87850 0.68700 -0.14500
H 	H 	0.75880 0.85530 0.66580 0.08900
C 	C 	0.78630 0.97040 0.68990 0.08700
H 	H 	0.77030 0.00820 0.67010 -0.01700
C 	C 	0.83730 0.95250 0.74710 0.08800
H 	H 	0.85750 0.97700 0.76810 -0.02100
C 	C 	0.70820 0.59900 0.62540 -0.13400
H 	H 	0.71330 0.65900 0.62000 0.09300
C 	C 	0.06400 0.03540 0.52020 0.09200
H 	H 	0.07390 0.02890 0.49460 -0.01200
C 	C 	0.90790 0.19320 0.62000 0.07600
C 	C 	0.91100 0.42350 0.50270 -0.13600
H 	H 	0.89270 0.40940 0.52000 0.08800
C 	C 	0.86550 0.57860 0.81530 -0.13800
H 	H 	0.87280 0.63720 0.81020 0.10100
C 	C 	0.87120 0.23390 0.61400 -0.12900
H 	H 	0.86270 0.27160 0.59000 0.09100
C 	C 	0.90510 0.49800 0.47620 0.08300
H 	H 	0.88300 0.53350 0.47570 -0.01700
C 	C 	0.91790 0.13600 0.65600 -0.14100
H 	H 	0.94160 0.10500 0.66060 0.09400
C 	C 	0.67920 0.55020 0.59650 0.08600
H 	H 	0.66610 0.57850 0.57090 -0.00700
C 	C 	0.88750 0.52830 0.84910 0.09200
H 	H 	0.91030 0.55370 0.86530 -0.01300
C 	C 	0.89290 0.12510 0.68470 0.09800
H 	H 	0.90080 0.08880 0.70930 -0.02700
C 	C 	0.84740 0.21740 0.64430 0.08100
H 	H 	0.82300 0.24520 0.64020 -0.01300
C 	C 	0.06400 0.99850 0.59060 0.09800
H 	H 	0.07510 0.96660 0.61590 -0.02400
C 	C 	0.03230 0.05240 0.59290 -0.15000
H 	H 	0.02180 0.05490 0.61830 0.09700
I 	I 	0.85670 0.17940 0.79799 0.00200
I 	I 	0.87191 0.16590 0.80378 -0.37600
