data_crystal

_cell_length_a 35.79360
_cell_length_b 14.89080
_cell_length_c 31.37070
_cell_angle_alpha 90.00000
_cell_angle_beta  102.67300
_cell_angle_gamma 90.00000

_symmetry_space_group_name_	'P 1'
_symmetry_space_group_name_H-M	'P 1'

loop_
_symmetry_equiv_pos_as_xyz
  x,y,z

loop_
_atom_site_label
_atom_site_type_symbol
_atom_site_fract_x
_atom_site_fract_y
_atom_site_fract_z
_atom_site_charge
I 	I 	0.73682 0.76626 0.30057 -0.37600
I 	I 	0.61663 0.26252 0.56143 0.23400
I 	I 	0.63109 0.82789 0.20006 -0.40700
I 	I 	0.52519 0.35683 0.62924 -0.68500
I 	I 	0.89665 0.26665 0.89506 -0.51900
I 	I 	0.86290 0.41137 0.00677 -0.36200
Zn	Zn	0.88018 0.40964 0.93245 1.16400
Zn	Zn	0.67510 0.85367 0.27473 1.16500
Zn	Zn	0.58495 0.38196 0.59525 1.14400
N 	N 	0.57330 0.48780 0.55130 -0.27700
N 	N 	0.64166 0.83380 0.31940 -0.28400
N 	N 	0.72255 0.55410 0.77339 -0.14000
N 	N 	0.68641 0.00910 0.78010 -0.27300
N 	N 	0.83588 0.47240 0.89040 -0.28100
N 	N 	0.73696 0.69300 0.81080 -0.13700
N 	N 	0.54017 0.84590 0.40700 -0.12900
N 	N 	0.62290 0.44780 0.64410 -0.27700
N 	N 	0.68334 0.68100 0.75160 -0.13300
N 	N 	0.57786 0.71920 0.43640 -0.13100
C 	C 	0.78330 0.47020 0.82820 -0.13700
H 	H 	0.76850 0.43830 0.80500 0.09900
C 	C 	0.77518 0.56070 0.83540 0.06200
N 	N 	0.42485 0.00270 0.43530 -0.28500
C 	C 	0.82820 0.55660 0.89680 0.09100
H 	H 	0.84350 0.58650 0.92030 -0.00900
C 	C 	0.70749 0.72690 0.78270 0.10500
C 	C 	0.48700 0.89130 0.43720 0.07100
C 	C 	0.67790 0.45580 0.70330 -0.13800
H 	H 	0.69940 0.42780 0.71990 0.08700
C 	C 	0.69267 0.59550 0.74830 0.10200
C 	C 	0.56936 0.78790 0.40930 0.10900
C 	C 	0.70000 0.82520 0.78350 0.06900
C 	C 	0.52040 0.83220 0.43780 0.08800
C 	C 	0.79810 0.60400 0.87030 -0.13700
H 	H 	0.79370 0.66380 0.87620 0.10100
C 	C 	0.63570 0.58070 0.68690 -0.13500
H 	H 	0.62870 0.63920 0.69200 0.10500
C 	C 	0.44120 0.95720 0.47090 0.08900
H 	H 	0.43110 0.96340 0.49570 -0.01400
C 	C 	0.66860 0.54310 0.71250 0.07000
C 	C 	0.65430 0.41090 0.66840 0.08200
H 	H 	0.66070 0.35270 0.66200 -0.01500
C 	C 	0.66240 0.95350 0.75380 0.07000
H 	H 	0.64130 0.97730 0.73450 -0.01500
C 	C 	0.56210 0.63490 0.49540 0.05900
C 	C 	0.59990 0.51280 0.52970 0.07500
H 	H 	0.62240 0.47940 0.53370 -0.01000
C 	C 	0.81370 0.42990 0.85650 0.08000
H 	H 	0.81900 0.37010 0.85180 -0.00800
C 	C 	0.55578 0.71260 0.46510 0.09500
C 	C 	0.71700 0.97480 0.80680 0.08500
H 	H 	0.73400 0.01370 0.82450 -0.01600
C 	C 	0.74310 0.60510 0.80490 0.08600
C 	C 	0.53490 0.60920 0.51780 -0.12800
H 	H 	0.51220 0.64150 0.51450 0.07400
C 	C 	0.47210 0.90160 0.47320 -0.15900
H 	H 	0.48280 0.87150 0.49900 0.08800
C 	C 	0.72470 0.88380 0.80950 -0.13700
H 	H 	0.74650 0.86230 0.82870 0.08900
C 	C 	0.54120 0.53600 0.54480 0.07900
H 	H 	0.52220 0.51920 0.55930 -0.01100
C 	C 	0.66820 0.86110 0.75470 -0.12800
H 	H 	0.65110 0.82370 0.73620 0.09100
C 	C 	0.61380 0.53080 0.65420 0.08900
H 	H 	0.59140 0.55610 0.63810 -0.00800
N 	N 	0.52747 0.76910 0.46870 -0.14900
C 	C 	0.59450 0.80250 0.37760 0.08700
C 	C 	0.59600 0.58540 0.50180 -0.12700
H 	H 	0.61530 0.60090 0.48770 0.08700
C 	C 	0.65200 0.77990 0.35410 0.09300
H 	H 	0.67580 0.75200 0.35870 -0.01700
C 	C 	0.62960 0.76380 0.38300 -0.14600
H 	H 	0.63830 0.72600 0.40670 0.09800
C 	C 	0.43880 0.99010 0.40030 0.09400
H 	H 	0.42740 0.02020 0.37480 -0.02300
C 	C 	0.58330 0.86020 0.34190 -0.14400
H 	H 	0.55980 0.88950 0.33690 0.09700
C 	C 	0.46930 0.93450 0.39960 -0.15600
H 	H 	0.47790 0.92630 0.37400 0.09900
C 	C 	0.60800 0.87260 0.31420 0.10000
H 	H 	0.60040 0.91080 0.29050 -0.02500
I 	I 	0.88660 0.27140 0.90980 0.13100
I 	I 	0.63399 0.27620 0.55535 -0.57500
I 	I 	0.53475 0.34000 0.61589 0.31200
I 	I 	0.23682 0.26626 0.30057 -0.37700
I 	I 	0.11663 0.76252 0.56143 0.23300
I 	I 	0.13109 0.32789 0.20006 -0.40900
I 	I 	0.02519 0.85683 0.62924 -0.68600
I 	I 	0.39665 0.76665 0.89506 -0.52000
I 	I 	0.36290 0.91137 0.00677 -0.36300
Zn	Zn	0.38018 0.90964 0.93245 1.16300
Zn	Zn	0.17510 0.35367 0.27473 1.16400
Zn	Zn	0.08495 0.88196 0.59525 1.14300
N 	N 	0.07330 0.98780 0.55130 -0.27800
N 	N 	0.14166 0.33380 0.31940 -0.28500
N 	N 	0.22255 0.05410 0.77339 -0.14100
N 	N 	0.18641 0.50910 0.78010 -0.27400
N 	N 	0.33588 0.97240 0.89040 -0.28200
N 	N 	0.23696 0.19300 0.81080 -0.13800
N 	N 	0.04017 0.34590 0.40700 -0.13000
N 	N 	0.12290 0.94780 0.64410 -0.27800
N 	N 	0.18334 0.18100 0.75160 -0.13400
N 	N 	0.07786 0.21920 0.43640 -0.13200
C 	C 	0.28330 0.97020 0.82820 -0.13800
H 	H 	0.26850 0.93830 0.80500 0.09800
C 	C 	0.27518 0.06070 0.83540 0.06100
N 	N 	0.92485 0.50270 0.43530 -0.28600
C 	C 	0.32820 0.05660 0.89680 0.09100
H 	H 	0.34350 0.08650 0.92030 -0.01000
C 	C 	0.20749 0.22690 0.78270 0.10400
C 	C 	0.98700 0.39130 0.43720 0.07000
C 	C 	0.17790 0.95580 0.70330 -0.13900
H 	H 	0.19940 0.92780 0.71990 0.08600
C 	C 	0.19267 0.09550 0.74830 0.10100
C 	C 	0.06936 0.28790 0.40930 0.10800
C 	C 	0.20000 0.32520 0.78350 0.06800
C 	C 	0.02040 0.33220 0.43780 0.08700
C 	C 	0.29810 0.10400 0.87030 -0.13800
H 	H 	0.29370 0.16380 0.87620 0.10100
C 	C 	0.13570 0.08070 0.68690 -0.13500
H 	H 	0.12870 0.13920 0.69200 0.10500
C 	C 	0.94120 0.45720 0.47090 0.08900
H 	H 	0.93110 0.46340 0.49570 -0.01400
C 	C 	0.16860 0.04310 0.71250 0.07000
C 	C 	0.15430 0.91090 0.66840 0.08200
H 	H 	0.16070 0.85270 0.66200 -0.01500
C 	C 	0.16240 0.45350 0.75380 0.07000
H 	H 	0.14130 0.47730 0.73450 -0.01500
C 	C 	0.06210 0.13490 0.49540 0.05900
C 	C 	0.09990 0.01280 0.52970 0.07500
H 	H 	0.12240 0.97940 0.53370 -0.01000
C 	C 	0.31370 0.92990 0.85650 0.08000
H 	H 	0.31900 0.87010 0.85180 -0.00800
C 	C 	0.05578 0.21260 0.46510 0.09500
C 	C 	0.21700 0.47480 0.80680 0.08500
H 	H 	0.23400 0.51370 0.82450 -0.01600
C 	C 	0.24310 0.10510 0.80490 0.08600
C 	C 	0.03490 0.10920 0.51780 -0.12800
H 	H 	0.01220 0.14150 0.51450 0.07400
C 	C 	0.97210 0.40160 0.47320 -0.15900
H 	H 	0.98280 0.37150 0.49900 0.08800
C 	C 	0.22470 0.38380 0.80950 -0.13800
H 	H 	0.24650 0.36230 0.82870 0.08900
C 	C 	0.04120 0.03600 0.54480 0.07900
H 	H 	0.02220 0.01920 0.55930 -0.01100
C 	C 	0.16820 0.36110 0.75470 -0.12800
H 	H 	0.15110 0.32370 0.73620 0.09100
C 	C 	0.11380 0.03080 0.65420 0.08900
H 	H 	0.09140 0.05610 0.63810 -0.00800
N 	N 	0.02747 0.26910 0.46870 -0.14900
C 	C 	0.09450 0.30250 0.37760 0.08700
C 	C 	0.09600 0.08540 0.50180 -0.12700
H 	H 	0.11530 0.10090 0.48770 0.08700
C 	C 	0.15200 0.27990 0.35410 0.09300
H 	H 	0.17580 0.25200 0.35870 -0.01700
C 	C 	0.12960 0.26380 0.38300 -0.14600
H 	H 	0.13830 0.22600 0.40670 0.09800
C 	C 	0.93880 0.49010 0.40030 0.09400
H 	H 	0.92740 0.52020 0.37480 -0.02300
C 	C 	0.08330 0.36020 0.34190 -0.14400
H 	H 	0.05980 0.38950 0.33690 0.09700
C 	C 	0.96930 0.43450 0.39960 -0.15600
H 	H 	0.97790 0.42630 0.37400 0.09900
C 	C 	0.10800 0.37260 0.31420 0.10000
H 	H 	0.10040 0.41080 0.29050 -0.02500
I 	I 	0.38660 0.77140 0.90980 0.13100
I 	I 	0.13399 0.77620 0.55535 -0.57500
I 	I 	0.03475 0.84000 0.61589 0.31200
I 	I 	0.73682 0.23374 0.80057 -0.37700
I 	I 	0.61663 0.73748 0.06143 0.23300
I 	I 	0.63109 0.17211 0.70006 -0.40900
I 	I 	0.52519 0.64317 0.12924 -0.68600
I 	I 	0.89665 0.73335 0.39506 -0.52000
I 	I 	0.86290 0.58863 0.50677 -0.36300
Zn	Zn	0.88018 0.59036 0.43245 1.16300
Zn	Zn	0.67510 0.14633 0.77473 1.16400
Zn	Zn	0.58495 0.61804 0.09525 1.14300
N 	N 	0.57330 0.51220 0.05130 -0.27800
N 	N 	0.64166 0.16620 0.81940 -0.28500
N 	N 	0.72255 0.44590 0.27339 -0.14100
N 	N 	0.68641 0.99090 0.28010 -0.27400
N 	N 	0.83588 0.52760 0.39040 -0.28200
N 	N 	0.73696 0.30700 0.31080 -0.13800
N 	N 	0.54017 0.15410 0.90700 -0.13000
N 	N 	0.62290 0.55220 0.14410 -0.27800
N 	N 	0.68334 0.31900 0.25160 -0.13400
N 	N 	0.57786 0.28080 0.93640 -0.13200
C 	C 	0.78330 0.52980 0.32820 -0.13800
H 	H 	0.76850 0.56170 0.30500 0.09800
C 	C 	0.77518 0.43930 0.33540 0.06100
N 	N 	0.42485 0.99730 0.93530 -0.28700
C 	C 	0.82820 0.44340 0.39680 0.09000
H 	H 	0.84350 0.41350 0.42030 -0.01000
C 	C 	0.70749 0.27310 0.28270 0.10400
C 	C 	0.48700 0.10870 0.93720 0.07000
C 	C 	0.67790 0.54420 0.20330 -0.13900
H 	H 	0.69940 0.57220 0.21990 0.08600
C 	C 	0.69267 0.40450 0.24830 0.10100
C 	C 	0.56936 0.21210 0.90930 0.10800
C 	C 	0.70000 0.17480 0.28350 0.06800
C 	C 	0.52040 0.16780 0.93780 0.08700
C 	C 	0.79810 0.39600 0.37030 -0.13800
H 	H 	0.79370 0.33620 0.37620 0.10100
C 	C 	0.63570 0.41930 0.18690 -0.13500
H 	H 	0.62870 0.36080 0.19200 0.10500
C 	C 	0.44120 0.04280 0.97090 0.08900
H 	H 	0.43110 0.03660 0.99570 -0.01400
C 	C 	0.66860 0.45690 0.21250 0.07000
C 	C 	0.65430 0.58910 0.16840 0.08200
H 	H 	0.66070 0.64730 0.16200 -0.01500
C 	C 	0.66240 0.04650 0.25380 0.07000
H 	H 	0.64130 0.02270 0.23450 -0.01500
C 	C 	0.56210 0.36510 0.99540 0.05900
C 	C 	0.59990 0.48720 0.02970 0.07500
H 	H 	0.62240 0.52060 0.03370 -0.01000
C 	C 	0.81370 0.57010 0.35650 0.08000
H 	H 	0.81900 0.62990 0.35180 -0.00800
C 	C 	0.55578 0.28740 0.96510 0.09500
C 	C 	0.71700 0.02520 0.30680 0.08500
H 	H 	0.73400 0.98630 0.32450 -0.01600
C 	C 	0.74310 0.39490 0.30490 0.08600
C 	C 	0.53490 0.39080 0.01780 -0.12800
H 	H 	0.51220 0.35850 0.01450 0.07400
C 	C 	0.47210 0.09840 0.97320 -0.16000
H 	H 	0.48280 0.12850 0.99900 0.08800
C 	C 	0.72470 0.11620 0.30950 -0.13800
H 	H 	0.74650 0.13770 0.32870 0.08900
C 	C 	0.54120 0.46400 0.04480 0.07900
H 	H 	0.52220 0.48080 0.05930 -0.01100
C 	C 	0.66820 0.13890 0.25470 -0.12800
H 	H 	0.65110 0.17630 0.23620 0.09100
C 	C 	0.61380 0.46920 0.15420 0.08900
H 	H 	0.59140 0.44390 0.13810 -0.00800
N 	N 	0.52747 0.23090 0.96870 -0.14900
C 	C 	0.59450 0.19750 0.87760 0.08700
C 	C 	0.59600 0.41460 0.00180 -0.12700
H 	H 	0.61530 0.39910 0.98770 0.08700
C 	C 	0.65200 0.22010 0.85410 0.09300
H 	H 	0.67580 0.24800 0.85870 -0.01700
C 	C 	0.62960 0.23620 0.88300 -0.14600
H 	H 	0.63830 0.27400 0.90670 0.09800
C 	C 	0.43880 0.00990 0.90030 0.09500
H 	H 	0.42740 0.97980 0.87480 -0.02300
C 	C 	0.58330 0.13980 0.84190 -0.14400
H 	H 	0.55980 0.11050 0.83690 0.09700
C 	C 	0.46930 0.06550 0.89960 -0.15600
H 	H 	0.47790 0.07370 0.87400 0.09900
C 	C 	0.60800 0.12740 0.81420 0.10000
H 	H 	0.60040 0.08920 0.79050 -0.02500
I 	I 	0.88660 0.72860 0.40980 0.13100
I 	I 	0.63399 0.72380 0.05535 -0.57500
I 	I 	0.53475 0.66000 0.11589 0.31200
I 	I 	0.23682 0.73374 0.80057 -0.37700
I 	I 	0.11663 0.23748 0.06143 0.23300
I 	I 	0.13109 0.67211 0.70006 -0.40900
I 	I 	0.02519 0.14317 0.12924 -0.68600
I 	I 	0.39665 0.23335 0.39506 -0.52000
I 	I 	0.36290 0.08863 0.50677 -0.36300
Zn	Zn	0.38018 0.09036 0.43245 1.16300
Zn	Zn	0.17510 0.64633 0.77473 1.16400
Zn	Zn	0.08495 0.11804 0.09525 1.14300
N 	N 	0.07330 0.01220 0.05130 -0.27800
N 	N 	0.14166 0.66620 0.81940 -0.28500
N 	N 	0.22255 0.94590 0.27339 -0.14100
N 	N 	0.18641 0.49090 0.28010 -0.27400
N 	N 	0.33588 0.02760 0.39040 -0.28200
N 	N 	0.23696 0.80700 0.31080 -0.13800
N 	N 	0.04017 0.65410 0.90700 -0.13000
N 	N 	0.12290 0.05220 0.14410 -0.27800
N 	N 	0.18334 0.81900 0.25160 -0.13400
N 	N 	0.07786 0.78080 0.93640 -0.13200
C 	C 	0.28330 0.02980 0.32820 -0.13800
H 	H 	0.26850 0.06170 0.30500 0.09800
C 	C 	0.27518 0.93930 0.33540 0.06100
N 	N 	0.92485 0.49730 0.93530 -0.28600
C 	C 	0.32820 0.94340 0.39680 0.09000
H 	H 	0.34350 0.91350 0.42030 -0.01000
C 	C 	0.20749 0.77310 0.28270 0.10400
C 	C 	0.98700 0.60870 0.93720 0.06900
C 	C 	0.17790 0.04420 0.20330 -0.13900
H 	H 	0.19940 0.07220 0.21990 0.08700
C 	C 	0.19267 0.90450 0.24830 0.10100
C 	C 	0.06936 0.71210 0.90930 0.10800
C 	C 	0.20000 0.67480 0.28350 0.06800
C 	C 	0.02040 0.66780 0.93780 0.08700
C 	C 	0.29810 0.89600 0.37030 -0.13800
H 	H 	0.29370 0.83620 0.37620 0.10100
C 	C 	0.13570 0.91930 0.18690 -0.13500
H 	H 	0.12870 0.86080 0.19200 0.10500
C 	C 	0.94120 0.54280 0.97090 0.08800
H 	H 	0.93110 0.53660 0.99570 -0.01400
C 	C 	0.16860 0.95690 0.21250 0.07000
C 	C 	0.15430 0.08910 0.16840 0.08200
H 	H 	0.16070 0.14730 0.16200 -0.01500
C 	C 	0.16240 0.54650 0.25380 0.07000
H 	H 	0.14130 0.52270 0.23450 -0.01500
C 	C 	0.06210 0.86510 0.99540 0.05800
C 	C 	0.09990 0.98720 0.02970 0.07500
H 	H 	0.12240 0.02060 0.03370 -0.01000
C 	C 	0.31370 0.07010 0.35650 0.08000
H 	H 	0.31900 0.12990 0.35180 -0.00800
C 	C 	0.05578 0.78740 0.96510 0.09500
C 	C 	0.21700 0.52520 0.30680 0.08500
H 	H 	0.23400 0.48630 0.32450 -0.01600
C 	C 	0.24310 0.89490 0.30490 0.08600
C 	C 	0.03490 0.89080 0.01780 -0.12800
H 	H 	0.01220 0.85850 0.01450 0.07400
C 	C 	0.97210 0.59840 0.97320 -0.15900
H 	H 	0.98280 0.62850 0.99900 0.08700
C 	C 	0.22470 0.61620 0.30950 -0.13800
H 	H 	0.24650 0.63770 0.32870 0.08900
C 	C 	0.04120 0.96400 0.04480 0.07900
H 	H 	0.02220 0.98080 0.05930 -0.01100
C 	C 	0.16820 0.63890 0.25470 -0.12800
H 	H 	0.15110 0.67630 0.23620 0.09100
C 	C 	0.11380 0.96920 0.15420 0.08900
H 	H 	0.09140 0.94390 0.13810 -0.00800
N 	N 	0.02747 0.73090 0.96870 -0.14900
C 	C 	0.09450 0.69750 0.87760 0.08700
C 	C 	0.09600 0.91460 0.00180 -0.12700
H 	H 	0.11530 0.89910 0.98770 0.08700
C 	C 	0.15200 0.72010 0.85410 0.09300
H 	H 	0.17580 0.74800 0.85870 -0.01700
C 	C 	0.12960 0.73620 0.88300 -0.14600
H 	H 	0.13830 0.77400 0.90670 0.09800
C 	C 	0.93880 0.50990 0.90030 0.09400
H 	H 	0.92740 0.47980 0.87480 -0.02300
C 	C 	0.08330 0.63980 0.84190 -0.14400
H 	H 	0.05980 0.61050 0.83690 0.09700
C 	C 	0.96930 0.56550 0.89960 -0.15600
H 	H 	0.97790 0.57370 0.87400 0.09900
C 	C 	0.10800 0.62740 0.81420 0.10000
H 	H 	0.10040 0.58920 0.79050 -0.02500
I 	I 	0.38660 0.22860 0.40980 0.13100
I 	I 	0.13399 0.22380 0.05535 -0.57500
I 	I 	0.03475 0.16000 0.11589 0.31200
I 	I 	0.26318 0.76626 0.19943 -0.37700
I 	I 	0.38337 0.26252 0.93857 0.23300
I 	I 	0.36891 0.82789 0.29994 -0.40900
I 	I 	0.47481 0.35683 0.87076 -0.68600
I 	I 	0.10335 0.26665 0.60494 -0.52000
I 	I 	0.13710 0.41137 0.49323 -0.36300
Zn	Zn	0.11982 0.40964 0.56755 1.16300
Zn	Zn	0.32490 0.85367 0.22527 1.16400
Zn	Zn	0.41505 0.38196 0.90475 1.14300
N 	N 	0.42670 0.48780 0.94870 -0.27800
N 	N 	0.35834 0.83380 0.18060 -0.28500
N 	N 	0.27745 0.55410 0.72661 -0.14100
N 	N 	0.31359 0.00910 0.71990 -0.27400
N 	N 	0.16412 0.47240 0.60960 -0.28200
N 	N 	0.26304 0.69300 0.68920 -0.13800
N 	N 	0.45983 0.84590 0.09300 -0.13000
N 	N 	0.37710 0.44780 0.85590 -0.27800
N 	N 	0.31666 0.68100 0.74840 -0.13400
N 	N 	0.42214 0.71920 0.06360 -0.13200
C 	C 	0.21670 0.47020 0.67180 -0.13800
H 	H 	0.23150 0.43830 0.69500 0.09800
C 	C 	0.22482 0.56070 0.66460 0.06100
N 	N 	0.57515 0.00270 0.06470 -0.28700
C 	C 	0.17180 0.55660 0.60320 0.09000
H 	H 	0.15650 0.58650 0.57970 -0.01000
C 	C 	0.29251 0.72690 0.71730 0.10400
C 	C 	0.51300 0.89130 0.06280 0.07000
C 	C 	0.32210 0.45580 0.79670 -0.13900
H 	H 	0.30060 0.42780 0.78010 0.08600
C 	C 	0.30733 0.59550 0.75170 0.10100
C 	C 	0.43064 0.78790 0.09070 0.10800
C 	C 	0.30000 0.82520 0.71650 0.06800
C 	C 	0.47960 0.83220 0.06220 0.08700
C 	C 	0.20190 0.60400 0.62970 -0.13800
H 	H 	0.20630 0.66380 0.62380 0.10100
C 	C 	0.36430 0.58070 0.81310 -0.13500
H 	H 	0.37130 0.63920 0.80800 0.10500
C 	C 	0.55880 0.95720 0.02910 0.08900
H 	H 	0.56890 0.96340 0.00430 -0.01400
C 	C 	0.33140 0.54310 0.78750 0.07000
C 	C 	0.34570 0.41090 0.83160 0.08200
H 	H 	0.33930 0.35270 0.83800 -0.01500
C 	C 	0.33760 0.95350 0.74620 0.07000
H 	H 	0.35870 0.97730 0.76550 -0.01500
C 	C 	0.43790 0.63490 0.00460 0.05900
C 	C 	0.40010 0.51280 0.97030 0.07500
H 	H 	0.37760 0.47940 0.96630 -0.01000
C 	C 	0.18630 0.42990 0.64350 0.08000
H 	H 	0.18100 0.37010 0.64820 -0.00800
C 	C 	0.44422 0.71260 0.03490 0.09500
C 	C 	0.28300 0.97480 0.69320 0.08500
H 	H 	0.26600 0.01370 0.67550 -0.01600
C 	C 	0.25690 0.60510 0.69510 0.08600
C 	C 	0.46510 0.60920 0.98220 -0.12800
H 	H 	0.48780 0.64150 0.98550 0.07400
C 	C 	0.52790 0.90160 0.02680 -0.16000
H 	H 	0.51720 0.87150 0.00100 0.08800
C 	C 	0.27530 0.88380 0.69050 -0.13800
H 	H 	0.25350 0.86230 0.67130 0.08900
C 	C 	0.45880 0.53600 0.95520 0.07900
H 	H 	0.47780 0.51920 0.94070 -0.01100
C 	C 	0.33180 0.86110 0.74530 -0.12800
H 	H 	0.34890 0.82370 0.76380 0.09100
C 	C 	0.38620 0.53080 0.84580 0.08900
H 	H 	0.40860 0.55610 0.86190 -0.00800
N 	N 	0.47253 0.76910 0.03130 -0.14900
C 	C 	0.40550 0.80250 0.12240 0.08700
C 	C 	0.40400 0.58540 0.99820 -0.12700
H 	H 	0.38470 0.60090 0.01230 0.08700
C 	C 	0.34800 0.77990 0.14590 0.09300
H 	H 	0.32420 0.75200 0.14130 -0.01700
C 	C 	0.37040 0.76380 0.11700 -0.14600
H 	H 	0.36170 0.72600 0.09330 0.09800
C 	C 	0.56120 0.99010 0.09970 0.09500
H 	H 	0.57260 0.02020 0.12520 -0.02300
C 	C 	0.41670 0.86020 0.15810 -0.14400
H 	H 	0.44020 0.88950 0.16310 0.09700
C 	C 	0.53070 0.93450 0.10040 -0.15600
H 	H 	0.52210 0.92630 0.12600 0.09900
C 	C 	0.39200 0.87260 0.18580 0.10000
H 	H 	0.39960 0.91080 0.20950 -0.02500
I 	I 	0.11340 0.27140 0.59020 0.13100
I 	I 	0.36601 0.27620 0.94465 -0.57500
I 	I 	0.46525 0.34000 0.88411 0.31200
I 	I 	0.76318 0.26626 0.19943 -0.37700
I 	I 	0.88337 0.76252 0.93857 0.23300
I 	I 	0.86891 0.32789 0.29994 -0.40900
I 	I 	0.97481 0.85683 0.87076 -0.68600
I 	I 	0.60335 0.76665 0.60494 -0.52000
I 	I 	0.63710 0.91137 0.49323 -0.36300
Zn	Zn	0.61982 0.90964 0.56755 1.16300
Zn	Zn	0.82490 0.35367 0.22527 1.16400
Zn	Zn	0.91505 0.88196 0.90475 1.14300
N 	N 	0.92670 0.98780 0.94870 -0.27800
N 	N 	0.85834 0.33380 0.18060 -0.28500
N 	N 	0.77745 0.05410 0.72661 -0.14100
N 	N 	0.81359 0.50910 0.71990 -0.27400
N 	N 	0.66412 0.97240 0.60960 -0.28200
N 	N 	0.76304 0.19300 0.68920 -0.13800
N 	N 	0.95983 0.34590 0.09300 -0.13000
N 	N 	0.87710 0.94780 0.85590 -0.27800
N 	N 	0.81666 0.18100 0.74840 -0.13400
N 	N 	0.92214 0.21920 0.06360 -0.13200
C 	C 	0.71670 0.97020 0.67180 -0.13800
H 	H 	0.73150 0.93830 0.69500 0.09800
C 	C 	0.72482 0.06070 0.66460 0.06100
N 	N 	0.07515 0.50270 0.06470 -0.28600
C 	C 	0.67180 0.05660 0.60320 0.09000
H 	H 	0.65650 0.08650 0.57970 -0.01000
C 	C 	0.79251 0.22690 0.71730 0.10400
C 	C 	0.01300 0.39130 0.06280 0.06900
C 	C 	0.82210 0.95580 0.79670 -0.13900
H 	H 	0.80060 0.92780 0.78010 0.08700
C 	C 	0.80733 0.09550 0.75170 0.10100
C 	C 	0.93064 0.28790 0.09070 0.10800
C 	C 	0.80000 0.32520 0.71650 0.06800
C 	C 	0.97960 0.33220 0.06220 0.08700
C 	C 	0.70190 0.10400 0.62970 -0.13800
H 	H 	0.70630 0.16380 0.62380 0.10100
C 	C 	0.86430 0.08070 0.81310 -0.13500
H 	H 	0.87130 0.13920 0.80800 0.10500
C 	C 	0.05880 0.45720 0.02910 0.08800
H 	H 	0.06890 0.46340 0.00430 -0.01400
C 	C 	0.83140 0.04310 0.78750 0.07000
C 	C 	0.84570 0.91090 0.83160 0.08200
H 	H 	0.83930 0.85270 0.83800 -0.01500
C 	C 	0.83760 0.45350 0.74620 0.07000
H 	H 	0.85870 0.47730 0.76550 -0.01500
C 	C 	0.93790 0.13490 0.00460 0.05800
C 	C 	0.90010 0.01280 0.97030 0.07500
H 	H 	0.87760 0.97940 0.96630 -0.01000
C 	C 	0.68630 0.92990 0.64350 0.08000
H 	H 	0.68100 0.87010 0.64820 -0.00800
C 	C 	0.94422 0.21260 0.03490 0.09500
C 	C 	0.78300 0.47480 0.69320 0.08500
H 	H 	0.76600 0.51370 0.67550 -0.01600
C 	C 	0.75690 0.10510 0.69510 0.08600
C 	C 	0.96510 0.10920 0.98220 -0.12800
H 	H 	0.98780 0.14150 0.98550 0.07400
C 	C 	0.02790 0.40160 0.02680 -0.15900
H 	H 	0.01720 0.37150 0.00100 0.08700
C 	C 	0.77530 0.38380 0.69050 -0.13800
H 	H 	0.75350 0.36230 0.67130 0.08900
C 	C 	0.95880 0.03600 0.95520 0.07900
H 	H 	0.97780 0.01920 0.94070 -0.01100
C 	C 	0.83180 0.36110 0.74530 -0.12800
H 	H 	0.84890 0.32370 0.76380 0.09100
C 	C 	0.88620 0.03080 0.84580 0.08900
H 	H 	0.90860 0.05610 0.86190 -0.00800
N 	N 	0.97253 0.26910 0.03130 -0.14900
C 	C 	0.90550 0.30250 0.12240 0.08700
C 	C 	0.90400 0.08540 0.99820 -0.12700
H 	H 	0.88470 0.10090 0.01230 0.08700
C 	C 	0.84800 0.27990 0.14590 0.09300
H 	H 	0.82420 0.25200 0.14130 -0.01700
C 	C 	0.87040 0.26380 0.11700 -0.14600
H 	H 	0.86170 0.22600 0.09330 0.09800
C 	C 	0.06120 0.49010 0.09970 0.09400
H 	H 	0.07260 0.52020 0.12520 -0.02300
C 	C 	0.91670 0.36020 0.15810 -0.14400
H 	H 	0.94020 0.38950 0.16310 0.09700
C 	C 	0.03070 0.43450 0.10040 -0.15600
H 	H 	0.02210 0.42630 0.12600 0.09900
C 	C 	0.89200 0.37260 0.18580 0.10000
H 	H 	0.89960 0.41080 0.20950 -0.02500
I 	I 	0.61340 0.77140 0.59020 0.13100
I 	I 	0.86601 0.77620 0.94465 -0.57500
I 	I 	0.96525 0.84000 0.88411 0.31200
I 	I 	0.26318 0.23374 0.69943 -0.37700
I 	I 	0.38337 0.73748 0.43857 0.23300
I 	I 	0.36891 0.17211 0.79994 -0.40800
I 	I 	0.47481 0.64317 0.37076 -0.68600
I 	I 	0.10335 0.73335 0.10494 -0.52000
I 	I 	0.13710 0.58863 0.99323 -0.36300
Zn	Zn	0.11982 0.59036 0.06755 1.16300
Zn	Zn	0.32490 0.14633 0.72527 1.16400
Zn	Zn	0.41505 0.61804 0.40475 1.14300
N 	N 	0.42670 0.51220 0.44870 -0.27800
N 	N 	0.35834 0.16620 0.68060 -0.28500
N 	N 	0.27745 0.44590 0.22661 -0.14100
N 	N 	0.31359 0.99090 0.21990 -0.27400
N 	N 	0.16412 0.52760 0.10960 -0.28200
N 	N 	0.26304 0.30700 0.18920 -0.13800
N 	N 	0.45983 0.15410 0.59300 -0.13000
N 	N 	0.37710 0.55220 0.35590 -0.27800
N 	N 	0.31666 0.31900 0.24840 -0.13400
N 	N 	0.42214 0.28080 0.56360 -0.13200
C 	C 	0.21670 0.52980 0.17180 -0.13800
H 	H 	0.23150 0.56170 0.19500 0.09800
C 	C 	0.22482 0.43930 0.16460 0.06100
N 	N 	0.57515 0.99730 0.56470 -0.28600
C 	C 	0.17180 0.44340 0.10320 0.09000
H 	H 	0.15650 0.41350 0.07970 -0.01000
C 	C 	0.29251 0.27310 0.21730 0.10400
C 	C 	0.51300 0.10870 0.56280 0.07000
C 	C 	0.32210 0.54420 0.29670 -0.13900
H 	H 	0.30060 0.57220 0.28010 0.08600
C 	C 	0.30733 0.40450 0.25170 0.10100
C 	C 	0.43064 0.21210 0.59070 0.10800
C 	C 	0.30000 0.17480 0.21650 0.06800
C 	C 	0.47960 0.16780 0.56220 0.08700
C 	C 	0.20190 0.39600 0.12970 -0.13800
H 	H 	0.20630 0.33620 0.12380 0.10100
C 	C 	0.36430 0.41930 0.31310 -0.13500
H 	H 	0.37130 0.36080 0.30800 0.10500
C 	C 	0.55880 0.04280 0.52910 0.08900
H 	H 	0.56890 0.03660 0.50430 -0.01400
C 	C 	0.33140 0.45690 0.28750 0.07000
C 	C 	0.34570 0.58910 0.33160 0.08200
H 	H 	0.33930 0.64730 0.33800 -0.01500
C 	C 	0.33760 0.04650 0.24620 0.07000
H 	H 	0.35870 0.02270 0.26550 -0.01500
C 	C 	0.43790 0.36510 0.50460 0.05900
C 	C 	0.40010 0.48720 0.47030 0.07500
H 	H 	0.37760 0.52060 0.46630 -0.01000
C 	C 	0.18630 0.57010 0.14350 0.08000
H 	H 	0.18100 0.62990 0.14820 -0.00800
C 	C 	0.44422 0.28740 0.53490 0.09500
C 	C 	0.28300 0.02520 0.19320 0.08500
H 	H 	0.26600 0.98630 0.17550 -0.01600
C 	C 	0.25690 0.39490 0.19510 0.08600
C 	C 	0.46510 0.39080 0.48220 -0.12800
H 	H 	0.48780 0.35850 0.48550 0.07400
C 	C 	0.52790 0.09840 0.52680 -0.15900
H 	H 	0.51720 0.12850 0.50100 0.08800
C 	C 	0.27530 0.11620 0.19050 -0.13700
H 	H 	0.25350 0.13770 0.17130 0.08900
C 	C 	0.45880 0.46400 0.45520 0.07900
H 	H 	0.47780 0.48080 0.44070 -0.01100
C 	C 	0.33180 0.13890 0.24530 -0.12800
H 	H 	0.34890 0.17630 0.26380 0.09100
C 	C 	0.38620 0.46920 0.34580 0.08900
H 	H 	0.40860 0.44390 0.36190 -0.00800
N 	N 	0.47253 0.23090 0.53130 -0.14900
C 	C 	0.40550 0.19750 0.62240 0.08700
C 	C 	0.40400 0.41460 0.49820 -0.12700
H 	H 	0.38470 0.39910 0.51230 0.08700
C 	C 	0.34800 0.22010 0.64590 0.09300
H 	H 	0.32420 0.24800 0.64130 -0.01700
C 	C 	0.37040 0.23620 0.61700 -0.14600
H 	H 	0.36170 0.27400 0.59330 0.09800
C 	C 	0.56120 0.00990 0.59970 0.09400
H 	H 	0.57260 0.97980 0.62520 -0.02300
C 	C 	0.41670 0.13980 0.65810 -0.14400
H 	H 	0.44020 0.11050 0.66310 0.09700
C 	C 	0.53070 0.06550 0.60040 -0.15600
H 	H 	0.52210 0.07370 0.62600 0.09900
C 	C 	0.39200 0.12740 0.68580 0.10000
H 	H 	0.39960 0.08920 0.70950 -0.02500
I 	I 	0.11340 0.72860 0.09020 0.13100
I 	I 	0.36601 0.72380 0.44465 -0.57500
I 	I 	0.46525 0.66000 0.38411 0.31200
I 	I 	0.76318 0.73374 0.69943 -0.37700
I 	I 	0.88337 0.23748 0.43857 0.23300
I 	I 	0.86891 0.67211 0.79994 -0.40900
I 	I 	0.97481 0.14317 0.37076 -0.68600
I 	I 	0.60335 0.23335 0.10494 -0.52000
I 	I 	0.63710 0.08863 0.99323 -0.36300
Zn	Zn	0.61982 0.09036 0.06755 1.16300
Zn	Zn	0.82490 0.64633 0.72527 1.16400
Zn	Zn	0.91505 0.11804 0.40475 1.14300
N 	N 	0.92670 0.01220 0.44870 -0.27800
N 	N 	0.85834 0.66620 0.68060 -0.28500
N 	N 	0.77745 0.94590 0.22661 -0.14100
N 	N 	0.81359 0.49090 0.21990 -0.27400
N 	N 	0.66412 0.02760 0.10960 -0.28200
N 	N 	0.76304 0.80700 0.18920 -0.13800
N 	N 	0.95983 0.65410 0.59300 -0.13000
N 	N 	0.87710 0.05220 0.35590 -0.27800
N 	N 	0.81666 0.81900 0.24840 -0.13400
N 	N 	0.92214 0.78080 0.56360 -0.13200
C 	C 	0.71670 0.02980 0.17180 -0.13800
H 	H 	0.73150 0.06170 0.19500 0.09800
C 	C 	0.72482 0.93930 0.16460 0.06100
N 	N 	0.07515 0.49730 0.56470 -0.28600
C 	C 	0.67180 0.94340 0.10320 0.09100
H 	H 	0.65650 0.91350 0.07970 -0.01000
C 	C 	0.79251 0.77310 0.21730 0.10400
C 	C 	0.01300 0.60870 0.56280 0.07000
C 	C 	0.82210 0.04420 0.29670 -0.13900
H 	H 	0.80060 0.07220 0.28010 0.08600
C 	C 	0.80733 0.90450 0.25170 0.10100
C 	C 	0.93064 0.71210 0.59070 0.10800
C 	C 	0.80000 0.67480 0.21650 0.06800
C 	C 	0.97960 0.66780 0.56220 0.08700
C 	C 	0.70190 0.89600 0.12970 -0.13800
H 	H 	0.70630 0.83620 0.12380 0.10100
C 	C 	0.86430 0.91930 0.31310 -0.13500
H 	H 	0.87130 0.86080 0.30800 0.10500
C 	C 	0.05880 0.54280 0.52910 0.08900
H 	H 	0.06890 0.53660 0.50430 -0.01400
C 	C 	0.83140 0.95690 0.28750 0.07000
C 	C 	0.84570 0.08910 0.33160 0.08200
H 	H 	0.83930 0.14730 0.33800 -0.01500
C 	C 	0.83760 0.54650 0.24620 0.07000
H 	H 	0.85870 0.52270 0.26550 -0.01500
C 	C 	0.93790 0.86510 0.50460 0.05900
C 	C 	0.90010 0.98720 0.47030 0.07500
H 	H 	0.87760 0.02060 0.46630 -0.01000
C 	C 	0.68630 0.07010 0.14350 0.08000
H 	H 	0.68100 0.12990 0.14820 -0.00800
C 	C 	0.94422 0.78740 0.53490 0.09500
C 	C 	0.78300 0.52520 0.19320 0.08500
H 	H 	0.76600 0.48630 0.17550 -0.01600
C 	C 	0.75690 0.89490 0.19510 0.08600
C 	C 	0.96510 0.89080 0.48220 -0.12800
H 	H 	0.98780 0.85850 0.48550 0.07400
C 	C 	0.02790 0.59840 0.52680 -0.15900
H 	H 	0.01720 0.62850 0.50100 0.08800
C 	C 	0.77530 0.61620 0.19050 -0.13800
H 	H 	0.75350 0.63770 0.17130 0.08900
C 	C 	0.95880 0.96400 0.45520 0.07900
H 	H 	0.97780 0.98080 0.44070 -0.01100
C 	C 	0.83180 0.63890 0.24530 -0.12800
H 	H 	0.84890 0.67630 0.26380 0.09100
C 	C 	0.88620 0.96920 0.34580 0.08900
H 	H 	0.90860 0.94390 0.36190 -0.00800
N 	N 	0.97253 0.73090 0.53130 -0.14900
C 	C 	0.90550 0.69750 0.62240 0.08700
C 	C 	0.90400 0.91460 0.49820 -0.12700
H 	H 	0.88470 0.89910 0.51230 0.08700
C 	C 	0.84800 0.72010 0.64590 0.09300
H 	H 	0.82420 0.74800 0.64130 -0.01700
C 	C 	0.87040 0.73620 0.61700 -0.14600
H 	H 	0.86170 0.77400 0.59330 0.09800
C 	C 	0.06120 0.50990 0.59970 0.09400
H 	H 	0.07260 0.47980 0.62520 -0.02300
C 	C 	0.91670 0.63980 0.65810 -0.14400
H 	H 	0.94020 0.61050 0.66310 0.09700
C 	C 	0.03070 0.56550 0.60040 -0.15600
H 	H 	0.02210 0.57370 0.62600 0.09900
C 	C 	0.89200 0.62740 0.68580 0.10000
H 	H 	0.89960 0.58920 0.70950 -0.02500
I 	I 	0.61340 0.22860 0.09020 0.13100
I 	I 	0.86601 0.22380 0.44465 -0.57500
I 	I 	0.96525 0.16000 0.38411 0.31200
