data_crystal

_cell_length_a 35.43510
_cell_length_b 14.95370
_cell_length_c 31.19200
_cell_angle_alpha 90.00000
_cell_angle_beta  102.41600
_cell_angle_gamma 90.00000

_symmetry_space_group_name_	'P 1'
_symmetry_space_group_name_H-M	'P 1'

loop_
_symmetry_equiv_pos_as_xyz
  x,y,z

loop_
_atom_site_label
_atom_site_type_symbol
_atom_site_fract_x
_atom_site_fract_y
_atom_site_fract_z
_atom_site_charge
I 	I 	0.86423 0.72510 0.94640 -0.62200
Zn	Zn	0.32570 0.35410 0.72620 0.65200
Zn	Zn	0.62284 0.58931 0.56344 1.16100
N 	N 	0.81820 0.31820 0.75000 -0.10100
N 	N 	0.46020 0.34860 0.59000 -0.13000
C 	C 	0.75810 0.39450 0.69540 0.10900
C 	C 	0.79400 0.27260 0.71880 0.21300
N 	N 	0.47370 0.26970 0.52920 -0.15000
N 	N 	0.77870 0.44540 0.72710 -0.14000
N 	N 	0.42280 0.22120 0.56230 -0.13300
N 	N 	0.76420 0.30590 0.68970 -0.13100
N 	N 	0.66580 0.52780 0.60740 -0.27200
C 	C 	0.53000 0.40330 0.52340 -0.14300
H 	H 	0.51920 0.37220 0.49700 0.07900
C 	C 	0.43920 0.13490 0.50400 0.04700
C 	C 	0.83270 0.45550 0.78890 0.06000
C 	C 	0.82350 0.54330 0.79690 -0.11700
H 	H 	0.80210 0.57200 0.77860 0.07000
C 	C 	0.48090 0.33490 0.55980 0.08800
N 	N 	0.57740 0.50390 0.56080 -0.28800
C 	C 	0.80880 0.40230 0.75230 0.15600
N 	N 	0.35880 0.33470 0.67860 -0.32300
C 	C 	0.44570 0.21380 0.53410 0.09900
N 	N 	0.87740 0.55010 0.85780 -0.27000
C 	C 	0.80110 0.17440 0.71710 0.07000
C 	C 	0.72610 0.43920 0.66430 0.03700
C 	C 	0.36980 0.26680 0.61550 -0.16500
H 	H 	0.36070 0.22890 0.59100 0.09200
C 	C 	0.51430 0.39270 0.55950 0.05500
C 	C 	0.70400 0.39630 0.62880 -0.10600
H 	H 	0.70860 0.33510 0.62370 0.08800
C 	C 	0.40630 0.30650 0.62110 0.09000
C 	C 	0.46030 0.03370 0.45480 0.05900
H 	H 	0.47940 0.01620 0.43930 -0.00400
C 	C 	0.68790 0.56910 0.64310 0.04700
H 	H 	0.68270 0.62990 0.64860 0.01900
C 	C 	0.40560 0.08270 0.50000 -0.11800
H 	H 	0.38610 0.09740 0.51540 0.07700
C 	C 	0.43070 0.29180 0.58920 0.10100
C 	C 	0.84630 0.58900 0.83250 0.05700
H 	H 	0.83970 0.64830 0.83880 -0.00900
C 	C 	0.56040 0.45730 0.52490 0.07800
H 	H 	0.57050 0.46300 0.49920 -0.00800
C 	C 	0.46620 0.10930 0.48120 -0.10700
H 	H 	0.48920 0.14330 0.48350 0.06400
C 	C 	0.41680 0.36390 0.65680 -0.15500
H 	H 	0.44080 0.39450 0.66170 0.09700
C 	C 	0.71710 0.52690 0.67110 -0.11900
H 	H 	0.73150 0.55840 0.69570 0.08800
C 	C 	0.67500 0.44180 0.60030 0.05500
H 	H 	0.66110 0.41180 0.57490 0.00500
C 	C 	0.40220 0.00990 0.47300 0.07500
H 	H 	0.37960 0.97450 0.47020 -0.01300
C 	C 	0.56420 0.49070 0.59490 0.09700
H 	H 	0.57660 0.52140 0.62080 -0.02400
C 	C 	0.34790 0.28210 0.64460 0.11600
H 	H 	0.32340 0.25370 0.64050 -0.11600
C 	C 	0.86410 0.41710 0.81590 -0.11300
H 	H 	0.87020 0.35620 0.81220 0.10800
C 	C 	0.39340 0.37550 0.68350 0.10500
H 	H 	0.40120 0.41470 0.70780 -0.02800
C 	C 	0.53280 0.43460 0.59790 -0.14100
H 	H 	0.52490 0.42590 0.62480 0.09200
C 	C 	0.88670 0.46720 0.84850 0.07600
H 	H 	0.90980 0.44170 0.86500 -0.00300
I 	I 	0.26266 0.26728 0.69827 2.06600
I 	I 	0.36871 0.32812 0.80127 -0.45500
I 	I 	0.64198 0.58304 0.48997 -0.38800
C 	C 	0.77570 0.11670 0.69180 -0.10900
H 	H 	0.75340 0.13970 0.67250 0.08500
C 	C 	0.78220 0.02640 0.69370 0.06700
H 	H 	0.76400 0.98790 0.67580 -0.03600
C 	C 	0.83350 0.13840 0.74570 -0.09700
H 	H 	0.85130 0.17610 0.76450 0.09600
C 	C 	0.83890 0.04540 0.74610 0.06600
H 	H 	0.86100 0.02060 0.76510 -0.01100
N 	N 	0.81380 0.99050 0.72040 -0.29600
N 	N 	0.42790 0.98510 0.45060 -0.27600
I 	I 	0.97475 0.64791 0.87133 -0.73300
Zn	Zn	0.91561 0.61960 0.90604 1.14000
I 	I 	0.88213 0.73662 0.93986 0.27700
I 	I 	0.60416 0.73329 0.60187 -0.47200
I 	I 	0.96390 0.66420 0.88380 0.34200
I 	I 	0.35500 0.31570 0.79240 0.03200
I 	I 	0.24430 0.27210 0.71240 -2.46500
Zn	Zn	0.31530 0.35560 0.71800 0.52500
I 	I 	0.61653 0.73230 0.58880 0.10500
I 	I 	0.36423 0.22510 0.94640 -0.62100
Zn	Zn	0.82570 0.85410 0.72620 0.65300
Zn	Zn	0.12284 0.08931 0.56344 1.16200
N 	N 	0.31820 0.81820 0.75000 -0.10000
N 	N 	0.96020 0.84860 0.59000 -0.12900
C 	C 	0.25810 0.89450 0.69540 0.11000
C 	C 	0.29400 0.77260 0.71880 0.21300
N 	N 	0.97370 0.76970 0.52920 -0.15000
N 	N 	0.27870 0.94540 0.72710 -0.14000
N 	N 	0.92280 0.72120 0.56230 -0.13300
N 	N 	0.26420 0.80590 0.68970 -0.13100
N 	N 	0.16580 0.02780 0.60740 -0.27200
C 	C 	0.03000 0.90330 0.52340 -0.14300
H 	H 	0.01920 0.87220 0.49700 0.07900
C 	C 	0.93920 0.63490 0.50400 0.04700
C 	C 	0.33270 0.95550 0.78890 0.06000
C 	C 	0.32350 0.04330 0.79690 -0.11700
H 	H 	0.30210 0.07200 0.77860 0.07000
C 	C 	0.98090 0.83490 0.55980 0.08800
N 	N 	0.07740 0.00390 0.56080 -0.28800
C 	C 	0.30880 0.90230 0.75230 0.15600
N 	N 	0.85880 0.83470 0.67860 -0.32300
C 	C 	0.94570 0.71380 0.53410 0.09900
N 	N 	0.37740 0.05010 0.85780 -0.27000
C 	C 	0.30110 0.67440 0.71710 0.07000
C 	C 	0.22610 0.93920 0.66430 0.03700
C 	C 	0.86980 0.76680 0.61550 -0.16500
H 	H 	0.86070 0.72890 0.59100 0.09200
C 	C 	0.01430 0.89270 0.55950 0.05500
C 	C 	0.20400 0.89630 0.62880 -0.10600
H 	H 	0.20860 0.83510 0.62370 0.08800
C 	C 	0.90630 0.80650 0.62110 0.09000
C 	C 	0.96030 0.53370 0.45480 0.05900
H 	H 	0.97940 0.51620 0.43930 -0.00400
C 	C 	0.18790 0.06910 0.64310 0.04700
H 	H 	0.18270 0.12990 0.64860 0.01900
C 	C 	0.90560 0.58270 0.50000 -0.11800
H 	H 	0.88610 0.59740 0.51540 0.07700
C 	C 	0.93070 0.79180 0.58920 0.10100
C 	C 	0.34630 0.08900 0.83250 0.05700
H 	H 	0.33970 0.14830 0.83880 -0.00900
C 	C 	0.06040 0.95730 0.52490 0.07800
H 	H 	0.07050 0.96300 0.49920 -0.00800
C 	C 	0.96620 0.60930 0.48120 -0.10700
H 	H 	0.98920 0.64330 0.48350 0.06400
C 	C 	0.91680 0.86390 0.65680 -0.15500
H 	H 	0.94080 0.89450 0.66170 0.09700
C 	C 	0.21710 0.02690 0.67110 -0.11900
H 	H 	0.23150 0.05840 0.69570 0.08800
C 	C 	0.17500 0.94180 0.60030 0.05500
H 	H 	0.16110 0.91180 0.57490 0.00500
C 	C 	0.90220 0.50990 0.47300 0.07500
H 	H 	0.87960 0.47450 0.47020 -0.01300
C 	C 	0.06420 0.99070 0.59490 0.09700
H 	H 	0.07660 0.02140 0.62080 -0.02400
C 	C 	0.84790 0.78210 0.64460 0.11600
H 	H 	0.82340 0.75370 0.64050 -0.11600
C 	C 	0.36410 0.91710 0.81590 -0.11300
H 	H 	0.37020 0.85620 0.81220 0.10800
C 	C 	0.89340 0.87550 0.68350 0.10500
H 	H 	0.90120 0.91470 0.70780 -0.02800
C 	C 	0.03280 0.93460 0.59790 -0.14100
H 	H 	0.02490 0.92590 0.62480 0.09200
C 	C 	0.38670 0.96720 0.84850 0.07600
H 	H 	0.40980 0.94170 0.86500 -0.00300
I 	I 	0.76266 0.76728 0.69827 2.06600
I 	I 	0.86871 0.82812 0.80127 -0.45500
I 	I 	0.14198 0.08304 0.48997 -0.38800
C 	C 	0.27570 0.61670 0.69180 -0.10900
H 	H 	0.25340 0.63970 0.67250 0.08500
C 	C 	0.28220 0.52640 0.69370 0.06700
H 	H 	0.26400 0.48790 0.67580 -0.03600
C 	C 	0.33350 0.63840 0.74570 -0.09700
H 	H 	0.35130 0.67610 0.76450 0.09600
C 	C 	0.33890 0.54540 0.74610 0.06600
H 	H 	0.36100 0.52060 0.76510 -0.01100
N 	N 	0.31380 0.49050 0.72040 -0.29600
N 	N 	0.92790 0.48510 0.45060 -0.27600
I 	I 	0.47475 0.14791 0.87133 -0.73300
Zn	Zn	0.41561 0.11960 0.90604 1.14000
I 	I 	0.38213 0.23662 0.93986 0.27700
I 	I 	0.10416 0.23329 0.60187 -0.47200
I 	I 	0.46390 0.16420 0.88380 0.34200
I 	I 	0.85500 0.81570 0.79240 0.03200
I 	I 	0.74430 0.77210 0.71240 -2.46500
Zn	Zn	0.81530 0.85560 0.71800 0.52500
I 	I 	0.11653 0.23230 0.58880 0.10500
I 	I 	0.86423 0.27490 0.44640 -0.62100
Zn	Zn	0.32570 0.64590 0.22620 0.65300
Zn	Zn	0.62284 0.41069 0.06344 1.16200
N 	N 	0.81820 0.68180 0.25000 -0.10000
N 	N 	0.46020 0.65140 0.09000 -0.13000
C 	C 	0.75810 0.60550 0.19540 0.11000
C 	C 	0.79400 0.72740 0.21880 0.21300
N 	N 	0.47370 0.73030 0.02920 -0.15000
N 	N 	0.77870 0.55460 0.22710 -0.14000
N 	N 	0.42280 0.77880 0.06230 -0.13300
N 	N 	0.76420 0.69410 0.18970 -0.13100
N 	N 	0.66580 0.47220 0.10740 -0.27200
C 	C 	0.53000 0.59670 0.02340 -0.13900
H 	H 	0.51920 0.62780 0.99700 0.07600
C 	C 	0.43920 0.86510 0.00400 0.05000
C 	C 	0.83270 0.54450 0.28890 0.06000
C 	C 	0.82350 0.45670 0.29690 -0.11700
H 	H 	0.80210 0.42800 0.27860 0.07000
C 	C 	0.48090 0.66510 0.05980 0.08800
N 	N 	0.57740 0.49610 0.06080 -0.28800
C 	C 	0.80880 0.59770 0.25230 0.15600
N 	N 	0.35880 0.66530 0.17860 -0.32300
C 	C 	0.44570 0.78620 0.03410 0.09900
N 	N 	0.87740 0.44990 0.35780 -0.27000
C 	C 	0.80110 0.82560 0.21710 0.07000
C 	C 	0.72610 0.56080 0.16430 0.03700
C 	C 	0.36980 0.73320 0.11550 -0.16500
H 	H 	0.36070 0.77110 0.09100 0.09200
C 	C 	0.51430 0.60730 0.05950 0.05400
C 	C 	0.70400 0.60370 0.12880 -0.10600
H 	H 	0.70860 0.66490 0.12370 0.08800
C 	C 	0.40630 0.69350 0.12110 0.09000
C 	C 	0.46030 0.96630 0.95480 0.06000
H 	H 	0.47940 0.98380 0.93930 -0.00500
C 	C 	0.68790 0.43090 0.14310 0.04700
H 	H 	0.68270 0.37010 0.14860 0.01900
C 	C 	0.40560 0.91730 -0.00000 -0.11500
H 	H 	0.38610 0.90260 0.01540 0.07600
C 	C 	0.43070 0.70820 0.08920 0.10100
C 	C 	0.84630 0.41100 0.33250 0.05700
H 	H 	0.83970 0.35170 0.33880 -0.00900
C 	C 	0.56040 0.54270 0.02490 0.08000
H 	H 	0.57050 0.53700 0.99920 -0.01100
C 	C 	0.46620 0.89070 0.98120 -0.11000
H 	H 	0.48920 0.85670 0.98350 0.06500
C 	C 	0.41680 0.63610 0.15680 -0.15500
H 	H 	0.44080 0.60550 0.16170 0.09700
C 	C 	0.71710 0.47310 0.17110 -0.11900
H 	H 	0.73150 0.44160 0.19570 0.08800
C 	C 	0.67500 0.55820 0.10030 0.05500
H 	H 	0.66110 0.58820 0.07490 0.00500
C 	C 	0.40220 0.99010 0.97300 0.07200
H 	H 	0.37960 0.02550 0.97020 -0.01300
C 	C 	0.56420 0.50930 0.09490 0.09700
H 	H 	0.57660 0.47860 0.12080 -0.02400
C 	C 	0.34790 0.71790 0.14460 0.11600
H 	H 	0.32340 0.74630 0.14050 -0.11600
C 	C 	0.86410 0.58290 0.31590 -0.11300
H 	H 	0.87020 0.64380 0.31220 0.10800
C 	C 	0.39340 0.62450 0.18350 0.10500
H 	H 	0.40120 0.58530 0.20780 -0.02800
C 	C 	0.53280 0.56540 0.09790 -0.14000
H 	H 	0.52490 0.57410 0.12480 0.09200
C 	C 	0.88670 0.53280 0.34850 0.07600
H 	H 	0.90980 0.55830 0.36500 -0.00300
I 	I 	0.26266 0.73272 0.19827 2.06500
I 	I 	0.36871 0.67188 0.30127 -0.45500
I 	I 	0.64198 0.41696 0.98997 -0.39000
C 	C 	0.77570 0.88330 0.19180 -0.10900
H 	H 	0.75340 0.86030 0.17250 0.08500
C 	C 	0.78220 0.97360 0.19370 0.06600
H 	H 	0.76400 0.01210 0.17580 -0.03600
C 	C 	0.83350 0.86160 0.24570 -0.09700
H 	H 	0.85130 0.82390 0.26450 0.09600
C 	C 	0.83890 0.95460 0.24610 0.06500
H 	H 	0.86100 0.97940 0.26510 -0.01100
N 	N 	0.81380 0.00950 0.22040 -0.29600
N 	N 	0.42790 0.01490 0.95060 -0.27600
I 	I 	0.97475 0.35209 0.37133 -0.73300
Zn	Zn	0.91561 0.38040 0.40604 1.14000
I 	I 	0.88213 0.26338 0.43986 0.27900
I 	I 	0.60416 0.26671 0.10187 -0.47100
I 	I 	0.96390 0.33580 0.38380 0.34200
I 	I 	0.35500 0.68430 0.29240 0.03200
I 	I 	0.24430 0.72790 0.21240 -2.46400
Zn	Zn	0.31530 0.64440 0.21800 0.52500
I 	I 	0.61653 0.26770 0.08880 0.10400
I 	I 	0.36423 0.77490 0.44640 -0.62100
Zn	Zn	0.82570 0.14590 0.22620 0.65300
Zn	Zn	0.12284 0.91069 0.06344 1.16200
N 	N 	0.31820 0.18180 0.25000 -0.10000
N 	N 	0.96020 0.15140 0.09000 -0.13000
C 	C 	0.25810 0.10550 0.19540 0.11000
C 	C 	0.29400 0.22740 0.21880 0.21300
N 	N 	0.97370 0.23030 0.02920 -0.15000
N 	N 	0.27870 0.05460 0.22710 -0.14000
N 	N 	0.92280 0.27880 0.06230 -0.13300
N 	N 	0.26420 0.19410 0.18970 -0.13100
N 	N 	0.16580 0.97220 0.10740 -0.27200
C 	C 	0.03000 0.09670 0.02340 -0.13900
H 	H 	0.01920 0.12780 0.99700 0.07600
C 	C 	0.93920 0.36510 0.00400 0.05000
C 	C 	0.33270 0.04450 0.28890 0.06000
C 	C 	0.32350 0.95670 0.29690 -0.11700
H 	H 	0.30210 0.92800 0.27860 0.07000
C 	C 	0.98090 0.16510 0.05980 0.08800
N 	N 	0.07740 0.99610 0.06080 -0.28800
C 	C 	0.30880 0.09770 0.25230 0.15600
N 	N 	0.85880 0.16530 0.17860 -0.32300
C 	C 	0.94570 0.28620 0.03410 0.09900
N 	N 	0.37740 0.94990 0.35780 -0.27000
C 	C 	0.30110 0.32560 0.21710 0.07000
C 	C 	0.22610 0.06080 0.16430 0.03700
C 	C 	0.86980 0.23320 0.11550 -0.16500
H 	H 	0.86070 0.27110 0.09100 0.09200
C 	C 	0.01430 0.10730 0.05950 0.05400
C 	C 	0.20400 0.10370 0.12880 -0.10600
H 	H 	0.20860 0.16490 0.12370 0.08800
C 	C 	0.90630 0.19350 0.12110 0.09000
C 	C 	0.96030 0.46630 0.95480 0.05900
H 	H 	0.97940 0.48380 0.93930 -0.00500
C 	C 	0.18790 0.93090 0.14310 0.04700
H 	H 	0.18270 0.87010 0.14860 0.01900
C 	C 	0.90560 0.41730 -0.00000 -0.11500
H 	H 	0.88610 0.40260 0.01540 0.07600
C 	C 	0.93070 0.20820 0.08920 0.10100
C 	C 	0.34630 0.91100 0.33250 0.05700
H 	H 	0.33970 0.85170 0.33880 -0.00900
C 	C 	0.06040 0.04270 0.02490 0.08000
H 	H 	0.07050 0.03700 0.99920 -0.01100
C 	C 	0.96620 0.39070 0.98120 -0.11000
H 	H 	0.98920 0.35670 0.98350 0.06500
C 	C 	0.91680 0.13610 0.15680 -0.15500
H 	H 	0.94080 0.10550 0.16170 0.09700
C 	C 	0.21710 0.97310 0.17110 -0.11900
H 	H 	0.23150 0.94160 0.19570 0.08800
C 	C 	0.17500 0.05820 0.10030 0.05500
H 	H 	0.16110 0.08820 0.07490 0.00500
C 	C 	0.90220 0.49010 0.97300 0.07200
H 	H 	0.87960 0.52550 0.97020 -0.01200
C 	C 	0.06420 0.00930 0.09490 0.09700
H 	H 	0.07660 0.97860 0.12080 -0.02400
C 	C 	0.84790 0.21790 0.14460 0.11600
H 	H 	0.82340 0.24630 0.14050 -0.11600
C 	C 	0.36410 0.08290 0.31590 -0.11300
H 	H 	0.37020 0.14380 0.31220 0.10800
C 	C 	0.89340 0.12450 0.18350 0.10500
H 	H 	0.90120 0.08530 0.20780 -0.02800
C 	C 	0.03280 0.06540 0.09790 -0.14000
H 	H 	0.02490 0.07410 0.12480 0.09200
C 	C 	0.38670 0.03280 0.34850 0.07600
H 	H 	0.40980 0.05830 0.36500 -0.00300
I 	I 	0.76266 0.23272 0.19827 2.06400
I 	I 	0.86871 0.17188 0.30127 -0.45500
I 	I 	0.14198 0.91696 0.98997 -0.39000
C 	C 	0.27570 0.38330 0.19180 -0.10900
H 	H 	0.25340 0.36030 0.17250 0.08500
C 	C 	0.28220 0.47360 0.19370 0.06700
H 	H 	0.26400 0.51210 0.17580 -0.03600
C 	C 	0.33350 0.36160 0.24570 -0.09700
H 	H 	0.35130 0.32390 0.26450 0.09600
C 	C 	0.33890 0.45460 0.24610 0.06600
H 	H 	0.36100 0.47940 0.26510 -0.01100
N 	N 	0.31380 0.50950 0.22040 -0.29600
N 	N 	0.92790 0.51490 0.95060 -0.27600
I 	I 	0.47475 0.85209 0.37133 -0.73300
Zn	Zn	0.41561 0.88040 0.40604 1.14000
I 	I 	0.38213 0.76338 0.43986 0.27900
I 	I 	0.10416 0.76671 0.10187 -0.47100
I 	I 	0.46390 0.83580 0.38380 0.34200
I 	I 	0.85500 0.18430 0.29240 0.03200
I 	I 	0.74430 0.22790 0.21240 -2.46400
Zn	Zn	0.81530 0.14440 0.21800 0.52500
I 	I 	0.11653 0.76770 0.08880 0.10400
I 	I 	0.13577 0.72510 0.55360 -0.62100
Zn	Zn	0.67430 0.35410 0.77380 0.65300
Zn	Zn	0.37716 0.58931 0.93656 1.16100
N 	N 	0.18180 0.31820 0.75000 -0.10000
N 	N 	0.53980 0.34860 0.91000 -0.12900
C 	C 	0.24190 0.39450 0.80460 0.11000
C 	C 	0.20600 0.27260 0.78120 0.21300
N 	N 	0.52630 0.26970 0.97080 -0.15100
N 	N 	0.22130 0.44540 0.77290 -0.14000
N 	N 	0.57720 0.22120 0.93770 -0.13400
N 	N 	0.23580 0.30590 0.81030 -0.13100
N 	N 	0.33420 0.52780 0.89260 -0.27200
C 	C 	0.47000 0.40330 0.97660 -0.14700
H 	H 	0.48080 0.37220 0.00300 0.08200
C 	C 	0.56080 0.13490 0.99600 0.03500
C 	C 	0.16730 0.45550 0.71110 0.06000
C 	C 	0.17650 0.54330 0.70310 -0.11700
H 	H 	0.19790 0.57200 0.72140 0.07000
C 	C 	0.51910 0.33490 0.94020 0.08700
N 	N 	0.42260 0.50390 0.93920 -0.28800
C 	C 	0.19120 0.40230 0.74770 0.15600
N 	N 	0.64120 0.33470 0.82140 -0.32300
C 	C 	0.55430 0.21380 0.96590 0.10200
N 	N 	0.12260 0.55010 0.64220 -0.27000
C 	C 	0.19890 0.17440 0.78290 0.07000
C 	C 	0.27390 0.43920 0.83570 0.03700
C 	C 	0.63020 0.26680 0.88450 -0.16500
H 	H 	0.63930 0.22890 0.90900 0.09200
C 	C 	0.48570 0.39270 0.94050 0.05600
C 	C 	0.29600 0.39630 0.87120 -0.10600
H 	H 	0.29140 0.33510 0.87630 0.08800
C 	C 	0.59370 0.30650 0.87890 0.09000
C 	C 	0.53970 0.03370 0.04520 0.05500
H 	H 	0.52060 0.01620 0.06070 -0.00200
C 	C 	0.31210 0.56910 0.85690 0.04700
H 	H 	0.31730 0.62990 0.85140 0.01900
C 	C 	0.59440 0.08270 -0.00000 -0.10400
H 	H 	0.61390 0.09740 0.98460 0.07000
C 	C 	0.56930 0.29180 0.91080 0.10100
C 	C 	0.15370 0.58900 0.66750 0.05700
H 	H 	0.16030 0.64830 0.66120 -0.00900
C 	C 	0.43960 0.45730 0.97510 0.07500
H 	H 	0.42950 0.46300 0.00080 -0.00600
C 	C 	0.53380 0.10930 0.01880 -0.09700
H 	H 	0.51080 0.14330 0.01650 0.06200
C 	C 	0.58320 0.36390 0.84320 -0.15500
H 	H 	0.55920 0.39450 0.83830 0.09700
C 	C 	0.28290 0.52690 0.82890 -0.11900
H 	H 	0.26850 0.55840 0.80430 0.08800
C 	C 	0.32500 0.44180 0.89970 0.05400
H 	H 	0.33890 0.41180 0.92510 0.00400
C 	C 	0.59780 0.00990 0.02700 0.06900
H 	H 	0.62040 0.97450 0.02980 -0.01100
C 	C 	0.43580 0.49070 0.90510 0.09700
H 	H 	0.42340 0.52140 0.87920 -0.02400
C 	C 	0.65210 0.28210 0.85540 0.11600
H 	H 	0.67660 0.25370 0.85950 -0.11600
C 	C 	0.13590 0.41710 0.68410 -0.11300
H 	H 	0.12980 0.35620 0.68780 0.10800
C 	C 	0.60660 0.37550 0.81650 0.10500
H 	H 	0.59880 0.41470 0.79220 -0.02800
C 	C 	0.46720 0.43460 0.90210 -0.14200
H 	H 	0.47510 0.42590 0.87520 0.09200
C 	C 	0.11330 0.46720 0.65150 0.07600
H 	H 	0.09020 0.44170 0.63500 -0.00300
I 	I 	0.73734 0.26728 0.80173 2.06700
I 	I 	0.63129 0.32812 0.69873 -0.45500
I 	I 	0.35802 0.58304 0.01003 -0.38600
C 	C 	0.22430 0.11670 0.80820 -0.10900
H 	H 	0.24660 0.13970 0.82750 0.08500
C 	C 	0.21780 0.02640 0.80630 0.06600
H 	H 	0.23600 0.98790 0.82420 -0.03600
C 	C 	0.16650 0.13840 0.75430 -0.09700
H 	H 	0.14870 0.17610 0.73550 0.09600
C 	C 	0.16110 0.04540 0.75390 0.06500
H 	H 	0.13900 0.02060 0.73490 -0.01100
N 	N 	0.18620 0.99050 0.77960 -0.29600
N 	N 	0.57210 0.98510 0.04940 -0.27400
I 	I 	0.02525 0.64791 0.62867 -0.73300
Zn	Zn	0.08439 0.61960 0.59396 1.14000
I 	I 	0.11787 0.73662 0.56014 0.27900
I 	I 	0.39584 0.73329 0.89813 -0.47400
I 	I 	0.03610 0.66420 0.61620 0.34200
I 	I 	0.64500 0.31570 0.70760 0.03200
I 	I 	0.75570 0.27210 0.78760 -2.46700
Zn	Zn	0.68470 0.35560 0.78200 0.52500
I 	I 	0.38347 0.73230 0.91120 0.10500
I 	I 	0.63577 0.22510 0.55360 -0.62100
Zn	Zn	0.17430 0.85410 0.77380 0.65300
Zn	Zn	0.87716 0.08931 0.93656 1.16100
N 	N 	0.68180 0.81820 0.75000 -0.10000
N 	N 	0.03980 0.84860 0.91000 -0.12900
C 	C 	0.74190 0.89450 0.80460 0.11000
C 	C 	0.70600 0.77260 0.78120 0.21300
N 	N 	0.02630 0.76970 0.97080 -0.15100
N 	N 	0.72130 0.94540 0.77290 -0.14000
N 	N 	0.07720 0.72120 0.93770 -0.13400
N 	N 	0.73580 0.80590 0.81030 -0.13100
N 	N 	0.83420 0.02780 0.89260 -0.27200
C 	C 	0.97000 0.90330 0.97660 -0.14700
H 	H 	0.98080 0.87220 0.00300 0.08200
C 	C 	0.06080 0.63490 0.99600 0.03600
C 	C 	0.66730 0.95550 0.71110 0.06000
C 	C 	0.67650 0.04330 0.70310 -0.11700
H 	H 	0.69790 0.07200 0.72140 0.07000
C 	C 	0.01910 0.83490 0.94020 0.08700
N 	N 	0.92260 0.00390 0.93920 -0.28800
C 	C 	0.69120 0.90230 0.74770 0.15600
N 	N 	0.14120 0.83470 0.82140 -0.32300
C 	C 	0.05430 0.71380 0.96590 0.10200
N 	N 	0.62260 0.05010 0.64220 -0.27000
C 	C 	0.69890 0.67440 0.78290 0.07000
C 	C 	0.77390 0.93920 0.83570 0.03700
C 	C 	0.13020 0.76680 0.88450 -0.16500
H 	H 	0.13930 0.72890 0.90900 0.09200
C 	C 	0.98570 0.89270 0.94050 0.05600
C 	C 	0.79600 0.89630 0.87120 -0.10600
H 	H 	0.79140 0.83510 0.87630 0.08800
C 	C 	0.09370 0.80650 0.87890 0.09000
C 	C 	0.03970 0.53370 0.04520 0.05500
H 	H 	0.02060 0.51620 0.06070 -0.00200
C 	C 	0.81210 0.06910 0.85690 0.04700
H 	H 	0.81730 0.12990 0.85140 0.01900
C 	C 	0.09440 0.58270 -0.00000 -0.10400
H 	H 	0.11390 0.59740 0.98460 0.07100
C 	C 	0.06930 0.79180 0.91080 0.10100
C 	C 	0.65370 0.08900 0.66750 0.05700
H 	H 	0.66030 0.14830 0.66120 -0.00900
C 	C 	0.93960 0.95730 0.97510 0.07600
H 	H 	0.92950 0.96300 0.00080 -0.00600
C 	C 	0.03380 0.60930 0.01880 -0.09800
H 	H 	0.01080 0.64330 0.01650 0.06200
C 	C 	0.08320 0.86390 0.84320 -0.15500
H 	H 	0.05920 0.89450 0.83830 0.09700
C 	C 	0.78290 0.02690 0.82890 -0.11900
H 	H 	0.76850 0.05840 0.80430 0.08800
C 	C 	0.82500 0.94180 0.89970 0.05500
H 	H 	0.83890 0.91180 0.92510 0.00400
C 	C 	0.09780 0.50990 0.02700 0.06900
H 	H 	0.12040 0.47450 0.02980 -0.01000
C 	C 	0.93580 0.99070 0.90510 0.09800
H 	H 	0.92340 0.02140 0.87920 -0.02400
C 	C 	0.15210 0.78210 0.85540 0.11600
H 	H 	0.17660 0.75370 0.85950 -0.11600
C 	C 	0.63590 0.91710 0.68410 -0.11300
H 	H 	0.62980 0.85620 0.68780 0.10800
C 	C 	0.10660 0.87550 0.81650 0.10500
H 	H 	0.09880 0.91470 0.79220 -0.02800
C 	C 	0.96720 0.93460 0.90210 -0.14200
H 	H 	0.97510 0.92590 0.87520 0.09200
C 	C 	0.61330 0.96720 0.65150 0.07600
H 	H 	0.59020 0.94170 0.63500 -0.00300
I 	I 	0.23734 0.76728 0.80173 2.06700
I 	I 	0.13129 0.82812 0.69873 -0.45500
I 	I 	0.85802 0.08304 0.01003 -0.38600
C 	C 	0.72430 0.61670 0.80820 -0.10900
H 	H 	0.74660 0.63970 0.82750 0.08500
C 	C 	0.71780 0.52640 0.80630 0.06700
H 	H 	0.73600 0.48790 0.82420 -0.03600
C 	C 	0.66650 0.63840 0.75430 -0.09700
H 	H 	0.64870 0.67610 0.73550 0.09600
C 	C 	0.66110 0.54540 0.75390 0.06600
H 	H 	0.63900 0.52060 0.73490 -0.01100
N 	N 	0.68620 0.49050 0.77960 -0.29600
N 	N 	0.07210 0.48510 0.04940 -0.27400
I 	I 	0.52525 0.14791 0.62867 -0.73300
Zn	Zn	0.58439 0.11960 0.59396 1.14000
I 	I 	0.61787 0.23662 0.56014 0.27900
I 	I 	0.89584 0.23329 0.89813 -0.47400
I 	I 	0.53610 0.16420 0.61620 0.34200
I 	I 	0.14500 0.81570 0.70760 0.03200
I 	I 	0.25570 0.77210 0.78760 -2.46700
Zn	Zn	0.18470 0.85560 0.78200 0.52500
I 	I 	0.88347 0.23230 0.91120 0.10500
I 	I 	0.13577 0.27490 0.05360 -0.62200
Zn	Zn	0.67430 0.64590 0.27380 0.65300
Zn	Zn	0.37716 0.41069 0.43656 1.16200
N 	N 	0.18180 0.68180 0.25000 -0.10000
N 	N 	0.53980 0.65140 0.41000 -0.12900
C 	C 	0.24190 0.60550 0.30460 0.11000
C 	C 	0.20600 0.72740 0.28120 0.21300
N 	N 	0.52630 0.73030 0.47080 -0.15000
N 	N 	0.22130 0.55460 0.27290 -0.14000
N 	N 	0.57720 0.77880 0.43770 -0.13300
N 	N 	0.23580 0.69410 0.31030 -0.13100
N 	N 	0.33420 0.47220 0.39260 -0.27200
C 	C 	0.47000 0.59670 0.47660 -0.14300
H 	H 	0.48080 0.62780 0.50300 0.07900
C 	C 	0.56080 0.86510 0.49600 0.04700
C 	C 	0.16730 0.54450 0.21110 0.06000
C 	C 	0.17650 0.45670 0.20310 -0.11700
H 	H 	0.19790 0.42800 0.22140 0.07000
C 	C 	0.51910 0.66510 0.44020 0.08800
N 	N 	0.42260 0.49610 0.43920 -0.28800
C 	C 	0.19120 0.59770 0.24770 0.15600
N 	N 	0.64120 0.66530 0.32140 -0.32300
C 	C 	0.55430 0.78620 0.46590 0.09900
N 	N 	0.12260 0.44990 0.14220 -0.27000
C 	C 	0.19890 0.82560 0.28290 0.07000
C 	C 	0.27390 0.56080 0.33570 0.03700
C 	C 	0.63020 0.73320 0.38450 -0.16500
H 	H 	0.63930 0.77110 0.40900 0.09200
C 	C 	0.48570 0.60730 0.44050 0.05500
C 	C 	0.29600 0.60370 0.37120 -0.10600
H 	H 	0.29140 0.66490 0.37630 0.08800
C 	C 	0.59370 0.69350 0.37890 0.09000
C 	C 	0.53970 0.96630 0.54520 0.05900
H 	H 	0.52060 0.98380 0.56070 -0.00400
C 	C 	0.31210 0.43090 0.35690 0.04700
H 	H 	0.31730 0.37010 0.35140 0.01900
C 	C 	0.59440 0.91730 0.50000 -0.11800
H 	H 	0.61390 0.90260 0.48460 0.07700
C 	C 	0.56930 0.70820 0.41080 0.10100
C 	C 	0.15370 0.41100 0.16750 0.05700
H 	H 	0.16030 0.35170 0.16120 -0.00900
C 	C 	0.43960 0.54270 0.47510 0.07800
H 	H 	0.42950 0.53700 0.50080 -0.00800
C 	C 	0.53380 0.89070 0.51880 -0.10700
H 	H 	0.51080 0.85670 0.51650 0.06400
C 	C 	0.58320 0.63610 0.34320 -0.15500
H 	H 	0.55920 0.60550 0.33830 0.09700
C 	C 	0.28290 0.47310 0.32890 -0.11900
H 	H 	0.26850 0.44160 0.30430 0.08800
C 	C 	0.32500 0.55820 0.39970 0.05500
H 	H 	0.33890 0.58820 0.42510 0.00500
C 	C 	0.59780 0.99010 0.52700 0.07500
H 	H 	0.62040 0.02550 0.52980 -0.01300
C 	C 	0.43580 0.50930 0.40510 0.09700
H 	H 	0.42340 0.47860 0.37920 -0.02400
C 	C 	0.65210 0.71790 0.35540 0.11600
H 	H 	0.67660 0.74630 0.35950 -0.11600
C 	C 	0.13590 0.58290 0.18410 -0.11300
H 	H 	0.12980 0.64380 0.18780 0.10800
C 	C 	0.60660 0.62450 0.31650 0.10500
H 	H 	0.59880 0.58530 0.29220 -0.02800
C 	C 	0.46720 0.56540 0.40210 -0.14100
H 	H 	0.47510 0.57410 0.37520 0.09200
C 	C 	0.11330 0.53280 0.15150 0.07600
H 	H 	0.09020 0.55830 0.13500 -0.00300
I 	I 	0.73734 0.73272 0.30173 2.06500
I 	I 	0.63129 0.67188 0.19873 -0.45500
I 	I 	0.35802 0.41696 0.51003 -0.38800
C 	C 	0.22430 0.88330 0.30820 -0.10900
H 	H 	0.24660 0.86030 0.32750 0.08500
C 	C 	0.21780 0.97360 0.30630 0.06600
H 	H 	0.23600 0.01210 0.32420 -0.03600
C 	C 	0.16650 0.86160 0.25430 -0.09700
H 	H 	0.14870 0.82390 0.23550 0.09600
C 	C 	0.16110 0.95460 0.25390 0.06500
H 	H 	0.13900 0.97940 0.23490 -0.01100
N 	N 	0.18620 0.00950 0.27960 -0.29600
N 	N 	0.57210 0.01490 0.54940 -0.27600
I 	I 	0.02525 0.35209 0.12867 -0.73200
Zn	Zn	0.08439 0.38040 0.09396 1.14000
I 	I 	0.11787 0.26338 0.06014 0.28000
I 	I 	0.39584 0.26671 0.39813 -0.47200
I 	I 	0.03610 0.33580 0.11620 0.34200
I 	I 	0.64500 0.68430 0.20760 0.03200
I 	I 	0.75570 0.72790 0.28760 -2.46500
Zn	Zn	0.68470 0.64440 0.28200 0.52500
I 	I 	0.38347 0.26770 0.41120 0.10500
I 	I 	0.63577 0.77490 0.05360 -0.62200
Zn	Zn	0.17430 0.14590 0.27380 0.65300
Zn	Zn	0.87716 0.91069 0.43656 1.16200
N 	N 	0.68180 0.18180 0.25000 -0.10000
N 	N 	0.03980 0.15140 0.41000 -0.12900
C 	C 	0.74190 0.10550 0.30460 0.11000
C 	C 	0.70600 0.22740 0.28120 0.21300
N 	N 	0.02630 0.23030 0.47080 -0.15000
N 	N 	0.72130 0.05460 0.27290 -0.14000
N 	N 	0.07720 0.27880 0.43770 -0.13300
N 	N 	0.73580 0.19410 0.31030 -0.13100
N 	N 	0.83420 0.97220 0.39260 -0.27200
C 	C 	0.97000 0.09670 0.47660 -0.14300
H 	H 	0.98080 0.12780 0.50300 0.07900
C 	C 	0.06080 0.36510 0.49600 0.04700
C 	C 	0.66730 0.04450 0.21110 0.06000
C 	C 	0.67650 0.95670 0.20310 -0.11700
H 	H 	0.69790 0.92800 0.22140 0.07000
C 	C 	0.01910 0.16510 0.44020 0.08800
N 	N 	0.92260 0.99610 0.43920 -0.28800
C 	C 	0.69120 0.09770 0.24770 0.15600
N 	N 	0.14120 0.16530 0.32140 -0.32300
C 	C 	0.05430 0.28620 0.46590 0.09900
N 	N 	0.62260 0.94990 0.14220 -0.27000
C 	C 	0.69890 0.32560 0.28290 0.07000
C 	C 	0.77390 0.06080 0.33570 0.03700
C 	C 	0.13020 0.23320 0.38450 -0.16500
H 	H 	0.13930 0.27110 0.40900 0.09200
C 	C 	0.98570 0.10730 0.44050 0.05500
C 	C 	0.79600 0.10370 0.37120 -0.10600
H 	H 	0.79140 0.16490 0.37630 0.08800
C 	C 	0.09370 0.19350 0.37890 0.09000
C 	C 	0.03970 0.46630 0.54520 0.05900
H 	H 	0.02060 0.48380 0.56070 -0.00400
C 	C 	0.81210 0.93090 0.35690 0.04700
H 	H 	0.81730 0.87010 0.35140 0.01900
C 	C 	0.09440 0.41730 0.50000 -0.11800
H 	H 	0.11390 0.40260 0.48460 0.07700
C 	C 	0.06930 0.20820 0.41080 0.10100
C 	C 	0.65370 0.91100 0.16750 0.05700
H 	H 	0.66030 0.85170 0.16120 -0.00900
C 	C 	0.93960 0.04270 0.47510 0.07800
H 	H 	0.92950 0.03700 0.50080 -0.00800
C 	C 	0.03380 0.39070 0.51880 -0.10700
H 	H 	0.01080 0.35670 0.51650 0.06400
C 	C 	0.08320 0.13610 0.34320 -0.15500
H 	H 	0.05920 0.10550 0.33830 0.09700
C 	C 	0.78290 0.97310 0.32890 -0.11900
H 	H 	0.76850 0.94160 0.30430 0.08800
C 	C 	0.82500 0.05820 0.39970 0.05500
H 	H 	0.83890 0.08820 0.42510 0.00500
C 	C 	0.09780 0.49010 0.52700 0.07500
H 	H 	0.12040 0.52550 0.52980 -0.01300
C 	C 	0.93580 0.00930 0.40510 0.09700
H 	H 	0.92340 0.97860 0.37920 -0.02400
C 	C 	0.15210 0.21790 0.35540 0.11600
H 	H 	0.17660 0.24630 0.35950 -0.11600
C 	C 	0.63590 0.08290 0.18410 -0.11300
H 	H 	0.62980 0.14380 0.18780 0.10800
C 	C 	0.10660 0.12450 0.31650 0.10500
H 	H 	0.09880 0.08530 0.29220 -0.02800
C 	C 	0.96720 0.06540 0.40210 -0.14100
H 	H 	0.97510 0.07410 0.37520 0.09200
C 	C 	0.61330 0.03280 0.15150 0.07600
H 	H 	0.59020 0.05830 0.13500 -0.00300
I 	I 	0.23734 0.23272 0.30173 2.06500
I 	I 	0.13129 0.17188 0.19873 -0.45500
I 	I 	0.85802 0.91696 0.51003 -0.38800
C 	C 	0.72430 0.38330 0.30820 -0.10900
H 	H 	0.74660 0.36030 0.32750 0.08500
C 	C 	0.71780 0.47360 0.30630 0.06700
H 	H 	0.73600 0.51210 0.32420 -0.03600
C 	C 	0.66650 0.36160 0.25430 -0.09700
H 	H 	0.64870 0.32390 0.23550 0.09600
C 	C 	0.66110 0.45460 0.25390 0.06600
H 	H 	0.63900 0.47940 0.23490 -0.01100
N 	N 	0.68620 0.50950 0.27960 -0.29600
N 	N 	0.07210 0.51490 0.54940 -0.27600
I 	I 	0.52525 0.85209 0.12867 -0.73200
Zn	Zn	0.58439 0.88040 0.09396 1.14000
I 	I 	0.61787 0.76338 0.06014 0.28000
I 	I 	0.89584 0.76671 0.39813 -0.47200
I 	I 	0.53610 0.83580 0.11620 0.34200
I 	I 	0.14500 0.18430 0.20760 0.03200
I 	I 	0.25570 0.22790 0.28760 -2.46500
Zn	Zn	0.18470 0.14440 0.28200 0.52500
I 	I 	0.88347 0.76770 0.41120 0.10500
