data_crystal

_cell_length_a 39.71120
_cell_length_b 34.53190
_cell_length_c 8.26130
_cell_angle_alpha 90.00000
_cell_angle_beta  90.00000
_cell_angle_gamma 90.00000

_symmetry_space_group_name_	'P 1'
_symmetry_space_group_name_H-M	'P 1'

loop_
_symmetry_equiv_pos_as_xyz
  x,y,z

loop_
_atom_site_label
_atom_site_type_symbol
_atom_site_fract_x
_atom_site_fract_y
_atom_site_fract_z
_atom_site_charge
I 	I 	0.06201 0.18080 0.14553 -0.38800
I 	I 	0.07776 0.24774 0.58970 -0.38600
Zn	Zn	0.07138 0.24589 0.28510 1.16100
I 	I 	0.21233 0.20721 0.80260 0.11800
N 	N 	0.10990 0.27340 0.15730 -0.26400
N 	N 	0.28390 0.46640 0.96010 -0.27000
C 	C 	0.14420 0.32900 0.10080 -0.14300
H 	H 	0.15230 0.35310 0.13300 0.09900
C 	C 	0.12040 0.25780 0.01540 0.01100
H 	H 	0.11250 0.23340 0.98710 0.03200
C 	C 	0.12160 0.30870 0.19680 0.08100
H 	H 	0.11420 0.32010 0.29270 -0.01300
N 	N 	0.19680 0.36180 0.90520 -0.12800
N 	N 	0.18260 0.31600 0.69960 -0.14800
C 	C 	0.17930 0.33120 0.84500 0.08300
C 	C 	0.24130 0.40840 0.85710 0.10300
C 	C 	0.28170 0.45780 0.80510 0.08900
H 	H 	0.29460 0.47180 0.73180 -0.01700
C 	C 	0.24220 0.41830 0.01870 -0.17000
H 	H 	0.22830 0.40610 0.09360 0.11000
N 	N 	0.22690 0.28270 0.14760 -0.27300
C 	C 	0.14200 0.27610 0.91150 -0.09200
H 	H 	0.14820 0.26460 0.81420 0.08000
C 	C 	0.26450 0.44700 0.06550 0.07800
H 	H 	0.26600 0.45310 0.17490 -0.01700
C 	C 	0.15460 0.31250 0.95500 0.06300
N 	N 	0.22540 0.36220 0.65220 -0.13200
C 	C 	0.20610 0.33230 0.60850 0.09000
C 	C 	0.26050 0.42820 0.74540 -0.15800
H 	H 	0.25970 0.42220 0.63570 0.09600
C 	C 	0.19750 0.28100 0.39800 -0.13900
H 	H 	0.18230 0.26820 0.46500 0.08000
C 	C 	0.21950 0.37590 0.79860 0.08400
C 	C 	0.21240 0.31560 0.44850 0.05700
C 	C 	0.23430 0.33340 0.33880 -0.12200
H 	H 	0.24480 0.35660 0.36640 0.09000
C 	C 	0.20540 0.26610 0.24770 0.08300
H 	H 	0.19500 0.24320 0.21540 -0.02200
C 	C 	0.24040 0.31680 0.18990 0.06400
H 	H 	0.25430 0.32960 0.11670 -0.00600
I 	I 	0.20390 0.19550 0.85670 -0.45700
I 	I 	0.06201 0.68080 0.64553 -0.36700
I 	I 	0.07776 0.74774 0.08970 -0.40100
Zn	Zn	0.07138 0.74589 0.78510 1.16500
I 	I 	0.21233 0.70721 0.30260 0.11000
N 	N 	0.10990 0.77340 0.65730 -0.26900
N 	N 	0.28390 0.96640 0.46010 -0.27500
C 	C 	0.14420 0.82900 0.60080 -0.12900
H 	H 	0.15230 0.85310 0.63300 0.09900
C 	C 	0.12040 0.75780 0.51540 0.07100
H 	H 	0.11250 0.73340 0.48710 0.00100
C 	C 	0.12160 0.80870 0.69680 0.07900
H 	H 	0.11420 0.82010 0.79270 -0.00900
N 	N 	0.19680 0.86180 0.40520 -0.13300
N 	N 	0.18260 0.81600 0.19960 -0.14700
C 	C 	0.17930 0.83120 0.34500 0.07900
C 	C 	0.24130 0.90840 0.35710 0.07800
C 	C 	0.28170 0.95780 0.30510 0.08100
H 	H 	0.29460 0.97180 0.23180 -0.01500
C 	C 	0.24220 0.91830 0.51870 -0.14400
H 	H 	0.22830 0.90610 0.59360 0.10500
N 	N 	0.22690 0.78270 0.64760 -0.27200
C 	C 	0.14200 0.77610 0.41150 -0.13300
H 	H 	0.14820 0.76460 0.31420 0.09100
C 	C 	0.26450 0.94700 0.56550 0.08600
H 	H 	0.26600 0.95310 0.67490 -0.01400
C 	C 	0.15460 0.81250 0.45500 0.05800
N 	N 	0.22540 0.86220 0.15220 -0.13300
C 	C 	0.20610 0.83230 0.10850 0.06900
C 	C 	0.26050 0.92820 0.24540 -0.14700
H 	H 	0.25970 0.92220 0.13570 0.08800
C 	C 	0.19750 0.78100 0.89800 -0.15200
H 	H 	0.18230 0.76820 0.96500 0.09000
C 	C 	0.21950 0.87590 0.29860 0.08700
C 	C 	0.21240 0.81560 0.94850 0.08300
C 	C 	0.23430 0.83340 0.83880 -0.13500
H 	H 	0.24480 0.85660 0.86640 0.09900
C 	C 	0.20540 0.76610 0.74770 0.09200
H 	H 	0.19500 0.74320 0.71540 -0.02100
C 	C 	0.24040 0.81680 0.68990 0.07300
H 	H 	0.25430 0.82960 0.61670 -0.00400
I 	I 	0.20390 0.69550 0.35670 -0.46200
I 	I 	0.56201 0.18080 0.64553 -0.36600
I 	I 	0.57776 0.24774 0.08970 -0.40000
Zn	Zn	0.57138 0.24589 0.78510 1.16500
I 	I 	0.71233 0.20721 0.30260 0.11000
N 	N 	0.60990 0.27340 0.65730 -0.26900
N 	N 	0.78390 0.46640 0.46010 -0.27800
C 	C 	0.64420 0.32900 0.60080 -0.12900
H 	H 	0.65230 0.35310 0.63300 0.09900
C 	C 	0.62040 0.25780 0.51540 0.07100
H 	H 	0.61250 0.23340 0.48710 0.00100
C 	C 	0.62160 0.30870 0.69680 0.08000
H 	H 	0.61420 0.32010 0.79270 -0.00900
N 	N 	0.69680 0.36180 0.40520 -0.13300
N 	N 	0.68260 0.31600 0.19960 -0.14700
C 	C 	0.67930 0.33120 0.34500 0.07900
C 	C 	0.74130 0.40840 0.35710 0.07800
C 	C 	0.78170 0.45780 0.30510 0.08100
H 	H 	0.79460 0.47180 0.23180 -0.01700
C 	C 	0.74220 0.41830 0.51870 -0.14500
H 	H 	0.72830 0.40610 0.59360 0.10500
N 	N 	0.72690 0.28270 0.64760 -0.27200
C 	C 	0.64200 0.27610 0.41150 -0.13300
H 	H 	0.64820 0.26460 0.31420 0.09100
C 	C 	0.76450 0.44700 0.56550 0.08500
H 	H 	0.76600 0.45310 0.67490 -0.01700
C 	C 	0.65460 0.31250 0.45500 0.05800
N 	N 	0.72540 0.36220 0.15220 -0.13300
C 	C 	0.70610 0.33230 0.10850 0.06900
C 	C 	0.76050 0.42820 0.24540 -0.14800
H 	H 	0.75970 0.42220 0.13570 0.08700
C 	C 	0.69750 0.28100 0.89800 -0.15200
H 	H 	0.68230 0.26820 0.96500 0.09000
C 	C 	0.71950 0.37590 0.29860 0.08700
C 	C 	0.71240 0.31560 0.94850 0.08300
C 	C 	0.73430 0.33340 0.83880 -0.13500
H 	H 	0.74480 0.35660 0.86640 0.09900
C 	C 	0.70540 0.26610 0.74770 0.09200
H 	H 	0.69500 0.24320 0.71540 -0.02100
C 	C 	0.74040 0.31680 0.68990 0.07300
H 	H 	0.75430 0.32960 0.61670 -0.00400
I 	I 	0.70390 0.19550 0.35670 -0.46200
I 	I 	0.56201 0.68080 0.14553 -0.38600
I 	I 	0.57776 0.74774 0.58970 -0.38400
Zn	Zn	0.57138 0.74589 0.28510 1.16200
I 	I 	0.71233 0.70721 0.80260 0.11900
N 	N 	0.60990 0.77340 0.15730 -0.26300
N 	N 	0.78390 0.96640 0.96010 -0.26700
C 	C 	0.64420 0.82900 0.10080 -0.14200
H 	H 	0.65230 0.85310 0.13300 0.10000
C 	C 	0.62040 0.75780 0.01540 0.01300
H 	H 	0.61250 0.73340 0.98710 0.03100
C 	C 	0.62160 0.80870 0.19680 0.08100
H 	H 	0.61420 0.82010 0.29270 -0.01300
N 	N 	0.69680 0.86180 0.90520 -0.12800
N 	N 	0.68260 0.81600 0.69960 -0.14800
C 	C 	0.67930 0.83120 0.84500 0.08300
C 	C 	0.74130 0.90840 0.85710 0.10200
C 	C 	0.78170 0.95780 0.80510 0.08900
H 	H 	0.79460 0.97180 0.73180 -0.01400
C 	C 	0.74220 0.91830 0.01870 -0.16900
H 	H 	0.72830 0.90610 0.09360 0.11000
N 	N 	0.72690 0.78270 0.14760 -0.27300
C 	C 	0.64200 0.77610 0.91150 -0.09200
H 	H 	0.64820 0.76460 0.81420 0.08000
C 	C 	0.76450 0.94700 0.06550 0.07800
H 	H 	0.76600 0.95310 0.17490 -0.01500
C 	C 	0.65460 0.81250 0.95500 0.06300
N 	N 	0.72540 0.86220 0.65220 -0.13200
C 	C 	0.70610 0.83230 0.60850 0.09000
C 	C 	0.76050 0.92820 0.74540 -0.15700
H 	H 	0.75970 0.92220 0.63570 0.09600
C 	C 	0.69750 0.78100 0.39800 -0.13900
H 	H 	0.68230 0.76820 0.46500 0.08000
C 	C 	0.71950 0.87590 0.79860 0.08400
C 	C 	0.71240 0.81560 0.44850 0.05700
C 	C 	0.73430 0.83340 0.33880 -0.12300
H 	H 	0.74480 0.85660 0.36640 0.09000
C 	C 	0.70540 0.76610 0.24770 0.08300
H 	H 	0.69500 0.74320 0.21540 -0.02200
C 	C 	0.74040 0.81680 0.18990 0.06400
H 	H 	0.75430 0.82960 0.11670 -0.00600
I 	I 	0.70390 0.69550 0.85670 -0.45700
I 	I 	0.93799 0.81920 0.14553 -0.38400
I 	I 	0.92224 0.75226 0.58970 -0.38200
Zn	Zn	0.92862 0.75411 0.28510 1.16200
I 	I 	0.78767 0.79279 0.80260 0.11900
N 	N 	0.89010 0.72660 0.15730 -0.26300
N 	N 	0.71610 0.53360 0.96010 -0.26900
C 	C 	0.85580 0.67100 0.10080 -0.14200
H 	H 	0.84770 0.64690 0.13300 0.10000
C 	C 	0.87960 0.74220 0.01540 0.01300
H 	H 	0.88750 0.76660 0.98710 0.03100
C 	C 	0.87840 0.69130 0.19680 0.08100
H 	H 	0.88580 0.67990 0.29270 -0.01300
N 	N 	0.80320 0.63820 0.90520 -0.12800
N 	N 	0.81740 0.68400 0.69960 -0.14800
C 	C 	0.82070 0.66880 0.84500 0.08300
C 	C 	0.75870 0.59160 0.85710 0.10300
C 	C 	0.71830 0.54220 0.80510 0.08900
H 	H 	0.70540 0.52820 0.73180 -0.01700
C 	C 	0.75780 0.58170 0.01870 -0.17000
H 	H 	0.77170 0.59390 0.09360 0.11000
N 	N 	0.77310 0.71730 0.14760 -0.27300
C 	C 	0.85800 0.72390 0.91150 -0.09200
H 	H 	0.85180 0.73540 0.81420 0.08000
C 	C 	0.73550 0.55300 0.06550 0.07800
H 	H 	0.73400 0.54690 0.17490 -0.01700
C 	C 	0.84540 0.68750 0.95500 0.06300
N 	N 	0.77460 0.63780 0.65220 -0.13200
C 	C 	0.79390 0.66770 0.60850 0.09000
C 	C 	0.73950 0.57180 0.74540 -0.15800
H 	H 	0.74030 0.57780 0.63570 0.09600
C 	C 	0.80250 0.71900 0.39800 -0.13900
H 	H 	0.81770 0.73180 0.46500 0.08000
C 	C 	0.78050 0.62410 0.79860 0.08400
C 	C 	0.78760 0.68440 0.44850 0.05700
C 	C 	0.76570 0.66660 0.33880 -0.12200
H 	H 	0.75520 0.64340 0.36640 0.09000
C 	C 	0.79460 0.73390 0.24770 0.08300
H 	H 	0.80500 0.75680 0.21540 -0.02200
C 	C 	0.75960 0.68320 0.18990 0.06400
H 	H 	0.74570 0.67040 0.11670 -0.00600
I 	I 	0.79610 0.80450 0.85670 -0.45700
I 	I 	0.93799 0.31920 0.64553 -0.36400
I 	I 	0.92224 0.25226 0.08970 -0.39900
Zn	Zn	0.92862 0.25411 0.78510 1.16500
I 	I 	0.78767 0.29279 0.30260 0.11000
N 	N 	0.89010 0.22660 0.65730 -0.26900
N 	N 	0.71610 0.03360 0.46010 -0.28000
C 	C 	0.85580 0.17100 0.60080 -0.12900
H 	H 	0.84770 0.14690 0.63300 0.09900
C 	C 	0.87960 0.24220 0.51540 0.07100
H 	H 	0.88750 0.26660 0.48710 0.00100
C 	C 	0.87840 0.19130 0.69680 0.08000
H 	H 	0.88580 0.17990 0.79270 -0.00900
N 	N 	0.80320 0.13820 0.40520 -0.13300
N 	N 	0.81740 0.18400 0.19960 -0.14700
C 	C 	0.82070 0.16880 0.34500 0.07900
C 	C 	0.75870 0.09160 0.35710 0.07900
C 	C 	0.71830 0.04220 0.30510 0.08100
H 	H 	0.70540 0.02820 0.23180 -0.02000
C 	C 	0.75780 0.08170 0.51870 -0.14600
H 	H 	0.77170 0.09390 0.59360 0.10500
N 	N 	0.77310 0.21730 0.64760 -0.27200
C 	C 	0.85800 0.22390 0.41150 -0.13300
H 	H 	0.85180 0.23540 0.31420 0.09100
C 	C 	0.73550 0.05300 0.56550 0.08500
H 	H 	0.73400 0.04690 0.67490 -0.01900
C 	C 	0.84540 0.18750 0.45500 0.05800
N 	N 	0.77460 0.13780 0.15220 -0.13300
C 	C 	0.79390 0.16770 0.10850 0.06900
C 	C 	0.73950 0.07180 0.24540 -0.14900
H 	H 	0.74030 0.07780 0.13570 0.08700
C 	C 	0.80250 0.21900 0.89800 -0.15200
H 	H 	0.81770 0.23180 0.96500 0.09000
C 	C 	0.78050 0.12410 0.29860 0.08700
C 	C 	0.78760 0.18440 0.94850 0.08300
C 	C 	0.76570 0.16660 0.83880 -0.13500
H 	H 	0.75520 0.14340 0.86640 0.09800
C 	C 	0.79460 0.23390 0.74770 0.09200
H 	H 	0.80500 0.25680 0.71540 -0.02100
C 	C 	0.75960 0.18320 0.68990 0.07300
H 	H 	0.74570 0.17040 0.61670 -0.00400
I 	I 	0.79610 0.30450 0.35670 -0.46200
I 	I 	0.43799 0.81920 0.64553 -0.36600
I 	I 	0.42224 0.75226 0.08970 -0.40000
Zn	Zn	0.42862 0.75411 0.78510 1.16500
I 	I 	0.28767 0.79279 0.30260 0.11000
N 	N 	0.39010 0.72660 0.65730 -0.26900
N 	N 	0.21610 0.53360 0.46010 -0.27800
C 	C 	0.35580 0.67100 0.60080 -0.12900
H 	H 	0.34770 0.64690 0.63300 0.09900
C 	C 	0.37960 0.74220 0.51540 0.07100
H 	H 	0.38750 0.76660 0.48710 0.00100
C 	C 	0.37840 0.69130 0.69680 0.08000
H 	H 	0.38580 0.67990 0.79270 -0.00900
N 	N 	0.30320 0.63820 0.40520 -0.13300
N 	N 	0.31740 0.68400 0.19960 -0.14700
C 	C 	0.32070 0.66880 0.34500 0.07900
C 	C 	0.25870 0.59160 0.35710 0.07800
C 	C 	0.21830 0.54220 0.30510 0.08100
H 	H 	0.20540 0.52820 0.23180 -0.01700
C 	C 	0.25780 0.58170 0.51870 -0.14500
H 	H 	0.27170 0.59390 0.59360 0.10500
N 	N 	0.27310 0.71730 0.64760 -0.27200
C 	C 	0.35800 0.72390 0.41150 -0.13300
H 	H 	0.35180 0.73540 0.31420 0.09100
C 	C 	0.23550 0.55300 0.56550 0.08500
H 	H 	0.23400 0.54690 0.67490 -0.01700
C 	C 	0.34540 0.68750 0.45500 0.05800
N 	N 	0.27460 0.63780 0.15220 -0.13300
C 	C 	0.29390 0.66770 0.10850 0.06900
C 	C 	0.23950 0.57180 0.24540 -0.14800
H 	H 	0.24030 0.57780 0.13570 0.08700
C 	C 	0.30250 0.71900 0.89800 -0.15200
H 	H 	0.31770 0.73180 0.96500 0.09000
C 	C 	0.28050 0.62410 0.29860 0.08700
C 	C 	0.28760 0.68440 0.94850 0.08300
C 	C 	0.26570 0.66660 0.83880 -0.13500
H 	H 	0.25520 0.64340 0.86640 0.09900
C 	C 	0.29460 0.73390 0.74770 0.09200
H 	H 	0.30500 0.75680 0.71540 -0.02100
C 	C 	0.25960 0.68320 0.68990 0.07300
H 	H 	0.24570 0.67040 0.61670 -0.00400
I 	I 	0.29610 0.80450 0.35670 -0.46200
I 	I 	0.43799 0.31920 0.14553 -0.38500
I 	I 	0.42224 0.25226 0.58970 -0.38300
Zn	Zn	0.42862 0.25411 0.28510 1.16200
I 	I 	0.28767 0.29279 0.80260 0.11900
N 	N 	0.39010 0.22660 0.15730 -0.26300
N 	N 	0.21610 0.03360 0.96010 -0.27200
C 	C 	0.35580 0.17100 0.10080 -0.14200
H 	H 	0.34770 0.14690 0.13300 0.10000
C 	C 	0.37960 0.24220 0.01540 0.01200
H 	H 	0.38750 0.26660 0.98710 0.03200
C 	C 	0.37840 0.19130 0.19680 0.08100
H 	H 	0.38580 0.17990 0.29270 -0.01300
N 	N 	0.30320 0.13820 0.90520 -0.12800
N 	N 	0.31740 0.18400 0.69960 -0.14800
C 	C 	0.32070 0.16880 0.84500 0.08300
C 	C 	0.25870 0.09160 0.85710 0.10300
C 	C 	0.21830 0.04220 0.80510 0.08900
H 	H 	0.20540 0.02820 0.73180 -0.01900
C 	C 	0.25780 0.08170 0.01870 -0.17100
H 	H 	0.27170 0.09390 0.09360 0.11000
N 	N 	0.27310 0.21730 0.14760 -0.27300
C 	C 	0.35800 0.22390 0.91150 -0.09200
H 	H 	0.35180 0.23540 0.81420 0.08000
C 	C 	0.23550 0.05300 0.06550 0.07800
H 	H 	0.23400 0.04690 0.17490 -0.01900
C 	C 	0.34540 0.18750 0.95500 0.06300
N 	N 	0.27460 0.13780 0.65220 -0.13200
C 	C 	0.29390 0.16770 0.60850 0.09000
C 	C 	0.23950 0.07180 0.74540 -0.15900
H 	H 	0.24030 0.07780 0.63570 0.09600
C 	C 	0.30250 0.21900 0.39800 -0.13900
H 	H 	0.31770 0.23180 0.46500 0.08000
C 	C 	0.28050 0.12410 0.79860 0.08400
C 	C 	0.28760 0.18440 0.44850 0.05700
C 	C 	0.26570 0.16660 0.33880 -0.12200
H 	H 	0.25520 0.14340 0.36640 0.09000
C 	C 	0.29460 0.23390 0.24770 0.08300
H 	H 	0.30500 0.25680 0.21540 -0.02200
C 	C 	0.25960 0.18320 0.18990 0.06400
H 	H 	0.24570 0.17040 0.11670 -0.00600
I 	I 	0.29610 0.30450 0.85670 -0.45700
I 	I 	0.31201 0.06920 0.39553 -0.37600
I 	I 	0.32776 0.00226 0.83970 -0.38100
Zn	Zn	0.32138 0.00411 0.53510 1.16000
I 	I 	0.46233 0.04279 0.05260 0.11100
N 	N 	0.35990 0.97660 0.40730 -0.27300
N 	N 	0.53390 0.78360 0.21010 -0.26300
C 	C 	0.39420 0.92100 0.35080 -0.13700
H 	H 	0.40230 0.89690 0.38300 0.10200
C 	C 	0.37040 0.99220 0.26540 0.09500
H 	H 	0.36250 0.01660 0.23710 -0.01400
C 	C 	0.37160 0.94130 0.44680 0.08400
H 	H 	0.36420 0.92990 0.54270 -0.01200
N 	N 	0.44680 0.88820 0.15520 -0.13100
N 	N 	0.43260 0.93400 0.94960 -0.13500
C 	C 	0.42930 0.91880 0.09500 0.06400
C 	C 	0.49130 0.84160 0.10710 0.03700
C 	C 	0.53170 0.79220 0.05510 0.00900
H 	H 	0.54460 0.77820 0.98180 0.02100
C 	C 	0.49220 0.83170 0.26870 -0.11700
H 	H 	0.47830 0.84390 0.34360 0.09600
N 	N 	0.47690 0.96730 0.39760 -0.27100
C 	C 	0.39200 0.97390 0.16150 -0.14900
H 	H 	0.39820 0.98540 0.06420 0.09700
C 	C 	0.51450 0.80300 0.31550 0.06700
H 	H 	0.51600 0.79690 0.42490 -0.01100
C 	C 	0.40460 0.93750 0.20500 0.06900
N 	N 	0.47540 0.88780 0.90220 -0.12500
C 	C 	0.45610 0.91770 0.85850 0.09100
C 	C 	0.51050 0.82180 0.99540 -0.07100
H 	H 	0.50970 0.82780 0.88570 0.06800
C 	C 	0.44750 0.96900 0.64800 -0.15100
H 	H 	0.43230 0.98180 0.71500 0.09000
C 	C 	0.46950 0.87410 0.04860 0.08700
C 	C 	0.46240 0.93440 0.69850 0.06500
C 	C 	0.48430 0.91660 0.58880 -0.12600
H 	H 	0.49480 0.89340 0.61640 0.09300
C 	C 	0.45540 0.98390 0.49770 0.10800
H 	H 	0.44500 0.00680 0.46540 -0.03300
C 	C 	0.49040 0.93320 0.43990 0.06900
H 	H 	0.50430 0.92040 0.36670 -0.00200
I 	I 	0.45390 0.05450 0.10670 -0.47400
I 	I 	0.31201 0.56920 0.89553 -0.35800
I 	I 	0.32776 0.50226 0.33970 -0.39100
Zn	Zn	0.32138 0.50411 0.03510 1.15600
I 	I 	0.46233 0.54279 0.55260 0.10900
N 	N 	0.35990 0.47660 0.90730 -0.27500
N 	N 	0.53390 0.28360 0.71010 -0.27700
C 	C 	0.39420 0.42100 0.85080 -0.15100
H 	H 	0.40230 0.39690 0.88300 0.11100
C 	C 	0.37040 0.49220 0.76540 0.07700
H 	H 	0.36250 0.51660 0.73710 -0.00000
C 	C 	0.37160 0.44130 0.94680 0.11900
H 	H 	0.36420 0.42990 0.04270 -0.03700
N 	N 	0.44680 0.38820 0.65520 -0.13200
N 	N 	0.43260 0.43400 0.44960 -0.14600
C 	C 	0.42930 0.41880 0.59500 0.07700
C 	C 	0.49130 0.34160 0.60710 0.08000
C 	C 	0.53170 0.29220 0.55510 0.08200
H 	H 	0.54460 0.27820 0.48180 -0.01500
C 	C 	0.49220 0.33170 0.76870 -0.14500
H 	H 	0.47830 0.34390 0.84360 0.10900
N 	N 	0.47690 0.46730 0.89760 -0.28100
C 	C 	0.39200 0.47390 0.66150 -0.14100
H 	H 	0.39820 0.48540 0.56420 0.09500
C 	C 	0.51450 0.30300 0.81550 0.08700
H 	H 	0.51600 0.29690 0.92490 -0.01300
C 	C 	0.40460 0.43750 0.70500 0.07000
N 	N 	0.47540 0.38780 0.40220 -0.13100
C 	C 	0.45610 0.41770 0.35850 0.08000
C 	C 	0.51050 0.32180 0.49540 -0.14800
H 	H 	0.50970 0.32780 0.38570 0.09100
C 	C 	0.44750 0.46900 0.14800 -0.18600
H 	H 	0.43230 0.48180 0.21500 0.09300
C 	C 	0.46950 0.37410 0.54860 0.08800
C 	C 	0.46240 0.43440 0.19850 0.08400
C 	C 	0.48430 0.41660 0.08880 -0.16800
H 	H 	0.49480 0.39340 0.11640 0.10200
C 	C 	0.45540 0.48390 0.99770 0.12400
H 	H 	0.44500 0.50680 0.96540 -0.03000
C 	C 	0.49040 0.43320 0.93990 0.10400
H 	H 	0.50430 0.42040 0.86670 -0.01300
I 	I 	0.45390 0.55450 0.60670 -0.45700
I 	I 	0.81201 0.06920 0.89553 -0.36000
I 	I 	0.82776 0.00226 0.33970 -0.40100
Zn	Zn	0.82138 0.00411 0.03510 1.15400
I 	I 	0.96233 0.04279 0.55260 0.11000
N 	N 	0.85990 0.97660 0.90730 -0.27600
N 	N 	0.03390 0.78360 0.71010 -0.27600
C 	C 	0.89420 0.92100 0.85080 -0.15500
H 	H 	0.90230 0.89690 0.88300 0.11200
C 	C 	0.87040 0.99220 0.76540 0.10000
H 	H 	0.86250 0.01660 0.73710 -0.01300
C 	C 	0.87160 0.94130 0.94680 0.12200
H 	H 	0.86420 0.92990 0.04270 -0.03600
N 	N 	0.94680 0.88820 0.65520 -0.13100
N 	N 	0.93260 0.93400 0.44960 -0.14400
C 	C 	0.92930 0.91880 0.59500 0.07600
C 	C 	0.99130 0.84160 0.60710 0.08500
C 	C 	0.03170 0.79220 0.55510 0.08300
H 	H 	0.04460 0.77820 0.48180 -0.01600
C 	C 	0.99220 0.83170 0.76870 -0.13800
H 	H 	0.97830 0.84390 0.84360 0.10700
N 	N 	0.97690 0.96730 0.89760 -0.28500
C 	C 	0.89200 0.97390 0.66150 -0.15300
H 	H 	0.89820 0.98540 0.56420 0.10300
C 	C 	0.01450 0.80300 0.81550 0.07900
H 	H 	0.01600 0.79690 0.92490 -0.01200
C 	C 	0.90460 0.93750 0.70500 0.07600
N 	N 	0.97540 0.88780 0.40220 -0.13000
C 	C 	0.95610 0.91770 0.35850 0.07800
C 	C 	0.01050 0.82180 0.49540 -0.15500
H 	H 	0.00970 0.82780 0.38570 0.09200
C 	C 	0.94750 0.96900 0.14800 -0.20000
H 	H 	0.93230 0.98180 0.21500 0.10100
C 	C 	0.96950 0.87410 0.54860 0.08800
C 	C 	0.96240 0.93440 0.19850 0.09400
C 	C 	0.98430 0.91660 0.08880 -0.17900
H 	H 	0.99480 0.89340 0.11640 0.10800
C 	C 	0.95540 0.98390 0.99770 0.14900
H 	H 	0.94500 0.00680 0.96540 -0.04400
C 	C 	0.99040 0.93320 0.93990 0.12100
H 	H 	0.00430 0.92040 0.86670 -0.02200
I 	I 	0.95390 0.05450 0.60670 -0.45900
I 	I 	0.81201 0.56920 0.39553 -0.37400
I 	I 	0.82776 0.50226 0.83970 -0.37200
Zn	Zn	0.82138 0.50411 0.53510 1.16200
I 	I 	0.96233 0.54279 0.05260 0.10800
N 	N 	0.85990 0.47660 0.40730 -0.27100
N 	N 	0.03390 0.28360 0.21010 -0.26200
C 	C 	0.89420 0.42100 0.35080 -0.13200
H 	H 	0.90230 0.39690 0.38300 0.10000
C 	C 	0.87040 0.49220 0.26540 0.07200
H 	H 	0.86250 0.51660 0.23710 -0.00100
C 	C 	0.87160 0.44130 0.44680 0.08100
H 	H 	0.86420 0.42990 0.54270 -0.01200
N 	N 	0.94680 0.38820 0.15520 -0.13100
N 	N 	0.93260 0.43400 0.94960 -0.13600
C 	C 	0.92930 0.41880 0.09500 0.06600
C 	C 	0.99130 0.34160 0.10710 0.04100
C 	C 	0.03170 0.29220 0.05510 0.00900
H 	H 	0.04460 0.27820 0.98180 0.02000
C 	C 	0.99220 0.33170 0.26870 -0.11000
H 	H 	0.97830 0.34390 0.34360 0.09400
N 	N 	0.97690 0.46730 0.39760 -0.27000
C 	C 	0.89200 0.47390 0.16150 -0.13700
H 	H 	0.89820 0.48540 0.06420 0.09000
C 	C 	0.01450 0.30300 0.31550 0.05900
H 	H 	0.01600 0.29690 0.42490 -0.01000
C 	C 	0.90460 0.43750 0.20500 0.06200
N 	N 	0.97540 0.38780 0.90220 -0.12400
C 	C 	0.95610 0.41770 0.85850 0.09200
C 	C 	0.01050 0.32180 0.99540 -0.07700
H 	H 	0.00970 0.32780 0.88570 0.06900
C 	C 	0.94750 0.46900 0.64800 -0.14100
H 	H 	0.93230 0.48180 0.71500 0.08400
C 	C 	0.96950 0.37410 0.04860 0.08600
C 	C 	0.96240 0.43440 0.69850 0.06300
C 	C 	0.98430 0.41660 0.58880 -0.12800
H 	H 	0.99480 0.39340 0.61640 0.09500
C 	C 	0.95540 0.48390 0.49770 0.08700
H 	H 	0.94500 0.50680 0.46540 -0.01900
C 	C 	0.99040 0.43320 0.43990 0.07900
H 	H 	0.00430 0.42040 0.36670 -0.01000
I 	I 	0.95390 0.55450 0.10670 -0.46100
I 	I 	0.18799 0.43080 0.39553 -0.37400
I 	I 	0.17224 0.49774 0.83970 -0.37200
Zn	Zn	0.17862 0.49589 0.53510 1.16200
I 	I 	0.03767 0.45721 0.05260 0.11000
N 	N 	0.14010 0.52340 0.40730 -0.27100
N 	N 	0.96610 0.71640 0.21010 -0.26300
C 	C 	0.10580 0.57900 0.35080 -0.13200
H 	H 	0.09770 0.60310 0.38300 0.10000
C 	C 	0.12960 0.50780 0.26540 0.07200
H 	H 	0.13750 0.48340 0.23710 -0.00100
C 	C 	0.12840 0.55870 0.44680 0.08100
H 	H 	0.13580 0.57010 0.54270 -0.01200
N 	N 	0.05320 0.61180 0.15520 -0.13200
N 	N 	0.06740 0.56600 0.94960 -0.13700
C 	C 	0.07070 0.58120 0.09500 0.06600
C 	C 	0.00870 0.65840 0.10710 0.03300
C 	C 	0.96830 0.70780 0.05510 0.00800
H 	H 	0.95540 0.72180 0.98180 0.02100
C 	C 	0.00780 0.66830 0.26870 -0.12400
H 	H 	0.02170 0.65610 0.34360 0.09700
N 	N 	0.02310 0.53270 0.39760 -0.26700
C 	C 	0.10800 0.52610 0.16150 -0.13700
H 	H 	0.10180 0.51460 0.06420 0.09000
C 	C 	0.98550 0.69700 0.31550 0.07500
H 	H 	0.98400 0.70310 0.42490 -0.01300
C 	C 	0.09540 0.56250 0.20500 0.06300
N 	N 	0.02460 0.61220 0.90220 -0.12700
C 	C 	0.04390 0.58230 0.85850 0.09300
C 	C 	0.98950 0.67820 0.99540 -0.06400
H 	H 	0.99030 0.67220 0.88570 0.06800
C 	C 	0.05250 0.53100 0.64800 -0.13600
H 	H 	0.06770 0.51820 0.71500 0.08100
C 	C 	0.03050 0.62590 0.04860 0.08600
C 	C 	0.03760 0.56560 0.69850 0.05500
C 	C 	0.01570 0.58340 0.58880 -0.11400
H 	H 	0.00520 0.60660 0.61640 0.08700
C 	C 	0.04460 0.51610 0.49770 0.08200
H 	H 	0.05500 0.49320 0.46540 -0.01900
C 	C 	0.00960 0.56680 0.43990 0.05200
H 	H 	0.99570 0.57960 0.36670 0.00700
I 	I 	0.04610 0.44550 0.10670 -0.47000
I 	I 	0.18799 0.93080 0.89553 -0.35500
I 	I 	0.17224 0.99774 0.33970 -0.38100
Zn	Zn	0.17862 0.99589 0.03510 1.15900
I 	I 	0.03767 0.95721 0.55260 0.10700
N 	N 	0.14010 0.02340 0.90730 -0.27300
N 	N 	0.96610 0.21640 0.71010 -0.27700
C 	C 	0.10580 0.07900 0.85080 -0.14600
H 	H 	0.09770 0.10310 0.88300 0.10900
C 	C 	0.12960 0.00780 0.76540 0.05400
H 	H 	0.13750 0.98340 0.73710 0.01300
C 	C 	0.12840 0.05870 0.94680 0.11600
H 	H 	0.13580 0.07010 0.04270 -0.03700
N 	N 	0.05320 0.11180 0.65520 -0.13200
N 	N 	0.06740 0.06600 0.44960 -0.14700
C 	C 	0.07070 0.08120 0.59500 0.07800
C 	C 	0.00870 0.15840 0.60710 0.07600
C 	C 	0.96830 0.20780 0.55510 0.08000
H 	H 	0.95540 0.22180 0.48180 -0.01400
C 	C 	0.00780 0.16830 0.76870 -0.15200
H 	H 	0.02170 0.15610 0.84360 0.11000
N 	N 	0.02310 0.03270 0.89760 -0.27600
C 	C 	0.10800 0.02610 0.66150 -0.12900
H 	H 	0.10180 0.01460 0.56420 0.08800
C 	C 	0.98550 0.19700 0.81550 0.09500
H 	H 	0.98400 0.20310 0.92490 -0.01400
C 	C 	0.09540 0.06250 0.70500 0.06400
N 	N 	0.02460 0.11220 0.40220 -0.13300
C 	C 	0.04390 0.08230 0.35850 0.08200
C 	C 	0.98950 0.17820 0.49540 -0.14100
H 	H 	0.99030 0.17220 0.38570 0.09100
C 	C 	0.05250 0.03100 0.14800 -0.17100
H 	H 	0.06770 0.01820 0.21500 0.08500
C 	C 	0.03050 0.12590 0.54860 0.08800
C 	C 	0.03760 0.06560 0.19850 0.07400
C 	C 	0.01570 0.08340 0.08880 -0.15700
H 	H 	0.00520 0.10660 0.11640 0.09700
C 	C 	0.04460 0.01610 0.99770 0.09900
H 	H 	0.05500 0.99320 0.96540 -0.01600
C 	C 	0.00960 0.06680 0.93990 0.08800
H 	H 	0.99570 0.07960 0.86670 -0.00300
I 	I 	0.04610 0.94550 0.60670 -0.45000
I 	I 	0.68799 0.43080 0.89553 -0.35800
I 	I 	0.67224 0.49774 0.33970 -0.39100
Zn	Zn	0.67862 0.49589 0.03510 1.15600
I 	I 	0.53767 0.45721 0.55260 0.10900
N 	N 	0.64010 0.52340 0.90730 -0.27500
N 	N 	0.46610 0.71640 0.71010 -0.27700
C 	C 	0.60580 0.57900 0.85080 -0.15100
H 	H 	0.59770 0.60310 0.88300 0.11100
C 	C 	0.62960 0.50780 0.76540 0.07700
H 	H 	0.63750 0.48340 0.73710 -0.00000
C 	C 	0.62840 0.55870 0.94680 0.11900
H 	H 	0.63580 0.57010 0.04270 -0.03700
N 	N 	0.55320 0.61180 0.65520 -0.13200
N 	N 	0.56740 0.56600 0.44960 -0.14600
C 	C 	0.57070 0.58120 0.59500 0.07700
C 	C 	0.50870 0.65840 0.60710 0.08000
C 	C 	0.46830 0.70780 0.55510 0.08200
H 	H 	0.45540 0.72180 0.48180 -0.01500
C 	C 	0.50780 0.66830 0.76870 -0.14500
H 	H 	0.52170 0.65610 0.84360 0.10900
N 	N 	0.52310 0.53270 0.89760 -0.28100
C 	C 	0.60800 0.52610 0.66150 -0.14100
H 	H 	0.60180 0.51460 0.56420 0.09500
C 	C 	0.48550 0.69700 0.81550 0.08700
H 	H 	0.48400 0.70310 0.92490 -0.01300
C 	C 	0.59540 0.56250 0.70500 0.07000
N 	N 	0.52460 0.61220 0.40220 -0.13100
C 	C 	0.54390 0.58230 0.35850 0.08000
C 	C 	0.48950 0.67820 0.49540 -0.14800
H 	H 	0.49030 0.67220 0.38570 0.09100
C 	C 	0.55250 0.53100 0.14800 -0.18600
H 	H 	0.56770 0.51820 0.21500 0.09300
C 	C 	0.53050 0.62590 0.54860 0.08800
C 	C 	0.53760 0.56560 0.19850 0.08400
C 	C 	0.51570 0.58340 0.08880 -0.16800
H 	H 	0.50520 0.60660 0.11640 0.10200
C 	C 	0.54460 0.51610 0.99770 0.12400
H 	H 	0.55500 0.49320 0.96540 -0.03000
C 	C 	0.50960 0.56680 0.93990 0.10400
H 	H 	0.49570 0.57960 0.86670 -0.01300
I 	I 	0.54610 0.44550 0.60670 -0.45700
I 	I 	0.68799 0.93080 0.39553 -0.37100
I 	I 	0.67224 0.99774 0.83970 -0.36200
Zn	Zn	0.67862 0.99589 0.53510 1.16500
I 	I 	0.53767 0.95721 0.05260 0.10500
N 	N 	0.64010 0.02340 0.40730 -0.26900
N 	N 	0.46610 0.21640 0.21010 -0.26300
C 	C 	0.60580 0.07900 0.35080 -0.12800
H 	H 	0.59770 0.10310 0.38300 0.09900
C 	C 	0.62960 0.00780 0.26540 0.04900
H 	H 	0.63750 0.98340 0.23710 0.01200
C 	C 	0.62840 0.05870 0.44680 0.07800
H 	H 	0.63580 0.07010 0.54270 -0.01200
N 	N 	0.55320 0.11180 0.15520 -0.13200
N 	N 	0.56740 0.06600 0.94960 -0.13800
C 	C 	0.57070 0.08120 0.09500 0.06700
C 	C 	0.50870 0.15840 0.10710 0.03700
C 	C 	0.46830 0.20780 0.05510 0.00900
H 	H 	0.45540 0.22180 0.98180 0.02100
C 	C 	0.50780 0.16830 0.26870 -0.11700
H 	H 	0.52170 0.15610 0.34360 0.09600
N 	N 	0.52310 0.03270 0.39760 -0.26600
C 	C 	0.60800 0.02610 0.16150 -0.12500
H 	H 	0.60180 0.01460 0.06420 0.08300
C 	C 	0.48550 0.19700 0.31550 0.06700
H 	H 	0.48400 0.20310 0.42490 -0.01100
C 	C 	0.59540 0.06250 0.20500 0.05600
N 	N 	0.52460 0.11220 0.90220 -0.12600
C 	C 	0.54390 0.08230 0.85850 0.09400
C 	C 	0.48950 0.17820 0.99540 -0.07000
H 	H 	0.49030 0.17220 0.88570 0.06800
C 	C 	0.55250 0.03100 0.64800 -0.12600
H 	H 	0.56770 0.01820 0.71500 0.07600
C 	C 	0.53050 0.12590 0.04860 0.08600
C 	C 	0.53760 0.06560 0.69850 0.05200
C 	C 	0.51570 0.08340 0.58880 -0.11700
H 	H 	0.50520 0.10660 0.61640 0.09000
C 	C 	0.54460 0.01610 0.49770 0.06100
H 	H 	0.55500 0.99320 0.46540 -0.00500
C 	C 	0.50960 0.06680 0.43990 0.06200
H 	H 	0.49570 0.07960 0.36670 -0.00000
I 	I 	0.54610 0.94550 0.10670 -0.45600
Zn	Zn	0.25000 0.25000 0.96310 1.14800
Zn	Zn	0.25000 0.75000 0.46310 1.14500
Zn	Zn	0.75000 0.75000 0.96310 1.14800
Zn	Zn	0.75000 0.25000 0.46310 1.14500
Zn	Zn	0.50000 0.00000 0.21310 1.14200
Zn	Zn	0.50000 0.50000 0.71310 1.14500
Zn	Zn	-0.00000 0.50000 0.21310 1.14300
Zn	Zn	0.00000 0.00000 0.71310 1.14100
