data_crystal

_cell_length_a 35.15900
_cell_length_b 14.62740
_cell_length_c 31.15960
_cell_angle_alpha 90.00000
_cell_angle_beta  101.48600
_cell_angle_gamma 90.00000

_symmetry_space_group_name_	'P 1'
_symmetry_space_group_name_H-M	'P 1'

loop_
_symmetry_equiv_pos_as_xyz
  x,y,z

loop_
_atom_site_label
_atom_site_type_symbol
_atom_site_fract_x
_atom_site_fract_y
_atom_site_fract_z
_atom_site_charge
I 	I 	0.26808 0.24564 0.20883 -0.38100
I 	I 	0.37941 0.25813 0.44031 -0.38100
I 	I 	0.37450 0.16405 0.30409 -0.40700
I 	I 	0.60846 0.24157 0.60254 -0.38100
I 	I 	0.47597 0.33836 0.36850 -0.32000
I 	I 	0.64848 0.09748 0.49184 -0.37200
Zn	Zn	0.41674 0.37164 0.40347 1.16200
Zn	Zn	0.62586 0.09916 0.56384 1.16400
Zn	Zn	0.32974 0.15187 0.22913 1.16300
N 	N 	0.57860 0.01240 0.55850 -0.27400
N 	N 	0.37850 0.44130 0.35440 -0.27300
N 	N 	0.16770 0.46900 0.10840 -0.27200
N 	N 	0.31810 0.01330 0.22030 -0.27000
N 	N 	0.36190 0.82830 0.68150 -0.27800
N 	N 	0.27920 0.55220 0.22640 -0.14100
N 	N 	0.26660 0.69260 0.18770 -0.14000
N 	N 	0.42920 0.48100 0.44680 -0.26800
N 	N 	0.31970 0.67920 0.24740 -0.13700
N 	N 	0.47500 0.77230 0.52550 -0.14800
N 	N 	0.46000 0.85350 0.58590 -0.13400
C 	C 	0.18420 0.43120 0.14700 0.06700
H 	H 	0.17510 0.37360 0.15470 -0.00200
N 	N 	0.42440 0.72130 0.55930 -0.13600
C 	C 	0.34660 0.40480 0.33140 0.07600
H 	H 	0.33930 0.34510 0.33860 -0.01300
C 	C 	0.51470 0.90020 0.55550 0.05300
C 	C 	0.33340 0.53870 0.28730 0.06100
C 	C 	0.48100 0.83830 0.55550 0.09400
C 	C 	0.22660 0.55860 0.16470 0.04800
C 	C 	0.46160 0.53110 0.45090 0.06900
H 	H 	0.48070 0.51310 0.43480 -0.00900
C 	C 	0.21400 0.47410 0.17560 -0.12200
H 	H 	0.22560 0.44560 0.20240 0.09000
C 	C 	0.43110 0.79340 0.58560 0.10600
C 	C 	0.25920 0.60390 0.19440 0.09100
C 	C 	0.17990 0.55030 0.09830 0.07500
H 	H 	0.16810 0.57660 0.07100 -0.00200
C 	C 	0.40730 0.80570 0.61880 0.06600
C 	C 	0.44100 0.63290 0.50090 0.04800
C 	C 	0.20880 0.59880 0.12510 -0.11600
H 	H 	0.21640 0.65760 0.11690 0.08500
C 	C 	0.53210 0.90870 0.52030 -0.12600
H 	H 	0.52220 0.87570 0.49420 0.08000
C 	C 	0.32340 0.45110 0.29710 -0.13200
H 	H 	0.30080 0.42290 0.28060 0.08200
C 	C 	0.30980 0.59340 0.25160 0.10300
C 	C 	0.30480 0.82600 0.21520 0.05300
C 	C 	0.35040 0.77610 0.64640 0.07900
H 	H 	0.32590 0.74700 0.64300 -0.01200
C 	C 	0.36710 0.57640 0.31180 -0.12400
H 	H 	0.37500 0.63660 0.30610 0.09300
C 	C 	0.34330 0.95440 0.24350 0.06200
H 	H 	0.36590 0.97800 0.26210 -0.01200
C 	C 	0.38860 0.52430 0.34430 0.08200
H 	H 	0.41200 0.54930 0.36050 -0.01100
C 	C 	0.56360 0.96470 0.52240 0.07700
H 	H 	0.57530 0.96980 0.49750 -0.00400
C 	C 	0.46870 0.60700 0.47710 -0.11400
H 	H 	0.49200 0.64110 0.47900 0.07100
C 	C 	0.40730 0.58140 0.49670 -0.11300
H 	H 	0.38780 0.59800 0.51240 0.07800
C 	C 	0.28620 0.97960 0.19380 0.06500
H 	H 	0.26830 0.02070 0.17690 -0.00800
C 	C 	0.29660 0.72620 0.21600 0.10900
C 	C 	0.41960 0.85960 0.65510 -0.12000
H 	H 	0.44380 0.89060 0.65890 0.08500
C 	C 	0.44680 0.71380 0.52970 0.09200
C 	C 	0.33790 0.86190 0.24170 -0.11400
H 	H 	0.35660 0.82240 0.25840 0.08100
C 	C 	0.40230 0.50690 0.46980 0.06500
H 	H 	0.37920 0.47210 0.46720 -0.01100
C 	C 	0.27890 0.88710 0.19050 -0.11400
H 	H 	0.25630 0.86490 0.17140 0.07700
C 	C 	0.39670 0.86860 0.68570 0.07300
H 	H 	0.40590 0.90490 0.71090 -0.01600
C 	C 	0.37180 0.76180 0.61490 -0.12100
H 	H 	0.36250 0.72260 0.59080 0.08700
C 	C 	0.56220 0.00220 0.59310 0.07800
H 	H 	0.57300 0.03470 0.61900 -0.01600
C 	C 	0.53070 0.94780 0.59360 -0.12400
H 	H 	0.52000 0.94250 0.61920 0.08700
I 	I 	0.47360 0.34890 0.37960 -0.02100
I 	I 	0.76808 0.74564 0.20883 -0.38000
I 	I 	0.87941 0.75813 0.44031 -0.38000
I 	I 	0.87450 0.66405 0.30409 -0.40600
I 	I 	0.10846 0.74157 0.60254 -0.38000
I 	I 	0.97597 0.83836 0.36850 -0.31900
I 	I 	0.14848 0.59748 0.49184 -0.37100
Zn	Zn	0.91674 0.87164 0.40347 1.16300
Zn	Zn	0.12586 0.59916 0.56384 1.16500
Zn	Zn	0.82974 0.65187 0.22913 1.16400
N 	N 	0.07860 0.51240 0.55850 -0.27300
N 	N 	0.87850 0.94130 0.35440 -0.27200
N 	N 	0.66770 0.96900 0.10840 -0.27100
N 	N 	0.81810 0.51330 0.22030 -0.26900
N 	N 	0.86190 0.32830 0.68150 -0.27700
N 	N 	0.77920 0.05220 0.22640 -0.14000
N 	N 	0.76660 0.19260 0.18770 -0.13900
N 	N 	0.92920 0.98100 0.44680 -0.26800
N 	N 	0.81970 0.17920 0.24740 -0.13700
N 	N 	0.97500 0.27230 0.52550 -0.14800
N 	N 	0.96000 0.35350 0.58590 -0.13400
C 	C 	0.68420 0.93120 0.14700 0.06700
H 	H 	0.67510 0.87360 0.15470 -0.00200
N 	N 	0.92440 0.22130 0.55930 -0.13600
C 	C 	0.84660 0.90480 0.33140 0.07600
H 	H 	0.83930 0.84510 0.33860 -0.01300
C 	C 	0.01470 0.40020 0.55550 0.05300
C 	C 	0.83340 0.03870 0.28730 0.06100
C 	C 	0.98100 0.33830 0.55550 0.09400
C 	C 	0.72660 0.05860 0.16470 0.04800
C 	C 	0.96160 0.03110 0.45090 0.06900
H 	H 	0.98070 0.01310 0.43480 -0.00900
C 	C 	0.71400 0.97410 0.17560 -0.12300
H 	H 	0.72560 0.94560 0.20240 0.09000
C 	C 	0.93110 0.29340 0.58560 0.10600
C 	C 	0.75920 0.10390 0.19440 0.09000
C 	C 	0.67990 0.05030 0.09830 0.07600
H 	H 	0.66810 0.07660 0.07100 -0.00300
C 	C 	0.90730 0.30570 0.61880 0.06600
C 	C 	0.94100 0.13290 0.50090 0.04800
C 	C 	0.70880 0.09880 0.12510 -0.11600
H 	H 	0.71640 0.15760 0.11690 0.08500
C 	C 	0.03210 0.40870 0.52030 -0.12600
H 	H 	0.02220 0.37570 0.49420 0.08000
C 	C 	0.82340 0.95110 0.29710 -0.13300
H 	H 	0.80080 0.92290 0.28060 0.08300
C 	C 	0.80980 0.09340 0.25160 0.10300
C 	C 	0.80480 0.32600 0.21520 0.05300
C 	C 	0.85040 0.27610 0.64640 0.07900
H 	H 	0.82590 0.24700 0.64300 -0.01200
C 	C 	0.86710 0.07640 0.31180 -0.12400
H 	H 	0.87500 0.13660 0.30610 0.09300
C 	C 	0.84330 0.45440 0.24350 0.06200
H 	H 	0.86590 0.47800 0.26210 -0.01200
C 	C 	0.88860 0.02430 0.34430 0.08200
H 	H 	0.91200 0.04930 0.36050 -0.01100
C 	C 	0.06360 0.46470 0.52240 0.07700
H 	H 	0.07530 0.46980 0.49750 -0.00400
C 	C 	0.96870 0.10700 0.47710 -0.11400
H 	H 	0.99200 0.14110 0.47900 0.07100
C 	C 	0.90730 0.08140 0.49670 -0.11300
H 	H 	0.88780 0.09800 0.51240 0.07800
C 	C 	0.78620 0.47960 0.19380 0.06600
H 	H 	0.76830 0.52070 0.17690 -0.00800
C 	C 	0.79660 0.22620 0.21600 0.10900
C 	C 	0.91960 0.35960 0.65510 -0.12000
H 	H 	0.94380 0.39060 0.65890 0.08500
C 	C 	0.94680 0.21380 0.52970 0.09200
C 	C 	0.83790 0.36190 0.24170 -0.11500
H 	H 	0.85660 0.32240 0.25840 0.08200
C 	C 	0.90230 0.00690 0.46980 0.06500
H 	H 	0.87920 0.97210 0.46720 -0.01100
C 	C 	0.77890 0.38710 0.19050 -0.11400
H 	H 	0.75630 0.36490 0.17140 0.07800
C 	C 	0.89670 0.36860 0.68570 0.07300
H 	H 	0.90590 0.40490 0.71090 -0.01600
C 	C 	0.87180 0.26180 0.61490 -0.12100
H 	H 	0.86250 0.22260 0.59080 0.08700
C 	C 	0.06220 0.50220 0.59310 0.07800
H 	H 	0.07300 0.53470 0.61900 -0.01600
C 	C 	0.03070 0.44780 0.59360 -0.12400
H 	H 	0.02000 0.44250 0.61920 0.08700
I 	I 	0.97360 0.84890 0.37960 -0.02100
I 	I 	0.26808 0.75436 0.70883 -0.38000
I 	I 	0.37941 0.74187 0.94031 -0.38000
I 	I 	0.37450 0.83595 0.80409 -0.40600
I 	I 	0.60846 0.75843 0.10254 -0.38000
I 	I 	0.47597 0.66164 0.86850 -0.31900
I 	I 	0.64848 0.90252 0.99184 -0.37100
Zn	Zn	0.41674 0.62836 0.90347 1.16300
Zn	Zn	0.62586 0.90084 0.06384 1.16400
Zn	Zn	0.32974 0.84813 0.72913 1.16400
N 	N 	0.57860 0.98760 0.05850 -0.27300
N 	N 	0.37850 0.55870 0.85440 -0.27200
N 	N 	0.16770 0.53100 0.60840 -0.27100
N 	N 	0.31810 0.98670 0.72030 -0.26900
N 	N 	0.36190 0.17170 0.18150 -0.27700
N 	N 	0.27920 0.44780 0.72640 -0.14000
N 	N 	0.26660 0.30740 0.68770 -0.13900
N 	N 	0.42920 0.51900 0.94680 -0.26800
N 	N 	0.31970 0.32080 0.74740 -0.13700
N 	N 	0.47500 0.22770 0.02550 -0.14800
N 	N 	0.46000 0.14650 0.08590 -0.13400
C 	C 	0.18420 0.56880 0.64700 0.06700
H 	H 	0.17510 0.62640 0.65470 -0.00200
N 	N 	0.42440 0.27870 0.05930 -0.13600
C 	C 	0.34660 0.59520 0.83140 0.07600
H 	H 	0.33930 0.65490 0.83860 -0.01300
C 	C 	0.51470 0.09980 0.05550 0.05300
C 	C 	0.33340 0.46130 0.78730 0.06100
C 	C 	0.48100 0.16170 0.05550 0.09400
C 	C 	0.22660 0.44140 0.66470 0.04800
C 	C 	0.46160 0.46890 0.95090 0.06900
H 	H 	0.48070 0.48690 0.93480 -0.00900
C 	C 	0.21400 0.52590 0.67560 -0.12200
H 	H 	0.22560 0.55440 0.70240 0.09000
C 	C 	0.43110 0.20660 0.08560 0.10600
C 	C 	0.25920 0.39610 0.69440 0.09100
C 	C 	0.17990 0.44970 0.59830 0.07500
H 	H 	0.16810 0.42340 0.57100 -0.00200
C 	C 	0.40730 0.19430 0.11880 0.06600
C 	C 	0.44100 0.36710 0.00090 0.04800
C 	C 	0.20880 0.40120 0.62510 -0.11600
H 	H 	0.21640 0.34240 0.61690 0.08500
C 	C 	0.53210 0.09130 0.02030 -0.12600
H 	H 	0.52220 0.12430 0.99420 0.07900
C 	C 	0.32340 0.54890 0.79710 -0.13200
H 	H 	0.30080 0.57710 0.78060 0.08200
C 	C 	0.30980 0.40660 0.75160 0.10300
C 	C 	0.30480 0.17400 0.71520 0.05300
C 	C 	0.35040 0.22390 0.14640 0.07900
H 	H 	0.32590 0.25300 0.14300 -0.01200
C 	C 	0.36710 0.42360 0.81180 -0.12400
H 	H 	0.37500 0.36340 0.80610 0.09300
C 	C 	0.34330 0.04560 0.74350 0.06200
H 	H 	0.36590 0.02200 0.76210 -0.01200
C 	C 	0.38860 0.47570 0.84430 0.08200
H 	H 	0.41200 0.45070 0.86050 -0.01100
C 	C 	0.56360 0.03530 0.02240 0.07700
H 	H 	0.57530 0.03020 0.99750 -0.00500
C 	C 	0.46870 0.39300 0.97710 -0.11400
H 	H 	0.49200 0.35890 0.97900 0.07100
C 	C 	0.40730 0.41860 0.99670 -0.11400
H 	H 	0.38780 0.40200 0.01240 0.07800
C 	C 	0.28620 0.02040 0.69380 0.06500
H 	H 	0.26830 0.97930 0.67690 -0.00800
C 	C 	0.29660 0.27380 0.71600 0.10900
C 	C 	0.41960 0.14040 0.15510 -0.12000
H 	H 	0.44380 0.10940 0.15890 0.08500
C 	C 	0.44680 0.28620 0.02970 0.09200
C 	C 	0.33790 0.13810 0.74170 -0.11400
H 	H 	0.35660 0.17760 0.75840 0.08100
C 	C 	0.40230 0.49310 0.96980 0.06500
H 	H 	0.37920 0.52790 0.96720 -0.01100
C 	C 	0.27890 0.11290 0.69050 -0.11400
H 	H 	0.25630 0.13510 0.67140 0.07700
C 	C 	0.39670 0.13140 0.18570 0.07300
H 	H 	0.40590 0.09510 0.21090 -0.01600
C 	C 	0.37180 0.23820 0.11490 -0.12100
H 	H 	0.36250 0.27740 0.09080 0.08700
C 	C 	0.56220 0.99780 0.09310 0.07800
H 	H 	0.57300 0.96530 0.11900 -0.01600
C 	C 	0.53070 0.05220 0.09360 -0.12400
H 	H 	0.52000 0.05750 0.11920 0.08600
I 	I 	0.47360 0.65110 0.87960 -0.02100
I 	I 	0.76808 0.25436 0.70883 -0.38000
I 	I 	0.87941 0.24187 0.94031 -0.38000
I 	I 	0.87450 0.33595 0.80409 -0.40600
I 	I 	0.10846 0.25843 0.10254 -0.38000
I 	I 	0.97597 0.16164 0.86850 -0.31900
I 	I 	0.14848 0.40252 0.99184 -0.37100
Zn	Zn	0.91674 0.12836 0.90347 1.16300
Zn	Zn	0.12586 0.40084 0.06384 1.16500
Zn	Zn	0.82974 0.34813 0.72913 1.16400
N 	N 	0.07860 0.48760 0.05850 -0.27300
N 	N 	0.87850 0.05870 0.85440 -0.27200
N 	N 	0.66770 0.03100 0.60840 -0.27100
N 	N 	0.81810 0.48670 0.72030 -0.26900
N 	N 	0.86190 0.67170 0.18150 -0.27700
N 	N 	0.77920 0.94780 0.72640 -0.14000
N 	N 	0.76660 0.80740 0.68770 -0.13900
N 	N 	0.92920 0.01900 0.94680 -0.26900
N 	N 	0.81970 0.82080 0.74740 -0.13700
N 	N 	0.97500 0.72770 0.02550 -0.14800
N 	N 	0.96000 0.64650 0.08590 -0.13400
C 	C 	0.68420 0.06880 0.64700 0.06700
H 	H 	0.67510 0.12640 0.65470 -0.00200
N 	N 	0.92440 0.77870 0.05930 -0.13600
C 	C 	0.84660 0.09520 0.83140 0.07600
H 	H 	0.83930 0.15490 0.83860 -0.01300
C 	C 	0.01470 0.59980 0.05550 0.05300
C 	C 	0.83340 0.96130 0.78730 0.06100
C 	C 	0.98100 0.66170 0.05550 0.09400
C 	C 	0.72660 0.94140 0.66470 0.04800
C 	C 	0.96160 0.96890 0.95090 0.06900
H 	H 	0.98070 0.98690 0.93480 -0.00900
C 	C 	0.71400 0.02590 0.67560 -0.12200
H 	H 	0.72560 0.05440 0.70240 0.09000
C 	C 	0.93110 0.70660 0.08560 0.10600
C 	C 	0.75920 0.89610 0.69440 0.09100
C 	C 	0.67990 0.94970 0.59830 0.07500
H 	H 	0.66810 0.92340 0.57100 -0.00200
C 	C 	0.90730 0.69430 0.11880 0.06600
C 	C 	0.94100 0.86710 0.00090 0.04700
C 	C 	0.70880 0.90120 0.62510 -0.11600
H 	H 	0.71640 0.84240 0.61690 0.08500
C 	C 	0.03210 0.59130 0.02030 -0.12600
H 	H 	0.02220 0.62430 0.99420 0.08000
C 	C 	0.82340 0.04890 0.79710 -0.13300
H 	H 	0.80080 0.07710 0.78060 0.08300
C 	C 	0.80980 0.90660 0.75160 0.10300
C 	C 	0.80480 0.67400 0.71520 0.05300
C 	C 	0.85040 0.72390 0.14640 0.07900
H 	H 	0.82590 0.75300 0.14300 -0.01200
C 	C 	0.86710 0.92360 0.81180 -0.12400
H 	H 	0.87500 0.86340 0.80610 0.09300
C 	C 	0.84330 0.54560 0.74350 0.06200
H 	H 	0.86590 0.52200 0.76210 -0.01200
C 	C 	0.88860 0.97570 0.84430 0.08200
H 	H 	0.91200 0.95070 0.86050 -0.01100
C 	C 	0.06360 0.53530 0.02240 0.07700
H 	H 	0.07530 0.53020 0.99750 -0.00400
C 	C 	0.96870 0.89300 0.97710 -0.11300
H 	H 	0.99200 0.85890 0.97900 0.07100
C 	C 	0.90730 0.91860 0.99670 -0.11300
H 	H 	0.88780 0.90200 0.01240 0.07800
C 	C 	0.78620 0.52040 0.69380 0.06600
H 	H 	0.76830 0.47930 0.67690 -0.00800
C 	C 	0.79660 0.77380 0.71600 0.10900
C 	C 	0.91960 0.64040 0.15510 -0.12000
H 	H 	0.94380 0.60940 0.15890 0.08500
C 	C 	0.94680 0.78620 0.02970 0.09200
C 	C 	0.83790 0.63810 0.74170 -0.11500
H 	H 	0.85660 0.67760 0.75840 0.08200
C 	C 	0.90230 0.99310 0.96980 0.06500
H 	H 	0.87920 0.02790 0.96720 -0.01100
C 	C 	0.77890 0.61290 0.69050 -0.11400
H 	H 	0.75630 0.63510 0.67140 0.07800
C 	C 	0.89670 0.63140 0.18570 0.07300
H 	H 	0.90590 0.59510 0.21090 -0.01600
C 	C 	0.87180 0.73820 0.11490 -0.12100
H 	H 	0.86250 0.77740 0.09080 0.08700
C 	C 	0.06220 0.49780 0.09310 0.07800
H 	H 	0.07300 0.46530 0.11900 -0.01600
C 	C 	0.03070 0.55220 0.09360 -0.12400
H 	H 	0.02000 0.55750 0.11920 0.08700
I 	I 	0.97360 0.15110 0.87960 -0.02100
I 	I 	0.73192 0.24564 0.29117 -0.38000
I 	I 	0.62059 0.25813 0.05969 -0.38000
I 	I 	0.62550 0.16405 0.19591 -0.40600
I 	I 	0.39154 0.24157 0.89746 -0.38000
I 	I 	0.52403 0.33836 0.13150 -0.31900
I 	I 	0.35152 0.09748 0.00816 -0.37100
Zn	Zn	0.58326 0.37164 0.09653 1.16300
Zn	Zn	0.37414 0.09916 0.93616 1.16400
Zn	Zn	0.67026 0.15187 0.27087 1.16400
N 	N 	0.42140 0.01240 0.94150 -0.27300
N 	N 	0.62150 0.44130 0.14560 -0.27200
N 	N 	0.83230 0.46900 0.39160 -0.27100
N 	N 	0.68190 0.01330 0.27970 -0.26900
N 	N 	0.63810 0.82830 0.81850 -0.27700
N 	N 	0.72080 0.55220 0.27360 -0.14000
N 	N 	0.73340 0.69260 0.31230 -0.13900
N 	N 	0.57080 0.48100 0.05320 -0.26800
N 	N 	0.68030 0.67920 0.25260 -0.13700
N 	N 	0.52500 0.77230 0.97450 -0.14800
N 	N 	0.54000 0.85350 0.91410 -0.13400
C 	C 	0.81580 0.43120 0.35300 0.06700
H 	H 	0.82490 0.37360 0.34530 -0.00200
N 	N 	0.57560 0.72130 0.94070 -0.13600
C 	C 	0.65340 0.40480 0.16860 0.07600
H 	H 	0.66070 0.34510 0.16140 -0.01300
C 	C 	0.48530 0.90020 0.94450 0.05300
C 	C 	0.66660 0.53870 0.21270 0.06100
C 	C 	0.51900 0.83830 0.94450 0.09400
C 	C 	0.77340 0.55860 0.33530 0.04800
C 	C 	0.53840 0.53110 0.04910 0.06900
H 	H 	0.51930 0.51310 0.06520 -0.00900
C 	C 	0.78600 0.47410 0.32440 -0.12200
H 	H 	0.77440 0.44560 0.29760 0.09000
C 	C 	0.56890 0.79340 0.91440 0.10600
C 	C 	0.74080 0.60390 0.30560 0.09100
C 	C 	0.82010 0.55030 0.40170 0.07500
H 	H 	0.83190 0.57660 0.42900 -0.00200
C 	C 	0.59270 0.80570 0.88120 0.06600
C 	C 	0.55900 0.63290 0.99910 0.04800
C 	C 	0.79120 0.59880 0.37490 -0.11600
H 	H 	0.78360 0.65760 0.38310 0.08500
C 	C 	0.46790 0.90870 0.97970 -0.12600
H 	H 	0.47780 0.87570 0.00580 0.07900
C 	C 	0.67660 0.45110 0.20290 -0.13200
H 	H 	0.69920 0.42290 0.21940 0.08200
C 	C 	0.69020 0.59340 0.24840 0.10300
C 	C 	0.69520 0.82600 0.28480 0.05300
C 	C 	0.64960 0.77610 0.85360 0.07900
H 	H 	0.67410 0.74700 0.85700 -0.01200
C 	C 	0.63290 0.57640 0.18820 -0.12400
H 	H 	0.62500 0.63660 0.19390 0.09300
C 	C 	0.65670 0.95440 0.25650 0.06200
H 	H 	0.63410 0.97800 0.23790 -0.01200
C 	C 	0.61140 0.52430 0.15570 0.08200
H 	H 	0.58800 0.54930 0.13950 -0.01100
C 	C 	0.43640 0.96470 0.97760 0.07700
H 	H 	0.42470 0.96980 0.00250 -0.00500
C 	C 	0.53130 0.60700 0.02290 -0.11400
H 	H 	0.50800 0.64110 0.02100 0.07100
C 	C 	0.59270 0.58140 0.00330 -0.11400
H 	H 	0.61220 0.59800 0.98760 0.07800
C 	C 	0.71380 0.97960 0.30620 0.06500
H 	H 	0.73170 0.02070 0.32310 -0.00800
C 	C 	0.70340 0.72620 0.28400 0.10900
C 	C 	0.58040 0.85960 0.84490 -0.12000
H 	H 	0.55620 0.89060 0.84110 0.08500
C 	C 	0.55320 0.71380 0.97030 0.09200
C 	C 	0.66210 0.86190 0.25830 -0.11400
H 	H 	0.64340 0.82240 0.24160 0.08100
C 	C 	0.59770 0.50690 0.03020 0.06500
H 	H 	0.62080 0.47210 0.03280 -0.01100
C 	C 	0.72110 0.88710 0.30950 -0.11400
H 	H 	0.74370 0.86490 0.32860 0.07700
C 	C 	0.60330 0.86860 0.81430 0.07300
H 	H 	0.59410 0.90490 0.78910 -0.01600
C 	C 	0.62820 0.76180 0.88510 -0.12100
H 	H 	0.63750 0.72260 0.90920 0.08700
C 	C 	0.43780 0.00220 0.90690 0.07800
H 	H 	0.42700 0.03470 0.88100 -0.01600
C 	C 	0.46930 0.94780 0.90640 -0.12400
H 	H 	0.48000 0.94250 0.88080 0.08600
I 	I 	0.52640 0.34890 0.12040 -0.02100
I 	I 	0.23192 0.74564 0.29117 -0.38000
I 	I 	0.12059 0.75813 0.05969 -0.38000
I 	I 	0.12550 0.66405 0.19591 -0.40600
I 	I 	0.89154 0.74157 0.89746 -0.38000
I 	I 	0.02403 0.83836 0.13150 -0.31900
I 	I 	0.85152 0.59748 0.00816 -0.37100
Zn	Zn	0.08326 0.87164 0.09653 1.16300
Zn	Zn	0.87414 0.59916 0.93616 1.16500
Zn	Zn	0.17026 0.65187 0.27087 1.16400
N 	N 	0.92140 0.51240 0.94150 -0.27300
N 	N 	0.12150 0.94130 0.14560 -0.27200
N 	N 	0.33230 0.96900 0.39160 -0.27100
N 	N 	0.18190 0.51330 0.27970 -0.26900
N 	N 	0.13810 0.32830 0.81850 -0.27700
N 	N 	0.22080 0.05220 0.27360 -0.14000
N 	N 	0.23340 0.19260 0.31230 -0.13900
N 	N 	0.07080 0.98100 0.05320 -0.26900
N 	N 	0.18030 0.17920 0.25260 -0.13700
N 	N 	0.02500 0.27230 0.97450 -0.14800
N 	N 	0.04000 0.35350 0.91410 -0.13400
C 	C 	0.31580 0.93120 0.35300 0.06700
H 	H 	0.32490 0.87360 0.34530 -0.00200
N 	N 	0.07560 0.22130 0.94070 -0.13600
C 	C 	0.15340 0.90480 0.16860 0.07600
H 	H 	0.16070 0.84510 0.16140 -0.01300
C 	C 	0.98530 0.40020 0.94450 0.05300
C 	C 	0.16660 0.03870 0.21270 0.06100
C 	C 	0.01900 0.33830 0.94450 0.09400
C 	C 	0.27340 0.05860 0.33530 0.04800
C 	C 	0.03840 0.03110 0.04910 0.06900
H 	H 	0.01930 0.01310 0.06520 -0.00900
C 	C 	0.28600 0.97410 0.32440 -0.12200
H 	H 	0.27440 0.94560 0.29760 0.09000
C 	C 	0.06890 0.29340 0.91440 0.10600
C 	C 	0.24080 0.10390 0.30560 0.09100
C 	C 	0.32010 0.05030 0.40170 0.07500
H 	H 	0.33190 0.07660 0.42900 -0.00200
C 	C 	0.09270 0.30570 0.88120 0.06600
C 	C 	0.05900 0.13290 0.99910 0.04700
C 	C 	0.29120 0.09880 0.37490 -0.11600
H 	H 	0.28360 0.15760 0.38310 0.08500
C 	C 	0.96790 0.40870 0.97970 -0.12600
H 	H 	0.97780 0.37570 0.00580 0.08000
C 	C 	0.17660 0.95110 0.20290 -0.13300
H 	H 	0.19920 0.92290 0.21940 0.08300
C 	C 	0.19020 0.09340 0.24840 0.10300
C 	C 	0.19520 0.32600 0.28480 0.05300
C 	C 	0.14960 0.27610 0.85360 0.07900
H 	H 	0.17410 0.24700 0.85700 -0.01200
C 	C 	0.13290 0.07640 0.18820 -0.12400
H 	H 	0.12500 0.13660 0.19390 0.09300
C 	C 	0.15670 0.45440 0.25650 0.06200
H 	H 	0.13410 0.47800 0.23790 -0.01200
C 	C 	0.11140 0.02430 0.15570 0.08200
H 	H 	0.08800 0.04930 0.13950 -0.01100
C 	C 	0.93640 0.46470 0.97760 0.07700
H 	H 	0.92470 0.46980 0.00250 -0.00400
C 	C 	0.03130 0.10700 0.02290 -0.11300
H 	H 	0.00800 0.14110 0.02100 0.07100
C 	C 	0.09270 0.08140 0.00330 -0.11300
H 	H 	0.11220 0.09800 0.98760 0.07800
C 	C 	0.21380 0.47960 0.30620 0.06600
H 	H 	0.23170 0.52070 0.32310 -0.00800
C 	C 	0.20340 0.22620 0.28400 0.10900
C 	C 	0.08040 0.35960 0.84490 -0.12000
H 	H 	0.05620 0.39060 0.84110 0.08500
C 	C 	0.05320 0.21380 0.97030 0.09200
C 	C 	0.16210 0.36190 0.25830 -0.11500
H 	H 	0.14340 0.32240 0.24160 0.08200
C 	C 	0.09770 0.00690 0.03020 0.06500
H 	H 	0.12080 0.97210 0.03280 -0.01100
C 	C 	0.22110 0.38710 0.30950 -0.11400
H 	H 	0.24370 0.36490 0.32860 0.07800
C 	C 	0.10330 0.36860 0.81430 0.07300
H 	H 	0.09410 0.40490 0.78910 -0.01600
C 	C 	0.12820 0.26180 0.88510 -0.12100
H 	H 	0.13750 0.22260 0.90920 0.08700
C 	C 	0.93780 0.50220 0.90690 0.07800
H 	H 	0.92700 0.53470 0.88100 -0.01600
C 	C 	0.96930 0.44780 0.90640 -0.12400
H 	H 	0.98000 0.44250 0.88080 0.08700
I 	I 	0.02640 0.84890 0.12040 -0.02100
I 	I 	0.73192 0.75436 0.79117 -0.38000
I 	I 	0.62059 0.74187 0.55969 -0.38000
I 	I 	0.62550 0.83595 0.69591 -0.40600
I 	I 	0.39154 0.75843 0.39746 -0.38000
I 	I 	0.52403 0.66164 0.63150 -0.31900
I 	I 	0.35152 0.90252 0.50816 -0.37100
Zn	Zn	0.58326 0.62836 0.59653 1.16300
Zn	Zn	0.37414 0.90084 0.43616 1.16500
Zn	Zn	0.67026 0.84813 0.77087 1.16400
N 	N 	0.42140 0.98760 0.44150 -0.27300
N 	N 	0.62150 0.55870 0.64560 -0.27200
N 	N 	0.83230 0.53100 0.89160 -0.27100
N 	N 	0.68190 0.98670 0.77970 -0.26900
N 	N 	0.63810 0.17170 0.31850 -0.27700
N 	N 	0.72080 0.44780 0.77360 -0.14000
N 	N 	0.73340 0.30740 0.81230 -0.13900
N 	N 	0.57080 0.51900 0.55320 -0.26800
N 	N 	0.68030 0.32080 0.75260 -0.13700
N 	N 	0.52500 0.22770 0.47450 -0.14800
N 	N 	0.54000 0.14650 0.41410 -0.13400
C 	C 	0.81580 0.56880 0.85300 0.06700
H 	H 	0.82490 0.62640 0.84530 -0.00200
N 	N 	0.57560 0.27870 0.44070 -0.13600
C 	C 	0.65340 0.59520 0.66860 0.07600
H 	H 	0.66070 0.65490 0.66140 -0.01300
C 	C 	0.48530 0.09980 0.44450 0.05300
C 	C 	0.66660 0.46130 0.71270 0.06100
C 	C 	0.51900 0.16170 0.44450 0.09400
C 	C 	0.77340 0.44140 0.83530 0.04800
C 	C 	0.53840 0.46890 0.54910 0.06900
H 	H 	0.51930 0.48690 0.56520 -0.00900
C 	C 	0.78600 0.52590 0.82440 -0.12200
H 	H 	0.77440 0.55440 0.79760 0.09000
C 	C 	0.56890 0.20660 0.41440 0.10600
C 	C 	0.74080 0.39610 0.80560 0.09100
C 	C 	0.82010 0.44970 0.90170 0.07500
H 	H 	0.83190 0.42340 0.92900 -0.00200
C 	C 	0.59270 0.19430 0.38120 0.06600
C 	C 	0.55900 0.36710 0.49910 0.04800
C 	C 	0.79120 0.40120 0.87490 -0.11600
H 	H 	0.78360 0.34240 0.88310 0.08500
C 	C 	0.46790 0.09130 0.47970 -0.12600
H 	H 	0.47780 0.12430 0.50580 0.08000
C 	C 	0.67660 0.54890 0.70290 -0.13200
H 	H 	0.69920 0.57710 0.71940 0.08200
C 	C 	0.69020 0.40660 0.74840 0.10300
C 	C 	0.69520 0.17400 0.78480 0.05300
C 	C 	0.64960 0.22390 0.35360 0.07900
H 	H 	0.67410 0.25300 0.35700 -0.01200
C 	C 	0.63290 0.42360 0.68820 -0.12400
H 	H 	0.62500 0.36340 0.69390 0.09300
C 	C 	0.65670 0.04560 0.75650 0.06200
H 	H 	0.63410 0.02200 0.73790 -0.01200
C 	C 	0.61140 0.47570 0.65570 0.08200
H 	H 	0.58800 0.45070 0.63950 -0.01100
C 	C 	0.43640 0.03530 0.47760 0.07700
H 	H 	0.42470 0.03020 0.50250 -0.00400
C 	C 	0.53130 0.39300 0.52290 -0.11400
H 	H 	0.50800 0.35890 0.52100 0.07100
C 	C 	0.59270 0.41860 0.50330 -0.11300
H 	H 	0.61220 0.40200 0.48760 0.07800
C 	C 	0.71380 0.02040 0.80620 0.06500
H 	H 	0.73170 0.97930 0.82310 -0.00800
C 	C 	0.70340 0.27380 0.78400 0.10900
C 	C 	0.58040 0.14040 0.34490 -0.12000
H 	H 	0.55620 0.10940 0.34110 0.08500
C 	C 	0.55320 0.28620 0.47030 0.09200
C 	C 	0.66210 0.13810 0.75830 -0.11400
H 	H 	0.64340 0.17760 0.74160 0.08100
C 	C 	0.59770 0.49310 0.53020 0.06500
H 	H 	0.62080 0.52790 0.53280 -0.01100
C 	C 	0.72110 0.11290 0.80950 -0.11400
H 	H 	0.74370 0.13510 0.82860 0.07700
C 	C 	0.60330 0.13140 0.31430 0.07300
H 	H 	0.59410 0.09510 0.28910 -0.01600
C 	C 	0.62820 0.23820 0.38510 -0.12100
H 	H 	0.63750 0.27740 0.40920 0.08700
C 	C 	0.43780 0.99780 0.40690 0.07800
H 	H 	0.42700 0.96530 0.38100 -0.01600
C 	C 	0.46930 0.05220 0.40640 -0.12400
H 	H 	0.48000 0.05750 0.38080 0.08700
I 	I 	0.52640 0.65110 0.62040 -0.02100
I 	I 	0.23192 0.25436 0.79117 -0.38000
I 	I 	0.12059 0.24187 0.55969 -0.38000
I 	I 	0.12550 0.33595 0.69591 -0.40600
I 	I 	0.89154 0.25843 0.39746 -0.38000
I 	I 	0.02403 0.16164 0.63150 -0.31900
I 	I 	0.85152 0.40252 0.50816 -0.37100
Zn	Zn	0.08326 0.12836 0.59653 1.16300
Zn	Zn	0.87414 0.40084 0.43616 1.16500
Zn	Zn	0.17026 0.34813 0.77087 1.16400
N 	N 	0.92140 0.48760 0.44150 -0.27300
N 	N 	0.12150 0.05870 0.64560 -0.27200
N 	N 	0.33230 0.03100 0.89160 -0.27100
N 	N 	0.18190 0.48670 0.77970 -0.26900
N 	N 	0.13810 0.67170 0.31850 -0.27700
N 	N 	0.22080 0.94780 0.77360 -0.14000
N 	N 	0.23340 0.80740 0.81230 -0.13900
N 	N 	0.07080 0.01900 0.55320 -0.26800
N 	N 	0.18030 0.82080 0.75260 -0.13700
N 	N 	0.02500 0.72770 0.47450 -0.14800
N 	N 	0.04000 0.64650 0.41410 -0.13400
C 	C 	0.31580 0.06880 0.85300 0.06700
H 	H 	0.32490 0.12640 0.84530 -0.00200
N 	N 	0.07560 0.77870 0.44070 -0.13600
C 	C 	0.15340 0.09520 0.66860 0.07600
H 	H 	0.16070 0.15490 0.66140 -0.01300
C 	C 	0.98530 0.59980 0.44450 0.05300
C 	C 	0.16660 0.96130 0.71270 0.06100
C 	C 	0.01900 0.66170 0.44450 0.09400
C 	C 	0.27340 0.94140 0.83530 0.04800
C 	C 	0.03840 0.96890 0.54910 0.06900
H 	H 	0.01930 0.98690 0.56520 -0.00900
C 	C 	0.28600 0.02590 0.82440 -0.12300
H 	H 	0.27440 0.05440 0.79760 0.09000
C 	C 	0.06890 0.70660 0.41440 0.10600
C 	C 	0.24080 0.89610 0.80560 0.09000
C 	C 	0.32010 0.94970 0.90170 0.07600
H 	H 	0.33190 0.92340 0.92900 -0.00300
C 	C 	0.09270 0.69430 0.38120 0.06600
C 	C 	0.05900 0.86710 0.49910 0.04800
C 	C 	0.29120 0.90120 0.87490 -0.11600
H 	H 	0.28360 0.84240 0.88310 0.08500
C 	C 	0.96790 0.59130 0.47970 -0.12600
H 	H 	0.97780 0.62430 0.50580 0.08000
C 	C 	0.17660 0.04890 0.70290 -0.13300
H 	H 	0.19920 0.07710 0.71940 0.08300
C 	C 	0.19020 0.90660 0.74840 0.10300
C 	C 	0.19520 0.67400 0.78480 0.05300
C 	C 	0.14960 0.72390 0.35360 0.07900
H 	H 	0.17410 0.75300 0.35700 -0.01200
C 	C 	0.13290 0.92360 0.68820 -0.12400
H 	H 	0.12500 0.86340 0.69390 0.09300
C 	C 	0.15670 0.54560 0.75650 0.06200
H 	H 	0.13410 0.52200 0.73790 -0.01200
C 	C 	0.11140 0.97570 0.65570 0.08200
H 	H 	0.08800 0.95070 0.63950 -0.01100
C 	C 	0.93640 0.53530 0.47760 0.07700
H 	H 	0.92470 0.53020 0.50250 -0.00400
C 	C 	0.03130 0.89300 0.52290 -0.11400
H 	H 	0.00800 0.85890 0.52100 0.07100
C 	C 	0.09270 0.91860 0.50330 -0.11300
H 	H 	0.11220 0.90200 0.48760 0.07800
C 	C 	0.21380 0.52040 0.80620 0.06600
H 	H 	0.23170 0.47930 0.82310 -0.00800
C 	C 	0.20340 0.77380 0.78400 0.10900
C 	C 	0.08040 0.64040 0.34490 -0.12000
H 	H 	0.05620 0.60940 0.34110 0.08500
C 	C 	0.05320 0.78620 0.47030 0.09200
C 	C 	0.16210 0.63810 0.75830 -0.11500
H 	H 	0.14340 0.67760 0.74160 0.08200
C 	C 	0.09770 0.99310 0.53020 0.06500
H 	H 	0.12080 0.02790 0.53280 -0.01100
C 	C 	0.22110 0.61290 0.80950 -0.11400
H 	H 	0.24370 0.63510 0.82860 0.07800
C 	C 	0.10330 0.63140 0.31430 0.07300
H 	H 	0.09410 0.59510 0.28910 -0.01600
C 	C 	0.12820 0.73820 0.38510 -0.12100
H 	H 	0.13750 0.77740 0.40920 0.08700
C 	C 	0.93780 0.49780 0.40690 0.07800
H 	H 	0.92700 0.46530 0.38100 -0.01600
C 	C 	0.96930 0.55220 0.40640 -0.12400
H 	H 	0.98000 0.55750 0.38080 0.08700
I 	I 	0.02640 0.15110 0.62040 -0.02100
