data_crystal

_cell_length_a 35.25470
_cell_length_b 14.76280
_cell_length_c 31.04050
_cell_angle_alpha 90.00000
_cell_angle_beta  101.84100
_cell_angle_gamma 90.00000

_symmetry_space_group_name_	'P 1'
_symmetry_space_group_name_H-M	'P 1'

loop_
_symmetry_equiv_pos_as_xyz
  x,y,z

loop_
_atom_site_label
_atom_site_type_symbol
_atom_site_fract_x
_atom_site_fract_y
_atom_site_fract_z
_atom_site_charge
I 	I 	0.52356 0.85047 0.63271 -0.35000
I 	I 	0.73416 0.26022 0.29670 -0.37800
I 	I 	0.61628 0.75781 0.56048 -0.37800
I 	I 	0.62872 0.33050 0.19743 -0.40100
I 	I 	0.88980 0.24163 0.40066 -0.38000
I 	I 	0.85267 0.09115 0.51025 -0.36500
Zn	Zn	0.58058 0.87541 0.59557 1.16600
Zn	Zn	0.87375 0.09653 0.43672 1.16500
Zn	Zn	0.67233 0.35097 0.27300 1.16400
N 	N 	0.68380 0.48890 0.27870 -0.27300
N 	N 	0.83210 0.03000 0.39200 -0.27700
N 	N 	0.72070 0.94680 0.27160 -0.14000
N 	N 	0.68070 0.81960 0.25050 -0.13500
N 	N 	0.61950 0.05580 0.14300 -0.27600
N 	N 	0.63950 0.33420 0.32010 -0.28100
N 	N 	0.56740 0.97970 0.55010 -0.27100
N 	N 	0.52230 0.27050 0.47150 -0.14700
N 	N 	0.73420 0.80840 0.31040 -0.13800
N 	N 	0.42040 0.51110 0.44060 -0.28000
N 	N 	0.53810 0.35250 0.41190 -0.13400
N 	N 	0.57420 0.22060 0.43850 -0.13500
C 	C 	0.55670 0.13220 0.49600 0.05800
C 	C 	0.61060 0.97230 0.15390 0.09000
H 	H 	0.58790 0.94680 0.13810 -0.01300
C 	C 	0.77330 0.94130 0.33460 0.06400
C 	C 	0.66600 0.95830 0.21040 0.07100
C 	C 	0.69070 0.90590 0.24650 0.10000
C 	C 	0.55130 0.21210 0.46650 0.08800
C 	C 	0.74120 0.89610 0.30390 0.08400
C 	C 	0.51720 0.33640 0.44190 0.09000
C 	C 	0.67620 0.04640 0.20000 -0.14200
H 	H 	0.69860 0.07370 0.21560 0.08700
C 	C 	0.70440 0.77350 0.28140 0.10400
C 	C 	0.64990 0.27960 0.35530 0.08600
H 	H 	0.67390 0.25090 0.35930 -0.01500
C 	C 	0.63270 0.92110 0.18690 -0.13900
H 	H 	0.62520 0.86290 0.19290 0.10100
C 	C 	0.65210 0.09150 0.16590 0.08100
H 	H 	0.65910 0.14950 0.15870 -0.01200
C 	C 	0.65890 0.54680 0.25390 0.07200
H 	H 	0.63710 0.52340 0.23510 -0.01500
C 	C 	0.59170 0.30800 0.38060 0.07700
C 	C 	0.56690 0.29300 0.41210 0.10100
C 	C 	0.71520 0.52350 0.30530 0.07900
H 	H 	0.73280 0.48410 0.32220 -0.01400
C 	C 	0.43740 0.46610 0.47690 0.09300
H 	H 	0.42770 0.47400 0.50230 -0.01100
C 	C 	0.69670 0.67480 0.28280 0.06400
C 	C 	0.58760 0.07310 0.49710 -0.12900
H 	H 	0.60530 0.08400 0.47930 0.08700
C 	C 	0.48390 0.39820 0.44210 0.06600
C 	C 	0.78430 0.02740 0.32650 -0.14800
H 	H 	0.77160 0.05750 0.30130 0.10100
C 	C 	0.58110 0.36480 0.34450 -0.14000
H 	H 	0.55760 0.39540 0.33990 0.09300
C 	C 	0.79190 0.89970 0.37290 -0.13100
H 	H 	0.78490 0.84170 0.38000 0.09200
C 	C 	0.81340 0.06930 0.35460 0.08600
H 	H 	0.82070 0.12730 0.34790 -0.00900
C 	C 	0.53060 0.11090 0.52250 -0.12500
H 	H 	0.50920 0.14780 0.52250 0.07700
C 	C 	0.82160 0.94630 0.40070 0.07900
H 	H 	0.83450 0.91800 0.42630 -0.00300
C 	C 	0.66440 0.63790 0.25510 -0.13100
H 	H 	0.64650 0.67560 0.23740 0.08900
C 	C 	0.53650 0.03520 0.54860 0.07200
H 	H 	0.51870 0.02150 0.56600 -0.00900
C 	C 	0.62760 0.26440 0.38490 -0.13600
H 	H 	0.63610 0.22490 0.40820 0.09400
C 	C 	0.72230 0.61460 0.30850 -0.13300
H 	H 	0.74420 0.63640 0.32780 0.08500
C 	C 	0.60520 0.37570 0.31600 0.09100
H 	H 	0.59740 0.41440 0.29220 -0.02300
C 	C 	0.59220 0.99910 0.52420 0.07700
H 	H 	0.61330 0.96120 0.52460 -0.01600
C 	C 	0.46810 0.40950 0.47870 -0.14600
H 	H 	0.47830 0.37850 0.50450 0.08900
C 	C 	0.43530 0.49950 0.40530 0.09100
H 	H 	0.42440 0.53130 0.37990 -0.02200
C 	C 	0.46630 0.44250 0.40390 -0.14100
H 	H 	0.47520 0.43430 0.37790 0.09400
I 	I 	0.02356 0.35047 0.63271 -0.35100
I 	I 	0.23416 0.76022 0.29670 -0.37900
I 	I 	0.11628 0.25781 0.56048 -0.37900
I 	I 	0.12872 0.83050 0.19743 -0.40200
I 	I 	0.38980 0.74163 0.40066 -0.38100
I 	I 	0.35267 0.59115 0.51025 -0.36600
Zn	Zn	0.08058 0.37541 0.59557 1.16600
Zn	Zn	0.37375 0.59653 0.43672 1.16500
Zn	Zn	0.17233 0.85097 0.27300 1.16400
N 	N 	0.18380 0.98890 0.27870 -0.27300
N 	N 	0.33210 0.53000 0.39200 -0.27700
N 	N 	0.22070 0.44680 0.27160 -0.14000
N 	N 	0.18070 0.31960 0.25050 -0.13500
N 	N 	0.11950 0.55580 0.14300 -0.27600
N 	N 	0.13950 0.83420 0.32010 -0.28100
N 	N 	0.06740 0.47970 0.55010 -0.27100
N 	N 	0.02230 0.77050 0.47150 -0.14700
N 	N 	0.23420 0.30840 0.31040 -0.13800
N 	N 	0.92040 0.01110 0.44060 -0.28000
N 	N 	0.03810 0.85250 0.41190 -0.13400
N 	N 	0.07420 0.72060 0.43850 -0.13500
C 	C 	0.05670 0.63220 0.49600 0.05800
C 	C 	0.11060 0.47230 0.15390 0.09000
H 	H 	0.08790 0.44680 0.13810 -0.01300
C 	C 	0.27330 0.44130 0.33460 0.06400
C 	C 	0.16600 0.45830 0.21040 0.07100
C 	C 	0.19070 0.40590 0.24650 0.10000
C 	C 	0.05130 0.71210 0.46650 0.08800
C 	C 	0.24120 0.39610 0.30390 0.08400
C 	C 	0.01720 0.83640 0.44190 0.09000
C 	C 	0.17620 0.54640 0.20000 -0.14200
H 	H 	0.19860 0.57370 0.21560 0.08700
C 	C 	0.20440 0.27350 0.28140 0.10400
C 	C 	0.14990 0.77960 0.35530 0.08600
H 	H 	0.17390 0.75090 0.35930 -0.01500
C 	C 	0.13270 0.42110 0.18690 -0.13900
H 	H 	0.12520 0.36290 0.19290 0.10100
C 	C 	0.15210 0.59150 0.16590 0.08100
H 	H 	0.15910 0.64950 0.15870 -0.01200
C 	C 	0.15890 0.04680 0.25390 0.07200
H 	H 	0.13710 0.02340 0.23510 -0.01500
C 	C 	0.09170 0.80800 0.38060 0.07700
C 	C 	0.06690 0.79300 0.41210 0.10100
C 	C 	0.21520 0.02350 0.30530 0.07900
H 	H 	0.23280 0.98410 0.32220 -0.01400
C 	C 	0.93740 0.96610 0.47690 0.09300
H 	H 	0.92770 0.97400 0.50230 -0.01100
C 	C 	0.19670 0.17480 0.28280 0.06400
C 	C 	0.08760 0.57310 0.49710 -0.12900
H 	H 	0.10530 0.58400 0.47930 0.08700
C 	C 	0.98390 0.89820 0.44210 0.06600
C 	C 	0.28430 0.52740 0.32650 -0.14800
H 	H 	0.27160 0.55750 0.30130 0.10100
C 	C 	0.08110 0.86480 0.34450 -0.14000
H 	H 	0.05760 0.89540 0.33990 0.09300
C 	C 	0.29190 0.39970 0.37290 -0.13100
H 	H 	0.28490 0.34170 0.38000 0.09200
C 	C 	0.31340 0.56930 0.35460 0.08600
H 	H 	0.32070 0.62730 0.34790 -0.00900
C 	C 	0.03060 0.61090 0.52250 -0.12500
H 	H 	0.00920 0.64780 0.52250 0.07700
C 	C 	0.32160 0.44630 0.40070 0.07900
H 	H 	0.33450 0.41800 0.42630 -0.00300
C 	C 	0.16440 0.13790 0.25510 -0.13100
H 	H 	0.14650 0.17560 0.23740 0.08900
C 	C 	0.03650 0.53520 0.54860 0.07200
H 	H 	0.01870 0.52150 0.56600 -0.00900
C 	C 	0.12760 0.76440 0.38490 -0.13600
H 	H 	0.13610 0.72490 0.40820 0.09400
C 	C 	0.22230 0.11460 0.30850 -0.13300
H 	H 	0.24420 0.13640 0.32780 0.08500
C 	C 	0.10520 0.87570 0.31600 0.09100
H 	H 	0.09740 0.91440 0.29220 -0.02300
C 	C 	0.09220 0.49910 0.52420 0.07700
H 	H 	0.11330 0.46120 0.52460 -0.01600
C 	C 	0.96810 0.90950 0.47870 -0.14600
H 	H 	0.97830 0.87850 0.50450 0.08900
C 	C 	0.93530 0.99950 0.40530 0.09100
H 	H 	0.92440 0.03130 0.37990 -0.02200
C 	C 	0.96630 0.94250 0.40390 -0.14100
H 	H 	0.97520 0.93430 0.37790 0.09400
I 	I 	0.52356 0.14953 0.13271 -0.35100
I 	I 	0.73416 0.73978 0.79670 -0.37900
I 	I 	0.61628 0.24219 0.06048 -0.37900
I 	I 	0.62872 0.66950 0.69743 -0.40200
I 	I 	0.88980 0.75837 0.90066 -0.38100
I 	I 	0.85267 0.90885 0.01025 -0.36500
Zn	Zn	0.58058 0.12459 0.09557 1.16600
Zn	Zn	0.87375 0.90347 0.93672 1.16500
Zn	Zn	0.67233 0.64903 0.77300 1.16400
N 	N 	0.68380 0.51110 0.77870 -0.27300
N 	N 	0.83210 0.97000 0.89200 -0.27700
N 	N 	0.72070 0.05320 0.77160 -0.14000
N 	N 	0.68070 0.18040 0.75050 -0.13500
N 	N 	0.61950 0.94420 0.64300 -0.27600
N 	N 	0.63950 0.66580 0.82010 -0.28100
N 	N 	0.56740 0.02030 0.05010 -0.27100
N 	N 	0.52230 0.72950 0.97150 -0.14700
N 	N 	0.73420 0.19160 0.81040 -0.13800
N 	N 	0.42040 0.48890 0.94060 -0.28000
N 	N 	0.53810 0.64750 0.91190 -0.13400
N 	N 	0.57420 0.77940 0.93850 -0.13500
C 	C 	0.55670 0.86780 0.99600 0.05700
C 	C 	0.61060 0.02770 0.65390 0.09000
H 	H 	0.58790 0.05320 0.63810 -0.01300
C 	C 	0.77330 0.05870 0.83460 0.06400
C 	C 	0.66600 0.04170 0.71040 0.07100
C 	C 	0.69070 0.09410 0.74650 0.10000
C 	C 	0.55130 0.78790 0.96650 0.08800
C 	C 	0.74120 0.10390 0.80390 0.08400
C 	C 	0.51720 0.66360 0.94190 0.09000
C 	C 	0.67620 0.95360 0.70000 -0.14200
H 	H 	0.69860 0.92630 0.71560 0.08700
C 	C 	0.70440 0.22650 0.78140 0.10400
C 	C 	0.64990 0.72040 0.85530 0.08600
H 	H 	0.67390 0.74910 0.85930 -0.01500
C 	C 	0.63270 0.07890 0.68690 -0.13900
H 	H 	0.62520 0.13710 0.69290 0.10100
C 	C 	0.65210 0.90850 0.66590 0.08100
H 	H 	0.65910 0.85050 0.65870 -0.01200
C 	C 	0.65890 0.45320 0.75390 0.07200
H 	H 	0.63710 0.47660 0.73510 -0.01500
C 	C 	0.59170 0.69200 0.88060 0.07700
C 	C 	0.56690 0.70700 0.91210 0.10100
C 	C 	0.71520 0.47650 0.80530 0.07900
H 	H 	0.73280 0.51590 0.82220 -0.01400
C 	C 	0.43740 0.53390 0.97690 0.09300
H 	H 	0.42770 0.52600 0.00230 -0.01100
C 	C 	0.69670 0.32520 0.78280 0.06400
C 	C 	0.58760 0.92690 0.99710 -0.12900
H 	H 	0.60530 0.91600 0.97930 0.08600
C 	C 	0.48390 0.60180 0.94210 0.06600
C 	C 	0.78430 0.97260 0.82650 -0.14800
H 	H 	0.77160 0.94250 0.80130 0.10100
C 	C 	0.58110 0.63520 0.84450 -0.14000
H 	H 	0.55760 0.60460 0.83990 0.09300
C 	C 	0.79190 0.10030 0.87290 -0.13100
H 	H 	0.78490 0.15830 0.88000 0.09200
C 	C 	0.81340 0.93070 0.85460 0.08600
H 	H 	0.82070 0.87270 0.84790 -0.00900
C 	C 	0.53060 0.88910 0.02250 -0.12500
H 	H 	0.50920 0.85220 0.02250 0.07700
C 	C 	0.82160 0.05370 0.90070 0.08000
H 	H 	0.83450 0.08200 0.92630 -0.00300
C 	C 	0.66440 0.36210 0.75510 -0.13100
H 	H 	0.64650 0.32440 0.73740 0.08900
C 	C 	0.53650 0.96480 0.04860 0.07200
H 	H 	0.51870 0.97850 0.06600 -0.00900
C 	C 	0.62760 0.73560 0.88490 -0.13600
H 	H 	0.63610 0.77510 0.90820 0.09400
C 	C 	0.72230 0.38540 0.80850 -0.13300
H 	H 	0.74420 0.36360 0.82780 0.08500
C 	C 	0.60520 0.62430 0.81600 0.09100
H 	H 	0.59740 0.58560 0.79220 -0.02300
C 	C 	0.59220 0.00090 0.02420 0.07700
H 	H 	0.61330 0.03880 0.02460 -0.01600
C 	C 	0.46810 0.59050 0.97870 -0.14600
H 	H 	0.47830 0.62150 0.00450 0.08900
C 	C 	0.43530 0.50050 0.90530 0.09100
H 	H 	0.42440 0.46870 0.87990 -0.02200
C 	C 	0.46630 0.55750 0.90390 -0.14100
H 	H 	0.47520 0.56570 0.87790 0.09400
I 	I 	0.02356 0.64953 0.13271 -0.35100
I 	I 	0.23416 0.23978 0.79670 -0.37900
I 	I 	0.11628 0.74219 0.06048 -0.37900
I 	I 	0.12872 0.16950 0.69743 -0.40200
I 	I 	0.38980 0.25837 0.90066 -0.38100
I 	I 	0.35267 0.40885 0.01025 -0.36600
Zn	Zn	0.08058 0.62459 0.09557 1.16600
Zn	Zn	0.37375 0.40347 0.93672 1.16500
Zn	Zn	0.17233 0.14903 0.77300 1.16400
N 	N 	0.18380 0.01110 0.77870 -0.27300
N 	N 	0.33210 0.47000 0.89200 -0.27700
N 	N 	0.22070 0.55320 0.77160 -0.14000
N 	N 	0.18070 0.68040 0.75050 -0.13500
N 	N 	0.11950 0.44420 0.64300 -0.27600
N 	N 	0.13950 0.16580 0.82010 -0.28100
N 	N 	0.06740 0.52030 0.05010 -0.27100
N 	N 	0.02230 0.22950 0.97150 -0.14700
N 	N 	0.23420 0.69160 0.81040 -0.13800
N 	N 	0.92040 0.98890 0.94060 -0.28100
N 	N 	0.03810 0.14750 0.91190 -0.13400
N 	N 	0.07420 0.27940 0.93850 -0.13500
C 	C 	0.05670 0.36780 0.99600 0.05800
C 	C 	0.11060 0.52770 0.65390 0.09000
H 	H 	0.08790 0.55320 0.63810 -0.01300
C 	C 	0.27330 0.55870 0.83460 0.06400
C 	C 	0.16600 0.54170 0.71040 0.07100
C 	C 	0.19070 0.59410 0.74650 0.10000
C 	C 	0.05130 0.28790 0.96650 0.08800
C 	C 	0.24120 0.60390 0.80390 0.08400
C 	C 	0.01720 0.16360 0.94190 0.09000
C 	C 	0.17620 0.45360 0.70000 -0.14200
H 	H 	0.19860 0.42630 0.71560 0.08700
C 	C 	0.20440 0.72650 0.78140 0.10400
C 	C 	0.14990 0.22040 0.85530 0.08600
H 	H 	0.17390 0.24910 0.85930 -0.01500
C 	C 	0.13270 0.57890 0.68690 -0.13900
H 	H 	0.12520 0.63710 0.69290 0.10100
C 	C 	0.15210 0.40850 0.66590 0.08100
H 	H 	0.15910 0.35050 0.65870 -0.01200
C 	C 	0.15890 0.95320 0.75390 0.07200
H 	H 	0.13710 0.97660 0.73510 -0.01500
C 	C 	0.09170 0.19200 0.88060 0.07700
C 	C 	0.06690 0.20700 0.91210 0.10100
C 	C 	0.21520 0.97650 0.80530 0.07900
H 	H 	0.23280 0.01590 0.82220 -0.01400
C 	C 	0.93740 0.03390 0.97690 0.09300
H 	H 	0.92770 0.02600 0.00230 -0.01200
C 	C 	0.19670 0.82520 0.78280 0.06400
C 	C 	0.08760 0.42690 0.99710 -0.12900
H 	H 	0.10530 0.41600 0.97930 0.08700
C 	C 	0.98390 0.10180 0.94210 0.06600
C 	C 	0.28430 0.47260 0.82650 -0.14800
H 	H 	0.27160 0.44250 0.80130 0.10100
C 	C 	0.08110 0.13520 0.84450 -0.14000
H 	H 	0.05760 0.10460 0.83990 0.09300
C 	C 	0.29190 0.60030 0.87290 -0.13100
H 	H 	0.28490 0.65830 0.88000 0.09200
C 	C 	0.31340 0.43070 0.85460 0.08600
H 	H 	0.32070 0.37270 0.84790 -0.00900
C 	C 	0.03060 0.38910 0.02250 -0.12600
H 	H 	0.00920 0.35220 0.02250 0.07700
C 	C 	0.32160 0.55370 0.90070 0.07900
H 	H 	0.33450 0.58200 0.92630 -0.00300
C 	C 	0.16440 0.86210 0.75510 -0.13000
H 	H 	0.14650 0.82440 0.73740 0.08900
C 	C 	0.03650 0.46480 0.04860 0.07200
H 	H 	0.01870 0.47850 0.06600 -0.00900
C 	C 	0.12760 0.23560 0.88490 -0.13600
H 	H 	0.13610 0.27510 0.90820 0.09400
C 	C 	0.22230 0.88540 0.80850 -0.13300
H 	H 	0.24420 0.86360 0.82780 0.08500
C 	C 	0.10520 0.12430 0.81600 0.09100
H 	H 	0.09740 0.08560 0.79220 -0.02300
C 	C 	0.09220 0.50090 0.02420 0.07700
H 	H 	0.11330 0.53880 0.02460 -0.01600
C 	C 	0.96810 0.09050 0.97870 -0.14600
H 	H 	0.97830 0.12150 0.00450 0.08900
C 	C 	0.93530 0.00050 0.90530 0.09100
H 	H 	0.92440 0.96870 0.87990 -0.02300
C 	C 	0.96630 0.05750 0.90390 -0.14100
H 	H 	0.97520 0.06570 0.87790 0.09400
I 	I 	0.47644 0.85047 0.86729 -0.35100
I 	I 	0.26584 0.26022 0.20330 -0.37900
I 	I 	0.38372 0.75781 0.93952 -0.37900
I 	I 	0.37128 0.33050 0.30257 -0.40200
I 	I 	0.11020 0.24163 0.09934 -0.38100
I 	I 	0.14733 0.09115 0.98975 -0.36500
Zn	Zn	0.41942 0.87541 0.90443 1.16600
Zn	Zn	0.12625 0.09653 0.06328 1.16500
Zn	Zn	0.32767 0.35097 0.22700 1.16400
N 	N 	0.31620 0.48890 0.22130 -0.27300
N 	N 	0.16790 0.03000 0.10800 -0.27700
N 	N 	0.27930 0.94680 0.22840 -0.14000
N 	N 	0.31930 0.81960 0.24950 -0.13500
N 	N 	0.38050 0.05580 0.35700 -0.27600
N 	N 	0.36050 0.33420 0.17990 -0.28100
N 	N 	0.43260 0.97970 0.94990 -0.27100
N 	N 	0.47770 0.27050 0.02850 -0.14700
N 	N 	0.26580 0.80840 0.18960 -0.13800
N 	N 	0.57960 0.51110 0.05940 -0.28000
N 	N 	0.46190 0.35250 0.08810 -0.13400
N 	N 	0.42580 0.22060 0.06150 -0.13500
C 	C 	0.44330 0.13220 0.00400 0.05700
C 	C 	0.38940 0.97230 0.34610 0.09000
H 	H 	0.41210 0.94680 0.36190 -0.01300
C 	C 	0.22670 0.94130 0.16540 0.06400
C 	C 	0.33400 0.95830 0.28960 0.07100
C 	C 	0.30930 0.90590 0.25350 0.10000
C 	C 	0.44870 0.21210 0.03350 0.08800
C 	C 	0.25880 0.89610 0.19610 0.08400
C 	C 	0.48280 0.33640 0.05810 0.09000
C 	C 	0.32380 0.04640 0.30000 -0.14200
H 	H 	0.30140 0.07370 0.28440 0.08700
C 	C 	0.29560 0.77350 0.21860 0.10400
C 	C 	0.35010 0.27960 0.14470 0.08600
H 	H 	0.32610 0.25090 0.14070 -0.01500
C 	C 	0.36730 0.92110 0.31310 -0.13900
H 	H 	0.37480 0.86290 0.30710 0.10100
C 	C 	0.34790 0.09150 0.33410 0.08100
H 	H 	0.34090 0.14950 0.34130 -0.01200
C 	C 	0.34110 0.54680 0.24610 0.07200
H 	H 	0.36290 0.52340 0.26490 -0.01500
C 	C 	0.40830 0.30800 0.11940 0.07700
C 	C 	0.43310 0.29300 0.08790 0.10100
C 	C 	0.28480 0.52350 0.19470 0.07900
H 	H 	0.26720 0.48410 0.17780 -0.01400
C 	C 	0.56260 0.46610 0.02310 0.09300
H 	H 	0.57230 0.47400 0.99770 -0.01100
C 	C 	0.30330 0.67480 0.21720 0.06400
C 	C 	0.41240 0.07310 0.00290 -0.12900
H 	H 	0.39470 0.08400 0.02070 0.08600
C 	C 	0.51610 0.39820 0.05790 0.06600
C 	C 	0.21570 0.02740 0.17350 -0.14800
H 	H 	0.22840 0.05750 0.19870 0.10100
C 	C 	0.41890 0.36480 0.15550 -0.14000
H 	H 	0.44240 0.39540 0.16010 0.09300
C 	C 	0.20810 0.89970 0.12710 -0.13100
H 	H 	0.21510 0.84170 0.12000 0.09200
C 	C 	0.18660 0.06930 0.14540 0.08600
H 	H 	0.17930 0.12730 0.15210 -0.00900
C 	C 	0.46940 0.11090 0.97750 -0.12500
H 	H 	0.49080 0.14780 0.97750 0.07700
C 	C 	0.17840 0.94630 0.09930 0.08000
H 	H 	0.16550 0.91800 0.07370 -0.00300
C 	C 	0.33560 0.63790 0.24490 -0.13100
H 	H 	0.35350 0.67560 0.26260 0.08900
C 	C 	0.46350 0.03520 0.95140 0.07200
H 	H 	0.48130 0.02150 0.93400 -0.00900
C 	C 	0.37240 0.26440 0.11510 -0.13600
H 	H 	0.36390 0.22490 0.09180 0.09400
C 	C 	0.27770 0.61460 0.19150 -0.13300
H 	H 	0.25580 0.63640 0.17220 0.08500
C 	C 	0.39480 0.37570 0.18400 0.09100
H 	H 	0.40260 0.41440 0.20780 -0.02300
C 	C 	0.40780 0.99910 0.97580 0.07700
H 	H 	0.38670 0.96120 0.97540 -0.01600
C 	C 	0.53190 0.40950 0.02130 -0.14600
H 	H 	0.52170 0.37850 0.99550 0.08900
C 	C 	0.56470 0.49950 0.09470 0.09100
H 	H 	0.57560 0.53130 0.12010 -0.02200
C 	C 	0.53370 0.44250 0.09610 -0.14100
H 	H 	0.52480 0.43430 0.12210 0.09400
I 	I 	0.97644 0.35047 0.86729 -0.35100
I 	I 	0.76584 0.76022 0.20330 -0.37900
I 	I 	0.88372 0.25781 0.93952 -0.37900
I 	I 	0.87128 0.83050 0.30257 -0.40200
I 	I 	0.61020 0.74163 0.09934 -0.38100
I 	I 	0.64733 0.59115 0.98975 -0.36600
Zn	Zn	0.91942 0.37541 0.90443 1.16600
Zn	Zn	0.62625 0.59653 0.06328 1.16500
Zn	Zn	0.82767 0.85097 0.22700 1.16400
N 	N 	0.81620 0.98890 0.22130 -0.27300
N 	N 	0.66790 0.53000 0.10800 -0.27700
N 	N 	0.77930 0.44680 0.22840 -0.14000
N 	N 	0.81930 0.31960 0.24950 -0.13500
N 	N 	0.88050 0.55580 0.35700 -0.27600
N 	N 	0.86050 0.83420 0.17990 -0.28100
N 	N 	0.93260 0.47970 0.94990 -0.27100
N 	N 	0.97770 0.77050 0.02850 -0.14700
N 	N 	0.76580 0.30840 0.18960 -0.13800
N 	N 	0.07960 0.01110 0.05940 -0.28100
N 	N 	0.96190 0.85250 0.08810 -0.13400
N 	N 	0.92580 0.72060 0.06150 -0.13500
C 	C 	0.94330 0.63220 0.00400 0.05800
C 	C 	0.88940 0.47230 0.34610 0.09000
H 	H 	0.91210 0.44680 0.36190 -0.01300
C 	C 	0.72670 0.44130 0.16540 0.06400
C 	C 	0.83400 0.45830 0.28960 0.07100
C 	C 	0.80930 0.40590 0.25350 0.10000
C 	C 	0.94870 0.71210 0.03350 0.08800
C 	C 	0.75880 0.39610 0.19610 0.08400
C 	C 	0.98280 0.83640 0.05810 0.09000
C 	C 	0.82380 0.54640 0.30000 -0.14200
H 	H 	0.80140 0.57370 0.28440 0.08700
C 	C 	0.79560 0.27350 0.21860 0.10400
C 	C 	0.85010 0.77960 0.14470 0.08600
H 	H 	0.82610 0.75090 0.14070 -0.01500
C 	C 	0.86730 0.42110 0.31310 -0.13900
H 	H 	0.87480 0.36290 0.30710 0.10100
C 	C 	0.84790 0.59150 0.33410 0.08100
H 	H 	0.84090 0.64950 0.34130 -0.01200
C 	C 	0.84110 0.04680 0.24610 0.07200
H 	H 	0.86290 0.02340 0.26490 -0.01500
C 	C 	0.90830 0.80800 0.11940 0.07700
C 	C 	0.93310 0.79300 0.08790 0.10100
C 	C 	0.78480 0.02350 0.19470 0.07900
H 	H 	0.76720 0.98410 0.17780 -0.01400
C 	C 	0.06260 0.96610 0.02310 0.09300
H 	H 	0.07230 0.97400 0.99770 -0.01200
C 	C 	0.80330 0.17480 0.21720 0.06400
C 	C 	0.91240 0.57310 0.00290 -0.12900
H 	H 	0.89470 0.58400 0.02070 0.08700
C 	C 	0.01610 0.89820 0.05790 0.06600
C 	C 	0.71570 0.52740 0.17350 -0.14800
H 	H 	0.72840 0.55750 0.19870 0.10100
C 	C 	0.91890 0.86480 0.15550 -0.14000
H 	H 	0.94240 0.89540 0.16010 0.09300
C 	C 	0.70810 0.39970 0.12710 -0.13100
H 	H 	0.71510 0.34170 0.12000 0.09200
C 	C 	0.68660 0.56930 0.14540 0.08600
H 	H 	0.67930 0.62730 0.15210 -0.00900
C 	C 	0.96940 0.61090 0.97750 -0.12600
H 	H 	0.99080 0.64780 0.97750 0.07700
C 	C 	0.67840 0.44630 0.09930 0.07900
H 	H 	0.66550 0.41800 0.07370 -0.00300
C 	C 	0.83560 0.13790 0.24490 -0.13000
H 	H 	0.85350 0.17560 0.26260 0.08900
C 	C 	0.96350 0.53520 0.95140 0.07200
H 	H 	0.98130 0.52150 0.93400 -0.00900
C 	C 	0.87240 0.76440 0.11510 -0.13600
H 	H 	0.86390 0.72490 0.09180 0.09400
C 	C 	0.77770 0.11460 0.19150 -0.13300
H 	H 	0.75580 0.13640 0.17220 0.08500
C 	C 	0.89480 0.87570 0.18400 0.09100
H 	H 	0.90260 0.91440 0.20780 -0.02300
C 	C 	0.90780 0.49910 0.97580 0.07700
H 	H 	0.88670 0.46120 0.97540 -0.01600
C 	C 	0.03190 0.90950 0.02130 -0.14600
H 	H 	0.02170 0.87850 0.99550 0.08900
C 	C 	0.06470 0.99950 0.09470 0.09100
H 	H 	0.07560 0.03130 0.12010 -0.02300
C 	C 	0.03370 0.94250 0.09610 -0.14100
H 	H 	0.02480 0.93430 0.12210 0.09400
I 	I 	0.47644 0.14953 0.36729 -0.35100
I 	I 	0.26584 0.73978 0.70330 -0.37900
I 	I 	0.38372 0.24219 0.43952 -0.37900
I 	I 	0.37128 0.66950 0.80257 -0.40200
I 	I 	0.11020 0.75837 0.59934 -0.38100
I 	I 	0.14733 0.90885 0.48975 -0.36600
Zn	Zn	0.41942 0.12459 0.40443 1.16600
Zn	Zn	0.12625 0.90347 0.56328 1.16500
Zn	Zn	0.32767 0.64903 0.72700 1.16400
N 	N 	0.31620 0.51110 0.72130 -0.27300
N 	N 	0.16790 0.97000 0.60800 -0.27700
N 	N 	0.27930 0.05320 0.72840 -0.14000
N 	N 	0.31930 0.18040 0.74950 -0.13500
N 	N 	0.38050 0.94420 0.85700 -0.27600
N 	N 	0.36050 0.66580 0.67990 -0.28100
N 	N 	0.43260 0.02030 0.44990 -0.27100
N 	N 	0.47770 0.72950 0.52850 -0.14700
N 	N 	0.26580 0.19160 0.68960 -0.13800
N 	N 	0.57960 0.48890 0.55940 -0.28000
N 	N 	0.46190 0.64750 0.58810 -0.13400
N 	N 	0.42580 0.77940 0.56150 -0.13500
C 	C 	0.44330 0.86780 0.50400 0.05800
C 	C 	0.38940 0.02770 0.84610 0.09000
H 	H 	0.41210 0.05320 0.86190 -0.01300
C 	C 	0.22670 0.05870 0.66540 0.06400
C 	C 	0.33400 0.04170 0.78960 0.07100
C 	C 	0.30930 0.09410 0.75350 0.10000
C 	C 	0.44870 0.78790 0.53350 0.08800
C 	C 	0.25880 0.10390 0.69610 0.08400
C 	C 	0.48280 0.66360 0.55810 0.09000
C 	C 	0.32380 0.95360 0.80000 -0.14200
H 	H 	0.30140 0.92630 0.78440 0.08700
C 	C 	0.29560 0.22650 0.71860 0.10400
C 	C 	0.35010 0.72040 0.64470 0.08600
H 	H 	0.32610 0.74910 0.64070 -0.01500
C 	C 	0.36730 0.07890 0.81310 -0.13900
H 	H 	0.37480 0.13710 0.80710 0.10100
C 	C 	0.34790 0.90850 0.83410 0.08100
H 	H 	0.34090 0.85050 0.84130 -0.01200
C 	C 	0.34110 0.45320 0.74610 0.07200
H 	H 	0.36290 0.47660 0.76490 -0.01500
C 	C 	0.40830 0.69200 0.61940 0.07700
C 	C 	0.43310 0.70700 0.58790 0.10100
C 	C 	0.28480 0.47650 0.69470 0.07900
H 	H 	0.26720 0.51590 0.67780 -0.01400
C 	C 	0.56260 0.53390 0.52310 0.09300
H 	H 	0.57230 0.52600 0.49770 -0.01100
C 	C 	0.30330 0.32520 0.71720 0.06400
C 	C 	0.41240 0.92690 0.50290 -0.12900
H 	H 	0.39470 0.91600 0.52070 0.08700
C 	C 	0.51610 0.60180 0.55790 0.06600
C 	C 	0.21570 0.97260 0.67350 -0.14800
H 	H 	0.22840 0.94250 0.69870 0.10100
C 	C 	0.41890 0.63520 0.65550 -0.14000
H 	H 	0.44240 0.60460 0.66010 0.09300
C 	C 	0.20810 0.10030 0.62710 -0.13100
H 	H 	0.21510 0.15830 0.62000 0.09200
C 	C 	0.18660 0.93070 0.64540 0.08600
H 	H 	0.17930 0.87270 0.65210 -0.00900
C 	C 	0.46940 0.88910 0.47750 -0.12500
H 	H 	0.49080 0.85220 0.47750 0.07700
C 	C 	0.17840 0.05370 0.59930 0.07900
H 	H 	0.16550 0.08200 0.57370 -0.00300
C 	C 	0.33560 0.36210 0.74490 -0.13100
H 	H 	0.35350 0.32440 0.76260 0.08900
C 	C 	0.46350 0.96480 0.45140 0.07200
H 	H 	0.48130 0.97850 0.43400 -0.00900
C 	C 	0.37240 0.73560 0.61510 -0.13600
H 	H 	0.36390 0.77510 0.59180 0.09400
C 	C 	0.27770 0.38540 0.69150 -0.13300
H 	H 	0.25580 0.36360 0.67220 0.08500
C 	C 	0.39480 0.62430 0.68400 0.09100
H 	H 	0.40260 0.58560 0.70780 -0.02300
C 	C 	0.40780 0.00090 0.47580 0.07700
H 	H 	0.38670 0.03880 0.47540 -0.01600
C 	C 	0.53190 0.59050 0.52130 -0.14600
H 	H 	0.52170 0.62150 0.49550 0.08900
C 	C 	0.56470 0.50050 0.59470 0.09100
H 	H 	0.57560 0.46870 0.62010 -0.02200
C 	C 	0.53370 0.55750 0.59610 -0.14100
H 	H 	0.52480 0.56570 0.62210 0.09400
I 	I 	0.97644 0.64953 0.36729 -0.35100
I 	I 	0.76584 0.23978 0.70330 -0.37900
I 	I 	0.88372 0.74219 0.43952 -0.37900
I 	I 	0.87128 0.16950 0.80257 -0.40200
I 	I 	0.61020 0.25837 0.59934 -0.38100
I 	I 	0.64733 0.40885 0.48975 -0.36600
Zn	Zn	0.91942 0.62459 0.40443 1.16600
Zn	Zn	0.62625 0.40347 0.56328 1.16500
Zn	Zn	0.82767 0.14903 0.72700 1.16400
N 	N 	0.81620 0.01110 0.72130 -0.27300
N 	N 	0.66790 0.47000 0.60800 -0.27700
N 	N 	0.77930 0.55320 0.72840 -0.14000
N 	N 	0.81930 0.68040 0.74950 -0.13500
N 	N 	0.88050 0.44420 0.85700 -0.27600
N 	N 	0.86050 0.16580 0.67990 -0.28100
N 	N 	0.93260 0.52030 0.44990 -0.27100
N 	N 	0.97770 0.22950 0.52850 -0.14700
N 	N 	0.76580 0.69160 0.68960 -0.13800
N 	N 	0.07960 0.98890 0.55940 -0.28000
N 	N 	0.96190 0.14750 0.58810 -0.13400
N 	N 	0.92580 0.27940 0.56150 -0.13500
C 	C 	0.94330 0.36780 0.50400 0.05800
C 	C 	0.88940 0.52770 0.84610 0.09000
H 	H 	0.91210 0.55320 0.86190 -0.01300
C 	C 	0.72670 0.55870 0.66540 0.06400
C 	C 	0.83400 0.54170 0.78960 0.07100
C 	C 	0.80930 0.59410 0.75350 0.10000
C 	C 	0.94870 0.28790 0.53350 0.08800
C 	C 	0.75880 0.60390 0.69610 0.08400
C 	C 	0.98280 0.16360 0.55810 0.09000
C 	C 	0.82380 0.45360 0.80000 -0.14200
H 	H 	0.80140 0.42630 0.78440 0.08700
C 	C 	0.79560 0.72650 0.71860 0.10400
C 	C 	0.85010 0.22040 0.64470 0.08600
H 	H 	0.82610 0.24910 0.64070 -0.01500
C 	C 	0.86730 0.57890 0.81310 -0.13900
H 	H 	0.87480 0.63710 0.80710 0.10100
C 	C 	0.84790 0.40850 0.83410 0.08100
H 	H 	0.84090 0.35050 0.84130 -0.01200
C 	C 	0.84110 0.95320 0.74610 0.07200
H 	H 	0.86290 0.97660 0.76490 -0.01500
C 	C 	0.90830 0.19200 0.61940 0.07700
C 	C 	0.93310 0.20700 0.58790 0.10100
C 	C 	0.78480 0.97650 0.69470 0.07900
H 	H 	0.76720 0.01590 0.67780 -0.01400
C 	C 	0.06260 0.03390 0.52310 0.09300
H 	H 	0.07230 0.02600 0.49770 -0.01100
C 	C 	0.80330 0.82520 0.71720 0.06400
C 	C 	0.91240 0.42690 0.50290 -0.12900
H 	H 	0.89470 0.41600 0.52070 0.08700
C 	C 	0.01610 0.10180 0.55790 0.06600
C 	C 	0.71570 0.47260 0.67350 -0.14800
H 	H 	0.72840 0.44250 0.69870 0.10100
C 	C 	0.91890 0.13520 0.65550 -0.14000
H 	H 	0.94240 0.10460 0.66010 0.09300
C 	C 	0.70810 0.60030 0.62710 -0.13100
H 	H 	0.71510 0.65830 0.62000 0.09200
C 	C 	0.68660 0.43070 0.64540 0.08600
H 	H 	0.67930 0.37270 0.65210 -0.00900
C 	C 	0.96940 0.38910 0.47750 -0.12500
H 	H 	0.99080 0.35220 0.47750 0.07700
C 	C 	0.67840 0.55370 0.59930 0.07900
H 	H 	0.66550 0.58200 0.57370 -0.00300
C 	C 	0.83560 0.86210 0.74490 -0.13100
H 	H 	0.85350 0.82440 0.76260 0.08900
C 	C 	0.96350 0.46480 0.45140 0.07200
H 	H 	0.98130 0.47850 0.43400 -0.00900
C 	C 	0.87240 0.23560 0.61510 -0.13600
H 	H 	0.86390 0.27510 0.59180 0.09400
C 	C 	0.77770 0.88540 0.69150 -0.13300
H 	H 	0.75580 0.86360 0.67220 0.08500
C 	C 	0.89480 0.12430 0.68400 0.09100
H 	H 	0.90260 0.08560 0.70780 -0.02300
C 	C 	0.90780 0.50090 0.47580 0.07700
H 	H 	0.88670 0.53880 0.47540 -0.01600
C 	C 	0.03190 0.09050 0.52130 -0.14600
H 	H 	0.02170 0.12150 0.49550 0.08900
C 	C 	0.06470 0.00050 0.59470 0.09100
H 	H 	0.07560 0.96870 0.62010 -0.02200
C 	C 	0.03370 0.05750 0.59610 -0.14100
H 	H 	0.02480 0.06570 0.62210 0.09400
