data_crystal

_cell_length_a 35.15020
_cell_length_b 14.61390
_cell_length_c 31.06550
_cell_angle_alpha 90.00000
_cell_angle_beta  101.30000
_cell_angle_gamma 90.00000

_symmetry_space_group_name_	'P 1'
_symmetry_space_group_name_H-M	'P 1'

loop_
_symmetry_equiv_pos_as_xyz
  x,y,z

loop_
_atom_site_label
_atom_site_type_symbol
_atom_site_fract_x
_atom_site_fract_y
_atom_site_fract_z
_atom_site_charge
I 	I 	0.26873 0.74622 0.20922 -0.38100
I 	I 	0.38024 0.75745 0.44071 -0.38000
I 	I 	0.37546 0.66382 0.30399 -0.40700
I 	I 	0.47586 0.83608 0.36847 -0.35400
I 	I 	0.64983 0.60216 0.49265 -0.37100
I 	I 	0.60799 0.74170 0.60394 -0.38000
Zn	Zn	0.41743 0.86936 0.40257 1.16400
Zn	Zn	0.33034 0.65213 0.22906 1.16200
Zn	Zn	0.62618 0.60104 0.56437 1.16400
N 	N 	0.36268 0.32750 0.68090 -0.28000
N 	N 	0.31860 0.51370 0.21990 -0.27600
N 	N 	0.27930 0.05190 0.22660 -0.14000
N 	N 	0.43044 0.97910 0.44560 -0.27100
N 	N 	0.37934 0.93960 0.35380 -0.27200
N 	N 	0.26675 0.19190 0.18740 -0.13800
N 	N 	0.57929 0.51330 0.55820 -0.27800
N 	N 	0.32022 0.17910 0.24730 -0.13600
N 	N 	0.16773 0.96770 0.10900 -0.27600
C 	C 	0.34400 0.45480 0.24280 0.06800
H 	H 	0.36640 0.47780 0.26050 -0.01600
N 	N 	0.46025 0.35400 0.58450 -0.13300
N 	N 	0.42479 0.22110 0.55810 -0.13400
C 	C 	0.48170 0.33850 0.55410 0.08600
C 	C 	0.25960 0.10400 0.19470 0.08600
N 	N 	0.47634 0.27140 0.52450 -0.14500
C 	C 	0.34660 0.90350 0.33110 0.07900
H 	H 	0.33930 0.84510 0.33820 -0.01500
C 	C 	0.22660 0.05850 0.16490 0.06400
C 	C 	0.33370 0.03810 0.28710 0.07000
C 	C 	0.46300 0.02900 0.44980 0.07700
H 	H 	0.48190 0.01100 0.43430 -0.01000
C 	C 	0.30980 0.09330 0.25160 0.10000
C 	C 	0.56430 0.46740 0.52200 0.09200
H 	H 	0.57540 0.47460 0.49740 -0.01100
C 	C 	0.29690 0.22670 0.21600 0.10100
C 	C 	0.30490 0.32630 0.21490 0.06800
C 	C 	0.32330 0.95070 0.29720 -0.14400
H 	H 	0.30090 0.92390 0.28140 0.08900
C 	C 	0.51540 0.40030 0.55470 0.06800
C 	C 	0.40820 0.08170 0.49570 -0.12400
H 	H 	0.38900 0.09870 0.51090 0.08400
C 	C 	0.35070 0.27500 0.64610 0.08700
H 	H 	0.32660 0.24680 0.64310 -0.01600
C 	C 	0.33820 0.36090 0.24130 -0.13000
H 	H 	0.35630 0.32190 0.25770 0.09000
C 	C 	0.56290 0.50190 0.59320 0.08400
H 	H 	0.57320 0.53310 0.61890 -0.01800
C 	C 	0.44790 0.21290 0.52870 0.08600
C 	C 	0.53280 0.40950 0.51920 -0.14400
H 	H 	0.52360 0.37710 0.49350 0.08900
C 	C 	0.43180 0.29290 0.58480 0.10200
C 	C 	0.28700 0.47940 0.19390 0.08400
H 	H 	0.26940 0.51980 0.17770 -0.01500
C 	C 	0.40340 0.00540 0.46850 0.06900
H 	H 	0.38080 0.97110 0.46600 -0.01300
C 	C 	0.21380 0.97480 0.17590 -0.14800
H 	H 	0.22500 0.94730 0.20230 0.10000
C 	C 	0.38970 0.02340 0.34350 0.08500
H 	H 	0.41270 0.04790 0.35910 -0.01100
C 	C 	0.44220 0.13210 0.49960 0.05800
C 	C 	0.17980 0.05020 0.09880 0.08300
H 	H 	0.16790 0.07630 0.07230 -0.00500
C 	C 	0.20880 0.09860 0.12550 -0.13400
H 	H 	0.21620 0.15620 0.11740 0.09300
C 	C 	0.40770 0.30460 0.61810 0.07900
C 	C 	0.46980 0.10550 0.47590 -0.12900
H 	H 	0.49260 0.13870 0.47760 0.07900
C 	C 	0.37240 0.26030 0.61410 -0.13500
H 	H 	0.36350 0.22160 0.59050 0.09400
C 	C 	0.36770 0.07510 0.31090 -0.13500
H 	H 	0.37550 0.13380 0.30500 0.10000
C 	C 	0.18440 0.93160 0.14770 0.08600
H 	H 	0.17570 0.87530 0.15580 -0.00800
C 	C 	0.41980 0.35890 0.65420 -0.13600
H 	H 	0.44350 0.38930 0.65770 0.09300
C 	C 	0.39700 0.36830 0.68540 0.08500
H 	H 	0.40580 0.40410 0.71010 -0.02200
C 	C 	0.27930 0.38730 0.19020 -0.13700
H 	H 	0.25720 0.36610 0.17130 0.08700
C 	C 	0.53130 0.44580 0.59270 -0.14100
H 	H 	0.52090 0.43880 0.61780 0.09500
I 	I 	0.76873 0.24622 0.20922 -0.38000
I 	I 	0.88024 0.25745 0.44071 -0.37900
I 	I 	0.87546 0.16382 0.30399 -0.40600
I 	I 	0.97586 0.33608 0.36847 -0.35300
I 	I 	0.14983 0.10216 0.49265 -0.37000
I 	I 	0.10799 0.24170 0.60394 -0.37900
Zn	Zn	0.91743 0.36936 0.40257 1.16500
Zn	Zn	0.83034 0.15213 0.22906 1.16300
Zn	Zn	0.12618 0.10104 0.56437 1.16500
N 	N 	0.86268 0.82750 0.68090 -0.27900
N 	N 	0.81860 0.01370 0.21990 -0.27400
N 	N 	0.77930 0.55190 0.22660 -0.13900
N 	N 	0.93044 0.47910 0.44560 -0.27000
N 	N 	0.87934 0.43960 0.35380 -0.27100
N 	N 	0.76675 0.69190 0.18740 -0.13700
N 	N 	0.07929 0.01330 0.55820 -0.27700
N 	N 	0.82022 0.67910 0.24730 -0.13500
N 	N 	0.66773 0.46770 0.10900 -0.27500
C 	C 	0.84400 0.95480 0.24280 0.06900
H 	H 	0.86640 0.97780 0.26050 -0.01500
N 	N 	0.96025 0.85400 0.58450 -0.13200
N 	N 	0.92479 0.72110 0.55810 -0.13300
C 	C 	0.98170 0.83850 0.55410 0.08700
C 	C 	0.75960 0.60400 0.19470 0.08800
N 	N 	0.97634 0.77140 0.52450 -0.14500
C 	C 	0.84660 0.40350 0.33110 0.07900
H 	H 	0.83930 0.34510 0.33820 -0.01500
C 	C 	0.72660 0.55850 0.16490 0.06300
C 	C 	0.83370 0.53810 0.28710 0.07000
C 	C 	0.96300 0.52900 0.44980 0.07700
H 	H 	0.98190 0.51100 0.43430 -0.01000
C 	C 	0.80980 0.59330 0.25160 0.10000
C 	C 	0.06430 0.96740 0.52200 0.09200
H 	H 	0.07540 0.97460 0.49740 -0.01100
C 	C 	0.79690 0.72670 0.21600 0.10100
C 	C 	0.80490 0.82630 0.21490 0.06800
C 	C 	0.82330 0.45070 0.29720 -0.14400
H 	H 	0.80090 0.42390 0.28140 0.08900
C 	C 	0.01540 0.90030 0.55470 0.06700
C 	C 	0.90820 0.58170 0.49570 -0.12400
H 	H 	0.88900 0.59870 0.51090 0.08400
C 	C 	0.85070 0.77500 0.64610 0.08700
H 	H 	0.82660 0.74680 0.64310 -0.01600
C 	C 	0.83820 0.86090 0.24130 -0.13000
H 	H 	0.85630 0.82190 0.25770 0.08900
C 	C 	0.06290 0.00190 0.59320 0.08400
H 	H 	0.07320 0.03310 0.61890 -0.01800
C 	C 	0.94790 0.71290 0.52870 0.08600
C 	C 	0.03280 0.90950 0.51920 -0.14400
H 	H 	0.02360 0.87710 0.49350 0.08900
C 	C 	0.93180 0.79290 0.58480 0.10200
C 	C 	0.78700 0.97940 0.19390 0.08300
H 	H 	0.76940 0.01980 0.17770 -0.01500
C 	C 	0.90340 0.50540 0.46850 0.06900
H 	H 	0.88080 0.47110 0.46600 -0.01300
C 	C 	0.71380 0.47480 0.17590 -0.14700
H 	H 	0.72500 0.44730 0.20230 0.10000
C 	C 	0.88970 0.52340 0.34350 0.08500
H 	H 	0.91270 0.54790 0.35910 -0.01100
C 	C 	0.94220 0.63210 0.49960 0.05800
C 	C 	0.67980 0.55020 0.09880 0.08200
H 	H 	0.66790 0.57630 0.07230 -0.00500
C 	C 	0.70880 0.59860 0.12550 -0.13400
H 	H 	0.71620 0.65620 0.11740 0.09300
C 	C 	0.90770 0.80460 0.61810 0.07900
C 	C 	0.96980 0.60550 0.47590 -0.12900
H 	H 	0.99260 0.63870 0.47760 0.07900
C 	C 	0.87240 0.76030 0.61410 -0.13500
H 	H 	0.86350 0.72160 0.59050 0.09400
C 	C 	0.86770 0.57510 0.31090 -0.13500
H 	H 	0.87550 0.63380 0.30500 0.09900
C 	C 	0.68440 0.43160 0.14770 0.08500
H 	H 	0.67570 0.37530 0.15580 -0.00800
C 	C 	0.91980 0.85890 0.65420 -0.13600
H 	H 	0.94350 0.88930 0.65770 0.09300
C 	C 	0.89700 0.86830 0.68540 0.08500
H 	H 	0.90580 0.90410 0.71010 -0.02200
C 	C 	0.77930 0.88730 0.19020 -0.13700
H 	H 	0.75720 0.86610 0.17130 0.08700
C 	C 	0.03130 0.94580 0.59270 -0.14100
H 	H 	0.02090 0.93880 0.61780 0.09500
I 	I 	0.26873 0.25378 0.70922 -0.38000
I 	I 	0.38024 0.24255 0.94071 -0.37900
I 	I 	0.37546 0.33618 0.80399 -0.40600
I 	I 	0.47586 0.16392 0.86847 -0.35300
I 	I 	0.64983 0.39784 0.99265 -0.37100
I 	I 	0.60799 0.25830 0.10394 -0.37900
Zn	Zn	0.41743 0.13064 0.90257 1.16500
Zn	Zn	0.33034 0.34787 0.72906 1.16300
Zn	Zn	0.62618 0.39896 0.06437 1.16500
N 	N 	0.36268 0.67250 0.18090 -0.27900
N 	N 	0.31860 0.48630 0.71990 -0.27500
N 	N 	0.27930 0.94810 0.72660 -0.13900
N 	N 	0.43044 0.02090 0.94560 -0.27000
N 	N 	0.37934 0.06040 0.85380 -0.27100
N 	N 	0.26675 0.80810 0.68740 -0.13700
N 	N 	0.57929 0.48670 0.05820 -0.27700
N 	N 	0.32022 0.82090 0.74730 -0.13500
N 	N 	0.16773 0.03230 0.60900 -0.27500
C 	C 	0.34400 0.54520 0.74280 0.06900
H 	H 	0.36640 0.52220 0.76050 -0.01500
N 	N 	0.46025 0.64600 0.08450 -0.13200
N 	N 	0.42479 0.77890 0.05810 -0.13300
C 	C 	0.48170 0.66150 0.05410 0.08700
C 	C 	0.25960 0.89600 0.69470 0.08800
N 	N 	0.47634 0.72860 0.02450 -0.14500
C 	C 	0.34660 0.09650 0.83110 0.07900
H 	H 	0.33930 0.15490 0.83820 -0.01500
C 	C 	0.22660 0.94150 0.66490 0.06400
C 	C 	0.33370 0.96190 0.78710 0.07000
C 	C 	0.46300 0.97100 0.94980 0.07800
H 	H 	0.48190 0.98900 0.93430 -0.01000
C 	C 	0.30980 0.90670 0.75160 0.10000
C 	C 	0.56430 0.53260 0.02200 0.09200
H 	H 	0.57540 0.52540 0.99740 -0.01100
C 	C 	0.29690 0.77330 0.71600 0.10100
C 	C 	0.30490 0.67370 0.71490 0.06800
C 	C 	0.32330 0.04930 0.79720 -0.14500
H 	H 	0.30090 0.07610 0.78140 0.08900
C 	C 	0.51540 0.59970 0.05470 0.06800
C 	C 	0.40820 0.91830 0.99570 -0.12400
H 	H 	0.38900 0.90130 0.01090 0.08400
C 	C 	0.35070 0.72500 0.14610 0.08700
H 	H 	0.32660 0.75320 0.14310 -0.01600
C 	C 	0.33820 0.63910 0.74130 -0.13000
H 	H 	0.35630 0.67810 0.75770 0.09000
C 	C 	0.56290 0.49810 0.09320 0.08400
H 	H 	0.57320 0.46690 0.11890 -0.01800
C 	C 	0.44790 0.78710 0.02870 0.08600
C 	C 	0.53280 0.59050 0.01920 -0.14500
H 	H 	0.52360 0.62290 0.99350 0.08900
C 	C 	0.43180 0.70710 0.08480 0.10200
C 	C 	0.28700 0.52060 0.69390 0.08400
H 	H 	0.26940 0.48020 0.67770 -0.01500
C 	C 	0.40340 0.99460 0.96850 0.07000
H 	H 	0.38080 0.02890 0.96600 -0.01400
C 	C 	0.21380 0.02520 0.67590 -0.14700
H 	H 	0.22500 0.05270 0.70230 0.10000
C 	C 	0.38970 0.97660 0.84350 0.08500
H 	H 	0.41270 0.95210 0.85910 -0.01100
C 	C 	0.44220 0.86790 0.99960 0.05800
C 	C 	0.17980 0.94980 0.59880 0.08200
H 	H 	0.16790 0.92370 0.57230 -0.00500
C 	C 	0.20880 0.90140 0.62550 -0.13400
H 	H 	0.21620 0.84380 0.61740 0.09300
C 	C 	0.40770 0.69540 0.11810 0.07900
C 	C 	0.46980 0.89450 0.97590 -0.12900
H 	H 	0.49260 0.86130 0.97760 0.07900
C 	C 	0.37240 0.73970 0.11410 -0.13500
H 	H 	0.36350 0.77840 0.09050 0.09400
C 	C 	0.36770 0.92490 0.81090 -0.13500
H 	H 	0.37550 0.86620 0.80500 0.10000
C 	C 	0.18440 0.06840 0.64770 0.08500
H 	H 	0.17570 0.12470 0.65580 -0.00800
C 	C 	0.41980 0.64110 0.15420 -0.13600
H 	H 	0.44350 0.61070 0.15770 0.09300
C 	C 	0.39700 0.63170 0.18540 0.08500
H 	H 	0.40580 0.59590 0.21010 -0.02200
C 	C 	0.27930 0.61270 0.69020 -0.13700
H 	H 	0.25720 0.63390 0.67130 0.08700
C 	C 	0.53130 0.55420 0.09270 -0.14100
H 	H 	0.52090 0.56120 0.11780 0.09500
I 	I 	0.76873 0.75378 0.70922 -0.38000
I 	I 	0.88024 0.74255 0.94071 -0.37900
I 	I 	0.87546 0.83618 0.80399 -0.40600
I 	I 	0.97586 0.66392 0.86847 -0.35300
I 	I 	0.14983 0.89784 0.99265 -0.37000
I 	I 	0.10799 0.75830 0.10394 -0.37900
Zn	Zn	0.91743 0.63064 0.90257 1.16500
Zn	Zn	0.83034 0.84787 0.72906 1.16300
Zn	Zn	0.12618 0.89896 0.06437 1.16500
N 	N 	0.86268 0.17250 0.18090 -0.27900
N 	N 	0.81860 0.98630 0.71990 -0.27400
N 	N 	0.77930 0.44810 0.72660 -0.13900
N 	N 	0.93044 0.52090 0.94560 -0.27000
N 	N 	0.87934 0.56040 0.85380 -0.27100
N 	N 	0.76675 0.30810 0.68740 -0.13700
N 	N 	0.07929 0.98670 0.05820 -0.27700
N 	N 	0.82022 0.32090 0.74730 -0.13500
N 	N 	0.66773 0.53230 0.60900 -0.27500
C 	C 	0.84400 0.04520 0.74280 0.06900
H 	H 	0.86640 0.02220 0.76050 -0.01500
N 	N 	0.96025 0.14600 0.08450 -0.13200
N 	N 	0.92479 0.27890 0.05810 -0.13300
C 	C 	0.98170 0.16150 0.05410 0.08800
C 	C 	0.75960 0.39600 0.69470 0.08800
N 	N 	0.97634 0.22860 0.02450 -0.14500
C 	C 	0.84660 0.59650 0.83110 0.07900
H 	H 	0.83930 0.65490 0.83820 -0.01500
C 	C 	0.72660 0.44150 0.66490 0.06300
C 	C 	0.83370 0.46190 0.78710 0.07000
C 	C 	0.96300 0.47100 0.94980 0.07700
H 	H 	0.98190 0.48900 0.93430 -0.01000
C 	C 	0.80980 0.40670 0.75160 0.10000
C 	C 	0.06430 0.03260 0.02200 0.09200
H 	H 	0.07540 0.02540 0.99740 -0.01100
C 	C 	0.79690 0.27330 0.71600 0.10100
C 	C 	0.80490 0.17370 0.71490 0.06800
C 	C 	0.82330 0.54930 0.79720 -0.14400
H 	H 	0.80090 0.57610 0.78140 0.08900
C 	C 	0.01540 0.09970 0.05470 0.06700
C 	C 	0.90820 0.41830 0.99570 -0.12400
H 	H 	0.88900 0.40130 0.01090 0.08400
C 	C 	0.85070 0.22500 0.14610 0.08700
H 	H 	0.82660 0.25320 0.14310 -0.01600
C 	C 	0.83820 0.13910 0.74130 -0.13000
H 	H 	0.85630 0.17810 0.75770 0.08900
C 	C 	0.06290 0.99810 0.09320 0.08300
H 	H 	0.07320 0.96690 0.11890 -0.01800
C 	C 	0.94790 0.28710 0.02870 0.08600
C 	C 	0.03280 0.09050 0.01920 -0.14400
H 	H 	0.02360 0.12290 0.99350 0.08900
C 	C 	0.93180 0.20710 0.08480 0.10200
C 	C 	0.78700 0.02060 0.69390 0.08300
H 	H 	0.76940 0.98020 0.67770 -0.01500
C 	C 	0.90340 0.49460 0.96850 0.06900
H 	H 	0.88080 0.52890 0.96600 -0.01300
C 	C 	0.71380 0.52520 0.67590 -0.14700
H 	H 	0.72500 0.55270 0.70230 0.10000
C 	C 	0.88970 0.47660 0.84350 0.08500
H 	H 	0.91270 0.45210 0.85910 -0.01100
C 	C 	0.94220 0.36790 0.99960 0.05800
C 	C 	0.67980 0.44980 0.59880 0.08200
H 	H 	0.66790 0.42370 0.57230 -0.00500
C 	C 	0.70880 0.40140 0.62550 -0.13400
H 	H 	0.71620 0.34380 0.61740 0.09300
C 	C 	0.90770 0.19540 0.11810 0.07900
C 	C 	0.96980 0.39450 0.97590 -0.12800
H 	H 	0.99260 0.36130 0.97760 0.07900
C 	C 	0.87240 0.23970 0.11410 -0.13500
H 	H 	0.86350 0.27840 0.09050 0.09400
C 	C 	0.86770 0.42490 0.81090 -0.13500
H 	H 	0.87550 0.36620 0.80500 0.09900
C 	C 	0.68440 0.56840 0.64770 0.08500
H 	H 	0.67570 0.62470 0.65580 -0.00800
C 	C 	0.91980 0.14110 0.15420 -0.13600
H 	H 	0.94350 0.11070 0.15770 0.09300
C 	C 	0.89700 0.13170 0.18540 0.08500
H 	H 	0.90580 0.09590 0.21010 -0.02200
C 	C 	0.77930 0.11270 0.69020 -0.13700
H 	H 	0.75720 0.13390 0.67130 0.08700
C 	C 	0.03130 0.05420 0.09270 -0.14000
H 	H 	0.02090 0.06120 0.11780 0.09500
I 	I 	0.73127 0.74622 0.29078 -0.38000
I 	I 	0.61976 0.75745 0.05929 -0.37900
I 	I 	0.62454 0.66382 0.19601 -0.40600
I 	I 	0.52414 0.83608 0.13153 -0.35300
I 	I 	0.35017 0.60216 0.00735 -0.37100
I 	I 	0.39201 0.74170 0.89606 -0.37900
Zn	Zn	0.58257 0.86936 0.09743 1.16500
Zn	Zn	0.66966 0.65213 0.27094 1.16300
Zn	Zn	0.37382 0.60104 0.93563 1.16500
N 	N 	0.63732 0.32750 0.81910 -0.27900
N 	N 	0.68140 0.51370 0.28010 -0.27500
N 	N 	0.72070 0.05190 0.27340 -0.13900
N 	N 	0.56956 0.97910 0.05440 -0.27000
N 	N 	0.62066 0.93960 0.14620 -0.27100
N 	N 	0.73325 0.19190 0.31260 -0.13700
N 	N 	0.42071 0.51330 0.94180 -0.27700
N 	N 	0.67978 0.17910 0.25270 -0.13500
N 	N 	0.83227 0.96770 0.39100 -0.27500
C 	C 	0.65600 0.45480 0.25720 0.06900
H 	H 	0.63360 0.47780 0.23950 -0.01500
N 	N 	0.53975 0.35400 0.91550 -0.13200
N 	N 	0.57521 0.22110 0.94190 -0.13300
C 	C 	0.51830 0.33850 0.94590 0.08700
C 	C 	0.74040 0.10400 0.30530 0.08800
N 	N 	0.52366 0.27140 0.97550 -0.14500
C 	C 	0.65340 0.90350 0.16890 0.07900
H 	H 	0.66070 0.84510 0.16180 -0.01500
C 	C 	0.77340 0.05850 0.33510 0.06400
C 	C 	0.66630 0.03810 0.21290 0.07000
C 	C 	0.53700 0.02900 0.05020 0.07800
H 	H 	0.51810 0.01100 0.06570 -0.01000
C 	C 	0.69020 0.09330 0.24840 0.10000
C 	C 	0.43570 0.46740 0.97800 0.09200
H 	H 	0.42460 0.47460 0.00260 -0.01100
C 	C 	0.70310 0.22670 0.28400 0.10100
C 	C 	0.69510 0.32630 0.28510 0.06800
C 	C 	0.67670 0.95070 0.20280 -0.14500
H 	H 	0.69910 0.92390 0.21860 0.08900
C 	C 	0.48460 0.40030 0.94530 0.06800
C 	C 	0.59180 0.08170 0.00430 -0.12400
H 	H 	0.61100 0.09870 0.98910 0.08400
C 	C 	0.64930 0.27500 0.85390 0.08700
H 	H 	0.67340 0.24680 0.85690 -0.01600
C 	C 	0.66180 0.36090 0.25870 -0.13000
H 	H 	0.64370 0.32190 0.24230 0.09000
C 	C 	0.43710 0.50190 0.90680 0.08400
H 	H 	0.42680 0.53310 0.88110 -0.01800
C 	C 	0.55210 0.21290 0.97130 0.08600
C 	C 	0.46720 0.40950 0.98080 -0.14500
H 	H 	0.47640 0.37710 0.00650 0.08900
C 	C 	0.56820 0.29290 0.91520 0.10200
C 	C 	0.71300 0.47940 0.30610 0.08400
H 	H 	0.73060 0.51980 0.32230 -0.01500
C 	C 	0.59660 0.00540 0.03150 0.07000
H 	H 	0.61920 0.97110 0.03400 -0.01400
C 	C 	0.78620 0.97480 0.32410 -0.14700
H 	H 	0.77500 0.94730 0.29770 0.10000
C 	C 	0.61030 0.02340 0.15650 0.08500
H 	H 	0.58730 0.04790 0.14090 -0.01100
C 	C 	0.55780 0.13210 0.00040 0.05800
C 	C 	0.82020 0.05020 0.40120 0.08200
H 	H 	0.83210 0.07630 0.42770 -0.00500
C 	C 	0.79120 0.09860 0.37450 -0.13400
H 	H 	0.78380 0.15620 0.38260 0.09300
C 	C 	0.59230 0.30460 0.88190 0.07900
C 	C 	0.53020 0.10550 0.02410 -0.12900
H 	H 	0.50740 0.13870 0.02240 0.07900
C 	C 	0.62760 0.26030 0.88590 -0.13500
H 	H 	0.63650 0.22160 0.90950 0.09400
C 	C 	0.63230 0.07510 0.18910 -0.13500
H 	H 	0.62450 0.13380 0.19500 0.10000
C 	C 	0.81560 0.93160 0.35230 0.08500
H 	H 	0.82430 0.87530 0.34420 -0.00800
C 	C 	0.58020 0.35890 0.84580 -0.13600
H 	H 	0.55650 0.38930 0.84230 0.09300
C 	C 	0.60300 0.36830 0.81460 0.08500
H 	H 	0.59420 0.40410 0.78990 -0.02200
C 	C 	0.72070 0.38730 0.30980 -0.13700
H 	H 	0.74280 0.36610 0.32870 0.08700
C 	C 	0.46870 0.44580 0.90730 -0.14100
H 	H 	0.47910 0.43880 0.88220 0.09500
I 	I 	0.23127 0.24622 0.29078 -0.38000
I 	I 	0.11976 0.25745 0.05929 -0.37900
I 	I 	0.12454 0.16382 0.19601 -0.40600
I 	I 	0.02414 0.33608 0.13153 -0.35300
I 	I 	0.85017 0.10216 0.00735 -0.37000
I 	I 	0.89201 0.24170 0.89606 -0.37900
Zn	Zn	0.08257 0.36936 0.09743 1.16500
Zn	Zn	0.16966 0.15213 0.27094 1.16300
Zn	Zn	0.87382 0.10104 0.93563 1.16500
N 	N 	0.13732 0.82750 0.81910 -0.27900
N 	N 	0.18140 0.01370 0.28010 -0.27400
N 	N 	0.22070 0.55190 0.27340 -0.13900
N 	N 	0.06956 0.47910 0.05440 -0.27000
N 	N 	0.12066 0.43960 0.14620 -0.27100
N 	N 	0.23325 0.69190 0.31260 -0.13700
N 	N 	0.92071 0.01330 0.94180 -0.27700
N 	N 	0.17978 0.67910 0.25270 -0.13500
N 	N 	0.33227 0.46770 0.39100 -0.27500
C 	C 	0.15600 0.95480 0.25720 0.06900
H 	H 	0.13360 0.97780 0.23950 -0.01500
N 	N 	0.03975 0.85400 0.91550 -0.13200
N 	N 	0.07521 0.72110 0.94190 -0.13300
C 	C 	0.01830 0.83850 0.94590 0.08800
C 	C 	0.24040 0.60400 0.30530 0.08800
N 	N 	0.02366 0.77140 0.97550 -0.14500
C 	C 	0.15340 0.40350 0.16890 0.07900
H 	H 	0.16070 0.34510 0.16180 -0.01500
C 	C 	0.27340 0.55850 0.33510 0.06300
C 	C 	0.16630 0.53810 0.21290 0.07000
C 	C 	0.03700 0.52900 0.05020 0.07700
H 	H 	0.01810 0.51100 0.06570 -0.01000
C 	C 	0.19020 0.59330 0.24840 0.10000
C 	C 	0.93570 0.96740 0.97800 0.09200
H 	H 	0.92460 0.97460 0.00260 -0.01100
C 	C 	0.20310 0.72670 0.28400 0.10100
C 	C 	0.19510 0.82630 0.28510 0.06800
C 	C 	0.17670 0.45070 0.20280 -0.14400
H 	H 	0.19910 0.42390 0.21860 0.08900
C 	C 	0.98460 0.90030 0.94530 0.06700
C 	C 	0.09180 0.58170 0.00430 -0.12400
H 	H 	0.11100 0.59870 0.98910 0.08400
C 	C 	0.14930 0.77500 0.85390 0.08700
H 	H 	0.17340 0.74680 0.85690 -0.01600
C 	C 	0.16180 0.86090 0.25870 -0.13000
H 	H 	0.14370 0.82190 0.24230 0.08900
C 	C 	0.93710 0.00190 0.90680 0.08300
H 	H 	0.92680 0.03310 0.88110 -0.01800
C 	C 	0.05210 0.71290 0.97130 0.08600
C 	C 	0.96720 0.90950 0.98080 -0.14400
H 	H 	0.97640 0.87710 0.00650 0.08900
C 	C 	0.06820 0.79290 0.91520 0.10200
C 	C 	0.21300 0.97940 0.30610 0.08300
H 	H 	0.23060 0.01980 0.32230 -0.01500
C 	C 	0.09660 0.50540 0.03150 0.06900
H 	H 	0.11920 0.47110 0.03400 -0.01300
C 	C 	0.28620 0.47480 0.32410 -0.14700
H 	H 	0.27500 0.44730 0.29770 0.10000
C 	C 	0.11030 0.52340 0.15650 0.08500
H 	H 	0.08730 0.54790 0.14090 -0.01100
C 	C 	0.05780 0.63210 0.00040 0.05800
C 	C 	0.32020 0.55020 0.40120 0.08200
H 	H 	0.33210 0.57630 0.42770 -0.00500
C 	C 	0.29120 0.59860 0.37450 -0.13400
H 	H 	0.28380 0.65620 0.38260 0.09300
C 	C 	0.09230 0.80460 0.88190 0.07900
C 	C 	0.03020 0.60550 0.02410 -0.12800
H 	H 	0.00740 0.63870 0.02240 0.07900
C 	C 	0.12760 0.76030 0.88590 -0.13500
H 	H 	0.13650 0.72160 0.90950 0.09400
C 	C 	0.13230 0.57510 0.18910 -0.13500
H 	H 	0.12450 0.63380 0.19500 0.09900
C 	C 	0.31560 0.43160 0.35230 0.08500
H 	H 	0.32430 0.37530 0.34420 -0.00800
C 	C 	0.08020 0.85890 0.84580 -0.13600
H 	H 	0.05650 0.88930 0.84230 0.09300
C 	C 	0.10300 0.86830 0.81460 0.08500
H 	H 	0.09420 0.90410 0.78990 -0.02200
C 	C 	0.22070 0.88730 0.30980 -0.13700
H 	H 	0.24280 0.86610 0.32870 0.08700
C 	C 	0.96870 0.94580 0.90730 -0.14000
H 	H 	0.97910 0.93880 0.88220 0.09500
I 	I 	0.73127 0.25378 0.79078 -0.38000
I 	I 	0.61976 0.24255 0.55929 -0.37900
I 	I 	0.62454 0.33618 0.69601 -0.40600
I 	I 	0.52414 0.16392 0.63153 -0.35300
I 	I 	0.35017 0.39784 0.50735 -0.37000
I 	I 	0.39201 0.25830 0.39606 -0.37900
Zn	Zn	0.58257 0.13064 0.59743 1.16500
Zn	Zn	0.66966 0.34787 0.77094 1.16300
Zn	Zn	0.37382 0.39896 0.43563 1.16500
N 	N 	0.63732 0.67250 0.31910 -0.27900
N 	N 	0.68140 0.48630 0.78010 -0.27500
N 	N 	0.72070 0.94810 0.77340 -0.13900
N 	N 	0.56956 0.02090 0.55440 -0.27000
N 	N 	0.62066 0.06040 0.64620 -0.27100
N 	N 	0.73325 0.80810 0.81260 -0.13700
N 	N 	0.42071 0.48670 0.44180 -0.27700
N 	N 	0.67978 0.82090 0.75270 -0.13500
N 	N 	0.83227 0.03230 0.89100 -0.27500
C 	C 	0.65600 0.54520 0.75720 0.06900
H 	H 	0.63360 0.52220 0.73950 -0.01500
N 	N 	0.53975 0.64600 0.41550 -0.13200
N 	N 	0.57521 0.77890 0.44190 -0.13300
C 	C 	0.51830 0.66150 0.44590 0.08700
C 	C 	0.74040 0.89600 0.80530 0.08700
N 	N 	0.52366 0.72860 0.47550 -0.14500
C 	C 	0.65340 0.09650 0.66890 0.07900
H 	H 	0.66070 0.15490 0.66180 -0.01500
C 	C 	0.77340 0.94150 0.83510 0.06400
C 	C 	0.66630 0.96190 0.71290 0.07000
C 	C 	0.53700 0.97100 0.55020 0.07700
H 	H 	0.51810 0.98900 0.56570 -0.01000
C 	C 	0.69020 0.90670 0.74840 0.10000
C 	C 	0.43570 0.53260 0.47800 0.09200
H 	H 	0.42460 0.52540 0.50260 -0.01100
C 	C 	0.70310 0.77330 0.78400 0.10100
C 	C 	0.69510 0.67370 0.78510 0.06800
C 	C 	0.67670 0.04930 0.70280 -0.14400
H 	H 	0.69910 0.07610 0.71860 0.08900
C 	C 	0.48460 0.59970 0.44530 0.06800
C 	C 	0.59180 0.91830 0.50430 -0.12400
H 	H 	0.61100 0.90130 0.48910 0.08400
C 	C 	0.64930 0.72500 0.35390 0.08700
H 	H 	0.67340 0.75320 0.35690 -0.01600
C 	C 	0.66180 0.63910 0.75870 -0.13000
H 	H 	0.64370 0.67810 0.74230 0.09000
C 	C 	0.43710 0.49810 0.40680 0.08400
H 	H 	0.42680 0.46690 0.38110 -0.01800
C 	C 	0.55210 0.78710 0.47130 0.08600
C 	C 	0.46720 0.59050 0.48080 -0.14400
H 	H 	0.47640 0.62290 0.50650 0.08900
C 	C 	0.56820 0.70710 0.41520 0.10200
C 	C 	0.71300 0.52060 0.80610 0.08400
H 	H 	0.73060 0.48020 0.82230 -0.01500
C 	C 	0.59660 0.99460 0.53150 0.06900
H 	H 	0.61920 0.02890 0.53400 -0.01300
C 	C 	0.78620 0.02520 0.82410 -0.14800
H 	H 	0.77500 0.05270 0.79770 0.10000
C 	C 	0.61030 0.97660 0.65650 0.08500
H 	H 	0.58730 0.95210 0.64090 -0.01100
C 	C 	0.55780 0.86790 0.50040 0.05800
C 	C 	0.82020 0.94980 0.90120 0.08300
H 	H 	0.83210 0.92370 0.92770 -0.00500
C 	C 	0.79120 0.90140 0.87450 -0.13400
H 	H 	0.78380 0.84380 0.88260 0.09300
C 	C 	0.59230 0.69540 0.38190 0.07900
C 	C 	0.53020 0.89450 0.52410 -0.12900
H 	H 	0.50740 0.86130 0.52240 0.07900
C 	C 	0.62760 0.73970 0.38590 -0.13500
H 	H 	0.63650 0.77840 0.40950 0.09400
C 	C 	0.63230 0.92490 0.68910 -0.13500
H 	H 	0.62450 0.86620 0.69500 0.10000
C 	C 	0.81560 0.06840 0.85230 0.08600
H 	H 	0.82430 0.12470 0.84420 -0.00800
C 	C 	0.58020 0.64110 0.34580 -0.13600
H 	H 	0.55650 0.61070 0.34230 0.09300
C 	C 	0.60300 0.63170 0.31460 0.08500
H 	H 	0.59420 0.59590 0.28990 -0.02200
C 	C 	0.72070 0.61270 0.80980 -0.13700
H 	H 	0.74280 0.63390 0.82870 0.08700
C 	C 	0.46870 0.55420 0.40730 -0.14100
H 	H 	0.47910 0.56120 0.38220 0.09500
I 	I 	0.23127 0.75378 0.79078 -0.38000
I 	I 	0.11976 0.74255 0.55929 -0.37900
I 	I 	0.12454 0.83618 0.69601 -0.40600
I 	I 	0.02414 0.66392 0.63153 -0.35300
I 	I 	0.85017 0.89784 0.50735 -0.37000
I 	I 	0.89201 0.75830 0.39606 -0.37900
Zn	Zn	0.08257 0.63064 0.59743 1.16500
Zn	Zn	0.16966 0.84787 0.77094 1.16300
Zn	Zn	0.87382 0.89896 0.43563 1.16500
N 	N 	0.13732 0.17250 0.31910 -0.27900
N 	N 	0.18140 0.98630 0.78010 -0.27400
N 	N 	0.22070 0.44810 0.77340 -0.13900
N 	N 	0.06956 0.52090 0.55440 -0.27000
N 	N 	0.12066 0.56040 0.64620 -0.27100
N 	N 	0.23325 0.30810 0.81260 -0.13700
N 	N 	0.92071 0.98670 0.44180 -0.27700
N 	N 	0.17978 0.32090 0.75270 -0.13500
N 	N 	0.33227 0.53230 0.89100 -0.27500
C 	C 	0.15600 0.04520 0.75720 0.06900
H 	H 	0.13360 0.02220 0.73950 -0.01500
N 	N 	0.03975 0.14600 0.41550 -0.13200
N 	N 	0.07521 0.27890 0.44190 -0.13300
C 	C 	0.01830 0.16150 0.44590 0.08700
C 	C 	0.24040 0.39600 0.80530 0.08800
N 	N 	0.02366 0.22860 0.47550 -0.14500
C 	C 	0.15340 0.59650 0.66890 0.07900
H 	H 	0.16070 0.65490 0.66180 -0.01500
C 	C 	0.27340 0.44150 0.83510 0.06300
C 	C 	0.16630 0.46190 0.71290 0.07000
C 	C 	0.03700 0.47100 0.55020 0.07700
H 	H 	0.01810 0.48900 0.56570 -0.01000
C 	C 	0.19020 0.40670 0.74840 0.10000
C 	C 	0.93570 0.03260 0.47800 0.09200
H 	H 	0.92460 0.02540 0.50260 -0.01100
C 	C 	0.20310 0.27330 0.78400 0.10100
C 	C 	0.19510 0.17370 0.78510 0.06800
C 	C 	0.17670 0.54930 0.70280 -0.14400
H 	H 	0.19910 0.57610 0.71860 0.08900
C 	C 	0.98460 0.09970 0.44530 0.06700
C 	C 	0.09180 0.41830 0.50430 -0.12400
H 	H 	0.11100 0.40130 0.48910 0.08400
C 	C 	0.14930 0.22500 0.35390 0.08700
H 	H 	0.17340 0.25320 0.35690 -0.01600
C 	C 	0.16180 0.13910 0.75870 -0.13000
H 	H 	0.14370 0.17810 0.74230 0.08900
C 	C 	0.93710 0.99810 0.40680 0.08400
H 	H 	0.92680 0.96690 0.38110 -0.01800
C 	C 	0.05210 0.28710 0.47130 0.08600
C 	C 	0.96720 0.09050 0.48080 -0.14400
H 	H 	0.97640 0.12290 0.50650 0.08900
C 	C 	0.06820 0.20710 0.41520 0.10200
C 	C 	0.21300 0.02060 0.80610 0.08300
H 	H 	0.23060 0.98020 0.82230 -0.01500
C 	C 	0.09660 0.49460 0.53150 0.06900
H 	H 	0.11920 0.52890 0.53400 -0.01300
C 	C 	0.28620 0.52520 0.82410 -0.14700
H 	H 	0.27500 0.55270 0.79770 0.10000
C 	C 	0.11030 0.47660 0.65650 0.08500
H 	H 	0.08730 0.45210 0.64090 -0.01100
C 	C 	0.05780 0.36790 0.50040 0.05800
C 	C 	0.32020 0.44980 0.90120 0.08200
H 	H 	0.33210 0.42370 0.92770 -0.00500
C 	C 	0.29120 0.40140 0.87450 -0.13400
H 	H 	0.28380 0.34380 0.88260 0.09300
C 	C 	0.09230 0.19540 0.38190 0.07900
C 	C 	0.03020 0.39450 0.52410 -0.12900
H 	H 	0.00740 0.36130 0.52240 0.07900
C 	C 	0.12760 0.23970 0.38590 -0.13500
H 	H 	0.13650 0.27840 0.40950 0.09400
C 	C 	0.13230 0.42490 0.68910 -0.13500
H 	H 	0.12450 0.36620 0.69500 0.09900
C 	C 	0.31560 0.56840 0.85230 0.08500
H 	H 	0.32430 0.62470 0.84420 -0.00800
C 	C 	0.08020 0.14110 0.34580 -0.13600
H 	H 	0.05650 0.11070 0.34230 0.09300
C 	C 	0.10300 0.13170 0.31460 0.08500
H 	H 	0.09420 0.09590 0.28990 -0.02200
C 	C 	0.22070 0.11270 0.80980 -0.13700
H 	H 	0.24280 0.13390 0.82870 0.08700
C 	C 	0.96870 0.05420 0.40730 -0.14100
H 	H 	0.97910 0.06120 0.38220 0.09500
