data_crystal

_cell_length_a 35.28390
_cell_length_b 15.15920
_cell_length_c 30.69040
_cell_angle_alpha 90.00000
_cell_angle_beta  102.22200
_cell_angle_gamma 90.00000

_symmetry_space_group_name_	'P 1'
_symmetry_space_group_name_H-M	'P 1'

loop_
_symmetry_equiv_pos_as_xyz
  x,y,z

loop_
_atom_site_label
_atom_site_type_symbol
_atom_site_fract_x
_atom_site_fract_y
_atom_site_fract_z
_atom_site_charge
I 	I 	0.02400 0.35350 0.13801 -0.35000
I 	I 	0.74293 0.72234 0.31375 -0.37900
I 	I 	0.63609 0.67692 0.20766 -0.39200
I 	I 	0.11335 0.26232 0.06256 -0.37800
I 	I 	0.39677 0.27072 0.40304 -0.38200
I 	I 	0.35444 0.41561 0.51082 -0.36900
Zn	Zn	0.07791 0.38028 0.09608 1.16400
Zn	Zn	0.67982 0.64056 0.28314 1.16200
Zn	Zn	0.37568 0.41014 0.43697 1.16400
N 	N 	0.56292 0.02210 0.54892 -0.27700
N 	N 	0.19017 0.00640 0.28250 -0.28300
N 	N 	0.42052 0.49860 0.44000 -0.27500
N 	N 	0.18222 0.68320 0.24840 -0.13300
N 	N 	0.33322 0.47170 0.39080 -0.27800
N 	N 	0.11788 0.45250 0.14130 -0.27600
N 	N 	0.52028 0.73700 0.47046 -0.14700
N 	N 	0.21936 0.55550 0.27180 -0.14100
N 	N 	0.64498 0.65790 0.32870 -0.27600
N 	N 	0.57349 0.78280 0.43976 -0.13500
N 	N 	0.53745 0.65510 0.41146 -0.13300
C 	C 	0.19011 0.59800 0.24570 0.09700
N 	N 	0.23802 0.69300 0.30710 -0.13900
C 	C 	0.16516 0.54700 0.20950 0.07400
C 	C 	0.24208 0.60580 0.30250 0.08300
C 	C 	0.27399 0.56010 0.33350 0.06000
C 	C 	0.54889 0.79290 0.46680 0.08900
C 	C 	0.22160 0.96960 0.30600 0.09400
H 	H 	0.24000 0.00570 0.32360 -0.02100
C 	C 	0.20784 0.72760 0.27900 0.09700
C 	C 	0.56663 0.71130 0.41320 0.10300
C 	C 	0.22860 0.88050 0.30580 -0.14900
H 	H 	0.25140 0.85760 0.32280 0.09000
C 	C 	0.48231 0.61160 0.44080 0.06100
C 	C 	0.55318 0.87270 0.49510 0.06100
C 	C 	0.16400 0.95330 0.25760 0.08100
H 	H 	0.14150 0.97830 0.24090 -0.01900
C 	C 	0.51525 0.67150 0.44110 0.08700
C 	C 	0.53375 0.96540 0.54940 0.07700
H 	H 	0.51700 0.97660 0.56830 -0.01200
C 	C 	0.17200 0.45890 0.20240 -0.14200
H 	H 	0.19270 0.42980 0.22050 0.08500
C 	C 	0.59367 0.69400 0.38350 0.07000
C 	C 	0.30960 0.42930 0.35750 0.08100
H 	H 	0.31350 0.36930 0.35400 -0.00600
C 	C 	0.52770 0.89110 0.52280 -0.13000
H 	H 	0.50690 0.85380 0.52350 0.08000
C 	C 	0.29860 0.60470 0.36700 -0.13300
H 	H 	0.29610 0.66520 0.37070 0.09400
C 	C 	0.14800 0.41490 0.16840 0.08300
H 	H 	0.15310 0.35580 0.16400 -0.01300
C 	C 	0.20140 0.82500 0.28050 0.07600
C 	C 	0.65510 0.71140 0.36380 0.07800
H 	H 	0.67970 0.73630 0.36960 -0.01200
C 	C 	0.43840 0.53800 0.47750 0.08600
H 	H 	0.42990 0.52630 0.50360 -0.01100
C 	C 	0.63030 0.73130 0.39180 -0.12600
H 	H 	0.63810 0.76910 0.41590 0.09000
C 	C 	0.11180 0.53730 0.14810 0.09300
H 	H 	0.09100 0.56500 0.12950 -0.01000
C 	C 	0.58630 0.00590 0.52120 0.07600
H 	H 	0.60600 0.04580 0.51990 -0.01600
C 	C 	0.58290 0.63780 0.34660 -0.12700
H 	H 	0.55850 0.61150 0.34020 0.08900
C 	C 	0.32750 0.55710 0.39510 0.08300
H 	H 	0.34380 0.58700 0.41820 -0.00500
C 	C 	0.60930 0.62250 0.32030 0.07900
H 	H 	0.60200 0.58600 0.29550 -0.01900
C 	C 	0.58250 0.93180 0.49400 -0.13000
H 	H 	0.59970 0.92230 0.47530 0.08800
C 	C 	0.16870 0.86310 0.25540 -0.14100
H 	H 	0.14990 0.82870 0.23720 0.09200
C 	C 	0.27990 0.47020 0.32830 -0.13800
H 	H 	0.26410 0.43850 0.30560 0.09600
C 	C 	0.13460 0.58630 0.18100 -0.14300
H 	H 	0.12940 0.64590 0.18400 0.10400
C 	C 	0.46910 0.59520 0.47930 -0.13600
H 	H 	0.48060 0.62250 0.50590 0.08600
C 	C 	0.43270 0.51720 0.40200 0.07900
H 	H 	0.41970 0.49190 0.37540 -0.01600
C 	C 	0.46340 0.57200 0.40140 -0.13400
H 	H 	0.47140 0.58250 0.37490 0.09100
I 	I 	0.52400 0.85350 0.13801 -0.34900
I 	I 	0.24293 0.22234 0.31375 -0.37800
I 	I 	0.13609 0.17692 0.20766 -0.39100
I 	I 	0.61335 0.76232 0.06256 -0.37700
I 	I 	0.89677 0.77072 0.40304 -0.38100
I 	I 	0.85444 0.91561 0.51082 -0.36800
Zn	Zn	0.57791 0.88028 0.09608 1.16500
Zn	Zn	0.17982 0.14056 0.28314 1.16300
Zn	Zn	0.87568 0.91014 0.43697 1.16500
N 	N 	0.06292 0.52210 0.54892 -0.27600
N 	N 	0.69017 0.50640 0.28250 -0.28200
N 	N 	0.92052 0.99860 0.44000 -0.27400
N 	N 	0.68222 0.18320 0.24840 -0.13300
N 	N 	0.83322 0.97170 0.39080 -0.27800
N 	N 	0.61788 0.95250 0.14130 -0.27600
N 	N 	0.02028 0.23700 0.47046 -0.14700
N 	N 	0.71936 0.05550 0.27180 -0.14100
N 	N 	0.14498 0.15790 0.32870 -0.27600
N 	N 	0.07349 0.28280 0.43976 -0.13500
N 	N 	0.03745 0.15510 0.41146 -0.13300
C 	C 	0.69011 0.09800 0.24570 0.09700
N 	N 	0.73802 0.19300 0.30710 -0.13900
C 	C 	0.66516 0.04700 0.20950 0.07400
C 	C 	0.74208 0.10580 0.30250 0.08300
C 	C 	0.77399 0.06010 0.33350 0.06000
C 	C 	0.04889 0.29290 0.46680 0.08900
C 	C 	0.72160 0.46960 0.30600 0.09500
H 	H 	0.74000 0.50570 0.32360 -0.02100
C 	C 	0.70784 0.22760 0.27900 0.09700
C 	C 	0.06663 0.21130 0.41320 0.10300
C 	C 	0.72860 0.38050 0.30580 -0.15000
H 	H 	0.75140 0.35760 0.32280 0.09000
C 	C 	0.98231 0.11160 0.44080 0.06100
C 	C 	0.05318 0.37270 0.49510 0.06100
C 	C 	0.66400 0.45330 0.25760 0.08100
H 	H 	0.64150 0.47830 0.24090 -0.01900
C 	C 	0.01525 0.17150 0.44110 0.08700
C 	C 	0.03375 0.46540 0.54940 0.07700
H 	H 	0.01700 0.47660 0.56830 -0.01200
C 	C 	0.67200 0.95890 0.20240 -0.14300
H 	H 	0.69270 0.92980 0.22050 0.08600
C 	C 	0.09367 0.19400 0.38350 0.07000
C 	C 	0.80960 0.92930 0.35750 0.08100
H 	H 	0.81350 0.86930 0.35400 -0.00600
C 	C 	0.02770 0.39110 0.52280 -0.13000
H 	H 	0.00690 0.35380 0.52350 0.08000
C 	C 	0.79860 0.10470 0.36700 -0.13300
H 	H 	0.79610 0.16520 0.37070 0.09400
C 	C 	0.64800 0.91490 0.16840 0.08300
H 	H 	0.65310 0.85580 0.16400 -0.01300
C 	C 	0.70140 0.32500 0.28050 0.07600
C 	C 	0.15510 0.21140 0.36380 0.07800
H 	H 	0.17970 0.23630 0.36960 -0.01200
C 	C 	0.93840 0.03800 0.47750 0.08600
H 	H 	0.92990 0.02630 0.50360 -0.01100
C 	C 	0.13030 0.23130 0.39180 -0.12600
H 	H 	0.13810 0.26910 0.41590 0.09000
C 	C 	0.61180 0.03730 0.14810 0.09300
H 	H 	0.59100 0.06500 0.12950 -0.01000
C 	C 	0.08630 0.50590 0.52120 0.07600
H 	H 	0.10600 0.54580 0.51990 -0.01600
C 	C 	0.08290 0.13780 0.34660 -0.12700
H 	H 	0.05850 0.11150 0.34020 0.08900
C 	C 	0.82750 0.05710 0.39510 0.08300
H 	H 	0.84380 0.08700 0.41820 -0.00500
C 	C 	0.10930 0.12250 0.32030 0.07900
H 	H 	0.10200 0.08600 0.29550 -0.01900
C 	C 	0.08250 0.43180 0.49400 -0.13000
H 	H 	0.09970 0.42230 0.47530 0.08800
C 	C 	0.66870 0.36310 0.25540 -0.14100
H 	H 	0.64990 0.32870 0.23720 0.09200
C 	C 	0.77990 0.97020 0.32830 -0.13900
H 	H 	0.76410 0.93850 0.30560 0.09600
C 	C 	0.63460 0.08630 0.18100 -0.14300
H 	H 	0.62940 0.14590 0.18400 0.10400
C 	C 	0.96910 0.09520 0.47930 -0.13600
H 	H 	0.98060 0.12250 0.50590 0.08600
C 	C 	0.93270 0.01720 0.40200 0.07900
H 	H 	0.91970 0.99190 0.37540 -0.01600
C 	C 	0.96340 0.07200 0.40140 -0.13500
H 	H 	0.97140 0.08250 0.37490 0.09100
I 	I 	0.02400 0.64650 0.63801 -0.34900
I 	I 	0.74293 0.27766 0.81375 -0.37800
I 	I 	0.63609 0.32308 0.70766 -0.39100
I 	I 	0.11335 0.73768 0.56256 -0.37700
I 	I 	0.39677 0.72928 0.90304 -0.38100
I 	I 	0.35444 0.58439 0.01082 -0.36800
Zn	Zn	0.07791 0.61972 0.59608 1.16500
Zn	Zn	0.67982 0.35944 0.78314 1.16300
Zn	Zn	0.37568 0.58986 0.93697 1.16500
N 	N 	0.56292 0.97790 0.04892 -0.27700
N 	N 	0.19017 0.99360 0.78250 -0.28200
N 	N 	0.42052 0.50140 0.94000 -0.27400
N 	N 	0.18222 0.31680 0.74840 -0.13300
N 	N 	0.33322 0.52830 0.89080 -0.27800
N 	N 	0.11788 0.54750 0.64130 -0.27600
N 	N 	0.52028 0.26300 0.97046 -0.14700
N 	N 	0.21936 0.44450 0.77180 -0.14100
N 	N 	0.64498 0.34210 0.82870 -0.27600
N 	N 	0.57349 0.21720 0.93976 -0.13500
N 	N 	0.53745 0.34490 0.91146 -0.13300
C 	C 	0.19011 0.40200 0.74570 0.09700
N 	N 	0.23802 0.30700 0.80710 -0.13900
C 	C 	0.16516 0.45300 0.70950 0.07400
C 	C 	0.24208 0.39420 0.80250 0.08300
C 	C 	0.27399 0.43990 0.83350 0.06000
C 	C 	0.54889 0.20710 0.96680 0.08900
C 	C 	0.22160 0.03040 0.80600 0.09400
H 	H 	0.24000 0.99430 0.82360 -0.02100
C 	C 	0.20784 0.27240 0.77900 0.09700
C 	C 	0.56663 0.28870 0.91320 0.10300
C 	C 	0.22860 0.11950 0.80580 -0.14900
H 	H 	0.25140 0.14240 0.82280 0.09000
C 	C 	0.48231 0.38840 0.94080 0.06100
C 	C 	0.55318 0.12730 0.99510 0.06000
C 	C 	0.16400 0.04670 0.75760 0.08100
H 	H 	0.14150 0.02170 0.74090 -0.01900
C 	C 	0.51525 0.32850 0.94110 0.08700
C 	C 	0.53375 0.03460 0.04940 0.07700
H 	H 	0.51700 0.02340 0.06830 -0.01200
C 	C 	0.17200 0.54110 0.70240 -0.14200
H 	H 	0.19270 0.57020 0.72050 0.08500
C 	C 	0.59367 0.30600 0.88350 0.07000
C 	C 	0.30960 0.57070 0.85750 0.08100
H 	H 	0.31350 0.63070 0.85400 -0.00600
C 	C 	0.52770 0.10890 0.02280 -0.12900
H 	H 	0.50690 0.14620 0.02350 0.08000
C 	C 	0.29860 0.39530 0.86700 -0.13300
H 	H 	0.29610 0.33480 0.87070 0.09400
C 	C 	0.14800 0.58510 0.66840 0.08300
H 	H 	0.15310 0.64420 0.66400 -0.01300
C 	C 	0.20140 0.17500 0.78050 0.07500
C 	C 	0.65510 0.28860 0.86380 0.07800
H 	H 	0.67970 0.26370 0.86960 -0.01200
C 	C 	0.43840 0.46200 0.97750 0.08600
H 	H 	0.42990 0.47370 0.00360 -0.01100
C 	C 	0.63030 0.26870 0.89180 -0.12600
H 	H 	0.63810 0.23090 0.91590 0.09000
C 	C 	0.11180 0.46270 0.64810 0.09300
H 	H 	0.09100 0.43500 0.62950 -0.01000
C 	C 	0.58630 0.99410 0.02120 0.07600
H 	H 	0.60600 0.95420 0.01990 -0.01600
C 	C 	0.58290 0.36220 0.84660 -0.12700
H 	H 	0.55850 0.38850 0.84020 0.08900
C 	C 	0.32750 0.44290 0.89510 0.08300
H 	H 	0.34380 0.41300 0.91820 -0.00500
C 	C 	0.60930 0.37750 0.82030 0.07900
H 	H 	0.60200 0.41400 0.79550 -0.01900
C 	C 	0.58250 0.06820 0.99400 -0.13000
H 	H 	0.59970 0.07770 0.97530 0.08800
C 	C 	0.16870 0.13690 0.75540 -0.14100
H 	H 	0.14990 0.17130 0.73720 0.09200
C 	C 	0.27990 0.52980 0.82830 -0.13800
H 	H 	0.26410 0.56150 0.80560 0.09600
C 	C 	0.13460 0.41370 0.68100 -0.14300
H 	H 	0.12940 0.35410 0.68400 0.10400
C 	C 	0.46910 0.40480 0.97930 -0.13700
H 	H 	0.48060 0.37750 0.00590 0.08600
C 	C 	0.43270 0.48280 0.90200 0.07900
H 	H 	0.41970 0.50810 0.87540 -0.01600
C 	C 	0.46340 0.42800 0.90140 -0.13400
H 	H 	0.47140 0.41750 0.87490 0.09100
I 	I 	0.52400 0.14650 0.63801 -0.34900
I 	I 	0.24293 0.77766 0.81375 -0.37800
I 	I 	0.13609 0.82308 0.70766 -0.39100
I 	I 	0.61335 0.23768 0.56256 -0.37700
I 	I 	0.89677 0.22928 0.90304 -0.38100
I 	I 	0.85444 0.08439 0.01082 -0.36800
Zn	Zn	0.57791 0.11972 0.59608 1.16500
Zn	Zn	0.17982 0.85944 0.78314 1.16300
Zn	Zn	0.87568 0.08986 0.93697 1.16500
N 	N 	0.06292 0.47790 0.04892 -0.27600
N 	N 	0.69017 0.49360 0.78250 -0.28200
N 	N 	0.92052 0.00140 0.94000 -0.27500
N 	N 	0.68222 0.81680 0.74840 -0.13300
N 	N 	0.83322 0.02830 0.89080 -0.27800
N 	N 	0.61788 0.04750 0.64130 -0.27600
N 	N 	0.02028 0.76300 0.97046 -0.14700
N 	N 	0.71936 0.94450 0.77180 -0.14100
N 	N 	0.14498 0.84210 0.82870 -0.27600
N 	N 	0.07349 0.71720 0.93976 -0.13500
N 	N 	0.03745 0.84490 0.91146 -0.13300
C 	C 	0.69011 0.90200 0.74570 0.09700
N 	N 	0.73802 0.80700 0.80710 -0.13900
C 	C 	0.66516 0.95300 0.70950 0.07400
C 	C 	0.74208 0.89420 0.80250 0.08300
C 	C 	0.77399 0.93990 0.83350 0.06000
C 	C 	0.04889 0.70710 0.96680 0.08900
C 	C 	0.72160 0.53040 0.80600 0.09500
H 	H 	0.74000 0.49430 0.82360 -0.02100
C 	C 	0.70784 0.77240 0.77900 0.09700
C 	C 	0.06663 0.78870 0.91320 0.10300
C 	C 	0.72860 0.61950 0.80580 -0.15000
H 	H 	0.75140 0.64240 0.82280 0.09000
C 	C 	0.98231 0.88840 0.94080 0.06100
C 	C 	0.05318 0.62730 0.99510 0.06100
C 	C 	0.66400 0.54670 0.75760 0.08100
H 	H 	0.64150 0.52170 0.74090 -0.01900
C 	C 	0.01525 0.82850 0.94110 0.08700
C 	C 	0.03375 0.53460 0.04940 0.07700
H 	H 	0.01700 0.52340 0.06830 -0.01200
C 	C 	0.67200 0.04110 0.70240 -0.14300
H 	H 	0.69270 0.07020 0.72050 0.08600
C 	C 	0.09367 0.80600 0.88350 0.07000
C 	C 	0.80960 0.07070 0.85750 0.08100
H 	H 	0.81350 0.13070 0.85400 -0.00600
C 	C 	0.02770 0.60890 0.02280 -0.13000
H 	H 	0.00690 0.64620 0.02350 0.08000
C 	C 	0.79860 0.89530 0.86700 -0.13300
H 	H 	0.79610 0.83480 0.87070 0.09400
C 	C 	0.64800 0.08510 0.66840 0.08300
H 	H 	0.65310 0.14420 0.66400 -0.01300
C 	C 	0.70140 0.67500 0.78050 0.07600
C 	C 	0.15510 0.78860 0.86380 0.07800
H 	H 	0.17970 0.76370 0.86960 -0.01200
C 	C 	0.93840 0.96200 0.97750 0.08700
H 	H 	0.92990 0.97370 0.00360 -0.01100
C 	C 	0.13030 0.76870 0.89180 -0.12600
H 	H 	0.13810 0.73090 0.91590 0.09000
C 	C 	0.61180 0.96270 0.64810 0.09300
H 	H 	0.59100 0.93500 0.62950 -0.01000
C 	C 	0.08630 0.49410 0.02120 0.07600
H 	H 	0.10600 0.45420 0.01990 -0.01600
C 	C 	0.08290 0.86220 0.84660 -0.12700
H 	H 	0.05850 0.88850 0.84020 0.08900
C 	C 	0.82750 0.94290 0.89510 0.08400
H 	H 	0.84380 0.91300 0.91820 -0.00500
C 	C 	0.10930 0.87750 0.82030 0.07900
H 	H 	0.10200 0.91400 0.79550 -0.01900
C 	C 	0.08250 0.56820 0.99400 -0.13000
H 	H 	0.09970 0.57770 0.97530 0.08800
C 	C 	0.66870 0.63690 0.75540 -0.14100
H 	H 	0.64990 0.67130 0.73720 0.09200
C 	C 	0.77990 0.02980 0.82830 -0.13900
H 	H 	0.76410 0.06150 0.80560 0.09600
C 	C 	0.63460 0.91370 0.68100 -0.14300
H 	H 	0.62940 0.85410 0.68400 0.10400
C 	C 	0.96910 0.90480 0.97930 -0.13700
H 	H 	0.98060 0.87750 0.00590 0.08600
C 	C 	0.93270 0.98280 0.90200 0.08000
H 	H 	0.91970 0.00810 0.87540 -0.01700
C 	C 	0.96340 0.92800 0.90140 -0.13500
H 	H 	0.97140 0.91750 0.87490 0.09200
I 	I 	0.97600 0.35350 0.36199 -0.34900
I 	I 	0.25707 0.72234 0.18625 -0.37800
I 	I 	0.36391 0.67692 0.29234 -0.39100
I 	I 	0.88665 0.26232 0.43744 -0.37700
I 	I 	0.60323 0.27072 0.09696 -0.38100
I 	I 	0.64556 0.41561 0.98918 -0.36800
Zn	Zn	0.92209 0.38028 0.40392 1.16500
Zn	Zn	0.32018 0.64056 0.21686 1.16300
Zn	Zn	0.62432 0.41014 0.06303 1.16500
N 	N 	0.43708 0.02210 0.95108 -0.27700
N 	N 	0.80983 0.00640 0.21750 -0.28200
N 	N 	0.57948 0.49860 0.06000 -0.27400
N 	N 	0.81778 0.68320 0.25160 -0.13300
N 	N 	0.66678 0.47170 0.10920 -0.27800
N 	N 	0.88212 0.45250 0.35870 -0.27600
N 	N 	0.47972 0.73700 0.02954 -0.14700
N 	N 	0.78064 0.55550 0.22820 -0.14100
N 	N 	0.35502 0.65790 0.17130 -0.27600
N 	N 	0.42651 0.78280 0.06024 -0.13500
N 	N 	0.46255 0.65510 0.08854 -0.13300
C 	C 	0.80989 0.59800 0.25430 0.09700
N 	N 	0.76198 0.69300 0.19290 -0.13900
C 	C 	0.83484 0.54700 0.29050 0.07400
C 	C 	0.75792 0.60580 0.19750 0.08300
C 	C 	0.72601 0.56010 0.16650 0.06000
C 	C 	0.45111 0.79290 0.03320 0.08900
C 	C 	0.77840 0.96960 0.19400 0.09400
H 	H 	0.76000 0.00570 0.17640 -0.02100
C 	C 	0.79216 0.72760 0.22100 0.09700
C 	C 	0.43337 0.71130 0.08680 0.10300
C 	C 	0.77140 0.88050 0.19420 -0.14900
H 	H 	0.74860 0.85760 0.17720 0.09000
C 	C 	0.51769 0.61160 0.05920 0.06100
C 	C 	0.44682 0.87270 0.00490 0.06000
C 	C 	0.83600 0.95330 0.24240 0.08100
H 	H 	0.85850 0.97830 0.25910 -0.01900
C 	C 	0.48475 0.67150 0.05890 0.08700
C 	C 	0.46625 0.96540 0.95060 0.07700
H 	H 	0.48300 0.97660 0.93170 -0.01200
C 	C 	0.82800 0.45890 0.29760 -0.14200
H 	H 	0.80730 0.42980 0.27950 0.08500
C 	C 	0.40633 0.69400 0.11650 0.07000
C 	C 	0.69040 0.42930 0.14250 0.08100
H 	H 	0.68650 0.36930 0.14600 -0.00600
C 	C 	0.47230 0.89110 0.97720 -0.12900
H 	H 	0.49310 0.85380 0.97650 0.08000
C 	C 	0.70140 0.60470 0.13300 -0.13300
H 	H 	0.70390 0.66520 0.12930 0.09400
C 	C 	0.85200 0.41490 0.33160 0.08300
H 	H 	0.84690 0.35580 0.33600 -0.01300
C 	C 	0.79860 0.82500 0.21950 0.07500
C 	C 	0.34490 0.71140 0.13620 0.07800
H 	H 	0.32030 0.73630 0.13040 -0.01200
C 	C 	0.56160 0.53800 0.02250 0.08600
H 	H 	0.57010 0.52630 0.99640 -0.01100
C 	C 	0.36970 0.73130 0.10820 -0.12600
H 	H 	0.36190 0.76910 0.08410 0.09000
C 	C 	0.88820 0.53730 0.35190 0.09300
H 	H 	0.90900 0.56500 0.37050 -0.01000
C 	C 	0.41370 0.00590 0.97880 0.07600
H 	H 	0.39400 0.04580 0.98010 -0.01600
C 	C 	0.41710 0.63780 0.15340 -0.12700
H 	H 	0.44150 0.61150 0.15980 0.08900
C 	C 	0.67250 0.55710 0.10490 0.08300
H 	H 	0.65620 0.58700 0.08180 -0.00500
C 	C 	0.39070 0.62250 0.17970 0.07900
H 	H 	0.39800 0.58600 0.20450 -0.01900
C 	C 	0.41750 0.93180 0.00600 -0.13000
H 	H 	0.40030 0.92230 0.02470 0.08800
C 	C 	0.83130 0.86310 0.24460 -0.14100
H 	H 	0.85010 0.82870 0.26280 0.09200
C 	C 	0.72010 0.47020 0.17170 -0.13800
H 	H 	0.73590 0.43850 0.19440 0.09600
C 	C 	0.86540 0.58630 0.31900 -0.14300
H 	H 	0.87060 0.64590 0.31600 0.10400
C 	C 	0.53090 0.59520 0.02070 -0.13700
H 	H 	0.51940 0.62250 0.99410 0.08600
C 	C 	0.56730 0.51720 0.09800 0.07900
H 	H 	0.58030 0.49190 0.12460 -0.01600
C 	C 	0.53660 0.57200 0.09860 -0.13400
H 	H 	0.52860 0.58250 0.12510 0.09100
I 	I 	0.47600 0.85350 0.36199 -0.34900
I 	I 	0.75707 0.22234 0.18625 -0.37800
I 	I 	0.86391 0.17692 0.29234 -0.39100
I 	I 	0.38665 0.76232 0.43744 -0.37700
I 	I 	0.10323 0.77072 0.09696 -0.38100
I 	I 	0.14556 0.91561 0.98918 -0.36800
Zn	Zn	0.42209 0.88028 0.40392 1.16500
Zn	Zn	0.82018 0.14056 0.21686 1.16300
Zn	Zn	0.12432 0.91014 0.06303 1.16500
N 	N 	0.93708 0.52210 0.95108 -0.27600
N 	N 	0.30983 0.50640 0.21750 -0.28200
N 	N 	0.07948 0.99860 0.06000 -0.27500
N 	N 	0.31778 0.18320 0.25160 -0.13300
N 	N 	0.16678 0.97170 0.10920 -0.27800
N 	N 	0.38212 0.95250 0.35870 -0.27600
N 	N 	0.97972 0.23700 0.02954 -0.14700
N 	N 	0.28064 0.05550 0.22820 -0.14100
N 	N 	0.85502 0.15790 0.17130 -0.27600
N 	N 	0.92651 0.28280 0.06024 -0.13500
N 	N 	0.96255 0.15510 0.08854 -0.13300
C 	C 	0.30989 0.09800 0.25430 0.09700
N 	N 	0.26198 0.19300 0.19290 -0.13900
C 	C 	0.33484 0.04700 0.29050 0.07400
C 	C 	0.25792 0.10580 0.19750 0.08300
C 	C 	0.22601 0.06010 0.16650 0.06000
C 	C 	0.95111 0.29290 0.03320 0.08900
C 	C 	0.27840 0.46960 0.19400 0.09500
H 	H 	0.26000 0.50570 0.17640 -0.02100
C 	C 	0.29216 0.22760 0.22100 0.09700
C 	C 	0.93337 0.21130 0.08680 0.10300
C 	C 	0.27140 0.38050 0.19420 -0.15000
H 	H 	0.24860 0.35760 0.17720 0.09000
C 	C 	0.01769 0.11160 0.05920 0.06100
C 	C 	0.94682 0.37270 0.00490 0.06100
C 	C 	0.33600 0.45330 0.24240 0.08100
H 	H 	0.35850 0.47830 0.25910 -0.01900
C 	C 	0.98475 0.17150 0.05890 0.08700
C 	C 	0.96625 0.46540 0.95060 0.07700
H 	H 	0.98300 0.47660 0.93170 -0.01200
C 	C 	0.32800 0.95890 0.29760 -0.14300
H 	H 	0.30730 0.92980 0.27950 0.08600
C 	C 	0.90633 0.19400 0.11650 0.07000
C 	C 	0.19040 0.92930 0.14250 0.08100
H 	H 	0.18650 0.86930 0.14600 -0.00600
C 	C 	0.97230 0.39110 0.97720 -0.13000
H 	H 	0.99310 0.35380 0.97650 0.08000
C 	C 	0.20140 0.10470 0.13300 -0.13300
H 	H 	0.20390 0.16520 0.12930 0.09400
C 	C 	0.35200 0.91490 0.33160 0.08300
H 	H 	0.34690 0.85580 0.33600 -0.01300
C 	C 	0.29860 0.32500 0.21950 0.07600
C 	C 	0.84490 0.21140 0.13620 0.07800
H 	H 	0.82030 0.23630 0.13040 -0.01200
C 	C 	0.06160 0.03800 0.02250 0.08700
H 	H 	0.07010 0.02630 0.99640 -0.01100
C 	C 	0.86970 0.23130 0.10820 -0.12600
H 	H 	0.86190 0.26910 0.08410 0.09000
C 	C 	0.38820 0.03730 0.35190 0.09300
H 	H 	0.40900 0.06500 0.37050 -0.01000
C 	C 	0.91370 0.50590 0.97880 0.07600
H 	H 	0.89400 0.54580 0.98010 -0.01600
C 	C 	0.91710 0.13780 0.15340 -0.12700
H 	H 	0.94150 0.11150 0.15980 0.08900
C 	C 	0.17250 0.05710 0.10490 0.08400
H 	H 	0.15620 0.08700 0.08180 -0.00500
C 	C 	0.89070 0.12250 0.17970 0.07900
H 	H 	0.89800 0.08600 0.20450 -0.01900
C 	C 	0.91750 0.43180 0.00600 -0.13000
H 	H 	0.90030 0.42230 0.02470 0.08800
C 	C 	0.33130 0.36310 0.24460 -0.14100
H 	H 	0.35010 0.32870 0.26280 0.09200
C 	C 	0.22010 0.97020 0.17170 -0.13900
H 	H 	0.23590 0.93850 0.19440 0.09600
C 	C 	0.36540 0.08630 0.31900 -0.14300
H 	H 	0.37060 0.14590 0.31600 0.10400
C 	C 	0.03090 0.09520 0.02070 -0.13700
H 	H 	0.01940 0.12250 0.99410 0.08600
C 	C 	0.06730 0.01720 0.09800 0.08000
H 	H 	0.08030 0.99190 0.12460 -0.01700
C 	C 	0.03660 0.07200 0.09860 -0.13500
H 	H 	0.02860 0.08250 0.12510 0.09200
I 	I 	0.97600 0.64650 0.86199 -0.34900
I 	I 	0.25707 0.27766 0.68625 -0.37800
I 	I 	0.36391 0.32308 0.79234 -0.39100
I 	I 	0.88665 0.73768 0.93744 -0.37700
I 	I 	0.60323 0.72928 0.59696 -0.38100
I 	I 	0.64556 0.58439 0.48918 -0.36800
Zn	Zn	0.92209 0.61972 0.90392 1.16500
Zn	Zn	0.32018 0.35944 0.71686 1.16300
Zn	Zn	0.62432 0.58986 0.56303 1.16500
N 	N 	0.43708 0.97790 0.45108 -0.27600
N 	N 	0.80983 0.99360 0.71750 -0.28200
N 	N 	0.57948 0.50140 0.56000 -0.27400
N 	N 	0.81778 0.31680 0.75160 -0.13300
N 	N 	0.66678 0.52830 0.60920 -0.27800
N 	N 	0.88212 0.54750 0.85870 -0.27600
N 	N 	0.47972 0.26300 0.52954 -0.14700
N 	N 	0.78064 0.44450 0.72820 -0.14100
N 	N 	0.35502 0.34210 0.67130 -0.27600
N 	N 	0.42651 0.21720 0.56024 -0.13500
N 	N 	0.46255 0.34490 0.58854 -0.13300
C 	C 	0.80989 0.40200 0.75430 0.09700
N 	N 	0.76198 0.30700 0.69290 -0.13900
C 	C 	0.83484 0.45300 0.79050 0.07400
C 	C 	0.75792 0.39420 0.69750 0.08300
C 	C 	0.72601 0.43990 0.66650 0.06000
C 	C 	0.45111 0.20710 0.53320 0.08900
C 	C 	0.77840 0.03040 0.69400 0.09400
H 	H 	0.76000 0.99430 0.67640 -0.02100
C 	C 	0.79216 0.27240 0.72100 0.09700
C 	C 	0.43337 0.28870 0.58680 0.10300
C 	C 	0.77140 0.11950 0.69420 -0.14900
H 	H 	0.74860 0.14240 0.67720 0.09000
C 	C 	0.51769 0.38840 0.55920 0.06100
C 	C 	0.44682 0.12730 0.50490 0.06100
C 	C 	0.83600 0.04670 0.74240 0.08100
H 	H 	0.85850 0.02170 0.75910 -0.01900
C 	C 	0.48475 0.32850 0.55890 0.08700
C 	C 	0.46625 0.03460 0.45060 0.07700
H 	H 	0.48300 0.02340 0.43170 -0.01200
C 	C 	0.82800 0.54110 0.79760 -0.14200
H 	H 	0.80730 0.57020 0.77950 0.08500
C 	C 	0.40633 0.30600 0.61650 0.07000
C 	C 	0.69040 0.57070 0.64250 0.08100
H 	H 	0.68650 0.63070 0.64600 -0.00600
C 	C 	0.47230 0.10890 0.47720 -0.13000
H 	H 	0.49310 0.14620 0.47650 0.08000
C 	C 	0.70140 0.39530 0.63300 -0.13300
H 	H 	0.70390 0.33480 0.62930 0.09400
C 	C 	0.85200 0.58510 0.83160 0.08300
H 	H 	0.84690 0.64420 0.83600 -0.01300
C 	C 	0.79860 0.17500 0.71950 0.07600
C 	C 	0.34490 0.28860 0.63620 0.07800
H 	H 	0.32030 0.26370 0.63040 -0.01200
C 	C 	0.56160 0.46200 0.52250 0.08600
H 	H 	0.57010 0.47370 0.49640 -0.01100
C 	C 	0.36970 0.26870 0.60820 -0.12600
H 	H 	0.36190 0.23090 0.58410 0.09000
C 	C 	0.88820 0.46270 0.85190 0.09300
H 	H 	0.90900 0.43500 0.87050 -0.01000
C 	C 	0.41370 0.99410 0.47880 0.07600
H 	H 	0.39400 0.95420 0.48010 -0.01600
C 	C 	0.41710 0.36220 0.65340 -0.12700
H 	H 	0.44150 0.38850 0.65980 0.08900
C 	C 	0.67250 0.44290 0.60490 0.08300
H 	H 	0.65620 0.41300 0.58180 -0.00500
C 	C 	0.39070 0.37750 0.67970 0.07900
H 	H 	0.39800 0.41400 0.70450 -0.01900
C 	C 	0.41750 0.06820 0.50600 -0.13000
H 	H 	0.40030 0.07770 0.52470 0.08800
C 	C 	0.83130 0.13690 0.74460 -0.14100
H 	H 	0.85010 0.17130 0.76280 0.09200
C 	C 	0.72010 0.52980 0.67170 -0.13800
H 	H 	0.73590 0.56150 0.69440 0.09600
C 	C 	0.86540 0.41370 0.81900 -0.14300
H 	H 	0.87060 0.35410 0.81600 0.10400
C 	C 	0.53090 0.40480 0.52070 -0.13600
H 	H 	0.51940 0.37750 0.49410 0.08600
C 	C 	0.56730 0.48280 0.59800 0.07900
H 	H 	0.58030 0.50810 0.62460 -0.01600
C 	C 	0.53660 0.42800 0.59860 -0.13400
H 	H 	0.52860 0.41750 0.62510 0.09100
I 	I 	0.47600 0.14650 0.86199 -0.34900
I 	I 	0.75707 0.77766 0.68625 -0.37800
I 	I 	0.86391 0.82308 0.79234 -0.39100
I 	I 	0.38665 0.23768 0.93744 -0.37700
I 	I 	0.10323 0.22928 0.59696 -0.38100
I 	I 	0.14556 0.08439 0.48918 -0.36800
Zn	Zn	0.42209 0.11972 0.90392 1.16500
Zn	Zn	0.82018 0.85944 0.71686 1.16300
Zn	Zn	0.12432 0.08986 0.56303 1.16500
N 	N 	0.93708 0.47790 0.45108 -0.27600
N 	N 	0.30983 0.49360 0.71750 -0.28200
N 	N 	0.07948 0.00140 0.56000 -0.27400
N 	N 	0.31778 0.81680 0.75160 -0.13300
N 	N 	0.16678 0.02830 0.60920 -0.27800
N 	N 	0.38212 0.04750 0.85870 -0.27600
N 	N 	0.97972 0.76300 0.52954 -0.14700
N 	N 	0.28064 0.94450 0.72820 -0.14100
N 	N 	0.85502 0.84210 0.67130 -0.27600
N 	N 	0.92651 0.71720 0.56024 -0.13500
N 	N 	0.96255 0.84490 0.58854 -0.13300
C 	C 	0.30989 0.90200 0.75430 0.09700
N 	N 	0.26198 0.80700 0.69290 -0.13900
C 	C 	0.33484 0.95300 0.79050 0.07400
C 	C 	0.25792 0.89420 0.69750 0.08300
C 	C 	0.22601 0.93990 0.66650 0.06000
C 	C 	0.95111 0.70710 0.53320 0.08900
C 	C 	0.27840 0.53040 0.69400 0.09500
H 	H 	0.26000 0.49430 0.67640 -0.02100
C 	C 	0.29216 0.77240 0.72100 0.09700
C 	C 	0.93337 0.78870 0.58680 0.10300
C 	C 	0.27140 0.61950 0.69420 -0.15000
H 	H 	0.24860 0.64240 0.67720 0.09000
C 	C 	0.01769 0.88840 0.55920 0.06100
C 	C 	0.94682 0.62730 0.50490 0.06100
C 	C 	0.33600 0.54670 0.74240 0.08100
H 	H 	0.35850 0.52170 0.75910 -0.01900
C 	C 	0.98475 0.82850 0.55890 0.08700
C 	C 	0.96625 0.53460 0.45060 0.07700
H 	H 	0.98300 0.52340 0.43170 -0.01200
C 	C 	0.32800 0.04110 0.79760 -0.14300
H 	H 	0.30730 0.07020 0.77950 0.08600
C 	C 	0.90633 0.80600 0.61650 0.07000
C 	C 	0.19040 0.07070 0.64250 0.08100
H 	H 	0.18650 0.13070 0.64600 -0.00600
C 	C 	0.97230 0.60890 0.47720 -0.13000
H 	H 	0.99310 0.64620 0.47650 0.08000
C 	C 	0.20140 0.89530 0.63300 -0.13300
H 	H 	0.20390 0.83480 0.62930 0.09400
C 	C 	0.35200 0.08510 0.83160 0.08300
H 	H 	0.34690 0.14420 0.83600 -0.01300
C 	C 	0.29860 0.67500 0.71950 0.07600
C 	C 	0.84490 0.78860 0.63620 0.07800
H 	H 	0.82030 0.76370 0.63040 -0.01200
C 	C 	0.06160 0.96200 0.52250 0.08600
H 	H 	0.07010 0.97370 0.49640 -0.01100
C 	C 	0.86970 0.76870 0.60820 -0.12600
H 	H 	0.86190 0.73090 0.58410 0.09000
C 	C 	0.38820 0.96270 0.85190 0.09300
H 	H 	0.40900 0.93500 0.87050 -0.01000
C 	C 	0.91370 0.49410 0.47880 0.07600
H 	H 	0.89400 0.45420 0.48010 -0.01600
C 	C 	0.91710 0.86220 0.65340 -0.12700
H 	H 	0.94150 0.88850 0.65980 0.08900
C 	C 	0.17250 0.94290 0.60490 0.08300
H 	H 	0.15620 0.91300 0.58180 -0.00500
C 	C 	0.89070 0.87750 0.67970 0.07900
H 	H 	0.89800 0.91400 0.70450 -0.01900
C 	C 	0.91750 0.56820 0.50600 -0.13000
H 	H 	0.90030 0.57770 0.52470 0.08800
C 	C 	0.33130 0.63690 0.74460 -0.14100
H 	H 	0.35010 0.67130 0.76280 0.09200
C 	C 	0.22010 0.02980 0.67170 -0.13900
H 	H 	0.23590 0.06150 0.69440 0.09600
C 	C 	0.36540 0.91370 0.81900 -0.14300
H 	H 	0.37060 0.85410 0.81600 0.10400
C 	C 	0.03090 0.90480 0.52070 -0.13600
H 	H 	0.01940 0.87750 0.49410 0.08600
C 	C 	0.06730 0.98280 0.59800 0.07900
H 	H 	0.08030 0.00810 0.62460 -0.01600
C 	C 	0.03660 0.92800 0.59860 -0.13500
H 	H 	0.02860 0.91750 0.62510 0.09100
