data_crystal

_cell_length_a 8.77960
_cell_length_b 10.02970
_cell_length_c 10.15610
_cell_angle_alpha 119.58700
_cell_angle_beta  115.60700
_cell_angle_gamma 90.00450

_symmetry_space_group_name_	'P 1'
_symmetry_space_group_name_H-M	'P 1'

loop_
_symmetry_equiv_pos_as_xyz
  x,y,z

loop_
_atom_site_label
_atom_site_type_symbol
_atom_site_fract_x
_atom_site_fract_y
_atom_site_fract_z
_atom_site_charge
Zn	Zn	0.70419 0.88772 0.72458 1.17300
Zn	Zn	0.47961 0.16314 0.27542 1.18000
H 	H 	0.60300 0.60660 0.75400 0.18900
H 	H 	0.53450 0.42790 0.65920 0.13000
H 	H 	0.12460 0.30590 0.12200 0.12500
H 	H 	0.98750 0.21940 0.94380 0.13700
H 	H 	0.34900 0.85260 0.24600 0.18300
H 	H 	0.37530 0.76870 0.34080 0.12400
H 	H 	0.50260 0.18390 0.87800 0.12700
H 	H 	0.54370 0.27560 0.05620 0.13200
C 	C 	0.57360 0.52490 0.54400 0.20400
C 	C 	0.09220 0.07550 0.99620 0.24100
C 	C 	0.52960 0.98090 0.45600 0.15800
C 	C 	0.59600 0.07930 0.00380 0.20800
N 	N 	0.61120 0.65700 0.54720 -0.28400
N 	N 	0.59070 0.60440 0.38720 -0.08300
N 	N 	0.57010 0.52210 0.67260 -0.38000
N 	N 	0.53250 0.39690 0.38940 -0.28200
N 	N 	0.54380 0.45340 0.29440 -0.08900
N 	N 	0.02920 0.82440 0.89360 -0.06800
N 	N 	0.18280 0.88800 0.02560 -0.09700
N 	N 	0.96420 0.94010 0.86880 -0.30100
N 	N 	0.22840 0.04780 0.09500 -0.27300
N 	N 	0.08040 0.21760 0.01780 -0.33900
N 	N 	0.56400 0.10980 0.45280 -0.26300
N 	N 	0.70350 0.21720 0.61280 -0.08000
N 	N 	0.39750 0.84950 0.32740 -0.36900
N 	N 	0.64310 0.00750 0.61060 -0.25700
N 	N 	0.74940 0.15900 0.70560 -0.08600
N 	N 	0.63560 0.93080 0.10640 -0.09500
N 	N 	0.65720 0.86240 0.97440 -0.08500
N 	N 	0.59540 0.07130 0.13120 -0.26100
N 	N 	0.63340 0.95280 0.90500 -0.29000
N 	N 	0.56260 0.19980 0.98220 -0.32900
