data_crystal

_cell_length_a 34.59220
_cell_length_b 14.81410
_cell_length_c 31.42660
_cell_angle_alpha 90.00000
_cell_angle_beta  100.79000
_cell_angle_gamma 90.00000

_symmetry_space_group_name_	'P 1'
_symmetry_space_group_name_H-M	'P 1'

loop_
_symmetry_equiv_pos_as_xyz
  x,y,z

loop_
_atom_site_label
_atom_site_type_symbol
_atom_site_fract_x
_atom_site_fract_y
_atom_site_fract_z
_atom_site_charge
I 	I 	0.26719 0.24108 0.20893 -0.38900
I 	I 	0.37469 0.16549 0.30304 -0.39900
I 	I 	0.10716 0.26522 0.10149 -0.37800
I 	I 	0.47441 0.34155 0.37263 -0.35600
I 	I 	0.14893 0.40061 0.99048 -0.37400
I 	I 	0.37421 0.26523 0.43775 -0.38400
Zn	Zn	0.12696 0.40554 0.06263 1.16500
Zn	Zn	0.41353 0.37847 0.40363 1.16500
Zn	Zn	0.32888 0.14701 0.22909 1.16300
N 	N 	0.31660 0.01020 0.22200 -0.27800
N 	N 	0.26680 0.69140 0.18750 -0.14400
C 	C 	0.31010 0.59490 0.25060 0.11900
N 	N 	0.42690 0.48340 0.44700 -0.26400
N 	N 	0.42350 0.72190 0.55960 -0.14100
C 	C 	0.26070 0.60560 0.19310 0.11100
N 	N 	0.37700 0.44850 0.35510 -0.27000
C 	C 	0.51630 0.89430 0.55540 0.04000
N 	N 	0.47530 0.76930 0.52560 -0.22000
N 	N 	0.32040 0.68020 0.24740 -0.13700
N 	N 	0.58080 0.00690 0.55790 -0.28100
C 	C 	0.28720 0.97630 0.19470 0.08600
H 	H 	0.27000 0.01650 0.17670 -0.01800
C 	C 	0.29670 0.72750 0.21600 0.10000
C 	C 	0.44650 0.71230 0.53040 0.11300
N 	N 	0.16910 0.47150 0.10610 -0.27400
C 	C 	0.33320 0.54260 0.28640 0.03700
C 	C 	0.35130 0.77320 0.65080 0.09900
H 	H 	0.32890 0.73630 0.65110 -0.02100
C 	C 	0.44010 0.63230 0.50120 0.02700
N 	N 	0.45990 0.84990 0.58540 -0.14000
C 	C 	0.56710 0.99110 0.59270 0.08100
H 	H 	0.57960 0.01860 0.61900 -0.02000
N 	N 	0.27980 0.55310 0.22490 -0.21900
C 	C 	0.40710 0.80610 0.61950 0.09000
C 	C 	0.34490 0.40920 0.33070 0.05300
H 	H 	0.33700 0.35090 0.33820 -0.00600
C 	C 	0.30390 0.82420 0.21600 0.06300
C 	C 	0.48210 0.83480 0.55520 0.10800
N 	N 	0.36020 0.83330 0.68030 -0.29300
C 	C 	0.36620 0.58060 0.31220 -0.11500
H 	H 	0.37410 0.64040 0.30710 0.08900
C 	C 	0.43170 0.79270 0.58490 0.11200
C 	C 	0.22800 0.55900 0.16260 0.03500
C 	C 	0.34060 0.95170 0.24620 0.06900
H 	H 	0.36270 0.97530 0.26560 -0.01500
C 	C 	0.32380 0.45250 0.29530 -0.10900
H 	H 	0.30300 0.42220 0.27690 0.06300
C 	C 	0.37360 0.75970 0.61800 -0.14200
H 	H 	0.36490 0.71840 0.59500 0.09300
C 	C 	0.46710 0.60460 0.47660 -0.09600
H 	H 	0.49100 0.63750 0.47840 0.05500
C 	C 	0.56570 0.96090 0.52270 0.07800
H 	H 	0.57740 0.96750 0.49790 -0.00800
C 	C 	0.27990 0.88480 0.19050 -0.13300
H 	H 	0.25820 0.86360 0.16980 0.08300
C 	C 	0.46070 0.53260 0.45030 0.05200
H 	H 	0.47980 0.51580 0.43370 -0.00200
C 	C 	0.18170 0.55240 0.09770 0.07400
H 	H 	0.17040 0.57880 0.07070 -0.00200
C 	C 	0.39980 0.50860 0.47100 0.04800
H 	H 	0.37660 0.47370 0.46990 -0.00600
C 	C 	0.33560 0.85990 0.24470 -0.12400
H 	H 	0.35340 0.82150 0.26300 0.08600
C 	C 	0.18710 0.43350 0.14410 0.06700
H 	H 	0.17810 0.37630 0.15200 -0.00200
C 	C 	0.38680 0.52990 0.34500 0.08200
H 	H 	0.41000 0.55540 0.36160 -0.01000
C 	C 	0.40580 0.58450 0.49710 -0.09600
H 	H 	0.38590 0.60350 0.51220 0.07100
C 	C 	0.21050 0.60290 0.12530 -0.11200
H 	H 	0.21730 0.66270 0.11870 0.08400
C 	C 	0.21650 0.47310 0.17060 -0.12200
H 	H 	0.22990 0.44160 0.19540 0.07700
C 	C 	0.53380 0.90380 0.52010 -0.12100
H 	H 	0.52420 0.87150 0.49410 0.06700
C 	C 	0.53450 0.93480 0.59340 -0.11900
H 	H 	0.52520 0.92490 0.61960 0.08600
C 	C 	0.39110 0.88340 0.67800 0.11500
H 	H 	0.39640 0.93250 0.69760 -0.03300
C 	C 	0.41520 0.87140 0.65090 -0.15900
H 	H 	0.43810 0.90780 0.65290 0.09600
H 	H 	0.48880 0.76400 0.50460 0.11100
H 	H 	0.27330 0.49660 0.22870 0.11800
I 	I 	0.76719 0.74108 0.20893 -0.38800
I 	I 	0.87469 0.66549 0.30304 -0.39800
I 	I 	0.60716 0.76522 0.10149 -0.37800
I 	I 	0.97441 0.84155 0.37263 -0.35600
I 	I 	0.64893 0.90061 0.99048 -0.37400
I 	I 	0.87421 0.76523 0.43775 -0.38400
Zn	Zn	0.62696 0.90554 0.06263 1.16500
Zn	Zn	0.91353 0.87847 0.40363 1.16500
Zn	Zn	0.82888 0.64701 0.22909 1.16300
N 	N 	0.81660 0.51020 0.22200 -0.27900
N 	N 	0.76680 0.19140 0.18750 -0.14300
C 	C 	0.81010 0.09490 0.25060 0.11900
N 	N 	0.92690 0.98340 0.44700 -0.26500
N 	N 	0.92350 0.22190 0.55960 -0.14100
C 	C 	0.76070 0.10560 0.19310 0.11100
N 	N 	0.87700 0.94850 0.35510 -0.27000
C 	C 	0.01630 0.39430 0.55540 0.03900
N 	N 	0.97530 0.26930 0.52560 -0.22000
N 	N 	0.82040 0.18020 0.24740 -0.13700
N 	N 	0.08080 0.50690 0.55790 -0.28100
C 	C 	0.78720 0.47630 0.19470 0.08600
H 	H 	0.77000 0.51650 0.17670 -0.01900
C 	C 	0.79670 0.22750 0.21600 0.10000
C 	C 	0.94650 0.21230 0.53040 0.11300
N 	N 	0.66910 0.97150 0.10610 -0.27500
C 	C 	0.83320 0.04260 0.28640 0.03700
C 	C 	0.85130 0.27320 0.65080 0.09900
H 	H 	0.82890 0.23630 0.65110 -0.02100
C 	C 	0.94010 0.13230 0.50120 0.02700
N 	N 	0.95990 0.34990 0.58540 -0.14000
C 	C 	0.06710 0.49110 0.59270 0.08100
H 	H 	0.07960 0.51860 0.61900 -0.01900
N 	N 	0.77980 0.05310 0.22490 -0.21900
C 	C 	0.90710 0.30610 0.61950 0.09000
C 	C 	0.84490 0.90920 0.33070 0.05300
H 	H 	0.83700 0.85090 0.33820 -0.00600
C 	C 	0.80390 0.32420 0.21600 0.06400
C 	C 	0.98210 0.33480 0.55520 0.10800
N 	N 	0.86020 0.33330 0.68030 -0.29300
C 	C 	0.86620 0.08060 0.31220 -0.11500
H 	H 	0.87410 0.14040 0.30710 0.09000
C 	C 	0.93170 0.29270 0.58490 0.11200
C 	C 	0.72800 0.05900 0.16260 0.03600
C 	C 	0.84060 0.45170 0.24620 0.06900
H 	H 	0.86270 0.47530 0.26560 -0.01500
C 	C 	0.82380 0.95250 0.29530 -0.11000
H 	H 	0.80300 0.92220 0.27690 0.06300
C 	C 	0.87360 0.25970 0.61800 -0.14200
H 	H 	0.86490 0.21840 0.59500 0.09300
C 	C 	0.96710 0.10460 0.47660 -0.09600
H 	H 	0.99100 0.13750 0.47840 0.05500
C 	C 	0.06570 0.46090 0.52270 0.07800
H 	H 	0.07740 0.46750 0.49790 -0.00800
C 	C 	0.77990 0.38480 0.19050 -0.13300
H 	H 	0.75820 0.36360 0.16980 0.08300
C 	C 	0.96070 0.03260 0.45030 0.05200
H 	H 	0.97980 0.01580 0.43370 -0.00200
C 	C 	0.68170 0.05240 0.09770 0.07400
H 	H 	0.67040 0.07880 0.07070 -0.00200
C 	C 	0.89980 0.00860 0.47100 0.04800
H 	H 	0.87660 0.97370 0.46990 -0.00600
C 	C 	0.83560 0.35990 0.24470 -0.12400
H 	H 	0.85340 0.32150 0.26300 0.08600
C 	C 	0.68710 0.93350 0.14410 0.06800
H 	H 	0.67810 0.87630 0.15200 -0.00200
C 	C 	0.88680 0.02990 0.34500 0.08200
H 	H 	0.91000 0.05540 0.36160 -0.01000
C 	C 	0.90580 0.08450 0.49710 -0.09600
H 	H 	0.88590 0.10350 0.51220 0.07100
C 	C 	0.71050 0.10290 0.12530 -0.11200
H 	H 	0.71730 0.16270 0.11870 0.08400
C 	C 	0.71650 0.97310 0.17060 -0.12300
H 	H 	0.72990 0.94160 0.19540 0.07700
C 	C 	0.03380 0.40380 0.52010 -0.12100
H 	H 	0.02420 0.37150 0.49410 0.06700
C 	C 	0.03450 0.43480 0.59340 -0.11900
H 	H 	0.02520 0.42490 0.61960 0.08600
C 	C 	0.89110 0.38340 0.67800 0.11500
H 	H 	0.89640 0.43250 0.69760 -0.03300
C 	C 	0.91520 0.37140 0.65090 -0.15900
H 	H 	0.93810 0.40780 0.65290 0.09600
H 	H 	0.98880 0.26400 0.50460 0.11100
H 	H 	0.77330 0.99660 0.22870 0.11800
I 	I 	0.26719 0.75892 0.70893 -0.38800
I 	I 	0.37469 0.83451 0.80304 -0.39800
I 	I 	0.10716 0.73478 0.60149 -0.37800
I 	I 	0.47441 0.65845 0.87263 -0.35600
I 	I 	0.14893 0.59939 0.49048 -0.37400
I 	I 	0.37421 0.73477 0.93775 -0.38400
Zn	Zn	0.12696 0.59446 0.56263 1.16500
Zn	Zn	0.41353 0.62153 0.90363 1.16500
Zn	Zn	0.32888 0.85299 0.72909 1.16300
N 	N 	0.31660 0.98980 0.72200 -0.27900
N 	N 	0.26680 0.30860 0.68750 -0.14300
C 	C 	0.31010 0.40510 0.75060 0.11900
N 	N 	0.42690 0.51660 0.94700 -0.26500
N 	N 	0.42350 0.27810 0.05960 -0.14100
C 	C 	0.26070 0.39440 0.69310 0.11100
N 	N 	0.37700 0.55150 0.85510 -0.27000
C 	C 	0.51630 0.10570 0.05540 0.04000
N 	N 	0.47530 0.23070 0.02560 -0.22000
N 	N 	0.32040 0.31980 0.74740 -0.13700
N 	N 	0.58080 0.99310 0.05790 -0.28200
C 	C 	0.28720 0.02370 0.69470 0.08600
H 	H 	0.27000 0.98350 0.67670 -0.01800
C 	C 	0.29670 0.27250 0.71600 0.10000
C 	C 	0.44650 0.28770 0.03040 0.11300
N 	N 	0.16910 0.52850 0.60610 -0.27400
C 	C 	0.33320 0.45740 0.78640 0.03700
C 	C 	0.35130 0.22680 0.15080 0.09900
H 	H 	0.32890 0.26370 0.15110 -0.02100
C 	C 	0.44010 0.36770 0.00120 0.02700
N 	N 	0.45990 0.15010 0.08540 -0.14000
C 	C 	0.56710 0.00890 0.09270 0.08100
H 	H 	0.57960 0.98140 0.11900 -0.02000
N 	N 	0.27980 0.44690 0.72490 -0.21900
C 	C 	0.40710 0.19390 0.11950 0.09000
C 	C 	0.34490 0.59080 0.83070 0.05300
H 	H 	0.33700 0.64910 0.83820 -0.00600
C 	C 	0.30390 0.17580 0.71600 0.06300
C 	C 	0.48210 0.16520 0.05520 0.10800
N 	N 	0.36020 0.16670 0.18030 -0.29300
C 	C 	0.36620 0.41940 0.81220 -0.11500
H 	H 	0.37410 0.35960 0.80710 0.08900
C 	C 	0.43170 0.20730 0.08490 0.11200
C 	C 	0.22800 0.44100 0.66260 0.03500
C 	C 	0.34060 0.04830 0.74620 0.06900
H 	H 	0.36270 0.02470 0.76560 -0.01500
C 	C 	0.32380 0.54750 0.79530 -0.10900
H 	H 	0.30300 0.57780 0.77690 0.06300
C 	C 	0.37360 0.24030 0.11800 -0.14200
H 	H 	0.36490 0.28160 0.09500 0.09300
C 	C 	0.46710 0.39540 0.97660 -0.09700
H 	H 	0.49100 0.36250 0.97840 0.05500
C 	C 	0.56570 0.03910 0.02270 0.07900
H 	H 	0.57740 0.03250 0.99790 -0.00800
C 	C 	0.27990 0.11520 0.69050 -0.13300
H 	H 	0.25820 0.13640 0.66980 0.08300
C 	C 	0.46070 0.46740 0.95030 0.05200
H 	H 	0.47980 0.48420 0.93370 -0.00200
C 	C 	0.18170 0.44760 0.59770 0.07400
H 	H 	0.17040 0.42120 0.57070 -0.00200
C 	C 	0.39980 0.49140 0.97100 0.04800
H 	H 	0.37660 0.52630 0.96990 -0.00600
C 	C 	0.33560 0.14010 0.74470 -0.12400
H 	H 	0.35340 0.17850 0.76300 0.08600
C 	C 	0.18710 0.56650 0.64410 0.06700
H 	H 	0.17810 0.62370 0.65200 -0.00200
C 	C 	0.38680 0.47010 0.84500 0.08200
H 	H 	0.41000 0.44460 0.86160 -0.01000
C 	C 	0.40580 0.41550 0.99710 -0.09600
H 	H 	0.38590 0.39650 0.01220 0.07200
C 	C 	0.21050 0.39710 0.62530 -0.11200
H 	H 	0.21730 0.33730 0.61870 0.08400
C 	C 	0.21650 0.52690 0.67060 -0.12200
H 	H 	0.22990 0.55840 0.69540 0.07700
C 	C 	0.53380 0.09620 0.02010 -0.12100
H 	H 	0.52420 0.12850 0.99410 0.06700
C 	C 	0.53450 0.06520 0.09340 -0.11900
H 	H 	0.52520 0.07510 0.11960 0.08600
C 	C 	0.39110 0.11660 0.17800 0.11500
H 	H 	0.39640 0.06750 0.19760 -0.03300
C 	C 	0.41520 0.12860 0.15090 -0.15900
H 	H 	0.43810 0.09220 0.15290 0.09600
H 	H 	0.48880 0.23600 0.00460 0.11100
H 	H 	0.27330 0.50340 0.72870 0.11800
I 	I 	0.76719 0.25892 0.70893 -0.38800
I 	I 	0.87469 0.33451 0.80304 -0.39800
I 	I 	0.60716 0.23478 0.60149 -0.37800
I 	I 	0.97441 0.15845 0.87263 -0.35600
I 	I 	0.64893 0.09939 0.49048 -0.37400
I 	I 	0.87421 0.23477 0.93775 -0.38400
Zn	Zn	0.62696 0.09446 0.56263 1.16500
Zn	Zn	0.91353 0.12153 0.90363 1.16500
Zn	Zn	0.82888 0.35299 0.72909 1.16300
N 	N 	0.81660 0.48980 0.72200 -0.27900
N 	N 	0.76680 0.80860 0.68750 -0.14300
C 	C 	0.81010 0.90510 0.75060 0.11900
N 	N 	0.92690 0.01660 0.94700 -0.26500
N 	N 	0.92350 0.77810 0.05960 -0.14100
C 	C 	0.76070 0.89440 0.69310 0.11100
N 	N 	0.87700 0.05150 0.85510 -0.27000
C 	C 	0.01630 0.60570 0.05540 0.03900
N 	N 	0.97530 0.73070 0.02560 -0.22000
N 	N 	0.82040 0.81980 0.74740 -0.13700
N 	N 	0.08080 0.49310 0.05790 -0.28100
C 	C 	0.78720 0.52370 0.69470 0.08600
H 	H 	0.77000 0.48350 0.67670 -0.01900
C 	C 	0.79670 0.77250 0.71600 0.10000
C 	C 	0.94650 0.78770 0.03040 0.11300
N 	N 	0.66910 0.02850 0.60610 -0.27500
C 	C 	0.83320 0.95740 0.78640 0.03700
C 	C 	0.85130 0.72680 0.15080 0.09900
H 	H 	0.82890 0.76370 0.15110 -0.02100
C 	C 	0.94010 0.86770 0.00120 0.02600
N 	N 	0.95990 0.65010 0.08540 -0.14000
C 	C 	0.06710 0.50890 0.09270 0.08100
H 	H 	0.07960 0.48140 0.11900 -0.02000
N 	N 	0.77980 0.94690 0.72490 -0.21900
C 	C 	0.90710 0.69390 0.11950 0.09000
C 	C 	0.84490 0.09080 0.83070 0.05300
H 	H 	0.83700 0.14910 0.83820 -0.00600
C 	C 	0.80390 0.67580 0.71600 0.06400
C 	C 	0.98210 0.66520 0.05520 0.10800
N 	N 	0.86020 0.66670 0.18030 -0.29300
C 	C 	0.86620 0.91940 0.81220 -0.11500
H 	H 	0.87410 0.85960 0.80710 0.09000
C 	C 	0.93170 0.70730 0.08490 0.11200
C 	C 	0.72800 0.94100 0.66260 0.03600
C 	C 	0.84060 0.54830 0.74620 0.06900
H 	H 	0.86270 0.52470 0.76560 -0.01500
C 	C 	0.82380 0.04750 0.79530 -0.11000
H 	H 	0.80300 0.07780 0.77690 0.06400
C 	C 	0.87360 0.74030 0.11800 -0.14200
H 	H 	0.86490 0.78160 0.09500 0.09300
C 	C 	0.96710 0.89540 0.97660 -0.09600
H 	H 	0.99100 0.86250 0.97840 0.05500
C 	C 	0.06570 0.53910 0.02270 0.07800
H 	H 	0.07740 0.53250 0.99790 -0.00800
C 	C 	0.77990 0.61520 0.69050 -0.13300
H 	H 	0.75820 0.63640 0.66980 0.08300
C 	C 	0.96070 0.96740 0.95030 0.05200
H 	H 	0.97980 0.98420 0.93370 -0.00200
C 	C 	0.68170 0.94760 0.59770 0.07400
H 	H 	0.67040 0.92120 0.57070 -0.00200
C 	C 	0.89980 0.99140 0.97100 0.04900
H 	H 	0.87660 0.02630 0.96990 -0.00600
C 	C 	0.83560 0.64010 0.74470 -0.12400
H 	H 	0.85340 0.67850 0.76300 0.08600
C 	C 	0.68710 0.06650 0.64410 0.06700
H 	H 	0.67810 0.12370 0.65200 -0.00200
C 	C 	0.88680 0.97010 0.84500 0.08200
H 	H 	0.91000 0.94460 0.86160 -0.01000
C 	C 	0.90580 0.91550 0.99710 -0.09500
H 	H 	0.88590 0.89650 0.01220 0.07100
C 	C 	0.71050 0.89710 0.62530 -0.11200
H 	H 	0.71730 0.83730 0.61870 0.08400
C 	C 	0.71650 0.02690 0.67060 -0.12300
H 	H 	0.72990 0.05840 0.69540 0.07700
C 	C 	0.03380 0.59620 0.02010 -0.12100
H 	H 	0.02420 0.62850 0.99410 0.06700
C 	C 	0.03450 0.56520 0.09340 -0.11900
H 	H 	0.02520 0.57510 0.11960 0.08600
C 	C 	0.89110 0.61660 0.17800 0.11500
H 	H 	0.89640 0.56750 0.19760 -0.03300
C 	C 	0.91520 0.62860 0.15090 -0.15900
H 	H 	0.93810 0.59220 0.15290 0.09600
H 	H 	0.98880 0.73600 0.00460 0.11100
H 	H 	0.77330 0.00340 0.72870 0.11800
I 	I 	0.73281 0.24108 0.29107 -0.38800
I 	I 	0.62531 0.16549 0.19696 -0.39800
I 	I 	0.89284 0.26522 0.39851 -0.37800
I 	I 	0.52559 0.34155 0.12737 -0.35600
I 	I 	0.85107 0.40061 0.50952 -0.37400
I 	I 	0.62579 0.26523 0.06225 -0.38400
Zn	Zn	0.87304 0.40554 0.43737 1.16500
Zn	Zn	0.58647 0.37847 0.09637 1.16500
Zn	Zn	0.67112 0.14701 0.27091 1.16300
N 	N 	0.68340 0.01020 0.27800 -0.27900
N 	N 	0.73320 0.69140 0.31250 -0.14300
C 	C 	0.68990 0.59490 0.24940 0.11900
N 	N 	0.57310 0.48340 0.05300 -0.26500
N 	N 	0.57650 0.72190 0.94040 -0.14100
C 	C 	0.73930 0.60560 0.30690 0.11100
N 	N 	0.62300 0.44850 0.14490 -0.27000
C 	C 	0.48370 0.89430 0.94460 0.04000
N 	N 	0.52470 0.76930 0.97440 -0.22000
N 	N 	0.67960 0.68020 0.25260 -0.13700
N 	N 	0.41920 0.00690 0.94210 -0.28200
C 	C 	0.71280 0.97630 0.30530 0.08600
H 	H 	0.73000 0.01650 0.32330 -0.01800
C 	C 	0.70330 0.72750 0.28400 0.10000
C 	C 	0.55350 0.71230 0.96960 0.11300
N 	N 	0.83090 0.47150 0.39390 -0.27400
C 	C 	0.66680 0.54260 0.21360 0.03700
C 	C 	0.64870 0.77320 0.84920 0.09900
H 	H 	0.67110 0.73630 0.84890 -0.02100
C 	C 	0.55990 0.63230 0.99880 0.02700
N 	N 	0.54010 0.84990 0.91460 -0.14000
C 	C 	0.43290 0.99110 0.90730 0.08100
H 	H 	0.42040 0.01860 0.88100 -0.02000
N 	N 	0.72020 0.55310 0.27510 -0.21900
C 	C 	0.59290 0.80610 0.88050 0.09000
C 	C 	0.65510 0.40920 0.16930 0.05300
H 	H 	0.66300 0.35090 0.16180 -0.00600
C 	C 	0.69610 0.82420 0.28400 0.06300
C 	C 	0.51790 0.83480 0.94480 0.10800
N 	N 	0.63980 0.83330 0.81970 -0.29300
C 	C 	0.63380 0.58060 0.18780 -0.11500
H 	H 	0.62590 0.64040 0.19290 0.08900
C 	C 	0.56830 0.79270 0.91510 0.11200
C 	C 	0.77200 0.55900 0.33740 0.03500
C 	C 	0.65940 0.95170 0.25380 0.06900
H 	H 	0.63730 0.97530 0.23440 -0.01500
C 	C 	0.67620 0.45250 0.20470 -0.10900
H 	H 	0.69700 0.42220 0.22310 0.06300
C 	C 	0.62640 0.75970 0.88200 -0.14200
H 	H 	0.63510 0.71840 0.90500 0.09300
C 	C 	0.53290 0.60460 0.02340 -0.09700
H 	H 	0.50900 0.63750 0.02160 0.05500
C 	C 	0.43430 0.96090 0.97730 0.07900
H 	H 	0.42260 0.96750 0.00210 -0.00800
C 	C 	0.72010 0.88480 0.30950 -0.13300
H 	H 	0.74180 0.86360 0.33020 0.08300
C 	C 	0.53930 0.53260 0.04970 0.05200
H 	H 	0.52020 0.51580 0.06630 -0.00200
C 	C 	0.81830 0.55240 0.40230 0.07400
H 	H 	0.82960 0.57880 0.42930 -0.00200
C 	C 	0.60020 0.50860 0.02900 0.04800
H 	H 	0.62340 0.47370 0.03010 -0.00600
C 	C 	0.66440 0.85990 0.25530 -0.12400
H 	H 	0.64660 0.82150 0.23700 0.08600
C 	C 	0.81290 0.43350 0.35590 0.06700
H 	H 	0.82190 0.37630 0.34800 -0.00200
C 	C 	0.61320 0.52990 0.15500 0.08200
H 	H 	0.59000 0.55540 0.13840 -0.01000
C 	C 	0.59420 0.58450 0.00290 -0.09600
H 	H 	0.61410 0.60350 0.98780 0.07200
C 	C 	0.78950 0.60290 0.37470 -0.11200
H 	H 	0.78270 0.66270 0.38130 0.08400
C 	C 	0.78350 0.47310 0.32940 -0.12200
H 	H 	0.77010 0.44160 0.30460 0.07700
C 	C 	0.46620 0.90380 0.97990 -0.12100
H 	H 	0.47580 0.87150 0.00590 0.06700
C 	C 	0.46550 0.93480 0.90660 -0.11900
H 	H 	0.47480 0.92490 0.88040 0.08600
C 	C 	0.60890 0.88340 0.82200 0.11500
H 	H 	0.60360 0.93250 0.80240 -0.03300
C 	C 	0.58480 0.87140 0.84910 -0.15900
H 	H 	0.56190 0.90780 0.84710 0.09600
H 	H 	0.51120 0.76400 0.99540 0.11100
H 	H 	0.72670 0.49660 0.27130 0.11800
I 	I 	0.23281 0.74108 0.29107 -0.38800
I 	I 	0.12531 0.66549 0.19696 -0.39800
I 	I 	0.39284 0.76522 0.39851 -0.37800
I 	I 	0.02559 0.84155 0.12737 -0.35600
I 	I 	0.35107 0.90061 0.50952 -0.37400
I 	I 	0.12579 0.76523 0.06225 -0.38400
Zn	Zn	0.37304 0.90554 0.43737 1.16500
Zn	Zn	0.08647 0.87847 0.09637 1.16500
Zn	Zn	0.17112 0.64701 0.27091 1.16300
N 	N 	0.18340 0.51020 0.27800 -0.27900
N 	N 	0.23320 0.19140 0.31250 -0.14300
C 	C 	0.18990 0.09490 0.24940 0.11900
N 	N 	0.07310 0.98340 0.05300 -0.26500
N 	N 	0.07650 0.22190 0.94040 -0.14100
C 	C 	0.23930 0.10560 0.30690 0.11100
N 	N 	0.12300 0.94850 0.14490 -0.27000
C 	C 	0.98370 0.39430 0.94460 0.03900
N 	N 	0.02470 0.26930 0.97440 -0.22000
N 	N 	0.17960 0.18020 0.25260 -0.13700
N 	N 	0.91920 0.50690 0.94210 -0.28100
C 	C 	0.21280 0.47630 0.30530 0.08600
H 	H 	0.23000 0.51650 0.32330 -0.01900
C 	C 	0.20330 0.22750 0.28400 0.10000
C 	C 	0.05350 0.21230 0.96960 0.11300
N 	N 	0.33090 0.97150 0.39390 -0.27500
C 	C 	0.16680 0.04260 0.21360 0.03700
C 	C 	0.14870 0.27320 0.84920 0.09900
H 	H 	0.17110 0.23630 0.84890 -0.02100
C 	C 	0.05990 0.13230 0.99880 0.02600
N 	N 	0.04010 0.34990 0.91460 -0.14000
C 	C 	0.93290 0.49110 0.90730 0.08100
H 	H 	0.92040 0.51860 0.88100 -0.02000
N 	N 	0.22020 0.05310 0.27510 -0.21900
C 	C 	0.09290 0.30610 0.88050 0.09000
C 	C 	0.15510 0.90920 0.16930 0.05300
H 	H 	0.16300 0.85090 0.16180 -0.00600
C 	C 	0.19610 0.32420 0.28400 0.06400
C 	C 	0.01790 0.33480 0.94480 0.10800
N 	N 	0.13980 0.33330 0.81970 -0.29300
C 	C 	0.13380 0.08060 0.18780 -0.11500
H 	H 	0.12590 0.14040 0.19290 0.09000
C 	C 	0.06830 0.29270 0.91510 0.11200
C 	C 	0.27200 0.05900 0.33740 0.03600
C 	C 	0.15940 0.45170 0.25380 0.06900
H 	H 	0.13730 0.47530 0.23440 -0.01500
C 	C 	0.17620 0.95250 0.20470 -0.11000
H 	H 	0.19700 0.92220 0.22310 0.06400
C 	C 	0.12640 0.25970 0.88200 -0.14200
H 	H 	0.13510 0.21840 0.90500 0.09300
C 	C 	0.03290 0.10460 0.02340 -0.09600
H 	H 	0.00900 0.13750 0.02160 0.05500
C 	C 	0.93430 0.46090 0.97730 0.07800
H 	H 	0.92260 0.46750 0.00210 -0.00800
C 	C 	0.22010 0.38480 0.30950 -0.13300
H 	H 	0.24180 0.36360 0.33020 0.08300
C 	C 	0.03930 0.03260 0.04970 0.05200
H 	H 	0.02020 0.01580 0.06630 -0.00200
C 	C 	0.31830 0.05240 0.40230 0.07400
H 	H 	0.32960 0.07880 0.42930 -0.00200
C 	C 	0.10020 0.00860 0.02900 0.04900
H 	H 	0.12340 0.97370 0.03010 -0.00600
C 	C 	0.16440 0.35990 0.25530 -0.12400
H 	H 	0.14660 0.32150 0.23700 0.08600
C 	C 	0.31290 0.93350 0.35590 0.06700
H 	H 	0.32190 0.87630 0.34800 -0.00200
C 	C 	0.11320 0.02990 0.15500 0.08200
H 	H 	0.09000 0.05540 0.13840 -0.01000
C 	C 	0.09420 0.08450 0.00290 -0.09500
H 	H 	0.11410 0.10350 0.98780 0.07100
C 	C 	0.28950 0.10290 0.37470 -0.11200
H 	H 	0.28270 0.16270 0.38130 0.08400
C 	C 	0.28350 0.97310 0.32940 -0.12300
H 	H 	0.27010 0.94160 0.30460 0.07700
C 	C 	0.96620 0.40380 0.97990 -0.12100
H 	H 	0.97580 0.37150 0.00590 0.06700
C 	C 	0.96550 0.43480 0.90660 -0.11900
H 	H 	0.97480 0.42490 0.88040 0.08600
C 	C 	0.10890 0.38340 0.82200 0.11500
H 	H 	0.10360 0.43250 0.80240 -0.03300
C 	C 	0.08480 0.37140 0.84910 -0.15900
H 	H 	0.06190 0.40780 0.84710 0.09600
H 	H 	0.01120 0.26400 0.99540 0.11100
H 	H 	0.22670 0.99660 0.27130 0.11800
I 	I 	0.73281 0.75892 0.79107 -0.38800
I 	I 	0.62531 0.83451 0.69696 -0.39800
I 	I 	0.89284 0.73478 0.89851 -0.37800
I 	I 	0.52559 0.65845 0.62737 -0.35600
I 	I 	0.85107 0.59939 0.00952 -0.37400
I 	I 	0.62579 0.73477 0.56225 -0.38400
Zn	Zn	0.87304 0.59446 0.93737 1.16500
Zn	Zn	0.58647 0.62153 0.59637 1.16500
Zn	Zn	0.67112 0.85299 0.77091 1.16300
N 	N 	0.68340 0.98980 0.77800 -0.27800
N 	N 	0.73320 0.30860 0.81250 -0.14400
C 	C 	0.68990 0.40510 0.74940 0.11900
N 	N 	0.57310 0.51660 0.55300 -0.26400
N 	N 	0.57650 0.27810 0.44040 -0.14100
C 	C 	0.73930 0.39440 0.80690 0.11100
N 	N 	0.62300 0.55150 0.64490 -0.27000
C 	C 	0.48370 0.10570 0.44460 0.04000
N 	N 	0.52470 0.23070 0.47440 -0.22000
N 	N 	0.67960 0.31980 0.75260 -0.13700
N 	N 	0.41920 0.99310 0.44210 -0.28100
C 	C 	0.71280 0.02370 0.80530 0.08600
H 	H 	0.73000 0.98350 0.82330 -0.01800
C 	C 	0.70330 0.27250 0.78400 0.10000
C 	C 	0.55350 0.28770 0.46960 0.11300
N 	N 	0.83090 0.52850 0.89390 -0.27400
C 	C 	0.66680 0.45740 0.71360 0.03700
C 	C 	0.64870 0.22680 0.34920 0.09900
H 	H 	0.67110 0.26370 0.34890 -0.02100
C 	C 	0.55990 0.36770 0.49880 0.02700
N 	N 	0.54010 0.15010 0.41460 -0.14000
C 	C 	0.43290 0.00890 0.40730 0.08100
H 	H 	0.42040 0.98140 0.38100 -0.02000
N 	N 	0.72020 0.44690 0.77510 -0.21900
C 	C 	0.59290 0.19390 0.38050 0.09000
C 	C 	0.65510 0.59080 0.66930 0.05300
H 	H 	0.66300 0.64910 0.66180 -0.00600
C 	C 	0.69610 0.17580 0.78400 0.06300
C 	C 	0.51790 0.16520 0.44480 0.10800
N 	N 	0.63980 0.16670 0.31970 -0.29300
C 	C 	0.63380 0.41940 0.68780 -0.11500
H 	H 	0.62590 0.35960 0.69290 0.08900
C 	C 	0.56830 0.20730 0.41510 0.11200
C 	C 	0.77200 0.44100 0.83740 0.03500
C 	C 	0.65940 0.04830 0.75380 0.06900
H 	H 	0.63730 0.02470 0.73440 -0.01500
C 	C 	0.67620 0.54750 0.70470 -0.10900
H 	H 	0.69700 0.57780 0.72310 0.06300
C 	C 	0.62640 0.24030 0.38200 -0.14200
H 	H 	0.63510 0.28160 0.40500 0.09300
C 	C 	0.53290 0.39540 0.52340 -0.09600
H 	H 	0.50900 0.36250 0.52160 0.05500
C 	C 	0.43430 0.03910 0.47730 0.07800
H 	H 	0.42260 0.03250 0.50210 -0.00800
C 	C 	0.72010 0.11520 0.80950 -0.13300
H 	H 	0.74180 0.13640 0.83020 0.08300
C 	C 	0.53930 0.46740 0.54970 0.05200
H 	H 	0.52020 0.48420 0.56630 -0.00200
C 	C 	0.81830 0.44760 0.90230 0.07400
H 	H 	0.82960 0.42120 0.92930 -0.00200
C 	C 	0.60020 0.49140 0.52900 0.04800
H 	H 	0.62340 0.52630 0.53010 -0.00600
C 	C 	0.66440 0.14010 0.75530 -0.12400
H 	H 	0.64660 0.17850 0.73700 0.08600
C 	C 	0.81290 0.56650 0.85590 0.06700
H 	H 	0.82190 0.62370 0.84800 -0.00200
C 	C 	0.61320 0.47010 0.65500 0.08200
H 	H 	0.59000 0.44460 0.63840 -0.01000
C 	C 	0.59420 0.41550 0.50290 -0.09600
H 	H 	0.61410 0.39650 0.48780 0.07100
C 	C 	0.78950 0.39710 0.87470 -0.11200
H 	H 	0.78270 0.33730 0.88130 0.08400
C 	C 	0.78350 0.52690 0.82940 -0.12200
H 	H 	0.77010 0.55840 0.80460 0.07700
C 	C 	0.46620 0.09620 0.47990 -0.12100
H 	H 	0.47580 0.12850 0.50590 0.06700
C 	C 	0.46550 0.06520 0.40660 -0.11900
H 	H 	0.47480 0.07510 0.38040 0.08600
C 	C 	0.60890 0.11660 0.32200 0.11500
H 	H 	0.60360 0.06750 0.30240 -0.03300
C 	C 	0.58480 0.12860 0.34910 -0.15900
H 	H 	0.56190 0.09220 0.34710 0.09600
H 	H 	0.51120 0.23600 0.49540 0.11100
H 	H 	0.72670 0.50340 0.77130 0.11800
I 	I 	0.23281 0.25892 0.79107 -0.38800
I 	I 	0.12531 0.33451 0.69696 -0.39800
I 	I 	0.39284 0.23478 0.89851 -0.37800
I 	I 	0.02559 0.15845 0.62737 -0.35600
I 	I 	0.35107 0.09939 0.00952 -0.37400
I 	I 	0.12579 0.23477 0.56225 -0.38400
Zn	Zn	0.37304 0.09446 0.93737 1.16500
Zn	Zn	0.08647 0.12153 0.59637 1.16500
Zn	Zn	0.17112 0.35299 0.77091 1.16300
N 	N 	0.18340 0.48980 0.77800 -0.27900
N 	N 	0.23320 0.80860 0.81250 -0.14300
C 	C 	0.18990 0.90510 0.74940 0.11900
N 	N 	0.07310 0.01660 0.55300 -0.26500
N 	N 	0.07650 0.77810 0.44040 -0.14100
C 	C 	0.23930 0.89440 0.80690 0.11100
N 	N 	0.12300 0.05150 0.64490 -0.27000
C 	C 	0.98370 0.60570 0.44460 0.03900
N 	N 	0.02470 0.73070 0.47440 -0.22000
N 	N 	0.17960 0.81980 0.75260 -0.13700
N 	N 	0.91920 0.49310 0.44210 -0.28100
C 	C 	0.21280 0.52370 0.80530 0.08600
H 	H 	0.23000 0.48350 0.82330 -0.01900
C 	C 	0.20330 0.77250 0.78400 0.10000
C 	C 	0.05350 0.78770 0.46960 0.11300
N 	N 	0.33090 0.02850 0.89390 -0.27500
C 	C 	0.16680 0.95740 0.71360 0.03700
C 	C 	0.14870 0.72680 0.34920 0.09900
H 	H 	0.17110 0.76370 0.34890 -0.02100
C 	C 	0.05990 0.86770 0.49880 0.02700
N 	N 	0.04010 0.65010 0.41460 -0.14000
C 	C 	0.93290 0.50890 0.40730 0.08100
H 	H 	0.92040 0.48140 0.38100 -0.01900
N 	N 	0.22020 0.94690 0.77510 -0.21900
C 	C 	0.09290 0.69390 0.38050 0.09000
C 	C 	0.15510 0.09080 0.66930 0.05300
H 	H 	0.16300 0.14910 0.66180 -0.00600
C 	C 	0.19610 0.67580 0.78400 0.06400
C 	C 	0.01790 0.66520 0.44480 0.10800
N 	N 	0.13980 0.66670 0.31970 -0.29300
C 	C 	0.13380 0.91940 0.68780 -0.11500
H 	H 	0.12590 0.85960 0.69290 0.09000
C 	C 	0.06830 0.70730 0.41510 0.11200
C 	C 	0.27200 0.94100 0.83740 0.03600
C 	C 	0.15940 0.54830 0.75380 0.06900
H 	H 	0.13730 0.52470 0.73440 -0.01500
C 	C 	0.17620 0.04750 0.70470 -0.11000
H 	H 	0.19700 0.07780 0.72310 0.06300
C 	C 	0.12640 0.74030 0.38200 -0.14200
H 	H 	0.13510 0.78160 0.40500 0.09300
C 	C 	0.03290 0.89540 0.52340 -0.09600
H 	H 	0.00900 0.86250 0.52160 0.05500
C 	C 	0.93430 0.53910 0.47730 0.07800
H 	H 	0.92260 0.53250 0.50210 -0.00800
C 	C 	0.22010 0.61520 0.80950 -0.13300
H 	H 	0.24180 0.63640 0.83020 0.08300
C 	C 	0.03930 0.96740 0.54970 0.05200
H 	H 	0.02020 0.98420 0.56630 -0.00200
C 	C 	0.31830 0.94760 0.90230 0.07400
H 	H 	0.32960 0.92120 0.92930 -0.00200
C 	C 	0.10020 0.99140 0.52900 0.04800
H 	H 	0.12340 0.02630 0.53010 -0.00600
C 	C 	0.16440 0.64010 0.75530 -0.12400
H 	H 	0.14660 0.67850 0.73700 0.08600
C 	C 	0.31290 0.06650 0.85590 0.06800
H 	H 	0.32190 0.12370 0.84800 -0.00200
C 	C 	0.11320 0.97010 0.65500 0.08200
H 	H 	0.09000 0.94460 0.63840 -0.01000
C 	C 	0.09420 0.91550 0.50290 -0.09600
H 	H 	0.11410 0.89650 0.48780 0.07100
C 	C 	0.28950 0.89710 0.87470 -0.11200
H 	H 	0.28270 0.83730 0.88130 0.08400
C 	C 	0.28350 0.02690 0.82940 -0.12300
H 	H 	0.27010 0.05840 0.80460 0.07700
C 	C 	0.96620 0.59620 0.47990 -0.12100
H 	H 	0.97580 0.62850 0.50590 0.06700
C 	C 	0.96550 0.56520 0.40660 -0.11900
H 	H 	0.97480 0.57510 0.38040 0.08600
C 	C 	0.10890 0.61660 0.32200 0.11500
H 	H 	0.10360 0.56750 0.30240 -0.03300
C 	C 	0.08480 0.62860 0.34910 -0.15900
H 	H 	0.06190 0.59220 0.34710 0.09600
H 	H 	0.01120 0.73600 0.49540 0.11100
H 	H 	0.22670 0.00340 0.77130 0.11800
