data_crystal

_cell_length_a 34.59220
_cell_length_b 14.81410
_cell_length_c 31.42660
_cell_angle_alpha 90.00000
_cell_angle_beta  100.79000
_cell_angle_gamma 90.00000

_symmetry_space_group_name_	'P 1'
_symmetry_space_group_name_H-M	'P 1'

loop_
_symmetry_equiv_pos_as_xyz
  x,y,z

loop_
_atom_site_label
_atom_site_type_symbol
_atom_site_fract_x
_atom_site_fract_y
_atom_site_fract_z
_atom_site_charge
I 	I 	0.26722 0.24114 0.20894 -0.38900
I 	I 	0.37469 0.16548 0.30299 -0.40000
I 	I 	0.10719 0.26518 0.10146 -0.37800
I 	I 	0.47438 0.34149 0.37269 -0.35800
I 	I 	0.14893 0.40068 0.99042 -0.37400
I 	I 	0.37413 0.26532 0.43776 -0.38400
Zn	Zn	0.12697 0.40559 0.06264 1.16400
Zn	Zn	0.41355 0.37847 0.40357 1.16400
Zn	Zn	0.32891 0.14696 0.22915 1.16300
N 	N 	0.31680 0.01040 0.22220 -0.27500
N 	N 	0.26640 0.69130 0.18760 -0.14400
C 	C 	0.31010 0.59530 0.24990 0.12200
N 	N 	0.42650 0.48380 0.44730 -0.26300
N 	N 	0.42380 0.72120 0.55970 -0.14000
C 	C 	0.26080 0.60560 0.19320 0.11100
N 	N 	0.37670 0.44880 0.35530 -0.26900
C 	C 	0.51640 0.89380 0.55540 0.03600
N 	N 	0.47540 0.76910 0.52580 -0.22200
N 	N 	0.32050 0.68020 0.24710 -0.13900
N 	N 	0.58050 0.00670 0.55760 -0.27900
C 	C 	0.28690 0.97590 0.19440 0.07600
H 	H 	0.26960 0.01580 0.17640 -0.01400
C 	C 	0.29700 0.72750 0.21610 0.10100
C 	C 	0.44650 0.71170 0.53010 0.11200
N 	N 	0.16890 0.47180 0.10620 -0.27700
C 	C 	0.33290 0.54220 0.28650 0.03400
C 	C 	0.35090 0.77450 0.65020 0.09700
H 	H 	0.32710 0.74170 0.64870 -0.02000
C 	C 	0.44010 0.63230 0.50110 0.02600
N 	N 	0.46040 0.85020 0.58550 -0.13800
C 	C 	0.56570 0.99380 0.59270 0.07100
H 	H 	0.57660 0.02600 0.61830 -0.01600
N 	N 	0.27980 0.55300 0.22510 -0.22100
C 	C 	0.40700 0.80500 0.61960 0.08600
C 	C 	0.34490 0.40860 0.33110 0.05000
H 	H 	0.33730 0.34990 0.33840 -0.00500
C 	C 	0.30410 0.82430 0.21600 0.05900
C 	C 	0.48200 0.83430 0.55480 0.11200
N 	N 	0.36050 0.83300 0.68050 -0.29200
C 	C 	0.36660 0.58110 0.31230 -0.11200
H 	H 	0.37460 0.64080 0.30720 0.08900
C 	C 	0.43140 0.79270 0.58510 0.10800
C 	C 	0.22810 0.55970 0.16240 0.03600
C 	C 	0.34070 0.95180 0.24730 0.05900
H 	H 	0.36200 0.97510 0.26780 -0.01100
C 	C 	0.32350 0.45270 0.29580 -0.10600
H 	H 	0.30240 0.42260 0.27760 0.06200
C 	C 	0.37450 0.75750 0.61900 -0.14300
H 	H 	0.36720 0.71200 0.59780 0.09300
C 	C 	0.46720 0.60520 0.47650 -0.09000
H 	H 	0.49090 0.63870 0.47810 0.05300
C 	C 	0.56540 0.96130 0.52280 0.08400
H 	H 	0.57730 0.96800 0.49810 -0.01000
C 	C 	0.27990 0.88510 0.19070 -0.12700
H 	H 	0.25810 0.86360 0.17020 0.08100
C 	C 	0.46100 0.53240 0.45020 0.04200
H 	H 	0.48020 0.51460 0.43390 0.00100
C 	C 	0.18180 0.55190 0.09810 0.08000
H 	H 	0.17020 0.57860 0.07130 -0.00500
C 	C 	0.39960 0.50950 0.47010 0.05900
H 	H 	0.37590 0.47600 0.46790 -0.01000
C 	C 	0.33560 0.85960 0.24450 -0.11600
H 	H 	0.35380 0.82070 0.26220 0.08300
C 	C 	0.18710 0.43400 0.14430 0.07000
H 	H 	0.17850 0.37620 0.15160 -0.00300
C 	C 	0.38700 0.52960 0.34490 0.08000
H 	H 	0.41050 0.55430 0.36130 -0.01100
C 	C 	0.40550 0.58420 0.49690 -0.10000
H 	H 	0.38580 0.60250 0.51240 0.07300
C 	C 	0.21080 0.60220 0.12500 -0.11600
H 	H 	0.21800 0.66150 0.11790 0.08500
C 	C 	0.21600 0.47270 0.17140 -0.12400
H 	H 	0.22850 0.44190 0.19680 0.07800
C 	C 	0.53350 0.90440 0.51940 -0.12300
H 	H 	0.52360 0.87350 0.49310 0.06800
C 	C 	0.53440 0.93460 0.59380 -0.11300
H 	H 	0.52580 0.92250 0.62020 0.08400
C 	C 	0.39140 0.88200 0.67920 0.11200
H 	H 	0.39600 0.93150 0.69870 -0.03300
C 	C 	0.41720 0.86900 0.65330 -0.15200
H 	H 	0.44130 0.90120 0.65730 0.09500
H 	H 	0.48910 0.76370 0.50500 0.11200
H 	H 	0.27300 0.49680 0.22930 0.11900
I 	I 	0.76722 0.74114 0.20894 -0.38800
I 	I 	0.87469 0.66548 0.30299 -0.39900
I 	I 	0.60719 0.76518 0.10146 -0.37800
I 	I 	0.97438 0.84149 0.37269 -0.35700
I 	I 	0.64893 0.90068 0.99042 -0.37300
I 	I 	0.87413 0.76532 0.43776 -0.38300
Zn	Zn	0.62697 0.90559 0.06264 1.16500
Zn	Zn	0.91355 0.87847 0.40357 1.16500
Zn	Zn	0.82891 0.64696 0.22915 1.16400
N 	N 	0.81680 0.51040 0.22220 -0.27400
N 	N 	0.76640 0.19130 0.18760 -0.14300
C 	C 	0.81010 0.09530 0.24990 0.12300
N 	N 	0.92650 0.98380 0.44730 -0.26300
N 	N 	0.92380 0.22120 0.55970 -0.14000
C 	C 	0.76080 0.10560 0.19320 0.11100
N 	N 	0.87670 0.94880 0.35530 -0.26900
C 	C 	0.01640 0.39380 0.55540 0.03600
N 	N 	0.97540 0.26910 0.52580 -0.22200
N 	N 	0.82050 0.18020 0.24710 -0.13900
N 	N 	0.08050 0.50670 0.55760 -0.27900
C 	C 	0.78690 0.47590 0.19440 0.07700
H 	H 	0.76960 0.51580 0.17640 -0.01500
C 	C 	0.79700 0.22750 0.21610 0.10000
C 	C 	0.94650 0.21170 0.53010 0.11200
N 	N 	0.66890 0.97180 0.10620 -0.27700
C 	C 	0.83290 0.04220 0.28650 0.03400
C 	C 	0.85090 0.27450 0.65020 0.09700
H 	H 	0.82710 0.24170 0.64870 -0.02000
C 	C 	0.94010 0.13230 0.50110 0.02600
N 	N 	0.96040 0.35020 0.58550 -0.13800
C 	C 	0.06570 0.49380 0.59270 0.07100
H 	H 	0.07660 0.52600 0.61830 -0.01600
N 	N 	0.77980 0.05300 0.22510 -0.22000
C 	C 	0.90700 0.30500 0.61960 0.08600
C 	C 	0.84490 0.90860 0.33110 0.05100
H 	H 	0.83730 0.84990 0.33840 -0.00500
C 	C 	0.80410 0.32430 0.21600 0.05900
C 	C 	0.98200 0.33430 0.55480 0.11200
N 	N 	0.86050 0.33300 0.68050 -0.29200
C 	C 	0.86660 0.08110 0.31230 -0.11200
H 	H 	0.87460 0.14080 0.30720 0.08900
C 	C 	0.93140 0.29270 0.58510 0.10800
C 	C 	0.72810 0.05970 0.16240 0.03700
C 	C 	0.84070 0.45180 0.24730 0.06000
H 	H 	0.86200 0.47510 0.26780 -0.01100
C 	C 	0.82350 0.95270 0.29580 -0.10600
H 	H 	0.80240 0.92260 0.27760 0.06200
C 	C 	0.87450 0.25750 0.61900 -0.14300
H 	H 	0.86720 0.21200 0.59780 0.09300
C 	C 	0.96720 0.10520 0.47650 -0.09000
H 	H 	0.99090 0.13870 0.47810 0.05300
C 	C 	0.06540 0.46130 0.52280 0.08400
H 	H 	0.07730 0.46800 0.49810 -0.01000
C 	C 	0.77990 0.38510 0.19070 -0.12700
H 	H 	0.75810 0.36360 0.17020 0.08100
C 	C 	0.96100 0.03240 0.45020 0.04200
H 	H 	0.98020 0.01460 0.43390 0.00100
C 	C 	0.68180 0.05190 0.09810 0.08100
H 	H 	0.67020 0.07860 0.07130 -0.00500
C 	C 	0.89960 0.00950 0.47010 0.05900
H 	H 	0.87590 0.97600 0.46790 -0.01000
C 	C 	0.83560 0.35960 0.24450 -0.11600
H 	H 	0.85380 0.32070 0.26220 0.08300
C 	C 	0.68710 0.93400 0.14430 0.07000
H 	H 	0.67850 0.87620 0.15160 -0.00300
C 	C 	0.88700 0.02960 0.34490 0.08100
H 	H 	0.91050 0.05430 0.36130 -0.01100
C 	C 	0.90550 0.08420 0.49690 -0.10000
H 	H 	0.88580 0.10250 0.51240 0.07300
C 	C 	0.71080 0.10220 0.12500 -0.11600
H 	H 	0.71800 0.16150 0.11790 0.08600
C 	C 	0.71600 0.97270 0.17140 -0.12500
H 	H 	0.72850 0.94190 0.19680 0.07800
C 	C 	0.03350 0.40440 0.51940 -0.12300
H 	H 	0.02360 0.37350 0.49310 0.06800
C 	C 	0.03440 0.43460 0.59380 -0.11300
H 	H 	0.02580 0.42250 0.62020 0.08400
C 	C 	0.89140 0.38200 0.67920 0.11200
H 	H 	0.89600 0.43150 0.69870 -0.03300
C 	C 	0.91720 0.36900 0.65330 -0.15200
H 	H 	0.94130 0.40120 0.65730 0.09500
H 	H 	0.98910 0.26370 0.50500 0.11200
H 	H 	0.77300 0.99680 0.22930 0.11900
I 	I 	0.26722 0.75886 0.70894 -0.38800
I 	I 	0.37469 0.83452 0.80299 -0.39900
I 	I 	0.10719 0.73482 0.60146 -0.37700
I 	I 	0.47438 0.65851 0.87269 -0.35700
I 	I 	0.14893 0.59932 0.49042 -0.37300
I 	I 	0.37413 0.73468 0.93776 -0.38300
Zn	Zn	0.12697 0.59441 0.56264 1.16500
Zn	Zn	0.41355 0.62153 0.90357 1.16500
Zn	Zn	0.32891 0.85304 0.72915 1.16400
N 	N 	0.31680 0.98960 0.72220 -0.27400
N 	N 	0.26640 0.30870 0.68760 -0.14300
C 	C 	0.31010 0.40470 0.74990 0.12300
N 	N 	0.42650 0.51620 0.94730 -0.26300
N 	N 	0.42380 0.27880 0.05970 -0.14000
C 	C 	0.26080 0.39440 0.69320 0.11100
N 	N 	0.37670 0.55120 0.85530 -0.26900
C 	C 	0.51640 0.10620 0.05540 0.03600
N 	N 	0.47540 0.23090 0.02580 -0.22200
N 	N 	0.32050 0.31980 0.74710 -0.13900
N 	N 	0.58050 0.99330 0.05760 -0.27900
C 	C 	0.28690 0.02410 0.69440 0.07700
H 	H 	0.26960 0.98420 0.67640 -0.01500
C 	C 	0.29700 0.27250 0.71610 0.10100
C 	C 	0.44650 0.28830 0.03010 0.11200
N 	N 	0.16890 0.52820 0.60620 -0.27700
C 	C 	0.33290 0.45780 0.78650 0.03400
C 	C 	0.35090 0.22550 0.15020 0.09700
H 	H 	0.32710 0.25830 0.14870 -0.02000
C 	C 	0.44010 0.36770 0.00110 0.02600
N 	N 	0.46040 0.14980 0.08550 -0.13800
C 	C 	0.56570 0.00620 0.09270 0.07200
H 	H 	0.57660 0.97400 0.11830 -0.01700
N 	N 	0.27980 0.44700 0.72510 -0.22100
C 	C 	0.40700 0.19500 0.11960 0.08600
C 	C 	0.34490 0.59140 0.83110 0.05000
H 	H 	0.33730 0.65010 0.83840 -0.00500
C 	C 	0.30410 0.17570 0.71600 0.05900
C 	C 	0.48200 0.16570 0.05480 0.11200
N 	N 	0.36050 0.16700 0.18050 -0.29200
C 	C 	0.36660 0.41890 0.81230 -0.11200
H 	H 	0.37460 0.35920 0.80720 0.08900
C 	C 	0.43140 0.20730 0.08510 0.10800
C 	C 	0.22810 0.44030 0.66240 0.03600
C 	C 	0.34070 0.04820 0.74730 0.05900
H 	H 	0.36200 0.02490 0.76780 -0.01100
C 	C 	0.32350 0.54730 0.79580 -0.10600
H 	H 	0.30240 0.57740 0.77760 0.06200
C 	C 	0.37450 0.24250 0.11900 -0.14300
H 	H 	0.36720 0.28800 0.09780 0.09300
C 	C 	0.46720 0.39480 0.97650 -0.09100
H 	H 	0.49090 0.36130 0.97810 0.05300
C 	C 	0.56540 0.03870 0.02280 0.08500
H 	H 	0.57730 0.03200 0.99810 -0.01000
C 	C 	0.27990 0.11490 0.69070 -0.12700
H 	H 	0.25810 0.13640 0.67020 0.08100
C 	C 	0.46100 0.46760 0.95020 0.04200
H 	H 	0.48020 0.48540 0.93390 0.00100
C 	C 	0.18180 0.44810 0.59810 0.08000
H 	H 	0.17020 0.42140 0.57130 -0.00500
C 	C 	0.39960 0.49050 0.97010 0.05900
H 	H 	0.37590 0.52400 0.96790 -0.01000
C 	C 	0.33560 0.14040 0.74450 -0.11600
H 	H 	0.35380 0.17930 0.76220 0.08300
C 	C 	0.18710 0.56600 0.64430 0.07000
H 	H 	0.17850 0.62380 0.65160 -0.00300
C 	C 	0.38700 0.47040 0.84490 0.08000
H 	H 	0.41050 0.44570 0.86130 -0.01100
C 	C 	0.40550 0.41580 0.99690 -0.10100
H 	H 	0.38580 0.39750 0.01240 0.07300
C 	C 	0.21080 0.39780 0.62500 -0.11600
H 	H 	0.21800 0.33850 0.61790 0.08500
C 	C 	0.21600 0.52730 0.67140 -0.12400
H 	H 	0.22850 0.55810 0.69680 0.07800
C 	C 	0.53350 0.09560 0.01940 -0.12300
H 	H 	0.52360 0.12650 0.99310 0.06800
C 	C 	0.53440 0.06540 0.09380 -0.11300
H 	H 	0.52580 0.07750 0.12020 0.08500
C 	C 	0.39140 0.11800 0.17920 0.11200
H 	H 	0.39600 0.06850 0.19870 -0.03300
C 	C 	0.41720 0.13100 0.15330 -0.15200
H 	H 	0.44130 0.09880 0.15730 0.09500
H 	H 	0.48910 0.23630 0.00500 0.11200
H 	H 	0.27300 0.50320 0.72930 0.11900
I 	I 	0.76722 0.25886 0.70894 -0.38800
I 	I 	0.87469 0.33452 0.80299 -0.39900
I 	I 	0.60719 0.23482 0.60146 -0.37700
I 	I 	0.97438 0.15851 0.87269 -0.35700
I 	I 	0.64893 0.09932 0.49042 -0.37300
I 	I 	0.87413 0.23468 0.93776 -0.38400
Zn	Zn	0.62697 0.09441 0.56264 1.16500
Zn	Zn	0.91355 0.12153 0.90357 1.16500
Zn	Zn	0.82891 0.35304 0.72915 1.16400
N 	N 	0.81680 0.48960 0.72220 -0.27400
N 	N 	0.76640 0.80870 0.68760 -0.14300
C 	C 	0.81010 0.90470 0.74990 0.12300
N 	N 	0.92650 0.01620 0.94730 -0.26400
N 	N 	0.92380 0.77880 0.05970 -0.14000
C 	C 	0.76080 0.89440 0.69320 0.11100
N 	N 	0.87670 0.05120 0.85530 -0.26900
C 	C 	0.01640 0.60620 0.05540 0.03600
N 	N 	0.97540 0.73090 0.02580 -0.22200
N 	N 	0.82050 0.81980 0.74710 -0.13900
N 	N 	0.08050 0.49330 0.05760 -0.27900
C 	C 	0.78690 0.52410 0.69440 0.07700
H 	H 	0.76960 0.48420 0.67640 -0.01500
C 	C 	0.79700 0.77250 0.71610 0.10000
C 	C 	0.94650 0.78830 0.03010 0.11300
N 	N 	0.66890 0.02820 0.60620 -0.27700
C 	C 	0.83290 0.95780 0.78650 0.03400
C 	C 	0.85090 0.72550 0.15020 0.09700
H 	H 	0.82710 0.75830 0.14870 -0.02000
C 	C 	0.94010 0.86770 0.00110 0.02500
N 	N 	0.96040 0.64980 0.08550 -0.13800
C 	C 	0.06570 0.50620 0.09270 0.07100
H 	H 	0.07660 0.47400 0.11830 -0.01600
N 	N 	0.77980 0.94700 0.72510 -0.22100
C 	C 	0.90700 0.69500 0.11960 0.08600
C 	C 	0.84490 0.09140 0.83110 0.05100
H 	H 	0.83730 0.15010 0.83840 -0.00500
C 	C 	0.80410 0.67570 0.71600 0.05900
C 	C 	0.98200 0.66570 0.05480 0.11200
N 	N 	0.86050 0.66700 0.18050 -0.29200
C 	C 	0.86660 0.91890 0.81230 -0.11200
H 	H 	0.87460 0.85920 0.80720 0.08900
C 	C 	0.93140 0.70730 0.08510 0.10800
C 	C 	0.72810 0.94030 0.66240 0.03600
C 	C 	0.84070 0.54820 0.74730 0.06000
H 	H 	0.86200 0.52490 0.76780 -0.01100
C 	C 	0.82350 0.04730 0.79580 -0.10600
H 	H 	0.80240 0.07740 0.77760 0.06200
C 	C 	0.87450 0.74250 0.11900 -0.14300
H 	H 	0.86720 0.78800 0.09780 0.09300
C 	C 	0.96720 0.89480 0.97650 -0.09000
H 	H 	0.99090 0.86130 0.97810 0.05300
C 	C 	0.06540 0.53870 0.02280 0.08400
H 	H 	0.07730 0.53200 0.99810 -0.01000
C 	C 	0.77990 0.61490 0.69070 -0.12700
H 	H 	0.75810 0.63640 0.67020 0.08100
C 	C 	0.96100 0.96760 0.95020 0.04200
H 	H 	0.98020 0.98540 0.93390 0.00100
C 	C 	0.68180 0.94810 0.59810 0.08000
H 	H 	0.67020 0.92140 0.57130 -0.00500
C 	C 	0.89960 0.99050 0.97010 0.06000
H 	H 	0.87590 0.02400 0.96790 -0.01000
C 	C 	0.83560 0.64040 0.74450 -0.11600
H 	H 	0.85380 0.67930 0.76220 0.08300
C 	C 	0.68710 0.06600 0.64430 0.07000
H 	H 	0.67850 0.12380 0.65160 -0.00300
C 	C 	0.88700 0.97040 0.84490 0.08100
H 	H 	0.91050 0.94570 0.86130 -0.01100
C 	C 	0.90550 0.91580 0.99690 -0.09900
H 	H 	0.88580 0.89750 0.01240 0.07300
C 	C 	0.71080 0.89780 0.62500 -0.11600
H 	H 	0.71800 0.83850 0.61790 0.08600
C 	C 	0.71600 0.02730 0.67140 -0.12500
H 	H 	0.72850 0.05810 0.69680 0.07800
C 	C 	0.03350 0.59560 0.01940 -0.12300
H 	H 	0.02360 0.62650 0.99310 0.06800
C 	C 	0.03440 0.56540 0.09380 -0.11300
H 	H 	0.02580 0.57750 0.12020 0.08400
C 	C 	0.89140 0.61800 0.17920 0.11200
H 	H 	0.89600 0.56850 0.19870 -0.03300
C 	C 	0.91720 0.63100 0.15330 -0.15200
H 	H 	0.94130 0.59880 0.15730 0.09500
H 	H 	0.98910 0.73630 0.00500 0.11200
H 	H 	0.77300 0.00320 0.72930 0.11900
I 	I 	0.73278 0.24114 0.29106 -0.38800
I 	I 	0.62531 0.16548 0.19701 -0.39900
I 	I 	0.89281 0.26518 0.39854 -0.37700
I 	I 	0.52562 0.34149 0.12731 -0.35700
I 	I 	0.85107 0.40068 0.50958 -0.37300
I 	I 	0.62587 0.26532 0.06224 -0.38300
Zn	Zn	0.87303 0.40559 0.43736 1.16500
Zn	Zn	0.58645 0.37847 0.09643 1.16500
Zn	Zn	0.67109 0.14696 0.27085 1.16400
N 	N 	0.68320 0.01040 0.27780 -0.27400
N 	N 	0.73360 0.69130 0.31240 -0.14300
C 	C 	0.68990 0.59530 0.25010 0.12300
N 	N 	0.57350 0.48380 0.05270 -0.26300
N 	N 	0.57620 0.72120 0.94030 -0.14000
C 	C 	0.73920 0.60560 0.30680 0.11100
N 	N 	0.62330 0.44880 0.14470 -0.26900
C 	C 	0.48360 0.89380 0.94460 0.03600
N 	N 	0.52460 0.76910 0.97420 -0.22200
N 	N 	0.67950 0.68020 0.25290 -0.13900
N 	N 	0.41950 0.00670 0.94240 -0.27900
C 	C 	0.71310 0.97590 0.30560 0.07700
H 	H 	0.73040 0.01580 0.32360 -0.01500
C 	C 	0.70300 0.72750 0.28390 0.10100
C 	C 	0.55350 0.71170 0.96990 0.11200
N 	N 	0.83110 0.47180 0.39380 -0.27700
C 	C 	0.66710 0.54220 0.21350 0.03400
C 	C 	0.64910 0.77450 0.84980 0.09700
H 	H 	0.67290 0.74170 0.85130 -0.02000
C 	C 	0.55990 0.63230 0.99890 0.02600
N 	N 	0.53960 0.85020 0.91450 -0.13800
C 	C 	0.43430 0.99380 0.90730 0.07200
H 	H 	0.42340 0.02600 0.88170 -0.01700
N 	N 	0.72020 0.55300 0.27490 -0.22100
C 	C 	0.59300 0.80500 0.88040 0.08600
C 	C 	0.65510 0.40860 0.16890 0.05000
H 	H 	0.66270 0.34990 0.16160 -0.00500
C 	C 	0.69590 0.82430 0.28400 0.05900
C 	C 	0.51800 0.83430 0.94520 0.11200
N 	N 	0.63950 0.83300 0.81950 -0.29200
C 	C 	0.63340 0.58110 0.18770 -0.11200
H 	H 	0.62540 0.64080 0.19280 0.08900
C 	C 	0.56860 0.79270 0.91490 0.10800
C 	C 	0.77190 0.55970 0.33760 0.03600
C 	C 	0.65930 0.95180 0.25270 0.05900
H 	H 	0.63800 0.97510 0.23220 -0.01100
C 	C 	0.67650 0.45270 0.20420 -0.10600
H 	H 	0.69760 0.42260 0.22240 0.06200
C 	C 	0.62550 0.75750 0.88100 -0.14300
H 	H 	0.63280 0.71200 0.90220 0.09300
C 	C 	0.53280 0.60520 0.02350 -0.09100
H 	H 	0.50910 0.63870 0.02190 0.05300
C 	C 	0.43460 0.96130 0.97720 0.08500
H 	H 	0.42270 0.96800 0.00190 -0.01000
C 	C 	0.72010 0.88510 0.30930 -0.12700
H 	H 	0.74190 0.86360 0.32980 0.08100
C 	C 	0.53900 0.53240 0.04980 0.04200
H 	H 	0.51980 0.51460 0.06610 0.00100
C 	C 	0.81820 0.55190 0.40190 0.08000
H 	H 	0.82980 0.57860 0.42870 -0.00500
C 	C 	0.60040 0.50950 0.02990 0.05900
H 	H 	0.62410 0.47600 0.03210 -0.01000
C 	C 	0.66440 0.85960 0.25550 -0.11600
H 	H 	0.64620 0.82070 0.23780 0.08300
C 	C 	0.81290 0.43400 0.35570 0.07000
H 	H 	0.82150 0.37620 0.34840 -0.00300
C 	C 	0.61300 0.52960 0.15510 0.08000
H 	H 	0.58950 0.55430 0.13870 -0.01100
C 	C 	0.59450 0.58420 0.00310 -0.10100
H 	H 	0.61420 0.60250 0.98760 0.07300
C 	C 	0.78920 0.60220 0.37500 -0.11600
H 	H 	0.78200 0.66150 0.38210 0.08500
C 	C 	0.78400 0.47270 0.32860 -0.12400
H 	H 	0.77150 0.44190 0.30320 0.07800
C 	C 	0.46650 0.90440 0.98060 -0.12300
H 	H 	0.47640 0.87350 0.00690 0.06800
C 	C 	0.46560 0.93460 0.90620 -0.11300
H 	H 	0.47420 0.92250 0.87980 0.08500
C 	C 	0.60860 0.88200 0.82080 0.11200
H 	H 	0.60400 0.93150 0.80130 -0.03300
C 	C 	0.58280 0.86900 0.84670 -0.15200
H 	H 	0.55870 0.90120 0.84270 0.09500
H 	H 	0.51090 0.76370 0.99500 0.11200
H 	H 	0.72700 0.49680 0.27070 0.11900
I 	I 	0.23278 0.74114 0.29106 -0.38800
I 	I 	0.12531 0.66548 0.19701 -0.39900
I 	I 	0.39281 0.76518 0.39854 -0.37700
I 	I 	0.02562 0.84149 0.12731 -0.35700
I 	I 	0.35107 0.90068 0.50958 -0.37300
I 	I 	0.12587 0.76532 0.06224 -0.38400
Zn	Zn	0.37303 0.90559 0.43736 1.16500
Zn	Zn	0.08645 0.87847 0.09643 1.16500
Zn	Zn	0.17109 0.64696 0.27085 1.16400
N 	N 	0.18320 0.51040 0.27780 -0.27400
N 	N 	0.23360 0.19130 0.31240 -0.14300
C 	C 	0.18990 0.09530 0.25010 0.12300
N 	N 	0.07350 0.98380 0.05270 -0.26400
N 	N 	0.07620 0.22120 0.94030 -0.14000
C 	C 	0.23920 0.10560 0.30680 0.11100
N 	N 	0.12330 0.94880 0.14470 -0.26900
C 	C 	0.98360 0.39380 0.94460 0.03600
N 	N 	0.02460 0.26910 0.97420 -0.22200
N 	N 	0.17950 0.18020 0.25290 -0.13900
N 	N 	0.91950 0.50670 0.94240 -0.27900
C 	C 	0.21310 0.47590 0.30560 0.07700
H 	H 	0.23040 0.51580 0.32360 -0.01500
C 	C 	0.20300 0.22750 0.28390 0.10000
C 	C 	0.05350 0.21170 0.96990 0.11300
N 	N 	0.33110 0.97180 0.39380 -0.27700
C 	C 	0.16710 0.04220 0.21350 0.03400
C 	C 	0.14910 0.27450 0.84980 0.09700
H 	H 	0.17290 0.24170 0.85130 -0.02000
C 	C 	0.05990 0.13230 0.99890 0.02500
N 	N 	0.03960 0.35020 0.91450 -0.13800
C 	C 	0.93430 0.49380 0.90730 0.07100
H 	H 	0.92340 0.52600 0.88170 -0.01600
N 	N 	0.22020 0.05300 0.27490 -0.22100
C 	C 	0.09300 0.30500 0.88040 0.08600
C 	C 	0.15510 0.90860 0.16890 0.05100
H 	H 	0.16270 0.84990 0.16160 -0.00500
C 	C 	0.19590 0.32430 0.28400 0.05900
C 	C 	0.01800 0.33430 0.94520 0.11200
N 	N 	0.13950 0.33300 0.81950 -0.29200
C 	C 	0.13340 0.08110 0.18770 -0.11200
H 	H 	0.12540 0.14080 0.19280 0.08900
C 	C 	0.06860 0.29270 0.91490 0.10800
C 	C 	0.27190 0.05970 0.33760 0.03600
C 	C 	0.15930 0.45180 0.25270 0.06000
H 	H 	0.13800 0.47510 0.23220 -0.01100
C 	C 	0.17650 0.95270 0.20420 -0.10600
H 	H 	0.19760 0.92260 0.22240 0.06200
C 	C 	0.12550 0.25750 0.88100 -0.14300
H 	H 	0.13280 0.21200 0.90220 0.09300
C 	C 	0.03280 0.10520 0.02350 -0.09000
H 	H 	0.00910 0.13870 0.02190 0.05300
C 	C 	0.93460 0.46130 0.97720 0.08400
H 	H 	0.92270 0.46800 0.00190 -0.01000
C 	C 	0.22010 0.38510 0.30930 -0.12700
H 	H 	0.24190 0.36360 0.32980 0.08100
C 	C 	0.03900 0.03240 0.04980 0.04200
H 	H 	0.01980 0.01460 0.06610 0.00100
C 	C 	0.31820 0.05190 0.40190 0.08000
H 	H 	0.32980 0.07860 0.42870 -0.00500
C 	C 	0.10040 0.00950 0.02990 0.06000
H 	H 	0.12410 0.97600 0.03210 -0.01000
C 	C 	0.16440 0.35960 0.25550 -0.11600
H 	H 	0.14620 0.32070 0.23780 0.08300
C 	C 	0.31290 0.93400 0.35570 0.07000
H 	H 	0.32150 0.87620 0.34840 -0.00300
C 	C 	0.11300 0.02960 0.15510 0.08100
H 	H 	0.08950 0.05430 0.13870 -0.01100
C 	C 	0.09450 0.08420 0.00310 -0.09900
H 	H 	0.11420 0.10250 0.98760 0.07300
C 	C 	0.28920 0.10220 0.37500 -0.11600
H 	H 	0.28200 0.16150 0.38210 0.08600
C 	C 	0.28400 0.97270 0.32860 -0.12500
H 	H 	0.27150 0.94190 0.30320 0.07800
C 	C 	0.96650 0.40440 0.98060 -0.12300
H 	H 	0.97640 0.37350 0.00690 0.06800
C 	C 	0.96560 0.43460 0.90620 -0.11300
H 	H 	0.97420 0.42250 0.87980 0.08400
C 	C 	0.10860 0.38200 0.82080 0.11200
H 	H 	0.10400 0.43150 0.80130 -0.03300
C 	C 	0.08280 0.36900 0.84670 -0.15200
H 	H 	0.05870 0.40120 0.84270 0.09500
H 	H 	0.01090 0.26370 0.99500 0.11200
H 	H 	0.22700 0.99680 0.27070 0.11900
I 	I 	0.73278 0.75886 0.79106 -0.38800
I 	I 	0.62531 0.83452 0.69701 -0.39900
I 	I 	0.89281 0.73482 0.89854 -0.37700
I 	I 	0.52562 0.65851 0.62731 -0.35700
I 	I 	0.85107 0.59932 0.00958 -0.37300
I 	I 	0.62587 0.73468 0.56224 -0.38300
Zn	Zn	0.87303 0.59441 0.93736 1.16500
Zn	Zn	0.58645 0.62153 0.59643 1.16500
Zn	Zn	0.67109 0.85304 0.77085 1.16400
N 	N 	0.68320 0.98960 0.77780 -0.27400
N 	N 	0.73360 0.30870 0.81240 -0.14300
C 	C 	0.68990 0.40470 0.75010 0.12300
N 	N 	0.57350 0.51620 0.55270 -0.26300
N 	N 	0.57620 0.27880 0.44030 -0.14000
C 	C 	0.73920 0.39440 0.80680 0.11100
N 	N 	0.62330 0.55120 0.64470 -0.26900
C 	C 	0.48360 0.10620 0.44460 0.03600
N 	N 	0.52460 0.23090 0.47420 -0.22200
N 	N 	0.67950 0.31980 0.75290 -0.13900
N 	N 	0.41950 0.99330 0.44240 -0.27900
C 	C 	0.71310 0.02410 0.80560 0.07600
H 	H 	0.73040 0.98420 0.82360 -0.01400
C 	C 	0.70300 0.27250 0.78390 0.10100
C 	C 	0.55350 0.28830 0.46990 0.11200
N 	N 	0.83110 0.52820 0.89380 -0.27700
C 	C 	0.66710 0.45780 0.71350 0.03400
C 	C 	0.64910 0.22550 0.34980 0.09700
H 	H 	0.67290 0.25830 0.35130 -0.02000
C 	C 	0.55990 0.36770 0.49890 0.02600
N 	N 	0.53960 0.14980 0.41450 -0.13800
C 	C 	0.43430 0.00620 0.40730 0.07100
H 	H 	0.42340 0.97400 0.38170 -0.01600
N 	N 	0.72020 0.44700 0.77490 -0.22100
C 	C 	0.59300 0.19500 0.38040 0.08600
C 	C 	0.65510 0.59140 0.66890 0.05000
H 	H 	0.66270 0.65010 0.66160 -0.00500
C 	C 	0.69590 0.17570 0.78400 0.05900
C 	C 	0.51800 0.16570 0.44520 0.11200
N 	N 	0.63950 0.16700 0.31950 -0.29200
C 	C 	0.63340 0.41890 0.68770 -0.11200
H 	H 	0.62540 0.35920 0.69280 0.08900
C 	C 	0.56860 0.20730 0.41490 0.10800
C 	C 	0.77190 0.44030 0.83760 0.03600
C 	C 	0.65930 0.04820 0.75270 0.05900
H 	H 	0.63800 0.02490 0.73220 -0.01100
C 	C 	0.67650 0.54730 0.70420 -0.10600
H 	H 	0.69760 0.57740 0.72240 0.06200
C 	C 	0.62550 0.24250 0.38100 -0.14300
H 	H 	0.63280 0.28800 0.40220 0.09300
C 	C 	0.53280 0.39480 0.52350 -0.09000
H 	H 	0.50910 0.36130 0.52190 0.05300
C 	C 	0.43460 0.03870 0.47720 0.08400
H 	H 	0.42270 0.03200 0.50190 -0.01000
C 	C 	0.72010 0.11490 0.80930 -0.12700
H 	H 	0.74190 0.13640 0.82980 0.08100
C 	C 	0.53900 0.46760 0.54980 0.04200
H 	H 	0.51980 0.48540 0.56610 0.00100
C 	C 	0.81820 0.44810 0.90190 0.08000
H 	H 	0.82980 0.42140 0.92870 -0.00500
C 	C 	0.60040 0.49050 0.52990 0.05900
H 	H 	0.62410 0.52400 0.53210 -0.01000
C 	C 	0.66440 0.14040 0.75550 -0.11600
H 	H 	0.64620 0.17930 0.73780 0.08300
C 	C 	0.81290 0.56600 0.85570 0.07000
H 	H 	0.82150 0.62380 0.84840 -0.00300
C 	C 	0.61300 0.47040 0.65510 0.08000
H 	H 	0.58950 0.44570 0.63870 -0.01100
C 	C 	0.59450 0.41580 0.50310 -0.10000
H 	H 	0.61420 0.39750 0.48760 0.07300
C 	C 	0.78920 0.39780 0.87500 -0.11600
H 	H 	0.78200 0.33850 0.88210 0.08500
C 	C 	0.78400 0.52730 0.82860 -0.12400
H 	H 	0.77150 0.55810 0.80320 0.07800
C 	C 	0.46650 0.09560 0.48060 -0.12300
H 	H 	0.47640 0.12650 0.50690 0.06800
C 	C 	0.46560 0.06540 0.40620 -0.11300
H 	H 	0.47420 0.07750 0.37980 0.08400
C 	C 	0.60860 0.11800 0.32080 0.11200
H 	H 	0.60400 0.06850 0.30130 -0.03300
C 	C 	0.58280 0.13100 0.34670 -0.15200
H 	H 	0.55870 0.09880 0.34270 0.09500
H 	H 	0.51090 0.23630 0.49500 0.11200
H 	H 	0.72700 0.50320 0.77070 0.11900
I 	I 	0.23278 0.25886 0.79106 -0.38800
I 	I 	0.12531 0.33452 0.69701 -0.39900
I 	I 	0.39281 0.23482 0.89854 -0.37800
I 	I 	0.02562 0.15851 0.62731 -0.35700
I 	I 	0.35107 0.09932 0.00958 -0.37300
I 	I 	0.12587 0.23468 0.56224 -0.38300
Zn	Zn	0.37303 0.09441 0.93736 1.16500
Zn	Zn	0.08645 0.12153 0.59643 1.16500
Zn	Zn	0.17109 0.35304 0.77085 1.16400
N 	N 	0.18320 0.48960 0.77780 -0.27400
N 	N 	0.23360 0.80870 0.81240 -0.14300
C 	C 	0.18990 0.90470 0.75010 0.12300
N 	N 	0.07350 0.01620 0.55270 -0.26300
N 	N 	0.07620 0.77880 0.44030 -0.14000
C 	C 	0.23920 0.89440 0.80680 0.11100
N 	N 	0.12330 0.05120 0.64470 -0.26900
C 	C 	0.98360 0.60620 0.44460 0.03600
N 	N 	0.02460 0.73090 0.47420 -0.22200
N 	N 	0.17950 0.81980 0.75290 -0.13900
N 	N 	0.91950 0.49330 0.44240 -0.27900
C 	C 	0.21310 0.52410 0.80560 0.07700
H 	H 	0.23040 0.48420 0.82360 -0.01500
C 	C 	0.20300 0.77250 0.78390 0.10000
C 	C 	0.05350 0.78830 0.46990 0.11200
N 	N 	0.33110 0.02820 0.89380 -0.27700
C 	C 	0.16710 0.95780 0.71350 0.03400
C 	C 	0.14910 0.72550 0.34980 0.09700
H 	H 	0.17290 0.75830 0.35130 -0.02000
C 	C 	0.05990 0.86770 0.49890 0.02600
N 	N 	0.03960 0.64980 0.41450 -0.13800
C 	C 	0.93430 0.50620 0.40730 0.07100
H 	H 	0.92340 0.47400 0.38170 -0.01600
N 	N 	0.22020 0.94700 0.77490 -0.22000
C 	C 	0.09300 0.69500 0.38040 0.08600
C 	C 	0.15510 0.09140 0.66890 0.05100
H 	H 	0.16270 0.15010 0.66160 -0.00500
C 	C 	0.19590 0.67570 0.78400 0.05900
C 	C 	0.01800 0.66570 0.44520 0.11200
N 	N 	0.13950 0.66700 0.31950 -0.29200
C 	C 	0.13340 0.91890 0.68770 -0.11200
H 	H 	0.12540 0.85920 0.69280 0.08900
C 	C 	0.06860 0.70730 0.41490 0.10800
C 	C 	0.27190 0.94030 0.83760 0.03700
C 	C 	0.15930 0.54820 0.75270 0.06000
H 	H 	0.13800 0.52490 0.73220 -0.01100
C 	C 	0.17650 0.04730 0.70420 -0.10600
H 	H 	0.19760 0.07740 0.72240 0.06200
C 	C 	0.12550 0.74250 0.38100 -0.14300
H 	H 	0.13280 0.78800 0.40220 0.09300
C 	C 	0.03280 0.89480 0.52350 -0.09000
H 	H 	0.00910 0.86130 0.52190 0.05300
C 	C 	0.93460 0.53870 0.47720 0.08400
H 	H 	0.92270 0.53200 0.50190 -0.01000
C 	C 	0.22010 0.61490 0.80930 -0.12700
H 	H 	0.24190 0.63640 0.82980 0.08100
C 	C 	0.03900 0.96760 0.54980 0.04200
H 	H 	0.01980 0.98540 0.56610 0.00100
C 	C 	0.31820 0.94810 0.90190 0.08100
H 	H 	0.32980 0.92140 0.92870 -0.00500
C 	C 	0.10040 0.99050 0.52990 0.05900
H 	H 	0.12410 0.02400 0.53210 -0.01000
C 	C 	0.16440 0.64040 0.75550 -0.11600
H 	H 	0.14620 0.67930 0.73780 0.08300
C 	C 	0.31290 0.06600 0.85570 0.07000
H 	H 	0.32150 0.12380 0.84840 -0.00300
C 	C 	0.11300 0.97040 0.65510 0.08100
H 	H 	0.08950 0.94570 0.63870 -0.01100
C 	C 	0.09450 0.91580 0.50310 -0.10000
H 	H 	0.11420 0.89750 0.48760 0.07300
C 	C 	0.28920 0.89780 0.87500 -0.11600
H 	H 	0.28200 0.83850 0.88210 0.08600
C 	C 	0.28400 0.02730 0.82860 -0.12500
H 	H 	0.27150 0.05810 0.80320 0.07800
C 	C 	0.96650 0.59560 0.48060 -0.12300
H 	H 	0.97640 0.62650 0.50690 0.06800
C 	C 	0.96560 0.56540 0.40620 -0.11300
H 	H 	0.97420 0.57750 0.37980 0.08400
C 	C 	0.10860 0.61800 0.32080 0.11200
H 	H 	0.10400 0.56850 0.30130 -0.03300
C 	C 	0.08280 0.63100 0.34670 -0.15200
H 	H 	0.05870 0.59880 0.34270 0.09500
H 	H 	0.01090 0.73630 0.49500 0.11200
H 	H 	0.22700 0.00320 0.77070 0.11900
