data_crystal

_cell_length_a 33.68890
_cell_length_b 14.64640
_cell_length_c 31.95210
_cell_angle_alpha 90.00000
_cell_angle_beta  99.14920
_cell_angle_gamma 90.00000

_symmetry_space_group_name_	'P 1'
_symmetry_space_group_name_H-M	'P 1'

loop_
_symmetry_equiv_pos_as_xyz
  x,y,z

loop_
_atom_site_label
_atom_site_type_symbol
_atom_site_fract_x
_atom_site_fract_y
_atom_site_fract_z
_atom_site_charge
I 	I 	0.76451 0.22715 0.70710 -0.37700
I 	I 	0.59939 0.26242 0.60588 -0.37800
I 	I 	0.65306 0.36741 0.49533 -0.37300
I 	I 	0.87511 0.16038 0.79876 -0.40200
I 	I 	0.85997 0.26725 0.93928 -0.37900
I 	I 	0.97068 0.32364 0.87748 -0.35100
Zn	Zn	0.82932 0.13743 0.72841 1.16300
Zn	Zn	0.62675 0.39018 0.56414 1.16400
Zn	Zn	0.90722 0.36932 0.90581 1.16300
N 	N 	0.81861 0.99850 0.72174 -0.27400
N 	N 	0.92171 0.47830 0.94692 -0.26900
N 	N 	0.67050 0.45500 0.60651 -0.27200
N 	N 	0.97583 0.76570 0.02142 -0.14700
N 	N 	0.76894 0.67700 0.68688 -0.13900
C 	C 	0.78270 0.87100 0.68840 -0.12100
H 	H 	0.76210 0.84820 0.66710 0.08000
N 	N 	0.92361 0.71670 0.05823 -0.13300
N 	N 	0.87294 0.43550 0.85580 -0.27200
N 	N 	0.82132 0.66520 0.74569 -0.13500
C 	C 	0.96650 0.59680 0.97610 -0.10800
H 	H 	0.99180 0.62610 0.97780 0.07200
C 	C 	0.68240 0.53990 0.59870 0.07000
H 	H 	0.67030 0.56920 0.57330 -0.00100
C 	C 	0.84160 0.94110 0.74730 0.06600
H 	H 	0.86260 0.96540 0.76760 -0.01200
C 	C 	0.72980 0.54330 0.66250 0.04900
C 	C 	0.82340 0.43680 0.79400 -0.12800
H 	H 	0.80320 0.40510 0.77550 0.08000
C 	C 	0.80610 0.81200 0.71530 0.05900
C 	C 	0.76158 0.58790 0.69240 0.08800
C 	C 	0.84360 0.39420 0.82920 0.07000
H 	H 	0.83650 0.33330 0.83510 -0.01000
C 	C 	0.83610 0.84800 0.74550 -0.11800
H 	H 	0.85270 0.80900 0.76460 0.08500
C 	C 	0.79843 0.71170 0.71500 0.10500
C 	C 	0.81050 0.57800 0.74910 0.10100
C 	C 	0.93835 0.62870 0.99960 0.04600
C 	C 	0.71740 0.45610 0.67060 -0.12400
H 	H 	0.72940 0.42480 0.69550 0.09200
C 	C 	0.83270 0.52650 0.78570 0.05900
C 	C 	0.95730 0.52130 0.95010 0.06100
H 	H 	0.97680 0.49940 0.93410 -0.00400
C 	C 	0.93030 0.79250 0.08140 0.10700
C 	C 	0.68760 0.41450 0.64220 0.07100
H 	H 	0.67890 0.35500 0.64850 -0.00500
C 	C 	0.94646 0.70810 0.02800 0.09300
C 	C 	0.01846 0.89150 0.05083 0.03300
C 	C 	0.03718 0.90580 0.01563 -0.10100
H 	H 	0.02770 0.87520 0.98980 0.07000
C 	C 	0.06973 0.96510 0.01829 0.04600
H 	H 	0.08250 0.97490 0.99420 0.00600
N 	N 	0.08355 0.00990 0.05613 -0.26000
C 	C 	0.06480 0.99560 0.09133 0.03500
H 	H 	0.07430 0.02620 0.11720 -0.00100
C 	C 	0.03230 0.93640 0.08868 -0.09400
H 	H 	0.01950 0.92650 0.11270 0.08100
C 	C 	0.89440 0.50900 0.96970 0.06500
H 	H 	0.86920 0.47890 0.96730 -0.01100
C 	C 	0.90180 0.58320 0.99660 -0.11600
H 	H 	0.88210 0.60290 0.01280 0.08100
C 	C 	0.71120 0.58650 0.62570 -0.11600
H 	H 	0.71830 0.64720 0.61940 0.08700
C 	C 	0.86300 0.56950 0.81290 -0.11800
H 	H 	0.87030 0.63090 0.80810 0.09200
N 	N 	0.78064 0.53610 0.72389 -0.14000
C 	C 	0.88240 0.52120 0.84710 0.07100
H 	H 	0.90370 0.55030 0.86540 -0.00400
C 	C 	0.78950 0.96380 0.69270 0.07200
H 	H 	0.77290 0.00440 0.67440 -0.01200
N 	N 	0.95834 0.85430 0.07760 -0.13700
C 	C 	0.98120 0.83570 0.04850 0.10200
C 	C 	0.87980 0.74440 0.12610 -0.13200
H 	H 	0.87710 0.68700 0.11210 0.09100
C 	C 	0.90510 0.80880 0.11460 0.07600
C 	C 	0.85840 0.76300 0.15810 0.09000
H 	H 	0.84100 0.71710 0.16580 -0.01900
C 	C 	0.90510 0.89280 0.13370 -0.12700
H 	H 	0.92060 0.94140 0.12490 0.08600
C 	C 	0.88270 0.90660 0.16560 0.08200
H 	H 	0.88320 0.96490 0.17870 -0.01800
N 	N 	0.86046 0.84080 0.17870 -0.28000
I 	I 	0.26451 0.72715 0.70710 -0.37600
I 	I 	0.09939 0.76242 0.60588 -0.37700
I 	I 	0.15306 0.86741 0.49533 -0.37200
I 	I 	0.37511 0.66038 0.79876 -0.40000
I 	I 	0.35997 0.76725 0.93928 -0.37800
I 	I 	0.47068 0.82364 0.87748 -0.35000
Zn	Zn	0.32932 0.63743 0.72841 1.16400
Zn	Zn	0.12675 0.89018 0.56414 1.16500
Zn	Zn	0.40722 0.86932 0.90581 1.16400
N 	N 	0.31861 0.49850 0.72174 -0.27300
N 	N 	0.42171 0.97830 0.94692 -0.26800
N 	N 	0.17050 0.95500 0.60651 -0.27100
N 	N 	0.47583 0.26570 0.02142 -0.14700
N 	N 	0.26894 0.17700 0.68688 -0.13900
C 	C 	0.28270 0.37100 0.68840 -0.12100
H 	H 	0.26210 0.34820 0.66710 0.08000
N 	N 	0.42361 0.21670 0.05823 -0.13300
N 	N 	0.37294 0.93550 0.85580 -0.27100
N 	N 	0.32132 0.16520 0.74569 -0.13500
C 	C 	0.46650 0.09680 0.97610 -0.10800
H 	H 	0.49180 0.12610 0.97780 0.07200
C 	C 	0.18240 0.03990 0.59870 0.07000
H 	H 	0.17030 0.06920 0.57330 -0.00100
C 	C 	0.34160 0.44110 0.74730 0.06600
H 	H 	0.36260 0.46540 0.76760 -0.01200
C 	C 	0.22980 0.04330 0.66250 0.04900
C 	C 	0.32340 0.93680 0.79400 -0.12700
H 	H 	0.30320 0.90510 0.77550 0.07900
C 	C 	0.30610 0.31200 0.71530 0.05900
C 	C 	0.26158 0.08790 0.69240 0.08800
C 	C 	0.34360 0.89420 0.82920 0.07000
H 	H 	0.33650 0.83330 0.83510 -0.01000
C 	C 	0.33610 0.34800 0.74550 -0.11800
H 	H 	0.35270 0.30900 0.76460 0.08500
C 	C 	0.29843 0.21170 0.71500 0.10500
C 	C 	0.31050 0.07800 0.74910 0.10100
C 	C 	0.43835 0.12870 0.99960 0.04600
C 	C 	0.21740 0.95610 0.67060 -0.12400
H 	H 	0.22940 0.92480 0.69550 0.09200
C 	C 	0.33270 0.02650 0.78570 0.05800
C 	C 	0.45730 0.02130 0.95010 0.06000
H 	H 	0.47680 0.99940 0.93410 -0.00400
C 	C 	0.43030 0.29250 0.08140 0.10700
C 	C 	0.18760 0.91450 0.64220 0.07100
H 	H 	0.17890 0.85500 0.64850 -0.00500
C 	C 	0.44646 0.20810 0.02800 0.09300
C 	C 	0.51846 0.39150 0.05083 0.03300
C 	C 	0.53718 0.40580 0.01563 -0.10100
H 	H 	0.52770 0.37520 0.98980 0.07000
C 	C 	0.56973 0.46510 0.01829 0.04600
H 	H 	0.58250 0.47490 0.99420 0.00600
N 	N 	0.58355 0.50990 0.05613 -0.26000
C 	C 	0.56480 0.49560 0.09133 0.03600
H 	H 	0.57430 0.52620 0.11720 -0.00100
C 	C 	0.53230 0.43640 0.08868 -0.09500
H 	H 	0.51950 0.42650 0.11270 0.08100
C 	C 	0.39440 0.00900 0.96970 0.06400
H 	H 	0.36920 0.97890 0.96730 -0.01100
C 	C 	0.40180 0.08320 0.99660 -0.11500
H 	H 	0.38210 0.10290 0.01280 0.08100
C 	C 	0.21120 0.08650 0.62570 -0.11600
H 	H 	0.21830 0.14720 0.61940 0.08700
C 	C 	0.36300 0.06950 0.81290 -0.11800
H 	H 	0.37030 0.13090 0.80810 0.09100
N 	N 	0.28064 0.03610 0.72389 -0.14100
C 	C 	0.38240 0.02120 0.84710 0.07000
H 	H 	0.40370 0.05030 0.86540 -0.00400
C 	C 	0.28950 0.46380 0.69270 0.07100
H 	H 	0.27290 0.50440 0.67440 -0.01100
N 	N 	0.45834 0.35430 0.07760 -0.13700
C 	C 	0.48120 0.33570 0.04850 0.10200
C 	C 	0.37980 0.24440 0.12610 -0.13200
H 	H 	0.37710 0.18700 0.11210 0.09100
C 	C 	0.40510 0.30880 0.11460 0.07600
C 	C 	0.35840 0.26300 0.15810 0.09000
H 	H 	0.34100 0.21710 0.16580 -0.01900
C 	C 	0.40510 0.39280 0.13370 -0.12700
H 	H 	0.42060 0.44140 0.12490 0.08600
C 	C 	0.38270 0.40660 0.16560 0.08200
H 	H 	0.38320 0.46490 0.17870 -0.01800
N 	N 	0.36046 0.34080 0.17870 -0.28000
I 	I 	0.76451 0.77285 0.20710 -0.37600
I 	I 	0.59939 0.73758 0.10588 -0.37700
I 	I 	0.65306 0.63259 0.99533 -0.37200
I 	I 	0.87511 0.83962 0.29876 -0.40100
I 	I 	0.85997 0.73275 0.43928 -0.37800
I 	I 	0.97068 0.67636 0.37748 -0.35000
Zn	Zn	0.82932 0.86257 0.22841 1.16400
Zn	Zn	0.62675 0.60982 0.06414 1.16500
Zn	Zn	0.90722 0.63068 0.40581 1.16400
N 	N 	0.81861 0.00150 0.22174 -0.27300
N 	N 	0.92171 0.52170 0.44692 -0.26900
N 	N 	0.67050 0.54500 0.10651 -0.27200
N 	N 	0.97583 0.23430 0.52142 -0.14700
N 	N 	0.76894 0.32300 0.18688 -0.13900
C 	C 	0.78270 0.12900 0.18840 -0.12200
H 	H 	0.76210 0.15180 0.16710 0.08000
N 	N 	0.92361 0.28330 0.55823 -0.13300
N 	N 	0.87294 0.56450 0.35580 -0.27200
N 	N 	0.82132 0.33480 0.24569 -0.13500
C 	C 	0.96650 0.40320 0.47610 -0.10800
H 	H 	0.99180 0.37390 0.47780 0.07200
C 	C 	0.68240 0.46010 0.09870 0.07000
H 	H 	0.67030 0.43080 0.07330 -0.00100
C 	C 	0.84160 0.05890 0.24730 0.06600
H 	H 	0.86260 0.03460 0.26760 -0.01200
C 	C 	0.72980 0.45670 0.16250 0.04900
C 	C 	0.82340 0.56320 0.29400 -0.12800
H 	H 	0.80320 0.59490 0.27550 0.08000
C 	C 	0.80610 0.18800 0.21530 0.05900
C 	C 	0.76158 0.41210 0.19240 0.08800
C 	C 	0.84360 0.60580 0.32920 0.07000
H 	H 	0.83650 0.66670 0.33510 -0.01000
C 	C 	0.83610 0.15200 0.24550 -0.11800
H 	H 	0.85270 0.19100 0.26460 0.08500
C 	C 	0.79843 0.28830 0.21500 0.10500
C 	C 	0.81050 0.42200 0.24910 0.10100
C 	C 	0.93835 0.37130 0.49960 0.04600
C 	C 	0.71740 0.54390 0.17060 -0.12400
H 	H 	0.72940 0.57520 0.19550 0.09200
C 	C 	0.83270 0.47350 0.28570 0.05900
C 	C 	0.95730 0.47870 0.45010 0.06100
H 	H 	0.97680 0.50060 0.43410 -0.00400
C 	C 	0.93030 0.20750 0.58140 0.10700
C 	C 	0.68760 0.58550 0.14220 0.07100
H 	H 	0.67890 0.64500 0.14850 -0.00500
C 	C 	0.94646 0.29190 0.52800 0.09300
C 	C 	0.01846 0.10850 0.55083 0.03300
C 	C 	0.03718 0.09420 0.51563 -0.10100
H 	H 	0.02770 0.12480 0.48980 0.07000
C 	C 	0.06973 0.03490 0.51829 0.04600
H 	H 	0.08250 0.02510 0.49420 0.00600
N 	N 	0.08355 0.99010 0.55613 -0.26000
C 	C 	0.06480 0.00440 0.59133 0.03500
H 	H 	0.07430 0.97380 0.61720 -0.00100
C 	C 	0.03230 0.06360 0.58868 -0.09400
H 	H 	0.01950 0.07350 0.61270 0.08100
C 	C 	0.89440 0.49100 0.46970 0.06500
H 	H 	0.86920 0.52110 0.46730 -0.01100
C 	C 	0.90180 0.41680 0.49660 -0.11600
H 	H 	0.88210 0.39710 0.51280 0.08100
C 	C 	0.71120 0.41350 0.12570 -0.11600
H 	H 	0.71830 0.35280 0.11940 0.08700
C 	C 	0.86300 0.43050 0.31290 -0.11800
H 	H 	0.87030 0.36910 0.30810 0.09200
N 	N 	0.78064 0.46390 0.22389 -0.14000
C 	C 	0.88240 0.47880 0.34710 0.07100
H 	H 	0.90370 0.44970 0.36540 -0.00400
C 	C 	0.78950 0.03620 0.19270 0.07200
H 	H 	0.77290 0.99560 0.17440 -0.01200
N 	N 	0.95834 0.14570 0.57760 -0.13700
C 	C 	0.98120 0.16430 0.54850 0.10200
C 	C 	0.87980 0.25560 0.62610 -0.13200
H 	H 	0.87710 0.31300 0.61210 0.09100
C 	C 	0.90510 0.19120 0.61460 0.07600
C 	C 	0.85840 0.23700 0.65810 0.09000
H 	H 	0.84100 0.28290 0.66580 -0.01900
C 	C 	0.90510 0.10720 0.63370 -0.12700
H 	H 	0.92060 0.05860 0.62490 0.08600
C 	C 	0.88270 0.09340 0.66560 0.08200
H 	H 	0.88320 0.03510 0.67870 -0.01800
N 	N 	0.86046 0.15920 0.67870 -0.28000
I 	I 	0.26451 0.27285 0.20710 -0.37600
I 	I 	0.09939 0.23758 0.10588 -0.37700
I 	I 	0.15306 0.13259 0.99533 -0.37200
I 	I 	0.37511 0.33962 0.29876 -0.40000
I 	I 	0.35997 0.23275 0.43928 -0.37800
I 	I 	0.47068 0.17636 0.37748 -0.35000
Zn	Zn	0.32932 0.36257 0.22841 1.16400
Zn	Zn	0.12675 0.10982 0.06414 1.16500
Zn	Zn	0.40722 0.13068 0.40581 1.16400
N 	N 	0.31861 0.50150 0.22174 -0.27300
N 	N 	0.42171 0.02170 0.44692 -0.26800
N 	N 	0.17050 0.04500 0.10651 -0.27100
N 	N 	0.47583 0.73430 0.52142 -0.14700
N 	N 	0.26894 0.82300 0.18688 -0.13900
C 	C 	0.28270 0.62900 0.18840 -0.12100
H 	H 	0.26210 0.65180 0.16710 0.08000
N 	N 	0.42361 0.78330 0.55823 -0.13300
N 	N 	0.37294 0.06450 0.35580 -0.27100
N 	N 	0.32132 0.83480 0.24569 -0.13500
C 	C 	0.46650 0.90320 0.47610 -0.10800
H 	H 	0.49180 0.87390 0.47780 0.07200
C 	C 	0.18240 0.96010 0.09870 0.07000
H 	H 	0.17030 0.93080 0.07330 -0.00100
C 	C 	0.34160 0.55890 0.24730 0.06600
H 	H 	0.36260 0.53460 0.26760 -0.01200
C 	C 	0.22980 0.95670 0.16250 0.04900
C 	C 	0.32340 0.06320 0.29400 -0.12700
H 	H 	0.30320 0.09490 0.27550 0.07900
C 	C 	0.30610 0.68800 0.21530 0.05900
C 	C 	0.26158 0.91210 0.19240 0.08800
C 	C 	0.34360 0.10580 0.32920 0.07000
H 	H 	0.33650 0.16670 0.33510 -0.01000
C 	C 	0.33610 0.65200 0.24550 -0.11800
H 	H 	0.35270 0.69100 0.26460 0.08500
C 	C 	0.29843 0.78830 0.21500 0.10500
C 	C 	0.31050 0.92200 0.24910 0.10100
C 	C 	0.43835 0.87130 0.49960 0.04600
C 	C 	0.21740 0.04390 0.17060 -0.12400
H 	H 	0.22940 0.07520 0.19550 0.09200
C 	C 	0.33270 0.97350 0.28570 0.05800
C 	C 	0.45730 0.97870 0.45010 0.06000
H 	H 	0.47680 0.00060 0.43410 -0.00400
C 	C 	0.43030 0.70750 0.58140 0.10700
C 	C 	0.18760 0.08550 0.14220 0.07100
H 	H 	0.17890 0.14500 0.14850 -0.00500
C 	C 	0.44646 0.79190 0.52800 0.09300
C 	C 	0.51846 0.60850 0.55083 0.03300
C 	C 	0.53718 0.59420 0.51563 -0.10100
H 	H 	0.52770 0.62480 0.48980 0.07000
C 	C 	0.56973 0.53490 0.51829 0.04600
H 	H 	0.58250 0.52510 0.49420 0.00600
N 	N 	0.58355 0.49010 0.55613 -0.26000
C 	C 	0.56480 0.50440 0.59133 0.03600
H 	H 	0.57430 0.47380 0.61720 -0.00100
C 	C 	0.53230 0.56360 0.58868 -0.09500
H 	H 	0.51950 0.57350 0.61270 0.08100
C 	C 	0.39440 0.99100 0.46970 0.06400
H 	H 	0.36920 0.02110 0.46730 -0.01100
C 	C 	0.40180 0.91680 0.49660 -0.11500
H 	H 	0.38210 0.89710 0.51280 0.08100
C 	C 	0.21120 0.91350 0.12570 -0.11600
H 	H 	0.21830 0.85280 0.11940 0.08700
C 	C 	0.36300 0.93050 0.31290 -0.11800
H 	H 	0.37030 0.86910 0.30810 0.09100
N 	N 	0.28064 0.96390 0.22389 -0.14100
C 	C 	0.38240 0.97880 0.34710 0.07000
H 	H 	0.40370 0.94970 0.36540 -0.00400
C 	C 	0.28950 0.53620 0.19270 0.07100
H 	H 	0.27290 0.49560 0.17440 -0.01100
N 	N 	0.45834 0.64570 0.57760 -0.13700
C 	C 	0.48120 0.66430 0.54850 0.10200
C 	C 	0.37980 0.75560 0.62610 -0.13200
H 	H 	0.37710 0.81300 0.61210 0.09100
C 	C 	0.40510 0.69120 0.61460 0.07600
C 	C 	0.35840 0.73700 0.65810 0.09000
H 	H 	0.34100 0.78290 0.66580 -0.01900
C 	C 	0.40510 0.60720 0.63370 -0.12700
H 	H 	0.42060 0.55860 0.62490 0.08600
C 	C 	0.38270 0.59340 0.66560 0.08200
H 	H 	0.38320 0.53510 0.67870 -0.01800
N 	N 	0.36046 0.65920 0.67870 -0.28000
I 	I 	0.23549 0.22715 0.79290 -0.37600
I 	I 	0.40061 0.26242 0.89412 -0.37700
I 	I 	0.34694 0.36741 0.00467 -0.37200
I 	I 	0.12489 0.16038 0.70124 -0.40100
I 	I 	0.14003 0.26725 0.56072 -0.37800
I 	I 	0.02932 0.32364 0.62252 -0.35000
Zn	Zn	0.17068 0.13743 0.77159 1.16400
Zn	Zn	0.37325 0.39018 0.93586 1.16500
Zn	Zn	0.09278 0.36932 0.59419 1.16400
N 	N 	0.18139 0.99850 0.77826 -0.27300
N 	N 	0.07829 0.47830 0.55308 -0.26900
N 	N 	0.32950 0.45500 0.89349 -0.27200
N 	N 	0.02417 0.76570 0.47858 -0.14700
N 	N 	0.23106 0.67700 0.81312 -0.13900
C 	C 	0.21730 0.87100 0.81160 -0.12200
H 	H 	0.23790 0.84820 0.83290 0.08000
N 	N 	0.07639 0.71670 0.44177 -0.13300
N 	N 	0.12706 0.43550 0.64420 -0.27200
N 	N 	0.17868 0.66520 0.75431 -0.13500
C 	C 	0.03350 0.59680 0.52390 -0.10800
H 	H 	0.00820 0.62610 0.52220 0.07200
C 	C 	0.31760 0.53990 0.90130 0.07000
H 	H 	0.32970 0.56920 0.92670 -0.00100
C 	C 	0.15840 0.94110 0.75270 0.06600
H 	H 	0.13740 0.96540 0.73240 -0.01200
C 	C 	0.27020 0.54330 0.83750 0.04900
C 	C 	0.17660 0.43680 0.70600 -0.12800
H 	H 	0.19680 0.40510 0.72450 0.08000
C 	C 	0.19390 0.81200 0.78470 0.05900
C 	C 	0.23842 0.58790 0.80760 0.08800
C 	C 	0.15640 0.39420 0.67080 0.07000
H 	H 	0.16350 0.33330 0.66490 -0.01000
C 	C 	0.16390 0.84800 0.75450 -0.11800
H 	H 	0.14730 0.80900 0.73540 0.08500
C 	C 	0.20157 0.71170 0.78500 0.10500
C 	C 	0.18950 0.57800 0.75090 0.10100
C 	C 	0.06165 0.62870 0.50040 0.04600
C 	C 	0.28260 0.45610 0.82940 -0.12400
H 	H 	0.27060 0.42480 0.80450 0.09200
C 	C 	0.16730 0.52650 0.71430 0.05900
C 	C 	0.04270 0.52130 0.54990 0.06100
H 	H 	0.02320 0.49940 0.56590 -0.00400
C 	C 	0.06970 0.79250 0.41860 0.10700
C 	C 	0.31240 0.41450 0.85780 0.07100
H 	H 	0.32110 0.35500 0.85150 -0.00500
C 	C 	0.05354 0.70810 0.47200 0.09300
C 	C 	0.98154 0.89150 0.44917 0.03300
C 	C 	0.96282 0.90580 0.48437 -0.10100
H 	H 	0.97230 0.87520 0.51020 0.07000
C 	C 	0.93027 0.96510 0.48171 0.04600
H 	H 	0.91750 0.97490 0.50580 0.00600
N 	N 	0.91645 0.00990 0.44387 -0.26000
C 	C 	0.93520 0.99560 0.40867 0.03500
H 	H 	0.92570 0.02620 0.38280 -0.00100
C 	C 	0.96770 0.93640 0.41132 -0.09400
H 	H 	0.98050 0.92650 0.38730 0.08100
C 	C 	0.10560 0.50900 0.53030 0.06500
H 	H 	0.13080 0.47890 0.53270 -0.01100
C 	C 	0.09820 0.58320 0.50340 -0.11600
H 	H 	0.11790 0.60290 0.48720 0.08100
C 	C 	0.28880 0.58650 0.87430 -0.11600
H 	H 	0.28170 0.64720 0.88060 0.08700
C 	C 	0.13700 0.56950 0.68710 -0.11800
H 	H 	0.12970 0.63090 0.69190 0.09200
N 	N 	0.21936 0.53610 0.77611 -0.14000
C 	C 	0.11760 0.52120 0.65290 0.07100
H 	H 	0.09630 0.55030 0.63460 -0.00400
C 	C 	0.21050 0.96380 0.80730 0.07200
H 	H 	0.22710 0.00440 0.82560 -0.01200
N 	N 	0.04166 0.85430 0.42240 -0.13700
C 	C 	0.01880 0.83570 0.45150 0.10200
C 	C 	0.12020 0.74440 0.37390 -0.13200
H 	H 	0.12290 0.68700 0.38790 0.09100
C 	C 	0.09490 0.80880 0.38540 0.07600
C 	C 	0.14160 0.76300 0.34190 0.09000
H 	H 	0.15900 0.71710 0.33420 -0.01900
C 	C 	0.09490 0.89280 0.36630 -0.12700
H 	H 	0.07940 0.94140 0.37510 0.08600
C 	C 	0.11730 0.90660 0.33440 0.08200
H 	H 	0.11680 0.96490 0.32130 -0.01800
N 	N 	0.13954 0.84080 0.32130 -0.28000
I 	I 	0.73549 0.72715 0.79290 -0.37600
I 	I 	0.90061 0.76242 0.89412 -0.37700
I 	I 	0.84694 0.86741 0.00467 -0.37200
I 	I 	0.62489 0.66038 0.70124 -0.40000
I 	I 	0.64003 0.76725 0.56072 -0.37800
I 	I 	0.52932 0.82364 0.62252 -0.35000
Zn	Zn	0.67068 0.63743 0.77159 1.16400
Zn	Zn	0.87325 0.89018 0.93586 1.16500
Zn	Zn	0.59278 0.86932 0.59419 1.16400
N 	N 	0.68139 0.49850 0.77826 -0.27300
N 	N 	0.57829 0.97830 0.55308 -0.26800
N 	N 	0.82950 0.95500 0.89349 -0.27100
N 	N 	0.52417 0.26570 0.47858 -0.14700
N 	N 	0.73106 0.17700 0.81312 -0.13900
C 	C 	0.71730 0.37100 0.81160 -0.12100
H 	H 	0.73790 0.34820 0.83290 0.08000
N 	N 	0.57639 0.21670 0.44177 -0.13300
N 	N 	0.62706 0.93550 0.64420 -0.27100
N 	N 	0.67868 0.16520 0.75431 -0.13500
C 	C 	0.53350 0.09680 0.52390 -0.10800
H 	H 	0.50820 0.12610 0.52220 0.07200
C 	C 	0.81760 0.03990 0.90130 0.07000
H 	H 	0.82970 0.06920 0.92670 -0.00100
C 	C 	0.65840 0.44110 0.75270 0.06600
H 	H 	0.63740 0.46540 0.73240 -0.01200
C 	C 	0.77020 0.04330 0.83750 0.04900
C 	C 	0.67660 0.93680 0.70600 -0.12700
H 	H 	0.69680 0.90510 0.72450 0.07900
C 	C 	0.69390 0.31200 0.78470 0.05900
C 	C 	0.73842 0.08790 0.80760 0.08800
C 	C 	0.65640 0.89420 0.67080 0.07000
H 	H 	0.66350 0.83330 0.66490 -0.01000
C 	C 	0.66390 0.34800 0.75450 -0.11800
H 	H 	0.64730 0.30900 0.73540 0.08500
C 	C 	0.70157 0.21170 0.78500 0.10500
C 	C 	0.68950 0.07800 0.75090 0.10100
C 	C 	0.56165 0.12870 0.50040 0.04600
C 	C 	0.78260 0.95610 0.82940 -0.12400
H 	H 	0.77060 0.92480 0.80450 0.09200
C 	C 	0.66730 0.02650 0.71430 0.05800
C 	C 	0.54270 0.02130 0.54990 0.06000
H 	H 	0.52320 0.99940 0.56590 -0.00400
C 	C 	0.56970 0.29250 0.41860 0.10700
C 	C 	0.81240 0.91450 0.85780 0.07100
H 	H 	0.82110 0.85500 0.85150 -0.00500
C 	C 	0.55354 0.20810 0.47200 0.09300
C 	C 	0.48154 0.39150 0.44917 0.03300
C 	C 	0.46282 0.40580 0.48437 -0.10100
H 	H 	0.47230 0.37520 0.51020 0.07000
C 	C 	0.43027 0.46510 0.48171 0.04600
H 	H 	0.41750 0.47490 0.50580 0.00600
N 	N 	0.41645 0.50990 0.44387 -0.26000
C 	C 	0.43520 0.49560 0.40867 0.03600
H 	H 	0.42570 0.52620 0.38280 -0.00100
C 	C 	0.46770 0.43640 0.41132 -0.09500
H 	H 	0.48050 0.42650 0.38730 0.08100
C 	C 	0.60560 0.00900 0.53030 0.06400
H 	H 	0.63080 0.97890 0.53270 -0.01100
C 	C 	0.59820 0.08320 0.50340 -0.11500
H 	H 	0.61790 0.10290 0.48720 0.08100
C 	C 	0.78880 0.08650 0.87430 -0.11600
H 	H 	0.78170 0.14720 0.88060 0.08700
C 	C 	0.63700 0.06950 0.68710 -0.11800
H 	H 	0.62970 0.13090 0.69190 0.09100
N 	N 	0.71936 0.03610 0.77611 -0.14100
C 	C 	0.61760 0.02120 0.65290 0.07000
H 	H 	0.59630 0.05030 0.63460 -0.00400
C 	C 	0.71050 0.46380 0.80730 0.07100
H 	H 	0.72710 0.50440 0.82560 -0.01100
N 	N 	0.54166 0.35430 0.42240 -0.13700
C 	C 	0.51880 0.33570 0.45150 0.10200
C 	C 	0.62020 0.24440 0.37390 -0.13200
H 	H 	0.62290 0.18700 0.38790 0.09100
C 	C 	0.59490 0.30880 0.38540 0.07600
C 	C 	0.64160 0.26300 0.34190 0.09000
H 	H 	0.65900 0.21710 0.33420 -0.01900
C 	C 	0.59490 0.39280 0.36630 -0.12700
H 	H 	0.57940 0.44140 0.37510 0.08600
C 	C 	0.61730 0.40660 0.33440 0.08200
H 	H 	0.61680 0.46490 0.32130 -0.01800
N 	N 	0.63954 0.34080 0.32130 -0.28000
I 	I 	0.23549 0.77285 0.29290 -0.37600
I 	I 	0.40061 0.73758 0.39412 -0.37700
I 	I 	0.34694 0.63259 0.50467 -0.37200
I 	I 	0.12489 0.83962 0.20124 -0.40100
I 	I 	0.14003 0.73275 0.06072 -0.37800
I 	I 	0.02932 0.67636 0.12252 -0.35000
Zn	Zn	0.17068 0.86257 0.27159 1.16400
Zn	Zn	0.37325 0.60982 0.43586 1.16500
Zn	Zn	0.09278 0.63068 0.09419 1.16400
N 	N 	0.18139 0.00150 0.27826 -0.27300
N 	N 	0.07829 0.52170 0.05308 -0.26900
N 	N 	0.32950 0.54500 0.39349 -0.27200
N 	N 	0.02417 0.23430 0.97858 -0.14700
N 	N 	0.23106 0.32300 0.31312 -0.13900
C 	C 	0.21730 0.12900 0.31160 -0.12100
H 	H 	0.23790 0.15180 0.33290 0.08000
N 	N 	0.07639 0.28330 0.94177 -0.13300
N 	N 	0.12706 0.56450 0.14420 -0.27200
N 	N 	0.17868 0.33480 0.25431 -0.13500
C 	C 	0.03350 0.40320 0.02390 -0.10800
H 	H 	0.00820 0.37390 0.02220 0.07200
C 	C 	0.31760 0.46010 0.40130 0.07000
H 	H 	0.32970 0.43080 0.42670 -0.00100
C 	C 	0.15840 0.05890 0.25270 0.06600
H 	H 	0.13740 0.03460 0.23240 -0.01200
C 	C 	0.27020 0.45670 0.33750 0.04900
C 	C 	0.17660 0.56320 0.20600 -0.12800
H 	H 	0.19680 0.59490 0.22450 0.08000
C 	C 	0.19390 0.18800 0.28470 0.05900
C 	C 	0.23842 0.41210 0.30760 0.08800
C 	C 	0.15640 0.60580 0.17080 0.07000
H 	H 	0.16350 0.66670 0.16490 -0.01000
C 	C 	0.16390 0.15200 0.25450 -0.11800
H 	H 	0.14730 0.19100 0.23540 0.08500
C 	C 	0.20157 0.28830 0.28500 0.10500
C 	C 	0.18950 0.42200 0.25090 0.10100
C 	C 	0.06165 0.37130 0.00040 0.04600
C 	C 	0.28260 0.54390 0.32940 -0.12400
H 	H 	0.27060 0.57520 0.30450 0.09200
C 	C 	0.16730 0.47350 0.21430 0.05900
C 	C 	0.04270 0.47870 0.04990 0.06100
H 	H 	0.02320 0.50060 0.06590 -0.00400
C 	C 	0.06970 0.20750 0.91860 0.10700
C 	C 	0.31240 0.58550 0.35780 0.07100
H 	H 	0.32110 0.64500 0.35150 -0.00500
C 	C 	0.05354 0.29190 0.97200 0.09300
C 	C 	0.98154 0.10850 0.94917 0.03300
C 	C 	0.96282 0.09420 0.98437 -0.10100
H 	H 	0.97230 0.12480 0.01020 0.07000
C 	C 	0.93027 0.03490 0.98171 0.04600
H 	H 	0.91750 0.02510 0.00580 0.00600
N 	N 	0.91645 0.99010 0.94387 -0.26000
C 	C 	0.93520 0.00440 0.90867 0.03500
H 	H 	0.92570 0.97380 0.88280 -0.00100
C 	C 	0.96770 0.06360 0.91132 -0.09400
H 	H 	0.98050 0.07350 0.88730 0.08100
C 	C 	0.10560 0.49100 0.03030 0.06500
H 	H 	0.13080 0.52110 0.03270 -0.01100
C 	C 	0.09820 0.41680 0.00340 -0.11600
H 	H 	0.11790 0.39710 0.98720 0.08100
C 	C 	0.28880 0.41350 0.37430 -0.11600
H 	H 	0.28170 0.35280 0.38060 0.08700
C 	C 	0.13700 0.43050 0.18710 -0.11800
H 	H 	0.12970 0.36910 0.19190 0.09200
N 	N 	0.21936 0.46390 0.27611 -0.14000
C 	C 	0.11760 0.47880 0.15290 0.07100
H 	H 	0.09630 0.44970 0.13460 -0.00400
C 	C 	0.21050 0.03620 0.30730 0.07200
H 	H 	0.22710 0.99560 0.32560 -0.01200
N 	N 	0.04166 0.14570 0.92240 -0.13700
C 	C 	0.01880 0.16430 0.95150 0.10200
C 	C 	0.12020 0.25560 0.87390 -0.13200
H 	H 	0.12290 0.31300 0.88790 0.09100
C 	C 	0.09490 0.19120 0.88540 0.07600
C 	C 	0.14160 0.23700 0.84190 0.09000
H 	H 	0.15900 0.28290 0.83420 -0.01900
C 	C 	0.09490 0.10720 0.86630 -0.12700
H 	H 	0.07940 0.05860 0.87510 0.08600
C 	C 	0.11730 0.09340 0.83440 0.08200
H 	H 	0.11680 0.03510 0.82130 -0.01800
N 	N 	0.13954 0.15920 0.82130 -0.28000
I 	I 	0.73549 0.27285 0.29290 -0.37600
I 	I 	0.90061 0.23758 0.39412 -0.37700
I 	I 	0.84694 0.13259 0.50467 -0.37200
I 	I 	0.62489 0.33962 0.20124 -0.40000
I 	I 	0.64003 0.23275 0.06072 -0.37800
I 	I 	0.52932 0.17636 0.12252 -0.35000
Zn	Zn	0.67068 0.36257 0.27159 1.16400
Zn	Zn	0.87325 0.10982 0.43586 1.16500
Zn	Zn	0.59278 0.13068 0.09419 1.16400
N 	N 	0.68139 0.50150 0.27826 -0.27300
N 	N 	0.57829 0.02170 0.05308 -0.26800
N 	N 	0.82950 0.04500 0.39349 -0.27100
N 	N 	0.52417 0.73430 0.97858 -0.14700
N 	N 	0.73106 0.82300 0.31312 -0.13900
C 	C 	0.71730 0.62900 0.31160 -0.12100
H 	H 	0.73790 0.65180 0.33290 0.08000
N 	N 	0.57639 0.78330 0.94177 -0.13300
N 	N 	0.62706 0.06450 0.14420 -0.27100
N 	N 	0.67868 0.83480 0.25431 -0.13500
C 	C 	0.53350 0.90320 0.02390 -0.10800
H 	H 	0.50820 0.87390 0.02220 0.07200
C 	C 	0.81760 0.96010 0.40130 0.07000
H 	H 	0.82970 0.93080 0.42670 -0.00100
C 	C 	0.65840 0.55890 0.25270 0.06600
H 	H 	0.63740 0.53460 0.23240 -0.01200
C 	C 	0.77020 0.95670 0.33750 0.04900
C 	C 	0.67660 0.06320 0.20600 -0.12700
H 	H 	0.69680 0.09490 0.22450 0.07900
C 	C 	0.69390 0.68800 0.28470 0.05900
C 	C 	0.73842 0.91210 0.30760 0.08800
C 	C 	0.65640 0.10580 0.17080 0.07000
H 	H 	0.66350 0.16670 0.16490 -0.01000
C 	C 	0.66390 0.65200 0.25450 -0.11800
H 	H 	0.64730 0.69100 0.23540 0.08500
C 	C 	0.70157 0.78830 0.28500 0.10500
C 	C 	0.68950 0.92200 0.25090 0.10100
C 	C 	0.56165 0.87130 0.00040 0.04600
C 	C 	0.78260 0.04390 0.32940 -0.12400
H 	H 	0.77060 0.07520 0.30450 0.09200
C 	C 	0.66730 0.97350 0.21430 0.05800
C 	C 	0.54270 0.97870 0.04990 0.06000
H 	H 	0.52320 0.00060 0.06590 -0.00400
C 	C 	0.56970 0.70750 0.91860 0.10700
C 	C 	0.81240 0.08550 0.35780 0.07100
H 	H 	0.82110 0.14500 0.35150 -0.00500
C 	C 	0.55354 0.79190 0.97200 0.09300
C 	C 	0.48154 0.60850 0.94917 0.03300
C 	C 	0.46282 0.59420 0.98437 -0.10100
H 	H 	0.47230 0.62480 0.01020 0.07000
C 	C 	0.43027 0.53490 0.98171 0.04600
H 	H 	0.41750 0.52510 0.00580 0.00600
N 	N 	0.41645 0.49010 0.94387 -0.26000
C 	C 	0.43520 0.50440 0.90867 0.03600
H 	H 	0.42570 0.47380 0.88280 -0.00100
C 	C 	0.46770 0.56360 0.91132 -0.09500
H 	H 	0.48050 0.57350 0.88730 0.08100
C 	C 	0.60560 0.99100 0.03030 0.06400
H 	H 	0.63080 0.02110 0.03270 -0.01100
C 	C 	0.59820 0.91680 0.00340 -0.11500
H 	H 	0.61790 0.89710 0.98720 0.08100
C 	C 	0.78880 0.91350 0.37430 -0.11600
H 	H 	0.78170 0.85280 0.38060 0.08700
C 	C 	0.63700 0.93050 0.18710 -0.11800
H 	H 	0.62970 0.86910 0.19190 0.09100
N 	N 	0.71936 0.96390 0.27611 -0.14100
C 	C 	0.61760 0.97880 0.15290 0.07000
H 	H 	0.59630 0.94970 0.13460 -0.00400
C 	C 	0.71050 0.53620 0.30730 0.07100
H 	H 	0.72710 0.49560 0.32560 -0.01100
N 	N 	0.54166 0.64570 0.92240 -0.13700
C 	C 	0.51880 0.66430 0.95150 0.10200
C 	C 	0.62020 0.75560 0.87390 -0.13200
H 	H 	0.62290 0.81300 0.88790 0.09100
C 	C 	0.59490 0.69120 0.88540 0.07600
C 	C 	0.64160 0.73700 0.84190 0.09000
H 	H 	0.65900 0.78290 0.83420 -0.01900
C 	C 	0.59490 0.60720 0.86630 -0.12700
H 	H 	0.57940 0.55860 0.87510 0.08600
C 	C 	0.61730 0.59340 0.83440 0.08200
H 	H 	0.61680 0.53510 0.82130 -0.01800
N 	N 	0.63954 0.65920 0.82130 -0.28000
