data_crystal

_cell_length_a 17.33580
_cell_length_b 11.63480
_cell_length_c 18.31980
_cell_angle_alpha 90.00000
_cell_angle_beta  110.42600
_cell_angle_gamma 90.00000

_symmetry_space_group_name_	'P 1'
_symmetry_space_group_name_H-M	'P 1'

loop_
_symmetry_equiv_pos_as_xyz
  x,y,z

loop_
_atom_site_label
_atom_site_type_symbol
_atom_site_fract_x
_atom_site_fract_y
_atom_site_fract_z
_atom_site_charge
Dy	Dy	0.99896 0.08325 0.09459 1.85400
Dy	Dy	0.50238 0.56961 0.39904 1.92400
S 	S 	0.24476 0.70743 0.11032 0.08100
S 	S 	0.25028 0.20519 0.41012 0.07000
S 	S 	0.26439 0.72660 0.55935 0.08200
O 	O 	0.40533 0.58200 0.16394 -0.53400
O 	O 	0.10080 0.06630 0.35163 -0.51800
O 	O 	0.40477 0.53730 0.28222 -0.54100
O 	O 	0.07788 0.09050 0.22507 -0.50500
O 	O 	0.07997 0.94650 0.49354 -0.54900
O 	O 	0.40830 0.58640 0.55928 -0.49400
O 	O 	0.07160 0.91060 0.12457 -0.47200
O 	O 	0.42235 0.67160 0.45477 -0.52500
O 	O 	0.42380 0.43230 0.43359 -0.54000
O 	O 	0.08277 0.82180 0.01959 -0.49300
C 	C 	0.11610 0.11120 0.29520 0.48100
C 	C 	0.37570 0.58710 0.21610 0.49600
O 	O 	0.39578 0.31540 0.51594 -0.48100
O 	O 	0.11628 0.81790 0.58756 -0.46900
C 	C 	0.18610 0.19250 0.31440 -0.17000
C 	C 	0.29930 0.65390 0.20220 -0.17400
C 	C 	0.17450 0.77320 0.14440 -0.13000
C 	C 	0.20150 0.83900 0.51190 -0.12600
C 	C 	0.32360 0.74270 0.50170 -0.14900
C 	C 	0.26410 0.68590 0.25520 0.02100
H 	H 	0.28450 0.66420 0.30740 0.01400
C 	C 	0.10420 0.84070 0.09180 0.45400
C 	C 	0.19340 0.75570 0.22240 -0.01400
H 	H 	0.16320 0.78630 0.25090 0.04600
C 	C 	0.39040 0.66010 0.50610 0.48200
C 	C 	0.30900 0.30670 0.38520 -0.13100
C 	C 	0.38010 0.35480 0.44790 0.43500
C 	C 	0.12870 0.86900 0.53200 0.41700
C 	C 	0.22670 0.88690 0.45540 -0.01800
H 	H 	0.20050 0.94840 0.42420 0.05000
C 	C 	0.20960 0.26370 0.26670 0.01600
H 	H 	0.18220 0.26840 0.21320 0.03000
C 	C 	0.27990 0.32940 0.30710 -0.01400
H 	H 	0.30370 0.38230 0.28330 0.04700
C 	C 	0.29670 0.83200 0.45030 0.01700
H 	H 	0.32220 0.85390 0.41550 0.02600
Dy	Dy	0.00104 0.08325 0.40541 1.88400
Dy	Dy	0.49762 0.56961 0.10096 1.92300
S 	S 	0.75524 0.70743 0.38968 0.07900
S 	S 	0.74972 0.20519 0.08988 0.06500
S 	S 	0.73561 0.72660 0.94065 0.08200
O 	O 	0.59467 0.58200 0.33606 -0.53400
O 	O 	0.89920 0.06630 0.14837 -0.51900
O 	O 	0.59523 0.53730 0.21778 -0.54100
O 	O 	0.92212 0.09050 0.27493 -0.51000
O 	O 	0.92003 0.94650 0.00646 -0.54100
O 	O 	0.59170 0.58640 0.94072 -0.49400
O 	O 	0.92840 0.91060 0.37543 -0.47900
O 	O 	0.57765 0.67160 0.04523 -0.52400
O 	O 	0.57620 0.43230 0.06641 -0.53900
O 	O 	0.91723 0.82180 0.48041 -0.50200
C 	C 	0.88390 0.11120 0.20480 0.48100
C 	C 	0.62430 0.58710 0.28390 0.49500
O 	O 	0.60422 0.31540 0.98406 -0.47700
O 	O 	0.88372 0.81790 0.91244 -0.46400
C 	C 	0.81390 0.19250 0.18560 -0.17000
C 	C 	0.70070 0.65390 0.29780 -0.17300
C 	C 	0.82550 0.77320 0.35560 -0.13200
C 	C 	0.79850 0.83900 0.98810 -0.12800
C 	C 	0.67640 0.74270 0.99830 -0.15300
C 	C 	0.73590 0.68590 0.24480 0.02000
H 	H 	0.71550 0.66420 0.19260 0.01500
C 	C 	0.89580 0.84070 0.40820 0.45700
C 	C 	0.80660 0.75570 0.27760 -0.01300
H 	H 	0.83680 0.78630 0.24910 0.04500
C 	C 	0.60960 0.66010 0.99390 0.48100
C 	C 	0.69100 0.30670 0.11480 -0.12900
C 	C 	0.61990 0.35480 0.05210 0.42900
C 	C 	0.87130 0.86900 0.96800 0.41200
C 	C 	0.77330 0.88690 0.04460 -0.01700
H 	H 	0.79950 0.94840 0.07580 0.05200
C 	C 	0.79040 0.26370 0.23330 0.01600
H 	H 	0.81780 0.26840 0.28680 0.03000
C 	C 	0.72010 0.32940 0.19290 -0.01600
H 	H 	0.69630 0.38230 0.21670 0.04800
C 	C 	0.70330 0.83200 0.04970 0.02000
H 	H 	0.67780 0.85390 0.08450 0.02500
Dy	Dy	0.00104 0.91675 0.90541 1.85400
Dy	Dy	0.49762 0.43039 0.60096 1.92400
S 	S 	0.75524 0.29257 0.88968 0.08100
S 	S 	0.74972 0.79481 0.58988 0.07000
S 	S 	0.73561 0.27340 0.44065 0.08200
O 	O 	0.59467 0.41800 0.83606 -0.53400
O 	O 	0.89920 0.93370 0.64837 -0.51800
O 	O 	0.59523 0.46270 0.71778 -0.54100
O 	O 	0.92212 0.90950 0.77493 -0.50500
O 	O 	0.92003 0.05350 0.50646 -0.54900
O 	O 	0.59170 0.41360 0.44072 -0.49400
O 	O 	0.92840 0.08940 0.87543 -0.47200
O 	O 	0.57765 0.32840 0.54523 -0.52500
O 	O 	0.57620 0.56770 0.56641 -0.54000
O 	O 	0.91723 0.17820 0.98041 -0.49300
C 	C 	0.88390 0.88880 0.70480 0.48100
C 	C 	0.62430 0.41290 0.78390 0.49600
O 	O 	0.60422 0.68460 0.48406 -0.48100
O 	O 	0.88372 0.18210 0.41244 -0.46900
C 	C 	0.81390 0.80750 0.68560 -0.17000
C 	C 	0.70070 0.34610 0.79780 -0.17400
C 	C 	0.82550 0.22680 0.85560 -0.13000
C 	C 	0.79850 0.16100 0.48810 -0.12600
C 	C 	0.67640 0.25730 0.49830 -0.14900
C 	C 	0.73590 0.31410 0.74480 0.02100
H 	H 	0.71550 0.33580 0.69260 0.01400
C 	C 	0.89580 0.15930 0.90820 0.45400
C 	C 	0.80660 0.24430 0.77760 -0.01400
H 	H 	0.83680 0.21370 0.74910 0.04600
C 	C 	0.60960 0.33990 0.49390 0.48200
C 	C 	0.69100 0.69330 0.61480 -0.13100
C 	C 	0.61990 0.64520 0.55210 0.43500
C 	C 	0.87130 0.13100 0.46800 0.41700
C 	C 	0.77330 0.11310 0.54460 -0.01800
H 	H 	0.79950 0.05160 0.57580 0.05000
C 	C 	0.79040 0.73630 0.73330 0.01600
H 	H 	0.81780 0.73160 0.78680 0.03000
C 	C 	0.72010 0.67060 0.69290 -0.01400
H 	H 	0.69630 0.61770 0.71670 0.04700
C 	C 	0.70330 0.16800 0.54970 0.01700
H 	H 	0.67780 0.14610 0.58450 0.02600
Dy	Dy	0.99896 0.91675 0.59459 1.88400
Dy	Dy	0.50238 0.43039 0.89904 1.92300
S 	S 	0.24476 0.29257 0.61032 0.07900
S 	S 	0.25028 0.79481 0.91012 0.06500
S 	S 	0.26439 0.27340 0.05935 0.08200
O 	O 	0.40533 0.41800 0.66394 -0.53400
O 	O 	0.10080 0.93370 0.85163 -0.51900
O 	O 	0.40477 0.46270 0.78222 -0.54100
O 	O 	0.07788 0.90950 0.72507 -0.51000
O 	O 	0.07997 0.05350 0.99354 -0.54100
O 	O 	0.40830 0.41360 0.05928 -0.49400
O 	O 	0.07160 0.08940 0.62457 -0.47900
O 	O 	0.42235 0.32840 0.95477 -0.52400
O 	O 	0.42380 0.56770 0.93359 -0.53900
O 	O 	0.08277 0.17820 0.51959 -0.50200
C 	C 	0.11610 0.88880 0.79520 0.48100
C 	C 	0.37570 0.41290 0.71610 0.49500
O 	O 	0.39578 0.68460 0.01594 -0.47700
O 	O 	0.11628 0.18210 0.08756 -0.46400
C 	C 	0.18610 0.80750 0.81440 -0.17000
C 	C 	0.29930 0.34610 0.70220 -0.17300
C 	C 	0.17450 0.22680 0.64440 -0.13200
C 	C 	0.20150 0.16100 0.01190 -0.12800
C 	C 	0.32360 0.25730 0.00170 -0.15300
C 	C 	0.26410 0.31410 0.75520 0.02000
H 	H 	0.28450 0.33580 0.80740 0.01500
C 	C 	0.10420 0.15930 0.59180 0.45700
C 	C 	0.19340 0.24430 0.72240 -0.01300
H 	H 	0.16320 0.21370 0.75090 0.04500
C 	C 	0.39040 0.33990 0.00610 0.48100
C 	C 	0.30900 0.69330 0.88520 -0.12900
C 	C 	0.38010 0.64520 0.94790 0.42900
C 	C 	0.12870 0.13100 0.03200 0.41200
C 	C 	0.22670 0.11310 0.95540 -0.01700
H 	H 	0.20050 0.05160 0.92420 0.05200
C 	C 	0.20960 0.73630 0.76670 0.01600
H 	H 	0.18220 0.73160 0.71320 0.03000
C 	C 	0.27990 0.67060 0.80710 -0.01600
H 	H 	0.30370 0.61770 0.78330 0.04800
C 	C 	0.29670 0.16800 0.95030 0.02000
H 	H 	0.32220 0.14610 0.91550 0.02500
