data_crystal

_cell_length_a 20.81800
_cell_length_b 9.88700
_cell_length_c 17.28100
_cell_angle_alpha 90.00000
_cell_angle_beta  90.00000
_cell_angle_gamma 90.00000

_symmetry_space_group_name_	'P 1'
_symmetry_space_group_name_H-M	'P 1'

loop_
_symmetry_equiv_pos_as_xyz
  x,y,z

loop_
_atom_site_label
_atom_site_type_symbol
_atom_site_fract_x
_atom_site_fract_y
_atom_site_fract_z
_atom_site_charge
Zn	Zn	0.18383 0.68973 0.17718 1.19300
O 	O 	0.09799 0.69090 0.22510 -0.45700
N 	N 	0.19300 0.66200 0.06350 -0.27100
C 	C 	0.00160 0.81170 0.24470 -0.09900
O 	O 	0.08000 0.87180 0.14990 -0.31300
C 	C 	0.06490 0.79330 0.20320 0.31900
N 	N 	0.24900 0.94950 0.15280 -0.06400
C 	C 	0.24550 0.91490 0.27610 0.21000
N 	N 	0.23210 0.85940 0.34530 -0.34600
H 	H 	0.24130 0.90190 0.38730 0.15500
H 	H 	0.21470 0.78060 0.34750 0.15000
H 	H 	0.12140 0.87160 0.04510 0.15700
C 	C 	0.88050 0.83300 0.31240 0.04600
H 	H 	0.84050 0.84100 0.33600 -0.00300
N 	N 	0.23010 0.56040 0.03710 -0.07600
C 	C 	0.97930 0.93860 0.26910 0.05900
C 	C 	0.96260 0.69670 0.25590 0.03700
H 	H 	0.97770 0.61250 0.24010 0.03000
C 	C 	0.90230 0.70750 0.28910 -0.11400
H 	H 	0.87650 0.63130 0.29510 0.07600
C 	C 	0.91820 0.94640 0.30210 -0.11000
H 	H 	0.90250 0.03010 0.31780 0.07000
N 	N 	0.27360 0.05480 0.18640 -0.07500
N 	N 	0.27270 0.03740 0.26440 -0.25700
N 	N 	0.23060 0.85900 0.20810 -0.26000
Zn	Zn	0.81617 0.31027 0.17718 1.19400
O 	O 	0.90201 0.30910 0.22510 -0.45600
N 	N 	0.80700 0.33800 0.06350 -0.27000
C 	C 	0.99840 0.18830 0.24470 -0.09800
O 	O 	0.92000 0.12820 0.14990 -0.31300
C 	C 	0.93510 0.20670 0.20320 0.31900
N 	N 	0.75100 0.05050 0.15280 -0.06400
C 	C 	0.75450 0.08510 0.27610 0.21000
N 	N 	0.76790 0.14060 0.34530 -0.34600
H 	H 	0.75870 0.09810 0.38730 0.15500
H 	H 	0.78530 0.21940 0.34750 0.15000
H 	H 	0.87860 0.12840 0.04510 0.15700
C 	C 	0.11950 0.16700 0.31240 0.04600
H 	H 	0.15950 0.15900 0.33600 -0.00300
N 	N 	0.76990 0.43960 0.03710 -0.07600
C 	C 	0.02070 0.06140 0.26910 0.05900
C 	C 	0.03740 0.30330 0.25590 0.03700
H 	H 	0.02230 0.38750 0.24010 0.03000
C 	C 	0.09770 0.29250 0.28910 -0.11400
H 	H 	0.12350 0.36870 0.29510 0.07600
C 	C 	0.08180 0.05360 0.30210 -0.11000
H 	H 	0.09750 0.96990 0.31780 0.07000
N 	N 	0.72640 0.94520 0.18640 -0.07500
N 	N 	0.72730 0.96260 0.26440 -0.25700
N 	N 	0.76940 0.14100 0.20810 -0.26000
Zn	Zn	0.31617 0.18973 0.32282 1.19300
O 	O 	0.40201 0.19090 0.27490 -0.45600
N 	N 	0.30700 0.16200 0.43650 -0.26900
C 	C 	0.49840 0.31170 0.25530 -0.09800
O 	O 	0.42000 0.37180 0.35010 -0.31400
C 	C 	0.43510 0.29330 0.29680 0.31900
N 	N 	0.25100 0.44950 0.34720 -0.06500
C 	C 	0.25450 0.41490 0.22390 0.21000
N 	N 	0.26790 0.35940 0.15470 -0.34700
H 	H 	0.25870 0.40190 0.11270 0.15700
H 	H 	0.28530 0.28060 0.15250 0.15100
H 	H 	0.37860 0.37160 0.45490 0.15700
C 	C 	0.61950 0.33300 0.18760 0.04600
H 	H 	0.65950 0.34100 0.16400 -0.00300
N 	N 	0.26990 0.06040 0.46290 -0.08000
C 	C 	0.52070 0.43860 0.23090 0.05900
C 	C 	0.53740 0.19670 0.24410 0.03700
H 	H 	0.52230 0.11250 0.25990 0.03000
C 	C 	0.59770 0.20750 0.21090 -0.11400
H 	H 	0.62350 0.13130 0.20490 0.07600
C 	C 	0.58180 0.44640 0.19790 -0.11000
H 	H 	0.59750 0.53010 0.18220 0.07100
N 	N 	0.22640 0.55480 0.31360 -0.07600
N 	N 	0.22730 0.53740 0.23560 -0.25800
N 	N 	0.26940 0.35900 0.29190 -0.26000
Zn	Zn	0.68383 0.81027 0.32282 1.19300
O 	O 	0.59799 0.80910 0.27490 -0.45600
N 	N 	0.69300 0.83800 0.43650 -0.26900
C 	C 	0.50160 0.68830 0.25530 -0.09800
O 	O 	0.58000 0.62820 0.35010 -0.31400
C 	C 	0.56490 0.70670 0.29680 0.31900
N 	N 	0.74900 0.55050 0.34720 -0.06500
C 	C 	0.74550 0.58510 0.22390 0.21000
N 	N 	0.73210 0.64060 0.15470 -0.34700
H 	H 	0.74130 0.59810 0.11270 0.15700
H 	H 	0.71470 0.71940 0.15250 0.15100
H 	H 	0.62140 0.62840 0.45490 0.15700
C 	C 	0.38050 0.66700 0.18760 0.04600
H 	H 	0.34050 0.65900 0.16400 -0.00300
N 	N 	0.73010 0.93960 0.46290 -0.08000
C 	C 	0.47930 0.56140 0.23090 0.05900
C 	C 	0.46260 0.80330 0.24410 0.03700
H 	H 	0.47770 0.88750 0.25990 0.03000
C 	C 	0.40230 0.79250 0.21090 -0.11400
H 	H 	0.37650 0.86870 0.20490 0.07600
C 	C 	0.41820 0.55360 0.19790 -0.11000
H 	H 	0.40250 0.46990 0.18220 0.07100
N 	N 	0.77360 0.44520 0.31360 -0.07600
N 	N 	0.77270 0.46260 0.23560 -0.25800
N 	N 	0.73060 0.64100 0.29190 -0.26000
Zn	Zn	0.81617 0.31027 0.82282 1.19300
O 	O 	0.90201 0.30910 0.77490 -0.45700
N 	N 	0.80700 0.33800 0.93650 -0.27300
C 	C 	0.99840 0.18830 0.75530 -0.09900
O 	O 	0.92000 0.12820 0.85010 -0.31500
C 	C 	0.93510 0.20670 0.79680 0.31900
N 	N 	0.75100 0.05050 0.84720 -0.06600
C 	C 	0.75450 0.08510 0.72390 0.21000
N 	N 	0.76790 0.14060 0.65470 -0.34600
H 	H 	0.75870 0.09810 0.61270 0.15500
H 	H 	0.78530 0.21940 0.65250 0.15000
H 	H 	0.87860 0.12840 0.95490 0.15200
C 	C 	0.11950 0.16700 0.68760 0.04600
H 	H 	0.15950 0.15900 0.66400 -0.00300
N 	N 	0.76990 0.43960 0.96290 -0.08300
C 	C 	0.02070 0.06140 0.73090 0.05900
C 	C 	0.03740 0.30330 0.74410 0.03700
H 	H 	0.02230 0.38750 0.75990 0.02900
C 	C 	0.09770 0.29250 0.71090 -0.11500
H 	H 	0.12350 0.36870 0.70490 0.07600
C 	C 	0.08180 0.05360 0.69790 -0.11000
H 	H 	0.09750 0.96990 0.68220 0.07000
N 	N 	0.72640 0.94520 0.81360 -0.07600
N 	N 	0.72730 0.96260 0.73560 -0.25700
N 	N 	0.76940 0.14100 0.79190 -0.26000
Zn	Zn	0.18383 0.68973 0.82282 1.19300
O 	O 	0.09799 0.69090 0.77490 -0.45700
N 	N 	0.19300 0.66200 0.93650 -0.27300
C 	C 	0.00160 0.81170 0.75530 -0.09900
O 	O 	0.08000 0.87180 0.85010 -0.31500
C 	C 	0.06490 0.79330 0.79680 0.31900
N 	N 	0.24900 0.94950 0.84720 -0.06600
C 	C 	0.24550 0.91490 0.72390 0.21000
N 	N 	0.23210 0.85940 0.65470 -0.34600
H 	H 	0.24130 0.90190 0.61270 0.15500
H 	H 	0.21470 0.78060 0.65250 0.15000
H 	H 	0.12140 0.87160 0.95490 0.15200
C 	C 	0.88050 0.83300 0.68760 0.04600
H 	H 	0.84050 0.84100 0.66400 -0.00300
N 	N 	0.23010 0.56040 0.96290 -0.08300
C 	C 	0.97930 0.93860 0.73090 0.05900
C 	C 	0.96260 0.69670 0.74410 0.03700
H 	H 	0.97770 0.61250 0.75990 0.02900
C 	C 	0.90230 0.70750 0.71090 -0.11500
H 	H 	0.87650 0.63130 0.70490 0.07600
C 	C 	0.91820 0.94640 0.69790 -0.11000
H 	H 	0.90250 0.03010 0.68220 0.07000
N 	N 	0.27360 0.05480 0.81360 -0.07600
N 	N 	0.27270 0.03740 0.73560 -0.25700
N 	N 	0.23060 0.85900 0.79190 -0.26000
Zn	Zn	0.68383 0.81027 0.67718 1.19300
O 	O 	0.59799 0.80910 0.72510 -0.45700
N 	N 	0.69300 0.83800 0.56350 -0.26900
C 	C 	0.50160 0.68830 0.74470 -0.09800
O 	O 	0.58000 0.62820 0.64990 -0.31400
C 	C 	0.56490 0.70670 0.70320 0.31900
N 	N 	0.74900 0.55050 0.65280 -0.06500
C 	C 	0.74550 0.58510 0.77610 0.21000
N 	N 	0.73210 0.64060 0.84530 -0.34600
H 	H 	0.74130 0.59810 0.88730 0.15400
H 	H 	0.71470 0.71940 0.84750 0.14900
H 	H 	0.62140 0.62840 0.54510 0.15700
C 	C 	0.38050 0.66700 0.81240 0.04500
H 	H 	0.34050 0.65900 0.83600 -0.00400
N 	N 	0.73010 0.93960 0.53710 -0.08000
C 	C 	0.47930 0.56140 0.76910 0.05900
C 	C 	0.46260 0.80330 0.75590 0.03600
H 	H 	0.47770 0.88750 0.74010 0.02900
C 	C 	0.40230 0.79250 0.78910 -0.11500
H 	H 	0.37650 0.86870 0.79510 0.07500
C 	C 	0.41820 0.55360 0.80210 -0.11100
H 	H 	0.40250 0.46990 0.81780 0.07000
N 	N 	0.77360 0.44520 0.68640 -0.07600
N 	N 	0.77270 0.46260 0.76440 -0.25800
N 	N 	0.73060 0.64100 0.70810 -0.26000
Zn	Zn	0.31617 0.18973 0.67718 1.19300
O 	O 	0.40201 0.19090 0.72510 -0.45700
N 	N 	0.30700 0.16200 0.56350 -0.26900
C 	C 	0.49840 0.31170 0.74470 -0.09800
O 	O 	0.42000 0.37180 0.64990 -0.31400
C 	C 	0.43510 0.29330 0.70320 0.31900
N 	N 	0.25100 0.44950 0.65280 -0.06500
C 	C 	0.25450 0.41490 0.77610 0.21000
N 	N 	0.26790 0.35940 0.84530 -0.34600
H 	H 	0.25870 0.40190 0.88730 0.15400
H 	H 	0.28530 0.28060 0.84750 0.14900
H 	H 	0.37860 0.37160 0.54510 0.15700
C 	C 	0.61950 0.33300 0.81240 0.04500
H 	H 	0.65950 0.34100 0.83600 -0.00400
N 	N 	0.26990 0.06040 0.53710 -0.08000
C 	C 	0.52070 0.43860 0.76910 0.05900
C 	C 	0.53740 0.19670 0.75590 0.03600
H 	H 	0.52230 0.11250 0.74010 0.02900
C 	C 	0.59770 0.20750 0.78910 -0.11500
H 	H 	0.62350 0.13130 0.79510 0.07500
C 	C 	0.58180 0.44640 0.80210 -0.11100
H 	H 	0.59750 0.53010 0.81780 0.07000
N 	N 	0.22640 0.55480 0.68640 -0.07600
N 	N 	0.22730 0.53740 0.76440 -0.25800
N 	N 	0.26940 0.35900 0.70810 -0.26000
C 	C 	0.17310 0.72470 -0.00000 0.22400
N 	N 	0.13470 0.83560 -0.00000 -0.31500
C 	C 	0.82690 0.27530 -0.00000 0.22400
N 	N 	0.86530 0.16440 -0.00000 -0.31500
C 	C 	0.32690 0.22470 0.50000 0.21700
N 	N 	0.36530 0.33560 0.50000 -0.32000
C 	C 	0.67310 0.77530 0.50000 0.21700
N 	N 	0.63470 0.66440 0.50000 -0.32000
