data_crystal

_cell_length_a 9.15550
_cell_length_b 11.74700
_cell_length_c 11.53810
_cell_angle_alpha 90.00000
_cell_angle_beta  90.00000
_cell_angle_gamma 90.00000

_symmetry_space_group_name_	'P 1'
_symmetry_space_group_name_H-M	'P 1'

loop_
_symmetry_equiv_pos_as_xyz
  x,y,z

loop_
_atom_site_label
_atom_site_type_symbol
_atom_site_fract_x
_atom_site_fract_y
_atom_site_fract_z
_atom_site_charge
Cd	Cd	0.12649 0.94003 0.84680 1.14400
Cd	Cd	0.62972 0.96879 0.87740 1.18400
Cd	Cd	0.87351 0.05997 0.34680 1.17900
Cd	Cd	0.37028 0.03121 0.37740 1.21400
Cd	Cd	0.37351 0.44003 0.84680 1.14800
Cd	Cd	0.87028 0.46879 0.87740 1.18600
Cd	Cd	0.62649 0.55997 0.34680 1.17900
Cd	Cd	0.12972 0.53121 0.37740 1.21300
C 	C 	0.79630 0.20610 0.87020 -0.04700
C 	C 	0.64190 0.24400 0.86590 0.29100
C 	C 	0.46520 0.00300 0.11200 0.00900
C 	C 	0.62120 0.00040 0.15060 0.28200
C 	C 	0.20370 0.79390 0.37020 -0.01500
C 	C 	0.35810 0.75600 0.36590 0.29700
C 	C 	0.53480 0.99700 0.61200 -0.01800
C 	C 	0.37880 0.99960 0.65060 0.29800
C 	C 	0.70370 0.70610 0.87020 -0.04700
C 	C 	0.85810 0.74400 0.86590 0.29000
C 	C 	0.03480 0.50300 0.11200 0.00300
C 	C 	0.87880 0.50040 0.15060 0.30200
C 	C 	0.29630 0.29390 0.37020 -0.01500
C 	C 	0.14190 0.25600 0.36590 0.29800
C 	C 	0.96520 0.49700 0.61200 -0.00700
C 	C 	0.12120 0.49960 0.65060 0.28900
N 	N 	0.83480 0.09650 0.86690 -0.17800
N 	N 	0.98090 0.09840 0.87280 -0.18800
N 	N 	0.02780 0.20530 0.87730 -0.12400
N 	N 	0.91400 0.27380 0.87710 -0.19400
N 	N 	0.42280 0.98740 0.00360 -0.10800
N 	N 	0.28210 0.00120 0.00360 -0.10600
N 	N 	0.23480 0.02520 0.10850 -0.06500
N 	N 	0.35040 0.02830 0.17920 -0.17500
N 	N 	0.16520 0.90350 0.36690 -0.16200
N 	N 	0.01910 0.90160 0.37280 -0.17600
N 	N 	0.97220 0.79470 0.37730 -0.07100
N 	N 	0.08600 0.72620 0.37710 -0.18300
N 	N 	0.57720 0.01260 0.50360 -0.16600
N 	N 	0.71790 0.99880 0.50360 -0.15000
N 	N 	0.76520 0.97480 0.60850 -0.08400
N 	N 	0.64960 0.97170 0.67920 -0.18000
N 	N 	0.66520 0.59650 0.86690 -0.18000
N 	N 	0.51910 0.59840 0.87280 -0.19700
N 	N 	0.47220 0.70530 0.87730 -0.11800
N 	N 	0.58600 0.77380 0.87710 -0.20100
N 	N 	0.07720 0.48740 0.00360 -0.11700
N 	N 	0.21790 0.50120 0.00360 -0.10100
N 	N 	0.26520 0.52520 0.10850 -0.06300
N 	N 	0.14960 0.52830 0.17920 -0.17500
N 	N 	0.33480 0.40350 0.36690 -0.16200
N 	N 	0.48090 0.40160 0.37280 -0.16800
N 	N 	0.52780 0.29470 0.37730 -0.08200
N 	N 	0.41400 0.22620 0.37710 -0.17600
N 	N 	0.92280 0.51260 0.50360 -0.16300
N 	N 	0.78210 0.49880 0.50360 -0.15300
N 	N 	0.73480 0.47480 0.60850 -0.08600
N 	N 	0.85040 0.47170 0.67920 -0.18000
O 	O 	0.54980 0.16440 0.86180 -0.44800
O 	O 	0.61890 0.34970 0.87040 -0.50600
O 	O 	0.71410 0.98010 0.07200 -0.32300
O 	O 	0.64680 0.02510 0.25490 -0.45200
O 	O 	0.45020 0.83560 0.36180 -0.39600
O 	O 	0.38110 0.65030 0.37040 -0.46100
O 	O 	0.28590 0.01990 0.57200 -0.41800
O 	O 	0.35320 0.97490 0.75490 -0.50100
O 	O 	0.95020 0.66440 0.86180 -0.44200
O 	O 	0.88110 0.84970 0.87040 -0.50200
O 	O 	0.78590 0.48010 0.07200 -0.33600
O 	O 	0.85320 0.52510 0.25490 -0.45300
O 	O 	0.04980 0.33560 0.36180 -0.40300
O 	O 	0.11890 0.15030 0.37040 -0.46400
O 	O 	0.21410 0.51990 0.57200 -0.41900
O 	O 	0.14680 0.47490 0.75490 -0.50100
