data_crystal

_cell_length_a 17.20530
_cell_length_b 11.64620
_cell_length_c 18.26290
_cell_angle_alpha 90.00000
_cell_angle_beta  110.46200
_cell_angle_gamma 90.00000

_symmetry_space_group_name_	'P 1'
_symmetry_space_group_name_H-M	'P 1'

loop_
_symmetry_equiv_pos_as_xyz
  x,y,z

loop_
_atom_site_label
_atom_site_type_symbol
_atom_site_fract_x
_atom_site_fract_y
_atom_site_fract_z
_atom_site_charge
Yb	Yb	0.49724 0.07133 0.10204 1.55500
Yb	Yb	0.99839 0.41658 0.59569 1.55000
S 	S 	0.75521 0.21080 0.39112 0.07700
S 	S 	0.26288 0.22461 0.55761 0.08300
S 	S 	0.25117 0.29118 0.90790 0.06600
O 	O 	0.07640 0.41120 0.72370 -0.43700
C 	C 	0.62290 0.09260 0.28480 0.40700
O 	O 	0.59440 0.08460 0.33830 -0.44700
O 	O 	0.40630 0.07880 0.55690 -0.42300
O 	O 	0.91870 0.32570 0.48280 -0.43500
C 	C 	0.38280 0.14170 0.94320 0.39200
C 	C 	0.29650 0.32530 0.44860 0.00700
H 	H 	0.32160 0.34530 0.41280 0.03700
C 	C 	0.11480 0.38850 0.79320 0.39700
O 	O 	0.39740 0.17500 0.01150 -0.42500
C 	C 	0.82520 0.27730 0.35750 -0.10500
C 	C 	0.39030 0.15170 0.50460 0.41500
C 	C 	0.12690 0.37200 0.52720 0.39200
O 	O 	0.42540 0.06790 0.92350 -0.46000
C 	C 	0.20920 0.24130 0.76180 -0.00300
H 	H 	0.18160 0.23960 0.70800 0.04500
C 	C 	0.89550 0.34650 0.41050 0.39500
O 	O 	0.10090 0.43060 0.85200 -0.43600
O 	O 	0.08050 0.44890 0.48730 -0.47500
O 	O 	0.42220 0.16550 0.45320 -0.45300
O 	O 	0.11350 0.32620 0.58360 -0.42300
O 	O 	0.59200 0.04440 0.21850 -0.45200
C 	C 	0.70010 0.15950 0.29940 -0.13000
C 	C 	0.18670 0.30760 0.81210 -0.12500
C 	C 	0.22800 0.38350 0.45380 -0.01800
H 	H 	0.20330 0.44630 0.42300 0.05800
C 	C 	0.32390 0.23680 0.50010 -0.11500
C 	C 	0.73570 0.19040 0.24530 -0.00400
H 	H 	0.71570 0.16810 0.19310 0.03400
C 	C 	0.31070 0.19430 0.88080 -0.10400
C 	C 	0.80590 0.25960 0.27900 -0.00800
H 	H 	0.83650 0.29050 0.25060 0.04900
C 	C 	0.28040 0.17520 0.80210 -0.01100
H 	H 	0.30430 0.12360 0.77720 0.05400
C 	C 	0.20130 0.33760 0.50940 -0.11000
O 	O 	0.92650 0.41810 0.37770 -0.41800
Yb	Yb	0.50276 0.07133 0.39796 1.55500
Yb	Yb	0.00161 0.41658 0.90431 1.54700
S 	S 	0.24479 0.21080 0.10888 0.07700
S 	S 	0.73712 0.22461 0.94239 0.08200
S 	S 	0.74883 0.29118 0.59210 0.06700
O 	O 	0.92360 0.41120 0.77630 -0.43500
C 	C 	0.37710 0.09260 0.21520 0.40700
O 	O 	0.40560 0.08460 0.16170 -0.44700
O 	O 	0.59370 0.07880 0.94310 -0.42300
O 	O 	0.08130 0.32570 0.01720 -0.43300
C 	C 	0.61720 0.14170 0.55680 0.39300
C 	C 	0.70350 0.32530 0.05140 0.00500
H 	H 	0.67840 0.34530 0.08720 0.03700
C 	C 	0.88520 0.38850 0.70680 0.39700
O 	O 	0.60260 0.17500 0.48850 -0.42500
C 	C 	0.17480 0.27730 0.14250 -0.10400
C 	C 	0.60970 0.15170 0.99540 0.41600
C 	C 	0.87310 0.37200 0.97280 0.39600
O 	O 	0.57460 0.06790 0.57650 -0.46000
C 	C 	0.79080 0.24130 0.73820 -0.00300
H 	H 	0.81840 0.23960 0.79200 0.04500
C 	C 	0.10450 0.34650 0.08950 0.39500
O 	O 	0.89910 0.43060 0.64800 -0.43500
O 	O 	0.91950 0.44890 0.01270 -0.48000
O 	O 	0.57780 0.16550 0.04680 -0.45500
O 	O 	0.88650 0.32620 0.91640 -0.42300
O 	O 	0.40800 0.04440 0.28150 -0.45100
C 	C 	0.29990 0.15950 0.20060 -0.13000
C 	C 	0.81330 0.30760 0.68790 -0.12500
C 	C 	0.77200 0.38350 0.04620 -0.02100
H 	H 	0.79670 0.44630 0.07700 0.05800
C 	C 	0.67610 0.23680 0.99990 -0.11300
C 	C 	0.26430 0.19040 0.25470 -0.00300
H 	H 	0.28430 0.16810 0.30690 0.03400
C 	C 	0.68930 0.19430 0.61920 -0.10400
C 	C 	0.19410 0.25960 0.22100 -0.00800
H 	H 	0.16350 0.29050 0.24940 0.05000
C 	C 	0.71960 0.17520 0.69790 -0.01000
H 	H 	0.69570 0.12360 0.72280 0.05400
C 	C 	0.79870 0.33760 0.99060 -0.10800
O 	O 	0.07350 0.41810 0.12230 -0.41500
Yb	Yb	0.50276 0.92867 0.89796 1.55500
Yb	Yb	0.00161 0.58342 0.40431 1.55000
S 	S 	0.24479 0.78920 0.60888 0.07700
S 	S 	0.73712 0.77539 0.44239 0.08300
S 	S 	0.74883 0.70882 0.09210 0.06600
O 	O 	0.92360 0.58880 0.27630 -0.43700
C 	C 	0.37710 0.90740 0.71520 0.40700
O 	O 	0.40560 0.91540 0.66170 -0.44700
O 	O 	0.59370 0.92120 0.44310 -0.42300
O 	O 	0.08130 0.67430 0.51720 -0.43500
C 	C 	0.61720 0.85830 0.05680 0.39200
C 	C 	0.70350 0.67470 0.55140 0.00700
H 	H 	0.67840 0.65470 0.58720 0.03700
C 	C 	0.88520 0.61150 0.20680 0.39700
O 	O 	0.60260 0.82500 0.98850 -0.42500
C 	C 	0.17480 0.72270 0.64250 -0.10500
C 	C 	0.60970 0.84830 0.49540 0.41500
C 	C 	0.87310 0.62800 0.47280 0.39200
O 	O 	0.57460 0.93210 0.07650 -0.46000
C 	C 	0.79080 0.75870 0.23820 -0.00300
H 	H 	0.81840 0.76040 0.29200 0.04500
C 	C 	0.10450 0.65350 0.58950 0.39500
O 	O 	0.89910 0.56940 0.14800 -0.43600
O 	O 	0.91950 0.55110 0.51270 -0.47500
O 	O 	0.57780 0.83450 0.54680 -0.45300
O 	O 	0.88650 0.67380 0.41640 -0.42300
O 	O 	0.40800 0.95560 0.78150 -0.45200
C 	C 	0.29990 0.84050 0.70060 -0.13000
C 	C 	0.81330 0.69240 0.18790 -0.12500
C 	C 	0.77200 0.61650 0.54620 -0.01800
H 	H 	0.79670 0.55370 0.57700 0.05800
C 	C 	0.67610 0.76320 0.49990 -0.11500
C 	C 	0.26430 0.80960 0.75470 -0.00400
H 	H 	0.28430 0.83190 0.80690 0.03400
C 	C 	0.68930 0.80570 0.11920 -0.10400
C 	C 	0.19410 0.74040 0.72100 -0.00800
H 	H 	0.16350 0.70950 0.74940 0.04900
C 	C 	0.71960 0.82480 0.19790 -0.01100
H 	H 	0.69570 0.87640 0.22280 0.05400
C 	C 	0.79870 0.66240 0.49060 -0.11000
O 	O 	0.07350 0.58190 0.62230 -0.41800
Yb	Yb	0.49724 0.92867 0.60204 1.55500
Yb	Yb	0.99839 0.58342 0.09569 1.54700
S 	S 	0.75521 0.78920 0.89112 0.07700
S 	S 	0.26288 0.77539 0.05761 0.08200
S 	S 	0.25117 0.70882 0.40790 0.06700
O 	O 	0.07640 0.58880 0.22370 -0.43500
C 	C 	0.62290 0.90740 0.78480 0.40700
O 	O 	0.59440 0.91540 0.83830 -0.44700
O 	O 	0.40630 0.92120 0.05690 -0.42300
O 	O 	0.91870 0.67430 0.98280 -0.43300
C 	C 	0.38280 0.85830 0.44320 0.39300
C 	C 	0.29650 0.67470 0.94860 0.00500
H 	H 	0.32160 0.65470 0.91280 0.03700
C 	C 	0.11480 0.61150 0.29320 0.39700
O 	O 	0.39740 0.82500 0.51150 -0.42500
C 	C 	0.82520 0.72270 0.85750 -0.10400
C 	C 	0.39030 0.84830 0.00460 0.41600
C 	C 	0.12690 0.62800 0.02720 0.39600
O 	O 	0.42540 0.93210 0.42350 -0.46000
C 	C 	0.20920 0.75870 0.26180 -0.00300
H 	H 	0.18160 0.76040 0.20800 0.04500
C 	C 	0.89550 0.65350 0.91050 0.39500
O 	O 	0.10090 0.56940 0.35200 -0.43500
O 	O 	0.08050 0.55110 0.98730 -0.48000
O 	O 	0.42220 0.83450 0.95320 -0.45500
O 	O 	0.11350 0.67380 0.08360 -0.42300
O 	O 	0.59200 0.95560 0.71850 -0.45100
C 	C 	0.70010 0.84050 0.79940 -0.13000
C 	C 	0.18670 0.69240 0.31210 -0.12500
C 	C 	0.22800 0.61650 0.95380 -0.02100
H 	H 	0.20330 0.55370 0.92300 0.05800
C 	C 	0.32390 0.76320 0.00010 -0.11300
C 	C 	0.73570 0.80960 0.74530 -0.00300
H 	H 	0.71570 0.83190 0.69310 0.03400
C 	C 	0.31070 0.80570 0.38080 -0.10400
C 	C 	0.80590 0.74040 0.77900 -0.00800
H 	H 	0.83650 0.70950 0.75060 0.05000
C 	C 	0.28040 0.82480 0.30210 -0.01000
H 	H 	0.30430 0.87640 0.27720 0.05400
C 	C 	0.20130 0.66240 0.00940 -0.10800
O 	O 	0.92650 0.58190 0.87770 -0.41500
