data_crystal

_cell_length_a 20.50800
_cell_length_b 20.50800
_cell_length_c 17.79200
_cell_angle_alpha 90.00000
_cell_angle_beta  90.00000
_cell_angle_gamma 90.00000

_symmetry_space_group_name_	'P 1'
_symmetry_space_group_name_H-M	'P 1'

loop_
_symmetry_equiv_pos_as_xyz
  x,y,z

loop_
_atom_site_label
_atom_site_type_symbol
_atom_site_fract_x
_atom_site_fract_y
_atom_site_fract_z
_atom_site_charge
Zn	Zn	0.74291 0.88078 0.78977 1.23200
O 	O 	0.66349 0.05693 0.43090 -0.42800
O 	O 	0.84010 0.75990 0.45090 -0.45600
C 	C 	0.72560 0.96130 0.44400 -0.12600
O 	O 	0.76510 0.86770 0.68450 -0.43200
O 	O 	0.82810 0.81120 0.33970 -0.45400
C 	C 	0.72720 0.90460 0.64550 0.30600
O 	O 	0.68470 0.94100 0.67360 -0.29300
C 	C 	0.71140 0.95750 0.51980 0.05600
H 	H 	0.68490 0.98970 0.54310 0.04100
C 	C 	0.73700 0.90510 0.56220 -0.09900
C 	C 	0.78250 0.85740 0.44870 -0.13400
C 	C 	0.77260 0.85670 0.52550 0.06100
H 	H 	0.79070 0.82210 0.55420 0.04000
C 	C 	0.81870 0.80420 0.41120 0.37800
C 	C 	0.75970 0.91060 0.40980 0.07600
H 	H 	0.76750 0.91290 0.35730 0.04000
O 	O 	0.73930 0.03470 0.34280 -0.45500
C 	C 	0.70690 0.02220 0.40270 0.39000
Zn	Zn	0.24291 0.38078 0.28977 1.23100
O 	O 	0.16349 0.55693 0.93090 -0.42100
O 	O 	0.34010 0.25990 0.95090 -0.44800
C 	C 	0.22560 0.46130 0.94400 -0.09000
O 	O 	0.26510 0.36770 0.18450 -0.43100
O 	O 	0.32810 0.31120 0.83970 -0.45000
C 	C 	0.22720 0.40460 0.14550 0.29700
O 	O 	0.18470 0.44100 0.17360 -0.29300
C 	C 	0.21140 0.45750 0.01980 0.01600
H 	H 	0.18490 0.48970 0.04310 0.04900
C 	C 	0.23700 0.40510 0.06220 -0.07600
C 	C 	0.28250 0.35740 0.94870 -0.09700
C 	C 	0.27260 0.35670 0.02550 0.02000
H 	H 	0.29070 0.32210 0.05420 0.04900
C 	C 	0.31870 0.30420 0.91120 0.36600
C 	C 	0.25970 0.41060 0.90980 0.04900
H 	H 	0.26750 0.41290 0.85730 0.04900
O 	O 	0.23930 0.53470 0.84280 -0.45100
C 	C 	0.20690 0.52220 0.90270 0.37900
Zn	Zn	0.25709 0.11922 0.78977 1.23200
O 	O 	0.33651 0.94307 0.43090 -0.42800
O 	O 	0.15990 0.24010 0.45090 -0.45600
C 	C 	0.27440 0.03870 0.44400 -0.12600
O 	O 	0.23490 0.13230 0.68450 -0.43200
O 	O 	0.17190 0.18880 0.33970 -0.45400
C 	C 	0.27280 0.09540 0.64550 0.30600
O 	O 	0.31530 0.05900 0.67360 -0.29300
C 	C 	0.28860 0.04250 0.51980 0.05600
H 	H 	0.31510 0.01030 0.54310 0.04100
C 	C 	0.26300 0.09490 0.56220 -0.09900
C 	C 	0.21750 0.14260 0.44870 -0.13400
C 	C 	0.22740 0.14330 0.52550 0.06100
H 	H 	0.20930 0.17790 0.55420 0.04000
C 	C 	0.18130 0.19580 0.41120 0.37800
C 	C 	0.24030 0.08940 0.40980 0.07600
H 	H 	0.23250 0.08710 0.35730 0.04000
O 	O 	0.26070 0.96530 0.34280 -0.45500
C 	C 	0.29310 0.97780 0.40270 0.39000
Zn	Zn	0.75709 0.61922 0.28977 1.23100
O 	O 	0.83651 0.44307 0.93090 -0.42100
O 	O 	0.65990 0.74010 0.95090 -0.44800
C 	C 	0.77440 0.53870 0.94400 -0.09000
O 	O 	0.73490 0.63230 0.18450 -0.43100
O 	O 	0.67190 0.68880 0.83970 -0.45000
C 	C 	0.77280 0.59540 0.14550 0.29700
O 	O 	0.81530 0.55900 0.17360 -0.29300
C 	C 	0.78860 0.54250 0.01980 0.01600
H 	H 	0.81510 0.51030 0.04310 0.04900
C 	C 	0.76300 0.59490 0.06220 -0.07600
C 	C 	0.71750 0.64260 0.94870 -0.09700
C 	C 	0.72740 0.64330 0.02550 0.02000
H 	H 	0.70930 0.67790 0.05420 0.04900
C 	C 	0.68130 0.69580 0.91120 0.36600
C 	C 	0.74030 0.58940 0.90980 0.04900
H 	H 	0.73250 0.58710 0.85730 0.04900
O 	O 	0.76070 0.46530 0.84280 -0.45100
C 	C 	0.79310 0.47780 0.90270 0.37900
Zn	Zn	0.11922 0.74291 0.78977 1.23200
O 	O 	0.94307 0.66349 0.43090 -0.42800
O 	O 	0.24010 0.84010 0.45090 -0.45600
C 	C 	0.03870 0.72560 0.44400 -0.12600
O 	O 	0.13230 0.76510 0.68450 -0.43200
O 	O 	0.18880 0.82810 0.33970 -0.45400
C 	C 	0.09540 0.72720 0.64550 0.30600
O 	O 	0.05900 0.68470 0.67360 -0.29300
C 	C 	0.04250 0.71140 0.51980 0.05600
H 	H 	0.01030 0.68490 0.54310 0.04100
C 	C 	0.09490 0.73700 0.56220 -0.09900
C 	C 	0.14260 0.78250 0.44870 -0.13400
C 	C 	0.14330 0.77260 0.52550 0.06100
H 	H 	0.17790 0.79070 0.55420 0.04000
C 	C 	0.19580 0.81870 0.41120 0.37800
C 	C 	0.08940 0.75970 0.40980 0.07600
H 	H 	0.08710 0.76750 0.35730 0.04000
O 	O 	0.96530 0.73930 0.34280 -0.45500
C 	C 	0.97780 0.70690 0.40270 0.39000
Zn	Zn	0.61922 0.24291 0.28977 1.23100
O 	O 	0.44307 0.16349 0.93090 -0.42100
O 	O 	0.74010 0.34010 0.95090 -0.44800
C 	C 	0.53870 0.22560 0.94400 -0.09000
O 	O 	0.63230 0.26510 0.18450 -0.43100
O 	O 	0.68880 0.32810 0.83970 -0.45000
C 	C 	0.59540 0.22720 0.14550 0.29700
O 	O 	0.55900 0.18470 0.17360 -0.29300
C 	C 	0.54250 0.21140 0.01980 0.01600
H 	H 	0.51030 0.18490 0.04310 0.04900
C 	C 	0.59490 0.23700 0.06220 -0.07600
C 	C 	0.64260 0.28250 0.94870 -0.09700
C 	C 	0.64330 0.27260 0.02550 0.02000
H 	H 	0.67790 0.29070 0.05420 0.04900
C 	C 	0.69580 0.31870 0.91120 0.36600
C 	C 	0.58940 0.25970 0.90980 0.04900
H 	H 	0.58710 0.26750 0.85730 0.04900
O 	O 	0.46530 0.23930 0.84280 -0.45100
C 	C 	0.47780 0.20690 0.90270 0.37900
Zn	Zn	0.88078 0.25709 0.78977 1.23200
O 	O 	0.05693 0.33651 0.43090 -0.42800
O 	O 	0.75990 0.15990 0.45090 -0.45600
C 	C 	0.96130 0.27440 0.44400 -0.12600
O 	O 	0.86770 0.23490 0.68450 -0.43200
O 	O 	0.81120 0.17190 0.33970 -0.45400
C 	C 	0.90460 0.27280 0.64550 0.30600
O 	O 	0.94100 0.31530 0.67360 -0.29300
C 	C 	0.95750 0.28860 0.51980 0.05600
H 	H 	0.98970 0.31510 0.54310 0.04100
C 	C 	0.90510 0.26300 0.56220 -0.09900
C 	C 	0.85740 0.21750 0.44870 -0.13400
C 	C 	0.85670 0.22740 0.52550 0.06100
H 	H 	0.82210 0.20930 0.55420 0.04000
C 	C 	0.80420 0.18130 0.41120 0.37800
C 	C 	0.91060 0.24030 0.40980 0.07600
H 	H 	0.91290 0.23250 0.35730 0.04000
O 	O 	0.03470 0.26070 0.34280 -0.45500
C 	C 	0.02220 0.29310 0.40270 0.39000
Zn	Zn	0.38078 0.75709 0.28977 1.23100
O 	O 	0.55693 0.83651 0.93090 -0.42100
O 	O 	0.25990 0.65990 0.95090 -0.44800
C 	C 	0.46130 0.77440 0.94400 -0.09000
O 	O 	0.36770 0.73490 0.18450 -0.43100
O 	O 	0.31120 0.67190 0.83970 -0.45000
C 	C 	0.40460 0.77280 0.14550 0.29700
O 	O 	0.44100 0.81530 0.17360 -0.29300
C 	C 	0.45750 0.78860 0.01980 0.01600
H 	H 	0.48970 0.81510 0.04310 0.04900
C 	C 	0.40510 0.76300 0.06220 -0.07600
C 	C 	0.35740 0.71750 0.94870 -0.09700
C 	C 	0.35670 0.72740 0.02550 0.02000
H 	H 	0.32210 0.70930 0.05420 0.04900
C 	C 	0.30420 0.68130 0.91120 0.36600
C 	C 	0.41060 0.74030 0.90980 0.04900
H 	H 	0.41290 0.73250 0.85730 0.04900
O 	O 	0.53470 0.76070 0.84280 -0.45100
C 	C 	0.52220 0.79310 0.90270 0.37900
Zn	Zn	0.74291 0.11922 0.28977 1.23100
O 	O 	0.66349 0.94307 0.93090 -0.42100
O 	O 	0.84010 0.24010 0.95090 -0.44800
C 	C 	0.72560 0.03870 0.94400 -0.09100
O 	O 	0.76510 0.13230 0.18450 -0.43100
O 	O 	0.82810 0.18880 0.83970 -0.45000
C 	C 	0.72720 0.09540 0.14550 0.29800
O 	O 	0.68470 0.05900 0.17360 -0.29300
C 	C 	0.71140 0.04250 0.01980 0.01700
H 	H 	0.68490 0.01030 0.04310 0.04900
C 	C 	0.73700 0.09490 0.06220 -0.07600
C 	C 	0.78250 0.14260 0.94870 -0.09800
C 	C 	0.77260 0.14330 0.02550 0.02000
H 	H 	0.79070 0.17790 0.05420 0.04900
C 	C 	0.81870 0.19580 0.91120 0.36600
C 	C 	0.75970 0.08940 0.90980 0.04900
H 	H 	0.76750 0.08710 0.85730 0.04900
O 	O 	0.73930 0.96530 0.84280 -0.45100
C 	C 	0.70690 0.97780 0.90270 0.37900
Zn	Zn	0.24291 0.61922 0.78977 1.23200
O 	O 	0.16349 0.44307 0.43090 -0.42800
O 	O 	0.34010 0.74010 0.45090 -0.45600
C 	C 	0.22560 0.53870 0.44400 -0.12600
O 	O 	0.26510 0.63230 0.68450 -0.43200
O 	O 	0.32810 0.68880 0.33970 -0.45400
C 	C 	0.22720 0.59540 0.64550 0.30600
O 	O 	0.18470 0.55900 0.67360 -0.29300
C 	C 	0.21140 0.54250 0.51980 0.05600
H 	H 	0.18490 0.51030 0.54310 0.04100
C 	C 	0.23700 0.59490 0.56220 -0.09900
C 	C 	0.28250 0.64260 0.44870 -0.13400
C 	C 	0.27260 0.64330 0.52550 0.06100
H 	H 	0.29070 0.67790 0.55420 0.04000
C 	C 	0.31870 0.69580 0.41120 0.37800
C 	C 	0.25970 0.58940 0.40980 0.07600
H 	H 	0.26750 0.58710 0.35730 0.04000
O 	O 	0.23930 0.46530 0.34280 -0.45500
C 	C 	0.20690 0.47780 0.40270 0.39000
Zn	Zn	0.25709 0.88078 0.28977 1.23100
O 	O 	0.33651 0.05693 0.93090 -0.42100
O 	O 	0.15990 0.75990 0.95090 -0.44800
C 	C 	0.27440 0.96130 0.94400 -0.09100
O 	O 	0.23490 0.86770 0.18450 -0.43100
O 	O 	0.17190 0.81120 0.83970 -0.45000
C 	C 	0.27280 0.90460 0.14550 0.29800
O 	O 	0.31530 0.94100 0.17360 -0.29300
C 	C 	0.28860 0.95750 0.01980 0.01700
H 	H 	0.31510 0.98970 0.04310 0.04900
C 	C 	0.26300 0.90510 0.06220 -0.07600
C 	C 	0.21750 0.85740 0.94870 -0.09800
C 	C 	0.22740 0.85670 0.02550 0.02000
H 	H 	0.20930 0.82210 0.05420 0.04900
C 	C 	0.18130 0.80420 0.91120 0.36600
C 	C 	0.24030 0.91060 0.90980 0.04900
H 	H 	0.23250 0.91290 0.85730 0.04900
O 	O 	0.26070 0.03470 0.84280 -0.45100
C 	C 	0.29310 0.02220 0.90270 0.37900
Zn	Zn	0.75709 0.38078 0.78977 1.23200
O 	O 	0.83651 0.55693 0.43090 -0.42800
O 	O 	0.65990 0.25990 0.45090 -0.45600
C 	C 	0.77440 0.46130 0.44400 -0.12600
O 	O 	0.73490 0.36770 0.68450 -0.43200
O 	O 	0.67190 0.31120 0.33970 -0.45400
C 	C 	0.77280 0.40460 0.64550 0.30600
O 	O 	0.81530 0.44100 0.67360 -0.29300
C 	C 	0.78860 0.45750 0.51980 0.05600
H 	H 	0.81510 0.48970 0.54310 0.04100
C 	C 	0.76300 0.40510 0.56220 -0.09900
C 	C 	0.71750 0.35740 0.44870 -0.13400
C 	C 	0.72740 0.35670 0.52550 0.06100
H 	H 	0.70930 0.32210 0.55420 0.04000
C 	C 	0.68130 0.30420 0.41120 0.37800
C 	C 	0.74030 0.41060 0.40980 0.07600
H 	H 	0.73250 0.41290 0.35730 0.04000
O 	O 	0.76070 0.53470 0.34280 -0.45500
C 	C 	0.79310 0.52220 0.40270 0.39000
Zn	Zn	0.11922 0.25709 0.28977 1.23100
O 	O 	0.94307 0.33651 0.93090 -0.42100
O 	O 	0.24010 0.15990 0.95090 -0.44800
C 	C 	0.03870 0.27440 0.94400 -0.09100
O 	O 	0.13230 0.23490 0.18450 -0.43100
O 	O 	0.18880 0.17190 0.83970 -0.45000
C 	C 	0.09540 0.27280 0.14550 0.29800
O 	O 	0.05900 0.31530 0.17360 -0.29300
C 	C 	0.04250 0.28860 0.01980 0.01700
H 	H 	0.01030 0.31510 0.04310 0.04900
C 	C 	0.09490 0.26300 0.06220 -0.07600
C 	C 	0.14260 0.21750 0.94870 -0.09800
C 	C 	0.14330 0.22740 0.02550 0.02000
H 	H 	0.17790 0.20930 0.05420 0.04900
C 	C 	0.19580 0.18130 0.91120 0.36600
C 	C 	0.08940 0.24030 0.90980 0.04900
H 	H 	0.08710 0.23250 0.85730 0.04900
O 	O 	0.96530 0.26070 0.84280 -0.45100
C 	C 	0.97780 0.29310 0.90270 0.37900
Zn	Zn	0.61922 0.75709 0.78977 1.23200
O 	O 	0.44307 0.83651 0.43090 -0.42800
O 	O 	0.74010 0.65990 0.45090 -0.45600
C 	C 	0.53870 0.77440 0.44400 -0.12600
O 	O 	0.63230 0.73490 0.68450 -0.43200
O 	O 	0.68880 0.67190 0.33970 -0.45400
C 	C 	0.59540 0.77280 0.64550 0.30600
O 	O 	0.55900 0.81530 0.67360 -0.29300
C 	C 	0.54250 0.78860 0.51980 0.05600
H 	H 	0.51030 0.81510 0.54310 0.04100
C 	C 	0.59490 0.76300 0.56220 -0.09900
C 	C 	0.64260 0.71750 0.44870 -0.13400
C 	C 	0.64330 0.72740 0.52550 0.06100
H 	H 	0.67790 0.70930 0.55420 0.04000
C 	C 	0.69580 0.68130 0.41120 0.37800
C 	C 	0.58940 0.74030 0.40980 0.07600
H 	H 	0.58710 0.73250 0.35730 0.04000
O 	O 	0.46530 0.76070 0.34280 -0.45500
C 	C 	0.47780 0.79310 0.40270 0.39000
Zn	Zn	0.88078 0.74291 0.28977 1.23100
O 	O 	0.05693 0.66349 0.93090 -0.42100
O 	O 	0.75990 0.84010 0.95090 -0.44800
C 	C 	0.96130 0.72560 0.94400 -0.09100
O 	O 	0.86770 0.76510 0.18450 -0.43100
O 	O 	0.81120 0.82810 0.83970 -0.45000
C 	C 	0.90460 0.72720 0.14550 0.29800
O 	O 	0.94100 0.68470 0.17360 -0.29300
C 	C 	0.95750 0.71140 0.01980 0.01700
H 	H 	0.98970 0.68490 0.04310 0.04900
C 	C 	0.90510 0.73700 0.06220 -0.07600
C 	C 	0.85740 0.78250 0.94870 -0.09800
C 	C 	0.85670 0.77260 0.02550 0.02000
H 	H 	0.82210 0.79070 0.05420 0.04900
C 	C 	0.80420 0.81870 0.91120 0.36600
C 	C 	0.91060 0.75970 0.90980 0.04900
H 	H 	0.91290 0.76750 0.85730 0.04900
O 	O 	0.03470 0.73930 0.84280 -0.45100
C 	C 	0.02220 0.70690 0.90270 0.37900
Zn	Zn	0.38078 0.24291 0.78977 1.23200
O 	O 	0.55693 0.16349 0.43090 -0.42800
O 	O 	0.25990 0.34010 0.45090 -0.45600
C 	C 	0.46130 0.22560 0.44400 -0.12600
O 	O 	0.36770 0.26510 0.68450 -0.43200
O 	O 	0.31120 0.32810 0.33970 -0.45400
C 	C 	0.40460 0.22720 0.64550 0.30600
O 	O 	0.44100 0.18470 0.67360 -0.29300
C 	C 	0.45750 0.21140 0.51980 0.05600
H 	H 	0.48970 0.18490 0.54310 0.04100
C 	C 	0.40510 0.23700 0.56220 -0.09900
C 	C 	0.35740 0.28250 0.44870 -0.13400
C 	C 	0.35670 0.27260 0.52550 0.06100
H 	H 	0.32210 0.29070 0.55420 0.04000
C 	C 	0.30420 0.31870 0.41120 0.37800
C 	C 	0.41060 0.25970 0.40980 0.07600
H 	H 	0.41290 0.26750 0.35730 0.04000
O 	O 	0.53470 0.23930 0.34280 -0.45500
C 	C 	0.52220 0.20690 0.40270 0.39000
Co	Co	0.65818 0.84182 0.93856 1.16100
O 	O 	0.66237 0.83763 0.81950 -0.65100
Co	Co	0.34182 0.15818 0.93856 1.16100
O 	O 	0.33763 0.16237 0.81950 -0.65100
Co	Co	0.15818 0.65818 0.93856 1.16100
O 	O 	0.16237 0.66237 0.81950 -0.65100
Co	Co	0.84182 0.34182 0.93856 1.16100
O 	O 	0.83763 0.33763 0.81950 -0.65100
Co	Co	0.65818 0.15818 0.43856 1.16000
O 	O 	0.66237 0.16237 0.31950 -0.65200
Co	Co	0.34182 0.84182 0.43856 1.16000
O 	O 	0.33763 0.83763 0.31950 -0.65200
Co	Co	0.15818 0.34182 0.43856 1.16000
O 	O 	0.16237 0.33763 0.31950 -0.65200
Co	Co	0.84182 0.65818 0.43856 1.16000
O 	O 	0.83763 0.66237 0.31950 -0.65200
