data_crystal

_cell_length_a 24.71390
_cell_length_b 20.77040
_cell_length_c 24.95020
_cell_angle_alpha 90.00000
_cell_angle_beta  99.08100
_cell_angle_gamma 90.00000

_symmetry_space_group_name_	'P 1'
_symmetry_space_group_name_H-M	'P 1'

loop_
_symmetry_equiv_pos_as_xyz
  x,y,z

loop_
_atom_site_label
_atom_site_type_symbol
_atom_site_fract_x
_atom_site_fract_y
_atom_site_fract_z
_atom_site_charge
Gd	Gd	0.78815 0.53497 0.87552 1.67700
O 	O 	0.81375 0.56430 0.79120 -0.77700
O 	O 	0.76546 0.45000 0.81090 -0.79800
O 	O 	0.86988 0.47900 0.86959 -0.80700
O 	O 	0.85090 0.62000 0.90340 -0.44900
O 	O 	0.70850 0.59630 0.83720 -0.43300
O 	O 	0.74160 0.61180 0.92440 -0.38300
O 	O 	0.80450 0.47550 0.95670 -0.34100
Gd	Gd	0.91354 0.53312 0.80463 1.51500
Gd	Gd	0.77177 0.49412 0.72173 1.74700
H 	H 	0.80830 0.60390 0.78350 0.29500
Gd	Gd	0.84192 0.37577 0.83473 1.68300
H 	H 	0.73460 0.43290 0.81260 0.30600
H 	H 	0.89050 0.47650 0.90020 0.29200
O 	O 	0.85669 0.45120 0.76318 -0.78700
O 	O 	0.96870 0.44240 0.80820 -0.49100
O 	O 	0.90550 0.63640 0.84140 -0.47400
O 	O 	0.90590 0.59040 0.72340 -0.48900
O 	O 	0.70127 0.42500 0.68292 -0.77500
O 	O 	0.72600 0.53520 0.63538 -0.76100
O 	O 	0.68238 0.53860 0.73011 -0.77800
O 	O 	0.81390 0.42290 0.66312 -0.47900
O 	O 	0.82760 0.56130 0.67320 -0.48200
O 	O 	0.87550 0.27380 0.88100 -0.36600
O 	O 	0.91790 0.36220 0.91430 -0.39500
O 	O 	0.92760 0.34670 0.80180 -0.42900
O 	O 	0.75980 0.30650 0.81417 -0.37000
O 	O 	0.81210 0.31690 0.75088 -0.39000
O 	O 	0.80180 0.37580 0.91931 -0.46800
H 	H 	0.87220 0.43200 0.73960 0.30700
Gd	Gd	0.68220 0.45027 0.58335 1.47500
Gd	Gd	0.61574 0.45181 0.70796 1.54400
H 	H 	0.70940 0.38560 0.68890 0.29600
Gd	Gd	0.65736 0.60991 0.65586 1.54400
H 	H 	0.74870 0.55400 0.61840 0.30200
H 	H 	0.68120 0.55580 0.76080 0.30300
C 	C 	0.80910 0.40140 0.61660 0.46400
C 	C 	0.91150 0.30340 0.91480 0.36500
O 	O 	0.61796 0.50940 0.62751 -0.79400
O 	O 	0.67090 0.53600 0.52318 -0.49500
O 	O 	0.77010 0.41230 0.57900 -0.47700
O 	O 	0.66440 0.34170 0.60180 -0.44900
O 	O 	0.60170 0.35250 0.65780 -0.45300
O 	O 	0.56740 0.53390 0.74490 -0.45600
O 	O 	0.65190 0.40470 0.79390 -0.44000
O 	O 	0.56600 0.38310 0.76140 -0.39900
O 	O 	0.66830 0.63180 0.56370 -0.47200
O 	O 	0.57153 0.61650 0.68760 -0.46700
O 	O 	0.67370 0.68230 0.73707 -0.37000
O 	O 	0.74140 0.66330 0.69140 -0.41600
C 	C 	0.85560 0.36080 0.60280 -0.18100
H 	H 	0.93420 0.27880 0.94160 -0.07500
H 	H 	0.58660 0.51290 0.60810 0.24700
C 	C 	0.68120 0.59570 0.52730 0.42700
C 	C 	0.61970 0.32740 0.61900 0.36400
C 	C 	0.54860 0.58600 0.72160 0.39900
C 	C 	0.89550 0.33600 0.64310 0.08400
C 	C 	0.86170 0.35110 0.54900 0.08400
C 	C 	0.70970 0.62440 0.48370 -0.18400
C 	C 	0.58520 0.27700 0.58660 -0.09500
C 	C 	0.49670 0.61160 0.73740 -0.16000
H 	H 	0.89130 0.34090 0.68010 0.00700
C 	C 	0.94150 0.30410 0.63020 -0.14900
C 	C 	0.90790 0.31970 0.53630 -0.15000
H 	H 	0.83420 0.36590 0.52070 0.00900
C 	C 	0.73160 0.58520 0.44780 0.08900
C 	C 	0.71350 0.69040 0.47790 0.08600
C 	C 	0.59990 0.25660 0.53800 -0.02900
C 	C 	0.53660 0.25650 0.60170 -0.02800
C 	C 	0.46470 0.57320 0.76430 0.06300
C 	C 	0.48100 0.67550 0.72720 0.06100
H 	H 	0.96810 0.28680 0.65830 0.08200
C 	C 	0.94840 0.29760 0.57640 0.08900
H 	H 	0.91150 0.31340 0.49930 0.08600
H 	H 	0.73070 0.53980 0.45240 -0.00500
C 	C 	0.75480 0.61010 0.40580 -0.15400
C 	C 	0.73710 0.71660 0.43580 -0.15400
H 	H 	0.69990 0.71820 0.50300 0.00600
C 	C 	0.56500 0.21740 0.50330 -0.00800
H 	H 	0.63400 0.26960 0.52840 0.03600
H 	H 	0.52760 0.26980 0.63560 0.04700
C 	C 	0.50070 0.21660 0.56820 -0.00400
H 	H 	0.47560 0.52990 0.77210 0.01400
C 	C 	0.41660 0.59560 0.78050 -0.12800
C 	C 	0.43370 0.69980 0.74420 -0.13100
H 	H 	0.50260 0.70280 0.70850 0.01300
C 	C 	0.00070 0.27010 0.56230 -0.02500
H 	H 	0.76910 0.58200 0.38150 0.08000
C 	C 	0.75730 0.67650 0.39880 0.08400
H 	H 	0.73950 0.76200 0.43220 0.09400
C 	C 	0.57830 0.19850 0.44970 0.05100
C 	C 	0.51570 0.19730 0.51850 -0.06900
C 	C 	0.44810 0.19500 0.58210 0.04500
H 	H 	0.39470 0.56750 0.79810 0.07200
C 	C 	0.40070 0.65980 0.77070 0.06400
H 	H 	0.42400 0.74360 0.73780 0.08200
C 	C 	0.03100 0.22390 0.59420 -0.00500
C 	C 	0.02060 0.29360 0.51670 -0.04200
C 	C 	0.77670 0.70390 0.35030 -0.01000
C 	C 	0.63150 0.18180 0.44290 -0.11200
C 	C 	0.53590 0.19670 0.40490 -0.11100
H 	H 	0.49180 0.17010 0.49500 0.05200
C 	C 	0.44210 0.18060 0.63560 -0.09800
C 	C 	0.40250 0.18830 0.54060 -0.09800
C 	C 	0.34890 0.68500 0.78790 0.00600
H 	H 	0.01830 0.20780 0.62560 0.03000
C 	C 	0.08020 0.20070 0.58040 -0.10700
C 	C 	0.06940 0.27130 0.50270 -0.02700
H 	H 	0.00040 0.32550 0.49480 0.04600
C 	C 	0.74350 0.74630 0.31640 -0.03300
C 	C 	0.82810 0.68620 0.33640 -0.06100
C 	C 	0.64110 0.15920 0.39270 0.04000
H 	H 	0.66090 0.18590 0.47220 0.07500
H 	H 	0.50020 0.21090 0.40870 0.05700
C 	C 	0.54610 0.17440 0.35540 0.03500
H 	H 	0.47210 0.18660 0.66410 0.07100
C 	C 	0.39220 0.15750 0.64730 0.02200
C 	C 	0.35430 0.16390 0.55340 0.02000
H 	H 	0.40510 0.20040 0.50430 0.05600
C 	C 	0.33290 0.66430 0.83660 -0.06900
C 	C 	0.31600 0.72770 0.75450 -0.04500
C 	C 	0.10020 0.22440 0.53530 -0.00300
C 	C 	0.10950 0.14790 0.61490 0.39700
C 	C 	0.08810 0.29950 0.45380 0.09800
H 	H 	0.70880 0.75850 0.32500 0.05700
C 	C 	0.76080 0.77080 0.26990 -0.06700
C 	C 	0.84550 0.71120 0.29060 -0.00300
H 	H 	0.85080 0.65680 0.35880 0.05300
C 	C 	0.59860 0.15330 0.34900 -0.11800
H 	H 	0.67720 0.14770 0.38810 0.03400
H 	H 	0.51720 0.17340 0.32530 0.02800
H 	H 	0.38800 0.14810 0.68370 0.04000
C 	C 	0.34910 0.14850 0.60540 -0.09100
H 	H 	0.32400 0.15780 0.52530 0.03500
H 	H 	0.35540 0.63500 0.85940 0.05600
C 	C 	0.28420 0.68650 0.85180 0.00700
C 	C 	0.26670 0.75000 0.76960 -0.05100
H 	H 	0.32670 0.74190 0.72160 0.05700
H 	H 	0.13400 0.20930 0.52650 0.04400
C 	C 	0.14120 0.32030 0.45420 -0.16600
C 	C 	0.04980 0.30800 0.40650 -0.15900
C 	C 	0.81170 0.75380 0.25790 -0.03900
C 	C 	0.72310 0.81100 0.23120 0.28400
C 	C 	0.89680 0.68970 0.27270 0.07800
C 	C 	0.60650 0.12110 0.29840 0.34000
C 	C 	0.29650 0.11720 0.61560 0.29500
C 	C 	0.25220 0.73000 0.81890 -0.04300
C 	C 	0.26610 0.66250 0.90300 0.06900
C 	C 	0.22970 0.79370 0.73220 0.28000
H 	H 	0.16830 0.31190 0.48480 0.09100
C 	C 	0.15510 0.35360 0.41000 0.10800
C 	C 	0.06450 0.34020 0.36250 0.09900
H 	H 	0.01370 0.29150 0.40470 0.08900
H 	H 	0.82380 0.77160 0.22680 0.05100
C 	C 	0.90960 0.62360 0.27410 -0.14200
C 	C 	0.93090 0.73130 0.25080 -0.14100
H 	H 	0.21990 0.74650 0.82990 0.05600
C 	C 	0.27570 0.59780 0.91940 -0.13500
C 	C 	0.23780 0.70180 0.93420 -0.13400
H 	H 	0.19150 0.36880 0.41130 -0.01200
C 	C 	0.11680 0.36520 0.36400 -0.19500
H 	H 	0.03830 0.34530 0.33060 0.00100
H 	H 	0.88780 0.59430 0.29060 0.07600
C 	C 	0.95370 0.60110 0.25180 0.08100
C 	C 	0.97610 0.70870 0.22900 0.07600
H 	H 	0.92360 0.77620 0.25050 0.08400
H 	H 	0.29570 0.57020 0.89930 0.07500
C 	C 	0.25580 0.57440 0.96520 0.08500
C 	C 	0.21990 0.67740 0.98080 0.07000
H 	H 	0.23050 0.74530 0.92390 0.07900
C 	C 	0.12980 0.40660 0.31830 0.46800
H 	H 	0.96120 0.55620 0.25220 -0.00600
C 	C 	0.98730 0.64340 0.22880 -0.17400
H 	H 	0.99910 0.73820 0.21420 0.01300
H 	H 	0.26080 0.53020 0.97460 0.02000
C 	C 	0.22960 0.61340 0.99640 -0.17500
H 	H 	0.20100 0.70490 0.00210 0.01800
C 	C 	0.03430 0.61720 0.20450 0.43300
C 	C 	0.20780 0.58670 0.04640 0.54700
O 	O 	0.24000 0.53970 0.06780 -0.35700
Gd	Gd	0.21185 0.03497 0.62448 1.67900
O 	O 	0.18625 0.06430 0.70880 -0.77500
O 	O 	0.23454 0.95000 0.68910 -0.79700
O 	O 	0.13012 0.97900 0.63041 -0.80600
O 	O 	0.14910 0.12000 0.59660 -0.44900
O 	O 	0.29150 0.09630 0.66280 -0.43300
O 	O 	0.25840 0.11180 0.57560 -0.38300
O 	O 	0.19550 0.97550 0.54330 -0.34100
Gd	Gd	0.08646 0.03312 0.69537 1.51700
Gd	Gd	0.22823 0.99412 0.77827 1.74600
H 	H 	0.19170 0.10390 0.71650 0.29500
Gd	Gd	0.15808 0.87577 0.66527 1.68300
H 	H 	0.26540 0.93290 0.68740 0.30600
H 	H 	0.10950 0.97650 0.59980 0.29300
O 	O 	0.14331 0.95120 0.73682 -0.78700
O 	O 	0.03130 0.94240 0.69180 -0.49100
O 	O 	0.09450 0.13640 0.65860 -0.47400
O 	O 	0.09410 0.09040 0.77660 -0.48800
O 	O 	0.29873 0.92500 0.81708 -0.77500
O 	O 	0.27400 0.03520 0.86462 -0.76000
O 	O 	0.31762 0.03860 0.76989 -0.77800
O 	O 	0.18610 0.92290 0.83688 -0.47900
O 	O 	0.17240 0.06130 0.82680 -0.48200
O 	O 	0.12450 0.77380 0.61900 -0.36600
O 	O 	0.08210 0.86220 0.58570 -0.39500
O 	O 	0.07240 0.84670 0.69820 -0.42900
O 	O 	0.24020 0.80650 0.68583 -0.37000
O 	O 	0.18790 0.81690 0.74912 -0.39000
O 	O 	0.19820 0.87580 0.58069 -0.46800
H 	H 	0.12780 0.93200 0.76040 0.30700
Gd	Gd	0.31780 0.95027 0.91665 1.47300
Gd	Gd	0.38426 0.95181 0.79204 1.54300
H 	H 	0.29060 0.88560 0.81110 0.29600
Gd	Gd	0.34264 0.10991 0.84414 1.54400
H 	H 	0.25130 0.05400 0.88160 0.30200
H 	H 	0.31880 0.05580 0.73920 0.30300
C 	C 	0.19090 0.90140 0.88340 0.46400
C 	C 	0.08850 0.80340 0.58520 0.36500
O 	O 	0.38204 0.00940 0.87249 -0.79300
O 	O 	0.32910 0.03600 0.97682 -0.49400
O 	O 	0.22990 0.91230 0.92100 -0.47700
O 	O 	0.33560 0.84170 0.89820 -0.44900
O 	O 	0.39830 0.85250 0.84220 -0.45300
O 	O 	0.43260 0.03390 0.75510 -0.45500
O 	O 	0.34810 0.90470 0.70610 -0.44000
O 	O 	0.43400 0.88310 0.73860 -0.39900
O 	O 	0.33170 0.13180 0.93630 -0.47200
O 	O 	0.42847 0.11650 0.81240 -0.46700
O 	O 	0.32630 0.18230 0.76293 -0.37000
O 	O 	0.25860 0.16330 0.80860 -0.41600
C 	C 	0.14440 0.86080 0.89720 -0.18200
H 	H 	0.06580 0.77880 0.55840 -0.07500
H 	H 	0.41340 0.01290 0.89190 0.24700
C 	C 	0.31880 0.09570 0.97270 0.42800
C 	C 	0.38030 0.82740 0.88100 0.36300
C 	C 	0.45140 0.08600 0.77840 0.39900
C 	C 	0.10450 0.83600 0.85690 0.08500
C 	C 	0.13830 0.85110 0.95100 0.08600
C 	C 	0.29030 0.12440 0.01630 -0.18500
C 	C 	0.41480 0.77700 0.91340 -0.09500
C 	C 	0.50330 0.11160 0.76260 -0.16000
H 	H 	0.10870 0.84090 0.81990 0.00600
C 	C 	0.05850 0.80410 0.86980 -0.15000
C 	C 	0.09210 0.81970 0.96370 -0.15400
H 	H 	0.16580 0.86590 0.97930 0.00800
C 	C 	0.26840 0.08520 0.05220 0.08900
C 	C 	0.28650 0.19040 0.02210 0.08400
C 	C 	0.40010 0.75660 0.96200 -0.02900
C 	C 	0.46340 0.75650 0.89830 -0.02800
C 	C 	0.53530 0.07320 0.73570 0.06300
C 	C 	0.51900 0.17550 0.77280 0.06100
H 	H 	0.03190 0.78680 0.84170 0.08300
C 	C 	0.05160 0.79760 0.92360 0.09000
H 	H 	0.08850 0.81340 0.00070 0.08800
H 	H 	0.26930 0.03980 0.04760 -0.00600
C 	C 	0.24520 0.11010 0.09420 -0.15400
C 	C 	0.26290 0.21660 0.06420 -0.15300
H 	H 	0.30010 0.21820 0.99700 0.00700
C 	C 	0.43500 0.71740 0.99670 -0.00900
H 	H 	0.36600 0.76960 0.97160 0.03600
H 	H 	0.47240 0.76980 0.86440 0.04700
C 	C 	0.49930 0.71660 0.93180 -0.00400
H 	H 	0.52440 0.02990 0.72790 0.01500
C 	C 	0.58340 0.09560 0.71950 -0.12800
C 	C 	0.56630 0.19980 0.75580 -0.13000
H 	H 	0.49740 0.20280 0.79150 0.01400
C 	C 	0.99930 0.77010 0.93770 -0.02600
H 	H 	0.23090 0.08200 0.11850 0.08000
C 	C 	0.24270 0.17650 0.10120 0.08400
H 	H 	0.26050 0.26200 0.06780 0.09400
C 	C 	0.42170 0.69850 0.05030 0.05300
C 	C 	0.48430 0.69730 0.98150 -0.07000
C 	C 	0.55190 0.69500 0.91790 0.04500
H 	H 	0.60530 0.06750 0.70190 0.07200
C 	C 	0.59930 0.15980 0.72930 0.06400
H 	H 	0.57600 0.24360 0.76220 0.08200
C 	C 	0.96900 0.72390 0.90580 -0.00400
C 	C 	0.97940 0.79360 0.98330 -0.04400
C 	C 	0.22330 0.20390 0.14970 -0.01000
C 	C 	0.36850 0.68180 0.05710 -0.11200
C 	C 	0.46410 0.69670 0.09510 -0.11100
H 	H 	0.50820 0.67010 0.00500 0.05300
C 	C 	0.55790 0.68060 0.86440 -0.09800
C 	C 	0.59750 0.68830 0.95940 -0.09800
C 	C 	0.65110 0.18500 0.71210 0.00600
H 	H 	0.98170 0.70780 0.87440 0.03000
C 	C 	0.91980 0.70070 0.91960 -0.10800
C 	C 	0.93060 0.77130 0.99730 -0.02800
H 	H 	0.99960 0.82550 0.00520 0.04800
C 	C 	0.25650 0.24630 0.18360 -0.03300
C 	C 	0.17190 0.18620 0.16360 -0.06100
C 	C 	0.35890 0.65920 0.10730 0.04000
H 	H 	0.33910 0.68590 0.02780 0.07500
H 	H 	0.49980 0.71090 0.09130 0.05800
C 	C 	0.45390 0.67440 0.14460 0.03600
H 	H 	0.52790 0.68660 0.83590 0.07000
C 	C 	0.60780 0.65750 0.85270 0.02200
C 	C 	0.64570 0.66390 0.94660 0.02000
H 	H 	0.59490 0.70040 0.99570 0.05600
C 	C 	0.66710 0.16430 0.66340 -0.06900
C 	C 	0.68400 0.22770 0.74550 -0.04500
C 	C 	0.89980 0.72440 0.96470 -0.00300
C 	C 	0.89050 0.64790 0.88510 0.39700
C 	C 	0.91190 0.79950 0.04620 0.09900
H 	H 	0.29120 0.25850 0.17500 0.05700
C 	C 	0.23920 0.27080 0.23010 -0.06700
C 	C 	0.15450 0.21120 0.20940 -0.00300
H 	H 	0.14920 0.15680 0.14120 0.05300
C 	C 	0.40140 0.65330 0.15100 -0.11800
H 	H 	0.32280 0.64770 0.11190 0.03400
H 	H 	0.48280 0.67340 0.17470 0.02800
H 	H 	0.61200 0.64810 0.81630 0.04000
C 	C 	0.65090 0.64850 0.89460 -0.09100
H 	H 	0.67600 0.65780 0.97470 0.03500
H 	H 	0.64460 0.13500 0.64060 0.05600
C 	C 	0.71580 0.18650 0.64820 0.00700
C 	C 	0.73330 0.25000 0.73040 -0.05100
H 	H 	0.67330 0.24190 0.77840 0.05700
H 	H 	0.86600 0.70930 0.97350 0.04300
C 	C 	0.85880 0.82030 0.04580 -0.16700
C 	C 	0.95020 0.80800 0.09350 -0.16000
C 	C 	0.18830 0.25380 0.24210 -0.03900
C 	C 	0.27690 0.31100 0.26880 0.28400
C 	C 	0.10320 0.18970 0.22730 0.07800
C 	C 	0.39350 0.62110 0.20160 0.34000
C 	C 	0.70350 0.61720 0.88440 0.29500
C 	C 	0.74780 0.23000 0.68110 -0.04300
C 	C 	0.73390 0.16250 0.59700 0.06900
C 	C 	0.77030 0.29370 0.76780 0.28000
H 	H 	0.83170 0.81190 0.01520 0.09200
C 	C 	0.84490 0.85360 0.09000 0.10900
C 	C 	0.93550 0.84020 0.13750 0.09900
H 	H 	0.98630 0.79150 0.09530 0.08900
H 	H 	0.17620 0.27160 0.27320 0.05100
C 	C 	0.09040 0.12360 0.22590 -0.14200
C 	C 	0.06910 0.23130 0.24920 -0.14200
H 	H 	0.78010 0.24650 0.67010 0.05600
C 	C 	0.72430 0.09780 0.58060 -0.13600
C 	C 	0.76220 0.20180 0.56580 -0.13500
H 	H 	0.80850 0.86880 0.08870 -0.01200
C 	C 	0.88320 0.86520 0.13600 -0.19500
H 	H 	0.96170 0.84530 0.16940 0.00100
H 	H 	0.11220 0.09430 0.20940 0.07600
C 	C 	0.04630 0.10110 0.24820 0.08100
C 	C 	0.02390 0.20870 0.27100 0.07700
H 	H 	0.07640 0.27620 0.24950 0.08400
H 	H 	0.70430 0.07020 0.60070 0.07500
C 	C 	0.74420 0.07440 0.53480 0.08600
C 	C 	0.78010 0.17740 0.51920 0.07300
H 	H 	0.76950 0.24530 0.57610 0.07900
C 	C 	0.87020 0.90660 0.18170 0.46800
H 	H 	0.03880 0.05620 0.24780 -0.00600
C 	C 	0.01270 0.14340 0.27120 -0.17400
H 	H 	0.00090 0.23820 0.28580 0.01300
H 	H 	0.73920 0.03020 0.52540 0.02000
C 	C 	0.77040 0.11340 0.50360 -0.17500
H 	H 	0.79900 0.20490 0.49790 0.01700
C 	C 	0.96570 0.11720 0.29550 0.43300
C 	C 	0.79220 0.08670 0.45360 0.54600
O 	O 	0.76000 0.03970 0.43220 -0.35700
Gd	Gd	0.21185 0.46503 0.12448 1.67800
O 	O 	0.18625 0.43570 0.20880 -0.77600
O 	O 	0.23454 0.55000 0.18910 -0.79700
O 	O 	0.13012 0.52100 0.13041 -0.80600
O 	O 	0.14910 0.38000 0.09660 -0.44900
O 	O 	0.29150 0.40370 0.16280 -0.43300
O 	O 	0.25840 0.38820 0.07560 -0.38300
O 	O 	0.19550 0.52450 0.04330 -0.34100
Gd	Gd	0.08646 0.46688 0.19537 1.51500
Gd	Gd	0.22823 0.50588 0.27827 1.74700
H 	H 	0.19170 0.39610 0.21650 0.29500
Gd	Gd	0.15808 0.62423 0.16527 1.68300
H 	H 	0.26540 0.56710 0.18740 0.30600
H 	H 	0.10950 0.52350 0.09980 0.29200
O 	O 	0.14331 0.54880 0.23682 -0.78700
O 	O 	0.03130 0.55760 0.19180 -0.49100
O 	O 	0.09450 0.36360 0.15860 -0.47400
O 	O 	0.09410 0.40960 0.27660 -0.48900
O 	O 	0.29873 0.57500 0.31708 -0.77500
O 	O 	0.27400 0.46480 0.36462 -0.76100
O 	O 	0.31762 0.46140 0.26989 -0.77800
O 	O 	0.18610 0.57710 0.33688 -0.47900
O 	O 	0.17240 0.43870 0.32680 -0.48200
O 	O 	0.12450 0.72620 0.11900 -0.36600
O 	O 	0.08210 0.63780 0.08570 -0.39500
O 	O 	0.07240 0.65330 0.19820 -0.42900
O 	O 	0.24020 0.69350 0.18583 -0.37000
O 	O 	0.18790 0.68310 0.24912 -0.39000
O 	O 	0.19820 0.62420 0.08069 -0.46800
H 	H 	0.12780 0.56800 0.26040 0.30700
Gd	Gd	0.31780 0.54973 0.41665 1.47500
Gd	Gd	0.38426 0.54819 0.29204 1.54400
H 	H 	0.29060 0.61440 0.31110 0.29600
Gd	Gd	0.34264 0.39009 0.34414 1.54400
H 	H 	0.25130 0.44600 0.38160 0.30200
H 	H 	0.31880 0.44420 0.23920 0.30300
C 	C 	0.19090 0.59860 0.38340 0.46400
C 	C 	0.08850 0.69660 0.08520 0.36500
O 	O 	0.38204 0.49060 0.37249 -0.79400
O 	O 	0.32910 0.46400 0.47682 -0.49500
O 	O 	0.22990 0.58770 0.42100 -0.47700
O 	O 	0.33560 0.65830 0.39820 -0.44900
O 	O 	0.39830 0.64750 0.34220 -0.45300
O 	O 	0.43260 0.46610 0.25510 -0.45600
O 	O 	0.34810 0.59530 0.20610 -0.44000
O 	O 	0.43400 0.61690 0.23860 -0.39900
O 	O 	0.33170 0.36820 0.43630 -0.47200
O 	O 	0.42847 0.38350 0.31240 -0.46700
O 	O 	0.32630 0.31770 0.26293 -0.37000
O 	O 	0.25860 0.33670 0.30860 -0.41600
C 	C 	0.14440 0.63920 0.39720 -0.18100
H 	H 	0.06580 0.72120 0.05840 -0.07500
H 	H 	0.41340 0.48710 0.39190 0.24700
C 	C 	0.31880 0.40430 0.47270 0.42700
C 	C 	0.38030 0.67260 0.38100 0.36400
C 	C 	0.45140 0.41400 0.27840 0.39900
C 	C 	0.10450 0.66400 0.35690 0.08400
C 	C 	0.13830 0.64890 0.45100 0.08400
C 	C 	0.29030 0.37560 0.51630 -0.18400
C 	C 	0.41480 0.72300 0.41340 -0.09500
C 	C 	0.50330 0.38840 0.26260 -0.16000
H 	H 	0.10870 0.65910 0.31990 0.00700
C 	C 	0.05850 0.69590 0.36980 -0.14900
C 	C 	0.09210 0.68030 0.46370 -0.15000
H 	H 	0.16580 0.63410 0.47930 0.00900
C 	C 	0.26840 0.41480 0.55220 0.08900
C 	C 	0.28650 0.30960 0.52210 0.08600
C 	C 	0.40010 0.74340 0.46200 -0.02900
C 	C 	0.46340 0.74350 0.39830 -0.02800
C 	C 	0.53530 0.42680 0.23570 0.06300
C 	C 	0.51900 0.32450 0.27280 0.06100
H 	H 	0.03190 0.71320 0.34170 0.08200
C 	C 	0.05160 0.70240 0.42360 0.08900
H 	H 	0.08850 0.68660 0.50070 0.08600
H 	H 	0.26930 0.46020 0.54760 -0.00500
C 	C 	0.24520 0.38990 0.59420 -0.15400
C 	C 	0.26290 0.28340 0.56420 -0.15400
H 	H 	0.30010 0.28180 0.49700 0.00600
C 	C 	0.43500 0.78260 0.49670 -0.00800
H 	H 	0.36600 0.73040 0.47160 0.03600
H 	H 	0.47240 0.73020 0.36440 0.04700
C 	C 	0.49930 0.78340 0.43180 -0.00400
H 	H 	0.52440 0.47010 0.22790 0.01400
C 	C 	0.58340 0.40440 0.21950 -0.12800
C 	C 	0.56630 0.30020 0.25580 -0.13100
H 	H 	0.49740 0.29720 0.29150 0.01300
C 	C 	0.99930 0.72990 0.43770 -0.02500
H 	H 	0.23090 0.41800 0.61850 0.08000
C 	C 	0.24270 0.32350 0.60120 0.08400
H 	H 	0.26050 0.23800 0.56780 0.09400
C 	C 	0.42170 0.80150 0.55030 0.05100
C 	C 	0.48430 0.80270 0.48150 -0.06900
C 	C 	0.55190 0.80500 0.41790 0.04500
H 	H 	0.60530 0.43250 0.20190 0.07200
C 	C 	0.59930 0.34020 0.22930 0.06400
H 	H 	0.57600 0.25640 0.26220 0.08200
C 	C 	0.96900 0.77610 0.40580 -0.00500
C 	C 	0.97940 0.70640 0.48330 -0.04200
C 	C 	0.22330 0.29610 0.64970 -0.01000
C 	C 	0.36850 0.81820 0.55710 -0.11200
C 	C 	0.46410 0.80330 0.59510 -0.11100
H 	H 	0.50820 0.82990 0.50500 0.05200
C 	C 	0.55790 0.81940 0.36440 -0.09800
C 	C 	0.59750 0.81170 0.45940 -0.09800
C 	C 	0.65110 0.31500 0.21210 0.00600
H 	H 	0.98170 0.79220 0.37440 0.03000
C 	C 	0.91980 0.79930 0.41960 -0.10700
C 	C 	0.93060 0.72870 0.49730 -0.02700
H 	H 	0.99960 0.67450 0.50520 0.04600
C 	C 	0.25650 0.25370 0.68360 -0.03300
C 	C 	0.17190 0.31380 0.66360 -0.06100
C 	C 	0.35890 0.84080 0.60730 0.04000
H 	H 	0.33910 0.81410 0.52780 0.07500
H 	H 	0.49980 0.78910 0.59130 0.05700
C 	C 	0.45390 0.82560 0.64460 0.03500
H 	H 	0.52790 0.81340 0.33590 0.07100
C 	C 	0.60780 0.84250 0.35270 0.02200
C 	C 	0.64570 0.83610 0.44660 0.02000
H 	H 	0.59490 0.79960 0.49570 0.05600
C 	C 	0.66710 0.33570 0.16340 -0.06900
C 	C 	0.68400 0.27230 0.24550 -0.04500
C 	C 	0.89980 0.77560 0.46470 -0.00300
C 	C 	0.89050 0.85210 0.38510 0.39700
C 	C 	0.91190 0.70050 0.54620 0.09800
H 	H 	0.29120 0.24150 0.67500 0.05700
C 	C 	0.23920 0.22920 0.73010 -0.06700
C 	C 	0.15450 0.28880 0.70940 -0.00300
H 	H 	0.14920 0.34320 0.64120 0.05300
C 	C 	0.40140 0.84670 0.65100 -0.11800
H 	H 	0.32280 0.85230 0.61190 0.03400
H 	H 	0.48280 0.82660 0.67470 0.02800
H 	H 	0.61200 0.85190 0.31630 0.04000
C 	C 	0.65090 0.85150 0.39460 -0.09100
H 	H 	0.67600 0.84220 0.47470 0.03500
H 	H 	0.64460 0.36500 0.14060 0.05600
C 	C 	0.71580 0.31350 0.14820 0.00700
C 	C 	0.73330 0.25000 0.23040 -0.05100
H 	H 	0.67330 0.25810 0.27840 0.05700
H 	H 	0.86600 0.79070 0.47350 0.04400
C 	C 	0.85880 0.67970 0.54580 -0.16600
C 	C 	0.95020 0.69200 0.59350 -0.15900
C 	C 	0.18830 0.24620 0.74210 -0.03900
C 	C 	0.27690 0.18900 0.76880 0.28400
C 	C 	0.10320 0.31030 0.72730 0.07800
C 	C 	0.39350 0.87890 0.70160 0.34000
C 	C 	0.70350 0.88280 0.38440 0.29500
C 	C 	0.74780 0.27000 0.18110 -0.04300
C 	C 	0.73390 0.33750 0.09700 0.06900
C 	C 	0.77030 0.20630 0.26780 0.28000
H 	H 	0.83170 0.68810 0.51520 0.09100
C 	C 	0.84490 0.64640 0.59000 0.10800
C 	C 	0.93550 0.65980 0.63750 0.09900
H 	H 	0.98630 0.70850 0.59530 0.08900
H 	H 	0.17620 0.22840 0.77320 0.05100
C 	C 	0.09040 0.37640 0.72590 -0.14200
C 	C 	0.06910 0.26870 0.74920 -0.14100
H 	H 	0.78010 0.25350 0.17010 0.05600
C 	C 	0.72430 0.40220 0.08060 -0.13500
C 	C 	0.76220 0.29820 0.06580 -0.13400
H 	H 	0.80850 0.63120 0.58870 -0.01200
C 	C 	0.88320 0.63480 0.63600 -0.19500
H 	H 	0.96170 0.65470 0.66940 0.00100
H 	H 	0.11220 0.40570 0.70940 0.07600
C 	C 	0.04630 0.39890 0.74820 0.08100
C 	C 	0.02390 0.29130 0.77100 0.07600
H 	H 	0.07640 0.22380 0.74950 0.08400
H 	H 	0.70430 0.42980 0.10070 0.07500
C 	C 	0.74420 0.42560 0.03480 0.08500
C 	C 	0.78010 0.32260 0.01920 0.07000
H 	H 	0.76950 0.25470 0.07610 0.07900
C 	C 	0.87020 0.59340 0.68170 0.46800
H 	H 	0.03880 0.44380 0.74780 -0.00600
C 	C 	0.01270 0.35660 0.77120 -0.17400
H 	H 	0.00090 0.26180 0.78580 0.01300
H 	H 	0.73920 0.46980 0.02540 0.02000
C 	C 	0.77040 0.38660 0.00360 -0.17500
H 	H 	0.79900 0.29510 0.99790 0.01800
C 	C 	0.96570 0.38280 0.79550 0.43300
C 	C 	0.79220 0.41330 0.95360 0.54700
O 	O 	0.76000 0.46030 0.93220 -0.35700
Gd	Gd	0.78815 0.96503 0.37552 1.67900
O 	O 	0.81375 0.93570 0.29120 -0.77500
O 	O 	0.76546 0.05000 0.31090 -0.79700
O 	O 	0.86988 0.02100 0.36959 -0.80600
O 	O 	0.85090 0.88000 0.40340 -0.44900
O 	O 	0.70850 0.90370 0.33720 -0.43300
O 	O 	0.74160 0.88820 0.42440 -0.38300
O 	O 	0.80450 0.02450 0.45670 -0.34100
Gd	Gd	0.91354 0.96688 0.30463 1.51700
Gd	Gd	0.77177 0.00588 0.22173 1.74600
H 	H 	0.80830 0.89610 0.28350 0.29500
Gd	Gd	0.84192 0.12423 0.33473 1.68300
H 	H 	0.73460 0.06710 0.31260 0.30600
H 	H 	0.89050 0.02350 0.40020 0.29300
O 	O 	0.85669 0.04880 0.26318 -0.78700
O 	O 	0.96870 0.05760 0.30820 -0.49100
O 	O 	0.90550 0.86360 0.34140 -0.47400
O 	O 	0.90590 0.90960 0.22340 -0.48800
O 	O 	0.70127 0.07500 0.18292 -0.77500
O 	O 	0.72600 0.96480 0.13538 -0.76000
O 	O 	0.68238 0.96140 0.23011 -0.77800
O 	O 	0.81390 0.07710 0.16312 -0.47900
O 	O 	0.82760 0.93870 0.17320 -0.48200
O 	O 	0.87550 0.22620 0.38100 -0.36600
O 	O 	0.91790 0.13780 0.41430 -0.39500
O 	O 	0.92760 0.15330 0.30180 -0.42900
O 	O 	0.75980 0.19350 0.31417 -0.37000
O 	O 	0.81210 0.18310 0.25088 -0.39000
O 	O 	0.80180 0.12420 0.41931 -0.46800
H 	H 	0.87220 0.06800 0.23960 0.30700
Gd	Gd	0.68220 0.04973 0.08335 1.47300
Gd	Gd	0.61574 0.04819 0.20796 1.54300
H 	H 	0.70940 0.11440 0.18890 0.29600
Gd	Gd	0.65736 0.89009 0.15586 1.54400
H 	H 	0.74870 0.94600 0.11840 0.30200
H 	H 	0.68120 0.94420 0.26080 0.30300
C 	C 	0.80910 0.09860 0.11660 0.46400
C 	C 	0.91150 0.19660 0.41480 0.36500
O 	O 	0.61796 0.99060 0.12751 -0.79300
O 	O 	0.67090 0.96400 0.02318 -0.49400
O 	O 	0.77010 0.08770 0.07900 -0.47700
O 	O 	0.66440 0.15830 0.10180 -0.44900
O 	O 	0.60170 0.14750 0.15780 -0.45300
O 	O 	0.56740 0.96610 0.24490 -0.45500
O 	O 	0.65190 0.09530 0.29390 -0.44000
O 	O 	0.56600 0.11690 0.26140 -0.39900
O 	O 	0.66830 0.86820 0.06370 -0.47200
O 	O 	0.57153 0.88350 0.18760 -0.46700
O 	O 	0.67370 0.81770 0.23707 -0.37000
O 	O 	0.74140 0.83670 0.19140 -0.41600
C 	C 	0.85560 0.13920 0.10280 -0.18200
H 	H 	0.93420 0.22120 0.44160 -0.07500
H 	H 	0.58660 0.98710 0.10810 0.24700
C 	C 	0.68120 0.90430 0.02730 0.42800
C 	C 	0.61970 0.17260 0.11900 0.36300
C 	C 	0.54860 0.91400 0.22160 0.39900
C 	C 	0.89550 0.16400 0.14310 0.08500
C 	C 	0.86170 0.14890 0.04900 0.08600
C 	C 	0.70970 0.87560 0.98370 -0.18500
C 	C 	0.58520 0.22300 0.08660 -0.09500
C 	C 	0.49670 0.88840 0.23740 -0.16000
H 	H 	0.89130 0.15910 0.18010 0.00600
C 	C 	0.94150 0.19590 0.13020 -0.15000
C 	C 	0.90790 0.18030 0.03630 -0.15400
H 	H 	0.83420 0.13410 0.02070 0.00800
C 	C 	0.73160 0.91480 0.94780 0.08900
C 	C 	0.71350 0.80960 0.97790 0.08400
C 	C 	0.59990 0.24340 0.03800 -0.02900
C 	C 	0.53660 0.24350 0.10170 -0.02800
C 	C 	0.46470 0.92680 0.26430 0.06300
C 	C 	0.48100 0.82450 0.22720 0.06100
H 	H 	0.96810 0.21320 0.15830 0.08300
C 	C 	0.94840 0.20240 0.07640 0.09000
H 	H 	0.91150 0.18660 0.99930 0.08800
H 	H 	0.73070 0.96020 0.95240 -0.00600
C 	C 	0.75480 0.88990 0.90580 -0.15400
C 	C 	0.73710 0.78340 0.93580 -0.15300
H 	H 	0.69990 0.78180 0.00300 0.00700
C 	C 	0.56500 0.28260 0.00330 -0.00900
H 	H 	0.63400 0.23040 0.02840 0.03600
H 	H 	0.52760 0.23020 0.13560 0.04700
C 	C 	0.50070 0.28340 0.06820 -0.00400
H 	H 	0.47560 0.97010 0.27210 0.01500
C 	C 	0.41660 0.90440 0.28050 -0.12800
C 	C 	0.43370 0.80020 0.24420 -0.13000
H 	H 	0.50260 0.79720 0.20850 0.01400
C 	C 	0.00070 0.22990 0.06230 -0.02600
H 	H 	0.76910 0.91800 0.88150 0.08000
C 	C 	0.75730 0.82350 0.89880 0.08400
H 	H 	0.73950 0.73800 0.93220 0.09400
C 	C 	0.57830 0.30150 0.94970 0.05300
C 	C 	0.51570 0.30270 0.01850 -0.07000
C 	C 	0.44810 0.30500 0.08210 0.04500
H 	H 	0.39470 0.93250 0.29810 0.07200
C 	C 	0.40070 0.84020 0.27070 0.06400
H 	H 	0.42400 0.75640 0.23780 0.08200
C 	C 	0.03100 0.27610 0.09420 -0.00400
C 	C 	0.02060 0.20640 0.01670 -0.04400
C 	C 	0.77670 0.79610 0.85030 -0.01000
C 	C 	0.63150 0.31820 0.94290 -0.11200
C 	C 	0.53590 0.30330 0.90490 -0.11100
H 	H 	0.49180 0.32990 0.99500 0.05300
C 	C 	0.44210 0.31940 0.13560 -0.09800
C 	C 	0.40250 0.31170 0.04060 -0.09800
C 	C 	0.34890 0.81500 0.28790 0.00600
H 	H 	0.01830 0.29220 0.12560 0.03000
C 	C 	0.08020 0.29930 0.08040 -0.10800
C 	C 	0.06940 0.22870 0.00270 -0.02800
H 	H 	0.00040 0.17450 0.99480 0.04800
C 	C 	0.74350 0.75370 0.81640 -0.03300
C 	C 	0.82810 0.81380 0.83640 -0.06100
C 	C 	0.64110 0.34080 0.89270 0.04000
H 	H 	0.66090 0.31410 0.97220 0.07500
H 	H 	0.50020 0.28910 0.90870 0.05800
C 	C 	0.54610 0.32560 0.85540 0.03600
H 	H 	0.47210 0.31340 0.16410 0.07000
C 	C 	0.39220 0.34250 0.14730 0.02200
C 	C 	0.35430 0.33610 0.05340 0.02000
H 	H 	0.40510 0.29960 0.00430 0.05600
C 	C 	0.33290 0.83570 0.33660 -0.06900
C 	C 	0.31600 0.77230 0.25450 -0.04500
C 	C 	0.10020 0.27560 0.03530 -0.00300
C 	C 	0.10950 0.35210 0.11490 0.39700
C 	C 	0.08810 0.20050 0.95380 0.09900
H 	H 	0.70880 0.74150 0.82500 0.05700
C 	C 	0.76080 0.72920 0.76990 -0.06700
C 	C 	0.84550 0.78880 0.79060 -0.00300
H 	H 	0.85080 0.84320 0.85880 0.05300
C 	C 	0.59860 0.34670 0.84900 -0.11800
H 	H 	0.67720 0.35230 0.88810 0.03400
H 	H 	0.51720 0.32660 0.82530 0.02800
H 	H 	0.38800 0.35190 0.18370 0.04000
C 	C 	0.34910 0.35150 0.10540 -0.09100
H 	H 	0.32400 0.34220 0.02530 0.03500
H 	H 	0.35540 0.86500 0.35940 0.05600
C 	C 	0.28420 0.81350 0.35180 0.00700
C 	C 	0.26670 0.75000 0.26960 -0.05100
H 	H 	0.32670 0.75810 0.22160 0.05700
H 	H 	0.13400 0.29070 0.02650 0.04300
C 	C 	0.14120 0.17970 0.95420 -0.16700
C 	C 	0.04980 0.19200 0.90650 -0.16000
C 	C 	0.81170 0.74620 0.75790 -0.03900
C 	C 	0.72310 0.68900 0.73120 0.28400
C 	C 	0.89680 0.81030 0.77270 0.07800
C 	C 	0.60650 0.37890 0.79840 0.34000
C 	C 	0.29650 0.38280 0.11560 0.29500
C 	C 	0.25220 0.77000 0.31890 -0.04300
C 	C 	0.26610 0.83750 0.40300 0.06900
C 	C 	0.22970 0.70630 0.23220 0.28000
H 	H 	0.16830 0.18810 0.98480 0.09200
C 	C 	0.15510 0.14640 0.91000 0.10900
C 	C 	0.06450 0.15980 0.86250 0.09900
H 	H 	0.01370 0.20850 0.90470 0.08900
H 	H 	0.82380 0.72840 0.72680 0.05100
C 	C 	0.90960 0.87640 0.77410 -0.14200
C 	C 	0.93090 0.76870 0.75080 -0.14200
H 	H 	0.21990 0.75350 0.32990 0.05600
C 	C 	0.27570 0.90220 0.41940 -0.13600
C 	C 	0.23780 0.79820 0.43420 -0.13500
H 	H 	0.19150 0.13120 0.91130 -0.01200
C 	C 	0.11680 0.13480 0.86400 -0.19500
H 	H 	0.03830 0.15470 0.83060 0.00100
H 	H 	0.88780 0.90570 0.79060 0.07600
C 	C 	0.95370 0.89890 0.75180 0.08100
C 	C 	0.97610 0.79130 0.72900 0.07700
H 	H 	0.92360 0.72380 0.75050 0.08400
H 	H 	0.29570 0.92980 0.39930 0.07500
C 	C 	0.25580 0.92560 0.46520 0.08600
C 	C 	0.21990 0.82260 0.48080 0.07300
H 	H 	0.23050 0.75470 0.42390 0.07900
C 	C 	0.12980 0.09340 0.81830 0.46800
H 	H 	0.96120 0.94380 0.75220 -0.00600
C 	C 	0.98730 0.85660 0.72880 -0.17400
H 	H 	0.99910 0.76180 0.71420 0.01300
H 	H 	0.26080 0.96980 0.47460 0.02000
C 	C 	0.22960 0.88660 0.49640 -0.17500
H 	H 	0.20100 0.79510 0.50210 0.01700
C 	C 	0.03430 0.88280 0.70450 0.43300
C 	C 	0.20780 0.91330 0.54640 0.54600
O 	O 	0.24000 0.96030 0.56780 -0.35700
