data_crystal

_cell_length_a 24.65790
_cell_length_b 20.65000
_cell_length_c 24.94480
_cell_angle_alpha 90.00000
_cell_angle_beta  99.49700
_cell_angle_gamma 90.00000

_symmetry_space_group_name_	'P 1'
_symmetry_space_group_name_H-M	'P 1'

loop_
_symmetry_equiv_pos_as_xyz
  x,y,z

loop_
_atom_site_label
_atom_site_type_symbol
_atom_site_fract_x
_atom_site_fract_y
_atom_site_fract_z
_atom_site_charge
Tb	Tb	0.78882 0.53595 0.87565 1.99100
Tb	Tb	0.84195 0.37608 0.83584 1.98100
Tb	Tb	0.91347 0.53422 0.80715 1.79600
Tb	Tb	0.77183 0.49444 0.72319 2.07800
Tb	Tb	0.68213 0.45108 0.58448 1.73600
Tb	Tb	0.65775 0.61036 0.65716 1.80500
Tb	Tb	0.61652 0.45177 0.70788 1.83200
O 	O 	0.61910 0.50950 0.62780 -0.91900
H 	H 	0.58750 0.51310 0.60830 0.26000
O 	O 	0.70180 0.42550 0.68400 -0.90200
H 	H 	0.71000 0.38590 0.69000 0.32300
O 	O 	0.72610 0.53710 0.63680 -0.87400
H 	H 	0.74890 0.55590 0.61990 0.32700
O 	O 	0.68220 0.53770 0.73120 -0.90100
H 	H 	0.68110 0.55500 0.76190 0.33000
O 	O 	0.85670 0.45190 0.76460 -0.90900
H 	H 	0.87230 0.43280 0.74100 0.33400
O 	O 	0.81400 0.56440 0.79310 -0.91200
H 	H 	0.80860 0.60430 0.78540 0.32100
O 	O 	0.76540 0.45140 0.81190 -0.92700
H 	H 	0.73440 0.43420 0.81360 0.33000
O 	O 	0.87090 0.47920 0.87120 -0.93800
H 	H 	0.89160 0.47660 0.90190 0.31500
O 	O 	0.67090 0.63240 0.56500 -0.52400
O 	O 	0.67190 0.53590 0.52470 -0.55700
O 	O 	0.67470 0.81860 0.23890 -0.39900
O 	O 	0.74150 0.83410 0.19060 -0.45200
O 	O 	0.03010 0.55490 0.19050 -0.55800
O 	O 	0.07190 0.65170 0.19640 -0.47700
O 	O 	0.76960 0.41240 0.58020 -0.52400
O 	O 	0.81460 0.42400 0.66410 -0.53800
O 	O 	0.09420 0.13650 0.65760 -0.53300
O 	O 	0.14970 0.12540 0.59740 -0.52500
O 	O 	0.17180 0.43810 0.32340 -0.53600
O 	O 	0.09120 0.40940 0.27290 -0.52800
O 	O 	0.65260 0.09510 0.29320 -0.49300
O 	O 	0.56700 0.11640 0.26040 -0.44600
O 	O 	0.66420 0.34240 0.60180 -0.52500
O 	O 	0.60330 0.35090 0.65720 -0.52000
O 	O 	0.29430 0.09160 0.65950 -0.49700
O 	O 	0.25830 0.10980 0.57470 -0.43600
O 	O 	0.56860 0.53380 0.74460 -0.51600
O 	O 	0.57270 0.61740 0.68890 -0.52400
O 	O 	0.23980 0.80590 0.68500 -0.40700
O 	O 	0.18860 0.81830 0.74790 -0.44000
O 	O 	0.19600 0.62620 0.07930 -0.52100
O 	O 	0.87500 0.27350 0.87930 -0.39800
O 	O 	0.91810 0.36210 0.91500 -0.42400
C 	C 	0.68280 0.59620 0.52950 0.46000
C 	C 	0.71140 0.62490 0.48480 -0.18900
C 	C 	0.73310 0.58400 0.45050 0.09100
H 	H 	0.73130 0.53860 0.45590 -0.01100
C 	C 	0.75720 0.60690 0.40880 -0.14900
H 	H 	0.77290 0.57810 0.38590 0.07700
C 	C 	0.75820 0.67540 0.40030 0.07200
C 	C 	0.73810 0.71710 0.43700 -0.14700
H 	H 	0.74090 0.76270 0.43290 0.09100
C 	C 	0.71420 0.69210 0.47890 0.08300
H 	H 	0.69990 0.72010 0.50330 0.00400
C 	C 	0.77900 0.70360 0.35190 0.00200
C 	C 	0.74570 0.74400 0.31870 -0.05000
H 	H 	0.71120 0.75680 0.32760 0.05800
C 	C 	0.76230 0.76700 0.27080 -0.05200
C 	C 	0.81290 0.75100 0.25830 -0.05200
H 	H 	0.82510 0.76970 0.22760 0.05300
C 	C 	0.84590 0.70700 0.29110 0.00300
C 	C 	0.82990 0.68470 0.33740 -0.07100
H 	H 	0.85320 0.65600 0.36030 0.05600
C 	C 	0.72360 0.81010 0.23090 0.26700
C 	C 	0.89850 0.68700 0.27230 0.08200
C 	C 	0.91050 0.61990 0.27350 -0.14500
H 	H 	0.88860 0.59060 0.29000 0.07600
C 	C 	0.95430 0.59710 0.25050 0.08300
H 	H 	0.96190 0.55210 0.24980 -0.01100
C 	C 	0.98670 0.64130 0.22870 -0.17400
C 	C 	0.97660 0.70660 0.22850 0.08500
H 	H 	0.99940 0.73660 0.21380 0.00800
C 	C 	0.93200 0.72630 0.25050 -0.15200
H 	H 	0.92420 0.77130 0.25030 0.08400
C 	C 	0.03410 0.61450 0.20100 0.46600
C 	C 	0.81050 0.40300 0.61810 0.50400
C 	C 	0.85630 0.36350 0.60390 -0.21100
C 	C 	0.89770 0.34140 0.64530 0.10000
H 	H 	0.89480 0.34740 0.68240 -0.00600
C 	C 	0.94380 0.30990 0.63030 -0.16000
H 	H 	0.97080 0.29200 0.65790 0.08600
C 	C 	0.95070 0.30460 0.57620 0.10000
C 	C 	0.90800 0.32350 0.53660 -0.16400
H 	H 	0.91020 0.31560 0.49950 0.09000
C 	C 	0.86140 0.35440 0.55010 0.10400
H 	H 	0.83320 0.36910 0.52210 -0.00100
C 	C 	0.00200 0.27340 0.56340 -0.04000
C 	C 	0.03220 0.22920 0.59360 0.01200
H 	H 	0.02040 0.21360 0.62560 0.02100
C 	C 	0.08100 0.20510 0.57930 -0.13000
C 	C 	0.09860 0.22720 0.53410 0.01600
H 	H 	0.13120 0.21000 0.52410 0.03500
C 	C 	0.07060 0.27320 0.50330 -0.04100
C 	C 	0.02000 0.29670 0.51610 -0.03300
H 	H 	0.99870 0.32740 0.49330 0.04200
C 	C 	0.11050 0.14860 0.61280 0.44800
C 	C 	0.08750 0.30360 0.45340 0.10600
C 	C 	0.14040 0.32360 0.45320 -0.17400
H 	H 	0.16810 0.31460 0.48360 0.09300
C 	C 	0.15400 0.35720 0.40840 0.11500
H 	H 	0.19020 0.37370 0.40960 -0.02100
C 	C 	0.11510 0.36650 0.36240 -0.20200
C 	C 	0.06220 0.34340 0.36090 0.10100
H 	H 	0.03530 0.34930 0.32940 -0.00200
C 	C 	0.04890 0.31140 0.40660 -0.16400
H 	H 	0.01290 0.29460 0.40540 0.08900
C 	C 	0.12810 0.40820 0.31660 0.47500
C 	C 	0.60690 0.11920 0.29820 0.36100
C 	C 	0.60000 0.15160 0.34950 -0.13300
C 	C 	0.64210 0.15970 0.39270 0.06000
H 	H 	0.67870 0.14890 0.38880 0.01900
C 	C 	0.63130 0.18340 0.44140 -0.13100
H 	H 	0.66100 0.19010 0.47040 0.07900
C 	C 	0.57830 0.19780 0.44930 0.06700
C 	C 	0.53690 0.19400 0.40320 -0.12400
H 	H 	0.50080 0.20750 0.40670 0.05700
C 	C 	0.54580 0.17220 0.35450 0.04600
H 	H 	0.51680 0.17060 0.32430 0.02200
C 	C 	0.56550 0.21730 0.50180 -0.03500
C 	C 	0.59950 0.25780 0.53800 0.00200
H 	H 	0.63330 0.27230 0.52840 0.02100
C 	C 	0.58590 0.27730 0.58640 -0.13800
C 	C 	0.53670 0.25700 0.60060 0.00200
H 	H 	0.52690 0.27130 0.63400 0.03300
C 	C 	0.50170 0.21660 0.56750 -0.03000
C 	C 	0.51570 0.19820 0.51760 -0.04700
H 	H 	0.49080 0.17200 0.49360 0.04200
C 	C 	0.62110 0.32810 0.61880 0.44000
C 	C 	0.44720 0.19410 0.58210 0.07500
C 	C 	0.44350 0.17980 0.63420 -0.13000
H 	H 	0.47390 0.18590 0.66260 0.08100
C 	C 	0.39250 0.15510 0.64530 0.05300
H 	H 	0.38810 0.14550 0.68160 0.02800
C 	C 	0.34980 0.14520 0.60360 -0.12900
C 	C 	0.35470 0.16220 0.55180 0.05400
H 	H 	0.32400 0.15760 0.52350 0.02200
C 	C 	0.40300 0.18540 0.54000 -0.13100
H 	H 	0.40650 0.19550 0.50360 0.06400
C 	C 	0.29770 0.11480 0.61370 0.34100
C 	C 	0.54960 0.58590 0.72230 0.43500
C 	C 	0.49650 0.61060 0.73720 -0.17300
C 	C 	0.46450 0.57070 0.76240 0.06700
H 	H 	0.47480 0.52660 0.76800 0.00800
C 	C 	0.41640 0.59320 0.78060 -0.12800
H 	H 	0.39500 0.56500 0.79870 0.07100
C 	C 	0.40080 0.65960 0.77090 0.06200
C 	C 	0.43490 0.69860 0.74390 -0.13400
H 	H 	0.42510 0.74280 0.73780 0.08200
C 	C 	0.48090 0.67660 0.72630 0.06500
H 	H 	0.50210 0.70430 0.70730 0.00800
C 	C 	0.35020 0.68410 0.78660 0.00100
C 	C 	0.33310 0.66300 0.83560 -0.06600
H 	H 	0.35560 0.63360 0.85880 0.05500
C 	C 	0.28430 0.68440 0.85010 0.00400
C 	C 	0.25270 0.73070 0.81760 -0.04000
H 	H 	0.22130 0.74920 0.82920 0.05200
C 	C 	0.26730 0.74880 0.76950 -0.05800
C 	C 	0.31590 0.72750 0.75330 -0.04200
H 	H 	0.32560 0.74210 0.72000 0.05500
C 	C 	0.22920 0.79320 0.73160 0.29300
C 	C 	0.26820 0.66190 0.90260 0.06500
C 	C 	0.27750 0.59870 0.91930 -0.12800
H 	H 	0.29670 0.57080 0.89860 0.07100
C 	C 	0.25960 0.57380 0.96630 0.06700
H 	H 	0.26640 0.53000 0.97680 0.02100
C 	C 	0.23150 0.61520 0.99700 -0.16800
C 	C 	0.22000 0.67910 0.98020 0.06200
H 	H 	0.20020 0.70680 0.00040 0.01900
C 	C 	0.23830 0.70160 0.93320 -0.12600
H 	H 	0.23030 0.74490 0.92160 0.07500
C 	C 	0.21150 0.58770 0.04870 0.56800
C 	C 	0.91030 0.30250 0.91490 0.35700
H 	H 	0.93150 0.27730 0.94260 -0.07300
O 	O 	0.19880 0.52530 0.04640 -0.34800
O 	O 	0.23810 0.53680 0.06650 -0.39100
Tb	Tb	0.21118 0.03595 0.62435 1.99400
Tb	Tb	0.15805 0.87608 0.66416 1.98200
Tb	Tb	0.08653 0.03422 0.69285 1.79800
Tb	Tb	0.22817 0.99444 0.77681 2.07600
Tb	Tb	0.31787 0.95108 0.91552 1.73200
Tb	Tb	0.34225 0.11036 0.84284 1.80500
Tb	Tb	0.38348 0.95177 0.79212 1.83000
O 	O 	0.38090 0.00950 0.87220 -0.91800
H 	H 	0.41250 0.01310 0.89170 0.26100
O 	O 	0.29820 0.92550 0.81600 -0.90100
H 	H 	0.29000 0.88590 0.81000 0.32300
O 	O 	0.27390 0.03710 0.86320 -0.87200
H 	H 	0.25110 0.05590 0.88010 0.32700
O 	O 	0.31780 0.03770 0.76880 -0.90000
H 	H 	0.31890 0.05500 0.73810 0.33000
O 	O 	0.14330 0.95190 0.73540 -0.90900
H 	H 	0.12770 0.93280 0.75900 0.33400
O 	O 	0.18600 0.06440 0.70690 -0.91100
H 	H 	0.19140 0.10430 0.71460 0.32100
O 	O 	0.23460 0.95140 0.68810 -0.92700
H 	H 	0.26560 0.93420 0.68640 0.33000
O 	O 	0.12910 0.97920 0.62880 -0.93900
H 	H 	0.10840 0.97660 0.59810 0.31600
O 	O 	0.32910 0.13240 0.93500 -0.52400
O 	O 	0.32810 0.03590 0.97530 -0.55500
O 	O 	0.32530 0.31860 0.26110 -0.39900
O 	O 	0.25850 0.33410 0.30940 -0.45200
O 	O 	0.96990 0.05490 0.30950 -0.55800
O 	O 	0.92810 0.15170 0.30360 -0.47700
O 	O 	0.23040 0.91240 0.91980 -0.52400
O 	O 	0.18540 0.92400 0.83590 -0.53800
O 	O 	0.90580 0.63650 0.84240 -0.53300
O 	O 	0.85030 0.62540 0.90260 -0.52500
O 	O 	0.82820 0.93810 0.17660 -0.53500
O 	O 	0.90880 0.90940 0.22710 -0.52800
O 	O 	0.34740 0.59510 0.20680 -0.49300
O 	O 	0.43300 0.61640 0.23960 -0.44600
O 	O 	0.33580 0.84240 0.89820 -0.52400
O 	O 	0.39670 0.85090 0.84280 -0.51900
O 	O 	0.70570 0.59160 0.84050 -0.49700
O 	O 	0.74170 0.60980 0.92530 -0.43600
O 	O 	0.43140 0.03380 0.75540 -0.51400
O 	O 	0.42730 0.11740 0.81110 -0.52300
O 	O 	0.76020 0.30590 0.81500 -0.40700
O 	O 	0.81140 0.31830 0.75210 -0.44000
O 	O 	0.80400 0.12620 0.42070 -0.52100
O 	O 	0.12500 0.77350 0.62070 -0.39900
O 	O 	0.08190 0.86210 0.58500 -0.42400
C 	C 	0.31720 0.09620 0.97050 0.46200
C 	C 	0.28860 0.12490 0.01520 -0.19000
C 	C 	0.26690 0.08400 0.04950 0.09100
H 	H 	0.26870 0.03860 0.04410 -0.01200
C 	C 	0.24280 0.10690 0.09120 -0.14900
H 	H 	0.22710 0.07810 0.11410 0.07700
C 	C 	0.24180 0.17540 0.09970 0.07100
C 	C 	0.26190 0.21710 0.06300 -0.14600
H 	H 	0.25910 0.26270 0.06710 0.09000
C 	C 	0.28580 0.19210 0.02110 0.08000
H 	H 	0.30010 0.22010 0.99670 0.00600
C 	C 	0.22100 0.20360 0.14810 0.00200
C 	C 	0.25430 0.24400 0.18130 -0.05000
H 	H 	0.28880 0.25680 0.17240 0.05800
C 	C 	0.23770 0.26700 0.22920 -0.05200
C 	C 	0.18710 0.25100 0.24170 -0.05200
H 	H 	0.17490 0.26970 0.27240 0.05300
C 	C 	0.15410 0.20700 0.20890 0.00300
C 	C 	0.17010 0.18470 0.16260 -0.07100
H 	H 	0.14680 0.15600 0.13970 0.05600
C 	C 	0.27640 0.31010 0.26910 0.26700
C 	C 	0.10150 0.18700 0.22770 0.08200
C 	C 	0.08950 0.11990 0.22650 -0.14500
H 	H 	0.11140 0.09060 0.21000 0.07600
C 	C 	0.04570 0.09710 0.24950 0.08400
H 	H 	0.03810 0.05210 0.25020 -0.01100
C 	C 	0.01330 0.14130 0.27130 -0.17400
C 	C 	0.02340 0.20660 0.27150 0.08500
H 	H 	0.00060 0.23660 0.28620 0.00800
C 	C 	0.06800 0.22630 0.24950 -0.15200
H 	H 	0.07580 0.27130 0.24970 0.08400
C 	C 	0.96590 0.11450 0.29900 0.46600
C 	C 	0.18950 0.90300 0.88190 0.50400
C 	C 	0.14370 0.86350 0.89610 -0.21300
C 	C 	0.10230 0.84140 0.85470 0.10100
H 	H 	0.10520 0.84740 0.81760 -0.00600
C 	C 	0.05620 0.80990 0.86970 -0.16200
H 	H 	0.02920 0.79200 0.84210 0.08600
C 	C 	0.04930 0.80460 0.92380 0.10100
C 	C 	0.09200 0.82350 0.96340 -0.16900
H 	H 	0.08980 0.81560 0.00050 0.09200
C 	C 	0.13860 0.85440 0.94990 0.10700
H 	H 	0.16680 0.86910 0.97790 -0.00200
C 	C 	0.99800 0.77340 0.93660 -0.04000
C 	C 	0.96780 0.72920 0.90640 0.01200
H 	H 	0.97960 0.71360 0.87440 0.02100
C 	C 	0.91900 0.70510 0.92070 -0.13000
C 	C 	0.90140 0.72720 0.96590 0.01700
H 	H 	0.86880 0.71000 0.97590 0.03400
C 	C 	0.92940 0.77320 0.99670 -0.04200
C 	C 	0.98000 0.79670 0.98390 -0.03600
H 	H 	0.00130 0.82740 0.00670 0.04400
C 	C 	0.88950 0.64860 0.88720 0.44800
C 	C 	0.91250 0.80360 0.04660 0.10800
C 	C 	0.85960 0.82360 0.04680 -0.17500
H 	H 	0.83190 0.81460 0.01640 0.09400
C 	C 	0.84600 0.85720 0.09160 0.11600
H 	H 	0.80980 0.87370 0.09040 -0.02100
C 	C 	0.88490 0.86650 0.13760 -0.20300
C 	C 	0.93780 0.84340 0.13910 0.10200
H 	H 	0.96470 0.84930 0.17060 -0.00200
C 	C 	0.95110 0.81140 0.09340 -0.16500
H 	H 	0.98710 0.79460 0.09460 0.09000
C 	C 	0.87190 0.90820 0.18340 0.47500
C 	C 	0.39310 0.61920 0.20180 0.36100
C 	C 	0.40000 0.65160 0.15050 -0.13300
C 	C 	0.35790 0.65970 0.10730 0.06100
H 	H 	0.32130 0.64890 0.11120 0.01900
C 	C 	0.36870 0.68340 0.05860 -0.13200
H 	H 	0.33900 0.69010 0.02960 0.07900
C 	C 	0.42170 0.69780 0.05070 0.06900
C 	C 	0.46310 0.69400 0.09680 -0.12500
H 	H 	0.49920 0.70750 0.09330 0.05800
C 	C 	0.45420 0.67220 0.14550 0.04700
H 	H 	0.48320 0.67060 0.17570 0.02200
C 	C 	0.43450 0.71730 0.99820 -0.03700
C 	C 	0.40050 0.75780 0.96200 0.00300
H 	H 	0.36670 0.77230 0.97160 0.02000
C 	C 	0.41410 0.77730 0.91360 -0.13800
C 	C 	0.46330 0.75700 0.89940 0.00200
H 	H 	0.47310 0.77130 0.86600 0.03300
C 	C 	0.49830 0.71660 0.93250 -0.03000
C 	C 	0.48430 0.69820 0.98240 -0.04900
H 	H 	0.50920 0.67200 0.00640 0.04300
C 	C 	0.37890 0.82810 0.88120 0.44000
C 	C 	0.55280 0.69410 0.91790 0.07500
C 	C 	0.55650 0.67980 0.86580 -0.13000
H 	H 	0.52610 0.68590 0.83740 0.08100
C 	C 	0.60750 0.65510 0.85470 0.05300
H 	H 	0.61190 0.64550 0.81840 0.02800
C 	C 	0.65020 0.64520 0.89640 -0.12900
C 	C 	0.64530 0.66220 0.94820 0.05400
H 	H 	0.67600 0.65760 0.97650 0.02200
C 	C 	0.59700 0.68540 0.96000 -0.13100
H 	H 	0.59350 0.69550 0.99640 0.06400
C 	C 	0.70230 0.61480 0.88630 0.34100
C 	C 	0.45040 0.08590 0.77770 0.43500
C 	C 	0.50350 0.11060 0.76280 -0.17300
C 	C 	0.53550 0.07070 0.73760 0.06700
H 	H 	0.52520 0.02660 0.73200 0.00900
C 	C 	0.58360 0.09320 0.71940 -0.12800
H 	H 	0.60500 0.06500 0.70130 0.07100
C 	C 	0.59920 0.15960 0.72910 0.06200
C 	C 	0.56510 0.19860 0.75610 -0.13300
H 	H 	0.57490 0.24280 0.76220 0.08200
C 	C 	0.51910 0.17660 0.77370 0.06500
H 	H 	0.49790 0.20430 0.79270 0.00800
C 	C 	0.64980 0.18410 0.71340 0.00100
C 	C 	0.66690 0.16300 0.66440 -0.06600
H 	H 	0.64440 0.13360 0.64120 0.05500
C 	C 	0.71570 0.18440 0.64990 0.00400
C 	C 	0.74730 0.23070 0.68240 -0.04000
H 	H 	0.77870 0.24920 0.67080 0.05200
C 	C 	0.73270 0.24880 0.73050 -0.05800
C 	C 	0.68410 0.22750 0.74670 -0.04200
H 	H 	0.67440 0.24210 0.78000 0.05500
C 	C 	0.77080 0.29320 0.76840 0.29300
C 	C 	0.73180 0.16190 0.59740 0.06600
C 	C 	0.72250 0.09870 0.58070 -0.12800
H 	H 	0.70330 0.07080 0.60140 0.07100
C 	C 	0.74040 0.07380 0.53370 0.06800
H 	H 	0.73360 0.03000 0.52320 0.02100
C 	C 	0.76850 0.11520 0.50300 -0.16800
C 	C 	0.78000 0.17910 0.51980 0.06400
H 	H 	0.79980 0.20680 0.49960 0.01800
C 	C 	0.76170 0.20160 0.56680 -0.12800
H 	H 	0.76970 0.24490 0.57840 0.07500
C 	C 	0.78850 0.08770 0.45130 0.56700
C 	C 	0.08970 0.80250 0.58510 0.35700
H 	H 	0.06850 0.77730 0.55740 -0.07300
O 	O 	0.80120 0.02530 0.45360 -0.34800
O 	O 	0.76190 0.03680 0.43350 -0.39100
Tb	Tb	0.21118 0.46405 0.12435 1.99200
Tb	Tb	0.15805 0.62392 0.16416 1.98200
Tb	Tb	0.08653 0.46578 0.19285 1.79600
Tb	Tb	0.22817 0.50556 0.27681 2.07800
Tb	Tb	0.31787 0.54892 0.41552 1.73600
Tb	Tb	0.34225 0.38964 0.34284 1.80500
Tb	Tb	0.38348 0.54823 0.29212 1.83200
O 	O 	0.38090 0.49050 0.37220 -0.91900
H 	H 	0.41250 0.48690 0.39170 0.26000
O 	O 	0.29820 0.57450 0.31600 -0.90200
H 	H 	0.29000 0.61410 0.31000 0.32300
O 	O 	0.27390 0.46290 0.36320 -0.87400
H 	H 	0.25110 0.44410 0.38010 0.32700
O 	O 	0.31780 0.46230 0.26880 -0.90100
H 	H 	0.31890 0.44500 0.23810 0.33000
O 	O 	0.14330 0.54810 0.23540 -0.90900
H 	H 	0.12770 0.56720 0.25900 0.33400
O 	O 	0.18600 0.43560 0.20690 -0.91200
H 	H 	0.19140 0.39570 0.21460 0.32100
O 	O 	0.23460 0.54860 0.18810 -0.92700
H 	H 	0.26560 0.56580 0.18640 0.33000
O 	O 	0.12910 0.52080 0.12880 -0.93800
H 	H 	0.10840 0.52340 0.09810 0.31500
O 	O 	0.32910 0.36760 0.43500 -0.52400
O 	O 	0.32810 0.46410 0.47530 -0.55700
O 	O 	0.32530 0.18140 0.76110 -0.39900
O 	O 	0.25850 0.16590 0.80940 -0.45200
O 	O 	0.96990 0.44510 0.80950 -0.55800
O 	O 	0.92810 0.34830 0.80360 -0.47700
O 	O 	0.23040 0.58760 0.41980 -0.52400
O 	O 	0.18540 0.57600 0.33590 -0.53800
O 	O 	0.90580 0.86350 0.34240 -0.53300
O 	O 	0.85030 0.87460 0.40260 -0.52500
O 	O 	0.82820 0.56190 0.67660 -0.53600
O 	O 	0.90880 0.59060 0.72710 -0.52800
O 	O 	0.34740 0.90490 0.70680 -0.49300
O 	O 	0.43300 0.88360 0.73960 -0.44600
O 	O 	0.33580 0.65760 0.39820 -0.52500
O 	O 	0.39670 0.64910 0.34280 -0.52000
O 	O 	0.70570 0.90840 0.34050 -0.49700
O 	O 	0.74170 0.89020 0.42530 -0.43600
O 	O 	0.43140 0.46620 0.25540 -0.51600
O 	O 	0.42730 0.38260 0.31110 -0.52400
O 	O 	0.76020 0.19410 0.31500 -0.40700
O 	O 	0.81140 0.18170 0.25210 -0.44000
O 	O 	0.80400 0.37380 0.92070 -0.52100
O 	O 	0.12500 0.72650 0.12070 -0.39800
O 	O 	0.08190 0.63790 0.08500 -0.42400
C 	C 	0.31720 0.40380 0.47050 0.46000
C 	C 	0.28860 0.37510 0.51520 -0.18900
C 	C 	0.26690 0.41600 0.54950 0.09100
H 	H 	0.26870 0.46140 0.54410 -0.01100
C 	C 	0.24280 0.39310 0.59120 -0.14900
H 	H 	0.22710 0.42190 0.61410 0.07700
C 	C 	0.24180 0.32460 0.59970 0.07200
C 	C 	0.26190 0.28290 0.56300 -0.14700
H 	H 	0.25910 0.23730 0.56710 0.09100
C 	C 	0.28580 0.30790 0.52110 0.08300
H 	H 	0.30010 0.27990 0.49670 0.00400
C 	C 	0.22100 0.29640 0.64810 0.00200
C 	C 	0.25430 0.25600 0.68130 -0.05000
H 	H 	0.28880 0.24320 0.67240 0.05800
C 	C 	0.23770 0.23300 0.72920 -0.05200
C 	C 	0.18710 0.24900 0.74170 -0.05200
H 	H 	0.17490 0.23030 0.77240 0.05300
C 	C 	0.15410 0.29300 0.70890 0.00300
C 	C 	0.17010 0.31530 0.66260 -0.07100
H 	H 	0.14680 0.34400 0.63970 0.05600
C 	C 	0.27640 0.18990 0.76910 0.26700
C 	C 	0.10150 0.31300 0.72770 0.08200
C 	C 	0.08950 0.38010 0.72650 -0.14500
H 	H 	0.11140 0.40940 0.71000 0.07600
C 	C 	0.04570 0.40290 0.74950 0.08300
H 	H 	0.03810 0.44790 0.75020 -0.01100
C 	C 	0.01330 0.35870 0.77130 -0.17400
C 	C 	0.02340 0.29340 0.77150 0.08500
H 	H 	0.00060 0.26340 0.78620 0.00800
C 	C 	0.06800 0.27370 0.74950 -0.15200
H 	H 	0.07580 0.22870 0.74970 0.08400
C 	C 	0.96590 0.38550 0.79900 0.46600
C 	C 	0.18950 0.59700 0.38190 0.50400
C 	C 	0.14370 0.63650 0.39610 -0.21100
C 	C 	0.10230 0.65860 0.35470 0.10000
H 	H 	0.10520 0.65260 0.31760 -0.00600
C 	C 	0.05620 0.69010 0.36970 -0.16000
H 	H 	0.02920 0.70800 0.34210 0.08600
C 	C 	0.04930 0.69540 0.42380 0.10000
C 	C 	0.09200 0.67650 0.46340 -0.16400
H 	H 	0.08980 0.68440 0.50050 0.09000
C 	C 	0.13860 0.64560 0.44990 0.10400
H 	H 	0.16680 0.63090 0.47790 -0.00100
C 	C 	0.99800 0.72660 0.43660 -0.04000
C 	C 	0.96780 0.77080 0.40640 0.01200
H 	H 	0.97960 0.78640 0.37440 0.02100
C 	C 	0.91900 0.79490 0.42070 -0.13000
C 	C 	0.90140 0.77280 0.46590 0.01600
H 	H 	0.86880 0.79000 0.47590 0.03500
C 	C 	0.92940 0.72680 0.49670 -0.04100
C 	C 	0.98000 0.70330 0.48390 -0.03300
H 	H 	0.00130 0.67260 0.50670 0.04200
C 	C 	0.88950 0.85140 0.38720 0.44800
C 	C 	0.91250 0.69640 0.54660 0.10600
C 	C 	0.85960 0.67640 0.54680 -0.17400
H 	H 	0.83190 0.68540 0.51640 0.09300
C 	C 	0.84600 0.64280 0.59160 0.11500
H 	H 	0.80980 0.62630 0.59040 -0.02100
C 	C 	0.88490 0.63350 0.63760 -0.20200
C 	C 	0.93780 0.65660 0.63910 0.10100
H 	H 	0.96470 0.65070 0.67060 -0.00200
C 	C 	0.95110 0.68860 0.59340 -0.16400
H 	H 	0.98710 0.70540 0.59460 0.08900
C 	C 	0.87190 0.59180 0.68340 0.47500
C 	C 	0.39310 0.88080 0.70180 0.36100
C 	C 	0.40000 0.84840 0.65050 -0.13300
C 	C 	0.35790 0.84030 0.60730 0.06000
H 	H 	0.32130 0.85110 0.61120 0.01900
C 	C 	0.36870 0.81660 0.55860 -0.13100
H 	H 	0.33900 0.80990 0.52960 0.07900
C 	C 	0.42170 0.80220 0.55070 0.06700
C 	C 	0.46310 0.80600 0.59680 -0.12400
H 	H 	0.49920 0.79250 0.59330 0.05700
C 	C 	0.45420 0.82780 0.64550 0.04600
H 	H 	0.48320 0.82940 0.67570 0.02200
C 	C 	0.43450 0.78270 0.49820 -0.03500
C 	C 	0.40050 0.74220 0.46200 0.00200
H 	H 	0.36670 0.72770 0.47160 0.02100
C 	C 	0.41410 0.72270 0.41360 -0.13800
C 	C 	0.46330 0.74300 0.39940 0.00200
H 	H 	0.47310 0.72870 0.36600 0.03300
C 	C 	0.49830 0.78340 0.43250 -0.03000
C 	C 	0.48430 0.80180 0.48240 -0.04700
H 	H 	0.50920 0.82800 0.50640 0.04200
C 	C 	0.37890 0.67190 0.38120 0.44000
C 	C 	0.55280 0.80590 0.41790 0.07500
C 	C 	0.55650 0.82020 0.36580 -0.13000
H 	H 	0.52610 0.81410 0.33740 0.08100
C 	C 	0.60750 0.84490 0.35470 0.05300
H 	H 	0.61190 0.85450 0.31840 0.02800
C 	C 	0.65020 0.85480 0.39640 -0.12900
C 	C 	0.64530 0.83780 0.44820 0.05400
H 	H 	0.67600 0.84240 0.47650 0.02200
C 	C 	0.59700 0.81460 0.46000 -0.13100
H 	H 	0.59350 0.80450 0.49640 0.06400
C 	C 	0.70230 0.88520 0.38630 0.34100
C 	C 	0.45040 0.41410 0.27770 0.43500
C 	C 	0.50350 0.38940 0.26280 -0.17300
C 	C 	0.53550 0.42930 0.23760 0.06700
H 	H 	0.52520 0.47340 0.23200 0.00800
C 	C 	0.58360 0.40680 0.21940 -0.12800
H 	H 	0.60500 0.43500 0.20130 0.07100
C 	C 	0.59920 0.34040 0.22910 0.06200
C 	C 	0.56510 0.30140 0.25610 -0.13400
H 	H 	0.57490 0.25720 0.26220 0.08200
C 	C 	0.51910 0.32340 0.27370 0.06500
H 	H 	0.49790 0.29570 0.29270 0.00800
C 	C 	0.64980 0.31590 0.21340 0.00100
C 	C 	0.66690 0.33700 0.16440 -0.06600
H 	H 	0.64440 0.36640 0.14120 0.05500
C 	C 	0.71570 0.31560 0.14990 0.00400
C 	C 	0.74730 0.26930 0.18240 -0.04000
H 	H 	0.77870 0.25080 0.17080 0.05200
C 	C 	0.73270 0.25120 0.23050 -0.05800
C 	C 	0.68410 0.27250 0.24670 -0.04200
H 	H 	0.67440 0.25790 0.28000 0.05500
C 	C 	0.77080 0.20680 0.26840 0.29300
C 	C 	0.73180 0.33810 0.09740 0.06500
C 	C 	0.72250 0.40130 0.08070 -0.12800
H 	H 	0.70330 0.42920 0.10140 0.07100
C 	C 	0.74040 0.42620 0.03370 0.06700
H 	H 	0.73360 0.47000 0.02320 0.02100
C 	C 	0.76850 0.38480 0.00300 -0.16800
C 	C 	0.78000 0.32090 0.01980 0.06200
H 	H 	0.79980 0.29320 0.99960 0.01900
C 	C 	0.76170 0.29840 0.06680 -0.12600
H 	H 	0.76970 0.25510 0.07840 0.07500
C 	C 	0.78850 0.41230 0.95130 0.56800
C 	C 	0.08970 0.69750 0.08510 0.35700
H 	H 	0.06850 0.72270 0.05740 -0.07300
O 	O 	0.80120 0.47470 0.95360 -0.34800
O 	O 	0.76190 0.46320 0.93350 -0.39100
Tb	Tb	0.78882 0.96405 0.37565 1.99400
Tb	Tb	0.84195 0.12392 0.33584 1.98200
Tb	Tb	0.91347 0.96578 0.30715 1.79800
Tb	Tb	0.77183 0.00556 0.22319 2.07600
Tb	Tb	0.68213 0.04892 0.08448 1.73200
Tb	Tb	0.65775 0.88964 0.15716 1.80500
Tb	Tb	0.61652 0.04823 0.20788 1.83000
O 	O 	0.61910 0.99050 0.12780 -0.91800
H 	H 	0.58750 0.98690 0.10830 0.26100
O 	O 	0.70180 0.07450 0.18400 -0.90100
H 	H 	0.71000 0.11410 0.19000 0.32300
O 	O 	0.72610 0.96290 0.13680 -0.87200
H 	H 	0.74890 0.94410 0.11990 0.32700
O 	O 	0.68220 0.96230 0.23120 -0.90000
H 	H 	0.68110 0.94500 0.26190 0.33000
O 	O 	0.85670 0.04810 0.26460 -0.90900
H 	H 	0.87230 0.06720 0.24100 0.33400
O 	O 	0.81400 0.93560 0.29310 -0.91100
H 	H 	0.80860 0.89570 0.28540 0.32100
O 	O 	0.76540 0.04860 0.31190 -0.92700
H 	H 	0.73440 0.06580 0.31360 0.33000
O 	O 	0.87090 0.02080 0.37120 -0.93900
H 	H 	0.89160 0.02340 0.40190 0.31600
O 	O 	0.67090 0.86760 0.06500 -0.52400
O 	O 	0.67190 0.96410 0.02470 -0.55500
O 	O 	0.67470 0.68140 0.73890 -0.39900
O 	O 	0.74150 0.66590 0.69060 -0.45200
O 	O 	0.03010 0.94510 0.69050 -0.55800
O 	O 	0.07190 0.84830 0.69640 -0.47700
O 	O 	0.76960 0.08760 0.08020 -0.52400
O 	O 	0.81460 0.07600 0.16410 -0.53800
O 	O 	0.09420 0.36350 0.15760 -0.53300
O 	O 	0.14970 0.37460 0.09740 -0.52500
O 	O 	0.17180 0.06190 0.82340 -0.53500
O 	O 	0.09120 0.09060 0.77290 -0.52800
O 	O 	0.65260 0.40490 0.79320 -0.49300
O 	O 	0.56700 0.38360 0.76040 -0.44600
O 	O 	0.66420 0.15760 0.10180 -0.52400
O 	O 	0.60330 0.14910 0.15720 -0.51900
O 	O 	0.29430 0.40840 0.15950 -0.49700
O 	O 	0.25830 0.39020 0.07470 -0.43600
O 	O 	0.56860 0.96620 0.24460 -0.51400
O 	O 	0.57270 0.88260 0.18890 -0.52300
O 	O 	0.23980 0.69410 0.18500 -0.40700
O 	O 	0.18860 0.68170 0.24790 -0.44000
O 	O 	0.19600 0.87380 0.57930 -0.52100
O 	O 	0.87500 0.22650 0.37930 -0.39900
O 	O 	0.91810 0.13790 0.41500 -0.42400
C 	C 	0.68280 0.90380 0.02950 0.46200
C 	C 	0.71140 0.87510 0.98480 -0.19000
C 	C 	0.73310 0.91600 0.95050 0.09100
H 	H 	0.73130 0.96140 0.95590 -0.01200
C 	C 	0.75720 0.89310 0.90880 -0.14900
H 	H 	0.77290 0.92190 0.88590 0.07700
C 	C 	0.75820 0.82460 0.90030 0.07100
C 	C 	0.73810 0.78290 0.93700 -0.14600
H 	H 	0.74090 0.73730 0.93290 0.09000
C 	C 	0.71420 0.80790 0.97890 0.08000
H 	H 	0.69990 0.77990 0.00330 0.00600
C 	C 	0.77900 0.79640 0.85190 0.00200
C 	C 	0.74570 0.75600 0.81870 -0.05000
H 	H 	0.71120 0.74320 0.82760 0.05800
C 	C 	0.76230 0.73300 0.77080 -0.05200
C 	C 	0.81290 0.74900 0.75830 -0.05200
H 	H 	0.82510 0.73030 0.72760 0.05300
C 	C 	0.84590 0.79300 0.79110 0.00300
C 	C 	0.82990 0.81530 0.83740 -0.07100
H 	H 	0.85320 0.84400 0.86030 0.05600
C 	C 	0.72360 0.68990 0.73090 0.26700
C 	C 	0.89850 0.81300 0.77230 0.08200
C 	C 	0.91050 0.88010 0.77350 -0.14500
H 	H 	0.88860 0.90940 0.79000 0.07600
C 	C 	0.95430 0.90290 0.75050 0.08400
H 	H 	0.96190 0.94790 0.74980 -0.01100
C 	C 	0.98670 0.85870 0.72870 -0.17400
C 	C 	0.97660 0.79340 0.72850 0.08500
H 	H 	0.99940 0.76340 0.71380 0.00800
C 	C 	0.93200 0.77370 0.75050 -0.15200
H 	H 	0.92420 0.72870 0.75030 0.08400
C 	C 	0.03410 0.88550 0.70100 0.46600
C 	C 	0.81050 0.09700 0.11810 0.50400
C 	C 	0.85630 0.13650 0.10390 -0.21300
C 	C 	0.89770 0.15860 0.14530 0.10100
H 	H 	0.89480 0.15260 0.18240 -0.00600
C 	C 	0.94380 0.19010 0.13030 -0.16200
H 	H 	0.97080 0.20800 0.15790 0.08600
C 	C 	0.95070 0.19540 0.07620 0.10100
C 	C 	0.90800 0.17650 0.03660 -0.16900
H 	H 	0.91020 0.18440 0.99950 0.09200
C 	C 	0.86140 0.14560 0.05010 0.10700
H 	H 	0.83320 0.13090 0.02210 -0.00200
C 	C 	0.00200 0.22660 0.06340 -0.04000
C 	C 	0.03220 0.27080 0.09360 0.01200
H 	H 	0.02040 0.28640 0.12560 0.02100
C 	C 	0.08100 0.29490 0.07930 -0.13000
C 	C 	0.09860 0.27280 0.03410 0.01700
H 	H 	0.13120 0.29000 0.02410 0.03400
C 	C 	0.07060 0.22680 0.00330 -0.04200
C 	C 	0.02000 0.20330 0.01610 -0.03600
H 	H 	0.99870 0.17260 0.99330 0.04400
C 	C 	0.11050 0.35140 0.11280 0.44800
C 	C 	0.08750 0.19640 0.95340 0.10800
C 	C 	0.14040 0.17640 0.95320 -0.17500
H 	H 	0.16810 0.18540 0.98360 0.09400
C 	C 	0.15400 0.14280 0.90840 0.11600
H 	H 	0.19020 0.12630 0.90960 -0.02100
C 	C 	0.11510 0.13350 0.86240 -0.20300
C 	C 	0.06220 0.15660 0.86090 0.10200
H 	H 	0.03530 0.15070 0.82940 -0.00200
C 	C 	0.04890 0.18860 0.90660 -0.16500
H 	H 	0.01290 0.20540 0.90540 0.09000
C 	C 	0.12810 0.09180 0.81660 0.47500
C 	C 	0.60690 0.38080 0.79820 0.36100
C 	C 	0.60000 0.34840 0.84950 -0.13300
C 	C 	0.64210 0.34030 0.89270 0.06100
H 	H 	0.67870 0.35110 0.88880 0.01900
C 	C 	0.63130 0.31660 0.94140 -0.13200
H 	H 	0.66100 0.30990 0.97040 0.07900
C 	C 	0.57830 0.30220 0.94930 0.06900
C 	C 	0.53690 0.30600 0.90320 -0.12500
H 	H 	0.50080 0.29250 0.90670 0.05800
C 	C 	0.54580 0.32780 0.85450 0.04700
H 	H 	0.51680 0.32940 0.82430 0.02200
C 	C 	0.56550 0.28270 0.00180 -0.03700
C 	C 	0.59950 0.24220 0.03800 0.00300
H 	H 	0.63330 0.22770 0.02840 0.02000
C 	C 	0.58590 0.22270 0.08640 -0.13800
C 	C 	0.53670 0.24300 0.10060 0.00200
H 	H 	0.52690 0.22870 0.13400 0.03300
C 	C 	0.50170 0.28340 0.06750 -0.03000
C 	C 	0.51570 0.30180 0.01760 -0.04900
H 	H 	0.49080 0.32800 0.99360 0.04300
C 	C 	0.62110 0.17190 0.11880 0.44000
C 	C 	0.44720 0.30590 0.08210 0.07500
C 	C 	0.44350 0.32020 0.13420 -0.13000
H 	H 	0.47390 0.31410 0.16260 0.08100
C 	C 	0.39250 0.34490 0.14530 0.05300
H 	H 	0.38810 0.35450 0.18160 0.02800
C 	C 	0.34980 0.35480 0.10360 -0.12900
C 	C 	0.35470 0.33780 0.05180 0.05400
H 	H 	0.32400 0.34240 0.02350 0.02200
C 	C 	0.40300 0.31460 0.04000 -0.13100
H 	H 	0.40650 0.30450 0.00360 0.06400
C 	C 	0.29770 0.38520 0.11370 0.34100
C 	C 	0.54960 0.91410 0.22230 0.43500
C 	C 	0.49650 0.88940 0.23720 -0.17300
C 	C 	0.46450 0.92930 0.26240 0.06700
H 	H 	0.47480 0.97340 0.26800 0.00900
C 	C 	0.41640 0.90680 0.28060 -0.12800
H 	H 	0.39500 0.93500 0.29870 0.07100
C 	C 	0.40080 0.84040 0.27090 0.06200
C 	C 	0.43490 0.80140 0.24390 -0.13300
H 	H 	0.42510 0.75720 0.23780 0.08200
C 	C 	0.48090 0.82340 0.22630 0.06500
H 	H 	0.50210 0.79570 0.20730 0.00800
C 	C 	0.35020 0.81590 0.28660 0.00100
C 	C 	0.33310 0.83700 0.33560 -0.06600
H 	H 	0.35560 0.86640 0.35880 0.05500
C 	C 	0.28430 0.81560 0.35010 0.00400
C 	C 	0.25270 0.76930 0.31760 -0.04000
H 	H 	0.22130 0.75080 0.32920 0.05200
C 	C 	0.26730 0.75120 0.26950 -0.05800
C 	C 	0.31590 0.77250 0.25330 -0.04200
H 	H 	0.32560 0.75790 0.22000 0.05500
C 	C 	0.22920 0.70680 0.23160 0.29300
C 	C 	0.26820 0.83810 0.40260 0.06600
C 	C 	0.27750 0.90130 0.41930 -0.12800
H 	H 	0.29670 0.92920 0.39860 0.07100
C 	C 	0.25960 0.92620 0.46630 0.06800
H 	H 	0.26640 0.97000 0.47680 0.02100
C 	C 	0.23150 0.88480 0.49700 -0.16800
C 	C 	0.22000 0.82090 0.48020 0.06400
H 	H 	0.20020 0.79320 0.50040 0.01800
C 	C 	0.23830 0.79840 0.43320 -0.12800
H 	H 	0.23030 0.75510 0.42160 0.07500
C 	C 	0.21150 0.91230 0.54870 0.56700
C 	C 	0.91030 0.19750 0.41490 0.35700
H 	H 	0.93150 0.22270 0.44260 -0.07300
O 	O 	0.19880 0.97470 0.54640 -0.34800
O 	O 	0.23810 0.96320 0.56650 -0.39100
