data_crystal

_cell_length_a 35.82310
_cell_length_b 35.82310
_cell_length_c 15.72130
_cell_angle_alpha 90.00000
_cell_angle_beta  90.00000
_cell_angle_gamma 120.00000

_symmetry_space_group_name_	'P 1'
_symmetry_space_group_name_H-M	'P 1'

loop_
_symmetry_equiv_pos_as_xyz
  x,y,z

loop_
_atom_site_label
_atom_site_type_symbol
_atom_site_fract_x
_atom_site_fract_y
_atom_site_fract_z
_atom_site_charge
O 	O 	0.37136 0.22420 0.59009 -0.41400
O 	O 	0.38447 0.23088 0.73072 -0.40800
C 	C 	0.39008 0.24490 0.65660 0.37600
C 	C 	0.42227 0.29212 0.64270 -0.13700
C 	C 	0.44332 0.31960 0.70830 0.08100
H 	H 	0.43870 0.30880 0.76480 0.01900
C 	C 	0.47132 0.36297 0.69410 -0.15300
H 	H 	0.48570 0.38130 0.74110 0.09700
C 	C 	0.47880 0.38004 0.61400 0.11700
C 	C 	0.45935 0.35179 0.54760 -0.15400
H 	H 	0.46530 0.36230 0.49090 0.08400
C 	C 	0.43124 0.30832 0.56200 0.07600
H 	H 	0.41800 0.28950 0.51510 0.02200
C 	C 	0.50565 0.42701 0.59500 -0.06900
C 	C 	0.48721 0.44650 0.54910 -0.04200
H 	H 	0.45770 0.42980 0.53370 0.04500
H 	H 	0.60850 0.43610 0.57320 0.08400
O 	O 	0.03803 0.55753 0.92342 -0.41500
O 	O 	0.05114 0.56421 0.06405 -0.40900
C 	C 	0.05675 0.57823 0.98993 0.37500
C 	C 	0.08894 0.62545 0.97603 -0.13800
C 	C 	0.10999 0.65293 0.04163 0.08000
H 	H 	0.10537 0.64213 0.09813 0.01900
C 	C 	0.13799 0.69630 0.02743 -0.15400
H 	H 	0.15237 0.71463 0.07443 0.09600
C 	C 	0.14547 0.71337 0.94733 0.11600
C 	C 	0.12602 0.68512 0.88093 -0.15500
H 	H 	0.13197 0.69563 0.82423 0.08300
C 	C 	0.09791 0.64165 0.89533 0.07500
H 	H 	0.08467 0.62283 0.84843 0.02100
C 	C 	0.17232 0.76034 0.92833 -0.07000
C 	C 	0.15388 0.77983 0.88243 -0.04200
H 	H 	0.12437 0.76313 0.86703 0.04500
H 	H 	0.27517 0.76943 0.90653 0.08400
O 	O 	0.70469 0.89087 0.25676 -0.41500
O 	O 	0.71780 0.89755 0.39739 -0.40900
C 	C 	0.72341 0.91157 0.32327 0.37500
C 	C 	0.75560 0.95879 0.30937 -0.13700
C 	C 	0.77665 0.98627 0.37497 0.08000
H 	H 	0.77203 0.97547 0.43147 0.01900
C 	C 	0.80465 0.02964 0.36077 -0.15400
H 	H 	0.81903 0.04797 0.40777 0.09600
C 	C 	0.81213 0.04671 0.28067 0.11600
C 	C 	0.79268 0.01846 0.21427 -0.15500
H 	H 	0.79863 0.02897 0.15757 0.08300
C 	C 	0.76457 0.97499 0.22867 0.07500
H 	H 	0.75133 0.95617 0.18177 0.02100
C 	C 	0.83898 0.09368 0.26167 -0.06900
C 	C 	0.82054 0.11317 0.21577 -0.04200
H 	H 	0.79103 0.09647 0.20037 0.04500
H 	H 	0.94183 0.10277 0.23987 0.08400
O 	O 	0.77580 0.14716 0.59009 -0.41500
O 	O 	0.76912 0.15359 0.73072 -0.40900
C 	C 	0.75510 0.14518 0.65660 0.37500
C 	C 	0.70788 0.13015 0.64270 -0.13800
C 	C 	0.68040 0.12372 0.70830 0.08000
H 	H 	0.69120 0.12990 0.76480 0.01800
C 	C 	0.63703 0.10835 0.69410 -0.15400
H 	H 	0.61870 0.10440 0.74110 0.09600
C 	C 	0.61996 0.09876 0.61400 0.11600
C 	C 	0.64821 0.10756 0.54760 -0.15500
H 	H 	0.63770 0.10300 0.49090 0.08300
C 	C 	0.69168 0.12292 0.56200 0.07500
H 	H 	0.71050 0.12850 0.51510 0.02100
C 	C 	0.57299 0.07864 0.59500 -0.07000
C 	C 	0.55350 0.04071 0.54910 -0.04200
H 	H 	0.57020 0.02790 0.53370 0.04500
H 	H 	0.56390 0.17240 0.57320 0.08400
O 	O 	0.44247 0.48049 0.92342 -0.41500
O 	O 	0.43579 0.48692 0.06405 -0.40900
C 	C 	0.42177 0.47851 0.98993 0.37500
C 	C 	0.37455 0.46348 0.97603 -0.13800
C 	C 	0.34707 0.45705 0.04163 0.08000
H 	H 	0.35787 0.46323 0.09813 0.01800
C 	C 	0.30370 0.44168 0.02743 -0.15400
H 	H 	0.28537 0.43773 0.07443 0.09600
C 	C 	0.28663 0.43209 0.94733 0.11600
C 	C 	0.31488 0.44089 0.88093 -0.15500
H 	H 	0.30437 0.43633 0.82423 0.08300
C 	C 	0.35835 0.45625 0.89533 0.07500
H 	H 	0.37717 0.46183 0.84843 0.02100
C 	C 	0.23966 0.41197 0.92833 -0.07000
C 	C 	0.22017 0.37404 0.88243 -0.04200
H 	H 	0.23687 0.36123 0.86703 0.04500
H 	H 	0.23057 0.50573 0.90653 0.08400
O 	O 	0.10913 0.81383 0.25676 -0.41500
O 	O 	0.10245 0.82026 0.39739 -0.40900
C 	C 	0.08843 0.81185 0.32327 0.37500
C 	C 	0.04121 0.79682 0.30937 -0.13800
C 	C 	0.01373 0.79039 0.37497 0.08000
H 	H 	0.02453 0.79657 0.43147 0.01900
C 	C 	0.97036 0.77502 0.36077 -0.15400
H 	H 	0.95203 0.77107 0.40777 0.09600
C 	C 	0.95329 0.76543 0.28067 0.11600
C 	C 	0.98154 0.77423 0.21427 -0.15500
H 	H 	0.97103 0.76967 0.15757 0.08300
C 	C 	0.02501 0.78959 0.22867 0.07500
H 	H 	0.04383 0.79517 0.18177 0.02100
C 	C 	0.90632 0.74531 0.26167 -0.07000
C 	C 	0.88683 0.70738 0.21577 -0.04200
H 	H 	0.90353 0.69457 0.20037 0.04500
H 	H 	0.89723 0.83907 0.23987 0.08400
O 	O 	0.85284 0.62864 0.59009 -0.41500
O 	O 	0.84641 0.61553 0.73072 -0.40900
C 	C 	0.85482 0.60992 0.65660 0.37500
C 	C 	0.86985 0.57773 0.64270 -0.13800
C 	C 	0.87628 0.55668 0.70830 0.08000
H 	H 	0.87010 0.56130 0.76480 0.01800
C 	C 	0.89165 0.52868 0.69410 -0.15400
H 	H 	0.89560 0.51430 0.74110 0.09600
C 	C 	0.90124 0.52120 0.61400 0.11600
C 	C 	0.89244 0.54065 0.54760 -0.15500
H 	H 	0.89700 0.53470 0.49090 0.08300
C 	C 	0.87708 0.56876 0.56200 0.07500
H 	H 	0.87150 0.58200 0.51510 0.02100
C 	C 	0.92136 0.49435 0.59500 -0.07000
C 	C 	0.95929 0.51279 0.54910 -0.04200
H 	H 	0.97210 0.54230 0.53370 0.04500
H 	H 	0.82760 0.39150 0.57320 0.08400
O 	O 	0.51951 0.96197 0.92342 -0.41400
O 	O 	0.51308 0.94886 0.06405 -0.40900
C 	C 	0.52149 0.94325 0.98993 0.37500
C 	C 	0.53652 0.91106 0.97603 -0.13800
C 	C 	0.54295 0.89001 0.04163 0.08000
H 	H 	0.53677 0.89463 0.09813 0.01900
C 	C 	0.55832 0.86201 0.02743 -0.15400
H 	H 	0.56227 0.84763 0.07443 0.09600
C 	C 	0.56791 0.85453 0.94733 0.11600
C 	C 	0.55911 0.87398 0.88093 -0.15500
H 	H 	0.56367 0.86803 0.82423 0.08300
C 	C 	0.54375 0.90209 0.89533 0.07500
H 	H 	0.53817 0.91533 0.84843 0.02100
C 	C 	0.58803 0.82768 0.92833 -0.07000
C 	C 	0.62596 0.84612 0.88243 -0.04200
H 	H 	0.63877 0.87563 0.86703 0.04500
H 	H 	0.49427 0.72483 0.90653 0.08400
O 	O 	0.18617 0.29531 0.25676 -0.41500
O 	O 	0.17974 0.28220 0.39739 -0.40900
C 	C 	0.18815 0.27659 0.32327 0.37500
C 	C 	0.20318 0.24440 0.30937 -0.13800
C 	C 	0.20961 0.22335 0.37497 0.08000
H 	H 	0.20343 0.22797 0.43147 0.01800
C 	C 	0.22498 0.19535 0.36077 -0.15400
H 	H 	0.22893 0.18097 0.40777 0.09600
C 	C 	0.23457 0.18787 0.28067 0.11600
C 	C 	0.22577 0.20732 0.21427 -0.15500
H 	H 	0.23033 0.20137 0.15757 0.08300
C 	C 	0.21041 0.23543 0.22867 0.07500
H 	H 	0.20483 0.24867 0.18177 0.02100
C 	C 	0.25469 0.16102 0.26167 -0.07000
C 	C 	0.29262 0.17946 0.21577 -0.04200
H 	H 	0.30543 0.20897 0.20037 0.04500
H 	H 	0.16093 0.05817 0.23987 0.08400
O 	O 	0.22420 0.37136 0.40991 -0.41500
O 	O 	0.23088 0.38447 0.26928 -0.40900
C 	C 	0.24490 0.39008 0.34340 0.37500
C 	C 	0.29212 0.42227 0.35730 -0.13800
C 	C 	0.31960 0.44332 0.29170 0.08000
H 	H 	0.30880 0.43870 0.23520 0.01800
C 	C 	0.36297 0.47132 0.30590 -0.15400
H 	H 	0.38130 0.48570 0.25890 0.09600
C 	C 	0.38004 0.47880 0.38600 0.11600
C 	C 	0.35179 0.45935 0.45240 -0.15500
H 	H 	0.36230 0.46530 0.50910 0.08300
C 	C 	0.30832 0.43124 0.43800 0.07500
H 	H 	0.28950 0.41800 0.48490 0.02100
C 	C 	0.42701 0.50565 0.40500 -0.07000
C 	C 	0.44650 0.48721 0.45090 -0.04200
H 	H 	0.42980 0.45770 0.46630 0.04500
H 	H 	0.43610 0.60850 0.42680 0.08400
O 	O 	0.89087 0.70469 0.74324 -0.41500
O 	O 	0.89755 0.71780 0.60261 -0.40900
C 	C 	0.91157 0.72341 0.67673 0.37500
C 	C 	0.95879 0.75560 0.69063 -0.13700
C 	C 	0.98627 0.77665 0.62503 0.08000
H 	H 	0.97547 0.77203 0.56853 0.01900
C 	C 	0.02964 0.80465 0.63923 -0.15400
H 	H 	0.04797 0.81903 0.59223 0.09600
C 	C 	0.04671 0.81213 0.71933 0.11600
C 	C 	0.01846 0.79268 0.78573 -0.15500
H 	H 	0.02897 0.79863 0.84243 0.08300
C 	C 	0.97499 0.76457 0.77133 0.07500
H 	H 	0.95617 0.75133 0.81823 0.02100
C 	C 	0.09368 0.83898 0.73833 -0.06900
C 	C 	0.11317 0.82054 0.78423 -0.04200
H 	H 	0.09647 0.79103 0.79963 0.04500
H 	H 	0.10277 0.94183 0.76013 0.08400
O 	O 	0.55753 0.03803 0.07658 -0.41500
O 	O 	0.56421 0.05114 0.93595 -0.40900
C 	C 	0.57823 0.05675 0.01007 0.37500
C 	C 	0.62545 0.08894 0.02397 -0.13800
C 	C 	0.65293 0.10999 0.95837 0.08000
H 	H 	0.64213 0.10537 0.90187 0.01900
C 	C 	0.69630 0.13799 0.97257 -0.15400
H 	H 	0.71463 0.15237 0.92557 0.09600
C 	C 	0.71337 0.14547 0.05267 0.11600
C 	C 	0.68512 0.12602 0.11907 -0.15500
H 	H 	0.69563 0.13197 0.17577 0.08300
C 	C 	0.64165 0.09791 0.10467 0.07500
H 	H 	0.62283 0.08467 0.15157 0.02100
C 	C 	0.76034 0.17232 0.07167 -0.07000
C 	C 	0.77983 0.15388 0.11757 -0.04200
H 	H 	0.76313 0.12437 0.13297 0.04500
H 	H 	0.76943 0.27517 0.09347 0.08400
O 	O 	0.14716 0.77580 0.40991 -0.41500
O 	O 	0.15359 0.76912 0.26928 -0.40900
C 	C 	0.14518 0.75510 0.34340 0.37500
C 	C 	0.13015 0.70788 0.35730 -0.13800
C 	C 	0.12372 0.68040 0.29170 0.08000
H 	H 	0.12990 0.69120 0.23520 0.01800
C 	C 	0.10835 0.63703 0.30590 -0.15400
H 	H 	0.10440 0.61870 0.25890 0.09600
C 	C 	0.09876 0.61996 0.38600 0.11600
C 	C 	0.10756 0.64821 0.45240 -0.15500
H 	H 	0.10300 0.63770 0.50910 0.08300
C 	C 	0.12292 0.69168 0.43800 0.07500
H 	H 	0.12850 0.71050 0.48490 0.02100
C 	C 	0.07864 0.57299 0.40500 -0.07000
C 	C 	0.04071 0.55350 0.45090 -0.04200
H 	H 	0.02790 0.57020 0.46630 0.04500
H 	H 	0.17240 0.56390 0.42680 0.08400
O 	O 	0.81383 0.10913 0.74324 -0.41500
O 	O 	0.82026 0.10245 0.60261 -0.40900
C 	C 	0.81185 0.08843 0.67673 0.37500
C 	C 	0.79682 0.04121 0.69063 -0.13800
C 	C 	0.79039 0.01373 0.62503 0.08000
H 	H 	0.79657 0.02453 0.56853 0.01900
C 	C 	0.77502 0.97036 0.63923 -0.15400
H 	H 	0.77107 0.95203 0.59223 0.09600
C 	C 	0.76543 0.95329 0.71933 0.11600
C 	C 	0.77423 0.98154 0.78573 -0.15500
H 	H 	0.76967 0.97103 0.84243 0.08300
C 	C 	0.78959 0.02501 0.77133 0.07500
H 	H 	0.79517 0.04383 0.81823 0.02100
C 	C 	0.74531 0.90632 0.73833 -0.07000
C 	C 	0.70738 0.88683 0.78423 -0.04200
H 	H 	0.69457 0.90353 0.79963 0.04500
H 	H 	0.83907 0.89723 0.76013 0.08400
O 	O 	0.48049 0.44247 0.07658 -0.41500
O 	O 	0.48692 0.43579 0.93595 -0.40900
C 	C 	0.47851 0.42177 0.01007 0.37500
C 	C 	0.46348 0.37455 0.02397 -0.13800
C 	C 	0.45705 0.34707 0.95837 0.08000
H 	H 	0.46323 0.35787 0.90187 0.01800
C 	C 	0.44168 0.30370 0.97257 -0.15400
H 	H 	0.43773 0.28537 0.92557 0.09600
C 	C 	0.43209 0.28663 0.05267 0.11600
C 	C 	0.44089 0.31488 0.11907 -0.15500
H 	H 	0.43633 0.30437 0.17577 0.08300
C 	C 	0.45625 0.35835 0.10467 0.07500
H 	H 	0.46183 0.37717 0.15157 0.02100
C 	C 	0.41197 0.23966 0.07167 -0.07000
C 	C 	0.37404 0.22017 0.11757 -0.04200
H 	H 	0.36123 0.23687 0.13297 0.04500
H 	H 	0.50573 0.23057 0.09347 0.08400
O 	O 	0.62864 0.85284 0.40991 -0.41500
O 	O 	0.61553 0.84641 0.26928 -0.40900
C 	C 	0.60992 0.85482 0.34340 0.37500
C 	C 	0.57773 0.86985 0.35730 -0.13800
C 	C 	0.55668 0.87628 0.29170 0.08000
H 	H 	0.56130 0.87010 0.23520 0.01800
C 	C 	0.52868 0.89165 0.30590 -0.15400
H 	H 	0.51430 0.89560 0.25890 0.09600
C 	C 	0.52120 0.90124 0.38600 0.11600
C 	C 	0.54065 0.89244 0.45240 -0.15500
H 	H 	0.53470 0.89700 0.50910 0.08300
C 	C 	0.56876 0.87708 0.43800 0.07500
H 	H 	0.58200 0.87150 0.48490 0.02100
C 	C 	0.49435 0.92136 0.40500 -0.07000
C 	C 	0.51279 0.95929 0.45090 -0.04200
H 	H 	0.54230 0.97210 0.46630 0.04500
H 	H 	0.39150 0.82760 0.42680 0.08400
O 	O 	0.29531 0.18617 0.74324 -0.41500
O 	O 	0.28220 0.17974 0.60261 -0.40900
C 	C 	0.27659 0.18815 0.67673 0.37500
C 	C 	0.24440 0.20318 0.69063 -0.13800
C 	C 	0.22335 0.20961 0.62503 0.08000
H 	H 	0.22797 0.20343 0.56853 0.01800
C 	C 	0.19535 0.22498 0.63923 -0.15400
H 	H 	0.18097 0.22893 0.59223 0.09600
C 	C 	0.18787 0.23457 0.71933 0.11600
C 	C 	0.20732 0.22577 0.78573 -0.15500
H 	H 	0.20137 0.23033 0.84243 0.08300
C 	C 	0.23543 0.21041 0.77133 0.07500
H 	H 	0.24867 0.20483 0.81823 0.02100
C 	C 	0.16102 0.25469 0.73833 -0.07000
C 	C 	0.17946 0.29262 0.78423 -0.04200
H 	H 	0.20897 0.30543 0.79963 0.04500
H 	H 	0.05817 0.16093 0.76013 0.08400
O 	O 	0.96197 0.51951 0.07658 -0.41400
O 	O 	0.94886 0.51308 0.93595 -0.40900
C 	C 	0.94325 0.52149 0.01007 0.37500
C 	C 	0.91106 0.53652 0.02397 -0.13800
C 	C 	0.89001 0.54295 0.95837 0.08000
H 	H 	0.89463 0.53677 0.90187 0.01900
C 	C 	0.86201 0.55832 0.97257 -0.15400
H 	H 	0.84763 0.56227 0.92557 0.09600
C 	C 	0.85453 0.56791 0.05267 0.11600
C 	C 	0.87398 0.55911 0.11907 -0.15500
H 	H 	0.86803 0.56367 0.17577 0.08300
C 	C 	0.90209 0.54375 0.10467 0.07500
H 	H 	0.91533 0.53817 0.15157 0.02100
C 	C 	0.82768 0.58803 0.07167 -0.07000
C 	C 	0.84612 0.62596 0.11757 -0.04200
H 	H 	0.87563 0.63877 0.13297 0.04500
H 	H 	0.72483 0.49427 0.09347 0.08400
O 	O 	0.62864 0.77580 0.40991 -0.41500
O 	O 	0.61553 0.76912 0.26928 -0.40900
C 	C 	0.60992 0.75510 0.34340 0.37500
C 	C 	0.57773 0.70788 0.35730 -0.13800
C 	C 	0.55668 0.68040 0.29170 0.08000
H 	H 	0.56130 0.69120 0.23520 0.01800
C 	C 	0.52868 0.63703 0.30590 -0.15400
H 	H 	0.51430 0.61870 0.25890 0.09600
C 	C 	0.52120 0.61996 0.38600 0.11600
C 	C 	0.54065 0.64821 0.45240 -0.15500
H 	H 	0.53470 0.63770 0.50910 0.08300
C 	C 	0.56876 0.69168 0.43800 0.07500
H 	H 	0.58200 0.71050 0.48490 0.02100
C 	C 	0.49435 0.57299 0.40500 -0.07000
C 	C 	0.51279 0.55350 0.45090 -0.04200
H 	H 	0.54230 0.57020 0.46630 0.04500
H 	H 	0.39150 0.56390 0.42680 0.08400
O 	O 	0.29531 0.10913 0.74324 -0.41500
O 	O 	0.28220 0.10245 0.60261 -0.40900
C 	C 	0.27659 0.08843 0.67673 0.37500
C 	C 	0.24440 0.04121 0.69063 -0.13700
C 	C 	0.22335 0.01373 0.62503 0.08000
H 	H 	0.22797 0.02453 0.56853 0.01900
C 	C 	0.19535 0.97036 0.63923 -0.15400
H 	H 	0.18097 0.95203 0.59223 0.09600
C 	C 	0.18787 0.95329 0.71933 0.11600
C 	C 	0.20732 0.98154 0.78573 -0.15500
H 	H 	0.20137 0.97103 0.84243 0.08300
C 	C 	0.23543 0.02501 0.77133 0.07500
H 	H 	0.24867 0.04383 0.81823 0.02100
C 	C 	0.16102 0.90632 0.73833 -0.06900
C 	C 	0.17946 0.88683 0.78423 -0.04200
H 	H 	0.20897 0.90353 0.79963 0.04500
H 	H 	0.05817 0.89723 0.76013 0.08400
O 	O 	0.96197 0.44247 0.07658 -0.41500
O 	O 	0.94886 0.43579 0.93595 -0.40900
C 	C 	0.94325 0.42177 0.01007 0.37500
C 	C 	0.91106 0.37455 0.02397 -0.13800
C 	C 	0.89001 0.34707 0.95837 0.08000
H 	H 	0.89463 0.35787 0.90187 0.01900
C 	C 	0.86201 0.30370 0.97257 -0.15400
H 	H 	0.84763 0.28537 0.92557 0.09600
C 	C 	0.85453 0.28663 0.05267 0.11600
C 	C 	0.87398 0.31488 0.11907 -0.15500
H 	H 	0.86803 0.30437 0.17577 0.08300
C 	C 	0.90209 0.35835 0.10467 0.07500
H 	H 	0.91533 0.37717 0.15157 0.02100
C 	C 	0.82768 0.23966 0.07167 -0.07000
C 	C 	0.84612 0.22017 0.11757 -0.04200
H 	H 	0.87563 0.23687 0.13297 0.04500
H 	H 	0.72483 0.23057 0.09347 0.08400
O 	O 	0.22420 0.85284 0.40991 -0.41500
O 	O 	0.23088 0.84641 0.26928 -0.40900
C 	C 	0.24490 0.85482 0.34340 0.37500
C 	C 	0.29212 0.86985 0.35730 -0.13800
C 	C 	0.31960 0.87628 0.29170 0.08000
H 	H 	0.30880 0.87010 0.23520 0.01800
C 	C 	0.36297 0.89165 0.30590 -0.15400
H 	H 	0.38130 0.89560 0.25890 0.09600
C 	C 	0.38004 0.90124 0.38600 0.11600
C 	C 	0.35179 0.89244 0.45240 -0.15500
H 	H 	0.36230 0.89700 0.50910 0.08300
C 	C 	0.30832 0.87708 0.43800 0.07500
H 	H 	0.28950 0.87150 0.48490 0.02100
C 	C 	0.42701 0.92136 0.40500 -0.07000
C 	C 	0.44650 0.95929 0.45090 -0.04200
H 	H 	0.42980 0.97210 0.46630 0.04500
H 	H 	0.43610 0.82760 0.42680 0.08400
O 	O 	0.89087 0.18617 0.74324 -0.41500
O 	O 	0.89755 0.17974 0.60261 -0.40900
C 	C 	0.91157 0.18815 0.67673 0.37500
C 	C 	0.95879 0.20318 0.69063 -0.13800
C 	C 	0.98627 0.20961 0.62503 0.08000
H 	H 	0.97547 0.20343 0.56853 0.01900
C 	C 	0.02964 0.22498 0.63923 -0.15400
H 	H 	0.04797 0.22893 0.59223 0.09600
C 	C 	0.04671 0.23457 0.71933 0.11600
C 	C 	0.01846 0.22577 0.78573 -0.15500
H 	H 	0.02897 0.23033 0.84243 0.08300
C 	C 	0.97499 0.21041 0.77133 0.07500
H 	H 	0.95617 0.20483 0.81823 0.02100
C 	C 	0.09368 0.25469 0.73833 -0.07000
C 	C 	0.11317 0.29262 0.78423 -0.04200
H 	H 	0.09647 0.30543 0.79963 0.04500
H 	H 	0.10277 0.16093 0.76013 0.08400
O 	O 	0.55753 0.51951 0.07658 -0.41500
O 	O 	0.56421 0.51308 0.93595 -0.40900
C 	C 	0.57823 0.52149 0.01007 0.37500
C 	C 	0.62545 0.53652 0.02397 -0.13800
C 	C 	0.65293 0.54295 0.95837 0.08000
H 	H 	0.64213 0.53677 0.90187 0.01800
C 	C 	0.69630 0.55832 0.97257 -0.15400
H 	H 	0.71463 0.56227 0.92557 0.09600
C 	C 	0.71337 0.56791 0.05267 0.11600
C 	C 	0.68512 0.55911 0.11907 -0.15500
H 	H 	0.69563 0.56367 0.17577 0.08300
C 	C 	0.64165 0.54375 0.10467 0.07500
H 	H 	0.62283 0.53817 0.15157 0.02100
C 	C 	0.76034 0.58803 0.07167 -0.07000
C 	C 	0.77983 0.62596 0.11757 -0.04200
H 	H 	0.76313 0.63877 0.13297 0.04500
H 	H 	0.76943 0.49427 0.09347 0.08400
O 	O 	0.14716 0.37136 0.40991 -0.41500
O 	O 	0.15359 0.38447 0.26928 -0.40900
C 	C 	0.14518 0.39008 0.34340 0.37500
C 	C 	0.13015 0.42227 0.35730 -0.13800
C 	C 	0.12372 0.44332 0.29170 0.08000
H 	H 	0.12990 0.43870 0.23520 0.01800
C 	C 	0.10835 0.47132 0.30590 -0.15400
H 	H 	0.10440 0.48570 0.25890 0.09600
C 	C 	0.09876 0.47880 0.38600 0.11600
C 	C 	0.10756 0.45935 0.45240 -0.15500
H 	H 	0.10300 0.46530 0.50910 0.08300
C 	C 	0.12292 0.43124 0.43800 0.07500
H 	H 	0.12850 0.41800 0.48490 0.02100
C 	C 	0.07864 0.50565 0.40500 -0.07000
C 	C 	0.04071 0.48721 0.45090 -0.04200
H 	H 	0.02790 0.45770 0.46630 0.04500
H 	H 	0.17240 0.60850 0.42680 0.08400
O 	O 	0.81383 0.70469 0.74324 -0.41500
O 	O 	0.82026 0.71780 0.60261 -0.40900
C 	C 	0.81185 0.72341 0.67673 0.37500
C 	C 	0.79682 0.75560 0.69063 -0.13800
C 	C 	0.79039 0.77665 0.62503 0.08000
H 	H 	0.79657 0.77203 0.56853 0.01800
C 	C 	0.77502 0.80465 0.63923 -0.15400
H 	H 	0.77107 0.81903 0.59223 0.09600
C 	C 	0.76543 0.81213 0.71933 0.11600
C 	C 	0.77423 0.79268 0.78573 -0.15500
H 	H 	0.76967 0.79863 0.84243 0.08300
C 	C 	0.78959 0.76457 0.77133 0.07500
H 	H 	0.79517 0.75133 0.81823 0.02100
C 	C 	0.74531 0.83898 0.73833 -0.07000
C 	C 	0.70738 0.82054 0.78423 -0.04200
H 	H 	0.69457 0.79103 0.79963 0.04500
H 	H 	0.83907 0.94183 0.76013 0.08400
O 	O 	0.48049 0.03803 0.07658 -0.41400
O 	O 	0.48692 0.05114 0.93595 -0.40900
C 	C 	0.47851 0.05675 0.01007 0.37500
C 	C 	0.46348 0.08894 0.02397 -0.13800
C 	C 	0.45705 0.10999 0.95837 0.08000
H 	H 	0.46323 0.10537 0.90187 0.01900
C 	C 	0.44168 0.13799 0.97257 -0.15400
H 	H 	0.43773 0.15237 0.92557 0.09600
C 	C 	0.43209 0.14547 0.05267 0.11600
C 	C 	0.44089 0.12602 0.11907 -0.15500
H 	H 	0.43633 0.13197 0.17577 0.08300
C 	C 	0.45625 0.09791 0.10467 0.07500
H 	H 	0.46183 0.08467 0.15157 0.02100
C 	C 	0.41197 0.17232 0.07167 -0.07000
C 	C 	0.37404 0.15388 0.11757 -0.04200
H 	H 	0.36123 0.12437 0.13297 0.04500
H 	H 	0.50573 0.27517 0.09347 0.08400
O 	O 	0.77580 0.62864 0.59009 -0.41500
O 	O 	0.76912 0.61553 0.73072 -0.40900
C 	C 	0.75510 0.60992 0.65660 0.37500
C 	C 	0.70788 0.57773 0.64270 -0.13800
C 	C 	0.68040 0.55668 0.70830 0.08000
H 	H 	0.69120 0.56130 0.76480 0.01800
C 	C 	0.63703 0.52868 0.69410 -0.15400
H 	H 	0.61870 0.51430 0.74110 0.09600
C 	C 	0.61996 0.52120 0.61400 0.11600
C 	C 	0.64821 0.54065 0.54760 -0.15500
H 	H 	0.63770 0.53470 0.49090 0.08300
C 	C 	0.69168 0.56876 0.56200 0.07500
H 	H 	0.71050 0.58200 0.51510 0.02100
C 	C 	0.57299 0.49435 0.59500 -0.07000
C 	C 	0.55350 0.51279 0.54910 -0.04200
H 	H 	0.57020 0.54230 0.53370 0.04500
H 	H 	0.56390 0.39150 0.57320 0.08400
O 	O 	0.44247 0.96197 0.92342 -0.41500
O 	O 	0.43579 0.94886 0.06405 -0.40900
C 	C 	0.42177 0.94325 0.98993 0.37500
C 	C 	0.37455 0.91106 0.97603 -0.13800
C 	C 	0.34707 0.89001 0.04163 0.08000
H 	H 	0.35787 0.89463 0.09813 0.01900
C 	C 	0.30370 0.86201 0.02743 -0.15400
H 	H 	0.28537 0.84763 0.07443 0.09600
C 	C 	0.28663 0.85453 0.94733 0.11600
C 	C 	0.31488 0.87398 0.88093 -0.15500
H 	H 	0.30437 0.86803 0.82423 0.08300
C 	C 	0.35835 0.90209 0.89533 0.07500
H 	H 	0.37717 0.91533 0.84843 0.02100
C 	C 	0.23966 0.82768 0.92833 -0.07000
C 	C 	0.22017 0.84612 0.88243 -0.04200
H 	H 	0.23687 0.87563 0.86703 0.04500
H 	H 	0.23057 0.72483 0.90653 0.08400
O 	O 	0.10913 0.29531 0.25676 -0.41500
O 	O 	0.10245 0.28220 0.39739 -0.40900
C 	C 	0.08843 0.27659 0.32327 0.37500
C 	C 	0.04121 0.24440 0.30937 -0.13700
C 	C 	0.01373 0.22335 0.37497 0.08000
H 	H 	0.02453 0.22797 0.43147 0.01900
C 	C 	0.97036 0.19535 0.36077 -0.15400
H 	H 	0.95203 0.18097 0.40777 0.09600
C 	C 	0.95329 0.18787 0.28067 0.11600
C 	C 	0.98154 0.20732 0.21427 -0.15500
H 	H 	0.97103 0.20137 0.15757 0.08300
C 	C 	0.02501 0.23543 0.22867 0.07500
H 	H 	0.04383 0.24867 0.18177 0.02100
C 	C 	0.90632 0.16102 0.26167 -0.06900
C 	C 	0.88683 0.17946 0.21577 -0.04200
H 	H 	0.90353 0.20897 0.20037 0.04500
H 	H 	0.89723 0.05817 0.23987 0.08400
O 	O 	0.85284 0.22420 0.59009 -0.41500
O 	O 	0.84641 0.23088 0.73072 -0.40900
C 	C 	0.85482 0.24490 0.65660 0.37500
C 	C 	0.86985 0.29212 0.64270 -0.13800
C 	C 	0.87628 0.31960 0.70830 0.08000
H 	H 	0.87010 0.30880 0.76480 0.01800
C 	C 	0.89165 0.36297 0.69410 -0.15400
H 	H 	0.89560 0.38130 0.74110 0.09600
C 	C 	0.90124 0.38004 0.61400 0.11600
C 	C 	0.89244 0.35179 0.54760 -0.15500
H 	H 	0.89700 0.36230 0.49090 0.08300
C 	C 	0.87708 0.30832 0.56200 0.07500
H 	H 	0.87150 0.28950 0.51510 0.02100
C 	C 	0.92136 0.42701 0.59500 -0.07000
C 	C 	0.95929 0.44650 0.54910 -0.04200
H 	H 	0.97210 0.42980 0.53370 0.04500
H 	H 	0.82760 0.43610 0.57320 0.08400
O 	O 	0.51951 0.55753 0.92342 -0.41500
O 	O 	0.51308 0.56421 0.06405 -0.40900
C 	C 	0.52149 0.57823 0.98993 0.37500
C 	C 	0.53652 0.62545 0.97603 -0.13800
C 	C 	0.54295 0.65293 0.04163 0.08000
H 	H 	0.53677 0.64213 0.09813 0.01800
C 	C 	0.55832 0.69630 0.02743 -0.15400
H 	H 	0.56227 0.71463 0.07443 0.09600
C 	C 	0.56791 0.71337 0.94733 0.11600
C 	C 	0.55911 0.68512 0.88093 -0.15500
H 	H 	0.56367 0.69563 0.82423 0.08300
C 	C 	0.54375 0.64165 0.89533 0.07500
H 	H 	0.53817 0.62283 0.84843 0.02100
C 	C 	0.58803 0.76034 0.92833 -0.07000
C 	C 	0.62596 0.77983 0.88243 -0.04200
H 	H 	0.63877 0.76313 0.86703 0.04500
H 	H 	0.49427 0.76943 0.90653 0.08400
O 	O 	0.18617 0.89087 0.25676 -0.41500
O 	O 	0.17974 0.89755 0.39739 -0.40900
C 	C 	0.18815 0.91157 0.32327 0.37500
C 	C 	0.20318 0.95879 0.30937 -0.13800
C 	C 	0.20961 0.98627 0.37497 0.08000
H 	H 	0.20343 0.97547 0.43147 0.01900
C 	C 	0.22498 0.02964 0.36077 -0.15400
H 	H 	0.22893 0.04797 0.40777 0.09600
C 	C 	0.23457 0.04671 0.28067 0.11600
C 	C 	0.22577 0.01846 0.21427 -0.15500
H 	H 	0.23033 0.02897 0.15757 0.08300
C 	C 	0.21041 0.97499 0.22867 0.07500
H 	H 	0.20483 0.95617 0.18177 0.02100
C 	C 	0.25469 0.09368 0.26167 -0.07000
C 	C 	0.29262 0.11317 0.21577 -0.04200
H 	H 	0.30543 0.09647 0.20037 0.04500
H 	H 	0.16093 0.10277 0.23987 0.08400
O 	O 	0.37136 0.14716 0.59009 -0.41500
O 	O 	0.38447 0.15359 0.73072 -0.40900
C 	C 	0.39008 0.14518 0.65660 0.37500
C 	C 	0.42227 0.13015 0.64270 -0.13800
C 	C 	0.44332 0.12372 0.70830 0.08000
H 	H 	0.43870 0.12990 0.76480 0.01800
C 	C 	0.47132 0.10835 0.69410 -0.15400
H 	H 	0.48570 0.10440 0.74110 0.09600
C 	C 	0.47880 0.09876 0.61400 0.11600
C 	C 	0.45935 0.10756 0.54760 -0.15500
H 	H 	0.46530 0.10300 0.49090 0.08300
C 	C 	0.43124 0.12292 0.56200 0.07500
H 	H 	0.41800 0.12850 0.51510 0.02100
C 	C 	0.50565 0.07864 0.59500 -0.07000
C 	C 	0.48721 0.04071 0.54910 -0.04200
H 	H 	0.45770 0.02790 0.53370 0.04500
H 	H 	0.60850 0.17240 0.57320 0.08400
O 	O 	0.03803 0.48049 0.92342 -0.41400
O 	O 	0.05114 0.48692 0.06405 -0.40900
C 	C 	0.05675 0.47851 0.98993 0.37500
C 	C 	0.08894 0.46348 0.97603 -0.13800
C 	C 	0.10999 0.45705 0.04163 0.08000
H 	H 	0.10537 0.46323 0.09813 0.01900
C 	C 	0.13799 0.44168 0.02743 -0.15400
H 	H 	0.15237 0.43773 0.07443 0.09600
C 	C 	0.14547 0.43209 0.94733 0.11600
C 	C 	0.12602 0.44089 0.88093 -0.15500
H 	H 	0.13197 0.43633 0.82423 0.08300
C 	C 	0.09791 0.45625 0.89533 0.07500
H 	H 	0.08467 0.46183 0.84843 0.02100
C 	C 	0.17232 0.41197 0.92833 -0.07000
C 	C 	0.15388 0.37404 0.88243 -0.04200
H 	H 	0.12437 0.36123 0.86703 0.04500
H 	H 	0.27517 0.50573 0.90653 0.08400
O 	O 	0.70469 0.81383 0.25676 -0.41500
O 	O 	0.71780 0.82026 0.39739 -0.40900
C 	C 	0.72341 0.81185 0.32327 0.37500
C 	C 	0.75560 0.79682 0.30937 -0.13800
C 	C 	0.77665 0.79039 0.37497 0.08000
H 	H 	0.77203 0.79657 0.43147 0.01800
C 	C 	0.80465 0.77502 0.36077 -0.15400
H 	H 	0.81903 0.77107 0.40777 0.09600
C 	C 	0.81213 0.76543 0.28067 0.11600
C 	C 	0.79268 0.77423 0.21427 -0.15500
H 	H 	0.79863 0.76967 0.15757 0.08300
C 	C 	0.76457 0.78959 0.22867 0.07500
H 	H 	0.75133 0.79517 0.18177 0.02100
C 	C 	0.83898 0.74531 0.26167 -0.07000
C 	C 	0.82054 0.70738 0.21577 -0.04200
H 	H 	0.79103 0.69457 0.20037 0.04500
H 	H 	0.94183 0.83907 0.23987 0.08400
Cu	Cu	0.34061 0.17030 0.74964 0.90300
Cu	Cu	0.00728 0.50364 0.08297 0.90300
Cu	Cu	0.67394 0.83697 0.41631 0.90300
Cu	Cu	0.82970 0.17031 0.74964 0.90300
Cu	Cu	0.49636 0.50364 0.08297 0.90300
Cu	Cu	0.16303 0.83697 0.41631 0.90300
Cu	Cu	0.82969 0.65939 0.74964 0.90300
Cu	Cu	0.49636 0.99272 0.08297 0.90300
Cu	Cu	0.16303 0.32606 0.41631 0.90300
Cu	Cu	0.17030 0.34061 0.25036 0.90300
Cu	Cu	0.83697 0.67394 0.58369 0.90300
Cu	Cu	0.50364 0.00728 0.91703 0.90300
Cu	Cu	0.17031 0.82970 0.25036 0.90300
Cu	Cu	0.83697 0.16303 0.58369 0.90300
Cu	Cu	0.50364 0.49636 0.91703 0.90300
Cu	Cu	0.65939 0.82969 0.25036 0.90300
Cu	Cu	0.32606 0.16303 0.58369 0.90300
Cu	Cu	0.99272 0.49636 0.91703 0.90300
O 	O 	0.56768 0.43232 0.66470 -0.17700
C 	C 	0.51010 0.48990 0.52430 0.00400
C 	C 	0.54865 0.45135 0.62070 0.12500
C 	C 	0.58645 0.41355 0.60920 -0.16500
H 	H 	0.59960 0.40040 0.64380 0.08800
O 	O 	0.23435 0.76565 0.99803 -0.17700
C 	C 	0.17677 0.82323 0.85763 0.00400
C 	C 	0.21532 0.78468 0.95403 0.12500
C 	C 	0.25312 0.74688 0.94253 -0.16500
H 	H 	0.26627 0.73373 0.97713 0.08800
O 	O 	0.90101 0.09899 0.33137 -0.17700
C 	C 	0.84343 0.15657 0.19097 0.00400
C 	C 	0.88198 0.11802 0.28737 0.12500
C 	C 	0.91978 0.08022 0.27587 -0.16600
H 	H 	0.93293 0.06707 0.31047 0.08800
O 	O 	0.56768 0.13536 0.66470 -0.17700
C 	C 	0.51010 0.02020 0.52430 0.00400
C 	C 	0.54865 0.09730 0.62070 0.12500
C 	C 	0.58645 0.17290 0.60920 -0.16500
H 	H 	0.59960 0.19920 0.64380 0.08800
O 	O 	0.23435 0.46869 0.99803 -0.17700
C 	C 	0.17677 0.35353 0.85763 0.00400
C 	C 	0.21532 0.43063 0.95403 0.12500
C 	C 	0.25312 0.50623 0.94253 -0.16500
H 	H 	0.26627 0.53253 0.97713 0.08800
O 	O 	0.90101 0.80203 0.33137 -0.17700
C 	C 	0.84343 0.68687 0.19097 0.00400
C 	C 	0.88198 0.76397 0.28737 0.12500
C 	C 	0.91978 0.83957 0.27587 -0.16600
H 	H 	0.93293 0.86587 0.31047 0.08800
O 	O 	0.86464 0.43232 0.66470 -0.17700
C 	C 	0.97980 0.48990 0.52430 0.00400
C 	C 	0.90270 0.45135 0.62070 0.12500
C 	C 	0.82710 0.41355 0.60920 -0.16500
H 	H 	0.80080 0.40040 0.64380 0.08800
O 	O 	0.53131 0.76565 0.99803 -0.17700
C 	C 	0.64647 0.82323 0.85763 0.00400
C 	C 	0.56937 0.78468 0.95403 0.12500
C 	C 	0.49377 0.74688 0.94253 -0.16500
H 	H 	0.46747 0.73373 0.97713 0.08800
O 	O 	0.19797 0.09899 0.33137 -0.17700
C 	C 	0.31313 0.15657 0.19097 0.00400
C 	C 	0.23603 0.11802 0.28737 0.12500
C 	C 	0.16043 0.08022 0.27587 -0.16600
H 	H 	0.13413 0.06707 0.31047 0.08800
O 	O 	0.43232 0.56768 0.33530 -0.17700
C 	C 	0.48990 0.51010 0.47570 0.00400
C 	C 	0.45135 0.54865 0.37930 0.12500
C 	C 	0.41355 0.58645 0.39080 -0.16500
H 	H 	0.40040 0.59960 0.35620 0.08800
O 	O 	0.09899 0.90101 0.66863 -0.17700
C 	C 	0.15657 0.84343 0.80903 0.00400
C 	C 	0.11802 0.88198 0.71263 0.12500
C 	C 	0.08022 0.91978 0.72413 -0.16600
H 	H 	0.06707 0.93293 0.68953 0.08800
O 	O 	0.76565 0.23435 0.00197 -0.17700
C 	C 	0.82323 0.17677 0.14237 0.00400
C 	C 	0.78468 0.21532 0.04597 0.12500
C 	C 	0.74688 0.25312 0.05747 -0.16500
H 	H 	0.73373 0.26627 0.02287 0.08800
O 	O 	0.13536 0.56768 0.33530 -0.17700
C 	C 	0.02020 0.51010 0.47570 0.00400
C 	C 	0.09730 0.54865 0.37930 0.12500
C 	C 	0.17290 0.58645 0.39080 -0.16500
H 	H 	0.19920 0.59960 0.35620 0.08800
O 	O 	0.80203 0.90101 0.66863 -0.17700
C 	C 	0.68687 0.84343 0.80903 0.00400
C 	C 	0.76397 0.88198 0.71263 0.12500
C 	C 	0.83957 0.91978 0.72413 -0.16600
H 	H 	0.86587 0.93293 0.68953 0.08800
O 	O 	0.46869 0.23435 0.00197 -0.17700
C 	C 	0.35353 0.17677 0.14237 0.00400
C 	C 	0.43063 0.21532 0.04597 0.12500
C 	C 	0.50623 0.25312 0.05747 -0.16500
H 	H 	0.53253 0.26627 0.02287 0.08800
O 	O 	0.43232 0.86464 0.33530 -0.17700
C 	C 	0.48990 0.97980 0.47570 0.00400
C 	C 	0.45135 0.90270 0.37930 0.12500
C 	C 	0.41355 0.82710 0.39080 -0.16500
H 	H 	0.40040 0.80080 0.35620 0.08800
O 	O 	0.09899 0.19797 0.66863 -0.17700
C 	C 	0.15657 0.31313 0.80903 0.00400
C 	C 	0.11802 0.23603 0.71263 0.12500
C 	C 	0.08022 0.16043 0.72413 -0.16600
H 	H 	0.06707 0.13413 0.68953 0.08800
O 	O 	0.76565 0.53131 0.00197 -0.17700
C 	C 	0.82323 0.64647 0.14237 0.00400
C 	C 	0.78468 0.56937 0.04597 0.12500
C 	C 	0.74688 0.49377 0.05747 -0.16500
H 	H 	0.73373 0.46747 0.02287 0.08800
