data_crystal

_cell_length_a 35.02270
_cell_length_b 35.02270
_cell_length_c 22.75390
_cell_angle_alpha 90.00000
_cell_angle_beta  90.00000
_cell_angle_gamma 120.00000

_symmetry_space_group_name_	'P 1'
_symmetry_space_group_name_H-M	'P 1'

loop_
_symmetry_equiv_pos_as_xyz
  x,y,z

loop_
_atom_site_label
_atom_site_type_symbol
_atom_site_fract_x
_atom_site_fract_y
_atom_site_fract_z
_atom_site_charge
O 	O 	0.21988 0.36137 0.40115 -0.41200
O 	O 	0.23409 0.38946 0.31041 -0.41700
C 	C 	0.24467 0.38754 0.36182 0.38500
C 	C 	0.29164 0.41901 0.38024 -0.14600
C 	C 	0.32180 0.44703 0.33936 0.08800
H 	H 	0.31310 0.44670 0.30070 0.01700
C 	C 	0.36500 0.47562 0.35593 -0.17000
H 	H 	0.38490 0.49480 0.32820 0.10400
C 	C 	0.37901 0.47629 0.41184 0.12500
C 	C 	0.34851 0.44805 0.45304 -0.16900
H 	H 	0.35720 0.44820 0.49170 0.09200
C 	C 	0.30519 0.41962 0.43623 0.09000
H 	H 	0.28510 0.40070 0.46390 0.01700
C 	C 	0.42608 0.50472 0.43023 -0.06700
C 	C 	0.44574 0.48631 0.46400 -0.04400
H 	H 	0.42880 0.45700 0.47530 0.04700
H 	H 	0.43520 0.60950 0.43630 0.10100
O 	O 	0.88655 0.69470 0.73448 -0.41200
O 	O 	0.90076 0.72279 0.64374 -0.41800
C 	C 	0.91134 0.72087 0.69515 0.38400
C 	C 	0.95831 0.75234 0.71357 -0.14700
C 	C 	0.98847 0.78036 0.67269 0.08700
H 	H 	0.97977 0.78003 0.63403 0.01700
C 	C 	0.03167 0.80895 0.68926 -0.17000
H 	H 	0.05157 0.82813 0.66153 0.10300
C 	C 	0.04568 0.80962 0.74517 0.12400
C 	C 	0.01518 0.78138 0.78637 -0.16900
H 	H 	0.02387 0.78153 0.82503 0.09100
C 	C 	0.97186 0.75295 0.76956 0.08800
H 	H 	0.95177 0.73403 0.79723 0.01600
C 	C 	0.09275 0.83805 0.76356 -0.06800
C 	C 	0.11241 0.81964 0.79733 -0.04500
H 	H 	0.09547 0.79033 0.80863 0.04600
H 	H 	0.10187 0.94283 0.76963 0.10000
O 	O 	0.55321 0.02804 0.06782 -0.41300
O 	O 	0.56742 0.05613 0.97708 -0.41800
C 	C 	0.57800 0.05421 0.02849 0.38500
C 	C 	0.62497 0.08568 0.04691 -0.14800
C 	C 	0.65513 0.11370 0.00603 0.08800
H 	H 	0.64643 0.11337 0.96737 0.01600
C 	C 	0.69833 0.14229 0.02260 -0.17000
H 	H 	0.71823 0.16147 0.99487 0.10300
C 	C 	0.71234 0.14296 0.07851 0.12400
C 	C 	0.68184 0.11472 0.11971 -0.17000
H 	H 	0.69053 0.11487 0.15837 0.09100
C 	C 	0.63852 0.08629 0.10290 0.08900
H 	H 	0.61843 0.06737 0.13057 0.01600
C 	C 	0.75941 0.17139 0.09690 -0.06800
C 	C 	0.77907 0.15298 0.13067 -0.04500
H 	H 	0.76213 0.12367 0.14197 0.04600
H 	H 	0.76853 0.27617 0.10297 0.10000
O 	O 	0.63863 0.85851 0.40115 -0.41300
O 	O 	0.61054 0.84463 0.31041 -0.41800
C 	C 	0.61246 0.85713 0.36182 0.38400
C 	C 	0.58099 0.87263 0.38024 -0.14700
C 	C 	0.55297 0.87477 0.33936 0.08700
H 	H 	0.55330 0.86640 0.30070 0.01600
C 	C 	0.52438 0.88938 0.35593 -0.17100
H 	H 	0.50520 0.89010 0.32820 0.10300
C 	C 	0.52371 0.90272 0.41184 0.12400
C 	C 	0.55195 0.90046 0.45304 -0.17000
H 	H 	0.55180 0.90900 0.49170 0.09100
C 	C 	0.58038 0.88557 0.43623 0.08900
H 	H 	0.59930 0.88440 0.46390 0.01600
C 	C 	0.49528 0.92136 0.43023 -0.06800
C 	C 	0.51369 0.95943 0.46400 -0.04500
H 	H 	0.54300 0.97180 0.47530 0.04600
H 	H 	0.39050 0.82570 0.43630 0.10000
O 	O 	0.30530 0.19184 0.73448 -0.41300
O 	O 	0.27721 0.17796 0.64374 -0.41800
C 	C 	0.27913 0.19046 0.69515 0.38400
C 	C 	0.24766 0.20596 0.71357 -0.14700
C 	C 	0.21964 0.20810 0.67269 0.08700
H 	H 	0.21997 0.19973 0.63403 0.01600
C 	C 	0.19105 0.22271 0.68926 -0.17100
H 	H 	0.17187 0.22343 0.66153 0.10300
C 	C 	0.19038 0.23605 0.74517 0.12400
C 	C 	0.21862 0.23379 0.78637 -0.17000
H 	H 	0.21847 0.24233 0.82503 0.09100
C 	C 	0.24705 0.21890 0.76956 0.08900
H 	H 	0.26597 0.21773 0.79723 0.01600
C 	C 	0.16195 0.25469 0.76356 -0.06800
C 	C 	0.18036 0.29276 0.79733 -0.04500
H 	H 	0.20967 0.30513 0.80863 0.04600
H 	H 	0.05717 0.15903 0.76963 0.10000
O 	O 	0.97196 0.52518 0.06782 -0.41300
O 	O 	0.94387 0.51130 0.97708 -0.41800
C 	C 	0.94579 0.52380 0.02849 0.38500
C 	C 	0.91432 0.53930 0.04691 -0.14800
C 	C 	0.88630 0.54144 0.00603 0.08800
H 	H 	0.88663 0.53307 0.96737 0.01600
C 	C 	0.85771 0.55605 0.02260 -0.17000
H 	H 	0.83853 0.55677 0.99487 0.10300
C 	C 	0.85704 0.56939 0.07851 0.12400
C 	C 	0.88528 0.56713 0.11971 -0.17000
H 	H 	0.88513 0.57567 0.15837 0.09100
C 	C 	0.91371 0.55224 0.10290 0.08900
H 	H 	0.93263 0.55107 0.13057 0.01600
C 	C 	0.82861 0.58803 0.09690 -0.06800
C 	C 	0.84702 0.62610 0.13067 -0.04500
H 	H 	0.87633 0.63847 0.14197 0.04600
H 	H 	0.72383 0.49237 0.10297 0.10000
O 	O 	0.14149 0.78012 0.40115 -0.41300
O 	O 	0.15537 0.76591 0.31041 -0.41800
C 	C 	0.14287 0.75533 0.36182 0.38400
C 	C 	0.12737 0.70836 0.38024 -0.14700
C 	C 	0.12523 0.67820 0.33936 0.08700
H 	H 	0.13360 0.68690 0.30070 0.01600
C 	C 	0.11062 0.63500 0.35593 -0.17100
H 	H 	0.10990 0.61510 0.32820 0.10300
C 	C 	0.09728 0.62099 0.41184 0.12400
C 	C 	0.09954 0.65149 0.45304 -0.17000
H 	H 	0.09100 0.64280 0.49170 0.09100
C 	C 	0.11443 0.69481 0.43623 0.08900
H 	H 	0.11560 0.71490 0.46390 0.01600
C 	C 	0.07864 0.57392 0.43023 -0.06800
C 	C 	0.04057 0.55426 0.46400 -0.04500
H 	H 	0.02820 0.57120 0.47530 0.04600
H 	H 	0.17430 0.56480 0.43630 0.10000
O 	O 	0.80816 0.11345 0.73448 -0.41300
O 	O 	0.82204 0.09924 0.64374 -0.41800
C 	C 	0.80954 0.08866 0.69515 0.38400
C 	C 	0.79404 0.04169 0.71357 -0.14700
C 	C 	0.79190 0.01153 0.67269 0.08700
H 	H 	0.80027 0.02023 0.63403 0.01700
C 	C 	0.77729 0.96833 0.68926 -0.17000
H 	H 	0.77657 0.94843 0.66153 0.10300
C 	C 	0.76395 0.95432 0.74517 0.12400
C 	C 	0.76621 0.98482 0.78637 -0.17000
H 	H 	0.75767 0.97613 0.82503 0.09100
C 	C 	0.78110 0.02814 0.76956 0.08800
H 	H 	0.78227 0.04823 0.79723 0.01600
C 	C 	0.74531 0.90725 0.76356 -0.06800
C 	C 	0.70724 0.88759 0.79733 -0.04500
H 	H 	0.69487 0.90453 0.80863 0.04600
H 	H 	0.84097 0.89813 0.76963 0.10000
O 	O 	0.47482 0.44679 0.06782 -0.41300
O 	O 	0.48870 0.43258 0.97708 -0.41800
C 	C 	0.47620 0.42200 0.02849 0.38400
C 	C 	0.46070 0.37503 0.04691 -0.14700
C 	C 	0.45856 0.34487 0.00603 0.08800
H 	H 	0.46693 0.35357 0.96737 0.01600
C 	C 	0.44395 0.30167 0.02260 -0.17000
H 	H 	0.44323 0.28177 0.99487 0.10300
C 	C 	0.43061 0.28766 0.07851 0.12400
C 	C 	0.43287 0.31816 0.11971 -0.17000
H 	H 	0.42433 0.30947 0.15837 0.09100
C 	C 	0.44776 0.36148 0.10290 0.08900
H 	H 	0.44893 0.38157 0.13057 0.01600
C 	C 	0.41197 0.24059 0.09690 -0.06800
C 	C 	0.37390 0.22093 0.13067 -0.04500
H 	H 	0.36153 0.23787 0.14197 0.04600
H 	H 	0.50763 0.23147 0.10297 0.10000
O 	O 	0.36137 0.21988 0.59885 -0.41300
O 	O 	0.38946 0.23409 0.68959 -0.41800
C 	C 	0.38754 0.24467 0.63818 0.38400
C 	C 	0.41901 0.29164 0.61976 -0.14700
C 	C 	0.44703 0.32180 0.66064 0.08700
H 	H 	0.44670 0.31310 0.69930 0.01600
C 	C 	0.47562 0.36500 0.64407 -0.17100
H 	H 	0.49480 0.38490 0.67180 0.10300
C 	C 	0.47629 0.37901 0.58816 0.12400
C 	C 	0.44805 0.34851 0.54696 -0.17000
H 	H 	0.44820 0.35720 0.50830 0.09100
C 	C 	0.41962 0.30519 0.56377 0.08900
H 	H 	0.40070 0.28510 0.53610 0.01600
C 	C 	0.50472 0.42608 0.56977 -0.06800
C 	C 	0.48631 0.44574 0.53600 -0.04500
H 	H 	0.45700 0.42880 0.52470 0.04600
H 	H 	0.60950 0.43520 0.56370 0.10000
O 	O 	0.02804 0.55321 0.93218 -0.41300
O 	O 	0.05613 0.56742 0.02292 -0.41800
C 	C 	0.05421 0.57800 0.97151 0.38500
C 	C 	0.08568 0.62497 0.95309 -0.14800
C 	C 	0.11370 0.65513 0.99397 0.08800
H 	H 	0.11337 0.64643 0.03263 0.01600
C 	C 	0.14229 0.69833 0.97740 -0.17000
H 	H 	0.16147 0.71823 0.00513 0.10300
C 	C 	0.14296 0.71234 0.92149 0.12400
C 	C 	0.11472 0.68184 0.88029 -0.17000
H 	H 	0.11487 0.69053 0.84163 0.09100
C 	C 	0.08629 0.63852 0.89710 0.08900
H 	H 	0.06737 0.61843 0.86943 0.01600
C 	C 	0.17139 0.75941 0.90310 -0.06800
C 	C 	0.15298 0.77907 0.86933 -0.04500
H 	H 	0.12367 0.76213 0.85803 0.04600
H 	H 	0.27617 0.76853 0.89703 0.10000
O 	O 	0.69470 0.88655 0.26552 -0.41300
O 	O 	0.72279 0.90076 0.35626 -0.41800
C 	C 	0.72087 0.91134 0.30485 0.38400
C 	C 	0.75234 0.95831 0.28643 -0.14700
C 	C 	0.78036 0.98847 0.32731 0.08700
H 	H 	0.78003 0.97977 0.36597 0.01700
C 	C 	0.80895 0.03167 0.31074 -0.17000
H 	H 	0.82813 0.05157 0.33847 0.10300
C 	C 	0.80962 0.04568 0.25483 0.12400
C 	C 	0.78138 0.01518 0.21363 -0.16900
H 	H 	0.78153 0.02387 0.17497 0.09100
C 	C 	0.75295 0.97186 0.23044 0.08800
H 	H 	0.73403 0.95177 0.20277 0.01600
C 	C 	0.83805 0.09275 0.23644 -0.06800
C 	C 	0.81964 0.11241 0.20267 -0.04500
H 	H 	0.79033 0.09547 0.19137 0.04600
H 	H 	0.94283 0.10187 0.23037 0.10000
O 	O 	0.85851 0.63863 0.59885 -0.41300
O 	O 	0.84463 0.61054 0.68959 -0.41800
C 	C 	0.85713 0.61246 0.63818 0.38400
C 	C 	0.87263 0.58099 0.61976 -0.14700
C 	C 	0.87477 0.55297 0.66064 0.08700
H 	H 	0.86640 0.55330 0.69930 0.01600
C 	C 	0.88938 0.52438 0.64407 -0.17100
H 	H 	0.89010 0.50520 0.67180 0.10300
C 	C 	0.90272 0.52371 0.58816 0.12400
C 	C 	0.90046 0.55195 0.54696 -0.17000
H 	H 	0.90900 0.55180 0.50830 0.09100
C 	C 	0.88557 0.58038 0.56377 0.08900
H 	H 	0.88440 0.59930 0.53610 0.01600
C 	C 	0.92136 0.49528 0.56977 -0.06800
C 	C 	0.95943 0.51369 0.53600 -0.04500
H 	H 	0.97180 0.54300 0.52470 0.04600
H 	H 	0.82570 0.39050 0.56370 0.10000
O 	O 	0.52518 0.97196 0.93218 -0.41300
O 	O 	0.51130 0.94387 0.02292 -0.41800
C 	C 	0.52380 0.94579 0.97151 0.38500
C 	C 	0.53930 0.91432 0.95309 -0.14800
C 	C 	0.54144 0.88630 0.99397 0.08800
H 	H 	0.53307 0.88663 0.03263 0.01600
C 	C 	0.55605 0.85771 0.97740 -0.17000
H 	H 	0.55677 0.83853 0.00513 0.10300
C 	C 	0.56939 0.85704 0.92149 0.12400
C 	C 	0.56713 0.88528 0.88029 -0.17000
H 	H 	0.57567 0.88513 0.84163 0.09100
C 	C 	0.55224 0.91371 0.89710 0.08900
H 	H 	0.55107 0.93263 0.86943 0.01600
C 	C 	0.58803 0.82861 0.90310 -0.06800
C 	C 	0.62610 0.84702 0.86933 -0.04500
H 	H 	0.63847 0.87633 0.85803 0.04600
H 	H 	0.49237 0.72383 0.89703 0.10000
O 	O 	0.19184 0.30530 0.26552 -0.41300
O 	O 	0.17796 0.27721 0.35626 -0.41800
C 	C 	0.19046 0.27913 0.30485 0.38400
C 	C 	0.20596 0.24766 0.28643 -0.14700
C 	C 	0.20810 0.21964 0.32731 0.08700
H 	H 	0.19973 0.21997 0.36597 0.01600
C 	C 	0.22271 0.19105 0.31074 -0.17100
H 	H 	0.22343 0.17187 0.33847 0.10300
C 	C 	0.23605 0.19038 0.25483 0.12400
C 	C 	0.23379 0.21862 0.21363 -0.17000
H 	H 	0.24233 0.21847 0.17497 0.09100
C 	C 	0.21890 0.24705 0.23044 0.08900
H 	H 	0.21773 0.26597 0.20277 0.01600
C 	C 	0.25469 0.16195 0.23644 -0.06800
C 	C 	0.29276 0.18036 0.20267 -0.04500
H 	H 	0.30513 0.20967 0.19137 0.04600
H 	H 	0.15903 0.05717 0.23037 0.10000
O 	O 	0.78012 0.14149 0.59885 -0.41300
O 	O 	0.76591 0.15537 0.68959 -0.41800
C 	C 	0.75533 0.14287 0.63818 0.38400
C 	C 	0.70836 0.12737 0.61976 -0.14700
C 	C 	0.67820 0.12523 0.66064 0.08700
H 	H 	0.68690 0.13360 0.69930 0.01600
C 	C 	0.63500 0.11062 0.64407 -0.17100
H 	H 	0.61510 0.10990 0.67180 0.10300
C 	C 	0.62099 0.09728 0.58816 0.12400
C 	C 	0.65149 0.09954 0.54696 -0.17000
H 	H 	0.64280 0.09100 0.50830 0.09100
C 	C 	0.69481 0.11443 0.56377 0.08900
H 	H 	0.71490 0.11560 0.53610 0.01600
C 	C 	0.57392 0.07864 0.56977 -0.06800
C 	C 	0.55426 0.04057 0.53600 -0.04500
H 	H 	0.57120 0.02820 0.52470 0.04600
H 	H 	0.56480 0.17430 0.56370 0.10000
O 	O 	0.44679 0.47482 0.93218 -0.41300
O 	O 	0.43258 0.48870 0.02292 -0.41800
C 	C 	0.42200 0.47620 0.97151 0.38400
C 	C 	0.37503 0.46070 0.95309 -0.14700
C 	C 	0.34487 0.45856 0.99397 0.08800
H 	H 	0.35357 0.46693 0.03263 0.01600
C 	C 	0.30167 0.44395 0.97740 -0.17000
H 	H 	0.28177 0.44323 0.00513 0.10300
C 	C 	0.28766 0.43061 0.92149 0.12400
C 	C 	0.31816 0.43287 0.88029 -0.17000
H 	H 	0.30947 0.42433 0.84163 0.09100
C 	C 	0.36148 0.44776 0.89710 0.08900
H 	H 	0.38157 0.44893 0.86943 0.01600
C 	C 	0.24059 0.41197 0.90310 -0.06800
C 	C 	0.22093 0.37390 0.86933 -0.04500
H 	H 	0.23787 0.36153 0.85803 0.04600
H 	H 	0.23147 0.50763 0.89703 0.10000
O 	O 	0.11345 0.80816 0.26552 -0.41300
O 	O 	0.09924 0.82204 0.35626 -0.41800
C 	C 	0.08866 0.80954 0.30485 0.38400
C 	C 	0.04169 0.79404 0.28643 -0.14700
C 	C 	0.01153 0.79190 0.32731 0.08700
H 	H 	0.02023 0.80027 0.36597 0.01700
C 	C 	0.96833 0.77729 0.31074 -0.17000
H 	H 	0.94843 0.77657 0.33847 0.10300
C 	C 	0.95432 0.76395 0.25483 0.12400
C 	C 	0.98482 0.76621 0.21363 -0.17000
H 	H 	0.97613 0.75767 0.17497 0.09100
C 	C 	0.02814 0.78110 0.23044 0.08800
H 	H 	0.04823 0.78227 0.20277 0.01600
C 	C 	0.90725 0.74531 0.23644 -0.06800
C 	C 	0.88759 0.70724 0.20267 -0.04500
H 	H 	0.90453 0.69487 0.19137 0.04600
H 	H 	0.89813 0.84097 0.23037 0.10000
O 	O 	0.78012 0.63863 0.59885 -0.41300
O 	O 	0.76591 0.61054 0.68959 -0.41800
C 	C 	0.75533 0.61246 0.63818 0.38400
C 	C 	0.70836 0.58099 0.61976 -0.14700
C 	C 	0.67820 0.55297 0.66064 0.08700
H 	H 	0.68690 0.55330 0.69930 0.01600
C 	C 	0.63500 0.52438 0.64407 -0.17100
H 	H 	0.61510 0.50520 0.67180 0.10300
C 	C 	0.62099 0.52371 0.58816 0.12400
C 	C 	0.65149 0.55195 0.54696 -0.17000
H 	H 	0.64280 0.55180 0.50830 0.09100
C 	C 	0.69481 0.58038 0.56377 0.08900
H 	H 	0.71490 0.59930 0.53610 0.01600
C 	C 	0.57392 0.49528 0.56977 -0.06800
C 	C 	0.55426 0.51369 0.53600 -0.04500
H 	H 	0.57120 0.54300 0.52470 0.04600
H 	H 	0.56480 0.39050 0.56370 0.10000
O 	O 	0.44679 0.97196 0.93218 -0.41300
O 	O 	0.43258 0.94387 0.02292 -0.41800
C 	C 	0.42200 0.94579 0.97151 0.38500
C 	C 	0.37503 0.91432 0.95309 -0.14800
C 	C 	0.34487 0.88630 0.99397 0.08800
H 	H 	0.35357 0.88663 0.03263 0.01600
C 	C 	0.30167 0.85771 0.97740 -0.17000
H 	H 	0.28177 0.83853 0.00513 0.10300
C 	C 	0.28766 0.85704 0.92149 0.12400
C 	C 	0.31816 0.88528 0.88029 -0.17000
H 	H 	0.30947 0.88513 0.84163 0.09100
C 	C 	0.36148 0.91371 0.89710 0.08900
H 	H 	0.38157 0.93263 0.86943 0.01600
C 	C 	0.24059 0.82861 0.90310 -0.06800
C 	C 	0.22093 0.84702 0.86933 -0.04500
H 	H 	0.23787 0.87633 0.85803 0.04600
H 	H 	0.23147 0.72383 0.89703 0.10000
O 	O 	0.11345 0.30530 0.26552 -0.41300
O 	O 	0.09924 0.27721 0.35626 -0.41800
C 	C 	0.08866 0.27913 0.30485 0.38400
C 	C 	0.04169 0.24766 0.28643 -0.14700
C 	C 	0.01153 0.21964 0.32731 0.08700
H 	H 	0.02023 0.21997 0.36597 0.01700
C 	C 	0.96833 0.19105 0.31074 -0.17000
H 	H 	0.94843 0.17187 0.33847 0.10300
C 	C 	0.95432 0.19038 0.25483 0.12400
C 	C 	0.98482 0.21862 0.21363 -0.16900
H 	H 	0.97613 0.21847 0.17497 0.09100
C 	C 	0.02814 0.24705 0.23044 0.08800
H 	H 	0.04823 0.26597 0.20277 0.01600
C 	C 	0.90725 0.16195 0.23644 -0.06800
C 	C 	0.88759 0.18036 0.20267 -0.04500
H 	H 	0.90453 0.20967 0.19137 0.04600
H 	H 	0.89813 0.05717 0.23037 0.10000
O 	O 	0.36137 0.14149 0.59885 -0.41300
O 	O 	0.38946 0.15537 0.68959 -0.41800
C 	C 	0.38754 0.14287 0.63818 0.38400
C 	C 	0.41901 0.12737 0.61976 -0.14700
C 	C 	0.44703 0.12523 0.66064 0.08700
H 	H 	0.44670 0.13360 0.69930 0.01600
C 	C 	0.47562 0.11062 0.64407 -0.17100
H 	H 	0.49480 0.10990 0.67180 0.10300
C 	C 	0.47629 0.09728 0.58816 0.12400
C 	C 	0.44805 0.09954 0.54696 -0.17000
H 	H 	0.44820 0.09100 0.50830 0.09100
C 	C 	0.41962 0.11443 0.56377 0.08900
H 	H 	0.40070 0.11560 0.53610 0.01600
C 	C 	0.50472 0.07864 0.56977 -0.06800
C 	C 	0.48631 0.04057 0.53600 -0.04500
H 	H 	0.45700 0.02820 0.52470 0.04600
H 	H 	0.60950 0.17430 0.56370 0.10000
O 	O 	0.02804 0.47482 0.93218 -0.41300
O 	O 	0.05613 0.48870 0.02292 -0.41800
C 	C 	0.05421 0.47620 0.97151 0.38500
C 	C 	0.08568 0.46070 0.95309 -0.14800
C 	C 	0.11370 0.45856 0.99397 0.08800
H 	H 	0.11337 0.46693 0.03263 0.01600
C 	C 	0.14229 0.44395 0.97740 -0.17000
H 	H 	0.16147 0.44323 0.00513 0.10300
C 	C 	0.14296 0.43061 0.92149 0.12400
C 	C 	0.11472 0.43287 0.88029 -0.17000
H 	H 	0.11487 0.42433 0.84163 0.09100
C 	C 	0.08629 0.44776 0.89710 0.08900
H 	H 	0.06737 0.44893 0.86943 0.01600
C 	C 	0.17139 0.41197 0.90310 -0.06800
C 	C 	0.15298 0.37390 0.86933 -0.04500
H 	H 	0.12367 0.36153 0.85803 0.04600
H 	H 	0.27617 0.50763 0.89703 0.10000
O 	O 	0.69470 0.80816 0.26552 -0.41300
O 	O 	0.72279 0.82204 0.35626 -0.41800
C 	C 	0.72087 0.80954 0.30485 0.38400
C 	C 	0.75234 0.79404 0.28643 -0.14700
C 	C 	0.78036 0.79190 0.32731 0.08700
H 	H 	0.78003 0.80027 0.36597 0.01600
C 	C 	0.80895 0.77729 0.31074 -0.17100
H 	H 	0.82813 0.77657 0.33847 0.10300
C 	C 	0.80962 0.76395 0.25483 0.12400
C 	C 	0.78138 0.76621 0.21363 -0.17000
H 	H 	0.78153 0.75767 0.17497 0.09100
C 	C 	0.75295 0.78110 0.23044 0.08900
H 	H 	0.73403 0.78227 0.20277 0.01600
C 	C 	0.83805 0.74531 0.23644 -0.06800
C 	C 	0.81964 0.70724 0.20267 -0.04500
H 	H 	0.79033 0.69487 0.19137 0.04600
H 	H 	0.94283 0.84097 0.23037 0.10000
O 	O 	0.85851 0.21988 0.59885 -0.41300
O 	O 	0.84463 0.23409 0.68959 -0.41800
C 	C 	0.85713 0.24467 0.63818 0.38400
C 	C 	0.87263 0.29164 0.61976 -0.14700
C 	C 	0.87477 0.32180 0.66064 0.08700
H 	H 	0.86640 0.31310 0.69930 0.01600
C 	C 	0.88938 0.36500 0.64407 -0.17100
H 	H 	0.89010 0.38490 0.67180 0.10300
C 	C 	0.90272 0.37901 0.58816 0.12400
C 	C 	0.90046 0.34851 0.54696 -0.17000
H 	H 	0.90900 0.35720 0.50830 0.09100
C 	C 	0.88557 0.30519 0.56377 0.08900
H 	H 	0.88440 0.28510 0.53610 0.01600
C 	C 	0.92136 0.42608 0.56977 -0.06800
C 	C 	0.95943 0.44574 0.53600 -0.04500
H 	H 	0.97180 0.42880 0.52470 0.04600
H 	H 	0.82570 0.43520 0.56370 0.10000
O 	O 	0.52518 0.55321 0.93218 -0.41300
O 	O 	0.51130 0.56742 0.02292 -0.41800
C 	C 	0.52380 0.57800 0.97151 0.38400
C 	C 	0.53930 0.62497 0.95309 -0.14700
C 	C 	0.54144 0.65513 0.99397 0.08800
H 	H 	0.53307 0.64643 0.03263 0.01600
C 	C 	0.55605 0.69833 0.97740 -0.17000
H 	H 	0.55677 0.71823 0.00513 0.10300
C 	C 	0.56939 0.71234 0.92149 0.12400
C 	C 	0.56713 0.68184 0.88029 -0.17000
H 	H 	0.57567 0.69053 0.84163 0.09100
C 	C 	0.55224 0.63852 0.89710 0.08900
H 	H 	0.55107 0.61843 0.86943 0.01600
C 	C 	0.58803 0.75941 0.90310 -0.06800
C 	C 	0.62610 0.77907 0.86933 -0.04500
H 	H 	0.63847 0.76213 0.85803 0.04600
H 	H 	0.49237 0.76853 0.89703 0.10000
O 	O 	0.19184 0.88655 0.26552 -0.41300
O 	O 	0.17796 0.90076 0.35626 -0.41800
C 	C 	0.19046 0.91134 0.30485 0.38400
C 	C 	0.20596 0.95831 0.28643 -0.14700
C 	C 	0.20810 0.98847 0.32731 0.08700
H 	H 	0.19973 0.97977 0.36597 0.01700
C 	C 	0.22271 0.03167 0.31074 -0.17000
H 	H 	0.22343 0.05157 0.33847 0.10300
C 	C 	0.23605 0.04568 0.25483 0.12400
C 	C 	0.23379 0.01518 0.21363 -0.17000
H 	H 	0.24233 0.02387 0.17497 0.09100
C 	C 	0.21890 0.97186 0.23044 0.08800
H 	H 	0.21773 0.95177 0.20277 0.01600
C 	C 	0.25469 0.09275 0.23644 -0.06800
C 	C 	0.29276 0.11241 0.20267 -0.04500
H 	H 	0.30513 0.09547 0.19137 0.04600
H 	H 	0.15903 0.10187 0.23037 0.10000
O 	O 	0.63863 0.78012 0.40115 -0.41300
O 	O 	0.61054 0.76591 0.31041 -0.41800
C 	C 	0.61246 0.75533 0.36182 0.38400
C 	C 	0.58099 0.70836 0.38024 -0.14700
C 	C 	0.55297 0.67820 0.33936 0.08700
H 	H 	0.55330 0.68690 0.30070 0.01600
C 	C 	0.52438 0.63500 0.35593 -0.17100
H 	H 	0.50520 0.61510 0.32820 0.10300
C 	C 	0.52371 0.62099 0.41184 0.12400
C 	C 	0.55195 0.65149 0.45304 -0.17000
H 	H 	0.55180 0.64280 0.49170 0.09100
C 	C 	0.58038 0.69481 0.43623 0.08900
H 	H 	0.59930 0.71490 0.46390 0.01600
C 	C 	0.49528 0.57392 0.43023 -0.06800
C 	C 	0.51369 0.55426 0.46400 -0.04500
H 	H 	0.54300 0.57120 0.47530 0.04600
H 	H 	0.39050 0.56480 0.43630 0.10000
O 	O 	0.30530 0.11345 0.73448 -0.41300
O 	O 	0.27721 0.09924 0.64374 -0.41800
C 	C 	0.27913 0.08866 0.69515 0.38400
C 	C 	0.24766 0.04169 0.71357 -0.14700
C 	C 	0.21964 0.01153 0.67269 0.08700
H 	H 	0.21997 0.02023 0.63403 0.01700
C 	C 	0.19105 0.96833 0.68926 -0.17000
H 	H 	0.17187 0.94843 0.66153 0.10300
C 	C 	0.19038 0.95432 0.74517 0.12400
C 	C 	0.21862 0.98482 0.78637 -0.16900
H 	H 	0.21847 0.97613 0.82503 0.09100
C 	C 	0.24705 0.02814 0.76956 0.08800
H 	H 	0.26597 0.04823 0.79723 0.01600
C 	C 	0.16195 0.90725 0.76356 -0.06800
C 	C 	0.18036 0.88759 0.79733 -0.04500
H 	H 	0.20967 0.90453 0.80863 0.04600
H 	H 	0.05717 0.89813 0.76963 0.10000
O 	O 	0.97196 0.44679 0.06782 -0.41300
O 	O 	0.94387 0.43258 0.97708 -0.41800
C 	C 	0.94579 0.42200 0.02849 0.38500
C 	C 	0.91432 0.37503 0.04691 -0.14800
C 	C 	0.88630 0.34487 0.00603 0.08800
H 	H 	0.88663 0.35357 0.96737 0.01600
C 	C 	0.85771 0.30167 0.02260 -0.17000
H 	H 	0.83853 0.28177 0.99487 0.10300
C 	C 	0.85704 0.28766 0.07851 0.12400
C 	C 	0.88528 0.31816 0.11971 -0.17000
H 	H 	0.88513 0.30947 0.15837 0.09100
C 	C 	0.91371 0.36148 0.10290 0.08900
H 	H 	0.93263 0.38157 0.13057 0.01600
C 	C 	0.82861 0.24059 0.09690 -0.06800
C 	C 	0.84702 0.22093 0.13067 -0.04500
H 	H 	0.87633 0.23787 0.14197 0.04600
H 	H 	0.72383 0.23147 0.10297 0.10000
O 	O 	0.14149 0.36137 0.40115 -0.41300
O 	O 	0.15537 0.38946 0.31041 -0.41800
C 	C 	0.14287 0.38754 0.36182 0.38400
C 	C 	0.12737 0.41901 0.38024 -0.14700
C 	C 	0.12523 0.44703 0.33936 0.08700
H 	H 	0.13360 0.44670 0.30070 0.01600
C 	C 	0.11062 0.47562 0.35593 -0.17100
H 	H 	0.10990 0.49480 0.32820 0.10300
C 	C 	0.09728 0.47629 0.41184 0.12400
C 	C 	0.09954 0.44805 0.45304 -0.17000
H 	H 	0.09100 0.44820 0.49170 0.09100
C 	C 	0.11443 0.41962 0.43623 0.08900
H 	H 	0.11560 0.40070 0.46390 0.01600
C 	C 	0.07864 0.50472 0.43023 -0.06800
C 	C 	0.04057 0.48631 0.46400 -0.04500
H 	H 	0.02820 0.45700 0.47530 0.04600
H 	H 	0.17430 0.60950 0.43630 0.10000
O 	O 	0.80816 0.69470 0.73448 -0.41300
O 	O 	0.82204 0.72279 0.64374 -0.41800
C 	C 	0.80954 0.72087 0.69515 0.38400
C 	C 	0.79404 0.75234 0.71357 -0.14700
C 	C 	0.79190 0.78036 0.67269 0.08700
H 	H 	0.80027 0.78003 0.63403 0.01600
C 	C 	0.77729 0.80895 0.68926 -0.17100
H 	H 	0.77657 0.82813 0.66153 0.10300
C 	C 	0.76395 0.80962 0.74517 0.12400
C 	C 	0.76621 0.78138 0.78637 -0.17000
H 	H 	0.75767 0.78153 0.82503 0.09100
C 	C 	0.78110 0.75295 0.76956 0.08900
H 	H 	0.78227 0.73403 0.79723 0.01600
C 	C 	0.74531 0.83805 0.76356 -0.06800
C 	C 	0.70724 0.81964 0.79733 -0.04500
H 	H 	0.69487 0.79033 0.80863 0.04600
H 	H 	0.84097 0.94283 0.76963 0.10000
O 	O 	0.47482 0.02804 0.06782 -0.41300
O 	O 	0.48870 0.05613 0.97708 -0.41800
C 	C 	0.47620 0.05421 0.02849 0.38500
C 	C 	0.46070 0.08568 0.04691 -0.14800
C 	C 	0.45856 0.11370 0.00603 0.08800
H 	H 	0.46693 0.11337 0.96737 0.01600
C 	C 	0.44395 0.14229 0.02260 -0.17000
H 	H 	0.44323 0.16147 0.99487 0.10300
C 	C 	0.43061 0.14296 0.07851 0.12400
C 	C 	0.43287 0.11472 0.11971 -0.17000
H 	H 	0.42433 0.11487 0.15837 0.09100
C 	C 	0.44776 0.08629 0.10290 0.08900
H 	H 	0.44893 0.06737 0.13057 0.01600
C 	C 	0.41197 0.17139 0.09690 -0.06800
C 	C 	0.37390 0.15298 0.13067 -0.04500
H 	H 	0.36153 0.12367 0.14197 0.04600
H 	H 	0.50763 0.27617 0.10297 0.10000
O 	O 	0.21988 0.85851 0.40115 -0.41300
O 	O 	0.23409 0.84463 0.31041 -0.41800
C 	C 	0.24467 0.85713 0.36182 0.38400
C 	C 	0.29164 0.87263 0.38024 -0.14700
C 	C 	0.32180 0.87477 0.33936 0.08700
H 	H 	0.31310 0.86640 0.30070 0.01600
C 	C 	0.36500 0.88938 0.35593 -0.17100
H 	H 	0.38490 0.89010 0.32820 0.10300
C 	C 	0.37901 0.90272 0.41184 0.12400
C 	C 	0.34851 0.90046 0.45304 -0.17000
H 	H 	0.35720 0.90900 0.49170 0.09100
C 	C 	0.30519 0.88557 0.43623 0.08900
H 	H 	0.28510 0.88440 0.46390 0.01600
C 	C 	0.42608 0.92136 0.43023 -0.06800
C 	C 	0.44574 0.95943 0.46400 -0.04500
H 	H 	0.42880 0.97180 0.47530 0.04600
H 	H 	0.43520 0.82570 0.43630 0.10000
O 	O 	0.88655 0.19184 0.73448 -0.41300
O 	O 	0.90076 0.17796 0.64374 -0.41800
C 	C 	0.91134 0.19046 0.69515 0.38400
C 	C 	0.95831 0.20596 0.71357 -0.14700
C 	C 	0.98847 0.20810 0.67269 0.08700
H 	H 	0.97977 0.19973 0.63403 0.01700
C 	C 	0.03167 0.22271 0.68926 -0.17000
H 	H 	0.05157 0.22343 0.66153 0.10300
C 	C 	0.04568 0.23605 0.74517 0.12400
C 	C 	0.01518 0.23379 0.78637 -0.17000
H 	H 	0.02387 0.24233 0.82503 0.09100
C 	C 	0.97186 0.21890 0.76956 0.08800
H 	H 	0.95177 0.21773 0.79723 0.01600
C 	C 	0.09275 0.25469 0.76356 -0.06800
C 	C 	0.11241 0.29276 0.79733 -0.04500
H 	H 	0.09547 0.30513 0.80863 0.04600
H 	H 	0.10187 0.15903 0.76963 0.10000
O 	O 	0.55321 0.52518 0.06782 -0.41300
O 	O 	0.56742 0.51130 0.97708 -0.41800
C 	C 	0.57800 0.52380 0.02849 0.38400
C 	C 	0.62497 0.53930 0.04691 -0.14700
C 	C 	0.65513 0.54144 0.00603 0.08800
H 	H 	0.64643 0.53307 0.96737 0.01600
C 	C 	0.69833 0.55605 0.02260 -0.17000
H 	H 	0.71823 0.55677 0.99487 0.10300
C 	C 	0.71234 0.56939 0.07851 0.12400
C 	C 	0.68184 0.56713 0.11971 -0.17000
H 	H 	0.69053 0.57567 0.15837 0.09100
C 	C 	0.63852 0.55224 0.10290 0.08900
H 	H 	0.61843 0.55107 0.13057 0.01600
C 	C 	0.75941 0.58803 0.09690 -0.06800
C 	C 	0.77907 0.62610 0.13067 -0.04500
H 	H 	0.76213 0.63847 0.14197 0.04600
H 	H 	0.76853 0.49237 0.10297 0.10000
Cu	Cu	0.15838 0.31675 0.38702 0.90600
Cu	Cu	0.82504 0.65008 0.72035 0.90600
Cu	Cu	0.49171 0.98342 0.05369 0.90600
Cu	Cu	0.68325 0.84162 0.38702 0.90600
Cu	Cu	0.34992 0.17496 0.72035 0.90600
Cu	Cu	0.01658 0.50829 0.05369 0.90600
Cu	Cu	0.15838 0.84162 0.38702 0.90600
Cu	Cu	0.82504 0.17496 0.72035 0.90600
Cu	Cu	0.49171 0.50829 0.05369 0.90600
Cu	Cu	0.31675 0.15838 0.61298 0.90600
Cu	Cu	0.98342 0.49171 0.94631 0.90600
Cu	Cu	0.65008 0.82504 0.27965 0.90600
Cu	Cu	0.84162 0.68325 0.61298 0.90600
Cu	Cu	0.50829 0.01658 0.94631 0.90600
Cu	Cu	0.17496 0.34992 0.27965 0.90600
Cu	Cu	0.84162 0.15838 0.61298 0.90600
Cu	Cu	0.50829 0.49171 0.94631 0.90600
Cu	Cu	0.17496 0.82504 0.27965 0.90600
O 	O 	0.43250 0.56750 0.37817 -0.17000
C 	C 	0.49000 0.51000 0.48190 0.00700
C 	C 	0.45119 0.54881 0.41414 0.11700
C 	C 	0.41317 0.58683 0.41200 -0.21300
H 	H 	0.40060 0.59940 0.38640 0.10200
O 	O 	0.09917 0.90083 0.71150 -0.17000
C 	C 	0.15667 0.84333 0.81523 0.00700
C 	C 	0.11786 0.88214 0.74747 0.11700
C 	C 	0.07984 0.92016 0.74533 -0.21300
H 	H 	0.06727 0.93273 0.71973 0.10200
O 	O 	0.76583 0.23417 0.04484 -0.17000
C 	C 	0.82333 0.17667 0.14857 0.00700
C 	C 	0.78452 0.21548 0.08081 0.11700
C 	C 	0.74650 0.25350 0.07867 -0.21300
H 	H 	0.73393 0.26607 0.05307 0.10200
O 	O 	0.43250 0.86500 0.37817 -0.17000
C 	C 	0.49000 0.98000 0.48190 0.00700
C 	C 	0.45119 0.90238 0.41414 0.11700
C 	C 	0.41317 0.82634 0.41200 -0.21300
H 	H 	0.40060 0.80120 0.38640 0.10200
O 	O 	0.09917 0.19833 0.71150 -0.17000
C 	C 	0.15667 0.31333 0.81523 0.00700
C 	C 	0.11786 0.23571 0.74747 0.11700
C 	C 	0.07984 0.15967 0.74533 -0.21300
H 	H 	0.06727 0.13453 0.71973 0.10200
O 	O 	0.76583 0.53167 0.04484 -0.17000
C 	C 	0.82333 0.64667 0.14857 0.00700
C 	C 	0.78452 0.56905 0.08081 0.11700
C 	C 	0.74650 0.49301 0.07867 -0.21300
H 	H 	0.73393 0.46787 0.05307 0.10200
O 	O 	0.13500 0.56750 0.37817 -0.17000
C 	C 	0.02000 0.51000 0.48190 0.00700
C 	C 	0.09762 0.54881 0.41414 0.11700
C 	C 	0.17366 0.58683 0.41200 -0.21300
H 	H 	0.19880 0.59940 0.38640 0.10200
O 	O 	0.80167 0.90083 0.71150 -0.17000
C 	C 	0.68667 0.84333 0.81523 0.00700
C 	C 	0.76429 0.88214 0.74747 0.11700
C 	C 	0.84033 0.92016 0.74533 -0.21300
H 	H 	0.86547 0.93273 0.71973 0.10200
O 	O 	0.46833 0.23417 0.04484 -0.17000
C 	C 	0.35333 0.17667 0.14857 0.00700
C 	C 	0.43095 0.21548 0.08081 0.11700
C 	C 	0.50699 0.25350 0.07867 -0.21300
H 	H 	0.53213 0.26607 0.05307 0.10200
O 	O 	0.56750 0.43250 0.62183 -0.17000
C 	C 	0.51000 0.49000 0.51810 0.00700
C 	C 	0.54881 0.45119 0.58586 0.11700
C 	C 	0.58683 0.41317 0.58800 -0.21300
H 	H 	0.59940 0.40060 0.61360 0.10200
O 	O 	0.23417 0.76583 0.95516 -0.17000
C 	C 	0.17667 0.82333 0.85143 0.00700
C 	C 	0.21548 0.78452 0.91919 0.11700
C 	C 	0.25350 0.74650 0.92133 -0.21300
H 	H 	0.26607 0.73393 0.94693 0.10200
O 	O 	0.90083 0.09917 0.28850 -0.17000
C 	C 	0.84333 0.15667 0.18477 0.00700
C 	C 	0.88214 0.11786 0.25253 0.11700
C 	C 	0.92016 0.07984 0.25467 -0.21300
H 	H 	0.93273 0.06727 0.28027 0.10200
O 	O 	0.86500 0.43250 0.62183 -0.17000
C 	C 	0.98000 0.49000 0.51810 0.00700
C 	C 	0.90238 0.45119 0.58586 0.11700
C 	C 	0.82634 0.41317 0.58800 -0.21300
H 	H 	0.80120 0.40060 0.61360 0.10200
O 	O 	0.53167 0.76583 0.95516 -0.17000
C 	C 	0.64667 0.82333 0.85143 0.00700
C 	C 	0.56905 0.78452 0.91919 0.11700
C 	C 	0.49301 0.74650 0.92133 -0.21300
H 	H 	0.46787 0.73393 0.94693 0.10200
O 	O 	0.19833 0.09917 0.28850 -0.17000
C 	C 	0.31333 0.15667 0.18477 0.00700
C 	C 	0.23571 0.11786 0.25253 0.11700
C 	C 	0.15967 0.07984 0.25467 -0.21300
H 	H 	0.13453 0.06727 0.28027 0.10200
O 	O 	0.56750 0.13500 0.62183 -0.17000
C 	C 	0.51000 0.02000 0.51810 0.00700
C 	C 	0.54881 0.09762 0.58586 0.11700
C 	C 	0.58683 0.17366 0.58800 -0.21300
H 	H 	0.59940 0.19880 0.61360 0.10200
O 	O 	0.23417 0.46833 0.95516 -0.17000
C 	C 	0.17667 0.35333 0.85143 0.00700
C 	C 	0.21548 0.43095 0.91919 0.11700
C 	C 	0.25350 0.50699 0.92133 -0.21300
H 	H 	0.26607 0.53213 0.94693 0.10200
O 	O 	0.90083 0.80167 0.28850 -0.17000
C 	C 	0.84333 0.68667 0.18477 0.00700
C 	C 	0.88214 0.76429 0.25253 0.11700
C 	C 	0.92016 0.84033 0.25467 -0.21300
H 	H 	0.93273 0.86547 0.28027 0.10200
