data_crystal

_cell_length_a 35.83320
_cell_length_b 35.83320
_cell_length_c 15.21420
_cell_angle_alpha 90.00000
_cell_angle_beta  90.00000
_cell_angle_gamma 120.00000

_symmetry_space_group_name_	'P 1'
_symmetry_space_group_name_H-M	'P 1'

loop_
_symmetry_equiv_pos_as_xyz
  x,y,z

loop_
_atom_site_label
_atom_site_type_symbol
_atom_site_fract_x
_atom_site_fract_y
_atom_site_fract_z
_atom_site_charge
O 	O 	0.55758 0.03818 0.57812 -0.41100
O 	O 	0.56365 0.05046 0.43280 -0.41100
C 	C 	0.57837 0.05719 0.50840 0.37900
C 	C 	0.62517 0.08928 0.52240 -0.14600
C 	C 	0.65227 0.10916 0.45580 0.09400
H 	H 	0.64160 0.10340 0.39730 0.01500
C 	C 	0.69580 0.13811 0.47000 -0.16600
H 	H 	0.71380 0.15270 0.42120 0.10200
C 	C 	0.71297 0.14586 0.55100 0.12700
C 	C 	0.68498 0.12718 0.62110 -0.16000
H 	H 	0.69580 0.13380 0.67940 0.08600
C 	C 	0.64155 0.09908 0.60750 0.08100
H 	H 	0.62290 0.08640 0.65640 0.01900
C 	C 	0.75991 0.17252 0.56910 -0.07300
C 	C 	0.77986 0.15395 0.61730 -0.04200
H 	H 	0.76330 0.12450 0.63350 0.04600
H 	H 	0.76990 0.27470 0.59970 0.08900
O 	O 	0.22425 0.37151 0.91145 -0.41100
O 	O 	0.23032 0.38379 0.76613 -0.41100
C 	C 	0.24504 0.39052 0.84173 0.37900
C 	C 	0.29184 0.42261 0.85573 -0.14600
C 	C 	0.31894 0.44249 0.78913 0.09400
H 	H 	0.30827 0.43673 0.73063 0.01500
C 	C 	0.36247 0.47144 0.80333 -0.16600
H 	H 	0.38047 0.48603 0.75453 0.10200
C 	C 	0.37964 0.47919 0.88433 0.12700
C 	C 	0.35165 0.46051 0.95443 -0.16000
H 	H 	0.36247 0.46713 0.01273 0.08600
C 	C 	0.30822 0.43241 0.94083 0.08100
H 	H 	0.28957 0.41973 0.98973 0.01900
C 	C 	0.42658 0.50585 0.90243 -0.07200
C 	C 	0.44653 0.48728 0.95063 -0.04200
H 	H 	0.42997 0.45783 0.96683 0.04500
H 	H 	0.43657 0.60803 0.93303 0.08800
O 	O 	0.89091 0.70485 0.24479 -0.41200
O 	O 	0.89698 0.71713 0.09947 -0.41200
C 	C 	0.91170 0.72386 0.17507 0.37800
C 	C 	0.95850 0.75595 0.18907 -0.14700
C 	C 	0.98560 0.77583 0.12247 0.09300
H 	H 	0.97493 0.77007 0.06397 0.01400
C 	C 	0.02913 0.80478 0.13667 -0.16700
H 	H 	0.04713 0.81937 0.08787 0.10100
C 	C 	0.04630 0.81253 0.21767 0.12600
C 	C 	0.01831 0.79385 0.28777 -0.16100
H 	H 	0.02913 0.80047 0.34607 0.08500
C 	C 	0.97488 0.76575 0.27417 0.08000
H 	H 	0.95623 0.75307 0.32307 0.01800
C 	C 	0.09324 0.83919 0.23577 -0.07400
C 	C 	0.11319 0.82062 0.28397 -0.04300
H 	H 	0.09663 0.79117 0.30017 0.04500
H 	H 	0.10323 0.94137 0.26637 0.08800
O 	O 	0.96182 0.51940 0.57812 -0.41200
O 	O 	0.94954 0.51319 0.43280 -0.41200
C 	C 	0.94281 0.52118 0.50840 0.37800
C 	C 	0.91072 0.53589 0.52240 -0.14700
C 	C 	0.89084 0.54311 0.45580 0.09300
H 	H 	0.89660 0.53820 0.39730 0.01400
C 	C 	0.86189 0.55769 0.47000 -0.16700
H 	H 	0.84730 0.56110 0.42120 0.10100
C 	C 	0.85414 0.56711 0.55100 0.12600
C 	C 	0.87282 0.55780 0.62110 -0.16100
H 	H 	0.86620 0.56200 0.67940 0.08500
C 	C 	0.90092 0.54247 0.60750 0.08000
H 	H 	0.91360 0.53650 0.65640 0.01800
C 	C 	0.82748 0.58739 0.56910 -0.07400
C 	C 	0.84605 0.62591 0.61730 -0.04300
H 	H 	0.87550 0.63880 0.63350 0.04500
H 	H 	0.72530 0.49520 0.59970 0.08800
O 	O 	0.62849 0.85273 0.91145 -0.41200
O 	O 	0.61621 0.84652 0.76613 -0.41200
C 	C 	0.60948 0.85451 0.84173 0.37800
C 	C 	0.57739 0.86922 0.85573 -0.14700
C 	C 	0.55751 0.87644 0.78913 0.09300
H 	H 	0.56327 0.87153 0.73063 0.01400
C 	C 	0.52856 0.89102 0.80333 -0.16700
H 	H 	0.51397 0.89443 0.75453 0.10100
C 	C 	0.52081 0.90044 0.88433 0.12600
C 	C 	0.53949 0.89113 0.95443 -0.16100
H 	H 	0.53287 0.89533 0.01273 0.08500
C 	C 	0.56759 0.87580 0.94083 0.08000
H 	H 	0.58027 0.86983 0.98973 0.01800
C 	C 	0.49415 0.92072 0.90243 -0.07300
C 	C 	0.51272 0.95924 0.95063 -0.04300
H 	H 	0.54217 0.97213 0.96683 0.04500
H 	H 	0.39197 0.82853 0.93303 0.08800
O 	O 	0.29515 0.18607 0.24479 -0.41200
O 	O 	0.28287 0.17986 0.09947 -0.41200
C 	C 	0.27614 0.18785 0.17507 0.37800
C 	C 	0.24405 0.20256 0.18907 -0.14700
C 	C 	0.22417 0.20978 0.12247 0.09300
H 	H 	0.22993 0.20487 0.06397 0.01400
C 	C 	0.19522 0.22436 0.13667 -0.16700
H 	H 	0.18063 0.22777 0.08787 0.10100
C 	C 	0.18747 0.23378 0.21767 0.12600
C 	C 	0.20615 0.22447 0.28777 -0.16100
H 	H 	0.19953 0.22867 0.34607 0.08500
C 	C 	0.23425 0.20914 0.27417 0.08000
H 	H 	0.24693 0.20317 0.32307 0.01800
C 	C 	0.16081 0.25406 0.23577 -0.07400
C 	C 	0.17938 0.29258 0.28397 -0.04300
H 	H 	0.20883 0.30547 0.30017 0.04500
H 	H 	0.05863 0.16187 0.26637 0.08800
O 	O 	0.48060 0.44242 0.57812 -0.41200
O 	O 	0.48681 0.43635 0.43280 -0.41200
C 	C 	0.47882 0.42163 0.50840 0.37800
C 	C 	0.46411 0.37483 0.52240 -0.14700
C 	C 	0.45689 0.34773 0.45580 0.09300
H 	H 	0.46180 0.35840 0.39730 0.01400
C 	C 	0.44231 0.30420 0.47000 -0.16700
H 	H 	0.43890 0.28620 0.42120 0.10100
C 	C 	0.43289 0.28703 0.55100 0.12600
C 	C 	0.44220 0.31502 0.62110 -0.16100
H 	H 	0.43800 0.30420 0.67940 0.08500
C 	C 	0.45753 0.35845 0.60750 0.08000
H 	H 	0.46350 0.37710 0.65640 0.01800
C 	C 	0.41261 0.24009 0.56910 -0.07400
C 	C 	0.37409 0.22014 0.61730 -0.04300
H 	H 	0.36120 0.23670 0.63350 0.04500
H 	H 	0.50480 0.23010 0.59970 0.08800
O 	O 	0.14727 0.77575 0.91145 -0.41200
O 	O 	0.15348 0.76968 0.76613 -0.41200
C 	C 	0.14549 0.75496 0.84173 0.37700
C 	C 	0.13078 0.70816 0.85573 -0.14700
C 	C 	0.12356 0.68106 0.78913 0.09300
H 	H 	0.12847 0.69173 0.73063 0.01400
C 	C 	0.10898 0.63753 0.80333 -0.16700
H 	H 	0.10557 0.61953 0.75453 0.10100
C 	C 	0.09956 0.62036 0.88433 0.12600
C 	C 	0.10887 0.64835 0.95443 -0.16100
H 	H 	0.10467 0.63753 0.01273 0.08500
C 	C 	0.12420 0.69178 0.94083 0.08000
H 	H 	0.13017 0.71043 0.98973 0.01800
C 	C 	0.07928 0.57342 0.90243 -0.07300
C 	C 	0.04076 0.55347 0.95063 -0.04300
H 	H 	0.02787 0.57003 0.96683 0.04500
H 	H 	0.17147 0.56343 0.93303 0.08800
O 	O 	0.81393 0.10909 0.24479 -0.41200
O 	O 	0.82014 0.10302 0.09947 -0.41200
C 	C 	0.81215 0.08830 0.17507 0.37800
C 	C 	0.79744 0.04150 0.18907 -0.14700
C 	C 	0.79022 0.01440 0.12247 0.09400
H 	H 	0.79513 0.02507 0.06397 0.01400
C 	C 	0.77564 0.97087 0.13667 -0.16700
H 	H 	0.77223 0.95287 0.08787 0.10100
C 	C 	0.76622 0.95370 0.21767 0.12600
C 	C 	0.77553 0.98169 0.28777 -0.16100
H 	H 	0.77133 0.97087 0.34607 0.08500
C 	C 	0.79086 0.02512 0.27417 0.08000
H 	H 	0.79683 0.04377 0.32307 0.01800
C 	C 	0.74594 0.90676 0.23577 -0.07400
C 	C 	0.70742 0.88681 0.28397 -0.04300
H 	H 	0.69453 0.90337 0.30017 0.04500
H 	H 	0.83813 0.89677 0.26637 0.08800
O 	O 	0.03818 0.55758 0.42188 -0.41200
O 	O 	0.05046 0.56365 0.56720 -0.41200
C 	C 	0.05719 0.57837 0.49160 0.37800
C 	C 	0.08928 0.62517 0.47760 -0.14700
C 	C 	0.10916 0.65227 0.54420 0.09300
H 	H 	0.10340 0.64160 0.60270 0.01400
C 	C 	0.13811 0.69580 0.53000 -0.16700
H 	H 	0.15270 0.71380 0.57880 0.10100
C 	C 	0.14586 0.71297 0.44900 0.12600
C 	C 	0.12718 0.68498 0.37890 -0.16100
H 	H 	0.13380 0.69580 0.32060 0.08500
C 	C 	0.09908 0.64155 0.39250 0.08000
H 	H 	0.08640 0.62290 0.34360 0.01800
C 	C 	0.17252 0.75991 0.43090 -0.07400
C 	C 	0.15395 0.77986 0.38270 -0.04300
H 	H 	0.12450 0.76330 0.36650 0.04500
H 	H 	0.27470 0.76990 0.40030 0.08800
O 	O 	0.70485 0.89091 0.75521 -0.41200
O 	O 	0.71713 0.89698 0.90053 -0.41200
C 	C 	0.72386 0.91170 0.82493 0.37800
C 	C 	0.75595 0.95850 0.81093 -0.14700
C 	C 	0.77583 0.98560 0.87753 0.09300
H 	H 	0.77007 0.97493 0.93603 0.01400
C 	C 	0.80478 0.02913 0.86333 -0.16700
H 	H 	0.81937 0.04713 0.91213 0.10100
C 	C 	0.81253 0.04630 0.78233 0.12600
C 	C 	0.79385 0.01831 0.71223 -0.16100
H 	H 	0.80047 0.02913 0.65393 0.08500
C 	C 	0.76575 0.97488 0.72583 0.08000
H 	H 	0.75307 0.95623 0.67693 0.01800
C 	C 	0.83919 0.09324 0.76423 -0.07400
C 	C 	0.82062 0.11319 0.71603 -0.04300
H 	H 	0.79117 0.09663 0.69983 0.04500
H 	H 	0.94137 0.10323 0.73363 0.08800
O 	O 	0.37151 0.22425 0.08855 -0.41200
O 	O 	0.38379 0.23032 0.23387 -0.41200
C 	C 	0.39052 0.24504 0.15827 0.37800
C 	C 	0.42261 0.29184 0.14427 -0.14700
C 	C 	0.44249 0.31894 0.21087 0.09300
H 	H 	0.43673 0.30827 0.26937 0.01400
C 	C 	0.47144 0.36247 0.19667 -0.16700
H 	H 	0.48603 0.38047 0.24547 0.10100
C 	C 	0.47919 0.37964 0.11567 0.12600
C 	C 	0.46051 0.35165 0.04557 -0.16100
H 	H 	0.46713 0.36247 0.98727 0.08500
C 	C 	0.43241 0.30822 0.05917 0.08000
H 	H 	0.41973 0.28957 0.01027 0.01800
C 	C 	0.50585 0.42658 0.09757 -0.07300
C 	C 	0.48728 0.44653 0.04937 -0.04300
H 	H 	0.45783 0.42997 0.03317 0.04500
H 	H 	0.60803 0.43657 0.06697 0.08800
O 	O 	0.51940 0.96182 0.42188 -0.41200
O 	O 	0.51319 0.94954 0.56720 -0.41200
C 	C 	0.52118 0.94281 0.49160 0.37800
C 	C 	0.53589 0.91072 0.47760 -0.14700
C 	C 	0.54311 0.89084 0.54420 0.09300
H 	H 	0.53820 0.89660 0.60270 0.01400
C 	C 	0.55769 0.86189 0.53000 -0.16700
H 	H 	0.56110 0.84730 0.57880 0.10100
C 	C 	0.56711 0.85414 0.44900 0.12600
C 	C 	0.55780 0.87282 0.37890 -0.16100
H 	H 	0.56200 0.86620 0.32060 0.08500
C 	C 	0.54247 0.90092 0.39250 0.08000
H 	H 	0.53650 0.91360 0.34360 0.01800
C 	C 	0.58739 0.82748 0.43090 -0.07400
C 	C 	0.62591 0.84605 0.38270 -0.04300
H 	H 	0.63880 0.87550 0.36650 0.04500
H 	H 	0.49520 0.72530 0.40030 0.08800
O 	O 	0.18607 0.29515 0.75521 -0.41200
O 	O 	0.17986 0.28287 0.90053 -0.41200
C 	C 	0.18785 0.27614 0.82493 0.37800
C 	C 	0.20256 0.24405 0.81093 -0.14700
C 	C 	0.20978 0.22417 0.87753 0.09300
H 	H 	0.20487 0.22993 0.93603 0.01400
C 	C 	0.22436 0.19522 0.86333 -0.16700
H 	H 	0.22777 0.18063 0.91213 0.10100
C 	C 	0.23378 0.18747 0.78233 0.12600
C 	C 	0.22447 0.20615 0.71223 -0.16100
H 	H 	0.22867 0.19953 0.65393 0.08500
C 	C 	0.20914 0.23425 0.72583 0.08000
H 	H 	0.20317 0.24693 0.67693 0.01800
C 	C 	0.25406 0.16081 0.76423 -0.07400
C 	C 	0.29258 0.17938 0.71603 -0.04300
H 	H 	0.30547 0.20883 0.69983 0.04500
H 	H 	0.16187 0.05863 0.73363 0.08800
O 	O 	0.85273 0.62849 0.08855 -0.41200
O 	O 	0.84652 0.61621 0.23387 -0.41200
C 	C 	0.85451 0.60948 0.15827 0.37800
C 	C 	0.86922 0.57739 0.14427 -0.14700
C 	C 	0.87644 0.55751 0.21087 0.09300
H 	H 	0.87153 0.56327 0.26937 0.01400
C 	C 	0.89102 0.52856 0.19667 -0.16700
H 	H 	0.89443 0.51397 0.24547 0.10100
C 	C 	0.90044 0.52081 0.11567 0.12600
C 	C 	0.89113 0.53949 0.04557 -0.16100
H 	H 	0.89533 0.53287 0.98727 0.08500
C 	C 	0.87580 0.56759 0.05917 0.08000
H 	H 	0.86983 0.58027 0.01027 0.01800
C 	C 	0.92072 0.49415 0.09757 -0.07300
C 	C 	0.95924 0.51272 0.04937 -0.04300
H 	H 	0.97213 0.54217 0.03317 0.04500
H 	H 	0.82853 0.39197 0.06697 0.08800
O 	O 	0.44242 0.48060 0.42188 -0.41200
O 	O 	0.43635 0.48681 0.56720 -0.41200
C 	C 	0.42163 0.47882 0.49160 0.37800
C 	C 	0.37483 0.46411 0.47760 -0.14700
C 	C 	0.34773 0.45689 0.54420 0.09300
H 	H 	0.35840 0.46180 0.60270 0.01400
C 	C 	0.30420 0.44231 0.53000 -0.16700
H 	H 	0.28620 0.43890 0.57880 0.10100
C 	C 	0.28703 0.43289 0.44900 0.12600
C 	C 	0.31502 0.44220 0.37890 -0.16100
H 	H 	0.30420 0.43800 0.32060 0.08500
C 	C 	0.35845 0.45753 0.39250 0.08000
H 	H 	0.37710 0.46350 0.34360 0.01800
C 	C 	0.24009 0.41261 0.43090 -0.07400
C 	C 	0.22014 0.37409 0.38270 -0.04300
H 	H 	0.23670 0.36120 0.36650 0.04500
H 	H 	0.23010 0.50480 0.40030 0.08800
O 	O 	0.10909 0.81393 0.75521 -0.41200
O 	O 	0.10302 0.82014 0.90053 -0.41200
C 	C 	0.08830 0.81215 0.82493 0.37800
C 	C 	0.04150 0.79744 0.81093 -0.14700
C 	C 	0.01440 0.79022 0.87753 0.09400
H 	H 	0.02507 0.79513 0.93603 0.01400
C 	C 	0.97087 0.77564 0.86333 -0.16700
H 	H 	0.95287 0.77223 0.91213 0.10100
C 	C 	0.95370 0.76622 0.78233 0.12600
C 	C 	0.98169 0.77553 0.71223 -0.16100
H 	H 	0.97087 0.77133 0.65393 0.08500
C 	C 	0.02512 0.79086 0.72583 0.08000
H 	H 	0.04377 0.79683 0.67693 0.01800
C 	C 	0.90676 0.74594 0.76423 -0.07400
C 	C 	0.88681 0.70742 0.71603 -0.04300
H 	H 	0.90337 0.69453 0.69983 0.04500
H 	H 	0.89677 0.83813 0.73363 0.08800
O 	O 	0.77575 0.14727 0.08855 -0.41200
O 	O 	0.76968 0.15348 0.23387 -0.41200
C 	C 	0.75496 0.14549 0.15827 0.37700
C 	C 	0.70816 0.13078 0.14427 -0.14700
C 	C 	0.68106 0.12356 0.21087 0.09300
H 	H 	0.69173 0.12847 0.26937 0.01400
C 	C 	0.63753 0.10898 0.19667 -0.16700
H 	H 	0.61953 0.10557 0.24547 0.10100
C 	C 	0.62036 0.09956 0.11567 0.12600
C 	C 	0.64835 0.10887 0.04557 -0.16100
H 	H 	0.63753 0.10467 0.98727 0.08500
C 	C 	0.69178 0.12420 0.05917 0.08000
H 	H 	0.71043 0.13017 0.01027 0.01800
C 	C 	0.57342 0.07928 0.09757 -0.07300
C 	C 	0.55347 0.04076 0.04937 -0.04300
H 	H 	0.57003 0.02787 0.03317 0.04500
H 	H 	0.56343 0.17147 0.06697 0.08800
O 	O 	0.44242 0.96182 0.42188 -0.41200
O 	O 	0.43635 0.94954 0.56720 -0.41200
C 	C 	0.42163 0.94281 0.49160 0.37800
C 	C 	0.37483 0.91072 0.47760 -0.14700
C 	C 	0.34773 0.89084 0.54420 0.09300
H 	H 	0.35840 0.89660 0.60270 0.01400
C 	C 	0.30420 0.86189 0.53000 -0.16700
H 	H 	0.28620 0.84730 0.57880 0.10100
C 	C 	0.28703 0.85414 0.44900 0.12600
C 	C 	0.31502 0.87282 0.37890 -0.16100
H 	H 	0.30420 0.86620 0.32060 0.08500
C 	C 	0.35845 0.90092 0.39250 0.08000
H 	H 	0.37710 0.91360 0.34360 0.01800
C 	C 	0.24009 0.82748 0.43090 -0.07400
C 	C 	0.22014 0.84605 0.38270 -0.04300
H 	H 	0.23670 0.87550 0.36650 0.04500
H 	H 	0.23010 0.72530 0.40030 0.08800
O 	O 	0.10909 0.29515 0.75521 -0.41200
O 	O 	0.10302 0.28287 0.90053 -0.41200
C 	C 	0.08830 0.27614 0.82493 0.37800
C 	C 	0.04150 0.24405 0.81093 -0.14700
C 	C 	0.01440 0.22417 0.87753 0.09300
H 	H 	0.02507 0.22993 0.93603 0.01400
C 	C 	0.97087 0.19522 0.86333 -0.16700
H 	H 	0.95287 0.18063 0.91213 0.10100
C 	C 	0.95370 0.18747 0.78233 0.12600
C 	C 	0.98169 0.20615 0.71223 -0.16100
H 	H 	0.97087 0.19953 0.65393 0.08500
C 	C 	0.02512 0.23425 0.72583 0.08000
H 	H 	0.04377 0.24693 0.67693 0.01800
C 	C 	0.90676 0.16081 0.76423 -0.07400
C 	C 	0.88681 0.17938 0.71603 -0.04300
H 	H 	0.90337 0.20883 0.69983 0.04500
H 	H 	0.89677 0.05863 0.73363 0.08800
O 	O 	0.77575 0.62849 0.08855 -0.41200
O 	O 	0.76968 0.61621 0.23387 -0.41200
C 	C 	0.75496 0.60948 0.15827 0.37800
C 	C 	0.70816 0.57739 0.14427 -0.14700
C 	C 	0.68106 0.55751 0.21087 0.09300
H 	H 	0.69173 0.56327 0.26937 0.01400
C 	C 	0.63753 0.52856 0.19667 -0.16700
H 	H 	0.61953 0.51397 0.24547 0.10100
C 	C 	0.62036 0.52081 0.11567 0.12600
C 	C 	0.64835 0.53949 0.04557 -0.16100
H 	H 	0.63753 0.53287 0.98727 0.08500
C 	C 	0.69178 0.56759 0.05917 0.08000
H 	H 	0.71043 0.58027 0.01027 0.01800
C 	C 	0.57342 0.49415 0.09757 -0.07300
C 	C 	0.55347 0.51272 0.04937 -0.04300
H 	H 	0.57003 0.54217 0.03317 0.04500
H 	H 	0.56343 0.39197 0.06697 0.08800
O 	O 	0.03818 0.48060 0.42188 -0.41200
O 	O 	0.05046 0.48681 0.56720 -0.41200
C 	C 	0.05719 0.47882 0.49160 0.37800
C 	C 	0.08928 0.46411 0.47760 -0.14700
C 	C 	0.10916 0.45689 0.54420 0.09300
H 	H 	0.10340 0.46180 0.60270 0.01400
C 	C 	0.13811 0.44231 0.53000 -0.16700
H 	H 	0.15270 0.43890 0.57880 0.10100
C 	C 	0.14586 0.43289 0.44900 0.12600
C 	C 	0.12718 0.44220 0.37890 -0.16100
H 	H 	0.13380 0.43800 0.32060 0.08500
C 	C 	0.09908 0.45753 0.39250 0.08000
H 	H 	0.08640 0.46350 0.34360 0.01800
C 	C 	0.17252 0.41261 0.43090 -0.07400
C 	C 	0.15395 0.37409 0.38270 -0.04300
H 	H 	0.12450 0.36120 0.36650 0.04500
H 	H 	0.27470 0.50480 0.40030 0.08800
O 	O 	0.70485 0.81393 0.75521 -0.41200
O 	O 	0.71713 0.82014 0.90053 -0.41200
C 	C 	0.72386 0.81215 0.82493 0.37800
C 	C 	0.75595 0.79744 0.81093 -0.14700
C 	C 	0.77583 0.79022 0.87753 0.09300
H 	H 	0.77007 0.79513 0.93603 0.01400
C 	C 	0.80478 0.77564 0.86333 -0.16700
H 	H 	0.81937 0.77223 0.91213 0.10100
C 	C 	0.81253 0.76622 0.78233 0.12600
C 	C 	0.79385 0.77553 0.71223 -0.16100
H 	H 	0.80047 0.77133 0.65393 0.08500
C 	C 	0.76575 0.79086 0.72583 0.08000
H 	H 	0.75307 0.79683 0.67693 0.01800
C 	C 	0.83919 0.74594 0.76423 -0.07400
C 	C 	0.82062 0.70742 0.71603 -0.04300
H 	H 	0.79117 0.69453 0.69983 0.04500
H 	H 	0.94137 0.83813 0.73363 0.08800
O 	O 	0.37151 0.14727 0.08855 -0.41200
O 	O 	0.38379 0.15348 0.23387 -0.41200
C 	C 	0.39052 0.14549 0.15827 0.37800
C 	C 	0.42261 0.13078 0.14427 -0.14700
C 	C 	0.44249 0.12356 0.21087 0.09300
H 	H 	0.43673 0.12847 0.26937 0.01400
C 	C 	0.47144 0.10898 0.19667 -0.16700
H 	H 	0.48603 0.10557 0.24547 0.10100
C 	C 	0.47919 0.09956 0.11567 0.12600
C 	C 	0.46051 0.10887 0.04557 -0.16100
H 	H 	0.46713 0.10467 0.98727 0.08500
C 	C 	0.43241 0.12420 0.05917 0.08000
H 	H 	0.41973 0.13017 0.01027 0.01800
C 	C 	0.50585 0.07928 0.09757 -0.07300
C 	C 	0.48728 0.04076 0.04937 -0.04300
H 	H 	0.45783 0.02787 0.03317 0.04500
H 	H 	0.60803 0.17147 0.06697 0.08800
O 	O 	0.51940 0.55758 0.42188 -0.41200
O 	O 	0.51319 0.56365 0.56720 -0.41200
C 	C 	0.52118 0.57837 0.49160 0.37800
C 	C 	0.53589 0.62517 0.47760 -0.14700
C 	C 	0.54311 0.65227 0.54420 0.09300
H 	H 	0.53820 0.64160 0.60270 0.01400
C 	C 	0.55769 0.69580 0.53000 -0.16700
H 	H 	0.56110 0.71380 0.57880 0.10100
C 	C 	0.56711 0.71297 0.44900 0.12600
C 	C 	0.55780 0.68498 0.37890 -0.16100
H 	H 	0.56200 0.69580 0.32060 0.08500
C 	C 	0.54247 0.64155 0.39250 0.08000
H 	H 	0.53650 0.62290 0.34360 0.01800
C 	C 	0.58739 0.75991 0.43090 -0.07400
C 	C 	0.62591 0.77986 0.38270 -0.04300
H 	H 	0.63880 0.76330 0.36650 0.04500
H 	H 	0.49520 0.76990 0.40030 0.08800
O 	O 	0.18607 0.89091 0.75521 -0.41200
O 	O 	0.17986 0.89698 0.90053 -0.41200
C 	C 	0.18785 0.91170 0.82493 0.37800
C 	C 	0.20256 0.95850 0.81093 -0.14700
C 	C 	0.20978 0.98560 0.87753 0.09400
H 	H 	0.20487 0.97493 0.93603 0.01400
C 	C 	0.22436 0.02913 0.86333 -0.16700
H 	H 	0.22777 0.04713 0.91213 0.10100
C 	C 	0.23378 0.04630 0.78233 0.12600
C 	C 	0.22447 0.01831 0.71223 -0.16100
H 	H 	0.22867 0.02913 0.65393 0.08500
C 	C 	0.20914 0.97488 0.72583 0.08000
H 	H 	0.20317 0.95623 0.67693 0.01800
C 	C 	0.25406 0.09324 0.76423 -0.07400
C 	C 	0.29258 0.11319 0.71603 -0.04300
H 	H 	0.30547 0.09663 0.69983 0.04500
H 	H 	0.16187 0.10323 0.73363 0.08800
O 	O 	0.85273 0.22425 0.08855 -0.41200
O 	O 	0.84652 0.23032 0.23387 -0.41200
C 	C 	0.85451 0.24504 0.15827 0.37700
C 	C 	0.86922 0.29184 0.14427 -0.14700
C 	C 	0.87644 0.31894 0.21087 0.09300
H 	H 	0.87153 0.30827 0.26937 0.01400
C 	C 	0.89102 0.36247 0.19667 -0.16700
H 	H 	0.89443 0.38047 0.24547 0.10100
C 	C 	0.90044 0.37964 0.11567 0.12600
C 	C 	0.89113 0.35165 0.04557 -0.16100
H 	H 	0.89533 0.36247 0.98727 0.08500
C 	C 	0.87580 0.30822 0.05917 0.08000
H 	H 	0.86983 0.28957 0.01027 0.01800
C 	C 	0.92072 0.42658 0.09757 -0.07300
C 	C 	0.95924 0.44653 0.04937 -0.04300
H 	H 	0.97213 0.42997 0.03317 0.04500
H 	H 	0.82853 0.43657 0.06697 0.08800
O 	O 	0.96182 0.44242 0.57812 -0.41200
O 	O 	0.94954 0.43635 0.43280 -0.41200
C 	C 	0.94281 0.42163 0.50840 0.37800
C 	C 	0.91072 0.37483 0.52240 -0.14700
C 	C 	0.89084 0.34773 0.45580 0.09300
H 	H 	0.89660 0.35840 0.39730 0.01400
C 	C 	0.86189 0.30420 0.47000 -0.16700
H 	H 	0.84730 0.28620 0.42120 0.10100
C 	C 	0.85414 0.28703 0.55100 0.12600
C 	C 	0.87282 0.31502 0.62110 -0.16100
H 	H 	0.86620 0.30420 0.67940 0.08500
C 	C 	0.90092 0.35845 0.60750 0.08000
H 	H 	0.91360 0.37710 0.65640 0.01800
C 	C 	0.82748 0.24009 0.56910 -0.07400
C 	C 	0.84605 0.22014 0.61730 -0.04300
H 	H 	0.87550 0.23670 0.63350 0.04500
H 	H 	0.72530 0.23010 0.59970 0.08800
O 	O 	0.62849 0.77575 0.91145 -0.41200
O 	O 	0.61621 0.76968 0.76613 -0.41200
C 	C 	0.60948 0.75496 0.84173 0.37800
C 	C 	0.57739 0.70816 0.85573 -0.14700
C 	C 	0.55751 0.68106 0.78913 0.09300
H 	H 	0.56327 0.69173 0.73063 0.01400
C 	C 	0.52856 0.63753 0.80333 -0.16700
H 	H 	0.51397 0.61953 0.75453 0.10100
C 	C 	0.52081 0.62036 0.88433 0.12600
C 	C 	0.53949 0.64835 0.95443 -0.16100
H 	H 	0.53287 0.63753 0.01273 0.08500
C 	C 	0.56759 0.69178 0.94083 0.08000
H 	H 	0.58027 0.71043 0.98973 0.01800
C 	C 	0.49415 0.57342 0.90243 -0.07300
C 	C 	0.51272 0.55347 0.95063 -0.04300
H 	H 	0.54217 0.57003 0.96683 0.04500
H 	H 	0.39197 0.56343 0.93303 0.08800
O 	O 	0.29515 0.10909 0.24479 -0.41200
O 	O 	0.28287 0.10302 0.09947 -0.41200
C 	C 	0.27614 0.08830 0.17507 0.37800
C 	C 	0.24405 0.04150 0.18907 -0.14700
C 	C 	0.22417 0.01440 0.12247 0.09300
H 	H 	0.22993 0.02507 0.06397 0.01400
C 	C 	0.19522 0.97087 0.13667 -0.16700
H 	H 	0.18063 0.95287 0.08787 0.10100
C 	C 	0.18747 0.95370 0.21767 0.12600
C 	C 	0.20615 0.98169 0.28777 -0.16100
H 	H 	0.19953 0.97087 0.34607 0.08500
C 	C 	0.23425 0.02512 0.27417 0.08000
H 	H 	0.24693 0.04377 0.32307 0.01800
C 	C 	0.16081 0.90676 0.23577 -0.07400
C 	C 	0.17938 0.88681 0.28397 -0.04300
H 	H 	0.20883 0.90337 0.30017 0.04500
H 	H 	0.05863 0.89677 0.26637 0.08800
O 	O 	0.48060 0.03818 0.57812 -0.41200
O 	O 	0.48681 0.05046 0.43280 -0.41200
C 	C 	0.47882 0.05719 0.50840 0.37800
C 	C 	0.46411 0.08928 0.52240 -0.14700
C 	C 	0.45689 0.10916 0.45580 0.09300
H 	H 	0.46180 0.10340 0.39730 0.01400
C 	C 	0.44231 0.13811 0.47000 -0.16700
H 	H 	0.43890 0.15270 0.42120 0.10100
C 	C 	0.43289 0.14586 0.55100 0.12600
C 	C 	0.44220 0.12718 0.62110 -0.16100
H 	H 	0.43800 0.13380 0.67940 0.08500
C 	C 	0.45753 0.09908 0.60750 0.08000
H 	H 	0.46350 0.08640 0.65640 0.01800
C 	C 	0.41261 0.17252 0.56910 -0.07400
C 	C 	0.37409 0.15395 0.61730 -0.04300
H 	H 	0.36120 0.12450 0.63350 0.04500
H 	H 	0.50480 0.27470 0.59970 0.08800
O 	O 	0.14727 0.37151 0.91145 -0.41200
O 	O 	0.15348 0.38379 0.76613 -0.41200
C 	C 	0.14549 0.39052 0.84173 0.37800
C 	C 	0.13078 0.42261 0.85573 -0.14700
C 	C 	0.12356 0.44249 0.78913 0.09300
H 	H 	0.12847 0.43673 0.73063 0.01400
C 	C 	0.10898 0.47144 0.80333 -0.16700
H 	H 	0.10557 0.48603 0.75453 0.10100
C 	C 	0.09956 0.47919 0.88433 0.12600
C 	C 	0.10887 0.46051 0.95443 -0.16100
H 	H 	0.10467 0.46713 0.01273 0.08500
C 	C 	0.12420 0.43241 0.94083 0.08000
H 	H 	0.13017 0.41973 0.98973 0.01800
C 	C 	0.07928 0.50585 0.90243 -0.07300
C 	C 	0.04076 0.48728 0.95063 -0.04300
H 	H 	0.02787 0.45783 0.96683 0.04500
H 	H 	0.17147 0.60803 0.93303 0.08800
O 	O 	0.81393 0.70485 0.24479 -0.41200
O 	O 	0.82014 0.71713 0.09947 -0.41200
C 	C 	0.81215 0.72386 0.17507 0.37800
C 	C 	0.79744 0.75595 0.18907 -0.14700
C 	C 	0.79022 0.77583 0.12247 0.09300
H 	H 	0.79513 0.77007 0.06397 0.01400
C 	C 	0.77564 0.80478 0.13667 -0.16700
H 	H 	0.77223 0.81937 0.08787 0.10100
C 	C 	0.76622 0.81253 0.21767 0.12600
C 	C 	0.77553 0.79385 0.28777 -0.16100
H 	H 	0.77133 0.80047 0.34607 0.08500
C 	C 	0.79086 0.76575 0.27417 0.08000
H 	H 	0.79683 0.75307 0.32307 0.01800
C 	C 	0.74594 0.83919 0.23577 -0.07400
C 	C 	0.70742 0.82062 0.28397 -0.04300
H 	H 	0.69453 0.79117 0.30017 0.04500
H 	H 	0.83813 0.94137 0.26637 0.08800
O 	O 	0.55758 0.51940 0.57812 -0.41200
O 	O 	0.56365 0.51319 0.43280 -0.41200
C 	C 	0.57837 0.52118 0.50840 0.37800
C 	C 	0.62517 0.53589 0.52240 -0.14700
C 	C 	0.65227 0.54311 0.45580 0.09300
H 	H 	0.64160 0.53820 0.39730 0.01400
C 	C 	0.69580 0.55769 0.47000 -0.16700
H 	H 	0.71380 0.56110 0.42120 0.10100
C 	C 	0.71297 0.56711 0.55100 0.12600
C 	C 	0.68498 0.55780 0.62110 -0.16100
H 	H 	0.69580 0.56200 0.67940 0.08500
C 	C 	0.64155 0.54247 0.60750 0.08000
H 	H 	0.62290 0.53650 0.65640 0.01800
C 	C 	0.75991 0.58739 0.56910 -0.07400
C 	C 	0.77986 0.62591 0.61730 -0.04300
H 	H 	0.76330 0.63880 0.63350 0.04500
H 	H 	0.76990 0.49520 0.59970 0.08800
O 	O 	0.22425 0.85273 0.91145 -0.41200
O 	O 	0.23032 0.84652 0.76613 -0.41200
C 	C 	0.24504 0.85451 0.84173 0.37700
C 	C 	0.29184 0.86922 0.85573 -0.14700
C 	C 	0.31894 0.87644 0.78913 0.09300
H 	H 	0.30827 0.87153 0.73063 0.01400
C 	C 	0.36247 0.89102 0.80333 -0.16700
H 	H 	0.38047 0.89443 0.75453 0.10100
C 	C 	0.37964 0.90044 0.88433 0.12600
C 	C 	0.35165 0.89113 0.95443 -0.16100
H 	H 	0.36247 0.89533 0.01273 0.08500
C 	C 	0.30822 0.87580 0.94083 0.08000
H 	H 	0.28957 0.86983 0.98973 0.01800
C 	C 	0.42658 0.92072 0.90243 -0.07300
C 	C 	0.44653 0.95924 0.95063 -0.04300
H 	H 	0.42997 0.97213 0.96683 0.04500
H 	H 	0.43657 0.82853 0.93303 0.08800
O 	O 	0.89091 0.18607 0.24479 -0.41200
O 	O 	0.89698 0.17986 0.09947 -0.41200
C 	C 	0.91170 0.18785 0.17507 0.37800
C 	C 	0.95850 0.20256 0.18907 -0.14700
C 	C 	0.98560 0.20978 0.12247 0.09400
H 	H 	0.97493 0.20487 0.06397 0.01400
C 	C 	0.02913 0.22436 0.13667 -0.16700
H 	H 	0.04713 0.22777 0.08787 0.10100
C 	C 	0.04630 0.23378 0.21767 0.12600
C 	C 	0.01831 0.22447 0.28777 -0.16100
H 	H 	0.02913 0.22867 0.34607 0.08500
C 	C 	0.97488 0.20914 0.27417 0.08000
H 	H 	0.95623 0.20317 0.32307 0.01800
C 	C 	0.09324 0.25406 0.23577 -0.07400
C 	C 	0.11319 0.29258 0.28397 -0.04300
H 	H 	0.09663 0.30547 0.30017 0.04500
H 	H 	0.10323 0.16187 0.26637 0.08800
Cu	Cu	0.50335 0.00669 0.41408 0.90600
Cu	Cu	0.17001 0.34002 0.74741 0.90600
Cu	Cu	0.83668 0.67336 0.08075 0.90600
Cu	Cu	0.99331 0.49665 0.41408 0.90600
Cu	Cu	0.65998 0.82999 0.74741 0.90600
Cu	Cu	0.32664 0.16332 0.08075 0.90600
Cu	Cu	0.50335 0.49665 0.41408 0.90600
Cu	Cu	0.17001 0.82999 0.74741 0.90600
Cu	Cu	0.83668 0.16332 0.08075 0.90600
Cu	Cu	0.00669 0.50335 0.58592 0.90600
Cu	Cu	0.67336 0.83668 0.91925 0.90600
Cu	Cu	0.34002 0.17001 0.25259 0.90600
Cu	Cu	0.49665 0.99331 0.58592 0.90600
Cu	Cu	0.16332 0.32664 0.91925 0.90600
Cu	Cu	0.82999 0.65998 0.25259 0.90600
Cu	Cu	0.49665 0.50335 0.58592 0.90600
Cu	Cu	0.16332 0.83668 0.91925 0.90600
Cu	Cu	0.82999 0.17001 0.25259 0.90600
O 	O 	0.76509 0.23491 0.49960 -0.17300
C 	C 	0.82296 0.17704 0.64220 0.00400
C 	C 	0.78448 0.21552 0.54550 0.12500
C 	C 	0.74682 0.25318 0.56260 -0.18000
H 	H 	0.73320 0.26680 0.53010 0.09200
O 	O 	0.43176 0.56824 0.83293 -0.17300
C 	C 	0.48963 0.51037 0.97553 0.00400
C 	C 	0.45115 0.54885 0.87883 0.12400
C 	C 	0.41349 0.58651 0.89593 -0.18000
H 	H 	0.39987 0.60013 0.86343 0.09200
O 	O 	0.09842 0.90158 0.16627 -0.17300
C 	C 	0.15629 0.84371 0.30887 0.00400
C 	C 	0.11781 0.88219 0.21217 0.12400
C 	C 	0.08015 0.91985 0.22927 -0.18000
H 	H 	0.06653 0.93347 0.19677 0.09200
O 	O 	0.76509 0.53018 0.49960 -0.17300
C 	C 	0.82296 0.64592 0.64220 0.00400
C 	C 	0.78448 0.56896 0.54550 0.12500
C 	C 	0.74682 0.49364 0.56260 -0.18000
H 	H 	0.73320 0.46640 0.53010 0.09200
O 	O 	0.43176 0.86351 0.83293 -0.17300
C 	C 	0.48963 0.97925 0.97553 0.00400
C 	C 	0.45115 0.90229 0.87883 0.12400
C 	C 	0.41349 0.82697 0.89593 -0.18000
H 	H 	0.39987 0.79973 0.86343 0.09200
O 	O 	0.09842 0.19685 0.16627 -0.17300
C 	C 	0.15629 0.31259 0.30887 0.00400
C 	C 	0.11781 0.23563 0.21217 0.12500
C 	C 	0.08015 0.16031 0.22927 -0.18000
H 	H 	0.06653 0.13307 0.19677 0.09200
O 	O 	0.46982 0.23491 0.49960 -0.17300
C 	C 	0.35408 0.17704 0.64220 0.00400
C 	C 	0.43104 0.21552 0.54550 0.12500
C 	C 	0.50636 0.25318 0.56260 -0.18000
H 	H 	0.53360 0.26680 0.53010 0.09200
O 	O 	0.13649 0.56824 0.83293 -0.17300
C 	C 	0.02075 0.51037 0.97553 0.00400
C 	C 	0.09771 0.54885 0.87883 0.12400
C 	C 	0.17303 0.58651 0.89593 -0.18000
H 	H 	0.20027 0.60013 0.86343 0.09200
O 	O 	0.80315 0.90158 0.16627 -0.17300
C 	C 	0.68741 0.84371 0.30887 0.00400
C 	C 	0.76437 0.88219 0.21217 0.12500
C 	C 	0.83969 0.91985 0.22927 -0.18000
H 	H 	0.86693 0.93347 0.19677 0.09200
O 	O 	0.23491 0.76509 0.50040 -0.17300
C 	C 	0.17704 0.82296 0.35780 0.00400
C 	C 	0.21552 0.78448 0.45450 0.12500
C 	C 	0.25318 0.74682 0.43740 -0.18000
H 	H 	0.26680 0.73320 0.46990 0.09200
O 	O 	0.90158 0.09842 0.83373 -0.17300
C 	C 	0.84371 0.15629 0.69113 0.00400
C 	C 	0.88219 0.11781 0.78783 0.12400
C 	C 	0.91985 0.08015 0.77073 -0.18000
H 	H 	0.93347 0.06653 0.80323 0.09200
O 	O 	0.56824 0.43176 0.16707 -0.17300
C 	C 	0.51037 0.48963 0.02447 0.00400
C 	C 	0.54885 0.45115 0.12117 0.12400
C 	C 	0.58651 0.41349 0.10407 -0.18000
H 	H 	0.60013 0.39987 0.13657 0.09200
O 	O 	0.53018 0.76509 0.50040 -0.17300
C 	C 	0.64592 0.82296 0.35780 0.00400
C 	C 	0.56896 0.78448 0.45450 0.12500
C 	C 	0.49364 0.74682 0.43740 -0.18000
H 	H 	0.46640 0.73320 0.46990 0.09200
O 	O 	0.19685 0.09842 0.83373 -0.17300
C 	C 	0.31259 0.15629 0.69113 0.00400
C 	C 	0.23563 0.11781 0.78783 0.12500
C 	C 	0.16031 0.08015 0.77073 -0.18000
H 	H 	0.13307 0.06653 0.80323 0.09200
O 	O 	0.86351 0.43176 0.16707 -0.17300
C 	C 	0.97925 0.48963 0.02447 0.00400
C 	C 	0.90229 0.45115 0.12117 0.12400
C 	C 	0.82697 0.41349 0.10407 -0.18000
H 	H 	0.79973 0.39987 0.13657 0.09200
O 	O 	0.23491 0.46982 0.50040 -0.17300
C 	C 	0.17704 0.35408 0.35780 0.00400
C 	C 	0.21552 0.43104 0.45450 0.12500
C 	C 	0.25318 0.50636 0.43740 -0.18000
H 	H 	0.26680 0.53360 0.46990 0.09200
O 	O 	0.90158 0.80315 0.83373 -0.17300
C 	C 	0.84371 0.68741 0.69113 0.00400
C 	C 	0.88219 0.76437 0.78783 0.12500
C 	C 	0.91985 0.83969 0.77073 -0.18000
H 	H 	0.93347 0.86693 0.80323 0.09200
O 	O 	0.56824 0.13649 0.16707 -0.17300
C 	C 	0.51037 0.02075 0.02447 0.00400
C 	C 	0.54885 0.09771 0.12117 0.12400
C 	C 	0.58651 0.17303 0.10407 -0.18000
H 	H 	0.60013 0.20027 0.13657 0.09200
