data_crystal

_cell_length_a 35.79680
_cell_length_b 35.79680
_cell_length_c 15.04500
_cell_angle_alpha 90.00000
_cell_angle_beta  90.00000
_cell_angle_gamma 120.00000

_symmetry_space_group_name_	'P 1'
_symmetry_space_group_name_H-M	'P 1'

loop_
_symmetry_equiv_pos_as_xyz
  x,y,z

loop_
_atom_site_label
_atom_site_type_symbol
_atom_site_fract_x
_atom_site_fract_y
_atom_site_fract_z
_atom_site_charge
O 	O 	0.55771 0.51916 0.58000 -0.41200
O 	O 	0.56398 0.51357 0.43200 -0.41300
C 	C 	0.57840 0.52155 0.50850 0.37600
C 	C 	0.62527 0.53587 0.52150 -0.15900
C 	C 	0.65237 0.54340 0.45530 0.11900
H 	H 	0.64180 0.53840 0.39740 0.00300
C 	C 	0.69560 0.55820 0.46830 -0.19900
H 	H 	0.71310 0.56200 0.41960 0.11400
C 	C 	0.71307 0.56744 0.55010 0.14100
C 	C 	0.68572 0.55840 0.62270 -0.17600
H 	H 	0.69670 0.56290 0.68020 0.09100
C 	C 	0.64122 0.54242 0.60860 0.08400
H 	H 	0.62270 0.53630 0.65660 0.01600
C 	C 	0.75992 0.58742 0.56900 -0.08100
C 	C 	0.77994 0.62609 0.61670 -0.04500
H 	H 	0.76390 0.63900 0.63180 0.04600
H 	H 	0.72590 0.49560 0.60630 0.11700
O 	O 	0.22438 0.85249 0.91333 -0.41200
O 	O 	0.23065 0.84690 0.76533 -0.41300
C 	C 	0.24507 0.85488 0.84183 0.37600
C 	C 	0.29194 0.86920 0.85483 -0.15900
C 	C 	0.31904 0.87673 0.78863 0.11900
H 	H 	0.30847 0.87173 0.73073 0.00300
C 	C 	0.36227 0.89153 0.80163 -0.19900
H 	H 	0.37977 0.89533 0.75293 0.11400
C 	C 	0.37974 0.90077 0.88343 0.14100
C 	C 	0.35239 0.89173 0.95603 -0.17500
H 	H 	0.36337 0.89623 0.01353 0.09100
C 	C 	0.30789 0.87575 0.94193 0.08400
H 	H 	0.28937 0.86963 0.98993 0.01600
C 	C 	0.42659 0.92075 0.90233 -0.08000
C 	C 	0.44661 0.95942 0.95003 -0.04400
H 	H 	0.43057 0.97233 0.96513 0.04700
H 	H 	0.39257 0.82893 0.93963 0.11800
O 	O 	0.89104 0.18583 0.24667 -0.41100
O 	O 	0.89731 0.18024 0.09867 -0.41200
C 	C 	0.91173 0.18822 0.17517 0.37700
C 	C 	0.95860 0.20254 0.18817 -0.15800
C 	C 	0.98570 0.21007 0.12197 0.12000
H 	H 	0.97513 0.20507 0.06407 0.00400
C 	C 	0.02893 0.22487 0.13497 -0.19800
H 	H 	0.04643 0.22867 0.08627 0.11500
C 	C 	0.04640 0.23411 0.21677 0.14200
C 	C 	0.01905 0.22507 0.28937 -0.17500
H 	H 	0.03003 0.22957 0.34687 0.09200
C 	C 	0.97455 0.20909 0.27527 0.08600
H 	H 	0.95603 0.20297 0.32327 0.01700
C 	C 	0.09325 0.25409 0.23567 -0.08000
C 	C 	0.11327 0.29276 0.28337 -0.04400
H 	H 	0.09723 0.30567 0.29847 0.04700
H 	H 	0.05923 0.16227 0.27297 0.11800
O 	O 	0.48084 0.03855 0.58000 -0.41100
O 	O 	0.48643 0.05041 0.43200 -0.41200
C 	C 	0.47845 0.05685 0.50850 0.37700
C 	C 	0.46413 0.08940 0.52150 -0.15800
C 	C 	0.45660 0.10897 0.45530 0.12000
H 	H 	0.46160 0.10340 0.39740 0.00400
C 	C 	0.44180 0.13740 0.46830 -0.19800
H 	H 	0.43800 0.15110 0.41960 0.11500
C 	C 	0.43256 0.14563 0.55010 0.14200
C 	C 	0.44160 0.12732 0.62270 -0.17500
H 	H 	0.43710 0.13380 0.68020 0.09200
C 	C 	0.45758 0.09880 0.60860 0.08500
H 	H 	0.46370 0.08640 0.65660 0.01700
C 	C 	0.41258 0.17250 0.56900 -0.08000
C 	C 	0.37391 0.15385 0.61670 -0.04400
H 	H 	0.36100 0.12490 0.63180 0.04700
H 	H 	0.50440 0.23030 0.60630 0.11800
O 	O 	0.14751 0.37188 0.91333 -0.41100
O 	O 	0.15310 0.38374 0.76533 -0.41200
C 	C 	0.14512 0.39018 0.84183 0.37700
C 	C 	0.13080 0.42273 0.85483 -0.15800
C 	C 	0.12327 0.44230 0.78863 0.12000
H 	H 	0.12827 0.43673 0.73073 0.00400
C 	C 	0.10847 0.47073 0.80163 -0.19800
H 	H 	0.10467 0.48443 0.75293 0.11500
C 	C 	0.09923 0.47896 0.88343 0.14200
C 	C 	0.10827 0.46065 0.95603 -0.17400
H 	H 	0.10377 0.46713 0.01353 0.09200
C 	C 	0.12425 0.43213 0.94193 0.08500
H 	H 	0.13037 0.41973 0.98993 0.01700
C 	C 	0.07925 0.50583 0.90233 -0.08000
C 	C 	0.04058 0.48718 0.95003 -0.04400
H 	H 	0.02767 0.45823 0.96513 0.04700
H 	H 	0.17107 0.56363 0.93963 0.11800
O 	O 	0.81417 0.70522 0.24667 -0.41100
O 	O 	0.81976 0.71708 0.09867 -0.41200
C 	C 	0.81178 0.72352 0.17517 0.37700
C 	C 	0.79746 0.75607 0.18817 -0.15800
C 	C 	0.78993 0.77564 0.12197 0.12000
H 	H 	0.79493 0.77007 0.06407 0.00400
C 	C 	0.77513 0.80407 0.13497 -0.19800
H 	H 	0.77133 0.81777 0.08627 0.11500
C 	C 	0.76589 0.81230 0.21677 0.14200
C 	C 	0.77493 0.79399 0.28937 -0.17500
H 	H 	0.77043 0.80047 0.34687 0.09200
C 	C 	0.79091 0.76547 0.27527 0.08500
H 	H 	0.79703 0.75307 0.32327 0.01700
C 	C 	0.74591 0.83917 0.23567 -0.08000
C 	C 	0.70724 0.82052 0.28337 -0.04300
H 	H 	0.69433 0.79157 0.29847 0.04700
H 	H 	0.83773 0.89697 0.27297 0.11800
O 	O 	0.96145 0.44229 0.58000 -0.41100
O 	O 	0.94959 0.43602 0.43200 -0.41200
C 	C 	0.94315 0.42160 0.50850 0.37700
C 	C 	0.91060 0.37473 0.52150 -0.15800
C 	C 	0.89103 0.34763 0.45530 0.12000
H 	H 	0.89660 0.35820 0.39740 0.00400
C 	C 	0.86260 0.30440 0.46830 -0.19800
H 	H 	0.84890 0.28690 0.41960 0.11500
C 	C 	0.85437 0.28693 0.55010 0.14200
C 	C 	0.87268 0.31428 0.62270 -0.17500
H 	H 	0.86620 0.30330 0.68020 0.09200
C 	C 	0.90120 0.35878 0.60860 0.08500
H 	H 	0.91360 0.37730 0.65660 0.01700
C 	C 	0.82750 0.24008 0.56900 -0.08000
C 	C 	0.84615 0.22006 0.61670 -0.04300
H 	H 	0.87510 0.23610 0.63180 0.04700
H 	H 	0.76970 0.27410 0.60630 0.11700
O 	O 	0.62812 0.77562 0.91333 -0.41100
O 	O 	0.61626 0.76935 0.76533 -0.41200
C 	C 	0.60982 0.75493 0.84183 0.37700
C 	C 	0.57727 0.70806 0.85483 -0.15800
C 	C 	0.55770 0.68096 0.78863 0.12000
H 	H 	0.56327 0.69153 0.73073 0.00400
C 	C 	0.52927 0.63773 0.80163 -0.19800
H 	H 	0.51557 0.62023 0.75293 0.11500
C 	C 	0.52104 0.62026 0.88343 0.14200
C 	C 	0.53935 0.64761 0.95603 -0.17400
H 	H 	0.53287 0.63663 0.01353 0.09200
C 	C 	0.56787 0.69211 0.94193 0.08500
H 	H 	0.58027 0.71063 0.98993 0.01700
C 	C 	0.49417 0.57341 0.90233 -0.08000
C 	C 	0.51282 0.55339 0.95003 -0.04400
H 	H 	0.54177 0.56943 0.96513 0.04700
H 	H 	0.43637 0.60743 0.93963 0.11800
O 	O 	0.29478 0.10896 0.24667 -0.41100
O 	O 	0.28292 0.10269 0.09867 -0.41200
C 	C 	0.27648 0.08827 0.17517 0.37700
C 	C 	0.24393 0.04140 0.18817 -0.15800
C 	C 	0.22436 0.01430 0.12197 0.12000
H 	H 	0.22993 0.02487 0.06407 0.00400
C 	C 	0.19593 0.97107 0.13497 -0.19800
H 	H 	0.18223 0.95357 0.08627 0.11500
C 	C 	0.18770 0.95360 0.21677 0.14200
C 	C 	0.20601 0.98095 0.28937 -0.17500
H 	H 	0.19953 0.96997 0.34687 0.09200
C 	C 	0.23453 0.02545 0.27527 0.08500
H 	H 	0.24693 0.04397 0.32327 0.01700
C 	C 	0.16083 0.90675 0.23567 -0.08000
C 	C 	0.17948 0.88673 0.28337 -0.04400
H 	H 	0.20843 0.90277 0.29847 0.04700
H 	H 	0.10303 0.94077 0.27297 0.11800
O 	O 	0.51916 0.55771 0.42000 -0.41100
O 	O 	0.51357 0.56398 0.56800 -0.41200
C 	C 	0.52155 0.57840 0.49150 0.37700
C 	C 	0.53587 0.62527 0.47850 -0.15800
C 	C 	0.54340 0.65237 0.54470 0.12000
H 	H 	0.53840 0.64180 0.60260 0.00400
C 	C 	0.55820 0.69560 0.53170 -0.19800
H 	H 	0.56200 0.71310 0.58040 0.11500
C 	C 	0.56744 0.71307 0.44990 0.14200
C 	C 	0.55840 0.68572 0.37730 -0.17500
H 	H 	0.56290 0.69670 0.31980 0.09200
C 	C 	0.54242 0.64122 0.39140 0.08500
H 	H 	0.53630 0.62270 0.34340 0.01700
C 	C 	0.58742 0.75992 0.43100 -0.08000
C 	C 	0.62609 0.77994 0.38330 -0.04400
H 	H 	0.63900 0.76390 0.36820 0.04700
H 	H 	0.49560 0.72590 0.39370 0.11800
O 	O 	0.18583 0.89104 0.75333 -0.41100
O 	O 	0.18024 0.89731 0.90133 -0.41200
C 	C 	0.18822 0.91173 0.82483 0.37700
C 	C 	0.20254 0.95860 0.81183 -0.15800
C 	C 	0.21007 0.98570 0.87803 0.12000
H 	H 	0.20507 0.97513 0.93593 0.00400
C 	C 	0.22487 0.02893 0.86503 -0.19800
H 	H 	0.22867 0.04643 0.91373 0.11500
C 	C 	0.23411 0.04640 0.78323 0.14200
C 	C 	0.22507 0.01905 0.71063 -0.17500
H 	H 	0.22957 0.03003 0.65313 0.09200
C 	C 	0.20909 0.97455 0.72473 0.08600
H 	H 	0.20297 0.95603 0.67673 0.01700
C 	C 	0.25409 0.09325 0.76433 -0.08000
C 	C 	0.29276 0.11327 0.71663 -0.04400
H 	H 	0.30567 0.09723 0.70153 0.04700
H 	H 	0.16227 0.05923 0.72703 0.11800
O 	O 	0.85249 0.22438 0.08667 -0.41100
O 	O 	0.84690 0.23065 0.23467 -0.41200
C 	C 	0.85488 0.24507 0.15817 0.37700
C 	C 	0.86920 0.29194 0.14517 -0.15800
C 	C 	0.87673 0.31904 0.21137 0.12000
H 	H 	0.87173 0.30847 0.26927 0.00400
C 	C 	0.89153 0.36227 0.19837 -0.19800
H 	H 	0.89533 0.37977 0.24707 0.11500
C 	C 	0.90077 0.37974 0.11657 0.14200
C 	C 	0.89173 0.35239 0.04397 -0.17400
H 	H 	0.89623 0.36337 0.98647 0.09200
C 	C 	0.87575 0.30789 0.05807 0.08500
H 	H 	0.86963 0.28937 0.01007 0.01700
C 	C 	0.92075 0.42659 0.09767 -0.08000
C 	C 	0.95942 0.44661 0.04997 -0.04400
H 	H 	0.97233 0.43057 0.03487 0.04700
H 	H 	0.82893 0.39257 0.06037 0.11800
O 	O 	0.03855 0.48084 0.42000 -0.41100
O 	O 	0.05041 0.48643 0.56800 -0.41200
C 	C 	0.05685 0.47845 0.49150 0.37700
C 	C 	0.08940 0.46413 0.47850 -0.15800
C 	C 	0.10897 0.45660 0.54470 0.12000
H 	H 	0.10340 0.46160 0.60260 0.00400
C 	C 	0.13740 0.44180 0.53170 -0.19800
H 	H 	0.15110 0.43800 0.58040 0.11500
C 	C 	0.14563 0.43256 0.44990 0.14200
C 	C 	0.12732 0.44160 0.37730 -0.17500
H 	H 	0.13380 0.43710 0.31980 0.09200
C 	C 	0.09880 0.45758 0.39140 0.08500
H 	H 	0.08640 0.46370 0.34340 0.01700
C 	C 	0.17250 0.41258 0.43100 -0.08000
C 	C 	0.15385 0.37391 0.38330 -0.04400
H 	H 	0.12490 0.36100 0.36820 0.04700
H 	H 	0.23030 0.50440 0.39370 0.11800
O 	O 	0.70522 0.81417 0.75333 -0.41100
O 	O 	0.71708 0.81976 0.90133 -0.41200
C 	C 	0.72352 0.81178 0.82483 0.37700
C 	C 	0.75607 0.79746 0.81183 -0.15800
C 	C 	0.77564 0.78993 0.87803 0.12000
H 	H 	0.77007 0.79493 0.93593 0.00400
C 	C 	0.80407 0.77513 0.86503 -0.19800
H 	H 	0.81777 0.77133 0.91373 0.11500
C 	C 	0.81230 0.76589 0.78323 0.14200
C 	C 	0.79399 0.77493 0.71063 -0.17500
H 	H 	0.80047 0.77043 0.65313 0.09200
C 	C 	0.76547 0.79091 0.72473 0.08500
H 	H 	0.75307 0.79703 0.67673 0.01700
C 	C 	0.83917 0.74591 0.76433 -0.08000
C 	C 	0.82052 0.70724 0.71663 -0.04300
H 	H 	0.79157 0.69433 0.70153 0.04700
H 	H 	0.89697 0.83773 0.72703 0.11800
O 	O 	0.37188 0.14751 0.08667 -0.41100
O 	O 	0.38374 0.15310 0.23467 -0.41200
C 	C 	0.39018 0.14512 0.15817 0.37700
C 	C 	0.42273 0.13080 0.14517 -0.15800
C 	C 	0.44230 0.12327 0.21137 0.12000
H 	H 	0.43673 0.12827 0.26927 0.00400
C 	C 	0.47073 0.10847 0.19837 -0.19800
H 	H 	0.48443 0.10467 0.24707 0.11500
C 	C 	0.47896 0.09923 0.11657 0.14200
C 	C 	0.46065 0.10827 0.04397 -0.17400
H 	H 	0.46713 0.10377 0.98647 0.09200
C 	C 	0.43213 0.12425 0.05807 0.08500
H 	H 	0.41973 0.13037 0.01007 0.01700
C 	C 	0.50583 0.07925 0.09767 -0.08000
C 	C 	0.48718 0.04058 0.04997 -0.04400
H 	H 	0.45823 0.02767 0.03487 0.04700
H 	H 	0.56363 0.17107 0.06037 0.11800
O 	O 	0.44229 0.96145 0.42000 -0.41100
O 	O 	0.43602 0.94959 0.56800 -0.41200
C 	C 	0.42160 0.94315 0.49150 0.37700
C 	C 	0.37473 0.91060 0.47850 -0.15800
C 	C 	0.34763 0.89103 0.54470 0.12000
H 	H 	0.35820 0.89660 0.60260 0.00400
C 	C 	0.30440 0.86260 0.53170 -0.19800
H 	H 	0.28690 0.84890 0.58040 0.11500
C 	C 	0.28693 0.85437 0.44990 0.14200
C 	C 	0.31428 0.87268 0.37730 -0.17500
H 	H 	0.30330 0.86620 0.31980 0.09200
C 	C 	0.35878 0.90120 0.39140 0.08500
H 	H 	0.37730 0.91360 0.34340 0.01700
C 	C 	0.24008 0.82750 0.43100 -0.08000
C 	C 	0.22006 0.84615 0.38330 -0.04300
H 	H 	0.23610 0.87510 0.36820 0.04700
H 	H 	0.27410 0.76970 0.39370 0.11700
O 	O 	0.10896 0.29478 0.75333 -0.41100
O 	O 	0.10269 0.28292 0.90133 -0.41200
C 	C 	0.08827 0.27648 0.82483 0.37700
C 	C 	0.04140 0.24393 0.81183 -0.15800
C 	C 	0.01430 0.22436 0.87803 0.12000
H 	H 	0.02487 0.22993 0.93593 0.00400
C 	C 	0.97107 0.19593 0.86503 -0.19800
H 	H 	0.95357 0.18223 0.91373 0.11500
C 	C 	0.95360 0.18770 0.78323 0.14200
C 	C 	0.98095 0.20601 0.71063 -0.17500
H 	H 	0.96997 0.19953 0.65313 0.09200
C 	C 	0.02545 0.23453 0.72473 0.08500
H 	H 	0.04397 0.24693 0.67673 0.01700
C 	C 	0.90675 0.16083 0.76433 -0.08000
C 	C 	0.88673 0.17948 0.71663 -0.04400
H 	H 	0.90277 0.20843 0.70153 0.04700
H 	H 	0.94077 0.10303 0.72703 0.11800
O 	O 	0.77562 0.62812 0.08667 -0.41100
O 	O 	0.76935 0.61626 0.23467 -0.41200
C 	C 	0.75493 0.60982 0.15817 0.37700
C 	C 	0.70806 0.57727 0.14517 -0.15800
C 	C 	0.68096 0.55770 0.21137 0.12000
H 	H 	0.69153 0.56327 0.26927 0.00400
C 	C 	0.63773 0.52927 0.19837 -0.19800
H 	H 	0.62023 0.51557 0.24707 0.11500
C 	C 	0.62026 0.52104 0.11657 0.14200
C 	C 	0.64761 0.53935 0.04397 -0.17400
H 	H 	0.63663 0.53287 0.98647 0.09200
C 	C 	0.69211 0.56787 0.05807 0.08500
H 	H 	0.71063 0.58027 0.01007 0.01700
C 	C 	0.57341 0.49417 0.09767 -0.08000
C 	C 	0.55339 0.51282 0.04997 -0.04400
H 	H 	0.56943 0.54177 0.03487 0.04700
H 	H 	0.60743 0.43637 0.06037 0.11800
O 	O 	0.44229 0.48084 0.42000 -0.41100
O 	O 	0.43602 0.48643 0.56800 -0.41200
C 	C 	0.42160 0.47845 0.49150 0.37700
C 	C 	0.37473 0.46413 0.47850 -0.15800
C 	C 	0.34763 0.45660 0.54470 0.12000
H 	H 	0.35820 0.46160 0.60260 0.00400
C 	C 	0.30440 0.44180 0.53170 -0.19800
H 	H 	0.28690 0.43800 0.58040 0.11500
C 	C 	0.28693 0.43256 0.44990 0.14200
C 	C 	0.31428 0.44160 0.37730 -0.17500
H 	H 	0.30330 0.43710 0.31980 0.09200
C 	C 	0.35878 0.45758 0.39140 0.08500
H 	H 	0.37730 0.46370 0.34340 0.01700
C 	C 	0.24008 0.41258 0.43100 -0.08000
C 	C 	0.22006 0.37391 0.38330 -0.04400
H 	H 	0.23610 0.36100 0.36820 0.04700
H 	H 	0.27410 0.50440 0.39370 0.11800
O 	O 	0.10896 0.81417 0.75333 -0.41100
O 	O 	0.10269 0.81976 0.90133 -0.41200
C 	C 	0.08827 0.81178 0.82483 0.37700
C 	C 	0.04140 0.79746 0.81183 -0.15800
C 	C 	0.01430 0.78993 0.87803 0.12000
H 	H 	0.02487 0.79493 0.93593 0.00400
C 	C 	0.97107 0.77513 0.86503 -0.19800
H 	H 	0.95357 0.77133 0.91373 0.11500
C 	C 	0.95360 0.76589 0.78323 0.14200
C 	C 	0.98095 0.77493 0.71063 -0.17500
H 	H 	0.96997 0.77043 0.65313 0.09200
C 	C 	0.02545 0.79091 0.72473 0.08600
H 	H 	0.04397 0.79703 0.67673 0.01700
C 	C 	0.90675 0.74591 0.76433 -0.08000
C 	C 	0.88673 0.70724 0.71663 -0.04400
H 	H 	0.90277 0.69433 0.70153 0.04700
H 	H 	0.94077 0.83773 0.72703 0.11800
O 	O 	0.77562 0.14751 0.08667 -0.41100
O 	O 	0.76935 0.15310 0.23467 -0.41200
C 	C 	0.75493 0.14512 0.15817 0.37700
C 	C 	0.70806 0.13080 0.14517 -0.15800
C 	C 	0.68096 0.12327 0.21137 0.12000
H 	H 	0.69153 0.12827 0.26927 0.00400
C 	C 	0.63773 0.10847 0.19837 -0.19800
H 	H 	0.62023 0.10467 0.24707 0.11500
C 	C 	0.62026 0.09923 0.11657 0.14200
C 	C 	0.64761 0.10827 0.04397 -0.17400
H 	H 	0.63663 0.10377 0.98647 0.09200
C 	C 	0.69211 0.12425 0.05807 0.08500
H 	H 	0.71063 0.13037 0.01007 0.01700
C 	C 	0.57341 0.07925 0.09767 -0.08000
C 	C 	0.55339 0.04058 0.04997 -0.04400
H 	H 	0.56943 0.02767 0.03487 0.04700
H 	H 	0.60743 0.17107 0.06037 0.11800
O 	O 	0.51916 0.96145 0.42000 -0.41100
O 	O 	0.51357 0.94959 0.56800 -0.41200
C 	C 	0.52155 0.94315 0.49150 0.37700
C 	C 	0.53587 0.91060 0.47850 -0.15800
C 	C 	0.54340 0.89103 0.54470 0.12000
H 	H 	0.53840 0.89660 0.60260 0.00400
C 	C 	0.55820 0.86260 0.53170 -0.19800
H 	H 	0.56200 0.84890 0.58040 0.11500
C 	C 	0.56744 0.85437 0.44990 0.14200
C 	C 	0.55840 0.87268 0.37730 -0.17500
H 	H 	0.56290 0.86620 0.31980 0.09200
C 	C 	0.54242 0.90120 0.39140 0.08500
H 	H 	0.53630 0.91360 0.34340 0.01700
C 	C 	0.58742 0.82750 0.43100 -0.08000
C 	C 	0.62609 0.84615 0.38330 -0.04400
H 	H 	0.63900 0.87510 0.36820 0.04700
H 	H 	0.49560 0.76970 0.39370 0.11800
O 	O 	0.18583 0.29478 0.75333 -0.41100
O 	O 	0.18024 0.28292 0.90133 -0.41200
C 	C 	0.18822 0.27648 0.82483 0.37700
C 	C 	0.20254 0.24393 0.81183 -0.15800
C 	C 	0.21007 0.22436 0.87803 0.12000
H 	H 	0.20507 0.22993 0.93593 0.00400
C 	C 	0.22487 0.19593 0.86503 -0.19800
H 	H 	0.22867 0.18223 0.91373 0.11500
C 	C 	0.23411 0.18770 0.78323 0.14200
C 	C 	0.22507 0.20601 0.71063 -0.17500
H 	H 	0.22957 0.19953 0.65313 0.09200
C 	C 	0.20909 0.23453 0.72473 0.08500
H 	H 	0.20297 0.24693 0.67673 0.01700
C 	C 	0.25409 0.16083 0.76433 -0.08000
C 	C 	0.29276 0.17948 0.71663 -0.04300
H 	H 	0.30567 0.20843 0.70153 0.04700
H 	H 	0.16227 0.10303 0.72703 0.11800
O 	O 	0.85249 0.62812 0.08667 -0.41100
O 	O 	0.84690 0.61626 0.23467 -0.41200
C 	C 	0.85488 0.60982 0.15817 0.37700
C 	C 	0.86920 0.57727 0.14517 -0.15800
C 	C 	0.87673 0.55770 0.21137 0.12000
H 	H 	0.87173 0.56327 0.26927 0.00400
C 	C 	0.89153 0.52927 0.19837 -0.19800
H 	H 	0.89533 0.51557 0.24707 0.11500
C 	C 	0.90077 0.52104 0.11657 0.14200
C 	C 	0.89173 0.53935 0.04397 -0.17400
H 	H 	0.89623 0.53287 0.98647 0.09200
C 	C 	0.87575 0.56787 0.05807 0.08500
H 	H 	0.86963 0.58027 0.01007 0.01700
C 	C 	0.92075 0.49417 0.09767 -0.08000
C 	C 	0.95942 0.51282 0.04997 -0.04400
H 	H 	0.97233 0.54177 0.03487 0.04700
H 	H 	0.82893 0.43637 0.06037 0.11800
O 	O 	0.03855 0.55771 0.42000 -0.41100
O 	O 	0.05041 0.56398 0.56800 -0.41200
C 	C 	0.05685 0.57840 0.49150 0.37700
C 	C 	0.08940 0.62527 0.47850 -0.15800
C 	C 	0.10897 0.65237 0.54470 0.12000
H 	H 	0.10340 0.64180 0.60260 0.00400
C 	C 	0.13740 0.69560 0.53170 -0.19800
H 	H 	0.15110 0.71310 0.58040 0.11500
C 	C 	0.14563 0.71307 0.44990 0.14200
C 	C 	0.12732 0.68572 0.37730 -0.17500
H 	H 	0.13380 0.69670 0.31980 0.09200
C 	C 	0.09880 0.64122 0.39140 0.08500
H 	H 	0.08640 0.62270 0.34340 0.01700
C 	C 	0.17250 0.75992 0.43100 -0.08000
C 	C 	0.15385 0.77994 0.38330 -0.04300
H 	H 	0.12490 0.76390 0.36820 0.04700
H 	H 	0.23030 0.72590 0.39370 0.11700
O 	O 	0.70522 0.89104 0.75333 -0.41100
O 	O 	0.71708 0.89731 0.90133 -0.41200
C 	C 	0.72352 0.91173 0.82483 0.37700
C 	C 	0.75607 0.95860 0.81183 -0.15800
C 	C 	0.77564 0.98570 0.87803 0.12000
H 	H 	0.77007 0.97513 0.93593 0.00400
C 	C 	0.80407 0.02893 0.86503 -0.19800
H 	H 	0.81777 0.04643 0.91373 0.11500
C 	C 	0.81230 0.04640 0.78323 0.14200
C 	C 	0.79399 0.01905 0.71063 -0.17500
H 	H 	0.80047 0.03003 0.65313 0.09200
C 	C 	0.76547 0.97455 0.72473 0.08500
H 	H 	0.75307 0.95603 0.67673 0.01700
C 	C 	0.83917 0.09325 0.76433 -0.08000
C 	C 	0.82052 0.11327 0.71663 -0.04400
H 	H 	0.79157 0.09723 0.70153 0.04700
H 	H 	0.89697 0.05923 0.72703 0.11800
O 	O 	0.37188 0.22438 0.08667 -0.41100
O 	O 	0.38374 0.23065 0.23467 -0.41200
C 	C 	0.39018 0.24507 0.15817 0.37700
C 	C 	0.42273 0.29194 0.14517 -0.15800
C 	C 	0.44230 0.31904 0.21137 0.12000
H 	H 	0.43673 0.30847 0.26927 0.00400
C 	C 	0.47073 0.36227 0.19837 -0.19800
H 	H 	0.48443 0.37977 0.24707 0.11500
C 	C 	0.47896 0.37974 0.11657 0.14200
C 	C 	0.46065 0.35239 0.04397 -0.17400
H 	H 	0.46713 0.36337 0.98647 0.09200
C 	C 	0.43213 0.30789 0.05807 0.08500
H 	H 	0.41973 0.28937 0.01007 0.01700
C 	C 	0.50583 0.42659 0.09767 -0.08000
C 	C 	0.48718 0.44661 0.04997 -0.04400
H 	H 	0.45823 0.43057 0.03487 0.04700
H 	H 	0.56363 0.39257 0.06037 0.11800
O 	O 	0.48084 0.44229 0.58000 -0.41100
O 	O 	0.48643 0.43602 0.43200 -0.41200
C 	C 	0.47845 0.42160 0.50850 0.37700
C 	C 	0.46413 0.37473 0.52150 -0.15800
C 	C 	0.45660 0.34763 0.45530 0.12000
H 	H 	0.46160 0.35820 0.39740 0.00400
C 	C 	0.44180 0.30440 0.46830 -0.19800
H 	H 	0.43800 0.28690 0.41960 0.11500
C 	C 	0.43256 0.28693 0.55010 0.14200
C 	C 	0.44160 0.31428 0.62270 -0.17500
H 	H 	0.43710 0.30330 0.68020 0.09200
C 	C 	0.45758 0.35878 0.60860 0.08500
H 	H 	0.46370 0.37730 0.65660 0.01700
C 	C 	0.41258 0.24008 0.56900 -0.08000
C 	C 	0.37391 0.22006 0.61670 -0.04400
H 	H 	0.36100 0.23610 0.63180 0.04700
H 	H 	0.50440 0.27410 0.60630 0.11800
O 	O 	0.14751 0.77562 0.91333 -0.41100
O 	O 	0.15310 0.76935 0.76533 -0.41200
C 	C 	0.14512 0.75493 0.84183 0.37700
C 	C 	0.13080 0.70806 0.85483 -0.15800
C 	C 	0.12327 0.68096 0.78863 0.12000
H 	H 	0.12827 0.69153 0.73073 0.00400
C 	C 	0.10847 0.63773 0.80163 -0.19800
H 	H 	0.10467 0.62023 0.75293 0.11500
C 	C 	0.09923 0.62026 0.88343 0.14200
C 	C 	0.10827 0.64761 0.95603 -0.17400
H 	H 	0.10377 0.63663 0.01353 0.09200
C 	C 	0.12425 0.69211 0.94193 0.08500
H 	H 	0.13037 0.71063 0.98993 0.01700
C 	C 	0.07925 0.57341 0.90233 -0.08000
C 	C 	0.04058 0.55339 0.95003 -0.04400
H 	H 	0.02767 0.56943 0.96513 0.04700
H 	H 	0.17107 0.60743 0.93963 0.11800
O 	O 	0.81417 0.10896 0.24667 -0.41100
O 	O 	0.81976 0.10269 0.09867 -0.41200
C 	C 	0.81178 0.08827 0.17517 0.37700
C 	C 	0.79746 0.04140 0.18817 -0.15800
C 	C 	0.78993 0.01430 0.12197 0.12000
H 	H 	0.79493 0.02487 0.06407 0.00400
C 	C 	0.77513 0.97107 0.13497 -0.19800
H 	H 	0.77133 0.95357 0.08627 0.11500
C 	C 	0.76589 0.95360 0.21677 0.14200
C 	C 	0.77493 0.98095 0.28937 -0.17500
H 	H 	0.77043 0.96997 0.34687 0.09200
C 	C 	0.79091 0.02545 0.27527 0.08600
H 	H 	0.79703 0.04397 0.32327 0.01700
C 	C 	0.74591 0.90675 0.23567 -0.08000
C 	C 	0.70724 0.88673 0.28337 -0.04400
H 	H 	0.69433 0.90277 0.29847 0.04700
H 	H 	0.83773 0.94077 0.27297 0.11800
O 	O 	0.96145 0.51916 0.58000 -0.41100
O 	O 	0.94959 0.51357 0.43200 -0.41200
C 	C 	0.94315 0.52155 0.50850 0.37700
C 	C 	0.91060 0.53587 0.52150 -0.15800
C 	C 	0.89103 0.54340 0.45530 0.12000
H 	H 	0.89660 0.53840 0.39740 0.00400
C 	C 	0.86260 0.55820 0.46830 -0.19800
H 	H 	0.84890 0.56200 0.41960 0.11500
C 	C 	0.85437 0.56744 0.55010 0.14200
C 	C 	0.87268 0.55840 0.62270 -0.17500
H 	H 	0.86620 0.56290 0.68020 0.09200
C 	C 	0.90120 0.54242 0.60860 0.08500
H 	H 	0.91360 0.53630 0.65660 0.01700
C 	C 	0.82750 0.58742 0.56900 -0.08000
C 	C 	0.84615 0.62609 0.61670 -0.04400
H 	H 	0.87510 0.63900 0.63180 0.04700
H 	H 	0.76970 0.49560 0.60630 0.11800
O 	O 	0.62812 0.85249 0.91333 -0.41100
O 	O 	0.61626 0.84690 0.76533 -0.41200
C 	C 	0.60982 0.85488 0.84183 0.37700
C 	C 	0.57727 0.86920 0.85483 -0.15800
C 	C 	0.55770 0.87673 0.78863 0.12000
H 	H 	0.56327 0.87173 0.73073 0.00400
C 	C 	0.52927 0.89153 0.80163 -0.19800
H 	H 	0.51557 0.89533 0.75293 0.11500
C 	C 	0.52104 0.90077 0.88343 0.14200
C 	C 	0.53935 0.89173 0.95603 -0.17400
H 	H 	0.53287 0.89623 0.01353 0.09200
C 	C 	0.56787 0.87575 0.94193 0.08500
H 	H 	0.58027 0.86963 0.98993 0.01700
C 	C 	0.49417 0.92075 0.90233 -0.08000
C 	C 	0.51282 0.95942 0.95003 -0.04400
H 	H 	0.54177 0.97233 0.96513 0.04700
H 	H 	0.43637 0.82893 0.93963 0.11800
O 	O 	0.29478 0.18583 0.24667 -0.41100
O 	O 	0.28292 0.18024 0.09867 -0.41200
C 	C 	0.27648 0.18822 0.17517 0.37700
C 	C 	0.24393 0.20254 0.18817 -0.15800
C 	C 	0.22436 0.21007 0.12197 0.12000
H 	H 	0.22993 0.20507 0.06407 0.00400
C 	C 	0.19593 0.22487 0.13497 -0.19800
H 	H 	0.18223 0.22867 0.08627 0.11500
C 	C 	0.18770 0.23411 0.21677 0.14200
C 	C 	0.20601 0.22507 0.28937 -0.17500
H 	H 	0.19953 0.22957 0.34687 0.09200
C 	C 	0.23453 0.20909 0.27527 0.08500
H 	H 	0.24693 0.20297 0.32327 0.01700
C 	C 	0.16083 0.25409 0.23567 -0.08000
C 	C 	0.17948 0.29276 0.28337 -0.04300
H 	H 	0.20843 0.30567 0.29847 0.04700
H 	H 	0.10303 0.16227 0.27297 0.11800
O 	O 	0.55771 0.03855 0.58000 -0.41100
O 	O 	0.56398 0.05041 0.43200 -0.41200
C 	C 	0.57840 0.05685 0.50850 0.37700
C 	C 	0.62527 0.08940 0.52150 -0.15800
C 	C 	0.65237 0.10897 0.45530 0.12000
H 	H 	0.64180 0.10340 0.39740 0.00400
C 	C 	0.69560 0.13740 0.46830 -0.19800
H 	H 	0.71310 0.15110 0.41960 0.11500
C 	C 	0.71307 0.14563 0.55010 0.14200
C 	C 	0.68572 0.12732 0.62270 -0.17500
H 	H 	0.69670 0.13380 0.68020 0.09200
C 	C 	0.64122 0.09880 0.60860 0.08500
H 	H 	0.62270 0.08640 0.65660 0.01700
C 	C 	0.75992 0.17250 0.56900 -0.08000
C 	C 	0.77994 0.15385 0.61670 -0.04300
H 	H 	0.76390 0.12490 0.63180 0.04700
H 	H 	0.72590 0.23030 0.60630 0.11700
O 	O 	0.22438 0.37188 0.91333 -0.41100
O 	O 	0.23065 0.38374 0.76533 -0.41200
C 	C 	0.24507 0.39018 0.84183 0.37700
C 	C 	0.29194 0.42273 0.85483 -0.15800
C 	C 	0.31904 0.44230 0.78863 0.12000
H 	H 	0.30847 0.43673 0.73073 0.00400
C 	C 	0.36227 0.47073 0.80163 -0.19800
H 	H 	0.37977 0.48443 0.75293 0.11500
C 	C 	0.37974 0.47896 0.88343 0.14200
C 	C 	0.35239 0.46065 0.95603 -0.17400
H 	H 	0.36337 0.46713 0.01353 0.09200
C 	C 	0.30789 0.43213 0.94193 0.08500
H 	H 	0.28937 0.41973 0.98993 0.01700
C 	C 	0.42659 0.50583 0.90233 -0.08000
C 	C 	0.44661 0.48718 0.95003 -0.04400
H 	H 	0.43057 0.45823 0.96513 0.04700
H 	H 	0.39257 0.56363 0.93963 0.11800
O 	O 	0.89104 0.70522 0.24667 -0.41100
O 	O 	0.89731 0.71708 0.09867 -0.41200
C 	C 	0.91173 0.72352 0.17517 0.37700
C 	C 	0.95860 0.75607 0.18817 -0.15800
C 	C 	0.98570 0.77564 0.12197 0.12000
H 	H 	0.97513 0.77007 0.06407 0.00400
C 	C 	0.02893 0.80407 0.13497 -0.19800
H 	H 	0.04643 0.81777 0.08627 0.11500
C 	C 	0.04640 0.81230 0.21677 0.14200
C 	C 	0.01905 0.79399 0.28937 -0.17500
H 	H 	0.03003 0.80047 0.34687 0.09200
C 	C 	0.97455 0.76547 0.27527 0.08500
H 	H 	0.95603 0.75307 0.32327 0.01700
C 	C 	0.09325 0.83917 0.23567 -0.08000
C 	C 	0.11327 0.82052 0.28337 -0.04400
H 	H 	0.09723 0.79157 0.29847 0.04700
H 	H 	0.05923 0.89697 0.27297 0.11800
Cu	Cu	0.50328 0.49672 0.41356 0.90300
Cu	Cu	0.16995 0.83005 0.74689 0.90300
Cu	Cu	0.83661 0.16339 0.08023 0.90300
Cu	Cu	0.50328 0.00656 0.41356 0.90300
Cu	Cu	0.16995 0.33989 0.74689 0.90300
Cu	Cu	0.83661 0.67323 0.08023 0.90300
Cu	Cu	0.99344 0.49672 0.41356 0.90300
Cu	Cu	0.66011 0.83005 0.74689 0.90300
Cu	Cu	0.32677 0.16339 0.08023 0.90300
Cu	Cu	0.49672 0.50328 0.58644 0.90300
Cu	Cu	0.16339 0.83661 0.91977 0.90300
Cu	Cu	0.83005 0.16995 0.25311 0.90300
Cu	Cu	0.00656 0.50328 0.58644 0.90300
Cu	Cu	0.67323 0.83661 0.91977 0.90300
Cu	Cu	0.33989 0.16995 0.25311 0.90300
Cu	Cu	0.49672 0.99344 0.58644 0.90300
Cu	Cu	0.16339 0.32677 0.91977 0.90300
Cu	Cu	0.83005 0.66011 0.25311 0.90300
O 	O 	0.76517 0.53034 0.49940 -0.16400
C 	C 	0.82295 0.64590 0.64240 0.00500
C 	C 	0.78458 0.56917 0.54510 0.12900
C 	C 	0.74665 0.49330 0.56980 -0.27200
H 	H 	0.73295 0.46590 0.54000 0.12100
O 	O 	0.43184 0.86367 0.83273 -0.16400
C 	C 	0.48962 0.97923 0.97573 0.00500
C 	C 	0.45125 0.90250 0.87843 0.12900
C 	C 	0.41332 0.82663 0.90313 -0.27200
H 	H 	0.39962 0.79923 0.87333 0.12200
O 	O 	0.09850 0.19701 0.16607 -0.16400
C 	C 	0.15628 0.31257 0.30907 0.00500
C 	C 	0.11792 0.23584 0.21177 0.12900
C 	C 	0.07998 0.15997 0.23647 -0.27200
H 	H 	0.06628 0.13257 0.20667 0.12200
O 	O 	0.46966 0.23483 0.49940 -0.16400
C 	C 	0.35410 0.17705 0.64240 0.00500
C 	C 	0.43083 0.21542 0.54510 0.12900
C 	C 	0.50670 0.25335 0.56980 -0.27200
H 	H 	0.53410 0.26705 0.54000 0.12100
O 	O 	0.13633 0.56816 0.83273 -0.16400
C 	C 	0.02077 0.51038 0.97573 0.00500
C 	C 	0.09750 0.54875 0.87843 0.12900
C 	C 	0.17337 0.58668 0.90313 -0.27200
H 	H 	0.20077 0.60038 0.87333 0.12200
O 	O 	0.80299 0.90150 0.16607 -0.16400
C 	C 	0.68743 0.84372 0.30907 0.00500
C 	C 	0.76416 0.88208 0.21177 0.12900
C 	C 	0.84003 0.92002 0.23647 -0.27200
H 	H 	0.86743 0.93372 0.20667 0.12200
O 	O 	0.76517 0.23483 0.49940 -0.16400
C 	C 	0.82295 0.17705 0.64240 0.00400
C 	C 	0.78458 0.21542 0.54510 0.12900
C 	C 	0.74665 0.25335 0.56980 -0.27200
H 	H 	0.73295 0.26705 0.54000 0.12100
O 	O 	0.43184 0.56816 0.83273 -0.16400
C 	C 	0.48962 0.51038 0.97573 0.00500
C 	C 	0.45125 0.54875 0.87843 0.12900
C 	C 	0.41332 0.58668 0.90313 -0.27200
H 	H 	0.39962 0.60038 0.87333 0.12200
O 	O 	0.09850 0.90150 0.16607 -0.16400
C 	C 	0.15628 0.84372 0.30907 0.00500
C 	C 	0.11792 0.88208 0.21177 0.12900
C 	C 	0.07998 0.92002 0.23647 -0.27200
H 	H 	0.06628 0.93372 0.20667 0.12200
O 	O 	0.53034 0.76517 0.50060 -0.16400
C 	C 	0.64590 0.82295 0.35760 0.00500
C 	C 	0.56917 0.78458 0.45490 0.12900
C 	C 	0.49330 0.74665 0.43020 -0.27200
H 	H 	0.46590 0.73295 0.46000 0.12100
O 	O 	0.19701 0.09850 0.83393 -0.16400
C 	C 	0.31257 0.15628 0.69093 0.00500
C 	C 	0.23584 0.11792 0.78823 0.12900
C 	C 	0.15997 0.07998 0.76353 -0.27200
H 	H 	0.13257 0.06628 0.79333 0.12200
O 	O 	0.86367 0.43184 0.16727 -0.16400
C 	C 	0.97923 0.48962 0.02427 0.00500
C 	C 	0.90250 0.45125 0.12157 0.12900
C 	C 	0.82663 0.41332 0.09687 -0.27200
H 	H 	0.79923 0.39962 0.12667 0.12200
O 	O 	0.23483 0.46966 0.50060 -0.16400
C 	C 	0.17705 0.35410 0.35760 0.00500
C 	C 	0.21542 0.43083 0.45490 0.12900
C 	C 	0.25335 0.50670 0.43020 -0.27200
H 	H 	0.26705 0.53410 0.46000 0.12100
O 	O 	0.90150 0.80299 0.83393 -0.16400
C 	C 	0.84372 0.68743 0.69093 0.00500
C 	C 	0.88208 0.76416 0.78823 0.12900
C 	C 	0.92002 0.84003 0.76353 -0.27200
H 	H 	0.93372 0.86743 0.79333 0.12200
O 	O 	0.56816 0.13633 0.16727 -0.16400
C 	C 	0.51038 0.02077 0.02427 0.00500
C 	C 	0.54875 0.09750 0.12157 0.12900
C 	C 	0.58668 0.17337 0.09687 -0.27200
H 	H 	0.60038 0.20077 0.12667 0.12200
O 	O 	0.23483 0.76517 0.50060 -0.16400
C 	C 	0.17705 0.82295 0.35760 0.00400
C 	C 	0.21542 0.78458 0.45490 0.12900
C 	C 	0.25335 0.74665 0.43020 -0.27200
H 	H 	0.26705 0.73295 0.46000 0.12100
O 	O 	0.90150 0.09850 0.83393 -0.16400
C 	C 	0.84372 0.15628 0.69093 0.00500
C 	C 	0.88208 0.11792 0.78823 0.12900
C 	C 	0.92002 0.07998 0.76353 -0.27200
H 	H 	0.93372 0.06628 0.79333 0.12200
O 	O 	0.56816 0.43184 0.16727 -0.16400
C 	C 	0.51038 0.48962 0.02427 0.00500
C 	C 	0.54875 0.45125 0.12157 0.12900
C 	C 	0.58668 0.41332 0.09687 -0.27200
H 	H 	0.60038 0.39962 0.12667 0.12200
