data_crystal

_cell_length_a 35.83410
_cell_length_b 35.83410
_cell_length_c 15.59030
_cell_angle_alpha 90.00000
_cell_angle_beta  90.00000
_cell_angle_gamma 120.00000

_symmetry_space_group_name_	'P 1'
_symmetry_space_group_name_H-M	'P 1'

loop_
_symmetry_equiv_pos_as_xyz
  x,y,z

loop_
_atom_site_label
_atom_site_type_symbol
_atom_site_fract_x
_atom_site_fract_y
_atom_site_fract_z
_atom_site_charge
O 	O 	0.55765 0.03806 0.57693 -0.41000
O 	O 	0.56402 0.05072 0.43508 -0.40800
C 	C 	0.57845 0.05705 0.50930 0.37300
C 	C 	0.62543 0.08913 0.52350 -0.13500
C 	C 	0.65272 0.10926 0.45680 0.07800
H 	H 	0.64190 0.10360 0.39980 0.02000
C 	C 	0.69621 0.13801 0.47090 -0.15000
H 	H 	0.71440 0.15260 0.42360 0.09600
C 	C 	0.71323 0.14557 0.55220 0.11400
C 	C 	0.68536 0.12635 0.61960 -0.15100
H 	H 	0.69610 0.13210 0.67670 0.08300
C 	C 	0.64170 0.09858 0.60560 0.07300
H 	H 	0.62290 0.08600 0.65310 0.02200
C 	C 	0.76038 0.17238 0.56980 -0.06700
C 	C 	0.78002 0.15395 0.61710 -0.04400
H 	H 	0.76330 0.12450 0.63310 0.04600
H 	H 	0.76980 0.27490 0.59560 0.08700
O 	O 	0.22432 0.37139 0.91026 -0.41100
O 	O 	0.23069 0.38405 0.76841 -0.40900
C 	C 	0.24512 0.39038 0.84263 0.37200
C 	C 	0.29210 0.42246 0.85683 -0.13600
C 	C 	0.31939 0.44259 0.79013 0.07700
H 	H 	0.30857 0.43693 0.73313 0.01900
C 	C 	0.36288 0.47134 0.80423 -0.15100
H 	H 	0.38107 0.48593 0.75693 0.09500
C 	C 	0.37990 0.47890 0.88553 0.11300
C 	C 	0.35203 0.45968 0.95293 -0.15200
H 	H 	0.36277 0.46543 0.01003 0.08200
C 	C 	0.30837 0.43191 0.93893 0.07200
H 	H 	0.28957 0.41933 0.98643 0.02100
C 	C 	0.42705 0.50571 0.90313 -0.06800
C 	C 	0.44669 0.48728 0.95043 -0.04400
H 	H 	0.42997 0.45783 0.96643 0.04600
H 	H 	0.43647 0.60823 0.92893 0.08700
O 	O 	0.89098 0.70473 0.24360 -0.41100
O 	O 	0.89735 0.71739 0.10175 -0.40900
C 	C 	0.91178 0.72372 0.17597 0.37200
C 	C 	0.95876 0.75580 0.19017 -0.13600
C 	C 	0.98605 0.77593 0.12347 0.07700
H 	H 	0.97523 0.77027 0.06647 0.01900
C 	C 	0.02954 0.80468 0.13757 -0.15100
H 	H 	0.04773 0.81927 0.09027 0.09500
C 	C 	0.04656 0.81224 0.21887 0.11300
C 	C 	0.01869 0.79302 0.28627 -0.15200
H 	H 	0.02943 0.79877 0.34337 0.08200
C 	C 	0.97503 0.76525 0.27227 0.07200
H 	H 	0.95623 0.75267 0.31977 0.02100
C 	C 	0.09371 0.83905 0.23647 -0.06800
C 	C 	0.11335 0.82062 0.28377 -0.04400
H 	H 	0.09663 0.79117 0.29977 0.04600
H 	H 	0.10313 0.94157 0.26227 0.08700
O 	O 	0.96194 0.51959 0.57693 -0.41100
O 	O 	0.94928 0.51330 0.43508 -0.40900
C 	C 	0.94295 0.52140 0.50930 0.37200
C 	C 	0.91087 0.53630 0.52350 -0.13600
C 	C 	0.89074 0.54346 0.45680 0.07700
H 	H 	0.89640 0.53830 0.39980 0.01900
C 	C 	0.86199 0.55820 0.47090 -0.15100
H 	H 	0.84740 0.56180 0.42360 0.09500
C 	C 	0.85443 0.56766 0.55220 0.11300
C 	C 	0.87365 0.55901 0.61960 -0.15200
H 	H 	0.86790 0.56400 0.67670 0.08200
C 	C 	0.90142 0.54312 0.60560 0.07200
H 	H 	0.91400 0.53690 0.65310 0.02100
C 	C 	0.82762 0.58800 0.56980 -0.06800
C 	C 	0.84605 0.62607 0.61710 -0.04400
H 	H 	0.87550 0.63880 0.63310 0.04600
H 	H 	0.72510 0.49490 0.59560 0.08700
O 	O 	0.62861 0.85292 0.91026 -0.41100
O 	O 	0.61595 0.84663 0.76841 -0.40900
C 	C 	0.60962 0.85473 0.84263 0.37200
C 	C 	0.57754 0.86963 0.85683 -0.13600
C 	C 	0.55741 0.87679 0.79013 0.07700
H 	H 	0.56307 0.87163 0.73313 0.01900
C 	C 	0.52866 0.89153 0.80423 -0.15100
H 	H 	0.51407 0.89513 0.75693 0.09500
C 	C 	0.52110 0.90099 0.88553 0.11300
C 	C 	0.54032 0.89234 0.95293 -0.15200
H 	H 	0.53457 0.89733 0.01003 0.08200
C 	C 	0.56809 0.87645 0.93893 0.07200
H 	H 	0.58067 0.87023 0.98643 0.02100
C 	C 	0.49429 0.92133 0.90313 -0.06800
C 	C 	0.51272 0.95940 0.95043 -0.04400
H 	H 	0.54217 0.97213 0.96643 0.04600
H 	H 	0.39177 0.82823 0.92893 0.08700
O 	O 	0.29527 0.18626 0.24360 -0.41100
O 	O 	0.28261 0.17997 0.10175 -0.40900
C 	C 	0.27628 0.18807 0.17597 0.37200
C 	C 	0.24420 0.20297 0.19017 -0.13600
C 	C 	0.22407 0.21013 0.12347 0.07700
H 	H 	0.22973 0.20497 0.06647 0.01900
C 	C 	0.19532 0.22487 0.13757 -0.15100
H 	H 	0.18073 0.22847 0.09027 0.09500
C 	C 	0.18776 0.23433 0.21887 0.11300
C 	C 	0.20698 0.22568 0.28627 -0.15200
H 	H 	0.20123 0.23067 0.34337 0.08200
C 	C 	0.23475 0.20979 0.27227 0.07200
H 	H 	0.24733 0.20357 0.31977 0.02100
C 	C 	0.16095 0.25467 0.23647 -0.06800
C 	C 	0.17938 0.29274 0.28377 -0.04400
H 	H 	0.20883 0.30547 0.29977 0.04600
H 	H 	0.05843 0.16157 0.26227 0.08700
O 	O 	0.48041 0.44235 0.57693 -0.41100
O 	O 	0.48670 0.43598 0.43508 -0.40900
C 	C 	0.47860 0.42155 0.50930 0.37200
C 	C 	0.46370 0.37457 0.52350 -0.13600
C 	C 	0.45654 0.34728 0.45680 0.07700
H 	H 	0.46170 0.35810 0.39980 0.01900
C 	C 	0.44180 0.30379 0.47090 -0.15100
H 	H 	0.43820 0.28560 0.42360 0.09500
C 	C 	0.43234 0.28677 0.55220 0.11300
C 	C 	0.44099 0.31464 0.61960 -0.15200
H 	H 	0.43600 0.30390 0.67670 0.08200
C 	C 	0.45688 0.35830 0.60560 0.07200
H 	H 	0.46310 0.37710 0.65310 0.02100
C 	C 	0.41200 0.23962 0.56980 -0.06800
C 	C 	0.37393 0.21998 0.61710 -0.04400
H 	H 	0.36120 0.23670 0.63310 0.04600
H 	H 	0.50510 0.23020 0.59560 0.08700
O 	O 	0.14708 0.77568 0.91026 -0.41100
O 	O 	0.15337 0.76931 0.76841 -0.40900
C 	C 	0.14527 0.75488 0.84263 0.37200
C 	C 	0.13037 0.70790 0.85683 -0.13600
C 	C 	0.12321 0.68061 0.79013 0.07700
H 	H 	0.12837 0.69143 0.73313 0.01900
C 	C 	0.10847 0.63712 0.80423 -0.15100
H 	H 	0.10487 0.61893 0.75693 0.09500
C 	C 	0.09901 0.62010 0.88553 0.11300
C 	C 	0.10766 0.64797 0.95293 -0.15200
H 	H 	0.10267 0.63723 0.01003 0.08200
C 	C 	0.12355 0.69163 0.93893 0.07200
H 	H 	0.12977 0.71043 0.98643 0.02100
C 	C 	0.07867 0.57295 0.90313 -0.06800
C 	C 	0.04060 0.55331 0.95043 -0.04400
H 	H 	0.02787 0.57003 0.96643 0.04600
H 	H 	0.17177 0.56353 0.92893 0.08700
O 	O 	0.81374 0.10902 0.24360 -0.41100
O 	O 	0.82003 0.10265 0.10175 -0.40900
C 	C 	0.81193 0.08822 0.17597 0.37200
C 	C 	0.79703 0.04124 0.19017 -0.13600
C 	C 	0.78987 0.01395 0.12347 0.07700
H 	H 	0.79503 0.02477 0.06647 0.01900
C 	C 	0.77513 0.97046 0.13757 -0.15100
H 	H 	0.77153 0.95227 0.09027 0.09500
C 	C 	0.76567 0.95344 0.21887 0.11400
C 	C 	0.77432 0.98131 0.28627 -0.15200
H 	H 	0.76933 0.97057 0.34337 0.08200
C 	C 	0.79021 0.02497 0.27227 0.07200
H 	H 	0.79643 0.04377 0.31977 0.02100
C 	C 	0.74533 0.90629 0.23647 -0.06800
C 	C 	0.70726 0.88665 0.28377 -0.04400
H 	H 	0.69453 0.90337 0.29977 0.04600
H 	H 	0.83843 0.89687 0.26227 0.08700
O 	O 	0.03806 0.55765 0.42307 -0.41100
O 	O 	0.05072 0.56402 0.56492 -0.40900
C 	C 	0.05705 0.57845 0.49070 0.37200
C 	C 	0.08913 0.62543 0.47650 -0.13600
C 	C 	0.10926 0.65272 0.54320 0.07700
H 	H 	0.10360 0.64190 0.60020 0.01900
C 	C 	0.13801 0.69621 0.52910 -0.15100
H 	H 	0.15260 0.71440 0.57640 0.09500
C 	C 	0.14557 0.71323 0.44780 0.11300
C 	C 	0.12635 0.68536 0.38040 -0.15200
H 	H 	0.13210 0.69610 0.32330 0.08200
C 	C 	0.09858 0.64170 0.39440 0.07200
H 	H 	0.08600 0.62290 0.34690 0.02100
C 	C 	0.17238 0.76038 0.43020 -0.06800
C 	C 	0.15395 0.78002 0.38290 -0.04400
H 	H 	0.12450 0.76330 0.36690 0.04600
H 	H 	0.27490 0.76980 0.40440 0.08700
O 	O 	0.70473 0.89098 0.75640 -0.41100
O 	O 	0.71739 0.89735 0.89825 -0.40900
C 	C 	0.72372 0.91178 0.82403 0.37200
C 	C 	0.75580 0.95876 0.80983 -0.13600
C 	C 	0.77593 0.98605 0.87653 0.07700
H 	H 	0.77027 0.97523 0.93353 0.01900
C 	C 	0.80468 0.02954 0.86243 -0.15100
H 	H 	0.81927 0.04773 0.90973 0.09500
C 	C 	0.81224 0.04656 0.78113 0.11300
C 	C 	0.79302 0.01869 0.71373 -0.15200
H 	H 	0.79877 0.02943 0.65663 0.08200
C 	C 	0.76525 0.97503 0.72773 0.07200
H 	H 	0.75267 0.95623 0.68023 0.02100
C 	C 	0.83905 0.09371 0.76353 -0.06800
C 	C 	0.82062 0.11335 0.71623 -0.04400
H 	H 	0.79117 0.09663 0.70023 0.04600
H 	H 	0.94157 0.10313 0.73773 0.08700
O 	O 	0.37139 0.22432 0.08974 -0.41100
O 	O 	0.38405 0.23069 0.23159 -0.40900
C 	C 	0.39038 0.24512 0.15737 0.37200
C 	C 	0.42246 0.29210 0.14317 -0.13600
C 	C 	0.44259 0.31939 0.20987 0.07700
H 	H 	0.43693 0.30857 0.26687 0.01900
C 	C 	0.47134 0.36288 0.19577 -0.15100
H 	H 	0.48593 0.38107 0.24307 0.09500
C 	C 	0.47890 0.37990 0.11447 0.11300
C 	C 	0.45968 0.35203 0.04707 -0.15200
H 	H 	0.46543 0.36277 0.98997 0.08200
C 	C 	0.43191 0.30837 0.06107 0.07200
H 	H 	0.41933 0.28957 0.01357 0.02100
C 	C 	0.50571 0.42705 0.09687 -0.06800
C 	C 	0.48728 0.44669 0.04957 -0.04400
H 	H 	0.45783 0.42997 0.03357 0.04600
H 	H 	0.60823 0.43647 0.07107 0.08700
O 	O 	0.51959 0.96194 0.42307 -0.41100
O 	O 	0.51330 0.94928 0.56492 -0.40900
C 	C 	0.52140 0.94295 0.49070 0.37200
C 	C 	0.53630 0.91087 0.47650 -0.13600
C 	C 	0.54346 0.89074 0.54320 0.07700
H 	H 	0.53830 0.89640 0.60020 0.01900
C 	C 	0.55820 0.86199 0.52910 -0.15100
H 	H 	0.56180 0.84740 0.57640 0.09500
C 	C 	0.56766 0.85443 0.44780 0.11300
C 	C 	0.55901 0.87365 0.38040 -0.15200
H 	H 	0.56400 0.86790 0.32330 0.08200
C 	C 	0.54312 0.90142 0.39440 0.07200
H 	H 	0.53690 0.91400 0.34690 0.02100
C 	C 	0.58800 0.82762 0.43020 -0.06800
C 	C 	0.62607 0.84605 0.38290 -0.04400
H 	H 	0.63880 0.87550 0.36690 0.04600
H 	H 	0.49490 0.72510 0.40440 0.08700
O 	O 	0.18626 0.29527 0.75640 -0.41100
O 	O 	0.17997 0.28261 0.89825 -0.40900
C 	C 	0.18807 0.27628 0.82403 0.37200
C 	C 	0.20297 0.24420 0.80983 -0.13600
C 	C 	0.21013 0.22407 0.87653 0.07700
H 	H 	0.20497 0.22973 0.93353 0.01900
C 	C 	0.22487 0.19532 0.86243 -0.15100
H 	H 	0.22847 0.18073 0.90973 0.09500
C 	C 	0.23433 0.18776 0.78113 0.11300
C 	C 	0.22568 0.20698 0.71373 -0.15200
H 	H 	0.23067 0.20123 0.65663 0.08200
C 	C 	0.20979 0.23475 0.72773 0.07200
H 	H 	0.20357 0.24733 0.68023 0.02100
C 	C 	0.25467 0.16095 0.76353 -0.06800
C 	C 	0.29274 0.17938 0.71623 -0.04400
H 	H 	0.30547 0.20883 0.70023 0.04600
H 	H 	0.16157 0.05843 0.73773 0.08700
O 	O 	0.85292 0.62861 0.08974 -0.41100
O 	O 	0.84663 0.61595 0.23159 -0.40900
C 	C 	0.85473 0.60962 0.15737 0.37200
C 	C 	0.86963 0.57754 0.14317 -0.13600
C 	C 	0.87679 0.55741 0.20987 0.07700
H 	H 	0.87163 0.56307 0.26687 0.01900
C 	C 	0.89153 0.52866 0.19577 -0.15100
H 	H 	0.89513 0.51407 0.24307 0.09500
C 	C 	0.90099 0.52110 0.11447 0.11300
C 	C 	0.89234 0.54032 0.04707 -0.15200
H 	H 	0.89733 0.53457 0.98997 0.08200
C 	C 	0.87645 0.56809 0.06107 0.07200
H 	H 	0.87023 0.58067 0.01357 0.02100
C 	C 	0.92133 0.49429 0.09687 -0.06800
C 	C 	0.95940 0.51272 0.04957 -0.04400
H 	H 	0.97213 0.54217 0.03357 0.04600
H 	H 	0.82823 0.39177 0.07107 0.08700
O 	O 	0.44235 0.48041 0.42307 -0.41100
O 	O 	0.43598 0.48670 0.56492 -0.40900
C 	C 	0.42155 0.47860 0.49070 0.37200
C 	C 	0.37457 0.46370 0.47650 -0.13600
C 	C 	0.34728 0.45654 0.54320 0.07700
H 	H 	0.35810 0.46170 0.60020 0.01900
C 	C 	0.30379 0.44180 0.52910 -0.15100
H 	H 	0.28560 0.43820 0.57640 0.09500
C 	C 	0.28677 0.43234 0.44780 0.11300
C 	C 	0.31464 0.44099 0.38040 -0.15200
H 	H 	0.30390 0.43600 0.32330 0.08200
C 	C 	0.35830 0.45688 0.39440 0.07200
H 	H 	0.37710 0.46310 0.34690 0.02100
C 	C 	0.23962 0.41200 0.43020 -0.06800
C 	C 	0.21998 0.37393 0.38290 -0.04400
H 	H 	0.23670 0.36120 0.36690 0.04600
H 	H 	0.23020 0.50510 0.40440 0.08700
O 	O 	0.10902 0.81374 0.75640 -0.41100
O 	O 	0.10265 0.82003 0.89825 -0.40900
C 	C 	0.08822 0.81193 0.82403 0.37200
C 	C 	0.04124 0.79703 0.80983 -0.13600
C 	C 	0.01395 0.78987 0.87653 0.07700
H 	H 	0.02477 0.79503 0.93353 0.01900
C 	C 	0.97046 0.77513 0.86243 -0.15100
H 	H 	0.95227 0.77153 0.90973 0.09500
C 	C 	0.95344 0.76567 0.78113 0.11400
C 	C 	0.98131 0.77432 0.71373 -0.15200
H 	H 	0.97057 0.76933 0.65663 0.08200
C 	C 	0.02497 0.79021 0.72773 0.07200
H 	H 	0.04377 0.79643 0.68023 0.02100
C 	C 	0.90629 0.74533 0.76353 -0.06800
C 	C 	0.88665 0.70726 0.71623 -0.04400
H 	H 	0.90337 0.69453 0.70023 0.04600
H 	H 	0.89687 0.83843 0.73773 0.08700
O 	O 	0.77568 0.14708 0.08974 -0.41100
O 	O 	0.76931 0.15337 0.23159 -0.40900
C 	C 	0.75488 0.14527 0.15737 0.37200
C 	C 	0.70790 0.13037 0.14317 -0.13600
C 	C 	0.68061 0.12321 0.20987 0.07700
H 	H 	0.69143 0.12837 0.26687 0.01900
C 	C 	0.63712 0.10847 0.19577 -0.15100
H 	H 	0.61893 0.10487 0.24307 0.09500
C 	C 	0.62010 0.09901 0.11447 0.11300
C 	C 	0.64797 0.10766 0.04707 -0.15200
H 	H 	0.63723 0.10267 0.98997 0.08200
C 	C 	0.69163 0.12355 0.06107 0.07200
H 	H 	0.71043 0.12977 0.01357 0.02100
C 	C 	0.57295 0.07867 0.09687 -0.06800
C 	C 	0.55331 0.04060 0.04957 -0.04400
H 	H 	0.57003 0.02787 0.03357 0.04600
H 	H 	0.56353 0.17177 0.07107 0.08700
O 	O 	0.44235 0.96194 0.42307 -0.41100
O 	O 	0.43598 0.94928 0.56492 -0.40900
C 	C 	0.42155 0.94295 0.49070 0.37200
C 	C 	0.37457 0.91087 0.47650 -0.13600
C 	C 	0.34728 0.89074 0.54320 0.07700
H 	H 	0.35810 0.89640 0.60020 0.01900
C 	C 	0.30379 0.86199 0.52910 -0.15100
H 	H 	0.28560 0.84740 0.57640 0.09500
C 	C 	0.28677 0.85443 0.44780 0.11300
C 	C 	0.31464 0.87365 0.38040 -0.15200
H 	H 	0.30390 0.86790 0.32330 0.08200
C 	C 	0.35830 0.90142 0.39440 0.07200
H 	H 	0.37710 0.91400 0.34690 0.02100
C 	C 	0.23962 0.82762 0.43020 -0.06800
C 	C 	0.21998 0.84605 0.38290 -0.04400
H 	H 	0.23670 0.87550 0.36690 0.04600
H 	H 	0.23020 0.72510 0.40440 0.08700
O 	O 	0.10902 0.29527 0.75640 -0.41100
O 	O 	0.10265 0.28261 0.89825 -0.40900
C 	C 	0.08822 0.27628 0.82403 0.37200
C 	C 	0.04124 0.24420 0.80983 -0.13600
C 	C 	0.01395 0.22407 0.87653 0.07700
H 	H 	0.02477 0.22973 0.93353 0.01900
C 	C 	0.97046 0.19532 0.86243 -0.15100
H 	H 	0.95227 0.18073 0.90973 0.09500
C 	C 	0.95344 0.18776 0.78113 0.11300
C 	C 	0.98131 0.20698 0.71373 -0.15200
H 	H 	0.97057 0.20123 0.65663 0.08200
C 	C 	0.02497 0.23475 0.72773 0.07200
H 	H 	0.04377 0.24733 0.68023 0.02100
C 	C 	0.90629 0.16095 0.76353 -0.06800
C 	C 	0.88665 0.17938 0.71623 -0.04400
H 	H 	0.90337 0.20883 0.70023 0.04600
H 	H 	0.89687 0.05843 0.73773 0.08700
O 	O 	0.77568 0.62861 0.08974 -0.41100
O 	O 	0.76931 0.61595 0.23159 -0.40900
C 	C 	0.75488 0.60962 0.15737 0.37200
C 	C 	0.70790 0.57754 0.14317 -0.13600
C 	C 	0.68061 0.55741 0.20987 0.07700
H 	H 	0.69143 0.56307 0.26687 0.01900
C 	C 	0.63712 0.52866 0.19577 -0.15100
H 	H 	0.61893 0.51407 0.24307 0.09500
C 	C 	0.62010 0.52110 0.11447 0.11300
C 	C 	0.64797 0.54032 0.04707 -0.15200
H 	H 	0.63723 0.53457 0.98997 0.08200
C 	C 	0.69163 0.56809 0.06107 0.07200
H 	H 	0.71043 0.58067 0.01357 0.02100
C 	C 	0.57295 0.49429 0.09687 -0.06800
C 	C 	0.55331 0.51272 0.04957 -0.04400
H 	H 	0.57003 0.54217 0.03357 0.04600
H 	H 	0.56353 0.39177 0.07107 0.08700
O 	O 	0.03806 0.48041 0.42307 -0.41100
O 	O 	0.05072 0.48670 0.56492 -0.40900
C 	C 	0.05705 0.47860 0.49070 0.37200
C 	C 	0.08913 0.46370 0.47650 -0.13600
C 	C 	0.10926 0.45654 0.54320 0.07700
H 	H 	0.10360 0.46170 0.60020 0.01900
C 	C 	0.13801 0.44180 0.52910 -0.15100
H 	H 	0.15260 0.43820 0.57640 0.09500
C 	C 	0.14557 0.43234 0.44780 0.11300
C 	C 	0.12635 0.44099 0.38040 -0.15200
H 	H 	0.13210 0.43600 0.32330 0.08200
C 	C 	0.09858 0.45688 0.39440 0.07200
H 	H 	0.08600 0.46310 0.34690 0.02100
C 	C 	0.17238 0.41200 0.43020 -0.06800
C 	C 	0.15395 0.37393 0.38290 -0.04400
H 	H 	0.12450 0.36120 0.36690 0.04600
H 	H 	0.27490 0.50510 0.40440 0.08700
O 	O 	0.70473 0.81374 0.75640 -0.41100
O 	O 	0.71739 0.82003 0.89825 -0.40900
C 	C 	0.72372 0.81193 0.82403 0.37200
C 	C 	0.75580 0.79703 0.80983 -0.13600
C 	C 	0.77593 0.78987 0.87653 0.07700
H 	H 	0.77027 0.79503 0.93353 0.01900
C 	C 	0.80468 0.77513 0.86243 -0.15100
H 	H 	0.81927 0.77153 0.90973 0.09500
C 	C 	0.81224 0.76567 0.78113 0.11300
C 	C 	0.79302 0.77432 0.71373 -0.15200
H 	H 	0.79877 0.76933 0.65663 0.08200
C 	C 	0.76525 0.79021 0.72773 0.07200
H 	H 	0.75267 0.79643 0.68023 0.02100
C 	C 	0.83905 0.74533 0.76353 -0.06800
C 	C 	0.82062 0.70726 0.71623 -0.04400
H 	H 	0.79117 0.69453 0.70023 0.04600
H 	H 	0.94157 0.83843 0.73773 0.08700
O 	O 	0.37139 0.14708 0.08974 -0.41100
O 	O 	0.38405 0.15337 0.23159 -0.40900
C 	C 	0.39038 0.14527 0.15737 0.37200
C 	C 	0.42246 0.13037 0.14317 -0.13600
C 	C 	0.44259 0.12321 0.20987 0.07700
H 	H 	0.43693 0.12837 0.26687 0.01900
C 	C 	0.47134 0.10847 0.19577 -0.15100
H 	H 	0.48593 0.10487 0.24307 0.09500
C 	C 	0.47890 0.09901 0.11447 0.11300
C 	C 	0.45968 0.10766 0.04707 -0.15200
H 	H 	0.46543 0.10267 0.98997 0.08200
C 	C 	0.43191 0.12355 0.06107 0.07200
H 	H 	0.41933 0.12977 0.01357 0.02100
C 	C 	0.50571 0.07867 0.09687 -0.06800
C 	C 	0.48728 0.04060 0.04957 -0.04400
H 	H 	0.45783 0.02787 0.03357 0.04600
H 	H 	0.60823 0.17177 0.07107 0.08700
O 	O 	0.51959 0.55765 0.42307 -0.41100
O 	O 	0.51330 0.56402 0.56492 -0.40900
C 	C 	0.52140 0.57845 0.49070 0.37200
C 	C 	0.53630 0.62543 0.47650 -0.13600
C 	C 	0.54346 0.65272 0.54320 0.07700
H 	H 	0.53830 0.64190 0.60020 0.01900
C 	C 	0.55820 0.69621 0.52910 -0.15100
H 	H 	0.56180 0.71440 0.57640 0.09500
C 	C 	0.56766 0.71323 0.44780 0.11300
C 	C 	0.55901 0.68536 0.38040 -0.15200
H 	H 	0.56400 0.69610 0.32330 0.08200
C 	C 	0.54312 0.64170 0.39440 0.07200
H 	H 	0.53690 0.62290 0.34690 0.02100
C 	C 	0.58800 0.76038 0.43020 -0.06800
C 	C 	0.62607 0.78002 0.38290 -0.04400
H 	H 	0.63880 0.76330 0.36690 0.04600
H 	H 	0.49490 0.76980 0.40440 0.08700
O 	O 	0.18626 0.89098 0.75640 -0.41100
O 	O 	0.17997 0.89735 0.89825 -0.40900
C 	C 	0.18807 0.91178 0.82403 0.37200
C 	C 	0.20297 0.95876 0.80983 -0.13600
C 	C 	0.21013 0.98605 0.87653 0.07700
H 	H 	0.20497 0.97523 0.93353 0.01900
C 	C 	0.22487 0.02954 0.86243 -0.15100
H 	H 	0.22847 0.04773 0.90973 0.09500
C 	C 	0.23433 0.04656 0.78113 0.11400
C 	C 	0.22568 0.01869 0.71373 -0.15200
H 	H 	0.23067 0.02943 0.65663 0.08200
C 	C 	0.20979 0.97503 0.72773 0.07200
H 	H 	0.20357 0.95623 0.68023 0.02100
C 	C 	0.25467 0.09371 0.76353 -0.06800
C 	C 	0.29274 0.11335 0.71623 -0.04400
H 	H 	0.30547 0.09663 0.70023 0.04600
H 	H 	0.16157 0.10313 0.73773 0.08700
O 	O 	0.85292 0.22432 0.08974 -0.41100
O 	O 	0.84663 0.23069 0.23159 -0.40900
C 	C 	0.85473 0.24512 0.15737 0.37200
C 	C 	0.86963 0.29210 0.14317 -0.13600
C 	C 	0.87679 0.31939 0.20987 0.07700
H 	H 	0.87163 0.30857 0.26687 0.01900
C 	C 	0.89153 0.36288 0.19577 -0.15100
H 	H 	0.89513 0.38107 0.24307 0.09500
C 	C 	0.90099 0.37990 0.11447 0.11300
C 	C 	0.89234 0.35203 0.04707 -0.15200
H 	H 	0.89733 0.36277 0.98997 0.08200
C 	C 	0.87645 0.30837 0.06107 0.07200
H 	H 	0.87023 0.28957 0.01357 0.02100
C 	C 	0.92133 0.42705 0.09687 -0.06800
C 	C 	0.95940 0.44669 0.04957 -0.04400
H 	H 	0.97213 0.42997 0.03357 0.04600
H 	H 	0.82823 0.43647 0.07107 0.08700
O 	O 	0.96194 0.44235 0.57693 -0.41100
O 	O 	0.94928 0.43598 0.43508 -0.40900
C 	C 	0.94295 0.42155 0.50930 0.37200
C 	C 	0.91087 0.37457 0.52350 -0.13600
C 	C 	0.89074 0.34728 0.45680 0.07700
H 	H 	0.89640 0.35810 0.39980 0.01900
C 	C 	0.86199 0.30379 0.47090 -0.15100
H 	H 	0.84740 0.28560 0.42360 0.09500
C 	C 	0.85443 0.28677 0.55220 0.11300
C 	C 	0.87365 0.31464 0.61960 -0.15200
H 	H 	0.86790 0.30390 0.67670 0.08200
C 	C 	0.90142 0.35830 0.60560 0.07200
H 	H 	0.91400 0.37710 0.65310 0.02100
C 	C 	0.82762 0.23962 0.56980 -0.06800
C 	C 	0.84605 0.21998 0.61710 -0.04400
H 	H 	0.87550 0.23670 0.63310 0.04600
H 	H 	0.72510 0.23020 0.59560 0.08700
O 	O 	0.62861 0.77568 0.91026 -0.41100
O 	O 	0.61595 0.76931 0.76841 -0.40900
C 	C 	0.60962 0.75488 0.84263 0.37200
C 	C 	0.57754 0.70790 0.85683 -0.13600
C 	C 	0.55741 0.68061 0.79013 0.07700
H 	H 	0.56307 0.69143 0.73313 0.01900
C 	C 	0.52866 0.63712 0.80423 -0.15100
H 	H 	0.51407 0.61893 0.75693 0.09500
C 	C 	0.52110 0.62010 0.88553 0.11300
C 	C 	0.54032 0.64797 0.95293 -0.15200
H 	H 	0.53457 0.63723 0.01003 0.08200
C 	C 	0.56809 0.69163 0.93893 0.07200
H 	H 	0.58067 0.71043 0.98643 0.02100
C 	C 	0.49429 0.57295 0.90313 -0.06800
C 	C 	0.51272 0.55331 0.95043 -0.04400
H 	H 	0.54217 0.57003 0.96643 0.04600
H 	H 	0.39177 0.56353 0.92893 0.08700
O 	O 	0.29527 0.10902 0.24360 -0.41100
O 	O 	0.28261 0.10265 0.10175 -0.40900
C 	C 	0.27628 0.08822 0.17597 0.37200
C 	C 	0.24420 0.04124 0.19017 -0.13600
C 	C 	0.22407 0.01395 0.12347 0.07700
H 	H 	0.22973 0.02477 0.06647 0.01900
C 	C 	0.19532 0.97046 0.13757 -0.15100
H 	H 	0.18073 0.95227 0.09027 0.09500
C 	C 	0.18776 0.95344 0.21887 0.11300
C 	C 	0.20698 0.98131 0.28627 -0.15200
H 	H 	0.20123 0.97057 0.34337 0.08200
C 	C 	0.23475 0.02497 0.27227 0.07200
H 	H 	0.24733 0.04377 0.31977 0.02100
C 	C 	0.16095 0.90629 0.23647 -0.06800
C 	C 	0.17938 0.88665 0.28377 -0.04400
H 	H 	0.20883 0.90337 0.29977 0.04600
H 	H 	0.05843 0.89687 0.26227 0.08700
O 	O 	0.48041 0.03806 0.57693 -0.41100
O 	O 	0.48670 0.05072 0.43508 -0.40900
C 	C 	0.47860 0.05705 0.50930 0.37200
C 	C 	0.46370 0.08913 0.52350 -0.13600
C 	C 	0.45654 0.10926 0.45680 0.07700
H 	H 	0.46170 0.10360 0.39980 0.01900
C 	C 	0.44180 0.13801 0.47090 -0.15100
H 	H 	0.43820 0.15260 0.42360 0.09500
C 	C 	0.43234 0.14557 0.55220 0.11300
C 	C 	0.44099 0.12635 0.61960 -0.15200
H 	H 	0.43600 0.13210 0.67670 0.08200
C 	C 	0.45688 0.09858 0.60560 0.07200
H 	H 	0.46310 0.08600 0.65310 0.02100
C 	C 	0.41200 0.17238 0.56980 -0.06800
C 	C 	0.37393 0.15395 0.61710 -0.04400
H 	H 	0.36120 0.12450 0.63310 0.04600
H 	H 	0.50510 0.27490 0.59560 0.08700
O 	O 	0.14708 0.37139 0.91026 -0.41100
O 	O 	0.15337 0.38405 0.76841 -0.40900
C 	C 	0.14527 0.39038 0.84263 0.37200
C 	C 	0.13037 0.42246 0.85683 -0.13600
C 	C 	0.12321 0.44259 0.79013 0.07700
H 	H 	0.12837 0.43693 0.73313 0.01900
C 	C 	0.10847 0.47134 0.80423 -0.15100
H 	H 	0.10487 0.48593 0.75693 0.09500
C 	C 	0.09901 0.47890 0.88553 0.11300
C 	C 	0.10766 0.45968 0.95293 -0.15200
H 	H 	0.10267 0.46543 0.01003 0.08200
C 	C 	0.12355 0.43191 0.93893 0.07200
H 	H 	0.12977 0.41933 0.98643 0.02100
C 	C 	0.07867 0.50571 0.90313 -0.06800
C 	C 	0.04060 0.48728 0.95043 -0.04400
H 	H 	0.02787 0.45783 0.96643 0.04600
H 	H 	0.17177 0.60823 0.92893 0.08700
O 	O 	0.81374 0.70473 0.24360 -0.41100
O 	O 	0.82003 0.71739 0.10175 -0.40900
C 	C 	0.81193 0.72372 0.17597 0.37200
C 	C 	0.79703 0.75580 0.19017 -0.13600
C 	C 	0.78987 0.77593 0.12347 0.07700
H 	H 	0.79503 0.77027 0.06647 0.01900
C 	C 	0.77513 0.80468 0.13757 -0.15100
H 	H 	0.77153 0.81927 0.09027 0.09500
C 	C 	0.76567 0.81224 0.21887 0.11300
C 	C 	0.77432 0.79302 0.28627 -0.15200
H 	H 	0.76933 0.79877 0.34337 0.08200
C 	C 	0.79021 0.76525 0.27227 0.07200
H 	H 	0.79643 0.75267 0.31977 0.02100
C 	C 	0.74533 0.83905 0.23647 -0.06800
C 	C 	0.70726 0.82062 0.28377 -0.04400
H 	H 	0.69453 0.79117 0.29977 0.04600
H 	H 	0.83843 0.94157 0.26227 0.08700
O 	O 	0.55765 0.51959 0.57693 -0.41100
O 	O 	0.56402 0.51330 0.43508 -0.40900
C 	C 	0.57845 0.52140 0.50930 0.37200
C 	C 	0.62543 0.53630 0.52350 -0.13600
C 	C 	0.65272 0.54346 0.45680 0.07700
H 	H 	0.64190 0.53830 0.39980 0.01900
C 	C 	0.69621 0.55820 0.47090 -0.15100
H 	H 	0.71440 0.56180 0.42360 0.09500
C 	C 	0.71323 0.56766 0.55220 0.11300
C 	C 	0.68536 0.55901 0.61960 -0.15200
H 	H 	0.69610 0.56400 0.67670 0.08200
C 	C 	0.64170 0.54312 0.60560 0.07200
H 	H 	0.62290 0.53690 0.65310 0.02100
C 	C 	0.76038 0.58800 0.56980 -0.06800
C 	C 	0.78002 0.62607 0.61710 -0.04400
H 	H 	0.76330 0.63880 0.63310 0.04600
H 	H 	0.76980 0.49490 0.59560 0.08700
O 	O 	0.22432 0.85292 0.91026 -0.41100
O 	O 	0.23069 0.84663 0.76841 -0.40900
C 	C 	0.24512 0.85473 0.84263 0.37200
C 	C 	0.29210 0.86963 0.85683 -0.13600
C 	C 	0.31939 0.87679 0.79013 0.07700
H 	H 	0.30857 0.87163 0.73313 0.01900
C 	C 	0.36288 0.89153 0.80423 -0.15100
H 	H 	0.38107 0.89513 0.75693 0.09500
C 	C 	0.37990 0.90099 0.88553 0.11300
C 	C 	0.35203 0.89234 0.95293 -0.15200
H 	H 	0.36277 0.89733 0.01003 0.08200
C 	C 	0.30837 0.87645 0.93893 0.07200
H 	H 	0.28957 0.87023 0.98643 0.02100
C 	C 	0.42705 0.92133 0.90313 -0.06800
C 	C 	0.44669 0.95940 0.95043 -0.04400
H 	H 	0.42997 0.97213 0.96643 0.04600
H 	H 	0.43647 0.82823 0.92893 0.08700
O 	O 	0.89098 0.18626 0.24360 -0.41100
O 	O 	0.89735 0.17997 0.10175 -0.40900
C 	C 	0.91178 0.18807 0.17597 0.37200
C 	C 	0.95876 0.20297 0.19017 -0.13600
C 	C 	0.98605 0.21013 0.12347 0.07700
H 	H 	0.97523 0.20497 0.06647 0.01900
C 	C 	0.02954 0.22487 0.13757 -0.15100
H 	H 	0.04773 0.22847 0.09027 0.09500
C 	C 	0.04656 0.23433 0.21887 0.11400
C 	C 	0.01869 0.22568 0.28627 -0.15200
H 	H 	0.02943 0.23067 0.34337 0.08200
C 	C 	0.97503 0.20979 0.27227 0.07200
H 	H 	0.95623 0.20357 0.31977 0.02100
C 	C 	0.09371 0.25467 0.23647 -0.06800
C 	C 	0.11335 0.29274 0.28377 -0.04400
H 	H 	0.09663 0.30547 0.29977 0.04600
H 	H 	0.10313 0.16157 0.26227 0.08700
Cu	Cu	0.50350 0.00699 0.41616 0.90400
Cu	Cu	0.17016 0.34032 0.74949 0.90400
Cu	Cu	0.83683 0.67366 0.08283 0.90400
Cu	Cu	0.99301 0.49650 0.41616 0.90400
Cu	Cu	0.65968 0.82984 0.74949 0.90400
Cu	Cu	0.32634 0.16317 0.08283 0.90400
Cu	Cu	0.50350 0.49650 0.41616 0.90400
Cu	Cu	0.17016 0.82984 0.74949 0.90400
Cu	Cu	0.83683 0.16317 0.08283 0.90400
Cu	Cu	0.00699 0.50350 0.58384 0.90400
Cu	Cu	0.67366 0.83683 0.91717 0.90400
Cu	Cu	0.34032 0.17016 0.25051 0.90400
Cu	Cu	0.49650 0.99301 0.58384 0.90400
Cu	Cu	0.16317 0.32634 0.91717 0.90400
Cu	Cu	0.82984 0.65968 0.25051 0.90400
Cu	Cu	0.49650 0.50350 0.58384 0.90400
Cu	Cu	0.16317 0.83683 0.91717 0.90400
Cu	Cu	0.82984 0.17016 0.25051 0.90400
O 	O 	0.76563 0.23437 0.50030 -0.17500
C 	C 	0.82311 0.17689 0.64200 0.00500
C 	C 	0.78477 0.21523 0.54510 0.12300
C 	C 	0.74695 0.25305 0.55930 -0.17500
H 	H 	0.73360 0.26640 0.52590 0.09100
O 	O 	0.43230 0.56770 0.83363 -0.17500
C 	C 	0.48978 0.51022 0.97533 0.00500
C 	C 	0.45144 0.54856 0.87843 0.12300
C 	C 	0.41362 0.58638 0.89263 -0.17500
H 	H 	0.40027 0.59973 0.85923 0.09100
O 	O 	0.09896 0.90104 0.16697 -0.17500
C 	C 	0.15644 0.84356 0.30867 0.00500
C 	C 	0.11810 0.88190 0.21177 0.12300
C 	C 	0.08028 0.91972 0.22597 -0.17500
H 	H 	0.06693 0.93307 0.19257 0.09100
O 	O 	0.76563 0.53126 0.50030 -0.17500
C 	C 	0.82311 0.64622 0.64200 0.00500
C 	C 	0.78477 0.56954 0.54510 0.12300
C 	C 	0.74695 0.49390 0.55930 -0.17500
H 	H 	0.73360 0.46720 0.52590 0.09100
O 	O 	0.43230 0.86459 0.83363 -0.17500
C 	C 	0.48978 0.97955 0.97533 0.00500
C 	C 	0.45144 0.90287 0.87843 0.12300
C 	C 	0.41362 0.82723 0.89263 -0.17500
H 	H 	0.40027 0.80053 0.85923 0.09100
O 	O 	0.09896 0.19793 0.16697 -0.17500
C 	C 	0.15644 0.31289 0.30867 0.00500
C 	C 	0.11810 0.23621 0.21177 0.12300
C 	C 	0.08028 0.16057 0.22597 -0.17500
H 	H 	0.06693 0.13387 0.19257 0.09100
O 	O 	0.46874 0.23437 0.50030 -0.17500
C 	C 	0.35378 0.17689 0.64200 0.00500
C 	C 	0.43046 0.21523 0.54510 0.12300
C 	C 	0.50610 0.25305 0.55930 -0.17500
H 	H 	0.53280 0.26640 0.52590 0.09100
O 	O 	0.13541 0.56770 0.83363 -0.17500
C 	C 	0.02045 0.51022 0.97533 0.00500
C 	C 	0.09713 0.54856 0.87843 0.12300
C 	C 	0.17277 0.58638 0.89263 -0.17500
H 	H 	0.19947 0.59973 0.85923 0.09100
O 	O 	0.80207 0.90104 0.16697 -0.17500
C 	C 	0.68711 0.84356 0.30867 0.00500
C 	C 	0.76379 0.88190 0.21177 0.12300
C 	C 	0.83943 0.91972 0.22597 -0.17500
H 	H 	0.86613 0.93307 0.19257 0.09100
O 	O 	0.23437 0.76563 0.49970 -0.17500
C 	C 	0.17689 0.82311 0.35800 0.00500
C 	C 	0.21523 0.78477 0.45490 0.12300
C 	C 	0.25305 0.74695 0.44070 -0.17500
H 	H 	0.26640 0.73360 0.47410 0.09100
O 	O 	0.90104 0.09896 0.83303 -0.17500
C 	C 	0.84356 0.15644 0.69133 0.00500
C 	C 	0.88190 0.11810 0.78823 0.12300
C 	C 	0.91972 0.08028 0.77403 -0.17500
H 	H 	0.93307 0.06693 0.80743 0.09100
O 	O 	0.56770 0.43230 0.16637 -0.17500
C 	C 	0.51022 0.48978 0.02467 0.00500
C 	C 	0.54856 0.45144 0.12157 0.12300
C 	C 	0.58638 0.41362 0.10737 -0.17500
H 	H 	0.59973 0.40027 0.14077 0.09100
O 	O 	0.53126 0.76563 0.49970 -0.17500
C 	C 	0.64622 0.82311 0.35800 0.00500
C 	C 	0.56954 0.78477 0.45490 0.12300
C 	C 	0.49390 0.74695 0.44070 -0.17500
H 	H 	0.46720 0.73360 0.47410 0.09100
O 	O 	0.19793 0.09896 0.83303 -0.17500
C 	C 	0.31289 0.15644 0.69133 0.00500
C 	C 	0.23621 0.11810 0.78823 0.12300
C 	C 	0.16057 0.08028 0.77403 -0.17500
H 	H 	0.13387 0.06693 0.80743 0.09100
O 	O 	0.86459 0.43230 0.16637 -0.17500
C 	C 	0.97955 0.48978 0.02467 0.00500
C 	C 	0.90287 0.45144 0.12157 0.12300
C 	C 	0.82723 0.41362 0.10737 -0.17500
H 	H 	0.80053 0.40027 0.14077 0.09100
O 	O 	0.23437 0.46874 0.49970 -0.17500
C 	C 	0.17689 0.35378 0.35800 0.00500
C 	C 	0.21523 0.43046 0.45490 0.12300
C 	C 	0.25305 0.50610 0.44070 -0.17500
H 	H 	0.26640 0.53280 0.47410 0.09100
O 	O 	0.90104 0.80207 0.83303 -0.17500
C 	C 	0.84356 0.68711 0.69133 0.00500
C 	C 	0.88190 0.76379 0.78823 0.12300
C 	C 	0.91972 0.83943 0.77403 -0.17500
H 	H 	0.93307 0.86613 0.80743 0.09100
O 	O 	0.56770 0.13541 0.16637 -0.17500
C 	C 	0.51022 0.02045 0.02467 0.00500
C 	C 	0.54856 0.09713 0.12157 0.12300
C 	C 	0.58638 0.17277 0.10737 -0.17500
H 	H 	0.59973 0.19947 0.14077 0.09100
