data_crystal

_cell_length_a 35.63100
_cell_length_b 35.63100
_cell_length_c 17.33400
_cell_angle_alpha 90.00000
_cell_angle_beta  90.00000
_cell_angle_gamma 120.00000

_symmetry_space_group_name_	'P 1'
_symmetry_space_group_name_H-M	'P 1'

loop_
_symmetry_equiv_pos_as_xyz
  x,y,z

loop_
_atom_site_label
_atom_site_type_symbol
_atom_site_fract_x
_atom_site_fract_y
_atom_site_fract_z
_atom_site_charge
O 	O 	0.88915 0.18781 0.74710 -0.39300
O 	O 	0.89830 0.17809 0.61850 -0.40300
C 	C 	0.91105 0.18825 0.68620 0.33700
C 	C 	0.95810 0.20229 0.70600 -0.11100
C 	C 	0.98593 0.20573 0.64930 0.06200
H 	H 	0.97540 0.19840 0.59800 0.02800
C 	C 	0.02933 0.21965 0.66410 -0.14700
H 	H 	0.04760 0.21990 0.62390 0.09400
C 	C 	0.04516 0.23260 0.73460 0.11000
C 	C 	0.01775 0.22893 0.79500 -0.13800
H 	H 	0.02840 0.23610 0.84630 0.07900
C 	C 	0.97342 0.21418 0.77800 0.05500
H 	H 	0.95450 0.21270 0.81800 0.03100
C 	C 	0.09223 0.25229 0.75390 -0.06400
C 	C 	0.11250 0.29108 0.79190 -0.04100
H 	H 	0.09590 0.30440 0.80450 0.04600
H 	H 	0.05710 0.15910 0.77580 0.08200
O 	O 	0.55582 0.52114 0.08043 -0.39300
O 	O 	0.56497 0.51142 0.95183 -0.40300
C 	C 	0.57772 0.52158 0.01953 0.33700
C 	C 	0.62477 0.53562 0.03933 -0.11200
C 	C 	0.65260 0.53906 0.98263 0.06300
H 	H 	0.64207 0.53173 0.93133 0.02800
C 	C 	0.69600 0.55298 0.99743 -0.14700
H 	H 	0.71427 0.55323 0.95723 0.09400
C 	C 	0.71183 0.56593 0.06793 0.11100
C 	C 	0.68442 0.56226 0.12833 -0.13900
H 	H 	0.69507 0.56943 0.17963 0.08000
C 	C 	0.64009 0.54751 0.11133 0.05500
H 	H 	0.62117 0.54603 0.15133 0.03000
C 	C 	0.75890 0.58562 0.08723 -0.06500
C 	C 	0.77917 0.62441 0.12523 -0.04100
H 	H 	0.76257 0.63773 0.13783 0.04600
H 	H 	0.72377 0.49243 0.10913 0.08200
O 	O 	0.22248 0.85448 0.41377 -0.39300
O 	O 	0.23163 0.84476 0.28517 -0.40300
C 	C 	0.24438 0.85492 0.35287 0.33700
C 	C 	0.29143 0.86896 0.37267 -0.11200
C 	C 	0.31926 0.87240 0.31597 0.06300
H 	H 	0.30873 0.86507 0.26467 0.02800
C 	C 	0.36266 0.88632 0.33077 -0.14700
H 	H 	0.38093 0.88657 0.29057 0.09400
C 	C 	0.37849 0.89927 0.40127 0.11100
C 	C 	0.35108 0.89560 0.46167 -0.13900
H 	H 	0.36173 0.90277 0.51297 0.08000
C 	C 	0.30675 0.88085 0.44467 0.05500
H 	H 	0.28783 0.87937 0.48467 0.03100
C 	C 	0.42556 0.91896 0.42057 -0.06500
C 	C 	0.44583 0.95775 0.45857 -0.04100
H 	H 	0.42923 0.97107 0.47117 0.04600
H 	H 	0.39043 0.82577 0.44247 0.08200
O 	O 	0.81219 0.70134 0.74710 -0.39300
O 	O 	0.82191 0.72021 0.61850 -0.40300
C 	C 	0.81175 0.72280 0.68620 0.33700
C 	C 	0.79771 0.75581 0.70600 -0.11200
C 	C 	0.79427 0.78020 0.64930 0.06300
H 	H 	0.80160 0.77700 0.59800 0.02800
C 	C 	0.78035 0.80968 0.66410 -0.14700
H 	H 	0.78010 0.82770 0.62390 0.09400
C 	C 	0.76740 0.81256 0.73460 0.11100
C 	C 	0.77107 0.78882 0.79500 -0.13900
H 	H 	0.76390 0.79230 0.84630 0.08000
C 	C 	0.78582 0.75924 0.77800 0.05500
H 	H 	0.78730 0.74180 0.81800 0.03000
C 	C 	0.74771 0.83994 0.75390 -0.06600
C 	C 	0.70892 0.82142 0.79190 -0.04200
H 	H 	0.69560 0.79150 0.80450 0.04500
H 	H 	0.84090 0.89800 0.77580 0.08100
O 	O 	0.47886 0.03467 0.08043 -0.39400
O 	O 	0.48858 0.05354 0.95183 -0.40400
C 	C 	0.47842 0.05613 0.01953 0.33600
C 	C 	0.46438 0.08914 0.03933 -0.11300
C 	C 	0.46094 0.11353 0.98263 0.06100
H 	H 	0.46827 0.11033 0.93133 0.02700
C 	C 	0.44702 0.14301 0.99743 -0.14800
H 	H 	0.44677 0.16103 0.95723 0.09300
C 	C 	0.43407 0.14589 0.06793 0.11000
C 	C 	0.43774 0.12215 0.12833 -0.14000
H 	H 	0.43057 0.12563 0.17963 0.07900
C 	C 	0.45249 0.09257 0.11133 0.05400
H 	H 	0.45397 0.07513 0.15133 0.03000
C 	C 	0.41438 0.17327 0.08723 -0.06600
C 	C 	0.37559 0.15475 0.12523 -0.04200
H 	H 	0.36227 0.12483 0.13783 0.04500
H 	H 	0.50757 0.23133 0.10913 0.08100
O 	O 	0.14552 0.36801 0.41377 -0.39400
O 	O 	0.15524 0.38688 0.28517 -0.40400
C 	C 	0.14508 0.38947 0.35287 0.33600
C 	C 	0.13104 0.42248 0.37267 -0.11300
C 	C 	0.12760 0.44687 0.31597 0.06200
H 	H 	0.13493 0.44367 0.26467 0.02700
C 	C 	0.11368 0.47635 0.33077 -0.14800
H 	H 	0.11343 0.49437 0.29057 0.09300
C 	C 	0.10073 0.47923 0.40127 0.11000
C 	C 	0.10440 0.45549 0.46167 -0.14000
H 	H 	0.09723 0.45897 0.51297 0.07900
C 	C 	0.11915 0.42591 0.44467 0.05400
H 	H 	0.12063 0.40847 0.48467 0.03000
C 	C 	0.08104 0.50661 0.42057 -0.06600
C 	C 	0.04225 0.48809 0.45857 -0.04200
H 	H 	0.02893 0.45817 0.47117 0.04500
H 	H 	0.17423 0.56467 0.44247 0.08100
O 	O 	0.29866 0.11085 0.74710 -0.39400
O 	O 	0.27979 0.10170 0.61850 -0.40400
C 	C 	0.27720 0.08895 0.68620 0.33600
C 	C 	0.24419 0.04190 0.70600 -0.11200
C 	C 	0.21980 0.01407 0.64930 0.06100
H 	H 	0.22300 0.02460 0.59800 0.02700
C 	C 	0.19032 0.97067 0.66410 -0.14800
H 	H 	0.17230 0.95240 0.62390 0.09300
C 	C 	0.18744 0.95484 0.73460 0.10900
C 	C 	0.21118 0.98225 0.79500 -0.13900
H 	H 	0.20770 0.97160 0.84630 0.07800
C 	C 	0.24076 0.02658 0.77800 0.05400
H 	H 	0.25820 0.04550 0.81800 0.03000
C 	C 	0.16006 0.90777 0.75390 -0.06500
C 	C 	0.17858 0.88750 0.79190 -0.04200
H 	H 	0.20850 0.90410 0.80450 0.04500
H 	H 	0.10200 0.94290 0.77580 0.08100
O 	O 	0.96533 0.44418 0.08043 -0.39300
O 	O 	0.94646 0.43503 0.95183 -0.40400
C 	C 	0.94387 0.42228 0.01953 0.33600
C 	C 	0.91086 0.37523 0.03933 -0.11300
C 	C 	0.88647 0.34740 0.98263 0.06100
H 	H 	0.88967 0.35793 0.93133 0.02700
C 	C 	0.85699 0.30400 0.99743 -0.14800
H 	H 	0.83897 0.28573 0.95723 0.09300
C 	C 	0.85411 0.28817 0.06793 0.11000
C 	C 	0.87785 0.31558 0.12833 -0.14000
H 	H 	0.87437 0.30493 0.17963 0.07900
C 	C 	0.90743 0.35991 0.11133 0.05400
H 	H 	0.92487 0.37883 0.15133 0.03000
C 	C 	0.82673 0.24110 0.08723 -0.06600
C 	C 	0.84525 0.22083 0.12523 -0.04200
H 	H 	0.87517 0.23743 0.13783 0.04500
H 	H 	0.76867 0.27623 0.10913 0.08100
O 	O 	0.63199 0.77752 0.41377 -0.39400
O 	O 	0.61312 0.76837 0.28517 -0.40400
C 	C 	0.61053 0.75562 0.35287 0.33600
C 	C 	0.57752 0.70857 0.37267 -0.11300
C 	C 	0.55313 0.68074 0.31597 0.06200
H 	H 	0.55633 0.69127 0.26467 0.02700
C 	C 	0.52365 0.63734 0.33077 -0.14800
H 	H 	0.50563 0.61907 0.29057 0.09300
C 	C 	0.52077 0.62151 0.40127 0.11000
C 	C 	0.54451 0.64892 0.46167 -0.14000
H 	H 	0.54103 0.63827 0.51297 0.07900
C 	C 	0.57409 0.69325 0.44467 0.05400
H 	H 	0.59153 0.71217 0.48467 0.03000
C 	C 	0.49339 0.57444 0.42057 -0.06600
C 	C 	0.51191 0.55417 0.45857 -0.04200
H 	H 	0.54183 0.57077 0.47117 0.04500
H 	H 	0.43533 0.60957 0.44247 0.08100
O 	O 	0.18781 0.88915 0.25290 -0.39400
O 	O 	0.17809 0.89830 0.38150 -0.40400
C 	C 	0.18825 0.91105 0.31380 0.33600
C 	C 	0.20229 0.95810 0.29400 -0.11200
C 	C 	0.20573 0.98593 0.35070 0.06100
H 	H 	0.19840 0.97540 0.40200 0.02700
C 	C 	0.21965 0.02933 0.33590 -0.14800
H 	H 	0.21990 0.04760 0.37610 0.09300
C 	C 	0.23260 0.04516 0.26540 0.10900
C 	C 	0.22893 0.01775 0.20500 -0.13900
H 	H 	0.23610 0.02840 0.15370 0.07800
C 	C 	0.21418 0.97342 0.22200 0.05400
H 	H 	0.21270 0.95450 0.18200 0.03000
C 	C 	0.25229 0.09223 0.24610 -0.06500
C 	C 	0.29108 0.11250 0.20810 -0.04200
H 	H 	0.30440 0.09590 0.19550 0.04500
H 	H 	0.15910 0.05710 0.22420 0.08100
O 	O 	0.85448 0.22248 0.58623 -0.39400
O 	O 	0.84476 0.23163 0.71483 -0.40400
C 	C 	0.85492 0.24438 0.64713 0.33600
C 	C 	0.86896 0.29143 0.62733 -0.11300
C 	C 	0.87240 0.31926 0.68403 0.06200
H 	H 	0.86507 0.30873 0.73533 0.02700
C 	C 	0.88632 0.36266 0.66923 -0.14800
H 	H 	0.88657 0.38093 0.70943 0.09300
C 	C 	0.89927 0.37849 0.59873 0.11000
C 	C 	0.89560 0.35108 0.53833 -0.14000
H 	H 	0.90277 0.36173 0.48703 0.07900
C 	C 	0.88085 0.30675 0.55533 0.05400
H 	H 	0.87937 0.28783 0.51533 0.03000
C 	C 	0.91896 0.42556 0.57943 -0.06600
C 	C 	0.95775 0.44583 0.54143 -0.04200
H 	H 	0.97107 0.42923 0.52883 0.04500
H 	H 	0.82577 0.39043 0.55753 0.08100
O 	O 	0.52114 0.55582 0.91957 -0.39400
O 	O 	0.51142 0.56497 0.04817 -0.40400
C 	C 	0.52158 0.57772 0.98047 0.33600
C 	C 	0.53562 0.62477 0.96067 -0.11300
C 	C 	0.53906 0.65260 0.01737 0.06200
H 	H 	0.53173 0.64207 0.06867 0.02700
C 	C 	0.55298 0.69600 0.00257 -0.14800
H 	H 	0.55323 0.71427 0.04277 0.09300
C 	C 	0.56593 0.71183 0.93207 0.11000
C 	C 	0.56226 0.68442 0.87167 -0.14000
H 	H 	0.56943 0.69507 0.82037 0.07900
C 	C 	0.54751 0.64009 0.88867 0.05400
H 	H 	0.54603 0.62117 0.84867 0.02900
C 	C 	0.58562 0.75890 0.91277 -0.06600
C 	C 	0.62441 0.77917 0.87477 -0.04200
H 	H 	0.63773 0.76257 0.86217 0.04500
H 	H 	0.49243 0.72377 0.89087 0.08100
O 	O 	0.70134 0.81219 0.25290 -0.39400
O 	O 	0.72021 0.82191 0.38150 -0.40400
C 	C 	0.72280 0.81175 0.31380 0.33600
C 	C 	0.75581 0.79771 0.29400 -0.11300
C 	C 	0.78020 0.79427 0.35070 0.06200
H 	H 	0.77700 0.80160 0.40200 0.02700
C 	C 	0.80968 0.78035 0.33590 -0.14800
H 	H 	0.82770 0.78010 0.37610 0.09300
C 	C 	0.81256 0.76740 0.26540 0.11000
C 	C 	0.78882 0.77107 0.20500 -0.14000
H 	H 	0.79230 0.76390 0.15370 0.07900
C 	C 	0.75924 0.78582 0.22200 0.05400
H 	H 	0.74180 0.78730 0.18200 0.02900
C 	C 	0.83994 0.74771 0.24610 -0.06600
C 	C 	0.82142 0.70892 0.20810 -0.04200
H 	H 	0.79150 0.69560 0.19550 0.04500
H 	H 	0.89800 0.84090 0.22420 0.08100
O 	O 	0.36801 0.14552 0.58623 -0.39400
O 	O 	0.38688 0.15524 0.71483 -0.40400
C 	C 	0.38947 0.14508 0.64713 0.33600
C 	C 	0.42248 0.13104 0.62733 -0.11300
C 	C 	0.44687 0.12760 0.68403 0.06200
H 	H 	0.44367 0.13493 0.73533 0.02700
C 	C 	0.47635 0.11368 0.66923 -0.14800
H 	H 	0.49437 0.11343 0.70943 0.09300
C 	C 	0.47923 0.10073 0.59873 0.11000
C 	C 	0.45549 0.10440 0.53833 -0.14000
H 	H 	0.45897 0.09723 0.48703 0.07900
C 	C 	0.42591 0.11915 0.55533 0.05400
H 	H 	0.40847 0.12063 0.51533 0.03000
C 	C 	0.50661 0.08104 0.57943 -0.06600
C 	C 	0.48809 0.04225 0.54143 -0.04200
H 	H 	0.45817 0.02893 0.52883 0.04500
H 	H 	0.56467 0.17423 0.55753 0.08100
O 	O 	0.03467 0.47886 0.91957 -0.39400
O 	O 	0.05354 0.48858 0.04817 -0.40400
C 	C 	0.05613 0.47842 0.98047 0.33600
C 	C 	0.08914 0.46438 0.96067 -0.11300
C 	C 	0.11353 0.46094 0.01737 0.06100
H 	H 	0.11033 0.46827 0.06867 0.02700
C 	C 	0.14301 0.44702 0.00257 -0.14800
H 	H 	0.16103 0.44677 0.04277 0.09300
C 	C 	0.14589 0.43407 0.93207 0.11000
C 	C 	0.12215 0.43774 0.87167 -0.14000
H 	H 	0.12563 0.43057 0.82037 0.07900
C 	C 	0.09257 0.45249 0.88867 0.05400
H 	H 	0.07513 0.45397 0.84867 0.03000
C 	C 	0.17327 0.41438 0.91277 -0.06600
C 	C 	0.15475 0.37559 0.87477 -0.04200
H 	H 	0.12483 0.36227 0.86217 0.04500
H 	H 	0.23133 0.50757 0.89087 0.08100
O 	O 	0.11085 0.29866 0.25290 -0.39400
O 	O 	0.10170 0.27979 0.38150 -0.40400
C 	C 	0.08895 0.27720 0.31380 0.33600
C 	C 	0.04190 0.24419 0.29400 -0.11200
C 	C 	0.01407 0.21980 0.35070 0.06100
H 	H 	0.02460 0.22300 0.40200 0.02700
C 	C 	0.97067 0.19032 0.33590 -0.14800
H 	H 	0.95240 0.17230 0.37610 0.09300
C 	C 	0.95484 0.18744 0.26540 0.10900
C 	C 	0.98225 0.21118 0.20500 -0.13900
H 	H 	0.97160 0.20770 0.15370 0.07800
C 	C 	0.02658 0.24076 0.22200 0.05400
H 	H 	0.04550 0.25820 0.18200 0.03000
C 	C 	0.90777 0.16006 0.24610 -0.06500
C 	C 	0.88750 0.17858 0.20810 -0.04200
H 	H 	0.90410 0.20850 0.19550 0.04500
H 	H 	0.94290 0.10200 0.22420 0.08100
O 	O 	0.77752 0.63199 0.58623 -0.39400
O 	O 	0.76837 0.61312 0.71483 -0.40400
C 	C 	0.75562 0.61053 0.64713 0.33600
C 	C 	0.70857 0.57752 0.62733 -0.11300
C 	C 	0.68074 0.55313 0.68403 0.06200
H 	H 	0.69127 0.55633 0.73533 0.02700
C 	C 	0.63734 0.52365 0.66923 -0.14800
H 	H 	0.61907 0.50563 0.70943 0.09300
C 	C 	0.62151 0.52077 0.59873 0.11000
C 	C 	0.64892 0.54451 0.53833 -0.14000
H 	H 	0.63827 0.54103 0.48703 0.07900
C 	C 	0.69325 0.57409 0.55533 0.05400
H 	H 	0.71217 0.59153 0.51533 0.03000
C 	C 	0.57444 0.49339 0.57943 -0.06600
C 	C 	0.55417 0.51191 0.54143 -0.04200
H 	H 	0.57077 0.54183 0.52883 0.04500
H 	H 	0.60957 0.43533 0.55753 0.08100
O 	O 	0.44418 0.96533 0.91957 -0.39300
O 	O 	0.43503 0.94646 0.04817 -0.40400
C 	C 	0.42228 0.94387 0.98047 0.33600
C 	C 	0.37523 0.91086 0.96067 -0.11300
C 	C 	0.34740 0.88647 0.01737 0.06100
H 	H 	0.35793 0.88967 0.06867 0.02700
C 	C 	0.30400 0.85699 0.00257 -0.14800
H 	H 	0.28573 0.83897 0.04277 0.09300
C 	C 	0.28817 0.85411 0.93207 0.11000
C 	C 	0.31558 0.87785 0.87167 -0.14000
H 	H 	0.30493 0.87437 0.82037 0.07900
C 	C 	0.35991 0.90743 0.88867 0.05400
H 	H 	0.37883 0.92487 0.84867 0.03000
C 	C 	0.24110 0.82673 0.91277 -0.06600
C 	C 	0.22083 0.84525 0.87477 -0.04200
H 	H 	0.23743 0.87517 0.86217 0.04500
H 	H 	0.27623 0.76867 0.89087 0.08100
O 	O 	0.11085 0.81219 0.25290 -0.39400
O 	O 	0.10170 0.82191 0.38150 -0.40400
C 	C 	0.08895 0.81175 0.31380 0.33600
C 	C 	0.04190 0.79771 0.29400 -0.11200
C 	C 	0.01407 0.79427 0.35070 0.06100
H 	H 	0.02460 0.80160 0.40200 0.02700
C 	C 	0.97067 0.78035 0.33590 -0.14800
H 	H 	0.95240 0.78010 0.37610 0.09300
C 	C 	0.95484 0.76740 0.26540 0.10900
C 	C 	0.98225 0.77107 0.20500 -0.13900
H 	H 	0.97160 0.76390 0.15370 0.07800
C 	C 	0.02658 0.78582 0.22200 0.05400
H 	H 	0.04550 0.78730 0.18200 0.03000
C 	C 	0.90777 0.74771 0.24610 -0.06500
C 	C 	0.88750 0.70892 0.20810 -0.04200
H 	H 	0.90410 0.69560 0.19550 0.04500
H 	H 	0.94290 0.84090 0.22420 0.08100
O 	O 	0.77752 0.14552 0.58623 -0.39400
O 	O 	0.76837 0.15524 0.71483 -0.40400
C 	C 	0.75562 0.14508 0.64713 0.33600
C 	C 	0.70857 0.13104 0.62733 -0.11300
C 	C 	0.68074 0.12760 0.68403 0.06200
H 	H 	0.69127 0.13493 0.73533 0.02700
C 	C 	0.63734 0.11368 0.66923 -0.14800
H 	H 	0.61907 0.11343 0.70943 0.09300
C 	C 	0.62151 0.10073 0.59873 0.11000
C 	C 	0.64892 0.10440 0.53833 -0.14000
H 	H 	0.63827 0.09723 0.48703 0.07900
C 	C 	0.69325 0.11915 0.55533 0.05400
H 	H 	0.71217 0.12063 0.51533 0.03000
C 	C 	0.57444 0.08104 0.57943 -0.06600
C 	C 	0.55417 0.04225 0.54143 -0.04200
H 	H 	0.57077 0.02893 0.52883 0.04500
H 	H 	0.60957 0.17423 0.55753 0.08100
O 	O 	0.44418 0.47886 0.91957 -0.39400
O 	O 	0.43503 0.48858 0.04817 -0.40400
C 	C 	0.42228 0.47842 0.98047 0.33600
C 	C 	0.37523 0.46438 0.96067 -0.11300
C 	C 	0.34740 0.46094 0.01737 0.06200
H 	H 	0.35793 0.46827 0.06867 0.02700
C 	C 	0.30400 0.44702 0.00257 -0.14800
H 	H 	0.28573 0.44677 0.04277 0.09300
C 	C 	0.28817 0.43407 0.93207 0.11000
C 	C 	0.31558 0.43774 0.87167 -0.14000
H 	H 	0.30493 0.43057 0.82037 0.07900
C 	C 	0.35991 0.45249 0.88867 0.05400
H 	H 	0.37883 0.45397 0.84867 0.02900
C 	C 	0.24110 0.41438 0.91277 -0.06600
C 	C 	0.22083 0.37559 0.87477 -0.04200
H 	H 	0.23743 0.36227 0.86217 0.04500
H 	H 	0.27623 0.50757 0.89087 0.08100
O 	O 	0.18781 0.29866 0.25290 -0.39400
O 	O 	0.17809 0.27979 0.38150 -0.40400
C 	C 	0.18825 0.27720 0.31380 0.33600
C 	C 	0.20229 0.24419 0.29400 -0.11300
C 	C 	0.20573 0.21980 0.35070 0.06200
H 	H 	0.19840 0.22300 0.40200 0.02700
C 	C 	0.21965 0.19032 0.33590 -0.14800
H 	H 	0.21990 0.17230 0.37610 0.09300
C 	C 	0.23260 0.18744 0.26540 0.11000
C 	C 	0.22893 0.21118 0.20500 -0.14000
H 	H 	0.23610 0.20770 0.15370 0.07900
C 	C 	0.21418 0.24076 0.22200 0.05400
H 	H 	0.21270 0.25820 0.18200 0.02900
C 	C 	0.25229 0.16006 0.24610 -0.06600
C 	C 	0.29108 0.17858 0.20810 -0.04200
H 	H 	0.30440 0.20850 0.19550 0.04500
H 	H 	0.15910 0.10200 0.22420 0.08100
O 	O 	0.85448 0.63199 0.58623 -0.39400
O 	O 	0.84476 0.61312 0.71483 -0.40400
C 	C 	0.85492 0.61053 0.64713 0.33600
C 	C 	0.86896 0.57752 0.62733 -0.11300
C 	C 	0.87240 0.55313 0.68403 0.06200
H 	H 	0.86507 0.55633 0.73533 0.02700
C 	C 	0.88632 0.52365 0.66923 -0.14800
H 	H 	0.88657 0.50563 0.70943 0.09300
C 	C 	0.89927 0.52077 0.59873 0.11000
C 	C 	0.89560 0.54451 0.53833 -0.14000
H 	H 	0.90277 0.54103 0.48703 0.07900
C 	C 	0.88085 0.57409 0.55533 0.05400
H 	H 	0.87937 0.59153 0.51533 0.03000
C 	C 	0.91896 0.49339 0.57943 -0.06600
C 	C 	0.95775 0.51191 0.54143 -0.04200
H 	H 	0.97107 0.54183 0.52883 0.04500
H 	H 	0.82577 0.43533 0.55753 0.08100
O 	O 	0.52114 0.96533 0.91957 -0.39400
O 	O 	0.51142 0.94646 0.04817 -0.40400
C 	C 	0.52158 0.94387 0.98047 0.33600
C 	C 	0.53562 0.91086 0.96067 -0.11300
C 	C 	0.53906 0.88647 0.01737 0.06100
H 	H 	0.53173 0.88967 0.06867 0.02700
C 	C 	0.55298 0.85699 0.00257 -0.14800
H 	H 	0.55323 0.83897 0.04277 0.09300
C 	C 	0.56593 0.85411 0.93207 0.11000
C 	C 	0.56226 0.87785 0.87167 -0.14000
H 	H 	0.56943 0.87437 0.82037 0.07900
C 	C 	0.54751 0.90743 0.88867 0.05400
H 	H 	0.54603 0.92487 0.84867 0.03000
C 	C 	0.58562 0.82673 0.91277 -0.06600
C 	C 	0.62441 0.84525 0.87477 -0.04200
H 	H 	0.63773 0.87517 0.86217 0.04500
H 	H 	0.49243 0.76867 0.89087 0.08100
O 	O 	0.70134 0.88915 0.25290 -0.39400
O 	O 	0.72021 0.89830 0.38150 -0.40400
C 	C 	0.72280 0.91105 0.31380 0.33600
C 	C 	0.75581 0.95810 0.29400 -0.11200
C 	C 	0.78020 0.98593 0.35070 0.06100
H 	H 	0.77700 0.97540 0.40200 0.02700
C 	C 	0.80968 0.02933 0.33590 -0.14800
H 	H 	0.82770 0.04760 0.37610 0.09300
C 	C 	0.81256 0.04516 0.26540 0.10900
C 	C 	0.78882 0.01775 0.20500 -0.13900
H 	H 	0.79230 0.02840 0.15370 0.07800
C 	C 	0.75924 0.97342 0.22200 0.05400
H 	H 	0.74180 0.95450 0.18200 0.03000
C 	C 	0.83994 0.09223 0.24610 -0.06500
C 	C 	0.82142 0.11250 0.20810 -0.04200
H 	H 	0.79150 0.09590 0.19550 0.04500
H 	H 	0.89800 0.05710 0.22420 0.08100
O 	O 	0.36801 0.22248 0.58623 -0.39400
O 	O 	0.38688 0.23163 0.71483 -0.40400
C 	C 	0.38947 0.24438 0.64713 0.33600
C 	C 	0.42248 0.29143 0.62733 -0.11300
C 	C 	0.44687 0.31926 0.68403 0.06200
H 	H 	0.44367 0.30873 0.73533 0.02700
C 	C 	0.47635 0.36266 0.66923 -0.14800
H 	H 	0.49437 0.38093 0.70943 0.09300
C 	C 	0.47923 0.37849 0.59873 0.11000
C 	C 	0.45549 0.35108 0.53833 -0.14000
H 	H 	0.45897 0.36173 0.48703 0.07900
C 	C 	0.42591 0.30675 0.55533 0.05400
H 	H 	0.40847 0.28783 0.51533 0.03000
C 	C 	0.50661 0.42556 0.57943 -0.06600
C 	C 	0.48809 0.44583 0.54143 -0.04200
H 	H 	0.45817 0.42923 0.52883 0.04500
H 	H 	0.56467 0.39043 0.55753 0.08100
O 	O 	0.03467 0.55582 0.91957 -0.39300
O 	O 	0.05354 0.56497 0.04817 -0.40400
C 	C 	0.05613 0.57772 0.98047 0.33600
C 	C 	0.08914 0.62477 0.96067 -0.11300
C 	C 	0.11353 0.65260 0.01737 0.06100
H 	H 	0.11033 0.64207 0.06867 0.02700
C 	C 	0.14301 0.69600 0.00257 -0.14800
H 	H 	0.16103 0.71427 0.04277 0.09300
C 	C 	0.14589 0.71183 0.93207 0.11000
C 	C 	0.12215 0.68442 0.87167 -0.14000
H 	H 	0.12563 0.69507 0.82037 0.07900
C 	C 	0.09257 0.64009 0.88867 0.05400
H 	H 	0.07513 0.62117 0.84867 0.03000
C 	C 	0.17327 0.75890 0.91277 -0.06600
C 	C 	0.15475 0.77917 0.87477 -0.04200
H 	H 	0.12483 0.76257 0.86217 0.04500
H 	H 	0.23133 0.72377 0.89087 0.08100
O 	O 	0.81219 0.11085 0.74710 -0.39400
O 	O 	0.82191 0.10170 0.61850 -0.40400
C 	C 	0.81175 0.08895 0.68620 0.33600
C 	C 	0.79771 0.04190 0.70600 -0.11200
C 	C 	0.79427 0.01407 0.64930 0.06100
H 	H 	0.80160 0.02460 0.59800 0.02700
C 	C 	0.78035 0.97067 0.66410 -0.14800
H 	H 	0.78010 0.95240 0.62390 0.09300
C 	C 	0.76740 0.95484 0.73460 0.10900
C 	C 	0.77107 0.98225 0.79500 -0.13900
H 	H 	0.76390 0.97160 0.84630 0.07800
C 	C 	0.78582 0.02658 0.77800 0.05400
H 	H 	0.78730 0.04550 0.81800 0.03000
C 	C 	0.74771 0.90777 0.75390 -0.06500
C 	C 	0.70892 0.88750 0.79190 -0.04200
H 	H 	0.69560 0.90410 0.80450 0.04500
H 	H 	0.84090 0.94290 0.77580 0.08100
O 	O 	0.47886 0.44418 0.08043 -0.39400
O 	O 	0.48858 0.43503 0.95183 -0.40400
C 	C 	0.47842 0.42228 0.01953 0.33600
C 	C 	0.46438 0.37523 0.03933 -0.11300
C 	C 	0.46094 0.34740 0.98263 0.06200
H 	H 	0.46827 0.35793 0.93133 0.02700
C 	C 	0.44702 0.30400 0.99743 -0.14800
H 	H 	0.44677 0.28573 0.95723 0.09300
C 	C 	0.43407 0.28817 0.06793 0.11000
C 	C 	0.43774 0.31558 0.12833 -0.14000
H 	H 	0.43057 0.30493 0.17963 0.07900
C 	C 	0.45249 0.35991 0.11133 0.05400
H 	H 	0.45397 0.37883 0.15133 0.02900
C 	C 	0.41438 0.24110 0.08723 -0.06600
C 	C 	0.37559 0.22083 0.12523 -0.04200
H 	H 	0.36227 0.23743 0.13783 0.04500
H 	H 	0.50757 0.27623 0.10913 0.08100
O 	O 	0.14552 0.77752 0.41377 -0.39400
O 	O 	0.15524 0.76837 0.28517 -0.40400
C 	C 	0.14508 0.75562 0.35287 0.33600
C 	C 	0.13104 0.70857 0.37267 -0.11300
C 	C 	0.12760 0.68074 0.31597 0.06200
H 	H 	0.13493 0.69127 0.26467 0.02700
C 	C 	0.11368 0.63734 0.33077 -0.14800
H 	H 	0.11343 0.61907 0.29057 0.09300
C 	C 	0.10073 0.62151 0.40127 0.11000
C 	C 	0.10440 0.64892 0.46167 -0.14000
H 	H 	0.09723 0.63827 0.51297 0.07900
C 	C 	0.11915 0.69325 0.44467 0.05400
H 	H 	0.12063 0.71217 0.48467 0.03000
C 	C 	0.08104 0.57444 0.42057 -0.06600
C 	C 	0.04225 0.55417 0.45857 -0.04200
H 	H 	0.02893 0.57077 0.47117 0.04500
H 	H 	0.17423 0.60957 0.44247 0.08100
O 	O 	0.29866 0.18781 0.74710 -0.39400
O 	O 	0.27979 0.17809 0.61850 -0.40400
C 	C 	0.27720 0.18825 0.68620 0.33600
C 	C 	0.24419 0.20229 0.70600 -0.11300
C 	C 	0.21980 0.20573 0.64930 0.06200
H 	H 	0.22300 0.19840 0.59800 0.02700
C 	C 	0.19032 0.21965 0.66410 -0.14800
H 	H 	0.17230 0.21990 0.62390 0.09300
C 	C 	0.18744 0.23260 0.73460 0.11000
C 	C 	0.21118 0.22893 0.79500 -0.14000
H 	H 	0.20770 0.23610 0.84630 0.07900
C 	C 	0.24076 0.21418 0.77800 0.05400
H 	H 	0.25820 0.21270 0.81800 0.02900
C 	C 	0.16006 0.25229 0.75390 -0.06600
C 	C 	0.17858 0.29108 0.79190 -0.04200
H 	H 	0.20850 0.30440 0.80450 0.04500
H 	H 	0.10200 0.15910 0.77580 0.08100
O 	O 	0.96533 0.52114 0.08043 -0.39400
O 	O 	0.94646 0.51142 0.95183 -0.40400
C 	C 	0.94387 0.52158 0.01953 0.33600
C 	C 	0.91086 0.53562 0.03933 -0.11300
C 	C 	0.88647 0.53906 0.98263 0.06100
H 	H 	0.88967 0.53173 0.93133 0.02700
C 	C 	0.85699 0.55298 0.99743 -0.14800
H 	H 	0.83897 0.55323 0.95723 0.09300
C 	C 	0.85411 0.56593 0.06793 0.11000
C 	C 	0.87785 0.56226 0.12833 -0.14000
H 	H 	0.87437 0.56943 0.17963 0.07900
C 	C 	0.90743 0.54751 0.11133 0.05400
H 	H 	0.92487 0.54603 0.15133 0.03000
C 	C 	0.82673 0.58562 0.08723 -0.06600
C 	C 	0.84525 0.62441 0.12523 -0.04200
H 	H 	0.87517 0.63773 0.13783 0.04500
H 	H 	0.76867 0.49243 0.10913 0.08100
O 	O 	0.63199 0.85448 0.41377 -0.39400
O 	O 	0.61312 0.84476 0.28517 -0.40400
C 	C 	0.61053 0.85492 0.35287 0.33600
C 	C 	0.57752 0.86896 0.37267 -0.11300
C 	C 	0.55313 0.87240 0.31597 0.06200
H 	H 	0.55633 0.86507 0.26467 0.02700
C 	C 	0.52365 0.88632 0.33077 -0.14800
H 	H 	0.50563 0.88657 0.29057 0.09300
C 	C 	0.52077 0.89927 0.40127 0.11000
C 	C 	0.54451 0.89560 0.46167 -0.14000
H 	H 	0.54103 0.90277 0.51297 0.07900
C 	C 	0.57409 0.88085 0.44467 0.05400
H 	H 	0.59153 0.87937 0.48467 0.03000
C 	C 	0.49339 0.91896 0.42057 -0.06600
C 	C 	0.51191 0.95775 0.45857 -0.04200
H 	H 	0.54183 0.97107 0.47117 0.04500
H 	H 	0.43533 0.82577 0.44247 0.08100
O 	O 	0.88915 0.70134 0.74710 -0.39400
O 	O 	0.89830 0.72021 0.61850 -0.40400
C 	C 	0.91105 0.72280 0.68620 0.33600
C 	C 	0.95810 0.75581 0.70600 -0.11200
C 	C 	0.98593 0.78020 0.64930 0.06100
H 	H 	0.97540 0.77700 0.59800 0.02700
C 	C 	0.02933 0.80968 0.66410 -0.14800
H 	H 	0.04760 0.82770 0.62390 0.09300
C 	C 	0.04516 0.81256 0.73460 0.10900
C 	C 	0.01775 0.78882 0.79500 -0.13900
H 	H 	0.02840 0.79230 0.84630 0.07800
C 	C 	0.97342 0.75924 0.77800 0.05400
H 	H 	0.95450 0.74180 0.81800 0.03000
C 	C 	0.09223 0.83994 0.75390 -0.06500
C 	C 	0.11250 0.82142 0.79190 -0.04200
H 	H 	0.09590 0.79150 0.80450 0.04500
H 	H 	0.05710 0.89800 0.77580 0.08100
O 	O 	0.55582 0.03467 0.08043 -0.39300
O 	O 	0.56497 0.05354 0.95183 -0.40400
C 	C 	0.57772 0.05613 0.01953 0.33600
C 	C 	0.62477 0.08914 0.03933 -0.11300
C 	C 	0.65260 0.11353 0.98263 0.06100
H 	H 	0.64207 0.11033 0.93133 0.02700
C 	C 	0.69600 0.14301 0.99743 -0.14800
H 	H 	0.71427 0.16103 0.95723 0.09300
C 	C 	0.71183 0.14589 0.06793 0.11000
C 	C 	0.68442 0.12215 0.12833 -0.14000
H 	H 	0.69507 0.12563 0.17963 0.07900
C 	C 	0.64009 0.09257 0.11133 0.05400
H 	H 	0.62117 0.07513 0.15133 0.03000
C 	C 	0.75890 0.17327 0.08723 -0.06600
C 	C 	0.77917 0.15475 0.12523 -0.04200
H 	H 	0.76257 0.12483 0.13783 0.04500
H 	H 	0.72377 0.23133 0.10913 0.08100
O 	O 	0.22248 0.36801 0.41377 -0.39400
O 	O 	0.23163 0.38688 0.28517 -0.40400
C 	C 	0.24438 0.38947 0.35287 0.33600
C 	C 	0.29143 0.42248 0.37267 -0.11300
C 	C 	0.31926 0.44687 0.31597 0.06200
H 	H 	0.30873 0.44367 0.26467 0.02700
C 	C 	0.36266 0.47635 0.33077 -0.14800
H 	H 	0.38093 0.49437 0.29057 0.09300
C 	C 	0.37849 0.47923 0.40127 0.11000
C 	C 	0.35108 0.45549 0.46167 -0.14000
H 	H 	0.36173 0.45897 0.51297 0.07900
C 	C 	0.30675 0.42591 0.44467 0.05400
H 	H 	0.28783 0.40847 0.48467 0.03000
C 	C 	0.42556 0.50661 0.42057 -0.06600
C 	C 	0.44583 0.48809 0.45857 -0.04200
H 	H 	0.42923 0.45817 0.47117 0.04500
H 	H 	0.39043 0.56467 0.44247 0.08100
Cu	Cu	0.83873 0.16127 0.59304 0.90100
Cu	Cu	0.50540 0.49460 0.92637 0.90100
Cu	Cu	0.17206 0.82794 0.25971 0.90100
Cu	Cu	0.83873 0.67746 0.59304 0.90100
Cu	Cu	0.50540 0.01079 0.92637 0.90100
Cu	Cu	0.17206 0.34413 0.25971 0.90100
Cu	Cu	0.32254 0.16127 0.59304 0.90100
Cu	Cu	0.98921 0.49460 0.92637 0.90100
Cu	Cu	0.65587 0.82794 0.25971 0.90100
Cu	Cu	0.16127 0.83873 0.40696 0.90100
Cu	Cu	0.82794 0.17206 0.74029 0.90100
Cu	Cu	0.49460 0.50540 0.07363 0.90100
Cu	Cu	0.67746 0.83873 0.40696 0.90100
Cu	Cu	0.34413 0.17206 0.74029 0.90100
Cu	Cu	0.01079 0.50540 0.07363 0.90100
Cu	Cu	0.16127 0.32254 0.40696 0.90100
Cu	Cu	0.82794 0.65587 0.74029 0.90100
Cu	Cu	0.49460 0.98921 0.07363 0.90100
O 	O 	0.09722 0.19444 0.69250 -0.18000
C 	C 	0.15625 0.31250 0.81360 0.00500
C 	C 	0.11649 0.23297 0.73240 0.12100
C 	C 	0.07910 0.15820 0.74320 -0.15400
H 	H 	0.06570 0.13140 0.71300 0.08400
O 	O 	0.76389 0.52777 0.02583 -0.18000
C 	C 	0.82292 0.64583 0.14693 0.00500
C 	C 	0.78315 0.56630 0.06573 0.12100
C 	C 	0.74577 0.49153 0.07653 -0.15400
H 	H 	0.73237 0.46473 0.04633 0.08400
O 	O 	0.43055 0.86111 0.35917 -0.18000
C 	C 	0.48958 0.97917 0.48027 0.00500
C 	C 	0.44982 0.89964 0.39907 0.12100
C 	C 	0.41243 0.82487 0.40987 -0.15400
H 	H 	0.39903 0.79807 0.37967 0.08400
O 	O 	0.80556 0.90278 0.69250 -0.18000
C 	C 	0.68750 0.84375 0.81360 0.00500
C 	C 	0.76703 0.88351 0.73240 0.12100
C 	C 	0.84180 0.92090 0.74320 -0.15400
H 	H 	0.86860 0.93430 0.71300 0.08400
O 	O 	0.47223 0.23611 0.02583 -0.18000
C 	C 	0.35417 0.17708 0.14693 0.00500
C 	C 	0.43370 0.21685 0.06573 0.12100
C 	C 	0.50847 0.25423 0.07653 -0.15400
H 	H 	0.53527 0.26763 0.04633 0.08400
O 	O 	0.13889 0.56945 0.35917 -0.18000
C 	C 	0.02083 0.51042 0.48027 0.00500
C 	C 	0.10036 0.55018 0.39907 0.12100
C 	C 	0.17513 0.58757 0.40987 -0.15400
H 	H 	0.20193 0.60097 0.37967 0.08400
O 	O 	0.09722 0.90278 0.69250 -0.18000
C 	C 	0.15625 0.84375 0.81360 0.00500
C 	C 	0.11649 0.88351 0.73240 0.12100
C 	C 	0.07910 0.92090 0.74320 -0.15400
H 	H 	0.06570 0.93430 0.71300 0.08500
O 	O 	0.76389 0.23611 0.02583 -0.18000
C 	C 	0.82292 0.17708 0.14693 0.00500
C 	C 	0.78315 0.21685 0.06573 0.12100
C 	C 	0.74577 0.25423 0.07653 -0.15400
H 	H 	0.73237 0.26763 0.04633 0.08400
O 	O 	0.43055 0.56945 0.35917 -0.18000
C 	C 	0.48958 0.51042 0.48027 0.00500
C 	C 	0.44982 0.55018 0.39907 0.12100
C 	C 	0.41243 0.58757 0.40987 -0.15400
H 	H 	0.39903 0.60097 0.37967 0.08400
O 	O 	0.19444 0.09722 0.30750 -0.18000
C 	C 	0.31250 0.15625 0.18640 0.00500
C 	C 	0.23297 0.11649 0.26760 0.12100
C 	C 	0.15820 0.07910 0.25680 -0.15400
H 	H 	0.13140 0.06570 0.28700 0.08400
O 	O 	0.86111 0.43055 0.64083 -0.18000
C 	C 	0.97917 0.48958 0.51973 0.00500
C 	C 	0.89964 0.44982 0.60093 0.12100
C 	C 	0.82487 0.41243 0.59013 -0.15400
H 	H 	0.79807 0.39903 0.62033 0.08400
O 	O 	0.52777 0.76389 0.97417 -0.18000
C 	C 	0.64583 0.82292 0.85307 0.00500
C 	C 	0.56630 0.78315 0.93427 0.12100
C 	C 	0.49153 0.74577 0.92347 -0.15400
H 	H 	0.46473 0.73237 0.95367 0.08400
O 	O 	0.90278 0.80556 0.30750 -0.18000
C 	C 	0.84375 0.68750 0.18640 0.00500
C 	C 	0.88351 0.76703 0.26760 0.12100
C 	C 	0.92090 0.84180 0.25680 -0.15400
H 	H 	0.93430 0.86860 0.28700 0.08400
O 	O 	0.56945 0.13889 0.64083 -0.18000
C 	C 	0.51042 0.02083 0.51973 0.00500
C 	C 	0.55018 0.10036 0.60093 0.12100
C 	C 	0.58757 0.17513 0.59013 -0.15400
H 	H 	0.60097 0.20193 0.62033 0.08400
O 	O 	0.23611 0.47223 0.97417 -0.18000
C 	C 	0.17708 0.35417 0.85307 0.00500
C 	C 	0.21685 0.43370 0.93427 0.12100
C 	C 	0.25423 0.50847 0.92347 -0.15400
H 	H 	0.26763 0.53527 0.95367 0.08400
O 	O 	0.90278 0.09722 0.30750 -0.18000
C 	C 	0.84375 0.15625 0.18640 0.00500
C 	C 	0.88351 0.11649 0.26760 0.12100
C 	C 	0.92090 0.07910 0.25680 -0.15400
H 	H 	0.93430 0.06570 0.28700 0.08500
O 	O 	0.56945 0.43055 0.64083 -0.18000
C 	C 	0.51042 0.48958 0.51973 0.00500
C 	C 	0.55018 0.44982 0.60093 0.12100
C 	C 	0.58757 0.41243 0.59013 -0.15400
H 	H 	0.60097 0.39903 0.62033 0.08400
O 	O 	0.23611 0.76389 0.97417 -0.18000
C 	C 	0.17708 0.82292 0.85307 0.00500
C 	C 	0.21685 0.78315 0.93427 0.12100
C 	C 	0.25423 0.74577 0.92347 -0.15400
H 	H 	0.26763 0.73237 0.95367 0.08400
