data_crystal

_cell_length_a 35.82730
_cell_length_b 35.82730
_cell_length_c 15.38700
_cell_angle_alpha 90.00000
_cell_angle_beta  90.00000
_cell_angle_gamma 120.00000

_symmetry_space_group_name_	'P 1'
_symmetry_space_group_name_H-M	'P 1'

loop_
_symmetry_equiv_pos_as_xyz
  x,y,z

loop_
_atom_site_label
_atom_site_type_symbol
_atom_site_fract_x
_atom_site_fract_y
_atom_site_fract_z
_atom_site_charge
O 	O 	0.55765 0.03818 0.57843 -0.41000
O 	O 	0.56411 0.05075 0.43404 -0.40800
C 	C 	0.57855 0.05692 0.50950 0.37200
C 	C 	0.62525 0.08898 0.52300 -0.14700
C 	C 	0.65256 0.10998 0.45560 0.09600
H 	H 	0.64190 0.10500 0.39910 0.01100
C 	C 	0.69588 0.13854 0.47000 -0.18100
H 	H 	0.71360 0.15330 0.42330 0.10800
C 	C 	0.71314 0.14547 0.55210 0.14000
C 	C 	0.68515 0.12570 0.62130 -0.17600
H 	H 	0.69590 0.13110 0.67770 0.09500
C 	C 	0.64190 0.09829 0.60790 0.08800
H 	H 	0.62360 0.08590 0.65520 0.01600
C 	C 	0.76017 0.17250 0.56950 -0.09000
C 	C 	0.77997 0.15417 0.61710 -0.03500
H 	H 	0.76360 0.12540 0.63340 0.04500
H 	H 	0.76960 0.27420 0.59550 -0.08300
H 	H 	0.74620 0.29750 0.47470 0.28000
O 	O 	0.22432 0.37151 0.91176 -0.41000
O 	O 	0.23078 0.38408 0.76737 -0.40800
C 	C 	0.24522 0.39025 0.84283 0.37200
C 	C 	0.29192 0.42231 0.85633 -0.14700
C 	C 	0.31923 0.44331 0.78893 0.09600
H 	H 	0.30857 0.43833 0.73243 0.01100
C 	C 	0.36255 0.47187 0.80333 -0.18100
H 	H 	0.38027 0.48663 0.75663 0.10800
C 	C 	0.37981 0.47880 0.88543 0.13900
C 	C 	0.35182 0.45903 0.95463 -0.17500
H 	H 	0.36257 0.46443 0.01103 0.09500
C 	C 	0.30857 0.43162 0.94123 0.08800
H 	H 	0.29027 0.41923 0.98853 0.01600
C 	C 	0.42684 0.50583 0.90283 -0.09000
C 	C 	0.44664 0.48750 0.95043 -0.03500
H 	H 	0.43027 0.45873 0.96673 0.04500
H 	H 	0.43627 0.60753 0.92883 -0.08300
H 	H 	0.41287 0.63083 0.80803 0.28000
O 	O 	0.89098 0.70485 0.24510 -0.41000
O 	O 	0.89744 0.71742 0.10071 -0.40800
C 	C 	0.91188 0.72359 0.17617 0.37200
C 	C 	0.95858 0.75565 0.18967 -0.14700
C 	C 	0.98589 0.77665 0.12227 0.09600
H 	H 	0.97523 0.77167 0.06577 0.01100
C 	C 	0.02921 0.80521 0.13667 -0.18100
H 	H 	0.04693 0.81997 0.08997 0.10800
C 	C 	0.04647 0.81214 0.21877 0.13900
C 	C 	0.01848 0.79237 0.28797 -0.17600
H 	H 	0.02923 0.79777 0.34437 0.09500
C 	C 	0.97523 0.76496 0.27457 0.08800
H 	H 	0.95693 0.75257 0.32187 0.01600
C 	C 	0.09350 0.83917 0.23617 -0.09000
C 	C 	0.11330 0.82084 0.28377 -0.03500
H 	H 	0.09693 0.79207 0.30007 0.04500
H 	H 	0.10293 0.94087 0.26217 -0.08300
H 	H 	0.07953 0.96417 0.14137 0.28000
O 	O 	0.96182 0.51947 0.57843 -0.41000
O 	O 	0.94925 0.51336 0.43404 -0.40800
C 	C 	0.94308 0.52163 0.50950 0.37100
C 	C 	0.91102 0.53627 0.52300 -0.14800
C 	C 	0.89002 0.54258 0.45560 0.09500
H 	H 	0.89500 0.53690 0.39910 0.01000
C 	C 	0.86146 0.55734 0.47000 -0.18200
H 	H 	0.84670 0.56030 0.42330 0.10700
C 	C 	0.85453 0.56767 0.55210 0.13900
C 	C 	0.87430 0.55945 0.62130 -0.17700
H 	H 	0.86890 0.56480 0.67770 0.09400
C 	C 	0.90171 0.54361 0.60790 0.08700
H 	H 	0.91410 0.53770 0.65520 0.01500
C 	C 	0.82750 0.58767 0.56950 -0.09100
C 	C 	0.84583 0.62580 0.61710 -0.03600
H 	H 	0.87460 0.63820 0.63340 0.04400
H 	H 	0.72580 0.49540 0.59550 -0.08400
H 	H 	0.70250 0.44870 0.47470 0.27900
O 	O 	0.62849 0.85280 0.91176 -0.41100
O 	O 	0.61592 0.84669 0.76737 -0.40900
C 	C 	0.60975 0.85496 0.84283 0.37100
C 	C 	0.57769 0.86960 0.85633 -0.14800
C 	C 	0.55669 0.87591 0.78893 0.09500
H 	H 	0.56167 0.87023 0.73243 0.01000
C 	C 	0.52813 0.89067 0.80333 -0.18200
H 	H 	0.51337 0.89363 0.75663 0.10700
C 	C 	0.52120 0.90100 0.88543 0.13800
C 	C 	0.54097 0.89278 0.95463 -0.17600
H 	H 	0.53557 0.89813 0.01103 0.09400
C 	C 	0.56838 0.87694 0.94123 0.08700
H 	H 	0.58077 0.87103 0.98853 0.01500
C 	C 	0.49417 0.92100 0.90283 -0.09100
C 	C 	0.51250 0.95913 0.95043 -0.03600
H 	H 	0.54127 0.97153 0.96673 0.04400
H 	H 	0.39247 0.82873 0.92883 -0.08400
H 	H 	0.36917 0.78203 0.80803 0.27900
O 	O 	0.29515 0.18614 0.24510 -0.41100
O 	O 	0.28258 0.18003 0.10071 -0.40900
C 	C 	0.27641 0.18830 0.17617 0.37100
C 	C 	0.24435 0.20294 0.18967 -0.14800
C 	C 	0.22335 0.20925 0.12227 0.09500
H 	H 	0.22833 0.20357 0.06577 0.01000
C 	C 	0.19479 0.22401 0.13667 -0.18200
H 	H 	0.18003 0.22697 0.08997 0.10700
C 	C 	0.18786 0.23434 0.21877 0.13900
C 	C 	0.20763 0.22612 0.28797 -0.17700
H 	H 	0.20223 0.23147 0.34437 0.09400
C 	C 	0.23504 0.21028 0.27457 0.08700
H 	H 	0.24743 0.20437 0.32187 0.01500
C 	C 	0.16083 0.25434 0.23617 -0.09100
C 	C 	0.17916 0.29247 0.28377 -0.03600
H 	H 	0.20793 0.30487 0.30007 0.04400
H 	H 	0.05913 0.16207 0.26217 -0.08400
H 	H 	0.03583 0.11537 0.14137 0.27900
O 	O 	0.48053 0.44235 0.57843 -0.41100
O 	O 	0.48664 0.43589 0.43404 -0.40900
C 	C 	0.47837 0.42145 0.50950 0.37100
C 	C 	0.46373 0.37475 0.52300 -0.14800
C 	C 	0.45742 0.34744 0.45560 0.09500
H 	H 	0.46310 0.35810 0.39910 0.00900
C 	C 	0.44266 0.30412 0.47000 -0.18200
H 	H 	0.43970 0.28640 0.42330 0.10700
C 	C 	0.43233 0.28686 0.55210 0.13900
C 	C 	0.44055 0.31485 0.62130 -0.17700
H 	H 	0.43520 0.30410 0.67770 0.09400
C 	C 	0.45639 0.35810 0.60790 0.08700
H 	H 	0.46230 0.37640 0.65520 0.01500
C 	C 	0.41233 0.23983 0.56950 -0.09100
C 	C 	0.37420 0.22003 0.61710 -0.03600
H 	H 	0.36180 0.23640 0.63340 0.04400
H 	H 	0.50460 0.23040 0.59550 -0.08400
H 	H 	0.55130 0.25380 0.47470 0.27900
O 	O 	0.14720 0.77568 0.91176 -0.41100
O 	O 	0.15331 0.76922 0.76737 -0.40900
C 	C 	0.14504 0.75478 0.84283 0.37100
C 	C 	0.13040 0.70808 0.85633 -0.14800
C 	C 	0.12409 0.68077 0.78893 0.09500
H 	H 	0.12977 0.69143 0.73243 0.01000
C 	C 	0.10933 0.63745 0.80333 -0.18200
H 	H 	0.10637 0.61973 0.75663 0.10700
C 	C 	0.09900 0.62019 0.88543 0.13800
C 	C 	0.10722 0.64818 0.95463 -0.17600
H 	H 	0.10187 0.63743 0.01103 0.09400
C 	C 	0.12306 0.69143 0.94123 0.08700
H 	H 	0.12897 0.70973 0.98853 0.01500
C 	C 	0.07900 0.57316 0.90283 -0.09100
C 	C 	0.04087 0.55336 0.95043 -0.03600
H 	H 	0.02847 0.56973 0.96673 0.04400
H 	H 	0.17127 0.56373 0.92883 -0.08400
H 	H 	0.21797 0.58713 0.80803 0.27900
O 	O 	0.81386 0.10902 0.24510 -0.41100
O 	O 	0.81997 0.10256 0.10071 -0.40900
C 	C 	0.81170 0.08812 0.17617 0.37100
C 	C 	0.79706 0.04142 0.18967 -0.14800
C 	C 	0.79075 0.01411 0.12227 0.09500
H 	H 	0.79643 0.02477 0.06577 0.00900
C 	C 	0.77599 0.97079 0.13667 -0.18200
H 	H 	0.77303 0.95307 0.08997 0.10700
C 	C 	0.76566 0.95353 0.21877 0.13900
C 	C 	0.77388 0.98152 0.28797 -0.17700
H 	H 	0.76853 0.97077 0.34437 0.09400
C 	C 	0.78972 0.02477 0.27457 0.08800
H 	H 	0.79563 0.04307 0.32187 0.01500
C 	C 	0.74566 0.90650 0.23617 -0.09100
C 	C 	0.70753 0.88670 0.28377 -0.03600
H 	H 	0.69513 0.90307 0.30007 0.04400
H 	H 	0.83793 0.89707 0.26217 -0.08400
H 	H 	0.88463 0.92047 0.14137 0.27900
O 	O 	0.03818 0.55765 0.42157 -0.41100
O 	O 	0.05075 0.56411 0.56596 -0.40900
C 	C 	0.05692 0.57855 0.49050 0.37100
C 	C 	0.08898 0.62525 0.47700 -0.14800
C 	C 	0.10998 0.65256 0.54440 0.09500
H 	H 	0.10500 0.64190 0.60090 0.01000
C 	C 	0.13854 0.69588 0.53000 -0.18200
H 	H 	0.15330 0.71360 0.57670 0.10700
C 	C 	0.14547 0.71314 0.44790 0.13900
C 	C 	0.12570 0.68515 0.37870 -0.17700
H 	H 	0.13110 0.69590 0.32230 0.09400
C 	C 	0.09829 0.64190 0.39210 0.08700
H 	H 	0.08590 0.62360 0.34480 0.01500
C 	C 	0.17250 0.76017 0.43050 -0.09100
C 	C 	0.15417 0.77997 0.38290 -0.03600
H 	H 	0.12540 0.76360 0.36660 0.04400
H 	H 	0.27420 0.76960 0.40450 -0.08400
H 	H 	0.29750 0.74620 0.52530 0.27900
O 	O 	0.70485 0.89098 0.75490 -0.41100
O 	O 	0.71742 0.89744 0.89929 -0.40900
C 	C 	0.72359 0.91188 0.82383 0.37100
C 	C 	0.75565 0.95858 0.81033 -0.14800
C 	C 	0.77665 0.98589 0.87773 0.09500
H 	H 	0.77167 0.97523 0.93423 0.01000
C 	C 	0.80521 0.02921 0.86333 -0.18200
H 	H 	0.81997 0.04693 0.91003 0.10700
C 	C 	0.81214 0.04647 0.78123 0.13800
C 	C 	0.79237 0.01848 0.71203 -0.17700
H 	H 	0.79777 0.02923 0.65563 0.09400
C 	C 	0.76496 0.97523 0.72543 0.08700
H 	H 	0.75257 0.95693 0.67813 0.01500
C 	C 	0.83917 0.09350 0.76383 -0.09100
C 	C 	0.82084 0.11330 0.71623 -0.03600
H 	H 	0.79207 0.09693 0.69993 0.04400
H 	H 	0.94087 0.10293 0.73783 -0.08400
H 	H 	0.96417 0.07953 0.85863 0.27900
O 	O 	0.37151 0.22432 0.08824 -0.41100
O 	O 	0.38408 0.23078 0.23263 -0.40900
C 	C 	0.39025 0.24522 0.15717 0.37100
C 	C 	0.42231 0.29192 0.14367 -0.14800
C 	C 	0.44331 0.31923 0.21107 0.09500
H 	H 	0.43833 0.30857 0.26757 0.01000
C 	C 	0.47187 0.36255 0.19667 -0.18200
H 	H 	0.48663 0.38027 0.24337 0.10700
C 	C 	0.47880 0.37981 0.11457 0.13800
C 	C 	0.45903 0.35182 0.04537 -0.17600
H 	H 	0.46443 0.36257 0.98897 0.09400
C 	C 	0.43162 0.30857 0.05877 0.08700
H 	H 	0.41923 0.29027 0.01147 0.01500
C 	C 	0.50583 0.42684 0.09717 -0.09100
C 	C 	0.48750 0.44664 0.04957 -0.03600
H 	H 	0.45873 0.43027 0.03327 0.04400
H 	H 	0.60753 0.43627 0.07117 -0.08400
H 	H 	0.63083 0.41287 0.19197 0.27900
O 	O 	0.51947 0.96182 0.42157 -0.41100
O 	O 	0.51336 0.94925 0.56596 -0.40900
C 	C 	0.52163 0.94308 0.49050 0.37100
C 	C 	0.53627 0.91102 0.47700 -0.14800
C 	C 	0.54258 0.89002 0.54440 0.09500
H 	H 	0.53690 0.89500 0.60090 0.01000
C 	C 	0.55734 0.86146 0.53000 -0.18200
H 	H 	0.56030 0.84670 0.57670 0.10700
C 	C 	0.56767 0.85453 0.44790 0.13900
C 	C 	0.55945 0.87430 0.37870 -0.17700
H 	H 	0.56480 0.86890 0.32230 0.09400
C 	C 	0.54361 0.90171 0.39210 0.08700
H 	H 	0.53770 0.91410 0.34480 0.01500
C 	C 	0.58767 0.82750 0.43050 -0.09100
C 	C 	0.62580 0.84583 0.38290 -0.03600
H 	H 	0.63820 0.87460 0.36660 0.04400
H 	H 	0.49540 0.72580 0.40450 -0.08400
H 	H 	0.44870 0.70250 0.52530 0.27900
O 	O 	0.18614 0.29515 0.75490 -0.41100
O 	O 	0.18003 0.28258 0.89929 -0.40900
C 	C 	0.18830 0.27641 0.82383 0.37100
C 	C 	0.20294 0.24435 0.81033 -0.14800
C 	C 	0.20925 0.22335 0.87773 0.09500
H 	H 	0.20357 0.22833 0.93423 0.01000
C 	C 	0.22401 0.19479 0.86333 -0.18200
H 	H 	0.22697 0.18003 0.91003 0.10700
C 	C 	0.23434 0.18786 0.78123 0.13900
C 	C 	0.22612 0.20763 0.71203 -0.17700
H 	H 	0.23147 0.20223 0.65563 0.09400
C 	C 	0.21028 0.23504 0.72543 0.08700
H 	H 	0.20437 0.24743 0.67813 0.01500
C 	C 	0.25434 0.16083 0.76383 -0.09100
C 	C 	0.29247 0.17916 0.71623 -0.03600
H 	H 	0.30487 0.20793 0.69993 0.04400
H 	H 	0.16207 0.05913 0.73783 -0.08400
H 	H 	0.11537 0.03583 0.85863 0.27900
O 	O 	0.85280 0.62849 0.08824 -0.41100
O 	O 	0.84669 0.61592 0.23263 -0.40900
C 	C 	0.85496 0.60975 0.15717 0.37100
C 	C 	0.86960 0.57769 0.14367 -0.14800
C 	C 	0.87591 0.55669 0.21107 0.09500
H 	H 	0.87023 0.56167 0.26757 0.01000
C 	C 	0.89067 0.52813 0.19667 -0.18200
H 	H 	0.89363 0.51337 0.24337 0.10700
C 	C 	0.90100 0.52120 0.11457 0.13800
C 	C 	0.89278 0.54097 0.04537 -0.17600
H 	H 	0.89813 0.53557 0.98897 0.09400
C 	C 	0.87694 0.56838 0.05877 0.08700
H 	H 	0.87103 0.58077 0.01147 0.01500
C 	C 	0.92100 0.49417 0.09717 -0.09100
C 	C 	0.95913 0.51250 0.04957 -0.03600
H 	H 	0.97153 0.54127 0.03327 0.04400
H 	H 	0.82873 0.39247 0.07117 -0.08400
H 	H 	0.78203 0.36917 0.19197 0.27900
O 	O 	0.44235 0.48053 0.42157 -0.41100
O 	O 	0.43589 0.48664 0.56596 -0.40900
C 	C 	0.42145 0.47837 0.49050 0.37100
C 	C 	0.37475 0.46373 0.47700 -0.14800
C 	C 	0.34744 0.45742 0.54440 0.09500
H 	H 	0.35810 0.46310 0.60090 0.00900
C 	C 	0.30412 0.44266 0.53000 -0.18200
H 	H 	0.28640 0.43970 0.57670 0.10700
C 	C 	0.28686 0.43233 0.44790 0.13900
C 	C 	0.31485 0.44055 0.37870 -0.17700
H 	H 	0.30410 0.43520 0.32230 0.09400
C 	C 	0.35810 0.45639 0.39210 0.08700
H 	H 	0.37640 0.46230 0.34480 0.01500
C 	C 	0.23983 0.41233 0.43050 -0.09100
C 	C 	0.22003 0.37420 0.38290 -0.03600
H 	H 	0.23640 0.36180 0.36660 0.04400
H 	H 	0.23040 0.50460 0.40450 -0.08400
H 	H 	0.25380 0.55130 0.52530 0.27900
O 	O 	0.10902 0.81386 0.75490 -0.41100
O 	O 	0.10256 0.81997 0.89929 -0.40900
C 	C 	0.08812 0.81170 0.82383 0.37100
C 	C 	0.04142 0.79706 0.81033 -0.14800
C 	C 	0.01411 0.79075 0.87773 0.09500
H 	H 	0.02477 0.79643 0.93423 0.00900
C 	C 	0.97079 0.77599 0.86333 -0.18200
H 	H 	0.95307 0.77303 0.91003 0.10700
C 	C 	0.95353 0.76566 0.78123 0.13900
C 	C 	0.98152 0.77388 0.71203 -0.17700
H 	H 	0.97077 0.76853 0.65563 0.09400
C 	C 	0.02477 0.78972 0.72543 0.08800
H 	H 	0.04307 0.79563 0.67813 0.01500
C 	C 	0.90650 0.74566 0.76383 -0.09100
C 	C 	0.88670 0.70753 0.71623 -0.03600
H 	H 	0.90307 0.69513 0.69993 0.04400
H 	H 	0.89707 0.83793 0.73783 -0.08400
H 	H 	0.92047 0.88463 0.85863 0.27900
O 	O 	0.77568 0.14720 0.08824 -0.41100
O 	O 	0.76922 0.15331 0.23263 -0.40900
C 	C 	0.75478 0.14504 0.15717 0.37100
C 	C 	0.70808 0.13040 0.14367 -0.14800
C 	C 	0.68077 0.12409 0.21107 0.09500
H 	H 	0.69143 0.12977 0.26757 0.01000
C 	C 	0.63745 0.10933 0.19667 -0.18200
H 	H 	0.61973 0.10637 0.24337 0.10700
C 	C 	0.62019 0.09900 0.11457 0.13800
C 	C 	0.64818 0.10722 0.04537 -0.17600
H 	H 	0.63743 0.10187 0.98897 0.09400
C 	C 	0.69143 0.12306 0.05877 0.08700
H 	H 	0.70973 0.12897 0.01147 0.01500
C 	C 	0.57316 0.07900 0.09717 -0.09100
C 	C 	0.55336 0.04087 0.04957 -0.03600
H 	H 	0.56973 0.02847 0.03327 0.04400
H 	H 	0.56373 0.17127 0.07117 -0.08400
H 	H 	0.58713 0.21797 0.19197 0.27900
O 	O 	0.44235 0.96182 0.42157 -0.41100
O 	O 	0.43589 0.94925 0.56596 -0.40900
C 	C 	0.42145 0.94308 0.49050 0.37100
C 	C 	0.37475 0.91102 0.47700 -0.14800
C 	C 	0.34744 0.89002 0.54440 0.09500
H 	H 	0.35810 0.89500 0.60090 0.01000
C 	C 	0.30412 0.86146 0.53000 -0.18200
H 	H 	0.28640 0.84670 0.57670 0.10700
C 	C 	0.28686 0.85453 0.44790 0.13900
C 	C 	0.31485 0.87430 0.37870 -0.17700
H 	H 	0.30410 0.86890 0.32230 0.09400
C 	C 	0.35810 0.90171 0.39210 0.08700
H 	H 	0.37640 0.91410 0.34480 0.01500
C 	C 	0.23983 0.82750 0.43050 -0.09100
C 	C 	0.22003 0.84583 0.38290 -0.03600
H 	H 	0.23640 0.87460 0.36660 0.04400
H 	H 	0.23040 0.72580 0.40450 -0.08400
H 	H 	0.25380 0.70250 0.52530 0.27900
O 	O 	0.10902 0.29515 0.75490 -0.41100
O 	O 	0.10256 0.28258 0.89929 -0.40900
C 	C 	0.08812 0.27641 0.82383 0.37100
C 	C 	0.04142 0.24435 0.81033 -0.14800
C 	C 	0.01411 0.22335 0.87773 0.09500
H 	H 	0.02477 0.22833 0.93423 0.01000
C 	C 	0.97079 0.19479 0.86333 -0.18200
H 	H 	0.95307 0.18003 0.91003 0.10700
C 	C 	0.95353 0.18786 0.78123 0.13800
C 	C 	0.98152 0.20763 0.71203 -0.17700
H 	H 	0.97077 0.20223 0.65563 0.09400
C 	C 	0.02477 0.23504 0.72543 0.08700
H 	H 	0.04307 0.24743 0.67813 0.01500
C 	C 	0.90650 0.16083 0.76383 -0.09100
C 	C 	0.88670 0.17916 0.71623 -0.03600
H 	H 	0.90307 0.20793 0.69993 0.04400
H 	H 	0.89707 0.05913 0.73783 -0.08400
H 	H 	0.92047 0.03583 0.85863 0.27900
O 	O 	0.77568 0.62849 0.08824 -0.41100
O 	O 	0.76922 0.61592 0.23263 -0.40900
C 	C 	0.75478 0.60975 0.15717 0.37100
C 	C 	0.70808 0.57769 0.14367 -0.14800
C 	C 	0.68077 0.55669 0.21107 0.09500
H 	H 	0.69143 0.56167 0.26757 0.01000
C 	C 	0.63745 0.52813 0.19667 -0.18200
H 	H 	0.61973 0.51337 0.24337 0.10700
C 	C 	0.62019 0.52120 0.11457 0.13800
C 	C 	0.64818 0.54097 0.04537 -0.17600
H 	H 	0.63743 0.53557 0.98897 0.09400
C 	C 	0.69143 0.56838 0.05877 0.08700
H 	H 	0.70973 0.58077 0.01147 0.01500
C 	C 	0.57316 0.49417 0.09717 -0.09100
C 	C 	0.55336 0.51250 0.04957 -0.03600
H 	H 	0.56973 0.54127 0.03327 0.04400
H 	H 	0.56373 0.39247 0.07117 -0.08400
H 	H 	0.58713 0.36917 0.19197 0.27900
O 	O 	0.03818 0.48053 0.42157 -0.41100
O 	O 	0.05075 0.48664 0.56596 -0.40900
C 	C 	0.05692 0.47837 0.49050 0.37100
C 	C 	0.08898 0.46373 0.47700 -0.14800
C 	C 	0.10998 0.45742 0.54440 0.09500
H 	H 	0.10500 0.46310 0.60090 0.01000
C 	C 	0.13854 0.44266 0.53000 -0.18200
H 	H 	0.15330 0.43970 0.57670 0.10700
C 	C 	0.14547 0.43233 0.44790 0.13900
C 	C 	0.12570 0.44055 0.37870 -0.17700
H 	H 	0.13110 0.43520 0.32230 0.09400
C 	C 	0.09829 0.45639 0.39210 0.08700
H 	H 	0.08590 0.46230 0.34480 0.01500
C 	C 	0.17250 0.41233 0.43050 -0.09100
C 	C 	0.15417 0.37420 0.38290 -0.03600
H 	H 	0.12540 0.36180 0.36660 0.04400
H 	H 	0.27420 0.50460 0.40450 -0.08400
H 	H 	0.29750 0.55130 0.52530 0.27900
O 	O 	0.70485 0.81386 0.75490 -0.41100
O 	O 	0.71742 0.81997 0.89929 -0.40900
C 	C 	0.72359 0.81170 0.82383 0.37100
C 	C 	0.75565 0.79706 0.81033 -0.14800
C 	C 	0.77665 0.79075 0.87773 0.09500
H 	H 	0.77167 0.79643 0.93423 0.01000
C 	C 	0.80521 0.77599 0.86333 -0.18200
H 	H 	0.81997 0.77303 0.91003 0.10700
C 	C 	0.81214 0.76566 0.78123 0.13900
C 	C 	0.79237 0.77388 0.71203 -0.17700
H 	H 	0.79777 0.76853 0.65563 0.09400
C 	C 	0.76496 0.78972 0.72543 0.08700
H 	H 	0.75257 0.79563 0.67813 0.01500
C 	C 	0.83917 0.74566 0.76383 -0.09100
C 	C 	0.82084 0.70753 0.71623 -0.03600
H 	H 	0.79207 0.69513 0.69993 0.04400
H 	H 	0.94087 0.83793 0.73783 -0.08400
H 	H 	0.96417 0.88463 0.85863 0.27900
O 	O 	0.37151 0.14720 0.08824 -0.41100
O 	O 	0.38408 0.15331 0.23263 -0.40900
C 	C 	0.39025 0.14504 0.15717 0.37100
C 	C 	0.42231 0.13040 0.14367 -0.14800
C 	C 	0.44331 0.12409 0.21107 0.09500
H 	H 	0.43833 0.12977 0.26757 0.01000
C 	C 	0.47187 0.10933 0.19667 -0.18200
H 	H 	0.48663 0.10637 0.24337 0.10700
C 	C 	0.47880 0.09900 0.11457 0.13800
C 	C 	0.45903 0.10722 0.04537 -0.17600
H 	H 	0.46443 0.10187 0.98897 0.09400
C 	C 	0.43162 0.12306 0.05877 0.08700
H 	H 	0.41923 0.12897 0.01147 0.01500
C 	C 	0.50583 0.07900 0.09717 -0.09100
C 	C 	0.48750 0.04087 0.04957 -0.03600
H 	H 	0.45873 0.02847 0.03327 0.04400
H 	H 	0.60753 0.17127 0.07117 -0.08400
H 	H 	0.63083 0.21797 0.19197 0.27900
O 	O 	0.51947 0.55765 0.42157 -0.41100
O 	O 	0.51336 0.56411 0.56596 -0.40900
C 	C 	0.52163 0.57855 0.49050 0.37100
C 	C 	0.53627 0.62525 0.47700 -0.14800
C 	C 	0.54258 0.65256 0.54440 0.09500
H 	H 	0.53690 0.64190 0.60090 0.00900
C 	C 	0.55734 0.69588 0.53000 -0.18200
H 	H 	0.56030 0.71360 0.57670 0.10700
C 	C 	0.56767 0.71314 0.44790 0.13900
C 	C 	0.55945 0.68515 0.37870 -0.17700
H 	H 	0.56480 0.69590 0.32230 0.09400
C 	C 	0.54361 0.64190 0.39210 0.08700
H 	H 	0.53770 0.62360 0.34480 0.01500
C 	C 	0.58767 0.76017 0.43050 -0.09100
C 	C 	0.62580 0.77997 0.38290 -0.03600
H 	H 	0.63820 0.76360 0.36660 0.04400
H 	H 	0.49540 0.76960 0.40450 -0.08400
H 	H 	0.44870 0.74620 0.52530 0.27900
O 	O 	0.18614 0.89098 0.75490 -0.41100
O 	O 	0.18003 0.89744 0.89929 -0.40900
C 	C 	0.18830 0.91188 0.82383 0.37100
C 	C 	0.20294 0.95858 0.81033 -0.14800
C 	C 	0.20925 0.98589 0.87773 0.09500
H 	H 	0.20357 0.97523 0.93423 0.00900
C 	C 	0.22401 0.02921 0.86333 -0.18200
H 	H 	0.22697 0.04693 0.91003 0.10700
C 	C 	0.23434 0.04647 0.78123 0.13900
C 	C 	0.22612 0.01848 0.71203 -0.17700
H 	H 	0.23147 0.02923 0.65563 0.09400
C 	C 	0.21028 0.97523 0.72543 0.08800
H 	H 	0.20437 0.95693 0.67813 0.01500
C 	C 	0.25434 0.09350 0.76383 -0.09100
C 	C 	0.29247 0.11330 0.71623 -0.03600
H 	H 	0.30487 0.09693 0.69993 0.04400
H 	H 	0.16207 0.10293 0.73783 -0.08400
H 	H 	0.11537 0.07953 0.85863 0.27900
O 	O 	0.85280 0.22432 0.08824 -0.41100
O 	O 	0.84669 0.23078 0.23263 -0.40900
C 	C 	0.85496 0.24522 0.15717 0.37100
C 	C 	0.86960 0.29192 0.14367 -0.14800
C 	C 	0.87591 0.31923 0.21107 0.09500
H 	H 	0.87023 0.30857 0.26757 0.01000
C 	C 	0.89067 0.36255 0.19667 -0.18200
H 	H 	0.89363 0.38027 0.24337 0.10700
C 	C 	0.90100 0.37981 0.11457 0.13800
C 	C 	0.89278 0.35182 0.04537 -0.17600
H 	H 	0.89813 0.36257 0.98897 0.09400
C 	C 	0.87694 0.30857 0.05877 0.08700
H 	H 	0.87103 0.29027 0.01147 0.01500
C 	C 	0.92100 0.42684 0.09717 -0.09100
C 	C 	0.95913 0.44664 0.04957 -0.03600
H 	H 	0.97153 0.43027 0.03327 0.04400
H 	H 	0.82873 0.43627 0.07117 -0.08400
H 	H 	0.78203 0.41287 0.19197 0.27900
O 	O 	0.96182 0.44235 0.57843 -0.41100
O 	O 	0.94925 0.43589 0.43404 -0.40900
C 	C 	0.94308 0.42145 0.50950 0.37100
C 	C 	0.91102 0.37475 0.52300 -0.14800
C 	C 	0.89002 0.34744 0.45560 0.09500
H 	H 	0.89500 0.35810 0.39910 0.01000
C 	C 	0.86146 0.30412 0.47000 -0.18200
H 	H 	0.84670 0.28640 0.42330 0.10700
C 	C 	0.85453 0.28686 0.55210 0.13900
C 	C 	0.87430 0.31485 0.62130 -0.17700
H 	H 	0.86890 0.30410 0.67770 0.09400
C 	C 	0.90171 0.35810 0.60790 0.08700
H 	H 	0.91410 0.37640 0.65520 0.01500
C 	C 	0.82750 0.23983 0.56950 -0.09100
C 	C 	0.84583 0.22003 0.61710 -0.03600
H 	H 	0.87460 0.23640 0.63340 0.04400
H 	H 	0.72580 0.23040 0.59550 -0.08400
H 	H 	0.70250 0.25380 0.47470 0.27900
O 	O 	0.62849 0.77568 0.91176 -0.41100
O 	O 	0.61592 0.76922 0.76737 -0.40900
C 	C 	0.60975 0.75478 0.84283 0.37100
C 	C 	0.57769 0.70808 0.85633 -0.14800
C 	C 	0.55669 0.68077 0.78893 0.09500
H 	H 	0.56167 0.69143 0.73243 0.01000
C 	C 	0.52813 0.63745 0.80333 -0.18200
H 	H 	0.51337 0.61973 0.75663 0.10700
C 	C 	0.52120 0.62019 0.88543 0.13800
C 	C 	0.54097 0.64818 0.95463 -0.17600
H 	H 	0.53557 0.63743 0.01103 0.09400
C 	C 	0.56838 0.69143 0.94123 0.08700
H 	H 	0.58077 0.70973 0.98853 0.01500
C 	C 	0.49417 0.57316 0.90283 -0.09100
C 	C 	0.51250 0.55336 0.95043 -0.03600
H 	H 	0.54127 0.56973 0.96673 0.04400
H 	H 	0.39247 0.56373 0.92883 -0.08400
H 	H 	0.36917 0.58713 0.80803 0.27900
O 	O 	0.29515 0.10902 0.24510 -0.41100
O 	O 	0.28258 0.10256 0.10071 -0.40900
C 	C 	0.27641 0.08812 0.17617 0.37100
C 	C 	0.24435 0.04142 0.18967 -0.14800
C 	C 	0.22335 0.01411 0.12227 0.09500
H 	H 	0.22833 0.02477 0.06577 0.01000
C 	C 	0.19479 0.97079 0.13667 -0.18200
H 	H 	0.18003 0.95307 0.08997 0.10700
C 	C 	0.18786 0.95353 0.21877 0.13800
C 	C 	0.20763 0.98152 0.28797 -0.17700
H 	H 	0.20223 0.97077 0.34437 0.09400
C 	C 	0.23504 0.02477 0.27457 0.08700
H 	H 	0.24743 0.04307 0.32187 0.01500
C 	C 	0.16083 0.90650 0.23617 -0.09100
C 	C 	0.17916 0.88670 0.28377 -0.03600
H 	H 	0.20793 0.90307 0.30007 0.04400
H 	H 	0.05913 0.89707 0.26217 -0.08400
H 	H 	0.03583 0.92047 0.14137 0.27900
O 	O 	0.48053 0.03818 0.57843 -0.41100
O 	O 	0.48664 0.05075 0.43404 -0.40900
C 	C 	0.47837 0.05692 0.50950 0.37100
C 	C 	0.46373 0.08898 0.52300 -0.14800
C 	C 	0.45742 0.10998 0.45560 0.09500
H 	H 	0.46310 0.10500 0.39910 0.01000
C 	C 	0.44266 0.13854 0.47000 -0.18200
H 	H 	0.43970 0.15330 0.42330 0.10700
C 	C 	0.43233 0.14547 0.55210 0.13900
C 	C 	0.44055 0.12570 0.62130 -0.17700
H 	H 	0.43520 0.13110 0.67770 0.09400
C 	C 	0.45639 0.09829 0.60790 0.08700
H 	H 	0.46230 0.08590 0.65520 0.01500
C 	C 	0.41233 0.17250 0.56950 -0.09100
C 	C 	0.37420 0.15417 0.61710 -0.03600
H 	H 	0.36180 0.12540 0.63340 0.04400
H 	H 	0.50460 0.27420 0.59550 -0.08400
H 	H 	0.55130 0.29750 0.47470 0.27900
O 	O 	0.14720 0.37151 0.91176 -0.41100
O 	O 	0.15331 0.38408 0.76737 -0.40900
C 	C 	0.14504 0.39025 0.84283 0.37100
C 	C 	0.13040 0.42231 0.85633 -0.14800
C 	C 	0.12409 0.44331 0.78893 0.09500
H 	H 	0.12977 0.43833 0.73243 0.01000
C 	C 	0.10933 0.47187 0.80333 -0.18200
H 	H 	0.10637 0.48663 0.75663 0.10700
C 	C 	0.09900 0.47880 0.88543 0.13800
C 	C 	0.10722 0.45903 0.95463 -0.17600
H 	H 	0.10187 0.46443 0.01103 0.09400
C 	C 	0.12306 0.43162 0.94123 0.08700
H 	H 	0.12897 0.41923 0.98853 0.01500
C 	C 	0.07900 0.50583 0.90283 -0.09100
C 	C 	0.04087 0.48750 0.95043 -0.03600
H 	H 	0.02847 0.45873 0.96673 0.04400
H 	H 	0.17127 0.60753 0.92883 -0.08400
H 	H 	0.21797 0.63083 0.80803 0.27900
O 	O 	0.81386 0.70485 0.24510 -0.41100
O 	O 	0.81997 0.71742 0.10071 -0.40900
C 	C 	0.81170 0.72359 0.17617 0.37100
C 	C 	0.79706 0.75565 0.18967 -0.14800
C 	C 	0.79075 0.77665 0.12227 0.09500
H 	H 	0.79643 0.77167 0.06577 0.01000
C 	C 	0.77599 0.80521 0.13667 -0.18200
H 	H 	0.77303 0.81997 0.08997 0.10700
C 	C 	0.76566 0.81214 0.21877 0.13900
C 	C 	0.77388 0.79237 0.28797 -0.17700
H 	H 	0.76853 0.79777 0.34437 0.09400
C 	C 	0.78972 0.76496 0.27457 0.08700
H 	H 	0.79563 0.75257 0.32187 0.01500
C 	C 	0.74566 0.83917 0.23617 -0.09100
C 	C 	0.70753 0.82084 0.28377 -0.03600
H 	H 	0.69513 0.79207 0.30007 0.04400
H 	H 	0.83793 0.94087 0.26217 -0.08400
H 	H 	0.88463 0.96417 0.14137 0.27900
O 	O 	0.55765 0.51947 0.57843 -0.41100
O 	O 	0.56411 0.51336 0.43404 -0.40900
C 	C 	0.57855 0.52163 0.50950 0.37100
C 	C 	0.62525 0.53627 0.52300 -0.14800
C 	C 	0.65256 0.54258 0.45560 0.09500
H 	H 	0.64190 0.53690 0.39910 0.00900
C 	C 	0.69588 0.55734 0.47000 -0.18200
H 	H 	0.71360 0.56030 0.42330 0.10700
C 	C 	0.71314 0.56767 0.55210 0.13900
C 	C 	0.68515 0.55945 0.62130 -0.17700
H 	H 	0.69590 0.56480 0.67770 0.09400
C 	C 	0.64190 0.54361 0.60790 0.08700
H 	H 	0.62360 0.53770 0.65520 0.01500
C 	C 	0.76017 0.58767 0.56950 -0.09100
C 	C 	0.77997 0.62580 0.61710 -0.03600
H 	H 	0.76360 0.63820 0.63340 0.04400
H 	H 	0.76960 0.49540 0.59550 -0.08400
H 	H 	0.74620 0.44870 0.47470 0.27900
O 	O 	0.22432 0.85280 0.91176 -0.41100
O 	O 	0.23078 0.84669 0.76737 -0.40900
C 	C 	0.24522 0.85496 0.84283 0.37100
C 	C 	0.29192 0.86960 0.85633 -0.14800
C 	C 	0.31923 0.87591 0.78893 0.09500
H 	H 	0.30857 0.87023 0.73243 0.01000
C 	C 	0.36255 0.89067 0.80333 -0.18200
H 	H 	0.38027 0.89363 0.75663 0.10700
C 	C 	0.37981 0.90100 0.88543 0.13800
C 	C 	0.35182 0.89278 0.95463 -0.17600
H 	H 	0.36257 0.89813 0.01103 0.09400
C 	C 	0.30857 0.87694 0.94123 0.08700
H 	H 	0.29027 0.87103 0.98853 0.01500
C 	C 	0.42684 0.92100 0.90283 -0.09100
C 	C 	0.44664 0.95913 0.95043 -0.03600
H 	H 	0.43027 0.97153 0.96673 0.04400
H 	H 	0.43627 0.82873 0.92883 -0.08400
H 	H 	0.41287 0.78203 0.80803 0.27900
O 	O 	0.89098 0.18614 0.24510 -0.41100
O 	O 	0.89744 0.18003 0.10071 -0.40900
C 	C 	0.91188 0.18830 0.17617 0.37100
C 	C 	0.95858 0.20294 0.18967 -0.14800
C 	C 	0.98589 0.20925 0.12227 0.09500
H 	H 	0.97523 0.20357 0.06577 0.00900
C 	C 	0.02921 0.22401 0.13667 -0.18200
H 	H 	0.04693 0.22697 0.08997 0.10700
C 	C 	0.04647 0.23434 0.21877 0.13900
C 	C 	0.01848 0.22612 0.28797 -0.17700
H 	H 	0.02923 0.23147 0.34437 0.09400
C 	C 	0.97523 0.21028 0.27457 0.08800
H 	H 	0.95693 0.20437 0.32187 0.01500
C 	C 	0.09350 0.25434 0.23617 -0.09100
C 	C 	0.11330 0.29247 0.28377 -0.03600
H 	H 	0.09693 0.30487 0.30007 0.04400
H 	H 	0.10293 0.16207 0.26217 -0.08400
H 	H 	0.07953 0.11537 0.14137 0.27900
Cu	Cu	0.50342 0.00684 0.41513 0.90300
Cu	Cu	0.17009 0.34017 0.74846 0.90200
Cu	Cu	0.83675 0.67351 0.08180 0.90300
Cu	Cu	0.99316 0.49658 0.41513 0.90300
Cu	Cu	0.65983 0.82991 0.74846 0.90200
Cu	Cu	0.32649 0.16325 0.08180 0.90300
Cu	Cu	0.50342 0.49658 0.41513 0.90200
Cu	Cu	0.17009 0.82991 0.74846 0.90300
Cu	Cu	0.83675 0.16325 0.08180 0.90300
Cu	Cu	0.00684 0.50342 0.58487 0.90300
Cu	Cu	0.67351 0.83675 0.91820 0.90300
Cu	Cu	0.34017 0.17009 0.25154 0.90200
Cu	Cu	0.49658 0.99316 0.58487 0.90300
Cu	Cu	0.16325 0.32649 0.91820 0.90300
Cu	Cu	0.82991 0.65983 0.25154 0.90200
Cu	Cu	0.49658 0.50342 0.58487 0.90200
Cu	Cu	0.16325 0.83675 0.91820 0.90300
Cu	Cu	0.82991 0.17009 0.25154 0.90300
O 	O 	0.76548 0.23452 0.49880 -0.28600
C 	C 	0.82301 0.17699 0.64120 0.00100
C 	C 	0.78459 0.21541 0.54450 0.16500
C 	C 	0.74690 0.25310 0.55850 0.38800
C 	C 	0.72530 0.27470 0.51050 -0.85000
H 	H 	0.71380 0.28620 0.55200 0.27000
O 	O 	0.43215 0.56785 0.83213 -0.28600
C 	C 	0.48968 0.51032 0.97453 0.00100
C 	C 	0.45126 0.54874 0.87783 0.16500
C 	C 	0.41357 0.58643 0.89183 0.38800
C 	C 	0.39197 0.60803 0.84383 -0.85000
H 	H 	0.38047 0.61953 0.88533 0.27100
O 	O 	0.09881 0.90119 0.16547 -0.28600
C 	C 	0.15634 0.84366 0.30787 0.00100
C 	C 	0.11792 0.88208 0.21117 0.16500
C 	C 	0.08023 0.91977 0.22517 0.38800
C 	C 	0.05863 0.94137 0.17717 -0.85000
H 	H 	0.04713 0.95287 0.21867 0.27100
O 	O 	0.76548 0.53096 0.49880 -0.28600
C 	C 	0.82301 0.64602 0.64120 0.00100
C 	C 	0.78459 0.56918 0.54450 0.16500
C 	C 	0.74690 0.49380 0.55850 0.38800
C 	C 	0.72530 0.45060 0.51050 -0.85000
H 	H 	0.71380 0.42760 0.55200 0.27000
O 	O 	0.43215 0.86429 0.83213 -0.28600
C 	C 	0.48968 0.97935 0.97453 0.00100
C 	C 	0.45126 0.90251 0.87783 0.16500
C 	C 	0.41357 0.82713 0.89183 0.38800
C 	C 	0.39197 0.78393 0.84383 -0.85000
H 	H 	0.38047 0.76093 0.88533 0.27100
O 	O 	0.09881 0.19763 0.16547 -0.28600
C 	C 	0.15634 0.31269 0.30787 0.00100
C 	C 	0.11792 0.23585 0.21117 0.16500
C 	C 	0.08023 0.16047 0.22517 0.38800
C 	C 	0.05863 0.11727 0.17717 -0.85000
H 	H 	0.04713 0.09427 0.21867 0.27100
O 	O 	0.46904 0.23452 0.49880 -0.28600
C 	C 	0.35398 0.17699 0.64120 0.00100
C 	C 	0.43082 0.21541 0.54450 0.16500
C 	C 	0.50620 0.25310 0.55850 0.38800
C 	C 	0.54940 0.27470 0.51050 -0.85000
H 	H 	0.57240 0.28620 0.55200 0.27000
O 	O 	0.13571 0.56785 0.83213 -0.28600
C 	C 	0.02065 0.51032 0.97453 0.00100
C 	C 	0.09749 0.54874 0.87783 0.16500
C 	C 	0.17287 0.58643 0.89183 0.38800
C 	C 	0.21607 0.60803 0.84383 -0.85000
H 	H 	0.23907 0.61953 0.88533 0.27100
O 	O 	0.80237 0.90119 0.16547 -0.28600
C 	C 	0.68731 0.84366 0.30787 0.00100
C 	C 	0.76415 0.88208 0.21117 0.16500
C 	C 	0.83953 0.91977 0.22517 0.38800
C 	C 	0.88273 0.94137 0.17717 -0.85000
H 	H 	0.90573 0.95287 0.21867 0.27100
O 	O 	0.23452 0.76548 0.50120 -0.28600
C 	C 	0.17699 0.82301 0.35880 0.00100
C 	C 	0.21541 0.78459 0.45550 0.16500
C 	C 	0.25310 0.74690 0.44150 0.38800
C 	C 	0.27470 0.72530 0.48950 -0.85000
H 	H 	0.28620 0.71380 0.44800 0.27000
O 	O 	0.90119 0.09881 0.83453 -0.28600
C 	C 	0.84366 0.15634 0.69213 0.00100
C 	C 	0.88208 0.11792 0.78883 0.16500
C 	C 	0.91977 0.08023 0.77483 0.38800
C 	C 	0.94137 0.05863 0.82283 -0.85000
H 	H 	0.95287 0.04713 0.78133 0.27100
O 	O 	0.56785 0.43215 0.16787 -0.28600
C 	C 	0.51032 0.48968 0.02547 0.00100
C 	C 	0.54874 0.45126 0.12217 0.16500
C 	C 	0.58643 0.41357 0.10817 0.38800
C 	C 	0.60803 0.39197 0.15617 -0.85000
H 	H 	0.61953 0.38047 0.11467 0.27100
O 	O 	0.53096 0.76548 0.50120 -0.28600
C 	C 	0.64602 0.82301 0.35880 0.00100
C 	C 	0.56918 0.78459 0.45550 0.16500
C 	C 	0.49380 0.74690 0.44150 0.38800
C 	C 	0.45060 0.72530 0.48950 -0.85000
H 	H 	0.42760 0.71380 0.44800 0.27000
O 	O 	0.19763 0.09881 0.83453 -0.28600
C 	C 	0.31269 0.15634 0.69213 0.00100
C 	C 	0.23585 0.11792 0.78883 0.16500
C 	C 	0.16047 0.08023 0.77483 0.38800
C 	C 	0.11727 0.05863 0.82283 -0.85000
H 	H 	0.09427 0.04713 0.78133 0.27100
O 	O 	0.86429 0.43215 0.16787 -0.28600
C 	C 	0.97935 0.48968 0.02547 0.00100
C 	C 	0.90251 0.45126 0.12217 0.16500
C 	C 	0.82713 0.41357 0.10817 0.38800
C 	C 	0.78393 0.39197 0.15617 -0.85000
H 	H 	0.76093 0.38047 0.11467 0.27100
O 	O 	0.23452 0.46904 0.50120 -0.28600
C 	C 	0.17699 0.35398 0.35880 0.00100
C 	C 	0.21541 0.43082 0.45550 0.16500
C 	C 	0.25310 0.50620 0.44150 0.38800
C 	C 	0.27470 0.54940 0.48950 -0.85000
H 	H 	0.28620 0.57240 0.44800 0.27000
O 	O 	0.90119 0.80237 0.83453 -0.28600
C 	C 	0.84366 0.68731 0.69213 0.00100
C 	C 	0.88208 0.76415 0.78883 0.16500
C 	C 	0.91977 0.83953 0.77483 0.38800
C 	C 	0.94137 0.88273 0.82283 -0.85000
H 	H 	0.95287 0.90573 0.78133 0.27100
O 	O 	0.56785 0.13571 0.16787 -0.28600
C 	C 	0.51032 0.02065 0.02547 0.00100
C 	C 	0.54874 0.09749 0.12217 0.16500
C 	C 	0.58643 0.17287 0.10817 0.38800
C 	C 	0.60803 0.21607 0.15617 -0.85000
H 	H 	0.61953 0.23907 0.11467 0.27100
