data_crystal

_cell_length_a 35.83730
_cell_length_b 35.83730
_cell_length_c 15.13430
_cell_angle_alpha 90.00000
_cell_angle_beta  90.00000
_cell_angle_gamma 120.00000

_symmetry_space_group_name_	'P 1'
_symmetry_space_group_name_H-M	'P 1'

loop_
_symmetry_equiv_pos_as_xyz
  x,y,z

loop_
_atom_site_label
_atom_site_type_symbol
_atom_site_fract_x
_atom_site_fract_y
_atom_site_fract_z
_atom_site_charge
O 	O 	0.55762 0.03840 0.58020 -0.41000
O 	O 	0.56401 0.05079 0.43330 -0.41600
C 	C 	0.57842 0.05697 0.50870 0.37800
C 	C 	0.62506 0.08907 0.52340 -0.16400
C 	C 	0.65183 0.11030 0.45680 0.11800
H 	H 	0.64120 0.10600 0.39940 0.00100
C 	C 	0.69541 0.13880 0.47220 -0.21000
H 	H 	0.71290 0.15370 0.42450 0.11600
C 	C 	0.71295 0.14551 0.55190 0.15900
C 	C 	0.68521 0.12580 0.62270 -0.19300
H 	H 	0.69620 0.13130 0.67980 0.09800
C 	C 	0.64173 0.09820 0.60990 0.10000
H 	H 	0.62350 0.08580 0.65810 0.01000
C 	C 	0.75994 0.17267 0.57000 -0.09900
C 	C 	0.77982 0.15421 0.61770 -0.03200
H 	H 	0.76360 0.12530 0.63360 0.04100
H 	H 	0.77080 0.27290 0.59910 -0.06800
H 	H 	0.74520 0.29850 0.48240 0.25800
O 	O 	0.22429 0.37173 0.91353 -0.41000
O 	O 	0.23068 0.38412 0.76663 -0.41600
C 	C 	0.24509 0.39030 0.84203 0.37800
C 	C 	0.29173 0.42240 0.85673 -0.16400
C 	C 	0.31850 0.44363 0.79013 0.11800
H 	H 	0.30787 0.43933 0.73273 0.00100
C 	C 	0.36208 0.47213 0.80553 -0.21000
H 	H 	0.37957 0.48703 0.75783 0.11600
C 	C 	0.37962 0.47884 0.88523 0.15900
C 	C 	0.35188 0.45913 0.95603 -0.19300
H 	H 	0.36287 0.46463 0.01313 0.09800
C 	C 	0.30840 0.43153 0.94323 0.10000
H 	H 	0.29017 0.41913 0.99143 0.01000
C 	C 	0.42661 0.50600 0.90333 -0.09900
C 	C 	0.44649 0.48754 0.95103 -0.03200
H 	H 	0.43027 0.45863 0.96693 0.04100
H 	H 	0.43747 0.60623 0.93243 -0.06800
H 	H 	0.41187 0.63183 0.81573 0.25800
O 	O 	0.89095 0.70507 0.24687 -0.41000
O 	O 	0.89734 0.71746 0.09997 -0.41600
C 	C 	0.91175 0.72364 0.17537 0.37800
C 	C 	0.95839 0.75574 0.19007 -0.16400
C 	C 	0.98516 0.77697 0.12347 0.11800
H 	H 	0.97453 0.77267 0.06607 0.00100
C 	C 	0.02874 0.80547 0.13887 -0.21000
H 	H 	0.04623 0.82037 0.09117 0.11600
C 	C 	0.04628 0.81218 0.21857 0.15900
C 	C 	0.01854 0.79247 0.28937 -0.19300
H 	H 	0.02953 0.79797 0.34647 0.09900
C 	C 	0.97506 0.76487 0.27657 0.10100
H 	H 	0.95683 0.75247 0.32477 0.01100
C 	C 	0.09327 0.83934 0.23667 -0.09800
C 	C 	0.11315 0.82088 0.28437 -0.03100
H 	H 	0.09693 0.79197 0.30027 0.04200
H 	H 	0.10413 0.93957 0.26577 -0.06700
H 	H 	0.07853 0.96517 0.14907 0.25900
O 	O 	0.96160 0.51922 0.58020 -0.40900
O 	O 	0.94921 0.51322 0.43330 -0.41500
C 	C 	0.94303 0.52145 0.50870 0.37900
C 	C 	0.91093 0.53599 0.52340 -0.16300
C 	C 	0.88970 0.54153 0.45680 0.11900
H 	H 	0.89400 0.53520 0.39940 0.00200
C 	C 	0.86120 0.55661 0.47220 -0.20900
H 	H 	0.84630 0.55920 0.42450 0.11700
C 	C 	0.85449 0.56744 0.55190 0.16000
C 	C 	0.87420 0.55941 0.62270 -0.19200
H 	H 	0.86870 0.56490 0.67980 0.09900
C 	C 	0.90180 0.54353 0.60990 0.10100
H 	H 	0.91420 0.53770 0.65810 0.01100
C 	C 	0.82733 0.58727 0.57000 -0.09800
C 	C 	0.84579 0.62561 0.61770 -0.03100
H 	H 	0.87470 0.63830 0.63360 0.04200
H 	H 	0.72710 0.49790 0.59910 -0.06700
H 	H 	0.70150 0.44670 0.48240 0.25900
O 	O 	0.62827 0.85255 0.91353 -0.40900
O 	O 	0.61588 0.84655 0.76663 -0.41500
C 	C 	0.60970 0.85478 0.84203 0.37900
C 	C 	0.57760 0.86932 0.85673 -0.16300
C 	C 	0.55637 0.87486 0.79013 0.11900
H 	H 	0.56067 0.86853 0.73273 0.00200
C 	C 	0.52787 0.88994 0.80553 -0.20900
H 	H 	0.51297 0.89253 0.75783 0.11700
C 	C 	0.52116 0.90077 0.88523 0.16000
C 	C 	0.54087 0.89274 0.95603 -0.19200
H 	H 	0.53537 0.89823 0.01313 0.09900
C 	C 	0.56847 0.87686 0.94323 0.10100
H 	H 	0.58087 0.87103 0.99143 0.01100
C 	C 	0.49400 0.92060 0.90333 -0.09800
C 	C 	0.51246 0.95894 0.95103 -0.03100
H 	H 	0.54137 0.97163 0.96693 0.04200
H 	H 	0.39377 0.83123 0.93243 -0.06700
H 	H 	0.36817 0.78003 0.81573 0.25900
O 	O 	0.29493 0.18589 0.24687 -0.40900
O 	O 	0.28254 0.17989 0.09997 -0.41500
C 	C 	0.27636 0.18812 0.17537 0.37900
C 	C 	0.24426 0.20266 0.19007 -0.16300
C 	C 	0.22303 0.20820 0.12347 0.11900
H 	H 	0.22733 0.20187 0.06607 0.00200
C 	C 	0.19453 0.22328 0.13887 -0.20900
H 	H 	0.17963 0.22587 0.09117 0.11700
C 	C 	0.18782 0.23411 0.21857 0.16000
C 	C 	0.20753 0.22608 0.28937 -0.19200
H 	H 	0.20203 0.23157 0.34647 0.09900
C 	C 	0.23513 0.21020 0.27657 0.10100
H 	H 	0.24753 0.20437 0.32477 0.01100
C 	C 	0.16066 0.25394 0.23667 -0.09800
C 	C 	0.17912 0.29228 0.28437 -0.03100
H 	H 	0.20803 0.30497 0.30027 0.04200
H 	H 	0.06043 0.16457 0.26577 -0.06700
H 	H 	0.03483 0.11337 0.14907 0.25900
O 	O 	0.48078 0.44238 0.58020 -0.40900
O 	O 	0.48678 0.43599 0.43330 -0.41500
C 	C 	0.47855 0.42158 0.50870 0.37900
C 	C 	0.46401 0.37494 0.52340 -0.16300
C 	C 	0.45847 0.34817 0.45680 0.11900
H 	H 	0.46480 0.35880 0.39940 0.00200
C 	C 	0.44339 0.30459 0.47220 -0.20900
H 	H 	0.44080 0.28710 0.42450 0.11700
C 	C 	0.43256 0.28705 0.55190 0.16000
C 	C 	0.44059 0.31479 0.62270 -0.19200
H 	H 	0.43510 0.30380 0.67980 0.09900
C 	C 	0.45647 0.35827 0.60990 0.10100
H 	H 	0.46230 0.37650 0.65810 0.01000
C 	C 	0.41273 0.24006 0.57000 -0.09800
C 	C 	0.37439 0.22018 0.61770 -0.03100
H 	H 	0.36170 0.23640 0.63360 0.04200
H 	H 	0.50210 0.22920 0.59910 -0.06700
H 	H 	0.55330 0.25480 0.48240 0.25900
O 	O 	0.14745 0.77571 0.91353 -0.40900
O 	O 	0.15345 0.76932 0.76663 -0.41500
C 	C 	0.14522 0.75491 0.84203 0.37900
C 	C 	0.13068 0.70827 0.85673 -0.16300
C 	C 	0.12514 0.68150 0.79013 0.11900
H 	H 	0.13147 0.69213 0.73273 0.00200
C 	C 	0.11006 0.63792 0.80553 -0.20900
H 	H 	0.10747 0.62043 0.75783 0.11700
C 	C 	0.09923 0.62038 0.88523 0.16000
C 	C 	0.10726 0.64812 0.95603 -0.19200
H 	H 	0.10177 0.63713 0.01313 0.09900
C 	C 	0.12314 0.69160 0.94323 0.10100
H 	H 	0.12897 0.70983 0.99143 0.01100
C 	C 	0.07940 0.57339 0.90333 -0.09800
C 	C 	0.04106 0.55351 0.95103 -0.03100
H 	H 	0.02837 0.56973 0.96693 0.04200
H 	H 	0.16877 0.56253 0.93243 -0.06700
H 	H 	0.21997 0.58813 0.81573 0.25900
O 	O 	0.81411 0.10905 0.24687 -0.40900
O 	O 	0.82011 0.10266 0.09997 -0.41500
C 	C 	0.81188 0.08825 0.17537 0.37900
C 	C 	0.79734 0.04161 0.19007 -0.16400
C 	C 	0.79180 0.01484 0.12347 0.11900
H 	H 	0.79813 0.02547 0.06607 0.00200
C 	C 	0.77672 0.97126 0.13887 -0.20900
H 	H 	0.77413 0.95377 0.09117 0.11700
C 	C 	0.76589 0.95372 0.21857 0.16100
C 	C 	0.77392 0.98146 0.28937 -0.19200
H 	H 	0.76843 0.97047 0.34647 0.09900
C 	C 	0.78980 0.02494 0.27657 0.10100
H 	H 	0.79563 0.04317 0.32477 0.01000
C 	C 	0.74606 0.90673 0.23667 -0.09800
C 	C 	0.70772 0.88685 0.28437 -0.03100
H 	H 	0.69503 0.90307 0.30027 0.04200
H 	H 	0.83543 0.89587 0.26577 -0.06700
H 	H 	0.88663 0.92147 0.14907 0.25900
O 	O 	0.03840 0.55762 0.41980 -0.40900
O 	O 	0.05079 0.56401 0.56670 -0.41500
C 	C 	0.05697 0.57842 0.49130 0.37900
C 	C 	0.08907 0.62506 0.47660 -0.16300
C 	C 	0.11030 0.65183 0.54320 0.11900
H 	H 	0.10600 0.64120 0.60060 0.00200
C 	C 	0.13880 0.69541 0.52780 -0.20900
H 	H 	0.15370 0.71290 0.57550 0.11700
C 	C 	0.14551 0.71295 0.44810 0.16000
C 	C 	0.12580 0.68521 0.37730 -0.19200
H 	H 	0.13130 0.69620 0.32020 0.09900
C 	C 	0.09820 0.64173 0.39010 0.10100
H 	H 	0.08580 0.62350 0.34190 0.01100
C 	C 	0.17267 0.75994 0.43000 -0.09800
C 	C 	0.15421 0.77982 0.38230 -0.03100
H 	H 	0.12530 0.76360 0.36640 0.04200
H 	H 	0.27290 0.77080 0.40090 -0.06700
H 	H 	0.29850 0.74520 0.51760 0.25900
O 	O 	0.70507 0.89095 0.75313 -0.40900
O 	O 	0.71746 0.89734 0.90003 -0.41500
C 	C 	0.72364 0.91175 0.82463 0.37900
C 	C 	0.75574 0.95839 0.80993 -0.16300
C 	C 	0.77697 0.98516 0.87653 0.11900
H 	H 	0.77267 0.97453 0.93393 0.00200
C 	C 	0.80547 0.02874 0.86113 -0.20900
H 	H 	0.82037 0.04623 0.90883 0.11700
C 	C 	0.81218 0.04628 0.78143 0.16000
C 	C 	0.79247 0.01854 0.71063 -0.19200
H 	H 	0.79797 0.02953 0.65353 0.09900
C 	C 	0.76487 0.97506 0.72343 0.10100
H 	H 	0.75247 0.95683 0.67523 0.01100
C 	C 	0.83934 0.09327 0.76333 -0.09800
C 	C 	0.82088 0.11315 0.71563 -0.03100
H 	H 	0.79197 0.09693 0.69973 0.04200
H 	H 	0.93957 0.10413 0.73423 -0.06700
H 	H 	0.96517 0.07853 0.85093 0.25900
O 	O 	0.37173 0.22429 0.08647 -0.40900
O 	O 	0.38412 0.23068 0.23337 -0.41500
C 	C 	0.39030 0.24509 0.15797 0.37900
C 	C 	0.42240 0.29173 0.14327 -0.16300
C 	C 	0.44363 0.31850 0.20987 0.11900
H 	H 	0.43933 0.30787 0.26727 0.00200
C 	C 	0.47213 0.36208 0.19447 -0.20900
H 	H 	0.48703 0.37957 0.24217 0.11700
C 	C 	0.47884 0.37962 0.11477 0.16000
C 	C 	0.45913 0.35188 0.04397 -0.19200
H 	H 	0.46463 0.36287 0.98687 0.09900
C 	C 	0.43153 0.30840 0.05677 0.10100
H 	H 	0.41913 0.29017 0.00857 0.01100
C 	C 	0.50600 0.42661 0.09667 -0.09800
C 	C 	0.48754 0.44649 0.04897 -0.03100
H 	H 	0.45863 0.43027 0.03307 0.04200
H 	H 	0.60623 0.43747 0.06757 -0.06700
H 	H 	0.63183 0.41187 0.18427 0.25900
O 	O 	0.51922 0.96160 0.41980 -0.40900
O 	O 	0.51322 0.94921 0.56670 -0.41500
C 	C 	0.52145 0.94303 0.49130 0.37900
C 	C 	0.53599 0.91093 0.47660 -0.16300
C 	C 	0.54153 0.88970 0.54320 0.11900
H 	H 	0.53520 0.89400 0.60060 0.00200
C 	C 	0.55661 0.86120 0.52780 -0.20900
H 	H 	0.55920 0.84630 0.57550 0.11700
C 	C 	0.56744 0.85449 0.44810 0.16000
C 	C 	0.55941 0.87420 0.37730 -0.19200
H 	H 	0.56490 0.86870 0.32020 0.09900
C 	C 	0.54353 0.90180 0.39010 0.10100
H 	H 	0.53770 0.91420 0.34190 0.01100
C 	C 	0.58727 0.82733 0.43000 -0.09800
C 	C 	0.62561 0.84579 0.38230 -0.03100
H 	H 	0.63830 0.87470 0.36640 0.04200
H 	H 	0.49790 0.72710 0.40090 -0.06700
H 	H 	0.44670 0.70150 0.51760 0.25900
O 	O 	0.18589 0.29493 0.75313 -0.40900
O 	O 	0.17989 0.28254 0.90003 -0.41500
C 	C 	0.18812 0.27636 0.82463 0.37900
C 	C 	0.20266 0.24426 0.80993 -0.16300
C 	C 	0.20820 0.22303 0.87653 0.11900
H 	H 	0.20187 0.22733 0.93393 0.00200
C 	C 	0.22328 0.19453 0.86113 -0.20900
H 	H 	0.22587 0.17963 0.90883 0.11700
C 	C 	0.23411 0.18782 0.78143 0.16000
C 	C 	0.22608 0.20753 0.71063 -0.19200
H 	H 	0.23157 0.20203 0.65353 0.09900
C 	C 	0.21020 0.23513 0.72343 0.10100
H 	H 	0.20437 0.24753 0.67523 0.01100
C 	C 	0.25394 0.16066 0.76333 -0.09800
C 	C 	0.29228 0.17912 0.71563 -0.03100
H 	H 	0.30497 0.20803 0.69973 0.04200
H 	H 	0.16457 0.06043 0.73423 -0.06700
H 	H 	0.11337 0.03483 0.85093 0.25900
O 	O 	0.85255 0.62827 0.08647 -0.40900
O 	O 	0.84655 0.61588 0.23337 -0.41500
C 	C 	0.85478 0.60970 0.15797 0.37900
C 	C 	0.86932 0.57760 0.14327 -0.16300
C 	C 	0.87486 0.55637 0.20987 0.11900
H 	H 	0.86853 0.56067 0.26727 0.00200
C 	C 	0.88994 0.52787 0.19447 -0.20900
H 	H 	0.89253 0.51297 0.24217 0.11700
C 	C 	0.90077 0.52116 0.11477 0.16000
C 	C 	0.89274 0.54087 0.04397 -0.19200
H 	H 	0.89823 0.53537 0.98687 0.09900
C 	C 	0.87686 0.56847 0.05677 0.10100
H 	H 	0.87103 0.58087 0.00857 0.01100
C 	C 	0.92060 0.49400 0.09667 -0.09800
C 	C 	0.95894 0.51246 0.04897 -0.03100
H 	H 	0.97163 0.54137 0.03307 0.04200
H 	H 	0.83123 0.39377 0.06757 -0.06700
H 	H 	0.78003 0.36817 0.18427 0.25900
O 	O 	0.44238 0.48078 0.41980 -0.40900
O 	O 	0.43599 0.48678 0.56670 -0.41500
C 	C 	0.42158 0.47855 0.49130 0.37900
C 	C 	0.37494 0.46401 0.47660 -0.16300
C 	C 	0.34817 0.45847 0.54320 0.11900
H 	H 	0.35880 0.46480 0.60060 0.00200
C 	C 	0.30459 0.44339 0.52780 -0.20900
H 	H 	0.28710 0.44080 0.57550 0.11700
C 	C 	0.28705 0.43256 0.44810 0.16000
C 	C 	0.31479 0.44059 0.37730 -0.19200
H 	H 	0.30380 0.43510 0.32020 0.09900
C 	C 	0.35827 0.45647 0.39010 0.10100
H 	H 	0.37650 0.46230 0.34190 0.01000
C 	C 	0.24006 0.41273 0.43000 -0.09800
C 	C 	0.22018 0.37439 0.38230 -0.03100
H 	H 	0.23640 0.36170 0.36640 0.04200
H 	H 	0.22920 0.50210 0.40090 -0.06700
H 	H 	0.25480 0.55330 0.51760 0.25900
O 	O 	0.10905 0.81411 0.75313 -0.40900
O 	O 	0.10266 0.82011 0.90003 -0.41500
C 	C 	0.08825 0.81188 0.82463 0.37900
C 	C 	0.04161 0.79734 0.80993 -0.16400
C 	C 	0.01484 0.79180 0.87653 0.11900
H 	H 	0.02547 0.79813 0.93393 0.00200
C 	C 	0.97126 0.77672 0.86113 -0.20900
H 	H 	0.95377 0.77413 0.90883 0.11700
C 	C 	0.95372 0.76589 0.78143 0.16100
C 	C 	0.98146 0.77392 0.71063 -0.19200
H 	H 	0.97047 0.76843 0.65353 0.09900
C 	C 	0.02494 0.78980 0.72343 0.10100
H 	H 	0.04317 0.79563 0.67523 0.01000
C 	C 	0.90673 0.74606 0.76333 -0.09800
C 	C 	0.88685 0.70772 0.71563 -0.03100
H 	H 	0.90307 0.69503 0.69973 0.04200
H 	H 	0.89587 0.83543 0.73423 -0.06700
H 	H 	0.92147 0.88663 0.85093 0.25900
O 	O 	0.77571 0.14745 0.08647 -0.40900
O 	O 	0.76932 0.15345 0.23337 -0.41500
C 	C 	0.75491 0.14522 0.15797 0.37900
C 	C 	0.70827 0.13068 0.14327 -0.16300
C 	C 	0.68150 0.12514 0.20987 0.11900
H 	H 	0.69213 0.13147 0.26727 0.00200
C 	C 	0.63792 0.11006 0.19447 -0.20900
H 	H 	0.62043 0.10747 0.24217 0.11700
C 	C 	0.62038 0.09923 0.11477 0.16000
C 	C 	0.64812 0.10726 0.04397 -0.19200
H 	H 	0.63713 0.10177 0.98687 0.09900
C 	C 	0.69160 0.12314 0.05677 0.10100
H 	H 	0.70983 0.12897 0.00857 0.01100
C 	C 	0.57339 0.07940 0.09667 -0.09800
C 	C 	0.55351 0.04106 0.04897 -0.03100
H 	H 	0.56973 0.02837 0.03307 0.04200
H 	H 	0.56253 0.16877 0.06757 -0.06700
H 	H 	0.58813 0.21997 0.18427 0.25900
O 	O 	0.44238 0.96160 0.41980 -0.40900
O 	O 	0.43599 0.94921 0.56670 -0.41500
C 	C 	0.42158 0.94303 0.49130 0.37900
C 	C 	0.37494 0.91093 0.47660 -0.16300
C 	C 	0.34817 0.88970 0.54320 0.11900
H 	H 	0.35880 0.89400 0.60060 0.00200
C 	C 	0.30459 0.86120 0.52780 -0.20900
H 	H 	0.28710 0.84630 0.57550 0.11700
C 	C 	0.28705 0.85449 0.44810 0.16000
C 	C 	0.31479 0.87420 0.37730 -0.19200
H 	H 	0.30380 0.86870 0.32020 0.09900
C 	C 	0.35827 0.90180 0.39010 0.10100
H 	H 	0.37650 0.91420 0.34190 0.01100
C 	C 	0.24006 0.82733 0.43000 -0.09800
C 	C 	0.22018 0.84579 0.38230 -0.03100
H 	H 	0.23640 0.87470 0.36640 0.04200
H 	H 	0.22920 0.72710 0.40090 -0.06700
H 	H 	0.25480 0.70150 0.51760 0.25900
O 	O 	0.10905 0.29493 0.75313 -0.40900
O 	O 	0.10266 0.28254 0.90003 -0.41500
C 	C 	0.08825 0.27636 0.82463 0.37900
C 	C 	0.04161 0.24426 0.80993 -0.16300
C 	C 	0.01484 0.22303 0.87653 0.11900
H 	H 	0.02547 0.22733 0.93393 0.00200
C 	C 	0.97126 0.19453 0.86113 -0.20900
H 	H 	0.95377 0.17963 0.90883 0.11700
C 	C 	0.95372 0.18782 0.78143 0.16000
C 	C 	0.98146 0.20753 0.71063 -0.19200
H 	H 	0.97047 0.20203 0.65353 0.09900
C 	C 	0.02494 0.23513 0.72343 0.10100
H 	H 	0.04317 0.24753 0.67523 0.01100
C 	C 	0.90673 0.16066 0.76333 -0.09800
C 	C 	0.88685 0.17912 0.71563 -0.03100
H 	H 	0.90307 0.20803 0.69973 0.04200
H 	H 	0.89587 0.06043 0.73423 -0.06700
H 	H 	0.92147 0.03483 0.85093 0.25900
O 	O 	0.77571 0.62827 0.08647 -0.40900
O 	O 	0.76932 0.61588 0.23337 -0.41500
C 	C 	0.75491 0.60970 0.15797 0.37900
C 	C 	0.70827 0.57760 0.14327 -0.16300
C 	C 	0.68150 0.55637 0.20987 0.11900
H 	H 	0.69213 0.56067 0.26727 0.00200
C 	C 	0.63792 0.52787 0.19447 -0.20900
H 	H 	0.62043 0.51297 0.24217 0.11700
C 	C 	0.62038 0.52116 0.11477 0.16000
C 	C 	0.64812 0.54087 0.04397 -0.19200
H 	H 	0.63713 0.53537 0.98687 0.09900
C 	C 	0.69160 0.56847 0.05677 0.10100
H 	H 	0.70983 0.58087 0.00857 0.01100
C 	C 	0.57339 0.49400 0.09667 -0.09800
C 	C 	0.55351 0.51246 0.04897 -0.03100
H 	H 	0.56973 0.54137 0.03307 0.04200
H 	H 	0.56253 0.39377 0.06757 -0.06700
H 	H 	0.58813 0.36817 0.18427 0.25900
O 	O 	0.03840 0.48078 0.41980 -0.40900
O 	O 	0.05079 0.48678 0.56670 -0.41500
C 	C 	0.05697 0.47855 0.49130 0.37900
C 	C 	0.08907 0.46401 0.47660 -0.16300
C 	C 	0.11030 0.45847 0.54320 0.11900
H 	H 	0.10600 0.46480 0.60060 0.00200
C 	C 	0.13880 0.44339 0.52780 -0.20900
H 	H 	0.15370 0.44080 0.57550 0.11700
C 	C 	0.14551 0.43256 0.44810 0.16000
C 	C 	0.12580 0.44059 0.37730 -0.19200
H 	H 	0.13130 0.43510 0.32020 0.09900
C 	C 	0.09820 0.45647 0.39010 0.10100
H 	H 	0.08580 0.46230 0.34190 0.01100
C 	C 	0.17267 0.41273 0.43000 -0.09800
C 	C 	0.15421 0.37439 0.38230 -0.03100
H 	H 	0.12530 0.36170 0.36640 0.04200
H 	H 	0.27290 0.50210 0.40090 -0.06700
H 	H 	0.29850 0.55330 0.51760 0.25900
O 	O 	0.70507 0.81411 0.75313 -0.40900
O 	O 	0.71746 0.82011 0.90003 -0.41500
C 	C 	0.72364 0.81188 0.82463 0.37900
C 	C 	0.75574 0.79734 0.80993 -0.16300
C 	C 	0.77697 0.79180 0.87653 0.11900
H 	H 	0.77267 0.79813 0.93393 0.00200
C 	C 	0.80547 0.77672 0.86113 -0.20900
H 	H 	0.82037 0.77413 0.90883 0.11700
C 	C 	0.81218 0.76589 0.78143 0.16000
C 	C 	0.79247 0.77392 0.71063 -0.19200
H 	H 	0.79797 0.76843 0.65353 0.09900
C 	C 	0.76487 0.78980 0.72343 0.10100
H 	H 	0.75247 0.79563 0.67523 0.01100
C 	C 	0.83934 0.74606 0.76333 -0.09800
C 	C 	0.82088 0.70772 0.71563 -0.03100
H 	H 	0.79197 0.69503 0.69973 0.04200
H 	H 	0.93957 0.83543 0.73423 -0.06700
H 	H 	0.96517 0.88663 0.85093 0.25900
O 	O 	0.37173 0.14745 0.08647 -0.40900
O 	O 	0.38412 0.15345 0.23337 -0.41500
C 	C 	0.39030 0.14522 0.15797 0.37900
C 	C 	0.42240 0.13068 0.14327 -0.16300
C 	C 	0.44363 0.12514 0.20987 0.11900
H 	H 	0.43933 0.13147 0.26727 0.00200
C 	C 	0.47213 0.11006 0.19447 -0.20900
H 	H 	0.48703 0.10747 0.24217 0.11700
C 	C 	0.47884 0.09923 0.11477 0.16000
C 	C 	0.45913 0.10726 0.04397 -0.19200
H 	H 	0.46463 0.10177 0.98687 0.09900
C 	C 	0.43153 0.12314 0.05677 0.10100
H 	H 	0.41913 0.12897 0.00857 0.01100
C 	C 	0.50600 0.07940 0.09667 -0.09800
C 	C 	0.48754 0.04106 0.04897 -0.03100
H 	H 	0.45863 0.02837 0.03307 0.04200
H 	H 	0.60623 0.16877 0.06757 -0.06700
H 	H 	0.63183 0.21997 0.18427 0.25900
O 	O 	0.51922 0.55762 0.41980 -0.40900
O 	O 	0.51322 0.56401 0.56670 -0.41500
C 	C 	0.52145 0.57842 0.49130 0.37900
C 	C 	0.53599 0.62506 0.47660 -0.16300
C 	C 	0.54153 0.65183 0.54320 0.11900
H 	H 	0.53520 0.64120 0.60060 0.00200
C 	C 	0.55661 0.69541 0.52780 -0.20900
H 	H 	0.55920 0.71290 0.57550 0.11700
C 	C 	0.56744 0.71295 0.44810 0.16000
C 	C 	0.55941 0.68521 0.37730 -0.19200
H 	H 	0.56490 0.69620 0.32020 0.09900
C 	C 	0.54353 0.64173 0.39010 0.10100
H 	H 	0.53770 0.62350 0.34190 0.01000
C 	C 	0.58727 0.75994 0.43000 -0.09800
C 	C 	0.62561 0.77982 0.38230 -0.03100
H 	H 	0.63830 0.76360 0.36640 0.04200
H 	H 	0.49790 0.77080 0.40090 -0.06700
H 	H 	0.44670 0.74520 0.51760 0.25900
O 	O 	0.18589 0.89095 0.75313 -0.40900
O 	O 	0.17989 0.89734 0.90003 -0.41500
C 	C 	0.18812 0.91175 0.82463 0.37900
C 	C 	0.20266 0.95839 0.80993 -0.16400
C 	C 	0.20820 0.98516 0.87653 0.11900
H 	H 	0.20187 0.97453 0.93393 0.00200
C 	C 	0.22328 0.02874 0.86113 -0.20900
H 	H 	0.22587 0.04623 0.90883 0.11700
C 	C 	0.23411 0.04628 0.78143 0.16100
C 	C 	0.22608 0.01854 0.71063 -0.19200
H 	H 	0.23157 0.02953 0.65353 0.09900
C 	C 	0.21020 0.97506 0.72343 0.10100
H 	H 	0.20437 0.95683 0.67523 0.01000
C 	C 	0.25394 0.09327 0.76333 -0.09800
C 	C 	0.29228 0.11315 0.71563 -0.03100
H 	H 	0.30497 0.09693 0.69973 0.04200
H 	H 	0.16457 0.10413 0.73423 -0.06700
H 	H 	0.11337 0.07853 0.85093 0.25900
O 	O 	0.85255 0.22429 0.08647 -0.40900
O 	O 	0.84655 0.23068 0.23337 -0.41500
C 	C 	0.85478 0.24509 0.15797 0.37900
C 	C 	0.86932 0.29173 0.14327 -0.16300
C 	C 	0.87486 0.31850 0.20987 0.11900
H 	H 	0.86853 0.30787 0.26727 0.00200
C 	C 	0.88994 0.36208 0.19447 -0.20900
H 	H 	0.89253 0.37957 0.24217 0.11700
C 	C 	0.90077 0.37962 0.11477 0.16000
C 	C 	0.89274 0.35188 0.04397 -0.19200
H 	H 	0.89823 0.36287 0.98687 0.09900
C 	C 	0.87686 0.30840 0.05677 0.10100
H 	H 	0.87103 0.29017 0.00857 0.01100
C 	C 	0.92060 0.42661 0.09667 -0.09800
C 	C 	0.95894 0.44649 0.04897 -0.03100
H 	H 	0.97163 0.43027 0.03307 0.04200
H 	H 	0.83123 0.43747 0.06757 -0.06700
H 	H 	0.78003 0.41187 0.18427 0.25900
O 	O 	0.96160 0.44238 0.58020 -0.40900
O 	O 	0.94921 0.43599 0.43330 -0.41500
C 	C 	0.94303 0.42158 0.50870 0.37900
C 	C 	0.91093 0.37494 0.52340 -0.16300
C 	C 	0.88970 0.34817 0.45680 0.11900
H 	H 	0.89400 0.35880 0.39940 0.00200
C 	C 	0.86120 0.30459 0.47220 -0.20900
H 	H 	0.84630 0.28710 0.42450 0.11700
C 	C 	0.85449 0.28705 0.55190 0.16000
C 	C 	0.87420 0.31479 0.62270 -0.19200
H 	H 	0.86870 0.30380 0.67980 0.09900
C 	C 	0.90180 0.35827 0.60990 0.10100
H 	H 	0.91420 0.37650 0.65810 0.01100
C 	C 	0.82733 0.24006 0.57000 -0.09800
C 	C 	0.84579 0.22018 0.61770 -0.03100
H 	H 	0.87470 0.23640 0.63360 0.04200
H 	H 	0.72710 0.22920 0.59910 -0.06700
H 	H 	0.70150 0.25480 0.48240 0.25900
O 	O 	0.62827 0.77571 0.91353 -0.40900
O 	O 	0.61588 0.76932 0.76663 -0.41500
C 	C 	0.60970 0.75491 0.84203 0.37900
C 	C 	0.57760 0.70827 0.85673 -0.16300
C 	C 	0.55637 0.68150 0.79013 0.11900
H 	H 	0.56067 0.69213 0.73273 0.00200
C 	C 	0.52787 0.63792 0.80553 -0.20900
H 	H 	0.51297 0.62043 0.75783 0.11700
C 	C 	0.52116 0.62038 0.88523 0.16000
C 	C 	0.54087 0.64812 0.95603 -0.19200
H 	H 	0.53537 0.63713 0.01313 0.09900
C 	C 	0.56847 0.69160 0.94323 0.10100
H 	H 	0.58087 0.70983 0.99143 0.01100
C 	C 	0.49400 0.57339 0.90333 -0.09800
C 	C 	0.51246 0.55351 0.95103 -0.03100
H 	H 	0.54137 0.56973 0.96693 0.04200
H 	H 	0.39377 0.56253 0.93243 -0.06700
H 	H 	0.36817 0.58813 0.81573 0.25900
O 	O 	0.29493 0.10905 0.24687 -0.40900
O 	O 	0.28254 0.10266 0.09997 -0.41500
C 	C 	0.27636 0.08825 0.17537 0.37900
C 	C 	0.24426 0.04161 0.19007 -0.16300
C 	C 	0.22303 0.01484 0.12347 0.11900
H 	H 	0.22733 0.02547 0.06607 0.00200
C 	C 	0.19453 0.97126 0.13887 -0.20900
H 	H 	0.17963 0.95377 0.09117 0.11700
C 	C 	0.18782 0.95372 0.21857 0.16000
C 	C 	0.20753 0.98146 0.28937 -0.19200
H 	H 	0.20203 0.97047 0.34647 0.09900
C 	C 	0.23513 0.02494 0.27657 0.10100
H 	H 	0.24753 0.04317 0.32477 0.01100
C 	C 	0.16066 0.90673 0.23667 -0.09800
C 	C 	0.17912 0.88685 0.28437 -0.03100
H 	H 	0.20803 0.90307 0.30027 0.04200
H 	H 	0.06043 0.89587 0.26577 -0.06700
H 	H 	0.03483 0.92147 0.14907 0.25900
O 	O 	0.48078 0.03840 0.58020 -0.40900
O 	O 	0.48678 0.05079 0.43330 -0.41500
C 	C 	0.47855 0.05697 0.50870 0.37900
C 	C 	0.46401 0.08907 0.52340 -0.16300
C 	C 	0.45847 0.11030 0.45680 0.11900
H 	H 	0.46480 0.10600 0.39940 0.00200
C 	C 	0.44339 0.13880 0.47220 -0.20900
H 	H 	0.44080 0.15370 0.42450 0.11700
C 	C 	0.43256 0.14551 0.55190 0.16000
C 	C 	0.44059 0.12580 0.62270 -0.19200
H 	H 	0.43510 0.13130 0.67980 0.09900
C 	C 	0.45647 0.09820 0.60990 0.10100
H 	H 	0.46230 0.08580 0.65810 0.01100
C 	C 	0.41273 0.17267 0.57000 -0.09800
C 	C 	0.37439 0.15421 0.61770 -0.03100
H 	H 	0.36170 0.12530 0.63360 0.04200
H 	H 	0.50210 0.27290 0.59910 -0.06700
H 	H 	0.55330 0.29850 0.48240 0.25900
O 	O 	0.14745 0.37173 0.91353 -0.40900
O 	O 	0.15345 0.38412 0.76663 -0.41500
C 	C 	0.14522 0.39030 0.84203 0.37900
C 	C 	0.13068 0.42240 0.85673 -0.16300
C 	C 	0.12514 0.44363 0.79013 0.11900
H 	H 	0.13147 0.43933 0.73273 0.00200
C 	C 	0.11006 0.47213 0.80553 -0.20900
H 	H 	0.10747 0.48703 0.75783 0.11700
C 	C 	0.09923 0.47884 0.88523 0.16000
C 	C 	0.10726 0.45913 0.95603 -0.19200
H 	H 	0.10177 0.46463 0.01313 0.09900
C 	C 	0.12314 0.43153 0.94323 0.10100
H 	H 	0.12897 0.41913 0.99143 0.01100
C 	C 	0.07940 0.50600 0.90333 -0.09800
C 	C 	0.04106 0.48754 0.95103 -0.03100
H 	H 	0.02837 0.45863 0.96693 0.04200
H 	H 	0.16877 0.60623 0.93243 -0.06700
H 	H 	0.21997 0.63183 0.81573 0.25900
O 	O 	0.81411 0.70507 0.24687 -0.40900
O 	O 	0.82011 0.71746 0.09997 -0.41500
C 	C 	0.81188 0.72364 0.17537 0.37900
C 	C 	0.79734 0.75574 0.19007 -0.16300
C 	C 	0.79180 0.77697 0.12347 0.11900
H 	H 	0.79813 0.77267 0.06607 0.00200
C 	C 	0.77672 0.80547 0.13887 -0.20900
H 	H 	0.77413 0.82037 0.09117 0.11700
C 	C 	0.76589 0.81218 0.21857 0.16000
C 	C 	0.77392 0.79247 0.28937 -0.19200
H 	H 	0.76843 0.79797 0.34647 0.09900
C 	C 	0.78980 0.76487 0.27657 0.10100
H 	H 	0.79563 0.75247 0.32477 0.01100
C 	C 	0.74606 0.83934 0.23667 -0.09800
C 	C 	0.70772 0.82088 0.28437 -0.03100
H 	H 	0.69503 0.79197 0.30027 0.04200
H 	H 	0.83543 0.93957 0.26577 -0.06700
H 	H 	0.88663 0.96517 0.14907 0.25900
O 	O 	0.55762 0.51922 0.58020 -0.40900
O 	O 	0.56401 0.51322 0.43330 -0.41500
C 	C 	0.57842 0.52145 0.50870 0.37900
C 	C 	0.62506 0.53599 0.52340 -0.16300
C 	C 	0.65183 0.54153 0.45680 0.11900
H 	H 	0.64120 0.53520 0.39940 0.00200
C 	C 	0.69541 0.55661 0.47220 -0.20900
H 	H 	0.71290 0.55920 0.42450 0.11700
C 	C 	0.71295 0.56744 0.55190 0.16000
C 	C 	0.68521 0.55941 0.62270 -0.19200
H 	H 	0.69620 0.56490 0.67980 0.09900
C 	C 	0.64173 0.54353 0.60990 0.10100
H 	H 	0.62350 0.53770 0.65810 0.01000
C 	C 	0.75994 0.58727 0.57000 -0.09800
C 	C 	0.77982 0.62561 0.61770 -0.03100
H 	H 	0.76360 0.63830 0.63360 0.04200
H 	H 	0.77080 0.49790 0.59910 -0.06700
H 	H 	0.74520 0.44670 0.48240 0.25900
O 	O 	0.22429 0.85255 0.91353 -0.40900
O 	O 	0.23068 0.84655 0.76663 -0.41500
C 	C 	0.24509 0.85478 0.84203 0.37900
C 	C 	0.29173 0.86932 0.85673 -0.16300
C 	C 	0.31850 0.87486 0.79013 0.11900
H 	H 	0.30787 0.86853 0.73273 0.00200
C 	C 	0.36208 0.88994 0.80553 -0.20900
H 	H 	0.37957 0.89253 0.75783 0.11700
C 	C 	0.37962 0.90077 0.88523 0.16000
C 	C 	0.35188 0.89274 0.95603 -0.19200
H 	H 	0.36287 0.89823 0.01313 0.09900
C 	C 	0.30840 0.87686 0.94323 0.10100
H 	H 	0.29017 0.87103 0.99143 0.01100
C 	C 	0.42661 0.92060 0.90333 -0.09800
C 	C 	0.44649 0.95894 0.95103 -0.03100
H 	H 	0.43027 0.97163 0.96693 0.04200
H 	H 	0.43747 0.83123 0.93243 -0.06700
H 	H 	0.41187 0.78003 0.81573 0.25900
O 	O 	0.89095 0.18589 0.24687 -0.40900
O 	O 	0.89734 0.17989 0.09997 -0.41500
C 	C 	0.91175 0.18812 0.17537 0.37900
C 	C 	0.95839 0.20266 0.19007 -0.16400
C 	C 	0.98516 0.20820 0.12347 0.11900
H 	H 	0.97453 0.20187 0.06607 0.00200
C 	C 	0.02874 0.22328 0.13887 -0.20900
H 	H 	0.04623 0.22587 0.09117 0.11700
C 	C 	0.04628 0.23411 0.21857 0.16100
C 	C 	0.01854 0.22608 0.28937 -0.19200
H 	H 	0.02953 0.23157 0.34647 0.09900
C 	C 	0.97506 0.21020 0.27657 0.10100
H 	H 	0.95683 0.20437 0.32477 0.01000
C 	C 	0.09327 0.25394 0.23667 -0.09800
C 	C 	0.11315 0.29228 0.28437 -0.03100
H 	H 	0.09693 0.30497 0.30027 0.04200
H 	H 	0.10413 0.16457 0.26577 -0.06700
H 	H 	0.07853 0.11337 0.14907 0.25900
Cu	Cu	0.50331 0.00662 0.41405 0.90200
Cu	Cu	0.16998 0.33995 0.74738 0.90200
Cu	Cu	0.83664 0.67329 0.08072 0.90200
Cu	Cu	0.99338 0.49669 0.41405 0.90200
Cu	Cu	0.66005 0.83002 0.74738 0.90200
Cu	Cu	0.32671 0.16336 0.08072 0.90200
Cu	Cu	0.50331 0.49669 0.41405 0.90200
Cu	Cu	0.16998 0.83002 0.74738 0.90200
Cu	Cu	0.83664 0.16336 0.08072 0.90200
Cu	Cu	0.00662 0.50331 0.58595 0.90200
Cu	Cu	0.67329 0.83664 0.91928 0.90200
Cu	Cu	0.33995 0.16998 0.25262 0.90200
Cu	Cu	0.49669 0.99338 0.58595 0.90200
Cu	Cu	0.16336 0.32671 0.91928 0.90200
Cu	Cu	0.83002 0.66005 0.25262 0.90200
Cu	Cu	0.49669 0.50331 0.58595 0.90200
Cu	Cu	0.16336 0.83664 0.91928 0.90200
Cu	Cu	0.83002 0.16998 0.25262 0.90200
O 	O 	0.76535 0.23465 0.49690 -0.27600
C 	C 	0.82288 0.17712 0.64260 -0.00200
C 	C 	0.78429 0.21571 0.54480 0.16400
C 	C 	0.74760 0.25240 0.56170 0.33400
C 	C 	0.72490 0.27510 0.51840 -0.77800
H 	H 	0.71410 0.28590 0.56370 0.24900
O 	O 	0.43202 0.56798 0.83023 -0.27600
C 	C 	0.48955 0.51045 0.97593 -0.00200
C 	C 	0.45096 0.54904 0.87813 0.16400
C 	C 	0.41427 0.58573 0.89503 0.33400
C 	C 	0.39157 0.60843 0.85173 -0.77800
H 	H 	0.38077 0.61923 0.89703 0.24900
O 	O 	0.09868 0.90132 0.16357 -0.27600
C 	C 	0.15621 0.84379 0.30927 -0.00200
C 	C 	0.11762 0.88238 0.21147 0.16400
C 	C 	0.08093 0.91907 0.22837 0.33400
C 	C 	0.05823 0.94177 0.18507 -0.77800
H 	H 	0.04743 0.95257 0.23037 0.24900
O 	O 	0.76535 0.53070 0.49690 -0.27600
C 	C 	0.82288 0.64576 0.64260 -0.00200
C 	C 	0.78429 0.56858 0.54480 0.16400
C 	C 	0.74760 0.49520 0.56170 0.33400
C 	C 	0.72490 0.44980 0.51840 -0.77800
H 	H 	0.71410 0.42820 0.56370 0.24900
O 	O 	0.43202 0.86403 0.83023 -0.27600
C 	C 	0.48955 0.97909 0.97593 -0.00200
C 	C 	0.45096 0.90191 0.87813 0.16400
C 	C 	0.41427 0.82853 0.89503 0.33400
C 	C 	0.39157 0.78313 0.85173 -0.77800
H 	H 	0.38077 0.76153 0.89703 0.24900
O 	O 	0.09868 0.19737 0.16357 -0.27600
C 	C 	0.15621 0.31243 0.30927 -0.00200
C 	C 	0.11762 0.23525 0.21147 0.16400
C 	C 	0.08093 0.16187 0.22837 0.33400
C 	C 	0.05823 0.11647 0.18507 -0.77800
H 	H 	0.04743 0.09487 0.23037 0.24900
O 	O 	0.46930 0.23465 0.49690 -0.27600
C 	C 	0.35424 0.17712 0.64260 -0.00200
C 	C 	0.43142 0.21571 0.54480 0.16400
C 	C 	0.50480 0.25240 0.56170 0.33400
C 	C 	0.55020 0.27510 0.51840 -0.77800
H 	H 	0.57180 0.28590 0.56370 0.24900
O 	O 	0.13597 0.56798 0.83023 -0.27600
C 	C 	0.02091 0.51045 0.97593 -0.00200
C 	C 	0.09809 0.54904 0.87813 0.16400
C 	C 	0.17147 0.58573 0.89503 0.33400
C 	C 	0.21687 0.60843 0.85173 -0.77800
H 	H 	0.23847 0.61923 0.89703 0.24900
O 	O 	0.80263 0.90132 0.16357 -0.27600
C 	C 	0.68757 0.84379 0.30927 -0.00200
C 	C 	0.76475 0.88238 0.21147 0.16400
C 	C 	0.83813 0.91907 0.22837 0.33400
C 	C 	0.88353 0.94177 0.18507 -0.77800
H 	H 	0.90513 0.95257 0.23037 0.24900
O 	O 	0.23465 0.76535 0.50310 -0.27600
C 	C 	0.17712 0.82288 0.35740 -0.00200
C 	C 	0.21571 0.78429 0.45520 0.16400
C 	C 	0.25240 0.74760 0.43830 0.33400
C 	C 	0.27510 0.72490 0.48160 -0.77800
H 	H 	0.28590 0.71410 0.43630 0.24900
O 	O 	0.90132 0.09868 0.83643 -0.27600
C 	C 	0.84379 0.15621 0.69073 -0.00200
C 	C 	0.88238 0.11762 0.78853 0.16400
C 	C 	0.91907 0.08093 0.77163 0.33400
C 	C 	0.94177 0.05823 0.81493 -0.77800
H 	H 	0.95257 0.04743 0.76963 0.24900
O 	O 	0.56798 0.43202 0.16977 -0.27600
C 	C 	0.51045 0.48955 0.02407 -0.00200
C 	C 	0.54904 0.45096 0.12187 0.16400
C 	C 	0.58573 0.41427 0.10497 0.33400
C 	C 	0.60843 0.39157 0.14827 -0.77800
H 	H 	0.61923 0.38077 0.10297 0.24900
O 	O 	0.53070 0.76535 0.50310 -0.27600
C 	C 	0.64576 0.82288 0.35740 -0.00200
C 	C 	0.56858 0.78429 0.45520 0.16400
C 	C 	0.49520 0.74760 0.43830 0.33400
C 	C 	0.44980 0.72490 0.48160 -0.77800
H 	H 	0.42820 0.71410 0.43630 0.24900
O 	O 	0.19737 0.09868 0.83643 -0.27600
C 	C 	0.31243 0.15621 0.69073 -0.00200
C 	C 	0.23525 0.11762 0.78853 0.16400
C 	C 	0.16187 0.08093 0.77163 0.33400
C 	C 	0.11647 0.05823 0.81493 -0.77800
H 	H 	0.09487 0.04743 0.76963 0.24900
O 	O 	0.86403 0.43202 0.16977 -0.27600
C 	C 	0.97909 0.48955 0.02407 -0.00200
C 	C 	0.90191 0.45096 0.12187 0.16400
C 	C 	0.82853 0.41427 0.10497 0.33400
C 	C 	0.78313 0.39157 0.14827 -0.77800
H 	H 	0.76153 0.38077 0.10297 0.24900
O 	O 	0.23465 0.46930 0.50310 -0.27600
C 	C 	0.17712 0.35424 0.35740 -0.00200
C 	C 	0.21571 0.43142 0.45520 0.16400
C 	C 	0.25240 0.50480 0.43830 0.33400
C 	C 	0.27510 0.55020 0.48160 -0.77800
H 	H 	0.28590 0.57180 0.43630 0.24900
O 	O 	0.90132 0.80263 0.83643 -0.27600
C 	C 	0.84379 0.68757 0.69073 -0.00200
C 	C 	0.88238 0.76475 0.78853 0.16400
C 	C 	0.91907 0.83813 0.77163 0.33400
C 	C 	0.94177 0.88353 0.81493 -0.77800
H 	H 	0.95257 0.90513 0.76963 0.24900
O 	O 	0.56798 0.13597 0.16977 -0.27600
C 	C 	0.51045 0.02091 0.02407 -0.00200
C 	C 	0.54904 0.09809 0.12187 0.16400
C 	C 	0.58573 0.17147 0.10497 0.33400
C 	C 	0.60843 0.21687 0.14827 -0.77800
H 	H 	0.61923 0.23847 0.10297 0.24900
