data_crystal

_cell_length_a 35.82920
_cell_length_b 35.82920
_cell_length_c 15.78500
_cell_angle_alpha 90.00000
_cell_angle_beta  90.00000
_cell_angle_gamma 120.00000

_symmetry_space_group_name_	'P 1'
_symmetry_space_group_name_H-M	'P 1'

loop_
_symmetry_equiv_pos_as_xyz
  x,y,z

loop_
_atom_site_label
_atom_site_type_symbol
_atom_site_fract_x
_atom_site_fract_y
_atom_site_fract_z
_atom_site_charge
O 	O 	0.81266 0.10974 0.24580 -0.41300
O 	O 	0.82062 0.10198 0.10520 -0.40300
C 	C 	0.81198 0.08896 0.18100 0.36600
C 	C 	0.79741 0.04173 0.19750 -0.15000
C 	C 	0.79270 0.01423 0.13130 0.09400
H 	H 	0.79900 0.02450 0.07600 0.01400
C 	C 	0.77831 0.97058 0.14900 -0.18800
H 	H 	0.77700 0.95270 0.10490 0.11100
C 	C 	0.76657 0.95392 0.22590 0.15300
C 	C 	0.77300 0.98247 0.29010 -0.19000
H 	H 	0.76690 0.97240 0.34560 0.09900
C 	C 	0.78840 0.02584 0.27460 0.10700
H 	H 	0.79250 0.04410 0.31980 0.01100
C 	C 	0.74644 0.90694 0.24270 -0.08900
C 	C 	0.70786 0.88687 0.28690 -0.03300
H 	H 	0.69500 0.90300 0.30210 0.04400
H 	H 	0.84070 0.94220 0.27570 -0.03500
H 	H 	0.89370 0.92500 0.16610 0.22700
O 	O 	0.47933 0.44307 0.57913 -0.41300
O 	O 	0.48729 0.43531 0.43853 -0.40300
C 	C 	0.47865 0.42229 0.51433 0.36600
C 	C 	0.46408 0.37506 0.53083 -0.15000
C 	C 	0.45937 0.34756 0.46463 0.09400
H 	H 	0.46567 0.35783 0.40933 0.01400
C 	C 	0.44498 0.30391 0.48233 -0.18800
H 	H 	0.44367 0.28603 0.43823 0.11000
C 	C 	0.43324 0.28725 0.55923 0.15300
C 	C 	0.43967 0.31580 0.62343 -0.19000
H 	H 	0.43357 0.30573 0.67893 0.09900
C 	C 	0.45507 0.35917 0.60793 0.10700
H 	H 	0.45917 0.37743 0.65313 0.01100
C 	C 	0.41311 0.24027 0.57603 -0.08900
C 	C 	0.37453 0.22020 0.62023 -0.03400
H 	H 	0.36167 0.23633 0.63543 0.04400
H 	H 	0.50737 0.27553 0.60903 -0.03500
H 	H 	0.56037 0.25833 0.49943 0.22700
O 	O 	0.14599 0.77641 0.91247 -0.41400
O 	O 	0.15395 0.76865 0.77187 -0.40400
C 	C 	0.14531 0.75563 0.84767 0.36500
C 	C 	0.13074 0.70840 0.86417 -0.15000
C 	C 	0.12603 0.68090 0.79797 0.09300
H 	H 	0.13233 0.69117 0.74267 0.01300
C 	C 	0.11164 0.63725 0.81567 -0.18900
H 	H 	0.11033 0.61937 0.77157 0.10900
C 	C 	0.09990 0.62059 0.89257 0.15100
C 	C 	0.10633 0.64914 0.95677 -0.19100
H 	H 	0.10023 0.63907 0.01227 0.09800
C 	C 	0.12173 0.69251 0.94127 0.10600
H 	H 	0.12583 0.71077 0.98647 0.01000
C 	C 	0.07977 0.57361 0.90937 -0.09000
C 	C 	0.04119 0.55354 0.95357 -0.03500
H 	H 	0.02833 0.56967 0.96877 0.04300
H 	H 	0.17403 0.60887 0.94237 -0.03600
H 	H 	0.22703 0.59167 0.83277 0.22600
O 	O 	0.89026 0.70292 0.24580 -0.41400
O 	O 	0.89802 0.71864 0.10520 -0.40400
C 	C 	0.91104 0.72302 0.18100 0.36500
C 	C 	0.95827 0.75568 0.19750 -0.15000
C 	C 	0.98577 0.77847 0.13130 0.09300
H 	H 	0.97550 0.77450 0.07600 0.01300
C 	C 	0.02942 0.80773 0.14900 -0.18900
H 	H 	0.04730 0.82430 0.10490 0.10900
C 	C 	0.04608 0.81265 0.22590 0.15100
C 	C 	0.01753 0.79053 0.29010 -0.19100
H 	H 	0.02760 0.79450 0.34560 0.09800
C 	C 	0.97416 0.76256 0.27460 0.10600
H 	H 	0.95590 0.74840 0.31980 0.01000
C 	C 	0.09306 0.83950 0.24270 -0.09000
C 	C 	0.11313 0.82099 0.28690 -0.03500
H 	H 	0.09700 0.79200 0.30210 0.04300
H 	H 	0.05780 0.89850 0.27570 -0.03600
H 	H 	0.07500 0.96870 0.16610 0.22600
O 	O 	0.55693 0.03625 0.57913 -0.41400
O 	O 	0.56469 0.05197 0.43853 -0.40400
C 	C 	0.57771 0.05635 0.51433 0.36500
C 	C 	0.62494 0.08901 0.53083 -0.15000
C 	C 	0.65244 0.11180 0.46463 0.09300
H 	H 	0.64217 0.10783 0.40933 0.01300
C 	C 	0.69609 0.14106 0.48233 -0.18900
H 	H 	0.71397 0.15763 0.43823 0.10900
C 	C 	0.71275 0.14598 0.55923 0.15200
C 	C 	0.68420 0.12386 0.62343 -0.19100
H 	H 	0.69427 0.12783 0.67893 0.09800
C 	C 	0.64083 0.09589 0.60793 0.10600
H 	H 	0.62257 0.08173 0.65313 0.01000
C 	C 	0.75973 0.17283 0.57603 -0.09000
C 	C 	0.77980 0.15432 0.62023 -0.03400
H 	H 	0.76367 0.12533 0.63543 0.04300
H 	H 	0.72447 0.23183 0.60903 -0.03600
H 	H 	0.74167 0.30203 0.49943 0.22600
O 	O 	0.22359 0.36959 0.91247 -0.41400
O 	O 	0.23135 0.38531 0.77187 -0.40400
C 	C 	0.24437 0.38969 0.84767 0.36500
C 	C 	0.29160 0.42235 0.86417 -0.15000
C 	C 	0.31910 0.44514 0.79797 0.09300
H 	H 	0.30883 0.44117 0.74267 0.01300
C 	C 	0.36275 0.47440 0.81567 -0.18900
H 	H 	0.38063 0.49097 0.77157 0.10900
C 	C 	0.37941 0.47932 0.89257 0.15100
C 	C 	0.35086 0.45720 0.95677 -0.19100
H 	H 	0.36093 0.46117 0.01227 0.09800
C 	C 	0.30749 0.42923 0.94127 0.10600
H 	H 	0.28923 0.41507 0.98647 0.01000
C 	C 	0.42639 0.50617 0.90937 -0.09000
C 	C 	0.44646 0.48766 0.95357 -0.03500
H 	H 	0.43033 0.45867 0.96877 0.04300
H 	H 	0.39113 0.56517 0.94237 -0.03600
H 	H 	0.40833 0.63537 0.83277 0.22600
O 	O 	0.29708 0.18734 0.24580 -0.41400
O 	O 	0.28136 0.17938 0.10520 -0.40400
C 	C 	0.27698 0.18802 0.18100 0.36500
C 	C 	0.24432 0.20259 0.19750 -0.15000
C 	C 	0.22153 0.20730 0.13130 0.09300
H 	H 	0.22550 0.20100 0.07600 0.01300
C 	C 	0.19227 0.22169 0.14900 -0.18900
H 	H 	0.17570 0.22300 0.10490 0.10900
C 	C 	0.18735 0.23343 0.22590 0.15200
C 	C 	0.20947 0.22700 0.29010 -0.19100
H 	H 	0.20550 0.23310 0.34560 0.09800
C 	C 	0.23744 0.21160 0.27460 0.10600
H 	H 	0.25160 0.20750 0.31980 0.01000
C 	C 	0.16050 0.25356 0.24270 -0.09000
C 	C 	0.17901 0.29214 0.28690 -0.03400
H 	H 	0.20800 0.30500 0.30210 0.04300
H 	H 	0.10150 0.15930 0.27570 -0.03600
H 	H 	0.03130 0.10630 0.16610 0.22600
O 	O 	0.96375 0.52067 0.57913 -0.41400
O 	O 	0.94803 0.51271 0.43853 -0.40400
C 	C 	0.94365 0.52135 0.51433 0.36500
C 	C 	0.91099 0.53592 0.53083 -0.15100
C 	C 	0.88820 0.54063 0.46463 0.09300
H 	H 	0.89217 0.53433 0.40933 0.01300
C 	C 	0.85894 0.55502 0.48233 -0.18900
H 	H 	0.84237 0.55633 0.43823 0.10900
C 	C 	0.85402 0.56676 0.55923 0.15200
C 	C 	0.87614 0.56033 0.62343 -0.19100
H 	H 	0.87217 0.56643 0.67893 0.09800
C 	C 	0.90411 0.54493 0.60793 0.10600
H 	H 	0.91827 0.54083 0.65313 0.01000
C 	C 	0.82717 0.58689 0.57603 -0.09000
C 	C 	0.84568 0.62547 0.62023 -0.03500
H 	H 	0.87467 0.63833 0.63543 0.04300
H 	H 	0.76817 0.49263 0.60903 -0.03600
H 	H 	0.69797 0.43963 0.49943 0.22600
O 	O 	0.63041 0.85401 0.91247 -0.41400
O 	O 	0.61469 0.84605 0.77187 -0.40400
C 	C 	0.61031 0.85469 0.84767 0.36500
C 	C 	0.57765 0.86926 0.86417 -0.15000
C 	C 	0.55486 0.87397 0.79797 0.09300
H 	H 	0.55883 0.86767 0.74267 0.01300
C 	C 	0.52560 0.88836 0.81567 -0.18900
H 	H 	0.50903 0.88967 0.77157 0.10900
C 	C 	0.52068 0.90010 0.89257 0.15100
C 	C 	0.54280 0.89367 0.95677 -0.19100
H 	H 	0.53883 0.89977 0.01227 0.09800
C 	C 	0.57077 0.87827 0.94127 0.10600
H 	H 	0.58493 0.87417 0.98647 0.01000
C 	C 	0.49383 0.92023 0.90937 -0.09000
C 	C 	0.51234 0.95881 0.95357 -0.03500
H 	H 	0.54133 0.97167 0.96877 0.04300
H 	H 	0.43483 0.82597 0.94237 -0.03600
H 	H 	0.36463 0.77297 0.83277 0.22600
O 	O 	0.10974 0.81266 0.75420 -0.41400
O 	O 	0.10198 0.82062 0.89480 -0.40400
C 	C 	0.08896 0.81198 0.81900 0.36500
C 	C 	0.04173 0.79741 0.80250 -0.15100
C 	C 	0.01423 0.79270 0.86870 0.09300
H 	H 	0.02450 0.79900 0.92400 0.01300
C 	C 	0.97058 0.77831 0.85100 -0.18900
H 	H 	0.95270 0.77700 0.89510 0.11000
C 	C 	0.95392 0.76657 0.77410 0.15200
C 	C 	0.98247 0.77300 0.70990 -0.19100
H 	H 	0.97240 0.76690 0.65440 0.09800
C 	C 	0.02584 0.78840 0.72540 0.10600
H 	H 	0.04410 0.79250 0.68020 0.01000
C 	C 	0.90694 0.74644 0.75730 -0.09000
C 	C 	0.88687 0.70786 0.71310 -0.03400
H 	H 	0.90300 0.69500 0.69790 0.04300
H 	H 	0.94220 0.84070 0.72430 -0.03600
H 	H 	0.92500 0.89370 0.83390 0.22600
O 	O 	0.77641 0.14599 0.08753 -0.41400
O 	O 	0.76865 0.15395 0.22813 -0.40400
C 	C 	0.75563 0.14531 0.15233 0.36500
C 	C 	0.70840 0.13074 0.13583 -0.15000
C 	C 	0.68090 0.12603 0.20203 0.09300
H 	H 	0.69117 0.13233 0.25733 0.01300
C 	C 	0.63725 0.11164 0.18433 -0.18900
H 	H 	0.61937 0.11033 0.22843 0.10900
C 	C 	0.62059 0.09990 0.10743 0.15100
C 	C 	0.64914 0.10633 0.04323 -0.19100
H 	H 	0.63907 0.10023 0.98773 0.09800
C 	C 	0.69251 0.12173 0.05873 0.10600
H 	H 	0.71077 0.12583 0.01353 0.01000
C 	C 	0.57361 0.07977 0.09063 -0.09000
C 	C 	0.55354 0.04119 0.04643 -0.03500
H 	H 	0.56967 0.02833 0.03123 0.04300
H 	H 	0.60887 0.17403 0.05763 -0.03600
H 	H 	0.59167 0.22703 0.16723 0.22600
O 	O 	0.44307 0.47933 0.42087 -0.41400
O 	O 	0.43531 0.48729 0.56147 -0.40400
C 	C 	0.42229 0.47865 0.48567 0.36500
C 	C 	0.37506 0.46408 0.46917 -0.15100
C 	C 	0.34756 0.45937 0.53537 0.09300
H 	H 	0.35783 0.46567 0.59067 0.01300
C 	C 	0.30391 0.44498 0.51767 -0.18900
H 	H 	0.28603 0.44367 0.56177 0.10900
C 	C 	0.28725 0.43324 0.44077 0.15200
C 	C 	0.31580 0.43967 0.37657 -0.19100
H 	H 	0.30573 0.43357 0.32107 0.09800
C 	C 	0.35917 0.45507 0.39207 0.10600
H 	H 	0.37743 0.45917 0.34687 0.01000
C 	C 	0.24027 0.41311 0.42397 -0.09000
C 	C 	0.22020 0.37453 0.37977 -0.03500
H 	H 	0.23633 0.36167 0.36457 0.04300
H 	H 	0.27553 0.50737 0.39097 -0.03600
H 	H 	0.25833 0.56037 0.50057 0.22600
O 	O 	0.70292 0.89026 0.75420 -0.41400
O 	O 	0.71864 0.89802 0.89480 -0.40400
C 	C 	0.72302 0.91104 0.81900 0.36500
C 	C 	0.75568 0.95827 0.80250 -0.15000
C 	C 	0.77847 0.98577 0.86870 0.09300
H 	H 	0.77450 0.97550 0.92400 0.01300
C 	C 	0.80773 0.02942 0.85100 -0.18900
H 	H 	0.82430 0.04730 0.89510 0.10900
C 	C 	0.81265 0.04608 0.77410 0.15100
C 	C 	0.79053 0.01753 0.70990 -0.19100
H 	H 	0.79450 0.02760 0.65440 0.09800
C 	C 	0.76256 0.97416 0.72540 0.10600
H 	H 	0.74840 0.95590 0.68020 0.01000
C 	C 	0.83950 0.09306 0.75730 -0.09000
C 	C 	0.82099 0.11313 0.71310 -0.03500
H 	H 	0.79200 0.09700 0.69790 0.04300
H 	H 	0.89850 0.05780 0.72430 -0.03600
H 	H 	0.96870 0.07500 0.83390 0.22600
O 	O 	0.36959 0.22359 0.08753 -0.41400
O 	O 	0.38531 0.23135 0.22813 -0.40400
C 	C 	0.38969 0.24437 0.15233 0.36500
C 	C 	0.42235 0.29160 0.13583 -0.15000
C 	C 	0.44514 0.31910 0.20203 0.09300
H 	H 	0.44117 0.30883 0.25733 0.01300
C 	C 	0.47440 0.36275 0.18433 -0.18900
H 	H 	0.49097 0.38063 0.22843 0.10900
C 	C 	0.47932 0.37941 0.10743 0.15100
C 	C 	0.45720 0.35086 0.04323 -0.19100
H 	H 	0.46117 0.36093 0.98773 0.09800
C 	C 	0.42923 0.30749 0.05873 0.10600
H 	H 	0.41507 0.28923 0.01353 0.01000
C 	C 	0.50617 0.42639 0.09063 -0.09000
C 	C 	0.48766 0.44646 0.04643 -0.03500
H 	H 	0.45867 0.43033 0.03123 0.04300
H 	H 	0.56517 0.39113 0.05763 -0.03600
H 	H 	0.63537 0.40833 0.16723 0.22600
O 	O 	0.03625 0.55693 0.42087 -0.41400
O 	O 	0.05197 0.56469 0.56147 -0.40400
C 	C 	0.05635 0.57771 0.48567 0.36500
C 	C 	0.08901 0.62494 0.46917 -0.15000
C 	C 	0.11180 0.65244 0.53537 0.09300
H 	H 	0.10783 0.64217 0.59067 0.01300
C 	C 	0.14106 0.69609 0.51767 -0.18900
H 	H 	0.15763 0.71397 0.56177 0.10900
C 	C 	0.14598 0.71275 0.44077 0.15200
C 	C 	0.12386 0.68420 0.37657 -0.19100
H 	H 	0.12783 0.69427 0.32107 0.09800
C 	C 	0.09589 0.64083 0.39207 0.10600
H 	H 	0.08173 0.62257 0.34687 0.01000
C 	C 	0.17283 0.75973 0.42397 -0.09000
C 	C 	0.15432 0.77980 0.37977 -0.03400
H 	H 	0.12533 0.76367 0.36457 0.04300
H 	H 	0.23183 0.72447 0.39097 -0.03600
H 	H 	0.30203 0.74167 0.50057 0.22600
O 	O 	0.18734 0.29708 0.75420 -0.41400
O 	O 	0.17938 0.28136 0.89480 -0.40400
C 	C 	0.18802 0.27698 0.81900 0.36500
C 	C 	0.20259 0.24432 0.80250 -0.15000
C 	C 	0.20730 0.22153 0.86870 0.09300
H 	H 	0.20100 0.22550 0.92400 0.01300
C 	C 	0.22169 0.19227 0.85100 -0.18900
H 	H 	0.22300 0.17570 0.89510 0.10900
C 	C 	0.23343 0.18735 0.77410 0.15200
C 	C 	0.22700 0.20947 0.70990 -0.19100
H 	H 	0.23310 0.20550 0.65440 0.09800
C 	C 	0.21160 0.23744 0.72540 0.10600
H 	H 	0.20750 0.25160 0.68020 0.01000
C 	C 	0.25356 0.16050 0.75730 -0.09000
C 	C 	0.29214 0.17901 0.71310 -0.03400
H 	H 	0.30500 0.20800 0.69790 0.04300
H 	H 	0.15930 0.10150 0.72430 -0.03600
H 	H 	0.10630 0.03130 0.83390 0.22600
O 	O 	0.85401 0.63041 0.08753 -0.41400
O 	O 	0.84605 0.61469 0.22813 -0.40400
C 	C 	0.85469 0.61031 0.15233 0.36500
C 	C 	0.86926 0.57765 0.13583 -0.15000
C 	C 	0.87397 0.55486 0.20203 0.09300
H 	H 	0.86767 0.55883 0.25733 0.01300
C 	C 	0.88836 0.52560 0.18433 -0.18900
H 	H 	0.88967 0.50903 0.22843 0.10900
C 	C 	0.90010 0.52068 0.10743 0.15100
C 	C 	0.89367 0.54280 0.04323 -0.19100
H 	H 	0.89977 0.53883 0.98773 0.09800
C 	C 	0.87827 0.57077 0.05873 0.10600
H 	H 	0.87417 0.58493 0.01353 0.01000
C 	C 	0.92023 0.49383 0.09063 -0.09000
C 	C 	0.95881 0.51234 0.04643 -0.03500
H 	H 	0.97167 0.54133 0.03123 0.04300
H 	H 	0.82597 0.43483 0.05763 -0.03600
H 	H 	0.77297 0.36463 0.16723 0.22600
O 	O 	0.52067 0.96375 0.42087 -0.41400
O 	O 	0.51271 0.94803 0.56147 -0.40400
C 	C 	0.52135 0.94365 0.48567 0.36500
C 	C 	0.53592 0.91099 0.46917 -0.15100
C 	C 	0.54063 0.88820 0.53537 0.09300
H 	H 	0.53433 0.89217 0.59067 0.01300
C 	C 	0.55502 0.85894 0.51767 -0.18900
H 	H 	0.55633 0.84237 0.56177 0.10900
C 	C 	0.56676 0.85402 0.44077 0.15200
C 	C 	0.56033 0.87614 0.37657 -0.19100
H 	H 	0.56643 0.87217 0.32107 0.09800
C 	C 	0.54493 0.90411 0.39207 0.10600
H 	H 	0.54083 0.91827 0.34687 0.01000
C 	C 	0.58689 0.82717 0.42397 -0.09000
C 	C 	0.62547 0.84568 0.37977 -0.03500
H 	H 	0.63833 0.87467 0.36457 0.04300
H 	H 	0.49263 0.76817 0.39097 -0.03600
H 	H 	0.43963 0.69797 0.50057 0.22600
O 	O 	0.18734 0.89026 0.75420 -0.41400
O 	O 	0.17938 0.89802 0.89480 -0.40400
C 	C 	0.18802 0.91104 0.81900 0.36500
C 	C 	0.20259 0.95827 0.80250 -0.15100
C 	C 	0.20730 0.98577 0.86870 0.09300
H 	H 	0.20100 0.97550 0.92400 0.01300
C 	C 	0.22169 0.02942 0.85100 -0.18900
H 	H 	0.22300 0.04730 0.89510 0.11000
C 	C 	0.23343 0.04608 0.77410 0.15200
C 	C 	0.22700 0.01753 0.70990 -0.19100
H 	H 	0.23310 0.02760 0.65440 0.09800
C 	C 	0.21160 0.97416 0.72540 0.10600
H 	H 	0.20750 0.95590 0.68020 0.01000
C 	C 	0.25356 0.09306 0.75730 -0.09000
C 	C 	0.29214 0.11313 0.71310 -0.03400
H 	H 	0.30500 0.09700 0.69790 0.04300
H 	H 	0.15930 0.05780 0.72430 -0.03600
H 	H 	0.10630 0.07500 0.83390 0.22600
O 	O 	0.85401 0.22359 0.08753 -0.41400
O 	O 	0.84605 0.23135 0.22813 -0.40400
C 	C 	0.85469 0.24437 0.15233 0.36500
C 	C 	0.86926 0.29160 0.13583 -0.15000
C 	C 	0.87397 0.31910 0.20203 0.09300
H 	H 	0.86767 0.30883 0.25733 0.01300
C 	C 	0.88836 0.36275 0.18433 -0.18900
H 	H 	0.88967 0.38063 0.22843 0.10900
C 	C 	0.90010 0.37941 0.10743 0.15100
C 	C 	0.89367 0.35086 0.04323 -0.19100
H 	H 	0.89977 0.36093 0.98773 0.09800
C 	C 	0.87827 0.30749 0.05873 0.10600
H 	H 	0.87417 0.28923 0.01353 0.01000
C 	C 	0.92023 0.42639 0.09063 -0.09000
C 	C 	0.95881 0.44646 0.04643 -0.03500
H 	H 	0.97167 0.43033 0.03123 0.04300
H 	H 	0.82597 0.39113 0.05763 -0.03600
H 	H 	0.77297 0.40833 0.16723 0.22600
O 	O 	0.52067 0.55693 0.42087 -0.41400
O 	O 	0.51271 0.56469 0.56147 -0.40400
C 	C 	0.52135 0.57771 0.48567 0.36500
C 	C 	0.53592 0.62494 0.46917 -0.15100
C 	C 	0.54063 0.65244 0.53537 0.09300
H 	H 	0.53433 0.64217 0.59067 0.01300
C 	C 	0.55502 0.69609 0.51767 -0.18900
H 	H 	0.55633 0.71397 0.56177 0.10900
C 	C 	0.56676 0.71275 0.44077 0.15200
C 	C 	0.56033 0.68420 0.37657 -0.19100
H 	H 	0.56643 0.69427 0.32107 0.09800
C 	C 	0.54493 0.64083 0.39207 0.10600
H 	H 	0.54083 0.62257 0.34687 0.01000
C 	C 	0.58689 0.75973 0.42397 -0.09000
C 	C 	0.62547 0.77980 0.37977 -0.03500
H 	H 	0.63833 0.76367 0.36457 0.04300
H 	H 	0.49263 0.72447 0.39097 -0.03600
H 	H 	0.43963 0.74167 0.50057 0.22600
O 	O 	0.10974 0.29708 0.75420 -0.41400
O 	O 	0.10198 0.28136 0.89480 -0.40400
C 	C 	0.08896 0.27698 0.81900 0.36500
C 	C 	0.04173 0.24432 0.80250 -0.15000
C 	C 	0.01423 0.22153 0.86870 0.09300
H 	H 	0.02450 0.22550 0.92400 0.01300
C 	C 	0.97058 0.19227 0.85100 -0.18900
H 	H 	0.95270 0.17570 0.89510 0.10900
C 	C 	0.95392 0.18735 0.77410 0.15100
C 	C 	0.98247 0.20947 0.70990 -0.19100
H 	H 	0.97240 0.20550 0.65440 0.09800
C 	C 	0.02584 0.23744 0.72540 0.10600
H 	H 	0.04410 0.25160 0.68020 0.01000
C 	C 	0.90694 0.16050 0.75730 -0.09000
C 	C 	0.88687 0.17901 0.71310 -0.03500
H 	H 	0.90300 0.20800 0.69790 0.04300
H 	H 	0.94220 0.10150 0.72430 -0.03600
H 	H 	0.92500 0.03130 0.83390 0.22600
O 	O 	0.77641 0.63041 0.08753 -0.41400
O 	O 	0.76865 0.61469 0.22813 -0.40400
C 	C 	0.75563 0.61031 0.15233 0.36500
C 	C 	0.70840 0.57765 0.13583 -0.15000
C 	C 	0.68090 0.55486 0.20203 0.09300
H 	H 	0.69117 0.55883 0.25733 0.01300
C 	C 	0.63725 0.52560 0.18433 -0.18900
H 	H 	0.61937 0.50903 0.22843 0.10900
C 	C 	0.62059 0.52068 0.10743 0.15100
C 	C 	0.64914 0.54280 0.04323 -0.19100
H 	H 	0.63907 0.53883 0.98773 0.09800
C 	C 	0.69251 0.57077 0.05873 0.10600
H 	H 	0.71077 0.58493 0.01353 0.01000
C 	C 	0.57361 0.49383 0.09063 -0.09000
C 	C 	0.55354 0.51234 0.04643 -0.03500
H 	H 	0.56967 0.54133 0.03123 0.04300
H 	H 	0.60887 0.43483 0.05763 -0.03600
H 	H 	0.59167 0.36463 0.16723 0.22600
O 	O 	0.44307 0.96375 0.42087 -0.41400
O 	O 	0.43531 0.94803 0.56147 -0.40400
C 	C 	0.42229 0.94365 0.48567 0.36500
C 	C 	0.37506 0.91099 0.46917 -0.15000
C 	C 	0.34756 0.88820 0.53537 0.09300
H 	H 	0.35783 0.89217 0.59067 0.01300
C 	C 	0.30391 0.85894 0.51767 -0.18900
H 	H 	0.28603 0.84237 0.56177 0.10900
C 	C 	0.28725 0.85402 0.44077 0.15200
C 	C 	0.31580 0.87614 0.37657 -0.19100
H 	H 	0.30573 0.87217 0.32107 0.09800
C 	C 	0.35917 0.90411 0.39207 0.10600
H 	H 	0.37743 0.91827 0.34687 0.01000
C 	C 	0.24027 0.82717 0.42397 -0.09000
C 	C 	0.22020 0.84568 0.37977 -0.03400
H 	H 	0.23633 0.87467 0.36457 0.04300
H 	H 	0.27553 0.76817 0.39097 -0.03600
H 	H 	0.25833 0.69797 0.50057 0.22600
O 	O 	0.70292 0.81266 0.75420 -0.41400
O 	O 	0.71864 0.82062 0.89480 -0.40400
C 	C 	0.72302 0.81198 0.81900 0.36500
C 	C 	0.75568 0.79741 0.80250 -0.15000
C 	C 	0.77847 0.79270 0.86870 0.09300
H 	H 	0.77450 0.79900 0.92400 0.01300
C 	C 	0.80773 0.77831 0.85100 -0.18900
H 	H 	0.82430 0.77700 0.89510 0.10900
C 	C 	0.81265 0.76657 0.77410 0.15200
C 	C 	0.79053 0.77300 0.70990 -0.19100
H 	H 	0.79450 0.76690 0.65440 0.09800
C 	C 	0.76256 0.78840 0.72540 0.10600
H 	H 	0.74840 0.79250 0.68020 0.01000
C 	C 	0.83950 0.74644 0.75730 -0.09000
C 	C 	0.82099 0.70786 0.71310 -0.03400
H 	H 	0.79200 0.69500 0.69790 0.04300
H 	H 	0.89850 0.84070 0.72430 -0.03600
H 	H 	0.96870 0.89370 0.83390 0.22600
O 	O 	0.36959 0.14599 0.08753 -0.41400
O 	O 	0.38531 0.15395 0.22813 -0.40400
C 	C 	0.38969 0.14531 0.15233 0.36500
C 	C 	0.42235 0.13074 0.13583 -0.15000
C 	C 	0.44514 0.12603 0.20203 0.09300
H 	H 	0.44117 0.13233 0.25733 0.01300
C 	C 	0.47440 0.11164 0.18433 -0.18900
H 	H 	0.49097 0.11033 0.22843 0.10900
C 	C 	0.47932 0.09990 0.10743 0.15100
C 	C 	0.45720 0.10633 0.04323 -0.19100
H 	H 	0.46117 0.10023 0.98773 0.09800
C 	C 	0.42923 0.12173 0.05873 0.10600
H 	H 	0.41507 0.12583 0.01353 0.01000
C 	C 	0.50617 0.07977 0.09063 -0.09000
C 	C 	0.48766 0.04119 0.04643 -0.03500
H 	H 	0.45867 0.02833 0.03123 0.04300
H 	H 	0.56517 0.17403 0.05763 -0.03600
H 	H 	0.63537 0.22703 0.16723 0.22600
O 	O 	0.03625 0.47933 0.42087 -0.41400
O 	O 	0.05197 0.48729 0.56147 -0.40400
C 	C 	0.05635 0.47865 0.48567 0.36500
C 	C 	0.08901 0.46408 0.46917 -0.15100
C 	C 	0.11180 0.45937 0.53537 0.09300
H 	H 	0.10783 0.46567 0.59067 0.01300
C 	C 	0.14106 0.44498 0.51767 -0.18900
H 	H 	0.15763 0.44367 0.56177 0.10900
C 	C 	0.14598 0.43324 0.44077 0.15200
C 	C 	0.12386 0.43967 0.37657 -0.19100
H 	H 	0.12783 0.43357 0.32107 0.09800
C 	C 	0.09589 0.45507 0.39207 0.10600
H 	H 	0.08173 0.45917 0.34687 0.01000
C 	C 	0.17283 0.41311 0.42397 -0.09000
C 	C 	0.15432 0.37453 0.37977 -0.03500
H 	H 	0.12533 0.36167 0.36457 0.04300
H 	H 	0.23183 0.50737 0.39097 -0.03600
H 	H 	0.30203 0.56037 0.50057 0.22600
O 	O 	0.89026 0.18734 0.24580 -0.41400
O 	O 	0.89802 0.17938 0.10520 -0.40400
C 	C 	0.91104 0.18802 0.18100 0.36500
C 	C 	0.95827 0.20259 0.19750 -0.15100
C 	C 	0.98577 0.20730 0.13130 0.09300
H 	H 	0.97550 0.20100 0.07600 0.01300
C 	C 	0.02942 0.22169 0.14900 -0.18900
H 	H 	0.04730 0.22300 0.10490 0.11000
C 	C 	0.04608 0.23343 0.22590 0.15200
C 	C 	0.01753 0.22700 0.29010 -0.19100
H 	H 	0.02760 0.23310 0.34560 0.09800
C 	C 	0.97416 0.21160 0.27460 0.10600
H 	H 	0.95590 0.20750 0.31980 0.01000
C 	C 	0.09306 0.25356 0.24270 -0.09000
C 	C 	0.11313 0.29214 0.28690 -0.03400
H 	H 	0.09700 0.30500 0.30210 0.04300
H 	H 	0.05780 0.15930 0.27570 -0.03600
H 	H 	0.07500 0.10630 0.16610 0.22600
O 	O 	0.55693 0.52067 0.57913 -0.41400
O 	O 	0.56469 0.51271 0.43853 -0.40400
C 	C 	0.57771 0.52135 0.51433 0.36500
C 	C 	0.62494 0.53592 0.53083 -0.15100
C 	C 	0.65244 0.54063 0.46463 0.09300
H 	H 	0.64217 0.53433 0.40933 0.01300
C 	C 	0.69609 0.55502 0.48233 -0.18900
H 	H 	0.71397 0.55633 0.43823 0.10900
C 	C 	0.71275 0.56676 0.55923 0.15200
C 	C 	0.68420 0.56033 0.62343 -0.19100
H 	H 	0.69427 0.56643 0.67893 0.09800
C 	C 	0.64083 0.54493 0.60793 0.10600
H 	H 	0.62257 0.54083 0.65313 0.01000
C 	C 	0.75973 0.58689 0.57603 -0.09000
C 	C 	0.77980 0.62547 0.62023 -0.03500
H 	H 	0.76367 0.63833 0.63543 0.04300
H 	H 	0.72447 0.49263 0.60903 -0.03600
H 	H 	0.74167 0.43963 0.49943 0.22600
O 	O 	0.22359 0.85401 0.91247 -0.41400
O 	O 	0.23135 0.84605 0.77187 -0.40400
C 	C 	0.24437 0.85469 0.84767 0.36500
C 	C 	0.29160 0.86926 0.86417 -0.15000
C 	C 	0.31910 0.87397 0.79797 0.09300
H 	H 	0.30883 0.86767 0.74267 0.01300
C 	C 	0.36275 0.88836 0.81567 -0.18900
H 	H 	0.38063 0.88967 0.77157 0.10900
C 	C 	0.37941 0.90010 0.89257 0.15100
C 	C 	0.35086 0.89367 0.95677 -0.19100
H 	H 	0.36093 0.89977 0.01227 0.09800
C 	C 	0.30749 0.87827 0.94127 0.10600
H 	H 	0.28923 0.87417 0.98647 0.01000
C 	C 	0.42639 0.92023 0.90937 -0.09000
C 	C 	0.44646 0.95881 0.95357 -0.03500
H 	H 	0.43033 0.97167 0.96877 0.04300
H 	H 	0.39113 0.82597 0.94237 -0.03600
H 	H 	0.40833 0.77297 0.83277 0.22600
O 	O 	0.29708 0.10974 0.24580 -0.41400
O 	O 	0.28136 0.10198 0.10520 -0.40400
C 	C 	0.27698 0.08896 0.18100 0.36500
C 	C 	0.24432 0.04173 0.19750 -0.15000
C 	C 	0.22153 0.01423 0.13130 0.09300
H 	H 	0.22550 0.02450 0.07600 0.01300
C 	C 	0.19227 0.97058 0.14900 -0.18900
H 	H 	0.17570 0.95270 0.10490 0.10900
C 	C 	0.18735 0.95392 0.22590 0.15100
C 	C 	0.20947 0.98247 0.29010 -0.19100
H 	H 	0.20550 0.97240 0.34560 0.09800
C 	C 	0.23744 0.02584 0.27460 0.10600
H 	H 	0.25160 0.04410 0.31980 0.01000
C 	C 	0.16050 0.90694 0.24270 -0.09000
C 	C 	0.17901 0.88687 0.28690 -0.03500
H 	H 	0.20800 0.90300 0.30210 0.04300
H 	H 	0.10150 0.94220 0.27570 -0.03600
H 	H 	0.03130 0.92500 0.16610 0.22600
O 	O 	0.96375 0.44307 0.57913 -0.41400
O 	O 	0.94803 0.43531 0.43853 -0.40400
C 	C 	0.94365 0.42229 0.51433 0.36500
C 	C 	0.91099 0.37506 0.53083 -0.15000
C 	C 	0.88820 0.34756 0.46463 0.09300
H 	H 	0.89217 0.35783 0.40933 0.01300
C 	C 	0.85894 0.30391 0.48233 -0.18900
H 	H 	0.84237 0.28603 0.43823 0.10900
C 	C 	0.85402 0.28725 0.55923 0.15200
C 	C 	0.87614 0.31580 0.62343 -0.19100
H 	H 	0.87217 0.30573 0.67893 0.09800
C 	C 	0.90411 0.35917 0.60793 0.10600
H 	H 	0.91827 0.37743 0.65313 0.01000
C 	C 	0.82717 0.24027 0.57603 -0.09000
C 	C 	0.84568 0.22020 0.62023 -0.03400
H 	H 	0.87467 0.23633 0.63543 0.04300
H 	H 	0.76817 0.27553 0.60903 -0.03600
H 	H 	0.69797 0.25833 0.49943 0.22600
O 	O 	0.63041 0.77641 0.91247 -0.41400
O 	O 	0.61469 0.76865 0.77187 -0.40400
C 	C 	0.61031 0.75563 0.84767 0.36500
C 	C 	0.57765 0.70840 0.86417 -0.15000
C 	C 	0.55486 0.68090 0.79797 0.09300
H 	H 	0.55883 0.69117 0.74267 0.01300
C 	C 	0.52560 0.63725 0.81567 -0.18900
H 	H 	0.50903 0.61937 0.77157 0.10900
C 	C 	0.52068 0.62059 0.89257 0.15100
C 	C 	0.54280 0.64914 0.95677 -0.19100
H 	H 	0.53883 0.63907 0.01227 0.09800
C 	C 	0.57077 0.69251 0.94127 0.10600
H 	H 	0.58493 0.71077 0.98647 0.01000
C 	C 	0.49383 0.57361 0.90937 -0.09000
C 	C 	0.51234 0.55354 0.95357 -0.03500
H 	H 	0.54133 0.56967 0.96877 0.04300
H 	H 	0.43483 0.60887 0.94237 -0.03600
H 	H 	0.36463 0.59167 0.83277 0.22600
O 	O 	0.81266 0.70292 0.24580 -0.41400
O 	O 	0.82062 0.71864 0.10520 -0.40400
C 	C 	0.81198 0.72302 0.18100 0.36500
C 	C 	0.79741 0.75568 0.19750 -0.15000
C 	C 	0.79270 0.77847 0.13130 0.09300
H 	H 	0.79900 0.77450 0.07600 0.01300
C 	C 	0.77831 0.80773 0.14900 -0.18900
H 	H 	0.77700 0.82430 0.10490 0.10900
C 	C 	0.76657 0.81265 0.22590 0.15200
C 	C 	0.77300 0.79053 0.29010 -0.19100
H 	H 	0.76690 0.79450 0.34560 0.09800
C 	C 	0.78840 0.76256 0.27460 0.10600
H 	H 	0.79250 0.74840 0.31980 0.01000
C 	C 	0.74644 0.83950 0.24270 -0.09000
C 	C 	0.70786 0.82099 0.28690 -0.03400
H 	H 	0.69500 0.79200 0.30210 0.04300
H 	H 	0.84070 0.89850 0.27570 -0.03600
H 	H 	0.89370 0.96870 0.16610 0.22600
O 	O 	0.47933 0.03625 0.57913 -0.41400
O 	O 	0.48729 0.05197 0.43853 -0.40400
C 	C 	0.47865 0.05635 0.51433 0.36500
C 	C 	0.46408 0.08901 0.53083 -0.15100
C 	C 	0.45937 0.11180 0.46463 0.09300
H 	H 	0.46567 0.10783 0.40933 0.01300
C 	C 	0.44498 0.14106 0.48233 -0.18900
H 	H 	0.44367 0.15763 0.43823 0.10900
C 	C 	0.43324 0.14598 0.55923 0.15200
C 	C 	0.43967 0.12386 0.62343 -0.19100
H 	H 	0.43357 0.12783 0.67893 0.09800
C 	C 	0.45507 0.09589 0.60793 0.10600
H 	H 	0.45917 0.08173 0.65313 0.01000
C 	C 	0.41311 0.17283 0.57603 -0.09000
C 	C 	0.37453 0.15432 0.62023 -0.03500
H 	H 	0.36167 0.12533 0.63543 0.04300
H 	H 	0.50737 0.23183 0.60903 -0.03600
H 	H 	0.56037 0.30203 0.49943 0.22600
O 	O 	0.14599 0.36959 0.91247 -0.41400
O 	O 	0.15395 0.38531 0.77187 -0.40400
C 	C 	0.14531 0.38969 0.84767 0.36500
C 	C 	0.13074 0.42235 0.86417 -0.15000
C 	C 	0.12603 0.44514 0.79797 0.09300
H 	H 	0.13233 0.44117 0.74267 0.01300
C 	C 	0.11164 0.47440 0.81567 -0.18900
H 	H 	0.11033 0.49097 0.77157 0.10900
C 	C 	0.09990 0.47932 0.89257 0.15100
C 	C 	0.10633 0.45720 0.95677 -0.19100
H 	H 	0.10023 0.46117 0.01227 0.09800
C 	C 	0.12173 0.42923 0.94127 0.10600
H 	H 	0.12583 0.41507 0.98647 0.01000
C 	C 	0.07977 0.50617 0.90937 -0.09000
C 	C 	0.04119 0.48766 0.95357 -0.03500
H 	H 	0.02833 0.45867 0.96877 0.04300
H 	H 	0.17403 0.56517 0.94237 -0.03600
H 	H 	0.22703 0.63537 0.83277 0.22600
Cu	Cu	0.83766 0.16234 0.08559 0.90100
Cu	Cu	0.50433 0.49567 0.41892 0.90100
Cu	Cu	0.17099 0.82901 0.75226 0.90100
Cu	Cu	0.83766 0.67532 0.08559 0.90100
Cu	Cu	0.50433 0.00865 0.41892 0.90100
Cu	Cu	0.17099 0.34199 0.75226 0.90100
Cu	Cu	0.32468 0.16234 0.08559 0.90100
Cu	Cu	0.99135 0.49567 0.41892 0.90100
Cu	Cu	0.65801 0.82901 0.75226 0.90100
Cu	Cu	0.16234 0.83766 0.91441 0.90100
Cu	Cu	0.82901 0.17099 0.24774 0.90100
Cu	Cu	0.49567 0.50433 0.58108 0.90100
Cu	Cu	0.67532 0.83766 0.91441 0.90100
Cu	Cu	0.34199 0.17099 0.24774 0.90100
Cu	Cu	0.00865 0.50433 0.58108 0.90100
Cu	Cu	0.16234 0.32468 0.91441 0.90100
Cu	Cu	0.82901 0.65801 0.24774 0.90100
Cu	Cu	0.49567 0.99135 0.58108 0.90100
O 	O 	0.80456 0.90228 0.17500 -0.24400
C 	C 	0.68774 0.84387 0.30920 0.00100
C 	C 	0.76574 0.88287 0.22010 0.14900
C 	C 	0.84340 0.92170 0.23970 0.23300
C 	C 	0.88990 0.94495 0.20040 -0.67000
H 	H 	0.91090 0.95545 0.24510 0.21600
O 	O 	0.47123 0.23561 0.50833 -0.24400
C 	C 	0.35441 0.17720 0.64253 0.00100
C 	C 	0.43241 0.21620 0.55343 0.14900
C 	C 	0.51007 0.25503 0.57303 0.23300
C 	C 	0.55657 0.27828 0.53373 -0.66900
H 	H 	0.57757 0.28878 0.57843 0.21600
O 	O 	0.13789 0.56895 0.84167 -0.24400
C 	C 	0.02107 0.51054 0.97587 0.00100
C 	C 	0.09907 0.54954 0.88677 0.14900
C 	C 	0.17673 0.58837 0.90637 0.23300
C 	C 	0.22323 0.61162 0.86707 -0.66900
H 	H 	0.24423 0.62212 0.91177 0.21600
O 	O 	0.09772 0.90228 0.17500 -0.24400
C 	C 	0.15613 0.84387 0.30920 0.00100
C 	C 	0.11713 0.88287 0.22010 0.14900
C 	C 	0.07830 0.92170 0.23970 0.23300
C 	C 	0.05505 0.94495 0.20040 -0.67000
H 	H 	0.04455 0.95545 0.24510 0.21600
O 	O 	0.76439 0.23561 0.50833 -0.24400
C 	C 	0.82280 0.17720 0.64253 0.00100
C 	C 	0.78380 0.21620 0.55343 0.14900
C 	C 	0.74497 0.25503 0.57303 0.23300
C 	C 	0.72172 0.27828 0.53373 -0.66900
H 	H 	0.71122 0.28878 0.57843 0.21600
O 	O 	0.43105 0.56895 0.84167 -0.24400
C 	C 	0.48946 0.51054 0.97587 0.00100
C 	C 	0.45046 0.54954 0.88677 0.14900
C 	C 	0.41163 0.58837 0.90637 0.23300
C 	C 	0.38838 0.61162 0.86707 -0.66900
H 	H 	0.37788 0.62212 0.91177 0.21600
O 	O 	0.09772 0.19544 0.17500 -0.24400
C 	C 	0.15613 0.31226 0.30920 0.00100
C 	C 	0.11713 0.23426 0.22010 0.14900
C 	C 	0.07830 0.15660 0.23970 0.23300
C 	C 	0.05505 0.11010 0.20040 -0.67000
H 	H 	0.04455 0.08910 0.24510 0.21600
O 	O 	0.76439 0.52877 0.50833 -0.24400
C 	C 	0.82280 0.64559 0.64253 0.00100
C 	C 	0.78380 0.56759 0.55343 0.14900
C 	C 	0.74497 0.48993 0.57303 0.23300
C 	C 	0.72172 0.44343 0.53373 -0.66900
H 	H 	0.71122 0.42243 0.57843 0.21600
O 	O 	0.43105 0.86211 0.84167 -0.24400
C 	C 	0.48946 0.97893 0.97587 0.00100
C 	C 	0.45046 0.90093 0.88677 0.14900
C 	C 	0.41163 0.82327 0.90637 0.23300
C 	C 	0.38838 0.77677 0.86707 -0.66900
H 	H 	0.37788 0.75577 0.91177 0.21600
O 	O 	0.90228 0.80456 0.82500 -0.24400
C 	C 	0.84387 0.68774 0.69080 0.00100
C 	C 	0.88287 0.76574 0.77990 0.14900
C 	C 	0.92170 0.84340 0.76030 0.23300
C 	C 	0.94495 0.88990 0.79960 -0.67000
H 	H 	0.95545 0.91090 0.75490 0.21600
O 	O 	0.56895 0.13789 0.15833 -0.24400
C 	C 	0.51054 0.02107 0.02413 0.00100
C 	C 	0.54954 0.09907 0.11323 0.14900
C 	C 	0.58837 0.17673 0.09363 0.23300
C 	C 	0.61162 0.22323 0.13293 -0.66900
H 	H 	0.62212 0.24423 0.08823 0.21600
O 	O 	0.23561 0.47123 0.49167 -0.24400
C 	C 	0.17720 0.35441 0.35747 0.00100
C 	C 	0.21620 0.43241 0.44657 0.14900
C 	C 	0.25503 0.51007 0.42697 0.23300
C 	C 	0.27828 0.55657 0.46627 -0.66900
H 	H 	0.28878 0.57757 0.42157 0.21600
O 	O 	0.90228 0.09772 0.82500 -0.24400
C 	C 	0.84387 0.15613 0.69080 0.00100
C 	C 	0.88287 0.11713 0.77990 0.14900
C 	C 	0.92170 0.07830 0.76030 0.23300
C 	C 	0.94495 0.05505 0.79960 -0.67000
H 	H 	0.95545 0.04455 0.75490 0.21600
O 	O 	0.56895 0.43105 0.15833 -0.24400
C 	C 	0.51054 0.48946 0.02413 0.00100
C 	C 	0.54954 0.45046 0.11323 0.14900
C 	C 	0.58837 0.41163 0.09363 0.23300
C 	C 	0.61162 0.38838 0.13293 -0.66900
H 	H 	0.62212 0.37788 0.08823 0.21600
O 	O 	0.23561 0.76439 0.49167 -0.24400
C 	C 	0.17720 0.82280 0.35747 0.00100
C 	C 	0.21620 0.78380 0.44657 0.14900
C 	C 	0.25503 0.74497 0.42697 0.23300
C 	C 	0.27828 0.72172 0.46627 -0.66900
H 	H 	0.28878 0.71122 0.42157 0.21600
O 	O 	0.19544 0.09772 0.82500 -0.24400
C 	C 	0.31226 0.15613 0.69080 0.00100
C 	C 	0.23426 0.11713 0.77990 0.14900
C 	C 	0.15660 0.07830 0.76030 0.23300
C 	C 	0.11010 0.05505 0.79960 -0.67000
H 	H 	0.08910 0.04455 0.75490 0.21600
O 	O 	0.86211 0.43105 0.15833 -0.24400
C 	C 	0.97893 0.48946 0.02413 0.00100
C 	C 	0.90093 0.45046 0.11323 0.14900
C 	C 	0.82327 0.41163 0.09363 0.23300
C 	C 	0.77677 0.38838 0.13293 -0.66900
H 	H 	0.75577 0.37788 0.08823 0.21600
O 	O 	0.52877 0.76439 0.49167 -0.24400
C 	C 	0.64559 0.82280 0.35747 0.00100
C 	C 	0.56759 0.78380 0.44657 0.14900
C 	C 	0.48993 0.74497 0.42697 0.23300
C 	C 	0.44343 0.72172 0.46627 -0.66900
H 	H 	0.42243 0.71122 0.42157 0.21600
