data_crystal

_cell_length_a 35.27950
_cell_length_b 35.27950
_cell_length_c 21.02500
_cell_angle_alpha 90.00000
_cell_angle_beta  90.00000
_cell_angle_gamma 120.00000

_symmetry_space_group_name_	'P 1'
_symmetry_space_group_name_H-M	'P 1'

loop_
_symmetry_equiv_pos_as_xyz
  x,y,z

loop_
_atom_site_label
_atom_site_type_symbol
_atom_site_fract_x
_atom_site_fract_y
_atom_site_fract_z
_atom_site_charge
O 	O 	0.52443 0.55376 0.42849 -0.40700
O 	O 	0.51116 0.56688 0.52894 -0.41000
C 	C 	0.52304 0.57781 0.47227 0.35500
C 	C 	0.53806 0.62479 0.45339 -0.11900
C 	C 	0.53821 0.65383 0.49849 0.05300
H 	H 	0.52870 0.64430 0.54070 0.02400
C 	C 	0.55258 0.69717 0.48087 -0.14100
H 	H 	0.55220 0.71690 0.51130 0.08900
C 	C 	0.56716 0.71161 0.42047 0.10900
C 	C 	0.56671 0.68224 0.37595 -0.14200
H 	H 	0.57640 0.69180 0.33380 0.08000
C 	C 	0.55211 0.63894 0.39273 0.05900
H 	H 	0.55190 0.61910 0.36200 0.02600
C 	C 	0.58627 0.75868 0.40201 -0.07300
C 	C 	0.62509 0.77895 0.36793 -0.03800
H 	H 	0.63810 0.76200 0.35630 0.04300
H 	H 	0.48800 0.72130 0.38960 -0.06400
H 	H 	0.45170 0.74850 0.48810 0.22000
O 	O 	0.19110 0.88709 0.76182 -0.40600
O 	O 	0.17783 0.90021 0.86227 -0.40900
C 	C 	0.18971 0.91114 0.80560 0.35600
C 	C 	0.20473 0.95812 0.78672 -0.11800
C 	C 	0.20488 0.98716 0.83182 0.05400
H 	H 	0.19537 0.97763 0.87403 0.02500
C 	C 	0.21925 0.03050 0.81420 -0.14000
H 	H 	0.21887 0.05023 0.84463 0.08900
C 	C 	0.23383 0.04494 0.75380 0.10900
C 	C 	0.23338 0.01557 0.70928 -0.14200
H 	H 	0.24307 0.02513 0.66713 0.08000
C 	C 	0.21878 0.97227 0.72606 0.05900
H 	H 	0.21857 0.95243 0.69533 0.02600
C 	C 	0.25294 0.09201 0.73534 -0.07300
C 	C 	0.29176 0.11228 0.70126 -0.03800
H 	H 	0.30477 0.09533 0.68963 0.04300
H 	H 	0.15467 0.05463 0.72293 -0.06400
H 	H 	0.11837 0.08183 0.82143 0.22000
O 	O 	0.85776 0.22043 0.09516 -0.40600
O 	O 	0.84449 0.23355 0.19561 -0.40900
C 	C 	0.85637 0.24448 0.13894 0.35600
C 	C 	0.87139 0.29146 0.12006 -0.11800
C 	C 	0.87154 0.32050 0.16516 0.05400
H 	H 	0.86203 0.31097 0.20737 0.02500
C 	C 	0.88591 0.36384 0.14754 -0.14000
H 	H 	0.88553 0.38357 0.17797 0.08900
C 	C 	0.90049 0.37828 0.08714 0.10900
C 	C 	0.90004 0.34891 0.04262 -0.14200
H 	H 	0.90973 0.35847 0.00047 0.08000
C 	C 	0.88544 0.30561 0.05940 0.05900
H 	H 	0.88523 0.28577 0.02867 0.02600
C 	C 	0.91960 0.42535 0.06868 -0.07300
C 	C 	0.95842 0.44562 0.03460 -0.03800
H 	H 	0.97143 0.42867 0.02297 0.04300
H 	H 	0.82133 0.38797 0.05627 -0.06400
H 	H 	0.78503 0.41517 0.15477 0.22000
O 	O 	0.44624 0.97067 0.42849 -0.40600
O 	O 	0.43312 0.94428 0.52894 -0.40900
C 	C 	0.42219 0.94523 0.47227 0.35600
C 	C 	0.37521 0.91327 0.45339 -0.11800
C 	C 	0.34617 0.88438 0.49849 0.05400
H 	H 	0.35570 0.88440 0.54070 0.02500
C 	C 	0.30283 0.85541 0.48087 -0.14000
H 	H 	0.28310 0.83530 0.51130 0.08900
C 	C 	0.28839 0.85555 0.42047 0.10900
C 	C 	0.31776 0.88447 0.37595 -0.14200
H 	H 	0.30820 0.88460 0.33380 0.08000
C 	C 	0.36106 0.91317 0.39273 0.05900
H 	H 	0.38090 0.93280 0.36200 0.02600
C 	C 	0.24132 0.82759 0.40201 -0.07300
C 	C 	0.22105 0.84614 0.36793 -0.03800
H 	H 	0.23800 0.87610 0.35630 0.04300
H 	H 	0.27870 0.76670 0.38960 -0.06400
H 	H 	0.25150 0.70320 0.48810 0.22000
O 	O 	0.11291 0.30400 0.76182 -0.40600
O 	O 	0.09979 0.27761 0.86227 -0.40900
C 	C 	0.08886 0.27856 0.80560 0.35600
C 	C 	0.04188 0.24660 0.78672 -0.11700
C 	C 	0.01284 0.21771 0.83182 0.05400
H 	H 	0.02237 0.21773 0.87403 0.02500
C 	C 	0.96950 0.18874 0.81420 -0.14000
H 	H 	0.94977 0.16863 0.84463 0.08900
C 	C 	0.95506 0.18888 0.75380 0.10900
C 	C 	0.98443 0.21780 0.70928 -0.14200
H 	H 	0.97487 0.21793 0.66713 0.08000
C 	C 	0.02773 0.24650 0.72606 0.05900
H 	H 	0.04757 0.26613 0.69533 0.02600
C 	C 	0.90799 0.16092 0.73534 -0.07300
C 	C 	0.88772 0.17947 0.70126 -0.03800
H 	H 	0.90467 0.20943 0.68963 0.04300
H 	H 	0.94537 0.10003 0.72293 -0.06400
H 	H 	0.91817 0.03653 0.82143 0.22000
O 	O 	0.77957 0.63734 0.09516 -0.40600
O 	O 	0.76645 0.61095 0.19561 -0.40900
C 	C 	0.75552 0.61190 0.13894 0.35600
C 	C 	0.70854 0.57994 0.12006 -0.11800
C 	C 	0.67950 0.55105 0.16516 0.05400
H 	H 	0.68903 0.55107 0.20737 0.02500
C 	C 	0.63616 0.52208 0.14754 -0.14000
H 	H 	0.61643 0.50197 0.17797 0.08900
C 	C 	0.62172 0.52222 0.08714 0.10900
C 	C 	0.65109 0.55114 0.04262 -0.14200
H 	H 	0.64153 0.55127 0.00047 0.08000
C 	C 	0.69439 0.57984 0.05940 0.05900
H 	H 	0.71423 0.59947 0.02867 0.02600
C 	C 	0.57465 0.49426 0.06868 -0.07300
C 	C 	0.55438 0.51281 0.03460 -0.03800
H 	H 	0.57133 0.54277 0.02297 0.04300
H 	H 	0.61203 0.43337 0.05627 -0.06400
H 	H 	0.58483 0.36987 0.15477 0.22000
O 	O 	0.02933 0.47557 0.42849 -0.40600
O 	O 	0.05572 0.48884 0.52894 -0.40900
C 	C 	0.05477 0.47696 0.47227 0.35600
C 	C 	0.08673 0.46194 0.45339 -0.11800
C 	C 	0.11562 0.46179 0.49849 0.05400
H 	H 	0.11560 0.47130 0.54070 0.02500
C 	C 	0.14459 0.44742 0.48087 -0.14000
H 	H 	0.16470 0.44780 0.51130 0.08900
C 	C 	0.14445 0.43284 0.42047 0.10900
C 	C 	0.11553 0.43329 0.37595 -0.14200
H 	H 	0.11540 0.42360 0.33380 0.08000
C 	C 	0.08683 0.44789 0.39273 0.05900
H 	H 	0.06720 0.44810 0.36200 0.02600
C 	C 	0.17241 0.41373 0.40201 -0.07300
C 	C 	0.15386 0.37491 0.36793 -0.03800
H 	H 	0.12390 0.36190 0.35630 0.04300
H 	H 	0.23330 0.51200 0.38960 -0.06400
H 	H 	0.29680 0.54830 0.48810 0.22000
O 	O 	0.69600 0.80890 0.76182 -0.40600
O 	O 	0.72239 0.82217 0.86227 -0.40900
C 	C 	0.72144 0.81029 0.80560 0.35600
C 	C 	0.75340 0.79527 0.78672 -0.11800
C 	C 	0.78229 0.79512 0.83182 0.05400
H 	H 	0.78227 0.80463 0.87403 0.02500
C 	C 	0.81126 0.78075 0.81420 -0.14000
H 	H 	0.83137 0.78113 0.84463 0.08900
C 	C 	0.81112 0.76617 0.75380 0.10900
C 	C 	0.78220 0.76662 0.70928 -0.14200
H 	H 	0.78207 0.75693 0.66713 0.08000
C 	C 	0.75350 0.78122 0.72606 0.05900
H 	H 	0.73387 0.78143 0.69533 0.02600
C 	C 	0.83908 0.74706 0.73534 -0.07300
C 	C 	0.82053 0.70824 0.70126 -0.03800
H 	H 	0.79057 0.69523 0.68963 0.04300
H 	H 	0.89997 0.84533 0.72293 -0.06400
H 	H 	0.96347 0.88163 0.82143 0.22000
O 	O 	0.36266 0.14224 0.09516 -0.40600
O 	O 	0.38905 0.15551 0.19561 -0.40900
C 	C 	0.38810 0.14363 0.13894 0.35600
C 	C 	0.42006 0.12861 0.12006 -0.11800
C 	C 	0.44895 0.12846 0.16516 0.05400
H 	H 	0.44893 0.13797 0.20737 0.02500
C 	C 	0.47792 0.11409 0.14754 -0.14000
H 	H 	0.49803 0.11447 0.17797 0.08900
C 	C 	0.47778 0.09951 0.08714 0.10900
C 	C 	0.44886 0.09996 0.04262 -0.14200
H 	H 	0.44873 0.09027 0.00047 0.08000
C 	C 	0.42016 0.11456 0.05940 0.05900
H 	H 	0.40053 0.11477 0.02867 0.02600
C 	C 	0.50574 0.08040 0.06868 -0.07300
C 	C 	0.48719 0.04158 0.03460 -0.03800
H 	H 	0.45723 0.02857 0.02297 0.04300
H 	H 	0.56663 0.17867 0.05627 -0.06400
H 	H 	0.63013 0.21497 0.15477 0.22000
O 	O 	0.55376 0.52443 0.57151 -0.40600
O 	O 	0.56688 0.51116 0.47106 -0.40900
C 	C 	0.57781 0.52304 0.52773 0.35600
C 	C 	0.62479 0.53806 0.54661 -0.11800
C 	C 	0.65383 0.53821 0.50151 0.05400
H 	H 	0.64430 0.52870 0.45930 0.02500
C 	C 	0.69717 0.55258 0.51913 -0.14000
H 	H 	0.71690 0.55220 0.48870 0.08900
C 	C 	0.71161 0.56716 0.57953 0.10900
C 	C 	0.68224 0.56671 0.62405 -0.14200
H 	H 	0.69180 0.57640 0.66620 0.08000
C 	C 	0.63894 0.55211 0.60727 0.05900
H 	H 	0.61910 0.55190 0.63800 0.02600
C 	C 	0.75868 0.58627 0.59799 -0.07300
C 	C 	0.77895 0.62509 0.63207 -0.03800
H 	H 	0.76200 0.63810 0.64370 0.04300
H 	H 	0.72130 0.48800 0.61040 -0.06400
H 	H 	0.74850 0.45170 0.51190 0.22000
O 	O 	0.22043 0.85776 0.90484 -0.40600
O 	O 	0.23355 0.84449 0.80439 -0.40900
C 	C 	0.24448 0.85637 0.86106 0.35600
C 	C 	0.29146 0.87139 0.87994 -0.11800
C 	C 	0.32050 0.87154 0.83484 0.05400
H 	H 	0.31097 0.86203 0.79263 0.02500
C 	C 	0.36384 0.88591 0.85246 -0.14000
H 	H 	0.38357 0.88553 0.82203 0.08900
C 	C 	0.37828 0.90049 0.91286 0.10900
C 	C 	0.34891 0.90004 0.95738 -0.14200
H 	H 	0.35847 0.90973 0.99953 0.08000
C 	C 	0.30561 0.88544 0.94060 0.05900
H 	H 	0.28577 0.88523 0.97133 0.02600
C 	C 	0.42535 0.91960 0.93132 -0.07300
C 	C 	0.44562 0.95842 0.96540 -0.03800
H 	H 	0.42867 0.97143 0.97703 0.04300
H 	H 	0.38797 0.82133 0.94373 -0.06400
H 	H 	0.41517 0.78503 0.84523 0.22000
O 	O 	0.88709 0.19110 0.23818 -0.40600
O 	O 	0.90021 0.17783 0.13773 -0.40900
C 	C 	0.91114 0.18971 0.19440 0.35600
C 	C 	0.95812 0.20473 0.21328 -0.11800
C 	C 	0.98716 0.20488 0.16818 0.05400
H 	H 	0.97763 0.19537 0.12597 0.02500
C 	C 	0.03050 0.21925 0.18580 -0.14000
H 	H 	0.05023 0.21887 0.15537 0.08900
C 	C 	0.04494 0.23383 0.24620 0.10900
C 	C 	0.01557 0.23338 0.29072 -0.14200
H 	H 	0.02513 0.24307 0.33287 0.08000
C 	C 	0.97227 0.21878 0.27394 0.05900
H 	H 	0.95243 0.21857 0.30467 0.02600
C 	C 	0.09201 0.25294 0.26466 -0.07300
C 	C 	0.11228 0.29176 0.29874 -0.03800
H 	H 	0.09533 0.30477 0.31037 0.04300
H 	H 	0.05463 0.15467 0.27707 -0.06400
H 	H 	0.08183 0.11837 0.17857 0.22000
O 	O 	0.97067 0.44624 0.57151 -0.40600
O 	O 	0.94428 0.43312 0.47106 -0.40900
C 	C 	0.94523 0.42219 0.52773 0.35600
C 	C 	0.91327 0.37521 0.54661 -0.11800
C 	C 	0.88438 0.34617 0.50151 0.05400
H 	H 	0.88440 0.35570 0.45930 0.02500
C 	C 	0.85541 0.30283 0.51913 -0.14000
H 	H 	0.83530 0.28310 0.48870 0.08900
C 	C 	0.85555 0.28839 0.57953 0.10900
C 	C 	0.88447 0.31776 0.62405 -0.14200
H 	H 	0.88460 0.30820 0.66620 0.08000
C 	C 	0.91317 0.36106 0.60727 0.05900
H 	H 	0.93280 0.38090 0.63800 0.02600
C 	C 	0.82759 0.24132 0.59799 -0.07300
C 	C 	0.84614 0.22105 0.63207 -0.03800
H 	H 	0.87610 0.23800 0.64370 0.04300
H 	H 	0.76670 0.27870 0.61040 -0.06400
H 	H 	0.70320 0.25150 0.51190 0.22000
O 	O 	0.63734 0.77957 0.90484 -0.40600
O 	O 	0.61095 0.76645 0.80439 -0.40900
C 	C 	0.61190 0.75552 0.86106 0.35600
C 	C 	0.57994 0.70854 0.87994 -0.11800
C 	C 	0.55105 0.67950 0.83484 0.05400
H 	H 	0.55107 0.68903 0.79263 0.02500
C 	C 	0.52208 0.63616 0.85246 -0.14000
H 	H 	0.50197 0.61643 0.82203 0.08900
C 	C 	0.52222 0.62172 0.91286 0.10900
C 	C 	0.55114 0.65109 0.95738 -0.14200
H 	H 	0.55127 0.64153 0.99953 0.08000
C 	C 	0.57984 0.69439 0.94060 0.05900
H 	H 	0.59947 0.71423 0.97133 0.02600
C 	C 	0.49426 0.57465 0.93132 -0.07300
C 	C 	0.51281 0.55438 0.96540 -0.03800
H 	H 	0.54277 0.57133 0.97703 0.04300
H 	H 	0.43337 0.61203 0.94373 -0.06400
H 	H 	0.36987 0.58483 0.84523 0.22000
O 	O 	0.30400 0.11291 0.23818 -0.40600
O 	O 	0.27761 0.09979 0.13773 -0.40900
C 	C 	0.27856 0.08886 0.19440 0.35600
C 	C 	0.24660 0.04188 0.21328 -0.11700
C 	C 	0.21771 0.01284 0.16818 0.05400
H 	H 	0.21773 0.02237 0.12597 0.02500
C 	C 	0.18874 0.96950 0.18580 -0.14000
H 	H 	0.16863 0.94977 0.15537 0.08900
C 	C 	0.18888 0.95506 0.24620 0.10900
C 	C 	0.21780 0.98443 0.29072 -0.14200
H 	H 	0.21793 0.97487 0.33287 0.08000
C 	C 	0.24650 0.02773 0.27394 0.05900
H 	H 	0.26613 0.04757 0.30467 0.02600
C 	C 	0.16092 0.90799 0.26466 -0.07300
C 	C 	0.17947 0.88772 0.29874 -0.03800
H 	H 	0.20943 0.90467 0.31037 0.04300
H 	H 	0.10003 0.94537 0.27707 -0.06400
H 	H 	0.03653 0.91817 0.17857 0.22000
O 	O 	0.47557 0.02933 0.57151 -0.40600
O 	O 	0.48884 0.05572 0.47106 -0.40900
C 	C 	0.47696 0.05477 0.52773 0.35600
C 	C 	0.46194 0.08673 0.54661 -0.11800
C 	C 	0.46179 0.11562 0.50151 0.05400
H 	H 	0.47130 0.11560 0.45930 0.02500
C 	C 	0.44742 0.14459 0.51913 -0.14000
H 	H 	0.44780 0.16470 0.48870 0.08900
C 	C 	0.43284 0.14445 0.57953 0.10900
C 	C 	0.43329 0.11553 0.62405 -0.14200
H 	H 	0.42360 0.11540 0.66620 0.08000
C 	C 	0.44789 0.08683 0.60727 0.05900
H 	H 	0.44810 0.06720 0.63800 0.02600
C 	C 	0.41373 0.17241 0.59799 -0.07300
C 	C 	0.37491 0.15386 0.63207 -0.03800
H 	H 	0.36190 0.12390 0.64370 0.04300
H 	H 	0.51200 0.23330 0.61040 -0.06400
H 	H 	0.54830 0.29680 0.51190 0.22000
O 	O 	0.14224 0.36266 0.90484 -0.40600
O 	O 	0.15551 0.38905 0.80439 -0.40900
C 	C 	0.14363 0.38810 0.86106 0.35600
C 	C 	0.12861 0.42006 0.87994 -0.11800
C 	C 	0.12846 0.44895 0.83484 0.05400
H 	H 	0.13797 0.44893 0.79263 0.02500
C 	C 	0.11409 0.47792 0.85246 -0.14000
H 	H 	0.11447 0.49803 0.82203 0.08900
C 	C 	0.09951 0.47778 0.91286 0.10900
C 	C 	0.09996 0.44886 0.95738 -0.14200
H 	H 	0.09027 0.44873 0.99953 0.08000
C 	C 	0.11456 0.42016 0.94060 0.05900
H 	H 	0.11477 0.40053 0.97133 0.02600
C 	C 	0.08040 0.50574 0.93132 -0.07300
C 	C 	0.04158 0.48719 0.96540 -0.03800
H 	H 	0.02857 0.45723 0.97703 0.04300
H 	H 	0.17867 0.56663 0.94373 -0.06400
H 	H 	0.21497 0.63013 0.84523 0.22000
O 	O 	0.80890 0.69600 0.23818 -0.40600
O 	O 	0.82217 0.72239 0.13773 -0.40900
C 	C 	0.81029 0.72144 0.19440 0.35600
C 	C 	0.79527 0.75340 0.21328 -0.11800
C 	C 	0.79512 0.78229 0.16818 0.05400
H 	H 	0.80463 0.78227 0.12597 0.02500
C 	C 	0.78075 0.81126 0.18580 -0.14000
H 	H 	0.78113 0.83137 0.15537 0.08900
C 	C 	0.76617 0.81112 0.24620 0.10900
C 	C 	0.76662 0.78220 0.29072 -0.14200
H 	H 	0.75693 0.78207 0.33287 0.08000
C 	C 	0.78122 0.75350 0.27394 0.05900
H 	H 	0.78143 0.73387 0.30467 0.02600
C 	C 	0.74706 0.83908 0.26466 -0.07300
C 	C 	0.70824 0.82053 0.29874 -0.03800
H 	H 	0.69523 0.79057 0.31037 0.04300
H 	H 	0.84533 0.89997 0.27707 -0.06400
H 	H 	0.88163 0.96347 0.17857 0.22000
O 	O 	0.47557 0.44624 0.57151 -0.40600
O 	O 	0.48884 0.43312 0.47106 -0.40900
C 	C 	0.47696 0.42219 0.52773 0.35600
C 	C 	0.46194 0.37521 0.54661 -0.11800
C 	C 	0.46179 0.34617 0.50151 0.05400
H 	H 	0.47130 0.35570 0.45930 0.02500
C 	C 	0.44742 0.30283 0.51913 -0.14000
H 	H 	0.44780 0.28310 0.48870 0.08900
C 	C 	0.43284 0.28839 0.57953 0.10900
C 	C 	0.43329 0.31776 0.62405 -0.14200
H 	H 	0.42360 0.30820 0.66620 0.08000
C 	C 	0.44789 0.36106 0.60727 0.05900
H 	H 	0.44810 0.38090 0.63800 0.02600
C 	C 	0.41373 0.24132 0.59799 -0.07300
C 	C 	0.37491 0.22105 0.63207 -0.03800
H 	H 	0.36190 0.23800 0.64370 0.04300
H 	H 	0.51200 0.27870 0.61040 -0.06400
H 	H 	0.54830 0.25150 0.51190 0.22000
O 	O 	0.14224 0.77957 0.90484 -0.40600
O 	O 	0.15551 0.76645 0.80439 -0.40900
C 	C 	0.14363 0.75552 0.86106 0.35600
C 	C 	0.12861 0.70854 0.87994 -0.11800
C 	C 	0.12846 0.67950 0.83484 0.05400
H 	H 	0.13797 0.68903 0.79263 0.02500
C 	C 	0.11409 0.63616 0.85246 -0.14000
H 	H 	0.11447 0.61643 0.82203 0.08900
C 	C 	0.09951 0.62172 0.91286 0.10900
C 	C 	0.09996 0.65109 0.95738 -0.14200
H 	H 	0.09027 0.64153 0.99953 0.08000
C 	C 	0.11456 0.69439 0.94060 0.05900
H 	H 	0.11477 0.71423 0.97133 0.02600
C 	C 	0.08040 0.57465 0.93132 -0.07300
C 	C 	0.04158 0.55438 0.96540 -0.03800
H 	H 	0.02857 0.57133 0.97703 0.04300
H 	H 	0.17867 0.61203 0.94373 -0.06400
H 	H 	0.21497 0.58483 0.84523 0.22000
O 	O 	0.80890 0.11291 0.23818 -0.40600
O 	O 	0.82217 0.09979 0.13773 -0.40900
C 	C 	0.81029 0.08886 0.19440 0.35600
C 	C 	0.79527 0.04188 0.21328 -0.11800
C 	C 	0.79512 0.01284 0.16818 0.05400
H 	H 	0.80463 0.02237 0.12597 0.02500
C 	C 	0.78075 0.96950 0.18580 -0.14000
H 	H 	0.78113 0.94977 0.15537 0.08900
C 	C 	0.76617 0.95506 0.24620 0.10900
C 	C 	0.76662 0.98443 0.29072 -0.14200
H 	H 	0.75693 0.97487 0.33287 0.08000
C 	C 	0.78122 0.02773 0.27394 0.05900
H 	H 	0.78143 0.04757 0.30467 0.02600
C 	C 	0.74706 0.90799 0.26466 -0.07300
C 	C 	0.70824 0.88772 0.29874 -0.03800
H 	H 	0.69523 0.90467 0.31037 0.04300
H 	H 	0.84533 0.94537 0.27707 -0.06400
H 	H 	0.88163 0.91817 0.17857 0.22000
O 	O 	0.55376 0.02933 0.57151 -0.40600
O 	O 	0.56688 0.05572 0.47106 -0.40900
C 	C 	0.57781 0.05477 0.52773 0.35600
C 	C 	0.62479 0.08673 0.54661 -0.11800
C 	C 	0.65383 0.11562 0.50151 0.05400
H 	H 	0.64430 0.11560 0.45930 0.02500
C 	C 	0.69717 0.14459 0.51913 -0.14000
H 	H 	0.71690 0.16470 0.48870 0.08900
C 	C 	0.71161 0.14445 0.57953 0.10900
C 	C 	0.68224 0.11553 0.62405 -0.14200
H 	H 	0.69180 0.11540 0.66620 0.08000
C 	C 	0.63894 0.08683 0.60727 0.05900
H 	H 	0.61910 0.06720 0.63800 0.02600
C 	C 	0.75868 0.17241 0.59799 -0.07300
C 	C 	0.77895 0.15386 0.63207 -0.03800
H 	H 	0.76200 0.12390 0.64370 0.04300
H 	H 	0.72130 0.23330 0.61040 -0.06400
H 	H 	0.74850 0.29680 0.51190 0.22000
O 	O 	0.22043 0.36266 0.90484 -0.40600
O 	O 	0.23355 0.38905 0.80439 -0.40900
C 	C 	0.24448 0.38810 0.86106 0.35600
C 	C 	0.29146 0.42006 0.87994 -0.11800
C 	C 	0.32050 0.44895 0.83484 0.05400
H 	H 	0.31097 0.44893 0.79263 0.02500
C 	C 	0.36384 0.47792 0.85246 -0.14000
H 	H 	0.38357 0.49803 0.82203 0.08900
C 	C 	0.37828 0.47778 0.91286 0.10900
C 	C 	0.34891 0.44886 0.95738 -0.14200
H 	H 	0.35847 0.44873 0.99953 0.08000
C 	C 	0.30561 0.42016 0.94060 0.05900
H 	H 	0.28577 0.40053 0.97133 0.02600
C 	C 	0.42535 0.50574 0.93132 -0.07300
C 	C 	0.44562 0.48719 0.96540 -0.03800
H 	H 	0.42867 0.45723 0.97703 0.04300
H 	H 	0.38797 0.56663 0.94373 -0.06400
H 	H 	0.41517 0.63013 0.84523 0.22000
O 	O 	0.88709 0.69600 0.23818 -0.40600
O 	O 	0.90021 0.72239 0.13773 -0.40900
C 	C 	0.91114 0.72144 0.19440 0.35600
C 	C 	0.95812 0.75340 0.21328 -0.11700
C 	C 	0.98716 0.78229 0.16818 0.05400
H 	H 	0.97763 0.78227 0.12597 0.02500
C 	C 	0.03050 0.81126 0.18580 -0.14000
H 	H 	0.05023 0.83137 0.15537 0.08900
C 	C 	0.04494 0.81112 0.24620 0.10900
C 	C 	0.01557 0.78220 0.29072 -0.14200
H 	H 	0.02513 0.78207 0.33287 0.08000
C 	C 	0.97227 0.75350 0.27394 0.05900
H 	H 	0.95243 0.73387 0.30467 0.02600
C 	C 	0.09201 0.83908 0.26466 -0.07300
C 	C 	0.11228 0.82053 0.29874 -0.03800
H 	H 	0.09533 0.79057 0.31037 0.04300
H 	H 	0.05463 0.89997 0.27707 -0.06400
H 	H 	0.08183 0.96347 0.17857 0.22000
O 	O 	0.97067 0.52443 0.57151 -0.40600
O 	O 	0.94428 0.51116 0.47106 -0.40900
C 	C 	0.94523 0.52304 0.52773 0.35600
C 	C 	0.91327 0.53806 0.54661 -0.11800
C 	C 	0.88438 0.53821 0.50151 0.05400
H 	H 	0.88440 0.52870 0.45930 0.02500
C 	C 	0.85541 0.55258 0.51913 -0.14000
H 	H 	0.83530 0.55220 0.48870 0.08900
C 	C 	0.85555 0.56716 0.57953 0.10900
C 	C 	0.88447 0.56671 0.62405 -0.14200
H 	H 	0.88460 0.57640 0.66620 0.08000
C 	C 	0.91317 0.55211 0.60727 0.05900
H 	H 	0.93280 0.55190 0.63800 0.02600
C 	C 	0.82759 0.58627 0.59799 -0.07300
C 	C 	0.84614 0.62509 0.63207 -0.03800
H 	H 	0.87610 0.63810 0.64370 0.04300
H 	H 	0.76670 0.48800 0.61040 -0.06400
H 	H 	0.70320 0.45170 0.51190 0.22000
O 	O 	0.63734 0.85776 0.90484 -0.40600
O 	O 	0.61095 0.84449 0.80439 -0.40900
C 	C 	0.61190 0.85637 0.86106 0.35600
C 	C 	0.57994 0.87139 0.87994 -0.11800
C 	C 	0.55105 0.87154 0.83484 0.05400
H 	H 	0.55107 0.86203 0.79263 0.02500
C 	C 	0.52208 0.88591 0.85246 -0.14000
H 	H 	0.50197 0.88553 0.82203 0.08900
C 	C 	0.52222 0.90049 0.91286 0.10900
C 	C 	0.55114 0.90004 0.95738 -0.14200
H 	H 	0.55127 0.90973 0.99953 0.08000
C 	C 	0.57984 0.88544 0.94060 0.05900
H 	H 	0.59947 0.88523 0.97133 0.02600
C 	C 	0.49426 0.91960 0.93132 -0.07300
C 	C 	0.51281 0.95842 0.96540 -0.03800
H 	H 	0.54277 0.97143 0.97703 0.04300
H 	H 	0.43337 0.82133 0.94373 -0.06400
H 	H 	0.36987 0.78503 0.84523 0.22000
O 	O 	0.30400 0.19110 0.23818 -0.40600
O 	O 	0.27761 0.17783 0.13773 -0.40900
C 	C 	0.27856 0.18971 0.19440 0.35600
C 	C 	0.24660 0.20473 0.21328 -0.11800
C 	C 	0.21771 0.20488 0.16818 0.05400
H 	H 	0.21773 0.19537 0.12597 0.02500
C 	C 	0.18874 0.21925 0.18580 -0.14000
H 	H 	0.16863 0.21887 0.15537 0.08900
C 	C 	0.18888 0.23383 0.24620 0.10900
C 	C 	0.21780 0.23338 0.29072 -0.14200
H 	H 	0.21793 0.24307 0.33287 0.08000
C 	C 	0.24650 0.21878 0.27394 0.05900
H 	H 	0.26613 0.21857 0.30467 0.02600
C 	C 	0.16092 0.25294 0.26466 -0.07300
C 	C 	0.17947 0.29176 0.29874 -0.03800
H 	H 	0.20943 0.30477 0.31037 0.04300
H 	H 	0.10003 0.15467 0.27707 -0.06400
H 	H 	0.03653 0.11837 0.17857 0.22000
O 	O 	0.44624 0.47557 0.42849 -0.40600
O 	O 	0.43312 0.48884 0.52894 -0.40900
C 	C 	0.42219 0.47696 0.47227 0.35600
C 	C 	0.37521 0.46194 0.45339 -0.11800
C 	C 	0.34617 0.46179 0.49849 0.05400
H 	H 	0.35570 0.47130 0.54070 0.02500
C 	C 	0.30283 0.44742 0.48087 -0.14000
H 	H 	0.28310 0.44780 0.51130 0.08900
C 	C 	0.28839 0.43284 0.42047 0.10900
C 	C 	0.31776 0.43329 0.37595 -0.14200
H 	H 	0.30820 0.42360 0.33380 0.08000
C 	C 	0.36106 0.44789 0.39273 0.05900
H 	H 	0.38090 0.44810 0.36200 0.02600
C 	C 	0.24132 0.41373 0.40201 -0.07300
C 	C 	0.22105 0.37491 0.36793 -0.03800
H 	H 	0.23800 0.36190 0.35630 0.04300
H 	H 	0.27870 0.51200 0.38960 -0.06400
H 	H 	0.25150 0.54830 0.48810 0.22000
O 	O 	0.11291 0.80890 0.76182 -0.40600
O 	O 	0.09979 0.82217 0.86227 -0.40900
C 	C 	0.08886 0.81029 0.80560 0.35600
C 	C 	0.04188 0.79527 0.78672 -0.11800
C 	C 	0.01284 0.79512 0.83182 0.05400
H 	H 	0.02237 0.80463 0.87403 0.02500
C 	C 	0.96950 0.78075 0.81420 -0.14000
H 	H 	0.94977 0.78113 0.84463 0.08900
C 	C 	0.95506 0.76617 0.75380 0.10900
C 	C 	0.98443 0.76662 0.70928 -0.14200
H 	H 	0.97487 0.75693 0.66713 0.08000
C 	C 	0.02773 0.78122 0.72606 0.05900
H 	H 	0.04757 0.78143 0.69533 0.02600
C 	C 	0.90799 0.74706 0.73534 -0.07300
C 	C 	0.88772 0.70824 0.70126 -0.03800
H 	H 	0.90467 0.69523 0.68963 0.04300
H 	H 	0.94537 0.84533 0.72293 -0.06400
H 	H 	0.91817 0.88163 0.82143 0.22000
O 	O 	0.77957 0.14224 0.09516 -0.40600
O 	O 	0.76645 0.15551 0.19561 -0.40900
C 	C 	0.75552 0.14363 0.13894 0.35600
C 	C 	0.70854 0.12861 0.12006 -0.11800
C 	C 	0.67950 0.12846 0.16516 0.05400
H 	H 	0.68903 0.13797 0.20737 0.02500
C 	C 	0.63616 0.11409 0.14754 -0.14000
H 	H 	0.61643 0.11447 0.17797 0.08900
C 	C 	0.62172 0.09951 0.08714 0.10900
C 	C 	0.65109 0.09996 0.04262 -0.14200
H 	H 	0.64153 0.09027 0.00047 0.08000
C 	C 	0.69439 0.11456 0.05940 0.05900
H 	H 	0.71423 0.11477 0.02867 0.02600
C 	C 	0.57465 0.08040 0.06868 -0.07300
C 	C 	0.55438 0.04158 0.03460 -0.03800
H 	H 	0.57133 0.02857 0.02297 0.04300
H 	H 	0.61203 0.17867 0.05627 -0.06400
H 	H 	0.58483 0.21497 0.15477 0.22000
O 	O 	0.02933 0.55376 0.42849 -0.40600
O 	O 	0.05572 0.56688 0.52894 -0.40900
C 	C 	0.05477 0.57781 0.47227 0.35600
C 	C 	0.08673 0.62479 0.45339 -0.11800
C 	C 	0.11562 0.65383 0.49849 0.05400
H 	H 	0.11560 0.64430 0.54070 0.02500
C 	C 	0.14459 0.69717 0.48087 -0.14000
H 	H 	0.16470 0.71690 0.51130 0.08900
C 	C 	0.14445 0.71161 0.42047 0.10900
C 	C 	0.11553 0.68224 0.37595 -0.14200
H 	H 	0.11540 0.69180 0.33380 0.08000
C 	C 	0.08683 0.63894 0.39273 0.05900
H 	H 	0.06720 0.61910 0.36200 0.02600
C 	C 	0.17241 0.75868 0.40201 -0.07300
C 	C 	0.15386 0.77895 0.36793 -0.03800
H 	H 	0.12390 0.76200 0.35630 0.04300
H 	H 	0.23330 0.72130 0.38960 -0.06400
H 	H 	0.29680 0.74850 0.48810 0.22000
O 	O 	0.69600 0.88709 0.76182 -0.40600
O 	O 	0.72239 0.90021 0.86227 -0.40900
C 	C 	0.72144 0.91114 0.80560 0.35600
C 	C 	0.75340 0.95812 0.78672 -0.11700
C 	C 	0.78229 0.98716 0.83182 0.05400
H 	H 	0.78227 0.97763 0.87403 0.02500
C 	C 	0.81126 0.03050 0.81420 -0.14000
H 	H 	0.83137 0.05023 0.84463 0.08900
C 	C 	0.81112 0.04494 0.75380 0.10900
C 	C 	0.78220 0.01557 0.70928 -0.14200
H 	H 	0.78207 0.02513 0.66713 0.08000
C 	C 	0.75350 0.97227 0.72606 0.05900
H 	H 	0.73387 0.95243 0.69533 0.02600
C 	C 	0.83908 0.09201 0.73534 -0.07300
C 	C 	0.82053 0.11228 0.70126 -0.03800
H 	H 	0.79057 0.09533 0.68963 0.04300
H 	H 	0.89997 0.05463 0.72293 -0.06400
H 	H 	0.96347 0.08183 0.82143 0.22000
O 	O 	0.36266 0.22043 0.09516 -0.40600
O 	O 	0.38905 0.23355 0.19561 -0.40900
C 	C 	0.38810 0.24448 0.13894 0.35600
C 	C 	0.42006 0.29146 0.12006 -0.11800
C 	C 	0.44895 0.32050 0.16516 0.05400
H 	H 	0.44893 0.31097 0.20737 0.02500
C 	C 	0.47792 0.36384 0.14754 -0.14000
H 	H 	0.49803 0.38357 0.17797 0.08900
C 	C 	0.47778 0.37828 0.08714 0.10900
C 	C 	0.44886 0.34891 0.04262 -0.14200
H 	H 	0.44873 0.35847 0.00047 0.08000
C 	C 	0.42016 0.30561 0.05940 0.05900
H 	H 	0.40053 0.28577 0.02867 0.02600
C 	C 	0.50574 0.42535 0.06868 -0.07300
C 	C 	0.48719 0.44562 0.03460 -0.03800
H 	H 	0.45723 0.42867 0.02297 0.04300
H 	H 	0.56663 0.38797 0.05627 -0.06400
H 	H 	0.63013 0.41517 0.15477 0.22000
O 	O 	0.52443 0.97067 0.42849 -0.40600
O 	O 	0.51116 0.94428 0.52894 -0.40900
C 	C 	0.52304 0.94523 0.47227 0.35600
C 	C 	0.53806 0.91327 0.45339 -0.11800
C 	C 	0.53821 0.88438 0.49849 0.05400
H 	H 	0.52870 0.88440 0.54070 0.02500
C 	C 	0.55258 0.85541 0.48087 -0.14000
H 	H 	0.55220 0.83530 0.51130 0.08900
C 	C 	0.56716 0.85555 0.42047 0.10900
C 	C 	0.56671 0.88447 0.37595 -0.14200
H 	H 	0.57640 0.88460 0.33380 0.08000
C 	C 	0.55211 0.91317 0.39273 0.05900
H 	H 	0.55190 0.93280 0.36200 0.02600
C 	C 	0.58627 0.82759 0.40201 -0.07300
C 	C 	0.62509 0.84614 0.36793 -0.03800
H 	H 	0.63810 0.87610 0.35630 0.04300
H 	H 	0.48800 0.76670 0.38960 -0.06400
H 	H 	0.45170 0.70320 0.48810 0.22000
O 	O 	0.19110 0.30400 0.76182 -0.40600
O 	O 	0.17783 0.27761 0.86227 -0.40900
C 	C 	0.18971 0.27856 0.80560 0.35600
C 	C 	0.20473 0.24660 0.78672 -0.11800
C 	C 	0.20488 0.21771 0.83182 0.05400
H 	H 	0.19537 0.21773 0.87403 0.02500
C 	C 	0.21925 0.18874 0.81420 -0.14000
H 	H 	0.21887 0.16863 0.84463 0.08900
C 	C 	0.23383 0.18888 0.75380 0.10900
C 	C 	0.23338 0.21780 0.70928 -0.14200
H 	H 	0.24307 0.21793 0.66713 0.08000
C 	C 	0.21878 0.24650 0.72606 0.05900
H 	H 	0.21857 0.26613 0.69533 0.02600
C 	C 	0.25294 0.16092 0.73534 -0.07300
C 	C 	0.29176 0.17947 0.70126 -0.03800
H 	H 	0.30477 0.20943 0.68963 0.04300
H 	H 	0.15467 0.10003 0.72293 -0.06400
H 	H 	0.11837 0.03653 0.82143 0.22000
O 	O 	0.85776 0.63734 0.09516 -0.40600
O 	O 	0.84449 0.61095 0.19561 -0.40900
C 	C 	0.85637 0.61190 0.13894 0.35600
C 	C 	0.87139 0.57994 0.12006 -0.11800
C 	C 	0.87154 0.55105 0.16516 0.05400
H 	H 	0.86203 0.55107 0.20737 0.02500
C 	C 	0.88591 0.52208 0.14754 -0.14000
H 	H 	0.88553 0.50197 0.17797 0.08900
C 	C 	0.90049 0.52222 0.08714 0.10900
C 	C 	0.90004 0.55114 0.04262 -0.14200
H 	H 	0.90973 0.55127 0.00047 0.08000
C 	C 	0.88544 0.57984 0.05940 0.05900
H 	H 	0.88523 0.59947 0.02867 0.02600
C 	C 	0.91960 0.49426 0.06868 -0.07300
C 	C 	0.95842 0.51281 0.03460 -0.03800
H 	H 	0.97143 0.54277 0.02297 0.04300
H 	H 	0.82133 0.43337 0.05627 -0.06400
H 	H 	0.78503 0.36987 0.15477 0.22000
Cu	Cu	0.50764 0.49236 0.44182 0.90300
Cu	Cu	0.17431 0.82569 0.77515 0.90300
Cu	Cu	0.84097 0.15903 0.10849 0.90300
Cu	Cu	0.50764 0.01528 0.44182 0.90300
Cu	Cu	0.17431 0.34861 0.77515 0.90300
Cu	Cu	0.84097 0.68195 0.10849 0.90300
Cu	Cu	0.98472 0.49236 0.44182 0.90300
Cu	Cu	0.65139 0.82569 0.77515 0.90300
Cu	Cu	0.31805 0.15903 0.10849 0.90300
Cu	Cu	0.49236 0.50764 0.55818 0.90300
Cu	Cu	0.15903 0.84097 0.89151 0.90300
Cu	Cu	0.82569 0.17431 0.22485 0.90300
Cu	Cu	0.01528 0.50764 0.55818 0.90300
Cu	Cu	0.68195 0.84097 0.89151 0.90300
Cu	Cu	0.34861 0.17431 0.22485 0.90300
Cu	Cu	0.49236 0.98472 0.55818 0.90300
Cu	Cu	0.15903 0.31805 0.89151 0.90300
Cu	Cu	0.82569 0.65139 0.22485 0.90300
O 	O 	0.52768 0.76384 0.45365 -0.28300
C 	C 	0.64628 0.82314 0.34950 0.00300
C 	C 	0.56671 0.78336 0.41840 0.14900
C 	C 	0.48895 0.74448 0.41710 0.33800
C 	C 	0.45070 0.72535 0.46120 -0.65900
H 	H 	0.42350 0.71175 0.43640 0.20700
O 	O 	0.19435 0.09717 0.78698 -0.28300
C 	C 	0.31295 0.15647 0.68283 0.00300
C 	C 	0.23338 0.11669 0.75173 0.14900
C 	C 	0.15562 0.07781 0.75043 0.33800
C 	C 	0.11737 0.05868 0.79453 -0.65900
H 	H 	0.09017 0.04508 0.76973 0.20700
O 	O 	0.86101 0.43051 0.12032 -0.28300
C 	C 	0.97961 0.48981 0.01617 0.00300
C 	C 	0.90004 0.45002 0.08507 0.14900
C 	C 	0.82228 0.41114 0.08377 0.33800
C 	C 	0.78403 0.39202 0.12787 -0.65900
H 	H 	0.75683 0.37842 0.10307 0.20700
O 	O 	0.23616 0.76384 0.45365 -0.28300
C 	C 	0.17686 0.82314 0.34950 0.00300
C 	C 	0.21664 0.78336 0.41840 0.14900
C 	C 	0.25552 0.74447 0.41710 0.33800
C 	C 	0.27465 0.72535 0.46120 -0.65900
H 	H 	0.28825 0.71175 0.43640 0.20700
O 	O 	0.90283 0.09717 0.78698 -0.28300
C 	C 	0.84353 0.15647 0.68283 0.00300
C 	C 	0.88331 0.11669 0.75173 0.14900
C 	C 	0.92219 0.07781 0.75043 0.33800
C 	C 	0.94132 0.05868 0.79453 -0.65900
H 	H 	0.95492 0.04508 0.76973 0.20700
O 	O 	0.56949 0.43051 0.12032 -0.28300
C 	C 	0.51019 0.48981 0.01617 0.00300
C 	C 	0.54998 0.45002 0.08507 0.14900
C 	C 	0.58886 0.41114 0.08377 0.33900
C 	C 	0.60798 0.39202 0.12787 -0.65900
H 	H 	0.62158 0.37842 0.10307 0.20700
O 	O 	0.23616 0.47232 0.45365 -0.28300
C 	C 	0.17686 0.35372 0.34950 0.00300
C 	C 	0.21664 0.43329 0.41840 0.14900
C 	C 	0.25553 0.51105 0.41710 0.33800
C 	C 	0.27465 0.54930 0.46120 -0.65900
H 	H 	0.28825 0.57650 0.43640 0.20700
O 	O 	0.90283 0.80565 0.78698 -0.28300
C 	C 	0.84353 0.68705 0.68283 0.00300
C 	C 	0.88331 0.76662 0.75173 0.14900
C 	C 	0.92219 0.84438 0.75043 0.33800
C 	C 	0.94132 0.88263 0.79453 -0.65900
H 	H 	0.95492 0.90983 0.76973 0.20700
O 	O 	0.56949 0.13899 0.12032 -0.28300
C 	C 	0.51019 0.02039 0.01617 0.00300
C 	C 	0.54998 0.09996 0.08507 0.14900
C 	C 	0.58886 0.17772 0.08377 0.33800
C 	C 	0.60798 0.21597 0.12787 -0.65900
H 	H 	0.62158 0.24317 0.10307 0.20700
O 	O 	0.76384 0.52768 0.54635 -0.28300
C 	C 	0.82314 0.64628 0.65050 0.00300
C 	C 	0.78336 0.56671 0.58160 0.14900
C 	C 	0.74447 0.48895 0.58290 0.33800
C 	C 	0.72535 0.45070 0.53880 -0.65900
H 	H 	0.71175 0.42350 0.56360 0.20700
O 	O 	0.43051 0.86101 0.87968 -0.28300
C 	C 	0.48981 0.97961 0.98383 0.00300
C 	C 	0.45002 0.90004 0.91493 0.14900
C 	C 	0.41114 0.82228 0.91623 0.33800
C 	C 	0.39202 0.78403 0.87213 -0.65900
H 	H 	0.37842 0.75683 0.89693 0.20700
O 	O 	0.09717 0.19435 0.21302 -0.28300
C 	C 	0.15647 0.31295 0.31717 0.00300
C 	C 	0.11669 0.23338 0.24827 0.14900
C 	C 	0.07781 0.15562 0.24957 0.33800
C 	C 	0.05868 0.11737 0.20547 -0.65900
H 	H 	0.04508 0.09017 0.23027 0.20700
O 	O 	0.76384 0.23616 0.54635 -0.28300
C 	C 	0.82314 0.17686 0.65050 0.00300
C 	C 	0.78336 0.21664 0.58160 0.14900
C 	C 	0.74447 0.25553 0.58290 0.33900
C 	C 	0.72535 0.27465 0.53880 -0.65900
H 	H 	0.71175 0.28825 0.56360 0.20700
O 	O 	0.43051 0.56949 0.87968 -0.28300
C 	C 	0.48981 0.51019 0.98383 0.00300
C 	C 	0.45002 0.54998 0.91493 0.14900
C 	C 	0.41114 0.58886 0.91623 0.33900
C 	C 	0.39202 0.60798 0.87213 -0.65900
H 	H 	0.37842 0.62158 0.89693 0.20700
O 	O 	0.09717 0.90283 0.21302 -0.28300
C 	C 	0.15647 0.84353 0.31717 0.00300
C 	C 	0.11669 0.88331 0.24827 0.14900
C 	C 	0.07781 0.92219 0.24957 0.33800
C 	C 	0.05868 0.94132 0.20547 -0.65900
H 	H 	0.04508 0.95492 0.23027 0.20700
O 	O 	0.47232 0.23616 0.54635 -0.28300
C 	C 	0.35372 0.17686 0.65050 0.00300
C 	C 	0.43329 0.21664 0.58160 0.14900
C 	C 	0.51105 0.25552 0.58290 0.33800
C 	C 	0.54930 0.27465 0.53880 -0.65900
H 	H 	0.57650 0.28825 0.56360 0.20700
O 	O 	0.13899 0.56949 0.87968 -0.28300
C 	C 	0.02039 0.51019 0.98383 0.00300
C 	C 	0.09996 0.54998 0.91493 0.14900
C 	C 	0.17772 0.58886 0.91623 0.33800
C 	C 	0.21597 0.60798 0.87213 -0.65900
H 	H 	0.24317 0.62158 0.89693 0.20700
O 	O 	0.80565 0.90283 0.21302 -0.28300
C 	C 	0.68705 0.84353 0.31717 0.00300
C 	C 	0.76662 0.88331 0.24827 0.14900
C 	C 	0.84438 0.92219 0.24957 0.33800
C 	C 	0.88263 0.94132 0.20547 -0.65900
H 	H 	0.90983 0.95492 0.23027 0.20700
