data_crystal

_cell_length_a 35.34030
_cell_length_b 35.34030
_cell_length_c 20.29100
_cell_angle_alpha 90.00000
_cell_angle_beta  90.00000
_cell_angle_gamma 120.00000

_symmetry_space_group_name_	'P 1'
_symmetry_space_group_name_H-M	'P 1'

loop_
_symmetry_equiv_pos_as_xyz
  x,y,z

loop_
_atom_site_label
_atom_site_type_symbol
_atom_site_fract_x
_atom_site_fract_y
_atom_site_fract_z
_atom_site_charge
O 	O 	0.78013 0.63781 0.59178 -0.40000
O 	O 	0.76672 0.61129 0.69752 -0.40100
C 	C 	0.75603 0.61239 0.63808 0.33000
C 	C 	0.70921 0.57963 0.61783 -0.09400
C 	C 	0.68047 0.55004 0.66619 0.03000
H 	H 	0.69030 0.54990 0.70970 0.03300
C 	C 	0.63718 0.52109 0.64760 -0.11600
H 	H 	0.61760 0.50080 0.67890 0.08100
C 	C 	0.62224 0.52143 0.58430 0.08400
C 	C 	0.65133 0.55069 0.53584 -0.12000
H 	H 	0.64180 0.55080 0.49210 0.07200
C 	C 	0.69433 0.57915 0.55514 0.03700
H 	H 	0.71420 0.59900 0.52360 0.03400
C 	C 	0.57519 0.49369 0.56740 -0.05400
C 	C 	0.55468 0.51218 0.53293 -0.04900
H 	H 	0.57150 0.54200 0.52050 0.04700
H 	H 	0.61350 0.43220 0.54390 -0.00800
H 	H 	0.58620 0.36850 0.65300 0.16400
O 	O 	0.44680 0.97114 0.92511 -0.39900
O 	O 	0.43339 0.94462 0.03085 -0.40000
C 	C 	0.42270 0.94572 0.97141 0.33100
C 	C 	0.37588 0.91296 0.95116 -0.09300
C 	C 	0.34714 0.88337 0.99952 0.03100
H 	H 	0.35697 0.88323 0.04303 0.03300
C 	C 	0.30385 0.85442 0.98093 -0.11600
H 	H 	0.28427 0.83413 0.01223 0.08000
C 	C 	0.28891 0.85476 0.91763 0.08400
C 	C 	0.31800 0.88402 0.86917 -0.12000
H 	H 	0.30847 0.88413 0.82543 0.07200
C 	C 	0.36100 0.91248 0.88847 0.03700
H 	H 	0.38087 0.93233 0.85693 0.03400
C 	C 	0.24186 0.82702 0.90073 -0.05400
C 	C 	0.22135 0.84551 0.86626 -0.04900
H 	H 	0.23817 0.87533 0.85383 0.04700
H 	H 	0.28017 0.76553 0.87723 -0.00800
H 	H 	0.25287 0.70183 0.98633 0.16400
O 	O 	0.11346 0.30448 0.25845 -0.39900
O 	O 	0.10005 0.27796 0.36419 -0.40000
C 	C 	0.08936 0.27906 0.30475 0.33100
C 	C 	0.04254 0.24630 0.28450 -0.09300
C 	C 	0.01380 0.21671 0.33286 0.03000
H 	H 	0.02363 0.21657 0.37637 0.03400
C 	C 	0.97051 0.18776 0.31427 -0.11600
H 	H 	0.95093 0.16747 0.34557 0.08100
C 	C 	0.95557 0.18810 0.25097 0.08400
C 	C 	0.98466 0.21736 0.20251 -0.11900
H 	H 	0.97513 0.21747 0.15877 0.07200
C 	C 	0.02766 0.24582 0.22181 0.03600
H 	H 	0.04753 0.26567 0.19027 0.03500
C 	C 	0.90852 0.16036 0.23407 -0.05400
C 	C 	0.88801 0.17885 0.19960 -0.04900
H 	H 	0.90483 0.20867 0.18717 0.04700
H 	H 	0.94683 0.09887 0.21057 -0.00800
H 	H 	0.91953 0.03517 0.31967 0.16400
O 	O 	0.36219 0.14232 0.59178 -0.39900
O 	O 	0.38871 0.15543 0.69752 -0.40000
C 	C 	0.38761 0.14364 0.63808 0.33100
C 	C 	0.42037 0.12958 0.61783 -0.09300
C 	C 	0.44996 0.13043 0.66619 0.03100
H 	H 	0.45010 0.14040 0.70970 0.03400
C 	C 	0.47891 0.11609 0.64760 -0.11600
H 	H 	0.49920 0.11680 0.67890 0.08100
C 	C 	0.47857 0.10081 0.58430 0.08400
C 	C 	0.44931 0.10064 0.53584 -0.12000
H 	H 	0.44920 0.09100 0.49210 0.07200
C 	C 	0.42085 0.11518 0.55514 0.03700
H 	H 	0.40100 0.11520 0.52360 0.03400
C 	C 	0.50631 0.08150 0.56740 -0.05400
C 	C 	0.48782 0.04250 0.53293 -0.04900
H 	H 	0.45800 0.02950 0.52050 0.04700
H 	H 	0.56780 0.18130 0.54390 -0.00800
H 	H 	0.63150 0.21770 0.65300 0.16400
O 	O 	0.02886 0.47565 0.92511 -0.39900
O 	O 	0.05538 0.48876 0.03085 -0.40000
C 	C 	0.05428 0.47697 0.97141 0.33100
C 	C 	0.08704 0.46291 0.95116 -0.09300
C 	C 	0.11663 0.46376 0.99952 0.03100
H 	H 	0.11677 0.47373 0.04303 0.03400
C 	C 	0.14558 0.44942 0.98093 -0.11600
H 	H 	0.16587 0.45013 0.01223 0.08100
C 	C 	0.14524 0.43414 0.91763 0.08400
C 	C 	0.11598 0.43397 0.86917 -0.12000
H 	H 	0.11587 0.42433 0.82543 0.07200
C 	C 	0.08752 0.44851 0.88847 0.03700
H 	H 	0.06767 0.44853 0.85693 0.03400
C 	C 	0.17298 0.41483 0.90073 -0.05400
C 	C 	0.15449 0.37583 0.86626 -0.04900
H 	H 	0.12467 0.36283 0.85383 0.04700
H 	H 	0.23447 0.51463 0.87723 -0.00800
H 	H 	0.29817 0.55103 0.98633 0.16400
O 	O 	0.69552 0.80899 0.25845 -0.39900
O 	O 	0.72204 0.82210 0.36419 -0.40000
C 	C 	0.72094 0.81031 0.30475 0.33100
C 	C 	0.75370 0.79625 0.28450 -0.09300
C 	C 	0.78329 0.79710 0.33286 0.03100
H 	H 	0.78343 0.80707 0.37637 0.03400
C 	C 	0.81224 0.78276 0.31427 -0.11600
H 	H 	0.83253 0.78347 0.34557 0.08100
C 	C 	0.81190 0.76748 0.25097 0.08400
C 	C 	0.78264 0.76731 0.20251 -0.12000
H 	H 	0.78253 0.75767 0.15877 0.07200
C 	C 	0.75418 0.78185 0.22181 0.03700
H 	H 	0.73433 0.78187 0.19027 0.03400
C 	C 	0.83964 0.74817 0.23407 -0.05400
C 	C 	0.82115 0.70917 0.19960 -0.04900
H 	H 	0.79133 0.69617 0.18717 0.04700
H 	H 	0.90113 0.84797 0.21057 -0.00800
H 	H 	0.96483 0.88437 0.31967 0.16400
O 	O 	0.85768 0.21987 0.59178 -0.39900
O 	O 	0.84457 0.23328 0.69752 -0.40000
C 	C 	0.85636 0.24397 0.63808 0.33100
C 	C 	0.87042 0.29079 0.61783 -0.09300
C 	C 	0.86957 0.31953 0.66619 0.03100
H 	H 	0.85960 0.30970 0.70970 0.03400
C 	C 	0.88391 0.36282 0.64760 -0.11600
H 	H 	0.88320 0.38240 0.67890 0.08100
C 	C 	0.89919 0.37776 0.58430 0.08400
C 	C 	0.89936 0.34867 0.53584 -0.12000
H 	H 	0.90900 0.35820 0.49210 0.07200
C 	C 	0.88482 0.30567 0.55514 0.03700
H 	H 	0.88480 0.28580 0.52360 0.03400
C 	C 	0.91850 0.42481 0.56740 -0.05400
C 	C 	0.95750 0.44532 0.53293 -0.04900
H 	H 	0.97050 0.42850 0.52050 0.04700
H 	H 	0.81870 0.38650 0.54390 -0.00800
H 	H 	0.78230 0.41380 0.65300 0.16400
O 	O 	0.52435 0.55320 0.92511 -0.39900
O 	O 	0.51124 0.56661 0.03085 -0.40000
C 	C 	0.52303 0.57730 0.97141 0.33100
C 	C 	0.53709 0.62412 0.95116 -0.09300
C 	C 	0.53624 0.65286 0.99952 0.03100
H 	H 	0.52627 0.64303 0.04303 0.03400
C 	C 	0.55058 0.69615 0.98093 -0.11600
H 	H 	0.54987 0.71573 0.01223 0.08100
C 	C 	0.56586 0.71109 0.91763 0.08400
C 	C 	0.56603 0.68200 0.86917 -0.12000
H 	H 	0.57567 0.69153 0.82543 0.07200
C 	C 	0.55149 0.63900 0.88847 0.03700
H 	H 	0.55147 0.61913 0.85693 0.03400
C 	C 	0.58517 0.75814 0.90073 -0.05400
C 	C 	0.62417 0.77865 0.86626 -0.04900
H 	H 	0.63717 0.76183 0.85383 0.04700
H 	H 	0.48537 0.71983 0.87723 -0.00800
H 	H 	0.44897 0.74713 0.98633 0.16400
O 	O 	0.19101 0.88654 0.25845 -0.39900
O 	O 	0.17790 0.89995 0.36419 -0.40000
C 	C 	0.18969 0.91064 0.30475 0.33100
C 	C 	0.20375 0.95746 0.28450 -0.09300
C 	C 	0.20290 0.98620 0.33286 0.03000
H 	H 	0.19293 0.97637 0.37637 0.03400
C 	C 	0.21724 0.02949 0.31427 -0.11600
H 	H 	0.21653 0.04907 0.34557 0.08100
C 	C 	0.23252 0.04443 0.25097 0.08400
C 	C 	0.23269 0.01534 0.20251 -0.11900
H 	H 	0.24233 0.02487 0.15877 0.07200
C 	C 	0.21815 0.97234 0.22181 0.03600
H 	H 	0.21813 0.95247 0.19027 0.03400
C 	C 	0.25183 0.09148 0.23407 -0.05400
C 	C 	0.29083 0.11199 0.19960 -0.04900
H 	H 	0.30383 0.09517 0.18717 0.04700
H 	H 	0.15203 0.05317 0.21057 -0.00800
H 	H 	0.11563 0.08047 0.31967 0.16400
O 	O 	0.63781 0.78013 0.40822 -0.39900
O 	O 	0.61129 0.76672 0.30248 -0.40000
C 	C 	0.61239 0.75603 0.36192 0.33100
C 	C 	0.57963 0.70921 0.38217 -0.09300
C 	C 	0.55004 0.68047 0.33381 0.03100
H 	H 	0.54990 0.69030 0.29030 0.03400
C 	C 	0.52109 0.63718 0.35240 -0.11600
H 	H 	0.50080 0.61760 0.32110 0.08100
C 	C 	0.52143 0.62224 0.41570 0.08400
C 	C 	0.55069 0.65133 0.46416 -0.12000
H 	H 	0.55080 0.64180 0.50790 0.07200
C 	C 	0.57915 0.69433 0.44486 0.03700
H 	H 	0.59900 0.71420 0.47640 0.03400
C 	C 	0.49369 0.57519 0.43260 -0.05400
C 	C 	0.51218 0.55468 0.46707 -0.04900
H 	H 	0.54200 0.57150 0.47950 0.04700
H 	H 	0.43220 0.61350 0.45610 -0.00800
H 	H 	0.36850 0.58620 0.34700 0.16400
O 	O 	0.30448 0.11346 0.74155 -0.39900
O 	O 	0.27796 0.10005 0.63581 -0.40000
C 	C 	0.27906 0.08936 0.69525 0.33100
C 	C 	0.24630 0.04254 0.71550 -0.09300
C 	C 	0.21671 0.01380 0.66714 0.03000
H 	H 	0.21657 0.02363 0.62363 0.03400
C 	C 	0.18776 0.97051 0.68573 -0.11600
H 	H 	0.16747 0.95093 0.65443 0.08100
C 	C 	0.18810 0.95557 0.74903 0.08400
C 	C 	0.21736 0.98466 0.79749 -0.11900
H 	H 	0.21747 0.97513 0.84123 0.07200
C 	C 	0.24582 0.02766 0.77819 0.03600
H 	H 	0.26567 0.04753 0.80973 0.03500
C 	C 	0.16036 0.90852 0.76593 -0.05400
C 	C 	0.17885 0.88801 0.80040 -0.04900
H 	H 	0.20867 0.90483 0.81283 0.04700
H 	H 	0.09887 0.94683 0.78943 -0.00800
H 	H 	0.03517 0.91953 0.68033 0.16400
O 	O 	0.97114 0.44680 0.07489 -0.39900
O 	O 	0.94462 0.43339 0.96915 -0.40000
C 	C 	0.94572 0.42270 0.02859 0.33100
C 	C 	0.91296 0.37588 0.04884 -0.09300
C 	C 	0.88337 0.34714 0.00048 0.03100
H 	H 	0.88323 0.35697 0.95697 0.03300
C 	C 	0.85442 0.30385 0.01907 -0.11600
H 	H 	0.83413 0.28427 0.98777 0.08000
C 	C 	0.85476 0.28891 0.08237 0.08400
C 	C 	0.88402 0.31800 0.13083 -0.12000
H 	H 	0.88413 0.30847 0.17457 0.07200
C 	C 	0.91248 0.36100 0.11153 0.03700
H 	H 	0.93233 0.38087 0.14307 0.03400
C 	C 	0.82702 0.24186 0.09927 -0.05400
C 	C 	0.84551 0.22135 0.13374 -0.04900
H 	H 	0.87533 0.23817 0.14617 0.04700
H 	H 	0.76553 0.28017 0.12277 -0.00800
H 	H 	0.70183 0.25287 0.01367 0.16400
O 	O 	0.14232 0.36219 0.40822 -0.39900
O 	O 	0.15543 0.38871 0.30248 -0.40000
C 	C 	0.14364 0.38761 0.36192 0.33100
C 	C 	0.12958 0.42037 0.38217 -0.09300
C 	C 	0.13043 0.44996 0.33381 0.03100
H 	H 	0.14040 0.45010 0.29030 0.03400
C 	C 	0.11609 0.47891 0.35240 -0.11600
H 	H 	0.11680 0.49920 0.32110 0.08100
C 	C 	0.10081 0.47857 0.41570 0.08400
C 	C 	0.10064 0.44931 0.46416 -0.12000
H 	H 	0.09100 0.44920 0.50790 0.07200
C 	C 	0.11518 0.42085 0.44486 0.03700
H 	H 	0.11520 0.40100 0.47640 0.03400
C 	C 	0.08150 0.50631 0.43260 -0.05400
C 	C 	0.04250 0.48782 0.46707 -0.04900
H 	H 	0.02950 0.45800 0.47950 0.04700
H 	H 	0.18130 0.56780 0.45610 -0.00800
H 	H 	0.21770 0.63150 0.34700 0.16400
O 	O 	0.80899 0.69552 0.74155 -0.39900
O 	O 	0.82210 0.72204 0.63581 -0.40000
C 	C 	0.81031 0.72094 0.69525 0.33100
C 	C 	0.79625 0.75370 0.71550 -0.09300
C 	C 	0.79710 0.78329 0.66714 0.03100
H 	H 	0.80707 0.78343 0.62363 0.03400
C 	C 	0.78276 0.81224 0.68573 -0.11600
H 	H 	0.78347 0.83253 0.65443 0.08100
C 	C 	0.76748 0.81190 0.74903 0.08400
C 	C 	0.76731 0.78264 0.79749 -0.12000
H 	H 	0.75767 0.78253 0.84123 0.07200
C 	C 	0.78185 0.75418 0.77819 0.03700
H 	H 	0.78187 0.73433 0.80973 0.03400
C 	C 	0.74817 0.83964 0.76593 -0.05400
C 	C 	0.70917 0.82115 0.80040 -0.04900
H 	H 	0.69617 0.79133 0.81283 0.04700
H 	H 	0.84797 0.90113 0.78943 -0.00800
H 	H 	0.88437 0.96483 0.68033 0.16400
O 	O 	0.47565 0.02886 0.07489 -0.39900
O 	O 	0.48876 0.05538 0.96915 -0.40000
C 	C 	0.47697 0.05428 0.02859 0.33100
C 	C 	0.46291 0.08704 0.04884 -0.09300
C 	C 	0.46376 0.11663 0.00048 0.03100
H 	H 	0.47373 0.11677 0.95697 0.03400
C 	C 	0.44942 0.14558 0.01907 -0.11600
H 	H 	0.45013 0.16587 0.98777 0.08100
C 	C 	0.43414 0.14524 0.08237 0.08400
C 	C 	0.43397 0.11598 0.13083 -0.12000
H 	H 	0.42433 0.11587 0.17457 0.07200
C 	C 	0.44851 0.08752 0.11153 0.03700
H 	H 	0.44853 0.06767 0.14307 0.03400
C 	C 	0.41483 0.17298 0.09927 -0.05400
C 	C 	0.37583 0.15449 0.13374 -0.04900
H 	H 	0.36283 0.12467 0.14617 0.04700
H 	H 	0.51463 0.23447 0.12277 -0.00800
H 	H 	0.55103 0.29817 0.01367 0.16400
O 	O 	0.21987 0.85768 0.40822 -0.39900
O 	O 	0.23328 0.84457 0.30248 -0.40000
C 	C 	0.24397 0.85636 0.36192 0.33100
C 	C 	0.29079 0.87042 0.38217 -0.09300
C 	C 	0.31953 0.86957 0.33381 0.03100
H 	H 	0.30970 0.85960 0.29030 0.03400
C 	C 	0.36282 0.88391 0.35240 -0.11600
H 	H 	0.38240 0.88320 0.32110 0.08100
C 	C 	0.37776 0.89919 0.41570 0.08400
C 	C 	0.34867 0.89936 0.46416 -0.12000
H 	H 	0.35820 0.90900 0.50790 0.07200
C 	C 	0.30567 0.88482 0.44486 0.03700
H 	H 	0.28580 0.88480 0.47640 0.03400
C 	C 	0.42481 0.91850 0.43260 -0.05400
C 	C 	0.44532 0.95750 0.46707 -0.04900
H 	H 	0.42850 0.97050 0.47950 0.04700
H 	H 	0.38650 0.81870 0.45610 -0.00800
H 	H 	0.41380 0.78230 0.34700 0.16400
O 	O 	0.88654 0.19101 0.74155 -0.39900
O 	O 	0.89995 0.17790 0.63581 -0.40000
C 	C 	0.91064 0.18969 0.69525 0.33100
C 	C 	0.95746 0.20375 0.71550 -0.09300
C 	C 	0.98620 0.20290 0.66714 0.03000
H 	H 	0.97637 0.19293 0.62363 0.03400
C 	C 	0.02949 0.21724 0.68573 -0.11600
H 	H 	0.04907 0.21653 0.65443 0.08100
C 	C 	0.04443 0.23252 0.74903 0.08400
C 	C 	0.01534 0.23269 0.79749 -0.11900
H 	H 	0.02487 0.24233 0.84123 0.07200
C 	C 	0.97234 0.21815 0.77819 0.03600
H 	H 	0.95247 0.21813 0.80973 0.03400
C 	C 	0.09148 0.25183 0.76593 -0.05400
C 	C 	0.11199 0.29083 0.80040 -0.04900
H 	H 	0.09517 0.30383 0.81283 0.04700
H 	H 	0.05317 0.15203 0.78943 -0.00800
H 	H 	0.08047 0.11563 0.68033 0.16400
O 	O 	0.55320 0.52435 0.07489 -0.39900
O 	O 	0.56661 0.51124 0.96915 -0.40000
C 	C 	0.57730 0.52303 0.02859 0.33100
C 	C 	0.62412 0.53709 0.04884 -0.09300
C 	C 	0.65286 0.53624 0.00048 0.03100
H 	H 	0.64303 0.52627 0.95697 0.03400
C 	C 	0.69615 0.55058 0.01907 -0.11600
H 	H 	0.71573 0.54987 0.98777 0.08100
C 	C 	0.71109 0.56586 0.08237 0.08400
C 	C 	0.68200 0.56603 0.13083 -0.12000
H 	H 	0.69153 0.57567 0.17457 0.07200
C 	C 	0.63900 0.55149 0.11153 0.03700
H 	H 	0.61913 0.55147 0.14307 0.03400
C 	C 	0.75814 0.58517 0.09927 -0.05400
C 	C 	0.77865 0.62417 0.13374 -0.04900
H 	H 	0.76183 0.63717 0.14617 0.04700
H 	H 	0.71983 0.48537 0.12277 -0.00800
H 	H 	0.74713 0.44897 0.01367 0.16400
O 	O 	0.21987 0.36219 0.40822 -0.39900
O 	O 	0.23328 0.38871 0.30248 -0.40000
C 	C 	0.24397 0.38761 0.36192 0.33100
C 	C 	0.29079 0.42037 0.38217 -0.09300
C 	C 	0.31953 0.44996 0.33381 0.03100
H 	H 	0.30970 0.45010 0.29030 0.03400
C 	C 	0.36282 0.47891 0.35240 -0.11600
H 	H 	0.38240 0.49920 0.32110 0.08100
C 	C 	0.37776 0.47857 0.41570 0.08400
C 	C 	0.34867 0.44931 0.46416 -0.12000
H 	H 	0.35820 0.44920 0.50790 0.07200
C 	C 	0.30567 0.42085 0.44486 0.03700
H 	H 	0.28580 0.40100 0.47640 0.03400
C 	C 	0.42481 0.50631 0.43260 -0.05400
C 	C 	0.44532 0.48782 0.46707 -0.04900
H 	H 	0.42850 0.45800 0.47950 0.04700
H 	H 	0.38650 0.56780 0.45610 -0.00800
H 	H 	0.41380 0.63150 0.34700 0.16400
O 	O 	0.88654 0.69552 0.74155 -0.39900
O 	O 	0.89995 0.72204 0.63581 -0.40000
C 	C 	0.91064 0.72094 0.69525 0.33100
C 	C 	0.95746 0.75370 0.71550 -0.09300
C 	C 	0.98620 0.78329 0.66714 0.03000
H 	H 	0.97637 0.78343 0.62363 0.03400
C 	C 	0.02949 0.81224 0.68573 -0.11600
H 	H 	0.04907 0.83253 0.65443 0.08100
C 	C 	0.04443 0.81190 0.74903 0.08400
C 	C 	0.01534 0.78264 0.79749 -0.11900
H 	H 	0.02487 0.78253 0.84123 0.07200
C 	C 	0.97234 0.75418 0.77819 0.03600
H 	H 	0.95247 0.73433 0.80973 0.03500
C 	C 	0.09148 0.83964 0.76593 -0.05400
C 	C 	0.11199 0.82115 0.80040 -0.04900
H 	H 	0.09517 0.79133 0.81283 0.04700
H 	H 	0.05317 0.90113 0.78943 -0.00800
H 	H 	0.08047 0.96483 0.68033 0.16400
O 	O 	0.55320 0.02886 0.07489 -0.39900
O 	O 	0.56661 0.05538 0.96915 -0.40000
C 	C 	0.57730 0.05428 0.02859 0.33100
C 	C 	0.62412 0.08704 0.04884 -0.09300
C 	C 	0.65286 0.11663 0.00048 0.03100
H 	H 	0.64303 0.11677 0.95697 0.03300
C 	C 	0.69615 0.14558 0.01907 -0.11600
H 	H 	0.71573 0.16587 0.98777 0.08000
C 	C 	0.71109 0.14524 0.08237 0.08400
C 	C 	0.68200 0.11598 0.13083 -0.12000
H 	H 	0.69153 0.11587 0.17457 0.07200
C 	C 	0.63900 0.08752 0.11153 0.03700
H 	H 	0.61913 0.06767 0.14307 0.03400
C 	C 	0.75814 0.17298 0.09927 -0.05400
C 	C 	0.77865 0.15449 0.13374 -0.04900
H 	H 	0.76183 0.12467 0.14617 0.04700
H 	H 	0.71983 0.23447 0.12277 -0.00800
H 	H 	0.74713 0.29817 0.01367 0.16400
O 	O 	0.63781 0.85768 0.40822 -0.39900
O 	O 	0.61129 0.84457 0.30248 -0.40000
C 	C 	0.61239 0.85636 0.36192 0.33100
C 	C 	0.57963 0.87042 0.38217 -0.09300
C 	C 	0.55004 0.86957 0.33381 0.03100
H 	H 	0.54990 0.85960 0.29030 0.03400
C 	C 	0.52109 0.88391 0.35240 -0.11600
H 	H 	0.50080 0.88320 0.32110 0.08100
C 	C 	0.52143 0.89919 0.41570 0.08400
C 	C 	0.55069 0.89936 0.46416 -0.12000
H 	H 	0.55080 0.90900 0.50790 0.07200
C 	C 	0.57915 0.88482 0.44486 0.03700
H 	H 	0.59900 0.88480 0.47640 0.03400
C 	C 	0.49369 0.91850 0.43260 -0.05400
C 	C 	0.51218 0.95750 0.46707 -0.04900
H 	H 	0.54200 0.97050 0.47950 0.04700
H 	H 	0.43220 0.81870 0.45610 -0.00800
H 	H 	0.36850 0.78230 0.34700 0.16400
O 	O 	0.30448 0.19101 0.74155 -0.39900
O 	O 	0.27796 0.17790 0.63581 -0.40000
C 	C 	0.27906 0.18969 0.69525 0.33100
C 	C 	0.24630 0.20375 0.71550 -0.09300
C 	C 	0.21671 0.20290 0.66714 0.03100
H 	H 	0.21657 0.19293 0.62363 0.03400
C 	C 	0.18776 0.21724 0.68573 -0.11600
H 	H 	0.16747 0.21653 0.65443 0.08100
C 	C 	0.18810 0.23252 0.74903 0.08400
C 	C 	0.21736 0.23269 0.79749 -0.12000
H 	H 	0.21747 0.24233 0.84123 0.07200
C 	C 	0.24582 0.21815 0.77819 0.03700
H 	H 	0.26567 0.21813 0.80973 0.03400
C 	C 	0.16036 0.25183 0.76593 -0.05400
C 	C 	0.17885 0.29083 0.80040 -0.04900
H 	H 	0.20867 0.30383 0.81283 0.04700
H 	H 	0.09887 0.15203 0.78943 -0.00800
H 	H 	0.03517 0.11563 0.68033 0.16400
O 	O 	0.97114 0.52435 0.07489 -0.39900
O 	O 	0.94462 0.51124 0.96915 -0.40000
C 	C 	0.94572 0.52303 0.02859 0.33100
C 	C 	0.91296 0.53709 0.04884 -0.09300
C 	C 	0.88337 0.53624 0.00048 0.03100
H 	H 	0.88323 0.52627 0.95697 0.03400
C 	C 	0.85442 0.55058 0.01907 -0.11600
H 	H 	0.83413 0.54987 0.98777 0.08100
C 	C 	0.85476 0.56586 0.08237 0.08400
C 	C 	0.88402 0.56603 0.13083 -0.12000
H 	H 	0.88413 0.57567 0.17457 0.07200
C 	C 	0.91248 0.55149 0.11153 0.03700
H 	H 	0.93233 0.55147 0.14307 0.03400
C 	C 	0.82702 0.58517 0.09927 -0.05400
C 	C 	0.84551 0.62417 0.13374 -0.04900
H 	H 	0.87533 0.63717 0.14617 0.04700
H 	H 	0.76553 0.48537 0.12277 -0.00800
H 	H 	0.70183 0.44897 0.01367 0.16400
O 	O 	0.14232 0.78013 0.40822 -0.39900
O 	O 	0.15543 0.76672 0.30248 -0.40000
C 	C 	0.14364 0.75603 0.36192 0.33100
C 	C 	0.12958 0.70921 0.38217 -0.09300
C 	C 	0.13043 0.68047 0.33381 0.03100
H 	H 	0.14040 0.69030 0.29030 0.03400
C 	C 	0.11609 0.63718 0.35240 -0.11600
H 	H 	0.11680 0.61760 0.32110 0.08100
C 	C 	0.10081 0.62224 0.41570 0.08400
C 	C 	0.10064 0.65133 0.46416 -0.12000
H 	H 	0.09100 0.64180 0.50790 0.07200
C 	C 	0.11518 0.69433 0.44486 0.03700
H 	H 	0.11520 0.71420 0.47640 0.03400
C 	C 	0.08150 0.57519 0.43260 -0.05400
C 	C 	0.04250 0.55468 0.46707 -0.04900
H 	H 	0.02950 0.57150 0.47950 0.04700
H 	H 	0.18130 0.61350 0.45610 -0.00800
H 	H 	0.21770 0.58620 0.34700 0.16400
O 	O 	0.80899 0.11346 0.74155 -0.39900
O 	O 	0.82210 0.10005 0.63581 -0.40000
C 	C 	0.81031 0.08936 0.69525 0.33100
C 	C 	0.79625 0.04254 0.71550 -0.09300
C 	C 	0.79710 0.01380 0.66714 0.03000
H 	H 	0.80707 0.02363 0.62363 0.03400
C 	C 	0.78276 0.97051 0.68573 -0.11600
H 	H 	0.78347 0.95093 0.65443 0.08100
C 	C 	0.76748 0.95557 0.74903 0.08400
C 	C 	0.76731 0.98466 0.79749 -0.11900
H 	H 	0.75767 0.97513 0.84123 0.07200
C 	C 	0.78185 0.02766 0.77819 0.03600
H 	H 	0.78187 0.04753 0.80973 0.03400
C 	C 	0.74817 0.90852 0.76593 -0.05400
C 	C 	0.70917 0.88801 0.80040 -0.04900
H 	H 	0.69617 0.90483 0.81283 0.04700
H 	H 	0.84797 0.94683 0.78943 -0.00800
H 	H 	0.88437 0.91953 0.68033 0.16400
O 	O 	0.47565 0.44680 0.07489 -0.39900
O 	O 	0.48876 0.43339 0.96915 -0.40000
C 	C 	0.47697 0.42270 0.02859 0.33100
C 	C 	0.46291 0.37588 0.04884 -0.09300
C 	C 	0.46376 0.34714 0.00048 0.03100
H 	H 	0.47373 0.35697 0.95697 0.03400
C 	C 	0.44942 0.30385 0.01907 -0.11600
H 	H 	0.45013 0.28427 0.98777 0.08100
C 	C 	0.43414 0.28891 0.08237 0.08400
C 	C 	0.43397 0.31800 0.13083 -0.12000
H 	H 	0.42433 0.30847 0.17457 0.07200
C 	C 	0.44851 0.36100 0.11153 0.03700
H 	H 	0.44853 0.38087 0.14307 0.03400
C 	C 	0.41483 0.24186 0.09927 -0.05400
C 	C 	0.37583 0.22135 0.13374 -0.04900
H 	H 	0.36283 0.23817 0.14617 0.04700
H 	H 	0.51463 0.28017 0.12277 -0.00800
H 	H 	0.55103 0.25287 0.01367 0.16400
O 	O 	0.36219 0.21987 0.59178 -0.39900
O 	O 	0.38871 0.23328 0.69752 -0.40000
C 	C 	0.38761 0.24397 0.63808 0.33100
C 	C 	0.42037 0.29079 0.61783 -0.09300
C 	C 	0.44996 0.31953 0.66619 0.03100
H 	H 	0.45010 0.30970 0.70970 0.03400
C 	C 	0.47891 0.36282 0.64760 -0.11600
H 	H 	0.49920 0.38240 0.67890 0.08100
C 	C 	0.47857 0.37776 0.58430 0.08400
C 	C 	0.44931 0.34867 0.53584 -0.12000
H 	H 	0.44920 0.35820 0.49210 0.07200
C 	C 	0.42085 0.30567 0.55514 0.03700
H 	H 	0.40100 0.28580 0.52360 0.03400
C 	C 	0.50631 0.42481 0.56740 -0.05400
C 	C 	0.48782 0.44532 0.53293 -0.04900
H 	H 	0.45800 0.42850 0.52050 0.04700
H 	H 	0.56780 0.38650 0.54390 -0.00800
H 	H 	0.63150 0.41380 0.65300 0.16400
O 	O 	0.02886 0.55320 0.92511 -0.39900
O 	O 	0.05538 0.56661 0.03085 -0.40000
C 	C 	0.05428 0.57730 0.97141 0.33100
C 	C 	0.08704 0.62412 0.95116 -0.09300
C 	C 	0.11663 0.65286 0.99952 0.03100
H 	H 	0.11677 0.64303 0.04303 0.03300
C 	C 	0.14558 0.69615 0.98093 -0.11600
H 	H 	0.16587 0.71573 0.01223 0.08000
C 	C 	0.14524 0.71109 0.91763 0.08400
C 	C 	0.11598 0.68200 0.86917 -0.12000
H 	H 	0.11587 0.69153 0.82543 0.07200
C 	C 	0.08752 0.63900 0.88847 0.03700
H 	H 	0.06767 0.61913 0.85693 0.03400
C 	C 	0.17298 0.75814 0.90073 -0.05400
C 	C 	0.15449 0.77865 0.86626 -0.04900
H 	H 	0.12467 0.76183 0.85383 0.04700
H 	H 	0.23447 0.71983 0.87723 -0.00800
H 	H 	0.29817 0.74713 0.98633 0.16400
O 	O 	0.69552 0.88654 0.25845 -0.39900
O 	O 	0.72204 0.89995 0.36419 -0.40000
C 	C 	0.72094 0.91064 0.30475 0.33100
C 	C 	0.75370 0.95746 0.28450 -0.09300
C 	C 	0.78329 0.98620 0.33286 0.03000
H 	H 	0.78343 0.97637 0.37637 0.03400
C 	C 	0.81224 0.02949 0.31427 -0.11600
H 	H 	0.83253 0.04907 0.34557 0.08100
C 	C 	0.81190 0.04443 0.25097 0.08400
C 	C 	0.78264 0.01534 0.20251 -0.11900
H 	H 	0.78253 0.02487 0.15877 0.07200
C 	C 	0.75418 0.97234 0.22181 0.03600
H 	H 	0.73433 0.95247 0.19027 0.03500
C 	C 	0.83964 0.09148 0.23407 -0.05400
C 	C 	0.82115 0.11199 0.19960 -0.04900
H 	H 	0.79133 0.09517 0.18717 0.04700
H 	H 	0.90113 0.05317 0.21057 -0.00800
H 	H 	0.96483 0.08047 0.31967 0.16400
O 	O 	0.85768 0.63781 0.59178 -0.39900
O 	O 	0.84457 0.61129 0.69752 -0.40000
C 	C 	0.85636 0.61239 0.63808 0.33100
C 	C 	0.87042 0.57963 0.61783 -0.09300
C 	C 	0.86957 0.55004 0.66619 0.03100
H 	H 	0.85960 0.54990 0.70970 0.03400
C 	C 	0.88391 0.52109 0.64760 -0.11600
H 	H 	0.88320 0.50080 0.67890 0.08100
C 	C 	0.89919 0.52143 0.58430 0.08400
C 	C 	0.89936 0.55069 0.53584 -0.12000
H 	H 	0.90900 0.55080 0.49210 0.07200
C 	C 	0.88482 0.57915 0.55514 0.03700
H 	H 	0.88480 0.59900 0.52360 0.03400
C 	C 	0.91850 0.49369 0.56740 -0.05400
C 	C 	0.95750 0.51218 0.53293 -0.04900
H 	H 	0.97050 0.54200 0.52050 0.04700
H 	H 	0.81870 0.43220 0.54390 -0.00800
H 	H 	0.78230 0.36850 0.65300 0.16400
O 	O 	0.52435 0.97114 0.92511 -0.39900
O 	O 	0.51124 0.94462 0.03085 -0.40000
C 	C 	0.52303 0.94572 0.97141 0.33100
C 	C 	0.53709 0.91296 0.95116 -0.09300
C 	C 	0.53624 0.88337 0.99952 0.03100
H 	H 	0.52627 0.88323 0.04303 0.03400
C 	C 	0.55058 0.85442 0.98093 -0.11600
H 	H 	0.54987 0.83413 0.01223 0.08100
C 	C 	0.56586 0.85476 0.91763 0.08400
C 	C 	0.56603 0.88402 0.86917 -0.12000
H 	H 	0.57567 0.88413 0.82543 0.07200
C 	C 	0.55149 0.91248 0.88847 0.03700
H 	H 	0.55147 0.93233 0.85693 0.03400
C 	C 	0.58517 0.82702 0.90073 -0.05400
C 	C 	0.62417 0.84551 0.86626 -0.04900
H 	H 	0.63717 0.87533 0.85383 0.04700
H 	H 	0.48537 0.76553 0.87723 -0.00800
H 	H 	0.44897 0.70183 0.98633 0.16400
O 	O 	0.19101 0.30448 0.25845 -0.39900
O 	O 	0.17790 0.27796 0.36419 -0.40000
C 	C 	0.18969 0.27906 0.30475 0.33100
C 	C 	0.20375 0.24630 0.28450 -0.09300
C 	C 	0.20290 0.21671 0.33286 0.03100
H 	H 	0.19293 0.21657 0.37637 0.03400
C 	C 	0.21724 0.18776 0.31427 -0.11600
H 	H 	0.21653 0.16747 0.34557 0.08100
C 	C 	0.23252 0.18810 0.25097 0.08400
C 	C 	0.23269 0.21736 0.20251 -0.12000
H 	H 	0.24233 0.21747 0.15877 0.07200
C 	C 	0.21815 0.24582 0.22181 0.03700
H 	H 	0.21813 0.26567 0.19027 0.03400
C 	C 	0.25183 0.16036 0.23407 -0.05400
C 	C 	0.29083 0.17885 0.19960 -0.04900
H 	H 	0.30383 0.20867 0.18717 0.04700
H 	H 	0.15203 0.09887 0.21057 -0.00800
H 	H 	0.11563 0.03517 0.31967 0.16400
O 	O 	0.78013 0.14232 0.59178 -0.39900
O 	O 	0.76672 0.15543 0.69752 -0.40000
C 	C 	0.75603 0.14364 0.63808 0.33100
C 	C 	0.70921 0.12958 0.61783 -0.09300
C 	C 	0.68047 0.13043 0.66619 0.03100
H 	H 	0.69030 0.14040 0.70970 0.03400
C 	C 	0.63718 0.11609 0.64760 -0.11600
H 	H 	0.61760 0.11680 0.67890 0.08100
C 	C 	0.62224 0.10081 0.58430 0.08400
C 	C 	0.65133 0.10064 0.53584 -0.12000
H 	H 	0.64180 0.09100 0.49210 0.07200
C 	C 	0.69433 0.11518 0.55514 0.03700
H 	H 	0.71420 0.11520 0.52360 0.03400
C 	C 	0.57519 0.08150 0.56740 -0.05400
C 	C 	0.55468 0.04250 0.53293 -0.04900
H 	H 	0.57150 0.02950 0.52050 0.04700
H 	H 	0.61350 0.18130 0.54390 -0.00800
H 	H 	0.58620 0.21770 0.65300 0.16400
O 	O 	0.44680 0.47565 0.92511 -0.39900
O 	O 	0.43339 0.48876 0.03085 -0.40000
C 	C 	0.42270 0.47697 0.97141 0.33100
C 	C 	0.37588 0.46291 0.95116 -0.09300
C 	C 	0.34714 0.46376 0.99952 0.03100
H 	H 	0.35697 0.47373 0.04303 0.03400
C 	C 	0.30385 0.44942 0.98093 -0.11600
H 	H 	0.28427 0.45013 0.01223 0.08100
C 	C 	0.28891 0.43414 0.91763 0.08400
C 	C 	0.31800 0.43397 0.86917 -0.12000
H 	H 	0.30847 0.42433 0.82543 0.07200
C 	C 	0.36100 0.44851 0.88847 0.03700
H 	H 	0.38087 0.44853 0.85693 0.03400
C 	C 	0.24186 0.41483 0.90073 -0.05400
C 	C 	0.22135 0.37583 0.86626 -0.04900
H 	H 	0.23817 0.36283 0.85383 0.04700
H 	H 	0.28017 0.51463 0.87723 -0.00800
H 	H 	0.25287 0.55103 0.98633 0.16400
O 	O 	0.11346 0.80899 0.25845 -0.39900
O 	O 	0.10005 0.82210 0.36419 -0.40000
C 	C 	0.08936 0.81031 0.30475 0.33100
C 	C 	0.04254 0.79625 0.28450 -0.09300
C 	C 	0.01380 0.79710 0.33286 0.03000
H 	H 	0.02363 0.80707 0.37637 0.03400
C 	C 	0.97051 0.78276 0.31427 -0.11600
H 	H 	0.95093 0.78347 0.34557 0.08100
C 	C 	0.95557 0.76748 0.25097 0.08400
C 	C 	0.98466 0.76731 0.20251 -0.11900
H 	H 	0.97513 0.75767 0.15877 0.07200
C 	C 	0.02766 0.78185 0.22181 0.03600
H 	H 	0.04753 0.78187 0.19027 0.03400
C 	C 	0.90852 0.74817 0.23407 -0.05400
C 	C 	0.88801 0.70917 0.19960 -0.04900
H 	H 	0.90483 0.69617 0.18717 0.04700
H 	H 	0.94683 0.84797 0.21057 -0.00800
H 	H 	0.91953 0.88437 0.31967 0.16400
Cu	Cu	0.84086 0.68173 0.60638 0.90400
Cu	Cu	0.50753 0.01506 0.93971 0.90400
Cu	Cu	0.17420 0.34840 0.27305 0.90400
Cu	Cu	0.31827 0.15914 0.60638 0.90400
Cu	Cu	0.98494 0.49247 0.93971 0.90400
Cu	Cu	0.65160 0.82580 0.27305 0.90400
Cu	Cu	0.84086 0.15914 0.60638 0.90400
Cu	Cu	0.50753 0.49247 0.93971 0.90400
Cu	Cu	0.17420 0.82580 0.27305 0.90400
Cu	Cu	0.68173 0.84086 0.39362 0.90400
Cu	Cu	0.34840 0.17420 0.72695 0.90400
Cu	Cu	0.01506 0.50753 0.06029 0.90400
Cu	Cu	0.15914 0.31827 0.39362 0.90400
Cu	Cu	0.82580 0.65160 0.72695 0.90400
Cu	Cu	0.49247 0.98494 0.06029 0.90400
Cu	Cu	0.15914 0.84087 0.39362 0.90400
Cu	Cu	0.82580 0.17420 0.72695 0.90400
Cu	Cu	0.49247 0.50753 0.06029 0.90400
O 	O 	0.57092 0.42908 0.61700 -0.23000
C 	C 	0.51073 0.48927 0.51550 0.01000
C 	C 	0.55066 0.44934 0.58390 0.12200
C 	C 	0.59031 0.40969 0.57210 0.14900
C 	C 	0.60994 0.39006 0.62530 -0.45700
H 	H 	0.62400 0.37600 0.60210 0.15100
O 	O 	0.23759 0.76241 0.95033 -0.23000
C 	C 	0.17740 0.82260 0.84883 0.01000
C 	C 	0.21733 0.78267 0.91723 0.12200
C 	C 	0.25698 0.74302 0.90543 0.14900
C 	C 	0.27661 0.72339 0.95863 -0.45700
H 	H 	0.29067 0.70933 0.93543 0.15100
O 	O 	0.90425 0.09575 0.28367 -0.23000
C 	C 	0.84406 0.15594 0.18217 0.01000
C 	C 	0.88399 0.11601 0.25057 0.12200
C 	C 	0.92364 0.07636 0.23877 0.14900
C 	C 	0.94327 0.05673 0.29197 -0.45700
H 	H 	0.95733 0.04267 0.26877 0.15100
O 	O 	0.57092 0.14184 0.61700 -0.23000
C 	C 	0.51073 0.02146 0.51550 0.01000
C 	C 	0.55066 0.10132 0.58390 0.12200
C 	C 	0.59031 0.18062 0.57210 0.14900
C 	C 	0.60994 0.21988 0.62530 -0.45700
H 	H 	0.62400 0.24800 0.60210 0.15100
O 	O 	0.23759 0.47517 0.95033 -0.23000
C 	C 	0.17740 0.35479 0.84883 0.01000
C 	C 	0.21733 0.43465 0.91723 0.12200
C 	C 	0.25698 0.51395 0.90543 0.14900
C 	C 	0.27661 0.55321 0.95863 -0.45700
H 	H 	0.29067 0.58133 0.93543 0.15100
O 	O 	0.90425 0.80851 0.28367 -0.23000
C 	C 	0.84406 0.68813 0.18217 0.01000
C 	C 	0.88399 0.76799 0.25057 0.12200
C 	C 	0.92364 0.84729 0.23877 0.14900
C 	C 	0.94327 0.88655 0.29197 -0.45700
H 	H 	0.95733 0.91467 0.26877 0.15100
O 	O 	0.85816 0.42908 0.61700 -0.23000
C 	C 	0.97854 0.48927 0.51550 0.01000
C 	C 	0.89868 0.44934 0.58390 0.12200
C 	C 	0.81938 0.40969 0.57210 0.14900
C 	C 	0.78012 0.39006 0.62530 -0.45700
H 	H 	0.75200 0.37600 0.60210 0.15100
O 	O 	0.52483 0.76241 0.95033 -0.23000
C 	C 	0.64521 0.82260 0.84883 0.01000
C 	C 	0.56535 0.78267 0.91723 0.12200
C 	C 	0.48605 0.74302 0.90543 0.14900
C 	C 	0.44679 0.72339 0.95863 -0.45700
H 	H 	0.41867 0.70933 0.93543 0.15100
O 	O 	0.19149 0.09575 0.28367 -0.23000
C 	C 	0.31187 0.15594 0.18217 0.01000
C 	C 	0.23201 0.11601 0.25057 0.12200
C 	C 	0.15271 0.07636 0.23877 0.14900
C 	C 	0.11345 0.05673 0.29197 -0.45700
H 	H 	0.08533 0.04267 0.26877 0.15100
O 	O 	0.42908 0.57092 0.38300 -0.23000
C 	C 	0.48927 0.51073 0.48450 0.01000
C 	C 	0.44934 0.55066 0.41610 0.12200
C 	C 	0.40969 0.59031 0.42790 0.14900
C 	C 	0.39006 0.60994 0.37470 -0.45700
H 	H 	0.37600 0.62400 0.39790 0.15100
O 	O 	0.09575 0.90425 0.71633 -0.23000
C 	C 	0.15594 0.84406 0.81783 0.01000
C 	C 	0.11601 0.88399 0.74943 0.12200
C 	C 	0.07636 0.92364 0.76123 0.14900
C 	C 	0.05673 0.94327 0.70803 -0.45700
H 	H 	0.04267 0.95733 0.73123 0.15100
O 	O 	0.76241 0.23759 0.04967 -0.23000
C 	C 	0.82260 0.17740 0.15117 0.01000
C 	C 	0.78267 0.21733 0.08277 0.12200
C 	C 	0.74302 0.25698 0.09457 0.14900
C 	C 	0.72339 0.27661 0.04137 -0.45700
H 	H 	0.70933 0.29067 0.06457 0.15100
O 	O 	0.14184 0.57092 0.38300 -0.23000
C 	C 	0.02146 0.51073 0.48450 0.01000
C 	C 	0.10132 0.55066 0.41610 0.12200
C 	C 	0.18062 0.59031 0.42790 0.14900
C 	C 	0.21988 0.60994 0.37470 -0.45700
H 	H 	0.24800 0.62400 0.39790 0.15100
O 	O 	0.80851 0.90425 0.71633 -0.23000
C 	C 	0.68813 0.84406 0.81783 0.01000
C 	C 	0.76799 0.88399 0.74943 0.12200
C 	C 	0.84729 0.92364 0.76123 0.14900
C 	C 	0.88655 0.94327 0.70803 -0.45700
H 	H 	0.91467 0.95733 0.73123 0.15100
O 	O 	0.47517 0.23759 0.04967 -0.23000
C 	C 	0.35479 0.17740 0.15117 0.01000
C 	C 	0.43465 0.21733 0.08277 0.12200
C 	C 	0.51395 0.25698 0.09457 0.14900
C 	C 	0.55321 0.27661 0.04137 -0.45700
H 	H 	0.58133 0.29067 0.06457 0.15100
O 	O 	0.42908 0.85816 0.38300 -0.23000
C 	C 	0.48927 0.97854 0.48450 0.01000
C 	C 	0.44934 0.89868 0.41610 0.12200
C 	C 	0.40969 0.81938 0.42790 0.14900
C 	C 	0.39006 0.78012 0.37470 -0.45700
H 	H 	0.37600 0.75200 0.39790 0.15100
O 	O 	0.09575 0.19149 0.71633 -0.23000
C 	C 	0.15594 0.31187 0.81783 0.01000
C 	C 	0.11601 0.23201 0.74943 0.12200
C 	C 	0.07636 0.15271 0.76123 0.14900
C 	C 	0.05673 0.11345 0.70803 -0.45700
H 	H 	0.04267 0.08533 0.73123 0.15100
O 	O 	0.76241 0.52483 0.04967 -0.23000
C 	C 	0.82260 0.64521 0.15117 0.01000
C 	C 	0.78267 0.56535 0.08277 0.12200
C 	C 	0.74302 0.48605 0.09457 0.14900
C 	C 	0.72339 0.44679 0.04137 -0.45700
H 	H 	0.70933 0.41867 0.06457 0.15100
