data_crystal

_cell_length_a 35.30400
_cell_length_b 35.30400
_cell_length_c 20.61710
_cell_angle_alpha 90.00000
_cell_angle_beta  90.00000
_cell_angle_gamma 120.00000

_symmetry_space_group_name_	'P 1'
_symmetry_space_group_name_H-M	'P 1'

loop_
_symmetry_equiv_pos_as_xyz
  x,y,z

loop_
_atom_site_label
_atom_site_type_symbol
_atom_site_fract_x
_atom_site_fract_y
_atom_site_fract_z
_atom_site_charge
O 	O 	0.63649 0.77936 0.40666 -0.40700
O 	O 	0.61159 0.76695 0.30291 -0.40700
C 	C 	0.61219 0.75564 0.36111 0.35800
C 	C 	0.57990 0.70878 0.37849 -0.13100
C 	C 	0.55287 0.67928 0.33158 0.07700
H 	H 	0.55410 0.68870 0.28910 0.01600
C 	C 	0.52442 0.63653 0.34725 -0.16700
H 	H 	0.50610 0.61750 0.31550 0.09900
C 	C 	0.52251 0.62112 0.40945 0.12400
C 	C 	0.54915 0.65051 0.45730 -0.16000
H 	H 	0.54790 0.64120 0.49980 0.08900
C 	C 	0.57780 0.69426 0.44038 0.07300
H 	H 	0.59570 0.71380 0.47200 0.02200
C 	C 	0.49458 0.57405 0.42693 -0.08100
C 	C 	0.51299 0.55385 0.46370 -0.03900
H 	H 	0.54230 0.57040 0.47550 0.04500
H 	H 	0.43390 0.61090 0.43350 -0.07500
H 	H 	0.37520 0.58040 0.32400 0.26000
O 	O 	0.30316 0.11269 0.73999 -0.40800
O 	O 	0.27826 0.10028 0.63624 -0.40700
C 	C 	0.27886 0.08897 0.69444 0.35700
C 	C 	0.24657 0.04211 0.71182 -0.13100
C 	C 	0.21954 0.01261 0.66491 0.07500
H 	H 	0.22077 0.02203 0.62243 0.01700
C 	C 	0.19109 0.96986 0.68058 -0.16500
H 	H 	0.17277 0.95083 0.64883 0.09800
C 	C 	0.18918 0.95445 0.74278 0.12300
C 	C 	0.21582 0.98384 0.79063 -0.15900
H 	H 	0.21457 0.97453 0.83313 0.08900
C 	C 	0.24447 0.02759 0.77371 0.07100
H 	H 	0.26237 0.04713 0.80533 0.02200
C 	C 	0.16125 0.90738 0.76026 -0.08100
C 	C 	0.17966 0.88718 0.79703 -0.03900
H 	H 	0.20897 0.90373 0.80883 0.04500
H 	H 	0.10057 0.94423 0.76683 -0.07500
H 	H 	0.04187 0.91373 0.65733 0.26100
O 	O 	0.96982 0.44603 0.07333 -0.40700
O 	O 	0.94492 0.43362 0.96958 -0.40800
C 	C 	0.94552 0.42231 0.02778 0.35700
C 	C 	0.91323 0.37545 0.04516 -0.12700
C 	C 	0.88620 0.34595 0.99825 0.06900
H 	H 	0.88743 0.35537 0.95577 0.01800
C 	C 	0.85775 0.30320 0.01392 -0.15800
H 	H 	0.83943 0.28417 0.98217 0.09500
C 	C 	0.85584 0.28779 0.07612 0.12000
C 	C 	0.88248 0.31718 0.12397 -0.15600
H 	H 	0.88123 0.30787 0.16647 0.08800
C 	C 	0.91113 0.36093 0.10705 0.06900
H 	H 	0.92903 0.38047 0.13867 0.02300
C 	C 	0.82791 0.24072 0.09360 -0.07800
C 	C 	0.84632 0.22052 0.13037 -0.04100
H 	H 	0.87563 0.23707 0.14217 0.04500
H 	H 	0.76723 0.27757 0.10017 -0.07300
H 	H 	0.70853 0.24707 0.99067 0.25700
O 	O 	0.22064 0.85713 0.40666 -0.40800
O 	O 	0.23305 0.84464 0.30291 -0.40800
C 	C 	0.24436 0.85655 0.36111 0.35700
C 	C 	0.29122 0.87112 0.37849 -0.13200
C 	C 	0.32072 0.87359 0.33158 0.07700
H 	H 	0.31130 0.86540 0.28910 0.01600
C 	C 	0.36347 0.88789 0.34725 -0.16700
H 	H 	0.38250 0.88860 0.31550 0.09900
C 	C 	0.37888 0.90139 0.40945 0.12400
C 	C 	0.34949 0.89864 0.45730 -0.16000
H 	H 	0.35880 0.90670 0.49980 0.08900
C 	C 	0.30574 0.88354 0.44038 0.07300
H 	H 	0.28620 0.88190 0.47200 0.02200
C 	C 	0.42595 0.92053 0.42693 -0.08100
C 	C 	0.44615 0.95914 0.46370 -0.03900
H 	H 	0.42960 0.97190 0.47550 0.04500
H 	H 	0.38910 0.82300 0.43350 -0.07500
H 	H 	0.41960 0.79480 0.32400 0.26000
O 	O 	0.88731 0.19046 0.73999 -0.40800
O 	O 	0.89972 0.17797 0.63624 -0.40700
C 	C 	0.91103 0.18988 0.69444 0.35700
C 	C 	0.95789 0.20445 0.71182 -0.13100
C 	C 	0.98739 0.20692 0.66491 0.07500
H 	H 	0.97797 0.19873 0.62243 0.01600
C 	C 	0.03014 0.22122 0.68058 -0.16500
H 	H 	0.04917 0.22193 0.64883 0.09800
C 	C 	0.04555 0.23472 0.74278 0.12300
C 	C 	0.01616 0.23197 0.79063 -0.15900
H 	H 	0.02547 0.24003 0.83313 0.08900
C 	C 	0.97241 0.21687 0.77371 0.07100
H 	H 	0.95287 0.21523 0.80533 0.02200
C 	C 	0.09262 0.25386 0.76026 -0.08100
C 	C 	0.11282 0.29247 0.79703 -0.03900
H 	H 	0.09627 0.30523 0.80883 0.04500
H 	H 	0.05577 0.15633 0.76683 -0.07500
H 	H 	0.08627 0.12813 0.65733 0.26000
O 	O 	0.55397 0.52380 0.07333 -0.40800
O 	O 	0.56638 0.51131 0.96958 -0.40800
C 	C 	0.57769 0.52322 0.02778 0.35700
C 	C 	0.62455 0.53779 0.04516 -0.13000
C 	C 	0.65405 0.54026 0.99825 0.07400
H 	H 	0.64463 0.53207 0.95577 0.01700
C 	C 	0.69680 0.55456 0.01392 -0.16400
H 	H 	0.71583 0.55527 0.98217 0.09800
C 	C 	0.71221 0.56806 0.07612 0.12300
C 	C 	0.68282 0.56531 0.12397 -0.15900
H 	H 	0.69213 0.57337 0.16647 0.08900
C 	C 	0.63907 0.55021 0.10705 0.07200
H 	H 	0.61953 0.54857 0.13867 0.02200
C 	C 	0.75928 0.58720 0.09360 -0.08000
C 	C 	0.77948 0.62581 0.13037 -0.04000
H 	H 	0.76293 0.63857 0.14217 0.04500
H 	H 	0.72243 0.48967 0.10017 -0.07400
H 	H 	0.75293 0.46147 0.99067 0.25800
O 	O 	0.14287 0.36351 0.40666 -0.40800
O 	O 	0.15536 0.38841 0.30291 -0.40800
C 	C 	0.14345 0.38781 0.36111 0.35700
C 	C 	0.12888 0.42010 0.37849 -0.13200
C 	C 	0.12641 0.44713 0.33158 0.07700
H 	H 	0.13460 0.44590 0.28910 0.01600
C 	C 	0.11211 0.47558 0.34725 -0.16700
H 	H 	0.11140 0.49390 0.31550 0.09900
C 	C 	0.09861 0.47749 0.40945 0.12400
C 	C 	0.10136 0.45085 0.45730 -0.16000
H 	H 	0.09330 0.45210 0.49980 0.08900
C 	C 	0.11646 0.42220 0.44038 0.07300
H 	H 	0.11810 0.40430 0.47200 0.02200
C 	C 	0.07947 0.50542 0.42693 -0.08100
C 	C 	0.04086 0.48701 0.46370 -0.03900
H 	H 	0.02810 0.45770 0.47550 0.04500
H 	H 	0.17700 0.56610 0.43350 -0.07500
H 	H 	0.20520 0.62480 0.32400 0.26000
O 	O 	0.80954 0.69684 0.73999 -0.40800
O 	O 	0.82203 0.72174 0.63624 -0.40800
C 	C 	0.81012 0.72114 0.69444 0.35700
C 	C 	0.79555 0.75343 0.71182 -0.13200
C 	C 	0.79308 0.78046 0.66491 0.07700
H 	H 	0.80127 0.77923 0.62243 0.01600
C 	C 	0.77878 0.80891 0.68058 -0.16700
H 	H 	0.77807 0.82723 0.64883 0.09900
C 	C 	0.76528 0.81082 0.74278 0.12400
C 	C 	0.76803 0.78418 0.79063 -0.16000
H 	H 	0.75997 0.78543 0.83313 0.08900
C 	C 	0.78313 0.75553 0.77371 0.07300
H 	H 	0.78477 0.73763 0.80533 0.02200
C 	C 	0.74614 0.83875 0.76026 -0.08100
C 	C 	0.70753 0.82034 0.79703 -0.03900
H 	H 	0.69477 0.79103 0.80883 0.04500
H 	H 	0.84367 0.89943 0.76683 -0.07500
H 	H 	0.87187 0.95813 0.65733 0.26000
O 	O 	0.47620 0.03018 0.07333 -0.40800
O 	O 	0.48869 0.05508 0.96958 -0.40800
C 	C 	0.47678 0.05448 0.02778 0.35700
C 	C 	0.46221 0.08677 0.04516 -0.12900
C 	C 	0.45974 0.11380 0.99825 0.07200
H 	H 	0.46793 0.11257 0.95577 0.01800
C 	C 	0.44544 0.14225 0.01392 -0.16200
H 	H 	0.44473 0.16057 0.98217 0.09700
C 	C 	0.43194 0.14416 0.07612 0.12100
C 	C 	0.43469 0.11752 0.12397 -0.15800
H 	H 	0.42663 0.11877 0.16647 0.08800
C 	C 	0.44979 0.08887 0.10705 0.07000
H 	H 	0.45143 0.07097 0.13867 0.02300
C 	C 	0.41280 0.17209 0.09360 -0.08000
C 	C 	0.37419 0.15368 0.13037 -0.04000
H 	H 	0.36143 0.12437 0.14217 0.04500
H 	H 	0.51033 0.23277 0.10017 -0.07400
H 	H 	0.53853 0.29147 0.99067 0.25800
O 	O 	0.77936 0.63649 0.59334 -0.40800
O 	O 	0.76695 0.61159 0.69709 -0.40800
C 	C 	0.75564 0.61219 0.63889 0.35700
C 	C 	0.70878 0.57990 0.62151 -0.13200
C 	C 	0.67928 0.55287 0.66842 0.07700
H 	H 	0.68870 0.55410 0.71090 0.01600
C 	C 	0.63653 0.52442 0.65275 -0.16700
H 	H 	0.61750 0.50610 0.68450 0.09900
C 	C 	0.62112 0.52251 0.59055 0.12400
C 	C 	0.65051 0.54915 0.54270 -0.16000
H 	H 	0.64120 0.54790 0.50020 0.08900
C 	C 	0.69426 0.57780 0.55962 0.07300
H 	H 	0.71380 0.59570 0.52800 0.02200
C 	C 	0.57405 0.49458 0.57307 -0.08100
C 	C 	0.55385 0.51299 0.53630 -0.03900
H 	H 	0.57040 0.54230 0.52450 0.04500
H 	H 	0.61090 0.43390 0.56650 -0.07500
H 	H 	0.58040 0.37520 0.67600 0.26000
O 	O 	0.44603 0.96982 0.92667 -0.40700
O 	O 	0.43362 0.94492 0.03042 -0.40800
C 	C 	0.42231 0.94552 0.97222 0.35700
C 	C 	0.37545 0.91323 0.95484 -0.12700
C 	C 	0.34595 0.88620 0.00175 0.06900
H 	H 	0.35537 0.88743 0.04423 0.01800
C 	C 	0.30320 0.85775 0.98608 -0.15800
H 	H 	0.28417 0.83943 0.01783 0.09500
C 	C 	0.28779 0.85584 0.92388 0.12000
C 	C 	0.31718 0.88248 0.87603 -0.15600
H 	H 	0.30787 0.88123 0.83353 0.08800
C 	C 	0.36093 0.91113 0.89295 0.06900
H 	H 	0.38047 0.92903 0.86133 0.02300
C 	C 	0.24072 0.82791 0.90640 -0.07800
C 	C 	0.22052 0.84632 0.86963 -0.04100
H 	H 	0.23707 0.87563 0.85783 0.04500
H 	H 	0.27757 0.76723 0.89983 -0.07300
H 	H 	0.24707 0.70853 0.00933 0.25700
O 	O 	0.11269 0.30316 0.26001 -0.40800
O 	O 	0.10028 0.27826 0.36376 -0.40700
C 	C 	0.08897 0.27886 0.30556 0.35700
C 	C 	0.04211 0.24657 0.28818 -0.13100
C 	C 	0.01261 0.21954 0.33509 0.07500
H 	H 	0.02203 0.22077 0.37757 0.01700
C 	C 	0.96986 0.19109 0.31942 -0.16500
H 	H 	0.95083 0.17277 0.35117 0.09800
C 	C 	0.95445 0.18918 0.25722 0.12300
C 	C 	0.98384 0.21582 0.20937 -0.15900
H 	H 	0.97453 0.21457 0.16687 0.08900
C 	C 	0.02759 0.24447 0.22629 0.07100
H 	H 	0.04713 0.26237 0.19467 0.02200
C 	C 	0.90738 0.16125 0.23974 -0.08100
C 	C 	0.88718 0.17966 0.20297 -0.03900
H 	H 	0.90373 0.20897 0.19117 0.04500
H 	H 	0.94423 0.10057 0.23317 -0.07500
H 	H 	0.91373 0.04187 0.34267 0.26100
O 	O 	0.85713 0.22064 0.59334 -0.40800
O 	O 	0.84464 0.23305 0.69709 -0.40800
C 	C 	0.85655 0.24436 0.63889 0.35700
C 	C 	0.87112 0.29122 0.62151 -0.13200
C 	C 	0.87359 0.32072 0.66842 0.07700
H 	H 	0.86540 0.31130 0.71090 0.01600
C 	C 	0.88789 0.36347 0.65275 -0.16700
H 	H 	0.88860 0.38250 0.68450 0.09900
C 	C 	0.90139 0.37888 0.59055 0.12400
C 	C 	0.89864 0.34949 0.54270 -0.16000
H 	H 	0.90670 0.35880 0.50020 0.08900
C 	C 	0.88354 0.30574 0.55962 0.07300
H 	H 	0.88190 0.28620 0.52800 0.02200
C 	C 	0.92053 0.42595 0.57307 -0.08100
C 	C 	0.95914 0.44615 0.53630 -0.03900
H 	H 	0.97190 0.42960 0.52450 0.04500
H 	H 	0.82300 0.38910 0.56650 -0.07500
H 	H 	0.79480 0.41960 0.67600 0.26000
O 	O 	0.52380 0.55397 0.92667 -0.40800
O 	O 	0.51131 0.56638 0.03042 -0.40800
C 	C 	0.52322 0.57769 0.97222 0.35700
C 	C 	0.53779 0.62455 0.95484 -0.13000
C 	C 	0.54026 0.65405 0.00175 0.07400
H 	H 	0.53207 0.64463 0.04423 0.01700
C 	C 	0.55456 0.69680 0.98608 -0.16400
H 	H 	0.55527 0.71583 0.01783 0.09800
C 	C 	0.56806 0.71221 0.92388 0.12300
C 	C 	0.56531 0.68282 0.87603 -0.15900
H 	H 	0.57337 0.69213 0.83353 0.08900
C 	C 	0.55021 0.63907 0.89295 0.07200
H 	H 	0.54857 0.61953 0.86133 0.02200
C 	C 	0.58720 0.75928 0.90640 -0.08000
C 	C 	0.62581 0.77948 0.86963 -0.04000
H 	H 	0.63857 0.76293 0.85783 0.04500
H 	H 	0.48967 0.72243 0.89983 -0.07400
H 	H 	0.46147 0.75293 0.00933 0.25800
O 	O 	0.19046 0.88731 0.26001 -0.40800
O 	O 	0.17797 0.89972 0.36376 -0.40700
C 	C 	0.18988 0.91103 0.30556 0.35700
C 	C 	0.20445 0.95789 0.28818 -0.13100
C 	C 	0.20692 0.98739 0.33509 0.07500
H 	H 	0.19873 0.97797 0.37757 0.01600
C 	C 	0.22122 0.03014 0.31942 -0.16500
H 	H 	0.22193 0.04917 0.35117 0.09800
C 	C 	0.23472 0.04555 0.25722 0.12300
C 	C 	0.23197 0.01616 0.20937 -0.15900
H 	H 	0.24003 0.02547 0.16687 0.08900
C 	C 	0.21687 0.97241 0.22629 0.07100
H 	H 	0.21523 0.95287 0.19467 0.02200
C 	C 	0.25386 0.09262 0.23974 -0.08100
C 	C 	0.29247 0.11282 0.20297 -0.03900
H 	H 	0.30523 0.09627 0.19117 0.04500
H 	H 	0.15633 0.05577 0.23317 -0.07500
H 	H 	0.12813 0.08627 0.34267 0.26000
O 	O 	0.36351 0.14287 0.59334 -0.40800
O 	O 	0.38841 0.15536 0.69709 -0.40800
C 	C 	0.38781 0.14345 0.63889 0.35700
C 	C 	0.42010 0.12888 0.62151 -0.13200
C 	C 	0.44713 0.12641 0.66842 0.07700
H 	H 	0.44590 0.13460 0.71090 0.01600
C 	C 	0.47558 0.11211 0.65275 -0.16700
H 	H 	0.49390 0.11140 0.68450 0.09900
C 	C 	0.47749 0.09861 0.59055 0.12400
C 	C 	0.45085 0.10136 0.54270 -0.16000
H 	H 	0.45210 0.09330 0.50020 0.08900
C 	C 	0.42220 0.11646 0.55962 0.07300
H 	H 	0.40430 0.11810 0.52800 0.02200
C 	C 	0.50542 0.07947 0.57307 -0.08100
C 	C 	0.48701 0.04086 0.53630 -0.03900
H 	H 	0.45770 0.02810 0.52450 0.04500
H 	H 	0.56610 0.17700 0.56650 -0.07500
H 	H 	0.62480 0.20520 0.67600 0.26000
O 	O 	0.03018 0.47620 0.92667 -0.40800
O 	O 	0.05508 0.48869 0.03042 -0.40800
C 	C 	0.05448 0.47678 0.97222 0.35700
C 	C 	0.08677 0.46221 0.95484 -0.12900
C 	C 	0.11380 0.45974 0.00175 0.07200
H 	H 	0.11257 0.46793 0.04423 0.01800
C 	C 	0.14225 0.44544 0.98608 -0.16200
H 	H 	0.16057 0.44473 0.01783 0.09700
C 	C 	0.14416 0.43194 0.92388 0.12100
C 	C 	0.11752 0.43469 0.87603 -0.15800
H 	H 	0.11877 0.42663 0.83353 0.08800
C 	C 	0.08887 0.44979 0.89295 0.07000
H 	H 	0.07097 0.45143 0.86133 0.02300
C 	C 	0.17209 0.41280 0.90640 -0.08000
C 	C 	0.15368 0.37419 0.86963 -0.04000
H 	H 	0.12437 0.36143 0.85783 0.04500
H 	H 	0.23277 0.51033 0.89983 -0.07400
H 	H 	0.29147 0.53853 0.00933 0.25800
O 	O 	0.69684 0.80954 0.26001 -0.40800
O 	O 	0.72174 0.82203 0.36376 -0.40800
C 	C 	0.72114 0.81012 0.30556 0.35700
C 	C 	0.75343 0.79555 0.28818 -0.13200
C 	C 	0.78046 0.79308 0.33509 0.07700
H 	H 	0.77923 0.80127 0.37757 0.01600
C 	C 	0.80891 0.77878 0.31942 -0.16700
H 	H 	0.82723 0.77807 0.35117 0.09900
C 	C 	0.81082 0.76528 0.25722 0.12400
C 	C 	0.78418 0.76803 0.20937 -0.16000
H 	H 	0.78543 0.75997 0.16687 0.08900
C 	C 	0.75553 0.78313 0.22629 0.07300
H 	H 	0.73763 0.78477 0.19467 0.02200
C 	C 	0.83875 0.74614 0.23974 -0.08100
C 	C 	0.82034 0.70753 0.20297 -0.03900
H 	H 	0.79103 0.69477 0.19117 0.04500
H 	H 	0.89943 0.84367 0.23317 -0.07500
H 	H 	0.95813 0.87187 0.34267 0.26000
O 	O 	0.36351 0.22064 0.59334 -0.40800
O 	O 	0.38841 0.23305 0.69709 -0.40800
C 	C 	0.38781 0.24436 0.63889 0.35700
C 	C 	0.42010 0.29122 0.62151 -0.13200
C 	C 	0.44713 0.32072 0.66842 0.07700
H 	H 	0.44590 0.31130 0.71090 0.01600
C 	C 	0.47558 0.36347 0.65275 -0.16700
H 	H 	0.49390 0.38250 0.68450 0.09900
C 	C 	0.47749 0.37888 0.59055 0.12400
C 	C 	0.45085 0.34949 0.54270 -0.16000
H 	H 	0.45210 0.35880 0.50020 0.08900
C 	C 	0.42220 0.30574 0.55962 0.07300
H 	H 	0.40430 0.28620 0.52800 0.02200
C 	C 	0.50542 0.42595 0.57307 -0.08100
C 	C 	0.48701 0.44615 0.53630 -0.03900
H 	H 	0.45770 0.42960 0.52450 0.04500
H 	H 	0.56610 0.38910 0.56650 -0.07500
H 	H 	0.62480 0.41960 0.67600 0.26000
O 	O 	0.03018 0.55397 0.92667 -0.40700
O 	O 	0.05508 0.56638 0.03042 -0.40800
C 	C 	0.05448 0.57769 0.97222 0.35700
C 	C 	0.08677 0.62455 0.95484 -0.12700
C 	C 	0.11380 0.65405 0.00175 0.06900
H 	H 	0.11257 0.64463 0.04423 0.01800
C 	C 	0.14225 0.69680 0.98608 -0.15800
H 	H 	0.16057 0.71583 0.01783 0.09500
C 	C 	0.14416 0.71221 0.92388 0.12000
C 	C 	0.11752 0.68282 0.87603 -0.15600
H 	H 	0.11877 0.69213 0.83353 0.08800
C 	C 	0.08887 0.63907 0.89295 0.06900
H 	H 	0.07097 0.61953 0.86133 0.02300
C 	C 	0.17209 0.75928 0.90640 -0.07800
C 	C 	0.15368 0.77948 0.86963 -0.04100
H 	H 	0.12437 0.76293 0.85783 0.04500
H 	H 	0.23277 0.72243 0.89983 -0.07300
H 	H 	0.29147 0.75293 0.00933 0.25700
O 	O 	0.69684 0.88731 0.26001 -0.40800
O 	O 	0.72174 0.89972 0.36376 -0.40700
C 	C 	0.72114 0.91103 0.30556 0.35700
C 	C 	0.75343 0.95789 0.28818 -0.13100
C 	C 	0.78046 0.98739 0.33509 0.07500
H 	H 	0.77923 0.97797 0.37757 0.01700
C 	C 	0.80891 0.03014 0.31942 -0.16500
H 	H 	0.82723 0.04917 0.35117 0.09800
C 	C 	0.81082 0.04555 0.25722 0.12300
C 	C 	0.78418 0.01616 0.20937 -0.15900
H 	H 	0.78543 0.02547 0.16687 0.08900
C 	C 	0.75553 0.97241 0.22629 0.07100
H 	H 	0.73763 0.95287 0.19467 0.02200
C 	C 	0.83875 0.09262 0.23974 -0.08100
C 	C 	0.82034 0.11282 0.20297 -0.03900
H 	H 	0.79103 0.09627 0.19117 0.04500
H 	H 	0.89943 0.05577 0.23317 -0.07500
H 	H 	0.95813 0.08627 0.34267 0.26100
O 	O 	0.77936 0.14287 0.59334 -0.40800
O 	O 	0.76695 0.15536 0.69709 -0.40800
C 	C 	0.75564 0.14345 0.63889 0.35700
C 	C 	0.70878 0.12888 0.62151 -0.13200
C 	C 	0.67928 0.12641 0.66842 0.07700
H 	H 	0.68870 0.13460 0.71090 0.01600
C 	C 	0.63653 0.11211 0.65275 -0.16700
H 	H 	0.61750 0.11140 0.68450 0.09900
C 	C 	0.62112 0.09861 0.59055 0.12400
C 	C 	0.65051 0.10136 0.54270 -0.16000
H 	H 	0.64120 0.09330 0.50020 0.08900
C 	C 	0.69426 0.11646 0.55962 0.07300
H 	H 	0.71380 0.11810 0.52800 0.02200
C 	C 	0.57405 0.07947 0.57307 -0.08100
C 	C 	0.55385 0.04086 0.53630 -0.03900
H 	H 	0.57040 0.02810 0.52450 0.04500
H 	H 	0.61090 0.17700 0.56650 -0.07500
H 	H 	0.58040 0.20520 0.67600 0.26000
O 	O 	0.44603 0.47620 0.92667 -0.40800
O 	O 	0.43362 0.48869 0.03042 -0.40800
C 	C 	0.42231 0.47678 0.97222 0.35700
C 	C 	0.37545 0.46221 0.95484 -0.13000
C 	C 	0.34595 0.45974 0.00175 0.07400
H 	H 	0.35537 0.46793 0.04423 0.01700
C 	C 	0.30320 0.44544 0.98608 -0.16400
H 	H 	0.28417 0.44473 0.01783 0.09800
C 	C 	0.28779 0.43194 0.92388 0.12300
C 	C 	0.31718 0.43469 0.87603 -0.15900
H 	H 	0.30787 0.42663 0.83353 0.08900
C 	C 	0.36093 0.44979 0.89295 0.07200
H 	H 	0.38047 0.45143 0.86133 0.02200
C 	C 	0.24072 0.41280 0.90640 -0.08000
C 	C 	0.22052 0.37419 0.86963 -0.04000
H 	H 	0.23707 0.36143 0.85783 0.04500
H 	H 	0.27757 0.51033 0.89983 -0.07400
H 	H 	0.24707 0.53853 0.00933 0.25800
O 	O 	0.11269 0.80954 0.26001 -0.40800
O 	O 	0.10028 0.82203 0.36376 -0.40700
C 	C 	0.08897 0.81012 0.30556 0.35700
C 	C 	0.04211 0.79555 0.28818 -0.13100
C 	C 	0.01261 0.79308 0.33509 0.07500
H 	H 	0.02203 0.80127 0.37757 0.01600
C 	C 	0.96986 0.77878 0.31942 -0.16500
H 	H 	0.95083 0.77807 0.35117 0.09800
C 	C 	0.95445 0.76528 0.25722 0.12300
C 	C 	0.98384 0.76803 0.20937 -0.15900
H 	H 	0.97453 0.75997 0.16687 0.08900
C 	C 	0.02759 0.78313 0.22629 0.07100
H 	H 	0.04713 0.78477 0.19467 0.02200
C 	C 	0.90738 0.74614 0.23974 -0.08100
C 	C 	0.88718 0.70753 0.20297 -0.03900
H 	H 	0.90373 0.69477 0.19117 0.04500
H 	H 	0.94423 0.84367 0.23317 -0.07500
H 	H 	0.91373 0.87187 0.34267 0.26000
O 	O 	0.85713 0.63649 0.59334 -0.40800
O 	O 	0.84464 0.61159 0.69709 -0.40800
C 	C 	0.85655 0.61219 0.63889 0.35700
C 	C 	0.87112 0.57990 0.62151 -0.13200
C 	C 	0.87359 0.55287 0.66842 0.07700
H 	H 	0.86540 0.55410 0.71090 0.01600
C 	C 	0.88789 0.52442 0.65275 -0.16700
H 	H 	0.88860 0.50610 0.68450 0.09900
C 	C 	0.90139 0.52251 0.59055 0.12400
C 	C 	0.89864 0.54915 0.54270 -0.16000
H 	H 	0.90670 0.54790 0.50020 0.08900
C 	C 	0.88354 0.57780 0.55962 0.07300
H 	H 	0.88190 0.59570 0.52800 0.02200
C 	C 	0.92053 0.49458 0.57307 -0.08100
C 	C 	0.95914 0.51299 0.53630 -0.03900
H 	H 	0.97190 0.54230 0.52450 0.04500
H 	H 	0.82300 0.43390 0.56650 -0.07500
H 	H 	0.79480 0.37520 0.67600 0.26000
O 	O 	0.52380 0.96982 0.92667 -0.40800
O 	O 	0.51131 0.94492 0.03042 -0.40800
C 	C 	0.52322 0.94552 0.97222 0.35700
C 	C 	0.53779 0.91323 0.95484 -0.12900
C 	C 	0.54026 0.88620 0.00175 0.07200
H 	H 	0.53207 0.88743 0.04423 0.01800
C 	C 	0.55456 0.85775 0.98608 -0.16200
H 	H 	0.55527 0.83943 0.01783 0.09700
C 	C 	0.56806 0.85584 0.92388 0.12100
C 	C 	0.56531 0.88248 0.87603 -0.15800
H 	H 	0.57337 0.88123 0.83353 0.08800
C 	C 	0.55021 0.91113 0.89295 0.07000
H 	H 	0.54857 0.92903 0.86133 0.02300
C 	C 	0.58720 0.82791 0.90640 -0.08000
C 	C 	0.62581 0.84632 0.86963 -0.04000
H 	H 	0.63857 0.87563 0.85783 0.04500
H 	H 	0.48967 0.76723 0.89983 -0.07400
H 	H 	0.46147 0.70853 0.00933 0.25800
O 	O 	0.19046 0.30316 0.26001 -0.40800
O 	O 	0.17797 0.27826 0.36376 -0.40800
C 	C 	0.18988 0.27886 0.30556 0.35700
C 	C 	0.20445 0.24657 0.28818 -0.13200
C 	C 	0.20692 0.21954 0.33509 0.07700
H 	H 	0.19873 0.22077 0.37757 0.01600
C 	C 	0.22122 0.19109 0.31942 -0.16700
H 	H 	0.22193 0.17277 0.35117 0.09900
C 	C 	0.23472 0.18918 0.25722 0.12400
C 	C 	0.23197 0.21582 0.20937 -0.16000
H 	H 	0.24003 0.21457 0.16687 0.08900
C 	C 	0.21687 0.24447 0.22629 0.07300
H 	H 	0.21523 0.26237 0.19467 0.02200
C 	C 	0.25386 0.16125 0.23974 -0.08100
C 	C 	0.29247 0.17966 0.20297 -0.03900
H 	H 	0.30523 0.20897 0.19117 0.04500
H 	H 	0.15633 0.10057 0.23317 -0.07500
H 	H 	0.12813 0.04187 0.34267 0.26000
O 	O 	0.22064 0.36351 0.40666 -0.40800
O 	O 	0.23305 0.38841 0.30291 -0.40800
C 	C 	0.24436 0.38781 0.36111 0.35700
C 	C 	0.29122 0.42010 0.37849 -0.13200
C 	C 	0.32072 0.44713 0.33158 0.07700
H 	H 	0.31130 0.44590 0.28910 0.01600
C 	C 	0.36347 0.47558 0.34725 -0.16700
H 	H 	0.38250 0.49390 0.31550 0.09900
C 	C 	0.37888 0.47749 0.40945 0.12400
C 	C 	0.34949 0.45085 0.45730 -0.16000
H 	H 	0.35880 0.45210 0.49980 0.08900
C 	C 	0.30574 0.42220 0.44038 0.07300
H 	H 	0.28620 0.40430 0.47200 0.02200
C 	C 	0.42595 0.50542 0.42693 -0.08100
C 	C 	0.44615 0.48701 0.46370 -0.03900
H 	H 	0.42960 0.45770 0.47550 0.04500
H 	H 	0.38910 0.56610 0.43350 -0.07500
H 	H 	0.41960 0.62480 0.32400 0.26000
O 	O 	0.88731 0.69684 0.73999 -0.40800
O 	O 	0.89972 0.72174 0.63624 -0.40700
C 	C 	0.91103 0.72114 0.69444 0.35700
C 	C 	0.95789 0.75343 0.71182 -0.13100
C 	C 	0.98739 0.78046 0.66491 0.07500
H 	H 	0.97797 0.77923 0.62243 0.01700
C 	C 	0.03014 0.80891 0.68058 -0.16500
H 	H 	0.04917 0.82723 0.64883 0.09800
C 	C 	0.04555 0.81082 0.74278 0.12300
C 	C 	0.01616 0.78418 0.79063 -0.15900
H 	H 	0.02547 0.78543 0.83313 0.08900
C 	C 	0.97241 0.75553 0.77371 0.07100
H 	H 	0.95287 0.73763 0.80533 0.02200
C 	C 	0.09262 0.83875 0.76026 -0.08100
C 	C 	0.11282 0.82034 0.79703 -0.03900
H 	H 	0.09627 0.79103 0.80883 0.04500
H 	H 	0.05577 0.89943 0.76683 -0.07500
H 	H 	0.08627 0.95813 0.65733 0.26100
O 	O 	0.55397 0.03018 0.07333 -0.40700
O 	O 	0.56638 0.05508 0.96958 -0.40800
C 	C 	0.57769 0.05448 0.02778 0.35700
C 	C 	0.62455 0.08677 0.04516 -0.12700
C 	C 	0.65405 0.11380 0.99825 0.06900
H 	H 	0.64463 0.11257 0.95577 0.01800
C 	C 	0.69680 0.14225 0.01392 -0.15800
H 	H 	0.71583 0.16057 0.98217 0.09500
C 	C 	0.71221 0.14416 0.07612 0.12000
C 	C 	0.68282 0.11752 0.12397 -0.15600
H 	H 	0.69213 0.11877 0.16647 0.08800
C 	C 	0.63907 0.08887 0.10705 0.06900
H 	H 	0.61953 0.07097 0.13867 0.02300
C 	C 	0.75928 0.17209 0.09360 -0.07800
C 	C 	0.77948 0.15368 0.13037 -0.04100
H 	H 	0.76293 0.12437 0.14217 0.04500
H 	H 	0.72243 0.23277 0.10017 -0.07300
H 	H 	0.75293 0.29147 0.99067 0.25700
O 	O 	0.14287 0.77936 0.40666 -0.40800
O 	O 	0.15536 0.76695 0.30291 -0.40800
C 	C 	0.14345 0.75564 0.36111 0.35700
C 	C 	0.12888 0.70878 0.37849 -0.13200
C 	C 	0.12641 0.67928 0.33158 0.07700
H 	H 	0.13460 0.68870 0.28910 0.01600
C 	C 	0.11211 0.63653 0.34725 -0.16700
H 	H 	0.11140 0.61750 0.31550 0.09900
C 	C 	0.09861 0.62112 0.40945 0.12400
C 	C 	0.10136 0.65051 0.45730 -0.16000
H 	H 	0.09330 0.64120 0.49980 0.08900
C 	C 	0.11646 0.69426 0.44038 0.07300
H 	H 	0.11810 0.71380 0.47200 0.02200
C 	C 	0.07947 0.57405 0.42693 -0.08100
C 	C 	0.04086 0.55385 0.46370 -0.03900
H 	H 	0.02810 0.57040 0.47550 0.04500
H 	H 	0.17700 0.61090 0.43350 -0.07500
H 	H 	0.20520 0.58040 0.32400 0.26000
O 	O 	0.80954 0.11269 0.73999 -0.40800
O 	O 	0.82203 0.10028 0.63624 -0.40700
C 	C 	0.81012 0.08897 0.69444 0.35700
C 	C 	0.79555 0.04211 0.71182 -0.13100
C 	C 	0.79308 0.01261 0.66491 0.07500
H 	H 	0.80127 0.02203 0.62243 0.01600
C 	C 	0.77878 0.96986 0.68058 -0.16500
H 	H 	0.77807 0.95083 0.64883 0.09800
C 	C 	0.76528 0.95445 0.74278 0.12300
C 	C 	0.76803 0.98384 0.79063 -0.15900
H 	H 	0.75997 0.97453 0.83313 0.08900
C 	C 	0.78313 0.02759 0.77371 0.07100
H 	H 	0.78477 0.04713 0.80533 0.02200
C 	C 	0.74614 0.90738 0.76026 -0.08100
C 	C 	0.70753 0.88718 0.79703 -0.03900
H 	H 	0.69477 0.90373 0.80883 0.04500
H 	H 	0.84367 0.94423 0.76683 -0.07500
H 	H 	0.87187 0.91373 0.65733 0.26000
O 	O 	0.47620 0.44603 0.07333 -0.40800
O 	O 	0.48869 0.43362 0.96958 -0.40800
C 	C 	0.47678 0.42231 0.02778 0.35700
C 	C 	0.46221 0.37545 0.04516 -0.13000
C 	C 	0.45974 0.34595 0.99825 0.07400
H 	H 	0.46793 0.35537 0.95577 0.01700
C 	C 	0.44544 0.30320 0.01392 -0.16400
H 	H 	0.44473 0.28417 0.98217 0.09800
C 	C 	0.43194 0.28779 0.07612 0.12300
C 	C 	0.43469 0.31718 0.12397 -0.15900
H 	H 	0.42663 0.30787 0.16647 0.08900
C 	C 	0.44979 0.36093 0.10705 0.07200
H 	H 	0.45143 0.38047 0.13867 0.02200
C 	C 	0.41280 0.24072 0.09360 -0.08000
C 	C 	0.37419 0.22052 0.13037 -0.04000
H 	H 	0.36143 0.23707 0.14217 0.04500
H 	H 	0.51033 0.27757 0.10017 -0.07400
H 	H 	0.53853 0.24707 0.99067 0.25800
O 	O 	0.63649 0.85713 0.40666 -0.40800
O 	O 	0.61159 0.84464 0.30291 -0.40800
C 	C 	0.61219 0.85655 0.36111 0.35700
C 	C 	0.57990 0.87112 0.37849 -0.13200
C 	C 	0.55287 0.87359 0.33158 0.07700
H 	H 	0.55410 0.86540 0.28910 0.01600
C 	C 	0.52442 0.88789 0.34725 -0.16700
H 	H 	0.50610 0.88860 0.31550 0.09900
C 	C 	0.52251 0.90139 0.40945 0.12400
C 	C 	0.54915 0.89864 0.45730 -0.16000
H 	H 	0.54790 0.90670 0.49980 0.08900
C 	C 	0.57780 0.88354 0.44038 0.07300
H 	H 	0.59570 0.88190 0.47200 0.02200
C 	C 	0.49458 0.92053 0.42693 -0.08100
C 	C 	0.51299 0.95914 0.46370 -0.03900
H 	H 	0.54230 0.97190 0.47550 0.04500
H 	H 	0.43390 0.82300 0.43350 -0.07500
H 	H 	0.37520 0.79480 0.32400 0.26000
O 	O 	0.30316 0.19046 0.73999 -0.40800
O 	O 	0.27826 0.17797 0.63624 -0.40800
C 	C 	0.27886 0.18988 0.69444 0.35700
C 	C 	0.24657 0.20445 0.71182 -0.13200
C 	C 	0.21954 0.20692 0.66491 0.07700
H 	H 	0.22077 0.19873 0.62243 0.01600
C 	C 	0.19109 0.22122 0.68058 -0.16700
H 	H 	0.17277 0.22193 0.64883 0.09900
C 	C 	0.18918 0.23472 0.74278 0.12400
C 	C 	0.21582 0.23197 0.79063 -0.16000
H 	H 	0.21457 0.24003 0.83313 0.08900
C 	C 	0.24447 0.21687 0.77371 0.07300
H 	H 	0.26237 0.21523 0.80533 0.02200
C 	C 	0.16125 0.25386 0.76026 -0.08100
C 	C 	0.17966 0.29247 0.79703 -0.03900
H 	H 	0.20897 0.30523 0.80883 0.04500
H 	H 	0.10057 0.15633 0.76683 -0.07500
H 	H 	0.04187 0.12813 0.65733 0.26000
O 	O 	0.96982 0.52380 0.07333 -0.40800
O 	O 	0.94492 0.51131 0.96958 -0.40800
C 	C 	0.94552 0.52322 0.02778 0.35700
C 	C 	0.91323 0.53779 0.04516 -0.12900
C 	C 	0.88620 0.54026 0.99825 0.07200
H 	H 	0.88743 0.53207 0.95577 0.01800
C 	C 	0.85775 0.55456 0.01392 -0.16200
H 	H 	0.83943 0.55527 0.98217 0.09700
C 	C 	0.85584 0.56806 0.07612 0.12100
C 	C 	0.88248 0.56531 0.12397 -0.15800
H 	H 	0.88123 0.57337 0.16647 0.08800
C 	C 	0.91113 0.55021 0.10705 0.07000
H 	H 	0.92903 0.54857 0.13867 0.02300
C 	C 	0.82791 0.58720 0.09360 -0.08000
C 	C 	0.84632 0.62581 0.13037 -0.04000
H 	H 	0.87563 0.63857 0.14217 0.04500
H 	H 	0.76723 0.48967 0.10017 -0.07400
H 	H 	0.70853 0.46147 0.99067 0.25800
Cu	Cu	0.68089 0.84045 0.39285 0.90300
Cu	Cu	0.34756 0.17378 0.72618 0.90300
Cu	Cu	0.01422 0.50711 0.05952 0.90200
Cu	Cu	0.15955 0.84045 0.39285 0.90300
Cu	Cu	0.82622 0.17378 0.72618 0.90300
Cu	Cu	0.49289 0.50711 0.05952 0.90300
Cu	Cu	0.15955 0.31911 0.39285 0.90300
Cu	Cu	0.82622 0.65244 0.72618 0.90300
Cu	Cu	0.49289 0.98578 0.05952 0.90200
Cu	Cu	0.84045 0.68089 0.60715 0.90300
Cu	Cu	0.50711 0.01422 0.94048 0.90200
Cu	Cu	0.17378 0.34756 0.27382 0.90300
Cu	Cu	0.84045 0.15955 0.60715 0.90300
Cu	Cu	0.50711 0.49289 0.94048 0.90300
Cu	Cu	0.17378 0.82622 0.27382 0.90300
Cu	Cu	0.31911 0.15955 0.60715 0.90300
Cu	Cu	0.98578 0.49289 0.94048 0.90200
Cu	Cu	0.65244 0.82622 0.27382 0.90300
O 	O 	0.43233 0.56767 0.37020 -0.28800
C 	C 	0.48964 0.51036 0.48340 0.00400
C 	C 	0.45080 0.54920 0.40910 0.15900
C 	C 	0.41274 0.58726 0.40650 0.35900
C 	C 	0.39544 0.60456 0.35030 -0.76900
H 	H 	0.38100 0.61900 0.36840 0.24800
O 	O 	0.09900 0.90100 0.70353 -0.28800
C 	C 	0.15631 0.84369 0.81673 0.00400
C 	C 	0.11747 0.88253 0.74243 0.15800
C 	C 	0.07941 0.92059 0.73983 0.35800
C 	C 	0.06211 0.93789 0.68363 -0.76900
H 	H 	0.04767 0.95233 0.70173 0.24800
O 	O 	0.76566 0.23434 0.03687 -0.28600
C 	C 	0.82297 0.17703 0.15007 0.00600
C 	C 	0.78413 0.21587 0.07577 0.15700
C 	C 	0.74607 0.25393 0.07317 0.35300
C 	C 	0.72877 0.27123 0.01697 -0.75800
H 	H 	0.71433 0.28567 0.03507 0.24500
O 	O 	0.43233 0.86466 0.37020 -0.28800
C 	C 	0.48964 0.97928 0.48340 0.00400
C 	C 	0.45080 0.90160 0.40910 0.15900
C 	C 	0.41274 0.82548 0.40650 0.35900
C 	C 	0.39544 0.79088 0.35030 -0.76900
H 	H 	0.38100 0.76200 0.36840 0.24800
O 	O 	0.09900 0.19799 0.70353 -0.28800
C 	C 	0.15631 0.31261 0.81673 0.00400
C 	C 	0.11747 0.23493 0.74243 0.15800
C 	C 	0.07941 0.15881 0.73983 0.35800
C 	C 	0.06211 0.12421 0.68363 -0.76900
H 	H 	0.04767 0.09533 0.70173 0.24800
O 	O 	0.76566 0.53133 0.03687 -0.28700
C 	C 	0.82297 0.64595 0.15007 0.00500
C 	C 	0.78413 0.56827 0.07577 0.15800
C 	C 	0.74607 0.49215 0.07317 0.35500
C 	C 	0.72877 0.45755 0.01697 -0.76200
H 	H 	0.71433 0.42867 0.03507 0.24600
O 	O 	0.13534 0.56767 0.37020 -0.28800
C 	C 	0.02072 0.51036 0.48340 0.00400
C 	C 	0.09840 0.54920 0.40910 0.15900
C 	C 	0.17452 0.58726 0.40650 0.35900
C 	C 	0.20912 0.60456 0.35030 -0.76900
H 	H 	0.23800 0.61900 0.36840 0.24800
O 	O 	0.80201 0.90100 0.70353 -0.28800
C 	C 	0.68739 0.84369 0.81673 0.00400
C 	C 	0.76507 0.88253 0.74243 0.15800
C 	C 	0.84119 0.92059 0.73983 0.35800
C 	C 	0.87579 0.93789 0.68363 -0.76900
H 	H 	0.90467 0.95233 0.70173 0.24800
O 	O 	0.46867 0.23434 0.03687 -0.28700
C 	C 	0.35405 0.17703 0.15007 0.00500
C 	C 	0.43173 0.21587 0.07577 0.15800
C 	C 	0.50785 0.25393 0.07317 0.35500
C 	C 	0.54245 0.27123 0.01697 -0.76200
H 	H 	0.57133 0.28567 0.03507 0.24600
O 	O 	0.56767 0.43233 0.62980 -0.28800
C 	C 	0.51036 0.48964 0.51660 0.00400
C 	C 	0.54920 0.45080 0.59090 0.15900
C 	C 	0.58726 0.41274 0.59350 0.35900
C 	C 	0.60456 0.39544 0.64970 -0.76900
H 	H 	0.61900 0.38100 0.63160 0.24800
O 	O 	0.23434 0.76566 0.96313 -0.28600
C 	C 	0.17703 0.82297 0.84993 0.00600
C 	C 	0.21587 0.78413 0.92423 0.15700
C 	C 	0.25393 0.74607 0.92683 0.35300
C 	C 	0.27123 0.72877 0.98303 -0.75800
H 	H 	0.28567 0.71433 0.96493 0.24500
O 	O 	0.90100 0.09900 0.29647 -0.28800
C 	C 	0.84369 0.15631 0.18327 0.00400
C 	C 	0.88253 0.11747 0.25757 0.15800
C 	C 	0.92059 0.07941 0.26017 0.35800
C 	C 	0.93789 0.06211 0.31637 -0.76900
H 	H 	0.95233 0.04767 0.29827 0.24800
O 	O 	0.86466 0.43233 0.62980 -0.28800
C 	C 	0.97928 0.48964 0.51660 0.00400
C 	C 	0.90160 0.45080 0.59090 0.15900
C 	C 	0.82548 0.41274 0.59350 0.35900
C 	C 	0.79088 0.39544 0.64970 -0.76900
H 	H 	0.76200 0.38100 0.63160 0.24800
O 	O 	0.53133 0.76566 0.96313 -0.28700
C 	C 	0.64595 0.82297 0.84993 0.00500
C 	C 	0.56827 0.78413 0.92423 0.15800
C 	C 	0.49215 0.74607 0.92683 0.35500
C 	C 	0.45755 0.72877 0.98303 -0.76200
H 	H 	0.42867 0.71433 0.96493 0.24600
O 	O 	0.19799 0.09900 0.29647 -0.28800
C 	C 	0.31261 0.15631 0.18327 0.00400
C 	C 	0.23493 0.11747 0.25757 0.15800
C 	C 	0.15881 0.07941 0.26017 0.35800
C 	C 	0.12421 0.06211 0.31637 -0.76900
H 	H 	0.09533 0.04767 0.29827 0.24800
O 	O 	0.56767 0.13534 0.62980 -0.28800
C 	C 	0.51036 0.02072 0.51660 0.00400
C 	C 	0.54920 0.09840 0.59090 0.15900
C 	C 	0.58726 0.17452 0.59350 0.35900
C 	C 	0.60456 0.20912 0.64970 -0.76900
H 	H 	0.61900 0.23800 0.63160 0.24800
O 	O 	0.23434 0.46867 0.96313 -0.28700
C 	C 	0.17703 0.35405 0.84993 0.00500
C 	C 	0.21587 0.43173 0.92423 0.15800
C 	C 	0.25393 0.50785 0.92683 0.35500
C 	C 	0.27123 0.54245 0.98303 -0.76200
H 	H 	0.28567 0.57133 0.96493 0.24600
O 	O 	0.90100 0.80201 0.29647 -0.28800
C 	C 	0.84369 0.68739 0.18327 0.00400
C 	C 	0.88253 0.76507 0.25757 0.15800
C 	C 	0.92059 0.84119 0.26017 0.35800
C 	C 	0.93789 0.87579 0.31637 -0.76900
H 	H 	0.95233 0.90467 0.29827 0.24800
