data_crystal

_cell_length_a 35.15110
_cell_length_b 35.15110
_cell_length_c 22.18910
_cell_angle_alpha 90.00000
_cell_angle_beta  90.00000
_cell_angle_gamma 120.00000

_symmetry_space_group_name_	'P 1'
_symmetry_space_group_name_H-M	'P 1'

loop_
_symmetry_equiv_pos_as_xyz
  x,y,z

loop_
_atom_site_label
_atom_site_type_symbol
_atom_site_fract_x
_atom_site_fract_y
_atom_site_fract_z
_atom_site_charge
O 	O 	0.52515 0.55366 0.43137 -0.41300
O 	O 	0.51124 0.56719 0.52533 -0.41500
C 	C 	0.52385 0.57827 0.47188 0.37300
C 	C 	0.53901 0.62485 0.45404 -0.14900
C 	C 	0.53960 0.65458 0.49560 0.08600
H 	H 	0.53000 0.64540 0.53480 0.00900
C 	C 	0.55430 0.69761 0.47961 -0.17700
H 	H 	0.55440 0.71710 0.50810 0.10000
C 	C 	0.56906 0.71240 0.42115 0.13900
C 	C 	0.56797 0.68246 0.38000 -0.18000
H 	H 	0.57730 0.69140 0.34070 0.09400
C 	C 	0.55317 0.63921 0.39628 0.09000
H 	H 	0.55280 0.61960 0.36780 0.01400
C 	C 	0.58794 0.75921 0.40424 -0.09700
C 	C 	0.62601 0.77924 0.37000 -0.03000
H 	H 	0.63890 0.76270 0.35890 0.04000
H 	H 	0.48920 0.72220 0.39590 -0.18400
H 	H 	0.45730 0.75090 0.49060 0.39600
O 	O 	0.19182 0.88699 0.76470 -0.41300
O 	O 	0.17791 0.90052 0.85866 -0.41500
C 	C 	0.19052 0.91160 0.80521 0.37300
C 	C 	0.20568 0.95818 0.78737 -0.14900
C 	C 	0.20627 0.98791 0.82893 0.08600
H 	H 	0.19667 0.97873 0.86813 0.00900
C 	C 	0.22097 0.03094 0.81294 -0.17700
H 	H 	0.22107 0.05043 0.84143 0.10000
C 	C 	0.23573 0.04573 0.75448 0.13900
C 	C 	0.23464 0.01579 0.71333 -0.18000
H 	H 	0.24397 0.02473 0.67403 0.09400
C 	C 	0.21984 0.97254 0.72961 0.08900
H 	H 	0.21947 0.95293 0.70113 0.01400
C 	C 	0.25461 0.09254 0.73757 -0.09700
C 	C 	0.29268 0.11257 0.70333 -0.03000
H 	H 	0.30557 0.09603 0.69223 0.04000
H 	H 	0.15587 0.05553 0.72923 -0.18400
H 	H 	0.12397 0.08423 0.82393 0.39700
O 	O 	0.85848 0.22033 0.09804 -0.41200
O 	O 	0.84457 0.23386 0.19200 -0.41400
C 	C 	0.85718 0.24494 0.13855 0.37400
C 	C 	0.87234 0.29152 0.12071 -0.14800
C 	C 	0.87293 0.32125 0.16227 0.08700
H 	H 	0.86333 0.31207 0.20147 0.01000
C 	C 	0.88763 0.36428 0.14628 -0.17600
H 	H 	0.88773 0.38377 0.17477 0.10100
C 	C 	0.90239 0.37907 0.08782 0.14000
C 	C 	0.90130 0.34913 0.04667 -0.17900
H 	H 	0.91063 0.35807 0.00737 0.09500
C 	C 	0.88650 0.30588 0.06295 0.09100
H 	H 	0.88613 0.28627 0.03447 0.01500
C 	C 	0.92127 0.42588 0.07091 -0.09600
C 	C 	0.95934 0.44591 0.03667 -0.02900
H 	H 	0.97223 0.42937 0.02557 0.04100
H 	H 	0.82253 0.38887 0.06257 -0.18300
H 	H 	0.79063 0.41757 0.15727 0.39700
O 	O 	0.44634 0.97149 0.43137 -0.41200
O 	O 	0.43281 0.94405 0.52533 -0.41400
C 	C 	0.42173 0.94558 0.47188 0.37400
C 	C 	0.37515 0.91416 0.45404 -0.14800
C 	C 	0.34542 0.88502 0.49560 0.08700
H 	H 	0.35460 0.88460 0.53480 0.01000
C 	C 	0.30239 0.85669 0.47961 -0.17600
H 	H 	0.28290 0.83730 0.50810 0.10100
C 	C 	0.28760 0.85666 0.42115 0.14000
C 	C 	0.31754 0.88551 0.38000 -0.17900
H 	H 	0.30860 0.88590 0.34070 0.09500
C 	C 	0.36079 0.91396 0.39628 0.09100
H 	H 	0.38040 0.93320 0.36780 0.01500
C 	C 	0.24079 0.82873 0.40424 -0.09600
C 	C 	0.22076 0.84677 0.37000 -0.02900
H 	H 	0.23730 0.87620 0.35890 0.04100
H 	H 	0.27780 0.76700 0.39590 -0.18300
H 	H 	0.24910 0.70640 0.49060 0.39800
O 	O 	0.11301 0.30482 0.76470 -0.41200
O 	O 	0.09948 0.27738 0.85866 -0.41400
C 	C 	0.08840 0.27891 0.80521 0.37400
C 	C 	0.04182 0.24749 0.78737 -0.14800
C 	C 	0.01209 0.21835 0.82893 0.08700
H 	H 	0.02127 0.21793 0.86813 0.01000
C 	C 	0.96906 0.19002 0.81294 -0.17600
H 	H 	0.94957 0.17063 0.84143 0.10100
C 	C 	0.95427 0.18999 0.75448 0.13900
C 	C 	0.98421 0.21884 0.71333 -0.17800
H 	H 	0.97527 0.21923 0.67403 0.09500
C 	C 	0.02746 0.24729 0.72961 0.09000
H 	H 	0.04707 0.26653 0.70113 0.01500
C 	C 	0.90746 0.16206 0.73757 -0.09500
C 	C 	0.88743 0.18010 0.70333 -0.02900
H 	H 	0.90397 0.20953 0.69223 0.04100
H 	H 	0.94447 0.10033 0.72923 -0.18300
H 	H 	0.91577 0.03973 0.82393 0.39700
O 	O 	0.77967 0.63816 0.09804 -0.41200
O 	O 	0.76614 0.61072 0.19200 -0.41400
C 	C 	0.75506 0.61225 0.13855 0.37400
C 	C 	0.70848 0.58083 0.12071 -0.14800
C 	C 	0.67875 0.55169 0.16227 0.08700
H 	H 	0.68793 0.55127 0.20147 0.01000
C 	C 	0.63572 0.52336 0.14628 -0.17600
H 	H 	0.61623 0.50397 0.17477 0.10100
C 	C 	0.62093 0.52333 0.08782 0.14000
C 	C 	0.65087 0.55218 0.04667 -0.17900
H 	H 	0.64193 0.55257 0.00737 0.09500
C 	C 	0.69412 0.58063 0.06295 0.09100
H 	H 	0.71373 0.59987 0.03447 0.01500
C 	C 	0.57412 0.49540 0.07091 -0.09600
C 	C 	0.55409 0.51344 0.03667 -0.02900
H 	H 	0.57063 0.54287 0.02557 0.04100
H 	H 	0.61113 0.43367 0.06257 -0.18300
H 	H 	0.58243 0.37307 0.15727 0.39800
O 	O 	0.02851 0.47485 0.43137 -0.41200
O 	O 	0.05595 0.48876 0.52533 -0.41400
C 	C 	0.05442 0.47615 0.47188 0.37400
C 	C 	0.08584 0.46099 0.45404 -0.14800
C 	C 	0.11498 0.46040 0.49560 0.08700
H 	H 	0.11540 0.47000 0.53480 0.01000
C 	C 	0.14331 0.44570 0.47961 -0.17600
H 	H 	0.16270 0.44560 0.50810 0.10100
C 	C 	0.14334 0.43094 0.42115 0.14000
C 	C 	0.11449 0.43203 0.38000 -0.17900
H 	H 	0.11410 0.42270 0.34070 0.09500
C 	C 	0.08604 0.44683 0.39628 0.09100
H 	H 	0.06680 0.44720 0.36780 0.01500
C 	C 	0.17127 0.41206 0.40424 -0.09600
C 	C 	0.15323 0.37399 0.37000 -0.02900
H 	H 	0.12380 0.36110 0.35890 0.04100
H 	H 	0.23300 0.51080 0.39590 -0.18300
H 	H 	0.29360 0.54270 0.49060 0.39800
O 	O 	0.69518 0.80818 0.76470 -0.41200
O 	O 	0.72262 0.82209 0.85866 -0.41400
C 	C 	0.72109 0.80948 0.80521 0.37400
C 	C 	0.75251 0.79432 0.78737 -0.14800
C 	C 	0.78165 0.79373 0.82893 0.08700
H 	H 	0.78207 0.80333 0.86813 0.01000
C 	C 	0.80998 0.77903 0.81294 -0.17600
H 	H 	0.82937 0.77893 0.84143 0.10100
C 	C 	0.81001 0.76427 0.75448 0.14000
C 	C 	0.78116 0.76536 0.71333 -0.17900
H 	H 	0.78077 0.75603 0.67403 0.09500
C 	C 	0.75271 0.78016 0.72961 0.09100
H 	H 	0.73347 0.78053 0.70113 0.01500
C 	C 	0.83794 0.74539 0.73757 -0.09600
C 	C 	0.81990 0.70732 0.70333 -0.02900
H 	H 	0.79047 0.69443 0.69223 0.04100
H 	H 	0.89967 0.84413 0.72923 -0.18300
H 	H 	0.96027 0.87603 0.82393 0.39700
O 	O 	0.36184 0.14152 0.09804 -0.41200
O 	O 	0.38928 0.15543 0.19200 -0.41400
C 	C 	0.38775 0.14282 0.13855 0.37400
C 	C 	0.41917 0.12766 0.12071 -0.14800
C 	C 	0.44831 0.12707 0.16227 0.08700
H 	H 	0.44873 0.13667 0.20147 0.01000
C 	C 	0.47664 0.11237 0.14628 -0.17600
H 	H 	0.49603 0.11227 0.17477 0.10100
C 	C 	0.47667 0.09761 0.08782 0.14000
C 	C 	0.44782 0.09870 0.04667 -0.17900
H 	H 	0.44743 0.08937 0.00737 0.09500
C 	C 	0.41937 0.11350 0.06295 0.09100
H 	H 	0.40013 0.11387 0.03447 0.01500
C 	C 	0.50460 0.07873 0.07091 -0.09600
C 	C 	0.48656 0.04066 0.03667 -0.02900
H 	H 	0.45713 0.02777 0.02557 0.04100
H 	H 	0.56633 0.17747 0.06257 -0.18300
H 	H 	0.62693 0.20937 0.15727 0.39800
O 	O 	0.55366 0.52515 0.56863 -0.41200
O 	O 	0.56719 0.51124 0.47467 -0.41400
C 	C 	0.57827 0.52385 0.52812 0.37400
C 	C 	0.62485 0.53901 0.54596 -0.14800
C 	C 	0.65458 0.53960 0.50440 0.08700
H 	H 	0.64540 0.53000 0.46520 0.01000
C 	C 	0.69761 0.55430 0.52039 -0.17600
H 	H 	0.71710 0.55440 0.49190 0.10100
C 	C 	0.71240 0.56906 0.57885 0.14000
C 	C 	0.68246 0.56797 0.62000 -0.17900
H 	H 	0.69140 0.57730 0.65930 0.09500
C 	C 	0.63921 0.55317 0.60372 0.09100
H 	H 	0.61960 0.55280 0.63220 0.01500
C 	C 	0.75921 0.58794 0.59576 -0.09600
C 	C 	0.77924 0.62601 0.63000 -0.02900
H 	H 	0.76270 0.63890 0.64110 0.04100
H 	H 	0.72220 0.48920 0.60410 -0.18300
H 	H 	0.75090 0.45730 0.50940 0.39700
O 	O 	0.22033 0.85848 0.90196 -0.41200
O 	O 	0.23386 0.84457 0.80800 -0.41400
C 	C 	0.24494 0.85718 0.86145 0.37400
C 	C 	0.29152 0.87234 0.87929 -0.14800
C 	C 	0.32125 0.87293 0.83773 0.08700
H 	H 	0.31207 0.86333 0.79853 0.01000
C 	C 	0.36428 0.88763 0.85372 -0.17600
H 	H 	0.38377 0.88773 0.82523 0.10100
C 	C 	0.37907 0.90239 0.91218 0.14000
C 	C 	0.34913 0.90130 0.95333 -0.17900
H 	H 	0.35807 0.91063 0.99263 0.09500
C 	C 	0.30588 0.88650 0.93705 0.09100
H 	H 	0.28627 0.88613 0.96553 0.01500
C 	C 	0.42588 0.92127 0.92909 -0.09600
C 	C 	0.44591 0.95934 0.96333 -0.02900
H 	H 	0.42937 0.97223 0.97443 0.04100
H 	H 	0.38887 0.82253 0.93743 -0.18300
H 	H 	0.41757 0.79063 0.84273 0.39700
O 	O 	0.88699 0.19182 0.23530 -0.41200
O 	O 	0.90052 0.17791 0.14134 -0.41400
C 	C 	0.91160 0.19052 0.19479 0.37400
C 	C 	0.95818 0.20568 0.21263 -0.14800
C 	C 	0.98791 0.20627 0.17107 0.08700
H 	H 	0.97873 0.19667 0.13187 0.01000
C 	C 	0.03094 0.22097 0.18706 -0.17600
H 	H 	0.05043 0.22107 0.15857 0.10100
C 	C 	0.04573 0.23573 0.24552 0.14000
C 	C 	0.01579 0.23464 0.28667 -0.17900
H 	H 	0.02473 0.24397 0.32597 0.09500
C 	C 	0.97254 0.21984 0.27039 0.09000
H 	H 	0.95293 0.21947 0.29887 0.01500
C 	C 	0.09254 0.25461 0.26243 -0.09600
C 	C 	0.11257 0.29268 0.29667 -0.02900
H 	H 	0.09603 0.30557 0.30777 0.04100
H 	H 	0.05553 0.15587 0.27077 -0.18300
H 	H 	0.08423 0.12397 0.17607 0.39800
O 	O 	0.97149 0.44634 0.56863 -0.41200
O 	O 	0.94405 0.43281 0.47467 -0.41400
C 	C 	0.94558 0.42173 0.52812 0.37400
C 	C 	0.91416 0.37515 0.54596 -0.14800
C 	C 	0.88502 0.34542 0.50440 0.08700
H 	H 	0.88460 0.35460 0.46520 0.01000
C 	C 	0.85669 0.30239 0.52039 -0.17600
H 	H 	0.83730 0.28290 0.49190 0.10100
C 	C 	0.85666 0.28760 0.57885 0.14000
C 	C 	0.88551 0.31754 0.62000 -0.17900
H 	H 	0.88590 0.30860 0.65930 0.09500
C 	C 	0.91396 0.36079 0.60372 0.09100
H 	H 	0.93320 0.38040 0.63220 0.01500
C 	C 	0.82873 0.24079 0.59576 -0.09600
C 	C 	0.84677 0.22076 0.63000 -0.02900
H 	H 	0.87620 0.23730 0.64110 0.04100
H 	H 	0.76700 0.27780 0.60410 -0.18300
H 	H 	0.70640 0.24910 0.50940 0.39800
O 	O 	0.63816 0.77967 0.90196 -0.41200
O 	O 	0.61072 0.76614 0.80800 -0.41400
C 	C 	0.61225 0.75506 0.86145 0.37400
C 	C 	0.58083 0.70848 0.87929 -0.14800
C 	C 	0.55169 0.67875 0.83773 0.08700
H 	H 	0.55127 0.68793 0.79853 0.01000
C 	C 	0.52336 0.63572 0.85372 -0.17600
H 	H 	0.50397 0.61623 0.82523 0.10100
C 	C 	0.52333 0.62093 0.91218 0.14000
C 	C 	0.55218 0.65087 0.95333 -0.17900
H 	H 	0.55257 0.64193 0.99263 0.09500
C 	C 	0.58063 0.69412 0.93705 0.09100
H 	H 	0.59987 0.71373 0.96553 0.01500
C 	C 	0.49540 0.57412 0.92909 -0.09600
C 	C 	0.51344 0.55409 0.96333 -0.02900
H 	H 	0.54287 0.57063 0.97443 0.04100
H 	H 	0.43367 0.61113 0.93743 -0.18300
H 	H 	0.37307 0.58243 0.84273 0.39800
O 	O 	0.30482 0.11301 0.23530 -0.41200
O 	O 	0.27738 0.09948 0.14134 -0.41400
C 	C 	0.27891 0.08840 0.19479 0.37400
C 	C 	0.24749 0.04182 0.21263 -0.14800
C 	C 	0.21835 0.01209 0.17107 0.08700
H 	H 	0.21793 0.02127 0.13187 0.01000
C 	C 	0.19002 0.96906 0.18706 -0.17600
H 	H 	0.17063 0.94957 0.15857 0.10100
C 	C 	0.18999 0.95427 0.24552 0.13900
C 	C 	0.21884 0.98421 0.28667 -0.17800
H 	H 	0.21923 0.97527 0.32597 0.09500
C 	C 	0.24729 0.02746 0.27039 0.09000
H 	H 	0.26653 0.04707 0.29887 0.01500
C 	C 	0.16206 0.90746 0.26243 -0.09500
C 	C 	0.18010 0.88743 0.29667 -0.02900
H 	H 	0.20953 0.90397 0.30777 0.04100
H 	H 	0.10033 0.94447 0.27077 -0.18300
H 	H 	0.03973 0.91577 0.17607 0.39700
O 	O 	0.47485 0.02851 0.56863 -0.41200
O 	O 	0.48876 0.05595 0.47467 -0.41400
C 	C 	0.47615 0.05442 0.52812 0.37400
C 	C 	0.46099 0.08584 0.54596 -0.14800
C 	C 	0.46040 0.11498 0.50440 0.08700
H 	H 	0.47000 0.11540 0.46520 0.01000
C 	C 	0.44570 0.14331 0.52039 -0.17600
H 	H 	0.44560 0.16270 0.49190 0.10100
C 	C 	0.43094 0.14334 0.57885 0.14000
C 	C 	0.43203 0.11449 0.62000 -0.17900
H 	H 	0.42270 0.11410 0.65930 0.09500
C 	C 	0.44683 0.08604 0.60372 0.09100
H 	H 	0.44720 0.06680 0.63220 0.01500
C 	C 	0.41206 0.17127 0.59576 -0.09600
C 	C 	0.37399 0.15323 0.63000 -0.02900
H 	H 	0.36110 0.12380 0.64110 0.04100
H 	H 	0.51080 0.23300 0.60410 -0.18300
H 	H 	0.54270 0.29360 0.50940 0.39800
O 	O 	0.14152 0.36184 0.90196 -0.41200
O 	O 	0.15543 0.38928 0.80800 -0.41400
C 	C 	0.14282 0.38775 0.86145 0.37400
C 	C 	0.12766 0.41917 0.87929 -0.14800
C 	C 	0.12707 0.44831 0.83773 0.08700
H 	H 	0.13667 0.44873 0.79853 0.01000
C 	C 	0.11237 0.47664 0.85372 -0.17600
H 	H 	0.11227 0.49603 0.82523 0.10100
C 	C 	0.09761 0.47667 0.91218 0.14000
C 	C 	0.09870 0.44782 0.95333 -0.17900
H 	H 	0.08937 0.44743 0.99263 0.09500
C 	C 	0.11350 0.41937 0.93705 0.09100
H 	H 	0.11387 0.40013 0.96553 0.01500
C 	C 	0.07873 0.50460 0.92909 -0.09600
C 	C 	0.04066 0.48656 0.96333 -0.02900
H 	H 	0.02777 0.45713 0.97443 0.04100
H 	H 	0.17747 0.56633 0.93743 -0.18300
H 	H 	0.20937 0.62693 0.84273 0.39800
O 	O 	0.80818 0.69518 0.23530 -0.41200
O 	O 	0.82209 0.72262 0.14134 -0.41400
C 	C 	0.80948 0.72109 0.19479 0.37400
C 	C 	0.79432 0.75251 0.21263 -0.14800
C 	C 	0.79373 0.78165 0.17107 0.08700
H 	H 	0.80333 0.78207 0.13187 0.01000
C 	C 	0.77903 0.80998 0.18706 -0.17600
H 	H 	0.77893 0.82937 0.15857 0.10100
C 	C 	0.76427 0.81001 0.24552 0.14000
C 	C 	0.76536 0.78116 0.28667 -0.17900
H 	H 	0.75603 0.78077 0.32597 0.09500
C 	C 	0.78016 0.75271 0.27039 0.09100
H 	H 	0.78053 0.73347 0.29887 0.01500
C 	C 	0.74539 0.83794 0.26243 -0.09600
C 	C 	0.70732 0.81990 0.29667 -0.02900
H 	H 	0.69443 0.79047 0.30777 0.04100
H 	H 	0.84413 0.89967 0.27077 -0.18300
H 	H 	0.87603 0.96027 0.17607 0.39700
O 	O 	0.47485 0.44634 0.56863 -0.41200
O 	O 	0.48876 0.43281 0.47467 -0.41400
C 	C 	0.47615 0.42173 0.52812 0.37400
C 	C 	0.46099 0.37515 0.54596 -0.14800
C 	C 	0.46040 0.34542 0.50440 0.08700
H 	H 	0.47000 0.35460 0.46520 0.01000
C 	C 	0.44570 0.30239 0.52039 -0.17600
H 	H 	0.44560 0.28290 0.49190 0.10100
C 	C 	0.43094 0.28760 0.57885 0.14000
C 	C 	0.43203 0.31754 0.62000 -0.17900
H 	H 	0.42270 0.30860 0.65930 0.09500
C 	C 	0.44683 0.36079 0.60372 0.09100
H 	H 	0.44720 0.38040 0.63220 0.01500
C 	C 	0.41206 0.24079 0.59576 -0.09600
C 	C 	0.37399 0.22076 0.63000 -0.02900
H 	H 	0.36110 0.23730 0.64110 0.04100
H 	H 	0.51080 0.27780 0.60410 -0.18300
H 	H 	0.54270 0.24910 0.50940 0.39700
O 	O 	0.14152 0.77967 0.90196 -0.41200
O 	O 	0.15543 0.76614 0.80800 -0.41400
C 	C 	0.14282 0.75506 0.86145 0.37400
C 	C 	0.12766 0.70848 0.87929 -0.14800
C 	C 	0.12707 0.67875 0.83773 0.08700
H 	H 	0.13667 0.68793 0.79853 0.01000
C 	C 	0.11237 0.63572 0.85372 -0.17600
H 	H 	0.11227 0.61623 0.82523 0.10100
C 	C 	0.09761 0.62093 0.91218 0.14000
C 	C 	0.09870 0.65087 0.95333 -0.17900
H 	H 	0.08937 0.64193 0.99263 0.09500
C 	C 	0.11350 0.69412 0.93705 0.09100
H 	H 	0.11387 0.71373 0.96553 0.01500
C 	C 	0.07873 0.57412 0.92909 -0.09600
C 	C 	0.04066 0.55409 0.96333 -0.02900
H 	H 	0.02777 0.57063 0.97443 0.04100
H 	H 	0.17747 0.61113 0.93743 -0.18300
H 	H 	0.20937 0.58243 0.84273 0.39700
O 	O 	0.80818 0.11301 0.23530 -0.41200
O 	O 	0.82209 0.09948 0.14134 -0.41400
C 	C 	0.80948 0.08840 0.19479 0.37400
C 	C 	0.79432 0.04182 0.21263 -0.14800
C 	C 	0.79373 0.01209 0.17107 0.08700
H 	H 	0.80333 0.02127 0.13187 0.01000
C 	C 	0.77903 0.96906 0.18706 -0.17600
H 	H 	0.77893 0.94957 0.15857 0.10100
C 	C 	0.76427 0.95427 0.24552 0.14000
C 	C 	0.76536 0.98421 0.28667 -0.17900
H 	H 	0.75603 0.97527 0.32597 0.09500
C 	C 	0.78016 0.02746 0.27039 0.09000
H 	H 	0.78053 0.04707 0.29887 0.01500
C 	C 	0.74539 0.90746 0.26243 -0.09600
C 	C 	0.70732 0.88743 0.29667 -0.02900
H 	H 	0.69443 0.90397 0.30777 0.04100
H 	H 	0.84413 0.94447 0.27077 -0.18300
H 	H 	0.87603 0.91577 0.17607 0.39800
O 	O 	0.55366 0.02851 0.56863 -0.41200
O 	O 	0.56719 0.05595 0.47467 -0.41400
C 	C 	0.57827 0.05442 0.52812 0.37400
C 	C 	0.62485 0.08584 0.54596 -0.14800
C 	C 	0.65458 0.11498 0.50440 0.08700
H 	H 	0.64540 0.11540 0.46520 0.01000
C 	C 	0.69761 0.14331 0.52039 -0.17600
H 	H 	0.71710 0.16270 0.49190 0.10100
C 	C 	0.71240 0.14334 0.57885 0.14000
C 	C 	0.68246 0.11449 0.62000 -0.17900
H 	H 	0.69140 0.11410 0.65930 0.09500
C 	C 	0.63921 0.08604 0.60372 0.09100
H 	H 	0.61960 0.06680 0.63220 0.01500
C 	C 	0.75921 0.17127 0.59576 -0.09600
C 	C 	0.77924 0.15323 0.63000 -0.02900
H 	H 	0.76270 0.12380 0.64110 0.04100
H 	H 	0.72220 0.23300 0.60410 -0.18300
H 	H 	0.75090 0.29360 0.50940 0.39800
O 	O 	0.22033 0.36184 0.90196 -0.41200
O 	O 	0.23386 0.38928 0.80800 -0.41400
C 	C 	0.24494 0.38775 0.86145 0.37400
C 	C 	0.29152 0.41917 0.87929 -0.14800
C 	C 	0.32125 0.44831 0.83773 0.08700
H 	H 	0.31207 0.44873 0.79853 0.01000
C 	C 	0.36428 0.47664 0.85372 -0.17600
H 	H 	0.38377 0.49603 0.82523 0.10100
C 	C 	0.37907 0.47667 0.91218 0.14000
C 	C 	0.34913 0.44782 0.95333 -0.17900
H 	H 	0.35807 0.44743 0.99263 0.09500
C 	C 	0.30588 0.41937 0.93705 0.09100
H 	H 	0.28627 0.40013 0.96553 0.01500
C 	C 	0.42588 0.50460 0.92909 -0.09600
C 	C 	0.44591 0.48656 0.96333 -0.02900
H 	H 	0.42937 0.45713 0.97443 0.04100
H 	H 	0.38887 0.56633 0.93743 -0.18300
H 	H 	0.41757 0.62693 0.84273 0.39800
O 	O 	0.88699 0.69518 0.23530 -0.41200
O 	O 	0.90052 0.72262 0.14134 -0.41400
C 	C 	0.91160 0.72109 0.19479 0.37400
C 	C 	0.95818 0.75251 0.21263 -0.14800
C 	C 	0.98791 0.78165 0.17107 0.08700
H 	H 	0.97873 0.78207 0.13187 0.01000
C 	C 	0.03094 0.80998 0.18706 -0.17600
H 	H 	0.05043 0.82937 0.15857 0.10100
C 	C 	0.04573 0.81001 0.24552 0.13900
C 	C 	0.01579 0.78116 0.28667 -0.17800
H 	H 	0.02473 0.78077 0.32597 0.09500
C 	C 	0.97254 0.75271 0.27039 0.09000
H 	H 	0.95293 0.73347 0.29887 0.01500
C 	C 	0.09254 0.83794 0.26243 -0.09500
C 	C 	0.11257 0.81990 0.29667 -0.02900
H 	H 	0.09603 0.79047 0.30777 0.04100
H 	H 	0.05553 0.89967 0.27077 -0.18300
H 	H 	0.08423 0.96027 0.17607 0.39700
O 	O 	0.97149 0.52515 0.56863 -0.41200
O 	O 	0.94405 0.51124 0.47467 -0.41400
C 	C 	0.94558 0.52385 0.52812 0.37400
C 	C 	0.91416 0.53901 0.54596 -0.14800
C 	C 	0.88502 0.53960 0.50440 0.08700
H 	H 	0.88460 0.53000 0.46520 0.01000
C 	C 	0.85669 0.55430 0.52039 -0.17600
H 	H 	0.83730 0.55440 0.49190 0.10100
C 	C 	0.85666 0.56906 0.57885 0.14000
C 	C 	0.88551 0.56797 0.62000 -0.17900
H 	H 	0.88590 0.57730 0.65930 0.09500
C 	C 	0.91396 0.55317 0.60372 0.09100
H 	H 	0.93320 0.55280 0.63220 0.01500
C 	C 	0.82873 0.58794 0.59576 -0.09600
C 	C 	0.84677 0.62601 0.63000 -0.02900
H 	H 	0.87620 0.63890 0.64110 0.04100
H 	H 	0.76700 0.48920 0.60410 -0.18300
H 	H 	0.70640 0.45730 0.50940 0.39800
O 	O 	0.63816 0.85848 0.90196 -0.41200
O 	O 	0.61072 0.84457 0.80800 -0.41400
C 	C 	0.61225 0.85718 0.86145 0.37400
C 	C 	0.58083 0.87234 0.87929 -0.14800
C 	C 	0.55169 0.87293 0.83773 0.08700
H 	H 	0.55127 0.86333 0.79853 0.01000
C 	C 	0.52336 0.88763 0.85372 -0.17600
H 	H 	0.50397 0.88773 0.82523 0.10100
C 	C 	0.52333 0.90239 0.91218 0.14000
C 	C 	0.55218 0.90130 0.95333 -0.17900
H 	H 	0.55257 0.91063 0.99263 0.09500
C 	C 	0.58063 0.88650 0.93705 0.09100
H 	H 	0.59987 0.88613 0.96553 0.01500
C 	C 	0.49540 0.92127 0.92909 -0.09600
C 	C 	0.51344 0.95934 0.96333 -0.02900
H 	H 	0.54287 0.97223 0.97443 0.04100
H 	H 	0.43367 0.82253 0.93743 -0.18300
H 	H 	0.37307 0.79063 0.84273 0.39800
O 	O 	0.30482 0.19182 0.23530 -0.41200
O 	O 	0.27738 0.17791 0.14134 -0.41400
C 	C 	0.27891 0.19052 0.19479 0.37400
C 	C 	0.24749 0.20568 0.21263 -0.14800
C 	C 	0.21835 0.20627 0.17107 0.08700
H 	H 	0.21793 0.19667 0.13187 0.01000
C 	C 	0.19002 0.22097 0.18706 -0.17600
H 	H 	0.17063 0.22107 0.15857 0.10100
C 	C 	0.18999 0.23573 0.24552 0.14000
C 	C 	0.21884 0.23464 0.28667 -0.17900
H 	H 	0.21923 0.24397 0.32597 0.09500
C 	C 	0.24729 0.21984 0.27039 0.09100
H 	H 	0.26653 0.21947 0.29887 0.01500
C 	C 	0.16206 0.25461 0.26243 -0.09600
C 	C 	0.18010 0.29268 0.29667 -0.02900
H 	H 	0.20953 0.30557 0.30777 0.04100
H 	H 	0.10033 0.15587 0.27077 -0.18300
H 	H 	0.03973 0.12397 0.17607 0.39700
O 	O 	0.44634 0.47485 0.43137 -0.41200
O 	O 	0.43281 0.48876 0.52533 -0.41400
C 	C 	0.42173 0.47615 0.47188 0.37400
C 	C 	0.37515 0.46099 0.45404 -0.14800
C 	C 	0.34542 0.46040 0.49560 0.08700
H 	H 	0.35460 0.47000 0.53480 0.01000
C 	C 	0.30239 0.44570 0.47961 -0.17600
H 	H 	0.28290 0.44560 0.50810 0.10100
C 	C 	0.28760 0.43094 0.42115 0.14000
C 	C 	0.31754 0.43203 0.38000 -0.17900
H 	H 	0.30860 0.42270 0.34070 0.09500
C 	C 	0.36079 0.44683 0.39628 0.09100
H 	H 	0.38040 0.44720 0.36780 0.01500
C 	C 	0.24079 0.41206 0.40424 -0.09600
C 	C 	0.22076 0.37399 0.37000 -0.02900
H 	H 	0.23730 0.36110 0.35890 0.04100
H 	H 	0.27780 0.51080 0.39590 -0.18300
H 	H 	0.24910 0.54270 0.49060 0.39700
O 	O 	0.11301 0.80818 0.76470 -0.41200
O 	O 	0.09948 0.82209 0.85866 -0.41400
C 	C 	0.08840 0.80948 0.80521 0.37400
C 	C 	0.04182 0.79432 0.78737 -0.14800
C 	C 	0.01209 0.79373 0.82893 0.08700
H 	H 	0.02127 0.80333 0.86813 0.01000
C 	C 	0.96906 0.77903 0.81294 -0.17600
H 	H 	0.94957 0.77893 0.84143 0.10100
C 	C 	0.95427 0.76427 0.75448 0.14000
C 	C 	0.98421 0.76536 0.71333 -0.17900
H 	H 	0.97527 0.75603 0.67403 0.09500
C 	C 	0.02746 0.78016 0.72961 0.09000
H 	H 	0.04707 0.78053 0.70113 0.01500
C 	C 	0.90746 0.74539 0.73757 -0.09600
C 	C 	0.88743 0.70732 0.70333 -0.02900
H 	H 	0.90397 0.69443 0.69223 0.04100
H 	H 	0.94447 0.84413 0.72923 -0.18300
H 	H 	0.91577 0.87603 0.82393 0.39800
O 	O 	0.77967 0.14152 0.09804 -0.41200
O 	O 	0.76614 0.15543 0.19200 -0.41400
C 	C 	0.75506 0.14282 0.13855 0.37400
C 	C 	0.70848 0.12766 0.12071 -0.14800
C 	C 	0.67875 0.12707 0.16227 0.08700
H 	H 	0.68793 0.13667 0.20147 0.01000
C 	C 	0.63572 0.11237 0.14628 -0.17600
H 	H 	0.61623 0.11227 0.17477 0.10100
C 	C 	0.62093 0.09761 0.08782 0.14000
C 	C 	0.65087 0.09870 0.04667 -0.17900
H 	H 	0.64193 0.08937 0.00737 0.09500
C 	C 	0.69412 0.11350 0.06295 0.09100
H 	H 	0.71373 0.11387 0.03447 0.01500
C 	C 	0.57412 0.07873 0.07091 -0.09600
C 	C 	0.55409 0.04066 0.03667 -0.02900
H 	H 	0.57063 0.02777 0.02557 0.04100
H 	H 	0.61113 0.17747 0.06257 -0.18300
H 	H 	0.58243 0.20937 0.15727 0.39700
O 	O 	0.02851 0.55366 0.43137 -0.41200
O 	O 	0.05595 0.56719 0.52533 -0.41400
C 	C 	0.05442 0.57827 0.47188 0.37400
C 	C 	0.08584 0.62485 0.45404 -0.14800
C 	C 	0.11498 0.65458 0.49560 0.08700
H 	H 	0.11540 0.64540 0.53480 0.01000
C 	C 	0.14331 0.69761 0.47961 -0.17600
H 	H 	0.16270 0.71710 0.50810 0.10100
C 	C 	0.14334 0.71240 0.42115 0.14000
C 	C 	0.11449 0.68246 0.38000 -0.17900
H 	H 	0.11410 0.69140 0.34070 0.09500
C 	C 	0.08604 0.63921 0.39628 0.09100
H 	H 	0.06680 0.61960 0.36780 0.01500
C 	C 	0.17127 0.75921 0.40424 -0.09600
C 	C 	0.15323 0.77924 0.37000 -0.02900
H 	H 	0.12380 0.76270 0.35890 0.04100
H 	H 	0.23300 0.72220 0.39590 -0.18300
H 	H 	0.29360 0.75090 0.49060 0.39800
O 	O 	0.69518 0.88699 0.76470 -0.41200
O 	O 	0.72262 0.90052 0.85866 -0.41400
C 	C 	0.72109 0.91160 0.80521 0.37400
C 	C 	0.75251 0.95818 0.78737 -0.14800
C 	C 	0.78165 0.98791 0.82893 0.08700
H 	H 	0.78207 0.97873 0.86813 0.01000
C 	C 	0.80998 0.03094 0.81294 -0.17600
H 	H 	0.82937 0.05043 0.84143 0.10100
C 	C 	0.81001 0.04573 0.75448 0.13900
C 	C 	0.78116 0.01579 0.71333 -0.17800
H 	H 	0.78077 0.02473 0.67403 0.09500
C 	C 	0.75271 0.97254 0.72961 0.09000
H 	H 	0.73347 0.95293 0.70113 0.01500
C 	C 	0.83794 0.09254 0.73757 -0.09500
C 	C 	0.81990 0.11257 0.70333 -0.02900
H 	H 	0.79047 0.09603 0.69223 0.04100
H 	H 	0.89967 0.05553 0.72923 -0.18300
H 	H 	0.96027 0.08423 0.82393 0.39700
O 	O 	0.36184 0.22033 0.09804 -0.41200
O 	O 	0.38928 0.23386 0.19200 -0.41400
C 	C 	0.38775 0.24494 0.13855 0.37400
C 	C 	0.41917 0.29152 0.12071 -0.14800
C 	C 	0.44831 0.32125 0.16227 0.08700
H 	H 	0.44873 0.31207 0.20147 0.01000
C 	C 	0.47664 0.36428 0.14628 -0.17600
H 	H 	0.49603 0.38377 0.17477 0.10100
C 	C 	0.47667 0.37907 0.08782 0.14000
C 	C 	0.44782 0.34913 0.04667 -0.17900
H 	H 	0.44743 0.35807 0.00737 0.09500
C 	C 	0.41937 0.30588 0.06295 0.09100
H 	H 	0.40013 0.28627 0.03447 0.01500
C 	C 	0.50460 0.42588 0.07091 -0.09600
C 	C 	0.48656 0.44591 0.03667 -0.02900
H 	H 	0.45713 0.42937 0.02557 0.04100
H 	H 	0.56633 0.38887 0.06257 -0.18300
H 	H 	0.62693 0.41757 0.15727 0.39800
O 	O 	0.52515 0.97149 0.43137 -0.41200
O 	O 	0.51124 0.94405 0.52533 -0.41400
C 	C 	0.52385 0.94558 0.47188 0.37400
C 	C 	0.53901 0.91416 0.45404 -0.14800
C 	C 	0.53960 0.88502 0.49560 0.08700
H 	H 	0.53000 0.88460 0.53480 0.01000
C 	C 	0.55430 0.85669 0.47961 -0.17600
H 	H 	0.55440 0.83730 0.50810 0.10100
C 	C 	0.56906 0.85666 0.42115 0.14000
C 	C 	0.56797 0.88551 0.38000 -0.17900
H 	H 	0.57730 0.88590 0.34070 0.09500
C 	C 	0.55317 0.91396 0.39628 0.09100
H 	H 	0.55280 0.93320 0.36780 0.01500
C 	C 	0.58794 0.82873 0.40424 -0.09600
C 	C 	0.62601 0.84677 0.37000 -0.02900
H 	H 	0.63890 0.87620 0.35890 0.04100
H 	H 	0.48920 0.76700 0.39590 -0.18300
H 	H 	0.45730 0.70640 0.49060 0.39800
O 	O 	0.19182 0.30482 0.76470 -0.41200
O 	O 	0.17791 0.27738 0.85866 -0.41400
C 	C 	0.19052 0.27891 0.80521 0.37400
C 	C 	0.20568 0.24749 0.78737 -0.14800
C 	C 	0.20627 0.21835 0.82893 0.08700
H 	H 	0.19667 0.21793 0.86813 0.01000
C 	C 	0.22097 0.19002 0.81294 -0.17600
H 	H 	0.22107 0.17063 0.84143 0.10100
C 	C 	0.23573 0.18999 0.75448 0.14000
C 	C 	0.23464 0.21884 0.71333 -0.17900
H 	H 	0.24397 0.21923 0.67403 0.09500
C 	C 	0.21984 0.24729 0.72961 0.09100
H 	H 	0.21947 0.26653 0.70113 0.01500
C 	C 	0.25461 0.16206 0.73757 -0.09600
C 	C 	0.29268 0.18010 0.70333 -0.02900
H 	H 	0.30557 0.20953 0.69223 0.04100
H 	H 	0.15587 0.10033 0.72923 -0.18300
H 	H 	0.12397 0.03973 0.82393 0.39700
O 	O 	0.85848 0.63816 0.09804 -0.41200
O 	O 	0.84457 0.61072 0.19200 -0.41400
C 	C 	0.85718 0.61225 0.13855 0.37400
C 	C 	0.87234 0.58083 0.12071 -0.14800
C 	C 	0.87293 0.55169 0.16227 0.08700
H 	H 	0.86333 0.55127 0.20147 0.01000
C 	C 	0.88763 0.52336 0.14628 -0.17600
H 	H 	0.88773 0.50397 0.17477 0.10100
C 	C 	0.90239 0.52333 0.08782 0.14000
C 	C 	0.90130 0.55218 0.04667 -0.17900
H 	H 	0.91063 0.55257 0.00737 0.09500
C 	C 	0.88650 0.58063 0.06295 0.09100
H 	H 	0.88613 0.59987 0.03447 0.01500
C 	C 	0.92127 0.49540 0.07091 -0.09600
C 	C 	0.95934 0.51344 0.03667 -0.02900
H 	H 	0.97223 0.54287 0.02557 0.04100
H 	H 	0.82253 0.43367 0.06257 -0.18300
H 	H 	0.79063 0.37307 0.15727 0.39800
Cu	Cu	0.50796 0.49204 0.44492 0.90400
Cu	Cu	0.17463 0.82537 0.77825 0.90400
Cu	Cu	0.84129 0.15871 0.11159 0.90400
Cu	Cu	0.50796 0.01592 0.44492 0.90400
Cu	Cu	0.17463 0.34925 0.77825 0.90400
Cu	Cu	0.84129 0.68259 0.11159 0.90400
Cu	Cu	0.98408 0.49204 0.44492 0.90400
Cu	Cu	0.65075 0.82537 0.77825 0.90400
Cu	Cu	0.31741 0.15871 0.11159 0.90400
Cu	Cu	0.49204 0.50796 0.55508 0.90400
Cu	Cu	0.15871 0.84129 0.88841 0.90400
Cu	Cu	0.82537 0.17463 0.22175 0.90400
Cu	Cu	0.01592 0.50796 0.55508 0.90400
Cu	Cu	0.68259 0.84129 0.88841 0.90400
Cu	Cu	0.34925 0.17463 0.22175 0.90400
Cu	Cu	0.49204 0.98408 0.55508 0.90400
Cu	Cu	0.15871 0.31741 0.88841 0.90400
Cu	Cu	0.82537 0.65075 0.22175 0.90400
O 	O 	0.53030 0.76515 0.45507 -0.36200
C 	C 	0.64605 0.82302 0.35136 -0.00100
C 	C 	0.56904 0.78452 0.42042 0.18300
C 	C 	0.49082 0.74541 0.42130 0.70700
C 	C 	0.45507 0.72753 0.46580 -1.24200
H 	H 	0.42730 0.71365 0.44520 0.38400
O 	O 	0.19697 0.09848 0.78840 -0.36200
C 	C 	0.31272 0.15636 0.68469 -0.00100
C 	C 	0.23571 0.11785 0.75375 0.18300
C 	C 	0.15749 0.07874 0.75463 0.70700
C 	C 	0.12174 0.06087 0.79913 -1.24200
H 	H 	0.09397 0.04698 0.77853 0.38400
O 	O 	0.86363 0.43182 0.12174 -0.36200
C 	C 	0.97938 0.48969 0.01803 -0.00100
C 	C 	0.90237 0.45119 0.08709 0.18300
C 	C 	0.82415 0.41208 0.08797 0.70700
C 	C 	0.78840 0.39420 0.13247 -1.24200
H 	H 	0.76063 0.38032 0.11187 0.38400
O 	O 	0.23485 0.76515 0.45507 -0.36200
C 	C 	0.17698 0.82302 0.35136 -0.00100
C 	C 	0.21548 0.78452 0.42042 0.18300
C 	C 	0.25459 0.74541 0.42130 0.70700
C 	C 	0.27247 0.72753 0.46580 -1.24300
H 	H 	0.28635 0.71365 0.44520 0.38500
O 	O 	0.90152 0.09848 0.78840 -0.36200
C 	C 	0.84364 0.15636 0.68469 -0.00100
C 	C 	0.88215 0.11785 0.75375 0.18300
C 	C 	0.92126 0.07874 0.75463 0.70700
C 	C 	0.93913 0.06087 0.79913 -1.24100
H 	H 	0.95302 0.04698 0.77853 0.38400
O 	O 	0.56818 0.43182 0.12174 -0.36200
C 	C 	0.51031 0.48969 0.01803 -0.00100
C 	C 	0.54881 0.45119 0.08709 0.18300
C 	C 	0.58792 0.41208 0.08797 0.70700
C 	C 	0.60580 0.39420 0.13247 -1.24300
H 	H 	0.61968 0.38032 0.11187 0.38500
O 	O 	0.23485 0.46970 0.45507 -0.36200
C 	C 	0.17698 0.35395 0.35136 -0.00100
C 	C 	0.21548 0.43096 0.42042 0.18300
C 	C 	0.25459 0.50918 0.42130 0.70700
C 	C 	0.27247 0.54493 0.46580 -1.24200
H 	H 	0.28635 0.57270 0.44520 0.38400
O 	O 	0.90152 0.80303 0.78840 -0.36200
C 	C 	0.84364 0.68728 0.68469 -0.00100
C 	C 	0.88215 0.76429 0.75375 0.18300
C 	C 	0.92126 0.84251 0.75463 0.70700
C 	C 	0.93913 0.87826 0.79913 -1.24200
H 	H 	0.95302 0.90603 0.77853 0.38400
O 	O 	0.56818 0.13637 0.12174 -0.36200
C 	C 	0.51031 0.02062 0.01803 -0.00100
C 	C 	0.54881 0.09763 0.08709 0.18300
C 	C 	0.58792 0.17585 0.08797 0.70700
C 	C 	0.60580 0.21160 0.13247 -1.24200
H 	H 	0.61968 0.23937 0.11187 0.38400
O 	O 	0.76515 0.53030 0.54493 -0.36200
C 	C 	0.82302 0.64605 0.64864 -0.00100
C 	C 	0.78452 0.56904 0.57958 0.18300
C 	C 	0.74541 0.49082 0.57870 0.70700
C 	C 	0.72753 0.45507 0.53420 -1.24200
H 	H 	0.71365 0.42730 0.55480 0.38400
O 	O 	0.43182 0.86363 0.87826 -0.36200
C 	C 	0.48969 0.97938 0.98197 -0.00100
C 	C 	0.45119 0.90237 0.91291 0.18300
C 	C 	0.41208 0.82415 0.91203 0.70700
C 	C 	0.39420 0.78840 0.86753 -1.24200
H 	H 	0.38032 0.76063 0.88813 0.38400
O 	O 	0.09848 0.19697 0.21160 -0.36200
C 	C 	0.15636 0.31272 0.31531 -0.00100
C 	C 	0.11785 0.23571 0.24625 0.18300
C 	C 	0.07874 0.15749 0.24537 0.70700
C 	C 	0.06087 0.12174 0.20087 -1.24200
H 	H 	0.04698 0.09397 0.22147 0.38400
O 	O 	0.76515 0.23485 0.54493 -0.36200
C 	C 	0.82302 0.17698 0.64864 -0.00100
C 	C 	0.78452 0.21548 0.57958 0.18300
C 	C 	0.74541 0.25459 0.57870 0.70700
C 	C 	0.72753 0.27247 0.53420 -1.24300
H 	H 	0.71365 0.28635 0.55480 0.38500
O 	O 	0.43182 0.56818 0.87826 -0.36200
C 	C 	0.48969 0.51031 0.98197 -0.00100
C 	C 	0.45119 0.54881 0.91291 0.18300
C 	C 	0.41208 0.58792 0.91203 0.70700
C 	C 	0.39420 0.60580 0.86753 -1.24300
H 	H 	0.38032 0.61968 0.88813 0.38500
O 	O 	0.09848 0.90152 0.21160 -0.36200
C 	C 	0.15636 0.84364 0.31531 -0.00100
C 	C 	0.11785 0.88215 0.24625 0.18300
C 	C 	0.07874 0.92126 0.24537 0.70700
C 	C 	0.06087 0.93913 0.20087 -1.24100
H 	H 	0.04698 0.95302 0.22147 0.38400
O 	O 	0.46970 0.23485 0.54493 -0.36200
C 	C 	0.35395 0.17698 0.64864 -0.00100
C 	C 	0.43096 0.21548 0.57958 0.18300
C 	C 	0.50918 0.25459 0.57870 0.70700
C 	C 	0.54493 0.27247 0.53420 -1.24200
H 	H 	0.57270 0.28635 0.55480 0.38400
O 	O 	0.13637 0.56818 0.87826 -0.36200
C 	C 	0.02062 0.51031 0.98197 -0.00100
C 	C 	0.09763 0.54881 0.91291 0.18300
C 	C 	0.17585 0.58792 0.91203 0.70700
C 	C 	0.21160 0.60580 0.86753 -1.24200
H 	H 	0.23937 0.61968 0.88813 0.38400
O 	O 	0.80303 0.90152 0.21160 -0.36200
C 	C 	0.68728 0.84364 0.31531 -0.00100
C 	C 	0.76429 0.88215 0.24625 0.18300
C 	C 	0.84251 0.92126 0.24537 0.70700
C 	C 	0.87826 0.93913 0.20087 -1.24200
H 	H 	0.90603 0.95302 0.22147 0.38400
