data_crystal

_cell_length_a 35.13140
_cell_length_b 35.13140
_cell_length_c 22.41160
_cell_angle_alpha 90.00000
_cell_angle_beta  90.00000
_cell_angle_gamma 120.00000

_symmetry_space_group_name_	'P 1'
_symmetry_space_group_name_H-M	'P 1'

loop_
_symmetry_equiv_pos_as_xyz
  x,y,z

loop_
_atom_site_label
_atom_site_type_symbol
_atom_site_fract_x
_atom_site_fract_y
_atom_site_fract_z
_atom_site_charge
O 	O 	0.36251 0.22025 0.09819 -0.40800
O 	O 	0.38855 0.23351 0.19243 -0.41600
C 	C 	0.38781 0.24463 0.13968 0.36200
C 	C 	0.41860 0.29203 0.12297 -0.13100
C 	C 	0.44598 0.32211 0.16524 0.07200
H 	H 	0.44570 0.31270 0.20410 0.01500
C 	C 	0.47336 0.36536 0.15110 -0.16100
H 	H 	0.49070 0.38490 0.18070 0.09600
C 	C 	0.47560 0.38049 0.09340 0.11200
C 	C 	0.44858 0.34970 0.04850 -0.15200
H 	H 	0.44990 0.35850 0.00910 0.08500
C 	C 	0.42036 0.30641 0.06510 0.06700
H 	H 	0.40210 0.28650 0.03650 0.02200
C 	C 	0.50337 0.42761 0.07451 -0.07600
C 	C 	0.48615 0.44667 0.03880 -0.04000
H 	H 	0.45710 0.42960 0.02660 0.04400
H 	H 	0.60940 0.43550 0.07420 -0.10600
H 	H 	0.58030 0.37510 0.16980 0.30700
O 	O 	0.02918 0.55358 0.43152 -0.40800
O 	O 	0.05522 0.56684 0.52576 -0.41600
C 	C 	0.05448 0.57796 0.47301 0.36200
C 	C 	0.08527 0.62536 0.45630 -0.13100
C 	C 	0.11265 0.65544 0.49857 0.07200
H 	H 	0.11237 0.64603 0.53743 0.01500
C 	C 	0.14003 0.69869 0.48443 -0.16100
H 	H 	0.15737 0.71823 0.51403 0.09600
C 	C 	0.14227 0.71382 0.42673 0.11200
C 	C 	0.11525 0.68303 0.38183 -0.15200
H 	H 	0.11657 0.69183 0.34243 0.08600
C 	C 	0.08703 0.63974 0.39843 0.06800
H 	H 	0.06877 0.61983 0.36983 0.02300
C 	C 	0.17004 0.76094 0.40784 -0.07500
C 	C 	0.15282 0.78000 0.37213 -0.03900
H 	H 	0.12377 0.76293 0.35993 0.04500
H 	H 	0.27607 0.76883 0.40753 -0.10500
H 	H 	0.24697 0.70843 0.50313 0.30800
O 	O 	0.69584 0.88692 0.76486 -0.40700
O 	O 	0.72188 0.90018 0.85910 -0.41500
C 	C 	0.72114 0.91130 0.80635 0.36300
C 	C 	0.75193 0.95870 0.78964 -0.13000
C 	C 	0.77931 0.98878 0.83191 0.07300
H 	H 	0.77903 0.97937 0.87077 0.01600
C 	C 	0.80669 0.03203 0.81777 -0.16000
H 	H 	0.82403 0.05157 0.84737 0.09700
C 	C 	0.80893 0.04716 0.76007 0.11300
C 	C 	0.78191 0.01637 0.71517 -0.15100
H 	H 	0.78323 0.02517 0.67577 0.08600
C 	C 	0.75369 0.97308 0.73177 0.06700
H 	H 	0.73543 0.95317 0.70317 0.02300
C 	C 	0.83670 0.09428 0.74118 -0.07500
C 	C 	0.81948 0.11334 0.70547 -0.03900
H 	H 	0.79043 0.09627 0.69327 0.04500
H 	H 	0.94273 0.10217 0.74087 -0.10500
H 	H 	0.91363 0.04177 0.83647 0.30800
O 	O 	0.77975 0.14226 0.09819 -0.40700
O 	O 	0.76649 0.15504 0.19243 -0.41500
C 	C 	0.75537 0.14318 0.13968 0.36300
C 	C 	0.70797 0.12657 0.12297 -0.13000
C 	C 	0.67789 0.12387 0.16524 0.07300
H 	H 	0.68730 0.13300 0.20410 0.01600
C 	C 	0.63464 0.10800 0.15110 -0.16000
H 	H 	0.61510 0.10580 0.18070 0.09700
C 	C 	0.61951 0.09511 0.09340 0.11300
C 	C 	0.65030 0.09888 0.04850 -0.15100
H 	H 	0.64150 0.09140 0.00910 0.08600
C 	C 	0.69359 0.11395 0.06510 0.06800
H 	H 	0.71350 0.11560 0.03650 0.02300
C 	C 	0.57239 0.07576 0.07451 -0.07500
C 	C 	0.55333 0.03948 0.03880 -0.03900
H 	H 	0.57040 0.02750 0.02660 0.04500
H 	H 	0.56450 0.17390 0.07420 -0.10500
H 	H 	0.62490 0.20520 0.16980 0.30800
O 	O 	0.44642 0.47559 0.43152 -0.40700
O 	O 	0.43316 0.48837 0.52576 -0.41500
C 	C 	0.42204 0.47651 0.47301 0.36300
C 	C 	0.37464 0.45990 0.45630 -0.13100
C 	C 	0.34456 0.45720 0.49857 0.07300
H 	H 	0.35397 0.46633 0.53743 0.01600
C 	C 	0.30131 0.44133 0.48443 -0.16000
H 	H 	0.28177 0.43913 0.51403 0.09700
C 	C 	0.28618 0.42844 0.42673 0.11300
C 	C 	0.31697 0.43221 0.38183 -0.15100
H 	H 	0.30817 0.42473 0.34243 0.08600
C 	C 	0.36026 0.44728 0.39843 0.06800
H 	H 	0.38017 0.44893 0.36983 0.02300
C 	C 	0.23906 0.40909 0.40784 -0.07500
C 	C 	0.22000 0.37281 0.37213 -0.03900
H 	H 	0.23707 0.36083 0.35993 0.04500
H 	H 	0.23117 0.50723 0.40753 -0.10500
H 	H 	0.29157 0.53853 0.50313 0.30800
O 	O 	0.11308 0.80893 0.76486 -0.40700
O 	O 	0.09982 0.82171 0.85910 -0.41500
C 	C 	0.08870 0.80985 0.80635 0.36300
C 	C 	0.04130 0.79324 0.78964 -0.13000
C 	C 	0.01122 0.79054 0.83191 0.07300
H 	H 	0.02063 0.79967 0.87077 0.01600
C 	C 	0.96797 0.77467 0.81777 -0.16000
H 	H 	0.94843 0.77247 0.84737 0.09700
C 	C 	0.95284 0.76178 0.76007 0.11300
C 	C 	0.98363 0.76555 0.71517 -0.15100
H 	H 	0.97483 0.75807 0.67577 0.08600
C 	C 	0.02692 0.78062 0.73177 0.06800
H 	H 	0.04683 0.78227 0.70317 0.02300
C 	C 	0.90572 0.74243 0.74118 -0.07500
C 	C 	0.88666 0.70615 0.70547 -0.03900
H 	H 	0.90373 0.69417 0.69327 0.04500
H 	H 	0.89783 0.84057 0.74087 -0.10500
H 	H 	0.95823 0.87187 0.83647 0.30800
O 	O 	0.85774 0.63749 0.09819 -0.40700
O 	O 	0.84496 0.61145 0.19243 -0.41500
C 	C 	0.85682 0.61219 0.13968 0.36300
C 	C 	0.87343 0.58140 0.12297 -0.13000
C 	C 	0.87613 0.55402 0.16524 0.07300
H 	H 	0.86700 0.55430 0.20410 0.01600
C 	C 	0.89200 0.52664 0.15110 -0.16000
H 	H 	0.89420 0.50930 0.18070 0.09700
C 	C 	0.90489 0.52440 0.09340 0.11300
C 	C 	0.90112 0.55142 0.04850 -0.15100
H 	H 	0.90860 0.55010 0.00910 0.08600
C 	C 	0.88605 0.57964 0.06510 0.06800
H 	H 	0.88440 0.59790 0.03650 0.02300
C 	C 	0.92424 0.49663 0.07451 -0.07500
C 	C 	0.96052 0.51385 0.03880 -0.03900
H 	H 	0.97250 0.54290 0.02660 0.04500
H 	H 	0.82610 0.39060 0.07420 -0.10500
H 	H 	0.79480 0.41970 0.16980 0.30800
O 	O 	0.52441 0.97082 0.43152 -0.40700
O 	O 	0.51163 0.94478 0.52576 -0.41500
C 	C 	0.52349 0.94552 0.47301 0.36300
C 	C 	0.54010 0.91473 0.45630 -0.13000
C 	C 	0.54280 0.88735 0.49857 0.07300
H 	H 	0.53367 0.88763 0.53743 0.01600
C 	C 	0.55867 0.85997 0.48443 -0.16000
H 	H 	0.56087 0.84263 0.51403 0.09700
C 	C 	0.57156 0.85773 0.42673 0.11300
C 	C 	0.56779 0.88475 0.38183 -0.15100
H 	H 	0.57527 0.88343 0.34243 0.08600
C 	C 	0.55272 0.91297 0.39843 0.06800
H 	H 	0.55107 0.93123 0.36983 0.02300
C 	C 	0.59091 0.82996 0.40784 -0.07500
C 	C 	0.62719 0.84718 0.37213 -0.03900
H 	H 	0.63917 0.87623 0.35993 0.04500
H 	H 	0.49277 0.72393 0.40753 -0.10500
H 	H 	0.46147 0.75303 0.50313 0.30800
O 	O 	0.19107 0.30416 0.76486 -0.40700
O 	O 	0.17829 0.27812 0.85910 -0.41500
C 	C 	0.19015 0.27886 0.80635 0.36300
C 	C 	0.20676 0.24807 0.78964 -0.13000
C 	C 	0.20946 0.22069 0.83191 0.07300
H 	H 	0.20033 0.22097 0.87077 0.01600
C 	C 	0.22533 0.19331 0.81777 -0.16000
H 	H 	0.22753 0.17597 0.84737 0.09700
C 	C 	0.23822 0.19107 0.76007 0.11300
C 	C 	0.23445 0.21809 0.71517 -0.15100
H 	H 	0.24193 0.21677 0.67577 0.08600
C 	C 	0.21938 0.24631 0.73177 0.06800
H 	H 	0.21773 0.26457 0.70317 0.02300
C 	C 	0.25757 0.16330 0.74118 -0.07500
C 	C 	0.29385 0.18052 0.70547 -0.03900
H 	H 	0.30583 0.20957 0.69327 0.04500
H 	H 	0.15943 0.05727 0.74087 -0.10500
H 	H 	0.12813 0.08637 0.83647 0.30800
O 	O 	0.22025 0.36251 0.90181 -0.40700
O 	O 	0.23351 0.38855 0.80757 -0.41500
C 	C 	0.24463 0.38781 0.86032 0.36300
C 	C 	0.29203 0.41860 0.87703 -0.13000
C 	C 	0.32211 0.44598 0.83476 0.07300
H 	H 	0.31270 0.44570 0.79590 0.01600
C 	C 	0.36536 0.47336 0.84890 -0.16000
H 	H 	0.38490 0.49070 0.81930 0.09700
C 	C 	0.38049 0.47560 0.90660 0.11300
C 	C 	0.34970 0.44858 0.95150 -0.15100
H 	H 	0.35850 0.44990 0.99090 0.08600
C 	C 	0.30641 0.42036 0.93490 0.06800
H 	H 	0.28650 0.40210 0.96350 0.02300
C 	C 	0.42761 0.50337 0.92549 -0.07500
C 	C 	0.44667 0.48615 0.96120 -0.03900
H 	H 	0.42960 0.45710 0.97340 0.04500
H 	H 	0.43550 0.60940 0.92580 -0.10500
H 	H 	0.37510 0.58030 0.83020 0.30800
O 	O 	0.88692 0.69584 0.23514 -0.40700
O 	O 	0.90018 0.72188 0.14090 -0.41500
C 	C 	0.91130 0.72114 0.19365 0.36300
C 	C 	0.95870 0.75193 0.21036 -0.13000
C 	C 	0.98878 0.77931 0.16809 0.07300
H 	H 	0.97937 0.77903 0.12923 0.01600
C 	C 	0.03203 0.80669 0.18223 -0.16000
H 	H 	0.05157 0.82403 0.15263 0.09700
C 	C 	0.04716 0.80893 0.23993 0.11300
C 	C 	0.01637 0.78191 0.28483 -0.15100
H 	H 	0.02517 0.78323 0.32423 0.08600
C 	C 	0.97308 0.75369 0.26823 0.06700
H 	H 	0.95317 0.73543 0.29683 0.02300
C 	C 	0.09428 0.83670 0.25882 -0.07500
C 	C 	0.11334 0.81948 0.29453 -0.03900
H 	H 	0.09627 0.79043 0.30673 0.04500
H 	H 	0.10217 0.94273 0.25913 -0.10500
H 	H 	0.04177 0.91363 0.16353 0.30800
O 	O 	0.55358 0.02918 0.56848 -0.40700
O 	O 	0.56684 0.05522 0.47424 -0.41500
C 	C 	0.57796 0.05448 0.52699 0.36300
C 	C 	0.62536 0.08527 0.54370 -0.13000
C 	C 	0.65544 0.11265 0.50143 0.07300
H 	H 	0.64603 0.11237 0.46257 0.01600
C 	C 	0.69869 0.14003 0.51557 -0.16000
H 	H 	0.71823 0.15737 0.48597 0.09700
C 	C 	0.71382 0.14227 0.57327 0.11300
C 	C 	0.68303 0.11525 0.61817 -0.15100
H 	H 	0.69183 0.11657 0.65757 0.08600
C 	C 	0.63974 0.08703 0.60157 0.06800
H 	H 	0.61983 0.06877 0.63017 0.02300
C 	C 	0.76094 0.17004 0.59216 -0.07500
C 	C 	0.78000 0.15282 0.62787 -0.03900
H 	H 	0.76293 0.12377 0.64007 0.04500
H 	H 	0.76883 0.27607 0.59247 -0.10500
H 	H 	0.70843 0.24697 0.49687 0.30800
O 	O 	0.14226 0.77975 0.90181 -0.40700
O 	O 	0.15504 0.76649 0.80757 -0.41500
C 	C 	0.14318 0.75537 0.86032 0.36300
C 	C 	0.12657 0.70797 0.87703 -0.13000
C 	C 	0.12387 0.67789 0.83476 0.07300
H 	H 	0.13300 0.68730 0.79590 0.01600
C 	C 	0.10800 0.63464 0.84890 -0.16000
H 	H 	0.10580 0.61510 0.81930 0.09700
C 	C 	0.09511 0.61951 0.90660 0.11300
C 	C 	0.09888 0.65030 0.95150 -0.15100
H 	H 	0.09140 0.64150 0.99090 0.08600
C 	C 	0.11395 0.69359 0.93490 0.06800
H 	H 	0.11560 0.71350 0.96350 0.02300
C 	C 	0.07576 0.57239 0.92549 -0.07500
C 	C 	0.03948 0.55333 0.96120 -0.03900
H 	H 	0.02750 0.57040 0.97340 0.04500
H 	H 	0.17390 0.56450 0.92580 -0.10500
H 	H 	0.20520 0.62490 0.83020 0.30800
O 	O 	0.80893 0.11308 0.23514 -0.40700
O 	O 	0.82171 0.09982 0.14090 -0.41500
C 	C 	0.80985 0.08870 0.19365 0.36300
C 	C 	0.79324 0.04130 0.21036 -0.13000
C 	C 	0.79054 0.01122 0.16809 0.07300
H 	H 	0.79967 0.02063 0.12923 0.01600
C 	C 	0.77467 0.96797 0.18223 -0.16000
H 	H 	0.77247 0.94843 0.15263 0.09700
C 	C 	0.76178 0.95284 0.23993 0.11300
C 	C 	0.76555 0.98363 0.28483 -0.15100
H 	H 	0.75807 0.97483 0.32423 0.08600
C 	C 	0.78062 0.02692 0.26823 0.06800
H 	H 	0.78227 0.04683 0.29683 0.02300
C 	C 	0.74243 0.90572 0.25882 -0.07500
C 	C 	0.70615 0.88666 0.29453 -0.03900
H 	H 	0.69417 0.90373 0.30673 0.04500
H 	H 	0.84057 0.89783 0.25913 -0.10500
H 	H 	0.87187 0.95823 0.16353 0.30800
O 	O 	0.47559 0.44642 0.56848 -0.40700
O 	O 	0.48837 0.43316 0.47424 -0.41500
C 	C 	0.47651 0.42204 0.52699 0.36300
C 	C 	0.45990 0.37464 0.54370 -0.13100
C 	C 	0.45720 0.34456 0.50143 0.07300
H 	H 	0.46633 0.35397 0.46257 0.01600
C 	C 	0.44133 0.30131 0.51557 -0.16000
H 	H 	0.43913 0.28177 0.48597 0.09700
C 	C 	0.42844 0.28618 0.57327 0.11300
C 	C 	0.43221 0.31697 0.61817 -0.15100
H 	H 	0.42473 0.30817 0.65757 0.08600
C 	C 	0.44728 0.36026 0.60157 0.06800
H 	H 	0.44893 0.38017 0.63017 0.02300
C 	C 	0.40909 0.23906 0.59216 -0.07500
C 	C 	0.37281 0.22000 0.62787 -0.03900
H 	H 	0.36083 0.23707 0.64007 0.04500
H 	H 	0.50723 0.23117 0.59247 -0.10500
H 	H 	0.53853 0.29157 0.49687 0.30800
O 	O 	0.63749 0.85774 0.90181 -0.40700
O 	O 	0.61145 0.84496 0.80757 -0.41500
C 	C 	0.61219 0.85682 0.86032 0.36300
C 	C 	0.58140 0.87343 0.87703 -0.13000
C 	C 	0.55402 0.87613 0.83476 0.07300
H 	H 	0.55430 0.86700 0.79590 0.01600
C 	C 	0.52664 0.89200 0.84890 -0.16000
H 	H 	0.50930 0.89420 0.81930 0.09700
C 	C 	0.52440 0.90489 0.90660 0.11300
C 	C 	0.55142 0.90112 0.95150 -0.15100
H 	H 	0.55010 0.90860 0.99090 0.08600
C 	C 	0.57964 0.88605 0.93490 0.06800
H 	H 	0.59790 0.88440 0.96350 0.02300
C 	C 	0.49663 0.92424 0.92549 -0.07500
C 	C 	0.51385 0.96052 0.96120 -0.03900
H 	H 	0.54290 0.97250 0.97340 0.04500
H 	H 	0.39060 0.82610 0.92580 -0.10500
H 	H 	0.41970 0.79480 0.83020 0.30800
O 	O 	0.30416 0.19107 0.23514 -0.40700
O 	O 	0.27812 0.17829 0.14090 -0.41500
C 	C 	0.27886 0.19015 0.19365 0.36300
C 	C 	0.24807 0.20676 0.21036 -0.13000
C 	C 	0.22069 0.20946 0.16809 0.07300
H 	H 	0.22097 0.20033 0.12923 0.01600
C 	C 	0.19331 0.22533 0.18223 -0.16000
H 	H 	0.17597 0.22753 0.15263 0.09700
C 	C 	0.19107 0.23822 0.23993 0.11300
C 	C 	0.21809 0.23445 0.28483 -0.15100
H 	H 	0.21677 0.24193 0.32423 0.08600
C 	C 	0.24631 0.21938 0.26823 0.06800
H 	H 	0.26457 0.21773 0.29683 0.02300
C 	C 	0.16330 0.25757 0.25882 -0.07500
C 	C 	0.18052 0.29385 0.29453 -0.03900
H 	H 	0.20957 0.30583 0.30673 0.04500
H 	H 	0.05727 0.15943 0.25913 -0.10500
H 	H 	0.08637 0.12813 0.16353 0.30800
O 	O 	0.97082 0.52441 0.56848 -0.40700
O 	O 	0.94478 0.51163 0.47424 -0.41500
C 	C 	0.94552 0.52349 0.52699 0.36300
C 	C 	0.91473 0.54010 0.54370 -0.13000
C 	C 	0.88735 0.54280 0.50143 0.07300
H 	H 	0.88763 0.53367 0.46257 0.01600
C 	C 	0.85997 0.55867 0.51557 -0.16000
H 	H 	0.84263 0.56087 0.48597 0.09700
C 	C 	0.85773 0.57156 0.57327 0.11300
C 	C 	0.88475 0.56779 0.61817 -0.15100
H 	H 	0.88343 0.57527 0.65757 0.08600
C 	C 	0.91297 0.55272 0.60157 0.06800
H 	H 	0.93123 0.55107 0.63017 0.02300
C 	C 	0.82996 0.59091 0.59216 -0.07500
C 	C 	0.84718 0.62719 0.62787 -0.03900
H 	H 	0.87623 0.63917 0.64007 0.04500
H 	H 	0.72393 0.49277 0.59247 -0.10500
H 	H 	0.75303 0.46147 0.49687 0.30800
O 	O 	0.63749 0.77975 0.90181 -0.40700
O 	O 	0.61145 0.76649 0.80757 -0.41500
C 	C 	0.61219 0.75537 0.86032 0.36300
C 	C 	0.58140 0.70797 0.87703 -0.13000
C 	C 	0.55402 0.67789 0.83476 0.07300
H 	H 	0.55430 0.68730 0.79590 0.01600
C 	C 	0.52664 0.63464 0.84890 -0.16000
H 	H 	0.50930 0.61510 0.81930 0.09700
C 	C 	0.52440 0.61951 0.90660 0.11300
C 	C 	0.55142 0.65030 0.95150 -0.15100
H 	H 	0.55010 0.64150 0.99090 0.08600
C 	C 	0.57964 0.69359 0.93490 0.06800
H 	H 	0.59790 0.71350 0.96350 0.02300
C 	C 	0.49663 0.57239 0.92549 -0.07500
C 	C 	0.51385 0.55333 0.96120 -0.03900
H 	H 	0.54290 0.57040 0.97340 0.04500
H 	H 	0.39060 0.56450 0.92580 -0.10500
H 	H 	0.41970 0.62490 0.83020 0.30800
O 	O 	0.30416 0.11308 0.23514 -0.40700
O 	O 	0.27812 0.09982 0.14090 -0.41500
C 	C 	0.27886 0.08870 0.19365 0.36300
C 	C 	0.24807 0.04130 0.21036 -0.13000
C 	C 	0.22069 0.01122 0.16809 0.07300
H 	H 	0.22097 0.02063 0.12923 0.01600
C 	C 	0.19331 0.96797 0.18223 -0.16000
H 	H 	0.17597 0.94843 0.15263 0.09700
C 	C 	0.19107 0.95284 0.23993 0.11300
C 	C 	0.21809 0.98363 0.28483 -0.15100
H 	H 	0.21677 0.97483 0.32423 0.08600
C 	C 	0.24631 0.02692 0.26823 0.06700
H 	H 	0.26457 0.04683 0.29683 0.02300
C 	C 	0.16330 0.90572 0.25882 -0.07500
C 	C 	0.18052 0.88666 0.29453 -0.03900
H 	H 	0.20957 0.90373 0.30673 0.04500
H 	H 	0.05727 0.89783 0.25913 -0.10500
H 	H 	0.08637 0.95823 0.16353 0.30800
O 	O 	0.97082 0.44642 0.56848 -0.40700
O 	O 	0.94478 0.43316 0.47424 -0.41500
C 	C 	0.94552 0.42204 0.52699 0.36300
C 	C 	0.91473 0.37464 0.54370 -0.13000
C 	C 	0.88735 0.34456 0.50143 0.07300
H 	H 	0.88763 0.35397 0.46257 0.01600
C 	C 	0.85997 0.30131 0.51557 -0.16000
H 	H 	0.84263 0.28177 0.48597 0.09700
C 	C 	0.85773 0.28618 0.57327 0.11300
C 	C 	0.88475 0.31697 0.61817 -0.15100
H 	H 	0.88343 0.30817 0.65757 0.08600
C 	C 	0.91297 0.36026 0.60157 0.06800
H 	H 	0.93123 0.38017 0.63017 0.02300
C 	C 	0.82996 0.23906 0.59216 -0.07500
C 	C 	0.84718 0.22000 0.62787 -0.03900
H 	H 	0.87623 0.23707 0.64007 0.04500
H 	H 	0.72393 0.23117 0.59247 -0.10500
H 	H 	0.75303 0.29157 0.49687 0.30800
O 	O 	0.22025 0.85774 0.90181 -0.40700
O 	O 	0.23351 0.84496 0.80757 -0.41500
C 	C 	0.24463 0.85682 0.86032 0.36300
C 	C 	0.29203 0.87343 0.87703 -0.13000
C 	C 	0.32211 0.87613 0.83476 0.07300
H 	H 	0.31270 0.86700 0.79590 0.01600
C 	C 	0.36536 0.89200 0.84890 -0.16000
H 	H 	0.38490 0.89420 0.81930 0.09700
C 	C 	0.38049 0.90489 0.90660 0.11300
C 	C 	0.34970 0.90112 0.95150 -0.15100
H 	H 	0.35850 0.90860 0.99090 0.08600
C 	C 	0.30641 0.88605 0.93490 0.06800
H 	H 	0.28650 0.88440 0.96350 0.02300
C 	C 	0.42761 0.92424 0.92549 -0.07500
C 	C 	0.44667 0.96052 0.96120 -0.03900
H 	H 	0.42960 0.97250 0.97340 0.04500
H 	H 	0.43550 0.82610 0.92580 -0.10500
H 	H 	0.37510 0.79480 0.83020 0.30800
O 	O 	0.88692 0.19107 0.23514 -0.40700
O 	O 	0.90018 0.17829 0.14090 -0.41500
C 	C 	0.91130 0.19015 0.19365 0.36300
C 	C 	0.95870 0.20676 0.21036 -0.13000
C 	C 	0.98878 0.20946 0.16809 0.07300
H 	H 	0.97937 0.20033 0.12923 0.01600
C 	C 	0.03203 0.22533 0.18223 -0.16000
H 	H 	0.05157 0.22753 0.15263 0.09700
C 	C 	0.04716 0.23822 0.23993 0.11300
C 	C 	0.01637 0.23445 0.28483 -0.15100
H 	H 	0.02517 0.24193 0.32423 0.08600
C 	C 	0.97308 0.21938 0.26823 0.06800
H 	H 	0.95317 0.21773 0.29683 0.02300
C 	C 	0.09428 0.25757 0.25882 -0.07500
C 	C 	0.11334 0.29385 0.29453 -0.03900
H 	H 	0.09627 0.30583 0.30673 0.04500
H 	H 	0.10217 0.15943 0.25913 -0.10500
H 	H 	0.04177 0.12813 0.16353 0.30800
O 	O 	0.55358 0.52441 0.56848 -0.40700
O 	O 	0.56684 0.51163 0.47424 -0.41500
C 	C 	0.57796 0.52349 0.52699 0.36300
C 	C 	0.62536 0.54010 0.54370 -0.13100
C 	C 	0.65544 0.54280 0.50143 0.07300
H 	H 	0.64603 0.53367 0.46257 0.01600
C 	C 	0.69869 0.55867 0.51557 -0.16000
H 	H 	0.71823 0.56087 0.48597 0.09700
C 	C 	0.71382 0.57156 0.57327 0.11300
C 	C 	0.68303 0.56779 0.61817 -0.15100
H 	H 	0.69183 0.57527 0.65757 0.08600
C 	C 	0.63974 0.55272 0.60157 0.06800
H 	H 	0.61983 0.55107 0.63017 0.02300
C 	C 	0.76094 0.59091 0.59216 -0.07500
C 	C 	0.78000 0.62719 0.62787 -0.03900
H 	H 	0.76293 0.63917 0.64007 0.04500
H 	H 	0.76883 0.49277 0.59247 -0.10500
H 	H 	0.70843 0.46147 0.49687 0.30800
O 	O 	0.14226 0.36251 0.90181 -0.40700
O 	O 	0.15504 0.38855 0.80757 -0.41500
C 	C 	0.14318 0.38781 0.86032 0.36300
C 	C 	0.12657 0.41860 0.87703 -0.13000
C 	C 	0.12387 0.44598 0.83476 0.07300
H 	H 	0.13300 0.44570 0.79590 0.01600
C 	C 	0.10800 0.47336 0.84890 -0.16000
H 	H 	0.10580 0.49070 0.81930 0.09700
C 	C 	0.09511 0.47560 0.90660 0.11300
C 	C 	0.09888 0.44858 0.95150 -0.15100
H 	H 	0.09140 0.44990 0.99090 0.08600
C 	C 	0.11395 0.42036 0.93490 0.06800
H 	H 	0.11560 0.40210 0.96350 0.02300
C 	C 	0.07576 0.50337 0.92549 -0.07500
C 	C 	0.03948 0.48615 0.96120 -0.03900
H 	H 	0.02750 0.45710 0.97340 0.04500
H 	H 	0.17390 0.60940 0.92580 -0.10500
H 	H 	0.20520 0.58030 0.83020 0.30800
O 	O 	0.80893 0.69584 0.23514 -0.40700
O 	O 	0.82171 0.72188 0.14090 -0.41500
C 	C 	0.80985 0.72114 0.19365 0.36300
C 	C 	0.79324 0.75193 0.21036 -0.13000
C 	C 	0.79054 0.77931 0.16809 0.07300
H 	H 	0.79967 0.77903 0.12923 0.01600
C 	C 	0.77467 0.80669 0.18223 -0.16000
H 	H 	0.77247 0.82403 0.15263 0.09700
C 	C 	0.76178 0.80893 0.23993 0.11300
C 	C 	0.76555 0.78191 0.28483 -0.15100
H 	H 	0.75807 0.78323 0.32423 0.08600
C 	C 	0.78062 0.75369 0.26823 0.06800
H 	H 	0.78227 0.73543 0.29683 0.02300
C 	C 	0.74243 0.83670 0.25882 -0.07500
C 	C 	0.70615 0.81948 0.29453 -0.03900
H 	H 	0.69417 0.79043 0.30673 0.04500
H 	H 	0.84057 0.94273 0.25913 -0.10500
H 	H 	0.87187 0.91363 0.16353 0.30800
O 	O 	0.47559 0.02918 0.56848 -0.40700
O 	O 	0.48837 0.05522 0.47424 -0.41500
C 	C 	0.47651 0.05448 0.52699 0.36300
C 	C 	0.45990 0.08527 0.54370 -0.13000
C 	C 	0.45720 0.11265 0.50143 0.07300
H 	H 	0.46633 0.11237 0.46257 0.01600
C 	C 	0.44133 0.14003 0.51557 -0.16000
H 	H 	0.43913 0.15737 0.48597 0.09700
C 	C 	0.42844 0.14227 0.57327 0.11300
C 	C 	0.43221 0.11525 0.61817 -0.15100
H 	H 	0.42473 0.11657 0.65757 0.08600
C 	C 	0.44728 0.08703 0.60157 0.06800
H 	H 	0.44893 0.06877 0.63017 0.02300
C 	C 	0.40909 0.17004 0.59216 -0.07500
C 	C 	0.37281 0.15282 0.62787 -0.03900
H 	H 	0.36083 0.12377 0.64007 0.04500
H 	H 	0.50723 0.27607 0.59247 -0.10500
H 	H 	0.53853 0.24697 0.49687 0.30800
O 	O 	0.77975 0.63749 0.09819 -0.40700
O 	O 	0.76649 0.61145 0.19243 -0.41500
C 	C 	0.75537 0.61219 0.13968 0.36300
C 	C 	0.70797 0.58140 0.12297 -0.13000
C 	C 	0.67789 0.55402 0.16524 0.07300
H 	H 	0.68730 0.55430 0.20410 0.01600
C 	C 	0.63464 0.52664 0.15110 -0.16000
H 	H 	0.61510 0.50930 0.18070 0.09700
C 	C 	0.61951 0.52440 0.09340 0.11300
C 	C 	0.65030 0.55142 0.04850 -0.15100
H 	H 	0.64150 0.55010 0.00910 0.08600
C 	C 	0.69359 0.57964 0.06510 0.06800
H 	H 	0.71350 0.59790 0.03650 0.02300
C 	C 	0.57239 0.49663 0.07451 -0.07500
C 	C 	0.55333 0.51385 0.03880 -0.03900
H 	H 	0.57040 0.54290 0.02660 0.04500
H 	H 	0.56450 0.39060 0.07420 -0.10500
H 	H 	0.62490 0.41970 0.16980 0.30800
O 	O 	0.44642 0.97082 0.43152 -0.40700
O 	O 	0.43316 0.94478 0.52576 -0.41500
C 	C 	0.42204 0.94552 0.47301 0.36300
C 	C 	0.37464 0.91473 0.45630 -0.13000
C 	C 	0.34456 0.88735 0.49857 0.07300
H 	H 	0.35397 0.88763 0.53743 0.01600
C 	C 	0.30131 0.85997 0.48443 -0.16000
H 	H 	0.28177 0.84263 0.51403 0.09700
C 	C 	0.28618 0.85773 0.42673 0.11300
C 	C 	0.31697 0.88475 0.38183 -0.15100
H 	H 	0.30817 0.88343 0.34243 0.08600
C 	C 	0.36026 0.91297 0.39843 0.06800
H 	H 	0.38017 0.93123 0.36983 0.02300
C 	C 	0.23906 0.82996 0.40784 -0.07500
C 	C 	0.22000 0.84718 0.37213 -0.03900
H 	H 	0.23707 0.87623 0.35993 0.04500
H 	H 	0.23117 0.72393 0.40753 -0.10500
H 	H 	0.29157 0.75303 0.50313 0.30800
O 	O 	0.11308 0.30416 0.76486 -0.40700
O 	O 	0.09982 0.27812 0.85910 -0.41500
C 	C 	0.08870 0.27886 0.80635 0.36300
C 	C 	0.04130 0.24807 0.78964 -0.13000
C 	C 	0.01122 0.22069 0.83191 0.07300
H 	H 	0.02063 0.22097 0.87077 0.01600
C 	C 	0.96797 0.19331 0.81777 -0.16000
H 	H 	0.94843 0.17597 0.84737 0.09700
C 	C 	0.95284 0.19107 0.76007 0.11300
C 	C 	0.98363 0.21809 0.71517 -0.15100
H 	H 	0.97483 0.21677 0.67577 0.08600
C 	C 	0.02692 0.24631 0.73177 0.06700
H 	H 	0.04683 0.26457 0.70317 0.02300
C 	C 	0.90572 0.16330 0.74118 -0.07500
C 	C 	0.88666 0.18052 0.70547 -0.03900
H 	H 	0.90373 0.20957 0.69327 0.04500
H 	H 	0.89783 0.05727 0.74087 -0.10500
H 	H 	0.95823 0.08637 0.83647 0.30800
O 	O 	0.85774 0.22025 0.09819 -0.40700
O 	O 	0.84496 0.23351 0.19243 -0.41500
C 	C 	0.85682 0.24463 0.13968 0.36300
C 	C 	0.87343 0.29203 0.12297 -0.13000
C 	C 	0.87613 0.32211 0.16524 0.07300
H 	H 	0.86700 0.31270 0.20410 0.01600
C 	C 	0.89200 0.36536 0.15110 -0.16000
H 	H 	0.89420 0.38490 0.18070 0.09700
C 	C 	0.90489 0.38049 0.09340 0.11300
C 	C 	0.90112 0.34970 0.04850 -0.15100
H 	H 	0.90860 0.35850 0.00910 0.08600
C 	C 	0.88605 0.30641 0.06510 0.06800
H 	H 	0.88440 0.28650 0.03650 0.02300
C 	C 	0.92424 0.42761 0.07451 -0.07500
C 	C 	0.96052 0.44667 0.03880 -0.03900
H 	H 	0.97250 0.42960 0.02660 0.04500
H 	H 	0.82610 0.43550 0.07420 -0.10500
H 	H 	0.79480 0.37510 0.16980 0.30800
O 	O 	0.52441 0.55358 0.43152 -0.40700
O 	O 	0.51163 0.56684 0.52576 -0.41500
C 	C 	0.52349 0.57796 0.47301 0.36300
C 	C 	0.54010 0.62536 0.45630 -0.13100
C 	C 	0.54280 0.65544 0.49857 0.07300
H 	H 	0.53367 0.64603 0.53743 0.01600
C 	C 	0.55867 0.69869 0.48443 -0.16000
H 	H 	0.56087 0.71823 0.51403 0.09700
C 	C 	0.57156 0.71382 0.42673 0.11300
C 	C 	0.56779 0.68303 0.38183 -0.15100
H 	H 	0.57527 0.69183 0.34243 0.08600
C 	C 	0.55272 0.63974 0.39843 0.06800
H 	H 	0.55107 0.61983 0.36983 0.02300
C 	C 	0.59091 0.76094 0.40784 -0.07500
C 	C 	0.62719 0.78000 0.37213 -0.03900
H 	H 	0.63917 0.76293 0.35993 0.04500
H 	H 	0.49277 0.76883 0.40753 -0.10500
H 	H 	0.46147 0.70843 0.50313 0.30800
O 	O 	0.19107 0.88692 0.76486 -0.40700
O 	O 	0.17829 0.90018 0.85910 -0.41500
C 	C 	0.19015 0.91130 0.80635 0.36300
C 	C 	0.20676 0.95870 0.78964 -0.13000
C 	C 	0.20946 0.98878 0.83191 0.07300
H 	H 	0.20033 0.97937 0.87077 0.01600
C 	C 	0.22533 0.03203 0.81777 -0.16000
H 	H 	0.22753 0.05157 0.84737 0.09700
C 	C 	0.23822 0.04716 0.76007 0.11300
C 	C 	0.23445 0.01637 0.71517 -0.15100
H 	H 	0.24193 0.02517 0.67577 0.08600
C 	C 	0.21938 0.97308 0.73177 0.06800
H 	H 	0.21773 0.95317 0.70317 0.02300
C 	C 	0.25757 0.09428 0.74118 -0.07500
C 	C 	0.29385 0.11334 0.70547 -0.03900
H 	H 	0.30583 0.09627 0.69327 0.04500
H 	H 	0.15943 0.10217 0.74087 -0.10500
H 	H 	0.12813 0.04177 0.83647 0.30800
O 	O 	0.36251 0.14226 0.09819 -0.40700
O 	O 	0.38855 0.15504 0.19243 -0.41500
C 	C 	0.38781 0.14318 0.13968 0.36300
C 	C 	0.41860 0.12657 0.12297 -0.13000
C 	C 	0.44598 0.12387 0.16524 0.07300
H 	H 	0.44570 0.13300 0.20410 0.01600
C 	C 	0.47336 0.10800 0.15110 -0.16000
H 	H 	0.49070 0.10580 0.18070 0.09700
C 	C 	0.47560 0.09511 0.09340 0.11300
C 	C 	0.44858 0.09888 0.04850 -0.15100
H 	H 	0.44990 0.09140 0.00910 0.08600
C 	C 	0.42036 0.11395 0.06510 0.06800
H 	H 	0.40210 0.11560 0.03650 0.02300
C 	C 	0.50337 0.07576 0.07451 -0.07500
C 	C 	0.48615 0.03948 0.03880 -0.03900
H 	H 	0.45710 0.02750 0.02660 0.04500
H 	H 	0.60940 0.17390 0.07420 -0.10500
H 	H 	0.58030 0.20520 0.16980 0.30800
O 	O 	0.02918 0.47559 0.43152 -0.40700
O 	O 	0.05522 0.48837 0.52576 -0.41500
C 	C 	0.05448 0.47651 0.47301 0.36300
C 	C 	0.08527 0.45990 0.45630 -0.13000
C 	C 	0.11265 0.45720 0.49857 0.07300
H 	H 	0.11237 0.46633 0.53743 0.01600
C 	C 	0.14003 0.44133 0.48443 -0.16000
H 	H 	0.15737 0.43913 0.51403 0.09700
C 	C 	0.14227 0.42844 0.42673 0.11300
C 	C 	0.11525 0.43221 0.38183 -0.15100
H 	H 	0.11657 0.42473 0.34243 0.08600
C 	C 	0.08703 0.44728 0.39843 0.06800
H 	H 	0.06877 0.44893 0.36983 0.02300
C 	C 	0.17004 0.40909 0.40784 -0.07500
C 	C 	0.15282 0.37281 0.37213 -0.03900
H 	H 	0.12377 0.36083 0.35993 0.04500
H 	H 	0.27607 0.50723 0.40753 -0.10500
H 	H 	0.24697 0.53853 0.50313 0.30800
O 	O 	0.69584 0.80893 0.76486 -0.40700
O 	O 	0.72188 0.82171 0.85910 -0.41500
C 	C 	0.72114 0.80985 0.80635 0.36300
C 	C 	0.75193 0.79324 0.78964 -0.13000
C 	C 	0.77931 0.79054 0.83191 0.07300
H 	H 	0.77903 0.79967 0.87077 0.01600
C 	C 	0.80669 0.77467 0.81777 -0.16000
H 	H 	0.82403 0.77247 0.84737 0.09700
C 	C 	0.80893 0.76178 0.76007 0.11300
C 	C 	0.78191 0.76555 0.71517 -0.15100
H 	H 	0.78323 0.75807 0.67577 0.08600
C 	C 	0.75369 0.78062 0.73177 0.06800
H 	H 	0.73543 0.78227 0.70317 0.02300
C 	C 	0.83670 0.74243 0.74118 -0.07500
C 	C 	0.81948 0.70615 0.70547 -0.03900
H 	H 	0.79043 0.69417 0.69327 0.04500
H 	H 	0.94273 0.84057 0.74087 -0.10500
H 	H 	0.91363 0.87187 0.83647 0.30800
Cu	Cu	0.31816 0.15908 0.11261 0.90400
Cu	Cu	0.98483 0.49241 0.44594 0.90400
Cu	Cu	0.65149 0.82575 0.77928 0.90400
Cu	Cu	0.84092 0.15908 0.11261 0.90400
Cu	Cu	0.50759 0.49241 0.44594 0.90400
Cu	Cu	0.17425 0.82575 0.77928 0.90400
Cu	Cu	0.84092 0.68184 0.11261 0.90400
Cu	Cu	0.50759 0.01517 0.44594 0.90400
Cu	Cu	0.17425 0.34851 0.77928 0.90400
Cu	Cu	0.15908 0.31816 0.88739 0.90400
Cu	Cu	0.82575 0.65149 0.22072 0.90400
Cu	Cu	0.49241 0.98483 0.55406 0.90400
Cu	Cu	0.15908 0.84092 0.88739 0.90400
Cu	Cu	0.82575 0.17425 0.22072 0.90400
Cu	Cu	0.49241 0.50759 0.55406 0.90400
Cu	Cu	0.68184 0.84092 0.88739 0.90400
Cu	Cu	0.34851 0.17425 0.22072 0.90400
Cu	Cu	0.01517 0.50759 0.55406 0.90400
O 	O 	0.56496 0.43504 0.13260 -0.29800
C 	C 	0.50960 0.49040 0.01940 0.00400
C 	C 	0.54712 0.45288 0.09470 0.15600
C 	C 	0.58589 0.41411 0.09930 0.45500
C 	C 	0.60385 0.39615 0.14540 -0.93400
H 	H 	0.61790 0.38210 0.12580 0.29500
O 	O 	0.23163 0.76837 0.46593 -0.29800
C 	C 	0.17627 0.82373 0.35273 0.00400
C 	C 	0.21379 0.78621 0.42803 0.15600
C 	C 	0.25256 0.74744 0.43263 0.45500
C 	C 	0.27052 0.72948 0.47873 -0.93400
H 	H 	0.28457 0.71543 0.45913 0.29500
O 	O 	0.89829 0.10171 0.79927 -0.29800
C 	C 	0.84293 0.15707 0.68607 0.00400
C 	C 	0.88045 0.11955 0.76137 0.15600
C 	C 	0.91922 0.08078 0.76597 0.45500
C 	C 	0.93718 0.06282 0.81207 -0.93400
H 	H 	0.95123 0.04877 0.79247 0.29500
O 	O 	0.56496 0.12992 0.13260 -0.29800
C 	C 	0.50960 0.01920 0.01940 0.00400
C 	C 	0.54712 0.09424 0.09470 0.15600
C 	C 	0.58589 0.17178 0.09930 0.45500
C 	C 	0.60385 0.20770 0.14540 -0.93400
H 	H 	0.61790 0.23580 0.12580 0.29500
O 	O 	0.23163 0.46325 0.46593 -0.29800
C 	C 	0.17627 0.35253 0.35273 0.00400
C 	C 	0.21379 0.42757 0.42803 0.15600
C 	C 	0.25256 0.50511 0.43263 0.45500
C 	C 	0.27052 0.54103 0.47873 -0.93400
H 	H 	0.28457 0.56913 0.45913 0.29500
O 	O 	0.89829 0.79659 0.79927 -0.29800
C 	C 	0.84293 0.68587 0.68607 0.00400
C 	C 	0.88045 0.76091 0.76137 0.15600
C 	C 	0.91922 0.83845 0.76597 0.45500
C 	C 	0.93718 0.87437 0.81207 -0.93400
H 	H 	0.95123 0.90247 0.79247 0.29500
O 	O 	0.87008 0.43504 0.13260 -0.29800
C 	C 	0.98080 0.49040 0.01940 0.00400
C 	C 	0.90576 0.45288 0.09470 0.15600
C 	C 	0.82822 0.41411 0.09930 0.45500
C 	C 	0.79230 0.39615 0.14540 -0.93400
H 	H 	0.76420 0.38210 0.12580 0.29500
O 	O 	0.53675 0.76837 0.46593 -0.29800
C 	C 	0.64747 0.82373 0.35273 0.00400
C 	C 	0.57243 0.78621 0.42803 0.15600
C 	C 	0.49489 0.74744 0.43263 0.45500
C 	C 	0.45897 0.72948 0.47873 -0.93400
H 	H 	0.43087 0.71543 0.45913 0.29500
O 	O 	0.20341 0.10171 0.79927 -0.29800
C 	C 	0.31413 0.15707 0.68607 0.00400
C 	C 	0.23909 0.11955 0.76137 0.15600
C 	C 	0.16155 0.08078 0.76597 0.45500
C 	C 	0.12563 0.06282 0.81207 -0.93400
H 	H 	0.09753 0.04877 0.79247 0.29500
O 	O 	0.43504 0.56496 0.86740 -0.29800
C 	C 	0.49040 0.50960 0.98060 0.00400
C 	C 	0.45288 0.54712 0.90530 0.15600
C 	C 	0.41411 0.58589 0.90070 0.45500
C 	C 	0.39615 0.60385 0.85460 -0.93400
H 	H 	0.38210 0.61790 0.87420 0.29500
O 	O 	0.10171 0.89829 0.20073 -0.29800
C 	C 	0.15707 0.84293 0.31393 0.00400
C 	C 	0.11955 0.88045 0.23863 0.15600
C 	C 	0.08078 0.91922 0.23403 0.45500
C 	C 	0.06282 0.93718 0.18793 -0.93400
H 	H 	0.04877 0.95123 0.20753 0.29500
O 	O 	0.76837 0.23163 0.53407 -0.29800
C 	C 	0.82373 0.17627 0.64727 0.00400
C 	C 	0.78621 0.21379 0.57197 0.15600
C 	C 	0.74744 0.25256 0.56737 0.45500
C 	C 	0.72948 0.27052 0.52127 -0.93400
H 	H 	0.71543 0.28457 0.54087 0.29500
O 	O 	0.12992 0.56496 0.86740 -0.29800
C 	C 	0.01920 0.50960 0.98060 0.00400
C 	C 	0.09424 0.54712 0.90530 0.15600
C 	C 	0.17178 0.58589 0.90070 0.45500
C 	C 	0.20770 0.60385 0.85460 -0.93400
H 	H 	0.23580 0.61790 0.87420 0.29500
O 	O 	0.79659 0.89829 0.20073 -0.29800
C 	C 	0.68587 0.84293 0.31393 0.00400
C 	C 	0.76091 0.88045 0.23863 0.15600
C 	C 	0.83845 0.91922 0.23403 0.45500
C 	C 	0.87437 0.93718 0.18793 -0.93400
H 	H 	0.90247 0.95123 0.20753 0.29500
O 	O 	0.46325 0.23163 0.53407 -0.29800
C 	C 	0.35253 0.17627 0.64727 0.00400
C 	C 	0.42757 0.21379 0.57197 0.15600
C 	C 	0.50511 0.25256 0.56737 0.45500
C 	C 	0.54103 0.27052 0.52127 -0.93400
H 	H 	0.56913 0.28457 0.54087 0.29500
O 	O 	0.43504 0.87008 0.86740 -0.29800
C 	C 	0.49040 0.98080 0.98060 0.00400
C 	C 	0.45288 0.90576 0.90530 0.15600
C 	C 	0.41411 0.82822 0.90070 0.45500
C 	C 	0.39615 0.79230 0.85460 -0.93400
H 	H 	0.38210 0.76420 0.87420 0.29500
O 	O 	0.10171 0.20341 0.20073 -0.29800
C 	C 	0.15707 0.31413 0.31393 0.00400
C 	C 	0.11955 0.23909 0.23863 0.15600
C 	C 	0.08078 0.16155 0.23403 0.45500
C 	C 	0.06282 0.12563 0.18793 -0.93400
H 	H 	0.04877 0.09753 0.20753 0.29500
O 	O 	0.76837 0.53675 0.53407 -0.29800
C 	C 	0.82373 0.64747 0.64727 0.00400
C 	C 	0.78621 0.57243 0.57197 0.15600
C 	C 	0.74744 0.49489 0.56737 0.45500
C 	C 	0.72948 0.45897 0.52127 -0.93400
H 	H 	0.71543 0.43087 0.54087 0.29500
