data_crystal

_cell_length_a 34.94470
_cell_length_b 34.94470
_cell_length_c 23.33300
_cell_angle_alpha 90.00000
_cell_angle_beta  90.00000
_cell_angle_gamma 120.00000

_symmetry_space_group_name_	'P 1'
_symmetry_space_group_name_H-M	'P 1'

loop_
_symmetry_equiv_pos_as_xyz
  x,y,z

loop_
_atom_site_label
_atom_site_type_symbol
_atom_site_fract_x
_atom_site_fract_y
_atom_site_fract_z
_atom_site_charge
O 	O 	0.55323 0.02771 0.56690 -0.41100
O 	O 	0.56740 0.05623 0.47791 -0.42800
C 	C 	0.57817 0.05398 0.52759 0.37200
C 	C 	0.62523 0.08534 0.54635 -0.14500
C 	C 	0.65592 0.11361 0.50489 0.07700
H 	H 	0.64730 0.11310 0.46700 0.00200
C 	C 	0.69897 0.14201 0.52192 -0.19000
H 	H 	0.71910 0.16160 0.49530 0.10000
C 	C 	0.71287 0.14210 0.57713 0.15400
C 	C 	0.68236 0.11405 0.61772 -0.18000
H 	H 	0.69120 0.11460 0.65540 0.09700
C 	C 	0.63861 0.08524 0.60187 0.08600
H 	H 	0.61850 0.06600 0.62870 0.01500
C 	C 	0.75981 0.17058 0.59678 -0.12600
C 	C 	0.77954 0.15268 0.63071 -0.01300
H 	H 	0.76270 0.12350 0.64280 0.03500
H 	H 	0.72310 0.23200 0.60440 -0.64300
H 	H 	0.74910 0.29580 0.52360 1.01700
O 	O 	0.21990 0.36104 0.90023 -0.41000
O 	O 	0.23407 0.38956 0.81124 -0.42700
C 	C 	0.24484 0.38731 0.86092 0.37300
C 	C 	0.29190 0.41867 0.87968 -0.14400
C 	C 	0.32259 0.44694 0.83822 0.07800
H 	H 	0.31397 0.44643 0.80033 0.00300
C 	C 	0.36564 0.47534 0.85525 -0.18900
H 	H 	0.38577 0.49493 0.82863 0.10100
C 	C 	0.37954 0.47543 0.91046 0.15500
C 	C 	0.34903 0.44738 0.95105 -0.17900
H 	H 	0.35787 0.44793 0.98873 0.09700
C 	C 	0.30528 0.41857 0.93520 0.08600
H 	H 	0.28517 0.39933 0.96203 0.01500
C 	C 	0.42648 0.50391 0.93011 -0.12600
C 	C 	0.44621 0.48601 0.96404 -0.01300
H 	H 	0.42937 0.45683 0.97613 0.03500
H 	H 	0.38977 0.56533 0.93773 -0.64300
H 	H 	0.41577 0.62913 0.85693 1.01700
O 	O 	0.88656 0.69438 0.23357 -0.41000
O 	O 	0.90073 0.72290 0.14458 -0.42700
C 	C 	0.91150 0.72065 0.19426 0.37300
C 	C 	0.95856 0.75201 0.21302 -0.14400
C 	C 	0.98925 0.78028 0.17156 0.07700
H 	H 	0.98063 0.77977 0.13367 0.00300
C 	C 	0.03230 0.80868 0.18859 -0.18900
H 	H 	0.05243 0.82827 0.16197 0.10100
C 	C 	0.04620 0.80877 0.24380 0.15500
C 	C 	0.01569 0.78072 0.28439 -0.17900
H 	H 	0.02453 0.78127 0.32207 0.09700
C 	C 	0.97194 0.75191 0.26854 0.08500
H 	H 	0.95183 0.73267 0.29537 0.01500
C 	C 	0.09314 0.83725 0.26345 -0.12600
C 	C 	0.11287 0.81935 0.29738 -0.01300
H 	H 	0.09603 0.79017 0.30947 0.03500
H 	H 	0.05643 0.89867 0.27107 -0.64300
H 	H 	0.08243 0.96247 0.19027 1.01800
O 	O 	0.97229 0.52552 0.56690 -0.41000
O 	O 	0.94377 0.51117 0.47791 -0.42700
C 	C 	0.94602 0.52419 0.52759 0.37300
C 	C 	0.91466 0.53989 0.54635 -0.14400
C 	C 	0.88639 0.54231 0.50489 0.07800
H 	H 	0.88690 0.53420 0.46700 0.00300
C 	C 	0.85799 0.55696 0.52192 -0.18900
H 	H 	0.83840 0.55750 0.49530 0.10100
C 	C 	0.85790 0.57077 0.57713 0.15500
C 	C 	0.88595 0.56831 0.61772 -0.17900
H 	H 	0.88540 0.57660 0.65540 0.09700
C 	C 	0.91476 0.55337 0.60187 0.08600
H 	H 	0.93400 0.55250 0.62870 0.01500
C 	C 	0.82942 0.58923 0.59678 -0.12600
C 	C 	0.84732 0.62686 0.63071 -0.01300
H 	H 	0.87650 0.63920 0.64280 0.03500
H 	H 	0.76800 0.49110 0.60440 -0.64300
H 	H 	0.70420 0.45330 0.52360 1.01700
O 	O 	0.63896 0.85885 0.90023 -0.41000
O 	O 	0.61044 0.84450 0.81124 -0.42700
C 	C 	0.61269 0.85752 0.86092 0.37300
C 	C 	0.58133 0.87322 0.87968 -0.14400
C 	C 	0.55306 0.87564 0.83822 0.07800
H 	H 	0.55357 0.86753 0.80033 0.00300
C 	C 	0.52466 0.89029 0.85525 -0.18900
H 	H 	0.50507 0.89083 0.82863 0.10100
C 	C 	0.52457 0.90410 0.91046 0.15500
C 	C 	0.55262 0.90164 0.95105 -0.17900
H 	H 	0.55207 0.90993 0.98873 0.09700
C 	C 	0.58143 0.88670 0.93520 0.08600
H 	H 	0.60067 0.88583 0.96203 0.01500
C 	C 	0.49609 0.92256 0.93011 -0.12600
C 	C 	0.51399 0.96019 0.96404 -0.01300
H 	H 	0.54317 0.97253 0.97613 0.03500
H 	H 	0.43467 0.82443 0.93773 -0.64300
H 	H 	0.37087 0.78663 0.85693 1.01700
O 	O 	0.30562 0.19219 0.23357 -0.41000
O 	O 	0.27710 0.17784 0.14458 -0.42700
C 	C 	0.27935 0.19086 0.19426 0.37300
C 	C 	0.24799 0.20656 0.21302 -0.14400
C 	C 	0.21972 0.20898 0.17156 0.07800
H 	H 	0.22023 0.20087 0.13367 0.00300
C 	C 	0.19132 0.22363 0.18859 -0.18900
H 	H 	0.17173 0.22417 0.16197 0.10100
C 	C 	0.19123 0.23744 0.24380 0.15500
C 	C 	0.21928 0.23498 0.28439 -0.17900
H 	H 	0.21873 0.24327 0.32207 0.09700
C 	C 	0.24809 0.22004 0.26854 0.08600
H 	H 	0.26733 0.21917 0.29537 0.01500
C 	C 	0.16275 0.25590 0.26345 -0.12600
C 	C 	0.18065 0.29353 0.29738 -0.01300
H 	H 	0.20983 0.30587 0.30947 0.03500
H 	H 	0.10133 0.15777 0.27107 -0.64300
H 	H 	0.03753 0.11997 0.19027 1.01700
O 	O 	0.47448 0.44677 0.56690 -0.41000
O 	O 	0.48883 0.43260 0.47791 -0.42700
C 	C 	0.47581 0.42183 0.52759 0.37300
C 	C 	0.46011 0.37477 0.54635 -0.14400
C 	C 	0.45769 0.34408 0.50489 0.07800
H 	H 	0.46580 0.35270 0.46700 0.00300
C 	C 	0.44304 0.30103 0.52192 -0.18900
H 	H 	0.44250 0.28090 0.49530 0.10100
C 	C 	0.42923 0.28713 0.57713 0.15500
C 	C 	0.43169 0.31764 0.61772 -0.17900
H 	H 	0.42340 0.30880 0.65540 0.09700
C 	C 	0.44663 0.36139 0.60187 0.08600
H 	H 	0.44750 0.38150 0.62870 0.01500
C 	C 	0.41077 0.24019 0.59678 -0.12600
C 	C 	0.37314 0.22046 0.63071 -0.01300
H 	H 	0.36080 0.23730 0.64280 0.03500
H 	H 	0.50890 0.27690 0.60440 -0.64300
H 	H 	0.54670 0.25090 0.52360 1.01700
O 	O 	0.14115 0.78010 0.90023 -0.41000
O 	O 	0.15550 0.76593 0.81124 -0.42700
C 	C 	0.14248 0.75516 0.86092 0.37300
C 	C 	0.12678 0.70810 0.87968 -0.14400
C 	C 	0.12436 0.67741 0.83822 0.07800
H 	H 	0.13247 0.68603 0.80033 0.00300
C 	C 	0.10971 0.63436 0.85525 -0.18900
H 	H 	0.10917 0.61423 0.82863 0.10100
C 	C 	0.09590 0.62046 0.91046 0.15500
C 	C 	0.09836 0.65097 0.95105 -0.17900
H 	H 	0.09007 0.64213 0.98873 0.09700
C 	C 	0.11330 0.69472 0.93520 0.08600
H 	H 	0.11417 0.71483 0.96203 0.01500
C 	C 	0.07744 0.57352 0.93011 -0.12600
C 	C 	0.03981 0.55379 0.96404 -0.01300
H 	H 	0.02747 0.57063 0.97613 0.03500
H 	H 	0.17557 0.61023 0.93773 -0.64300
H 	H 	0.21337 0.58423 0.85693 1.01700
O 	O 	0.80781 0.11344 0.23357 -0.41000
O 	O 	0.82216 0.09927 0.14458 -0.42700
C 	C 	0.80914 0.08850 0.19426 0.37300
C 	C 	0.79344 0.04144 0.21302 -0.14400
C 	C 	0.79102 0.01075 0.17156 0.07800
H 	H 	0.79913 0.01937 0.13367 0.00300
C 	C 	0.77637 0.96770 0.18859 -0.18900
H 	H 	0.77583 0.94757 0.16197 0.10100
C 	C 	0.76256 0.95380 0.24380 0.15500
C 	C 	0.76502 0.98431 0.28439 -0.17900
H 	H 	0.75673 0.97547 0.32207 0.09700
C 	C 	0.77996 0.02806 0.26854 0.08600
H 	H 	0.78083 0.04817 0.29537 0.01500
C 	C 	0.74410 0.90686 0.26345 -0.12600
C 	C 	0.70647 0.88713 0.29738 -0.01300
H 	H 	0.69413 0.90397 0.30947 0.03500
H 	H 	0.84223 0.94357 0.27107 -0.64300
H 	H 	0.88003 0.91757 0.19027 1.01700
O 	O 	0.02771 0.55323 0.43310 -0.41000
O 	O 	0.05623 0.56740 0.52209 -0.42700
C 	C 	0.05398 0.57817 0.47241 0.37300
C 	C 	0.08534 0.62523 0.45365 -0.14400
C 	C 	0.11361 0.65592 0.49511 0.07800
H 	H 	0.11310 0.64730 0.53300 0.00300
C 	C 	0.14201 0.69897 0.47808 -0.18900
H 	H 	0.16160 0.71910 0.50470 0.10100
C 	C 	0.14210 0.71287 0.42287 0.15500
C 	C 	0.11405 0.68236 0.38228 -0.17900
H 	H 	0.11460 0.69120 0.34460 0.09700
C 	C 	0.08524 0.63861 0.39813 0.08600
H 	H 	0.06600 0.61850 0.37130 0.01500
C 	C 	0.17058 0.75981 0.40322 -0.12600
C 	C 	0.15268 0.77954 0.36929 -0.01300
H 	H 	0.12350 0.76270 0.35720 0.03500
H 	H 	0.23200 0.72310 0.39560 -0.64300
H 	H 	0.29580 0.74910 0.47640 1.01700
O 	O 	0.69438 0.88656 0.76643 -0.41000
O 	O 	0.72290 0.90073 0.85542 -0.42700
C 	C 	0.72065 0.91150 0.80574 0.37300
C 	C 	0.75201 0.95856 0.78698 -0.14400
C 	C 	0.78028 0.98925 0.82844 0.07700
H 	H 	0.77977 0.98063 0.86633 0.00300
C 	C 	0.80868 0.03230 0.81141 -0.18900
H 	H 	0.82827 0.05243 0.83803 0.10100
C 	C 	0.80877 0.04620 0.75620 0.15500
C 	C 	0.78072 0.01569 0.71561 -0.17900
H 	H 	0.78127 0.02453 0.67793 0.09700
C 	C 	0.75191 0.97194 0.73146 0.08500
H 	H 	0.73267 0.95183 0.70463 0.01500
C 	C 	0.83725 0.09314 0.73655 -0.12600
C 	C 	0.81935 0.11287 0.70262 -0.01300
H 	H 	0.79017 0.09603 0.69053 0.03500
H 	H 	0.89867 0.05643 0.72893 -0.64300
H 	H 	0.96247 0.08243 0.80973 1.01800
O 	O 	0.36104 0.21990 0.09977 -0.41000
O 	O 	0.38956 0.23407 0.18876 -0.42700
C 	C 	0.38731 0.24484 0.13908 0.37300
C 	C 	0.41867 0.29190 0.12032 -0.14400
C 	C 	0.44694 0.32259 0.16178 0.07800
H 	H 	0.44643 0.31397 0.19967 0.00300
C 	C 	0.47534 0.36564 0.14475 -0.18900
H 	H 	0.49493 0.38577 0.17137 0.10100
C 	C 	0.47543 0.37954 0.08954 0.15500
C 	C 	0.44738 0.34903 0.04895 -0.17900
H 	H 	0.44793 0.35787 0.01127 0.09700
C 	C 	0.41857 0.30528 0.06480 0.08600
H 	H 	0.39933 0.28517 0.03797 0.01500
C 	C 	0.50391 0.42648 0.06989 -0.12600
C 	C 	0.48601 0.44621 0.03596 -0.01300
H 	H 	0.45683 0.42937 0.02387 0.03500
H 	H 	0.56533 0.38977 0.06227 -0.64300
H 	H 	0.62913 0.41577 0.14307 1.01700
O 	O 	0.52552 0.97229 0.43310 -0.41000
O 	O 	0.51117 0.94377 0.52209 -0.42700
C 	C 	0.52419 0.94602 0.47241 0.37300
C 	C 	0.53989 0.91466 0.45365 -0.14400
C 	C 	0.54231 0.88639 0.49511 0.07800
H 	H 	0.53420 0.88690 0.53300 0.00300
C 	C 	0.55696 0.85799 0.47808 -0.18900
H 	H 	0.55750 0.83840 0.50470 0.10100
C 	C 	0.57077 0.85790 0.42287 0.15500
C 	C 	0.56831 0.88595 0.38228 -0.17900
H 	H 	0.57660 0.88540 0.34460 0.09700
C 	C 	0.55337 0.91476 0.39813 0.08600
H 	H 	0.55250 0.93400 0.37130 0.01500
C 	C 	0.58923 0.82942 0.40322 -0.12600
C 	C 	0.62686 0.84732 0.36929 -0.01300
H 	H 	0.63920 0.87650 0.35720 0.03500
H 	H 	0.49110 0.76800 0.39560 -0.64300
H 	H 	0.45330 0.70420 0.47640 1.01700
O 	O 	0.19219 0.30562 0.76643 -0.41000
O 	O 	0.17784 0.27710 0.85542 -0.42700
C 	C 	0.19086 0.27935 0.80574 0.37300
C 	C 	0.20656 0.24799 0.78698 -0.14400
C 	C 	0.20898 0.21972 0.82844 0.07800
H 	H 	0.20087 0.22023 0.86633 0.00300
C 	C 	0.22363 0.19132 0.81141 -0.18900
H 	H 	0.22417 0.17173 0.83803 0.10100
C 	C 	0.23744 0.19123 0.75620 0.15500
C 	C 	0.23498 0.21928 0.71561 -0.17900
H 	H 	0.24327 0.21873 0.67793 0.09700
C 	C 	0.22004 0.24809 0.73146 0.08600
H 	H 	0.21917 0.26733 0.70463 0.01500
C 	C 	0.25590 0.16275 0.73655 -0.12600
C 	C 	0.29353 0.18065 0.70262 -0.01300
H 	H 	0.30587 0.20983 0.69053 0.03500
H 	H 	0.15777 0.10133 0.72893 -0.64300
H 	H 	0.11997 0.03753 0.80973 1.01700
O 	O 	0.85885 0.63896 0.09977 -0.41000
O 	O 	0.84450 0.61044 0.18876 -0.42700
C 	C 	0.85752 0.61269 0.13908 0.37300
C 	C 	0.87322 0.58133 0.12032 -0.14400
C 	C 	0.87564 0.55306 0.16178 0.07800
H 	H 	0.86753 0.55357 0.19967 0.00300
C 	C 	0.89029 0.52466 0.14475 -0.18900
H 	H 	0.89083 0.50507 0.17137 0.10100
C 	C 	0.90410 0.52457 0.08954 0.15500
C 	C 	0.90164 0.55262 0.04895 -0.17900
H 	H 	0.90993 0.55207 0.01127 0.09700
C 	C 	0.88670 0.58143 0.06480 0.08600
H 	H 	0.88583 0.60067 0.03797 0.01500
C 	C 	0.92256 0.49609 0.06989 -0.12600
C 	C 	0.96019 0.51399 0.03596 -0.01300
H 	H 	0.97253 0.54317 0.02387 0.03500
H 	H 	0.82443 0.43467 0.06227 -0.64300
H 	H 	0.78663 0.37087 0.14307 1.01700
O 	O 	0.44677 0.47448 0.43310 -0.41000
O 	O 	0.43260 0.48883 0.52209 -0.42700
C 	C 	0.42183 0.47581 0.47241 0.37300
C 	C 	0.37477 0.46011 0.45365 -0.14400
C 	C 	0.34408 0.45769 0.49511 0.07800
H 	H 	0.35270 0.46580 0.53300 0.00300
C 	C 	0.30103 0.44304 0.47808 -0.18900
H 	H 	0.28090 0.44250 0.50470 0.10100
C 	C 	0.28713 0.42923 0.42287 0.15500
C 	C 	0.31764 0.43169 0.38228 -0.17900
H 	H 	0.30880 0.42340 0.34460 0.09700
C 	C 	0.36139 0.44663 0.39813 0.08600
H 	H 	0.38150 0.44750 0.37130 0.01500
C 	C 	0.24019 0.41077 0.40322 -0.12600
C 	C 	0.22046 0.37314 0.36929 -0.01300
H 	H 	0.23730 0.36080 0.35720 0.03500
H 	H 	0.27690 0.50890 0.39560 -0.64300
H 	H 	0.25090 0.54670 0.47640 1.01700
O 	O 	0.11344 0.80781 0.76643 -0.41000
O 	O 	0.09927 0.82216 0.85542 -0.42700
C 	C 	0.08850 0.80914 0.80574 0.37300
C 	C 	0.04144 0.79344 0.78698 -0.14400
C 	C 	0.01075 0.79102 0.82844 0.07800
H 	H 	0.01937 0.79913 0.86633 0.00300
C 	C 	0.96770 0.77637 0.81141 -0.18900
H 	H 	0.94757 0.77583 0.83803 0.10100
C 	C 	0.95380 0.76256 0.75620 0.15500
C 	C 	0.98431 0.76502 0.71561 -0.17900
H 	H 	0.97547 0.75673 0.67793 0.09700
C 	C 	0.02806 0.77996 0.73146 0.08600
H 	H 	0.04817 0.78083 0.70463 0.01500
C 	C 	0.90686 0.74410 0.73655 -0.12600
C 	C 	0.88713 0.70647 0.70262 -0.01300
H 	H 	0.90397 0.69413 0.69053 0.03500
H 	H 	0.94357 0.84223 0.72893 -0.64300
H 	H 	0.91757 0.88003 0.80973 1.01700
O 	O 	0.78010 0.14115 0.09977 -0.41000
O 	O 	0.76593 0.15550 0.18876 -0.42700
C 	C 	0.75516 0.14248 0.13908 0.37300
C 	C 	0.70810 0.12678 0.12032 -0.14400
C 	C 	0.67741 0.12436 0.16178 0.07800
H 	H 	0.68603 0.13247 0.19967 0.00300
C 	C 	0.63436 0.10971 0.14475 -0.18900
H 	H 	0.61423 0.10917 0.17137 0.10100
C 	C 	0.62046 0.09590 0.08954 0.15500
C 	C 	0.65097 0.09836 0.04895 -0.17900
H 	H 	0.64213 0.09007 0.01127 0.09700
C 	C 	0.69472 0.11330 0.06480 0.08600
H 	H 	0.71483 0.11417 0.03797 0.01500
C 	C 	0.57352 0.07744 0.06989 -0.12600
C 	C 	0.55379 0.03981 0.03596 -0.01300
H 	H 	0.57063 0.02747 0.02387 0.03500
H 	H 	0.61023 0.17557 0.06227 -0.64300
H 	H 	0.58423 0.21337 0.14307 1.01700
O 	O 	0.44677 0.97229 0.43310 -0.41000
O 	O 	0.43260 0.94377 0.52209 -0.42700
C 	C 	0.42183 0.94602 0.47241 0.37300
C 	C 	0.37477 0.91466 0.45365 -0.14400
C 	C 	0.34408 0.88639 0.49511 0.07800
H 	H 	0.35270 0.88690 0.53300 0.00300
C 	C 	0.30103 0.85799 0.47808 -0.18900
H 	H 	0.28090 0.83840 0.50470 0.10100
C 	C 	0.28713 0.85790 0.42287 0.15500
C 	C 	0.31764 0.88595 0.38228 -0.17900
H 	H 	0.30880 0.88540 0.34460 0.09700
C 	C 	0.36139 0.91476 0.39813 0.08600
H 	H 	0.38150 0.93400 0.37130 0.01500
C 	C 	0.24019 0.82942 0.40322 -0.12600
C 	C 	0.22046 0.84732 0.36929 -0.01300
H 	H 	0.23730 0.87650 0.35720 0.03500
H 	H 	0.27690 0.76800 0.39560 -0.64300
H 	H 	0.25090 0.70420 0.47640 1.01700
O 	O 	0.11344 0.30562 0.76643 -0.41000
O 	O 	0.09927 0.27710 0.85542 -0.42700
C 	C 	0.08850 0.27935 0.80574 0.37300
C 	C 	0.04144 0.24799 0.78698 -0.14400
C 	C 	0.01075 0.21972 0.82844 0.07700
H 	H 	0.01937 0.22023 0.86633 0.00300
C 	C 	0.96770 0.19132 0.81141 -0.18900
H 	H 	0.94757 0.17173 0.83803 0.10100
C 	C 	0.95380 0.19123 0.75620 0.15500
C 	C 	0.98431 0.21928 0.71561 -0.17900
H 	H 	0.97547 0.21873 0.67793 0.09700
C 	C 	0.02806 0.24809 0.73146 0.08500
H 	H 	0.04817 0.26733 0.70463 0.01500
C 	C 	0.90686 0.16275 0.73655 -0.12600
C 	C 	0.88713 0.18065 0.70262 -0.01300
H 	H 	0.90397 0.20983 0.69053 0.03500
H 	H 	0.94357 0.10133 0.72893 -0.64300
H 	H 	0.91757 0.03753 0.80973 1.01800
O 	O 	0.78010 0.63896 0.09977 -0.41000
O 	O 	0.76593 0.61044 0.18876 -0.42700
C 	C 	0.75516 0.61269 0.13908 0.37300
C 	C 	0.70810 0.58133 0.12032 -0.14400
C 	C 	0.67741 0.55306 0.16178 0.07800
H 	H 	0.68603 0.55357 0.19967 0.00300
C 	C 	0.63436 0.52466 0.14475 -0.18900
H 	H 	0.61423 0.50507 0.17137 0.10100
C 	C 	0.62046 0.52457 0.08954 0.15500
C 	C 	0.65097 0.55262 0.04895 -0.17900
H 	H 	0.64213 0.55207 0.01127 0.09700
C 	C 	0.69472 0.58143 0.06480 0.08600
H 	H 	0.71483 0.60067 0.03797 0.01500
C 	C 	0.57352 0.49609 0.06989 -0.12600
C 	C 	0.55379 0.51399 0.03596 -0.01300
H 	H 	0.57063 0.54317 0.02387 0.03500
H 	H 	0.61023 0.43467 0.06227 -0.64300
H 	H 	0.58423 0.37087 0.14307 1.01700
O 	O 	0.02771 0.47448 0.43310 -0.41000
O 	O 	0.05623 0.48883 0.52209 -0.42700
C 	C 	0.05398 0.47581 0.47241 0.37300
C 	C 	0.08534 0.46011 0.45365 -0.14400
C 	C 	0.11361 0.45769 0.49511 0.07800
H 	H 	0.11310 0.46580 0.53300 0.00300
C 	C 	0.14201 0.44304 0.47808 -0.18900
H 	H 	0.16160 0.44250 0.50470 0.10100
C 	C 	0.14210 0.42923 0.42287 0.15500
C 	C 	0.11405 0.43169 0.38228 -0.17900
H 	H 	0.11460 0.42340 0.34460 0.09700
C 	C 	0.08524 0.44663 0.39813 0.08600
H 	H 	0.06600 0.44750 0.37130 0.01500
C 	C 	0.17058 0.41077 0.40322 -0.12600
C 	C 	0.15268 0.37314 0.36929 -0.01300
H 	H 	0.12350 0.36080 0.35720 0.03500
H 	H 	0.23200 0.50890 0.39560 -0.64300
H 	H 	0.29580 0.54670 0.47640 1.01700
O 	O 	0.69438 0.80781 0.76643 -0.41000
O 	O 	0.72290 0.82216 0.85542 -0.42700
C 	C 	0.72065 0.80914 0.80574 0.37300
C 	C 	0.75201 0.79344 0.78698 -0.14400
C 	C 	0.78028 0.79102 0.82844 0.07800
H 	H 	0.77977 0.79913 0.86633 0.00300
C 	C 	0.80868 0.77637 0.81141 -0.18900
H 	H 	0.82827 0.77583 0.83803 0.10100
C 	C 	0.80877 0.76256 0.75620 0.15500
C 	C 	0.78072 0.76502 0.71561 -0.17900
H 	H 	0.78127 0.75673 0.67793 0.09700
C 	C 	0.75191 0.77996 0.73146 0.08600
H 	H 	0.73267 0.78083 0.70463 0.01500
C 	C 	0.83725 0.74410 0.73655 -0.12600
C 	C 	0.81935 0.70647 0.70262 -0.01300
H 	H 	0.79017 0.69413 0.69053 0.03500
H 	H 	0.89867 0.84223 0.72893 -0.64300
H 	H 	0.96247 0.88003 0.80973 1.01700
O 	O 	0.36104 0.14115 0.09977 -0.41000
O 	O 	0.38956 0.15550 0.18876 -0.42700
C 	C 	0.38731 0.14248 0.13908 0.37300
C 	C 	0.41867 0.12678 0.12032 -0.14400
C 	C 	0.44694 0.12436 0.16178 0.07800
H 	H 	0.44643 0.13247 0.19967 0.00300
C 	C 	0.47534 0.10971 0.14475 -0.18900
H 	H 	0.49493 0.10917 0.17137 0.10100
C 	C 	0.47543 0.09590 0.08954 0.15500
C 	C 	0.44738 0.09836 0.04895 -0.17900
H 	H 	0.44793 0.09007 0.01127 0.09700
C 	C 	0.41857 0.11330 0.06480 0.08600
H 	H 	0.39933 0.11417 0.03797 0.01500
C 	C 	0.50391 0.07744 0.06989 -0.12600
C 	C 	0.48601 0.03981 0.03596 -0.01300
H 	H 	0.45683 0.02747 0.02387 0.03500
H 	H 	0.56533 0.17557 0.06227 -0.64300
H 	H 	0.62913 0.21337 0.14307 1.01700
O 	O 	0.52552 0.55323 0.43310 -0.41000
O 	O 	0.51117 0.56740 0.52209 -0.42700
C 	C 	0.52419 0.57817 0.47241 0.37300
C 	C 	0.53989 0.62523 0.45365 -0.14400
C 	C 	0.54231 0.65592 0.49511 0.07800
H 	H 	0.53420 0.64730 0.53300 0.00300
C 	C 	0.55696 0.69897 0.47808 -0.18900
H 	H 	0.55750 0.71910 0.50470 0.10100
C 	C 	0.57077 0.71287 0.42287 0.15500
C 	C 	0.56831 0.68236 0.38228 -0.17900
H 	H 	0.57660 0.69120 0.34460 0.09700
C 	C 	0.55337 0.63861 0.39813 0.08600
H 	H 	0.55250 0.61850 0.37130 0.01500
C 	C 	0.58923 0.75981 0.40322 -0.12600
C 	C 	0.62686 0.77954 0.36929 -0.01300
H 	H 	0.63920 0.76270 0.35720 0.03500
H 	H 	0.49110 0.72310 0.39560 -0.64300
H 	H 	0.45330 0.74910 0.47640 1.01700
O 	O 	0.19219 0.88656 0.76643 -0.41000
O 	O 	0.17784 0.90073 0.85542 -0.42700
C 	C 	0.19086 0.91150 0.80574 0.37300
C 	C 	0.20656 0.95856 0.78698 -0.14400
C 	C 	0.20898 0.98925 0.82844 0.07800
H 	H 	0.20087 0.98063 0.86633 0.00300
C 	C 	0.22363 0.03230 0.81141 -0.18900
H 	H 	0.22417 0.05243 0.83803 0.10100
C 	C 	0.23744 0.04620 0.75620 0.15500
C 	C 	0.23498 0.01569 0.71561 -0.17900
H 	H 	0.24327 0.02453 0.67793 0.09700
C 	C 	0.22004 0.97194 0.73146 0.08600
H 	H 	0.21917 0.95183 0.70463 0.01500
C 	C 	0.25590 0.09314 0.73655 -0.12600
C 	C 	0.29353 0.11287 0.70262 -0.01300
H 	H 	0.30587 0.09603 0.69053 0.03500
H 	H 	0.15777 0.05643 0.72893 -0.64300
H 	H 	0.11997 0.08243 0.80973 1.01700
O 	O 	0.85885 0.21990 0.09977 -0.41000
O 	O 	0.84450 0.23407 0.18876 -0.42700
C 	C 	0.85752 0.24484 0.13908 0.37300
C 	C 	0.87322 0.29190 0.12032 -0.14400
C 	C 	0.87564 0.32259 0.16178 0.07800
H 	H 	0.86753 0.31397 0.19967 0.00300
C 	C 	0.89029 0.36564 0.14475 -0.18900
H 	H 	0.89083 0.38577 0.17137 0.10100
C 	C 	0.90410 0.37954 0.08954 0.15500
C 	C 	0.90164 0.34903 0.04895 -0.17900
H 	H 	0.90993 0.35787 0.01127 0.09700
C 	C 	0.88670 0.30528 0.06480 0.08600
H 	H 	0.88583 0.28517 0.03797 0.01500
C 	C 	0.92256 0.42648 0.06989 -0.12600
C 	C 	0.96019 0.44621 0.03596 -0.01300
H 	H 	0.97253 0.42937 0.02387 0.03500
H 	H 	0.82443 0.38977 0.06227 -0.64300
H 	H 	0.78663 0.41577 0.14307 1.01700
O 	O 	0.97229 0.44677 0.56690 -0.41000
O 	O 	0.94377 0.43260 0.47791 -0.42700
C 	C 	0.94602 0.42183 0.52759 0.37300
C 	C 	0.91466 0.37477 0.54635 -0.14400
C 	C 	0.88639 0.34408 0.50489 0.07800
H 	H 	0.88690 0.35270 0.46700 0.00300
C 	C 	0.85799 0.30103 0.52192 -0.18900
H 	H 	0.83840 0.28090 0.49530 0.10100
C 	C 	0.85790 0.28713 0.57713 0.15500
C 	C 	0.88595 0.31764 0.61772 -0.17900
H 	H 	0.88540 0.30880 0.65540 0.09700
C 	C 	0.91476 0.36139 0.60187 0.08600
H 	H 	0.93400 0.38150 0.62870 0.01500
C 	C 	0.82942 0.24019 0.59678 -0.12600
C 	C 	0.84732 0.22046 0.63071 -0.01300
H 	H 	0.87650 0.23730 0.64280 0.03500
H 	H 	0.76800 0.27690 0.60440 -0.64300
H 	H 	0.70420 0.25090 0.52360 1.01700
O 	O 	0.63896 0.78010 0.90023 -0.41000
O 	O 	0.61044 0.76593 0.81124 -0.42700
C 	C 	0.61269 0.75516 0.86092 0.37300
C 	C 	0.58133 0.70810 0.87968 -0.14400
C 	C 	0.55306 0.67741 0.83822 0.07800
H 	H 	0.55357 0.68603 0.80033 0.00300
C 	C 	0.52466 0.63436 0.85525 -0.18900
H 	H 	0.50507 0.61423 0.82863 0.10100
C 	C 	0.52457 0.62046 0.91046 0.15500
C 	C 	0.55262 0.65097 0.95105 -0.17900
H 	H 	0.55207 0.64213 0.98873 0.09700
C 	C 	0.58143 0.69472 0.93520 0.08600
H 	H 	0.60067 0.71483 0.96203 0.01500
C 	C 	0.49609 0.57352 0.93011 -0.12600
C 	C 	0.51399 0.55379 0.96404 -0.01300
H 	H 	0.54317 0.57063 0.97613 0.03500
H 	H 	0.43467 0.61023 0.93773 -0.64300
H 	H 	0.37087 0.58423 0.85693 1.01700
O 	O 	0.30562 0.11344 0.23357 -0.41000
O 	O 	0.27710 0.09927 0.14458 -0.42700
C 	C 	0.27935 0.08850 0.19426 0.37300
C 	C 	0.24799 0.04144 0.21302 -0.14400
C 	C 	0.21972 0.01075 0.17156 0.07700
H 	H 	0.22023 0.01937 0.13367 0.00300
C 	C 	0.19132 0.96770 0.18859 -0.18900
H 	H 	0.17173 0.94757 0.16197 0.10100
C 	C 	0.19123 0.95380 0.24380 0.15500
C 	C 	0.21928 0.98431 0.28439 -0.17900
H 	H 	0.21873 0.97547 0.32207 0.09700
C 	C 	0.24809 0.02806 0.26854 0.08500
H 	H 	0.26733 0.04817 0.29537 0.01500
C 	C 	0.16275 0.90686 0.26345 -0.12600
C 	C 	0.18065 0.88713 0.29738 -0.01300
H 	H 	0.20983 0.90397 0.30947 0.03500
H 	H 	0.10133 0.94357 0.27107 -0.64300
H 	H 	0.03753 0.91757 0.19027 1.01800
O 	O 	0.47448 0.02771 0.56690 -0.41000
O 	O 	0.48883 0.05623 0.47791 -0.42700
C 	C 	0.47581 0.05398 0.52759 0.37300
C 	C 	0.46011 0.08534 0.54635 -0.14400
C 	C 	0.45769 0.11361 0.50489 0.07800
H 	H 	0.46580 0.11310 0.46700 0.00300
C 	C 	0.44304 0.14201 0.52192 -0.18900
H 	H 	0.44250 0.16160 0.49530 0.10100
C 	C 	0.42923 0.14210 0.57713 0.15500
C 	C 	0.43169 0.11405 0.61772 -0.17900
H 	H 	0.42340 0.11460 0.65540 0.09700
C 	C 	0.44663 0.08524 0.60187 0.08600
H 	H 	0.44750 0.06600 0.62870 0.01500
C 	C 	0.41077 0.17058 0.59678 -0.12600
C 	C 	0.37314 0.15268 0.63071 -0.01300
H 	H 	0.36080 0.12350 0.64280 0.03500
H 	H 	0.50890 0.23200 0.60440 -0.64300
H 	H 	0.54670 0.29580 0.52360 1.01700
O 	O 	0.14115 0.36104 0.90023 -0.41000
O 	O 	0.15550 0.38956 0.81124 -0.42700
C 	C 	0.14248 0.38731 0.86092 0.37300
C 	C 	0.12678 0.41867 0.87968 -0.14400
C 	C 	0.12436 0.44694 0.83822 0.07800
H 	H 	0.13247 0.44643 0.80033 0.00300
C 	C 	0.10971 0.47534 0.85525 -0.18900
H 	H 	0.10917 0.49493 0.82863 0.10100
C 	C 	0.09590 0.47543 0.91046 0.15500
C 	C 	0.09836 0.44738 0.95105 -0.17900
H 	H 	0.09007 0.44793 0.98873 0.09700
C 	C 	0.11330 0.41857 0.93520 0.08600
H 	H 	0.11417 0.39933 0.96203 0.01500
C 	C 	0.07744 0.50391 0.93011 -0.12600
C 	C 	0.03981 0.48601 0.96404 -0.01300
H 	H 	0.02747 0.45683 0.97613 0.03500
H 	H 	0.17557 0.56533 0.93773 -0.64300
H 	H 	0.21337 0.62913 0.85693 1.01700
O 	O 	0.80781 0.69438 0.23357 -0.41000
O 	O 	0.82216 0.72290 0.14458 -0.42700
C 	C 	0.80914 0.72065 0.19426 0.37300
C 	C 	0.79344 0.75201 0.21302 -0.14400
C 	C 	0.79102 0.78028 0.17156 0.07800
H 	H 	0.79913 0.77977 0.13367 0.00300
C 	C 	0.77637 0.80868 0.18859 -0.18900
H 	H 	0.77583 0.82827 0.16197 0.10100
C 	C 	0.76256 0.80877 0.24380 0.15500
C 	C 	0.76502 0.78072 0.28439 -0.17900
H 	H 	0.75673 0.78127 0.32207 0.09700
C 	C 	0.77996 0.75191 0.26854 0.08600
H 	H 	0.78083 0.73267 0.29537 0.01500
C 	C 	0.74410 0.83725 0.26345 -0.12600
C 	C 	0.70647 0.81935 0.29738 -0.01300
H 	H 	0.69413 0.79017 0.30947 0.03500
H 	H 	0.84223 0.89867 0.27107 -0.64300
H 	H 	0.88003 0.96247 0.19027 1.01700
O 	O 	0.55323 0.52552 0.56690 -0.41000
O 	O 	0.56740 0.51117 0.47791 -0.42700
C 	C 	0.57817 0.52419 0.52759 0.37300
C 	C 	0.62523 0.53989 0.54635 -0.14400
C 	C 	0.65592 0.54231 0.50489 0.07800
H 	H 	0.64730 0.53420 0.46700 0.00300
C 	C 	0.69897 0.55696 0.52192 -0.18900
H 	H 	0.71910 0.55750 0.49530 0.10100
C 	C 	0.71287 0.57077 0.57713 0.15500
C 	C 	0.68236 0.56831 0.61772 -0.17900
H 	H 	0.69120 0.57660 0.65540 0.09700
C 	C 	0.63861 0.55337 0.60187 0.08600
H 	H 	0.61850 0.55250 0.62870 0.01500
C 	C 	0.75981 0.58923 0.59678 -0.12600
C 	C 	0.77954 0.62686 0.63071 -0.01300
H 	H 	0.76270 0.63920 0.64280 0.03500
H 	H 	0.72310 0.49110 0.60440 -0.64300
H 	H 	0.74910 0.45330 0.52360 1.01700
O 	O 	0.21990 0.85885 0.90023 -0.41000
O 	O 	0.23407 0.84450 0.81124 -0.42700
C 	C 	0.24484 0.85752 0.86092 0.37300
C 	C 	0.29190 0.87322 0.87968 -0.14400
C 	C 	0.32259 0.87564 0.83822 0.07800
H 	H 	0.31397 0.86753 0.80033 0.00300
C 	C 	0.36564 0.89029 0.85525 -0.18900
H 	H 	0.38577 0.89083 0.82863 0.10100
C 	C 	0.37954 0.90410 0.91046 0.15500
C 	C 	0.34903 0.90164 0.95105 -0.17900
H 	H 	0.35787 0.90993 0.98873 0.09700
C 	C 	0.30528 0.88670 0.93520 0.08600
H 	H 	0.28517 0.88583 0.96203 0.01500
C 	C 	0.42648 0.92256 0.93011 -0.12600
C 	C 	0.44621 0.96019 0.96404 -0.01300
H 	H 	0.42937 0.97253 0.97613 0.03500
H 	H 	0.38977 0.82443 0.93773 -0.64300
H 	H 	0.41577 0.78663 0.85693 1.01700
O 	O 	0.88656 0.19219 0.23357 -0.41000
O 	O 	0.90073 0.17784 0.14458 -0.42700
C 	C 	0.91150 0.19086 0.19426 0.37300
C 	C 	0.95856 0.20656 0.21302 -0.14400
C 	C 	0.98925 0.20898 0.17156 0.07800
H 	H 	0.98063 0.20087 0.13367 0.00300
C 	C 	0.03230 0.22363 0.18859 -0.18900
H 	H 	0.05243 0.22417 0.16197 0.10100
C 	C 	0.04620 0.23744 0.24380 0.15500
C 	C 	0.01569 0.23498 0.28439 -0.17900
H 	H 	0.02453 0.24327 0.32207 0.09700
C 	C 	0.97194 0.22004 0.26854 0.08600
H 	H 	0.95183 0.21917 0.29537 0.01500
C 	C 	0.09314 0.25590 0.26345 -0.12600
C 	C 	0.11287 0.29353 0.29738 -0.01300
H 	H 	0.09603 0.30587 0.30947 0.03500
H 	H 	0.05643 0.15777 0.27107 -0.64300
H 	H 	0.08243 0.11997 0.19027 1.01700
Cu	Cu	0.50837 0.01674 0.44765 0.90300
Cu	Cu	0.17504 0.35007 0.78098 0.90300
Cu	Cu	0.84170 0.68341 0.11432 0.90300
Cu	Cu	0.98326 0.49163 0.44765 0.90300
Cu	Cu	0.64993 0.82496 0.78098 0.90300
Cu	Cu	0.31659 0.15830 0.11432 0.90300
Cu	Cu	0.50837 0.49163 0.44765 0.90300
Cu	Cu	0.17504 0.82496 0.78098 0.90300
Cu	Cu	0.84170 0.15830 0.11432 0.90300
Cu	Cu	0.01674 0.50837 0.55235 0.90300
Cu	Cu	0.68341 0.84170 0.88568 0.90300
Cu	Cu	0.35007 0.17504 0.21902 0.90300
Cu	Cu	0.49163 0.98326 0.55235 0.90300
Cu	Cu	0.15830 0.31659 0.88568 0.90300
Cu	Cu	0.82496 0.64993 0.21902 0.90300
Cu	Cu	0.49163 0.50837 0.55235 0.90300
Cu	Cu	0.15830 0.84170 0.88568 0.90300
Cu	Cu	0.82496 0.17504 0.21902 0.90300
O 	O 	0.76643 0.23357 0.54467 -0.62100
C 	C 	0.82336 0.17664 0.64720 -0.01000
C 	C 	0.78514 0.21486 0.58010 0.26100
C 	C 	0.74561 0.25439 0.57990 2.20700
C 	C 	0.72687 0.27313 0.54740 -3.42800
H 	H 	0.71420 0.28580 0.57200 1.03100
O 	O 	0.43310 0.56690 0.87800 -0.62100
C 	C 	0.49003 0.50997 0.98053 -0.01000
C 	C 	0.45181 0.54819 0.91343 0.26100
C 	C 	0.41228 0.58772 0.91323 2.20700
C 	C 	0.39354 0.60646 0.88073 -3.42800
H 	H 	0.38087 0.61913 0.90533 1.03100
O 	O 	0.09976 0.90024 0.21134 -0.62100
C 	C 	0.15669 0.84331 0.31387 -0.01000
C 	C 	0.11847 0.88153 0.24677 0.26100
C 	C 	0.07894 0.92106 0.24657 2.20800
C 	C 	0.06020 0.93980 0.21407 -3.43000
H 	H 	0.04753 0.95247 0.23867 1.03200
O 	O 	0.76643 0.53286 0.54467 -0.62100
C 	C 	0.82336 0.64672 0.64720 -0.01000
C 	C 	0.78514 0.57028 0.58010 0.26100
C 	C 	0.74561 0.49122 0.57990 2.20700
C 	C 	0.72687 0.45374 0.54740 -3.42800
H 	H 	0.71420 0.42840 0.57200 1.03100
O 	O 	0.43310 0.86619 0.87800 -0.62100
C 	C 	0.49003 0.98005 0.98053 -0.01000
C 	C 	0.45181 0.90361 0.91343 0.26100
C 	C 	0.41228 0.82455 0.91323 2.20700
C 	C 	0.39354 0.78707 0.88073 -3.42800
H 	H 	0.38087 0.76173 0.90533 1.03100
O 	O 	0.09976 0.19953 0.21134 -0.62100
C 	C 	0.15669 0.31339 0.31387 -0.01000
C 	C 	0.11847 0.23695 0.24677 0.26100
C 	C 	0.07894 0.15789 0.24657 2.20700
C 	C 	0.06020 0.12041 0.21407 -3.42900
H 	H 	0.04753 0.09507 0.23867 1.03100
O 	O 	0.46714 0.23357 0.54467 -0.62100
C 	C 	0.35328 0.17664 0.64720 -0.01000
C 	C 	0.42972 0.21486 0.58010 0.26100
C 	C 	0.50878 0.25439 0.57990 2.20700
C 	C 	0.54626 0.27313 0.54740 -3.42800
H 	H 	0.57160 0.28580 0.57200 1.03100
O 	O 	0.13381 0.56690 0.87800 -0.62100
C 	C 	0.01995 0.50997 0.98053 -0.01000
C 	C 	0.09639 0.54819 0.91343 0.26100
C 	C 	0.17545 0.58772 0.91323 2.20700
C 	C 	0.21293 0.60646 0.88073 -3.42800
H 	H 	0.23827 0.61913 0.90533 1.03100
O 	O 	0.80047 0.90024 0.21134 -0.62100
C 	C 	0.68661 0.84331 0.31387 -0.01000
C 	C 	0.76305 0.88153 0.24677 0.26100
C 	C 	0.84211 0.92106 0.24657 2.20700
C 	C 	0.87959 0.93980 0.21407 -3.42900
H 	H 	0.90493 0.95247 0.23867 1.03100
O 	O 	0.23357 0.76643 0.45533 -0.62100
C 	C 	0.17664 0.82336 0.35280 -0.01000
C 	C 	0.21486 0.78514 0.41990 0.26100
C 	C 	0.25439 0.74561 0.42010 2.20700
C 	C 	0.27313 0.72687 0.45260 -3.42800
H 	H 	0.28580 0.71420 0.42800 1.03100
O 	O 	0.90024 0.09976 0.78866 -0.62100
C 	C 	0.84331 0.15669 0.68613 -0.01000
C 	C 	0.88153 0.11847 0.75323 0.26100
C 	C 	0.92106 0.07894 0.75343 2.20800
C 	C 	0.93980 0.06020 0.78593 -3.43000
H 	H 	0.95247 0.04753 0.76133 1.03200
O 	O 	0.56690 0.43310 0.12200 -0.62100
C 	C 	0.50997 0.49003 0.01947 -0.01000
C 	C 	0.54819 0.45181 0.08657 0.26100
C 	C 	0.58772 0.41228 0.08677 2.20700
C 	C 	0.60646 0.39354 0.11927 -3.42800
H 	H 	0.61913 0.38087 0.09467 1.03100
O 	O 	0.53286 0.76643 0.45533 -0.62100
C 	C 	0.64672 0.82336 0.35280 -0.01000
C 	C 	0.57028 0.78514 0.41990 0.26100
C 	C 	0.49122 0.74561 0.42010 2.20700
C 	C 	0.45374 0.72687 0.45260 -3.42800
H 	H 	0.42840 0.71420 0.42800 1.03100
O 	O 	0.19953 0.09976 0.78866 -0.62100
C 	C 	0.31339 0.15669 0.68613 -0.01000
C 	C 	0.23695 0.11847 0.75323 0.26100
C 	C 	0.15789 0.07894 0.75343 2.20700
C 	C 	0.12041 0.06020 0.78593 -3.42900
H 	H 	0.09507 0.04753 0.76133 1.03100
O 	O 	0.86619 0.43310 0.12200 -0.62100
C 	C 	0.98005 0.49003 0.01947 -0.01000
C 	C 	0.90361 0.45181 0.08657 0.26100
C 	C 	0.82455 0.41228 0.08677 2.20700
C 	C 	0.78707 0.39354 0.11927 -3.42800
H 	H 	0.76173 0.38087 0.09467 1.03100
O 	O 	0.23357 0.46714 0.45533 -0.62100
C 	C 	0.17664 0.35328 0.35280 -0.01000
C 	C 	0.21486 0.42972 0.41990 0.26100
C 	C 	0.25439 0.50878 0.42010 2.20700
C 	C 	0.27313 0.54626 0.45260 -3.42800
H 	H 	0.28580 0.57160 0.42800 1.03100
O 	O 	0.90024 0.80047 0.78866 -0.62100
C 	C 	0.84331 0.68661 0.68613 -0.01000
C 	C 	0.88153 0.76305 0.75323 0.26100
C 	C 	0.92106 0.84211 0.75343 2.20700
C 	C 	0.93980 0.87959 0.78593 -3.42900
H 	H 	0.95247 0.90493 0.76133 1.03100
O 	O 	0.56690 0.13381 0.12200 -0.62100
C 	C 	0.50997 0.01995 0.01947 -0.01000
C 	C 	0.54819 0.09639 0.08657 0.26100
C 	C 	0.58772 0.17545 0.08677 2.20700
C 	C 	0.60646 0.21293 0.11927 -3.42800
H 	H 	0.61913 0.23827 0.09467 1.03100
