data_crystal

_cell_length_a 35.29650
_cell_length_b 35.29650
_cell_length_c 20.99260
_cell_angle_alpha 90.00000
_cell_angle_beta  90.00000
_cell_angle_gamma 120.00000

_symmetry_space_group_name_	'P 1'
_symmetry_space_group_name_H-M	'P 1'

loop_
_symmetry_equiv_pos_as_xyz
  x,y,z

loop_
_atom_site_label
_atom_site_type_symbol
_atom_site_fract_x
_atom_site_fract_y
_atom_site_fract_z
_atom_site_charge
O 	O 	0.30244 0.19024 0.23666 -0.41200
O 	O 	0.27809 0.17827 0.13540 -0.41100
C 	C 	0.27822 0.19002 0.19203 0.36700
C 	C 	0.24681 0.20546 0.20869 -0.13800
C 	C 	0.22016 0.20816 0.16198 0.07400
H 	H 	0.22110 0.19950 0.12040 0.01500
C 	C 	0.19212 0.22386 0.17776 -0.16600
H 	H 	0.17440 0.22560 0.14640 0.09800
C 	C 	0.19021 0.23683 0.23880 0.12700
C 	C 	0.21662 0.23354 0.28518 -0.16600
H 	H 	0.21540 0.24180 0.32690 0.08900
C 	C 	0.24480 0.21808 0.26976 0.07800
H 	H 	0.26240 0.21630 0.30120 0.01800
C 	C 	0.16249 0.25629 0.25663 -0.08600
C 	C 	0.18018 0.29324 0.29402 -0.03600
H 	H 	0.20920 0.30540 0.30690 0.04200
H 	H 	0.05740 0.15930 0.26090 -0.09600
H 	H 	0.03980 0.12400 0.16020 0.28600
O 	O 	0.96911 0.52357 0.56999 -0.41200
O 	O 	0.94476 0.51160 0.46873 -0.41100
C 	C 	0.94489 0.52335 0.52536 0.36700
C 	C 	0.91348 0.53879 0.54202 -0.13800
C 	C 	0.88683 0.54149 0.49531 0.07400
H 	H 	0.88777 0.53283 0.45373 0.01500
C 	C 	0.85879 0.55719 0.51109 -0.16600
H 	H 	0.84107 0.55893 0.47973 0.09800
C 	C 	0.85688 0.57016 0.57213 0.12700
C 	C 	0.88329 0.56687 0.61851 -0.16600
H 	H 	0.88207 0.57513 0.66023 0.08900
C 	C 	0.91147 0.55141 0.60309 0.07800
H 	H 	0.92907 0.54963 0.63453 0.01800
C 	C 	0.82916 0.58962 0.58996 -0.08600
C 	C 	0.84685 0.62657 0.62735 -0.03600
H 	H 	0.87587 0.63873 0.64023 0.04200
H 	H 	0.72407 0.49263 0.59423 -0.09600
H 	H 	0.70647 0.45733 0.49353 0.28600
O 	O 	0.63577 0.85691 0.90333 -0.41200
O 	O 	0.61142 0.84494 0.80207 -0.41100
C 	C 	0.61155 0.85669 0.85870 0.36700
C 	C 	0.58014 0.87213 0.87536 -0.13800
C 	C 	0.55349 0.87483 0.82865 0.07400
H 	H 	0.55443 0.86617 0.78707 0.01500
C 	C 	0.52545 0.89053 0.84443 -0.16600
H 	H 	0.50773 0.89227 0.81307 0.09800
C 	C 	0.52354 0.90350 0.90547 0.12700
C 	C 	0.54995 0.90021 0.95185 -0.16600
H 	H 	0.54873 0.90847 0.99357 0.08900
C 	C 	0.57813 0.88475 0.93643 0.07800
H 	H 	0.59573 0.88297 0.96787 0.01800
C 	C 	0.49582 0.92296 0.92330 -0.08600
C 	C 	0.51351 0.95991 0.96069 -0.03600
H 	H 	0.54253 0.97207 0.97357 0.04200
H 	H 	0.39073 0.82597 0.92757 -0.09600
H 	H 	0.37313 0.79067 0.82687 0.28600
O 	O 	0.80976 0.11220 0.23666 -0.41200
O 	O 	0.82173 0.09982 0.13540 -0.41100
C 	C 	0.80998 0.08820 0.19203 0.36700
C 	C 	0.79454 0.04135 0.20869 -0.13800
C 	C 	0.79184 0.01200 0.16198 0.07400
H 	H 	0.80050 0.02160 0.12040 0.01500
C 	C 	0.77614 0.96826 0.17776 -0.16600
H 	H 	0.77440 0.94880 0.14640 0.09800
C 	C 	0.76317 0.95338 0.23880 0.12700
C 	C 	0.76646 0.98308 0.28518 -0.16600
H 	H 	0.75820 0.97360 0.32690 0.08900
C 	C 	0.78192 0.02672 0.26976 0.07800
H 	H 	0.78370 0.04610 0.30120 0.01900
C 	C 	0.74371 0.90620 0.25663 -0.08500
C 	C 	0.70676 0.88694 0.29402 -0.03500
H 	H 	0.69460 0.90380 0.30690 0.04300
H 	H 	0.84070 0.89810 0.26090 -0.09500
H 	H 	0.87600 0.91580 0.16020 0.28700
O 	O 	0.47643 0.44553 0.56999 -0.41100
O 	O 	0.48840 0.43315 0.46873 -0.41000
C 	C 	0.47665 0.42153 0.52536 0.36800
C 	C 	0.46121 0.37468 0.54202 -0.13700
C 	C 	0.45851 0.34533 0.49531 0.07500
H 	H 	0.46717 0.35493 0.45373 0.01600
C 	C 	0.44281 0.30159 0.51109 -0.16500
H 	H 	0.44107 0.28213 0.47973 0.09900
C 	C 	0.42984 0.28671 0.57213 0.12800
C 	C 	0.43313 0.31641 0.61851 -0.16500
H 	H 	0.42487 0.30693 0.66023 0.09000
C 	C 	0.44859 0.36005 0.60309 0.07900
H 	H 	0.45037 0.37943 0.63453 0.01900
C 	C 	0.41038 0.23953 0.58996 -0.08500
C 	C 	0.37343 0.22027 0.62735 -0.03500
H 	H 	0.36127 0.23713 0.64023 0.04300
H 	H 	0.50737 0.23143 0.59423 -0.09500
H 	H 	0.54267 0.24913 0.49353 0.28700
O 	O 	0.14309 0.77887 0.90333 -0.41100
O 	O 	0.15506 0.76649 0.80207 -0.41000
C 	C 	0.14331 0.75487 0.85870 0.36800
C 	C 	0.12787 0.70802 0.87536 -0.13700
C 	C 	0.12517 0.67867 0.82865 0.07500
H 	H 	0.13383 0.68827 0.78707 0.01600
C 	C 	0.10947 0.63493 0.84443 -0.16500
H 	H 	0.10773 0.61547 0.81307 0.09900
C 	C 	0.09650 0.62005 0.90547 0.12800
C 	C 	0.09979 0.64975 0.95185 -0.16500
H 	H 	0.09153 0.64027 0.99357 0.09000
C 	C 	0.11525 0.69339 0.93643 0.07900
H 	H 	0.11703 0.71277 0.96787 0.01900
C 	C 	0.07704 0.57287 0.92330 -0.08500
C 	C 	0.04009 0.55361 0.96069 -0.03500
H 	H 	0.02793 0.57047 0.97357 0.04300
H 	H 	0.17403 0.56477 0.92757 -0.09500
H 	H 	0.20933 0.58247 0.82687 0.28700
O 	O 	0.88780 0.69756 0.23666 -0.41100
O 	O 	0.90018 0.72191 0.13540 -0.41000
C 	C 	0.91180 0.72178 0.19203 0.36800
C 	C 	0.95865 0.75319 0.20869 -0.13700
C 	C 	0.98800 0.77984 0.16198 0.07400
H 	H 	0.97840 0.77890 0.12040 0.01600
C 	C 	0.03174 0.80788 0.17776 -0.16500
H 	H 	0.05120 0.82560 0.14640 0.09900
C 	C 	0.04662 0.80979 0.23880 0.12700
C 	C 	0.01692 0.78338 0.28518 -0.16500
H 	H 	0.02640 0.78460 0.32690 0.09000
C 	C 	0.97328 0.75520 0.26976 0.07900
H 	H 	0.95390 0.73760 0.30120 0.01900
C 	C 	0.09380 0.83751 0.25663 -0.08500
C 	C 	0.11306 0.81982 0.29402 -0.03500
H 	H 	0.09620 0.79080 0.30690 0.04300
H 	H 	0.10190 0.94260 0.26090 -0.09500
H 	H 	0.08420 0.96020 0.16020 0.28600
O 	O 	0.55447 0.03089 0.56999 -0.41100
O 	O 	0.56685 0.05524 0.46873 -0.41000
C 	C 	0.57847 0.05511 0.52536 0.36800
C 	C 	0.62532 0.08652 0.54202 -0.13700
C 	C 	0.65467 0.11317 0.49531 0.07500
H 	H 	0.64507 0.11223 0.45373 0.01600
C 	C 	0.69841 0.14121 0.51109 -0.16500
H 	H 	0.71787 0.15893 0.47973 0.09900
C 	C 	0.71329 0.14312 0.57213 0.12800
C 	C 	0.68359 0.11671 0.61851 -0.16500
H 	H 	0.69307 0.11793 0.66023 0.09000
C 	C 	0.63995 0.08853 0.60309 0.07900
H 	H 	0.62057 0.07093 0.63453 0.01900
C 	C 	0.76047 0.17084 0.58996 -0.08500
C 	C 	0.77973 0.15315 0.62735 -0.03500
H 	H 	0.76287 0.12413 0.64023 0.04300
H 	H 	0.76857 0.27593 0.59423 -0.09500
H 	H 	0.75087 0.29353 0.49353 0.28700
O 	O 	0.22113 0.36423 0.90333 -0.41100
O 	O 	0.23351 0.38858 0.80207 -0.41000
C 	C 	0.24513 0.38845 0.85870 0.36800
C 	C 	0.29198 0.41986 0.87536 -0.13700
C 	C 	0.32133 0.44651 0.82865 0.07500
H 	H 	0.31173 0.44557 0.78707 0.01600
C 	C 	0.36507 0.47455 0.84443 -0.16500
H 	H 	0.38453 0.49227 0.81307 0.09900
C 	C 	0.37995 0.47646 0.90547 0.12800
C 	C 	0.35025 0.45005 0.95185 -0.16500
H 	H 	0.35973 0.45127 0.99357 0.09000
C 	C 	0.30661 0.42187 0.93643 0.07900
H 	H 	0.28723 0.40427 0.96787 0.01900
C 	C 	0.42713 0.50418 0.92330 -0.08500
C 	C 	0.44639 0.48649 0.96069 -0.03500
H 	H 	0.42953 0.45747 0.97357 0.04300
H 	H 	0.43523 0.60927 0.92757 -0.09500
H 	H 	0.41753 0.62687 0.82687 0.28600
O 	O 	0.19024 0.30244 0.76334 -0.41100
O 	O 	0.17827 0.27809 0.86460 -0.41000
C 	C 	0.19002 0.27822 0.80797 0.36800
C 	C 	0.20546 0.24681 0.79131 -0.13700
C 	C 	0.20816 0.22016 0.83802 0.07500
H 	H 	0.19950 0.22110 0.87960 0.01600
C 	C 	0.22386 0.19212 0.82224 -0.16500
H 	H 	0.22560 0.17440 0.85360 0.09900
C 	C 	0.23683 0.19021 0.76120 0.12800
C 	C 	0.23354 0.21662 0.71482 -0.16500
H 	H 	0.24180 0.21540 0.67310 0.09000
C 	C 	0.21808 0.24480 0.73024 0.07900
H 	H 	0.21630 0.26240 0.69880 0.01900
C 	C 	0.25629 0.16249 0.74337 -0.08500
C 	C 	0.29324 0.18018 0.70598 -0.03500
H 	H 	0.30540 0.20920 0.69310 0.04300
H 	H 	0.15930 0.05740 0.73910 -0.09500
H 	H 	0.12400 0.03980 0.83980 0.28700
O 	O 	0.85691 0.63577 0.09667 -0.41100
O 	O 	0.84494 0.61142 0.19793 -0.41000
C 	C 	0.85669 0.61155 0.14130 0.36800
C 	C 	0.87213 0.58014 0.12464 -0.13700
C 	C 	0.87483 0.55349 0.17135 0.07500
H 	H 	0.86617 0.55443 0.21293 0.01600
C 	C 	0.89053 0.52545 0.15557 -0.16500
H 	H 	0.89227 0.50773 0.18693 0.09900
C 	C 	0.90350 0.52354 0.09453 0.12800
C 	C 	0.90021 0.54995 0.04815 -0.16500
H 	H 	0.90847 0.54873 0.00643 0.09000
C 	C 	0.88475 0.57813 0.06357 0.07900
H 	H 	0.88297 0.59573 0.03213 0.01900
C 	C 	0.92296 0.49582 0.07670 -0.08500
C 	C 	0.95991 0.51351 0.03931 -0.03500
H 	H 	0.97207 0.54253 0.02643 0.04300
H 	H 	0.82597 0.39073 0.07243 -0.09500
H 	H 	0.79067 0.37313 0.17313 0.28700
O 	O 	0.52357 0.96911 0.43001 -0.41100
O 	O 	0.51160 0.94476 0.53127 -0.41000
C 	C 	0.52335 0.94489 0.47464 0.36800
C 	C 	0.53879 0.91348 0.45798 -0.13700
C 	C 	0.54149 0.88683 0.50469 0.07500
H 	H 	0.53283 0.88777 0.54627 0.01600
C 	C 	0.55719 0.85879 0.48891 -0.16500
H 	H 	0.55893 0.84107 0.52027 0.09900
C 	C 	0.57016 0.85688 0.42787 0.12800
C 	C 	0.56687 0.88329 0.38149 -0.16500
H 	H 	0.57513 0.88207 0.33977 0.09000
C 	C 	0.55141 0.91147 0.39691 0.07900
H 	H 	0.54963 0.92907 0.36547 0.01900
C 	C 	0.58962 0.82916 0.41004 -0.08500
C 	C 	0.62657 0.84685 0.37265 -0.03500
H 	H 	0.63873 0.87587 0.35977 0.04300
H 	H 	0.49263 0.72407 0.40577 -0.09500
H 	H 	0.45733 0.70647 0.50647 0.28700
O 	O 	0.11220 0.80976 0.76334 -0.41100
O 	O 	0.09982 0.82173 0.86460 -0.41000
C 	C 	0.08820 0.80998 0.80797 0.36800
C 	C 	0.04135 0.79454 0.79131 -0.13700
C 	C 	0.01200 0.79184 0.83802 0.07500
H 	H 	0.02160 0.80050 0.87960 0.01600
C 	C 	0.96826 0.77614 0.82224 -0.16500
H 	H 	0.94880 0.77440 0.85360 0.09900
C 	C 	0.95338 0.76317 0.76120 0.12800
C 	C 	0.98308 0.76646 0.71482 -0.16500
H 	H 	0.97360 0.75820 0.67310 0.09000
C 	C 	0.02672 0.78192 0.73024 0.07900
H 	H 	0.04610 0.78370 0.69880 0.01900
C 	C 	0.90620 0.74371 0.74337 -0.08500
C 	C 	0.88694 0.70676 0.70598 -0.03500
H 	H 	0.90380 0.69460 0.69310 0.04300
H 	H 	0.89810 0.84070 0.73910 -0.09500
H 	H 	0.91580 0.87600 0.83980 0.28700
O 	O 	0.77887 0.14309 0.09667 -0.41100
O 	O 	0.76649 0.15506 0.19793 -0.41000
C 	C 	0.75487 0.14331 0.14130 0.36800
C 	C 	0.70802 0.12787 0.12464 -0.13700
C 	C 	0.67867 0.12517 0.17135 0.07500
H 	H 	0.68827 0.13383 0.21293 0.01600
C 	C 	0.63493 0.10947 0.15557 -0.16500
H 	H 	0.61547 0.10773 0.18693 0.09900
C 	C 	0.62005 0.09650 0.09453 0.12800
C 	C 	0.64975 0.09979 0.04815 -0.16500
H 	H 	0.64027 0.09153 0.00643 0.09000
C 	C 	0.69339 0.11525 0.06357 0.07900
H 	H 	0.71277 0.11703 0.03213 0.01900
C 	C 	0.57287 0.07704 0.07670 -0.08500
C 	C 	0.55361 0.04009 0.03931 -0.03500
H 	H 	0.57047 0.02793 0.02643 0.04300
H 	H 	0.56477 0.17403 0.07243 -0.09500
H 	H 	0.58247 0.20933 0.17313 0.28700
O 	O 	0.44553 0.47643 0.43001 -0.41100
O 	O 	0.43315 0.48840 0.53127 -0.41000
C 	C 	0.42153 0.47665 0.47464 0.36800
C 	C 	0.37468 0.46121 0.45798 -0.13700
C 	C 	0.34533 0.45851 0.50469 0.07500
H 	H 	0.35493 0.46717 0.54627 0.01600
C 	C 	0.30159 0.44281 0.48891 -0.16500
H 	H 	0.28213 0.44107 0.52027 0.09900
C 	C 	0.28671 0.42984 0.42787 0.12800
C 	C 	0.31641 0.43313 0.38149 -0.16500
H 	H 	0.30693 0.42487 0.33977 0.09000
C 	C 	0.36005 0.44859 0.39691 0.07900
H 	H 	0.37943 0.45037 0.36547 0.01900
C 	C 	0.23953 0.41038 0.41004 -0.08500
C 	C 	0.22027 0.37343 0.37265 -0.03500
H 	H 	0.23713 0.36127 0.35977 0.04300
H 	H 	0.23143 0.50737 0.40577 -0.09500
H 	H 	0.24913 0.54267 0.50647 0.28700
O 	O 	0.69756 0.88780 0.76334 -0.41100
O 	O 	0.72191 0.90018 0.86460 -0.41000
C 	C 	0.72178 0.91180 0.80797 0.36800
C 	C 	0.75319 0.95865 0.79131 -0.13700
C 	C 	0.77984 0.98800 0.83802 0.07400
H 	H 	0.77890 0.97840 0.87960 0.01600
C 	C 	0.80788 0.03174 0.82224 -0.16500
H 	H 	0.82560 0.05120 0.85360 0.09900
C 	C 	0.80979 0.04662 0.76120 0.12700
C 	C 	0.78338 0.01692 0.71482 -0.16500
H 	H 	0.78460 0.02640 0.67310 0.09000
C 	C 	0.75520 0.97328 0.73024 0.07900
H 	H 	0.73760 0.95390 0.69880 0.01900
C 	C 	0.83751 0.09380 0.74337 -0.08500
C 	C 	0.81982 0.11306 0.70598 -0.03500
H 	H 	0.79080 0.09620 0.69310 0.04300
H 	H 	0.94260 0.10190 0.73910 -0.09500
H 	H 	0.96020 0.08420 0.83980 0.28600
O 	O 	0.36423 0.22113 0.09667 -0.41100
O 	O 	0.38858 0.23351 0.19793 -0.41000
C 	C 	0.38845 0.24513 0.14130 0.36800
C 	C 	0.41986 0.29198 0.12464 -0.13700
C 	C 	0.44651 0.32133 0.17135 0.07500
H 	H 	0.44557 0.31173 0.21293 0.01600
C 	C 	0.47455 0.36507 0.15557 -0.16500
H 	H 	0.49227 0.38453 0.18693 0.09900
C 	C 	0.47646 0.37995 0.09453 0.12800
C 	C 	0.45005 0.35025 0.04815 -0.16500
H 	H 	0.45127 0.35973 0.00643 0.09000
C 	C 	0.42187 0.30661 0.06357 0.07900
H 	H 	0.40427 0.28723 0.03213 0.01900
C 	C 	0.50418 0.42713 0.07670 -0.08500
C 	C 	0.48649 0.44639 0.03931 -0.03500
H 	H 	0.45747 0.42953 0.02643 0.04300
H 	H 	0.60927 0.43523 0.07243 -0.09500
H 	H 	0.62687 0.41753 0.17313 0.28600
O 	O 	0.03089 0.55447 0.43001 -0.41100
O 	O 	0.05524 0.56685 0.53127 -0.41000
C 	C 	0.05511 0.57847 0.47464 0.36800
C 	C 	0.08652 0.62532 0.45798 -0.13700
C 	C 	0.11317 0.65467 0.50469 0.07500
H 	H 	0.11223 0.64507 0.54627 0.01600
C 	C 	0.14121 0.69841 0.48891 -0.16500
H 	H 	0.15893 0.71787 0.52027 0.09900
C 	C 	0.14312 0.71329 0.42787 0.12800
C 	C 	0.11671 0.68359 0.38149 -0.16500
H 	H 	0.11793 0.69307 0.33977 0.09000
C 	C 	0.08853 0.63995 0.39691 0.07900
H 	H 	0.07093 0.62057 0.36547 0.01900
C 	C 	0.17084 0.76047 0.41004 -0.08500
C 	C 	0.15315 0.77973 0.37265 -0.03500
H 	H 	0.12413 0.76287 0.35977 0.04300
H 	H 	0.27593 0.76857 0.40577 -0.09500
H 	H 	0.29353 0.75087 0.50647 0.28700
O 	O 	0.69756 0.80976 0.76334 -0.41100
O 	O 	0.72191 0.82173 0.86460 -0.41000
C 	C 	0.72178 0.80998 0.80797 0.36800
C 	C 	0.75319 0.79454 0.79131 -0.13700
C 	C 	0.77984 0.79184 0.83802 0.07500
H 	H 	0.77890 0.80050 0.87960 0.01600
C 	C 	0.80788 0.77614 0.82224 -0.16500
H 	H 	0.82560 0.77440 0.85360 0.09900
C 	C 	0.80979 0.76317 0.76120 0.12800
C 	C 	0.78338 0.76646 0.71482 -0.16500
H 	H 	0.78460 0.75820 0.67310 0.09000
C 	C 	0.75520 0.78192 0.73024 0.07900
H 	H 	0.73760 0.78370 0.69880 0.01900
C 	C 	0.83751 0.74371 0.74337 -0.08500
C 	C 	0.81982 0.70676 0.70598 -0.03500
H 	H 	0.79080 0.69460 0.69310 0.04300
H 	H 	0.94260 0.84070 0.73910 -0.09500
H 	H 	0.96020 0.87600 0.83980 0.28700
O 	O 	0.36423 0.14309 0.09667 -0.41100
O 	O 	0.38858 0.15506 0.19793 -0.41000
C 	C 	0.38845 0.14331 0.14130 0.36800
C 	C 	0.41986 0.12787 0.12464 -0.13700
C 	C 	0.44651 0.12517 0.17135 0.07500
H 	H 	0.44557 0.13383 0.21293 0.01600
C 	C 	0.47455 0.10947 0.15557 -0.16500
H 	H 	0.49227 0.10773 0.18693 0.09900
C 	C 	0.47646 0.09650 0.09453 0.12800
C 	C 	0.45005 0.09979 0.04815 -0.16500
H 	H 	0.45127 0.09153 0.00643 0.09000
C 	C 	0.42187 0.11525 0.06357 0.07900
H 	H 	0.40427 0.11703 0.03213 0.01900
C 	C 	0.50418 0.07704 0.07670 -0.08500
C 	C 	0.48649 0.04009 0.03931 -0.03500
H 	H 	0.45747 0.02793 0.02643 0.04300
H 	H 	0.60927 0.17403 0.07243 -0.09500
H 	H 	0.62687 0.20933 0.17313 0.28700
O 	O 	0.03089 0.47643 0.43001 -0.41100
O 	O 	0.05524 0.48840 0.53127 -0.41000
C 	C 	0.05511 0.47665 0.47464 0.36800
C 	C 	0.08652 0.46121 0.45798 -0.13700
C 	C 	0.11317 0.45851 0.50469 0.07500
H 	H 	0.11223 0.46717 0.54627 0.01600
C 	C 	0.14121 0.44281 0.48891 -0.16500
H 	H 	0.15893 0.44107 0.52027 0.09900
C 	C 	0.14312 0.42984 0.42787 0.12800
C 	C 	0.11671 0.43313 0.38149 -0.16500
H 	H 	0.11793 0.42487 0.33977 0.09000
C 	C 	0.08853 0.44859 0.39691 0.07900
H 	H 	0.07093 0.45037 0.36547 0.01900
C 	C 	0.17084 0.41038 0.41004 -0.08500
C 	C 	0.15315 0.37343 0.37265 -0.03500
H 	H 	0.12413 0.36127 0.35977 0.04300
H 	H 	0.27593 0.50737 0.40577 -0.09500
H 	H 	0.29353 0.54267 0.50647 0.28700
O 	O 	0.19024 0.88780 0.76334 -0.41100
O 	O 	0.17827 0.90018 0.86460 -0.41000
C 	C 	0.19002 0.91180 0.80797 0.36800
C 	C 	0.20546 0.95865 0.79131 -0.13700
C 	C 	0.20816 0.98800 0.83802 0.07500
H 	H 	0.19950 0.97840 0.87960 0.01600
C 	C 	0.22386 0.03174 0.82224 -0.16500
H 	H 	0.22560 0.05120 0.85360 0.09900
C 	C 	0.23683 0.04662 0.76120 0.12800
C 	C 	0.23354 0.01692 0.71482 -0.16500
H 	H 	0.24180 0.02640 0.67310 0.09000
C 	C 	0.21808 0.97328 0.73024 0.07900
H 	H 	0.21630 0.95390 0.69880 0.01900
C 	C 	0.25629 0.09380 0.74337 -0.08500
C 	C 	0.29324 0.11306 0.70598 -0.03500
H 	H 	0.30540 0.09620 0.69310 0.04300
H 	H 	0.15930 0.10190 0.73910 -0.09500
H 	H 	0.12400 0.08420 0.83980 0.28700
O 	O 	0.85691 0.22113 0.09667 -0.41100
O 	O 	0.84494 0.23351 0.19793 -0.41000
C 	C 	0.85669 0.24513 0.14130 0.36800
C 	C 	0.87213 0.29198 0.12464 -0.13700
C 	C 	0.87483 0.32133 0.17135 0.07500
H 	H 	0.86617 0.31173 0.21293 0.01600
C 	C 	0.89053 0.36507 0.15557 -0.16500
H 	H 	0.89227 0.38453 0.18693 0.09900
C 	C 	0.90350 0.37995 0.09453 0.12800
C 	C 	0.90021 0.35025 0.04815 -0.16500
H 	H 	0.90847 0.35973 0.00643 0.09000
C 	C 	0.88475 0.30661 0.06357 0.07900
H 	H 	0.88297 0.28723 0.03213 0.01900
C 	C 	0.92296 0.42713 0.07670 -0.08500
C 	C 	0.95991 0.44639 0.03931 -0.03500
H 	H 	0.97207 0.42953 0.02643 0.04300
H 	H 	0.82597 0.43523 0.07243 -0.09500
H 	H 	0.79067 0.41753 0.17313 0.28700
O 	O 	0.52357 0.55447 0.43001 -0.41100
O 	O 	0.51160 0.56685 0.53127 -0.41000
C 	C 	0.52335 0.57847 0.47464 0.36800
C 	C 	0.53879 0.62532 0.45798 -0.13700
C 	C 	0.54149 0.65467 0.50469 0.07500
H 	H 	0.53283 0.64507 0.54627 0.01600
C 	C 	0.55719 0.69841 0.48891 -0.16500
H 	H 	0.55893 0.71787 0.52027 0.09900
C 	C 	0.57016 0.71329 0.42787 0.12800
C 	C 	0.56687 0.68359 0.38149 -0.16500
H 	H 	0.57513 0.69307 0.33977 0.09000
C 	C 	0.55141 0.63995 0.39691 0.07900
H 	H 	0.54963 0.62057 0.36547 0.01900
C 	C 	0.58962 0.76047 0.41004 -0.08500
C 	C 	0.62657 0.77973 0.37265 -0.03500
H 	H 	0.63873 0.76287 0.35977 0.04300
H 	H 	0.49263 0.76857 0.40577 -0.09500
H 	H 	0.45733 0.75087 0.50647 0.28700
O 	O 	0.11220 0.30244 0.76334 -0.41100
O 	O 	0.09982 0.27809 0.86460 -0.41000
C 	C 	0.08820 0.27822 0.80797 0.36800
C 	C 	0.04135 0.24681 0.79131 -0.13700
C 	C 	0.01200 0.22016 0.83802 0.07400
H 	H 	0.02160 0.22110 0.87960 0.01600
C 	C 	0.96826 0.19212 0.82224 -0.16500
H 	H 	0.94880 0.17440 0.85360 0.09900
C 	C 	0.95338 0.19021 0.76120 0.12700
C 	C 	0.98308 0.21662 0.71482 -0.16500
H 	H 	0.97360 0.21540 0.67310 0.09000
C 	C 	0.02672 0.24480 0.73024 0.07900
H 	H 	0.04610 0.26240 0.69880 0.01900
C 	C 	0.90620 0.16249 0.74337 -0.08500
C 	C 	0.88694 0.18018 0.70598 -0.03500
H 	H 	0.90380 0.20920 0.69310 0.04300
H 	H 	0.89810 0.05740 0.73910 -0.09500
H 	H 	0.91580 0.03980 0.83980 0.28600
O 	O 	0.77887 0.63577 0.09667 -0.41100
O 	O 	0.76649 0.61142 0.19793 -0.41000
C 	C 	0.75487 0.61155 0.14130 0.36800
C 	C 	0.70802 0.58014 0.12464 -0.13700
C 	C 	0.67867 0.55349 0.17135 0.07500
H 	H 	0.68827 0.55443 0.21293 0.01600
C 	C 	0.63493 0.52545 0.15557 -0.16500
H 	H 	0.61547 0.50773 0.18693 0.09900
C 	C 	0.62005 0.52354 0.09453 0.12800
C 	C 	0.64975 0.54995 0.04815 -0.16500
H 	H 	0.64027 0.54873 0.00643 0.09000
C 	C 	0.69339 0.57813 0.06357 0.07900
H 	H 	0.71277 0.59573 0.03213 0.01900
C 	C 	0.57287 0.49582 0.07670 -0.08500
C 	C 	0.55361 0.51351 0.03931 -0.03500
H 	H 	0.57047 0.54253 0.02643 0.04300
H 	H 	0.56477 0.39073 0.07243 -0.09500
H 	H 	0.58247 0.37313 0.17313 0.28600
O 	O 	0.44553 0.96911 0.43001 -0.41100
O 	O 	0.43315 0.94476 0.53127 -0.41000
C 	C 	0.42153 0.94489 0.47464 0.36800
C 	C 	0.37468 0.91348 0.45798 -0.13700
C 	C 	0.34533 0.88683 0.50469 0.07500
H 	H 	0.35493 0.88777 0.54627 0.01600
C 	C 	0.30159 0.85879 0.48891 -0.16500
H 	H 	0.28213 0.84107 0.52027 0.09900
C 	C 	0.28671 0.85688 0.42787 0.12800
C 	C 	0.31641 0.88329 0.38149 -0.16500
H 	H 	0.30693 0.88207 0.33977 0.09000
C 	C 	0.36005 0.91147 0.39691 0.07900
H 	H 	0.37943 0.92907 0.36547 0.01900
C 	C 	0.23953 0.82916 0.41004 -0.08500
C 	C 	0.22027 0.84685 0.37265 -0.03500
H 	H 	0.23713 0.87587 0.35977 0.04300
H 	H 	0.23143 0.72407 0.40577 -0.09500
H 	H 	0.24913 0.70647 0.50647 0.28700
O 	O 	0.80976 0.69756 0.23666 -0.41100
O 	O 	0.82173 0.72191 0.13540 -0.41000
C 	C 	0.80998 0.72178 0.19203 0.36800
C 	C 	0.79454 0.75319 0.20869 -0.13700
C 	C 	0.79184 0.77984 0.16198 0.07500
H 	H 	0.80050 0.77890 0.12040 0.01600
C 	C 	0.77614 0.80788 0.17776 -0.16500
H 	H 	0.77440 0.82560 0.14640 0.09900
C 	C 	0.76317 0.80979 0.23880 0.12800
C 	C 	0.76646 0.78338 0.28518 -0.16500
H 	H 	0.75820 0.78460 0.32690 0.09000
C 	C 	0.78192 0.75520 0.26976 0.07900
H 	H 	0.78370 0.73760 0.30120 0.01900
C 	C 	0.74371 0.83751 0.25663 -0.08500
C 	C 	0.70676 0.81982 0.29402 -0.03500
H 	H 	0.69460 0.79080 0.30690 0.04300
H 	H 	0.84070 0.94260 0.26090 -0.09500
H 	H 	0.87600 0.96020 0.16020 0.28700
O 	O 	0.47643 0.03089 0.56999 -0.41100
O 	O 	0.48840 0.05524 0.46873 -0.41000
C 	C 	0.47665 0.05511 0.52536 0.36800
C 	C 	0.46121 0.08652 0.54202 -0.13700
C 	C 	0.45851 0.11317 0.49531 0.07500
H 	H 	0.46717 0.11223 0.45373 0.01600
C 	C 	0.44281 0.14121 0.51109 -0.16500
H 	H 	0.44107 0.15893 0.47973 0.09900
C 	C 	0.42984 0.14312 0.57213 0.12800
C 	C 	0.43313 0.11671 0.61851 -0.16500
H 	H 	0.42487 0.11793 0.66023 0.09000
C 	C 	0.44859 0.08853 0.60309 0.07900
H 	H 	0.45037 0.07093 0.63453 0.01900
C 	C 	0.41038 0.17084 0.58996 -0.08500
C 	C 	0.37343 0.15315 0.62735 -0.03500
H 	H 	0.36127 0.12413 0.64023 0.04300
H 	H 	0.50737 0.27593 0.59423 -0.09500
H 	H 	0.54267 0.29353 0.49353 0.28700
O 	O 	0.14309 0.36423 0.90333 -0.41100
O 	O 	0.15506 0.38858 0.80207 -0.41000
C 	C 	0.14331 0.38845 0.85870 0.36800
C 	C 	0.12787 0.41986 0.87536 -0.13700
C 	C 	0.12517 0.44651 0.82865 0.07500
H 	H 	0.13383 0.44557 0.78707 0.01600
C 	C 	0.10947 0.47455 0.84443 -0.16500
H 	H 	0.10773 0.49227 0.81307 0.09900
C 	C 	0.09650 0.47646 0.90547 0.12800
C 	C 	0.09979 0.45005 0.95185 -0.16500
H 	H 	0.09153 0.45127 0.99357 0.09000
C 	C 	0.11525 0.42187 0.93643 0.07900
H 	H 	0.11703 0.40427 0.96787 0.01900
C 	C 	0.07704 0.50418 0.92330 -0.08500
C 	C 	0.04009 0.48649 0.96069 -0.03500
H 	H 	0.02793 0.45747 0.97357 0.04300
H 	H 	0.17403 0.60927 0.92757 -0.09500
H 	H 	0.20933 0.62687 0.82687 0.28700
O 	O 	0.88780 0.19024 0.23666 -0.41100
O 	O 	0.90018 0.17827 0.13540 -0.41000
C 	C 	0.91180 0.19002 0.19203 0.36800
C 	C 	0.95865 0.20546 0.20869 -0.13700
C 	C 	0.98800 0.20816 0.16198 0.07500
H 	H 	0.97840 0.19950 0.12040 0.01600
C 	C 	0.03174 0.22386 0.17776 -0.16500
H 	H 	0.05120 0.22560 0.14640 0.09900
C 	C 	0.04662 0.23683 0.23880 0.12800
C 	C 	0.01692 0.23354 0.28518 -0.16500
H 	H 	0.02640 0.24180 0.32690 0.09000
C 	C 	0.97328 0.21808 0.26976 0.07900
H 	H 	0.95390 0.21630 0.30120 0.01900
C 	C 	0.09380 0.25629 0.25663 -0.08500
C 	C 	0.11306 0.29324 0.29402 -0.03500
H 	H 	0.09620 0.30540 0.30690 0.04300
H 	H 	0.10190 0.15930 0.26090 -0.09500
H 	H 	0.08420 0.12400 0.16020 0.28700
O 	O 	0.55447 0.52357 0.56999 -0.41100
O 	O 	0.56685 0.51160 0.46873 -0.41000
C 	C 	0.57847 0.52335 0.52536 0.36800
C 	C 	0.62532 0.53879 0.54202 -0.13700
C 	C 	0.65467 0.54149 0.49531 0.07500
H 	H 	0.64507 0.53283 0.45373 0.01600
C 	C 	0.69841 0.55719 0.51109 -0.16500
H 	H 	0.71787 0.55893 0.47973 0.09900
C 	C 	0.71329 0.57016 0.57213 0.12800
C 	C 	0.68359 0.56687 0.61851 -0.16500
H 	H 	0.69307 0.57513 0.66023 0.09000
C 	C 	0.63995 0.55141 0.60309 0.07900
H 	H 	0.62057 0.54963 0.63453 0.01900
C 	C 	0.76047 0.58962 0.58996 -0.08500
C 	C 	0.77973 0.62657 0.62735 -0.03500
H 	H 	0.76287 0.63873 0.64023 0.04300
H 	H 	0.76857 0.49263 0.59423 -0.09500
H 	H 	0.75087 0.45733 0.49353 0.28700
O 	O 	0.22113 0.85691 0.90333 -0.41100
O 	O 	0.23351 0.84494 0.80207 -0.41000
C 	C 	0.24513 0.85669 0.85870 0.36800
C 	C 	0.29198 0.87213 0.87536 -0.13700
C 	C 	0.32133 0.87483 0.82865 0.07500
H 	H 	0.31173 0.86617 0.78707 0.01600
C 	C 	0.36507 0.89053 0.84443 -0.16500
H 	H 	0.38453 0.89227 0.81307 0.09900
C 	C 	0.37995 0.90350 0.90547 0.12800
C 	C 	0.35025 0.90021 0.95185 -0.16500
H 	H 	0.35973 0.90847 0.99357 0.09000
C 	C 	0.30661 0.88475 0.93643 0.07900
H 	H 	0.28723 0.88297 0.96787 0.01900
C 	C 	0.42713 0.92296 0.92330 -0.08500
C 	C 	0.44639 0.95991 0.96069 -0.03500
H 	H 	0.42953 0.97207 0.97357 0.04300
H 	H 	0.43523 0.82597 0.92757 -0.09500
H 	H 	0.41753 0.79067 0.82687 0.28700
O 	O 	0.30244 0.11220 0.23666 -0.41100
O 	O 	0.27809 0.09982 0.13540 -0.41000
C 	C 	0.27822 0.08820 0.19203 0.36800
C 	C 	0.24681 0.04135 0.20869 -0.13700
C 	C 	0.22016 0.01200 0.16198 0.07400
H 	H 	0.22110 0.02160 0.12040 0.01600
C 	C 	0.19212 0.96826 0.17776 -0.16500
H 	H 	0.17440 0.94880 0.14640 0.09900
C 	C 	0.19021 0.95338 0.23880 0.12700
C 	C 	0.21662 0.98308 0.28518 -0.16500
H 	H 	0.21540 0.97360 0.32690 0.09000
C 	C 	0.24480 0.02672 0.26976 0.07900
H 	H 	0.26240 0.04610 0.30120 0.01900
C 	C 	0.16249 0.90620 0.25663 -0.08500
C 	C 	0.18018 0.88694 0.29402 -0.03500
H 	H 	0.20920 0.90380 0.30690 0.04300
H 	H 	0.05740 0.89810 0.26090 -0.09500
H 	H 	0.03980 0.91580 0.16020 0.28600
O 	O 	0.96911 0.44553 0.56999 -0.41100
O 	O 	0.94476 0.43315 0.46873 -0.41000
C 	C 	0.94489 0.42153 0.52536 0.36800
C 	C 	0.91348 0.37468 0.54202 -0.13700
C 	C 	0.88683 0.34533 0.49531 0.07500
H 	H 	0.88777 0.35493 0.45373 0.01600
C 	C 	0.85879 0.30159 0.51109 -0.16500
H 	H 	0.84107 0.28213 0.47973 0.09900
C 	C 	0.85688 0.28671 0.57213 0.12800
C 	C 	0.88329 0.31641 0.61851 -0.16500
H 	H 	0.88207 0.30693 0.66023 0.09000
C 	C 	0.91147 0.36005 0.60309 0.07900
H 	H 	0.92907 0.37943 0.63453 0.01900
C 	C 	0.82916 0.23953 0.58996 -0.08500
C 	C 	0.84685 0.22027 0.62735 -0.03500
H 	H 	0.87587 0.23713 0.64023 0.04300
H 	H 	0.72407 0.23143 0.59423 -0.09500
H 	H 	0.70647 0.24913 0.49353 0.28700
O 	O 	0.63577 0.77887 0.90333 -0.41100
O 	O 	0.61142 0.76649 0.80207 -0.41000
C 	C 	0.61155 0.75487 0.85870 0.36800
C 	C 	0.58014 0.70802 0.87536 -0.13700
C 	C 	0.55349 0.67867 0.82865 0.07500
H 	H 	0.55443 0.68827 0.78707 0.01600
C 	C 	0.52545 0.63493 0.84443 -0.16500
H 	H 	0.50773 0.61547 0.81307 0.09900
C 	C 	0.52354 0.62005 0.90547 0.12800
C 	C 	0.54995 0.64975 0.95185 -0.16500
H 	H 	0.54873 0.64027 0.99357 0.09000
C 	C 	0.57813 0.69339 0.93643 0.07900
H 	H 	0.59573 0.71277 0.96787 0.01900
C 	C 	0.49582 0.57287 0.92330 -0.08500
C 	C 	0.51351 0.55361 0.96069 -0.03500
H 	H 	0.54253 0.57047 0.97357 0.04300
H 	H 	0.39073 0.56477 0.92757 -0.09500
H 	H 	0.37313 0.58247 0.82687 0.28600
Cu	Cu	0.31931 0.15965 0.10728 0.90300
Cu	Cu	0.98598 0.49299 0.44061 0.90300
Cu	Cu	0.65264 0.82632 0.77395 0.90300
Cu	Cu	0.84034 0.15966 0.10728 0.90300
Cu	Cu	0.50701 0.49299 0.44061 0.90300
Cu	Cu	0.17368 0.82632 0.77395 0.90300
Cu	Cu	0.84034 0.68069 0.10728 0.90300
Cu	Cu	0.50701 0.01402 0.44061 0.90300
Cu	Cu	0.17368 0.34736 0.77395 0.90300
Cu	Cu	0.15966 0.31931 0.89272 0.90300
Cu	Cu	0.82632 0.65264 0.22605 0.90300
Cu	Cu	0.49299 0.98598 0.55939 0.90300
Cu	Cu	0.15966 0.84034 0.89272 0.90300
Cu	Cu	0.82632 0.17368 0.22605 0.90300
Cu	Cu	0.49299 0.50701 0.55939 0.90300
Cu	Cu	0.68069 0.84034 0.89272 0.90300
Cu	Cu	0.34736 0.17368 0.22605 0.90300
Cu	Cu	0.01402 0.50701 0.55939 0.90300
O 	O 	0.10029 0.20057 0.19953 -0.30700
C 	C 	0.15668 0.31336 0.31360 0.00200
C 	C 	0.11866 0.23732 0.23781 0.16700
C 	C 	0.08044 0.16087 0.23390 0.42800
C 	C 	0.06120 0.12240 0.18650 -0.86600
H 	H 	0.04765 0.09530 0.20960 0.27600
O 	O 	0.76695 0.53390 0.53286 -0.30700
C 	C 	0.82335 0.64669 0.64693 0.00100
C 	C 	0.78533 0.57065 0.57114 0.16700
C 	C 	0.74710 0.49420 0.56723 0.42800
C 	C 	0.72787 0.45573 0.51983 -0.86600
H 	H 	0.71432 0.42863 0.54293 0.27600
O 	O 	0.43362 0.86724 0.86620 -0.30700
C 	C 	0.49001 0.98003 0.98027 0.00200
C 	C 	0.45199 0.90399 0.90448 0.16700
C 	C 	0.41377 0.82754 0.90057 0.42800
C 	C 	0.39453 0.78907 0.85317 -0.86600
H 	H 	0.38098 0.76197 0.87627 0.27600
O 	O 	0.79943 0.89971 0.19953 -0.30700
C 	C 	0.68664 0.84332 0.31360 0.00200
C 	C 	0.76268 0.88134 0.23781 0.16700
C 	C 	0.83913 0.91957 0.23390 0.42800
C 	C 	0.87760 0.93880 0.18650 -0.86600
H 	H 	0.90470 0.95235 0.20960 0.27600
O 	O 	0.46610 0.23305 0.53286 -0.30700
C 	C 	0.35331 0.17665 0.64693 0.00100
C 	C 	0.42935 0.21467 0.57114 0.16700
C 	C 	0.50580 0.25290 0.56723 0.42800
C 	C 	0.54427 0.27213 0.51983 -0.86600
H 	H 	0.57137 0.28568 0.54293 0.27600
O 	O 	0.13276 0.56638 0.86620 -0.30700
C 	C 	0.01997 0.50999 0.98027 0.00200
C 	C 	0.09601 0.54801 0.90448 0.16700
C 	C 	0.17246 0.58623 0.90057 0.42800
C 	C 	0.21093 0.60547 0.85317 -0.86600
H 	H 	0.23803 0.61902 0.87627 0.27600
O 	O 	0.10029 0.89971 0.19953 -0.30700
C 	C 	0.15668 0.84332 0.31360 0.00200
C 	C 	0.11866 0.88134 0.23781 0.16700
C 	C 	0.08044 0.91956 0.23390 0.42800
C 	C 	0.06120 0.93880 0.18650 -0.86600
H 	H 	0.04765 0.95235 0.20960 0.27600
O 	O 	0.76695 0.23305 0.53286 -0.30700
C 	C 	0.82335 0.17665 0.64693 0.00100
C 	C 	0.78533 0.21467 0.57114 0.16700
C 	C 	0.74710 0.25290 0.56723 0.42900
C 	C 	0.72787 0.27213 0.51983 -0.86700
H 	H 	0.71432 0.28568 0.54293 0.27600
O 	O 	0.43362 0.56638 0.86620 -0.30700
C 	C 	0.49001 0.50999 0.98027 0.00100
C 	C 	0.45199 0.54801 0.90448 0.16700
C 	C 	0.41377 0.58623 0.90057 0.42700
C 	C 	0.39453 0.60547 0.85317 -0.86500
H 	H 	0.38098 0.61902 0.87627 0.27600
O 	O 	0.20057 0.10029 0.80047 -0.30700
C 	C 	0.31336 0.15668 0.68640 0.00200
C 	C 	0.23732 0.11866 0.76219 0.16700
C 	C 	0.16087 0.08044 0.76610 0.42800
C 	C 	0.12240 0.06120 0.81350 -0.86600
H 	H 	0.09530 0.04765 0.79040 0.27600
O 	O 	0.86724 0.43362 0.13380 -0.30700
C 	C 	0.98003 0.49001 0.01973 0.00200
C 	C 	0.90399 0.45199 0.09552 0.16700
C 	C 	0.82754 0.41377 0.09943 0.42800
C 	C 	0.78907 0.39453 0.14683 -0.86600
H 	H 	0.76197 0.38098 0.12373 0.27600
O 	O 	0.53390 0.76695 0.46714 -0.30700
C 	C 	0.64669 0.82335 0.35307 0.00100
C 	C 	0.57065 0.78533 0.42886 0.16700
C 	C 	0.49420 0.74710 0.43277 0.42800
C 	C 	0.45573 0.72787 0.48017 -0.86600
H 	H 	0.42863 0.71432 0.45707 0.27600
O 	O 	0.89971 0.79943 0.80047 -0.30700
C 	C 	0.84332 0.68664 0.68640 0.00200
C 	C 	0.88134 0.76268 0.76219 0.16700
C 	C 	0.91956 0.83913 0.76610 0.42800
C 	C 	0.93880 0.87760 0.81350 -0.86600
H 	H 	0.95235 0.90470 0.79040 0.27600
O 	O 	0.56638 0.13276 0.13380 -0.30700
C 	C 	0.50999 0.01997 0.01973 0.00200
C 	C 	0.54801 0.09601 0.09552 0.16700
C 	C 	0.58623 0.17246 0.09943 0.42800
C 	C 	0.60547 0.21093 0.14683 -0.86600
H 	H 	0.61902 0.23803 0.12373 0.27600
O 	O 	0.23305 0.46610 0.46714 -0.30700
C 	C 	0.17665 0.35331 0.35307 0.00100
C 	C 	0.21467 0.42935 0.42886 0.16700
C 	C 	0.25290 0.50580 0.43277 0.42800
C 	C 	0.27213 0.54427 0.48017 -0.86600
H 	H 	0.28568 0.57137 0.45707 0.27600
O 	O 	0.89971 0.10029 0.80047 -0.30700
C 	C 	0.84332 0.15668 0.68640 0.00200
C 	C 	0.88134 0.11866 0.76219 0.16700
C 	C 	0.91956 0.08044 0.76610 0.42800
C 	C 	0.93880 0.06120 0.81350 -0.86600
H 	H 	0.95235 0.04765 0.79040 0.27600
O 	O 	0.56638 0.43362 0.13380 -0.30700
C 	C 	0.50999 0.49001 0.01973 0.00100
C 	C 	0.54801 0.45199 0.09552 0.16700
C 	C 	0.58623 0.41377 0.09943 0.42700
C 	C 	0.60547 0.39453 0.14683 -0.86500
H 	H 	0.61902 0.38098 0.12373 0.27600
O 	O 	0.23305 0.76695 0.46714 -0.30700
C 	C 	0.17665 0.82335 0.35307 0.00100
C 	C 	0.21467 0.78533 0.42886 0.16700
C 	C 	0.25290 0.74710 0.43277 0.42900
C 	C 	0.27213 0.72787 0.48017 -0.86700
H 	H 	0.28568 0.71432 0.45707 0.27600
