data_crystal

_cell_length_a 35.71920
_cell_length_b 35.71920
_cell_length_c 17.10930
_cell_angle_alpha 90.00000
_cell_angle_beta  90.00000
_cell_angle_gamma 120.00000

_symmetry_space_group_name_	'P 1'
_symmetry_space_group_name_H-M	'P 1'

loop_
_symmetry_equiv_pos_as_xyz
  x,y,z

loop_
_atom_site_label
_atom_site_type_symbol
_atom_site_fract_x
_atom_site_fract_y
_atom_site_fract_z
_atom_site_charge
O 	O 	0.89862 0.17842 0.12148 -0.41100
O 	O 	0.88887 0.18833 0.24810 -0.40800
C 	C 	0.91126 0.18853 0.18970 0.36800
C 	C 	0.95754 0.20207 0.20760 -0.12800
C 	C 	0.98526 0.20454 0.14890 0.06800
C 	C 	0.97327 0.21343 0.28260 0.06300
H 	H 	0.97490 0.19660 0.09690 0.02500
C 	C 	0.02851 0.21885 0.16640 -0.14800
C 	C 	0.01662 0.22820 0.29910 -0.14300
H 	H 	0.95430 0.21120 0.32350 0.02500
C 	C 	0.04469 0.23160 0.23830 0.11100
H 	H 	0.04710 0.21960 0.12600 0.09300
H 	H 	0.02720 0.23590 0.35110 0.07900
C 	C 	0.09167 0.25087 0.25720 -0.07000
C 	C 	0.11236 0.29090 0.29450 -0.04300
H 	H 	0.09610 0.30460 0.30660 0.04400
H 	H 	0.05430 0.15380 0.28880 0.04400
O 	O 	0.56529 0.51175 0.45481 -0.41100
O 	O 	0.55554 0.52166 0.58143 -0.40800
C 	C 	0.57793 0.52186 0.52303 0.36800
C 	C 	0.62421 0.53540 0.54093 -0.12800
C 	C 	0.65193 0.53787 0.48223 0.06800
C 	C 	0.63994 0.54676 0.61593 0.06300
H 	H 	0.64157 0.52993 0.43023 0.02500
C 	C 	0.69518 0.55218 0.49973 -0.14800
C 	C 	0.68329 0.56153 0.63243 -0.14300
H 	H 	0.62097 0.54453 0.65683 0.02500
C 	C 	0.71136 0.56493 0.57163 0.11100
H 	H 	0.71377 0.55293 0.45933 0.09300
H 	H 	0.69387 0.56923 0.68443 0.07900
C 	C 	0.75834 0.58420 0.59053 -0.07000
C 	C 	0.77903 0.62423 0.62783 -0.04300
H 	H 	0.76277 0.63793 0.63993 0.04400
H 	H 	0.72097 0.48713 0.62213 0.04400
O 	O 	0.23195 0.84509 0.78815 -0.41100
O 	O 	0.22220 0.85500 0.91477 -0.40800
C 	C 	0.24459 0.85520 0.85637 0.36800
C 	C 	0.29087 0.86874 0.87427 -0.12800
C 	C 	0.31859 0.87121 0.81557 0.06800
C 	C 	0.30660 0.88010 0.94927 0.06300
H 	H 	0.30823 0.86327 0.76357 0.02500
C 	C 	0.36184 0.88552 0.83307 -0.14800
C 	C 	0.34995 0.89487 0.96577 -0.14300
H 	H 	0.28763 0.87787 0.99017 0.02500
C 	C 	0.37802 0.89827 0.90497 0.11100
H 	H 	0.38043 0.88627 0.79267 0.09300
H 	H 	0.36053 0.90257 0.01777 0.07900
C 	C 	0.42500 0.91754 0.92387 -0.07000
C 	C 	0.44569 0.95757 0.96117 -0.04300
H 	H 	0.42943 0.97127 0.97327 0.04400
H 	H 	0.38763 0.82047 0.95547 0.04500
O 	O 	0.82158 0.72020 0.12148 -0.41000
O 	O 	0.81167 0.70054 0.24810 -0.40700
C 	C 	0.81147 0.72273 0.18970 0.36900
C 	C 	0.79793 0.75547 0.20760 -0.12700
C 	C 	0.79546 0.78072 0.14890 0.06900
C 	C 	0.78657 0.75984 0.28260 0.06400
H 	H 	0.80340 0.77830 0.09690 0.02600
C 	C 	0.78115 0.80966 0.16640 -0.14700
C 	C 	0.77180 0.78842 0.29910 -0.14200
H 	H 	0.78880 0.74310 0.32350 0.02600
C 	C 	0.76840 0.81309 0.23830 0.11200
H 	H 	0.78040 0.82750 0.12600 0.09400
H 	H 	0.76410 0.79130 0.35110 0.08000
C 	C 	0.74913 0.84080 0.25720 -0.06900
C 	C 	0.70910 0.82146 0.29450 -0.04200
H 	H 	0.69540 0.79150 0.30660 0.04500
H 	H 	0.84620 0.90050 0.28880 0.04500
O 	O 	0.48825 0.05353 0.45481 -0.41000
O 	O 	0.47834 0.03387 0.58143 -0.40700
C 	C 	0.47814 0.05606 0.52303 0.36900
C 	C 	0.46460 0.08880 0.54093 -0.12700
C 	C 	0.46213 0.11405 0.48223 0.06900
C 	C 	0.45324 0.09317 0.61593 0.06400
H 	H 	0.47007 0.11163 0.43023 0.02600
C 	C 	0.44782 0.14299 0.49973 -0.14700
C 	C 	0.43847 0.12175 0.63243 -0.14200
H 	H 	0.45547 0.07643 0.65683 0.02600
C 	C 	0.43507 0.14642 0.57163 0.11200
H 	H 	0.44707 0.16083 0.45933 0.09400
H 	H 	0.43077 0.12463 0.68443 0.08000
C 	C 	0.41580 0.17413 0.59053 -0.06900
C 	C 	0.37577 0.15479 0.62783 -0.04200
H 	H 	0.36207 0.12483 0.63993 0.04500
H 	H 	0.51287 0.23383 0.62213 0.04500
O 	O 	0.15491 0.38687 0.78815 -0.41000
O 	O 	0.14500 0.36721 0.91477 -0.40700
C 	C 	0.14480 0.38940 0.85637 0.36900
C 	C 	0.13126 0.42214 0.87427 -0.12700
C 	C 	0.12879 0.44739 0.81557 0.06900
C 	C 	0.11990 0.42651 0.94927 0.06400
H 	H 	0.13673 0.44497 0.76357 0.02600
C 	C 	0.11448 0.47633 0.83307 -0.14700
C 	C 	0.10513 0.45509 0.96577 -0.14200
H 	H 	0.12213 0.40977 0.99017 0.02600
C 	C 	0.10173 0.47976 0.90497 0.11200
H 	H 	0.11373 0.49417 0.79267 0.09400
H 	H 	0.09743 0.45797 0.01777 0.08000
C 	C 	0.08246 0.50747 0.92387 -0.06900
C 	C 	0.04243 0.48813 0.96117 -0.04200
H 	H 	0.02873 0.45817 0.97327 0.04500
H 	H 	0.17953 0.56717 0.95547 0.04500
O 	O 	0.27980 0.10138 0.12148 -0.41000
O 	O 	0.29946 0.11113 0.24810 -0.40700
C 	C 	0.27727 0.08874 0.18970 0.36900
C 	C 	0.24453 0.04246 0.20760 -0.12700
C 	C 	0.21928 0.01474 0.14890 0.06900
C 	C 	0.24016 0.02673 0.28260 0.06400
H 	H 	0.22170 0.02510 0.09690 0.02600
C 	C 	0.19034 0.97149 0.16640 -0.14700
C 	C 	0.21158 0.98338 0.29910 -0.14200
H 	H 	0.25690 0.04570 0.32350 0.02600
C 	C 	0.18691 0.95531 0.23830 0.11200
H 	H 	0.17250 0.95290 0.12600 0.09400
H 	H 	0.20870 0.97280 0.35110 0.08000
C 	C 	0.15920 0.90833 0.25720 -0.06900
C 	C 	0.17854 0.88764 0.29450 -0.04200
H 	H 	0.20850 0.90390 0.30660 0.04500
H 	H 	0.09950 0.94570 0.28880 0.04500
O 	O 	0.94647 0.43471 0.45481 -0.41000
O 	O 	0.96613 0.44446 0.58143 -0.40700
C 	C 	0.94394 0.42207 0.52303 0.36900
C 	C 	0.91120 0.37579 0.54093 -0.12700
C 	C 	0.88595 0.34807 0.48223 0.06900
C 	C 	0.90683 0.36006 0.61593 0.06400
H 	H 	0.88837 0.35843 0.43023 0.02600
C 	C 	0.85701 0.30482 0.49973 -0.14700
C 	C 	0.87825 0.31671 0.63243 -0.14200
H 	H 	0.92357 0.37903 0.65683 0.02600
C 	C 	0.85358 0.28864 0.57163 0.11200
H 	H 	0.83917 0.28623 0.45933 0.09400
H 	H 	0.87537 0.30613 0.68443 0.08000
C 	C 	0.82587 0.24166 0.59053 -0.06900
C 	C 	0.84521 0.22097 0.62783 -0.04200
H 	H 	0.87517 0.23723 0.63993 0.04500
H 	H 	0.76617 0.27903 0.62213 0.04400
O 	O 	0.61313 0.76805 0.78815 -0.41000
O 	O 	0.63279 0.77780 0.91477 -0.40700
C 	C 	0.61060 0.75541 0.85637 0.36900
C 	C 	0.57786 0.70913 0.87427 -0.12700
C 	C 	0.55261 0.68141 0.81557 0.06900
C 	C 	0.57349 0.69340 0.94927 0.06400
H 	H 	0.55503 0.69177 0.76357 0.02600
C 	C 	0.52367 0.63816 0.83307 -0.14700
C 	C 	0.54491 0.65005 0.96577 -0.14200
H 	H 	0.59023 0.71237 0.99017 0.02600
C 	C 	0.52024 0.62198 0.90497 0.11200
H 	H 	0.50583 0.61957 0.79267 0.09400
H 	H 	0.54203 0.63947 0.01777 0.08000
C 	C 	0.49253 0.57500 0.92387 -0.06900
C 	C 	0.51187 0.55431 0.96117 -0.04200
H 	H 	0.54183 0.57057 0.97327 0.04500
H 	H 	0.43283 0.61237 0.95547 0.04500
O 	O 	0.17842 0.89862 0.87852 -0.41000
O 	O 	0.18833 0.88887 0.75190 -0.40700
C 	C 	0.18853 0.91126 0.81030 0.36900
C 	C 	0.20207 0.95754 0.79240 -0.12700
C 	C 	0.20454 0.98526 0.85110 0.06900
C 	C 	0.21343 0.97327 0.71740 0.06400
H 	H 	0.19660 0.97490 0.90310 0.02600
C 	C 	0.21885 0.02851 0.83360 -0.14700
C 	C 	0.22820 0.01662 0.70090 -0.14200
H 	H 	0.21120 0.95430 0.67650 0.02600
C 	C 	0.23160 0.04469 0.76170 0.11200
H 	H 	0.21960 0.04710 0.87400 0.09400
H 	H 	0.23590 0.02720 0.64890 0.08000
C 	C 	0.25087 0.09167 0.74280 -0.06900
C 	C 	0.29090 0.11236 0.70550 -0.04200
H 	H 	0.30460 0.09610 0.69340 0.04500
H 	H 	0.15380 0.05430 0.71120 0.04500
O 	O 	0.84509 0.23195 0.21185 -0.41000
O 	O 	0.85500 0.22220 0.08523 -0.40700
C 	C 	0.85520 0.24459 0.14363 0.36900
C 	C 	0.86874 0.29087 0.12573 -0.12700
C 	C 	0.87121 0.31859 0.18443 0.06900
C 	C 	0.88010 0.30660 0.05073 0.06400
H 	H 	0.86327 0.30823 0.23643 0.02600
C 	C 	0.88552 0.36184 0.16693 -0.14700
C 	C 	0.89487 0.34995 0.03423 -0.14200
H 	H 	0.87787 0.28763 0.00983 0.02600
C 	C 	0.89827 0.37802 0.09503 0.11200
H 	H 	0.88627 0.38043 0.20733 0.09400
H 	H 	0.90257 0.36053 0.98223 0.08000
C 	C 	0.91754 0.42500 0.07613 -0.06900
C 	C 	0.95757 0.44569 0.03883 -0.04200
H 	H 	0.97127 0.42943 0.02673 0.04500
H 	H 	0.82047 0.38763 0.04453 0.04500
O 	O 	0.51175 0.56529 0.54519 -0.41000
O 	O 	0.52166 0.55554 0.41857 -0.40700
C 	C 	0.52186 0.57793 0.47697 0.36900
C 	C 	0.53540 0.62421 0.45907 -0.12700
C 	C 	0.53787 0.65193 0.51777 0.06900
C 	C 	0.54676 0.63994 0.38407 0.06400
H 	H 	0.52993 0.64157 0.56977 0.02600
C 	C 	0.55218 0.69518 0.50027 -0.14700
C 	C 	0.56153 0.68329 0.36757 -0.14200
H 	H 	0.54453 0.62097 0.34317 0.02600
C 	C 	0.56493 0.71136 0.42837 0.11200
H 	H 	0.55293 0.71377 0.54067 0.09400
H 	H 	0.56923 0.69387 0.31557 0.08000
C 	C 	0.58420 0.75834 0.40947 -0.06900
C 	C 	0.62423 0.77903 0.37217 -0.04200
H 	H 	0.63793 0.76277 0.36007 0.04500
H 	H 	0.48713 0.72097 0.37787 0.04500
O 	O 	0.72020 0.82158 0.87852 -0.41000
O 	O 	0.70054 0.81167 0.75190 -0.40700
C 	C 	0.72273 0.81147 0.81030 0.36900
C 	C 	0.75547 0.79793 0.79240 -0.12700
C 	C 	0.78072 0.79546 0.85110 0.06900
C 	C 	0.75984 0.78657 0.71740 0.06400
H 	H 	0.77830 0.80340 0.90310 0.02600
C 	C 	0.80966 0.78115 0.83360 -0.14700
C 	C 	0.78842 0.77180 0.70090 -0.14200
H 	H 	0.74310 0.78880 0.67650 0.02600
C 	C 	0.81309 0.76840 0.76170 0.11200
H 	H 	0.82750 0.78040 0.87400 0.09400
H 	H 	0.79130 0.76410 0.64890 0.08000
C 	C 	0.84080 0.74913 0.74280 -0.06900
C 	C 	0.82146 0.70910 0.70550 -0.04200
H 	H 	0.79150 0.69540 0.69340 0.04500
H 	H 	0.90050 0.84620 0.71120 0.04500
O 	O 	0.38687 0.15491 0.21185 -0.41000
O 	O 	0.36721 0.14500 0.08523 -0.40700
C 	C 	0.38940 0.14480 0.14363 0.36900
C 	C 	0.42214 0.13126 0.12573 -0.12700
C 	C 	0.44739 0.12879 0.18443 0.06900
C 	C 	0.42651 0.11990 0.05073 0.06400
H 	H 	0.44497 0.13673 0.23643 0.02600
C 	C 	0.47633 0.11448 0.16693 -0.14700
C 	C 	0.45509 0.10513 0.03423 -0.14200
H 	H 	0.40977 0.12213 0.00983 0.02600
C 	C 	0.47976 0.10173 0.09503 0.11200
H 	H 	0.49417 0.11373 0.20733 0.09400
H 	H 	0.45797 0.09743 0.98223 0.08000
C 	C 	0.50747 0.08246 0.07613 -0.06900
C 	C 	0.48813 0.04243 0.03883 -0.04200
H 	H 	0.45817 0.02873 0.02673 0.04500
H 	H 	0.56717 0.17953 0.04453 0.04500
O 	O 	0.05353 0.48825 0.54519 -0.41000
O 	O 	0.03387 0.47834 0.41857 -0.40700
C 	C 	0.05606 0.47814 0.47697 0.36900
C 	C 	0.08880 0.46460 0.45907 -0.12700
C 	C 	0.11405 0.46213 0.51777 0.06900
C 	C 	0.09317 0.45324 0.38407 0.06400
H 	H 	0.11163 0.47007 0.56977 0.02600
C 	C 	0.14299 0.44782 0.50027 -0.14700
C 	C 	0.12175 0.43847 0.36757 -0.14200
H 	H 	0.07643 0.45547 0.34317 0.02600
C 	C 	0.14642 0.43507 0.42837 0.11200
H 	H 	0.16083 0.44707 0.54067 0.09400
H 	H 	0.12463 0.43077 0.31557 0.08000
C 	C 	0.17413 0.41580 0.40947 -0.06900
C 	C 	0.15479 0.37577 0.37217 -0.04200
H 	H 	0.12483 0.36207 0.36007 0.04500
H 	H 	0.23383 0.51287 0.37787 0.04500
O 	O 	0.10138 0.27980 0.87852 -0.41000
O 	O 	0.11113 0.29946 0.75190 -0.40700
C 	C 	0.08874 0.27727 0.81030 0.36900
C 	C 	0.04246 0.24453 0.79240 -0.12700
C 	C 	0.01474 0.21928 0.85110 0.06900
C 	C 	0.02673 0.24016 0.71740 0.06400
H 	H 	0.02510 0.22170 0.90310 0.02600
C 	C 	0.97149 0.19034 0.83360 -0.14700
C 	C 	0.98338 0.21158 0.70090 -0.14200
H 	H 	0.04570 0.25690 0.67650 0.02600
C 	C 	0.95531 0.18691 0.76170 0.11200
H 	H 	0.95290 0.17250 0.87400 0.09400
H 	H 	0.97280 0.20870 0.64890 0.08000
C 	C 	0.90833 0.15920 0.74280 -0.06900
C 	C 	0.88764 0.17854 0.70550 -0.04200
H 	H 	0.90390 0.20850 0.69340 0.04500
H 	H 	0.94570 0.09950 0.71120 0.04500
O 	O 	0.76805 0.61313 0.21185 -0.41000
O 	O 	0.77780 0.63279 0.08523 -0.40700
C 	C 	0.75541 0.61060 0.14363 0.36900
C 	C 	0.70913 0.57786 0.12573 -0.12700
C 	C 	0.68141 0.55261 0.18443 0.06900
C 	C 	0.69340 0.57349 0.05073 0.06400
H 	H 	0.69177 0.55503 0.23643 0.02600
C 	C 	0.63816 0.52367 0.16693 -0.14700
C 	C 	0.65005 0.54491 0.03423 -0.14200
H 	H 	0.71237 0.59023 0.00983 0.02600
C 	C 	0.62198 0.52024 0.09503 0.11200
H 	H 	0.61957 0.50583 0.20733 0.09400
H 	H 	0.63947 0.54203 0.98223 0.08000
C 	C 	0.57500 0.49253 0.07613 -0.06900
C 	C 	0.55431 0.51187 0.03883 -0.04200
H 	H 	0.57057 0.54183 0.02673 0.04500
H 	H 	0.61237 0.43283 0.04453 0.04500
O 	O 	0.43471 0.94647 0.54519 -0.41000
O 	O 	0.44446 0.96613 0.41857 -0.40700
C 	C 	0.42207 0.94394 0.47697 0.36900
C 	C 	0.37579 0.91120 0.45907 -0.12700
C 	C 	0.34807 0.88595 0.51777 0.06900
C 	C 	0.36006 0.90683 0.38407 0.06400
H 	H 	0.35843 0.88837 0.56977 0.02600
C 	C 	0.30482 0.85701 0.50027 -0.14700
C 	C 	0.31671 0.87825 0.36757 -0.14200
H 	H 	0.37903 0.92357 0.34317 0.02600
C 	C 	0.28864 0.85358 0.42837 0.11200
H 	H 	0.28623 0.83917 0.54067 0.09400
H 	H 	0.30613 0.87537 0.31557 0.08000
C 	C 	0.24166 0.82587 0.40947 -0.06900
C 	C 	0.22097 0.84521 0.37217 -0.04200
H 	H 	0.23723 0.87517 0.36007 0.04500
H 	H 	0.27903 0.76617 0.37787 0.04400
O 	O 	0.10138 0.82158 0.87852 -0.41000
O 	O 	0.11113 0.81167 0.75190 -0.40700
C 	C 	0.08874 0.81147 0.81030 0.36900
C 	C 	0.04246 0.79793 0.79240 -0.12700
C 	C 	0.01474 0.79546 0.85110 0.06900
C 	C 	0.02673 0.78657 0.71740 0.06400
H 	H 	0.02510 0.80340 0.90310 0.02600
C 	C 	0.97149 0.78115 0.83360 -0.14700
C 	C 	0.98338 0.77180 0.70090 -0.14200
H 	H 	0.04570 0.78880 0.67650 0.02600
C 	C 	0.95531 0.76840 0.76170 0.11200
H 	H 	0.95290 0.78040 0.87400 0.09400
H 	H 	0.97280 0.76410 0.64890 0.08000
C 	C 	0.90833 0.74913 0.74280 -0.06900
C 	C 	0.88764 0.70910 0.70550 -0.04200
H 	H 	0.90390 0.69540 0.69340 0.04500
H 	H 	0.94570 0.84620 0.71120 0.04500
O 	O 	0.76805 0.15491 0.21185 -0.41000
O 	O 	0.77780 0.14500 0.08523 -0.40700
C 	C 	0.75541 0.14480 0.14363 0.36900
C 	C 	0.70913 0.13126 0.12573 -0.12700
C 	C 	0.68141 0.12879 0.18443 0.06900
C 	C 	0.69340 0.11990 0.05073 0.06400
H 	H 	0.69177 0.13673 0.23643 0.02600
C 	C 	0.63816 0.11448 0.16693 -0.14700
C 	C 	0.65005 0.10513 0.03423 -0.14200
H 	H 	0.71237 0.12213 0.00983 0.02600
C 	C 	0.62198 0.10173 0.09503 0.11200
H 	H 	0.61957 0.11373 0.20733 0.09400
H 	H 	0.63947 0.09743 0.98223 0.08000
C 	C 	0.57500 0.08246 0.07613 -0.06900
C 	C 	0.55431 0.04243 0.03883 -0.04200
H 	H 	0.57057 0.02873 0.02673 0.04500
H 	H 	0.61237 0.17953 0.04453 0.04500
O 	O 	0.43471 0.48825 0.54519 -0.41000
O 	O 	0.44446 0.47834 0.41857 -0.40700
C 	C 	0.42207 0.47814 0.47697 0.36900
C 	C 	0.37579 0.46460 0.45907 -0.12700
C 	C 	0.34807 0.46213 0.51777 0.06900
C 	C 	0.36006 0.45324 0.38407 0.06400
H 	H 	0.35843 0.47007 0.56977 0.02600
C 	C 	0.30482 0.44782 0.50027 -0.14700
C 	C 	0.31671 0.43847 0.36757 -0.14200
H 	H 	0.37903 0.45547 0.34317 0.02600
C 	C 	0.28864 0.43507 0.42837 0.11200
H 	H 	0.28623 0.44707 0.54067 0.09400
H 	H 	0.30613 0.43077 0.31557 0.08000
C 	C 	0.24166 0.41580 0.40947 -0.06900
C 	C 	0.22097 0.37577 0.37217 -0.04200
H 	H 	0.23723 0.36207 0.36007 0.04500
H 	H 	0.27903 0.51287 0.37787 0.04500
O 	O 	0.17842 0.27980 0.87852 -0.41000
O 	O 	0.18833 0.29946 0.75190 -0.40700
C 	C 	0.18853 0.27727 0.81030 0.36900
C 	C 	0.20207 0.24453 0.79240 -0.12700
C 	C 	0.20454 0.21928 0.85110 0.06900
C 	C 	0.21343 0.24016 0.71740 0.06400
H 	H 	0.19660 0.22170 0.90310 0.02600
C 	C 	0.21885 0.19034 0.83360 -0.14700
C 	C 	0.22820 0.21158 0.70090 -0.14200
H 	H 	0.21120 0.25690 0.67650 0.02600
C 	C 	0.23160 0.18691 0.76170 0.11200
H 	H 	0.21960 0.17250 0.87400 0.09400
H 	H 	0.23590 0.20870 0.64890 0.08000
C 	C 	0.25087 0.15920 0.74280 -0.06900
C 	C 	0.29090 0.17854 0.70550 -0.04200
H 	H 	0.30460 0.20850 0.69340 0.04500
H 	H 	0.15380 0.09950 0.71120 0.04500
O 	O 	0.84509 0.61313 0.21185 -0.41000
O 	O 	0.85500 0.63279 0.08523 -0.40700
C 	C 	0.85520 0.61060 0.14363 0.36900
C 	C 	0.86874 0.57786 0.12573 -0.12700
C 	C 	0.87121 0.55261 0.18443 0.06900
C 	C 	0.88010 0.57349 0.05073 0.06400
H 	H 	0.86327 0.55503 0.23643 0.02600
C 	C 	0.88552 0.52367 0.16693 -0.14700
C 	C 	0.89487 0.54491 0.03423 -0.14200
H 	H 	0.87787 0.59023 0.00983 0.02600
C 	C 	0.89827 0.52024 0.09503 0.11200
H 	H 	0.88627 0.50583 0.20733 0.09400
H 	H 	0.90257 0.54203 0.98223 0.08000
C 	C 	0.91754 0.49253 0.07613 -0.06900
C 	C 	0.95757 0.51187 0.03883 -0.04200
H 	H 	0.97127 0.54183 0.02673 0.04500
H 	H 	0.82047 0.43283 0.04453 0.04500
O 	O 	0.51175 0.94647 0.54519 -0.41000
O 	O 	0.52166 0.96613 0.41857 -0.40700
C 	C 	0.52186 0.94394 0.47697 0.36900
C 	C 	0.53540 0.91120 0.45907 -0.12700
C 	C 	0.53787 0.88595 0.51777 0.06900
C 	C 	0.54676 0.90683 0.38407 0.06400
H 	H 	0.52993 0.88837 0.56977 0.02600
C 	C 	0.55218 0.85701 0.50027 -0.14700
C 	C 	0.56153 0.87825 0.36757 -0.14200
H 	H 	0.54453 0.92357 0.34317 0.02600
C 	C 	0.56493 0.85358 0.42837 0.11200
H 	H 	0.55293 0.83917 0.54067 0.09400
H 	H 	0.56923 0.87537 0.31557 0.08000
C 	C 	0.58420 0.82587 0.40947 -0.06900
C 	C 	0.62423 0.84521 0.37217 -0.04200
H 	H 	0.63793 0.87517 0.36007 0.04500
H 	H 	0.48713 0.76617 0.37787 0.04500
O 	O 	0.72020 0.89862 0.87852 -0.41000
O 	O 	0.70054 0.88887 0.75190 -0.40700
C 	C 	0.72273 0.91126 0.81030 0.36900
C 	C 	0.75547 0.95754 0.79240 -0.12700
C 	C 	0.78072 0.98526 0.85110 0.06900
C 	C 	0.75984 0.97327 0.71740 0.06400
H 	H 	0.77830 0.97490 0.90310 0.02600
C 	C 	0.80966 0.02851 0.83360 -0.14700
C 	C 	0.78842 0.01662 0.70090 -0.14200
H 	H 	0.74310 0.95430 0.67650 0.02600
C 	C 	0.81309 0.04469 0.76170 0.11200
H 	H 	0.82750 0.04710 0.87400 0.09400
H 	H 	0.79130 0.02720 0.64890 0.08000
C 	C 	0.84080 0.09167 0.74280 -0.06900
C 	C 	0.82146 0.11236 0.70550 -0.04200
H 	H 	0.79150 0.09610 0.69340 0.04500
H 	H 	0.90050 0.05430 0.71120 0.04500
O 	O 	0.38687 0.23195 0.21185 -0.41000
O 	O 	0.36721 0.22220 0.08523 -0.40700
C 	C 	0.38940 0.24459 0.14363 0.36900
C 	C 	0.42214 0.29087 0.12573 -0.12700
C 	C 	0.44739 0.31859 0.18443 0.06900
C 	C 	0.42651 0.30660 0.05073 0.06400
H 	H 	0.44497 0.30823 0.23643 0.02600
C 	C 	0.47633 0.36184 0.16693 -0.14700
C 	C 	0.45509 0.34995 0.03423 -0.14200
H 	H 	0.40977 0.28763 0.00983 0.02600
C 	C 	0.47976 0.37802 0.09503 0.11200
H 	H 	0.49417 0.38043 0.20733 0.09400
H 	H 	0.45797 0.36053 0.98223 0.08000
C 	C 	0.50747 0.42500 0.07613 -0.06900
C 	C 	0.48813 0.44569 0.03883 -0.04200
H 	H 	0.45817 0.42943 0.02673 0.04500
H 	H 	0.56717 0.38763 0.04453 0.04500
O 	O 	0.05353 0.56529 0.54519 -0.41000
O 	O 	0.03387 0.55554 0.41857 -0.40700
C 	C 	0.05606 0.57793 0.47697 0.36900
C 	C 	0.08880 0.62421 0.45907 -0.12700
C 	C 	0.11405 0.65193 0.51777 0.06900
C 	C 	0.09317 0.63994 0.38407 0.06400
H 	H 	0.11163 0.64157 0.56977 0.02600
C 	C 	0.14299 0.69518 0.50027 -0.14700
C 	C 	0.12175 0.68329 0.36757 -0.14200
H 	H 	0.07643 0.62097 0.34317 0.02600
C 	C 	0.14642 0.71136 0.42837 0.11200
H 	H 	0.16083 0.71377 0.54067 0.09400
H 	H 	0.12463 0.69387 0.31557 0.08000
C 	C 	0.17413 0.75834 0.40947 -0.06900
C 	C 	0.15479 0.77903 0.37217 -0.04200
H 	H 	0.12483 0.76277 0.36007 0.04500
H 	H 	0.23383 0.72097 0.37787 0.04400
O 	O 	0.82158 0.10138 0.12148 -0.41000
O 	O 	0.81167 0.11113 0.24810 -0.40700
C 	C 	0.81147 0.08874 0.18970 0.36900
C 	C 	0.79793 0.04246 0.20760 -0.12700
C 	C 	0.79546 0.01474 0.14890 0.06900
C 	C 	0.78657 0.02673 0.28260 0.06400
H 	H 	0.80340 0.02510 0.09690 0.02600
C 	C 	0.78115 0.97149 0.16640 -0.14700
C 	C 	0.77180 0.98338 0.29910 -0.14200
H 	H 	0.78880 0.04570 0.32350 0.02600
C 	C 	0.76840 0.95531 0.23830 0.11200
H 	H 	0.78040 0.95290 0.12600 0.09400
H 	H 	0.76410 0.97280 0.35110 0.08000
C 	C 	0.74913 0.90833 0.25720 -0.06900
C 	C 	0.70910 0.88764 0.29450 -0.04200
H 	H 	0.69540 0.90390 0.30660 0.04500
H 	H 	0.84620 0.94570 0.28880 0.04500
O 	O 	0.48825 0.43471 0.45481 -0.41000
O 	O 	0.47834 0.44446 0.58143 -0.40700
C 	C 	0.47814 0.42207 0.52303 0.36900
C 	C 	0.46460 0.37579 0.54093 -0.12700
C 	C 	0.46213 0.34807 0.48223 0.06900
C 	C 	0.45324 0.36006 0.61593 0.06400
H 	H 	0.47007 0.35843 0.43023 0.02600
C 	C 	0.44782 0.30482 0.49973 -0.14700
C 	C 	0.43847 0.31671 0.63243 -0.14200
H 	H 	0.45547 0.37903 0.65683 0.02600
C 	C 	0.43507 0.28864 0.57163 0.11200
H 	H 	0.44707 0.28623 0.45933 0.09400
H 	H 	0.43077 0.30613 0.68443 0.08000
C 	C 	0.41580 0.24166 0.59053 -0.06900
C 	C 	0.37577 0.22097 0.62783 -0.04200
H 	H 	0.36207 0.23723 0.63993 0.04500
H 	H 	0.51287 0.27903 0.62213 0.04500
O 	O 	0.15491 0.76805 0.78815 -0.41000
O 	O 	0.14500 0.77780 0.91477 -0.40700
C 	C 	0.14480 0.75541 0.85637 0.36900
C 	C 	0.13126 0.70913 0.87427 -0.12700
C 	C 	0.12879 0.68141 0.81557 0.06900
C 	C 	0.11990 0.69340 0.94927 0.06400
H 	H 	0.13673 0.69177 0.76357 0.02600
C 	C 	0.11448 0.63816 0.83307 -0.14700
C 	C 	0.10513 0.65005 0.96577 -0.14200
H 	H 	0.12213 0.71237 0.99017 0.02600
C 	C 	0.10173 0.62198 0.90497 0.11200
H 	H 	0.11373 0.61957 0.79267 0.09400
H 	H 	0.09743 0.63947 0.01777 0.08000
C 	C 	0.08246 0.57500 0.92387 -0.06900
C 	C 	0.04243 0.55431 0.96117 -0.04200
H 	H 	0.02873 0.57057 0.97327 0.04500
H 	H 	0.17953 0.61237 0.95547 0.04500
O 	O 	0.27980 0.17842 0.12148 -0.41000
O 	O 	0.29946 0.18833 0.24810 -0.40700
C 	C 	0.27727 0.18853 0.18970 0.36900
C 	C 	0.24453 0.20207 0.20760 -0.12700
C 	C 	0.21928 0.20454 0.14890 0.06900
C 	C 	0.24016 0.21343 0.28260 0.06400
H 	H 	0.22170 0.19660 0.09690 0.02600
C 	C 	0.19034 0.21885 0.16640 -0.14700
C 	C 	0.21158 0.22820 0.29910 -0.14200
H 	H 	0.25690 0.21120 0.32350 0.02600
C 	C 	0.18691 0.23160 0.23830 0.11200
H 	H 	0.17250 0.21960 0.12600 0.09400
H 	H 	0.20870 0.23590 0.35110 0.08000
C 	C 	0.15920 0.25087 0.25720 -0.06900
C 	C 	0.17854 0.29090 0.29450 -0.04200
H 	H 	0.20850 0.30460 0.30660 0.04500
H 	H 	0.09950 0.15380 0.28880 0.04500
O 	O 	0.94647 0.51175 0.45481 -0.41000
O 	O 	0.96613 0.52166 0.58143 -0.40700
C 	C 	0.94394 0.52186 0.52303 0.36900
C 	C 	0.91120 0.53540 0.54093 -0.12700
C 	C 	0.88595 0.53787 0.48223 0.06900
C 	C 	0.90683 0.54676 0.61593 0.06400
H 	H 	0.88837 0.52993 0.43023 0.02600
C 	C 	0.85701 0.55218 0.49973 -0.14700
C 	C 	0.87825 0.56153 0.63243 -0.14200
H 	H 	0.92357 0.54453 0.65683 0.02600
C 	C 	0.85358 0.56493 0.57163 0.11200
H 	H 	0.83917 0.55293 0.45933 0.09400
H 	H 	0.87537 0.56923 0.68443 0.08000
C 	C 	0.82587 0.58420 0.59053 -0.06900
C 	C 	0.84521 0.62423 0.62783 -0.04200
H 	H 	0.87517 0.63793 0.63993 0.04500
H 	H 	0.76617 0.48713 0.62213 0.04500
O 	O 	0.61313 0.84509 0.78815 -0.41000
O 	O 	0.63279 0.85500 0.91477 -0.40700
C 	C 	0.61060 0.85520 0.85637 0.36900
C 	C 	0.57786 0.86874 0.87427 -0.12700
C 	C 	0.55261 0.87121 0.81557 0.06900
C 	C 	0.57349 0.88010 0.94927 0.06400
H 	H 	0.55503 0.86327 0.76357 0.02600
C 	C 	0.52367 0.88552 0.83307 -0.14700
C 	C 	0.54491 0.89487 0.96577 -0.14200
H 	H 	0.59023 0.87787 0.99017 0.02600
C 	C 	0.52024 0.89827 0.90497 0.11200
H 	H 	0.50583 0.88627 0.79267 0.09400
H 	H 	0.54203 0.90257 0.01777 0.08000
C 	C 	0.49253 0.91754 0.92387 -0.06900
C 	C 	0.51187 0.95757 0.96117 -0.04200
H 	H 	0.54183 0.97127 0.97327 0.04500
H 	H 	0.43283 0.82047 0.95547 0.04500
O 	O 	0.89862 0.72020 0.12148 -0.41000
O 	O 	0.88887 0.70054 0.24810 -0.40700
C 	C 	0.91126 0.72273 0.18970 0.36900
C 	C 	0.95754 0.75547 0.20760 -0.12700
C 	C 	0.98526 0.78072 0.14890 0.06900
C 	C 	0.97327 0.75984 0.28260 0.06400
H 	H 	0.97490 0.77830 0.09690 0.02600
C 	C 	0.02851 0.80966 0.16640 -0.14700
C 	C 	0.01662 0.78842 0.29910 -0.14200
H 	H 	0.95430 0.74310 0.32350 0.02600
C 	C 	0.04469 0.81309 0.23830 0.11200
H 	H 	0.04710 0.82750 0.12600 0.09400
H 	H 	0.02720 0.79130 0.35110 0.08000
C 	C 	0.09167 0.84080 0.25720 -0.06900
C 	C 	0.11236 0.82146 0.29450 -0.04200
H 	H 	0.09610 0.79150 0.30660 0.04500
H 	H 	0.05430 0.90050 0.28880 0.04500
O 	O 	0.56529 0.05353 0.45481 -0.41000
O 	O 	0.55554 0.03387 0.58143 -0.40700
C 	C 	0.57793 0.05606 0.52303 0.36900
C 	C 	0.62421 0.08880 0.54093 -0.12700
C 	C 	0.65193 0.11405 0.48223 0.06900
C 	C 	0.63994 0.09317 0.61593 0.06400
H 	H 	0.64157 0.11163 0.43023 0.02600
C 	C 	0.69518 0.14299 0.49973 -0.14700
C 	C 	0.68329 0.12175 0.63243 -0.14200
H 	H 	0.62097 0.07643 0.65683 0.02600
C 	C 	0.71136 0.14642 0.57163 0.11200
H 	H 	0.71377 0.16083 0.45933 0.09400
H 	H 	0.69387 0.12463 0.68443 0.08000
C 	C 	0.75834 0.17413 0.59053 -0.06900
C 	C 	0.77903 0.15479 0.62783 -0.04200
H 	H 	0.76277 0.12483 0.63993 0.04500
H 	H 	0.72097 0.23383 0.62213 0.04400
O 	O 	0.23195 0.38687 0.78815 -0.41000
O 	O 	0.22220 0.36721 0.91477 -0.40700
C 	C 	0.24459 0.38940 0.85637 0.36900
C 	C 	0.29087 0.42214 0.87427 -0.12700
C 	C 	0.31859 0.44739 0.81557 0.06900
C 	C 	0.30660 0.42651 0.94927 0.06400
H 	H 	0.30823 0.44497 0.76357 0.02600
C 	C 	0.36184 0.47633 0.83307 -0.14700
C 	C 	0.34995 0.45509 0.96577 -0.14200
H 	H 	0.28763 0.40977 0.99017 0.02600
C 	C 	0.37802 0.47976 0.90497 0.11200
H 	H 	0.38043 0.49417 0.79267 0.09400
H 	H 	0.36053 0.45797 0.01777 0.08000
C 	C 	0.42500 0.50747 0.92387 -0.06900
C 	C 	0.44569 0.48813 0.96117 -0.04200
H 	H 	0.42943 0.45817 0.97327 0.04500
H 	H 	0.38763 0.56717 0.95547 0.04500
Cu	Cu	0.83892 0.16108 0.09233 0.90300
Cu	Cu	0.50559 0.49441 0.42566 0.90300
Cu	Cu	0.17225 0.82775 0.75900 0.90300
Cu	Cu	0.83892 0.67784 0.09233 0.90300
Cu	Cu	0.50559 0.01117 0.42566 0.90300
Cu	Cu	0.17225 0.34451 0.75900 0.90300
Cu	Cu	0.32216 0.16108 0.09233 0.90300
Cu	Cu	0.98883 0.49441 0.42566 0.90300
Cu	Cu	0.65549 0.82775 0.75900 0.90300
Cu	Cu	0.16108 0.83892 0.90767 0.90300
Cu	Cu	0.82775 0.17225 0.24100 0.90300
Cu	Cu	0.49441 0.50559 0.57434 0.90300
Cu	Cu	0.67784 0.83892 0.90767 0.90300
Cu	Cu	0.34451 0.17225 0.24100 0.90300
Cu	Cu	0.01117 0.50559 0.57434 0.90300
Cu	Cu	0.16108 0.32216 0.90767 0.90300
Cu	Cu	0.82775 0.65549 0.24100 0.90300
Cu	Cu	0.49441 0.98883 0.57434 0.90300
C 	C 	0.11543 0.23086 0.23890 0.13400
C 	C 	0.15578 0.31156 0.31470 0.00600
O 	O 	0.09596 0.19193 0.20120 -0.20100
C 	C 	0.07695 0.15390 0.25530 -0.01100
C 	C 	0.78210 0.56419 0.57223 0.13400
C 	C 	0.82245 0.64489 0.64803 0.00600
O 	O 	0.76263 0.52526 0.53453 -0.20100
C 	C 	0.74362 0.48723 0.58863 -0.01100
C 	C 	0.44876 0.89753 0.90557 0.13400
C 	C 	0.48911 0.97823 0.98137 0.00600
O 	O 	0.42930 0.85860 0.86787 -0.20100
C 	C 	0.41028 0.82057 0.92197 -0.01100
C 	C 	0.76914 0.88457 0.23890 0.13400
C 	C 	0.68844 0.84422 0.31470 0.00600
O 	O 	0.80807 0.90404 0.20120 -0.20100
C 	C 	0.84610 0.92305 0.25530 -0.01100
C 	C 	0.43581 0.21790 0.57223 0.13400
C 	C 	0.35511 0.17755 0.64803 0.00600
O 	O 	0.47474 0.23737 0.53453 -0.20100
C 	C 	0.51277 0.25638 0.58863 -0.01100
C 	C 	0.10247 0.55124 0.90557 0.13400
C 	C 	0.02177 0.51089 0.98137 0.00600
O 	O 	0.14140 0.57070 0.86787 -0.20100
C 	C 	0.17943 0.58972 0.92197 -0.01100
C 	C 	0.11543 0.88457 0.23890 0.13400
C 	C 	0.15578 0.84422 0.31470 0.00600
O 	O 	0.09596 0.90404 0.20120 -0.20100
C 	C 	0.07695 0.92305 0.25530 -0.01100
C 	C 	0.78210 0.21790 0.57223 0.13400
C 	C 	0.82245 0.17755 0.64803 0.00600
O 	O 	0.76263 0.23737 0.53453 -0.20100
C 	C 	0.74362 0.25638 0.58863 -0.01100
C 	C 	0.44876 0.55124 0.90557 0.13400
C 	C 	0.48911 0.51089 0.98137 0.00600
O 	O 	0.42930 0.57070 0.86787 -0.20100
C 	C 	0.41028 0.58972 0.92197 -0.01100
C 	C 	0.23086 0.11543 0.76110 0.13400
C 	C 	0.31156 0.15578 0.68530 0.00600
O 	O 	0.19193 0.09596 0.79880 -0.20100
C 	C 	0.15390 0.07695 0.74470 -0.01100
C 	C 	0.89753 0.44876 0.09443 0.13400
C 	C 	0.97823 0.48911 0.01863 0.00600
O 	O 	0.85860 0.42930 0.13213 -0.20100
C 	C 	0.82057 0.41028 0.07803 -0.01100
C 	C 	0.56419 0.78210 0.42777 0.13400
C 	C 	0.64489 0.82245 0.35197 0.00600
O 	O 	0.52526 0.76263 0.46547 -0.20100
C 	C 	0.48723 0.74362 0.41137 -0.01100
C 	C 	0.88457 0.76914 0.76110 0.13400
C 	C 	0.84422 0.68844 0.68530 0.00600
O 	O 	0.90403 0.80807 0.79880 -0.20100
C 	C 	0.92305 0.84610 0.74470 -0.01100
C 	C 	0.55124 0.10247 0.09443 0.13400
C 	C 	0.51089 0.02177 0.01863 0.00600
O 	O 	0.57070 0.14140 0.13213 -0.20100
C 	C 	0.58972 0.17943 0.07803 -0.01100
C 	C 	0.21790 0.43581 0.42777 0.13400
C 	C 	0.17755 0.35511 0.35197 0.00600
O 	O 	0.23737 0.47474 0.46547 -0.20100
C 	C 	0.25638 0.51277 0.41137 -0.01100
C 	C 	0.88457 0.11543 0.76110 0.13400
C 	C 	0.84422 0.15578 0.68530 0.00600
O 	O 	0.90404 0.09596 0.79880 -0.20100
C 	C 	0.92305 0.07695 0.74470 -0.01100
C 	C 	0.55124 0.44876 0.09443 0.13400
C 	C 	0.51089 0.48911 0.01863 0.00600
O 	O 	0.57070 0.42930 0.13213 -0.20100
C 	C 	0.58972 0.41028 0.07803 -0.01100
C 	C 	0.21790 0.78210 0.42777 0.13400
C 	C 	0.17755 0.82245 0.35197 0.00600
O 	O 	0.23737 0.76263 0.46547 -0.20100
C 	C 	0.25638 0.74362 0.41137 -0.01100
