data_crystal

_cell_length_a 35.16770
_cell_length_b 35.16770
_cell_length_c 22.03460
_cell_angle_alpha 90.00000
_cell_angle_beta  90.00000
_cell_angle_gamma 120.00000

_symmetry_space_group_name_	'P 1'
_symmetry_space_group_name_H-M	'P 1'

loop_
_symmetry_equiv_pos_as_xyz
  x,y,z

loop_
_atom_site_label
_atom_site_type_symbol
_atom_site_fract_x
_atom_site_fract_y
_atom_site_fract_z
_atom_site_charge
O 	O 	0.52479 0.55368 0.43079 -0.41000
O 	O 	0.51133 0.56729 0.52554 -0.41700
C 	C 	0.52392 0.57825 0.47262 0.36900
C 	C 	0.53884 0.62493 0.45386 -0.13000
C 	C 	0.54007 0.65454 0.49644 0.06200
H 	H 	0.53100 0.64530 0.53700 0.02000
C 	C 	0.55450 0.69772 0.47981 -0.14600
H 	H 	0.55450 0.71760 0.50910 0.08900
C 	C 	0.56889 0.71240 0.42143 0.11200
C 	C 	0.56763 0.68247 0.37918 -0.14800
H 	H 	0.57690 0.69170 0.33870 0.08100
C 	C 	0.55288 0.63907 0.39581 0.06500
H 	H 	0.55250 0.61900 0.36660 0.02300
C 	C 	0.58801 0.75939 0.40428 -0.07900
C 	C 	0.62582 0.77922 0.36988 -0.03600
H 	H 	0.63870 0.76220 0.35790 0.04100
H 	H 	0.48960 0.72190 0.39370 -0.09900
H 	H 	0.45680 0.75110 0.48790 0.26200
O 	O 	0.19146 0.88701 0.76412 -0.41000
O 	O 	0.17800 0.90062 0.85887 -0.41700
C 	C 	0.19059 0.91158 0.80595 0.36900
C 	C 	0.20551 0.95826 0.78719 -0.13000
C 	C 	0.20674 0.98787 0.82977 0.06200
H 	H 	0.19767 0.97863 0.87033 0.02000
C 	C 	0.22117 0.03105 0.81314 -0.14600
H 	H 	0.22117 0.05093 0.84243 0.08900
C 	C 	0.23556 0.04573 0.75476 0.11300
C 	C 	0.23430 0.01580 0.71251 -0.14700
H 	H 	0.24357 0.02503 0.67203 0.08100
C 	C 	0.21955 0.97240 0.72914 0.06600
H 	H 	0.21917 0.95233 0.69993 0.02400
C 	C 	0.25468 0.09272 0.73761 -0.07800
C 	C 	0.29249 0.11255 0.70321 -0.03500
H 	H 	0.30537 0.09553 0.69123 0.04200
H 	H 	0.15627 0.05523 0.72703 -0.09800
H 	H 	0.12347 0.08443 0.82123 0.26300
O 	O 	0.85812 0.22035 0.09746 -0.40900
O 	O 	0.84466 0.23396 0.19221 -0.41600
C 	C 	0.85725 0.24492 0.13929 0.37000
C 	C 	0.87217 0.29160 0.12053 -0.12900
C 	C 	0.87340 0.32121 0.16311 0.06300
H 	H 	0.86433 0.31197 0.20367 0.02100
C 	C 	0.88783 0.36439 0.14648 -0.14600
H 	H 	0.88783 0.38427 0.17577 0.09000
C 	C 	0.90222 0.37907 0.08810 0.11300
C 	C 	0.90096 0.34914 0.04585 -0.14700
H 	H 	0.91023 0.35837 0.00537 0.08200
C 	C 	0.88621 0.30574 0.06248 0.06600
H 	H 	0.88583 0.28567 0.03327 0.02400
C 	C 	0.92134 0.42606 0.07095 -0.07800
C 	C 	0.95915 0.44589 0.03655 -0.03500
H 	H 	0.97203 0.42887 0.02457 0.04200
H 	H 	0.82293 0.38857 0.06037 -0.09800
H 	H 	0.79013 0.41777 0.15457 0.26300
O 	O 	0.44632 0.97111 0.43079 -0.40900
O 	O 	0.43271 0.94404 0.52554 -0.41600
C 	C 	0.42175 0.94567 0.47262 0.37000
C 	C 	0.37507 0.91391 0.45386 -0.12900
C 	C 	0.34546 0.88553 0.49644 0.06300
H 	H 	0.35470 0.88570 0.53700 0.02100
C 	C 	0.30228 0.85678 0.47981 -0.14500
H 	H 	0.28240 0.83690 0.50910 0.09000
C 	C 	0.28760 0.85649 0.42143 0.11300
C 	C 	0.31753 0.88516 0.37918 -0.14700
H 	H 	0.30830 0.88520 0.33870 0.08200
C 	C 	0.36093 0.91381 0.39581 0.06600
H 	H 	0.38100 0.93350 0.36660 0.02400
C 	C 	0.24061 0.82862 0.40428 -0.07800
C 	C 	0.22078 0.84660 0.36988 -0.03500
H 	H 	0.23780 0.87650 0.35790 0.04200
H 	H 	0.27810 0.76770 0.39370 -0.09700
H 	H 	0.24890 0.70570 0.48790 0.26300
O 	O 	0.11299 0.30444 0.76412 -0.40900
O 	O 	0.09938 0.27737 0.85887 -0.41600
C 	C 	0.08842 0.27900 0.80595 0.37000
C 	C 	0.04174 0.24724 0.78719 -0.12900
C 	C 	0.01213 0.21886 0.82977 0.06300
H 	H 	0.02137 0.21903 0.87033 0.02100
C 	C 	0.96895 0.19011 0.81314 -0.14500
H 	H 	0.94907 0.17023 0.84243 0.09000
C 	C 	0.95427 0.18982 0.75476 0.11300
C 	C 	0.98420 0.21849 0.71251 -0.14700
H 	H 	0.97497 0.21853 0.67203 0.08100
C 	C 	0.02760 0.24714 0.72914 0.06600
H 	H 	0.04767 0.26683 0.69993 0.02400
C 	C 	0.90728 0.16195 0.73761 -0.07800
C 	C 	0.88745 0.17993 0.70321 -0.03500
H 	H 	0.90447 0.20983 0.69123 0.04200
H 	H 	0.94477 0.10103 0.72703 -0.09700
H 	H 	0.91557 0.03903 0.82123 0.26300
O 	O 	0.77965 0.63778 0.09746 -0.40900
O 	O 	0.76604 0.61071 0.19221 -0.41600
C 	C 	0.75508 0.61234 0.13929 0.37000
C 	C 	0.70840 0.58058 0.12053 -0.12900
C 	C 	0.67879 0.55220 0.16311 0.06300
H 	H 	0.68803 0.55237 0.20367 0.02100
C 	C 	0.63561 0.52345 0.14648 -0.14600
H 	H 	0.61573 0.50357 0.17577 0.09000
C 	C 	0.62093 0.52316 0.08810 0.11300
C 	C 	0.65086 0.55183 0.04585 -0.14700
H 	H 	0.64163 0.55187 0.00537 0.08200
C 	C 	0.69426 0.58048 0.06248 0.06600
H 	H 	0.71433 0.60017 0.03327 0.02400
C 	C 	0.57394 0.49529 0.07095 -0.07800
C 	C 	0.55411 0.51327 0.03655 -0.03500
H 	H 	0.57113 0.54317 0.02457 0.04200
H 	H 	0.61143 0.43437 0.06037 -0.09800
H 	H 	0.58223 0.37237 0.15457 0.26300
O 	O 	0.02889 0.47521 0.43079 -0.40900
O 	O 	0.05596 0.48867 0.52554 -0.41600
C 	C 	0.05433 0.47608 0.47262 0.37000
C 	C 	0.08609 0.46116 0.45386 -0.12900
C 	C 	0.11447 0.45993 0.49644 0.06300
H 	H 	0.11430 0.46900 0.53700 0.02100
C 	C 	0.14322 0.44550 0.47981 -0.14500
H 	H 	0.16310 0.44550 0.50910 0.09000
C 	C 	0.14351 0.43111 0.42143 0.11300
C 	C 	0.11484 0.43237 0.37918 -0.14700
H 	H 	0.11480 0.42310 0.33870 0.08200
C 	C 	0.08619 0.44712 0.39581 0.06600
H 	H 	0.06650 0.44750 0.36660 0.02400
C 	C 	0.17138 0.41199 0.40428 -0.07800
C 	C 	0.15340 0.37418 0.36988 -0.03500
H 	H 	0.12350 0.36130 0.35790 0.04200
H 	H 	0.23230 0.51040 0.39370 -0.09800
H 	H 	0.29430 0.54320 0.48790 0.26300
O 	O 	0.69556 0.80854 0.76412 -0.40900
O 	O 	0.72263 0.82200 0.85887 -0.41600
C 	C 	0.72100 0.80941 0.80595 0.37000
C 	C 	0.75276 0.79449 0.78719 -0.12900
C 	C 	0.78114 0.79326 0.82977 0.06300
H 	H 	0.78097 0.80233 0.87033 0.02100
C 	C 	0.80989 0.77883 0.81314 -0.14500
H 	H 	0.82977 0.77883 0.84243 0.09000
C 	C 	0.81018 0.76444 0.75476 0.11300
C 	C 	0.78151 0.76570 0.71251 -0.14700
H 	H 	0.78147 0.75643 0.67203 0.08200
C 	C 	0.75286 0.78045 0.72914 0.06600
H 	H 	0.73317 0.78083 0.69993 0.02400
C 	C 	0.83805 0.74532 0.73761 -0.07800
C 	C 	0.82007 0.70751 0.70321 -0.03500
H 	H 	0.79017 0.69463 0.69123 0.04200
H 	H 	0.89897 0.84373 0.72703 -0.09800
H 	H 	0.96097 0.87653 0.82123 0.26300
O 	O 	0.36222 0.14188 0.09746 -0.40900
O 	O 	0.38929 0.15534 0.19221 -0.41600
C 	C 	0.38766 0.14275 0.13929 0.37000
C 	C 	0.41942 0.12783 0.12053 -0.12900
C 	C 	0.44780 0.12660 0.16311 0.06300
H 	H 	0.44763 0.13567 0.20367 0.02100
C 	C 	0.47655 0.11217 0.14648 -0.14500
H 	H 	0.49643 0.11217 0.17577 0.09000
C 	C 	0.47684 0.09778 0.08810 0.11300
C 	C 	0.44817 0.09904 0.04585 -0.14700
H 	H 	0.44813 0.08977 0.00537 0.08200
C 	C 	0.41952 0.11379 0.06248 0.06600
H 	H 	0.39983 0.11417 0.03327 0.02400
C 	C 	0.50471 0.07866 0.07095 -0.07800
C 	C 	0.48673 0.04085 0.03655 -0.03500
H 	H 	0.45683 0.02797 0.02457 0.04200
H 	H 	0.56563 0.17707 0.06037 -0.09800
H 	H 	0.62763 0.20987 0.15457 0.26300
O 	O 	0.55368 0.52479 0.56921 -0.40900
O 	O 	0.56729 0.51133 0.47446 -0.41600
C 	C 	0.57825 0.52392 0.52738 0.37000
C 	C 	0.62493 0.53884 0.54614 -0.12900
C 	C 	0.65454 0.54007 0.50356 0.06300
H 	H 	0.64530 0.53100 0.46300 0.02100
C 	C 	0.69772 0.55450 0.52019 -0.14500
H 	H 	0.71760 0.55450 0.49090 0.09000
C 	C 	0.71240 0.56889 0.57857 0.11300
C 	C 	0.68247 0.56763 0.62082 -0.14700
H 	H 	0.69170 0.57690 0.66130 0.08200
C 	C 	0.63907 0.55288 0.60419 0.06600
H 	H 	0.61900 0.55250 0.63340 0.02400
C 	C 	0.75939 0.58801 0.59572 -0.07800
C 	C 	0.77922 0.62582 0.63012 -0.03500
H 	H 	0.76220 0.63870 0.64210 0.04200
H 	H 	0.72190 0.48960 0.60630 -0.09800
H 	H 	0.75110 0.45680 0.51210 0.26300
O 	O 	0.22035 0.85812 0.90254 -0.40900
O 	O 	0.23396 0.84466 0.80779 -0.41600
C 	C 	0.24492 0.85725 0.86071 0.37000
C 	C 	0.29160 0.87217 0.87947 -0.12900
C 	C 	0.32121 0.87340 0.83689 0.06300
H 	H 	0.31197 0.86433 0.79633 0.02100
C 	C 	0.36439 0.88783 0.85352 -0.14600
H 	H 	0.38427 0.88783 0.82423 0.09000
C 	C 	0.37907 0.90222 0.91190 0.11300
C 	C 	0.34914 0.90096 0.95415 -0.14700
H 	H 	0.35837 0.91023 0.99463 0.08200
C 	C 	0.30574 0.88621 0.93752 0.06600
H 	H 	0.28567 0.88583 0.96673 0.02400
C 	C 	0.42606 0.92134 0.92905 -0.07800
C 	C 	0.44589 0.95915 0.96345 -0.03500
H 	H 	0.42887 0.97203 0.97543 0.04200
H 	H 	0.38857 0.82293 0.93963 -0.09800
H 	H 	0.41777 0.79013 0.84543 0.26300
O 	O 	0.88701 0.19146 0.23588 -0.40900
O 	O 	0.90062 0.17800 0.14113 -0.41600
C 	C 	0.91158 0.19059 0.19405 0.37000
C 	C 	0.95826 0.20551 0.21281 -0.12900
C 	C 	0.98787 0.20674 0.17023 0.06300
H 	H 	0.97863 0.19767 0.12967 0.02100
C 	C 	0.03105 0.22117 0.18686 -0.14500
H 	H 	0.05093 0.22117 0.15757 0.09000
C 	C 	0.04573 0.23556 0.24524 0.11300
C 	C 	0.01580 0.23430 0.28749 -0.14700
H 	H 	0.02503 0.24357 0.32797 0.08100
C 	C 	0.97240 0.21955 0.27086 0.06600
H 	H 	0.95233 0.21917 0.30007 0.02400
C 	C 	0.09272 0.25468 0.26239 -0.07800
C 	C 	0.11255 0.29249 0.29679 -0.03500
H 	H 	0.09553 0.30537 0.30877 0.04200
H 	H 	0.05523 0.15627 0.27297 -0.09800
H 	H 	0.08443 0.12347 0.17877 0.26300
O 	O 	0.97111 0.44632 0.56921 -0.40900
O 	O 	0.94404 0.43271 0.47446 -0.41600
C 	C 	0.94567 0.42175 0.52738 0.37000
C 	C 	0.91391 0.37507 0.54614 -0.12900
C 	C 	0.88553 0.34546 0.50356 0.06300
H 	H 	0.88570 0.35470 0.46300 0.02100
C 	C 	0.85678 0.30228 0.52019 -0.14500
H 	H 	0.83690 0.28240 0.49090 0.09000
C 	C 	0.85649 0.28760 0.57857 0.11300
C 	C 	0.88516 0.31753 0.62082 -0.14700
H 	H 	0.88520 0.30830 0.66130 0.08200
C 	C 	0.91381 0.36093 0.60419 0.06600
H 	H 	0.93350 0.38100 0.63340 0.02400
C 	C 	0.82862 0.24061 0.59572 -0.07800
C 	C 	0.84660 0.22078 0.63012 -0.03500
H 	H 	0.87650 0.23780 0.64210 0.04200
H 	H 	0.76770 0.27810 0.60630 -0.09700
H 	H 	0.70570 0.24890 0.51210 0.26300
O 	O 	0.63778 0.77965 0.90254 -0.40900
O 	O 	0.61071 0.76604 0.80779 -0.41600
C 	C 	0.61234 0.75508 0.86071 0.37000
C 	C 	0.58058 0.70840 0.87947 -0.12900
C 	C 	0.55220 0.67879 0.83689 0.06300
H 	H 	0.55237 0.68803 0.79633 0.02100
C 	C 	0.52345 0.63561 0.85352 -0.14600
H 	H 	0.50357 0.61573 0.82423 0.09000
C 	C 	0.52316 0.62093 0.91190 0.11300
C 	C 	0.55183 0.65086 0.95415 -0.14700
H 	H 	0.55187 0.64163 0.99463 0.08200
C 	C 	0.58048 0.69426 0.93752 0.06600
H 	H 	0.60017 0.71433 0.96673 0.02400
C 	C 	0.49529 0.57394 0.92905 -0.07800
C 	C 	0.51327 0.55411 0.96345 -0.03500
H 	H 	0.54317 0.57113 0.97543 0.04200
H 	H 	0.43437 0.61143 0.93963 -0.09800
H 	H 	0.37237 0.58223 0.84543 0.26300
O 	O 	0.30444 0.11299 0.23588 -0.40900
O 	O 	0.27737 0.09938 0.14113 -0.41600
C 	C 	0.27900 0.08842 0.19405 0.37000
C 	C 	0.24724 0.04174 0.21281 -0.12900
C 	C 	0.21886 0.01213 0.17023 0.06300
H 	H 	0.21903 0.02137 0.12967 0.02100
C 	C 	0.19011 0.96895 0.18686 -0.14500
H 	H 	0.17023 0.94907 0.15757 0.09000
C 	C 	0.18982 0.95427 0.24524 0.11300
C 	C 	0.21849 0.98420 0.28749 -0.14700
H 	H 	0.21853 0.97497 0.32797 0.08100
C 	C 	0.24714 0.02760 0.27086 0.06600
H 	H 	0.26683 0.04767 0.30007 0.02400
C 	C 	0.16195 0.90728 0.26239 -0.07800
C 	C 	0.17993 0.88745 0.29679 -0.03500
H 	H 	0.20983 0.90447 0.30877 0.04200
H 	H 	0.10103 0.94477 0.27297 -0.09700
H 	H 	0.03903 0.91557 0.17877 0.26300
O 	O 	0.47521 0.02889 0.56921 -0.40900
O 	O 	0.48867 0.05596 0.47446 -0.41600
C 	C 	0.47608 0.05433 0.52738 0.37000
C 	C 	0.46116 0.08609 0.54614 -0.12900
C 	C 	0.45993 0.11447 0.50356 0.06300
H 	H 	0.46900 0.11430 0.46300 0.02100
C 	C 	0.44550 0.14322 0.52019 -0.14500
H 	H 	0.44550 0.16310 0.49090 0.09000
C 	C 	0.43111 0.14351 0.57857 0.11300
C 	C 	0.43237 0.11484 0.62082 -0.14700
H 	H 	0.42310 0.11480 0.66130 0.08200
C 	C 	0.44712 0.08619 0.60419 0.06600
H 	H 	0.44750 0.06650 0.63340 0.02400
C 	C 	0.41199 0.17138 0.59572 -0.07800
C 	C 	0.37418 0.15340 0.63012 -0.03500
H 	H 	0.36130 0.12350 0.64210 0.04200
H 	H 	0.51040 0.23230 0.60630 -0.09800
H 	H 	0.54320 0.29430 0.51210 0.26300
O 	O 	0.14188 0.36222 0.90254 -0.40900
O 	O 	0.15534 0.38929 0.80779 -0.41600
C 	C 	0.14275 0.38766 0.86071 0.37000
C 	C 	0.12783 0.41942 0.87947 -0.12900
C 	C 	0.12660 0.44780 0.83689 0.06300
H 	H 	0.13567 0.44763 0.79633 0.02100
C 	C 	0.11217 0.47655 0.85352 -0.14500
H 	H 	0.11217 0.49643 0.82423 0.09000
C 	C 	0.09778 0.47684 0.91190 0.11300
C 	C 	0.09904 0.44817 0.95415 -0.14700
H 	H 	0.08977 0.44813 0.99463 0.08200
C 	C 	0.11379 0.41952 0.93752 0.06600
H 	H 	0.11417 0.39983 0.96673 0.02400
C 	C 	0.07866 0.50471 0.92905 -0.07800
C 	C 	0.04085 0.48673 0.96345 -0.03500
H 	H 	0.02797 0.45683 0.97543 0.04200
H 	H 	0.17707 0.56563 0.93963 -0.09800
H 	H 	0.20987 0.62763 0.84543 0.26300
O 	O 	0.80854 0.69556 0.23588 -0.40900
O 	O 	0.82200 0.72263 0.14113 -0.41600
C 	C 	0.80941 0.72100 0.19405 0.37000
C 	C 	0.79449 0.75276 0.21281 -0.12900
C 	C 	0.79326 0.78114 0.17023 0.06300
H 	H 	0.80233 0.78097 0.12967 0.02100
C 	C 	0.77883 0.80989 0.18686 -0.14500
H 	H 	0.77883 0.82977 0.15757 0.09000
C 	C 	0.76444 0.81018 0.24524 0.11300
C 	C 	0.76570 0.78151 0.28749 -0.14700
H 	H 	0.75643 0.78147 0.32797 0.08200
C 	C 	0.78045 0.75286 0.27086 0.06600
H 	H 	0.78083 0.73317 0.30007 0.02400
C 	C 	0.74532 0.83805 0.26239 -0.07800
C 	C 	0.70751 0.82007 0.29679 -0.03500
H 	H 	0.69463 0.79017 0.30877 0.04200
H 	H 	0.84373 0.89897 0.27297 -0.09800
H 	H 	0.87653 0.96097 0.17877 0.26300
O 	O 	0.47521 0.44632 0.56921 -0.40900
O 	O 	0.48867 0.43271 0.47446 -0.41600
C 	C 	0.47608 0.42175 0.52738 0.37000
C 	C 	0.46116 0.37507 0.54614 -0.12900
C 	C 	0.45993 0.34546 0.50356 0.06300
H 	H 	0.46900 0.35470 0.46300 0.02100
C 	C 	0.44550 0.30228 0.52019 -0.14500
H 	H 	0.44550 0.28240 0.49090 0.09000
C 	C 	0.43111 0.28760 0.57857 0.11300
C 	C 	0.43237 0.31753 0.62082 -0.14700
H 	H 	0.42310 0.30830 0.66130 0.08200
C 	C 	0.44712 0.36093 0.60419 0.06600
H 	H 	0.44750 0.38100 0.63340 0.02400
C 	C 	0.41199 0.24061 0.59572 -0.07800
C 	C 	0.37418 0.22078 0.63012 -0.03500
H 	H 	0.36130 0.23780 0.64210 0.04200
H 	H 	0.51040 0.27810 0.60630 -0.09800
H 	H 	0.54320 0.24890 0.51210 0.26300
O 	O 	0.14188 0.77965 0.90254 -0.40900
O 	O 	0.15534 0.76604 0.80779 -0.41600
C 	C 	0.14275 0.75508 0.86071 0.37000
C 	C 	0.12783 0.70840 0.87947 -0.12900
C 	C 	0.12660 0.67879 0.83689 0.06300
H 	H 	0.13567 0.68803 0.79633 0.02100
C 	C 	0.11217 0.63561 0.85352 -0.14600
H 	H 	0.11217 0.61573 0.82423 0.09000
C 	C 	0.09778 0.62093 0.91190 0.11300
C 	C 	0.09904 0.65086 0.95415 -0.14700
H 	H 	0.08977 0.64163 0.99463 0.08200
C 	C 	0.11379 0.69426 0.93752 0.06600
H 	H 	0.11417 0.71433 0.96673 0.02400
C 	C 	0.07866 0.57394 0.92905 -0.07800
C 	C 	0.04085 0.55411 0.96345 -0.03500
H 	H 	0.02797 0.57113 0.97543 0.04200
H 	H 	0.17707 0.61143 0.93963 -0.09800
H 	H 	0.20987 0.58223 0.84543 0.26300
O 	O 	0.80854 0.11299 0.23588 -0.40900
O 	O 	0.82200 0.09938 0.14113 -0.41600
C 	C 	0.80941 0.08842 0.19405 0.37000
C 	C 	0.79449 0.04174 0.21281 -0.12900
C 	C 	0.79326 0.01213 0.17023 0.06300
H 	H 	0.80233 0.02137 0.12967 0.02100
C 	C 	0.77883 0.96895 0.18686 -0.14500
H 	H 	0.77883 0.94907 0.15757 0.09000
C 	C 	0.76444 0.95427 0.24524 0.11300
C 	C 	0.76570 0.98420 0.28749 -0.14700
H 	H 	0.75643 0.97497 0.32797 0.08100
C 	C 	0.78045 0.02760 0.27086 0.06600
H 	H 	0.78083 0.04767 0.30007 0.02400
C 	C 	0.74532 0.90728 0.26239 -0.07800
C 	C 	0.70751 0.88745 0.29679 -0.03500
H 	H 	0.69463 0.90447 0.30877 0.04200
H 	H 	0.84373 0.94477 0.27297 -0.09800
H 	H 	0.87653 0.91557 0.17877 0.26300
O 	O 	0.55368 0.02889 0.56921 -0.40900
O 	O 	0.56729 0.05596 0.47446 -0.41600
C 	C 	0.57825 0.05433 0.52738 0.37000
C 	C 	0.62493 0.08609 0.54614 -0.12900
C 	C 	0.65454 0.11447 0.50356 0.06300
H 	H 	0.64530 0.11430 0.46300 0.02100
C 	C 	0.69772 0.14322 0.52019 -0.14500
H 	H 	0.71760 0.16310 0.49090 0.09000
C 	C 	0.71240 0.14351 0.57857 0.11300
C 	C 	0.68247 0.11484 0.62082 -0.14700
H 	H 	0.69170 0.11480 0.66130 0.08200
C 	C 	0.63907 0.08619 0.60419 0.06600
H 	H 	0.61900 0.06650 0.63340 0.02400
C 	C 	0.75939 0.17138 0.59572 -0.07800
C 	C 	0.77922 0.15340 0.63012 -0.03500
H 	H 	0.76220 0.12350 0.64210 0.04200
H 	H 	0.72190 0.23230 0.60630 -0.09700
H 	H 	0.75110 0.29430 0.51210 0.26300
O 	O 	0.22035 0.36222 0.90254 -0.40900
O 	O 	0.23396 0.38929 0.80779 -0.41600
C 	C 	0.24492 0.38766 0.86071 0.37000
C 	C 	0.29160 0.41942 0.87947 -0.12900
C 	C 	0.32121 0.44780 0.83689 0.06300
H 	H 	0.31197 0.44763 0.79633 0.02100
C 	C 	0.36439 0.47655 0.85352 -0.14600
H 	H 	0.38427 0.49643 0.82423 0.09000
C 	C 	0.37907 0.47684 0.91190 0.11300
C 	C 	0.34914 0.44817 0.95415 -0.14700
H 	H 	0.35837 0.44813 0.99463 0.08200
C 	C 	0.30574 0.41952 0.93752 0.06600
H 	H 	0.28567 0.39983 0.96673 0.02400
C 	C 	0.42606 0.50471 0.92905 -0.07800
C 	C 	0.44589 0.48673 0.96345 -0.03500
H 	H 	0.42887 0.45683 0.97543 0.04200
H 	H 	0.38857 0.56563 0.93963 -0.09800
H 	H 	0.41777 0.62763 0.84543 0.26300
O 	O 	0.88701 0.69556 0.23588 -0.40900
O 	O 	0.90062 0.72263 0.14113 -0.41600
C 	C 	0.91158 0.72100 0.19405 0.37000
C 	C 	0.95826 0.75276 0.21281 -0.12900
C 	C 	0.98787 0.78114 0.17023 0.06300
H 	H 	0.97863 0.78097 0.12967 0.02100
C 	C 	0.03105 0.80989 0.18686 -0.14500
H 	H 	0.05093 0.82977 0.15757 0.09000
C 	C 	0.04573 0.81018 0.24524 0.11300
C 	C 	0.01580 0.78151 0.28749 -0.14700
H 	H 	0.02503 0.78147 0.32797 0.08100
C 	C 	0.97240 0.75286 0.27086 0.06600
H 	H 	0.95233 0.73317 0.30007 0.02400
C 	C 	0.09272 0.83805 0.26239 -0.07800
C 	C 	0.11255 0.82007 0.29679 -0.03500
H 	H 	0.09553 0.79017 0.30877 0.04200
H 	H 	0.05523 0.89897 0.27297 -0.09700
H 	H 	0.08443 0.96097 0.17877 0.26300
O 	O 	0.97111 0.52479 0.56921 -0.40900
O 	O 	0.94404 0.51133 0.47446 -0.41600
C 	C 	0.94567 0.52392 0.52738 0.37000
C 	C 	0.91391 0.53884 0.54614 -0.12900
C 	C 	0.88553 0.54007 0.50356 0.06300
H 	H 	0.88570 0.53100 0.46300 0.02100
C 	C 	0.85678 0.55450 0.52019 -0.14500
H 	H 	0.83690 0.55450 0.49090 0.09000
C 	C 	0.85649 0.56889 0.57857 0.11300
C 	C 	0.88516 0.56763 0.62082 -0.14700
H 	H 	0.88520 0.57690 0.66130 0.08200
C 	C 	0.91381 0.55288 0.60419 0.06600
H 	H 	0.93350 0.55250 0.63340 0.02400
C 	C 	0.82862 0.58801 0.59572 -0.07800
C 	C 	0.84660 0.62582 0.63012 -0.03500
H 	H 	0.87650 0.63870 0.64210 0.04200
H 	H 	0.76770 0.48960 0.60630 -0.09800
H 	H 	0.70570 0.45680 0.51210 0.26300
O 	O 	0.63778 0.85812 0.90254 -0.40900
O 	O 	0.61071 0.84466 0.80779 -0.41600
C 	C 	0.61234 0.85725 0.86071 0.37000
C 	C 	0.58058 0.87217 0.87947 -0.12900
C 	C 	0.55220 0.87340 0.83689 0.06300
H 	H 	0.55237 0.86433 0.79633 0.02100
C 	C 	0.52345 0.88783 0.85352 -0.14500
H 	H 	0.50357 0.88783 0.82423 0.09000
C 	C 	0.52316 0.90222 0.91190 0.11300
C 	C 	0.55183 0.90096 0.95415 -0.14700
H 	H 	0.55187 0.91023 0.99463 0.08200
C 	C 	0.58048 0.88621 0.93752 0.06600
H 	H 	0.60017 0.88583 0.96673 0.02400
C 	C 	0.49529 0.92134 0.92905 -0.07800
C 	C 	0.51327 0.95915 0.96345 -0.03500
H 	H 	0.54317 0.97203 0.97543 0.04200
H 	H 	0.43437 0.82293 0.93963 -0.09800
H 	H 	0.37237 0.79013 0.84543 0.26300
O 	O 	0.30444 0.19146 0.23588 -0.40900
O 	O 	0.27737 0.17800 0.14113 -0.41600
C 	C 	0.27900 0.19059 0.19405 0.37000
C 	C 	0.24724 0.20551 0.21281 -0.12900
C 	C 	0.21886 0.20674 0.17023 0.06300
H 	H 	0.21903 0.19767 0.12967 0.02100
C 	C 	0.19011 0.22117 0.18686 -0.14500
H 	H 	0.17023 0.22117 0.15757 0.09000
C 	C 	0.18982 0.23556 0.24524 0.11300
C 	C 	0.21849 0.23430 0.28749 -0.14700
H 	H 	0.21853 0.24357 0.32797 0.08200
C 	C 	0.24714 0.21955 0.27086 0.06600
H 	H 	0.26683 0.21917 0.30007 0.02400
C 	C 	0.16195 0.25468 0.26239 -0.07800
C 	C 	0.17993 0.29249 0.29679 -0.03500
H 	H 	0.20983 0.30537 0.30877 0.04200
H 	H 	0.10103 0.15627 0.27297 -0.09800
H 	H 	0.03903 0.12347 0.17877 0.26300
O 	O 	0.44632 0.47521 0.43079 -0.40900
O 	O 	0.43271 0.48867 0.52554 -0.41600
C 	C 	0.42175 0.47608 0.47262 0.37000
C 	C 	0.37507 0.46116 0.45386 -0.12900
C 	C 	0.34546 0.45993 0.49644 0.06300
H 	H 	0.35470 0.46900 0.53700 0.02100
C 	C 	0.30228 0.44550 0.47981 -0.14500
H 	H 	0.28240 0.44550 0.50910 0.09000
C 	C 	0.28760 0.43111 0.42143 0.11300
C 	C 	0.31753 0.43237 0.37918 -0.14700
H 	H 	0.30830 0.42310 0.33870 0.08200
C 	C 	0.36093 0.44712 0.39581 0.06600
H 	H 	0.38100 0.44750 0.36660 0.02400
C 	C 	0.24061 0.41199 0.40428 -0.07800
C 	C 	0.22078 0.37418 0.36988 -0.03500
H 	H 	0.23780 0.36130 0.35790 0.04200
H 	H 	0.27810 0.51040 0.39370 -0.09800
H 	H 	0.24890 0.54320 0.48790 0.26300
O 	O 	0.11299 0.80854 0.76412 -0.40900
O 	O 	0.09938 0.82200 0.85887 -0.41600
C 	C 	0.08842 0.80941 0.80595 0.37000
C 	C 	0.04174 0.79449 0.78719 -0.12900
C 	C 	0.01213 0.79326 0.82977 0.06300
H 	H 	0.02137 0.80233 0.87033 0.02100
C 	C 	0.96895 0.77883 0.81314 -0.14500
H 	H 	0.94907 0.77883 0.84243 0.09000
C 	C 	0.95427 0.76444 0.75476 0.11300
C 	C 	0.98420 0.76570 0.71251 -0.14700
H 	H 	0.97497 0.75643 0.67203 0.08100
C 	C 	0.02760 0.78045 0.72914 0.06600
H 	H 	0.04767 0.78083 0.69993 0.02400
C 	C 	0.90728 0.74532 0.73761 -0.07800
C 	C 	0.88745 0.70751 0.70321 -0.03500
H 	H 	0.90447 0.69463 0.69123 0.04200
H 	H 	0.94477 0.84373 0.72703 -0.09800
H 	H 	0.91557 0.87653 0.82123 0.26300
O 	O 	0.77965 0.14188 0.09746 -0.40900
O 	O 	0.76604 0.15534 0.19221 -0.41600
C 	C 	0.75508 0.14275 0.13929 0.37000
C 	C 	0.70840 0.12783 0.12053 -0.12900
C 	C 	0.67879 0.12660 0.16311 0.06300
H 	H 	0.68803 0.13567 0.20367 0.02100
C 	C 	0.63561 0.11217 0.14648 -0.14600
H 	H 	0.61573 0.11217 0.17577 0.09000
C 	C 	0.62093 0.09778 0.08810 0.11300
C 	C 	0.65086 0.09904 0.04585 -0.14700
H 	H 	0.64163 0.08977 0.00537 0.08200
C 	C 	0.69426 0.11379 0.06248 0.06600
H 	H 	0.71433 0.11417 0.03327 0.02400
C 	C 	0.57394 0.07866 0.07095 -0.07800
C 	C 	0.55411 0.04085 0.03655 -0.03500
H 	H 	0.57113 0.02797 0.02457 0.04200
H 	H 	0.61143 0.17707 0.06037 -0.09800
H 	H 	0.58223 0.20987 0.15457 0.26300
O 	O 	0.02889 0.55368 0.43079 -0.40900
O 	O 	0.05596 0.56729 0.52554 -0.41600
C 	C 	0.05433 0.57825 0.47262 0.37000
C 	C 	0.08609 0.62493 0.45386 -0.12900
C 	C 	0.11447 0.65454 0.49644 0.06300
H 	H 	0.11430 0.64530 0.53700 0.02100
C 	C 	0.14322 0.69772 0.47981 -0.14500
H 	H 	0.16310 0.71760 0.50910 0.09000
C 	C 	0.14351 0.71240 0.42143 0.11300
C 	C 	0.11484 0.68247 0.37918 -0.14700
H 	H 	0.11480 0.69170 0.33870 0.08200
C 	C 	0.08619 0.63907 0.39581 0.06600
H 	H 	0.06650 0.61900 0.36660 0.02400
C 	C 	0.17138 0.75939 0.40428 -0.07800
C 	C 	0.15340 0.77922 0.36988 -0.03500
H 	H 	0.12350 0.76220 0.35790 0.04200
H 	H 	0.23230 0.72190 0.39370 -0.09700
H 	H 	0.29430 0.75110 0.48790 0.26300
O 	O 	0.69556 0.88701 0.76412 -0.40900
O 	O 	0.72263 0.90062 0.85887 -0.41600
C 	C 	0.72100 0.91158 0.80595 0.37000
C 	C 	0.75276 0.95826 0.78719 -0.12900
C 	C 	0.78114 0.98787 0.82977 0.06300
H 	H 	0.78097 0.97863 0.87033 0.02100
C 	C 	0.80989 0.03105 0.81314 -0.14500
H 	H 	0.82977 0.05093 0.84243 0.09000
C 	C 	0.81018 0.04573 0.75476 0.11300
C 	C 	0.78151 0.01580 0.71251 -0.14700
H 	H 	0.78147 0.02503 0.67203 0.08100
C 	C 	0.75286 0.97240 0.72914 0.06600
H 	H 	0.73317 0.95233 0.69993 0.02400
C 	C 	0.83805 0.09272 0.73761 -0.07800
C 	C 	0.82007 0.11255 0.70321 -0.03500
H 	H 	0.79017 0.09553 0.69123 0.04200
H 	H 	0.89897 0.05523 0.72703 -0.09700
H 	H 	0.96097 0.08443 0.82123 0.26300
O 	O 	0.36222 0.22035 0.09746 -0.40900
O 	O 	0.38929 0.23396 0.19221 -0.41600
C 	C 	0.38766 0.24492 0.13929 0.37000
C 	C 	0.41942 0.29160 0.12053 -0.12900
C 	C 	0.44780 0.32121 0.16311 0.06300
H 	H 	0.44763 0.31197 0.20367 0.02100
C 	C 	0.47655 0.36439 0.14648 -0.14600
H 	H 	0.49643 0.38427 0.17577 0.09000
C 	C 	0.47684 0.37907 0.08810 0.11300
C 	C 	0.44817 0.34914 0.04585 -0.14700
H 	H 	0.44813 0.35837 0.00537 0.08200
C 	C 	0.41952 0.30574 0.06248 0.06600
H 	H 	0.39983 0.28567 0.03327 0.02400
C 	C 	0.50471 0.42606 0.07095 -0.07800
C 	C 	0.48673 0.44589 0.03655 -0.03500
H 	H 	0.45683 0.42887 0.02457 0.04200
H 	H 	0.56563 0.38857 0.06037 -0.09800
H 	H 	0.62763 0.41777 0.15457 0.26300
O 	O 	0.52479 0.97111 0.43079 -0.40900
O 	O 	0.51133 0.94404 0.52554 -0.41600
C 	C 	0.52392 0.94567 0.47262 0.37000
C 	C 	0.53884 0.91391 0.45386 -0.12900
C 	C 	0.54007 0.88553 0.49644 0.06300
H 	H 	0.53100 0.88570 0.53700 0.02100
C 	C 	0.55450 0.85678 0.47981 -0.14500
H 	H 	0.55450 0.83690 0.50910 0.09000
C 	C 	0.56889 0.85649 0.42143 0.11300
C 	C 	0.56763 0.88516 0.37918 -0.14700
H 	H 	0.57690 0.88520 0.33870 0.08200
C 	C 	0.55288 0.91381 0.39581 0.06600
H 	H 	0.55250 0.93350 0.36660 0.02400
C 	C 	0.58801 0.82862 0.40428 -0.07800
C 	C 	0.62582 0.84660 0.36988 -0.03500
H 	H 	0.63870 0.87650 0.35790 0.04200
H 	H 	0.48960 0.76770 0.39370 -0.09800
H 	H 	0.45680 0.70570 0.48790 0.26300
O 	O 	0.19146 0.30444 0.76412 -0.40900
O 	O 	0.17800 0.27737 0.85887 -0.41600
C 	C 	0.19059 0.27900 0.80595 0.37000
C 	C 	0.20551 0.24724 0.78719 -0.12900
C 	C 	0.20674 0.21886 0.82977 0.06300
H 	H 	0.19767 0.21903 0.87033 0.02100
C 	C 	0.22117 0.19011 0.81314 -0.14500
H 	H 	0.22117 0.17023 0.84243 0.09000
C 	C 	0.23556 0.18982 0.75476 0.11300
C 	C 	0.23430 0.21849 0.71251 -0.14700
H 	H 	0.24357 0.21853 0.67203 0.08200
C 	C 	0.21955 0.24714 0.72914 0.06600
H 	H 	0.21917 0.26683 0.69993 0.02400
C 	C 	0.25468 0.16195 0.73761 -0.07800
C 	C 	0.29249 0.17993 0.70321 -0.03500
H 	H 	0.30537 0.20983 0.69123 0.04200
H 	H 	0.15627 0.10103 0.72703 -0.09800
H 	H 	0.12347 0.03903 0.82123 0.26300
O 	O 	0.85812 0.63778 0.09746 -0.40900
O 	O 	0.84466 0.61071 0.19221 -0.41600
C 	C 	0.85725 0.61234 0.13929 0.37000
C 	C 	0.87217 0.58058 0.12053 -0.12900
C 	C 	0.87340 0.55220 0.16311 0.06300
H 	H 	0.86433 0.55237 0.20367 0.02100
C 	C 	0.88783 0.52345 0.14648 -0.14500
H 	H 	0.88783 0.50357 0.17577 0.09000
C 	C 	0.90222 0.52316 0.08810 0.11300
C 	C 	0.90096 0.55183 0.04585 -0.14700
H 	H 	0.91023 0.55187 0.00537 0.08200
C 	C 	0.88621 0.58048 0.06248 0.06600
H 	H 	0.88583 0.60017 0.03327 0.02400
C 	C 	0.92134 0.49529 0.07095 -0.07800
C 	C 	0.95915 0.51327 0.03655 -0.03500
H 	H 	0.97203 0.54317 0.02457 0.04200
H 	H 	0.82293 0.43437 0.06037 -0.09800
H 	H 	0.79013 0.37237 0.15457 0.26300
Cu	Cu	0.50787 0.49213 0.44451 0.90300
Cu	Cu	0.17454 0.82546 0.77784 0.90300
Cu	Cu	0.84120 0.15880 0.11118 0.90300
Cu	Cu	0.50787 0.01574 0.44451 0.90300
Cu	Cu	0.17454 0.34907 0.77784 0.90300
Cu	Cu	0.84120 0.68241 0.11118 0.90300
Cu	Cu	0.98426 0.49213 0.44451 0.90300
Cu	Cu	0.65093 0.82546 0.77784 0.90300
Cu	Cu	0.31759 0.15880 0.11118 0.90300
Cu	Cu	0.49213 0.50787 0.55549 0.90300
Cu	Cu	0.15880 0.84120 0.88882 0.90300
Cu	Cu	0.82546 0.17454 0.22216 0.90300
Cu	Cu	0.01574 0.50787 0.55549 0.90300
Cu	Cu	0.68241 0.84120 0.88882 0.90300
Cu	Cu	0.34907 0.17454 0.22216 0.90300
Cu	Cu	0.49213 0.98426 0.55549 0.90300
Cu	Cu	0.15880 0.31759 0.88882 0.90300
Cu	Cu	0.82546 0.65093 0.22216 0.90300
O 	O 	0.53000 0.76500 0.45522 -0.30500
C 	C 	0.64604 0.82302 0.35188 0.00200
C 	C 	0.56845 0.78423 0.42080 0.15700
C 	C 	0.49081 0.74541 0.41990 0.44900
C 	C 	0.45500 0.72750 0.46230 -0.80800
H 	H 	0.42710 0.71355 0.44020 0.25000
O 	O 	0.19667 0.09833 0.78855 -0.30500
C 	C 	0.31271 0.15635 0.68521 0.00200
C 	C 	0.23512 0.11756 0.75413 0.15700
C 	C 	0.15748 0.07874 0.75323 0.44900
C 	C 	0.12167 0.06083 0.79563 -0.80800
H 	H 	0.09377 0.04688 0.77353 0.25000
O 	O 	0.86333 0.43167 0.12189 -0.30500
C 	C 	0.97937 0.48969 0.01855 0.00200
C 	C 	0.90178 0.45089 0.08747 0.15700
C 	C 	0.82414 0.41207 0.08657 0.44900
C 	C 	0.78833 0.39417 0.12897 -0.80800
H 	H 	0.76043 0.38022 0.10687 0.25000
O 	O 	0.23500 0.76500 0.45522 -0.30500
C 	C 	0.17698 0.82302 0.35188 0.00200
C 	C 	0.21577 0.78423 0.42080 0.15700
C 	C 	0.25459 0.74541 0.41990 0.44800
C 	C 	0.27250 0.72750 0.46230 -0.80800
H 	H 	0.28645 0.71355 0.44020 0.25000
O 	O 	0.90167 0.09833 0.78855 -0.30500
C 	C 	0.84365 0.15635 0.68521 0.00200
C 	C 	0.88244 0.11756 0.75413 0.15700
C 	C 	0.92126 0.07874 0.75323 0.44900
C 	C 	0.93917 0.06083 0.79563 -0.80800
H 	H 	0.95312 0.04688 0.77353 0.25000
O 	O 	0.56833 0.43167 0.12189 -0.30500
C 	C 	0.51031 0.48969 0.01855 0.00200
C 	C 	0.54911 0.45089 0.08747 0.15800
C 	C 	0.58793 0.41207 0.08657 0.44900
C 	C 	0.60583 0.39417 0.12897 -0.80900
H 	H 	0.61978 0.38022 0.10687 0.25000
O 	O 	0.23500 0.47000 0.45522 -0.30500
C 	C 	0.17698 0.35396 0.35188 0.00200
C 	C 	0.21577 0.43155 0.42080 0.15700
C 	C 	0.25459 0.50919 0.41990 0.44900
C 	C 	0.27250 0.54500 0.46230 -0.80800
H 	H 	0.28645 0.57290 0.44020 0.25000
O 	O 	0.90167 0.80333 0.78855 -0.30500
C 	C 	0.84365 0.68729 0.68521 0.00200
C 	C 	0.88244 0.76488 0.75413 0.15700
C 	C 	0.92126 0.84252 0.75323 0.44900
C 	C 	0.93917 0.87833 0.79563 -0.80800
H 	H 	0.95312 0.90623 0.77353 0.25000
O 	O 	0.56833 0.13667 0.12189 -0.30500
C 	C 	0.51031 0.02063 0.01855 0.00200
C 	C 	0.54911 0.09822 0.08747 0.15700
C 	C 	0.58793 0.17586 0.08657 0.44900
C 	C 	0.60583 0.21167 0.12897 -0.80800
H 	H 	0.61978 0.23957 0.10687 0.25000
O 	O 	0.76500 0.53000 0.54478 -0.30500
C 	C 	0.82302 0.64604 0.64812 0.00200
C 	C 	0.78423 0.56845 0.57920 0.15700
C 	C 	0.74541 0.49081 0.58010 0.44900
C 	C 	0.72750 0.45500 0.53770 -0.80800
H 	H 	0.71355 0.42710 0.55980 0.25000
O 	O 	0.43167 0.86333 0.87811 -0.30500
C 	C 	0.48969 0.97937 0.98145 0.00200
C 	C 	0.45089 0.90178 0.91253 0.15700
C 	C 	0.41207 0.82414 0.91343 0.44900
C 	C 	0.39417 0.78833 0.87103 -0.80800
H 	H 	0.38022 0.76043 0.89313 0.25000
O 	O 	0.09833 0.19667 0.21145 -0.30500
C 	C 	0.15635 0.31271 0.31479 0.00200
C 	C 	0.11756 0.23512 0.24587 0.15700
C 	C 	0.07874 0.15748 0.24677 0.44900
C 	C 	0.06083 0.12167 0.20437 -0.80800
H 	H 	0.04688 0.09377 0.22647 0.25000
O 	O 	0.76500 0.23500 0.54478 -0.30500
C 	C 	0.82302 0.17698 0.64812 0.00200
C 	C 	0.78423 0.21577 0.57920 0.15700
C 	C 	0.74541 0.25459 0.58010 0.44800
C 	C 	0.72750 0.27250 0.53770 -0.80800
H 	H 	0.71355 0.28645 0.55980 0.25000
O 	O 	0.43167 0.56833 0.87811 -0.30500
C 	C 	0.48969 0.51031 0.98145 0.00200
C 	C 	0.45089 0.54911 0.91253 0.15800
C 	C 	0.41207 0.58793 0.91343 0.44900
C 	C 	0.39417 0.60583 0.87103 -0.80900
H 	H 	0.38022 0.61978 0.89313 0.25000
O 	O 	0.09833 0.90167 0.21145 -0.30500
C 	C 	0.15635 0.84365 0.31479 0.00200
C 	C 	0.11756 0.88244 0.24587 0.15700
C 	C 	0.07874 0.92126 0.24677 0.44900
C 	C 	0.06083 0.93917 0.20437 -0.80800
H 	H 	0.04688 0.95312 0.22647 0.25000
O 	O 	0.47000 0.23500 0.54478 -0.30500
C 	C 	0.35396 0.17698 0.64812 0.00200
C 	C 	0.43155 0.21577 0.57920 0.15700
C 	C 	0.50919 0.25459 0.58010 0.44900
C 	C 	0.54500 0.27250 0.53770 -0.80800
H 	H 	0.57290 0.28645 0.55980 0.25000
O 	O 	0.13667 0.56833 0.87811 -0.30500
C 	C 	0.02063 0.51031 0.98145 0.00200
C 	C 	0.09822 0.54911 0.91253 0.15700
C 	C 	0.17586 0.58793 0.91343 0.44900
C 	C 	0.21167 0.60583 0.87103 -0.80800
H 	H 	0.23957 0.61978 0.89313 0.25000
O 	O 	0.80333 0.90167 0.21145 -0.30500
C 	C 	0.68729 0.84365 0.31479 0.00200
C 	C 	0.76488 0.88244 0.24587 0.15700
C 	C 	0.84252 0.92126 0.24677 0.44900
C 	C 	0.87833 0.93917 0.20437 -0.80800
H 	H 	0.90623 0.95312 0.22647 0.25000
