data_crystal

_cell_length_a 35.78550
_cell_length_b 35.78550
_cell_length_c 15.05800
_cell_angle_alpha 90.00000
_cell_angle_beta  90.00000
_cell_angle_gamma 120.00000

_symmetry_space_group_name_	'P 1'
_symmetry_space_group_name_H-M	'P 1'

loop_
_symmetry_equiv_pos_as_xyz
  x,y,z

loop_
_atom_site_label
_atom_site_type_symbol
_atom_site_fract_x
_atom_site_fract_y
_atom_site_fract_z
_atom_site_charge
O 	O 	0.55760 0.03835 0.08230 -0.40200
O 	O 	0.56413 0.05067 0.93190 -0.40800
C 	C 	0.57810 0.05669 0.00890 0.35100
C 	C 	0.62501 0.08910 0.02360 -0.14400
C 	C 	0.65110 0.11000 0.95670 0.10000
H 	H 	0.64010 0.10540 0.89920 0.00800
C 	C 	0.69520 0.13910 0.97090 -0.19700
H 	H 	0.71250 0.15420 0.92290 0.11200
C 	C 	0.71259 0.14554 0.05090 0.15000
C 	C 	0.68550 0.12710 0.12240 -0.17700
H 	H 	0.69660 0.13380 0.17970 0.09300
C 	C 	0.64090 0.09790 0.10980 0.08000
H 	H 	0.62260 0.08500 0.15800 0.01800
C 	C 	0.76010 0.17251 0.06940 -0.09200
C 	C 	0.77976 0.15412 0.11870 -0.03700
H 	H 	0.76340 0.12540 0.13570 0.04300
H 	H 	0.77120 0.27260 0.09480 -0.07900
H 	H 	0.70250 0.25370 0.97490 0.25900
O 	O 	0.22427 0.37168 0.41563 -0.40200
O 	O 	0.23080 0.38400 0.26523 -0.40700
C 	C 	0.24477 0.39002 0.34223 0.35100
C 	C 	0.29168 0.42243 0.35693 -0.14400
C 	C 	0.31777 0.44333 0.29003 0.10100
H 	H 	0.30677 0.43873 0.23253 0.00800
C 	C 	0.36187 0.47243 0.30423 -0.19600
H 	H 	0.37917 0.48753 0.25623 0.11200
C 	C 	0.37926 0.47887 0.38423 0.14900
C 	C 	0.35217 0.46043 0.45573 -0.17600
H 	H 	0.36327 0.46713 0.51303 0.09300
C 	C 	0.30757 0.43123 0.44313 0.08000
H 	H 	0.28927 0.41833 0.49133 0.01800
C 	C 	0.42677 0.50584 0.40273 -0.09100
C 	C 	0.44643 0.48745 0.45203 -0.03800
H 	H 	0.43007 0.45873 0.46903 0.04300
H 	H 	0.43787 0.60593 0.42813 -0.08000
H 	H 	0.36917 0.58703 0.30823 0.26100
O 	O 	0.89093 0.70502 0.74897 -0.40100
O 	O 	0.89746 0.71734 0.59857 -0.40600
C 	C 	0.91143 0.72336 0.67557 0.35200
C 	C 	0.95834 0.75577 0.69027 -0.14300
C 	C 	0.98443 0.77667 0.62337 0.10100
H 	H 	0.97343 0.77207 0.56587 0.00900
C 	C 	0.02853 0.80577 0.63757 -0.19400
H 	H 	0.04583 0.82087 0.58957 0.11300
C 	C 	0.04592 0.81221 0.71757 0.14900
C 	C 	0.01883 0.79377 0.78907 -0.17400
H 	H 	0.02993 0.80047 0.84637 0.09300
C 	C 	0.97423 0.76457 0.77647 0.08000
H 	H 	0.95593 0.75167 0.82467 0.01900
C 	C 	0.09343 0.83918 0.73607 -0.09000
C 	C 	0.11309 0.82079 0.78537 -0.03700
H 	H 	0.09673 0.79207 0.80237 0.04500
H 	H 	0.10453 0.93927 0.76147 -0.07900
H 	H 	0.03583 0.92037 0.64157 0.26200
O 	O 	0.96165 0.51925 0.08230 -0.40100
O 	O 	0.94933 0.51346 0.93190 -0.40700
C 	C 	0.94331 0.52141 0.00890 0.35200
C 	C 	0.91090 0.53591 0.02360 -0.14300
C 	C 	0.89000 0.54110 0.95670 0.10100
H 	H 	0.89460 0.53470 0.89920 0.00900
C 	C 	0.86090 0.55610 0.97090 -0.19600
H 	H 	0.84580 0.55830 0.92290 0.11300
C 	C 	0.85446 0.56705 0.05090 0.15000
C 	C 	0.87290 0.55840 0.12240 -0.17600
H 	H 	0.86620 0.56280 0.17970 0.09400
C 	C 	0.90210 0.54300 0.10980 0.08100
H 	H 	0.91500 0.53760 0.15800 0.01900
C 	C 	0.82749 0.58759 0.06940 -0.09000
C 	C 	0.84588 0.62564 0.11870 -0.03600
H 	H 	0.87460 0.63800 0.13570 0.04400
H 	H 	0.72740 0.49860 0.09480 -0.07900
H 	H 	0.74630 0.44880 0.97490 0.26000
O 	O 	0.62832 0.85258 0.41563 -0.40100
O 	O 	0.61600 0.84679 0.26523 -0.40600
C 	C 	0.60998 0.85474 0.34223 0.35200
C 	C 	0.57757 0.86924 0.35693 -0.14300
C 	C 	0.55667 0.87443 0.29003 0.10200
H 	H 	0.56127 0.86803 0.23253 0.00900
C 	C 	0.52757 0.88943 0.30423 -0.19500
H 	H 	0.51247 0.89163 0.25623 0.11300
C 	C 	0.52113 0.90038 0.38423 0.15000
C 	C 	0.53957 0.89173 0.45573 -0.17500
H 	H 	0.53287 0.89613 0.51303 0.09400
C 	C 	0.56877 0.87633 0.44313 0.08100
H 	H 	0.58167 0.87093 0.49133 0.01900
C 	C 	0.49416 0.92092 0.40273 -0.09000
C 	C 	0.51255 0.95897 0.45203 -0.03700
H 	H 	0.54127 0.97133 0.46903 0.04400
H 	H 	0.39407 0.83193 0.42813 -0.07900
H 	H 	0.41297 0.78213 0.30823 0.26200
O 	O 	0.29498 0.18592 0.74897 -0.40100
O 	O 	0.28266 0.18013 0.59857 -0.40600
C 	C 	0.27664 0.18808 0.67557 0.35200
C 	C 	0.24423 0.20258 0.69027 -0.14300
C 	C 	0.22333 0.20777 0.62337 0.10200
H 	H 	0.22793 0.20137 0.56587 0.00900
C 	C 	0.19423 0.22277 0.63757 -0.19500
H 	H 	0.17913 0.22497 0.58957 0.11300
C 	C 	0.18779 0.23372 0.71757 0.15000
C 	C 	0.20623 0.22507 0.78907 -0.17500
H 	H 	0.19953 0.22947 0.84637 0.09400
C 	C 	0.23543 0.20967 0.77647 0.08100
H 	H 	0.24833 0.20427 0.82467 0.01900
C 	C 	0.16082 0.25426 0.73607 -0.09000
C 	C 	0.17921 0.29231 0.78537 -0.03700
H 	H 	0.20793 0.30467 0.80237 0.04400
H 	H 	0.06073 0.16527 0.76147 -0.07900
H 	H 	0.07963 0.11547 0.64157 0.26200
O 	O 	0.48075 0.44240 0.08230 -0.40100
O 	O 	0.48654 0.43587 0.93190 -0.40600
C 	C 	0.47859 0.42190 0.00890 0.35200
C 	C 	0.46409 0.37499 0.02360 -0.14300
C 	C 	0.45890 0.34890 0.95670 0.10200
H 	H 	0.46530 0.35990 0.89920 0.00900
C 	C 	0.44390 0.30480 0.97090 -0.19600
H 	H 	0.44170 0.28750 0.92290 0.11300
C 	C 	0.43295 0.28741 0.05090 0.15000
C 	C 	0.44160 0.31450 0.12240 -0.17600
H 	H 	0.43720 0.30340 0.17970 0.09400
C 	C 	0.45700 0.35910 0.10980 0.08100
H 	H 	0.46240 0.37740 0.15800 0.01900
C 	C 	0.41241 0.23990 0.06940 -0.09000
C 	C 	0.37436 0.22024 0.11870 -0.03600
H 	H 	0.36200 0.23660 0.13570 0.04400
H 	H 	0.50140 0.22880 0.09480 -0.07900
H 	H 	0.55120 0.29750 0.97490 0.26000
O 	O 	0.14742 0.77573 0.41563 -0.40100
O 	O 	0.15321 0.76920 0.26523 -0.40600
C 	C 	0.14526 0.75523 0.34223 0.35200
C 	C 	0.13076 0.70832 0.35693 -0.14300
C 	C 	0.12557 0.68223 0.29003 0.10200
H 	H 	0.13197 0.69323 0.23253 0.00900
C 	C 	0.11057 0.63813 0.30423 -0.19500
H 	H 	0.10837 0.62083 0.25623 0.11300
C 	C 	0.09962 0.62074 0.38423 0.15000
C 	C 	0.10827 0.64783 0.45573 -0.17500
H 	H 	0.10387 0.63673 0.51303 0.09400
C 	C 	0.12367 0.69243 0.44313 0.08100
H 	H 	0.12907 0.71073 0.49133 0.01900
C 	C 	0.07908 0.57323 0.40273 -0.09000
C 	C 	0.04103 0.55357 0.45203 -0.03700
H 	H 	0.02867 0.56993 0.46903 0.04400
H 	H 	0.16807 0.56213 0.42813 -0.07900
H 	H 	0.21787 0.63083 0.30823 0.26200
O 	O 	0.81408 0.10907 0.74897 -0.40100
O 	O 	0.81987 0.10254 0.59857 -0.40600
C 	C 	0.81192 0.08857 0.67557 0.35200
C 	C 	0.79742 0.04166 0.69027 -0.14300
C 	C 	0.79223 0.01557 0.62337 0.10100
H 	H 	0.79863 0.02657 0.56587 0.00900
C 	C 	0.77723 0.97147 0.63757 -0.19500
H 	H 	0.77503 0.95417 0.58957 0.11300
C 	C 	0.76628 0.95408 0.71757 0.14900
C 	C 	0.77493 0.98117 0.78907 -0.17500
H 	H 	0.77053 0.97007 0.84637 0.09400
C 	C 	0.79033 0.02577 0.77647 0.08000
H 	H 	0.79573 0.04407 0.82467 0.01900
C 	C 	0.74574 0.90657 0.73607 -0.09000
C 	C 	0.70769 0.88691 0.78537 -0.03700
H 	H 	0.69533 0.90327 0.80237 0.04400
H 	H 	0.83473 0.89547 0.76147 -0.07900
H 	H 	0.88453 0.96417 0.64157 0.26200
O 	O 	0.03835 0.55760 0.91770 -0.40100
O 	O 	0.05067 0.56413 0.06810 -0.40700
C 	C 	0.05669 0.57810 0.99110 0.35200
C 	C 	0.08910 0.62501 0.97640 -0.14300
C 	C 	0.11000 0.65110 0.04330 0.10100
H 	H 	0.10540 0.64010 0.10080 0.00900
C 	C 	0.13910 0.69520 0.02910 -0.19600
H 	H 	0.15420 0.71250 0.07710 0.11300
C 	C 	0.14554 0.71259 0.94910 0.15100
C 	C 	0.12710 0.68550 0.87760 -0.17600
H 	H 	0.13380 0.69660 0.82030 0.09400
C 	C 	0.09790 0.64090 0.89020 0.08100
H 	H 	0.08500 0.62260 0.84200 0.01900
C 	C 	0.17251 0.76010 0.93060 -0.09100
C 	C 	0.15412 0.77976 0.88130 -0.03600
H 	H 	0.12540 0.76340 0.86430 0.04400
H 	H 	0.27260 0.77120 0.90520 -0.07800
H 	H 	0.25370 0.70250 0.02510 0.26000
O 	O 	0.70502 0.89093 0.25103 -0.40100
O 	O 	0.71734 0.89746 0.40143 -0.40600
C 	C 	0.72336 0.91143 0.32443 0.35200
C 	C 	0.75577 0.95834 0.30973 -0.14300
C 	C 	0.77667 0.98443 0.37663 0.10100
H 	H 	0.77207 0.97343 0.43413 0.00900
C 	C 	0.80577 0.02853 0.36243 -0.19400
H 	H 	0.82087 0.04583 0.41043 0.11300
C 	C 	0.81221 0.04592 0.28243 0.14900
C 	C 	0.79377 0.01883 0.21093 -0.17400
H 	H 	0.80047 0.02993 0.15363 0.09300
C 	C 	0.76457 0.97423 0.22353 0.08000
H 	H 	0.75167 0.95593 0.17533 0.01900
C 	C 	0.83918 0.09343 0.26393 -0.09000
C 	C 	0.82079 0.11309 0.21463 -0.03700
H 	H 	0.79207 0.09673 0.19763 0.04500
H 	H 	0.93927 0.10453 0.23853 -0.07900
H 	H 	0.92037 0.03583 0.35843 0.26200
O 	O 	0.37168 0.22427 0.58437 -0.40100
O 	O 	0.38400 0.23080 0.73477 -0.40600
C 	C 	0.39002 0.24477 0.65777 0.35200
C 	C 	0.42243 0.29168 0.64307 -0.14300
C 	C 	0.44333 0.31777 0.70997 0.10200
H 	H 	0.43873 0.30677 0.76747 0.00900
C 	C 	0.47243 0.36187 0.69577 -0.19500
H 	H 	0.48753 0.37917 0.74377 0.11300
C 	C 	0.47887 0.37926 0.61577 0.15000
C 	C 	0.46043 0.35217 0.54427 -0.17500
H 	H 	0.46713 0.36327 0.48697 0.09400
C 	C 	0.43123 0.30757 0.55687 0.08100
H 	H 	0.41833 0.28927 0.50867 0.01900
C 	C 	0.50584 0.42677 0.59727 -0.09000
C 	C 	0.48745 0.44643 0.54797 -0.03700
H 	H 	0.45873 0.43007 0.53097 0.04400
H 	H 	0.60593 0.43787 0.57187 -0.07900
H 	H 	0.58703 0.36917 0.69177 0.26200
O 	O 	0.51925 0.96165 0.91770 -0.40100
O 	O 	0.51346 0.94933 0.06810 -0.40700
C 	C 	0.52141 0.94331 0.99110 0.35200
C 	C 	0.53591 0.91090 0.97640 -0.14300
C 	C 	0.54110 0.89000 0.04330 0.10100
H 	H 	0.53470 0.89460 0.10080 0.00900
C 	C 	0.55610 0.86090 0.02910 -0.19600
H 	H 	0.55830 0.84580 0.07710 0.11300
C 	C 	0.56705 0.85446 0.94910 0.15000
C 	C 	0.55840 0.87290 0.87760 -0.17600
H 	H 	0.56280 0.86620 0.82030 0.09400
C 	C 	0.54300 0.90210 0.89020 0.08100
H 	H 	0.53760 0.91500 0.84200 0.01900
C 	C 	0.58759 0.82749 0.93060 -0.09000
C 	C 	0.62564 0.84588 0.88130 -0.03600
H 	H 	0.63800 0.87460 0.86430 0.04400
H 	H 	0.49860 0.72740 0.90520 -0.07900
H 	H 	0.44880 0.74630 0.02510 0.26000
O 	O 	0.18592 0.29498 0.25103 -0.40100
O 	O 	0.18013 0.28266 0.40143 -0.40600
C 	C 	0.18808 0.27664 0.32443 0.35200
C 	C 	0.20258 0.24423 0.30973 -0.14300
C 	C 	0.20777 0.22333 0.37663 0.10200
H 	H 	0.20137 0.22793 0.43413 0.00900
C 	C 	0.22277 0.19423 0.36243 -0.19500
H 	H 	0.22497 0.17913 0.41043 0.11300
C 	C 	0.23372 0.18779 0.28243 0.15000
C 	C 	0.22507 0.20623 0.21093 -0.17500
H 	H 	0.22947 0.19953 0.15363 0.09400
C 	C 	0.20967 0.23543 0.22353 0.08100
H 	H 	0.20427 0.24833 0.17533 0.01900
C 	C 	0.25426 0.16082 0.26393 -0.09000
C 	C 	0.29231 0.17921 0.21463 -0.03700
H 	H 	0.30467 0.20793 0.19763 0.04400
H 	H 	0.16527 0.06073 0.23853 -0.07900
H 	H 	0.11547 0.07963 0.35843 0.26200
O 	O 	0.85258 0.62832 0.58437 -0.40100
O 	O 	0.84679 0.61600 0.73477 -0.40600
C 	C 	0.85474 0.60998 0.65777 0.35200
C 	C 	0.86924 0.57757 0.64307 -0.14300
C 	C 	0.87443 0.55667 0.70997 0.10200
H 	H 	0.86803 0.56127 0.76747 0.00900
C 	C 	0.88943 0.52757 0.69577 -0.19500
H 	H 	0.89163 0.51247 0.74377 0.11300
C 	C 	0.90038 0.52113 0.61577 0.15000
C 	C 	0.89173 0.53957 0.54427 -0.17500
H 	H 	0.89613 0.53287 0.48697 0.09400
C 	C 	0.87633 0.56877 0.55687 0.08100
H 	H 	0.87093 0.58167 0.50867 0.01900
C 	C 	0.92092 0.49416 0.59727 -0.09000
C 	C 	0.95897 0.51255 0.54797 -0.03700
H 	H 	0.97133 0.54127 0.53097 0.04400
H 	H 	0.83193 0.39407 0.57187 -0.07900
H 	H 	0.78213 0.41297 0.69177 0.26200
O 	O 	0.44240 0.48075 0.91770 -0.40100
O 	O 	0.43587 0.48654 0.06810 -0.40600
C 	C 	0.42190 0.47859 0.99110 0.35200
C 	C 	0.37499 0.46409 0.97640 -0.14300
C 	C 	0.34890 0.45890 0.04330 0.10200
H 	H 	0.35990 0.46530 0.10080 0.00900
C 	C 	0.30480 0.44390 0.02910 -0.19600
H 	H 	0.28750 0.44170 0.07710 0.11300
C 	C 	0.28741 0.43295 0.94910 0.15000
C 	C 	0.31450 0.44160 0.87760 -0.17600
H 	H 	0.30340 0.43720 0.82030 0.09400
C 	C 	0.35910 0.45700 0.89020 0.08100
H 	H 	0.37740 0.46240 0.84200 0.01900
C 	C 	0.23990 0.41241 0.93060 -0.09000
C 	C 	0.22024 0.37436 0.88130 -0.03600
H 	H 	0.23660 0.36200 0.86430 0.04400
H 	H 	0.22880 0.50140 0.90520 -0.07900
H 	H 	0.29750 0.55120 0.02510 0.26000
O 	O 	0.10907 0.81408 0.25103 -0.40100
O 	O 	0.10254 0.81987 0.40143 -0.40600
C 	C 	0.08857 0.81192 0.32443 0.35200
C 	C 	0.04166 0.79742 0.30973 -0.14300
C 	C 	0.01557 0.79223 0.37663 0.10100
H 	H 	0.02657 0.79863 0.43413 0.00900
C 	C 	0.97147 0.77723 0.36243 -0.19500
H 	H 	0.95417 0.77503 0.41043 0.11300
C 	C 	0.95408 0.76628 0.28243 0.14900
C 	C 	0.98117 0.77493 0.21093 -0.17500
H 	H 	0.97007 0.77053 0.15363 0.09400
C 	C 	0.02577 0.79033 0.22353 0.08000
H 	H 	0.04407 0.79573 0.17533 0.01900
C 	C 	0.90657 0.74574 0.26393 -0.09000
C 	C 	0.88691 0.70769 0.21463 -0.03700
H 	H 	0.90327 0.69533 0.19763 0.04400
H 	H 	0.89547 0.83473 0.23853 -0.07900
H 	H 	0.96417 0.88453 0.35843 0.26200
O 	O 	0.77573 0.14742 0.58437 -0.40100
O 	O 	0.76920 0.15321 0.73477 -0.40600
C 	C 	0.75523 0.14526 0.65777 0.35200
C 	C 	0.70832 0.13076 0.64307 -0.14300
C 	C 	0.68223 0.12557 0.70997 0.10200
H 	H 	0.69323 0.13197 0.76747 0.00900
C 	C 	0.63813 0.11057 0.69577 -0.19500
H 	H 	0.62083 0.10837 0.74377 0.11300
C 	C 	0.62074 0.09962 0.61577 0.15000
C 	C 	0.64783 0.10827 0.54427 -0.17500
H 	H 	0.63673 0.10387 0.48697 0.09400
C 	C 	0.69243 0.12367 0.55687 0.08100
H 	H 	0.71073 0.12907 0.50867 0.01900
C 	C 	0.57323 0.07908 0.59727 -0.09000
C 	C 	0.55357 0.04103 0.54797 -0.03700
H 	H 	0.56993 0.02867 0.53097 0.04400
H 	H 	0.56213 0.16807 0.57187 -0.07900
H 	H 	0.63083 0.21787 0.69177 0.26200
O 	O 	0.44240 0.96165 0.91770 -0.40100
O 	O 	0.43587 0.94933 0.06810 -0.40700
C 	C 	0.42190 0.94331 0.99110 0.35200
C 	C 	0.37499 0.91090 0.97640 -0.14300
C 	C 	0.34890 0.89000 0.04330 0.10100
H 	H 	0.35990 0.89460 0.10080 0.00900
C 	C 	0.30480 0.86090 0.02910 -0.19600
H 	H 	0.28750 0.84580 0.07710 0.11300
C 	C 	0.28741 0.85446 0.94910 0.15100
C 	C 	0.31450 0.87290 0.87760 -0.17600
H 	H 	0.30340 0.86620 0.82030 0.09400
C 	C 	0.35910 0.90210 0.89020 0.08100
H 	H 	0.37740 0.91500 0.84200 0.01900
C 	C 	0.23990 0.82749 0.93060 -0.09100
C 	C 	0.22024 0.84588 0.88130 -0.03600
H 	H 	0.23660 0.87460 0.86430 0.04400
H 	H 	0.22880 0.72740 0.90520 -0.07800
H 	H 	0.29750 0.74630 0.02510 0.26000
O 	O 	0.10907 0.29498 0.25103 -0.40100
O 	O 	0.10254 0.28266 0.40143 -0.40600
C 	C 	0.08857 0.27664 0.32443 0.35200
C 	C 	0.04166 0.24423 0.30973 -0.14300
C 	C 	0.01557 0.22333 0.37663 0.10100
H 	H 	0.02657 0.22793 0.43413 0.00900
C 	C 	0.97147 0.19423 0.36243 -0.19400
H 	H 	0.95417 0.17913 0.41043 0.11300
C 	C 	0.95408 0.18779 0.28243 0.14900
C 	C 	0.98117 0.20623 0.21093 -0.17400
H 	H 	0.97007 0.19953 0.15363 0.09300
C 	C 	0.02577 0.23543 0.22353 0.08000
H 	H 	0.04407 0.24833 0.17533 0.01900
C 	C 	0.90657 0.16082 0.26393 -0.09000
C 	C 	0.88691 0.17921 0.21463 -0.03700
H 	H 	0.90327 0.20793 0.19763 0.04500
H 	H 	0.89547 0.06073 0.23853 -0.07900
H 	H 	0.96417 0.07963 0.35843 0.26200
O 	O 	0.77573 0.62832 0.58437 -0.40100
O 	O 	0.76920 0.61600 0.73477 -0.40600
C 	C 	0.75523 0.60998 0.65777 0.35200
C 	C 	0.70832 0.57757 0.64307 -0.14300
C 	C 	0.68223 0.55667 0.70997 0.10200
H 	H 	0.69323 0.56127 0.76747 0.00900
C 	C 	0.63813 0.52757 0.69577 -0.19500
H 	H 	0.62083 0.51247 0.74377 0.11300
C 	C 	0.62074 0.52113 0.61577 0.15000
C 	C 	0.64783 0.53957 0.54427 -0.17500
H 	H 	0.63673 0.53287 0.48697 0.09400
C 	C 	0.69243 0.56877 0.55687 0.08100
H 	H 	0.71073 0.58167 0.50867 0.01900
C 	C 	0.57323 0.49416 0.59727 -0.09000
C 	C 	0.55357 0.51255 0.54797 -0.03700
H 	H 	0.56993 0.54127 0.53097 0.04400
H 	H 	0.56213 0.39407 0.57187 -0.07900
H 	H 	0.63083 0.41297 0.69177 0.26200
O 	O 	0.03835 0.48075 0.91770 -0.40100
O 	O 	0.05067 0.48654 0.06810 -0.40700
C 	C 	0.05669 0.47859 0.99110 0.35200
C 	C 	0.08910 0.46409 0.97640 -0.14300
C 	C 	0.11000 0.45890 0.04330 0.10100
H 	H 	0.10540 0.46530 0.10080 0.00900
C 	C 	0.13910 0.44390 0.02910 -0.19600
H 	H 	0.15420 0.44170 0.07710 0.11300
C 	C 	0.14554 0.43295 0.94910 0.15000
C 	C 	0.12710 0.44160 0.87760 -0.17600
H 	H 	0.13380 0.43720 0.82030 0.09400
C 	C 	0.09790 0.45700 0.89020 0.08100
H 	H 	0.08500 0.46240 0.84200 0.01900
C 	C 	0.17251 0.41241 0.93060 -0.09000
C 	C 	0.15412 0.37436 0.88130 -0.03600
H 	H 	0.12540 0.36200 0.86430 0.04400
H 	H 	0.27260 0.50140 0.90520 -0.07900
H 	H 	0.25370 0.55120 0.02510 0.26000
O 	O 	0.70502 0.81408 0.25103 -0.40100
O 	O 	0.71734 0.81987 0.40143 -0.40600
C 	C 	0.72336 0.81192 0.32443 0.35200
C 	C 	0.75577 0.79742 0.30973 -0.14300
C 	C 	0.77667 0.79223 0.37663 0.10200
H 	H 	0.77207 0.79863 0.43413 0.00900
C 	C 	0.80577 0.77723 0.36243 -0.19500
H 	H 	0.82087 0.77503 0.41043 0.11300
C 	C 	0.81221 0.76628 0.28243 0.15000
C 	C 	0.79377 0.77493 0.21093 -0.17500
H 	H 	0.80047 0.77053 0.15363 0.09400
C 	C 	0.76457 0.79033 0.22353 0.08100
H 	H 	0.75167 0.79573 0.17533 0.01900
C 	C 	0.83918 0.74574 0.26393 -0.09000
C 	C 	0.82079 0.70769 0.21463 -0.03700
H 	H 	0.79207 0.69533 0.19763 0.04400
H 	H 	0.93927 0.83473 0.23853 -0.07900
H 	H 	0.92037 0.88453 0.35843 0.26200
O 	O 	0.37168 0.14742 0.58437 -0.40100
O 	O 	0.38400 0.15321 0.73477 -0.40600
C 	C 	0.39002 0.14526 0.65777 0.35200
C 	C 	0.42243 0.13076 0.64307 -0.14300
C 	C 	0.44333 0.12557 0.70997 0.10200
H 	H 	0.43873 0.13197 0.76747 0.00900
C 	C 	0.47243 0.11057 0.69577 -0.19500
H 	H 	0.48753 0.10837 0.74377 0.11300
C 	C 	0.47887 0.09962 0.61577 0.15000
C 	C 	0.46043 0.10827 0.54427 -0.17500
H 	H 	0.46713 0.10387 0.48697 0.09400
C 	C 	0.43123 0.12367 0.55687 0.08100
H 	H 	0.41833 0.12907 0.50867 0.01900
C 	C 	0.50584 0.07908 0.59727 -0.09000
C 	C 	0.48745 0.04103 0.54797 -0.03700
H 	H 	0.45873 0.02867 0.53097 0.04400
H 	H 	0.60593 0.16807 0.57187 -0.07900
H 	H 	0.58703 0.21787 0.69177 0.26200
O 	O 	0.51925 0.55760 0.91770 -0.40100
O 	O 	0.51346 0.56413 0.06810 -0.40600
C 	C 	0.52141 0.57810 0.99110 0.35200
C 	C 	0.53591 0.62501 0.97640 -0.14300
C 	C 	0.54110 0.65110 0.04330 0.10200
H 	H 	0.53470 0.64010 0.10080 0.00900
C 	C 	0.55610 0.69520 0.02910 -0.19600
H 	H 	0.55830 0.71250 0.07710 0.11300
C 	C 	0.56705 0.71259 0.94910 0.15000
C 	C 	0.55840 0.68550 0.87760 -0.17600
H 	H 	0.56280 0.69660 0.82030 0.09400
C 	C 	0.54300 0.64090 0.89020 0.08100
H 	H 	0.53760 0.62260 0.84200 0.01900
C 	C 	0.58759 0.76010 0.93060 -0.09000
C 	C 	0.62564 0.77976 0.88130 -0.03600
H 	H 	0.63800 0.76340 0.86430 0.04400
H 	H 	0.49860 0.77120 0.90520 -0.07900
H 	H 	0.44880 0.70250 0.02510 0.26000
O 	O 	0.18592 0.89093 0.25103 -0.40100
O 	O 	0.18013 0.89746 0.40143 -0.40600
C 	C 	0.18808 0.91143 0.32443 0.35200
C 	C 	0.20258 0.95834 0.30973 -0.14300
C 	C 	0.20777 0.98443 0.37663 0.10100
H 	H 	0.20137 0.97343 0.43413 0.00900
C 	C 	0.22277 0.02853 0.36243 -0.19500
H 	H 	0.22497 0.04583 0.41043 0.11300
C 	C 	0.23372 0.04592 0.28243 0.14900
C 	C 	0.22507 0.01883 0.21093 -0.17500
H 	H 	0.22947 0.02993 0.15363 0.09400
C 	C 	0.20967 0.97423 0.22353 0.08000
H 	H 	0.20427 0.95593 0.17533 0.01900
C 	C 	0.25426 0.09343 0.26393 -0.09000
C 	C 	0.29231 0.11309 0.21463 -0.03700
H 	H 	0.30467 0.09673 0.19763 0.04400
H 	H 	0.16527 0.10453 0.23853 -0.07900
H 	H 	0.11547 0.03583 0.35843 0.26200
O 	O 	0.85258 0.22427 0.58437 -0.40100
O 	O 	0.84679 0.23080 0.73477 -0.40600
C 	C 	0.85474 0.24477 0.65777 0.35200
C 	C 	0.86924 0.29168 0.64307 -0.14300
C 	C 	0.87443 0.31777 0.70997 0.10200
H 	H 	0.86803 0.30677 0.76747 0.00900
C 	C 	0.88943 0.36187 0.69577 -0.19500
H 	H 	0.89163 0.37917 0.74377 0.11300
C 	C 	0.90038 0.37926 0.61577 0.15000
C 	C 	0.89173 0.35217 0.54427 -0.17500
H 	H 	0.89613 0.36327 0.48697 0.09400
C 	C 	0.87633 0.30757 0.55687 0.08100
H 	H 	0.87093 0.28927 0.50867 0.01900
C 	C 	0.92092 0.42677 0.59727 -0.09000
C 	C 	0.95897 0.44643 0.54797 -0.03700
H 	H 	0.97133 0.43007 0.53097 0.04400
H 	H 	0.83193 0.43787 0.57187 -0.07900
H 	H 	0.78213 0.36917 0.69177 0.26200
O 	O 	0.96165 0.44240 0.08230 -0.40100
O 	O 	0.94933 0.43587 0.93190 -0.40700
C 	C 	0.94331 0.42190 0.00890 0.35200
C 	C 	0.91090 0.37499 0.02360 -0.14300
C 	C 	0.89000 0.34890 0.95670 0.10100
H 	H 	0.89460 0.35990 0.89920 0.00900
C 	C 	0.86090 0.30480 0.97090 -0.19600
H 	H 	0.84580 0.28750 0.92290 0.11300
C 	C 	0.85446 0.28741 0.05090 0.15100
C 	C 	0.87290 0.31450 0.12240 -0.17600
H 	H 	0.86620 0.30340 0.17970 0.09400
C 	C 	0.90210 0.35910 0.10980 0.08100
H 	H 	0.91500 0.37740 0.15800 0.01900
C 	C 	0.82749 0.23990 0.06940 -0.09100
C 	C 	0.84588 0.22024 0.11870 -0.03600
H 	H 	0.87460 0.23660 0.13570 0.04400
H 	H 	0.72740 0.22880 0.09480 -0.07800
H 	H 	0.74630 0.29750 0.97490 0.26000
O 	O 	0.62832 0.77573 0.41563 -0.40100
O 	O 	0.61600 0.76920 0.26523 -0.40600
C 	C 	0.60998 0.75523 0.34223 0.35200
C 	C 	0.57757 0.70832 0.35693 -0.14300
C 	C 	0.55667 0.68223 0.29003 0.10200
H 	H 	0.56127 0.69323 0.23253 0.00900
C 	C 	0.52757 0.63813 0.30423 -0.19500
H 	H 	0.51247 0.62083 0.25623 0.11300
C 	C 	0.52113 0.62074 0.38423 0.15000
C 	C 	0.53957 0.64783 0.45573 -0.17500
H 	H 	0.53287 0.63673 0.51303 0.09400
C 	C 	0.56877 0.69243 0.44313 0.08100
H 	H 	0.58167 0.71073 0.49133 0.01900
C 	C 	0.49416 0.57323 0.40273 -0.09000
C 	C 	0.51255 0.55357 0.45203 -0.03700
H 	H 	0.54127 0.56993 0.46903 0.04400
H 	H 	0.39407 0.56213 0.42813 -0.07900
H 	H 	0.41297 0.63083 0.30823 0.26200
O 	O 	0.29498 0.10907 0.74897 -0.40100
O 	O 	0.28266 0.10254 0.59857 -0.40600
C 	C 	0.27664 0.08857 0.67557 0.35200
C 	C 	0.24423 0.04166 0.69027 -0.14300
C 	C 	0.22333 0.01557 0.62337 0.10100
H 	H 	0.22793 0.02657 0.56587 0.00900
C 	C 	0.19423 0.97147 0.63757 -0.19400
H 	H 	0.17913 0.95417 0.58957 0.11300
C 	C 	0.18779 0.95408 0.71757 0.14900
C 	C 	0.20623 0.98117 0.78907 -0.17400
H 	H 	0.19953 0.97007 0.84637 0.09300
C 	C 	0.23543 0.02577 0.77647 0.08000
H 	H 	0.24833 0.04407 0.82467 0.01900
C 	C 	0.16082 0.90657 0.73607 -0.09000
C 	C 	0.17921 0.88691 0.78537 -0.03700
H 	H 	0.20793 0.90327 0.80237 0.04500
H 	H 	0.06073 0.89547 0.76147 -0.07900
H 	H 	0.07963 0.96417 0.64157 0.26200
O 	O 	0.48075 0.03835 0.08230 -0.40100
O 	O 	0.48654 0.05067 0.93190 -0.40700
C 	C 	0.47859 0.05669 0.00890 0.35200
C 	C 	0.46409 0.08910 0.02360 -0.14300
C 	C 	0.45890 0.11000 0.95670 0.10100
H 	H 	0.46530 0.10540 0.89920 0.00900
C 	C 	0.44390 0.13910 0.97090 -0.19600
H 	H 	0.44170 0.15420 0.92290 0.11300
C 	C 	0.43295 0.14554 0.05090 0.15000
C 	C 	0.44160 0.12710 0.12240 -0.17600
H 	H 	0.43720 0.13380 0.17970 0.09400
C 	C 	0.45700 0.09790 0.10980 0.08100
H 	H 	0.46240 0.08500 0.15800 0.01900
C 	C 	0.41241 0.17251 0.06940 -0.09000
C 	C 	0.37436 0.15412 0.11870 -0.03600
H 	H 	0.36200 0.12540 0.13570 0.04400
H 	H 	0.50140 0.27260 0.09480 -0.07900
H 	H 	0.55120 0.25370 0.97490 0.26000
O 	O 	0.14742 0.37168 0.41563 -0.40100
O 	O 	0.15321 0.38400 0.26523 -0.40600
C 	C 	0.14526 0.39002 0.34223 0.35200
C 	C 	0.13076 0.42243 0.35693 -0.14300
C 	C 	0.12557 0.44333 0.29003 0.10200
H 	H 	0.13197 0.43873 0.23253 0.00900
C 	C 	0.11057 0.47243 0.30423 -0.19500
H 	H 	0.10837 0.48753 0.25623 0.11300
C 	C 	0.09962 0.47887 0.38423 0.15000
C 	C 	0.10827 0.46043 0.45573 -0.17500
H 	H 	0.10387 0.46713 0.51303 0.09400
C 	C 	0.12367 0.43123 0.44313 0.08100
H 	H 	0.12907 0.41833 0.49133 0.01900
C 	C 	0.07908 0.50584 0.40273 -0.09000
C 	C 	0.04103 0.48745 0.45203 -0.03700
H 	H 	0.02867 0.45873 0.46903 0.04400
H 	H 	0.16807 0.60593 0.42813 -0.07900
H 	H 	0.21787 0.58703 0.30823 0.26200
O 	O 	0.81408 0.70502 0.74897 -0.40100
O 	O 	0.81987 0.71734 0.59857 -0.40600
C 	C 	0.81192 0.72336 0.67557 0.35200
C 	C 	0.79742 0.75577 0.69027 -0.14300
C 	C 	0.79223 0.77667 0.62337 0.10200
H 	H 	0.79863 0.77207 0.56587 0.00900
C 	C 	0.77723 0.80577 0.63757 -0.19500
H 	H 	0.77503 0.82087 0.58957 0.11300
C 	C 	0.76628 0.81221 0.71757 0.15000
C 	C 	0.77493 0.79377 0.78907 -0.17500
H 	H 	0.77053 0.80047 0.84637 0.09400
C 	C 	0.79033 0.76457 0.77647 0.08100
H 	H 	0.79573 0.75167 0.82467 0.01900
C 	C 	0.74574 0.83918 0.73607 -0.09000
C 	C 	0.70769 0.82079 0.78537 -0.03700
H 	H 	0.69533 0.79207 0.80237 0.04400
H 	H 	0.83473 0.93927 0.76147 -0.07900
H 	H 	0.88453 0.92037 0.64157 0.26200
O 	O 	0.55760 0.51925 0.08230 -0.40100
O 	O 	0.56413 0.51346 0.93190 -0.40600
C 	C 	0.57810 0.52141 0.00890 0.35200
C 	C 	0.62501 0.53591 0.02360 -0.14300
C 	C 	0.65110 0.54110 0.95670 0.10200
H 	H 	0.64010 0.53470 0.89920 0.00900
C 	C 	0.69520 0.55610 0.97090 -0.19600
H 	H 	0.71250 0.55830 0.92290 0.11300
C 	C 	0.71259 0.56705 0.05090 0.15000
C 	C 	0.68550 0.55840 0.12240 -0.17600
H 	H 	0.69660 0.56280 0.17970 0.09400
C 	C 	0.64090 0.54300 0.10980 0.08100
H 	H 	0.62260 0.53760 0.15800 0.01900
C 	C 	0.76010 0.58759 0.06940 -0.09000
C 	C 	0.77976 0.62564 0.11870 -0.03600
H 	H 	0.76340 0.63800 0.13570 0.04400
H 	H 	0.77120 0.49860 0.09480 -0.07900
H 	H 	0.70250 0.44880 0.97490 0.26000
O 	O 	0.22427 0.85258 0.41563 -0.40100
O 	O 	0.23080 0.84679 0.26523 -0.40600
C 	C 	0.24477 0.85474 0.34223 0.35200
C 	C 	0.29168 0.86924 0.35693 -0.14300
C 	C 	0.31777 0.87443 0.29003 0.10200
H 	H 	0.30677 0.86803 0.23253 0.00900
C 	C 	0.36187 0.88943 0.30423 -0.19500
H 	H 	0.37917 0.89163 0.25623 0.11300
C 	C 	0.37926 0.90038 0.38423 0.15000
C 	C 	0.35217 0.89173 0.45573 -0.17500
H 	H 	0.36327 0.89613 0.51303 0.09400
C 	C 	0.30757 0.87633 0.44313 0.08100
H 	H 	0.28927 0.87093 0.49133 0.01900
C 	C 	0.42677 0.92092 0.40273 -0.09000
C 	C 	0.44643 0.95897 0.45203 -0.03700
H 	H 	0.43007 0.97133 0.46903 0.04400
H 	H 	0.43787 0.83193 0.42813 -0.07900
H 	H 	0.36917 0.78213 0.30823 0.26200
O 	O 	0.89093 0.18592 0.74897 -0.40100
O 	O 	0.89746 0.18013 0.59857 -0.40600
C 	C 	0.91143 0.18808 0.67557 0.35200
C 	C 	0.95834 0.20258 0.69027 -0.14300
C 	C 	0.98443 0.20777 0.62337 0.10100
H 	H 	0.97343 0.20137 0.56587 0.00900
C 	C 	0.02853 0.22277 0.63757 -0.19500
H 	H 	0.04583 0.22497 0.58957 0.11300
C 	C 	0.04592 0.23372 0.71757 0.14900
C 	C 	0.01883 0.22507 0.78907 -0.17500
H 	H 	0.02993 0.22947 0.84637 0.09400
C 	C 	0.97423 0.20967 0.77647 0.08000
H 	H 	0.95593 0.20427 0.82467 0.01900
C 	C 	0.09343 0.25426 0.73607 -0.09000
C 	C 	0.11309 0.29231 0.78537 -0.03700
H 	H 	0.09673 0.30467 0.80237 0.04400
H 	H 	0.10453 0.16527 0.76147 -0.07900
H 	H 	0.03583 0.11547 0.64157 0.26200
Cu	Cu	0.50333 0.00666 0.91411 0.90000
Cu	Cu	0.17000 0.33999 0.24744 0.90000
Cu	Cu	0.83666 0.67333 0.58078 0.90000
Cu	Cu	0.99334 0.49667 0.91411 0.90000
Cu	Cu	0.66001 0.83000 0.24744 0.90000
Cu	Cu	0.32667 0.16334 0.58078 0.90000
Cu	Cu	0.50333 0.49667 0.91411 0.90000
Cu	Cu	0.17000 0.83000 0.24744 0.90000
Cu	Cu	0.83666 0.16334 0.58078 0.90000
Cu	Cu	0.00666 0.50333 0.08589 0.90000
Cu	Cu	0.67333 0.83666 0.41922 0.90000
Cu	Cu	0.33999 0.17000 0.75256 0.90000
Cu	Cu	0.49667 0.99334 0.08589 0.90000
Cu	Cu	0.16334 0.32667 0.41922 0.90000
Cu	Cu	0.83000 0.66001 0.75256 0.90000
Cu	Cu	0.49667 0.50333 0.08589 0.90000
Cu	Cu	0.16334 0.83666 0.41922 0.90000
Cu	Cu	0.83000 0.17000 0.75256 0.90000
O 	O 	0.76542 0.23458 0.99470 -0.28900
C 	C 	0.82279 0.17721 0.14320 0.00100
C 	C 	0.78405 0.21595 0.04470 0.16100
C 	C 	0.74810 0.25190 0.05720 0.37100
C 	C 	0.72580 0.27420 0.01130 -0.78600
H 	H 	0.71460 0.28540 0.05560 0.24900
O 	O 	0.43209 0.56791 0.32803 -0.28900
C 	C 	0.48946 0.51054 0.47653 0.00200
C 	C 	0.45072 0.54928 0.37803 0.16000
C 	C 	0.41477 0.58523 0.39053 0.37300
C 	C 	0.39247 0.60753 0.34463 -0.79200
H 	H 	0.38127 0.61873 0.38893 0.25100
O 	O 	0.09875 0.90125 0.66137 -0.28900
C 	C 	0.15612 0.84388 0.80987 0.00200
C 	C 	0.11738 0.88262 0.71137 0.16000
C 	C 	0.08143 0.91857 0.72387 0.37300
C 	C 	0.05913 0.94087 0.67797 -0.79300
H 	H 	0.04793 0.95207 0.72227 0.25100
O 	O 	0.76542 0.53084 0.99470 -0.28900
C 	C 	0.82279 0.64558 0.14320 0.00100
C 	C 	0.78405 0.56810 0.04470 0.16100
C 	C 	0.74810 0.49620 0.05720 0.37100
C 	C 	0.72580 0.45160 0.01130 -0.78700
H 	H 	0.71460 0.42920 0.05560 0.25000
O 	O 	0.43209 0.86417 0.32803 -0.28900
C 	C 	0.48946 0.97891 0.47653 0.00200
C 	C 	0.45072 0.90143 0.37803 0.16000
C 	C 	0.41477 0.82953 0.39053 0.37300
C 	C 	0.39247 0.78493 0.34463 -0.79200
H 	H 	0.38127 0.76253 0.38893 0.25100
O 	O 	0.09875 0.19751 0.66137 -0.28900
C 	C 	0.15612 0.31225 0.80987 0.00200
C 	C 	0.11738 0.23477 0.71137 0.16000
C 	C 	0.08143 0.16287 0.72387 0.37300
C 	C 	0.05913 0.11827 0.67797 -0.79200
H 	H 	0.04793 0.09587 0.72227 0.25100
O 	O 	0.46916 0.23458 0.99470 -0.28900
C 	C 	0.35442 0.17721 0.14320 0.00100
C 	C 	0.43190 0.21595 0.04470 0.16100
C 	C 	0.50380 0.25190 0.05720 0.37100
C 	C 	0.54840 0.27420 0.01130 -0.78700
H 	H 	0.57080 0.28540 0.05560 0.25000
O 	O 	0.13583 0.56791 0.32803 -0.28900
C 	C 	0.02109 0.51054 0.47653 0.00200
C 	C 	0.09857 0.54928 0.37803 0.16000
C 	C 	0.17047 0.58523 0.39053 0.37300
C 	C 	0.21507 0.60753 0.34463 -0.79200
H 	H 	0.23747 0.61873 0.38893 0.25100
O 	O 	0.80249 0.90125 0.66137 -0.28900
C 	C 	0.68775 0.84388 0.80987 0.00200
C 	C 	0.76523 0.88262 0.71137 0.16000
C 	C 	0.83713 0.91857 0.72387 0.37300
C 	C 	0.88173 0.94087 0.67797 -0.79200
H 	H 	0.90413 0.95207 0.72227 0.25100
O 	O 	0.23458 0.76542 0.00530 -0.28900
C 	C 	0.17721 0.82279 0.85680 0.00100
C 	C 	0.21595 0.78405 0.95530 0.16100
C 	C 	0.25190 0.74810 0.94280 0.37100
C 	C 	0.27420 0.72580 0.98870 -0.78600
H 	H 	0.28540 0.71460 0.94440 0.24900
O 	O 	0.90125 0.09875 0.33863 -0.28900
C 	C 	0.84388 0.15612 0.19013 0.00200
C 	C 	0.88262 0.11738 0.28863 0.16000
C 	C 	0.91857 0.08143 0.27613 0.37300
C 	C 	0.94087 0.05913 0.32203 -0.79300
H 	H 	0.95207 0.04793 0.27773 0.25100
O 	O 	0.56791 0.43209 0.67197 -0.28900
C 	C 	0.51054 0.48946 0.52347 0.00200
C 	C 	0.54928 0.45072 0.62197 0.16000
C 	C 	0.58523 0.41477 0.60947 0.37300
C 	C 	0.60753 0.39247 0.65537 -0.79200
H 	H 	0.61873 0.38127 0.61107 0.25100
O 	O 	0.53084 0.76542 0.00530 -0.28900
C 	C 	0.64558 0.82279 0.85680 0.00100
C 	C 	0.56810 0.78405 0.95530 0.16100
C 	C 	0.49620 0.74810 0.94280 0.37100
C 	C 	0.45160 0.72580 0.98870 -0.78700
H 	H 	0.42920 0.71460 0.94440 0.25000
O 	O 	0.19751 0.09875 0.33863 -0.28900
C 	C 	0.31225 0.15612 0.19013 0.00200
C 	C 	0.23477 0.11738 0.28863 0.16000
C 	C 	0.16287 0.08143 0.27613 0.37300
C 	C 	0.11827 0.05913 0.32203 -0.79200
H 	H 	0.09587 0.04793 0.27773 0.25100
O 	O 	0.86417 0.43209 0.67197 -0.28900
C 	C 	0.97891 0.48946 0.52347 0.00200
C 	C 	0.90143 0.45072 0.62197 0.16000
C 	C 	0.82953 0.41477 0.60947 0.37300
C 	C 	0.78493 0.39247 0.65537 -0.79200
H 	H 	0.76253 0.38127 0.61107 0.25100
O 	O 	0.23458 0.46916 0.00530 -0.28900
C 	C 	0.17721 0.35442 0.85680 0.00100
C 	C 	0.21595 0.43190 0.95530 0.16100
C 	C 	0.25190 0.50380 0.94280 0.37100
C 	C 	0.27420 0.54840 0.98870 -0.78700
H 	H 	0.28540 0.57080 0.94440 0.25000
O 	O 	0.90125 0.80249 0.33863 -0.28900
C 	C 	0.84388 0.68775 0.19013 0.00200
C 	C 	0.88262 0.76523 0.28863 0.16000
C 	C 	0.91857 0.83713 0.27613 0.37300
C 	C 	0.94087 0.88173 0.32203 -0.79200
H 	H 	0.95207 0.90413 0.27773 0.25100
O 	O 	0.56791 0.13583 0.67197 -0.28900
C 	C 	0.51054 0.02109 0.52347 0.00200
C 	C 	0.54928 0.09857 0.62197 0.16000
C 	C 	0.58523 0.17047 0.60947 0.37300
C 	C 	0.60753 0.21507 0.65537 -0.79200
H 	H 	0.61873 0.23747 0.61107 0.25100
