data_crystal

_cell_length_a 35.33940
_cell_length_b 35.33940
_cell_length_c 20.07000
_cell_angle_alpha 90.00000
_cell_angle_beta  90.00000
_cell_angle_gamma 120.00000

_symmetry_space_group_name_	'P 1'
_symmetry_space_group_name_H-M	'P 1'

loop_
_symmetry_equiv_pos_as_xyz
  x,y,z

loop_
_atom_site_label
_atom_site_type_symbol
_atom_site_fract_x
_atom_site_fract_y
_atom_site_fract_z
_atom_site_charge
O 	O 	0.63751 0.77980 0.40879 -0.40200
O 	O 	0.61095 0.76662 0.30277 -0.40100
C 	C 	0.61215 0.75588 0.36265 0.34300
C 	C 	0.57924 0.70937 0.38320 -0.09900
C 	C 	0.54988 0.68066 0.33340 0.03700
H 	H 	0.55060 0.69030 0.28900 0.03300
C 	C 	0.52034 0.63804 0.35266 -0.12000
H 	H 	0.49890 0.61910 0.32170 0.08300
C 	C 	0.52116 0.62239 0.41550 0.08800
C 	C 	0.55026 0.65132 0.46495 -0.12200
H 	H 	0.55010 0.64160 0.50910 0.07400
C 	C 	0.57899 0.69453 0.44602 0.04300
H 	H 	0.59900 0.71420 0.47800 0.03300
C 	C 	0.49342 0.57566 0.43340 -0.05300
C 	C 	0.51249 0.55520 0.46690 -0.04900
H 	H 	0.54260 0.57170 0.47810 0.04800
H 	H 	0.43210 0.61370 0.45800 -0.00200
H 	H 	0.36820 0.58650 0.34610 0.16000
O 	O 	0.30418 0.11313 0.74212 -0.40200
O 	O 	0.27762 0.09995 0.63610 -0.40100
C 	C 	0.27882 0.08921 0.69598 0.34300
C 	C 	0.24591 0.04270 0.71653 -0.09900
C 	C 	0.21655 0.01399 0.66673 0.03600
H 	H 	0.21727 0.02363 0.62233 0.03300
C 	C 	0.18701 0.97137 0.68599 -0.11900
H 	H 	0.16557 0.95243 0.65503 0.08300
C 	C 	0.18783 0.95572 0.74883 0.08800
C 	C 	0.21693 0.98465 0.79828 -0.12100
H 	H 	0.21677 0.97493 0.84243 0.07400
C 	C 	0.24566 0.02786 0.77935 0.04300
H 	H 	0.26567 0.04753 0.81133 0.03400
C 	C 	0.16009 0.90899 0.76673 -0.05300
C 	C 	0.17916 0.88853 0.80023 -0.04900
H 	H 	0.20927 0.90503 0.81143 0.04800
H 	H 	0.09877 0.94703 0.79133 -0.00200
H 	H 	0.03487 0.91983 0.67943 0.16000
O 	O 	0.97084 0.44647 0.07546 -0.40200
O 	O 	0.94428 0.43329 0.96944 -0.40200
C 	C 	0.94548 0.42255 0.02932 0.34300
C 	C 	0.91257 0.37604 0.04987 -0.10000
C 	C 	0.88321 0.34733 0.00007 0.03700
H 	H 	0.88393 0.35697 0.95567 0.03300
C 	C 	0.85367 0.30471 0.01933 -0.12000
H 	H 	0.83223 0.28577 0.98837 0.08300
C 	C 	0.85449 0.28906 0.08217 0.08800
C 	C 	0.88359 0.31799 0.13162 -0.12200
H 	H 	0.88343 0.30827 0.17577 0.07500
C 	C 	0.91232 0.36120 0.11269 0.04300
H 	H 	0.93233 0.38087 0.14467 0.03300
C 	C 	0.82675 0.24233 0.10007 -0.05300
C 	C 	0.84582 0.22187 0.13357 -0.04900
H 	H 	0.87593 0.23837 0.14477 0.04800
H 	H 	0.76543 0.28037 0.12467 -0.00200
H 	H 	0.70153 0.25317 0.01277 0.16000
O 	O 	0.22020 0.85771 0.40879 -0.40200
O 	O 	0.23338 0.84433 0.30277 -0.40100
C 	C 	0.24412 0.85627 0.36265 0.34300
C 	C 	0.29063 0.86987 0.38320 -0.09900
C 	C 	0.31934 0.86922 0.33340 0.03700
H 	H 	0.30970 0.86030 0.28900 0.03300
C 	C 	0.36196 0.88230 0.35266 -0.12000
H 	H 	0.38090 0.87980 0.32170 0.08300
C 	C 	0.37761 0.89877 0.41550 0.08800
C 	C 	0.34868 0.89894 0.46495 -0.12200
H 	H 	0.35840 0.90850 0.50910 0.07300
C 	C 	0.30547 0.88446 0.44602 0.04200
H 	H 	0.28580 0.88480 0.47800 0.03200
C 	C 	0.42434 0.91776 0.43340 -0.05400
C 	C 	0.44480 0.95729 0.46690 -0.05000
H 	H 	0.42830 0.97090 0.47810 0.04700
H 	H 	0.38630 0.81840 0.45800 -0.00300
H 	H 	0.41350 0.78170 0.34610 0.15900
O 	O 	0.88687 0.19104 0.74212 -0.40300
O 	O 	0.90005 0.17766 0.63610 -0.40200
C 	C 	0.91079 0.18960 0.69598 0.34200
C 	C 	0.95730 0.20320 0.71653 -0.10000
C 	C 	0.98601 0.20255 0.66673 0.03600
H 	H 	0.97637 0.19363 0.62233 0.03200
C 	C 	0.02863 0.21563 0.68599 -0.12100
H 	H 	0.04757 0.21313 0.65503 0.08200
C 	C 	0.04428 0.23210 0.74883 0.08700
C 	C 	0.01535 0.23227 0.79828 -0.12200
H 	H 	0.02507 0.24183 0.84243 0.07300
C 	C 	0.97214 0.21779 0.77935 0.04200
H 	H 	0.95247 0.21813 0.81133 0.03300
C 	C 	0.09101 0.25109 0.76673 -0.05400
C 	C 	0.11147 0.29062 0.80023 -0.05000
H 	H 	0.09497 0.30423 0.81143 0.04700
H 	H 	0.05297 0.15173 0.79133 -0.00300
H 	H 	0.08017 0.11503 0.67943 0.15900
O 	O 	0.55353 0.52438 0.07546 -0.40300
O 	O 	0.56671 0.51100 0.96944 -0.40200
C 	C 	0.57745 0.52294 0.02932 0.34200
C 	C 	0.62396 0.53654 0.04987 -0.10000
C 	C 	0.65267 0.53589 0.00007 0.03600
H 	H 	0.64303 0.52697 0.95567 0.03200
C 	C 	0.69529 0.54897 0.01933 -0.12100
H 	H 	0.71423 0.54647 0.98837 0.08200
C 	C 	0.71094 0.56544 0.08217 0.08700
C 	C 	0.68201 0.56561 0.13162 -0.12300
H 	H 	0.69173 0.57517 0.17577 0.07300
C 	C 	0.63880 0.55113 0.11269 0.04200
H 	H 	0.61913 0.55147 0.14467 0.03200
C 	C 	0.75767 0.58443 0.10007 -0.05400
C 	C 	0.77813 0.62396 0.13357 -0.05000
H 	H 	0.76163 0.63757 0.14477 0.04700
H 	H 	0.71963 0.48507 0.12467 -0.00300
H 	H 	0.74683 0.44837 0.01277 0.15900
O 	O 	0.14229 0.36249 0.40879 -0.40300
O 	O 	0.15567 0.38905 0.30277 -0.40200
C 	C 	0.14373 0.38785 0.36265 0.34200
C 	C 	0.13013 0.42076 0.38320 -0.10000
C 	C 	0.13078 0.45012 0.33340 0.03600
H 	H 	0.13970 0.44940 0.28900 0.03200
C 	C 	0.11770 0.47966 0.35266 -0.12100
H 	H 	0.12020 0.50110 0.32170 0.08200
C 	C 	0.10123 0.47884 0.41550 0.08700
C 	C 	0.10106 0.44974 0.46495 -0.12300
H 	H 	0.09150 0.44990 0.50910 0.07300
C 	C 	0.11554 0.42101 0.44602 0.04200
H 	H 	0.11520 0.40100 0.47800 0.03200
C 	C 	0.08224 0.50658 0.43340 -0.05400
C 	C 	0.04271 0.48751 0.46690 -0.05000
H 	H 	0.02910 0.45740 0.47810 0.04700
H 	H 	0.18160 0.56790 0.45800 -0.00300
H 	H 	0.21830 0.63180 0.34610 0.15900
O 	O 	0.80896 0.69582 0.74212 -0.40300
O 	O 	0.82234 0.72238 0.63610 -0.40200
C 	C 	0.81040 0.72118 0.69598 0.34200
C 	C 	0.79680 0.75409 0.71653 -0.10000
C 	C 	0.79745 0.78345 0.66673 0.03600
H 	H 	0.80637 0.78273 0.62233 0.03200
C 	C 	0.78437 0.81299 0.68599 -0.12100
H 	H 	0.78687 0.83443 0.65503 0.08200
C 	C 	0.76790 0.81217 0.74883 0.08700
C 	C 	0.76773 0.78307 0.79828 -0.12300
H 	H 	0.75817 0.78323 0.84243 0.07300
C 	C 	0.78221 0.75434 0.77935 0.04200
H 	H 	0.78187 0.73433 0.81133 0.03200
C 	C 	0.74891 0.83991 0.76673 -0.05400
C 	C 	0.70938 0.82084 0.80023 -0.05000
H 	H 	0.69577 0.79073 0.81143 0.04700
H 	H 	0.84827 0.90123 0.79133 -0.00300
H 	H 	0.88497 0.96513 0.67943 0.15900
O 	O 	0.47562 0.02916 0.07546 -0.40300
O 	O 	0.48900 0.05572 0.96944 -0.40300
C 	C 	0.47706 0.05452 0.02932 0.34200
C 	C 	0.46346 0.08743 0.04987 -0.10100
C 	C 	0.46411 0.11679 0.00007 0.03600
H 	H 	0.47303 0.11607 0.95567 0.03200
C 	C 	0.45103 0.14633 0.01933 -0.12100
H 	H 	0.45353 0.16777 0.98837 0.08200
C 	C 	0.43456 0.14551 0.08217 0.08700
C 	C 	0.43439 0.11641 0.13162 -0.12300
H 	H 	0.42483 0.11657 0.17577 0.07400
C 	C 	0.44887 0.08768 0.11269 0.04200
H 	H 	0.44853 0.06767 0.14467 0.03200
C 	C 	0.41557 0.17325 0.10007 -0.05400
C 	C 	0.37604 0.15418 0.13357 -0.05000
H 	H 	0.36243 0.12407 0.14477 0.04700
H 	H 	0.51493 0.23457 0.12467 -0.00300
H 	H 	0.55163 0.29847 0.01277 0.15900
O 	O 	0.77980 0.63751 0.59121 -0.40300
O 	O 	0.76662 0.61095 0.69723 -0.40200
C 	C 	0.75588 0.61215 0.63735 0.34200
C 	C 	0.70937 0.57924 0.61680 -0.10000
C 	C 	0.68066 0.54988 0.66660 0.03600
H 	H 	0.69030 0.55060 0.71100 0.03200
C 	C 	0.63804 0.52034 0.64734 -0.12100
H 	H 	0.61910 0.49890 0.67830 0.08200
C 	C 	0.62239 0.52116 0.58450 0.08700
C 	C 	0.65132 0.55026 0.53505 -0.12300
H 	H 	0.64160 0.55010 0.49090 0.07300
C 	C 	0.69453 0.57899 0.55398 0.04200
H 	H 	0.71420 0.59900 0.52200 0.03200
C 	C 	0.57566 0.49342 0.56660 -0.05400
C 	C 	0.55520 0.51249 0.53310 -0.05000
H 	H 	0.57170 0.54260 0.52190 0.04700
H 	H 	0.61370 0.43210 0.54200 -0.00300
H 	H 	0.58650 0.36820 0.65390 0.15900
O 	O 	0.44647 0.97084 0.92454 -0.40300
O 	O 	0.43329 0.94428 0.03056 -0.40300
C 	C 	0.42255 0.94548 0.97068 0.34200
C 	C 	0.37604 0.91257 0.95013 -0.10100
C 	C 	0.34733 0.88321 0.99993 0.03600
H 	H 	0.35697 0.88393 0.04433 0.03200
C 	C 	0.30471 0.85367 0.98067 -0.12100
H 	H 	0.28577 0.83223 0.01163 0.08200
C 	C 	0.28906 0.85449 0.91783 0.08700
C 	C 	0.31799 0.88359 0.86838 -0.12300
H 	H 	0.30827 0.88343 0.82423 0.07400
C 	C 	0.36120 0.91232 0.88731 0.04200
H 	H 	0.38087 0.93233 0.85533 0.03200
C 	C 	0.24233 0.82675 0.89993 -0.05400
C 	C 	0.22187 0.84582 0.86643 -0.05000
H 	H 	0.23837 0.87593 0.85523 0.04700
H 	H 	0.28037 0.76543 0.87533 -0.00300
H 	H 	0.25317 0.70153 0.98723 0.15900
O 	O 	0.11313 0.30418 0.25788 -0.40300
O 	O 	0.09995 0.27762 0.36390 -0.40200
C 	C 	0.08921 0.27882 0.30402 0.34200
C 	C 	0.04270 0.24591 0.28347 -0.10000
C 	C 	0.01399 0.21655 0.33327 0.03500
H 	H 	0.02363 0.21727 0.37767 0.03200
C 	C 	0.97137 0.18701 0.31401 -0.12000
H 	H 	0.95243 0.16557 0.34497 0.08200
C 	C 	0.95572 0.18783 0.25117 0.08700
C 	C 	0.98465 0.21693 0.20172 -0.12200
H 	H 	0.97493 0.21677 0.15757 0.07300
C 	C 	0.02786 0.24566 0.22065 0.04200
H 	H 	0.04753 0.26567 0.18867 0.03300
C 	C 	0.90899 0.16009 0.23327 -0.05400
C 	C 	0.88853 0.17916 0.19977 -0.05000
H 	H 	0.90503 0.20927 0.18857 0.04700
H 	H 	0.94703 0.09877 0.20867 -0.00300
H 	H 	0.91983 0.03487 0.32057 0.15900
O 	O 	0.85771 0.22020 0.59121 -0.40300
O 	O 	0.84433 0.23338 0.69723 -0.40200
C 	C 	0.85627 0.24412 0.63735 0.34200
C 	C 	0.86987 0.29063 0.61680 -0.10000
C 	C 	0.86922 0.31934 0.66660 0.03600
H 	H 	0.86030 0.30970 0.71100 0.03200
C 	C 	0.88230 0.36196 0.64734 -0.12100
H 	H 	0.87980 0.38090 0.67830 0.08200
C 	C 	0.89877 0.37761 0.58450 0.08700
C 	C 	0.89894 0.34868 0.53505 -0.12300
H 	H 	0.90850 0.35840 0.49090 0.07300
C 	C 	0.88446 0.30547 0.55398 0.04200
H 	H 	0.88480 0.28580 0.52200 0.03200
C 	C 	0.91776 0.42434 0.56660 -0.05400
C 	C 	0.95729 0.44480 0.53310 -0.05000
H 	H 	0.97090 0.42830 0.52190 0.04700
H 	H 	0.81840 0.38630 0.54200 -0.00300
H 	H 	0.78170 0.41350 0.65390 0.15900
O 	O 	0.52438 0.55353 0.92454 -0.40300
O 	O 	0.51100 0.56671 0.03056 -0.40200
C 	C 	0.52294 0.57745 0.97068 0.34200
C 	C 	0.53654 0.62396 0.95013 -0.10000
C 	C 	0.53589 0.65267 0.99993 0.03600
H 	H 	0.52697 0.64303 0.04433 0.03200
C 	C 	0.54897 0.69529 0.98067 -0.12100
H 	H 	0.54647 0.71423 0.01163 0.08200
C 	C 	0.56544 0.71094 0.91783 0.08700
C 	C 	0.56561 0.68201 0.86838 -0.12300
H 	H 	0.57517 0.69173 0.82423 0.07300
C 	C 	0.55113 0.63880 0.88731 0.04200
H 	H 	0.55147 0.61913 0.85533 0.03200
C 	C 	0.58443 0.75767 0.89993 -0.05400
C 	C 	0.62396 0.77813 0.86643 -0.05000
H 	H 	0.63757 0.76163 0.85523 0.04700
H 	H 	0.48507 0.71963 0.87533 -0.00300
H 	H 	0.44837 0.74683 0.98723 0.15900
O 	O 	0.19104 0.88687 0.25788 -0.40300
O 	O 	0.17766 0.90005 0.36390 -0.40200
C 	C 	0.18960 0.91079 0.30402 0.34200
C 	C 	0.20320 0.95730 0.28347 -0.10000
C 	C 	0.20255 0.98601 0.33327 0.03600
H 	H 	0.19363 0.97637 0.37767 0.03200
C 	C 	0.21563 0.02863 0.31401 -0.12100
H 	H 	0.21313 0.04757 0.34497 0.08200
C 	C 	0.23210 0.04428 0.25117 0.08700
C 	C 	0.23227 0.01535 0.20172 -0.12200
H 	H 	0.24183 0.02507 0.15757 0.07300
C 	C 	0.21779 0.97214 0.22065 0.04200
H 	H 	0.21813 0.95247 0.18867 0.03300
C 	C 	0.25109 0.09101 0.23327 -0.05400
C 	C 	0.29062 0.11147 0.19977 -0.05000
H 	H 	0.30423 0.09497 0.18857 0.04700
H 	H 	0.15173 0.05297 0.20867 -0.00300
H 	H 	0.11503 0.08017 0.32057 0.15900
O 	O 	0.36249 0.14229 0.59121 -0.40300
O 	O 	0.38905 0.15567 0.69723 -0.40200
C 	C 	0.38785 0.14373 0.63735 0.34200
C 	C 	0.42076 0.13013 0.61680 -0.10000
C 	C 	0.45012 0.13078 0.66660 0.03600
H 	H 	0.44940 0.13970 0.71100 0.03200
C 	C 	0.47966 0.11770 0.64734 -0.12100
H 	H 	0.50110 0.12020 0.67830 0.08200
C 	C 	0.47884 0.10123 0.58450 0.08700
C 	C 	0.44974 0.10106 0.53505 -0.12300
H 	H 	0.44990 0.09150 0.49090 0.07300
C 	C 	0.42101 0.11554 0.55398 0.04200
H 	H 	0.40100 0.11520 0.52200 0.03200
C 	C 	0.50658 0.08224 0.56660 -0.05400
C 	C 	0.48751 0.04271 0.53310 -0.05000
H 	H 	0.45740 0.02910 0.52190 0.04700
H 	H 	0.56790 0.18160 0.54200 -0.00300
H 	H 	0.63180 0.21830 0.65390 0.15900
O 	O 	0.02916 0.47562 0.92454 -0.40300
O 	O 	0.05572 0.48900 0.03056 -0.40300
C 	C 	0.05452 0.47706 0.97068 0.34200
C 	C 	0.08743 0.46346 0.95013 -0.10100
C 	C 	0.11679 0.46411 0.99993 0.03600
H 	H 	0.11607 0.47303 0.04433 0.03200
C 	C 	0.14633 0.45103 0.98067 -0.12100
H 	H 	0.16777 0.45353 0.01163 0.08200
C 	C 	0.14551 0.43456 0.91783 0.08700
C 	C 	0.11641 0.43439 0.86838 -0.12300
H 	H 	0.11657 0.42483 0.82423 0.07400
C 	C 	0.08768 0.44887 0.88731 0.04200
H 	H 	0.06767 0.44853 0.85533 0.03200
C 	C 	0.17325 0.41557 0.89993 -0.05400
C 	C 	0.15418 0.37604 0.86643 -0.05000
H 	H 	0.12407 0.36243 0.85523 0.04700
H 	H 	0.23457 0.51493 0.87533 -0.00300
H 	H 	0.29847 0.55163 0.98723 0.15900
O 	O 	0.69582 0.80896 0.25788 -0.40300
O 	O 	0.72238 0.82234 0.36390 -0.40200
C 	C 	0.72118 0.81040 0.30402 0.34200
C 	C 	0.75409 0.79680 0.28347 -0.10000
C 	C 	0.78345 0.79745 0.33327 0.03600
H 	H 	0.78273 0.80637 0.37767 0.03200
C 	C 	0.81299 0.78437 0.31401 -0.12100
H 	H 	0.83443 0.78687 0.34497 0.08200
C 	C 	0.81217 0.76790 0.25117 0.08700
C 	C 	0.78307 0.76773 0.20172 -0.12300
H 	H 	0.78323 0.75817 0.15757 0.07300
C 	C 	0.75434 0.78221 0.22065 0.04200
H 	H 	0.73433 0.78187 0.18867 0.03200
C 	C 	0.83991 0.74891 0.23327 -0.05400
C 	C 	0.82084 0.70938 0.19977 -0.05000
H 	H 	0.79073 0.69577 0.18857 0.04700
H 	H 	0.90123 0.84827 0.20867 -0.00300
H 	H 	0.96513 0.88497 0.32057 0.15900
O 	O 	0.36249 0.22020 0.59121 -0.40300
O 	O 	0.38905 0.23338 0.69723 -0.40200
C 	C 	0.38785 0.24412 0.63735 0.34200
C 	C 	0.42076 0.29063 0.61680 -0.10000
C 	C 	0.45012 0.31934 0.66660 0.03600
H 	H 	0.44940 0.30970 0.71100 0.03200
C 	C 	0.47966 0.36196 0.64734 -0.12100
H 	H 	0.50110 0.38090 0.67830 0.08200
C 	C 	0.47884 0.37761 0.58450 0.08700
C 	C 	0.44974 0.34868 0.53505 -0.12300
H 	H 	0.44990 0.35840 0.49090 0.07300
C 	C 	0.42101 0.30547 0.55398 0.04200
H 	H 	0.40100 0.28580 0.52200 0.03200
C 	C 	0.50658 0.42434 0.56660 -0.05400
C 	C 	0.48751 0.44480 0.53310 -0.05000
H 	H 	0.45740 0.42830 0.52190 0.04700
H 	H 	0.56790 0.38630 0.54200 -0.00300
H 	H 	0.63180 0.41350 0.65390 0.15900
O 	O 	0.02916 0.55353 0.92454 -0.40300
O 	O 	0.05572 0.56671 0.03056 -0.40300
C 	C 	0.05452 0.57745 0.97068 0.34200
C 	C 	0.08743 0.62396 0.95013 -0.10100
C 	C 	0.11679 0.65267 0.99993 0.03600
H 	H 	0.11607 0.64303 0.04433 0.03200
C 	C 	0.14633 0.69529 0.98067 -0.12100
H 	H 	0.16777 0.71423 0.01163 0.08200
C 	C 	0.14551 0.71094 0.91783 0.08700
C 	C 	0.11641 0.68201 0.86838 -0.12300
H 	H 	0.11657 0.69173 0.82423 0.07400
C 	C 	0.08768 0.63880 0.88731 0.04200
H 	H 	0.06767 0.61913 0.85533 0.03200
C 	C 	0.17325 0.75767 0.89993 -0.05400
C 	C 	0.15418 0.77813 0.86643 -0.05000
H 	H 	0.12407 0.76163 0.85523 0.04700
H 	H 	0.23457 0.71963 0.87533 -0.00300
H 	H 	0.29847 0.74683 0.98723 0.15900
O 	O 	0.69582 0.88687 0.25788 -0.40300
O 	O 	0.72238 0.90005 0.36390 -0.40200
C 	C 	0.72118 0.91079 0.30402 0.34200
C 	C 	0.75409 0.95730 0.28347 -0.10000
C 	C 	0.78345 0.98601 0.33327 0.03500
H 	H 	0.78273 0.97637 0.37767 0.03200
C 	C 	0.81299 0.02863 0.31401 -0.12000
H 	H 	0.83443 0.04757 0.34497 0.08200
C 	C 	0.81217 0.04428 0.25117 0.08700
C 	C 	0.78307 0.01535 0.20172 -0.12200
H 	H 	0.78323 0.02507 0.15757 0.07300
C 	C 	0.75434 0.97214 0.22065 0.04200
H 	H 	0.73433 0.95247 0.18867 0.03300
C 	C 	0.83991 0.09101 0.23327 -0.05400
C 	C 	0.82084 0.11147 0.19977 -0.05000
H 	H 	0.79073 0.09497 0.18857 0.04700
H 	H 	0.90123 0.05297 0.20867 -0.00300
H 	H 	0.96513 0.08017 0.32057 0.15900
O 	O 	0.77980 0.14229 0.59121 -0.40300
O 	O 	0.76662 0.15567 0.69723 -0.40200
C 	C 	0.75588 0.14373 0.63735 0.34200
C 	C 	0.70937 0.13013 0.61680 -0.10000
C 	C 	0.68066 0.13078 0.66660 0.03600
H 	H 	0.69030 0.13970 0.71100 0.03200
C 	C 	0.63804 0.11770 0.64734 -0.12100
H 	H 	0.61910 0.12020 0.67830 0.08200
C 	C 	0.62239 0.10123 0.58450 0.08700
C 	C 	0.65132 0.10106 0.53505 -0.12300
H 	H 	0.64160 0.09150 0.49090 0.07300
C 	C 	0.69453 0.11554 0.55398 0.04200
H 	H 	0.71420 0.11520 0.52200 0.03200
C 	C 	0.57566 0.08224 0.56660 -0.05400
C 	C 	0.55520 0.04271 0.53310 -0.05000
H 	H 	0.57170 0.02910 0.52190 0.04700
H 	H 	0.61370 0.18160 0.54200 -0.00300
H 	H 	0.58650 0.21830 0.65390 0.15900
O 	O 	0.44647 0.47562 0.92454 -0.40300
O 	O 	0.43329 0.48900 0.03056 -0.40200
C 	C 	0.42255 0.47706 0.97068 0.34200
C 	C 	0.37604 0.46346 0.95013 -0.10000
C 	C 	0.34733 0.46411 0.99993 0.03600
H 	H 	0.35697 0.47303 0.04433 0.03200
C 	C 	0.30471 0.45103 0.98067 -0.12100
H 	H 	0.28577 0.45353 0.01163 0.08200
C 	C 	0.28906 0.43456 0.91783 0.08700
C 	C 	0.31799 0.43439 0.86838 -0.12300
H 	H 	0.30827 0.42483 0.82423 0.07300
C 	C 	0.36120 0.44887 0.88731 0.04200
H 	H 	0.38087 0.44853 0.85533 0.03200
C 	C 	0.24233 0.41557 0.89993 -0.05400
C 	C 	0.22187 0.37604 0.86643 -0.05000
H 	H 	0.23837 0.36243 0.85523 0.04700
H 	H 	0.28037 0.51493 0.87533 -0.00300
H 	H 	0.25317 0.55163 0.98723 0.15900
O 	O 	0.11313 0.80896 0.25788 -0.40300
O 	O 	0.09995 0.82234 0.36390 -0.40200
C 	C 	0.08921 0.81040 0.30402 0.34200
C 	C 	0.04270 0.79680 0.28347 -0.10000
C 	C 	0.01399 0.79745 0.33327 0.03600
H 	H 	0.02363 0.80637 0.37767 0.03200
C 	C 	0.97137 0.78437 0.31401 -0.12100
H 	H 	0.95243 0.78687 0.34497 0.08200
C 	C 	0.95572 0.76790 0.25117 0.08700
C 	C 	0.98465 0.76773 0.20172 -0.12200
H 	H 	0.97493 0.75817 0.15757 0.07300
C 	C 	0.02786 0.78221 0.22065 0.04200
H 	H 	0.04753 0.78187 0.18867 0.03300
C 	C 	0.90899 0.74891 0.23327 -0.05400
C 	C 	0.88853 0.70938 0.19977 -0.05000
H 	H 	0.90503 0.69577 0.18857 0.04700
H 	H 	0.94703 0.84827 0.20867 -0.00300
H 	H 	0.91983 0.88497 0.32057 0.15900
O 	O 	0.85771 0.63751 0.59121 -0.40300
O 	O 	0.84433 0.61095 0.69723 -0.40200
C 	C 	0.85627 0.61215 0.63735 0.34200
C 	C 	0.86987 0.57924 0.61680 -0.10000
C 	C 	0.86922 0.54988 0.66660 0.03600
H 	H 	0.86030 0.55060 0.71100 0.03200
C 	C 	0.88230 0.52034 0.64734 -0.12100
H 	H 	0.87980 0.49890 0.67830 0.08200
C 	C 	0.89877 0.52116 0.58450 0.08700
C 	C 	0.89894 0.55026 0.53505 -0.12300
H 	H 	0.90850 0.55010 0.49090 0.07300
C 	C 	0.88446 0.57899 0.55398 0.04200
H 	H 	0.88480 0.59900 0.52200 0.03200
C 	C 	0.91776 0.49342 0.56660 -0.05400
C 	C 	0.95729 0.51249 0.53310 -0.05000
H 	H 	0.97090 0.54260 0.52190 0.04700
H 	H 	0.81840 0.43210 0.54200 -0.00300
H 	H 	0.78170 0.36820 0.65390 0.15900
O 	O 	0.52438 0.97084 0.92454 -0.40300
O 	O 	0.51100 0.94428 0.03056 -0.40300
C 	C 	0.52294 0.94548 0.97068 0.34200
C 	C 	0.53654 0.91257 0.95013 -0.10100
C 	C 	0.53589 0.88321 0.99993 0.03600
H 	H 	0.52697 0.88393 0.04433 0.03200
C 	C 	0.54897 0.85367 0.98067 -0.12100
H 	H 	0.54647 0.83223 0.01163 0.08200
C 	C 	0.56544 0.85449 0.91783 0.08700
C 	C 	0.56561 0.88359 0.86838 -0.12300
H 	H 	0.57517 0.88343 0.82423 0.07400
C 	C 	0.55113 0.91232 0.88731 0.04200
H 	H 	0.55147 0.93233 0.85533 0.03200
C 	C 	0.58443 0.82675 0.89993 -0.05400
C 	C 	0.62396 0.84582 0.86643 -0.05000
H 	H 	0.63757 0.87593 0.85523 0.04700
H 	H 	0.48507 0.76543 0.87533 -0.00300
H 	H 	0.44837 0.70153 0.98723 0.15900
O 	O 	0.19104 0.30418 0.25788 -0.40300
O 	O 	0.17766 0.27762 0.36390 -0.40200
C 	C 	0.18960 0.27882 0.30402 0.34200
C 	C 	0.20320 0.24591 0.28347 -0.10000
C 	C 	0.20255 0.21655 0.33327 0.03600
H 	H 	0.19363 0.21727 0.37767 0.03200
C 	C 	0.21563 0.18701 0.31401 -0.12100
H 	H 	0.21313 0.16557 0.34497 0.08200
C 	C 	0.23210 0.18783 0.25117 0.08700
C 	C 	0.23227 0.21693 0.20172 -0.12300
H 	H 	0.24183 0.21677 0.15757 0.07300
C 	C 	0.21779 0.24566 0.22065 0.04200
H 	H 	0.21813 0.26567 0.18867 0.03200
C 	C 	0.25109 0.16009 0.23327 -0.05400
C 	C 	0.29062 0.17916 0.19977 -0.05000
H 	H 	0.30423 0.20927 0.18857 0.04700
H 	H 	0.15173 0.09877 0.20867 -0.00300
H 	H 	0.11503 0.03487 0.32057 0.15900
O 	O 	0.22020 0.36249 0.40879 -0.40300
O 	O 	0.23338 0.38905 0.30277 -0.40200
C 	C 	0.24412 0.38785 0.36265 0.34200
C 	C 	0.29063 0.42076 0.38320 -0.10000
C 	C 	0.31934 0.45012 0.33340 0.03600
H 	H 	0.30970 0.44940 0.28900 0.03200
C 	C 	0.36196 0.47966 0.35266 -0.12100
H 	H 	0.38090 0.50110 0.32170 0.08200
C 	C 	0.37761 0.47884 0.41550 0.08700
C 	C 	0.34868 0.44974 0.46495 -0.12300
H 	H 	0.35840 0.44990 0.50910 0.07300
C 	C 	0.30547 0.42101 0.44602 0.04200
H 	H 	0.28580 0.40100 0.47800 0.03200
C 	C 	0.42434 0.50658 0.43340 -0.05400
C 	C 	0.44480 0.48751 0.46690 -0.05000
H 	H 	0.42830 0.45740 0.47810 0.04700
H 	H 	0.38630 0.56790 0.45800 -0.00300
H 	H 	0.41350 0.63180 0.34610 0.15900
O 	O 	0.88687 0.69582 0.74212 -0.40300
O 	O 	0.90005 0.72238 0.63610 -0.40200
C 	C 	0.91079 0.72118 0.69598 0.34200
C 	C 	0.95730 0.75409 0.71653 -0.10000
C 	C 	0.98601 0.78345 0.66673 0.03500
H 	H 	0.97637 0.78273 0.62233 0.03200
C 	C 	0.02863 0.81299 0.68599 -0.12000
H 	H 	0.04757 0.83443 0.65503 0.08200
C 	C 	0.04428 0.81217 0.74883 0.08700
C 	C 	0.01535 0.78307 0.79828 -0.12200
H 	H 	0.02507 0.78323 0.84243 0.07300
C 	C 	0.97214 0.75434 0.77935 0.04200
H 	H 	0.95247 0.73433 0.81133 0.03300
C 	C 	0.09101 0.83991 0.76673 -0.05400
C 	C 	0.11147 0.82084 0.80023 -0.05000
H 	H 	0.09497 0.79073 0.81143 0.04700
H 	H 	0.05297 0.90123 0.79133 -0.00300
H 	H 	0.08017 0.96513 0.67943 0.15900
O 	O 	0.55353 0.02916 0.07546 -0.40300
O 	O 	0.56671 0.05572 0.96944 -0.40300
C 	C 	0.57745 0.05452 0.02932 0.34200
C 	C 	0.62396 0.08743 0.04987 -0.10100
C 	C 	0.65267 0.11679 0.00007 0.03600
H 	H 	0.64303 0.11607 0.95567 0.03200
C 	C 	0.69529 0.14633 0.01933 -0.12100
H 	H 	0.71423 0.16777 0.98837 0.08200
C 	C 	0.71094 0.14551 0.08217 0.08700
C 	C 	0.68201 0.11641 0.13162 -0.12300
H 	H 	0.69173 0.11657 0.17577 0.07400
C 	C 	0.63880 0.08768 0.11269 0.04200
H 	H 	0.61913 0.06767 0.14467 0.03200
C 	C 	0.75767 0.17325 0.10007 -0.05400
C 	C 	0.77813 0.15418 0.13357 -0.05000
H 	H 	0.76163 0.12407 0.14477 0.04700
H 	H 	0.71963 0.23457 0.12467 -0.00300
H 	H 	0.74683 0.29847 0.01277 0.15900
O 	O 	0.14229 0.77980 0.40879 -0.40300
O 	O 	0.15567 0.76662 0.30277 -0.40200
C 	C 	0.14373 0.75588 0.36265 0.34200
C 	C 	0.13013 0.70937 0.38320 -0.10000
C 	C 	0.13078 0.68066 0.33340 0.03600
H 	H 	0.13970 0.69030 0.28900 0.03200
C 	C 	0.11770 0.63804 0.35266 -0.12100
H 	H 	0.12020 0.61910 0.32170 0.08200
C 	C 	0.10123 0.62239 0.41550 0.08700
C 	C 	0.10106 0.65132 0.46495 -0.12300
H 	H 	0.09150 0.64160 0.50910 0.07300
C 	C 	0.11554 0.69453 0.44602 0.04200
H 	H 	0.11520 0.71420 0.47800 0.03200
C 	C 	0.08224 0.57566 0.43340 -0.05400
C 	C 	0.04271 0.55520 0.46690 -0.05000
H 	H 	0.02910 0.57170 0.47810 0.04700
H 	H 	0.18160 0.61370 0.45800 -0.00300
H 	H 	0.21830 0.58650 0.34610 0.15900
O 	O 	0.80896 0.11313 0.74212 -0.40300
O 	O 	0.82234 0.09995 0.63610 -0.40200
C 	C 	0.81040 0.08921 0.69598 0.34200
C 	C 	0.79680 0.04270 0.71653 -0.10000
C 	C 	0.79745 0.01399 0.66673 0.03600
H 	H 	0.80637 0.02363 0.62233 0.03200
C 	C 	0.78437 0.97137 0.68599 -0.12100
H 	H 	0.78687 0.95243 0.65503 0.08200
C 	C 	0.76790 0.95572 0.74883 0.08700
C 	C 	0.76773 0.98465 0.79828 -0.12200
H 	H 	0.75817 0.97493 0.84243 0.07300
C 	C 	0.78221 0.02786 0.77935 0.04200
H 	H 	0.78187 0.04753 0.81133 0.03300
C 	C 	0.74891 0.90899 0.76673 -0.05400
C 	C 	0.70938 0.88853 0.80023 -0.05000
H 	H 	0.69577 0.90503 0.81143 0.04700
H 	H 	0.84827 0.94703 0.79133 -0.00300
H 	H 	0.88497 0.91983 0.67943 0.15900
O 	O 	0.47562 0.44647 0.07546 -0.40300
O 	O 	0.48900 0.43329 0.96944 -0.40200
C 	C 	0.47706 0.42255 0.02932 0.34200
C 	C 	0.46346 0.37604 0.04987 -0.10000
C 	C 	0.46411 0.34733 0.00007 0.03600
H 	H 	0.47303 0.35697 0.95567 0.03200
C 	C 	0.45103 0.30471 0.01933 -0.12100
H 	H 	0.45353 0.28577 0.98837 0.08200
C 	C 	0.43456 0.28906 0.08217 0.08700
C 	C 	0.43439 0.31799 0.13162 -0.12300
H 	H 	0.42483 0.30827 0.17577 0.07300
C 	C 	0.44887 0.36120 0.11269 0.04200
H 	H 	0.44853 0.38087 0.14467 0.03200
C 	C 	0.41557 0.24233 0.10007 -0.05400
C 	C 	0.37604 0.22187 0.13357 -0.05000
H 	H 	0.36243 0.23837 0.14477 0.04700
H 	H 	0.51493 0.28037 0.12467 -0.00300
H 	H 	0.55163 0.25317 0.01277 0.15900
O 	O 	0.63751 0.85771 0.40879 -0.40300
O 	O 	0.61095 0.84433 0.30277 -0.40200
C 	C 	0.61215 0.85627 0.36265 0.34200
C 	C 	0.57924 0.86987 0.38320 -0.10000
C 	C 	0.54988 0.86922 0.33340 0.03600
H 	H 	0.55060 0.86030 0.28900 0.03200
C 	C 	0.52034 0.88230 0.35266 -0.12100
H 	H 	0.49890 0.87980 0.32170 0.08200
C 	C 	0.52116 0.89877 0.41550 0.08700
C 	C 	0.55026 0.89894 0.46495 -0.12300
H 	H 	0.55010 0.90850 0.50910 0.07300
C 	C 	0.57899 0.88446 0.44602 0.04200
H 	H 	0.59900 0.88480 0.47800 0.03200
C 	C 	0.49342 0.91776 0.43340 -0.05400
C 	C 	0.51249 0.95729 0.46690 -0.05000
H 	H 	0.54260 0.97090 0.47810 0.04700
H 	H 	0.43210 0.81840 0.45800 -0.00300
H 	H 	0.36820 0.78170 0.34610 0.15900
O 	O 	0.30418 0.19104 0.74212 -0.40300
O 	O 	0.27762 0.17766 0.63610 -0.40200
C 	C 	0.27882 0.18960 0.69598 0.34200
C 	C 	0.24591 0.20320 0.71653 -0.10000
C 	C 	0.21655 0.20255 0.66673 0.03600
H 	H 	0.21727 0.19363 0.62233 0.03200
C 	C 	0.18701 0.21563 0.68599 -0.12100
H 	H 	0.16557 0.21313 0.65503 0.08200
C 	C 	0.18783 0.23210 0.74883 0.08700
C 	C 	0.21693 0.23227 0.79828 -0.12300
H 	H 	0.21677 0.24183 0.84243 0.07300
C 	C 	0.24566 0.21779 0.77935 0.04200
H 	H 	0.26567 0.21813 0.81133 0.03200
C 	C 	0.16009 0.25109 0.76673 -0.05400
C 	C 	0.17916 0.29062 0.80023 -0.05000
H 	H 	0.20927 0.30423 0.81143 0.04700
H 	H 	0.09877 0.15173 0.79133 -0.00300
H 	H 	0.03487 0.11503 0.67943 0.15900
O 	O 	0.97084 0.52438 0.07546 -0.40300
O 	O 	0.94428 0.51100 0.96944 -0.40300
C 	C 	0.94548 0.52294 0.02932 0.34200
C 	C 	0.91257 0.53654 0.04987 -0.10100
C 	C 	0.88321 0.53589 0.00007 0.03600
H 	H 	0.88393 0.52697 0.95567 0.03200
C 	C 	0.85367 0.54897 0.01933 -0.12100
H 	H 	0.83223 0.54647 0.98837 0.08200
C 	C 	0.85449 0.56544 0.08217 0.08700
C 	C 	0.88359 0.56561 0.13162 -0.12300
H 	H 	0.88343 0.57517 0.17577 0.07400
C 	C 	0.91232 0.55113 0.11269 0.04200
H 	H 	0.93233 0.55147 0.14467 0.03200
C 	C 	0.82675 0.58443 0.10007 -0.05400
C 	C 	0.84582 0.62396 0.13357 -0.05000
H 	H 	0.87593 0.63757 0.14477 0.04700
H 	H 	0.76543 0.48507 0.12467 -0.00300
H 	H 	0.70153 0.44837 0.01277 0.15900
Cu	Cu	0.68170 0.84085 0.39427 0.90200
Cu	Cu	0.34837 0.17418 0.72760 0.90200
Cu	Cu	0.01503 0.50752 0.06094 0.90200
Cu	Cu	0.15915 0.84085 0.39427 0.90200
Cu	Cu	0.82582 0.17418 0.72760 0.90200
Cu	Cu	0.49248 0.50752 0.06094 0.90200
Cu	Cu	0.15915 0.31830 0.39427 0.90200
Cu	Cu	0.82582 0.65163 0.72760 0.90200
Cu	Cu	0.49248 0.98497 0.06094 0.90200
Cu	Cu	0.84085 0.68170 0.60573 0.90200
Cu	Cu	0.50752 0.01503 0.93906 0.90200
Cu	Cu	0.17418 0.34837 0.27240 0.90200
Cu	Cu	0.84085 0.15915 0.60573 0.90200
Cu	Cu	0.50752 0.49248 0.93906 0.90200
Cu	Cu	0.17418 0.82582 0.27240 0.90200
Cu	Cu	0.31830 0.15915 0.60573 0.90200
Cu	Cu	0.98497 0.49248 0.93906 0.90200
Cu	Cu	0.65163 0.82582 0.27240 0.90200
O 	O 	0.42854 0.57146 0.38330 -0.22500
C 	C 	0.48893 0.51107 0.48490 0.01000
C 	C 	0.44941 0.55059 0.41580 0.11700
C 	C 	0.40956 0.59044 0.42960 0.13400
C 	C 	0.38970 0.61030 0.37410 -0.44100
H 	H 	0.37560 0.62440 0.39700 0.14700
O 	O 	0.09521 0.90479 0.71663 -0.22500
C 	C 	0.15560 0.84440 0.81823 0.01000
C 	C 	0.11608 0.88392 0.74913 0.11700
C 	C 	0.07623 0.92377 0.76293 0.13400
C 	C 	0.05637 0.94363 0.70743 -0.44100
H 	H 	0.04227 0.95773 0.73033 0.14700
O 	O 	0.76187 0.23813 0.04997 -0.22500
C 	C 	0.82226 0.17774 0.15157 0.01000
C 	C 	0.78274 0.21726 0.08247 0.11700
C 	C 	0.74289 0.25711 0.09627 0.13400
C 	C 	0.72303 0.27697 0.04077 -0.44100
H 	H 	0.70893 0.29107 0.06367 0.14700
O 	O 	0.42854 0.85708 0.38330 -0.22500
C 	C 	0.48893 0.97786 0.48490 0.01000
C 	C 	0.44941 0.89882 0.41580 0.11700
C 	C 	0.40956 0.81912 0.42960 0.13400
C 	C 	0.38970 0.77940 0.37410 -0.44100
H 	H 	0.37560 0.75120 0.39700 0.14700
O 	O 	0.09521 0.19041 0.71663 -0.22500
C 	C 	0.15560 0.31119 0.81823 0.01000
C 	C 	0.11608 0.23215 0.74913 0.11700
C 	C 	0.07623 0.15245 0.76293 0.13400
C 	C 	0.05637 0.11273 0.70743 -0.44100
H 	H 	0.04227 0.08453 0.73033 0.14700
O 	O 	0.76187 0.52375 0.04997 -0.22500
C 	C 	0.82226 0.64453 0.15157 0.01000
C 	C 	0.78274 0.56549 0.08247 0.11700
C 	C 	0.74289 0.48579 0.09627 0.13400
C 	C 	0.72303 0.44607 0.04077 -0.44100
H 	H 	0.70893 0.41787 0.06367 0.14700
O 	O 	0.14292 0.57146 0.38330 -0.22500
C 	C 	0.02214 0.51107 0.48490 0.01000
C 	C 	0.10118 0.55059 0.41580 0.11700
C 	C 	0.18088 0.59044 0.42960 0.13400
C 	C 	0.22060 0.61030 0.37410 -0.44100
H 	H 	0.24880 0.62440 0.39700 0.14700
O 	O 	0.80959 0.90479 0.71663 -0.22500
C 	C 	0.68881 0.84440 0.81823 0.01000
C 	C 	0.76785 0.88392 0.74913 0.11700
C 	C 	0.84755 0.92377 0.76293 0.13400
C 	C 	0.88727 0.94363 0.70743 -0.44100
H 	H 	0.91547 0.95773 0.73033 0.14700
O 	O 	0.47625 0.23813 0.04997 -0.22500
C 	C 	0.35547 0.17774 0.15157 0.01000
C 	C 	0.43451 0.21726 0.08247 0.11700
C 	C 	0.51421 0.25711 0.09627 0.13400
C 	C 	0.55393 0.27697 0.04077 -0.44100
H 	H 	0.58213 0.29107 0.06367 0.14700
O 	O 	0.57146 0.42854 0.61670 -0.22500
C 	C 	0.51107 0.48893 0.51510 0.01000
C 	C 	0.55059 0.44941 0.58420 0.11700
C 	C 	0.59044 0.40956 0.57040 0.13400
C 	C 	0.61030 0.38970 0.62590 -0.44100
H 	H 	0.62440 0.37560 0.60300 0.14700
O 	O 	0.23813 0.76187 0.95003 -0.22500
C 	C 	0.17774 0.82226 0.84843 0.01000
C 	C 	0.21726 0.78274 0.91753 0.11700
C 	C 	0.25711 0.74289 0.90373 0.13400
C 	C 	0.27697 0.72303 0.95923 -0.44100
H 	H 	0.29107 0.70893 0.93633 0.14700
O 	O 	0.90479 0.09521 0.28337 -0.22500
C 	C 	0.84440 0.15560 0.18177 0.01000
C 	C 	0.88392 0.11608 0.25087 0.11700
C 	C 	0.92377 0.07623 0.23707 0.13400
C 	C 	0.94363 0.05637 0.29257 -0.44100
H 	H 	0.95773 0.04227 0.26967 0.14700
O 	O 	0.85708 0.42854 0.61670 -0.22500
C 	C 	0.97786 0.48893 0.51510 0.01000
C 	C 	0.89882 0.44941 0.58420 0.11700
C 	C 	0.81912 0.40956 0.57040 0.13400
C 	C 	0.77940 0.38970 0.62590 -0.44100
H 	H 	0.75120 0.37560 0.60300 0.14700
O 	O 	0.52375 0.76187 0.95003 -0.22500
C 	C 	0.64453 0.82226 0.84843 0.01000
C 	C 	0.56549 0.78274 0.91753 0.11700
C 	C 	0.48579 0.74289 0.90373 0.13400
C 	C 	0.44607 0.72303 0.95923 -0.44100
H 	H 	0.41787 0.70893 0.93633 0.14700
O 	O 	0.19041 0.09521 0.28337 -0.22500
C 	C 	0.31119 0.15560 0.18177 0.01000
C 	C 	0.23215 0.11608 0.25087 0.11700
C 	C 	0.15245 0.07623 0.23707 0.13400
C 	C 	0.11273 0.05637 0.29257 -0.44100
H 	H 	0.08453 0.04227 0.26967 0.14700
O 	O 	0.57146 0.14292 0.61670 -0.22500
C 	C 	0.51107 0.02214 0.51510 0.01000
C 	C 	0.55059 0.10118 0.58420 0.11700
C 	C 	0.59044 0.18088 0.57040 0.13400
C 	C 	0.61030 0.22060 0.62590 -0.44100
H 	H 	0.62440 0.24880 0.60300 0.14700
O 	O 	0.23813 0.47625 0.95003 -0.22500
C 	C 	0.17774 0.35547 0.84843 0.01000
C 	C 	0.21726 0.43451 0.91753 0.11700
C 	C 	0.25711 0.51421 0.90373 0.13400
C 	C 	0.27697 0.55393 0.95923 -0.44100
H 	H 	0.29107 0.58213 0.93633 0.14700
O 	O 	0.90479 0.80959 0.28337 -0.22500
C 	C 	0.84440 0.68881 0.18177 0.01000
C 	C 	0.88392 0.76785 0.25087 0.11700
C 	C 	0.92377 0.84755 0.23707 0.13400
C 	C 	0.94363 0.88727 0.29257 -0.44100
H 	H 	0.95773 0.91547 0.26967 0.14700
