data_crystal

_cell_length_a 35.26680
_cell_length_b 35.26680
_cell_length_c 21.13740
_cell_angle_alpha 90.00000
_cell_angle_beta  90.00000
_cell_angle_gamma 120.00000

_symmetry_space_group_name_	'P 1'
_symmetry_space_group_name_H-M	'P 1'

loop_
_symmetry_equiv_pos_as_xyz
  x,y,z

loop_
_atom_site_label
_atom_site_type_symbol
_atom_site_fract_x
_atom_site_fract_y
_atom_site_fract_z
_atom_site_charge
O 	O 	0.36394 0.22110 0.59676 -0.41100
O 	O 	0.38865 0.23353 0.69720 -0.41200
C 	C 	0.38839 0.24507 0.64118 0.36700
C 	C 	0.41980 0.29191 0.62426 -0.13700
C 	C 	0.44667 0.32142 0.67078 0.07300
H 	H 	0.44580 0.31190 0.71210 0.01500
C 	C 	0.47457 0.36497 0.65472 -0.16700
H 	H 	0.49240 0.38440 0.68570 0.09800
C 	C 	0.47642 0.37993 0.59431 0.12400
C 	C 	0.44983 0.35012 0.54764 -0.16300
H 	H 	0.45110 0.35940 0.50610 0.08800
C 	C 	0.42150 0.30655 0.56370 0.07600
H 	H 	0.40350 0.28710 0.53280 0.02000
C 	C 	0.50406 0.42690 0.57594 -0.08300
C 	C 	0.48646 0.44645 0.53909 -0.03600
H 	H 	0.45740 0.42980 0.52650 0.04300
H 	H 	0.60980 0.43470 0.57030 -0.10300
H 	H 	0.62780 0.41660 0.66820 0.30300
O 	O 	0.03061 0.55443 0.93009 -0.41000
O 	O 	0.05532 0.56686 0.03053 -0.41200
C 	C 	0.05506 0.57840 0.97451 0.36700
C 	C 	0.08647 0.62524 0.95759 -0.13200
C 	C 	0.11334 0.65475 0.00411 0.06700
H 	H 	0.11247 0.64523 0.04543 0.01800
C 	C 	0.14124 0.69830 0.98805 -0.15800
H 	H 	0.15907 0.71773 0.01903 0.09500
C 	C 	0.14309 0.71326 0.92764 0.12100
C 	C 	0.11650 0.68345 0.88097 -0.15800
H 	H 	0.11777 0.69273 0.83943 0.08800
C 	C 	0.08817 0.63988 0.89703 0.07300
H 	H 	0.07017 0.62043 0.86613 0.02100
C 	C 	0.17073 0.76023 0.90927 -0.08000
C 	C 	0.15313 0.77978 0.87242 -0.03800
H 	H 	0.12407 0.76313 0.85983 0.04400
H 	H 	0.27647 0.76803 0.90363 -0.10000
H 	H 	0.29447 0.74993 0.00153 0.29800
O 	O 	0.69727 0.88777 0.26343 -0.41000
O 	O 	0.72198 0.90020 0.36387 -0.41100
C 	C 	0.72172 0.91174 0.30785 0.36700
C 	C 	0.75313 0.95858 0.29093 -0.13500
C 	C 	0.78000 0.98809 0.33745 0.07200
H 	H 	0.77913 0.97857 0.37877 0.01700
C 	C 	0.80790 0.03164 0.32139 -0.16400
H 	H 	0.82573 0.05107 0.35237 0.09800
C 	C 	0.80975 0.04660 0.26098 0.12400
C 	C 	0.78316 0.01679 0.21431 -0.16000
H 	H 	0.78443 0.02607 0.17277 0.08900
C 	C 	0.75483 0.97322 0.23037 0.07500
H 	H 	0.73683 0.95377 0.19947 0.02000
C 	C 	0.83739 0.09357 0.24261 -0.08200
C 	C 	0.81979 0.11312 0.20576 -0.03600
H 	H 	0.79073 0.09647 0.19317 0.04300
H 	H 	0.94313 0.10137 0.23697 -0.10200
H 	H 	0.96113 0.08327 0.33487 0.30300
O 	O 	0.77890 0.14284 0.59676 -0.41000
O 	O 	0.76647 0.15512 0.69720 -0.41100
C 	C 	0.75493 0.14332 0.64118 0.36800
C 	C 	0.70809 0.12789 0.62426 -0.13600
C 	C 	0.67858 0.12525 0.67078 0.07400
H 	H 	0.68810 0.13390 0.71210 0.01600
C 	C 	0.63503 0.10960 0.65472 -0.16600
H 	H 	0.61560 0.10800 0.68570 0.09900
C 	C 	0.62007 0.09649 0.59431 0.12500
C 	C 	0.64988 0.09971 0.54764 -0.16200
H 	H 	0.64060 0.09170 0.50610 0.08900
C 	C 	0.69345 0.11495 0.56370 0.07700
H 	H 	0.71290 0.11640 0.53280 0.02000
C 	C 	0.57310 0.07716 0.57594 -0.08300
C 	C 	0.55355 0.04001 0.53909 -0.03600
H 	H 	0.57020 0.02760 0.52650 0.04300
H 	H 	0.56530 0.17510 0.57030 -0.10300
H 	H 	0.58340 0.21120 0.66820 0.30200
O 	O 	0.44557 0.47617 0.93009 -0.41000
O 	O 	0.43314 0.48845 0.03053 -0.41100
C 	C 	0.42160 0.47665 0.97451 0.36700
C 	C 	0.37476 0.46122 0.95759 -0.13500
C 	C 	0.34525 0.45858 0.00411 0.07200
H 	H 	0.35477 0.46723 0.04543 0.01700
C 	C 	0.30170 0.44293 0.98805 -0.16300
H 	H 	0.28227 0.44133 0.01903 0.09800
C 	C 	0.28674 0.42982 0.92764 0.12400
C 	C 	0.31655 0.43304 0.88097 -0.16100
H 	H 	0.30727 0.42503 0.83943 0.08900
C 	C 	0.36012 0.44828 0.89703 0.07600
H 	H 	0.37957 0.44973 0.86613 0.02000
C 	C 	0.23977 0.41049 0.90927 -0.08200
C 	C 	0.22022 0.37334 0.87242 -0.03700
H 	H 	0.23687 0.36093 0.85983 0.04400
H 	H 	0.23197 0.50843 0.90363 -0.10100
H 	H 	0.25007 0.54453 0.00153 0.30000
O 	O 	0.11223 0.80951 0.26343 -0.41000
O 	O 	0.09980 0.82179 0.36387 -0.41100
C 	C 	0.08826 0.80999 0.30785 0.36700
C 	C 	0.04142 0.79456 0.29093 -0.13500
C 	C 	0.01191 0.79192 0.33745 0.07300
H 	H 	0.02143 0.80057 0.37877 0.01700
C 	C 	0.96836 0.77627 0.32139 -0.16400
H 	H 	0.94893 0.77467 0.35237 0.09800
C 	C 	0.95340 0.76316 0.26098 0.12400
C 	C 	0.98321 0.76638 0.21431 -0.16000
H 	H 	0.97393 0.75837 0.17277 0.08900
C 	C 	0.02678 0.78162 0.23037 0.07500
H 	H 	0.04623 0.78307 0.19947 0.02000
C 	C 	0.90643 0.74383 0.24261 -0.08300
C 	C 	0.88688 0.70668 0.20576 -0.03600
H 	H 	0.90353 0.69427 0.19317 0.04300
H 	H 	0.89863 0.84177 0.23697 -0.10300
H 	H 	0.91673 0.87787 0.33487 0.30200
O 	O 	0.85716 0.63606 0.59676 -0.41000
O 	O 	0.84488 0.61135 0.69720 -0.41100
C 	C 	0.85668 0.61161 0.64118 0.36800
C 	C 	0.87211 0.58020 0.62426 -0.13600
C 	C 	0.87475 0.55333 0.67078 0.07400
H 	H 	0.86610 0.55420 0.71210 0.01600
C 	C 	0.89040 0.52543 0.65472 -0.16600
H 	H 	0.89200 0.50760 0.68570 0.09900
C 	C 	0.90351 0.52358 0.59431 0.12500
C 	C 	0.90029 0.55017 0.54764 -0.16200
H 	H 	0.90830 0.54890 0.50610 0.08900
C 	C 	0.88505 0.57850 0.56370 0.07700
H 	H 	0.88360 0.59650 0.53280 0.02000
C 	C 	0.92284 0.49594 0.57594 -0.08300
C 	C 	0.95999 0.51354 0.53909 -0.03600
H 	H 	0.97240 0.54260 0.52650 0.04300
H 	H 	0.82490 0.39020 0.57030 -0.10300
H 	H 	0.78880 0.37220 0.66820 0.30200
O 	O 	0.52383 0.96939 0.93009 -0.41000
O 	O 	0.51155 0.94468 0.03053 -0.41200
C 	C 	0.52335 0.94494 0.97451 0.36800
C 	C 	0.53878 0.91353 0.95759 -0.13300
C 	C 	0.54142 0.88666 0.00411 0.06900
H 	H 	0.53277 0.88753 0.04543 0.01800
C 	C 	0.55707 0.85876 0.98805 -0.16100
H 	H 	0.55867 0.84093 0.01903 0.09700
C 	C 	0.57018 0.85691 0.92764 0.12300
C 	C 	0.56696 0.88350 0.88097 -0.16000
H 	H 	0.57497 0.88223 0.83943 0.08800
C 	C 	0.55172 0.91183 0.89703 0.07400
H 	H 	0.55027 0.92983 0.86613 0.02100
C 	C 	0.58951 0.82927 0.90927 -0.08100
C 	C 	0.62666 0.84687 0.87242 -0.03700
H 	H 	0.63907 0.87593 0.85983 0.04400
H 	H 	0.49157 0.72353 0.90363 -0.10100
H 	H 	0.45547 0.70553 0.00153 0.30000
O 	O 	0.19049 0.30273 0.26343 -0.41000
O 	O 	0.17821 0.27802 0.36387 -0.41100
C 	C 	0.19001 0.27828 0.30785 0.36800
C 	C 	0.20544 0.24687 0.29093 -0.13600
C 	C 	0.20808 0.22000 0.33745 0.07400
H 	H 	0.19943 0.22087 0.37877 0.01600
C 	C 	0.22373 0.19210 0.32139 -0.16600
H 	H 	0.22533 0.17427 0.35237 0.09900
C 	C 	0.23684 0.19025 0.26098 0.12500
C 	C 	0.23362 0.21684 0.21431 -0.16200
H 	H 	0.24163 0.21557 0.17277 0.08900
C 	C 	0.21838 0.24517 0.23037 0.07700
H 	H 	0.21693 0.26317 0.19947 0.02000
C 	C 	0.25617 0.16261 0.24261 -0.08300
C 	C 	0.29332 0.18021 0.20576 -0.03600
H 	H 	0.30573 0.20927 0.19317 0.04300
H 	H 	0.15823 0.05687 0.23697 -0.10300
H 	H 	0.12213 0.03887 0.33487 0.30300
O 	O 	0.22110 0.36394 0.40324 -0.41000
O 	O 	0.23353 0.38865 0.30280 -0.41100
C 	C 	0.24507 0.38839 0.35882 0.36800
C 	C 	0.29191 0.41980 0.37574 -0.13600
C 	C 	0.32142 0.44667 0.32922 0.07400
H 	H 	0.31190 0.44580 0.28790 0.01600
C 	C 	0.36497 0.47457 0.34528 -0.16600
H 	H 	0.38440 0.49240 0.31430 0.09900
C 	C 	0.37993 0.47642 0.40569 0.12500
C 	C 	0.35012 0.44983 0.45236 -0.16200
H 	H 	0.35940 0.45110 0.49390 0.08900
C 	C 	0.30655 0.42150 0.43630 0.07700
H 	H 	0.28710 0.40350 0.46720 0.02000
C 	C 	0.42690 0.50406 0.42406 -0.08300
C 	C 	0.44645 0.48646 0.46091 -0.03600
H 	H 	0.42980 0.45740 0.47350 0.04300
H 	H 	0.43470 0.60980 0.42970 -0.10300
H 	H 	0.41660 0.62780 0.33180 0.30300
O 	O 	0.88777 0.69727 0.73657 -0.41000
O 	O 	0.90020 0.72198 0.63613 -0.41100
C 	C 	0.91174 0.72172 0.69215 0.36700
C 	C 	0.95858 0.75313 0.70907 -0.13500
C 	C 	0.98809 0.78000 0.66255 0.07200
H 	H 	0.97857 0.77913 0.62123 0.01700
C 	C 	0.03164 0.80790 0.67861 -0.16400
H 	H 	0.05107 0.82573 0.64763 0.09800
C 	C 	0.04660 0.80975 0.73902 0.12400
C 	C 	0.01679 0.78316 0.78569 -0.16000
H 	H 	0.02607 0.78443 0.82723 0.08900
C 	C 	0.97322 0.75483 0.76963 0.07500
H 	H 	0.95377 0.73683 0.80053 0.02000
C 	C 	0.09357 0.83739 0.75739 -0.08200
C 	C 	0.11312 0.81979 0.79424 -0.03600
H 	H 	0.09647 0.79073 0.80683 0.04300
H 	H 	0.10137 0.94313 0.76303 -0.10200
H 	H 	0.08327 0.96113 0.66513 0.30300
O 	O 	0.55443 0.03061 0.06991 -0.41000
O 	O 	0.56686 0.05532 0.96947 -0.41200
C 	C 	0.57840 0.05506 0.02549 0.36700
C 	C 	0.62524 0.08647 0.04241 -0.13200
C 	C 	0.65475 0.11334 0.99589 0.06700
H 	H 	0.64523 0.11247 0.95457 0.01800
C 	C 	0.69830 0.14124 0.01195 -0.15800
H 	H 	0.71773 0.15907 0.98097 0.09500
C 	C 	0.71326 0.14309 0.07236 0.12100
C 	C 	0.68345 0.11650 0.11903 -0.15800
H 	H 	0.69273 0.11777 0.16057 0.08800
C 	C 	0.63988 0.08817 0.10297 0.07300
H 	H 	0.62043 0.07017 0.13387 0.02100
C 	C 	0.76023 0.17073 0.09073 -0.08000
C 	C 	0.77978 0.15313 0.12758 -0.03800
H 	H 	0.76313 0.12407 0.14017 0.04400
H 	H 	0.76803 0.27647 0.09637 -0.10000
H 	H 	0.74993 0.29447 0.99847 0.29800
O 	O 	0.14284 0.77890 0.40324 -0.41000
O 	O 	0.15512 0.76647 0.30280 -0.41100
C 	C 	0.14332 0.75493 0.35882 0.36800
C 	C 	0.12789 0.70809 0.37574 -0.13600
C 	C 	0.12525 0.67858 0.32922 0.07400
H 	H 	0.13390 0.68810 0.28790 0.01600
C 	C 	0.10960 0.63503 0.34528 -0.16600
H 	H 	0.10800 0.61560 0.31430 0.09900
C 	C 	0.09649 0.62007 0.40569 0.12500
C 	C 	0.09971 0.64988 0.45236 -0.16200
H 	H 	0.09170 0.64060 0.49390 0.08900
C 	C 	0.11495 0.69345 0.43630 0.07700
H 	H 	0.11640 0.71290 0.46720 0.02000
C 	C 	0.07716 0.57310 0.42406 -0.08300
C 	C 	0.04001 0.55355 0.46091 -0.03600
H 	H 	0.02760 0.57020 0.47350 0.04300
H 	H 	0.17510 0.56530 0.42970 -0.10300
H 	H 	0.21120 0.58340 0.33180 0.30200
O 	O 	0.80951 0.11223 0.73657 -0.41000
O 	O 	0.82179 0.09980 0.63613 -0.41100
C 	C 	0.80999 0.08826 0.69215 0.36700
C 	C 	0.79456 0.04142 0.70907 -0.13500
C 	C 	0.79192 0.01191 0.66255 0.07300
H 	H 	0.80057 0.02143 0.62123 0.01700
C 	C 	0.77627 0.96836 0.67861 -0.16400
H 	H 	0.77467 0.94893 0.64763 0.09800
C 	C 	0.76316 0.95340 0.73902 0.12400
C 	C 	0.76638 0.98321 0.78569 -0.16000
H 	H 	0.75837 0.97393 0.82723 0.08900
C 	C 	0.78162 0.02678 0.76963 0.07500
H 	H 	0.78307 0.04623 0.80053 0.02000
C 	C 	0.74383 0.90643 0.75739 -0.08300
C 	C 	0.70668 0.88688 0.79424 -0.03600
H 	H 	0.69427 0.90353 0.80683 0.04300
H 	H 	0.84177 0.89863 0.76303 -0.10300
H 	H 	0.87787 0.91673 0.66513 0.30200
O 	O 	0.47617 0.44557 0.06991 -0.41000
O 	O 	0.48845 0.43314 0.96947 -0.41100
C 	C 	0.47665 0.42160 0.02549 0.36700
C 	C 	0.46122 0.37476 0.04241 -0.13500
C 	C 	0.45858 0.34525 0.99589 0.07200
H 	H 	0.46723 0.35477 0.95457 0.01700
C 	C 	0.44293 0.30170 0.01195 -0.16300
H 	H 	0.44133 0.28227 0.98097 0.09800
C 	C 	0.42982 0.28674 0.07236 0.12400
C 	C 	0.43304 0.31655 0.11903 -0.16100
H 	H 	0.42503 0.30727 0.16057 0.08900
C 	C 	0.44828 0.36012 0.10297 0.07600
H 	H 	0.44973 0.37957 0.13387 0.02000
C 	C 	0.41049 0.23977 0.09073 -0.08200
C 	C 	0.37334 0.22022 0.12758 -0.03700
H 	H 	0.36093 0.23687 0.14017 0.04400
H 	H 	0.50843 0.23197 0.09637 -0.10100
H 	H 	0.54453 0.25007 0.99847 0.30000
O 	O 	0.63606 0.85716 0.40324 -0.41000
O 	O 	0.61135 0.84488 0.30280 -0.41100
C 	C 	0.61161 0.85668 0.35882 0.36800
C 	C 	0.58020 0.87211 0.37574 -0.13600
C 	C 	0.55333 0.87475 0.32922 0.07400
H 	H 	0.55420 0.86610 0.28790 0.01600
C 	C 	0.52543 0.89040 0.34528 -0.16600
H 	H 	0.50760 0.89200 0.31430 0.09900
C 	C 	0.52358 0.90351 0.40569 0.12500
C 	C 	0.55017 0.90029 0.45236 -0.16200
H 	H 	0.54890 0.90830 0.49390 0.08900
C 	C 	0.57850 0.88505 0.43630 0.07700
H 	H 	0.59650 0.88360 0.46720 0.02000
C 	C 	0.49594 0.92284 0.42406 -0.08300
C 	C 	0.51354 0.95999 0.46091 -0.03600
H 	H 	0.54260 0.97240 0.47350 0.04300
H 	H 	0.39020 0.82490 0.42970 -0.10300
H 	H 	0.37220 0.78880 0.33180 0.30200
O 	O 	0.30273 0.19049 0.73657 -0.41000
O 	O 	0.27802 0.17821 0.63613 -0.41100
C 	C 	0.27828 0.19001 0.69215 0.36800
C 	C 	0.24687 0.20544 0.70907 -0.13600
C 	C 	0.22000 0.20808 0.66255 0.07400
H 	H 	0.22087 0.19943 0.62123 0.01600
C 	C 	0.19210 0.22373 0.67861 -0.16600
H 	H 	0.17427 0.22533 0.64763 0.09900
C 	C 	0.19025 0.23684 0.73902 0.12500
C 	C 	0.21684 0.23362 0.78569 -0.16200
H 	H 	0.21557 0.24163 0.82723 0.08900
C 	C 	0.24517 0.21838 0.76963 0.07700
H 	H 	0.26317 0.21693 0.80053 0.02000
C 	C 	0.16261 0.25617 0.75739 -0.08300
C 	C 	0.18021 0.29332 0.79424 -0.03600
H 	H 	0.20927 0.30573 0.80683 0.04300
H 	H 	0.05687 0.15823 0.76303 -0.10300
H 	H 	0.03887 0.12213 0.66513 0.30300
O 	O 	0.96939 0.52383 0.06991 -0.41000
O 	O 	0.94468 0.51155 0.96947 -0.41200
C 	C 	0.94494 0.52335 0.02549 0.36800
C 	C 	0.91353 0.53878 0.04241 -0.13300
C 	C 	0.88666 0.54142 0.99589 0.06900
H 	H 	0.88753 0.53277 0.95457 0.01800
C 	C 	0.85876 0.55707 0.01195 -0.16100
H 	H 	0.84093 0.55867 0.98097 0.09700
C 	C 	0.85691 0.57018 0.07236 0.12300
C 	C 	0.88350 0.56696 0.11903 -0.16000
H 	H 	0.88223 0.57497 0.16057 0.08800
C 	C 	0.91183 0.55172 0.10297 0.07400
H 	H 	0.92983 0.55027 0.13387 0.02100
C 	C 	0.82927 0.58951 0.09073 -0.08100
C 	C 	0.84687 0.62666 0.12758 -0.03700
H 	H 	0.87593 0.63907 0.14017 0.04400
H 	H 	0.72353 0.49157 0.09637 -0.10100
H 	H 	0.70553 0.45547 0.99847 0.30000
O 	O 	0.63606 0.77890 0.40324 -0.41000
O 	O 	0.61135 0.76647 0.30280 -0.41100
C 	C 	0.61161 0.75493 0.35882 0.36800
C 	C 	0.58020 0.70809 0.37574 -0.13600
C 	C 	0.55333 0.67858 0.32922 0.07400
H 	H 	0.55420 0.68810 0.28790 0.01600
C 	C 	0.52543 0.63503 0.34528 -0.16600
H 	H 	0.50760 0.61560 0.31430 0.09900
C 	C 	0.52358 0.62007 0.40569 0.12500
C 	C 	0.55017 0.64988 0.45236 -0.16200
H 	H 	0.54890 0.64060 0.49390 0.08900
C 	C 	0.57850 0.69345 0.43630 0.07700
H 	H 	0.59650 0.71290 0.46720 0.02000
C 	C 	0.49594 0.57310 0.42406 -0.08300
C 	C 	0.51354 0.55355 0.46091 -0.03600
H 	H 	0.54260 0.57020 0.47350 0.04300
H 	H 	0.39020 0.56530 0.42970 -0.10300
H 	H 	0.37220 0.58340 0.33180 0.30300
O 	O 	0.30273 0.11223 0.73657 -0.41000
O 	O 	0.27802 0.09980 0.63613 -0.41100
C 	C 	0.27828 0.08826 0.69215 0.36700
C 	C 	0.24687 0.04142 0.70907 -0.13500
C 	C 	0.22000 0.01191 0.66255 0.07200
H 	H 	0.22087 0.02143 0.62123 0.01700
C 	C 	0.19210 0.96836 0.67861 -0.16400
H 	H 	0.17427 0.94893 0.64763 0.09800
C 	C 	0.19025 0.95340 0.73902 0.12400
C 	C 	0.21684 0.98321 0.78569 -0.16000
H 	H 	0.21557 0.97393 0.82723 0.08900
C 	C 	0.24517 0.02678 0.76963 0.07500
H 	H 	0.26317 0.04623 0.80053 0.02000
C 	C 	0.16261 0.90643 0.75739 -0.08200
C 	C 	0.18021 0.88688 0.79424 -0.03600
H 	H 	0.20927 0.90353 0.80683 0.04300
H 	H 	0.05687 0.89863 0.76303 -0.10200
H 	H 	0.03887 0.91673 0.66513 0.30300
O 	O 	0.96939 0.44557 0.06991 -0.41000
O 	O 	0.94468 0.43314 0.96947 -0.41200
C 	C 	0.94494 0.42160 0.02549 0.36700
C 	C 	0.91353 0.37476 0.04241 -0.13200
C 	C 	0.88666 0.34525 0.99589 0.06700
H 	H 	0.88753 0.35477 0.95457 0.01800
C 	C 	0.85876 0.30170 0.01195 -0.15800
H 	H 	0.84093 0.28227 0.98097 0.09500
C 	C 	0.85691 0.28674 0.07236 0.12100
C 	C 	0.88350 0.31655 0.11903 -0.15800
H 	H 	0.88223 0.30727 0.16057 0.08800
C 	C 	0.91183 0.36012 0.10297 0.07300
H 	H 	0.92983 0.37957 0.13387 0.02100
C 	C 	0.82927 0.23977 0.09073 -0.08000
C 	C 	0.84687 0.22022 0.12758 -0.03800
H 	H 	0.87593 0.23687 0.14017 0.04400
H 	H 	0.72353 0.23197 0.09637 -0.10000
H 	H 	0.70553 0.25007 0.99847 0.29800
O 	O 	0.22110 0.85716 0.40324 -0.41000
O 	O 	0.23353 0.84488 0.30280 -0.41100
C 	C 	0.24507 0.85668 0.35882 0.36800
C 	C 	0.29191 0.87211 0.37574 -0.13600
C 	C 	0.32142 0.87475 0.32922 0.07400
H 	H 	0.31190 0.86610 0.28790 0.01600
C 	C 	0.36497 0.89040 0.34528 -0.16600
H 	H 	0.38440 0.89200 0.31430 0.09900
C 	C 	0.37993 0.90351 0.40569 0.12500
C 	C 	0.35012 0.90029 0.45236 -0.16200
H 	H 	0.35940 0.90830 0.49390 0.08900
C 	C 	0.30655 0.88505 0.43630 0.07700
H 	H 	0.28710 0.88360 0.46720 0.02000
C 	C 	0.42690 0.92284 0.42406 -0.08300
C 	C 	0.44645 0.95999 0.46091 -0.03600
H 	H 	0.42980 0.97240 0.47350 0.04300
H 	H 	0.43470 0.82490 0.42970 -0.10300
H 	H 	0.41660 0.78880 0.33180 0.30200
O 	O 	0.88777 0.19049 0.73657 -0.41000
O 	O 	0.90020 0.17821 0.63613 -0.41100
C 	C 	0.91174 0.19001 0.69215 0.36700
C 	C 	0.95858 0.20544 0.70907 -0.13500
C 	C 	0.98809 0.20808 0.66255 0.07300
H 	H 	0.97857 0.19943 0.62123 0.01700
C 	C 	0.03164 0.22373 0.67861 -0.16400
H 	H 	0.05107 0.22533 0.64763 0.09800
C 	C 	0.04660 0.23684 0.73902 0.12400
C 	C 	0.01679 0.23362 0.78569 -0.16000
H 	H 	0.02607 0.24163 0.82723 0.08900
C 	C 	0.97322 0.21838 0.76963 0.07500
H 	H 	0.95377 0.21693 0.80053 0.02000
C 	C 	0.09357 0.25617 0.75739 -0.08300
C 	C 	0.11312 0.29332 0.79424 -0.03600
H 	H 	0.09647 0.30573 0.80683 0.04300
H 	H 	0.10137 0.15823 0.76303 -0.10300
H 	H 	0.08327 0.12213 0.66513 0.30200
O 	O 	0.55443 0.52383 0.06991 -0.41000
O 	O 	0.56686 0.51155 0.96947 -0.41100
C 	C 	0.57840 0.52335 0.02549 0.36700
C 	C 	0.62524 0.53878 0.04241 -0.13500
C 	C 	0.65475 0.54142 0.99589 0.07200
H 	H 	0.64523 0.53277 0.95457 0.01700
C 	C 	0.69830 0.55707 0.01195 -0.16300
H 	H 	0.71773 0.55867 0.98097 0.09800
C 	C 	0.71326 0.57018 0.07236 0.12400
C 	C 	0.68345 0.56696 0.11903 -0.16100
H 	H 	0.69273 0.57497 0.16057 0.08900
C 	C 	0.63988 0.55172 0.10297 0.07600
H 	H 	0.62043 0.55027 0.13387 0.02000
C 	C 	0.76023 0.58951 0.09073 -0.08200
C 	C 	0.77978 0.62666 0.12758 -0.03700
H 	H 	0.76313 0.63907 0.14017 0.04400
H 	H 	0.76803 0.49157 0.09637 -0.10100
H 	H 	0.74993 0.45547 0.99847 0.30000
O 	O 	0.14284 0.36394 0.40324 -0.41000
O 	O 	0.15512 0.38865 0.30280 -0.41100
C 	C 	0.14332 0.38839 0.35882 0.36800
C 	C 	0.12789 0.41980 0.37574 -0.13600
C 	C 	0.12525 0.44667 0.32922 0.07400
H 	H 	0.13390 0.44580 0.28790 0.01600
C 	C 	0.10960 0.47457 0.34528 -0.16600
H 	H 	0.10800 0.49240 0.31430 0.09900
C 	C 	0.09649 0.47642 0.40569 0.12500
C 	C 	0.09971 0.44983 0.45236 -0.16200
H 	H 	0.09170 0.45110 0.49390 0.08900
C 	C 	0.11495 0.42150 0.43630 0.07700
H 	H 	0.11640 0.40350 0.46720 0.02000
C 	C 	0.07716 0.50406 0.42406 -0.08300
C 	C 	0.04001 0.48646 0.46091 -0.03600
H 	H 	0.02760 0.45740 0.47350 0.04300
H 	H 	0.17510 0.60980 0.42970 -0.10300
H 	H 	0.21120 0.62780 0.33180 0.30200
O 	O 	0.80951 0.69727 0.73657 -0.41000
O 	O 	0.82179 0.72198 0.63613 -0.41100
C 	C 	0.80999 0.72172 0.69215 0.36800
C 	C 	0.79456 0.75313 0.70907 -0.13600
C 	C 	0.79192 0.78000 0.66255 0.07400
H 	H 	0.80057 0.77913 0.62123 0.01600
C 	C 	0.77627 0.80790 0.67861 -0.16600
H 	H 	0.77467 0.82573 0.64763 0.09900
C 	C 	0.76316 0.80975 0.73902 0.12500
C 	C 	0.76638 0.78316 0.78569 -0.16200
H 	H 	0.75837 0.78443 0.82723 0.08900
C 	C 	0.78162 0.75483 0.76963 0.07700
H 	H 	0.78307 0.73683 0.80053 0.02000
C 	C 	0.74383 0.83739 0.75739 -0.08300
C 	C 	0.70668 0.81979 0.79424 -0.03600
H 	H 	0.69427 0.79073 0.80683 0.04300
H 	H 	0.84177 0.94313 0.76303 -0.10300
H 	H 	0.87787 0.96113 0.66513 0.30300
O 	O 	0.47617 0.03061 0.06991 -0.41000
O 	O 	0.48845 0.05532 0.96947 -0.41200
C 	C 	0.47665 0.05506 0.02549 0.36800
C 	C 	0.46122 0.08647 0.04241 -0.13300
C 	C 	0.45858 0.11334 0.99589 0.06900
H 	H 	0.46723 0.11247 0.95457 0.01800
C 	C 	0.44293 0.14124 0.01195 -0.16100
H 	H 	0.44133 0.15907 0.98097 0.09700
C 	C 	0.42982 0.14309 0.07236 0.12300
C 	C 	0.43304 0.11650 0.11903 -0.16000
H 	H 	0.42503 0.11777 0.16057 0.08800
C 	C 	0.44828 0.08817 0.10297 0.07400
H 	H 	0.44973 0.07017 0.13387 0.02100
C 	C 	0.41049 0.17073 0.09073 -0.08100
C 	C 	0.37334 0.15313 0.12758 -0.03700
H 	H 	0.36093 0.12407 0.14017 0.04400
H 	H 	0.50843 0.27647 0.09637 -0.10100
H 	H 	0.54453 0.29447 0.99847 0.30000
O 	O 	0.77890 0.63606 0.59676 -0.41000
O 	O 	0.76647 0.61135 0.69720 -0.41100
C 	C 	0.75493 0.61161 0.64118 0.36800
C 	C 	0.70809 0.58020 0.62426 -0.13600
C 	C 	0.67858 0.55333 0.67078 0.07400
H 	H 	0.68810 0.55420 0.71210 0.01600
C 	C 	0.63503 0.52543 0.65472 -0.16600
H 	H 	0.61560 0.50760 0.68570 0.09900
C 	C 	0.62007 0.52358 0.59431 0.12500
C 	C 	0.64988 0.55017 0.54764 -0.16200
H 	H 	0.64060 0.54890 0.50610 0.08900
C 	C 	0.69345 0.57850 0.56370 0.07700
H 	H 	0.71290 0.59650 0.53280 0.02000
C 	C 	0.57310 0.49594 0.57594 -0.08300
C 	C 	0.55355 0.51354 0.53909 -0.03600
H 	H 	0.57020 0.54260 0.52650 0.04300
H 	H 	0.56530 0.39020 0.57030 -0.10300
H 	H 	0.58340 0.37220 0.66820 0.30300
O 	O 	0.44557 0.96939 0.93009 -0.41000
O 	O 	0.43314 0.94468 0.03053 -0.41200
C 	C 	0.42160 0.94494 0.97451 0.36700
C 	C 	0.37476 0.91353 0.95759 -0.13200
C 	C 	0.34525 0.88666 0.00411 0.06700
H 	H 	0.35477 0.88753 0.04543 0.01800
C 	C 	0.30170 0.85876 0.98805 -0.15800
H 	H 	0.28227 0.84093 0.01903 0.09500
C 	C 	0.28674 0.85691 0.92764 0.12100
C 	C 	0.31655 0.88350 0.88097 -0.15800
H 	H 	0.30727 0.88223 0.83943 0.08800
C 	C 	0.36012 0.91183 0.89703 0.07300
H 	H 	0.37957 0.92983 0.86613 0.02100
C 	C 	0.23977 0.82927 0.90927 -0.08000
C 	C 	0.22022 0.84687 0.87242 -0.03800
H 	H 	0.23687 0.87593 0.85983 0.04400
H 	H 	0.23197 0.72353 0.90363 -0.10000
H 	H 	0.25007 0.70553 0.00153 0.29800
O 	O 	0.11223 0.30273 0.26343 -0.41000
O 	O 	0.09980 0.27802 0.36387 -0.41100
C 	C 	0.08826 0.27828 0.30785 0.36700
C 	C 	0.04142 0.24687 0.29093 -0.13500
C 	C 	0.01191 0.22000 0.33745 0.07200
H 	H 	0.02143 0.22087 0.37877 0.01700
C 	C 	0.96836 0.19210 0.32139 -0.16400
H 	H 	0.94893 0.17427 0.35237 0.09800
C 	C 	0.95340 0.19025 0.26098 0.12400
C 	C 	0.98321 0.21684 0.21431 -0.16000
H 	H 	0.97393 0.21557 0.17277 0.08900
C 	C 	0.02678 0.24517 0.23037 0.07500
H 	H 	0.04623 0.26317 0.19947 0.02000
C 	C 	0.90643 0.16261 0.24261 -0.08200
C 	C 	0.88688 0.18021 0.20576 -0.03600
H 	H 	0.90353 0.20927 0.19317 0.04300
H 	H 	0.89863 0.05687 0.23697 -0.10200
H 	H 	0.91673 0.03887 0.33487 0.30300
O 	O 	0.85716 0.22110 0.59676 -0.41000
O 	O 	0.84488 0.23353 0.69720 -0.41100
C 	C 	0.85668 0.24507 0.64118 0.36800
C 	C 	0.87211 0.29191 0.62426 -0.13600
C 	C 	0.87475 0.32142 0.67078 0.07400
H 	H 	0.86610 0.31190 0.71210 0.01600
C 	C 	0.89040 0.36497 0.65472 -0.16600
H 	H 	0.89200 0.38440 0.68570 0.09900
C 	C 	0.90351 0.37993 0.59431 0.12500
C 	C 	0.90029 0.35012 0.54764 -0.16200
H 	H 	0.90830 0.35940 0.50610 0.08900
C 	C 	0.88505 0.30655 0.56370 0.07700
H 	H 	0.88360 0.28710 0.53280 0.02000
C 	C 	0.92284 0.42690 0.57594 -0.08300
C 	C 	0.95999 0.44645 0.53909 -0.03600
H 	H 	0.97240 0.42980 0.52650 0.04300
H 	H 	0.82490 0.43470 0.57030 -0.10300
H 	H 	0.78880 0.41660 0.66820 0.30200
O 	O 	0.52383 0.55443 0.93009 -0.41000
O 	O 	0.51155 0.56686 0.03053 -0.41100
C 	C 	0.52335 0.57840 0.97451 0.36700
C 	C 	0.53878 0.62524 0.95759 -0.13500
C 	C 	0.54142 0.65475 0.00411 0.07200
H 	H 	0.53277 0.64523 0.04543 0.01700
C 	C 	0.55707 0.69830 0.98805 -0.16300
H 	H 	0.55867 0.71773 0.01903 0.09800
C 	C 	0.57018 0.71326 0.92764 0.12400
C 	C 	0.56696 0.68345 0.88097 -0.16100
H 	H 	0.57497 0.69273 0.83943 0.08900
C 	C 	0.55172 0.63988 0.89703 0.07600
H 	H 	0.55027 0.62043 0.86613 0.02000
C 	C 	0.58951 0.76023 0.90927 -0.08200
C 	C 	0.62666 0.77978 0.87242 -0.03700
H 	H 	0.63907 0.76313 0.85983 0.04400
H 	H 	0.49157 0.76803 0.90363 -0.10100
H 	H 	0.45547 0.74993 0.00153 0.30000
O 	O 	0.19049 0.88777 0.26343 -0.41000
O 	O 	0.17821 0.90020 0.36387 -0.41100
C 	C 	0.19001 0.91174 0.30785 0.36700
C 	C 	0.20544 0.95858 0.29093 -0.13500
C 	C 	0.20808 0.98809 0.33745 0.07300
H 	H 	0.19943 0.97857 0.37877 0.01700
C 	C 	0.22373 0.03164 0.32139 -0.16400
H 	H 	0.22533 0.05107 0.35237 0.09800
C 	C 	0.23684 0.04660 0.26098 0.12400
C 	C 	0.23362 0.01679 0.21431 -0.16000
H 	H 	0.24163 0.02607 0.17277 0.08900
C 	C 	0.21838 0.97322 0.23037 0.07500
H 	H 	0.21693 0.95377 0.19947 0.02000
C 	C 	0.25617 0.09357 0.24261 -0.08300
C 	C 	0.29332 0.11312 0.20576 -0.03600
H 	H 	0.30573 0.09647 0.19317 0.04300
H 	H 	0.15823 0.10137 0.23697 -0.10300
H 	H 	0.12213 0.08327 0.33487 0.30200
O 	O 	0.36394 0.14284 0.59676 -0.41000
O 	O 	0.38865 0.15512 0.69720 -0.41100
C 	C 	0.38839 0.14332 0.64118 0.36800
C 	C 	0.41980 0.12789 0.62426 -0.13600
C 	C 	0.44667 0.12525 0.67078 0.07400
H 	H 	0.44580 0.13390 0.71210 0.01600
C 	C 	0.47457 0.10960 0.65472 -0.16600
H 	H 	0.49240 0.10800 0.68570 0.09900
C 	C 	0.47642 0.09649 0.59431 0.12500
C 	C 	0.44983 0.09971 0.54764 -0.16200
H 	H 	0.45110 0.09170 0.50610 0.08900
C 	C 	0.42150 0.11495 0.56370 0.07700
H 	H 	0.40350 0.11640 0.53280 0.02000
C 	C 	0.50406 0.07716 0.57594 -0.08300
C 	C 	0.48646 0.04001 0.53909 -0.03600
H 	H 	0.45740 0.02760 0.52650 0.04300
H 	H 	0.60980 0.17510 0.57030 -0.10300
H 	H 	0.62780 0.21120 0.66820 0.30200
O 	O 	0.03061 0.47617 0.93009 -0.41000
O 	O 	0.05532 0.48845 0.03053 -0.41200
C 	C 	0.05506 0.47665 0.97451 0.36800
C 	C 	0.08647 0.46122 0.95759 -0.13300
C 	C 	0.11334 0.45858 0.00411 0.06900
H 	H 	0.11247 0.46723 0.04543 0.01800
C 	C 	0.14124 0.44293 0.98805 -0.16100
H 	H 	0.15907 0.44133 0.01903 0.09700
C 	C 	0.14309 0.42982 0.92764 0.12300
C 	C 	0.11650 0.43304 0.88097 -0.16000
H 	H 	0.11777 0.42503 0.83943 0.08800
C 	C 	0.08817 0.44828 0.89703 0.07400
H 	H 	0.07017 0.44973 0.86613 0.02100
C 	C 	0.17073 0.41049 0.90927 -0.08100
C 	C 	0.15313 0.37334 0.87242 -0.03700
H 	H 	0.12407 0.36093 0.85983 0.04400
H 	H 	0.27647 0.50843 0.90363 -0.10100
H 	H 	0.29447 0.54453 0.00153 0.30000
O 	O 	0.69727 0.80951 0.26343 -0.41000
O 	O 	0.72198 0.82179 0.36387 -0.41100
C 	C 	0.72172 0.80999 0.30785 0.36800
C 	C 	0.75313 0.79456 0.29093 -0.13600
C 	C 	0.78000 0.79192 0.33745 0.07400
H 	H 	0.77913 0.80057 0.37877 0.01600
C 	C 	0.80790 0.77627 0.32139 -0.16600
H 	H 	0.82573 0.77467 0.35237 0.09900
C 	C 	0.80975 0.76316 0.26098 0.12500
C 	C 	0.78316 0.76638 0.21431 -0.16200
H 	H 	0.78443 0.75837 0.17277 0.08900
C 	C 	0.75483 0.78162 0.23037 0.07700
H 	H 	0.73683 0.78307 0.19947 0.02000
C 	C 	0.83739 0.74383 0.24261 -0.08300
C 	C 	0.81979 0.70668 0.20576 -0.03600
H 	H 	0.79073 0.69427 0.19317 0.04300
H 	H 	0.94313 0.84177 0.23697 -0.10300
H 	H 	0.96113 0.87787 0.33487 0.30300
Cu	Cu	0.31914 0.15957 0.60770 0.90300
Cu	Cu	0.98581 0.49290 0.94103 0.90300
Cu	Cu	0.65247 0.82624 0.27437 0.90300
Cu	Cu	0.84043 0.15957 0.60770 0.90300
Cu	Cu	0.50710 0.49290 0.94103 0.90300
Cu	Cu	0.17376 0.82624 0.27437 0.90300
Cu	Cu	0.84043 0.68086 0.60770 0.90300
Cu	Cu	0.50710 0.01419 0.94103 0.90300
Cu	Cu	0.17376 0.34753 0.27437 0.90300
Cu	Cu	0.15957 0.31914 0.39230 0.90300
Cu	Cu	0.82624 0.65247 0.72563 0.90300
Cu	Cu	0.49290 0.98581 0.05897 0.90300
Cu	Cu	0.15957 0.84043 0.39230 0.90300
Cu	Cu	0.82624 0.17376 0.72563 0.90300
Cu	Cu	0.49290 0.50710 0.05897 0.90300
Cu	Cu	0.68086 0.84043 0.39230 0.90300
Cu	Cu	0.34753 0.17376 0.72563 0.90300
Cu	Cu	0.01419 0.50710 0.05897 0.90300
O 	O 	0.56634 0.43366 0.63314 -0.30200
C 	C 	0.51005 0.48995 0.51970 0.00200
C 	C 	0.54801 0.45199 0.59540 0.16400
C 	C 	0.58691 0.41309 0.59720 0.45000
C 	C 	0.60615 0.39385 0.64200 -0.92300
H 	H 	0.61950 0.38050 0.61810 0.29300
O 	O 	0.23301 0.76699 0.96647 -0.30000
C 	C 	0.17672 0.82328 0.85303 0.00400
C 	C 	0.21468 0.78532 0.92873 0.16200
C 	C 	0.25358 0.74642 0.93053 0.44300
C 	C 	0.27282 0.72718 0.97533 -0.91000
H 	H 	0.28617 0.71383 0.95143 0.28900
O 	O 	0.89967 0.10033 0.29981 -0.30200
C 	C 	0.84338 0.15662 0.18637 0.00200
C 	C 	0.88134 0.11866 0.26207 0.16400
C 	C 	0.92024 0.07976 0.26387 0.45000
C 	C 	0.93948 0.06052 0.30867 -0.92400
H 	H 	0.95283 0.04717 0.28477 0.29300
O 	O 	0.56634 0.13268 0.63314 -0.30200
C 	C 	0.51005 0.02010 0.51970 0.00200
C 	C 	0.54801 0.09602 0.59540 0.16400
C 	C 	0.58691 0.17382 0.59720 0.45000
C 	C 	0.60615 0.21230 0.64200 -0.92300
H 	H 	0.61950 0.23900 0.61810 0.29300
O 	O 	0.23301 0.46601 0.96647 -0.30100
C 	C 	0.17672 0.35343 0.85303 0.00300
C 	C 	0.21468 0.42935 0.92873 0.16300
C 	C 	0.25358 0.50715 0.93053 0.44600
C 	C 	0.27282 0.54563 0.97533 -0.91500
H 	H 	0.28617 0.57233 0.95143 0.29000
O 	O 	0.89967 0.79935 0.29981 -0.30200
C 	C 	0.84338 0.68677 0.18637 0.00200
C 	C 	0.88134 0.76269 0.26207 0.16400
C 	C 	0.92024 0.84049 0.26387 0.45000
C 	C 	0.93948 0.87897 0.30867 -0.92300
H 	H 	0.95283 0.90567 0.28477 0.29300
O 	O 	0.86732 0.43366 0.63314 -0.30200
C 	C 	0.97990 0.48995 0.51970 0.00200
C 	C 	0.90398 0.45199 0.59540 0.16400
C 	C 	0.82618 0.41309 0.59720 0.45000
C 	C 	0.78770 0.39385 0.64200 -0.92300
H 	H 	0.76100 0.38050 0.61810 0.29300
O 	O 	0.53399 0.76699 0.96647 -0.30100
C 	C 	0.64657 0.82328 0.85303 0.00300
C 	C 	0.57065 0.78532 0.92873 0.16300
C 	C 	0.49285 0.74642 0.93053 0.44600
C 	C 	0.45437 0.72718 0.97533 -0.91500
H 	H 	0.42767 0.71383 0.95143 0.29000
O 	O 	0.20065 0.10033 0.29981 -0.30200
C 	C 	0.31323 0.15662 0.18637 0.00200
C 	C 	0.23731 0.11866 0.26207 0.16400
C 	C 	0.15951 0.07976 0.26387 0.45000
C 	C 	0.12103 0.06052 0.30867 -0.92300
H 	H 	0.09433 0.04717 0.28477 0.29300
O 	O 	0.43366 0.56634 0.36686 -0.30200
C 	C 	0.48995 0.51005 0.48030 0.00200
C 	C 	0.45199 0.54801 0.40460 0.16400
C 	C 	0.41309 0.58691 0.40280 0.45000
C 	C 	0.39385 0.60615 0.35800 -0.92300
H 	H 	0.38050 0.61950 0.38190 0.29300
O 	O 	0.10033 0.89967 0.70019 -0.30200
C 	C 	0.15662 0.84338 0.81363 0.00200
C 	C 	0.11866 0.88134 0.73793 0.16400
C 	C 	0.07976 0.92024 0.73613 0.45000
C 	C 	0.06052 0.93948 0.69133 -0.92400
H 	H 	0.04717 0.95283 0.71523 0.29300
O 	O 	0.76699 0.23301 0.03353 -0.30000
C 	C 	0.82328 0.17672 0.14697 0.00400
C 	C 	0.78532 0.21468 0.07127 0.16200
C 	C 	0.74642 0.25358 0.06947 0.44300
C 	C 	0.72718 0.27282 0.02467 -0.91000
H 	H 	0.71383 0.28617 0.04857 0.28900
O 	O 	0.13268 0.56634 0.36686 -0.30200
C 	C 	0.02010 0.51005 0.48030 0.00200
C 	C 	0.09602 0.54801 0.40460 0.16400
C 	C 	0.17382 0.58691 0.40280 0.45000
C 	C 	0.21230 0.60615 0.35800 -0.92300
H 	H 	0.23900 0.61950 0.38190 0.29300
O 	O 	0.79935 0.89967 0.70019 -0.30200
C 	C 	0.68677 0.84338 0.81363 0.00200
C 	C 	0.76269 0.88134 0.73793 0.16400
C 	C 	0.84049 0.92024 0.73613 0.45000
C 	C 	0.87897 0.93948 0.69133 -0.92300
H 	H 	0.90567 0.95283 0.71523 0.29300
O 	O 	0.46601 0.23301 0.03353 -0.30100
C 	C 	0.35343 0.17672 0.14697 0.00300
C 	C 	0.42935 0.21468 0.07127 0.16300
C 	C 	0.50715 0.25358 0.06947 0.44600
C 	C 	0.54563 0.27282 0.02467 -0.91500
H 	H 	0.57233 0.28617 0.04857 0.29000
O 	O 	0.43366 0.86732 0.36686 -0.30200
C 	C 	0.48995 0.97990 0.48030 0.00200
C 	C 	0.45199 0.90398 0.40460 0.16400
C 	C 	0.41309 0.82618 0.40280 0.45000
C 	C 	0.39385 0.78770 0.35800 -0.92300
H 	H 	0.38050 0.76100 0.38190 0.29300
O 	O 	0.10033 0.20065 0.70019 -0.30200
C 	C 	0.15662 0.31323 0.81363 0.00200
C 	C 	0.11866 0.23731 0.73793 0.16400
C 	C 	0.07976 0.15951 0.73613 0.45000
C 	C 	0.06052 0.12103 0.69133 -0.92300
H 	H 	0.04717 0.09433 0.71523 0.29300
O 	O 	0.76699 0.53399 0.03353 -0.30100
C 	C 	0.82328 0.64657 0.14697 0.00300
C 	C 	0.78532 0.57065 0.07127 0.16300
C 	C 	0.74642 0.49285 0.06947 0.44600
C 	C 	0.72718 0.45437 0.02467 -0.91500
H 	H 	0.71383 0.42767 0.04857 0.29000
