data_crystal

_cell_length_a 34.94430
_cell_length_b 34.94430
_cell_length_c 23.43600
_cell_angle_alpha 90.00000
_cell_angle_beta  90.00000
_cell_angle_gamma 120.00000

_symmetry_space_group_name_	'P 1'
_symmetry_space_group_name_H-M	'P 1'

loop_
_symmetry_equiv_pos_as_xyz
  x,y,z

loop_
_atom_site_label
_atom_site_type_symbol
_atom_site_fract_x
_atom_site_fract_y
_atom_site_fract_z
_atom_site_charge
O 	O 	0.36102 0.21979 0.59987 -0.40900
O 	O 	0.38965 0.23421 0.68855 -0.41900
C 	C 	0.38721 0.24480 0.63856 0.36600
C 	C 	0.41846 0.29178 0.61997 -0.13100
C 	C 	0.44675 0.32259 0.66104 0.06500
H 	H 	0.44610 0.31400 0.69870 0.01500
C 	C 	0.47530 0.36555 0.64453 -0.16200
H 	H 	0.49480 0.38560 0.67110 0.09500
C 	C 	0.47540 0.37955 0.58871 0.12300
C 	C 	0.44733 0.34894 0.54863 -0.16100
H 	H 	0.44790 0.35760 0.51100 0.08800
C 	C 	0.41838 0.30526 0.56470 0.07000
H 	H 	0.39900 0.28520 0.53810 0.02000
C 	C 	0.50385 0.42645 0.57032 -0.08700
C 	C 	0.48593 0.44621 0.53565 -0.03700
H 	H 	0.45670 0.42930 0.52390 0.04200
H 	H 	0.56520 0.38970 0.56180 -0.23400
H 	H 	0.62800 0.41690 0.64680 0.47500
O 	O 	0.02769 0.55312 0.93320 -0.40900
O 	O 	0.05632 0.56754 0.02188 -0.41900
C 	C 	0.05388 0.57813 0.97189 0.36700
C 	C 	0.08513 0.62511 0.95330 -0.13200
C 	C 	0.11342 0.65592 0.99437 0.06600
H 	H 	0.11277 0.64733 0.03203 0.01400
C 	C 	0.14197 0.69888 0.97786 -0.16200
H 	H 	0.16147 0.71893 0.00443 0.09500
C 	C 	0.14207 0.71288 0.92204 0.12300
C 	C 	0.11400 0.68227 0.88196 -0.16100
H 	H 	0.11457 0.69093 0.84433 0.08800
C 	C 	0.08505 0.63859 0.89803 0.07100
H 	H 	0.06567 0.61853 0.87143 0.02000
C 	C 	0.17052 0.75978 0.90365 -0.08700
C 	C 	0.15260 0.77954 0.86898 -0.03700
H 	H 	0.12337 0.76263 0.85723 0.04200
H 	H 	0.23187 0.72303 0.89513 -0.23400
H 	H 	0.29467 0.75023 0.98013 0.47500
O 	O 	0.69435 0.88646 0.26654 -0.40900
O 	O 	0.72298 0.90088 0.35522 -0.41900
C 	C 	0.72054 0.91147 0.30523 0.36600
C 	C 	0.75179 0.95845 0.28664 -0.13100
C 	C 	0.78008 0.98926 0.32771 0.06500
H 	H 	0.77943 0.98067 0.36537 0.01500
C 	C 	0.80863 0.03222 0.31120 -0.16200
H 	H 	0.82813 0.05227 0.33777 0.09500
C 	C 	0.80873 0.04622 0.25538 0.12300
C 	C 	0.78066 0.01561 0.21530 -0.16000
H 	H 	0.78123 0.02427 0.17767 0.08800
C 	C 	0.75171 0.97193 0.23137 0.07000
H 	H 	0.73233 0.95187 0.20477 0.02000
C 	C 	0.83718 0.09312 0.23699 -0.08700
C 	C 	0.81926 0.11288 0.20232 -0.03700
H 	H 	0.79003 0.09597 0.19057 0.04200
H 	H 	0.89853 0.05637 0.22847 -0.23300
H 	H 	0.96133 0.08357 0.31347 0.47600
O 	O 	0.78021 0.14123 0.59987 -0.40800
O 	O 	0.76579 0.15544 0.68855 -0.41800
C 	C 	0.75520 0.14241 0.63856 0.36700
C 	C 	0.70822 0.12668 0.61997 -0.13000
C 	C 	0.67741 0.12416 0.66104 0.06600
H 	H 	0.68600 0.13210 0.69870 0.01600
C 	C 	0.63445 0.10975 0.64453 -0.16100
H 	H 	0.61440 0.10920 0.67110 0.09600
C 	C 	0.62045 0.09585 0.58871 0.12400
C 	C 	0.65106 0.09839 0.54863 -0.16000
H 	H 	0.64240 0.09030 0.51100 0.08900
C 	C 	0.69474 0.11312 0.56470 0.07100
H 	H 	0.71480 0.11380 0.53810 0.02100
C 	C 	0.57355 0.07740 0.57032 -0.08600
C 	C 	0.55379 0.03972 0.53565 -0.03600
H 	H 	0.57070 0.02740 0.52390 0.04300
H 	H 	0.61030 0.17550 0.56180 -0.23300
H 	H 	0.58310 0.21110 0.64680 0.47600
O 	O 	0.44688 0.47456 0.93320 -0.40800
O 	O 	0.43246 0.48877 0.02188 -0.41800
C 	C 	0.42187 0.47574 0.97189 0.36700
C 	C 	0.37489 0.46001 0.95330 -0.13000
C 	C 	0.34408 0.45749 0.99437 0.06700
H 	H 	0.35267 0.46543 0.03203 0.01600
C 	C 	0.30112 0.44308 0.97786 -0.16100
H 	H 	0.28107 0.44253 0.00443 0.09600
C 	C 	0.28712 0.42918 0.92204 0.12400
C 	C 	0.31773 0.43172 0.88196 -0.16000
H 	H 	0.30907 0.42363 0.84433 0.08900
C 	C 	0.36141 0.44645 0.89803 0.07100
H 	H 	0.38147 0.44713 0.87143 0.02100
C 	C 	0.24022 0.41073 0.90365 -0.08600
C 	C 	0.22046 0.37305 0.86898 -0.03600
H 	H 	0.23737 0.36073 0.85723 0.04300
H 	H 	0.27697 0.50883 0.89513 -0.23300
H 	H 	0.24977 0.54443 0.98013 0.47600
O 	O 	0.11354 0.80790 0.26654 -0.40800
O 	O 	0.09912 0.82211 0.35522 -0.41800
C 	C 	0.08853 0.80908 0.30523 0.36700
C 	C 	0.04155 0.79335 0.28664 -0.13000
C 	C 	0.01074 0.79083 0.32771 0.06600
H 	H 	0.01933 0.79877 0.36537 0.01600
C 	C 	0.96778 0.77642 0.31120 -0.16100
H 	H 	0.94773 0.77587 0.33777 0.09600
C 	C 	0.95378 0.76252 0.25538 0.12400
C 	C 	0.98439 0.76506 0.21530 -0.16000
H 	H 	0.97573 0.75697 0.17767 0.08900
C 	C 	0.02807 0.77979 0.23137 0.07100
H 	H 	0.04813 0.78047 0.20477 0.02100
C 	C 	0.90688 0.74407 0.23699 -0.08600
C 	C 	0.88712 0.70639 0.20232 -0.03600
H 	H 	0.90403 0.69407 0.19057 0.04300
H 	H 	0.94363 0.84217 0.22847 -0.23300
H 	H 	0.91643 0.87777 0.31347 0.47600
O 	O 	0.85877 0.63898 0.59987 -0.40800
O 	O 	0.84456 0.61035 0.68855 -0.41800
C 	C 	0.85759 0.61279 0.63856 0.36700
C 	C 	0.87332 0.58154 0.61997 -0.13000
C 	C 	0.87584 0.55325 0.66104 0.06600
H 	H 	0.86790 0.55390 0.69870 0.01600
C 	C 	0.89025 0.52470 0.64453 -0.16100
H 	H 	0.89080 0.50520 0.67110 0.09600
C 	C 	0.90415 0.52460 0.58871 0.12400
C 	C 	0.90161 0.55267 0.54863 -0.16000
H 	H 	0.90970 0.55210 0.51100 0.08900
C 	C 	0.88688 0.58162 0.56470 0.07100
H 	H 	0.88620 0.60100 0.53810 0.02100
C 	C 	0.92260 0.49615 0.57032 -0.08600
C 	C 	0.96028 0.51407 0.53565 -0.03600
H 	H 	0.97260 0.54330 0.52390 0.04300
H 	H 	0.82450 0.43480 0.56180 -0.23300
H 	H 	0.78890 0.37200 0.64680 0.47600
O 	O 	0.52544 0.97231 0.93320 -0.40800
O 	O 	0.51123 0.94368 0.02188 -0.41800
C 	C 	0.52426 0.94612 0.97189 0.36700
C 	C 	0.53999 0.91487 0.95330 -0.13100
C 	C 	0.54251 0.88658 0.99437 0.06700
H 	H 	0.53457 0.88723 0.03203 0.01500
C 	C 	0.55692 0.85803 0.97786 -0.16100
H 	H 	0.55747 0.83853 0.00443 0.09600
C 	C 	0.57082 0.85793 0.92204 0.12400
C 	C 	0.56828 0.88600 0.88196 -0.16000
H 	H 	0.57637 0.88543 0.84433 0.08900
C 	C 	0.55355 0.91495 0.89803 0.07200
H 	H 	0.55287 0.93433 0.87143 0.02100
C 	C 	0.58927 0.82948 0.90365 -0.08600
C 	C 	0.62695 0.84740 0.86898 -0.03600
H 	H 	0.63927 0.87663 0.85723 0.04300
H 	H 	0.49117 0.76813 0.89513 -0.23300
H 	H 	0.45557 0.70533 0.98013 0.47600
O 	O 	0.19210 0.30565 0.26654 -0.40800
O 	O 	0.17789 0.27702 0.35522 -0.41800
C 	C 	0.19092 0.27946 0.30523 0.36700
C 	C 	0.20665 0.24821 0.28664 -0.13000
C 	C 	0.20917 0.21992 0.32771 0.06600
H 	H 	0.20123 0.22057 0.36537 0.01600
C 	C 	0.22358 0.19137 0.31120 -0.16100
H 	H 	0.22413 0.17187 0.33777 0.09600
C 	C 	0.23748 0.19127 0.25538 0.12400
C 	C 	0.23494 0.21934 0.21530 -0.16000
H 	H 	0.24303 0.21877 0.17767 0.08900
C 	C 	0.22021 0.24829 0.23137 0.07100
H 	H 	0.21953 0.26767 0.20477 0.02100
C 	C 	0.25593 0.16282 0.23699 -0.08600
C 	C 	0.29361 0.18074 0.20232 -0.03600
H 	H 	0.30593 0.20997 0.19057 0.04300
H 	H 	0.15783 0.10147 0.22847 -0.23300
H 	H 	0.12223 0.03867 0.31347 0.47600
O 	O 	0.21979 0.36102 0.40013 -0.40800
O 	O 	0.23421 0.38965 0.31145 -0.41800
C 	C 	0.24480 0.38721 0.36144 0.36700
C 	C 	0.29178 0.41846 0.38003 -0.13000
C 	C 	0.32259 0.44675 0.33896 0.06600
H 	H 	0.31400 0.44610 0.30130 0.01600
C 	C 	0.36555 0.47530 0.35547 -0.16100
H 	H 	0.38560 0.49480 0.32890 0.09600
C 	C 	0.37955 0.47540 0.41129 0.12400
C 	C 	0.34894 0.44733 0.45137 -0.16000
H 	H 	0.35760 0.44790 0.48900 0.08900
C 	C 	0.30526 0.41838 0.43530 0.07100
H 	H 	0.28520 0.39900 0.46190 0.02100
C 	C 	0.42645 0.50385 0.42968 -0.08600
C 	C 	0.44621 0.48593 0.46435 -0.03600
H 	H 	0.42930 0.45670 0.47610 0.04300
H 	H 	0.38970 0.56520 0.43820 -0.23300
H 	H 	0.41690 0.62800 0.35320 0.47600
O 	O 	0.88646 0.69435 0.73346 -0.40800
O 	O 	0.90088 0.72298 0.64478 -0.41800
C 	C 	0.91147 0.72054 0.69477 0.36700
C 	C 	0.95845 0.75179 0.71336 -0.13000
C 	C 	0.98926 0.78008 0.67229 0.06600
H 	H 	0.98067 0.77943 0.63463 0.01600
C 	C 	0.03222 0.80863 0.68880 -0.16100
H 	H 	0.05227 0.82813 0.66223 0.09600
C 	C 	0.04622 0.80873 0.74462 0.12400
C 	C 	0.01561 0.78066 0.78470 -0.15900
H 	H 	0.02427 0.78123 0.82233 0.08900
C 	C 	0.97193 0.75171 0.76863 0.07100
H 	H 	0.95187 0.73233 0.79523 0.02100
C 	C 	0.09312 0.83718 0.76301 -0.08600
C 	C 	0.11288 0.81926 0.79768 -0.03600
H 	H 	0.09597 0.79003 0.80943 0.04300
H 	H 	0.05637 0.89853 0.77153 -0.23300
H 	H 	0.08357 0.96133 0.68653 0.47600
O 	O 	0.55312 0.02769 0.06680 -0.40800
O 	O 	0.56754 0.05632 0.97812 -0.41800
C 	C 	0.57813 0.05388 0.02811 0.36800
C 	C 	0.62511 0.08513 0.04670 -0.13100
C 	C 	0.65592 0.11342 0.00563 0.06700
H 	H 	0.64733 0.11277 0.96797 0.01500
C 	C 	0.69888 0.14197 0.02214 -0.16100
H 	H 	0.71893 0.16147 0.99557 0.09600
C 	C 	0.71288 0.14207 0.07796 0.12400
C 	C 	0.68227 0.11400 0.11804 -0.16000
H 	H 	0.69093 0.11457 0.15567 0.08900
C 	C 	0.63859 0.08505 0.10197 0.07200
H 	H 	0.61853 0.06567 0.12857 0.02100
C 	C 	0.75978 0.17052 0.09635 -0.08600
C 	C 	0.77954 0.15260 0.13102 -0.03600
H 	H 	0.76263 0.12337 0.14277 0.04300
H 	H 	0.72303 0.23187 0.10487 -0.23300
H 	H 	0.75023 0.29467 0.01987 0.47600
O 	O 	0.14123 0.78021 0.40013 -0.40800
O 	O 	0.15544 0.76579 0.31145 -0.41800
C 	C 	0.14241 0.75520 0.36144 0.36700
C 	C 	0.12668 0.70822 0.38003 -0.13000
C 	C 	0.12416 0.67741 0.33896 0.06600
H 	H 	0.13210 0.68600 0.30130 0.01600
C 	C 	0.10975 0.63445 0.35547 -0.16100
H 	H 	0.10920 0.61440 0.32890 0.09600
C 	C 	0.09585 0.62045 0.41129 0.12400
C 	C 	0.09839 0.65106 0.45137 -0.16000
H 	H 	0.09030 0.64240 0.48900 0.08900
C 	C 	0.11312 0.69474 0.43530 0.07100
H 	H 	0.11380 0.71480 0.46190 0.02100
C 	C 	0.07740 0.57355 0.42968 -0.08600
C 	C 	0.03972 0.55379 0.46435 -0.03600
H 	H 	0.02740 0.57070 0.47610 0.04300
H 	H 	0.17550 0.61030 0.43820 -0.23300
H 	H 	0.21110 0.58310 0.35320 0.47600
O 	O 	0.80790 0.11354 0.73346 -0.40800
O 	O 	0.82211 0.09912 0.64478 -0.41800
C 	C 	0.80908 0.08853 0.69477 0.36700
C 	C 	0.79335 0.04155 0.71336 -0.13000
C 	C 	0.79083 0.01074 0.67229 0.06600
H 	H 	0.79877 0.01933 0.63463 0.01600
C 	C 	0.77642 0.96778 0.68880 -0.16100
H 	H 	0.77587 0.94773 0.66223 0.09600
C 	C 	0.76252 0.95378 0.74462 0.12400
C 	C 	0.76506 0.98439 0.78470 -0.16000
H 	H 	0.75697 0.97573 0.82233 0.08900
C 	C 	0.77979 0.02807 0.76863 0.07100
H 	H 	0.78047 0.04813 0.79523 0.02100
C 	C 	0.74407 0.90688 0.76301 -0.08600
C 	C 	0.70639 0.88712 0.79768 -0.03600
H 	H 	0.69407 0.90403 0.80943 0.04300
H 	H 	0.84217 0.94363 0.77153 -0.23300
H 	H 	0.87777 0.91643 0.68653 0.47600
O 	O 	0.47456 0.44688 0.06680 -0.40800
O 	O 	0.48877 0.43246 0.97812 -0.41800
C 	C 	0.47574 0.42187 0.02811 0.36700
C 	C 	0.46001 0.37489 0.04670 -0.13000
C 	C 	0.45749 0.34408 0.00563 0.06700
H 	H 	0.46543 0.35267 0.96797 0.01600
C 	C 	0.44308 0.30112 0.02214 -0.16100
H 	H 	0.44253 0.28107 0.99557 0.09600
C 	C 	0.42918 0.28712 0.07796 0.12400
C 	C 	0.43172 0.31773 0.11804 -0.16000
H 	H 	0.42363 0.30907 0.15567 0.08900
C 	C 	0.44645 0.36141 0.10197 0.07100
H 	H 	0.44713 0.38147 0.12857 0.02100
C 	C 	0.41073 0.24022 0.09635 -0.08600
C 	C 	0.37305 0.22046 0.13102 -0.03600
H 	H 	0.36073 0.23737 0.14277 0.04300
H 	H 	0.50883 0.27697 0.10487 -0.23300
H 	H 	0.54443 0.24977 0.01987 0.47600
O 	O 	0.63898 0.85877 0.40013 -0.40800
O 	O 	0.61035 0.84456 0.31145 -0.41800
C 	C 	0.61279 0.85759 0.36144 0.36700
C 	C 	0.58154 0.87332 0.38003 -0.13000
C 	C 	0.55325 0.87584 0.33896 0.06600
H 	H 	0.55390 0.86790 0.30130 0.01600
C 	C 	0.52470 0.89025 0.35547 -0.16100
H 	H 	0.50520 0.89080 0.32890 0.09600
C 	C 	0.52460 0.90415 0.41129 0.12400
C 	C 	0.55267 0.90161 0.45137 -0.16000
H 	H 	0.55210 0.90970 0.48900 0.08900
C 	C 	0.58162 0.88688 0.43530 0.07100
H 	H 	0.60100 0.88620 0.46190 0.02100
C 	C 	0.49615 0.92260 0.42968 -0.08600
C 	C 	0.51407 0.96028 0.46435 -0.03600
H 	H 	0.54330 0.97260 0.47610 0.04300
H 	H 	0.43480 0.82450 0.43820 -0.23300
H 	H 	0.37200 0.78890 0.35320 0.47600
O 	O 	0.30565 0.19210 0.73346 -0.40800
O 	O 	0.27702 0.17789 0.64478 -0.41800
C 	C 	0.27946 0.19092 0.69477 0.36700
C 	C 	0.24821 0.20665 0.71336 -0.13000
C 	C 	0.21992 0.20917 0.67229 0.06600
H 	H 	0.22057 0.20123 0.63463 0.01600
C 	C 	0.19137 0.22358 0.68880 -0.16100
H 	H 	0.17187 0.22413 0.66223 0.09600
C 	C 	0.19127 0.23748 0.74462 0.12400
C 	C 	0.21934 0.23494 0.78470 -0.16000
H 	H 	0.21877 0.24303 0.82233 0.08900
C 	C 	0.24829 0.22021 0.76863 0.07100
H 	H 	0.26767 0.21953 0.79523 0.02100
C 	C 	0.16282 0.25593 0.76301 -0.08600
C 	C 	0.18074 0.29361 0.79768 -0.03600
H 	H 	0.20997 0.30593 0.80943 0.04300
H 	H 	0.10147 0.15783 0.77153 -0.23300
H 	H 	0.03867 0.12223 0.68653 0.47600
O 	O 	0.97231 0.52544 0.06680 -0.40800
O 	O 	0.94368 0.51123 0.97812 -0.41800
C 	C 	0.94612 0.52426 0.02811 0.36700
C 	C 	0.91487 0.53999 0.04670 -0.13100
C 	C 	0.88658 0.54251 0.00563 0.06700
H 	H 	0.88723 0.53457 0.96797 0.01500
C 	C 	0.85803 0.55692 0.02214 -0.16100
H 	H 	0.83853 0.55747 0.99557 0.09600
C 	C 	0.85793 0.57082 0.07796 0.12400
C 	C 	0.88600 0.56828 0.11804 -0.16000
H 	H 	0.88543 0.57637 0.15567 0.08900
C 	C 	0.91495 0.55355 0.10197 0.07200
H 	H 	0.93433 0.55287 0.12857 0.02100
C 	C 	0.82948 0.58927 0.09635 -0.08600
C 	C 	0.84740 0.62695 0.13102 -0.03600
H 	H 	0.87663 0.63927 0.14277 0.04300
H 	H 	0.76813 0.49117 0.10487 -0.23300
H 	H 	0.70533 0.45557 0.01987 0.47600
O 	O 	0.63898 0.78021 0.40013 -0.40800
O 	O 	0.61035 0.76579 0.31145 -0.41800
C 	C 	0.61279 0.75520 0.36144 0.36700
C 	C 	0.58154 0.70822 0.38003 -0.13000
C 	C 	0.55325 0.67741 0.33896 0.06600
H 	H 	0.55390 0.68600 0.30130 0.01600
C 	C 	0.52470 0.63445 0.35547 -0.16100
H 	H 	0.50520 0.61440 0.32890 0.09600
C 	C 	0.52460 0.62045 0.41129 0.12400
C 	C 	0.55267 0.65106 0.45137 -0.16000
H 	H 	0.55210 0.64240 0.48900 0.08900
C 	C 	0.58162 0.69474 0.43530 0.07100
H 	H 	0.60100 0.71480 0.46190 0.02100
C 	C 	0.49615 0.57355 0.42968 -0.08600
C 	C 	0.51407 0.55379 0.46435 -0.03600
H 	H 	0.54330 0.57070 0.47610 0.04300
H 	H 	0.43480 0.61030 0.43820 -0.23300
H 	H 	0.37200 0.58310 0.35320 0.47600
O 	O 	0.30565 0.11354 0.73346 -0.40800
O 	O 	0.27702 0.09912 0.64478 -0.41800
C 	C 	0.27946 0.08853 0.69477 0.36700
C 	C 	0.24821 0.04155 0.71336 -0.13000
C 	C 	0.21992 0.01074 0.67229 0.06600
H 	H 	0.22057 0.01933 0.63463 0.01600
C 	C 	0.19137 0.96778 0.68880 -0.16100
H 	H 	0.17187 0.94773 0.66223 0.09600
C 	C 	0.19127 0.95378 0.74462 0.12400
C 	C 	0.21934 0.98439 0.78470 -0.15900
H 	H 	0.21877 0.97573 0.82233 0.08900
C 	C 	0.24829 0.02807 0.76863 0.07100
H 	H 	0.26767 0.04813 0.79523 0.02100
C 	C 	0.16282 0.90688 0.76301 -0.08600
C 	C 	0.18074 0.88712 0.79768 -0.03600
H 	H 	0.20997 0.90403 0.80943 0.04300
H 	H 	0.10147 0.94363 0.77153 -0.23300
H 	H 	0.03867 0.91643 0.68653 0.47600
O 	O 	0.97231 0.44688 0.06680 -0.40800
O 	O 	0.94368 0.43246 0.97812 -0.41800
C 	C 	0.94612 0.42187 0.02811 0.36800
C 	C 	0.91487 0.37489 0.04670 -0.13100
C 	C 	0.88658 0.34408 0.00563 0.06700
H 	H 	0.88723 0.35267 0.96797 0.01500
C 	C 	0.85803 0.30112 0.02214 -0.16100
H 	H 	0.83853 0.28107 0.99557 0.09600
C 	C 	0.85793 0.28712 0.07796 0.12400
C 	C 	0.88600 0.31773 0.11804 -0.16000
H 	H 	0.88543 0.30907 0.15567 0.08900
C 	C 	0.91495 0.36141 0.10197 0.07200
H 	H 	0.93433 0.38147 0.12857 0.02100
C 	C 	0.82948 0.24022 0.09635 -0.08600
C 	C 	0.84740 0.22046 0.13102 -0.03600
H 	H 	0.87663 0.23737 0.14277 0.04300
H 	H 	0.76813 0.27697 0.10487 -0.23300
H 	H 	0.70533 0.24977 0.01987 0.47600
O 	O 	0.21979 0.85877 0.40013 -0.40800
O 	O 	0.23421 0.84456 0.31145 -0.41800
C 	C 	0.24480 0.85759 0.36144 0.36700
C 	C 	0.29178 0.87332 0.38003 -0.13000
C 	C 	0.32259 0.87584 0.33896 0.06600
H 	H 	0.31400 0.86790 0.30130 0.01600
C 	C 	0.36555 0.89025 0.35547 -0.16100
H 	H 	0.38560 0.89080 0.32890 0.09600
C 	C 	0.37955 0.90415 0.41129 0.12400
C 	C 	0.34894 0.90161 0.45137 -0.16000
H 	H 	0.35760 0.90970 0.48900 0.08900
C 	C 	0.30526 0.88688 0.43530 0.07100
H 	H 	0.28520 0.88620 0.46190 0.02100
C 	C 	0.42645 0.92260 0.42968 -0.08600
C 	C 	0.44621 0.96028 0.46435 -0.03600
H 	H 	0.42930 0.97260 0.47610 0.04300
H 	H 	0.38970 0.82450 0.43820 -0.23300
H 	H 	0.41690 0.78890 0.35320 0.47600
O 	O 	0.88646 0.19210 0.73346 -0.40800
O 	O 	0.90088 0.17789 0.64478 -0.41800
C 	C 	0.91147 0.19092 0.69477 0.36700
C 	C 	0.95845 0.20665 0.71336 -0.13000
C 	C 	0.98926 0.20917 0.67229 0.06600
H 	H 	0.98067 0.20123 0.63463 0.01600
C 	C 	0.03222 0.22358 0.68880 -0.16100
H 	H 	0.05227 0.22413 0.66223 0.09600
C 	C 	0.04622 0.23748 0.74462 0.12400
C 	C 	0.01561 0.23494 0.78470 -0.16000
H 	H 	0.02427 0.24303 0.82233 0.08900
C 	C 	0.97193 0.22021 0.76863 0.07100
H 	H 	0.95187 0.21953 0.79523 0.02100
C 	C 	0.09312 0.25593 0.76301 -0.08600
C 	C 	0.11288 0.29361 0.79768 -0.03600
H 	H 	0.09597 0.30593 0.80943 0.04300
H 	H 	0.05637 0.15783 0.77153 -0.23300
H 	H 	0.08357 0.12223 0.68653 0.47600
O 	O 	0.55312 0.52544 0.06680 -0.40800
O 	O 	0.56754 0.51123 0.97812 -0.41800
C 	C 	0.57813 0.52426 0.02811 0.36700
C 	C 	0.62511 0.53999 0.04670 -0.13000
C 	C 	0.65592 0.54251 0.00563 0.06700
H 	H 	0.64733 0.53457 0.96797 0.01600
C 	C 	0.69888 0.55692 0.02214 -0.16100
H 	H 	0.71893 0.55747 0.99557 0.09600
C 	C 	0.71288 0.57082 0.07796 0.12400
C 	C 	0.68227 0.56828 0.11804 -0.16000
H 	H 	0.69093 0.57637 0.15567 0.08900
C 	C 	0.63859 0.55355 0.10197 0.07100
H 	H 	0.61853 0.55287 0.12857 0.02100
C 	C 	0.75978 0.58927 0.09635 -0.08600
C 	C 	0.77954 0.62695 0.13102 -0.03600
H 	H 	0.76263 0.63927 0.14277 0.04300
H 	H 	0.72303 0.49117 0.10487 -0.23300
H 	H 	0.75023 0.45557 0.01987 0.47600
O 	O 	0.14123 0.36102 0.40013 -0.40800
O 	O 	0.15544 0.38965 0.31145 -0.41800
C 	C 	0.14241 0.38721 0.36144 0.36700
C 	C 	0.12668 0.41846 0.38003 -0.13000
C 	C 	0.12416 0.44675 0.33896 0.06600
H 	H 	0.13210 0.44610 0.30130 0.01600
C 	C 	0.10975 0.47530 0.35547 -0.16100
H 	H 	0.10920 0.49480 0.32890 0.09600
C 	C 	0.09585 0.47540 0.41129 0.12400
C 	C 	0.09839 0.44733 0.45137 -0.16000
H 	H 	0.09030 0.44790 0.48900 0.08900
C 	C 	0.11312 0.41838 0.43530 0.07100
H 	H 	0.11380 0.39900 0.46190 0.02100
C 	C 	0.07740 0.50385 0.42968 -0.08600
C 	C 	0.03972 0.48593 0.46435 -0.03600
H 	H 	0.02740 0.45670 0.47610 0.04300
H 	H 	0.17550 0.56520 0.43820 -0.23300
H 	H 	0.21110 0.62800 0.35320 0.47600
O 	O 	0.80790 0.69435 0.73346 -0.40800
O 	O 	0.82211 0.72298 0.64478 -0.41800
C 	C 	0.80908 0.72054 0.69477 0.36700
C 	C 	0.79335 0.75179 0.71336 -0.13000
C 	C 	0.79083 0.78008 0.67229 0.06600
H 	H 	0.79877 0.77943 0.63463 0.01600
C 	C 	0.77642 0.80863 0.68880 -0.16100
H 	H 	0.77587 0.82813 0.66223 0.09600
C 	C 	0.76252 0.80873 0.74462 0.12400
C 	C 	0.76506 0.78066 0.78470 -0.16000
H 	H 	0.75697 0.78123 0.82233 0.08900
C 	C 	0.77979 0.75171 0.76863 0.07100
H 	H 	0.78047 0.73233 0.79523 0.02100
C 	C 	0.74407 0.83718 0.76301 -0.08600
C 	C 	0.70639 0.81926 0.79768 -0.03600
H 	H 	0.69407 0.79003 0.80943 0.04300
H 	H 	0.84217 0.89853 0.77153 -0.23300
H 	H 	0.87777 0.96133 0.68653 0.47600
O 	O 	0.47456 0.02769 0.06680 -0.40800
O 	O 	0.48877 0.05632 0.97812 -0.41800
C 	C 	0.47574 0.05388 0.02811 0.36700
C 	C 	0.46001 0.08513 0.04670 -0.13100
C 	C 	0.45749 0.11342 0.00563 0.06700
H 	H 	0.46543 0.11277 0.96797 0.01500
C 	C 	0.44308 0.14197 0.02214 -0.16100
H 	H 	0.44253 0.16147 0.99557 0.09600
C 	C 	0.42918 0.14207 0.07796 0.12400
C 	C 	0.43172 0.11400 0.11804 -0.16000
H 	H 	0.42363 0.11457 0.15567 0.08900
C 	C 	0.44645 0.08505 0.10197 0.07200
H 	H 	0.44713 0.06567 0.12857 0.02100
C 	C 	0.41073 0.17052 0.09635 -0.08600
C 	C 	0.37305 0.15260 0.13102 -0.03600
H 	H 	0.36073 0.12337 0.14277 0.04300
H 	H 	0.50883 0.23187 0.10487 -0.23300
H 	H 	0.54443 0.29467 0.01987 0.47600
O 	O 	0.78021 0.63898 0.59987 -0.40800
O 	O 	0.76579 0.61035 0.68855 -0.41800
C 	C 	0.75520 0.61279 0.63856 0.36700
C 	C 	0.70822 0.58154 0.61997 -0.13000
C 	C 	0.67741 0.55325 0.66104 0.06600
H 	H 	0.68600 0.55390 0.69870 0.01600
C 	C 	0.63445 0.52470 0.64453 -0.16100
H 	H 	0.61440 0.50520 0.67110 0.09600
C 	C 	0.62045 0.52460 0.58871 0.12400
C 	C 	0.65106 0.55267 0.54863 -0.16000
H 	H 	0.64240 0.55210 0.51100 0.08900
C 	C 	0.69474 0.58162 0.56470 0.07100
H 	H 	0.71480 0.60100 0.53810 0.02100
C 	C 	0.57355 0.49615 0.57032 -0.08600
C 	C 	0.55379 0.51407 0.53565 -0.03600
H 	H 	0.57070 0.54330 0.52390 0.04300
H 	H 	0.61030 0.43480 0.56180 -0.23300
H 	H 	0.58310 0.37200 0.64680 0.47600
O 	O 	0.44688 0.97231 0.93320 -0.40800
O 	O 	0.43246 0.94368 0.02188 -0.41800
C 	C 	0.42187 0.94612 0.97189 0.36800
C 	C 	0.37489 0.91487 0.95330 -0.13100
C 	C 	0.34408 0.88658 0.99437 0.06700
H 	H 	0.35267 0.88723 0.03203 0.01500
C 	C 	0.30112 0.85803 0.97786 -0.16100
H 	H 	0.28107 0.83853 0.00443 0.09600
C 	C 	0.28712 0.85793 0.92204 0.12400
C 	C 	0.31773 0.88600 0.88196 -0.16000
H 	H 	0.30907 0.88543 0.84433 0.08900
C 	C 	0.36141 0.91495 0.89803 0.07200
H 	H 	0.38147 0.93433 0.87143 0.02100
C 	C 	0.24022 0.82948 0.90365 -0.08600
C 	C 	0.22046 0.84740 0.86898 -0.03600
H 	H 	0.23737 0.87663 0.85723 0.04300
H 	H 	0.27697 0.76813 0.89513 -0.23300
H 	H 	0.24977 0.70533 0.98013 0.47600
O 	O 	0.11354 0.30565 0.26654 -0.40800
O 	O 	0.09912 0.27702 0.35522 -0.41800
C 	C 	0.08853 0.27946 0.30523 0.36700
C 	C 	0.04155 0.24821 0.28664 -0.13000
C 	C 	0.01074 0.21992 0.32771 0.06600
H 	H 	0.01933 0.22057 0.36537 0.01600
C 	C 	0.96778 0.19137 0.31120 -0.16100
H 	H 	0.94773 0.17187 0.33777 0.09600
C 	C 	0.95378 0.19127 0.25538 0.12400
C 	C 	0.98439 0.21934 0.21530 -0.15900
H 	H 	0.97573 0.21877 0.17767 0.08900
C 	C 	0.02807 0.24829 0.23137 0.07100
H 	H 	0.04813 0.26767 0.20477 0.02100
C 	C 	0.90688 0.16282 0.23699 -0.08600
C 	C 	0.88712 0.18074 0.20232 -0.03600
H 	H 	0.90403 0.20997 0.19057 0.04300
H 	H 	0.94363 0.10147 0.22847 -0.23300
H 	H 	0.91643 0.03867 0.31347 0.47600
O 	O 	0.85877 0.21979 0.59987 -0.40800
O 	O 	0.84456 0.23421 0.68855 -0.41800
C 	C 	0.85759 0.24480 0.63856 0.36700
C 	C 	0.87332 0.29178 0.61997 -0.13000
C 	C 	0.87584 0.32259 0.66104 0.06600
H 	H 	0.86790 0.31400 0.69870 0.01600
C 	C 	0.89025 0.36555 0.64453 -0.16100
H 	H 	0.89080 0.38560 0.67110 0.09600
C 	C 	0.90415 0.37955 0.58871 0.12400
C 	C 	0.90161 0.34894 0.54863 -0.16000
H 	H 	0.90970 0.35760 0.51100 0.08900
C 	C 	0.88688 0.30526 0.56470 0.07100
H 	H 	0.88620 0.28520 0.53810 0.02100
C 	C 	0.92260 0.42645 0.57032 -0.08600
C 	C 	0.96028 0.44621 0.53565 -0.03600
H 	H 	0.97260 0.42930 0.52390 0.04300
H 	H 	0.82450 0.38970 0.56180 -0.23300
H 	H 	0.78890 0.41690 0.64680 0.47600
O 	O 	0.52544 0.55312 0.93320 -0.40800
O 	O 	0.51123 0.56754 0.02188 -0.41800
C 	C 	0.52426 0.57813 0.97189 0.36700
C 	C 	0.53999 0.62511 0.95330 -0.13000
C 	C 	0.54251 0.65592 0.99437 0.06700
H 	H 	0.53457 0.64733 0.03203 0.01600
C 	C 	0.55692 0.69888 0.97786 -0.16100
H 	H 	0.55747 0.71893 0.00443 0.09600
C 	C 	0.57082 0.71288 0.92204 0.12400
C 	C 	0.56828 0.68227 0.88196 -0.16000
H 	H 	0.57637 0.69093 0.84433 0.08900
C 	C 	0.55355 0.63859 0.89803 0.07100
H 	H 	0.55287 0.61853 0.87143 0.02100
C 	C 	0.58927 0.75978 0.90365 -0.08600
C 	C 	0.62695 0.77954 0.86898 -0.03600
H 	H 	0.63927 0.76263 0.85723 0.04300
H 	H 	0.49117 0.72303 0.89513 -0.23300
H 	H 	0.45557 0.75023 0.98013 0.47600
O 	O 	0.19210 0.88646 0.26654 -0.40800
O 	O 	0.17789 0.90088 0.35522 -0.41800
C 	C 	0.19092 0.91147 0.30523 0.36700
C 	C 	0.20665 0.95845 0.28664 -0.13000
C 	C 	0.20917 0.98926 0.32771 0.06600
H 	H 	0.20123 0.98067 0.36537 0.01600
C 	C 	0.22358 0.03222 0.31120 -0.16100
H 	H 	0.22413 0.05227 0.33777 0.09600
C 	C 	0.23748 0.04622 0.25538 0.12400
C 	C 	0.23494 0.01561 0.21530 -0.16000
H 	H 	0.24303 0.02427 0.17767 0.08900
C 	C 	0.22021 0.97193 0.23137 0.07100
H 	H 	0.21953 0.95187 0.20477 0.02100
C 	C 	0.25593 0.09312 0.23699 -0.08600
C 	C 	0.29361 0.11288 0.20232 -0.03600
H 	H 	0.30593 0.09597 0.19057 0.04300
H 	H 	0.15783 0.05637 0.22847 -0.23300
H 	H 	0.12223 0.08357 0.31347 0.47600
O 	O 	0.36102 0.14123 0.59987 -0.40800
O 	O 	0.38965 0.15544 0.68855 -0.41800
C 	C 	0.38721 0.14241 0.63856 0.36700
C 	C 	0.41846 0.12668 0.61997 -0.13000
C 	C 	0.44675 0.12416 0.66104 0.06600
H 	H 	0.44610 0.13210 0.69870 0.01600
C 	C 	0.47530 0.10975 0.64453 -0.16100
H 	H 	0.49480 0.10920 0.67110 0.09600
C 	C 	0.47540 0.09585 0.58871 0.12400
C 	C 	0.44733 0.09839 0.54863 -0.16000
H 	H 	0.44790 0.09030 0.51100 0.08900
C 	C 	0.41838 0.11312 0.56470 0.07100
H 	H 	0.39900 0.11380 0.53810 0.02100
C 	C 	0.50385 0.07740 0.57032 -0.08600
C 	C 	0.48593 0.03972 0.53565 -0.03600
H 	H 	0.45670 0.02740 0.52390 0.04300
H 	H 	0.56520 0.17550 0.56180 -0.23300
H 	H 	0.62800 0.21110 0.64680 0.47600
O 	O 	0.02769 0.47456 0.93320 -0.40800
O 	O 	0.05632 0.48877 0.02188 -0.41800
C 	C 	0.05388 0.47574 0.97189 0.36700
C 	C 	0.08513 0.46001 0.95330 -0.13100
C 	C 	0.11342 0.45749 0.99437 0.06700
H 	H 	0.11277 0.46543 0.03203 0.01500
C 	C 	0.14197 0.44308 0.97786 -0.16100
H 	H 	0.16147 0.44253 0.00443 0.09600
C 	C 	0.14207 0.42918 0.92204 0.12400
C 	C 	0.11400 0.43172 0.88196 -0.16000
H 	H 	0.11457 0.42363 0.84433 0.08900
C 	C 	0.08505 0.44645 0.89803 0.07200
H 	H 	0.06567 0.44713 0.87143 0.02100
C 	C 	0.17052 0.41073 0.90365 -0.08600
C 	C 	0.15260 0.37305 0.86898 -0.03600
H 	H 	0.12337 0.36073 0.85723 0.04300
H 	H 	0.23187 0.50883 0.89513 -0.23300
H 	H 	0.29467 0.54443 0.98013 0.47600
O 	O 	0.69435 0.80790 0.26654 -0.40800
O 	O 	0.72298 0.82211 0.35522 -0.41800
C 	C 	0.72054 0.80908 0.30523 0.36700
C 	C 	0.75179 0.79335 0.28664 -0.13000
C 	C 	0.78008 0.79083 0.32771 0.06600
H 	H 	0.77943 0.79877 0.36537 0.01600
C 	C 	0.80863 0.77642 0.31120 -0.16100
H 	H 	0.82813 0.77587 0.33777 0.09600
C 	C 	0.80873 0.76252 0.25538 0.12400
C 	C 	0.78066 0.76506 0.21530 -0.16000
H 	H 	0.78123 0.75697 0.17767 0.08900
C 	C 	0.75171 0.77979 0.23137 0.07100
H 	H 	0.73233 0.78047 0.20477 0.02100
C 	C 	0.83718 0.74407 0.23699 -0.08600
C 	C 	0.81926 0.70639 0.20232 -0.03600
H 	H 	0.79003 0.69407 0.19057 0.04300
H 	H 	0.89853 0.84217 0.22847 -0.23300
H 	H 	0.96133 0.87777 0.31347 0.47600
Cu	Cu	0.35014 0.17507 0.71875 0.90400
Cu	Cu	0.01681 0.50840 0.05208 0.90400
Cu	Cu	0.68347 0.84174 0.38542 0.90400
Cu	Cu	0.82493 0.17507 0.71875 0.90400
Cu	Cu	0.49160 0.50840 0.05208 0.90400
Cu	Cu	0.15826 0.84174 0.38542 0.90400
Cu	Cu	0.82493 0.64986 0.71875 0.90400
Cu	Cu	0.49160 0.98319 0.05208 0.90400
Cu	Cu	0.15826 0.31653 0.38542 0.90400
Cu	Cu	0.17507 0.35014 0.28125 0.90400
Cu	Cu	0.84174 0.68347 0.61458 0.90400
Cu	Cu	0.50840 0.01681 0.94792 0.90400
Cu	Cu	0.17507 0.82493 0.28125 0.90400
Cu	Cu	0.84174 0.15826 0.61458 0.90400
Cu	Cu	0.50840 0.49160 0.94792 0.90400
Cu	Cu	0.64986 0.82493 0.28125 0.90400
Cu	Cu	0.31653 0.15826 0.61458 0.90400
Cu	Cu	0.98319 0.49160 0.94792 0.90400
O 	O 	0.56683 0.43317 0.62184 -0.36800
C 	C 	0.50994 0.49006 0.51800 0.00300
C 	C 	0.54808 0.45192 0.58701 0.17500
C 	C 	0.58743 0.41257 0.58600 0.86800
C 	C 	0.60596 0.39404 0.62320 -1.52200
H 	H 	0.61930 0.38070 0.60110 0.46800
O 	O 	0.23350 0.76650 0.95517 -0.36800
C 	C 	0.17661 0.82339 0.85133 0.00300
C 	C 	0.21475 0.78525 0.92034 0.17500
C 	C 	0.25410 0.74590 0.91933 0.86900
C 	C 	0.27263 0.72737 0.95653 -1.52300
H 	H 	0.28597 0.71403 0.93443 0.46800
O 	O 	0.90016 0.09984 0.28851 -0.36800
C 	C 	0.84327 0.15673 0.18467 0.00300
C 	C 	0.88141 0.11859 0.25368 0.17500
C 	C 	0.92076 0.07924 0.25267 0.86900
C 	C 	0.93929 0.06071 0.28987 -1.52300
H 	H 	0.95263 0.04737 0.26777 0.46800
O 	O 	0.56683 0.13366 0.62184 -0.36800
C 	C 	0.50994 0.01988 0.51800 0.00300
C 	C 	0.54808 0.09616 0.58701 0.17500
C 	C 	0.58743 0.17486 0.58600 0.86800
C 	C 	0.60596 0.21192 0.62320 -1.52200
H 	H 	0.61930 0.23860 0.60110 0.46800
O 	O 	0.23350 0.46699 0.95517 -0.36800
C 	C 	0.17661 0.35321 0.85133 0.00300
C 	C 	0.21475 0.42949 0.92034 0.17500
C 	C 	0.25410 0.50819 0.91933 0.86900
C 	C 	0.27263 0.54525 0.95653 -1.52200
H 	H 	0.28597 0.57193 0.93443 0.46800
O 	O 	0.90016 0.80033 0.28851 -0.36800
C 	C 	0.84327 0.68655 0.18467 0.00300
C 	C 	0.88141 0.76283 0.25368 0.17500
C 	C 	0.92076 0.84153 0.25267 0.86800
C 	C 	0.93929 0.87859 0.28987 -1.52200
H 	H 	0.95263 0.90527 0.26777 0.46800
O 	O 	0.86634 0.43317 0.62184 -0.36800
C 	C 	0.98012 0.49006 0.51800 0.00300
C 	C 	0.90384 0.45192 0.58701 0.17500
C 	C 	0.82514 0.41257 0.58600 0.86800
C 	C 	0.78808 0.39404 0.62320 -1.52200
H 	H 	0.76140 0.38070 0.60110 0.46800
O 	O 	0.53301 0.76650 0.95517 -0.36800
C 	C 	0.64679 0.82339 0.85133 0.00300
C 	C 	0.57051 0.78525 0.92034 0.17500
C 	C 	0.49181 0.74590 0.91933 0.86900
C 	C 	0.45475 0.72737 0.95653 -1.52200
H 	H 	0.42807 0.71403 0.93443 0.46800
O 	O 	0.19967 0.09984 0.28851 -0.36800
C 	C 	0.31345 0.15673 0.18467 0.00300
C 	C 	0.23717 0.11859 0.25368 0.17500
C 	C 	0.15847 0.07924 0.25267 0.86800
C 	C 	0.12141 0.06071 0.28987 -1.52200
H 	H 	0.09473 0.04737 0.26777 0.46800
O 	O 	0.43317 0.56683 0.37816 -0.36800
C 	C 	0.49006 0.50994 0.48200 0.00300
C 	C 	0.45192 0.54808 0.41299 0.17500
C 	C 	0.41257 0.58743 0.41400 0.86800
C 	C 	0.39404 0.60596 0.37680 -1.52200
H 	H 	0.38070 0.61930 0.39890 0.46800
O 	O 	0.09984 0.90016 0.71149 -0.36800
C 	C 	0.15673 0.84327 0.81533 0.00300
C 	C 	0.11859 0.88141 0.74632 0.17500
C 	C 	0.07924 0.92076 0.74733 0.86900
C 	C 	0.06071 0.93929 0.71013 -1.52300
H 	H 	0.04737 0.95263 0.73223 0.46800
O 	O 	0.76650 0.23350 0.04483 -0.36800
C 	C 	0.82339 0.17661 0.14867 0.00300
C 	C 	0.78525 0.21475 0.07966 0.17500
C 	C 	0.74590 0.25410 0.08067 0.86900
C 	C 	0.72737 0.27263 0.04347 -1.52300
H 	H 	0.71403 0.28597 0.06557 0.46800
O 	O 	0.13366 0.56683 0.37816 -0.36800
C 	C 	0.01988 0.50994 0.48200 0.00300
C 	C 	0.09616 0.54808 0.41299 0.17500
C 	C 	0.17486 0.58743 0.41400 0.86800
C 	C 	0.21192 0.60596 0.37680 -1.52200
H 	H 	0.23860 0.61930 0.39890 0.46800
O 	O 	0.80033 0.90016 0.71149 -0.36800
C 	C 	0.68655 0.84327 0.81533 0.00300
C 	C 	0.76283 0.88141 0.74632 0.17500
C 	C 	0.84153 0.92076 0.74733 0.86800
C 	C 	0.87859 0.93929 0.71013 -1.52200
H 	H 	0.90527 0.95263 0.73223 0.46800
O 	O 	0.46699 0.23350 0.04483 -0.36800
C 	C 	0.35321 0.17661 0.14867 0.00300
C 	C 	0.42949 0.21475 0.07966 0.17500
C 	C 	0.50819 0.25410 0.08067 0.86900
C 	C 	0.54525 0.27263 0.04347 -1.52200
H 	H 	0.57193 0.28597 0.06557 0.46800
O 	O 	0.43317 0.86634 0.37816 -0.36800
C 	C 	0.49006 0.98012 0.48200 0.00300
C 	C 	0.45192 0.90384 0.41299 0.17500
C 	C 	0.41257 0.82514 0.41400 0.86800
C 	C 	0.39404 0.78808 0.37680 -1.52200
H 	H 	0.38070 0.76140 0.39890 0.46800
O 	O 	0.09984 0.19967 0.71149 -0.36800
C 	C 	0.15673 0.31345 0.81533 0.00300
C 	C 	0.11859 0.23717 0.74632 0.17500
C 	C 	0.07924 0.15847 0.74733 0.86800
C 	C 	0.06071 0.12141 0.71013 -1.52200
H 	H 	0.04737 0.09473 0.73223 0.46800
O 	O 	0.76650 0.53301 0.04483 -0.36800
C 	C 	0.82339 0.64679 0.14867 0.00300
C 	C 	0.78525 0.57051 0.07966 0.17500
C 	C 	0.74590 0.49181 0.08067 0.86900
C 	C 	0.72737 0.45475 0.04347 -1.52200
H 	H 	0.71403 0.42807 0.06557 0.46800
