data_crystal

_cell_length_a 35.13570
_cell_length_b 35.13570
_cell_length_c 22.38140
_cell_angle_alpha 90.00000
_cell_angle_beta  90.00000
_cell_angle_gamma 120.00000

_symmetry_space_group_name_	'P 1'
_symmetry_space_group_name_H-M	'P 1'

loop_
_symmetry_equiv_pos_as_xyz
  x,y,z

loop_
_atom_site_label
_atom_site_type_symbol
_atom_site_fract_x
_atom_site_fract_y
_atom_site_fract_z
_atom_site_charge
O 	O 	0.52503 0.97167 0.93128 -0.41400
O 	O 	0.51138 0.94419 0.02436 -0.42000
C 	C 	0.52390 0.94602 0.97164 0.37600
C 	C 	0.53934 0.91433 0.95358 -0.15000
C 	C 	0.53971 0.88513 0.99478 0.09100
H 	H 	0.53020 0.88470 0.03370 0.00400
C 	C 	0.55418 0.85668 0.97830 -0.19000
H 	H 	0.55370 0.83690 0.00630 0.10400
C 	C 	0.56930 0.85680 0.92127 0.15300
C 	C 	0.56833 0.88578 0.87971 -0.18400
H 	H 	0.57750 0.88600 0.84070 0.09700
C 	C 	0.55363 0.91441 0.89639 0.09100
H 	H 	0.55350 0.93390 0.86840 0.01300
C 	C 	0.58814 0.82864 0.90391 -0.11900
C 	C 	0.62598 0.84677 0.86968 -0.01700
H 	H 	0.63850 0.87600 0.85820 0.03600
H 	H 	0.48970 0.72250 0.89870 -0.32700
H 	H 	0.45570 0.70550 0.98860 0.57400
O 	O 	0.19170 0.30500 0.26461 -0.41400
O 	O 	0.17805 0.27752 0.35769 -0.41900
C 	C 	0.19057 0.27935 0.30497 0.37600
C 	C 	0.20601 0.24766 0.28691 -0.14900
C 	C 	0.20638 0.21846 0.32811 0.09100
H 	H 	0.19687 0.21803 0.36703 0.00500
C 	C 	0.22085 0.19001 0.31163 -0.18900
H 	H 	0.22037 0.17023 0.33963 0.10500
C 	C 	0.23597 0.19013 0.25460 0.15400
C 	C 	0.23500 0.21911 0.21304 -0.18300
H 	H 	0.24417 0.21933 0.17403 0.09800
C 	C 	0.22030 0.24774 0.22972 0.09200
H 	H 	0.22017 0.26723 0.20173 0.01400
C 	C 	0.25481 0.16197 0.23724 -0.11800
C 	C 	0.29265 0.18010 0.20301 -0.01600
H 	H 	0.30517 0.20933 0.19153 0.03700
H 	H 	0.15637 0.05583 0.23203 -0.32600
H 	H 	0.12237 0.03883 0.32193 0.57500
O 	O 	0.85836 0.63834 0.59795 -0.41300
O 	O 	0.84471 0.61086 0.69103 -0.41900
C 	C 	0.85723 0.61269 0.63831 0.37600
C 	C 	0.87267 0.58100 0.62025 -0.14900
C 	C 	0.87304 0.55180 0.66145 0.09100
H 	H 	0.86353 0.55137 0.70037 0.00500
C 	C 	0.88751 0.52335 0.64497 -0.18900
H 	H 	0.88703 0.50357 0.67297 0.10500
C 	C 	0.90263 0.52347 0.58794 0.15400
C 	C 	0.90166 0.55245 0.54638 -0.18300
H 	H 	0.91083 0.55267 0.50737 0.09800
C 	C 	0.88696 0.58108 0.56306 0.09200
H 	H 	0.88683 0.60057 0.53507 0.01400
C 	C 	0.92147 0.49531 0.57058 -0.11800
C 	C 	0.95931 0.51344 0.53635 -0.01600
H 	H 	0.97183 0.54267 0.52487 0.03700
H 	H 	0.82303 0.38917 0.56537 -0.32600
H 	H 	0.78903 0.37217 0.65527 0.57500
O 	O 	0.02833 0.55336 0.93128 -0.41300
O 	O 	0.05581 0.56719 0.02436 -0.42000
C 	C 	0.05398 0.57788 0.97164 0.37700
C 	C 	0.08567 0.62501 0.95358 -0.14900
C 	C 	0.11487 0.65458 0.99478 0.09200
H 	H 	0.11530 0.64550 0.03370 0.00500
C 	C 	0.14332 0.69750 0.97830 -0.18800
H 	H 	0.16310 0.71680 0.00630 0.10500
C 	C 	0.14320 0.71250 0.92127 0.15400
C 	C 	0.11422 0.68255 0.87971 -0.18300
H 	H 	0.11400 0.69150 0.84070 0.09800
C 	C 	0.08559 0.63922 0.89639 0.09200
H 	H 	0.06610 0.61960 0.86840 0.01400
C 	C 	0.17136 0.75950 0.90391 -0.11800
C 	C 	0.15323 0.77921 0.86968 -0.01600
H 	H 	0.12400 0.76250 0.85820 0.03700
H 	H 	0.27750 0.76720 0.89870 -0.32600
H 	H 	0.29450 0.75020 0.98860 0.57500
O 	O 	0.69500 0.88669 0.26461 -0.41300
O 	O 	0.72248 0.90052 0.35769 -0.41900
C 	C 	0.72065 0.91121 0.30497 0.37600
C 	C 	0.75234 0.95834 0.28691 -0.14800
C 	C 	0.78154 0.98791 0.32811 0.09100
H 	H 	0.78197 0.97883 0.36703 0.00500
C 	C 	0.80999 0.03083 0.31163 -0.18800
H 	H 	0.82977 0.05013 0.33963 0.10500
C 	C 	0.80987 0.04583 0.25460 0.15300
C 	C 	0.78089 0.01588 0.21304 -0.18200
H 	H 	0.78067 0.02483 0.17403 0.09700
C 	C 	0.75226 0.97255 0.22972 0.09100
H 	H 	0.73277 0.95293 0.20173 0.01400
C 	C 	0.83803 0.09283 0.23724 -0.11700
C 	C 	0.81990 0.11254 0.20301 -0.01700
H 	H 	0.79067 0.09583 0.19153 0.03700
H 	H 	0.94417 0.10053 0.23203 -0.32600
H 	H 	0.96117 0.08353 0.32193 0.57400
O 	O 	0.36166 0.22003 0.59795 -0.41300
O 	O 	0.38914 0.23386 0.69103 -0.41900
C 	C 	0.38731 0.24455 0.63831 0.37600
C 	C 	0.41900 0.29168 0.62025 -0.14900
C 	C 	0.44820 0.32125 0.66145 0.09100
H 	H 	0.44863 0.31217 0.70037 0.00500
C 	C 	0.47665 0.36417 0.64497 -0.18900
H 	H 	0.49643 0.38347 0.67297 0.10500
C 	C 	0.47653 0.37917 0.58794 0.15400
C 	C 	0.44755 0.34922 0.54638 -0.18300
H 	H 	0.44733 0.35817 0.50737 0.09800
C 	C 	0.41892 0.30589 0.56306 0.09200
H 	H 	0.39943 0.28627 0.53507 0.01400
C 	C 	0.50469 0.42617 0.57058 -0.11800
C 	C 	0.48656 0.44588 0.53635 -0.01600
H 	H 	0.45733 0.42917 0.52487 0.03700
H 	H 	0.61083 0.43387 0.56537 -0.32600
H 	H 	0.62783 0.41687 0.65527 0.57500
O 	O 	0.44664 0.47497 0.93128 -0.41300
O 	O 	0.43281 0.48862 0.02436 -0.41900
C 	C 	0.42212 0.47610 0.97164 0.37600
C 	C 	0.37499 0.46066 0.95358 -0.14900
C 	C 	0.34542 0.46029 0.99478 0.09100
H 	H 	0.35450 0.46980 0.03370 0.00500
C 	C 	0.30250 0.44582 0.97830 -0.18800
H 	H 	0.28320 0.44630 0.00630 0.10500
C 	C 	0.28750 0.43070 0.92127 0.15400
C 	C 	0.31745 0.43167 0.87971 -0.18300
H 	H 	0.30850 0.42250 0.84070 0.09800
C 	C 	0.36078 0.44637 0.89639 0.09200
H 	H 	0.38040 0.44650 0.86840 0.01400
C 	C 	0.24050 0.41186 0.90391 -0.11800
C 	C 	0.22079 0.37402 0.86968 -0.01600
H 	H 	0.23750 0.36150 0.85820 0.03700
H 	H 	0.23280 0.51030 0.89870 -0.32600
H 	H 	0.24980 0.54430 0.98860 0.57500
O 	O 	0.11331 0.80830 0.26461 -0.41300
O 	O 	0.09948 0.82195 0.35769 -0.41900
C 	C 	0.08879 0.80943 0.30497 0.37600
C 	C 	0.04166 0.79399 0.28691 -0.14900
C 	C 	0.01209 0.79362 0.32811 0.09100
H 	H 	0.02117 0.80313 0.36703 0.00500
C 	C 	0.96917 0.77915 0.31163 -0.18800
H 	H 	0.94987 0.77963 0.33963 0.10500
C 	C 	0.95417 0.76403 0.25460 0.15300
C 	C 	0.98412 0.76500 0.21304 -0.18200
H 	H 	0.97517 0.75583 0.17403 0.09800
C 	C 	0.02745 0.77970 0.22972 0.09200
H 	H 	0.04707 0.77983 0.20173 0.01400
C 	C 	0.90717 0.74519 0.23724 -0.11800
C 	C 	0.88746 0.70735 0.20301 -0.01600
H 	H 	0.90417 0.69483 0.19153 0.03700
H 	H 	0.89947 0.84363 0.23203 -0.32600
H 	H 	0.91647 0.87763 0.32193 0.57500
O 	O 	0.77997 0.14164 0.59795 -0.41300
O 	O 	0.76614 0.15529 0.69103 -0.41900
C 	C 	0.75545 0.14277 0.63831 0.37600
C 	C 	0.70832 0.12733 0.62025 -0.14900
C 	C 	0.67875 0.12696 0.66145 0.09100
H 	H 	0.68783 0.13647 0.70037 0.00500
C 	C 	0.63583 0.11249 0.64497 -0.18900
H 	H 	0.61653 0.11297 0.67297 0.10500
C 	C 	0.62083 0.09737 0.58794 0.15400
C 	C 	0.65078 0.09834 0.54638 -0.18300
H 	H 	0.64183 0.08917 0.50737 0.09800
C 	C 	0.69411 0.11304 0.56306 0.09200
H 	H 	0.71373 0.11317 0.53507 0.01400
C 	C 	0.57383 0.07853 0.57058 -0.11800
C 	C 	0.55412 0.04069 0.53635 -0.01600
H 	H 	0.57083 0.02817 0.52487 0.03700
H 	H 	0.56613 0.17697 0.56537 -0.32600
H 	H 	0.58313 0.21097 0.65527 0.57500
O 	O 	0.97167 0.52503 0.06872 -0.41300
O 	O 	0.94419 0.51138 0.97564 -0.41900
C 	C 	0.94602 0.52390 0.02836 0.37700
C 	C 	0.91433 0.53934 0.04642 -0.14900
C 	C 	0.88513 0.53971 0.00522 0.09200
H 	H 	0.88470 0.53020 0.96630 0.00500
C 	C 	0.85668 0.55418 0.02170 -0.18800
H 	H 	0.83690 0.55370 0.99370 0.10500
C 	C 	0.85680 0.56930 0.07873 0.15400
C 	C 	0.88578 0.56833 0.12029 -0.18300
H 	H 	0.88600 0.57750 0.15930 0.09800
C 	C 	0.91441 0.55363 0.10361 0.09200
H 	H 	0.93390 0.55350 0.13160 0.01400
C 	C 	0.82864 0.58814 0.09609 -0.11800
C 	C 	0.84677 0.62598 0.13032 -0.01600
H 	H 	0.87600 0.63850 0.14180 0.03700
H 	H 	0.72250 0.48970 0.10130 -0.32600
H 	H 	0.70550 0.45570 0.01140 0.57500
O 	O 	0.63834 0.85836 0.40205 -0.41300
O 	O 	0.61086 0.84471 0.30897 -0.41900
C 	C 	0.61269 0.85723 0.36169 0.37600
C 	C 	0.58100 0.87267 0.37975 -0.14900
C 	C 	0.55180 0.87304 0.33855 0.09100
H 	H 	0.55137 0.86353 0.29963 0.00500
C 	C 	0.52335 0.88751 0.35503 -0.18900
H 	H 	0.50357 0.88703 0.32703 0.10500
C 	C 	0.52347 0.90263 0.41206 0.15400
C 	C 	0.55245 0.90166 0.45362 -0.18300
H 	H 	0.55267 0.91083 0.49263 0.09800
C 	C 	0.58108 0.88696 0.43694 0.09200
H 	H 	0.60057 0.88683 0.46493 0.01400
C 	C 	0.49531 0.92147 0.42942 -0.11800
C 	C 	0.51344 0.95931 0.46365 -0.01600
H 	H 	0.54267 0.97183 0.47513 0.03700
H 	H 	0.38917 0.82303 0.43463 -0.32600
H 	H 	0.37217 0.78903 0.34473 0.57500
O 	O 	0.30500 0.19170 0.73539 -0.41300
O 	O 	0.27752 0.17805 0.64231 -0.41900
C 	C 	0.27935 0.19057 0.69503 0.37600
C 	C 	0.24766 0.20601 0.71309 -0.14900
C 	C 	0.21846 0.20638 0.67189 0.09100
H 	H 	0.21803 0.19687 0.63297 0.00500
C 	C 	0.19001 0.22085 0.68837 -0.18900
H 	H 	0.17023 0.22037 0.66037 0.10500
C 	C 	0.19013 0.23597 0.74540 0.15400
C 	C 	0.21911 0.23500 0.78696 -0.18300
H 	H 	0.21933 0.24417 0.82597 0.09800
C 	C 	0.24774 0.22030 0.77028 0.09200
H 	H 	0.26723 0.22017 0.79827 0.01400
C 	C 	0.16197 0.25481 0.76276 -0.11800
C 	C 	0.18010 0.29265 0.79699 -0.01600
H 	H 	0.20933 0.30517 0.80847 0.03700
H 	H 	0.05583 0.15637 0.76797 -0.32600
H 	H 	0.03883 0.12237 0.67807 0.57500
O 	O 	0.55336 0.02833 0.06872 -0.41300
O 	O 	0.56719 0.05581 0.97564 -0.42000
C 	C 	0.57788 0.05398 0.02836 0.37700
C 	C 	0.62501 0.08567 0.04642 -0.14900
C 	C 	0.65458 0.11487 0.00522 0.09200
H 	H 	0.64550 0.11530 0.96630 0.00500
C 	C 	0.69750 0.14332 0.02170 -0.18800
H 	H 	0.71680 0.16310 0.99370 0.10500
C 	C 	0.71250 0.14320 0.07873 0.15400
C 	C 	0.68255 0.11422 0.12029 -0.18300
H 	H 	0.69150 0.11400 0.15930 0.09800
C 	C 	0.63922 0.08559 0.10361 0.09200
H 	H 	0.61960 0.06610 0.13160 0.01400
C 	C 	0.75950 0.17136 0.09609 -0.11800
C 	C 	0.77921 0.15323 0.13032 -0.01600
H 	H 	0.76250 0.12400 0.14180 0.03700
H 	H 	0.76720 0.27750 0.10130 -0.32600
H 	H 	0.75020 0.29450 0.01140 0.57500
O 	O 	0.22003 0.36166 0.40205 -0.41300
O 	O 	0.23386 0.38914 0.30897 -0.41900
C 	C 	0.24455 0.38731 0.36169 0.37600
C 	C 	0.29168 0.41900 0.37975 -0.14900
C 	C 	0.32125 0.44820 0.33855 0.09100
H 	H 	0.31217 0.44863 0.29963 0.00500
C 	C 	0.36417 0.47665 0.35503 -0.18900
H 	H 	0.38347 0.49643 0.32703 0.10500
C 	C 	0.37917 0.47653 0.41206 0.15400
C 	C 	0.34922 0.44755 0.45362 -0.18300
H 	H 	0.35817 0.44733 0.49263 0.09800
C 	C 	0.30589 0.41892 0.43694 0.09200
H 	H 	0.28627 0.39943 0.46493 0.01400
C 	C 	0.42617 0.50469 0.42942 -0.11800
C 	C 	0.44588 0.48656 0.46365 -0.01600
H 	H 	0.42917 0.45733 0.47513 0.03700
H 	H 	0.43387 0.61083 0.43463 -0.32600
H 	H 	0.41687 0.62783 0.34473 0.57500
O 	O 	0.88669 0.69500 0.73539 -0.41300
O 	O 	0.90052 0.72248 0.64231 -0.41900
C 	C 	0.91121 0.72065 0.69503 0.37600
C 	C 	0.95834 0.75234 0.71309 -0.14800
C 	C 	0.98791 0.78154 0.67189 0.09100
H 	H 	0.97883 0.78197 0.63297 0.00500
C 	C 	0.03083 0.80999 0.68837 -0.18800
H 	H 	0.05013 0.82977 0.66037 0.10500
C 	C 	0.04583 0.80987 0.74540 0.15300
C 	C 	0.01588 0.78089 0.78696 -0.18200
H 	H 	0.02483 0.78067 0.82597 0.09700
C 	C 	0.97255 0.75226 0.77028 0.09100
H 	H 	0.95293 0.73277 0.79827 0.01400
C 	C 	0.09283 0.83803 0.76276 -0.11700
C 	C 	0.11254 0.81990 0.79699 -0.01700
H 	H 	0.09583 0.79067 0.80847 0.03700
H 	H 	0.10053 0.94417 0.76797 -0.32600
H 	H 	0.08353 0.96117 0.67807 0.57400
O 	O 	0.47497 0.44664 0.06872 -0.41300
O 	O 	0.48862 0.43281 0.97564 -0.41900
C 	C 	0.47610 0.42212 0.02836 0.37600
C 	C 	0.46066 0.37499 0.04642 -0.14900
C 	C 	0.46029 0.34542 0.00522 0.09100
H 	H 	0.46980 0.35450 0.96630 0.00500
C 	C 	0.44582 0.30250 0.02170 -0.18800
H 	H 	0.44630 0.28320 0.99370 0.10500
C 	C 	0.43070 0.28750 0.07873 0.15400
C 	C 	0.43167 0.31745 0.12029 -0.18300
H 	H 	0.42250 0.30850 0.15930 0.09800
C 	C 	0.44637 0.36078 0.10361 0.09200
H 	H 	0.44650 0.38040 0.13160 0.01400
C 	C 	0.41186 0.24050 0.09609 -0.11800
C 	C 	0.37402 0.22079 0.13032 -0.01600
H 	H 	0.36150 0.23750 0.14180 0.03700
H 	H 	0.51030 0.23280 0.10130 -0.32600
H 	H 	0.54430 0.24980 0.01140 0.57500
O 	O 	0.14164 0.77997 0.40205 -0.41300
O 	O 	0.15529 0.76614 0.30897 -0.41900
C 	C 	0.14277 0.75545 0.36169 0.37600
C 	C 	0.12733 0.70832 0.37975 -0.14900
C 	C 	0.12696 0.67875 0.33855 0.09100
H 	H 	0.13647 0.68783 0.29963 0.00500
C 	C 	0.11249 0.63583 0.35503 -0.18900
H 	H 	0.11297 0.61653 0.32703 0.10500
C 	C 	0.09737 0.62083 0.41206 0.15400
C 	C 	0.09834 0.65078 0.45362 -0.18300
H 	H 	0.08917 0.64183 0.49263 0.09800
C 	C 	0.11304 0.69411 0.43694 0.09200
H 	H 	0.11317 0.71373 0.46493 0.01400
C 	C 	0.07853 0.57383 0.42942 -0.11800
C 	C 	0.04069 0.55412 0.46365 -0.01600
H 	H 	0.02817 0.57083 0.47513 0.03700
H 	H 	0.17697 0.56613 0.43463 -0.32600
H 	H 	0.21097 0.58313 0.34473 0.57500
O 	O 	0.80830 0.11331 0.73539 -0.41300
O 	O 	0.82195 0.09948 0.64231 -0.41900
C 	C 	0.80943 0.08879 0.69503 0.37600
C 	C 	0.79399 0.04166 0.71309 -0.14900
C 	C 	0.79362 0.01209 0.67189 0.09100
H 	H 	0.80313 0.02117 0.63297 0.00500
C 	C 	0.77915 0.96917 0.68837 -0.18800
H 	H 	0.77963 0.94987 0.66037 0.10500
C 	C 	0.76403 0.95417 0.74540 0.15300
C 	C 	0.76500 0.98412 0.78696 -0.18200
H 	H 	0.75583 0.97517 0.82597 0.09800
C 	C 	0.77970 0.02745 0.77028 0.09200
H 	H 	0.77983 0.04707 0.79827 0.01400
C 	C 	0.74519 0.90717 0.76276 -0.11800
C 	C 	0.70735 0.88746 0.79699 -0.01600
H 	H 	0.69483 0.90417 0.80847 0.03700
H 	H 	0.84363 0.89947 0.76797 -0.32600
H 	H 	0.87763 0.91647 0.67807 0.57500
O 	O 	0.47497 0.02833 0.06872 -0.41300
O 	O 	0.48862 0.05581 0.97564 -0.41900
C 	C 	0.47610 0.05398 0.02836 0.37700
C 	C 	0.46066 0.08567 0.04642 -0.14900
C 	C 	0.46029 0.11487 0.00522 0.09200
H 	H 	0.46980 0.11530 0.96630 0.00500
C 	C 	0.44582 0.14332 0.02170 -0.18900
H 	H 	0.44630 0.16310 0.99370 0.10500
C 	C 	0.43070 0.14320 0.07873 0.15400
C 	C 	0.43167 0.11422 0.12029 -0.18300
H 	H 	0.42250 0.11400 0.15930 0.09800
C 	C 	0.44637 0.08559 0.10361 0.09200
H 	H 	0.44650 0.06610 0.13160 0.01400
C 	C 	0.41186 0.17136 0.09609 -0.11800
C 	C 	0.37402 0.15323 0.13032 -0.01600
H 	H 	0.36150 0.12400 0.14180 0.03700
H 	H 	0.51030 0.27750 0.10130 -0.32600
H 	H 	0.54430 0.29450 0.01140 0.57500
O 	O 	0.14164 0.36166 0.40205 -0.41300
O 	O 	0.15529 0.38914 0.30897 -0.41900
C 	C 	0.14277 0.38731 0.36169 0.37600
C 	C 	0.12733 0.41900 0.37975 -0.14900
C 	C 	0.12696 0.44820 0.33855 0.09100
H 	H 	0.13647 0.44863 0.29963 0.00500
C 	C 	0.11249 0.47665 0.35503 -0.18900
H 	H 	0.11297 0.49643 0.32703 0.10500
C 	C 	0.09737 0.47653 0.41206 0.15400
C 	C 	0.09834 0.44755 0.45362 -0.18300
H 	H 	0.08917 0.44733 0.49263 0.09800
C 	C 	0.11304 0.41892 0.43694 0.09200
H 	H 	0.11317 0.39943 0.46493 0.01400
C 	C 	0.07853 0.50469 0.42942 -0.11800
C 	C 	0.04069 0.48656 0.46365 -0.01600
H 	H 	0.02817 0.45733 0.47513 0.03700
H 	H 	0.17697 0.61083 0.43463 -0.32600
H 	H 	0.21097 0.62783 0.34473 0.57500
O 	O 	0.80830 0.69500 0.73539 -0.41300
O 	O 	0.82195 0.72248 0.64231 -0.41900
C 	C 	0.80943 0.72065 0.69503 0.37600
C 	C 	0.79399 0.75234 0.71309 -0.14900
C 	C 	0.79362 0.78154 0.67189 0.09100
H 	H 	0.80313 0.78197 0.63297 0.00500
C 	C 	0.77915 0.80999 0.68837 -0.18900
H 	H 	0.77963 0.82977 0.66037 0.10500
C 	C 	0.76403 0.80987 0.74540 0.15400
C 	C 	0.76500 0.78089 0.78696 -0.18300
H 	H 	0.75583 0.78067 0.82597 0.09800
C 	C 	0.77970 0.75226 0.77028 0.09200
H 	H 	0.77983 0.73277 0.79827 0.01400
C 	C 	0.74519 0.83803 0.76276 -0.11800
C 	C 	0.70735 0.81990 0.79699 -0.01600
H 	H 	0.69483 0.79067 0.80847 0.03700
H 	H 	0.84363 0.94417 0.76797 -0.32600
H 	H 	0.87763 0.96117 0.67807 0.57500
O 	O 	0.97167 0.44664 0.06872 -0.41300
O 	O 	0.94419 0.43281 0.97564 -0.42000
C 	C 	0.94602 0.42212 0.02836 0.37700
C 	C 	0.91433 0.37499 0.04642 -0.14900
C 	C 	0.88513 0.34542 0.00522 0.09200
H 	H 	0.88470 0.35450 0.96630 0.00500
C 	C 	0.85668 0.30250 0.02170 -0.18800
H 	H 	0.83690 0.28320 0.99370 0.10500
C 	C 	0.85680 0.28750 0.07873 0.15400
C 	C 	0.88578 0.31745 0.12029 -0.18300
H 	H 	0.88600 0.30850 0.15930 0.09800
C 	C 	0.91441 0.36078 0.10361 0.09200
H 	H 	0.93390 0.38040 0.13160 0.01400
C 	C 	0.82864 0.24050 0.09609 -0.11800
C 	C 	0.84677 0.22079 0.13032 -0.01600
H 	H 	0.87600 0.23750 0.14180 0.03700
H 	H 	0.72250 0.23280 0.10130 -0.32600
H 	H 	0.70550 0.24980 0.01140 0.57500
O 	O 	0.63834 0.77997 0.40205 -0.41300
O 	O 	0.61086 0.76614 0.30897 -0.41900
C 	C 	0.61269 0.75545 0.36169 0.37600
C 	C 	0.58100 0.70832 0.37975 -0.14900
C 	C 	0.55180 0.67875 0.33855 0.09100
H 	H 	0.55137 0.68783 0.29963 0.00500
C 	C 	0.52335 0.63583 0.35503 -0.18900
H 	H 	0.50357 0.61653 0.32703 0.10500
C 	C 	0.52347 0.62083 0.41206 0.15400
C 	C 	0.55245 0.65078 0.45362 -0.18300
H 	H 	0.55267 0.64183 0.49263 0.09800
C 	C 	0.58108 0.69411 0.43694 0.09200
H 	H 	0.60057 0.71373 0.46493 0.01400
C 	C 	0.49531 0.57383 0.42942 -0.11800
C 	C 	0.51344 0.55412 0.46365 -0.01600
H 	H 	0.54267 0.57083 0.47513 0.03700
H 	H 	0.38917 0.56613 0.43463 -0.32600
H 	H 	0.37217 0.58313 0.34473 0.57500
O 	O 	0.30500 0.11331 0.73539 -0.41300
O 	O 	0.27752 0.09948 0.64231 -0.41900
C 	C 	0.27935 0.08879 0.69503 0.37600
C 	C 	0.24766 0.04166 0.71309 -0.14800
C 	C 	0.21846 0.01209 0.67189 0.09100
H 	H 	0.21803 0.02117 0.63297 0.00500
C 	C 	0.19001 0.96917 0.68837 -0.18800
H 	H 	0.17023 0.94987 0.66037 0.10500
C 	C 	0.19013 0.95417 0.74540 0.15300
C 	C 	0.21911 0.98412 0.78696 -0.18200
H 	H 	0.21933 0.97517 0.82597 0.09700
C 	C 	0.24774 0.02745 0.77028 0.09100
H 	H 	0.26723 0.04707 0.79827 0.01400
C 	C 	0.16197 0.90717 0.76276 -0.11700
C 	C 	0.18010 0.88746 0.79699 -0.01700
H 	H 	0.20933 0.90417 0.80847 0.03700
H 	H 	0.05583 0.89947 0.76797 -0.32600
H 	H 	0.03883 0.91647 0.67807 0.57400
O 	O 	0.55336 0.52503 0.06872 -0.41300
O 	O 	0.56719 0.51138 0.97564 -0.41900
C 	C 	0.57788 0.52390 0.02836 0.37600
C 	C 	0.62501 0.53934 0.04642 -0.14900
C 	C 	0.65458 0.53971 0.00522 0.09100
H 	H 	0.64550 0.53020 0.96630 0.00500
C 	C 	0.69750 0.55418 0.02170 -0.18800
H 	H 	0.71680 0.55370 0.99370 0.10500
C 	C 	0.71250 0.56930 0.07873 0.15400
C 	C 	0.68255 0.56833 0.12029 -0.18300
H 	H 	0.69150 0.57750 0.15930 0.09800
C 	C 	0.63922 0.55363 0.10361 0.09200
H 	H 	0.61960 0.55350 0.13160 0.01400
C 	C 	0.75950 0.58814 0.09609 -0.11800
C 	C 	0.77921 0.62598 0.13032 -0.01600
H 	H 	0.76250 0.63850 0.14180 0.03700
H 	H 	0.76720 0.48970 0.10130 -0.32600
H 	H 	0.75020 0.45570 0.01140 0.57500
O 	O 	0.22003 0.85836 0.40205 -0.41300
O 	O 	0.23386 0.84471 0.30897 -0.41900
C 	C 	0.24455 0.85723 0.36169 0.37600
C 	C 	0.29168 0.87267 0.37975 -0.14900
C 	C 	0.32125 0.87304 0.33855 0.09100
H 	H 	0.31217 0.86353 0.29963 0.00500
C 	C 	0.36417 0.88751 0.35503 -0.18900
H 	H 	0.38347 0.88703 0.32703 0.10500
C 	C 	0.37917 0.90263 0.41206 0.15400
C 	C 	0.34922 0.90166 0.45362 -0.18300
H 	H 	0.35817 0.91083 0.49263 0.09800
C 	C 	0.30589 0.88696 0.43694 0.09200
H 	H 	0.28627 0.88683 0.46493 0.01400
C 	C 	0.42617 0.92147 0.42942 -0.11800
C 	C 	0.44588 0.95931 0.46365 -0.01600
H 	H 	0.42917 0.97183 0.47513 0.03700
H 	H 	0.43387 0.82303 0.43463 -0.32600
H 	H 	0.41687 0.78903 0.34473 0.57500
O 	O 	0.88669 0.19170 0.73539 -0.41300
O 	O 	0.90052 0.17805 0.64231 -0.41900
C 	C 	0.91121 0.19057 0.69503 0.37600
C 	C 	0.95834 0.20601 0.71309 -0.14900
C 	C 	0.98791 0.20638 0.67189 0.09100
H 	H 	0.97883 0.19687 0.63297 0.00500
C 	C 	0.03083 0.22085 0.68837 -0.18800
H 	H 	0.05013 0.22037 0.66037 0.10500
C 	C 	0.04583 0.23597 0.74540 0.15300
C 	C 	0.01588 0.23500 0.78696 -0.18200
H 	H 	0.02483 0.24417 0.82597 0.09800
C 	C 	0.97255 0.22030 0.77028 0.09200
H 	H 	0.95293 0.22017 0.79827 0.01400
C 	C 	0.09283 0.25481 0.76276 -0.11800
C 	C 	0.11254 0.29265 0.79699 -0.01600
H 	H 	0.09583 0.30517 0.80847 0.03700
H 	H 	0.10053 0.15637 0.76797 -0.32600
H 	H 	0.08353 0.12237 0.67807 0.57500
O 	O 	0.02833 0.47497 0.93128 -0.41300
O 	O 	0.05581 0.48862 0.02436 -0.41900
C 	C 	0.05398 0.47610 0.97164 0.37700
C 	C 	0.08567 0.46066 0.95358 -0.14900
C 	C 	0.11487 0.46029 0.99478 0.09200
H 	H 	0.11530 0.46980 0.03370 0.00500
C 	C 	0.14332 0.44582 0.97830 -0.18900
H 	H 	0.16310 0.44630 0.00630 0.10500
C 	C 	0.14320 0.43070 0.92127 0.15400
C 	C 	0.11422 0.43167 0.87971 -0.18300
H 	H 	0.11400 0.42250 0.84070 0.09800
C 	C 	0.08559 0.44637 0.89639 0.09200
H 	H 	0.06610 0.44650 0.86840 0.01400
C 	C 	0.17136 0.41186 0.90391 -0.11800
C 	C 	0.15323 0.37402 0.86968 -0.01600
H 	H 	0.12400 0.36150 0.85820 0.03700
H 	H 	0.27750 0.51030 0.89870 -0.32600
H 	H 	0.29450 0.54430 0.98860 0.57500
O 	O 	0.69500 0.80830 0.26461 -0.41300
O 	O 	0.72248 0.82195 0.35769 -0.41900
C 	C 	0.72065 0.80943 0.30497 0.37600
C 	C 	0.75234 0.79399 0.28691 -0.14900
C 	C 	0.78154 0.79362 0.32811 0.09100
H 	H 	0.78197 0.80313 0.36703 0.00500
C 	C 	0.80999 0.77915 0.31163 -0.18900
H 	H 	0.82977 0.77963 0.33963 0.10500
C 	C 	0.80987 0.76403 0.25460 0.15400
C 	C 	0.78089 0.76500 0.21304 -0.18300
H 	H 	0.78067 0.75583 0.17403 0.09800
C 	C 	0.75226 0.77970 0.22972 0.09200
H 	H 	0.73277 0.77983 0.20173 0.01400
C 	C 	0.83803 0.74519 0.23724 -0.11800
C 	C 	0.81990 0.70735 0.20301 -0.01600
H 	H 	0.79067 0.69483 0.19153 0.03700
H 	H 	0.94417 0.84363 0.23203 -0.32600
H 	H 	0.96117 0.87763 0.32193 0.57500
O 	O 	0.36166 0.14164 0.59795 -0.41300
O 	O 	0.38914 0.15529 0.69103 -0.41900
C 	C 	0.38731 0.14277 0.63831 0.37600
C 	C 	0.41900 0.12733 0.62025 -0.14900
C 	C 	0.44820 0.12696 0.66145 0.09100
H 	H 	0.44863 0.13647 0.70037 0.00500
C 	C 	0.47665 0.11249 0.64497 -0.18900
H 	H 	0.49643 0.11297 0.67297 0.10500
C 	C 	0.47653 0.09737 0.58794 0.15400
C 	C 	0.44755 0.09834 0.54638 -0.18300
H 	H 	0.44733 0.08917 0.50737 0.09800
C 	C 	0.41892 0.11304 0.56306 0.09200
H 	H 	0.39943 0.11317 0.53507 0.01400
C 	C 	0.50469 0.07853 0.57058 -0.11800
C 	C 	0.48656 0.04069 0.53635 -0.01600
H 	H 	0.45733 0.02817 0.52487 0.03700
H 	H 	0.61083 0.17697 0.56537 -0.32600
H 	H 	0.62783 0.21097 0.65527 0.57500
O 	O 	0.44664 0.97167 0.93128 -0.41300
O 	O 	0.43281 0.94419 0.02436 -0.42000
C 	C 	0.42212 0.94602 0.97164 0.37700
C 	C 	0.37499 0.91433 0.95358 -0.14900
C 	C 	0.34542 0.88513 0.99478 0.09200
H 	H 	0.35450 0.88470 0.03370 0.00500
C 	C 	0.30250 0.85668 0.97830 -0.18800
H 	H 	0.28320 0.83690 0.00630 0.10500
C 	C 	0.28750 0.85680 0.92127 0.15400
C 	C 	0.31745 0.88578 0.87971 -0.18300
H 	H 	0.30850 0.88600 0.84070 0.09800
C 	C 	0.36078 0.91441 0.89639 0.09200
H 	H 	0.38040 0.93390 0.86840 0.01400
C 	C 	0.24050 0.82864 0.90391 -0.11800
C 	C 	0.22079 0.84677 0.86968 -0.01600
H 	H 	0.23750 0.87600 0.85820 0.03700
H 	H 	0.23280 0.72250 0.89870 -0.32600
H 	H 	0.24980 0.70550 0.98860 0.57500
O 	O 	0.11331 0.30500 0.26461 -0.41300
O 	O 	0.09948 0.27752 0.35769 -0.41900
C 	C 	0.08879 0.27935 0.30497 0.37600
C 	C 	0.04166 0.24766 0.28691 -0.14800
C 	C 	0.01209 0.21846 0.32811 0.09100
H 	H 	0.02117 0.21803 0.36703 0.00500
C 	C 	0.96917 0.19001 0.31163 -0.18800
H 	H 	0.94987 0.17023 0.33963 0.10500
C 	C 	0.95417 0.19013 0.25460 0.15300
C 	C 	0.98412 0.21911 0.21304 -0.18200
H 	H 	0.97517 0.21933 0.17403 0.09700
C 	C 	0.02745 0.24774 0.22972 0.09100
H 	H 	0.04707 0.26723 0.20173 0.01400
C 	C 	0.90717 0.16197 0.23724 -0.11700
C 	C 	0.88746 0.18010 0.20301 -0.01700
H 	H 	0.90417 0.20933 0.19153 0.03700
H 	H 	0.89947 0.05583 0.23203 -0.32600
H 	H 	0.91647 0.03883 0.32193 0.57400
O 	O 	0.77997 0.63834 0.59795 -0.41300
O 	O 	0.76614 0.61086 0.69103 -0.41900
C 	C 	0.75545 0.61269 0.63831 0.37600
C 	C 	0.70832 0.58100 0.62025 -0.14900
C 	C 	0.67875 0.55180 0.66145 0.09100
H 	H 	0.68783 0.55137 0.70037 0.00500
C 	C 	0.63583 0.52335 0.64497 -0.18900
H 	H 	0.61653 0.50357 0.67297 0.10500
C 	C 	0.62083 0.52347 0.58794 0.15400
C 	C 	0.65078 0.55245 0.54638 -0.18300
H 	H 	0.64183 0.55267 0.50737 0.09800
C 	C 	0.69411 0.58108 0.56306 0.09200
H 	H 	0.71373 0.60057 0.53507 0.01400
C 	C 	0.57383 0.49531 0.57058 -0.11800
C 	C 	0.55412 0.51344 0.53635 -0.01600
H 	H 	0.57083 0.54267 0.52487 0.03700
H 	H 	0.56613 0.38917 0.56537 -0.32600
H 	H 	0.58313 0.37217 0.65527 0.57500
O 	O 	0.52503 0.55336 0.93128 -0.41300
O 	O 	0.51138 0.56719 0.02436 -0.41900
C 	C 	0.52390 0.57788 0.97164 0.37600
C 	C 	0.53934 0.62501 0.95358 -0.14900
C 	C 	0.53971 0.65458 0.99478 0.09100
H 	H 	0.53020 0.64550 0.03370 0.00500
C 	C 	0.55418 0.69750 0.97830 -0.18800
H 	H 	0.55370 0.71680 0.00630 0.10500
C 	C 	0.56930 0.71250 0.92127 0.15400
C 	C 	0.56833 0.68255 0.87971 -0.18300
H 	H 	0.57750 0.69150 0.84070 0.09800
C 	C 	0.55363 0.63922 0.89639 0.09200
H 	H 	0.55350 0.61960 0.86840 0.01400
C 	C 	0.58814 0.75950 0.90391 -0.11800
C 	C 	0.62598 0.77921 0.86968 -0.01600
H 	H 	0.63850 0.76250 0.85820 0.03700
H 	H 	0.48970 0.76720 0.89870 -0.32600
H 	H 	0.45570 0.75020 0.98860 0.57500
O 	O 	0.19170 0.88669 0.26461 -0.41300
O 	O 	0.17805 0.90052 0.35769 -0.41900
C 	C 	0.19057 0.91121 0.30497 0.37600
C 	C 	0.20601 0.95834 0.28691 -0.14900
C 	C 	0.20638 0.98791 0.32811 0.09100
H 	H 	0.19687 0.97883 0.36703 0.00500
C 	C 	0.22085 0.03083 0.31163 -0.18800
H 	H 	0.22037 0.05013 0.33963 0.10500
C 	C 	0.23597 0.04583 0.25460 0.15300
C 	C 	0.23500 0.01588 0.21304 -0.18200
H 	H 	0.24417 0.02483 0.17403 0.09800
C 	C 	0.22030 0.97255 0.22972 0.09200
H 	H 	0.22017 0.95293 0.20173 0.01400
C 	C 	0.25481 0.09283 0.23724 -0.11800
C 	C 	0.29265 0.11254 0.20301 -0.01600
H 	H 	0.30517 0.09583 0.19153 0.03700
H 	H 	0.15637 0.10053 0.23203 -0.32600
H 	H 	0.12237 0.08353 0.32193 0.57500
O 	O 	0.85836 0.22003 0.59795 -0.41300
O 	O 	0.84471 0.23386 0.69103 -0.41900
C 	C 	0.85723 0.24455 0.63831 0.37600
C 	C 	0.87267 0.29168 0.62025 -0.14900
C 	C 	0.87304 0.32125 0.66145 0.09100
H 	H 	0.86353 0.31217 0.70037 0.00500
C 	C 	0.88751 0.36417 0.64497 -0.18900
H 	H 	0.88703 0.38347 0.67297 0.10500
C 	C 	0.90263 0.37917 0.58794 0.15400
C 	C 	0.90166 0.34922 0.54638 -0.18300
H 	H 	0.91083 0.35817 0.50737 0.09800
C 	C 	0.88696 0.30589 0.56306 0.09200
H 	H 	0.88683 0.28627 0.53507 0.01400
C 	C 	0.92147 0.42617 0.57058 -0.11800
C 	C 	0.95931 0.44588 0.53635 -0.01600
H 	H 	0.97183 0.42917 0.52487 0.03700
H 	H 	0.82303 0.43387 0.56537 -0.32600
H 	H 	0.78903 0.41687 0.65527 0.57500
Cu	Cu	0.50807 0.01614 0.94554 0.90400
Cu	Cu	0.17474 0.34947 0.27887 0.90400
Cu	Cu	0.84140 0.68281 0.61221 0.90400
Cu	Cu	0.98386 0.49193 0.94554 0.90400
Cu	Cu	0.65053 0.82526 0.27887 0.90400
Cu	Cu	0.31719 0.15860 0.61221 0.90400
Cu	Cu	0.50807 0.49193 0.94554 0.90400
Cu	Cu	0.17474 0.82526 0.27887 0.90400
Cu	Cu	0.84140 0.15860 0.61221 0.90400
Cu	Cu	0.01614 0.50807 0.05446 0.90400
Cu	Cu	0.68281 0.84140 0.38779 0.90400
Cu	Cu	0.34947 0.17474 0.72113 0.90400
Cu	Cu	0.49193 0.98386 0.05446 0.90400
Cu	Cu	0.15860 0.31719 0.38779 0.90400
Cu	Cu	0.82526 0.65053 0.72113 0.90400
Cu	Cu	0.49193 0.50807 0.05446 0.90400
Cu	Cu	0.15860 0.84140 0.38779 0.90400
Cu	Cu	0.82526 0.17474 0.72113 0.90400
O 	O 	0.53087 0.76544 0.95523 -0.48200
C 	C 	0.64636 0.82318 0.85148 -0.00800
C 	C 	0.56897 0.78449 0.92060 0.23500
C 	C 	0.49110 0.74555 0.92410 1.18200
C 	C 	0.45460 0.72730 0.96390 -1.86800
H 	H 	0.42780 0.71390 0.94130 0.56900
O 	O 	0.19754 0.09877 0.28856 -0.48200
C 	C 	0.31303 0.15651 0.18481 -0.00800
C 	C 	0.23564 0.11782 0.25393 0.23500
C 	C 	0.15777 0.07888 0.25743 1.18200
C 	C 	0.12127 0.06063 0.29723 -1.86800
H 	H 	0.09447 0.04723 0.27463 0.56900
O 	O 	0.86420 0.43210 0.62190 -0.48200
C 	C 	0.97969 0.48985 0.51815 -0.00800
C 	C 	0.90230 0.45115 0.58727 0.23500
C 	C 	0.82443 0.41222 0.59077 1.18200
C 	C 	0.78793 0.39397 0.63057 -1.86800
H 	H 	0.76113 0.38057 0.60797 0.56900
O 	O 	0.23456 0.76544 0.95523 -0.48200
C 	C 	0.17682 0.82318 0.85148 -0.00800
C 	C 	0.21551 0.78449 0.92060 0.23500
C 	C 	0.25445 0.74555 0.92410 1.18100
C 	C 	0.27270 0.72730 0.96390 -1.86700
H 	H 	0.28610 0.71390 0.94130 0.56900
O 	O 	0.90123 0.09877 0.28856 -0.48200
C 	C 	0.84349 0.15651 0.18481 -0.00800
C 	C 	0.88218 0.11782 0.25393 0.23500
C 	C 	0.92112 0.07888 0.25743 1.18100
C 	C 	0.93937 0.06063 0.29723 -1.86700
H 	H 	0.95277 0.04723 0.27463 0.56900
O 	O 	0.56790 0.43210 0.62190 -0.48300
C 	C 	0.51015 0.48985 0.51815 -0.00800
C 	C 	0.54885 0.45115 0.58727 0.23500
C 	C 	0.58778 0.41222 0.59077 1.18300
C 	C 	0.60603 0.39397 0.63057 -1.86900
H 	H 	0.61943 0.38057 0.60797 0.56900
O 	O 	0.23456 0.46913 0.95523 -0.48200
C 	C 	0.17682 0.35364 0.85148 -0.00800
C 	C 	0.21551 0.43103 0.92060 0.23500
C 	C 	0.25445 0.50890 0.92410 1.18200
C 	C 	0.27270 0.54540 0.96390 -1.86800
H 	H 	0.28610 0.57220 0.94130 0.56900
O 	O 	0.90123 0.80246 0.28856 -0.48200
C 	C 	0.84349 0.68697 0.18481 -0.00800
C 	C 	0.88218 0.76436 0.25393 0.23500
C 	C 	0.92112 0.84223 0.25743 1.18200
C 	C 	0.93937 0.87873 0.29723 -1.86800
H 	H 	0.95277 0.90553 0.27463 0.56900
O 	O 	0.56790 0.13580 0.62190 -0.48200
C 	C 	0.51015 0.02031 0.51815 -0.00800
C 	C 	0.54885 0.09770 0.58727 0.23500
C 	C 	0.58778 0.17557 0.59077 1.18200
C 	C 	0.60603 0.21207 0.63057 -1.86800
H 	H 	0.61943 0.23887 0.60797 0.56900
O 	O 	0.76543 0.53087 0.04477 -0.48200
C 	C 	0.82318 0.64636 0.14852 -0.00800
C 	C 	0.78448 0.56897 0.07940 0.23500
C 	C 	0.74555 0.49110 0.07590 1.18200
C 	C 	0.72730 0.45460 0.03610 -1.86800
H 	H 	0.71390 0.42780 0.05870 0.56900
O 	O 	0.43210 0.86420 0.37810 -0.48200
C 	C 	0.48985 0.97969 0.48185 -0.00800
C 	C 	0.45115 0.90230 0.41273 0.23500
C 	C 	0.41222 0.82443 0.40923 1.18200
C 	C 	0.39397 0.78793 0.36943 -1.86800
H 	H 	0.38057 0.76113 0.39203 0.56900
O 	O 	0.09877 0.19754 0.71144 -0.48200
C 	C 	0.15651 0.31303 0.81519 -0.00800
C 	C 	0.11782 0.23564 0.74607 0.23500
C 	C 	0.07888 0.15777 0.74257 1.18200
C 	C 	0.06063 0.12127 0.70277 -1.86800
H 	H 	0.04723 0.09447 0.72537 0.56900
O 	O 	0.76544 0.23456 0.04477 -0.48200
C 	C 	0.82318 0.17682 0.14852 -0.00800
C 	C 	0.78449 0.21551 0.07940 0.23500
C 	C 	0.74555 0.25445 0.07590 1.18100
C 	C 	0.72730 0.27270 0.03610 -1.86700
H 	H 	0.71390 0.28610 0.05870 0.56900
O 	O 	0.43210 0.56790 0.37810 -0.48300
C 	C 	0.48985 0.51015 0.48185 -0.00800
C 	C 	0.45115 0.54885 0.41273 0.23500
C 	C 	0.41222 0.58778 0.40923 1.18300
C 	C 	0.39397 0.60603 0.36943 -1.86900
H 	H 	0.38057 0.61943 0.39203 0.56900
O 	O 	0.09877 0.90123 0.71144 -0.48200
C 	C 	0.15651 0.84349 0.81519 -0.00800
C 	C 	0.11782 0.88218 0.74607 0.23500
C 	C 	0.07888 0.92112 0.74257 1.18100
C 	C 	0.06063 0.93937 0.70277 -1.86700
H 	H 	0.04723 0.95277 0.72537 0.56900
O 	O 	0.46913 0.23456 0.04477 -0.48200
C 	C 	0.35364 0.17682 0.14852 -0.00800
C 	C 	0.43103 0.21551 0.07940 0.23500
C 	C 	0.50890 0.25445 0.07590 1.18200
C 	C 	0.54540 0.27270 0.03610 -1.86800
H 	H 	0.57220 0.28610 0.05870 0.56900
O 	O 	0.13580 0.56790 0.37810 -0.48200
C 	C 	0.02031 0.51015 0.48185 -0.00800
C 	C 	0.09770 0.54885 0.41273 0.23500
C 	C 	0.17557 0.58778 0.40923 1.18200
C 	C 	0.21207 0.60603 0.36943 -1.86800
H 	H 	0.23887 0.61943 0.39203 0.56900
O 	O 	0.80246 0.90123 0.71144 -0.48200
C 	C 	0.68697 0.84349 0.81519 -0.00800
C 	C 	0.76436 0.88218 0.74607 0.23500
C 	C 	0.84223 0.92112 0.74257 1.18200
C 	C 	0.87873 0.93937 0.70277 -1.86800
H 	H 	0.90553 0.95277 0.72537 0.56900
