data_crystal

_cell_length_a 35.12270
_cell_length_b 35.12270
_cell_length_c 22.16000
_cell_angle_alpha 90.00000
_cell_angle_beta  90.00000
_cell_angle_gamma 120.00000

_symmetry_space_group_name_	'P 1'
_symmetry_space_group_name_H-M	'P 1'

loop_
_symmetry_equiv_pos_as_xyz
  x,y,z

loop_
_atom_site_label
_atom_site_type_symbol
_atom_site_fract_x
_atom_site_fract_y
_atom_site_fract_z
_atom_site_charge
O 	O 	0.30418 0.19138 0.23505 -0.40900
O 	O 	0.27748 0.17794 0.14059 -0.41400
C 	C 	0.27863 0.19040 0.19353 0.37500
C 	C 	0.24753 0.20586 0.21156 -0.14300
C 	C 	0.21950 0.20805 0.16801 0.08300
H 	H 	0.22000 0.19970 0.12830 0.01400
C 	C 	0.19123 0.22272 0.18491 -0.17500
H 	H 	0.17200 0.22300 0.15640 0.10300
C 	C 	0.19055 0.23666 0.24163 0.13100
C 	C 	0.21813 0.23411 0.28628 -0.16400
H 	H 	0.21740 0.24240 0.32600 0.09100
C 	C 	0.24639 0.21893 0.26916 0.08400
H 	H 	0.26500 0.21770 0.29790 0.01900
C 	C 	0.16251 0.25586 0.26047 -0.08300
C 	C 	0.18019 0.29313 0.29583 -0.03500
H 	H 	0.20940 0.30560 0.30780 0.04400
H 	H 	0.05630 0.15750 0.26940 -0.10500
H 	H 	0.03870 0.12200 0.17540 0.30500
O 	O 	0.97085 0.52471 0.56838 -0.40900
O 	O 	0.94415 0.51127 0.47392 -0.41500
C 	C 	0.94530 0.52373 0.52686 0.37500
C 	C 	0.91420 0.53919 0.54489 -0.14300
C 	C 	0.88617 0.54138 0.50134 0.08300
H 	H 	0.88667 0.53303 0.46163 0.01400
C 	C 	0.85790 0.55605 0.51824 -0.17500
H 	H 	0.83867 0.55633 0.48973 0.10300
C 	C 	0.85722 0.56999 0.57496 0.13100
C 	C 	0.88480 0.56744 0.61961 -0.16400
H 	H 	0.88407 0.57573 0.65933 0.09100
C 	C 	0.91306 0.55226 0.60249 0.08400
H 	H 	0.93167 0.55103 0.63123 0.01900
C 	C 	0.82918 0.58919 0.59380 -0.08300
C 	C 	0.84686 0.62646 0.62916 -0.03400
H 	H 	0.87607 0.63893 0.64113 0.04400
H 	H 	0.72297 0.49083 0.60273 -0.10500
H 	H 	0.70537 0.45533 0.50873 0.30500
O 	O 	0.63751 0.85805 0.90172 -0.40900
O 	O 	0.61081 0.84461 0.80726 -0.41400
C 	C 	0.61196 0.85707 0.86020 0.37500
C 	C 	0.58086 0.87253 0.87823 -0.14300
C 	C 	0.55283 0.87472 0.83468 0.08300
H 	H 	0.55333 0.86637 0.79497 0.01400
C 	C 	0.52456 0.88939 0.85158 -0.17500
H 	H 	0.50533 0.88967 0.82307 0.10300
C 	C 	0.52388 0.90333 0.90830 0.13100
C 	C 	0.55146 0.90078 0.95295 -0.16400
H 	H 	0.55073 0.90907 0.99267 0.09100
C 	C 	0.57972 0.88560 0.93583 0.08400
H 	H 	0.59833 0.88437 0.96457 0.01900
C 	C 	0.49584 0.92253 0.92714 -0.08300
C 	C 	0.51352 0.95980 0.96250 -0.03400
H 	H 	0.54273 0.97227 0.97447 0.04400
H 	H 	0.38963 0.82417 0.93607 -0.10500
H 	H 	0.37203 0.78867 0.84207 0.30500
O 	O 	0.80862 0.11280 0.23505 -0.40900
O 	O 	0.82206 0.09954 0.14059 -0.41500
C 	C 	0.80960 0.08823 0.19353 0.37500
C 	C 	0.79414 0.04167 0.21156 -0.14300
C 	C 	0.79195 0.01145 0.16801 0.08300
H 	H 	0.80030 0.02030 0.12830 0.01400
C 	C 	0.77728 0.96851 0.18491 -0.17500
H 	H 	0.77700 0.94900 0.15640 0.10300
C 	C 	0.76334 0.95389 0.24163 0.13100
C 	C 	0.76589 0.98402 0.28628 -0.16400
H 	H 	0.75760 0.97500 0.32600 0.09100
C 	C 	0.78107 0.02746 0.26916 0.08400
H 	H 	0.78230 0.04730 0.29790 0.01900
C 	C 	0.74414 0.90665 0.26047 -0.08300
C 	C 	0.70687 0.88706 0.29583 -0.03500
H 	H 	0.69440 0.90380 0.30780 0.04300
H 	H 	0.84250 0.89880 0.26940 -0.10600
H 	H 	0.87800 0.91670 0.17540 0.30400
O 	O 	0.47529 0.44613 0.56838 -0.41000
O 	O 	0.48873 0.43287 0.47392 -0.41500
C 	C 	0.47627 0.42156 0.52686 0.37400
C 	C 	0.46081 0.37500 0.54489 -0.14400
C 	C 	0.45862 0.34478 0.50134 0.08200
H 	H 	0.46697 0.35363 0.46163 0.01300
C 	C 	0.44395 0.30184 0.51824 -0.17600
H 	H 	0.44367 0.28233 0.48973 0.10200
C 	C 	0.43001 0.28722 0.57496 0.13000
C 	C 	0.43256 0.31735 0.61961 -0.16500
H 	H 	0.42427 0.30833 0.65933 0.09000
C 	C 	0.44774 0.36079 0.60249 0.08300
H 	H 	0.44897 0.38063 0.63123 0.01800
C 	C 	0.41081 0.23998 0.59380 -0.08400
C 	C 	0.37354 0.22039 0.62916 -0.03500
H 	H 	0.36107 0.23713 0.64113 0.04300
H 	H 	0.50917 0.23213 0.60273 -0.10600
H 	H 	0.54467 0.25003 0.50873 0.30400
O 	O 	0.14195 0.77947 0.90172 -0.41000
O 	O 	0.15539 0.76621 0.80726 -0.41600
C 	C 	0.14293 0.75490 0.86020 0.37400
C 	C 	0.12747 0.70834 0.87823 -0.14400
C 	C 	0.12528 0.67812 0.83468 0.08200
H 	H 	0.13363 0.68697 0.79497 0.01300
C 	C 	0.11061 0.63518 0.85158 -0.17600
H 	H 	0.11033 0.61567 0.82307 0.10200
C 	C 	0.09667 0.62056 0.90830 0.13000
C 	C 	0.09922 0.65069 0.95295 -0.16500
H 	H 	0.09093 0.64167 0.99267 0.09000
C 	C 	0.11440 0.69413 0.93583 0.08300
H 	H 	0.11563 0.71397 0.96457 0.01800
C 	C 	0.07747 0.57332 0.92714 -0.08400
C 	C 	0.04020 0.55373 0.96250 -0.03600
H 	H 	0.02773 0.57047 0.97447 0.04300
H 	H 	0.17583 0.56547 0.93607 -0.10600
H 	H 	0.21133 0.58337 0.84207 0.30400
O 	O 	0.88720 0.69582 0.23505 -0.41000
O 	O 	0.90046 0.72252 0.14059 -0.41600
C 	C 	0.91177 0.72137 0.19353 0.37400
C 	C 	0.95833 0.75247 0.21156 -0.14400
C 	C 	0.98855 0.78050 0.16801 0.08200
H 	H 	0.97970 0.78000 0.12830 0.01300
C 	C 	0.03149 0.80877 0.18491 -0.17500
H 	H 	0.05100 0.82800 0.15640 0.10200
C 	C 	0.04611 0.80945 0.24163 0.13000
C 	C 	0.01598 0.78187 0.28628 -0.16500
H 	H 	0.02500 0.78260 0.32600 0.09000
C 	C 	0.97254 0.75361 0.26916 0.08200
H 	H 	0.95270 0.73500 0.29790 0.01800
C 	C 	0.09335 0.83749 0.26047 -0.08400
C 	C 	0.11294 0.81981 0.29583 -0.03600
H 	H 	0.09620 0.79060 0.30780 0.04300
H 	H 	0.10120 0.94370 0.26940 -0.10600
H 	H 	0.08330 0.96130 0.17540 0.30400
O 	O 	0.55387 0.02915 0.56838 -0.41000
O 	O 	0.56713 0.05585 0.47392 -0.41500
C 	C 	0.57844 0.05470 0.52686 0.37400
C 	C 	0.62500 0.08580 0.54489 -0.14400
C 	C 	0.65522 0.11383 0.50134 0.08200
H 	H 	0.64637 0.11333 0.46163 0.01300
C 	C 	0.69816 0.14210 0.51824 -0.17600
H 	H 	0.71767 0.16133 0.48973 0.10200
C 	C 	0.71278 0.14278 0.57496 0.13000
C 	C 	0.68265 0.11520 0.61961 -0.16500
H 	H 	0.69167 0.11593 0.65933 0.09000
C 	C 	0.63921 0.08694 0.60249 0.08300
H 	H 	0.61937 0.06833 0.63123 0.01800
C 	C 	0.76002 0.17082 0.59380 -0.08400
C 	C 	0.77961 0.15314 0.62916 -0.03500
H 	H 	0.76287 0.12393 0.64113 0.04300
H 	H 	0.76787 0.27703 0.60273 -0.10600
H 	H 	0.74997 0.29463 0.50873 0.30500
O 	O 	0.22053 0.36249 0.90172 -0.41000
O 	O 	0.23379 0.38919 0.80726 -0.41600
C 	C 	0.24510 0.38804 0.86020 0.37400
C 	C 	0.29166 0.41914 0.87823 -0.14400
C 	C 	0.32188 0.44717 0.83468 0.08200
H 	H 	0.31303 0.44667 0.79497 0.01300
C 	C 	0.36482 0.47544 0.85158 -0.17600
H 	H 	0.38433 0.49467 0.82307 0.10200
C 	C 	0.37944 0.47612 0.90830 0.13000
C 	C 	0.34931 0.44854 0.95295 -0.16500
H 	H 	0.35833 0.44927 0.99267 0.09000
C 	C 	0.30587 0.42028 0.93583 0.08300
H 	H 	0.28603 0.40167 0.96457 0.01800
C 	C 	0.42668 0.50416 0.92714 -0.08400
C 	C 	0.44627 0.48648 0.96250 -0.03500
H 	H 	0.42953 0.45727 0.97447 0.04300
H 	H 	0.43453 0.61037 0.93607 -0.10500
H 	H 	0.41663 0.62797 0.84207 0.30400
O 	O 	0.19138 0.30418 0.76495 -0.41000
O 	O 	0.17794 0.27748 0.85941 -0.41500
C 	C 	0.19040 0.27863 0.80647 0.37400
C 	C 	0.20586 0.24753 0.78844 -0.14400
C 	C 	0.20805 0.21950 0.83199 0.08200
H 	H 	0.19970 0.22000 0.87170 0.01300
C 	C 	0.22272 0.19123 0.81509 -0.17600
H 	H 	0.22300 0.17200 0.84360 0.10200
C 	C 	0.23666 0.19055 0.75837 0.13000
C 	C 	0.23411 0.21813 0.71372 -0.16500
H 	H 	0.24240 0.21740 0.67400 0.09000
C 	C 	0.21893 0.24639 0.73084 0.08300
H 	H 	0.21770 0.26500 0.70210 0.01800
C 	C 	0.25586 0.16251 0.73953 -0.08400
C 	C 	0.29313 0.18019 0.70417 -0.03600
H 	H 	0.30560 0.20940 0.69220 0.04300
H 	H 	0.15750 0.05630 0.73060 -0.10600
H 	H 	0.12200 0.03870 0.82460 0.30400
O 	O 	0.85805 0.63751 0.09828 -0.41000
O 	O 	0.84461 0.61081 0.19274 -0.41500
C 	C 	0.85707 0.61196 0.13980 0.37400
C 	C 	0.87253 0.58086 0.12177 -0.14400
C 	C 	0.87472 0.55283 0.16532 0.08200
H 	H 	0.86637 0.55333 0.20503 0.01300
C 	C 	0.88939 0.52456 0.14842 -0.17600
H 	H 	0.88967 0.50533 0.17693 0.10200
C 	C 	0.90333 0.52388 0.09170 0.13000
C 	C 	0.90078 0.55146 0.04705 -0.16500
H 	H 	0.90907 0.55073 0.00733 0.09000
C 	C 	0.88560 0.57972 0.06417 0.08300
H 	H 	0.88437 0.59833 0.03543 0.01800
C 	C 	0.92253 0.49584 0.07286 -0.08400
C 	C 	0.95980 0.51352 0.03750 -0.03500
H 	H 	0.97227 0.54273 0.02553 0.04300
H 	H 	0.82417 0.38963 0.06393 -0.10600
H 	H 	0.78867 0.37203 0.15793 0.30400
O 	O 	0.52471 0.97085 0.43162 -0.41000
O 	O 	0.51127 0.94415 0.52608 -0.41600
C 	C 	0.52373 0.94530 0.47314 0.37400
C 	C 	0.53919 0.91420 0.45511 -0.14400
C 	C 	0.54138 0.88617 0.49866 0.08200
H 	H 	0.53303 0.88667 0.53837 0.01300
C 	C 	0.55605 0.85790 0.48176 -0.17600
H 	H 	0.55633 0.83867 0.51027 0.10200
C 	C 	0.56999 0.85722 0.42504 0.13000
C 	C 	0.56744 0.88480 0.38039 -0.16500
H 	H 	0.57573 0.88407 0.34067 0.09000
C 	C 	0.55226 0.91306 0.39751 0.08300
H 	H 	0.55103 0.93167 0.36877 0.01800
C 	C 	0.58919 0.82918 0.40620 -0.08400
C 	C 	0.62646 0.84686 0.37084 -0.03500
H 	H 	0.63893 0.87607 0.35887 0.04300
H 	H 	0.49083 0.72297 0.39727 -0.10600
H 	H 	0.45533 0.70537 0.49127 0.30400
O 	O 	0.11280 0.80862 0.76495 -0.41000
O 	O 	0.09954 0.82206 0.85941 -0.41600
C 	C 	0.08823 0.80960 0.80647 0.37400
C 	C 	0.04167 0.79414 0.78844 -0.14400
C 	C 	0.01145 0.79195 0.83199 0.08200
H 	H 	0.02030 0.80030 0.87170 0.01300
C 	C 	0.96851 0.77728 0.81509 -0.17600
H 	H 	0.94900 0.77700 0.84360 0.10200
C 	C 	0.95389 0.76334 0.75837 0.13000
C 	C 	0.98402 0.76589 0.71372 -0.16500
H 	H 	0.97500 0.75760 0.67400 0.09000
C 	C 	0.02746 0.78107 0.73084 0.08300
H 	H 	0.04730 0.78230 0.70210 0.01800
C 	C 	0.90665 0.74414 0.73953 -0.08400
C 	C 	0.88706 0.70687 0.70417 -0.03600
H 	H 	0.90380 0.69440 0.69220 0.04300
H 	H 	0.89880 0.84250 0.73060 -0.10600
H 	H 	0.91670 0.87800 0.82460 0.30400
O 	O 	0.77947 0.14195 0.09828 -0.41000
O 	O 	0.76621 0.15539 0.19274 -0.41600
C 	C 	0.75490 0.14293 0.13980 0.37400
C 	C 	0.70834 0.12747 0.12177 -0.14400
C 	C 	0.67812 0.12528 0.16532 0.08200
H 	H 	0.68697 0.13363 0.20503 0.01300
C 	C 	0.63518 0.11061 0.14842 -0.17600
H 	H 	0.61567 0.11033 0.17693 0.10200
C 	C 	0.62056 0.09667 0.09170 0.13000
C 	C 	0.65069 0.09922 0.04705 -0.16500
H 	H 	0.64167 0.09093 0.00733 0.09000
C 	C 	0.69413 0.11440 0.06417 0.08300
H 	H 	0.71397 0.11563 0.03543 0.01800
C 	C 	0.57332 0.07747 0.07286 -0.08400
C 	C 	0.55373 0.04020 0.03750 -0.03600
H 	H 	0.57047 0.02773 0.02553 0.04300
H 	H 	0.56547 0.17583 0.06393 -0.10600
H 	H 	0.58337 0.21133 0.15793 0.30400
O 	O 	0.44613 0.47529 0.43162 -0.41000
O 	O 	0.43287 0.48873 0.52608 -0.41500
C 	C 	0.42156 0.47627 0.47314 0.37400
C 	C 	0.37500 0.46081 0.45511 -0.14400
C 	C 	0.34478 0.45862 0.49866 0.08200
H 	H 	0.35363 0.46697 0.53837 0.01300
C 	C 	0.30184 0.44395 0.48176 -0.17600
H 	H 	0.28233 0.44367 0.51027 0.10200
C 	C 	0.28722 0.43001 0.42504 0.13000
C 	C 	0.31735 0.43256 0.38039 -0.16500
H 	H 	0.30833 0.42427 0.34067 0.09000
C 	C 	0.36079 0.44774 0.39751 0.08300
H 	H 	0.38063 0.44897 0.36877 0.01800
C 	C 	0.23998 0.41081 0.40620 -0.08400
C 	C 	0.22039 0.37354 0.37084 -0.03500
H 	H 	0.23713 0.36107 0.35887 0.04300
H 	H 	0.23213 0.50917 0.39727 -0.10600
H 	H 	0.25003 0.54467 0.49127 0.30400
O 	O 	0.69582 0.88720 0.76495 -0.41000
O 	O 	0.72252 0.90046 0.85941 -0.41600
C 	C 	0.72137 0.91177 0.80647 0.37400
C 	C 	0.75247 0.95833 0.78844 -0.14400
C 	C 	0.78050 0.98855 0.83199 0.08200
H 	H 	0.78000 0.97970 0.87170 0.01300
C 	C 	0.80877 0.03149 0.81509 -0.17500
H 	H 	0.82800 0.05100 0.84360 0.10200
C 	C 	0.80945 0.04611 0.75837 0.13000
C 	C 	0.78187 0.01598 0.71372 -0.16500
H 	H 	0.78260 0.02500 0.67400 0.09000
C 	C 	0.75361 0.97254 0.73084 0.08200
H 	H 	0.73500 0.95270 0.70210 0.01800
C 	C 	0.83749 0.09335 0.73953 -0.08400
C 	C 	0.81981 0.11294 0.70417 -0.03600
H 	H 	0.79060 0.09620 0.69220 0.04300
H 	H 	0.94370 0.10120 0.73060 -0.10600
H 	H 	0.96130 0.08330 0.82460 0.30500
O 	O 	0.36249 0.22053 0.09828 -0.41000
O 	O 	0.38919 0.23379 0.19274 -0.41600
C 	C 	0.38804 0.24510 0.13980 0.37400
C 	C 	0.41914 0.29166 0.12177 -0.14400
C 	C 	0.44717 0.32188 0.16532 0.08200
H 	H 	0.44667 0.31303 0.20503 0.01300
C 	C 	0.47544 0.36482 0.14842 -0.17600
H 	H 	0.49467 0.38433 0.17693 0.10200
C 	C 	0.47612 0.37944 0.09170 0.13000
C 	C 	0.44854 0.34931 0.04705 -0.16500
H 	H 	0.44927 0.35833 0.00733 0.09000
C 	C 	0.42028 0.30587 0.06417 0.08300
H 	H 	0.40167 0.28603 0.03543 0.01800
C 	C 	0.50416 0.42668 0.07286 -0.08400
C 	C 	0.48648 0.44627 0.03750 -0.03500
H 	H 	0.45727 0.42953 0.02553 0.04300
H 	H 	0.61037 0.43453 0.06393 -0.10500
H 	H 	0.62797 0.41663 0.15793 0.30400
O 	O 	0.02915 0.55387 0.43162 -0.41000
O 	O 	0.05585 0.56713 0.52608 -0.41500
C 	C 	0.05470 0.57844 0.47314 0.37400
C 	C 	0.08580 0.62500 0.45511 -0.14400
C 	C 	0.11383 0.65522 0.49866 0.08200
H 	H 	0.11333 0.64637 0.53837 0.01300
C 	C 	0.14210 0.69816 0.48176 -0.17600
H 	H 	0.16133 0.71767 0.51027 0.10200
C 	C 	0.14278 0.71278 0.42504 0.13000
C 	C 	0.11520 0.68265 0.38039 -0.16500
H 	H 	0.11593 0.69167 0.34067 0.09000
C 	C 	0.08694 0.63921 0.39751 0.08300
H 	H 	0.06833 0.61937 0.36877 0.01800
C 	C 	0.17082 0.76002 0.40620 -0.08400
C 	C 	0.15314 0.77961 0.37084 -0.03500
H 	H 	0.12393 0.76287 0.35887 0.04300
H 	H 	0.27703 0.76787 0.39727 -0.10600
H 	H 	0.29463 0.74997 0.49127 0.30500
O 	O 	0.69582 0.80862 0.76495 -0.41000
O 	O 	0.72252 0.82206 0.85941 -0.41500
C 	C 	0.72137 0.80960 0.80647 0.37400
C 	C 	0.75247 0.79414 0.78844 -0.14400
C 	C 	0.78050 0.79195 0.83199 0.08200
H 	H 	0.78000 0.80030 0.87170 0.01300
C 	C 	0.80877 0.77728 0.81509 -0.17600
H 	H 	0.82800 0.77700 0.84360 0.10200
C 	C 	0.80945 0.76334 0.75837 0.13000
C 	C 	0.78187 0.76589 0.71372 -0.16500
H 	H 	0.78260 0.75760 0.67400 0.09000
C 	C 	0.75361 0.78107 0.73084 0.08300
H 	H 	0.73500 0.78230 0.70210 0.01800
C 	C 	0.83749 0.74414 0.73953 -0.08400
C 	C 	0.81981 0.70687 0.70417 -0.03600
H 	H 	0.79060 0.69440 0.69220 0.04300
H 	H 	0.94370 0.84250 0.73060 -0.10600
H 	H 	0.96130 0.87800 0.82460 0.30400
O 	O 	0.36249 0.14195 0.09828 -0.41000
O 	O 	0.38919 0.15539 0.19274 -0.41500
C 	C 	0.38804 0.14293 0.13980 0.37400
C 	C 	0.41914 0.12747 0.12177 -0.14400
C 	C 	0.44717 0.12528 0.16532 0.08200
H 	H 	0.44667 0.13363 0.20503 0.01300
C 	C 	0.47544 0.11061 0.14842 -0.17600
H 	H 	0.49467 0.11033 0.17693 0.10200
C 	C 	0.47612 0.09667 0.09170 0.13000
C 	C 	0.44854 0.09922 0.04705 -0.16500
H 	H 	0.44927 0.09093 0.00733 0.09000
C 	C 	0.42028 0.11440 0.06417 0.08300
H 	H 	0.40167 0.11563 0.03543 0.01800
C 	C 	0.50416 0.07747 0.07286 -0.08400
C 	C 	0.48648 0.04020 0.03750 -0.03500
H 	H 	0.45727 0.02773 0.02553 0.04300
H 	H 	0.61037 0.17583 0.06393 -0.10600
H 	H 	0.62797 0.21133 0.15793 0.30400
O 	O 	0.02915 0.47529 0.43162 -0.41000
O 	O 	0.05585 0.48873 0.52608 -0.41600
C 	C 	0.05470 0.47627 0.47314 0.37400
C 	C 	0.08580 0.46081 0.45511 -0.14400
C 	C 	0.11383 0.45862 0.49866 0.08200
H 	H 	0.11333 0.46697 0.53837 0.01300
C 	C 	0.14210 0.44395 0.48176 -0.17600
H 	H 	0.16133 0.44367 0.51027 0.10200
C 	C 	0.14278 0.43001 0.42504 0.13000
C 	C 	0.11520 0.43256 0.38039 -0.16500
H 	H 	0.11593 0.42427 0.34067 0.09000
C 	C 	0.08694 0.44774 0.39751 0.08300
H 	H 	0.06833 0.44897 0.36877 0.01800
C 	C 	0.17082 0.41081 0.40620 -0.08400
C 	C 	0.15314 0.37354 0.37084 -0.03500
H 	H 	0.12393 0.36107 0.35887 0.04300
H 	H 	0.27703 0.50917 0.39727 -0.10600
H 	H 	0.29463 0.54467 0.49127 0.30400
O 	O 	0.19138 0.88720 0.76495 -0.41000
O 	O 	0.17794 0.90046 0.85941 -0.41600
C 	C 	0.19040 0.91177 0.80647 0.37400
C 	C 	0.20586 0.95833 0.78844 -0.14400
C 	C 	0.20805 0.98855 0.83199 0.08200
H 	H 	0.19970 0.97970 0.87170 0.01300
C 	C 	0.22272 0.03149 0.81509 -0.17600
H 	H 	0.22300 0.05100 0.84360 0.10200
C 	C 	0.23666 0.04611 0.75837 0.13000
C 	C 	0.23411 0.01598 0.71372 -0.16500
H 	H 	0.24240 0.02500 0.67400 0.09000
C 	C 	0.21893 0.97254 0.73084 0.08300
H 	H 	0.21770 0.95270 0.70210 0.01800
C 	C 	0.25586 0.09335 0.73953 -0.08400
C 	C 	0.29313 0.11294 0.70417 -0.03600
H 	H 	0.30560 0.09620 0.69220 0.04300
H 	H 	0.15750 0.10120 0.73060 -0.10600
H 	H 	0.12200 0.08330 0.82460 0.30400
O 	O 	0.85805 0.22053 0.09828 -0.41000
O 	O 	0.84461 0.23379 0.19274 -0.41600
C 	C 	0.85707 0.24510 0.13980 0.37400
C 	C 	0.87253 0.29166 0.12177 -0.14400
C 	C 	0.87472 0.32188 0.16532 0.08200
H 	H 	0.86637 0.31303 0.20503 0.01300
C 	C 	0.88939 0.36482 0.14842 -0.17600
H 	H 	0.88967 0.38433 0.17693 0.10200
C 	C 	0.90333 0.37944 0.09170 0.13000
C 	C 	0.90078 0.34931 0.04705 -0.16500
H 	H 	0.90907 0.35833 0.00733 0.09000
C 	C 	0.88560 0.30587 0.06417 0.08300
H 	H 	0.88437 0.28603 0.03543 0.01800
C 	C 	0.92253 0.42668 0.07286 -0.08400
C 	C 	0.95980 0.44627 0.03750 -0.03600
H 	H 	0.97227 0.42953 0.02553 0.04300
H 	H 	0.82417 0.43453 0.06393 -0.10600
H 	H 	0.78867 0.41663 0.15793 0.30400
O 	O 	0.52471 0.55387 0.43162 -0.41000
O 	O 	0.51127 0.56713 0.52608 -0.41500
C 	C 	0.52373 0.57844 0.47314 0.37400
C 	C 	0.53919 0.62500 0.45511 -0.14400
C 	C 	0.54138 0.65522 0.49866 0.08200
H 	H 	0.53303 0.64637 0.53837 0.01300
C 	C 	0.55605 0.69816 0.48176 -0.17600
H 	H 	0.55633 0.71767 0.51027 0.10200
C 	C 	0.56999 0.71278 0.42504 0.13000
C 	C 	0.56744 0.68265 0.38039 -0.16500
H 	H 	0.57573 0.69167 0.34067 0.09000
C 	C 	0.55226 0.63921 0.39751 0.08300
H 	H 	0.55103 0.61937 0.36877 0.01800
C 	C 	0.58919 0.76002 0.40620 -0.08400
C 	C 	0.62646 0.77961 0.37084 -0.03500
H 	H 	0.63893 0.76287 0.35887 0.04300
H 	H 	0.49083 0.76787 0.39727 -0.10600
H 	H 	0.45533 0.74997 0.49127 0.30400
O 	O 	0.11280 0.30418 0.76495 -0.41000
O 	O 	0.09954 0.27748 0.85941 -0.41600
C 	C 	0.08823 0.27863 0.80647 0.37400
C 	C 	0.04167 0.24753 0.78844 -0.14400
C 	C 	0.01145 0.21950 0.83199 0.08200
H 	H 	0.02030 0.22000 0.87170 0.01300
C 	C 	0.96851 0.19123 0.81509 -0.17500
H 	H 	0.94900 0.17200 0.84360 0.10200
C 	C 	0.95389 0.19055 0.75837 0.13000
C 	C 	0.98402 0.21813 0.71372 -0.16500
H 	H 	0.97500 0.21740 0.67400 0.09000
C 	C 	0.02746 0.24639 0.73084 0.08200
H 	H 	0.04730 0.26500 0.70210 0.01800
C 	C 	0.90665 0.16251 0.73953 -0.08400
C 	C 	0.88706 0.18019 0.70417 -0.03600
H 	H 	0.90380 0.20940 0.69220 0.04300
H 	H 	0.89880 0.05630 0.73060 -0.10600
H 	H 	0.91670 0.03870 0.82460 0.30500
O 	O 	0.77947 0.63751 0.09828 -0.41000
O 	O 	0.76621 0.61081 0.19274 -0.41600
C 	C 	0.75490 0.61196 0.13980 0.37400
C 	C 	0.70834 0.58086 0.12177 -0.14400
C 	C 	0.67812 0.55283 0.16532 0.08200
H 	H 	0.68697 0.55333 0.20503 0.01300
C 	C 	0.63518 0.52456 0.14842 -0.17600
H 	H 	0.61567 0.50533 0.17693 0.10200
C 	C 	0.62056 0.52388 0.09170 0.13000
C 	C 	0.65069 0.55146 0.04705 -0.16500
H 	H 	0.64167 0.55073 0.00733 0.09000
C 	C 	0.69413 0.57972 0.06417 0.08300
H 	H 	0.71397 0.59833 0.03543 0.01800
C 	C 	0.57332 0.49584 0.07286 -0.08400
C 	C 	0.55373 0.51352 0.03750 -0.03500
H 	H 	0.57047 0.54273 0.02553 0.04300
H 	H 	0.56547 0.38963 0.06393 -0.10500
H 	H 	0.58337 0.37203 0.15793 0.30400
O 	O 	0.44613 0.97085 0.43162 -0.41000
O 	O 	0.43287 0.94415 0.52608 -0.41500
C 	C 	0.42156 0.94530 0.47314 0.37400
C 	C 	0.37500 0.91420 0.45511 -0.14400
C 	C 	0.34478 0.88617 0.49866 0.08200
H 	H 	0.35363 0.88667 0.53837 0.01300
C 	C 	0.30184 0.85790 0.48176 -0.17600
H 	H 	0.28233 0.83867 0.51027 0.10200
C 	C 	0.28722 0.85722 0.42504 0.13000
C 	C 	0.31735 0.88480 0.38039 -0.16500
H 	H 	0.30833 0.88407 0.34067 0.09000
C 	C 	0.36079 0.91306 0.39751 0.08300
H 	H 	0.38063 0.93167 0.36877 0.01800
C 	C 	0.23998 0.82918 0.40620 -0.08400
C 	C 	0.22039 0.84686 0.37084 -0.03500
H 	H 	0.23713 0.87607 0.35887 0.04300
H 	H 	0.23213 0.72297 0.39727 -0.10600
H 	H 	0.25003 0.70537 0.49127 0.30500
O 	O 	0.80862 0.69582 0.23505 -0.41000
O 	O 	0.82206 0.72252 0.14059 -0.41500
C 	C 	0.80960 0.72137 0.19353 0.37400
C 	C 	0.79414 0.75247 0.21156 -0.14400
C 	C 	0.79195 0.78050 0.16801 0.08200
H 	H 	0.80030 0.78000 0.12830 0.01300
C 	C 	0.77728 0.80877 0.18491 -0.17600
H 	H 	0.77700 0.82800 0.15640 0.10200
C 	C 	0.76334 0.80945 0.24163 0.13000
C 	C 	0.76589 0.78187 0.28628 -0.16500
H 	H 	0.75760 0.78260 0.32600 0.09000
C 	C 	0.78107 0.75361 0.26916 0.08300
H 	H 	0.78230 0.73500 0.29790 0.01800
C 	C 	0.74414 0.83749 0.26047 -0.08400
C 	C 	0.70687 0.81981 0.29583 -0.03500
H 	H 	0.69440 0.79060 0.30780 0.04300
H 	H 	0.84250 0.94370 0.26940 -0.10600
H 	H 	0.87800 0.96130 0.17540 0.30400
O 	O 	0.47529 0.02915 0.56838 -0.41000
O 	O 	0.48873 0.05585 0.47392 -0.41600
C 	C 	0.47627 0.05470 0.52686 0.37400
C 	C 	0.46081 0.08580 0.54489 -0.14400
C 	C 	0.45862 0.11383 0.50134 0.08200
H 	H 	0.46697 0.11333 0.46163 0.01300
C 	C 	0.44395 0.14210 0.51824 -0.17600
H 	H 	0.44367 0.16133 0.48973 0.10200
C 	C 	0.43001 0.14278 0.57496 0.13000
C 	C 	0.43256 0.11520 0.61961 -0.16500
H 	H 	0.42427 0.11593 0.65933 0.09000
C 	C 	0.44774 0.08694 0.60249 0.08300
H 	H 	0.44897 0.06833 0.63123 0.01800
C 	C 	0.41081 0.17082 0.59380 -0.08400
C 	C 	0.37354 0.15314 0.62916 -0.03500
H 	H 	0.36107 0.12393 0.64113 0.04300
H 	H 	0.50917 0.27703 0.60273 -0.10600
H 	H 	0.54467 0.29463 0.50873 0.30400
O 	O 	0.14195 0.36249 0.90172 -0.41000
O 	O 	0.15539 0.38919 0.80726 -0.41500
C 	C 	0.14293 0.38804 0.86020 0.37400
C 	C 	0.12747 0.41914 0.87823 -0.14400
C 	C 	0.12528 0.44717 0.83468 0.08200
H 	H 	0.13363 0.44667 0.79497 0.01300
C 	C 	0.11061 0.47544 0.85158 -0.17600
H 	H 	0.11033 0.49467 0.82307 0.10200
C 	C 	0.09667 0.47612 0.90830 0.13000
C 	C 	0.09922 0.44854 0.95295 -0.16500
H 	H 	0.09093 0.44927 0.99267 0.09000
C 	C 	0.11440 0.42028 0.93583 0.08300
H 	H 	0.11563 0.40167 0.96457 0.01800
C 	C 	0.07747 0.50416 0.92714 -0.08400
C 	C 	0.04020 0.48648 0.96250 -0.03500
H 	H 	0.02773 0.45727 0.97447 0.04300
H 	H 	0.17583 0.61037 0.93607 -0.10600
H 	H 	0.21133 0.62797 0.84207 0.30400
O 	O 	0.88720 0.19138 0.23505 -0.41000
O 	O 	0.90046 0.17794 0.14059 -0.41600
C 	C 	0.91177 0.19040 0.19353 0.37400
C 	C 	0.95833 0.20586 0.21156 -0.14400
C 	C 	0.98855 0.20805 0.16801 0.08200
H 	H 	0.97970 0.19970 0.12830 0.01300
C 	C 	0.03149 0.22272 0.18491 -0.17600
H 	H 	0.05100 0.22300 0.15640 0.10200
C 	C 	0.04611 0.23666 0.24163 0.13000
C 	C 	0.01598 0.23411 0.28628 -0.16500
H 	H 	0.02500 0.24240 0.32600 0.09000
C 	C 	0.97254 0.21893 0.26916 0.08300
H 	H 	0.95270 0.21770 0.29790 0.01800
C 	C 	0.09335 0.25586 0.26047 -0.08400
C 	C 	0.11294 0.29313 0.29583 -0.03600
H 	H 	0.09620 0.30560 0.30780 0.04300
H 	H 	0.10120 0.15750 0.26940 -0.10600
H 	H 	0.08330 0.12200 0.17540 0.30400
O 	O 	0.55387 0.52471 0.56838 -0.41000
O 	O 	0.56713 0.51127 0.47392 -0.41500
C 	C 	0.57844 0.52373 0.52686 0.37400
C 	C 	0.62500 0.53919 0.54489 -0.14400
C 	C 	0.65522 0.54138 0.50134 0.08200
H 	H 	0.64637 0.53303 0.46163 0.01300
C 	C 	0.69816 0.55605 0.51824 -0.17600
H 	H 	0.71767 0.55633 0.48973 0.10200
C 	C 	0.71278 0.56999 0.57496 0.13000
C 	C 	0.68265 0.56744 0.61961 -0.16500
H 	H 	0.69167 0.57573 0.65933 0.09000
C 	C 	0.63921 0.55226 0.60249 0.08300
H 	H 	0.61937 0.55103 0.63123 0.01800
C 	C 	0.76002 0.58919 0.59380 -0.08400
C 	C 	0.77961 0.62646 0.62916 -0.03500
H 	H 	0.76287 0.63893 0.64113 0.04300
H 	H 	0.76787 0.49083 0.60273 -0.10600
H 	H 	0.74997 0.45533 0.50873 0.30400
O 	O 	0.22053 0.85805 0.90172 -0.41000
O 	O 	0.23379 0.84461 0.80726 -0.41600
C 	C 	0.24510 0.85707 0.86020 0.37400
C 	C 	0.29166 0.87253 0.87823 -0.14400
C 	C 	0.32188 0.87472 0.83468 0.08200
H 	H 	0.31303 0.86637 0.79497 0.01300
C 	C 	0.36482 0.88939 0.85158 -0.17600
H 	H 	0.38433 0.88967 0.82307 0.10200
C 	C 	0.37944 0.90333 0.90830 0.13000
C 	C 	0.34931 0.90078 0.95295 -0.16500
H 	H 	0.35833 0.90907 0.99267 0.09000
C 	C 	0.30587 0.88560 0.93583 0.08300
H 	H 	0.28603 0.88437 0.96457 0.01800
C 	C 	0.42668 0.92253 0.92714 -0.08400
C 	C 	0.44627 0.95980 0.96250 -0.03600
H 	H 	0.42953 0.97227 0.97447 0.04300
H 	H 	0.43453 0.82417 0.93607 -0.10600
H 	H 	0.41663 0.78867 0.84207 0.30400
O 	O 	0.30418 0.11280 0.23505 -0.41000
O 	O 	0.27748 0.09954 0.14059 -0.41600
C 	C 	0.27863 0.08823 0.19353 0.37400
C 	C 	0.24753 0.04167 0.21156 -0.14400
C 	C 	0.21950 0.01145 0.16801 0.08200
H 	H 	0.22000 0.02030 0.12830 0.01300
C 	C 	0.19123 0.96851 0.18491 -0.17500
H 	H 	0.17200 0.94900 0.15640 0.10200
C 	C 	0.19055 0.95389 0.24163 0.13000
C 	C 	0.21813 0.98402 0.28628 -0.16500
H 	H 	0.21740 0.97500 0.32600 0.09000
C 	C 	0.24639 0.02746 0.26916 0.08200
H 	H 	0.26500 0.04730 0.29790 0.01800
C 	C 	0.16251 0.90665 0.26047 -0.08400
C 	C 	0.18019 0.88706 0.29583 -0.03600
H 	H 	0.20940 0.90380 0.30780 0.04300
H 	H 	0.05630 0.89880 0.26940 -0.10600
H 	H 	0.03870 0.91670 0.17540 0.30400
O 	O 	0.97085 0.44613 0.56838 -0.41000
O 	O 	0.94415 0.43287 0.47392 -0.41500
C 	C 	0.94530 0.42156 0.52686 0.37400
C 	C 	0.91420 0.37500 0.54489 -0.14400
C 	C 	0.88617 0.34478 0.50134 0.08200
H 	H 	0.88667 0.35363 0.46163 0.01300
C 	C 	0.85790 0.30184 0.51824 -0.17600
H 	H 	0.83867 0.28233 0.48973 0.10200
C 	C 	0.85722 0.28722 0.57496 0.13000
C 	C 	0.88480 0.31735 0.61961 -0.16500
H 	H 	0.88407 0.30833 0.65933 0.09000
C 	C 	0.91306 0.36079 0.60249 0.08300
H 	H 	0.93167 0.38063 0.63123 0.01800
C 	C 	0.82918 0.23998 0.59380 -0.08400
C 	C 	0.84686 0.22039 0.62916 -0.03500
H 	H 	0.87607 0.23713 0.64113 0.04300
H 	H 	0.72297 0.23213 0.60273 -0.10600
H 	H 	0.70537 0.25003 0.50873 0.30500
O 	O 	0.63751 0.77947 0.90172 -0.41000
O 	O 	0.61081 0.76621 0.80726 -0.41600
C 	C 	0.61196 0.75490 0.86020 0.37400
C 	C 	0.58086 0.70834 0.87823 -0.14400
C 	C 	0.55283 0.67812 0.83468 0.08200
H 	H 	0.55333 0.68697 0.79497 0.01300
C 	C 	0.52456 0.63518 0.85158 -0.17600
H 	H 	0.50533 0.61567 0.82307 0.10200
C 	C 	0.52388 0.62056 0.90830 0.13000
C 	C 	0.55146 0.65069 0.95295 -0.16500
H 	H 	0.55073 0.64167 0.99267 0.09000
C 	C 	0.57972 0.69413 0.93583 0.08300
H 	H 	0.59833 0.71397 0.96457 0.01800
C 	C 	0.49584 0.57332 0.92714 -0.08400
C 	C 	0.51352 0.55373 0.96250 -0.03500
H 	H 	0.54273 0.57047 0.97447 0.04300
H 	H 	0.38963 0.56547 0.93607 -0.10500
H 	H 	0.37203 0.58337 0.84207 0.30400
Cu	Cu	0.31795 0.15897 0.11097 0.90400
Cu	Cu	0.98462 0.49231 0.44430 0.90400
Cu	Cu	0.65128 0.82564 0.77764 0.90400
Cu	Cu	0.84103 0.15897 0.11097 0.90400
Cu	Cu	0.50769 0.49231 0.44430 0.90400
Cu	Cu	0.17436 0.82564 0.77764 0.90400
Cu	Cu	0.84103 0.68205 0.11097 0.90400
Cu	Cu	0.50769 0.01538 0.44430 0.90400
Cu	Cu	0.17436 0.34872 0.77764 0.90400
Cu	Cu	0.15897 0.31795 0.88903 0.90400
Cu	Cu	0.82564 0.65128 0.22236 0.90400
Cu	Cu	0.49231 0.98462 0.55570 0.90400
Cu	Cu	0.15897 0.84103 0.88903 0.90400
Cu	Cu	0.82564 0.17436 0.22236 0.90400
Cu	Cu	0.49231 0.50769 0.55570 0.90400
Cu	Cu	0.68205 0.84103 0.88903 0.90400
Cu	Cu	0.34872 0.17436 0.22236 0.90400
Cu	Cu	0.01538 0.50769 0.55570 0.90400
O 	O 	0.09941 0.19883 0.20821 -0.30500
C 	C 	0.15649 0.31299 0.31450 0.00200
C 	C 	0.11832 0.23665 0.24300 0.16300
C 	C 	0.07933 0.15865 0.24390 0.45900
C 	C 	0.06030 0.12060 0.20030 -0.92500
H 	H 	0.04670 0.09340 0.22250 0.29100
O 	O 	0.76608 0.53216 0.54154 -0.30500
C 	C 	0.82316 0.64632 0.64783 0.00200
C 	C 	0.78499 0.56998 0.57633 0.16300
C 	C 	0.74599 0.49198 0.57723 0.45900
C 	C 	0.72697 0.45393 0.53363 -0.92400
H 	H 	0.71337 0.42673 0.55583 0.29100
O 	O 	0.43275 0.86550 0.87488 -0.30500
C 	C 	0.48983 0.97966 0.98117 0.00200
C 	C 	0.45166 0.90332 0.90967 0.16300
C 	C 	0.41266 0.82532 0.91057 0.45900
C 	C 	0.39363 0.78727 0.86697 -0.92500
H 	H 	0.38003 0.76007 0.88917 0.29100
O 	O 	0.80117 0.90059 0.20821 -0.30500
C 	C 	0.68701 0.84351 0.31450 0.00200
C 	C 	0.76335 0.88167 0.24300 0.16300
C 	C 	0.84135 0.92067 0.24390 0.45900
C 	C 	0.87940 0.93970 0.20030 -0.92500
H 	H 	0.90660 0.95330 0.22250 0.29100
O 	O 	0.46784 0.23392 0.54154 -0.30500
C 	C 	0.35368 0.17684 0.64783 0.00200
C 	C 	0.43002 0.21501 0.57633 0.16300
C 	C 	0.50802 0.25401 0.57723 0.45900
C 	C 	0.54607 0.27303 0.53363 -0.92400
H 	H 	0.57327 0.28663 0.55583 0.29100
O 	O 	0.13450 0.56725 0.87488 -0.30500
C 	C 	0.02034 0.51017 0.98117 0.00200
C 	C 	0.09668 0.54834 0.90967 0.16300
C 	C 	0.17468 0.58734 0.91057 0.45900
C 	C 	0.21273 0.60637 0.86697 -0.92500
H 	H 	0.23993 0.61997 0.88917 0.29100
O 	O 	0.09941 0.90059 0.20821 -0.30500
C 	C 	0.15649 0.84351 0.31450 0.00200
C 	C 	0.11832 0.88168 0.24300 0.16300
C 	C 	0.07933 0.92067 0.24390 0.45900
C 	C 	0.06030 0.93970 0.20030 -0.92400
H 	H 	0.04670 0.95330 0.22250 0.29100
O 	O 	0.76608 0.23392 0.54154 -0.30500
C 	C 	0.82316 0.17684 0.64783 0.00200
C 	C 	0.78499 0.21501 0.57633 0.16300
C 	C 	0.74599 0.25401 0.57723 0.46000
C 	C 	0.72697 0.27303 0.53363 -0.92600
H 	H 	0.71337 0.28663 0.55583 0.29100
O 	O 	0.43275 0.56725 0.87488 -0.30400
C 	C 	0.48983 0.51017 0.98117 0.00200
C 	C 	0.45166 0.54834 0.90967 0.16300
C 	C 	0.41266 0.58734 0.91057 0.45900
C 	C 	0.39363 0.60637 0.86697 -0.92300
H 	H 	0.38003 0.61997 0.88917 0.29000
O 	O 	0.19883 0.09941 0.79179 -0.30500
C 	C 	0.31299 0.15649 0.68550 0.00200
C 	C 	0.23665 0.11832 0.75700 0.16300
C 	C 	0.15865 0.07933 0.75610 0.45900
C 	C 	0.12060 0.06030 0.79970 -0.92500
H 	H 	0.09340 0.04670 0.77750 0.29100
O 	O 	0.86550 0.43275 0.12512 -0.30500
C 	C 	0.97966 0.48983 0.01883 0.00200
C 	C 	0.90332 0.45166 0.09033 0.16300
C 	C 	0.82532 0.41266 0.08943 0.45900
C 	C 	0.78727 0.39363 0.13303 -0.92500
H 	H 	0.76007 0.38003 0.11083 0.29100
O 	O 	0.53216 0.76608 0.45846 -0.30500
C 	C 	0.64632 0.82316 0.35217 0.00200
C 	C 	0.56998 0.78499 0.42367 0.16300
C 	C 	0.49198 0.74599 0.42277 0.45900
C 	C 	0.45393 0.72697 0.46637 -0.92400
H 	H 	0.42673 0.71337 0.44417 0.29100
O 	O 	0.90059 0.80117 0.79179 -0.30500
C 	C 	0.84351 0.68701 0.68550 0.00200
C 	C 	0.88168 0.76335 0.75700 0.16300
C 	C 	0.92068 0.84135 0.75610 0.45900
C 	C 	0.93970 0.87940 0.79970 -0.92500
H 	H 	0.95330 0.90660 0.77750 0.29100
O 	O 	0.56725 0.13450 0.12512 -0.30500
C 	C 	0.51017 0.02034 0.01883 0.00200
C 	C 	0.54834 0.09668 0.09033 0.16300
C 	C 	0.58734 0.17468 0.08943 0.45900
C 	C 	0.60637 0.21273 0.13303 -0.92500
H 	H 	0.61997 0.23993 0.11083 0.29100
O 	O 	0.23392 0.46784 0.45846 -0.30500
C 	C 	0.17684 0.35368 0.35217 0.00200
C 	C 	0.21501 0.43002 0.42367 0.16300
C 	C 	0.25401 0.50802 0.42277 0.45900
C 	C 	0.27303 0.54607 0.46637 -0.92400
H 	H 	0.28663 0.57327 0.44417 0.29100
O 	O 	0.90059 0.09941 0.79179 -0.30500
C 	C 	0.84351 0.15649 0.68550 0.00200
C 	C 	0.88168 0.11832 0.75700 0.16300
C 	C 	0.92068 0.07933 0.75610 0.46000
C 	C 	0.93970 0.06030 0.79970 -0.92500
H 	H 	0.95330 0.04670 0.77750 0.29100
O 	O 	0.56725 0.43275 0.12512 -0.30400
C 	C 	0.51017 0.48983 0.01883 0.00200
C 	C 	0.54834 0.45166 0.09033 0.16300
C 	C 	0.58734 0.41266 0.08943 0.45900
C 	C 	0.60637 0.39363 0.13303 -0.92300
H 	H 	0.61997 0.38003 0.11083 0.29000
O 	O 	0.23392 0.76608 0.45846 -0.30500
C 	C 	0.17684 0.82316 0.35217 0.00200
C 	C 	0.21501 0.78499 0.42367 0.16300
C 	C 	0.25401 0.74599 0.42277 0.46000
C 	C 	0.27303 0.72697 0.46637 -0.92600
H 	H 	0.28663 0.71337 0.44417 0.29100
