data_crystal

_cell_length_a 35.71280
_cell_length_b 35.71280
_cell_length_c 17.66170
_cell_angle_alpha 90.00000
_cell_angle_beta  90.00000
_cell_angle_gamma 120.00000

_symmetry_space_group_name_	'P 1'
_symmetry_space_group_name_H-M	'P 1'

loop_
_symmetry_equiv_pos_as_xyz
  x,y,z

loop_
_atom_site_label
_atom_site_type_symbol
_atom_site_fract_x
_atom_site_fract_y
_atom_site_fract_z
_atom_site_charge
O 	O 	0.77842 0.14467 0.08527 -0.41100
O 	O 	0.76777 0.15490 0.20710 -0.41300
C 	C 	0.75568 0.14510 0.14000 0.37400
C 	C 	0.70949 0.13193 0.12170 -0.15000
C 	C 	0.68117 0.12884 0.17830 0.08700
H 	H 	0.69110 0.13630 0.22780 0.01400
C 	C 	0.63786 0.11457 0.16160 -0.17900
H 	H 	0.61930 0.11330 0.19980 0.10300
C 	C 	0.62253 0.10258 0.09010 0.13900
C 	C 	0.65057 0.10568 0.03400 -0.18200
H 	H 	0.64060 0.09790 0.98460 0.09400
C 	C 	0.69397 0.12046 0.05080 0.09200
H 	H 	0.71260 0.12240 0.01210 0.01300
C 	C 	0.57525 0.08265 0.07240 -0.08900
C 	C 	0.55486 0.04304 0.03670 -0.03500
H 	H 	0.57100 0.02990 0.02480 0.04200
H 	H 	0.56600 0.17500 0.04720 -0.05200
H 	H 	0.59840 0.24070 0.10840 0.24300
O 	O 	0.44509 0.47800 0.41860 -0.41100
O 	O 	0.43444 0.48823 0.54043 -0.41300
C 	C 	0.42235 0.47843 0.47333 0.37400
C 	C 	0.37616 0.46526 0.45503 -0.15000
C 	C 	0.34784 0.46217 0.51163 0.08700
H 	H 	0.35777 0.46963 0.56113 0.01400
C 	C 	0.30453 0.44790 0.49493 -0.17900
H 	H 	0.28597 0.44663 0.53313 0.10300
C 	C 	0.28920 0.43591 0.42343 0.13900
C 	C 	0.31724 0.43901 0.36733 -0.18200
H 	H 	0.30727 0.43123 0.31793 0.09400
C 	C 	0.36064 0.45379 0.38413 0.09200
H 	H 	0.37927 0.45573 0.34543 0.01300
C 	C 	0.24192 0.41598 0.40573 -0.08900
C 	C 	0.22153 0.37637 0.37003 -0.03500
H 	H 	0.23767 0.36323 0.35813 0.04200
H 	H 	0.23267 0.50833 0.38053 -0.05100
H 	H 	0.26507 0.57403 0.44173 0.24400
O 	O 	0.11175 0.81134 0.75194 -0.41000
O 	O 	0.10110 0.82157 0.87377 -0.41200
C 	C 	0.08901 0.81177 0.80667 0.37500
C 	C 	0.04282 0.79860 0.78837 -0.15000
C 	C 	0.01450 0.79551 0.84497 0.08800
H 	H 	0.02443 0.80297 0.89447 0.01500
C 	C 	0.97119 0.78124 0.82827 -0.17800
H 	H 	0.95263 0.77997 0.86647 0.10400
C 	C 	0.95586 0.76925 0.75677 0.14000
C 	C 	0.98390 0.77235 0.70067 -0.18100
H 	H 	0.97393 0.76457 0.65127 0.09500
C 	C 	0.02730 0.78713 0.71747 0.09300
H 	H 	0.04593 0.78907 0.67877 0.01400
C 	C 	0.90858 0.74932 0.73907 -0.08900
C 	C 	0.88819 0.70971 0.70337 -0.03400
H 	H 	0.90433 0.69657 0.69147 0.04300
H 	H 	0.89933 0.84167 0.71387 -0.05100
H 	H 	0.93173 0.90737 0.77507 0.24400
O 	O 	0.85533 0.63375 0.08527 -0.41000
O 	O 	0.84510 0.61287 0.20710 -0.41200
C 	C 	0.85490 0.61058 0.14000 0.37500
C 	C 	0.86807 0.57756 0.12170 -0.14900
C 	C 	0.87116 0.55233 0.17830 0.08800
H 	H 	0.86370 0.55480 0.22780 0.01500
C 	C 	0.88543 0.52329 0.16160 -0.17800
H 	H 	0.88670 0.50600 0.19980 0.10400
C 	C 	0.89742 0.51995 0.09010 0.14000
C 	C 	0.89432 0.54489 0.03400 -0.18100
H 	H 	0.90210 0.54270 0.98460 0.09500
C 	C 	0.87954 0.57351 0.05080 0.09300
H 	H 	0.87760 0.59020 0.01210 0.01400
C 	C 	0.91735 0.49260 0.07240 -0.08800
C 	C 	0.95696 0.51182 0.03670 -0.03400
H 	H 	0.97010 0.54110 0.02480 0.04300
H 	H 	0.82500 0.39100 0.04720 -0.05100
H 	H 	0.75930 0.35770 0.10840 0.24400
O 	O 	0.52200 0.96708 0.41860 -0.41000
O 	O 	0.51177 0.94620 0.54043 -0.41200
C 	C 	0.52157 0.94391 0.47333 0.37500
C 	C 	0.53474 0.91089 0.45503 -0.14900
C 	C 	0.53783 0.88566 0.51163 0.08800
H 	H 	0.53037 0.88813 0.56113 0.01500
C 	C 	0.55210 0.85662 0.49493 -0.17800
H 	H 	0.55337 0.83933 0.53313 0.10400
C 	C 	0.56409 0.85328 0.42343 0.14000
C 	C 	0.56099 0.87822 0.36733 -0.18100
H 	H 	0.56877 0.87603 0.31793 0.09500
C 	C 	0.54621 0.90684 0.38413 0.09300
H 	H 	0.54427 0.92353 0.34543 0.01400
C 	C 	0.58402 0.82593 0.40573 -0.08800
C 	C 	0.62363 0.84515 0.37003 -0.03400
H 	H 	0.63677 0.87443 0.35813 0.04300
H 	H 	0.49167 0.72433 0.38053 -0.05100
H 	H 	0.42597 0.69103 0.44173 0.24400
O 	O 	0.18866 0.30042 0.75194 -0.41000
O 	O 	0.17843 0.27954 0.87377 -0.41200
C 	C 	0.18823 0.27725 0.80667 0.37500
C 	C 	0.20140 0.24423 0.78837 -0.14900
C 	C 	0.20449 0.21900 0.84497 0.08800
H 	H 	0.19703 0.22147 0.89447 0.01500
C 	C 	0.21876 0.18996 0.82827 -0.17800
H 	H 	0.22003 0.17267 0.86647 0.10400
C 	C 	0.23075 0.18662 0.75677 0.14000
C 	C 	0.22765 0.21156 0.70067 -0.18100
H 	H 	0.23543 0.20937 0.65127 0.09500
C 	C 	0.21287 0.24018 0.71747 0.09300
H 	H 	0.21093 0.25687 0.67877 0.01400
C 	C 	0.25068 0.15927 0.73907 -0.08800
C 	C 	0.29029 0.17849 0.70337 -0.03400
H 	H 	0.30343 0.20777 0.69147 0.04300
H 	H 	0.15833 0.05767 0.71387 -0.05100
H 	H 	0.09263 0.02437 0.77507 0.24400
O 	O 	0.36625 0.22158 0.08527 -0.41000
O 	O 	0.38713 0.23223 0.20710 -0.41200
C 	C 	0.38942 0.24432 0.14000 0.37500
C 	C 	0.42244 0.29051 0.12170 -0.14900
C 	C 	0.44767 0.31883 0.17830 0.08800
H 	H 	0.44520 0.30890 0.22780 0.01500
C 	C 	0.47671 0.36214 0.16160 -0.17800
H 	H 	0.49400 0.38070 0.19980 0.10400
C 	C 	0.48005 0.37747 0.09010 0.14000
C 	C 	0.45511 0.34943 0.03400 -0.18100
H 	H 	0.45730 0.35940 0.98460 0.09500
C 	C 	0.42649 0.30603 0.05080 0.09300
H 	H 	0.40980 0.28740 0.01210 0.01400
C 	C 	0.50740 0.42475 0.07240 -0.08800
C 	C 	0.48818 0.44514 0.03670 -0.03400
H 	H 	0.45890 0.42900 0.02480 0.04300
H 	H 	0.60900 0.43400 0.04720 -0.05100
H 	H 	0.64230 0.40160 0.10840 0.24400
O 	O 	0.03292 0.55491 0.41860 -0.41000
O 	O 	0.05380 0.56556 0.54043 -0.41200
C 	C 	0.05609 0.57765 0.47333 0.37500
C 	C 	0.08911 0.62384 0.45503 -0.14900
C 	C 	0.11434 0.65216 0.51163 0.08800
H 	H 	0.11187 0.64223 0.56113 0.01500
C 	C 	0.14338 0.69547 0.49493 -0.17800
H 	H 	0.16067 0.71403 0.53313 0.10400
C 	C 	0.14672 0.71080 0.42343 0.14000
C 	C 	0.12178 0.68276 0.36733 -0.18100
H 	H 	0.12397 0.69273 0.31793 0.09500
C 	C 	0.09316 0.63936 0.38413 0.09300
H 	H 	0.07647 0.62073 0.34543 0.01400
C 	C 	0.17407 0.75808 0.40573 -0.08900
C 	C 	0.15485 0.77847 0.37003 -0.03400
H 	H 	0.12557 0.76233 0.35813 0.04300
H 	H 	0.27567 0.76733 0.38053 -0.05100
H 	H 	0.30897 0.73493 0.44173 0.24400
O 	O 	0.69958 0.88825 0.75194 -0.41000
O 	O 	0.72046 0.89890 0.87377 -0.41200
C 	C 	0.72275 0.91099 0.80667 0.37500
C 	C 	0.75577 0.95718 0.78837 -0.14900
C 	C 	0.78100 0.98550 0.84497 0.08800
H 	H 	0.77853 0.97557 0.89447 0.01500
C 	C 	0.81004 0.02881 0.82827 -0.17800
H 	H 	0.82733 0.04737 0.86647 0.10400
C 	C 	0.81338 0.04414 0.75677 0.14000
C 	C 	0.78844 0.01610 0.70067 -0.18100
H 	H 	0.79063 0.02607 0.65127 0.09500
C 	C 	0.75982 0.97270 0.71747 0.09300
H 	H 	0.74313 0.95407 0.67877 0.01400
C 	C 	0.84073 0.09142 0.73907 -0.08800
C 	C 	0.82151 0.11181 0.70337 -0.03400
H 	H 	0.79223 0.09567 0.69147 0.04300
H 	H 	0.94233 0.10067 0.71387 -0.05100
H 	H 	0.97563 0.06827 0.77507 0.24400
O 	O 	0.14467 0.77842 0.91473 -0.41000
O 	O 	0.15490 0.76777 0.79290 -0.41200
C 	C 	0.14510 0.75568 0.86000 0.37500
C 	C 	0.13193 0.70949 0.87830 -0.14900
C 	C 	0.12884 0.68117 0.82170 0.08800
H 	H 	0.13630 0.69110 0.77220 0.01500
C 	C 	0.11457 0.63786 0.83840 -0.17800
H 	H 	0.11330 0.61930 0.80020 0.10400
C 	C 	0.10258 0.62253 0.90990 0.14000
C 	C 	0.10568 0.65057 0.96600 -0.18100
H 	H 	0.09790 0.64060 0.01540 0.09500
C 	C 	0.12046 0.69397 0.94920 0.09300
H 	H 	0.12240 0.71260 0.98790 0.01400
C 	C 	0.08265 0.57525 0.92760 -0.08800
C 	C 	0.04304 0.55486 0.96330 -0.03400
H 	H 	0.02990 0.57100 0.97520 0.04300
H 	H 	0.17500 0.56600 0.95280 -0.05100
H 	H 	0.24070 0.59840 0.89160 0.24400
O 	O 	0.81134 0.11175 0.24806 -0.41000
O 	O 	0.82157 0.10110 0.12623 -0.41200
C 	C 	0.81177 0.08901 0.19333 0.37500
C 	C 	0.79860 0.04282 0.21163 -0.15000
C 	C 	0.79551 0.01450 0.15503 0.08800
H 	H 	0.80297 0.02443 0.10553 0.01500
C 	C 	0.78124 0.97119 0.17173 -0.17800
H 	H 	0.77997 0.95263 0.13353 0.10400
C 	C 	0.76925 0.95586 0.24323 0.14000
C 	C 	0.77235 0.98390 0.29933 -0.18100
H 	H 	0.76457 0.97393 0.34873 0.09500
C 	C 	0.78713 0.02730 0.28253 0.09300
H 	H 	0.78907 0.04593 0.32123 0.01400
C 	C 	0.74932 0.90858 0.26093 -0.08900
C 	C 	0.70971 0.88819 0.29663 -0.03400
H 	H 	0.69657 0.90433 0.30853 0.04300
H 	H 	0.84167 0.89933 0.28613 -0.05100
H 	H 	0.90737 0.93173 0.22493 0.24400
O 	O 	0.47800 0.44509 0.58140 -0.41000
O 	O 	0.48823 0.43444 0.45957 -0.41200
C 	C 	0.47843 0.42235 0.52667 0.37500
C 	C 	0.46526 0.37616 0.54497 -0.14900
C 	C 	0.46217 0.34784 0.48837 0.08800
H 	H 	0.46963 0.35777 0.43887 0.01500
C 	C 	0.44790 0.30453 0.50507 -0.17800
H 	H 	0.44663 0.28597 0.46687 0.10400
C 	C 	0.43591 0.28920 0.57657 0.14000
C 	C 	0.43901 0.31724 0.63267 -0.18100
H 	H 	0.43123 0.30727 0.68207 0.09500
C 	C 	0.45379 0.36064 0.61587 0.09300
H 	H 	0.45573 0.37927 0.65457 0.01400
C 	C 	0.41598 0.24192 0.59427 -0.08800
C 	C 	0.37637 0.22153 0.62997 -0.03400
H 	H 	0.36323 0.23767 0.64187 0.04300
H 	H 	0.50833 0.23267 0.61947 -0.05100
H 	H 	0.57403 0.26507 0.55827 0.24400
O 	O 	0.63375 0.85533 0.91473 -0.41000
O 	O 	0.61287 0.84510 0.79290 -0.41200
C 	C 	0.61058 0.85490 0.86000 0.37500
C 	C 	0.57756 0.86807 0.87830 -0.14900
C 	C 	0.55233 0.87116 0.82170 0.08800
H 	H 	0.55480 0.86370 0.77220 0.01500
C 	C 	0.52329 0.88543 0.83840 -0.17800
H 	H 	0.50600 0.88670 0.80020 0.10400
C 	C 	0.51995 0.89742 0.90990 0.14000
C 	C 	0.54489 0.89432 0.96600 -0.18100
H 	H 	0.54270 0.90210 0.01540 0.09500
C 	C 	0.57351 0.87954 0.94920 0.09300
H 	H 	0.59020 0.87760 0.98790 0.01400
C 	C 	0.49260 0.91735 0.92760 -0.08800
C 	C 	0.51182 0.95696 0.96330 -0.03400
H 	H 	0.54110 0.97010 0.97520 0.04300
H 	H 	0.39100 0.82500 0.95280 -0.05100
H 	H 	0.35770 0.75930 0.89160 0.24400
O 	O 	0.30042 0.18866 0.24806 -0.41000
O 	O 	0.27954 0.17843 0.12623 -0.41200
C 	C 	0.27725 0.18823 0.19333 0.37500
C 	C 	0.24423 0.20140 0.21163 -0.14900
C 	C 	0.21900 0.20449 0.15503 0.08800
H 	H 	0.22147 0.19703 0.10553 0.01500
C 	C 	0.18996 0.21876 0.17173 -0.17800
H 	H 	0.17267 0.22003 0.13353 0.10400
C 	C 	0.18662 0.23075 0.24323 0.14000
C 	C 	0.21156 0.22765 0.29933 -0.18100
H 	H 	0.20937 0.23543 0.34873 0.09500
C 	C 	0.24018 0.21287 0.28253 0.09300
H 	H 	0.25687 0.21093 0.32123 0.01400
C 	C 	0.15927 0.25068 0.26093 -0.08800
C 	C 	0.17849 0.29029 0.29663 -0.03400
H 	H 	0.20777 0.30343 0.30853 0.04300
H 	H 	0.05767 0.15833 0.28613 -0.05100
H 	H 	0.02437 0.09263 0.22493 0.24400
O 	O 	0.96708 0.52200 0.58140 -0.41000
O 	O 	0.94620 0.51177 0.45957 -0.41200
C 	C 	0.94391 0.52157 0.52667 0.37500
C 	C 	0.91089 0.53474 0.54497 -0.14900
C 	C 	0.88566 0.53783 0.48837 0.08800
H 	H 	0.88813 0.53037 0.43887 0.01500
C 	C 	0.85662 0.55210 0.50507 -0.17800
H 	H 	0.83933 0.55337 0.46687 0.10400
C 	C 	0.85328 0.56409 0.57657 0.14000
C 	C 	0.87822 0.56099 0.63267 -0.18100
H 	H 	0.87603 0.56877 0.68207 0.09500
C 	C 	0.90684 0.54621 0.61587 0.09300
H 	H 	0.92353 0.54427 0.65457 0.01400
C 	C 	0.82593 0.58402 0.59427 -0.08800
C 	C 	0.84515 0.62363 0.62997 -0.03400
H 	H 	0.87443 0.63677 0.64187 0.04300
H 	H 	0.72433 0.49167 0.61947 -0.05100
H 	H 	0.69103 0.42597 0.55827 0.24400
O 	O 	0.22158 0.36625 0.91473 -0.41000
O 	O 	0.23223 0.38713 0.79290 -0.41200
C 	C 	0.24432 0.38942 0.86000 0.37500
C 	C 	0.29051 0.42244 0.87830 -0.14900
C 	C 	0.31883 0.44767 0.82170 0.08800
H 	H 	0.30890 0.44520 0.77220 0.01500
C 	C 	0.36214 0.47671 0.83840 -0.17800
H 	H 	0.38070 0.49400 0.80020 0.10400
C 	C 	0.37747 0.48005 0.90990 0.14000
C 	C 	0.34943 0.45511 0.96600 -0.18100
H 	H 	0.35940 0.45730 0.01540 0.09500
C 	C 	0.30603 0.42649 0.94920 0.09300
H 	H 	0.28740 0.40980 0.98790 0.01400
C 	C 	0.42475 0.50740 0.92760 -0.08800
C 	C 	0.44514 0.48818 0.96330 -0.03400
H 	H 	0.42900 0.45890 0.97520 0.04300
H 	H 	0.43400 0.60900 0.95280 -0.05100
H 	H 	0.40160 0.64230 0.89160 0.24400
O 	O 	0.88825 0.69958 0.24806 -0.41000
O 	O 	0.89890 0.72046 0.12623 -0.41200
C 	C 	0.91099 0.72275 0.19333 0.37500
C 	C 	0.95718 0.75577 0.21163 -0.14900
C 	C 	0.98550 0.78100 0.15503 0.08800
H 	H 	0.97557 0.77853 0.10553 0.01500
C 	C 	0.02881 0.81004 0.17173 -0.17800
H 	H 	0.04737 0.82733 0.13353 0.10400
C 	C 	0.04414 0.81338 0.24323 0.14000
C 	C 	0.01610 0.78844 0.29933 -0.18100
H 	H 	0.02607 0.79063 0.34873 0.09500
C 	C 	0.97270 0.75982 0.28253 0.09300
H 	H 	0.95407 0.74313 0.32123 0.01400
C 	C 	0.09142 0.84073 0.26093 -0.08800
C 	C 	0.11181 0.82151 0.29663 -0.03400
H 	H 	0.09567 0.79223 0.30853 0.04300
H 	H 	0.10067 0.94233 0.28613 -0.05100
H 	H 	0.06827 0.97563 0.22493 0.24400
O 	O 	0.55491 0.03292 0.58140 -0.41000
O 	O 	0.56556 0.05380 0.45957 -0.41200
C 	C 	0.57765 0.05609 0.52667 0.37500
C 	C 	0.62384 0.08911 0.54497 -0.14900
C 	C 	0.65216 0.11434 0.48837 0.08800
H 	H 	0.64223 0.11187 0.43887 0.01500
C 	C 	0.69547 0.14338 0.50507 -0.17800
H 	H 	0.71403 0.16067 0.46687 0.10400
C 	C 	0.71080 0.14672 0.57657 0.14000
C 	C 	0.68276 0.12178 0.63267 -0.18100
H 	H 	0.69273 0.12397 0.68207 0.09500
C 	C 	0.63936 0.09316 0.61587 0.09300
H 	H 	0.62073 0.07647 0.65457 0.01400
C 	C 	0.75808 0.17407 0.59427 -0.08900
C 	C 	0.77847 0.15485 0.62997 -0.03400
H 	H 	0.76233 0.12557 0.64187 0.04300
H 	H 	0.76733 0.27567 0.61947 -0.05100
H 	H 	0.73493 0.30897 0.55827 0.24400
O 	O 	0.22158 0.85533 0.91473 -0.41000
O 	O 	0.23223 0.84510 0.79290 -0.41200
C 	C 	0.24432 0.85490 0.86000 0.37500
C 	C 	0.29051 0.86807 0.87830 -0.14900
C 	C 	0.31883 0.87116 0.82170 0.08800
H 	H 	0.30890 0.86370 0.77220 0.01500
C 	C 	0.36214 0.88543 0.83840 -0.17800
H 	H 	0.38070 0.88670 0.80020 0.10400
C 	C 	0.37747 0.89742 0.90990 0.14000
C 	C 	0.34943 0.89432 0.96600 -0.18100
H 	H 	0.35940 0.90210 0.01540 0.09500
C 	C 	0.30603 0.87954 0.94920 0.09300
H 	H 	0.28740 0.87760 0.98790 0.01400
C 	C 	0.42475 0.91735 0.92760 -0.08800
C 	C 	0.44514 0.95696 0.96330 -0.03400
H 	H 	0.42900 0.97010 0.97520 0.04300
H 	H 	0.43400 0.82500 0.95280 -0.05100
H 	H 	0.40160 0.75930 0.89160 0.24400
O 	O 	0.88825 0.18866 0.24806 -0.41000
O 	O 	0.89890 0.17843 0.12623 -0.41200
C 	C 	0.91099 0.18823 0.19333 0.37500
C 	C 	0.95718 0.20140 0.21163 -0.15000
C 	C 	0.98550 0.20449 0.15503 0.08800
H 	H 	0.97557 0.19703 0.10553 0.01500
C 	C 	0.02881 0.21876 0.17173 -0.17800
H 	H 	0.04737 0.22003 0.13353 0.10400
C 	C 	0.04414 0.23075 0.24323 0.14000
C 	C 	0.01610 0.22765 0.29933 -0.18100
H 	H 	0.02607 0.23543 0.34873 0.09500
C 	C 	0.97270 0.21287 0.28253 0.09300
H 	H 	0.95407 0.21093 0.32123 0.01400
C 	C 	0.09142 0.25068 0.26093 -0.08900
C 	C 	0.11181 0.29029 0.29663 -0.03400
H 	H 	0.09567 0.30343 0.30853 0.04300
H 	H 	0.10067 0.15833 0.28613 -0.05100
H 	H 	0.06827 0.09263 0.22493 0.24400
O 	O 	0.55491 0.52200 0.58140 -0.41000
O 	O 	0.56556 0.51177 0.45957 -0.41200
C 	C 	0.57765 0.52157 0.52667 0.37500
C 	C 	0.62384 0.53474 0.54497 -0.14900
C 	C 	0.65216 0.53783 0.48837 0.08800
H 	H 	0.64223 0.53037 0.43887 0.01500
C 	C 	0.69547 0.55210 0.50507 -0.17800
H 	H 	0.71403 0.55337 0.46687 0.10400
C 	C 	0.71080 0.56409 0.57657 0.14000
C 	C 	0.68276 0.56099 0.63267 -0.18100
H 	H 	0.69273 0.56877 0.68207 0.09500
C 	C 	0.63936 0.54621 0.61587 0.09300
H 	H 	0.62073 0.54427 0.65457 0.01400
C 	C 	0.75808 0.58402 0.59427 -0.08800
C 	C 	0.77847 0.62363 0.62997 -0.03400
H 	H 	0.76233 0.63677 0.64187 0.04300
H 	H 	0.76733 0.49167 0.61947 -0.05100
H 	H 	0.73493 0.42597 0.55827 0.24400
O 	O 	0.14467 0.36625 0.91473 -0.41000
O 	O 	0.15490 0.38713 0.79290 -0.41200
C 	C 	0.14510 0.38942 0.86000 0.37500
C 	C 	0.13193 0.42244 0.87830 -0.14900
C 	C 	0.12884 0.44767 0.82170 0.08800
H 	H 	0.13630 0.44520 0.77220 0.01500
C 	C 	0.11457 0.47671 0.83840 -0.17800
H 	H 	0.11330 0.49400 0.80020 0.10400
C 	C 	0.10258 0.48005 0.90990 0.14000
C 	C 	0.10568 0.45511 0.96600 -0.18100
H 	H 	0.09790 0.45730 0.01540 0.09500
C 	C 	0.12046 0.42649 0.94920 0.09300
H 	H 	0.12240 0.40980 0.98790 0.01400
C 	C 	0.08265 0.50740 0.92760 -0.08800
C 	C 	0.04304 0.48818 0.96330 -0.03400
H 	H 	0.02990 0.45890 0.97520 0.04300
H 	H 	0.17500 0.60900 0.95280 -0.05100
H 	H 	0.24070 0.64230 0.89160 0.24400
O 	O 	0.81134 0.69958 0.24806 -0.41000
O 	O 	0.82157 0.72046 0.12623 -0.41200
C 	C 	0.81177 0.72275 0.19333 0.37500
C 	C 	0.79860 0.75577 0.21163 -0.14900
C 	C 	0.79551 0.78100 0.15503 0.08800
H 	H 	0.80297 0.77853 0.10553 0.01500
C 	C 	0.78124 0.81004 0.17173 -0.17800
H 	H 	0.77997 0.82733 0.13353 0.10400
C 	C 	0.76925 0.81338 0.24323 0.14000
C 	C 	0.77235 0.78844 0.29933 -0.18100
H 	H 	0.76457 0.79063 0.34873 0.09500
C 	C 	0.78713 0.75982 0.28253 0.09300
H 	H 	0.78907 0.74313 0.32123 0.01400
C 	C 	0.74932 0.84073 0.26093 -0.08800
C 	C 	0.70971 0.82151 0.29663 -0.03400
H 	H 	0.69657 0.79223 0.30853 0.04300
H 	H 	0.84167 0.94233 0.28613 -0.05100
H 	H 	0.90737 0.97563 0.22493 0.24400
O 	O 	0.47800 0.03292 0.58140 -0.41000
O 	O 	0.48823 0.05380 0.45957 -0.41200
C 	C 	0.47843 0.05609 0.52667 0.37500
C 	C 	0.46526 0.08911 0.54497 -0.14900
C 	C 	0.46217 0.11434 0.48837 0.08800
H 	H 	0.46963 0.11187 0.43887 0.01500
C 	C 	0.44790 0.14338 0.50507 -0.17800
H 	H 	0.44663 0.16067 0.46687 0.10400
C 	C 	0.43591 0.14672 0.57657 0.14000
C 	C 	0.43901 0.12178 0.63267 -0.18100
H 	H 	0.43123 0.12397 0.68207 0.09500
C 	C 	0.45379 0.09316 0.61587 0.09300
H 	H 	0.45573 0.07647 0.65457 0.01400
C 	C 	0.41598 0.17407 0.59427 -0.08800
C 	C 	0.37637 0.15485 0.62997 -0.03400
H 	H 	0.36323 0.12557 0.64187 0.04300
H 	H 	0.50833 0.27567 0.61947 -0.05100
H 	H 	0.57403 0.30897 0.55827 0.24400
O 	O 	0.63375 0.77842 0.91473 -0.41000
O 	O 	0.61287 0.76777 0.79290 -0.41200
C 	C 	0.61058 0.75568 0.86000 0.37500
C 	C 	0.57756 0.70949 0.87830 -0.14900
C 	C 	0.55233 0.68117 0.82170 0.08800
H 	H 	0.55480 0.69110 0.77220 0.01500
C 	C 	0.52329 0.63786 0.83840 -0.17800
H 	H 	0.50600 0.61930 0.80020 0.10400
C 	C 	0.51995 0.62253 0.90990 0.14000
C 	C 	0.54489 0.65057 0.96600 -0.18100
H 	H 	0.54270 0.64060 0.01540 0.09500
C 	C 	0.57351 0.69397 0.94920 0.09300
H 	H 	0.59020 0.71260 0.98790 0.01400
C 	C 	0.49260 0.57525 0.92760 -0.08800
C 	C 	0.51182 0.55486 0.96330 -0.03400
H 	H 	0.54110 0.57100 0.97520 0.04300
H 	H 	0.39100 0.56600 0.95280 -0.05100
H 	H 	0.35770 0.59840 0.89160 0.24400
O 	O 	0.30042 0.11175 0.24806 -0.41000
O 	O 	0.27954 0.10110 0.12623 -0.41200
C 	C 	0.27725 0.08901 0.19333 0.37500
C 	C 	0.24423 0.04282 0.21163 -0.14900
C 	C 	0.21900 0.01450 0.15503 0.08800
H 	H 	0.22147 0.02443 0.10553 0.01500
C 	C 	0.18996 0.97119 0.17173 -0.17800
H 	H 	0.17267 0.95263 0.13353 0.10400
C 	C 	0.18662 0.95586 0.24323 0.14000
C 	C 	0.21156 0.98390 0.29933 -0.18100
H 	H 	0.20937 0.97393 0.34873 0.09500
C 	C 	0.24018 0.02730 0.28253 0.09300
H 	H 	0.25687 0.04593 0.32123 0.01400
C 	C 	0.15927 0.90858 0.26093 -0.08800
C 	C 	0.17849 0.88819 0.29663 -0.03400
H 	H 	0.20777 0.90433 0.30853 0.04300
H 	H 	0.05767 0.89933 0.28613 -0.05100
H 	H 	0.02437 0.93173 0.22493 0.24400
O 	O 	0.96708 0.44509 0.58140 -0.41000
O 	O 	0.94620 0.43444 0.45957 -0.41200
C 	C 	0.94391 0.42235 0.52667 0.37500
C 	C 	0.91089 0.37616 0.54497 -0.14900
C 	C 	0.88566 0.34784 0.48837 0.08800
H 	H 	0.88813 0.35777 0.43887 0.01500
C 	C 	0.85662 0.30453 0.50507 -0.17800
H 	H 	0.83933 0.28597 0.46687 0.10400
C 	C 	0.85328 0.28920 0.57657 0.14000
C 	C 	0.87822 0.31724 0.63267 -0.18100
H 	H 	0.87603 0.30727 0.68207 0.09500
C 	C 	0.90684 0.36064 0.61587 0.09300
H 	H 	0.92353 0.37927 0.65457 0.01400
C 	C 	0.82593 0.24192 0.59427 -0.08900
C 	C 	0.84515 0.22153 0.62997 -0.03400
H 	H 	0.87443 0.23767 0.64187 0.04300
H 	H 	0.72433 0.23267 0.61947 -0.05100
H 	H 	0.69103 0.26507 0.55827 0.24400
O 	O 	0.85533 0.22158 0.08527 -0.41000
O 	O 	0.84510 0.23223 0.20710 -0.41200
C 	C 	0.85490 0.24432 0.14000 0.37500
C 	C 	0.86807 0.29051 0.12170 -0.14900
C 	C 	0.87116 0.31883 0.17830 0.08800
H 	H 	0.86370 0.30890 0.22780 0.01500
C 	C 	0.88543 0.36214 0.16160 -0.17800
H 	H 	0.88670 0.38070 0.19980 0.10400
C 	C 	0.89742 0.37747 0.09010 0.14000
C 	C 	0.89432 0.34943 0.03400 -0.18100
H 	H 	0.90210 0.35940 0.98460 0.09500
C 	C 	0.87954 0.30603 0.05080 0.09300
H 	H 	0.87760 0.28740 0.01210 0.01400
C 	C 	0.91735 0.42475 0.07240 -0.08800
C 	C 	0.95696 0.44514 0.03670 -0.03400
H 	H 	0.97010 0.42900 0.02480 0.04300
H 	H 	0.82500 0.43400 0.04720 -0.05100
H 	H 	0.75930 0.40160 0.10840 0.24400
O 	O 	0.52200 0.55491 0.41860 -0.41000
O 	O 	0.51177 0.56556 0.54043 -0.41200
C 	C 	0.52157 0.57765 0.47333 0.37500
C 	C 	0.53474 0.62384 0.45503 -0.14900
C 	C 	0.53783 0.65216 0.51163 0.08800
H 	H 	0.53037 0.64223 0.56113 0.01500
C 	C 	0.55210 0.69547 0.49493 -0.17800
H 	H 	0.55337 0.71403 0.53313 0.10400
C 	C 	0.56409 0.71080 0.42343 0.14000
C 	C 	0.56099 0.68276 0.36733 -0.18100
H 	H 	0.56877 0.69273 0.31793 0.09500
C 	C 	0.54621 0.63936 0.38413 0.09300
H 	H 	0.54427 0.62073 0.34543 0.01400
C 	C 	0.58402 0.75808 0.40573 -0.08800
C 	C 	0.62363 0.77847 0.37003 -0.03400
H 	H 	0.63677 0.76233 0.35813 0.04300
H 	H 	0.49167 0.76733 0.38053 -0.05100
H 	H 	0.42597 0.73493 0.44173 0.24400
O 	O 	0.18866 0.88825 0.75194 -0.41000
O 	O 	0.17843 0.89890 0.87377 -0.41200
C 	C 	0.18823 0.91099 0.80667 0.37500
C 	C 	0.20140 0.95718 0.78837 -0.15000
C 	C 	0.20449 0.98550 0.84497 0.08800
H 	H 	0.19703 0.97557 0.89447 0.01500
C 	C 	0.21876 0.02881 0.82827 -0.17800
H 	H 	0.22003 0.04737 0.86647 0.10400
C 	C 	0.23075 0.04414 0.75677 0.14000
C 	C 	0.22765 0.01610 0.70067 -0.18100
H 	H 	0.23543 0.02607 0.65127 0.09500
C 	C 	0.21287 0.97270 0.71747 0.09300
H 	H 	0.21093 0.95407 0.67877 0.01400
C 	C 	0.25068 0.09142 0.73907 -0.08900
C 	C 	0.29029 0.11181 0.70337 -0.03400
H 	H 	0.30343 0.09567 0.69147 0.04300
H 	H 	0.15833 0.10067 0.71387 -0.05100
H 	H 	0.09263 0.06827 0.77507 0.24400
O 	O 	0.36625 0.14467 0.08527 -0.41000
O 	O 	0.38713 0.15490 0.20710 -0.41200
C 	C 	0.38942 0.14510 0.14000 0.37500
C 	C 	0.42244 0.13193 0.12170 -0.14900
C 	C 	0.44767 0.12884 0.17830 0.08800
H 	H 	0.44520 0.13630 0.22780 0.01500
C 	C 	0.47671 0.11457 0.16160 -0.17800
H 	H 	0.49400 0.11330 0.19980 0.10400
C 	C 	0.48005 0.10258 0.09010 0.14000
C 	C 	0.45511 0.10568 0.03400 -0.18100
H 	H 	0.45730 0.09790 0.98460 0.09500
C 	C 	0.42649 0.12046 0.05080 0.09300
H 	H 	0.40980 0.12240 0.01210 0.01400
C 	C 	0.50740 0.08265 0.07240 -0.08800
C 	C 	0.48818 0.04304 0.03670 -0.03400
H 	H 	0.45890 0.02990 0.02480 0.04300
H 	H 	0.60900 0.17500 0.04720 -0.05100
H 	H 	0.64230 0.24070 0.10840 0.24400
O 	O 	0.03292 0.47800 0.41860 -0.41000
O 	O 	0.05380 0.48823 0.54043 -0.41200
C 	C 	0.05609 0.47843 0.47333 0.37500
C 	C 	0.08911 0.46526 0.45503 -0.14900
C 	C 	0.11434 0.46217 0.51163 0.08800
H 	H 	0.11187 0.46963 0.56113 0.01500
C 	C 	0.14338 0.44790 0.49493 -0.17800
H 	H 	0.16067 0.44663 0.53313 0.10400
C 	C 	0.14672 0.43591 0.42343 0.14000
C 	C 	0.12178 0.43901 0.36733 -0.18100
H 	H 	0.12397 0.43123 0.31793 0.09500
C 	C 	0.09316 0.45379 0.38413 0.09300
H 	H 	0.07647 0.45573 0.34543 0.01400
C 	C 	0.17407 0.41598 0.40573 -0.08800
C 	C 	0.15485 0.37637 0.37003 -0.03400
H 	H 	0.12557 0.36323 0.35813 0.04300
H 	H 	0.27567 0.50833 0.38053 -0.05100
H 	H 	0.30897 0.57403 0.44173 0.24400
O 	O 	0.69958 0.81134 0.75194 -0.41000
O 	O 	0.72046 0.82157 0.87377 -0.41200
C 	C 	0.72275 0.81177 0.80667 0.37500
C 	C 	0.75577 0.79860 0.78837 -0.14900
C 	C 	0.78100 0.79551 0.84497 0.08800
H 	H 	0.77853 0.80297 0.89447 0.01500
C 	C 	0.81004 0.78124 0.82827 -0.17800
H 	H 	0.82733 0.77997 0.86647 0.10400
C 	C 	0.81338 0.76925 0.75677 0.14000
C 	C 	0.78844 0.77235 0.70067 -0.18100
H 	H 	0.79063 0.76457 0.65127 0.09500
C 	C 	0.75982 0.78713 0.71747 0.09300
H 	H 	0.74313 0.78907 0.67877 0.01400
C 	C 	0.84073 0.74932 0.73907 -0.08800
C 	C 	0.82151 0.70971 0.70337 -0.03400
H 	H 	0.79223 0.69657 0.69147 0.04300
H 	H 	0.94233 0.84167 0.71387 -0.05100
H 	H 	0.97563 0.90737 0.77507 0.24400
O 	O 	0.77842 0.63375 0.08527 -0.41000
O 	O 	0.76777 0.61287 0.20710 -0.41200
C 	C 	0.75568 0.61058 0.14000 0.37500
C 	C 	0.70949 0.57756 0.12170 -0.14900
C 	C 	0.68117 0.55233 0.17830 0.08800
H 	H 	0.69110 0.55480 0.22780 0.01500
C 	C 	0.63786 0.52329 0.16160 -0.17800
H 	H 	0.61930 0.50600 0.19980 0.10400
C 	C 	0.62253 0.51995 0.09010 0.14000
C 	C 	0.65057 0.54489 0.03400 -0.18100
H 	H 	0.64060 0.54270 0.98460 0.09500
C 	C 	0.69397 0.57351 0.05080 0.09300
H 	H 	0.71260 0.59020 0.01210 0.01400
C 	C 	0.57525 0.49260 0.07240 -0.08800
C 	C 	0.55486 0.51182 0.03670 -0.03400
H 	H 	0.57100 0.54110 0.02480 0.04300
H 	H 	0.56600 0.39100 0.04720 -0.05100
H 	H 	0.59840 0.35770 0.10840 0.24400
O 	O 	0.44509 0.96708 0.41860 -0.41000
O 	O 	0.43444 0.94620 0.54043 -0.41200
C 	C 	0.42235 0.94391 0.47333 0.37500
C 	C 	0.37616 0.91089 0.45503 -0.14900
C 	C 	0.34784 0.88566 0.51163 0.08800
H 	H 	0.35777 0.88813 0.56113 0.01500
C 	C 	0.30453 0.85662 0.49493 -0.17800
H 	H 	0.28597 0.83933 0.53313 0.10400
C 	C 	0.28920 0.85328 0.42343 0.14000
C 	C 	0.31724 0.87822 0.36733 -0.18100
H 	H 	0.30727 0.87603 0.31793 0.09500
C 	C 	0.36064 0.90684 0.38413 0.09300
H 	H 	0.37927 0.92353 0.34543 0.01400
C 	C 	0.24192 0.82593 0.40573 -0.08900
C 	C 	0.22153 0.84515 0.37003 -0.03400
H 	H 	0.23767 0.87443 0.35813 0.04300
H 	H 	0.23267 0.72433 0.38053 -0.05100
H 	H 	0.26507 0.69103 0.44173 0.24400
O 	O 	0.11175 0.30042 0.75194 -0.41000
O 	O 	0.10110 0.27954 0.87377 -0.41200
C 	C 	0.08901 0.27725 0.80667 0.37500
C 	C 	0.04282 0.24423 0.78837 -0.14900
C 	C 	0.01450 0.21900 0.84497 0.08800
H 	H 	0.02443 0.22147 0.89447 0.01500
C 	C 	0.97119 0.18996 0.82827 -0.17800
H 	H 	0.95263 0.17267 0.86647 0.10400
C 	C 	0.95586 0.18662 0.75677 0.14000
C 	C 	0.98390 0.21156 0.70067 -0.18100
H 	H 	0.97393 0.20937 0.65127 0.09500
C 	C 	0.02730 0.24018 0.71747 0.09300
H 	H 	0.04593 0.25687 0.67877 0.01400
C 	C 	0.90858 0.15927 0.73907 -0.08800
C 	C 	0.88819 0.17849 0.70337 -0.03400
H 	H 	0.90433 0.20777 0.69147 0.04300
H 	H 	0.89933 0.05767 0.71387 -0.05100
H 	H 	0.93173 0.02437 0.77507 0.24400
Cu	Cu	0.83942 0.16058 0.09527 0.90200
Cu	Cu	0.50609 0.49391 0.42860 0.90200
Cu	Cu	0.17275 0.82725 0.76194 0.90200
Cu	Cu	0.83942 0.67884 0.09527 0.90200
Cu	Cu	0.50609 0.01217 0.42860 0.90200
Cu	Cu	0.17275 0.34551 0.76194 0.90200
Cu	Cu	0.32116 0.16058 0.09527 0.90200
Cu	Cu	0.98783 0.49391 0.42860 0.90200
Cu	Cu	0.65449 0.82725 0.76194 0.90200
Cu	Cu	0.16058 0.83942 0.90473 0.90200
Cu	Cu	0.82725 0.17275 0.23806 0.90200
Cu	Cu	0.49391 0.50609 0.57140 0.90200
Cu	Cu	0.67884 0.83942 0.90473 0.90200
Cu	Cu	0.34551 0.17275 0.23806 0.90200
Cu	Cu	0.01217 0.50609 0.57140 0.90200
Cu	Cu	0.16058 0.32116 0.90473 0.90200
Cu	Cu	0.82725 0.65449 0.23806 0.90200
Cu	Cu	0.49391 0.98783 0.57140 0.90200
O 	O 	0.57113 0.14225 0.12750 -0.27700
C 	C 	0.51085 0.02171 0.01770 0.00100
C 	C 	0.55138 0.10276 0.09130 0.16200
C 	C 	0.59025 0.18050 0.07930 0.30500
C 	C 	0.61545 0.23090 0.08220 -0.74700
H 	H 	0.62110 0.24220 0.03160 0.24000
O 	O 	0.23779 0.47558 0.46083 -0.27700
C 	C 	0.17752 0.35504 0.35103 0.00100
C 	C 	0.21805 0.43609 0.42463 0.16200
C 	C 	0.25692 0.51383 0.41263 0.30500
C 	C 	0.28212 0.56423 0.41553 -0.74700
H 	H 	0.28777 0.57553 0.36493 0.24000
O 	O 	0.90446 0.80892 0.79417 -0.27700
C 	C 	0.84419 0.68838 0.68437 0.00100
C 	C 	0.88471 0.76943 0.75797 0.16200
C 	C 	0.92358 0.84717 0.74597 0.30600
C 	C 	0.94878 0.89757 0.74887 -0.74700
H 	H 	0.95443 0.90887 0.69827 0.24000
O 	O 	0.85775 0.42888 0.12750 -0.27700
C 	C 	0.97829 0.48915 0.01770 0.00100
C 	C 	0.89724 0.44862 0.09130 0.16200
C 	C 	0.81950 0.40975 0.07930 0.30500
C 	C 	0.76910 0.38455 0.08220 -0.74700
H 	H 	0.75780 0.37890 0.03160 0.24000
O 	O 	0.52442 0.76221 0.46083 -0.27700
C 	C 	0.64496 0.82248 0.35103 0.00100
C 	C 	0.56391 0.78195 0.42463 0.16200
C 	C 	0.48617 0.74308 0.41263 0.30500
C 	C 	0.43577 0.71788 0.41553 -0.74700
H 	H 	0.42447 0.71223 0.36493 0.24000
O 	O 	0.19108 0.09554 0.79417 -0.27700
C 	C 	0.31162 0.15581 0.68437 0.00100
C 	C 	0.23057 0.11529 0.75797 0.16200
C 	C 	0.15283 0.07642 0.74597 0.30600
C 	C 	0.10243 0.05122 0.74887 -0.74700
H 	H 	0.09113 0.04557 0.69827 0.24000
O 	O 	0.57112 0.42888 0.12750 -0.27700
C 	C 	0.51085 0.48915 0.01770 0.00100
C 	C 	0.55138 0.44862 0.09130 0.16200
C 	C 	0.59025 0.40975 0.07930 0.30500
C 	C 	0.61545 0.38455 0.08220 -0.74700
H 	H 	0.62110 0.37890 0.03160 0.24000
O 	O 	0.23779 0.76221 0.46083 -0.27700
C 	C 	0.17752 0.82248 0.35103 0.00100
C 	C 	0.21805 0.78195 0.42463 0.16300
C 	C 	0.25692 0.74308 0.41263 0.30500
C 	C 	0.28212 0.71788 0.41553 -0.74700
H 	H 	0.28777 0.71223 0.36493 0.24000
O 	O 	0.90446 0.09554 0.79417 -0.27700
C 	C 	0.84419 0.15581 0.68437 0.00100
C 	C 	0.88471 0.11529 0.75797 0.16200
C 	C 	0.92358 0.07642 0.74597 0.30600
C 	C 	0.94878 0.05122 0.74887 -0.74700
H 	H 	0.95443 0.04557 0.69827 0.24100
O 	O 	0.14225 0.57113 0.87250 -0.27700
C 	C 	0.02171 0.51085 0.98230 0.00100
C 	C 	0.10276 0.55138 0.90870 0.16200
C 	C 	0.18050 0.59025 0.92070 0.30500
C 	C 	0.23090 0.61545 0.91780 -0.74700
H 	H 	0.24220 0.62110 0.96840 0.24000
O 	O 	0.80892 0.90446 0.20583 -0.27700
C 	C 	0.68838 0.84419 0.31563 0.00100
C 	C 	0.76943 0.88471 0.24203 0.16200
C 	C 	0.84717 0.92358 0.25403 0.30600
C 	C 	0.89757 0.94878 0.25113 -0.74700
H 	H 	0.90887 0.95443 0.30173 0.24000
O 	O 	0.47558 0.23779 0.53917 -0.27700
C 	C 	0.35504 0.17752 0.64897 0.00100
C 	C 	0.43609 0.21805 0.57537 0.16200
C 	C 	0.51383 0.25692 0.58737 0.30500
C 	C 	0.56423 0.28212 0.58447 -0.74700
H 	H 	0.57553 0.28777 0.63507 0.24000
O 	O 	0.42888 0.85775 0.87250 -0.27700
C 	C 	0.48915 0.97829 0.98230 0.00100
C 	C 	0.44862 0.89724 0.90870 0.16200
C 	C 	0.40975 0.81950 0.92070 0.30500
C 	C 	0.38455 0.76910 0.91780 -0.74700
H 	H 	0.37890 0.75780 0.96840 0.24000
O 	O 	0.09554 0.19108 0.20583 -0.27700
C 	C 	0.15581 0.31162 0.31563 0.00100
C 	C 	0.11529 0.23057 0.24203 0.16200
C 	C 	0.07642 0.15283 0.25403 0.30600
C 	C 	0.05122 0.10243 0.25113 -0.74700
H 	H 	0.04557 0.09113 0.30173 0.24000
O 	O 	0.76221 0.52442 0.53917 -0.27700
C 	C 	0.82248 0.64496 0.64897 0.00100
C 	C 	0.78195 0.56391 0.57537 0.16200
C 	C 	0.74308 0.48617 0.58737 0.30500
C 	C 	0.71788 0.43577 0.58447 -0.74700
H 	H 	0.71223 0.42447 0.63507 0.24000
O 	O 	0.42888 0.57113 0.87250 -0.27700
C 	C 	0.48915 0.51085 0.98230 0.00100
C 	C 	0.44862 0.55138 0.90870 0.16200
C 	C 	0.40975 0.59025 0.92070 0.30500
C 	C 	0.38455 0.61545 0.91780 -0.74700
H 	H 	0.37890 0.62110 0.96840 0.24000
O 	O 	0.09554 0.90446 0.20583 -0.27700
C 	C 	0.15581 0.84419 0.31563 0.00100
C 	C 	0.11529 0.88471 0.24203 0.16200
C 	C 	0.07642 0.92358 0.25403 0.30600
C 	C 	0.05122 0.94878 0.25113 -0.74700
H 	H 	0.04557 0.95443 0.30173 0.24100
O 	O 	0.76221 0.23779 0.53917 -0.27700
C 	C 	0.82248 0.17752 0.64897 0.00100
C 	C 	0.78195 0.21805 0.57537 0.16300
C 	C 	0.74308 0.25692 0.58737 0.30500
C 	C 	0.71788 0.28212 0.58447 -0.74700
H 	H 	0.71223 0.28777 0.63507 0.24000
