data_crystal

_cell_length_a 35.13970
_cell_length_b 35.13970
_cell_length_c 21.87900
_cell_angle_alpha 90.00000
_cell_angle_beta  90.00000
_cell_angle_gamma 120.00000

_symmetry_space_group_name_	'P 1'
_symmetry_space_group_name_H-M	'P 1'

loop_
_symmetry_equiv_pos_as_xyz
  x,y,z

loop_
_atom_site_label
_atom_site_type_symbol
_atom_site_fract_x
_atom_site_fract_y
_atom_site_fract_z
_atom_site_charge
O 	O 	0.63751 0.77995 0.40332 -0.41000
O 	O 	0.61097 0.76636 0.30759 -0.41700
C 	C 	0.61269 0.75550 0.36085 0.37500
C 	C 	0.58058 0.70824 0.37920 -0.13200
C 	C 	0.55295 0.67884 0.33514 0.07400
H 	H 	0.55340 0.68790 0.29510 0.01800
C 	C 	0.52455 0.63546 0.35240 -0.16400
H 	H 	0.50570 0.61590 0.32310 0.09800
C 	C 	0.52316 0.62065 0.40940 0.12200
C 	C 	0.55036 0.65053 0.45470 -0.15500
H 	H 	0.54920 0.64150 0.49490 0.08800
C 	C 	0.57945 0.69463 0.43720 0.07200
H 	H 	0.59810 0.71460 0.46630 0.02300
C 	C 	0.49536 0.57361 0.42860 -0.07200
C 	C 	0.51329 0.55400 0.46360 -0.04100
H 	H 	0.54240 0.57090 0.47590 0.04600
H 	H 	0.37580 0.57950 0.33320 0.20700
H 	H 	0.43300 0.61240 0.44170 -0.01700
O 	O 	0.30418 0.11328 0.73665 -0.41000
O 	O 	0.27764 0.09969 0.64092 -0.41700
C 	C 	0.27936 0.08883 0.69418 0.37400
C 	C 	0.24725 0.04157 0.71253 -0.13100
C 	C 	0.21962 0.01217 0.66847 0.07200
H 	H 	0.22007 0.02123 0.62843 0.01800
C 	C 	0.19122 0.96879 0.68573 -0.16300
H 	H 	0.17237 0.94923 0.65643 0.09700
C 	C 	0.18983 0.95398 0.74273 0.12000
C 	C 	0.21703 0.98386 0.78803 -0.15500
H 	H 	0.21587 0.97483 0.82823 0.08700
C 	C 	0.24612 0.02796 0.77053 0.07000
H 	H 	0.26477 0.04793 0.79963 0.02200
C 	C 	0.16203 0.90694 0.76193 -0.07200
C 	C 	0.17996 0.88733 0.79693 -0.04200
H 	H 	0.20907 0.90423 0.80923 0.04500
H 	H 	0.04247 0.91283 0.66653 0.20600
H 	H 	0.09967 0.94573 0.77503 -0.01800
O 	O 	0.97084 0.44662 0.06999 -0.41100
O 	O 	0.94430 0.43303 0.97426 -0.41900
C 	C 	0.94602 0.42217 0.02752 0.37500
C 	C 	0.91391 0.37491 0.04587 -0.13300
C 	C 	0.88628 0.34551 0.00181 0.07400
H 	H 	0.88673 0.35457 0.96177 0.01600
C 	C 	0.85788 0.30213 0.01907 -0.16400
H 	H 	0.83903 0.28257 0.98977 0.09700
C 	C 	0.85649 0.28732 0.07607 0.12100
C 	C 	0.88369 0.31720 0.12137 -0.15600
H 	H 	0.88253 0.30817 0.16157 0.08700
C 	C 	0.91278 0.36130 0.10387 0.07200
H 	H 	0.93143 0.38127 0.13297 0.02200
C 	C 	0.82869 0.24028 0.09527 -0.07300
C 	C 	0.84662 0.22067 0.13027 -0.04200
H 	H 	0.87573 0.23757 0.14257 0.04500
H 	H 	0.70913 0.24617 0.99987 0.20400
H 	H 	0.76633 0.27907 0.10837 -0.01700
O 	O 	0.22005 0.85756 0.40332 -0.41100
O 	O 	0.23364 0.84461 0.30759 -0.41800
C 	C 	0.24450 0.85719 0.36085 0.37400
C 	C 	0.29176 0.87234 0.37920 -0.13300
C 	C 	0.32116 0.87411 0.33514 0.07300
H 	H 	0.31210 0.86550 0.29510 0.01700
C 	C 	0.36454 0.88909 0.35240 -0.16500
H 	H 	0.38410 0.88980 0.32310 0.09700
C 	C 	0.37935 0.90251 0.40940 0.12100
C 	C 	0.34947 0.89983 0.45470 -0.15600
H 	H 	0.35850 0.90770 0.49490 0.08700
C 	C 	0.30537 0.88482 0.43720 0.07100
H 	H 	0.28540 0.88350 0.46630 0.02200
C 	C 	0.42639 0.92175 0.42860 -0.07300
C 	C 	0.44600 0.95929 0.46360 -0.04200
H 	H 	0.42910 0.97150 0.47590 0.04500
H 	H 	0.42050 0.79630 0.33320 0.20600
H 	H 	0.38760 0.82060 0.44170 -0.01800
O 	O 	0.88672 0.19089 0.73665 -0.41100
O 	O 	0.90031 0.17794 0.64092 -0.41800
C 	C 	0.91117 0.19052 0.69418 0.37300
C 	C 	0.95843 0.20567 0.71253 -0.13200
C 	C 	0.98783 0.20744 0.66847 0.07200
H 	H 	0.97877 0.19883 0.62843 0.01800
C 	C 	0.03121 0.22242 0.68573 -0.16400
H 	H 	0.05077 0.22313 0.65643 0.09700
C 	C 	0.04602 0.23584 0.74273 0.12000
C 	C 	0.01614 0.23316 0.78803 -0.15500
H 	H 	0.02517 0.24103 0.82823 0.08700
C 	C 	0.97204 0.21815 0.77053 0.07000
H 	H 	0.95207 0.21683 0.79963 0.02200
C 	C 	0.09306 0.25508 0.76193 -0.07200
C 	C 	0.11267 0.29262 0.79693 -0.04200
H 	H 	0.09577 0.30483 0.80923 0.04500
H 	H 	0.08717 0.12963 0.66653 0.20600
H 	H 	0.05427 0.15393 0.77503 -0.01800
O 	O 	0.55338 0.52423 0.06999 -0.41100
O 	O 	0.56697 0.51128 0.97426 -0.41800
C 	C 	0.57783 0.52386 0.02752 0.37400
C 	C 	0.62509 0.53901 0.04587 -0.13300
C 	C 	0.65449 0.54078 0.00181 0.07300
H 	H 	0.64543 0.53217 0.96177 0.01700
C 	C 	0.69787 0.55576 0.01907 -0.16400
H 	H 	0.71743 0.55647 0.98977 0.09700
C 	C 	0.71268 0.56918 0.07607 0.12100
C 	C 	0.68280 0.56650 0.12137 -0.15600
H 	H 	0.69183 0.57437 0.16157 0.08700
C 	C 	0.63870 0.55149 0.10387 0.07100
H 	H 	0.61873 0.55017 0.13297 0.02200
C 	C 	0.75972 0.58842 0.09527 -0.07300
C 	C 	0.77933 0.62596 0.13027 -0.04200
H 	H 	0.76243 0.63817 0.14257 0.04500
H 	H 	0.75383 0.46297 0.99987 0.20500
H 	H 	0.72093 0.48727 0.10837 -0.01800
O 	O 	0.14244 0.36249 0.40332 -0.41100
O 	O 	0.15539 0.38903 0.30759 -0.41800
C 	C 	0.14281 0.38731 0.36085 0.37400
C 	C 	0.12766 0.41942 0.37920 -0.13300
C 	C 	0.12589 0.44705 0.33514 0.07300
H 	H 	0.13450 0.44660 0.29510 0.01700
C 	C 	0.11091 0.47545 0.35240 -0.16500
H 	H 	0.11020 0.49430 0.32310 0.09700
C 	C 	0.09749 0.47684 0.40940 0.12100
C 	C 	0.10017 0.44964 0.45470 -0.15600
H 	H 	0.09230 0.45080 0.49490 0.08700
C 	C 	0.11518 0.42055 0.43720 0.07100
H 	H 	0.11650 0.40190 0.46630 0.02200
C 	C 	0.07825 0.50464 0.42860 -0.07300
C 	C 	0.04071 0.48671 0.46360 -0.04200
H 	H 	0.02850 0.45760 0.47590 0.04500
H 	H 	0.20370 0.62420 0.33320 0.20600
H 	H 	0.17940 0.56700 0.44170 -0.01800
O 	O 	0.80911 0.69582 0.73665 -0.41100
O 	O 	0.82206 0.72236 0.64092 -0.41800
C 	C 	0.80948 0.72064 0.69418 0.37400
C 	C 	0.79433 0.75275 0.71253 -0.13300
C 	C 	0.79256 0.78038 0.66847 0.07300
H 	H 	0.80117 0.77993 0.62843 0.01700
C 	C 	0.77758 0.80878 0.68573 -0.16500
H 	H 	0.77687 0.82763 0.65643 0.09700
C 	C 	0.76416 0.81017 0.74273 0.12100
C 	C 	0.76684 0.78297 0.78803 -0.15600
H 	H 	0.75897 0.78413 0.82823 0.08700
C 	C 	0.78185 0.75388 0.77053 0.07100
H 	H 	0.78317 0.73523 0.79963 0.02200
C 	C 	0.74492 0.83797 0.76193 -0.07300
C 	C 	0.70738 0.82004 0.79693 -0.04200
H 	H 	0.69517 0.79093 0.80923 0.04500
H 	H 	0.87037 0.95753 0.66653 0.20600
H 	H 	0.84607 0.90033 0.77503 -0.01800
O 	O 	0.47577 0.02916 0.06999 -0.41100
O 	O 	0.48872 0.05570 0.97426 -0.41900
C 	C 	0.47614 0.05398 0.02752 0.37500
C 	C 	0.46099 0.08609 0.04587 -0.13300
C 	C 	0.45922 0.11372 0.00181 0.07400
H 	H 	0.46783 0.11327 0.96177 0.01700
C 	C 	0.44424 0.14212 0.01907 -0.16400
H 	H 	0.44353 0.16097 0.98977 0.09700
C 	C 	0.43082 0.14351 0.07607 0.12100
C 	C 	0.43350 0.11631 0.12137 -0.15600
H 	H 	0.42563 0.11747 0.16157 0.08700
C 	C 	0.44851 0.08722 0.10387 0.07200
H 	H 	0.44983 0.06857 0.13297 0.02200
C 	C 	0.41158 0.17131 0.09527 -0.07300
C 	C 	0.37404 0.15338 0.13027 -0.04200
H 	H 	0.36183 0.12427 0.14257 0.04500
H 	H 	0.53703 0.29087 0.99987 0.20500
H 	H 	0.51273 0.23367 0.10837 -0.01800
O 	O 	0.77995 0.63751 0.59668 -0.41100
O 	O 	0.76636 0.61097 0.69241 -0.41800
C 	C 	0.75550 0.61269 0.63915 0.37400
C 	C 	0.70824 0.58058 0.62080 -0.13300
C 	C 	0.67884 0.55295 0.66486 0.07300
H 	H 	0.68790 0.55340 0.70490 0.01700
C 	C 	0.63546 0.52455 0.64760 -0.16500
H 	H 	0.61590 0.50570 0.67690 0.09700
C 	C 	0.62065 0.52316 0.59060 0.12100
C 	C 	0.65053 0.55036 0.54530 -0.15600
H 	H 	0.64150 0.54920 0.50510 0.08700
C 	C 	0.69463 0.57945 0.56280 0.07100
H 	H 	0.71460 0.59810 0.53370 0.02200
C 	C 	0.57361 0.49536 0.57140 -0.07300
C 	C 	0.55400 0.51329 0.53640 -0.04200
H 	H 	0.57090 0.54240 0.52410 0.04500
H 	H 	0.57950 0.37580 0.66680 0.20600
H 	H 	0.61240 0.43300 0.55830 -0.01800
O 	O 	0.44662 0.97084 0.93001 -0.41100
O 	O 	0.43303 0.94430 0.02574 -0.41900
C 	C 	0.42217 0.94602 0.97248 0.37500
C 	C 	0.37491 0.91391 0.95413 -0.13300
C 	C 	0.34551 0.88628 0.99819 0.07400
H 	H 	0.35457 0.88673 0.03823 0.01600
C 	C 	0.30213 0.85788 0.98093 -0.16400
H 	H 	0.28257 0.83903 0.01023 0.09700
C 	C 	0.28732 0.85649 0.92393 0.12100
C 	C 	0.31720 0.88369 0.87863 -0.15600
H 	H 	0.30817 0.88253 0.83843 0.08700
C 	C 	0.36130 0.91278 0.89613 0.07200
H 	H 	0.38127 0.93143 0.86703 0.02200
C 	C 	0.24028 0.82869 0.90473 -0.07300
C 	C 	0.22067 0.84662 0.86973 -0.04200
H 	H 	0.23757 0.87573 0.85743 0.04500
H 	H 	0.24617 0.70913 0.00013 0.20400
H 	H 	0.27907 0.76633 0.89163 -0.01700
O 	O 	0.11328 0.30418 0.26335 -0.41100
O 	O 	0.09969 0.27764 0.35908 -0.41800
C 	C 	0.08883 0.27936 0.30582 0.37300
C 	C 	0.04157 0.24725 0.28747 -0.13200
C 	C 	0.01217 0.21962 0.33153 0.07200
H 	H 	0.02123 0.22007 0.37157 0.01800
C 	C 	0.96879 0.19122 0.31427 -0.16300
H 	H 	0.94923 0.17237 0.34357 0.09700
C 	C 	0.95398 0.18983 0.25727 0.12000
C 	C 	0.98386 0.21703 0.21197 -0.15500
H 	H 	0.97483 0.21587 0.17177 0.08700
C 	C 	0.02796 0.24612 0.22947 0.07000
H 	H 	0.04793 0.26477 0.20037 0.02200
C 	C 	0.90694 0.16203 0.23807 -0.07200
C 	C 	0.88733 0.17996 0.20307 -0.04200
H 	H 	0.90423 0.20907 0.19077 0.04500
H 	H 	0.91283 0.04247 0.33347 0.20600
H 	H 	0.94573 0.09967 0.22497 -0.01800
O 	O 	0.85756 0.22005 0.59668 -0.41100
O 	O 	0.84461 0.23364 0.69241 -0.41800
C 	C 	0.85719 0.24450 0.63915 0.37400
C 	C 	0.87234 0.29176 0.62080 -0.13300
C 	C 	0.87411 0.32116 0.66486 0.07300
H 	H 	0.86550 0.31210 0.70490 0.01700
C 	C 	0.88909 0.36454 0.64760 -0.16500
H 	H 	0.88980 0.38410 0.67690 0.09700
C 	C 	0.90251 0.37935 0.59060 0.12100
C 	C 	0.89983 0.34947 0.54530 -0.15600
H 	H 	0.90770 0.35850 0.50510 0.08700
C 	C 	0.88482 0.30537 0.56280 0.07100
H 	H 	0.88350 0.28540 0.53370 0.02200
C 	C 	0.92175 0.42639 0.57140 -0.07300
C 	C 	0.95929 0.44600 0.53640 -0.04200
H 	H 	0.97150 0.42910 0.52410 0.04500
H 	H 	0.79630 0.42050 0.66680 0.20600
H 	H 	0.82060 0.38760 0.55830 -0.01800
O 	O 	0.52423 0.55338 0.93001 -0.41100
O 	O 	0.51128 0.56697 0.02574 -0.41800
C 	C 	0.52386 0.57783 0.97248 0.37400
C 	C 	0.53901 0.62509 0.95413 -0.13300
C 	C 	0.54078 0.65449 0.99819 0.07300
H 	H 	0.53217 0.64543 0.03823 0.01700
C 	C 	0.55576 0.69787 0.98093 -0.16400
H 	H 	0.55647 0.71743 0.01023 0.09700
C 	C 	0.56918 0.71268 0.92393 0.12100
C 	C 	0.56650 0.68280 0.87863 -0.15600
H 	H 	0.57437 0.69183 0.83843 0.08700
C 	C 	0.55149 0.63870 0.89613 0.07100
H 	H 	0.55017 0.61873 0.86703 0.02200
C 	C 	0.58842 0.75972 0.90473 -0.07300
C 	C 	0.62596 0.77933 0.86973 -0.04200
H 	H 	0.63817 0.76243 0.85743 0.04500
H 	H 	0.46297 0.75383 0.00013 0.20500
H 	H 	0.48727 0.72093 0.89163 -0.01800
O 	O 	0.19089 0.88672 0.26335 -0.41100
O 	O 	0.17794 0.90031 0.35908 -0.41800
C 	C 	0.19052 0.91117 0.30582 0.37300
C 	C 	0.20567 0.95843 0.28747 -0.13200
C 	C 	0.20744 0.98783 0.33153 0.07200
H 	H 	0.19883 0.97877 0.37157 0.01800
C 	C 	0.22242 0.03121 0.31427 -0.16400
H 	H 	0.22313 0.05077 0.34357 0.09700
C 	C 	0.23584 0.04602 0.25727 0.12000
C 	C 	0.23316 0.01614 0.21197 -0.15500
H 	H 	0.24103 0.02517 0.17177 0.08700
C 	C 	0.21815 0.97204 0.22947 0.07000
H 	H 	0.21683 0.95207 0.20037 0.02200
C 	C 	0.25508 0.09306 0.23807 -0.07200
C 	C 	0.29262 0.11267 0.20307 -0.04200
H 	H 	0.30483 0.09577 0.19077 0.04500
H 	H 	0.12963 0.08717 0.33347 0.20600
H 	H 	0.15393 0.05427 0.22497 -0.01800
O 	O 	0.36249 0.14244 0.59668 -0.41100
O 	O 	0.38903 0.15539 0.69241 -0.41800
C 	C 	0.38731 0.14281 0.63915 0.37400
C 	C 	0.41942 0.12766 0.62080 -0.13300
C 	C 	0.44705 0.12589 0.66486 0.07300
H 	H 	0.44660 0.13450 0.70490 0.01700
C 	C 	0.47545 0.11091 0.64760 -0.16500
H 	H 	0.49430 0.11020 0.67690 0.09700
C 	C 	0.47684 0.09749 0.59060 0.12100
C 	C 	0.44964 0.10017 0.54530 -0.15600
H 	H 	0.45080 0.09230 0.50510 0.08700
C 	C 	0.42055 0.11518 0.56280 0.07100
H 	H 	0.40190 0.11650 0.53370 0.02200
C 	C 	0.50464 0.07825 0.57140 -0.07300
C 	C 	0.48671 0.04071 0.53640 -0.04200
H 	H 	0.45760 0.02850 0.52410 0.04500
H 	H 	0.62420 0.20370 0.66680 0.20600
H 	H 	0.56700 0.17940 0.55830 -0.01800
O 	O 	0.02916 0.47577 0.93001 -0.41100
O 	O 	0.05570 0.48872 0.02574 -0.41900
C 	C 	0.05398 0.47614 0.97248 0.37500
C 	C 	0.08609 0.46099 0.95413 -0.13300
C 	C 	0.11372 0.45922 0.99819 0.07400
H 	H 	0.11327 0.46783 0.03823 0.01700
C 	C 	0.14212 0.44424 0.98093 -0.16400
H 	H 	0.16097 0.44353 0.01023 0.09700
C 	C 	0.14351 0.43082 0.92393 0.12100
C 	C 	0.11631 0.43350 0.87863 -0.15600
H 	H 	0.11747 0.42563 0.83843 0.08700
C 	C 	0.08722 0.44851 0.89613 0.07200
H 	H 	0.06857 0.44983 0.86703 0.02200
C 	C 	0.17131 0.41158 0.90473 -0.07300
C 	C 	0.15338 0.37404 0.86973 -0.04200
H 	H 	0.12427 0.36183 0.85743 0.04500
H 	H 	0.29087 0.53703 0.00013 0.20500
H 	H 	0.23367 0.51273 0.89163 -0.01800
O 	O 	0.69582 0.80911 0.26335 -0.41100
O 	O 	0.72236 0.82206 0.35908 -0.41800
C 	C 	0.72064 0.80948 0.30582 0.37400
C 	C 	0.75275 0.79433 0.28747 -0.13300
C 	C 	0.78038 0.79256 0.33153 0.07300
H 	H 	0.77993 0.80117 0.37157 0.01700
C 	C 	0.80878 0.77758 0.31427 -0.16500
H 	H 	0.82763 0.77687 0.34357 0.09700
C 	C 	0.81017 0.76416 0.25727 0.12100
C 	C 	0.78297 0.76684 0.21197 -0.15600
H 	H 	0.78413 0.75897 0.17177 0.08700
C 	C 	0.75388 0.78185 0.22947 0.07100
H 	H 	0.73523 0.78317 0.20037 0.02200
C 	C 	0.83797 0.74492 0.23807 -0.07300
C 	C 	0.82004 0.70738 0.20307 -0.04200
H 	H 	0.79093 0.69517 0.19077 0.04500
H 	H 	0.95753 0.87037 0.33347 0.20600
H 	H 	0.90033 0.84607 0.22497 -0.01800
O 	O 	0.36249 0.22005 0.59668 -0.41100
O 	O 	0.38903 0.23364 0.69241 -0.41800
C 	C 	0.38731 0.24450 0.63915 0.37400
C 	C 	0.41942 0.29176 0.62080 -0.13300
C 	C 	0.44705 0.32116 0.66486 0.07300
H 	H 	0.44660 0.31210 0.70490 0.01700
C 	C 	0.47545 0.36454 0.64760 -0.16500
H 	H 	0.49430 0.38410 0.67690 0.09700
C 	C 	0.47684 0.37935 0.59060 0.12100
C 	C 	0.44964 0.34947 0.54530 -0.15600
H 	H 	0.45080 0.35850 0.50510 0.08700
C 	C 	0.42055 0.30537 0.56280 0.07100
H 	H 	0.40190 0.28540 0.53370 0.02200
C 	C 	0.50464 0.42639 0.57140 -0.07300
C 	C 	0.48671 0.44600 0.53640 -0.04200
H 	H 	0.45760 0.42910 0.52410 0.04500
H 	H 	0.62420 0.42050 0.66680 0.20600
H 	H 	0.56700 0.38760 0.55830 -0.01800
O 	O 	0.02916 0.55338 0.93001 -0.41100
O 	O 	0.05570 0.56697 0.02574 -0.41900
C 	C 	0.05398 0.57783 0.97248 0.37500
C 	C 	0.08609 0.62509 0.95413 -0.13300
C 	C 	0.11372 0.65449 0.99819 0.07400
H 	H 	0.11327 0.64543 0.03823 0.01600
C 	C 	0.14212 0.69787 0.98093 -0.16400
H 	H 	0.16097 0.71743 0.01023 0.09700
C 	C 	0.14351 0.71268 0.92393 0.12100
C 	C 	0.11631 0.68280 0.87863 -0.15600
H 	H 	0.11747 0.69183 0.83843 0.08700
C 	C 	0.08722 0.63870 0.89613 0.07200
H 	H 	0.06857 0.61873 0.86703 0.02200
C 	C 	0.17131 0.75972 0.90473 -0.07300
C 	C 	0.15338 0.77933 0.86973 -0.04200
H 	H 	0.12427 0.76243 0.85743 0.04500
H 	H 	0.29087 0.75383 0.00013 0.20400
H 	H 	0.23367 0.72093 0.89163 -0.01700
O 	O 	0.69582 0.88672 0.26335 -0.41100
O 	O 	0.72236 0.90031 0.35908 -0.41800
C 	C 	0.72064 0.91117 0.30582 0.37300
C 	C 	0.75275 0.95843 0.28747 -0.13200
C 	C 	0.78038 0.98783 0.33153 0.07200
H 	H 	0.77993 0.97877 0.37157 0.01800
C 	C 	0.80878 0.03121 0.31427 -0.16300
H 	H 	0.82763 0.05077 0.34357 0.09700
C 	C 	0.81017 0.04602 0.25727 0.12000
C 	C 	0.78297 0.01614 0.21197 -0.15500
H 	H 	0.78413 0.02517 0.17177 0.08700
C 	C 	0.75388 0.97204 0.22947 0.07000
H 	H 	0.73523 0.95207 0.20037 0.02200
C 	C 	0.83797 0.09306 0.23807 -0.07200
C 	C 	0.82004 0.11267 0.20307 -0.04200
H 	H 	0.79093 0.09577 0.19077 0.04500
H 	H 	0.95753 0.08717 0.33347 0.20600
H 	H 	0.90033 0.05427 0.22497 -0.01800
O 	O 	0.77995 0.14244 0.59668 -0.41100
O 	O 	0.76636 0.15539 0.69241 -0.41800
C 	C 	0.75550 0.14281 0.63915 0.37400
C 	C 	0.70824 0.12766 0.62080 -0.13300
C 	C 	0.67884 0.12589 0.66486 0.07300
H 	H 	0.68790 0.13450 0.70490 0.01700
C 	C 	0.63546 0.11091 0.64760 -0.16500
H 	H 	0.61590 0.11020 0.67690 0.09700
C 	C 	0.62065 0.09749 0.59060 0.12100
C 	C 	0.65053 0.10017 0.54530 -0.15600
H 	H 	0.64150 0.09230 0.50510 0.08700
C 	C 	0.69463 0.11518 0.56280 0.07100
H 	H 	0.71460 0.11650 0.53370 0.02200
C 	C 	0.57361 0.07825 0.57140 -0.07300
C 	C 	0.55400 0.04071 0.53640 -0.04200
H 	H 	0.57090 0.02850 0.52410 0.04500
H 	H 	0.57950 0.20370 0.66680 0.20600
H 	H 	0.61240 0.17940 0.55830 -0.01800
O 	O 	0.44662 0.47577 0.93001 -0.41100
O 	O 	0.43303 0.48872 0.02574 -0.41800
C 	C 	0.42217 0.47614 0.97248 0.37400
C 	C 	0.37491 0.46099 0.95413 -0.13300
C 	C 	0.34551 0.45922 0.99819 0.07300
H 	H 	0.35457 0.46783 0.03823 0.01700
C 	C 	0.30213 0.44424 0.98093 -0.16400
H 	H 	0.28257 0.44353 0.01023 0.09700
C 	C 	0.28732 0.43082 0.92393 0.12100
C 	C 	0.31720 0.43350 0.87863 -0.15600
H 	H 	0.30817 0.42563 0.83843 0.08700
C 	C 	0.36130 0.44851 0.89613 0.07100
H 	H 	0.38127 0.44983 0.86703 0.02200
C 	C 	0.24028 0.41158 0.90473 -0.07300
C 	C 	0.22067 0.37404 0.86973 -0.04200
H 	H 	0.23757 0.36183 0.85743 0.04500
H 	H 	0.24617 0.53703 0.00013 0.20500
H 	H 	0.27907 0.51273 0.89163 -0.01800
O 	O 	0.11328 0.80911 0.26335 -0.41100
O 	O 	0.09969 0.82206 0.35908 -0.41800
C 	C 	0.08883 0.80948 0.30582 0.37300
C 	C 	0.04157 0.79433 0.28747 -0.13200
C 	C 	0.01217 0.79256 0.33153 0.07200
H 	H 	0.02123 0.80117 0.37157 0.01800
C 	C 	0.96879 0.77758 0.31427 -0.16400
H 	H 	0.94923 0.77687 0.34357 0.09700
C 	C 	0.95398 0.76416 0.25727 0.12000
C 	C 	0.98386 0.76684 0.21197 -0.15500
H 	H 	0.97483 0.75897 0.17177 0.08700
C 	C 	0.02796 0.78185 0.22947 0.07000
H 	H 	0.04793 0.78317 0.20037 0.02200
C 	C 	0.90694 0.74492 0.23807 -0.07200
C 	C 	0.88733 0.70738 0.20307 -0.04200
H 	H 	0.90423 0.69517 0.19077 0.04500
H 	H 	0.91283 0.87037 0.33347 0.20600
H 	H 	0.94573 0.84607 0.22497 -0.01800
O 	O 	0.85756 0.63751 0.59668 -0.41100
O 	O 	0.84461 0.61097 0.69241 -0.41800
C 	C 	0.85719 0.61269 0.63915 0.37400
C 	C 	0.87234 0.58058 0.62080 -0.13300
C 	C 	0.87411 0.55295 0.66486 0.07300
H 	H 	0.86550 0.55340 0.70490 0.01700
C 	C 	0.88909 0.52455 0.64760 -0.16500
H 	H 	0.88980 0.50570 0.67690 0.09700
C 	C 	0.90251 0.52316 0.59060 0.12100
C 	C 	0.89983 0.55036 0.54530 -0.15600
H 	H 	0.90770 0.54920 0.50510 0.08700
C 	C 	0.88482 0.57945 0.56280 0.07100
H 	H 	0.88350 0.59810 0.53370 0.02200
C 	C 	0.92175 0.49536 0.57140 -0.07300
C 	C 	0.95929 0.51329 0.53640 -0.04200
H 	H 	0.97150 0.54240 0.52410 0.04500
H 	H 	0.79630 0.37580 0.66680 0.20600
H 	H 	0.82060 0.43300 0.55830 -0.01800
O 	O 	0.52423 0.97084 0.93001 -0.41100
O 	O 	0.51128 0.94430 0.02574 -0.41900
C 	C 	0.52386 0.94602 0.97248 0.37500
C 	C 	0.53901 0.91391 0.95413 -0.13300
C 	C 	0.54078 0.88628 0.99819 0.07400
H 	H 	0.53217 0.88673 0.03823 0.01700
C 	C 	0.55576 0.85788 0.98093 -0.16400
H 	H 	0.55647 0.83903 0.01023 0.09700
C 	C 	0.56918 0.85649 0.92393 0.12100
C 	C 	0.56650 0.88369 0.87863 -0.15600
H 	H 	0.57437 0.88253 0.83843 0.08700
C 	C 	0.55149 0.91278 0.89613 0.07200
H 	H 	0.55017 0.93143 0.86703 0.02200
C 	C 	0.58842 0.82869 0.90473 -0.07300
C 	C 	0.62596 0.84662 0.86973 -0.04200
H 	H 	0.63817 0.87573 0.85743 0.04500
H 	H 	0.46297 0.70913 0.00013 0.20500
H 	H 	0.48727 0.76633 0.89163 -0.01800
O 	O 	0.19089 0.30418 0.26335 -0.41100
O 	O 	0.17794 0.27764 0.35908 -0.41800
C 	C 	0.19052 0.27936 0.30582 0.37400
C 	C 	0.20567 0.24725 0.28747 -0.13300
C 	C 	0.20744 0.21962 0.33153 0.07300
H 	H 	0.19883 0.22007 0.37157 0.01700
C 	C 	0.22242 0.19122 0.31427 -0.16500
H 	H 	0.22313 0.17237 0.34357 0.09700
C 	C 	0.23584 0.18983 0.25727 0.12100
C 	C 	0.23316 0.21703 0.21197 -0.15600
H 	H 	0.24103 0.21587 0.17177 0.08700
C 	C 	0.21815 0.24612 0.22947 0.07100
H 	H 	0.21683 0.26477 0.20037 0.02200
C 	C 	0.25508 0.16203 0.23807 -0.07300
C 	C 	0.29262 0.17996 0.20307 -0.04200
H 	H 	0.30483 0.20907 0.19077 0.04500
H 	H 	0.12963 0.04247 0.33347 0.20600
H 	H 	0.15393 0.09967 0.22497 -0.01800
O 	O 	0.22005 0.36249 0.40332 -0.41100
O 	O 	0.23364 0.38903 0.30759 -0.41800
C 	C 	0.24450 0.38731 0.36085 0.37400
C 	C 	0.29176 0.41942 0.37920 -0.13300
C 	C 	0.32116 0.44705 0.33514 0.07300
H 	H 	0.31210 0.44660 0.29510 0.01700
C 	C 	0.36454 0.47545 0.35240 -0.16500
H 	H 	0.38410 0.49430 0.32310 0.09700
C 	C 	0.37935 0.47684 0.40940 0.12100
C 	C 	0.34947 0.44964 0.45470 -0.15600
H 	H 	0.35850 0.45080 0.49490 0.08700
C 	C 	0.30537 0.42055 0.43720 0.07100
H 	H 	0.28540 0.40190 0.46630 0.02200
C 	C 	0.42639 0.50464 0.42860 -0.07300
C 	C 	0.44600 0.48671 0.46360 -0.04200
H 	H 	0.42910 0.45760 0.47590 0.04500
H 	H 	0.42050 0.62420 0.33320 0.20600
H 	H 	0.38760 0.56700 0.44170 -0.01800
O 	O 	0.88672 0.69582 0.73665 -0.41100
O 	O 	0.90031 0.72236 0.64092 -0.41800
C 	C 	0.91117 0.72064 0.69418 0.37300
C 	C 	0.95843 0.75275 0.71253 -0.13200
C 	C 	0.98783 0.78038 0.66847 0.07200
H 	H 	0.97877 0.77993 0.62843 0.01800
C 	C 	0.03121 0.80878 0.68573 -0.16300
H 	H 	0.05077 0.82763 0.65643 0.09700
C 	C 	0.04602 0.81017 0.74273 0.12000
C 	C 	0.01614 0.78297 0.78803 -0.15500
H 	H 	0.02517 0.78413 0.82823 0.08700
C 	C 	0.97204 0.75388 0.77053 0.07000
H 	H 	0.95207 0.73523 0.79963 0.02200
C 	C 	0.09306 0.83797 0.76193 -0.07200
C 	C 	0.11267 0.82004 0.79693 -0.04200
H 	H 	0.09577 0.79093 0.80923 0.04500
H 	H 	0.08717 0.95753 0.66653 0.20600
H 	H 	0.05427 0.90033 0.77503 -0.01800
O 	O 	0.55338 0.02916 0.06999 -0.41100
O 	O 	0.56697 0.05570 0.97426 -0.41900
C 	C 	0.57783 0.05398 0.02752 0.37500
C 	C 	0.62509 0.08609 0.04587 -0.13300
C 	C 	0.65449 0.11372 0.00181 0.07400
H 	H 	0.64543 0.11327 0.96177 0.01600
C 	C 	0.69787 0.14212 0.01907 -0.16400
H 	H 	0.71743 0.16097 0.98977 0.09700
C 	C 	0.71268 0.14351 0.07607 0.12100
C 	C 	0.68280 0.11631 0.12137 -0.15600
H 	H 	0.69183 0.11747 0.16157 0.08700
C 	C 	0.63870 0.08722 0.10387 0.07200
H 	H 	0.61873 0.06857 0.13297 0.02200
C 	C 	0.75972 0.17131 0.09527 -0.07300
C 	C 	0.77933 0.15338 0.13027 -0.04200
H 	H 	0.76243 0.12427 0.14257 0.04500
H 	H 	0.75383 0.29087 0.99987 0.20400
H 	H 	0.72093 0.23367 0.10837 -0.01700
O 	O 	0.14244 0.77995 0.40332 -0.41100
O 	O 	0.15539 0.76636 0.30759 -0.41800
C 	C 	0.14281 0.75550 0.36085 0.37400
C 	C 	0.12766 0.70824 0.37920 -0.13300
C 	C 	0.12589 0.67884 0.33514 0.07300
H 	H 	0.13450 0.68790 0.29510 0.01700
C 	C 	0.11091 0.63546 0.35240 -0.16500
H 	H 	0.11020 0.61590 0.32310 0.09700
C 	C 	0.09749 0.62065 0.40940 0.12100
C 	C 	0.10017 0.65053 0.45470 -0.15600
H 	H 	0.09230 0.64150 0.49490 0.08700
C 	C 	0.11518 0.69463 0.43720 0.07100
H 	H 	0.11650 0.71460 0.46630 0.02200
C 	C 	0.07825 0.57361 0.42860 -0.07300
C 	C 	0.04071 0.55400 0.46360 -0.04200
H 	H 	0.02850 0.57090 0.47590 0.04500
H 	H 	0.20370 0.57950 0.33320 0.20600
H 	H 	0.17940 0.61240 0.44170 -0.01800
O 	O 	0.80911 0.11328 0.73665 -0.41100
O 	O 	0.82206 0.09969 0.64092 -0.41800
C 	C 	0.80948 0.08883 0.69418 0.37300
C 	C 	0.79433 0.04157 0.71253 -0.13200
C 	C 	0.79256 0.01217 0.66847 0.07200
H 	H 	0.80117 0.02123 0.62843 0.01800
C 	C 	0.77758 0.96879 0.68573 -0.16400
H 	H 	0.77687 0.94923 0.65643 0.09700
C 	C 	0.76416 0.95398 0.74273 0.12000
C 	C 	0.76684 0.98386 0.78803 -0.15500
H 	H 	0.75897 0.97483 0.82823 0.08700
C 	C 	0.78185 0.02796 0.77053 0.07000
H 	H 	0.78317 0.04793 0.79963 0.02200
C 	C 	0.74492 0.90694 0.76193 -0.07200
C 	C 	0.70738 0.88733 0.79693 -0.04200
H 	H 	0.69517 0.90423 0.80923 0.04500
H 	H 	0.87037 0.91283 0.66653 0.20600
H 	H 	0.84607 0.94573 0.77503 -0.01800
O 	O 	0.47577 0.44662 0.06999 -0.41100
O 	O 	0.48872 0.43303 0.97426 -0.41800
C 	C 	0.47614 0.42217 0.02752 0.37400
C 	C 	0.46099 0.37491 0.04587 -0.13300
C 	C 	0.45922 0.34551 0.00181 0.07300
H 	H 	0.46783 0.35457 0.96177 0.01700
C 	C 	0.44424 0.30213 0.01907 -0.16400
H 	H 	0.44353 0.28257 0.98977 0.09700
C 	C 	0.43082 0.28732 0.07607 0.12100
C 	C 	0.43350 0.31720 0.12137 -0.15600
H 	H 	0.42563 0.30817 0.16157 0.08700
C 	C 	0.44851 0.36130 0.10387 0.07100
H 	H 	0.44983 0.38127 0.13297 0.02200
C 	C 	0.41158 0.24028 0.09527 -0.07300
C 	C 	0.37404 0.22067 0.13027 -0.04200
H 	H 	0.36183 0.23757 0.14257 0.04500
H 	H 	0.53703 0.24617 0.99987 0.20500
H 	H 	0.51273 0.27907 0.10837 -0.01800
O 	O 	0.63751 0.85756 0.40332 -0.41100
O 	O 	0.61097 0.84461 0.30759 -0.41800
C 	C 	0.61269 0.85719 0.36085 0.37400
C 	C 	0.58058 0.87234 0.37920 -0.13300
C 	C 	0.55295 0.87411 0.33514 0.07300
H 	H 	0.55340 0.86550 0.29510 0.01700
C 	C 	0.52455 0.88909 0.35240 -0.16500
H 	H 	0.50570 0.88980 0.32310 0.09700
C 	C 	0.52316 0.90251 0.40940 0.12100
C 	C 	0.55036 0.89983 0.45470 -0.15600
H 	H 	0.54920 0.90770 0.49490 0.08700
C 	C 	0.57945 0.88482 0.43720 0.07100
H 	H 	0.59810 0.88350 0.46630 0.02200
C 	C 	0.49536 0.92175 0.42860 -0.07300
C 	C 	0.51329 0.95929 0.46360 -0.04200
H 	H 	0.54240 0.97150 0.47590 0.04500
H 	H 	0.37580 0.79630 0.33320 0.20600
H 	H 	0.43300 0.82060 0.44170 -0.01800
O 	O 	0.30418 0.19089 0.73665 -0.41100
O 	O 	0.27764 0.17794 0.64092 -0.41800
C 	C 	0.27936 0.19052 0.69418 0.37400
C 	C 	0.24725 0.20567 0.71253 -0.13300
C 	C 	0.21962 0.20744 0.66847 0.07300
H 	H 	0.22007 0.19883 0.62843 0.01700
C 	C 	0.19122 0.22242 0.68573 -0.16500
H 	H 	0.17237 0.22313 0.65643 0.09700
C 	C 	0.18983 0.23584 0.74273 0.12100
C 	C 	0.21703 0.23316 0.78803 -0.15600
H 	H 	0.21587 0.24103 0.82823 0.08700
C 	C 	0.24612 0.21815 0.77053 0.07100
H 	H 	0.26477 0.21683 0.79963 0.02200
C 	C 	0.16203 0.25508 0.76193 -0.07300
C 	C 	0.17996 0.29262 0.79693 -0.04200
H 	H 	0.20907 0.30483 0.80923 0.04500
H 	H 	0.04247 0.12963 0.66653 0.20600
H 	H 	0.09967 0.15393 0.77503 -0.01800
O 	O 	0.97084 0.52423 0.06999 -0.41100
O 	O 	0.94430 0.51128 0.97426 -0.41900
C 	C 	0.94602 0.52386 0.02752 0.37500
C 	C 	0.91391 0.53901 0.04587 -0.13300
C 	C 	0.88628 0.54078 0.00181 0.07400
H 	H 	0.88673 0.53217 0.96177 0.01700
C 	C 	0.85788 0.55576 0.01907 -0.16400
H 	H 	0.83903 0.55647 0.98977 0.09700
C 	C 	0.85649 0.56918 0.07607 0.12100
C 	C 	0.88369 0.56650 0.12137 -0.15600
H 	H 	0.88253 0.57437 0.16157 0.08700
C 	C 	0.91278 0.55149 0.10387 0.07200
H 	H 	0.93143 0.55017 0.13297 0.02200
C 	C 	0.82869 0.58842 0.09527 -0.07300
C 	C 	0.84662 0.62596 0.13027 -0.04200
H 	H 	0.87573 0.63817 0.14257 0.04500
H 	H 	0.70913 0.46297 0.99987 0.20500
H 	H 	0.76633 0.48727 0.10837 -0.01800
Cu	Cu	0.68223 0.84111 0.38963 0.90500
Cu	Cu	0.34890 0.17445 0.72296 0.90500
Cu	Cu	0.01556 0.50778 0.05630 0.90500
Cu	Cu	0.15889 0.84111 0.38963 0.90500
Cu	Cu	0.82555 0.17445 0.72296 0.90500
Cu	Cu	0.49222 0.50778 0.05630 0.90500
Cu	Cu	0.15889 0.31777 0.38963 0.90500
Cu	Cu	0.82555 0.65110 0.72296 0.90500
Cu	Cu	0.49222 0.98444 0.05630 0.90500
Cu	Cu	0.84111 0.68223 0.61037 0.90500
Cu	Cu	0.50778 0.01556 0.94370 0.90500
Cu	Cu	0.17445 0.34890 0.27704 0.90500
Cu	Cu	0.84111 0.15889 0.61037 0.90500
Cu	Cu	0.50778 0.49222 0.94370 0.90500
Cu	Cu	0.17445 0.82555 0.27704 0.90500
Cu	Cu	0.31777 0.15889 0.61037 0.90500
Cu	Cu	0.98444 0.49222 0.94370 0.90500
Cu	Cu	0.65110 0.82555 0.27704 0.90500
O 	O 	0.43257 0.56743 0.37530 -0.23500
C 	C 	0.48992 0.51008 0.48160 0.00500
C 	C 	0.45135 0.54865 0.41080 0.13900
C 	C 	0.39542 0.60458 0.35730 -0.57400
H 	H 	0.38040 0.61960 0.37080 0.19100
C 	C 	0.41167 0.58833 0.41680 0.17200
O 	O 	0.09924 0.90076 0.70863 -0.23500
C 	C 	0.15659 0.84341 0.81493 0.00600
C 	C 	0.11802 0.88198 0.74413 0.13800
C 	C 	0.06209 0.93791 0.69063 -0.57400
H 	H 	0.04707 0.95293 0.70413 0.19100
C 	C 	0.07834 0.92166 0.75013 0.17200
O 	O 	0.76590 0.23410 0.04197 -0.23400
C 	C 	0.82325 0.17675 0.14827 0.00600
C 	C 	0.78468 0.21532 0.07747 0.13800
C 	C 	0.72875 0.27125 0.02397 -0.56900
H 	H 	0.71373 0.28627 0.03747 0.18900
C 	C 	0.74500 0.25500 0.08347 0.17000
O 	O 	0.43257 0.86514 0.37530 -0.23500
C 	C 	0.48992 0.97984 0.48160 0.00500
C 	C 	0.45135 0.90270 0.41080 0.13900
C 	C 	0.39542 0.79084 0.35730 -0.57400
H 	H 	0.38040 0.76080 0.37080 0.19100
C 	C 	0.41167 0.82334 0.41680 0.17200
O 	O 	0.09924 0.19847 0.70863 -0.23500
C 	C 	0.15659 0.31317 0.81493 0.00600
C 	C 	0.11802 0.23603 0.74413 0.13800
C 	C 	0.06209 0.12417 0.69063 -0.57400
H 	H 	0.04707 0.09413 0.70413 0.19100
C 	C 	0.07834 0.15667 0.75013 0.17200
O 	O 	0.76590 0.53181 0.04197 -0.23400
C 	C 	0.82325 0.64651 0.14827 0.00500
C 	C 	0.78468 0.56937 0.07747 0.13800
C 	C 	0.72875 0.45751 0.02397 -0.57100
H 	H 	0.71373 0.42747 0.03747 0.19000
C 	C 	0.74500 0.49001 0.08347 0.17100
O 	O 	0.13486 0.56743 0.37530 -0.23500
C 	C 	0.02016 0.51008 0.48160 0.00500
C 	C 	0.09730 0.54865 0.41080 0.13900
C 	C 	0.20916 0.60458 0.35730 -0.57400
H 	H 	0.23920 0.61960 0.37080 0.19100
C 	C 	0.17666 0.58833 0.41680 0.17200
O 	O 	0.80153 0.90076 0.70863 -0.23500
C 	C 	0.68683 0.84341 0.81493 0.00600
C 	C 	0.76397 0.88198 0.74413 0.13800
C 	C 	0.87583 0.93791 0.69063 -0.57400
H 	H 	0.90587 0.95293 0.70413 0.19100
C 	C 	0.84333 0.92166 0.75013 0.17200
O 	O 	0.46819 0.23410 0.04197 -0.23400
C 	C 	0.35349 0.17675 0.14827 0.00500
C 	C 	0.43063 0.21532 0.07747 0.13800
C 	C 	0.54249 0.27125 0.02397 -0.57100
H 	H 	0.57253 0.28627 0.03747 0.19000
C 	C 	0.50999 0.25500 0.08347 0.17100
O 	O 	0.56743 0.43257 0.62470 -0.23500
C 	C 	0.51008 0.48992 0.51840 0.00500
C 	C 	0.54865 0.45135 0.58920 0.13900
C 	C 	0.60458 0.39542 0.64270 -0.57400
H 	H 	0.61960 0.38040 0.62920 0.19100
C 	C 	0.58833 0.41167 0.58320 0.17200
O 	O 	0.23410 0.76590 0.95803 -0.23400
C 	C 	0.17675 0.82325 0.85173 0.00600
C 	C 	0.21532 0.78468 0.92253 0.13800
C 	C 	0.27125 0.72875 0.97603 -0.56900
H 	H 	0.28627 0.71373 0.96253 0.18900
C 	C 	0.25500 0.74500 0.91653 0.17000
O 	O 	0.90076 0.09924 0.29137 -0.23500
C 	C 	0.84341 0.15659 0.18507 0.00600
C 	C 	0.88198 0.11802 0.25587 0.13800
C 	C 	0.93791 0.06209 0.30937 -0.57400
H 	H 	0.95293 0.04707 0.29587 0.19100
C 	C 	0.92166 0.07834 0.24987 0.17200
O 	O 	0.86514 0.43257 0.62470 -0.23500
C 	C 	0.97984 0.48992 0.51840 0.00500
C 	C 	0.90270 0.45135 0.58920 0.13900
C 	C 	0.79084 0.39542 0.64270 -0.57400
H 	H 	0.76080 0.38040 0.62920 0.19100
C 	C 	0.82334 0.41167 0.58320 0.17200
O 	O 	0.53181 0.76590 0.95803 -0.23400
C 	C 	0.64651 0.82325 0.85173 0.00500
C 	C 	0.56937 0.78468 0.92253 0.13800
C 	C 	0.45751 0.72875 0.97603 -0.57100
H 	H 	0.42747 0.71373 0.96253 0.19000
C 	C 	0.49001 0.74500 0.91653 0.17100
O 	O 	0.19847 0.09924 0.29137 -0.23500
C 	C 	0.31317 0.15659 0.18507 0.00600
C 	C 	0.23603 0.11802 0.25587 0.13800
C 	C 	0.12417 0.06209 0.30937 -0.57400
H 	H 	0.09413 0.04707 0.29587 0.19100
C 	C 	0.15667 0.07834 0.24987 0.17200
O 	O 	0.56743 0.13486 0.62470 -0.23500
C 	C 	0.51008 0.02016 0.51840 0.00500
C 	C 	0.54865 0.09730 0.58920 0.13900
C 	C 	0.60458 0.20916 0.64270 -0.57400
H 	H 	0.61960 0.23920 0.62920 0.19100
C 	C 	0.58833 0.17666 0.58320 0.17200
O 	O 	0.23410 0.46819 0.95803 -0.23400
C 	C 	0.17675 0.35349 0.85173 0.00500
C 	C 	0.21532 0.43063 0.92253 0.13800
C 	C 	0.27125 0.54249 0.97603 -0.57100
H 	H 	0.28627 0.57253 0.96253 0.19000
C 	C 	0.25500 0.50999 0.91653 0.17100
O 	O 	0.90076 0.80153 0.29137 -0.23500
C 	C 	0.84341 0.68683 0.18507 0.00600
C 	C 	0.88198 0.76397 0.25587 0.13800
C 	C 	0.93791 0.87583 0.30937 -0.57400
H 	H 	0.95293 0.90587 0.29587 0.19100
C 	C 	0.92166 0.84333 0.24987 0.17200
