data_crystal

_cell_length_a 35.85390
_cell_length_b 35.85390
_cell_length_c 15.11500
_cell_angle_alpha 90.00000
_cell_angle_beta  90.00000
_cell_angle_gamma 120.00000

_symmetry_space_group_name_	'P 1'
_symmetry_space_group_name_H-M	'P 1'

loop_
_symmetry_equiv_pos_as_xyz
  x,y,z

loop_
_atom_site_label
_atom_site_type_symbol
_atom_site_fract_x
_atom_site_fract_y
_atom_site_fract_z
_atom_site_charge
O 	O 	0.55740 0.03820 0.08050 -0.40900
O 	O 	0.56391 0.05056 0.93300 -0.41100
C 	C 	0.57828 0.05688 0.00940 0.36900
C 	C 	0.62506 0.08891 0.02370 -0.15200
C 	C 	0.65197 0.11040 0.95600 0.10400
H 	H 	0.64140 0.10600 0.89850 0.00600
C 	C 	0.69549 0.13914 0.97200 -0.19900
H 	H 	0.71300 0.15440 0.92450 0.11200
C 	C 	0.71307 0.14566 0.05190 0.15200
C 	C 	0.68520 0.12600 0.12270 -0.18400
H 	H 	0.69610 0.13190 0.18000 0.09500
C 	C 	0.64175 0.09796 0.10980 0.09100
H 	H 	0.62370 0.08520 0.15810 0.01300
C 	C 	0.75997 0.17261 0.06990 -0.09500
C 	C 	0.77990 0.15419 0.11830 -0.03600
H 	H 	0.76370 0.12560 0.13570 0.04300
H 	H 	0.77020 0.27330 0.09600 -0.06800
H 	H 	0.74370 0.30000 0.98520 0.25000
O 	O 	0.22407 0.37153 0.41383 -0.40900
O 	O 	0.23058 0.38389 0.26633 -0.41100
C 	C 	0.24495 0.39021 0.34273 0.36900
C 	C 	0.29173 0.42224 0.35703 -0.15200
C 	C 	0.31864 0.44373 0.28933 0.10400
H 	H 	0.30807 0.43933 0.23183 0.00600
C 	C 	0.36216 0.47247 0.30533 -0.19800
H 	H 	0.37967 0.48773 0.25783 0.11200
C 	C 	0.37974 0.47899 0.38523 0.15000
C 	C 	0.35187 0.45933 0.45603 -0.18300
H 	H 	0.36277 0.46523 0.51333 0.09500
C 	C 	0.30842 0.43129 0.44313 0.09100
H 	H 	0.29037 0.41853 0.49143 0.01300
C 	C 	0.42664 0.50594 0.40323 -0.09500
C 	C 	0.44657 0.48752 0.45163 -0.03700
H 	H 	0.43037 0.45893 0.46903 0.04300
H 	H 	0.43687 0.60663 0.42933 -0.06800
H 	H 	0.41037 0.63333 0.31853 0.25200
O 	O 	0.89073 0.70487 0.74717 -0.40900
O 	O 	0.89724 0.71723 0.59967 -0.41100
C 	C 	0.91161 0.72355 0.67607 0.36800
C 	C 	0.95839 0.75558 0.69037 -0.15200
C 	C 	0.98530 0.77707 0.62267 0.10300
H 	H 	0.97473 0.77267 0.56517 0.00600
C 	C 	0.02882 0.80581 0.63867 -0.19700
H 	H 	0.04633 0.82107 0.59117 0.11200
C 	C 	0.04640 0.81233 0.71857 0.15000
C 	C 	0.01853 0.79267 0.78937 -0.18300
H 	H 	0.02943 0.79857 0.84667 0.09400
C 	C 	0.97508 0.76463 0.77647 0.09000
H 	H 	0.95703 0.75187 0.82477 0.01300
C 	C 	0.09330 0.83928 0.73657 -0.09400
C 	C 	0.11323 0.82086 0.78497 -0.03700
H 	H 	0.09703 0.79227 0.80237 0.04300
H 	H 	0.10353 0.93997 0.76267 -0.06800
H 	H 	0.07703 0.96667 0.65187 0.25200
O 	O 	0.96180 0.51920 0.08050 -0.40900
O 	O 	0.94944 0.51335 0.93300 -0.41100
C 	C 	0.94312 0.52140 0.00940 0.36900
C 	C 	0.91109 0.53615 0.02370 -0.15200
C 	C 	0.88960 0.54157 0.95600 0.10400
H 	H 	0.89400 0.53540 0.89850 0.00600
C 	C 	0.86086 0.55635 0.97200 -0.19800
H 	H 	0.84560 0.55860 0.92450 0.11200
C 	C 	0.85434 0.56741 0.05190 0.15200
C 	C 	0.87400 0.55920 0.12270 -0.18300
H 	H 	0.86810 0.56420 0.18000 0.09600
C 	C 	0.90204 0.54379 0.10980 0.09200
H 	H 	0.91480 0.53850 0.15810 0.01400
C 	C 	0.82739 0.58736 0.06990 -0.09400
C 	C 	0.84581 0.62571 0.11830 -0.03500
H 	H 	0.87440 0.63810 0.13570 0.04400
H 	H 	0.72670 0.49690 0.09600 -0.06700
H 	H 	0.70000 0.44370 0.98520 0.25100
O 	O 	0.62847 0.85253 0.41383 -0.40800
O 	O 	0.61611 0.84668 0.26633 -0.41000
C 	C 	0.60979 0.85473 0.34273 0.37000
C 	C 	0.57776 0.86948 0.35703 -0.15100
C 	C 	0.55627 0.87490 0.28933 0.10500
H 	H 	0.56067 0.86873 0.23183 0.00700
C 	C 	0.52753 0.88968 0.30533 -0.19700
H 	H 	0.51227 0.89193 0.25783 0.11300
C 	C 	0.52101 0.90074 0.38523 0.15100
C 	C 	0.54067 0.89253 0.45603 -0.18200
H 	H 	0.53477 0.89753 0.51333 0.09600
C 	C 	0.56871 0.87712 0.44313 0.09200
H 	H 	0.58147 0.87183 0.49143 0.01400
C 	C 	0.49406 0.92069 0.40323 -0.09400
C 	C 	0.51248 0.95904 0.45163 -0.03600
H 	H 	0.54107 0.97143 0.46903 0.04400
H 	H 	0.39337 0.83023 0.42933 -0.06700
H 	H 	0.36667 0.77703 0.31853 0.25300
O 	O 	0.29513 0.18587 0.74717 -0.40800
O 	O 	0.28277 0.18002 0.59967 -0.41000
C 	C 	0.27645 0.18807 0.67607 0.37000
C 	C 	0.24442 0.20282 0.69037 -0.15100
C 	C 	0.22293 0.20824 0.62267 0.10500
H 	H 	0.22733 0.20207 0.56517 0.00700
C 	C 	0.19419 0.22302 0.63867 -0.19700
H 	H 	0.17893 0.22527 0.59117 0.11300
C 	C 	0.18767 0.23408 0.71857 0.15100
C 	C 	0.20733 0.22587 0.78937 -0.18200
H 	H 	0.20143 0.23087 0.84667 0.09600
C 	C 	0.23537 0.21046 0.77647 0.09200
H 	H 	0.24813 0.20517 0.82477 0.01400
C 	C 	0.16072 0.25403 0.73657 -0.09300
C 	C 	0.17914 0.29238 0.78497 -0.03600
H 	H 	0.20773 0.30477 0.80237 0.04400
H 	H 	0.06003 0.16357 0.76267 -0.06700
H 	H 	0.03333 0.11037 0.65187 0.25300
O 	O 	0.48080 0.44260 0.08050 -0.40800
O 	O 	0.48665 0.43609 0.93300 -0.41000
C 	C 	0.47860 0.42172 0.00940 0.37000
C 	C 	0.46385 0.37494 0.02370 -0.15100
C 	C 	0.45843 0.34803 0.95600 0.10500
H 	H 	0.46460 0.35860 0.89850 0.00700
C 	C 	0.44365 0.30451 0.97200 -0.19700
H 	H 	0.44140 0.28700 0.92450 0.11300
C 	C 	0.43259 0.28693 0.05190 0.15200
C 	C 	0.44080 0.31480 0.12270 -0.18300
H 	H 	0.43580 0.30390 0.18000 0.09600
C 	C 	0.45621 0.35825 0.10980 0.09200
H 	H 	0.46150 0.37630 0.15810 0.01400
C 	C 	0.41264 0.24003 0.06990 -0.09400
C 	C 	0.37429 0.22010 0.11830 -0.03500
H 	H 	0.36190 0.23630 0.13570 0.04400
H 	H 	0.50310 0.22980 0.09600 -0.06700
H 	H 	0.55630 0.25630 0.98520 0.25100
O 	O 	0.14747 0.77593 0.41383 -0.40800
O 	O 	0.15332 0.76942 0.26633 -0.41000
C 	C 	0.14527 0.75505 0.34273 0.37000
C 	C 	0.13052 0.70827 0.35703 -0.15100
C 	C 	0.12510 0.68136 0.28933 0.10500
H 	H 	0.13127 0.69193 0.23183 0.00700
C 	C 	0.11032 0.63784 0.30533 -0.19700
H 	H 	0.10807 0.62033 0.25783 0.11300
C 	C 	0.09926 0.62026 0.38523 0.15100
C 	C 	0.10747 0.64813 0.45603 -0.18200
H 	H 	0.10247 0.63723 0.51333 0.09600
C 	C 	0.12288 0.69158 0.44313 0.09200
H 	H 	0.12817 0.70963 0.49143 0.01400
C 	C 	0.07931 0.57336 0.40323 -0.09400
C 	C 	0.04096 0.55343 0.45163 -0.03600
H 	H 	0.02857 0.56963 0.46903 0.04400
H 	H 	0.16977 0.56313 0.42933 -0.06700
H 	H 	0.22297 0.58963 0.31853 0.25300
O 	O 	0.81413 0.10927 0.74717 -0.40800
O 	O 	0.81998 0.10276 0.59967 -0.41000
C 	C 	0.81193 0.08839 0.67607 0.36900
C 	C 	0.79718 0.04161 0.69037 -0.15100
C 	C 	0.79176 0.01470 0.62267 0.10500
H 	H 	0.79793 0.02527 0.56517 0.00700
C 	C 	0.77698 0.97118 0.63867 -0.19600
H 	H 	0.77473 0.95367 0.59117 0.11300
C 	C 	0.76592 0.95360 0.71857 0.15100
C 	C 	0.77413 0.98147 0.78937 -0.18200
H 	H 	0.76913 0.97057 0.84667 0.09600
C 	C 	0.78954 0.02492 0.77647 0.09100
H 	H 	0.79483 0.04297 0.82477 0.01400
C 	C 	0.74597 0.90670 0.73657 -0.09300
C 	C 	0.70762 0.88677 0.78497 -0.03600
H 	H 	0.69523 0.90297 0.80237 0.04400
H 	H 	0.83643 0.89647 0.76267 -0.06700
H 	H 	0.88963 0.92297 0.65187 0.25300
O 	O 	0.03820 0.55740 0.91950 -0.40800
O 	O 	0.05056 0.56391 0.06700 -0.41000
C 	C 	0.05688 0.57828 0.99060 0.37000
C 	C 	0.08891 0.62506 0.97630 -0.15100
C 	C 	0.11040 0.65197 0.04400 0.10500
H 	H 	0.10600 0.64140 0.10150 0.00700
C 	C 	0.13914 0.69549 0.02800 -0.19800
H 	H 	0.15440 0.71300 0.07550 0.11300
C 	C 	0.14566 0.71307 0.94810 0.15300
C 	C 	0.12600 0.68520 0.87730 -0.18300
H 	H 	0.13190 0.69610 0.82000 0.09600
C 	C 	0.09796 0.64175 0.89020 0.09200
H 	H 	0.08520 0.62370 0.84190 0.01400
C 	C 	0.17261 0.75997 0.93010 -0.09400
C 	C 	0.15419 0.77990 0.88170 -0.03500
H 	H 	0.12560 0.76370 0.86430 0.04400
H 	H 	0.27330 0.77020 0.90400 -0.06700
H 	H 	0.30000 0.74370 0.01480 0.25100
O 	O 	0.70487 0.89073 0.25283 -0.40800
O 	O 	0.71723 0.89724 0.40033 -0.41000
C 	C 	0.72355 0.91161 0.32393 0.36900
C 	C 	0.75558 0.95839 0.30963 -0.15100
C 	C 	0.77707 0.98530 0.37733 0.10400
H 	H 	0.77267 0.97473 0.43483 0.00700
C 	C 	0.80581 0.02882 0.36133 -0.19600
H 	H 	0.82107 0.04633 0.40883 0.11300
C 	C 	0.81233 0.04640 0.28143 0.15100
C 	C 	0.79267 0.01853 0.21063 -0.18200
H 	H 	0.79857 0.02943 0.15333 0.09500
C 	C 	0.76463 0.97508 0.22353 0.09100
H 	H 	0.75187 0.95703 0.17523 0.01400
C 	C 	0.83928 0.09330 0.26343 -0.09300
C 	C 	0.82086 0.11323 0.21503 -0.03600
H 	H 	0.79227 0.09703 0.19763 0.04400
H 	H 	0.93997 0.10353 0.23733 -0.06700
H 	H 	0.96667 0.07703 0.34813 0.25300
O 	O 	0.37153 0.22407 0.58617 -0.40800
O 	O 	0.38389 0.23058 0.73367 -0.41000
C 	C 	0.39021 0.24495 0.65727 0.37000
C 	C 	0.42224 0.29173 0.64297 -0.15100
C 	C 	0.44373 0.31864 0.71067 0.10500
H 	H 	0.43933 0.30807 0.76817 0.00700
C 	C 	0.47247 0.36216 0.69467 -0.19700
H 	H 	0.48773 0.37967 0.74217 0.11300
C 	C 	0.47899 0.37974 0.61477 0.15100
C 	C 	0.45933 0.35187 0.54397 -0.18200
H 	H 	0.46523 0.36277 0.48667 0.09600
C 	C 	0.43129 0.30842 0.55687 0.09200
H 	H 	0.41853 0.29037 0.50857 0.01400
C 	C 	0.50594 0.42664 0.59677 -0.09400
C 	C 	0.48752 0.44657 0.54837 -0.03600
H 	H 	0.45893 0.43037 0.53097 0.04400
H 	H 	0.60663 0.43687 0.57067 -0.06700
H 	H 	0.63333 0.41037 0.68147 0.25300
O 	O 	0.51920 0.96180 0.91950 -0.40800
O 	O 	0.51335 0.94944 0.06700 -0.41000
C 	C 	0.52140 0.94312 0.99060 0.37000
C 	C 	0.53615 0.91109 0.97630 -0.15100
C 	C 	0.54157 0.88960 0.04400 0.10500
H 	H 	0.53540 0.89400 0.10150 0.00700
C 	C 	0.55635 0.86086 0.02800 -0.19700
H 	H 	0.55860 0.84560 0.07550 0.11300
C 	C 	0.56741 0.85434 0.94810 0.15200
C 	C 	0.55920 0.87400 0.87730 -0.18300
H 	H 	0.56420 0.86810 0.82000 0.09600
C 	C 	0.54379 0.90204 0.89020 0.09200
H 	H 	0.53850 0.91480 0.84190 0.01400
C 	C 	0.58736 0.82739 0.93010 -0.09400
C 	C 	0.62571 0.84581 0.88170 -0.03500
H 	H 	0.63810 0.87440 0.86430 0.04400
H 	H 	0.49690 0.72670 0.90400 -0.06700
H 	H 	0.44370 0.70000 0.01480 0.25100
O 	O 	0.18587 0.29513 0.25283 -0.40800
O 	O 	0.18002 0.28277 0.40033 -0.41000
C 	C 	0.18807 0.27645 0.32393 0.37000
C 	C 	0.20282 0.24442 0.30963 -0.15100
C 	C 	0.20824 0.22293 0.37733 0.10500
H 	H 	0.20207 0.22733 0.43483 0.00700
C 	C 	0.22302 0.19419 0.36133 -0.19700
H 	H 	0.22527 0.17893 0.40883 0.11300
C 	C 	0.23408 0.18767 0.28143 0.15100
C 	C 	0.22587 0.20733 0.21063 -0.18200
H 	H 	0.23087 0.20143 0.15333 0.09600
C 	C 	0.21046 0.23537 0.22353 0.09200
H 	H 	0.20517 0.24813 0.17523 0.01400
C 	C 	0.25403 0.16072 0.26343 -0.09300
C 	C 	0.29238 0.17914 0.21503 -0.03600
H 	H 	0.30477 0.20773 0.19763 0.04400
H 	H 	0.16357 0.06003 0.23733 -0.06700
H 	H 	0.11037 0.03333 0.34813 0.25300
O 	O 	0.85253 0.62847 0.58617 -0.40800
O 	O 	0.84668 0.61611 0.73367 -0.41000
C 	C 	0.85473 0.60979 0.65727 0.37000
C 	C 	0.86948 0.57776 0.64297 -0.15100
C 	C 	0.87490 0.55627 0.71067 0.10500
H 	H 	0.86873 0.56067 0.76817 0.00700
C 	C 	0.88968 0.52753 0.69467 -0.19700
H 	H 	0.89193 0.51227 0.74217 0.11300
C 	C 	0.90074 0.52101 0.61477 0.15100
C 	C 	0.89253 0.54067 0.54397 -0.18200
H 	H 	0.89753 0.53477 0.48667 0.09600
C 	C 	0.87712 0.56871 0.55687 0.09200
H 	H 	0.87183 0.58147 0.50857 0.01400
C 	C 	0.92069 0.49406 0.59677 -0.09400
C 	C 	0.95904 0.51248 0.54837 -0.03600
H 	H 	0.97143 0.54107 0.53097 0.04400
H 	H 	0.83023 0.39337 0.57067 -0.06700
H 	H 	0.77703 0.36667 0.68147 0.25300
O 	O 	0.44260 0.48080 0.91950 -0.40800
O 	O 	0.43609 0.48665 0.06700 -0.41000
C 	C 	0.42172 0.47860 0.99060 0.37000
C 	C 	0.37494 0.46385 0.97630 -0.15100
C 	C 	0.34803 0.45843 0.04400 0.10500
H 	H 	0.35860 0.46460 0.10150 0.00700
C 	C 	0.30451 0.44365 0.02800 -0.19700
H 	H 	0.28700 0.44140 0.07550 0.11300
C 	C 	0.28693 0.43259 0.94810 0.15200
C 	C 	0.31480 0.44080 0.87730 -0.18300
H 	H 	0.30390 0.43580 0.82000 0.09600
C 	C 	0.35825 0.45621 0.89020 0.09200
H 	H 	0.37630 0.46150 0.84190 0.01400
C 	C 	0.24003 0.41264 0.93010 -0.09400
C 	C 	0.22010 0.37429 0.88170 -0.03500
H 	H 	0.23630 0.36190 0.86430 0.04400
H 	H 	0.22980 0.50310 0.90400 -0.06700
H 	H 	0.25630 0.55630 0.01480 0.25100
O 	O 	0.10927 0.81413 0.25283 -0.40800
O 	O 	0.10276 0.81998 0.40033 -0.41000
C 	C 	0.08839 0.81193 0.32393 0.36900
C 	C 	0.04161 0.79718 0.30963 -0.15100
C 	C 	0.01470 0.79176 0.37733 0.10500
H 	H 	0.02527 0.79793 0.43483 0.00700
C 	C 	0.97118 0.77698 0.36133 -0.19600
H 	H 	0.95367 0.77473 0.40883 0.11300
C 	C 	0.95360 0.76592 0.28143 0.15100
C 	C 	0.98147 0.77413 0.21063 -0.18200
H 	H 	0.97057 0.76913 0.15333 0.09600
C 	C 	0.02492 0.78954 0.22353 0.09100
H 	H 	0.04297 0.79483 0.17523 0.01400
C 	C 	0.90670 0.74597 0.26343 -0.09300
C 	C 	0.88677 0.70762 0.21503 -0.03600
H 	H 	0.90297 0.69523 0.19763 0.04400
H 	H 	0.89647 0.83643 0.23733 -0.06700
H 	H 	0.92297 0.88963 0.34813 0.25300
O 	O 	0.77593 0.14747 0.58617 -0.40800
O 	O 	0.76942 0.15332 0.73367 -0.41000
C 	C 	0.75505 0.14527 0.65727 0.37000
C 	C 	0.70827 0.13052 0.64297 -0.15100
C 	C 	0.68136 0.12510 0.71067 0.10500
H 	H 	0.69193 0.13127 0.76817 0.00700
C 	C 	0.63784 0.11032 0.69467 -0.19700
H 	H 	0.62033 0.10807 0.74217 0.11300
C 	C 	0.62026 0.09926 0.61477 0.15100
C 	C 	0.64813 0.10747 0.54397 -0.18200
H 	H 	0.63723 0.10247 0.48667 0.09600
C 	C 	0.69158 0.12288 0.55687 0.09200
H 	H 	0.70963 0.12817 0.50857 0.01400
C 	C 	0.57336 0.07931 0.59677 -0.09400
C 	C 	0.55343 0.04096 0.54837 -0.03600
H 	H 	0.56963 0.02857 0.53097 0.04400
H 	H 	0.56313 0.16977 0.57067 -0.06700
H 	H 	0.58963 0.22297 0.68147 0.25300
O 	O 	0.44260 0.96180 0.91950 -0.40800
O 	O 	0.43609 0.94944 0.06700 -0.41000
C 	C 	0.42172 0.94312 0.99060 0.37000
C 	C 	0.37494 0.91109 0.97630 -0.15100
C 	C 	0.34803 0.88960 0.04400 0.10500
H 	H 	0.35860 0.89400 0.10150 0.00700
C 	C 	0.30451 0.86086 0.02800 -0.19800
H 	H 	0.28700 0.84560 0.07550 0.11300
C 	C 	0.28693 0.85434 0.94810 0.15300
C 	C 	0.31480 0.87400 0.87730 -0.18300
H 	H 	0.30390 0.86810 0.82000 0.09600
C 	C 	0.35825 0.90204 0.89020 0.09200
H 	H 	0.37630 0.91480 0.84190 0.01400
C 	C 	0.24003 0.82739 0.93010 -0.09400
C 	C 	0.22010 0.84581 0.88170 -0.03500
H 	H 	0.23630 0.87440 0.86430 0.04400
H 	H 	0.22980 0.72670 0.90400 -0.06700
H 	H 	0.25630 0.70000 0.01480 0.25100
O 	O 	0.10927 0.29513 0.25283 -0.40800
O 	O 	0.10276 0.28277 0.40033 -0.41000
C 	C 	0.08839 0.27645 0.32393 0.36900
C 	C 	0.04161 0.24442 0.30963 -0.15100
C 	C 	0.01470 0.22293 0.37733 0.10400
H 	H 	0.02527 0.22733 0.43483 0.00700
C 	C 	0.97118 0.19419 0.36133 -0.19600
H 	H 	0.95367 0.17893 0.40883 0.11300
C 	C 	0.95360 0.18767 0.28143 0.15100
C 	C 	0.98147 0.20733 0.21063 -0.18200
H 	H 	0.97057 0.20143 0.15333 0.09500
C 	C 	0.02492 0.23537 0.22353 0.09100
H 	H 	0.04297 0.24813 0.17523 0.01400
C 	C 	0.90670 0.16072 0.26343 -0.09300
C 	C 	0.88677 0.17914 0.21503 -0.03600
H 	H 	0.90297 0.20773 0.19763 0.04400
H 	H 	0.89647 0.06003 0.23733 -0.06700
H 	H 	0.92297 0.03333 0.34813 0.25300
O 	O 	0.77593 0.62847 0.58617 -0.40800
O 	O 	0.76942 0.61611 0.73367 -0.41000
C 	C 	0.75505 0.60979 0.65727 0.37000
C 	C 	0.70827 0.57776 0.64297 -0.15100
C 	C 	0.68136 0.55627 0.71067 0.10500
H 	H 	0.69193 0.56067 0.76817 0.00700
C 	C 	0.63784 0.52753 0.69467 -0.19700
H 	H 	0.62033 0.51227 0.74217 0.11300
C 	C 	0.62026 0.52101 0.61477 0.15100
C 	C 	0.64813 0.54067 0.54397 -0.18200
H 	H 	0.63723 0.53477 0.48667 0.09600
C 	C 	0.69158 0.56871 0.55687 0.09200
H 	H 	0.70963 0.58147 0.50857 0.01400
C 	C 	0.57336 0.49406 0.59677 -0.09400
C 	C 	0.55343 0.51248 0.54837 -0.03600
H 	H 	0.56963 0.54107 0.53097 0.04400
H 	H 	0.56313 0.39337 0.57067 -0.06700
H 	H 	0.58963 0.36667 0.68147 0.25300
O 	O 	0.03820 0.48080 0.91950 -0.40800
O 	O 	0.05056 0.48665 0.06700 -0.41000
C 	C 	0.05688 0.47860 0.99060 0.37000
C 	C 	0.08891 0.46385 0.97630 -0.15100
C 	C 	0.11040 0.45843 0.04400 0.10500
H 	H 	0.10600 0.46460 0.10150 0.00700
C 	C 	0.13914 0.44365 0.02800 -0.19700
H 	H 	0.15440 0.44140 0.07550 0.11300
C 	C 	0.14566 0.43259 0.94810 0.15200
C 	C 	0.12600 0.44080 0.87730 -0.18300
H 	H 	0.13190 0.43580 0.82000 0.09600
C 	C 	0.09796 0.45621 0.89020 0.09200
H 	H 	0.08520 0.46150 0.84190 0.01400
C 	C 	0.17261 0.41264 0.93010 -0.09400
C 	C 	0.15419 0.37429 0.88170 -0.03500
H 	H 	0.12560 0.36190 0.86430 0.04400
H 	H 	0.27330 0.50310 0.90400 -0.06700
H 	H 	0.30000 0.55630 0.01480 0.25100
O 	O 	0.70487 0.81413 0.25283 -0.40800
O 	O 	0.71723 0.81998 0.40033 -0.41000
C 	C 	0.72355 0.81193 0.32393 0.37000
C 	C 	0.75558 0.79718 0.30963 -0.15100
C 	C 	0.77707 0.79176 0.37733 0.10500
H 	H 	0.77267 0.79793 0.43483 0.00700
C 	C 	0.80581 0.77698 0.36133 -0.19700
H 	H 	0.82107 0.77473 0.40883 0.11300
C 	C 	0.81233 0.76592 0.28143 0.15100
C 	C 	0.79267 0.77413 0.21063 -0.18200
H 	H 	0.79857 0.76913 0.15333 0.09600
C 	C 	0.76463 0.78954 0.22353 0.09200
H 	H 	0.75187 0.79483 0.17523 0.01400
C 	C 	0.83928 0.74597 0.26343 -0.09300
C 	C 	0.82086 0.70762 0.21503 -0.03600
H 	H 	0.79227 0.69523 0.19763 0.04400
H 	H 	0.93997 0.83643 0.23733 -0.06700
H 	H 	0.96667 0.88963 0.34813 0.25300
O 	O 	0.37153 0.14747 0.58617 -0.40800
O 	O 	0.38389 0.15332 0.73367 -0.41000
C 	C 	0.39021 0.14527 0.65727 0.37000
C 	C 	0.42224 0.13052 0.64297 -0.15100
C 	C 	0.44373 0.12510 0.71067 0.10500
H 	H 	0.43933 0.13127 0.76817 0.00700
C 	C 	0.47247 0.11032 0.69467 -0.19700
H 	H 	0.48773 0.10807 0.74217 0.11300
C 	C 	0.47899 0.09926 0.61477 0.15100
C 	C 	0.45933 0.10747 0.54397 -0.18200
H 	H 	0.46523 0.10247 0.48667 0.09600
C 	C 	0.43129 0.12288 0.55687 0.09200
H 	H 	0.41853 0.12817 0.50857 0.01400
C 	C 	0.50594 0.07931 0.59677 -0.09400
C 	C 	0.48752 0.04096 0.54837 -0.03600
H 	H 	0.45893 0.02857 0.53097 0.04400
H 	H 	0.60663 0.16977 0.57067 -0.06700
H 	H 	0.63333 0.22297 0.68147 0.25300
O 	O 	0.51920 0.55740 0.91950 -0.40800
O 	O 	0.51335 0.56391 0.06700 -0.41000
C 	C 	0.52140 0.57828 0.99060 0.37000
C 	C 	0.53615 0.62506 0.97630 -0.15100
C 	C 	0.54157 0.65197 0.04400 0.10500
H 	H 	0.53540 0.64140 0.10150 0.00700
C 	C 	0.55635 0.69549 0.02800 -0.19700
H 	H 	0.55860 0.71300 0.07550 0.11300
C 	C 	0.56741 0.71307 0.94810 0.15200
C 	C 	0.55920 0.68520 0.87730 -0.18300
H 	H 	0.56420 0.69610 0.82000 0.09600
C 	C 	0.54379 0.64175 0.89020 0.09200
H 	H 	0.53850 0.62370 0.84190 0.01400
C 	C 	0.58736 0.75997 0.93010 -0.09400
C 	C 	0.62571 0.77990 0.88170 -0.03500
H 	H 	0.63810 0.76370 0.86430 0.04400
H 	H 	0.49690 0.77020 0.90400 -0.06700
H 	H 	0.44370 0.74370 0.01480 0.25100
O 	O 	0.18587 0.89073 0.25283 -0.40800
O 	O 	0.18002 0.89724 0.40033 -0.41000
C 	C 	0.18807 0.91161 0.32393 0.36900
C 	C 	0.20282 0.95839 0.30963 -0.15100
C 	C 	0.20824 0.98530 0.37733 0.10500
H 	H 	0.20207 0.97473 0.43483 0.00700
C 	C 	0.22302 0.02882 0.36133 -0.19600
H 	H 	0.22527 0.04633 0.40883 0.11300
C 	C 	0.23408 0.04640 0.28143 0.15100
C 	C 	0.22587 0.01853 0.21063 -0.18200
H 	H 	0.23087 0.02943 0.15333 0.09600
C 	C 	0.21046 0.97508 0.22353 0.09100
H 	H 	0.20517 0.95703 0.17523 0.01400
C 	C 	0.25403 0.09330 0.26343 -0.09300
C 	C 	0.29238 0.11323 0.21503 -0.03600
H 	H 	0.30477 0.09703 0.19763 0.04400
H 	H 	0.16357 0.10353 0.23733 -0.06700
H 	H 	0.11037 0.07703 0.34813 0.25300
O 	O 	0.85253 0.22407 0.58617 -0.40800
O 	O 	0.84668 0.23058 0.73367 -0.41000
C 	C 	0.85473 0.24495 0.65727 0.37000
C 	C 	0.86948 0.29173 0.64297 -0.15100
C 	C 	0.87490 0.31864 0.71067 0.10500
H 	H 	0.86873 0.30807 0.76817 0.00700
C 	C 	0.88968 0.36216 0.69467 -0.19700
H 	H 	0.89193 0.37967 0.74217 0.11300
C 	C 	0.90074 0.37974 0.61477 0.15100
C 	C 	0.89253 0.35187 0.54397 -0.18200
H 	H 	0.89753 0.36277 0.48667 0.09600
C 	C 	0.87712 0.30842 0.55687 0.09200
H 	H 	0.87183 0.29037 0.50857 0.01400
C 	C 	0.92069 0.42664 0.59677 -0.09400
C 	C 	0.95904 0.44657 0.54837 -0.03600
H 	H 	0.97143 0.43037 0.53097 0.04400
H 	H 	0.83023 0.43687 0.57067 -0.06700
H 	H 	0.77703 0.41037 0.68147 0.25300
O 	O 	0.96180 0.44260 0.08050 -0.40800
O 	O 	0.94944 0.43609 0.93300 -0.41000
C 	C 	0.94312 0.42172 0.00940 0.37000
C 	C 	0.91109 0.37494 0.02370 -0.15100
C 	C 	0.88960 0.34803 0.95600 0.10500
H 	H 	0.89400 0.35860 0.89850 0.00700
C 	C 	0.86086 0.30451 0.97200 -0.19800
H 	H 	0.84560 0.28700 0.92450 0.11300
C 	C 	0.85434 0.28693 0.05190 0.15300
C 	C 	0.87400 0.31480 0.12270 -0.18300
H 	H 	0.86810 0.30390 0.18000 0.09600
C 	C 	0.90204 0.35825 0.10980 0.09200
H 	H 	0.91480 0.37630 0.15810 0.01400
C 	C 	0.82739 0.24003 0.06990 -0.09400
C 	C 	0.84581 0.22010 0.11830 -0.03500
H 	H 	0.87440 0.23630 0.13570 0.04400
H 	H 	0.72670 0.22980 0.09600 -0.06700
H 	H 	0.70000 0.25630 0.98520 0.25100
O 	O 	0.62847 0.77593 0.41383 -0.40800
O 	O 	0.61611 0.76942 0.26633 -0.41000
C 	C 	0.60979 0.75505 0.34273 0.37000
C 	C 	0.57776 0.70827 0.35703 -0.15100
C 	C 	0.55627 0.68136 0.28933 0.10500
H 	H 	0.56067 0.69193 0.23183 0.00700
C 	C 	0.52753 0.63784 0.30533 -0.19700
H 	H 	0.51227 0.62033 0.25783 0.11300
C 	C 	0.52101 0.62026 0.38523 0.15100
C 	C 	0.54067 0.64813 0.45603 -0.18200
H 	H 	0.53477 0.63723 0.51333 0.09600
C 	C 	0.56871 0.69158 0.44313 0.09200
H 	H 	0.58147 0.70963 0.49143 0.01400
C 	C 	0.49406 0.57336 0.40323 -0.09400
C 	C 	0.51248 0.55343 0.45163 -0.03600
H 	H 	0.54107 0.56963 0.46903 0.04400
H 	H 	0.39337 0.56313 0.42933 -0.06700
H 	H 	0.36667 0.58963 0.31853 0.25300
O 	O 	0.29513 0.10927 0.74717 -0.40800
O 	O 	0.28277 0.10276 0.59967 -0.41000
C 	C 	0.27645 0.08839 0.67607 0.36900
C 	C 	0.24442 0.04161 0.69037 -0.15100
C 	C 	0.22293 0.01470 0.62267 0.10400
H 	H 	0.22733 0.02527 0.56517 0.00700
C 	C 	0.19419 0.97118 0.63867 -0.19600
H 	H 	0.17893 0.95367 0.59117 0.11300
C 	C 	0.18767 0.95360 0.71857 0.15100
C 	C 	0.20733 0.98147 0.78937 -0.18200
H 	H 	0.20143 0.97057 0.84667 0.09500
C 	C 	0.23537 0.02492 0.77647 0.09100
H 	H 	0.24813 0.04297 0.82477 0.01400
C 	C 	0.16072 0.90670 0.73657 -0.09300
C 	C 	0.17914 0.88677 0.78497 -0.03600
H 	H 	0.20773 0.90297 0.80237 0.04400
H 	H 	0.06003 0.89647 0.76267 -0.06700
H 	H 	0.03333 0.92297 0.65187 0.25300
O 	O 	0.48080 0.03820 0.08050 -0.40800
O 	O 	0.48665 0.05056 0.93300 -0.41000
C 	C 	0.47860 0.05688 0.00940 0.37000
C 	C 	0.46385 0.08891 0.02370 -0.15100
C 	C 	0.45843 0.11040 0.95600 0.10500
H 	H 	0.46460 0.10600 0.89850 0.00700
C 	C 	0.44365 0.13914 0.97200 -0.19700
H 	H 	0.44140 0.15440 0.92450 0.11300
C 	C 	0.43259 0.14566 0.05190 0.15200
C 	C 	0.44080 0.12600 0.12270 -0.18300
H 	H 	0.43580 0.13190 0.18000 0.09600
C 	C 	0.45621 0.09796 0.10980 0.09200
H 	H 	0.46150 0.08520 0.15810 0.01400
C 	C 	0.41264 0.17261 0.06990 -0.09400
C 	C 	0.37429 0.15419 0.11830 -0.03500
H 	H 	0.36190 0.12560 0.13570 0.04400
H 	H 	0.50310 0.27330 0.09600 -0.06700
H 	H 	0.55630 0.30000 0.98520 0.25100
O 	O 	0.14747 0.37153 0.41383 -0.40800
O 	O 	0.15332 0.38389 0.26633 -0.41000
C 	C 	0.14527 0.39021 0.34273 0.37000
C 	C 	0.13052 0.42224 0.35703 -0.15100
C 	C 	0.12510 0.44373 0.28933 0.10500
H 	H 	0.13127 0.43933 0.23183 0.00700
C 	C 	0.11032 0.47247 0.30533 -0.19700
H 	H 	0.10807 0.48773 0.25783 0.11300
C 	C 	0.09926 0.47899 0.38523 0.15100
C 	C 	0.10747 0.45933 0.45603 -0.18200
H 	H 	0.10247 0.46523 0.51333 0.09600
C 	C 	0.12288 0.43129 0.44313 0.09200
H 	H 	0.12817 0.41853 0.49143 0.01400
C 	C 	0.07931 0.50594 0.40323 -0.09400
C 	C 	0.04096 0.48752 0.45163 -0.03600
H 	H 	0.02857 0.45893 0.46903 0.04400
H 	H 	0.16977 0.60663 0.42933 -0.06700
H 	H 	0.22297 0.63333 0.31853 0.25300
O 	O 	0.81413 0.70487 0.74717 -0.40800
O 	O 	0.81998 0.71723 0.59967 -0.41000
C 	C 	0.81193 0.72355 0.67607 0.37000
C 	C 	0.79718 0.75558 0.69037 -0.15100
C 	C 	0.79176 0.77707 0.62267 0.10500
H 	H 	0.79793 0.77267 0.56517 0.00700
C 	C 	0.77698 0.80581 0.63867 -0.19700
H 	H 	0.77473 0.82107 0.59117 0.11300
C 	C 	0.76592 0.81233 0.71857 0.15100
C 	C 	0.77413 0.79267 0.78937 -0.18200
H 	H 	0.76913 0.79857 0.84667 0.09600
C 	C 	0.78954 0.76463 0.77647 0.09200
H 	H 	0.79483 0.75187 0.82477 0.01400
C 	C 	0.74597 0.83928 0.73657 -0.09300
C 	C 	0.70762 0.82086 0.78497 -0.03600
H 	H 	0.69523 0.79227 0.80237 0.04400
H 	H 	0.83643 0.93997 0.76267 -0.06700
H 	H 	0.88963 0.96667 0.65187 0.25300
O 	O 	0.55740 0.51920 0.08050 -0.40800
O 	O 	0.56391 0.51335 0.93300 -0.41000
C 	C 	0.57828 0.52140 0.00940 0.37000
C 	C 	0.62506 0.53615 0.02370 -0.15100
C 	C 	0.65197 0.54157 0.95600 0.10500
H 	H 	0.64140 0.53540 0.89850 0.00700
C 	C 	0.69549 0.55635 0.97200 -0.19700
H 	H 	0.71300 0.55860 0.92450 0.11300
C 	C 	0.71307 0.56741 0.05190 0.15200
C 	C 	0.68520 0.55920 0.12270 -0.18300
H 	H 	0.69610 0.56420 0.18000 0.09600
C 	C 	0.64175 0.54379 0.10980 0.09200
H 	H 	0.62370 0.53850 0.15810 0.01400
C 	C 	0.75997 0.58736 0.06990 -0.09400
C 	C 	0.77990 0.62571 0.11830 -0.03500
H 	H 	0.76370 0.63810 0.13570 0.04400
H 	H 	0.77020 0.49690 0.09600 -0.06700
H 	H 	0.74370 0.44370 0.98520 0.25100
O 	O 	0.22407 0.85253 0.41383 -0.40800
O 	O 	0.23058 0.84668 0.26633 -0.41000
C 	C 	0.24495 0.85473 0.34273 0.37000
C 	C 	0.29173 0.86948 0.35703 -0.15100
C 	C 	0.31864 0.87490 0.28933 0.10500
H 	H 	0.30807 0.86873 0.23183 0.00700
C 	C 	0.36216 0.88968 0.30533 -0.19700
H 	H 	0.37967 0.89193 0.25783 0.11300
C 	C 	0.37974 0.90074 0.38523 0.15100
C 	C 	0.35187 0.89253 0.45603 -0.18200
H 	H 	0.36277 0.89753 0.51333 0.09600
C 	C 	0.30842 0.87712 0.44313 0.09200
H 	H 	0.29037 0.87183 0.49143 0.01400
C 	C 	0.42664 0.92069 0.40323 -0.09400
C 	C 	0.44657 0.95904 0.45163 -0.03600
H 	H 	0.43037 0.97143 0.46903 0.04400
H 	H 	0.43687 0.83023 0.42933 -0.06700
H 	H 	0.41037 0.77703 0.31853 0.25300
O 	O 	0.89073 0.18587 0.74717 -0.40800
O 	O 	0.89724 0.18002 0.59967 -0.41000
C 	C 	0.91161 0.18807 0.67607 0.36900
C 	C 	0.95839 0.20282 0.69037 -0.15100
C 	C 	0.98530 0.20824 0.62267 0.10500
H 	H 	0.97473 0.20207 0.56517 0.00700
C 	C 	0.02882 0.22302 0.63867 -0.19600
H 	H 	0.04633 0.22527 0.59117 0.11300
C 	C 	0.04640 0.23408 0.71857 0.15100
C 	C 	0.01853 0.22587 0.78937 -0.18200
H 	H 	0.02943 0.23087 0.84667 0.09600
C 	C 	0.97508 0.21046 0.77647 0.09100
H 	H 	0.95703 0.20517 0.82477 0.01400
C 	C 	0.09330 0.25403 0.73657 -0.09300
C 	C 	0.11323 0.29238 0.78497 -0.03600
H 	H 	0.09703 0.30477 0.80237 0.04400
H 	H 	0.10353 0.16357 0.76267 -0.06700
H 	H 	0.07703 0.11037 0.65187 0.25300
Cu	Cu	0.50335 0.00670 0.91397 0.90300
Cu	Cu	0.17002 0.34003 0.24730 0.90300
Cu	Cu	0.83668 0.67337 0.58064 0.90300
Cu	Cu	0.99330 0.49665 0.91397 0.90300
Cu	Cu	0.65997 0.82998 0.24730 0.90300
Cu	Cu	0.32663 0.16332 0.58064 0.90300
Cu	Cu	0.50335 0.49665 0.91397 0.90300
Cu	Cu	0.17002 0.82998 0.24730 0.90300
Cu	Cu	0.83668 0.16332 0.58064 0.90300
Cu	Cu	0.00670 0.50335 0.08603 0.90300
Cu	Cu	0.67337 0.83668 0.41936 0.90300
Cu	Cu	0.34003 0.17002 0.75270 0.90300
Cu	Cu	0.49665 0.99330 0.08603 0.90300
Cu	Cu	0.16332 0.32663 0.41936 0.90300
Cu	Cu	0.82998 0.65997 0.75270 0.90300
Cu	Cu	0.49665 0.50335 0.08603 0.90300
Cu	Cu	0.16332 0.83668 0.41936 0.90300
Cu	Cu	0.82998 0.17002 0.75270 0.90300
O 	O 	0.76537 0.23463 0.99660 -0.27600
C 	C 	0.82287 0.17713 0.14110 0.00000
C 	C 	0.78438 0.21562 0.04600 0.16100
C 	C 	0.74710 0.25290 0.05830 0.33700
C 	C 	0.72400 0.27600 0.02090 -0.76200
H 	H 	0.71380 0.28620 0.06880 0.24300
O 	O 	0.43204 0.56796 0.32993 -0.27600
C 	C 	0.48954 0.51046 0.47443 0.00100
C 	C 	0.45105 0.54895 0.37933 0.16000
C 	C 	0.41377 0.58623 0.39163 0.33900
C 	C 	0.39067 0.60933 0.35423 -0.76800
H 	H 	0.38047 0.61953 0.40213 0.24500
O 	O 	0.09870 0.90130 0.66327 -0.27600
C 	C 	0.15620 0.84380 0.80777 0.00100
C 	C 	0.11771 0.88229 0.71267 0.15900
C 	C 	0.08043 0.91957 0.72497 0.33900
C 	C 	0.05733 0.94267 0.68757 -0.76800
H 	H 	0.04713 0.95287 0.73547 0.24500
O 	O 	0.76537 0.53074 0.99660 -0.27600
C 	C 	0.82287 0.64574 0.14110 0.00100
C 	C 	0.78438 0.56876 0.04600 0.16000
C 	C 	0.74710 0.49420 0.05830 0.33700
C 	C 	0.72400 0.44800 0.02090 -0.76300
H 	H 	0.71380 0.42760 0.06880 0.24300
O 	O 	0.43204 0.86407 0.32993 -0.27600
C 	C 	0.48954 0.97907 0.47443 0.00100
C 	C 	0.45105 0.90209 0.37933 0.16000
C 	C 	0.41377 0.82753 0.39163 0.33900
C 	C 	0.39067 0.78133 0.35423 -0.76800
H 	H 	0.38047 0.76093 0.40213 0.24500
O 	O 	0.09870 0.19741 0.66327 -0.27600
C 	C 	0.15620 0.31241 0.80777 0.00100
C 	C 	0.11771 0.23543 0.71267 0.16000
C 	C 	0.08043 0.16087 0.72497 0.33900
C 	C 	0.05733 0.11467 0.68757 -0.76800
H 	H 	0.04713 0.09427 0.73547 0.24500
O 	O 	0.46926 0.23463 0.99660 -0.27600
C 	C 	0.35426 0.17713 0.14110 0.00100
C 	C 	0.43124 0.21562 0.04600 0.16000
C 	C 	0.50580 0.25290 0.05830 0.33700
C 	C 	0.55200 0.27600 0.02090 -0.76300
H 	H 	0.57240 0.28620 0.06880 0.24300
O 	O 	0.13593 0.56796 0.32993 -0.27600
C 	C 	0.02093 0.51046 0.47443 0.00100
C 	C 	0.09791 0.54895 0.37933 0.16000
C 	C 	0.17247 0.58623 0.39163 0.33900
C 	C 	0.21867 0.60933 0.35423 -0.76800
H 	H 	0.23907 0.61953 0.40213 0.24500
O 	O 	0.80259 0.90130 0.66327 -0.27600
C 	C 	0.68759 0.84380 0.80777 0.00100
C 	C 	0.76457 0.88229 0.71267 0.16000
C 	C 	0.83913 0.91957 0.72497 0.33900
C 	C 	0.88533 0.94267 0.68757 -0.76800
H 	H 	0.90573 0.95287 0.73547 0.24500
O 	O 	0.23463 0.76537 0.00340 -0.27600
C 	C 	0.17713 0.82287 0.85890 0.00000
C 	C 	0.21562 0.78438 0.95400 0.16100
C 	C 	0.25290 0.74710 0.94170 0.33700
C 	C 	0.27600 0.72400 0.97910 -0.76200
H 	H 	0.28620 0.71380 0.93120 0.24300
O 	O 	0.90130 0.09870 0.33673 -0.27600
C 	C 	0.84380 0.15620 0.19223 0.00100
C 	C 	0.88229 0.11771 0.28733 0.15900
C 	C 	0.91957 0.08043 0.27503 0.33900
C 	C 	0.94267 0.05733 0.31243 -0.76800
H 	H 	0.95287 0.04713 0.26453 0.24500
O 	O 	0.56796 0.43204 0.67007 -0.27600
C 	C 	0.51046 0.48954 0.52557 0.00100
C 	C 	0.54895 0.45105 0.62067 0.16000
C 	C 	0.58623 0.41377 0.60837 0.33900
C 	C 	0.60933 0.39067 0.64577 -0.76800
H 	H 	0.61953 0.38047 0.59787 0.24500
O 	O 	0.53074 0.76537 0.00340 -0.27600
C 	C 	0.64574 0.82287 0.85890 0.00100
C 	C 	0.56876 0.78438 0.95400 0.16000
C 	C 	0.49420 0.74710 0.94170 0.33700
C 	C 	0.44800 0.72400 0.97910 -0.76300
H 	H 	0.42760 0.71380 0.93120 0.24300
O 	O 	0.19741 0.09870 0.33673 -0.27600
C 	C 	0.31241 0.15620 0.19223 0.00100
C 	C 	0.23543 0.11771 0.28733 0.16000
C 	C 	0.16087 0.08043 0.27503 0.33900
C 	C 	0.11467 0.05733 0.31243 -0.76800
H 	H 	0.09427 0.04713 0.26453 0.24500
O 	O 	0.86407 0.43204 0.67007 -0.27600
C 	C 	0.97907 0.48954 0.52557 0.00100
C 	C 	0.90209 0.45105 0.62067 0.16000
C 	C 	0.82753 0.41377 0.60837 0.33900
C 	C 	0.78133 0.39067 0.64577 -0.76800
H 	H 	0.76093 0.38047 0.59787 0.24500
O 	O 	0.23463 0.46926 0.00340 -0.27600
C 	C 	0.17713 0.35426 0.85890 0.00100
C 	C 	0.21562 0.43124 0.95400 0.16000
C 	C 	0.25290 0.50580 0.94170 0.33700
C 	C 	0.27600 0.55200 0.97910 -0.76300
H 	H 	0.28620 0.57240 0.93120 0.24300
O 	O 	0.90130 0.80259 0.33673 -0.27600
C 	C 	0.84380 0.68759 0.19223 0.00100
C 	C 	0.88229 0.76457 0.28733 0.16000
C 	C 	0.91957 0.83913 0.27503 0.33900
C 	C 	0.94267 0.88533 0.31243 -0.76800
H 	H 	0.95287 0.90573 0.26453 0.24500
O 	O 	0.56796 0.13593 0.67007 -0.27600
C 	C 	0.51046 0.02093 0.52557 0.00100
C 	C 	0.54895 0.09791 0.62067 0.16000
C 	C 	0.58623 0.17247 0.60837 0.33900
C 	C 	0.60933 0.21867 0.64577 -0.76800
H 	H 	0.61953 0.23907 0.59787 0.24500
