data_crystal

_cell_length_a 35.06590
_cell_length_b 35.06590
_cell_length_c 22.26600
_cell_angle_alpha 90.00000
_cell_angle_beta  90.00000
_cell_angle_gamma 120.00000

_symmetry_space_group_name_	'P 1'
_symmetry_space_group_name_H-M	'P 1'

loop_
_symmetry_equiv_pos_as_xyz
  x,y,z

loop_
_atom_site_label
_atom_site_type_symbol
_atom_site_fract_x
_atom_site_fract_y
_atom_site_fract_z
_atom_site_charge
O 	O 	0.52524 0.55354 0.43271 -0.43400
O 	O 	0.51086 0.56709 0.52277 -0.44100
C 	C 	0.52354 0.57761 0.47200 0.43000
C 	C 	0.53901 0.62520 0.45376 -0.16400
C 	C 	0.54129 0.65520 0.49545 0.09700
H 	H 	0.53210 0.64600 0.53560 0.01100
C 	C 	0.55696 0.69880 0.47940 -0.17900
H 	H 	0.55870 0.71910 0.50900 0.10200
C 	C 	0.56963 0.71280 0.42300 0.14100
C 	C 	0.56740 0.68239 0.38070 -0.16900
H 	H 	0.57610 0.69140 0.34040 0.09000
C 	C 	0.55240 0.63857 0.39730 0.09600
H 	H 	0.55170 0.61830 0.36840 0.01500
C 	C 	0.58859 0.75969 0.40330 -0.09400
C 	C 	0.62608 0.77939 0.36890 -0.02400
H 	H 	0.63830 0.76210 0.35540 0.03900
H 	H 	0.48950 0.76760 0.39280 -0.13300
H 	H 	0.45490 0.70460 0.48190 0.30900
O 	O 	0.19191 0.88687 0.76604 -0.43400
O 	O 	0.17753 0.90042 0.85610 -0.44100
C 	C 	0.19021 0.91094 0.80533 0.43000
C 	C 	0.20568 0.95853 0.78709 -0.16300
C 	C 	0.20796 0.98853 0.82878 0.09700
H 	H 	0.19877 0.97933 0.86893 0.01100
C 	C 	0.22363 0.03213 0.81273 -0.17900
H 	H 	0.22537 0.05243 0.84233 0.10200
C 	C 	0.23630 0.04613 0.75633 0.14100
C 	C 	0.23407 0.01572 0.71403 -0.16900
H 	H 	0.24277 0.02473 0.67373 0.09000
C 	C 	0.21907 0.97190 0.73063 0.09600
H 	H 	0.21837 0.95163 0.70173 0.01500
C 	C 	0.25526 0.09302 0.73663 -0.09400
C 	C 	0.29275 0.11272 0.70223 -0.02400
H 	H 	0.30497 0.09543 0.68873 0.04000
H 	H 	0.15617 0.10093 0.72613 -0.13300
H 	H 	0.12157 0.03793 0.81523 0.30900
O 	O 	0.85857 0.22021 0.09938 -0.43400
O 	O 	0.84419 0.23376 0.18944 -0.44100
C 	C 	0.85687 0.24428 0.13867 0.43000
C 	C 	0.87234 0.29187 0.12043 -0.16400
C 	C 	0.87462 0.32187 0.16212 0.09700
H 	H 	0.86543 0.31267 0.20227 0.01100
C 	C 	0.89029 0.36547 0.14607 -0.17900
H 	H 	0.89203 0.38577 0.17567 0.10200
C 	C 	0.90296 0.37947 0.08967 0.14100
C 	C 	0.90073 0.34906 0.04737 -0.16900
H 	H 	0.90943 0.35807 0.00707 0.09000
C 	C 	0.88573 0.30524 0.06397 0.09600
H 	H 	0.88503 0.28497 0.03507 0.01500
C 	C 	0.92192 0.42636 0.06997 -0.09400
C 	C 	0.95941 0.44606 0.03557 -0.02400
H 	H 	0.97163 0.42877 0.02207 0.04000
H 	H 	0.82283 0.43427 0.05947 -0.13300
H 	H 	0.78823 0.37127 0.14857 0.30900
O 	O 	0.44646 0.97170 0.43271 -0.43400
O 	O 	0.43291 0.94377 0.52277 -0.44100
C 	C 	0.42239 0.94593 0.47200 0.43000
C 	C 	0.37480 0.91381 0.45376 -0.16400
C 	C 	0.34480 0.88609 0.49545 0.09600
H 	H 	0.35400 0.88610 0.53560 0.01000
C 	C 	0.30120 0.85816 0.47940 -0.18000
H 	H 	0.28090 0.83960 0.50900 0.10100
C 	C 	0.28720 0.85683 0.42300 0.14000
C 	C 	0.31761 0.88501 0.38070 -0.17000
H 	H 	0.30860 0.88470 0.34040 0.08900
C 	C 	0.36143 0.91383 0.39730 0.09500
H 	H 	0.38170 0.93340 0.36840 0.01400
C 	C 	0.24031 0.82890 0.40330 -0.09500
C 	C 	0.22061 0.84669 0.36890 -0.02500
H 	H 	0.23790 0.87620 0.35540 0.03800
H 	H 	0.23240 0.72190 0.39280 -0.13300
H 	H 	0.29540 0.75030 0.48190 0.30800
O 	O 	0.11313 0.30503 0.76604 -0.43500
O 	O 	0.09958 0.27710 0.85610 -0.44200
C 	C 	0.08906 0.27926 0.80533 0.42900
C 	C 	0.04147 0.24714 0.78709 -0.16400
C 	C 	0.01147 0.21942 0.82878 0.09600
H 	H 	0.02067 0.21943 0.86893 0.01000
C 	C 	0.96787 0.19149 0.81273 -0.18000
H 	H 	0.94757 0.17293 0.84233 0.10100
C 	C 	0.95387 0.19016 0.75633 0.14000
C 	C 	0.98428 0.21834 0.71403 -0.16900
H 	H 	0.97527 0.21803 0.67373 0.08900
C 	C 	0.02810 0.24716 0.73063 0.09500
H 	H 	0.04837 0.26673 0.70173 0.01400
C 	C 	0.90698 0.16223 0.73663 -0.09500
C 	C 	0.88728 0.18002 0.70223 -0.02500
H 	H 	0.90457 0.20953 0.68873 0.03900
H 	H 	0.89907 0.05523 0.72613 -0.13300
H 	H 	0.96207 0.08363 0.81523 0.30800
O 	O 	0.77979 0.63837 0.09938 -0.43500
O 	O 	0.76624 0.61044 0.18944 -0.44200
C 	C 	0.75572 0.61260 0.13867 0.42900
C 	C 	0.70813 0.58048 0.12043 -0.16500
C 	C 	0.67813 0.55276 0.16212 0.09600
H 	H 	0.68733 0.55277 0.20227 0.01000
C 	C 	0.63453 0.52483 0.14607 -0.18000
H 	H 	0.61423 0.50627 0.17567 0.10100
C 	C 	0.62053 0.52350 0.08967 0.14000
C 	C 	0.65094 0.55168 0.04737 -0.17000
H 	H 	0.64193 0.55137 0.00707 0.08900
C 	C 	0.69476 0.58050 0.06397 0.09500
H 	H 	0.71503 0.60007 0.03507 0.01400
C 	C 	0.57364 0.49557 0.06997 -0.09500
C 	C 	0.55394 0.51336 0.03557 -0.02500
H 	H 	0.57123 0.54287 0.02207 0.03900
H 	H 	0.56573 0.38857 0.05947 -0.13400
H 	H 	0.62873 0.41697 0.14857 0.30800
O 	O 	0.02830 0.47476 0.43271 -0.43500
O 	O 	0.05623 0.48914 0.52277 -0.44200
C 	C 	0.05407 0.47646 0.47200 0.42900
C 	C 	0.08619 0.46099 0.45376 -0.16500
C 	C 	0.11391 0.45871 0.49545 0.09600
H 	H 	0.11390 0.46790 0.53560 0.01000
C 	C 	0.14184 0.44304 0.47940 -0.18000
H 	H 	0.16040 0.44130 0.50900 0.10100
C 	C 	0.14317 0.43037 0.42300 0.14000
C 	C 	0.11499 0.43260 0.38070 -0.17000
H 	H 	0.11530 0.42390 0.34040 0.08900
C 	C 	0.08617 0.44760 0.39730 0.09500
H 	H 	0.06660 0.44830 0.36840 0.01400
C 	C 	0.17110 0.41141 0.40330 -0.09500
C 	C 	0.15331 0.37392 0.36890 -0.02500
H 	H 	0.12380 0.36170 0.35540 0.03900
H 	H 	0.27810 0.51050 0.39280 -0.13400
H 	H 	0.24970 0.54510 0.48190 0.30800
O 	O 	0.69497 0.80809 0.76604 -0.43500
O 	O 	0.72290 0.82247 0.85610 -0.44200
C 	C 	0.72074 0.80979 0.80533 0.42900
C 	C 	0.75286 0.79432 0.78709 -0.16500
C 	C 	0.78058 0.79204 0.82878 0.09600
H 	H 	0.78057 0.80123 0.86893 0.01000
C 	C 	0.80851 0.77637 0.81273 -0.18000
H 	H 	0.82707 0.77463 0.84233 0.10100
C 	C 	0.80984 0.76370 0.75633 0.14000
C 	C 	0.78166 0.76593 0.71403 -0.17000
H 	H 	0.78197 0.75723 0.67373 0.08900
C 	C 	0.75284 0.78093 0.73063 0.09500
H 	H 	0.73327 0.78163 0.70173 0.01400
C 	C 	0.83777 0.74474 0.73663 -0.09500
C 	C 	0.81998 0.70725 0.70223 -0.02500
H 	H 	0.79047 0.69503 0.68873 0.03900
H 	H 	0.94477 0.84383 0.72613 -0.13400
H 	H 	0.91637 0.87843 0.81523 0.30800
O 	O 	0.36163 0.14143 0.09938 -0.43500
O 	O 	0.38956 0.15581 0.18944 -0.44200
C 	C 	0.38740 0.14313 0.13867 0.42900
C 	C 	0.41952 0.12766 0.12043 -0.16500
C 	C 	0.44724 0.12538 0.16212 0.09600
H 	H 	0.44723 0.13457 0.20227 0.01000
C 	C 	0.47517 0.10971 0.14607 -0.18000
H 	H 	0.49373 0.10797 0.17567 0.10100
C 	C 	0.47650 0.09704 0.08967 0.14000
C 	C 	0.44832 0.09927 0.04737 -0.17000
H 	H 	0.44863 0.09057 0.00707 0.08900
C 	C 	0.41950 0.11427 0.06397 0.09500
H 	H 	0.39993 0.11497 0.03507 0.01400
C 	C 	0.50443 0.07808 0.06997 -0.09500
C 	C 	0.48664 0.04059 0.03557 -0.02500
H 	H 	0.45713 0.02837 0.02207 0.03900
H 	H 	0.61143 0.17717 0.05947 -0.13400
H 	H 	0.58303 0.21177 0.14857 0.30800
O 	O 	0.55354 0.52524 0.56729 -0.43500
O 	O 	0.56709 0.51086 0.47723 -0.44200
C 	C 	0.57761 0.52354 0.52800 0.42900
C 	C 	0.62520 0.53901 0.54624 -0.16500
C 	C 	0.65520 0.54129 0.50455 0.09600
H 	H 	0.64600 0.53210 0.46440 0.01000
C 	C 	0.69880 0.55696 0.52060 -0.18000
H 	H 	0.71910 0.55870 0.49100 0.10100
C 	C 	0.71280 0.56963 0.57700 0.14000
C 	C 	0.68239 0.56740 0.61930 -0.17000
H 	H 	0.69140 0.57610 0.65960 0.08900
C 	C 	0.63857 0.55240 0.60270 0.09500
H 	H 	0.61830 0.55170 0.63160 0.01400
C 	C 	0.75969 0.58859 0.59670 -0.09500
C 	C 	0.77939 0.62608 0.63110 -0.02500
H 	H 	0.76210 0.63830 0.64460 0.03800
H 	H 	0.76760 0.48950 0.60720 -0.13400
H 	H 	0.70460 0.45490 0.51810 0.30800
O 	O 	0.22021 0.85857 0.90062 -0.43500
O 	O 	0.23376 0.84419 0.81056 -0.44200
C 	C 	0.24428 0.85687 0.86133 0.42900
C 	C 	0.29187 0.87234 0.87957 -0.16500
C 	C 	0.32187 0.87462 0.83788 0.09600
H 	H 	0.31267 0.86543 0.79773 0.01000
C 	C 	0.36547 0.89029 0.85393 -0.18000
H 	H 	0.38577 0.89203 0.82433 0.10100
C 	C 	0.37947 0.90296 0.91033 0.14000
C 	C 	0.34906 0.90073 0.95263 -0.17000
H 	H 	0.35807 0.90943 0.99293 0.08900
C 	C 	0.30524 0.88573 0.93603 0.09500
H 	H 	0.28497 0.88503 0.96493 0.01400
C 	C 	0.42636 0.92192 0.93003 -0.09500
C 	C 	0.44606 0.95941 0.96443 -0.02500
H 	H 	0.42877 0.97163 0.97793 0.03900
H 	H 	0.43427 0.82283 0.94053 -0.13400
H 	H 	0.37127 0.78823 0.85143 0.30800
O 	O 	0.88687 0.19191 0.23396 -0.43500
O 	O 	0.90042 0.17753 0.14390 -0.44200
C 	C 	0.91094 0.19021 0.19467 0.42900
C 	C 	0.95853 0.20568 0.21291 -0.16400
C 	C 	0.98853 0.20796 0.17122 0.09600
H 	H 	0.97933 0.19877 0.13107 0.01000
C 	C 	0.03213 0.22363 0.18727 -0.18000
H 	H 	0.05243 0.22537 0.15767 0.10100
C 	C 	0.04613 0.23630 0.24367 0.14000
C 	C 	0.01572 0.23407 0.28597 -0.17000
H 	H 	0.02473 0.24277 0.32627 0.08900
C 	C 	0.97190 0.21907 0.26937 0.09500
H 	H 	0.95163 0.21837 0.29827 0.01400
C 	C 	0.09302 0.25526 0.26337 -0.09500
C 	C 	0.11272 0.29275 0.29777 -0.02500
H 	H 	0.09543 0.30497 0.31127 0.03900
H 	H 	0.10093 0.15617 0.27387 -0.13400
H 	H 	0.03793 0.12157 0.18477 0.30800
O 	O 	0.97170 0.44646 0.56729 -0.43500
O 	O 	0.94377 0.43291 0.47723 -0.44200
C 	C 	0.94593 0.42239 0.52800 0.42900
C 	C 	0.91381 0.37480 0.54624 -0.16500
C 	C 	0.88609 0.34480 0.50455 0.09600
H 	H 	0.88610 0.35400 0.46440 0.01000
C 	C 	0.85816 0.30120 0.52060 -0.18000
H 	H 	0.83960 0.28090 0.49100 0.10100
C 	C 	0.85683 0.28720 0.57700 0.14000
C 	C 	0.88501 0.31761 0.61930 -0.17000
H 	H 	0.88470 0.30860 0.65960 0.08900
C 	C 	0.91383 0.36143 0.60270 0.09500
H 	H 	0.93340 0.38170 0.63160 0.01400
C 	C 	0.82890 0.24031 0.59670 -0.09500
C 	C 	0.84669 0.22061 0.63110 -0.02500
H 	H 	0.87620 0.23790 0.64460 0.03800
H 	H 	0.72190 0.23240 0.60720 -0.13300
H 	H 	0.75030 0.29540 0.51810 0.30800
O 	O 	0.63837 0.77979 0.90062 -0.43500
O 	O 	0.61044 0.76624 0.81056 -0.44200
C 	C 	0.61260 0.75572 0.86133 0.42900
C 	C 	0.58048 0.70813 0.87957 -0.16500
C 	C 	0.55276 0.67813 0.83788 0.09600
H 	H 	0.55277 0.68733 0.79773 0.01000
C 	C 	0.52483 0.63453 0.85393 -0.18000
H 	H 	0.50627 0.61423 0.82433 0.10100
C 	C 	0.52350 0.62053 0.91033 0.14000
C 	C 	0.55168 0.65094 0.95263 -0.17000
H 	H 	0.55137 0.64193 0.99293 0.08900
C 	C 	0.58050 0.69476 0.93603 0.09500
H 	H 	0.60007 0.71503 0.96493 0.01400
C 	C 	0.49557 0.57364 0.93003 -0.09500
C 	C 	0.51336 0.55394 0.96443 -0.02500
H 	H 	0.54287 0.57123 0.97793 0.03900
H 	H 	0.38857 0.56573 0.94053 -0.13400
H 	H 	0.41697 0.62873 0.85143 0.30800
O 	O 	0.30503 0.11313 0.23396 -0.43500
O 	O 	0.27710 0.09958 0.14390 -0.44200
C 	C 	0.27926 0.08906 0.19467 0.42900
C 	C 	0.24714 0.04147 0.21291 -0.16400
C 	C 	0.21942 0.01147 0.17122 0.09600
H 	H 	0.21943 0.02067 0.13107 0.01000
C 	C 	0.19149 0.96787 0.18727 -0.18000
H 	H 	0.17293 0.94757 0.15767 0.10100
C 	C 	0.19016 0.95387 0.24367 0.14000
C 	C 	0.21834 0.98428 0.28597 -0.16900
H 	H 	0.21803 0.97527 0.32627 0.08900
C 	C 	0.24716 0.02810 0.26937 0.09500
H 	H 	0.26673 0.04837 0.29827 0.01400
C 	C 	0.16223 0.90698 0.26337 -0.09500
C 	C 	0.18002 0.88728 0.29777 -0.02500
H 	H 	0.20953 0.90457 0.31127 0.03900
H 	H 	0.05523 0.89907 0.27387 -0.13300
H 	H 	0.08363 0.96207 0.18477 0.30800
O 	O 	0.47476 0.02830 0.56729 -0.43500
O 	O 	0.48914 0.05623 0.47723 -0.44200
C 	C 	0.47646 0.05407 0.52800 0.42900
C 	C 	0.46099 0.08619 0.54624 -0.16500
C 	C 	0.45871 0.11391 0.50455 0.09600
H 	H 	0.46790 0.11390 0.46440 0.01000
C 	C 	0.44304 0.14184 0.52060 -0.18000
H 	H 	0.44130 0.16040 0.49100 0.10100
C 	C 	0.43037 0.14317 0.57700 0.14000
C 	C 	0.43260 0.11499 0.61930 -0.17000
H 	H 	0.42390 0.11530 0.65960 0.08900
C 	C 	0.44760 0.08617 0.60270 0.09500
H 	H 	0.44830 0.06660 0.63160 0.01400
C 	C 	0.41141 0.17110 0.59670 -0.09500
C 	C 	0.37392 0.15331 0.63110 -0.02500
H 	H 	0.36170 0.12380 0.64460 0.03900
H 	H 	0.51050 0.27810 0.60720 -0.13400
H 	H 	0.54510 0.24970 0.51810 0.30800
O 	O 	0.14143 0.36163 0.90062 -0.43500
O 	O 	0.15581 0.38956 0.81056 -0.44200
C 	C 	0.14313 0.38740 0.86133 0.42900
C 	C 	0.12766 0.41952 0.87957 -0.16500
C 	C 	0.12538 0.44724 0.83788 0.09600
H 	H 	0.13457 0.44723 0.79773 0.01000
C 	C 	0.10971 0.47517 0.85393 -0.18000
H 	H 	0.10797 0.49373 0.82433 0.10100
C 	C 	0.09704 0.47650 0.91033 0.14000
C 	C 	0.09927 0.44832 0.95263 -0.17000
H 	H 	0.09057 0.44863 0.99293 0.08900
C 	C 	0.11427 0.41950 0.93603 0.09500
H 	H 	0.11497 0.39993 0.96493 0.01400
C 	C 	0.07808 0.50443 0.93003 -0.09500
C 	C 	0.04059 0.48664 0.96443 -0.02500
H 	H 	0.02837 0.45713 0.97793 0.03900
H 	H 	0.17717 0.61143 0.94053 -0.13400
H 	H 	0.21177 0.58303 0.85143 0.30800
O 	O 	0.80809 0.69497 0.23396 -0.43500
O 	O 	0.82247 0.72290 0.14390 -0.44200
C 	C 	0.80979 0.72074 0.19467 0.42900
C 	C 	0.79432 0.75286 0.21291 -0.16500
C 	C 	0.79204 0.78058 0.17122 0.09600
H 	H 	0.80123 0.78057 0.13107 0.01000
C 	C 	0.77637 0.80851 0.18727 -0.18000
H 	H 	0.77463 0.82707 0.15767 0.10100
C 	C 	0.76370 0.80984 0.24367 0.14000
C 	C 	0.76593 0.78166 0.28597 -0.17000
H 	H 	0.75723 0.78197 0.32627 0.08900
C 	C 	0.78093 0.75284 0.26937 0.09500
H 	H 	0.78163 0.73327 0.29827 0.01400
C 	C 	0.74474 0.83777 0.26337 -0.09500
C 	C 	0.70725 0.81998 0.29777 -0.02500
H 	H 	0.69503 0.79047 0.31127 0.03900
H 	H 	0.84383 0.94477 0.27387 -0.13400
H 	H 	0.87843 0.91637 0.18477 0.30800
O 	O 	0.47476 0.44646 0.56729 -0.43500
O 	O 	0.48914 0.43291 0.47723 -0.44200
C 	C 	0.47646 0.42239 0.52800 0.42900
C 	C 	0.46099 0.37480 0.54624 -0.16500
C 	C 	0.45871 0.34480 0.50455 0.09600
H 	H 	0.46790 0.35400 0.46440 0.01000
C 	C 	0.44304 0.30120 0.52060 -0.18000
H 	H 	0.44130 0.28090 0.49100 0.10100
C 	C 	0.43037 0.28720 0.57700 0.14000
C 	C 	0.43260 0.31761 0.61930 -0.17000
H 	H 	0.42390 0.30860 0.65960 0.08900
C 	C 	0.44760 0.36143 0.60270 0.09500
H 	H 	0.44830 0.38170 0.63160 0.01400
C 	C 	0.41141 0.24031 0.59670 -0.09500
C 	C 	0.37392 0.22061 0.63110 -0.02500
H 	H 	0.36170 0.23790 0.64460 0.03800
H 	H 	0.51050 0.23240 0.60720 -0.13400
H 	H 	0.54510 0.29540 0.51810 0.30800
O 	O 	0.14143 0.77979 0.90062 -0.43500
O 	O 	0.15581 0.76624 0.81056 -0.44200
C 	C 	0.14313 0.75572 0.86133 0.42900
C 	C 	0.12766 0.70813 0.87957 -0.16500
C 	C 	0.12538 0.67813 0.83788 0.09600
H 	H 	0.13457 0.68733 0.79773 0.01000
C 	C 	0.10971 0.63453 0.85393 -0.18000
H 	H 	0.10797 0.61423 0.82433 0.10100
C 	C 	0.09704 0.62053 0.91033 0.14000
C 	C 	0.09927 0.65094 0.95263 -0.17000
H 	H 	0.09057 0.64193 0.99293 0.08900
C 	C 	0.11427 0.69476 0.93603 0.09500
H 	H 	0.11497 0.71503 0.96493 0.01400
C 	C 	0.07808 0.57364 0.93003 -0.09500
C 	C 	0.04059 0.55394 0.96443 -0.02500
H 	H 	0.02837 0.57123 0.97793 0.03900
H 	H 	0.17717 0.56573 0.94053 -0.13400
H 	H 	0.21177 0.62873 0.85143 0.30800
O 	O 	0.80809 0.11313 0.23396 -0.43500
O 	O 	0.82247 0.09958 0.14390 -0.44200
C 	C 	0.80979 0.08906 0.19467 0.42900
C 	C 	0.79432 0.04147 0.21291 -0.16400
C 	C 	0.79204 0.01147 0.17122 0.09600
H 	H 	0.80123 0.02067 0.13107 0.01000
C 	C 	0.77637 0.96787 0.18727 -0.18000
H 	H 	0.77463 0.94757 0.15767 0.10100
C 	C 	0.76370 0.95387 0.24367 0.14000
C 	C 	0.76593 0.98428 0.28597 -0.17000
H 	H 	0.75723 0.97527 0.32627 0.08900
C 	C 	0.78093 0.02810 0.26937 0.09500
H 	H 	0.78163 0.04837 0.29827 0.01400
C 	C 	0.74474 0.90698 0.26337 -0.09500
C 	C 	0.70725 0.88728 0.29777 -0.02500
H 	H 	0.69503 0.90457 0.31127 0.03900
H 	H 	0.84383 0.89907 0.27387 -0.13400
H 	H 	0.87843 0.96207 0.18477 0.30800
O 	O 	0.55354 0.02830 0.56729 -0.43500
O 	O 	0.56709 0.05623 0.47723 -0.44200
C 	C 	0.57761 0.05407 0.52800 0.42900
C 	C 	0.62520 0.08619 0.54624 -0.16500
C 	C 	0.65520 0.11391 0.50455 0.09600
H 	H 	0.64600 0.11390 0.46440 0.01000
C 	C 	0.69880 0.14184 0.52060 -0.18000
H 	H 	0.71910 0.16040 0.49100 0.10100
C 	C 	0.71280 0.14317 0.57700 0.14000
C 	C 	0.68239 0.11499 0.61930 -0.17000
H 	H 	0.69140 0.11530 0.65960 0.08900
C 	C 	0.63857 0.08617 0.60270 0.09500
H 	H 	0.61830 0.06660 0.63160 0.01400
C 	C 	0.75969 0.17110 0.59670 -0.09500
C 	C 	0.77939 0.15331 0.63110 -0.02500
H 	H 	0.76210 0.12380 0.64460 0.03800
H 	H 	0.76760 0.27810 0.60720 -0.13300
H 	H 	0.70460 0.24970 0.51810 0.30800
O 	O 	0.22021 0.36163 0.90062 -0.43500
O 	O 	0.23376 0.38956 0.81056 -0.44200
C 	C 	0.24428 0.38740 0.86133 0.42900
C 	C 	0.29187 0.41952 0.87957 -0.16500
C 	C 	0.32187 0.44724 0.83788 0.09600
H 	H 	0.31267 0.44723 0.79773 0.01000
C 	C 	0.36547 0.47517 0.85393 -0.18000
H 	H 	0.38577 0.49373 0.82433 0.10100
C 	C 	0.37947 0.47650 0.91033 0.14000
C 	C 	0.34906 0.44832 0.95263 -0.17000
H 	H 	0.35807 0.44863 0.99293 0.08900
C 	C 	0.30524 0.41950 0.93603 0.09500
H 	H 	0.28497 0.39993 0.96493 0.01400
C 	C 	0.42636 0.50443 0.93003 -0.09500
C 	C 	0.44606 0.48664 0.96443 -0.02500
H 	H 	0.42877 0.45713 0.97793 0.03900
H 	H 	0.43427 0.61143 0.94053 -0.13400
H 	H 	0.37127 0.58303 0.85143 0.30800
O 	O 	0.88687 0.69497 0.23396 -0.43500
O 	O 	0.90042 0.72290 0.14390 -0.44200
C 	C 	0.91094 0.72074 0.19467 0.42900
C 	C 	0.95853 0.75286 0.21291 -0.16400
C 	C 	0.98853 0.78058 0.17122 0.09600
H 	H 	0.97933 0.78057 0.13107 0.01000
C 	C 	0.03213 0.80851 0.18727 -0.18000
H 	H 	0.05243 0.82707 0.15767 0.10100
C 	C 	0.04613 0.80984 0.24367 0.14000
C 	C 	0.01572 0.78166 0.28597 -0.16900
H 	H 	0.02473 0.78197 0.32627 0.08900
C 	C 	0.97190 0.75284 0.26937 0.09500
H 	H 	0.95163 0.73327 0.29827 0.01400
C 	C 	0.09302 0.83777 0.26337 -0.09500
C 	C 	0.11272 0.81998 0.29777 -0.02500
H 	H 	0.09543 0.79047 0.31127 0.03900
H 	H 	0.10093 0.94477 0.27387 -0.13300
H 	H 	0.03793 0.91637 0.18477 0.30800
O 	O 	0.97170 0.52524 0.56729 -0.43500
O 	O 	0.94377 0.51086 0.47723 -0.44200
C 	C 	0.94593 0.52354 0.52800 0.42900
C 	C 	0.91381 0.53901 0.54624 -0.16500
C 	C 	0.88609 0.54129 0.50455 0.09600
H 	H 	0.88610 0.53210 0.46440 0.01000
C 	C 	0.85816 0.55696 0.52060 -0.18000
H 	H 	0.83960 0.55870 0.49100 0.10100
C 	C 	0.85683 0.56963 0.57700 0.14000
C 	C 	0.88501 0.56740 0.61930 -0.17000
H 	H 	0.88470 0.57610 0.65960 0.08900
C 	C 	0.91383 0.55240 0.60270 0.09500
H 	H 	0.93340 0.55170 0.63160 0.01400
C 	C 	0.82890 0.58859 0.59670 -0.09500
C 	C 	0.84669 0.62608 0.63110 -0.02500
H 	H 	0.87620 0.63830 0.64460 0.03900
H 	H 	0.72190 0.48950 0.60720 -0.13400
H 	H 	0.75030 0.45490 0.51810 0.30800
O 	O 	0.63837 0.85857 0.90062 -0.43500
O 	O 	0.61044 0.84419 0.81056 -0.44200
C 	C 	0.61260 0.85687 0.86133 0.42900
C 	C 	0.58048 0.87234 0.87957 -0.16500
C 	C 	0.55276 0.87462 0.83788 0.09600
H 	H 	0.55277 0.86543 0.79773 0.01000
C 	C 	0.52483 0.89029 0.85393 -0.18000
H 	H 	0.50627 0.89203 0.82433 0.10100
C 	C 	0.52350 0.90296 0.91033 0.14000
C 	C 	0.55168 0.90073 0.95263 -0.17000
H 	H 	0.55137 0.90943 0.99293 0.08900
C 	C 	0.58050 0.88573 0.93603 0.09500
H 	H 	0.60007 0.88503 0.96493 0.01400
C 	C 	0.49557 0.92192 0.93003 -0.09500
C 	C 	0.51336 0.95941 0.96443 -0.02500
H 	H 	0.54287 0.97163 0.97793 0.03900
H 	H 	0.38857 0.82283 0.94053 -0.13400
H 	H 	0.41697 0.78823 0.85143 0.30800
O 	O 	0.30503 0.19191 0.23396 -0.43500
O 	O 	0.27710 0.17753 0.14390 -0.44200
C 	C 	0.27926 0.19021 0.19467 0.42900
C 	C 	0.24714 0.20568 0.21291 -0.16500
C 	C 	0.21942 0.20796 0.17122 0.09600
H 	H 	0.21943 0.19877 0.13107 0.01000
C 	C 	0.19149 0.22363 0.18727 -0.18000
H 	H 	0.17293 0.22537 0.15767 0.10100
C 	C 	0.19016 0.23630 0.24367 0.14000
C 	C 	0.21834 0.23407 0.28597 -0.17000
H 	H 	0.21803 0.24277 0.32627 0.08900
C 	C 	0.24716 0.21907 0.26937 0.09500
H 	H 	0.26673 0.21837 0.29827 0.01400
C 	C 	0.16223 0.25526 0.26337 -0.09500
C 	C 	0.18002 0.29275 0.29777 -0.02500
H 	H 	0.20953 0.30497 0.31127 0.03900
H 	H 	0.05523 0.15617 0.27387 -0.13400
H 	H 	0.08363 0.12157 0.18477 0.30800
O 	O 	0.44646 0.47476 0.43271 -0.43500
O 	O 	0.43291 0.48914 0.52277 -0.44200
C 	C 	0.42239 0.47646 0.47200 0.42900
C 	C 	0.37480 0.46099 0.45376 -0.16500
C 	C 	0.34480 0.45871 0.49545 0.09600
H 	H 	0.35400 0.46790 0.53560 0.01000
C 	C 	0.30120 0.44304 0.47940 -0.18000
H 	H 	0.28090 0.44130 0.50900 0.10100
C 	C 	0.28720 0.43037 0.42300 0.14000
C 	C 	0.31761 0.43260 0.38070 -0.17000
H 	H 	0.30860 0.42390 0.34040 0.08900
C 	C 	0.36143 0.44760 0.39730 0.09500
H 	H 	0.38170 0.44830 0.36840 0.01400
C 	C 	0.24031 0.41141 0.40330 -0.09500
C 	C 	0.22061 0.37392 0.36890 -0.02500
H 	H 	0.23790 0.36170 0.35540 0.03800
H 	H 	0.23240 0.51050 0.39280 -0.13400
H 	H 	0.29540 0.54510 0.48190 0.30800
O 	O 	0.11313 0.80809 0.76604 -0.43500
O 	O 	0.09958 0.82247 0.85610 -0.44200
C 	C 	0.08906 0.80979 0.80533 0.42900
C 	C 	0.04147 0.79432 0.78709 -0.16400
C 	C 	0.01147 0.79204 0.82878 0.09600
H 	H 	0.02067 0.80123 0.86893 0.01000
C 	C 	0.96787 0.77637 0.81273 -0.18000
H 	H 	0.94757 0.77463 0.84233 0.10100
C 	C 	0.95387 0.76370 0.75633 0.14000
C 	C 	0.98428 0.76593 0.71403 -0.17000
H 	H 	0.97527 0.75723 0.67373 0.08900
C 	C 	0.02810 0.78093 0.73063 0.09500
H 	H 	0.04837 0.78163 0.70173 0.01400
C 	C 	0.90698 0.74474 0.73663 -0.09500
C 	C 	0.88728 0.70725 0.70223 -0.02500
H 	H 	0.90457 0.69503 0.68873 0.03900
H 	H 	0.89907 0.84383 0.72613 -0.13400
H 	H 	0.96207 0.87843 0.81523 0.30800
O 	O 	0.77979 0.14143 0.09938 -0.43500
O 	O 	0.76624 0.15581 0.18944 -0.44200
C 	C 	0.75572 0.14313 0.13867 0.42900
C 	C 	0.70813 0.12766 0.12043 -0.16500
C 	C 	0.67813 0.12538 0.16212 0.09600
H 	H 	0.68733 0.13457 0.20227 0.01000
C 	C 	0.63453 0.10971 0.14607 -0.18000
H 	H 	0.61423 0.10797 0.17567 0.10100
C 	C 	0.62053 0.09704 0.08967 0.14000
C 	C 	0.65094 0.09927 0.04737 -0.17000
H 	H 	0.64193 0.09057 0.00707 0.08900
C 	C 	0.69476 0.11427 0.06397 0.09500
H 	H 	0.71503 0.11497 0.03507 0.01400
C 	C 	0.57364 0.07808 0.06997 -0.09500
C 	C 	0.55394 0.04059 0.03557 -0.02500
H 	H 	0.57123 0.02837 0.02207 0.03900
H 	H 	0.56573 0.17717 0.05947 -0.13400
H 	H 	0.62873 0.21177 0.14857 0.30800
O 	O 	0.02830 0.55354 0.43271 -0.43500
O 	O 	0.05623 0.56709 0.52277 -0.44200
C 	C 	0.05407 0.57761 0.47200 0.42900
C 	C 	0.08619 0.62520 0.45376 -0.16500
C 	C 	0.11391 0.65520 0.49545 0.09600
H 	H 	0.11390 0.64600 0.53560 0.01000
C 	C 	0.14184 0.69880 0.47940 -0.18000
H 	H 	0.16040 0.71910 0.50900 0.10100
C 	C 	0.14317 0.71280 0.42300 0.14000
C 	C 	0.11499 0.68239 0.38070 -0.17000
H 	H 	0.11530 0.69140 0.34040 0.08900
C 	C 	0.08617 0.63857 0.39730 0.09500
H 	H 	0.06660 0.61830 0.36840 0.01400
C 	C 	0.17110 0.75969 0.40330 -0.09500
C 	C 	0.15331 0.77939 0.36890 -0.02500
H 	H 	0.12380 0.76210 0.35540 0.03800
H 	H 	0.27810 0.76760 0.39280 -0.13300
H 	H 	0.24970 0.70460 0.48190 0.30800
O 	O 	0.69497 0.88687 0.76604 -0.43500
O 	O 	0.72290 0.90042 0.85610 -0.44200
C 	C 	0.72074 0.91094 0.80533 0.42900
C 	C 	0.75286 0.95853 0.78709 -0.16400
C 	C 	0.78058 0.98853 0.82878 0.09600
H 	H 	0.78057 0.97933 0.86893 0.01000
C 	C 	0.80851 0.03213 0.81273 -0.18000
H 	H 	0.82707 0.05243 0.84233 0.10100
C 	C 	0.80984 0.04613 0.75633 0.14000
C 	C 	0.78166 0.01572 0.71403 -0.16900
H 	H 	0.78197 0.02473 0.67373 0.08900
C 	C 	0.75284 0.97190 0.73063 0.09500
H 	H 	0.73327 0.95163 0.70173 0.01400
C 	C 	0.83777 0.09302 0.73663 -0.09500
C 	C 	0.81998 0.11272 0.70223 -0.02500
H 	H 	0.79047 0.09543 0.68873 0.03900
H 	H 	0.94477 0.10093 0.72613 -0.13300
H 	H 	0.91637 0.03793 0.81523 0.30800
O 	O 	0.36163 0.22021 0.09938 -0.43500
O 	O 	0.38956 0.23376 0.18944 -0.44200
C 	C 	0.38740 0.24428 0.13867 0.42900
C 	C 	0.41952 0.29187 0.12043 -0.16500
C 	C 	0.44724 0.32187 0.16212 0.09600
H 	H 	0.44723 0.31267 0.20227 0.01000
C 	C 	0.47517 0.36547 0.14607 -0.18000
H 	H 	0.49373 0.38577 0.17567 0.10100
C 	C 	0.47650 0.37947 0.08967 0.14000
C 	C 	0.44832 0.34906 0.04737 -0.17000
H 	H 	0.44863 0.35807 0.00707 0.08900
C 	C 	0.41950 0.30524 0.06397 0.09500
H 	H 	0.39993 0.28497 0.03507 0.01400
C 	C 	0.50443 0.42636 0.06997 -0.09500
C 	C 	0.48664 0.44606 0.03557 -0.02500
H 	H 	0.45713 0.42877 0.02207 0.03900
H 	H 	0.61143 0.43427 0.05947 -0.13400
H 	H 	0.58303 0.37127 0.14857 0.30800
O 	O 	0.52524 0.97170 0.43271 -0.43500
O 	O 	0.51086 0.94377 0.52277 -0.44200
C 	C 	0.52354 0.94593 0.47200 0.42900
C 	C 	0.53901 0.91381 0.45376 -0.16500
C 	C 	0.54129 0.88609 0.49545 0.09600
H 	H 	0.53210 0.88610 0.53560 0.01000
C 	C 	0.55696 0.85816 0.47940 -0.18000
H 	H 	0.55870 0.83960 0.50900 0.10100
C 	C 	0.56963 0.85683 0.42300 0.14000
C 	C 	0.56740 0.88501 0.38070 -0.17000
H 	H 	0.57610 0.88470 0.34040 0.08900
C 	C 	0.55240 0.91383 0.39730 0.09500
H 	H 	0.55170 0.93340 0.36840 0.01400
C 	C 	0.58859 0.82890 0.40330 -0.09500
C 	C 	0.62608 0.84669 0.36890 -0.02500
H 	H 	0.63830 0.87620 0.35540 0.03900
H 	H 	0.48950 0.72190 0.39280 -0.13400
H 	H 	0.45490 0.75030 0.48190 0.30800
O 	O 	0.19191 0.30503 0.76604 -0.43500
O 	O 	0.17753 0.27710 0.85610 -0.44200
C 	C 	0.19021 0.27926 0.80533 0.42900
C 	C 	0.20568 0.24714 0.78709 -0.16500
C 	C 	0.20796 0.21942 0.82878 0.09600
H 	H 	0.19877 0.21943 0.86893 0.01000
C 	C 	0.22363 0.19149 0.81273 -0.18000
H 	H 	0.22537 0.17293 0.84233 0.10100
C 	C 	0.23630 0.19016 0.75633 0.14000
C 	C 	0.23407 0.21834 0.71403 -0.17000
H 	H 	0.24277 0.21803 0.67373 0.08900
C 	C 	0.21907 0.24716 0.73063 0.09500
H 	H 	0.21837 0.26673 0.70173 0.01400
C 	C 	0.25526 0.16223 0.73663 -0.09500
C 	C 	0.29275 0.18002 0.70223 -0.02500
H 	H 	0.30497 0.20953 0.68873 0.03900
H 	H 	0.15617 0.05523 0.72613 -0.13400
H 	H 	0.12157 0.08363 0.81523 0.30800
O 	O 	0.85857 0.63837 0.09938 -0.43500
O 	O 	0.84419 0.61044 0.18944 -0.44200
C 	C 	0.85687 0.61260 0.13867 0.42900
C 	C 	0.87234 0.58048 0.12043 -0.16500
C 	C 	0.87462 0.55276 0.16212 0.09600
H 	H 	0.86543 0.55277 0.20227 0.01000
C 	C 	0.89029 0.52483 0.14607 -0.18000
H 	H 	0.89203 0.50627 0.17567 0.10100
C 	C 	0.90296 0.52350 0.08967 0.14000
C 	C 	0.90073 0.55168 0.04737 -0.17000
H 	H 	0.90943 0.55137 0.00707 0.08900
C 	C 	0.88573 0.58050 0.06397 0.09500
H 	H 	0.88503 0.60007 0.03507 0.01400
C 	C 	0.92192 0.49557 0.06997 -0.09500
C 	C 	0.95941 0.51336 0.03557 -0.02500
H 	H 	0.97163 0.54287 0.02207 0.03900
H 	H 	0.82283 0.38857 0.05947 -0.13400
H 	H 	0.78823 0.41697 0.14857 0.30800
Cu	Cu	0.49196 0.50804 0.55347 0.90800
Cu	Cu	0.15863 0.84137 0.88680 0.90800
Cu	Cu	0.82529 0.17471 0.22014 0.90800
Cu	Cu	0.49196 0.98392 0.55347 0.90800
Cu	Cu	0.15863 0.31725 0.88680 0.90800
Cu	Cu	0.82529 0.65059 0.22014 0.90800
Cu	Cu	0.01608 0.50804 0.55347 0.90800
Cu	Cu	0.68275 0.84137 0.88680 0.90800
Cu	Cu	0.34941 0.17471 0.22014 0.90800
Cu	Cu	0.50804 0.49196 0.44653 0.90800
Cu	Cu	0.17471 0.82529 0.77986 0.90800
Cu	Cu	0.84137 0.15863 0.11320 0.90800
Cu	Cu	0.98392 0.49196 0.44653 0.90800
Cu	Cu	0.65059 0.82529 0.77986 0.90800
Cu	Cu	0.31725 0.15863 0.11320 0.90800
Cu	Cu	0.50804 0.01608 0.44653 0.90800
Cu	Cu	0.17471 0.34941 0.77986 0.90800
Cu	Cu	0.84137 0.68275 0.11320 0.90800
O 	O 	0.53167 0.76584 0.45520 -0.32300
C 	C 	0.64665 0.82333 0.35320 -0.00300
C 	C 	0.56922 0.78461 0.42140 0.17800
C 	C 	0.49030 0.74515 0.41880 0.56700
C 	C 	0.45420 0.72710 0.45650 -0.97900
H 	H 	0.42720 0.71360 0.43240 0.29800
O 	O 	0.19834 0.09917 0.78853 -0.32300
C 	C 	0.31332 0.15666 0.68653 -0.00300
C 	C 	0.23589 0.11794 0.75473 0.17800
C 	C 	0.15697 0.07848 0.75213 0.56700
C 	C 	0.12087 0.06043 0.78983 -0.97900
H 	H 	0.09387 0.04693 0.76573 0.29800
O 	O 	0.86500 0.43250 0.12187 -0.32300
C 	C 	0.97998 0.48999 0.01987 -0.00300
C 	C 	0.90255 0.45128 0.08807 0.17800
C 	C 	0.82363 0.41182 0.08547 0.56700
C 	C 	0.78753 0.39377 0.12317 -0.97900
H 	H 	0.76053 0.38027 0.09907 0.29800
O 	O 	0.23416 0.76584 0.45520 -0.32200
C 	C 	0.17667 0.82333 0.35320 -0.00300
C 	C 	0.21539 0.78461 0.42140 0.17800
C 	C 	0.25485 0.74515 0.41880 0.56600
C 	C 	0.27290 0.72710 0.45650 -0.97900
H 	H 	0.28640 0.71360 0.43240 0.29800
O 	O 	0.90083 0.09917 0.78853 -0.32200
C 	C 	0.84334 0.15666 0.68653 -0.00300
C 	C 	0.88206 0.11794 0.75473 0.17800
C 	C 	0.92152 0.07848 0.75213 0.56700
C 	C 	0.93957 0.06043 0.78983 -0.97900
H 	H 	0.95307 0.04693 0.76573 0.29800
O 	O 	0.56750 0.43250 0.12187 -0.32300
C 	C 	0.51001 0.48999 0.01987 -0.00300
C 	C 	0.54872 0.45128 0.08807 0.17800
C 	C 	0.58818 0.41182 0.08547 0.56700
C 	C 	0.60623 0.39377 0.12317 -0.97900
H 	H 	0.61973 0.38027 0.09907 0.29800
O 	O 	0.23416 0.46833 0.45520 -0.32300
C 	C 	0.17667 0.35335 0.35320 -0.00300
C 	C 	0.21539 0.43078 0.42140 0.17800
C 	C 	0.25485 0.50970 0.41880 0.56700
C 	C 	0.27290 0.54580 0.45650 -0.97900
H 	H 	0.28640 0.57280 0.43240 0.29800
O 	O 	0.90083 0.80166 0.78853 -0.32300
C 	C 	0.84334 0.68668 0.68653 -0.00300
C 	C 	0.88206 0.76411 0.75473 0.17800
C 	C 	0.92152 0.84303 0.75213 0.56700
C 	C 	0.93957 0.87913 0.78983 -0.97900
H 	H 	0.95307 0.90613 0.76573 0.29800
O 	O 	0.56750 0.13500 0.12187 -0.32300
C 	C 	0.51001 0.02002 0.01987 -0.00300
C 	C 	0.54872 0.09745 0.08807 0.17800
C 	C 	0.58818 0.17637 0.08547 0.56700
C 	C 	0.60623 0.21247 0.12317 -0.97900
H 	H 	0.61973 0.23947 0.09907 0.29800
O 	O 	0.76584 0.53167 0.54480 -0.32300
C 	C 	0.82333 0.64665 0.64680 -0.00300
C 	C 	0.78461 0.56922 0.57860 0.17800
C 	C 	0.74515 0.49030 0.58120 0.56700
C 	C 	0.72710 0.45420 0.54350 -0.97900
H 	H 	0.71360 0.42720 0.56760 0.29800
O 	O 	0.43250 0.86500 0.87813 -0.32300
C 	C 	0.48999 0.97998 0.98013 -0.00300
C 	C 	0.45128 0.90255 0.91193 0.17800
C 	C 	0.41182 0.82363 0.91453 0.56700
C 	C 	0.39377 0.78753 0.87683 -0.97900
H 	H 	0.38027 0.76053 0.90093 0.29800
O 	O 	0.09917 0.19834 0.21147 -0.32300
C 	C 	0.15666 0.31332 0.31347 -0.00300
C 	C 	0.11794 0.23589 0.24527 0.17800
C 	C 	0.07848 0.15697 0.24787 0.56700
C 	C 	0.06043 0.12087 0.21017 -0.97900
H 	H 	0.04693 0.09387 0.23427 0.29800
O 	O 	0.76584 0.23416 0.54480 -0.32200
C 	C 	0.82333 0.17667 0.64680 -0.00300
C 	C 	0.78461 0.21539 0.57860 0.17800
C 	C 	0.74515 0.25485 0.58120 0.56600
C 	C 	0.72710 0.27290 0.54350 -0.97900
H 	H 	0.71360 0.28640 0.56760 0.29800
O 	O 	0.43250 0.56750 0.87813 -0.32300
C 	C 	0.48999 0.51001 0.98013 -0.00300
C 	C 	0.45128 0.54872 0.91193 0.17800
C 	C 	0.41182 0.58818 0.91453 0.56700
C 	C 	0.39377 0.60623 0.87683 -0.97900
H 	H 	0.38027 0.61973 0.90093 0.29800
O 	O 	0.09917 0.90083 0.21147 -0.32200
C 	C 	0.15666 0.84334 0.31347 -0.00300
C 	C 	0.11794 0.88206 0.24527 0.17800
C 	C 	0.07848 0.92152 0.24787 0.56700
C 	C 	0.06043 0.93957 0.21017 -0.97900
H 	H 	0.04693 0.95307 0.23427 0.29800
O 	O 	0.46833 0.23416 0.54480 -0.32300
C 	C 	0.35335 0.17667 0.64680 -0.00300
C 	C 	0.43078 0.21539 0.57860 0.17800
C 	C 	0.50970 0.25485 0.58120 0.56700
C 	C 	0.54580 0.27290 0.54350 -0.97900
H 	H 	0.57280 0.28640 0.56760 0.29800
O 	O 	0.13500 0.56750 0.87813 -0.32300
C 	C 	0.02002 0.51001 0.98013 -0.00300
C 	C 	0.09745 0.54872 0.91193 0.17800
C 	C 	0.17637 0.58818 0.91453 0.56700
C 	C 	0.21247 0.60623 0.87683 -0.97900
H 	H 	0.23947 0.61973 0.90093 0.29800
O 	O 	0.80166 0.90083 0.21147 -0.32300
C 	C 	0.68668 0.84334 0.31347 -0.00300
C 	C 	0.76411 0.88206 0.24527 0.17800
C 	C 	0.84303 0.92152 0.24787 0.56700
C 	C 	0.87913 0.93957 0.21017 -0.97900
H 	H 	0.90613 0.95307 0.23427 0.29800
