data_crystal

_cell_length_a 35.29380
_cell_length_b 35.29380
_cell_length_c 20.34100
_cell_angle_alpha 90.00000
_cell_angle_beta  90.00000
_cell_angle_gamma 120.00000

_symmetry_space_group_name_	'P 1'
_symmetry_space_group_name_H-M	'P 1'

loop_
_symmetry_equiv_pos_as_xyz
  x,y,z

loop_
_atom_site_label
_atom_site_type_symbol
_atom_site_fract_x
_atom_site_fract_y
_atom_site_fract_z
_atom_site_charge
O 	O 	0.22023 0.36256 0.40940 -0.40400
O 	O 	0.23324 0.38841 0.30530 -0.40400
C 	C 	0.24437 0.38780 0.36436 0.35600
C 	C 	0.29086 0.42014 0.38272 -0.11400
C 	C 	0.31954 0.44845 0.33483 0.05200
H 	H 	0.30960 0.44770 0.29120 0.03100
C 	C 	0.36264 0.47769 0.35169 -0.12700
H 	H 	0.38200 0.49730 0.31950 0.08800
C 	C 	0.37785 0.47869 0.41478 0.09300
C 	C 	0.34839 0.45066 0.46260 -0.13000
H 	H 	0.35800 0.45180 0.50660 0.07600
C 	C 	0.30533 0.42129 0.44586 0.05400
H 	H 	0.28580 0.40190 0.47810 0.02900
C 	C 	0.42497 0.50605 0.43153 -0.05300
C 	C 	0.44510 0.48740 0.46572 -0.04800
H 	H 	0.42820 0.45750 0.47790 0.04800
H 	H 	0.43400 0.61130 0.45160 0.08700
O 	O 	0.88690 0.69589 0.74273 -0.40500
O 	O 	0.89991 0.72174 0.63863 -0.40500
C 	C 	0.91104 0.72113 0.69769 0.35500
C 	C 	0.95753 0.75347 0.71605 -0.11500
C 	C 	0.98621 0.78178 0.66816 0.05100
H 	H 	0.97627 0.78103 0.62453 0.03000
C 	C 	0.02931 0.81102 0.68502 -0.12800
H 	H 	0.04867 0.83063 0.65283 0.08600
C 	C 	0.04452 0.81202 0.74811 0.09200
C 	C 	0.01506 0.78399 0.79593 -0.13100
H 	H 	0.02467 0.78513 0.83993 0.07500
C 	C 	0.97200 0.75462 0.77919 0.05200
H 	H 	0.95247 0.73523 0.81143 0.02900
C 	C 	0.09164 0.83938 0.76486 -0.05400
C 	C 	0.11177 0.82073 0.79905 -0.04900
H 	H 	0.09487 0.79083 0.81123 0.04700
H 	H 	0.10067 0.94463 0.78493 0.08700
O 	O 	0.55356 0.02923 0.07607 -0.40500
O 	O 	0.56657 0.05508 0.97197 -0.40500
C 	C 	0.57770 0.05447 0.03103 0.35600
C 	C 	0.62419 0.08681 0.04939 -0.11500
C 	C 	0.65287 0.11512 0.00150 0.05100
H 	H 	0.64293 0.11437 0.95787 0.03000
C 	C 	0.69597 0.14436 0.01836 -0.12800
H 	H 	0.71533 0.16397 0.98617 0.08600
C 	C 	0.71118 0.14536 0.08145 0.09200
C 	C 	0.68172 0.11733 0.12927 -0.13100
H 	H 	0.69133 0.11847 0.17327 0.07500
C 	C 	0.63866 0.08796 0.11253 0.05300
H 	H 	0.61913 0.06857 0.14477 0.02800
C 	C 	0.75830 0.17272 0.09820 -0.05400
C 	C 	0.77843 0.15407 0.13239 -0.04900
H 	H 	0.76153 0.12417 0.14457 0.04700
H 	H 	0.76733 0.27797 0.11827 0.08700
O 	O 	0.63744 0.85767 0.40940 -0.40500
O 	O 	0.61159 0.84483 0.30530 -0.40500
C 	C 	0.61220 0.85657 0.36436 0.35500
C 	C 	0.57986 0.87072 0.38272 -0.11500
C 	C 	0.55155 0.87109 0.33483 0.05100
H 	H 	0.55230 0.86190 0.29120 0.03000
C 	C 	0.52231 0.88495 0.35169 -0.12800
H 	H 	0.50270 0.88470 0.31950 0.08700
C 	C 	0.52131 0.89916 0.41478 0.09200
C 	C 	0.54934 0.89773 0.46260 -0.13100
H 	H 	0.54820 0.90620 0.50660 0.07500
C 	C 	0.57871 0.88404 0.44586 0.05300
H 	H 	0.59810 0.88390 0.47810 0.02800
C 	C 	0.49395 0.91892 0.43153 -0.05400
C 	C 	0.51260 0.95770 0.46572 -0.04900
H 	H 	0.54250 0.97070 0.47790 0.04700
H 	H 	0.38870 0.82270 0.45160 0.08700
O 	O 	0.30411 0.19100 0.74273 -0.40500
O 	O 	0.27826 0.17816 0.63863 -0.40500
C 	C 	0.27887 0.18990 0.69769 0.35500
C 	C 	0.24653 0.20405 0.71605 -0.11500
C 	C 	0.21822 0.20442 0.66816 0.05100
H 	H 	0.21897 0.19523 0.62453 0.03000
C 	C 	0.18898 0.21828 0.68502 -0.12800
H 	H 	0.16937 0.21803 0.65283 0.08700
C 	C 	0.18798 0.23249 0.74811 0.09200
C 	C 	0.21601 0.23106 0.79593 -0.13100
H 	H 	0.21487 0.23953 0.83993 0.07500
C 	C 	0.24538 0.21737 0.77919 0.05300
H 	H 	0.26477 0.21723 0.81143 0.02800
C 	C 	0.16062 0.25225 0.76486 -0.05400
C 	C 	0.17927 0.29103 0.79905 -0.04900
H 	H 	0.20917 0.30403 0.81123 0.04700
H 	H 	0.05537 0.15603 0.78493 0.08700
O 	O 	0.97077 0.52434 0.07607 -0.40500
O 	O 	0.94492 0.51150 0.97197 -0.40500
C 	C 	0.94553 0.52324 0.03103 0.35600
C 	C 	0.91319 0.53739 0.04939 -0.11500
C 	C 	0.88488 0.53776 0.00150 0.05100
H 	H 	0.88563 0.52857 0.95787 0.03000
C 	C 	0.85564 0.55162 0.01836 -0.12800
H 	H 	0.83603 0.55137 0.98617 0.08600
C 	C 	0.85464 0.56583 0.08145 0.09200
C 	C 	0.88267 0.56440 0.12927 -0.13100
H 	H 	0.88153 0.57287 0.17327 0.07500
C 	C 	0.91204 0.55071 0.11253 0.05300
H 	H 	0.93143 0.55057 0.14477 0.02800
C 	C 	0.82728 0.58559 0.09820 -0.05400
C 	C 	0.84593 0.62437 0.13239 -0.04900
H 	H 	0.87583 0.63737 0.14457 0.04700
H 	H 	0.72203 0.48937 0.11827 0.08700
O 	O 	0.14233 0.77977 0.40940 -0.40500
O 	O 	0.15517 0.76676 0.30530 -0.40500
C 	C 	0.14343 0.75563 0.36436 0.35500
C 	C 	0.12928 0.70914 0.38272 -0.11500
C 	C 	0.12891 0.68046 0.33483 0.05100
H 	H 	0.13810 0.69040 0.29120 0.03000
C 	C 	0.11505 0.63736 0.35169 -0.12800
H 	H 	0.11530 0.61800 0.31950 0.08700
C 	C 	0.10084 0.62215 0.41478 0.09200
C 	C 	0.10227 0.65161 0.46260 -0.13100
H 	H 	0.09380 0.64200 0.50660 0.07500
C 	C 	0.11596 0.69467 0.44586 0.05300
H 	H 	0.11610 0.71420 0.47810 0.02800
C 	C 	0.08108 0.57503 0.43153 -0.05400
C 	C 	0.04230 0.55490 0.46572 -0.04900
H 	H 	0.02930 0.57180 0.47790 0.04700
H 	H 	0.17730 0.56600 0.45160 0.08700
O 	O 	0.80900 0.11310 0.74273 -0.40500
O 	O 	0.82184 0.10009 0.63863 -0.40500
C 	C 	0.81010 0.08896 0.69769 0.35500
C 	C 	0.79595 0.04247 0.71605 -0.11500
C 	C 	0.79558 0.01379 0.66816 0.05100
H 	H 	0.80477 0.02373 0.62453 0.03000
C 	C 	0.78172 0.97069 0.68502 -0.12800
H 	H 	0.78197 0.95133 0.65283 0.08600
C 	C 	0.76751 0.95548 0.74811 0.09200
C 	C 	0.76894 0.98494 0.79593 -0.13100
H 	H 	0.76047 0.97533 0.83993 0.07500
C 	C 	0.78263 0.02800 0.77919 0.05200
H 	H 	0.78277 0.04753 0.81143 0.02800
C 	C 	0.74775 0.90836 0.76486 -0.05400
C 	C 	0.70897 0.88823 0.79905 -0.04900
H 	H 	0.69597 0.90513 0.81123 0.04700
H 	H 	0.84397 0.89933 0.78493 0.08700
O 	O 	0.47566 0.44644 0.07607 -0.40500
O 	O 	0.48850 0.43343 0.97197 -0.40500
C 	C 	0.47676 0.42230 0.03103 0.35500
C 	C 	0.46261 0.37581 0.04939 -0.11500
C 	C 	0.46224 0.34713 0.00150 0.05100
H 	H 	0.47143 0.35707 0.95787 0.03000
C 	C 	0.44838 0.30403 0.01836 -0.12800
H 	H 	0.44863 0.28467 0.98617 0.08600
C 	C 	0.43417 0.28882 0.08145 0.09200
C 	C 	0.43560 0.31828 0.12927 -0.13100
H 	H 	0.42713 0.30867 0.17327 0.07500
C 	C 	0.44929 0.36134 0.11253 0.05300
H 	H 	0.44943 0.38087 0.14477 0.02800
C 	C 	0.41441 0.24170 0.09820 -0.05400
C 	C 	0.37563 0.22157 0.13239 -0.04900
H 	H 	0.36263 0.23847 0.14457 0.04700
H 	H 	0.51063 0.23267 0.11827 0.08700
O 	O 	0.36256 0.22023 0.59060 -0.40500
O 	O 	0.38841 0.23324 0.69470 -0.40500
C 	C 	0.38780 0.24437 0.63564 0.35500
C 	C 	0.42014 0.29086 0.61728 -0.11500
C 	C 	0.44845 0.31954 0.66517 0.05100
H 	H 	0.44770 0.30960 0.70880 0.03000
C 	C 	0.47769 0.36264 0.64831 -0.12800
H 	H 	0.49730 0.38200 0.68050 0.08700
C 	C 	0.47869 0.37785 0.58522 0.09200
C 	C 	0.45066 0.34839 0.53740 -0.13100
H 	H 	0.45180 0.35800 0.49340 0.07500
C 	C 	0.42129 0.30533 0.55414 0.05300
H 	H 	0.40190 0.28580 0.52190 0.02800
C 	C 	0.50605 0.42497 0.56847 -0.05400
C 	C 	0.48740 0.44510 0.53428 -0.04900
H 	H 	0.45750 0.42820 0.52210 0.04700
H 	H 	0.61130 0.43400 0.54840 0.08700
O 	O 	0.02923 0.55356 0.92393 -0.40500
O 	O 	0.05508 0.56657 0.02803 -0.40500
C 	C 	0.05447 0.57770 0.96897 0.35600
C 	C 	0.08681 0.62419 0.95061 -0.11500
C 	C 	0.11512 0.65287 0.99850 0.05100
H 	H 	0.11437 0.64293 0.04213 0.03000
C 	C 	0.14436 0.69597 0.98164 -0.12800
H 	H 	0.16397 0.71533 0.01383 0.08600
C 	C 	0.14536 0.71118 0.91855 0.09200
C 	C 	0.11733 0.68172 0.87073 -0.13100
H 	H 	0.11847 0.69133 0.82673 0.07500
C 	C 	0.08796 0.63866 0.88747 0.05300
H 	H 	0.06857 0.61913 0.85523 0.02800
C 	C 	0.17272 0.75830 0.90180 -0.05400
C 	C 	0.15407 0.77843 0.86761 -0.04900
H 	H 	0.12417 0.76153 0.85543 0.04700
H 	H 	0.27797 0.76733 0.88173 0.08700
O 	O 	0.69589 0.88690 0.25727 -0.40500
O 	O 	0.72174 0.89991 0.36137 -0.40500
C 	C 	0.72113 0.91104 0.30231 0.35500
C 	C 	0.75347 0.95753 0.28395 -0.11500
C 	C 	0.78178 0.98621 0.33184 0.05100
H 	H 	0.78103 0.97627 0.37547 0.03000
C 	C 	0.81102 0.02931 0.31498 -0.12800
H 	H 	0.83063 0.04867 0.34717 0.08600
C 	C 	0.81202 0.04452 0.25189 0.09200
C 	C 	0.78399 0.01506 0.20407 -0.13100
H 	H 	0.78513 0.02467 0.16007 0.07500
C 	C 	0.75462 0.97200 0.22081 0.05200
H 	H 	0.73523 0.95247 0.18857 0.02900
C 	C 	0.83938 0.09164 0.23514 -0.05400
C 	C 	0.82073 0.11177 0.20095 -0.04900
H 	H 	0.79083 0.09487 0.18877 0.04700
H 	H 	0.94463 0.10067 0.21507 0.08700
O 	O 	0.85767 0.63744 0.59060 -0.40500
O 	O 	0.84483 0.61159 0.69470 -0.40500
C 	C 	0.85657 0.61220 0.63564 0.35500
C 	C 	0.87072 0.57986 0.61728 -0.11500
C 	C 	0.87109 0.55155 0.66517 0.05100
H 	H 	0.86190 0.55230 0.70880 0.03000
C 	C 	0.88495 0.52231 0.64831 -0.12800
H 	H 	0.88470 0.50270 0.68050 0.08700
C 	C 	0.89916 0.52131 0.58522 0.09200
C 	C 	0.89773 0.54934 0.53740 -0.13100
H 	H 	0.90620 0.54820 0.49340 0.07500
C 	C 	0.88404 0.57871 0.55414 0.05300
H 	H 	0.88390 0.59810 0.52190 0.02800
C 	C 	0.91892 0.49395 0.56847 -0.05400
C 	C 	0.95770 0.51260 0.53428 -0.04900
H 	H 	0.97070 0.54250 0.52210 0.04700
H 	H 	0.82270 0.38870 0.54840 0.08700
O 	O 	0.52434 0.97077 0.92393 -0.40500
O 	O 	0.51150 0.94492 0.02803 -0.40500
C 	C 	0.52324 0.94553 0.96897 0.35600
C 	C 	0.53739 0.91319 0.95061 -0.11500
C 	C 	0.53776 0.88488 0.99850 0.05100
H 	H 	0.52857 0.88563 0.04213 0.03000
C 	C 	0.55162 0.85564 0.98164 -0.12800
H 	H 	0.55137 0.83603 0.01383 0.08600
C 	C 	0.56583 0.85464 0.91855 0.09200
C 	C 	0.56440 0.88267 0.87073 -0.13100
H 	H 	0.57287 0.88153 0.82673 0.07500
C 	C 	0.55071 0.91204 0.88747 0.05300
H 	H 	0.55057 0.93143 0.85523 0.02800
C 	C 	0.58559 0.82728 0.90180 -0.05400
C 	C 	0.62437 0.84593 0.86761 -0.04900
H 	H 	0.63737 0.87583 0.85543 0.04700
H 	H 	0.48937 0.72203 0.88173 0.08700
O 	O 	0.19100 0.30411 0.25727 -0.40500
O 	O 	0.17816 0.27826 0.36137 -0.40500
C 	C 	0.18990 0.27887 0.30231 0.35500
C 	C 	0.20405 0.24653 0.28395 -0.11500
C 	C 	0.20442 0.21822 0.33184 0.05100
H 	H 	0.19523 0.21897 0.37547 0.03000
C 	C 	0.21828 0.18898 0.31498 -0.12800
H 	H 	0.21803 0.16937 0.34717 0.08700
C 	C 	0.23249 0.18798 0.25189 0.09200
C 	C 	0.23106 0.21601 0.20407 -0.13100
H 	H 	0.23953 0.21487 0.16007 0.07500
C 	C 	0.21737 0.24538 0.22081 0.05300
H 	H 	0.21723 0.26477 0.18857 0.02800
C 	C 	0.25225 0.16062 0.23514 -0.05400
C 	C 	0.29103 0.17927 0.20095 -0.04900
H 	H 	0.30403 0.20917 0.18877 0.04700
H 	H 	0.15603 0.05537 0.21507 0.08700
O 	O 	0.77977 0.14233 0.59060 -0.40500
O 	O 	0.76676 0.15517 0.69470 -0.40500
C 	C 	0.75563 0.14343 0.63564 0.35500
C 	C 	0.70914 0.12928 0.61728 -0.11500
C 	C 	0.68046 0.12891 0.66517 0.05100
H 	H 	0.69040 0.13810 0.70880 0.03000
C 	C 	0.63736 0.11505 0.64831 -0.12800
H 	H 	0.61800 0.11530 0.68050 0.08700
C 	C 	0.62215 0.10084 0.58522 0.09200
C 	C 	0.65161 0.10227 0.53740 -0.13100
H 	H 	0.64200 0.09380 0.49340 0.07500
C 	C 	0.69467 0.11596 0.55414 0.05300
H 	H 	0.71420 0.11610 0.52190 0.02800
C 	C 	0.57503 0.08108 0.56847 -0.05400
C 	C 	0.55490 0.04230 0.53428 -0.04900
H 	H 	0.57180 0.02930 0.52210 0.04700
H 	H 	0.56600 0.17730 0.54840 0.08700
O 	O 	0.44644 0.47566 0.92393 -0.40500
O 	O 	0.43343 0.48850 0.02803 -0.40500
C 	C 	0.42230 0.47676 0.96897 0.35500
C 	C 	0.37581 0.46261 0.95061 -0.11500
C 	C 	0.34713 0.46224 0.99850 0.05100
H 	H 	0.35707 0.47143 0.04213 0.03000
C 	C 	0.30403 0.44838 0.98164 -0.12800
H 	H 	0.28467 0.44863 0.01383 0.08600
C 	C 	0.28882 0.43417 0.91855 0.09200
C 	C 	0.31828 0.43560 0.87073 -0.13100
H 	H 	0.30867 0.42713 0.82673 0.07500
C 	C 	0.36134 0.44929 0.88747 0.05300
H 	H 	0.38087 0.44943 0.85523 0.02800
C 	C 	0.24170 0.41441 0.90180 -0.05400
C 	C 	0.22157 0.37563 0.86761 -0.04900
H 	H 	0.23847 0.36263 0.85543 0.04700
H 	H 	0.23267 0.51063 0.88173 0.08700
O 	O 	0.11310 0.80900 0.25727 -0.40500
O 	O 	0.10009 0.82184 0.36137 -0.40500
C 	C 	0.08896 0.81010 0.30231 0.35500
C 	C 	0.04247 0.79595 0.28395 -0.11500
C 	C 	0.01379 0.79558 0.33184 0.05100
H 	H 	0.02373 0.80477 0.37547 0.03000
C 	C 	0.97069 0.78172 0.31498 -0.12800
H 	H 	0.95133 0.78197 0.34717 0.08600
C 	C 	0.95548 0.76751 0.25189 0.09200
C 	C 	0.98494 0.76894 0.20407 -0.13100
H 	H 	0.97533 0.76047 0.16007 0.07500
C 	C 	0.02800 0.78263 0.22081 0.05200
H 	H 	0.04753 0.78277 0.18857 0.02800
C 	C 	0.90836 0.74775 0.23514 -0.05400
C 	C 	0.88823 0.70897 0.20095 -0.04900
H 	H 	0.90513 0.69597 0.18877 0.04700
H 	H 	0.89933 0.84397 0.21507 0.08700
O 	O 	0.77977 0.63744 0.59060 -0.40500
O 	O 	0.76676 0.61159 0.69470 -0.40500
C 	C 	0.75563 0.61220 0.63564 0.35500
C 	C 	0.70914 0.57986 0.61728 -0.11500
C 	C 	0.68046 0.55155 0.66517 0.05100
H 	H 	0.69040 0.55230 0.70880 0.03000
C 	C 	0.63736 0.52231 0.64831 -0.12800
H 	H 	0.61800 0.50270 0.68050 0.08700
C 	C 	0.62215 0.52131 0.58522 0.09200
C 	C 	0.65161 0.54934 0.53740 -0.13100
H 	H 	0.64200 0.54820 0.49340 0.07500
C 	C 	0.69467 0.57871 0.55414 0.05300
H 	H 	0.71420 0.59810 0.52190 0.02800
C 	C 	0.57503 0.49395 0.56847 -0.05400
C 	C 	0.55490 0.51260 0.53428 -0.04900
H 	H 	0.57180 0.54250 0.52210 0.04700
H 	H 	0.56600 0.38870 0.54840 0.08700
O 	O 	0.44644 0.97077 0.92393 -0.40500
O 	O 	0.43343 0.94492 0.02803 -0.40500
C 	C 	0.42230 0.94553 0.96897 0.35600
C 	C 	0.37581 0.91319 0.95061 -0.11500
C 	C 	0.34713 0.88488 0.99850 0.05100
H 	H 	0.35707 0.88563 0.04213 0.03000
C 	C 	0.30403 0.85564 0.98164 -0.12800
H 	H 	0.28467 0.83603 0.01383 0.08600
C 	C 	0.28882 0.85464 0.91855 0.09200
C 	C 	0.31828 0.88267 0.87073 -0.13100
H 	H 	0.30867 0.88153 0.82673 0.07500
C 	C 	0.36134 0.91204 0.88747 0.05300
H 	H 	0.38087 0.93143 0.85523 0.02800
C 	C 	0.24170 0.82728 0.90180 -0.05400
C 	C 	0.22157 0.84593 0.86761 -0.04900
H 	H 	0.23847 0.87583 0.85543 0.04700
H 	H 	0.23267 0.72203 0.88173 0.08700
O 	O 	0.11310 0.30411 0.25727 -0.40500
O 	O 	0.10009 0.27826 0.36137 -0.40500
C 	C 	0.08896 0.27887 0.30231 0.35500
C 	C 	0.04247 0.24653 0.28395 -0.11500
C 	C 	0.01379 0.21822 0.33184 0.05100
H 	H 	0.02373 0.21897 0.37547 0.03000
C 	C 	0.97069 0.18898 0.31498 -0.12800
H 	H 	0.95133 0.16937 0.34717 0.08600
C 	C 	0.95548 0.18798 0.25189 0.09200
C 	C 	0.98494 0.21601 0.20407 -0.13100
H 	H 	0.97533 0.21487 0.16007 0.07500
C 	C 	0.02800 0.24538 0.22081 0.05200
H 	H 	0.04753 0.26477 0.18857 0.02900
C 	C 	0.90836 0.16062 0.23514 -0.05400
C 	C 	0.88823 0.17927 0.20095 -0.04900
H 	H 	0.90513 0.20917 0.18877 0.04700
H 	H 	0.89933 0.05537 0.21507 0.08700
O 	O 	0.36256 0.14233 0.59060 -0.40500
O 	O 	0.38841 0.15517 0.69470 -0.40500
C 	C 	0.38780 0.14343 0.63564 0.35500
C 	C 	0.42014 0.12928 0.61728 -0.11500
C 	C 	0.44845 0.12891 0.66517 0.05100
H 	H 	0.44770 0.13810 0.70880 0.03000
C 	C 	0.47769 0.11505 0.64831 -0.12800
H 	H 	0.49730 0.11530 0.68050 0.08700
C 	C 	0.47869 0.10084 0.58522 0.09200
C 	C 	0.45066 0.10227 0.53740 -0.13100
H 	H 	0.45180 0.09380 0.49340 0.07500
C 	C 	0.42129 0.11596 0.55414 0.05300
H 	H 	0.40190 0.11610 0.52190 0.02800
C 	C 	0.50605 0.08108 0.56847 -0.05400
C 	C 	0.48740 0.04230 0.53428 -0.04900
H 	H 	0.45750 0.02930 0.52210 0.04700
H 	H 	0.61130 0.17730 0.54840 0.08700
O 	O 	0.02923 0.47566 0.92393 -0.40500
O 	O 	0.05508 0.48850 0.02803 -0.40500
C 	C 	0.05447 0.47676 0.96897 0.35600
C 	C 	0.08681 0.46261 0.95061 -0.11500
C 	C 	0.11512 0.46224 0.99850 0.05100
H 	H 	0.11437 0.47143 0.04213 0.03000
C 	C 	0.14436 0.44838 0.98164 -0.12800
H 	H 	0.16397 0.44863 0.01383 0.08600
C 	C 	0.14536 0.43417 0.91855 0.09200
C 	C 	0.11733 0.43560 0.87073 -0.13100
H 	H 	0.11847 0.42713 0.82673 0.07500
C 	C 	0.08796 0.44929 0.88747 0.05300
H 	H 	0.06857 0.44943 0.85523 0.02800
C 	C 	0.17272 0.41441 0.90180 -0.05400
C 	C 	0.15407 0.37563 0.86761 -0.04900
H 	H 	0.12417 0.36263 0.85543 0.04700
H 	H 	0.27797 0.51063 0.88173 0.08700
O 	O 	0.69589 0.80900 0.25727 -0.40500
O 	O 	0.72174 0.82184 0.36137 -0.40500
C 	C 	0.72113 0.81010 0.30231 0.35500
C 	C 	0.75347 0.79595 0.28395 -0.11500
C 	C 	0.78178 0.79558 0.33184 0.05100
H 	H 	0.78103 0.80477 0.37547 0.03000
C 	C 	0.81102 0.78172 0.31498 -0.12800
H 	H 	0.83063 0.78197 0.34717 0.08700
C 	C 	0.81202 0.76751 0.25189 0.09200
C 	C 	0.78399 0.76894 0.20407 -0.13100
H 	H 	0.78513 0.76047 0.16007 0.07500
C 	C 	0.75462 0.78263 0.22081 0.05300
H 	H 	0.73523 0.78277 0.18857 0.02800
C 	C 	0.83938 0.74775 0.23514 -0.05400
C 	C 	0.82073 0.70897 0.20095 -0.04900
H 	H 	0.79083 0.69597 0.18877 0.04700
H 	H 	0.94463 0.84397 0.21507 0.08700
O 	O 	0.85767 0.22023 0.59060 -0.40500
O 	O 	0.84483 0.23324 0.69470 -0.40500
C 	C 	0.85657 0.24437 0.63564 0.35500
C 	C 	0.87072 0.29086 0.61728 -0.11500
C 	C 	0.87109 0.31954 0.66517 0.05100
H 	H 	0.86190 0.30960 0.70880 0.03000
C 	C 	0.88495 0.36264 0.64831 -0.12800
H 	H 	0.88470 0.38200 0.68050 0.08700
C 	C 	0.89916 0.37785 0.58522 0.09200
C 	C 	0.89773 0.34839 0.53740 -0.13100
H 	H 	0.90620 0.35800 0.49340 0.07500
C 	C 	0.88404 0.30533 0.55414 0.05300
H 	H 	0.88390 0.28580 0.52190 0.02800
C 	C 	0.91892 0.42497 0.56847 -0.05400
C 	C 	0.95770 0.44510 0.53428 -0.04900
H 	H 	0.97070 0.42820 0.52210 0.04700
H 	H 	0.82270 0.43400 0.54840 0.08700
O 	O 	0.52434 0.55356 0.92393 -0.40500
O 	O 	0.51150 0.56657 0.02803 -0.40500
C 	C 	0.52324 0.57770 0.96897 0.35500
C 	C 	0.53739 0.62419 0.95061 -0.11500
C 	C 	0.53776 0.65287 0.99850 0.05100
H 	H 	0.52857 0.64293 0.04213 0.03000
C 	C 	0.55162 0.69597 0.98164 -0.12800
H 	H 	0.55137 0.71533 0.01383 0.08600
C 	C 	0.56583 0.71118 0.91855 0.09200
C 	C 	0.56440 0.68172 0.87073 -0.13100
H 	H 	0.57287 0.69133 0.82673 0.07500
C 	C 	0.55071 0.63866 0.88747 0.05300
H 	H 	0.55057 0.61913 0.85523 0.02800
C 	C 	0.58559 0.75830 0.90180 -0.05400
C 	C 	0.62437 0.77843 0.86761 -0.04900
H 	H 	0.63737 0.76153 0.85543 0.04700
H 	H 	0.48937 0.76733 0.88173 0.08700
O 	O 	0.19100 0.88690 0.25727 -0.40500
O 	O 	0.17816 0.89991 0.36137 -0.40500
C 	C 	0.18990 0.91104 0.30231 0.35500
C 	C 	0.20405 0.95753 0.28395 -0.11500
C 	C 	0.20442 0.98621 0.33184 0.05100
H 	H 	0.19523 0.97627 0.37547 0.03000
C 	C 	0.21828 0.02931 0.31498 -0.12800
H 	H 	0.21803 0.04867 0.34717 0.08600
C 	C 	0.23249 0.04452 0.25189 0.09200
C 	C 	0.23106 0.01506 0.20407 -0.13100
H 	H 	0.23953 0.02467 0.16007 0.07500
C 	C 	0.21737 0.97200 0.22081 0.05200
H 	H 	0.21723 0.95247 0.18857 0.02800
C 	C 	0.25225 0.09164 0.23514 -0.05400
C 	C 	0.29103 0.11177 0.20095 -0.04900
H 	H 	0.30403 0.09487 0.18877 0.04700
H 	H 	0.15603 0.10067 0.21507 0.08700
O 	O 	0.63744 0.77977 0.40940 -0.40500
O 	O 	0.61159 0.76676 0.30530 -0.40500
C 	C 	0.61220 0.75563 0.36436 0.35500
C 	C 	0.57986 0.70914 0.38272 -0.11500
C 	C 	0.55155 0.68046 0.33483 0.05100
H 	H 	0.55230 0.69040 0.29120 0.03000
C 	C 	0.52231 0.63736 0.35169 -0.12800
H 	H 	0.50270 0.61800 0.31950 0.08700
C 	C 	0.52131 0.62215 0.41478 0.09200
C 	C 	0.54934 0.65161 0.46260 -0.13100
H 	H 	0.54820 0.64200 0.50660 0.07500
C 	C 	0.57871 0.69467 0.44586 0.05300
H 	H 	0.59810 0.71420 0.47810 0.02800
C 	C 	0.49395 0.57503 0.43153 -0.05400
C 	C 	0.51260 0.55490 0.46572 -0.04900
H 	H 	0.54250 0.57180 0.47790 0.04700
H 	H 	0.38870 0.56600 0.45160 0.08700
O 	O 	0.30411 0.11310 0.74273 -0.40500
O 	O 	0.27826 0.10009 0.63863 -0.40500
C 	C 	0.27887 0.08896 0.69769 0.35500
C 	C 	0.24653 0.04247 0.71605 -0.11500
C 	C 	0.21822 0.01379 0.66816 0.05100
H 	H 	0.21897 0.02373 0.62453 0.03000
C 	C 	0.18898 0.97069 0.68502 -0.12800
H 	H 	0.16937 0.95133 0.65283 0.08600
C 	C 	0.18798 0.95548 0.74811 0.09200
C 	C 	0.21601 0.98494 0.79593 -0.13100
H 	H 	0.21487 0.97533 0.83993 0.07500
C 	C 	0.24538 0.02800 0.77919 0.05200
H 	H 	0.26477 0.04753 0.81143 0.02900
C 	C 	0.16062 0.90836 0.76486 -0.05400
C 	C 	0.17927 0.88823 0.79905 -0.04900
H 	H 	0.20917 0.90513 0.81123 0.04700
H 	H 	0.05537 0.89933 0.78493 0.08700
O 	O 	0.97077 0.44644 0.07607 -0.40500
O 	O 	0.94492 0.43343 0.97197 -0.40500
C 	C 	0.94553 0.42230 0.03103 0.35600
C 	C 	0.91319 0.37581 0.04939 -0.11500
C 	C 	0.88488 0.34713 0.00150 0.05100
H 	H 	0.88563 0.35707 0.95787 0.03000
C 	C 	0.85564 0.30403 0.01836 -0.12800
H 	H 	0.83603 0.28467 0.98617 0.08600
C 	C 	0.85464 0.28882 0.08145 0.09200
C 	C 	0.88267 0.31828 0.12927 -0.13100
H 	H 	0.88153 0.30867 0.17327 0.07500
C 	C 	0.91204 0.36134 0.11253 0.05300
H 	H 	0.93143 0.38087 0.14477 0.02800
C 	C 	0.82728 0.24170 0.09820 -0.05400
C 	C 	0.84593 0.22157 0.13239 -0.04900
H 	H 	0.87583 0.23847 0.14457 0.04700
H 	H 	0.72203 0.23267 0.11827 0.08700
O 	O 	0.14233 0.36256 0.40940 -0.40500
O 	O 	0.15517 0.38841 0.30530 -0.40500
C 	C 	0.14343 0.38780 0.36436 0.35500
C 	C 	0.12928 0.42014 0.38272 -0.11500
C 	C 	0.12891 0.44845 0.33483 0.05100
H 	H 	0.13810 0.44770 0.29120 0.03000
C 	C 	0.11505 0.47769 0.35169 -0.12800
H 	H 	0.11530 0.49730 0.31950 0.08700
C 	C 	0.10084 0.47869 0.41478 0.09200
C 	C 	0.10227 0.45066 0.46260 -0.13100
H 	H 	0.09380 0.45180 0.50660 0.07500
C 	C 	0.11596 0.42129 0.44586 0.05300
H 	H 	0.11610 0.40190 0.47810 0.02800
C 	C 	0.08108 0.50605 0.43153 -0.05400
C 	C 	0.04230 0.48740 0.46572 -0.04900
H 	H 	0.02930 0.45750 0.47790 0.04700
H 	H 	0.17730 0.61130 0.45160 0.08700
O 	O 	0.80900 0.69589 0.74273 -0.40500
O 	O 	0.82184 0.72174 0.63863 -0.40500
C 	C 	0.81010 0.72113 0.69769 0.35500
C 	C 	0.79595 0.75347 0.71605 -0.11500
C 	C 	0.79558 0.78178 0.66816 0.05100
H 	H 	0.80477 0.78103 0.62453 0.03000
C 	C 	0.78172 0.81102 0.68502 -0.12800
H 	H 	0.78197 0.83063 0.65283 0.08700
C 	C 	0.76751 0.81202 0.74811 0.09200
C 	C 	0.76894 0.78399 0.79593 -0.13100
H 	H 	0.76047 0.78513 0.83993 0.07500
C 	C 	0.78263 0.75462 0.77919 0.05300
H 	H 	0.78277 0.73523 0.81143 0.02800
C 	C 	0.74775 0.83938 0.76486 -0.05400
C 	C 	0.70897 0.82073 0.79905 -0.04900
H 	H 	0.69597 0.79083 0.81123 0.04700
H 	H 	0.84397 0.94463 0.78493 0.08700
O 	O 	0.47566 0.02923 0.07607 -0.40500
O 	O 	0.48850 0.05508 0.97197 -0.40500
C 	C 	0.47676 0.05447 0.03103 0.35600
C 	C 	0.46261 0.08681 0.04939 -0.11500
C 	C 	0.46224 0.11512 0.00150 0.05100
H 	H 	0.47143 0.11437 0.95787 0.03000
C 	C 	0.44838 0.14436 0.01836 -0.12800
H 	H 	0.44863 0.16397 0.98617 0.08600
C 	C 	0.43417 0.14536 0.08145 0.09200
C 	C 	0.43560 0.11733 0.12927 -0.13100
H 	H 	0.42713 0.11847 0.17327 0.07500
C 	C 	0.44929 0.08796 0.11253 0.05300
H 	H 	0.44943 0.06857 0.14477 0.02800
C 	C 	0.41441 0.17272 0.09820 -0.05400
C 	C 	0.37563 0.15407 0.13239 -0.04900
H 	H 	0.36263 0.12417 0.14457 0.04700
H 	H 	0.51063 0.27797 0.11827 0.08700
O 	O 	0.22023 0.85767 0.40940 -0.40500
O 	O 	0.23324 0.84483 0.30530 -0.40500
C 	C 	0.24437 0.85657 0.36436 0.35500
C 	C 	0.29086 0.87072 0.38272 -0.11500
C 	C 	0.31954 0.87109 0.33483 0.05100
H 	H 	0.30960 0.86190 0.29120 0.03000
C 	C 	0.36264 0.88495 0.35169 -0.12800
H 	H 	0.38200 0.88470 0.31950 0.08700
C 	C 	0.37785 0.89916 0.41478 0.09200
C 	C 	0.34839 0.89773 0.46260 -0.13100
H 	H 	0.35800 0.90620 0.50660 0.07500
C 	C 	0.30533 0.88404 0.44586 0.05300
H 	H 	0.28580 0.88390 0.47810 0.02800
C 	C 	0.42497 0.91892 0.43153 -0.05400
C 	C 	0.44510 0.95770 0.46572 -0.04900
H 	H 	0.42820 0.97070 0.47790 0.04700
H 	H 	0.43400 0.82270 0.45160 0.08700
O 	O 	0.88690 0.19100 0.74273 -0.40500
O 	O 	0.89991 0.17816 0.63863 -0.40500
C 	C 	0.91104 0.18990 0.69769 0.35500
C 	C 	0.95753 0.20405 0.71605 -0.11500
C 	C 	0.98621 0.20442 0.66816 0.05100
H 	H 	0.97627 0.19523 0.62453 0.03000
C 	C 	0.02931 0.21828 0.68502 -0.12800
H 	H 	0.04867 0.21803 0.65283 0.08600
C 	C 	0.04452 0.23249 0.74811 0.09200
C 	C 	0.01506 0.23106 0.79593 -0.13100
H 	H 	0.02467 0.23953 0.83993 0.07500
C 	C 	0.97200 0.21737 0.77919 0.05200
H 	H 	0.95247 0.21723 0.81143 0.02800
C 	C 	0.09164 0.25225 0.76486 -0.05400
C 	C 	0.11177 0.29103 0.79905 -0.04900
H 	H 	0.09487 0.30403 0.81123 0.04700
H 	H 	0.10067 0.15603 0.78493 0.08700
O 	O 	0.55356 0.52434 0.07607 -0.40500
O 	O 	0.56657 0.51150 0.97197 -0.40500
C 	C 	0.57770 0.52324 0.03103 0.35500
C 	C 	0.62419 0.53739 0.04939 -0.11500
C 	C 	0.65287 0.53776 0.00150 0.05100
H 	H 	0.64293 0.52857 0.95787 0.03000
C 	C 	0.69597 0.55162 0.01836 -0.12800
H 	H 	0.71533 0.55137 0.98617 0.08600
C 	C 	0.71118 0.56583 0.08145 0.09200
C 	C 	0.68172 0.56440 0.12927 -0.13100
H 	H 	0.69133 0.57287 0.17327 0.07500
C 	C 	0.63866 0.55071 0.11253 0.05300
H 	H 	0.61913 0.55057 0.14477 0.02800
C 	C 	0.75830 0.58559 0.09820 -0.05400
C 	C 	0.77843 0.62437 0.13239 -0.04900
H 	H 	0.76153 0.63737 0.14457 0.04700
H 	H 	0.76733 0.48937 0.11827 0.08700
Cu	Cu	0.17426 0.34853 0.27257 0.90400
Cu	Cu	0.84093 0.68186 0.60590 0.90400
Cu	Cu	0.50760 0.01520 0.93924 0.90400
Cu	Cu	0.65147 0.82574 0.27257 0.90400
Cu	Cu	0.31814 0.15907 0.60590 0.90400
Cu	Cu	0.98480 0.49240 0.93924 0.90400
Cu	Cu	0.17427 0.82574 0.27257 0.90400
Cu	Cu	0.84093 0.15907 0.60590 0.90400
Cu	Cu	0.50760 0.49240 0.93924 0.90400
Cu	Cu	0.34853 0.17426 0.72743 0.90400
Cu	Cu	0.01520 0.50760 0.06076 0.90400
Cu	Cu	0.68186 0.84093 0.39410 0.90400
Cu	Cu	0.82574 0.65147 0.72743 0.90400
Cu	Cu	0.49240 0.98480 0.06076 0.90400
Cu	Cu	0.15907 0.31814 0.39410 0.90400
Cu	Cu	0.82574 0.17427 0.72743 0.90400
Cu	Cu	0.49240 0.50760 0.06076 0.90400
Cu	Cu	0.15907 0.84093 0.39410 0.90400
O 	O 	0.42994 0.57006 0.37983 -0.17500
C 	C 	0.48946 0.51054 0.48340 0.00900
C 	C 	0.44966 0.55034 0.41398 0.11100
C 	C 	0.41095 0.58905 0.42390 -0.17400
H 	H 	0.39750 0.60250 0.39770 0.08900
O 	O 	0.09661 0.90339 0.71316 -0.17500
C 	C 	0.15613 0.84387 0.81673 0.00900
C 	C 	0.11633 0.88367 0.74731 0.11100
C 	C 	0.07762 0.92238 0.75723 -0.17400
H 	H 	0.06417 0.93583 0.73103 0.08900
O 	O 	0.76327 0.23673 0.04650 -0.17500
C 	C 	0.82279 0.17721 0.15007 0.00900
C 	C 	0.78299 0.21701 0.08065 0.11100
C 	C 	0.74428 0.25572 0.09057 -0.17400
H 	H 	0.73083 0.26917 0.06437 0.08900
O 	O 	0.42994 0.85988 0.37983 -0.17500
C 	C 	0.48946 0.97892 0.48340 0.00900
C 	C 	0.44966 0.89932 0.41398 0.11100
C 	C 	0.41095 0.82190 0.42390 -0.17400
H 	H 	0.39750 0.79500 0.39770 0.08900
O 	O 	0.09661 0.19321 0.71316 -0.17500
C 	C 	0.15613 0.31225 0.81673 0.00900
C 	C 	0.11633 0.23265 0.74731 0.11100
C 	C 	0.07762 0.15523 0.75723 -0.17400
H 	H 	0.06417 0.12833 0.73103 0.08900
O 	O 	0.76327 0.52655 0.04650 -0.17500
C 	C 	0.82279 0.64559 0.15007 0.00900
C 	C 	0.78299 0.56599 0.08065 0.11100
C 	C 	0.74428 0.48857 0.09057 -0.17400
H 	H 	0.73083 0.46167 0.06437 0.08900
O 	O 	0.14012 0.57006 0.37983 -0.17500
C 	C 	0.02108 0.51054 0.48340 0.00900
C 	C 	0.10068 0.55034 0.41398 0.11100
C 	C 	0.17810 0.58905 0.42390 -0.17400
H 	H 	0.20500 0.60250 0.39770 0.08900
O 	O 	0.80679 0.90339 0.71316 -0.17500
C 	C 	0.68775 0.84387 0.81673 0.00900
C 	C 	0.76735 0.88367 0.74731 0.11100
C 	C 	0.84477 0.92238 0.75723 -0.17400
H 	H 	0.87167 0.93583 0.73103 0.08900
O 	O 	0.47345 0.23673 0.04650 -0.17500
C 	C 	0.35441 0.17721 0.15007 0.00900
C 	C 	0.43401 0.21701 0.08065 0.11100
C 	C 	0.51143 0.25572 0.09057 -0.17400
H 	H 	0.53833 0.26917 0.06437 0.08900
O 	O 	0.57006 0.42994 0.62017 -0.17500
C 	C 	0.51054 0.48946 0.51660 0.00900
C 	C 	0.55034 0.44966 0.58602 0.11100
C 	C 	0.58905 0.41095 0.57610 -0.17400
H 	H 	0.60250 0.39750 0.60230 0.08900
O 	O 	0.23673 0.76327 0.95350 -0.17500
C 	C 	0.17721 0.82279 0.84993 0.00900
C 	C 	0.21701 0.78299 0.91935 0.11100
C 	C 	0.25572 0.74428 0.90943 -0.17400
H 	H 	0.26917 0.73083 0.93563 0.08900
O 	O 	0.90339 0.09661 0.28684 -0.17500
C 	C 	0.84387 0.15613 0.18327 0.00900
C 	C 	0.88367 0.11633 0.25269 0.11100
C 	C 	0.92238 0.07762 0.24277 -0.17400
H 	H 	0.93583 0.06417 0.26897 0.08900
O 	O 	0.85988 0.42994 0.62017 -0.17500
C 	C 	0.97892 0.48946 0.51660 0.00900
C 	C 	0.89932 0.44966 0.58602 0.11100
C 	C 	0.82190 0.41095 0.57610 -0.17400
H 	H 	0.79500 0.39750 0.60230 0.08900
O 	O 	0.52655 0.76327 0.95350 -0.17500
C 	C 	0.64559 0.82279 0.84993 0.00900
C 	C 	0.56599 0.78299 0.91935 0.11100
C 	C 	0.48857 0.74428 0.90943 -0.17400
H 	H 	0.46167 0.73083 0.93563 0.08900
O 	O 	0.19321 0.09661 0.28684 -0.17500
C 	C 	0.31225 0.15613 0.18327 0.00900
C 	C 	0.23265 0.11633 0.25269 0.11100
C 	C 	0.15523 0.07762 0.24277 -0.17400
H 	H 	0.12833 0.06417 0.26897 0.08900
O 	O 	0.57006 0.14012 0.62017 -0.17500
C 	C 	0.51054 0.02108 0.51660 0.00900
C 	C 	0.55034 0.10068 0.58602 0.11100
C 	C 	0.58905 0.17810 0.57610 -0.17400
H 	H 	0.60250 0.20500 0.60230 0.08900
O 	O 	0.23673 0.47345 0.95350 -0.17500
C 	C 	0.17721 0.35441 0.84993 0.00900
C 	C 	0.21701 0.43401 0.91935 0.11100
C 	C 	0.25572 0.51143 0.90943 -0.17400
H 	H 	0.26917 0.53833 0.93563 0.08900
O 	O 	0.90339 0.80679 0.28684 -0.17500
C 	C 	0.84387 0.68775 0.18327 0.00900
C 	C 	0.88367 0.76735 0.25269 0.11100
C 	C 	0.92238 0.84477 0.24277 -0.17400
H 	H 	0.93583 0.87167 0.26897 0.08900
