data_crystal

_cell_length_a 35.27750
_cell_length_b 35.27750
_cell_length_c 20.33820
_cell_angle_alpha 90.00000
_cell_angle_beta  90.00000
_cell_angle_gamma 120.00000

_symmetry_space_group_name_	'P 1'
_symmetry_space_group_name_H-M	'P 1'

loop_
_symmetry_equiv_pos_as_xyz
  x,y,z

loop_
_atom_site_label
_atom_site_type_symbol
_atom_site_fract_x
_atom_site_fract_y
_atom_site_fract_z
_atom_site_charge
O 	O 	0.52433 0.97077 0.42402 -0.40700
O 	O 	0.51147 0.94488 0.52779 -0.40500
C 	C 	0.52324 0.94555 0.46867 0.36100
C 	C 	0.53745 0.91326 0.45029 -0.11800
C 	C 	0.53772 0.88498 0.49872 0.05400
H 	H 	0.52860 0.88580 0.54240 0.03000
C 	C 	0.55169 0.85560 0.48127 -0.13000
H 	H 	0.55150 0.83590 0.51330 0.08800
C 	C 	0.56575 0.85467 0.41860 0.09700
C 	C 	0.56445 0.88276 0.37099 -0.13500
H 	H 	0.57300 0.88170 0.32700 0.07800
C 	C 	0.55076 0.91202 0.38776 0.05900
H 	H 	0.55060 0.93140 0.35550 0.02800
C 	C 	0.58556 0.82713 0.40148 -0.05600
C 	C 	0.62425 0.84582 0.36775 -0.04500
H 	H 	0.63740 0.87590 0.35620 0.04700
H 	H 	0.48900 0.72180 0.38320 0.08200
O 	O 	0.19100 0.30410 0.75735 -0.40700
O 	O 	0.17814 0.27821 0.86112 -0.40500
C 	C 	0.18991 0.27888 0.80200 0.36100
C 	C 	0.20412 0.24659 0.78362 -0.11800
C 	C 	0.20439 0.21831 0.83205 0.05400
H 	H 	0.19527 0.21913 0.87573 0.03000
C 	C 	0.21836 0.18893 0.81460 -0.13000
H 	H 	0.21817 0.16923 0.84663 0.08800
C 	C 	0.23242 0.18800 0.75193 0.09700
C 	C 	0.23112 0.21609 0.70432 -0.13500
H 	H 	0.23967 0.21503 0.66033 0.07800
C 	C 	0.21743 0.24535 0.72109 0.05900
H 	H 	0.21727 0.26473 0.68883 0.02800
C 	C 	0.25223 0.16046 0.73481 -0.05600
C 	C 	0.29092 0.17915 0.70108 -0.04500
H 	H 	0.30407 0.20923 0.68953 0.04700
H 	H 	0.15567 0.05513 0.71653 0.08200
O 	O 	0.85766 0.63744 0.09069 -0.40700
O 	O 	0.84480 0.61155 0.19446 -0.40500
C 	C 	0.85657 0.61222 0.13534 0.36100
C 	C 	0.87078 0.57993 0.11696 -0.11800
C 	C 	0.87105 0.55165 0.16539 0.05400
H 	H 	0.86193 0.55247 0.20907 0.03000
C 	C 	0.88502 0.52227 0.14794 -0.13000
H 	H 	0.88483 0.50257 0.17997 0.08800
C 	C 	0.89908 0.52134 0.08527 0.09700
C 	C 	0.89778 0.54943 0.03766 -0.13500
H 	H 	0.90633 0.54837 0.99367 0.07700
C 	C 	0.88409 0.57869 0.05443 0.05800
H 	H 	0.88393 0.59807 0.02217 0.02700
C 	C 	0.91889 0.49380 0.06815 -0.05700
C 	C 	0.95758 0.51249 0.03442 -0.04600
H 	H 	0.97073 0.54257 0.02287 0.04600
H 	H 	0.82233 0.38847 0.04987 0.08100
O 	O 	0.02923 0.55356 0.42402 -0.40800
O 	O 	0.05512 0.56659 0.52779 -0.40600
C 	C 	0.05445 0.57769 0.46867 0.36000
C 	C 	0.08674 0.62419 0.45029 -0.11900
C 	C 	0.11502 0.65274 0.49872 0.05300
H 	H 	0.11420 0.64280 0.54240 0.02900
C 	C 	0.14440 0.69609 0.48127 -0.13100
H 	H 	0.16410 0.71560 0.51330 0.08700
C 	C 	0.14533 0.71108 0.41860 0.09600
C 	C 	0.11724 0.68169 0.37099 -0.13600
H 	H 	0.11830 0.69130 0.32700 0.07700
C 	C 	0.08798 0.63874 0.38776 0.05800
H 	H 	0.06860 0.61920 0.35550 0.02700
C 	C 	0.17287 0.75843 0.40148 -0.05700
C 	C 	0.15418 0.77843 0.36775 -0.04600
H 	H 	0.12410 0.76150 0.35620 0.04600
H 	H 	0.27820 0.76720 0.38320 0.08100
O 	O 	0.69590 0.88689 0.75735 -0.40800
O 	O 	0.72179 0.89992 0.86112 -0.40600
C 	C 	0.72112 0.91102 0.80200 0.36000
C 	C 	0.75341 0.95752 0.78362 -0.11900
C 	C 	0.78169 0.98607 0.83205 0.05300
H 	H 	0.78087 0.97613 0.87573 0.02900
C 	C 	0.81107 0.02942 0.81460 -0.13100
H 	H 	0.83077 0.04893 0.84663 0.08700
C 	C 	0.81200 0.04441 0.75193 0.09600
C 	C 	0.78391 0.01502 0.70432 -0.13600
H 	H 	0.78497 0.02463 0.66033 0.07700
C 	C 	0.75465 0.97207 0.72109 0.05800
H 	H 	0.73527 0.95253 0.68883 0.02700
C 	C 	0.83954 0.09176 0.73481 -0.05700
C 	C 	0.82085 0.11176 0.70108 -0.04600
H 	H 	0.79077 0.09483 0.68953 0.04600
H 	H 	0.94487 0.10053 0.71653 0.08100
O 	O 	0.36256 0.22023 0.09069 -0.40800
O 	O 	0.38845 0.23326 0.19446 -0.40600
C 	C 	0.38778 0.24436 0.13534 0.36000
C 	C 	0.42007 0.29086 0.11696 -0.11900
C 	C 	0.44835 0.31941 0.16539 0.05300
H 	H 	0.44753 0.30947 0.20907 0.02900
C 	C 	0.47773 0.36276 0.14794 -0.13100
H 	H 	0.49743 0.38227 0.17997 0.08700
C 	C 	0.47866 0.37775 0.08527 0.09600
C 	C 	0.45057 0.34836 0.03766 -0.13600
H 	H 	0.45163 0.35797 0.99367 0.07700
C 	C 	0.42131 0.30541 0.05443 0.05800
H 	H 	0.40193 0.28587 0.02217 0.02700
C 	C 	0.50620 0.42510 0.06815 -0.05700
C 	C 	0.48751 0.44510 0.03442 -0.04600
H 	H 	0.45743 0.42817 0.02287 0.04600
H 	H 	0.61153 0.43387 0.04987 0.08100
O 	O 	0.44644 0.47567 0.42402 -0.40800
O 	O 	0.43341 0.48853 0.52779 -0.40600
C 	C 	0.42231 0.47676 0.46867 0.36000
C 	C 	0.37581 0.46255 0.45029 -0.11900
C 	C 	0.34726 0.46228 0.49872 0.05300
H 	H 	0.35720 0.47140 0.54240 0.02900
C 	C 	0.30391 0.44831 0.48127 -0.13100
H 	H 	0.28440 0.44850 0.51330 0.08700
C 	C 	0.28892 0.43425 0.41860 0.09600
C 	C 	0.31831 0.43555 0.37099 -0.13600
H 	H 	0.30870 0.42700 0.32700 0.07700
C 	C 	0.36126 0.44924 0.38776 0.05800
H 	H 	0.38080 0.44940 0.35550 0.02700
C 	C 	0.24157 0.41444 0.40148 -0.05700
C 	C 	0.22157 0.37575 0.36775 -0.04600
H 	H 	0.23850 0.36260 0.35620 0.04600
H 	H 	0.23280 0.51100 0.38320 0.08100
O 	O 	0.11311 0.80900 0.75735 -0.40800
O 	O 	0.10008 0.82186 0.86112 -0.40600
C 	C 	0.08898 0.81009 0.80200 0.36000
C 	C 	0.04248 0.79588 0.78362 -0.11900
C 	C 	0.01393 0.79561 0.83205 0.05300
H 	H 	0.02387 0.80473 0.87573 0.02900
C 	C 	0.97058 0.78164 0.81460 -0.13100
H 	H 	0.95107 0.78183 0.84663 0.08700
C 	C 	0.95559 0.76758 0.75193 0.09600
C 	C 	0.98498 0.76888 0.70432 -0.13600
H 	H 	0.97537 0.76033 0.66033 0.07700
C 	C 	0.02793 0.78257 0.72109 0.05800
H 	H 	0.04747 0.78273 0.68883 0.02700
C 	C 	0.90824 0.74777 0.73481 -0.05700
C 	C 	0.88824 0.70908 0.70108 -0.04600
H 	H 	0.90517 0.69593 0.68953 0.04600
H 	H 	0.89947 0.84433 0.71653 0.08100
O 	O 	0.77977 0.14234 0.09069 -0.40800
O 	O 	0.76674 0.15520 0.19446 -0.40600
C 	C 	0.75564 0.14343 0.13534 0.36000
C 	C 	0.70914 0.12922 0.11696 -0.11900
C 	C 	0.68059 0.12895 0.16539 0.05300
H 	H 	0.69053 0.13807 0.20907 0.02900
C 	C 	0.63724 0.11498 0.14794 -0.13100
H 	H 	0.61773 0.11517 0.17997 0.08700
C 	C 	0.62225 0.10092 0.08527 0.09600
C 	C 	0.65164 0.10222 0.03766 -0.13600
H 	H 	0.64203 0.09367 0.99367 0.07700
C 	C 	0.69459 0.11591 0.05443 0.05800
H 	H 	0.71413 0.11607 0.02217 0.02700
C 	C 	0.57490 0.08111 0.06815 -0.05700
C 	C 	0.55490 0.04242 0.03442 -0.04600
H 	H 	0.57183 0.02927 0.02287 0.04600
H 	H 	0.56613 0.17767 0.04987 0.08100
O 	O 	0.97077 0.52433 0.57598 -0.40800
O 	O 	0.94488 0.51147 0.47221 -0.40600
C 	C 	0.94555 0.52324 0.53133 0.36000
C 	C 	0.91326 0.53745 0.54971 -0.11900
C 	C 	0.88498 0.53772 0.50128 0.05300
H 	H 	0.88580 0.52860 0.45760 0.02900
C 	C 	0.85560 0.55169 0.51873 -0.13100
H 	H 	0.83590 0.55150 0.48670 0.08700
C 	C 	0.85467 0.56575 0.58140 0.09600
C 	C 	0.88276 0.56445 0.62901 -0.13600
H 	H 	0.88170 0.57300 0.67300 0.07700
C 	C 	0.91202 0.55076 0.61224 0.05800
H 	H 	0.93140 0.55060 0.64450 0.02700
C 	C 	0.82713 0.58556 0.59852 -0.05700
C 	C 	0.84582 0.62425 0.63225 -0.04600
H 	H 	0.87590 0.63740 0.64380 0.04600
H 	H 	0.72180 0.48900 0.61680 0.08100
O 	O 	0.63744 0.85766 0.90931 -0.40800
O 	O 	0.61155 0.84480 0.80554 -0.40600
C 	C 	0.61222 0.85657 0.86466 0.36000
C 	C 	0.57993 0.87078 0.88304 -0.11900
C 	C 	0.55165 0.87105 0.83461 0.05300
H 	H 	0.55247 0.86193 0.79093 0.02900
C 	C 	0.52227 0.88502 0.85206 -0.13100
H 	H 	0.50257 0.88483 0.82003 0.08700
C 	C 	0.52134 0.89908 0.91473 0.09600
C 	C 	0.54943 0.89778 0.96234 -0.13600
H 	H 	0.54837 0.90633 0.00633 0.07700
C 	C 	0.57869 0.88409 0.94557 0.05800
H 	H 	0.59807 0.88393 0.97783 0.02700
C 	C 	0.49380 0.91889 0.93185 -0.05700
C 	C 	0.51249 0.95758 0.96558 -0.04600
H 	H 	0.54257 0.97073 0.97713 0.04600
H 	H 	0.38847 0.82233 0.95013 0.08100
O 	O 	0.30410 0.19100 0.24265 -0.40800
O 	O 	0.27821 0.17814 0.13888 -0.40600
C 	C 	0.27888 0.18991 0.19800 0.36000
C 	C 	0.24659 0.20412 0.21638 -0.11900
C 	C 	0.21831 0.20439 0.16795 0.05300
H 	H 	0.21913 0.19527 0.12427 0.02900
C 	C 	0.18893 0.21836 0.18540 -0.13100
H 	H 	0.16923 0.21817 0.15337 0.08700
C 	C 	0.18800 0.23242 0.24807 0.09600
C 	C 	0.21609 0.23112 0.29568 -0.13600
H 	H 	0.21503 0.23967 0.33967 0.07700
C 	C 	0.24535 0.21743 0.27891 0.05800
H 	H 	0.26473 0.21727 0.31117 0.02700
C 	C 	0.16046 0.25223 0.26519 -0.05700
C 	C 	0.17915 0.29092 0.29892 -0.04600
H 	H 	0.20923 0.30407 0.31047 0.04600
H 	H 	0.05513 0.15567 0.28347 0.08100
O 	O 	0.55356 0.02923 0.57598 -0.40800
O 	O 	0.56659 0.05512 0.47221 -0.40600
C 	C 	0.57769 0.05445 0.53133 0.36000
C 	C 	0.62419 0.08674 0.54971 -0.11900
C 	C 	0.65274 0.11502 0.50128 0.05300
H 	H 	0.64280 0.11420 0.45760 0.02900
C 	C 	0.69609 0.14440 0.51873 -0.13100
H 	H 	0.71560 0.16410 0.48670 0.08700
C 	C 	0.71108 0.14533 0.58140 0.09600
C 	C 	0.68169 0.11724 0.62901 -0.13600
H 	H 	0.69130 0.11830 0.67300 0.07700
C 	C 	0.63874 0.08798 0.61224 0.05800
H 	H 	0.61920 0.06860 0.64450 0.02700
C 	C 	0.75843 0.17287 0.59852 -0.05700
C 	C 	0.77843 0.15418 0.63225 -0.04600
H 	H 	0.76150 0.12410 0.64380 0.04600
H 	H 	0.76720 0.27820 0.61680 0.08100
O 	O 	0.22023 0.36256 0.90931 -0.40800
O 	O 	0.23326 0.38845 0.80554 -0.40600
C 	C 	0.24436 0.38778 0.86466 0.36000
C 	C 	0.29086 0.42007 0.88304 -0.11900
C 	C 	0.31941 0.44835 0.83461 0.05300
H 	H 	0.30947 0.44753 0.79093 0.02900
C 	C 	0.36276 0.47773 0.85206 -0.13100
H 	H 	0.38227 0.49743 0.82003 0.08700
C 	C 	0.37775 0.47866 0.91473 0.09600
C 	C 	0.34836 0.45057 0.96234 -0.13600
H 	H 	0.35797 0.45163 0.00633 0.07700
C 	C 	0.30541 0.42131 0.94557 0.05800
H 	H 	0.28587 0.40193 0.97783 0.02700
C 	C 	0.42510 0.50620 0.93185 -0.05700
C 	C 	0.44510 0.48751 0.96558 -0.04600
H 	H 	0.42817 0.45743 0.97713 0.04600
H 	H 	0.43387 0.61153 0.95013 0.08100
O 	O 	0.88689 0.69590 0.24265 -0.40800
O 	O 	0.89992 0.72179 0.13888 -0.40600
C 	C 	0.91102 0.72112 0.19800 0.36000
C 	C 	0.95752 0.75341 0.21638 -0.11900
C 	C 	0.98607 0.78169 0.16795 0.05300
H 	H 	0.97613 0.78087 0.12427 0.02900
C 	C 	0.02942 0.81107 0.18540 -0.13100
H 	H 	0.04893 0.83077 0.15337 0.08700
C 	C 	0.04441 0.81200 0.24807 0.09600
C 	C 	0.01502 0.78391 0.29568 -0.13600
H 	H 	0.02463 0.78497 0.33967 0.07700
C 	C 	0.97207 0.75465 0.27891 0.05800
H 	H 	0.95253 0.73527 0.31117 0.02700
C 	C 	0.09176 0.83954 0.26519 -0.05700
C 	C 	0.11176 0.82085 0.29892 -0.04600
H 	H 	0.09483 0.79077 0.31047 0.04600
H 	H 	0.10053 0.94487 0.28347 0.08100
O 	O 	0.47567 0.44644 0.57598 -0.40800
O 	O 	0.48853 0.43341 0.47221 -0.40600
C 	C 	0.47676 0.42231 0.53133 0.36000
C 	C 	0.46255 0.37581 0.54971 -0.11900
C 	C 	0.46228 0.34726 0.50128 0.05300
H 	H 	0.47140 0.35720 0.45760 0.02900
C 	C 	0.44831 0.30391 0.51873 -0.13100
H 	H 	0.44850 0.28440 0.48670 0.08700
C 	C 	0.43425 0.28892 0.58140 0.09600
C 	C 	0.43555 0.31831 0.62901 -0.13600
H 	H 	0.42700 0.30870 0.67300 0.07700
C 	C 	0.44924 0.36126 0.61224 0.05800
H 	H 	0.44940 0.38080 0.64450 0.02700
C 	C 	0.41444 0.24157 0.59852 -0.05700
C 	C 	0.37575 0.22157 0.63225 -0.04600
H 	H 	0.36260 0.23850 0.64380 0.04600
H 	H 	0.51100 0.23280 0.61680 0.08100
O 	O 	0.14234 0.77977 0.90931 -0.40800
O 	O 	0.15520 0.76674 0.80554 -0.40600
C 	C 	0.14343 0.75564 0.86466 0.36000
C 	C 	0.12922 0.70914 0.88304 -0.11900
C 	C 	0.12895 0.68059 0.83461 0.05300
H 	H 	0.13807 0.69053 0.79093 0.02900
C 	C 	0.11498 0.63724 0.85206 -0.13100
H 	H 	0.11517 0.61773 0.82003 0.08700
C 	C 	0.10092 0.62225 0.91473 0.09600
C 	C 	0.10222 0.65164 0.96234 -0.13600
H 	H 	0.09367 0.64203 0.00633 0.07700
C 	C 	0.11591 0.69459 0.94557 0.05800
H 	H 	0.11607 0.71413 0.97783 0.02700
C 	C 	0.08111 0.57490 0.93185 -0.05700
C 	C 	0.04242 0.55490 0.96558 -0.04600
H 	H 	0.02927 0.57183 0.97713 0.04600
H 	H 	0.17767 0.56613 0.95013 0.08100
O 	O 	0.80900 0.11311 0.24265 -0.40800
O 	O 	0.82186 0.10008 0.13888 -0.40600
C 	C 	0.81009 0.08898 0.19800 0.36000
C 	C 	0.79588 0.04248 0.21638 -0.11900
C 	C 	0.79561 0.01393 0.16795 0.05300
H 	H 	0.80473 0.02387 0.12427 0.02900
C 	C 	0.78164 0.97058 0.18540 -0.13100
H 	H 	0.78183 0.95107 0.15337 0.08700
C 	C 	0.76758 0.95559 0.24807 0.09600
C 	C 	0.76888 0.98498 0.29568 -0.13600
H 	H 	0.76033 0.97537 0.33967 0.07700
C 	C 	0.78257 0.02793 0.27891 0.05800
H 	H 	0.78273 0.04747 0.31117 0.02700
C 	C 	0.74777 0.90824 0.26519 -0.05700
C 	C 	0.70908 0.88824 0.29892 -0.04600
H 	H 	0.69593 0.90517 0.31047 0.04600
H 	H 	0.84433 0.89947 0.28347 0.08100
O 	O 	0.47567 0.02923 0.57598 -0.40800
O 	O 	0.48853 0.05512 0.47221 -0.40600
C 	C 	0.47676 0.05445 0.53133 0.36000
C 	C 	0.46255 0.08674 0.54971 -0.11900
C 	C 	0.46228 0.11502 0.50128 0.05300
H 	H 	0.47140 0.11420 0.45760 0.02900
C 	C 	0.44831 0.14440 0.51873 -0.13100
H 	H 	0.44850 0.16410 0.48670 0.08700
C 	C 	0.43425 0.14533 0.58140 0.09600
C 	C 	0.43555 0.11724 0.62901 -0.13600
H 	H 	0.42700 0.11830 0.67300 0.07700
C 	C 	0.44924 0.08798 0.61224 0.05800
H 	H 	0.44940 0.06860 0.64450 0.02700
C 	C 	0.41444 0.17287 0.59852 -0.05700
C 	C 	0.37575 0.15418 0.63225 -0.04600
H 	H 	0.36260 0.12410 0.64380 0.04600
H 	H 	0.51100 0.27820 0.61680 0.08100
O 	O 	0.14234 0.36256 0.90931 -0.40800
O 	O 	0.15520 0.38845 0.80554 -0.40600
C 	C 	0.14343 0.38778 0.86466 0.36000
C 	C 	0.12922 0.42007 0.88304 -0.11900
C 	C 	0.12895 0.44835 0.83461 0.05300
H 	H 	0.13807 0.44753 0.79093 0.02900
C 	C 	0.11498 0.47773 0.85206 -0.13100
H 	H 	0.11517 0.49743 0.82003 0.08700
C 	C 	0.10092 0.47866 0.91473 0.09600
C 	C 	0.10222 0.45057 0.96234 -0.13600
H 	H 	0.09367 0.45163 0.00633 0.07700
C 	C 	0.11591 0.42131 0.94557 0.05800
H 	H 	0.11607 0.40193 0.97783 0.02700
C 	C 	0.08111 0.50620 0.93185 -0.05700
C 	C 	0.04242 0.48751 0.96558 -0.04600
H 	H 	0.02927 0.45743 0.97713 0.04600
H 	H 	0.17767 0.61153 0.95013 0.08100
O 	O 	0.80900 0.69590 0.24265 -0.40800
O 	O 	0.82186 0.72179 0.13888 -0.40600
C 	C 	0.81009 0.72112 0.19800 0.36000
C 	C 	0.79588 0.75341 0.21638 -0.11900
C 	C 	0.79561 0.78169 0.16795 0.05300
H 	H 	0.80473 0.78087 0.12427 0.02900
C 	C 	0.78164 0.81107 0.18540 -0.13100
H 	H 	0.78183 0.83077 0.15337 0.08700
C 	C 	0.76758 0.81200 0.24807 0.09600
C 	C 	0.76888 0.78391 0.29568 -0.13600
H 	H 	0.76033 0.78497 0.33967 0.07700
C 	C 	0.78257 0.75465 0.27891 0.05800
H 	H 	0.78273 0.73527 0.31117 0.02700
C 	C 	0.74777 0.83954 0.26519 -0.05700
C 	C 	0.70908 0.82085 0.29892 -0.04600
H 	H 	0.69593 0.79077 0.31047 0.04600
H 	H 	0.84433 0.94487 0.28347 0.08100
O 	O 	0.97077 0.44644 0.57598 -0.40800
O 	O 	0.94488 0.43341 0.47221 -0.40600
C 	C 	0.94555 0.42231 0.53133 0.36000
C 	C 	0.91326 0.37581 0.54971 -0.11900
C 	C 	0.88498 0.34726 0.50128 0.05300
H 	H 	0.88580 0.35720 0.45760 0.02900
C 	C 	0.85560 0.30391 0.51873 -0.13100
H 	H 	0.83590 0.28440 0.48670 0.08700
C 	C 	0.85467 0.28892 0.58140 0.09600
C 	C 	0.88276 0.31831 0.62901 -0.13600
H 	H 	0.88170 0.30870 0.67300 0.07700
C 	C 	0.91202 0.36126 0.61224 0.05800
H 	H 	0.93140 0.38080 0.64450 0.02700
C 	C 	0.82713 0.24157 0.59852 -0.05700
C 	C 	0.84582 0.22157 0.63225 -0.04600
H 	H 	0.87590 0.23850 0.64380 0.04600
H 	H 	0.72180 0.23280 0.61680 0.08100
O 	O 	0.63744 0.77977 0.90931 -0.40800
O 	O 	0.61155 0.76674 0.80554 -0.40600
C 	C 	0.61222 0.75564 0.86466 0.36000
C 	C 	0.57993 0.70914 0.88304 -0.11900
C 	C 	0.55165 0.68059 0.83461 0.05300
H 	H 	0.55247 0.69053 0.79093 0.02900
C 	C 	0.52227 0.63724 0.85206 -0.13100
H 	H 	0.50257 0.61773 0.82003 0.08700
C 	C 	0.52134 0.62225 0.91473 0.09600
C 	C 	0.54943 0.65164 0.96234 -0.13600
H 	H 	0.54837 0.64203 0.00633 0.07700
C 	C 	0.57869 0.69459 0.94557 0.05800
H 	H 	0.59807 0.71413 0.97783 0.02700
C 	C 	0.49380 0.57490 0.93185 -0.05700
C 	C 	0.51249 0.55490 0.96558 -0.04600
H 	H 	0.54257 0.57183 0.97713 0.04600
H 	H 	0.38847 0.56613 0.95013 0.08100
O 	O 	0.30410 0.11311 0.24265 -0.40800
O 	O 	0.27821 0.10008 0.13888 -0.40600
C 	C 	0.27888 0.08898 0.19800 0.36000
C 	C 	0.24659 0.04248 0.21638 -0.11900
C 	C 	0.21831 0.01393 0.16795 0.05300
H 	H 	0.21913 0.02387 0.12427 0.02900
C 	C 	0.18893 0.97058 0.18540 -0.13100
H 	H 	0.16923 0.95107 0.15337 0.08700
C 	C 	0.18800 0.95559 0.24807 0.09600
C 	C 	0.21609 0.98498 0.29568 -0.13600
H 	H 	0.21503 0.97537 0.33967 0.07700
C 	C 	0.24535 0.02793 0.27891 0.05800
H 	H 	0.26473 0.04747 0.31117 0.02700
C 	C 	0.16046 0.90824 0.26519 -0.05700
C 	C 	0.17915 0.88824 0.29892 -0.04600
H 	H 	0.20923 0.90517 0.31047 0.04600
H 	H 	0.05513 0.89947 0.28347 0.08100
O 	O 	0.55356 0.52433 0.57598 -0.40800
O 	O 	0.56659 0.51147 0.47221 -0.40600
C 	C 	0.57769 0.52324 0.53133 0.36000
C 	C 	0.62419 0.53745 0.54971 -0.11900
C 	C 	0.65274 0.53772 0.50128 0.05300
H 	H 	0.64280 0.52860 0.45760 0.02900
C 	C 	0.69609 0.55169 0.51873 -0.13100
H 	H 	0.71560 0.55150 0.48670 0.08700
C 	C 	0.71108 0.56575 0.58140 0.09600
C 	C 	0.68169 0.56445 0.62901 -0.13600
H 	H 	0.69130 0.57300 0.67300 0.07700
C 	C 	0.63874 0.55076 0.61224 0.05800
H 	H 	0.61920 0.55060 0.64450 0.02700
C 	C 	0.75843 0.58556 0.59852 -0.05700
C 	C 	0.77843 0.62425 0.63225 -0.04600
H 	H 	0.76150 0.63740 0.64380 0.04600
H 	H 	0.76720 0.48900 0.61680 0.08100
O 	O 	0.22023 0.85766 0.90931 -0.40800
O 	O 	0.23326 0.84480 0.80554 -0.40600
C 	C 	0.24436 0.85657 0.86466 0.36000
C 	C 	0.29086 0.87078 0.88304 -0.11900
C 	C 	0.31941 0.87105 0.83461 0.05300
H 	H 	0.30947 0.86193 0.79093 0.02900
C 	C 	0.36276 0.88502 0.85206 -0.13100
H 	H 	0.38227 0.88483 0.82003 0.08700
C 	C 	0.37775 0.89908 0.91473 0.09600
C 	C 	0.34836 0.89778 0.96234 -0.13600
H 	H 	0.35797 0.90633 0.00633 0.07700
C 	C 	0.30541 0.88409 0.94557 0.05800
H 	H 	0.28587 0.88393 0.97783 0.02700
C 	C 	0.42510 0.91889 0.93185 -0.05700
C 	C 	0.44510 0.95758 0.96558 -0.04600
H 	H 	0.42817 0.97073 0.97713 0.04600
H 	H 	0.43387 0.82233 0.95013 0.08100
O 	O 	0.88689 0.19100 0.24265 -0.40800
O 	O 	0.89992 0.17814 0.13888 -0.40600
C 	C 	0.91102 0.18991 0.19800 0.36000
C 	C 	0.95752 0.20412 0.21638 -0.11900
C 	C 	0.98607 0.20439 0.16795 0.05300
H 	H 	0.97613 0.19527 0.12427 0.02900
C 	C 	0.02942 0.21836 0.18540 -0.13100
H 	H 	0.04893 0.21817 0.15337 0.08700
C 	C 	0.04441 0.23242 0.24807 0.09600
C 	C 	0.01502 0.23112 0.29568 -0.13600
H 	H 	0.02463 0.23967 0.33967 0.07700
C 	C 	0.97207 0.21743 0.27891 0.05800
H 	H 	0.95253 0.21727 0.31117 0.02700
C 	C 	0.09176 0.25223 0.26519 -0.05700
C 	C 	0.11176 0.29092 0.29892 -0.04600
H 	H 	0.09483 0.30407 0.31047 0.04600
H 	H 	0.10053 0.15567 0.28347 0.08100
O 	O 	0.02923 0.47567 0.42402 -0.40800
O 	O 	0.05512 0.48853 0.52779 -0.40600
C 	C 	0.05445 0.47676 0.46867 0.36000
C 	C 	0.08674 0.46255 0.45029 -0.11900
C 	C 	0.11502 0.46228 0.49872 0.05300
H 	H 	0.11420 0.47140 0.54240 0.02900
C 	C 	0.14440 0.44831 0.48127 -0.13100
H 	H 	0.16410 0.44850 0.51330 0.08700
C 	C 	0.14533 0.43425 0.41860 0.09600
C 	C 	0.11724 0.43555 0.37099 -0.13600
H 	H 	0.11830 0.42700 0.32700 0.07700
C 	C 	0.08798 0.44924 0.38776 0.05800
H 	H 	0.06860 0.44940 0.35550 0.02700
C 	C 	0.17287 0.41444 0.40148 -0.05700
C 	C 	0.15418 0.37575 0.36775 -0.04600
H 	H 	0.12410 0.36260 0.35620 0.04600
H 	H 	0.27820 0.51100 0.38320 0.08100
O 	O 	0.69590 0.80900 0.75735 -0.40800
O 	O 	0.72179 0.82186 0.86112 -0.40600
C 	C 	0.72112 0.81009 0.80200 0.36000
C 	C 	0.75341 0.79588 0.78362 -0.11900
C 	C 	0.78169 0.79561 0.83205 0.05300
H 	H 	0.78087 0.80473 0.87573 0.02900
C 	C 	0.81107 0.78164 0.81460 -0.13100
H 	H 	0.83077 0.78183 0.84663 0.08700
C 	C 	0.81200 0.76758 0.75193 0.09600
C 	C 	0.78391 0.76888 0.70432 -0.13600
H 	H 	0.78497 0.76033 0.66033 0.07700
C 	C 	0.75465 0.78257 0.72109 0.05800
H 	H 	0.73527 0.78273 0.68883 0.02700
C 	C 	0.83954 0.74777 0.73481 -0.05700
C 	C 	0.82085 0.70908 0.70108 -0.04600
H 	H 	0.79077 0.69593 0.68953 0.04600
H 	H 	0.94487 0.84433 0.71653 0.08100
O 	O 	0.36256 0.14234 0.09069 -0.40800
O 	O 	0.38845 0.15520 0.19446 -0.40600
C 	C 	0.38778 0.14343 0.13534 0.36000
C 	C 	0.42007 0.12922 0.11696 -0.11900
C 	C 	0.44835 0.12895 0.16539 0.05300
H 	H 	0.44753 0.13807 0.20907 0.02900
C 	C 	0.47773 0.11498 0.14794 -0.13100
H 	H 	0.49743 0.11517 0.17997 0.08700
C 	C 	0.47866 0.10092 0.08527 0.09600
C 	C 	0.45057 0.10222 0.03766 -0.13600
H 	H 	0.45163 0.09367 0.99367 0.07700
C 	C 	0.42131 0.11591 0.05443 0.05800
H 	H 	0.40193 0.11607 0.02217 0.02700
C 	C 	0.50620 0.08111 0.06815 -0.05700
C 	C 	0.48751 0.04242 0.03442 -0.04600
H 	H 	0.45743 0.02927 0.02287 0.04600
H 	H 	0.61153 0.17767 0.04987 0.08100
O 	O 	0.44644 0.97077 0.42402 -0.40800
O 	O 	0.43341 0.94488 0.52779 -0.40600
C 	C 	0.42231 0.94555 0.46867 0.36000
C 	C 	0.37581 0.91326 0.45029 -0.11900
C 	C 	0.34726 0.88498 0.49872 0.05300
H 	H 	0.35720 0.88580 0.54240 0.02900
C 	C 	0.30391 0.85560 0.48127 -0.13100
H 	H 	0.28440 0.83590 0.51330 0.08700
C 	C 	0.28892 0.85467 0.41860 0.09600
C 	C 	0.31831 0.88276 0.37099 -0.13600
H 	H 	0.30870 0.88170 0.32700 0.07700
C 	C 	0.36126 0.91202 0.38776 0.05800
H 	H 	0.38080 0.93140 0.35550 0.02700
C 	C 	0.24157 0.82713 0.40148 -0.05700
C 	C 	0.22157 0.84582 0.36775 -0.04600
H 	H 	0.23850 0.87590 0.35620 0.04600
H 	H 	0.23280 0.72180 0.38320 0.08100
O 	O 	0.11311 0.30410 0.75735 -0.40800
O 	O 	0.10008 0.27821 0.86112 -0.40600
C 	C 	0.08898 0.27888 0.80200 0.36000
C 	C 	0.04248 0.24659 0.78362 -0.11900
C 	C 	0.01393 0.21831 0.83205 0.05300
H 	H 	0.02387 0.21913 0.87573 0.02900
C 	C 	0.97058 0.18893 0.81460 -0.13100
H 	H 	0.95107 0.16923 0.84663 0.08700
C 	C 	0.95559 0.18800 0.75193 0.09600
C 	C 	0.98498 0.21609 0.70432 -0.13600
H 	H 	0.97537 0.21503 0.66033 0.07700
C 	C 	0.02793 0.24535 0.72109 0.05800
H 	H 	0.04747 0.26473 0.68883 0.02700
C 	C 	0.90824 0.16046 0.73481 -0.05700
C 	C 	0.88824 0.17915 0.70108 -0.04600
H 	H 	0.90517 0.20923 0.68953 0.04600
H 	H 	0.89947 0.05513 0.71653 0.08100
O 	O 	0.77977 0.63744 0.09069 -0.40800
O 	O 	0.76674 0.61155 0.19446 -0.40600
C 	C 	0.75564 0.61222 0.13534 0.36000
C 	C 	0.70914 0.57993 0.11696 -0.11900
C 	C 	0.68059 0.55165 0.16539 0.05300
H 	H 	0.69053 0.55247 0.20907 0.02900
C 	C 	0.63724 0.52227 0.14794 -0.13100
H 	H 	0.61773 0.50257 0.17997 0.08700
C 	C 	0.62225 0.52134 0.08527 0.09600
C 	C 	0.65164 0.54943 0.03766 -0.13600
H 	H 	0.64203 0.54837 0.99367 0.07700
C 	C 	0.69459 0.57869 0.05443 0.05800
H 	H 	0.71413 0.59807 0.02217 0.02700
C 	C 	0.57490 0.49380 0.06815 -0.05700
C 	C 	0.55490 0.51249 0.03442 -0.04600
H 	H 	0.57183 0.54257 0.02287 0.04600
H 	H 	0.56613 0.38847 0.04987 0.08100
O 	O 	0.52433 0.55356 0.42402 -0.40800
O 	O 	0.51147 0.56659 0.52779 -0.40600
C 	C 	0.52324 0.57769 0.46867 0.36000
C 	C 	0.53745 0.62419 0.45029 -0.11900
C 	C 	0.53772 0.65274 0.49872 0.05300
H 	H 	0.52860 0.64280 0.54240 0.02900
C 	C 	0.55169 0.69609 0.48127 -0.13100
H 	H 	0.55150 0.71560 0.51330 0.08700
C 	C 	0.56575 0.71108 0.41860 0.09600
C 	C 	0.56445 0.68169 0.37099 -0.13600
H 	H 	0.57300 0.69130 0.32700 0.07700
C 	C 	0.55076 0.63874 0.38776 0.05800
H 	H 	0.55060 0.61920 0.35550 0.02700
C 	C 	0.58556 0.75843 0.40148 -0.05700
C 	C 	0.62425 0.77843 0.36775 -0.04600
H 	H 	0.63740 0.76150 0.35620 0.04600
H 	H 	0.48900 0.76720 0.38320 0.08100
O 	O 	0.19100 0.88689 0.75735 -0.40800
O 	O 	0.17814 0.89992 0.86112 -0.40600
C 	C 	0.18991 0.91102 0.80200 0.36000
C 	C 	0.20412 0.95752 0.78362 -0.11900
C 	C 	0.20439 0.98607 0.83205 0.05300
H 	H 	0.19527 0.97613 0.87573 0.02900
C 	C 	0.21836 0.02942 0.81460 -0.13100
H 	H 	0.21817 0.04893 0.84663 0.08700
C 	C 	0.23242 0.04441 0.75193 0.09600
C 	C 	0.23112 0.01502 0.70432 -0.13600
H 	H 	0.23967 0.02463 0.66033 0.07700
C 	C 	0.21743 0.97207 0.72109 0.05800
H 	H 	0.21727 0.95253 0.68883 0.02700
C 	C 	0.25223 0.09176 0.73481 -0.05700
C 	C 	0.29092 0.11176 0.70108 -0.04600
H 	H 	0.30407 0.09483 0.68953 0.04600
H 	H 	0.15567 0.10053 0.71653 0.08100
O 	O 	0.85766 0.22023 0.09069 -0.40800
O 	O 	0.84480 0.23326 0.19446 -0.40600
C 	C 	0.85657 0.24436 0.13534 0.36000
C 	C 	0.87078 0.29086 0.11696 -0.11900
C 	C 	0.87105 0.31941 0.16539 0.05300
H 	H 	0.86193 0.30947 0.20907 0.02900
C 	C 	0.88502 0.36276 0.14794 -0.13100
H 	H 	0.88483 0.38227 0.17997 0.08700
C 	C 	0.89908 0.37775 0.08527 0.09600
C 	C 	0.89778 0.34836 0.03766 -0.13600
H 	H 	0.90633 0.35797 0.99367 0.07700
C 	C 	0.88409 0.30541 0.05443 0.05800
H 	H 	0.88393 0.28587 0.02217 0.02700
C 	C 	0.91889 0.42510 0.06815 -0.05700
C 	C 	0.95758 0.44510 0.03442 -0.04600
H 	H 	0.97073 0.42817 0.02287 0.04600
H 	H 	0.82233 0.43387 0.04987 0.08100
Cu	Cu	0.50762 0.01523 0.43926 0.90400
Cu	Cu	0.17428 0.34856 0.77259 0.90400
Cu	Cu	0.84095 0.68190 0.10593 0.90400
Cu	Cu	0.98477 0.49238 0.43926 0.90400
Cu	Cu	0.65144 0.82572 0.77259 0.90400
Cu	Cu	0.31810 0.15905 0.10593 0.90400
Cu	Cu	0.50762 0.49238 0.43926 0.90400
Cu	Cu	0.17428 0.82572 0.77259 0.90400
Cu	Cu	0.84095 0.15905 0.10593 0.90400
Cu	Cu	0.01523 0.50761 0.56074 0.90400
Cu	Cu	0.68190 0.84095 0.89407 0.90400
Cu	Cu	0.34856 0.17428 0.22741 0.90400
Cu	Cu	0.49238 0.98477 0.56074 0.90400
Cu	Cu	0.15905 0.31810 0.89407 0.90400
Cu	Cu	0.82572 0.65144 0.22741 0.90400
Cu	Cu	0.49238 0.50762 0.56074 0.90400
Cu	Cu	0.15905 0.84095 0.89407 0.90400
Cu	Cu	0.82572 0.17428 0.22741 0.90400
O 	O 	0.52643 0.76321 0.45314 -0.18000
C 	C 	0.64548 0.82274 0.34926 0.00800
C 	C 	0.56551 0.78275 0.41898 0.11500
C 	C 	0.48861 0.74430 0.41110 -0.15400
H 	H 	0.46200 0.73100 0.43800 0.08300
O 	O 	0.19310 0.09655 0.78647 -0.18000
C 	C 	0.31215 0.15607 0.68259 0.00800
C 	C 	0.23218 0.11609 0.75231 0.11500
C 	C 	0.15528 0.07764 0.74443 -0.15500
H 	H 	0.12867 0.06433 0.77133 0.08300
O 	O 	0.85976 0.42988 0.11981 -0.18000
C 	C 	0.97881 0.48941 0.01593 0.00800
C 	C 	0.89884 0.44942 0.08565 0.11500
C 	C 	0.82194 0.41097 0.07777 -0.15500
H 	H 	0.79533 0.39767 0.10467 0.08300
O 	O 	0.23679 0.76321 0.45314 -0.18000
C 	C 	0.17726 0.82274 0.34926 0.00800
C 	C 	0.21725 0.78275 0.41898 0.11500
C 	C 	0.25570 0.74430 0.41110 -0.15500
H 	H 	0.26900 0.73100 0.43800 0.08400
O 	O 	0.90345 0.09655 0.78647 -0.18000
C 	C 	0.84393 0.15607 0.68259 0.00800
C 	C 	0.88391 0.11609 0.75231 0.11500
C 	C 	0.92236 0.07764 0.74443 -0.15400
H 	H 	0.93567 0.06433 0.77133 0.08300
O 	O 	0.57012 0.42988 0.11981 -0.18000
C 	C 	0.51059 0.48941 0.01593 0.00800
C 	C 	0.55058 0.44942 0.08565 0.11500
C 	C 	0.58903 0.41097 0.07777 -0.15500
H 	H 	0.60233 0.39767 0.10467 0.08400
O 	O 	0.23679 0.47357 0.45314 -0.18000
C 	C 	0.17726 0.35452 0.34926 0.00800
C 	C 	0.21724 0.43449 0.41898 0.11500
C 	C 	0.25570 0.51139 0.41110 -0.15400
H 	H 	0.26900 0.53800 0.43800 0.08300
O 	O 	0.90345 0.80690 0.78647 -0.18000
C 	C 	0.84393 0.68785 0.68259 0.00800
C 	C 	0.88391 0.76782 0.75231 0.11500
C 	C 	0.92236 0.84472 0.74443 -0.15500
H 	H 	0.93567 0.87133 0.77133 0.08300
O 	O 	0.57012 0.14024 0.11981 -0.18000
C 	C 	0.51059 0.02119 0.01593 0.00800
C 	C 	0.55058 0.10116 0.08565 0.11500
C 	C 	0.58903 0.17806 0.07777 -0.15500
H 	H 	0.60233 0.20467 0.10467 0.08300
O 	O 	0.76321 0.52643 0.54686 -0.18000
C 	C 	0.82274 0.64548 0.65074 0.00800
C 	C 	0.78275 0.56551 0.58102 0.11500
C 	C 	0.74430 0.48861 0.58890 -0.15400
H 	H 	0.73100 0.46200 0.56200 0.08300
O 	O 	0.42988 0.85976 0.88019 -0.18000
C 	C 	0.48941 0.97881 0.98407 0.00800
C 	C 	0.44942 0.89884 0.91435 0.11500
C 	C 	0.41097 0.82194 0.92223 -0.15500
H 	H 	0.39767 0.79533 0.89533 0.08300
O 	O 	0.09655 0.19310 0.21353 -0.18000
C 	C 	0.15607 0.31215 0.31741 0.00800
C 	C 	0.11609 0.23218 0.24769 0.11500
C 	C 	0.07764 0.15528 0.25557 -0.15500
H 	H 	0.06433 0.12867 0.22867 0.08300
O 	O 	0.76321 0.23679 0.54686 -0.18000
C 	C 	0.82274 0.17726 0.65074 0.00800
C 	C 	0.78275 0.21725 0.58102 0.11500
C 	C 	0.74430 0.25570 0.58890 -0.15500
H 	H 	0.73100 0.26900 0.56200 0.08400
O 	O 	0.42988 0.57012 0.88019 -0.18000
C 	C 	0.48941 0.51059 0.98407 0.00800
C 	C 	0.44942 0.55058 0.91435 0.11500
C 	C 	0.41097 0.58903 0.92223 -0.15500
H 	H 	0.39767 0.60233 0.89533 0.08400
O 	O 	0.09655 0.90345 0.21353 -0.18000
C 	C 	0.15607 0.84393 0.31741 0.00800
C 	C 	0.11609 0.88391 0.24769 0.11500
C 	C 	0.07764 0.92236 0.25557 -0.15400
H 	H 	0.06433 0.93567 0.22867 0.08300
O 	O 	0.47357 0.23679 0.54686 -0.18000
C 	C 	0.35452 0.17726 0.65074 0.00800
C 	C 	0.43449 0.21725 0.58102 0.11500
C 	C 	0.51139 0.25570 0.58890 -0.15400
H 	H 	0.53800 0.26900 0.56200 0.08300
O 	O 	0.14024 0.57012 0.88019 -0.18000
C 	C 	0.02119 0.51059 0.98407 0.00800
C 	C 	0.10116 0.55058 0.91435 0.11500
C 	C 	0.17806 0.58903 0.92223 -0.15500
H 	H 	0.20467 0.60233 0.89533 0.08300
O 	O 	0.80690 0.90345 0.21353 -0.18000
C 	C 	0.68785 0.84393 0.31741 0.00800
C 	C 	0.76782 0.88391 0.24769 0.11500
C 	C 	0.84472 0.92236 0.25557 -0.15500
H 	H 	0.87133 0.93567 0.22867 0.08300
