data_crystal

_cell_length_a 34.82900
_cell_length_b 34.82900
_cell_length_c 23.49700
_cell_angle_alpha 90.00000
_cell_angle_beta  90.00000
_cell_angle_gamma 120.00000

_symmetry_space_group_name_	'P 1'
_symmetry_space_group_name_H-M	'P 1'

loop_
_symmetry_equiv_pos_as_xyz
  x,y,z

loop_
_atom_site_label
_atom_site_type_symbol
_atom_site_fract_x
_atom_site_fract_y
_atom_site_fract_z
_atom_site_charge
O 	O 	0.44717 0.47387 0.43311 -0.42500
O 	O 	0.43218 0.48912 0.51995 -0.42000
C 	C 	0.42236 0.47590 0.46960 0.40500
C 	C 	0.37554 0.46055 0.45440 -0.19100
C 	C 	0.34383 0.45691 0.49100 0.13700
H 	H 	0.35180 0.46490 0.52880 0.00000
C 	C 	0.30117 0.44228 0.47580 -0.21000
H 	H 	0.28120 0.44100 0.50290 0.11700
C 	C 	0.28686 0.42916 0.42040 0.15000
C 	C 	0.31871 0.43147 0.38310 -0.20200
H 	H 	0.31100 0.42270 0.34550 0.10100
C 	C 	0.36183 0.44668 0.40100 0.12300
H 	H 	0.38220 0.44730 0.37480 0.00400
C 	C 	0.24016 0.41110 0.40390 -0.08700
C 	C 	0.22093 0.37333 0.36800 -0.03800
H 	H 	0.23810 0.36120 0.35620 0.04200
H 	H 	0.23080 0.50660 0.39920 0.09800
O 	O 	0.11384 0.80720 0.76644 -0.42500
O 	O 	0.09885 0.82245 0.85328 -0.42000
C 	C 	0.08903 0.80923 0.80293 0.40500
C 	C 	0.04221 0.79388 0.78773 -0.19100
C 	C 	0.01050 0.79024 0.82433 0.13600
H 	H 	0.01847 0.79823 0.86213 0.00000
C 	C 	0.96784 0.77561 0.80913 -0.20900
H 	H 	0.94787 0.77433 0.83623 0.11700
C 	C 	0.95353 0.76249 0.75373 0.15000
C 	C 	0.98538 0.76480 0.71643 -0.20200
H 	H 	0.97767 0.75603 0.67883 0.10000
C 	C 	0.02850 0.78001 0.73433 0.12300
H 	H 	0.04887 0.78063 0.70813 0.00400
C 	C 	0.90683 0.74443 0.73723 -0.08700
C 	C 	0.88760 0.70666 0.70133 -0.03800
H 	H 	0.90477 0.69453 0.68953 0.04200
H 	H 	0.89747 0.83993 0.73253 0.09800
O 	O 	0.78050 0.14054 0.09978 -0.42500
O 	O 	0.76551 0.15579 0.18662 -0.42000
C 	C 	0.75569 0.14257 0.13627 0.40500
C 	C 	0.70887 0.12722 0.12107 -0.19100
C 	C 	0.67716 0.12358 0.15767 0.13700
H 	H 	0.68513 0.13157 0.19547 0.00000
C 	C 	0.63450 0.10895 0.14247 -0.21000
H 	H 	0.61453 0.10767 0.16957 0.11700
C 	C 	0.62019 0.09583 0.08707 0.15000
C 	C 	0.65204 0.09814 0.04977 -0.20200
H 	H 	0.64433 0.08937 0.01217 0.10100
C 	C 	0.69516 0.11335 0.06767 0.12300
H 	H 	0.71553 0.11397 0.04147 0.00400
C 	C 	0.57349 0.07777 0.07057 -0.08700
C 	C 	0.55426 0.04000 0.03467 -0.03800
H 	H 	0.57143 0.02787 0.02287 0.04200
H 	H 	0.56413 0.17327 0.06587 0.09800
O 	O 	0.52613 0.97330 0.43311 -0.42500
O 	O 	0.51088 0.94306 0.51995 -0.42000
C 	C 	0.52410 0.94646 0.46960 0.40500
C 	C 	0.53945 0.91499 0.45440 -0.19100
C 	C 	0.54309 0.88692 0.49100 0.13700
H 	H 	0.53510 0.88690 0.52880 0.00000
C 	C 	0.55772 0.85889 0.47580 -0.21000
H 	H 	0.55900 0.84020 0.50290 0.11700
C 	C 	0.57084 0.85770 0.42040 0.15000
C 	C 	0.56853 0.88724 0.38310 -0.20200
H 	H 	0.57730 0.88830 0.34550 0.10100
C 	C 	0.55332 0.91515 0.40100 0.12300
H 	H 	0.55270 0.93490 0.37480 0.00400
C 	C 	0.58890 0.82906 0.40390 -0.08700
C 	C 	0.62667 0.84760 0.36800 -0.03800
H 	H 	0.63880 0.87690 0.35620 0.04200
H 	H 	0.49340 0.72420 0.39920 0.09800
O 	O 	0.19280 0.30663 0.76644 -0.42500
O 	O 	0.17755 0.27639 0.85328 -0.42000
C 	C 	0.19077 0.27979 0.80293 0.40500
C 	C 	0.20612 0.24832 0.78773 -0.19100
C 	C 	0.20976 0.22025 0.82433 0.13700
H 	H 	0.20177 0.22023 0.86213 0.00000
C 	C 	0.22439 0.19222 0.80913 -0.21000
H 	H 	0.22567 0.17353 0.83623 0.11700
C 	C 	0.23751 0.19103 0.75373 0.15000
C 	C 	0.23520 0.22057 0.71643 -0.20200
H 	H 	0.24397 0.22163 0.67883 0.10100
C 	C 	0.21999 0.24848 0.73433 0.12300
H 	H 	0.21937 0.26823 0.70813 0.00500
C 	C 	0.25557 0.16239 0.73723 -0.08600
C 	C 	0.29334 0.18093 0.70133 -0.03700
H 	H 	0.30547 0.21023 0.68953 0.04300
H 	H 	0.16007 0.05753 0.73253 0.09900
O 	O 	0.85946 0.63997 0.09978 -0.42400
O 	O 	0.84421 0.60973 0.18662 -0.41900
C 	C 	0.85743 0.61313 0.13627 0.40600
C 	C 	0.87278 0.58166 0.12107 -0.19000
C 	C 	0.87642 0.55359 0.15767 0.13800
H 	H 	0.86843 0.55357 0.19547 0.00100
C 	C 	0.89105 0.52556 0.14247 -0.20900
H 	H 	0.89233 0.50687 0.16957 0.11800
C 	C 	0.90417 0.52437 0.08707 0.15100
C 	C 	0.90186 0.55391 0.04977 -0.20100
H 	H 	0.91063 0.55497 0.01217 0.10200
C 	C 	0.88665 0.58182 0.06767 0.12400
H 	H 	0.88603 0.60157 0.04147 0.00500
C 	C 	0.92223 0.49573 0.07057 -0.08600
C 	C 	0.96000 0.51427 0.03467 -0.03700
H 	H 	0.97213 0.54357 0.02287 0.04300
H 	H 	0.82673 0.39087 0.06587 0.09900
O 	O 	0.02670 0.55283 0.43311 -0.42400
O 	O 	0.05694 0.56782 0.51995 -0.41900
C 	C 	0.05354 0.57764 0.46960 0.40600
C 	C 	0.08501 0.62446 0.45440 -0.19000
C 	C 	0.11308 0.65617 0.49100 0.13800
H 	H 	0.11310 0.64820 0.52880 0.00100
C 	C 	0.14111 0.69883 0.47580 -0.20900
H 	H 	0.15980 0.71880 0.50290 0.11800
C 	C 	0.14230 0.71314 0.42040 0.15100
C 	C 	0.11276 0.68129 0.38310 -0.20100
H 	H 	0.11170 0.68900 0.34550 0.10200
C 	C 	0.08485 0.63817 0.40100 0.12400
H 	H 	0.06510 0.61780 0.37480 0.00500
C 	C 	0.17094 0.75984 0.40390 -0.08600
C 	C 	0.15240 0.77907 0.36800 -0.03700
H 	H 	0.12310 0.76190 0.35620 0.04300
H 	H 	0.27580 0.76920 0.39920 0.09900
O 	O 	0.69337 0.88616 0.76644 -0.42400
O 	O 	0.72361 0.90115 0.85328 -0.41900
C 	C 	0.72021 0.91097 0.80293 0.40600
C 	C 	0.75168 0.95779 0.78773 -0.19000
C 	C 	0.77975 0.98950 0.82433 0.13700
H 	H 	0.77977 0.98153 0.86213 0.00100
C 	C 	0.80778 0.03216 0.80913 -0.20800
H 	H 	0.82647 0.05213 0.83623 0.11700
C 	C 	0.80897 0.04647 0.75373 0.15100
C 	C 	0.77943 0.01462 0.71643 -0.20100
H 	H 	0.77837 0.02233 0.67883 0.10100
C 	C 	0.75152 0.97150 0.73433 0.12400
H 	H 	0.73177 0.95113 0.70813 0.00500
C 	C 	0.83761 0.09317 0.73723 -0.08600
C 	C 	0.81907 0.11240 0.70133 -0.03700
H 	H 	0.78977 0.09523 0.68953 0.04300
H 	H 	0.94247 0.10253 0.73253 0.10000
O 	O 	0.36003 0.21950 0.09978 -0.42400
O 	O 	0.39027 0.23449 0.18662 -0.41900
C 	C 	0.38687 0.24431 0.13627 0.40600
C 	C 	0.41834 0.29113 0.12107 -0.19000
C 	C 	0.44641 0.32284 0.15767 0.13800
H 	H 	0.44643 0.31487 0.19547 0.00100
C 	C 	0.47444 0.36550 0.14247 -0.20900
H 	H 	0.49313 0.38547 0.16957 0.11800
C 	C 	0.47563 0.37981 0.08707 0.15100
C 	C 	0.44609 0.34796 0.04977 -0.20100
H 	H 	0.44503 0.35567 0.01217 0.10200
C 	C 	0.41818 0.30484 0.06767 0.12400
H 	H 	0.39843 0.28447 0.04147 0.00500
C 	C 	0.50427 0.42651 0.07057 -0.08600
C 	C 	0.48573 0.44574 0.03467 -0.03700
H 	H 	0.45643 0.42857 0.02287 0.04300
H 	H 	0.60913 0.43587 0.06587 0.09900
O 	O 	0.47387 0.44717 0.56689 -0.42400
O 	O 	0.48912 0.43218 0.48005 -0.41900
C 	C 	0.47590 0.42236 0.53040 0.40600
C 	C 	0.46055 0.37554 0.54560 -0.19000
C 	C 	0.45691 0.34383 0.50900 0.13800
H 	H 	0.46490 0.35180 0.47120 0.00100
C 	C 	0.44228 0.30117 0.52420 -0.20900
H 	H 	0.44100 0.28120 0.49710 0.11800
C 	C 	0.42916 0.28686 0.57960 0.15100
C 	C 	0.43147 0.31871 0.61690 -0.20100
H 	H 	0.42270 0.31100 0.65450 0.10200
C 	C 	0.44668 0.36183 0.59900 0.12400
H 	H 	0.44730 0.38220 0.62520 0.00500
C 	C 	0.41110 0.24016 0.59610 -0.08600
C 	C 	0.37333 0.22093 0.63200 -0.03700
H 	H 	0.36120 0.23810 0.64380 0.04300
H 	H 	0.50660 0.23080 0.60080 0.09900
O 	O 	0.14054 0.78050 0.90022 -0.42400
O 	O 	0.15579 0.76551 0.81338 -0.41900
C 	C 	0.14257 0.75569 0.86373 0.40600
C 	C 	0.12722 0.70887 0.87893 -0.19000
C 	C 	0.12358 0.67716 0.84233 0.13800
H 	H 	0.13157 0.68513 0.80453 0.00100
C 	C 	0.10895 0.63450 0.85753 -0.20900
H 	H 	0.10767 0.61453 0.83043 0.11800
C 	C 	0.09583 0.62019 0.91293 0.15100
C 	C 	0.09814 0.65204 0.95023 -0.20100
H 	H 	0.08937 0.64433 0.98783 0.10200
C 	C 	0.11335 0.69516 0.93233 0.12400
H 	H 	0.11397 0.71553 0.95853 0.00500
C 	C 	0.07777 0.57349 0.92943 -0.08600
C 	C 	0.04000 0.55426 0.96533 -0.03700
H 	H 	0.02787 0.57143 0.97713 0.04300
H 	H 	0.17327 0.56413 0.93413 0.09900
O 	O 	0.80720 0.11384 0.23356 -0.42400
O 	O 	0.82245 0.09885 0.14672 -0.41900
C 	C 	0.80923 0.08903 0.19707 0.40600
C 	C 	0.79388 0.04221 0.21227 -0.19000
C 	C 	0.79024 0.01050 0.17567 0.13700
H 	H 	0.79823 0.01847 0.13787 0.00100
C 	C 	0.77561 0.96784 0.19087 -0.20800
H 	H 	0.77433 0.94787 0.16377 0.11800
C 	C 	0.76249 0.95353 0.24627 0.15100
C 	C 	0.76480 0.98538 0.28357 -0.20100
H 	H 	0.75603 0.97767 0.32117 0.10100
C 	C 	0.78001 0.02850 0.26567 0.12400
H 	H 	0.78063 0.04887 0.29187 0.00500
C 	C 	0.74443 0.90683 0.26277 -0.08600
C 	C 	0.70666 0.88760 0.29867 -0.03700
H 	H 	0.69453 0.90477 0.31047 0.04300
H 	H 	0.83993 0.89747 0.26747 0.09900
O 	O 	0.97330 0.52613 0.56689 -0.42400
O 	O 	0.94306 0.51088 0.48005 -0.41900
C 	C 	0.94646 0.52410 0.53040 0.40600
C 	C 	0.91499 0.53945 0.54560 -0.19000
C 	C 	0.88692 0.54309 0.50900 0.13800
H 	H 	0.88690 0.53510 0.47120 0.00100
C 	C 	0.85889 0.55772 0.52420 -0.20900
H 	H 	0.84020 0.55900 0.49710 0.11800
C 	C 	0.85770 0.57084 0.57960 0.15100
C 	C 	0.88724 0.56853 0.61690 -0.20100
H 	H 	0.88830 0.57730 0.65450 0.10200
C 	C 	0.91515 0.55332 0.59900 0.12400
H 	H 	0.93490 0.55270 0.62520 0.00500
C 	C 	0.82906 0.58890 0.59610 -0.08600
C 	C 	0.84760 0.62667 0.63200 -0.03700
H 	H 	0.87690 0.63880 0.64380 0.04300
H 	H 	0.72420 0.49340 0.60080 0.09900
O 	O 	0.63997 0.85946 0.90022 -0.42400
O 	O 	0.60973 0.84421 0.81338 -0.41900
C 	C 	0.61313 0.85743 0.86373 0.40600
C 	C 	0.58166 0.87278 0.87893 -0.19000
C 	C 	0.55359 0.87642 0.84233 0.13800
H 	H 	0.55357 0.86843 0.80453 0.00100
C 	C 	0.52556 0.89105 0.85753 -0.20900
H 	H 	0.50687 0.89233 0.83043 0.11800
C 	C 	0.52437 0.90417 0.91293 0.15100
C 	C 	0.55391 0.90186 0.95023 -0.20100
H 	H 	0.55497 0.91063 0.98783 0.10200
C 	C 	0.58182 0.88665 0.93233 0.12400
H 	H 	0.60157 0.88603 0.95853 0.00500
C 	C 	0.49573 0.92223 0.92943 -0.08600
C 	C 	0.51427 0.96000 0.96533 -0.03700
H 	H 	0.54357 0.97213 0.97713 0.04300
H 	H 	0.39087 0.82673 0.93413 0.09900
O 	O 	0.30663 0.19280 0.23356 -0.42400
O 	O 	0.27639 0.17755 0.14672 -0.41900
C 	C 	0.27979 0.19077 0.19707 0.40600
C 	C 	0.24832 0.20612 0.21227 -0.19000
C 	C 	0.22025 0.20976 0.17567 0.13800
H 	H 	0.22023 0.20177 0.13787 0.00100
C 	C 	0.19222 0.22439 0.19087 -0.20900
H 	H 	0.17353 0.22567 0.16377 0.11800
C 	C 	0.19103 0.23751 0.24627 0.15100
C 	C 	0.22057 0.23520 0.28357 -0.20100
H 	H 	0.22163 0.24397 0.32117 0.10200
C 	C 	0.24848 0.21999 0.26567 0.12400
H 	H 	0.26823 0.21937 0.29187 0.00500
C 	C 	0.16239 0.25557 0.26277 -0.08600
C 	C 	0.18093 0.29334 0.29867 -0.03700
H 	H 	0.21023 0.30547 0.31047 0.04300
H 	H 	0.05753 0.16007 0.26747 0.09900
O 	O 	0.55283 0.02670 0.56689 -0.42400
O 	O 	0.56782 0.05694 0.48005 -0.41900
C 	C 	0.57764 0.05354 0.53040 0.40600
C 	C 	0.62446 0.08501 0.54560 -0.19000
C 	C 	0.65617 0.11308 0.50900 0.13800
H 	H 	0.64820 0.11310 0.47120 0.00100
C 	C 	0.69883 0.14111 0.52420 -0.20900
H 	H 	0.71880 0.15980 0.49710 0.11800
C 	C 	0.71314 0.14230 0.57960 0.15100
C 	C 	0.68129 0.11276 0.61690 -0.20100
H 	H 	0.68900 0.11170 0.65450 0.10200
C 	C 	0.63817 0.08485 0.59900 0.12400
H 	H 	0.61780 0.06510 0.62520 0.00500
C 	C 	0.75984 0.17094 0.59610 -0.08600
C 	C 	0.77907 0.15240 0.63200 -0.03700
H 	H 	0.76190 0.12310 0.64380 0.04300
H 	H 	0.76920 0.27580 0.60080 0.09900
O 	O 	0.21950 0.36003 0.90022 -0.42400
O 	O 	0.23449 0.39027 0.81338 -0.41900
C 	C 	0.24431 0.38687 0.86373 0.40600
C 	C 	0.29113 0.41834 0.87893 -0.19000
C 	C 	0.32284 0.44641 0.84233 0.13800
H 	H 	0.31487 0.44643 0.80453 0.00100
C 	C 	0.36550 0.47444 0.85753 -0.20900
H 	H 	0.38547 0.49313 0.83043 0.11800
C 	C 	0.37981 0.47563 0.91293 0.15100
C 	C 	0.34796 0.44609 0.95023 -0.20100
H 	H 	0.35567 0.44503 0.98783 0.10200
C 	C 	0.30484 0.41818 0.93233 0.12400
H 	H 	0.28447 0.39843 0.95853 0.00500
C 	C 	0.42651 0.50427 0.92943 -0.08600
C 	C 	0.44574 0.48573 0.96533 -0.03700
H 	H 	0.42857 0.45643 0.97713 0.04300
H 	H 	0.43587 0.60913 0.93413 0.09900
O 	O 	0.88616 0.69337 0.23356 -0.42400
O 	O 	0.90115 0.72361 0.14672 -0.41900
C 	C 	0.91097 0.72021 0.19707 0.40600
C 	C 	0.95779 0.75168 0.21227 -0.19000
C 	C 	0.98950 0.77975 0.17567 0.13700
H 	H 	0.98153 0.77977 0.13787 0.00100
C 	C 	0.03216 0.80778 0.19087 -0.20800
H 	H 	0.05213 0.82647 0.16377 0.11700
C 	C 	0.04647 0.80897 0.24627 0.15100
C 	C 	0.01462 0.77943 0.28357 -0.20100
H 	H 	0.02233 0.77837 0.32117 0.10100
C 	C 	0.97150 0.75152 0.26567 0.12400
H 	H 	0.95113 0.73177 0.29187 0.00500
C 	C 	0.09317 0.83761 0.26277 -0.08600
C 	C 	0.11240 0.81907 0.29867 -0.03700
H 	H 	0.09523 0.78977 0.31047 0.04300
H 	H 	0.10253 0.94247 0.26747 0.10000
O 	O 	0.55283 0.52613 0.56689 -0.42400
O 	O 	0.56782 0.51088 0.48005 -0.41900
C 	C 	0.57764 0.52410 0.53040 0.40600
C 	C 	0.62446 0.53945 0.54560 -0.19000
C 	C 	0.65617 0.54309 0.50900 0.13800
H 	H 	0.64820 0.53510 0.47120 0.00100
C 	C 	0.69883 0.55772 0.52420 -0.20900
H 	H 	0.71880 0.55900 0.49710 0.11800
C 	C 	0.71314 0.57084 0.57960 0.15100
C 	C 	0.68129 0.56853 0.61690 -0.20100
H 	H 	0.68900 0.57730 0.65450 0.10200
C 	C 	0.63817 0.55332 0.59900 0.12400
H 	H 	0.61780 0.55270 0.62520 0.00500
C 	C 	0.75984 0.58890 0.59610 -0.08600
C 	C 	0.77907 0.62667 0.63200 -0.03700
H 	H 	0.76190 0.63880 0.64380 0.04300
H 	H 	0.76920 0.49340 0.60080 0.09900
O 	O 	0.21950 0.85946 0.90022 -0.42400
O 	O 	0.23449 0.84421 0.81338 -0.41900
C 	C 	0.24431 0.85743 0.86373 0.40600
C 	C 	0.29113 0.87278 0.87893 -0.19000
C 	C 	0.32284 0.87642 0.84233 0.13800
H 	H 	0.31487 0.86843 0.80453 0.00100
C 	C 	0.36550 0.89105 0.85753 -0.20900
H 	H 	0.38547 0.89233 0.83043 0.11800
C 	C 	0.37981 0.90417 0.91293 0.15100
C 	C 	0.34796 0.90186 0.95023 -0.20100
H 	H 	0.35567 0.91063 0.98783 0.10200
C 	C 	0.30484 0.88665 0.93233 0.12400
H 	H 	0.28447 0.88603 0.95853 0.00500
C 	C 	0.42651 0.92223 0.92943 -0.08600
C 	C 	0.44574 0.96000 0.96533 -0.03700
H 	H 	0.42857 0.97213 0.97713 0.04300
H 	H 	0.43587 0.82673 0.93413 0.09900
O 	O 	0.88616 0.19280 0.23356 -0.42400
O 	O 	0.90115 0.17755 0.14672 -0.41900
C 	C 	0.91097 0.19077 0.19707 0.40600
C 	C 	0.95779 0.20612 0.21227 -0.19000
C 	C 	0.98950 0.20976 0.17567 0.13700
H 	H 	0.98153 0.20177 0.13787 0.00100
C 	C 	0.03216 0.22439 0.19087 -0.20800
H 	H 	0.05213 0.22567 0.16377 0.11800
C 	C 	0.04647 0.23751 0.24627 0.15100
C 	C 	0.01462 0.23520 0.28357 -0.20100
H 	H 	0.02233 0.24397 0.32117 0.10100
C 	C 	0.97150 0.21999 0.26567 0.12400
H 	H 	0.95113 0.21937 0.29187 0.00500
C 	C 	0.09317 0.25557 0.26277 -0.08600
C 	C 	0.11240 0.29334 0.29867 -0.03700
H 	H 	0.09523 0.30547 0.31047 0.04300
H 	H 	0.10253 0.16007 0.26747 0.09900
O 	O 	0.47387 0.02670 0.56689 -0.42400
O 	O 	0.48912 0.05694 0.48005 -0.41900
C 	C 	0.47590 0.05354 0.53040 0.40600
C 	C 	0.46055 0.08501 0.54560 -0.19000
C 	C 	0.45691 0.11308 0.50900 0.13800
H 	H 	0.46490 0.11310 0.47120 0.00100
C 	C 	0.44228 0.14111 0.52420 -0.20900
H 	H 	0.44100 0.15980 0.49710 0.11800
C 	C 	0.42916 0.14230 0.57960 0.15100
C 	C 	0.43147 0.11276 0.61690 -0.20100
H 	H 	0.42270 0.11170 0.65450 0.10200
C 	C 	0.44668 0.08485 0.59900 0.12400
H 	H 	0.44730 0.06510 0.62520 0.00500
C 	C 	0.41110 0.17094 0.59610 -0.08600
C 	C 	0.37333 0.15240 0.63200 -0.03700
H 	H 	0.36120 0.12310 0.64380 0.04300
H 	H 	0.50660 0.27580 0.60080 0.09900
O 	O 	0.14054 0.36003 0.90022 -0.42400
O 	O 	0.15579 0.39027 0.81338 -0.41900
C 	C 	0.14257 0.38687 0.86373 0.40600
C 	C 	0.12722 0.41834 0.87893 -0.19000
C 	C 	0.12358 0.44641 0.84233 0.13800
H 	H 	0.13157 0.44643 0.80453 0.00100
C 	C 	0.10895 0.47444 0.85753 -0.20900
H 	H 	0.10767 0.49313 0.83043 0.11800
C 	C 	0.09583 0.47563 0.91293 0.15100
C 	C 	0.09814 0.44609 0.95023 -0.20100
H 	H 	0.08937 0.44503 0.98783 0.10200
C 	C 	0.11335 0.41818 0.93233 0.12400
H 	H 	0.11397 0.39843 0.95853 0.00500
C 	C 	0.07777 0.50427 0.92943 -0.08600
C 	C 	0.04000 0.48573 0.96533 -0.03700
H 	H 	0.02787 0.45643 0.97713 0.04300
H 	H 	0.17327 0.60913 0.93413 0.09900
O 	O 	0.80720 0.69337 0.23356 -0.42400
O 	O 	0.82245 0.72361 0.14672 -0.41900
C 	C 	0.80923 0.72021 0.19707 0.40600
C 	C 	0.79388 0.75168 0.21227 -0.19000
C 	C 	0.79024 0.77975 0.17567 0.13800
H 	H 	0.79823 0.77977 0.13787 0.00100
C 	C 	0.77561 0.80778 0.19087 -0.20900
H 	H 	0.77433 0.82647 0.16377 0.11800
C 	C 	0.76249 0.80897 0.24627 0.15100
C 	C 	0.76480 0.77943 0.28357 -0.20100
H 	H 	0.75603 0.77837 0.32117 0.10200
C 	C 	0.78001 0.75152 0.26567 0.12400
H 	H 	0.78063 0.73177 0.29187 0.00500
C 	C 	0.74443 0.83761 0.26277 -0.08600
C 	C 	0.70666 0.81907 0.29867 -0.03700
H 	H 	0.69453 0.78977 0.31047 0.04300
H 	H 	0.83993 0.94247 0.26747 0.09900
O 	O 	0.97330 0.44717 0.56689 -0.42400
O 	O 	0.94306 0.43218 0.48005 -0.41900
C 	C 	0.94646 0.42236 0.53040 0.40600
C 	C 	0.91499 0.37554 0.54560 -0.19000
C 	C 	0.88692 0.34383 0.50900 0.13800
H 	H 	0.88690 0.35180 0.47120 0.00100
C 	C 	0.85889 0.30117 0.52420 -0.20900
H 	H 	0.84020 0.28120 0.49710 0.11800
C 	C 	0.85770 0.28686 0.57960 0.15100
C 	C 	0.88724 0.31871 0.61690 -0.20100
H 	H 	0.88830 0.31100 0.65450 0.10200
C 	C 	0.91515 0.36183 0.59900 0.12400
H 	H 	0.93490 0.38220 0.62520 0.00500
C 	C 	0.82906 0.24016 0.59610 -0.08600
C 	C 	0.84760 0.22093 0.63200 -0.03700
H 	H 	0.87690 0.23810 0.64380 0.04300
H 	H 	0.72420 0.23080 0.60080 0.09900
O 	O 	0.63997 0.78050 0.90022 -0.42400
O 	O 	0.60973 0.76551 0.81338 -0.41900
C 	C 	0.61313 0.75569 0.86373 0.40600
C 	C 	0.58166 0.70887 0.87893 -0.19000
C 	C 	0.55359 0.67716 0.84233 0.13800
H 	H 	0.55357 0.68513 0.80453 0.00100
C 	C 	0.52556 0.63450 0.85753 -0.20900
H 	H 	0.50687 0.61453 0.83043 0.11800
C 	C 	0.52437 0.62019 0.91293 0.15100
C 	C 	0.55391 0.65204 0.95023 -0.20100
H 	H 	0.55497 0.64433 0.98783 0.10200
C 	C 	0.58182 0.69516 0.93233 0.12400
H 	H 	0.60157 0.71553 0.95853 0.00500
C 	C 	0.49573 0.57349 0.92943 -0.08600
C 	C 	0.51427 0.55426 0.96533 -0.03700
H 	H 	0.54357 0.57143 0.97713 0.04300
H 	H 	0.39087 0.56413 0.93413 0.09900
O 	O 	0.30663 0.11384 0.23356 -0.42400
O 	O 	0.27639 0.09885 0.14672 -0.41900
C 	C 	0.27979 0.08903 0.19707 0.40600
C 	C 	0.24832 0.04221 0.21227 -0.19000
C 	C 	0.22025 0.01050 0.17567 0.13700
H 	H 	0.22023 0.01847 0.13787 0.00100
C 	C 	0.19222 0.96784 0.19087 -0.20800
H 	H 	0.17353 0.94787 0.16377 0.11700
C 	C 	0.19103 0.95353 0.24627 0.15100
C 	C 	0.22057 0.98538 0.28357 -0.20100
H 	H 	0.22163 0.97767 0.32117 0.10100
C 	C 	0.24848 0.02850 0.26567 0.12400
H 	H 	0.26823 0.04887 0.29187 0.00500
C 	C 	0.16239 0.90683 0.26277 -0.08600
C 	C 	0.18093 0.88760 0.29867 -0.03700
H 	H 	0.21023 0.90477 0.31047 0.04300
H 	H 	0.05753 0.89747 0.26747 0.10000
O 	O 	0.52613 0.55283 0.43311 -0.42400
O 	O 	0.51088 0.56782 0.51995 -0.41900
C 	C 	0.52410 0.57764 0.46960 0.40600
C 	C 	0.53945 0.62446 0.45440 -0.19000
C 	C 	0.54309 0.65617 0.49100 0.13800
H 	H 	0.53510 0.64820 0.52880 0.00100
C 	C 	0.55772 0.69883 0.47580 -0.20900
H 	H 	0.55900 0.71880 0.50290 0.11800
C 	C 	0.57084 0.71314 0.42040 0.15100
C 	C 	0.56853 0.68129 0.38310 -0.20100
H 	H 	0.57730 0.68900 0.34550 0.10200
C 	C 	0.55332 0.63817 0.40100 0.12400
H 	H 	0.55270 0.61780 0.37480 0.00500
C 	C 	0.58890 0.75984 0.40390 -0.08600
C 	C 	0.62667 0.77907 0.36800 -0.03700
H 	H 	0.63880 0.76190 0.35620 0.04300
H 	H 	0.49340 0.76920 0.39920 0.09900
O 	O 	0.19280 0.88616 0.76644 -0.42400
O 	O 	0.17755 0.90115 0.85328 -0.41900
C 	C 	0.19077 0.91097 0.80293 0.40600
C 	C 	0.20612 0.95779 0.78773 -0.19000
C 	C 	0.20976 0.98950 0.82433 0.13700
H 	H 	0.20177 0.98153 0.86213 0.00100
C 	C 	0.22439 0.03216 0.80913 -0.20800
H 	H 	0.22567 0.05213 0.83623 0.11800
C 	C 	0.23751 0.04647 0.75373 0.15100
C 	C 	0.23520 0.01462 0.71643 -0.20100
H 	H 	0.24397 0.02233 0.67883 0.10100
C 	C 	0.21999 0.97150 0.73433 0.12400
H 	H 	0.21937 0.95113 0.70813 0.00500
C 	C 	0.25557 0.09317 0.73723 -0.08600
C 	C 	0.29334 0.11240 0.70133 -0.03700
H 	H 	0.30547 0.09523 0.68953 0.04300
H 	H 	0.16007 0.10253 0.73253 0.09900
O 	O 	0.85946 0.21950 0.09978 -0.42400
O 	O 	0.84421 0.23449 0.18662 -0.41900
C 	C 	0.85743 0.24431 0.13627 0.40600
C 	C 	0.87278 0.29113 0.12107 -0.19000
C 	C 	0.87642 0.32284 0.15767 0.13800
H 	H 	0.86843 0.31487 0.19547 0.00100
C 	C 	0.89105 0.36550 0.14247 -0.20900
H 	H 	0.89233 0.38547 0.16957 0.11800
C 	C 	0.90417 0.37981 0.08707 0.15100
C 	C 	0.90186 0.34796 0.04977 -0.20100
H 	H 	0.91063 0.35567 0.01217 0.10200
C 	C 	0.88665 0.30484 0.06767 0.12400
H 	H 	0.88603 0.28447 0.04147 0.00500
C 	C 	0.92223 0.42651 0.07057 -0.08600
C 	C 	0.96000 0.44574 0.03467 -0.03700
H 	H 	0.97213 0.42857 0.02287 0.04300
H 	H 	0.82673 0.43587 0.06587 0.09900
O 	O 	0.02670 0.47387 0.43311 -0.42400
O 	O 	0.05694 0.48912 0.51995 -0.41900
C 	C 	0.05354 0.47590 0.46960 0.40600
C 	C 	0.08501 0.46055 0.45440 -0.19000
C 	C 	0.11308 0.45691 0.49100 0.13800
H 	H 	0.11310 0.46490 0.52880 0.00100
C 	C 	0.14111 0.44228 0.47580 -0.20900
H 	H 	0.15980 0.44100 0.50290 0.11800
C 	C 	0.14230 0.42916 0.42040 0.15100
C 	C 	0.11276 0.43147 0.38310 -0.20100
H 	H 	0.11170 0.42270 0.34550 0.10200
C 	C 	0.08485 0.44668 0.40100 0.12400
H 	H 	0.06510 0.44730 0.37480 0.00500
C 	C 	0.17094 0.41110 0.40390 -0.08600
C 	C 	0.15240 0.37333 0.36800 -0.03700
H 	H 	0.12310 0.36120 0.35620 0.04300
H 	H 	0.27580 0.50660 0.39920 0.09900
O 	O 	0.69337 0.80720 0.76644 -0.42400
O 	O 	0.72361 0.82245 0.85328 -0.41900
C 	C 	0.72021 0.80923 0.80293 0.40600
C 	C 	0.75168 0.79388 0.78773 -0.19000
C 	C 	0.77975 0.79024 0.82433 0.13800
H 	H 	0.77977 0.79823 0.86213 0.00100
C 	C 	0.80778 0.77561 0.80913 -0.20900
H 	H 	0.82647 0.77433 0.83623 0.11800
C 	C 	0.80897 0.76249 0.75373 0.15100
C 	C 	0.77943 0.76480 0.71643 -0.20100
H 	H 	0.77837 0.75603 0.67883 0.10200
C 	C 	0.75152 0.78001 0.73433 0.12400
H 	H 	0.73177 0.78063 0.70813 0.00500
C 	C 	0.83761 0.74443 0.73723 -0.08600
C 	C 	0.81907 0.70666 0.70133 -0.03700
H 	H 	0.78977 0.69453 0.68953 0.04300
H 	H 	0.94247 0.83993 0.73253 0.09900
O 	O 	0.36003 0.14054 0.09978 -0.42400
O 	O 	0.39027 0.15579 0.18662 -0.41900
C 	C 	0.38687 0.14257 0.13627 0.40600
C 	C 	0.41834 0.12722 0.12107 -0.19000
C 	C 	0.44641 0.12358 0.15767 0.13800
H 	H 	0.44643 0.13157 0.19547 0.00100
C 	C 	0.47444 0.10895 0.14247 -0.20900
H 	H 	0.49313 0.10767 0.16957 0.11800
C 	C 	0.47563 0.09583 0.08707 0.15100
C 	C 	0.44609 0.09814 0.04977 -0.20100
H 	H 	0.44503 0.08937 0.01217 0.10200
C 	C 	0.41818 0.11335 0.06767 0.12400
H 	H 	0.39843 0.11397 0.04147 0.00500
C 	C 	0.50427 0.07777 0.07057 -0.08600
C 	C 	0.48573 0.04000 0.03467 -0.03700
H 	H 	0.45643 0.02787 0.02287 0.04300
H 	H 	0.60913 0.17327 0.06587 0.09900
O 	O 	0.44717 0.97330 0.43311 -0.42400
O 	O 	0.43218 0.94306 0.51995 -0.41900
C 	C 	0.42236 0.94646 0.46960 0.40600
C 	C 	0.37554 0.91499 0.45440 -0.19000
C 	C 	0.34383 0.88692 0.49100 0.13800
H 	H 	0.35180 0.88690 0.52880 0.00100
C 	C 	0.30117 0.85889 0.47580 -0.20900
H 	H 	0.28120 0.84020 0.50290 0.11800
C 	C 	0.28686 0.85770 0.42040 0.15100
C 	C 	0.31871 0.88724 0.38310 -0.20100
H 	H 	0.31100 0.88830 0.34550 0.10200
C 	C 	0.36183 0.91515 0.40100 0.12400
H 	H 	0.38220 0.93490 0.37480 0.00500
C 	C 	0.24016 0.82906 0.40390 -0.08600
C 	C 	0.22093 0.84760 0.36800 -0.03700
H 	H 	0.23810 0.87690 0.35620 0.04300
H 	H 	0.23080 0.72420 0.39920 0.09900
O 	O 	0.11384 0.30663 0.76644 -0.42400
O 	O 	0.09885 0.27639 0.85328 -0.41900
C 	C 	0.08903 0.27979 0.80293 0.40600
C 	C 	0.04221 0.24832 0.78773 -0.19000
C 	C 	0.01050 0.22025 0.82433 0.13700
H 	H 	0.01847 0.22023 0.86213 0.00100
C 	C 	0.96784 0.19222 0.80913 -0.20800
H 	H 	0.94787 0.17353 0.83623 0.11700
C 	C 	0.95353 0.19103 0.75373 0.15100
C 	C 	0.98538 0.22057 0.71643 -0.20100
H 	H 	0.97767 0.22163 0.67883 0.10100
C 	C 	0.02850 0.24848 0.73433 0.12400
H 	H 	0.04887 0.26823 0.70813 0.00500
C 	C 	0.90683 0.16239 0.73723 -0.08600
C 	C 	0.88760 0.18093 0.70133 -0.03700
H 	H 	0.90477 0.21023 0.68953 0.04300
H 	H 	0.89747 0.05753 0.73253 0.10000
O 	O 	0.78050 0.63997 0.09978 -0.42400
O 	O 	0.76551 0.60973 0.18662 -0.41900
C 	C 	0.75569 0.61313 0.13627 0.40600
C 	C 	0.70887 0.58166 0.12107 -0.19000
C 	C 	0.67716 0.55359 0.15767 0.13800
H 	H 	0.68513 0.55357 0.19547 0.00100
C 	C 	0.63450 0.52556 0.14247 -0.20900
H 	H 	0.61453 0.50687 0.16957 0.11800
C 	C 	0.62019 0.52437 0.08707 0.15100
C 	C 	0.65204 0.55391 0.04977 -0.20100
H 	H 	0.64433 0.55497 0.01217 0.10200
C 	C 	0.69516 0.58182 0.06767 0.12400
H 	H 	0.71553 0.60157 0.04147 0.00500
C 	C 	0.57349 0.49573 0.07057 -0.08600
C 	C 	0.55426 0.51427 0.03467 -0.03700
H 	H 	0.57143 0.54357 0.02287 0.04300
H 	H 	0.56413 0.39087 0.06587 0.09900
Cu	Cu	0.50885 0.49115 0.44886 0.90700
Cu	Cu	0.17552 0.82448 0.78219 0.90700
Cu	Cu	0.84218 0.15782 0.11553 0.90700
Cu	Cu	0.50885 0.01770 0.44886 0.90700
Cu	Cu	0.17552 0.35103 0.78219 0.90700
Cu	Cu	0.84218 0.68437 0.11553 0.90700
Cu	Cu	0.98230 0.49115 0.44886 0.90700
Cu	Cu	0.64897 0.82448 0.78219 0.90700
Cu	Cu	0.31563 0.15782 0.11553 0.90700
Cu	Cu	0.49115 0.50885 0.55114 0.90700
Cu	Cu	0.15782 0.84218 0.88447 0.90700
Cu	Cu	0.82448 0.17552 0.21781 0.90700
Cu	Cu	0.01770 0.50885 0.55114 0.90700
Cu	Cu	0.68437 0.84218 0.88447 0.90700
Cu	Cu	0.35103 0.17552 0.21781 0.90700
Cu	Cu	0.49115 0.98230 0.55114 0.90700
Cu	Cu	0.15782 0.31563 0.88447 0.90700
Cu	Cu	0.82448 0.64897 0.21781 0.90700
O 	O 	0.23326 0.46652 0.45460 -0.17100
C 	C 	0.17687 0.35374 0.34990 0.00400
C 	C 	0.21480 0.42960 0.41720 0.13100
C 	C 	0.25285 0.50570 0.42270 -0.21000
H 	H 	0.26535 0.53070 0.44800 0.10200
O 	O 	0.89993 0.79985 0.78793 -0.17100
C 	C 	0.84354 0.68707 0.68323 0.00400
C 	C 	0.88147 0.76293 0.75053 0.13100
C 	C 	0.91952 0.83903 0.75603 -0.21000
H 	H 	0.93202 0.86403 0.78133 0.10200
O 	O 	0.56659 0.13319 0.12127 -0.17100
C 	C 	0.51020 0.02041 0.01657 0.00400
C 	C 	0.54813 0.09627 0.08387 0.13100
C 	C 	0.58618 0.17237 0.08937 -0.21000
H 	H 	0.59868 0.19737 0.11467 0.10200
O 	O 	0.53348 0.76674 0.45460 -0.17100
C 	C 	0.64626 0.82313 0.34990 0.00400
C 	C 	0.57040 0.78520 0.41720 0.13100
C 	C 	0.49430 0.74715 0.42270 -0.21000
H 	H 	0.46930 0.73465 0.44800 0.10200
O 	O 	0.20015 0.10007 0.78793 -0.17100
C 	C 	0.31293 0.15646 0.68323 0.00400
C 	C 	0.23707 0.11853 0.75053 0.13100
C 	C 	0.16097 0.08048 0.75603 -0.21000
H 	H 	0.13597 0.06798 0.78133 0.10200
O 	O 	0.86681 0.43341 0.12127 -0.17100
C 	C 	0.97959 0.48980 0.01657 0.00400
C 	C 	0.90373 0.45187 0.08387 0.13100
C 	C 	0.82763 0.41382 0.08937 -0.21000
H 	H 	0.80263 0.40132 0.11467 0.10200
O 	O 	0.23326 0.76674 0.45460 -0.17100
C 	C 	0.17687 0.82313 0.34990 0.00400
C 	C 	0.21480 0.78520 0.41720 0.13100
C 	C 	0.25285 0.74715 0.42270 -0.21000
H 	H 	0.26535 0.73465 0.44800 0.10200
O 	O 	0.89993 0.10007 0.78793 -0.17100
C 	C 	0.84354 0.15646 0.68323 0.00400
C 	C 	0.88147 0.11853 0.75053 0.13000
C 	C 	0.91952 0.08048 0.75603 -0.21000
H 	H 	0.93202 0.06798 0.78133 0.10200
O 	O 	0.56659 0.43341 0.12127 -0.17100
C 	C 	0.51020 0.48980 0.01657 0.00400
C 	C 	0.54813 0.45187 0.08387 0.13100
C 	C 	0.58618 0.41382 0.08937 -0.21000
H 	H 	0.59868 0.40132 0.11467 0.10200
O 	O 	0.46652 0.23326 0.54540 -0.17100
C 	C 	0.35374 0.17687 0.65010 0.00400
C 	C 	0.42960 0.21480 0.58280 0.13100
C 	C 	0.50570 0.25285 0.57730 -0.21000
H 	H 	0.53070 0.26535 0.55200 0.10200
O 	O 	0.13319 0.56659 0.87873 -0.17100
C 	C 	0.02041 0.51020 0.98343 0.00400
C 	C 	0.09627 0.54813 0.91613 0.13100
C 	C 	0.17237 0.58618 0.91063 -0.21000
H 	H 	0.19737 0.59868 0.88533 0.10200
O 	O 	0.79985 0.89993 0.21207 -0.17100
C 	C 	0.68707 0.84354 0.31677 0.00400
C 	C 	0.76293 0.88147 0.24947 0.13100
C 	C 	0.83903 0.91952 0.24397 -0.21000
H 	H 	0.86403 0.93202 0.21867 0.10200
O 	O 	0.76674 0.53348 0.54540 -0.17100
C 	C 	0.82313 0.64626 0.65010 0.00400
C 	C 	0.78520 0.57040 0.58280 0.13100
C 	C 	0.74715 0.49430 0.57730 -0.21000
H 	H 	0.73465 0.46930 0.55200 0.10200
O 	O 	0.43341 0.86681 0.87873 -0.17100
C 	C 	0.48980 0.97959 0.98343 0.00400
C 	C 	0.45187 0.90373 0.91613 0.13100
C 	C 	0.41382 0.82763 0.91063 -0.21000
H 	H 	0.40132 0.80263 0.88533 0.10200
O 	O 	0.10007 0.20015 0.21207 -0.17100
C 	C 	0.15646 0.31293 0.31677 0.00400
C 	C 	0.11853 0.23707 0.24947 0.13100
C 	C 	0.08048 0.16097 0.24397 -0.21000
H 	H 	0.06798 0.13597 0.21867 0.10200
O 	O 	0.76674 0.23326 0.54540 -0.17100
C 	C 	0.82313 0.17687 0.65010 0.00400
C 	C 	0.78520 0.21480 0.58280 0.13100
C 	C 	0.74715 0.25285 0.57730 -0.21000
H 	H 	0.73465 0.26535 0.55200 0.10200
O 	O 	0.43341 0.56659 0.87873 -0.17100
C 	C 	0.48980 0.51020 0.98343 0.00400
C 	C 	0.45187 0.54813 0.91613 0.13100
C 	C 	0.41382 0.58618 0.91063 -0.21000
H 	H 	0.40132 0.59868 0.88533 0.10200
O 	O 	0.10007 0.89993 0.21207 -0.17100
C 	C 	0.15646 0.84354 0.31677 0.00400
C 	C 	0.11853 0.88147 0.24947 0.13000
C 	C 	0.08048 0.91952 0.24397 -0.21000
H 	H 	0.06798 0.93202 0.21867 0.10200
