data_crystal

_cell_length_a 35.29350
_cell_length_b 35.29350
_cell_length_c 20.43980
_cell_angle_alpha 90.00000
_cell_angle_beta  90.00000
_cell_angle_gamma 120.00000

_symmetry_space_group_name_	'P 1'
_symmetry_space_group_name_H-M	'P 1'

loop_
_symmetry_equiv_pos_as_xyz
  x,y,z

loop_
_atom_site_label
_atom_site_type_symbol
_atom_site_fract_x
_atom_site_fract_y
_atom_site_fract_z
_atom_site_charge
O 	O 	0.36262 0.22023 0.59113 -0.40800
O 	O 	0.38856 0.23327 0.69434 -0.40800
C 	C 	0.38775 0.24434 0.63593 0.35900
C 	C 	0.42001 0.29097 0.61721 -0.11800
C 	C 	0.44829 0.31966 0.66525 0.05000
H 	H 	0.44750 0.30970 0.70870 0.02900
C 	C 	0.47759 0.36296 0.64818 -0.13000
H 	H 	0.49710 0.38250 0.68020 0.08600
C 	C 	0.47857 0.37783 0.58537 0.09300
C 	C 	0.45058 0.34834 0.53796 -0.13500
H 	H 	0.45170 0.35790 0.49420 0.07500
C 	C 	0.42138 0.30543 0.55482 0.05600
H 	H 	0.40210 0.28580 0.52270 0.02600
C 	C 	0.50604 0.42523 0.56843 -0.05700
C 	C 	0.48747 0.44508 0.53446 -0.04700
H 	H 	0.45750 0.42810 0.52250 0.04500
H 	H 	0.61140 0.43400 0.54990 0.08300
O 	O 	0.02929 0.55356 0.92446 -0.40800
O 	O 	0.05523 0.56660 0.02767 -0.40800
C 	C 	0.05442 0.57767 0.96926 0.36000
C 	C 	0.08668 0.62430 0.95054 -0.11800
C 	C 	0.11496 0.65299 0.99858 0.05000
H 	H 	0.11417 0.64303 0.04203 0.02900
C 	C 	0.14426 0.69629 0.98151 -0.12900
H 	H 	0.16377 0.71583 0.01353 0.08500
C 	C 	0.14524 0.71116 0.91870 0.09300
C 	C 	0.11725 0.68167 0.87129 -0.13500
H 	H 	0.11837 0.69123 0.82753 0.07600
C 	C 	0.08805 0.63876 0.88815 0.05600
H 	H 	0.06877 0.61913 0.85603 0.02600
C 	C 	0.17271 0.75856 0.90176 -0.05700
C 	C 	0.15414 0.77841 0.86779 -0.04700
H 	H 	0.12417 0.76143 0.85583 0.04500
H 	H 	0.27807 0.76733 0.88323 0.08300
O 	O 	0.69595 0.88690 0.25780 -0.40800
O 	O 	0.72189 0.89994 0.36101 -0.40800
C 	C 	0.72108 0.91101 0.30260 0.35900
C 	C 	0.75334 0.95764 0.28388 -0.11700
C 	C 	0.78162 0.98633 0.33192 0.04900
H 	H 	0.78083 0.97637 0.37537 0.02900
C 	C 	0.81092 0.02963 0.31485 -0.12900
H 	H 	0.83043 0.04917 0.34687 0.08500
C 	C 	0.81190 0.04450 0.25204 0.09200
C 	C 	0.78391 0.01501 0.20463 -0.13400
H 	H 	0.78503 0.02457 0.16087 0.07600
C 	C 	0.75471 0.97210 0.22149 0.05600
H 	H 	0.73543 0.95247 0.18937 0.02700
C 	C 	0.83937 0.09190 0.23510 -0.05600
C 	C 	0.82080 0.11175 0.20113 -0.04700
H 	H 	0.79083 0.09477 0.18917 0.04600
H 	H 	0.94473 0.10067 0.21657 0.08400
O 	O 	0.77977 0.14239 0.59113 -0.40700
O 	O 	0.76673 0.15529 0.69434 -0.40700
C 	C 	0.75566 0.14341 0.63593 0.36000
C 	C 	0.70903 0.12904 0.61721 -0.11700
C 	C 	0.68034 0.12863 0.66525 0.05100
H 	H 	0.69030 0.13780 0.70870 0.03000
C 	C 	0.63704 0.11463 0.64818 -0.12900
H 	H 	0.61750 0.11460 0.68020 0.08700
C 	C 	0.62217 0.10074 0.58537 0.09400
C 	C 	0.65166 0.10224 0.53796 -0.13400
H 	H 	0.64210 0.09380 0.49420 0.07700
C 	C 	0.69457 0.11595 0.55482 0.05700
H 	H 	0.71420 0.11630 0.52270 0.02700
C 	C 	0.57477 0.08081 0.56843 -0.05600
C 	C 	0.55492 0.04239 0.53446 -0.04600
H 	H 	0.57190 0.02940 0.52250 0.04600
H 	H 	0.56600 0.17740 0.54990 0.08400
O 	O 	0.44644 0.47572 0.92446 -0.40700
O 	O 	0.43340 0.48862 0.02767 -0.40700
C 	C 	0.42233 0.47674 0.96926 0.36000
C 	C 	0.37570 0.46237 0.95054 -0.11700
C 	C 	0.34701 0.46196 0.99858 0.05100
H 	H 	0.35697 0.47113 0.04203 0.03000
C 	C 	0.30371 0.44796 0.98151 -0.12800
H 	H 	0.28417 0.44793 0.01353 0.08600
C 	C 	0.28884 0.43407 0.91870 0.09400
C 	C 	0.31833 0.43557 0.87129 -0.13400
H 	H 	0.30877 0.42713 0.82753 0.07600
C 	C 	0.36124 0.44928 0.88815 0.05700
H 	H 	0.38087 0.44963 0.85603 0.02700
C 	C 	0.24144 0.41414 0.90176 -0.05600
C 	C 	0.22159 0.37572 0.86779 -0.04600
H 	H 	0.23857 0.36273 0.85583 0.04600
H 	H 	0.23267 0.51073 0.88323 0.08400
O 	O 	0.11310 0.80906 0.25780 -0.40700
O 	O 	0.10006 0.82196 0.36101 -0.40700
C 	C 	0.08899 0.81008 0.30260 0.36000
C 	C 	0.04236 0.79571 0.28388 -0.11600
C 	C 	0.01367 0.79530 0.33192 0.05000
H 	H 	0.02363 0.80447 0.37537 0.03000
C 	C 	0.97037 0.78130 0.31485 -0.12800
H 	H 	0.95083 0.78127 0.34687 0.08600
C 	C 	0.95550 0.76741 0.25204 0.09400
C 	C 	0.98499 0.76891 0.20463 -0.13400
H 	H 	0.97543 0.76047 0.16087 0.07600
C 	C 	0.02790 0.78262 0.22149 0.05600
H 	H 	0.04753 0.78297 0.18937 0.02700
C 	C 	0.90810 0.74748 0.23510 -0.05600
C 	C 	0.88825 0.70906 0.20113 -0.04600
H 	H 	0.90523 0.69607 0.18917 0.04600
H 	H 	0.89933 0.84407 0.21657 0.08400
O 	O 	0.85761 0.63738 0.59113 -0.40700
O 	O 	0.84471 0.61144 0.69434 -0.40700
C 	C 	0.85659 0.61225 0.63593 0.36000
C 	C 	0.87096 0.57999 0.61721 -0.11700
C 	C 	0.87137 0.55171 0.66525 0.05100
H 	H 	0.86220 0.55250 0.70870 0.03000
C 	C 	0.88537 0.52241 0.64818 -0.12900
H 	H 	0.88540 0.50290 0.68020 0.08700
C 	C 	0.89926 0.52143 0.58537 0.09400
C 	C 	0.89776 0.54942 0.53796 -0.13400
H 	H 	0.90620 0.54830 0.49420 0.07700
C 	C 	0.88405 0.57862 0.55482 0.05700
H 	H 	0.88370 0.59790 0.52270 0.02700
C 	C 	0.91919 0.49396 0.56843 -0.05600
C 	C 	0.95761 0.51253 0.53446 -0.04600
H 	H 	0.97060 0.54250 0.52250 0.04600
H 	H 	0.82260 0.38860 0.54990 0.08400
O 	O 	0.52428 0.97071 0.92446 -0.40700
O 	O 	0.51138 0.94477 0.02767 -0.40700
C 	C 	0.52326 0.94558 0.96926 0.36100
C 	C 	0.53763 0.91332 0.95054 -0.11700
C 	C 	0.53804 0.88504 0.99858 0.05100
H 	H 	0.52887 0.88583 0.04203 0.03000
C 	C 	0.55204 0.85574 0.98151 -0.12800
H 	H 	0.55207 0.83623 0.01353 0.08600
C 	C 	0.56593 0.85476 0.91870 0.09400
C 	C 	0.56443 0.88275 0.87129 -0.13400
H 	H 	0.57287 0.88163 0.82753 0.07700
C 	C 	0.55072 0.91195 0.88815 0.05700
H 	H 	0.55037 0.93123 0.85603 0.02700
C 	C 	0.58586 0.82729 0.90176 -0.05600
C 	C 	0.62428 0.84586 0.86779 -0.04600
H 	H 	0.63727 0.87583 0.85583 0.04600
H 	H 	0.48927 0.72193 0.88323 0.08400
O 	O 	0.19094 0.30405 0.25780 -0.40700
O 	O 	0.17804 0.27811 0.36101 -0.40700
C 	C 	0.18992 0.27892 0.30260 0.36000
C 	C 	0.20429 0.24666 0.28388 -0.11700
C 	C 	0.20470 0.21838 0.33192 0.05100
H 	H 	0.19553 0.21917 0.37537 0.03000
C 	C 	0.21870 0.18908 0.31485 -0.12900
H 	H 	0.21873 0.16957 0.34687 0.08700
C 	C 	0.23259 0.18810 0.25204 0.09400
C 	C 	0.23109 0.21609 0.20463 -0.13400
H 	H 	0.23953 0.21497 0.16087 0.07600
C 	C 	0.21738 0.24529 0.22149 0.05700
H 	H 	0.21703 0.26457 0.18937 0.02700
C 	C 	0.25252 0.16063 0.23510 -0.05600
C 	C 	0.29094 0.17920 0.20113 -0.04600
H 	H 	0.30393 0.20917 0.18917 0.04600
H 	H 	0.15593 0.05527 0.21657 0.08400
O 	O 	0.22023 0.36262 0.40887 -0.40700
O 	O 	0.23327 0.38856 0.30566 -0.40700
C 	C 	0.24434 0.38775 0.36407 0.36000
C 	C 	0.29097 0.42001 0.38279 -0.11700
C 	C 	0.31966 0.44829 0.33475 0.05100
H 	H 	0.30970 0.44750 0.29130 0.03000
C 	C 	0.36296 0.47759 0.35182 -0.12900
H 	H 	0.38250 0.49710 0.31980 0.08700
C 	C 	0.37783 0.47857 0.41463 0.09400
C 	C 	0.34834 0.45058 0.46204 -0.13400
H 	H 	0.35790 0.45170 0.50580 0.07600
C 	C 	0.30543 0.42138 0.44518 0.05700
H 	H 	0.28580 0.40210 0.47730 0.02700
C 	C 	0.42523 0.50604 0.43157 -0.05600
C 	C 	0.44508 0.48747 0.46554 -0.04600
H 	H 	0.42810 0.45750 0.47750 0.04600
H 	H 	0.43400 0.61140 0.45010 0.08400
O 	O 	0.88690 0.69595 0.74220 -0.40700
O 	O 	0.89994 0.72189 0.63899 -0.40700
C 	C 	0.91101 0.72108 0.69740 0.36000
C 	C 	0.95764 0.75334 0.71612 -0.11600
C 	C 	0.98633 0.78162 0.66808 0.05000
H 	H 	0.97637 0.78083 0.62463 0.03000
C 	C 	0.02963 0.81092 0.68515 -0.12800
H 	H 	0.04917 0.83043 0.65313 0.08600
C 	C 	0.04450 0.81190 0.74796 0.09300
C 	C 	0.01501 0.78391 0.79537 -0.13400
H 	H 	0.02457 0.78503 0.83913 0.07600
C 	C 	0.97210 0.75471 0.77851 0.05600
H 	H 	0.95247 0.73543 0.81063 0.02700
C 	C 	0.09190 0.83937 0.76490 -0.05600
C 	C 	0.11175 0.82080 0.79887 -0.04700
H 	H 	0.09477 0.79083 0.81083 0.04600
H 	H 	0.10067 0.94473 0.78343 0.08400
O 	O 	0.55356 0.02929 0.07554 -0.40700
O 	O 	0.56660 0.05523 0.97233 -0.40700
C 	C 	0.57767 0.05442 0.03074 0.36100
C 	C 	0.62430 0.08668 0.04946 -0.11700
C 	C 	0.65299 0.11496 0.00142 0.05100
H 	H 	0.64303 0.11417 0.95797 0.03000
C 	C 	0.69629 0.14426 0.01849 -0.12800
H 	H 	0.71583 0.16377 0.98647 0.08600
C 	C 	0.71116 0.14524 0.08130 0.09400
C 	C 	0.68167 0.11725 0.12871 -0.13400
H 	H 	0.69123 0.11837 0.17247 0.07700
C 	C 	0.63876 0.08805 0.11185 0.05700
H 	H 	0.61913 0.06877 0.14397 0.02700
C 	C 	0.75856 0.17271 0.09824 -0.05600
C 	C 	0.77841 0.15414 0.13221 -0.04600
H 	H 	0.76143 0.12417 0.14417 0.04600
H 	H 	0.76733 0.27807 0.11677 0.08400
O 	O 	0.14239 0.77977 0.40887 -0.40700
O 	O 	0.15529 0.76673 0.30566 -0.40700
C 	C 	0.14341 0.75566 0.36407 0.36000
C 	C 	0.12904 0.70903 0.38279 -0.11700
C 	C 	0.12863 0.68034 0.33475 0.05100
H 	H 	0.13780 0.69030 0.29130 0.03000
C 	C 	0.11463 0.63704 0.35182 -0.12900
H 	H 	0.11460 0.61750 0.31980 0.08700
C 	C 	0.10074 0.62217 0.41463 0.09400
C 	C 	0.10224 0.65166 0.46204 -0.13400
H 	H 	0.09380 0.64210 0.50580 0.07700
C 	C 	0.11595 0.69457 0.44518 0.05700
H 	H 	0.11630 0.71420 0.47730 0.02700
C 	C 	0.08081 0.57477 0.43157 -0.05600
C 	C 	0.04239 0.55492 0.46554 -0.04600
H 	H 	0.02940 0.57190 0.47750 0.04600
H 	H 	0.17740 0.56600 0.45010 0.08400
O 	O 	0.80906 0.11310 0.74220 -0.40700
O 	O 	0.82196 0.10006 0.63899 -0.40700
C 	C 	0.81008 0.08899 0.69740 0.36000
C 	C 	0.79571 0.04236 0.71612 -0.11600
C 	C 	0.79530 0.01367 0.66808 0.05000
H 	H 	0.80447 0.02363 0.62463 0.03000
C 	C 	0.78130 0.97037 0.68515 -0.12800
H 	H 	0.78127 0.95083 0.65313 0.08600
C 	C 	0.76741 0.95550 0.74796 0.09300
C 	C 	0.76891 0.98499 0.79537 -0.13400
H 	H 	0.76047 0.97543 0.83913 0.07600
C 	C 	0.78262 0.02790 0.77851 0.05600
H 	H 	0.78297 0.04753 0.81063 0.02700
C 	C 	0.74748 0.90810 0.76490 -0.05600
C 	C 	0.70906 0.88825 0.79887 -0.04600
H 	H 	0.69607 0.90523 0.81083 0.04600
H 	H 	0.84407 0.89933 0.78343 0.08400
O 	O 	0.47572 0.44644 0.07554 -0.40700
O 	O 	0.48862 0.43340 0.97233 -0.40700
C 	C 	0.47674 0.42233 0.03074 0.36000
C 	C 	0.46237 0.37570 0.04946 -0.11700
C 	C 	0.46196 0.34701 0.00142 0.05100
H 	H 	0.47113 0.35697 0.95797 0.03000
C 	C 	0.44796 0.30371 0.01849 -0.12800
H 	H 	0.44793 0.28417 0.98647 0.08600
C 	C 	0.43407 0.28884 0.08130 0.09400
C 	C 	0.43557 0.31833 0.12871 -0.13400
H 	H 	0.42713 0.30877 0.17247 0.07600
C 	C 	0.44928 0.36124 0.11185 0.05700
H 	H 	0.44963 0.38087 0.14397 0.02700
C 	C 	0.41414 0.24144 0.09824 -0.05600
C 	C 	0.37572 0.22159 0.13221 -0.04600
H 	H 	0.36273 0.23857 0.14417 0.04600
H 	H 	0.51073 0.23267 0.11677 0.08400
O 	O 	0.63738 0.85761 0.40887 -0.40700
O 	O 	0.61144 0.84471 0.30566 -0.40700
C 	C 	0.61225 0.85659 0.36407 0.36000
C 	C 	0.57999 0.87096 0.38279 -0.11700
C 	C 	0.55171 0.87137 0.33475 0.05100
H 	H 	0.55250 0.86220 0.29130 0.03000
C 	C 	0.52241 0.88537 0.35182 -0.12900
H 	H 	0.50290 0.88540 0.31980 0.08700
C 	C 	0.52143 0.89926 0.41463 0.09400
C 	C 	0.54942 0.89776 0.46204 -0.13400
H 	H 	0.54830 0.90620 0.50580 0.07700
C 	C 	0.57862 0.88405 0.44518 0.05700
H 	H 	0.59790 0.88370 0.47730 0.02700
C 	C 	0.49396 0.91919 0.43157 -0.05600
C 	C 	0.51253 0.95761 0.46554 -0.04600
H 	H 	0.54250 0.97060 0.47750 0.04600
H 	H 	0.38860 0.82260 0.45010 0.08400
O 	O 	0.30405 0.19094 0.74220 -0.40700
O 	O 	0.27811 0.17804 0.63899 -0.40700
C 	C 	0.27892 0.18992 0.69740 0.36000
C 	C 	0.24666 0.20429 0.71612 -0.11700
C 	C 	0.21838 0.20470 0.66808 0.05100
H 	H 	0.21917 0.19553 0.62463 0.03000
C 	C 	0.18908 0.21870 0.68515 -0.12900
H 	H 	0.16957 0.21873 0.65313 0.08700
C 	C 	0.18810 0.23259 0.74796 0.09400
C 	C 	0.21609 0.23109 0.79537 -0.13400
H 	H 	0.21497 0.23953 0.83913 0.07600
C 	C 	0.24529 0.21738 0.77851 0.05700
H 	H 	0.26457 0.21703 0.81063 0.02700
C 	C 	0.16063 0.25252 0.76490 -0.05600
C 	C 	0.17920 0.29094 0.79887 -0.04600
H 	H 	0.20917 0.30393 0.81083 0.04600
H 	H 	0.05527 0.15593 0.78343 0.08400
O 	O 	0.97071 0.52428 0.07554 -0.40700
O 	O 	0.94477 0.51138 0.97233 -0.40700
C 	C 	0.94558 0.52326 0.03074 0.36100
C 	C 	0.91332 0.53763 0.04946 -0.11700
C 	C 	0.88504 0.53804 0.00142 0.05100
H 	H 	0.88583 0.52887 0.95797 0.03000
C 	C 	0.85574 0.55204 0.01849 -0.12800
H 	H 	0.83623 0.55207 0.98647 0.08600
C 	C 	0.85476 0.56593 0.08130 0.09400
C 	C 	0.88275 0.56443 0.12871 -0.13400
H 	H 	0.88163 0.57287 0.17247 0.07700
C 	C 	0.91195 0.55072 0.11185 0.05700
H 	H 	0.93123 0.55037 0.14397 0.02700
C 	C 	0.82729 0.58586 0.09824 -0.05600
C 	C 	0.84586 0.62428 0.13221 -0.04600
H 	H 	0.87583 0.63727 0.14417 0.04600
H 	H 	0.72193 0.48927 0.11677 0.08400
O 	O 	0.63738 0.77977 0.40887 -0.40700
O 	O 	0.61144 0.76673 0.30566 -0.40700
C 	C 	0.61225 0.75566 0.36407 0.36000
C 	C 	0.57999 0.70903 0.38279 -0.11700
C 	C 	0.55171 0.68034 0.33475 0.05100
H 	H 	0.55250 0.69030 0.29130 0.03000
C 	C 	0.52241 0.63704 0.35182 -0.12900
H 	H 	0.50290 0.61750 0.31980 0.08700
C 	C 	0.52143 0.62217 0.41463 0.09400
C 	C 	0.54942 0.65166 0.46204 -0.13400
H 	H 	0.54830 0.64210 0.50580 0.07600
C 	C 	0.57862 0.69457 0.44518 0.05700
H 	H 	0.59790 0.71420 0.47730 0.02700
C 	C 	0.49396 0.57477 0.43157 -0.05600
C 	C 	0.51253 0.55492 0.46554 -0.04600
H 	H 	0.54250 0.57190 0.47750 0.04600
H 	H 	0.38860 0.56600 0.45010 0.08400
O 	O 	0.30405 0.11310 0.74220 -0.40700
O 	O 	0.27811 0.10006 0.63899 -0.40700
C 	C 	0.27892 0.08899 0.69740 0.36000
C 	C 	0.24666 0.04236 0.71612 -0.11600
C 	C 	0.21838 0.01367 0.66808 0.05000
H 	H 	0.21917 0.02363 0.62463 0.03000
C 	C 	0.18908 0.97037 0.68515 -0.12800
H 	H 	0.16957 0.95083 0.65313 0.08600
C 	C 	0.18810 0.95550 0.74796 0.09300
C 	C 	0.21609 0.98499 0.79537 -0.13400
H 	H 	0.21497 0.97543 0.83913 0.07600
C 	C 	0.24529 0.02790 0.77851 0.05600
H 	H 	0.26457 0.04753 0.81063 0.02700
C 	C 	0.16063 0.90810 0.76490 -0.05600
C 	C 	0.17920 0.88825 0.79887 -0.04700
H 	H 	0.20917 0.90523 0.81083 0.04600
H 	H 	0.05527 0.89933 0.78343 0.08400
O 	O 	0.97071 0.44644 0.07554 -0.40700
O 	O 	0.94477 0.43340 0.97233 -0.40700
C 	C 	0.94558 0.42233 0.03074 0.36100
C 	C 	0.91332 0.37570 0.04946 -0.11700
C 	C 	0.88504 0.34701 0.00142 0.05100
H 	H 	0.88583 0.35697 0.95797 0.03000
C 	C 	0.85574 0.30371 0.01849 -0.12800
H 	H 	0.83623 0.28417 0.98647 0.08600
C 	C 	0.85476 0.28884 0.08130 0.09400
C 	C 	0.88275 0.31833 0.12871 -0.13400
H 	H 	0.88163 0.30877 0.17247 0.07700
C 	C 	0.91195 0.36124 0.11185 0.05700
H 	H 	0.93123 0.38087 0.14397 0.02700
C 	C 	0.82729 0.24144 0.09824 -0.05600
C 	C 	0.84586 0.22159 0.13221 -0.04600
H 	H 	0.87583 0.23857 0.14417 0.04600
H 	H 	0.72193 0.23267 0.11677 0.08400
O 	O 	0.22023 0.85761 0.40887 -0.40700
O 	O 	0.23327 0.84471 0.30566 -0.40700
C 	C 	0.24434 0.85659 0.36407 0.36000
C 	C 	0.29097 0.87096 0.38279 -0.11700
C 	C 	0.31966 0.87137 0.33475 0.05100
H 	H 	0.30970 0.86220 0.29130 0.03000
C 	C 	0.36296 0.88537 0.35182 -0.12900
H 	H 	0.38250 0.88540 0.31980 0.08700
C 	C 	0.37783 0.89926 0.41463 0.09400
C 	C 	0.34834 0.89776 0.46204 -0.13400
H 	H 	0.35790 0.90620 0.50580 0.07700
C 	C 	0.30543 0.88405 0.44518 0.05700
H 	H 	0.28580 0.88370 0.47730 0.02700
C 	C 	0.42523 0.91919 0.43157 -0.05600
C 	C 	0.44508 0.95761 0.46554 -0.04600
H 	H 	0.42810 0.97060 0.47750 0.04600
H 	H 	0.43400 0.82260 0.45010 0.08400
O 	O 	0.88690 0.19094 0.74220 -0.40700
O 	O 	0.89994 0.17804 0.63899 -0.40700
C 	C 	0.91101 0.18992 0.69740 0.36000
C 	C 	0.95764 0.20429 0.71612 -0.11600
C 	C 	0.98633 0.20470 0.66808 0.05000
H 	H 	0.97637 0.19553 0.62463 0.03000
C 	C 	0.02963 0.21870 0.68515 -0.12800
H 	H 	0.04917 0.21873 0.65313 0.08600
C 	C 	0.04450 0.23259 0.74796 0.09400
C 	C 	0.01501 0.23109 0.79537 -0.13400
H 	H 	0.02457 0.23953 0.83913 0.07600
C 	C 	0.97210 0.21738 0.77851 0.05600
H 	H 	0.95247 0.21703 0.81063 0.02700
C 	C 	0.09190 0.25252 0.76490 -0.05600
C 	C 	0.11175 0.29094 0.79887 -0.04600
H 	H 	0.09477 0.30393 0.81083 0.04600
H 	H 	0.10067 0.15593 0.78343 0.08400
O 	O 	0.55356 0.52428 0.07554 -0.40700
O 	O 	0.56660 0.51138 0.97233 -0.40700
C 	C 	0.57767 0.52326 0.03074 0.36000
C 	C 	0.62430 0.53763 0.04946 -0.11700
C 	C 	0.65299 0.53804 0.00142 0.05100
H 	H 	0.64303 0.52887 0.95797 0.03000
C 	C 	0.69629 0.55204 0.01849 -0.12800
H 	H 	0.71583 0.55207 0.98647 0.08600
C 	C 	0.71116 0.56593 0.08130 0.09400
C 	C 	0.68167 0.56443 0.12871 -0.13400
H 	H 	0.69123 0.57287 0.17247 0.07600
C 	C 	0.63876 0.55072 0.11185 0.05700
H 	H 	0.61913 0.55037 0.14397 0.02700
C 	C 	0.75856 0.58586 0.09824 -0.05600
C 	C 	0.77841 0.62428 0.13221 -0.04600
H 	H 	0.76143 0.63727 0.14417 0.04600
H 	H 	0.76733 0.48927 0.11677 0.08400
O 	O 	0.14239 0.36262 0.40887 -0.40700
O 	O 	0.15529 0.38856 0.30566 -0.40700
C 	C 	0.14341 0.38775 0.36407 0.36000
C 	C 	0.12904 0.42001 0.38279 -0.11700
C 	C 	0.12863 0.44829 0.33475 0.05100
H 	H 	0.13780 0.44750 0.29130 0.03000
C 	C 	0.11463 0.47759 0.35182 -0.12900
H 	H 	0.11460 0.49710 0.31980 0.08700
C 	C 	0.10074 0.47857 0.41463 0.09400
C 	C 	0.10224 0.45058 0.46204 -0.13400
H 	H 	0.09380 0.45170 0.50580 0.07700
C 	C 	0.11595 0.42138 0.44518 0.05700
H 	H 	0.11630 0.40210 0.47730 0.02700
C 	C 	0.08081 0.50604 0.43157 -0.05600
C 	C 	0.04239 0.48747 0.46554 -0.04600
H 	H 	0.02940 0.45750 0.47750 0.04600
H 	H 	0.17740 0.61140 0.45010 0.08400
O 	O 	0.80906 0.69595 0.74220 -0.40700
O 	O 	0.82196 0.72189 0.63899 -0.40700
C 	C 	0.81008 0.72108 0.69740 0.36000
C 	C 	0.79571 0.75334 0.71612 -0.11700
C 	C 	0.79530 0.78162 0.66808 0.05100
H 	H 	0.80447 0.78083 0.62463 0.03000
C 	C 	0.78130 0.81092 0.68515 -0.12900
H 	H 	0.78127 0.83043 0.65313 0.08700
C 	C 	0.76741 0.81190 0.74796 0.09400
C 	C 	0.76891 0.78391 0.79537 -0.13400
H 	H 	0.76047 0.78503 0.83913 0.07600
C 	C 	0.78262 0.75471 0.77851 0.05700
H 	H 	0.78297 0.73543 0.81063 0.02700
C 	C 	0.74748 0.83937 0.76490 -0.05600
C 	C 	0.70906 0.82080 0.79887 -0.04600
H 	H 	0.69607 0.79083 0.81083 0.04600
H 	H 	0.84407 0.94473 0.78343 0.08400
O 	O 	0.47572 0.02929 0.07554 -0.40700
O 	O 	0.48862 0.05523 0.97233 -0.40700
C 	C 	0.47674 0.05442 0.03074 0.36100
C 	C 	0.46237 0.08668 0.04946 -0.11700
C 	C 	0.46196 0.11496 0.00142 0.05100
H 	H 	0.47113 0.11417 0.95797 0.03000
C 	C 	0.44796 0.14426 0.01849 -0.12800
H 	H 	0.44793 0.16377 0.98647 0.08600
C 	C 	0.43407 0.14524 0.08130 0.09400
C 	C 	0.43557 0.11725 0.12871 -0.13400
H 	H 	0.42713 0.11837 0.17247 0.07700
C 	C 	0.44928 0.08805 0.11185 0.05700
H 	H 	0.44963 0.06877 0.14397 0.02700
C 	C 	0.41414 0.17271 0.09824 -0.05600
C 	C 	0.37572 0.15414 0.13221 -0.04600
H 	H 	0.36273 0.12417 0.14417 0.04600
H 	H 	0.51073 0.27807 0.11677 0.08400
O 	O 	0.77977 0.63738 0.59113 -0.40700
O 	O 	0.76673 0.61144 0.69434 -0.40700
C 	C 	0.75566 0.61225 0.63593 0.36000
C 	C 	0.70903 0.57999 0.61721 -0.11700
C 	C 	0.68034 0.55171 0.66525 0.05100
H 	H 	0.69030 0.55250 0.70870 0.03000
C 	C 	0.63704 0.52241 0.64818 -0.12900
H 	H 	0.61750 0.50290 0.68020 0.08700
C 	C 	0.62217 0.52143 0.58537 0.09400
C 	C 	0.65166 0.54942 0.53796 -0.13400
H 	H 	0.64210 0.54830 0.49420 0.07600
C 	C 	0.69457 0.57862 0.55482 0.05700
H 	H 	0.71420 0.59790 0.52270 0.02700
C 	C 	0.57477 0.49396 0.56843 -0.05600
C 	C 	0.55492 0.51253 0.53446 -0.04600
H 	H 	0.57190 0.54250 0.52250 0.04600
H 	H 	0.56600 0.38860 0.54990 0.08400
O 	O 	0.44644 0.97071 0.92446 -0.40700
O 	O 	0.43340 0.94477 0.02767 -0.40700
C 	C 	0.42233 0.94558 0.96926 0.36100
C 	C 	0.37570 0.91332 0.95054 -0.11700
C 	C 	0.34701 0.88504 0.99858 0.05100
H 	H 	0.35697 0.88583 0.04203 0.03000
C 	C 	0.30371 0.85574 0.98151 -0.12800
H 	H 	0.28417 0.83623 0.01353 0.08600
C 	C 	0.28884 0.85476 0.91870 0.09400
C 	C 	0.31833 0.88275 0.87129 -0.13400
H 	H 	0.30877 0.88163 0.82753 0.07700
C 	C 	0.36124 0.91195 0.88815 0.05700
H 	H 	0.38087 0.93123 0.85603 0.02700
C 	C 	0.24144 0.82729 0.90176 -0.05600
C 	C 	0.22159 0.84586 0.86779 -0.04600
H 	H 	0.23857 0.87583 0.85583 0.04600
H 	H 	0.23267 0.72193 0.88323 0.08400
O 	O 	0.11310 0.30405 0.25780 -0.40700
O 	O 	0.10006 0.27811 0.36101 -0.40700
C 	C 	0.08899 0.27892 0.30260 0.36000
C 	C 	0.04236 0.24666 0.28388 -0.11600
C 	C 	0.01367 0.21838 0.33192 0.05000
H 	H 	0.02363 0.21917 0.37537 0.03000
C 	C 	0.97037 0.18908 0.31485 -0.12800
H 	H 	0.95083 0.16957 0.34687 0.08600
C 	C 	0.95550 0.18810 0.25204 0.09300
C 	C 	0.98499 0.21609 0.20463 -0.13400
H 	H 	0.97543 0.21497 0.16087 0.07600
C 	C 	0.02790 0.24529 0.22149 0.05600
H 	H 	0.04753 0.26457 0.18937 0.02700
C 	C 	0.90810 0.16063 0.23510 -0.05600
C 	C 	0.88825 0.17920 0.20113 -0.04700
H 	H 	0.90523 0.20917 0.18917 0.04600
H 	H 	0.89933 0.05527 0.21657 0.08400
O 	O 	0.85761 0.22023 0.59113 -0.40700
O 	O 	0.84471 0.23327 0.69434 -0.40700
C 	C 	0.85659 0.24434 0.63593 0.36000
C 	C 	0.87096 0.29097 0.61721 -0.11700
C 	C 	0.87137 0.31966 0.66525 0.05100
H 	H 	0.86220 0.30970 0.70870 0.03000
C 	C 	0.88537 0.36296 0.64818 -0.12900
H 	H 	0.88540 0.38250 0.68020 0.08700
C 	C 	0.89926 0.37783 0.58537 0.09400
C 	C 	0.89776 0.34834 0.53796 -0.13400
H 	H 	0.90620 0.35790 0.49420 0.07700
C 	C 	0.88405 0.30543 0.55482 0.05700
H 	H 	0.88370 0.28580 0.52270 0.02700
C 	C 	0.91919 0.42523 0.56843 -0.05600
C 	C 	0.95761 0.44508 0.53446 -0.04600
H 	H 	0.97060 0.42810 0.52250 0.04600
H 	H 	0.82260 0.43400 0.54990 0.08400
O 	O 	0.52428 0.55356 0.92446 -0.40700
O 	O 	0.51138 0.56660 0.02767 -0.40700
C 	C 	0.52326 0.57767 0.96926 0.36000
C 	C 	0.53763 0.62430 0.95054 -0.11700
C 	C 	0.53804 0.65299 0.99858 0.05100
H 	H 	0.52887 0.64303 0.04203 0.03000
C 	C 	0.55204 0.69629 0.98151 -0.12800
H 	H 	0.55207 0.71583 0.01353 0.08600
C 	C 	0.56593 0.71116 0.91870 0.09400
C 	C 	0.56443 0.68167 0.87129 -0.13400
H 	H 	0.57287 0.69123 0.82753 0.07600
C 	C 	0.55072 0.63876 0.88815 0.05700
H 	H 	0.55037 0.61913 0.85603 0.02700
C 	C 	0.58586 0.75856 0.90176 -0.05600
C 	C 	0.62428 0.77841 0.86779 -0.04600
H 	H 	0.63727 0.76143 0.85583 0.04600
H 	H 	0.48927 0.76733 0.88323 0.08400
O 	O 	0.19094 0.88690 0.25780 -0.40700
O 	O 	0.17804 0.89994 0.36101 -0.40700
C 	C 	0.18992 0.91101 0.30260 0.36000
C 	C 	0.20429 0.95764 0.28388 -0.11600
C 	C 	0.20470 0.98633 0.33192 0.05000
H 	H 	0.19553 0.97637 0.37537 0.03000
C 	C 	0.21870 0.02963 0.31485 -0.12800
H 	H 	0.21873 0.04917 0.34687 0.08600
C 	C 	0.23259 0.04450 0.25204 0.09400
C 	C 	0.23109 0.01501 0.20463 -0.13400
H 	H 	0.23953 0.02457 0.16087 0.07600
C 	C 	0.21738 0.97210 0.22149 0.05600
H 	H 	0.21703 0.95247 0.18937 0.02700
C 	C 	0.25252 0.09190 0.23510 -0.05600
C 	C 	0.29094 0.11175 0.20113 -0.04600
H 	H 	0.30393 0.09477 0.18917 0.04600
H 	H 	0.15593 0.10067 0.21657 0.08400
O 	O 	0.36262 0.14239 0.59113 -0.40700
O 	O 	0.38856 0.15529 0.69434 -0.40700
C 	C 	0.38775 0.14341 0.63593 0.36000
C 	C 	0.42001 0.12904 0.61721 -0.11700
C 	C 	0.44829 0.12863 0.66525 0.05100
H 	H 	0.44750 0.13780 0.70870 0.03000
C 	C 	0.47759 0.11463 0.64818 -0.12900
H 	H 	0.49710 0.11460 0.68020 0.08700
C 	C 	0.47857 0.10074 0.58537 0.09400
C 	C 	0.45058 0.10224 0.53796 -0.13400
H 	H 	0.45170 0.09380 0.49420 0.07700
C 	C 	0.42138 0.11595 0.55482 0.05700
H 	H 	0.40210 0.11630 0.52270 0.02700
C 	C 	0.50604 0.08081 0.56843 -0.05600
C 	C 	0.48747 0.04239 0.53446 -0.04600
H 	H 	0.45750 0.02940 0.52250 0.04600
H 	H 	0.61140 0.17740 0.54990 0.08400
O 	O 	0.02929 0.47572 0.92446 -0.40700
O 	O 	0.05523 0.48862 0.02767 -0.40700
C 	C 	0.05442 0.47674 0.96926 0.36100
C 	C 	0.08668 0.46237 0.95054 -0.11700
C 	C 	0.11496 0.46196 0.99858 0.05100
H 	H 	0.11417 0.47113 0.04203 0.03000
C 	C 	0.14426 0.44796 0.98151 -0.12800
H 	H 	0.16377 0.44793 0.01353 0.08600
C 	C 	0.14524 0.43407 0.91870 0.09400
C 	C 	0.11725 0.43557 0.87129 -0.13400
H 	H 	0.11837 0.42713 0.82753 0.07700
C 	C 	0.08805 0.44928 0.88815 0.05700
H 	H 	0.06877 0.44963 0.85603 0.02700
C 	C 	0.17271 0.41414 0.90176 -0.05600
C 	C 	0.15414 0.37572 0.86779 -0.04600
H 	H 	0.12417 0.36273 0.85583 0.04600
H 	H 	0.27807 0.51073 0.88323 0.08400
O 	O 	0.69595 0.80906 0.25780 -0.40700
O 	O 	0.72189 0.82196 0.36101 -0.40700
C 	C 	0.72108 0.81008 0.30260 0.36000
C 	C 	0.75334 0.79571 0.28388 -0.11700
C 	C 	0.78162 0.79530 0.33192 0.05100
H 	H 	0.78083 0.80447 0.37537 0.03000
C 	C 	0.81092 0.78130 0.31485 -0.12900
H 	H 	0.83043 0.78127 0.34687 0.08700
C 	C 	0.81190 0.76741 0.25204 0.09400
C 	C 	0.78391 0.76891 0.20463 -0.13400
H 	H 	0.78503 0.76047 0.16087 0.07600
C 	C 	0.75471 0.78262 0.22149 0.05700
H 	H 	0.73543 0.78297 0.18937 0.02700
C 	C 	0.83937 0.74748 0.23510 -0.05600
C 	C 	0.82080 0.70906 0.20113 -0.04600
H 	H 	0.79083 0.69607 0.18917 0.04600
H 	H 	0.94473 0.84407 0.21657 0.08400
Cu	Cu	0.31811 0.15905 0.60622 0.90400
Cu	Cu	0.98478 0.49239 0.93955 0.90400
Cu	Cu	0.65144 0.82572 0.27289 0.90400
Cu	Cu	0.84095 0.15906 0.60622 0.90400
Cu	Cu	0.50761 0.49239 0.93955 0.90400
Cu	Cu	0.17428 0.82572 0.27289 0.90400
Cu	Cu	0.84095 0.68189 0.60622 0.90400
Cu	Cu	0.50761 0.01522 0.93955 0.90400
Cu	Cu	0.17428 0.34856 0.27289 0.90400
Cu	Cu	0.15905 0.31811 0.39378 0.90400
Cu	Cu	0.82572 0.65144 0.72711 0.90400
Cu	Cu	0.49239 0.98478 0.06045 0.90400
Cu	Cu	0.15905 0.84095 0.39378 0.90400
Cu	Cu	0.82572 0.17428 0.72711 0.90400
Cu	Cu	0.49239 0.50761 0.06045 0.90400
Cu	Cu	0.68189 0.84095 0.39378 0.90400
Cu	Cu	0.34856 0.17428 0.72711 0.90400
Cu	Cu	0.01522 0.50761 0.06045 0.90400
O 	O 	0.56988 0.43012 0.61995 -0.17900
C 	C 	0.51049 0.48951 0.51620 0.00800
C 	C 	0.55045 0.44955 0.58601 0.11500
C 	C 	0.58893 0.41107 0.57750 -0.16500
H 	H 	0.60220 0.39780 0.60430 0.08700
O 	O 	0.23655 0.76345 0.95328 -0.17900
C 	C 	0.17716 0.82284 0.84953 0.00800
C 	C 	0.21712 0.78288 0.91934 0.11500
C 	C 	0.25560 0.74440 0.91083 -0.16500
H 	H 	0.26887 0.73113 0.93763 0.08700
O 	O 	0.90321 0.09679 0.28662 -0.17900
C 	C 	0.84382 0.15618 0.18287 0.00800
C 	C 	0.88378 0.11622 0.25268 0.11500
C 	C 	0.92226 0.07774 0.24417 -0.16500
H 	H 	0.93553 0.06447 0.27097 0.08700
O 	O 	0.56988 0.13976 0.61995 -0.17900
C 	C 	0.51049 0.02098 0.51620 0.00800
C 	C 	0.55045 0.10090 0.58601 0.11500
C 	C 	0.58893 0.17786 0.57750 -0.16500
H 	H 	0.60220 0.20440 0.60430 0.08700
O 	O 	0.23655 0.47309 0.95328 -0.17900
C 	C 	0.17716 0.35431 0.84953 0.00800
C 	C 	0.21712 0.43423 0.91934 0.11500
C 	C 	0.25560 0.51119 0.91083 -0.16500
H 	H 	0.26887 0.53773 0.93763 0.08700
O 	O 	0.90321 0.80643 0.28662 -0.17900
C 	C 	0.84382 0.68765 0.18287 0.00800
C 	C 	0.88378 0.76757 0.25268 0.11500
C 	C 	0.92226 0.84453 0.24417 -0.16500
H 	H 	0.93553 0.87107 0.27097 0.08700
O 	O 	0.86024 0.43012 0.61995 -0.17900
C 	C 	0.97902 0.48951 0.51620 0.00800
C 	C 	0.89910 0.44955 0.58601 0.11500
C 	C 	0.82214 0.41107 0.57750 -0.16500
H 	H 	0.79560 0.39780 0.60430 0.08700
O 	O 	0.52691 0.76345 0.95328 -0.17900
C 	C 	0.64569 0.82284 0.84953 0.00800
C 	C 	0.56577 0.78288 0.91934 0.11500
C 	C 	0.48881 0.74440 0.91083 -0.16500
H 	H 	0.46227 0.73113 0.93763 0.08700
O 	O 	0.19357 0.09679 0.28662 -0.17900
C 	C 	0.31235 0.15618 0.18287 0.00800
C 	C 	0.23243 0.11622 0.25268 0.11500
C 	C 	0.15547 0.07774 0.24417 -0.16500
H 	H 	0.12893 0.06447 0.27097 0.08700
O 	O 	0.43012 0.56988 0.38005 -0.17900
C 	C 	0.48951 0.51049 0.48380 0.00800
C 	C 	0.44955 0.55045 0.41399 0.11500
C 	C 	0.41107 0.58893 0.42250 -0.16500
H 	H 	0.39780 0.60220 0.39570 0.08700
O 	O 	0.09679 0.90321 0.71338 -0.17900
C 	C 	0.15618 0.84382 0.81713 0.00800
C 	C 	0.11622 0.88378 0.74732 0.11500
C 	C 	0.07774 0.92226 0.75583 -0.16500
H 	H 	0.06447 0.93553 0.72903 0.08700
O 	O 	0.76345 0.23655 0.04672 -0.17900
C 	C 	0.82284 0.17716 0.15047 0.00800
C 	C 	0.78288 0.21712 0.08066 0.11500
C 	C 	0.74440 0.25560 0.08917 -0.16500
H 	H 	0.73113 0.26887 0.06237 0.08700
O 	O 	0.13976 0.56988 0.38005 -0.17900
C 	C 	0.02098 0.51049 0.48380 0.00800
C 	C 	0.10090 0.55045 0.41399 0.11500
C 	C 	0.17786 0.58893 0.42250 -0.16500
H 	H 	0.20440 0.60220 0.39570 0.08700
O 	O 	0.80643 0.90321 0.71338 -0.17900
C 	C 	0.68765 0.84382 0.81713 0.00800
C 	C 	0.76757 0.88378 0.74732 0.11500
C 	C 	0.84453 0.92226 0.75583 -0.16500
H 	H 	0.87107 0.93553 0.72903 0.08700
O 	O 	0.47309 0.23655 0.04672 -0.17900
C 	C 	0.35431 0.17716 0.15047 0.00800
C 	C 	0.43423 0.21712 0.08066 0.11500
C 	C 	0.51119 0.25560 0.08917 -0.16500
H 	H 	0.53773 0.26887 0.06237 0.08700
O 	O 	0.43012 0.86024 0.38005 -0.17900
C 	C 	0.48951 0.97902 0.48380 0.00800
C 	C 	0.44955 0.89910 0.41399 0.11500
C 	C 	0.41107 0.82214 0.42250 -0.16500
H 	H 	0.39780 0.79560 0.39570 0.08700
O 	O 	0.09679 0.19357 0.71338 -0.17900
C 	C 	0.15618 0.31235 0.81713 0.00800
C 	C 	0.11622 0.23243 0.74732 0.11500
C 	C 	0.07774 0.15547 0.75583 -0.16500
H 	H 	0.06447 0.12893 0.72903 0.08700
O 	O 	0.76345 0.52691 0.04672 -0.17900
C 	C 	0.82284 0.64569 0.15047 0.00800
C 	C 	0.78288 0.56577 0.08066 0.11500
C 	C 	0.74440 0.48881 0.08917 -0.16500
H 	H 	0.73113 0.46227 0.06237 0.08700
