data_crystal

_cell_length_a 35.16080
_cell_length_b 35.16080
_cell_length_c 21.84590
_cell_angle_alpha 90.00000
_cell_angle_beta  90.00000
_cell_angle_gamma 120.00000

_symmetry_space_group_name_	'P 1'
_symmetry_space_group_name_H-M	'P 1'

loop_
_symmetry_equiv_pos_as_xyz
  x,y,z

loop_
_atom_site_label
_atom_site_type_symbol
_atom_site_fract_x
_atom_site_fract_y
_atom_site_fract_z
_atom_site_charge
O 	O 	0.36247 0.22047 0.59732 -0.41000
O 	O 	0.38888 0.23383 0.69337 -0.41000
C 	C 	0.38761 0.24483 0.63939 0.37200
C 	C 	0.41926 0.29177 0.62163 -0.13400
C 	C 	0.44676 0.32199 0.66578 0.07900
H 	H 	0.44630 0.31290 0.70590 0.02100
C 	C 	0.47433 0.36489 0.64987 -0.16200
H 	H 	0.49230 0.38460 0.67960 0.10200
C 	C 	0.47616 0.37950 0.59094 0.12100
C 	C 	0.44907 0.34935 0.54638 -0.15900
H 	H 	0.45000 0.35840 0.50610 0.09000
C 	C 	0.42094 0.30607 0.56269 0.07800
H 	H 	0.40280 0.28630 0.53310 0.02000
C 	C 	0.50433 0.42647 0.57233 -0.06900
C 	C 	0.48654 0.44590 0.53720 -0.04300
H 	H 	0.45740 0.42900 0.52500 0.04500
C 	C 	0.61490 0.42530 0.53730 -0.01800
C 	C 	0.59170 0.38080 0.64170 -0.00500
O 	O 	0.02914 0.55380 0.93065 -0.41000
O 	O 	0.05555 0.56716 0.02670 -0.41100
C 	C 	0.05428 0.57816 0.97272 0.37200
C 	C 	0.08593 0.62510 0.95496 -0.13400
C 	C 	0.11343 0.65532 0.99911 0.08000
H 	H 	0.11297 0.64623 0.03923 0.02000
C 	C 	0.14100 0.69822 0.98320 -0.16100
H 	H 	0.15897 0.71793 0.01293 0.10200
C 	C 	0.14283 0.71283 0.92427 0.12100
C 	C 	0.11574 0.68268 0.87971 -0.15900
H 	H 	0.11667 0.69173 0.83943 0.09000
C 	C 	0.08761 0.63940 0.89602 0.07800
H 	H 	0.06947 0.61963 0.86643 0.02000
C 	C 	0.17100 0.75980 0.90566 -0.06900
C 	C 	0.15321 0.77923 0.87053 -0.04300
H 	H 	0.12407 0.76233 0.85833 0.04500
C 	C 	0.28157 0.75863 0.87063 -0.01700
C 	C 	0.25837 0.71413 0.97503 -0.00400
O 	O 	0.69580 0.88714 0.26399 -0.40900
O 	O 	0.72221 0.90050 0.36004 -0.40900
C 	C 	0.72094 0.91150 0.30606 0.37300
C 	C 	0.75259 0.95844 0.28830 -0.13200
C 	C 	0.78009 0.98866 0.33245 0.07900
H 	H 	0.77963 0.97957 0.37257 0.02200
C 	C 	0.80766 0.03156 0.31654 -0.16000
H 	H 	0.82563 0.05127 0.34627 0.10300
C 	C 	0.80949 0.04617 0.25761 0.12100
C 	C 	0.78240 0.01602 0.21305 -0.15800
H 	H 	0.78333 0.02507 0.17277 0.09000
C 	C 	0.75427 0.97274 0.22936 0.07800
H 	H 	0.73613 0.95297 0.19977 0.02200
C 	C 	0.83766 0.09314 0.23900 -0.06800
C 	C 	0.81987 0.11257 0.20387 -0.04200
H 	H 	0.79073 0.09567 0.19167 0.04600
C 	C 	0.94823 0.09197 0.20397 -0.01700
C 	C 	0.92503 0.04747 0.30837 -0.00400
O 	O 	0.77953 0.14200 0.59732 -0.40900
O 	O 	0.76617 0.15505 0.69337 -0.41000
C 	C 	0.75517 0.14278 0.63939 0.37300
C 	C 	0.70823 0.12749 0.62163 -0.13300
C 	C 	0.67801 0.12477 0.66578 0.08000
H 	H 	0.68710 0.13340 0.70590 0.02200
C 	C 	0.63511 0.10944 0.64987 -0.16100
H 	H 	0.61540 0.10770 0.67960 0.10300
C 	C 	0.62050 0.09666 0.59094 0.12200
C 	C 	0.65065 0.09972 0.54638 -0.15800
H 	H 	0.64160 0.09160 0.50610 0.09100
C 	C 	0.69393 0.11487 0.56269 0.07900
H 	H 	0.71370 0.11650 0.53310 0.02100
C 	C 	0.57353 0.07786 0.57233 -0.06800
C 	C 	0.55410 0.04064 0.53720 -0.04200
H 	H 	0.57100 0.02840 0.52500 0.04600
C 	C 	0.57470 0.18960 0.53730 -0.01700
C 	C 	0.61920 0.21090 0.64170 -0.00400
O 	O 	0.44620 0.47533 0.93065 -0.40900
O 	O 	0.43284 0.48838 0.02670 -0.41000
C 	C 	0.42184 0.47611 0.97272 0.37300
C 	C 	0.37490 0.46082 0.95496 -0.13300
C 	C 	0.34468 0.45810 0.99911 0.08000
H 	H 	0.35377 0.46673 0.03923 0.02200
C 	C 	0.30178 0.44277 0.98320 -0.16100
H 	H 	0.28207 0.44103 0.01293 0.10300
C 	C 	0.28717 0.42999 0.92427 0.12200
C 	C 	0.31732 0.43305 0.87971 -0.15800
H 	H 	0.30827 0.42493 0.83943 0.09100
C 	C 	0.36060 0.44820 0.89602 0.07900
H 	H 	0.38037 0.44983 0.86643 0.02100
C 	C 	0.24020 0.41119 0.90566 -0.06800
C 	C 	0.22077 0.37397 0.87053 -0.04200
H 	H 	0.23767 0.36173 0.85833 0.04600
C 	C 	0.24137 0.52293 0.87063 -0.01700
C 	C 	0.28587 0.54423 0.97503 -0.00400
O 	O 	0.11286 0.80867 0.26399 -0.40900
O 	O 	0.09950 0.82172 0.36004 -0.40900
C 	C 	0.08850 0.80945 0.30606 0.37300
C 	C 	0.04156 0.79416 0.28830 -0.13200
C 	C 	0.01134 0.79144 0.33245 0.08000
H 	H 	0.02043 0.80007 0.37257 0.02200
C 	C 	0.96844 0.77611 0.31654 -0.16000
H 	H 	0.94873 0.77437 0.34627 0.10300
C 	C 	0.95383 0.76333 0.25761 0.12200
C 	C 	0.98398 0.76639 0.21305 -0.15800
H 	H 	0.97493 0.75827 0.17277 0.09000
C 	C 	0.02726 0.78154 0.22936 0.07800
H 	H 	0.04703 0.78317 0.19977 0.02200
C 	C 	0.90686 0.74453 0.23900 -0.06800
C 	C 	0.88743 0.70731 0.20387 -0.04200
H 	H 	0.90433 0.69507 0.19167 0.04600
C 	C 	0.90803 0.85627 0.20397 -0.01700
C 	C 	0.95253 0.87757 0.30837 -0.00400
O 	O 	0.85800 0.63753 0.59732 -0.40900
O 	O 	0.84495 0.61112 0.69337 -0.40900
C 	C 	0.85722 0.61239 0.63939 0.37300
C 	C 	0.87251 0.58074 0.62163 -0.13300
C 	C 	0.87523 0.55324 0.66578 0.08000
H 	H 	0.86660 0.55370 0.70590 0.02200
C 	C 	0.89056 0.52567 0.64987 -0.16100
H 	H 	0.89230 0.50770 0.67960 0.10300
C 	C 	0.90334 0.52384 0.59094 0.12200
C 	C 	0.90028 0.55093 0.54638 -0.15800
H 	H 	0.90840 0.55000 0.50610 0.09100
C 	C 	0.88513 0.57906 0.56269 0.07900
H 	H 	0.88350 0.59720 0.53310 0.02100
C 	C 	0.92214 0.49567 0.57233 -0.06800
C 	C 	0.95936 0.51346 0.53720 -0.04200
H 	H 	0.97160 0.54260 0.52500 0.04600
C 	C 	0.81040 0.38510 0.53730 -0.01700
C 	C 	0.78910 0.40830 0.64170 -0.00400
O 	O 	0.52467 0.97086 0.93065 -0.40900
O 	O 	0.51162 0.94445 0.02670 -0.41000
C 	C 	0.52389 0.94572 0.97272 0.37300
C 	C 	0.53918 0.91407 0.95496 -0.13300
C 	C 	0.54190 0.88657 0.99911 0.08100
H 	H 	0.53327 0.88703 0.03923 0.02100
C 	C 	0.55723 0.85900 0.98320 -0.16100
H 	H 	0.55897 0.84103 0.01293 0.10300
C 	C 	0.57001 0.85717 0.92427 0.12200
C 	C 	0.56695 0.88426 0.87971 -0.15900
H 	H 	0.57507 0.88333 0.83943 0.09100
C 	C 	0.55180 0.91239 0.89602 0.07900
H 	H 	0.55017 0.93053 0.86643 0.02100
C 	C 	0.58881 0.82900 0.90566 -0.06800
C 	C 	0.62603 0.84679 0.87053 -0.04200
H 	H 	0.63827 0.87593 0.85833 0.04600
C 	C 	0.47707 0.71843 0.87063 -0.01700
C 	C 	0.45577 0.74163 0.97503 -0.00400
O 	O 	0.19133 0.30420 0.26399 -0.40900
O 	O 	0.17828 0.27779 0.36004 -0.41000
C 	C 	0.19055 0.27906 0.30606 0.37300
C 	C 	0.20584 0.24741 0.28830 -0.13300
C 	C 	0.20856 0.21991 0.33245 0.08000
H 	H 	0.19993 0.22037 0.37257 0.02200
C 	C 	0.22389 0.19234 0.31654 -0.16100
H 	H 	0.22563 0.17437 0.34627 0.10300
C 	C 	0.23667 0.19051 0.25761 0.12200
C 	C 	0.23361 0.21760 0.21305 -0.15800
H 	H 	0.24173 0.21667 0.17277 0.09100
C 	C 	0.21846 0.24573 0.22936 0.07900
H 	H 	0.21683 0.26387 0.19977 0.02100
C 	C 	0.25547 0.16234 0.23900 -0.06800
C 	C 	0.29269 0.18013 0.20387 -0.04200
H 	H 	0.30493 0.20927 0.19167 0.04600
C 	C 	0.14373 0.05177 0.20397 -0.01700
C 	C 	0.12243 0.07497 0.30837 -0.00400
O 	O 	0.22047 0.36247 0.40268 -0.40900
O 	O 	0.23383 0.38888 0.30663 -0.40900
C 	C 	0.24483 0.38761 0.36061 0.37300
C 	C 	0.29177 0.41926 0.37837 -0.13300
C 	C 	0.32199 0.44676 0.33422 0.08000
H 	H 	0.31290 0.44630 0.29410 0.02200
C 	C 	0.36489 0.47433 0.35013 -0.16100
H 	H 	0.38460 0.49230 0.32040 0.10300
C 	C 	0.37950 0.47616 0.40906 0.12200
C 	C 	0.34935 0.44907 0.45362 -0.15800
H 	H 	0.35840 0.45000 0.49390 0.09100
C 	C 	0.30607 0.42094 0.43731 0.07900
H 	H 	0.28630 0.40280 0.46690 0.02100
C 	C 	0.42647 0.50433 0.42767 -0.06800
C 	C 	0.44590 0.48654 0.46280 -0.04200
H 	H 	0.42900 0.45740 0.47500 0.04600
C 	C 	0.42530 0.61490 0.46270 -0.01700
C 	C 	0.38080 0.59170 0.35830 -0.00400
O 	O 	0.88714 0.69580 0.73601 -0.40900
O 	O 	0.90050 0.72221 0.63996 -0.40900
C 	C 	0.91150 0.72094 0.69394 0.37300
C 	C 	0.95844 0.75259 0.71170 -0.13200
C 	C 	0.98866 0.78009 0.66755 0.07900
H 	H 	0.97957 0.77963 0.62743 0.02200
C 	C 	0.03156 0.80766 0.68346 -0.16000
H 	H 	0.05127 0.82563 0.65373 0.10300
C 	C 	0.04617 0.80949 0.74239 0.12100
C 	C 	0.01602 0.78240 0.78695 -0.15800
H 	H 	0.02507 0.78333 0.82723 0.09000
C 	C 	0.97274 0.75427 0.77064 0.07800
H 	H 	0.95297 0.73613 0.80023 0.02200
C 	C 	0.09314 0.83766 0.76100 -0.06800
C 	C 	0.11257 0.81987 0.79613 -0.04200
H 	H 	0.09567 0.79073 0.80833 0.04600
C 	C 	0.09197 0.94823 0.79603 -0.01700
C 	C 	0.04747 0.92503 0.69163 -0.00400
O 	O 	0.55380 0.02914 0.06935 -0.40900
O 	O 	0.56716 0.05555 0.97330 -0.41000
C 	C 	0.57816 0.05428 0.02728 0.37300
C 	C 	0.62510 0.08593 0.04504 -0.13300
C 	C 	0.65532 0.11343 0.00089 0.08100
H 	H 	0.64623 0.11297 0.96077 0.02100
C 	C 	0.69822 0.14100 0.01680 -0.16000
H 	H 	0.71793 0.15897 0.98707 0.10300
C 	C 	0.71283 0.14283 0.07573 0.12200
C 	C 	0.68268 0.11574 0.12029 -0.15800
H 	H 	0.69173 0.11667 0.16057 0.09100
C 	C 	0.63940 0.08761 0.10398 0.07900
H 	H 	0.61963 0.06947 0.13357 0.02100
C 	C 	0.75980 0.17100 0.09434 -0.06800
C 	C 	0.77923 0.15321 0.12947 -0.04200
H 	H 	0.76233 0.12407 0.14167 0.04600
C 	C 	0.75863 0.28157 0.12937 -0.01700
C 	C 	0.71413 0.25837 0.02497 -0.00400
O 	O 	0.14200 0.77953 0.40268 -0.40900
O 	O 	0.15505 0.76617 0.30663 -0.41000
C 	C 	0.14278 0.75517 0.36061 0.37300
C 	C 	0.12749 0.70823 0.37837 -0.13300
C 	C 	0.12477 0.67801 0.33422 0.08000
H 	H 	0.13340 0.68710 0.29410 0.02200
C 	C 	0.10944 0.63511 0.35013 -0.16100
H 	H 	0.10770 0.61540 0.32040 0.10300
C 	C 	0.09666 0.62050 0.40906 0.12200
C 	C 	0.09972 0.65065 0.45362 -0.15800
H 	H 	0.09160 0.64160 0.49390 0.09100
C 	C 	0.11487 0.69393 0.43731 0.07900
H 	H 	0.11650 0.71370 0.46690 0.02100
C 	C 	0.07786 0.57353 0.42767 -0.06800
C 	C 	0.04064 0.55410 0.46280 -0.04200
H 	H 	0.02840 0.57100 0.47500 0.04600
C 	C 	0.18960 0.57470 0.46270 -0.01700
C 	C 	0.21090 0.61920 0.35830 -0.00400
O 	O 	0.80867 0.11286 0.73601 -0.40900
O 	O 	0.82172 0.09950 0.63996 -0.40900
C 	C 	0.80945 0.08850 0.69394 0.37300
C 	C 	0.79416 0.04156 0.71170 -0.13200
C 	C 	0.79144 0.01134 0.66755 0.08000
H 	H 	0.80007 0.02043 0.62743 0.02200
C 	C 	0.77611 0.96844 0.68346 -0.16000
H 	H 	0.77437 0.94873 0.65373 0.10300
C 	C 	0.76333 0.95383 0.74239 0.12200
C 	C 	0.76639 0.98398 0.78695 -0.15800
H 	H 	0.75827 0.97493 0.82723 0.09000
C 	C 	0.78154 0.02726 0.77064 0.07800
H 	H 	0.78317 0.04703 0.80023 0.02200
C 	C 	0.74453 0.90686 0.76100 -0.06800
C 	C 	0.70731 0.88743 0.79613 -0.04200
H 	H 	0.69507 0.90433 0.80833 0.04600
C 	C 	0.85627 0.90803 0.79603 -0.01700
C 	C 	0.87757 0.95253 0.69163 -0.00400
O 	O 	0.47533 0.44620 0.06935 -0.40900
O 	O 	0.48838 0.43284 0.97330 -0.41000
C 	C 	0.47611 0.42184 0.02728 0.37300
C 	C 	0.46082 0.37490 0.04504 -0.13300
C 	C 	0.45810 0.34468 0.00089 0.08000
H 	H 	0.46673 0.35377 0.96077 0.02200
C 	C 	0.44277 0.30178 0.01680 -0.16100
H 	H 	0.44103 0.28207 0.98707 0.10300
C 	C 	0.42999 0.28717 0.07573 0.12200
C 	C 	0.43305 0.31732 0.12029 -0.15800
H 	H 	0.42493 0.30827 0.16057 0.09100
C 	C 	0.44820 0.36060 0.10398 0.07900
H 	H 	0.44983 0.38037 0.13357 0.02100
C 	C 	0.41119 0.24020 0.09434 -0.06800
C 	C 	0.37397 0.22077 0.12947 -0.04200
H 	H 	0.36173 0.23767 0.14167 0.04600
C 	C 	0.52293 0.24137 0.12937 -0.01700
C 	C 	0.54423 0.28587 0.02497 -0.00400
O 	O 	0.63753 0.85800 0.40268 -0.40900
O 	O 	0.61112 0.84495 0.30663 -0.40900
C 	C 	0.61239 0.85722 0.36061 0.37300
C 	C 	0.58074 0.87251 0.37837 -0.13300
C 	C 	0.55324 0.87523 0.33422 0.08000
H 	H 	0.55370 0.86660 0.29410 0.02200
C 	C 	0.52567 0.89056 0.35013 -0.16100
H 	H 	0.50770 0.89230 0.32040 0.10300
C 	C 	0.52384 0.90334 0.40906 0.12200
C 	C 	0.55093 0.90028 0.45362 -0.15800
H 	H 	0.55000 0.90840 0.49390 0.09100
C 	C 	0.57906 0.88513 0.43731 0.07900
H 	H 	0.59720 0.88350 0.46690 0.02100
C 	C 	0.49567 0.92214 0.42767 -0.06800
C 	C 	0.51346 0.95936 0.46280 -0.04200
H 	H 	0.54260 0.97160 0.47500 0.04600
C 	C 	0.38510 0.81040 0.46270 -0.01700
C 	C 	0.40830 0.78910 0.35830 -0.00400
O 	O 	0.30420 0.19133 0.73601 -0.40900
O 	O 	0.27779 0.17828 0.63996 -0.41000
C 	C 	0.27906 0.19055 0.69394 0.37300
C 	C 	0.24741 0.20584 0.71170 -0.13300
C 	C 	0.21991 0.20856 0.66755 0.08000
H 	H 	0.22037 0.19993 0.62743 0.02200
C 	C 	0.19234 0.22389 0.68346 -0.16100
H 	H 	0.17437 0.22563 0.65373 0.10300
C 	C 	0.19051 0.23667 0.74239 0.12200
C 	C 	0.21760 0.23361 0.78695 -0.15800
H 	H 	0.21667 0.24173 0.82723 0.09100
C 	C 	0.24573 0.21846 0.77064 0.07900
H 	H 	0.26387 0.21683 0.80023 0.02100
C 	C 	0.16234 0.25547 0.76100 -0.06800
C 	C 	0.18013 0.29269 0.79613 -0.04200
H 	H 	0.20927 0.30493 0.80833 0.04600
C 	C 	0.05177 0.14373 0.79603 -0.01700
C 	C 	0.07497 0.12243 0.69163 -0.00400
O 	O 	0.97086 0.52467 0.06935 -0.40900
O 	O 	0.94445 0.51162 0.97330 -0.41000
C 	C 	0.94572 0.52389 0.02728 0.37300
C 	C 	0.91407 0.53918 0.04504 -0.13300
C 	C 	0.88657 0.54190 0.00089 0.08100
H 	H 	0.88703 0.53327 0.96077 0.02100
C 	C 	0.85900 0.55723 0.01680 -0.16100
H 	H 	0.84103 0.55897 0.98707 0.10300
C 	C 	0.85717 0.57001 0.07573 0.12200
C 	C 	0.88426 0.56695 0.12029 -0.15900
H 	H 	0.88333 0.57507 0.16057 0.09100
C 	C 	0.91239 0.55180 0.10398 0.07900
H 	H 	0.93053 0.55017 0.13357 0.02100
C 	C 	0.82900 0.58881 0.09434 -0.06800
C 	C 	0.84679 0.62603 0.12947 -0.04200
H 	H 	0.87593 0.63827 0.14167 0.04600
C 	C 	0.71843 0.47707 0.12937 -0.01700
C 	C 	0.74163 0.45577 0.02497 -0.00400
O 	O 	0.63753 0.77953 0.40268 -0.40900
O 	O 	0.61112 0.76617 0.30663 -0.40900
C 	C 	0.61239 0.75517 0.36061 0.37300
C 	C 	0.58074 0.70823 0.37837 -0.13300
C 	C 	0.55324 0.67801 0.33422 0.08000
H 	H 	0.55370 0.68710 0.29410 0.02200
C 	C 	0.52567 0.63511 0.35013 -0.16100
H 	H 	0.50770 0.61540 0.32040 0.10300
C 	C 	0.52384 0.62050 0.40906 0.12200
C 	C 	0.55093 0.65065 0.45362 -0.15800
H 	H 	0.55000 0.64160 0.49390 0.09100
C 	C 	0.57906 0.69393 0.43731 0.07900
H 	H 	0.59720 0.71370 0.46690 0.02100
C 	C 	0.49567 0.57353 0.42767 -0.06800
C 	C 	0.51346 0.55410 0.46280 -0.04200
H 	H 	0.54260 0.57100 0.47500 0.04600
C 	C 	0.38510 0.57470 0.46270 -0.01700
C 	C 	0.40830 0.61920 0.35830 -0.00400
O 	O 	0.30420 0.11286 0.73601 -0.40900
O 	O 	0.27779 0.09950 0.63996 -0.40900
C 	C 	0.27906 0.08850 0.69394 0.37300
C 	C 	0.24741 0.04156 0.71170 -0.13200
C 	C 	0.21991 0.01134 0.66755 0.07900
H 	H 	0.22037 0.02043 0.62743 0.02200
C 	C 	0.19234 0.96844 0.68346 -0.16000
H 	H 	0.17437 0.94873 0.65373 0.10300
C 	C 	0.19051 0.95383 0.74239 0.12100
C 	C 	0.21760 0.98398 0.78695 -0.15800
H 	H 	0.21667 0.97493 0.82723 0.09000
C 	C 	0.24573 0.02726 0.77064 0.07800
H 	H 	0.26387 0.04703 0.80023 0.02200
C 	C 	0.16234 0.90686 0.76100 -0.06800
C 	C 	0.18013 0.88743 0.79613 -0.04200
H 	H 	0.20927 0.90433 0.80833 0.04600
C 	C 	0.05177 0.90803 0.79603 -0.01700
C 	C 	0.07497 0.95253 0.69163 -0.00400
O 	O 	0.97086 0.44620 0.06935 -0.40900
O 	O 	0.94445 0.43284 0.97330 -0.41000
C 	C 	0.94572 0.42184 0.02728 0.37300
C 	C 	0.91407 0.37490 0.04504 -0.13300
C 	C 	0.88657 0.34468 0.00089 0.08100
H 	H 	0.88703 0.35377 0.96077 0.02100
C 	C 	0.85900 0.30178 0.01680 -0.16000
H 	H 	0.84103 0.28207 0.98707 0.10300
C 	C 	0.85717 0.28717 0.07573 0.12200
C 	C 	0.88426 0.31732 0.12029 -0.15800
H 	H 	0.88333 0.30827 0.16057 0.09100
C 	C 	0.91239 0.36060 0.10398 0.07900
H 	H 	0.93053 0.38037 0.13357 0.02100
C 	C 	0.82900 0.24020 0.09434 -0.06800
C 	C 	0.84679 0.22077 0.12947 -0.04200
H 	H 	0.87593 0.23767 0.14167 0.04600
C 	C 	0.71843 0.24137 0.12937 -0.01700
C 	C 	0.74163 0.28587 0.02497 -0.00400
O 	O 	0.22047 0.85800 0.40268 -0.40900
O 	O 	0.23383 0.84495 0.30663 -0.41000
C 	C 	0.24483 0.85722 0.36061 0.37300
C 	C 	0.29177 0.87251 0.37837 -0.13300
C 	C 	0.32199 0.87523 0.33422 0.08000
H 	H 	0.31290 0.86660 0.29410 0.02200
C 	C 	0.36489 0.89056 0.35013 -0.16100
H 	H 	0.38460 0.89230 0.32040 0.10300
C 	C 	0.37950 0.90334 0.40906 0.12200
C 	C 	0.34935 0.90028 0.45362 -0.15800
H 	H 	0.35840 0.90840 0.49390 0.09100
C 	C 	0.30607 0.88513 0.43731 0.07900
H 	H 	0.28630 0.88350 0.46690 0.02100
C 	C 	0.42647 0.92214 0.42767 -0.06800
C 	C 	0.44590 0.95936 0.46280 -0.04200
H 	H 	0.42900 0.97160 0.47500 0.04600
C 	C 	0.42530 0.81040 0.46270 -0.01700
C 	C 	0.38080 0.78910 0.35830 -0.00400
O 	O 	0.88714 0.19133 0.73601 -0.40900
O 	O 	0.90050 0.17828 0.63996 -0.40900
C 	C 	0.91150 0.19055 0.69394 0.37300
C 	C 	0.95844 0.20584 0.71170 -0.13200
C 	C 	0.98866 0.20856 0.66755 0.08000
H 	H 	0.97957 0.19993 0.62743 0.02200
C 	C 	0.03156 0.22389 0.68346 -0.16000
H 	H 	0.05127 0.22563 0.65373 0.10300
C 	C 	0.04617 0.23667 0.74239 0.12200
C 	C 	0.01602 0.23361 0.78695 -0.15800
H 	H 	0.02507 0.24173 0.82723 0.09000
C 	C 	0.97274 0.21846 0.77064 0.07800
H 	H 	0.95297 0.21683 0.80023 0.02200
C 	C 	0.09314 0.25547 0.76100 -0.06800
C 	C 	0.11257 0.29269 0.79613 -0.04200
H 	H 	0.09567 0.30493 0.80833 0.04600
C 	C 	0.09197 0.14373 0.79603 -0.01700
C 	C 	0.04747 0.12243 0.69163 -0.00400
O 	O 	0.55380 0.52467 0.06935 -0.40900
O 	O 	0.56716 0.51162 0.97330 -0.41000
C 	C 	0.57816 0.52389 0.02728 0.37300
C 	C 	0.62510 0.53918 0.04504 -0.13300
C 	C 	0.65532 0.54190 0.00089 0.08000
H 	H 	0.64623 0.53327 0.96077 0.02200
C 	C 	0.69822 0.55723 0.01680 -0.16100
H 	H 	0.71793 0.55897 0.98707 0.10300
C 	C 	0.71283 0.57001 0.07573 0.12200
C 	C 	0.68268 0.56695 0.12029 -0.15800
H 	H 	0.69173 0.57507 0.16057 0.09100
C 	C 	0.63940 0.55180 0.10398 0.07900
H 	H 	0.61963 0.55017 0.13357 0.02100
C 	C 	0.75980 0.58881 0.09434 -0.06800
C 	C 	0.77923 0.62603 0.12947 -0.04200
H 	H 	0.76233 0.63827 0.14167 0.04600
C 	C 	0.75863 0.47707 0.12937 -0.01700
C 	C 	0.71413 0.45577 0.02497 -0.00400
O 	O 	0.14200 0.36247 0.40268 -0.40900
O 	O 	0.15505 0.38888 0.30663 -0.40900
C 	C 	0.14278 0.38761 0.36061 0.37300
C 	C 	0.12749 0.41926 0.37837 -0.13300
C 	C 	0.12477 0.44676 0.33422 0.08000
H 	H 	0.13340 0.44630 0.29410 0.02200
C 	C 	0.10944 0.47433 0.35013 -0.16100
H 	H 	0.10770 0.49230 0.32040 0.10300
C 	C 	0.09666 0.47616 0.40906 0.12200
C 	C 	0.09972 0.44907 0.45362 -0.15800
H 	H 	0.09160 0.45000 0.49390 0.09100
C 	C 	0.11487 0.42094 0.43731 0.07900
H 	H 	0.11650 0.40280 0.46690 0.02100
C 	C 	0.07786 0.50433 0.42767 -0.06800
C 	C 	0.04064 0.48654 0.46280 -0.04200
H 	H 	0.02840 0.45740 0.47500 0.04600
C 	C 	0.18960 0.61490 0.46270 -0.01700
C 	C 	0.21090 0.59170 0.35830 -0.00400
O 	O 	0.80867 0.69580 0.73601 -0.40900
O 	O 	0.82172 0.72221 0.63996 -0.41000
C 	C 	0.80945 0.72094 0.69394 0.37300
C 	C 	0.79416 0.75259 0.71170 -0.13300
C 	C 	0.79144 0.78009 0.66755 0.08000
H 	H 	0.80007 0.77963 0.62743 0.02200
C 	C 	0.77611 0.80766 0.68346 -0.16100
H 	H 	0.77437 0.82563 0.65373 0.10300
C 	C 	0.76333 0.80949 0.74239 0.12200
C 	C 	0.76639 0.78240 0.78695 -0.15800
H 	H 	0.75827 0.78333 0.82723 0.09100
C 	C 	0.78154 0.75427 0.77064 0.07900
H 	H 	0.78317 0.73613 0.80023 0.02100
C 	C 	0.74453 0.83766 0.76100 -0.06800
C 	C 	0.70731 0.81987 0.79613 -0.04200
H 	H 	0.69507 0.79073 0.80833 0.04600
C 	C 	0.85627 0.94823 0.79603 -0.01700
C 	C 	0.87757 0.92503 0.69163 -0.00400
O 	O 	0.47533 0.02914 0.06935 -0.40900
O 	O 	0.48838 0.05555 0.97330 -0.41000
C 	C 	0.47611 0.05428 0.02728 0.37300
C 	C 	0.46082 0.08593 0.04504 -0.13300
C 	C 	0.45810 0.11343 0.00089 0.08100
H 	H 	0.46673 0.11297 0.96077 0.02100
C 	C 	0.44277 0.14100 0.01680 -0.16100
H 	H 	0.44103 0.15897 0.98707 0.10300
C 	C 	0.42999 0.14283 0.07573 0.12200
C 	C 	0.43305 0.11574 0.12029 -0.15900
H 	H 	0.42493 0.11667 0.16057 0.09100
C 	C 	0.44820 0.08761 0.10398 0.07900
H 	H 	0.44983 0.06947 0.13357 0.02100
C 	C 	0.41119 0.17100 0.09434 -0.06800
C 	C 	0.37397 0.15321 0.12947 -0.04200
H 	H 	0.36173 0.12407 0.14167 0.04600
C 	C 	0.52293 0.28157 0.12937 -0.01700
C 	C 	0.54423 0.25837 0.02497 -0.00400
O 	O 	0.77953 0.63753 0.59732 -0.40900
O 	O 	0.76617 0.61112 0.69337 -0.40900
C 	C 	0.75517 0.61239 0.63939 0.37300
C 	C 	0.70823 0.58074 0.62163 -0.13300
C 	C 	0.67801 0.55324 0.66578 0.08000
H 	H 	0.68710 0.55370 0.70590 0.02200
C 	C 	0.63511 0.52567 0.64987 -0.16100
H 	H 	0.61540 0.50770 0.67960 0.10300
C 	C 	0.62050 0.52384 0.59094 0.12200
C 	C 	0.65065 0.55093 0.54638 -0.15800
H 	H 	0.64160 0.55000 0.50610 0.09100
C 	C 	0.69393 0.57906 0.56269 0.07900
H 	H 	0.71370 0.59720 0.53310 0.02100
C 	C 	0.57353 0.49567 0.57233 -0.06800
C 	C 	0.55410 0.51346 0.53720 -0.04200
H 	H 	0.57100 0.54260 0.52500 0.04600
C 	C 	0.57470 0.38510 0.53730 -0.01700
C 	C 	0.61920 0.40830 0.64170 -0.00400
O 	O 	0.44620 0.97086 0.93065 -0.40900
O 	O 	0.43284 0.94445 0.02670 -0.41000
C 	C 	0.42184 0.94572 0.97272 0.37300
C 	C 	0.37490 0.91407 0.95496 -0.13300
C 	C 	0.34468 0.88657 0.99911 0.08100
H 	H 	0.35377 0.88703 0.03923 0.02100
C 	C 	0.30178 0.85900 0.98320 -0.16000
H 	H 	0.28207 0.84103 0.01293 0.10300
C 	C 	0.28717 0.85717 0.92427 0.12200
C 	C 	0.31732 0.88426 0.87971 -0.15800
H 	H 	0.30827 0.88333 0.83943 0.09100
C 	C 	0.36060 0.91239 0.89602 0.07900
H 	H 	0.38037 0.93053 0.86643 0.02100
C 	C 	0.24020 0.82900 0.90566 -0.06800
C 	C 	0.22077 0.84679 0.87053 -0.04200
H 	H 	0.23767 0.87593 0.85833 0.04600
C 	C 	0.24137 0.71843 0.87063 -0.01700
C 	C 	0.28587 0.74163 0.97503 -0.00400
O 	O 	0.11286 0.30420 0.26399 -0.40900
O 	O 	0.09950 0.27779 0.36004 -0.40900
C 	C 	0.08850 0.27906 0.30606 0.37300
C 	C 	0.04156 0.24741 0.28830 -0.13200
C 	C 	0.01134 0.21991 0.33245 0.07900
H 	H 	0.02043 0.22037 0.37257 0.02200
C 	C 	0.96844 0.19234 0.31654 -0.16000
H 	H 	0.94873 0.17437 0.34627 0.10300
C 	C 	0.95383 0.19051 0.25761 0.12100
C 	C 	0.98398 0.21760 0.21305 -0.15800
H 	H 	0.97493 0.21667 0.17277 0.09000
C 	C 	0.02726 0.24573 0.22936 0.07800
H 	H 	0.04703 0.26387 0.19977 0.02200
C 	C 	0.90686 0.16234 0.23900 -0.06800
C 	C 	0.88743 0.18013 0.20387 -0.04200
H 	H 	0.90433 0.20927 0.19167 0.04600
C 	C 	0.90803 0.05177 0.20397 -0.01700
C 	C 	0.95253 0.07497 0.30837 -0.00400
O 	O 	0.85800 0.22047 0.59732 -0.40900
O 	O 	0.84495 0.23383 0.69337 -0.41000
C 	C 	0.85722 0.24483 0.63939 0.37300
C 	C 	0.87251 0.29177 0.62163 -0.13300
C 	C 	0.87523 0.32199 0.66578 0.08000
H 	H 	0.86660 0.31290 0.70590 0.02200
C 	C 	0.89056 0.36489 0.64987 -0.16100
H 	H 	0.89230 0.38460 0.67960 0.10300
C 	C 	0.90334 0.37950 0.59094 0.12200
C 	C 	0.90028 0.34935 0.54638 -0.15800
H 	H 	0.90840 0.35840 0.50610 0.09100
C 	C 	0.88513 0.30607 0.56269 0.07900
H 	H 	0.88350 0.28630 0.53310 0.02100
C 	C 	0.92214 0.42647 0.57233 -0.06800
C 	C 	0.95936 0.44590 0.53720 -0.04200
H 	H 	0.97160 0.42900 0.52500 0.04600
C 	C 	0.81040 0.42530 0.53730 -0.01700
C 	C 	0.78910 0.38080 0.64170 -0.00400
O 	O 	0.52467 0.55380 0.93065 -0.40900
O 	O 	0.51162 0.56716 0.02670 -0.41000
C 	C 	0.52389 0.57816 0.97272 0.37300
C 	C 	0.53918 0.62510 0.95496 -0.13300
C 	C 	0.54190 0.65532 0.99911 0.08000
H 	H 	0.53327 0.64623 0.03923 0.02200
C 	C 	0.55723 0.69822 0.98320 -0.16100
H 	H 	0.55897 0.71793 0.01293 0.10300
C 	C 	0.57001 0.71283 0.92427 0.12200
C 	C 	0.56695 0.68268 0.87971 -0.15800
H 	H 	0.57507 0.69173 0.83943 0.09100
C 	C 	0.55180 0.63940 0.89602 0.07900
H 	H 	0.55017 0.61963 0.86643 0.02100
C 	C 	0.58881 0.75980 0.90566 -0.06800
C 	C 	0.62603 0.77923 0.87053 -0.04200
H 	H 	0.63827 0.76233 0.85833 0.04600
C 	C 	0.47707 0.75863 0.87063 -0.01700
C 	C 	0.45577 0.71413 0.97503 -0.00400
O 	O 	0.19133 0.88714 0.26399 -0.40900
O 	O 	0.17828 0.90050 0.36004 -0.40900
C 	C 	0.19055 0.91150 0.30606 0.37300
C 	C 	0.20584 0.95844 0.28830 -0.13200
C 	C 	0.20856 0.98866 0.33245 0.08000
H 	H 	0.19993 0.97957 0.37257 0.02200
C 	C 	0.22389 0.03156 0.31654 -0.16000
H 	H 	0.22563 0.05127 0.34627 0.10300
C 	C 	0.23667 0.04617 0.25761 0.12200
C 	C 	0.23361 0.01602 0.21305 -0.15800
H 	H 	0.24173 0.02507 0.17277 0.09000
C 	C 	0.21846 0.97274 0.22936 0.07800
H 	H 	0.21683 0.95297 0.19977 0.02200
C 	C 	0.25547 0.09314 0.23900 -0.06800
C 	C 	0.29269 0.11257 0.20387 -0.04200
H 	H 	0.30493 0.09567 0.19167 0.04600
C 	C 	0.14373 0.09197 0.20397 -0.01700
C 	C 	0.12243 0.04747 0.30837 -0.00400
O 	O 	0.36247 0.14200 0.59732 -0.40900
O 	O 	0.38888 0.15505 0.69337 -0.40900
C 	C 	0.38761 0.14278 0.63939 0.37300
C 	C 	0.41926 0.12749 0.62163 -0.13300
C 	C 	0.44676 0.12477 0.66578 0.08000
H 	H 	0.44630 0.13340 0.70590 0.02200
C 	C 	0.47433 0.10944 0.64987 -0.16100
H 	H 	0.49230 0.10770 0.67960 0.10300
C 	C 	0.47616 0.09666 0.59094 0.12200
C 	C 	0.44907 0.09972 0.54638 -0.15800
H 	H 	0.45000 0.09160 0.50610 0.09100
C 	C 	0.42094 0.11487 0.56269 0.07900
H 	H 	0.40280 0.11650 0.53310 0.02100
C 	C 	0.50433 0.07786 0.57233 -0.06800
C 	C 	0.48654 0.04064 0.53720 -0.04200
H 	H 	0.45740 0.02840 0.52500 0.04600
C 	C 	0.61490 0.18960 0.53730 -0.01700
C 	C 	0.59170 0.21090 0.64170 -0.00400
O 	O 	0.02914 0.47533 0.93065 -0.40900
O 	O 	0.05555 0.48838 0.02670 -0.41000
C 	C 	0.05428 0.47611 0.97272 0.37300
C 	C 	0.08593 0.46082 0.95496 -0.13300
C 	C 	0.11343 0.45810 0.99911 0.08100
H 	H 	0.11297 0.46673 0.03923 0.02100
C 	C 	0.14100 0.44277 0.98320 -0.16100
H 	H 	0.15897 0.44103 0.01293 0.10300
C 	C 	0.14283 0.42999 0.92427 0.12200
C 	C 	0.11574 0.43305 0.87971 -0.15900
H 	H 	0.11667 0.42493 0.83943 0.09100
C 	C 	0.08761 0.44820 0.89602 0.07900
H 	H 	0.06947 0.44983 0.86643 0.02100
C 	C 	0.17100 0.41119 0.90566 -0.06800
C 	C 	0.15321 0.37397 0.87053 -0.04200
H 	H 	0.12407 0.36173 0.85833 0.04600
C 	C 	0.28157 0.52293 0.87063 -0.01700
C 	C 	0.25837 0.54423 0.97503 -0.00400
O 	O 	0.69580 0.80867 0.26399 -0.40900
O 	O 	0.72221 0.82172 0.36004 -0.41000
C 	C 	0.72094 0.80945 0.30606 0.37300
C 	C 	0.75259 0.79416 0.28830 -0.13300
C 	C 	0.78009 0.79144 0.33245 0.08000
H 	H 	0.77963 0.80007 0.37257 0.02200
C 	C 	0.80766 0.77611 0.31654 -0.16100
H 	H 	0.82563 0.77437 0.34627 0.10300
C 	C 	0.80949 0.76333 0.25761 0.12200
C 	C 	0.78240 0.76639 0.21305 -0.15800
H 	H 	0.78333 0.75827 0.17277 0.09100
C 	C 	0.75427 0.78154 0.22936 0.07900
H 	H 	0.73613 0.78317 0.19977 0.02100
C 	C 	0.83766 0.74453 0.23900 -0.06800
C 	C 	0.81987 0.70731 0.20387 -0.04200
H 	H 	0.79073 0.69507 0.19167 0.04600
C 	C 	0.94823 0.85627 0.20397 -0.01700
C 	C 	0.92503 0.87757 0.30837 -0.00400
Cu	Cu	0.31799 0.15900 0.61004 0.90600
Cu	Cu	0.98466 0.49233 0.94337 0.90600
Cu	Cu	0.65132 0.82566 0.27671 0.90600
Cu	Cu	0.84100 0.15900 0.61004 0.90600
Cu	Cu	0.50767 0.49233 0.94337 0.90600
Cu	Cu	0.17434 0.82566 0.27671 0.90600
Cu	Cu	0.84100 0.68201 0.61004 0.90600
Cu	Cu	0.50767 0.01534 0.94337 0.90600
Cu	Cu	0.17434 0.34868 0.27671 0.90600
Cu	Cu	0.15900 0.31799 0.38996 0.90600
Cu	Cu	0.82566 0.65132 0.72329 0.90600
Cu	Cu	0.49233 0.98466 0.05663 0.90600
Cu	Cu	0.15900 0.84100 0.38996 0.90600
Cu	Cu	0.82566 0.17434 0.72329 0.90600
Cu	Cu	0.49233 0.50767 0.05663 0.90600
Cu	Cu	0.68201 0.84100 0.38996 0.90600
Cu	Cu	0.34868 0.17434 0.72329 0.90600
Cu	Cu	0.01534 0.50767 0.05663 0.90600
O 	O 	0.56732 0.43268 0.62615 -0.21800
C 	C 	0.51004 0.48996 0.51870 0.00700
C 	C 	0.54845 0.45155 0.58950 0.13700
C 	C 	0.58852 0.41148 0.59430 0.09900
O 	O 	0.23399 0.76601 0.95948 -0.21800
C 	C 	0.17671 0.82329 0.85203 0.00700
C 	C 	0.21512 0.78488 0.92283 0.13700
C 	C 	0.25519 0.74481 0.92763 0.09900
O 	O 	0.90065 0.09935 0.29282 -0.21800
C 	C 	0.84337 0.15663 0.18537 0.00700
C 	C 	0.88178 0.11822 0.25617 0.13700
C 	C 	0.92185 0.07815 0.26097 0.09900
O 	O 	0.56732 0.13464 0.62615 -0.21800
C 	C 	0.51004 0.02008 0.51870 0.00700
C 	C 	0.54845 0.09690 0.58950 0.13700
C 	C 	0.58852 0.17704 0.59430 0.09900
O 	O 	0.23399 0.46797 0.95948 -0.21800
C 	C 	0.17671 0.35341 0.85203 0.00700
C 	C 	0.21512 0.43023 0.92283 0.13700
C 	C 	0.25519 0.51037 0.92763 0.09900
O 	O 	0.90065 0.80131 0.29282 -0.21800
C 	C 	0.84337 0.68675 0.18537 0.00700
C 	C 	0.88178 0.76357 0.25617 0.13700
C 	C 	0.92185 0.84371 0.26097 0.09900
O 	O 	0.86536 0.43268 0.62615 -0.21800
C 	C 	0.97992 0.48996 0.51870 0.00700
C 	C 	0.90310 0.45155 0.58950 0.13700
C 	C 	0.82296 0.41148 0.59430 0.09900
O 	O 	0.53203 0.76601 0.95948 -0.21800
C 	C 	0.64659 0.82329 0.85203 0.00700
C 	C 	0.56977 0.78488 0.92283 0.13700
C 	C 	0.48963 0.74481 0.92763 0.09900
O 	O 	0.19869 0.09935 0.29282 -0.21800
C 	C 	0.31325 0.15663 0.18537 0.00700
C 	C 	0.23643 0.11822 0.25617 0.13700
C 	C 	0.15629 0.07815 0.26097 0.09900
O 	O 	0.43268 0.56732 0.37385 -0.21800
C 	C 	0.48996 0.51004 0.48130 0.00700
C 	C 	0.45155 0.54845 0.41050 0.13700
C 	C 	0.41148 0.58852 0.40570 0.09900
O 	O 	0.09935 0.90065 0.70718 -0.21800
C 	C 	0.15663 0.84337 0.81463 0.00700
C 	C 	0.11822 0.88178 0.74383 0.13700
C 	C 	0.07815 0.92185 0.73903 0.09900
O 	O 	0.76601 0.23399 0.04052 -0.21800
C 	C 	0.82329 0.17671 0.14797 0.00700
C 	C 	0.78488 0.21512 0.07717 0.13700
C 	C 	0.74481 0.25519 0.07237 0.09900
O 	O 	0.13464 0.56732 0.37385 -0.21800
C 	C 	0.02008 0.51004 0.48130 0.00700
C 	C 	0.09690 0.54845 0.41050 0.13700
C 	C 	0.17704 0.58852 0.40570 0.09900
O 	O 	0.80131 0.90065 0.70718 -0.21800
C 	C 	0.68675 0.84337 0.81463 0.00700
C 	C 	0.76357 0.88178 0.74383 0.13700
C 	C 	0.84371 0.92185 0.73903 0.09900
O 	O 	0.46797 0.23399 0.04052 -0.21800
C 	C 	0.35341 0.17671 0.14797 0.00700
C 	C 	0.43023 0.21512 0.07717 0.13700
C 	C 	0.51037 0.25519 0.07237 0.09900
O 	O 	0.43268 0.86536 0.37385 -0.21800
C 	C 	0.48996 0.97992 0.48130 0.00700
C 	C 	0.45155 0.90310 0.41050 0.13700
C 	C 	0.41148 0.82296 0.40570 0.09900
O 	O 	0.09935 0.19869 0.70718 -0.21800
C 	C 	0.15663 0.31325 0.81463 0.00700
C 	C 	0.11822 0.23643 0.74383 0.13700
C 	C 	0.07815 0.15629 0.73903 0.09900
O 	O 	0.76601 0.53203 0.04052 -0.21800
C 	C 	0.82329 0.64659 0.14797 0.00700
C 	C 	0.78488 0.56977 0.07717 0.13700
C 	C 	0.74481 0.48963 0.07237 0.09900
