data_crystal

_cell_length_a 34.96430
_cell_length_b 34.96430
_cell_length_c 23.39850
_cell_angle_alpha 90.00000
_cell_angle_beta  90.00000
_cell_angle_gamma 120.00000

_symmetry_space_group_name_	'P 1'
_symmetry_space_group_name_H-M	'P 1'

loop_
_symmetry_equiv_pos_as_xyz
  x,y,z

loop_
_atom_site_label
_atom_site_type_symbol
_atom_site_fract_x
_atom_site_fract_y
_atom_site_fract_z
_atom_site_charge
O 	O 	0.36102 0.21971 0.60053 -0.41900
O 	O 	0.39045 0.23457 0.68776 -0.41400
C 	C 	0.38708 0.24441 0.63790 0.39300
C 	C 	0.41840 0.29174 0.62090 -0.13700
C 	C 	0.44702 0.32257 0.65990 0.08600
H 	H 	0.44760 0.31430 0.69750 0.02100
C 	C 	0.47478 0.36576 0.64280 -0.16200
H 	H 	0.49380 0.38610 0.66950 0.10600
C 	C 	0.47523 0.37970 0.58780 0.12700
C 	C 	0.44650 0.34864 0.54850 -0.15900
H 	H 	0.44640 0.35700 0.51070 0.09200
C 	C 	0.41803 0.30532 0.56530 0.08000
H 	H 	0.39850 0.28510 0.53890 0.02200
C 	C 	0.50423 0.42615 0.56950 -0.07100
C 	C 	0.48584 0.44628 0.53610 -0.04200
H 	H 	0.45650 0.42970 0.52480 0.04700
C 	C 	0.62260 0.41130 0.63390 -0.00500
C 	C 	0.57250 0.38210 0.53950 -0.01600
O 	O 	0.02769 0.55304 0.93386 -0.41900
O 	O 	0.05712 0.56790 0.02109 -0.41400
C 	C 	0.05375 0.57774 0.97123 0.39300
C 	C 	0.08507 0.62507 0.95423 -0.13800
C 	C 	0.11369 0.65590 0.99323 0.08600
H 	H 	0.11427 0.64763 0.03083 0.02100
C 	C 	0.14145 0.69909 0.97613 -0.16200
H 	H 	0.16047 0.71943 0.00283 0.10500
C 	C 	0.14190 0.71303 0.92113 0.12700
C 	C 	0.11317 0.68197 0.88183 -0.15900
H 	H 	0.11307 0.69033 0.84403 0.09200
C 	C 	0.08470 0.63865 0.89863 0.08000
H 	H 	0.06517 0.61843 0.87223 0.02200
C 	C 	0.17090 0.75948 0.90283 -0.07100
C 	C 	0.15251 0.77961 0.86943 -0.04200
H 	H 	0.12317 0.76303 0.85813 0.04700
C 	C 	0.28927 0.74463 0.96723 -0.00500
C 	C 	0.23917 0.71543 0.87283 -0.01600
O 	O 	0.69435 0.88638 0.26720 -0.41900
O 	O 	0.72378 0.90124 0.35443 -0.41400
C 	C 	0.72041 0.91108 0.30457 0.39200
C 	C 	0.75173 0.95841 0.28757 -0.13700
C 	C 	0.78035 0.98924 0.32657 0.08500
H 	H 	0.78093 0.98097 0.36417 0.02100
C 	C 	0.80811 0.03243 0.30947 -0.16100
H 	H 	0.82713 0.05277 0.33617 0.10500
C 	C 	0.80856 0.04637 0.25447 0.12600
C 	C 	0.77983 0.01531 0.21517 -0.16000
H 	H 	0.77973 0.02367 0.17737 0.09100
C 	C 	0.75136 0.97199 0.23197 0.07900
H 	H 	0.73183 0.95177 0.20557 0.02100
C 	C 	0.83756 0.09282 0.23617 -0.07200
C 	C 	0.81917 0.11295 0.20277 -0.04300
H 	H 	0.78983 0.09637 0.19147 0.04600
C 	C 	0.95593 0.07797 0.30057 -0.00600
C 	C 	0.90583 0.04877 0.20617 -0.01700
O 	O 	0.78029 0.14131 0.60053 -0.42000
O 	O 	0.76543 0.15588 0.68776 -0.41500
C 	C 	0.75559 0.14267 0.63790 0.39200
C 	C 	0.70826 0.12666 0.62090 -0.13800
C 	C 	0.67743 0.12445 0.65990 0.08500
H 	H 	0.68570 0.13330 0.69750 0.02000
C 	C 	0.63424 0.10902 0.64280 -0.16300
H 	H 	0.61390 0.10770 0.66950 0.10500
C 	C 	0.62030 0.09553 0.58780 0.12600
C 	C 	0.65136 0.09786 0.54850 -0.16000
H 	H 	0.64300 0.08940 0.51070 0.09100
C 	C 	0.69468 0.11271 0.56530 0.07900
H 	H 	0.71490 0.11340 0.53890 0.02100
C 	C 	0.57385 0.07808 0.56950 -0.07200
C 	C 	0.55372 0.03956 0.53610 -0.04300
H 	H 	0.57030 0.02680 0.52480 0.04600
C 	C 	0.58870 0.21130 0.63390 -0.00600
C 	C 	0.61790 0.19040 0.53950 -0.01700
O 	O 	0.44696 0.47464 0.93386 -0.42000
O 	O 	0.43210 0.48921 0.02109 -0.41500
C 	C 	0.42226 0.47600 0.97123 0.39200
C 	C 	0.37493 0.45999 0.95423 -0.13800
C 	C 	0.34410 0.45778 0.99323 0.08500
H 	H 	0.35237 0.46663 0.03083 0.02000
C 	C 	0.30091 0.44235 0.97613 -0.16300
H 	H 	0.28057 0.44103 0.00283 0.10400
C 	C 	0.28697 0.42886 0.92113 0.12600
C 	C 	0.31803 0.43119 0.88183 -0.16000
H 	H 	0.30967 0.42273 0.84403 0.09100
C 	C 	0.36135 0.44604 0.89863 0.07900
H 	H 	0.38157 0.44673 0.87223 0.02100
C 	C 	0.24052 0.41141 0.90283 -0.07200
C 	C 	0.22039 0.37289 0.86943 -0.04300
H 	H 	0.23697 0.36013 0.85813 0.04600
C 	C 	0.25537 0.54463 0.96723 -0.00600
C 	C 	0.28457 0.52373 0.87283 -0.01700
O 	O 	0.11362 0.80798 0.26720 -0.42000
O 	O 	0.09876 0.82255 0.35443 -0.41500
C 	C 	0.08892 0.80934 0.30457 0.39100
C 	C 	0.04159 0.79333 0.28757 -0.13800
C 	C 	0.01076 0.79112 0.32657 0.08400
H 	H 	0.01903 0.79997 0.36417 0.02000
C 	C 	0.96757 0.77569 0.30947 -0.16300
H 	H 	0.94723 0.77437 0.33617 0.10400
C 	C 	0.95363 0.76220 0.25447 0.12600
C 	C 	0.98469 0.76453 0.21517 -0.16000
H 	H 	0.97633 0.75607 0.17737 0.09100
C 	C 	0.02801 0.77938 0.23197 0.07900
H 	H 	0.04823 0.78007 0.20557 0.02100
C 	C 	0.90718 0.74475 0.23617 -0.07200
C 	C 	0.88705 0.70623 0.20277 -0.04300
H 	H 	0.90363 0.69347 0.19147 0.04600
C 	C 	0.92203 0.87797 0.30057 -0.00600
C 	C 	0.95123 0.85707 0.20617 -0.01700
O 	O 	0.85869 0.63898 0.60053 -0.42000
O 	O 	0.84412 0.60955 0.68776 -0.41500
C 	C 	0.85733 0.61292 0.63790 0.39200
C 	C 	0.87334 0.58160 0.62090 -0.13800
C 	C 	0.87555 0.55298 0.65990 0.08500
H 	H 	0.86670 0.55240 0.69750 0.02000
C 	C 	0.89098 0.52522 0.64280 -0.16300
H 	H 	0.89230 0.50620 0.66950 0.10500
C 	C 	0.90447 0.52477 0.58780 0.12600
C 	C 	0.90214 0.55350 0.54850 -0.16000
H 	H 	0.91060 0.55360 0.51070 0.09100
C 	C 	0.88729 0.58197 0.56530 0.07900
H 	H 	0.88660 0.60150 0.53890 0.02100
C 	C 	0.92192 0.49577 0.56950 -0.07200
C 	C 	0.96044 0.51416 0.53610 -0.04300
H 	H 	0.97320 0.54350 0.52480 0.04600
C 	C 	0.78870 0.37740 0.63390 -0.00600
C 	C 	0.80960 0.42750 0.53950 -0.01700
O 	O 	0.52536 0.97231 0.93386 -0.42000
O 	O 	0.51079 0.94288 0.02109 -0.41500
C 	C 	0.52400 0.94625 0.97123 0.39200
C 	C 	0.54001 0.91493 0.95423 -0.13900
C 	C 	0.54222 0.88631 0.99323 0.08500
H 	H 	0.53337 0.88573 0.03083 0.02000
C 	C 	0.55765 0.85855 0.97613 -0.16300
H 	H 	0.55897 0.83953 0.00283 0.10400
C 	C 	0.57114 0.85810 0.92113 0.12600
C 	C 	0.56881 0.88683 0.88183 -0.16000
H 	H 	0.57727 0.88693 0.84403 0.09100
C 	C 	0.55396 0.91530 0.89863 0.07900
H 	H 	0.55327 0.93483 0.87223 0.02100
C 	C 	0.58859 0.82910 0.90283 -0.07200
C 	C 	0.62711 0.84749 0.86943 -0.04300
H 	H 	0.63987 0.87683 0.85813 0.04600
C 	C 	0.45537 0.71073 0.96723 -0.00600
C 	C 	0.47627 0.76083 0.87283 -0.01700
O 	O 	0.19202 0.30565 0.26720 -0.42000
O 	O 	0.17745 0.27622 0.35443 -0.41500
C 	C 	0.19066 0.27959 0.30457 0.39200
C 	C 	0.20667 0.24827 0.28757 -0.13800
C 	C 	0.20888 0.21965 0.32657 0.08500
H 	H 	0.20003 0.21907 0.36417 0.02000
C 	C 	0.22431 0.19189 0.30947 -0.16300
H 	H 	0.22563 0.17287 0.33617 0.10500
C 	C 	0.23780 0.19144 0.25447 0.12600
C 	C 	0.23547 0.22017 0.21517 -0.16000
H 	H 	0.24393 0.22027 0.17737 0.09100
C 	C 	0.22062 0.24864 0.23197 0.07900
H 	H 	0.21993 0.26817 0.20557 0.02100
C 	C 	0.25525 0.16244 0.23617 -0.07200
C 	C 	0.29377 0.18083 0.20277 -0.04300
H 	H 	0.30653 0.21017 0.19147 0.04600
C 	C 	0.12203 0.04407 0.30057 -0.00600
C 	C 	0.14293 0.09417 0.20617 -0.01700
O 	O 	0.21971 0.36102 0.39947 -0.42000
O 	O 	0.23457 0.39045 0.31224 -0.41500
C 	C 	0.24441 0.38708 0.36210 0.39200
C 	C 	0.29174 0.41840 0.37910 -0.13800
C 	C 	0.32257 0.44702 0.34010 0.08500
H 	H 	0.31430 0.44760 0.30250 0.02000
C 	C 	0.36576 0.47478 0.35720 -0.16300
H 	H 	0.38610 0.49380 0.33050 0.10500
C 	C 	0.37970 0.47523 0.41220 0.12600
C 	C 	0.34864 0.44650 0.45150 -0.16000
H 	H 	0.35700 0.44640 0.48930 0.09100
C 	C 	0.30532 0.41803 0.43470 0.07900
H 	H 	0.28510 0.39850 0.46110 0.02100
C 	C 	0.42615 0.50423 0.43050 -0.07200
C 	C 	0.44628 0.48584 0.46390 -0.04300
H 	H 	0.42970 0.45650 0.47520 0.04600
C 	C 	0.41130 0.62260 0.36610 -0.00600
C 	C 	0.38210 0.57250 0.46050 -0.01700
O 	O 	0.88638 0.69435 0.73280 -0.42000
O 	O 	0.90124 0.72378 0.64557 -0.41500
C 	C 	0.91108 0.72041 0.69543 0.39100
C 	C 	0.95841 0.75173 0.71243 -0.13800
C 	C 	0.98924 0.78035 0.67343 0.08400
H 	H 	0.98097 0.78093 0.63583 0.02000
C 	C 	0.03243 0.80811 0.69053 -0.16200
H 	H 	0.05277 0.82713 0.66383 0.10400
C 	C 	0.04637 0.80856 0.74553 0.12600
C 	C 	0.01531 0.77983 0.78483 -0.16000
H 	H 	0.02367 0.77973 0.82263 0.09100
C 	C 	0.97199 0.75136 0.76803 0.07900
H 	H 	0.95177 0.73183 0.79443 0.02100
C 	C 	0.09282 0.83756 0.76383 -0.07200
C 	C 	0.11295 0.81917 0.79723 -0.04300
H 	H 	0.09637 0.78983 0.80853 0.04600
C 	C 	0.07797 0.95593 0.69943 -0.00600
C 	C 	0.04877 0.90583 0.79383 -0.01700
O 	O 	0.55304 0.02769 0.06614 -0.42000
O 	O 	0.56790 0.05712 0.97891 -0.41500
C 	C 	0.57774 0.05375 0.02877 0.39200
C 	C 	0.62507 0.08507 0.04577 -0.13900
C 	C 	0.65590 0.11369 0.00677 0.08500
H 	H 	0.64763 0.11427 0.96917 0.02000
C 	C 	0.69909 0.14145 0.02387 -0.16300
H 	H 	0.71943 0.16047 0.99717 0.10400
C 	C 	0.71303 0.14190 0.07887 0.12600
C 	C 	0.68197 0.11317 0.11817 -0.16000
H 	H 	0.69033 0.11307 0.15597 0.09100
C 	C 	0.63865 0.08470 0.10137 0.07900
H 	H 	0.61843 0.06517 0.12777 0.02100
C 	C 	0.75948 0.17090 0.09717 -0.07200
C 	C 	0.77961 0.15251 0.13057 -0.04300
H 	H 	0.76303 0.12317 0.14187 0.04600
C 	C 	0.74463 0.28927 0.03277 -0.00600
C 	C 	0.71543 0.23917 0.12717 -0.01700
O 	O 	0.14131 0.78029 0.39947 -0.42000
O 	O 	0.15588 0.76543 0.31224 -0.41500
C 	C 	0.14267 0.75559 0.36210 0.39200
C 	C 	0.12666 0.70826 0.37910 -0.13800
C 	C 	0.12445 0.67743 0.34010 0.08500
H 	H 	0.13330 0.68570 0.30250 0.02000
C 	C 	0.10902 0.63424 0.35720 -0.16300
H 	H 	0.10770 0.61390 0.33050 0.10500
C 	C 	0.09553 0.62030 0.41220 0.12600
C 	C 	0.09786 0.65136 0.45150 -0.16000
H 	H 	0.08940 0.64300 0.48930 0.09100
C 	C 	0.11271 0.69468 0.43470 0.07900
H 	H 	0.11340 0.71490 0.46110 0.02100
C 	C 	0.07808 0.57385 0.43050 -0.07200
C 	C 	0.03956 0.55372 0.46390 -0.04300
H 	H 	0.02680 0.57030 0.47520 0.04600
C 	C 	0.21130 0.58870 0.36610 -0.00600
C 	C 	0.19040 0.61790 0.46050 -0.01700
O 	O 	0.80798 0.11362 0.73280 -0.42000
O 	O 	0.82255 0.09876 0.64557 -0.41500
C 	C 	0.80934 0.08892 0.69543 0.39100
C 	C 	0.79333 0.04159 0.71243 -0.13800
C 	C 	0.79112 0.01076 0.67343 0.08400
H 	H 	0.79997 0.01903 0.63583 0.02000
C 	C 	0.77569 0.96757 0.69053 -0.16300
H 	H 	0.77437 0.94723 0.66383 0.10400
C 	C 	0.76220 0.95363 0.74553 0.12600
C 	C 	0.76453 0.98469 0.78483 -0.16000
H 	H 	0.75607 0.97633 0.82263 0.09100
C 	C 	0.77938 0.02801 0.76803 0.07900
H 	H 	0.78007 0.04823 0.79443 0.02100
C 	C 	0.74475 0.90718 0.76383 -0.07200
C 	C 	0.70623 0.88705 0.79723 -0.04300
H 	H 	0.69347 0.90363 0.80853 0.04600
C 	C 	0.87797 0.92203 0.69943 -0.00600
C 	C 	0.85707 0.95123 0.79383 -0.01700
O 	O 	0.47464 0.44696 0.06614 -0.42000
O 	O 	0.48921 0.43210 0.97891 -0.41500
C 	C 	0.47600 0.42226 0.02877 0.39200
C 	C 	0.45999 0.37493 0.04577 -0.13800
C 	C 	0.45778 0.34410 0.00677 0.08500
H 	H 	0.46663 0.35237 0.96917 0.02000
C 	C 	0.44235 0.30091 0.02387 -0.16300
H 	H 	0.44103 0.28057 0.99717 0.10400
C 	C 	0.42886 0.28697 0.07887 0.12600
C 	C 	0.43119 0.31803 0.11817 -0.16000
H 	H 	0.42273 0.30967 0.15597 0.09100
C 	C 	0.44604 0.36135 0.10137 0.07900
H 	H 	0.44673 0.38157 0.12777 0.02100
C 	C 	0.41141 0.24052 0.09717 -0.07200
C 	C 	0.37289 0.22039 0.13057 -0.04300
H 	H 	0.36013 0.23697 0.14187 0.04600
C 	C 	0.54463 0.25537 0.03277 -0.00600
C 	C 	0.52373 0.28457 0.12717 -0.01700
O 	O 	0.63898 0.85869 0.39947 -0.42000
O 	O 	0.60955 0.84412 0.31224 -0.41500
C 	C 	0.61292 0.85733 0.36210 0.39200
C 	C 	0.58160 0.87334 0.37910 -0.13800
C 	C 	0.55298 0.87555 0.34010 0.08500
H 	H 	0.55240 0.86670 0.30250 0.02000
C 	C 	0.52522 0.89098 0.35720 -0.16300
H 	H 	0.50620 0.89230 0.33050 0.10500
C 	C 	0.52477 0.90447 0.41220 0.12600
C 	C 	0.55350 0.90214 0.45150 -0.16000
H 	H 	0.55360 0.91060 0.48930 0.09100
C 	C 	0.58197 0.88729 0.43470 0.07900
H 	H 	0.60150 0.88660 0.46110 0.02100
C 	C 	0.49577 0.92192 0.43050 -0.07200
C 	C 	0.51416 0.96044 0.46390 -0.04300
H 	H 	0.54350 0.97320 0.47520 0.04600
C 	C 	0.37740 0.78870 0.36610 -0.00600
C 	C 	0.42750 0.80960 0.46050 -0.01700
O 	O 	0.30565 0.19202 0.73280 -0.42000
O 	O 	0.27622 0.17745 0.64557 -0.41500
C 	C 	0.27959 0.19066 0.69543 0.39200
C 	C 	0.24827 0.20667 0.71243 -0.13800
C 	C 	0.21965 0.20888 0.67343 0.08500
H 	H 	0.21907 0.20003 0.63583 0.02000
C 	C 	0.19189 0.22431 0.69053 -0.16300
H 	H 	0.17287 0.22563 0.66383 0.10500
C 	C 	0.19144 0.23780 0.74553 0.12600
C 	C 	0.22017 0.23547 0.78483 -0.16000
H 	H 	0.22027 0.24393 0.82263 0.09100
C 	C 	0.24864 0.22062 0.76803 0.07900
H 	H 	0.26817 0.21993 0.79443 0.02100
C 	C 	0.16244 0.25525 0.76383 -0.07200
C 	C 	0.18083 0.29377 0.79723 -0.04300
H 	H 	0.21017 0.30653 0.80853 0.04600
C 	C 	0.04407 0.12203 0.69943 -0.00600
C 	C 	0.09417 0.14293 0.79383 -0.01700
O 	O 	0.97231 0.52536 0.06614 -0.42000
O 	O 	0.94288 0.51079 0.97891 -0.41500
C 	C 	0.94625 0.52400 0.02877 0.39200
C 	C 	0.91493 0.54001 0.04577 -0.13900
C 	C 	0.88631 0.54222 0.00677 0.08500
H 	H 	0.88573 0.53337 0.96917 0.02000
C 	C 	0.85855 0.55765 0.02387 -0.16300
H 	H 	0.83953 0.55897 0.99717 0.10400
C 	C 	0.85810 0.57114 0.07887 0.12600
C 	C 	0.88683 0.56881 0.11817 -0.16000
H 	H 	0.88693 0.57727 0.15597 0.09100
C 	C 	0.91530 0.55396 0.10137 0.07900
H 	H 	0.93483 0.55327 0.12777 0.02100
C 	C 	0.82910 0.58859 0.09717 -0.07200
C 	C 	0.84749 0.62711 0.13057 -0.04300
H 	H 	0.87683 0.63987 0.14187 0.04600
C 	C 	0.71073 0.45537 0.03277 -0.00600
C 	C 	0.76083 0.47627 0.12717 -0.01700
O 	O 	0.63898 0.78029 0.39947 -0.42000
O 	O 	0.60955 0.76543 0.31224 -0.41500
C 	C 	0.61292 0.75559 0.36210 0.39200
C 	C 	0.58160 0.70826 0.37910 -0.13800
C 	C 	0.55298 0.67743 0.34010 0.08500
H 	H 	0.55240 0.68570 0.30250 0.02000
C 	C 	0.52522 0.63424 0.35720 -0.16300
H 	H 	0.50620 0.61390 0.33050 0.10500
C 	C 	0.52477 0.62030 0.41220 0.12600
C 	C 	0.55350 0.65136 0.45150 -0.16000
H 	H 	0.55360 0.64300 0.48930 0.09100
C 	C 	0.58197 0.69468 0.43470 0.07900
H 	H 	0.60150 0.71490 0.46110 0.02100
C 	C 	0.49577 0.57385 0.43050 -0.07200
C 	C 	0.51416 0.55372 0.46390 -0.04300
H 	H 	0.54350 0.57030 0.47520 0.04600
C 	C 	0.37740 0.58870 0.36610 -0.00600
C 	C 	0.42750 0.61790 0.46050 -0.01700
O 	O 	0.30565 0.11362 0.73280 -0.42000
O 	O 	0.27622 0.09876 0.64557 -0.41500
C 	C 	0.27959 0.08892 0.69543 0.39100
C 	C 	0.24827 0.04159 0.71243 -0.13800
C 	C 	0.21965 0.01076 0.67343 0.08400
H 	H 	0.21907 0.01903 0.63583 0.02000
C 	C 	0.19189 0.96757 0.69053 -0.16200
H 	H 	0.17287 0.94723 0.66383 0.10400
C 	C 	0.19144 0.95363 0.74553 0.12600
C 	C 	0.22017 0.98469 0.78483 -0.16000
H 	H 	0.22027 0.97633 0.82263 0.09100
C 	C 	0.24864 0.02801 0.76803 0.07900
H 	H 	0.26817 0.04823 0.79443 0.02100
C 	C 	0.16244 0.90718 0.76383 -0.07200
C 	C 	0.18083 0.88705 0.79723 -0.04300
H 	H 	0.21017 0.90363 0.80853 0.04600
C 	C 	0.04407 0.92203 0.69943 -0.00600
C 	C 	0.09417 0.95123 0.79383 -0.01700
O 	O 	0.97231 0.44696 0.06614 -0.42000
O 	O 	0.94288 0.43210 0.97891 -0.41500
C 	C 	0.94625 0.42226 0.02877 0.39200
C 	C 	0.91493 0.37493 0.04577 -0.13900
C 	C 	0.88631 0.34410 0.00677 0.08500
H 	H 	0.88573 0.35237 0.96917 0.02000
C 	C 	0.85855 0.30091 0.02387 -0.16300
H 	H 	0.83953 0.28057 0.99717 0.10400
C 	C 	0.85810 0.28697 0.07887 0.12600
C 	C 	0.88683 0.31803 0.11817 -0.16000
H 	H 	0.88693 0.30967 0.15597 0.09100
C 	C 	0.91530 0.36135 0.10137 0.07900
H 	H 	0.93483 0.38157 0.12777 0.02100
C 	C 	0.82910 0.24052 0.09717 -0.07200
C 	C 	0.84749 0.22039 0.13057 -0.04300
H 	H 	0.87683 0.23697 0.14187 0.04600
C 	C 	0.71073 0.25537 0.03277 -0.00600
C 	C 	0.76083 0.28457 0.12717 -0.01700
O 	O 	0.21971 0.85869 0.39947 -0.42000
O 	O 	0.23457 0.84412 0.31224 -0.41500
C 	C 	0.24441 0.85733 0.36210 0.39200
C 	C 	0.29174 0.87334 0.37910 -0.13800
C 	C 	0.32257 0.87555 0.34010 0.08500
H 	H 	0.31430 0.86670 0.30250 0.02000
C 	C 	0.36576 0.89098 0.35720 -0.16300
H 	H 	0.38610 0.89230 0.33050 0.10500
C 	C 	0.37970 0.90447 0.41220 0.12600
C 	C 	0.34864 0.90214 0.45150 -0.16000
H 	H 	0.35700 0.91060 0.48930 0.09100
C 	C 	0.30532 0.88729 0.43470 0.07900
H 	H 	0.28510 0.88660 0.46110 0.02100
C 	C 	0.42615 0.92192 0.43050 -0.07200
C 	C 	0.44628 0.96044 0.46390 -0.04300
H 	H 	0.42970 0.97320 0.47520 0.04600
C 	C 	0.41130 0.78870 0.36610 -0.00600
C 	C 	0.38210 0.80960 0.46050 -0.01700
O 	O 	0.88638 0.19202 0.73280 -0.42000
O 	O 	0.90124 0.17745 0.64557 -0.41500
C 	C 	0.91108 0.19066 0.69543 0.39100
C 	C 	0.95841 0.20667 0.71243 -0.13800
C 	C 	0.98924 0.20888 0.67343 0.08400
H 	H 	0.98097 0.20003 0.63583 0.02000
C 	C 	0.03243 0.22431 0.69053 -0.16300
H 	H 	0.05277 0.22563 0.66383 0.10400
C 	C 	0.04637 0.23780 0.74553 0.12600
C 	C 	0.01531 0.23547 0.78483 -0.16000
H 	H 	0.02367 0.24393 0.82263 0.09100
C 	C 	0.97199 0.22062 0.76803 0.07900
H 	H 	0.95177 0.21993 0.79443 0.02100
C 	C 	0.09282 0.25525 0.76383 -0.07200
C 	C 	0.11295 0.29377 0.79723 -0.04300
H 	H 	0.09637 0.30653 0.80853 0.04600
C 	C 	0.07797 0.12203 0.69943 -0.00600
C 	C 	0.04877 0.14293 0.79383 -0.01700
O 	O 	0.55304 0.52536 0.06614 -0.42000
O 	O 	0.56790 0.51079 0.97891 -0.41500
C 	C 	0.57774 0.52400 0.02877 0.39200
C 	C 	0.62507 0.54001 0.04577 -0.13800
C 	C 	0.65590 0.54222 0.00677 0.08500
H 	H 	0.64763 0.53337 0.96917 0.02000
C 	C 	0.69909 0.55765 0.02387 -0.16300
H 	H 	0.71943 0.55897 0.99717 0.10400
C 	C 	0.71303 0.57114 0.07887 0.12600
C 	C 	0.68197 0.56881 0.11817 -0.16000
H 	H 	0.69033 0.57727 0.15597 0.09100
C 	C 	0.63865 0.55396 0.10137 0.07900
H 	H 	0.61843 0.55327 0.12777 0.02100
C 	C 	0.75948 0.58859 0.09717 -0.07200
C 	C 	0.77961 0.62711 0.13057 -0.04300
H 	H 	0.76303 0.63987 0.14187 0.04600
C 	C 	0.74463 0.45537 0.03277 -0.00600
C 	C 	0.71543 0.47627 0.12717 -0.01700
O 	O 	0.14131 0.36102 0.39947 -0.42000
O 	O 	0.15588 0.39045 0.31224 -0.41500
C 	C 	0.14267 0.38708 0.36210 0.39200
C 	C 	0.12666 0.41840 0.37910 -0.13800
C 	C 	0.12445 0.44702 0.34010 0.08500
H 	H 	0.13330 0.44760 0.30250 0.02000
C 	C 	0.10902 0.47478 0.35720 -0.16300
H 	H 	0.10770 0.49380 0.33050 0.10500
C 	C 	0.09553 0.47523 0.41220 0.12600
C 	C 	0.09786 0.44650 0.45150 -0.16000
H 	H 	0.08940 0.44640 0.48930 0.09100
C 	C 	0.11271 0.41803 0.43470 0.07900
H 	H 	0.11340 0.39850 0.46110 0.02100
C 	C 	0.07808 0.50423 0.43050 -0.07200
C 	C 	0.03956 0.48584 0.46390 -0.04300
H 	H 	0.02680 0.45650 0.47520 0.04600
C 	C 	0.21130 0.62260 0.36610 -0.00600
C 	C 	0.19040 0.57250 0.46050 -0.01700
O 	O 	0.80798 0.69435 0.73280 -0.42000
O 	O 	0.82255 0.72378 0.64557 -0.41500
C 	C 	0.80934 0.72041 0.69543 0.39200
C 	C 	0.79333 0.75173 0.71243 -0.13800
C 	C 	0.79112 0.78035 0.67343 0.08500
H 	H 	0.79997 0.78093 0.63583 0.02000
C 	C 	0.77569 0.80811 0.69053 -0.16300
H 	H 	0.77437 0.82713 0.66383 0.10500
C 	C 	0.76220 0.80856 0.74553 0.12600
C 	C 	0.76453 0.77983 0.78483 -0.16000
H 	H 	0.75607 0.77973 0.82263 0.09100
C 	C 	0.77938 0.75136 0.76803 0.07900
H 	H 	0.78007 0.73183 0.79443 0.02100
C 	C 	0.74475 0.83756 0.76383 -0.07200
C 	C 	0.70623 0.81917 0.79723 -0.04300
H 	H 	0.69347 0.78983 0.80853 0.04600
C 	C 	0.87797 0.95593 0.69943 -0.00600
C 	C 	0.85707 0.90583 0.79383 -0.01700
O 	O 	0.47464 0.02769 0.06614 -0.42000
O 	O 	0.48921 0.05712 0.97891 -0.41500
C 	C 	0.47600 0.05375 0.02877 0.39200
C 	C 	0.45999 0.08507 0.04577 -0.13900
C 	C 	0.45778 0.11369 0.00677 0.08500
H 	H 	0.46663 0.11427 0.96917 0.02000
C 	C 	0.44235 0.14145 0.02387 -0.16300
H 	H 	0.44103 0.16047 0.99717 0.10400
C 	C 	0.42886 0.14190 0.07887 0.12600
C 	C 	0.43119 0.11317 0.11817 -0.16000
H 	H 	0.42273 0.11307 0.15597 0.09100
C 	C 	0.44604 0.08470 0.10137 0.07900
H 	H 	0.44673 0.06517 0.12777 0.02100
C 	C 	0.41141 0.17090 0.09717 -0.07200
C 	C 	0.37289 0.15251 0.13057 -0.04300
H 	H 	0.36013 0.12317 0.14187 0.04600
C 	C 	0.54463 0.28927 0.03277 -0.00600
C 	C 	0.52373 0.23917 0.12717 -0.01700
O 	O 	0.78029 0.63898 0.60053 -0.42000
O 	O 	0.76543 0.60955 0.68776 -0.41500
C 	C 	0.75559 0.61292 0.63790 0.39200
C 	C 	0.70826 0.58160 0.62090 -0.13800
C 	C 	0.67743 0.55298 0.65990 0.08500
H 	H 	0.68570 0.55240 0.69750 0.02000
C 	C 	0.63424 0.52522 0.64280 -0.16300
H 	H 	0.61390 0.50620 0.66950 0.10500
C 	C 	0.62030 0.52477 0.58780 0.12600
C 	C 	0.65136 0.55350 0.54850 -0.16000
H 	H 	0.64300 0.55360 0.51070 0.09100
C 	C 	0.69468 0.58197 0.56530 0.07900
H 	H 	0.71490 0.60150 0.53890 0.02100
C 	C 	0.57385 0.49577 0.56950 -0.07200
C 	C 	0.55372 0.51416 0.53610 -0.04300
H 	H 	0.57030 0.54350 0.52480 0.04600
C 	C 	0.58870 0.37740 0.63390 -0.00600
C 	C 	0.61790 0.42750 0.53950 -0.01700
O 	O 	0.44696 0.97231 0.93386 -0.42000
O 	O 	0.43210 0.94288 0.02109 -0.41500
C 	C 	0.42226 0.94625 0.97123 0.39200
C 	C 	0.37493 0.91493 0.95423 -0.13900
C 	C 	0.34410 0.88631 0.99323 0.08500
H 	H 	0.35237 0.88573 0.03083 0.02000
C 	C 	0.30091 0.85855 0.97613 -0.16300
H 	H 	0.28057 0.83953 0.00283 0.10400
C 	C 	0.28697 0.85810 0.92113 0.12600
C 	C 	0.31803 0.88683 0.88183 -0.16000
H 	H 	0.30967 0.88693 0.84403 0.09100
C 	C 	0.36135 0.91530 0.89863 0.07900
H 	H 	0.38157 0.93483 0.87223 0.02100
C 	C 	0.24052 0.82910 0.90283 -0.07200
C 	C 	0.22039 0.84749 0.86943 -0.04300
H 	H 	0.23697 0.87683 0.85813 0.04600
C 	C 	0.25537 0.71073 0.96723 -0.00600
C 	C 	0.28457 0.76083 0.87283 -0.01700
O 	O 	0.11362 0.30565 0.26720 -0.42000
O 	O 	0.09876 0.27622 0.35443 -0.41500
C 	C 	0.08892 0.27959 0.30457 0.39100
C 	C 	0.04159 0.24827 0.28757 -0.13800
C 	C 	0.01076 0.21965 0.32657 0.08400
H 	H 	0.01903 0.21907 0.36417 0.02000
C 	C 	0.96757 0.19189 0.30947 -0.16200
H 	H 	0.94723 0.17287 0.33617 0.10400
C 	C 	0.95363 0.19144 0.25447 0.12600
C 	C 	0.98469 0.22017 0.21517 -0.16000
H 	H 	0.97633 0.22027 0.17737 0.09100
C 	C 	0.02801 0.24864 0.23197 0.07900
H 	H 	0.04823 0.26817 0.20557 0.02100
C 	C 	0.90718 0.16244 0.23617 -0.07200
C 	C 	0.88705 0.18083 0.20277 -0.04300
H 	H 	0.90363 0.21017 0.19147 0.04600
C 	C 	0.92203 0.04407 0.30057 -0.00600
C 	C 	0.95123 0.09417 0.20617 -0.01700
O 	O 	0.85869 0.21971 0.60053 -0.42000
O 	O 	0.84412 0.23457 0.68776 -0.41500
C 	C 	0.85733 0.24441 0.63790 0.39200
C 	C 	0.87334 0.29174 0.62090 -0.13800
C 	C 	0.87555 0.32257 0.65990 0.08500
H 	H 	0.86670 0.31430 0.69750 0.02000
C 	C 	0.89098 0.36576 0.64280 -0.16300
H 	H 	0.89230 0.38610 0.66950 0.10500
C 	C 	0.90447 0.37970 0.58780 0.12600
C 	C 	0.90214 0.34864 0.54850 -0.16000
H 	H 	0.91060 0.35700 0.51070 0.09100
C 	C 	0.88729 0.30532 0.56530 0.07900
H 	H 	0.88660 0.28510 0.53890 0.02100
C 	C 	0.92192 0.42615 0.56950 -0.07200
C 	C 	0.96044 0.44628 0.53610 -0.04300
H 	H 	0.97320 0.42970 0.52480 0.04600
C 	C 	0.78870 0.41130 0.63390 -0.00600
C 	C 	0.80960 0.38210 0.53950 -0.01700
O 	O 	0.52536 0.55304 0.93386 -0.42000
O 	O 	0.51079 0.56790 0.02109 -0.41500
C 	C 	0.52400 0.57774 0.97123 0.39200
C 	C 	0.54001 0.62507 0.95423 -0.13800
C 	C 	0.54222 0.65590 0.99323 0.08500
H 	H 	0.53337 0.64763 0.03083 0.02000
C 	C 	0.55765 0.69909 0.97613 -0.16300
H 	H 	0.55897 0.71943 0.00283 0.10400
C 	C 	0.57114 0.71303 0.92113 0.12600
C 	C 	0.56881 0.68197 0.88183 -0.16000
H 	H 	0.57727 0.69033 0.84403 0.09100
C 	C 	0.55396 0.63865 0.89863 0.07900
H 	H 	0.55327 0.61843 0.87223 0.02100
C 	C 	0.58859 0.75948 0.90283 -0.07200
C 	C 	0.62711 0.77961 0.86943 -0.04300
H 	H 	0.63987 0.76303 0.85813 0.04600
C 	C 	0.45537 0.74463 0.96723 -0.00600
C 	C 	0.47627 0.71543 0.87283 -0.01700
O 	O 	0.19202 0.88638 0.26720 -0.42000
O 	O 	0.17745 0.90124 0.35443 -0.41500
C 	C 	0.19066 0.91108 0.30457 0.39100
C 	C 	0.20667 0.95841 0.28757 -0.13800
C 	C 	0.20888 0.98924 0.32657 0.08400
H 	H 	0.20003 0.98097 0.36417 0.02000
C 	C 	0.22431 0.03243 0.30947 -0.16300
H 	H 	0.22563 0.05277 0.33617 0.10400
C 	C 	0.23780 0.04637 0.25447 0.12600
C 	C 	0.23547 0.01531 0.21517 -0.16000
H 	H 	0.24393 0.02367 0.17737 0.09100
C 	C 	0.22062 0.97199 0.23197 0.07900
H 	H 	0.21993 0.95177 0.20557 0.02100
C 	C 	0.25525 0.09282 0.23617 -0.07200
C 	C 	0.29377 0.11295 0.20277 -0.04300
H 	H 	0.30653 0.09637 0.19147 0.04600
C 	C 	0.12203 0.07797 0.30057 -0.00600
C 	C 	0.14293 0.04877 0.20617 -0.01700
O 	O 	0.36102 0.14131 0.60053 -0.42000
O 	O 	0.39045 0.15588 0.68776 -0.41500
C 	C 	0.38708 0.14267 0.63790 0.39200
C 	C 	0.41840 0.12666 0.62090 -0.13800
C 	C 	0.44702 0.12445 0.65990 0.08500
H 	H 	0.44760 0.13330 0.69750 0.02000
C 	C 	0.47478 0.10902 0.64280 -0.16300
H 	H 	0.49380 0.10770 0.66950 0.10500
C 	C 	0.47523 0.09553 0.58780 0.12600
C 	C 	0.44650 0.09786 0.54850 -0.16000
H 	H 	0.44640 0.08940 0.51070 0.09100
C 	C 	0.41803 0.11271 0.56530 0.07900
H 	H 	0.39850 0.11340 0.53890 0.02100
C 	C 	0.50423 0.07808 0.56950 -0.07200
C 	C 	0.48584 0.03956 0.53610 -0.04300
H 	H 	0.45650 0.02680 0.52480 0.04600
C 	C 	0.62260 0.21130 0.63390 -0.00600
C 	C 	0.57250 0.19040 0.53950 -0.01700
O 	O 	0.02769 0.47464 0.93386 -0.42000
O 	O 	0.05712 0.48921 0.02109 -0.41500
C 	C 	0.05375 0.47600 0.97123 0.39200
C 	C 	0.08507 0.45999 0.95423 -0.13900
C 	C 	0.11369 0.45778 0.99323 0.08500
H 	H 	0.11427 0.46663 0.03083 0.02000
C 	C 	0.14145 0.44235 0.97613 -0.16300
H 	H 	0.16047 0.44103 0.00283 0.10400
C 	C 	0.14190 0.42886 0.92113 0.12600
C 	C 	0.11317 0.43119 0.88183 -0.16000
H 	H 	0.11307 0.42273 0.84403 0.09100
C 	C 	0.08470 0.44604 0.89863 0.07900
H 	H 	0.06517 0.44673 0.87223 0.02100
C 	C 	0.17090 0.41141 0.90283 -0.07200
C 	C 	0.15251 0.37289 0.86943 -0.04300
H 	H 	0.12317 0.36013 0.85813 0.04600
C 	C 	0.28927 0.54463 0.96723 -0.00600
C 	C 	0.23917 0.52373 0.87283 -0.01700
O 	O 	0.69435 0.80798 0.26720 -0.42000
O 	O 	0.72378 0.82255 0.35443 -0.41500
C 	C 	0.72041 0.80934 0.30457 0.39200
C 	C 	0.75173 0.79333 0.28757 -0.13800
C 	C 	0.78035 0.79112 0.32657 0.08500
H 	H 	0.78093 0.79997 0.36417 0.02000
C 	C 	0.80811 0.77569 0.30947 -0.16300
H 	H 	0.82713 0.77437 0.33617 0.10500
C 	C 	0.80856 0.76220 0.25447 0.12600
C 	C 	0.77983 0.76453 0.21517 -0.16000
H 	H 	0.77973 0.75607 0.17737 0.09100
C 	C 	0.75136 0.77938 0.23197 0.07900
H 	H 	0.73183 0.78007 0.20557 0.02100
C 	C 	0.83756 0.74475 0.23617 -0.07200
C 	C 	0.81917 0.70623 0.20277 -0.04300
H 	H 	0.78983 0.69347 0.19147 0.04600
C 	C 	0.95593 0.87797 0.30057 -0.00600
C 	C 	0.90583 0.85707 0.20617 -0.01700
Cu	Cu	0.35020 0.17510 0.71849 0.90500
Cu	Cu	0.01687 0.50843 0.05182 0.90500
Cu	Cu	0.68353 0.84177 0.38516 0.90500
Cu	Cu	0.82490 0.17510 0.71849 0.90500
Cu	Cu	0.49157 0.50843 0.05182 0.90500
Cu	Cu	0.15823 0.84177 0.38516 0.90500
Cu	Cu	0.82490 0.64980 0.71849 0.90500
Cu	Cu	0.49157 0.98313 0.05182 0.90500
Cu	Cu	0.15823 0.31647 0.38516 0.90500
Cu	Cu	0.17510 0.35020 0.28151 0.90500
Cu	Cu	0.84177 0.68353 0.61484 0.90500
Cu	Cu	0.50843 0.01687 0.94818 0.90500
Cu	Cu	0.17510 0.82490 0.28151 0.90500
Cu	Cu	0.84177 0.15823 0.61484 0.90500
Cu	Cu	0.50843 0.49157 0.94818 0.90500
Cu	Cu	0.64980 0.82490 0.28151 0.90500
Cu	Cu	0.31647 0.15823 0.61484 0.90500
Cu	Cu	0.98313 0.49157 0.94818 0.90500
O 	O 	0.56719 0.43281 0.61980 -0.22200
C 	C 	0.51001 0.48999 0.51950 0.00900
C 	C 	0.54805 0.45195 0.58570 0.14100
C 	C 	0.58843 0.41157 0.59190 0.10500
O 	O 	0.23386 0.76614 0.95313 -0.22200
C 	C 	0.17668 0.82332 0.85283 0.00900
C 	C 	0.21472 0.78528 0.91903 0.14100
C 	C 	0.25510 0.74490 0.92523 0.10400
O 	O 	0.90052 0.09948 0.28647 -0.22200
C 	C 	0.84334 0.15666 0.18617 0.00900
C 	C 	0.88138 0.11862 0.25237 0.14100
C 	C 	0.92176 0.07824 0.25857 0.10400
O 	O 	0.56719 0.13438 0.61980 -0.22200
C 	C 	0.51001 0.02002 0.51950 0.00900
C 	C 	0.54805 0.09610 0.58570 0.14100
C 	C 	0.58843 0.17686 0.59190 0.10500
O 	O 	0.23386 0.46771 0.95313 -0.22200
C 	C 	0.17668 0.35335 0.85283 0.00900
C 	C 	0.21472 0.42943 0.91903 0.14100
C 	C 	0.25510 0.51019 0.92523 0.10500
O 	O 	0.90052 0.80105 0.28647 -0.22200
C 	C 	0.84334 0.68669 0.18617 0.00900
C 	C 	0.88138 0.76277 0.25237 0.14100
C 	C 	0.92176 0.84353 0.25857 0.10500
O 	O 	0.86562 0.43281 0.61980 -0.22200
C 	C 	0.97998 0.48999 0.51950 0.00900
C 	C 	0.90390 0.45195 0.58570 0.14100
C 	C 	0.82314 0.41157 0.59190 0.10500
O 	O 	0.53229 0.76614 0.95313 -0.22200
C 	C 	0.64665 0.82332 0.85283 0.00900
C 	C 	0.57057 0.78528 0.91903 0.14100
C 	C 	0.48981 0.74490 0.92523 0.10500
O 	O 	0.19895 0.09948 0.28647 -0.22200
C 	C 	0.31331 0.15666 0.18617 0.00900
C 	C 	0.23723 0.11862 0.25237 0.14100
C 	C 	0.15647 0.07824 0.25857 0.10500
O 	O 	0.43281 0.56719 0.38020 -0.22200
C 	C 	0.48999 0.51001 0.48050 0.00900
C 	C 	0.45195 0.54805 0.41430 0.14100
C 	C 	0.41157 0.58843 0.40810 0.10500
O 	O 	0.09948 0.90052 0.71353 -0.22200
C 	C 	0.15666 0.84334 0.81383 0.00900
C 	C 	0.11862 0.88138 0.74763 0.14100
C 	C 	0.07824 0.92176 0.74143 0.10400
O 	O 	0.76614 0.23386 0.04687 -0.22200
C 	C 	0.82332 0.17668 0.14717 0.00900
C 	C 	0.78528 0.21472 0.08097 0.14100
C 	C 	0.74490 0.25510 0.07477 0.10400
O 	O 	0.13438 0.56719 0.38020 -0.22200
C 	C 	0.02002 0.51001 0.48050 0.00900
C 	C 	0.09610 0.54805 0.41430 0.14100
C 	C 	0.17686 0.58843 0.40810 0.10500
O 	O 	0.80105 0.90052 0.71353 -0.22200
C 	C 	0.68669 0.84334 0.81383 0.00900
C 	C 	0.76277 0.88138 0.74763 0.14100
C 	C 	0.84353 0.92176 0.74143 0.10500
O 	O 	0.46771 0.23386 0.04687 -0.22200
C 	C 	0.35335 0.17668 0.14717 0.00900
C 	C 	0.42943 0.21472 0.08097 0.14100
C 	C 	0.51019 0.25510 0.07477 0.10500
O 	O 	0.43281 0.86562 0.38020 -0.22200
C 	C 	0.48999 0.97998 0.48050 0.00900
C 	C 	0.45195 0.90390 0.41430 0.14100
C 	C 	0.41157 0.82314 0.40810 0.10500
O 	O 	0.09948 0.19895 0.71353 -0.22200
C 	C 	0.15666 0.31331 0.81383 0.00900
C 	C 	0.11862 0.23723 0.74763 0.14100
C 	C 	0.07824 0.15647 0.74143 0.10500
O 	O 	0.76614 0.53229 0.04687 -0.22200
C 	C 	0.82332 0.64665 0.14717 0.00900
C 	C 	0.78528 0.57057 0.08097 0.14100
C 	C 	0.74490 0.48981 0.07477 0.10500
