data_crystal

_cell_length_a 35.36570
_cell_length_b 35.36570
_cell_length_c 20.22400
_cell_angle_alpha 90.00000
_cell_angle_beta  90.00000
_cell_angle_gamma 120.00000

_symmetry_space_group_name_	'P 1'
_symmetry_space_group_name_H-M	'P 1'

loop_
_symmetry_equiv_pos_as_xyz
  x,y,z

loop_
_atom_site_label
_atom_site_type_symbol
_atom_site_fract_x
_atom_site_fract_y
_atom_site_fract_z
_atom_site_charge
O 	O 	0.30285 0.11256 0.24098 -0.40400
O 	O 	0.27831 0.10028 0.13578 -0.40700
C 	C 	0.27838 0.08882 0.19410 0.36700
C 	C 	0.24609 0.04229 0.21240 -0.12700
C 	C 	0.21895 0.01322 0.16330 0.07400
H 	H 	0.22020 0.02280 0.12010 0.02600
C 	C 	0.19021 0.96985 0.18000 -0.15700
H 	H 	0.17140 0.95080 0.14810 0.10400
C 	C 	0.18920 0.95490 0.24220 0.12300
C 	C 	0.21618 0.98334 0.29120 -0.15300
H 	H 	0.21520 0.97350 0.33420 0.09000
C 	C 	0.24511 0.02758 0.27420 0.07300
H 	H 	0.26370 0.04670 0.30620 0.02500
C 	C 	0.16078 0.90791 0.26160 -0.06800
C 	C 	0.17908 0.88747 0.29700 -0.04300
H 	H 	0.20820 0.90400 0.30940 0.04700
C 	C 	0.03850 0.91870 0.20070 -0.00800
C 	C 	0.09320 0.94950 0.29890 -0.02000
O 	O 	0.96952 0.44589 0.57431 -0.40500
O 	O 	0.94498 0.43361 0.46911 -0.40800
C 	C 	0.94505 0.42215 0.52743 0.36600
C 	C 	0.91276 0.37562 0.54573 -0.12800
C 	C 	0.88562 0.34655 0.49663 0.07300
H 	H 	0.88687 0.35613 0.45343 0.02500
C 	C 	0.85688 0.30318 0.51333 -0.15800
H 	H 	0.83807 0.28413 0.48143 0.10300
C 	C 	0.85587 0.28823 0.57553 0.12200
C 	C 	0.88285 0.31667 0.62453 -0.15400
H 	H 	0.88187 0.30683 0.66753 0.08900
C 	C 	0.91178 0.36091 0.60753 0.07200
H 	H 	0.93037 0.38003 0.63953 0.02400
C 	C 	0.82745 0.24124 0.59493 -0.06900
C 	C 	0.84575 0.22080 0.63033 -0.04300
H 	H 	0.87487 0.23733 0.64273 0.04700
C 	C 	0.70517 0.25203 0.53403 -0.00800
C 	C 	0.75987 0.28283 0.63223 -0.02000
O 	O 	0.63618 0.77923 0.90765 -0.40500
O 	O 	0.61164 0.76695 0.80245 -0.40800
C 	C 	0.61171 0.75549 0.86077 0.36600
C 	C 	0.57942 0.70896 0.87907 -0.12800
C 	C 	0.55228 0.67989 0.82997 0.07300
H 	H 	0.55353 0.68947 0.78677 0.02500
C 	C 	0.52354 0.63652 0.84667 -0.15800
H 	H 	0.50473 0.61747 0.81477 0.10300
C 	C 	0.52253 0.62157 0.90887 0.12200
C 	C 	0.54951 0.65001 0.95787 -0.15400
H 	H 	0.54853 0.64017 0.00087 0.08900
C 	C 	0.57844 0.69425 0.94087 0.07200
H 	H 	0.59703 0.71337 0.97287 0.02400
C 	C 	0.49411 0.57458 0.92827 -0.06900
C 	C 	0.51241 0.55414 0.96367 -0.04300
H 	H 	0.54153 0.57067 0.97607 0.04700
C 	C 	0.37183 0.58537 0.86737 -0.00800
C 	C 	0.42653 0.61617 0.96557 -0.02000
O 	O 	0.88744 0.19029 0.24098 -0.40500
O 	O 	0.89972 0.17803 0.13578 -0.40800
C 	C 	0.91118 0.18956 0.19410 0.36600
C 	C 	0.95771 0.20380 0.21240 -0.12800
C 	C 	0.98678 0.20573 0.16330 0.07300
H 	H 	0.97720 0.19740 0.12010 0.02500
C 	C 	0.03015 0.22036 0.18000 -0.15800
H 	H 	0.04920 0.22060 0.14810 0.10300
C 	C 	0.04510 0.23430 0.24220 0.12200
C 	C 	0.01666 0.23284 0.29120 -0.15400
H 	H 	0.02650 0.24170 0.33420 0.08900
C 	C 	0.97242 0.21753 0.27420 0.07200
H 	H 	0.95330 0.21700 0.30620 0.02400
C 	C 	0.09209 0.25287 0.26160 -0.06900
C 	C 	0.11253 0.29161 0.29700 -0.04300
H 	H 	0.09600 0.30420 0.30940 0.04700
C 	C 	0.08130 0.11980 0.20070 -0.00800
C 	C 	0.05050 0.14370 0.29890 -0.02000
O 	O 	0.55411 0.52362 0.57431 -0.40500
O 	O 	0.56639 0.51136 0.46911 -0.40800
C 	C 	0.57785 0.52289 0.52743 0.36600
C 	C 	0.62438 0.53713 0.54573 -0.12800
C 	C 	0.65345 0.53906 0.49663 0.07300
H 	H 	0.64387 0.53073 0.45343 0.02500
C 	C 	0.69682 0.55369 0.51333 -0.15800
H 	H 	0.71587 0.55393 0.48143 0.10300
C 	C 	0.71177 0.56763 0.57553 0.12200
C 	C 	0.68333 0.56617 0.62453 -0.15400
H 	H 	0.69317 0.57503 0.66753 0.08900
C 	C 	0.63909 0.55086 0.60753 0.07200
H 	H 	0.61997 0.55033 0.63953 0.02400
C 	C 	0.75876 0.58620 0.59493 -0.06900
C 	C 	0.77920 0.62494 0.63033 -0.04300
H 	H 	0.76267 0.63753 0.64273 0.04700
C 	C 	0.74797 0.45313 0.53403 -0.00800
C 	C 	0.71717 0.47703 0.63223 -0.02000
O 	O 	0.22077 0.85696 0.90765 -0.40500
O 	O 	0.23305 0.84470 0.80245 -0.40800
C 	C 	0.24451 0.85623 0.86077 0.36600
C 	C 	0.29104 0.87047 0.87907 -0.12800
C 	C 	0.32011 0.87240 0.82997 0.07300
H 	H 	0.31053 0.86407 0.78677 0.02500
C 	C 	0.36348 0.88703 0.84667 -0.15800
H 	H 	0.38253 0.88727 0.81477 0.10300
C 	C 	0.37843 0.90097 0.90887 0.12200
C 	C 	0.34999 0.89951 0.95787 -0.15400
H 	H 	0.35983 0.90837 0.00087 0.08900
C 	C 	0.30575 0.88420 0.94087 0.07200
H 	H 	0.28663 0.88367 0.97287 0.02400
C 	C 	0.42542 0.91954 0.92827 -0.06900
C 	C 	0.44586 0.95828 0.96367 -0.04300
H 	H 	0.42933 0.97087 0.97607 0.04700
C 	C 	0.41463 0.78647 0.86737 -0.00800
C 	C 	0.38383 0.81037 0.96557 -0.02000
O 	O 	0.80971 0.69715 0.24098 -0.40500
O 	O 	0.82197 0.72169 0.13578 -0.40800
C 	C 	0.81044 0.72162 0.19410 0.36600
C 	C 	0.79620 0.75391 0.21240 -0.12800
C 	C 	0.79427 0.78105 0.16330 0.07300
H 	H 	0.80260 0.77980 0.12010 0.02500
C 	C 	0.77964 0.80979 0.18000 -0.15800
H 	H 	0.77940 0.82860 0.14810 0.10300
C 	C 	0.76570 0.81080 0.24220 0.12200
C 	C 	0.76716 0.78382 0.29120 -0.15400
H 	H 	0.75830 0.78480 0.33420 0.08900
C 	C 	0.78247 0.75489 0.27420 0.07200
H 	H 	0.78300 0.73630 0.30620 0.02400
C 	C 	0.74713 0.83922 0.26160 -0.06900
C 	C 	0.70839 0.82092 0.29700 -0.04300
H 	H 	0.69580 0.79180 0.30940 0.04700
C 	C 	0.88020 0.96150 0.20070 -0.00800
C 	C 	0.85630 0.90680 0.29890 -0.02000
O 	O 	0.47638 0.03048 0.57431 -0.40500
O 	O 	0.48864 0.05502 0.46911 -0.40800
C 	C 	0.47711 0.05495 0.52743 0.36600
C 	C 	0.46287 0.08724 0.54573 -0.12800
C 	C 	0.46094 0.11438 0.49663 0.07300
H 	H 	0.46927 0.11313 0.45343 0.02500
C 	C 	0.44631 0.14312 0.51333 -0.15800
H 	H 	0.44607 0.16193 0.48143 0.10300
C 	C 	0.43237 0.14413 0.57553 0.12200
C 	C 	0.43383 0.11715 0.62453 -0.15400
H 	H 	0.42497 0.11813 0.66753 0.08900
C 	C 	0.44914 0.08822 0.60753 0.07200
H 	H 	0.44967 0.06963 0.63953 0.02400
C 	C 	0.41380 0.17255 0.59493 -0.06900
C 	C 	0.37506 0.15425 0.63033 -0.04300
H 	H 	0.36247 0.12513 0.64273 0.04700
C 	C 	0.54687 0.29483 0.53403 -0.00800
C 	C 	0.52297 0.24013 0.63223 -0.02000
O 	O 	0.14304 0.36382 0.90765 -0.40500
O 	O 	0.15530 0.38836 0.80245 -0.40800
C 	C 	0.14377 0.38829 0.86077 0.36600
C 	C 	0.12953 0.42058 0.87907 -0.12800
C 	C 	0.12760 0.44772 0.82997 0.07300
H 	H 	0.13593 0.44647 0.78677 0.02500
C 	C 	0.11297 0.47646 0.84667 -0.15800
H 	H 	0.11273 0.49527 0.81477 0.10300
C 	C 	0.09903 0.47747 0.90887 0.12200
C 	C 	0.10049 0.45049 0.95787 -0.15400
H 	H 	0.09163 0.45147 0.00087 0.08900
C 	C 	0.11580 0.42156 0.94087 0.07200
H 	H 	0.11633 0.40297 0.97287 0.02400
C 	C 	0.08046 0.50589 0.92827 -0.06900
C 	C 	0.04172 0.48759 0.96367 -0.04300
H 	H 	0.02913 0.45847 0.97607 0.04700
C 	C 	0.21353 0.62817 0.86737 -0.00800
C 	C 	0.18963 0.57347 0.96557 -0.02000
O 	O 	0.11256 0.30285 0.75902 -0.40500
O 	O 	0.10028 0.27831 0.86422 -0.40800
C 	C 	0.08882 0.27838 0.80590 0.36600
C 	C 	0.04229 0.24609 0.78760 -0.12800
C 	C 	0.01322 0.21895 0.83670 0.07300
H 	H 	0.02280 0.22020 0.87990 0.02500
C 	C 	0.96985 0.19021 0.82000 -0.15800
H 	H 	0.95080 0.17140 0.85190 0.10300
C 	C 	0.95490 0.18920 0.75780 0.12200
C 	C 	0.98334 0.21618 0.70880 -0.15400
H 	H 	0.97350 0.21520 0.66580 0.08900
C 	C 	0.02758 0.24511 0.72580 0.07200
H 	H 	0.04670 0.26370 0.69380 0.02400
C 	C 	0.90791 0.16078 0.73840 -0.06900
C 	C 	0.88747 0.17908 0.70300 -0.04300
H 	H 	0.90400 0.20820 0.69060 0.04700
C 	C 	0.91870 0.03850 0.79930 -0.00800
C 	C 	0.94950 0.09320 0.70110 -0.02000
O 	O 	0.77923 0.63618 0.09235 -0.40500
O 	O 	0.76695 0.61164 0.19755 -0.40800
C 	C 	0.75549 0.61171 0.13923 0.36600
C 	C 	0.70896 0.57942 0.12093 -0.12800
C 	C 	0.67989 0.55228 0.17003 0.07300
H 	H 	0.68947 0.55353 0.21323 0.02500
C 	C 	0.63652 0.52354 0.15333 -0.15800
H 	H 	0.61747 0.50473 0.18523 0.10300
C 	C 	0.62157 0.52253 0.09113 0.12200
C 	C 	0.65001 0.54951 0.04213 -0.15400
H 	H 	0.64017 0.54853 0.99913 0.08900
C 	C 	0.69425 0.57844 0.05913 0.07200
H 	H 	0.71337 0.59703 0.02713 0.02400
C 	C 	0.57458 0.49411 0.07173 -0.06900
C 	C 	0.55414 0.51241 0.03633 -0.04300
H 	H 	0.57067 0.54153 0.02393 0.04700
C 	C 	0.58537 0.37183 0.13263 -0.00800
C 	C 	0.61617 0.42653 0.03443 -0.02000
O 	O 	0.44589 0.96952 0.42569 -0.40500
O 	O 	0.43361 0.94498 0.53089 -0.40800
C 	C 	0.42215 0.94505 0.47257 0.36600
C 	C 	0.37562 0.91276 0.45427 -0.12800
C 	C 	0.34655 0.88562 0.50337 0.07300
H 	H 	0.35613 0.88687 0.54657 0.02500
C 	C 	0.30318 0.85688 0.48667 -0.15800
H 	H 	0.28413 0.83807 0.51857 0.10300
C 	C 	0.28823 0.85587 0.42447 0.12200
C 	C 	0.31667 0.88285 0.37547 -0.15400
H 	H 	0.30683 0.88187 0.33247 0.08900
C 	C 	0.36091 0.91178 0.39247 0.07200
H 	H 	0.38003 0.93037 0.36047 0.02400
C 	C 	0.24124 0.82745 0.40507 -0.06900
C 	C 	0.22080 0.84575 0.36967 -0.04300
H 	H 	0.23733 0.87487 0.35727 0.04700
C 	C 	0.25203 0.70517 0.46597 -0.00800
C 	C 	0.28283 0.75987 0.36777 -0.02000
O 	O 	0.19029 0.88744 0.75902 -0.40500
O 	O 	0.17803 0.89972 0.86422 -0.40800
C 	C 	0.18956 0.91118 0.80590 0.36600
C 	C 	0.20380 0.95771 0.78760 -0.12800
C 	C 	0.20573 0.98678 0.83670 0.07300
H 	H 	0.19740 0.97720 0.87990 0.02500
C 	C 	0.22036 0.03015 0.82000 -0.15800
H 	H 	0.22060 0.04920 0.85190 0.10300
C 	C 	0.23430 0.04510 0.75780 0.12200
C 	C 	0.23284 0.01666 0.70880 -0.15400
H 	H 	0.24170 0.02650 0.66580 0.08900
C 	C 	0.21753 0.97242 0.72580 0.07200
H 	H 	0.21700 0.95330 0.69380 0.02400
C 	C 	0.25287 0.09209 0.73840 -0.06900
C 	C 	0.29161 0.11253 0.70300 -0.04300
H 	H 	0.30420 0.09600 0.69060 0.04700
C 	C 	0.11980 0.08130 0.79930 -0.00800
C 	C 	0.14370 0.05050 0.70110 -0.02000
O 	O 	0.85696 0.22077 0.09235 -0.40500
O 	O 	0.84470 0.23305 0.19755 -0.40800
C 	C 	0.85623 0.24451 0.13923 0.36600
C 	C 	0.87047 0.29104 0.12093 -0.12800
C 	C 	0.87240 0.32011 0.17003 0.07300
H 	H 	0.86407 0.31053 0.21323 0.02500
C 	C 	0.88703 0.36348 0.15333 -0.15800
H 	H 	0.88727 0.38253 0.18523 0.10300
C 	C 	0.90097 0.37843 0.09113 0.12200
C 	C 	0.89951 0.34999 0.04213 -0.15400
H 	H 	0.90837 0.35983 0.99913 0.08900
C 	C 	0.88420 0.30575 0.05913 0.07200
H 	H 	0.88367 0.28663 0.02713 0.02400
C 	C 	0.91954 0.42542 0.07173 -0.06900
C 	C 	0.95828 0.44586 0.03633 -0.04300
H 	H 	0.97087 0.42933 0.02393 0.04700
C 	C 	0.78647 0.41463 0.13263 -0.00800
C 	C 	0.81037 0.38383 0.03443 -0.02000
O 	O 	0.52362 0.55411 0.42569 -0.40500
O 	O 	0.51136 0.56639 0.53089 -0.40800
C 	C 	0.52289 0.57785 0.47257 0.36600
C 	C 	0.53713 0.62438 0.45427 -0.12800
C 	C 	0.53906 0.65345 0.50337 0.07300
H 	H 	0.53073 0.64387 0.54657 0.02500
C 	C 	0.55369 0.69682 0.48667 -0.15800
H 	H 	0.55393 0.71587 0.51857 0.10300
C 	C 	0.56763 0.71177 0.42447 0.12200
C 	C 	0.56617 0.68333 0.37547 -0.15400
H 	H 	0.57503 0.69317 0.33247 0.08900
C 	C 	0.55086 0.63909 0.39247 0.07200
H 	H 	0.55033 0.61997 0.36047 0.02400
C 	C 	0.58620 0.75876 0.40507 -0.06900
C 	C 	0.62494 0.77920 0.36967 -0.04300
H 	H 	0.63753 0.76267 0.35727 0.04700
C 	C 	0.45313 0.74797 0.46597 -0.00800
C 	C 	0.47703 0.71717 0.36777 -0.02000
O 	O 	0.69715 0.80971 0.75902 -0.40500
O 	O 	0.72169 0.82197 0.86422 -0.40800
C 	C 	0.72162 0.81044 0.80590 0.36600
C 	C 	0.75391 0.79620 0.78760 -0.12800
C 	C 	0.78105 0.79427 0.83670 0.07300
H 	H 	0.77980 0.80260 0.87990 0.02500
C 	C 	0.80979 0.77964 0.82000 -0.15800
H 	H 	0.82860 0.77940 0.85190 0.10300
C 	C 	0.81080 0.76570 0.75780 0.12200
C 	C 	0.78382 0.76716 0.70880 -0.15400
H 	H 	0.78480 0.75830 0.66580 0.08900
C 	C 	0.75489 0.78247 0.72580 0.07200
H 	H 	0.73630 0.78300 0.69380 0.02400
C 	C 	0.83922 0.74713 0.73840 -0.06900
C 	C 	0.82092 0.70839 0.70300 -0.04300
H 	H 	0.79180 0.69580 0.69060 0.04700
C 	C 	0.96150 0.88020 0.79930 -0.00800
C 	C 	0.90680 0.85630 0.70110 -0.02000
O 	O 	0.36382 0.14304 0.09235 -0.40500
O 	O 	0.38836 0.15530 0.19755 -0.40800
C 	C 	0.38829 0.14377 0.13923 0.36600
C 	C 	0.42058 0.12953 0.12093 -0.12800
C 	C 	0.44772 0.12760 0.17003 0.07300
H 	H 	0.44647 0.13593 0.21323 0.02500
C 	C 	0.47646 0.11297 0.15333 -0.15800
H 	H 	0.49527 0.11273 0.18523 0.10300
C 	C 	0.47747 0.09903 0.09113 0.12200
C 	C 	0.45049 0.10049 0.04213 -0.15400
H 	H 	0.45147 0.09163 0.99913 0.08900
C 	C 	0.42156 0.11580 0.05913 0.07200
H 	H 	0.40297 0.11633 0.02713 0.02400
C 	C 	0.50589 0.08046 0.07173 -0.06900
C 	C 	0.48759 0.04172 0.03633 -0.04300
H 	H 	0.45847 0.02913 0.02393 0.04700
C 	C 	0.62817 0.21353 0.13263 -0.00800
C 	C 	0.57347 0.18963 0.03443 -0.02000
O 	O 	0.03048 0.47638 0.42569 -0.40500
O 	O 	0.05502 0.48864 0.53089 -0.40800
C 	C 	0.05495 0.47711 0.47257 0.36600
C 	C 	0.08724 0.46287 0.45427 -0.12800
C 	C 	0.11438 0.46094 0.50337 0.07300
H 	H 	0.11313 0.46927 0.54657 0.02500
C 	C 	0.14312 0.44631 0.48667 -0.15800
H 	H 	0.16193 0.44607 0.51857 0.10300
C 	C 	0.14413 0.43237 0.42447 0.12200
C 	C 	0.11715 0.43383 0.37547 -0.15400
H 	H 	0.11813 0.42497 0.33247 0.08900
C 	C 	0.08822 0.44914 0.39247 0.07200
H 	H 	0.06963 0.44967 0.36047 0.02400
C 	C 	0.17255 0.41380 0.40507 -0.06900
C 	C 	0.15425 0.37506 0.36967 -0.04300
H 	H 	0.12513 0.36247 0.35727 0.04700
C 	C 	0.29483 0.54687 0.46597 -0.00800
C 	C 	0.24013 0.52297 0.36777 -0.02000
O 	O 	0.69715 0.88744 0.75902 -0.40500
O 	O 	0.72169 0.89972 0.86422 -0.40800
C 	C 	0.72162 0.91118 0.80590 0.36600
C 	C 	0.75391 0.95771 0.78760 -0.12800
C 	C 	0.78105 0.98678 0.83670 0.07300
H 	H 	0.77980 0.97720 0.87990 0.02500
C 	C 	0.80979 0.03015 0.82000 -0.15800
H 	H 	0.82860 0.04920 0.85190 0.10300
C 	C 	0.81080 0.04510 0.75780 0.12200
C 	C 	0.78382 0.01666 0.70880 -0.15400
H 	H 	0.78480 0.02650 0.66580 0.08900
C 	C 	0.75489 0.97242 0.72580 0.07200
H 	H 	0.73630 0.95330 0.69380 0.02400
C 	C 	0.83922 0.09209 0.73840 -0.06900
C 	C 	0.82092 0.11253 0.70300 -0.04300
H 	H 	0.79180 0.09600 0.69060 0.04700
C 	C 	0.96150 0.08130 0.79930 -0.00800
C 	C 	0.90680 0.05050 0.70110 -0.02000
O 	O 	0.36382 0.22077 0.09235 -0.40500
O 	O 	0.38836 0.23305 0.19755 -0.40800
C 	C 	0.38829 0.24451 0.13923 0.36600
C 	C 	0.42058 0.29104 0.12093 -0.12800
C 	C 	0.44772 0.32011 0.17003 0.07300
H 	H 	0.44647 0.31053 0.21323 0.02500
C 	C 	0.47646 0.36348 0.15333 -0.15800
H 	H 	0.49527 0.38253 0.18523 0.10300
C 	C 	0.47747 0.37843 0.09113 0.12200
C 	C 	0.45049 0.34999 0.04213 -0.15400
H 	H 	0.45147 0.35983 0.99913 0.08900
C 	C 	0.42156 0.30575 0.05913 0.07200
H 	H 	0.40297 0.28663 0.02713 0.02400
C 	C 	0.50589 0.42542 0.07173 -0.06900
C 	C 	0.48759 0.44586 0.03633 -0.04300
H 	H 	0.45847 0.42933 0.02393 0.04700
C 	C 	0.62817 0.41463 0.13263 -0.00800
C 	C 	0.57347 0.38383 0.03443 -0.02000
O 	O 	0.03048 0.55411 0.42569 -0.40500
O 	O 	0.05502 0.56639 0.53089 -0.40800
C 	C 	0.05495 0.57785 0.47257 0.36600
C 	C 	0.08724 0.62438 0.45427 -0.12800
C 	C 	0.11438 0.65345 0.50337 0.07300
H 	H 	0.11313 0.64387 0.54657 0.02500
C 	C 	0.14312 0.69682 0.48667 -0.15800
H 	H 	0.16193 0.71587 0.51857 0.10300
C 	C 	0.14413 0.71177 0.42447 0.12200
C 	C 	0.11715 0.68333 0.37547 -0.15400
H 	H 	0.11813 0.69317 0.33247 0.08900
C 	C 	0.08822 0.63909 0.39247 0.07200
H 	H 	0.06963 0.61997 0.36047 0.02400
C 	C 	0.17255 0.75876 0.40507 -0.06900
C 	C 	0.15425 0.77920 0.36967 -0.04300
H 	H 	0.12513 0.76267 0.35727 0.04700
C 	C 	0.29483 0.74797 0.46597 -0.00800
C 	C 	0.24013 0.71717 0.36777 -0.02000
O 	O 	0.11256 0.80971 0.75902 -0.40500
O 	O 	0.10028 0.82197 0.86422 -0.40800
C 	C 	0.08882 0.81044 0.80590 0.36600
C 	C 	0.04229 0.79620 0.78760 -0.12800
C 	C 	0.01322 0.79427 0.83670 0.07300
H 	H 	0.02280 0.80260 0.87990 0.02500
C 	C 	0.96985 0.77964 0.82000 -0.15800
H 	H 	0.95080 0.77940 0.85190 0.10300
C 	C 	0.95490 0.76570 0.75780 0.12200
C 	C 	0.98334 0.76716 0.70880 -0.15400
H 	H 	0.97350 0.75830 0.66580 0.08900
C 	C 	0.02758 0.78247 0.72580 0.07200
H 	H 	0.04670 0.78300 0.69380 0.02400
C 	C 	0.90791 0.74713 0.73840 -0.06900
C 	C 	0.88747 0.70839 0.70300 -0.04300
H 	H 	0.90400 0.69580 0.69060 0.04700
C 	C 	0.91870 0.88020 0.79930 -0.00800
C 	C 	0.94950 0.85630 0.70110 -0.02000
O 	O 	0.77923 0.14304 0.09235 -0.40500
O 	O 	0.76695 0.15530 0.19755 -0.40800
C 	C 	0.75549 0.14377 0.13923 0.36600
C 	C 	0.70896 0.12953 0.12093 -0.12800
C 	C 	0.67989 0.12760 0.17003 0.07300
H 	H 	0.68947 0.13593 0.21323 0.02500
C 	C 	0.63652 0.11297 0.15333 -0.15800
H 	H 	0.61747 0.11273 0.18523 0.10300
C 	C 	0.62157 0.09903 0.09113 0.12200
C 	C 	0.65001 0.10049 0.04213 -0.15400
H 	H 	0.64017 0.09163 0.99913 0.08900
C 	C 	0.69425 0.11580 0.05913 0.07200
H 	H 	0.71337 0.11633 0.02713 0.02400
C 	C 	0.57458 0.08046 0.07173 -0.06900
C 	C 	0.55414 0.04172 0.03633 -0.04300
H 	H 	0.57067 0.02913 0.02393 0.04700
C 	C 	0.58537 0.21353 0.13263 -0.00800
C 	C 	0.61617 0.18963 0.03443 -0.02000
O 	O 	0.44589 0.47638 0.42569 -0.40500
O 	O 	0.43361 0.48864 0.53089 -0.40800
C 	C 	0.42215 0.47711 0.47257 0.36600
C 	C 	0.37562 0.46287 0.45427 -0.12800
C 	C 	0.34655 0.46094 0.50337 0.07300
H 	H 	0.35613 0.46927 0.54657 0.02500
C 	C 	0.30318 0.44631 0.48667 -0.15800
H 	H 	0.28413 0.44607 0.51857 0.10300
C 	C 	0.28823 0.43237 0.42447 0.12200
C 	C 	0.31667 0.43383 0.37547 -0.15400
H 	H 	0.30683 0.42497 0.33247 0.08900
C 	C 	0.36091 0.44914 0.39247 0.07200
H 	H 	0.38003 0.44967 0.36047 0.02400
C 	C 	0.24124 0.41380 0.40507 -0.06900
C 	C 	0.22080 0.37506 0.36967 -0.04300
H 	H 	0.23733 0.36247 0.35727 0.04700
C 	C 	0.25203 0.54687 0.46597 -0.00800
C 	C 	0.28283 0.52297 0.36777 -0.02000
O 	O 	0.19029 0.30285 0.75902 -0.40500
O 	O 	0.17803 0.27831 0.86422 -0.40800
C 	C 	0.18956 0.27838 0.80590 0.36600
C 	C 	0.20380 0.24609 0.78760 -0.12800
C 	C 	0.20573 0.21895 0.83670 0.07300
H 	H 	0.19740 0.22020 0.87990 0.02500
C 	C 	0.22036 0.19021 0.82000 -0.15800
H 	H 	0.22060 0.17140 0.85190 0.10300
C 	C 	0.23430 0.18920 0.75780 0.12200
C 	C 	0.23284 0.21618 0.70880 -0.15400
H 	H 	0.24170 0.21520 0.66580 0.08900
C 	C 	0.21753 0.24511 0.72580 0.07200
H 	H 	0.21700 0.26370 0.69380 0.02400
C 	C 	0.25287 0.16078 0.73840 -0.06900
C 	C 	0.29161 0.17908 0.70300 -0.04300
H 	H 	0.30420 0.20820 0.69060 0.04700
C 	C 	0.11980 0.03850 0.79930 -0.00800
C 	C 	0.14370 0.09320 0.70110 -0.02000
O 	O 	0.85696 0.63618 0.09235 -0.40500
O 	O 	0.84470 0.61164 0.19755 -0.40800
C 	C 	0.85623 0.61171 0.13923 0.36600
C 	C 	0.87047 0.57942 0.12093 -0.12800
C 	C 	0.87240 0.55228 0.17003 0.07300
H 	H 	0.86407 0.55353 0.21323 0.02500
C 	C 	0.88703 0.52354 0.15333 -0.15800
H 	H 	0.88727 0.50473 0.18523 0.10300
C 	C 	0.90097 0.52253 0.09113 0.12200
C 	C 	0.89951 0.54951 0.04213 -0.15400
H 	H 	0.90837 0.54853 0.99913 0.08900
C 	C 	0.88420 0.57844 0.05913 0.07200
H 	H 	0.88367 0.59703 0.02713 0.02400
C 	C 	0.91954 0.49411 0.07173 -0.06900
C 	C 	0.95828 0.51241 0.03633 -0.04300
H 	H 	0.97087 0.54153 0.02393 0.04700
C 	C 	0.78647 0.37183 0.13263 -0.00800
C 	C 	0.81037 0.42653 0.03443 -0.02000
O 	O 	0.52362 0.96952 0.42569 -0.40500
O 	O 	0.51136 0.94498 0.53089 -0.40800
C 	C 	0.52289 0.94505 0.47257 0.36600
C 	C 	0.53713 0.91276 0.45427 -0.12800
C 	C 	0.53906 0.88562 0.50337 0.07300
H 	H 	0.53073 0.88687 0.54657 0.02500
C 	C 	0.55369 0.85688 0.48667 -0.15800
H 	H 	0.55393 0.83807 0.51857 0.10300
C 	C 	0.56763 0.85587 0.42447 0.12200
C 	C 	0.56617 0.88285 0.37547 -0.15400
H 	H 	0.57503 0.88187 0.33247 0.08900
C 	C 	0.55086 0.91178 0.39247 0.07200
H 	H 	0.55033 0.93037 0.36047 0.02400
C 	C 	0.58620 0.82745 0.40507 -0.06900
C 	C 	0.62494 0.84575 0.36967 -0.04300
H 	H 	0.63753 0.87487 0.35727 0.04700
C 	C 	0.45313 0.70517 0.46597 -0.00800
C 	C 	0.47703 0.75987 0.36777 -0.02000
O 	O 	0.88744 0.69715 0.24098 -0.40500
O 	O 	0.89972 0.72169 0.13578 -0.40800
C 	C 	0.91118 0.72162 0.19410 0.36600
C 	C 	0.95771 0.75391 0.21240 -0.12800
C 	C 	0.98678 0.78105 0.16330 0.07300
H 	H 	0.97720 0.77980 0.12010 0.02500
C 	C 	0.03015 0.80979 0.18000 -0.15800
H 	H 	0.04920 0.82860 0.14810 0.10300
C 	C 	0.04510 0.81080 0.24220 0.12200
C 	C 	0.01666 0.78382 0.29120 -0.15400
H 	H 	0.02650 0.78480 0.33420 0.08900
C 	C 	0.97242 0.75489 0.27420 0.07200
H 	H 	0.95330 0.73630 0.30620 0.02400
C 	C 	0.09209 0.83922 0.26160 -0.06900
C 	C 	0.11253 0.82092 0.29700 -0.04300
H 	H 	0.09600 0.79180 0.30940 0.04700
C 	C 	0.08130 0.96150 0.20070 -0.00800
C 	C 	0.05050 0.90680 0.29890 -0.02000
O 	O 	0.55411 0.03048 0.57431 -0.40500
O 	O 	0.56639 0.05502 0.46911 -0.40800
C 	C 	0.57785 0.05495 0.52743 0.36600
C 	C 	0.62438 0.08724 0.54573 -0.12800
C 	C 	0.65345 0.11438 0.49663 0.07300
H 	H 	0.64387 0.11313 0.45343 0.02500
C 	C 	0.69682 0.14312 0.51333 -0.15800
H 	H 	0.71587 0.16193 0.48143 0.10300
C 	C 	0.71177 0.14413 0.57553 0.12200
C 	C 	0.68333 0.11715 0.62453 -0.15400
H 	H 	0.69317 0.11813 0.66753 0.08900
C 	C 	0.63909 0.08822 0.60753 0.07200
H 	H 	0.61997 0.06963 0.63953 0.02400
C 	C 	0.75876 0.17255 0.59493 -0.06900
C 	C 	0.77920 0.15425 0.63033 -0.04300
H 	H 	0.76267 0.12513 0.64273 0.04700
C 	C 	0.74797 0.29483 0.53403 -0.00800
C 	C 	0.71717 0.24013 0.63223 -0.02000
O 	O 	0.22077 0.36382 0.90765 -0.40500
O 	O 	0.23305 0.38836 0.80245 -0.40800
C 	C 	0.24451 0.38829 0.86077 0.36600
C 	C 	0.29104 0.42058 0.87907 -0.12800
C 	C 	0.32011 0.44772 0.82997 0.07300
H 	H 	0.31053 0.44647 0.78677 0.02500
C 	C 	0.36348 0.47646 0.84667 -0.15800
H 	H 	0.38253 0.49527 0.81477 0.10300
C 	C 	0.37843 0.47747 0.90887 0.12200
C 	C 	0.34999 0.45049 0.95787 -0.15400
H 	H 	0.35983 0.45147 0.00087 0.08900
C 	C 	0.30575 0.42156 0.94087 0.07200
H 	H 	0.28663 0.40297 0.97287 0.02400
C 	C 	0.42542 0.50589 0.92827 -0.06900
C 	C 	0.44586 0.48759 0.96367 -0.04300
H 	H 	0.42933 0.45847 0.97607 0.04700
C 	C 	0.41463 0.62817 0.86737 -0.00800
C 	C 	0.38383 0.57347 0.96557 -0.02000
O 	O 	0.80971 0.11256 0.24098 -0.40500
O 	O 	0.82197 0.10028 0.13578 -0.40800
C 	C 	0.81044 0.08882 0.19410 0.36600
C 	C 	0.79620 0.04229 0.21240 -0.12800
C 	C 	0.79427 0.01322 0.16330 0.07300
H 	H 	0.80260 0.02280 0.12010 0.02500
C 	C 	0.77964 0.96985 0.18000 -0.15800
H 	H 	0.77940 0.95080 0.14810 0.10300
C 	C 	0.76570 0.95490 0.24220 0.12200
C 	C 	0.76716 0.98334 0.29120 -0.15400
H 	H 	0.75830 0.97350 0.33420 0.08900
C 	C 	0.78247 0.02758 0.27420 0.07200
H 	H 	0.78300 0.04670 0.30620 0.02400
C 	C 	0.74713 0.90791 0.26160 -0.06900
C 	C 	0.70839 0.88747 0.29700 -0.04300
H 	H 	0.69580 0.90400 0.30940 0.04700
C 	C 	0.88020 0.91870 0.20070 -0.00800
C 	C 	0.85630 0.94950 0.29890 -0.02000
O 	O 	0.47638 0.44589 0.57431 -0.40500
O 	O 	0.48864 0.43361 0.46911 -0.40800
C 	C 	0.47711 0.42215 0.52743 0.36600
C 	C 	0.46287 0.37562 0.54573 -0.12800
C 	C 	0.46094 0.34655 0.49663 0.07300
H 	H 	0.46927 0.35613 0.45343 0.02500
C 	C 	0.44631 0.30318 0.51333 -0.15800
H 	H 	0.44607 0.28413 0.48143 0.10300
C 	C 	0.43237 0.28823 0.57553 0.12200
C 	C 	0.43383 0.31667 0.62453 -0.15400
H 	H 	0.42497 0.30683 0.66753 0.08900
C 	C 	0.44914 0.36091 0.60753 0.07200
H 	H 	0.44967 0.38003 0.63953 0.02400
C 	C 	0.41380 0.24124 0.59493 -0.06900
C 	C 	0.37506 0.22080 0.63033 -0.04300
H 	H 	0.36247 0.23733 0.64273 0.04700
C 	C 	0.54687 0.25203 0.53403 -0.00800
C 	C 	0.52297 0.28283 0.63223 -0.02000
O 	O 	0.14304 0.77923 0.90765 -0.40500
O 	O 	0.15530 0.76695 0.80245 -0.40800
C 	C 	0.14377 0.75549 0.86077 0.36600
C 	C 	0.12953 0.70896 0.87907 -0.12800
C 	C 	0.12760 0.67989 0.82997 0.07300
H 	H 	0.13593 0.68947 0.78677 0.02500
C 	C 	0.11297 0.63652 0.84667 -0.15800
H 	H 	0.11273 0.61747 0.81477 0.10300
C 	C 	0.09903 0.62157 0.90887 0.12200
C 	C 	0.10049 0.65001 0.95787 -0.15400
H 	H 	0.09163 0.64017 0.00087 0.08900
C 	C 	0.11580 0.69425 0.94087 0.07200
H 	H 	0.11633 0.71337 0.97287 0.02400
C 	C 	0.08046 0.57458 0.92827 -0.06900
C 	C 	0.04172 0.55414 0.96367 -0.04300
H 	H 	0.02913 0.57067 0.97607 0.04700
C 	C 	0.21353 0.58537 0.86737 -0.00800
C 	C 	0.18963 0.61617 0.96557 -0.02000
O 	O 	0.30285 0.19029 0.24098 -0.40500
O 	O 	0.27831 0.17803 0.13578 -0.40800
C 	C 	0.27838 0.18956 0.19410 0.36600
C 	C 	0.24609 0.20380 0.21240 -0.12800
C 	C 	0.21895 0.20573 0.16330 0.07300
H 	H 	0.22020 0.19740 0.12010 0.02500
C 	C 	0.19021 0.22036 0.18000 -0.15800
H 	H 	0.17140 0.22060 0.14810 0.10300
C 	C 	0.18920 0.23430 0.24220 0.12200
C 	C 	0.21618 0.23284 0.29120 -0.15400
H 	H 	0.21520 0.24170 0.33420 0.08900
C 	C 	0.24511 0.21753 0.27420 0.07200
H 	H 	0.26370 0.21700 0.30620 0.02400
C 	C 	0.16078 0.25287 0.26160 -0.06900
C 	C 	0.17908 0.29161 0.29700 -0.04300
H 	H 	0.20820 0.30420 0.30940 0.04700
C 	C 	0.03850 0.11980 0.20070 -0.00800
C 	C 	0.09320 0.14370 0.29890 -0.02000
O 	O 	0.96952 0.52362 0.57431 -0.40500
O 	O 	0.94498 0.51136 0.46911 -0.40800
C 	C 	0.94505 0.52289 0.52743 0.36600
C 	C 	0.91276 0.53713 0.54573 -0.12800
C 	C 	0.88562 0.53906 0.49663 0.07300
H 	H 	0.88687 0.53073 0.45343 0.02500
C 	C 	0.85688 0.55369 0.51333 -0.15800
H 	H 	0.83807 0.55393 0.48143 0.10300
C 	C 	0.85587 0.56763 0.57553 0.12200
C 	C 	0.88285 0.56617 0.62453 -0.15400
H 	H 	0.88187 0.57503 0.66753 0.08900
C 	C 	0.91178 0.55086 0.60753 0.07200
H 	H 	0.93037 0.55033 0.63953 0.02400
C 	C 	0.82745 0.58620 0.59493 -0.06900
C 	C 	0.84575 0.62494 0.63033 -0.04300
H 	H 	0.87487 0.63753 0.64273 0.04700
C 	C 	0.70517 0.45313 0.53403 -0.00800
C 	C 	0.75987 0.47703 0.63223 -0.02000
O 	O 	0.63618 0.85696 0.90765 -0.40500
O 	O 	0.61164 0.84470 0.80245 -0.40800
C 	C 	0.61171 0.85623 0.86077 0.36600
C 	C 	0.57942 0.87047 0.87907 -0.12800
C 	C 	0.55228 0.87240 0.82997 0.07300
H 	H 	0.55353 0.86407 0.78677 0.02500
C 	C 	0.52354 0.88703 0.84667 -0.15800
H 	H 	0.50473 0.88727 0.81477 0.10300
C 	C 	0.52253 0.90097 0.90887 0.12200
C 	C 	0.54951 0.89951 0.95787 -0.15400
H 	H 	0.54853 0.90837 0.00087 0.08900
C 	C 	0.57844 0.88420 0.94087 0.07200
H 	H 	0.59703 0.88367 0.97287 0.02400
C 	C 	0.49411 0.91954 0.92827 -0.06900
C 	C 	0.51241 0.95828 0.96367 -0.04300
H 	H 	0.54153 0.97087 0.97607 0.04700
C 	C 	0.37183 0.78647 0.86737 -0.00800
C 	C 	0.42653 0.81037 0.96557 -0.02000
Cu	Cu	0.31916 0.15958 0.10496 0.90400
Cu	Cu	0.98583 0.49291 0.43829 0.90500
Cu	Cu	0.65249 0.82625 0.77163 0.90400
Cu	Cu	0.84042 0.15958 0.10496 0.90400
Cu	Cu	0.50709 0.49291 0.43829 0.90400
Cu	Cu	0.17375 0.82625 0.77163 0.90400
Cu	Cu	0.84042 0.68084 0.10496 0.90400
Cu	Cu	0.50709 0.01417 0.43829 0.90500
Cu	Cu	0.17375 0.34751 0.77163 0.90400
Cu	Cu	0.15958 0.31916 0.89504 0.90400
Cu	Cu	0.82625 0.65249 0.22837 0.90400
Cu	Cu	0.49291 0.98583 0.56171 0.90500
Cu	Cu	0.15958 0.84042 0.89504 0.90400
Cu	Cu	0.82625 0.17375 0.22837 0.90400
Cu	Cu	0.49291 0.50709 0.56171 0.90400
Cu	Cu	0.68084 0.84042 0.89504 0.90400
Cu	Cu	0.34751 0.17375 0.22837 0.90400
Cu	Cu	0.01417 0.50709 0.56171 0.90500
O 	O 	0.09785 0.90215 0.20540 -0.22900
C 	C 	0.15634 0.84366 0.31480 0.00800
C 	C 	0.11684 0.88316 0.24340 0.14100
C 	C 	0.07790 0.92210 0.23860 0.11900
O 	O 	0.76452 0.23548 0.53873 -0.22900
C 	C 	0.82301 0.17699 0.64813 0.00800
C 	C 	0.78351 0.21649 0.57673 0.14100
C 	C 	0.74457 0.25543 0.57193 0.11900
O 	O 	0.43118 0.56882 0.87207 -0.22900
C 	C 	0.48967 0.51033 0.98147 0.00800
C 	C 	0.45017 0.54983 0.91007 0.14100
C 	C 	0.41123 0.58877 0.90527 0.11900
O 	O 	0.09785 0.19570 0.20540 -0.22900
C 	C 	0.15634 0.31268 0.31480 0.00800
C 	C 	0.11684 0.23368 0.24340 0.14100
C 	C 	0.07790 0.15580 0.23860 0.11900
O 	O 	0.76452 0.52903 0.53873 -0.22900
C 	C 	0.82301 0.64601 0.64813 0.00800
C 	C 	0.78351 0.56701 0.57673 0.14100
C 	C 	0.74457 0.48913 0.57193 0.11900
O 	O 	0.43118 0.86237 0.87207 -0.22900
C 	C 	0.48967 0.97935 0.98147 0.00800
C 	C 	0.45017 0.90035 0.91007 0.14100
C 	C 	0.41123 0.82247 0.90527 0.11900
O 	O 	0.80430 0.90215 0.20540 -0.22900
C 	C 	0.68732 0.84366 0.31480 0.00800
C 	C 	0.76632 0.88316 0.24340 0.14100
C 	C 	0.84420 0.92210 0.23860 0.11900
O 	O 	0.47097 0.23548 0.53873 -0.22900
C 	C 	0.35399 0.17699 0.64813 0.00800
C 	C 	0.43299 0.21649 0.57673 0.14100
C 	C 	0.51087 0.25543 0.57193 0.11900
O 	O 	0.13763 0.56882 0.87207 -0.22900
C 	C 	0.02065 0.51033 0.98147 0.00800
C 	C 	0.09965 0.54983 0.91007 0.14100
C 	C 	0.17753 0.58877 0.90527 0.11900
O 	O 	0.90215 0.09785 0.79460 -0.22900
C 	C 	0.84366 0.15634 0.68520 0.00800
C 	C 	0.88316 0.11684 0.75660 0.14100
C 	C 	0.92210 0.07790 0.76140 0.11900
O 	O 	0.56882 0.43118 0.12793 -0.22900
C 	C 	0.51033 0.48967 0.01853 0.00800
C 	C 	0.54983 0.45017 0.08993 0.14100
C 	C 	0.58877 0.41123 0.09473 0.11900
O 	O 	0.23548 0.76452 0.46127 -0.22900
C 	C 	0.17699 0.82301 0.35187 0.00800
C 	C 	0.21649 0.78351 0.42327 0.14100
C 	C 	0.25543 0.74457 0.42807 0.11900
O 	O 	0.19570 0.09785 0.79460 -0.22900
C 	C 	0.31268 0.15634 0.68520 0.00800
C 	C 	0.23368 0.11684 0.75660 0.14100
C 	C 	0.15580 0.07790 0.76140 0.11900
O 	O 	0.86237 0.43118 0.12793 -0.22900
C 	C 	0.97935 0.48967 0.01853 0.00800
C 	C 	0.90035 0.45017 0.08993 0.14100
C 	C 	0.82247 0.41123 0.09473 0.11900
O 	O 	0.52903 0.76452 0.46127 -0.22900
C 	C 	0.64601 0.82301 0.35187 0.00800
C 	C 	0.56701 0.78351 0.42327 0.14100
C 	C 	0.48913 0.74457 0.42807 0.11900
O 	O 	0.90215 0.80430 0.79460 -0.22900
C 	C 	0.84366 0.68732 0.68520 0.00800
C 	C 	0.88316 0.76632 0.75660 0.14100
C 	C 	0.92210 0.84420 0.76140 0.11900
O 	O 	0.56882 0.13763 0.12793 -0.22900
C 	C 	0.51033 0.02065 0.01853 0.00800
C 	C 	0.54983 0.09965 0.08993 0.14100
C 	C 	0.58877 0.17753 0.09473 0.11900
O 	O 	0.23548 0.47097 0.46127 -0.22900
C 	C 	0.17699 0.35399 0.35187 0.00800
C 	C 	0.21649 0.43299 0.42327 0.14100
C 	C 	0.25543 0.51087 0.42807 0.11900
