data_crystal

_cell_length_a 35.48800
_cell_length_b 35.48800
_cell_length_c 19.10600
_cell_angle_alpha 90.00000
_cell_angle_beta  90.00000
_cell_angle_gamma 120.00000

_symmetry_space_group_name_	'P 1'
_symmetry_space_group_name_H-M	'P 1'

loop_
_symmetry_equiv_pos_as_xyz
  x,y,z

loop_
_atom_site_label
_atom_site_type_symbol
_atom_site_fract_x
_atom_site_fract_y
_atom_site_fract_z
_atom_site_charge
O 	O 	0.30225 0.18972 0.74378 -0.40600
O 	O 	0.27834 0.17794 0.63272 -0.41200
C 	C 	0.27794 0.18899 0.69370 0.37200
C 	C 	0.24540 0.20258 0.71340 -0.12600
C 	C 	0.21824 0.20382 0.66220 0.06300
H 	H 	0.21960 0.19510 0.61570 0.02900
C 	C 	0.18879 0.21804 0.67920 -0.14000
H 	H 	0.16950 0.21770 0.64450 0.09400
C 	C 	0.18767 0.23227 0.74480 0.10900
C 	C 	0.21475 0.23065 0.79690 -0.13900
H 	H 	0.21340 0.23910 0.84360 0.08300
C 	C 	0.24393 0.21628 0.77860 0.06600
H 	H 	0.26310 0.21620 0.81320 0.02700
C 	C 	0.16008 0.25170 0.76350 -0.06400
C 	C 	0.17868 0.29060 0.79720 -0.04000
H 	H 	0.20860 0.30390 0.80950 0.04500
O 	O 	0.96892 0.52305 0.07711 -0.40700
O 	O 	0.94501 0.51127 0.96605 -0.41300
C 	C 	0.94461 0.52232 0.02703 0.37200
C 	C 	0.91207 0.53591 0.04673 -0.12500
C 	C 	0.88491 0.53715 0.99553 0.06200
H 	H 	0.88627 0.52843 0.94903 0.02900
C 	C 	0.85546 0.55137 0.01253 -0.13800
H 	H 	0.83617 0.55103 0.97783 0.09300
C 	C 	0.85434 0.56560 0.07813 0.10800
C 	C 	0.88142 0.56398 0.13023 -0.13800
H 	H 	0.88007 0.57243 0.17693 0.08200
C 	C 	0.91060 0.54961 0.11193 0.06500
H 	H 	0.92977 0.54953 0.14653 0.02700
C 	C 	0.82675 0.58503 0.09683 -0.06300
C 	C 	0.84535 0.62393 0.13053 -0.04100
H 	H 	0.87527 0.63723 0.14283 0.04500
O 	O 	0.63558 0.85639 0.41045 -0.40700
O 	O 	0.61167 0.84461 0.29939 -0.41300
C 	C 	0.61127 0.85566 0.36037 0.37200
C 	C 	0.57873 0.86925 0.38007 -0.12600
C 	C 	0.55157 0.87049 0.32887 0.06300
H 	H 	0.55293 0.86177 0.28237 0.02900
C 	C 	0.52212 0.88471 0.34587 -0.14000
H 	H 	0.50283 0.88437 0.31117 0.09400
C 	C 	0.52100 0.89894 0.41147 0.10900
C 	C 	0.54808 0.89732 0.46357 -0.13900
H 	H 	0.54673 0.90577 0.51027 0.08300
C 	C 	0.57726 0.88295 0.44527 0.06600
H 	H 	0.59643 0.88287 0.47987 0.02700
C 	C 	0.49341 0.91837 0.43017 -0.06400
C 	C 	0.51201 0.95727 0.46387 -0.04000
H 	H 	0.54193 0.97057 0.47617 0.04500
O 	O 	0.81028 0.11253 0.74378 -0.40700
O 	O 	0.82206 0.10040 0.63272 -0.41300
C 	C 	0.81101 0.08895 0.69370 0.37200
C 	C 	0.79742 0.04282 0.71340 -0.12600
C 	C 	0.79618 0.01442 0.66220 0.06300
H 	H 	0.80490 0.02450 0.61570 0.02900
C 	C 	0.78196 0.97075 0.67920 -0.13900
H 	H 	0.78230 0.95180 0.64450 0.09400
C 	C 	0.76773 0.95540 0.74480 0.10900
C 	C 	0.76935 0.98410 0.79690 -0.13900
H 	H 	0.76090 0.97430 0.84360 0.08200
C 	C 	0.78372 0.02765 0.77860 0.06600
H 	H 	0.78380 0.04690 0.81320 0.02700
C 	C 	0.74830 0.90838 0.76350 -0.06400
C 	C 	0.70940 0.88808 0.79720 -0.04000
H 	H 	0.69610 0.90470 0.80950 0.04500
O 	O 	0.47695 0.44586 0.07711 -0.40700
O 	O 	0.48873 0.43373 0.96605 -0.41300
C 	C 	0.47768 0.42228 0.02703 0.37200
C 	C 	0.46409 0.37615 0.04673 -0.12600
C 	C 	0.46285 0.34775 0.99553 0.06300
H 	H 	0.47157 0.35783 0.94903 0.02900
C 	C 	0.44863 0.30408 0.01253 -0.13900
H 	H 	0.44897 0.28513 0.97783 0.09400
C 	C 	0.43440 0.28873 0.07813 0.10900
C 	C 	0.43602 0.31743 0.13023 -0.13900
H 	H 	0.42757 0.30763 0.17693 0.08200
C 	C 	0.45039 0.36098 0.11193 0.06600
H 	H 	0.45047 0.38023 0.14653 0.02700
C 	C 	0.41497 0.24171 0.09683 -0.06400
C 	C 	0.37607 0.22141 0.13053 -0.04100
H 	H 	0.36277 0.23803 0.14283 0.04500
O 	O 	0.14361 0.77920 0.41045 -0.40700
O 	O 	0.15539 0.76707 0.29939 -0.41300
C 	C 	0.14434 0.75562 0.36037 0.37200
C 	C 	0.13075 0.70949 0.38007 -0.12600
C 	C 	0.12951 0.68109 0.32887 0.06300
H 	H 	0.13823 0.69117 0.28237 0.02900
C 	C 	0.11529 0.63742 0.34587 -0.14000
H 	H 	0.11563 0.61847 0.31117 0.09400
C 	C 	0.10106 0.62207 0.41147 0.10900
C 	C 	0.10268 0.65077 0.46357 -0.13900
H 	H 	0.09423 0.64097 0.51027 0.08300
C 	C 	0.11705 0.69432 0.44527 0.06600
H 	H 	0.11713 0.71357 0.47987 0.02700
C 	C 	0.08163 0.57505 0.43017 -0.06400
C 	C 	0.04273 0.55475 0.46387 -0.04000
H 	H 	0.02943 0.57137 0.47617 0.04500
O 	O 	0.88747 0.69775 0.74378 -0.40700
O 	O 	0.89960 0.72166 0.63272 -0.41300
C 	C 	0.91105 0.72206 0.69370 0.37200
C 	C 	0.95718 0.75460 0.71340 -0.12600
C 	C 	0.98558 0.78176 0.66220 0.06300
H 	H 	0.97550 0.78040 0.61570 0.02900
C 	C 	0.02925 0.81121 0.67920 -0.13900
H 	H 	0.04820 0.83050 0.64450 0.09400
C 	C 	0.04460 0.81233 0.74480 0.10900
C 	C 	0.01590 0.78525 0.79690 -0.13900
H 	H 	0.02570 0.78660 0.84360 0.08200
C 	C 	0.97235 0.75607 0.77860 0.06600
H 	H 	0.95310 0.73690 0.81320 0.02700
C 	C 	0.09162 0.83992 0.76350 -0.06400
C 	C 	0.11192 0.82132 0.79720 -0.04000
H 	H 	0.09530 0.79140 0.80950 0.04500
O 	O 	0.55414 0.03108 0.07711 -0.40700
O 	O 	0.56627 0.05499 0.96605 -0.41300
C 	C 	0.57772 0.05539 0.02703 0.37200
C 	C 	0.62385 0.08793 0.04673 -0.12500
C 	C 	0.65225 0.11509 0.99553 0.06100
H 	H 	0.64217 0.11373 0.94903 0.02900
C 	C 	0.69592 0.14454 0.01253 -0.13700
H 	H 	0.71487 0.16383 0.97783 0.09300
C 	C 	0.71127 0.14566 0.07813 0.10800
C 	C 	0.68257 0.11858 0.13023 -0.13800
H 	H 	0.69237 0.11993 0.17693 0.08200
C 	C 	0.63902 0.08940 0.11193 0.06500
H 	H 	0.61977 0.07023 0.14653 0.02700
C 	C 	0.75829 0.17325 0.09683 -0.06300
C 	C 	0.77859 0.15465 0.13053 -0.04100
H 	H 	0.76197 0.12473 0.14283 0.04600
O 	O 	0.22080 0.36442 0.41045 -0.40700
O 	O 	0.23293 0.38833 0.29939 -0.41300
C 	C 	0.24438 0.38873 0.36037 0.37200
C 	C 	0.29051 0.42127 0.38007 -0.12600
C 	C 	0.31891 0.44843 0.32887 0.06300
H 	H 	0.30883 0.44707 0.28237 0.02900
C 	C 	0.36258 0.47788 0.34587 -0.14000
H 	H 	0.38153 0.49717 0.31117 0.09400
C 	C 	0.37793 0.47900 0.41147 0.10900
C 	C 	0.34923 0.45192 0.46357 -0.13900
H 	H 	0.35903 0.45327 0.51027 0.08300
C 	C 	0.30568 0.42274 0.44527 0.06600
H 	H 	0.28643 0.40357 0.47987 0.02700
C 	C 	0.42495 0.50659 0.43017 -0.06400
C 	C 	0.44525 0.48799 0.46387 -0.04000
H 	H 	0.42863 0.45807 0.47617 0.04500
O 	O 	0.18972 0.30225 0.25622 -0.40700
O 	O 	0.17794 0.27834 0.36728 -0.41300
C 	C 	0.18899 0.27794 0.30630 0.37200
C 	C 	0.20258 0.24540 0.28660 -0.12600
C 	C 	0.20382 0.21824 0.33780 0.06300
H 	H 	0.19510 0.21960 0.38430 0.02900
C 	C 	0.21804 0.18879 0.32080 -0.14000
H 	H 	0.21770 0.16950 0.35550 0.09400
C 	C 	0.23227 0.18767 0.25520 0.10900
C 	C 	0.23065 0.21475 0.20310 -0.13900
H 	H 	0.23910 0.21340 0.15640 0.08300
C 	C 	0.21628 0.24393 0.22140 0.06600
H 	H 	0.21620 0.26310 0.18680 0.02700
C 	C 	0.25170 0.16008 0.23650 -0.06400
C 	C 	0.29060 0.17868 0.20280 -0.04000
H 	H 	0.30390 0.20860 0.19050 0.04500
O 	O 	0.85639 0.63558 0.58955 -0.40700
O 	O 	0.84461 0.61167 0.70061 -0.41300
C 	C 	0.85566 0.61127 0.63963 0.37200
C 	C 	0.86925 0.57873 0.61993 -0.12600
C 	C 	0.87049 0.55157 0.67113 0.06300
H 	H 	0.86177 0.55293 0.71763 0.02900
C 	C 	0.88471 0.52212 0.65413 -0.14000
H 	H 	0.88437 0.50283 0.68883 0.09400
C 	C 	0.89894 0.52100 0.58853 0.10900
C 	C 	0.89732 0.54808 0.53643 -0.13900
H 	H 	0.90577 0.54673 0.48973 0.08300
C 	C 	0.88295 0.57726 0.55473 0.06600
H 	H 	0.88287 0.59643 0.52013 0.02700
C 	C 	0.91837 0.49341 0.56983 -0.06400
C 	C 	0.95727 0.51201 0.53613 -0.04000
H 	H 	0.97057 0.54193 0.52383 0.04500
O 	O 	0.52305 0.96892 0.92289 -0.40700
O 	O 	0.51127 0.94501 0.03395 -0.41300
C 	C 	0.52232 0.94461 0.97297 0.37200
C 	C 	0.53591 0.91207 0.95327 -0.12500
C 	C 	0.53715 0.88491 0.00447 0.06200
H 	H 	0.52843 0.88627 0.05097 0.02900
C 	C 	0.55137 0.85546 0.98747 -0.13800
H 	H 	0.55103 0.83617 0.02217 0.09300
C 	C 	0.56560 0.85434 0.92187 0.10800
C 	C 	0.56398 0.88142 0.86977 -0.13800
H 	H 	0.57243 0.88007 0.82307 0.08200
C 	C 	0.54961 0.91060 0.88807 0.06500
H 	H 	0.54953 0.92977 0.85347 0.02700
C 	C 	0.58503 0.82675 0.90317 -0.06300
C 	C 	0.62393 0.84535 0.86947 -0.04100
H 	H 	0.63723 0.87527 0.85717 0.04500
O 	O 	0.11253 0.81028 0.25622 -0.40700
O 	O 	0.10040 0.82206 0.36728 -0.41300
C 	C 	0.08895 0.81101 0.30630 0.37200
C 	C 	0.04282 0.79742 0.28660 -0.12600
C 	C 	0.01442 0.79618 0.33780 0.06300
H 	H 	0.02450 0.80490 0.38430 0.02900
C 	C 	0.97075 0.78196 0.32080 -0.13900
H 	H 	0.95180 0.78230 0.35550 0.09400
C 	C 	0.95540 0.76773 0.25520 0.10900
C 	C 	0.98410 0.76935 0.20310 -0.13900
H 	H 	0.97430 0.76090 0.15640 0.08200
C 	C 	0.02765 0.78372 0.22140 0.06600
H 	H 	0.04690 0.78380 0.18680 0.02700
C 	C 	0.90838 0.74830 0.23650 -0.06400
C 	C 	0.88808 0.70940 0.20280 -0.04000
H 	H 	0.90470 0.69610 0.19050 0.04500
O 	O 	0.77920 0.14361 0.58955 -0.40700
O 	O 	0.76707 0.15539 0.70061 -0.41300
C 	C 	0.75562 0.14434 0.63963 0.37200
C 	C 	0.70949 0.13075 0.61993 -0.12600
C 	C 	0.68109 0.12951 0.67113 0.06300
H 	H 	0.69117 0.13823 0.71763 0.02900
C 	C 	0.63742 0.11529 0.65413 -0.14000
H 	H 	0.61847 0.11563 0.68883 0.09400
C 	C 	0.62207 0.10106 0.58853 0.10900
C 	C 	0.65077 0.10268 0.53643 -0.13900
H 	H 	0.64097 0.09423 0.48973 0.08300
C 	C 	0.69432 0.11705 0.55473 0.06600
H 	H 	0.71357 0.11713 0.52013 0.02700
C 	C 	0.57505 0.08163 0.56983 -0.06400
C 	C 	0.55475 0.04273 0.53613 -0.04000
H 	H 	0.57137 0.02943 0.52383 0.04500
O 	O 	0.44586 0.47695 0.92289 -0.40700
O 	O 	0.43373 0.48873 0.03395 -0.41300
C 	C 	0.42228 0.47768 0.97297 0.37200
C 	C 	0.37615 0.46409 0.95327 -0.12600
C 	C 	0.34775 0.46285 0.00447 0.06300
H 	H 	0.35783 0.47157 0.05097 0.02900
C 	C 	0.30408 0.44863 0.98747 -0.13900
H 	H 	0.28513 0.44897 0.02217 0.09400
C 	C 	0.28873 0.43440 0.92187 0.10900
C 	C 	0.31743 0.43602 0.86977 -0.13900
H 	H 	0.30763 0.42757 0.82307 0.08200
C 	C 	0.36098 0.45039 0.88807 0.06600
H 	H 	0.38023 0.45047 0.85347 0.02700
C 	C 	0.24171 0.41497 0.90317 -0.06400
C 	C 	0.22141 0.37607 0.86947 -0.04100
H 	H 	0.23803 0.36277 0.85717 0.04500
O 	O 	0.69775 0.88747 0.25622 -0.40700
O 	O 	0.72166 0.89960 0.36728 -0.41300
C 	C 	0.72206 0.91105 0.30630 0.37200
C 	C 	0.75460 0.95718 0.28660 -0.12600
C 	C 	0.78176 0.98558 0.33780 0.06300
H 	H 	0.78040 0.97550 0.38430 0.02900
C 	C 	0.81121 0.02925 0.32080 -0.13900
H 	H 	0.83050 0.04820 0.35550 0.09400
C 	C 	0.81233 0.04460 0.25520 0.10900
C 	C 	0.78525 0.01590 0.20310 -0.13900
H 	H 	0.78660 0.02570 0.15640 0.08200
C 	C 	0.75607 0.97235 0.22140 0.06600
H 	H 	0.73690 0.95310 0.18680 0.02700
C 	C 	0.83992 0.09162 0.23650 -0.06400
C 	C 	0.82132 0.11192 0.20280 -0.04000
H 	H 	0.79140 0.09530 0.19050 0.04500
O 	O 	0.36442 0.22080 0.58955 -0.40700
O 	O 	0.38833 0.23293 0.70061 -0.41300
C 	C 	0.38873 0.24438 0.63963 0.37200
C 	C 	0.42127 0.29051 0.61993 -0.12600
C 	C 	0.44843 0.31891 0.67113 0.06300
H 	H 	0.44707 0.30883 0.71763 0.02900
C 	C 	0.47788 0.36258 0.65413 -0.14000
H 	H 	0.49717 0.38153 0.68883 0.09400
C 	C 	0.47900 0.37793 0.58853 0.10900
C 	C 	0.45192 0.34923 0.53643 -0.13900
H 	H 	0.45327 0.35903 0.48973 0.08300
C 	C 	0.42274 0.30568 0.55473 0.06600
H 	H 	0.40357 0.28643 0.52013 0.02700
C 	C 	0.50659 0.42495 0.56983 -0.06400
C 	C 	0.48799 0.44525 0.53613 -0.04000
H 	H 	0.45807 0.42863 0.52383 0.04500
O 	O 	0.03108 0.55414 0.92289 -0.40700
O 	O 	0.05499 0.56627 0.03395 -0.41300
C 	C 	0.05539 0.57772 0.97297 0.37200
C 	C 	0.08793 0.62385 0.95327 -0.12500
C 	C 	0.11509 0.65225 0.00447 0.06100
H 	H 	0.11373 0.64217 0.05097 0.02900
C 	C 	0.14454 0.69592 0.98747 -0.13700
H 	H 	0.16383 0.71487 0.02217 0.09300
C 	C 	0.14566 0.71127 0.92187 0.10800
C 	C 	0.11858 0.68257 0.86977 -0.13800
H 	H 	0.11993 0.69237 0.82307 0.08200
C 	C 	0.08940 0.63902 0.88807 0.06500
H 	H 	0.07023 0.61977 0.85347 0.02700
C 	C 	0.17325 0.75829 0.90317 -0.06300
C 	C 	0.15465 0.77859 0.86947 -0.04100
H 	H 	0.12473 0.76197 0.85717 0.04600
O 	O 	0.69775 0.81028 0.25622 -0.40700
O 	O 	0.72166 0.82206 0.36728 -0.41300
C 	C 	0.72206 0.81101 0.30630 0.37200
C 	C 	0.75460 0.79742 0.28660 -0.12600
C 	C 	0.78176 0.79618 0.33780 0.06300
H 	H 	0.78040 0.80490 0.38430 0.02900
C 	C 	0.81121 0.78196 0.32080 -0.14000
H 	H 	0.83050 0.78230 0.35550 0.09400
C 	C 	0.81233 0.76773 0.25520 0.10900
C 	C 	0.78525 0.76935 0.20310 -0.13900
H 	H 	0.78660 0.76090 0.15640 0.08300
C 	C 	0.75607 0.78372 0.22140 0.06600
H 	H 	0.73690 0.78380 0.18680 0.02700
C 	C 	0.83992 0.74830 0.23650 -0.06400
C 	C 	0.82132 0.70940 0.20280 -0.04000
H 	H 	0.79140 0.69610 0.19050 0.04500
O 	O 	0.36442 0.14361 0.58955 -0.40700
O 	O 	0.38833 0.15539 0.70061 -0.41300
C 	C 	0.38873 0.14434 0.63963 0.37200
C 	C 	0.42127 0.13075 0.61993 -0.12600
C 	C 	0.44843 0.12951 0.67113 0.06300
H 	H 	0.44707 0.13823 0.71763 0.02900
C 	C 	0.47788 0.11529 0.65413 -0.14000
H 	H 	0.49717 0.11563 0.68883 0.09400
C 	C 	0.47900 0.10106 0.58853 0.10900
C 	C 	0.45192 0.10268 0.53643 -0.13900
H 	H 	0.45327 0.09423 0.48973 0.08300
C 	C 	0.42274 0.11705 0.55473 0.06600
H 	H 	0.40357 0.11713 0.52013 0.02700
C 	C 	0.50659 0.08163 0.56983 -0.06400
C 	C 	0.48799 0.04273 0.53613 -0.04000
H 	H 	0.45807 0.02943 0.52383 0.04500
O 	O 	0.03108 0.47695 0.92289 -0.40700
O 	O 	0.05499 0.48873 0.03395 -0.41300
C 	C 	0.05539 0.47768 0.97297 0.37200
C 	C 	0.08793 0.46409 0.95327 -0.12500
C 	C 	0.11509 0.46285 0.00447 0.06200
H 	H 	0.11373 0.47157 0.05097 0.02900
C 	C 	0.14454 0.44863 0.98747 -0.13800
H 	H 	0.16383 0.44897 0.02217 0.09300
C 	C 	0.14566 0.43440 0.92187 0.10800
C 	C 	0.11858 0.43602 0.86977 -0.13800
H 	H 	0.11993 0.42757 0.82307 0.08200
C 	C 	0.08940 0.45039 0.88807 0.06500
H 	H 	0.07023 0.45047 0.85347 0.02700
C 	C 	0.17325 0.41497 0.90317 -0.06300
C 	C 	0.15465 0.37607 0.86947 -0.04100
H 	H 	0.12473 0.36277 0.85717 0.04500
O 	O 	0.18972 0.88747 0.25622 -0.40700
O 	O 	0.17794 0.89960 0.36728 -0.41300
C 	C 	0.18899 0.91105 0.30630 0.37200
C 	C 	0.20258 0.95718 0.28660 -0.12600
C 	C 	0.20382 0.98558 0.33780 0.06300
H 	H 	0.19510 0.97550 0.38430 0.02900
C 	C 	0.21804 0.02925 0.32080 -0.13900
H 	H 	0.21770 0.04820 0.35550 0.09400
C 	C 	0.23227 0.04460 0.25520 0.10900
C 	C 	0.23065 0.01590 0.20310 -0.13900
H 	H 	0.23910 0.02570 0.15640 0.08200
C 	C 	0.21628 0.97235 0.22140 0.06600
H 	H 	0.21620 0.95310 0.18680 0.02700
C 	C 	0.25170 0.09162 0.23650 -0.06400
C 	C 	0.29060 0.11192 0.20280 -0.04000
H 	H 	0.30390 0.09530 0.19050 0.04500
O 	O 	0.85639 0.22080 0.58955 -0.40700
O 	O 	0.84461 0.23293 0.70061 -0.41300
C 	C 	0.85566 0.24438 0.63963 0.37200
C 	C 	0.86925 0.29051 0.61993 -0.12600
C 	C 	0.87049 0.31891 0.67113 0.06300
H 	H 	0.86177 0.30883 0.71763 0.02900
C 	C 	0.88471 0.36258 0.65413 -0.14000
H 	H 	0.88437 0.38153 0.68883 0.09400
C 	C 	0.89894 0.37793 0.58853 0.10900
C 	C 	0.89732 0.34923 0.53643 -0.13900
H 	H 	0.90577 0.35903 0.48973 0.08300
C 	C 	0.88295 0.30568 0.55473 0.06600
H 	H 	0.88287 0.28643 0.52013 0.02700
C 	C 	0.91837 0.42495 0.56983 -0.06400
C 	C 	0.95727 0.44525 0.53613 -0.04000
H 	H 	0.97057 0.42863 0.52383 0.04500
O 	O 	0.52305 0.55414 0.92289 -0.40700
O 	O 	0.51127 0.56627 0.03395 -0.41300
C 	C 	0.52232 0.57772 0.97297 0.37200
C 	C 	0.53591 0.62385 0.95327 -0.12600
C 	C 	0.53715 0.65225 0.00447 0.06300
H 	H 	0.52843 0.64217 0.05097 0.02900
C 	C 	0.55137 0.69592 0.98747 -0.13900
H 	H 	0.55103 0.71487 0.02217 0.09400
C 	C 	0.56560 0.71127 0.92187 0.10900
C 	C 	0.56398 0.68257 0.86977 -0.13900
H 	H 	0.57243 0.69237 0.82307 0.08200
C 	C 	0.54961 0.63902 0.88807 0.06600
H 	H 	0.54953 0.61977 0.85347 0.02700
C 	C 	0.58503 0.75829 0.90317 -0.06400
C 	C 	0.62393 0.77859 0.86947 -0.04100
H 	H 	0.63723 0.76197 0.85717 0.04500
O 	O 	0.11253 0.30225 0.25622 -0.40700
O 	O 	0.10040 0.27834 0.36728 -0.41300
C 	C 	0.08895 0.27794 0.30630 0.37200
C 	C 	0.04282 0.24540 0.28660 -0.12600
C 	C 	0.01442 0.21824 0.33780 0.06300
H 	H 	0.02450 0.21960 0.38430 0.02900
C 	C 	0.97075 0.18879 0.32080 -0.13900
H 	H 	0.95180 0.16950 0.35550 0.09400
C 	C 	0.95540 0.18767 0.25520 0.10900
C 	C 	0.98410 0.21475 0.20310 -0.13900
H 	H 	0.97430 0.21340 0.15640 0.08200
C 	C 	0.02765 0.24393 0.22140 0.06600
H 	H 	0.04690 0.26310 0.18680 0.02700
C 	C 	0.90838 0.16008 0.23650 -0.06400
C 	C 	0.88808 0.17868 0.20280 -0.04000
H 	H 	0.90470 0.20860 0.19050 0.04500
O 	O 	0.77920 0.63558 0.58955 -0.40700
O 	O 	0.76707 0.61167 0.70061 -0.41300
C 	C 	0.75562 0.61127 0.63963 0.37200
C 	C 	0.70949 0.57873 0.61993 -0.12600
C 	C 	0.68109 0.55157 0.67113 0.06300
H 	H 	0.69117 0.55293 0.71763 0.02900
C 	C 	0.63742 0.52212 0.65413 -0.14000
H 	H 	0.61847 0.50283 0.68883 0.09400
C 	C 	0.62207 0.52100 0.58853 0.10900
C 	C 	0.65077 0.54808 0.53643 -0.13900
H 	H 	0.64097 0.54673 0.48973 0.08300
C 	C 	0.69432 0.57726 0.55473 0.06600
H 	H 	0.71357 0.59643 0.52013 0.02700
C 	C 	0.57505 0.49341 0.56983 -0.06400
C 	C 	0.55475 0.51201 0.53613 -0.04000
H 	H 	0.57137 0.54193 0.52383 0.04500
O 	O 	0.44586 0.96892 0.92289 -0.40700
O 	O 	0.43373 0.94501 0.03395 -0.41300
C 	C 	0.42228 0.94461 0.97297 0.37200
C 	C 	0.37615 0.91207 0.95327 -0.12500
C 	C 	0.34775 0.88491 0.00447 0.06100
H 	H 	0.35783 0.88627 0.05097 0.02900
C 	C 	0.30408 0.85546 0.98747 -0.13700
H 	H 	0.28513 0.83617 0.02217 0.09300
C 	C 	0.28873 0.85434 0.92187 0.10800
C 	C 	0.31743 0.88142 0.86977 -0.13800
H 	H 	0.30763 0.88007 0.82307 0.08200
C 	C 	0.36098 0.91060 0.88807 0.06500
H 	H 	0.38023 0.92977 0.85347 0.02700
C 	C 	0.24171 0.82675 0.90317 -0.06300
C 	C 	0.22141 0.84535 0.86947 -0.04100
H 	H 	0.23803 0.87527 0.85717 0.04600
O 	O 	0.81028 0.69775 0.74378 -0.40700
O 	O 	0.82206 0.72166 0.63272 -0.41300
C 	C 	0.81101 0.72206 0.69370 0.37200
C 	C 	0.79742 0.75460 0.71340 -0.12600
C 	C 	0.79618 0.78176 0.66220 0.06300
H 	H 	0.80490 0.78040 0.61570 0.02900
C 	C 	0.78196 0.81121 0.67920 -0.14000
H 	H 	0.78230 0.83050 0.64450 0.09400
C 	C 	0.76773 0.81233 0.74480 0.10900
C 	C 	0.76935 0.78525 0.79690 -0.13900
H 	H 	0.76090 0.78660 0.84360 0.08300
C 	C 	0.78372 0.75607 0.77860 0.06600
H 	H 	0.78380 0.73690 0.81320 0.02700
C 	C 	0.74830 0.83992 0.76350 -0.06400
C 	C 	0.70940 0.82132 0.79720 -0.04000
H 	H 	0.69610 0.79140 0.80950 0.04500
O 	O 	0.47695 0.03108 0.07711 -0.40700
O 	O 	0.48873 0.05499 0.96605 -0.41300
C 	C 	0.47768 0.05539 0.02703 0.37200
C 	C 	0.46409 0.08793 0.04673 -0.12500
C 	C 	0.46285 0.11509 0.99553 0.06200
H 	H 	0.47157 0.11373 0.94903 0.02900
C 	C 	0.44863 0.14454 0.01253 -0.13800
H 	H 	0.44897 0.16383 0.97783 0.09300
C 	C 	0.43440 0.14566 0.07813 0.10800
C 	C 	0.43602 0.11858 0.13023 -0.13800
H 	H 	0.42757 0.11993 0.17693 0.08200
C 	C 	0.45039 0.08940 0.11193 0.06500
H 	H 	0.45047 0.07023 0.14653 0.02700
C 	C 	0.41497 0.17325 0.09683 -0.06300
C 	C 	0.37607 0.15465 0.13053 -0.04100
H 	H 	0.36277 0.12473 0.14283 0.04500
O 	O 	0.14361 0.36442 0.41045 -0.40700
O 	O 	0.15539 0.38833 0.29939 -0.41300
C 	C 	0.14434 0.38873 0.36037 0.37200
C 	C 	0.13075 0.42127 0.38007 -0.12600
C 	C 	0.12951 0.44843 0.32887 0.06300
H 	H 	0.13823 0.44707 0.28237 0.02900
C 	C 	0.11529 0.47788 0.34587 -0.14000
H 	H 	0.11563 0.49717 0.31117 0.09400
C 	C 	0.10106 0.47900 0.41147 0.10900
C 	C 	0.10268 0.45192 0.46357 -0.13900
H 	H 	0.09423 0.45327 0.51027 0.08300
C 	C 	0.11705 0.42274 0.44527 0.06600
H 	H 	0.11713 0.40357 0.47987 0.02700
C 	C 	0.08163 0.50659 0.43017 -0.06400
C 	C 	0.04273 0.48799 0.46387 -0.04000
H 	H 	0.02943 0.45807 0.47617 0.04500
O 	O 	0.88747 0.18972 0.74378 -0.40700
O 	O 	0.89960 0.17794 0.63272 -0.41300
C 	C 	0.91105 0.18899 0.69370 0.37200
C 	C 	0.95718 0.20258 0.71340 -0.12600
C 	C 	0.98558 0.20382 0.66220 0.06300
H 	H 	0.97550 0.19510 0.61570 0.02900
C 	C 	0.02925 0.21804 0.67920 -0.13900
H 	H 	0.04820 0.21770 0.64450 0.09400
C 	C 	0.04460 0.23227 0.74480 0.10900
C 	C 	0.01590 0.23065 0.79690 -0.13900
H 	H 	0.02570 0.23910 0.84360 0.08200
C 	C 	0.97235 0.21628 0.77860 0.06600
H 	H 	0.95310 0.21620 0.81320 0.02700
C 	C 	0.09162 0.25170 0.76350 -0.06400
C 	C 	0.11192 0.29060 0.79720 -0.04000
H 	H 	0.09530 0.30390 0.80950 0.04500
O 	O 	0.55414 0.52305 0.07711 -0.40700
O 	O 	0.56627 0.51127 0.96605 -0.41300
C 	C 	0.57772 0.52232 0.02703 0.37200
C 	C 	0.62385 0.53591 0.04673 -0.12600
C 	C 	0.65225 0.53715 0.99553 0.06300
H 	H 	0.64217 0.52843 0.94903 0.02900
C 	C 	0.69592 0.55137 0.01253 -0.13900
H 	H 	0.71487 0.55103 0.97783 0.09400
C 	C 	0.71127 0.56560 0.07813 0.10900
C 	C 	0.68257 0.56398 0.13023 -0.13900
H 	H 	0.69237 0.57243 0.17693 0.08200
C 	C 	0.63902 0.54961 0.11193 0.06600
H 	H 	0.61977 0.54953 0.14653 0.02700
C 	C 	0.75829 0.58503 0.09683 -0.06400
C 	C 	0.77859 0.62393 0.13053 -0.04100
H 	H 	0.76197 0.63723 0.14283 0.04500
O 	O 	0.22080 0.85639 0.41045 -0.40700
O 	O 	0.23293 0.84461 0.29939 -0.41300
C 	C 	0.24438 0.85566 0.36037 0.37200
C 	C 	0.29051 0.86925 0.38007 -0.12600
C 	C 	0.31891 0.87049 0.32887 0.06300
H 	H 	0.30883 0.86177 0.28237 0.02900
C 	C 	0.36258 0.88471 0.34587 -0.14000
H 	H 	0.38153 0.88437 0.31117 0.09400
C 	C 	0.37793 0.89894 0.41147 0.10900
C 	C 	0.34923 0.89732 0.46357 -0.13900
H 	H 	0.35903 0.90577 0.51027 0.08300
C 	C 	0.30568 0.88295 0.44527 0.06600
H 	H 	0.28643 0.88287 0.47987 0.02700
C 	C 	0.42495 0.91837 0.43017 -0.06400
C 	C 	0.44525 0.95727 0.46387 -0.04000
H 	H 	0.42863 0.97057 0.47617 0.04500
O 	O 	0.30225 0.11253 0.74378 -0.40700
O 	O 	0.27834 0.10040 0.63272 -0.41300
C 	C 	0.27794 0.08895 0.69370 0.37200
C 	C 	0.24540 0.04282 0.71340 -0.12600
C 	C 	0.21824 0.01442 0.66220 0.06300
H 	H 	0.21960 0.02450 0.61570 0.02900
C 	C 	0.18879 0.97075 0.67920 -0.13900
H 	H 	0.16950 0.95180 0.64450 0.09400
C 	C 	0.18767 0.95540 0.74480 0.10900
C 	C 	0.21475 0.98410 0.79690 -0.13900
H 	H 	0.21340 0.97430 0.84360 0.08200
C 	C 	0.24393 0.02765 0.77860 0.06600
H 	H 	0.26310 0.04690 0.81320 0.02700
C 	C 	0.16008 0.90838 0.76350 -0.06400
C 	C 	0.17868 0.88808 0.79720 -0.04000
H 	H 	0.20860 0.90470 0.80950 0.04500
O 	O 	0.96892 0.44586 0.07711 -0.40700
O 	O 	0.94501 0.43373 0.96605 -0.41300
C 	C 	0.94461 0.42228 0.02703 0.37200
C 	C 	0.91207 0.37615 0.04673 -0.12500
C 	C 	0.88491 0.34775 0.99553 0.06100
H 	H 	0.88627 0.35783 0.94903 0.02900
C 	C 	0.85546 0.30408 0.01253 -0.13700
H 	H 	0.83617 0.28513 0.97783 0.09300
C 	C 	0.85434 0.28873 0.07813 0.10800
C 	C 	0.88142 0.31743 0.13023 -0.13800
H 	H 	0.88007 0.30763 0.17693 0.08200
C 	C 	0.91060 0.36098 0.11193 0.06500
H 	H 	0.92977 0.38023 0.14653 0.02700
C 	C 	0.82675 0.24171 0.09683 -0.06300
C 	C 	0.84535 0.22141 0.13053 -0.04100
H 	H 	0.87527 0.23803 0.14283 0.04600
O 	O 	0.63558 0.77920 0.41045 -0.40700
O 	O 	0.61167 0.76707 0.29939 -0.41300
C 	C 	0.61127 0.75562 0.36037 0.37200
C 	C 	0.57873 0.70949 0.38007 -0.12600
C 	C 	0.55157 0.68109 0.32887 0.06300
H 	H 	0.55293 0.69117 0.28237 0.02900
C 	C 	0.52212 0.63742 0.34587 -0.14000
H 	H 	0.50283 0.61847 0.31117 0.09400
C 	C 	0.52100 0.62207 0.41147 0.10900
C 	C 	0.54808 0.65077 0.46357 -0.13900
H 	H 	0.54673 0.64097 0.51027 0.08300
C 	C 	0.57726 0.69432 0.44527 0.06600
H 	H 	0.59643 0.71357 0.47987 0.02700
C 	C 	0.49341 0.57505 0.43017 -0.06400
C 	C 	0.51201 0.55475 0.46387 -0.04000
H 	H 	0.54193 0.57137 0.47617 0.04500
Cu	Cu	0.31972 0.15986 0.60169 0.90400
Cu	Cu	0.98639 0.49319 0.93502 0.90400
Cu	Cu	0.65305 0.82653 0.26836 0.90400
Cu	Cu	0.84014 0.15986 0.60169 0.90400
Cu	Cu	0.50681 0.49319 0.93502 0.90400
Cu	Cu	0.17347 0.82653 0.26836 0.90400
Cu	Cu	0.84014 0.68028 0.60169 0.90400
Cu	Cu	0.50681 0.01361 0.93502 0.90400
Cu	Cu	0.17347 0.34695 0.26836 0.90400
Cu	Cu	0.15986 0.31972 0.39831 0.90400
Cu	Cu	0.82653 0.65305 0.73164 0.90400
Cu	Cu	0.49319 0.98639 0.06498 0.90400
Cu	Cu	0.15986 0.84014 0.39831 0.90400
Cu	Cu	0.82653 0.17347 0.73164 0.90400
Cu	Cu	0.49319 0.50681 0.06498 0.90400
Cu	Cu	0.68028 0.84014 0.39831 0.90400
Cu	Cu	0.34695 0.17347 0.73164 0.90400
Cu	Cu	0.01361 0.50681 0.06498 0.90400
O 	O 	0.09614 0.19228 0.70820 -0.23700
C 	C 	0.15589 0.31178 0.81460 0.00700
C 	C 	0.11583 0.23166 0.74610 0.13500
C 	C 	0.07210 0.14420 0.80130 -0.09600
C 	C 	0.07780 0.15560 0.75280 0.16900
O 	O 	0.76281 0.52561 0.04153 -0.23600
C 	C 	0.82256 0.64511 0.14793 0.00700
C 	C 	0.78250 0.56499 0.07943 0.13500
C 	C 	0.73877 0.47753 0.13463 -0.09600
C 	C 	0.74447 0.48893 0.08613 0.16900
O 	O 	0.42947 0.85895 0.37487 -0.23700
C 	C 	0.48922 0.97845 0.48127 0.00700
C 	C 	0.44916 0.89833 0.41277 0.13500
C 	C 	0.40543 0.81087 0.46797 -0.09600
C 	C 	0.41113 0.82227 0.41947 0.16900
O 	O 	0.80772 0.90386 0.70820 -0.23700
C 	C 	0.68822 0.84411 0.81460 0.00700
C 	C 	0.76834 0.88417 0.74610 0.13500
C 	C 	0.85580 0.92790 0.80130 -0.09600
C 	C 	0.84440 0.92220 0.75280 0.16900
O 	O 	0.47439 0.23719 0.04153 -0.23600
C 	C 	0.35489 0.17744 0.14793 0.00700
C 	C 	0.43501 0.21750 0.07943 0.13500
C 	C 	0.52247 0.26123 0.13463 -0.09600
C 	C 	0.51107 0.25553 0.08613 0.16900
O 	O 	0.14105 0.57053 0.37487 -0.23700
C 	C 	0.02155 0.51078 0.48127 0.00700
C 	C 	0.10167 0.55084 0.41277 0.13500
C 	C 	0.18913 0.59457 0.46797 -0.09600
C 	C 	0.17773 0.58887 0.41947 0.16900
O 	O 	0.09614 0.90386 0.70820 -0.23700
C 	C 	0.15589 0.84411 0.81460 0.00700
C 	C 	0.11583 0.88417 0.74610 0.13500
C 	C 	0.07210 0.92790 0.80130 -0.09600
C 	C 	0.07780 0.92220 0.75280 0.16900
O 	O 	0.76281 0.23719 0.04153 -0.23600
C 	C 	0.82256 0.17744 0.14793 0.00700
C 	C 	0.78250 0.21750 0.07943 0.13500
C 	C 	0.73877 0.26123 0.13463 -0.09600
C 	C 	0.74447 0.25553 0.08613 0.16900
O 	O 	0.42947 0.57053 0.37487 -0.23700
C 	C 	0.48922 0.51078 0.48127 0.00700
C 	C 	0.44916 0.55084 0.41277 0.13500
C 	C 	0.40543 0.59457 0.46797 -0.09600
C 	C 	0.41113 0.58887 0.41947 0.16900
O 	O 	0.19228 0.09614 0.29180 -0.23700
C 	C 	0.31178 0.15589 0.18540 0.00700
C 	C 	0.23166 0.11583 0.25390 0.13500
C 	C 	0.14420 0.07210 0.19870 -0.09600
C 	C 	0.15560 0.07780 0.24720 0.16900
O 	O 	0.85895 0.42947 0.62513 -0.23700
C 	C 	0.97845 0.48922 0.51873 0.00700
C 	C 	0.89833 0.44916 0.58723 0.13500
C 	C 	0.81087 0.40543 0.53203 -0.09600
C 	C 	0.82227 0.41113 0.58053 0.16900
O 	O 	0.52561 0.76281 0.95847 -0.23600
C 	C 	0.64511 0.82256 0.85207 0.00700
C 	C 	0.56499 0.78250 0.92057 0.13500
C 	C 	0.47753 0.73877 0.86537 -0.09600
C 	C 	0.48893 0.74447 0.91387 0.16900
O 	O 	0.90386 0.80772 0.29180 -0.23700
C 	C 	0.84411 0.68822 0.18540 0.00700
C 	C 	0.88417 0.76834 0.25390 0.13500
C 	C 	0.92790 0.85580 0.19870 -0.09600
C 	C 	0.92220 0.84440 0.24720 0.16900
O 	O 	0.57053 0.14105 0.62513 -0.23700
C 	C 	0.51078 0.02155 0.51873 0.00700
C 	C 	0.55084 0.10167 0.58723 0.13500
C 	C 	0.59457 0.18913 0.53203 -0.09600
C 	C 	0.58887 0.17773 0.58053 0.16900
O 	O 	0.23719 0.47439 0.95847 -0.23600
C 	C 	0.17744 0.35489 0.85207 0.00700
C 	C 	0.21750 0.43501 0.92057 0.13500
C 	C 	0.26123 0.52247 0.86537 -0.09600
C 	C 	0.25553 0.51107 0.91387 0.16900
O 	O 	0.90386 0.09614 0.29180 -0.23700
C 	C 	0.84411 0.15589 0.18540 0.00700
C 	C 	0.88417 0.11583 0.25390 0.13500
C 	C 	0.92790 0.07210 0.19870 -0.09600
C 	C 	0.92220 0.07780 0.24720 0.16900
O 	O 	0.57053 0.42947 0.62513 -0.23700
C 	C 	0.51078 0.48922 0.51873 0.00700
C 	C 	0.55084 0.44916 0.58723 0.13500
C 	C 	0.59457 0.40543 0.53203 -0.09600
C 	C 	0.58887 0.41113 0.58053 0.16900
O 	O 	0.23719 0.76281 0.95847 -0.23600
C 	C 	0.17744 0.82256 0.85207 0.00700
C 	C 	0.21750 0.78250 0.92057 0.13500
C 	C 	0.26123 0.73877 0.86537 -0.09600
C 	C 	0.25553 0.74447 0.91387 0.16900
