data_crystal

_cell_length_a 35.28420
_cell_length_b 35.28420
_cell_length_c 21.04490
_cell_angle_alpha 90.00000
_cell_angle_beta  90.00000
_cell_angle_gamma 120.00000

_symmetry_space_group_name_	'P 1'
_symmetry_space_group_name_H-M	'P 1'

loop_
_symmetry_equiv_pos_as_xyz
  x,y,z

loop_
_atom_site_label
_atom_site_type_symbol
_atom_site_fract_x
_atom_site_fract_y
_atom_site_fract_z
_atom_site_charge
O 	O 	0.30344 0.19074 0.23840 -0.40300
O 	O 	0.27769 0.17778 0.13747 -0.40000
C 	C 	0.27848 0.18987 0.19457 0.35400
C 	C 	0.24686 0.20477 0.21276 -0.11100
C 	C 	0.21874 0.20636 0.16651 0.05400
H 	H 	0.21900 0.19680 0.12440 0.03200
C 	C 	0.19087 0.22165 0.18204 -0.12800
H 	H 	0.17270 0.22340 0.15020 0.09000
C 	C 	0.18908 0.23455 0.24386 0.10100
C 	C 	0.21675 0.23283 0.28984 -0.12900
H 	H 	0.21590 0.24170 0.33220 0.08000
C 	C 	0.24576 0.21806 0.27381 0.05400
H 	H 	0.26470 0.21720 0.30520 0.03100
C 	C 	0.16153 0.25399 0.26132 -0.05900
C 	C 	0.17970 0.29200 0.29730 -0.04300
H 	H 	0.20930 0.30450 0.31040 0.04700
C 	C 	0.08790 0.15520 0.24600 0.04600
C 	C 	0.07420 0.12070 0.18540 0.00200
C 	C 	0.08960 0.14260 0.30380 -0.01600
O 	O 	0.97011 0.52407 0.57173 -0.40400
O 	O 	0.94436 0.51111 0.47080 -0.40100
C 	C 	0.94515 0.52320 0.52790 0.35300
C 	C 	0.91353 0.53810 0.54609 -0.11200
C 	C 	0.88541 0.53969 0.49984 0.05300
H 	H 	0.88567 0.53013 0.45773 0.03100
C 	C 	0.85754 0.55498 0.51537 -0.12900
H 	H 	0.83937 0.55673 0.48353 0.08900
C 	C 	0.85575 0.56788 0.57719 0.10000
C 	C 	0.88342 0.56616 0.62317 -0.13000
H 	H 	0.88257 0.57503 0.66553 0.07900
C 	C 	0.91243 0.55139 0.60714 0.05300
H 	H 	0.93137 0.55053 0.63853 0.03000
C 	C 	0.82820 0.58732 0.59465 -0.06000
C 	C 	0.84637 0.62533 0.63063 -0.04400
H 	H 	0.87597 0.63783 0.64373 0.04600
C 	C 	0.75457 0.48853 0.57933 0.04500
C 	C 	0.74087 0.45403 0.51873 0.00100
C 	C 	0.75627 0.47593 0.63713 -0.01600
O 	O 	0.63677 0.85741 0.90507 -0.40400
O 	O 	0.61102 0.84445 0.80414 -0.40100
C 	C 	0.61181 0.85654 0.86124 0.35300
C 	C 	0.58019 0.87144 0.87943 -0.11200
C 	C 	0.55207 0.87303 0.83318 0.05300
H 	H 	0.55233 0.86347 0.79107 0.03100
C 	C 	0.52420 0.88832 0.84871 -0.12900
H 	H 	0.50603 0.89007 0.81687 0.08900
C 	C 	0.52241 0.90122 0.91053 0.10000
C 	C 	0.55008 0.89950 0.95651 -0.13000
H 	H 	0.54923 0.90837 0.99887 0.07900
C 	C 	0.57909 0.88473 0.94048 0.05300
H 	H 	0.59803 0.88387 0.97187 0.03000
C 	C 	0.49486 0.92066 0.92799 -0.06000
C 	C 	0.51303 0.95867 0.96397 -0.04400
H 	H 	0.54263 0.97117 0.97707 0.04600
C 	C 	0.42123 0.82187 0.91267 0.04500
C 	C 	0.40753 0.78737 0.85207 0.00100
C 	C 	0.42293 0.80927 0.97047 -0.01600
O 	O 	0.80926 0.11270 0.23840 -0.40400
O 	O 	0.82222 0.09991 0.13747 -0.40100
C 	C 	0.81013 0.08861 0.19457 0.35300
C 	C 	0.79523 0.04209 0.21276 -0.11200
C 	C 	0.79364 0.01238 0.16651 0.05300
H 	H 	0.80320 0.02220 0.12440 0.03100
C 	C 	0.77835 0.96922 0.18204 -0.12900
H 	H 	0.77660 0.94930 0.15020 0.08900
C 	C 	0.76545 0.95453 0.24386 0.10000
C 	C 	0.76717 0.98392 0.28984 -0.13000
H 	H 	0.75830 0.97420 0.33220 0.07900
C 	C 	0.78194 0.02770 0.27381 0.05300
H 	H 	0.78280 0.04750 0.30520 0.03000
C 	C 	0.74601 0.90754 0.26132 -0.06000
C 	C 	0.70800 0.88770 0.29730 -0.04400
H 	H 	0.69550 0.90480 0.31040 0.04600
C 	C 	0.84480 0.93270 0.24600 0.04500
C 	C 	0.87930 0.95350 0.18540 0.00100
C 	C 	0.85740 0.94700 0.30380 -0.01600
O 	O 	0.47593 0.44603 0.57173 -0.40400
O 	O 	0.48889 0.43324 0.47080 -0.40100
C 	C 	0.47680 0.42194 0.52790 0.35300
C 	C 	0.46190 0.37542 0.54609 -0.11200
C 	C 	0.46031 0.34571 0.49984 0.05300
H 	H 	0.46987 0.35553 0.45773 0.03100
C 	C 	0.44502 0.30255 0.51537 -0.12900
H 	H 	0.44327 0.28263 0.48353 0.08900
C 	C 	0.43212 0.28786 0.57719 0.10000
C 	C 	0.43384 0.31725 0.62317 -0.13000
H 	H 	0.42497 0.30753 0.66553 0.07900
C 	C 	0.44861 0.36103 0.60714 0.05300
H 	H 	0.44947 0.38083 0.63853 0.03000
C 	C 	0.41268 0.24087 0.59465 -0.06000
C 	C 	0.37467 0.22103 0.63063 -0.04400
H 	H 	0.36217 0.23813 0.64373 0.04600
C 	C 	0.51147 0.26603 0.57933 0.04500
C 	C 	0.54597 0.28683 0.51873 0.00100
C 	C 	0.52407 0.28033 0.63713 -0.01600
O 	O 	0.14259 0.77937 0.90507 -0.40400
O 	O 	0.15555 0.76658 0.80414 -0.40100
C 	C 	0.14346 0.75528 0.86124 0.35300
C 	C 	0.12856 0.70876 0.87943 -0.11200
C 	C 	0.12697 0.67905 0.83318 0.05300
H 	H 	0.13653 0.68887 0.79107 0.03100
C 	C 	0.11168 0.63589 0.84871 -0.12900
H 	H 	0.10993 0.61597 0.81687 0.08900
C 	C 	0.09878 0.62120 0.91053 0.10000
C 	C 	0.10050 0.65059 0.95651 -0.13000
H 	H 	0.09163 0.64087 0.99887 0.07900
C 	C 	0.11527 0.69437 0.94048 0.05300
H 	H 	0.11613 0.71417 0.97187 0.03000
C 	C 	0.07934 0.57421 0.92799 -0.06000
C 	C 	0.04133 0.55437 0.96397 -0.04400
H 	H 	0.02883 0.57147 0.97707 0.04600
C 	C 	0.17813 0.59937 0.91267 0.04500
C 	C 	0.21263 0.62017 0.85207 0.00100
C 	C 	0.19073 0.61367 0.97047 -0.01600
O 	O 	0.88730 0.69656 0.23840 -0.40400
O 	O 	0.90009 0.72231 0.13747 -0.40100
C 	C 	0.91139 0.72152 0.19457 0.35300
C 	C 	0.95791 0.75314 0.21276 -0.11200
C 	C 	0.98762 0.78126 0.16651 0.05300
H 	H 	0.97780 0.78100 0.12440 0.03100
C 	C 	0.03078 0.80913 0.18204 -0.12800
H 	H 	0.05070 0.82730 0.15020 0.08900
C 	C 	0.04547 0.81092 0.24386 0.10000
C 	C 	0.01608 0.78325 0.28984 -0.13000
H 	H 	0.02580 0.78410 0.33220 0.07800
C 	C 	0.97230 0.75424 0.27381 0.05300
H 	H 	0.95250 0.73530 0.30520 0.03000
C 	C 	0.09246 0.83847 0.26132 -0.06000
C 	C 	0.11230 0.82030 0.29730 -0.04400
H 	H 	0.09520 0.79070 0.31040 0.04600
C 	C 	0.06730 0.91210 0.24600 0.04500
C 	C 	0.04650 0.92580 0.18540 0.00100
C 	C 	0.05300 0.91040 0.30380 -0.01600
O 	O 	0.55397 0.02989 0.57173 -0.40400
O 	O 	0.56676 0.05564 0.47080 -0.40100
C 	C 	0.57806 0.05485 0.52790 0.35300
C 	C 	0.62458 0.08647 0.54609 -0.11200
C 	C 	0.65429 0.11459 0.49984 0.05300
H 	H 	0.64447 0.11433 0.45773 0.03100
C 	C 	0.69745 0.14246 0.51537 -0.12900
H 	H 	0.71737 0.16063 0.48353 0.08900
C 	C 	0.71214 0.14425 0.57719 0.10000
C 	C 	0.68275 0.11658 0.62317 -0.13000
H 	H 	0.69247 0.11743 0.66553 0.07900
C 	C 	0.63897 0.08757 0.60714 0.05300
H 	H 	0.61917 0.06863 0.63853 0.03000
C 	C 	0.75913 0.17180 0.59465 -0.06000
C 	C 	0.77897 0.15363 0.63063 -0.04400
H 	H 	0.76187 0.12403 0.64373 0.04600
C 	C 	0.73397 0.24543 0.57933 0.04500
C 	C 	0.71317 0.25913 0.51873 0.00100
C 	C 	0.71967 0.24373 0.63713 -0.01600
O 	O 	0.22063 0.36323 0.90507 -0.40400
O 	O 	0.23342 0.38898 0.80414 -0.40100
C 	C 	0.24472 0.38819 0.86124 0.35300
C 	C 	0.29124 0.41981 0.87943 -0.11200
C 	C 	0.32095 0.44793 0.83318 0.05300
H 	H 	0.31113 0.44767 0.79107 0.03100
C 	C 	0.36411 0.47580 0.84871 -0.12900
H 	H 	0.38403 0.49397 0.81687 0.08900
C 	C 	0.37880 0.47759 0.91053 0.10000
C 	C 	0.34941 0.44992 0.95651 -0.13000
H 	H 	0.35913 0.45077 0.99887 0.07900
C 	C 	0.30563 0.42091 0.94048 0.05300
H 	H 	0.28583 0.40197 0.97187 0.03000
C 	C 	0.42579 0.50514 0.92799 -0.06000
C 	C 	0.44563 0.48697 0.96397 -0.04400
H 	H 	0.42853 0.45737 0.97707 0.04600
C 	C 	0.40063 0.57877 0.91267 0.04500
C 	C 	0.37983 0.59247 0.85207 0.00100
C 	C 	0.38633 0.57707 0.97047 -0.01600
O 	O 	0.19074 0.30344 0.76160 -0.40400
O 	O 	0.17778 0.27769 0.86253 -0.40100
C 	C 	0.18987 0.27848 0.80543 0.35300
C 	C 	0.20477 0.24686 0.78724 -0.11200
C 	C 	0.20636 0.21874 0.83349 0.05300
H 	H 	0.19680 0.21900 0.87560 0.03100
C 	C 	0.22165 0.19087 0.81796 -0.12900
H 	H 	0.22340 0.17270 0.84980 0.08900
C 	C 	0.23455 0.18908 0.75614 0.10000
C 	C 	0.23283 0.21675 0.71016 -0.13000
H 	H 	0.24170 0.21590 0.66780 0.07900
C 	C 	0.21806 0.24576 0.72619 0.05300
H 	H 	0.21720 0.26470 0.69480 0.03000
C 	C 	0.25399 0.16153 0.73868 -0.06000
C 	C 	0.29200 0.17970 0.70270 -0.04400
H 	H 	0.30450 0.20930 0.68960 0.04600
C 	C 	0.15520 0.08790 0.75400 0.04500
C 	C 	0.12070 0.07420 0.81460 0.00100
C 	C 	0.14260 0.08960 0.69620 -0.01600
O 	O 	0.85741 0.63677 0.09493 -0.40400
O 	O 	0.84445 0.61102 0.19586 -0.40100
C 	C 	0.85654 0.61181 0.13876 0.35300
C 	C 	0.87144 0.58019 0.12057 -0.11200
C 	C 	0.87303 0.55207 0.16682 0.05300
H 	H 	0.86347 0.55233 0.20893 0.03100
C 	C 	0.88832 0.52420 0.15129 -0.12900
H 	H 	0.89007 0.50603 0.18313 0.08900
C 	C 	0.90122 0.52241 0.08947 0.10000
C 	C 	0.89950 0.55008 0.04349 -0.13000
H 	H 	0.90837 0.54923 0.00113 0.07900
C 	C 	0.88473 0.57909 0.05952 0.05300
H 	H 	0.88387 0.59803 0.02813 0.03000
C 	C 	0.92066 0.49486 0.07201 -0.06000
C 	C 	0.95867 0.51303 0.03603 -0.04400
H 	H 	0.97117 0.54263 0.02293 0.04600
C 	C 	0.82187 0.42123 0.08733 0.04500
C 	C 	0.78737 0.40753 0.14793 0.00100
C 	C 	0.80927 0.42293 0.02953 -0.01600
O 	O 	0.52407 0.97011 0.42827 -0.40400
O 	O 	0.51111 0.94436 0.52920 -0.40100
C 	C 	0.52320 0.94515 0.47210 0.35300
C 	C 	0.53810 0.91353 0.45391 -0.11200
C 	C 	0.53969 0.88541 0.50016 0.05300
H 	H 	0.53013 0.88567 0.54227 0.03100
C 	C 	0.55498 0.85754 0.48463 -0.12900
H 	H 	0.55673 0.83937 0.51647 0.08900
C 	C 	0.56788 0.85575 0.42281 0.10000
C 	C 	0.56616 0.88342 0.37683 -0.13000
H 	H 	0.57503 0.88257 0.33447 0.07900
C 	C 	0.55139 0.91243 0.39286 0.05300
H 	H 	0.55053 0.93137 0.36147 0.03000
C 	C 	0.58732 0.82820 0.40535 -0.06000
C 	C 	0.62533 0.84637 0.36937 -0.04400
H 	H 	0.63783 0.87597 0.35627 0.04600
C 	C 	0.48853 0.75457 0.42067 0.04500
C 	C 	0.45403 0.74087 0.48127 0.00100
C 	C 	0.47593 0.75627 0.36287 -0.01600
O 	O 	0.11270 0.80926 0.76160 -0.40400
O 	O 	0.09991 0.82222 0.86253 -0.40100
C 	C 	0.08861 0.81013 0.80543 0.35300
C 	C 	0.04209 0.79523 0.78724 -0.11200
C 	C 	0.01238 0.79364 0.83349 0.05300
H 	H 	0.02220 0.80320 0.87560 0.03100
C 	C 	0.96922 0.77835 0.81796 -0.12900
H 	H 	0.94930 0.77660 0.84980 0.08900
C 	C 	0.95453 0.76545 0.75614 0.10000
C 	C 	0.98392 0.76717 0.71016 -0.13000
H 	H 	0.97420 0.75830 0.66780 0.07900
C 	C 	0.02770 0.78194 0.72619 0.05300
H 	H 	0.04750 0.78280 0.69480 0.03000
C 	C 	0.90754 0.74601 0.73868 -0.06000
C 	C 	0.88770 0.70800 0.70270 -0.04400
H 	H 	0.90480 0.69550 0.68960 0.04600
C 	C 	0.93270 0.84480 0.75400 0.04500
C 	C 	0.95350 0.87930 0.81460 0.00100
C 	C 	0.94700 0.85740 0.69620 -0.01600
O 	O 	0.77937 0.14259 0.09493 -0.40400
O 	O 	0.76658 0.15555 0.19586 -0.40100
C 	C 	0.75528 0.14346 0.13876 0.35300
C 	C 	0.70876 0.12856 0.12057 -0.11200
C 	C 	0.67905 0.12697 0.16682 0.05300
H 	H 	0.68887 0.13653 0.20893 0.03100
C 	C 	0.63589 0.11168 0.15129 -0.12900
H 	H 	0.61597 0.10993 0.18313 0.08900
C 	C 	0.62120 0.09878 0.08947 0.10000
C 	C 	0.65059 0.10050 0.04349 -0.13000
H 	H 	0.64087 0.09163 0.00113 0.07900
C 	C 	0.69437 0.11527 0.05952 0.05300
H 	H 	0.71417 0.11613 0.02813 0.03000
C 	C 	0.57421 0.07934 0.07201 -0.06000
C 	C 	0.55437 0.04133 0.03603 -0.04400
H 	H 	0.57147 0.02883 0.02293 0.04600
C 	C 	0.59937 0.17813 0.08733 0.04500
C 	C 	0.62017 0.21263 0.14793 0.00100
C 	C 	0.61367 0.19073 0.02953 -0.01600
O 	O 	0.44603 0.47593 0.42827 -0.40400
O 	O 	0.43324 0.48889 0.52920 -0.40100
C 	C 	0.42194 0.47680 0.47210 0.35300
C 	C 	0.37542 0.46190 0.45391 -0.11200
C 	C 	0.34571 0.46031 0.50016 0.05300
H 	H 	0.35553 0.46987 0.54227 0.03100
C 	C 	0.30255 0.44502 0.48463 -0.12900
H 	H 	0.28263 0.44327 0.51647 0.08900
C 	C 	0.28786 0.43212 0.42281 0.10000
C 	C 	0.31725 0.43384 0.37683 -0.13000
H 	H 	0.30753 0.42497 0.33447 0.07900
C 	C 	0.36103 0.44861 0.39286 0.05300
H 	H 	0.38083 0.44947 0.36147 0.03000
C 	C 	0.24087 0.41268 0.40535 -0.06000
C 	C 	0.22103 0.37467 0.36937 -0.04400
H 	H 	0.23813 0.36217 0.35627 0.04600
C 	C 	0.26603 0.51147 0.42067 0.04500
C 	C 	0.28683 0.54597 0.48127 0.00100
C 	C 	0.28033 0.52407 0.36287 -0.01600
O 	O 	0.69656 0.88730 0.76160 -0.40400
O 	O 	0.72231 0.90009 0.86253 -0.40100
C 	C 	0.72152 0.91139 0.80543 0.35300
C 	C 	0.75314 0.95791 0.78724 -0.11200
C 	C 	0.78126 0.98762 0.83349 0.05300
H 	H 	0.78100 0.97780 0.87560 0.03100
C 	C 	0.80913 0.03078 0.81796 -0.12800
H 	H 	0.82730 0.05070 0.84980 0.08900
C 	C 	0.81092 0.04547 0.75614 0.10000
C 	C 	0.78325 0.01608 0.71016 -0.13000
H 	H 	0.78410 0.02580 0.66780 0.07800
C 	C 	0.75424 0.97230 0.72619 0.05300
H 	H 	0.73530 0.95250 0.69480 0.03000
C 	C 	0.83847 0.09246 0.73868 -0.06000
C 	C 	0.82030 0.11230 0.70270 -0.04400
H 	H 	0.79070 0.09520 0.68960 0.04600
C 	C 	0.91210 0.06730 0.75400 0.04500
C 	C 	0.92580 0.04650 0.81460 0.00100
C 	C 	0.91040 0.05300 0.69620 -0.01600
O 	O 	0.36323 0.22063 0.09493 -0.40400
O 	O 	0.38898 0.23342 0.19586 -0.40100
C 	C 	0.38819 0.24472 0.13876 0.35300
C 	C 	0.41981 0.29124 0.12057 -0.11200
C 	C 	0.44793 0.32095 0.16682 0.05300
H 	H 	0.44767 0.31113 0.20893 0.03100
C 	C 	0.47580 0.36411 0.15129 -0.12900
H 	H 	0.49397 0.38403 0.18313 0.08900
C 	C 	0.47759 0.37880 0.08947 0.10000
C 	C 	0.44992 0.34941 0.04349 -0.13000
H 	H 	0.45077 0.35913 0.00113 0.07900
C 	C 	0.42091 0.30563 0.05952 0.05300
H 	H 	0.40197 0.28583 0.02813 0.03000
C 	C 	0.50514 0.42579 0.07201 -0.06000
C 	C 	0.48697 0.44563 0.03603 -0.04400
H 	H 	0.45737 0.42853 0.02293 0.04600
C 	C 	0.57877 0.40063 0.08733 0.04500
C 	C 	0.59247 0.37983 0.14793 0.00100
C 	C 	0.57707 0.38633 0.02953 -0.01600
O 	O 	0.02989 0.55397 0.42827 -0.40400
O 	O 	0.05564 0.56676 0.52920 -0.40100
C 	C 	0.05485 0.57806 0.47210 0.35300
C 	C 	0.08647 0.62458 0.45391 -0.11200
C 	C 	0.11459 0.65429 0.50016 0.05300
H 	H 	0.11433 0.64447 0.54227 0.03100
C 	C 	0.14246 0.69745 0.48463 -0.12900
H 	H 	0.16063 0.71737 0.51647 0.08900
C 	C 	0.14425 0.71214 0.42281 0.10000
C 	C 	0.11658 0.68275 0.37683 -0.13000
H 	H 	0.11743 0.69247 0.33447 0.07900
C 	C 	0.08757 0.63897 0.39286 0.05300
H 	H 	0.06863 0.61917 0.36147 0.03000
C 	C 	0.17180 0.75913 0.40535 -0.06000
C 	C 	0.15363 0.77897 0.36937 -0.04400
H 	H 	0.12403 0.76187 0.35627 0.04600
C 	C 	0.24543 0.73397 0.42067 0.04500
C 	C 	0.25913 0.71317 0.48127 0.00100
C 	C 	0.24373 0.71967 0.36287 -0.01600
O 	O 	0.69656 0.80926 0.76160 -0.40400
O 	O 	0.72231 0.82222 0.86253 -0.40100
C 	C 	0.72152 0.81013 0.80543 0.35300
C 	C 	0.75314 0.79523 0.78724 -0.11200
C 	C 	0.78126 0.79364 0.83349 0.05300
H 	H 	0.78100 0.80320 0.87560 0.03100
C 	C 	0.80913 0.77835 0.81796 -0.12900
H 	H 	0.82730 0.77660 0.84980 0.08900
C 	C 	0.81092 0.76545 0.75614 0.10000
C 	C 	0.78325 0.76717 0.71016 -0.13000
H 	H 	0.78410 0.75830 0.66780 0.07900
C 	C 	0.75424 0.78194 0.72619 0.05300
H 	H 	0.73530 0.78280 0.69480 0.03000
C 	C 	0.83847 0.74601 0.73868 -0.06000
C 	C 	0.82030 0.70800 0.70270 -0.04400
H 	H 	0.79070 0.69550 0.68960 0.04600
C 	C 	0.91210 0.84480 0.75400 0.04500
C 	C 	0.92580 0.87930 0.81460 0.00100
C 	C 	0.91040 0.85740 0.69620 -0.01600
O 	O 	0.36323 0.14259 0.09493 -0.40400
O 	O 	0.38898 0.15555 0.19586 -0.40100
C 	C 	0.38819 0.14346 0.13876 0.35300
C 	C 	0.41981 0.12856 0.12057 -0.11200
C 	C 	0.44793 0.12697 0.16682 0.05300
H 	H 	0.44767 0.13653 0.20893 0.03100
C 	C 	0.47580 0.11168 0.15129 -0.12900
H 	H 	0.49397 0.10993 0.18313 0.08900
C 	C 	0.47759 0.09878 0.08947 0.10000
C 	C 	0.44992 0.10050 0.04349 -0.13000
H 	H 	0.45077 0.09163 0.00113 0.07900
C 	C 	0.42091 0.11527 0.05952 0.05300
H 	H 	0.40197 0.11613 0.02813 0.03000
C 	C 	0.50514 0.07934 0.07201 -0.06000
C 	C 	0.48697 0.04133 0.03603 -0.04400
H 	H 	0.45737 0.02883 0.02293 0.04600
C 	C 	0.57877 0.17813 0.08733 0.04500
C 	C 	0.59247 0.21263 0.14793 0.00100
C 	C 	0.57707 0.19073 0.02953 -0.01600
O 	O 	0.02989 0.47593 0.42827 -0.40400
O 	O 	0.05564 0.48889 0.52920 -0.40100
C 	C 	0.05485 0.47680 0.47210 0.35300
C 	C 	0.08647 0.46190 0.45391 -0.11200
C 	C 	0.11459 0.46031 0.50016 0.05300
H 	H 	0.11433 0.46987 0.54227 0.03100
C 	C 	0.14246 0.44502 0.48463 -0.12900
H 	H 	0.16063 0.44327 0.51647 0.08900
C 	C 	0.14425 0.43212 0.42281 0.10000
C 	C 	0.11658 0.43384 0.37683 -0.13000
H 	H 	0.11743 0.42497 0.33447 0.07900
C 	C 	0.08757 0.44861 0.39286 0.05300
H 	H 	0.06863 0.44947 0.36147 0.03000
C 	C 	0.17180 0.41268 0.40535 -0.06000
C 	C 	0.15363 0.37467 0.36937 -0.04400
H 	H 	0.12403 0.36217 0.35627 0.04600
C 	C 	0.24543 0.51147 0.42067 0.04500
C 	C 	0.25913 0.54597 0.48127 0.00100
C 	C 	0.24373 0.52407 0.36287 -0.01600
O 	O 	0.19074 0.88730 0.76160 -0.40400
O 	O 	0.17778 0.90009 0.86253 -0.40100
C 	C 	0.18987 0.91139 0.80543 0.35300
C 	C 	0.20477 0.95791 0.78724 -0.11200
C 	C 	0.20636 0.98762 0.83349 0.05300
H 	H 	0.19680 0.97780 0.87560 0.03100
C 	C 	0.22165 0.03078 0.81796 -0.12900
H 	H 	0.22340 0.05070 0.84980 0.08900
C 	C 	0.23455 0.04547 0.75614 0.10000
C 	C 	0.23283 0.01608 0.71016 -0.13000
H 	H 	0.24170 0.02580 0.66780 0.07900
C 	C 	0.21806 0.97230 0.72619 0.05300
H 	H 	0.21720 0.95250 0.69480 0.03000
C 	C 	0.25399 0.09246 0.73868 -0.06000
C 	C 	0.29200 0.11230 0.70270 -0.04400
H 	H 	0.30450 0.09520 0.68960 0.04600
C 	C 	0.15520 0.06730 0.75400 0.04500
C 	C 	0.12070 0.04650 0.81460 0.00100
C 	C 	0.14260 0.05300 0.69620 -0.01600
O 	O 	0.85741 0.22063 0.09493 -0.40400
O 	O 	0.84445 0.23342 0.19586 -0.40100
C 	C 	0.85654 0.24472 0.13876 0.35300
C 	C 	0.87144 0.29124 0.12057 -0.11200
C 	C 	0.87303 0.32095 0.16682 0.05300
H 	H 	0.86347 0.31113 0.20893 0.03100
C 	C 	0.88832 0.36411 0.15129 -0.12900
H 	H 	0.89007 0.38403 0.18313 0.08900
C 	C 	0.90122 0.37880 0.08947 0.10000
C 	C 	0.89950 0.34941 0.04349 -0.13000
H 	H 	0.90837 0.35913 0.00113 0.07900
C 	C 	0.88473 0.30563 0.05952 0.05300
H 	H 	0.88387 0.28583 0.02813 0.03000
C 	C 	0.92066 0.42579 0.07201 -0.06000
C 	C 	0.95867 0.44563 0.03603 -0.04400
H 	H 	0.97117 0.42853 0.02293 0.04600
C 	C 	0.82187 0.40063 0.08733 0.04500
C 	C 	0.78737 0.37983 0.14793 0.00100
C 	C 	0.80927 0.38633 0.02953 -0.01600
O 	O 	0.52407 0.55397 0.42827 -0.40400
O 	O 	0.51111 0.56676 0.52920 -0.40100
C 	C 	0.52320 0.57806 0.47210 0.35300
C 	C 	0.53810 0.62458 0.45391 -0.11200
C 	C 	0.53969 0.65429 0.50016 0.05300
H 	H 	0.53013 0.64447 0.54227 0.03100
C 	C 	0.55498 0.69745 0.48463 -0.12900
H 	H 	0.55673 0.71737 0.51647 0.08900
C 	C 	0.56788 0.71214 0.42281 0.10000
C 	C 	0.56616 0.68275 0.37683 -0.13000
H 	H 	0.57503 0.69247 0.33447 0.07900
C 	C 	0.55139 0.63897 0.39286 0.05300
H 	H 	0.55053 0.61917 0.36147 0.03000
C 	C 	0.58732 0.75913 0.40535 -0.06000
C 	C 	0.62533 0.77897 0.36937 -0.04400
H 	H 	0.63783 0.76187 0.35627 0.04600
C 	C 	0.48853 0.73397 0.42067 0.04500
C 	C 	0.45403 0.71317 0.48127 0.00100
C 	C 	0.47593 0.71967 0.36287 -0.01600
O 	O 	0.11270 0.30344 0.76160 -0.40400
O 	O 	0.09991 0.27769 0.86253 -0.40100
C 	C 	0.08861 0.27848 0.80543 0.35300
C 	C 	0.04209 0.24686 0.78724 -0.11200
C 	C 	0.01238 0.21874 0.83349 0.05300
H 	H 	0.02220 0.21900 0.87560 0.03100
C 	C 	0.96922 0.19087 0.81796 -0.12800
H 	H 	0.94930 0.17270 0.84980 0.08900
C 	C 	0.95453 0.18908 0.75614 0.10000
C 	C 	0.98392 0.21675 0.71016 -0.13000
H 	H 	0.97420 0.21590 0.66780 0.07800
C 	C 	0.02770 0.24576 0.72619 0.05300
H 	H 	0.04750 0.26470 0.69480 0.03000
C 	C 	0.90754 0.16153 0.73868 -0.06000
C 	C 	0.88770 0.17970 0.70270 -0.04400
H 	H 	0.90480 0.20930 0.68960 0.04600
C 	C 	0.93270 0.08790 0.75400 0.04500
C 	C 	0.95350 0.07420 0.81460 0.00100
C 	C 	0.94700 0.08960 0.69620 -0.01600
O 	O 	0.77937 0.63677 0.09493 -0.40400
O 	O 	0.76658 0.61102 0.19586 -0.40100
C 	C 	0.75528 0.61181 0.13876 0.35300
C 	C 	0.70876 0.58019 0.12057 -0.11200
C 	C 	0.67905 0.55207 0.16682 0.05300
H 	H 	0.68887 0.55233 0.20893 0.03100
C 	C 	0.63589 0.52420 0.15129 -0.12900
H 	H 	0.61597 0.50603 0.18313 0.08900
C 	C 	0.62120 0.52241 0.08947 0.10000
C 	C 	0.65059 0.55008 0.04349 -0.13000
H 	H 	0.64087 0.54923 0.00113 0.07900
C 	C 	0.69437 0.57909 0.05952 0.05300
H 	H 	0.71417 0.59803 0.02813 0.03000
C 	C 	0.57421 0.49486 0.07201 -0.06000
C 	C 	0.55437 0.51303 0.03603 -0.04400
H 	H 	0.57147 0.54263 0.02293 0.04600
C 	C 	0.59937 0.42123 0.08733 0.04500
C 	C 	0.62017 0.40753 0.14793 0.00100
C 	C 	0.61367 0.42293 0.02953 -0.01600
O 	O 	0.44603 0.97011 0.42827 -0.40400
O 	O 	0.43324 0.94436 0.52920 -0.40100
C 	C 	0.42194 0.94515 0.47210 0.35300
C 	C 	0.37542 0.91353 0.45391 -0.11200
C 	C 	0.34571 0.88541 0.50016 0.05300
H 	H 	0.35553 0.88567 0.54227 0.03100
C 	C 	0.30255 0.85754 0.48463 -0.12900
H 	H 	0.28263 0.83937 0.51647 0.08900
C 	C 	0.28786 0.85575 0.42281 0.10000
C 	C 	0.31725 0.88342 0.37683 -0.13000
H 	H 	0.30753 0.88257 0.33447 0.07900
C 	C 	0.36103 0.91243 0.39286 0.05300
H 	H 	0.38083 0.93137 0.36147 0.03000
C 	C 	0.24087 0.82820 0.40535 -0.06000
C 	C 	0.22103 0.84637 0.36937 -0.04400
H 	H 	0.23813 0.87597 0.35627 0.04600
C 	C 	0.26603 0.75457 0.42067 0.04500
C 	C 	0.28683 0.74087 0.48127 0.00100
C 	C 	0.28033 0.75627 0.36287 -0.01600
O 	O 	0.80926 0.69656 0.23840 -0.40400
O 	O 	0.82222 0.72231 0.13747 -0.40100
C 	C 	0.81013 0.72152 0.19457 0.35300
C 	C 	0.79523 0.75314 0.21276 -0.11200
C 	C 	0.79364 0.78126 0.16651 0.05300
H 	H 	0.80320 0.78100 0.12440 0.03100
C 	C 	0.77835 0.80913 0.18204 -0.12900
H 	H 	0.77660 0.82730 0.15020 0.08900
C 	C 	0.76545 0.81092 0.24386 0.10000
C 	C 	0.76717 0.78325 0.28984 -0.13000
H 	H 	0.75830 0.78410 0.33220 0.07900
C 	C 	0.78194 0.75424 0.27381 0.05300
H 	H 	0.78280 0.73530 0.30520 0.03000
C 	C 	0.74601 0.83847 0.26132 -0.06000
C 	C 	0.70800 0.82030 0.29730 -0.04400
H 	H 	0.69550 0.79070 0.31040 0.04600
C 	C 	0.84480 0.91210 0.24600 0.04500
C 	C 	0.87930 0.92580 0.18540 0.00100
C 	C 	0.85740 0.91040 0.30380 -0.01600
O 	O 	0.47593 0.02989 0.57173 -0.40400
O 	O 	0.48889 0.05564 0.47080 -0.40100
C 	C 	0.47680 0.05485 0.52790 0.35300
C 	C 	0.46190 0.08647 0.54609 -0.11200
C 	C 	0.46031 0.11459 0.49984 0.05300
H 	H 	0.46987 0.11433 0.45773 0.03100
C 	C 	0.44502 0.14246 0.51537 -0.12900
H 	H 	0.44327 0.16063 0.48353 0.08900
C 	C 	0.43212 0.14425 0.57719 0.10000
C 	C 	0.43384 0.11658 0.62317 -0.13000
H 	H 	0.42497 0.11743 0.66553 0.07900
C 	C 	0.44861 0.08757 0.60714 0.05300
H 	H 	0.44947 0.06863 0.63853 0.03000
C 	C 	0.41268 0.17180 0.59465 -0.06000
C 	C 	0.37467 0.15363 0.63063 -0.04400
H 	H 	0.36217 0.12403 0.64373 0.04600
C 	C 	0.51147 0.24543 0.57933 0.04500
C 	C 	0.54597 0.25913 0.51873 0.00100
C 	C 	0.52407 0.24373 0.63713 -0.01600
O 	O 	0.14259 0.36323 0.90507 -0.40400
O 	O 	0.15555 0.38898 0.80414 -0.40100
C 	C 	0.14346 0.38819 0.86124 0.35300
C 	C 	0.12856 0.41981 0.87943 -0.11200
C 	C 	0.12697 0.44793 0.83318 0.05300
H 	H 	0.13653 0.44767 0.79107 0.03100
C 	C 	0.11168 0.47580 0.84871 -0.12900
H 	H 	0.10993 0.49397 0.81687 0.08900
C 	C 	0.09878 0.47759 0.91053 0.10000
C 	C 	0.10050 0.44992 0.95651 -0.13000
H 	H 	0.09163 0.45077 0.99887 0.07900
C 	C 	0.11527 0.42091 0.94048 0.05300
H 	H 	0.11613 0.40197 0.97187 0.03000
C 	C 	0.07934 0.50514 0.92799 -0.06000
C 	C 	0.04133 0.48697 0.96397 -0.04400
H 	H 	0.02883 0.45737 0.97707 0.04600
C 	C 	0.17813 0.57877 0.91267 0.04500
C 	C 	0.21263 0.59247 0.85207 0.00100
C 	C 	0.19073 0.57707 0.97047 -0.01600
O 	O 	0.88730 0.19074 0.23840 -0.40400
O 	O 	0.90009 0.17778 0.13747 -0.40100
C 	C 	0.91139 0.18987 0.19457 0.35300
C 	C 	0.95791 0.20477 0.21276 -0.11200
C 	C 	0.98762 0.20636 0.16651 0.05300
H 	H 	0.97780 0.19680 0.12440 0.03100
C 	C 	0.03078 0.22165 0.18204 -0.12900
H 	H 	0.05070 0.22340 0.15020 0.08900
C 	C 	0.04547 0.23455 0.24386 0.10000
C 	C 	0.01608 0.23283 0.28984 -0.13000
H 	H 	0.02580 0.24170 0.33220 0.07900
C 	C 	0.97230 0.21806 0.27381 0.05300
H 	H 	0.95250 0.21720 0.30520 0.03000
C 	C 	0.09246 0.25399 0.26132 -0.06000
C 	C 	0.11230 0.29200 0.29730 -0.04400
H 	H 	0.09520 0.30450 0.31040 0.04600
C 	C 	0.06730 0.15520 0.24600 0.04500
C 	C 	0.04650 0.12070 0.18540 0.00100
C 	C 	0.05300 0.14260 0.30380 -0.01600
O 	O 	0.55397 0.52407 0.57173 -0.40400
O 	O 	0.56676 0.51111 0.47080 -0.40100
C 	C 	0.57806 0.52320 0.52790 0.35300
C 	C 	0.62458 0.53810 0.54609 -0.11200
C 	C 	0.65429 0.53969 0.49984 0.05300
H 	H 	0.64447 0.53013 0.45773 0.03100
C 	C 	0.69745 0.55498 0.51537 -0.12900
H 	H 	0.71737 0.55673 0.48353 0.08900
C 	C 	0.71214 0.56788 0.57719 0.10000
C 	C 	0.68275 0.56616 0.62317 -0.13000
H 	H 	0.69247 0.57503 0.66553 0.07900
C 	C 	0.63897 0.55139 0.60714 0.05300
H 	H 	0.61917 0.55053 0.63853 0.03000
C 	C 	0.75913 0.58732 0.59465 -0.06000
C 	C 	0.77897 0.62533 0.63063 -0.04400
H 	H 	0.76187 0.63783 0.64373 0.04600
C 	C 	0.73397 0.48853 0.57933 0.04500
C 	C 	0.71317 0.45403 0.51873 0.00100
C 	C 	0.71967 0.47593 0.63713 -0.01600
O 	O 	0.22063 0.85741 0.90507 -0.40400
O 	O 	0.23342 0.84445 0.80414 -0.40100
C 	C 	0.24472 0.85654 0.86124 0.35300
C 	C 	0.29124 0.87144 0.87943 -0.11200
C 	C 	0.32095 0.87303 0.83318 0.05300
H 	H 	0.31113 0.86347 0.79107 0.03100
C 	C 	0.36411 0.88832 0.84871 -0.12900
H 	H 	0.38403 0.89007 0.81687 0.08900
C 	C 	0.37880 0.90122 0.91053 0.10000
C 	C 	0.34941 0.89950 0.95651 -0.13000
H 	H 	0.35913 0.90837 0.99887 0.07900
C 	C 	0.30563 0.88473 0.94048 0.05300
H 	H 	0.28583 0.88387 0.97187 0.03000
C 	C 	0.42579 0.92066 0.92799 -0.06000
C 	C 	0.44563 0.95867 0.96397 -0.04400
H 	H 	0.42853 0.97117 0.97707 0.04600
C 	C 	0.40063 0.82187 0.91267 0.04500
C 	C 	0.37983 0.78737 0.85207 0.00100
C 	C 	0.38633 0.80927 0.97047 -0.01600
O 	O 	0.30344 0.11270 0.23840 -0.40400
O 	O 	0.27769 0.09991 0.13747 -0.40100
C 	C 	0.27848 0.08861 0.19457 0.35300
C 	C 	0.24686 0.04209 0.21276 -0.11200
C 	C 	0.21874 0.01238 0.16651 0.05300
H 	H 	0.21900 0.02220 0.12440 0.03100
C 	C 	0.19087 0.96922 0.18204 -0.12800
H 	H 	0.17270 0.94930 0.15020 0.08900
C 	C 	0.18908 0.95453 0.24386 0.10000
C 	C 	0.21675 0.98392 0.28984 -0.13000
H 	H 	0.21590 0.97420 0.33220 0.07800
C 	C 	0.24576 0.02770 0.27381 0.05300
H 	H 	0.26470 0.04750 0.30520 0.03000
C 	C 	0.16153 0.90754 0.26132 -0.06000
C 	C 	0.17970 0.88770 0.29730 -0.04400
H 	H 	0.20930 0.90480 0.31040 0.04600
C 	C 	0.08790 0.93270 0.24600 0.04500
C 	C 	0.07420 0.95350 0.18540 0.00100
C 	C 	0.08960 0.94700 0.30380 -0.01600
O 	O 	0.97011 0.44603 0.57173 -0.40400
O 	O 	0.94436 0.43324 0.47080 -0.40100
C 	C 	0.94515 0.42194 0.52790 0.35300
C 	C 	0.91353 0.37542 0.54609 -0.11200
C 	C 	0.88541 0.34571 0.49984 0.05300
H 	H 	0.88567 0.35553 0.45773 0.03100
C 	C 	0.85754 0.30255 0.51537 -0.12900
H 	H 	0.83937 0.28263 0.48353 0.08900
C 	C 	0.85575 0.28786 0.57719 0.10000
C 	C 	0.88342 0.31725 0.62317 -0.13000
H 	H 	0.88257 0.30753 0.66553 0.07900
C 	C 	0.91243 0.36103 0.60714 0.05300
H 	H 	0.93137 0.38083 0.63853 0.03000
C 	C 	0.82820 0.24087 0.59465 -0.06000
C 	C 	0.84637 0.22103 0.63063 -0.04400
H 	H 	0.87597 0.23813 0.64373 0.04600
C 	C 	0.75457 0.26603 0.57933 0.04500
C 	C 	0.74087 0.28683 0.51873 0.00100
C 	C 	0.75627 0.28033 0.63713 -0.01600
O 	O 	0.63677 0.77937 0.90507 -0.40400
O 	O 	0.61102 0.76658 0.80414 -0.40100
C 	C 	0.61181 0.75528 0.86124 0.35300
C 	C 	0.58019 0.70876 0.87943 -0.11200
C 	C 	0.55207 0.67905 0.83318 0.05300
H 	H 	0.55233 0.68887 0.79107 0.03100
C 	C 	0.52420 0.63589 0.84871 -0.12900
H 	H 	0.50603 0.61597 0.81687 0.08900
C 	C 	0.52241 0.62120 0.91053 0.10000
C 	C 	0.55008 0.65059 0.95651 -0.13000
H 	H 	0.54923 0.64087 0.99887 0.07900
C 	C 	0.57909 0.69437 0.94048 0.05300
H 	H 	0.59803 0.71417 0.97187 0.03000
C 	C 	0.49486 0.57421 0.92799 -0.06000
C 	C 	0.51303 0.55437 0.96397 -0.04400
H 	H 	0.54263 0.57147 0.97707 0.04600
C 	C 	0.42123 0.59937 0.91267 0.04500
C 	C 	0.40753 0.62017 0.85207 0.00100
C 	C 	0.42293 0.61367 0.97047 -0.01600
Cu	Cu	0.31841 0.15920 0.10785 0.90300
Cu	Cu	0.98508 0.49254 0.44118 0.90300
Cu	Cu	0.65174 0.82587 0.77452 0.90300
Cu	Cu	0.84080 0.15920 0.10785 0.90300
Cu	Cu	0.50746 0.49254 0.44118 0.90300
Cu	Cu	0.17413 0.82587 0.77452 0.90300
Cu	Cu	0.84080 0.68159 0.10785 0.90300
Cu	Cu	0.50746 0.01492 0.44118 0.90300
Cu	Cu	0.17413 0.34826 0.77452 0.90300
Cu	Cu	0.15920 0.31841 0.89215 0.90300
Cu	Cu	0.82587 0.65174 0.22548 0.90300
Cu	Cu	0.49254 0.98508 0.55882 0.90300
Cu	Cu	0.15920 0.84080 0.89215 0.90300
Cu	Cu	0.82587 0.17413 0.22548 0.90300
Cu	Cu	0.49254 0.50746 0.55882 0.90300
Cu	Cu	0.68159 0.84080 0.89215 0.90300
Cu	Cu	0.34826 0.17413 0.22548 0.90300
Cu	Cu	0.01492 0.50746 0.55882 0.90300
O 	O 	0.09801 0.19603 0.20930 -0.21500
C 	C 	0.15636 0.31272 0.31530 0.00800
C 	C 	0.11710 0.23420 0.24400 0.13500
O 	O 	0.76468 0.52936 0.54263 -0.21500
C 	C 	0.82303 0.64605 0.64863 0.00800
C 	C 	0.78377 0.56753 0.57733 0.13500
O 	O 	0.43135 0.86270 0.87597 -0.21500
C 	C 	0.48969 0.97939 0.98197 0.00800
C 	C 	0.45043 0.90087 0.91067 0.13500
O 	O 	0.80397 0.90199 0.20930 -0.21500
C 	C 	0.68728 0.84364 0.31530 0.00800
C 	C 	0.76580 0.88290 0.24400 0.13500
O 	O 	0.47064 0.23532 0.54263 -0.21500
C 	C 	0.35395 0.17697 0.64863 0.00800
C 	C 	0.43247 0.21623 0.57733 0.13500
O 	O 	0.13730 0.56865 0.87597 -0.21500
C 	C 	0.02061 0.51031 0.98197 0.00800
C 	C 	0.09913 0.54957 0.91067 0.13500
O 	O 	0.09802 0.90199 0.20930 -0.21500
C 	C 	0.15636 0.84364 0.31530 0.00800
C 	C 	0.11710 0.88290 0.24400 0.13500
O 	O 	0.76468 0.23532 0.54263 -0.21500
C 	C 	0.82303 0.17697 0.64863 0.00800
C 	C 	0.78377 0.21623 0.57733 0.13500
O 	O 	0.43135 0.56865 0.87597 -0.21500
C 	C 	0.48969 0.51031 0.98197 0.00800
C 	C 	0.45043 0.54957 0.91067 0.13500
O 	O 	0.19603 0.09801 0.79070 -0.21500
C 	C 	0.31272 0.15636 0.68470 0.00800
C 	C 	0.23420 0.11710 0.75600 0.13500
O 	O 	0.86270 0.43135 0.12403 -0.21500
C 	C 	0.97939 0.48969 0.01803 0.00800
C 	C 	0.90087 0.45043 0.08933 0.13500
O 	O 	0.52936 0.76468 0.45737 -0.21500
C 	C 	0.64605 0.82303 0.35137 0.00800
C 	C 	0.56753 0.78377 0.42267 0.13500
O 	O 	0.90198 0.80397 0.79070 -0.21500
C 	C 	0.84364 0.68728 0.68470 0.00800
C 	C 	0.88290 0.76580 0.75600 0.13500
O 	O 	0.56865 0.13730 0.12403 -0.21500
C 	C 	0.51031 0.02061 0.01803 0.00800
C 	C 	0.54957 0.09913 0.08933 0.13500
O 	O 	0.23532 0.47064 0.45737 -0.21500
C 	C 	0.17697 0.35395 0.35137 0.00800
C 	C 	0.21623 0.43247 0.42267 0.13500
O 	O 	0.90198 0.09802 0.79070 -0.21500
C 	C 	0.84364 0.15636 0.68470 0.00800
C 	C 	0.88290 0.11710 0.75600 0.13500
O 	O 	0.56865 0.43135 0.12403 -0.21500
C 	C 	0.51031 0.48969 0.01803 0.00800
C 	C 	0.54957 0.45043 0.08933 0.13500
O 	O 	0.23532 0.76468 0.45737 -0.21500
C 	C 	0.17697 0.82303 0.35137 0.00800
C 	C 	0.21623 0.78377 0.42267 0.13500
