data_crystal

_cell_length_a 35.70990
_cell_length_b 35.70990
_cell_length_c 16.69000
_cell_angle_alpha 90.00000
_cell_angle_beta  90.00000
_cell_angle_gamma 120.00000

_symmetry_space_group_name_	'P 1'
_symmetry_space_group_name_H-M	'P 1'

loop_
_symmetry_equiv_pos_as_xyz
  x,y,z

loop_
_atom_site_label
_atom_site_type_symbol
_atom_site_fract_x
_atom_site_fract_y
_atom_site_fract_z
_atom_site_charge
O 	O 	0.88858 0.18786 0.25120 -0.40800
O 	O 	0.89834 0.17784 0.12100 -0.40200
C 	C 	0.91097 0.18847 0.19270 0.36300
C 	C 	0.95765 0.20175 0.21080 -0.12700
C 	C 	0.98516 0.20470 0.14930 0.07400
H 	H 	0.97490 0.19770 0.09710 0.02500
C 	C 	0.02872 0.21830 0.16670 -0.15700
H 	H 	0.04700 0.21850 0.12670 0.10200
C 	C 	0.04415 0.23121 0.24310 0.13200
C 	C 	0.01676 0.22920 0.30120 -0.16800
H 	H 	0.02750 0.23820 0.35270 0.09500
C 	C 	0.97325 0.21412 0.28660 0.08200
H 	H 	0.95500 0.21250 0.32790 0.02100
C 	C 	0.09145 0.25050 0.25970 -0.07400
C 	C 	0.11186 0.29070 0.29610 -0.04000
H 	H 	0.09630 0.30470 0.30570 0.04700
C 	C 	0.08650 0.14730 0.34340 -0.01400
C 	C 	0.04060 0.11730 0.20300 -0.00100
O 	O 	0.55525 0.52119 0.58453 -0.40800
O 	O 	0.56501 0.51117 0.45433 -0.40200
C 	C 	0.57764 0.52180 0.52603 0.36300
C 	C 	0.62432 0.53508 0.54413 -0.12700
C 	C 	0.65183 0.53803 0.48263 0.07400
H 	H 	0.64157 0.53103 0.43043 0.02500
C 	C 	0.69539 0.55163 0.50003 -0.15700
H 	H 	0.71367 0.55183 0.46003 0.10200
C 	C 	0.71082 0.56454 0.57643 0.13200
C 	C 	0.68343 0.56253 0.63453 -0.16800
H 	H 	0.69417 0.57153 0.68603 0.09500
C 	C 	0.63992 0.54745 0.61993 0.08200
H 	H 	0.62167 0.54583 0.66123 0.02100
C 	C 	0.75812 0.58383 0.59303 -0.07400
C 	C 	0.77853 0.62403 0.62943 -0.04000
H 	H 	0.76297 0.63803 0.63903 0.04700
C 	C 	0.75317 0.48063 0.67673 -0.01400
C 	C 	0.70727 0.45063 0.53633 -0.00100
O 	O 	0.22191 0.85453 0.91787 -0.40800
O 	O 	0.23167 0.84451 0.78767 -0.40200
C 	C 	0.24430 0.85514 0.85937 0.36300
C 	C 	0.29098 0.86842 0.87747 -0.12700
C 	C 	0.31849 0.87137 0.81597 0.07400
H 	H 	0.30823 0.86437 0.76377 0.02500
C 	C 	0.36205 0.88497 0.83337 -0.15700
H 	H 	0.38033 0.88517 0.79337 0.10200
C 	C 	0.37748 0.89788 0.90977 0.13200
C 	C 	0.35009 0.89587 0.96787 -0.16800
H 	H 	0.36083 0.90487 0.01937 0.09500
C 	C 	0.30658 0.88079 0.95327 0.08200
H 	H 	0.28833 0.87917 0.99457 0.02100
C 	C 	0.42478 0.91717 0.92637 -0.07400
C 	C 	0.44519 0.95737 0.96277 -0.04000
H 	H 	0.42963 0.97137 0.97237 0.04700
C 	C 	0.41983 0.81397 0.01007 -0.01400
C 	C 	0.37393 0.78397 0.86967 -0.00200
O 	O 	0.81214 0.70072 0.25120 -0.40900
O 	O 	0.82216 0.72050 0.12100 -0.40300
C 	C 	0.81153 0.72250 0.19270 0.36200
C 	C 	0.79825 0.75590 0.21080 -0.12800
C 	C 	0.79530 0.78046 0.14930 0.07300
H 	H 	0.80230 0.77720 0.09710 0.02400
C 	C 	0.78170 0.81042 0.16670 -0.15800
H 	H 	0.78150 0.82850 0.12670 0.10100
C 	C 	0.76879 0.81294 0.24310 0.13100
C 	C 	0.77080 0.78756 0.30120 -0.16900
H 	H 	0.76180 0.78930 0.35270 0.09400
C 	C 	0.78588 0.75913 0.28660 0.08100
H 	H 	0.78750 0.74250 0.32790 0.02000
C 	C 	0.74950 0.84095 0.25970 -0.07500
C 	C 	0.70930 0.82116 0.29610 -0.04100
H 	H 	0.69530 0.79160 0.30570 0.04600
C 	C 	0.85270 0.93920 0.34340 -0.01500
C 	C 	0.88270 0.92330 0.20300 -0.00200
O 	O 	0.47881 0.03405 0.58453 -0.40900
O 	O 	0.48883 0.05383 0.45433 -0.40300
C 	C 	0.47820 0.05583 0.52603 0.36200
C 	C 	0.46492 0.08923 0.54413 -0.12800
C 	C 	0.46197 0.11379 0.48263 0.07300
H 	H 	0.46897 0.11053 0.43043 0.02400
C 	C 	0.44837 0.14375 0.50003 -0.15800
H 	H 	0.44817 0.16183 0.46003 0.10100
C 	C 	0.43546 0.14627 0.57643 0.13100
C 	C 	0.43747 0.12089 0.63453 -0.16900
H 	H 	0.42847 0.12263 0.68603 0.09400
C 	C 	0.45255 0.09246 0.61993 0.08100
H 	H 	0.45417 0.07583 0.66123 0.02000
C 	C 	0.41617 0.17428 0.59303 -0.07500
C 	C 	0.37597 0.15449 0.62943 -0.04100
H 	H 	0.36197 0.12493 0.63903 0.04600
C 	C 	0.51937 0.27253 0.67673 -0.01500
C 	C 	0.54937 0.25663 0.53633 -0.00200
O 	O 	0.14547 0.36739 0.91787 -0.40900
O 	O 	0.15549 0.38717 0.78767 -0.40300
C 	C 	0.14486 0.38917 0.85937 0.36200
C 	C 	0.13158 0.42257 0.87747 -0.12800
C 	C 	0.12863 0.44713 0.81597 0.07300
H 	H 	0.13563 0.44387 0.76377 0.02400
C 	C 	0.11503 0.47709 0.83337 -0.15800
H 	H 	0.11483 0.49517 0.79337 0.10100
C 	C 	0.10212 0.47961 0.90977 0.13100
C 	C 	0.10413 0.45423 0.96787 -0.16900
H 	H 	0.09513 0.45597 0.01937 0.09400
C 	C 	0.11921 0.42580 0.95327 0.08100
H 	H 	0.12083 0.40917 0.99457 0.02000
C 	C 	0.08283 0.50762 0.92637 -0.07500
C 	C 	0.04263 0.48783 0.96277 -0.04100
H 	H 	0.02863 0.45827 0.97237 0.04600
C 	C 	0.18603 0.60587 0.01007 -0.01500
C 	C 	0.21603 0.58997 0.86967 -0.00200
O 	O 	0.29928 0.11142 0.25120 -0.40900
O 	O 	0.27950 0.10166 0.12100 -0.40300
C 	C 	0.27750 0.08903 0.19270 0.36200
C 	C 	0.24410 0.04235 0.21080 -0.12800
C 	C 	0.21954 0.01484 0.14930 0.07300
H 	H 	0.22280 0.02510 0.09710 0.02400
C 	C 	0.18958 0.97128 0.16670 -0.15700
H 	H 	0.17150 0.95300 0.12670 0.10100
C 	C 	0.18706 0.95585 0.24310 0.13100
C 	C 	0.21244 0.98324 0.30120 -0.16900
H 	H 	0.21070 0.97250 0.35270 0.09400
C 	C 	0.24087 0.02675 0.28660 0.08100
H 	H 	0.25750 0.04500 0.32790 0.02000
C 	C 	0.15905 0.90855 0.25970 -0.07500
C 	C 	0.17884 0.88814 0.29610 -0.04100
H 	H 	0.20840 0.90370 0.30570 0.04600
C 	C 	0.06080 0.91350 0.34340 -0.01500
C 	C 	0.07670 0.95940 0.20300 -0.00200
O 	O 	0.96595 0.44475 0.58453 -0.40900
O 	O 	0.94617 0.43499 0.45433 -0.40300
C 	C 	0.94417 0.42236 0.52603 0.36200
C 	C 	0.91077 0.37568 0.54413 -0.12800
C 	C 	0.88621 0.34817 0.48263 0.07300
H 	H 	0.88947 0.35843 0.43043 0.02400
C 	C 	0.85625 0.30461 0.50003 -0.15800
H 	H 	0.83817 0.28633 0.46003 0.10100
C 	C 	0.85373 0.28918 0.57643 0.13100
C 	C 	0.87911 0.31657 0.63453 -0.16900
H 	H 	0.87737 0.30583 0.68603 0.09400
C 	C 	0.90754 0.36008 0.61993 0.08100
H 	H 	0.92417 0.37833 0.66123 0.02000
C 	C 	0.82572 0.24188 0.59303 -0.07500
C 	C 	0.84551 0.22147 0.62943 -0.04100
H 	H 	0.87507 0.23703 0.63903 0.04600
C 	C 	0.72747 0.24683 0.67673 -0.01500
C 	C 	0.74337 0.29273 0.53633 -0.00200
O 	O 	0.63261 0.77809 0.91787 -0.40900
O 	O 	0.61283 0.76833 0.78767 -0.40300
C 	C 	0.61083 0.75570 0.85937 0.36200
C 	C 	0.57743 0.70902 0.87747 -0.12800
C 	C 	0.55287 0.68151 0.81597 0.07300
H 	H 	0.55613 0.69177 0.76377 0.02400
C 	C 	0.52291 0.63795 0.83337 -0.15800
H 	H 	0.50483 0.61967 0.79337 0.10100
C 	C 	0.52039 0.62252 0.90977 0.13100
C 	C 	0.54577 0.64991 0.96787 -0.16900
H 	H 	0.54403 0.63917 0.01937 0.09400
C 	C 	0.57420 0.69342 0.95327 0.08100
H 	H 	0.59083 0.71167 0.99457 0.02000
C 	C 	0.49238 0.57522 0.92637 -0.07500
C 	C 	0.51217 0.55481 0.96277 -0.04100
H 	H 	0.54173 0.57037 0.97237 0.04600
C 	C 	0.39413 0.58017 0.01007 -0.01500
C 	C 	0.41003 0.62607 0.86967 -0.00200
O 	O 	0.18786 0.88858 0.74880 -0.40900
O 	O 	0.17784 0.89834 0.87900 -0.40300
C 	C 	0.18847 0.91097 0.80730 0.36200
C 	C 	0.20175 0.95765 0.78920 -0.12800
C 	C 	0.20470 0.98516 0.85070 0.07300
H 	H 	0.19770 0.97490 0.90290 0.02400
C 	C 	0.21830 0.02872 0.83330 -0.15800
H 	H 	0.21850 0.04700 0.87330 0.10100
C 	C 	0.23121 0.04415 0.75690 0.13100
C 	C 	0.22920 0.01676 0.69880 -0.16900
H 	H 	0.23820 0.02750 0.64730 0.09400
C 	C 	0.21412 0.97325 0.71340 0.08100
H 	H 	0.21250 0.95500 0.67210 0.02000
C 	C 	0.25050 0.09145 0.74030 -0.07500
C 	C 	0.29070 0.11186 0.70390 -0.04100
H 	H 	0.30470 0.09630 0.69430 0.04600
C 	C 	0.14730 0.08650 0.65660 -0.01500
C 	C 	0.11730 0.04060 0.79700 -0.00200
O 	O 	0.85453 0.22191 0.08213 -0.40900
O 	O 	0.84451 0.23167 0.21233 -0.40300
C 	C 	0.85514 0.24430 0.14063 0.36200
C 	C 	0.86842 0.29098 0.12253 -0.12800
C 	C 	0.87137 0.31849 0.18403 0.07300
H 	H 	0.86437 0.30823 0.23623 0.02400
C 	C 	0.88497 0.36205 0.16663 -0.15800
H 	H 	0.88517 0.38033 0.20663 0.10100
C 	C 	0.89788 0.37748 0.09023 0.13100
C 	C 	0.89587 0.35009 0.03213 -0.16900
H 	H 	0.90487 0.36083 0.98063 0.09400
C 	C 	0.88079 0.30658 0.04673 0.08100
H 	H 	0.87917 0.28833 0.00543 0.02000
C 	C 	0.91717 0.42478 0.07363 -0.07500
C 	C 	0.95737 0.44519 0.03723 -0.04100
H 	H 	0.97137 0.42963 0.02763 0.04600
C 	C 	0.81397 0.41983 0.98993 -0.01500
C 	C 	0.78397 0.37393 0.13033 -0.00200
O 	O 	0.52119 0.55525 0.41547 -0.40900
O 	O 	0.51117 0.56501 0.54567 -0.40300
C 	C 	0.52180 0.57764 0.47397 0.36200
C 	C 	0.53508 0.62432 0.45587 -0.12800
C 	C 	0.53803 0.65183 0.51737 0.07300
H 	H 	0.53103 0.64157 0.56957 0.02400
C 	C 	0.55163 0.69539 0.49997 -0.15800
H 	H 	0.55183 0.71367 0.53997 0.10100
C 	C 	0.56454 0.71082 0.42357 0.13100
C 	C 	0.56253 0.68343 0.36547 -0.16900
H 	H 	0.57153 0.69417 0.31397 0.09400
C 	C 	0.54745 0.63992 0.38007 0.08100
H 	H 	0.54583 0.62167 0.33877 0.02000
C 	C 	0.58383 0.75812 0.40697 -0.07500
C 	C 	0.62403 0.77853 0.37057 -0.04100
H 	H 	0.63803 0.76297 0.36097 0.04600
C 	C 	0.48063 0.75317 0.32327 -0.01500
C 	C 	0.45063 0.70727 0.46367 -0.00200
O 	O 	0.70072 0.81214 0.74880 -0.40900
O 	O 	0.72050 0.82216 0.87900 -0.40300
C 	C 	0.72250 0.81153 0.80730 0.36200
C 	C 	0.75590 0.79825 0.78920 -0.12800
C 	C 	0.78046 0.79530 0.85070 0.07300
H 	H 	0.77720 0.80230 0.90290 0.02400
C 	C 	0.81042 0.78170 0.83330 -0.15800
H 	H 	0.82850 0.78150 0.87330 0.10100
C 	C 	0.81294 0.76879 0.75690 0.13100
C 	C 	0.78756 0.77080 0.69880 -0.16900
H 	H 	0.78930 0.76180 0.64730 0.09400
C 	C 	0.75913 0.78588 0.71340 0.08100
H 	H 	0.74250 0.78750 0.67210 0.02000
C 	C 	0.84095 0.74950 0.74030 -0.07500
C 	C 	0.82116 0.70930 0.70390 -0.04100
H 	H 	0.79160 0.69530 0.69430 0.04600
C 	C 	0.93920 0.85270 0.65660 -0.01500
C 	C 	0.92330 0.88270 0.79700 -0.00200
O 	O 	0.36739 0.14547 0.08213 -0.40900
O 	O 	0.38717 0.15549 0.21233 -0.40300
C 	C 	0.38917 0.14486 0.14063 0.36200
C 	C 	0.42257 0.13158 0.12253 -0.12800
C 	C 	0.44713 0.12863 0.18403 0.07300
H 	H 	0.44387 0.13563 0.23623 0.02400
C 	C 	0.47709 0.11503 0.16663 -0.15800
H 	H 	0.49517 0.11483 0.20663 0.10100
C 	C 	0.47961 0.10212 0.09023 0.13100
C 	C 	0.45423 0.10413 0.03213 -0.16900
H 	H 	0.45597 0.09513 0.98063 0.09400
C 	C 	0.42580 0.11921 0.04673 0.08100
H 	H 	0.40917 0.12083 0.00543 0.02000
C 	C 	0.50762 0.08283 0.07363 -0.07500
C 	C 	0.48783 0.04263 0.03723 -0.04100
H 	H 	0.45827 0.02863 0.02763 0.04600
C 	C 	0.60587 0.18603 0.98993 -0.01500
C 	C 	0.58997 0.21603 0.13033 -0.00200
O 	O 	0.03405 0.47881 0.41547 -0.40900
O 	O 	0.05383 0.48883 0.54567 -0.40300
C 	C 	0.05583 0.47820 0.47397 0.36200
C 	C 	0.08923 0.46492 0.45587 -0.12800
C 	C 	0.11379 0.46197 0.51737 0.07300
H 	H 	0.11053 0.46897 0.56957 0.02400
C 	C 	0.14375 0.44837 0.49997 -0.15800
H 	H 	0.16183 0.44817 0.53997 0.10100
C 	C 	0.14627 0.43546 0.42357 0.13100
C 	C 	0.12089 0.43747 0.36547 -0.16900
H 	H 	0.12263 0.42847 0.31397 0.09400
C 	C 	0.09246 0.45255 0.38007 0.08100
H 	H 	0.07583 0.45417 0.33877 0.02000
C 	C 	0.17428 0.41617 0.40697 -0.07500
C 	C 	0.15449 0.37597 0.37057 -0.04100
H 	H 	0.12493 0.36197 0.36097 0.04600
C 	C 	0.27253 0.51937 0.32327 -0.01500
C 	C 	0.25663 0.54937 0.46367 -0.00200
O 	O 	0.11142 0.29928 0.74880 -0.40900
O 	O 	0.10166 0.27950 0.87900 -0.40300
C 	C 	0.08903 0.27750 0.80730 0.36200
C 	C 	0.04235 0.24410 0.78920 -0.12800
C 	C 	0.01484 0.21954 0.85070 0.07300
H 	H 	0.02510 0.22280 0.90290 0.02400
C 	C 	0.97128 0.18958 0.83330 -0.15700
H 	H 	0.95300 0.17150 0.87330 0.10100
C 	C 	0.95585 0.18706 0.75690 0.13100
C 	C 	0.98324 0.21244 0.69880 -0.16900
H 	H 	0.97250 0.21070 0.64730 0.09400
C 	C 	0.02675 0.24087 0.71340 0.08100
H 	H 	0.04500 0.25750 0.67210 0.02000
C 	C 	0.90855 0.15905 0.74030 -0.07500
C 	C 	0.88814 0.17884 0.70390 -0.04100
H 	H 	0.90370 0.20840 0.69430 0.04600
C 	C 	0.91350 0.06080 0.65660 -0.01500
C 	C 	0.95940 0.07670 0.79700 -0.00200
O 	O 	0.77809 0.63261 0.08213 -0.40900
O 	O 	0.76833 0.61283 0.21233 -0.40300
C 	C 	0.75570 0.61083 0.14063 0.36200
C 	C 	0.70902 0.57743 0.12253 -0.12800
C 	C 	0.68151 0.55287 0.18403 0.07300
H 	H 	0.69177 0.55613 0.23623 0.02400
C 	C 	0.63795 0.52291 0.16663 -0.15800
H 	H 	0.61967 0.50483 0.20663 0.10100
C 	C 	0.62252 0.52039 0.09023 0.13100
C 	C 	0.64991 0.54577 0.03213 -0.16900
H 	H 	0.63917 0.54403 0.98063 0.09400
C 	C 	0.69342 0.57420 0.04673 0.08100
H 	H 	0.71167 0.59083 0.00543 0.02000
C 	C 	0.57522 0.49238 0.07363 -0.07500
C 	C 	0.55481 0.51217 0.03723 -0.04100
H 	H 	0.57037 0.54173 0.02763 0.04600
C 	C 	0.58017 0.39413 0.98993 -0.01500
C 	C 	0.62607 0.41003 0.13033 -0.00200
O 	O 	0.44475 0.96595 0.41547 -0.40900
O 	O 	0.43499 0.94617 0.54567 -0.40300
C 	C 	0.42236 0.94417 0.47397 0.36200
C 	C 	0.37568 0.91077 0.45587 -0.12800
C 	C 	0.34817 0.88621 0.51737 0.07300
H 	H 	0.35843 0.88947 0.56957 0.02400
C 	C 	0.30461 0.85625 0.49997 -0.15800
H 	H 	0.28633 0.83817 0.53997 0.10100
C 	C 	0.28918 0.85373 0.42357 0.13100
C 	C 	0.31657 0.87911 0.36547 -0.16900
H 	H 	0.30583 0.87737 0.31397 0.09400
C 	C 	0.36008 0.90754 0.38007 0.08100
H 	H 	0.37833 0.92417 0.33877 0.02000
C 	C 	0.24188 0.82572 0.40697 -0.07500
C 	C 	0.22147 0.84551 0.37057 -0.04100
H 	H 	0.23703 0.87507 0.36097 0.04600
C 	C 	0.24683 0.72747 0.32327 -0.01500
C 	C 	0.29273 0.74337 0.46367 -0.00200
O 	O 	0.11142 0.81214 0.74880 -0.40900
O 	O 	0.10166 0.82216 0.87900 -0.40300
C 	C 	0.08903 0.81153 0.80730 0.36200
C 	C 	0.04235 0.79825 0.78920 -0.12800
C 	C 	0.01484 0.79530 0.85070 0.07300
H 	H 	0.02510 0.80230 0.90290 0.02400
C 	C 	0.97128 0.78170 0.83330 -0.15800
H 	H 	0.95300 0.78150 0.87330 0.10100
C 	C 	0.95585 0.76879 0.75690 0.13100
C 	C 	0.98324 0.77080 0.69880 -0.16900
H 	H 	0.97250 0.76180 0.64730 0.09400
C 	C 	0.02675 0.78588 0.71340 0.08100
H 	H 	0.04500 0.78750 0.67210 0.02000
C 	C 	0.90855 0.74950 0.74030 -0.07500
C 	C 	0.88814 0.70930 0.70390 -0.04100
H 	H 	0.90370 0.69530 0.69430 0.04600
C 	C 	0.91350 0.85270 0.65660 -0.01500
C 	C 	0.95940 0.88270 0.79700 -0.00200
O 	O 	0.77809 0.14547 0.08213 -0.40900
O 	O 	0.76833 0.15549 0.21233 -0.40300
C 	C 	0.75570 0.14486 0.14063 0.36200
C 	C 	0.70902 0.13158 0.12253 -0.12800
C 	C 	0.68151 0.12863 0.18403 0.07300
H 	H 	0.69177 0.13563 0.23623 0.02400
C 	C 	0.63795 0.11503 0.16663 -0.15800
H 	H 	0.61967 0.11483 0.20663 0.10100
C 	C 	0.62252 0.10212 0.09023 0.13100
C 	C 	0.64991 0.10413 0.03213 -0.16900
H 	H 	0.63917 0.09513 0.98063 0.09400
C 	C 	0.69342 0.11921 0.04673 0.08100
H 	H 	0.71167 0.12083 0.00543 0.02000
C 	C 	0.57522 0.08283 0.07363 -0.07500
C 	C 	0.55481 0.04263 0.03723 -0.04100
H 	H 	0.57037 0.02863 0.02763 0.04600
C 	C 	0.58017 0.18603 0.98993 -0.01500
C 	C 	0.62607 0.21603 0.13033 -0.00200
O 	O 	0.44475 0.47881 0.41547 -0.40900
O 	O 	0.43499 0.48883 0.54567 -0.40300
C 	C 	0.42236 0.47820 0.47397 0.36200
C 	C 	0.37568 0.46492 0.45587 -0.12800
C 	C 	0.34817 0.46197 0.51737 0.07300
H 	H 	0.35843 0.46897 0.56957 0.02400
C 	C 	0.30461 0.44837 0.49997 -0.15800
H 	H 	0.28633 0.44817 0.53997 0.10100
C 	C 	0.28918 0.43546 0.42357 0.13100
C 	C 	0.31657 0.43747 0.36547 -0.16900
H 	H 	0.30583 0.42847 0.31397 0.09400
C 	C 	0.36008 0.45255 0.38007 0.08100
H 	H 	0.37833 0.45417 0.33877 0.02000
C 	C 	0.24188 0.41617 0.40697 -0.07500
C 	C 	0.22147 0.37597 0.37057 -0.04100
H 	H 	0.23703 0.36197 0.36097 0.04600
C 	C 	0.24683 0.51937 0.32327 -0.01500
C 	C 	0.29273 0.54937 0.46367 -0.00200
O 	O 	0.18786 0.29928 0.74880 -0.40900
O 	O 	0.17784 0.27950 0.87900 -0.40300
C 	C 	0.18847 0.27750 0.80730 0.36200
C 	C 	0.20175 0.24410 0.78920 -0.12800
C 	C 	0.20470 0.21954 0.85070 0.07300
H 	H 	0.19770 0.22280 0.90290 0.02400
C 	C 	0.21830 0.18958 0.83330 -0.15800
H 	H 	0.21850 0.17150 0.87330 0.10100
C 	C 	0.23121 0.18706 0.75690 0.13100
C 	C 	0.22920 0.21244 0.69880 -0.16900
H 	H 	0.23820 0.21070 0.64730 0.09400
C 	C 	0.21412 0.24087 0.71340 0.08100
H 	H 	0.21250 0.25750 0.67210 0.02000
C 	C 	0.25050 0.15905 0.74030 -0.07500
C 	C 	0.29070 0.17884 0.70390 -0.04100
H 	H 	0.30470 0.20840 0.69430 0.04600
C 	C 	0.14730 0.06080 0.65660 -0.01500
C 	C 	0.11730 0.07670 0.79700 -0.00200
O 	O 	0.85453 0.63261 0.08213 -0.40900
O 	O 	0.84451 0.61283 0.21233 -0.40300
C 	C 	0.85514 0.61083 0.14063 0.36200
C 	C 	0.86842 0.57743 0.12253 -0.12800
C 	C 	0.87137 0.55287 0.18403 0.07300
H 	H 	0.86437 0.55613 0.23623 0.02400
C 	C 	0.88497 0.52291 0.16663 -0.15800
H 	H 	0.88517 0.50483 0.20663 0.10100
C 	C 	0.89788 0.52039 0.09023 0.13100
C 	C 	0.89587 0.54577 0.03213 -0.16900
H 	H 	0.90487 0.54403 0.98063 0.09400
C 	C 	0.88079 0.57420 0.04673 0.08100
H 	H 	0.87917 0.59083 0.00543 0.02000
C 	C 	0.91717 0.49238 0.07363 -0.07500
C 	C 	0.95737 0.51217 0.03723 -0.04100
H 	H 	0.97137 0.54173 0.02763 0.04600
C 	C 	0.81397 0.39413 0.98993 -0.01500
C 	C 	0.78397 0.41003 0.13033 -0.00200
O 	O 	0.52119 0.96595 0.41547 -0.40900
O 	O 	0.51117 0.94617 0.54567 -0.40300
C 	C 	0.52180 0.94417 0.47397 0.36200
C 	C 	0.53508 0.91077 0.45587 -0.12800
C 	C 	0.53803 0.88621 0.51737 0.07300
H 	H 	0.53103 0.88947 0.56957 0.02400
C 	C 	0.55163 0.85625 0.49997 -0.15800
H 	H 	0.55183 0.83817 0.53997 0.10100
C 	C 	0.56454 0.85373 0.42357 0.13100
C 	C 	0.56253 0.87911 0.36547 -0.16900
H 	H 	0.57153 0.87737 0.31397 0.09400
C 	C 	0.54745 0.90754 0.38007 0.08100
H 	H 	0.54583 0.92417 0.33877 0.02000
C 	C 	0.58383 0.82572 0.40697 -0.07500
C 	C 	0.62403 0.84551 0.37057 -0.04100
H 	H 	0.63803 0.87507 0.36097 0.04600
C 	C 	0.48063 0.72747 0.32327 -0.01500
C 	C 	0.45063 0.74337 0.46367 -0.00200
O 	O 	0.70072 0.88858 0.74880 -0.40900
O 	O 	0.72050 0.89834 0.87900 -0.40300
C 	C 	0.72250 0.91097 0.80730 0.36200
C 	C 	0.75590 0.95765 0.78920 -0.12800
C 	C 	0.78046 0.98516 0.85070 0.07300
H 	H 	0.77720 0.97490 0.90290 0.02400
C 	C 	0.81042 0.02872 0.83330 -0.15700
H 	H 	0.82850 0.04700 0.87330 0.10100
C 	C 	0.81294 0.04415 0.75690 0.13100
C 	C 	0.78756 0.01676 0.69880 -0.16900
H 	H 	0.78930 0.02750 0.64730 0.09400
C 	C 	0.75913 0.97325 0.71340 0.08100
H 	H 	0.74250 0.95500 0.67210 0.02000
C 	C 	0.84095 0.09145 0.74030 -0.07500
C 	C 	0.82116 0.11186 0.70390 -0.04100
H 	H 	0.79160 0.09630 0.69430 0.04600
C 	C 	0.93920 0.08650 0.65660 -0.01500
C 	C 	0.92330 0.04060 0.79700 -0.00200
O 	O 	0.36739 0.22191 0.08213 -0.40900
O 	O 	0.38717 0.23167 0.21233 -0.40300
C 	C 	0.38917 0.24430 0.14063 0.36200
C 	C 	0.42257 0.29098 0.12253 -0.12800
C 	C 	0.44713 0.31849 0.18403 0.07300
H 	H 	0.44387 0.30823 0.23623 0.02400
C 	C 	0.47709 0.36205 0.16663 -0.15800
H 	H 	0.49517 0.38033 0.20663 0.10100
C 	C 	0.47961 0.37748 0.09023 0.13100
C 	C 	0.45423 0.35009 0.03213 -0.16900
H 	H 	0.45597 0.36083 0.98063 0.09400
C 	C 	0.42580 0.30658 0.04673 0.08100
H 	H 	0.40917 0.28833 0.00543 0.02000
C 	C 	0.50762 0.42478 0.07363 -0.07500
C 	C 	0.48783 0.44519 0.03723 -0.04100
H 	H 	0.45827 0.42963 0.02763 0.04600
C 	C 	0.60587 0.41983 0.98993 -0.01500
C 	C 	0.58997 0.37393 0.13033 -0.00200
O 	O 	0.03405 0.55525 0.41547 -0.40900
O 	O 	0.05383 0.56501 0.54567 -0.40300
C 	C 	0.05583 0.57764 0.47397 0.36200
C 	C 	0.08923 0.62432 0.45587 -0.12800
C 	C 	0.11379 0.65183 0.51737 0.07300
H 	H 	0.11053 0.64157 0.56957 0.02400
C 	C 	0.14375 0.69539 0.49997 -0.15800
H 	H 	0.16183 0.71367 0.53997 0.10100
C 	C 	0.14627 0.71082 0.42357 0.13100
C 	C 	0.12089 0.68343 0.36547 -0.16900
H 	H 	0.12263 0.69417 0.31397 0.09400
C 	C 	0.09246 0.63992 0.38007 0.08100
H 	H 	0.07583 0.62167 0.33877 0.02000
C 	C 	0.17428 0.75812 0.40697 -0.07500
C 	C 	0.15449 0.77853 0.37057 -0.04100
H 	H 	0.12493 0.76297 0.36097 0.04600
C 	C 	0.27253 0.75317 0.32327 -0.01500
C 	C 	0.25663 0.70727 0.46367 -0.00200
O 	O 	0.81214 0.11142 0.25120 -0.40900
O 	O 	0.82216 0.10166 0.12100 -0.40300
C 	C 	0.81153 0.08903 0.19270 0.36200
C 	C 	0.79825 0.04235 0.21080 -0.12800
C 	C 	0.79530 0.01484 0.14930 0.07300
H 	H 	0.80230 0.02510 0.09710 0.02400
C 	C 	0.78170 0.97128 0.16670 -0.15800
H 	H 	0.78150 0.95300 0.12670 0.10100
C 	C 	0.76879 0.95585 0.24310 0.13100
C 	C 	0.77080 0.98324 0.30120 -0.16900
H 	H 	0.76180 0.97250 0.35270 0.09400
C 	C 	0.78588 0.02675 0.28660 0.08100
H 	H 	0.78750 0.04500 0.32790 0.02000
C 	C 	0.74950 0.90855 0.25970 -0.07500
C 	C 	0.70930 0.88814 0.29610 -0.04100
H 	H 	0.69530 0.90370 0.30570 0.04600
C 	C 	0.85270 0.91350 0.34340 -0.01500
C 	C 	0.88270 0.95940 0.20300 -0.00200
O 	O 	0.47881 0.44475 0.58453 -0.40900
O 	O 	0.48883 0.43499 0.45433 -0.40300
C 	C 	0.47820 0.42236 0.52603 0.36200
C 	C 	0.46492 0.37568 0.54413 -0.12800
C 	C 	0.46197 0.34817 0.48263 0.07300
H 	H 	0.46897 0.35843 0.43043 0.02400
C 	C 	0.44837 0.30461 0.50003 -0.15800
H 	H 	0.44817 0.28633 0.46003 0.10100
C 	C 	0.43546 0.28918 0.57643 0.13100
C 	C 	0.43747 0.31657 0.63453 -0.16900
H 	H 	0.42847 0.30583 0.68603 0.09400
C 	C 	0.45255 0.36008 0.61993 0.08100
H 	H 	0.45417 0.37833 0.66123 0.02000
C 	C 	0.41617 0.24188 0.59303 -0.07500
C 	C 	0.37597 0.22147 0.62943 -0.04100
H 	H 	0.36197 0.23703 0.63903 0.04600
C 	C 	0.51937 0.24683 0.67673 -0.01500
C 	C 	0.54937 0.29273 0.53633 -0.00200
O 	O 	0.14547 0.77809 0.91787 -0.40900
O 	O 	0.15549 0.76833 0.78767 -0.40300
C 	C 	0.14486 0.75570 0.85937 0.36200
C 	C 	0.13158 0.70902 0.87747 -0.12800
C 	C 	0.12863 0.68151 0.81597 0.07300
H 	H 	0.13563 0.69177 0.76377 0.02400
C 	C 	0.11503 0.63795 0.83337 -0.15800
H 	H 	0.11483 0.61967 0.79337 0.10100
C 	C 	0.10212 0.62252 0.90977 0.13100
C 	C 	0.10413 0.64991 0.96787 -0.16900
H 	H 	0.09513 0.63917 0.01937 0.09400
C 	C 	0.11921 0.69342 0.95327 0.08100
H 	H 	0.12083 0.71167 0.99457 0.02000
C 	C 	0.08283 0.57522 0.92637 -0.07500
C 	C 	0.04263 0.55481 0.96277 -0.04100
H 	H 	0.02863 0.57037 0.97237 0.04600
C 	C 	0.18603 0.58017 0.01007 -0.01500
C 	C 	0.21603 0.62607 0.86967 -0.00200
O 	O 	0.29928 0.18786 0.25120 -0.40900
O 	O 	0.27950 0.17784 0.12100 -0.40300
C 	C 	0.27750 0.18847 0.19270 0.36200
C 	C 	0.24410 0.20175 0.21080 -0.12800
C 	C 	0.21954 0.20470 0.14930 0.07300
H 	H 	0.22280 0.19770 0.09710 0.02400
C 	C 	0.18958 0.21830 0.16670 -0.15800
H 	H 	0.17150 0.21850 0.12670 0.10100
C 	C 	0.18706 0.23121 0.24310 0.13100
C 	C 	0.21244 0.22920 0.30120 -0.16900
H 	H 	0.21070 0.23820 0.35270 0.09400
C 	C 	0.24087 0.21412 0.28660 0.08100
H 	H 	0.25750 0.21250 0.32790 0.02000
C 	C 	0.15905 0.25050 0.25970 -0.07500
C 	C 	0.17884 0.29070 0.29610 -0.04100
H 	H 	0.20840 0.30470 0.30570 0.04600
C 	C 	0.06080 0.14730 0.34340 -0.01500
C 	C 	0.07670 0.11730 0.20300 -0.00200
O 	O 	0.96595 0.52119 0.58453 -0.40900
O 	O 	0.94617 0.51117 0.45433 -0.40300
C 	C 	0.94417 0.52180 0.52603 0.36200
C 	C 	0.91077 0.53508 0.54413 -0.12800
C 	C 	0.88621 0.53803 0.48263 0.07300
H 	H 	0.88947 0.53103 0.43043 0.02400
C 	C 	0.85625 0.55163 0.50003 -0.15800
H 	H 	0.83817 0.55183 0.46003 0.10100
C 	C 	0.85373 0.56454 0.57643 0.13100
C 	C 	0.87911 0.56253 0.63453 -0.16900
H 	H 	0.87737 0.57153 0.68603 0.09400
C 	C 	0.90754 0.54745 0.61993 0.08100
H 	H 	0.92417 0.54583 0.66123 0.02000
C 	C 	0.82572 0.58383 0.59303 -0.07500
C 	C 	0.84551 0.62403 0.62943 -0.04100
H 	H 	0.87507 0.63803 0.63903 0.04600
C 	C 	0.72747 0.48063 0.67673 -0.01500
C 	C 	0.74337 0.45063 0.53633 -0.00200
O 	O 	0.63261 0.85453 0.91787 -0.40900
O 	O 	0.61283 0.84451 0.78767 -0.40300
C 	C 	0.61083 0.85514 0.85937 0.36200
C 	C 	0.57743 0.86842 0.87747 -0.12800
C 	C 	0.55287 0.87137 0.81597 0.07300
H 	H 	0.55613 0.86437 0.76377 0.02400
C 	C 	0.52291 0.88497 0.83337 -0.15800
H 	H 	0.50483 0.88517 0.79337 0.10100
C 	C 	0.52039 0.89788 0.90977 0.13100
C 	C 	0.54577 0.89587 0.96787 -0.16900
H 	H 	0.54403 0.90487 0.01937 0.09400
C 	C 	0.57420 0.88079 0.95327 0.08100
H 	H 	0.59083 0.87917 0.99457 0.02000
C 	C 	0.49238 0.91717 0.92637 -0.07500
C 	C 	0.51217 0.95737 0.96277 -0.04100
H 	H 	0.54173 0.97137 0.97237 0.04600
C 	C 	0.39413 0.81397 0.01007 -0.01500
C 	C 	0.41003 0.78397 0.86967 -0.00200
O 	O 	0.88858 0.70072 0.25120 -0.40900
O 	O 	0.89834 0.72050 0.12100 -0.40300
C 	C 	0.91097 0.72250 0.19270 0.36200
C 	C 	0.95765 0.75590 0.21080 -0.12800
C 	C 	0.98516 0.78046 0.14930 0.07300
H 	H 	0.97490 0.77720 0.09710 0.02400
C 	C 	0.02872 0.81042 0.16670 -0.15700
H 	H 	0.04700 0.82850 0.12670 0.10100
C 	C 	0.04415 0.81294 0.24310 0.13100
C 	C 	0.01676 0.78756 0.30120 -0.16900
H 	H 	0.02750 0.78930 0.35270 0.09400
C 	C 	0.97325 0.75913 0.28660 0.08100
H 	H 	0.95500 0.74250 0.32790 0.02000
C 	C 	0.09145 0.84095 0.25970 -0.07500
C 	C 	0.11186 0.82116 0.29610 -0.04100
H 	H 	0.09630 0.79160 0.30570 0.04600
C 	C 	0.08650 0.93920 0.34340 -0.01500
C 	C 	0.04060 0.92330 0.20300 -0.00200
O 	O 	0.55525 0.03405 0.58453 -0.40900
O 	O 	0.56501 0.05383 0.45433 -0.40300
C 	C 	0.57764 0.05583 0.52603 0.36200
C 	C 	0.62432 0.08923 0.54413 -0.12800
C 	C 	0.65183 0.11379 0.48263 0.07300
H 	H 	0.64157 0.11053 0.43043 0.02400
C 	C 	0.69539 0.14375 0.50003 -0.15800
H 	H 	0.71367 0.16183 0.46003 0.10100
C 	C 	0.71082 0.14627 0.57643 0.13100
C 	C 	0.68343 0.12089 0.63453 -0.16900
H 	H 	0.69417 0.12263 0.68603 0.09400
C 	C 	0.63992 0.09246 0.61993 0.08100
H 	H 	0.62167 0.07583 0.66123 0.02000
C 	C 	0.75812 0.17428 0.59303 -0.07500
C 	C 	0.77853 0.15449 0.62943 -0.04100
H 	H 	0.76297 0.12493 0.63903 0.04600
C 	C 	0.75317 0.27253 0.67673 -0.01500
C 	C 	0.70727 0.25663 0.53633 -0.00200
O 	O 	0.22191 0.36739 0.91787 -0.40900
O 	O 	0.23167 0.38717 0.78767 -0.40300
C 	C 	0.24430 0.38917 0.85937 0.36200
C 	C 	0.29098 0.42257 0.87747 -0.12800
C 	C 	0.31849 0.44713 0.81597 0.07300
H 	H 	0.30823 0.44387 0.76377 0.02400
C 	C 	0.36205 0.47709 0.83337 -0.15800
H 	H 	0.38033 0.49517 0.79337 0.10100
C 	C 	0.37748 0.47961 0.90977 0.13100
C 	C 	0.35009 0.45423 0.96787 -0.16900
H 	H 	0.36083 0.45597 0.01937 0.09400
C 	C 	0.30658 0.42580 0.95327 0.08100
H 	H 	0.28833 0.40917 0.99457 0.02000
C 	C 	0.42478 0.50762 0.92637 -0.07500
C 	C 	0.44519 0.48783 0.96277 -0.04100
H 	H 	0.42963 0.45827 0.97237 0.04600
C 	C 	0.41983 0.60587 0.01007 -0.01500
C 	C 	0.37393 0.58997 0.86967 -0.00200
Cu	Cu	0.83905 0.16095 0.09155 0.90200
Cu	Cu	0.50572 0.49428 0.42488 0.90200
Cu	Cu	0.17238 0.82762 0.75822 0.90200
Cu	Cu	0.83905 0.67810 0.09155 0.90200
Cu	Cu	0.50572 0.01143 0.42488 0.90200
Cu	Cu	0.17238 0.34477 0.75822 0.90200
Cu	Cu	0.32190 0.16095 0.09155 0.90200
Cu	Cu	0.98857 0.49428 0.42488 0.90200
Cu	Cu	0.65523 0.82762 0.75822 0.90200
Cu	Cu	0.16095 0.83905 0.90845 0.90200
Cu	Cu	0.82762 0.17238 0.24178 0.90200
Cu	Cu	0.49428 0.50572 0.57512 0.90200
Cu	Cu	0.67810 0.83905 0.90845 0.90200
Cu	Cu	0.34477 0.17238 0.24178 0.90200
Cu	Cu	0.01143 0.50572 0.57512 0.90200
Cu	Cu	0.16095 0.32190 0.90845 0.90200
Cu	Cu	0.82762 0.65523 0.24178 0.90200
Cu	Cu	0.49428 0.98857 0.57512 0.90200
O 	O 	0.09477 0.18955 0.20670 -0.22300
C 	C 	0.15545 0.31090 0.31900 0.00600
C 	C 	0.11470 0.22940 0.24300 0.14700
C 	C 	0.07630 0.15260 0.25820 0.10100
O 	O 	0.76144 0.52288 0.54003 -0.22300
C 	C 	0.82212 0.64423 0.65233 0.00600
C 	C 	0.78137 0.56273 0.57633 0.14700
C 	C 	0.74297 0.48593 0.59153 0.10100
O 	O 	0.42811 0.85622 0.87337 -0.22300
C 	C 	0.48878 0.97757 0.98567 0.00600
C 	C 	0.44803 0.89607 0.90967 0.14700
C 	C 	0.40963 0.81927 0.92487 0.10100
O 	O 	0.81045 0.90523 0.20670 -0.22300
C 	C 	0.68910 0.84455 0.31900 0.00600
C 	C 	0.77060 0.88530 0.24300 0.14700
C 	C 	0.84740 0.92370 0.25820 0.10100
O 	O 	0.47712 0.23856 0.54003 -0.22300
C 	C 	0.35577 0.17788 0.65233 0.00600
C 	C 	0.43727 0.21863 0.57633 0.14700
C 	C 	0.51407 0.25703 0.59153 0.10100
O 	O 	0.14378 0.57189 0.87337 -0.22300
C 	C 	0.02243 0.51122 0.98567 0.00600
C 	C 	0.10393 0.55197 0.90967 0.14700
C 	C 	0.18073 0.59037 0.92487 0.10100
O 	O 	0.09477 0.90523 0.20670 -0.22300
C 	C 	0.15545 0.84455 0.31900 0.00600
C 	C 	0.11470 0.88530 0.24300 0.14600
C 	C 	0.07630 0.92370 0.25820 0.10100
O 	O 	0.76144 0.23856 0.54003 -0.22300
C 	C 	0.82212 0.17788 0.65233 0.00600
C 	C 	0.78137 0.21863 0.57633 0.14600
C 	C 	0.74297 0.25703 0.59153 0.10100
O 	O 	0.42811 0.57189 0.87337 -0.22300
C 	C 	0.48878 0.51122 0.98567 0.00600
C 	C 	0.44803 0.55197 0.90967 0.14700
C 	C 	0.40963 0.59037 0.92487 0.10100
O 	O 	0.18955 0.09477 0.79330 -0.22300
C 	C 	0.31090 0.15545 0.68100 0.00600
C 	C 	0.22940 0.11470 0.75700 0.14700
C 	C 	0.15260 0.07630 0.74180 0.10100
O 	O 	0.85622 0.42811 0.12663 -0.22300
C 	C 	0.97757 0.48878 0.01433 0.00600
C 	C 	0.89607 0.44803 0.09033 0.14700
C 	C 	0.81927 0.40963 0.07513 0.10100
O 	O 	0.52288 0.76144 0.45997 -0.22300
C 	C 	0.64423 0.82212 0.34767 0.00600
C 	C 	0.56273 0.78137 0.42367 0.14700
C 	C 	0.48593 0.74297 0.40847 0.10100
O 	O 	0.90522 0.81045 0.79330 -0.22300
C 	C 	0.84455 0.68910 0.68100 0.00600
C 	C 	0.88530 0.77060 0.75700 0.14700
C 	C 	0.92370 0.84740 0.74180 0.10100
O 	O 	0.57189 0.14378 0.12663 -0.22300
C 	C 	0.51122 0.02243 0.01433 0.00600
C 	C 	0.55197 0.10393 0.09033 0.14700
C 	C 	0.59037 0.18073 0.07513 0.10100
O 	O 	0.23856 0.47712 0.45997 -0.22300
C 	C 	0.17788 0.35577 0.34767 0.00600
C 	C 	0.21863 0.43727 0.42367 0.14700
C 	C 	0.25703 0.51407 0.40847 0.10100
O 	O 	0.90522 0.09477 0.79330 -0.22300
C 	C 	0.84455 0.15545 0.68100 0.00600
C 	C 	0.88530 0.11470 0.75700 0.14700
C 	C 	0.92370 0.07630 0.74180 0.10100
O 	O 	0.57189 0.42811 0.12663 -0.22300
C 	C 	0.51122 0.48878 0.01433 0.00600
C 	C 	0.55197 0.44803 0.09033 0.14700
C 	C 	0.59037 0.40963 0.07513 0.10100
O 	O 	0.23856 0.76144 0.45997 -0.22300
C 	C 	0.17788 0.82212 0.34767 0.00600
C 	C 	0.21863 0.78137 0.42367 0.14600
C 	C 	0.25703 0.74297 0.40847 0.10100
