data_crystal

_cell_length_a 35.12300
_cell_length_b 35.12300
_cell_length_c 22.39160
_cell_angle_alpha 90.00000
_cell_angle_beta  90.00000
_cell_angle_gamma 120.00000

_symmetry_space_group_name_	'P 1'
_symmetry_space_group_name_H-M	'P 1'

loop_
_symmetry_equiv_pos_as_xyz
  x,y,z

loop_
_atom_site_label
_atom_site_type_symbol
_atom_site_fract_x
_atom_site_fract_y
_atom_site_fract_z
_atom_site_charge
O 	O 	0.55355 0.02863 0.56838 -0.41300
O 	O 	0.56737 0.05594 0.47484 -0.41700
C 	C 	0.57817 0.05427 0.52754 0.37000
C 	C 	0.62516 0.08565 0.54513 -0.14700
C 	C 	0.65557 0.11373 0.50301 0.08300
H 	H 	0.64690 0.11350 0.46370 0.00900
C 	C 	0.69845 0.14178 0.51977 -0.18300
H 	H 	0.71830 0.16060 0.49140 0.10300
C 	C 	0.71270 0.14276 0.57723 0.13400
C 	C 	0.68259 0.11475 0.61991 -0.18000
H 	H 	0.69140 0.11500 0.65920 0.08500
C 	C 	0.63915 0.08639 0.60256 0.08000
H 	H 	0.61920 0.06750 0.63070 0.01300
C 	C 	0.75957 0.17099 0.59572 -0.11800
C 	C 	0.77952 0.15311 0.62968 -0.02400
H 	H 	0.76300 0.12370 0.64080 0.03700
H 	H 	0.70730 0.24800 0.63550 0.45400
H 	H 	0.74080 0.30380 0.53100 0.38400
O 	O 	0.22022 0.36196 0.90171 -0.41300
O 	O 	0.23404 0.38927 0.80817 -0.41700
C 	C 	0.24484 0.38760 0.86087 0.36900
C 	C 	0.29183 0.41898 0.87846 -0.14800
C 	C 	0.32224 0.44706 0.83634 0.08200
H 	H 	0.31357 0.44683 0.79703 0.00800
C 	C 	0.36512 0.47511 0.85310 -0.18400
H 	H 	0.38497 0.49393 0.82473 0.10200
C 	C 	0.37937 0.47609 0.91056 0.13300
C 	C 	0.34926 0.44808 0.95324 -0.18100
H 	H 	0.35807 0.44833 0.99253 0.08400
C 	C 	0.30582 0.41972 0.93589 0.07900
H 	H 	0.28587 0.40083 0.96403 0.01200
C 	C 	0.42624 0.50432 0.92905 -0.11900
C 	C 	0.44619 0.48644 0.96301 -0.02500
H 	H 	0.42967 0.45703 0.97413 0.03600
H 	H 	0.37397 0.58133 0.96883 0.45300
H 	H 	0.40747 0.63713 0.86433 0.38300
O 	O 	0.88688 0.69530 0.23505 -0.41400
O 	O 	0.90070 0.72261 0.14151 -0.41800
C 	C 	0.91150 0.72094 0.19421 0.36900
C 	C 	0.95849 0.75232 0.21180 -0.14800
C 	C 	0.98890 0.78040 0.16968 0.08100
H 	H 	0.98023 0.78017 0.13037 0.00800
C 	C 	0.03178 0.80845 0.18644 -0.18300
H 	H 	0.05163 0.82727 0.15807 0.10200
C 	C 	0.04603 0.80943 0.24390 0.13200
C 	C 	0.01592 0.78142 0.28658 -0.18000
H 	H 	0.02473 0.78167 0.32587 0.08400
C 	C 	0.97248 0.75306 0.26923 0.07900
H 	H 	0.95253 0.73417 0.29737 0.01200
C 	C 	0.09290 0.83766 0.26239 -0.11900
C 	C 	0.11285 0.81978 0.29635 -0.02500
H 	H 	0.09633 0.79037 0.30747 0.03600
H 	H 	0.04063 0.91467 0.30217 0.45300
H 	H 	0.07413 0.97047 0.19767 0.38300
O 	O 	0.97137 0.52492 0.56838 -0.41400
O 	O 	0.94406 0.51143 0.47484 -0.41800
C 	C 	0.94573 0.52390 0.52754 0.36900
C 	C 	0.91435 0.53951 0.54513 -0.14800
C 	C 	0.88627 0.54184 0.50301 0.08200
H 	H 	0.88650 0.53340 0.46370 0.00800
C 	C 	0.85822 0.55667 0.51977 -0.18400
H 	H 	0.83940 0.55770 0.49140 0.10200
C 	C 	0.85724 0.56994 0.57723 0.13300
C 	C 	0.88525 0.56784 0.61991 -0.18100
H 	H 	0.88500 0.57640 0.65920 0.08400
C 	C 	0.91361 0.55276 0.60256 0.07900
H 	H 	0.93250 0.55170 0.63070 0.01200
C 	C 	0.82901 0.58858 0.59572 -0.11900
C 	C 	0.84689 0.62641 0.62968 -0.02500
H 	H 	0.87630 0.63930 0.64080 0.03600
H 	H 	0.75200 0.45930 0.63550 0.45300
H 	H 	0.69620 0.43700 0.53100 0.38300
O 	O 	0.63804 0.85825 0.90171 -0.41400
O 	O 	0.61073 0.84476 0.80817 -0.41800
C 	C 	0.61240 0.85723 0.86087 0.36900
C 	C 	0.58102 0.87284 0.87846 -0.14800
C 	C 	0.55294 0.87517 0.83634 0.08200
H 	H 	0.55317 0.86673 0.79703 0.00800
C 	C 	0.52489 0.89000 0.85310 -0.18400
H 	H 	0.50607 0.89103 0.82473 0.10200
C 	C 	0.52391 0.90327 0.91056 0.13300
C 	C 	0.55192 0.90117 0.95324 -0.18100
H 	H 	0.55167 0.90973 0.99253 0.08400
C 	C 	0.58028 0.88609 0.93589 0.07900
H 	H 	0.59917 0.88503 0.96403 0.01200
C 	C 	0.49568 0.92191 0.92905 -0.11900
C 	C 	0.51356 0.95974 0.96301 -0.02500
H 	H 	0.54297 0.97263 0.97413 0.03600
H 	H 	0.41867 0.79263 0.96883 0.45300
H 	H 	0.36287 0.77033 0.86433 0.38300
O 	O 	0.30470 0.19159 0.23505 -0.41400
O 	O 	0.27739 0.17810 0.14151 -0.41800
C 	C 	0.27906 0.19057 0.19421 0.36900
C 	C 	0.24768 0.20618 0.21180 -0.14800
C 	C 	0.21960 0.20851 0.16968 0.08200
H 	H 	0.21983 0.20007 0.13037 0.00800
C 	C 	0.19155 0.22334 0.18644 -0.18400
H 	H 	0.17273 0.22437 0.15807 0.10200
C 	C 	0.19057 0.23661 0.24390 0.13300
C 	C 	0.21858 0.23451 0.28658 -0.18100
H 	H 	0.21833 0.24307 0.32587 0.08400
C 	C 	0.24694 0.21943 0.26923 0.07900
H 	H 	0.26583 0.21837 0.29737 0.01200
C 	C 	0.16234 0.25525 0.26239 -0.11900
C 	C 	0.18022 0.29308 0.29635 -0.02500
H 	H 	0.20963 0.30597 0.30747 0.03600
H 	H 	0.08533 0.12597 0.30217 0.45300
H 	H 	0.02953 0.10367 0.19767 0.38300
O 	O 	0.47508 0.44645 0.56838 -0.41400
O 	O 	0.48857 0.43263 0.47484 -0.41800
C 	C 	0.47610 0.42183 0.52754 0.36900
C 	C 	0.46049 0.37484 0.54513 -0.14800
C 	C 	0.45816 0.34443 0.50301 0.08200
H 	H 	0.46660 0.35310 0.46370 0.00800
C 	C 	0.44333 0.30155 0.51977 -0.18400
H 	H 	0.44230 0.28170 0.49140 0.10200
C 	C 	0.43006 0.28730 0.57723 0.13300
C 	C 	0.43216 0.31741 0.61991 -0.18100
H 	H 	0.42360 0.30860 0.65920 0.08400
C 	C 	0.44724 0.36085 0.60256 0.07900
H 	H 	0.44830 0.38080 0.63070 0.01200
C 	C 	0.41142 0.24043 0.59572 -0.11900
C 	C 	0.37359 0.22048 0.62968 -0.02500
H 	H 	0.36070 0.23700 0.64080 0.03600
H 	H 	0.54070 0.29270 0.63550 0.45300
H 	H 	0.56300 0.25920 0.53100 0.38300
O 	O 	0.14175 0.77978 0.90171 -0.41400
O 	O 	0.15524 0.76596 0.80817 -0.41800
C 	C 	0.14277 0.75516 0.86087 0.36900
C 	C 	0.12716 0.70817 0.87846 -0.14800
C 	C 	0.12483 0.67776 0.83634 0.08200
H 	H 	0.13327 0.68643 0.79703 0.00800
C 	C 	0.11000 0.63488 0.85310 -0.18400
H 	H 	0.10897 0.61503 0.82473 0.10200
C 	C 	0.09673 0.62063 0.91056 0.13300
C 	C 	0.09883 0.65074 0.95324 -0.18100
H 	H 	0.09027 0.64193 0.99253 0.08400
C 	C 	0.11391 0.69418 0.93589 0.07900
H 	H 	0.11497 0.71413 0.96403 0.01200
C 	C 	0.07809 0.57376 0.92905 -0.11900
C 	C 	0.04026 0.55381 0.96301 -0.02500
H 	H 	0.02737 0.57033 0.97413 0.03600
H 	H 	0.20737 0.62603 0.96883 0.45300
H 	H 	0.22967 0.59253 0.86433 0.38300
O 	O 	0.80841 0.11312 0.23505 -0.41400
O 	O 	0.82190 0.09930 0.14151 -0.41800
C 	C 	0.80943 0.08850 0.19421 0.36900
C 	C 	0.79382 0.04151 0.21180 -0.14800
C 	C 	0.79149 0.01110 0.16968 0.08200
H 	H 	0.79993 0.01977 0.13037 0.00800
C 	C 	0.77666 0.96822 0.18644 -0.18400
H 	H 	0.77563 0.94837 0.15807 0.10200
C 	C 	0.76339 0.95397 0.24390 0.13300
C 	C 	0.76549 0.98408 0.28658 -0.18000
H 	H 	0.75693 0.97527 0.32587 0.08400
C 	C 	0.78057 0.02752 0.26923 0.07900
H 	H 	0.78163 0.04747 0.29737 0.01200
C 	C 	0.74475 0.90710 0.26239 -0.11900
C 	C 	0.70692 0.88715 0.29635 -0.02500
H 	H 	0.69403 0.90367 0.30747 0.03600
H 	H 	0.87403 0.95937 0.30217 0.45300
H 	H 	0.89633 0.92587 0.19767 0.38300
O 	O 	0.02863 0.55355 0.43162 -0.41400
O 	O 	0.05594 0.56737 0.52516 -0.41800
C 	C 	0.05427 0.57817 0.47246 0.36900
C 	C 	0.08565 0.62516 0.45487 -0.14800
C 	C 	0.11373 0.65557 0.49699 0.08200
H 	H 	0.11350 0.64690 0.53630 0.00800
C 	C 	0.14178 0.69845 0.48023 -0.18400
H 	H 	0.16060 0.71830 0.50860 0.10200
C 	C 	0.14276 0.71270 0.42277 0.13300
C 	C 	0.11475 0.68259 0.38009 -0.18100
H 	H 	0.11500 0.69140 0.34080 0.08400
C 	C 	0.08639 0.63915 0.39744 0.07900
H 	H 	0.06750 0.61920 0.36930 0.01200
C 	C 	0.17099 0.75957 0.40428 -0.11900
C 	C 	0.15311 0.77952 0.37032 -0.02500
H 	H 	0.12370 0.76300 0.35920 0.03600
H 	H 	0.24800 0.70730 0.36450 0.45300
H 	H 	0.30380 0.74080 0.46900 0.38300
O 	O 	0.69530 0.88688 0.76495 -0.41400
O 	O 	0.72261 0.90070 0.85849 -0.41800
C 	C 	0.72094 0.91150 0.80579 0.36900
C 	C 	0.75232 0.95849 0.78820 -0.14800
C 	C 	0.78040 0.98890 0.83032 0.08100
H 	H 	0.78017 0.98023 0.86963 0.00800
C 	C 	0.80845 0.03178 0.81356 -0.18300
H 	H 	0.82727 0.05163 0.84193 0.10200
C 	C 	0.80943 0.04603 0.75610 0.13200
C 	C 	0.78142 0.01592 0.71342 -0.18000
H 	H 	0.78167 0.02473 0.67413 0.08400
C 	C 	0.75306 0.97248 0.73077 0.07900
H 	H 	0.73417 0.95253 0.70263 0.01200
C 	C 	0.83766 0.09290 0.73761 -0.11900
C 	C 	0.81978 0.11285 0.70365 -0.02500
H 	H 	0.79037 0.09633 0.69253 0.03600
H 	H 	0.91467 0.04063 0.69783 0.45300
H 	H 	0.97047 0.07413 0.80233 0.38300
O 	O 	0.36196 0.22022 0.09829 -0.41400
O 	O 	0.38927 0.23404 0.19183 -0.41800
C 	C 	0.38760 0.24484 0.13913 0.36900
C 	C 	0.41898 0.29183 0.12154 -0.14800
C 	C 	0.44706 0.32224 0.16366 0.08200
H 	H 	0.44683 0.31357 0.20297 0.00800
C 	C 	0.47511 0.36512 0.14690 -0.18400
H 	H 	0.49393 0.38497 0.17527 0.10200
C 	C 	0.47609 0.37937 0.08944 0.13300
C 	C 	0.44808 0.34926 0.04676 -0.18100
H 	H 	0.44833 0.35807 0.00747 0.08400
C 	C 	0.41972 0.30582 0.06411 0.07900
H 	H 	0.40083 0.28587 0.03597 0.01200
C 	C 	0.50432 0.42624 0.07095 -0.11900
C 	C 	0.48644 0.44619 0.03699 -0.02500
H 	H 	0.45703 0.42967 0.02587 0.03600
H 	H 	0.58133 0.37397 0.03117 0.45300
H 	H 	0.63713 0.40747 0.13567 0.38300
O 	O 	0.52492 0.97137 0.43162 -0.41400
O 	O 	0.51143 0.94406 0.52516 -0.41800
C 	C 	0.52390 0.94573 0.47246 0.36900
C 	C 	0.53951 0.91435 0.45487 -0.14800
C 	C 	0.54184 0.88627 0.49699 0.08200
H 	H 	0.53340 0.88650 0.53630 0.00800
C 	C 	0.55667 0.85822 0.48023 -0.18400
H 	H 	0.55770 0.83940 0.50860 0.10200
C 	C 	0.56994 0.85724 0.42277 0.13300
C 	C 	0.56784 0.88525 0.38009 -0.18100
H 	H 	0.57640 0.88500 0.34080 0.08400
C 	C 	0.55276 0.91361 0.39744 0.07900
H 	H 	0.55170 0.93250 0.36930 0.01200
C 	C 	0.58858 0.82901 0.40428 -0.11900
C 	C 	0.62641 0.84689 0.37032 -0.02500
H 	H 	0.63930 0.87630 0.35920 0.03600
H 	H 	0.45930 0.75200 0.36450 0.45300
H 	H 	0.43700 0.69620 0.46900 0.38300
O 	O 	0.19159 0.30470 0.76495 -0.41400
O 	O 	0.17810 0.27739 0.85849 -0.41800
C 	C 	0.19057 0.27906 0.80579 0.36900
C 	C 	0.20618 0.24768 0.78820 -0.14800
C 	C 	0.20851 0.21960 0.83032 0.08200
H 	H 	0.20007 0.21983 0.86963 0.00800
C 	C 	0.22334 0.19155 0.81356 -0.18400
H 	H 	0.22437 0.17273 0.84193 0.10200
C 	C 	0.23661 0.19057 0.75610 0.13300
C 	C 	0.23451 0.21858 0.71342 -0.18100
H 	H 	0.24307 0.21833 0.67413 0.08400
C 	C 	0.21943 0.24694 0.73077 0.07900
H 	H 	0.21837 0.26583 0.70263 0.01200
C 	C 	0.25525 0.16234 0.73761 -0.11900
C 	C 	0.29308 0.18022 0.70365 -0.02500
H 	H 	0.30597 0.20963 0.69253 0.03600
H 	H 	0.12597 0.08533 0.69783 0.45300
H 	H 	0.10367 0.02953 0.80233 0.38300
O 	O 	0.85825 0.63804 0.09829 -0.41400
O 	O 	0.84476 0.61073 0.19183 -0.41800
C 	C 	0.85723 0.61240 0.13913 0.36900
C 	C 	0.87284 0.58102 0.12154 -0.14800
C 	C 	0.87517 0.55294 0.16366 0.08200
H 	H 	0.86673 0.55317 0.20297 0.00800
C 	C 	0.89000 0.52489 0.14690 -0.18400
H 	H 	0.89103 0.50607 0.17527 0.10200
C 	C 	0.90327 0.52391 0.08944 0.13300
C 	C 	0.90117 0.55192 0.04676 -0.18100
H 	H 	0.90973 0.55167 0.00747 0.08400
C 	C 	0.88609 0.58028 0.06411 0.07900
H 	H 	0.88503 0.59917 0.03597 0.01200
C 	C 	0.92191 0.49568 0.07095 -0.11900
C 	C 	0.95974 0.51356 0.03699 -0.02500
H 	H 	0.97263 0.54297 0.02587 0.03600
H 	H 	0.79263 0.41867 0.03117 0.45300
H 	H 	0.77033 0.36287 0.13567 0.38300
O 	O 	0.44645 0.47508 0.43162 -0.41400
O 	O 	0.43263 0.48857 0.52516 -0.41800
C 	C 	0.42183 0.47610 0.47246 0.36900
C 	C 	0.37484 0.46049 0.45487 -0.14800
C 	C 	0.34443 0.45816 0.49699 0.08200
H 	H 	0.35310 0.46660 0.53630 0.00800
C 	C 	0.30155 0.44333 0.48023 -0.18400
H 	H 	0.28170 0.44230 0.50860 0.10200
C 	C 	0.28730 0.43006 0.42277 0.13300
C 	C 	0.31741 0.43216 0.38009 -0.18100
H 	H 	0.30860 0.42360 0.34080 0.08400
C 	C 	0.36085 0.44724 0.39744 0.07900
H 	H 	0.38080 0.44830 0.36930 0.01200
C 	C 	0.24043 0.41142 0.40428 -0.11900
C 	C 	0.22048 0.37359 0.37032 -0.02500
H 	H 	0.23700 0.36070 0.35920 0.03600
H 	H 	0.29270 0.54070 0.36450 0.45300
H 	H 	0.25920 0.56300 0.46900 0.38300
O 	O 	0.11312 0.80841 0.76495 -0.41400
O 	O 	0.09930 0.82190 0.85849 -0.41800
C 	C 	0.08850 0.80943 0.80579 0.36900
C 	C 	0.04151 0.79382 0.78820 -0.14800
C 	C 	0.01110 0.79149 0.83032 0.08200
H 	H 	0.01977 0.79993 0.86963 0.00800
C 	C 	0.96822 0.77666 0.81356 -0.18400
H 	H 	0.94837 0.77563 0.84193 0.10200
C 	C 	0.95397 0.76339 0.75610 0.13300
C 	C 	0.98408 0.76549 0.71342 -0.18000
H 	H 	0.97527 0.75693 0.67413 0.08400
C 	C 	0.02752 0.78057 0.73077 0.07900
H 	H 	0.04747 0.78163 0.70263 0.01200
C 	C 	0.90710 0.74475 0.73761 -0.11900
C 	C 	0.88715 0.70692 0.70365 -0.02500
H 	H 	0.90367 0.69403 0.69253 0.03600
H 	H 	0.95937 0.87403 0.69783 0.45300
H 	H 	0.92587 0.89633 0.80233 0.38300
O 	O 	0.77978 0.14175 0.09829 -0.41400
O 	O 	0.76596 0.15524 0.19183 -0.41800
C 	C 	0.75516 0.14277 0.13913 0.36900
C 	C 	0.70817 0.12716 0.12154 -0.14800
C 	C 	0.67776 0.12483 0.16366 0.08200
H 	H 	0.68643 0.13327 0.20297 0.00800
C 	C 	0.63488 0.11000 0.14690 -0.18400
H 	H 	0.61503 0.10897 0.17527 0.10200
C 	C 	0.62063 0.09673 0.08944 0.13300
C 	C 	0.65074 0.09883 0.04676 -0.18100
H 	H 	0.64193 0.09027 0.00747 0.08400
C 	C 	0.69418 0.11391 0.06411 0.07900
H 	H 	0.71413 0.11497 0.03597 0.01200
C 	C 	0.57376 0.07809 0.07095 -0.11900
C 	C 	0.55381 0.04026 0.03699 -0.02500
H 	H 	0.57033 0.02737 0.02587 0.03600
H 	H 	0.62603 0.20737 0.03117 0.45300
H 	H 	0.59253 0.22967 0.13567 0.38300
O 	O 	0.44645 0.97137 0.43162 -0.41400
O 	O 	0.43263 0.94406 0.52516 -0.41800
C 	C 	0.42183 0.94573 0.47246 0.36900
C 	C 	0.37484 0.91435 0.45487 -0.14800
C 	C 	0.34443 0.88627 0.49699 0.08200
H 	H 	0.35310 0.88650 0.53630 0.00800
C 	C 	0.30155 0.85822 0.48023 -0.18400
H 	H 	0.28170 0.83940 0.50860 0.10200
C 	C 	0.28730 0.85724 0.42277 0.13300
C 	C 	0.31741 0.88525 0.38009 -0.18100
H 	H 	0.30860 0.88500 0.34080 0.08400
C 	C 	0.36085 0.91361 0.39744 0.07900
H 	H 	0.38080 0.93250 0.36930 0.01200
C 	C 	0.24043 0.82901 0.40428 -0.11900
C 	C 	0.22048 0.84689 0.37032 -0.02500
H 	H 	0.23700 0.87630 0.35920 0.03600
H 	H 	0.29270 0.75200 0.36450 0.45300
H 	H 	0.25920 0.69620 0.46900 0.38300
O 	O 	0.11312 0.30470 0.76495 -0.41400
O 	O 	0.09930 0.27739 0.85849 -0.41800
C 	C 	0.08850 0.27906 0.80579 0.36900
C 	C 	0.04151 0.24768 0.78820 -0.14800
C 	C 	0.01110 0.21960 0.83032 0.08100
H 	H 	0.01977 0.21983 0.86963 0.00800
C 	C 	0.96822 0.19155 0.81356 -0.18300
H 	H 	0.94837 0.17273 0.84193 0.10200
C 	C 	0.95397 0.19057 0.75610 0.13200
C 	C 	0.98408 0.21858 0.71342 -0.18000
H 	H 	0.97527 0.21833 0.67413 0.08400
C 	C 	0.02752 0.24694 0.73077 0.07900
H 	H 	0.04747 0.26583 0.70263 0.01200
C 	C 	0.90710 0.16234 0.73761 -0.11900
C 	C 	0.88715 0.18022 0.70365 -0.02500
H 	H 	0.90367 0.20963 0.69253 0.03600
H 	H 	0.95937 0.08533 0.69783 0.45300
H 	H 	0.92587 0.02953 0.80233 0.38300
O 	O 	0.77978 0.63804 0.09829 -0.41400
O 	O 	0.76596 0.61073 0.19183 -0.41800
C 	C 	0.75516 0.61240 0.13913 0.36900
C 	C 	0.70817 0.58102 0.12154 -0.14800
C 	C 	0.67776 0.55294 0.16366 0.08200
H 	H 	0.68643 0.55317 0.20297 0.00800
C 	C 	0.63488 0.52489 0.14690 -0.18400
H 	H 	0.61503 0.50607 0.17527 0.10200
C 	C 	0.62063 0.52391 0.08944 0.13300
C 	C 	0.65074 0.55192 0.04676 -0.18100
H 	H 	0.64193 0.55167 0.00747 0.08400
C 	C 	0.69418 0.58028 0.06411 0.07900
H 	H 	0.71413 0.59917 0.03597 0.01200
C 	C 	0.57376 0.49568 0.07095 -0.11900
C 	C 	0.55381 0.51356 0.03699 -0.02500
H 	H 	0.57033 0.54297 0.02587 0.03600
H 	H 	0.62603 0.41867 0.03117 0.45300
H 	H 	0.59253 0.36287 0.13567 0.38300
O 	O 	0.02863 0.47508 0.43162 -0.41400
O 	O 	0.05594 0.48857 0.52516 -0.41800
C 	C 	0.05427 0.47610 0.47246 0.36900
C 	C 	0.08565 0.46049 0.45487 -0.14800
C 	C 	0.11373 0.45816 0.49699 0.08200
H 	H 	0.11350 0.46660 0.53630 0.00800
C 	C 	0.14178 0.44333 0.48023 -0.18400
H 	H 	0.16060 0.44230 0.50860 0.10200
C 	C 	0.14276 0.43006 0.42277 0.13300
C 	C 	0.11475 0.43216 0.38009 -0.18100
H 	H 	0.11500 0.42360 0.34080 0.08400
C 	C 	0.08639 0.44724 0.39744 0.07900
H 	H 	0.06750 0.44830 0.36930 0.01200
C 	C 	0.17099 0.41142 0.40428 -0.11900
C 	C 	0.15311 0.37359 0.37032 -0.02500
H 	H 	0.12370 0.36070 0.35920 0.03600
H 	H 	0.24800 0.54070 0.36450 0.45300
H 	H 	0.30380 0.56300 0.46900 0.38300
O 	O 	0.69530 0.80841 0.76495 -0.41400
O 	O 	0.72261 0.82190 0.85849 -0.41800
C 	C 	0.72094 0.80943 0.80579 0.36900
C 	C 	0.75232 0.79382 0.78820 -0.14800
C 	C 	0.78040 0.79149 0.83032 0.08200
H 	H 	0.78017 0.79993 0.86963 0.00800
C 	C 	0.80845 0.77666 0.81356 -0.18400
H 	H 	0.82727 0.77563 0.84193 0.10200
C 	C 	0.80943 0.76339 0.75610 0.13300
C 	C 	0.78142 0.76549 0.71342 -0.18100
H 	H 	0.78167 0.75693 0.67413 0.08400
C 	C 	0.75306 0.78057 0.73077 0.07900
H 	H 	0.73417 0.78163 0.70263 0.01200
C 	C 	0.83766 0.74475 0.73761 -0.11900
C 	C 	0.81978 0.70692 0.70365 -0.02500
H 	H 	0.79037 0.69403 0.69253 0.03600
H 	H 	0.91467 0.87403 0.69783 0.45300
H 	H 	0.97047 0.89633 0.80233 0.38300
O 	O 	0.36196 0.14175 0.09829 -0.41400
O 	O 	0.38927 0.15524 0.19183 -0.41800
C 	C 	0.38760 0.14277 0.13913 0.36900
C 	C 	0.41898 0.12716 0.12154 -0.14800
C 	C 	0.44706 0.12483 0.16366 0.08200
H 	H 	0.44683 0.13327 0.20297 0.00800
C 	C 	0.47511 0.11000 0.14690 -0.18400
H 	H 	0.49393 0.10897 0.17527 0.10200
C 	C 	0.47609 0.09673 0.08944 0.13300
C 	C 	0.44808 0.09883 0.04676 -0.18100
H 	H 	0.44833 0.09027 0.00747 0.08400
C 	C 	0.41972 0.11391 0.06411 0.07900
H 	H 	0.40083 0.11497 0.03597 0.01200
C 	C 	0.50432 0.07809 0.07095 -0.11900
C 	C 	0.48644 0.04026 0.03699 -0.02500
H 	H 	0.45703 0.02737 0.02587 0.03600
H 	H 	0.58133 0.20737 0.03117 0.45300
H 	H 	0.63713 0.22967 0.13567 0.38300
O 	O 	0.52492 0.55355 0.43162 -0.41400
O 	O 	0.51143 0.56737 0.52516 -0.41800
C 	C 	0.52390 0.57817 0.47246 0.36900
C 	C 	0.53951 0.62516 0.45487 -0.14800
C 	C 	0.54184 0.65557 0.49699 0.08200
H 	H 	0.53340 0.64690 0.53630 0.00800
C 	C 	0.55667 0.69845 0.48023 -0.18400
H 	H 	0.55770 0.71830 0.50860 0.10200
C 	C 	0.56994 0.71270 0.42277 0.13300
C 	C 	0.56784 0.68259 0.38009 -0.18100
H 	H 	0.57640 0.69140 0.34080 0.08400
C 	C 	0.55276 0.63915 0.39744 0.07900
H 	H 	0.55170 0.61920 0.36930 0.01200
C 	C 	0.58858 0.75957 0.40428 -0.11900
C 	C 	0.62641 0.77952 0.37032 -0.02500
H 	H 	0.63930 0.76300 0.35920 0.03600
H 	H 	0.45930 0.70730 0.36450 0.45300
H 	H 	0.43700 0.74080 0.46900 0.38300
O 	O 	0.19159 0.88688 0.76495 -0.41400
O 	O 	0.17810 0.90070 0.85849 -0.41800
C 	C 	0.19057 0.91150 0.80579 0.36900
C 	C 	0.20618 0.95849 0.78820 -0.14800
C 	C 	0.20851 0.98890 0.83032 0.08200
H 	H 	0.20007 0.98023 0.86963 0.00800
C 	C 	0.22334 0.03178 0.81356 -0.18400
H 	H 	0.22437 0.05163 0.84193 0.10200
C 	C 	0.23661 0.04603 0.75610 0.13300
C 	C 	0.23451 0.01592 0.71342 -0.18000
H 	H 	0.24307 0.02473 0.67413 0.08400
C 	C 	0.21943 0.97248 0.73077 0.07900
H 	H 	0.21837 0.95253 0.70263 0.01200
C 	C 	0.25525 0.09290 0.73761 -0.11900
C 	C 	0.29308 0.11285 0.70365 -0.02500
H 	H 	0.30597 0.09633 0.69253 0.03600
H 	H 	0.12597 0.04063 0.69783 0.45300
H 	H 	0.10367 0.07413 0.80233 0.38300
O 	O 	0.85825 0.22022 0.09829 -0.41400
O 	O 	0.84476 0.23404 0.19183 -0.41800
C 	C 	0.85723 0.24484 0.13913 0.36900
C 	C 	0.87284 0.29183 0.12154 -0.14800
C 	C 	0.87517 0.32224 0.16366 0.08200
H 	H 	0.86673 0.31357 0.20297 0.00800
C 	C 	0.89000 0.36512 0.14690 -0.18400
H 	H 	0.89103 0.38497 0.17527 0.10200
C 	C 	0.90327 0.37937 0.08944 0.13300
C 	C 	0.90117 0.34926 0.04676 -0.18100
H 	H 	0.90973 0.35807 0.00747 0.08400
C 	C 	0.88609 0.30582 0.06411 0.07900
H 	H 	0.88503 0.28587 0.03597 0.01200
C 	C 	0.92191 0.42624 0.07095 -0.11900
C 	C 	0.95974 0.44619 0.03699 -0.02500
H 	H 	0.97263 0.42967 0.02587 0.03600
H 	H 	0.79263 0.37397 0.03117 0.45300
H 	H 	0.77033 0.40747 0.13567 0.38300
O 	O 	0.97137 0.44645 0.56838 -0.41400
O 	O 	0.94406 0.43263 0.47484 -0.41800
C 	C 	0.94573 0.42183 0.52754 0.36900
C 	C 	0.91435 0.37484 0.54513 -0.14800
C 	C 	0.88627 0.34443 0.50301 0.08200
H 	H 	0.88650 0.35310 0.46370 0.00800
C 	C 	0.85822 0.30155 0.51977 -0.18400
H 	H 	0.83940 0.28170 0.49140 0.10200
C 	C 	0.85724 0.28730 0.57723 0.13300
C 	C 	0.88525 0.31741 0.61991 -0.18100
H 	H 	0.88500 0.30860 0.65920 0.08400
C 	C 	0.91361 0.36085 0.60256 0.07900
H 	H 	0.93250 0.38080 0.63070 0.01200
C 	C 	0.82901 0.24043 0.59572 -0.11900
C 	C 	0.84689 0.22048 0.62968 -0.02500
H 	H 	0.87630 0.23700 0.64080 0.03600
H 	H 	0.75200 0.29270 0.63550 0.45300
H 	H 	0.69620 0.25920 0.53100 0.38300
O 	O 	0.63804 0.77978 0.90171 -0.41400
O 	O 	0.61073 0.76596 0.80817 -0.41800
C 	C 	0.61240 0.75516 0.86087 0.36900
C 	C 	0.58102 0.70817 0.87846 -0.14800
C 	C 	0.55294 0.67776 0.83634 0.08200
H 	H 	0.55317 0.68643 0.79703 0.00800
C 	C 	0.52489 0.63488 0.85310 -0.18400
H 	H 	0.50607 0.61503 0.82473 0.10200
C 	C 	0.52391 0.62063 0.91056 0.13300
C 	C 	0.55192 0.65074 0.95324 -0.18100
H 	H 	0.55167 0.64193 0.99253 0.08400
C 	C 	0.58028 0.69418 0.93589 0.07900
H 	H 	0.59917 0.71413 0.96403 0.01200
C 	C 	0.49568 0.57376 0.92905 -0.11900
C 	C 	0.51356 0.55381 0.96301 -0.02500
H 	H 	0.54297 0.57033 0.97413 0.03600
H 	H 	0.41867 0.62603 0.96883 0.45300
H 	H 	0.36287 0.59253 0.86433 0.38300
O 	O 	0.30470 0.11312 0.23505 -0.41400
O 	O 	0.27739 0.09930 0.14151 -0.41800
C 	C 	0.27906 0.08850 0.19421 0.36900
C 	C 	0.24768 0.04151 0.21180 -0.14800
C 	C 	0.21960 0.01110 0.16968 0.08100
H 	H 	0.21983 0.01977 0.13037 0.00800
C 	C 	0.19155 0.96822 0.18644 -0.18300
H 	H 	0.17273 0.94837 0.15807 0.10200
C 	C 	0.19057 0.95397 0.24390 0.13200
C 	C 	0.21858 0.98408 0.28658 -0.18000
H 	H 	0.21833 0.97527 0.32587 0.08400
C 	C 	0.24694 0.02752 0.26923 0.07900
H 	H 	0.26583 0.04747 0.29737 0.01200
C 	C 	0.16234 0.90710 0.26239 -0.11900
C 	C 	0.18022 0.88715 0.29635 -0.02500
H 	H 	0.20963 0.90367 0.30747 0.03600
H 	H 	0.08533 0.95937 0.30217 0.45300
H 	H 	0.02953 0.92587 0.19767 0.38300
O 	O 	0.47508 0.02863 0.56838 -0.41400
O 	O 	0.48857 0.05594 0.47484 -0.41800
C 	C 	0.47610 0.05427 0.52754 0.36900
C 	C 	0.46049 0.08565 0.54513 -0.14800
C 	C 	0.45816 0.11373 0.50301 0.08200
H 	H 	0.46660 0.11350 0.46370 0.00800
C 	C 	0.44333 0.14178 0.51977 -0.18400
H 	H 	0.44230 0.16060 0.49140 0.10200
C 	C 	0.43006 0.14276 0.57723 0.13300
C 	C 	0.43216 0.11475 0.61991 -0.18100
H 	H 	0.42360 0.11500 0.65920 0.08400
C 	C 	0.44724 0.08639 0.60256 0.07900
H 	H 	0.44830 0.06750 0.63070 0.01200
C 	C 	0.41142 0.17099 0.59572 -0.11900
C 	C 	0.37359 0.15311 0.62968 -0.02500
H 	H 	0.36070 0.12370 0.64080 0.03600
H 	H 	0.54070 0.24800 0.63550 0.45300
H 	H 	0.56300 0.30380 0.53100 0.38300
O 	O 	0.14175 0.36196 0.90171 -0.41400
O 	O 	0.15524 0.38927 0.80817 -0.41800
C 	C 	0.14277 0.38760 0.86087 0.36900
C 	C 	0.12716 0.41898 0.87846 -0.14800
C 	C 	0.12483 0.44706 0.83634 0.08200
H 	H 	0.13327 0.44683 0.79703 0.00800
C 	C 	0.11000 0.47511 0.85310 -0.18400
H 	H 	0.10897 0.49393 0.82473 0.10200
C 	C 	0.09673 0.47609 0.91056 0.13300
C 	C 	0.09883 0.44808 0.95324 -0.18100
H 	H 	0.09027 0.44833 0.99253 0.08400
C 	C 	0.11391 0.41972 0.93589 0.07900
H 	H 	0.11497 0.40083 0.96403 0.01200
C 	C 	0.07809 0.50432 0.92905 -0.11900
C 	C 	0.04026 0.48644 0.96301 -0.02500
H 	H 	0.02737 0.45703 0.97413 0.03600
H 	H 	0.20737 0.58133 0.96883 0.45300
H 	H 	0.22967 0.63713 0.86433 0.38300
O 	O 	0.80841 0.69530 0.23505 -0.41400
O 	O 	0.82190 0.72261 0.14151 -0.41800
C 	C 	0.80943 0.72094 0.19421 0.36900
C 	C 	0.79382 0.75232 0.21180 -0.14800
C 	C 	0.79149 0.78040 0.16968 0.08200
H 	H 	0.79993 0.78017 0.13037 0.00800
C 	C 	0.77666 0.80845 0.18644 -0.18400
H 	H 	0.77563 0.82727 0.15807 0.10200
C 	C 	0.76339 0.80943 0.24390 0.13300
C 	C 	0.76549 0.78142 0.28658 -0.18100
H 	H 	0.75693 0.78167 0.32587 0.08400
C 	C 	0.78057 0.75306 0.26923 0.07900
H 	H 	0.78163 0.73417 0.29737 0.01200
C 	C 	0.74475 0.83766 0.26239 -0.11900
C 	C 	0.70692 0.81978 0.29635 -0.02500
H 	H 	0.69403 0.79037 0.30747 0.03600
H 	H 	0.87403 0.91467 0.30217 0.45300
H 	H 	0.89633 0.97047 0.19767 0.38300
O 	O 	0.55355 0.52492 0.56838 -0.41400
O 	O 	0.56737 0.51143 0.47484 -0.41800
C 	C 	0.57817 0.52390 0.52754 0.36900
C 	C 	0.62516 0.53951 0.54513 -0.14800
C 	C 	0.65557 0.54184 0.50301 0.08200
H 	H 	0.64690 0.53340 0.46370 0.00800
C 	C 	0.69845 0.55667 0.51977 -0.18400
H 	H 	0.71830 0.55770 0.49140 0.10200
C 	C 	0.71270 0.56994 0.57723 0.13300
C 	C 	0.68259 0.56784 0.61991 -0.18100
H 	H 	0.69140 0.57640 0.65920 0.08400
C 	C 	0.63915 0.55276 0.60256 0.07900
H 	H 	0.61920 0.55170 0.63070 0.01200
C 	C 	0.75957 0.58858 0.59572 -0.11900
C 	C 	0.77952 0.62641 0.62968 -0.02500
H 	H 	0.76300 0.63930 0.64080 0.03600
H 	H 	0.70730 0.45930 0.63550 0.45300
H 	H 	0.74080 0.43700 0.53100 0.38300
O 	O 	0.22022 0.85825 0.90171 -0.41400
O 	O 	0.23404 0.84476 0.80817 -0.41800
C 	C 	0.24484 0.85723 0.86087 0.36900
C 	C 	0.29183 0.87284 0.87846 -0.14800
C 	C 	0.32224 0.87517 0.83634 0.08200
H 	H 	0.31357 0.86673 0.79703 0.00800
C 	C 	0.36512 0.89000 0.85310 -0.18400
H 	H 	0.38497 0.89103 0.82473 0.10200
C 	C 	0.37937 0.90327 0.91056 0.13300
C 	C 	0.34926 0.90117 0.95324 -0.18100
H 	H 	0.35807 0.90973 0.99253 0.08400
C 	C 	0.30582 0.88609 0.93589 0.07900
H 	H 	0.28587 0.88503 0.96403 0.01200
C 	C 	0.42624 0.92191 0.92905 -0.11900
C 	C 	0.44619 0.95974 0.96301 -0.02500
H 	H 	0.42967 0.97263 0.97413 0.03600
H 	H 	0.37397 0.79263 0.96883 0.45300
H 	H 	0.40747 0.77033 0.86433 0.38300
O 	O 	0.88688 0.19159 0.23505 -0.41400
O 	O 	0.90070 0.17810 0.14151 -0.41800
C 	C 	0.91150 0.19057 0.19421 0.36900
C 	C 	0.95849 0.20618 0.21180 -0.14800
C 	C 	0.98890 0.20851 0.16968 0.08200
H 	H 	0.98023 0.20007 0.13037 0.00800
C 	C 	0.03178 0.22334 0.18644 -0.18400
H 	H 	0.05163 0.22437 0.15807 0.10200
C 	C 	0.04603 0.23661 0.24390 0.13300
C 	C 	0.01592 0.23451 0.28658 -0.18000
H 	H 	0.02473 0.24307 0.32587 0.08400
C 	C 	0.97248 0.21943 0.26923 0.07900
H 	H 	0.95253 0.21837 0.29737 0.01200
C 	C 	0.09290 0.25525 0.26239 -0.11900
C 	C 	0.11285 0.29308 0.29635 -0.02500
H 	H 	0.09633 0.30597 0.30747 0.03600
H 	H 	0.04063 0.12597 0.30217 0.45300
H 	H 	0.07413 0.10367 0.19767 0.38300
Cu	Cu	0.50794 0.01588 0.44511 0.90200
Cu	Cu	0.17461 0.34921 0.77844 0.90200
Cu	Cu	0.84127 0.68255 0.11178 0.90200
Cu	Cu	0.98412 0.49206 0.44511 0.90200
Cu	Cu	0.65079 0.82539 0.77844 0.90200
Cu	Cu	0.31745 0.15873 0.11178 0.90200
Cu	Cu	0.50794 0.49206 0.44511 0.90200
Cu	Cu	0.17461 0.82539 0.77844 0.90200
Cu	Cu	0.84127 0.15873 0.11178 0.90200
Cu	Cu	0.01588 0.50794 0.55489 0.90200
Cu	Cu	0.68255 0.84127 0.88822 0.90200
Cu	Cu	0.34921 0.17461 0.22156 0.90200
Cu	Cu	0.49206 0.98412 0.55489 0.90200
Cu	Cu	0.15873 0.31745 0.88822 0.90200
Cu	Cu	0.82539 0.65079 0.22156 0.90200
Cu	Cu	0.49206 0.50794 0.55489 0.90200
Cu	Cu	0.15873 0.84127 0.88822 0.90200
Cu	Cu	0.82539 0.17461 0.22156 0.90200
O 	O 	0.76608 0.23392 0.54336 -0.47400
C 	C 	0.82308 0.17692 0.64810 -0.01200
C 	C 	0.78462 0.21538 0.57920 0.20500
C 	C 	0.74640 0.25360 0.56910 0.84200
C 	C 	0.73842 0.26158 0.62900 -1.53900
H 	H 	0.75060 0.24940 0.65620 0.46700
C 	C 	0.72735 0.27265 0.52490 -1.30600
H 	H 	0.73300 0.26700 0.48490 0.40900
O 	O 	0.43275 0.56725 0.87669 -0.47400
C 	C 	0.48975 0.51025 0.98143 -0.01200
C 	C 	0.45129 0.54871 0.91253 0.20500
C 	C 	0.41307 0.58693 0.90243 0.84300
C 	C 	0.40509 0.59491 0.96233 -1.53900
H 	H 	0.41727 0.58273 0.98953 0.46700
C 	C 	0.39402 0.60598 0.85823 -1.30600
H 	H 	0.39967 0.60033 0.81823 0.40900
O 	O 	0.09941 0.90059 0.21003 -0.47400
C 	C 	0.15641 0.84359 0.31477 -0.01200
C 	C 	0.11795 0.88205 0.24587 0.20500
C 	C 	0.07973 0.92027 0.23577 0.84300
C 	C 	0.07175 0.92825 0.29567 -1.53900
H 	H 	0.08393 0.91607 0.32287 0.46700
C 	C 	0.06068 0.93932 0.19157 -1.30600
H 	H 	0.06633 0.93367 0.15157 0.40900
O 	O 	0.76608 0.53216 0.54336 -0.47400
C 	C 	0.82308 0.64616 0.64810 -0.01200
C 	C 	0.78462 0.56924 0.57920 0.20500
C 	C 	0.74640 0.49280 0.56910 0.84200
C 	C 	0.73842 0.47684 0.62900 -1.53900
H 	H 	0.75060 0.50120 0.65620 0.46700
C 	C 	0.72735 0.45470 0.52490 -1.30600
H 	H 	0.73300 0.46600 0.48490 0.40900
O 	O 	0.43275 0.86549 0.87669 -0.47400
C 	C 	0.48975 0.97949 0.98143 -0.01200
C 	C 	0.45129 0.90257 0.91253 0.20500
C 	C 	0.41307 0.82613 0.90243 0.84300
C 	C 	0.40509 0.81017 0.96233 -1.53900
H 	H 	0.41727 0.83453 0.98953 0.46700
C 	C 	0.39402 0.78803 0.85823 -1.30600
H 	H 	0.39967 0.79933 0.81823 0.40900
O 	O 	0.09941 0.19883 0.21003 -0.47400
C 	C 	0.15641 0.31283 0.31477 -0.01200
C 	C 	0.11795 0.23591 0.24587 0.20500
C 	C 	0.07973 0.15947 0.23577 0.84300
C 	C 	0.07175 0.14351 0.29567 -1.53900
H 	H 	0.08393 0.16787 0.32287 0.46700
C 	C 	0.06068 0.12137 0.19157 -1.30600
H 	H 	0.06633 0.13267 0.15157 0.40900
O 	O 	0.46784 0.23392 0.54336 -0.47400
C 	C 	0.35384 0.17692 0.64810 -0.01200
C 	C 	0.43076 0.21538 0.57920 0.20500
C 	C 	0.50720 0.25360 0.56910 0.84200
C 	C 	0.52316 0.26158 0.62900 -1.53900
H 	H 	0.49880 0.24940 0.65620 0.46700
C 	C 	0.54530 0.27265 0.52490 -1.30600
H 	H 	0.53400 0.26700 0.48490 0.40900
O 	O 	0.13451 0.56725 0.87669 -0.47400
C 	C 	0.02051 0.51025 0.98143 -0.01200
C 	C 	0.09743 0.54871 0.91253 0.20500
C 	C 	0.17387 0.58693 0.90243 0.84300
C 	C 	0.18983 0.59491 0.96233 -1.53900
H 	H 	0.16547 0.58273 0.98953 0.46700
C 	C 	0.21197 0.60598 0.85823 -1.30600
H 	H 	0.20067 0.60033 0.81823 0.40900
O 	O 	0.80117 0.90059 0.21003 -0.47400
C 	C 	0.68717 0.84359 0.31477 -0.01200
C 	C 	0.76409 0.88205 0.24587 0.20500
C 	C 	0.84053 0.92027 0.23577 0.84300
C 	C 	0.85649 0.92825 0.29567 -1.53900
H 	H 	0.83213 0.91607 0.32287 0.46700
C 	C 	0.87863 0.93932 0.19157 -1.30600
H 	H 	0.86733 0.93367 0.15157 0.40900
O 	O 	0.23392 0.76608 0.45664 -0.47400
C 	C 	0.17692 0.82308 0.35190 -0.01200
C 	C 	0.21538 0.78462 0.42080 0.20500
C 	C 	0.25360 0.74640 0.43090 0.84200
C 	C 	0.26158 0.73842 0.37100 -1.53900
H 	H 	0.24940 0.75060 0.34380 0.46700
C 	C 	0.27265 0.72735 0.47510 -1.30600
H 	H 	0.26700 0.73300 0.51510 0.40900
O 	O 	0.90059 0.09941 0.78997 -0.47400
C 	C 	0.84359 0.15641 0.68523 -0.01200
C 	C 	0.88205 0.11795 0.75413 0.20500
C 	C 	0.92027 0.07973 0.76423 0.84300
C 	C 	0.92825 0.07175 0.70433 -1.53900
H 	H 	0.91607 0.08393 0.67713 0.46700
C 	C 	0.93932 0.06068 0.80843 -1.30600
H 	H 	0.93367 0.06633 0.84843 0.40900
O 	O 	0.56725 0.43275 0.12331 -0.47400
C 	C 	0.51025 0.48975 0.01857 -0.01200
C 	C 	0.54871 0.45129 0.08747 0.20500
C 	C 	0.58693 0.41307 0.09757 0.84300
C 	C 	0.59491 0.40509 0.03767 -1.53900
H 	H 	0.58273 0.41727 0.01047 0.46700
C 	C 	0.60598 0.39402 0.14177 -1.30600
H 	H 	0.60033 0.39967 0.18177 0.40900
O 	O 	0.53216 0.76608 0.45664 -0.47400
C 	C 	0.64616 0.82308 0.35190 -0.01200
C 	C 	0.56924 0.78462 0.42080 0.20500
C 	C 	0.49280 0.74640 0.43090 0.84200
C 	C 	0.47684 0.73842 0.37100 -1.53900
H 	H 	0.50120 0.75060 0.34380 0.46700
C 	C 	0.45470 0.72735 0.47510 -1.30600
H 	H 	0.46600 0.73300 0.51510 0.40900
O 	O 	0.19883 0.09941 0.78997 -0.47400
C 	C 	0.31283 0.15641 0.68523 -0.01200
C 	C 	0.23591 0.11795 0.75413 0.20500
C 	C 	0.15947 0.07973 0.76423 0.84300
C 	C 	0.14351 0.07175 0.70433 -1.53900
H 	H 	0.16787 0.08393 0.67713 0.46700
C 	C 	0.12137 0.06068 0.80843 -1.30600
H 	H 	0.13267 0.06633 0.84843 0.40900
O 	O 	0.86549 0.43275 0.12331 -0.47400
C 	C 	0.97949 0.48975 0.01857 -0.01200
C 	C 	0.90257 0.45129 0.08747 0.20500
C 	C 	0.82613 0.41307 0.09757 0.84300
C 	C 	0.81017 0.40509 0.03767 -1.53900
H 	H 	0.83453 0.41727 0.01047 0.46700
C 	C 	0.78803 0.39402 0.14177 -1.30600
H 	H 	0.79933 0.39967 0.18177 0.40900
O 	O 	0.23392 0.46784 0.45664 -0.47400
C 	C 	0.17692 0.35384 0.35190 -0.01200
C 	C 	0.21538 0.43076 0.42080 0.20500
C 	C 	0.25360 0.50720 0.43090 0.84200
C 	C 	0.26158 0.52316 0.37100 -1.53900
H 	H 	0.24940 0.49880 0.34380 0.46700
C 	C 	0.27265 0.54530 0.47510 -1.30600
H 	H 	0.26700 0.53400 0.51510 0.40900
O 	O 	0.90059 0.80117 0.78997 -0.47400
C 	C 	0.84359 0.68717 0.68523 -0.01200
C 	C 	0.88205 0.76409 0.75413 0.20500
C 	C 	0.92027 0.84053 0.76423 0.84300
C 	C 	0.92825 0.85649 0.70433 -1.53900
H 	H 	0.91607 0.83213 0.67713 0.46700
C 	C 	0.93932 0.87863 0.80843 -1.30600
H 	H 	0.93367 0.86733 0.84843 0.40900
O 	O 	0.56725 0.13451 0.12331 -0.47400
C 	C 	0.51025 0.02051 0.01857 -0.01200
C 	C 	0.54871 0.09743 0.08747 0.20500
C 	C 	0.58693 0.17387 0.09757 0.84300
C 	C 	0.59491 0.18983 0.03767 -1.53900
H 	H 	0.58273 0.16547 0.01047 0.46700
C 	C 	0.60598 0.21197 0.14177 -1.30600
H 	H 	0.60033 0.20067 0.18177 0.40900
