data_crystal

_cell_length_a 35.06300
_cell_length_b 35.06300
_cell_length_c 22.59300
_cell_angle_alpha 90.00000
_cell_angle_beta  90.00000
_cell_angle_gamma 120.00000

_symmetry_space_group_name_	'P 1'
_symmetry_space_group_name_H-M	'P 1'

loop_
_symmetry_equiv_pos_as_xyz
  x,y,z

loop_
_atom_site_label
_atom_site_type_symbol
_atom_site_fract_x
_atom_site_fract_y
_atom_site_fract_z
_atom_site_charge
O 	O 	0.55336 0.02788 0.06720 -0.42800
O 	O 	0.56734 0.05638 0.97730 -0.43800
C 	C 	0.57827 0.05370 0.02810 0.42300
C 	C 	0.62500 0.08464 0.04570 -0.21400
C 	C 	0.65571 0.11309 0.00510 0.14800
H 	H 	0.64800 0.11290 0.96570 -0.01400
C 	C 	0.69862 0.14211 0.02460 -0.25900
H 	H 	0.71830 0.16260 0.99770 0.13300
C 	C 	0.71283 0.14227 0.07790 0.20400
C 	C 	0.68153 0.11378 0.12000 -0.23700
H 	H 	0.68920 0.11400 0.15950 0.10700
C 	C 	0.63843 0.08515 0.10000 0.14900
H 	H 	0.61820 0.06530 0.12700 -0.00800
C 	C 	0.75972 0.17055 0.09630 -0.17100
C 	C 	0.77947 0.15251 0.13100 0.00500
H 	H 	0.76310 0.12300 0.14170 0.02600
H 	H 	0.74170 0.30300 0.02910 0.38600
H 	H 	0.70980 0.24550 0.12880 0.40400
O 	O 	0.22003 0.36121 0.40053 -0.42900
O 	O 	0.23401 0.38971 0.31063 -0.43800
C 	C 	0.24494 0.38703 0.36143 0.42100
C 	C 	0.29167 0.41797 0.37903 -0.21400
C 	C 	0.32238 0.44642 0.33843 0.14600
H 	H 	0.31467 0.44623 0.29903 -0.01400
C 	C 	0.36529 0.47544 0.35793 -0.26100
H 	H 	0.38497 0.49593 0.33103 0.13300
C 	C 	0.37950 0.47560 0.41123 0.20400
C 	C 	0.34820 0.44711 0.45333 -0.23800
H 	H 	0.35587 0.44733 0.49283 0.10600
C 	C 	0.30510 0.41848 0.43333 0.14800
H 	H 	0.28487 0.39863 0.46033 -0.00900
C 	C 	0.42639 0.50388 0.42963 -0.17300
C 	C 	0.44614 0.48584 0.46433 0.00500
H 	H 	0.42977 0.45633 0.47503 0.02600
H 	H 	0.40837 0.63633 0.36243 0.38700
H 	H 	0.37647 0.57883 0.46213 0.40400
O 	O 	0.88669 0.69455 0.73387 -0.42900
O 	O 	0.90067 0.72305 0.64397 -0.43800
C 	C 	0.91160 0.72037 0.69477 0.42000
C 	C 	0.95833 0.75131 0.71237 -0.21300
C 	C 	0.98904 0.77976 0.67177 0.14500
H 	H 	0.98133 0.77957 0.63237 -0.01400
C 	C 	0.03195 0.80878 0.69127 -0.25900
H 	H 	0.05163 0.82927 0.66437 0.13300
C 	C 	0.04616 0.80894 0.74457 0.20300
C 	C 	0.01486 0.78045 0.78667 -0.23700
H 	H 	0.02253 0.78067 0.82617 0.10500
C 	C 	0.97176 0.75182 0.76667 0.14600
H 	H 	0.95153 0.73197 0.79367 -0.00800
C 	C 	0.09305 0.83722 0.76297 -0.17200
C 	C 	0.11280 0.81918 0.79767 0.00500
H 	H 	0.09643 0.78967 0.80837 0.02600
H 	H 	0.07503 0.96967 0.69577 0.38700
H 	H 	0.04313 0.91217 0.79547 0.40500
O 	O 	0.97212 0.52548 0.06720 -0.42900
O 	O 	0.94362 0.51096 0.97730 -0.43900
C 	C 	0.94630 0.52457 0.02810 0.42200
C 	C 	0.91536 0.54036 0.04570 -0.21500
C 	C 	0.88691 0.54262 0.00510 0.14700
H 	H 	0.88710 0.53510 0.96570 -0.01500
C 	C 	0.85789 0.55651 0.02460 -0.26000
H 	H 	0.83740 0.55570 0.99770 0.13300
C 	C 	0.85773 0.57056 0.07790 0.20400
C 	C 	0.88622 0.56775 0.12000 -0.23800
H 	H 	0.88600 0.57520 0.15950 0.10600
C 	C 	0.91485 0.55328 0.10000 0.14800
H 	H 	0.93470 0.55290 0.12700 -0.00900
C 	C 	0.82945 0.58917 0.09630 -0.17200
C 	C 	0.84749 0.62696 0.13100 0.00500
H 	H 	0.87700 0.64010 0.14170 0.02600
H 	H 	0.69700 0.43870 0.02910 0.38700
H 	H 	0.75450 0.46430 0.12880 0.40400
O 	O 	0.63879 0.85881 0.40053 -0.42900
O 	O 	0.61029 0.84429 0.31063 -0.43800
C 	C 	0.61297 0.85790 0.36143 0.42100
C 	C 	0.58203 0.87369 0.37903 -0.21400
C 	C 	0.55358 0.87595 0.33843 0.14600
H 	H 	0.55377 0.86843 0.29903 -0.01400
C 	C 	0.52456 0.88984 0.35793 -0.26100
H 	H 	0.50407 0.88903 0.33103 0.13300
C 	C 	0.52440 0.90389 0.41123 0.20400
C 	C 	0.55289 0.90108 0.45333 -0.23800
H 	H 	0.55267 0.90853 0.49283 0.10600
C 	C 	0.58152 0.88661 0.43333 0.14800
H 	H 	0.60137 0.88623 0.46033 -0.00900
C 	C 	0.49612 0.92250 0.42963 -0.17300
C 	C 	0.51416 0.96029 0.46433 0.00500
H 	H 	0.54367 0.97343 0.47503 0.02600
H 	H 	0.36367 0.77203 0.36243 0.38700
H 	H 	0.42117 0.79763 0.46213 0.40400
O 	O 	0.30545 0.19215 0.73387 -0.42900
O 	O 	0.27695 0.17763 0.64397 -0.43800
C 	C 	0.27963 0.19124 0.69477 0.42100
C 	C 	0.24869 0.20703 0.71237 -0.21400
C 	C 	0.22024 0.20929 0.67177 0.14600
H 	H 	0.22043 0.20177 0.63237 -0.01400
C 	C 	0.19122 0.22318 0.69127 -0.26100
H 	H 	0.17073 0.22237 0.66437 0.13300
C 	C 	0.19106 0.23723 0.74457 0.20400
C 	C 	0.21955 0.23442 0.78667 -0.23800
H 	H 	0.21933 0.24187 0.82617 0.10600
C 	C 	0.24818 0.21995 0.76667 0.14800
H 	H 	0.26803 0.21957 0.79367 -0.00900
C 	C 	0.16278 0.25584 0.76297 -0.17200
C 	C 	0.18082 0.29363 0.79767 0.00500
H 	H 	0.21033 0.30677 0.80837 0.02600
H 	H 	0.03033 0.10537 0.69577 0.38700
H 	H 	0.08783 0.13097 0.79547 0.40400
O 	O 	0.47452 0.44664 0.06720 -0.42900
O 	O 	0.48904 0.43266 0.97730 -0.43800
C 	C 	0.47543 0.42173 0.02810 0.42100
C 	C 	0.45964 0.37500 0.04570 -0.21400
C 	C 	0.45738 0.34429 0.00510 0.14600
H 	H 	0.46490 0.35200 0.96570 -0.01400
C 	C 	0.44349 0.30138 0.02460 -0.26000
H 	H 	0.44430 0.28170 0.99770 0.13300
C 	C 	0.42944 0.28717 0.07790 0.20300
C 	C 	0.43225 0.31847 0.12000 -0.23800
H 	H 	0.42480 0.31080 0.15950 0.10600
C 	C 	0.44672 0.36157 0.10000 0.14800
H 	H 	0.44710 0.38180 0.12700 -0.00900
C 	C 	0.41083 0.24028 0.09630 -0.17200
C 	C 	0.37304 0.22053 0.13100 0.00500
H 	H 	0.35990 0.23690 0.14170 0.02600
H 	H 	0.56130 0.25830 0.02910 0.38700
H 	H 	0.53570 0.29020 0.12880 0.40400
O 	O 	0.14119 0.77997 0.40053 -0.42900
O 	O 	0.15571 0.76599 0.31063 -0.43800
C 	C 	0.14210 0.75506 0.36143 0.42100
C 	C 	0.12631 0.70833 0.37903 -0.21400
C 	C 	0.12405 0.67762 0.33843 0.14600
H 	H 	0.13157 0.68533 0.29903 -0.01400
C 	C 	0.11016 0.63471 0.35793 -0.26100
H 	H 	0.11097 0.61503 0.33103 0.13300
C 	C 	0.09611 0.62050 0.41123 0.20400
C 	C 	0.09892 0.65180 0.45333 -0.23800
H 	H 	0.09147 0.64413 0.49283 0.10600
C 	C 	0.11339 0.69490 0.43333 0.14800
H 	H 	0.11377 0.71513 0.46033 -0.00900
C 	C 	0.07750 0.57361 0.42963 -0.17200
C 	C 	0.03971 0.55386 0.46433 0.00500
H 	H 	0.02657 0.57023 0.47503 0.02600
H 	H 	0.22797 0.59163 0.36243 0.38700
H 	H 	0.20237 0.62353 0.46213 0.40400
O 	O 	0.80785 0.11331 0.73387 -0.42900
O 	O 	0.82237 0.09933 0.64397 -0.43800
C 	C 	0.80876 0.08840 0.69477 0.42100
C 	C 	0.79297 0.04167 0.71237 -0.21300
C 	C 	0.79071 0.01096 0.67177 0.14500
H 	H 	0.79823 0.01867 0.63237 -0.01400
C 	C 	0.77682 0.96805 0.69127 -0.26000
H 	H 	0.77763 0.94837 0.66437 0.13300
C 	C 	0.76277 0.95384 0.74457 0.20300
C 	C 	0.76558 0.98514 0.78667 -0.23700
H 	H 	0.75813 0.97747 0.82617 0.10500
C 	C 	0.78005 0.02824 0.76667 0.14700
H 	H 	0.78043 0.04847 0.79367 -0.00800
C 	C 	0.74416 0.90695 0.76297 -0.17200
C 	C 	0.70637 0.88720 0.79767 0.00500
H 	H 	0.69323 0.90357 0.80837 0.02600
H 	H 	0.89463 0.92497 0.69577 0.38700
H 	H 	0.86903 0.95687 0.79547 0.40400
O 	O 	0.02788 0.55336 0.93280 -0.42900
O 	O 	0.05638 0.56734 0.02270 -0.43900
C 	C 	0.05370 0.57827 0.97190 0.42200
C 	C 	0.08464 0.62500 0.95430 -0.21500
C 	C 	0.11309 0.65571 0.99490 0.14700
H 	H 	0.11290 0.64800 0.03430 -0.01500
C 	C 	0.14211 0.69862 0.97540 -0.26000
H 	H 	0.16260 0.71830 0.00230 0.13200
C 	C 	0.14227 0.71283 0.92210 0.20300
C 	C 	0.11378 0.68153 0.88000 -0.23800
H 	H 	0.11400 0.68920 0.84050 0.10600
C 	C 	0.08515 0.63843 0.90000 0.14800
H 	H 	0.06530 0.61820 0.87300 -0.00900
C 	C 	0.17055 0.75972 0.90370 -0.17200
C 	C 	0.15251 0.77947 0.86900 0.00500
H 	H 	0.12300 0.76310 0.85830 0.02600
H 	H 	0.30300 0.74170 0.97090 0.38600
H 	H 	0.24550 0.70980 0.87120 0.40400
O 	O 	0.69455 0.88669 0.26613 -0.42900
O 	O 	0.72305 0.90067 0.35603 -0.43800
C 	C 	0.72037 0.91160 0.30523 0.42000
C 	C 	0.75131 0.95833 0.28763 -0.21300
C 	C 	0.77976 0.98904 0.32823 0.14500
H 	H 	0.77957 0.98133 0.36763 -0.01400
C 	C 	0.80878 0.03195 0.30873 -0.25900
H 	H 	0.82927 0.05163 0.33563 0.13300
C 	C 	0.80894 0.04616 0.25543 0.20300
C 	C 	0.78045 0.01486 0.21333 -0.23700
H 	H 	0.78067 0.02253 0.17383 0.10500
C 	C 	0.75182 0.97176 0.23333 0.14600
H 	H 	0.73197 0.95153 0.20633 -0.00800
C 	C 	0.83722 0.09305 0.23703 -0.17200
C 	C 	0.81918 0.11280 0.20233 0.00500
H 	H 	0.78967 0.09643 0.19163 0.02600
H 	H 	0.96967 0.07503 0.30423 0.38700
H 	H 	0.91217 0.04313 0.20453 0.40500
O 	O 	0.36121 0.22003 0.59947 -0.42900
O 	O 	0.38971 0.23401 0.68937 -0.43800
C 	C 	0.38703 0.24494 0.63857 0.42100
C 	C 	0.41797 0.29167 0.62097 -0.21400
C 	C 	0.44642 0.32238 0.66157 0.14600
H 	H 	0.44623 0.31467 0.70097 -0.01400
C 	C 	0.47544 0.36529 0.64207 -0.26100
H 	H 	0.49593 0.38497 0.66897 0.13300
C 	C 	0.47560 0.37950 0.58877 0.20400
C 	C 	0.44711 0.34820 0.54667 -0.23800
H 	H 	0.44733 0.35587 0.50717 0.10600
C 	C 	0.41848 0.30510 0.56667 0.14800
H 	H 	0.39863 0.28487 0.53967 -0.00900
C 	C 	0.50388 0.42639 0.57037 -0.17300
C 	C 	0.48584 0.44614 0.53567 0.00500
H 	H 	0.45633 0.42977 0.52497 0.02600
H 	H 	0.63633 0.40837 0.63757 0.38700
H 	H 	0.57883 0.37647 0.53787 0.40400
O 	O 	0.52548 0.97212 0.93280 -0.42900
O 	O 	0.51096 0.94362 0.02270 -0.43900
C 	C 	0.52457 0.94630 0.97190 0.42200
C 	C 	0.54036 0.91536 0.95430 -0.21500
C 	C 	0.54262 0.88691 0.99490 0.14700
H 	H 	0.53510 0.88710 0.03430 -0.01500
C 	C 	0.55651 0.85789 0.97540 -0.26000
H 	H 	0.55570 0.83740 0.00230 0.13300
C 	C 	0.57056 0.85773 0.92210 0.20400
C 	C 	0.56775 0.88622 0.88000 -0.23800
H 	H 	0.57520 0.88600 0.84050 0.10600
C 	C 	0.55328 0.91485 0.90000 0.14800
H 	H 	0.55290 0.93470 0.87300 -0.00900
C 	C 	0.58917 0.82945 0.90370 -0.17200
C 	C 	0.62696 0.84749 0.86900 0.00500
H 	H 	0.64010 0.87700 0.85830 0.02600
H 	H 	0.43870 0.69700 0.97090 0.38700
H 	H 	0.46430 0.75450 0.87120 0.40400
O 	O 	0.19215 0.30545 0.26613 -0.42900
O 	O 	0.17763 0.27695 0.35603 -0.43800
C 	C 	0.19124 0.27963 0.30523 0.42100
C 	C 	0.20703 0.24869 0.28763 -0.21400
C 	C 	0.20929 0.22024 0.32823 0.14600
H 	H 	0.20177 0.22043 0.36763 -0.01400
C 	C 	0.22318 0.19122 0.30873 -0.26100
H 	H 	0.22237 0.17073 0.33563 0.13300
C 	C 	0.23723 0.19106 0.25543 0.20400
C 	C 	0.23442 0.21955 0.21333 -0.23800
H 	H 	0.24187 0.21933 0.17383 0.10600
C 	C 	0.21995 0.24818 0.23333 0.14800
H 	H 	0.21957 0.26803 0.20633 -0.00900
C 	C 	0.25584 0.16278 0.23703 -0.17200
C 	C 	0.29363 0.18082 0.20233 0.00500
H 	H 	0.30677 0.21033 0.19163 0.02600
H 	H 	0.10537 0.03033 0.30423 0.38700
H 	H 	0.13097 0.08783 0.20453 0.40400
O 	O 	0.85881 0.63879 0.59947 -0.42900
O 	O 	0.84429 0.61029 0.68937 -0.43800
C 	C 	0.85790 0.61297 0.63857 0.42100
C 	C 	0.87369 0.58203 0.62097 -0.21400
C 	C 	0.87595 0.55358 0.66157 0.14600
H 	H 	0.86843 0.55377 0.70097 -0.01400
C 	C 	0.88984 0.52456 0.64207 -0.26100
H 	H 	0.88903 0.50407 0.66897 0.13300
C 	C 	0.90389 0.52440 0.58877 0.20400
C 	C 	0.90108 0.55289 0.54667 -0.23800
H 	H 	0.90853 0.55267 0.50717 0.10600
C 	C 	0.88661 0.58152 0.56667 0.14800
H 	H 	0.88623 0.60137 0.53967 -0.00900
C 	C 	0.92250 0.49612 0.57037 -0.17300
C 	C 	0.96029 0.51416 0.53567 0.00500
H 	H 	0.97343 0.54367 0.52497 0.02600
H 	H 	0.77203 0.36367 0.63757 0.38700
H 	H 	0.79763 0.42117 0.53787 0.40400
O 	O 	0.44664 0.47452 0.93280 -0.42900
O 	O 	0.43266 0.48904 0.02270 -0.43800
C 	C 	0.42173 0.47543 0.97190 0.42100
C 	C 	0.37500 0.45964 0.95430 -0.21400
C 	C 	0.34429 0.45738 0.99490 0.14600
H 	H 	0.35200 0.46490 0.03430 -0.01400
C 	C 	0.30138 0.44349 0.97540 -0.26000
H 	H 	0.28170 0.44430 0.00230 0.13300
C 	C 	0.28717 0.42944 0.92210 0.20300
C 	C 	0.31847 0.43225 0.88000 -0.23800
H 	H 	0.31080 0.42480 0.84050 0.10600
C 	C 	0.36157 0.44672 0.90000 0.14800
H 	H 	0.38180 0.44710 0.87300 -0.00900
C 	C 	0.24028 0.41083 0.90370 -0.17200
C 	C 	0.22053 0.37304 0.86900 0.00500
H 	H 	0.23690 0.35990 0.85830 0.02600
H 	H 	0.25830 0.56130 0.97090 0.38700
H 	H 	0.29020 0.53570 0.87120 0.40400
O 	O 	0.11331 0.80785 0.26613 -0.42900
O 	O 	0.09933 0.82237 0.35603 -0.43800
C 	C 	0.08840 0.80876 0.30523 0.42100
C 	C 	0.04167 0.79297 0.28763 -0.21300
C 	C 	0.01096 0.79071 0.32823 0.14500
H 	H 	0.01867 0.79823 0.36763 -0.01400
C 	C 	0.96805 0.77682 0.30873 -0.26000
H 	H 	0.94837 0.77763 0.33563 0.13300
C 	C 	0.95384 0.76277 0.25543 0.20300
C 	C 	0.98514 0.76558 0.21333 -0.23700
H 	H 	0.97747 0.75813 0.17383 0.10500
C 	C 	0.02824 0.78005 0.23333 0.14700
H 	H 	0.04847 0.78043 0.20633 -0.00800
C 	C 	0.90695 0.74416 0.23703 -0.17200
C 	C 	0.88720 0.70637 0.20233 0.00500
H 	H 	0.90357 0.69323 0.19163 0.02600
H 	H 	0.92497 0.89463 0.30423 0.38700
H 	H 	0.95687 0.86903 0.20453 0.40400
O 	O 	0.77997 0.14119 0.59947 -0.42900
O 	O 	0.76599 0.15571 0.68937 -0.43800
C 	C 	0.75506 0.14210 0.63857 0.42100
C 	C 	0.70833 0.12631 0.62097 -0.21400
C 	C 	0.67762 0.12405 0.66157 0.14600
H 	H 	0.68533 0.13157 0.70097 -0.01400
C 	C 	0.63471 0.11016 0.64207 -0.26100
H 	H 	0.61503 0.11097 0.66897 0.13300
C 	C 	0.62050 0.09611 0.58877 0.20400
C 	C 	0.65180 0.09892 0.54667 -0.23800
H 	H 	0.64413 0.09147 0.50717 0.10600
C 	C 	0.69490 0.11339 0.56667 0.14800
H 	H 	0.71513 0.11377 0.53967 -0.00900
C 	C 	0.57361 0.07750 0.57037 -0.17200
C 	C 	0.55386 0.03971 0.53567 0.00500
H 	H 	0.57023 0.02657 0.52497 0.02600
H 	H 	0.59163 0.22797 0.63757 0.38700
H 	H 	0.62353 0.20237 0.53787 0.40400
O 	O 	0.44664 0.97212 0.93280 -0.42900
O 	O 	0.43266 0.94362 0.02270 -0.43900
C 	C 	0.42173 0.94630 0.97190 0.42200
C 	C 	0.37500 0.91536 0.95430 -0.21500
C 	C 	0.34429 0.88691 0.99490 0.14700
H 	H 	0.35200 0.88710 0.03430 -0.01500
C 	C 	0.30138 0.85789 0.97540 -0.26000
H 	H 	0.28170 0.83740 0.00230 0.13200
C 	C 	0.28717 0.85773 0.92210 0.20300
C 	C 	0.31847 0.88622 0.88000 -0.23800
H 	H 	0.31080 0.88600 0.84050 0.10600
C 	C 	0.36157 0.91485 0.90000 0.14800
H 	H 	0.38180 0.93470 0.87300 -0.00900
C 	C 	0.24028 0.82945 0.90370 -0.17200
C 	C 	0.22053 0.84749 0.86900 0.00500
H 	H 	0.23690 0.87700 0.85830 0.02600
H 	H 	0.25830 0.69700 0.97090 0.38600
H 	H 	0.29020 0.75450 0.87120 0.40400
O 	O 	0.11331 0.30545 0.26613 -0.42900
O 	O 	0.09933 0.27695 0.35603 -0.43800
C 	C 	0.08840 0.27963 0.30523 0.42000
C 	C 	0.04167 0.24869 0.28763 -0.21300
C 	C 	0.01096 0.22024 0.32823 0.14500
H 	H 	0.01867 0.22043 0.36763 -0.01400
C 	C 	0.96805 0.19122 0.30873 -0.25900
H 	H 	0.94837 0.17073 0.33563 0.13300
C 	C 	0.95384 0.19106 0.25543 0.20300
C 	C 	0.98514 0.21955 0.21333 -0.23700
H 	H 	0.97747 0.21933 0.17383 0.10500
C 	C 	0.02824 0.24818 0.23333 0.14600
H 	H 	0.04847 0.26803 0.20633 -0.00800
C 	C 	0.90695 0.16278 0.23703 -0.17200
C 	C 	0.88720 0.18082 0.20233 0.00500
H 	H 	0.90357 0.21033 0.19163 0.02600
H 	H 	0.92497 0.03033 0.30423 0.38700
H 	H 	0.95687 0.08783 0.20453 0.40500
O 	O 	0.77997 0.63879 0.59947 -0.42900
O 	O 	0.76599 0.61029 0.68937 -0.43800
C 	C 	0.75506 0.61297 0.63857 0.42100
C 	C 	0.70833 0.58203 0.62097 -0.21400
C 	C 	0.67762 0.55358 0.66157 0.14600
H 	H 	0.68533 0.55377 0.70097 -0.01400
C 	C 	0.63471 0.52456 0.64207 -0.26100
H 	H 	0.61503 0.50407 0.66897 0.13300
C 	C 	0.62050 0.52440 0.58877 0.20400
C 	C 	0.65180 0.55289 0.54667 -0.23800
H 	H 	0.64413 0.55267 0.50717 0.10600
C 	C 	0.69490 0.58152 0.56667 0.14800
H 	H 	0.71513 0.60137 0.53967 -0.00900
C 	C 	0.57361 0.49612 0.57037 -0.17300
C 	C 	0.55386 0.51416 0.53567 0.00500
H 	H 	0.57023 0.54367 0.52497 0.02600
H 	H 	0.59163 0.36367 0.63757 0.38700
H 	H 	0.62353 0.42117 0.53787 0.40400
O 	O 	0.02788 0.47452 0.93280 -0.42900
O 	O 	0.05638 0.48904 0.02270 -0.43900
C 	C 	0.05370 0.47543 0.97190 0.42200
C 	C 	0.08464 0.45964 0.95430 -0.21500
C 	C 	0.11309 0.45738 0.99490 0.14700
H 	H 	0.11290 0.46490 0.03430 -0.01500
C 	C 	0.14211 0.44349 0.97540 -0.26000
H 	H 	0.16260 0.44430 0.00230 0.13300
C 	C 	0.14227 0.42944 0.92210 0.20400
C 	C 	0.11378 0.43225 0.88000 -0.23800
H 	H 	0.11400 0.42480 0.84050 0.10600
C 	C 	0.08515 0.44672 0.90000 0.14800
H 	H 	0.06530 0.44710 0.87300 -0.00900
C 	C 	0.17055 0.41083 0.90370 -0.17200
C 	C 	0.15251 0.37304 0.86900 0.00500
H 	H 	0.12300 0.35990 0.85830 0.02600
H 	H 	0.30300 0.56130 0.97090 0.38700
H 	H 	0.24550 0.53570 0.87120 0.40400
O 	O 	0.69455 0.80785 0.26613 -0.42900
O 	O 	0.72305 0.82237 0.35603 -0.43800
C 	C 	0.72037 0.80876 0.30523 0.42100
C 	C 	0.75131 0.79297 0.28763 -0.21400
C 	C 	0.77976 0.79071 0.32823 0.14600
H 	H 	0.77957 0.79823 0.36763 -0.01400
C 	C 	0.80878 0.77682 0.30873 -0.26100
H 	H 	0.82927 0.77763 0.33563 0.13300
C 	C 	0.80894 0.76277 0.25543 0.20400
C 	C 	0.78045 0.76558 0.21333 -0.23800
H 	H 	0.78067 0.75813 0.17383 0.10600
C 	C 	0.75182 0.78005 0.23333 0.14800
H 	H 	0.73197 0.78043 0.20633 -0.00900
C 	C 	0.83722 0.74416 0.23703 -0.17200
C 	C 	0.81918 0.70637 0.20233 0.00500
H 	H 	0.78967 0.69323 0.19163 0.02600
H 	H 	0.96967 0.89463 0.30423 0.38700
H 	H 	0.91217 0.86903 0.20453 0.40400
O 	O 	0.36121 0.14119 0.59947 -0.42900
O 	O 	0.38971 0.15571 0.68937 -0.43800
C 	C 	0.38703 0.14210 0.63857 0.42100
C 	C 	0.41797 0.12631 0.62097 -0.21400
C 	C 	0.44642 0.12405 0.66157 0.14600
H 	H 	0.44623 0.13157 0.70097 -0.01400
C 	C 	0.47544 0.11016 0.64207 -0.26100
H 	H 	0.49593 0.11097 0.66897 0.13300
C 	C 	0.47560 0.09611 0.58877 0.20400
C 	C 	0.44711 0.09892 0.54667 -0.23800
H 	H 	0.44733 0.09147 0.50717 0.10600
C 	C 	0.41848 0.11339 0.56667 0.14800
H 	H 	0.39863 0.11377 0.53967 -0.00900
C 	C 	0.50388 0.07750 0.57037 -0.17300
C 	C 	0.48584 0.03971 0.53567 0.00500
H 	H 	0.45633 0.02657 0.52497 0.02600
H 	H 	0.63633 0.22797 0.63757 0.38700
H 	H 	0.57883 0.20237 0.53787 0.40400
O 	O 	0.52548 0.55336 0.93280 -0.42900
O 	O 	0.51096 0.56734 0.02270 -0.43800
C 	C 	0.52457 0.57827 0.97190 0.42100
C 	C 	0.54036 0.62500 0.95430 -0.21400
C 	C 	0.54262 0.65571 0.99490 0.14600
H 	H 	0.53510 0.64800 0.03430 -0.01400
C 	C 	0.55651 0.69862 0.97540 -0.26000
H 	H 	0.55570 0.71830 0.00230 0.13300
C 	C 	0.57056 0.71283 0.92210 0.20300
C 	C 	0.56775 0.68153 0.88000 -0.23800
H 	H 	0.57520 0.68920 0.84050 0.10600
C 	C 	0.55328 0.63843 0.90000 0.14800
H 	H 	0.55290 0.61820 0.87300 -0.00900
C 	C 	0.58917 0.75972 0.90370 -0.17200
C 	C 	0.62696 0.77947 0.86900 0.00500
H 	H 	0.64010 0.76310 0.85830 0.02600
H 	H 	0.43870 0.74170 0.97090 0.38700
H 	H 	0.46430 0.70980 0.87120 0.40400
O 	O 	0.19215 0.88669 0.26613 -0.42900
O 	O 	0.17763 0.90067 0.35603 -0.43800
C 	C 	0.19124 0.91160 0.30523 0.42100
C 	C 	0.20703 0.95833 0.28763 -0.21300
C 	C 	0.20929 0.98904 0.32823 0.14500
H 	H 	0.20177 0.98133 0.36763 -0.01400
C 	C 	0.22318 0.03195 0.30873 -0.26000
H 	H 	0.22237 0.05163 0.33563 0.13300
C 	C 	0.23723 0.04616 0.25543 0.20300
C 	C 	0.23442 0.01486 0.21333 -0.23700
H 	H 	0.24187 0.02253 0.17383 0.10500
C 	C 	0.21995 0.97176 0.23333 0.14700
H 	H 	0.21957 0.95153 0.20633 -0.00800
C 	C 	0.25584 0.09305 0.23703 -0.17200
C 	C 	0.29363 0.11280 0.20233 0.00500
H 	H 	0.30677 0.09643 0.19163 0.02600
H 	H 	0.10537 0.07503 0.30423 0.38700
H 	H 	0.13097 0.04313 0.20453 0.40400
O 	O 	0.85881 0.22003 0.59947 -0.42900
O 	O 	0.84429 0.23401 0.68937 -0.43800
C 	C 	0.85790 0.24494 0.63857 0.42100
C 	C 	0.87369 0.29167 0.62097 -0.21400
C 	C 	0.87595 0.32238 0.66157 0.14600
H 	H 	0.86843 0.31467 0.70097 -0.01400
C 	C 	0.88984 0.36529 0.64207 -0.26100
H 	H 	0.88903 0.38497 0.66897 0.13300
C 	C 	0.90389 0.37950 0.58877 0.20400
C 	C 	0.90108 0.34820 0.54667 -0.23800
H 	H 	0.90853 0.35587 0.50717 0.10600
C 	C 	0.88661 0.30510 0.56667 0.14800
H 	H 	0.88623 0.28487 0.53967 -0.00900
C 	C 	0.92250 0.42639 0.57037 -0.17200
C 	C 	0.96029 0.44614 0.53567 0.00500
H 	H 	0.97343 0.42977 0.52497 0.02600
H 	H 	0.77203 0.40837 0.63757 0.38700
H 	H 	0.79763 0.37647 0.53787 0.40400
O 	O 	0.97212 0.44664 0.06720 -0.42900
O 	O 	0.94362 0.43266 0.97730 -0.43900
C 	C 	0.94630 0.42173 0.02810 0.42200
C 	C 	0.91536 0.37500 0.04570 -0.21500
C 	C 	0.88691 0.34429 0.00510 0.14700
H 	H 	0.88710 0.35200 0.96570 -0.01500
C 	C 	0.85789 0.30138 0.02460 -0.26000
H 	H 	0.83740 0.28170 0.99770 0.13200
C 	C 	0.85773 0.28717 0.07790 0.20300
C 	C 	0.88622 0.31847 0.12000 -0.23800
H 	H 	0.88600 0.31080 0.15950 0.10600
C 	C 	0.91485 0.36157 0.10000 0.14800
H 	H 	0.93470 0.38180 0.12700 -0.00900
C 	C 	0.82945 0.24028 0.09630 -0.17200
C 	C 	0.84749 0.22053 0.13100 0.00500
H 	H 	0.87700 0.23690 0.14170 0.02600
H 	H 	0.69700 0.25830 0.02910 0.38600
H 	H 	0.75450 0.29020 0.12880 0.40400
O 	O 	0.63879 0.77997 0.40053 -0.42900
O 	O 	0.61029 0.76599 0.31063 -0.43800
C 	C 	0.61297 0.75506 0.36143 0.42100
C 	C 	0.58203 0.70833 0.37903 -0.21400
C 	C 	0.55358 0.67762 0.33843 0.14600
H 	H 	0.55377 0.68533 0.29903 -0.01400
C 	C 	0.52456 0.63471 0.35793 -0.26100
H 	H 	0.50407 0.61503 0.33103 0.13300
C 	C 	0.52440 0.62050 0.41123 0.20400
C 	C 	0.55289 0.65180 0.45333 -0.23800
H 	H 	0.55267 0.64413 0.49283 0.10600
C 	C 	0.58152 0.69490 0.43333 0.14800
H 	H 	0.60137 0.71513 0.46033 -0.00900
C 	C 	0.49612 0.57361 0.42963 -0.17300
C 	C 	0.51416 0.55386 0.46433 0.00500
H 	H 	0.54367 0.57023 0.47503 0.02600
H 	H 	0.36367 0.59163 0.36243 0.38700
H 	H 	0.42117 0.62353 0.46213 0.40400
O 	O 	0.30545 0.11331 0.73387 -0.42900
O 	O 	0.27695 0.09933 0.64397 -0.43800
C 	C 	0.27963 0.08840 0.69477 0.42000
C 	C 	0.24869 0.04167 0.71237 -0.21300
C 	C 	0.22024 0.01096 0.67177 0.14500
H 	H 	0.22043 0.01867 0.63237 -0.01400
C 	C 	0.19122 0.96805 0.69127 -0.25900
H 	H 	0.17073 0.94837 0.66437 0.13300
C 	C 	0.19106 0.95384 0.74457 0.20300
C 	C 	0.21955 0.98514 0.78667 -0.23700
H 	H 	0.21933 0.97747 0.82617 0.10500
C 	C 	0.24818 0.02824 0.76667 0.14600
H 	H 	0.26803 0.04847 0.79367 -0.00800
C 	C 	0.16278 0.90695 0.76297 -0.17200
C 	C 	0.18082 0.88720 0.79767 0.00500
H 	H 	0.21033 0.90357 0.80837 0.02600
H 	H 	0.03033 0.92497 0.69577 0.38700
H 	H 	0.08783 0.95687 0.79547 0.40500
O 	O 	0.47452 0.02788 0.06720 -0.42900
O 	O 	0.48904 0.05638 0.97730 -0.43900
C 	C 	0.47543 0.05370 0.02810 0.42200
C 	C 	0.45964 0.08464 0.04570 -0.21500
C 	C 	0.45738 0.11309 0.00510 0.14700
H 	H 	0.46490 0.11290 0.96570 -0.01500
C 	C 	0.44349 0.14211 0.02460 -0.26000
H 	H 	0.44430 0.16260 0.99770 0.13300
C 	C 	0.42944 0.14227 0.07790 0.20400
C 	C 	0.43225 0.11378 0.12000 -0.23800
H 	H 	0.42480 0.11400 0.15950 0.10600
C 	C 	0.44672 0.08515 0.10000 0.14800
H 	H 	0.44710 0.06530 0.12700 -0.00900
C 	C 	0.41083 0.17055 0.09630 -0.17200
C 	C 	0.37304 0.15251 0.13100 0.00500
H 	H 	0.35990 0.12300 0.14170 0.02600
H 	H 	0.56130 0.30300 0.02910 0.38700
H 	H 	0.53570 0.24550 0.12880 0.40400
O 	O 	0.14119 0.36121 0.40053 -0.42900
O 	O 	0.15571 0.38971 0.31063 -0.43800
C 	C 	0.14210 0.38703 0.36143 0.42100
C 	C 	0.12631 0.41797 0.37903 -0.21400
C 	C 	0.12405 0.44642 0.33843 0.14600
H 	H 	0.13157 0.44623 0.29903 -0.01400
C 	C 	0.11016 0.47544 0.35793 -0.26100
H 	H 	0.11097 0.49593 0.33103 0.13300
C 	C 	0.09611 0.47560 0.41123 0.20400
C 	C 	0.09892 0.44711 0.45333 -0.23800
H 	H 	0.09147 0.44733 0.49283 0.10600
C 	C 	0.11339 0.41848 0.43333 0.14800
H 	H 	0.11377 0.39863 0.46033 -0.00900
C 	C 	0.07750 0.50388 0.42963 -0.17300
C 	C 	0.03971 0.48584 0.46433 0.00500
H 	H 	0.02657 0.45633 0.47503 0.02600
H 	H 	0.22797 0.63633 0.36243 0.38700
H 	H 	0.20237 0.57883 0.46213 0.40400
O 	O 	0.80785 0.69455 0.73387 -0.42900
O 	O 	0.82237 0.72305 0.64397 -0.43800
C 	C 	0.80876 0.72037 0.69477 0.42100
C 	C 	0.79297 0.75131 0.71237 -0.21400
C 	C 	0.79071 0.77976 0.67177 0.14600
H 	H 	0.79823 0.77957 0.63237 -0.01400
C 	C 	0.77682 0.80878 0.69127 -0.26100
H 	H 	0.77763 0.82927 0.66437 0.13300
C 	C 	0.76277 0.80894 0.74457 0.20400
C 	C 	0.76558 0.78045 0.78667 -0.23800
H 	H 	0.75813 0.78067 0.82617 0.10600
C 	C 	0.78005 0.75182 0.76667 0.14800
H 	H 	0.78043 0.73197 0.79367 -0.00900
C 	C 	0.74416 0.83722 0.76297 -0.17200
C 	C 	0.70637 0.81918 0.79767 0.00500
H 	H 	0.69323 0.78967 0.80837 0.02600
H 	H 	0.89463 0.96967 0.69577 0.38700
H 	H 	0.86903 0.91217 0.79547 0.40400
O 	O 	0.55336 0.52548 0.06720 -0.42900
O 	O 	0.56734 0.51096 0.97730 -0.43800
C 	C 	0.57827 0.52457 0.02810 0.42100
C 	C 	0.62500 0.54036 0.04570 -0.21400
C 	C 	0.65571 0.54262 0.00510 0.14600
H 	H 	0.64800 0.53510 0.96570 -0.01400
C 	C 	0.69862 0.55651 0.02460 -0.26000
H 	H 	0.71830 0.55570 0.99770 0.13300
C 	C 	0.71283 0.57056 0.07790 0.20300
C 	C 	0.68153 0.56775 0.12000 -0.23800
H 	H 	0.68920 0.57520 0.15950 0.10600
C 	C 	0.63843 0.55328 0.10000 0.14800
H 	H 	0.61820 0.55290 0.12700 -0.00900
C 	C 	0.75972 0.58917 0.09630 -0.17200
C 	C 	0.77947 0.62696 0.13100 0.00500
H 	H 	0.76310 0.64010 0.14170 0.02600
H 	H 	0.74170 0.43870 0.02910 0.38700
H 	H 	0.70980 0.46430 0.12880 0.40400
O 	O 	0.22003 0.85881 0.40053 -0.42900
O 	O 	0.23401 0.84429 0.31063 -0.43800
C 	C 	0.24494 0.85790 0.36143 0.42100
C 	C 	0.29167 0.87369 0.37903 -0.21400
C 	C 	0.32238 0.87595 0.33843 0.14600
H 	H 	0.31467 0.86843 0.29903 -0.01400
C 	C 	0.36529 0.88984 0.35793 -0.26100
H 	H 	0.38497 0.88903 0.33103 0.13300
C 	C 	0.37950 0.90389 0.41123 0.20400
C 	C 	0.34820 0.90108 0.45333 -0.23800
H 	H 	0.35587 0.90853 0.49283 0.10600
C 	C 	0.30510 0.88661 0.43333 0.14800
H 	H 	0.28487 0.88623 0.46033 -0.00900
C 	C 	0.42639 0.92250 0.42963 -0.17200
C 	C 	0.44614 0.96029 0.46433 0.00500
H 	H 	0.42977 0.97343 0.47503 0.02600
H 	H 	0.40837 0.77203 0.36243 0.38700
H 	H 	0.37647 0.79763 0.46213 0.40400
O 	O 	0.88669 0.19215 0.73387 -0.42900
O 	O 	0.90067 0.17763 0.64397 -0.43800
C 	C 	0.91160 0.19124 0.69477 0.42100
C 	C 	0.95833 0.20703 0.71237 -0.21300
C 	C 	0.98904 0.20929 0.67177 0.14500
H 	H 	0.98133 0.20177 0.63237 -0.01400
C 	C 	0.03195 0.22318 0.69127 -0.26000
H 	H 	0.05163 0.22237 0.66437 0.13300
C 	C 	0.04616 0.23723 0.74457 0.20300
C 	C 	0.01486 0.23442 0.78667 -0.23700
H 	H 	0.02253 0.24187 0.82617 0.10500
C 	C 	0.97176 0.21995 0.76667 0.14700
H 	H 	0.95153 0.21957 0.79367 -0.00800
C 	C 	0.09305 0.25584 0.76297 -0.17200
C 	C 	0.11280 0.29363 0.79767 0.00500
H 	H 	0.09643 0.30677 0.80837 0.02600
H 	H 	0.07503 0.10537 0.69577 0.38700
H 	H 	0.04313 0.13097 0.79547 0.40400
Cu	Cu	0.50844 0.01689 0.94732 0.90500
Cu	Cu	0.17511 0.35022 0.28065 0.90500
Cu	Cu	0.84178 0.68356 0.61399 0.90500
Cu	Cu	0.98311 0.49156 0.94732 0.90500
Cu	Cu	0.64978 0.82489 0.28065 0.90500
Cu	Cu	0.31644 0.15822 0.61399 0.90500
Cu	Cu	0.50844 0.49156 0.94732 0.90500
Cu	Cu	0.17511 0.82489 0.28065 0.90500
Cu	Cu	0.84178 0.15822 0.61399 0.90500
Cu	Cu	0.01689 0.50844 0.05268 0.90500
Cu	Cu	0.68356 0.84178 0.38601 0.90500
Cu	Cu	0.35022 0.17511 0.71935 0.90500
Cu	Cu	0.49156 0.98311 0.05268 0.90500
Cu	Cu	0.15822 0.31644 0.38601 0.90500
Cu	Cu	0.82489 0.64978 0.71935 0.90500
Cu	Cu	0.49156 0.50845 0.05268 0.90500
Cu	Cu	0.15822 0.84178 0.38601 0.90500
Cu	Cu	0.82489 0.17511 0.71935 0.90500
O 	O 	0.76672 0.23328 0.04320 -0.62900
C 	C 	0.82285 0.17715 0.15040 -0.02700
C 	C 	0.78515 0.21485 0.08020 0.28500
C 	C 	0.72780 0.27220 0.02010 -1.30900
H 	H 	0.73160 0.26840 0.97880 0.40200
C 	C 	0.74090 0.25910 0.12210 -1.35800
H 	H 	0.75320 0.24680 0.14870 0.42100
C 	C 	0.74930 0.25070 0.05770 0.90100
O 	O 	0.43339 0.56661 0.37653 -0.63000
C 	C 	0.48952 0.51048 0.48373 -0.02700
C 	C 	0.45182 0.54818 0.41353 0.28500
C 	C 	0.39447 0.60553 0.35343 -1.31100
H 	H 	0.39827 0.60173 0.31213 0.40300
C 	C 	0.40757 0.59243 0.45543 -1.35900
H 	H 	0.41987 0.58013 0.48203 0.42200
C 	C 	0.41597 0.58403 0.39103 0.90200
O 	O 	0.10005 0.89995 0.70987 -0.63000
C 	C 	0.15618 0.84382 0.81707 -0.02600
C 	C 	0.11848 0.88152 0.74687 0.28500
C 	C 	0.06113 0.93887 0.68677 -1.31200
H 	H 	0.06493 0.93507 0.64547 0.40400
C 	C 	0.07423 0.92577 0.78877 -1.36000
H 	H 	0.08653 0.91347 0.81537 0.42200
C 	C 	0.08263 0.91737 0.72437 0.90200
O 	O 	0.76672 0.53344 0.04320 -0.62900
C 	C 	0.82285 0.64570 0.15040 -0.02700
C 	C 	0.78515 0.57030 0.08020 0.28500
C 	C 	0.72780 0.45560 0.02010 -1.31000
H 	H 	0.73160 0.46320 0.97880 0.40300
C 	C 	0.74090 0.48180 0.12210 -1.35800
H 	H 	0.75320 0.50640 0.14870 0.42100
C 	C 	0.74930 0.49860 0.05770 0.90100
O 	O 	0.43339 0.86677 0.37653 -0.63000
C 	C 	0.48952 0.97903 0.48373 -0.02700
C 	C 	0.45182 0.90363 0.41353 0.28500
C 	C 	0.39447 0.78893 0.35343 -1.31100
H 	H 	0.39827 0.79653 0.31213 0.40300
C 	C 	0.40757 0.81513 0.45543 -1.35900
H 	H 	0.41987 0.83973 0.48203 0.42200
C 	C 	0.41597 0.83193 0.39103 0.90200
O 	O 	0.10005 0.20011 0.70987 -0.63000
C 	C 	0.15618 0.31237 0.81707 -0.02700
C 	C 	0.11848 0.23697 0.74687 0.28500
C 	C 	0.06113 0.12227 0.68677 -1.31100
H 	H 	0.06493 0.12987 0.64547 0.40300
C 	C 	0.07423 0.14847 0.78877 -1.35900
H 	H 	0.08653 0.17307 0.81537 0.42200
C 	C 	0.08263 0.16527 0.72437 0.90200
O 	O 	0.46656 0.23328 0.04320 -0.62900
C 	C 	0.35430 0.17715 0.15040 -0.02700
C 	C 	0.42970 0.21485 0.08020 0.28500
C 	C 	0.54440 0.27220 0.02010 -1.31000
H 	H 	0.53680 0.26840 0.97880 0.40300
C 	C 	0.51820 0.25910 0.12210 -1.35800
H 	H 	0.49360 0.24680 0.14870 0.42100
C 	C 	0.50140 0.25070 0.05770 0.90100
O 	O 	0.13323 0.56661 0.37653 -0.63000
C 	C 	0.02097 0.51048 0.48373 -0.02700
C 	C 	0.09637 0.54818 0.41353 0.28500
C 	C 	0.21107 0.60553 0.35343 -1.31100
H 	H 	0.20347 0.60173 0.31213 0.40300
C 	C 	0.18487 0.59243 0.45543 -1.35900
H 	H 	0.16027 0.58013 0.48203 0.42200
C 	C 	0.16807 0.58403 0.39103 0.90200
O 	O 	0.79989 0.89995 0.70987 -0.63000
C 	C 	0.68763 0.84382 0.81707 -0.02700
C 	C 	0.76303 0.88152 0.74687 0.28500
C 	C 	0.87773 0.93887 0.68677 -1.31100
H 	H 	0.87013 0.93507 0.64547 0.40300
C 	C 	0.85153 0.92577 0.78877 -1.35900
H 	H 	0.82693 0.91347 0.81537 0.42200
C 	C 	0.83473 0.91737 0.72437 0.90200
O 	O 	0.23328 0.76672 0.95680 -0.62900
C 	C 	0.17715 0.82285 0.84960 -0.02700
C 	C 	0.21485 0.78515 0.91980 0.28500
C 	C 	0.27220 0.72780 0.97990 -1.30900
H 	H 	0.26840 0.73160 0.02120 0.40200
C 	C 	0.25910 0.74090 0.87790 -1.35800
H 	H 	0.24680 0.75320 0.85130 0.42100
C 	C 	0.25070 0.74930 0.94230 0.90100
O 	O 	0.89995 0.10005 0.29013 -0.63000
C 	C 	0.84382 0.15618 0.18293 -0.02600
C 	C 	0.88152 0.11848 0.25313 0.28500
C 	C 	0.93887 0.06113 0.31323 -1.31200
H 	H 	0.93507 0.06493 0.35453 0.40400
C 	C 	0.92577 0.07423 0.21123 -1.36000
H 	H 	0.91347 0.08653 0.18463 0.42200
C 	C 	0.91737 0.08263 0.27563 0.90200
O 	O 	0.56661 0.43339 0.62347 -0.63000
C 	C 	0.51048 0.48952 0.51627 -0.02700
C 	C 	0.54818 0.45182 0.58647 0.28500
C 	C 	0.60553 0.39447 0.64657 -1.31100
H 	H 	0.60173 0.39827 0.68787 0.40300
C 	C 	0.59243 0.40757 0.54457 -1.35900
H 	H 	0.58013 0.41987 0.51797 0.42200
C 	C 	0.58403 0.41597 0.60897 0.90200
O 	O 	0.53344 0.76672 0.95680 -0.62900
C 	C 	0.64570 0.82285 0.84960 -0.02700
C 	C 	0.57030 0.78515 0.91980 0.28500
C 	C 	0.45560 0.72780 0.97990 -1.31000
H 	H 	0.46320 0.73160 0.02120 0.40300
C 	C 	0.48180 0.74090 0.87790 -1.35800
H 	H 	0.50640 0.75320 0.85130 0.42100
C 	C 	0.49860 0.74930 0.94230 0.90100
O 	O 	0.20011 0.10005 0.29013 -0.63000
C 	C 	0.31237 0.15618 0.18293 -0.02700
C 	C 	0.23697 0.11848 0.25313 0.28500
C 	C 	0.12227 0.06113 0.31323 -1.31100
H 	H 	0.12987 0.06493 0.35453 0.40300
C 	C 	0.14847 0.07423 0.21123 -1.35900
H 	H 	0.17307 0.08653 0.18463 0.42200
C 	C 	0.16527 0.08263 0.27563 0.90200
O 	O 	0.86677 0.43339 0.62347 -0.63000
C 	C 	0.97903 0.48952 0.51627 -0.02700
C 	C 	0.90363 0.45182 0.58647 0.28500
C 	C 	0.78893 0.39447 0.64657 -1.31100
H 	H 	0.79653 0.39827 0.68787 0.40300
C 	C 	0.81513 0.40757 0.54457 -1.35900
H 	H 	0.83973 0.41987 0.51797 0.42200
C 	C 	0.83193 0.41597 0.60897 0.90200
O 	O 	0.23328 0.46656 0.95680 -0.62900
C 	C 	0.17715 0.35430 0.84960 -0.02700
C 	C 	0.21485 0.42970 0.91980 0.28500
C 	C 	0.27220 0.54440 0.97990 -1.31000
H 	H 	0.26840 0.53680 0.02120 0.40300
C 	C 	0.25910 0.51820 0.87790 -1.35800
H 	H 	0.24680 0.49360 0.85130 0.42100
C 	C 	0.25070 0.50140 0.94230 0.90100
O 	O 	0.89995 0.79989 0.29013 -0.63000
C 	C 	0.84382 0.68763 0.18293 -0.02700
C 	C 	0.88152 0.76303 0.25313 0.28500
C 	C 	0.93887 0.87773 0.31323 -1.31100
H 	H 	0.93507 0.87013 0.35453 0.40300
C 	C 	0.92577 0.85153 0.21123 -1.35900
H 	H 	0.91347 0.82693 0.18463 0.42200
C 	C 	0.91737 0.83473 0.27563 0.90200
O 	O 	0.56661 0.13323 0.62347 -0.63000
C 	C 	0.51048 0.02097 0.51627 -0.02700
C 	C 	0.54818 0.09637 0.58647 0.28500
C 	C 	0.60553 0.21107 0.64657 -1.31100
H 	H 	0.60173 0.20347 0.68787 0.40300
C 	C 	0.59243 0.18487 0.54457 -1.35900
H 	H 	0.58013 0.16027 0.51797 0.42200
C 	C 	0.58403 0.16807 0.60897 0.90200
