data_crystal

_cell_length_a 35.85200
_cell_length_b 35.85200
_cell_length_c 15.30100
_cell_angle_alpha 90.00000
_cell_angle_beta  90.00000
_cell_angle_gamma 120.00000

_symmetry_space_group_name_	'P 1'
_symmetry_space_group_name_H-M	'P 1'

loop_
_symmetry_equiv_pos_as_xyz
  x,y,z

loop_
_atom_site_label
_atom_site_type_symbol
_atom_site_fract_x
_atom_site_fract_y
_atom_site_fract_z
_atom_site_charge
O 	O 	0.22353 0.36933 0.41470 -0.40700
O 	O 	0.23119 0.38490 0.27120 -0.40700
C 	C 	0.24539 0.39093 0.34750 0.37300
C 	C 	0.29143 0.42192 0.36270 -0.15900
C 	C 	0.31860 0.44880 0.29580 0.10700
H 	H 	0.30730 0.44820 0.24070 0.01000
C 	C 	0.36150 0.47580 0.31170 -0.18800
H 	H 	0.37960 0.49190 0.26610 0.11300
C 	C 	0.37836 0.47939 0.39350 0.15100
C 	C 	0.35130 0.45530 0.45920 -0.19400
H 	H 	0.36230 0.45810 0.51540 0.10300
C 	C 	0.30860 0.42710 0.44500 0.11000
H 	H 	0.29100 0.41130 0.49140 0.01000
C 	C 	0.42581 0.50675 0.41270 -0.08600
C 	C 	0.44580 0.48815 0.45340 -0.03300
H 	H 	0.43010 0.45880 0.46550 0.04300
O 	O 	0.89020 0.70266 0.74803 -0.40600
O 	O 	0.89786 0.71823 0.60453 -0.40600
C 	C 	0.91206 0.72426 0.68083 0.37400
C 	C 	0.95810 0.75525 0.69603 -0.15800
C 	C 	0.98527 0.78213 0.62913 0.10600
H 	H 	0.97397 0.78153 0.57403 0.01000
C 	C 	0.02817 0.80913 0.64503 -0.18800
H 	H 	0.04627 0.82523 0.59943 0.11300
C 	C 	0.04503 0.81272 0.72683 0.15100
C 	C 	0.01797 0.78863 0.79253 -0.19300
H 	H 	0.02897 0.79143 0.84873 0.10300
C 	C 	0.97527 0.76043 0.77833 0.11000
H 	H 	0.95767 0.74463 0.82473 0.01000
C 	C 	0.09248 0.84008 0.74603 -0.08600
C 	C 	0.11247 0.82148 0.78673 -0.03400
H 	H 	0.09677 0.79213 0.79883 0.04400
O 	O 	0.55686 0.03600 0.08137 -0.40600
O 	O 	0.56452 0.05157 0.93787 -0.40700
C 	C 	0.57872 0.05760 0.01417 0.37500
C 	C 	0.62476 0.08859 0.02937 -0.15800
C 	C 	0.65193 0.11547 0.96247 0.10700
H 	H 	0.64063 0.11487 0.90737 0.01000
C 	C 	0.69483 0.14247 0.97837 -0.18800
H 	H 	0.71293 0.15857 0.93277 0.11300
C 	C 	0.71169 0.14606 0.06017 0.15100
C 	C 	0.68463 0.12197 0.12587 -0.19400
H 	H 	0.69563 0.12477 0.18207 0.10300
C 	C 	0.64193 0.09377 0.11167 0.11000
H 	H 	0.62433 0.07797 0.15807 0.01000
C 	C 	0.75914 0.17342 0.07937 -0.08600
C 	C 	0.77913 0.15482 0.12007 -0.03300
H 	H 	0.76343 0.12547 0.13217 0.04300
O 	O 	0.63067 0.85420 0.41470 -0.40600
O 	O 	0.61510 0.84629 0.27120 -0.40600
C 	C 	0.60907 0.85446 0.34750 0.37400
C 	C 	0.57808 0.86951 0.36270 -0.15800
C 	C 	0.55120 0.86980 0.29580 0.10700
H 	H 	0.55180 0.85910 0.24070 0.01000
C 	C 	0.52420 0.88570 0.31170 -0.18800
H 	H 	0.50810 0.88770 0.26610 0.11300
C 	C 	0.52061 0.89897 0.39350 0.15100
C 	C 	0.54470 0.89600 0.45920 -0.19400
H 	H 	0.54190 0.90420 0.51540 0.10300
C 	C 	0.57290 0.88150 0.44500 0.11000
H 	H 	0.58870 0.87970 0.49140 0.01000
C 	C 	0.49325 0.91906 0.41270 -0.08600
C 	C 	0.51185 0.95765 0.45340 -0.03300
H 	H 	0.54120 0.97130 0.46550 0.04300
O 	O 	0.29734 0.18753 0.74803 -0.40600
O 	O 	0.28177 0.17962 0.60453 -0.40600
C 	C 	0.27574 0.18779 0.68083 0.37400
C 	C 	0.24475 0.20284 0.69603 -0.15800
C 	C 	0.21787 0.20313 0.62913 0.10700
H 	H 	0.21847 0.19243 0.57403 0.01000
C 	C 	0.19087 0.21903 0.64503 -0.18800
H 	H 	0.17477 0.22103 0.59943 0.11300
C 	C 	0.18728 0.23230 0.72683 0.15100
C 	C 	0.21137 0.22933 0.79253 -0.19400
H 	H 	0.20857 0.23753 0.84873 0.10300
C 	C 	0.23957 0.21483 0.77833 0.11000
H 	H 	0.25537 0.21303 0.82473 0.01000
C 	C 	0.15992 0.25239 0.74603 -0.08600
C 	C 	0.17852 0.29098 0.78673 -0.03300
H 	H 	0.20787 0.30463 0.79883 0.04300
O 	O 	0.96400 0.52087 0.08137 -0.40600
O 	O 	0.94843 0.51296 0.93787 -0.40600
C 	C 	0.94240 0.52113 0.01417 0.37400
C 	C 	0.91141 0.53618 0.02937 -0.15800
C 	C 	0.88453 0.53647 0.96247 0.10700
H 	H 	0.88513 0.52577 0.90737 0.01000
C 	C 	0.85753 0.55237 0.97837 -0.18800
H 	H 	0.84143 0.55437 0.93277 0.11300
C 	C 	0.85394 0.56564 0.06017 0.15100
C 	C 	0.87803 0.56267 0.12587 -0.19400
H 	H 	0.87523 0.57087 0.18207 0.10300
C 	C 	0.90623 0.54817 0.11167 0.11000
H 	H 	0.92203 0.54637 0.15807 0.01000
C 	C 	0.82658 0.58573 0.07937 -0.08600
C 	C 	0.84518 0.62432 0.12007 -0.03300
H 	H 	0.87453 0.63797 0.13217 0.04300
O 	O 	0.14580 0.77647 0.41470 -0.40600
O 	O 	0.15371 0.76881 0.27120 -0.40600
C 	C 	0.14554 0.75461 0.34750 0.37400
C 	C 	0.13049 0.70857 0.36270 -0.15800
C 	C 	0.13020 0.68140 0.29580 0.10700
H 	H 	0.14090 0.69270 0.24070 0.01000
C 	C 	0.11430 0.63850 0.31170 -0.18800
H 	H 	0.11230 0.62040 0.26610 0.11300
C 	C 	0.10103 0.62164 0.39350 0.15100
C 	C 	0.10400 0.64870 0.45920 -0.19400
H 	H 	0.09580 0.63770 0.51540 0.10300
C 	C 	0.11850 0.69140 0.44500 0.11000
H 	H 	0.12030 0.70900 0.49140 0.01000
C 	C 	0.08094 0.57419 0.41270 -0.08600
C 	C 	0.04235 0.55420 0.45340 -0.03300
H 	H 	0.02870 0.56990 0.46550 0.04300
O 	O 	0.81247 0.10980 0.74803 -0.40600
O 	O 	0.82038 0.10214 0.60453 -0.40600
C 	C 	0.81221 0.08794 0.68083 0.37400
C 	C 	0.79716 0.04190 0.69603 -0.15800
C 	C 	0.79687 0.01473 0.62913 0.10700
H 	H 	0.80757 0.02603 0.57403 0.01000
C 	C 	0.78097 0.97183 0.64503 -0.18800
H 	H 	0.77897 0.95373 0.59943 0.11300
C 	C 	0.76770 0.95497 0.72683 0.15100
C 	C 	0.77067 0.98203 0.79253 -0.19300
H 	H 	0.76247 0.97103 0.84873 0.10300
C 	C 	0.78517 0.02473 0.77833 0.11000
H 	H 	0.78697 0.04233 0.82473 0.01000
C 	C 	0.74761 0.90752 0.74603 -0.08600
C 	C 	0.70902 0.88753 0.78673 -0.03300
H 	H 	0.69537 0.90323 0.79883 0.04300
O 	O 	0.47913 0.44314 0.08137 -0.40600
O 	O 	0.48704 0.43548 0.93787 -0.40600
C 	C 	0.47887 0.42128 0.01417 0.37400
C 	C 	0.46382 0.37524 0.02937 -0.15800
C 	C 	0.46353 0.34807 0.96247 0.10700
H 	H 	0.47423 0.35937 0.90737 0.01000
C 	C 	0.44763 0.30517 0.97837 -0.18800
H 	H 	0.44563 0.28707 0.93277 0.11300
C 	C 	0.43436 0.28831 0.06017 0.15100
C 	C 	0.43733 0.31537 0.12587 -0.19400
H 	H 	0.42913 0.30437 0.18207 0.10300
C 	C 	0.45183 0.35807 0.11167 0.11000
H 	H 	0.45363 0.37567 0.15807 0.01000
C 	C 	0.41427 0.24086 0.07937 -0.08600
C 	C 	0.37568 0.22087 0.12007 -0.03300
H 	H 	0.36203 0.23657 0.13217 0.04300
O 	O 	0.36933 0.22353 0.58530 -0.40600
O 	O 	0.38490 0.23119 0.72880 -0.40600
C 	C 	0.39093 0.24539 0.65250 0.37400
C 	C 	0.42192 0.29143 0.63730 -0.15800
C 	C 	0.44880 0.31860 0.70420 0.10700
H 	H 	0.44820 0.30730 0.75930 0.01000
C 	C 	0.47580 0.36150 0.68830 -0.18800
H 	H 	0.49190 0.37960 0.73390 0.11300
C 	C 	0.47939 0.37836 0.60650 0.15100
C 	C 	0.45530 0.35130 0.54080 -0.19400
H 	H 	0.45810 0.36230 0.48460 0.10300
C 	C 	0.42710 0.30860 0.55500 0.11000
H 	H 	0.41130 0.29100 0.50860 0.01000
C 	C 	0.50675 0.42581 0.58730 -0.08600
C 	C 	0.48815 0.44580 0.54660 -0.03300
H 	H 	0.45880 0.43010 0.53450 0.04300
O 	O 	0.03600 0.55686 0.91863 -0.40600
O 	O 	0.05157 0.56452 0.06213 -0.40700
C 	C 	0.05760 0.57872 0.98583 0.37500
C 	C 	0.08859 0.62476 0.97063 -0.15800
C 	C 	0.11547 0.65193 0.03753 0.10700
H 	H 	0.11487 0.64063 0.09263 0.01000
C 	C 	0.14247 0.69483 0.02163 -0.18800
H 	H 	0.15857 0.71293 0.06723 0.11300
C 	C 	0.14606 0.71169 0.93983 0.15100
C 	C 	0.12197 0.68463 0.87413 -0.19400
H 	H 	0.12477 0.69563 0.81793 0.10300
C 	C 	0.09377 0.64193 0.88833 0.11000
H 	H 	0.07797 0.62433 0.84193 0.01000
C 	C 	0.17342 0.75914 0.92063 -0.08600
C 	C 	0.15482 0.77913 0.87993 -0.03300
H 	H 	0.12547 0.76343 0.86783 0.04300
O 	O 	0.70266 0.89020 0.25197 -0.40600
O 	O 	0.71823 0.89786 0.39547 -0.40600
C 	C 	0.72426 0.91206 0.31917 0.37400
C 	C 	0.75525 0.95810 0.30397 -0.15800
C 	C 	0.78213 0.98527 0.37087 0.10600
H 	H 	0.78153 0.97397 0.42597 0.01000
C 	C 	0.80913 0.02817 0.35497 -0.18800
H 	H 	0.82523 0.04627 0.40057 0.11300
C 	C 	0.81272 0.04503 0.27317 0.15100
C 	C 	0.78863 0.01797 0.20747 -0.19300
H 	H 	0.79143 0.02897 0.15127 0.10300
C 	C 	0.76043 0.97527 0.22167 0.11000
H 	H 	0.74463 0.95767 0.17527 0.01000
C 	C 	0.84008 0.09248 0.25397 -0.08600
C 	C 	0.82148 0.11247 0.21327 -0.03400
H 	H 	0.79213 0.09677 0.20117 0.04400
O 	O 	0.85420 0.63067 0.58530 -0.40600
O 	O 	0.84629 0.61510 0.72880 -0.40600
C 	C 	0.85446 0.60907 0.65250 0.37400
C 	C 	0.86951 0.57808 0.63730 -0.15800
C 	C 	0.86980 0.55120 0.70420 0.10700
H 	H 	0.85910 0.55180 0.75930 0.01000
C 	C 	0.88570 0.52420 0.68830 -0.18800
H 	H 	0.88770 0.50810 0.73390 0.11300
C 	C 	0.89897 0.52061 0.60650 0.15100
C 	C 	0.89600 0.54470 0.54080 -0.19400
H 	H 	0.90420 0.54190 0.48460 0.10300
C 	C 	0.88150 0.57290 0.55500 0.11000
H 	H 	0.87970 0.58870 0.50860 0.01000
C 	C 	0.91906 0.49325 0.58730 -0.08600
C 	C 	0.95765 0.51185 0.54660 -0.03300
H 	H 	0.97130 0.54120 0.53450 0.04300
O 	O 	0.52087 0.96400 0.91863 -0.40600
O 	O 	0.51296 0.94843 0.06213 -0.40600
C 	C 	0.52113 0.94240 0.98583 0.37400
C 	C 	0.53618 0.91141 0.97063 -0.15800
C 	C 	0.53647 0.88453 0.03753 0.10700
H 	H 	0.52577 0.88513 0.09263 0.01000
C 	C 	0.55237 0.85753 0.02163 -0.18800
H 	H 	0.55437 0.84143 0.06723 0.11300
C 	C 	0.56564 0.85394 0.93983 0.15100
C 	C 	0.56267 0.87803 0.87413 -0.19400
H 	H 	0.57087 0.87523 0.81793 0.10300
C 	C 	0.54817 0.90623 0.88833 0.11000
H 	H 	0.54637 0.92203 0.84193 0.01000
C 	C 	0.58573 0.82658 0.92063 -0.08600
C 	C 	0.62432 0.84518 0.87993 -0.03300
H 	H 	0.63797 0.87453 0.86783 0.04300
O 	O 	0.18753 0.29734 0.25197 -0.40600
O 	O 	0.17962 0.28177 0.39547 -0.40600
C 	C 	0.18779 0.27574 0.31917 0.37400
C 	C 	0.20284 0.24475 0.30397 -0.15800
C 	C 	0.20313 0.21787 0.37087 0.10700
H 	H 	0.19243 0.21847 0.42597 0.01000
C 	C 	0.21903 0.19087 0.35497 -0.18800
H 	H 	0.22103 0.17477 0.40057 0.11300
C 	C 	0.23230 0.18728 0.27317 0.15100
C 	C 	0.22933 0.21137 0.20747 -0.19400
H 	H 	0.23753 0.20857 0.15127 0.10300
C 	C 	0.21483 0.23957 0.22167 0.11000
H 	H 	0.21303 0.25537 0.17527 0.01000
C 	C 	0.25239 0.15992 0.25397 -0.08600
C 	C 	0.29098 0.17852 0.21327 -0.03300
H 	H 	0.30463 0.20787 0.20117 0.04300
O 	O 	0.77647 0.14580 0.58530 -0.40600
O 	O 	0.76881 0.15371 0.72880 -0.40600
C 	C 	0.75461 0.14554 0.65250 0.37400
C 	C 	0.70857 0.13049 0.63730 -0.15800
C 	C 	0.68140 0.13020 0.70420 0.10700
H 	H 	0.69270 0.14090 0.75930 0.01000
C 	C 	0.63850 0.11430 0.68830 -0.18800
H 	H 	0.62040 0.11230 0.73390 0.11300
C 	C 	0.62164 0.10103 0.60650 0.15100
C 	C 	0.64870 0.10400 0.54080 -0.19400
H 	H 	0.63770 0.09580 0.48460 0.10300
C 	C 	0.69140 0.11850 0.55500 0.11000
H 	H 	0.70900 0.12030 0.50860 0.01000
C 	C 	0.57419 0.08094 0.58730 -0.08600
C 	C 	0.55420 0.04235 0.54660 -0.03300
H 	H 	0.56990 0.02870 0.53450 0.04300
O 	O 	0.44314 0.47913 0.91863 -0.40600
O 	O 	0.43548 0.48704 0.06213 -0.40600
C 	C 	0.42128 0.47887 0.98583 0.37400
C 	C 	0.37524 0.46382 0.97063 -0.15800
C 	C 	0.34807 0.46353 0.03753 0.10700
H 	H 	0.35937 0.47423 0.09263 0.01000
C 	C 	0.30517 0.44763 0.02163 -0.18800
H 	H 	0.28707 0.44563 0.06723 0.11300
C 	C 	0.28831 0.43436 0.93983 0.15100
C 	C 	0.31537 0.43733 0.87413 -0.19400
H 	H 	0.30437 0.42913 0.81793 0.10300
C 	C 	0.35807 0.45183 0.88833 0.11000
H 	H 	0.37567 0.45363 0.84193 0.01000
C 	C 	0.24086 0.41427 0.92063 -0.08600
C 	C 	0.22087 0.37568 0.87993 -0.03300
H 	H 	0.23657 0.36203 0.86783 0.04300
O 	O 	0.10980 0.81247 0.25197 -0.40600
O 	O 	0.10214 0.82038 0.39547 -0.40600
C 	C 	0.08794 0.81221 0.31917 0.37400
C 	C 	0.04190 0.79716 0.30397 -0.15800
C 	C 	0.01473 0.79687 0.37087 0.10700
H 	H 	0.02603 0.80757 0.42597 0.01000
C 	C 	0.97183 0.78097 0.35497 -0.18800
H 	H 	0.95373 0.77897 0.40057 0.11300
C 	C 	0.95497 0.76770 0.27317 0.15100
C 	C 	0.98203 0.77067 0.20747 -0.19300
H 	H 	0.97103 0.76247 0.15127 0.10300
C 	C 	0.02473 0.78517 0.22167 0.11000
H 	H 	0.04233 0.78697 0.17527 0.01000
C 	C 	0.90752 0.74761 0.25397 -0.08600
C 	C 	0.88753 0.70902 0.21327 -0.03300
H 	H 	0.90323 0.69537 0.20117 0.04300
O 	O 	0.77647 0.63067 0.58530 -0.40600
O 	O 	0.76881 0.61510 0.72880 -0.40600
C 	C 	0.75461 0.60907 0.65250 0.37400
C 	C 	0.70857 0.57808 0.63730 -0.15800
C 	C 	0.68140 0.55120 0.70420 0.10700
H 	H 	0.69270 0.55180 0.75930 0.01000
C 	C 	0.63850 0.52420 0.68830 -0.18800
H 	H 	0.62040 0.50810 0.73390 0.11300
C 	C 	0.62164 0.52061 0.60650 0.15100
C 	C 	0.64870 0.54470 0.54080 -0.19400
H 	H 	0.63770 0.54190 0.48460 0.10300
C 	C 	0.69140 0.57290 0.55500 0.11000
H 	H 	0.70900 0.58870 0.50860 0.01000
C 	C 	0.57419 0.49325 0.58730 -0.08600
C 	C 	0.55420 0.51185 0.54660 -0.03300
H 	H 	0.56990 0.54120 0.53450 0.04300
O 	O 	0.44314 0.96400 0.91863 -0.40600
O 	O 	0.43548 0.94843 0.06213 -0.40700
C 	C 	0.42128 0.94240 0.98583 0.37500
C 	C 	0.37524 0.91141 0.97063 -0.15800
C 	C 	0.34807 0.88453 0.03753 0.10700
H 	H 	0.35937 0.88513 0.09263 0.01000
C 	C 	0.30517 0.85753 0.02163 -0.18800
H 	H 	0.28707 0.84143 0.06723 0.11300
C 	C 	0.28831 0.85394 0.93983 0.15100
C 	C 	0.31537 0.87803 0.87413 -0.19400
H 	H 	0.30437 0.87523 0.81793 0.10300
C 	C 	0.35807 0.90623 0.88833 0.11000
H 	H 	0.37567 0.92203 0.84193 0.01000
C 	C 	0.24086 0.82658 0.92063 -0.08600
C 	C 	0.22087 0.84518 0.87993 -0.03300
H 	H 	0.23657 0.87453 0.86783 0.04300
O 	O 	0.10980 0.29734 0.25197 -0.40600
O 	O 	0.10214 0.28177 0.39547 -0.40600
C 	C 	0.08794 0.27574 0.31917 0.37400
C 	C 	0.04190 0.24475 0.30397 -0.15800
C 	C 	0.01473 0.21787 0.37087 0.10600
H 	H 	0.02603 0.21847 0.42597 0.01000
C 	C 	0.97183 0.19087 0.35497 -0.18800
H 	H 	0.95373 0.17477 0.40057 0.11300
C 	C 	0.95497 0.18728 0.27317 0.15100
C 	C 	0.98203 0.21137 0.20747 -0.19300
H 	H 	0.97103 0.20857 0.15127 0.10300
C 	C 	0.02473 0.23957 0.22167 0.11000
H 	H 	0.04233 0.25537 0.17527 0.01000
C 	C 	0.90752 0.15992 0.25397 -0.08600
C 	C 	0.88753 0.17852 0.21327 -0.03400
H 	H 	0.90323 0.20787 0.20117 0.04400
O 	O 	0.36933 0.14580 0.58530 -0.40600
O 	O 	0.38490 0.15371 0.72880 -0.40600
C 	C 	0.39093 0.14554 0.65250 0.37400
C 	C 	0.42192 0.13049 0.63730 -0.15800
C 	C 	0.44880 0.13020 0.70420 0.10700
H 	H 	0.44820 0.14090 0.75930 0.01000
C 	C 	0.47580 0.11430 0.68830 -0.18800
H 	H 	0.49190 0.11230 0.73390 0.11300
C 	C 	0.47939 0.10103 0.60650 0.15100
C 	C 	0.45530 0.10400 0.54080 -0.19400
H 	H 	0.45810 0.09580 0.48460 0.10300
C 	C 	0.42710 0.11850 0.55500 0.11000
H 	H 	0.41130 0.12030 0.50860 0.01000
C 	C 	0.50675 0.08094 0.58730 -0.08600
C 	C 	0.48815 0.04235 0.54660 -0.03300
H 	H 	0.45880 0.02870 0.53450 0.04300
O 	O 	0.03600 0.47913 0.91863 -0.40600
O 	O 	0.05157 0.48704 0.06213 -0.40600
C 	C 	0.05760 0.47887 0.98583 0.37400
C 	C 	0.08859 0.46382 0.97063 -0.15800
C 	C 	0.11547 0.46353 0.03753 0.10700
H 	H 	0.11487 0.47423 0.09263 0.01000
C 	C 	0.14247 0.44763 0.02163 -0.18800
H 	H 	0.15857 0.44563 0.06723 0.11300
C 	C 	0.14606 0.43436 0.93983 0.15100
C 	C 	0.12197 0.43733 0.87413 -0.19400
H 	H 	0.12477 0.42913 0.81793 0.10300
C 	C 	0.09377 0.45183 0.88833 0.11000
H 	H 	0.07797 0.45363 0.84193 0.01000
C 	C 	0.17342 0.41427 0.92063 -0.08600
C 	C 	0.15482 0.37568 0.87993 -0.03300
H 	H 	0.12547 0.36203 0.86783 0.04300
O 	O 	0.70266 0.81247 0.25197 -0.40600
O 	O 	0.71823 0.82038 0.39547 -0.40600
C 	C 	0.72426 0.81221 0.31917 0.37400
C 	C 	0.75525 0.79716 0.30397 -0.15800
C 	C 	0.78213 0.79687 0.37087 0.10700
H 	H 	0.78153 0.80757 0.42597 0.01000
C 	C 	0.80913 0.78097 0.35497 -0.18800
H 	H 	0.82523 0.77897 0.40057 0.11300
C 	C 	0.81272 0.76770 0.27317 0.15100
C 	C 	0.78863 0.77067 0.20747 -0.19400
H 	H 	0.79143 0.76247 0.15127 0.10300
C 	C 	0.76043 0.78517 0.22167 0.11000
H 	H 	0.74463 0.78697 0.17527 0.01000
C 	C 	0.84008 0.74761 0.25397 -0.08600
C 	C 	0.82148 0.70902 0.21327 -0.03300
H 	H 	0.79213 0.69537 0.20117 0.04300
O 	O 	0.85420 0.22353 0.58530 -0.40600
O 	O 	0.84629 0.23119 0.72880 -0.40600
C 	C 	0.85446 0.24539 0.65250 0.37400
C 	C 	0.86951 0.29143 0.63730 -0.15800
C 	C 	0.86980 0.31860 0.70420 0.10700
H 	H 	0.85910 0.30730 0.75930 0.01000
C 	C 	0.88570 0.36150 0.68830 -0.18800
H 	H 	0.88770 0.37960 0.73390 0.11300
C 	C 	0.89897 0.37836 0.60650 0.15100
C 	C 	0.89600 0.35130 0.54080 -0.19400
H 	H 	0.90420 0.36230 0.48460 0.10300
C 	C 	0.88150 0.30860 0.55500 0.11000
H 	H 	0.87970 0.29100 0.50860 0.01000
C 	C 	0.91906 0.42581 0.58730 -0.08600
C 	C 	0.95765 0.44580 0.54660 -0.03300
H 	H 	0.97130 0.43010 0.53450 0.04300
O 	O 	0.52087 0.55686 0.91863 -0.40600
O 	O 	0.51296 0.56452 0.06213 -0.40600
C 	C 	0.52113 0.57872 0.98583 0.37400
C 	C 	0.53618 0.62476 0.97063 -0.15800
C 	C 	0.53647 0.65193 0.03753 0.10700
H 	H 	0.52577 0.64063 0.09263 0.01000
C 	C 	0.55237 0.69483 0.02163 -0.18800
H 	H 	0.55437 0.71293 0.06723 0.11300
C 	C 	0.56564 0.71169 0.93983 0.15100
C 	C 	0.56267 0.68463 0.87413 -0.19400
H 	H 	0.57087 0.69563 0.81793 0.10300
C 	C 	0.54817 0.64193 0.88833 0.11000
H 	H 	0.54637 0.62433 0.84193 0.01000
C 	C 	0.58573 0.75914 0.92063 -0.08600
C 	C 	0.62432 0.77913 0.87993 -0.03300
H 	H 	0.63797 0.76343 0.86783 0.04300
O 	O 	0.18753 0.89020 0.25197 -0.40600
O 	O 	0.17962 0.89786 0.39547 -0.40600
C 	C 	0.18779 0.91206 0.31917 0.37400
C 	C 	0.20284 0.95810 0.30397 -0.15800
C 	C 	0.20313 0.98527 0.37087 0.10700
H 	H 	0.19243 0.97397 0.42597 0.01000
C 	C 	0.21903 0.02817 0.35497 -0.18800
H 	H 	0.22103 0.04627 0.40057 0.11300
C 	C 	0.23230 0.04503 0.27317 0.15100
C 	C 	0.22933 0.01797 0.20747 -0.19300
H 	H 	0.23753 0.02897 0.15127 0.10300
C 	C 	0.21483 0.97527 0.22167 0.11000
H 	H 	0.21303 0.95767 0.17527 0.01000
C 	C 	0.25239 0.09248 0.25397 -0.08600
C 	C 	0.29098 0.11247 0.21327 -0.03300
H 	H 	0.30463 0.09677 0.20117 0.04300
O 	O 	0.63067 0.77647 0.41470 -0.40600
O 	O 	0.61510 0.76881 0.27120 -0.40600
C 	C 	0.60907 0.75461 0.34750 0.37400
C 	C 	0.57808 0.70857 0.36270 -0.15800
C 	C 	0.55120 0.68140 0.29580 0.10700
H 	H 	0.55180 0.69270 0.24070 0.01000
C 	C 	0.52420 0.63850 0.31170 -0.18800
H 	H 	0.50810 0.62040 0.26610 0.11300
C 	C 	0.52061 0.62164 0.39350 0.15100
C 	C 	0.54470 0.64870 0.45920 -0.19400
H 	H 	0.54190 0.63770 0.51540 0.10300
C 	C 	0.57290 0.69140 0.44500 0.11000
H 	H 	0.58870 0.70900 0.49140 0.01000
C 	C 	0.49325 0.57419 0.41270 -0.08600
C 	C 	0.51185 0.55420 0.45340 -0.03300
H 	H 	0.54120 0.56990 0.46550 0.04300
O 	O 	0.29734 0.10980 0.74803 -0.40600
O 	O 	0.28177 0.10214 0.60453 -0.40600
C 	C 	0.27574 0.08794 0.68083 0.37400
C 	C 	0.24475 0.04190 0.69603 -0.15800
C 	C 	0.21787 0.01473 0.62913 0.10600
H 	H 	0.21847 0.02603 0.57403 0.01000
C 	C 	0.19087 0.97183 0.64503 -0.18800
H 	H 	0.17477 0.95373 0.59943 0.11300
C 	C 	0.18728 0.95497 0.72683 0.15100
C 	C 	0.21137 0.98203 0.79253 -0.19300
H 	H 	0.20857 0.97103 0.84873 0.10300
C 	C 	0.23957 0.02473 0.77833 0.11000
H 	H 	0.25537 0.04233 0.82473 0.01000
C 	C 	0.15992 0.90752 0.74603 -0.08600
C 	C 	0.17852 0.88753 0.78673 -0.03400
H 	H 	0.20787 0.90323 0.79883 0.04400
O 	O 	0.96400 0.44314 0.08137 -0.40600
O 	O 	0.94843 0.43548 0.93787 -0.40700
C 	C 	0.94240 0.42128 0.01417 0.37500
C 	C 	0.91141 0.37524 0.02937 -0.15800
C 	C 	0.88453 0.34807 0.96247 0.10700
H 	H 	0.88513 0.35937 0.90737 0.01000
C 	C 	0.85753 0.30517 0.97837 -0.18800
H 	H 	0.84143 0.28707 0.93277 0.11300
C 	C 	0.85394 0.28831 0.06017 0.15100
C 	C 	0.87803 0.31537 0.12587 -0.19400
H 	H 	0.87523 0.30437 0.18207 0.10300
C 	C 	0.90623 0.35807 0.11167 0.11000
H 	H 	0.92203 0.37567 0.15807 0.01000
C 	C 	0.82658 0.24086 0.07937 -0.08600
C 	C 	0.84518 0.22087 0.12007 -0.03300
H 	H 	0.87453 0.23657 0.13217 0.04300
O 	O 	0.14580 0.36933 0.41470 -0.40600
O 	O 	0.15371 0.38490 0.27120 -0.40600
C 	C 	0.14554 0.39093 0.34750 0.37400
C 	C 	0.13049 0.42192 0.36270 -0.15800
C 	C 	0.13020 0.44880 0.29580 0.10700
H 	H 	0.14090 0.44820 0.24070 0.01000
C 	C 	0.11430 0.47580 0.31170 -0.18800
H 	H 	0.11230 0.49190 0.26610 0.11300
C 	C 	0.10103 0.47939 0.39350 0.15100
C 	C 	0.10400 0.45530 0.45920 -0.19400
H 	H 	0.09580 0.45810 0.51540 0.10300
C 	C 	0.11850 0.42710 0.44500 0.11000
H 	H 	0.12030 0.41130 0.49140 0.01000
C 	C 	0.08094 0.50675 0.41270 -0.08600
C 	C 	0.04235 0.48815 0.45340 -0.03300
H 	H 	0.02870 0.45880 0.46550 0.04300
O 	O 	0.81247 0.70266 0.74803 -0.40600
O 	O 	0.82038 0.71823 0.60453 -0.40600
C 	C 	0.81221 0.72426 0.68083 0.37400
C 	C 	0.79716 0.75525 0.69603 -0.15800
C 	C 	0.79687 0.78213 0.62913 0.10700
H 	H 	0.80757 0.78153 0.57403 0.01000
C 	C 	0.78097 0.80913 0.64503 -0.18800
H 	H 	0.77897 0.82523 0.59943 0.11300
C 	C 	0.76770 0.81272 0.72683 0.15100
C 	C 	0.77067 0.78863 0.79253 -0.19400
H 	H 	0.76247 0.79143 0.84873 0.10300
C 	C 	0.78517 0.76043 0.77833 0.11000
H 	H 	0.78697 0.74463 0.82473 0.01000
C 	C 	0.74761 0.84008 0.74603 -0.08600
C 	C 	0.70902 0.82148 0.78673 -0.03300
H 	H 	0.69537 0.79213 0.79883 0.04300
O 	O 	0.47913 0.03600 0.08137 -0.40600
O 	O 	0.48704 0.05157 0.93787 -0.40600
C 	C 	0.47887 0.05760 0.01417 0.37400
C 	C 	0.46382 0.08859 0.02937 -0.15800
C 	C 	0.46353 0.11547 0.96247 0.10700
H 	H 	0.47423 0.11487 0.90737 0.01000
C 	C 	0.44763 0.14247 0.97837 -0.18800
H 	H 	0.44563 0.15857 0.93277 0.11300
C 	C 	0.43436 0.14606 0.06017 0.15100
C 	C 	0.43733 0.12197 0.12587 -0.19400
H 	H 	0.42913 0.12477 0.18207 0.10300
C 	C 	0.45183 0.09377 0.11167 0.11000
H 	H 	0.45363 0.07797 0.15807 0.01000
C 	C 	0.41427 0.17342 0.07937 -0.08600
C 	C 	0.37568 0.15482 0.12007 -0.03300
H 	H 	0.36203 0.12547 0.13217 0.04300
O 	O 	0.22353 0.85420 0.41470 -0.40600
O 	O 	0.23119 0.84629 0.27120 -0.40600
C 	C 	0.24539 0.85446 0.34750 0.37400
C 	C 	0.29143 0.86951 0.36270 -0.15800
C 	C 	0.31860 0.86980 0.29580 0.10700
H 	H 	0.30730 0.85910 0.24070 0.01000
C 	C 	0.36150 0.88570 0.31170 -0.18800
H 	H 	0.37960 0.88770 0.26610 0.11300
C 	C 	0.37836 0.89897 0.39350 0.15100
C 	C 	0.35130 0.89600 0.45920 -0.19400
H 	H 	0.36230 0.90420 0.51540 0.10300
C 	C 	0.30860 0.88150 0.44500 0.11000
H 	H 	0.29100 0.87970 0.49140 0.01000
C 	C 	0.42581 0.91906 0.41270 -0.08600
C 	C 	0.44580 0.95765 0.45340 -0.03300
H 	H 	0.43010 0.97130 0.46550 0.04300
O 	O 	0.89020 0.18753 0.74803 -0.40600
O 	O 	0.89786 0.17962 0.60453 -0.40600
C 	C 	0.91206 0.18779 0.68083 0.37400
C 	C 	0.95810 0.20284 0.69603 -0.15800
C 	C 	0.98527 0.20313 0.62913 0.10700
H 	H 	0.97397 0.19243 0.57403 0.01000
C 	C 	0.02817 0.21903 0.64503 -0.18800
H 	H 	0.04627 0.22103 0.59943 0.11300
C 	C 	0.04503 0.23230 0.72683 0.15100
C 	C 	0.01797 0.22933 0.79253 -0.19300
H 	H 	0.02897 0.23753 0.84873 0.10300
C 	C 	0.97527 0.21483 0.77833 0.11000
H 	H 	0.95767 0.21303 0.82473 0.01000
C 	C 	0.09248 0.25239 0.74603 -0.08600
C 	C 	0.11247 0.29098 0.78673 -0.03300
H 	H 	0.09677 0.30463 0.79883 0.04300
O 	O 	0.55686 0.52087 0.08137 -0.40600
O 	O 	0.56452 0.51296 0.93787 -0.40600
C 	C 	0.57872 0.52113 0.01417 0.37400
C 	C 	0.62476 0.53618 0.02937 -0.15800
C 	C 	0.65193 0.53647 0.96247 0.10700
H 	H 	0.64063 0.52577 0.90737 0.01000
C 	C 	0.69483 0.55237 0.97837 -0.18800
H 	H 	0.71293 0.55437 0.93277 0.11300
C 	C 	0.71169 0.56564 0.06017 0.15100
C 	C 	0.68463 0.56267 0.12587 -0.19400
H 	H 	0.69563 0.57087 0.18207 0.10300
C 	C 	0.64193 0.54817 0.11167 0.11000
H 	H 	0.62433 0.54637 0.15807 0.01000
C 	C 	0.75914 0.58573 0.07937 -0.08600
C 	C 	0.77913 0.62432 0.12007 -0.03300
H 	H 	0.76343 0.63797 0.13217 0.04300
Cu	Cu	0.16237 0.32474 0.41775 0.90500
Cu	Cu	0.82904 0.65807 0.75108 0.90500
Cu	Cu	0.49570 0.99141 0.08442 0.90500
Cu	Cu	0.67526 0.83763 0.41775 0.90500
Cu	Cu	0.34193 0.17096 0.75108 0.90500
Cu	Cu	0.00859 0.50430 0.08442 0.90500
Cu	Cu	0.16237 0.83763 0.41775 0.90500
Cu	Cu	0.82904 0.17096 0.75108 0.90500
Cu	Cu	0.49570 0.50430 0.08442 0.90500
Cu	Cu	0.32474 0.16237 0.58225 0.90500
Cu	Cu	0.99141 0.49570 0.91558 0.90500
Cu	Cu	0.65807 0.82904 0.24892 0.90500
Cu	Cu	0.83763 0.67526 0.58225 0.90500
Cu	Cu	0.50430 0.00859 0.91558 0.90500
Cu	Cu	0.17096 0.34193 0.24892 0.90500
Cu	Cu	0.83763 0.16237 0.58225 0.90500
Cu	Cu	0.50430 0.49570 0.91558 0.90500
Cu	Cu	0.17096 0.82904 0.24892 0.90500
O 	O 	0.43005 0.56995 0.34770 -0.22900
C 	C 	0.48900 0.51100 0.47800 0.00100
C 	C 	0.45016 0.54984 0.38900 0.15200
C 	C 	0.40940 0.59060 0.38390 0.11600
C 	C 	0.39080 0.60920 0.32200 -0.01600
C 	C 	0.40480 0.59520 0.47740 -0.02900
O 	O 	0.09672 0.90328 0.68103 -0.22900
C 	C 	0.15567 0.84433 0.81133 0.00100
C 	C 	0.11683 0.88317 0.72233 0.15200
C 	C 	0.07607 0.92393 0.71723 0.11600
C 	C 	0.05747 0.94253 0.65533 -0.01600
C 	C 	0.07147 0.92853 0.81073 -0.02900
O 	O 	0.76338 0.23662 0.01437 -0.22900
C 	C 	0.82233 0.17767 0.14467 0.00100
C 	C 	0.78349 0.21651 0.05567 0.15200
C 	C 	0.74273 0.25727 0.05057 0.11600
C 	C 	0.72413 0.27587 0.98867 -0.01600
C 	C 	0.73813 0.26187 0.14407 -0.02900
O 	O 	0.43005 0.86010 0.34770 -0.22900
C 	C 	0.48900 0.97800 0.47800 0.00100
C 	C 	0.45016 0.90032 0.38900 0.15200
C 	C 	0.40940 0.81880 0.38390 0.11600
C 	C 	0.39080 0.78160 0.32200 -0.01600
C 	C 	0.40480 0.80960 0.47740 -0.02900
O 	O 	0.09672 0.19343 0.68103 -0.22900
C 	C 	0.15567 0.31133 0.81133 0.00100
C 	C 	0.11683 0.23365 0.72233 0.15200
C 	C 	0.07607 0.15213 0.71723 0.11600
C 	C 	0.05747 0.11493 0.65533 -0.01600
C 	C 	0.07147 0.14293 0.81073 -0.02900
O 	O 	0.76338 0.52677 0.01437 -0.22900
C 	C 	0.82233 0.64467 0.14467 0.00100
C 	C 	0.78349 0.56699 0.05567 0.15200
C 	C 	0.74273 0.48547 0.05057 0.11600
C 	C 	0.72413 0.44827 0.98867 -0.01600
C 	C 	0.73813 0.47627 0.14407 -0.02900
O 	O 	0.13990 0.56995 0.34770 -0.22900
C 	C 	0.02200 0.51100 0.47800 0.00100
C 	C 	0.09968 0.54984 0.38900 0.15200
C 	C 	0.18120 0.59060 0.38390 0.11600
C 	C 	0.21840 0.60920 0.32200 -0.01600
C 	C 	0.19040 0.59520 0.47740 -0.02900
O 	O 	0.80657 0.90328 0.68103 -0.22900
C 	C 	0.68867 0.84433 0.81133 0.00100
C 	C 	0.76635 0.88317 0.72233 0.15200
C 	C 	0.84787 0.92393 0.71723 0.11600
C 	C 	0.88507 0.94253 0.65533 -0.01600
C 	C 	0.85707 0.92853 0.81073 -0.02900
O 	O 	0.47323 0.23662 0.01437 -0.22900
C 	C 	0.35533 0.17767 0.14467 0.00100
C 	C 	0.43301 0.21651 0.05567 0.15200
C 	C 	0.51453 0.25727 0.05057 0.11600
C 	C 	0.55173 0.27587 0.98867 -0.01600
C 	C 	0.52373 0.26187 0.14407 -0.02900
O 	O 	0.56995 0.43005 0.65230 -0.22900
C 	C 	0.51100 0.48900 0.52200 0.00100
C 	C 	0.54984 0.45016 0.61100 0.15200
C 	C 	0.59060 0.40940 0.61610 0.11600
C 	C 	0.60920 0.39080 0.67800 -0.01600
C 	C 	0.59520 0.40480 0.52260 -0.02900
O 	O 	0.23662 0.76338 0.98563 -0.22900
C 	C 	0.17767 0.82233 0.85533 0.00100
C 	C 	0.21651 0.78349 0.94433 0.15200
C 	C 	0.25727 0.74273 0.94943 0.11600
C 	C 	0.27587 0.72413 0.01133 -0.01600
C 	C 	0.26187 0.73813 0.85593 -0.02900
O 	O 	0.90328 0.09672 0.31897 -0.22900
C 	C 	0.84433 0.15567 0.18867 0.00100
C 	C 	0.88317 0.11683 0.27767 0.15200
C 	C 	0.92393 0.07607 0.28277 0.11600
C 	C 	0.94253 0.05747 0.34467 -0.01600
C 	C 	0.92853 0.07147 0.18927 -0.02900
O 	O 	0.86010 0.43005 0.65230 -0.22900
C 	C 	0.97800 0.48900 0.52200 0.00100
C 	C 	0.90032 0.45016 0.61100 0.15200
C 	C 	0.81880 0.40940 0.61610 0.11600
C 	C 	0.78160 0.39080 0.67800 -0.01600
C 	C 	0.80960 0.40480 0.52260 -0.02900
O 	O 	0.52677 0.76338 0.98563 -0.22900
C 	C 	0.64467 0.82233 0.85533 0.00100
C 	C 	0.56699 0.78349 0.94433 0.15200
C 	C 	0.48547 0.74273 0.94943 0.11600
C 	C 	0.44827 0.72413 0.01133 -0.01600
C 	C 	0.47627 0.73813 0.85593 -0.02900
O 	O 	0.19343 0.09672 0.31897 -0.22900
C 	C 	0.31133 0.15567 0.18867 0.00100
C 	C 	0.23365 0.11683 0.27767 0.15200
C 	C 	0.15213 0.07607 0.28277 0.11600
C 	C 	0.11493 0.05747 0.34467 -0.01600
C 	C 	0.14293 0.07147 0.18927 -0.02900
O 	O 	0.56995 0.13990 0.65230 -0.22900
C 	C 	0.51100 0.02200 0.52200 0.00100
C 	C 	0.54984 0.09968 0.61100 0.15200
C 	C 	0.59060 0.18120 0.61610 0.11600
C 	C 	0.60920 0.21840 0.67800 -0.01600
C 	C 	0.59520 0.19040 0.52260 -0.02900
O 	O 	0.23662 0.47323 0.98563 -0.22900
C 	C 	0.17767 0.35533 0.85533 0.00100
C 	C 	0.21651 0.43301 0.94433 0.15200
C 	C 	0.25727 0.51453 0.94943 0.11600
C 	C 	0.27587 0.55173 0.01133 -0.01600
C 	C 	0.26187 0.52373 0.85593 -0.02900
O 	O 	0.90328 0.80657 0.31897 -0.22900
C 	C 	0.84433 0.68867 0.18867 0.00100
C 	C 	0.88317 0.76635 0.27767 0.15200
C 	C 	0.92393 0.84787 0.28277 0.11600
C 	C 	0.94253 0.88507 0.34467 -0.01600
C 	C 	0.92853 0.85707 0.18927 -0.02900
