data_crystal

_cell_length_a 35.18780
_cell_length_b 35.18780
_cell_length_c 21.71800
_cell_angle_alpha 90.00000
_cell_angle_beta  90.00000
_cell_angle_gamma 120.00000

_symmetry_space_group_name_	'P 1'
_symmetry_space_group_name_H-M	'P 1'

loop_
_symmetry_equiv_pos_as_xyz
  x,y,z

loop_
_atom_site_label
_atom_site_type_symbol
_atom_site_fract_x
_atom_site_fract_y
_atom_site_fract_z
_atom_site_charge
O 	O 	0.63713 0.77953 0.40259 -0.41200
O 	O 	0.61105 0.76628 0.30631 -0.40600
C 	C 	0.61192 0.75512 0.36075 0.37500
C 	C 	0.58042 0.70831 0.37839 -0.12400
C 	C 	0.55320 0.67857 0.33306 0.06400
H 	H 	0.55420 0.68800 0.29180 0.02800
C 	C 	0.52501 0.63538 0.34932 -0.13900
H 	H 	0.50610 0.61540 0.31900 0.09300
C 	C 	0.52362 0.62066 0.40810 0.10800
C 	C 	0.55099 0.65010 0.45310 -0.13900
H 	H 	0.55040 0.64040 0.49400 0.08200
C 	C 	0.57928 0.69412 0.43700 0.06500
H 	H 	0.59780 0.71420 0.46750 0.02600
C 	C 	0.49531 0.57343 0.42750 -0.06300
C 	C 	0.51306 0.55377 0.46150 -0.04000
H 	H 	0.54310 0.57070 0.47270 0.04500
C 	C 	0.41230 0.62280 0.36180 -0.00300
C 	C 	0.38270 0.57110 0.46040 -0.02000
O 	O 	0.30380 0.11286 0.73592 -0.41300
O 	O 	0.27772 0.09961 0.63964 -0.40700
C 	C 	0.27859 0.08845 0.69408 0.37400
C 	C 	0.24709 0.04164 0.71172 -0.12500
C 	C 	0.21987 0.01190 0.66639 0.06300
H 	H 	0.22087 0.02133 0.62513 0.02800
C 	C 	0.19168 0.96871 0.68265 -0.13800
H 	H 	0.17277 0.94873 0.65233 0.09300
C 	C 	0.19029 0.95399 0.74143 0.10700
C 	C 	0.21766 0.98343 0.78643 -0.13800
H 	H 	0.21707 0.97373 0.82733 0.08200
C 	C 	0.24595 0.02745 0.77033 0.06400
H 	H 	0.26447 0.04753 0.80083 0.02700
C 	C 	0.16198 0.90676 0.76083 -0.06300
C 	C 	0.17973 0.88710 0.79483 -0.04100
H 	H 	0.20977 0.90403 0.80603 0.04500
C 	C 	0.07897 0.95613 0.69513 -0.00300
C 	C 	0.04937 0.90443 0.79373 -0.02000
O 	O 	0.97046 0.44620 0.06926 -0.41200
O 	O 	0.94438 0.43295 0.97298 -0.40800
C 	C 	0.94525 0.42179 0.02742 0.37400
C 	C 	0.91375 0.37498 0.04506 -0.12400
C 	C 	0.88653 0.34524 0.99973 0.06100
H 	H 	0.88753 0.35467 0.95847 0.02800
C 	C 	0.85834 0.30205 0.01599 -0.13600
H 	H 	0.83943 0.28207 0.98567 0.09200
C 	C 	0.85695 0.28733 0.07477 0.10600
C 	C 	0.88432 0.31677 0.11977 -0.13700
H 	H 	0.88373 0.30707 0.16067 0.08100
C 	C 	0.91261 0.36079 0.10367 0.06400
H 	H 	0.93113 0.38087 0.13417 0.02700
C 	C 	0.82864 0.24010 0.09417 -0.06200
C 	C 	0.84639 0.22044 0.12817 -0.04100
H 	H 	0.87643 0.23737 0.13937 0.04500
C 	C 	0.74563 0.28947 0.02847 -0.00300
C 	C 	0.71603 0.23777 0.12707 -0.02000
O 	O 	0.22047 0.85760 0.40259 -0.41300
O 	O 	0.23372 0.84477 0.30631 -0.40700
C 	C 	0.24488 0.85680 0.36075 0.37400
C 	C 	0.29169 0.87211 0.37839 -0.12500
C 	C 	0.32143 0.87463 0.33306 0.06400
H 	H 	0.31200 0.86620 0.29180 0.02800
C 	C 	0.36462 0.88963 0.34932 -0.13900
H 	H 	0.38460 0.89070 0.31900 0.09300
C 	C 	0.37934 0.90296 0.40810 0.10800
C 	C 	0.34990 0.90089 0.45310 -0.13900
H 	H 	0.35960 0.91000 0.49400 0.08200
C 	C 	0.30588 0.88516 0.43700 0.06500
H 	H 	0.28580 0.88360 0.46750 0.02600
C 	C 	0.42657 0.92188 0.42750 -0.06300
C 	C 	0.44623 0.95929 0.46150 -0.04100
H 	H 	0.42930 0.97240 0.47270 0.04500
C 	C 	0.37720 0.78950 0.36180 -0.00300
C 	C 	0.42890 0.81160 0.46040 -0.02000
O 	O 	0.88714 0.19093 0.73592 -0.41300
O 	O 	0.90039 0.17810 0.63964 -0.40700
C 	C 	0.91155 0.19013 0.69408 0.37400
C 	C 	0.95836 0.20544 0.71172 -0.12500
C 	C 	0.98810 0.20796 0.66639 0.06300
H 	H 	0.97867 0.19953 0.62513 0.02800
C 	C 	0.03129 0.22296 0.68265 -0.13800
H 	H 	0.05127 0.22403 0.65233 0.09300
C 	C 	0.04601 0.23629 0.74143 0.10700
C 	C 	0.01657 0.23422 0.78643 -0.13800
H 	H 	0.02627 0.24333 0.82733 0.08200
C 	C 	0.97255 0.21849 0.77033 0.06400
H 	H 	0.95247 0.21693 0.80083 0.02700
C 	C 	0.09324 0.25521 0.76083 -0.06300
C 	C 	0.11290 0.29262 0.79483 -0.04100
H 	H 	0.09597 0.30573 0.80603 0.04500
C 	C 	0.04387 0.12283 0.69513 -0.00300
C 	C 	0.09557 0.14493 0.79373 -0.02000
O 	O 	0.55380 0.52427 0.06926 -0.41300
O 	O 	0.56705 0.51144 0.97298 -0.40800
C 	C 	0.57821 0.52347 0.02742 0.37400
C 	C 	0.62502 0.53878 0.04506 -0.12500
C 	C 	0.65476 0.54130 0.99973 0.06300
H 	H 	0.64533 0.53287 0.95847 0.02800
C 	C 	0.69795 0.55630 0.01599 -0.13800
H 	H 	0.71793 0.55737 0.98567 0.09300
C 	C 	0.71267 0.56963 0.07477 0.10700
C 	C 	0.68323 0.56756 0.11977 -0.13800
H 	H 	0.69293 0.57667 0.16067 0.08200
C 	C 	0.63921 0.55183 0.10367 0.06400
H 	H 	0.61913 0.55027 0.13417 0.02700
C 	C 	0.75990 0.58855 0.09417 -0.06200
C 	C 	0.77956 0.62596 0.12817 -0.04100
H 	H 	0.76263 0.63907 0.13937 0.04500
C 	C 	0.71053 0.45617 0.02847 -0.00300
C 	C 	0.76223 0.47827 0.12707 -0.02000
O 	O 	0.14240 0.36287 0.40259 -0.41300
O 	O 	0.15523 0.38895 0.30631 -0.40800
C 	C 	0.14320 0.38808 0.36075 0.37400
C 	C 	0.12789 0.41958 0.37839 -0.12500
C 	C 	0.12537 0.44680 0.33306 0.06400
H 	H 	0.13380 0.44580 0.29180 0.02800
C 	C 	0.11037 0.47499 0.34932 -0.13900
H 	H 	0.10930 0.49390 0.31900 0.09300
C 	C 	0.09704 0.47638 0.40810 0.10800
C 	C 	0.09911 0.44901 0.45310 -0.13900
H 	H 	0.09000 0.44960 0.49400 0.08200
C 	C 	0.11484 0.42072 0.43700 0.06500
H 	H 	0.11640 0.40220 0.46750 0.02600
C 	C 	0.07812 0.50469 0.42750 -0.06300
C 	C 	0.04071 0.48694 0.46150 -0.04100
H 	H 	0.02760 0.45690 0.47270 0.04500
C 	C 	0.21050 0.58770 0.36180 -0.00300
C 	C 	0.18840 0.61730 0.46040 -0.02000
O 	O 	0.80907 0.69620 0.73592 -0.41300
O 	O 	0.82190 0.72228 0.63964 -0.40800
C 	C 	0.80987 0.72141 0.69408 0.37400
C 	C 	0.79456 0.75291 0.71172 -0.12500
C 	C 	0.79204 0.78013 0.66639 0.06400
H 	H 	0.80047 0.77913 0.62513 0.02800
C 	C 	0.77704 0.80832 0.68265 -0.13900
H 	H 	0.77597 0.82723 0.65233 0.09300
C 	C 	0.76371 0.80971 0.74143 0.10800
C 	C 	0.76578 0.78234 0.78643 -0.13900
H 	H 	0.75667 0.78293 0.82733 0.08200
C 	C 	0.78151 0.75405 0.77033 0.06500
H 	H 	0.78307 0.73553 0.80083 0.02600
C 	C 	0.74479 0.83802 0.76083 -0.06300
C 	C 	0.70738 0.82027 0.79483 -0.04000
H 	H 	0.69427 0.79023 0.80603 0.04500
C 	C 	0.87717 0.92103 0.69513 -0.00300
C 	C 	0.85507 0.95063 0.79373 -0.02000
O 	O 	0.47573 0.02954 0.06926 -0.41200
O 	O 	0.48856 0.05562 0.97298 -0.40800
C 	C 	0.47653 0.05475 0.02742 0.37400
C 	C 	0.46122 0.08625 0.04506 -0.12400
C 	C 	0.45870 0.11347 0.99973 0.06200
H 	H 	0.46713 0.11247 0.95847 0.02800
C 	C 	0.44370 0.14166 0.01599 -0.13700
H 	H 	0.44263 0.16057 0.98567 0.09200
C 	C 	0.43037 0.14305 0.07477 0.10700
C 	C 	0.43244 0.11568 0.11977 -0.13800
H 	H 	0.42333 0.11627 0.16067 0.08200
C 	C 	0.44817 0.08739 0.10367 0.06400
H 	H 	0.44973 0.06887 0.13417 0.02700
C 	C 	0.41145 0.17136 0.09417 -0.06200
C 	C 	0.37404 0.15361 0.12817 -0.04100
H 	H 	0.36093 0.12357 0.13937 0.04500
C 	C 	0.54383 0.25437 0.02847 -0.00300
C 	C 	0.52173 0.28397 0.12707 -0.02000
O 	O 	0.77953 0.63713 0.59741 -0.41300
O 	O 	0.76628 0.61105 0.69369 -0.40700
C 	C 	0.75512 0.61192 0.63925 0.37400
C 	C 	0.70831 0.58042 0.62161 -0.12500
C 	C 	0.67857 0.55320 0.66694 0.06400
H 	H 	0.68800 0.55420 0.70820 0.02800
C 	C 	0.63538 0.52501 0.65068 -0.13900
H 	H 	0.61540 0.50610 0.68100 0.09300
C 	C 	0.62066 0.52362 0.59190 0.10800
C 	C 	0.65010 0.55099 0.54690 -0.13900
H 	H 	0.64040 0.55040 0.50600 0.08200
C 	C 	0.69412 0.57928 0.56300 0.06500
H 	H 	0.71420 0.59780 0.53250 0.02600
C 	C 	0.57343 0.49531 0.57250 -0.06300
C 	C 	0.55377 0.51306 0.53850 -0.04000
H 	H 	0.57070 0.54310 0.52730 0.04500
C 	C 	0.62280 0.41230 0.63820 -0.00300
C 	C 	0.57110 0.38270 0.53960 -0.02000
O 	O 	0.44620 0.97046 0.93074 -0.41200
O 	O 	0.43295 0.94438 0.02702 -0.40800
C 	C 	0.42179 0.94525 0.97258 0.37400
C 	C 	0.37498 0.91375 0.95494 -0.12400
C 	C 	0.34524 0.88653 0.00027 0.06100
H 	H 	0.35467 0.88753 0.04153 0.02800
C 	C 	0.30205 0.85834 0.98401 -0.13600
H 	H 	0.28207 0.83943 0.01433 0.09200
C 	C 	0.28733 0.85695 0.92523 0.10600
C 	C 	0.31677 0.88432 0.88023 -0.13700
H 	H 	0.30707 0.88373 0.83933 0.08100
C 	C 	0.36079 0.91261 0.89633 0.06400
H 	H 	0.38087 0.93113 0.86583 0.02700
C 	C 	0.24010 0.82864 0.90583 -0.06200
C 	C 	0.22044 0.84639 0.87183 -0.04100
H 	H 	0.23737 0.87643 0.86063 0.04500
C 	C 	0.28947 0.74563 0.97153 -0.00300
C 	C 	0.23777 0.71603 0.87293 -0.02000
O 	O 	0.11286 0.30380 0.26408 -0.41300
O 	O 	0.09961 0.27772 0.36036 -0.40700
C 	C 	0.08845 0.27859 0.30592 0.37400
C 	C 	0.04164 0.24709 0.28828 -0.12500
C 	C 	0.01190 0.21987 0.33361 0.06300
H 	H 	0.02133 0.22087 0.37487 0.02800
C 	C 	0.96871 0.19168 0.31735 -0.13800
H 	H 	0.94873 0.17277 0.34767 0.09300
C 	C 	0.95399 0.19029 0.25857 0.10700
C 	C 	0.98343 0.21766 0.21357 -0.13800
H 	H 	0.97373 0.21707 0.17267 0.08200
C 	C 	0.02745 0.24595 0.22967 0.06400
H 	H 	0.04753 0.26447 0.19917 0.02700
C 	C 	0.90676 0.16198 0.23917 -0.06300
C 	C 	0.88710 0.17973 0.20517 -0.04100
H 	H 	0.90403 0.20977 0.19397 0.04500
C 	C 	0.95613 0.07897 0.30487 -0.00300
C 	C 	0.90443 0.04937 0.20627 -0.02000
O 	O 	0.85760 0.22047 0.59741 -0.41300
O 	O 	0.84477 0.23372 0.69369 -0.40700
C 	C 	0.85680 0.24488 0.63925 0.37400
C 	C 	0.87211 0.29169 0.62161 -0.12500
C 	C 	0.87463 0.32143 0.66694 0.06400
H 	H 	0.86620 0.31200 0.70820 0.02800
C 	C 	0.88963 0.36462 0.65068 -0.13900
H 	H 	0.89070 0.38460 0.68100 0.09300
C 	C 	0.90296 0.37934 0.59190 0.10800
C 	C 	0.90089 0.34990 0.54690 -0.13900
H 	H 	0.91000 0.35960 0.50600 0.08200
C 	C 	0.88516 0.30588 0.56300 0.06500
H 	H 	0.88360 0.28580 0.53250 0.02600
C 	C 	0.92188 0.42657 0.57250 -0.06300
C 	C 	0.95929 0.44623 0.53850 -0.04100
H 	H 	0.97240 0.42930 0.52730 0.04500
C 	C 	0.78950 0.37720 0.63820 -0.00300
C 	C 	0.81160 0.42890 0.53960 -0.02000
O 	O 	0.52427 0.55380 0.93074 -0.41300
O 	O 	0.51144 0.56705 0.02702 -0.40800
C 	C 	0.52347 0.57821 0.97258 0.37400
C 	C 	0.53878 0.62502 0.95494 -0.12500
C 	C 	0.54130 0.65476 0.00027 0.06300
H 	H 	0.53287 0.64533 0.04153 0.02800
C 	C 	0.55630 0.69795 0.98401 -0.13800
H 	H 	0.55737 0.71793 0.01433 0.09300
C 	C 	0.56963 0.71267 0.92523 0.10700
C 	C 	0.56756 0.68323 0.88023 -0.13800
H 	H 	0.57667 0.69293 0.83933 0.08200
C 	C 	0.55183 0.63921 0.89633 0.06400
H 	H 	0.55027 0.61913 0.86583 0.02700
C 	C 	0.58855 0.75990 0.90583 -0.06200
C 	C 	0.62596 0.77956 0.87183 -0.04100
H 	H 	0.63907 0.76263 0.86063 0.04500
C 	C 	0.45617 0.71053 0.97153 -0.00300
C 	C 	0.47827 0.76223 0.87293 -0.02000
O 	O 	0.19093 0.88714 0.26408 -0.41300
O 	O 	0.17810 0.90039 0.36036 -0.40700
C 	C 	0.19013 0.91155 0.30592 0.37400
C 	C 	0.20544 0.95836 0.28828 -0.12500
C 	C 	0.20796 0.98810 0.33361 0.06300
H 	H 	0.19953 0.97867 0.37487 0.02800
C 	C 	0.22296 0.03129 0.31735 -0.13800
H 	H 	0.22403 0.05127 0.34767 0.09300
C 	C 	0.23629 0.04601 0.25857 0.10700
C 	C 	0.23422 0.01657 0.21357 -0.13800
H 	H 	0.24333 0.02627 0.17267 0.08200
C 	C 	0.21849 0.97255 0.22967 0.06400
H 	H 	0.21693 0.95247 0.19917 0.02700
C 	C 	0.25521 0.09324 0.23917 -0.06300
C 	C 	0.29262 0.11290 0.20517 -0.04100
H 	H 	0.30573 0.09597 0.19397 0.04500
C 	C 	0.12283 0.04387 0.30487 -0.00300
C 	C 	0.14493 0.09557 0.20627 -0.02000
O 	O 	0.36287 0.14240 0.59741 -0.41300
O 	O 	0.38895 0.15523 0.69369 -0.40800
C 	C 	0.38808 0.14320 0.63925 0.37400
C 	C 	0.41958 0.12789 0.62161 -0.12500
C 	C 	0.44680 0.12537 0.66694 0.06400
H 	H 	0.44580 0.13380 0.70820 0.02800
C 	C 	0.47499 0.11037 0.65068 -0.13900
H 	H 	0.49390 0.10930 0.68100 0.09300
C 	C 	0.47638 0.09704 0.59190 0.10800
C 	C 	0.44901 0.09911 0.54690 -0.13900
H 	H 	0.44960 0.09000 0.50600 0.08200
C 	C 	0.42072 0.11484 0.56300 0.06500
H 	H 	0.40220 0.11640 0.53250 0.02600
C 	C 	0.50469 0.07812 0.57250 -0.06300
C 	C 	0.48694 0.04071 0.53850 -0.04100
H 	H 	0.45690 0.02760 0.52730 0.04500
C 	C 	0.58770 0.21050 0.63820 -0.00300
C 	C 	0.61730 0.18840 0.53960 -0.02000
O 	O 	0.02954 0.47573 0.93074 -0.41200
O 	O 	0.05562 0.48856 0.02702 -0.40800
C 	C 	0.05475 0.47653 0.97258 0.37400
C 	C 	0.08625 0.46122 0.95494 -0.12400
C 	C 	0.11347 0.45870 0.00027 0.06200
H 	H 	0.11247 0.46713 0.04153 0.02800
C 	C 	0.14166 0.44370 0.98401 -0.13700
H 	H 	0.16057 0.44263 0.01433 0.09200
C 	C 	0.14305 0.43037 0.92523 0.10700
C 	C 	0.11568 0.43244 0.88023 -0.13800
H 	H 	0.11627 0.42333 0.83933 0.08200
C 	C 	0.08739 0.44817 0.89633 0.06400
H 	H 	0.06887 0.44973 0.86583 0.02700
C 	C 	0.17136 0.41145 0.90583 -0.06200
C 	C 	0.15361 0.37404 0.87183 -0.04100
H 	H 	0.12357 0.36093 0.86063 0.04500
C 	C 	0.25437 0.54383 0.97153 -0.00300
C 	C 	0.28397 0.52173 0.87293 -0.02000
O 	O 	0.69620 0.80907 0.26408 -0.41300
O 	O 	0.72228 0.82190 0.36036 -0.40800
C 	C 	0.72141 0.80987 0.30592 0.37400
C 	C 	0.75291 0.79456 0.28828 -0.12500
C 	C 	0.78013 0.79204 0.33361 0.06400
H 	H 	0.77913 0.80047 0.37487 0.02800
C 	C 	0.80832 0.77704 0.31735 -0.13900
H 	H 	0.82723 0.77597 0.34767 0.09300
C 	C 	0.80971 0.76371 0.25857 0.10800
C 	C 	0.78234 0.76578 0.21357 -0.13900
H 	H 	0.78293 0.75667 0.17267 0.08200
C 	C 	0.75405 0.78151 0.22967 0.06500
H 	H 	0.73553 0.78307 0.19917 0.02600
C 	C 	0.83802 0.74479 0.23917 -0.06300
C 	C 	0.82027 0.70738 0.20517 -0.04000
H 	H 	0.79023 0.69427 0.19397 0.04500
C 	C 	0.92103 0.87717 0.30487 -0.00300
C 	C 	0.95063 0.85507 0.20627 -0.02000
O 	O 	0.36287 0.22047 0.59741 -0.41300
O 	O 	0.38895 0.23372 0.69369 -0.40700
C 	C 	0.38808 0.24488 0.63925 0.37400
C 	C 	0.41958 0.29169 0.62161 -0.12500
C 	C 	0.44680 0.32143 0.66694 0.06400
H 	H 	0.44580 0.31200 0.70820 0.02800
C 	C 	0.47499 0.36462 0.65068 -0.13900
H 	H 	0.49390 0.38460 0.68100 0.09300
C 	C 	0.47638 0.37934 0.59190 0.10800
C 	C 	0.44901 0.34990 0.54690 -0.13900
H 	H 	0.44960 0.35960 0.50600 0.08200
C 	C 	0.42072 0.30588 0.56300 0.06500
H 	H 	0.40220 0.28580 0.53250 0.02600
C 	C 	0.50469 0.42657 0.57250 -0.06300
C 	C 	0.48694 0.44623 0.53850 -0.04000
H 	H 	0.45690 0.42930 0.52730 0.04500
C 	C 	0.58770 0.37720 0.63820 -0.00300
C 	C 	0.61730 0.42890 0.53960 -0.02000
O 	O 	0.02954 0.55380 0.93074 -0.41200
O 	O 	0.05562 0.56705 0.02702 -0.40800
C 	C 	0.05475 0.57821 0.97258 0.37400
C 	C 	0.08625 0.62502 0.95494 -0.12400
C 	C 	0.11347 0.65476 0.00027 0.06100
H 	H 	0.11247 0.64533 0.04153 0.02800
C 	C 	0.14166 0.69795 0.98401 -0.13600
H 	H 	0.16057 0.71793 0.01433 0.09200
C 	C 	0.14305 0.71267 0.92523 0.10600
C 	C 	0.11568 0.68323 0.88023 -0.13700
H 	H 	0.11627 0.69293 0.83933 0.08100
C 	C 	0.08739 0.63921 0.89633 0.06400
H 	H 	0.06887 0.61913 0.86583 0.02700
C 	C 	0.17136 0.75990 0.90583 -0.06200
C 	C 	0.15361 0.77956 0.87183 -0.04100
H 	H 	0.12357 0.76263 0.86063 0.04500
C 	C 	0.25437 0.71053 0.97153 -0.00300
C 	C 	0.28397 0.76223 0.87293 -0.02000
O 	O 	0.69620 0.88714 0.26408 -0.41300
O 	O 	0.72228 0.90039 0.36036 -0.40700
C 	C 	0.72141 0.91155 0.30592 0.37400
C 	C 	0.75291 0.95836 0.28828 -0.12500
C 	C 	0.78013 0.98810 0.33361 0.06300
H 	H 	0.77913 0.97867 0.37487 0.02800
C 	C 	0.80832 0.03129 0.31735 -0.13800
H 	H 	0.82723 0.05127 0.34767 0.09300
C 	C 	0.80971 0.04601 0.25857 0.10700
C 	C 	0.78234 0.01657 0.21357 -0.13800
H 	H 	0.78293 0.02627 0.17267 0.08200
C 	C 	0.75405 0.97255 0.22967 0.06400
H 	H 	0.73553 0.95247 0.19917 0.02700
C 	C 	0.83802 0.09324 0.23917 -0.06300
C 	C 	0.82027 0.11290 0.20517 -0.04100
H 	H 	0.79023 0.09597 0.19397 0.04500
C 	C 	0.92103 0.04387 0.30487 -0.00300
C 	C 	0.95063 0.09557 0.20627 -0.02000
O 	O 	0.77953 0.14240 0.59741 -0.41300
O 	O 	0.76628 0.15523 0.69369 -0.40700
C 	C 	0.75512 0.14320 0.63925 0.37400
C 	C 	0.70831 0.12789 0.62161 -0.12500
C 	C 	0.67857 0.12537 0.66694 0.06400
H 	H 	0.68800 0.13380 0.70820 0.02800
C 	C 	0.63538 0.11037 0.65068 -0.13900
H 	H 	0.61540 0.10930 0.68100 0.09300
C 	C 	0.62066 0.09704 0.59190 0.10800
C 	C 	0.65010 0.09911 0.54690 -0.13900
H 	H 	0.64040 0.09000 0.50600 0.08200
C 	C 	0.69412 0.11484 0.56300 0.06500
H 	H 	0.71420 0.11640 0.53250 0.02600
C 	C 	0.57343 0.07812 0.57250 -0.06300
C 	C 	0.55377 0.04071 0.53850 -0.04100
H 	H 	0.57070 0.02760 0.52730 0.04500
C 	C 	0.62280 0.21050 0.63820 -0.00300
C 	C 	0.57110 0.18840 0.53960 -0.02000
O 	O 	0.44620 0.47573 0.93074 -0.41300
O 	O 	0.43295 0.48856 0.02702 -0.40800
C 	C 	0.42179 0.47653 0.97258 0.37400
C 	C 	0.37498 0.46122 0.95494 -0.12500
C 	C 	0.34524 0.45870 0.00027 0.06300
H 	H 	0.35467 0.46713 0.04153 0.02800
C 	C 	0.30205 0.44370 0.98401 -0.13800
H 	H 	0.28207 0.44263 0.01433 0.09300
C 	C 	0.28733 0.43037 0.92523 0.10700
C 	C 	0.31677 0.43244 0.88023 -0.13800
H 	H 	0.30707 0.42333 0.83933 0.08200
C 	C 	0.36079 0.44817 0.89633 0.06400
H 	H 	0.38087 0.44973 0.86583 0.02700
C 	C 	0.24010 0.41145 0.90583 -0.06200
C 	C 	0.22044 0.37404 0.87183 -0.04100
H 	H 	0.23737 0.36093 0.86063 0.04500
C 	C 	0.28947 0.54383 0.97153 -0.00300
C 	C 	0.23777 0.52173 0.87293 -0.02000
O 	O 	0.11286 0.80907 0.26408 -0.41300
O 	O 	0.09961 0.82190 0.36036 -0.40700
C 	C 	0.08845 0.80987 0.30592 0.37400
C 	C 	0.04164 0.79456 0.28828 -0.12500
C 	C 	0.01190 0.79204 0.33361 0.06300
H 	H 	0.02133 0.80047 0.37487 0.02800
C 	C 	0.96871 0.77704 0.31735 -0.13800
H 	H 	0.94873 0.77597 0.34767 0.09300
C 	C 	0.95399 0.76371 0.25857 0.10700
C 	C 	0.98343 0.76578 0.21357 -0.13800
H 	H 	0.97373 0.75667 0.17267 0.08200
C 	C 	0.02745 0.78151 0.22967 0.06400
H 	H 	0.04753 0.78307 0.19917 0.02700
C 	C 	0.90676 0.74479 0.23917 -0.06300
C 	C 	0.88710 0.70738 0.20517 -0.04100
H 	H 	0.90403 0.69427 0.19397 0.04500
C 	C 	0.95613 0.87717 0.30487 -0.00300
C 	C 	0.90443 0.85507 0.20627 -0.02000
O 	O 	0.85760 0.63713 0.59741 -0.41300
O 	O 	0.84477 0.61105 0.69369 -0.40800
C 	C 	0.85680 0.61192 0.63925 0.37400
C 	C 	0.87211 0.58042 0.62161 -0.12500
C 	C 	0.87463 0.55320 0.66694 0.06400
H 	H 	0.86620 0.55420 0.70820 0.02800
C 	C 	0.88963 0.52501 0.65068 -0.13900
H 	H 	0.89070 0.50610 0.68100 0.09300
C 	C 	0.90296 0.52362 0.59190 0.10800
C 	C 	0.90089 0.55099 0.54690 -0.13900
H 	H 	0.91000 0.55040 0.50600 0.08200
C 	C 	0.88516 0.57928 0.56300 0.06500
H 	H 	0.88360 0.59780 0.53250 0.02600
C 	C 	0.92188 0.49531 0.57250 -0.06300
C 	C 	0.95929 0.51306 0.53850 -0.04100
H 	H 	0.97240 0.54310 0.52730 0.04500
C 	C 	0.78950 0.41230 0.63820 -0.00300
C 	C 	0.81160 0.38270 0.53960 -0.02000
O 	O 	0.52427 0.97046 0.93074 -0.41200
O 	O 	0.51144 0.94438 0.02702 -0.40800
C 	C 	0.52347 0.94525 0.97258 0.37400
C 	C 	0.53878 0.91375 0.95494 -0.12400
C 	C 	0.54130 0.88653 0.00027 0.06200
H 	H 	0.53287 0.88753 0.04153 0.02800
C 	C 	0.55630 0.85834 0.98401 -0.13700
H 	H 	0.55737 0.83943 0.01433 0.09200
C 	C 	0.56963 0.85695 0.92523 0.10700
C 	C 	0.56756 0.88432 0.88023 -0.13800
H 	H 	0.57667 0.88373 0.83933 0.08200
C 	C 	0.55183 0.91261 0.89633 0.06400
H 	H 	0.55027 0.93113 0.86583 0.02700
C 	C 	0.58855 0.82864 0.90583 -0.06200
C 	C 	0.62596 0.84639 0.87183 -0.04100
H 	H 	0.63907 0.87643 0.86063 0.04500
C 	C 	0.45617 0.74563 0.97153 -0.00300
C 	C 	0.47827 0.71603 0.87293 -0.02000
O 	O 	0.19093 0.30380 0.26408 -0.41300
O 	O 	0.17810 0.27772 0.36036 -0.40800
C 	C 	0.19013 0.27859 0.30592 0.37400
C 	C 	0.20544 0.24709 0.28828 -0.12500
C 	C 	0.20796 0.21987 0.33361 0.06400
H 	H 	0.19953 0.22087 0.37487 0.02800
C 	C 	0.22296 0.19168 0.31735 -0.13900
H 	H 	0.22403 0.17277 0.34767 0.09300
C 	C 	0.23629 0.19029 0.25857 0.10800
C 	C 	0.23422 0.21766 0.21357 -0.13900
H 	H 	0.24333 0.21707 0.17267 0.08200
C 	C 	0.21849 0.24595 0.22967 0.06500
H 	H 	0.21693 0.26447 0.19917 0.02600
C 	C 	0.25521 0.16198 0.23917 -0.06300
C 	C 	0.29262 0.17973 0.20517 -0.04000
H 	H 	0.30573 0.20977 0.19397 0.04500
C 	C 	0.12283 0.07897 0.30487 -0.00300
C 	C 	0.14493 0.04937 0.20627 -0.02000
O 	O 	0.22047 0.36287 0.40259 -0.41300
O 	O 	0.23372 0.38895 0.30631 -0.40700
C 	C 	0.24488 0.38808 0.36075 0.37400
C 	C 	0.29169 0.41958 0.37839 -0.12500
C 	C 	0.32143 0.44680 0.33306 0.06400
H 	H 	0.31200 0.44580 0.29180 0.02800
C 	C 	0.36462 0.47499 0.34932 -0.13900
H 	H 	0.38460 0.49390 0.31900 0.09300
C 	C 	0.37934 0.47638 0.40810 0.10800
C 	C 	0.34990 0.44901 0.45310 -0.13900
H 	H 	0.35960 0.44960 0.49400 0.08200
C 	C 	0.30588 0.42072 0.43700 0.06500
H 	H 	0.28580 0.40220 0.46750 0.02600
C 	C 	0.42657 0.50469 0.42750 -0.06300
C 	C 	0.44623 0.48694 0.46150 -0.04000
H 	H 	0.42930 0.45690 0.47270 0.04500
C 	C 	0.37720 0.58770 0.36180 -0.00300
C 	C 	0.42890 0.61730 0.46040 -0.02000
O 	O 	0.88714 0.69620 0.73592 -0.41300
O 	O 	0.90039 0.72228 0.63964 -0.40700
C 	C 	0.91155 0.72141 0.69408 0.37400
C 	C 	0.95836 0.75291 0.71172 -0.12500
C 	C 	0.98810 0.78013 0.66639 0.06300
H 	H 	0.97867 0.77913 0.62513 0.02800
C 	C 	0.03129 0.80832 0.68265 -0.13800
H 	H 	0.05127 0.82723 0.65233 0.09300
C 	C 	0.04601 0.80971 0.74143 0.10700
C 	C 	0.01657 0.78234 0.78643 -0.13800
H 	H 	0.02627 0.78293 0.82733 0.08200
C 	C 	0.97255 0.75405 0.77033 0.06400
H 	H 	0.95247 0.73553 0.80083 0.02700
C 	C 	0.09324 0.83802 0.76083 -0.06300
C 	C 	0.11290 0.82027 0.79483 -0.04100
H 	H 	0.09597 0.79023 0.80603 0.04500
C 	C 	0.04387 0.92103 0.69513 -0.00300
C 	C 	0.09557 0.95063 0.79373 -0.02000
O 	O 	0.55380 0.02954 0.06926 -0.41200
O 	O 	0.56705 0.05562 0.97298 -0.40800
C 	C 	0.57821 0.05475 0.02742 0.37400
C 	C 	0.62502 0.08625 0.04506 -0.12400
C 	C 	0.65476 0.11347 0.99973 0.06100
H 	H 	0.64533 0.11247 0.95847 0.02800
C 	C 	0.69795 0.14166 0.01599 -0.13600
H 	H 	0.71793 0.16057 0.98567 0.09200
C 	C 	0.71267 0.14305 0.07477 0.10600
C 	C 	0.68323 0.11568 0.11977 -0.13700
H 	H 	0.69293 0.11627 0.16067 0.08100
C 	C 	0.63921 0.08739 0.10367 0.06400
H 	H 	0.61913 0.06887 0.13417 0.02700
C 	C 	0.75990 0.17136 0.09417 -0.06200
C 	C 	0.77956 0.15361 0.12817 -0.04100
H 	H 	0.76263 0.12357 0.13937 0.04500
C 	C 	0.71053 0.25437 0.02847 -0.00300
C 	C 	0.76223 0.28397 0.12707 -0.02000
O 	O 	0.14240 0.77953 0.40259 -0.41300
O 	O 	0.15523 0.76628 0.30631 -0.40700
C 	C 	0.14320 0.75512 0.36075 0.37400
C 	C 	0.12789 0.70831 0.37839 -0.12500
C 	C 	0.12537 0.67857 0.33306 0.06400
H 	H 	0.13380 0.68800 0.29180 0.02800
C 	C 	0.11037 0.63538 0.34932 -0.13900
H 	H 	0.10930 0.61540 0.31900 0.09300
C 	C 	0.09704 0.62066 0.40810 0.10800
C 	C 	0.09911 0.65010 0.45310 -0.13900
H 	H 	0.09000 0.64040 0.49400 0.08200
C 	C 	0.11484 0.69412 0.43700 0.06500
H 	H 	0.11640 0.71420 0.46750 0.02600
C 	C 	0.07812 0.57343 0.42750 -0.06300
C 	C 	0.04071 0.55377 0.46150 -0.04100
H 	H 	0.02760 0.57070 0.47270 0.04500
C 	C 	0.21050 0.62280 0.36180 -0.00300
C 	C 	0.18840 0.57110 0.46040 -0.02000
O 	O 	0.80907 0.11286 0.73592 -0.41300
O 	O 	0.82190 0.09961 0.63964 -0.40700
C 	C 	0.80987 0.08845 0.69408 0.37400
C 	C 	0.79456 0.04164 0.71172 -0.12500
C 	C 	0.79204 0.01190 0.66639 0.06300
H 	H 	0.80047 0.02133 0.62513 0.02800
C 	C 	0.77704 0.96871 0.68265 -0.13800
H 	H 	0.77597 0.94873 0.65233 0.09300
C 	C 	0.76371 0.95399 0.74143 0.10700
C 	C 	0.76578 0.98343 0.78643 -0.13800
H 	H 	0.75667 0.97373 0.82733 0.08200
C 	C 	0.78151 0.02745 0.77033 0.06400
H 	H 	0.78307 0.04753 0.80083 0.02700
C 	C 	0.74479 0.90676 0.76083 -0.06300
C 	C 	0.70738 0.88710 0.79483 -0.04100
H 	H 	0.69427 0.90403 0.80603 0.04500
C 	C 	0.87717 0.95613 0.69513 -0.00300
C 	C 	0.85507 0.90443 0.79373 -0.02000
O 	O 	0.47573 0.44620 0.06926 -0.41300
O 	O 	0.48856 0.43295 0.97298 -0.40800
C 	C 	0.47653 0.42179 0.02742 0.37400
C 	C 	0.46122 0.37498 0.04506 -0.12500
C 	C 	0.45870 0.34524 0.99973 0.06300
H 	H 	0.46713 0.35467 0.95847 0.02800
C 	C 	0.44370 0.30205 0.01599 -0.13800
H 	H 	0.44263 0.28207 0.98567 0.09300
C 	C 	0.43037 0.28733 0.07477 0.10700
C 	C 	0.43244 0.31677 0.11977 -0.13800
H 	H 	0.42333 0.30707 0.16067 0.08200
C 	C 	0.44817 0.36079 0.10367 0.06400
H 	H 	0.44973 0.38087 0.13417 0.02700
C 	C 	0.41145 0.24010 0.09417 -0.06200
C 	C 	0.37404 0.22044 0.12817 -0.04100
H 	H 	0.36093 0.23737 0.13937 0.04500
C 	C 	0.54383 0.28947 0.02847 -0.00300
C 	C 	0.52173 0.23777 0.12707 -0.02000
O 	O 	0.63713 0.85760 0.40259 -0.41300
O 	O 	0.61105 0.84477 0.30631 -0.40800
C 	C 	0.61192 0.85680 0.36075 0.37400
C 	C 	0.58042 0.87211 0.37839 -0.12500
C 	C 	0.55320 0.87463 0.33306 0.06400
H 	H 	0.55420 0.86620 0.29180 0.02800
C 	C 	0.52501 0.88963 0.34932 -0.13900
H 	H 	0.50610 0.89070 0.31900 0.09300
C 	C 	0.52362 0.90296 0.40810 0.10800
C 	C 	0.55099 0.90089 0.45310 -0.13900
H 	H 	0.55040 0.91000 0.49400 0.08200
C 	C 	0.57928 0.88516 0.43700 0.06500
H 	H 	0.59780 0.88360 0.46750 0.02600
C 	C 	0.49531 0.92188 0.42750 -0.06300
C 	C 	0.51306 0.95929 0.46150 -0.04100
H 	H 	0.54310 0.97240 0.47270 0.04500
C 	C 	0.41230 0.78950 0.36180 -0.00300
C 	C 	0.38270 0.81160 0.46040 -0.02000
O 	O 	0.30380 0.19093 0.73592 -0.41300
O 	O 	0.27772 0.17810 0.63964 -0.40800
C 	C 	0.27859 0.19013 0.69408 0.37400
C 	C 	0.24709 0.20544 0.71172 -0.12500
C 	C 	0.21987 0.20796 0.66639 0.06400
H 	H 	0.22087 0.19953 0.62513 0.02800
C 	C 	0.19168 0.22296 0.68265 -0.13900
H 	H 	0.17277 0.22403 0.65233 0.09300
C 	C 	0.19029 0.23629 0.74143 0.10800
C 	C 	0.21766 0.23422 0.78643 -0.13900
H 	H 	0.21707 0.24333 0.82733 0.08200
C 	C 	0.24595 0.21849 0.77033 0.06500
H 	H 	0.26447 0.21693 0.80083 0.02600
C 	C 	0.16198 0.25521 0.76083 -0.06300
C 	C 	0.17973 0.29262 0.79483 -0.04000
H 	H 	0.20977 0.30573 0.80603 0.04500
C 	C 	0.07897 0.12283 0.69513 -0.00300
C 	C 	0.04937 0.14493 0.79373 -0.02000
O 	O 	0.97046 0.52427 0.06926 -0.41200
O 	O 	0.94438 0.51144 0.97298 -0.40800
C 	C 	0.94525 0.52347 0.02742 0.37400
C 	C 	0.91375 0.53878 0.04506 -0.12400
C 	C 	0.88653 0.54130 0.99973 0.06200
H 	H 	0.88753 0.53287 0.95847 0.02800
C 	C 	0.85834 0.55630 0.01599 -0.13700
H 	H 	0.83943 0.55737 0.98567 0.09200
C 	C 	0.85695 0.56963 0.07477 0.10700
C 	C 	0.88432 0.56756 0.11977 -0.13800
H 	H 	0.88373 0.57667 0.16067 0.08200
C 	C 	0.91261 0.55183 0.10367 0.06400
H 	H 	0.93113 0.55027 0.13417 0.02700
C 	C 	0.82864 0.58855 0.09417 -0.06200
C 	C 	0.84639 0.62596 0.12817 -0.04100
H 	H 	0.87643 0.63907 0.13937 0.04500
C 	C 	0.74563 0.45617 0.02847 -0.00300
C 	C 	0.71603 0.47827 0.12707 -0.02000
Cu	Cu	0.68152 0.84076 0.39081 0.90600
Cu	Cu	0.34819 0.17409 0.72414 0.90600
Cu	Cu	0.01485 0.50743 0.05748 0.90600
Cu	Cu	0.15924 0.84076 0.39081 0.90600
Cu	Cu	0.82591 0.17409 0.72414 0.90600
Cu	Cu	0.49257 0.50743 0.05748 0.90600
Cu	Cu	0.15924 0.31848 0.39081 0.90600
Cu	Cu	0.82591 0.65181 0.72414 0.90600
Cu	Cu	0.49257 0.98515 0.05748 0.90600
Cu	Cu	0.84076 0.68152 0.60919 0.90600
Cu	Cu	0.50743 0.01485 0.94252 0.90600
Cu	Cu	0.17409 0.34819 0.27586 0.90600
Cu	Cu	0.84076 0.15924 0.60919 0.90600
Cu	Cu	0.50743 0.49257 0.94252 0.90600
Cu	Cu	0.17409 0.82591 0.27586 0.90600
Cu	Cu	0.31848 0.15924 0.60919 0.90600
Cu	Cu	0.98515 0.49257 0.94252 0.90600
Cu	Cu	0.65181 0.82591 0.27586 0.90600
O 	O 	0.43239 0.56761 0.37370 -0.21700
C 	C 	0.48977 0.51023 0.48090 0.00700
C 	C 	0.45136 0.54864 0.40850 0.13600
C 	C 	0.41135 0.58865 0.40920 0.09800
O 	O 	0.09906 0.90094 0.70703 -0.21700
C 	C 	0.15644 0.84356 0.81423 0.00600
C 	C 	0.11803 0.88197 0.74183 0.13600
C 	C 	0.07802 0.92198 0.74253 0.09800
O 	O 	0.76572 0.23428 0.04037 -0.21700
C 	C 	0.82310 0.17690 0.14757 0.00700
C 	C 	0.78469 0.21531 0.07517 0.13500
C 	C 	0.74468 0.25532 0.07587 0.09800
O 	O 	0.43239 0.86478 0.37370 -0.21700
C 	C 	0.48977 0.97954 0.48090 0.00700
C 	C 	0.45136 0.90272 0.40850 0.13600
C 	C 	0.41135 0.82270 0.40920 0.09800
O 	O 	0.09906 0.19811 0.70703 -0.21700
C 	C 	0.15644 0.31287 0.81423 0.00600
C 	C 	0.11803 0.23605 0.74183 0.13600
C 	C 	0.07802 0.15603 0.74253 0.09800
O 	O 	0.76572 0.53145 0.04037 -0.21700
C 	C 	0.82310 0.64621 0.14757 0.00700
C 	C 	0.78469 0.56939 0.07517 0.13600
C 	C 	0.74468 0.48937 0.07587 0.09800
O 	O 	0.13522 0.56761 0.37370 -0.21700
C 	C 	0.02046 0.51023 0.48090 0.00700
C 	C 	0.09728 0.54864 0.40850 0.13600
C 	C 	0.17730 0.58865 0.40920 0.09800
O 	O 	0.80189 0.90094 0.70703 -0.21700
C 	C 	0.68713 0.84356 0.81423 0.00600
C 	C 	0.76395 0.88197 0.74183 0.13600
C 	C 	0.84397 0.92198 0.74253 0.09800
O 	O 	0.46855 0.23428 0.04037 -0.21700
C 	C 	0.35379 0.17690 0.14757 0.00700
C 	C 	0.43061 0.21531 0.07517 0.13600
C 	C 	0.51063 0.25532 0.07587 0.09800
O 	O 	0.56761 0.43239 0.62630 -0.21700
C 	C 	0.51023 0.48977 0.51910 0.00700
C 	C 	0.54864 0.45136 0.59150 0.13600
C 	C 	0.58865 0.41135 0.59080 0.09800
O 	O 	0.23428 0.76572 0.95963 -0.21700
C 	C 	0.17690 0.82310 0.85243 0.00700
C 	C 	0.21531 0.78469 0.92483 0.13500
C 	C 	0.25532 0.74468 0.92413 0.09800
O 	O 	0.90094 0.09906 0.29297 -0.21700
C 	C 	0.84356 0.15644 0.18577 0.00600
C 	C 	0.88197 0.11803 0.25817 0.13600
C 	C 	0.92198 0.07802 0.25747 0.09800
O 	O 	0.86478 0.43239 0.62630 -0.21700
C 	C 	0.97954 0.48977 0.51910 0.00700
C 	C 	0.90272 0.45136 0.59150 0.13600
C 	C 	0.82270 0.41135 0.59080 0.09800
O 	O 	0.53145 0.76572 0.95963 -0.21700
C 	C 	0.64621 0.82310 0.85243 0.00700
C 	C 	0.56939 0.78469 0.92483 0.13600
C 	C 	0.48937 0.74468 0.92413 0.09800
O 	O 	0.19811 0.09906 0.29297 -0.21700
C 	C 	0.31287 0.15644 0.18577 0.00600
C 	C 	0.23605 0.11803 0.25817 0.13600
C 	C 	0.15603 0.07802 0.25747 0.09800
O 	O 	0.56761 0.13522 0.62630 -0.21700
C 	C 	0.51023 0.02046 0.51910 0.00700
C 	C 	0.54864 0.09728 0.59150 0.13600
C 	C 	0.58865 0.17730 0.59080 0.09800
O 	O 	0.23428 0.46855 0.95963 -0.21700
C 	C 	0.17690 0.35379 0.85243 0.00700
C 	C 	0.21531 0.43061 0.92483 0.13600
C 	C 	0.25532 0.51063 0.92413 0.09800
O 	O 	0.90094 0.80189 0.29297 -0.21700
C 	C 	0.84356 0.68713 0.18577 0.00600
C 	C 	0.88197 0.76395 0.25817 0.13600
C 	C 	0.92198 0.84397 0.25747 0.09800
