data_crystal

_cell_length_a 35.29790
_cell_length_b 35.29790
_cell_length_c 20.64430
_cell_angle_alpha 90.00000
_cell_angle_beta  90.00000
_cell_angle_gamma 120.00000

_symmetry_space_group_name_	'P 1'
_symmetry_space_group_name_H-M	'P 1'

loop_
_symmetry_equiv_pos_as_xyz
  x,y,z

loop_
_atom_site_label
_atom_site_type_symbol
_atom_site_fract_x
_atom_site_fract_y
_atom_site_fract_z
_atom_site_charge
O 	O 	0.77967 0.63716 0.59431 -0.40800
O 	O 	0.76677 0.61148 0.69641 -0.40300
C 	C 	0.75537 0.61178 0.63827 0.36400
C 	C 	0.70890 0.57988 0.62061 -0.12200
C 	C 	0.67972 0.55202 0.66701 0.06500
H 	H 	0.68970 0.55250 0.70990 0.02900
C 	C 	0.63629 0.52350 0.65143 -0.13800
H 	H 	0.61670 0.50470 0.68360 0.09400
C 	C 	0.62168 0.52248 0.58924 0.10900
C 	C 	0.65060 0.54993 0.54215 -0.13700
H 	H 	0.64070 0.54900 0.49910 0.08200
C 	C 	0.69449 0.57902 0.55850 0.06200
H 	H 	0.71420 0.59810 0.52660 0.02900
C 	C 	0.57451 0.49446 0.57119 -0.06300
C 	C 	0.55443 0.51283 0.53575 -0.04000
H 	H 	0.57140 0.54270 0.52330 0.04600
C 	C 	0.57260 0.38270 0.53620 -0.02300
C 	C 	0.58870 0.37680 0.64380 0.00200
C 	C 	0.57800 0.39960 0.58480 0.05200
O 	O 	0.44634 0.97049 0.92764 -0.40800
O 	O 	0.43344 0.94481 0.02974 -0.40300
C 	C 	0.42204 0.94511 0.97160 0.36400
C 	C 	0.37557 0.91321 0.95394 -0.12000
C 	C 	0.34639 0.88535 0.00034 0.06200
H 	H 	0.35637 0.88583 0.04323 0.03000
C 	C 	0.30296 0.85683 0.98476 -0.13400
H 	H 	0.28337 0.83803 0.01693 0.09200
C 	C 	0.28835 0.85581 0.92257 0.10700
C 	C 	0.31727 0.88326 0.87548 -0.13500
H 	H 	0.30737 0.88233 0.83243 0.08200
C 	C 	0.36116 0.91235 0.89183 0.06000
H 	H 	0.38087 0.93143 0.85993 0.02900
C 	C 	0.24118 0.82779 0.90452 -0.06200
C 	C 	0.22110 0.84616 0.86908 -0.04000
H 	H 	0.23807 0.87603 0.85663 0.04600
C 	C 	0.23927 0.71603 0.86953 -0.02300
C 	C 	0.25537 0.71013 0.97713 0.00200
C 	C 	0.24467 0.73293 0.91813 0.05200
O 	O 	0.11300 0.30383 0.26098 -0.40800
O 	O 	0.10010 0.27815 0.36308 -0.40200
C 	C 	0.08870 0.27845 0.30494 0.36400
C 	C 	0.04223 0.24655 0.28728 -0.12100
C 	C 	0.01305 0.21869 0.33368 0.06400
H 	H 	0.02303 0.21917 0.37657 0.02900
C 	C 	0.96962 0.19017 0.31810 -0.13800
H 	H 	0.95003 0.17137 0.35027 0.09300
C 	C 	0.95501 0.18915 0.25591 0.10700
C 	C 	0.98393 0.21660 0.20882 -0.13700
H 	H 	0.97403 0.21567 0.16577 0.08100
C 	C 	0.02782 0.24569 0.22517 0.06000
H 	H 	0.04753 0.26477 0.19327 0.02800
C 	C 	0.90784 0.16113 0.23786 -0.06400
C 	C 	0.88776 0.17950 0.20242 -0.04100
H 	H 	0.90473 0.20937 0.18997 0.04500
C 	C 	0.90593 0.04937 0.20287 -0.02300
C 	C 	0.92203 0.04347 0.31047 0.00100
C 	C 	0.91133 0.06627 0.25147 0.05100
O 	O 	0.36284 0.14251 0.59431 -0.40900
O 	O 	0.38852 0.15529 0.69641 -0.40400
C 	C 	0.38822 0.14359 0.63827 0.36300
C 	C 	0.42012 0.12902 0.62061 -0.12300
C 	C 	0.44798 0.12770 0.66701 0.06400
H 	H 	0.44750 0.13720 0.70990 0.02800
C 	C 	0.47650 0.11279 0.65143 -0.13900
H 	H 	0.49530 0.11200 0.68360 0.09300
C 	C 	0.47752 0.09920 0.58924 0.10800
C 	C 	0.45007 0.10067 0.54215 -0.13800
H 	H 	0.45100 0.09170 0.49910 0.08100
C 	C 	0.42098 0.11547 0.55850 0.06100
H 	H 	0.40190 0.11610 0.52660 0.02800
C 	C 	0.50554 0.08005 0.57119 -0.06400
C 	C 	0.48717 0.04160 0.53575 -0.04100
H 	H 	0.45730 0.02870 0.52330 0.04500
C 	C 	0.61730 0.18990 0.53620 -0.02400
C 	C 	0.62320 0.21190 0.64380 0.00100
C 	C 	0.60040 0.17840 0.58480 0.05100
O 	O 	0.02951 0.47584 0.92764 -0.40900
O 	O 	0.05519 0.48862 0.02974 -0.40400
C 	C 	0.05489 0.47692 0.97160 0.36300
C 	C 	0.08679 0.46235 0.95394 -0.12200
C 	C 	0.11465 0.46103 0.00034 0.06200
H 	H 	0.11417 0.47053 0.04323 0.02900
C 	C 	0.14317 0.44612 0.98476 -0.13700
H 	H 	0.16197 0.44533 0.01693 0.09200
C 	C 	0.14419 0.43253 0.92257 0.10700
C 	C 	0.11674 0.43400 0.87548 -0.13700
H 	H 	0.11767 0.42503 0.83243 0.08100
C 	C 	0.08765 0.44880 0.89183 0.06000
H 	H 	0.06857 0.44943 0.85993 0.02800
C 	C 	0.17221 0.41338 0.90452 -0.06400
C 	C 	0.15384 0.37493 0.86908 -0.04100
H 	H 	0.12397 0.36203 0.85663 0.04500
C 	C 	0.28397 0.52323 0.86953 -0.02400
C 	C 	0.28987 0.54523 0.97713 0.00100
C 	C 	0.26707 0.51173 0.91813 0.05100
O 	O 	0.69617 0.80918 0.26098 -0.40900
O 	O 	0.72185 0.82196 0.36308 -0.40400
C 	C 	0.72155 0.81026 0.30494 0.36300
C 	C 	0.75345 0.79569 0.28728 -0.12300
C 	C 	0.78131 0.79437 0.33368 0.06400
H 	H 	0.78083 0.80387 0.37657 0.02800
C 	C 	0.80983 0.77946 0.31810 -0.13900
H 	H 	0.82863 0.77867 0.35027 0.09300
C 	C 	0.81085 0.76587 0.25591 0.10800
C 	C 	0.78340 0.76734 0.20882 -0.13800
H 	H 	0.78433 0.75837 0.16577 0.08100
C 	C 	0.75431 0.78214 0.22517 0.06100
H 	H 	0.73523 0.78277 0.19327 0.02800
C 	C 	0.83887 0.74672 0.23786 -0.06400
C 	C 	0.82050 0.70827 0.20242 -0.04100
H 	H 	0.79063 0.69537 0.18997 0.04500
C 	C 	0.95063 0.85657 0.20287 -0.02400
C 	C 	0.95653 0.87857 0.31047 0.00100
C 	C 	0.93373 0.84507 0.25147 0.05100
O 	O 	0.85749 0.22033 0.59431 -0.40900
O 	O 	0.84471 0.23323 0.69641 -0.40400
C 	C 	0.85641 0.24463 0.63827 0.36300
C 	C 	0.87098 0.29110 0.62061 -0.12300
C 	C 	0.87230 0.32028 0.66701 0.06400
H 	H 	0.86280 0.31030 0.70990 0.02800
C 	C 	0.88721 0.36371 0.65143 -0.13900
H 	H 	0.88800 0.38330 0.68360 0.09300
C 	C 	0.90080 0.37832 0.58924 0.10800
C 	C 	0.89933 0.34940 0.54215 -0.13800
H 	H 	0.90830 0.35930 0.49910 0.08100
C 	C 	0.88453 0.30551 0.55850 0.06100
H 	H 	0.88390 0.28580 0.52660 0.02800
C 	C 	0.91995 0.42549 0.57119 -0.06400
C 	C 	0.95840 0.44557 0.53575 -0.04100
H 	H 	0.97130 0.42860 0.52330 0.04500
C 	C 	0.81010 0.42740 0.53620 -0.02400
C 	C 	0.78810 0.41130 0.64380 0.00100
C 	C 	0.82160 0.42200 0.58480 0.05100
O 	O 	0.52416 0.55366 0.92764 -0.40900
O 	O 	0.51138 0.56656 0.02974 -0.40400
C 	C 	0.52308 0.57796 0.97160 0.36300
C 	C 	0.53765 0.62443 0.95394 -0.12200
C 	C 	0.53897 0.65361 0.00034 0.06300
H 	H 	0.52947 0.64363 0.04323 0.02800
C 	C 	0.55388 0.69704 0.98476 -0.13800
H 	H 	0.55467 0.71663 0.01693 0.09200
C 	C 	0.56747 0.71165 0.92257 0.10700
C 	C 	0.56600 0.68273 0.87548 -0.13700
H 	H 	0.57497 0.69263 0.83243 0.08100
C 	C 	0.55120 0.63884 0.89183 0.06000
H 	H 	0.55057 0.61913 0.85993 0.02800
C 	C 	0.58662 0.75882 0.90452 -0.06400
C 	C 	0.62507 0.77890 0.86908 -0.04100
H 	H 	0.63797 0.76193 0.85663 0.04500
C 	C 	0.47677 0.76073 0.86953 -0.02400
C 	C 	0.45477 0.74463 0.97713 0.00100
C 	C 	0.48827 0.75533 0.91813 0.05100
O 	O 	0.19082 0.88700 0.26098 -0.40900
O 	O 	0.17804 0.89990 0.36308 -0.40300
C 	C 	0.18974 0.91130 0.30494 0.36300
C 	C 	0.20431 0.95777 0.28728 -0.12200
C 	C 	0.20563 0.98695 0.33368 0.06300
H 	H 	0.19613 0.97697 0.37657 0.02800
C 	C 	0.22054 0.03038 0.31810 -0.13800
H 	H 	0.22133 0.04997 0.35027 0.09300
C 	C 	0.23413 0.04499 0.25591 0.10700
C 	C 	0.23266 0.01607 0.20882 -0.13700
H 	H 	0.24163 0.02597 0.16577 0.08100
C 	C 	0.21786 0.97218 0.22517 0.06000
H 	H 	0.21723 0.95247 0.19327 0.02800
C 	C 	0.25328 0.09216 0.23786 -0.06400
C 	C 	0.29173 0.11224 0.20242 -0.04100
H 	H 	0.30463 0.09527 0.18997 0.04500
C 	C 	0.14343 0.09407 0.20287 -0.02400
C 	C 	0.12143 0.07797 0.31047 0.00100
C 	C 	0.15493 0.08867 0.25147 0.05100
O 	O 	0.63716 0.77967 0.40569 -0.40900
O 	O 	0.61148 0.76677 0.30359 -0.40400
C 	C 	0.61178 0.75537 0.36173 0.36300
C 	C 	0.57988 0.70890 0.37939 -0.12300
C 	C 	0.55202 0.67972 0.33299 0.06400
H 	H 	0.55250 0.68970 0.29010 0.02800
C 	C 	0.52350 0.63629 0.34857 -0.13900
H 	H 	0.50470 0.61670 0.31640 0.09300
C 	C 	0.52248 0.62168 0.41076 0.10800
C 	C 	0.54993 0.65060 0.45785 -0.13800
H 	H 	0.54900 0.64070 0.50090 0.08100
C 	C 	0.57902 0.69449 0.44150 0.06100
H 	H 	0.59810 0.71420 0.47340 0.02800
C 	C 	0.49446 0.57451 0.42881 -0.06400
C 	C 	0.51283 0.55443 0.46425 -0.04100
H 	H 	0.54270 0.57140 0.47670 0.04500
C 	C 	0.38270 0.57260 0.46380 -0.02400
C 	C 	0.37680 0.58870 0.35620 0.00100
C 	C 	0.39960 0.57800 0.41520 0.05100
O 	O 	0.30383 0.11300 0.73902 -0.40900
O 	O 	0.27815 0.10010 0.63692 -0.40300
C 	C 	0.27845 0.08870 0.69506 0.36300
C 	C 	0.24655 0.04223 0.71272 -0.12200
C 	C 	0.21869 0.01305 0.66632 0.06300
H 	H 	0.21917 0.02303 0.62343 0.02800
C 	C 	0.19017 0.96962 0.68190 -0.13800
H 	H 	0.17137 0.95003 0.64973 0.09300
C 	C 	0.18915 0.95501 0.74409 0.10700
C 	C 	0.21660 0.98393 0.79118 -0.13700
H 	H 	0.21567 0.97403 0.83423 0.08100
C 	C 	0.24569 0.02782 0.77483 0.06000
H 	H 	0.26477 0.04753 0.80673 0.02800
C 	C 	0.16113 0.90784 0.76214 -0.06400
C 	C 	0.17950 0.88776 0.79758 -0.04100
H 	H 	0.20937 0.90473 0.81003 0.04500
C 	C 	0.04937 0.90593 0.79713 -0.02300
C 	C 	0.04347 0.92203 0.68953 0.00100
C 	C 	0.06627 0.91133 0.74853 0.05100
O 	O 	0.97049 0.44634 0.07236 -0.40900
O 	O 	0.94481 0.43344 0.97026 -0.40400
C 	C 	0.94511 0.42204 0.02840 0.36300
C 	C 	0.91321 0.37557 0.04606 -0.12100
C 	C 	0.88535 0.34639 0.99966 0.06100
H 	H 	0.88583 0.35637 0.95677 0.02900
C 	C 	0.85683 0.30296 0.01524 -0.13500
H 	H 	0.83803 0.28337 0.98307 0.09100
C 	C 	0.85581 0.28835 0.07743 0.10600
C 	C 	0.88326 0.31727 0.12452 -0.13600
H 	H 	0.88233 0.30737 0.16757 0.08100
C 	C 	0.91235 0.36116 0.10817 0.05900
H 	H 	0.93143 0.38087 0.14007 0.02800
C 	C 	0.82779 0.24118 0.09548 -0.06300
C 	C 	0.84616 0.22110 0.13092 -0.04100
H 	H 	0.87603 0.23807 0.14337 0.04500
C 	C 	0.71603 0.23927 0.13047 -0.02400
C 	C 	0.71013 0.25537 0.02287 0.00100
C 	C 	0.73293 0.24467 0.08187 0.05100
O 	O 	0.14251 0.36284 0.40569 -0.40900
O 	O 	0.15529 0.38852 0.30359 -0.40400
C 	C 	0.14359 0.38822 0.36173 0.36300
C 	C 	0.12902 0.42012 0.37939 -0.12300
C 	C 	0.12770 0.44798 0.33299 0.06400
H 	H 	0.13720 0.44750 0.29010 0.02800
C 	C 	0.11279 0.47650 0.34857 -0.13900
H 	H 	0.11200 0.49530 0.31640 0.09300
C 	C 	0.09920 0.47752 0.41076 0.10800
C 	C 	0.10067 0.45007 0.45785 -0.13800
H 	H 	0.09170 0.45100 0.50090 0.08100
C 	C 	0.11547 0.42098 0.44150 0.06100
H 	H 	0.11610 0.40190 0.47340 0.02800
C 	C 	0.08005 0.50554 0.42881 -0.06400
C 	C 	0.04160 0.48717 0.46425 -0.04100
H 	H 	0.02870 0.45730 0.47670 0.04500
C 	C 	0.18990 0.61730 0.46380 -0.02400
C 	C 	0.21190 0.62320 0.35620 0.00100
C 	C 	0.17840 0.60040 0.41520 0.05100
O 	O 	0.80918 0.69617 0.73902 -0.40900
O 	O 	0.82196 0.72185 0.63692 -0.40400
C 	C 	0.81026 0.72155 0.69506 0.36300
C 	C 	0.79569 0.75345 0.71272 -0.12300
C 	C 	0.79437 0.78131 0.66632 0.06400
H 	H 	0.80387 0.78083 0.62343 0.02800
C 	C 	0.77946 0.80983 0.68190 -0.13900
H 	H 	0.77867 0.82863 0.64973 0.09300
C 	C 	0.76587 0.81085 0.74409 0.10800
C 	C 	0.76734 0.78340 0.79118 -0.13800
H 	H 	0.75837 0.78433 0.83423 0.08100
C 	C 	0.78214 0.75431 0.77483 0.06100
H 	H 	0.78277 0.73523 0.80673 0.02800
C 	C 	0.74672 0.83887 0.76214 -0.06400
C 	C 	0.70827 0.82050 0.79758 -0.04100
H 	H 	0.69537 0.79063 0.81003 0.04500
C 	C 	0.85657 0.95063 0.79713 -0.02400
C 	C 	0.87857 0.95653 0.68953 0.00100
C 	C 	0.84507 0.93373 0.74853 0.05100
O 	O 	0.47584 0.02951 0.07236 -0.40900
O 	O 	0.48862 0.05519 0.97026 -0.40400
C 	C 	0.47692 0.05489 0.02840 0.36300
C 	C 	0.46235 0.08679 0.04606 -0.12200
C 	C 	0.46103 0.11465 0.99966 0.06200
H 	H 	0.47053 0.11417 0.95677 0.02900
C 	C 	0.44612 0.14317 0.01524 -0.13700
H 	H 	0.44533 0.16197 0.98307 0.09200
C 	C 	0.43253 0.14419 0.07743 0.10700
C 	C 	0.43400 0.11674 0.12452 -0.13700
H 	H 	0.42503 0.11767 0.16757 0.08100
C 	C 	0.44880 0.08765 0.10817 0.06000
H 	H 	0.44943 0.06857 0.14007 0.02800
C 	C 	0.41338 0.17221 0.09548 -0.06400
C 	C 	0.37493 0.15384 0.13092 -0.04100
H 	H 	0.36203 0.12397 0.14337 0.04500
C 	C 	0.52323 0.28397 0.13047 -0.02400
C 	C 	0.54523 0.28987 0.02287 0.00100
C 	C 	0.51173 0.26707 0.08187 0.05100
O 	O 	0.22033 0.85749 0.40569 -0.40900
O 	O 	0.23323 0.84471 0.30359 -0.40400
C 	C 	0.24463 0.85641 0.36173 0.36300
C 	C 	0.29110 0.87098 0.37939 -0.12300
C 	C 	0.32028 0.87230 0.33299 0.06400
H 	H 	0.31030 0.86280 0.29010 0.02800
C 	C 	0.36371 0.88721 0.34857 -0.13900
H 	H 	0.38330 0.88800 0.31640 0.09300
C 	C 	0.37832 0.90080 0.41076 0.10800
C 	C 	0.34940 0.89933 0.45785 -0.13800
H 	H 	0.35930 0.90830 0.50090 0.08100
C 	C 	0.30551 0.88453 0.44150 0.06100
H 	H 	0.28580 0.88390 0.47340 0.02800
C 	C 	0.42549 0.91995 0.42881 -0.06400
C 	C 	0.44557 0.95840 0.46425 -0.04100
H 	H 	0.42860 0.97130 0.47670 0.04500
C 	C 	0.42740 0.81010 0.46380 -0.02400
C 	C 	0.41130 0.78810 0.35620 0.00100
C 	C 	0.42200 0.82160 0.41520 0.05100
O 	O 	0.88700 0.19082 0.73902 -0.40900
O 	O 	0.89990 0.17804 0.63692 -0.40300
C 	C 	0.91130 0.18974 0.69506 0.36300
C 	C 	0.95777 0.20431 0.71272 -0.12200
C 	C 	0.98695 0.20563 0.66632 0.06300
H 	H 	0.97697 0.19613 0.62343 0.02800
C 	C 	0.03038 0.22054 0.68190 -0.13800
H 	H 	0.04997 0.22133 0.64973 0.09300
C 	C 	0.04499 0.23413 0.74409 0.10700
C 	C 	0.01607 0.23266 0.79118 -0.13700
H 	H 	0.02597 0.24163 0.83423 0.08100
C 	C 	0.97218 0.21786 0.77483 0.06000
H 	H 	0.95247 0.21723 0.80673 0.02800
C 	C 	0.09216 0.25328 0.76214 -0.06400
C 	C 	0.11224 0.29173 0.79758 -0.04100
H 	H 	0.09527 0.30463 0.81003 0.04500
C 	C 	0.09407 0.14343 0.79713 -0.02400
C 	C 	0.07797 0.12143 0.68953 0.00100
C 	C 	0.08867 0.15493 0.74853 0.05100
O 	O 	0.55366 0.52416 0.07236 -0.40900
O 	O 	0.56656 0.51138 0.97026 -0.40400
C 	C 	0.57796 0.52308 0.02840 0.36300
C 	C 	0.62443 0.53765 0.04606 -0.12200
C 	C 	0.65361 0.53897 0.99966 0.06300
H 	H 	0.64363 0.52947 0.95677 0.02800
C 	C 	0.69704 0.55388 0.01524 -0.13800
H 	H 	0.71663 0.55467 0.98307 0.09200
C 	C 	0.71165 0.56747 0.07743 0.10700
C 	C 	0.68273 0.56600 0.12452 -0.13700
H 	H 	0.69263 0.57497 0.16757 0.08100
C 	C 	0.63884 0.55120 0.10817 0.06000
H 	H 	0.61913 0.55057 0.14007 0.02800
C 	C 	0.75882 0.58662 0.09548 -0.06400
C 	C 	0.77890 0.62507 0.13092 -0.04100
H 	H 	0.76193 0.63797 0.14337 0.04500
C 	C 	0.76073 0.47677 0.13047 -0.02400
C 	C 	0.74463 0.45477 0.02287 0.00100
C 	C 	0.75533 0.48827 0.08187 0.05100
O 	O 	0.22033 0.36284 0.40569 -0.40900
O 	O 	0.23323 0.38852 0.30359 -0.40400
C 	C 	0.24463 0.38822 0.36173 0.36300
C 	C 	0.29110 0.42012 0.37939 -0.12300
C 	C 	0.32028 0.44798 0.33299 0.06400
H 	H 	0.31030 0.44750 0.29010 0.02800
C 	C 	0.36371 0.47650 0.34857 -0.13900
H 	H 	0.38330 0.49530 0.31640 0.09300
C 	C 	0.37832 0.47752 0.41076 0.10800
C 	C 	0.34940 0.45007 0.45785 -0.13800
H 	H 	0.35930 0.45100 0.50090 0.08100
C 	C 	0.30551 0.42098 0.44150 0.06100
H 	H 	0.28580 0.40190 0.47340 0.02800
C 	C 	0.42549 0.50554 0.42881 -0.06400
C 	C 	0.44557 0.48717 0.46425 -0.04100
H 	H 	0.42860 0.45730 0.47670 0.04500
C 	C 	0.42740 0.61730 0.46380 -0.02400
C 	C 	0.41130 0.62320 0.35620 0.00100
C 	C 	0.42200 0.60040 0.41520 0.05100
O 	O 	0.88700 0.69617 0.73902 -0.40900
O 	O 	0.89990 0.72185 0.63692 -0.40300
C 	C 	0.91130 0.72155 0.69506 0.36300
C 	C 	0.95777 0.75345 0.71272 -0.12200
C 	C 	0.98695 0.78131 0.66632 0.06300
H 	H 	0.97697 0.78083 0.62343 0.02800
C 	C 	0.03038 0.80983 0.68190 -0.13800
H 	H 	0.04997 0.82863 0.64973 0.09300
C 	C 	0.04499 0.81085 0.74409 0.10700
C 	C 	0.01607 0.78340 0.79118 -0.13700
H 	H 	0.02597 0.78433 0.83423 0.08100
C 	C 	0.97218 0.75431 0.77483 0.06000
H 	H 	0.95247 0.73523 0.80673 0.02800
C 	C 	0.09216 0.83887 0.76214 -0.06400
C 	C 	0.11224 0.82050 0.79758 -0.04100
H 	H 	0.09527 0.79063 0.81003 0.04500
C 	C 	0.09407 0.95063 0.79713 -0.02300
C 	C 	0.07797 0.95653 0.68953 0.00100
C 	C 	0.08867 0.93373 0.74853 0.05100
O 	O 	0.55366 0.02951 0.07236 -0.40900
O 	O 	0.56656 0.05519 0.97026 -0.40400
C 	C 	0.57796 0.05489 0.02840 0.36300
C 	C 	0.62443 0.08679 0.04606 -0.12100
C 	C 	0.65361 0.11465 0.99966 0.06100
H 	H 	0.64363 0.11417 0.95677 0.02900
C 	C 	0.69704 0.14317 0.01524 -0.13500
H 	H 	0.71663 0.16197 0.98307 0.09100
C 	C 	0.71165 0.14419 0.07743 0.10600
C 	C 	0.68273 0.11674 0.12452 -0.13600
H 	H 	0.69263 0.11767 0.16757 0.08100
C 	C 	0.63884 0.08765 0.10817 0.05900
H 	H 	0.61913 0.06857 0.14007 0.02800
C 	C 	0.75882 0.17221 0.09548 -0.06300
C 	C 	0.77890 0.15384 0.13092 -0.04100
H 	H 	0.76193 0.12397 0.14337 0.04500
C 	C 	0.76073 0.28397 0.13047 -0.02400
C 	C 	0.74463 0.28987 0.02287 0.00100
C 	C 	0.75533 0.26707 0.08187 0.05100
O 	O 	0.63716 0.85749 0.40569 -0.40900
O 	O 	0.61148 0.84471 0.30359 -0.40400
C 	C 	0.61178 0.85641 0.36173 0.36300
C 	C 	0.57988 0.87098 0.37939 -0.12300
C 	C 	0.55202 0.87230 0.33299 0.06400
H 	H 	0.55250 0.86280 0.29010 0.02800
C 	C 	0.52350 0.88721 0.34857 -0.13900
H 	H 	0.50470 0.88800 0.31640 0.09300
C 	C 	0.52248 0.90080 0.41076 0.10800
C 	C 	0.54993 0.89933 0.45785 -0.13800
H 	H 	0.54900 0.90830 0.50090 0.08100
C 	C 	0.57902 0.88453 0.44150 0.06100
H 	H 	0.59810 0.88390 0.47340 0.02800
C 	C 	0.49446 0.91995 0.42881 -0.06400
C 	C 	0.51283 0.95840 0.46425 -0.04100
H 	H 	0.54270 0.97130 0.47670 0.04500
C 	C 	0.38270 0.81010 0.46380 -0.02400
C 	C 	0.37680 0.78810 0.35620 0.00100
C 	C 	0.39960 0.82160 0.41520 0.05100
O 	O 	0.30383 0.19082 0.73902 -0.40900
O 	O 	0.27815 0.17804 0.63692 -0.40400
C 	C 	0.27845 0.18974 0.69506 0.36300
C 	C 	0.24655 0.20431 0.71272 -0.12300
C 	C 	0.21869 0.20563 0.66632 0.06400
H 	H 	0.21917 0.19613 0.62343 0.02800
C 	C 	0.19017 0.22054 0.68190 -0.13900
H 	H 	0.17137 0.22133 0.64973 0.09300
C 	C 	0.18915 0.23413 0.74409 0.10800
C 	C 	0.21660 0.23266 0.79118 -0.13800
H 	H 	0.21567 0.24163 0.83423 0.08100
C 	C 	0.24569 0.21786 0.77483 0.06100
H 	H 	0.26477 0.21723 0.80673 0.02800
C 	C 	0.16113 0.25328 0.76214 -0.06400
C 	C 	0.17950 0.29173 0.79758 -0.04100
H 	H 	0.20937 0.30463 0.81003 0.04500
C 	C 	0.04937 0.14343 0.79713 -0.02400
C 	C 	0.04347 0.12143 0.68953 0.00100
C 	C 	0.06627 0.15493 0.74853 0.05100
O 	O 	0.97049 0.52416 0.07236 -0.40900
O 	O 	0.94481 0.51138 0.97026 -0.40400
C 	C 	0.94511 0.52308 0.02840 0.36300
C 	C 	0.91321 0.53765 0.04606 -0.12200
C 	C 	0.88535 0.53897 0.99966 0.06200
H 	H 	0.88583 0.52947 0.95677 0.02900
C 	C 	0.85683 0.55388 0.01524 -0.13700
H 	H 	0.83803 0.55467 0.98307 0.09200
C 	C 	0.85581 0.56747 0.07743 0.10700
C 	C 	0.88326 0.56600 0.12452 -0.13700
H 	H 	0.88233 0.57497 0.16757 0.08100
C 	C 	0.91235 0.55120 0.10817 0.06000
H 	H 	0.93143 0.55057 0.14007 0.02800
C 	C 	0.82779 0.58662 0.09548 -0.06400
C 	C 	0.84616 0.62507 0.13092 -0.04100
H 	H 	0.87603 0.63797 0.14337 0.04500
C 	C 	0.71603 0.47677 0.13047 -0.02400
C 	C 	0.71013 0.45477 0.02287 0.00100
C 	C 	0.73293 0.48827 0.08187 0.05100
O 	O 	0.14251 0.77967 0.40569 -0.40900
O 	O 	0.15529 0.76677 0.30359 -0.40400
C 	C 	0.14359 0.75537 0.36173 0.36300
C 	C 	0.12902 0.70890 0.37939 -0.12300
C 	C 	0.12770 0.67972 0.33299 0.06400
H 	H 	0.13720 0.68970 0.29010 0.02800
C 	C 	0.11279 0.63629 0.34857 -0.13900
H 	H 	0.11200 0.61670 0.31640 0.09300
C 	C 	0.09920 0.62168 0.41076 0.10800
C 	C 	0.10067 0.65060 0.45785 -0.13800
H 	H 	0.09170 0.64070 0.50090 0.08100
C 	C 	0.11547 0.69449 0.44150 0.06100
H 	H 	0.11610 0.71420 0.47340 0.02800
C 	C 	0.08005 0.57451 0.42881 -0.06400
C 	C 	0.04160 0.55443 0.46425 -0.04100
H 	H 	0.02870 0.57140 0.47670 0.04500
C 	C 	0.18990 0.57260 0.46380 -0.02400
C 	C 	0.21190 0.58870 0.35620 0.00100
C 	C 	0.17840 0.57800 0.41520 0.05100
O 	O 	0.80918 0.11300 0.73902 -0.40900
O 	O 	0.82196 0.10010 0.63692 -0.40300
C 	C 	0.81026 0.08870 0.69506 0.36300
C 	C 	0.79569 0.04223 0.71272 -0.12200
C 	C 	0.79437 0.01305 0.66632 0.06300
H 	H 	0.80387 0.02303 0.62343 0.02800
C 	C 	0.77946 0.96962 0.68190 -0.13800
H 	H 	0.77867 0.95003 0.64973 0.09300
C 	C 	0.76587 0.95501 0.74409 0.10700
C 	C 	0.76734 0.98393 0.79118 -0.13700
H 	H 	0.75837 0.97403 0.83423 0.08100
C 	C 	0.78214 0.02782 0.77483 0.06000
H 	H 	0.78277 0.04753 0.80673 0.02800
C 	C 	0.74672 0.90784 0.76214 -0.06400
C 	C 	0.70827 0.88776 0.79758 -0.04100
H 	H 	0.69537 0.90473 0.81003 0.04500
C 	C 	0.85657 0.90593 0.79713 -0.02400
C 	C 	0.87857 0.92203 0.68953 0.00100
C 	C 	0.84507 0.91133 0.74853 0.05100
O 	O 	0.47584 0.44634 0.07236 -0.40900
O 	O 	0.48862 0.43344 0.97026 -0.40400
C 	C 	0.47692 0.42204 0.02840 0.36300
C 	C 	0.46235 0.37557 0.04606 -0.12200
C 	C 	0.46103 0.34639 0.99966 0.06300
H 	H 	0.47053 0.35637 0.95677 0.02800
C 	C 	0.44612 0.30296 0.01524 -0.13800
H 	H 	0.44533 0.28337 0.98307 0.09200
C 	C 	0.43253 0.28835 0.07743 0.10700
C 	C 	0.43400 0.31727 0.12452 -0.13700
H 	H 	0.42503 0.30737 0.16757 0.08100
C 	C 	0.44880 0.36116 0.10817 0.06000
H 	H 	0.44943 0.38087 0.14007 0.02800
C 	C 	0.41338 0.24118 0.09548 -0.06400
C 	C 	0.37493 0.22110 0.13092 -0.04100
H 	H 	0.36203 0.23807 0.14337 0.04500
C 	C 	0.52323 0.23927 0.13047 -0.02400
C 	C 	0.54523 0.25537 0.02287 0.00100
C 	C 	0.51173 0.24467 0.08187 0.05100
O 	O 	0.36284 0.22033 0.59431 -0.40900
O 	O 	0.38852 0.23323 0.69641 -0.40400
C 	C 	0.38822 0.24463 0.63827 0.36300
C 	C 	0.42012 0.29110 0.62061 -0.12300
C 	C 	0.44798 0.32028 0.66701 0.06400
H 	H 	0.44750 0.31030 0.70990 0.02800
C 	C 	0.47650 0.36371 0.65143 -0.13900
H 	H 	0.49530 0.38330 0.68360 0.09300
C 	C 	0.47752 0.37832 0.58924 0.10800
C 	C 	0.45007 0.34940 0.54215 -0.13800
H 	H 	0.45100 0.35930 0.49910 0.08100
C 	C 	0.42098 0.30551 0.55850 0.06100
H 	H 	0.40190 0.28580 0.52660 0.02800
C 	C 	0.50554 0.42549 0.57119 -0.06400
C 	C 	0.48717 0.44557 0.53575 -0.04100
H 	H 	0.45730 0.42860 0.52330 0.04500
C 	C 	0.61730 0.42740 0.53620 -0.02400
C 	C 	0.62320 0.41130 0.64380 0.00100
C 	C 	0.60040 0.42200 0.58480 0.05100
O 	O 	0.02951 0.55366 0.92764 -0.40900
O 	O 	0.05519 0.56656 0.02974 -0.40400
C 	C 	0.05489 0.57796 0.97160 0.36300
C 	C 	0.08679 0.62443 0.95394 -0.12100
C 	C 	0.11465 0.65361 0.00034 0.06100
H 	H 	0.11417 0.64363 0.04323 0.02900
C 	C 	0.14317 0.69704 0.98476 -0.13500
H 	H 	0.16197 0.71663 0.01693 0.09100
C 	C 	0.14419 0.71165 0.92257 0.10600
C 	C 	0.11674 0.68273 0.87548 -0.13600
H 	H 	0.11767 0.69263 0.83243 0.08100
C 	C 	0.08765 0.63884 0.89183 0.05900
H 	H 	0.06857 0.61913 0.85993 0.02800
C 	C 	0.17221 0.75882 0.90452 -0.06300
C 	C 	0.15384 0.77890 0.86908 -0.04100
H 	H 	0.12397 0.76193 0.85663 0.04500
C 	C 	0.28397 0.76073 0.86953 -0.02400
C 	C 	0.28987 0.74463 0.97713 0.00100
C 	C 	0.26707 0.75533 0.91813 0.05100
O 	O 	0.69617 0.88700 0.26098 -0.40900
O 	O 	0.72185 0.89990 0.36308 -0.40300
C 	C 	0.72155 0.91130 0.30494 0.36300
C 	C 	0.75345 0.95777 0.28728 -0.12200
C 	C 	0.78131 0.98695 0.33368 0.06300
H 	H 	0.78083 0.97697 0.37657 0.02800
C 	C 	0.80983 0.03038 0.31810 -0.13800
H 	H 	0.82863 0.04997 0.35027 0.09300
C 	C 	0.81085 0.04499 0.25591 0.10700
C 	C 	0.78340 0.01607 0.20882 -0.13700
H 	H 	0.78433 0.02597 0.16577 0.08100
C 	C 	0.75431 0.97218 0.22517 0.06000
H 	H 	0.73523 0.95247 0.19327 0.02800
C 	C 	0.83887 0.09216 0.23786 -0.06400
C 	C 	0.82050 0.11224 0.20242 -0.04100
H 	H 	0.79063 0.09527 0.18997 0.04500
C 	C 	0.95063 0.09407 0.20287 -0.02300
C 	C 	0.95653 0.07797 0.31047 0.00100
C 	C 	0.93373 0.08867 0.25147 0.05100
O 	O 	0.85749 0.63716 0.59431 -0.40900
O 	O 	0.84471 0.61148 0.69641 -0.40400
C 	C 	0.85641 0.61178 0.63827 0.36300
C 	C 	0.87098 0.57988 0.62061 -0.12300
C 	C 	0.87230 0.55202 0.66701 0.06400
H 	H 	0.86280 0.55250 0.70990 0.02800
C 	C 	0.88721 0.52350 0.65143 -0.13900
H 	H 	0.88800 0.50470 0.68360 0.09300
C 	C 	0.90080 0.52248 0.58924 0.10800
C 	C 	0.89933 0.54993 0.54215 -0.13800
H 	H 	0.90830 0.54900 0.49910 0.08100
C 	C 	0.88453 0.57902 0.55850 0.06100
H 	H 	0.88390 0.59810 0.52660 0.02800
C 	C 	0.91995 0.49446 0.57119 -0.06400
C 	C 	0.95840 0.51283 0.53575 -0.04100
H 	H 	0.97130 0.54270 0.52330 0.04500
C 	C 	0.81010 0.38270 0.53620 -0.02400
C 	C 	0.78810 0.37680 0.64380 0.00100
C 	C 	0.82160 0.39960 0.58480 0.05100
O 	O 	0.52416 0.97049 0.92764 -0.40900
O 	O 	0.51138 0.94481 0.02974 -0.40400
C 	C 	0.52308 0.94511 0.97160 0.36300
C 	C 	0.53765 0.91321 0.95394 -0.12200
C 	C 	0.53897 0.88535 0.00034 0.06200
H 	H 	0.52947 0.88583 0.04323 0.02900
C 	C 	0.55388 0.85683 0.98476 -0.13700
H 	H 	0.55467 0.83803 0.01693 0.09200
C 	C 	0.56747 0.85581 0.92257 0.10700
C 	C 	0.56600 0.88326 0.87548 -0.13700
H 	H 	0.57497 0.88233 0.83243 0.08100
C 	C 	0.55120 0.91235 0.89183 0.06000
H 	H 	0.55057 0.93143 0.85993 0.02800
C 	C 	0.58662 0.82779 0.90452 -0.06400
C 	C 	0.62507 0.84616 0.86908 -0.04100
H 	H 	0.63797 0.87603 0.85663 0.04500
C 	C 	0.47677 0.71603 0.86953 -0.02400
C 	C 	0.45477 0.71013 0.97713 0.00100
C 	C 	0.48827 0.73293 0.91813 0.05100
O 	O 	0.19082 0.30383 0.26098 -0.40900
O 	O 	0.17804 0.27815 0.36308 -0.40400
C 	C 	0.18974 0.27845 0.30494 0.36300
C 	C 	0.20431 0.24655 0.28728 -0.12300
C 	C 	0.20563 0.21869 0.33368 0.06400
H 	H 	0.19613 0.21917 0.37657 0.02800
C 	C 	0.22054 0.19017 0.31810 -0.13900
H 	H 	0.22133 0.17137 0.35027 0.09300
C 	C 	0.23413 0.18915 0.25591 0.10800
C 	C 	0.23266 0.21660 0.20882 -0.13800
H 	H 	0.24163 0.21567 0.16577 0.08100
C 	C 	0.21786 0.24569 0.22517 0.06100
H 	H 	0.21723 0.26477 0.19327 0.02800
C 	C 	0.25328 0.16113 0.23786 -0.06400
C 	C 	0.29173 0.17950 0.20242 -0.04100
H 	H 	0.30463 0.20937 0.18997 0.04500
C 	C 	0.14343 0.04937 0.20287 -0.02400
C 	C 	0.12143 0.04347 0.31047 0.00100
C 	C 	0.15493 0.06627 0.25147 0.05100
O 	O 	0.77967 0.14251 0.59431 -0.40900
O 	O 	0.76677 0.15529 0.69641 -0.40400
C 	C 	0.75537 0.14359 0.63827 0.36300
C 	C 	0.70890 0.12902 0.62061 -0.12300
C 	C 	0.67972 0.12770 0.66701 0.06400
H 	H 	0.68970 0.13720 0.70990 0.02800
C 	C 	0.63629 0.11279 0.65143 -0.13900
H 	H 	0.61670 0.11200 0.68360 0.09300
C 	C 	0.62168 0.09920 0.58924 0.10800
C 	C 	0.65060 0.10067 0.54215 -0.13800
H 	H 	0.64070 0.09170 0.49910 0.08100
C 	C 	0.69449 0.11547 0.55850 0.06100
H 	H 	0.71420 0.11610 0.52660 0.02800
C 	C 	0.57451 0.08005 0.57119 -0.06400
C 	C 	0.55443 0.04160 0.53575 -0.04100
H 	H 	0.57140 0.02870 0.52330 0.04500
C 	C 	0.57260 0.18990 0.53620 -0.02400
C 	C 	0.58870 0.21190 0.64380 0.00100
C 	C 	0.57800 0.17840 0.58480 0.05100
O 	O 	0.44634 0.47584 0.92764 -0.40900
O 	O 	0.43344 0.48862 0.02974 -0.40400
C 	C 	0.42204 0.47692 0.97160 0.36300
C 	C 	0.37557 0.46235 0.95394 -0.12200
C 	C 	0.34639 0.46103 0.00034 0.06300
H 	H 	0.35637 0.47053 0.04323 0.02800
C 	C 	0.30296 0.44612 0.98476 -0.13800
H 	H 	0.28337 0.44533 0.01693 0.09200
C 	C 	0.28835 0.43253 0.92257 0.10700
C 	C 	0.31727 0.43400 0.87548 -0.13700
H 	H 	0.30737 0.42503 0.83243 0.08100
C 	C 	0.36116 0.44880 0.89183 0.06000
H 	H 	0.38087 0.44943 0.85993 0.02800
C 	C 	0.24118 0.41338 0.90452 -0.06400
C 	C 	0.22110 0.37493 0.86908 -0.04100
H 	H 	0.23807 0.36203 0.85663 0.04500
C 	C 	0.23927 0.52323 0.86953 -0.02400
C 	C 	0.25537 0.54523 0.97713 0.00100
C 	C 	0.24467 0.51173 0.91813 0.05100
O 	O 	0.11300 0.80918 0.26098 -0.40900
O 	O 	0.10010 0.82196 0.36308 -0.40300
C 	C 	0.08870 0.81026 0.30494 0.36300
C 	C 	0.04223 0.79569 0.28728 -0.12200
C 	C 	0.01305 0.79437 0.33368 0.06300
H 	H 	0.02303 0.80387 0.37657 0.02800
C 	C 	0.96962 0.77946 0.31810 -0.13800
H 	H 	0.95003 0.77867 0.35027 0.09300
C 	C 	0.95501 0.76587 0.25591 0.10700
C 	C 	0.98393 0.76734 0.20882 -0.13700
H 	H 	0.97403 0.75837 0.16577 0.08100
C 	C 	0.02782 0.78214 0.22517 0.06000
H 	H 	0.04753 0.78277 0.19327 0.02800
C 	C 	0.90784 0.74672 0.23786 -0.06400
C 	C 	0.88776 0.70827 0.20242 -0.04100
H 	H 	0.90473 0.69537 0.18997 0.04500
C 	C 	0.90593 0.85657 0.20287 -0.02400
C 	C 	0.92203 0.87857 0.31047 0.00100
C 	C 	0.91133 0.84507 0.25147 0.05100
Cu	Cu	0.82593 0.65187 0.72659 0.90700
Cu	Cu	0.49260 0.98520 0.05992 0.90700
Cu	Cu	0.15927 0.31854 0.39326 0.90700
Cu	Cu	0.34813 0.17406 0.72659 0.90700
Cu	Cu	0.01480 0.50740 0.05992 0.90700
Cu	Cu	0.68146 0.84073 0.39326 0.90700
Cu	Cu	0.82593 0.17407 0.72659 0.90700
Cu	Cu	0.49260 0.50740 0.05992 0.90700
Cu	Cu	0.15927 0.84073 0.39326 0.90700
Cu	Cu	0.65187 0.82593 0.27341 0.90700
Cu	Cu	0.31854 0.15927 0.60674 0.90700
Cu	Cu	0.98520 0.49260 0.94008 0.90700
Cu	Cu	0.17406 0.34813 0.27341 0.90700
Cu	Cu	0.84073 0.68146 0.60674 0.90700
Cu	Cu	0.50740 0.01480 0.94008 0.90700
Cu	Cu	0.17407 0.82594 0.27341 0.90700
Cu	Cu	0.84073 0.15927 0.60674 0.90700
Cu	Cu	0.50740 0.49260 0.94008 0.90700
O 	O 	0.56898 0.43102 0.62396 -0.21800
C 	C 	0.51042 0.48958 0.51740 0.00700
C 	C 	0.54980 0.45020 0.58960 0.13900
O 	O 	0.23565 0.76435 0.95729 -0.21800
C 	C 	0.17709 0.82291 0.85073 0.00700
C 	C 	0.21647 0.78353 0.92293 0.13800
O 	O 	0.90231 0.09769 0.29063 -0.21800
C 	C 	0.84375 0.15625 0.18407 0.00700
C 	C 	0.88313 0.11687 0.25627 0.13900
O 	O 	0.56898 0.13796 0.62396 -0.21800
C 	C 	0.51042 0.02084 0.51740 0.00700
C 	C 	0.54980 0.09960 0.58960 0.13900
O 	O 	0.23565 0.47129 0.95729 -0.21800
C 	C 	0.17709 0.35417 0.85073 0.00700
C 	C 	0.21647 0.43293 0.92293 0.13900
O 	O 	0.90231 0.80463 0.29063 -0.21800
C 	C 	0.84375 0.68751 0.18407 0.00700
C 	C 	0.88313 0.76627 0.25627 0.13900
O 	O 	0.86204 0.43102 0.62396 -0.21800
C 	C 	0.97916 0.48958 0.51740 0.00700
C 	C 	0.90040 0.45020 0.58960 0.13900
O 	O 	0.52871 0.76435 0.95729 -0.21800
C 	C 	0.64583 0.82291 0.85073 0.00700
C 	C 	0.56707 0.78353 0.92293 0.13900
O 	O 	0.19537 0.09769 0.29063 -0.21800
C 	C 	0.31249 0.15625 0.18407 0.00700
C 	C 	0.23373 0.11687 0.25627 0.13900
O 	O 	0.43102 0.56898 0.37604 -0.21800
C 	C 	0.48958 0.51042 0.48260 0.00700
C 	C 	0.45020 0.54980 0.41040 0.13900
O 	O 	0.09769 0.90231 0.70937 -0.21800
C 	C 	0.15625 0.84375 0.81593 0.00700
C 	C 	0.11687 0.88313 0.74373 0.13900
O 	O 	0.76435 0.23565 0.04271 -0.21800
C 	C 	0.82291 0.17709 0.14927 0.00700
C 	C 	0.78353 0.21647 0.07707 0.13800
O 	O 	0.13796 0.56898 0.37604 -0.21800
C 	C 	0.02084 0.51042 0.48260 0.00700
C 	C 	0.09960 0.54980 0.41040 0.13900
O 	O 	0.80463 0.90231 0.70937 -0.21800
C 	C 	0.68751 0.84375 0.81593 0.00700
C 	C 	0.76627 0.88313 0.74373 0.13900
O 	O 	0.47129 0.23565 0.04271 -0.21800
C 	C 	0.35417 0.17709 0.14927 0.00700
C 	C 	0.43293 0.21647 0.07707 0.13900
O 	O 	0.43102 0.86204 0.37604 -0.21800
C 	C 	0.48958 0.97916 0.48260 0.00700
C 	C 	0.45020 0.90040 0.41040 0.13900
O 	O 	0.09769 0.19537 0.70937 -0.21800
C 	C 	0.15625 0.31249 0.81593 0.00700
C 	C 	0.11687 0.23373 0.74373 0.13900
O 	O 	0.76435 0.52871 0.04271 -0.21800
C 	C 	0.82291 0.64583 0.14927 0.00700
C 	C 	0.78353 0.56707 0.07707 0.13900
