data_crystal

_cell_length_a 35.85140
_cell_length_b 35.85140
_cell_length_c 15.62600
_cell_angle_alpha 90.00000
_cell_angle_beta  90.00000
_cell_angle_gamma 120.00000

_symmetry_space_group_name_	'P 1'
_symmetry_space_group_name_H-M	'P 1'

loop_
_symmetry_equiv_pos_as_xyz
  x,y,z

loop_
_atom_site_label
_atom_site_type_symbol
_atom_site_fract_x
_atom_site_fract_y
_atom_site_fract_z
_atom_site_charge
O 	O 	0.63017 0.77651 0.41340 -0.40800
O 	O 	0.61478 0.76904 0.27270 -0.41300
C 	C 	0.60987 0.75528 0.34650 0.37300
C 	C 	0.57746 0.70854 0.36440 -0.14000
C 	C 	0.55252 0.68204 0.29730 0.08300
H 	H 	0.55460 0.69300 0.24250 0.01800
C 	C 	0.52422 0.63828 0.31490 -0.16900
H 	H 	0.50730 0.62040 0.27080 0.10600
C 	C 	0.52074 0.62123 0.39420 0.13800
C 	C 	0.54450 0.64866 0.45890 -0.17400
H 	H 	0.54140 0.63800 0.51430 0.09500
C 	C 	0.57326 0.69236 0.44350 0.09000
H 	H 	0.58950 0.71020 0.48830 0.01700
C 	C 	0.49314 0.57425 0.41270 -0.08500
C 	C 	0.51199 0.55407 0.45510 -0.03700
H 	H 	0.54100 0.57020 0.46960 0.04300
C 	C 	0.42600 0.61310 0.47150 -0.02300
C 	C 	0.37560 0.58920 0.33510 -0.01000
O 	O 	0.29684 0.10984 0.74673 -0.40800
O 	O 	0.28145 0.10237 0.60603 -0.41300
C 	C 	0.27654 0.08861 0.67983 0.37300
C 	C 	0.24413 0.04187 0.69773 -0.14000
C 	C 	0.21919 0.01537 0.63063 0.08300
H 	H 	0.22127 0.02633 0.57583 0.01800
C 	C 	0.19089 0.97161 0.64823 -0.16900
H 	H 	0.17397 0.95373 0.60413 0.10500
C 	C 	0.18741 0.95456 0.72753 0.13700
C 	C 	0.21117 0.98199 0.79223 -0.17400
H 	H 	0.20807 0.97133 0.84763 0.09500
C 	C 	0.23993 0.02569 0.77683 0.08900
H 	H 	0.25617 0.04353 0.82163 0.01700
C 	C 	0.15981 0.90758 0.74603 -0.08500
C 	C 	0.17866 0.88740 0.78843 -0.03700
H 	H 	0.20767 0.90353 0.80293 0.04300
C 	C 	0.09267 0.94643 0.80483 -0.02300
C 	C 	0.04227 0.92253 0.66843 -0.01000
O 	O 	0.96350 0.44318 0.08007 -0.40800
O 	O 	0.94811 0.43571 0.93937 -0.41400
C 	C 	0.94320 0.42195 0.01317 0.37300
C 	C 	0.91079 0.37521 0.03107 -0.14000
C 	C 	0.88585 0.34871 0.96397 0.08300
H 	H 	0.88793 0.35967 0.90917 0.01800
C 	C 	0.85755 0.30495 0.98157 -0.17000
H 	H 	0.84063 0.28707 0.93747 0.10600
C 	C 	0.85407 0.28790 0.06087 0.13800
C 	C 	0.87783 0.31533 0.12557 -0.17400
H 	H 	0.87473 0.30467 0.18097 0.09500
C 	C 	0.90659 0.35903 0.11017 0.09000
H 	H 	0.92283 0.37687 0.15497 0.01700
C 	C 	0.82647 0.24092 0.07937 -0.08600
C 	C 	0.84532 0.22074 0.12177 -0.03700
H 	H 	0.87433 0.23687 0.13627 0.04300
C 	C 	0.75933 0.27977 0.13817 -0.02300
C 	C 	0.70893 0.25587 0.00177 -0.01000
O 	O 	0.22349 0.85366 0.41340 -0.40800
O 	O 	0.23096 0.84574 0.27270 -0.41300
C 	C 	0.24472 0.85459 0.34650 0.37300
C 	C 	0.29146 0.86892 0.36440 -0.14000
C 	C 	0.31796 0.87048 0.29730 0.08300
H 	H 	0.30700 0.86160 0.24250 0.01800
C 	C 	0.36172 0.88594 0.31490 -0.16900
H 	H 	0.37960 0.88690 0.27080 0.10600
C 	C 	0.37877 0.89951 0.39420 0.13800
C 	C 	0.35134 0.89584 0.45890 -0.17400
H 	H 	0.36200 0.90340 0.51430 0.09600
C 	C 	0.30764 0.88090 0.44350 0.09100
H 	H 	0.28980 0.87930 0.48830 0.01800
C 	C 	0.42575 0.91889 0.41270 -0.08400
C 	C 	0.44593 0.95792 0.45510 -0.03600
H 	H 	0.42980 0.97080 0.46960 0.04400
C 	C 	0.38690 0.81290 0.47150 -0.02200
C 	C 	0.41080 0.78640 0.33510 -0.00900
O 	O 	0.89016 0.18699 0.74673 -0.40700
O 	O 	0.89763 0.17907 0.60603 -0.41200
C 	C 	0.91139 0.18792 0.67983 0.37400
C 	C 	0.95813 0.20225 0.69773 -0.13900
C 	C 	0.98463 0.20381 0.63063 0.08400
H 	H 	0.97367 0.19493 0.57583 0.01900
C 	C 	0.02839 0.21927 0.64823 -0.16800
H 	H 	0.04627 0.22023 0.60413 0.10600
C 	C 	0.04544 0.23284 0.72753 0.13800
C 	C 	0.01801 0.22917 0.79223 -0.17300
H 	H 	0.02867 0.23673 0.84763 0.09600
C 	C 	0.97431 0.21423 0.77683 0.09100
H 	H 	0.95647 0.21263 0.82163 0.01800
C 	C 	0.09242 0.25222 0.74603 -0.08400
C 	C 	0.11260 0.29125 0.78843 -0.03600
H 	H 	0.09647 0.30413 0.80293 0.04400
C 	C 	0.05357 0.14623 0.80483 -0.02200
C 	C 	0.07747 0.11973 0.66843 -0.00900
O 	O 	0.55682 0.52033 0.08007 -0.40700
O 	O 	0.56429 0.51241 0.93937 -0.41200
C 	C 	0.57805 0.52126 0.01317 0.37400
C 	C 	0.62479 0.53559 0.03107 -0.13900
C 	C 	0.65129 0.53715 0.96397 0.08400
H 	H 	0.64033 0.52827 0.90917 0.01900
C 	C 	0.69505 0.55261 0.98157 -0.16800
H 	H 	0.71293 0.55357 0.93747 0.10700
C 	C 	0.71210 0.56618 0.06087 0.13900
C 	C 	0.68467 0.56251 0.12557 -0.17300
H 	H 	0.69533 0.57007 0.18097 0.09600
C 	C 	0.64097 0.54757 0.11017 0.09100
H 	H 	0.62313 0.54597 0.15497 0.01800
C 	C 	0.75908 0.58556 0.07937 -0.08400
C 	C 	0.77926 0.62459 0.12177 -0.03600
H 	H 	0.76313 0.63747 0.13627 0.04400
C 	C 	0.72023 0.47957 0.13817 -0.02200
C 	C 	0.74413 0.45307 0.00177 -0.00900
O 	O 	0.14634 0.36983 0.41340 -0.40700
O 	O 	0.15426 0.38522 0.27270 -0.41200
C 	C 	0.14541 0.39013 0.34650 0.37400
C 	C 	0.13108 0.42254 0.36440 -0.13900
C 	C 	0.12952 0.44748 0.29730 0.08400
H 	H 	0.13840 0.44540 0.24250 0.01900
C 	C 	0.11406 0.47578 0.31490 -0.16800
H 	H 	0.11310 0.49270 0.27080 0.10700
C 	C 	0.10049 0.47926 0.39420 0.13900
C 	C 	0.10416 0.45550 0.45890 -0.17300
H 	H 	0.09660 0.45860 0.51430 0.09600
C 	C 	0.11910 0.42674 0.44350 0.09100
H 	H 	0.12070 0.41050 0.48830 0.01800
C 	C 	0.08111 0.50686 0.41270 -0.08400
C 	C 	0.04208 0.48801 0.45510 -0.03600
H 	H 	0.02920 0.45900 0.46960 0.04400
C 	C 	0.18710 0.57400 0.47150 -0.02200
C 	C 	0.21360 0.62440 0.33510 -0.00900
O 	O 	0.81301 0.70316 0.74673 -0.40700
O 	O 	0.82093 0.71855 0.60603 -0.41200
C 	C 	0.81208 0.72346 0.67983 0.37400
C 	C 	0.79775 0.75587 0.69773 -0.13900
C 	C 	0.79619 0.78081 0.63063 0.08400
H 	H 	0.80507 0.77873 0.57583 0.01900
C 	C 	0.78073 0.80911 0.64823 -0.16800
H 	H 	0.77977 0.82603 0.60413 0.10700
C 	C 	0.76716 0.81259 0.72753 0.13900
C 	C 	0.77083 0.78883 0.79223 -0.17300
H 	H 	0.76327 0.79193 0.84763 0.09600
C 	C 	0.78577 0.76007 0.77683 0.09100
H 	H 	0.78737 0.74383 0.82163 0.01800
C 	C 	0.74778 0.84019 0.74603 -0.08400
C 	C 	0.70875 0.82134 0.78843 -0.03600
H 	H 	0.69587 0.79233 0.80293 0.04400
C 	C 	0.85377 0.90733 0.80483 -0.02200
C 	C 	0.88027 0.95773 0.66843 -0.00900
O 	O 	0.47967 0.03650 0.08007 -0.40700
O 	O 	0.48759 0.05189 0.93937 -0.41200
C 	C 	0.47874 0.05680 0.01317 0.37400
C 	C 	0.46441 0.08921 0.03107 -0.13900
C 	C 	0.46285 0.11415 0.96397 0.08400
H 	H 	0.47173 0.11207 0.90917 0.01900
C 	C 	0.44739 0.14245 0.98157 -0.16800
H 	H 	0.44643 0.15937 0.93747 0.10700
C 	C 	0.43382 0.14593 0.06087 0.13900
C 	C 	0.43749 0.12217 0.12557 -0.17300
H 	H 	0.42993 0.12527 0.18097 0.09600
C 	C 	0.45243 0.09341 0.11017 0.09100
H 	H 	0.45403 0.07717 0.15497 0.01800
C 	C 	0.41444 0.17353 0.07937 -0.08400
C 	C 	0.37541 0.15468 0.12177 -0.03600
H 	H 	0.36253 0.12567 0.13627 0.04400
C 	C 	0.52043 0.24067 0.13817 -0.02200
C 	C 	0.54693 0.29107 0.00177 -0.00900
O 	O 	0.77651 0.63017 0.58660 -0.40700
O 	O 	0.76904 0.61478 0.72730 -0.41200
C 	C 	0.75528 0.60987 0.65350 0.37400
C 	C 	0.70854 0.57746 0.63560 -0.13900
C 	C 	0.68204 0.55252 0.70270 0.08400
H 	H 	0.69300 0.55460 0.75750 0.01900
C 	C 	0.63828 0.52422 0.68510 -0.16800
H 	H 	0.62040 0.50730 0.72920 0.10700
C 	C 	0.62123 0.52074 0.60580 0.13900
C 	C 	0.64866 0.54450 0.54110 -0.17300
H 	H 	0.63800 0.54140 0.48570 0.09600
C 	C 	0.69236 0.57326 0.55650 0.09100
H 	H 	0.71020 0.58950 0.51170 0.01800
C 	C 	0.57425 0.49314 0.58730 -0.08400
C 	C 	0.55407 0.51199 0.54490 -0.03600
H 	H 	0.57020 0.54100 0.53040 0.04400
C 	C 	0.61310 0.42600 0.52850 -0.02200
C 	C 	0.58920 0.37560 0.66490 -0.00900
O 	O 	0.44318 0.96350 0.91993 -0.40700
O 	O 	0.43571 0.94811 0.06063 -0.41300
C 	C 	0.42195 0.94320 0.98683 0.37400
C 	C 	0.37521 0.91079 0.96893 -0.13900
C 	C 	0.34871 0.88585 0.03603 0.08400
H 	H 	0.35967 0.88793 0.09083 0.01900
C 	C 	0.30495 0.85755 0.01843 -0.16900
H 	H 	0.28707 0.84063 0.06253 0.10700
C 	C 	0.28790 0.85407 0.93913 0.13900
C 	C 	0.31533 0.87783 0.87443 -0.17300
H 	H 	0.30467 0.87473 0.81903 0.09600
C 	C 	0.35903 0.90659 0.88983 0.09100
H 	H 	0.37687 0.92283 0.84503 0.01800
C 	C 	0.24092 0.82647 0.92063 -0.08500
C 	C 	0.22074 0.84532 0.87823 -0.03600
H 	H 	0.23687 0.87433 0.86373 0.04400
C 	C 	0.27977 0.75933 0.86183 -0.02200
C 	C 	0.25587 0.70893 0.99823 -0.00900
O 	O 	0.10984 0.29684 0.25327 -0.40700
O 	O 	0.10237 0.28145 0.39397 -0.41200
C 	C 	0.08861 0.27654 0.32017 0.37400
C 	C 	0.04187 0.24413 0.30227 -0.13900
C 	C 	0.01537 0.21919 0.36937 0.08400
H 	H 	0.02633 0.22127 0.42417 0.01900
C 	C 	0.97161 0.19089 0.35177 -0.16800
H 	H 	0.95373 0.17397 0.39587 0.10600
C 	C 	0.95456 0.18741 0.27247 0.13800
C 	C 	0.98199 0.21117 0.20777 -0.17300
H 	H 	0.97133 0.20807 0.15237 0.09600
C 	C 	0.02569 0.23993 0.22317 0.09000
H 	H 	0.04353 0.25617 0.17837 0.01800
C 	C 	0.90758 0.15981 0.25397 -0.08400
C 	C 	0.88740 0.17866 0.21157 -0.03600
H 	H 	0.90353 0.20767 0.19707 0.04400
C 	C 	0.94643 0.09267 0.19517 -0.02200
C 	C 	0.92253 0.04227 0.33157 -0.00900
O 	O 	0.85366 0.22349 0.58660 -0.40700
O 	O 	0.84574 0.23096 0.72730 -0.41200
C 	C 	0.85459 0.24472 0.65350 0.37400
C 	C 	0.86892 0.29146 0.63560 -0.13900
C 	C 	0.87048 0.31796 0.70270 0.08400
H 	H 	0.86160 0.30700 0.75750 0.01900
C 	C 	0.88594 0.36172 0.68510 -0.16800
H 	H 	0.88690 0.37960 0.72920 0.10700
C 	C 	0.89951 0.37877 0.60580 0.13900
C 	C 	0.89584 0.35134 0.54110 -0.17300
H 	H 	0.90340 0.36200 0.48570 0.09600
C 	C 	0.88090 0.30764 0.55650 0.09100
H 	H 	0.87930 0.28980 0.51170 0.01800
C 	C 	0.91889 0.42575 0.58730 -0.08400
C 	C 	0.95792 0.44593 0.54490 -0.03600
H 	H 	0.97080 0.42980 0.53040 0.04400
C 	C 	0.81290 0.38690 0.52850 -0.02200
C 	C 	0.78640 0.41080 0.66490 -0.00900
O 	O 	0.52033 0.55682 0.91993 -0.40700
O 	O 	0.51241 0.56429 0.06063 -0.41200
C 	C 	0.52126 0.57805 0.98683 0.37400
C 	C 	0.53559 0.62479 0.96893 -0.13900
C 	C 	0.53715 0.65129 0.03603 0.08400
H 	H 	0.52827 0.64033 0.09083 0.01900
C 	C 	0.55261 0.69505 0.01843 -0.16800
H 	H 	0.55357 0.71293 0.06253 0.10700
C 	C 	0.56618 0.71210 0.93913 0.13900
C 	C 	0.56251 0.68467 0.87443 -0.17300
H 	H 	0.57007 0.69533 0.81903 0.09600
C 	C 	0.54757 0.64097 0.88983 0.09100
H 	H 	0.54597 0.62313 0.84503 0.01800
C 	C 	0.58556 0.75908 0.92063 -0.08400
C 	C 	0.62459 0.77926 0.87823 -0.03600
H 	H 	0.63747 0.76313 0.86373 0.04400
C 	C 	0.47957 0.72023 0.86183 -0.02200
C 	C 	0.45307 0.74413 0.99823 -0.00900
O 	O 	0.18699 0.89016 0.25327 -0.40700
O 	O 	0.17907 0.89763 0.39397 -0.41200
C 	C 	0.18792 0.91139 0.32017 0.37400
C 	C 	0.20225 0.95813 0.30227 -0.13900
C 	C 	0.20381 0.98463 0.36937 0.08400
H 	H 	0.19493 0.97367 0.42417 0.01900
C 	C 	0.21927 0.02839 0.35177 -0.16800
H 	H 	0.22023 0.04627 0.39587 0.10600
C 	C 	0.23284 0.04544 0.27247 0.13800
C 	C 	0.22917 0.01801 0.20777 -0.17300
H 	H 	0.23673 0.02867 0.15237 0.09600
C 	C 	0.21423 0.97431 0.22317 0.09100
H 	H 	0.21263 0.95647 0.17837 0.01800
C 	C 	0.25222 0.09242 0.25397 -0.08400
C 	C 	0.29125 0.11260 0.21157 -0.03600
H 	H 	0.30413 0.09647 0.19707 0.04400
C 	C 	0.14623 0.05357 0.19517 -0.02200
C 	C 	0.11973 0.07747 0.33157 -0.00900
O 	O 	0.36983 0.14634 0.58660 -0.40700
O 	O 	0.38522 0.15426 0.72730 -0.41200
C 	C 	0.39013 0.14541 0.65350 0.37400
C 	C 	0.42254 0.13108 0.63560 -0.13900
C 	C 	0.44748 0.12952 0.70270 0.08400
H 	H 	0.44540 0.13840 0.75750 0.01900
C 	C 	0.47578 0.11406 0.68510 -0.16800
H 	H 	0.49270 0.11310 0.72920 0.10700
C 	C 	0.47926 0.10049 0.60580 0.13900
C 	C 	0.45550 0.10416 0.54110 -0.17300
H 	H 	0.45860 0.09660 0.48570 0.09600
C 	C 	0.42674 0.11910 0.55650 0.09100
H 	H 	0.41050 0.12070 0.51170 0.01800
C 	C 	0.50686 0.08111 0.58730 -0.08400
C 	C 	0.48801 0.04208 0.54490 -0.03600
H 	H 	0.45900 0.02920 0.53040 0.04400
C 	C 	0.57400 0.18710 0.52850 -0.02200
C 	C 	0.62440 0.21360 0.66490 -0.00900
O 	O 	0.03650 0.47967 0.91993 -0.40700
O 	O 	0.05189 0.48759 0.06063 -0.41200
C 	C 	0.05680 0.47874 0.98683 0.37400
C 	C 	0.08921 0.46441 0.96893 -0.13900
C 	C 	0.11415 0.46285 0.03603 0.08400
H 	H 	0.11207 0.47173 0.09083 0.01900
C 	C 	0.14245 0.44739 0.01843 -0.16800
H 	H 	0.15937 0.44643 0.06253 0.10700
C 	C 	0.14593 0.43382 0.93913 0.13900
C 	C 	0.12217 0.43749 0.87443 -0.17300
H 	H 	0.12527 0.42993 0.81903 0.09600
C 	C 	0.09341 0.45243 0.88983 0.09100
H 	H 	0.07717 0.45403 0.84503 0.01800
C 	C 	0.17353 0.41444 0.92063 -0.08400
C 	C 	0.15468 0.37541 0.87823 -0.03600
H 	H 	0.12567 0.36253 0.86373 0.04400
C 	C 	0.24067 0.52043 0.86183 -0.02200
C 	C 	0.29107 0.54693 0.99823 -0.00900
O 	O 	0.70316 0.81301 0.25327 -0.40700
O 	O 	0.71855 0.82093 0.39397 -0.41200
C 	C 	0.72346 0.81208 0.32017 0.37400
C 	C 	0.75587 0.79775 0.30227 -0.13900
C 	C 	0.78081 0.79619 0.36937 0.08400
H 	H 	0.77873 0.80507 0.42417 0.01900
C 	C 	0.80911 0.78073 0.35177 -0.16800
H 	H 	0.82603 0.77977 0.39587 0.10700
C 	C 	0.81259 0.76716 0.27247 0.13900
C 	C 	0.78883 0.77083 0.20777 -0.17300
H 	H 	0.79193 0.76327 0.15237 0.09600
C 	C 	0.76007 0.78577 0.22317 0.09100
H 	H 	0.74383 0.78737 0.17837 0.01800
C 	C 	0.84019 0.74778 0.25397 -0.08400
C 	C 	0.82134 0.70875 0.21157 -0.03600
H 	H 	0.79233 0.69587 0.19707 0.04400
C 	C 	0.90733 0.85377 0.19517 -0.02200
C 	C 	0.95773 0.88027 0.33157 -0.00900
O 	O 	0.36983 0.22349 0.58660 -0.40700
O 	O 	0.38522 0.23096 0.72730 -0.41200
C 	C 	0.39013 0.24472 0.65350 0.37400
C 	C 	0.42254 0.29146 0.63560 -0.13900
C 	C 	0.44748 0.31796 0.70270 0.08400
H 	H 	0.44540 0.30700 0.75750 0.01900
C 	C 	0.47578 0.36172 0.68510 -0.16800
H 	H 	0.49270 0.37960 0.72920 0.10700
C 	C 	0.47926 0.37877 0.60580 0.13900
C 	C 	0.45550 0.35134 0.54110 -0.17300
H 	H 	0.45860 0.36200 0.48570 0.09600
C 	C 	0.42674 0.30764 0.55650 0.09100
H 	H 	0.41050 0.28980 0.51170 0.01800
C 	C 	0.50686 0.42575 0.58730 -0.08400
C 	C 	0.48801 0.44593 0.54490 -0.03600
H 	H 	0.45900 0.42980 0.53040 0.04400
C 	C 	0.57400 0.38690 0.52850 -0.02200
C 	C 	0.62440 0.41080 0.66490 -0.00900
O 	O 	0.03650 0.55682 0.91993 -0.40700
O 	O 	0.05189 0.56429 0.06063 -0.41300
C 	C 	0.05680 0.57805 0.98683 0.37400
C 	C 	0.08921 0.62479 0.96893 -0.13900
C 	C 	0.11415 0.65129 0.03603 0.08400
H 	H 	0.11207 0.64033 0.09083 0.01900
C 	C 	0.14245 0.69505 0.01843 -0.16900
H 	H 	0.15937 0.71293 0.06253 0.10700
C 	C 	0.14593 0.71210 0.93913 0.13900
C 	C 	0.12217 0.68467 0.87443 -0.17300
H 	H 	0.12527 0.69533 0.81903 0.09600
C 	C 	0.09341 0.64097 0.88983 0.09100
H 	H 	0.07717 0.62313 0.84503 0.01800
C 	C 	0.17353 0.75908 0.92063 -0.08500
C 	C 	0.15468 0.77926 0.87823 -0.03600
H 	H 	0.12567 0.76313 0.86373 0.04400
C 	C 	0.24067 0.72023 0.86183 -0.02200
C 	C 	0.29107 0.74413 0.99823 -0.00900
O 	O 	0.70316 0.89016 0.25327 -0.40700
O 	O 	0.71855 0.89763 0.39397 -0.41200
C 	C 	0.72346 0.91139 0.32017 0.37400
C 	C 	0.75587 0.95813 0.30227 -0.13900
C 	C 	0.78081 0.98463 0.36937 0.08400
H 	H 	0.77873 0.97367 0.42417 0.01900
C 	C 	0.80911 0.02839 0.35177 -0.16800
H 	H 	0.82603 0.04627 0.39587 0.10600
C 	C 	0.81259 0.04544 0.27247 0.13800
C 	C 	0.78883 0.01801 0.20777 -0.17300
H 	H 	0.79193 0.02867 0.15237 0.09600
C 	C 	0.76007 0.97431 0.22317 0.09000
H 	H 	0.74383 0.95647 0.17837 0.01800
C 	C 	0.84019 0.09242 0.25397 -0.08400
C 	C 	0.82134 0.11260 0.21157 -0.03600
H 	H 	0.79233 0.09647 0.19707 0.04400
C 	C 	0.90733 0.05357 0.19517 -0.02200
C 	C 	0.95773 0.07747 0.33157 -0.00900
O 	O 	0.77651 0.14634 0.58660 -0.40700
O 	O 	0.76904 0.15426 0.72730 -0.41200
C 	C 	0.75528 0.14541 0.65350 0.37400
C 	C 	0.70854 0.13108 0.63560 -0.13900
C 	C 	0.68204 0.12952 0.70270 0.08400
H 	H 	0.69300 0.13840 0.75750 0.01900
C 	C 	0.63828 0.11406 0.68510 -0.16800
H 	H 	0.62040 0.11310 0.72920 0.10700
C 	C 	0.62123 0.10049 0.60580 0.13900
C 	C 	0.64866 0.10416 0.54110 -0.17300
H 	H 	0.63800 0.09660 0.48570 0.09600
C 	C 	0.69236 0.11910 0.55650 0.09100
H 	H 	0.71020 0.12070 0.51170 0.01800
C 	C 	0.57425 0.08111 0.58730 -0.08400
C 	C 	0.55407 0.04208 0.54490 -0.03600
H 	H 	0.57020 0.02920 0.53040 0.04400
C 	C 	0.61310 0.18710 0.52850 -0.02200
C 	C 	0.58920 0.21360 0.66490 -0.00900
O 	O 	0.44318 0.47967 0.91993 -0.40700
O 	O 	0.43571 0.48759 0.06063 -0.41200
C 	C 	0.42195 0.47874 0.98683 0.37400
C 	C 	0.37521 0.46441 0.96893 -0.13900
C 	C 	0.34871 0.46285 0.03603 0.08400
H 	H 	0.35967 0.47173 0.09083 0.01900
C 	C 	0.30495 0.44739 0.01843 -0.16800
H 	H 	0.28707 0.44643 0.06253 0.10700
C 	C 	0.28790 0.43382 0.93913 0.13900
C 	C 	0.31533 0.43749 0.87443 -0.17300
H 	H 	0.30467 0.42993 0.81903 0.09600
C 	C 	0.35903 0.45243 0.88983 0.09100
H 	H 	0.37687 0.45403 0.84503 0.01800
C 	C 	0.24092 0.41444 0.92063 -0.08400
C 	C 	0.22074 0.37541 0.87823 -0.03600
H 	H 	0.23687 0.36253 0.86373 0.04400
C 	C 	0.27977 0.52043 0.86183 -0.02200
C 	C 	0.25587 0.54693 0.99823 -0.00900
O 	O 	0.10984 0.81301 0.25327 -0.40700
O 	O 	0.10237 0.82093 0.39397 -0.41200
C 	C 	0.08861 0.81208 0.32017 0.37400
C 	C 	0.04187 0.79775 0.30227 -0.13900
C 	C 	0.01537 0.79619 0.36937 0.08400
H 	H 	0.02633 0.80507 0.42417 0.01900
C 	C 	0.97161 0.78073 0.35177 -0.16800
H 	H 	0.95373 0.77977 0.39587 0.10600
C 	C 	0.95456 0.76716 0.27247 0.13800
C 	C 	0.98199 0.77083 0.20777 -0.17300
H 	H 	0.97133 0.76327 0.15237 0.09600
C 	C 	0.02569 0.78577 0.22317 0.09100
H 	H 	0.04353 0.78737 0.17837 0.01800
C 	C 	0.90758 0.74778 0.25397 -0.08400
C 	C 	0.88740 0.70875 0.21157 -0.03600
H 	H 	0.90353 0.69587 0.19707 0.04400
C 	C 	0.94643 0.85377 0.19517 -0.02200
C 	C 	0.92253 0.88027 0.33157 -0.00900
O 	O 	0.85366 0.63017 0.58660 -0.40700
O 	O 	0.84574 0.61478 0.72730 -0.41200
C 	C 	0.85459 0.60987 0.65350 0.37400
C 	C 	0.86892 0.57746 0.63560 -0.13900
C 	C 	0.87048 0.55252 0.70270 0.08400
H 	H 	0.86160 0.55460 0.75750 0.01900
C 	C 	0.88594 0.52422 0.68510 -0.16800
H 	H 	0.88690 0.50730 0.72920 0.10700
C 	C 	0.89951 0.52074 0.60580 0.13900
C 	C 	0.89584 0.54450 0.54110 -0.17300
H 	H 	0.90340 0.54140 0.48570 0.09600
C 	C 	0.88090 0.57326 0.55650 0.09100
H 	H 	0.87930 0.58950 0.51170 0.01800
C 	C 	0.91889 0.49314 0.58730 -0.08400
C 	C 	0.95792 0.51199 0.54490 -0.03600
H 	H 	0.97080 0.54100 0.53040 0.04400
C 	C 	0.81290 0.42600 0.52850 -0.02200
C 	C 	0.78640 0.37560 0.66490 -0.00900
O 	O 	0.52033 0.96350 0.91993 -0.40700
O 	O 	0.51241 0.94811 0.06063 -0.41200
C 	C 	0.52126 0.94320 0.98683 0.37400
C 	C 	0.53559 0.91079 0.96893 -0.13900
C 	C 	0.53715 0.88585 0.03603 0.08400
H 	H 	0.52827 0.88793 0.09083 0.01900
C 	C 	0.55261 0.85755 0.01843 -0.16800
H 	H 	0.55357 0.84063 0.06253 0.10700
C 	C 	0.56618 0.85407 0.93913 0.13900
C 	C 	0.56251 0.87783 0.87443 -0.17300
H 	H 	0.57007 0.87473 0.81903 0.09600
C 	C 	0.54757 0.90659 0.88983 0.09100
H 	H 	0.54597 0.92283 0.84503 0.01800
C 	C 	0.58556 0.82647 0.92063 -0.08400
C 	C 	0.62459 0.84532 0.87823 -0.03600
H 	H 	0.63747 0.87433 0.86373 0.04400
C 	C 	0.47957 0.75933 0.86183 -0.02200
C 	C 	0.45307 0.70893 0.99823 -0.00900
O 	O 	0.18699 0.29684 0.25327 -0.40700
O 	O 	0.17907 0.28145 0.39397 -0.41200
C 	C 	0.18792 0.27654 0.32017 0.37400
C 	C 	0.20225 0.24413 0.30227 -0.13900
C 	C 	0.20381 0.21919 0.36937 0.08400
H 	H 	0.19493 0.22127 0.42417 0.01900
C 	C 	0.21927 0.19089 0.35177 -0.16800
H 	H 	0.22023 0.17397 0.39587 0.10700
C 	C 	0.23284 0.18741 0.27247 0.13900
C 	C 	0.22917 0.21117 0.20777 -0.17300
H 	H 	0.23673 0.20807 0.15237 0.09600
C 	C 	0.21423 0.23993 0.22317 0.09100
H 	H 	0.21263 0.25617 0.17837 0.01800
C 	C 	0.25222 0.15981 0.25397 -0.08400
C 	C 	0.29125 0.17866 0.21157 -0.03600
H 	H 	0.30413 0.20767 0.19707 0.04400
C 	C 	0.14623 0.09267 0.19517 -0.02200
C 	C 	0.11973 0.04227 0.33157 -0.00900
O 	O 	0.22349 0.36983 0.41340 -0.40700
O 	O 	0.23096 0.38522 0.27270 -0.41200
C 	C 	0.24472 0.39013 0.34650 0.37400
C 	C 	0.29146 0.42254 0.36440 -0.13900
C 	C 	0.31796 0.44748 0.29730 0.08400
H 	H 	0.30700 0.44540 0.24250 0.01900
C 	C 	0.36172 0.47578 0.31490 -0.16800
H 	H 	0.37960 0.49270 0.27080 0.10700
C 	C 	0.37877 0.47926 0.39420 0.13900
C 	C 	0.35134 0.45550 0.45890 -0.17300
H 	H 	0.36200 0.45860 0.51430 0.09600
C 	C 	0.30764 0.42674 0.44350 0.09100
H 	H 	0.28980 0.41050 0.48830 0.01800
C 	C 	0.42575 0.50686 0.41270 -0.08400
C 	C 	0.44593 0.48801 0.45510 -0.03600
H 	H 	0.42980 0.45900 0.46960 0.04400
C 	C 	0.38690 0.57400 0.47150 -0.02200
C 	C 	0.41080 0.62440 0.33510 -0.00900
O 	O 	0.89016 0.70316 0.74673 -0.40700
O 	O 	0.89763 0.71855 0.60603 -0.41200
C 	C 	0.91139 0.72346 0.67983 0.37400
C 	C 	0.95813 0.75587 0.69773 -0.13900
C 	C 	0.98463 0.78081 0.63063 0.08400
H 	H 	0.97367 0.77873 0.57583 0.01900
C 	C 	0.02839 0.80911 0.64823 -0.16800
H 	H 	0.04627 0.82603 0.60413 0.10600
C 	C 	0.04544 0.81259 0.72753 0.13800
C 	C 	0.01801 0.78883 0.79223 -0.17300
H 	H 	0.02867 0.79193 0.84763 0.09600
C 	C 	0.97431 0.76007 0.77683 0.09000
H 	H 	0.95647 0.74383 0.82163 0.01800
C 	C 	0.09242 0.84019 0.74603 -0.08400
C 	C 	0.11260 0.82134 0.78843 -0.03600
H 	H 	0.09647 0.79233 0.80293 0.04400
C 	C 	0.05357 0.90733 0.80483 -0.02200
C 	C 	0.07747 0.95773 0.66843 -0.00900
O 	O 	0.55682 0.03650 0.08007 -0.40700
O 	O 	0.56429 0.05189 0.93937 -0.41300
C 	C 	0.57805 0.05680 0.01317 0.37400
C 	C 	0.62479 0.08921 0.03107 -0.13900
C 	C 	0.65129 0.11415 0.96397 0.08400
H 	H 	0.64033 0.11207 0.90917 0.01900
C 	C 	0.69505 0.14245 0.98157 -0.16900
H 	H 	0.71293 0.15937 0.93747 0.10700
C 	C 	0.71210 0.14593 0.06087 0.13900
C 	C 	0.68467 0.12217 0.12557 -0.17300
H 	H 	0.69533 0.12527 0.18097 0.09600
C 	C 	0.64097 0.09341 0.11017 0.09100
H 	H 	0.62313 0.07717 0.15497 0.01800
C 	C 	0.75908 0.17353 0.07937 -0.08500
C 	C 	0.77926 0.15468 0.12177 -0.03600
H 	H 	0.76313 0.12567 0.13627 0.04400
C 	C 	0.72023 0.24067 0.13817 -0.02200
C 	C 	0.74413 0.29107 0.00177 -0.00900
O 	O 	0.14634 0.77651 0.41340 -0.40700
O 	O 	0.15426 0.76904 0.27270 -0.41200
C 	C 	0.14541 0.75528 0.34650 0.37400
C 	C 	0.13108 0.70854 0.36440 -0.13900
C 	C 	0.12952 0.68204 0.29730 0.08400
H 	H 	0.13840 0.69300 0.24250 0.01900
C 	C 	0.11406 0.63828 0.31490 -0.16800
H 	H 	0.11310 0.62040 0.27080 0.10700
C 	C 	0.10049 0.62123 0.39420 0.13900
C 	C 	0.10416 0.64866 0.45890 -0.17300
H 	H 	0.09660 0.63800 0.51430 0.09600
C 	C 	0.11910 0.69236 0.44350 0.09100
H 	H 	0.12070 0.71020 0.48830 0.01800
C 	C 	0.08111 0.57425 0.41270 -0.08400
C 	C 	0.04208 0.55407 0.45510 -0.03600
H 	H 	0.02920 0.57020 0.46960 0.04400
C 	C 	0.18710 0.61310 0.47150 -0.02200
C 	C 	0.21360 0.58920 0.33510 -0.00900
O 	O 	0.81301 0.10984 0.74673 -0.40700
O 	O 	0.82093 0.10237 0.60603 -0.41200
C 	C 	0.81208 0.08861 0.67983 0.37400
C 	C 	0.79775 0.04187 0.69773 -0.13900
C 	C 	0.79619 0.01537 0.63063 0.08400
H 	H 	0.80507 0.02633 0.57583 0.01900
C 	C 	0.78073 0.97161 0.64823 -0.16800
H 	H 	0.77977 0.95373 0.60413 0.10600
C 	C 	0.76716 0.95456 0.72753 0.13800
C 	C 	0.77083 0.98199 0.79223 -0.17300
H 	H 	0.76327 0.97133 0.84763 0.09600
C 	C 	0.78577 0.02569 0.77683 0.09100
H 	H 	0.78737 0.04353 0.82163 0.01800
C 	C 	0.74778 0.90758 0.74603 -0.08400
C 	C 	0.70875 0.88740 0.78843 -0.03600
H 	H 	0.69587 0.90353 0.80293 0.04400
C 	C 	0.85377 0.94643 0.80483 -0.02200
C 	C 	0.88027 0.92253 0.66843 -0.00900
O 	O 	0.47967 0.44318 0.08007 -0.40700
O 	O 	0.48759 0.43571 0.93937 -0.41200
C 	C 	0.47874 0.42195 0.01317 0.37400
C 	C 	0.46441 0.37521 0.03107 -0.13900
C 	C 	0.46285 0.34871 0.96397 0.08400
H 	H 	0.47173 0.35967 0.90917 0.01900
C 	C 	0.44739 0.30495 0.98157 -0.16800
H 	H 	0.44643 0.28707 0.93747 0.10700
C 	C 	0.43382 0.28790 0.06087 0.13900
C 	C 	0.43749 0.31533 0.12557 -0.17300
H 	H 	0.42993 0.30467 0.18097 0.09600
C 	C 	0.45243 0.35903 0.11017 0.09100
H 	H 	0.45403 0.37687 0.15497 0.01800
C 	C 	0.41444 0.24092 0.07937 -0.08400
C 	C 	0.37541 0.22074 0.12177 -0.03600
H 	H 	0.36253 0.23687 0.13627 0.04400
C 	C 	0.52043 0.27977 0.13817 -0.02200
C 	C 	0.54693 0.25587 0.00177 -0.00900
O 	O 	0.63017 0.85366 0.41340 -0.40700
O 	O 	0.61478 0.84574 0.27270 -0.41200
C 	C 	0.60987 0.85459 0.34650 0.37400
C 	C 	0.57746 0.86892 0.36440 -0.13900
C 	C 	0.55252 0.87048 0.29730 0.08400
H 	H 	0.55460 0.86160 0.24250 0.01900
C 	C 	0.52422 0.88594 0.31490 -0.16800
H 	H 	0.50730 0.88690 0.27080 0.10700
C 	C 	0.52074 0.89951 0.39420 0.13900
C 	C 	0.54450 0.89584 0.45890 -0.17300
H 	H 	0.54140 0.90340 0.51430 0.09600
C 	C 	0.57326 0.88090 0.44350 0.09100
H 	H 	0.58950 0.87930 0.48830 0.01800
C 	C 	0.49314 0.91889 0.41270 -0.08400
C 	C 	0.51199 0.95792 0.45510 -0.03600
H 	H 	0.54100 0.97080 0.46960 0.04400
C 	C 	0.42600 0.81290 0.47150 -0.02200
C 	C 	0.37560 0.78640 0.33510 -0.00900
O 	O 	0.29684 0.18699 0.74673 -0.40700
O 	O 	0.28145 0.17907 0.60603 -0.41200
C 	C 	0.27654 0.18792 0.67983 0.37400
C 	C 	0.24413 0.20225 0.69773 -0.13900
C 	C 	0.21919 0.20381 0.63063 0.08400
H 	H 	0.22127 0.19493 0.57583 0.01900
C 	C 	0.19089 0.21927 0.64823 -0.16800
H 	H 	0.17397 0.22023 0.60413 0.10700
C 	C 	0.18741 0.23284 0.72753 0.13900
C 	C 	0.21117 0.22917 0.79223 -0.17300
H 	H 	0.20807 0.23673 0.84763 0.09600
C 	C 	0.23993 0.21423 0.77683 0.09100
H 	H 	0.25617 0.21263 0.82163 0.01800
C 	C 	0.15981 0.25222 0.74603 -0.08400
C 	C 	0.17866 0.29125 0.78843 -0.03600
H 	H 	0.20767 0.30413 0.80293 0.04400
C 	C 	0.09267 0.14623 0.80483 -0.02200
C 	C 	0.04227 0.11973 0.66843 -0.00900
O 	O 	0.96350 0.52033 0.08007 -0.40700
O 	O 	0.94811 0.51241 0.93937 -0.41200
C 	C 	0.94320 0.52126 0.01317 0.37400
C 	C 	0.91079 0.53559 0.03107 -0.13900
C 	C 	0.88585 0.53715 0.96397 0.08400
H 	H 	0.88793 0.52827 0.90917 0.01900
C 	C 	0.85755 0.55261 0.98157 -0.16800
H 	H 	0.84063 0.55357 0.93747 0.10700
C 	C 	0.85407 0.56618 0.06087 0.13900
C 	C 	0.87783 0.56251 0.12557 -0.17300
H 	H 	0.87473 0.57007 0.18097 0.09600
C 	C 	0.90659 0.54757 0.11017 0.09100
H 	H 	0.92283 0.54597 0.15497 0.01800
C 	C 	0.82647 0.58556 0.07937 -0.08400
C 	C 	0.84532 0.62459 0.12177 -0.03600
H 	H 	0.87433 0.63747 0.13627 0.04400
C 	C 	0.75933 0.47957 0.13817 -0.02200
C 	C 	0.70893 0.45307 0.00177 -0.00900
Cu	Cu	0.67542 0.83771 0.41635 0.90500
Cu	Cu	0.34209 0.17104 0.74968 0.90500
Cu	Cu	0.00875 0.50438 0.08302 0.90500
Cu	Cu	0.16229 0.83771 0.41635 0.90500
Cu	Cu	0.82896 0.17104 0.74968 0.90500
Cu	Cu	0.49562 0.50438 0.08302 0.90500
Cu	Cu	0.16229 0.32458 0.41635 0.90500
Cu	Cu	0.82896 0.65791 0.74968 0.90500
Cu	Cu	0.49562 0.99125 0.08302 0.90500
Cu	Cu	0.83771 0.67542 0.58365 0.90500
Cu	Cu	0.50438 0.00875 0.91698 0.90500
Cu	Cu	0.17104 0.34209 0.25032 0.90500
Cu	Cu	0.83771 0.16229 0.58365 0.90500
Cu	Cu	0.50438 0.49562 0.91698 0.90500
Cu	Cu	0.17104 0.82896 0.25032 0.90500
Cu	Cu	0.32458 0.16229 0.58365 0.90500
Cu	Cu	0.99125 0.49562 0.91698 0.90500
Cu	Cu	0.65791 0.82896 0.25032 0.90500
O 	O 	0.43014 0.56986 0.34970 -0.24400
C 	C 	0.48947 0.51053 0.47730 0.00200
C 	C 	0.44955 0.55045 0.39170 0.16000
C 	C 	0.41130 0.58870 0.38970 0.13800
O 	O 	0.09681 0.90319 0.68303 -0.24300
C 	C 	0.15614 0.84386 0.81063 0.00200
C 	C 	0.11622 0.88378 0.72503 0.15900
C 	C 	0.07797 0.92203 0.72303 0.13800
O 	O 	0.76347 0.23653 0.01637 -0.24300
C 	C 	0.82280 0.17720 0.14397 0.00200
C 	C 	0.78288 0.21712 0.05837 0.16000
C 	C 	0.74463 0.25537 0.05637 0.13800
O 	O 	0.43014 0.86028 0.34970 -0.24400
C 	C 	0.48947 0.97894 0.47730 0.00200
C 	C 	0.44955 0.89910 0.39170 0.16000
C 	C 	0.41130 0.82260 0.38970 0.13800
O 	O 	0.09681 0.19361 0.68303 -0.24300
C 	C 	0.15614 0.31227 0.81063 0.00200
C 	C 	0.11622 0.23243 0.72503 0.16000
C 	C 	0.07797 0.15593 0.72303 0.13800
O 	O 	0.76347 0.52695 0.01637 -0.24400
C 	C 	0.82280 0.64561 0.14397 0.00200
C 	C 	0.78288 0.56577 0.05837 0.16000
C 	C 	0.74463 0.48927 0.05637 0.13800
O 	O 	0.13972 0.56986 0.34970 -0.24400
C 	C 	0.02106 0.51053 0.47730 0.00200
C 	C 	0.10090 0.55045 0.39170 0.16000
C 	C 	0.17740 0.58870 0.38970 0.13800
O 	O 	0.80639 0.90319 0.68303 -0.24300
C 	C 	0.68773 0.84386 0.81063 0.00200
C 	C 	0.76757 0.88378 0.72503 0.16000
C 	C 	0.84407 0.92203 0.72303 0.13800
O 	O 	0.47305 0.23653 0.01637 -0.24400
C 	C 	0.35439 0.17720 0.14397 0.00200
C 	C 	0.43423 0.21712 0.05837 0.16000
C 	C 	0.51073 0.25537 0.05637 0.13800
O 	O 	0.56986 0.43014 0.65030 -0.24400
C 	C 	0.51053 0.48947 0.52270 0.00200
C 	C 	0.55045 0.44955 0.60830 0.16000
C 	C 	0.58870 0.41130 0.61030 0.13800
O 	O 	0.23653 0.76347 0.98363 -0.24300
C 	C 	0.17720 0.82280 0.85603 0.00200
C 	C 	0.21712 0.78288 0.94163 0.16000
C 	C 	0.25537 0.74463 0.94363 0.13800
O 	O 	0.90319 0.09681 0.31697 -0.24300
C 	C 	0.84386 0.15614 0.18937 0.00200
C 	C 	0.88378 0.11622 0.27497 0.15900
C 	C 	0.92203 0.07797 0.27697 0.13800
O 	O 	0.86028 0.43014 0.65030 -0.24400
C 	C 	0.97894 0.48947 0.52270 0.00200
C 	C 	0.89910 0.44955 0.60830 0.16000
C 	C 	0.82260 0.41130 0.61030 0.13800
O 	O 	0.52695 0.76347 0.98363 -0.24400
C 	C 	0.64561 0.82280 0.85603 0.00200
C 	C 	0.56577 0.78288 0.94163 0.16000
C 	C 	0.48927 0.74463 0.94363 0.13800
O 	O 	0.19361 0.09681 0.31697 -0.24300
C 	C 	0.31227 0.15614 0.18937 0.00200
C 	C 	0.23243 0.11622 0.27497 0.16000
C 	C 	0.15593 0.07797 0.27697 0.13800
O 	O 	0.56986 0.13972 0.65030 -0.24400
C 	C 	0.51053 0.02106 0.52270 0.00200
C 	C 	0.55045 0.10090 0.60830 0.16000
C 	C 	0.58870 0.17740 0.61030 0.13800
O 	O 	0.23653 0.47305 0.98363 -0.24400
C 	C 	0.17720 0.35439 0.85603 0.00200
C 	C 	0.21712 0.43423 0.94163 0.16000
C 	C 	0.25537 0.51073 0.94363 0.13800
O 	O 	0.90319 0.80639 0.31697 -0.24300
C 	C 	0.84386 0.68773 0.18937 0.00200
C 	C 	0.88378 0.76757 0.27497 0.16000
C 	C 	0.92203 0.84407 0.27697 0.13800
