data_crystal

_cell_length_a 35.15950
_cell_length_b 35.15950
_cell_length_c 22.14320
_cell_angle_alpha 90.00000
_cell_angle_beta  90.00000
_cell_angle_gamma 120.00000

_symmetry_space_group_name_	'P 1'
_symmetry_space_group_name_H-M	'P 1'

loop_
_symmetry_equiv_pos_as_xyz
  x,y,z

loop_
_atom_site_label
_atom_site_type_symbol
_atom_site_fract_x
_atom_site_fract_y
_atom_site_fract_z
_atom_site_charge
O 	O 	0.36219 0.14185 0.59806 -0.41000
O 	O 	0.38924 0.15525 0.69225 -0.40900
C 	C 	0.38775 0.14274 0.63889 0.37200
C 	C 	0.41919 0.12746 0.62150 -0.13300
C 	C 	0.44686 0.12520 0.66399 0.07400
H 	H 	0.44640 0.13390 0.70400 0.02300
C 	C 	0.47517 0.11023 0.64783 -0.15200
H 	H 	0.49390 0.10900 0.67710 0.09800
C 	C 	0.47632 0.09704 0.58949 0.11800
C 	C 	0.44835 0.09916 0.54694 -0.15300
H 	H 	0.44860 0.09040 0.50690 0.08600
C 	C 	0.41996 0.11424 0.56326 0.07200
H 	H 	0.40110 0.11540 0.53420 0.02300
C 	C 	0.50477 0.07863 0.57124 -0.07200
C 	C 	0.48646 0.04033 0.53687 -0.04000
H 	H 	0.45670 0.02730 0.52580 0.04400
C 	C 	0.58820 0.20993 0.63940 -0.00600
C 	C 	0.61530 0.18800 0.54340 -0.02700
O 	O 	0.02886 0.47518 0.93139 -0.41000
O 	O 	0.05591 0.48858 0.02558 -0.40900
C 	C 	0.05442 0.47607 0.97222 0.37200
C 	C 	0.08586 0.46079 0.95483 -0.13300
C 	C 	0.11353 0.45853 0.99732 0.07400
H 	H 	0.11307 0.46723 0.03733 0.02300
C 	C 	0.14184 0.44356 0.98116 -0.15200
H 	H 	0.16057 0.44233 0.01043 0.09700
C 	C 	0.14299 0.43037 0.92282 0.11800
C 	C 	0.11502 0.43249 0.88027 -0.15300
H 	H 	0.11527 0.42373 0.84023 0.08600
C 	C 	0.08663 0.44757 0.89659 0.07200
H 	H 	0.06777 0.44873 0.86753 0.02300
C 	C 	0.17144 0.41196 0.90457 -0.07200
C 	C 	0.15313 0.37366 0.87020 -0.04000
H 	H 	0.12337 0.36063 0.85913 0.04400
C 	C 	0.25487 0.54326 0.97273 -0.00600
C 	C 	0.28197 0.52133 0.87673 -0.02700
O 	O 	0.69552 0.80852 0.26473 -0.41000
O 	O 	0.72257 0.82192 0.35892 -0.40900
C 	C 	0.72108 0.80941 0.30556 0.37200
C 	C 	0.75252 0.79413 0.28817 -0.13300
C 	C 	0.78019 0.79187 0.33066 0.07400
H 	H 	0.77973 0.80057 0.37067 0.02300
C 	C 	0.80850 0.77690 0.31450 -0.15100
H 	H 	0.82723 0.77567 0.34377 0.09900
C 	C 	0.80965 0.76371 0.25616 0.11900
C 	C 	0.78168 0.76583 0.21361 -0.15200
H 	H 	0.78193 0.75707 0.17357 0.08700
C 	C 	0.75329 0.78091 0.22993 0.07300
H 	H 	0.73443 0.78207 0.20087 0.02400
C 	C 	0.83810 0.74530 0.23791 -0.07100
C 	C 	0.81979 0.70700 0.20354 -0.03900
H 	H 	0.79003 0.69397 0.19247 0.04500
C 	C 	0.92153 0.87660 0.30607 -0.00500
C 	C 	0.94863 0.85467 0.21007 -0.02600
O 	O 	0.85815 0.22034 0.59806 -0.40900
O 	O 	0.84475 0.23399 0.69225 -0.40800
C 	C 	0.85726 0.24501 0.63889 0.37300
C 	C 	0.87254 0.29173 0.62150 -0.13200
C 	C 	0.87480 0.32166 0.66399 0.07500
H 	H 	0.86610 0.31250 0.70400 0.02400
C 	C 	0.88977 0.36494 0.64783 -0.15100
H 	H 	0.89100 0.38490 0.67710 0.09900
C 	C 	0.90296 0.37928 0.58949 0.11900
C 	C 	0.90084 0.34919 0.54694 -0.15200
H 	H 	0.90960 0.35820 0.50690 0.08700
C 	C 	0.88576 0.30572 0.56326 0.07300
H 	H 	0.88460 0.28570 0.53420 0.02400
C 	C 	0.92137 0.42614 0.57124 -0.07100
C 	C 	0.95967 0.44613 0.53687 -0.03900
H 	H 	0.97270 0.42940 0.52580 0.04500
C 	C 	0.79007 0.37827 0.63940 -0.00500
C 	C 	0.81200 0.42730 0.54340 -0.02600
O 	O 	0.52482 0.55367 0.93139 -0.40900
O 	O 	0.51142 0.56732 0.02558 -0.40800
C 	C 	0.52393 0.57834 0.97222 0.37300
C 	C 	0.53921 0.62506 0.95483 -0.13200
C 	C 	0.54147 0.65499 0.99732 0.07500
H 	H 	0.53277 0.64583 0.03733 0.02400
C 	C 	0.55644 0.69827 0.98116 -0.15000
H 	H 	0.55767 0.71823 0.01043 0.09800
C 	C 	0.56963 0.71261 0.92282 0.11900
C 	C 	0.56751 0.68252 0.88027 -0.15200
H 	H 	0.57627 0.69153 0.84023 0.08700
C 	C 	0.55243 0.63905 0.89659 0.07300
H 	H 	0.55127 0.61903 0.86753 0.02400
C 	C 	0.58804 0.75947 0.90457 -0.07100
C 	C 	0.62634 0.77946 0.87020 -0.03900
H 	H 	0.63937 0.76273 0.85913 0.04500
C 	C 	0.45674 0.71160 0.97273 -0.00500
C 	C 	0.47867 0.76063 0.87673 -0.02600
O 	O 	0.19148 0.88701 0.26473 -0.40900
O 	O 	0.17808 0.90066 0.35892 -0.40800
C 	C 	0.19059 0.91168 0.30556 0.37300
C 	C 	0.20587 0.95840 0.28817 -0.13200
C 	C 	0.20813 0.98833 0.33066 0.07400
H 	H 	0.19943 0.97917 0.37067 0.02400
C 	C 	0.22310 0.03161 0.31450 -0.15000
H 	H 	0.22433 0.05157 0.34377 0.09800
C 	C 	0.23629 0.04595 0.25616 0.11800
C 	C 	0.23417 0.01586 0.21361 -0.15100
H 	H 	0.24293 0.02487 0.17357 0.08700
C 	C 	0.21909 0.97239 0.22993 0.07300
H 	H 	0.21793 0.95237 0.20087 0.02400
C 	C 	0.25470 0.09281 0.23791 -0.07100
C 	C 	0.29300 0.11280 0.20354 -0.03900
H 	H 	0.30603 0.09607 0.19247 0.04500
C 	C 	0.12340 0.04494 0.30607 -0.00500
C 	C 	0.14533 0.09397 0.21007 -0.02600
O 	O 	0.77966 0.63781 0.59806 -0.40900
O 	O 	0.76601 0.61076 0.69225 -0.40800
C 	C 	0.75499 0.61225 0.63889 0.37300
C 	C 	0.70827 0.58081 0.62150 -0.13200
C 	C 	0.67834 0.55314 0.66399 0.07500
H 	H 	0.68750 0.55360 0.70400 0.02400
C 	C 	0.63506 0.52483 0.64783 -0.15100
H 	H 	0.61510 0.50610 0.67710 0.09900
C 	C 	0.62072 0.52368 0.58949 0.11900
C 	C 	0.65081 0.55165 0.54694 -0.15200
H 	H 	0.64180 0.55140 0.50690 0.08700
C 	C 	0.69428 0.58004 0.56326 0.07300
H 	H 	0.71430 0.59890 0.53420 0.02400
C 	C 	0.57386 0.49523 0.57124 -0.07100
C 	C 	0.55387 0.51354 0.53687 -0.03900
H 	H 	0.57060 0.54330 0.52580 0.04500
C 	C 	0.62173 0.41180 0.63940 -0.00500
C 	C 	0.57270 0.38470 0.54340 -0.02600
O 	O 	0.44633 0.97114 0.93139 -0.40900
O 	O 	0.43268 0.94409 0.02558 -0.40800
C 	C 	0.42166 0.94558 0.97222 0.37300
C 	C 	0.37494 0.91414 0.95483 -0.13200
C 	C 	0.34501 0.88647 0.99732 0.07500
H 	H 	0.35417 0.88693 0.03733 0.02400
C 	C 	0.30173 0.85816 0.98116 -0.15000
H 	H 	0.28177 0.83943 0.01043 0.09800
C 	C 	0.28739 0.85701 0.92282 0.11900
C 	C 	0.31748 0.88498 0.88027 -0.15200
H 	H 	0.30847 0.88473 0.84023 0.08700
C 	C 	0.36095 0.91337 0.89659 0.07300
H 	H 	0.38097 0.93223 0.86753 0.02400
C 	C 	0.24053 0.82856 0.90457 -0.07100
C 	C 	0.22054 0.84687 0.87020 -0.03900
H 	H 	0.23727 0.87663 0.85913 0.04500
C 	C 	0.28840 0.74513 0.97273 -0.00500
C 	C 	0.23937 0.71803 0.87673 -0.02600
O 	O 	0.11299 0.30448 0.26473 -0.40900
O 	O 	0.09934 0.27743 0.35892 -0.40800
C 	C 	0.08832 0.27892 0.30556 0.37300
C 	C 	0.04160 0.24748 0.28817 -0.13200
C 	C 	0.01167 0.21981 0.33066 0.07400
H 	H 	0.02083 0.22027 0.37067 0.02400
C 	C 	0.96839 0.19150 0.31450 -0.15000
H 	H 	0.94843 0.17277 0.34377 0.09800
C 	C 	0.95405 0.19035 0.25616 0.11800
C 	C 	0.98414 0.21832 0.21361 -0.15100
H 	H 	0.97513 0.21807 0.17357 0.08700
C 	C 	0.02761 0.24671 0.22993 0.07300
H 	H 	0.04763 0.26557 0.20087 0.02400
C 	C 	0.90719 0.16190 0.23791 -0.07100
C 	C 	0.88720 0.18021 0.20354 -0.03900
H 	H 	0.90393 0.20997 0.19247 0.04500
C 	C 	0.95506 0.07847 0.30607 -0.00500
C 	C 	0.90603 0.05137 0.21007 -0.02600
O 	O 	0.14185 0.36219 0.40194 -0.40900
O 	O 	0.15525 0.38924 0.30775 -0.40800
C 	C 	0.14274 0.38775 0.36111 0.37300
C 	C 	0.12746 0.41919 0.37850 -0.13200
C 	C 	0.12520 0.44686 0.33601 0.07500
H 	H 	0.13390 0.44640 0.29600 0.02400
C 	C 	0.11023 0.47517 0.35217 -0.15100
H 	H 	0.10900 0.49390 0.32290 0.09900
C 	C 	0.09704 0.47632 0.41051 0.11900
C 	C 	0.09916 0.44835 0.45306 -0.15200
H 	H 	0.09040 0.44860 0.49310 0.08700
C 	C 	0.11424 0.41996 0.43674 0.07300
H 	H 	0.11540 0.40110 0.46580 0.02400
C 	C 	0.07863 0.50477 0.42876 -0.07100
C 	C 	0.04033 0.48646 0.46313 -0.03900
H 	H 	0.02730 0.45670 0.47420 0.04500
C 	C 	0.20993 0.58820 0.36060 -0.00500
C 	C 	0.18800 0.61530 0.45660 -0.02600
O 	O 	0.80852 0.69552 0.73527 -0.40900
O 	O 	0.82192 0.72257 0.64108 -0.40800
C 	C 	0.80941 0.72108 0.69444 0.37300
C 	C 	0.79413 0.75252 0.71183 -0.13200
C 	C 	0.79187 0.78019 0.66934 0.07500
H 	H 	0.80057 0.77973 0.62933 0.02400
C 	C 	0.77690 0.80850 0.68550 -0.15100
H 	H 	0.77567 0.82723 0.65623 0.09900
C 	C 	0.76371 0.80965 0.74384 0.11900
C 	C 	0.76583 0.78168 0.78639 -0.15200
H 	H 	0.75707 0.78193 0.82643 0.08700
C 	C 	0.78091 0.75329 0.77007 0.07300
H 	H 	0.78207 0.73443 0.79913 0.02400
C 	C 	0.74530 0.83810 0.76209 -0.07100
C 	C 	0.70700 0.81979 0.79646 -0.03900
H 	H 	0.69397 0.79003 0.80753 0.04500
C 	C 	0.87660 0.92153 0.69393 -0.00500
C 	C 	0.85467 0.94863 0.78993 -0.02600
O 	O 	0.47518 0.02886 0.06861 -0.40900
O 	O 	0.48858 0.05591 0.97442 -0.40800
C 	C 	0.47607 0.05442 0.02778 0.37300
C 	C 	0.46079 0.08586 0.04517 -0.13200
C 	C 	0.45853 0.11353 0.00268 0.07500
H 	H 	0.46723 0.11307 0.96267 0.02400
C 	C 	0.44356 0.14184 0.01884 -0.15100
H 	H 	0.44233 0.16057 0.98957 0.09800
C 	C 	0.43037 0.14299 0.07718 0.11900
C 	C 	0.43249 0.11502 0.11973 -0.15200
H 	H 	0.42373 0.11527 0.15977 0.08700
C 	C 	0.44757 0.08663 0.10341 0.07300
H 	H 	0.44873 0.06777 0.13247 0.02400
C 	C 	0.41196 0.17144 0.09543 -0.07100
C 	C 	0.37366 0.15313 0.12980 -0.03900
H 	H 	0.36063 0.12337 0.14087 0.04500
C 	C 	0.54326 0.25487 0.02727 -0.00500
C 	C 	0.52133 0.28197 0.12327 -0.02600
O 	O 	0.22034 0.85815 0.40194 -0.40900
O 	O 	0.23399 0.84475 0.30775 -0.40800
C 	C 	0.24501 0.85726 0.36111 0.37300
C 	C 	0.29173 0.87254 0.37850 -0.13200
C 	C 	0.32166 0.87480 0.33601 0.07500
H 	H 	0.31250 0.86610 0.29600 0.02400
C 	C 	0.36494 0.88977 0.35217 -0.15100
H 	H 	0.38490 0.89100 0.32290 0.09900
C 	C 	0.37928 0.90296 0.41051 0.11900
C 	C 	0.34919 0.90084 0.45306 -0.15200
H 	H 	0.35820 0.90960 0.49310 0.08700
C 	C 	0.30572 0.88576 0.43674 0.07300
H 	H 	0.28570 0.88460 0.46580 0.02400
C 	C 	0.42614 0.92137 0.42876 -0.07100
C 	C 	0.44613 0.95967 0.46313 -0.03900
H 	H 	0.42940 0.97270 0.47420 0.04500
C 	C 	0.37827 0.79007 0.36060 -0.00500
C 	C 	0.42730 0.81200 0.45660 -0.02600
O 	O 	0.88701 0.19148 0.73527 -0.40900
O 	O 	0.90066 0.17808 0.64108 -0.40800
C 	C 	0.91168 0.19059 0.69444 0.37300
C 	C 	0.95840 0.20587 0.71183 -0.13200
C 	C 	0.98833 0.20813 0.66934 0.07400
H 	H 	0.97917 0.19943 0.62933 0.02400
C 	C 	0.03161 0.22310 0.68550 -0.15000
H 	H 	0.05157 0.22433 0.65623 0.09800
C 	C 	0.04595 0.23629 0.74384 0.11800
C 	C 	0.01586 0.23417 0.78639 -0.15100
H 	H 	0.02487 0.24293 0.82643 0.08700
C 	C 	0.97239 0.21909 0.77007 0.07300
H 	H 	0.95237 0.21793 0.79913 0.02400
C 	C 	0.09281 0.25470 0.76209 -0.07100
C 	C 	0.11280 0.29300 0.79646 -0.03900
H 	H 	0.09607 0.30603 0.80753 0.04500
C 	C 	0.04494 0.12340 0.69393 -0.00500
C 	C 	0.09397 0.14533 0.78993 -0.02600
O 	O 	0.55367 0.52482 0.06861 -0.40900
O 	O 	0.56732 0.51142 0.97442 -0.40800
C 	C 	0.57834 0.52393 0.02778 0.37300
C 	C 	0.62506 0.53921 0.04517 -0.13200
C 	C 	0.65499 0.54147 0.00268 0.07500
H 	H 	0.64583 0.53277 0.96267 0.02400
C 	C 	0.69827 0.55644 0.01884 -0.15000
H 	H 	0.71823 0.55767 0.98957 0.09800
C 	C 	0.71261 0.56963 0.07718 0.11900
C 	C 	0.68252 0.56751 0.11973 -0.15200
H 	H 	0.69153 0.57627 0.15977 0.08700
C 	C 	0.63905 0.55243 0.10341 0.07300
H 	H 	0.61903 0.55127 0.13247 0.02400
C 	C 	0.75947 0.58804 0.09543 -0.07100
C 	C 	0.77946 0.62634 0.12980 -0.03900
H 	H 	0.76273 0.63937 0.14087 0.04500
C 	C 	0.71160 0.45674 0.02727 -0.00500
C 	C 	0.76063 0.47867 0.12327 -0.02600
O 	O 	0.63781 0.77966 0.40194 -0.40900
O 	O 	0.61076 0.76601 0.30775 -0.40800
C 	C 	0.61225 0.75499 0.36111 0.37300
C 	C 	0.58081 0.70827 0.37850 -0.13200
C 	C 	0.55314 0.67834 0.33601 0.07500
H 	H 	0.55360 0.68750 0.29600 0.02400
C 	C 	0.52483 0.63506 0.35217 -0.15100
H 	H 	0.50610 0.61510 0.32290 0.09900
C 	C 	0.52368 0.62072 0.41051 0.11900
C 	C 	0.55165 0.65081 0.45306 -0.15200
H 	H 	0.55140 0.64180 0.49310 0.08700
C 	C 	0.58004 0.69428 0.43674 0.07300
H 	H 	0.59890 0.71430 0.46580 0.02400
C 	C 	0.49523 0.57386 0.42876 -0.07100
C 	C 	0.51354 0.55387 0.46313 -0.03900
H 	H 	0.54330 0.57060 0.47420 0.04500
C 	C 	0.41180 0.62173 0.36060 -0.00500
C 	C 	0.38470 0.57270 0.45660 -0.02600
O 	O 	0.30448 0.11299 0.73527 -0.40900
O 	O 	0.27743 0.09934 0.64108 -0.40800
C 	C 	0.27892 0.08832 0.69444 0.37300
C 	C 	0.24748 0.04160 0.71183 -0.13200
C 	C 	0.21981 0.01167 0.66934 0.07400
H 	H 	0.22027 0.02083 0.62933 0.02400
C 	C 	0.19150 0.96839 0.68550 -0.15000
H 	H 	0.17277 0.94843 0.65623 0.09800
C 	C 	0.19035 0.95405 0.74384 0.11800
C 	C 	0.21832 0.98414 0.78639 -0.15100
H 	H 	0.21807 0.97513 0.82643 0.08700
C 	C 	0.24671 0.02761 0.77007 0.07300
H 	H 	0.26557 0.04763 0.79913 0.02400
C 	C 	0.16190 0.90719 0.76209 -0.07100
C 	C 	0.18021 0.88720 0.79646 -0.03900
H 	H 	0.20997 0.90393 0.80753 0.04500
C 	C 	0.07847 0.95506 0.69393 -0.00500
C 	C 	0.05137 0.90603 0.78993 -0.02600
O 	O 	0.97114 0.44633 0.06861 -0.40900
O 	O 	0.94409 0.43268 0.97442 -0.40800
C 	C 	0.94558 0.42166 0.02778 0.37300
C 	C 	0.91414 0.37494 0.04517 -0.13200
C 	C 	0.88647 0.34501 0.00268 0.07500
H 	H 	0.88693 0.35417 0.96267 0.02400
C 	C 	0.85816 0.30173 0.01884 -0.15000
H 	H 	0.83943 0.28177 0.98957 0.09800
C 	C 	0.85701 0.28739 0.07718 0.11900
C 	C 	0.88498 0.31748 0.11973 -0.15200
H 	H 	0.88473 0.30847 0.15977 0.08700
C 	C 	0.91337 0.36095 0.10341 0.07300
H 	H 	0.93223 0.38097 0.13247 0.02400
C 	C 	0.82856 0.24053 0.09543 -0.07100
C 	C 	0.84687 0.22054 0.12980 -0.03900
H 	H 	0.87663 0.23727 0.14087 0.04500
C 	C 	0.74513 0.28840 0.02727 -0.00500
C 	C 	0.71803 0.23937 0.12327 -0.02600
O 	O 	0.63781 0.85815 0.40194 -0.40900
O 	O 	0.61076 0.84475 0.30775 -0.40800
C 	C 	0.61225 0.85726 0.36111 0.37300
C 	C 	0.58081 0.87254 0.37850 -0.13200
C 	C 	0.55314 0.87480 0.33601 0.07500
H 	H 	0.55360 0.86610 0.29600 0.02400
C 	C 	0.52483 0.88977 0.35217 -0.15100
H 	H 	0.50610 0.89100 0.32290 0.09900
C 	C 	0.52368 0.90296 0.41051 0.11900
C 	C 	0.55165 0.90084 0.45306 -0.15200
H 	H 	0.55140 0.90960 0.49310 0.08700
C 	C 	0.58004 0.88576 0.43674 0.07300
H 	H 	0.59890 0.88460 0.46580 0.02400
C 	C 	0.49523 0.92137 0.42876 -0.07100
C 	C 	0.51354 0.95967 0.46313 -0.03900
H 	H 	0.54330 0.97270 0.47420 0.04500
C 	C 	0.41180 0.79007 0.36060 -0.00500
C 	C 	0.38470 0.81200 0.45660 -0.02600
O 	O 	0.30448 0.19148 0.73527 -0.40900
O 	O 	0.27743 0.17808 0.64108 -0.40800
C 	C 	0.27892 0.19059 0.69444 0.37300
C 	C 	0.24748 0.20587 0.71183 -0.13200
C 	C 	0.21981 0.20813 0.66934 0.07500
H 	H 	0.22027 0.19943 0.62933 0.02400
C 	C 	0.19150 0.22310 0.68550 -0.15100
H 	H 	0.17277 0.22433 0.65623 0.09900
C 	C 	0.19035 0.23629 0.74384 0.11900
C 	C 	0.21832 0.23417 0.78639 -0.15200
H 	H 	0.21807 0.24293 0.82643 0.08700
C 	C 	0.24671 0.21909 0.77007 0.07300
H 	H 	0.26557 0.21793 0.79913 0.02400
C 	C 	0.16190 0.25470 0.76209 -0.07100
C 	C 	0.18021 0.29300 0.79646 -0.03900
H 	H 	0.20997 0.30603 0.80753 0.04500
C 	C 	0.07847 0.12340 0.69393 -0.00500
C 	C 	0.05137 0.14533 0.78993 -0.02600
O 	O 	0.97114 0.52482 0.06861 -0.40900
O 	O 	0.94409 0.51142 0.97442 -0.40800
C 	C 	0.94558 0.52393 0.02778 0.37300
C 	C 	0.91414 0.53921 0.04517 -0.13200
C 	C 	0.88647 0.54147 0.00268 0.07500
H 	H 	0.88693 0.53277 0.96267 0.02400
C 	C 	0.85816 0.55644 0.01884 -0.15100
H 	H 	0.83943 0.55767 0.98957 0.09800
C 	C 	0.85701 0.56963 0.07718 0.11900
C 	C 	0.88498 0.56751 0.11973 -0.15200
H 	H 	0.88473 0.57627 0.15977 0.08700
C 	C 	0.91337 0.55243 0.10341 0.07300
H 	H 	0.93223 0.55127 0.13247 0.02400
C 	C 	0.82856 0.58804 0.09543 -0.07100
C 	C 	0.84687 0.62634 0.12980 -0.03900
H 	H 	0.87663 0.63937 0.14087 0.04500
C 	C 	0.74513 0.45674 0.02727 -0.00500
C 	C 	0.71803 0.47867 0.12327 -0.02600
O 	O 	0.14185 0.77966 0.40194 -0.40900
O 	O 	0.15525 0.76601 0.30775 -0.40800
C 	C 	0.14274 0.75499 0.36111 0.37300
C 	C 	0.12746 0.70827 0.37850 -0.13200
C 	C 	0.12520 0.67834 0.33601 0.07500
H 	H 	0.13390 0.68750 0.29600 0.02400
C 	C 	0.11023 0.63506 0.35217 -0.15100
H 	H 	0.10900 0.61510 0.32290 0.09900
C 	C 	0.09704 0.62072 0.41051 0.11900
C 	C 	0.09916 0.65081 0.45306 -0.15200
H 	H 	0.09040 0.64180 0.49310 0.08700
C 	C 	0.11424 0.69428 0.43674 0.07300
H 	H 	0.11540 0.71430 0.46580 0.02400
C 	C 	0.07863 0.57386 0.42876 -0.07100
C 	C 	0.04033 0.55387 0.46313 -0.03900
H 	H 	0.02730 0.57060 0.47420 0.04500
C 	C 	0.20993 0.62173 0.36060 -0.00500
C 	C 	0.18800 0.57270 0.45660 -0.02600
O 	O 	0.80852 0.11299 0.73527 -0.40900
O 	O 	0.82192 0.09934 0.64108 -0.40800
C 	C 	0.80941 0.08832 0.69444 0.37300
C 	C 	0.79413 0.04160 0.71183 -0.13200
C 	C 	0.79187 0.01167 0.66934 0.07400
H 	H 	0.80057 0.02083 0.62933 0.02400
C 	C 	0.77690 0.96839 0.68550 -0.15000
H 	H 	0.77567 0.94843 0.65623 0.09800
C 	C 	0.76371 0.95405 0.74384 0.11800
C 	C 	0.76583 0.98414 0.78639 -0.15100
H 	H 	0.75707 0.97513 0.82643 0.08700
C 	C 	0.78091 0.02761 0.77007 0.07300
H 	H 	0.78207 0.04763 0.79913 0.02400
C 	C 	0.74530 0.90719 0.76209 -0.07100
C 	C 	0.70700 0.88720 0.79646 -0.03900
H 	H 	0.69397 0.90393 0.80753 0.04500
C 	C 	0.87660 0.95506 0.69393 -0.00500
C 	C 	0.85467 0.90603 0.78993 -0.02600
O 	O 	0.47518 0.44633 0.06861 -0.40900
O 	O 	0.48858 0.43268 0.97442 -0.40800
C 	C 	0.47607 0.42166 0.02778 0.37300
C 	C 	0.46079 0.37494 0.04517 -0.13200
C 	C 	0.45853 0.34501 0.00268 0.07500
H 	H 	0.46723 0.35417 0.96267 0.02400
C 	C 	0.44356 0.30173 0.01884 -0.15000
H 	H 	0.44233 0.28177 0.98957 0.09800
C 	C 	0.43037 0.28739 0.07718 0.11900
C 	C 	0.43249 0.31748 0.11973 -0.15200
H 	H 	0.42373 0.30847 0.15977 0.08700
C 	C 	0.44757 0.36095 0.10341 0.07300
H 	H 	0.44873 0.38097 0.13247 0.02400
C 	C 	0.41196 0.24053 0.09543 -0.07100
C 	C 	0.37366 0.22054 0.12980 -0.03900
H 	H 	0.36063 0.23727 0.14087 0.04500
C 	C 	0.54326 0.28840 0.02727 -0.00500
C 	C 	0.52133 0.23937 0.12327 -0.02600
O 	O 	0.22034 0.36219 0.40194 -0.40900
O 	O 	0.23399 0.38924 0.30775 -0.40800
C 	C 	0.24501 0.38775 0.36111 0.37300
C 	C 	0.29173 0.41919 0.37850 -0.13200
C 	C 	0.32166 0.44686 0.33601 0.07500
H 	H 	0.31250 0.44640 0.29600 0.02400
C 	C 	0.36494 0.47517 0.35217 -0.15100
H 	H 	0.38490 0.49390 0.32290 0.09900
C 	C 	0.37928 0.47632 0.41051 0.11900
C 	C 	0.34919 0.44835 0.45306 -0.15200
H 	H 	0.35820 0.44860 0.49310 0.08700
C 	C 	0.30572 0.41996 0.43674 0.07300
H 	H 	0.28570 0.40110 0.46580 0.02400
C 	C 	0.42614 0.50477 0.42876 -0.07100
C 	C 	0.44613 0.48646 0.46313 -0.03900
H 	H 	0.42940 0.45670 0.47420 0.04500
C 	C 	0.37827 0.58820 0.36060 -0.00500
C 	C 	0.42730 0.61530 0.45660 -0.02600
O 	O 	0.88701 0.69552 0.73527 -0.40900
O 	O 	0.90066 0.72257 0.64108 -0.40800
C 	C 	0.91168 0.72108 0.69444 0.37300
C 	C 	0.95840 0.75252 0.71183 -0.13200
C 	C 	0.98833 0.78019 0.66934 0.07400
H 	H 	0.97917 0.77973 0.62933 0.02400
C 	C 	0.03161 0.80850 0.68550 -0.15000
H 	H 	0.05157 0.82723 0.65623 0.09800
C 	C 	0.04595 0.80965 0.74384 0.11800
C 	C 	0.01586 0.78168 0.78639 -0.15100
H 	H 	0.02487 0.78193 0.82643 0.08700
C 	C 	0.97239 0.75329 0.77007 0.07300
H 	H 	0.95237 0.73443 0.79913 0.02400
C 	C 	0.09281 0.83810 0.76209 -0.07100
C 	C 	0.11280 0.81979 0.79646 -0.03900
H 	H 	0.09607 0.79003 0.80753 0.04500
C 	C 	0.04494 0.92153 0.69393 -0.00500
C 	C 	0.09397 0.94863 0.78993 -0.02600
O 	O 	0.55367 0.02886 0.06861 -0.40900
O 	O 	0.56732 0.05591 0.97442 -0.40800
C 	C 	0.57834 0.05442 0.02778 0.37300
C 	C 	0.62506 0.08586 0.04517 -0.13200
C 	C 	0.65499 0.11353 0.00268 0.07500
H 	H 	0.64583 0.11307 0.96267 0.02400
C 	C 	0.69827 0.14184 0.01884 -0.15000
H 	H 	0.71823 0.16057 0.98957 0.09800
C 	C 	0.71261 0.14299 0.07718 0.11900
C 	C 	0.68252 0.11502 0.11973 -0.15200
H 	H 	0.69153 0.11527 0.15977 0.08700
C 	C 	0.63905 0.08663 0.10341 0.07300
H 	H 	0.61903 0.06777 0.13247 0.02400
C 	C 	0.75947 0.17144 0.09543 -0.07100
C 	C 	0.77946 0.15313 0.12980 -0.03900
H 	H 	0.76273 0.12337 0.14087 0.04500
C 	C 	0.71160 0.25487 0.02727 -0.00500
C 	C 	0.76063 0.28197 0.12327 -0.02600
O 	O 	0.85815 0.63781 0.59806 -0.40900
O 	O 	0.84475 0.61076 0.69225 -0.40800
C 	C 	0.85726 0.61225 0.63889 0.37300
C 	C 	0.87254 0.58081 0.62150 -0.13200
C 	C 	0.87480 0.55314 0.66399 0.07500
H 	H 	0.86610 0.55360 0.70400 0.02400
C 	C 	0.88977 0.52483 0.64783 -0.15100
H 	H 	0.89100 0.50610 0.67710 0.09900
C 	C 	0.90296 0.52368 0.58949 0.11900
C 	C 	0.90084 0.55165 0.54694 -0.15200
H 	H 	0.90960 0.55140 0.50690 0.08700
C 	C 	0.88576 0.58004 0.56326 0.07300
H 	H 	0.88460 0.59890 0.53420 0.02400
C 	C 	0.92137 0.49523 0.57124 -0.07100
C 	C 	0.95967 0.51354 0.53687 -0.03900
H 	H 	0.97270 0.54330 0.52580 0.04500
C 	C 	0.79007 0.41180 0.63940 -0.00500
C 	C 	0.81200 0.38470 0.54340 -0.02600
O 	O 	0.52482 0.97114 0.93139 -0.40900
O 	O 	0.51142 0.94409 0.02558 -0.40800
C 	C 	0.52393 0.94558 0.97222 0.37300
C 	C 	0.53921 0.91414 0.95483 -0.13200
C 	C 	0.54147 0.88647 0.99732 0.07500
H 	H 	0.53277 0.88693 0.03733 0.02400
C 	C 	0.55644 0.85816 0.98116 -0.15100
H 	H 	0.55767 0.83943 0.01043 0.09800
C 	C 	0.56963 0.85701 0.92282 0.11900
C 	C 	0.56751 0.88498 0.88027 -0.15200
H 	H 	0.57627 0.88473 0.84023 0.08700
C 	C 	0.55243 0.91337 0.89659 0.07300
H 	H 	0.55127 0.93223 0.86753 0.02400
C 	C 	0.58804 0.82856 0.90457 -0.07100
C 	C 	0.62634 0.84687 0.87020 -0.03900
H 	H 	0.63937 0.87663 0.85913 0.04500
C 	C 	0.45674 0.74513 0.97273 -0.00500
C 	C 	0.47867 0.71803 0.87673 -0.02600
O 	O 	0.19148 0.30448 0.26473 -0.40900
O 	O 	0.17808 0.27743 0.35892 -0.40800
C 	C 	0.19059 0.27892 0.30556 0.37300
C 	C 	0.20587 0.24748 0.28817 -0.13200
C 	C 	0.20813 0.21981 0.33066 0.07500
H 	H 	0.19943 0.22027 0.37067 0.02400
C 	C 	0.22310 0.19150 0.31450 -0.15100
H 	H 	0.22433 0.17277 0.34377 0.09900
C 	C 	0.23629 0.19035 0.25616 0.11900
C 	C 	0.23417 0.21832 0.21361 -0.15200
H 	H 	0.24293 0.21807 0.17357 0.08700
C 	C 	0.21909 0.24671 0.22993 0.07300
H 	H 	0.21793 0.26557 0.20087 0.02400
C 	C 	0.25470 0.16190 0.23791 -0.07100
C 	C 	0.29300 0.18021 0.20354 -0.03900
H 	H 	0.30603 0.20997 0.19247 0.04500
C 	C 	0.12340 0.07847 0.30607 -0.00500
C 	C 	0.14533 0.05137 0.21007 -0.02600
O 	O 	0.77966 0.14185 0.59806 -0.40900
O 	O 	0.76601 0.15525 0.69225 -0.40800
C 	C 	0.75499 0.14274 0.63889 0.37300
C 	C 	0.70827 0.12746 0.62150 -0.13200
C 	C 	0.67834 0.12520 0.66399 0.07500
H 	H 	0.68750 0.13390 0.70400 0.02400
C 	C 	0.63506 0.11023 0.64783 -0.15100
H 	H 	0.61510 0.10900 0.67710 0.09900
C 	C 	0.62072 0.09704 0.58949 0.11900
C 	C 	0.65081 0.09916 0.54694 -0.15200
H 	H 	0.64180 0.09040 0.50690 0.08700
C 	C 	0.69428 0.11424 0.56326 0.07300
H 	H 	0.71430 0.11540 0.53420 0.02400
C 	C 	0.57386 0.07863 0.57124 -0.07100
C 	C 	0.55387 0.04033 0.53687 -0.03900
H 	H 	0.57060 0.02730 0.52580 0.04500
C 	C 	0.62173 0.20993 0.63940 -0.00500
C 	C 	0.57270 0.18800 0.54340 -0.02600
O 	O 	0.44633 0.47518 0.93139 -0.40900
O 	O 	0.43268 0.48858 0.02558 -0.40800
C 	C 	0.42166 0.47607 0.97222 0.37300
C 	C 	0.37494 0.46079 0.95483 -0.13200
C 	C 	0.34501 0.45853 0.99732 0.07500
H 	H 	0.35417 0.46723 0.03733 0.02400
C 	C 	0.30173 0.44356 0.98116 -0.15000
H 	H 	0.28177 0.44233 0.01043 0.09800
C 	C 	0.28739 0.43037 0.92282 0.11900
C 	C 	0.31748 0.43249 0.88027 -0.15200
H 	H 	0.30847 0.42373 0.84023 0.08700
C 	C 	0.36095 0.44757 0.89659 0.07300
H 	H 	0.38097 0.44873 0.86753 0.02400
C 	C 	0.24053 0.41196 0.90457 -0.07100
C 	C 	0.22054 0.37366 0.87020 -0.03900
H 	H 	0.23727 0.36063 0.85913 0.04500
C 	C 	0.28840 0.54326 0.97273 -0.00500
C 	C 	0.23937 0.52133 0.87673 -0.02600
O 	O 	0.11299 0.80852 0.26473 -0.40900
O 	O 	0.09934 0.82192 0.35892 -0.40800
C 	C 	0.08832 0.80941 0.30556 0.37300
C 	C 	0.04160 0.79413 0.28817 -0.13200
C 	C 	0.01167 0.79187 0.33066 0.07400
H 	H 	0.02083 0.80057 0.37067 0.02400
C 	C 	0.96839 0.77690 0.31450 -0.15000
H 	H 	0.94843 0.77567 0.34377 0.09800
C 	C 	0.95405 0.76371 0.25616 0.11800
C 	C 	0.98414 0.76583 0.21361 -0.15100
H 	H 	0.97513 0.75707 0.17357 0.08700
C 	C 	0.02761 0.78091 0.22993 0.07300
H 	H 	0.04763 0.78207 0.20087 0.02400
C 	C 	0.90719 0.74530 0.23791 -0.07100
C 	C 	0.88720 0.70700 0.20354 -0.03900
H 	H 	0.90393 0.69397 0.19247 0.04500
C 	C 	0.95506 0.87660 0.30607 -0.00500
C 	C 	0.90603 0.85467 0.21007 -0.02600
O 	O 	0.36219 0.22034 0.59806 -0.40900
O 	O 	0.38924 0.23399 0.69225 -0.40800
C 	C 	0.38775 0.24501 0.63889 0.37300
C 	C 	0.41919 0.29173 0.62150 -0.13200
C 	C 	0.44686 0.32166 0.66399 0.07500
H 	H 	0.44640 0.31250 0.70400 0.02400
C 	C 	0.47517 0.36494 0.64783 -0.15100
H 	H 	0.49390 0.38490 0.67710 0.09900
C 	C 	0.47632 0.37928 0.58949 0.11900
C 	C 	0.44835 0.34919 0.54694 -0.15200
H 	H 	0.44860 0.35820 0.50690 0.08700
C 	C 	0.41996 0.30572 0.56326 0.07300
H 	H 	0.40110 0.28570 0.53420 0.02400
C 	C 	0.50477 0.42614 0.57124 -0.07100
C 	C 	0.48646 0.44613 0.53687 -0.03900
H 	H 	0.45670 0.42940 0.52580 0.04500
C 	C 	0.58820 0.37827 0.63940 -0.00500
C 	C 	0.61530 0.42730 0.54340 -0.02600
O 	O 	0.02886 0.55367 0.93139 -0.40900
O 	O 	0.05591 0.56732 0.02558 -0.40800
C 	C 	0.05442 0.57834 0.97222 0.37300
C 	C 	0.08586 0.62506 0.95483 -0.13200
C 	C 	0.11353 0.65499 0.99732 0.07500
H 	H 	0.11307 0.64583 0.03733 0.02400
C 	C 	0.14184 0.69827 0.98116 -0.15000
H 	H 	0.16057 0.71823 0.01043 0.09800
C 	C 	0.14299 0.71261 0.92282 0.11900
C 	C 	0.11502 0.68252 0.88027 -0.15200
H 	H 	0.11527 0.69153 0.84023 0.08700
C 	C 	0.08663 0.63905 0.89659 0.07300
H 	H 	0.06777 0.61903 0.86753 0.02400
C 	C 	0.17144 0.75947 0.90457 -0.07100
C 	C 	0.15313 0.77946 0.87020 -0.03900
H 	H 	0.12337 0.76273 0.85913 0.04500
C 	C 	0.25487 0.71160 0.97273 -0.00500
C 	C 	0.28197 0.76063 0.87673 -0.02600
O 	O 	0.69552 0.88701 0.26473 -0.40900
O 	O 	0.72257 0.90066 0.35892 -0.40800
C 	C 	0.72108 0.91168 0.30556 0.37300
C 	C 	0.75252 0.95840 0.28817 -0.13200
C 	C 	0.78019 0.98833 0.33066 0.07400
H 	H 	0.77973 0.97917 0.37067 0.02400
C 	C 	0.80850 0.03161 0.31450 -0.15000
H 	H 	0.82723 0.05157 0.34377 0.09800
C 	C 	0.80965 0.04595 0.25616 0.11800
C 	C 	0.78168 0.01586 0.21361 -0.15100
H 	H 	0.78193 0.02487 0.17357 0.08700
C 	C 	0.75329 0.97239 0.22993 0.07300
H 	H 	0.73443 0.95237 0.20087 0.02400
C 	C 	0.83810 0.09281 0.23791 -0.07100
C 	C 	0.81979 0.11280 0.20354 -0.03900
H 	H 	0.79003 0.09607 0.19247 0.04500
C 	C 	0.92153 0.04494 0.30607 -0.00500
C 	C 	0.94863 0.09397 0.21007 -0.02600
Cu	Cu	0.31765 0.15882 0.61112 0.90500
Cu	Cu	0.98432 0.49216 0.94445 0.90500
Cu	Cu	0.65098 0.82549 0.27779 0.90500
Cu	Cu	0.84118 0.15882 0.61112 0.90500
Cu	Cu	0.50784 0.49216 0.94445 0.90500
Cu	Cu	0.17451 0.82549 0.27779 0.90500
Cu	Cu	0.84118 0.68235 0.61112 0.90500
Cu	Cu	0.50784 0.01568 0.94445 0.90500
Cu	Cu	0.17451 0.34902 0.27779 0.90500
Cu	Cu	0.15882 0.31765 0.38888 0.90500
Cu	Cu	0.82549 0.65098 0.72221 0.90500
Cu	Cu	0.49216 0.98432 0.05555 0.90500
Cu	Cu	0.15882 0.84118 0.38888 0.90500
Cu	Cu	0.82549 0.17451 0.72221 0.90500
Cu	Cu	0.49216 0.50784 0.05555 0.90500
Cu	Cu	0.68235 0.84118 0.38888 0.90500
Cu	Cu	0.34902 0.17451 0.72221 0.90500
Cu	Cu	0.01568 0.50784 0.05555 0.90500
O 	O 	0.56772 0.13545 0.62256 -0.23100
C 	C 	0.51017 0.02034 0.51813 0.00600
C 	C 	0.54890 0.09781 0.58864 0.14800
C 	C 	0.58812 0.17624 0.59180 0.12300
O 	O 	0.23439 0.46878 0.95589 -0.23100
C 	C 	0.17684 0.35367 0.85146 0.00600
C 	C 	0.21557 0.43114 0.92197 0.14800
C 	C 	0.25479 0.50957 0.92513 0.12300
O 	O 	0.90106 0.80212 0.28923 -0.23100
C 	C 	0.84350 0.68701 0.18480 0.00600
C 	C 	0.88224 0.76448 0.25531 0.14800
C 	C 	0.92145 0.84291 0.25847 0.12300
O 	O 	0.86455 0.43227 0.62256 -0.23100
C 	C 	0.97966 0.48983 0.51813 0.00600
C 	C 	0.90219 0.45109 0.58864 0.14800
C 	C 	0.82376 0.41188 0.59180 0.12300
O 	O 	0.53122 0.76561 0.95589 -0.23100
C 	C 	0.64633 0.82316 0.85146 0.00600
C 	C 	0.56886 0.78443 0.92197 0.14800
C 	C 	0.49043 0.74521 0.92513 0.12300
O 	O 	0.19788 0.09894 0.28923 -0.23100
C 	C 	0.31299 0.15650 0.18480 0.00600
C 	C 	0.23552 0.11776 0.25531 0.14800
C 	C 	0.15709 0.07855 0.25847 0.12300
O 	O 	0.56772 0.43228 0.62256 -0.23100
C 	C 	0.51017 0.48983 0.51813 0.00600
C 	C 	0.54891 0.45109 0.58864 0.14800
C 	C 	0.58812 0.41188 0.59180 0.12300
O 	O 	0.23439 0.76561 0.95589 -0.23100
C 	C 	0.17684 0.82316 0.85146 0.00600
C 	C 	0.21557 0.78443 0.92197 0.14800
C 	C 	0.25479 0.74521 0.92513 0.12300
O 	O 	0.90106 0.09894 0.28923 -0.23100
C 	C 	0.84350 0.15650 0.18480 0.00600
C 	C 	0.88224 0.11776 0.25531 0.14800
C 	C 	0.92145 0.07855 0.25847 0.12300
O 	O 	0.13545 0.56772 0.37744 -0.23100
C 	C 	0.02034 0.51017 0.48187 0.00600
C 	C 	0.09781 0.54890 0.41136 0.14800
C 	C 	0.17624 0.58812 0.40820 0.12300
O 	O 	0.80212 0.90106 0.71077 -0.23100
C 	C 	0.68701 0.84350 0.81520 0.00600
C 	C 	0.76448 0.88224 0.74469 0.14800
C 	C 	0.84291 0.92145 0.74153 0.12300
O 	O 	0.46878 0.23439 0.04411 -0.23100
C 	C 	0.35367 0.17684 0.14854 0.00600
C 	C 	0.43114 0.21557 0.07803 0.14800
C 	C 	0.50957 0.25479 0.07487 0.12300
O 	O 	0.43228 0.86455 0.37744 -0.23100
C 	C 	0.48983 0.97966 0.48187 0.00600
C 	C 	0.45109 0.90219 0.41136 0.14800
C 	C 	0.41188 0.82376 0.40820 0.12300
O 	O 	0.09894 0.19788 0.71077 -0.23100
C 	C 	0.15650 0.31299 0.81520 0.00600
C 	C 	0.11776 0.23552 0.74469 0.14800
C 	C 	0.07855 0.15709 0.74153 0.12300
O 	O 	0.76561 0.53122 0.04411 -0.23100
C 	C 	0.82316 0.64633 0.14854 0.00600
C 	C 	0.78443 0.56886 0.07803 0.14800
C 	C 	0.74521 0.49043 0.07487 0.12300
O 	O 	0.43228 0.56772 0.37744 -0.23100
C 	C 	0.48983 0.51017 0.48187 0.00600
C 	C 	0.45110 0.54890 0.41136 0.14800
C 	C 	0.41188 0.58812 0.40820 0.12300
O 	O 	0.09894 0.90106 0.71077 -0.23100
C 	C 	0.15650 0.84350 0.81520 0.00600
C 	C 	0.11776 0.88224 0.74469 0.14800
C 	C 	0.07855 0.92145 0.74153 0.12300
O 	O 	0.76561 0.23439 0.04411 -0.23100
C 	C 	0.82316 0.17684 0.14854 0.00600
C 	C 	0.78443 0.21557 0.07803 0.14800
C 	C 	0.74521 0.25479 0.07487 0.12300
