data_crystal

_cell_length_a 35.30070
_cell_length_b 35.30070
_cell_length_c 20.75000
_cell_angle_alpha 90.00000
_cell_angle_beta  90.00000
_cell_angle_gamma 120.00000

_symmetry_space_group_name_	'P 1'
_symmetry_space_group_name_H-M	'P 1'

loop_
_symmetry_equiv_pos_as_xyz
  x,y,z

loop_
_atom_site_label
_atom_site_type_symbol
_atom_site_fract_x
_atom_site_fract_y
_atom_site_fract_z
_atom_site_charge
O 	O 	0.77932 0.63690 0.59466 -0.41200
O 	O 	0.76655 0.61132 0.69576 -0.40800
C 	C 	0.75541 0.61192 0.63852 0.37500
C 	C 	0.70883 0.57973 0.62061 -0.12600
C 	C 	0.67958 0.55208 0.66659 0.06800
H 	H 	0.68940 0.55250 0.70930 0.02800
C 	C 	0.63611 0.52372 0.65109 -0.13900
H 	H 	0.61640 0.50510 0.68320 0.09400
C 	C 	0.62156 0.52257 0.58901 0.11100
C 	C 	0.65069 0.54990 0.54260 -0.14000
H 	H 	0.64100 0.54900 0.49960 0.08300
C 	C 	0.69446 0.57888 0.55896 0.06600
H 	H 	0.71420 0.59800 0.52720 0.02800
C 	C 	0.57425 0.49454 0.57191 -0.06600
C 	C 	0.55436 0.51276 0.53577 -0.03900
H 	H 	0.57160 0.54240 0.52250 0.04600
C 	C 	0.57710 0.39890 0.58770 0.05200
C 	C 	0.61660 0.42610 0.53550 -0.02100
C 	C 	0.58780 0.37660 0.64420 0.00000
O 	O 	0.44599 0.97023 0.92799 -0.41200
O 	O 	0.43322 0.94465 0.02909 -0.40800
C 	C 	0.42208 0.94525 0.97185 0.37600
C 	C 	0.37550 0.91306 0.95394 -0.12600
C 	C 	0.34625 0.88541 0.99992 0.06800
H 	H 	0.35607 0.88583 0.04263 0.02800
C 	C 	0.30278 0.85705 0.98442 -0.13900
H 	H 	0.28307 0.83843 0.01653 0.09400
C 	C 	0.28823 0.85590 0.92234 0.11100
C 	C 	0.31736 0.88323 0.87593 -0.14000
H 	H 	0.30767 0.88233 0.83293 0.08300
C 	C 	0.36113 0.91221 0.89229 0.06600
H 	H 	0.38087 0.93133 0.86053 0.02800
C 	C 	0.24092 0.82787 0.90524 -0.06500
C 	C 	0.22103 0.84609 0.86910 -0.03900
H 	H 	0.23827 0.87573 0.85583 0.04600
C 	C 	0.24377 0.73223 0.92103 0.05200
C 	C 	0.28327 0.75943 0.86883 -0.02100
C 	C 	0.25447 0.70993 0.97753 0.00000
O 	O 	0.11265 0.30357 0.26133 -0.41100
O 	O 	0.09988 0.27799 0.36243 -0.40800
C 	C 	0.08874 0.27859 0.30519 0.37500
C 	C 	0.04216 0.24640 0.28728 -0.12600
C 	C 	0.01291 0.21875 0.33326 0.06700
H 	H 	0.02273 0.21917 0.37597 0.02800
C 	C 	0.96944 0.19039 0.31776 -0.13900
H 	H 	0.94973 0.17177 0.34987 0.09400
C 	C 	0.95489 0.18924 0.25568 0.11100
C 	C 	0.98402 0.21657 0.20927 -0.13900
H 	H 	0.97433 0.21567 0.16627 0.08300
C 	C 	0.02779 0.24555 0.22563 0.06500
H 	H 	0.04753 0.26467 0.19387 0.02800
C 	C 	0.90758 0.16121 0.23858 -0.06500
C 	C 	0.88769 0.17943 0.20244 -0.03900
H 	H 	0.90493 0.20907 0.18917 0.04600
C 	C 	0.91043 0.06557 0.25437 0.05200
C 	C 	0.94993 0.09277 0.20217 -0.02000
C 	C 	0.92113 0.04327 0.31087 0.00000
O 	O 	0.36310 0.14242 0.59466 -0.41100
O 	O 	0.38868 0.15523 0.69576 -0.40800
C 	C 	0.38808 0.14349 0.63852 0.37500
C 	C 	0.42027 0.12910 0.62061 -0.12700
C 	C 	0.44792 0.12750 0.66659 0.06700
H 	H 	0.44750 0.13690 0.70930 0.02700
C 	C 	0.47628 0.11239 0.65109 -0.14000
H 	H 	0.49490 0.11130 0.68320 0.09300
C 	C 	0.47743 0.09899 0.58901 0.11000
C 	C 	0.45010 0.10079 0.54260 -0.14100
H 	H 	0.45100 0.09200 0.49960 0.08200
C 	C 	0.42112 0.11558 0.55896 0.06500
H 	H 	0.40200 0.11620 0.52720 0.02700
C 	C 	0.50546 0.07971 0.57191 -0.06700
C 	C 	0.48724 0.04160 0.53577 -0.04000
H 	H 	0.45760 0.02920 0.52250 0.04500
C 	C 	0.60110 0.17820 0.58770 0.05100
C 	C 	0.57390 0.19050 0.53550 -0.02200
C 	C 	0.62340 0.21120 0.64420 -0.00100
O 	O 	0.02977 0.47575 0.92799 -0.41200
O 	O 	0.05535 0.48856 0.02909 -0.40900
C 	C 	0.05475 0.47682 0.97185 0.37500
C 	C 	0.08694 0.46243 0.95394 -0.12700
C 	C 	0.11459 0.46083 0.99992 0.06700
H 	H 	0.11417 0.47023 0.04263 0.02700
C 	C 	0.14295 0.44572 0.98442 -0.14000
H 	H 	0.16157 0.44463 0.01653 0.09300
C 	C 	0.14410 0.43232 0.92234 0.11000
C 	C 	0.11677 0.43412 0.87593 -0.14100
H 	H 	0.11767 0.42533 0.83293 0.08200
C 	C 	0.08779 0.44891 0.89229 0.06500
H 	H 	0.06867 0.44953 0.86053 0.02700
C 	C 	0.17213 0.41304 0.90524 -0.06700
C 	C 	0.15391 0.37493 0.86910 -0.04000
H 	H 	0.12427 0.36253 0.85583 0.04500
C 	C 	0.26777 0.51153 0.92103 0.05100
C 	C 	0.24057 0.52383 0.86883 -0.02200
C 	C 	0.29007 0.54453 0.97753 -0.00100
O 	O 	0.69643 0.80909 0.26133 -0.41300
O 	O 	0.72201 0.82190 0.36243 -0.40900
C 	C 	0.72141 0.81016 0.30519 0.37400
C 	C 	0.75360 0.79577 0.28728 -0.12700
C 	C 	0.78125 0.79417 0.33326 0.06700
H 	H 	0.78083 0.80357 0.37597 0.02700
C 	C 	0.80961 0.77906 0.31776 -0.14000
H 	H 	0.82823 0.77797 0.34987 0.09300
C 	C 	0.81076 0.76566 0.25568 0.11000
C 	C 	0.78343 0.76746 0.20927 -0.14100
H 	H 	0.78433 0.75867 0.16627 0.08200
C 	C 	0.75445 0.78225 0.22563 0.06500
H 	H 	0.73533 0.78287 0.19387 0.02700
C 	C 	0.83879 0.74638 0.23858 -0.06700
C 	C 	0.82057 0.70827 0.20244 -0.04000
H 	H 	0.79093 0.69587 0.18917 0.04500
C 	C 	0.93443 0.84487 0.25437 0.05200
C 	C 	0.90723 0.85717 0.20217 -0.02100
C 	C 	0.95673 0.87787 0.31087 -0.00100
O 	O 	0.85758 0.22068 0.59466 -0.41300
O 	O 	0.84477 0.23345 0.69576 -0.40900
C 	C 	0.85651 0.24459 0.63852 0.37400
C 	C 	0.87090 0.29117 0.62061 -0.12700
C 	C 	0.87250 0.32042 0.66659 0.06700
H 	H 	0.86310 0.31060 0.70930 0.02700
C 	C 	0.88761 0.36389 0.65109 -0.14000
H 	H 	0.88870 0.38360 0.68320 0.09300
C 	C 	0.90101 0.37844 0.58901 0.11000
C 	C 	0.89921 0.34931 0.54260 -0.14100
H 	H 	0.90800 0.35900 0.49960 0.08200
C 	C 	0.88442 0.30554 0.55896 0.06500
H 	H 	0.88380 0.28580 0.52720 0.02700
C 	C 	0.92029 0.42575 0.57191 -0.06700
C 	C 	0.95840 0.44564 0.53577 -0.04000
H 	H 	0.97080 0.42840 0.52250 0.04500
C 	C 	0.82180 0.42290 0.58770 0.05100
C 	C 	0.80950 0.38340 0.53550 -0.02200
C 	C 	0.78880 0.41220 0.64420 -0.00100
O 	O 	0.52425 0.55401 0.92799 -0.41300
O 	O 	0.51144 0.56678 0.02909 -0.40900
C 	C 	0.52318 0.57792 0.97185 0.37500
C 	C 	0.53757 0.62450 0.95394 -0.12700
C 	C 	0.53917 0.65375 0.99992 0.06700
H 	H 	0.52977 0.64393 0.04263 0.02700
C 	C 	0.55428 0.69722 0.98442 -0.14000
H 	H 	0.55537 0.71693 0.01653 0.09300
C 	C 	0.56768 0.71177 0.92234 0.11000
C 	C 	0.56588 0.68264 0.87593 -0.14100
H 	H 	0.57467 0.69233 0.83293 0.08200
C 	C 	0.55109 0.63887 0.89229 0.06500
H 	H 	0.55047 0.61913 0.86053 0.02700
C 	C 	0.58696 0.75908 0.90524 -0.06700
C 	C 	0.62507 0.77897 0.86910 -0.04000
H 	H 	0.63747 0.76173 0.85583 0.04500
C 	C 	0.48847 0.75623 0.92103 0.05100
C 	C 	0.47617 0.71673 0.86883 -0.02100
C 	C 	0.45547 0.74553 0.97753 -0.00100
O 	O 	0.19091 0.88735 0.26133 -0.41200
O 	O 	0.17810 0.90012 0.36243 -0.40900
C 	C 	0.18984 0.91126 0.30519 0.37400
C 	C 	0.20423 0.95784 0.28728 -0.12700
C 	C 	0.20583 0.98709 0.33326 0.06600
H 	H 	0.19643 0.97727 0.37597 0.02700
C 	C 	0.22094 0.03056 0.31776 -0.14000
H 	H 	0.22203 0.05027 0.34987 0.09300
C 	C 	0.23434 0.04511 0.25568 0.11000
C 	C 	0.23254 0.01598 0.20927 -0.14100
H 	H 	0.24133 0.02567 0.16627 0.08200
C 	C 	0.21775 0.97221 0.22563 0.06400
H 	H 	0.21713 0.95247 0.19387 0.02700
C 	C 	0.25362 0.09242 0.23858 -0.06600
C 	C 	0.29173 0.11231 0.20244 -0.04000
H 	H 	0.30413 0.09507 0.18917 0.04500
C 	C 	0.15513 0.08957 0.25437 0.05100
C 	C 	0.14283 0.05007 0.20217 -0.02200
C 	C 	0.12213 0.07887 0.31087 -0.00000
O 	O 	0.63690 0.77932 0.40534 -0.41300
O 	O 	0.61132 0.76655 0.30424 -0.40900
C 	C 	0.61192 0.75541 0.36148 0.37400
C 	C 	0.57973 0.70883 0.37939 -0.12700
C 	C 	0.55208 0.67958 0.33341 0.06700
H 	H 	0.55250 0.68940 0.29070 0.02700
C 	C 	0.52372 0.63611 0.34891 -0.14000
H 	H 	0.50510 0.61640 0.31680 0.09300
C 	C 	0.52257 0.62156 0.41099 0.11000
C 	C 	0.54990 0.65069 0.45740 -0.14100
H 	H 	0.54900 0.64100 0.50040 0.08200
C 	C 	0.57888 0.69446 0.44104 0.06500
H 	H 	0.59800 0.71420 0.47280 0.02700
C 	C 	0.49454 0.57425 0.42809 -0.06700
C 	C 	0.51276 0.55436 0.46423 -0.04000
H 	H 	0.54240 0.57160 0.47750 0.04500
C 	C 	0.39890 0.57710 0.41230 0.05100
C 	C 	0.42610 0.61660 0.46450 -0.02200
C 	C 	0.37660 0.58780 0.35580 -0.00100
O 	O 	0.30357 0.11265 0.73867 -0.41200
O 	O 	0.27799 0.09988 0.63757 -0.40900
C 	C 	0.27859 0.08874 0.69481 0.37400
C 	C 	0.24640 0.04216 0.71272 -0.12700
C 	C 	0.21875 0.01291 0.66674 0.06600
H 	H 	0.21917 0.02273 0.62403 0.02700
C 	C 	0.19039 0.96944 0.68224 -0.14000
H 	H 	0.17177 0.94973 0.65013 0.09300
C 	C 	0.18924 0.95489 0.74432 0.11000
C 	C 	0.21657 0.98402 0.79073 -0.14000
H 	H 	0.21567 0.97433 0.83373 0.08200
C 	C 	0.24555 0.02779 0.77437 0.06400
H 	H 	0.26467 0.04753 0.80613 0.02700
C 	C 	0.16121 0.90758 0.76142 -0.06600
C 	C 	0.17943 0.88769 0.79756 -0.04000
H 	H 	0.20907 0.90493 0.81083 0.04500
C 	C 	0.06557 0.91043 0.74563 0.05100
C 	C 	0.09277 0.94993 0.79783 -0.02100
C 	C 	0.04327 0.92113 0.68913 -0.00100
O 	O 	0.97023 0.44599 0.07201 -0.41300
O 	O 	0.94465 0.43322 0.97091 -0.40900
C 	C 	0.94525 0.42208 0.02815 0.37500
C 	C 	0.91306 0.37550 0.04606 -0.12700
C 	C 	0.88541 0.34625 0.00008 0.06700
H 	H 	0.88583 0.35607 0.95737 0.02700
C 	C 	0.85705 0.30278 0.01558 -0.14000
H 	H 	0.83843 0.28307 0.98347 0.09300
C 	C 	0.85590 0.28823 0.07766 0.11000
C 	C 	0.88323 0.31736 0.12407 -0.14100
H 	H 	0.88233 0.30767 0.16707 0.08200
C 	C 	0.91221 0.36113 0.10771 0.06500
H 	H 	0.93133 0.38087 0.13947 0.02700
C 	C 	0.82787 0.24092 0.09476 -0.06600
C 	C 	0.84609 0.22103 0.13090 -0.04000
H 	H 	0.87573 0.23827 0.14417 0.04500
C 	C 	0.73223 0.24377 0.07897 0.05100
C 	C 	0.75943 0.28327 0.13117 -0.02200
C 	C 	0.70993 0.25447 0.02247 -0.00100
O 	O 	0.14242 0.36310 0.40534 -0.41200
O 	O 	0.15523 0.38868 0.30424 -0.40900
C 	C 	0.14349 0.38808 0.36148 0.37400
C 	C 	0.12910 0.42027 0.37939 -0.12700
C 	C 	0.12750 0.44792 0.33341 0.06700
H 	H 	0.13690 0.44750 0.29070 0.02700
C 	C 	0.11239 0.47628 0.34891 -0.14000
H 	H 	0.11130 0.49490 0.31680 0.09300
C 	C 	0.09899 0.47743 0.41099 0.11000
C 	C 	0.10079 0.45010 0.45740 -0.14100
H 	H 	0.09200 0.45100 0.50040 0.08200
C 	C 	0.11558 0.42112 0.44104 0.06500
H 	H 	0.11620 0.40200 0.47280 0.02700
C 	C 	0.07971 0.50546 0.42809 -0.06700
C 	C 	0.04160 0.48724 0.46423 -0.04000
H 	H 	0.02920 0.45760 0.47750 0.04500
C 	C 	0.17820 0.60110 0.41230 0.05100
C 	C 	0.19050 0.57390 0.46450 -0.02200
C 	C 	0.21120 0.62340 0.35580 -0.00100
O 	O 	0.80909 0.69643 0.73867 -0.41300
O 	O 	0.82190 0.72201 0.63757 -0.40900
C 	C 	0.81016 0.72141 0.69481 0.37400
C 	C 	0.79577 0.75360 0.71272 -0.12700
C 	C 	0.79417 0.78125 0.66674 0.06700
H 	H 	0.80357 0.78083 0.62403 0.02700
C 	C 	0.77906 0.80961 0.68224 -0.14000
H 	H 	0.77797 0.82823 0.65013 0.09300
C 	C 	0.76566 0.81076 0.74432 0.11000
C 	C 	0.76746 0.78343 0.79073 -0.14100
H 	H 	0.75867 0.78433 0.83373 0.08200
C 	C 	0.78225 0.75445 0.77437 0.06500
H 	H 	0.78287 0.73533 0.80613 0.02700
C 	C 	0.74638 0.83879 0.76142 -0.06700
C 	C 	0.70827 0.82057 0.79756 -0.04000
H 	H 	0.69587 0.79093 0.81083 0.04500
C 	C 	0.84487 0.93443 0.74563 0.05200
C 	C 	0.85717 0.90723 0.79783 -0.02100
C 	C 	0.87787 0.95673 0.68913 -0.00100
O 	O 	0.47575 0.02977 0.07201 -0.41200
O 	O 	0.48856 0.05535 0.97091 -0.40900
C 	C 	0.47682 0.05475 0.02815 0.37500
C 	C 	0.46243 0.08694 0.04606 -0.12700
C 	C 	0.46083 0.11459 0.00008 0.06700
H 	H 	0.47023 0.11417 0.95737 0.02700
C 	C 	0.44572 0.14295 0.01558 -0.14000
H 	H 	0.44463 0.16157 0.98347 0.09300
C 	C 	0.43232 0.14410 0.07766 0.11000
C 	C 	0.43412 0.11677 0.12407 -0.14100
H 	H 	0.42533 0.11767 0.16707 0.08200
C 	C 	0.44891 0.08779 0.10771 0.06500
H 	H 	0.44953 0.06867 0.13947 0.02700
C 	C 	0.41304 0.17213 0.09476 -0.06700
C 	C 	0.37493 0.15391 0.13090 -0.04000
H 	H 	0.36253 0.12427 0.14417 0.04500
C 	C 	0.51153 0.26777 0.07897 0.05100
C 	C 	0.52383 0.24057 0.13117 -0.02200
C 	C 	0.54453 0.29007 0.02247 -0.00100
O 	O 	0.22068 0.85758 0.40534 -0.41300
O 	O 	0.23345 0.84477 0.30424 -0.40900
C 	C 	0.24459 0.85651 0.36148 0.37400
C 	C 	0.29117 0.87090 0.37939 -0.12700
C 	C 	0.32042 0.87250 0.33341 0.06700
H 	H 	0.31060 0.86310 0.29070 0.02700
C 	C 	0.36389 0.88761 0.34891 -0.14000
H 	H 	0.38360 0.88870 0.31680 0.09300
C 	C 	0.37844 0.90101 0.41099 0.11000
C 	C 	0.34931 0.89921 0.45740 -0.14100
H 	H 	0.35900 0.90800 0.50040 0.08200
C 	C 	0.30554 0.88442 0.44104 0.06500
H 	H 	0.28580 0.88380 0.47280 0.02700
C 	C 	0.42575 0.92029 0.42809 -0.06700
C 	C 	0.44564 0.95840 0.46423 -0.04000
H 	H 	0.42840 0.97080 0.47750 0.04500
C 	C 	0.42290 0.82180 0.41230 0.05100
C 	C 	0.38340 0.80950 0.46450 -0.02200
C 	C 	0.41220 0.78880 0.35580 -0.00100
O 	O 	0.88735 0.19091 0.73867 -0.41200
O 	O 	0.90012 0.17810 0.63757 -0.40900
C 	C 	0.91126 0.18984 0.69481 0.37400
C 	C 	0.95784 0.20423 0.71272 -0.12700
C 	C 	0.98709 0.20583 0.66674 0.06600
H 	H 	0.97727 0.19643 0.62403 0.02700
C 	C 	0.03056 0.22094 0.68224 -0.14000
H 	H 	0.05027 0.22203 0.65013 0.09300
C 	C 	0.04511 0.23434 0.74432 0.11000
C 	C 	0.01598 0.23254 0.79073 -0.14100
H 	H 	0.02567 0.24133 0.83373 0.08200
C 	C 	0.97221 0.21775 0.77437 0.06400
H 	H 	0.95247 0.21713 0.80613 0.02700
C 	C 	0.09242 0.25362 0.76142 -0.06600
C 	C 	0.11231 0.29173 0.79756 -0.04000
H 	H 	0.09507 0.30413 0.81083 0.04500
C 	C 	0.08957 0.15513 0.74563 0.05100
C 	C 	0.05007 0.14283 0.79783 -0.02200
C 	C 	0.07887 0.12213 0.68913 -0.00000
O 	O 	0.55401 0.52425 0.07201 -0.41300
O 	O 	0.56678 0.51144 0.97091 -0.40900
C 	C 	0.57792 0.52318 0.02815 0.37500
C 	C 	0.62450 0.53757 0.04606 -0.12700
C 	C 	0.65375 0.53917 0.00008 0.06700
H 	H 	0.64393 0.52977 0.95737 0.02700
C 	C 	0.69722 0.55428 0.01558 -0.14000
H 	H 	0.71693 0.55537 0.98347 0.09300
C 	C 	0.71177 0.56768 0.07766 0.11000
C 	C 	0.68264 0.56588 0.12407 -0.14100
H 	H 	0.69233 0.57467 0.16707 0.08200
C 	C 	0.63887 0.55109 0.10771 0.06500
H 	H 	0.61913 0.55047 0.13947 0.02700
C 	C 	0.75908 0.58696 0.09476 -0.06700
C 	C 	0.77897 0.62507 0.13090 -0.04000
H 	H 	0.76173 0.63747 0.14417 0.04500
C 	C 	0.75623 0.48847 0.07897 0.05100
C 	C 	0.71673 0.47617 0.13117 -0.02100
C 	C 	0.74553 0.45547 0.02247 -0.00100
O 	O 	0.22068 0.36310 0.40534 -0.41300
O 	O 	0.23345 0.38868 0.30424 -0.40900
C 	C 	0.24459 0.38808 0.36148 0.37400
C 	C 	0.29117 0.42027 0.37939 -0.12700
C 	C 	0.32042 0.44792 0.33341 0.06700
H 	H 	0.31060 0.44750 0.29070 0.02700
C 	C 	0.36389 0.47628 0.34891 -0.14000
H 	H 	0.38360 0.49490 0.31680 0.09300
C 	C 	0.37844 0.47743 0.41099 0.11000
C 	C 	0.34931 0.45010 0.45740 -0.14100
H 	H 	0.35900 0.45100 0.50040 0.08200
C 	C 	0.30554 0.42112 0.44104 0.06500
H 	H 	0.28580 0.40200 0.47280 0.02700
C 	C 	0.42575 0.50546 0.42809 -0.06700
C 	C 	0.44564 0.48724 0.46423 -0.04000
H 	H 	0.42840 0.45760 0.47750 0.04500
C 	C 	0.42290 0.60110 0.41230 0.05100
C 	C 	0.38340 0.57390 0.46450 -0.02200
C 	C 	0.41220 0.62340 0.35580 -0.00100
O 	O 	0.88735 0.69643 0.73867 -0.41200
O 	O 	0.90012 0.72201 0.63757 -0.40900
C 	C 	0.91126 0.72141 0.69481 0.37400
C 	C 	0.95784 0.75360 0.71272 -0.12700
C 	C 	0.98709 0.78125 0.66674 0.06600
H 	H 	0.97727 0.78083 0.62403 0.02700
C 	C 	0.03056 0.80961 0.68224 -0.14000
H 	H 	0.05027 0.82823 0.65013 0.09300
C 	C 	0.04511 0.81076 0.74432 0.11000
C 	C 	0.01598 0.78343 0.79073 -0.14000
H 	H 	0.02567 0.78433 0.83373 0.08200
C 	C 	0.97221 0.75445 0.77437 0.06400
H 	H 	0.95247 0.73533 0.80613 0.02700
C 	C 	0.09242 0.83879 0.76142 -0.06600
C 	C 	0.11231 0.82057 0.79756 -0.04000
H 	H 	0.09507 0.79093 0.81083 0.04500
C 	C 	0.08957 0.93443 0.74563 0.05100
C 	C 	0.05007 0.90723 0.79783 -0.02100
C 	C 	0.07887 0.95673 0.68913 -0.00100
O 	O 	0.55401 0.02977 0.07201 -0.41300
O 	O 	0.56678 0.05535 0.97091 -0.40900
C 	C 	0.57792 0.05475 0.02815 0.37500
C 	C 	0.62450 0.08694 0.04606 -0.12700
C 	C 	0.65375 0.11459 0.00008 0.06700
H 	H 	0.64393 0.11417 0.95737 0.02700
C 	C 	0.69722 0.14295 0.01558 -0.14000
H 	H 	0.71693 0.16157 0.98347 0.09300
C 	C 	0.71177 0.14410 0.07766 0.11000
C 	C 	0.68264 0.11677 0.12407 -0.14100
H 	H 	0.69233 0.11767 0.16707 0.08200
C 	C 	0.63887 0.08779 0.10771 0.06500
H 	H 	0.61913 0.06867 0.13947 0.02700
C 	C 	0.75908 0.17213 0.09476 -0.06600
C 	C 	0.77897 0.15391 0.13090 -0.04000
H 	H 	0.76173 0.12427 0.14417 0.04500
C 	C 	0.75623 0.26777 0.07897 0.05100
C 	C 	0.71673 0.24057 0.13117 -0.02200
C 	C 	0.74553 0.29007 0.02247 -0.00100
O 	O 	0.63690 0.85758 0.40534 -0.41200
O 	O 	0.61132 0.84477 0.30424 -0.40900
C 	C 	0.61192 0.85651 0.36148 0.37400
C 	C 	0.57973 0.87090 0.37939 -0.12700
C 	C 	0.55208 0.87250 0.33341 0.06700
H 	H 	0.55250 0.86310 0.29070 0.02700
C 	C 	0.52372 0.88761 0.34891 -0.14000
H 	H 	0.50510 0.88870 0.31680 0.09300
C 	C 	0.52257 0.90101 0.41099 0.11000
C 	C 	0.54990 0.89921 0.45740 -0.14100
H 	H 	0.54900 0.90800 0.50040 0.08200
C 	C 	0.57888 0.88442 0.44104 0.06500
H 	H 	0.59800 0.88380 0.47280 0.02700
C 	C 	0.49454 0.92029 0.42809 -0.06700
C 	C 	0.51276 0.95840 0.46423 -0.04000
H 	H 	0.54240 0.97080 0.47750 0.04500
C 	C 	0.39890 0.82180 0.41230 0.05100
C 	C 	0.42610 0.80950 0.46450 -0.02200
C 	C 	0.37660 0.78880 0.35580 -0.00100
O 	O 	0.30357 0.19091 0.73867 -0.41300
O 	O 	0.27799 0.17810 0.63757 -0.40900
C 	C 	0.27859 0.18984 0.69481 0.37400
C 	C 	0.24640 0.20423 0.71272 -0.12700
C 	C 	0.21875 0.20583 0.66674 0.06700
H 	H 	0.21917 0.19643 0.62403 0.02700
C 	C 	0.19039 0.22094 0.68224 -0.14000
H 	H 	0.17177 0.22203 0.65013 0.09300
C 	C 	0.18924 0.23434 0.74432 0.11000
C 	C 	0.21657 0.23254 0.79073 -0.14100
H 	H 	0.21567 0.24133 0.83373 0.08200
C 	C 	0.24555 0.21775 0.77437 0.06500
H 	H 	0.26467 0.21713 0.80613 0.02700
C 	C 	0.16121 0.25362 0.76142 -0.06700
C 	C 	0.17943 0.29173 0.79756 -0.04000
H 	H 	0.20907 0.30413 0.81083 0.04500
C 	C 	0.06557 0.15513 0.74563 0.05200
C 	C 	0.09277 0.14283 0.79783 -0.02100
C 	C 	0.04327 0.12213 0.68913 -0.00100
O 	O 	0.97023 0.52425 0.07201 -0.41200
O 	O 	0.94465 0.51144 0.97091 -0.40900
C 	C 	0.94525 0.52318 0.02815 0.37500
C 	C 	0.91306 0.53757 0.04606 -0.12700
C 	C 	0.88541 0.53917 0.00008 0.06700
H 	H 	0.88583 0.52977 0.95737 0.02700
C 	C 	0.85705 0.55428 0.01558 -0.14000
H 	H 	0.83843 0.55537 0.98347 0.09300
C 	C 	0.85590 0.56768 0.07766 0.11000
C 	C 	0.88323 0.56588 0.12407 -0.14100
H 	H 	0.88233 0.57467 0.16707 0.08200
C 	C 	0.91221 0.55109 0.10771 0.06500
H 	H 	0.93133 0.55047 0.13947 0.02700
C 	C 	0.82787 0.58696 0.09476 -0.06700
C 	C 	0.84609 0.62507 0.13090 -0.04000
H 	H 	0.87573 0.63747 0.14417 0.04500
C 	C 	0.73223 0.48847 0.07897 0.05100
C 	C 	0.75943 0.47617 0.13117 -0.02200
C 	C 	0.70993 0.45547 0.02247 -0.00100
O 	O 	0.14242 0.77932 0.40534 -0.41300
O 	O 	0.15523 0.76655 0.30424 -0.40900
C 	C 	0.14349 0.75541 0.36148 0.37400
C 	C 	0.12910 0.70883 0.37939 -0.12700
C 	C 	0.12750 0.67958 0.33341 0.06700
H 	H 	0.13690 0.68940 0.29070 0.02700
C 	C 	0.11239 0.63611 0.34891 -0.14000
H 	H 	0.11130 0.61640 0.31680 0.09300
C 	C 	0.09899 0.62156 0.41099 0.11000
C 	C 	0.10079 0.65069 0.45740 -0.14100
H 	H 	0.09200 0.64100 0.50040 0.08200
C 	C 	0.11558 0.69446 0.44104 0.06500
H 	H 	0.11620 0.71420 0.47280 0.02700
C 	C 	0.07971 0.57425 0.42809 -0.06700
C 	C 	0.04160 0.55436 0.46423 -0.04000
H 	H 	0.02920 0.57160 0.47750 0.04500
C 	C 	0.17820 0.57710 0.41230 0.05100
C 	C 	0.19050 0.61660 0.46450 -0.02200
C 	C 	0.21120 0.58780 0.35580 -0.00100
O 	O 	0.80909 0.11265 0.73867 -0.41200
O 	O 	0.82190 0.09988 0.63757 -0.40900
C 	C 	0.81016 0.08874 0.69481 0.37400
C 	C 	0.79577 0.04216 0.71272 -0.12700
C 	C 	0.79417 0.01291 0.66674 0.06600
H 	H 	0.80357 0.02273 0.62403 0.02700
C 	C 	0.77906 0.96944 0.68224 -0.14000
H 	H 	0.77797 0.94973 0.65013 0.09300
C 	C 	0.76566 0.95489 0.74432 0.11000
C 	C 	0.76746 0.98402 0.79073 -0.14100
H 	H 	0.75867 0.97433 0.83373 0.08200
C 	C 	0.78225 0.02779 0.77437 0.06400
H 	H 	0.78287 0.04753 0.80613 0.02700
C 	C 	0.74638 0.90758 0.76142 -0.06600
C 	C 	0.70827 0.88769 0.79756 -0.04000
H 	H 	0.69587 0.90493 0.81083 0.04500
C 	C 	0.84487 0.91043 0.74563 0.05100
C 	C 	0.85717 0.94993 0.79783 -0.02200
C 	C 	0.87787 0.92113 0.68913 -0.00000
O 	O 	0.47575 0.44599 0.07201 -0.41300
O 	O 	0.48856 0.43322 0.97091 -0.40900
C 	C 	0.47682 0.42208 0.02815 0.37500
C 	C 	0.46243 0.37550 0.04606 -0.12700
C 	C 	0.46083 0.34625 0.00008 0.06700
H 	H 	0.47023 0.35607 0.95737 0.02700
C 	C 	0.44572 0.30278 0.01558 -0.14000
H 	H 	0.44463 0.28307 0.98347 0.09300
C 	C 	0.43232 0.28823 0.07766 0.11000
C 	C 	0.43412 0.31736 0.12407 -0.14100
H 	H 	0.42533 0.30767 0.16707 0.08200
C 	C 	0.44891 0.36113 0.10771 0.06500
H 	H 	0.44953 0.38087 0.13947 0.02700
C 	C 	0.41304 0.24092 0.09476 -0.06700
C 	C 	0.37493 0.22103 0.13090 -0.04000
H 	H 	0.36253 0.23827 0.14417 0.04500
C 	C 	0.51153 0.24377 0.07897 0.05100
C 	C 	0.52383 0.28327 0.13117 -0.02100
C 	C 	0.54453 0.25447 0.02247 -0.00100
O 	O 	0.36310 0.22068 0.59466 -0.41300
O 	O 	0.38868 0.23345 0.69576 -0.40900
C 	C 	0.38808 0.24459 0.63852 0.37400
C 	C 	0.42027 0.29117 0.62061 -0.12700
C 	C 	0.44792 0.32042 0.66659 0.06700
H 	H 	0.44750 0.31060 0.70930 0.02700
C 	C 	0.47628 0.36389 0.65109 -0.14000
H 	H 	0.49490 0.38360 0.68320 0.09300
C 	C 	0.47743 0.37844 0.58901 0.11000
C 	C 	0.45010 0.34931 0.54260 -0.14100
H 	H 	0.45100 0.35900 0.49960 0.08200
C 	C 	0.42112 0.30554 0.55896 0.06500
H 	H 	0.40200 0.28580 0.52720 0.02700
C 	C 	0.50546 0.42575 0.57191 -0.06700
C 	C 	0.48724 0.44564 0.53577 -0.04000
H 	H 	0.45760 0.42840 0.52250 0.04500
C 	C 	0.60110 0.42290 0.58770 0.05100
C 	C 	0.57390 0.38340 0.53550 -0.02200
C 	C 	0.62340 0.41220 0.64420 -0.00100
O 	O 	0.02977 0.55401 0.92799 -0.41300
O 	O 	0.05535 0.56678 0.02909 -0.40900
C 	C 	0.05475 0.57792 0.97185 0.37500
C 	C 	0.08694 0.62450 0.95394 -0.12700
C 	C 	0.11459 0.65375 0.99992 0.06700
H 	H 	0.11417 0.64393 0.04263 0.02700
C 	C 	0.14295 0.69722 0.98442 -0.14000
H 	H 	0.16157 0.71693 0.01653 0.09300
C 	C 	0.14410 0.71177 0.92234 0.11000
C 	C 	0.11677 0.68264 0.87593 -0.14100
H 	H 	0.11767 0.69233 0.83293 0.08200
C 	C 	0.08779 0.63887 0.89229 0.06500
H 	H 	0.06867 0.61913 0.86053 0.02700
C 	C 	0.17213 0.75908 0.90524 -0.06600
C 	C 	0.15391 0.77897 0.86910 -0.04000
H 	H 	0.12427 0.76173 0.85583 0.04500
C 	C 	0.26777 0.75623 0.92103 0.05100
C 	C 	0.24057 0.71673 0.86883 -0.02200
C 	C 	0.29007 0.74553 0.97753 -0.00100
O 	O 	0.69643 0.88735 0.26133 -0.41200
O 	O 	0.72201 0.90012 0.36243 -0.40900
C 	C 	0.72141 0.91126 0.30519 0.37400
C 	C 	0.75360 0.95784 0.28728 -0.12700
C 	C 	0.78125 0.98709 0.33326 0.06600
H 	H 	0.78083 0.97727 0.37597 0.02700
C 	C 	0.80961 0.03056 0.31776 -0.14000
H 	H 	0.82823 0.05027 0.34987 0.09300
C 	C 	0.81076 0.04511 0.25568 0.11000
C 	C 	0.78343 0.01598 0.20927 -0.14000
H 	H 	0.78433 0.02567 0.16627 0.08200
C 	C 	0.75445 0.97221 0.22563 0.06400
H 	H 	0.73533 0.95247 0.19387 0.02700
C 	C 	0.83879 0.09242 0.23858 -0.06600
C 	C 	0.82057 0.11231 0.20244 -0.04000
H 	H 	0.79093 0.09507 0.18917 0.04500
C 	C 	0.93443 0.08957 0.25437 0.05100
C 	C 	0.90723 0.05007 0.20217 -0.02100
C 	C 	0.95673 0.07887 0.31087 -0.00100
O 	O 	0.85758 0.63690 0.59466 -0.41200
O 	O 	0.84477 0.61132 0.69576 -0.40900
C 	C 	0.85651 0.61192 0.63852 0.37400
C 	C 	0.87090 0.57973 0.62061 -0.12700
C 	C 	0.87250 0.55208 0.66659 0.06700
H 	H 	0.86310 0.55250 0.70930 0.02700
C 	C 	0.88761 0.52372 0.65109 -0.14000
H 	H 	0.88870 0.50510 0.68320 0.09300
C 	C 	0.90101 0.52257 0.58901 0.11000
C 	C 	0.89921 0.54990 0.54260 -0.14100
H 	H 	0.90800 0.54900 0.49960 0.08200
C 	C 	0.88442 0.57888 0.55896 0.06500
H 	H 	0.88380 0.59800 0.52720 0.02700
C 	C 	0.92029 0.49454 0.57191 -0.06700
C 	C 	0.95840 0.51276 0.53577 -0.04000
H 	H 	0.97080 0.54240 0.52250 0.04500
C 	C 	0.82180 0.39890 0.58770 0.05100
C 	C 	0.80950 0.42610 0.53550 -0.02200
C 	C 	0.78880 0.37660 0.64420 -0.00100
O 	O 	0.52425 0.97023 0.92799 -0.41200
O 	O 	0.51144 0.94465 0.02909 -0.40900
C 	C 	0.52318 0.94525 0.97185 0.37500
C 	C 	0.53757 0.91306 0.95394 -0.12700
C 	C 	0.53917 0.88541 0.99992 0.06700
H 	H 	0.52977 0.88583 0.04263 0.02700
C 	C 	0.55428 0.85705 0.98442 -0.14000
H 	H 	0.55537 0.83843 0.01653 0.09300
C 	C 	0.56768 0.85590 0.92234 0.11000
C 	C 	0.56588 0.88323 0.87593 -0.14100
H 	H 	0.57467 0.88233 0.83293 0.08200
C 	C 	0.55109 0.91221 0.89229 0.06500
H 	H 	0.55047 0.93133 0.86053 0.02700
C 	C 	0.58696 0.82787 0.90524 -0.06700
C 	C 	0.62507 0.84609 0.86910 -0.04000
H 	H 	0.63747 0.87573 0.85583 0.04500
C 	C 	0.48847 0.73223 0.92103 0.05100
C 	C 	0.47617 0.75943 0.86883 -0.02200
C 	C 	0.45547 0.70993 0.97753 -0.00100
O 	O 	0.19091 0.30357 0.26133 -0.41300
O 	O 	0.17810 0.27799 0.36243 -0.40900
C 	C 	0.18984 0.27859 0.30519 0.37400
C 	C 	0.20423 0.24640 0.28728 -0.12700
C 	C 	0.20583 0.21875 0.33326 0.06700
H 	H 	0.19643 0.21917 0.37597 0.02700
C 	C 	0.22094 0.19039 0.31776 -0.14000
H 	H 	0.22203 0.17177 0.34987 0.09300
C 	C 	0.23434 0.18924 0.25568 0.11000
C 	C 	0.23254 0.21657 0.20927 -0.14100
H 	H 	0.24133 0.21567 0.16627 0.08200
C 	C 	0.21775 0.24555 0.22563 0.06500
H 	H 	0.21713 0.26467 0.19387 0.02700
C 	C 	0.25362 0.16121 0.23858 -0.06700
C 	C 	0.29173 0.17943 0.20244 -0.04000
H 	H 	0.30413 0.20907 0.18917 0.04500
C 	C 	0.15513 0.06557 0.25437 0.05200
C 	C 	0.14283 0.09277 0.20217 -0.02100
C 	C 	0.12213 0.04327 0.31087 -0.00100
O 	O 	0.77932 0.14242 0.59466 -0.41300
O 	O 	0.76655 0.15523 0.69576 -0.40900
C 	C 	0.75541 0.14349 0.63852 0.37400
C 	C 	0.70883 0.12910 0.62061 -0.12700
C 	C 	0.67958 0.12750 0.66659 0.06700
H 	H 	0.68940 0.13690 0.70930 0.02700
C 	C 	0.63611 0.11239 0.65109 -0.14000
H 	H 	0.61640 0.11130 0.68320 0.09300
C 	C 	0.62156 0.09899 0.58901 0.11000
C 	C 	0.65069 0.10079 0.54260 -0.14100
H 	H 	0.64100 0.09200 0.49960 0.08200
C 	C 	0.69446 0.11558 0.55896 0.06500
H 	H 	0.71420 0.11620 0.52720 0.02700
C 	C 	0.57425 0.07971 0.57191 -0.06700
C 	C 	0.55436 0.04160 0.53577 -0.04000
H 	H 	0.57160 0.02920 0.52250 0.04500
C 	C 	0.57710 0.17820 0.58770 0.05100
C 	C 	0.61660 0.19050 0.53550 -0.02200
C 	C 	0.58780 0.21120 0.64420 -0.00100
O 	O 	0.44599 0.47575 0.92799 -0.41300
O 	O 	0.43322 0.48856 0.02909 -0.40900
C 	C 	0.42208 0.47682 0.97185 0.37500
C 	C 	0.37550 0.46243 0.95394 -0.12700
C 	C 	0.34625 0.46083 0.99992 0.06700
H 	H 	0.35607 0.47023 0.04263 0.02700
C 	C 	0.30278 0.44572 0.98442 -0.14000
H 	H 	0.28307 0.44463 0.01653 0.09300
C 	C 	0.28823 0.43232 0.92234 0.11000
C 	C 	0.31736 0.43412 0.87593 -0.14100
H 	H 	0.30767 0.42533 0.83293 0.08200
C 	C 	0.36113 0.44891 0.89229 0.06500
H 	H 	0.38087 0.44953 0.86053 0.02700
C 	C 	0.24092 0.41304 0.90524 -0.06700
C 	C 	0.22103 0.37493 0.86910 -0.04000
H 	H 	0.23827 0.36253 0.85583 0.04500
C 	C 	0.24377 0.51153 0.92103 0.05100
C 	C 	0.28327 0.52383 0.86883 -0.02100
C 	C 	0.25447 0.54453 0.97753 -0.00100
O 	O 	0.11265 0.80909 0.26133 -0.41200
O 	O 	0.09988 0.82190 0.36243 -0.40900
C 	C 	0.08874 0.81016 0.30519 0.37400
C 	C 	0.04216 0.79577 0.28728 -0.12700
C 	C 	0.01291 0.79417 0.33326 0.06600
H 	H 	0.02273 0.80357 0.37597 0.02700
C 	C 	0.96944 0.77906 0.31776 -0.14000
H 	H 	0.94973 0.77797 0.34987 0.09300
C 	C 	0.95489 0.76566 0.25568 0.11000
C 	C 	0.98402 0.76746 0.20927 -0.14100
H 	H 	0.97433 0.75867 0.16627 0.08200
C 	C 	0.02779 0.78225 0.22563 0.06400
H 	H 	0.04753 0.78287 0.19387 0.02700
C 	C 	0.90758 0.74638 0.23858 -0.06600
C 	C 	0.88769 0.70827 0.20244 -0.04000
H 	H 	0.90493 0.69587 0.18917 0.04500
C 	C 	0.91043 0.84487 0.25437 0.05100
C 	C 	0.94993 0.85717 0.20217 -0.02200
C 	C 	0.92113 0.87787 0.31087 -0.00000
Cu	Cu	0.84073 0.68147 0.60702 0.90500
Cu	Cu	0.50740 0.01480 0.94035 0.90500
Cu	Cu	0.17407 0.34814 0.27369 0.90500
Cu	Cu	0.31853 0.15927 0.60702 0.90500
Cu	Cu	0.98520 0.49260 0.94035 0.90500
Cu	Cu	0.65186 0.82593 0.27369 0.90500
Cu	Cu	0.84073 0.15927 0.60702 0.90500
Cu	Cu	0.50740 0.49260 0.94035 0.90500
Cu	Cu	0.17407 0.82593 0.27369 0.90500
Cu	Cu	0.68147 0.84073 0.39298 0.90500
Cu	Cu	0.34814 0.17407 0.72631 0.90500
Cu	Cu	0.01480 0.50740 0.05965 0.90500
Cu	Cu	0.15927 0.31853 0.39298 0.90500
Cu	Cu	0.82593 0.65186 0.72631 0.90500
Cu	Cu	0.49260 0.98520 0.05965 0.90500
Cu	Cu	0.15927 0.84073 0.39298 0.90500
Cu	Cu	0.82593 0.17407 0.72631 0.90500
Cu	Cu	0.49260 0.50740 0.05965 0.90500
O 	O 	0.56873 0.43127 0.62429 -0.22000
C 	C 	0.51024 0.48976 0.51780 0.00600
C 	C 	0.54978 0.45022 0.58900 0.14100
O 	O 	0.23540 0.76460 0.95762 -0.22000
C 	C 	0.17691 0.82309 0.85113 0.00600
C 	C 	0.21645 0.78355 0.92233 0.14100
O 	O 	0.90206 0.09794 0.29096 -0.22000
C 	C 	0.84357 0.15643 0.18447 0.00600
C 	C 	0.88311 0.11689 0.25567 0.14100
O 	O 	0.56873 0.13746 0.62429 -0.22000
C 	C 	0.51024 0.02048 0.51780 0.00600
C 	C 	0.54978 0.09956 0.58900 0.14100
O 	O 	0.23540 0.47079 0.95762 -0.22000
C 	C 	0.17691 0.35381 0.85113 0.00600
C 	C 	0.21645 0.43289 0.92233 0.14100
O 	O 	0.90206 0.80413 0.29096 -0.22000
C 	C 	0.84357 0.68715 0.18447 0.00600
C 	C 	0.88311 0.76623 0.25567 0.14100
O 	O 	0.86254 0.43127 0.62429 -0.22000
C 	C 	0.97952 0.48976 0.51780 0.00600
C 	C 	0.90044 0.45022 0.58900 0.14100
O 	O 	0.52921 0.76460 0.95762 -0.22000
C 	C 	0.64619 0.82309 0.85113 0.00600
C 	C 	0.56711 0.78355 0.92233 0.14100
O 	O 	0.19587 0.09794 0.29096 -0.22000
C 	C 	0.31285 0.15643 0.18447 0.00600
C 	C 	0.23377 0.11689 0.25567 0.14100
O 	O 	0.43127 0.56873 0.37571 -0.22000
C 	C 	0.48976 0.51024 0.48220 0.00600
C 	C 	0.45022 0.54978 0.41100 0.14100
O 	O 	0.09794 0.90206 0.70904 -0.22000
C 	C 	0.15643 0.84357 0.81553 0.00600
C 	C 	0.11689 0.88311 0.74433 0.14100
O 	O 	0.76460 0.23540 0.04238 -0.22000
C 	C 	0.82309 0.17691 0.14887 0.00600
C 	C 	0.78355 0.21645 0.07767 0.14100
O 	O 	0.13746 0.56873 0.37571 -0.22000
C 	C 	0.02048 0.51024 0.48220 0.00600
C 	C 	0.09956 0.54978 0.41100 0.14100
O 	O 	0.80413 0.90206 0.70904 -0.22000
C 	C 	0.68715 0.84357 0.81553 0.00600
C 	C 	0.76623 0.88311 0.74433 0.14100
O 	O 	0.47079 0.23540 0.04238 -0.22000
C 	C 	0.35381 0.17691 0.14887 0.00600
C 	C 	0.43289 0.21645 0.07767 0.14100
O 	O 	0.43127 0.86254 0.37571 -0.22000
C 	C 	0.48976 0.97952 0.48220 0.00600
C 	C 	0.45022 0.90044 0.41100 0.14100
O 	O 	0.09794 0.19587 0.70904 -0.22000
C 	C 	0.15643 0.31285 0.81553 0.00600
C 	C 	0.11689 0.23377 0.74433 0.14100
O 	O 	0.76460 0.52921 0.04238 -0.22000
C 	C 	0.82309 0.64619 0.14887 0.00600
C 	C 	0.78355 0.56711 0.07767 0.14100
