data_crystal

_cell_length_a 35.74300
_cell_length_b 35.74300
_cell_length_c 15.12900
_cell_angle_alpha 90.00000
_cell_angle_beta  90.00000
_cell_angle_gamma 120.00000

_symmetry_space_group_name_	'P 1'
_symmetry_space_group_name_H-M	'P 1'

loop_
_symmetry_equiv_pos_as_xyz
  x,y,z

loop_
_atom_site_label
_atom_site_type_symbol
_atom_site_fract_x
_atom_site_fract_y
_atom_site_fract_z
_atom_site_charge
O 	O 	0.22364 0.37064 0.41550 -0.42300
O 	O 	0.23116 0.38519 0.27170 -0.40900
C 	C 	0.24550 0.39020 0.34980 0.39300
C 	C 	0.29116 0.42202 0.36290 -0.15500
C 	C 	0.31700 0.44890 0.29590 0.09500
H 	H 	0.30490 0.44860 0.24130 0.01400
C 	C 	0.36040 0.47610 0.30980 -0.16500
H 	H 	0.37860 0.49250 0.26390 0.10400
C 	C 	0.37660 0.47839 0.39650 0.12300
C 	C 	0.35010 0.45480 0.46600 -0.17300
H 	H 	0.36130 0.45810 0.52280 0.09400
C 	C 	0.30760 0.42690 0.45060 0.09000
H 	H 	0.28940 0.41110 0.49680 0.01600
C 	C 	0.42580 0.50750 0.40930 -0.07300
C 	C 	0.44622 0.48814 0.45640 -0.04900
H 	H 	0.43020 0.45920 0.47280 0.04700
C 	C 	0.40510 0.58480 0.38610 0.04900
C 	C 	0.37400 0.58780 0.31900 -0.00400
O 	O 	0.89031 0.70397 0.74883 -0.42300
O 	O 	0.89783 0.71852 0.60503 -0.40900
C 	C 	0.91217 0.72353 0.68313 0.39200
C 	C 	0.95783 0.75535 0.69623 -0.15500
C 	C 	0.98367 0.78223 0.62923 0.09500
H 	H 	0.97157 0.78193 0.57463 0.01500
C 	C 	0.02707 0.80943 0.64313 -0.16300
H 	H 	0.04527 0.82583 0.59723 0.10500
C 	C 	0.04327 0.81172 0.72983 0.12400
C 	C 	0.01677 0.78813 0.79933 -0.17100
H 	H 	0.02797 0.79143 0.85613 0.09500
C 	C 	0.97427 0.76023 0.78393 0.09000
H 	H 	0.95607 0.74443 0.83013 0.01700
C 	C 	0.09247 0.84083 0.74263 -0.07100
C 	C 	0.11289 0.82147 0.78973 -0.04800
H 	H 	0.09687 0.79253 0.80613 0.04800
C 	C 	0.07177 0.91813 0.71943 0.05000
C 	C 	0.04067 0.92113 0.65233 -0.00300
O 	O 	0.55697 0.03731 0.08217 -0.42200
O 	O 	0.56449 0.05186 0.93837 -0.40900
C 	C 	0.57883 0.05687 0.01647 0.39400
C 	C 	0.62449 0.08869 0.02957 -0.15400
C 	C 	0.65033 0.11557 0.96257 0.09600
H 	H 	0.63823 0.11527 0.90797 0.01500
C 	C 	0.69373 0.14277 0.97647 -0.16400
H 	H 	0.71193 0.15917 0.93057 0.10500
C 	C 	0.70993 0.14506 0.06317 0.12400
C 	C 	0.68343 0.12147 0.13267 -0.17200
H 	H 	0.69463 0.12477 0.18947 0.09500
C 	C 	0.64093 0.09357 0.11727 0.09100
H 	H 	0.62273 0.07777 0.16347 0.01700
C 	C 	0.75913 0.17417 0.07597 -0.07200
C 	C 	0.77955 0.15481 0.12307 -0.04800
H 	H 	0.76353 0.12587 0.13947 0.04800
C 	C 	0.73843 0.25147 0.05277 0.05000
C 	C 	0.70733 0.25447 0.98567 -0.00300
O 	O 	0.62936 0.85300 0.41550 -0.42200
O 	O 	0.61481 0.84597 0.27170 -0.40800
C 	C 	0.60980 0.85530 0.34980 0.39400
C 	C 	0.57798 0.86914 0.36290 -0.15400
C 	C 	0.55110 0.86810 0.29590 0.09600
H 	H 	0.55140 0.85630 0.24130 0.01500
C 	C 	0.52390 0.88430 0.30980 -0.16400
H 	H 	0.50750 0.88610 0.26390 0.10500
C 	C 	0.52161 0.89821 0.39650 0.12400
C 	C 	0.54520 0.89530 0.46600 -0.17200
H 	H 	0.54190 0.90320 0.52280 0.09500
C 	C 	0.57310 0.88070 0.45060 0.09100
H 	H 	0.58890 0.87830 0.49680 0.01700
C 	C 	0.49250 0.91830 0.40930 -0.07200
C 	C 	0.51186 0.95808 0.45640 -0.04800
H 	H 	0.54080 0.97100 0.47280 0.04800
C 	C 	0.41520 0.82030 0.38610 0.05000
C 	C 	0.41220 0.78620 0.31900 -0.00300
O 	O 	0.29603 0.18633 0.74883 -0.42200
O 	O 	0.28148 0.17930 0.60503 -0.40800
C 	C 	0.27647 0.18863 0.68313 0.39400
C 	C 	0.24465 0.20247 0.69623 -0.15400
C 	C 	0.21777 0.20143 0.62923 0.09600
H 	H 	0.21807 0.18963 0.57463 0.01500
C 	C 	0.19057 0.21763 0.64313 -0.16400
H 	H 	0.17417 0.21943 0.59723 0.10500
C 	C 	0.18828 0.23154 0.72983 0.12400
C 	C 	0.21187 0.22863 0.79933 -0.17200
H 	H 	0.20857 0.23653 0.85613 0.09500
C 	C 	0.23977 0.21403 0.78393 0.09100
H 	H 	0.25557 0.21163 0.83013 0.01700
C 	C 	0.15917 0.25163 0.74263 -0.07200
C 	C 	0.17853 0.29141 0.78973 -0.04800
H 	H 	0.20747 0.30433 0.80613 0.04800
C 	C 	0.08187 0.15363 0.71943 0.05000
C 	C 	0.07887 0.11953 0.65233 -0.00300
O 	O 	0.96269 0.51967 0.08217 -0.42100
O 	O 	0.94814 0.51264 0.93837 -0.40800
C 	C 	0.94313 0.52197 0.01647 0.39400
C 	C 	0.91131 0.53581 0.02957 -0.15400
C 	C 	0.88443 0.53477 0.96257 0.09600
H 	H 	0.88473 0.52297 0.90797 0.01500
C 	C 	0.85723 0.55097 0.97647 -0.16400
H 	H 	0.84083 0.55277 0.93057 0.10500
C 	C 	0.85494 0.56488 0.06317 0.12400
C 	C 	0.87853 0.56197 0.13267 -0.17200
H 	H 	0.87523 0.56987 0.18947 0.09500
C 	C 	0.90643 0.54737 0.11727 0.09100
H 	H 	0.92223 0.54497 0.16347 0.01700
C 	C 	0.82583 0.58497 0.07597 -0.07200
C 	C 	0.84519 0.62475 0.12307 -0.04800
H 	H 	0.87413 0.63767 0.13947 0.04800
C 	C 	0.74853 0.48697 0.05277 0.05000
C 	C 	0.74553 0.45287 0.98567 -0.00300
O 	O 	0.14700 0.77636 0.41550 -0.42200
O 	O 	0.15403 0.76884 0.27170 -0.40800
C 	C 	0.14470 0.75450 0.34980 0.39400
C 	C 	0.13086 0.70884 0.36290 -0.15400
C 	C 	0.13190 0.68300 0.29590 0.09600
H 	H 	0.14370 0.69510 0.24130 0.01500
C 	C 	0.11570 0.63960 0.30980 -0.16400
H 	H 	0.11390 0.62140 0.26390 0.10500
C 	C 	0.10179 0.62340 0.39650 0.12400
C 	C 	0.10470 0.64990 0.46600 -0.17200
H 	H 	0.09680 0.63870 0.52280 0.09500
C 	C 	0.11930 0.69240 0.45060 0.09100
H 	H 	0.12170 0.71060 0.49680 0.01700
C 	C 	0.08170 0.57420 0.40930 -0.07200
C 	C 	0.04192 0.55378 0.45640 -0.04800
H 	H 	0.02900 0.56980 0.47280 0.04800
C 	C 	0.17970 0.59490 0.38610 0.05000
C 	C 	0.21380 0.62600 0.31900 -0.00300
O 	O 	0.81367 0.10969 0.74883 -0.42200
O 	O 	0.82070 0.10217 0.60503 -0.40800
C 	C 	0.81137 0.08783 0.68313 0.39400
C 	C 	0.79753 0.04217 0.69623 -0.15400
C 	C 	0.79857 0.01633 0.62923 0.09600
H 	H 	0.81037 0.02843 0.57463 0.01500
C 	C 	0.78237 0.97293 0.64313 -0.16400
H 	H 	0.78057 0.95473 0.59723 0.10500
C 	C 	0.76846 0.95673 0.72983 0.12400
C 	C 	0.77137 0.98323 0.79933 -0.17100
H 	H 	0.76347 0.97203 0.85613 0.09500
C 	C 	0.78597 0.02573 0.78393 0.09000
H 	H 	0.78837 0.04393 0.83013 0.01700
C 	C 	0.74837 0.90753 0.74263 -0.07100
C 	C 	0.70859 0.88711 0.78973 -0.04800
H 	H 	0.69567 0.90313 0.80613 0.04800
C 	C 	0.84637 0.92823 0.71943 0.05000
C 	C 	0.88047 0.95933 0.65233 -0.00300
O 	O 	0.48033 0.44303 0.08217 -0.42200
O 	O 	0.48736 0.43551 0.93837 -0.40800
C 	C 	0.47803 0.42117 0.01647 0.39400
C 	C 	0.46419 0.37551 0.02957 -0.15400
C 	C 	0.46523 0.34967 0.96257 0.09600
H 	H 	0.47703 0.36177 0.90797 0.01500
C 	C 	0.44903 0.30627 0.97647 -0.16400
H 	H 	0.44723 0.28807 0.93057 0.10500
C 	C 	0.43512 0.29007 0.06317 0.12400
C 	C 	0.43803 0.31657 0.13267 -0.17200
H 	H 	0.43013 0.30537 0.18947 0.09500
C 	C 	0.45263 0.35907 0.11727 0.09100
H 	H 	0.45503 0.37727 0.16347 0.01700
C 	C 	0.41503 0.24087 0.07597 -0.07200
C 	C 	0.37525 0.22045 0.12307 -0.04800
H 	H 	0.36233 0.23647 0.13947 0.04800
C 	C 	0.51303 0.26157 0.05277 0.05000
C 	C 	0.54713 0.29267 0.98567 -0.00300
O 	O 	0.37064 0.22364 0.58450 -0.42200
O 	O 	0.38519 0.23116 0.72830 -0.40800
C 	C 	0.39020 0.24550 0.65020 0.39400
C 	C 	0.42202 0.29116 0.63710 -0.15400
C 	C 	0.44890 0.31700 0.70410 0.09600
H 	H 	0.44860 0.30490 0.75870 0.01500
C 	C 	0.47610 0.36040 0.69020 -0.16400
H 	H 	0.49250 0.37860 0.73610 0.10500
C 	C 	0.47839 0.37660 0.60350 0.12400
C 	C 	0.45480 0.35010 0.53400 -0.17200
H 	H 	0.45810 0.36130 0.47720 0.09500
C 	C 	0.42690 0.30760 0.54940 0.09100
H 	H 	0.41110 0.28940 0.50320 0.01700
C 	C 	0.50750 0.42580 0.59070 -0.07200
C 	C 	0.48814 0.44622 0.54360 -0.04800
H 	H 	0.45920 0.43020 0.52720 0.04800
C 	C 	0.58480 0.40510 0.61390 0.05000
C 	C 	0.58780 0.37400 0.68100 -0.00300
O 	O 	0.03731 0.55697 0.91783 -0.42200
O 	O 	0.05186 0.56449 0.06163 -0.40900
C 	C 	0.05687 0.57883 0.98353 0.39400
C 	C 	0.08869 0.62449 0.97043 -0.15400
C 	C 	0.11557 0.65033 0.03743 0.09600
H 	H 	0.11527 0.63823 0.09203 0.01500
C 	C 	0.14277 0.69373 0.02353 -0.16400
H 	H 	0.15917 0.71193 0.06943 0.10500
C 	C 	0.14506 0.70993 0.93683 0.12400
C 	C 	0.12147 0.68343 0.86733 -0.17200
H 	H 	0.12477 0.69463 0.81053 0.09500
C 	C 	0.09357 0.64093 0.88273 0.09100
H 	H 	0.07777 0.62273 0.83653 0.01700
C 	C 	0.17417 0.75913 0.92403 -0.07200
C 	C 	0.15481 0.77955 0.87693 -0.04800
H 	H 	0.12587 0.76353 0.86053 0.04800
C 	C 	0.25147 0.73843 0.94723 0.05000
C 	C 	0.25447 0.70733 0.01433 -0.00300
O 	O 	0.70397 0.89031 0.25117 -0.42200
O 	O 	0.71852 0.89783 0.39497 -0.40800
C 	C 	0.72353 0.91217 0.31687 0.39300
C 	C 	0.75535 0.95783 0.30377 -0.15400
C 	C 	0.78223 0.98367 0.37077 0.09500
H 	H 	0.78193 0.97157 0.42537 0.01500
C 	C 	0.80943 0.02707 0.35687 -0.16300
H 	H 	0.82583 0.04527 0.40277 0.10500
C 	C 	0.81172 0.04327 0.27017 0.12400
C 	C 	0.78813 0.01677 0.20067 -0.17100
H 	H 	0.79143 0.02797 0.14387 0.09500
C 	C 	0.76023 0.97427 0.21607 0.09000
H 	H 	0.74443 0.95607 0.16987 0.01700
C 	C 	0.84083 0.09247 0.25737 -0.07100
C 	C 	0.82147 0.11289 0.21027 -0.04800
H 	H 	0.79253 0.09687 0.19387 0.04800
C 	C 	0.91813 0.07177 0.28057 0.05000
C 	C 	0.92113 0.04067 0.34767 -0.00300
O 	O 	0.85300 0.62936 0.58450 -0.42200
O 	O 	0.84597 0.61481 0.72830 -0.40800
C 	C 	0.85530 0.60980 0.65020 0.39400
C 	C 	0.86914 0.57798 0.63710 -0.15400
C 	C 	0.86810 0.55110 0.70410 0.09600
H 	H 	0.85630 0.55140 0.75870 0.01500
C 	C 	0.88430 0.52390 0.69020 -0.16400
H 	H 	0.88610 0.50750 0.73610 0.10500
C 	C 	0.89821 0.52161 0.60350 0.12400
C 	C 	0.89530 0.54520 0.53400 -0.17200
H 	H 	0.90320 0.54190 0.47720 0.09500
C 	C 	0.88070 0.57310 0.54940 0.09100
H 	H 	0.87830 0.58890 0.50320 0.01700
C 	C 	0.91830 0.49250 0.59070 -0.07200
C 	C 	0.95808 0.51186 0.54360 -0.04800
H 	H 	0.97100 0.54080 0.52720 0.04800
C 	C 	0.82030 0.41520 0.61390 0.05000
C 	C 	0.78620 0.41220 0.68100 -0.00300
O 	O 	0.51967 0.96269 0.91783 -0.42100
O 	O 	0.51264 0.94814 0.06163 -0.40800
C 	C 	0.52197 0.94313 0.98353 0.39400
C 	C 	0.53581 0.91131 0.97043 -0.15400
C 	C 	0.53477 0.88443 0.03743 0.09600
H 	H 	0.52297 0.88473 0.09203 0.01500
C 	C 	0.55097 0.85723 0.02353 -0.16400
H 	H 	0.55277 0.84083 0.06943 0.10500
C 	C 	0.56488 0.85494 0.93683 0.12400
C 	C 	0.56197 0.87853 0.86733 -0.17200
H 	H 	0.56987 0.87523 0.81053 0.09500
C 	C 	0.54737 0.90643 0.88273 0.09100
H 	H 	0.54497 0.92223 0.83653 0.01700
C 	C 	0.58497 0.82583 0.92403 -0.07200
C 	C 	0.62475 0.84519 0.87693 -0.04800
H 	H 	0.63767 0.87413 0.86053 0.04800
C 	C 	0.48697 0.74853 0.94723 0.05000
C 	C 	0.45287 0.74553 0.01433 -0.00300
O 	O 	0.18633 0.29603 0.25117 -0.42200
O 	O 	0.17930 0.28148 0.39497 -0.40800
C 	C 	0.18863 0.27647 0.31687 0.39400
C 	C 	0.20247 0.24465 0.30377 -0.15400
C 	C 	0.20143 0.21777 0.37077 0.09600
H 	H 	0.18963 0.21807 0.42537 0.01500
C 	C 	0.21763 0.19057 0.35687 -0.16400
H 	H 	0.21943 0.17417 0.40277 0.10500
C 	C 	0.23154 0.18828 0.27017 0.12400
C 	C 	0.22863 0.21187 0.20067 -0.17200
H 	H 	0.23653 0.20857 0.14387 0.09500
C 	C 	0.21403 0.23977 0.21607 0.09100
H 	H 	0.21163 0.25557 0.16987 0.01700
C 	C 	0.25163 0.15917 0.25737 -0.07200
C 	C 	0.29141 0.17853 0.21027 -0.04800
H 	H 	0.30433 0.20747 0.19387 0.04800
C 	C 	0.15363 0.08187 0.28057 0.05000
C 	C 	0.11953 0.07887 0.34767 -0.00300
O 	O 	0.77636 0.14700 0.58450 -0.42200
O 	O 	0.76884 0.15403 0.72830 -0.40800
C 	C 	0.75450 0.14470 0.65020 0.39400
C 	C 	0.70884 0.13086 0.63710 -0.15400
C 	C 	0.68300 0.13190 0.70410 0.09600
H 	H 	0.69510 0.14370 0.75870 0.01500
C 	C 	0.63960 0.11570 0.69020 -0.16400
H 	H 	0.62140 0.11390 0.73610 0.10500
C 	C 	0.62340 0.10179 0.60350 0.12400
C 	C 	0.64990 0.10470 0.53400 -0.17200
H 	H 	0.63870 0.09680 0.47720 0.09500
C 	C 	0.69240 0.11930 0.54940 0.09100
H 	H 	0.71060 0.12170 0.50320 0.01700
C 	C 	0.57420 0.08170 0.59070 -0.07200
C 	C 	0.55378 0.04192 0.54360 -0.04800
H 	H 	0.56980 0.02900 0.52720 0.04800
C 	C 	0.59490 0.17970 0.61390 0.05000
C 	C 	0.62600 0.21380 0.68100 -0.00300
O 	O 	0.44303 0.48033 0.91783 -0.42200
O 	O 	0.43551 0.48736 0.06163 -0.40800
C 	C 	0.42117 0.47803 0.98353 0.39400
C 	C 	0.37551 0.46419 0.97043 -0.15400
C 	C 	0.34967 0.46523 0.03743 0.09600
H 	H 	0.36177 0.47703 0.09203 0.01500
C 	C 	0.30627 0.44903 0.02353 -0.16400
H 	H 	0.28807 0.44723 0.06943 0.10500
C 	C 	0.29007 0.43512 0.93683 0.12400
C 	C 	0.31657 0.43803 0.86733 -0.17200
H 	H 	0.30537 0.43013 0.81053 0.09500
C 	C 	0.35907 0.45263 0.88273 0.09100
H 	H 	0.37727 0.45503 0.83653 0.01700
C 	C 	0.24087 0.41503 0.92403 -0.07200
C 	C 	0.22045 0.37525 0.87693 -0.04800
H 	H 	0.23647 0.36233 0.86053 0.04800
C 	C 	0.26157 0.51303 0.94723 0.05000
C 	C 	0.29267 0.54713 0.01433 -0.00300
O 	O 	0.10969 0.81367 0.25117 -0.42200
O 	O 	0.10217 0.82070 0.39497 -0.40800
C 	C 	0.08783 0.81137 0.31687 0.39400
C 	C 	0.04217 0.79753 0.30377 -0.15400
C 	C 	0.01633 0.79857 0.37077 0.09600
H 	H 	0.02843 0.81037 0.42537 0.01500
C 	C 	0.97293 0.78237 0.35687 -0.16400
H 	H 	0.95473 0.78057 0.40277 0.10500
C 	C 	0.95673 0.76846 0.27017 0.12400
C 	C 	0.98323 0.77137 0.20067 -0.17100
H 	H 	0.97203 0.76347 0.14387 0.09500
C 	C 	0.02573 0.78597 0.21607 0.09000
H 	H 	0.04393 0.78837 0.16987 0.01700
C 	C 	0.90753 0.74837 0.25737 -0.07100
C 	C 	0.88711 0.70859 0.21027 -0.04800
H 	H 	0.90313 0.69567 0.19387 0.04800
C 	C 	0.92823 0.84637 0.28057 0.05000
C 	C 	0.95933 0.88047 0.34767 -0.00300
O 	O 	0.77636 0.62936 0.58450 -0.42200
O 	O 	0.76884 0.61481 0.72830 -0.40800
C 	C 	0.75450 0.60980 0.65020 0.39400
C 	C 	0.70884 0.57798 0.63710 -0.15400
C 	C 	0.68300 0.55110 0.70410 0.09600
H 	H 	0.69510 0.55140 0.75870 0.01500
C 	C 	0.63960 0.52390 0.69020 -0.16400
H 	H 	0.62140 0.50750 0.73610 0.10500
C 	C 	0.62340 0.52161 0.60350 0.12400
C 	C 	0.64990 0.54520 0.53400 -0.17200
H 	H 	0.63870 0.54190 0.47720 0.09500
C 	C 	0.69240 0.57310 0.54940 0.09100
H 	H 	0.71060 0.58890 0.50320 0.01700
C 	C 	0.57420 0.49250 0.59070 -0.07200
C 	C 	0.55378 0.51186 0.54360 -0.04800
H 	H 	0.56980 0.54080 0.52720 0.04800
C 	C 	0.59490 0.41520 0.61390 0.05000
C 	C 	0.62600 0.41220 0.68100 -0.00300
O 	O 	0.44303 0.96269 0.91783 -0.42200
O 	O 	0.43551 0.94814 0.06163 -0.40900
C 	C 	0.42117 0.94313 0.98353 0.39400
C 	C 	0.37551 0.91131 0.97043 -0.15400
C 	C 	0.34967 0.88443 0.03743 0.09600
H 	H 	0.36177 0.88473 0.09203 0.01500
C 	C 	0.30627 0.85723 0.02353 -0.16400
H 	H 	0.28807 0.84083 0.06943 0.10500
C 	C 	0.29007 0.85494 0.93683 0.12400
C 	C 	0.31657 0.87853 0.86733 -0.17200
H 	H 	0.30537 0.87523 0.81053 0.09500
C 	C 	0.35907 0.90643 0.88273 0.09100
H 	H 	0.37727 0.92223 0.83653 0.01700
C 	C 	0.24087 0.82583 0.92403 -0.07200
C 	C 	0.22045 0.84519 0.87693 -0.04800
H 	H 	0.23647 0.87413 0.86053 0.04800
C 	C 	0.26157 0.74853 0.94723 0.05000
C 	C 	0.29267 0.74553 0.01433 -0.00300
O 	O 	0.10969 0.29603 0.25117 -0.42200
O 	O 	0.10217 0.28148 0.39497 -0.40800
C 	C 	0.08783 0.27647 0.31687 0.39300
C 	C 	0.04217 0.24465 0.30377 -0.15400
C 	C 	0.01633 0.21777 0.37077 0.09500
H 	H 	0.02843 0.21807 0.42537 0.01500
C 	C 	0.97293 0.19057 0.35687 -0.16300
H 	H 	0.95473 0.17417 0.40277 0.10500
C 	C 	0.95673 0.18828 0.27017 0.12400
C 	C 	0.98323 0.21187 0.20067 -0.17100
H 	H 	0.97203 0.20857 0.14387 0.09500
C 	C 	0.02573 0.23977 0.21607 0.09000
H 	H 	0.04393 0.25557 0.16987 0.01700
C 	C 	0.90753 0.15917 0.25737 -0.07100
C 	C 	0.88711 0.17853 0.21027 -0.04800
H 	H 	0.90313 0.20747 0.19387 0.04800
C 	C 	0.92823 0.08187 0.28057 0.05000
C 	C 	0.95933 0.07887 0.34767 -0.00300
O 	O 	0.37064 0.14700 0.58450 -0.42200
O 	O 	0.38519 0.15403 0.72830 -0.40800
C 	C 	0.39020 0.14470 0.65020 0.39400
C 	C 	0.42202 0.13086 0.63710 -0.15400
C 	C 	0.44890 0.13190 0.70410 0.09600
H 	H 	0.44860 0.14370 0.75870 0.01500
C 	C 	0.47610 0.11570 0.69020 -0.16400
H 	H 	0.49250 0.11390 0.73610 0.10500
C 	C 	0.47839 0.10179 0.60350 0.12400
C 	C 	0.45480 0.10470 0.53400 -0.17200
H 	H 	0.45810 0.09680 0.47720 0.09500
C 	C 	0.42690 0.11930 0.54940 0.09100
H 	H 	0.41110 0.12170 0.50320 0.01700
C 	C 	0.50750 0.08170 0.59070 -0.07200
C 	C 	0.48814 0.04192 0.54360 -0.04800
H 	H 	0.45920 0.02900 0.52720 0.04800
C 	C 	0.58480 0.17970 0.61390 0.05000
C 	C 	0.58780 0.21380 0.68100 -0.00300
O 	O 	0.03731 0.48033 0.91783 -0.42100
O 	O 	0.05186 0.48736 0.06163 -0.40800
C 	C 	0.05687 0.47803 0.98353 0.39400
C 	C 	0.08869 0.46419 0.97043 -0.15400
C 	C 	0.11557 0.46523 0.03743 0.09600
H 	H 	0.11527 0.47703 0.09203 0.01500
C 	C 	0.14277 0.44903 0.02353 -0.16400
H 	H 	0.15917 0.44723 0.06943 0.10500
C 	C 	0.14506 0.43512 0.93683 0.12400
C 	C 	0.12147 0.43803 0.86733 -0.17200
H 	H 	0.12477 0.43013 0.81053 0.09500
C 	C 	0.09357 0.45263 0.88273 0.09100
H 	H 	0.07777 0.45503 0.83653 0.01700
C 	C 	0.17417 0.41503 0.92403 -0.07200
C 	C 	0.15481 0.37525 0.87693 -0.04800
H 	H 	0.12587 0.36233 0.86053 0.04800
C 	C 	0.25147 0.51303 0.94723 0.05000
C 	C 	0.25447 0.54713 0.01433 -0.00300
O 	O 	0.70397 0.81367 0.25117 -0.42200
O 	O 	0.71852 0.82070 0.39497 -0.40800
C 	C 	0.72353 0.81137 0.31687 0.39400
C 	C 	0.75535 0.79753 0.30377 -0.15400
C 	C 	0.78223 0.79857 0.37077 0.09600
H 	H 	0.78193 0.81037 0.42537 0.01500
C 	C 	0.80943 0.78237 0.35687 -0.16400
H 	H 	0.82583 0.78057 0.40277 0.10500
C 	C 	0.81172 0.76846 0.27017 0.12400
C 	C 	0.78813 0.77137 0.20067 -0.17200
H 	H 	0.79143 0.76347 0.14387 0.09500
C 	C 	0.76023 0.78597 0.21607 0.09100
H 	H 	0.74443 0.78837 0.16987 0.01700
C 	C 	0.84083 0.74837 0.25737 -0.07200
C 	C 	0.82147 0.70859 0.21027 -0.04800
H 	H 	0.79253 0.69567 0.19387 0.04800
C 	C 	0.91813 0.84637 0.28057 0.05000
C 	C 	0.92113 0.88047 0.34767 -0.00300
O 	O 	0.85300 0.22364 0.58450 -0.42200
O 	O 	0.84597 0.23116 0.72830 -0.40800
C 	C 	0.85530 0.24550 0.65020 0.39400
C 	C 	0.86914 0.29116 0.63710 -0.15400
C 	C 	0.86810 0.31700 0.70410 0.09600
H 	H 	0.85630 0.30490 0.75870 0.01500
C 	C 	0.88430 0.36040 0.69020 -0.16400
H 	H 	0.88610 0.37860 0.73610 0.10500
C 	C 	0.89821 0.37660 0.60350 0.12400
C 	C 	0.89530 0.35010 0.53400 -0.17200
H 	H 	0.90320 0.36130 0.47720 0.09500
C 	C 	0.88070 0.30760 0.54940 0.09100
H 	H 	0.87830 0.28940 0.50320 0.01700
C 	C 	0.91830 0.42580 0.59070 -0.07200
C 	C 	0.95808 0.44622 0.54360 -0.04800
H 	H 	0.97100 0.43020 0.52720 0.04800
C 	C 	0.82030 0.40510 0.61390 0.05000
C 	C 	0.78620 0.37400 0.68100 -0.00300
O 	O 	0.51967 0.55697 0.91783 -0.42200
O 	O 	0.51264 0.56449 0.06163 -0.40800
C 	C 	0.52197 0.57883 0.98353 0.39400
C 	C 	0.53581 0.62449 0.97043 -0.15400
C 	C 	0.53477 0.65033 0.03743 0.09600
H 	H 	0.52297 0.63823 0.09203 0.01500
C 	C 	0.55097 0.69373 0.02353 -0.16400
H 	H 	0.55277 0.71193 0.06943 0.10500
C 	C 	0.56488 0.70993 0.93683 0.12400
C 	C 	0.56197 0.68343 0.86733 -0.17200
H 	H 	0.56987 0.69463 0.81053 0.09500
C 	C 	0.54737 0.64093 0.88273 0.09100
H 	H 	0.54497 0.62273 0.83653 0.01700
C 	C 	0.58497 0.75913 0.92403 -0.07200
C 	C 	0.62475 0.77955 0.87693 -0.04800
H 	H 	0.63767 0.76353 0.86053 0.04800
C 	C 	0.48697 0.73843 0.94723 0.05000
C 	C 	0.45287 0.70733 0.01433 -0.00300
O 	O 	0.18633 0.89031 0.25117 -0.42200
O 	O 	0.17930 0.89783 0.39497 -0.40800
C 	C 	0.18863 0.91217 0.31687 0.39400
C 	C 	0.20247 0.95783 0.30377 -0.15400
C 	C 	0.20143 0.98367 0.37077 0.09600
H 	H 	0.18963 0.97157 0.42537 0.01500
C 	C 	0.21763 0.02707 0.35687 -0.16400
H 	H 	0.21943 0.04527 0.40277 0.10500
C 	C 	0.23154 0.04327 0.27017 0.12400
C 	C 	0.22863 0.01677 0.20067 -0.17100
H 	H 	0.23653 0.02797 0.14387 0.09500
C 	C 	0.21403 0.97427 0.21607 0.09000
H 	H 	0.21163 0.95607 0.16987 0.01700
C 	C 	0.25163 0.09247 0.25737 -0.07100
C 	C 	0.29141 0.11289 0.21027 -0.04800
H 	H 	0.30433 0.09687 0.19387 0.04800
C 	C 	0.15363 0.07177 0.28057 0.05000
C 	C 	0.11953 0.04067 0.34767 -0.00300
O 	O 	0.62936 0.77636 0.41550 -0.42200
O 	O 	0.61481 0.76884 0.27170 -0.40800
C 	C 	0.60980 0.75450 0.34980 0.39400
C 	C 	0.57798 0.70884 0.36290 -0.15400
C 	C 	0.55110 0.68300 0.29590 0.09600
H 	H 	0.55140 0.69510 0.24130 0.01500
C 	C 	0.52390 0.63960 0.30980 -0.16400
H 	H 	0.50750 0.62140 0.26390 0.10500
C 	C 	0.52161 0.62340 0.39650 0.12400
C 	C 	0.54520 0.64990 0.46600 -0.17200
H 	H 	0.54190 0.63870 0.52280 0.09500
C 	C 	0.57310 0.69240 0.45060 0.09100
H 	H 	0.58890 0.71060 0.49680 0.01700
C 	C 	0.49250 0.57420 0.40930 -0.07200
C 	C 	0.51186 0.55378 0.45640 -0.04800
H 	H 	0.54080 0.56980 0.47280 0.04800
C 	C 	0.41520 0.59490 0.38610 0.05000
C 	C 	0.41220 0.62600 0.31900 -0.00300
O 	O 	0.29603 0.10969 0.74883 -0.42200
O 	O 	0.28148 0.10217 0.60503 -0.40800
C 	C 	0.27647 0.08783 0.68313 0.39300
C 	C 	0.24465 0.04217 0.69623 -0.15400
C 	C 	0.21777 0.01633 0.62923 0.09500
H 	H 	0.21807 0.02843 0.57463 0.01500
C 	C 	0.19057 0.97293 0.64313 -0.16300
H 	H 	0.17417 0.95473 0.59723 0.10500
C 	C 	0.18828 0.95673 0.72983 0.12400
C 	C 	0.21187 0.98323 0.79933 -0.17100
H 	H 	0.20857 0.97203 0.85613 0.09500
C 	C 	0.23977 0.02573 0.78393 0.09000
H 	H 	0.25557 0.04393 0.83013 0.01700
C 	C 	0.15917 0.90753 0.74263 -0.07100
C 	C 	0.17853 0.88711 0.78973 -0.04800
H 	H 	0.20747 0.90313 0.80613 0.04800
C 	C 	0.08187 0.92823 0.71943 0.05000
C 	C 	0.07887 0.95933 0.65233 -0.00300
O 	O 	0.96269 0.44303 0.08217 -0.42200
O 	O 	0.94814 0.43551 0.93837 -0.40900
C 	C 	0.94313 0.42117 0.01647 0.39400
C 	C 	0.91131 0.37551 0.02957 -0.15400
C 	C 	0.88443 0.34967 0.96257 0.09600
H 	H 	0.88473 0.36177 0.90797 0.01500
C 	C 	0.85723 0.30627 0.97647 -0.16400
H 	H 	0.84083 0.28807 0.93057 0.10500
C 	C 	0.85494 0.29007 0.06317 0.12400
C 	C 	0.87853 0.31657 0.13267 -0.17200
H 	H 	0.87523 0.30537 0.18947 0.09500
C 	C 	0.90643 0.35907 0.11727 0.09100
H 	H 	0.92223 0.37727 0.16347 0.01700
C 	C 	0.82583 0.24087 0.07597 -0.07200
C 	C 	0.84519 0.22045 0.12307 -0.04800
H 	H 	0.87413 0.23647 0.13947 0.04800
C 	C 	0.74853 0.26157 0.05277 0.05000
C 	C 	0.74553 0.29267 0.98567 -0.00300
O 	O 	0.14700 0.37064 0.41550 -0.42200
O 	O 	0.15403 0.38519 0.27170 -0.40800
C 	C 	0.14470 0.39020 0.34980 0.39400
C 	C 	0.13086 0.42202 0.36290 -0.15400
C 	C 	0.13190 0.44890 0.29590 0.09600
H 	H 	0.14370 0.44860 0.24130 0.01500
C 	C 	0.11570 0.47610 0.30980 -0.16400
H 	H 	0.11390 0.49250 0.26390 0.10500
C 	C 	0.10179 0.47839 0.39650 0.12400
C 	C 	0.10470 0.45480 0.46600 -0.17200
H 	H 	0.09680 0.45810 0.52280 0.09500
C 	C 	0.11930 0.42690 0.45060 0.09100
H 	H 	0.12170 0.41110 0.49680 0.01700
C 	C 	0.08170 0.50750 0.40930 -0.07200
C 	C 	0.04192 0.48814 0.45640 -0.04800
H 	H 	0.02900 0.45920 0.47280 0.04800
C 	C 	0.17970 0.58480 0.38610 0.05000
C 	C 	0.21380 0.58780 0.31900 -0.00300
O 	O 	0.81367 0.70397 0.74883 -0.42200
O 	O 	0.82070 0.71852 0.60503 -0.40800
C 	C 	0.81137 0.72353 0.68313 0.39400
C 	C 	0.79753 0.75535 0.69623 -0.15400
C 	C 	0.79857 0.78223 0.62923 0.09600
H 	H 	0.81037 0.78193 0.57463 0.01500
C 	C 	0.78237 0.80943 0.64313 -0.16400
H 	H 	0.78057 0.82583 0.59723 0.10500
C 	C 	0.76846 0.81172 0.72983 0.12400
C 	C 	0.77137 0.78813 0.79933 -0.17200
H 	H 	0.76347 0.79143 0.85613 0.09500
C 	C 	0.78597 0.76023 0.78393 0.09100
H 	H 	0.78837 0.74443 0.83013 0.01700
C 	C 	0.74837 0.84083 0.74263 -0.07200
C 	C 	0.70859 0.82147 0.78973 -0.04800
H 	H 	0.69567 0.79253 0.80613 0.04800
C 	C 	0.84637 0.91813 0.71943 0.05000
C 	C 	0.88047 0.92113 0.65233 -0.00300
O 	O 	0.48033 0.03731 0.08217 -0.42100
O 	O 	0.48736 0.05186 0.93837 -0.40800
C 	C 	0.47803 0.05687 0.01647 0.39400
C 	C 	0.46419 0.08869 0.02957 -0.15400
C 	C 	0.46523 0.11557 0.96257 0.09600
H 	H 	0.47703 0.11527 0.90797 0.01500
C 	C 	0.44903 0.14277 0.97647 -0.16400
H 	H 	0.44723 0.15917 0.93057 0.10500
C 	C 	0.43512 0.14506 0.06317 0.12400
C 	C 	0.43803 0.12147 0.13267 -0.17200
H 	H 	0.43013 0.12477 0.18947 0.09500
C 	C 	0.45263 0.09357 0.11727 0.09100
H 	H 	0.45503 0.07777 0.16347 0.01700
C 	C 	0.41503 0.17417 0.07597 -0.07200
C 	C 	0.37525 0.15481 0.12307 -0.04800
H 	H 	0.36233 0.12587 0.13947 0.04800
C 	C 	0.51303 0.25147 0.05277 0.05000
C 	C 	0.54713 0.25447 0.98567 -0.00300
O 	O 	0.22364 0.85300 0.41550 -0.42200
O 	O 	0.23116 0.84597 0.27170 -0.40800
C 	C 	0.24550 0.85530 0.34980 0.39400
C 	C 	0.29116 0.86914 0.36290 -0.15400
C 	C 	0.31700 0.86810 0.29590 0.09600
H 	H 	0.30490 0.85630 0.24130 0.01500
C 	C 	0.36040 0.88430 0.30980 -0.16400
H 	H 	0.37860 0.88610 0.26390 0.10500
C 	C 	0.37660 0.89821 0.39650 0.12400
C 	C 	0.35010 0.89530 0.46600 -0.17200
H 	H 	0.36130 0.90320 0.52280 0.09500
C 	C 	0.30760 0.88070 0.45060 0.09100
H 	H 	0.28940 0.87830 0.49680 0.01700
C 	C 	0.42580 0.91830 0.40930 -0.07200
C 	C 	0.44622 0.95808 0.45640 -0.04800
H 	H 	0.43020 0.97100 0.47280 0.04800
C 	C 	0.40510 0.82030 0.38610 0.05000
C 	C 	0.37400 0.78620 0.31900 -0.00300
O 	O 	0.89031 0.18633 0.74883 -0.42200
O 	O 	0.89783 0.17930 0.60503 -0.40800
C 	C 	0.91217 0.18863 0.68313 0.39400
C 	C 	0.95783 0.20247 0.69623 -0.15400
C 	C 	0.98367 0.20143 0.62923 0.09600
H 	H 	0.97157 0.18963 0.57463 0.01500
C 	C 	0.02707 0.21763 0.64313 -0.16400
H 	H 	0.04527 0.21943 0.59723 0.10500
C 	C 	0.04327 0.23154 0.72983 0.12400
C 	C 	0.01677 0.22863 0.79933 -0.17100
H 	H 	0.02797 0.23653 0.85613 0.09500
C 	C 	0.97427 0.21403 0.78393 0.09000
H 	H 	0.95607 0.21163 0.83013 0.01700
C 	C 	0.09247 0.25163 0.74263 -0.07100
C 	C 	0.11289 0.29141 0.78973 -0.04800
H 	H 	0.09687 0.30433 0.80613 0.04800
C 	C 	0.07177 0.15363 0.71943 0.05000
C 	C 	0.04067 0.11953 0.65233 -0.00300
O 	O 	0.55697 0.51967 0.08217 -0.42200
O 	O 	0.56449 0.51264 0.93837 -0.40800
C 	C 	0.57883 0.52197 0.01647 0.39400
C 	C 	0.62449 0.53581 0.02957 -0.15400
C 	C 	0.65033 0.53477 0.96257 0.09600
H 	H 	0.63823 0.52297 0.90797 0.01500
C 	C 	0.69373 0.55097 0.97647 -0.16400
H 	H 	0.71193 0.55277 0.93057 0.10500
C 	C 	0.70993 0.56488 0.06317 0.12400
C 	C 	0.68343 0.56197 0.13267 -0.17200
H 	H 	0.69463 0.56987 0.18947 0.09500
C 	C 	0.64093 0.54737 0.11727 0.09100
H 	H 	0.62273 0.54497 0.16347 0.01700
C 	C 	0.75913 0.58497 0.07597 -0.07200
C 	C 	0.77955 0.62475 0.12307 -0.04800
H 	H 	0.76353 0.63767 0.13947 0.04800
C 	C 	0.73843 0.48697 0.05277 0.05000
C 	C 	0.70733 0.45287 0.98567 -0.00300
Cu	Cu	0.17088 0.34176 0.24840 0.90500
Cu	Cu	0.83755 0.67509 0.58173 0.90500
Cu	Cu	0.50421 0.00843 0.91507 0.90500
Cu	Cu	0.65824 0.82912 0.24840 0.90500
Cu	Cu	0.32491 0.16245 0.58173 0.90500
Cu	Cu	0.99157 0.49579 0.91507 0.90500
Cu	Cu	0.17088 0.82912 0.24840 0.90500
Cu	Cu	0.83755 0.16245 0.58173 0.90500
Cu	Cu	0.50421 0.49579 0.91507 0.90500
Cu	Cu	0.34176 0.17088 0.75160 0.90500
Cu	Cu	0.00843 0.50421 0.08493 0.90500
Cu	Cu	0.67509 0.83755 0.41827 0.90500
Cu	Cu	0.82912 0.65824 0.75160 0.90500
Cu	Cu	0.49579 0.99157 0.08493 0.90500
Cu	Cu	0.16245 0.32491 0.41827 0.90500
Cu	Cu	0.82912 0.17088 0.75160 0.90500
Cu	Cu	0.49579 0.50421 0.08493 0.90500
Cu	Cu	0.16245 0.83755 0.41827 0.90500
O 	O 	0.42977 0.57023 0.34670 -0.22700
C 	C 	0.48872 0.51128 0.47770 0.01000
C 	C 	0.44927 0.55073 0.39000 0.15100
C 	C 	0.40830 0.59170 0.48460 -0.02200
O 	O 	0.09644 0.90356 0.68003 -0.22700
C 	C 	0.15539 0.84461 0.81103 0.01000
C 	C 	0.11594 0.88406 0.72333 0.15100
C 	C 	0.07497 0.92503 0.81793 -0.02200
O 	O 	0.76310 0.23690 0.01337 -0.22700
C 	C 	0.82205 0.17795 0.14437 0.01000
C 	C 	0.78260 0.21740 0.05667 0.15100
C 	C 	0.74163 0.25837 0.15127 -0.02200
O 	O 	0.42977 0.85954 0.34670 -0.22700
C 	C 	0.48872 0.97744 0.47770 0.01000
C 	C 	0.44927 0.89854 0.39000 0.15100
C 	C 	0.40830 0.81660 0.48460 -0.02200
O 	O 	0.09644 0.19287 0.68003 -0.22700
C 	C 	0.15539 0.31077 0.81103 0.01000
C 	C 	0.11594 0.23187 0.72333 0.15100
C 	C 	0.07497 0.14993 0.81793 -0.02200
O 	O 	0.76310 0.52621 0.01337 -0.22700
C 	C 	0.82205 0.64411 0.14437 0.01000
C 	C 	0.78260 0.56521 0.05667 0.15100
C 	C 	0.74163 0.48327 0.15127 -0.02200
O 	O 	0.14046 0.57023 0.34670 -0.22700
C 	C 	0.02256 0.51128 0.47770 0.01000
C 	C 	0.10146 0.55073 0.39000 0.15100
C 	C 	0.18340 0.59170 0.48460 -0.02200
O 	O 	0.80713 0.90356 0.68003 -0.22700
C 	C 	0.68923 0.84461 0.81103 0.01000
C 	C 	0.76813 0.88406 0.72333 0.15100
C 	C 	0.85007 0.92503 0.81793 -0.02200
O 	O 	0.47379 0.23690 0.01337 -0.22700
C 	C 	0.35589 0.17795 0.14437 0.01000
C 	C 	0.43479 0.21740 0.05667 0.15100
C 	C 	0.51673 0.25837 0.15127 -0.02200
O 	O 	0.57023 0.42977 0.65330 -0.22700
C 	C 	0.51128 0.48872 0.52230 0.01000
C 	C 	0.55073 0.44927 0.61000 0.15100
C 	C 	0.59170 0.40830 0.51540 -0.02200
O 	O 	0.23690 0.76310 0.98663 -0.22700
C 	C 	0.17795 0.82205 0.85563 0.01000
C 	C 	0.21740 0.78260 0.94333 0.15100
C 	C 	0.25837 0.74163 0.84873 -0.02200
O 	O 	0.90356 0.09644 0.31997 -0.22700
C 	C 	0.84461 0.15539 0.18897 0.01000
C 	C 	0.88406 0.11594 0.27667 0.15100
C 	C 	0.92503 0.07497 0.18207 -0.02200
O 	O 	0.85954 0.42977 0.65330 -0.22700
C 	C 	0.97744 0.48872 0.52230 0.01000
C 	C 	0.89854 0.44927 0.61000 0.15100
C 	C 	0.81660 0.40830 0.51540 -0.02200
O 	O 	0.52621 0.76310 0.98663 -0.22700
C 	C 	0.64411 0.82205 0.85563 0.01000
C 	C 	0.56521 0.78260 0.94333 0.15100
C 	C 	0.48327 0.74163 0.84873 -0.02200
O 	O 	0.19287 0.09644 0.31997 -0.22700
C 	C 	0.31077 0.15539 0.18897 0.01000
C 	C 	0.23187 0.11594 0.27667 0.15100
C 	C 	0.14993 0.07497 0.18207 -0.02200
O 	O 	0.57023 0.14046 0.65330 -0.22700
C 	C 	0.51128 0.02256 0.52230 0.01000
C 	C 	0.55073 0.10146 0.61000 0.15100
C 	C 	0.59170 0.18340 0.51540 -0.02200
O 	O 	0.23690 0.47379 0.98663 -0.22700
C 	C 	0.17795 0.35589 0.85563 0.01000
C 	C 	0.21740 0.43479 0.94333 0.15100
C 	C 	0.25837 0.51673 0.84873 -0.02200
O 	O 	0.90356 0.80713 0.31997 -0.22700
C 	C 	0.84461 0.68923 0.18897 0.01000
C 	C 	0.88406 0.76813 0.27667 0.15100
C 	C 	0.92503 0.85007 0.18207 -0.02200
