data_crystal

_cell_length_a 35.29190
_cell_length_b 35.29190
_cell_length_c 20.34450
_cell_angle_alpha 90.00000
_cell_angle_beta  90.00000
_cell_angle_gamma 120.00000

_symmetry_space_group_name_	'P 1'
_symmetry_space_group_name_H-M	'P 1'

loop_
_symmetry_equiv_pos_as_xyz
  x,y,z

loop_
_atom_site_label
_atom_site_type_symbol
_atom_site_fract_x
_atom_site_fract_y
_atom_site_fract_z
_atom_site_charge
O 	O 	0.44618 0.47579 0.42527 -0.41100
O 	O 	0.43339 0.48865 0.52885 -0.41000
C 	C 	0.42208 0.47686 0.47020 0.36400
C 	C 	0.37571 0.46284 0.45218 -0.12600
C 	C 	0.34702 0.46217 0.49987 0.05700
H 	H 	0.35710 0.47150 0.54340 0.02300
C 	C 	0.30373 0.44783 0.48362 -0.13900
H 	H 	0.28430 0.44780 0.51600 0.08700
C 	C 	0.28861 0.43361 0.42043 0.10200
C 	C 	0.31820 0.43572 0.37197 -0.14000
H 	H 	0.30870 0.42780 0.32790 0.07800
C 	C 	0.36117 0.44944 0.38890 0.06000
H 	H 	0.38070 0.44960 0.35670 0.02500
C 	C 	0.24135 0.41393 0.40323 -0.07000
C 	C 	0.22134 0.37544 0.36838 -0.04000
H 	H 	0.23820 0.36250 0.35590 0.04400
H 	H 	0.23260 0.51070 0.38840 -0.03800
H 	H 	0.25170 0.54870 0.49270 0.18900
O 	O 	0.11285 0.80912 0.75860 -0.41000
O 	O 	0.10006 0.82198 0.86218 -0.40900
C 	C 	0.08875 0.81019 0.80353 0.36500
C 	C 	0.04238 0.79617 0.78551 -0.12500
C 	C 	0.01369 0.79550 0.83320 0.05900
H 	H 	0.02377 0.80483 0.87673 0.02400
C 	C 	0.97040 0.78116 0.81695 -0.13800
H 	H 	0.95097 0.78113 0.84933 0.08800
C 	C 	0.95528 0.76694 0.75376 0.10300
C 	C 	0.98487 0.76905 0.70530 -0.14000
H 	H 	0.97537 0.76113 0.66123 0.07900
C 	C 	0.02784 0.78277 0.72223 0.06100
H 	H 	0.04737 0.78293 0.69003 0.02500
C 	C 	0.90802 0.74726 0.73656 -0.07000
C 	C 	0.88801 0.70877 0.70171 -0.04000
H 	H 	0.90487 0.69583 0.68923 0.04400
H 	H 	0.89927 0.84403 0.72173 -0.03800
H 	H 	0.91837 0.88203 0.82603 0.18900
O 	O 	0.77951 0.14246 0.09194 -0.41000
O 	O 	0.76672 0.15532 0.19552 -0.40900
C 	C 	0.75541 0.14353 0.13687 0.36500
C 	C 	0.70904 0.12951 0.11885 -0.12500
C 	C 	0.68035 0.12884 0.16654 0.05800
H 	H 	0.69043 0.13817 0.21007 0.02400
C 	C 	0.63706 0.11450 0.15029 -0.13800
H 	H 	0.61763 0.11447 0.18267 0.08800
C 	C 	0.62194 0.10028 0.08710 0.10300
C 	C 	0.65153 0.10239 0.03864 -0.13900
H 	H 	0.64203 0.09447 0.99457 0.07900
C 	C 	0.69450 0.11611 0.05557 0.06100
H 	H 	0.71403 0.11627 0.02337 0.02600
C 	C 	0.57468 0.08060 0.06990 -0.07000
C 	C 	0.55467 0.04211 0.03505 -0.04000
H 	H 	0.57153 0.02917 0.02257 0.04400
H 	H 	0.56593 0.17737 0.05507 -0.03800
H 	H 	0.58503 0.21537 0.15937 0.18900
O 	O 	0.52421 0.97039 0.42527 -0.41000
O 	O 	0.51135 0.94474 0.52885 -0.40900
C 	C 	0.52314 0.94522 0.47020 0.36500
C 	C 	0.53716 0.91287 0.45218 -0.12500
C 	C 	0.53783 0.88485 0.49987 0.05800
H 	H 	0.52850 0.88560 0.54340 0.02400
C 	C 	0.55217 0.85590 0.48362 -0.13800
H 	H 	0.55220 0.83650 0.51600 0.08800
C 	C 	0.56639 0.85500 0.42043 0.10300
C 	C 	0.56428 0.88248 0.37197 -0.13900
H 	H 	0.57220 0.88090 0.32790 0.07900
C 	C 	0.55056 0.91173 0.38890 0.06100
H 	H 	0.55040 0.93110 0.35670 0.02500
C 	C 	0.58607 0.82742 0.40323 -0.07000
C 	C 	0.62456 0.84590 0.36838 -0.04000
H 	H 	0.63750 0.87570 0.35590 0.04400
H 	H 	0.48930 0.72190 0.38840 -0.03800
H 	H 	0.45130 0.70300 0.49270 0.18900
O 	O 	0.19088 0.30372 0.75860 -0.41000
O 	O 	0.17802 0.27807 0.86218 -0.40900
C 	C 	0.18981 0.27855 0.80353 0.36500
C 	C 	0.20383 0.24620 0.78551 -0.12500
C 	C 	0.20450 0.21818 0.83320 0.05800
H 	H 	0.19517 0.21893 0.87673 0.02400
C 	C 	0.21884 0.18923 0.81695 -0.13800
H 	H 	0.21887 0.16983 0.84933 0.08800
C 	C 	0.23306 0.18833 0.75376 0.10300
C 	C 	0.23095 0.21581 0.70530 -0.13900
H 	H 	0.23887 0.21423 0.66123 0.07900
C 	C 	0.21723 0.24506 0.72223 0.06100
H 	H 	0.21707 0.26443 0.69003 0.02500
C 	C 	0.25274 0.16075 0.73656 -0.07000
C 	C 	0.29123 0.17923 0.70171 -0.04000
H 	H 	0.30417 0.20903 0.68923 0.04400
H 	H 	0.15597 0.05523 0.72173 -0.03800
H 	H 	0.11797 0.03633 0.82603 0.18900
O 	O 	0.85754 0.63706 0.09194 -0.41000
O 	O 	0.84468 0.61141 0.19552 -0.40900
C 	C 	0.85647 0.61189 0.13687 0.36500
C 	C 	0.87049 0.57954 0.11885 -0.12500
C 	C 	0.87116 0.55152 0.16654 0.05800
H 	H 	0.86183 0.55227 0.21007 0.02400
C 	C 	0.88550 0.52257 0.15029 -0.13800
H 	H 	0.88553 0.50317 0.18267 0.08800
C 	C 	0.89972 0.52167 0.08710 0.10300
C 	C 	0.89761 0.54915 0.03864 -0.13900
H 	H 	0.90553 0.54757 0.99457 0.07900
C 	C 	0.88389 0.57840 0.05557 0.06100
H 	H 	0.88373 0.59777 0.02337 0.02600
C 	C 	0.91940 0.49409 0.06990 -0.07000
C 	C 	0.95789 0.51257 0.03505 -0.04000
H 	H 	0.97083 0.54237 0.02257 0.04400
H 	H 	0.82263 0.38857 0.05507 -0.03800
H 	H 	0.78463 0.36967 0.15937 0.18900
O 	O 	0.02961 0.55382 0.42527 -0.41000
O 	O 	0.05526 0.56661 0.52885 -0.40900
C 	C 	0.05478 0.57792 0.47020 0.36500
C 	C 	0.08713 0.62429 0.45218 -0.12500
C 	C 	0.11515 0.65298 0.49987 0.05800
H 	H 	0.11440 0.64290 0.54340 0.02400
C 	C 	0.14410 0.69627 0.48362 -0.13800
H 	H 	0.16350 0.71570 0.51600 0.08800
C 	C 	0.14500 0.71139 0.42043 0.10300
C 	C 	0.11752 0.68180 0.37197 -0.13900
H 	H 	0.11910 0.69130 0.32790 0.07900
C 	C 	0.08827 0.63883 0.38890 0.06100
H 	H 	0.06890 0.61930 0.35670 0.02500
C 	C 	0.17258 0.75865 0.40323 -0.07000
C 	C 	0.15410 0.77866 0.36838 -0.04000
H 	H 	0.12430 0.76180 0.35590 0.04400
H 	H 	0.27810 0.76740 0.38840 -0.03800
H 	H 	0.29700 0.74830 0.49270 0.18900
O 	O 	0.69628 0.88715 0.75860 -0.41000
O 	O 	0.72193 0.89994 0.86218 -0.40900
C 	C 	0.72145 0.91125 0.80353 0.36500
C 	C 	0.75380 0.95762 0.78551 -0.12500
C 	C 	0.78182 0.98631 0.83320 0.05800
H 	H 	0.78107 0.97623 0.87673 0.02400
C 	C 	0.81077 0.02960 0.81695 -0.13800
H 	H 	0.83017 0.04903 0.84933 0.08800
C 	C 	0.81167 0.04472 0.75376 0.10300
C 	C 	0.78419 0.01513 0.70530 -0.13900
H 	H 	0.78577 0.02463 0.66123 0.07900
C 	C 	0.75494 0.97216 0.72223 0.06100
H 	H 	0.73557 0.95263 0.69003 0.02500
C 	C 	0.83925 0.09198 0.73656 -0.07000
C 	C 	0.82077 0.11199 0.70171 -0.04000
H 	H 	0.79097 0.09513 0.68923 0.04400
H 	H 	0.94477 0.10073 0.72173 -0.03800
H 	H 	0.96367 0.08163 0.82603 0.18900
O 	O 	0.36294 0.22049 0.09194 -0.41000
O 	O 	0.38859 0.23328 0.19552 -0.40900
C 	C 	0.38811 0.24459 0.13687 0.36500
C 	C 	0.42046 0.29096 0.11885 -0.12500
C 	C 	0.44848 0.31965 0.16654 0.05800
H 	H 	0.44773 0.30957 0.21007 0.02400
C 	C 	0.47743 0.36294 0.15029 -0.13800
H 	H 	0.49683 0.38237 0.18267 0.08800
C 	C 	0.47833 0.37806 0.08710 0.10300
C 	C 	0.45085 0.34847 0.03864 -0.13900
H 	H 	0.45243 0.35797 0.99457 0.07900
C 	C 	0.42160 0.30550 0.05557 0.06100
H 	H 	0.40223 0.28597 0.02337 0.02600
C 	C 	0.50591 0.42532 0.06990 -0.07000
C 	C 	0.48743 0.44533 0.03505 -0.04000
H 	H 	0.45763 0.42847 0.02257 0.04400
H 	H 	0.61143 0.43407 0.05507 -0.03800
H 	H 	0.63033 0.41497 0.15937 0.18900
O 	O 	0.47579 0.44618 0.57473 -0.41000
O 	O 	0.48865 0.43339 0.47115 -0.40900
C 	C 	0.47686 0.42208 0.52980 0.36500
C 	C 	0.46284 0.37571 0.54782 -0.12500
C 	C 	0.46217 0.34702 0.50013 0.05800
H 	H 	0.47150 0.35710 0.45660 0.02400
C 	C 	0.44783 0.30373 0.51638 -0.13800
H 	H 	0.44780 0.28430 0.48400 0.08800
C 	C 	0.43361 0.28861 0.57957 0.10300
C 	C 	0.43572 0.31820 0.62803 -0.13900
H 	H 	0.42780 0.30870 0.67210 0.07900
C 	C 	0.44944 0.36117 0.61110 0.06100
H 	H 	0.44960 0.38070 0.64330 0.02500
C 	C 	0.41393 0.24135 0.59677 -0.07000
C 	C 	0.37544 0.22134 0.63162 -0.04000
H 	H 	0.36250 0.23820 0.64410 0.04400
H 	H 	0.51070 0.23260 0.61160 -0.03800
H 	H 	0.54870 0.25170 0.50730 0.18900
O 	O 	0.14246 0.77951 0.90806 -0.41000
O 	O 	0.15532 0.76672 0.80448 -0.40900
C 	C 	0.14353 0.75541 0.86313 0.36500
C 	C 	0.12951 0.70904 0.88115 -0.12500
C 	C 	0.12884 0.68035 0.83346 0.05800
H 	H 	0.13817 0.69043 0.78993 0.02400
C 	C 	0.11450 0.63706 0.84971 -0.13800
H 	H 	0.11447 0.61763 0.81733 0.08800
C 	C 	0.10028 0.62194 0.91290 0.10300
C 	C 	0.10239 0.65153 0.96136 -0.13900
H 	H 	0.09447 0.64203 0.00543 0.07900
C 	C 	0.11611 0.69450 0.94443 0.06100
H 	H 	0.11627 0.71403 0.97663 0.02600
C 	C 	0.08060 0.57468 0.93010 -0.07000
C 	C 	0.04211 0.55467 0.96495 -0.04000
H 	H 	0.02917 0.57153 0.97743 0.04400
H 	H 	0.17737 0.56593 0.94493 -0.03800
H 	H 	0.21537 0.58503 0.84063 0.18900
O 	O 	0.80912 0.11285 0.24140 -0.41000
O 	O 	0.82198 0.10006 0.13782 -0.40900
C 	C 	0.81019 0.08875 0.19647 0.36500
C 	C 	0.79617 0.04238 0.21449 -0.12500
C 	C 	0.79550 0.01369 0.16680 0.05900
H 	H 	0.80483 0.02377 0.12327 0.02400
C 	C 	0.78116 0.97040 0.18305 -0.13800
H 	H 	0.78113 0.95097 0.15067 0.08800
C 	C 	0.76694 0.95528 0.24624 0.10300
C 	C 	0.76905 0.98487 0.29470 -0.14000
H 	H 	0.76113 0.97537 0.33877 0.07900
C 	C 	0.78277 0.02784 0.27777 0.06100
H 	H 	0.78293 0.04737 0.30997 0.02500
C 	C 	0.74726 0.90802 0.26344 -0.07000
C 	C 	0.70877 0.88801 0.29829 -0.04000
H 	H 	0.69583 0.90487 0.31077 0.04400
H 	H 	0.84403 0.89927 0.27827 -0.03800
H 	H 	0.88203 0.91837 0.17397 0.18900
O 	O 	0.97039 0.52421 0.57473 -0.41000
O 	O 	0.94474 0.51135 0.47115 -0.40900
C 	C 	0.94522 0.52314 0.52980 0.36500
C 	C 	0.91287 0.53716 0.54782 -0.12500
C 	C 	0.88485 0.53783 0.50013 0.05800
H 	H 	0.88560 0.52850 0.45660 0.02400
C 	C 	0.85590 0.55217 0.51638 -0.13800
H 	H 	0.83650 0.55220 0.48400 0.08800
C 	C 	0.85500 0.56639 0.57957 0.10300
C 	C 	0.88248 0.56428 0.62803 -0.13900
H 	H 	0.88090 0.57220 0.67210 0.07900
C 	C 	0.91173 0.55056 0.61110 0.06100
H 	H 	0.93110 0.55040 0.64330 0.02500
C 	C 	0.82742 0.58607 0.59677 -0.07000
C 	C 	0.84590 0.62456 0.63162 -0.04000
H 	H 	0.87570 0.63750 0.64410 0.04400
H 	H 	0.72190 0.48930 0.61160 -0.03800
H 	H 	0.70300 0.45130 0.50730 0.18900
O 	O 	0.63706 0.85754 0.90806 -0.41000
O 	O 	0.61141 0.84468 0.80448 -0.40900
C 	C 	0.61189 0.85647 0.86313 0.36500
C 	C 	0.57954 0.87049 0.88115 -0.12500
C 	C 	0.55152 0.87116 0.83346 0.05800
H 	H 	0.55227 0.86183 0.78993 0.02400
C 	C 	0.52257 0.88550 0.84971 -0.13800
H 	H 	0.50317 0.88553 0.81733 0.08800
C 	C 	0.52167 0.89972 0.91290 0.10300
C 	C 	0.54915 0.89761 0.96136 -0.13900
H 	H 	0.54757 0.90553 0.00543 0.07900
C 	C 	0.57840 0.88389 0.94443 0.06100
H 	H 	0.59777 0.88373 0.97663 0.02600
C 	C 	0.49409 0.91940 0.93010 -0.07000
C 	C 	0.51257 0.95789 0.96495 -0.04000
H 	H 	0.54237 0.97083 0.97743 0.04400
H 	H 	0.38857 0.82263 0.94493 -0.03800
H 	H 	0.36967 0.78463 0.84063 0.18900
O 	O 	0.30372 0.19088 0.24140 -0.41000
O 	O 	0.27807 0.17802 0.13782 -0.40900
C 	C 	0.27855 0.18981 0.19647 0.36500
C 	C 	0.24620 0.20383 0.21449 -0.12500
C 	C 	0.21818 0.20450 0.16680 0.05800
H 	H 	0.21893 0.19517 0.12327 0.02400
C 	C 	0.18923 0.21884 0.18305 -0.13800
H 	H 	0.16983 0.21887 0.15067 0.08800
C 	C 	0.18833 0.23306 0.24624 0.10300
C 	C 	0.21581 0.23095 0.29470 -0.13900
H 	H 	0.21423 0.23887 0.33877 0.07900
C 	C 	0.24506 0.21723 0.27777 0.06100
H 	H 	0.26443 0.21707 0.30997 0.02500
C 	C 	0.16075 0.25274 0.26344 -0.07000
C 	C 	0.17923 0.29123 0.29829 -0.04000
H 	H 	0.20903 0.30417 0.31077 0.04400
H 	H 	0.05523 0.15597 0.27827 -0.03800
H 	H 	0.03633 0.11797 0.17397 0.18900
O 	O 	0.55382 0.02961 0.57473 -0.41000
O 	O 	0.56661 0.05526 0.47115 -0.40900
C 	C 	0.57792 0.05478 0.52980 0.36500
C 	C 	0.62429 0.08713 0.54782 -0.12500
C 	C 	0.65298 0.11515 0.50013 0.05800
H 	H 	0.64290 0.11440 0.45660 0.02400
C 	C 	0.69627 0.14410 0.51638 -0.13800
H 	H 	0.71570 0.16350 0.48400 0.08800
C 	C 	0.71139 0.14500 0.57957 0.10300
C 	C 	0.68180 0.11752 0.62803 -0.13900
H 	H 	0.69130 0.11910 0.67210 0.07900
C 	C 	0.63883 0.08827 0.61110 0.06100
H 	H 	0.61930 0.06890 0.64330 0.02500
C 	C 	0.75865 0.17258 0.59677 -0.07000
C 	C 	0.77866 0.15410 0.63162 -0.04000
H 	H 	0.76180 0.12430 0.64410 0.04400
H 	H 	0.76740 0.27810 0.61160 -0.03800
H 	H 	0.74830 0.29700 0.50730 0.18900
O 	O 	0.22049 0.36294 0.90806 -0.41000
O 	O 	0.23328 0.38859 0.80448 -0.40900
C 	C 	0.24459 0.38811 0.86313 0.36500
C 	C 	0.29096 0.42046 0.88115 -0.12500
C 	C 	0.31965 0.44848 0.83346 0.05800
H 	H 	0.30957 0.44773 0.78993 0.02400
C 	C 	0.36294 0.47743 0.84971 -0.13800
H 	H 	0.38237 0.49683 0.81733 0.08800
C 	C 	0.37806 0.47833 0.91290 0.10300
C 	C 	0.34847 0.45085 0.96136 -0.13900
H 	H 	0.35797 0.45243 0.00543 0.07900
C 	C 	0.30550 0.42160 0.94443 0.06100
H 	H 	0.28597 0.40223 0.97663 0.02600
C 	C 	0.42532 0.50591 0.93010 -0.07000
C 	C 	0.44533 0.48743 0.96495 -0.04000
H 	H 	0.42847 0.45763 0.97743 0.04400
H 	H 	0.43407 0.61143 0.94493 -0.03800
H 	H 	0.41497 0.63033 0.84063 0.18900
O 	O 	0.88715 0.69628 0.24140 -0.41000
O 	O 	0.89994 0.72193 0.13782 -0.40900
C 	C 	0.91125 0.72145 0.19647 0.36500
C 	C 	0.95762 0.75380 0.21449 -0.12500
C 	C 	0.98631 0.78182 0.16680 0.05800
H 	H 	0.97623 0.78107 0.12327 0.02400
C 	C 	0.02960 0.81077 0.18305 -0.13800
H 	H 	0.04903 0.83017 0.15067 0.08800
C 	C 	0.04472 0.81167 0.24624 0.10300
C 	C 	0.01513 0.78419 0.29470 -0.13900
H 	H 	0.02463 0.78577 0.33877 0.07900
C 	C 	0.97216 0.75494 0.27777 0.06100
H 	H 	0.95263 0.73557 0.30997 0.02500
C 	C 	0.09198 0.83925 0.26344 -0.07000
C 	C 	0.11199 0.82077 0.29829 -0.04000
H 	H 	0.09513 0.79097 0.31077 0.04400
H 	H 	0.10073 0.94477 0.27827 -0.03800
H 	H 	0.08163 0.96367 0.17397 0.18900
O 	O 	0.55382 0.52421 0.57473 -0.41000
O 	O 	0.56661 0.51135 0.47115 -0.40900
C 	C 	0.57792 0.52314 0.52980 0.36500
C 	C 	0.62429 0.53716 0.54782 -0.12500
C 	C 	0.65298 0.53783 0.50013 0.05800
H 	H 	0.64290 0.52850 0.45660 0.02400
C 	C 	0.69627 0.55217 0.51638 -0.13800
H 	H 	0.71570 0.55220 0.48400 0.08800
C 	C 	0.71139 0.56639 0.57957 0.10300
C 	C 	0.68180 0.56428 0.62803 -0.13900
H 	H 	0.69130 0.57220 0.67210 0.07900
C 	C 	0.63883 0.55056 0.61110 0.06100
H 	H 	0.61930 0.55040 0.64330 0.02500
C 	C 	0.75865 0.58607 0.59677 -0.07000
C 	C 	0.77866 0.62456 0.63162 -0.04000
H 	H 	0.76180 0.63750 0.64410 0.04400
H 	H 	0.76740 0.48930 0.61160 -0.03800
H 	H 	0.74830 0.45130 0.50730 0.18900
O 	O 	0.22049 0.85754 0.90806 -0.41000
O 	O 	0.23328 0.84468 0.80448 -0.40900
C 	C 	0.24459 0.85647 0.86313 0.36500
C 	C 	0.29096 0.87049 0.88115 -0.12500
C 	C 	0.31965 0.87116 0.83346 0.05800
H 	H 	0.30957 0.86183 0.78993 0.02400
C 	C 	0.36294 0.88550 0.84971 -0.13800
H 	H 	0.38237 0.88553 0.81733 0.08800
C 	C 	0.37806 0.89972 0.91290 0.10300
C 	C 	0.34847 0.89761 0.96136 -0.13900
H 	H 	0.35797 0.90553 0.00543 0.07900
C 	C 	0.30550 0.88389 0.94443 0.06100
H 	H 	0.28597 0.88373 0.97663 0.02600
C 	C 	0.42532 0.91940 0.93010 -0.07000
C 	C 	0.44533 0.95789 0.96495 -0.04000
H 	H 	0.42847 0.97083 0.97743 0.04400
H 	H 	0.43407 0.82263 0.94493 -0.03800
H 	H 	0.41497 0.78463 0.84063 0.18900
O 	O 	0.88715 0.19088 0.24140 -0.41000
O 	O 	0.89994 0.17802 0.13782 -0.40900
C 	C 	0.91125 0.18981 0.19647 0.36500
C 	C 	0.95762 0.20383 0.21449 -0.12500
C 	C 	0.98631 0.20450 0.16680 0.05900
H 	H 	0.97623 0.19517 0.12327 0.02400
C 	C 	0.02960 0.21884 0.18305 -0.13800
H 	H 	0.04903 0.21887 0.15067 0.08800
C 	C 	0.04472 0.23306 0.24624 0.10300
C 	C 	0.01513 0.23095 0.29470 -0.14000
H 	H 	0.02463 0.23887 0.33877 0.07900
C 	C 	0.97216 0.21723 0.27777 0.06100
H 	H 	0.95263 0.21707 0.30997 0.02500
C 	C 	0.09198 0.25274 0.26344 -0.07000
C 	C 	0.11199 0.29123 0.29829 -0.04000
H 	H 	0.09513 0.30417 0.31077 0.04400
H 	H 	0.10073 0.15597 0.27827 -0.03800
H 	H 	0.08163 0.11797 0.17397 0.18900
O 	O 	0.47579 0.02961 0.57473 -0.41000
O 	O 	0.48865 0.05526 0.47115 -0.40900
C 	C 	0.47686 0.05478 0.52980 0.36500
C 	C 	0.46284 0.08713 0.54782 -0.12500
C 	C 	0.46217 0.11515 0.50013 0.05800
H 	H 	0.47150 0.11440 0.45660 0.02400
C 	C 	0.44783 0.14410 0.51638 -0.13800
H 	H 	0.44780 0.16350 0.48400 0.08800
C 	C 	0.43361 0.14500 0.57957 0.10300
C 	C 	0.43572 0.11752 0.62803 -0.13900
H 	H 	0.42780 0.11910 0.67210 0.07900
C 	C 	0.44944 0.08827 0.61110 0.06100
H 	H 	0.44960 0.06890 0.64330 0.02500
C 	C 	0.41393 0.17258 0.59677 -0.07000
C 	C 	0.37544 0.15410 0.63162 -0.04000
H 	H 	0.36250 0.12430 0.64410 0.04400
H 	H 	0.51070 0.27810 0.61160 -0.03800
H 	H 	0.54870 0.29700 0.50730 0.18900
O 	O 	0.14246 0.36294 0.90806 -0.41000
O 	O 	0.15532 0.38859 0.80448 -0.40900
C 	C 	0.14353 0.38811 0.86313 0.36500
C 	C 	0.12951 0.42046 0.88115 -0.12500
C 	C 	0.12884 0.44848 0.83346 0.05800
H 	H 	0.13817 0.44773 0.78993 0.02400
C 	C 	0.11450 0.47743 0.84971 -0.13800
H 	H 	0.11447 0.49683 0.81733 0.08800
C 	C 	0.10028 0.47833 0.91290 0.10300
C 	C 	0.10239 0.45085 0.96136 -0.13900
H 	H 	0.09447 0.45243 0.00543 0.07900
C 	C 	0.11611 0.42160 0.94443 0.06100
H 	H 	0.11627 0.40223 0.97663 0.02600
C 	C 	0.08060 0.50591 0.93010 -0.07000
C 	C 	0.04211 0.48743 0.96495 -0.04000
H 	H 	0.02917 0.45763 0.97743 0.04400
H 	H 	0.17737 0.61143 0.94493 -0.03800
H 	H 	0.21537 0.63033 0.84063 0.18900
O 	O 	0.80912 0.69628 0.24140 -0.41000
O 	O 	0.82198 0.72193 0.13782 -0.40900
C 	C 	0.81019 0.72145 0.19647 0.36500
C 	C 	0.79617 0.75380 0.21449 -0.12500
C 	C 	0.79550 0.78182 0.16680 0.05800
H 	H 	0.80483 0.78107 0.12327 0.02400
C 	C 	0.78116 0.81077 0.18305 -0.13800
H 	H 	0.78113 0.83017 0.15067 0.08800
C 	C 	0.76694 0.81167 0.24624 0.10300
C 	C 	0.76905 0.78419 0.29470 -0.13900
H 	H 	0.76113 0.78577 0.33877 0.07900
C 	C 	0.78277 0.75494 0.27777 0.06100
H 	H 	0.78293 0.73557 0.30997 0.02500
C 	C 	0.74726 0.83925 0.26344 -0.07000
C 	C 	0.70877 0.82077 0.29829 -0.04000
H 	H 	0.69583 0.79097 0.31077 0.04400
H 	H 	0.84403 0.94477 0.27827 -0.03800
H 	H 	0.88203 0.96367 0.17397 0.18900
O 	O 	0.97039 0.44618 0.57473 -0.41000
O 	O 	0.94474 0.43339 0.47115 -0.40900
C 	C 	0.94522 0.42208 0.52980 0.36500
C 	C 	0.91287 0.37571 0.54782 -0.12500
C 	C 	0.88485 0.34702 0.50013 0.05800
H 	H 	0.88560 0.35710 0.45660 0.02400
C 	C 	0.85590 0.30373 0.51638 -0.13800
H 	H 	0.83650 0.28430 0.48400 0.08800
C 	C 	0.85500 0.28861 0.57957 0.10300
C 	C 	0.88248 0.31820 0.62803 -0.13900
H 	H 	0.88090 0.30870 0.67210 0.07900
C 	C 	0.91173 0.36117 0.61110 0.06100
H 	H 	0.93110 0.38070 0.64330 0.02500
C 	C 	0.82742 0.24135 0.59677 -0.07000
C 	C 	0.84590 0.22134 0.63162 -0.04000
H 	H 	0.87570 0.23820 0.64410 0.04400
H 	H 	0.72190 0.23260 0.61160 -0.03800
H 	H 	0.70300 0.25170 0.50730 0.18900
O 	O 	0.63706 0.77951 0.90806 -0.41000
O 	O 	0.61141 0.76672 0.80448 -0.40900
C 	C 	0.61189 0.75541 0.86313 0.36500
C 	C 	0.57954 0.70904 0.88115 -0.12500
C 	C 	0.55152 0.68035 0.83346 0.05800
H 	H 	0.55227 0.69043 0.78993 0.02400
C 	C 	0.52257 0.63706 0.84971 -0.13800
H 	H 	0.50317 0.61763 0.81733 0.08800
C 	C 	0.52167 0.62194 0.91290 0.10300
C 	C 	0.54915 0.65153 0.96136 -0.13900
H 	H 	0.54757 0.64203 0.00543 0.07900
C 	C 	0.57840 0.69450 0.94443 0.06100
H 	H 	0.59777 0.71403 0.97663 0.02600
C 	C 	0.49409 0.57468 0.93010 -0.07000
C 	C 	0.51257 0.55467 0.96495 -0.04000
H 	H 	0.54237 0.57153 0.97743 0.04400
H 	H 	0.38857 0.56593 0.94493 -0.03800
H 	H 	0.36967 0.58503 0.84063 0.18900
O 	O 	0.30372 0.11285 0.24140 -0.41000
O 	O 	0.27807 0.10006 0.13782 -0.40900
C 	C 	0.27855 0.08875 0.19647 0.36500
C 	C 	0.24620 0.04238 0.21449 -0.12500
C 	C 	0.21818 0.01369 0.16680 0.05800
H 	H 	0.21893 0.02377 0.12327 0.02400
C 	C 	0.18923 0.97040 0.18305 -0.13800
H 	H 	0.16983 0.95097 0.15067 0.08800
C 	C 	0.18833 0.95528 0.24624 0.10300
C 	C 	0.21581 0.98487 0.29470 -0.13900
H 	H 	0.21423 0.97537 0.33877 0.07900
C 	C 	0.24506 0.02784 0.27777 0.06100
H 	H 	0.26443 0.04737 0.30997 0.02500
C 	C 	0.16075 0.90802 0.26344 -0.07000
C 	C 	0.17923 0.88801 0.29829 -0.04000
H 	H 	0.20903 0.90487 0.31077 0.04400
H 	H 	0.05523 0.89927 0.27827 -0.03800
H 	H 	0.03633 0.91837 0.17397 0.18900
O 	O 	0.52421 0.55382 0.42527 -0.41000
O 	O 	0.51135 0.56661 0.52885 -0.40900
C 	C 	0.52314 0.57792 0.47020 0.36500
C 	C 	0.53716 0.62429 0.45218 -0.12500
C 	C 	0.53783 0.65298 0.49987 0.05800
H 	H 	0.52850 0.64290 0.54340 0.02400
C 	C 	0.55217 0.69627 0.48362 -0.13800
H 	H 	0.55220 0.71570 0.51600 0.08800
C 	C 	0.56639 0.71139 0.42043 0.10300
C 	C 	0.56428 0.68180 0.37197 -0.13900
H 	H 	0.57220 0.69130 0.32790 0.07900
C 	C 	0.55056 0.63883 0.38890 0.06100
H 	H 	0.55040 0.61930 0.35670 0.02500
C 	C 	0.58607 0.75865 0.40323 -0.07000
C 	C 	0.62456 0.77866 0.36838 -0.04000
H 	H 	0.63750 0.76180 0.35590 0.04400
H 	H 	0.48930 0.76740 0.38840 -0.03800
H 	H 	0.45130 0.74830 0.49270 0.18900
O 	O 	0.19088 0.88715 0.75860 -0.41000
O 	O 	0.17802 0.89994 0.86218 -0.40900
C 	C 	0.18981 0.91125 0.80353 0.36500
C 	C 	0.20383 0.95762 0.78551 -0.12500
C 	C 	0.20450 0.98631 0.83320 0.05900
H 	H 	0.19517 0.97623 0.87673 0.02400
C 	C 	0.21884 0.02960 0.81695 -0.13800
H 	H 	0.21887 0.04903 0.84933 0.08800
C 	C 	0.23306 0.04472 0.75376 0.10300
C 	C 	0.23095 0.01513 0.70530 -0.14000
H 	H 	0.23887 0.02463 0.66123 0.07900
C 	C 	0.21723 0.97216 0.72223 0.06100
H 	H 	0.21707 0.95263 0.69003 0.02500
C 	C 	0.25274 0.09198 0.73656 -0.07000
C 	C 	0.29123 0.11199 0.70171 -0.04000
H 	H 	0.30417 0.09513 0.68923 0.04400
H 	H 	0.15597 0.10073 0.72173 -0.03800
H 	H 	0.11797 0.08163 0.82603 0.18900
O 	O 	0.85754 0.22049 0.09194 -0.41000
O 	O 	0.84468 0.23328 0.19552 -0.40900
C 	C 	0.85647 0.24459 0.13687 0.36500
C 	C 	0.87049 0.29096 0.11885 -0.12500
C 	C 	0.87116 0.31965 0.16654 0.05800
H 	H 	0.86183 0.30957 0.21007 0.02400
C 	C 	0.88550 0.36294 0.15029 -0.13800
H 	H 	0.88553 0.38237 0.18267 0.08800
C 	C 	0.89972 0.37806 0.08710 0.10300
C 	C 	0.89761 0.34847 0.03864 -0.13900
H 	H 	0.90553 0.35797 0.99457 0.07900
C 	C 	0.88389 0.30550 0.05557 0.06100
H 	H 	0.88373 0.28597 0.02337 0.02600
C 	C 	0.91940 0.42532 0.06990 -0.07000
C 	C 	0.95789 0.44533 0.03505 -0.04000
H 	H 	0.97083 0.42847 0.02257 0.04400
H 	H 	0.82263 0.43407 0.05507 -0.03800
H 	H 	0.78463 0.41497 0.15937 0.18900
O 	O 	0.02961 0.47579 0.42527 -0.41000
O 	O 	0.05526 0.48865 0.52885 -0.40900
C 	C 	0.05478 0.47686 0.47020 0.36500
C 	C 	0.08713 0.46284 0.45218 -0.12500
C 	C 	0.11515 0.46217 0.49987 0.05800
H 	H 	0.11440 0.47150 0.54340 0.02400
C 	C 	0.14410 0.44783 0.48362 -0.13800
H 	H 	0.16350 0.44780 0.51600 0.08800
C 	C 	0.14500 0.43361 0.42043 0.10300
C 	C 	0.11752 0.43572 0.37197 -0.13900
H 	H 	0.11910 0.42780 0.32790 0.07900
C 	C 	0.08827 0.44944 0.38890 0.06100
H 	H 	0.06890 0.44960 0.35670 0.02500
C 	C 	0.17258 0.41393 0.40323 -0.07000
C 	C 	0.15410 0.37544 0.36838 -0.04000
H 	H 	0.12430 0.36250 0.35590 0.04400
H 	H 	0.27810 0.51070 0.38840 -0.03800
H 	H 	0.29700 0.54870 0.49270 0.18900
O 	O 	0.69628 0.80912 0.75860 -0.41000
O 	O 	0.72193 0.82198 0.86218 -0.40900
C 	C 	0.72145 0.81019 0.80353 0.36500
C 	C 	0.75380 0.79617 0.78551 -0.12500
C 	C 	0.78182 0.79550 0.83320 0.05800
H 	H 	0.78107 0.80483 0.87673 0.02400
C 	C 	0.81077 0.78116 0.81695 -0.13800
H 	H 	0.83017 0.78113 0.84933 0.08800
C 	C 	0.81167 0.76694 0.75376 0.10300
C 	C 	0.78419 0.76905 0.70530 -0.13900
H 	H 	0.78577 0.76113 0.66123 0.07900
C 	C 	0.75494 0.78277 0.72223 0.06100
H 	H 	0.73557 0.78293 0.69003 0.02500
C 	C 	0.83925 0.74726 0.73656 -0.07000
C 	C 	0.82077 0.70877 0.70171 -0.04000
H 	H 	0.79097 0.69583 0.68923 0.04400
H 	H 	0.94477 0.84403 0.72173 -0.03800
H 	H 	0.96367 0.88203 0.82603 0.18900
O 	O 	0.36294 0.14246 0.09194 -0.41000
O 	O 	0.38859 0.15532 0.19552 -0.40900
C 	C 	0.38811 0.14353 0.13687 0.36500
C 	C 	0.42046 0.12951 0.11885 -0.12500
C 	C 	0.44848 0.12884 0.16654 0.05800
H 	H 	0.44773 0.13817 0.21007 0.02400
C 	C 	0.47743 0.11450 0.15029 -0.13800
H 	H 	0.49683 0.11447 0.18267 0.08800
C 	C 	0.47833 0.10028 0.08710 0.10300
C 	C 	0.45085 0.10239 0.03864 -0.13900
H 	H 	0.45243 0.09447 0.99457 0.07900
C 	C 	0.42160 0.11611 0.05557 0.06100
H 	H 	0.40223 0.11627 0.02337 0.02600
C 	C 	0.50591 0.08060 0.06990 -0.07000
C 	C 	0.48743 0.04211 0.03505 -0.04000
H 	H 	0.45763 0.02917 0.02257 0.04400
H 	H 	0.61143 0.17737 0.05507 -0.03800
H 	H 	0.63033 0.21537 0.15937 0.18900
O 	O 	0.44618 0.97039 0.42527 -0.41000
O 	O 	0.43339 0.94474 0.52885 -0.40900
C 	C 	0.42208 0.94522 0.47020 0.36500
C 	C 	0.37571 0.91287 0.45218 -0.12500
C 	C 	0.34702 0.88485 0.49987 0.05800
H 	H 	0.35710 0.88560 0.54340 0.02400
C 	C 	0.30373 0.85590 0.48362 -0.13800
H 	H 	0.28430 0.83650 0.51600 0.08800
C 	C 	0.28861 0.85500 0.42043 0.10300
C 	C 	0.31820 0.88248 0.37197 -0.13900
H 	H 	0.30870 0.88090 0.32790 0.07900
C 	C 	0.36117 0.91173 0.38890 0.06100
H 	H 	0.38070 0.93110 0.35670 0.02500
C 	C 	0.24135 0.82742 0.40323 -0.07000
C 	C 	0.22134 0.84590 0.36838 -0.04000
H 	H 	0.23820 0.87570 0.35590 0.04400
H 	H 	0.23260 0.72190 0.38840 -0.03800
H 	H 	0.25170 0.70300 0.49270 0.18900
O 	O 	0.11285 0.30372 0.75860 -0.41000
O 	O 	0.10006 0.27807 0.86218 -0.40900
C 	C 	0.08875 0.27855 0.80353 0.36500
C 	C 	0.04238 0.24620 0.78551 -0.12500
C 	C 	0.01369 0.21818 0.83320 0.05800
H 	H 	0.02377 0.21893 0.87673 0.02400
C 	C 	0.97040 0.18923 0.81695 -0.13800
H 	H 	0.95097 0.16983 0.84933 0.08800
C 	C 	0.95528 0.18833 0.75376 0.10300
C 	C 	0.98487 0.21581 0.70530 -0.13900
H 	H 	0.97537 0.21423 0.66123 0.07900
C 	C 	0.02784 0.24506 0.72223 0.06100
H 	H 	0.04737 0.26443 0.69003 0.02500
C 	C 	0.90802 0.16075 0.73656 -0.07000
C 	C 	0.88801 0.17923 0.70171 -0.04000
H 	H 	0.90487 0.20903 0.68923 0.04400
H 	H 	0.89927 0.05523 0.72173 -0.03800
H 	H 	0.91837 0.03633 0.82603 0.18900
O 	O 	0.77951 0.63706 0.09194 -0.41000
O 	O 	0.76672 0.61141 0.19552 -0.40900
C 	C 	0.75541 0.61189 0.13687 0.36500
C 	C 	0.70904 0.57954 0.11885 -0.12500
C 	C 	0.68035 0.55152 0.16654 0.05800
H 	H 	0.69043 0.55227 0.21007 0.02400
C 	C 	0.63706 0.52257 0.15029 -0.13800
H 	H 	0.61763 0.50317 0.18267 0.08800
C 	C 	0.62194 0.52167 0.08710 0.10300
C 	C 	0.65153 0.54915 0.03864 -0.13900
H 	H 	0.64203 0.54757 0.99457 0.07900
C 	C 	0.69450 0.57840 0.05557 0.06100
H 	H 	0.71403 0.59777 0.02337 0.02600
C 	C 	0.57468 0.49409 0.06990 -0.07000
C 	C 	0.55467 0.51257 0.03505 -0.04000
H 	H 	0.57153 0.54237 0.02257 0.04400
H 	H 	0.56593 0.38857 0.05507 -0.03800
H 	H 	0.58503 0.36967 0.15937 0.18900
Cu	Cu	0.50745 0.49255 0.43921 0.90400
Cu	Cu	0.17412 0.82588 0.77254 0.90400
Cu	Cu	0.84078 0.15922 0.10588 0.90400
Cu	Cu	0.50745 0.01490 0.43921 0.90400
Cu	Cu	0.17412 0.34823 0.77254 0.90400
Cu	Cu	0.84078 0.68157 0.10588 0.90400
Cu	Cu	0.98510 0.49255 0.43921 0.90400
Cu	Cu	0.65177 0.82588 0.77254 0.90400
Cu	Cu	0.31843 0.15922 0.10588 0.90400
Cu	Cu	0.49255 0.50745 0.56079 0.90400
Cu	Cu	0.15922 0.84078 0.89412 0.90400
Cu	Cu	0.82588 0.17412 0.22746 0.90400
Cu	Cu	0.01490 0.50745 0.56079 0.90400
Cu	Cu	0.68157 0.84078 0.89412 0.90400
Cu	Cu	0.34823 0.17412 0.22746 0.90400
Cu	Cu	0.49255 0.98510 0.56079 0.90400
Cu	Cu	0.15922 0.31843 0.89412 0.90400
Cu	Cu	0.82588 0.65177 0.22746 0.90400
O 	O 	0.23620 0.47240 0.45613 -0.26700
C 	C 	0.17726 0.35453 0.35040 0.00500
C 	C 	0.21684 0.43369 0.42154 0.14700
C 	C 	0.25504 0.51008 0.41670 0.25000
C 	C 	0.27490 0.54980 0.46500 -0.54800
H 	H 	0.28860 0.57720 0.43970 0.17500
O 	O 	0.90287 0.80573 0.78946 -0.26700
C 	C 	0.84393 0.68786 0.68373 0.00500
C 	C 	0.88351 0.76702 0.75487 0.14700
C 	C 	0.92171 0.84341 0.75003 0.25000
C 	C 	0.94157 0.88313 0.79833 -0.54800
H 	H 	0.95527 0.91053 0.77303 0.17500
O 	O 	0.56953 0.13907 0.12280 -0.26700
C 	C 	0.51060 0.02120 0.01707 0.00500
C 	C 	0.55018 0.10036 0.08821 0.14700
C 	C 	0.58837 0.17675 0.08337 0.25000
C 	C 	0.60823 0.21647 0.13167 -0.54800
H 	H 	0.62193 0.24387 0.10637 0.17500
O 	O 	0.52760 0.76380 0.45613 -0.26700
C 	C 	0.64547 0.82274 0.35040 0.00500
C 	C 	0.56631 0.78316 0.42154 0.14700
C 	C 	0.48992 0.74496 0.41670 0.25000
C 	C 	0.45020 0.72510 0.46500 -0.54800
H 	H 	0.42280 0.71140 0.43970 0.17500
O 	O 	0.19427 0.09713 0.78946 -0.26700
C 	C 	0.31214 0.15607 0.68373 0.00500
C 	C 	0.23298 0.11649 0.75487 0.14700
C 	C 	0.15659 0.07829 0.75003 0.25000
C 	C 	0.11687 0.05843 0.79833 -0.54800
H 	H 	0.08947 0.04473 0.77303 0.17500
O 	O 	0.86093 0.43047 0.12280 -0.26700
C 	C 	0.97880 0.48940 0.01707 0.00500
C 	C 	0.89964 0.44982 0.08821 0.14700
C 	C 	0.82325 0.41163 0.08337 0.25000
C 	C 	0.78353 0.39177 0.13167 -0.54800
H 	H 	0.75613 0.37807 0.10637 0.17500
O 	O 	0.23620 0.76380 0.45613 -0.26700
C 	C 	0.17726 0.82274 0.35040 0.00500
C 	C 	0.21684 0.78316 0.42154 0.14700
C 	C 	0.25504 0.74496 0.41670 0.25000
C 	C 	0.27490 0.72510 0.46500 -0.54800
H 	H 	0.28860 0.71140 0.43970 0.17500
O 	O 	0.90287 0.09713 0.78946 -0.26700
C 	C 	0.84393 0.15607 0.68373 0.00500
C 	C 	0.88351 0.11649 0.75487 0.14700
C 	C 	0.92171 0.07829 0.75003 0.25000
C 	C 	0.94157 0.05843 0.79833 -0.54800
H 	H 	0.95527 0.04473 0.77303 0.17500
O 	O 	0.56953 0.43047 0.12280 -0.26700
C 	C 	0.51060 0.48940 0.01707 0.00500
C 	C 	0.55018 0.44982 0.08821 0.14700
C 	C 	0.58837 0.41163 0.08337 0.25000
C 	C 	0.60823 0.39177 0.13167 -0.54800
H 	H 	0.62193 0.37807 0.10637 0.17500
O 	O 	0.47240 0.23620 0.54387 -0.26700
C 	C 	0.35453 0.17726 0.64960 0.00500
C 	C 	0.43369 0.21684 0.57846 0.14700
C 	C 	0.51008 0.25504 0.58330 0.25000
C 	C 	0.54980 0.27490 0.53500 -0.54800
H 	H 	0.57720 0.28860 0.56030 0.17500
O 	O 	0.13907 0.56953 0.87720 -0.26700
C 	C 	0.02120 0.51060 0.98293 0.00500
C 	C 	0.10036 0.55018 0.91179 0.14700
C 	C 	0.17675 0.58837 0.91663 0.25000
C 	C 	0.21647 0.60823 0.86833 -0.54800
H 	H 	0.24387 0.62193 0.89363 0.17500
O 	O 	0.80573 0.90287 0.21054 -0.26700
C 	C 	0.68786 0.84393 0.31627 0.00500
C 	C 	0.76702 0.88351 0.24513 0.14700
C 	C 	0.84341 0.92171 0.24997 0.25000
C 	C 	0.88313 0.94157 0.20167 -0.54800
H 	H 	0.91053 0.95527 0.22697 0.17500
O 	O 	0.76380 0.52760 0.54387 -0.26700
C 	C 	0.82274 0.64547 0.64960 0.00500
C 	C 	0.78316 0.56631 0.57846 0.14700
C 	C 	0.74496 0.48992 0.58330 0.25000
C 	C 	0.72510 0.45020 0.53500 -0.54800
H 	H 	0.71140 0.42280 0.56030 0.17500
O 	O 	0.43047 0.86093 0.87720 -0.26700
C 	C 	0.48940 0.97880 0.98293 0.00500
C 	C 	0.44982 0.89964 0.91179 0.14700
C 	C 	0.41163 0.82325 0.91663 0.25000
C 	C 	0.39177 0.78353 0.86833 -0.54800
H 	H 	0.37807 0.75613 0.89363 0.17500
O 	O 	0.09713 0.19427 0.21054 -0.26700
C 	C 	0.15607 0.31214 0.31627 0.00500
C 	C 	0.11649 0.23298 0.24513 0.14700
C 	C 	0.07829 0.15659 0.24997 0.25000
C 	C 	0.05843 0.11687 0.20167 -0.54800
H 	H 	0.04473 0.08947 0.22697 0.17500
O 	O 	0.76380 0.23620 0.54387 -0.26700
C 	C 	0.82274 0.17726 0.64960 0.00500
C 	C 	0.78316 0.21684 0.57846 0.14700
C 	C 	0.74496 0.25504 0.58330 0.25000
C 	C 	0.72510 0.27490 0.53500 -0.54800
H 	H 	0.71140 0.28860 0.56030 0.17500
O 	O 	0.43047 0.56953 0.87720 -0.26700
C 	C 	0.48940 0.51060 0.98293 0.00500
C 	C 	0.44982 0.55018 0.91179 0.14700
C 	C 	0.41163 0.58837 0.91663 0.25000
C 	C 	0.39177 0.60823 0.86833 -0.54800
H 	H 	0.37807 0.62193 0.89363 0.17500
O 	O 	0.09713 0.90287 0.21054 -0.26700
C 	C 	0.15607 0.84393 0.31627 0.00500
C 	C 	0.11649 0.88351 0.24513 0.14700
C 	C 	0.07829 0.92171 0.24997 0.25000
C 	C 	0.05843 0.94157 0.20167 -0.54800
H 	H 	0.04473 0.95527 0.22697 0.17500
