data_crystal

_cell_length_a 35.18520
_cell_length_b 35.18520
_cell_length_c 21.65170
_cell_angle_alpha 90.00000
_cell_angle_beta  90.00000
_cell_angle_gamma 120.00000

_symmetry_space_group_name_	'P 1'
_symmetry_space_group_name_H-M	'P 1'

loop_
_symmetry_equiv_pos_as_xyz
  x,y,z

loop_
_atom_site_label
_atom_site_type_symbol
_atom_site_fract_x
_atom_site_fract_y
_atom_site_fract_z
_atom_site_charge
O 	O 	0.36245 0.22038 0.09608 -0.40800
O 	O 	0.38888 0.23375 0.19320 -0.41000
C 	C 	0.38772 0.24486 0.13854 0.36700
C 	C 	0.41943 0.29156 0.12069 -0.13000
C 	C 	0.44704 0.32143 0.16530 0.06700
H 	H 	0.44620 0.31220 0.20630 0.02100
C 	C 	0.47557 0.36455 0.14914 -0.15000
H 	H 	0.49440 0.38420 0.17920 0.09300
C 	C 	0.47680 0.37925 0.08933 0.11400
C 	C 	0.44984 0.34894 0.04483 -0.15100
H 	H 	0.45120 0.35790 0.00360 0.08500
C 	C 	0.42112 0.30582 0.06132 0.07200
H 	H 	0.40250 0.28600 0.03130 0.02300
C 	C 	0.50477 0.42611 0.07182 -0.07200
C 	C 	0.48677 0.44581 0.03675 -0.03900
H 	H 	0.45720 0.42890 0.02470 0.04500
H 	H 	0.61150 0.43400 0.06160 -0.04100
H 	H 	0.62590 0.41910 0.16520 0.21200
O 	O 	0.02912 0.55371 0.42941 -0.40800
O 	O 	0.05555 0.56708 0.52653 -0.41000
C 	C 	0.05439 0.57819 0.47187 0.36700
C 	C 	0.08610 0.62489 0.45402 -0.13000
C 	C 	0.11371 0.65476 0.49863 0.06700
H 	H 	0.11287 0.64553 0.53963 0.02100
C 	C 	0.14224 0.69788 0.48247 -0.15000
H 	H 	0.16107 0.71753 0.51253 0.09300
C 	C 	0.14347 0.71258 0.42266 0.11400
C 	C 	0.11651 0.68227 0.37816 -0.15100
H 	H 	0.11787 0.69123 0.33693 0.08500
C 	C 	0.08779 0.63915 0.39465 0.07200
H 	H 	0.06917 0.61933 0.36463 0.02300
C 	C 	0.17144 0.75944 0.40515 -0.07200
C 	C 	0.15344 0.77914 0.37008 -0.03900
H 	H 	0.12387 0.76223 0.35803 0.04500
H 	H 	0.27817 0.76733 0.39493 -0.04100
H 	H 	0.29257 0.75243 0.49853 0.21200
O 	O 	0.69578 0.88705 0.76275 -0.40800
O 	O 	0.72221 0.90042 0.85987 -0.41000
C 	C 	0.72105 0.91153 0.80521 0.36700
C 	C 	0.75276 0.95823 0.78736 -0.12900
C 	C 	0.78037 0.98810 0.83197 0.06700
H 	H 	0.77953 0.97887 0.87297 0.02100
C 	C 	0.80890 0.03122 0.81581 -0.14900
H 	H 	0.82773 0.05087 0.84587 0.09300
C 	C 	0.81013 0.04592 0.75600 0.11400
C 	C 	0.78317 0.01561 0.71150 -0.15100
H 	H 	0.78453 0.02457 0.67027 0.08500
C 	C 	0.75445 0.97249 0.72799 0.07100
H 	H 	0.73583 0.95267 0.69797 0.02300
C 	C 	0.83810 0.09278 0.73849 -0.07200
C 	C 	0.82010 0.11248 0.70342 -0.03900
H 	H 	0.79053 0.09557 0.69137 0.04500
H 	H 	0.94483 0.10067 0.72827 -0.04100
H 	H 	0.95923 0.08577 0.83187 0.21300
O 	O 	0.77962 0.14207 0.09608 -0.40800
O 	O 	0.76625 0.15513 0.19320 -0.41000
C 	C 	0.75514 0.14286 0.13854 0.36700
C 	C 	0.70844 0.12787 0.12069 -0.13000
C 	C 	0.67857 0.12561 0.16530 0.06700
H 	H 	0.68780 0.13400 0.20630 0.02100
C 	C 	0.63545 0.11102 0.14914 -0.15000
H 	H 	0.61580 0.11020 0.17920 0.09300
C 	C 	0.62075 0.09755 0.08933 0.11400
C 	C 	0.65106 0.10090 0.04483 -0.15100
H 	H 	0.64210 0.09330 0.00360 0.08400
C 	C 	0.69418 0.11530 0.06132 0.07100
H 	H 	0.71400 0.11650 0.03130 0.02200
C 	C 	0.57389 0.07866 0.07182 -0.07300
C 	C 	0.55419 0.04096 0.03675 -0.04000
H 	H 	0.57110 0.02830 0.02470 0.04400
H 	H 	0.56600 0.17750 0.06160 -0.04200
H 	H 	0.58090 0.20680 0.16520 0.21100
O 	O 	0.44629 0.47540 0.42941 -0.40900
O 	O 	0.43292 0.48846 0.52653 -0.41100
C 	C 	0.42181 0.47619 0.47187 0.36600
C 	C 	0.37511 0.46120 0.45402 -0.13100
C 	C 	0.34524 0.45894 0.49863 0.06600
H 	H 	0.35447 0.46733 0.53963 0.02000
C 	C 	0.30212 0.44435 0.48247 -0.15100
H 	H 	0.28247 0.44353 0.51253 0.09200
C 	C 	0.28742 0.43088 0.42266 0.11300
C 	C 	0.31773 0.43423 0.37816 -0.15200
H 	H 	0.30877 0.42663 0.33693 0.08400
C 	C 	0.36085 0.44863 0.39465 0.07100
H 	H 	0.38067 0.44983 0.36463 0.02200
C 	C 	0.24056 0.41199 0.40515 -0.07300
C 	C 	0.22086 0.37429 0.37008 -0.04000
H 	H 	0.23777 0.36163 0.35803 0.04400
H 	H 	0.23267 0.51083 0.39493 -0.04200
H 	H 	0.24757 0.54013 0.49853 0.21100
O 	O 	0.11295 0.80874 0.76275 -0.40900
O 	O 	0.09958 0.82180 0.85987 -0.41100
C 	C 	0.08847 0.80953 0.80521 0.36600
C 	C 	0.04177 0.79454 0.78736 -0.13100
C 	C 	0.01190 0.79228 0.83197 0.06600
H 	H 	0.02113 0.80067 0.87297 0.02000
C 	C 	0.96878 0.77769 0.81581 -0.15100
H 	H 	0.94913 0.77687 0.84587 0.09200
C 	C 	0.95408 0.76422 0.75600 0.11300
C 	C 	0.98439 0.76757 0.71150 -0.15200
H 	H 	0.97543 0.75997 0.67027 0.08400
C 	C 	0.02751 0.78197 0.72799 0.07000
H 	H 	0.04733 0.78317 0.69797 0.02200
C 	C 	0.90722 0.74533 0.73849 -0.07300
C 	C 	0.88752 0.70763 0.70342 -0.04000
H 	H 	0.90443 0.69497 0.69137 0.04400
H 	H 	0.89933 0.84417 0.72827 -0.04200
H 	H 	0.91423 0.87347 0.83187 0.21100
O 	O 	0.85793 0.63755 0.09608 -0.40900
O 	O 	0.84487 0.61112 0.19320 -0.41100
C 	C 	0.85714 0.61228 0.13854 0.36600
C 	C 	0.87213 0.58057 0.12069 -0.13100
C 	C 	0.87439 0.55296 0.16530 0.06600
H 	H 	0.86600 0.55380 0.20630 0.02000
C 	C 	0.88898 0.52443 0.14914 -0.15100
H 	H 	0.88980 0.50560 0.17920 0.09200
C 	C 	0.90245 0.52320 0.08933 0.11300
C 	C 	0.89910 0.55016 0.04483 -0.15200
H 	H 	0.90670 0.54880 0.00360 0.08400
C 	C 	0.88470 0.57888 0.06132 0.07100
H 	H 	0.88350 0.59750 0.03130 0.02200
C 	C 	0.92134 0.49523 0.07182 -0.07300
C 	C 	0.95904 0.51323 0.03675 -0.04000
H 	H 	0.97170 0.54280 0.02470 0.04400
H 	H 	0.82250 0.38850 0.06160 -0.04200
H 	H 	0.79320 0.37410 0.16520 0.21100
O 	O 	0.52460 0.97088 0.42941 -0.40800
O 	O 	0.51154 0.94445 0.52653 -0.41100
C 	C 	0.52381 0.94561 0.47187 0.36600
C 	C 	0.53880 0.91390 0.45402 -0.13100
C 	C 	0.54106 0.88629 0.49863 0.06600
H 	H 	0.53267 0.88713 0.53963 0.02000
C 	C 	0.55565 0.85776 0.48247 -0.15100
H 	H 	0.55647 0.83893 0.51253 0.09200
C 	C 	0.56912 0.85653 0.42266 0.11300
C 	C 	0.56577 0.88349 0.37816 -0.15200
H 	H 	0.57337 0.88213 0.33693 0.08400
C 	C 	0.55137 0.91221 0.39465 0.07100
H 	H 	0.55017 0.93083 0.36463 0.02200
C 	C 	0.58801 0.82856 0.40515 -0.07300
C 	C 	0.62571 0.84656 0.37008 -0.04000
H 	H 	0.63837 0.87613 0.35803 0.04400
H 	H 	0.48917 0.72183 0.39493 -0.04200
H 	H 	0.45987 0.70743 0.49853 0.21100
O 	O 	0.19126 0.30422 0.76275 -0.40900
O 	O 	0.17820 0.27779 0.85987 -0.41100
C 	C 	0.19047 0.27895 0.80521 0.36600
C 	C 	0.20546 0.24724 0.78736 -0.13100
C 	C 	0.20772 0.21963 0.83197 0.06600
H 	H 	0.19933 0.22047 0.87297 0.02000
C 	C 	0.22231 0.19110 0.81581 -0.15100
H 	H 	0.22313 0.17227 0.84587 0.09200
C 	C 	0.23578 0.18987 0.75600 0.11300
C 	C 	0.23243 0.21683 0.71150 -0.15200
H 	H 	0.24003 0.21547 0.67027 0.08400
C 	C 	0.21803 0.24555 0.72799 0.07100
H 	H 	0.21683 0.26417 0.69797 0.02200
C 	C 	0.25467 0.16190 0.73849 -0.07300
C 	C 	0.29237 0.17990 0.70342 -0.04000
H 	H 	0.30503 0.20947 0.69137 0.04400
H 	H 	0.15583 0.05517 0.72827 -0.04200
H 	H 	0.12653 0.04077 0.83187 0.21100
O 	O 	0.22038 0.36245 0.90392 -0.40900
O 	O 	0.23375 0.38888 0.80680 -0.41100
C 	C 	0.24486 0.38772 0.86146 0.36600
C 	C 	0.29156 0.41943 0.87931 -0.13100
C 	C 	0.32143 0.44704 0.83470 0.06600
H 	H 	0.31220 0.44620 0.79370 0.02000
C 	C 	0.36455 0.47557 0.85086 -0.15100
H 	H 	0.38420 0.49440 0.82080 0.09200
C 	C 	0.37925 0.47680 0.91067 0.11300
C 	C 	0.34894 0.44984 0.95517 -0.15200
H 	H 	0.35790 0.45120 0.99640 0.08400
C 	C 	0.30582 0.42112 0.93868 0.07100
H 	H 	0.28600 0.40250 0.96870 0.02200
C 	C 	0.42611 0.50477 0.92818 -0.07300
C 	C 	0.44581 0.48677 0.96325 -0.04000
H 	H 	0.42890 0.45720 0.97530 0.04400
H 	H 	0.43400 0.61150 0.93840 -0.04200
H 	H 	0.41910 0.62590 0.83480 0.21100
O 	O 	0.88705 0.69578 0.23725 -0.40900
O 	O 	0.90042 0.72221 0.14013 -0.41100
C 	C 	0.91153 0.72105 0.19479 0.36600
C 	C 	0.95823 0.75276 0.21264 -0.13000
C 	C 	0.98810 0.78037 0.16803 0.06600
H 	H 	0.97887 0.77953 0.12703 0.02000
C 	C 	0.03122 0.80890 0.18419 -0.15000
H 	H 	0.05087 0.82773 0.15413 0.09200
C 	C 	0.04592 0.81013 0.24400 0.11300
C 	C 	0.01561 0.78317 0.28850 -0.15200
H 	H 	0.02457 0.78453 0.32973 0.08400
C 	C 	0.97249 0.75445 0.27201 0.07000
H 	H 	0.95267 0.73583 0.30203 0.02200
C 	C 	0.09278 0.83810 0.26151 -0.07300
C 	C 	0.11248 0.82010 0.29658 -0.04000
H 	H 	0.09557 0.79053 0.30863 0.04400
H 	H 	0.10067 0.94483 0.27173 -0.04200
H 	H 	0.08577 0.95923 0.16813 0.21200
O 	O 	0.55371 0.02912 0.57059 -0.40900
O 	O 	0.56708 0.05555 0.47347 -0.41100
C 	C 	0.57819 0.05439 0.52813 0.36600
C 	C 	0.62489 0.08610 0.54598 -0.13100
C 	C 	0.65476 0.11371 0.50137 0.06600
H 	H 	0.64553 0.11287 0.46037 0.02000
C 	C 	0.69788 0.14224 0.51753 -0.15100
H 	H 	0.71753 0.16107 0.48747 0.09200
C 	C 	0.71258 0.14347 0.57734 0.11300
C 	C 	0.68227 0.11651 0.62184 -0.15200
H 	H 	0.69123 0.11787 0.66307 0.08400
C 	C 	0.63915 0.08779 0.60535 0.07100
H 	H 	0.61933 0.06917 0.63537 0.02200
C 	C 	0.75944 0.17144 0.59485 -0.07300
C 	C 	0.77914 0.15344 0.62992 -0.04000
H 	H 	0.76223 0.12387 0.64197 0.04400
H 	H 	0.76733 0.27817 0.60507 -0.04200
H 	H 	0.75243 0.29257 0.50147 0.21100
O 	O 	0.14207 0.77962 0.90392 -0.40900
O 	O 	0.15513 0.76625 0.80680 -0.41100
C 	C 	0.14286 0.75514 0.86146 0.36600
C 	C 	0.12787 0.70844 0.87931 -0.13100
C 	C 	0.12561 0.67857 0.83470 0.06600
H 	H 	0.13400 0.68780 0.79370 0.02000
C 	C 	0.11102 0.63545 0.85086 -0.15100
H 	H 	0.11020 0.61580 0.82080 0.09200
C 	C 	0.09755 0.62075 0.91067 0.11300
C 	C 	0.10090 0.65106 0.95517 -0.15200
H 	H 	0.09330 0.64210 0.99640 0.08400
C 	C 	0.11530 0.69418 0.93868 0.07100
H 	H 	0.11650 0.71400 0.96870 0.02200
C 	C 	0.07866 0.57389 0.92818 -0.07300
C 	C 	0.04096 0.55419 0.96325 -0.04000
H 	H 	0.02830 0.57110 0.97530 0.04400
H 	H 	0.17750 0.56600 0.93840 -0.04200
H 	H 	0.20680 0.58090 0.83480 0.21100
O 	O 	0.80874 0.11295 0.23725 -0.40900
O 	O 	0.82180 0.09958 0.14013 -0.41100
C 	C 	0.80953 0.08847 0.19479 0.36600
C 	C 	0.79454 0.04177 0.21264 -0.13100
C 	C 	0.79228 0.01190 0.16803 0.06600
H 	H 	0.80067 0.02113 0.12703 0.02000
C 	C 	0.77769 0.96878 0.18419 -0.15100
H 	H 	0.77687 0.94913 0.15413 0.09200
C 	C 	0.76422 0.95408 0.24400 0.11300
C 	C 	0.76757 0.98439 0.28850 -0.15200
H 	H 	0.75997 0.97543 0.32973 0.08400
C 	C 	0.78197 0.02751 0.27201 0.07000
H 	H 	0.78317 0.04733 0.30203 0.02200
C 	C 	0.74533 0.90722 0.26151 -0.07300
C 	C 	0.70763 0.88752 0.29658 -0.04000
H 	H 	0.69497 0.90443 0.30863 0.04400
H 	H 	0.84417 0.89933 0.27173 -0.04200
H 	H 	0.87347 0.91423 0.16813 0.21100
O 	O 	0.47540 0.44629 0.57059 -0.40900
O 	O 	0.48846 0.43292 0.47347 -0.41100
C 	C 	0.47619 0.42181 0.52813 0.36600
C 	C 	0.46120 0.37511 0.54598 -0.13100
C 	C 	0.45894 0.34524 0.50137 0.06600
H 	H 	0.46733 0.35447 0.46037 0.02000
C 	C 	0.44435 0.30212 0.51753 -0.15100
H 	H 	0.44353 0.28247 0.48747 0.09200
C 	C 	0.43088 0.28742 0.57734 0.11300
C 	C 	0.43423 0.31773 0.62184 -0.15200
H 	H 	0.42663 0.30877 0.66307 0.08400
C 	C 	0.44863 0.36085 0.60535 0.07100
H 	H 	0.44983 0.38067 0.63537 0.02200
C 	C 	0.41199 0.24056 0.59485 -0.07300
C 	C 	0.37429 0.22086 0.62992 -0.04000
H 	H 	0.36163 0.23777 0.64197 0.04400
H 	H 	0.51083 0.23267 0.60507 -0.04200
H 	H 	0.54013 0.24757 0.50147 0.21100
O 	O 	0.63755 0.85793 0.90392 -0.40900
O 	O 	0.61112 0.84487 0.80680 -0.41100
C 	C 	0.61228 0.85714 0.86146 0.36600
C 	C 	0.58057 0.87213 0.87931 -0.13100
C 	C 	0.55296 0.87439 0.83470 0.06600
H 	H 	0.55380 0.86600 0.79370 0.02000
C 	C 	0.52443 0.88898 0.85086 -0.15100
H 	H 	0.50560 0.88980 0.82080 0.09200
C 	C 	0.52320 0.90245 0.91067 0.11300
C 	C 	0.55016 0.89910 0.95517 -0.15200
H 	H 	0.54880 0.90670 0.99640 0.08400
C 	C 	0.57888 0.88470 0.93868 0.07100
H 	H 	0.59750 0.88350 0.96870 0.02200
C 	C 	0.49523 0.92134 0.92818 -0.07300
C 	C 	0.51323 0.95904 0.96325 -0.04000
H 	H 	0.54280 0.97170 0.97530 0.04400
H 	H 	0.38850 0.82250 0.93840 -0.04200
H 	H 	0.37410 0.79320 0.83480 0.21100
O 	O 	0.30422 0.19126 0.23725 -0.40900
O 	O 	0.27779 0.17820 0.14013 -0.41100
C 	C 	0.27895 0.19047 0.19479 0.36600
C 	C 	0.24724 0.20546 0.21264 -0.13100
C 	C 	0.21963 0.20772 0.16803 0.06600
H 	H 	0.22047 0.19933 0.12703 0.02000
C 	C 	0.19110 0.22231 0.18419 -0.15100
H 	H 	0.17227 0.22313 0.15413 0.09200
C 	C 	0.18987 0.23578 0.24400 0.11300
C 	C 	0.21683 0.23243 0.28850 -0.15200
H 	H 	0.21547 0.24003 0.32973 0.08400
C 	C 	0.24555 0.21803 0.27201 0.07100
H 	H 	0.26417 0.21683 0.30203 0.02200
C 	C 	0.16190 0.25467 0.26151 -0.07300
C 	C 	0.17990 0.29237 0.29658 -0.04000
H 	H 	0.20947 0.30503 0.30863 0.04400
H 	H 	0.05517 0.15583 0.27173 -0.04200
H 	H 	0.04077 0.12653 0.16813 0.21100
O 	O 	0.97088 0.52460 0.57059 -0.40800
O 	O 	0.94445 0.51154 0.47347 -0.41100
C 	C 	0.94561 0.52381 0.52813 0.36600
C 	C 	0.91390 0.53880 0.54598 -0.13100
C 	C 	0.88629 0.54106 0.50137 0.06600
H 	H 	0.88713 0.53267 0.46037 0.02000
C 	C 	0.85776 0.55565 0.51753 -0.15100
H 	H 	0.83893 0.55647 0.48747 0.09200
C 	C 	0.85653 0.56912 0.57734 0.11300
C 	C 	0.88349 0.56577 0.62184 -0.15200
H 	H 	0.88213 0.57337 0.66307 0.08400
C 	C 	0.91221 0.55137 0.60535 0.07100
H 	H 	0.93083 0.55017 0.63537 0.02200
C 	C 	0.82856 0.58801 0.59485 -0.07300
C 	C 	0.84656 0.62571 0.62992 -0.04000
H 	H 	0.87613 0.63837 0.64197 0.04400
H 	H 	0.72183 0.48917 0.60507 -0.04200
H 	H 	0.70743 0.45987 0.50147 0.21100
O 	O 	0.63755 0.77962 0.90392 -0.40900
O 	O 	0.61112 0.76625 0.80680 -0.41100
C 	C 	0.61228 0.75514 0.86146 0.36600
C 	C 	0.58057 0.70844 0.87931 -0.13100
C 	C 	0.55296 0.67857 0.83470 0.06600
H 	H 	0.55380 0.68780 0.79370 0.02000
C 	C 	0.52443 0.63545 0.85086 -0.15100
H 	H 	0.50560 0.61580 0.82080 0.09200
C 	C 	0.52320 0.62075 0.91067 0.11300
C 	C 	0.55016 0.65106 0.95517 -0.15200
H 	H 	0.54880 0.64210 0.99640 0.08400
C 	C 	0.57888 0.69418 0.93868 0.07100
H 	H 	0.59750 0.71400 0.96870 0.02200
C 	C 	0.49523 0.57389 0.92818 -0.07300
C 	C 	0.51323 0.55419 0.96325 -0.04000
H 	H 	0.54280 0.57110 0.97530 0.04400
H 	H 	0.38850 0.56600 0.93840 -0.04200
H 	H 	0.37410 0.58090 0.83480 0.21100
O 	O 	0.30422 0.11295 0.23725 -0.40900
O 	O 	0.27779 0.09958 0.14013 -0.41100
C 	C 	0.27895 0.08847 0.19479 0.36600
C 	C 	0.24724 0.04177 0.21264 -0.13000
C 	C 	0.21963 0.01190 0.16803 0.06600
H 	H 	0.22047 0.02113 0.12703 0.02000
C 	C 	0.19110 0.96878 0.18419 -0.15000
H 	H 	0.17227 0.94913 0.15413 0.09200
C 	C 	0.18987 0.95408 0.24400 0.11300
C 	C 	0.21683 0.98439 0.28850 -0.15200
H 	H 	0.21547 0.97543 0.32973 0.08400
C 	C 	0.24555 0.02751 0.27201 0.07000
H 	H 	0.26417 0.04733 0.30203 0.02200
C 	C 	0.16190 0.90722 0.26151 -0.07300
C 	C 	0.17990 0.88752 0.29658 -0.04000
H 	H 	0.20947 0.90443 0.30863 0.04400
H 	H 	0.05517 0.89933 0.27173 -0.04200
H 	H 	0.04077 0.91423 0.16813 0.21200
O 	O 	0.97088 0.44629 0.57059 -0.40900
O 	O 	0.94445 0.43292 0.47347 -0.41100
C 	C 	0.94561 0.42181 0.52813 0.36600
C 	C 	0.91390 0.37511 0.54598 -0.13100
C 	C 	0.88629 0.34524 0.50137 0.06600
H 	H 	0.88713 0.35447 0.46037 0.02000
C 	C 	0.85776 0.30212 0.51753 -0.15100
H 	H 	0.83893 0.28247 0.48747 0.09200
C 	C 	0.85653 0.28742 0.57734 0.11300
C 	C 	0.88349 0.31773 0.62184 -0.15200
H 	H 	0.88213 0.30877 0.66307 0.08400
C 	C 	0.91221 0.36085 0.60535 0.07100
H 	H 	0.93083 0.38067 0.63537 0.02200
C 	C 	0.82856 0.24056 0.59485 -0.07300
C 	C 	0.84656 0.22086 0.62992 -0.04000
H 	H 	0.87613 0.23777 0.64197 0.04400
H 	H 	0.72183 0.23267 0.60507 -0.04200
H 	H 	0.70743 0.24757 0.50147 0.21100
O 	O 	0.22038 0.85793 0.90392 -0.40900
O 	O 	0.23375 0.84487 0.80680 -0.41100
C 	C 	0.24486 0.85714 0.86146 0.36600
C 	C 	0.29156 0.87213 0.87931 -0.13100
C 	C 	0.32143 0.87439 0.83470 0.06600
H 	H 	0.31220 0.86600 0.79370 0.02000
C 	C 	0.36455 0.88898 0.85086 -0.15100
H 	H 	0.38420 0.88980 0.82080 0.09200
C 	C 	0.37925 0.90245 0.91067 0.11300
C 	C 	0.34894 0.89910 0.95517 -0.15200
H 	H 	0.35790 0.90670 0.99640 0.08400
C 	C 	0.30582 0.88470 0.93868 0.07100
H 	H 	0.28600 0.88350 0.96870 0.02200
C 	C 	0.42611 0.92134 0.92818 -0.07300
C 	C 	0.44581 0.95904 0.96325 -0.04000
H 	H 	0.42890 0.97170 0.97530 0.04400
H 	H 	0.43400 0.82250 0.93840 -0.04200
H 	H 	0.41910 0.79320 0.83480 0.21100
O 	O 	0.88705 0.19126 0.23725 -0.40900
O 	O 	0.90042 0.17820 0.14013 -0.41100
C 	C 	0.91153 0.19047 0.19479 0.36600
C 	C 	0.95823 0.20546 0.21264 -0.13100
C 	C 	0.98810 0.20772 0.16803 0.06600
H 	H 	0.97887 0.19933 0.12703 0.02000
C 	C 	0.03122 0.22231 0.18419 -0.15100
H 	H 	0.05087 0.22313 0.15413 0.09200
C 	C 	0.04592 0.23578 0.24400 0.11300
C 	C 	0.01561 0.23243 0.28850 -0.15200
H 	H 	0.02457 0.24003 0.32973 0.08400
C 	C 	0.97249 0.21803 0.27201 0.07000
H 	H 	0.95267 0.21683 0.30203 0.02200
C 	C 	0.09278 0.25467 0.26151 -0.07300
C 	C 	0.11248 0.29237 0.29658 -0.04000
H 	H 	0.09557 0.30503 0.30863 0.04400
H 	H 	0.10067 0.15583 0.27173 -0.04200
H 	H 	0.08577 0.12653 0.16813 0.21100
O 	O 	0.55371 0.52460 0.57059 -0.40900
O 	O 	0.56708 0.51154 0.47347 -0.41100
C 	C 	0.57819 0.52381 0.52813 0.36600
C 	C 	0.62489 0.53880 0.54598 -0.13100
C 	C 	0.65476 0.54106 0.50137 0.06600
H 	H 	0.64553 0.53267 0.46037 0.02000
C 	C 	0.69788 0.55565 0.51753 -0.15100
H 	H 	0.71753 0.55647 0.48747 0.09200
C 	C 	0.71258 0.56912 0.57734 0.11300
C 	C 	0.68227 0.56577 0.62184 -0.15200
H 	H 	0.69123 0.57337 0.66307 0.08400
C 	C 	0.63915 0.55137 0.60535 0.07100
H 	H 	0.61933 0.55017 0.63537 0.02200
C 	C 	0.75944 0.58801 0.59485 -0.07300
C 	C 	0.77914 0.62571 0.62992 -0.04000
H 	H 	0.76223 0.63837 0.64197 0.04400
H 	H 	0.76733 0.48917 0.60507 -0.04200
H 	H 	0.75243 0.45987 0.50147 0.21100
O 	O 	0.14207 0.36245 0.90392 -0.40900
O 	O 	0.15513 0.38888 0.80680 -0.41100
C 	C 	0.14286 0.38772 0.86146 0.36600
C 	C 	0.12787 0.41943 0.87931 -0.13100
C 	C 	0.12561 0.44704 0.83470 0.06600
H 	H 	0.13400 0.44620 0.79370 0.02000
C 	C 	0.11102 0.47557 0.85086 -0.15100
H 	H 	0.11020 0.49440 0.82080 0.09200
C 	C 	0.09755 0.47680 0.91067 0.11300
C 	C 	0.10090 0.44984 0.95517 -0.15200
H 	H 	0.09330 0.45120 0.99640 0.08400
C 	C 	0.11530 0.42112 0.93868 0.07100
H 	H 	0.11650 0.40250 0.96870 0.02200
C 	C 	0.07866 0.50477 0.92818 -0.07300
C 	C 	0.04096 0.48677 0.96325 -0.04000
H 	H 	0.02830 0.45720 0.97530 0.04400
H 	H 	0.17750 0.61150 0.93840 -0.04200
H 	H 	0.20680 0.62590 0.83480 0.21100
O 	O 	0.80874 0.69578 0.23725 -0.40900
O 	O 	0.82180 0.72221 0.14013 -0.41100
C 	C 	0.80953 0.72105 0.19479 0.36600
C 	C 	0.79454 0.75276 0.21264 -0.13100
C 	C 	0.79228 0.78037 0.16803 0.06600
H 	H 	0.80067 0.77953 0.12703 0.02000
C 	C 	0.77769 0.80890 0.18419 -0.15100
H 	H 	0.77687 0.82773 0.15413 0.09200
C 	C 	0.76422 0.81013 0.24400 0.11300
C 	C 	0.76757 0.78317 0.28850 -0.15200
H 	H 	0.75997 0.78453 0.32973 0.08400
C 	C 	0.78197 0.75445 0.27201 0.07100
H 	H 	0.78317 0.73583 0.30203 0.02200
C 	C 	0.74533 0.83810 0.26151 -0.07300
C 	C 	0.70763 0.82010 0.29658 -0.04000
H 	H 	0.69497 0.79053 0.30863 0.04400
H 	H 	0.84417 0.94483 0.27173 -0.04200
H 	H 	0.87347 0.95923 0.16813 0.21100
O 	O 	0.47540 0.02912 0.57059 -0.40800
O 	O 	0.48846 0.05555 0.47347 -0.41100
C 	C 	0.47619 0.05439 0.52813 0.36600
C 	C 	0.46120 0.08610 0.54598 -0.13100
C 	C 	0.45894 0.11371 0.50137 0.06600
H 	H 	0.46733 0.11287 0.46037 0.02000
C 	C 	0.44435 0.14224 0.51753 -0.15100
H 	H 	0.44353 0.16107 0.48747 0.09200
C 	C 	0.43088 0.14347 0.57734 0.11300
C 	C 	0.43423 0.11651 0.62184 -0.15200
H 	H 	0.42663 0.11787 0.66307 0.08400
C 	C 	0.44863 0.08779 0.60535 0.07100
H 	H 	0.44983 0.06917 0.63537 0.02200
C 	C 	0.41199 0.17144 0.59485 -0.07300
C 	C 	0.37429 0.15344 0.62992 -0.04000
H 	H 	0.36163 0.12387 0.64197 0.04400
H 	H 	0.51083 0.27817 0.60507 -0.04200
H 	H 	0.54013 0.29257 0.50147 0.21100
O 	O 	0.77962 0.63755 0.09608 -0.40900
O 	O 	0.76625 0.61112 0.19320 -0.41100
C 	C 	0.75514 0.61228 0.13854 0.36600
C 	C 	0.70844 0.58057 0.12069 -0.13100
C 	C 	0.67857 0.55296 0.16530 0.06600
H 	H 	0.68780 0.55380 0.20630 0.02000
C 	C 	0.63545 0.52443 0.14914 -0.15100
H 	H 	0.61580 0.50560 0.17920 0.09200
C 	C 	0.62075 0.52320 0.08933 0.11300
C 	C 	0.65106 0.55016 0.04483 -0.15200
H 	H 	0.64210 0.54880 0.00360 0.08400
C 	C 	0.69418 0.57888 0.06132 0.07100
H 	H 	0.71400 0.59750 0.03130 0.02200
C 	C 	0.57389 0.49523 0.07182 -0.07300
C 	C 	0.55419 0.51323 0.03675 -0.04000
H 	H 	0.57110 0.54280 0.02470 0.04400
H 	H 	0.56600 0.38850 0.06160 -0.04200
H 	H 	0.58090 0.37410 0.16520 0.21100
O 	O 	0.44629 0.97088 0.42941 -0.40900
O 	O 	0.43292 0.94445 0.52653 -0.41100
C 	C 	0.42181 0.94561 0.47187 0.36600
C 	C 	0.37511 0.91390 0.45402 -0.13100
C 	C 	0.34524 0.88629 0.49863 0.06600
H 	H 	0.35447 0.88713 0.53963 0.02000
C 	C 	0.30212 0.85776 0.48247 -0.15100
H 	H 	0.28247 0.83893 0.51253 0.09200
C 	C 	0.28742 0.85653 0.42266 0.11300
C 	C 	0.31773 0.88349 0.37816 -0.15200
H 	H 	0.30877 0.88213 0.33693 0.08400
C 	C 	0.36085 0.91221 0.39465 0.07100
H 	H 	0.38067 0.93083 0.36463 0.02200
C 	C 	0.24056 0.82856 0.40515 -0.07300
C 	C 	0.22086 0.84656 0.37008 -0.04000
H 	H 	0.23777 0.87613 0.35803 0.04400
H 	H 	0.23267 0.72183 0.39493 -0.04200
H 	H 	0.24757 0.70743 0.49853 0.21100
O 	O 	0.11295 0.30422 0.76275 -0.40900
O 	O 	0.09958 0.27779 0.85987 -0.41100
C 	C 	0.08847 0.27895 0.80521 0.36600
C 	C 	0.04177 0.24724 0.78736 -0.13000
C 	C 	0.01190 0.21963 0.83197 0.06600
H 	H 	0.02113 0.22047 0.87297 0.02000
C 	C 	0.96878 0.19110 0.81581 -0.15000
H 	H 	0.94913 0.17227 0.84587 0.09200
C 	C 	0.95408 0.18987 0.75600 0.11300
C 	C 	0.98439 0.21683 0.71150 -0.15200
H 	H 	0.97543 0.21547 0.67027 0.08400
C 	C 	0.02751 0.24555 0.72799 0.07000
H 	H 	0.04733 0.26417 0.69797 0.02200
C 	C 	0.90722 0.16190 0.73849 -0.07300
C 	C 	0.88752 0.17990 0.70342 -0.04000
H 	H 	0.90443 0.20947 0.69137 0.04400
H 	H 	0.89933 0.05517 0.72827 -0.04200
H 	H 	0.91423 0.04077 0.83187 0.21200
O 	O 	0.85793 0.22038 0.09608 -0.40900
O 	O 	0.84487 0.23375 0.19320 -0.41100
C 	C 	0.85714 0.24486 0.13854 0.36600
C 	C 	0.87213 0.29156 0.12069 -0.13100
C 	C 	0.87439 0.32143 0.16530 0.06600
H 	H 	0.86600 0.31220 0.20630 0.02000
C 	C 	0.88898 0.36455 0.14914 -0.15100
H 	H 	0.88980 0.38420 0.17920 0.09200
C 	C 	0.90245 0.37925 0.08933 0.11300
C 	C 	0.89910 0.34894 0.04483 -0.15200
H 	H 	0.90670 0.35790 0.00360 0.08400
C 	C 	0.88470 0.30582 0.06132 0.07100
H 	H 	0.88350 0.28600 0.03130 0.02200
C 	C 	0.92134 0.42611 0.07182 -0.07300
C 	C 	0.95904 0.44581 0.03675 -0.04000
H 	H 	0.97170 0.42890 0.02470 0.04400
H 	H 	0.82250 0.43400 0.06160 -0.04200
H 	H 	0.79320 0.41910 0.16520 0.21100
O 	O 	0.52460 0.55371 0.42941 -0.40900
O 	O 	0.51154 0.56708 0.52653 -0.41100
C 	C 	0.52381 0.57819 0.47187 0.36600
C 	C 	0.53880 0.62489 0.45402 -0.13100
C 	C 	0.54106 0.65476 0.49863 0.06600
H 	H 	0.53267 0.64553 0.53963 0.02000
C 	C 	0.55565 0.69788 0.48247 -0.15100
H 	H 	0.55647 0.71753 0.51253 0.09200
C 	C 	0.56912 0.71258 0.42266 0.11300
C 	C 	0.56577 0.68227 0.37816 -0.15200
H 	H 	0.57337 0.69123 0.33693 0.08400
C 	C 	0.55137 0.63915 0.39465 0.07100
H 	H 	0.55017 0.61933 0.36463 0.02200
C 	C 	0.58801 0.75944 0.40515 -0.07300
C 	C 	0.62571 0.77914 0.37008 -0.04000
H 	H 	0.63837 0.76223 0.35803 0.04400
H 	H 	0.48917 0.76733 0.39493 -0.04200
H 	H 	0.45987 0.75243 0.49853 0.21100
O 	O 	0.19126 0.88705 0.76275 -0.40900
O 	O 	0.17820 0.90042 0.85987 -0.41100
C 	C 	0.19047 0.91153 0.80521 0.36600
C 	C 	0.20546 0.95823 0.78736 -0.13100
C 	C 	0.20772 0.98810 0.83197 0.06600
H 	H 	0.19933 0.97887 0.87297 0.02000
C 	C 	0.22231 0.03122 0.81581 -0.15100
H 	H 	0.22313 0.05087 0.84587 0.09200
C 	C 	0.23578 0.04592 0.75600 0.11300
C 	C 	0.23243 0.01561 0.71150 -0.15200
H 	H 	0.24003 0.02457 0.67027 0.08400
C 	C 	0.21803 0.97249 0.72799 0.07000
H 	H 	0.21683 0.95267 0.69797 0.02200
C 	C 	0.25467 0.09278 0.73849 -0.07300
C 	C 	0.29237 0.11248 0.70342 -0.04000
H 	H 	0.30503 0.09557 0.69137 0.04400
H 	H 	0.15583 0.10067 0.72827 -0.04200
H 	H 	0.12653 0.08577 0.83187 0.21100
O 	O 	0.36245 0.14207 0.09608 -0.40900
O 	O 	0.38888 0.15513 0.19320 -0.41100
C 	C 	0.38772 0.14286 0.13854 0.36600
C 	C 	0.41943 0.12787 0.12069 -0.13100
C 	C 	0.44704 0.12561 0.16530 0.06600
H 	H 	0.44620 0.13400 0.20630 0.02000
C 	C 	0.47557 0.11102 0.14914 -0.15100
H 	H 	0.49440 0.11020 0.17920 0.09200
C 	C 	0.47680 0.09755 0.08933 0.11300
C 	C 	0.44984 0.10090 0.04483 -0.15200
H 	H 	0.45120 0.09330 0.00360 0.08400
C 	C 	0.42112 0.11530 0.06132 0.07100
H 	H 	0.40250 0.11650 0.03130 0.02200
C 	C 	0.50477 0.07866 0.07182 -0.07300
C 	C 	0.48677 0.04096 0.03675 -0.04000
H 	H 	0.45720 0.02830 0.02470 0.04400
H 	H 	0.61150 0.17750 0.06160 -0.04200
H 	H 	0.62590 0.20680 0.16520 0.21100
O 	O 	0.02912 0.47540 0.42941 -0.40800
O 	O 	0.05555 0.48846 0.52653 -0.41100
C 	C 	0.05439 0.47619 0.47187 0.36600
C 	C 	0.08610 0.46120 0.45402 -0.13100
C 	C 	0.11371 0.45894 0.49863 0.06600
H 	H 	0.11287 0.46733 0.53963 0.02000
C 	C 	0.14224 0.44435 0.48247 -0.15100
H 	H 	0.16107 0.44353 0.51253 0.09200
C 	C 	0.14347 0.43088 0.42266 0.11300
C 	C 	0.11651 0.43423 0.37816 -0.15200
H 	H 	0.11787 0.42663 0.33693 0.08400
C 	C 	0.08779 0.44863 0.39465 0.07100
H 	H 	0.06917 0.44983 0.36463 0.02200
C 	C 	0.17144 0.41199 0.40515 -0.07300
C 	C 	0.15344 0.37429 0.37008 -0.04000
H 	H 	0.12387 0.36163 0.35803 0.04400
H 	H 	0.27817 0.51083 0.39493 -0.04200
H 	H 	0.29257 0.54013 0.49853 0.21100
O 	O 	0.69578 0.80874 0.76275 -0.40900
O 	O 	0.72221 0.82180 0.85987 -0.41100
C 	C 	0.72105 0.80953 0.80521 0.36600
C 	C 	0.75276 0.79454 0.78736 -0.13100
C 	C 	0.78037 0.79228 0.83197 0.06600
H 	H 	0.77953 0.80067 0.87297 0.02000
C 	C 	0.80890 0.77769 0.81581 -0.15100
H 	H 	0.82773 0.77687 0.84587 0.09200
C 	C 	0.81013 0.76422 0.75600 0.11300
C 	C 	0.78317 0.76757 0.71150 -0.15200
H 	H 	0.78453 0.75997 0.67027 0.08400
C 	C 	0.75445 0.78197 0.72799 0.07100
H 	H 	0.73583 0.78317 0.69797 0.02200
C 	C 	0.83810 0.74533 0.73849 -0.07300
C 	C 	0.82010 0.70763 0.70342 -0.04000
H 	H 	0.79053 0.69497 0.69137 0.04400
H 	H 	0.94483 0.84417 0.72827 -0.04200
H 	H 	0.95923 0.87347 0.83187 0.21100
Cu	Cu	0.31794 0.15897 0.10958 0.90400
Cu	Cu	0.98461 0.49230 0.44291 0.90400
Cu	Cu	0.65127 0.82564 0.77625 0.90400
Cu	Cu	0.84103 0.15897 0.10958 0.90400
Cu	Cu	0.50770 0.49230 0.44291 0.90400
Cu	Cu	0.17436 0.82564 0.77625 0.90400
Cu	Cu	0.84103 0.68206 0.10958 0.90400
Cu	Cu	0.50770 0.01539 0.44291 0.90400
Cu	Cu	0.17436 0.34873 0.77625 0.90400
Cu	Cu	0.15897 0.31794 0.89042 0.90400
Cu	Cu	0.82564 0.65127 0.22375 0.90400
Cu	Cu	0.49230 0.98461 0.55709 0.90400
Cu	Cu	0.15897 0.84103 0.89042 0.90400
Cu	Cu	0.82564 0.17436 0.22375 0.90400
Cu	Cu	0.49230 0.50770 0.55709 0.90400
Cu	Cu	0.68206 0.84103 0.89042 0.90400
Cu	Cu	0.34873 0.17436 0.22375 0.90400
Cu	Cu	0.01539 0.50770 0.55709 0.90400
O 	O 	0.56771 0.43229 0.12526 -0.25800
C 	C 	0.51022 0.48978 0.01824 0.00400
C 	C 	0.54880 0.45120 0.08914 0.14300
C 	C 	0.58770 0.41230 0.08750 0.25600
C 	C 	0.60525 0.39475 0.13980 -0.61100
H 	H 	0.61980 0.38020 0.12170 0.19800
O 	O 	0.23438 0.76562 0.45859 -0.25800
C 	C 	0.17689 0.82311 0.35157 0.00400
C 	C 	0.21547 0.78453 0.42247 0.14300
C 	C 	0.25437 0.74563 0.42083 0.25600
C 	C 	0.27192 0.72808 0.47313 -0.61100
H 	H 	0.28647 0.71353 0.45503 0.19800
O 	O 	0.90104 0.09896 0.79193 -0.25800
C 	C 	0.84355 0.15645 0.68491 0.00400
C 	C 	0.88213 0.11787 0.75581 0.14300
C 	C 	0.92103 0.07897 0.75417 0.25600
C 	C 	0.93858 0.06142 0.80647 -0.61100
H 	H 	0.95313 0.04687 0.78837 0.19800
O 	O 	0.56771 0.13542 0.12526 -0.25800
C 	C 	0.51022 0.02044 0.01824 0.00400
C 	C 	0.54880 0.09760 0.08914 0.14300
C 	C 	0.58770 0.17540 0.08750 0.25600
C 	C 	0.60525 0.21050 0.13980 -0.61100
H 	H 	0.61980 0.23960 0.12170 0.19800
O 	O 	0.23438 0.46875 0.45859 -0.25800
C 	C 	0.17689 0.35377 0.35157 0.00400
C 	C 	0.21547 0.43093 0.42247 0.14300
C 	C 	0.25437 0.50873 0.42083 0.25600
C 	C 	0.27192 0.54383 0.47313 -0.61100
H 	H 	0.28647 0.57293 0.45503 0.19800
O 	O 	0.90104 0.80209 0.79193 -0.25800
C 	C 	0.84355 0.68711 0.68491 0.00400
C 	C 	0.88213 0.76427 0.75581 0.14300
C 	C 	0.92103 0.84207 0.75417 0.25600
C 	C 	0.93858 0.87717 0.80647 -0.61100
H 	H 	0.95313 0.90627 0.78837 0.19800
O 	O 	0.86458 0.43229 0.12526 -0.25800
C 	C 	0.97956 0.48978 0.01824 0.00400
C 	C 	0.90240 0.45120 0.08914 0.14300
C 	C 	0.82460 0.41230 0.08750 0.25600
C 	C 	0.78950 0.39475 0.13980 -0.61100
H 	H 	0.76040 0.38020 0.12170 0.19800
O 	O 	0.53125 0.76562 0.45859 -0.25800
C 	C 	0.64623 0.82311 0.35157 0.00400
C 	C 	0.56907 0.78453 0.42247 0.14300
C 	C 	0.49127 0.74563 0.42083 0.25600
C 	C 	0.45617 0.72808 0.47313 -0.61100
H 	H 	0.42707 0.71353 0.45503 0.19800
O 	O 	0.19791 0.09896 0.79193 -0.25800
C 	C 	0.31289 0.15645 0.68491 0.00400
C 	C 	0.23573 0.11787 0.75581 0.14300
C 	C 	0.15793 0.07897 0.75417 0.25600
C 	C 	0.12283 0.06142 0.80647 -0.61100
H 	H 	0.09373 0.04687 0.78837 0.19800
O 	O 	0.43229 0.56771 0.87474 -0.25800
C 	C 	0.48978 0.51022 0.98176 0.00400
C 	C 	0.45120 0.54880 0.91086 0.14300
C 	C 	0.41230 0.58770 0.91250 0.25600
C 	C 	0.39475 0.60525 0.86020 -0.61100
H 	H 	0.38020 0.61980 0.87830 0.19800
O 	O 	0.09896 0.90104 0.20807 -0.25800
C 	C 	0.15645 0.84355 0.31509 0.00400
C 	C 	0.11787 0.88213 0.24419 0.14300
C 	C 	0.07897 0.92103 0.24583 0.25600
C 	C 	0.06142 0.93858 0.19353 -0.61100
H 	H 	0.04687 0.95313 0.21163 0.19800
O 	O 	0.76562 0.23438 0.54141 -0.25800
C 	C 	0.82311 0.17689 0.64843 0.00400
C 	C 	0.78453 0.21547 0.57753 0.14300
C 	C 	0.74563 0.25437 0.57917 0.25600
C 	C 	0.72808 0.27192 0.52687 -0.61100
H 	H 	0.71353 0.28647 0.54497 0.19800
O 	O 	0.13542 0.56771 0.87474 -0.25800
C 	C 	0.02044 0.51022 0.98176 0.00400
C 	C 	0.09760 0.54880 0.91086 0.14300
C 	C 	0.17540 0.58770 0.91250 0.25600
C 	C 	0.21050 0.60525 0.86020 -0.61100
H 	H 	0.23960 0.61980 0.87830 0.19800
O 	O 	0.80209 0.90104 0.20807 -0.25800
C 	C 	0.68711 0.84355 0.31509 0.00400
C 	C 	0.76427 0.88213 0.24419 0.14300
C 	C 	0.84207 0.92103 0.24583 0.25600
C 	C 	0.87717 0.93858 0.19353 -0.61100
H 	H 	0.90627 0.95313 0.21163 0.19800
O 	O 	0.46875 0.23438 0.54141 -0.25800
C 	C 	0.35377 0.17689 0.64843 0.00400
C 	C 	0.43093 0.21547 0.57753 0.14300
C 	C 	0.50873 0.25437 0.57917 0.25600
C 	C 	0.54383 0.27192 0.52687 -0.61100
H 	H 	0.57293 0.28647 0.54497 0.19800
O 	O 	0.43229 0.86458 0.87474 -0.25800
C 	C 	0.48978 0.97956 0.98176 0.00400
C 	C 	0.45120 0.90240 0.91086 0.14300
C 	C 	0.41230 0.82460 0.91250 0.25600
C 	C 	0.39475 0.78950 0.86020 -0.61100
H 	H 	0.38020 0.76040 0.87830 0.19800
O 	O 	0.09896 0.19791 0.20807 -0.25800
C 	C 	0.15645 0.31289 0.31509 0.00400
C 	C 	0.11787 0.23573 0.24419 0.14300
C 	C 	0.07897 0.15793 0.24583 0.25600
C 	C 	0.06142 0.12283 0.19353 -0.61100
H 	H 	0.04687 0.09373 0.21163 0.19800
O 	O 	0.76562 0.53125 0.54141 -0.25800
C 	C 	0.82311 0.64623 0.64843 0.00400
C 	C 	0.78453 0.56907 0.57753 0.14300
C 	C 	0.74563 0.49127 0.57917 0.25600
C 	C 	0.72808 0.45617 0.52687 -0.61100
H 	H 	0.71353 0.42707 0.54497 0.19800
