data_crystal

_cell_length_a 35.34840
_cell_length_b 35.34840
_cell_length_c 20.08810
_cell_angle_alpha 90.00000
_cell_angle_beta  90.00000
_cell_angle_gamma 120.00000

_symmetry_space_group_name_	'P 1'
_symmetry_space_group_name_H-M	'P 1'

loop_
_symmetry_equiv_pos_as_xyz
  x,y,z

loop_
_atom_site_label
_atom_site_type_symbol
_atom_site_fract_x
_atom_site_fract_y
_atom_site_fract_z
_atom_site_charge
O 	O 	0.77935 0.63670 0.59160 -0.41600
C 	C 	0.75574 0.61221 0.63696 0.36800
O 	O 	0.76693 0.61195 0.69684 -0.40900
C 	C 	0.70883 0.57978 0.62042 -0.12600
C 	C 	0.68009 0.55206 0.66844 0.06400
H 	H 	0.69010 0.55270 0.71250 0.02200
C 	C 	0.63656 0.52328 0.65234 -0.14800
H 	H 	0.61740 0.50400 0.68540 0.09100
C 	C 	0.62139 0.52233 0.59113 0.10700
C 	C 	0.65053 0.54857 0.53900 -0.13600
H 	H 	0.64080 0.54620 0.49430 0.07800
C 	C 	0.69420 0.57807 0.55680 0.05700
H 	H 	0.71390 0.59710 0.52410 0.02700
C 	C 	0.57404 0.49469 0.57330 -0.06900
C 	C 	0.55452 0.51246 0.53500 -0.04000
H 	H 	0.57190 0.54180 0.52050 0.04400
H 	H 	0.61170 0.43390 0.55870 -0.03500
H 	H 	0.62930 0.41600 0.66560 0.19000
O 	O 	0.44602 0.97003 0.92493 -0.41500
C 	C 	0.42241 0.94554 0.97029 0.36900
O 	O 	0.43360 0.94528 0.03017 -0.40900
C 	C 	0.37550 0.91311 0.95375 -0.12400
C 	C 	0.34676 0.88539 0.00177 0.06100
H 	H 	0.35677 0.88603 0.04583 0.02300
C 	C 	0.30323 0.85661 0.98567 -0.14600
H 	H 	0.28407 0.83733 0.01873 0.09000
C 	C 	0.28806 0.85566 0.92446 0.10600
C 	C 	0.31720 0.88190 0.87233 -0.13500
H 	H 	0.30747 0.87953 0.82763 0.07800
C 	C 	0.36087 0.91140 0.89013 0.05600
H 	H 	0.38057 0.93043 0.85743 0.02800
C 	C 	0.24071 0.82802 0.90663 -0.06800
C 	C 	0.22119 0.84579 0.86833 -0.04100
H 	H 	0.23857 0.87513 0.85383 0.04500
H 	H 	0.27837 0.76723 0.89203 -0.03500
H 	H 	0.29597 0.74933 0.99893 0.19000
O 	O 	0.11268 0.30337 0.25827 -0.41500
C 	C 	0.08907 0.27888 0.30363 0.36900
O 	O 	0.10026 0.27862 0.36351 -0.40900
C 	C 	0.04216 0.24645 0.28709 -0.12600
C 	C 	0.01342 0.21873 0.33511 0.06300
H 	H 	0.02343 0.21937 0.37917 0.02200
C 	C 	0.96989 0.18995 0.31901 -0.14800
H 	H 	0.95073 0.17067 0.35207 0.09100
C 	C 	0.95472 0.18900 0.25780 0.10700
C 	C 	0.98386 0.21524 0.20567 -0.13500
H 	H 	0.97413 0.21287 0.16097 0.07800
C 	C 	0.02753 0.24474 0.22347 0.05600
H 	H 	0.04723 0.26377 0.19077 0.02800
C 	C 	0.90737 0.16136 0.23997 -0.06900
C 	C 	0.88785 0.17913 0.20167 -0.04000
H 	H 	0.90523 0.20847 0.18717 0.04400
H 	H 	0.94503 0.10057 0.22537 -0.03500
H 	H 	0.96263 0.08267 0.33227 0.19000
O 	O 	0.36330 0.14265 0.59160 -0.41500
C 	C 	0.38779 0.14353 0.63696 0.36900
O 	O 	0.38805 0.15498 0.69684 -0.40900
C 	C 	0.42022 0.12905 0.62042 -0.12600
C 	C 	0.44794 0.12803 0.66844 0.06400
H 	H 	0.44730 0.13740 0.71250 0.02200
C 	C 	0.47672 0.11328 0.65234 -0.14800
H 	H 	0.49600 0.11340 0.68540 0.09100
C 	C 	0.47767 0.09906 0.59113 0.10700
C 	C 	0.45143 0.10196 0.53900 -0.13600
H 	H 	0.45380 0.09460 0.49430 0.07800
C 	C 	0.42193 0.11613 0.55680 0.05700
H 	H 	0.40290 0.11680 0.52410 0.02700
C 	C 	0.50531 0.07935 0.57330 -0.06900
C 	C 	0.48754 0.04206 0.53500 -0.04000
H 	H 	0.45820 0.03010 0.52050 0.04400
H 	H 	0.56610 0.17780 0.55870 -0.03500
H 	H 	0.58400 0.21330 0.66560 0.19000
O 	O 	0.02997 0.47598 0.92493 -0.41500
C 	C 	0.05446 0.47686 0.97029 0.36900
O 	O 	0.05472 0.48831 0.03017 -0.40900
C 	C 	0.08689 0.46238 0.95375 -0.12500
C 	C 	0.11461 0.46136 0.00177 0.06200
H 	H 	0.11397 0.47073 0.04583 0.02300
C 	C 	0.14339 0.44661 0.98567 -0.14700
H 	H 	0.16267 0.44673 0.01873 0.09000
C 	C 	0.14434 0.43239 0.92446 0.10700
C 	C 	0.11810 0.43529 0.87233 -0.13500
H 	H 	0.12047 0.42793 0.82763 0.07800
C 	C 	0.08860 0.44946 0.89013 0.05600
H 	H 	0.06957 0.45013 0.85743 0.02800
C 	C 	0.17198 0.41268 0.90663 -0.06900
C 	C 	0.15421 0.37539 0.86833 -0.04000
H 	H 	0.12487 0.36343 0.85383 0.04500
H 	H 	0.23277 0.51113 0.89203 -0.03500
H 	H 	0.25067 0.54663 0.99893 0.19000
O 	O 	0.69663 0.80932 0.25827 -0.41500
C 	C 	0.72112 0.81020 0.30363 0.36900
O 	O 	0.72138 0.82165 0.36351 -0.40900
C 	C 	0.75355 0.79572 0.28709 -0.12600
C 	C 	0.78127 0.79470 0.33511 0.06400
H 	H 	0.78063 0.80407 0.37917 0.02200
C 	C 	0.81005 0.77995 0.31901 -0.14800
H 	H 	0.82933 0.78007 0.35207 0.09100
C 	C 	0.81100 0.76573 0.25780 0.10700
C 	C 	0.78476 0.76863 0.20567 -0.13600
H 	H 	0.78713 0.76127 0.16097 0.07800
C 	C 	0.75526 0.78280 0.22347 0.05700
H 	H 	0.73623 0.78347 0.19077 0.02700
C 	C 	0.83864 0.74602 0.23997 -0.06900
C 	C 	0.82087 0.70873 0.20167 -0.04000
H 	H 	0.79153 0.69677 0.18717 0.04400
H 	H 	0.89943 0.84447 0.22537 -0.03500
H 	H 	0.91733 0.87997 0.33227 0.19000
O 	O 	0.85735 0.22065 0.59160 -0.41500
C 	C 	0.85647 0.24426 0.63696 0.36900
O 	O 	0.84502 0.23307 0.69684 -0.40900
C 	C 	0.87095 0.29117 0.62042 -0.12600
C 	C 	0.87197 0.31991 0.66844 0.06400
H 	H 	0.86260 0.30990 0.71250 0.02200
C 	C 	0.88672 0.36344 0.65234 -0.14800
H 	H 	0.88660 0.38260 0.68540 0.09100
C 	C 	0.90094 0.37861 0.59113 0.10700
C 	C 	0.89804 0.34947 0.53900 -0.13600
H 	H 	0.90540 0.35920 0.49430 0.07800
C 	C 	0.88387 0.30580 0.55680 0.05700
H 	H 	0.88320 0.28610 0.52410 0.02700
C 	C 	0.92065 0.42596 0.57330 -0.06900
C 	C 	0.95794 0.44548 0.53500 -0.04000
H 	H 	0.96990 0.42810 0.52050 0.04400
H 	H 	0.82220 0.38830 0.55870 -0.03500
H 	H 	0.78670 0.37070 0.66560 0.19000
O 	O 	0.52402 0.55398 0.92493 -0.41500
C 	C 	0.52314 0.57759 0.97029 0.36900
O 	O 	0.51169 0.56640 0.03017 -0.40900
C 	C 	0.53762 0.62450 0.95375 -0.12600
C 	C 	0.53864 0.65324 0.00177 0.06300
H 	H 	0.52927 0.64323 0.04583 0.02200
C 	C 	0.55339 0.69677 0.98567 -0.14800
H 	H 	0.55327 0.71593 0.01873 0.09100
C 	C 	0.56761 0.71194 0.92446 0.10700
C 	C 	0.56471 0.68280 0.87233 -0.13600
H 	H 	0.57207 0.69253 0.82763 0.07800
C 	C 	0.55054 0.63913 0.89013 0.05700
H 	H 	0.54987 0.61943 0.85743 0.02800
C 	C 	0.58732 0.75929 0.90663 -0.06900
C 	C 	0.62461 0.77881 0.86833 -0.04000
H 	H 	0.63657 0.76143 0.85383 0.04400
H 	H 	0.48887 0.72163 0.89203 -0.03500
H 	H 	0.45337 0.70403 0.99893 0.19000
O 	O 	0.19068 0.88732 0.25827 -0.41500
C 	C 	0.18980 0.91093 0.30363 0.36900
O 	O 	0.17835 0.89974 0.36351 -0.40900
C 	C 	0.20428 0.95784 0.28709 -0.12600
C 	C 	0.20530 0.98658 0.33511 0.06300
H 	H 	0.19593 0.97657 0.37917 0.02200
C 	C 	0.22005 0.03011 0.31901 -0.14800
H 	H 	0.21993 0.04927 0.35207 0.09100
C 	C 	0.23427 0.04528 0.25780 0.10700
C 	C 	0.23137 0.01614 0.20567 -0.13500
H 	H 	0.23873 0.02587 0.16097 0.07800
C 	C 	0.21720 0.97247 0.22347 0.05600
H 	H 	0.21653 0.95277 0.19077 0.02800
C 	C 	0.25398 0.09263 0.23997 -0.06900
C 	C 	0.29127 0.11215 0.20167 -0.04000
H 	H 	0.30323 0.09477 0.18717 0.04400
H 	H 	0.15553 0.05497 0.22537 -0.03500
H 	H 	0.12003 0.03737 0.33227 0.19000
O 	O 	0.63670 0.77935 0.40840 -0.41500
C 	C 	0.61221 0.75574 0.36304 0.36900
O 	O 	0.61195 0.76693 0.30316 -0.40900
C 	C 	0.57978 0.70883 0.37958 -0.12600
C 	C 	0.55206 0.68009 0.33156 0.06400
H 	H 	0.55270 0.69010 0.28750 0.02200
C 	C 	0.52328 0.63656 0.34766 -0.14800
H 	H 	0.50400 0.61740 0.31460 0.09100
C 	C 	0.52233 0.62139 0.40887 0.10700
C 	C 	0.54857 0.65053 0.46100 -0.13600
H 	H 	0.54620 0.64080 0.50570 0.07800
C 	C 	0.57807 0.69420 0.44320 0.05700
H 	H 	0.59710 0.71390 0.47590 0.02700
C 	C 	0.49469 0.57404 0.42670 -0.06900
C 	C 	0.51246 0.55452 0.46500 -0.04000
H 	H 	0.54180 0.57190 0.47950 0.04400
H 	H 	0.43390 0.61170 0.44130 -0.03500
H 	H 	0.41600 0.62930 0.33440 0.19000
O 	O 	0.30337 0.11268 0.74173 -0.41500
C 	C 	0.27888 0.08907 0.69637 0.36900
O 	O 	0.27862 0.10026 0.63649 -0.40900
C 	C 	0.24645 0.04216 0.71291 -0.12600
C 	C 	0.21873 0.01342 0.66489 0.06300
H 	H 	0.21937 0.02343 0.62083 0.02200
C 	C 	0.18995 0.96989 0.68099 -0.14800
H 	H 	0.17067 0.95073 0.64793 0.09100
C 	C 	0.18900 0.95472 0.74220 0.10700
C 	C 	0.21524 0.98386 0.79433 -0.13500
H 	H 	0.21287 0.97413 0.83903 0.07800
C 	C 	0.24474 0.02753 0.77653 0.05600
H 	H 	0.26377 0.04723 0.80923 0.02800
C 	C 	0.16136 0.90737 0.76003 -0.06900
C 	C 	0.17913 0.88785 0.79833 -0.04000
H 	H 	0.20847 0.90523 0.81283 0.04400
H 	H 	0.10057 0.94503 0.77463 -0.03500
H 	H 	0.08267 0.96263 0.66773 0.19000
O 	O 	0.97003 0.44602 0.07507 -0.41500
C 	C 	0.94554 0.42241 0.02971 0.36900
O 	O 	0.94528 0.43360 0.96983 -0.40900
C 	C 	0.91311 0.37550 0.04625 -0.12400
C 	C 	0.88539 0.34676 0.99823 0.06100
H 	H 	0.88603 0.35677 0.95417 0.02300
C 	C 	0.85661 0.30323 0.01433 -0.14600
H 	H 	0.83733 0.28407 0.98127 0.09000
C 	C 	0.85566 0.28806 0.07554 0.10600
C 	C 	0.88190 0.31720 0.12767 -0.13500
H 	H 	0.87953 0.30747 0.17237 0.07800
C 	C 	0.91140 0.36087 0.10987 0.05600
H 	H 	0.93043 0.38057 0.14257 0.02800
C 	C 	0.82802 0.24071 0.09337 -0.06800
C 	C 	0.84579 0.22119 0.13167 -0.04100
H 	H 	0.87513 0.23857 0.14617 0.04500
H 	H 	0.76723 0.27837 0.10797 -0.03500
H 	H 	0.74933 0.29597 0.00107 0.19000
O 	O 	0.14265 0.36330 0.40840 -0.41500
C 	C 	0.14353 0.38779 0.36304 0.36900
O 	O 	0.15498 0.38805 0.30316 -0.40900
C 	C 	0.12905 0.42022 0.37958 -0.12600
C 	C 	0.12803 0.44794 0.33156 0.06400
H 	H 	0.13740 0.44730 0.28750 0.02200
C 	C 	0.11328 0.47672 0.34766 -0.14800
H 	H 	0.11340 0.49600 0.31460 0.09100
C 	C 	0.09906 0.47767 0.40887 0.10700
C 	C 	0.10196 0.45143 0.46100 -0.13600
H 	H 	0.09460 0.45380 0.50570 0.07800
C 	C 	0.11613 0.42193 0.44320 0.05700
H 	H 	0.11680 0.40290 0.47590 0.02700
C 	C 	0.07935 0.50531 0.42670 -0.06900
C 	C 	0.04206 0.48754 0.46500 -0.04000
H 	H 	0.03010 0.45820 0.47950 0.04400
H 	H 	0.17780 0.56610 0.44130 -0.03500
H 	H 	0.21330 0.58400 0.33440 0.19000
O 	O 	0.80932 0.69663 0.74173 -0.41500
C 	C 	0.81020 0.72112 0.69637 0.36900
O 	O 	0.82165 0.72138 0.63649 -0.40900
C 	C 	0.79572 0.75355 0.71291 -0.12600
C 	C 	0.79470 0.78127 0.66489 0.06400
H 	H 	0.80407 0.78063 0.62083 0.02200
C 	C 	0.77995 0.81005 0.68099 -0.14800
H 	H 	0.78007 0.82933 0.64793 0.09100
C 	C 	0.76573 0.81100 0.74220 0.10700
C 	C 	0.76863 0.78476 0.79433 -0.13600
H 	H 	0.76127 0.78713 0.83903 0.07800
C 	C 	0.78280 0.75526 0.77653 0.05700
H 	H 	0.78347 0.73623 0.80923 0.02700
C 	C 	0.74602 0.83864 0.76003 -0.06900
C 	C 	0.70873 0.82087 0.79833 -0.04000
H 	H 	0.69677 0.79153 0.81283 0.04400
H 	H 	0.84447 0.89943 0.77463 -0.03500
H 	H 	0.87997 0.91733 0.66773 0.19000
O 	O 	0.47598 0.02997 0.07507 -0.41500
C 	C 	0.47686 0.05446 0.02971 0.36900
O 	O 	0.48831 0.05472 0.96983 -0.40900
C 	C 	0.46238 0.08689 0.04625 -0.12500
C 	C 	0.46136 0.11461 0.99823 0.06200
H 	H 	0.47073 0.11397 0.95417 0.02300
C 	C 	0.44661 0.14339 0.01433 -0.14700
H 	H 	0.44673 0.16267 0.98127 0.09000
C 	C 	0.43239 0.14434 0.07554 0.10700
C 	C 	0.43529 0.11810 0.12767 -0.13500
H 	H 	0.42793 0.12047 0.17237 0.07800
C 	C 	0.44946 0.08860 0.10987 0.05600
H 	H 	0.45013 0.06957 0.14257 0.02800
C 	C 	0.41268 0.17198 0.09337 -0.06900
C 	C 	0.37539 0.15421 0.13167 -0.04000
H 	H 	0.36343 0.12487 0.14617 0.04500
H 	H 	0.51113 0.23277 0.10797 -0.03500
H 	H 	0.54663 0.25067 0.00107 0.19000
O 	O 	0.22065 0.85735 0.40840 -0.41500
C 	C 	0.24426 0.85647 0.36304 0.36900
O 	O 	0.23307 0.84502 0.30316 -0.40900
C 	C 	0.29117 0.87095 0.37958 -0.12600
C 	C 	0.31991 0.87197 0.33156 0.06400
H 	H 	0.30990 0.86260 0.28750 0.02200
C 	C 	0.36344 0.88672 0.34766 -0.14800
H 	H 	0.38260 0.88660 0.31460 0.09100
C 	C 	0.37861 0.90094 0.40887 0.10700
C 	C 	0.34947 0.89804 0.46100 -0.13600
H 	H 	0.35920 0.90540 0.50570 0.07800
C 	C 	0.30580 0.88387 0.44320 0.05700
H 	H 	0.28610 0.88320 0.47590 0.02700
C 	C 	0.42596 0.92065 0.42670 -0.06900
C 	C 	0.44548 0.95794 0.46500 -0.04000
H 	H 	0.42810 0.96990 0.47950 0.04400
H 	H 	0.38830 0.82220 0.44130 -0.03500
H 	H 	0.37070 0.78670 0.33440 0.19000
O 	O 	0.88732 0.19068 0.74173 -0.41500
C 	C 	0.91093 0.18980 0.69637 0.36900
O 	O 	0.89974 0.17835 0.63649 -0.40900
C 	C 	0.95784 0.20428 0.71291 -0.12600
C 	C 	0.98658 0.20530 0.66489 0.06300
H 	H 	0.97657 0.19593 0.62083 0.02200
C 	C 	0.03011 0.22005 0.68099 -0.14800
H 	H 	0.04927 0.21993 0.64793 0.09100
C 	C 	0.04528 0.23427 0.74220 0.10700
C 	C 	0.01614 0.23137 0.79433 -0.13500
H 	H 	0.02587 0.23873 0.83903 0.07800
C 	C 	0.97247 0.21720 0.77653 0.05600
H 	H 	0.95277 0.21653 0.80923 0.02800
C 	C 	0.09263 0.25398 0.76003 -0.06900
C 	C 	0.11215 0.29127 0.79833 -0.04000
H 	H 	0.09477 0.30323 0.81283 0.04400
H 	H 	0.05497 0.15553 0.77463 -0.03500
H 	H 	0.03737 0.12003 0.66773 0.19000
O 	O 	0.55398 0.52402 0.07507 -0.41500
C 	C 	0.57759 0.52314 0.02971 0.36900
O 	O 	0.56640 0.51169 0.96983 -0.40900
C 	C 	0.62450 0.53762 0.04625 -0.12600
C 	C 	0.65324 0.53864 0.99823 0.06300
H 	H 	0.64323 0.52927 0.95417 0.02200
C 	C 	0.69677 0.55339 0.01433 -0.14800
H 	H 	0.71593 0.55327 0.98127 0.09100
C 	C 	0.71194 0.56761 0.07554 0.10700
C 	C 	0.68280 0.56471 0.12767 -0.13600
H 	H 	0.69253 0.57207 0.17237 0.07800
C 	C 	0.63913 0.55054 0.10987 0.05700
H 	H 	0.61943 0.54987 0.14257 0.02800
C 	C 	0.75929 0.58732 0.09337 -0.06900
C 	C 	0.77881 0.62461 0.13167 -0.04000
H 	H 	0.76143 0.63657 0.14617 0.04400
H 	H 	0.72163 0.48887 0.10797 -0.03500
H 	H 	0.70403 0.45337 0.00107 0.19000
O 	O 	0.22065 0.36330 0.40840 -0.41500
C 	C 	0.24426 0.38779 0.36304 0.36900
O 	O 	0.23307 0.38805 0.30316 -0.40900
C 	C 	0.29117 0.42022 0.37958 -0.12600
C 	C 	0.31991 0.44794 0.33156 0.06400
H 	H 	0.30990 0.44730 0.28750 0.02200
C 	C 	0.36344 0.47672 0.34766 -0.14800
H 	H 	0.38260 0.49600 0.31460 0.09100
C 	C 	0.37861 0.47767 0.40887 0.10700
C 	C 	0.34947 0.45143 0.46100 -0.13600
H 	H 	0.35920 0.45380 0.50570 0.07800
C 	C 	0.30580 0.42193 0.44320 0.05700
H 	H 	0.28610 0.40290 0.47590 0.02700
C 	C 	0.42596 0.50531 0.42670 -0.06900
C 	C 	0.44548 0.48754 0.46500 -0.04000
H 	H 	0.42810 0.45820 0.47950 0.04400
H 	H 	0.38830 0.56610 0.44130 -0.03500
H 	H 	0.37070 0.58400 0.33440 0.19000
O 	O 	0.88732 0.69663 0.74173 -0.41500
C 	C 	0.91093 0.72112 0.69637 0.36900
O 	O 	0.89974 0.72138 0.63649 -0.40900
C 	C 	0.95784 0.75355 0.71291 -0.12600
C 	C 	0.98658 0.78127 0.66489 0.06300
H 	H 	0.97657 0.78063 0.62083 0.02200
C 	C 	0.03011 0.81005 0.68099 -0.14800
H 	H 	0.04927 0.82933 0.64793 0.09100
C 	C 	0.04528 0.81100 0.74220 0.10700
C 	C 	0.01614 0.78476 0.79433 -0.13500
H 	H 	0.02587 0.78713 0.83903 0.07800
C 	C 	0.97247 0.75526 0.77653 0.05600
H 	H 	0.95277 0.73623 0.80923 0.02800
C 	C 	0.09263 0.83864 0.76003 -0.06900
C 	C 	0.11215 0.82087 0.79833 -0.04000
H 	H 	0.09477 0.79153 0.81283 0.04400
H 	H 	0.05497 0.89943 0.77463 -0.03500
H 	H 	0.03737 0.91733 0.66773 0.19000
O 	O 	0.55398 0.02997 0.07507 -0.41500
C 	C 	0.57759 0.05446 0.02971 0.36900
O 	O 	0.56640 0.05472 0.96983 -0.40900
C 	C 	0.62450 0.08689 0.04625 -0.12400
C 	C 	0.65324 0.11461 0.99823 0.06100
H 	H 	0.64323 0.11397 0.95417 0.02300
C 	C 	0.69677 0.14339 0.01433 -0.14600
H 	H 	0.71593 0.16267 0.98127 0.09000
C 	C 	0.71194 0.14434 0.07554 0.10600
C 	C 	0.68280 0.11810 0.12767 -0.13500
H 	H 	0.69253 0.12047 0.17237 0.07800
C 	C 	0.63913 0.08860 0.10987 0.05600
H 	H 	0.61943 0.06957 0.14257 0.02800
C 	C 	0.75929 0.17198 0.09337 -0.06800
C 	C 	0.77881 0.15421 0.13167 -0.04100
H 	H 	0.76143 0.12487 0.14617 0.04500
H 	H 	0.72163 0.23277 0.10797 -0.03500
H 	H 	0.70403 0.25067 0.00107 0.19000
O 	O 	0.63670 0.85735 0.40840 -0.41500
C 	C 	0.61221 0.85647 0.36304 0.36900
O 	O 	0.61195 0.84502 0.30316 -0.40900
C 	C 	0.57978 0.87095 0.37958 -0.12600
C 	C 	0.55206 0.87197 0.33156 0.06400
H 	H 	0.55270 0.86260 0.28750 0.02200
C 	C 	0.52328 0.88672 0.34766 -0.14800
H 	H 	0.50400 0.88660 0.31460 0.09100
C 	C 	0.52233 0.90094 0.40887 0.10700
C 	C 	0.54857 0.89804 0.46100 -0.13600
H 	H 	0.54620 0.90540 0.50570 0.07800
C 	C 	0.57807 0.88387 0.44320 0.05700
H 	H 	0.59710 0.88320 0.47590 0.02700
C 	C 	0.49469 0.92065 0.42670 -0.06900
C 	C 	0.51246 0.95794 0.46500 -0.04000
H 	H 	0.54180 0.96990 0.47950 0.04400
H 	H 	0.43390 0.82220 0.44130 -0.03500
H 	H 	0.41600 0.78670 0.33440 0.19000
O 	O 	0.30337 0.19068 0.74173 -0.41500
C 	C 	0.27888 0.18980 0.69637 0.36900
O 	O 	0.27862 0.17835 0.63649 -0.40900
C 	C 	0.24645 0.20428 0.71291 -0.12600
C 	C 	0.21873 0.20530 0.66489 0.06400
H 	H 	0.21937 0.19593 0.62083 0.02200
C 	C 	0.18995 0.22005 0.68099 -0.14800
H 	H 	0.17067 0.21993 0.64793 0.09100
C 	C 	0.18900 0.23427 0.74220 0.10700
C 	C 	0.21524 0.23137 0.79433 -0.13600
H 	H 	0.21287 0.23873 0.83903 0.07800
C 	C 	0.24474 0.21720 0.77653 0.05700
H 	H 	0.26377 0.21653 0.80923 0.02700
C 	C 	0.16136 0.25398 0.76003 -0.06900
C 	C 	0.17913 0.29127 0.79833 -0.04000
H 	H 	0.20847 0.30323 0.81283 0.04400
H 	H 	0.10057 0.15553 0.77463 -0.03500
H 	H 	0.08267 0.12003 0.66773 0.19000
O 	O 	0.97003 0.52402 0.07507 -0.41500
C 	C 	0.94554 0.52314 0.02971 0.36900
O 	O 	0.94528 0.51169 0.96983 -0.40900
C 	C 	0.91311 0.53762 0.04625 -0.12500
C 	C 	0.88539 0.53864 0.99823 0.06200
H 	H 	0.88603 0.52927 0.95417 0.02300
C 	C 	0.85661 0.55339 0.01433 -0.14700
H 	H 	0.83733 0.55327 0.98127 0.09000
C 	C 	0.85566 0.56761 0.07554 0.10700
C 	C 	0.88190 0.56471 0.12767 -0.13500
H 	H 	0.87953 0.57207 0.17237 0.07800
C 	C 	0.91140 0.55054 0.10987 0.05600
H 	H 	0.93043 0.54987 0.14257 0.02800
C 	C 	0.82802 0.58732 0.09337 -0.06900
C 	C 	0.84579 0.62461 0.13167 -0.04000
H 	H 	0.87513 0.63657 0.14617 0.04500
H 	H 	0.76723 0.48887 0.10797 -0.03500
H 	H 	0.74933 0.45337 0.00107 0.19000
O 	O 	0.14265 0.77935 0.40840 -0.41500
C 	C 	0.14353 0.75574 0.36304 0.36900
O 	O 	0.15498 0.76693 0.30316 -0.40900
C 	C 	0.12905 0.70883 0.37958 -0.12600
C 	C 	0.12803 0.68009 0.33156 0.06400
H 	H 	0.13740 0.69010 0.28750 0.02200
C 	C 	0.11328 0.63656 0.34766 -0.14800
H 	H 	0.11340 0.61740 0.31460 0.09100
C 	C 	0.09906 0.62139 0.40887 0.10700
C 	C 	0.10196 0.65053 0.46100 -0.13600
H 	H 	0.09460 0.64080 0.50570 0.07800
C 	C 	0.11613 0.69420 0.44320 0.05700
H 	H 	0.11680 0.71390 0.47590 0.02700
C 	C 	0.07935 0.57404 0.42670 -0.06900
C 	C 	0.04206 0.55452 0.46500 -0.04000
H 	H 	0.03010 0.57190 0.47950 0.04400
H 	H 	0.17780 0.61170 0.44130 -0.03500
H 	H 	0.21330 0.62930 0.33440 0.19000
O 	O 	0.80932 0.11268 0.74173 -0.41500
C 	C 	0.81020 0.08907 0.69637 0.36900
O 	O 	0.82165 0.10026 0.63649 -0.40900
C 	C 	0.79572 0.04216 0.71291 -0.12600
C 	C 	0.79470 0.01342 0.66489 0.06300
H 	H 	0.80407 0.02343 0.62083 0.02200
C 	C 	0.77995 0.96989 0.68099 -0.14800
H 	H 	0.78007 0.95073 0.64793 0.09100
C 	C 	0.76573 0.95472 0.74220 0.10700
C 	C 	0.76863 0.98386 0.79433 -0.13500
H 	H 	0.76127 0.97413 0.83903 0.07800
C 	C 	0.78280 0.02753 0.77653 0.05600
H 	H 	0.78347 0.04723 0.80923 0.02800
C 	C 	0.74602 0.90737 0.76003 -0.06900
C 	C 	0.70873 0.88785 0.79833 -0.04000
H 	H 	0.69677 0.90523 0.81283 0.04400
H 	H 	0.84447 0.94503 0.77463 -0.03500
H 	H 	0.87997 0.96263 0.66773 0.19000
O 	O 	0.47598 0.44602 0.07507 -0.41500
C 	C 	0.47686 0.42241 0.02971 0.36900
O 	O 	0.48831 0.43360 0.96983 -0.40900
C 	C 	0.46238 0.37550 0.04625 -0.12600
C 	C 	0.46136 0.34676 0.99823 0.06300
H 	H 	0.47073 0.35677 0.95417 0.02200
C 	C 	0.44661 0.30323 0.01433 -0.14800
H 	H 	0.44673 0.28407 0.98127 0.09100
C 	C 	0.43239 0.28806 0.07554 0.10700
C 	C 	0.43529 0.31720 0.12767 -0.13600
H 	H 	0.42793 0.30747 0.17237 0.07800
C 	C 	0.44946 0.36087 0.10987 0.05700
H 	H 	0.45013 0.38057 0.14257 0.02800
C 	C 	0.41268 0.24071 0.09337 -0.06900
C 	C 	0.37539 0.22119 0.13167 -0.04000
H 	H 	0.36343 0.23857 0.14617 0.04400
H 	H 	0.51113 0.27837 0.10797 -0.03500
H 	H 	0.54663 0.29597 0.00107 0.19000
O 	O 	0.36330 0.22065 0.59160 -0.41500
C 	C 	0.38779 0.24426 0.63696 0.36900
O 	O 	0.38805 0.23307 0.69684 -0.40900
C 	C 	0.42022 0.29117 0.62042 -0.12600
C 	C 	0.44794 0.31991 0.66844 0.06400
H 	H 	0.44730 0.30990 0.71250 0.02200
C 	C 	0.47672 0.36344 0.65234 -0.14800
H 	H 	0.49600 0.38260 0.68540 0.09100
C 	C 	0.47767 0.37861 0.59113 0.10700
C 	C 	0.45143 0.34947 0.53900 -0.13600
H 	H 	0.45380 0.35920 0.49430 0.07800
C 	C 	0.42193 0.30580 0.55680 0.05700
H 	H 	0.40290 0.28610 0.52410 0.02700
C 	C 	0.50531 0.42596 0.57330 -0.06900
C 	C 	0.48754 0.44548 0.53500 -0.04000
H 	H 	0.45820 0.42810 0.52050 0.04400
H 	H 	0.56610 0.38830 0.55870 -0.03500
H 	H 	0.58400 0.37070 0.66560 0.19000
O 	O 	0.02997 0.55398 0.92493 -0.41500
C 	C 	0.05446 0.57759 0.97029 0.36900
O 	O 	0.05472 0.56640 0.03017 -0.40900
C 	C 	0.08689 0.62450 0.95375 -0.12400
C 	C 	0.11461 0.65324 0.00177 0.06100
H 	H 	0.11397 0.64323 0.04583 0.02300
C 	C 	0.14339 0.69677 0.98567 -0.14600
H 	H 	0.16267 0.71593 0.01873 0.09000
C 	C 	0.14434 0.71194 0.92446 0.10600
C 	C 	0.11810 0.68280 0.87233 -0.13500
H 	H 	0.12047 0.69253 0.82763 0.07800
C 	C 	0.08860 0.63913 0.89013 0.05600
H 	H 	0.06957 0.61943 0.85743 0.02800
C 	C 	0.17198 0.75929 0.90663 -0.06800
C 	C 	0.15421 0.77881 0.86833 -0.04100
H 	H 	0.12487 0.76143 0.85383 0.04500
H 	H 	0.23277 0.72163 0.89203 -0.03500
H 	H 	0.25067 0.70403 0.99893 0.19000
O 	O 	0.69663 0.88732 0.25827 -0.41500
C 	C 	0.72112 0.91093 0.30363 0.36900
O 	O 	0.72138 0.89974 0.36351 -0.40900
C 	C 	0.75355 0.95784 0.28709 -0.12600
C 	C 	0.78127 0.98658 0.33511 0.06300
H 	H 	0.78063 0.97657 0.37917 0.02200
C 	C 	0.81005 0.03011 0.31901 -0.14800
H 	H 	0.82933 0.04927 0.35207 0.09100
C 	C 	0.81100 0.04528 0.25780 0.10700
C 	C 	0.78476 0.01614 0.20567 -0.13500
H 	H 	0.78713 0.02587 0.16097 0.07800
C 	C 	0.75526 0.97247 0.22347 0.05600
H 	H 	0.73623 0.95277 0.19077 0.02800
C 	C 	0.83864 0.09263 0.23997 -0.06900
C 	C 	0.82087 0.11215 0.20167 -0.04000
H 	H 	0.79153 0.09477 0.18717 0.04400
H 	H 	0.89943 0.05497 0.22537 -0.03500
H 	H 	0.91733 0.03737 0.33227 0.19000
O 	O 	0.85735 0.63670 0.59160 -0.41500
C 	C 	0.85647 0.61221 0.63696 0.36900
O 	O 	0.84502 0.61195 0.69684 -0.40900
C 	C 	0.87095 0.57978 0.62042 -0.12600
C 	C 	0.87197 0.55206 0.66844 0.06400
H 	H 	0.86260 0.55270 0.71250 0.02200
C 	C 	0.88672 0.52328 0.65234 -0.14800
H 	H 	0.88660 0.50400 0.68540 0.09100
C 	C 	0.90094 0.52233 0.59113 0.10700
C 	C 	0.89804 0.54857 0.53900 -0.13600
H 	H 	0.90540 0.54620 0.49430 0.07800
C 	C 	0.88387 0.57807 0.55680 0.05700
H 	H 	0.88320 0.59710 0.52410 0.02700
C 	C 	0.92065 0.49469 0.57330 -0.06900
C 	C 	0.95794 0.51246 0.53500 -0.04000
H 	H 	0.96990 0.54180 0.52050 0.04400
H 	H 	0.82220 0.43390 0.55870 -0.03500
H 	H 	0.78670 0.41600 0.66560 0.19000
O 	O 	0.52402 0.97003 0.92493 -0.41500
C 	C 	0.52314 0.94554 0.97029 0.36900
O 	O 	0.51169 0.94528 0.03017 -0.40900
C 	C 	0.53762 0.91311 0.95375 -0.12500
C 	C 	0.53864 0.88539 0.00177 0.06200
H 	H 	0.52927 0.88603 0.04583 0.02300
C 	C 	0.55339 0.85661 0.98567 -0.14700
H 	H 	0.55327 0.83733 0.01873 0.09000
C 	C 	0.56761 0.85566 0.92446 0.10700
C 	C 	0.56471 0.88190 0.87233 -0.13500
H 	H 	0.57207 0.87953 0.82763 0.07800
C 	C 	0.55054 0.91140 0.89013 0.05600
H 	H 	0.54987 0.93043 0.85743 0.02800
C 	C 	0.58732 0.82802 0.90663 -0.06900
C 	C 	0.62461 0.84579 0.86833 -0.04000
H 	H 	0.63657 0.87513 0.85383 0.04500
H 	H 	0.48887 0.76723 0.89203 -0.03500
H 	H 	0.45337 0.74933 0.99893 0.19000
O 	O 	0.19068 0.30337 0.25827 -0.41500
C 	C 	0.18980 0.27888 0.30363 0.36900
O 	O 	0.17835 0.27862 0.36351 -0.40900
C 	C 	0.20428 0.24645 0.28709 -0.12600
C 	C 	0.20530 0.21873 0.33511 0.06400
H 	H 	0.19593 0.21937 0.37917 0.02200
C 	C 	0.22005 0.18995 0.31901 -0.14800
H 	H 	0.21993 0.17067 0.35207 0.09100
C 	C 	0.23427 0.18900 0.25780 0.10700
C 	C 	0.23137 0.21524 0.20567 -0.13600
H 	H 	0.23873 0.21287 0.16097 0.07800
C 	C 	0.21720 0.24474 0.22347 0.05700
H 	H 	0.21653 0.26377 0.19077 0.02700
C 	C 	0.25398 0.16136 0.23997 -0.06900
C 	C 	0.29127 0.17913 0.20167 -0.04000
H 	H 	0.30323 0.20847 0.18717 0.04400
H 	H 	0.15553 0.10057 0.22537 -0.03500
H 	H 	0.12003 0.08267 0.33227 0.19000
O 	O 	0.77935 0.14265 0.59160 -0.41500
C 	C 	0.75574 0.14353 0.63696 0.36900
O 	O 	0.76693 0.15498 0.69684 -0.40900
C 	C 	0.70883 0.12905 0.62042 -0.12600
C 	C 	0.68009 0.12803 0.66844 0.06400
H 	H 	0.69010 0.13740 0.71250 0.02200
C 	C 	0.63656 0.11328 0.65234 -0.14800
H 	H 	0.61740 0.11340 0.68540 0.09100
C 	C 	0.62139 0.09906 0.59113 0.10700
C 	C 	0.65053 0.10196 0.53900 -0.13600
H 	H 	0.64080 0.09460 0.49430 0.07800
C 	C 	0.69420 0.11613 0.55680 0.05700
H 	H 	0.71390 0.11680 0.52410 0.02700
C 	C 	0.57404 0.07935 0.57330 -0.06900
C 	C 	0.55452 0.04206 0.53500 -0.04000
H 	H 	0.57190 0.03010 0.52050 0.04400
H 	H 	0.61170 0.17780 0.55870 -0.03500
H 	H 	0.62930 0.21330 0.66560 0.19000
O 	O 	0.44602 0.47598 0.92493 -0.41500
C 	C 	0.42241 0.47686 0.97029 0.36900
O 	O 	0.43360 0.48831 0.03017 -0.40900
C 	C 	0.37550 0.46238 0.95375 -0.12600
C 	C 	0.34676 0.46136 0.00177 0.06300
H 	H 	0.35677 0.47073 0.04583 0.02200
C 	C 	0.30323 0.44661 0.98567 -0.14800
H 	H 	0.28407 0.44673 0.01873 0.09100
C 	C 	0.28806 0.43239 0.92446 0.10700
C 	C 	0.31720 0.43529 0.87233 -0.13600
H 	H 	0.30747 0.42793 0.82763 0.07800
C 	C 	0.36087 0.44946 0.89013 0.05700
H 	H 	0.38057 0.45013 0.85743 0.02800
C 	C 	0.24071 0.41268 0.90663 -0.06900
C 	C 	0.22119 0.37539 0.86833 -0.04000
H 	H 	0.23857 0.36343 0.85383 0.04400
H 	H 	0.27837 0.51113 0.89203 -0.03500
H 	H 	0.29597 0.54663 0.99893 0.19000
O 	O 	0.11268 0.80932 0.25827 -0.41500
C 	C 	0.08907 0.81020 0.30363 0.36900
O 	O 	0.10026 0.82165 0.36351 -0.40900
C 	C 	0.04216 0.79572 0.28709 -0.12600
C 	C 	0.01342 0.79470 0.33511 0.06300
H 	H 	0.02343 0.80407 0.37917 0.02200
C 	C 	0.96989 0.77995 0.31901 -0.14800
H 	H 	0.95073 0.78007 0.35207 0.09100
C 	C 	0.95472 0.76573 0.25780 0.10700
C 	C 	0.98386 0.76863 0.20567 -0.13500
H 	H 	0.97413 0.76127 0.16097 0.07800
C 	C 	0.02753 0.78280 0.22347 0.05600
H 	H 	0.04723 0.78347 0.19077 0.02800
C 	C 	0.90737 0.74602 0.23997 -0.06900
C 	C 	0.88785 0.70873 0.20167 -0.04000
H 	H 	0.90523 0.69677 0.18717 0.04400
H 	H 	0.94503 0.84447 0.22537 -0.03500
H 	H 	0.96263 0.87997 0.33227 0.19000
Cu	Cu	0.82620 0.65240 0.72831 0.90400
Cu	Cu	0.49287 0.98573 0.06164 0.90400
Cu	Cu	0.15953 0.31907 0.39498 0.90400
Cu	Cu	0.34760 0.17380 0.72831 0.90400
Cu	Cu	0.01427 0.50713 0.06164 0.90400
Cu	Cu	0.68093 0.84047 0.39498 0.90400
Cu	Cu	0.82620 0.17380 0.72831 0.90400
Cu	Cu	0.49287 0.50713 0.06164 0.90400
Cu	Cu	0.15953 0.84047 0.39498 0.90400
Cu	Cu	0.65240 0.82620 0.27169 0.90400
Cu	Cu	0.31907 0.15953 0.60502 0.90400
Cu	Cu	0.98573 0.49287 0.93836 0.90400
Cu	Cu	0.17380 0.34760 0.27169 0.90400
Cu	Cu	0.84047 0.68093 0.60502 0.90400
Cu	Cu	0.50713 0.01427 0.93836 0.90400
Cu	Cu	0.17380 0.82620 0.27169 0.90400
Cu	Cu	0.84047 0.15953 0.60502 0.90400
Cu	Cu	0.50713 0.49287 0.93836 0.90400
O 	O 	0.56898 0.43102 0.62780 -0.25900
C 	C 	0.51036 0.48964 0.51620 0.00400
C 	C 	0.54955 0.45045 0.59250 0.14200
C 	C 	0.58840 0.41160 0.58730 0.24000
C 	C 	0.60753 0.39247 0.63760 -0.55100
H 	H 	0.62140 0.37860 0.61340 0.17700
O 	O 	0.23565 0.76435 0.96113 -0.25900
C 	C 	0.17703 0.82297 0.84953 0.00500
C 	C 	0.21622 0.78378 0.92583 0.14100
C 	C 	0.25507 0.74493 0.92063 0.23900
C 	C 	0.27420 0.72580 0.97093 -0.55100
H 	H 	0.28807 0.71193 0.94673 0.17800
O 	O 	0.90231 0.09769 0.29447 -0.25900
C 	C 	0.84369 0.15631 0.18287 0.00400
C 	C 	0.88288 0.11712 0.25917 0.14100
C 	C 	0.92173 0.07827 0.25397 0.24000
C 	C 	0.94086 0.05914 0.30427 -0.55100
H 	H 	0.95473 0.04527 0.28007 0.17800
O 	O 	0.56898 0.13796 0.62780 -0.25900
C 	C 	0.51036 0.02072 0.51620 0.00400
C 	C 	0.54955 0.09910 0.59250 0.14200
C 	C 	0.58840 0.17680 0.58730 0.23900
C 	C 	0.60753 0.21506 0.63760 -0.55000
H 	H 	0.62140 0.24280 0.61340 0.17700
O 	O 	0.23565 0.47129 0.96113 -0.25900
C 	C 	0.17703 0.35405 0.84953 0.00500
C 	C 	0.21622 0.43243 0.92583 0.14100
C 	C 	0.25507 0.51013 0.92063 0.24000
C 	C 	0.27420 0.54839 0.97093 -0.55100
H 	H 	0.28807 0.57613 0.94673 0.17800
O 	O 	0.90231 0.80463 0.29447 -0.25900
C 	C 	0.84369 0.68739 0.18287 0.00400
C 	C 	0.88288 0.76577 0.25917 0.14200
C 	C 	0.92173 0.84347 0.25397 0.24000
C 	C 	0.94086 0.88173 0.30427 -0.55100
H 	H 	0.95473 0.90947 0.28007 0.17700
O 	O 	0.86204 0.43102 0.62780 -0.25900
C 	C 	0.97928 0.48964 0.51620 0.00400
C 	C 	0.90090 0.45045 0.59250 0.14200
C 	C 	0.82320 0.41160 0.58730 0.23900
C 	C 	0.78494 0.39247 0.63760 -0.55000
H 	H 	0.75720 0.37860 0.61340 0.17700
O 	O 	0.52871 0.76435 0.96113 -0.25900
C 	C 	0.64595 0.82297 0.84953 0.00500
C 	C 	0.56757 0.78378 0.92583 0.14100
C 	C 	0.48987 0.74493 0.92063 0.24000
C 	C 	0.45161 0.72580 0.97093 -0.55100
H 	H 	0.42387 0.71193 0.94673 0.17800
O 	O 	0.19537 0.09769 0.29447 -0.25900
C 	C 	0.31261 0.15631 0.18287 0.00400
C 	C 	0.23423 0.11712 0.25917 0.14200
C 	C 	0.15653 0.07827 0.25397 0.24000
C 	C 	0.11827 0.05914 0.30427 -0.55100
H 	H 	0.09053 0.04527 0.28007 0.17700
O 	O 	0.43102 0.56898 0.37220 -0.25900
C 	C 	0.48964 0.51036 0.48380 0.00400
C 	C 	0.45045 0.54955 0.40750 0.14200
C 	C 	0.41160 0.58840 0.41270 0.24000
C 	C 	0.39247 0.60753 0.36240 -0.55100
H 	H 	0.37860 0.62140 0.38660 0.17700
O 	O 	0.09769 0.90231 0.70553 -0.25900
C 	C 	0.15631 0.84369 0.81713 0.00400
C 	C 	0.11712 0.88288 0.74083 0.14100
C 	C 	0.07827 0.92173 0.74603 0.24000
C 	C 	0.05914 0.94086 0.69573 -0.55100
H 	H 	0.04527 0.95473 0.71993 0.17800
O 	O 	0.76435 0.23565 0.03887 -0.25900
C 	C 	0.82297 0.17703 0.15047 0.00500
C 	C 	0.78378 0.21622 0.07417 0.14100
C 	C 	0.74493 0.25507 0.07937 0.23900
C 	C 	0.72580 0.27420 0.02907 -0.55100
H 	H 	0.71193 0.28807 0.05327 0.17800
O 	O 	0.13796 0.56898 0.37220 -0.25900
C 	C 	0.02072 0.51036 0.48380 0.00400
C 	C 	0.09910 0.54955 0.40750 0.14200
C 	C 	0.17680 0.58840 0.41270 0.23900
C 	C 	0.21506 0.60753 0.36240 -0.55000
H 	H 	0.24280 0.62140 0.38660 0.17700
O 	O 	0.80463 0.90231 0.70553 -0.25900
C 	C 	0.68739 0.84369 0.81713 0.00400
C 	C 	0.76577 0.88288 0.74083 0.14200
C 	C 	0.84347 0.92173 0.74603 0.24000
C 	C 	0.88173 0.94086 0.69573 -0.55100
H 	H 	0.90947 0.95473 0.71993 0.17700
O 	O 	0.47129 0.23565 0.03887 -0.25900
C 	C 	0.35405 0.17703 0.15047 0.00500
C 	C 	0.43243 0.21622 0.07417 0.14100
C 	C 	0.51013 0.25507 0.07937 0.24000
C 	C 	0.54839 0.27420 0.02907 -0.55100
H 	H 	0.57613 0.28807 0.05327 0.17800
O 	O 	0.43102 0.86204 0.37220 -0.25900
C 	C 	0.48964 0.97928 0.48380 0.00400
C 	C 	0.45045 0.90090 0.40750 0.14200
C 	C 	0.41160 0.82320 0.41270 0.23900
C 	C 	0.39247 0.78494 0.36240 -0.55000
H 	H 	0.37860 0.75720 0.38660 0.17700
O 	O 	0.09769 0.19537 0.70553 -0.25900
C 	C 	0.15631 0.31261 0.81713 0.00400
C 	C 	0.11712 0.23423 0.74083 0.14200
C 	C 	0.07827 0.15653 0.74603 0.24000
C 	C 	0.05914 0.11827 0.69573 -0.55100
H 	H 	0.04527 0.09053 0.71993 0.17700
O 	O 	0.76435 0.52871 0.03887 -0.25900
C 	C 	0.82297 0.64595 0.15047 0.00500
C 	C 	0.78378 0.56757 0.07417 0.14100
C 	C 	0.74493 0.48987 0.07937 0.24000
C 	C 	0.72580 0.45161 0.02907 -0.55100
H 	H 	0.71193 0.42387 0.05327 0.17800
