data_crystal

_cell_length_a 35.28790
_cell_length_b 35.28790
_cell_length_c 20.32410
_cell_angle_alpha 90.00000
_cell_angle_beta  90.00000
_cell_angle_gamma 120.00000

_symmetry_space_group_name_	'P 1'
_symmetry_space_group_name_H-M	'P 1'

loop_
_symmetry_equiv_pos_as_xyz
  x,y,z

loop_
_atom_site_label
_atom_site_type_symbol
_atom_site_fract_x
_atom_site_fract_y
_atom_site_fract_z
_atom_site_charge
O 	O 	0.36319 0.22058 0.59197 -0.41000
O 	O 	0.38864 0.23326 0.69552 -0.41100
C 	C 	0.38808 0.24461 0.63731 0.37200
C 	C 	0.42040 0.29099 0.61927 -0.12900
C 	C 	0.44828 0.31978 0.66715 0.06400
H 	H 	0.44750 0.30980 0.71080 0.02400
C 	C 	0.47709 0.36302 0.65086 -0.14100
H 	H 	0.49640 0.38240 0.68340 0.09000
C 	C 	0.47809 0.37829 0.58812 0.10700
C 	C 	0.45088 0.34874 0.53949 -0.14200
H 	H 	0.45240 0.35830 0.49540 0.08100
C 	C 	0.42189 0.30567 0.55643 0.06600
H 	H 	0.40280 0.28600 0.52400 0.02400
C 	C 	0.50548 0.42568 0.57134 -0.06900
C 	C 	0.48733 0.44550 0.53511 -0.04000
H 	H 	0.45760 0.42850 0.52180 0.04400
H 	H 	0.61120 0.43430 0.55680 -0.01700
H 	H 	0.63150 0.41380 0.66270 0.16900
O 	O 	0.02986 0.55391 0.92530 -0.41100
O 	O 	0.05531 0.56659 0.02885 -0.41200
C 	C 	0.05475 0.57794 0.97064 0.37100
C 	C 	0.08707 0.62432 0.95260 -0.12800
C 	C 	0.11495 0.65311 0.00048 0.06000
H 	H 	0.11417 0.64313 0.04413 0.02400
C 	C 	0.14376 0.69635 0.98419 -0.13900
H 	H 	0.16307 0.71573 0.01673 0.08800
C 	C 	0.14476 0.71162 0.92145 0.10400
C 	C 	0.11755 0.68207 0.87282 -0.14200
H 	H 	0.11907 0.69163 0.82873 0.08000
C 	C 	0.08856 0.63900 0.88976 0.06400
H 	H 	0.06947 0.61933 0.85733 0.02500
C 	C 	0.17215 0.75901 0.90467 -0.06800
C 	C 	0.15400 0.77883 0.86844 -0.04100
H 	H 	0.12427 0.76183 0.85513 0.04400
H 	H 	0.27787 0.76763 0.89013 -0.01700
H 	H 	0.29817 0.74713 0.99603 0.17000
O 	O 	0.69652 0.88725 0.25864 -0.41100
O 	O 	0.72197 0.89993 0.36219 -0.41200
C 	C 	0.72141 0.91128 0.30398 0.37100
C 	C 	0.75373 0.95766 0.28594 -0.12900
C 	C 	0.78161 0.98645 0.33382 0.06200
H 	H 	0.78083 0.97647 0.37747 0.02300
C 	C 	0.81042 0.02969 0.31753 -0.14100
H 	H 	0.82973 0.04907 0.35007 0.08900
C 	C 	0.81142 0.04496 0.25479 0.10500
C 	C 	0.78421 0.01541 0.20616 -0.14200
H 	H 	0.78573 0.02497 0.16207 0.08000
C 	C 	0.75522 0.97234 0.22310 0.06500
H 	H 	0.73613 0.95267 0.19067 0.02400
C 	C 	0.83881 0.09235 0.23801 -0.06900
C 	C 	0.82066 0.11217 0.20178 -0.04000
H 	H 	0.79093 0.09517 0.18847 0.04400
H 	H 	0.94453 0.10097 0.22347 -0.01700
H 	H 	0.96483 0.08047 0.32937 0.16900
O 	O 	0.77942 0.14261 0.59197 -0.41100
O 	O 	0.76674 0.15538 0.69552 -0.41200
C 	C 	0.75539 0.14347 0.63731 0.37100
C 	C 	0.70901 0.12941 0.61927 -0.13000
C 	C 	0.68022 0.12850 0.66715 0.06300
H 	H 	0.69020 0.13770 0.71080 0.02300
C 	C 	0.63698 0.11407 0.65086 -0.14200
H 	H 	0.61760 0.11400 0.68340 0.08900
C 	C 	0.62171 0.09980 0.58812 0.10600
C 	C 	0.65126 0.10214 0.53949 -0.14300
H 	H 	0.64170 0.09410 0.49540 0.08000
C 	C 	0.69433 0.11622 0.55643 0.06500
H 	H 	0.71400 0.11680 0.52400 0.02400
C 	C 	0.57432 0.07980 0.57134 -0.06900
C 	C 	0.55450 0.04183 0.53511 -0.04000
H 	H 	0.57150 0.02910 0.52180 0.04400
H 	H 	0.56570 0.17690 0.55680 -0.01700
H 	H 	0.58620 0.21770 0.66270 0.16900
O 	O 	0.44609 0.47594 0.92530 -0.41100
O 	O 	0.43341 0.48871 0.02885 -0.41200
C 	C 	0.42206 0.47680 0.97064 0.37100
C 	C 	0.37568 0.46274 0.95260 -0.12900
C 	C 	0.34689 0.46183 0.00048 0.06200
H 	H 	0.35687 0.47103 0.04413 0.02300
C 	C 	0.30365 0.44740 0.98419 -0.14100
H 	H 	0.28427 0.44733 0.01673 0.08900
C 	C 	0.28838 0.43313 0.92145 0.10500
C 	C 	0.31793 0.43547 0.87282 -0.14300
H 	H 	0.30837 0.42743 0.82873 0.08000
C 	C 	0.36100 0.44955 0.88976 0.06500
H 	H 	0.38067 0.45013 0.85733 0.02400
C 	C 	0.24099 0.41313 0.90467 -0.06900
C 	C 	0.22117 0.37516 0.86844 -0.04000
H 	H 	0.23817 0.36243 0.85513 0.04400
H 	H 	0.23237 0.51023 0.89013 -0.01700
H 	H 	0.25287 0.55103 0.99603 0.16900
O 	O 	0.11275 0.80928 0.25864 -0.41100
O 	O 	0.10007 0.82205 0.36219 -0.41200
C 	C 	0.08872 0.81014 0.30398 0.37100
C 	C 	0.04234 0.79608 0.28594 -0.12900
C 	C 	0.01355 0.79517 0.33382 0.06200
H 	H 	0.02353 0.80437 0.37747 0.02300
C 	C 	0.97031 0.78074 0.31753 -0.14100
H 	H 	0.95093 0.78067 0.35007 0.08900
C 	C 	0.95504 0.76647 0.25479 0.10500
C 	C 	0.98459 0.76881 0.20616 -0.14200
H 	H 	0.97503 0.76077 0.16207 0.08000
C 	C 	0.02766 0.78289 0.22310 0.06500
H 	H 	0.04733 0.78347 0.19067 0.02400
C 	C 	0.90765 0.74647 0.23801 -0.06900
C 	C 	0.88783 0.70850 0.20178 -0.04000
H 	H 	0.90483 0.69577 0.18847 0.04400
H 	H 	0.89903 0.84357 0.22347 -0.01700
H 	H 	0.91953 0.88437 0.32937 0.16900
O 	O 	0.85739 0.63681 0.59197 -0.41100
O 	O 	0.84462 0.61136 0.69552 -0.41200
C 	C 	0.85653 0.61192 0.63731 0.37100
C 	C 	0.87059 0.57960 0.61927 -0.13000
C 	C 	0.87150 0.55172 0.66715 0.06300
H 	H 	0.86230 0.55250 0.71080 0.02300
C 	C 	0.88593 0.52291 0.65086 -0.14200
H 	H 	0.88600 0.50360 0.68340 0.08900
C 	C 	0.90020 0.52191 0.58812 0.10600
C 	C 	0.89786 0.54912 0.53949 -0.14300
H 	H 	0.90590 0.54760 0.49540 0.08000
C 	C 	0.88378 0.57811 0.55643 0.06500
H 	H 	0.88320 0.59720 0.52400 0.02400
C 	C 	0.92020 0.49452 0.57134 -0.06900
C 	C 	0.95817 0.51267 0.53511 -0.04000
H 	H 	0.97090 0.54240 0.52180 0.04400
H 	H 	0.82310 0.38880 0.55680 -0.01700
H 	H 	0.78230 0.36850 0.66270 0.16900
O 	O 	0.52406 0.97014 0.92530 -0.41100
O 	O 	0.51129 0.94469 0.02885 -0.41200
C 	C 	0.52320 0.94525 0.97064 0.37100
C 	C 	0.53726 0.91293 0.95260 -0.12900
C 	C 	0.53817 0.88505 0.00048 0.06100
H 	H 	0.52897 0.88583 0.04413 0.02300
C 	C 	0.55260 0.85624 0.98419 -0.14000
H 	H 	0.55267 0.83693 0.01673 0.08900
C 	C 	0.56687 0.85524 0.92145 0.10500
C 	C 	0.56453 0.88245 0.87282 -0.14200
H 	H 	0.57257 0.88093 0.82873 0.08000
C 	C 	0.55045 0.91144 0.88976 0.06500
H 	H 	0.54987 0.93053 0.85733 0.02400
C 	C 	0.58687 0.82785 0.90467 -0.06900
C 	C 	0.62484 0.84600 0.86844 -0.04100
H 	H 	0.63757 0.87573 0.85513 0.04400
H 	H 	0.48977 0.72213 0.89013 -0.01700
H 	H 	0.44897 0.70183 0.99603 0.16900
O 	O 	0.19072 0.30348 0.25864 -0.41100
O 	O 	0.17795 0.27803 0.36219 -0.41200
C 	C 	0.18986 0.27859 0.30398 0.37100
C 	C 	0.20392 0.24627 0.28594 -0.13000
C 	C 	0.20483 0.21839 0.33382 0.06300
H 	H 	0.19563 0.21917 0.37747 0.02300
C 	C 	0.21926 0.18958 0.31753 -0.14200
H 	H 	0.21933 0.17027 0.35007 0.08900
C 	C 	0.23353 0.18858 0.25479 0.10600
C 	C 	0.23119 0.21579 0.20616 -0.14300
H 	H 	0.23923 0.21427 0.16207 0.08000
C 	C 	0.21711 0.24478 0.22310 0.06500
H 	H 	0.21653 0.26387 0.19067 0.02400
C 	C 	0.25353 0.16119 0.23801 -0.06900
C 	C 	0.29150 0.17934 0.20178 -0.04000
H 	H 	0.30423 0.20907 0.18847 0.04400
H 	H 	0.15643 0.05547 0.22347 -0.01700
H 	H 	0.11563 0.03517 0.32937 0.16900
O 	O 	0.22058 0.36319 0.40803 -0.41100
O 	O 	0.23326 0.38864 0.30448 -0.41200
C 	C 	0.24461 0.38808 0.36269 0.37100
C 	C 	0.29099 0.42040 0.38073 -0.13000
C 	C 	0.31978 0.44828 0.33285 0.06300
H 	H 	0.30980 0.44750 0.28920 0.02300
C 	C 	0.36302 0.47709 0.34914 -0.14200
H 	H 	0.38240 0.49640 0.31660 0.08900
C 	C 	0.37829 0.47809 0.41188 0.10600
C 	C 	0.34874 0.45088 0.46051 -0.14300
H 	H 	0.35830 0.45240 0.50460 0.08000
C 	C 	0.30567 0.42189 0.44357 0.06500
H 	H 	0.28600 0.40280 0.47600 0.02400
C 	C 	0.42568 0.50548 0.42866 -0.06900
C 	C 	0.44550 0.48733 0.46489 -0.04000
H 	H 	0.42850 0.45760 0.47820 0.04400
H 	H 	0.43430 0.61120 0.44320 -0.01700
H 	H 	0.41380 0.63150 0.33730 0.16900
O 	O 	0.88725 0.69652 0.74136 -0.41100
O 	O 	0.89993 0.72197 0.63781 -0.41200
C 	C 	0.91128 0.72141 0.69602 0.37100
C 	C 	0.95766 0.75373 0.71406 -0.12900
C 	C 	0.98645 0.78161 0.66618 0.06200
H 	H 	0.97647 0.78083 0.62253 0.02300
C 	C 	0.02969 0.81042 0.68247 -0.14100
H 	H 	0.04907 0.82973 0.64993 0.08900
C 	C 	0.04496 0.81142 0.74521 0.10500
C 	C 	0.01541 0.78421 0.79384 -0.14200
H 	H 	0.02497 0.78573 0.83793 0.08000
C 	C 	0.97234 0.75522 0.77690 0.06500
H 	H 	0.95267 0.73613 0.80933 0.02400
C 	C 	0.09235 0.83881 0.76199 -0.06900
C 	C 	0.11217 0.82066 0.79822 -0.04000
H 	H 	0.09517 0.79093 0.81153 0.04400
H 	H 	0.10097 0.94453 0.77653 -0.01700
H 	H 	0.08047 0.96483 0.67063 0.16900
O 	O 	0.55391 0.02986 0.07470 -0.41100
O 	O 	0.56659 0.05531 0.97115 -0.41200
C 	C 	0.57794 0.05475 0.02936 0.37100
C 	C 	0.62432 0.08707 0.04740 -0.12800
C 	C 	0.65311 0.11495 0.99952 0.06000
H 	H 	0.64313 0.11417 0.95587 0.02400
C 	C 	0.69635 0.14376 0.01581 -0.13900
H 	H 	0.71573 0.16307 0.98327 0.08800
C 	C 	0.71162 0.14476 0.07855 0.10400
C 	C 	0.68207 0.11755 0.12718 -0.14200
H 	H 	0.69163 0.11907 0.17127 0.08000
C 	C 	0.63900 0.08856 0.11024 0.06400
H 	H 	0.61933 0.06947 0.14267 0.02500
C 	C 	0.75901 0.17215 0.09533 -0.06800
C 	C 	0.77883 0.15400 0.13156 -0.04100
H 	H 	0.76183 0.12427 0.14487 0.04400
H 	H 	0.76763 0.27787 0.10987 -0.01700
H 	H 	0.74713 0.29817 0.00397 0.17000
O 	O 	0.14261 0.77942 0.40803 -0.41100
O 	O 	0.15538 0.76674 0.30448 -0.41200
C 	C 	0.14347 0.75539 0.36269 0.37100
C 	C 	0.12941 0.70901 0.38073 -0.13000
C 	C 	0.12850 0.68022 0.33285 0.06300
H 	H 	0.13770 0.69020 0.28920 0.02300
C 	C 	0.11407 0.63698 0.34914 -0.14200
H 	H 	0.11400 0.61760 0.31660 0.08900
C 	C 	0.09980 0.62171 0.41188 0.10600
C 	C 	0.10214 0.65126 0.46051 -0.14300
H 	H 	0.09410 0.64170 0.50460 0.08000
C 	C 	0.11622 0.69433 0.44357 0.06500
H 	H 	0.11680 0.71400 0.47600 0.02400
C 	C 	0.07980 0.57432 0.42866 -0.06900
C 	C 	0.04183 0.55450 0.46489 -0.04000
H 	H 	0.02910 0.57150 0.47820 0.04400
H 	H 	0.17690 0.56570 0.44320 -0.01700
H 	H 	0.21770 0.58620 0.33730 0.16900
O 	O 	0.80928 0.11275 0.74136 -0.41100
O 	O 	0.82205 0.10007 0.63781 -0.41200
C 	C 	0.81014 0.08872 0.69602 0.37100
C 	C 	0.79608 0.04234 0.71406 -0.12900
C 	C 	0.79517 0.01355 0.66618 0.06200
H 	H 	0.80437 0.02353 0.62253 0.02300
C 	C 	0.78074 0.97031 0.68247 -0.14100
H 	H 	0.78067 0.95093 0.64993 0.08900
C 	C 	0.76647 0.95504 0.74521 0.10500
C 	C 	0.76881 0.98459 0.79384 -0.14200
H 	H 	0.76077 0.97503 0.83793 0.08000
C 	C 	0.78289 0.02766 0.77690 0.06500
H 	H 	0.78347 0.04733 0.80933 0.02400
C 	C 	0.74647 0.90765 0.76199 -0.06900
C 	C 	0.70850 0.88783 0.79822 -0.04000
H 	H 	0.69577 0.90483 0.81153 0.04400
H 	H 	0.84357 0.89903 0.77653 -0.01700
H 	H 	0.88437 0.91953 0.67063 0.16900
O 	O 	0.47594 0.44609 0.07470 -0.41100
O 	O 	0.48871 0.43341 0.97115 -0.41200
C 	C 	0.47680 0.42206 0.02936 0.37100
C 	C 	0.46274 0.37568 0.04740 -0.12900
C 	C 	0.46183 0.34689 0.99952 0.06200
H 	H 	0.47103 0.35687 0.95587 0.02300
C 	C 	0.44740 0.30365 0.01581 -0.14100
H 	H 	0.44733 0.28427 0.98327 0.08900
C 	C 	0.43313 0.28838 0.07855 0.10500
C 	C 	0.43547 0.31793 0.12718 -0.14300
H 	H 	0.42743 0.30837 0.17127 0.08000
C 	C 	0.44955 0.36100 0.11024 0.06500
H 	H 	0.45013 0.38067 0.14267 0.02400
C 	C 	0.41313 0.24099 0.09533 -0.06900
C 	C 	0.37516 0.22117 0.13156 -0.04000
H 	H 	0.36243 0.23817 0.14487 0.04400
H 	H 	0.51023 0.23237 0.10987 -0.01700
H 	H 	0.55103 0.25287 0.00397 0.16900
O 	O 	0.63681 0.85739 0.40803 -0.41100
O 	O 	0.61136 0.84462 0.30448 -0.41200
C 	C 	0.61192 0.85653 0.36269 0.37100
C 	C 	0.57960 0.87059 0.38073 -0.13000
C 	C 	0.55172 0.87150 0.33285 0.06300
H 	H 	0.55250 0.86230 0.28920 0.02300
C 	C 	0.52291 0.88593 0.34914 -0.14200
H 	H 	0.50360 0.88600 0.31660 0.08900
C 	C 	0.52191 0.90020 0.41188 0.10600
C 	C 	0.54912 0.89786 0.46051 -0.14300
H 	H 	0.54760 0.90590 0.50460 0.08000
C 	C 	0.57811 0.88378 0.44357 0.06500
H 	H 	0.59720 0.88320 0.47600 0.02400
C 	C 	0.49452 0.92020 0.42866 -0.06900
C 	C 	0.51267 0.95817 0.46489 -0.04000
H 	H 	0.54240 0.97090 0.47820 0.04400
H 	H 	0.38880 0.82310 0.44320 -0.01700
H 	H 	0.36850 0.78230 0.33730 0.16900
O 	O 	0.30348 0.19072 0.74136 -0.41100
O 	O 	0.27803 0.17795 0.63781 -0.41200
C 	C 	0.27859 0.18986 0.69602 0.37100
C 	C 	0.24627 0.20392 0.71406 -0.13000
C 	C 	0.21839 0.20483 0.66618 0.06300
H 	H 	0.21917 0.19563 0.62253 0.02300
C 	C 	0.18958 0.21926 0.68247 -0.14200
H 	H 	0.17027 0.21933 0.64993 0.08900
C 	C 	0.18858 0.23353 0.74521 0.10600
C 	C 	0.21579 0.23119 0.79384 -0.14300
H 	H 	0.21427 0.23923 0.83793 0.08000
C 	C 	0.24478 0.21711 0.77690 0.06500
H 	H 	0.26387 0.21653 0.80933 0.02400
C 	C 	0.16119 0.25353 0.76199 -0.06900
C 	C 	0.17934 0.29150 0.79822 -0.04000
H 	H 	0.20907 0.30423 0.81153 0.04400
H 	H 	0.05547 0.15643 0.77653 -0.01700
H 	H 	0.03517 0.11563 0.67063 0.16900
O 	O 	0.97014 0.52406 0.07470 -0.41100
O 	O 	0.94469 0.51129 0.97115 -0.41200
C 	C 	0.94525 0.52320 0.02936 0.37100
C 	C 	0.91293 0.53726 0.04740 -0.12900
C 	C 	0.88505 0.53817 0.99952 0.06100
H 	H 	0.88583 0.52897 0.95587 0.02300
C 	C 	0.85624 0.55260 0.01581 -0.14000
H 	H 	0.83693 0.55267 0.98327 0.08900
C 	C 	0.85524 0.56687 0.07855 0.10500
C 	C 	0.88245 0.56453 0.12718 -0.14200
H 	H 	0.88093 0.57257 0.17127 0.08000
C 	C 	0.91144 0.55045 0.11024 0.06500
H 	H 	0.93053 0.54987 0.14267 0.02400
C 	C 	0.82785 0.58687 0.09533 -0.06900
C 	C 	0.84600 0.62484 0.13156 -0.04100
H 	H 	0.87573 0.63757 0.14487 0.04400
H 	H 	0.72213 0.48977 0.10987 -0.01700
H 	H 	0.70183 0.44897 0.00397 0.16900
O 	O 	0.63681 0.77942 0.40803 -0.41100
O 	O 	0.61136 0.76674 0.30448 -0.41200
C 	C 	0.61192 0.75539 0.36269 0.37100
C 	C 	0.57960 0.70901 0.38073 -0.13000
C 	C 	0.55172 0.68022 0.33285 0.06300
H 	H 	0.55250 0.69020 0.28920 0.02300
C 	C 	0.52291 0.63698 0.34914 -0.14200
H 	H 	0.50360 0.61760 0.31660 0.08900
C 	C 	0.52191 0.62171 0.41188 0.10600
C 	C 	0.54912 0.65126 0.46051 -0.14300
H 	H 	0.54760 0.64170 0.50460 0.08000
C 	C 	0.57811 0.69433 0.44357 0.06500
H 	H 	0.59720 0.71400 0.47600 0.02400
C 	C 	0.49452 0.57432 0.42866 -0.06900
C 	C 	0.51267 0.55450 0.46489 -0.04000
H 	H 	0.54240 0.57150 0.47820 0.04400
H 	H 	0.38880 0.56570 0.44320 -0.01700
H 	H 	0.36850 0.58620 0.33730 0.16900
O 	O 	0.30348 0.11275 0.74136 -0.41100
O 	O 	0.27803 0.10007 0.63781 -0.41200
C 	C 	0.27859 0.08872 0.69602 0.37100
C 	C 	0.24627 0.04234 0.71406 -0.12900
C 	C 	0.21839 0.01355 0.66618 0.06200
H 	H 	0.21917 0.02353 0.62253 0.02300
C 	C 	0.18958 0.97031 0.68247 -0.14100
H 	H 	0.17027 0.95093 0.64993 0.08900
C 	C 	0.18858 0.95504 0.74521 0.10500
C 	C 	0.21579 0.98459 0.79384 -0.14200
H 	H 	0.21427 0.97503 0.83793 0.08000
C 	C 	0.24478 0.02766 0.77690 0.06500
H 	H 	0.26387 0.04733 0.80933 0.02400
C 	C 	0.16119 0.90765 0.76199 -0.06900
C 	C 	0.17934 0.88783 0.79822 -0.04000
H 	H 	0.20907 0.90483 0.81153 0.04400
H 	H 	0.05547 0.89903 0.77653 -0.01700
H 	H 	0.03517 0.91953 0.67063 0.16900
O 	O 	0.97014 0.44609 0.07470 -0.41100
O 	O 	0.94469 0.43341 0.97115 -0.41200
C 	C 	0.94525 0.42206 0.02936 0.37100
C 	C 	0.91293 0.37568 0.04740 -0.12800
C 	C 	0.88505 0.34689 0.99952 0.06000
H 	H 	0.88583 0.35687 0.95587 0.02400
C 	C 	0.85624 0.30365 0.01581 -0.13900
H 	H 	0.83693 0.28427 0.98327 0.08800
C 	C 	0.85524 0.28838 0.07855 0.10400
C 	C 	0.88245 0.31793 0.12718 -0.14200
H 	H 	0.88093 0.30837 0.17127 0.08000
C 	C 	0.91144 0.36100 0.11024 0.06400
H 	H 	0.93053 0.38067 0.14267 0.02500
C 	C 	0.82785 0.24099 0.09533 -0.06800
C 	C 	0.84600 0.22117 0.13156 -0.04100
H 	H 	0.87573 0.23817 0.14487 0.04400
H 	H 	0.72213 0.23237 0.10987 -0.01700
H 	H 	0.70183 0.25287 0.00397 0.17000
O 	O 	0.22058 0.85739 0.40803 -0.41100
O 	O 	0.23326 0.84462 0.30448 -0.41200
C 	C 	0.24461 0.85653 0.36269 0.37100
C 	C 	0.29099 0.87059 0.38073 -0.13000
C 	C 	0.31978 0.87150 0.33285 0.06300
H 	H 	0.30980 0.86230 0.28920 0.02300
C 	C 	0.36302 0.88593 0.34914 -0.14200
H 	H 	0.38240 0.88600 0.31660 0.08900
C 	C 	0.37829 0.90020 0.41188 0.10600
C 	C 	0.34874 0.89786 0.46051 -0.14300
H 	H 	0.35830 0.90590 0.50460 0.08000
C 	C 	0.30567 0.88378 0.44357 0.06500
H 	H 	0.28600 0.88320 0.47600 0.02400
C 	C 	0.42568 0.92020 0.42866 -0.06900
C 	C 	0.44550 0.95817 0.46489 -0.04000
H 	H 	0.42850 0.97090 0.47820 0.04400
H 	H 	0.43430 0.82310 0.44320 -0.01700
H 	H 	0.41380 0.78230 0.33730 0.16900
O 	O 	0.88725 0.19072 0.74136 -0.41100
O 	O 	0.89993 0.17795 0.63781 -0.41200
C 	C 	0.91128 0.18986 0.69602 0.37100
C 	C 	0.95766 0.20392 0.71406 -0.12900
C 	C 	0.98645 0.20483 0.66618 0.06200
H 	H 	0.97647 0.19563 0.62253 0.02300
C 	C 	0.02969 0.21926 0.68247 -0.14100
H 	H 	0.04907 0.21933 0.64993 0.08900
C 	C 	0.04496 0.23353 0.74521 0.10500
C 	C 	0.01541 0.23119 0.79384 -0.14200
H 	H 	0.02497 0.23923 0.83793 0.08000
C 	C 	0.97234 0.21711 0.77690 0.06500
H 	H 	0.95267 0.21653 0.80933 0.02400
C 	C 	0.09235 0.25353 0.76199 -0.06900
C 	C 	0.11217 0.29150 0.79822 -0.04000
H 	H 	0.09517 0.30423 0.81153 0.04400
H 	H 	0.10097 0.15643 0.77653 -0.01700
H 	H 	0.08047 0.11563 0.67063 0.16900
O 	O 	0.55391 0.52406 0.07470 -0.41100
O 	O 	0.56659 0.51129 0.97115 -0.41200
C 	C 	0.57794 0.52320 0.02936 0.37100
C 	C 	0.62432 0.53726 0.04740 -0.12900
C 	C 	0.65311 0.53817 0.99952 0.06200
H 	H 	0.64313 0.52897 0.95587 0.02300
C 	C 	0.69635 0.55260 0.01581 -0.14100
H 	H 	0.71573 0.55267 0.98327 0.08900
C 	C 	0.71162 0.56687 0.07855 0.10500
C 	C 	0.68207 0.56453 0.12718 -0.14300
H 	H 	0.69163 0.57257 0.17127 0.08000
C 	C 	0.63900 0.55045 0.11024 0.06500
H 	H 	0.61933 0.54987 0.14267 0.02400
C 	C 	0.75901 0.58687 0.09533 -0.06900
C 	C 	0.77883 0.62484 0.13156 -0.04000
H 	H 	0.76183 0.63757 0.14487 0.04400
H 	H 	0.76763 0.48977 0.10987 -0.01700
H 	H 	0.74713 0.44897 0.00397 0.16900
O 	O 	0.14261 0.36319 0.40803 -0.41100
O 	O 	0.15538 0.38864 0.30448 -0.41200
C 	C 	0.14347 0.38808 0.36269 0.37100
C 	C 	0.12941 0.42040 0.38073 -0.13000
C 	C 	0.12850 0.44828 0.33285 0.06300
H 	H 	0.13770 0.44750 0.28920 0.02300
C 	C 	0.11407 0.47709 0.34914 -0.14200
H 	H 	0.11400 0.49640 0.31660 0.08900
C 	C 	0.09980 0.47809 0.41188 0.10600
C 	C 	0.10214 0.45088 0.46051 -0.14300
H 	H 	0.09410 0.45240 0.50460 0.08000
C 	C 	0.11622 0.42189 0.44357 0.06500
H 	H 	0.11680 0.40280 0.47600 0.02400
C 	C 	0.07980 0.50548 0.42866 -0.06900
C 	C 	0.04183 0.48733 0.46489 -0.04000
H 	H 	0.02910 0.45760 0.47820 0.04400
H 	H 	0.17690 0.61120 0.44320 -0.01700
H 	H 	0.21770 0.63150 0.33730 0.16900
O 	O 	0.80928 0.69652 0.74136 -0.41100
O 	O 	0.82205 0.72197 0.63781 -0.41200
C 	C 	0.81014 0.72141 0.69602 0.37100
C 	C 	0.79608 0.75373 0.71406 -0.13000
C 	C 	0.79517 0.78161 0.66618 0.06300
H 	H 	0.80437 0.78083 0.62253 0.02300
C 	C 	0.78074 0.81042 0.68247 -0.14200
H 	H 	0.78067 0.82973 0.64993 0.08900
C 	C 	0.76647 0.81142 0.74521 0.10600
C 	C 	0.76881 0.78421 0.79384 -0.14300
H 	H 	0.76077 0.78573 0.83793 0.08000
C 	C 	0.78289 0.75522 0.77690 0.06500
H 	H 	0.78347 0.73613 0.80933 0.02400
C 	C 	0.74647 0.83881 0.76199 -0.06900
C 	C 	0.70850 0.82066 0.79822 -0.04000
H 	H 	0.69577 0.79093 0.81153 0.04400
H 	H 	0.84357 0.94453 0.77653 -0.01700
H 	H 	0.88437 0.96483 0.67063 0.16900
O 	O 	0.47594 0.02986 0.07470 -0.41100
O 	O 	0.48871 0.05531 0.97115 -0.41200
C 	C 	0.47680 0.05475 0.02936 0.37100
C 	C 	0.46274 0.08707 0.04740 -0.12900
C 	C 	0.46183 0.11495 0.99952 0.06100
H 	H 	0.47103 0.11417 0.95587 0.02300
C 	C 	0.44740 0.14376 0.01581 -0.14000
H 	H 	0.44733 0.16307 0.98327 0.08900
C 	C 	0.43313 0.14476 0.07855 0.10500
C 	C 	0.43547 0.11755 0.12718 -0.14200
H 	H 	0.42743 0.11907 0.17127 0.08000
C 	C 	0.44955 0.08856 0.11024 0.06500
H 	H 	0.45013 0.06947 0.14267 0.02400
C 	C 	0.41313 0.17215 0.09533 -0.06900
C 	C 	0.37516 0.15400 0.13156 -0.04100
H 	H 	0.36243 0.12427 0.14487 0.04400
H 	H 	0.51023 0.27787 0.10987 -0.01700
H 	H 	0.55103 0.29817 0.00397 0.16900
O 	O 	0.77942 0.63681 0.59197 -0.41100
O 	O 	0.76674 0.61136 0.69552 -0.41200
C 	C 	0.75539 0.61192 0.63731 0.37100
C 	C 	0.70901 0.57960 0.61927 -0.13000
C 	C 	0.68022 0.55172 0.66715 0.06300
H 	H 	0.69020 0.55250 0.71080 0.02300
C 	C 	0.63698 0.52291 0.65086 -0.14200
H 	H 	0.61760 0.50360 0.68340 0.08900
C 	C 	0.62171 0.52191 0.58812 0.10600
C 	C 	0.65126 0.54912 0.53949 -0.14300
H 	H 	0.64170 0.54760 0.49540 0.08000
C 	C 	0.69433 0.57811 0.55643 0.06500
H 	H 	0.71400 0.59720 0.52400 0.02400
C 	C 	0.57432 0.49452 0.57134 -0.06900
C 	C 	0.55450 0.51267 0.53511 -0.04000
H 	H 	0.57150 0.54240 0.52180 0.04400
H 	H 	0.56570 0.38880 0.55680 -0.01700
H 	H 	0.58620 0.36850 0.66270 0.16900
O 	O 	0.44609 0.97014 0.92530 -0.41100
O 	O 	0.43341 0.94469 0.02885 -0.41200
C 	C 	0.42206 0.94525 0.97064 0.37100
C 	C 	0.37568 0.91293 0.95260 -0.12800
C 	C 	0.34689 0.88505 0.00048 0.06000
H 	H 	0.35687 0.88583 0.04413 0.02400
C 	C 	0.30365 0.85624 0.98419 -0.13900
H 	H 	0.28427 0.83693 0.01673 0.08800
C 	C 	0.28838 0.85524 0.92145 0.10400
C 	C 	0.31793 0.88245 0.87282 -0.14200
H 	H 	0.30837 0.88093 0.82873 0.08000
C 	C 	0.36100 0.91144 0.88976 0.06400
H 	H 	0.38067 0.93053 0.85733 0.02500
C 	C 	0.24099 0.82785 0.90467 -0.06800
C 	C 	0.22117 0.84600 0.86844 -0.04100
H 	H 	0.23817 0.87573 0.85513 0.04400
H 	H 	0.23237 0.72213 0.89013 -0.01700
H 	H 	0.25287 0.70183 0.99603 0.17000
O 	O 	0.11275 0.30348 0.25864 -0.41100
O 	O 	0.10007 0.27803 0.36219 -0.41200
C 	C 	0.08872 0.27859 0.30398 0.37100
C 	C 	0.04234 0.24627 0.28594 -0.12900
C 	C 	0.01355 0.21839 0.33382 0.06200
H 	H 	0.02353 0.21917 0.37747 0.02300
C 	C 	0.97031 0.18958 0.31753 -0.14100
H 	H 	0.95093 0.17027 0.35007 0.08900
C 	C 	0.95504 0.18858 0.25479 0.10500
C 	C 	0.98459 0.21579 0.20616 -0.14200
H 	H 	0.97503 0.21427 0.16207 0.08000
C 	C 	0.02766 0.24478 0.22310 0.06500
H 	H 	0.04733 0.26387 0.19067 0.02400
C 	C 	0.90765 0.16119 0.23801 -0.06900
C 	C 	0.88783 0.17934 0.20178 -0.04000
H 	H 	0.90483 0.20907 0.18847 0.04400
H 	H 	0.89903 0.05547 0.22347 -0.01700
H 	H 	0.91953 0.03517 0.32937 0.16900
O 	O 	0.85739 0.22058 0.59197 -0.41100
O 	O 	0.84462 0.23326 0.69552 -0.41200
C 	C 	0.85653 0.24461 0.63731 0.37100
C 	C 	0.87059 0.29099 0.61927 -0.13000
C 	C 	0.87150 0.31978 0.66715 0.06300
H 	H 	0.86230 0.30980 0.71080 0.02300
C 	C 	0.88593 0.36302 0.65086 -0.14200
H 	H 	0.88600 0.38240 0.68340 0.08900
C 	C 	0.90020 0.37829 0.58812 0.10600
C 	C 	0.89786 0.34874 0.53949 -0.14300
H 	H 	0.90590 0.35830 0.49540 0.08000
C 	C 	0.88378 0.30567 0.55643 0.06500
H 	H 	0.88320 0.28600 0.52400 0.02400
C 	C 	0.92020 0.42568 0.57134 -0.06900
C 	C 	0.95817 0.44550 0.53511 -0.04000
H 	H 	0.97090 0.42850 0.52180 0.04400
H 	H 	0.82310 0.43430 0.55680 -0.01700
H 	H 	0.78230 0.41380 0.66270 0.16900
O 	O 	0.52406 0.55391 0.92530 -0.41100
O 	O 	0.51129 0.56659 0.02885 -0.41200
C 	C 	0.52320 0.57794 0.97064 0.37100
C 	C 	0.53726 0.62432 0.95260 -0.12900
C 	C 	0.53817 0.65311 0.00048 0.06200
H 	H 	0.52897 0.64313 0.04413 0.02300
C 	C 	0.55260 0.69635 0.98419 -0.14100
H 	H 	0.55267 0.71573 0.01673 0.08900
C 	C 	0.56687 0.71162 0.92145 0.10500
C 	C 	0.56453 0.68207 0.87282 -0.14300
H 	H 	0.57257 0.69163 0.82873 0.08000
C 	C 	0.55045 0.63900 0.88976 0.06500
H 	H 	0.54987 0.61933 0.85733 0.02400
C 	C 	0.58687 0.75901 0.90467 -0.06900
C 	C 	0.62484 0.77883 0.86844 -0.04000
H 	H 	0.63757 0.76183 0.85513 0.04400
H 	H 	0.48977 0.76763 0.89013 -0.01700
H 	H 	0.44897 0.74713 0.99603 0.16900
O 	O 	0.19072 0.88725 0.25864 -0.41100
O 	O 	0.17795 0.89993 0.36219 -0.41200
C 	C 	0.18986 0.91128 0.30398 0.37100
C 	C 	0.20392 0.95766 0.28594 -0.12900
C 	C 	0.20483 0.98645 0.33382 0.06200
H 	H 	0.19563 0.97647 0.37747 0.02300
C 	C 	0.21926 0.02969 0.31753 -0.14100
H 	H 	0.21933 0.04907 0.35007 0.08900
C 	C 	0.23353 0.04496 0.25479 0.10500
C 	C 	0.23119 0.01541 0.20616 -0.14200
H 	H 	0.23923 0.02497 0.16207 0.08000
C 	C 	0.21711 0.97234 0.22310 0.06500
H 	H 	0.21653 0.95267 0.19067 0.02400
C 	C 	0.25353 0.09235 0.23801 -0.06900
C 	C 	0.29150 0.11217 0.20178 -0.04000
H 	H 	0.30423 0.09517 0.18847 0.04400
H 	H 	0.15643 0.10097 0.22347 -0.01700
H 	H 	0.11563 0.08047 0.32937 0.16900
O 	O 	0.36319 0.14261 0.59197 -0.41100
O 	O 	0.38864 0.15538 0.69552 -0.41200
C 	C 	0.38808 0.14347 0.63731 0.37100
C 	C 	0.42040 0.12941 0.61927 -0.13000
C 	C 	0.44828 0.12850 0.66715 0.06300
H 	H 	0.44750 0.13770 0.71080 0.02300
C 	C 	0.47709 0.11407 0.65086 -0.14200
H 	H 	0.49640 0.11400 0.68340 0.08900
C 	C 	0.47809 0.09980 0.58812 0.10600
C 	C 	0.45088 0.10214 0.53949 -0.14300
H 	H 	0.45240 0.09410 0.49540 0.08000
C 	C 	0.42189 0.11622 0.55643 0.06500
H 	H 	0.40280 0.11680 0.52400 0.02400
C 	C 	0.50548 0.07980 0.57134 -0.06900
C 	C 	0.48733 0.04183 0.53511 -0.04000
H 	H 	0.45760 0.02910 0.52180 0.04400
H 	H 	0.61120 0.17690 0.55680 -0.01700
H 	H 	0.63150 0.21770 0.66270 0.16900
O 	O 	0.02986 0.47594 0.92530 -0.41100
O 	O 	0.05531 0.48871 0.02885 -0.41200
C 	C 	0.05475 0.47680 0.97064 0.37100
C 	C 	0.08707 0.46274 0.95260 -0.12900
C 	C 	0.11495 0.46183 0.00048 0.06100
H 	H 	0.11417 0.47103 0.04413 0.02300
C 	C 	0.14376 0.44740 0.98419 -0.14000
H 	H 	0.16307 0.44733 0.01673 0.08900
C 	C 	0.14476 0.43313 0.92145 0.10500
C 	C 	0.11755 0.43547 0.87282 -0.14200
H 	H 	0.11907 0.42743 0.82873 0.08000
C 	C 	0.08856 0.44955 0.88976 0.06500
H 	H 	0.06947 0.45013 0.85733 0.02400
C 	C 	0.17215 0.41313 0.90467 -0.06900
C 	C 	0.15400 0.37516 0.86844 -0.04100
H 	H 	0.12427 0.36243 0.85513 0.04400
H 	H 	0.27787 0.51023 0.89013 -0.01700
H 	H 	0.29817 0.55103 0.99603 0.16900
O 	O 	0.69652 0.80928 0.25864 -0.41100
O 	O 	0.72197 0.82205 0.36219 -0.41200
C 	C 	0.72141 0.81014 0.30398 0.37100
C 	C 	0.75373 0.79608 0.28594 -0.13000
C 	C 	0.78161 0.79517 0.33382 0.06300
H 	H 	0.78083 0.80437 0.37747 0.02300
C 	C 	0.81042 0.78074 0.31753 -0.14200
H 	H 	0.82973 0.78067 0.35007 0.08900
C 	C 	0.81142 0.76647 0.25479 0.10600
C 	C 	0.78421 0.76881 0.20616 -0.14300
H 	H 	0.78573 0.76077 0.16207 0.08000
C 	C 	0.75522 0.78289 0.22310 0.06500
H 	H 	0.73613 0.78347 0.19067 0.02400
C 	C 	0.83881 0.74647 0.23801 -0.06900
C 	C 	0.82066 0.70850 0.20178 -0.04000
H 	H 	0.79093 0.69577 0.18847 0.04400
H 	H 	0.94453 0.84357 0.22347 -0.01700
H 	H 	0.96483 0.88437 0.32937 0.16900
Cu	Cu	0.31866 0.15933 0.60574 0.90400
Cu	Cu	0.98533 0.49266 0.93907 0.90400
Cu	Cu	0.65199 0.82600 0.27241 0.90400
Cu	Cu	0.84067 0.15933 0.60574 0.90400
Cu	Cu	0.50734 0.49266 0.93907 0.90400
Cu	Cu	0.17400 0.82600 0.27241 0.90400
Cu	Cu	0.84067 0.68134 0.60574 0.90400
Cu	Cu	0.50734 0.01467 0.93907 0.90400
Cu	Cu	0.17400 0.34801 0.27241 0.90400
Cu	Cu	0.15933 0.31866 0.39426 0.90400
Cu	Cu	0.82600 0.65199 0.72759 0.90400
Cu	Cu	0.49266 0.98533 0.06093 0.90400
Cu	Cu	0.15933 0.84067 0.39426 0.90400
Cu	Cu	0.82600 0.17400 0.72759 0.90400
Cu	Cu	0.49266 0.50734 0.06093 0.90400
Cu	Cu	0.68134 0.84067 0.39426 0.90400
Cu	Cu	0.34801 0.17400 0.72759 0.90400
Cu	Cu	0.01467 0.50734 0.06093 0.90400
O 	O 	0.56912 0.43088 0.62465 -0.25100
C 	C 	0.51064 0.48936 0.51710 0.00500
C 	C 	0.54989 0.45011 0.58930 0.14100
C 	C 	0.58818 0.41182 0.58520 0.18200
C 	C 	0.60930 0.39070 0.63490 -0.48100
H 	H 	0.62280 0.37720 0.60900 0.15800
O 	O 	0.23579 0.76421 0.95798 -0.25000
C 	C 	0.17731 0.82269 0.85043 0.00500
C 	C 	0.21656 0.78344 0.92263 0.14100
C 	C 	0.25485 0.74515 0.91853 0.18200
C 	C 	0.27597 0.72403 0.96823 -0.48100
H 	H 	0.28947 0.71053 0.94233 0.15800
O 	O 	0.90245 0.09755 0.29132 -0.25000
C 	C 	0.84397 0.15603 0.18377 0.00500
C 	C 	0.88322 0.11678 0.25597 0.14100
C 	C 	0.92151 0.07849 0.25187 0.18200
C 	C 	0.94263 0.05737 0.30157 -0.48100
H 	H 	0.95613 0.04387 0.27567 0.15800
O 	O 	0.56912 0.13824 0.62465 -0.25100
C 	C 	0.51064 0.02128 0.51710 0.00500
C 	C 	0.54989 0.09978 0.58930 0.14100
C 	C 	0.58818 0.17636 0.58520 0.18200
C 	C 	0.60930 0.21860 0.63490 -0.48100
H 	H 	0.62280 0.24560 0.60900 0.15800
O 	O 	0.23579 0.47157 0.95798 -0.25000
C 	C 	0.17731 0.35461 0.85043 0.00500
C 	C 	0.21656 0.43311 0.92263 0.14100
C 	C 	0.25485 0.50969 0.91853 0.18200
C 	C 	0.27597 0.55193 0.96823 -0.48100
H 	H 	0.28947 0.57893 0.94233 0.15800
O 	O 	0.90245 0.80491 0.29132 -0.25100
C 	C 	0.84397 0.68795 0.18377 0.00500
C 	C 	0.88322 0.76645 0.25597 0.14100
C 	C 	0.92151 0.84303 0.25187 0.18200
C 	C 	0.94263 0.88527 0.30157 -0.48100
H 	H 	0.95613 0.91227 0.27567 0.15800
O 	O 	0.86176 0.43088 0.62465 -0.25100
C 	C 	0.97872 0.48936 0.51710 0.00500
C 	C 	0.90022 0.45011 0.58930 0.14100
C 	C 	0.82364 0.41182 0.58520 0.18200
C 	C 	0.78140 0.39070 0.63490 -0.48100
H 	H 	0.75440 0.37720 0.60900 0.15800
O 	O 	0.52843 0.76421 0.95798 -0.25000
C 	C 	0.64539 0.82269 0.85043 0.00500
C 	C 	0.56689 0.78344 0.92263 0.14100
C 	C 	0.49031 0.74515 0.91853 0.18200
C 	C 	0.44807 0.72403 0.96823 -0.48100
H 	H 	0.42107 0.71053 0.94233 0.15800
O 	O 	0.19509 0.09755 0.29132 -0.25100
C 	C 	0.31205 0.15603 0.18377 0.00500
C 	C 	0.23355 0.11678 0.25597 0.14100
C 	C 	0.15697 0.07849 0.25187 0.18200
C 	C 	0.11473 0.05737 0.30157 -0.48100
H 	H 	0.08773 0.04387 0.27567 0.15800
O 	O 	0.43088 0.56912 0.37535 -0.25100
C 	C 	0.48936 0.51064 0.48290 0.00500
C 	C 	0.45011 0.54989 0.41070 0.14100
C 	C 	0.41182 0.58818 0.41480 0.18200
C 	C 	0.39070 0.60930 0.36510 -0.48100
H 	H 	0.37720 0.62280 0.39100 0.15800
O 	O 	0.09755 0.90245 0.70868 -0.25000
C 	C 	0.15603 0.84397 0.81623 0.00500
C 	C 	0.11678 0.88322 0.74403 0.14100
C 	C 	0.07849 0.92151 0.74813 0.18200
C 	C 	0.05737 0.94263 0.69843 -0.48100
H 	H 	0.04387 0.95613 0.72433 0.15800
O 	O 	0.76421 0.23579 0.04202 -0.25000
C 	C 	0.82269 0.17731 0.14957 0.00500
C 	C 	0.78344 0.21656 0.07737 0.14100
C 	C 	0.74515 0.25485 0.08147 0.18200
C 	C 	0.72403 0.27597 0.03177 -0.48100
H 	H 	0.71053 0.28947 0.05767 0.15800
O 	O 	0.13824 0.56912 0.37535 -0.25100
C 	C 	0.02128 0.51064 0.48290 0.00500
C 	C 	0.09978 0.54989 0.41070 0.14100
C 	C 	0.17636 0.58818 0.41480 0.18200
C 	C 	0.21860 0.60930 0.36510 -0.48100
H 	H 	0.24560 0.62280 0.39100 0.15800
O 	O 	0.80491 0.90245 0.70868 -0.25100
C 	C 	0.68795 0.84397 0.81623 0.00500
C 	C 	0.76645 0.88322 0.74403 0.14100
C 	C 	0.84303 0.92151 0.74813 0.18200
C 	C 	0.88527 0.94263 0.69843 -0.48100
H 	H 	0.91227 0.95613 0.72433 0.15800
O 	O 	0.47157 0.23579 0.04202 -0.25000
C 	C 	0.35461 0.17731 0.14957 0.00500
C 	C 	0.43311 0.21656 0.07737 0.14100
C 	C 	0.50969 0.25485 0.08147 0.18200
C 	C 	0.55193 0.27597 0.03177 -0.48100
H 	H 	0.57893 0.28947 0.05767 0.15800
O 	O 	0.43088 0.86176 0.37535 -0.25100
C 	C 	0.48936 0.97872 0.48290 0.00500
C 	C 	0.45011 0.90022 0.41070 0.14100
C 	C 	0.41182 0.82364 0.41480 0.18200
C 	C 	0.39070 0.78140 0.36510 -0.48100
H 	H 	0.37720 0.75440 0.39100 0.15800
O 	O 	0.09755 0.19509 0.70868 -0.25100
C 	C 	0.15603 0.31205 0.81623 0.00500
C 	C 	0.11678 0.23355 0.74403 0.14100
C 	C 	0.07849 0.15697 0.74813 0.18200
C 	C 	0.05737 0.11473 0.69843 -0.48100
H 	H 	0.04387 0.08773 0.72433 0.15800
O 	O 	0.76421 0.52843 0.04202 -0.25000
C 	C 	0.82269 0.64539 0.14957 0.00500
C 	C 	0.78344 0.56689 0.07737 0.14100
C 	C 	0.74515 0.49031 0.08147 0.18200
C 	C 	0.72403 0.44807 0.03177 -0.48100
H 	H 	0.71053 0.42107 0.05767 0.15800
