data_crystal

_cell_length_a 35.26960
_cell_length_b 35.26960
_cell_length_c 20.74240
_cell_angle_alpha 90.00000
_cell_angle_beta  90.00000
_cell_angle_gamma 120.00000

_symmetry_space_group_name_	'P 1'
_symmetry_space_group_name_H-M	'P 1'

loop_
_symmetry_equiv_pos_as_xyz
  x,y,z

loop_
_atom_site_label
_atom_site_type_symbol
_atom_site_fract_x
_atom_site_fract_y
_atom_site_fract_z
_atom_site_charge
O 	O 	0.52471 0.97113 0.92496 -0.41100
O 	O 	0.51141 0.94471 0.02638 -0.40900
C 	C 	0.52306 0.94561 0.96826 0.36200
C 	C 	0.53742 0.91322 0.95031 -0.12300
C 	C 	0.53814 0.88528 0.99669 0.05700
H 	H 	0.52870 0.88580 0.03940 0.02400
C 	C 	0.55287 0.85623 0.98052 -0.14100
H 	H 	0.55370 0.83740 0.01250 0.08800
C 	C 	0.56607 0.85484 0.91869 0.10700
C 	C 	0.56325 0.88197 0.87108 -0.14100
H 	H 	0.57060 0.88000 0.82760 0.07800
C 	C 	0.54978 0.91145 0.88776 0.05900
H 	H 	0.54900 0.93050 0.85600 0.02500
C 	C 	0.58495 0.82677 0.90141 -0.07800
C 	C 	0.62440 0.84576 0.86712 -0.03800
H 	H 	0.63750 0.87580 0.85550 0.04300
H 	H 	0.49280 0.72360 0.89000 -0.04100
H 	H 	0.45100 0.74810 0.99350 0.17900
O 	O 	0.19138 0.30446 0.25829 -0.41100
O 	O 	0.17808 0.27804 0.35971 -0.40800
C 	C 	0.18973 0.27894 0.30159 0.36200
C 	C 	0.20409 0.24655 0.28364 -0.12300
C 	C 	0.20481 0.21861 0.33002 0.05600
H 	H 	0.19537 0.21913 0.37273 0.02400
C 	C 	0.21954 0.18956 0.31385 -0.14100
H 	H 	0.22037 0.17073 0.34583 0.08800
C 	C 	0.23274 0.18817 0.25202 0.10700
C 	C 	0.22992 0.21530 0.20441 -0.14100
H 	H 	0.23727 0.21333 0.16093 0.07800
C 	C 	0.21645 0.24478 0.22109 0.05800
H 	H 	0.21567 0.26383 0.18933 0.02600
C 	C 	0.25162 0.16010 0.23474 -0.07800
C 	C 	0.29107 0.17909 0.20045 -0.03700
H 	H 	0.30417 0.20913 0.18883 0.04400
H 	H 	0.15947 0.05693 0.22333 -0.04000
H 	H 	0.11767 0.08143 0.32683 0.18000
O 	O 	0.85804 0.63780 0.59163 -0.41000
O 	O 	0.84474 0.61138 0.69305 -0.40700
C 	C 	0.85639 0.61228 0.63493 0.36300
C 	C 	0.87075 0.57989 0.61698 -0.12200
C 	C 	0.87147 0.55195 0.66336 0.05700
H 	H 	0.86203 0.55247 0.70607 0.02500
C 	C 	0.88620 0.52290 0.64719 -0.14000
H 	H 	0.88703 0.50407 0.67917 0.08900
C 	C 	0.89940 0.52151 0.58536 0.10800
C 	C 	0.89658 0.54864 0.53775 -0.14000
H 	H 	0.90393 0.54667 0.49427 0.07900
C 	C 	0.88311 0.57812 0.55443 0.05900
H 	H 	0.88233 0.59717 0.52267 0.02600
C 	C 	0.91828 0.49344 0.56808 -0.07700
C 	C 	0.95773 0.51243 0.53379 -0.03700
H 	H 	0.97083 0.54247 0.52217 0.04400
H 	H 	0.82613 0.39027 0.55667 -0.04000
H 	H 	0.78433 0.41477 0.66017 0.18000
O 	O 	0.02887 0.55358 0.92496 -0.41000
O 	O 	0.05529 0.56670 0.02638 -0.40800
C 	C 	0.05439 0.57745 0.96826 0.36300
C 	C 	0.08678 0.62420 0.95031 -0.12200
C 	C 	0.11472 0.65286 0.99669 0.05800
H 	H 	0.11420 0.64290 0.03940 0.02400
C 	C 	0.14377 0.69664 0.98052 -0.14000
H 	H 	0.16260 0.71630 0.01250 0.08900
C 	C 	0.14516 0.71123 0.91869 0.10800
C 	C 	0.11803 0.68128 0.87108 -0.14000
H 	H 	0.12000 0.69060 0.82760 0.07900
C 	C 	0.08855 0.63833 0.88776 0.05900
H 	H 	0.06950 0.61850 0.85600 0.02600
C 	C 	0.17323 0.75818 0.90141 -0.07700
C 	C 	0.15424 0.77864 0.86712 -0.03700
H 	H 	0.12420 0.76170 0.85550 0.04400
H 	H 	0.27640 0.76920 0.89000 -0.04000
H 	H 	0.25190 0.70290 0.99350 0.18000
O 	O 	0.69554 0.88691 0.25829 -0.41000
O 	O 	0.72196 0.90003 0.35971 -0.40700
C 	C 	0.72106 0.91078 0.30159 0.36300
C 	C 	0.75345 0.95753 0.28364 -0.12200
C 	C 	0.78139 0.98619 0.33002 0.05700
H 	H 	0.78087 0.97623 0.37273 0.02500
C 	C 	0.81044 0.02997 0.31385 -0.14000
H 	H 	0.82927 0.04963 0.34583 0.08900
C 	C 	0.81183 0.04456 0.25202 0.10800
C 	C 	0.78470 0.01461 0.20441 -0.14000
H 	H 	0.78667 0.02393 0.16093 0.07900
C 	C 	0.75522 0.97166 0.22109 0.05900
H 	H 	0.73617 0.95183 0.18933 0.02600
C 	C 	0.83990 0.09151 0.23474 -0.07700
C 	C 	0.82091 0.11197 0.20045 -0.03700
H 	H 	0.79087 0.09503 0.18883 0.04400
H 	H 	0.94307 0.10253 0.22333 -0.03900
H 	H 	0.91857 0.03623 0.32683 0.18000
O 	O 	0.36220 0.22025 0.59163 -0.41000
O 	O 	0.38862 0.23337 0.69305 -0.40700
C 	C 	0.38772 0.24412 0.63493 0.36300
C 	C 	0.42011 0.29087 0.61698 -0.12200
C 	C 	0.44805 0.31953 0.66336 0.05700
H 	H 	0.44753 0.30957 0.70607 0.02500
C 	C 	0.47710 0.36331 0.64719 -0.14000
H 	H 	0.49593 0.38297 0.67917 0.08900
C 	C 	0.47849 0.37790 0.58536 0.10800
C 	C 	0.45136 0.34795 0.53775 -0.14000
H 	H 	0.45333 0.35727 0.49427 0.07900
C 	C 	0.42188 0.30500 0.55443 0.05900
H 	H 	0.40283 0.28517 0.52267 0.02600
C 	C 	0.50656 0.42485 0.56808 -0.07700
C 	C 	0.48757 0.44531 0.53379 -0.03700
H 	H 	0.45753 0.42837 0.52217 0.04400
H 	H 	0.60973 0.43587 0.55667 -0.04000
H 	H 	0.58523 0.36957 0.66017 0.18000
O 	O 	0.44642 0.47529 0.92496 -0.41000
O 	O 	0.43330 0.48859 0.02638 -0.40700
C 	C 	0.42255 0.47694 0.96826 0.36300
C 	C 	0.37580 0.46258 0.95031 -0.12200
C 	C 	0.34714 0.46186 0.99669 0.05700
H 	H 	0.35710 0.47130 0.03940 0.02500
C 	C 	0.30336 0.44713 0.98052 -0.14000
H 	H 	0.28370 0.44630 0.01250 0.08900
C 	C 	0.28877 0.43393 0.91869 0.10800
C 	C 	0.31872 0.43675 0.87108 -0.14000
H 	H 	0.30940 0.42940 0.82760 0.07900
C 	C 	0.36167 0.45022 0.88776 0.05900
H 	H 	0.38150 0.45100 0.85600 0.02600
C 	C 	0.24182 0.41505 0.90141 -0.07700
C 	C 	0.22136 0.37560 0.86712 -0.03700
H 	H 	0.23830 0.36250 0.85550 0.04400
H 	H 	0.23080 0.50720 0.89000 -0.04000
H 	H 	0.29710 0.54900 0.99350 0.18000
O 	O 	0.11309 0.80862 0.25829 -0.41000
O 	O 	0.09997 0.82192 0.35971 -0.40700
C 	C 	0.08922 0.81027 0.30159 0.36300
C 	C 	0.04247 0.79591 0.28364 -0.12200
C 	C 	0.01381 0.79519 0.33002 0.05700
H 	H 	0.02377 0.80463 0.37273 0.02500
C 	C 	0.97003 0.78046 0.31385 -0.14000
H 	H 	0.95037 0.77963 0.34583 0.08900
C 	C 	0.95544 0.76726 0.25202 0.10800
C 	C 	0.98539 0.77008 0.20441 -0.14000
H 	H 	0.97607 0.76273 0.16093 0.07900
C 	C 	0.02834 0.78355 0.22109 0.05900
H 	H 	0.04817 0.78433 0.18933 0.02600
C 	C 	0.90849 0.74838 0.23474 -0.07700
C 	C 	0.88803 0.70893 0.20045 -0.03700
H 	H 	0.90497 0.69583 0.18883 0.04400
H 	H 	0.89747 0.84053 0.22333 -0.04000
H 	H 	0.96377 0.88233 0.32683 0.18000
O 	O 	0.77975 0.14196 0.59163 -0.41000
O 	O 	0.76663 0.15526 0.69305 -0.40700
C 	C 	0.75588 0.14361 0.63493 0.36300
C 	C 	0.70913 0.12925 0.61698 -0.12200
C 	C 	0.68047 0.12853 0.66336 0.05700
H 	H 	0.69043 0.13797 0.70607 0.02500
C 	C 	0.63669 0.11380 0.64719 -0.14000
H 	H 	0.61703 0.11297 0.67917 0.08900
C 	C 	0.62210 0.10060 0.58536 0.10800
C 	C 	0.65205 0.10342 0.53775 -0.14000
H 	H 	0.64273 0.09607 0.49427 0.07900
C 	C 	0.69500 0.11689 0.55443 0.05900
H 	H 	0.71483 0.11767 0.52267 0.02600
C 	C 	0.57515 0.08172 0.56808 -0.07800
C 	C 	0.55469 0.04227 0.53379 -0.03700
H 	H 	0.57163 0.02917 0.52217 0.04400
H 	H 	0.56413 0.17387 0.55667 -0.04000
H 	H 	0.63043 0.21567 0.66017 0.18000
O 	O 	0.97113 0.52471 0.07504 -0.41000
O 	O 	0.94471 0.51141 0.97362 -0.40800
C 	C 	0.94561 0.52306 0.03174 0.36300
C 	C 	0.91322 0.53742 0.04969 -0.12200
C 	C 	0.88528 0.53814 0.00331 0.05800
H 	H 	0.88580 0.52870 0.96060 0.02500
C 	C 	0.85623 0.55287 0.01948 -0.14000
H 	H 	0.83740 0.55370 0.98750 0.08900
C 	C 	0.85484 0.56607 0.08131 0.10800
C 	C 	0.88197 0.56325 0.12892 -0.14000
H 	H 	0.88000 0.57060 0.17240 0.07900
C 	C 	0.91145 0.54978 0.11224 0.06000
H 	H 	0.93050 0.54900 0.14400 0.02600
C 	C 	0.82677 0.58495 0.09859 -0.07700
C 	C 	0.84576 0.62440 0.13288 -0.03700
H 	H 	0.87580 0.63750 0.14450 0.04400
H 	H 	0.72360 0.49280 0.11000 -0.04000
H 	H 	0.74810 0.45100 0.00650 0.18000
O 	O 	0.63780 0.85804 0.40837 -0.41000
O 	O 	0.61138 0.84474 0.30695 -0.40700
C 	C 	0.61228 0.85639 0.36507 0.36300
C 	C 	0.57989 0.87075 0.38302 -0.12200
C 	C 	0.55195 0.87147 0.33664 0.05700
H 	H 	0.55247 0.86203 0.29393 0.02500
C 	C 	0.52290 0.88620 0.35281 -0.14000
H 	H 	0.50407 0.88703 0.32083 0.08900
C 	C 	0.52151 0.89940 0.41464 0.10800
C 	C 	0.54864 0.89658 0.46225 -0.14000
H 	H 	0.54667 0.90393 0.50573 0.07900
C 	C 	0.57812 0.88311 0.44557 0.05900
H 	H 	0.59717 0.88233 0.47733 0.02600
C 	C 	0.49344 0.91828 0.43192 -0.07700
C 	C 	0.51243 0.95773 0.46621 -0.03700
H 	H 	0.54247 0.97083 0.47783 0.04400
H 	H 	0.39027 0.82613 0.44333 -0.04000
H 	H 	0.41477 0.78433 0.33983 0.18000
O 	O 	0.30446 0.19138 0.74171 -0.41000
O 	O 	0.27804 0.17808 0.64029 -0.40700
C 	C 	0.27894 0.18973 0.69841 0.36300
C 	C 	0.24655 0.20409 0.71636 -0.12200
C 	C 	0.21861 0.20481 0.66998 0.05700
H 	H 	0.21913 0.19537 0.62727 0.02500
C 	C 	0.18956 0.21954 0.68615 -0.14000
H 	H 	0.17073 0.22037 0.65417 0.08900
C 	C 	0.18817 0.23274 0.74798 0.10800
C 	C 	0.21530 0.22992 0.79559 -0.14000
H 	H 	0.21333 0.23727 0.83907 0.07900
C 	C 	0.24478 0.21645 0.77891 0.05900
H 	H 	0.26383 0.21567 0.81067 0.02600
C 	C 	0.16010 0.25162 0.76526 -0.07800
C 	C 	0.17909 0.29107 0.79955 -0.03700
H 	H 	0.20913 0.30417 0.81117 0.04400
H 	H 	0.05693 0.15947 0.77667 -0.04000
H 	H 	0.08143 0.11767 0.67317 0.18000
O 	O 	0.55358 0.02887 0.07504 -0.41000
O 	O 	0.56670 0.05529 0.97362 -0.40800
C 	C 	0.57745 0.05439 0.03174 0.36300
C 	C 	0.62420 0.08678 0.04969 -0.12200
C 	C 	0.65286 0.11472 0.00331 0.05800
H 	H 	0.64290 0.11420 0.96060 0.02400
C 	C 	0.69664 0.14377 0.01948 -0.14000
H 	H 	0.71630 0.16260 0.98750 0.08900
C 	C 	0.71123 0.14516 0.08131 0.10800
C 	C 	0.68128 0.11803 0.12892 -0.14000
H 	H 	0.69060 0.12000 0.17240 0.07900
C 	C 	0.63833 0.08855 0.11224 0.05900
H 	H 	0.61850 0.06950 0.14400 0.02600
C 	C 	0.75818 0.17323 0.09859 -0.07700
C 	C 	0.77864 0.15424 0.13288 -0.03700
H 	H 	0.76170 0.12420 0.14450 0.04400
H 	H 	0.76920 0.27640 0.11000 -0.04000
H 	H 	0.70290 0.25190 0.00650 0.18000
O 	O 	0.22025 0.36220 0.40837 -0.41000
O 	O 	0.23337 0.38862 0.30695 -0.40700
C 	C 	0.24412 0.38772 0.36507 0.36300
C 	C 	0.29087 0.42011 0.38302 -0.12200
C 	C 	0.31953 0.44805 0.33664 0.05700
H 	H 	0.30957 0.44753 0.29393 0.02500
C 	C 	0.36331 0.47710 0.35281 -0.14000
H 	H 	0.38297 0.49593 0.32083 0.08900
C 	C 	0.37790 0.47849 0.41464 0.10800
C 	C 	0.34795 0.45136 0.46225 -0.14000
H 	H 	0.35727 0.45333 0.50573 0.07900
C 	C 	0.30500 0.42188 0.44557 0.05900
H 	H 	0.28517 0.40283 0.47733 0.02600
C 	C 	0.42485 0.50656 0.43192 -0.07700
C 	C 	0.44531 0.48757 0.46621 -0.03700
H 	H 	0.42837 0.45753 0.47783 0.04400
H 	H 	0.43587 0.60973 0.44333 -0.04000
H 	H 	0.36957 0.58523 0.33983 0.18000
O 	O 	0.88691 0.69554 0.74171 -0.41000
O 	O 	0.90003 0.72196 0.64029 -0.40700
C 	C 	0.91078 0.72106 0.69841 0.36300
C 	C 	0.95753 0.75345 0.71636 -0.12200
C 	C 	0.98619 0.78139 0.66998 0.05700
H 	H 	0.97623 0.78087 0.62727 0.02500
C 	C 	0.02997 0.81044 0.68615 -0.14000
H 	H 	0.04963 0.82927 0.65417 0.08900
C 	C 	0.04456 0.81183 0.74798 0.10800
C 	C 	0.01461 0.78470 0.79559 -0.14000
H 	H 	0.02393 0.78667 0.83907 0.07900
C 	C 	0.97166 0.75522 0.77891 0.05900
H 	H 	0.95183 0.73617 0.81067 0.02600
C 	C 	0.09151 0.83990 0.76526 -0.07700
C 	C 	0.11197 0.82091 0.79955 -0.03700
H 	H 	0.09503 0.79087 0.81117 0.04400
H 	H 	0.10253 0.94307 0.77667 -0.03900
H 	H 	0.03623 0.91857 0.67317 0.18000
O 	O 	0.47529 0.44642 0.07504 -0.41000
O 	O 	0.48859 0.43330 0.97362 -0.40700
C 	C 	0.47694 0.42255 0.03174 0.36300
C 	C 	0.46258 0.37580 0.04969 -0.12200
C 	C 	0.46186 0.34714 0.00331 0.05700
H 	H 	0.47130 0.35710 0.96060 0.02500
C 	C 	0.44713 0.30336 0.01948 -0.14000
H 	H 	0.44630 0.28370 0.98750 0.08900
C 	C 	0.43393 0.28877 0.08131 0.10800
C 	C 	0.43675 0.31872 0.12892 -0.14000
H 	H 	0.42940 0.30940 0.17240 0.07900
C 	C 	0.45022 0.36167 0.11224 0.05900
H 	H 	0.45100 0.38150 0.14400 0.02600
C 	C 	0.41505 0.24182 0.09859 -0.07700
C 	C 	0.37560 0.22136 0.13288 -0.03700
H 	H 	0.36250 0.23830 0.14450 0.04400
H 	H 	0.50720 0.23080 0.11000 -0.04000
H 	H 	0.54900 0.29710 0.00650 0.18000
O 	O 	0.14196 0.77975 0.40837 -0.41000
O 	O 	0.15526 0.76663 0.30695 -0.40700
C 	C 	0.14361 0.75588 0.36507 0.36300
C 	C 	0.12925 0.70913 0.38302 -0.12200
C 	C 	0.12853 0.68047 0.33664 0.05700
H 	H 	0.13797 0.69043 0.29393 0.02500
C 	C 	0.11380 0.63669 0.35281 -0.14000
H 	H 	0.11297 0.61703 0.32083 0.08900
C 	C 	0.10060 0.62210 0.41464 0.10800
C 	C 	0.10342 0.65205 0.46225 -0.14000
H 	H 	0.09607 0.64273 0.50573 0.07900
C 	C 	0.11689 0.69500 0.44557 0.05900
H 	H 	0.11767 0.71483 0.47733 0.02600
C 	C 	0.08172 0.57515 0.43192 -0.07800
C 	C 	0.04227 0.55469 0.46621 -0.03700
H 	H 	0.02917 0.57163 0.47783 0.04400
H 	H 	0.17387 0.56413 0.44333 -0.04000
H 	H 	0.21567 0.63043 0.33983 0.18000
O 	O 	0.80862 0.11309 0.74171 -0.41000
O 	O 	0.82192 0.09997 0.64029 -0.40700
C 	C 	0.81027 0.08922 0.69841 0.36300
C 	C 	0.79591 0.04247 0.71636 -0.12200
C 	C 	0.79519 0.01381 0.66998 0.05700
H 	H 	0.80463 0.02377 0.62727 0.02500
C 	C 	0.78046 0.97003 0.68615 -0.14000
H 	H 	0.77963 0.95037 0.65417 0.08900
C 	C 	0.76726 0.95544 0.74798 0.10800
C 	C 	0.77008 0.98539 0.79559 -0.14000
H 	H 	0.76273 0.97607 0.83907 0.07900
C 	C 	0.78355 0.02834 0.77891 0.05900
H 	H 	0.78433 0.04817 0.81067 0.02600
C 	C 	0.74838 0.90849 0.76526 -0.07700
C 	C 	0.70893 0.88803 0.79955 -0.03700
H 	H 	0.69583 0.90497 0.81117 0.04400
H 	H 	0.84053 0.89747 0.77667 -0.04000
H 	H 	0.88233 0.96377 0.67317 0.18000
O 	O 	0.47529 0.02887 0.07504 -0.41000
O 	O 	0.48859 0.05529 0.97362 -0.40800
C 	C 	0.47694 0.05439 0.03174 0.36300
C 	C 	0.46258 0.08678 0.04969 -0.12200
C 	C 	0.46186 0.11472 0.00331 0.05800
H 	H 	0.47130 0.11420 0.96060 0.02500
C 	C 	0.44713 0.14377 0.01948 -0.14000
H 	H 	0.44630 0.16260 0.98750 0.08900
C 	C 	0.43393 0.14516 0.08131 0.10800
C 	C 	0.43675 0.11803 0.12892 -0.14000
H 	H 	0.42940 0.12000 0.17240 0.07900
C 	C 	0.45022 0.08855 0.11224 0.06000
H 	H 	0.45100 0.06950 0.14400 0.02600
C 	C 	0.41505 0.17323 0.09859 -0.07700
C 	C 	0.37560 0.15424 0.13288 -0.03700
H 	H 	0.36250 0.12420 0.14450 0.04400
H 	H 	0.50720 0.27640 0.11000 -0.04000
H 	H 	0.54900 0.25190 0.00650 0.18000
O 	O 	0.14196 0.36220 0.40837 -0.41000
O 	O 	0.15526 0.38862 0.30695 -0.40700
C 	C 	0.14361 0.38772 0.36507 0.36300
C 	C 	0.12925 0.42011 0.38302 -0.12200
C 	C 	0.12853 0.44805 0.33664 0.05700
H 	H 	0.13797 0.44753 0.29393 0.02500
C 	C 	0.11380 0.47710 0.35281 -0.14000
H 	H 	0.11297 0.49593 0.32083 0.08900
C 	C 	0.10060 0.47849 0.41464 0.10800
C 	C 	0.10342 0.45136 0.46225 -0.14000
H 	H 	0.09607 0.45333 0.50573 0.07900
C 	C 	0.11689 0.42188 0.44557 0.05900
H 	H 	0.11767 0.40283 0.47733 0.02600
C 	C 	0.08172 0.50656 0.43192 -0.07700
C 	C 	0.04227 0.48757 0.46621 -0.03700
H 	H 	0.02917 0.45753 0.47783 0.04400
H 	H 	0.17387 0.60973 0.44333 -0.04000
H 	H 	0.21567 0.58523 0.33983 0.18000
O 	O 	0.80862 0.69554 0.74171 -0.41000
O 	O 	0.82192 0.72196 0.64029 -0.40700
C 	C 	0.81027 0.72106 0.69841 0.36300
C 	C 	0.79591 0.75345 0.71636 -0.12200
C 	C 	0.79519 0.78139 0.66998 0.05700
H 	H 	0.80463 0.78087 0.62727 0.02500
C 	C 	0.78046 0.81044 0.68615 -0.14000
H 	H 	0.77963 0.82927 0.65417 0.08900
C 	C 	0.76726 0.81183 0.74798 0.10800
C 	C 	0.77008 0.78470 0.79559 -0.14000
H 	H 	0.76273 0.78667 0.83907 0.07900
C 	C 	0.78355 0.75522 0.77891 0.05900
H 	H 	0.78433 0.73617 0.81067 0.02600
C 	C 	0.74838 0.83990 0.76526 -0.07800
C 	C 	0.70893 0.82091 0.79955 -0.03700
H 	H 	0.69583 0.79087 0.81117 0.04400
H 	H 	0.84053 0.94307 0.77667 -0.04000
H 	H 	0.88233 0.91857 0.67317 0.18000
O 	O 	0.97113 0.44642 0.07504 -0.41000
O 	O 	0.94471 0.43330 0.97362 -0.40800
C 	C 	0.94561 0.42255 0.03174 0.36300
C 	C 	0.91322 0.37580 0.04969 -0.12200
C 	C 	0.88528 0.34714 0.00331 0.05800
H 	H 	0.88580 0.35710 0.96060 0.02400
C 	C 	0.85623 0.30336 0.01948 -0.14000
H 	H 	0.83740 0.28370 0.98750 0.08900
C 	C 	0.85484 0.28877 0.08131 0.10800
C 	C 	0.88197 0.31872 0.12892 -0.14000
H 	H 	0.88000 0.30940 0.17240 0.07900
C 	C 	0.91145 0.36167 0.11224 0.05900
H 	H 	0.93050 0.38150 0.14400 0.02600
C 	C 	0.82677 0.24182 0.09859 -0.07700
C 	C 	0.84576 0.22136 0.13288 -0.03700
H 	H 	0.87580 0.23830 0.14450 0.04400
H 	H 	0.72360 0.23080 0.11000 -0.04000
H 	H 	0.74810 0.29710 0.00650 0.18000
O 	O 	0.63780 0.77975 0.40837 -0.41000
O 	O 	0.61138 0.76663 0.30695 -0.40700
C 	C 	0.61228 0.75588 0.36507 0.36300
C 	C 	0.57989 0.70913 0.38302 -0.12200
C 	C 	0.55195 0.68047 0.33664 0.05700
H 	H 	0.55247 0.69043 0.29393 0.02500
C 	C 	0.52290 0.63669 0.35281 -0.14000
H 	H 	0.50407 0.61703 0.32083 0.08900
C 	C 	0.52151 0.62210 0.41464 0.10800
C 	C 	0.54864 0.65205 0.46225 -0.14000
H 	H 	0.54667 0.64273 0.50573 0.07900
C 	C 	0.57812 0.69500 0.44557 0.05900
H 	H 	0.59717 0.71483 0.47733 0.02600
C 	C 	0.49344 0.57515 0.43192 -0.07700
C 	C 	0.51243 0.55469 0.46621 -0.03700
H 	H 	0.54247 0.57163 0.47783 0.04400
H 	H 	0.39027 0.56413 0.44333 -0.04000
H 	H 	0.41477 0.63043 0.33983 0.18000
O 	O 	0.30446 0.11309 0.74171 -0.41000
O 	O 	0.27804 0.09997 0.64029 -0.40700
C 	C 	0.27894 0.08922 0.69841 0.36300
C 	C 	0.24655 0.04247 0.71636 -0.12200
C 	C 	0.21861 0.01381 0.66998 0.05700
H 	H 	0.21913 0.02377 0.62727 0.02500
C 	C 	0.18956 0.97003 0.68615 -0.14000
H 	H 	0.17073 0.95037 0.65417 0.08900
C 	C 	0.18817 0.95544 0.74798 0.10800
C 	C 	0.21530 0.98539 0.79559 -0.14000
H 	H 	0.21333 0.97607 0.83907 0.07900
C 	C 	0.24478 0.02834 0.77891 0.05900
H 	H 	0.26383 0.04817 0.81067 0.02600
C 	C 	0.16010 0.90849 0.76526 -0.07700
C 	C 	0.17909 0.88803 0.79955 -0.03700
H 	H 	0.20913 0.90497 0.81117 0.04400
H 	H 	0.05693 0.89747 0.77667 -0.03900
H 	H 	0.08143 0.96377 0.67317 0.18000
O 	O 	0.55358 0.52471 0.07504 -0.41000
O 	O 	0.56670 0.51141 0.97362 -0.40700
C 	C 	0.57745 0.52306 0.03174 0.36300
C 	C 	0.62420 0.53742 0.04969 -0.12200
C 	C 	0.65286 0.53814 0.00331 0.05700
H 	H 	0.64290 0.52870 0.96060 0.02500
C 	C 	0.69664 0.55287 0.01948 -0.14000
H 	H 	0.71630 0.55370 0.98750 0.08900
C 	C 	0.71123 0.56607 0.08131 0.10800
C 	C 	0.68128 0.56325 0.12892 -0.14000
H 	H 	0.69060 0.57060 0.17240 0.07900
C 	C 	0.63833 0.54978 0.11224 0.05900
H 	H 	0.61850 0.54900 0.14400 0.02600
C 	C 	0.75818 0.58495 0.09859 -0.07700
C 	C 	0.77864 0.62440 0.13288 -0.03700
H 	H 	0.76170 0.63750 0.14450 0.04400
H 	H 	0.76920 0.49280 0.11000 -0.04000
H 	H 	0.70290 0.45100 0.00650 0.18000
O 	O 	0.22025 0.85804 0.40837 -0.41000
O 	O 	0.23337 0.84474 0.30695 -0.40700
C 	C 	0.24412 0.85639 0.36507 0.36300
C 	C 	0.29087 0.87075 0.38302 -0.12200
C 	C 	0.31953 0.87147 0.33664 0.05700
H 	H 	0.30957 0.86203 0.29393 0.02500
C 	C 	0.36331 0.88620 0.35281 -0.14000
H 	H 	0.38297 0.88703 0.32083 0.08900
C 	C 	0.37790 0.89940 0.41464 0.10800
C 	C 	0.34795 0.89658 0.46225 -0.14000
H 	H 	0.35727 0.90393 0.50573 0.07900
C 	C 	0.30500 0.88311 0.44557 0.05900
H 	H 	0.28517 0.88233 0.47733 0.02600
C 	C 	0.42485 0.91828 0.43192 -0.07800
C 	C 	0.44531 0.95773 0.46621 -0.03700
H 	H 	0.42837 0.97083 0.47783 0.04400
H 	H 	0.43587 0.82613 0.44333 -0.04000
H 	H 	0.36957 0.78433 0.33983 0.18000
O 	O 	0.88691 0.19138 0.74171 -0.41000
O 	O 	0.90003 0.17808 0.64029 -0.40700
C 	C 	0.91078 0.18973 0.69841 0.36300
C 	C 	0.95753 0.20409 0.71636 -0.12200
C 	C 	0.98619 0.20481 0.66998 0.05700
H 	H 	0.97623 0.19537 0.62727 0.02500
C 	C 	0.02997 0.21954 0.68615 -0.14000
H 	H 	0.04963 0.22037 0.65417 0.08900
C 	C 	0.04456 0.23274 0.74798 0.10800
C 	C 	0.01461 0.22992 0.79559 -0.14000
H 	H 	0.02393 0.23727 0.83907 0.07900
C 	C 	0.97166 0.21645 0.77891 0.05900
H 	H 	0.95183 0.21567 0.81067 0.02600
C 	C 	0.09151 0.25162 0.76526 -0.07700
C 	C 	0.11197 0.29107 0.79955 -0.03700
H 	H 	0.09503 0.30417 0.81117 0.04400
H 	H 	0.10253 0.15947 0.77667 -0.04000
H 	H 	0.03623 0.11767 0.67317 0.18000
O 	O 	0.02887 0.47529 0.92496 -0.41000
O 	O 	0.05529 0.48859 0.02638 -0.40800
C 	C 	0.05439 0.47694 0.96826 0.36300
C 	C 	0.08678 0.46258 0.95031 -0.12200
C 	C 	0.11472 0.46186 0.99669 0.05800
H 	H 	0.11420 0.47130 0.03940 0.02500
C 	C 	0.14377 0.44713 0.98052 -0.14000
H 	H 	0.16260 0.44630 0.01250 0.08900
C 	C 	0.14516 0.43393 0.91869 0.10800
C 	C 	0.11803 0.43675 0.87108 -0.14000
H 	H 	0.12000 0.42940 0.82760 0.07900
C 	C 	0.08855 0.45022 0.88776 0.06000
H 	H 	0.06950 0.45100 0.85600 0.02600
C 	C 	0.17323 0.41505 0.90141 -0.07700
C 	C 	0.15424 0.37560 0.86712 -0.03700
H 	H 	0.12420 0.36250 0.85550 0.04400
H 	H 	0.27640 0.50720 0.89000 -0.04000
H 	H 	0.25190 0.54900 0.99350 0.18000
O 	O 	0.69554 0.80862 0.25829 -0.41000
O 	O 	0.72196 0.82192 0.35971 -0.40700
C 	C 	0.72106 0.81027 0.30159 0.36300
C 	C 	0.75345 0.79591 0.28364 -0.12200
C 	C 	0.78139 0.79519 0.33002 0.05700
H 	H 	0.78087 0.80463 0.37273 0.02500
C 	C 	0.81044 0.78046 0.31385 -0.14000
H 	H 	0.82927 0.77963 0.34583 0.08900
C 	C 	0.81183 0.76726 0.25202 0.10800
C 	C 	0.78470 0.77008 0.20441 -0.14000
H 	H 	0.78667 0.76273 0.16093 0.07900
C 	C 	0.75522 0.78355 0.22109 0.05900
H 	H 	0.73617 0.78433 0.18933 0.02600
C 	C 	0.83990 0.74838 0.23474 -0.07800
C 	C 	0.82091 0.70893 0.20045 -0.03700
H 	H 	0.79087 0.69583 0.18883 0.04400
H 	H 	0.94307 0.84053 0.22333 -0.04000
H 	H 	0.91857 0.88233 0.32683 0.18000
O 	O 	0.36220 0.14196 0.59163 -0.41000
O 	O 	0.38862 0.15526 0.69305 -0.40700
C 	C 	0.38772 0.14361 0.63493 0.36300
C 	C 	0.42011 0.12925 0.61698 -0.12200
C 	C 	0.44805 0.12853 0.66336 0.05700
H 	H 	0.44753 0.13797 0.70607 0.02500
C 	C 	0.47710 0.11380 0.64719 -0.14000
H 	H 	0.49593 0.11297 0.67917 0.08900
C 	C 	0.47849 0.10060 0.58536 0.10800
C 	C 	0.45136 0.10342 0.53775 -0.14000
H 	H 	0.45333 0.09607 0.49427 0.07900
C 	C 	0.42188 0.11689 0.55443 0.05900
H 	H 	0.40283 0.11767 0.52267 0.02600
C 	C 	0.50656 0.08172 0.56808 -0.07700
C 	C 	0.48757 0.04227 0.53379 -0.03700
H 	H 	0.45753 0.02917 0.52217 0.04400
H 	H 	0.60973 0.17387 0.55667 -0.04000
H 	H 	0.58523 0.21567 0.66017 0.18000
O 	O 	0.44642 0.97113 0.92496 -0.41000
O 	O 	0.43330 0.94471 0.02638 -0.40800
C 	C 	0.42255 0.94561 0.96826 0.36300
C 	C 	0.37580 0.91322 0.95031 -0.12200
C 	C 	0.34714 0.88528 0.99669 0.05800
H 	H 	0.35710 0.88580 0.03940 0.02400
C 	C 	0.30336 0.85623 0.98052 -0.14000
H 	H 	0.28370 0.83740 0.01250 0.08900
C 	C 	0.28877 0.85484 0.91869 0.10800
C 	C 	0.31872 0.88197 0.87108 -0.14000
H 	H 	0.30940 0.88000 0.82760 0.07900
C 	C 	0.36167 0.91145 0.88776 0.05900
H 	H 	0.38150 0.93050 0.85600 0.02600
C 	C 	0.24182 0.82677 0.90141 -0.07700
C 	C 	0.22136 0.84576 0.86712 -0.03700
H 	H 	0.23830 0.87580 0.85550 0.04400
H 	H 	0.23080 0.72360 0.89000 -0.04000
H 	H 	0.29710 0.74810 0.99350 0.18000
O 	O 	0.11309 0.30446 0.25829 -0.41000
O 	O 	0.09997 0.27804 0.35971 -0.40700
C 	C 	0.08922 0.27894 0.30159 0.36300
C 	C 	0.04247 0.24655 0.28364 -0.12200
C 	C 	0.01381 0.21861 0.33002 0.05700
H 	H 	0.02377 0.21913 0.37273 0.02500
C 	C 	0.97003 0.18956 0.31385 -0.14000
H 	H 	0.95037 0.17073 0.34583 0.08900
C 	C 	0.95544 0.18817 0.25202 0.10800
C 	C 	0.98539 0.21530 0.20441 -0.14000
H 	H 	0.97607 0.21333 0.16093 0.07900
C 	C 	0.02834 0.24478 0.22109 0.05900
H 	H 	0.04817 0.26383 0.18933 0.02600
C 	C 	0.90849 0.16010 0.23474 -0.07700
C 	C 	0.88803 0.17909 0.20045 -0.03700
H 	H 	0.90497 0.20913 0.18883 0.04400
H 	H 	0.89747 0.05693 0.22333 -0.03900
H 	H 	0.96377 0.08143 0.32683 0.18000
O 	O 	0.77975 0.63780 0.59163 -0.41000
O 	O 	0.76663 0.61138 0.69305 -0.40700
C 	C 	0.75588 0.61228 0.63493 0.36300
C 	C 	0.70913 0.57989 0.61698 -0.12200
C 	C 	0.68047 0.55195 0.66336 0.05700
H 	H 	0.69043 0.55247 0.70607 0.02500
C 	C 	0.63669 0.52290 0.64719 -0.14000
H 	H 	0.61703 0.50407 0.67917 0.08900
C 	C 	0.62210 0.52151 0.58536 0.10800
C 	C 	0.65205 0.54864 0.53775 -0.14000
H 	H 	0.64273 0.54667 0.49427 0.07900
C 	C 	0.69500 0.57812 0.55443 0.05900
H 	H 	0.71483 0.59717 0.52267 0.02600
C 	C 	0.57515 0.49344 0.56808 -0.07700
C 	C 	0.55469 0.51243 0.53379 -0.03700
H 	H 	0.57163 0.54247 0.52217 0.04400
H 	H 	0.56413 0.39027 0.55667 -0.04000
H 	H 	0.63043 0.41477 0.66017 0.18000
O 	O 	0.52471 0.55358 0.92496 -0.41000
O 	O 	0.51141 0.56670 0.02638 -0.40700
C 	C 	0.52306 0.57745 0.96826 0.36300
C 	C 	0.53742 0.62420 0.95031 -0.12200
C 	C 	0.53814 0.65286 0.99669 0.05700
H 	H 	0.52870 0.64290 0.03940 0.02500
C 	C 	0.55287 0.69664 0.98052 -0.14000
H 	H 	0.55370 0.71630 0.01250 0.08900
C 	C 	0.56607 0.71123 0.91869 0.10800
C 	C 	0.56325 0.68128 0.87108 -0.14000
H 	H 	0.57060 0.69060 0.82760 0.07900
C 	C 	0.54978 0.63833 0.88776 0.05900
H 	H 	0.54900 0.61850 0.85600 0.02600
C 	C 	0.58495 0.75818 0.90141 -0.07700
C 	C 	0.62440 0.77864 0.86712 -0.03700
H 	H 	0.63750 0.76170 0.85550 0.04400
H 	H 	0.49280 0.76920 0.89000 -0.04000
H 	H 	0.45100 0.70290 0.99350 0.18000
O 	O 	0.19138 0.88691 0.25829 -0.41000
O 	O 	0.17808 0.90003 0.35971 -0.40700
C 	C 	0.18973 0.91078 0.30159 0.36300
C 	C 	0.20409 0.95753 0.28364 -0.12200
C 	C 	0.20481 0.98619 0.33002 0.05700
H 	H 	0.19537 0.97623 0.37273 0.02500
C 	C 	0.21954 0.02997 0.31385 -0.14000
H 	H 	0.22037 0.04963 0.34583 0.08900
C 	C 	0.23274 0.04456 0.25202 0.10800
C 	C 	0.22992 0.01461 0.20441 -0.14000
H 	H 	0.23727 0.02393 0.16093 0.07900
C 	C 	0.21645 0.97166 0.22109 0.05900
H 	H 	0.21567 0.95183 0.18933 0.02600
C 	C 	0.25162 0.09151 0.23474 -0.07700
C 	C 	0.29107 0.11197 0.20045 -0.03700
H 	H 	0.30417 0.09503 0.18883 0.04400
H 	H 	0.15947 0.10253 0.22333 -0.04000
H 	H 	0.11767 0.03623 0.32683 0.18000
O 	O 	0.85804 0.22025 0.59163 -0.41000
O 	O 	0.84474 0.23337 0.69305 -0.40700
C 	C 	0.85639 0.24412 0.63493 0.36300
C 	C 	0.87075 0.29087 0.61698 -0.12200
C 	C 	0.87147 0.31953 0.66336 0.05700
H 	H 	0.86203 0.30957 0.70607 0.02500
C 	C 	0.88620 0.36331 0.64719 -0.14000
H 	H 	0.88703 0.38297 0.67917 0.08900
C 	C 	0.89940 0.37790 0.58536 0.10800
C 	C 	0.89658 0.34795 0.53775 -0.14000
H 	H 	0.90393 0.35727 0.49427 0.07900
C 	C 	0.88311 0.30500 0.55443 0.05900
H 	H 	0.88233 0.28517 0.52267 0.02600
C 	C 	0.91828 0.42485 0.56808 -0.07800
C 	C 	0.95773 0.44531 0.53379 -0.03700
H 	H 	0.97083 0.42837 0.52217 0.04400
H 	H 	0.82613 0.43587 0.55667 -0.04000
H 	H 	0.78433 0.36957 0.66017 0.18000
Cu	Cu	0.50768 0.01536 0.94049 0.90300
Cu	Cu	0.17435 0.34869 0.27382 0.90300
Cu	Cu	0.84101 0.68203 0.60716 0.90300
Cu	Cu	0.98464 0.49232 0.94049 0.90300
Cu	Cu	0.65131 0.82565 0.27382 0.90300
Cu	Cu	0.31797 0.15899 0.60716 0.90300
Cu	Cu	0.50768 0.49232 0.94049 0.90300
Cu	Cu	0.17435 0.82565 0.27382 0.90300
Cu	Cu	0.84101 0.15899 0.60716 0.90300
Cu	Cu	0.01536 0.50768 0.05951 0.90300
Cu	Cu	0.68203 0.84101 0.39284 0.90300
Cu	Cu	0.34869 0.17435 0.72618 0.90300
Cu	Cu	0.49232 0.98464 0.05951 0.90300
Cu	Cu	0.15899 0.31797 0.39284 0.90300
Cu	Cu	0.82565 0.65131 0.72618 0.90300
Cu	Cu	0.49232 0.50768 0.05951 0.90300
Cu	Cu	0.15899 0.84101 0.39284 0.90300
Cu	Cu	0.82565 0.17435 0.72618 0.90300
O 	O 	0.52773 0.76386 0.95385 -0.28800
C 	C 	0.64541 0.82270 0.84920 0.00300
C 	C 	0.56507 0.78253 0.91820 0.16000
C 	C 	0.49320 0.74660 0.91790 0.26000
C 	C 	0.45030 0.72515 0.96610 -0.51800
H 	H 	0.42340 0.71170 0.94020 0.16800
O 	O 	0.19440 0.09720 0.28718 -0.28800
C 	C 	0.31208 0.15604 0.18253 0.00300
C 	C 	0.23174 0.11587 0.25153 0.16000
C 	C 	0.15987 0.07993 0.25123 0.26000
C 	C 	0.11697 0.05848 0.29943 -0.51800
H 	H 	0.09007 0.04503 0.27353 0.16800
O 	O 	0.86106 0.43053 0.62052 -0.28800
C 	C 	0.97874 0.48937 0.51587 0.00300
C 	C 	0.89840 0.44920 0.58487 0.16000
C 	C 	0.82653 0.41327 0.58457 0.26000
C 	C 	0.78363 0.39182 0.63277 -0.51800
H 	H 	0.75673 0.37837 0.60687 0.16800
O 	O 	0.23614 0.76386 0.95385 -0.28800
C 	C 	0.17730 0.82270 0.84920 0.00300
C 	C 	0.21747 0.78253 0.91820 0.16000
C 	C 	0.25340 0.74660 0.91790 0.26000
C 	C 	0.27485 0.72515 0.96610 -0.51800
H 	H 	0.28830 0.71170 0.94020 0.16800
O 	O 	0.90280 0.09720 0.28718 -0.28800
C 	C 	0.84396 0.15604 0.18253 0.00300
C 	C 	0.88413 0.11587 0.25153 0.16000
C 	C 	0.92007 0.07993 0.25123 0.26000
C 	C 	0.94152 0.05848 0.29943 -0.51800
H 	H 	0.95497 0.04503 0.27353 0.16800
O 	O 	0.56947 0.43053 0.62052 -0.28900
C 	C 	0.51063 0.48937 0.51587 0.00300
C 	C 	0.55080 0.44920 0.58487 0.16000
C 	C 	0.58673 0.41327 0.58457 0.26000
C 	C 	0.60818 0.39182 0.63277 -0.51800
H 	H 	0.62163 0.37837 0.60687 0.16800
O 	O 	0.23614 0.47227 0.95385 -0.28800
C 	C 	0.17730 0.35459 0.84920 0.00300
C 	C 	0.21747 0.43493 0.91820 0.16000
C 	C 	0.25340 0.50680 0.91790 0.26000
C 	C 	0.27485 0.54970 0.96610 -0.51800
H 	H 	0.28830 0.57660 0.94020 0.16800
O 	O 	0.90280 0.80560 0.28718 -0.28800
C 	C 	0.84396 0.68792 0.18253 0.00300
C 	C 	0.88413 0.76826 0.25153 0.16000
C 	C 	0.92007 0.84013 0.25123 0.26000
C 	C 	0.94152 0.88303 0.29943 -0.51800
H 	H 	0.95497 0.90993 0.27353 0.16800
O 	O 	0.56947 0.13894 0.62052 -0.28800
C 	C 	0.51063 0.02126 0.51587 0.00300
C 	C 	0.55080 0.10160 0.58487 0.16000
C 	C 	0.58673 0.17347 0.58457 0.26000
C 	C 	0.60818 0.21637 0.63277 -0.51800
H 	H 	0.62163 0.24327 0.60687 0.16800
O 	O 	0.76386 0.52773 0.04615 -0.28800
C 	C 	0.82270 0.64541 0.15080 0.00300
C 	C 	0.78253 0.56507 0.08180 0.16000
C 	C 	0.74660 0.49320 0.08210 0.26000
C 	C 	0.72515 0.45030 0.03390 -0.51800
H 	H 	0.71170 0.42340 0.05980 0.16800
O 	O 	0.43053 0.86106 0.37948 -0.28800
C 	C 	0.48937 0.97874 0.48413 0.00300
C 	C 	0.44920 0.89840 0.41513 0.16000
C 	C 	0.41327 0.82653 0.41543 0.26000
C 	C 	0.39182 0.78363 0.36723 -0.51800
H 	H 	0.37837 0.75673 0.39313 0.16800
O 	O 	0.09720 0.19440 0.71282 -0.28800
C 	C 	0.15604 0.31208 0.81747 0.00300
C 	C 	0.11587 0.23174 0.74847 0.16000
C 	C 	0.07993 0.15987 0.74877 0.26000
C 	C 	0.05848 0.11697 0.70057 -0.51800
H 	H 	0.04503 0.09007 0.72647 0.16800
O 	O 	0.76386 0.23614 0.04615 -0.28800
C 	C 	0.82270 0.17730 0.15080 0.00300
C 	C 	0.78253 0.21747 0.08180 0.16000
C 	C 	0.74660 0.25340 0.08210 0.26000
C 	C 	0.72515 0.27485 0.03390 -0.51800
H 	H 	0.71170 0.28830 0.05980 0.16800
O 	O 	0.43053 0.56947 0.37948 -0.28900
C 	C 	0.48937 0.51063 0.48413 0.00300
C 	C 	0.44920 0.55080 0.41513 0.16000
C 	C 	0.41327 0.58673 0.41543 0.26000
C 	C 	0.39182 0.60818 0.36723 -0.51800
H 	H 	0.37837 0.62163 0.39313 0.16800
O 	O 	0.09720 0.90280 0.71282 -0.28800
C 	C 	0.15604 0.84396 0.81747 0.00300
C 	C 	0.11587 0.88413 0.74847 0.16000
C 	C 	0.07993 0.92007 0.74877 0.26000
C 	C 	0.05848 0.94152 0.70057 -0.51800
H 	H 	0.04503 0.95497 0.72647 0.16800
O 	O 	0.47227 0.23614 0.04615 -0.28800
C 	C 	0.35459 0.17730 0.15080 0.00300
C 	C 	0.43493 0.21747 0.08180 0.16000
C 	C 	0.50680 0.25340 0.08210 0.26000
C 	C 	0.54970 0.27485 0.03390 -0.51800
H 	H 	0.57660 0.28830 0.05980 0.16800
O 	O 	0.13894 0.56947 0.37948 -0.28800
C 	C 	0.02126 0.51063 0.48413 0.00300
C 	C 	0.10160 0.55080 0.41513 0.16000
C 	C 	0.17347 0.58673 0.41543 0.26000
C 	C 	0.21637 0.60818 0.36723 -0.51800
H 	H 	0.24327 0.62163 0.39313 0.16800
O 	O 	0.80560 0.90280 0.71282 -0.28800
C 	C 	0.68792 0.84396 0.81747 0.00300
C 	C 	0.76826 0.88413 0.74847 0.16000
C 	C 	0.84013 0.92007 0.74877 0.26000
C 	C 	0.88303 0.94152 0.70057 -0.51800
H 	H 	0.90993 0.95497 0.72647 0.16800
