data_crystal

_cell_length_a 18.78460
_cell_length_b 18.78460
_cell_length_c 37.82300
_cell_angle_alpha 90.00000
_cell_angle_beta  90.00000
_cell_angle_gamma 120.00000

_symmetry_space_group_name_	'P 1'
_symmetry_space_group_name_H-M	'P 1'

loop_
_symmetry_equiv_pos_as_xyz
  x,y,z

loop_
_atom_site_label
_atom_site_type_symbol
_atom_site_fract_x
_atom_site_fract_y
_atom_site_fract_z
_atom_site_charge
C 	C 	0.12060 0.42770 0.80968 0.34300
O 	O 	0.15060 0.44535 0.84004 -0.39400
O 	O 	0.11070 0.36770 0.79143 -0.39600
C 	C 	0.09390 0.48320 0.79334 -0.02400
C 	C 	0.05490 0.46370 0.76076 -0.10600
H 	H 	0.04180 0.41420 0.74990 0.10700
C 	C 	0.96780 0.53030 0.69190 0.09100
C 	C 	0.91520 0.51810 0.60093 0.10300
H 	H 	0.91470 0.55470 0.58450 0.01200
C 	C 	0.94130 0.49960 0.65460 0.09800
C 	C 	0.92120 0.54850 0.63200 -0.03900
H 	H 	0.91410 0.59230 0.63840 0.06800
C 	C 	0.93970 0.51450 0.64110 -0.17000
H 	H 	0.95080 0.55170 0.65940 0.07200
O 	O 	0.93610 0.58380 0.70660 -0.16700
C 	C 	0.78727 0.76103 0.14301 0.34300
O 	O 	0.81727 0.77868 0.17337 -0.39400
O 	O 	0.77737 0.70103 0.12476 -0.39600
C 	C 	0.76057 0.81653 0.12667 -0.02400
C 	C 	0.72157 0.79703 0.09409 -0.10600
H 	H 	0.70847 0.74753 0.08323 0.10700
C 	C 	0.63447 0.86363 0.02523 0.09100
C 	C 	0.58187 0.85143 0.93426 0.10300
H 	H 	0.58137 0.88803 0.91783 0.01200
C 	C 	0.60797 0.83293 0.98793 0.09800
C 	C 	0.58787 0.88183 0.96533 -0.03900
H 	H 	0.58077 0.92563 0.97173 0.06800
C 	C 	0.60637 0.84783 0.97443 -0.17000
H 	H 	0.61747 0.88503 0.99273 0.07200
O 	O 	0.60277 0.91713 0.03993 -0.16700
C 	C 	0.45393 0.09437 0.47635 0.34300
O 	O 	0.48393 0.11202 0.50671 -0.39400
O 	O 	0.44403 0.03437 0.45810 -0.39600
C 	C 	0.42723 0.14987 0.46001 -0.02400
C 	C 	0.38823 0.13037 0.42743 -0.10600
H 	H 	0.37513 0.08087 0.41657 0.10700
C 	C 	0.30113 0.19697 0.35857 0.09100
C 	C 	0.24853 0.18477 0.26760 0.10300
H 	H 	0.24803 0.22137 0.25117 0.01200
C 	C 	0.27463 0.16627 0.32127 0.09800
C 	C 	0.25453 0.21517 0.29867 -0.03800
H 	H 	0.24743 0.25897 0.30507 0.06900
C 	C 	0.27303 0.18117 0.30777 -0.16900
H 	H 	0.28413 0.21837 0.32607 0.07300
O 	O 	0.26943 0.25047 0.37327 -0.16600
C 	C 	0.57230 0.69290 0.80968 0.34400
O 	O 	0.55465 0.70525 0.84004 -0.39300
O 	O 	0.63230 0.74300 0.79143 -0.39500
C 	C 	0.51680 0.61070 0.79334 -0.02300
C 	C 	0.53630 0.59120 0.76076 -0.10500
H 	H 	0.58580 0.62760 0.74990 0.10800
C 	C 	0.46970 0.43750 0.69190 0.09200
C 	C 	0.48190 0.39710 0.60093 0.10400
H 	H 	0.44530 0.36000 0.58450 0.01300
C 	C 	0.50040 0.44170 0.65460 0.09900
C 	C 	0.45150 0.37270 0.63200 -0.03800
H 	H 	0.40770 0.32180 0.63840 0.06900
C 	C 	0.48550 0.42520 0.64110 -0.16900
H 	H 	0.44830 0.39910 0.65940 0.07300
O 	O 	0.41620 0.35230 0.70660 -0.16600
C 	C 	0.23897 0.02623 0.14301 0.34400
O 	O 	0.22132 0.03858 0.17337 -0.39300
O 	O 	0.29897 0.07633 0.12476 -0.39500
C 	C 	0.18347 0.94403 0.12667 -0.02300
C 	C 	0.20297 0.92453 0.09409 -0.10500
H 	H 	0.25247 0.96093 0.08323 0.10800
C 	C 	0.13637 0.77083 0.02523 0.09200
C 	C 	0.14857 0.73043 0.93426 0.10400
H 	H 	0.11197 0.69333 0.91783 0.01300
C 	C 	0.16707 0.77503 0.98793 0.09900
C 	C 	0.11817 0.70603 0.96533 -0.03700
H 	H 	0.07437 0.65513 0.97173 0.06900
C 	C 	0.15217 0.75853 0.97443 -0.16900
H 	H 	0.11497 0.73243 0.99273 0.07300
O 	O 	0.08287 0.68563 0.03993 -0.16600
C 	C 	0.90563 0.35957 0.47635 0.34400
O 	O 	0.88798 0.37192 0.50671 -0.39300
O 	O 	0.96563 0.40967 0.45810 -0.39500
C 	C 	0.85013 0.27737 0.46001 -0.02300
C 	C 	0.86963 0.25787 0.42743 -0.10500
H 	H 	0.91913 0.29427 0.41657 0.10800
C 	C 	0.80303 0.10417 0.35857 0.09200
C 	C 	0.81523 0.06377 0.26760 0.10400
H 	H 	0.77863 0.02667 0.25117 0.01300
C 	C 	0.83373 0.10837 0.32127 0.09900
C 	C 	0.78483 0.03937 0.29867 -0.03800
H 	H 	0.74103 0.98847 0.30507 0.06900
C 	C 	0.81883 0.09187 0.30777 -0.16900
H 	H 	0.78163 0.06577 0.32607 0.07300
O 	O 	0.74953 0.01897 0.37327 -0.16600
C 	C 	0.30710 0.87940 0.80968 0.34400
O 	O 	0.29475 0.84940 0.84004 -0.39300
O 	O 	0.25700 0.88930 0.79143 -0.39500
C 	C 	0.38930 0.90610 0.79334 -0.02300
C 	C 	0.40880 0.94510 0.76076 -0.10500
H 	H 	0.37240 0.95820 0.74990 0.10800
C 	C 	0.56250 0.03220 0.69190 0.09200
C 	C 	0.60290 0.08480 0.60093 0.10400
H 	H 	0.64000 0.08530 0.58450 0.01300
C 	C 	0.55830 0.05870 0.65460 0.09900
C 	C 	0.62730 0.07880 0.63200 -0.03800
H 	H 	0.67820 0.08590 0.63840 0.06900
C 	C 	0.57480 0.06030 0.64110 -0.16900
H 	H 	0.60090 0.04920 0.65940 0.07300
O 	O 	0.64770 0.06390 0.70660 -0.16600
C 	C 	0.97377 0.21273 0.14301 0.34400
O 	O 	0.96142 0.18273 0.17337 -0.39300
O 	O 	0.92367 0.22263 0.12476 -0.39500
C 	C 	0.05597 0.23943 0.12667 -0.02300
C 	C 	0.07547 0.27843 0.09409 -0.10500
H 	H 	0.03907 0.29153 0.08323 0.10800
C 	C 	0.22917 0.36553 0.02523 0.09200
C 	C 	0.26957 0.41813 0.93426 0.10400
H 	H 	0.30667 0.41863 0.91783 0.01300
C 	C 	0.22497 0.39203 0.98793 0.09900
C 	C 	0.29397 0.41213 0.96533 -0.03800
H 	H 	0.34487 0.41923 0.97173 0.06900
C 	C 	0.24147 0.39363 0.97443 -0.16900
H 	H 	0.26757 0.38253 0.99273 0.07300
O 	O 	0.31437 0.39723 0.03993 -0.16600
C 	C 	0.64043 0.54607 0.47635 0.34400
O 	O 	0.62808 0.51607 0.50671 -0.39300
O 	O 	0.59033 0.55597 0.45810 -0.39500
C 	C 	0.72263 0.57277 0.46001 -0.02300
C 	C 	0.74213 0.61177 0.42743 -0.10500
H 	H 	0.70573 0.62487 0.41657 0.10800
C 	C 	0.89583 0.69887 0.35857 0.09200
C 	C 	0.93623 0.75147 0.26760 0.10400
H 	H 	0.97333 0.75197 0.25117 0.01300
C 	C 	0.89163 0.72537 0.32127 0.09900
C 	C 	0.96063 0.74547 0.29867 -0.03700
H 	H 	0.01153 0.75257 0.30507 0.06800
C 	C 	0.90813 0.72697 0.30777 -0.16900
H 	H 	0.93423 0.71587 0.32607 0.07300
O 	O 	0.98103 0.73057 0.37327 -0.16600
C 	C 	0.42770 0.12060 0.19032 0.34400
O 	O 	0.44535 0.15060 0.15996 -0.39300
O 	O 	0.36770 0.11070 0.20857 -0.39500
C 	C 	0.48320 0.09390 0.20666 -0.02300
C 	C 	0.46370 0.05490 0.23924 -0.10500
H 	H 	0.41420 0.04180 0.25010 0.10800
C 	C 	0.53030 0.96780 0.30810 0.09200
C 	C 	0.51810 0.91520 0.39907 0.10400
H 	H 	0.55470 0.91470 0.41550 0.01300
C 	C 	0.49960 0.94130 0.34540 0.09900
C 	C 	0.54850 0.92120 0.36800 -0.03800
H 	H 	0.59230 0.91410 0.36160 0.06900
C 	C 	0.51450 0.93970 0.35890 -0.16900
H 	H 	0.55170 0.95080 0.34060 0.07300
O 	O 	0.58380 0.93610 0.29340 -0.16600
C 	C 	0.09437 0.45393 0.52365 0.34400
O 	O 	0.11202 0.48393 0.49329 -0.39300
O 	O 	0.03437 0.44403 0.54190 -0.39500
C 	C 	0.14987 0.42723 0.53999 -0.02300
C 	C 	0.13037 0.38823 0.57257 -0.10500
H 	H 	0.08087 0.37513 0.58343 0.10800
C 	C 	0.19697 0.30113 0.64143 0.09200
C 	C 	0.18477 0.24853 0.73240 0.10400
H 	H 	0.22137 0.24803 0.74883 0.01300
C 	C 	0.16627 0.27463 0.67873 0.09900
C 	C 	0.21517 0.25453 0.70133 -0.03800
H 	H 	0.25897 0.24743 0.69493 0.06900
C 	C 	0.18117 0.27303 0.69223 -0.16900
H 	H 	0.21837 0.28413 0.67393 0.07300
O 	O 	0.25047 0.26943 0.62673 -0.16600
C 	C 	0.76103 0.78727 0.85699 0.34400
O 	O 	0.77868 0.81727 0.82663 -0.39300
O 	O 	0.70103 0.77737 0.87524 -0.39500
C 	C 	0.81653 0.76057 0.87333 -0.02300
C 	C 	0.79703 0.72157 0.90591 -0.10500
H 	H 	0.74753 0.70847 0.91677 0.10800
C 	C 	0.86363 0.63447 0.97477 0.09200
C 	C 	0.85143 0.58187 0.06574 0.10400
H 	H 	0.88803 0.58137 0.08217 0.01300
C 	C 	0.83293 0.60797 0.01207 0.09900
C 	C 	0.88183 0.58787 0.03467 -0.03800
H 	H 	0.92563 0.58077 0.02827 0.06900
C 	C 	0.84783 0.60637 0.02557 -0.16900
H 	H 	0.88503 0.61747 0.00727 0.07300
O 	O 	0.91713 0.60277 0.96007 -0.16600
C 	C 	0.69290 0.57230 0.19032 0.34400
O 	O 	0.70525 0.55465 0.15996 -0.39300
O 	O 	0.74300 0.63230 0.20857 -0.39500
C 	C 	0.61070 0.51680 0.20666 -0.02300
C 	C 	0.59120 0.53630 0.23924 -0.10500
H 	H 	0.62760 0.58580 0.25010 0.10800
C 	C 	0.43750 0.46970 0.30810 0.09200
C 	C 	0.39710 0.48190 0.39907 0.10400
H 	H 	0.36000 0.44530 0.41550 0.01300
C 	C 	0.44170 0.50040 0.34540 0.09900
C 	C 	0.37270 0.45150 0.36800 -0.03800
H 	H 	0.32180 0.40770 0.36160 0.06900
C 	C 	0.42520 0.48550 0.35890 -0.16900
H 	H 	0.39910 0.44830 0.34060 0.07300
O 	O 	0.35230 0.41620 0.29340 -0.16600
C 	C 	0.35957 0.90563 0.52365 0.34400
O 	O 	0.37192 0.88798 0.49329 -0.39300
O 	O 	0.40967 0.96563 0.54190 -0.39500
C 	C 	0.27737 0.85013 0.53999 -0.02300
C 	C 	0.25787 0.86963 0.57257 -0.10500
H 	H 	0.29427 0.91913 0.58343 0.10800
C 	C 	0.10417 0.80303 0.64143 0.09200
C 	C 	0.06377 0.81523 0.73240 0.10400
H 	H 	0.02667 0.77863 0.74883 0.01300
C 	C 	0.10837 0.83373 0.67873 0.09900
C 	C 	0.03937 0.78483 0.70133 -0.03800
H 	H 	0.98847 0.74103 0.69493 0.06900
C 	C 	0.09187 0.81883 0.69223 -0.16900
H 	H 	0.06577 0.78163 0.67393 0.07300
O 	O 	0.01897 0.74953 0.62673 -0.16600
C 	C 	0.02623 0.23897 0.85699 0.34400
O 	O 	0.03858 0.22132 0.82663 -0.39300
O 	O 	0.07633 0.29897 0.87524 -0.39500
C 	C 	0.94403 0.18347 0.87333 -0.02300
C 	C 	0.92453 0.20297 0.90591 -0.10500
H 	H 	0.96093 0.25247 0.91677 0.10800
C 	C 	0.77083 0.13637 0.97477 0.09200
C 	C 	0.73043 0.14857 0.06574 0.10400
H 	H 	0.69333 0.11197 0.08217 0.01300
C 	C 	0.77503 0.16707 0.01207 0.09900
C 	C 	0.70603 0.11817 0.03467 -0.03700
H 	H 	0.65513 0.07437 0.02827 0.06900
C 	C 	0.75853 0.15217 0.02557 -0.16900
H 	H 	0.73243 0.11497 0.00727 0.07300
O 	O 	0.68563 0.08287 0.96007 -0.16600
C 	C 	0.87940 0.30710 0.19032 0.34400
O 	O 	0.84940 0.29475 0.15996 -0.39300
O 	O 	0.88930 0.25700 0.20857 -0.39500
C 	C 	0.90610 0.38930 0.20666 -0.02300
C 	C 	0.94510 0.40880 0.23924 -0.10500
H 	H 	0.95820 0.37240 0.25010 0.10800
C 	C 	0.03220 0.56250 0.30810 0.09200
C 	C 	0.08480 0.60290 0.39907 0.10400
H 	H 	0.08530 0.64000 0.41550 0.01300
C 	C 	0.05870 0.55830 0.34540 0.09900
C 	C 	0.07880 0.62730 0.36800 -0.03800
H 	H 	0.08590 0.67820 0.36160 0.06900
C 	C 	0.06030 0.57480 0.35890 -0.16900
H 	H 	0.04920 0.60090 0.34060 0.07300
O 	O 	0.06390 0.64770 0.29340 -0.16600
C 	C 	0.54607 0.64043 0.52365 0.34400
O 	O 	0.51607 0.62808 0.49329 -0.39300
O 	O 	0.55597 0.59033 0.54190 -0.39500
C 	C 	0.57277 0.72263 0.53999 -0.02300
C 	C 	0.61177 0.74213 0.57257 -0.10500
H 	H 	0.62487 0.70573 0.58343 0.10800
C 	C 	0.69887 0.89583 0.64143 0.09200
C 	C 	0.75147 0.93623 0.73240 0.10400
H 	H 	0.75197 0.97333 0.74883 0.01300
C 	C 	0.72537 0.89163 0.67873 0.09900
C 	C 	0.74547 0.96063 0.70133 -0.03700
H 	H 	0.75257 0.01153 0.69493 0.06800
C 	C 	0.72697 0.90813 0.69223 -0.16900
H 	H 	0.71587 0.93423 0.67393 0.07300
O 	O 	0.73057 0.98103 0.62673 -0.16600
C 	C 	0.21273 0.97377 0.85699 0.34400
O 	O 	0.18273 0.96142 0.82663 -0.39300
O 	O 	0.22263 0.92367 0.87524 -0.39500
C 	C 	0.23943 0.05597 0.87333 -0.02300
C 	C 	0.27843 0.07547 0.90591 -0.10500
H 	H 	0.29153 0.03907 0.91677 0.10800
C 	C 	0.36553 0.22917 0.97477 0.09200
C 	C 	0.41813 0.26957 0.06574 0.10400
H 	H 	0.41863 0.30667 0.08217 0.01300
C 	C 	0.39203 0.22497 0.01207 0.09900
C 	C 	0.41213 0.29397 0.03467 -0.03800
H 	H 	0.41923 0.34487 0.02827 0.06900
C 	C 	0.39363 0.24147 0.02557 -0.16900
H 	H 	0.38253 0.26757 0.00727 0.07300
O 	O 	0.39723 0.31437 0.96007 -0.16600
C 	C 	0.87940 0.57230 0.19032 0.34400
O 	O 	0.84940 0.55465 0.15996 -0.39300
O 	O 	0.88930 0.63230 0.20857 -0.39500
C 	C 	0.90610 0.51680 0.20666 -0.02300
C 	C 	0.94510 0.53630 0.23924 -0.10500
H 	H 	0.95820 0.58580 0.25010 0.10800
C 	C 	0.03220 0.46970 0.30810 0.09200
C 	C 	0.08480 0.48190 0.39907 0.10400
H 	H 	0.08530 0.44530 0.41550 0.01300
C 	C 	0.05870 0.50040 0.34540 0.09900
C 	C 	0.07880 0.45150 0.36800 -0.03800
H 	H 	0.08590 0.40770 0.36160 0.06900
C 	C 	0.06030 0.48550 0.35890 -0.16900
H 	H 	0.04920 0.44830 0.34060 0.07300
O 	O 	0.06390 0.41620 0.29340 -0.16600
C 	C 	0.54607 0.90563 0.52365 0.34400
O 	O 	0.51607 0.88798 0.49329 -0.39300
O 	O 	0.55597 0.96563 0.54190 -0.39500
C 	C 	0.57277 0.85013 0.53999 -0.02300
C 	C 	0.61177 0.86963 0.57257 -0.10500
H 	H 	0.62487 0.91913 0.58343 0.10800
C 	C 	0.69887 0.80303 0.64143 0.09200
C 	C 	0.75147 0.81523 0.73240 0.10400
H 	H 	0.75197 0.77863 0.74883 0.01300
C 	C 	0.72537 0.83373 0.67873 0.09900
C 	C 	0.74547 0.78483 0.70133 -0.03800
H 	H 	0.75257 0.74103 0.69493 0.06900
C 	C 	0.72697 0.81883 0.69223 -0.16900
H 	H 	0.71587 0.78163 0.67393 0.07300
O 	O 	0.73057 0.74953 0.62673 -0.16600
C 	C 	0.21273 0.23897 0.85699 0.34400
O 	O 	0.18273 0.22132 0.82663 -0.39300
O 	O 	0.22263 0.29897 0.87524 -0.39500
C 	C 	0.23943 0.18347 0.87333 -0.02300
C 	C 	0.27843 0.20297 0.90591 -0.10500
H 	H 	0.29153 0.25247 0.91677 0.10800
C 	C 	0.36553 0.13637 0.97477 0.09200
C 	C 	0.41813 0.14857 0.06574 0.10400
H 	H 	0.41863 0.11197 0.08217 0.01300
C 	C 	0.39203 0.16707 0.01207 0.09900
C 	C 	0.41213 0.11817 0.03467 -0.03800
H 	H 	0.41923 0.07437 0.02827 0.06900
C 	C 	0.39363 0.15217 0.02557 -0.16900
H 	H 	0.38253 0.11497 0.00727 0.07300
O 	O 	0.39723 0.08287 0.96007 -0.16600
C 	C 	0.42770 0.30710 0.19032 0.34400
O 	O 	0.44535 0.29475 0.15996 -0.39300
O 	O 	0.36770 0.25700 0.20857 -0.39500
C 	C 	0.48320 0.38930 0.20666 -0.02300
C 	C 	0.46370 0.40880 0.23924 -0.10500
H 	H 	0.41420 0.37240 0.25010 0.10800
C 	C 	0.53030 0.56250 0.30810 0.09200
C 	C 	0.51810 0.60290 0.39907 0.10400
H 	H 	0.55470 0.64000 0.41550 0.01300
C 	C 	0.49960 0.55830 0.34540 0.09900
C 	C 	0.54850 0.62730 0.36800 -0.03800
H 	H 	0.59230 0.67820 0.36160 0.06900
C 	C 	0.51450 0.57480 0.35890 -0.16900
H 	H 	0.55170 0.60090 0.34060 0.07300
O 	O 	0.58380 0.64770 0.29340 -0.16600
C 	C 	0.09437 0.64043 0.52365 0.34400
O 	O 	0.11202 0.62808 0.49329 -0.39300
O 	O 	0.03437 0.59033 0.54190 -0.39500
C 	C 	0.14987 0.72263 0.53999 -0.02300
C 	C 	0.13037 0.74213 0.57257 -0.10500
H 	H 	0.08087 0.70573 0.58343 0.10800
C 	C 	0.19697 0.89583 0.64143 0.09200
C 	C 	0.18477 0.93623 0.73240 0.10400
H 	H 	0.22137 0.97333 0.74883 0.01300
C 	C 	0.16627 0.89163 0.67873 0.09900
C 	C 	0.21517 0.96063 0.70133 -0.03800
H 	H 	0.25897 0.01153 0.69493 0.06900
C 	C 	0.18117 0.90813 0.69223 -0.16900
H 	H 	0.21837 0.93423 0.67393 0.07300
O 	O 	0.25047 0.98103 0.62673 -0.16600
C 	C 	0.76103 0.97377 0.85699 0.34400
O 	O 	0.77868 0.96142 0.82663 -0.39300
O 	O 	0.70103 0.92367 0.87524 -0.39500
C 	C 	0.81653 0.05597 0.87333 -0.02300
C 	C 	0.79703 0.07547 0.90591 -0.10500
H 	H 	0.74753 0.03907 0.91677 0.10800
C 	C 	0.86363 0.22917 0.97477 0.09200
C 	C 	0.85143 0.26957 0.06574 0.10400
H 	H 	0.88803 0.30667 0.08217 0.01300
C 	C 	0.83293 0.22497 0.01207 0.09900
C 	C 	0.88183 0.29397 0.03467 -0.03700
H 	H 	0.92563 0.34487 0.02827 0.06900
C 	C 	0.84783 0.24147 0.02557 -0.16900
H 	H 	0.88503 0.26757 0.00727 0.07300
O 	O 	0.91713 0.31437 0.96007 -0.16600
C 	C 	0.69290 0.12060 0.19032 0.34400
O 	O 	0.70525 0.15060 0.15996 -0.39300
O 	O 	0.74300 0.11070 0.20857 -0.39500
C 	C 	0.61070 0.09390 0.20666 -0.02300
C 	C 	0.59120 0.05490 0.23924 -0.10500
H 	H 	0.62760 0.04180 0.25010 0.10800
C 	C 	0.43750 0.96780 0.30810 0.09200
C 	C 	0.39710 0.91520 0.39907 0.10400
H 	H 	0.36000 0.91470 0.41550 0.01300
C 	C 	0.44170 0.94130 0.34540 0.09900
C 	C 	0.37270 0.92120 0.36800 -0.03800
H 	H 	0.32180 0.91410 0.36160 0.06900
C 	C 	0.42520 0.93970 0.35890 -0.16900
H 	H 	0.39910 0.95080 0.34060 0.07300
O 	O 	0.35230 0.93610 0.29340 -0.16600
C 	C 	0.35957 0.45393 0.52365 0.34400
O 	O 	0.37192 0.48393 0.49329 -0.39300
O 	O 	0.40967 0.44403 0.54190 -0.39500
C 	C 	0.27737 0.42723 0.53999 -0.02300
C 	C 	0.25787 0.38823 0.57257 -0.10500
H 	H 	0.29427 0.37513 0.58343 0.10800
C 	C 	0.10417 0.30113 0.64143 0.09200
C 	C 	0.06377 0.24853 0.73240 0.10400
H 	H 	0.02667 0.24803 0.74883 0.01300
C 	C 	0.10837 0.27463 0.67873 0.09900
C 	C 	0.03937 0.25453 0.70133 -0.03700
H 	H 	0.98847 0.24743 0.69493 0.06800
C 	C 	0.09187 0.27303 0.69223 -0.16900
H 	H 	0.06577 0.28413 0.67393 0.07300
O 	O 	0.01897 0.26943 0.62673 -0.16600
C 	C 	0.02623 0.78727 0.85699 0.34400
O 	O 	0.03858 0.81727 0.82663 -0.39300
O 	O 	0.07633 0.77737 0.87524 -0.39500
C 	C 	0.94403 0.76057 0.87333 -0.02300
C 	C 	0.92453 0.72157 0.90591 -0.10500
H 	H 	0.96093 0.70847 0.91677 0.10800
C 	C 	0.77083 0.63447 0.97477 0.09200
C 	C 	0.73043 0.58187 0.06574 0.10400
H 	H 	0.69333 0.58137 0.08217 0.01300
C 	C 	0.77503 0.60797 0.01207 0.09900
C 	C 	0.70603 0.58787 0.03467 -0.03800
H 	H 	0.65513 0.58077 0.02827 0.06900
C 	C 	0.75853 0.60637 0.02557 -0.16900
H 	H 	0.73243 0.61747 0.00727 0.07300
O 	O 	0.68563 0.60277 0.96007 -0.16600
C 	C 	0.57230 0.87940 0.80968 0.34400
O 	O 	0.55465 0.84940 0.84004 -0.39300
O 	O 	0.63230 0.88930 0.79143 -0.39500
C 	C 	0.51680 0.90610 0.79334 -0.02300
C 	C 	0.53630 0.94510 0.76076 -0.10500
H 	H 	0.58580 0.95820 0.74990 0.10800
C 	C 	0.46970 0.03220 0.69190 0.09200
C 	C 	0.48190 0.08480 0.60093 0.10400
H 	H 	0.44530 0.08530 0.58450 0.01300
C 	C 	0.50040 0.05870 0.65460 0.09900
C 	C 	0.45150 0.07880 0.63200 -0.03800
H 	H 	0.40770 0.08590 0.63840 0.06900
C 	C 	0.48550 0.06030 0.64110 -0.16900
H 	H 	0.44830 0.04920 0.65940 0.07300
O 	O 	0.41620 0.06390 0.70660 -0.16600
C 	C 	0.23897 0.21273 0.14301 0.34400
O 	O 	0.22132 0.18273 0.17337 -0.39300
O 	O 	0.29897 0.22263 0.12476 -0.39500
C 	C 	0.18347 0.23943 0.12667 -0.02300
C 	C 	0.20297 0.27843 0.09409 -0.10500
H 	H 	0.25247 0.29153 0.08323 0.10800
C 	C 	0.13637 0.36553 0.02523 0.09200
C 	C 	0.14857 0.41813 0.93426 0.10400
H 	H 	0.11197 0.41863 0.91783 0.01300
C 	C 	0.16707 0.39203 0.98793 0.09900
C 	C 	0.11817 0.41213 0.96533 -0.03800
H 	H 	0.07437 0.41923 0.97173 0.06900
C 	C 	0.15217 0.39363 0.97443 -0.16900
H 	H 	0.11497 0.38253 0.99273 0.07300
O 	O 	0.08287 0.39723 0.03993 -0.16600
C 	C 	0.90563 0.54607 0.47635 0.34400
O 	O 	0.88798 0.51607 0.50671 -0.39300
O 	O 	0.96563 0.55597 0.45810 -0.39500
C 	C 	0.85013 0.57277 0.46001 -0.02300
C 	C 	0.86963 0.61177 0.42743 -0.10500
H 	H 	0.91913 0.62487 0.41657 0.10800
C 	C 	0.80303 0.69887 0.35857 0.09200
C 	C 	0.81523 0.75147 0.26760 0.10400
H 	H 	0.77863 0.75197 0.25117 0.01300
C 	C 	0.83373 0.72537 0.32127 0.09900
C 	C 	0.78483 0.74547 0.29867 -0.03800
H 	H 	0.74103 0.75257 0.30507 0.06900
C 	C 	0.81883 0.72697 0.30777 -0.16900
H 	H 	0.78163 0.71587 0.32607 0.07300
O 	O 	0.74953 0.73057 0.37327 -0.16600
C 	C 	0.30710 0.42770 0.80968 0.34400
O 	O 	0.29475 0.44535 0.84004 -0.39300
O 	O 	0.25700 0.36770 0.79143 -0.39500
C 	C 	0.38930 0.48320 0.79334 -0.02300
C 	C 	0.40880 0.46370 0.76076 -0.10500
H 	H 	0.37240 0.41420 0.74990 0.10800
C 	C 	0.56250 0.53030 0.69190 0.09200
C 	C 	0.60290 0.51810 0.60093 0.10400
H 	H 	0.64000 0.55470 0.58450 0.01300
C 	C 	0.55830 0.49960 0.65460 0.09900
C 	C 	0.62730 0.54850 0.63200 -0.03800
H 	H 	0.67820 0.59230 0.63840 0.06900
C 	C 	0.57480 0.51450 0.64110 -0.16900
H 	H 	0.60090 0.55170 0.65940 0.07300
O 	O 	0.64770 0.58380 0.70660 -0.16600
C 	C 	0.97377 0.76103 0.14301 0.34400
O 	O 	0.96142 0.77868 0.17337 -0.39300
O 	O 	0.92367 0.70103 0.12476 -0.39500
C 	C 	0.05597 0.81653 0.12667 -0.02300
C 	C 	0.07547 0.79703 0.09409 -0.10500
H 	H 	0.03907 0.74753 0.08323 0.10800
C 	C 	0.22917 0.86363 0.02523 0.09200
C 	C 	0.26957 0.85143 0.93426 0.10400
H 	H 	0.30667 0.88803 0.91783 0.01300
C 	C 	0.22497 0.83293 0.98793 0.09900
C 	C 	0.29397 0.88183 0.96533 -0.03700
H 	H 	0.34487 0.92563 0.97173 0.06900
C 	C 	0.24147 0.84783 0.97443 -0.16900
H 	H 	0.26757 0.88503 0.99273 0.07300
O 	O 	0.31437 0.91713 0.03993 -0.16600
C 	C 	0.64043 0.09437 0.47635 0.34400
O 	O 	0.62808 0.11202 0.50671 -0.39300
O 	O 	0.59033 0.03437 0.45810 -0.39500
C 	C 	0.72263 0.14987 0.46001 -0.02300
C 	C 	0.74213 0.13037 0.42743 -0.10500
H 	H 	0.70573 0.08087 0.41657 0.10800
C 	C 	0.89583 0.19697 0.35857 0.09200
C 	C 	0.93623 0.18477 0.26760 0.10400
H 	H 	0.97333 0.22137 0.25117 0.01300
C 	C 	0.89163 0.16627 0.32127 0.09900
C 	C 	0.96063 0.21517 0.29867 -0.03800
H 	H 	0.01153 0.25897 0.30507 0.06900
C 	C 	0.90813 0.18117 0.30777 -0.16900
H 	H 	0.93423 0.21837 0.32607 0.07300
O 	O 	0.98103 0.25047 0.37327 -0.16600
C 	C 	0.12060 0.69290 0.80968 0.34400
O 	O 	0.15060 0.70525 0.84004 -0.39300
O 	O 	0.11070 0.74300 0.79143 -0.39500
C 	C 	0.09390 0.61070 0.79334 -0.02300
C 	C 	0.05490 0.59120 0.76076 -0.10500
H 	H 	0.04180 0.62760 0.74990 0.10800
C 	C 	0.96780 0.43750 0.69190 0.09200
C 	C 	0.91520 0.39710 0.60093 0.10400
H 	H 	0.91470 0.36000 0.58450 0.01300
C 	C 	0.94130 0.44170 0.65460 0.09900
C 	C 	0.92120 0.37270 0.63200 -0.03800
H 	H 	0.91410 0.32180 0.63840 0.06900
C 	C 	0.93970 0.42520 0.64110 -0.16900
H 	H 	0.95080 0.39910 0.65940 0.07300
O 	O 	0.93610 0.35230 0.70660 -0.16600
C 	C 	0.78727 0.02623 0.14301 0.34400
O 	O 	0.81727 0.03858 0.17337 -0.39300
O 	O 	0.77737 0.07633 0.12476 -0.39500
C 	C 	0.76057 0.94403 0.12667 -0.02300
C 	C 	0.72157 0.92453 0.09409 -0.10500
H 	H 	0.70847 0.96093 0.08323 0.10800
C 	C 	0.63447 0.77083 0.02523 0.09200
C 	C 	0.58187 0.73043 0.93426 0.10400
H 	H 	0.58137 0.69333 0.91783 0.01300
C 	C 	0.60797 0.77503 0.98793 0.09900
C 	C 	0.58787 0.70603 0.96533 -0.03800
H 	H 	0.58077 0.65513 0.97173 0.06900
C 	C 	0.60637 0.75853 0.97443 -0.16900
H 	H 	0.61747 0.73243 0.99273 0.07300
O 	O 	0.60277 0.68563 0.03993 -0.16600
C 	C 	0.45393 0.35957 0.47635 0.34400
O 	O 	0.48393 0.37192 0.50671 -0.39300
O 	O 	0.44403 0.40967 0.45810 -0.39500
C 	C 	0.42723 0.27737 0.46001 -0.02300
C 	C 	0.38823 0.25787 0.42743 -0.10500
H 	H 	0.37513 0.29427 0.41657 0.10800
C 	C 	0.30113 0.10417 0.35857 0.09200
C 	C 	0.24853 0.06377 0.26760 0.10400
H 	H 	0.24803 0.02667 0.25117 0.01300
C 	C 	0.27463 0.10837 0.32127 0.09900
C 	C 	0.25453 0.03937 0.29867 -0.03700
H 	H 	0.24743 0.98847 0.30507 0.06800
C 	C 	0.27303 0.09187 0.30777 -0.16900
H 	H 	0.28413 0.06577 0.32607 0.07300
O 	O 	0.26943 0.01897 0.37327 -0.16600
Cu	Cu	0.14379 0.28758 0.80407 0.92500
Cu	Cu	0.81046 0.62091 0.13740 0.92500
Cu	Cu	0.47712 0.95425 0.47073 0.92500
Cu	Cu	0.71242 0.85621 0.80407 0.92500
Cu	Cu	0.37909 0.18954 0.13740 0.92500
Cu	Cu	0.04575 0.52288 0.47073 0.92500
Cu	Cu	0.14379 0.85621 0.80407 0.92500
Cu	Cu	0.81046 0.18954 0.13740 0.92500
Cu	Cu	0.47712 0.52288 0.47073 0.92500
Cu	Cu	0.28758 0.14379 0.19593 0.92500
Cu	Cu	0.95425 0.47712 0.52927 0.92500
Cu	Cu	0.62091 0.81046 0.86260 0.92500
Cu	Cu	0.85621 0.71242 0.19593 0.92500
Cu	Cu	0.52288 0.04575 0.52927 0.92500
Cu	Cu	0.18954 0.37909 0.86260 0.92500
Cu	Cu	0.85621 0.14379 0.19593 0.92500
Cu	Cu	0.52288 0.47712 0.52927 0.92500
Cu	Cu	0.18954 0.81046 0.86260 0.92500
N 	N 	0.90960 0.45480 0.58358 -0.19300
C 	C 	0.11230 0.55615 0.80986 -0.02500
H 	H 	0.13690 0.56845 0.83200 0.07800
C 	C 	0.03550 0.51775 0.74420 0.15000
N 	N 	0.99900 0.49950 0.71059 -0.15900
N 	N 	0.57627 0.78813 0.91691 -0.19300
C 	C 	0.77897 0.88948 0.14319 -0.02500
H 	H 	0.80357 0.90178 0.16533 0.07800
C 	C 	0.70217 0.85108 0.07753 0.15000
N 	N 	0.66567 0.83283 0.04392 -0.15900
N 	N 	0.24293 0.12147 0.25025 -0.19300
C 	C 	0.44563 0.22282 0.47653 -0.02500
H 	H 	0.47023 0.23512 0.49867 0.07800
C 	C 	0.36883 0.18442 0.41087 0.15000
N 	N 	0.33233 0.16617 0.37726 -0.15900
N 	N 	0.54520 0.45480 0.58358 -0.19300
C 	C 	0.44385 0.55615 0.80986 -0.02500
H 	H 	0.43155 0.56845 0.83200 0.07800
C 	C 	0.48225 0.51775 0.74420 0.15000
N 	N 	0.50050 0.49950 0.71059 -0.15900
N 	N 	0.21187 0.78813 0.91691 -0.19300
C 	C 	0.11052 0.88948 0.14319 -0.02500
H 	H 	0.09822 0.90178 0.16533 0.07800
C 	C 	0.14892 0.85108 0.07753 0.15000
N 	N 	0.16717 0.83283 0.04392 -0.15900
N 	N 	0.87853 0.12147 0.25025 -0.19300
C 	C 	0.77718 0.22282 0.47653 -0.02500
H 	H 	0.76488 0.23512 0.49867 0.07800
C 	C 	0.81558 0.18442 0.41087 0.15000
N 	N 	0.83383 0.16617 0.37726 -0.15900
N 	N 	0.54520 0.09040 0.58358 -0.19300
C 	C 	0.44385 0.88770 0.80986 -0.02500
H 	H 	0.43155 0.86310 0.83200 0.07800
C 	C 	0.48225 0.96450 0.74420 0.15000
N 	N 	0.50050 0.00100 0.71059 -0.15900
N 	N 	0.21187 0.42373 0.91691 -0.19300
C 	C 	0.11052 0.22103 0.14319 -0.02500
H 	H 	0.09822 0.19643 0.16533 0.07800
C 	C 	0.14892 0.29783 0.07753 0.15000
N 	N 	0.16717 0.33433 0.04392 -0.15900
N 	N 	0.87853 0.75707 0.25025 -0.19300
C 	C 	0.77718 0.55437 0.47653 -0.02500
H 	H 	0.76488 0.52977 0.49867 0.07800
C 	C 	0.81558 0.63117 0.41087 0.15000
N 	N 	0.83383 0.66767 0.37726 -0.15900
N 	N 	0.45480 0.90960 0.41642 -0.19300
C 	C 	0.55615 0.11230 0.19014 -0.02500
H 	H 	0.56845 0.13690 0.16800 0.07800
C 	C 	0.51775 0.03550 0.25580 0.15000
N 	N 	0.49950 0.99900 0.28941 -0.15900
N 	N 	0.12147 0.24293 0.74975 -0.19300
C 	C 	0.22282 0.44563 0.52347 -0.02500
H 	H 	0.23512 0.47023 0.50133 0.07800
C 	C 	0.18442 0.36883 0.58913 0.15000
N 	N 	0.16617 0.33233 0.62274 -0.15900
N 	N 	0.78813 0.57627 0.08309 -0.19300
C 	C 	0.88948 0.77897 0.85681 -0.02500
H 	H 	0.90178 0.80357 0.83467 0.07800
C 	C 	0.85108 0.70217 0.92247 0.15000
N 	N 	0.83283 0.66567 0.95608 -0.15900
N 	N 	0.45480 0.54520 0.41642 -0.19300
C 	C 	0.55615 0.44385 0.19014 -0.02500
H 	H 	0.56845 0.43155 0.16800 0.07800
C 	C 	0.51775 0.48225 0.25580 0.15000
N 	N 	0.49950 0.50050 0.28941 -0.15900
N 	N 	0.12147 0.87853 0.74975 -0.19300
C 	C 	0.22282 0.77718 0.52347 -0.02500
H 	H 	0.23512 0.76488 0.50133 0.07800
C 	C 	0.18442 0.81558 0.58913 0.15000
N 	N 	0.16617 0.83383 0.62274 -0.15900
N 	N 	0.78813 0.21187 0.08309 -0.19300
C 	C 	0.88948 0.11052 0.85681 -0.02500
H 	H 	0.90178 0.09822 0.83467 0.07800
C 	C 	0.85108 0.14892 0.92247 0.15000
N 	N 	0.83283 0.16717 0.95608 -0.15900
N 	N 	0.09040 0.54520 0.41642 -0.19300
C 	C 	0.88770 0.44385 0.19014 -0.02500
H 	H 	0.86310 0.43155 0.16800 0.07800
C 	C 	0.96450 0.48225 0.25580 0.15000
N 	N 	0.00100 0.50050 0.28941 -0.15900
N 	N 	0.75707 0.87853 0.74975 -0.19300
C 	C 	0.55437 0.77718 0.52347 -0.02500
H 	H 	0.52977 0.76488 0.50133 0.07800
C 	C 	0.63117 0.81558 0.58913 0.15000
N 	N 	0.66767 0.83383 0.62274 -0.15900
N 	N 	0.42373 0.21187 0.08309 -0.19300
C 	C 	0.22103 0.11052 0.85681 -0.02500
H 	H 	0.19643 0.09822 0.83467 0.07800
C 	C 	0.29783 0.14892 0.92247 0.15000
N 	N 	0.33433 0.16717 0.95608 -0.15900
