data_crystal

_cell_length_a 25.80700
_cell_length_b 29.40500
_cell_length_c 19.63700
_cell_angle_alpha 90.00000
_cell_angle_beta  90.00000
_cell_angle_gamma 90.00000

_symmetry_space_group_name_	'P 1'
_symmetry_space_group_name_H-M	'P 1'

loop_
_symmetry_equiv_pos_as_xyz
  x,y,z

loop_
_atom_site_label
_atom_site_type_symbol
_atom_site_fract_x
_atom_site_fract_y
_atom_site_fract_z
_atom_site_charge
Zn	Zn	0.82821 0.45123 0.33573 1.24500
Zn	Zn	0.68566 0.43537 0.08614 1.24600
Zn	Zn	0.74542 0.50338 0.96705 1.22400
C 	C 	0.89670 0.65180 0.19770 0.44200
C 	C 	0.81780 0.54900 0.36950 0.39800
C 	C 	0.85670 0.60290 0.28910 0.00400
H 	H 	0.85520 0.57950 0.25720 0.06900
C 	C 	0.83840 0.59580 0.35390 -0.05600
C 	C 	0.83780 0.63060 0.40150 -0.04400
C 	C 	0.81930 0.62420 0.47390 0.34800
C 	C 	0.86910 0.41200 0.13880 -0.00200
C 	C 	0.85420 0.44190 0.19890 0.33400
C 	C 	0.90280 0.35590 0.03220 -0.00800
C 	C 	0.90850 0.37900 0.14940 -0.00500
H 	H 	0.92330 0.37590 0.19240 0.06900
C 	C 	0.86490 0.38860 0.02240 0.13400
H 	H 	0.85120 0.39250 0.97900 -0.02000
C 	C 	0.84660 0.41580 0.07540 -0.09700
C 	C 	0.91660 0.32660 0.97250 0.28900
C 	C 	0.85850 0.67230 0.38360 0.03500
H 	H 	0.85810 0.69620 0.41450 0.05300
C 	C 	0.87770 0.64560 0.27090 -0.04200
C 	C 	0.87980 0.67840 0.31950 -0.10700
C 	C 	0.79870 0.44390 0.06020 0.45300
C 	C 	0.92500 0.35140 0.09650 -0.05100
C 	C 	0.96800 0.31910 0.11310 0.42400
C 	C 	0.91350 0.71930 0.30460 0.56000
O 	O 	0.76050 0.43520 0.09700 -0.47600
O 	O 	0.80140 0.47000 0.01250 -0.44000
O 	O 	0.92660 0.28590 0.98220 -0.28100
O 	O 	0.91470 0.34700 0.91620 -0.42900
O 	O 	0.84160 0.59320 0.50640 -0.45100
O 	O 	0.78390 0.64850 0.49550 -0.26400
O 	O 	0.78060 0.54550 0.41080 -0.48800
O 	O 	0.83910 0.51600 0.33920 -0.46900
O 	O 	0.89390 0.68780 0.17310 -0.51500
O 	O 	0.86090 0.42490 0.25670 -0.42700
O 	O 	0.00730 0.32080 0.07380 -0.43900
O 	O 	0.96320 0.29530 0.16370 -0.47300
O 	O 	0.90390 0.75340 0.32660 -0.55700
O 	O 	0.95410 0.71340 0.26950 -0.56900
O 	O 	0.83860 0.48060 0.18630 -0.25400
O 	O 	0.91460 0.62040 0.16790 -0.31300
Zn	Zn	0.82821 0.95123 0.83573 1.24400
Zn	Zn	0.68566 0.93537 0.58614 1.24400
Zn	Zn	0.74542 0.00338 0.46705 1.24500
C 	C 	0.89670 0.15180 0.69770 0.44700
C 	C 	0.81780 0.04900 0.86950 0.40200
C 	C 	0.85670 0.10290 0.78910 0.01500
H 	H 	0.85520 0.07950 0.75720 0.06400
C 	C 	0.83840 0.09580 0.85390 -0.07500
C 	C 	0.83780 0.13060 0.90150 -0.02400
C 	C 	0.81930 0.12420 0.97390 0.26700
C 	C 	0.86910 0.91200 0.63880 -0.02400
C 	C 	0.85420 0.94190 0.69890 0.34100
C 	C 	0.90280 0.85590 0.53220 -0.02400
C 	C 	0.90850 0.87900 0.64940 0.00800
H 	H 	0.92330 0.87590 0.69240 0.06200
C 	C 	0.86490 0.88860 0.52240 0.00700
H 	H 	0.85120 0.89250 0.47900 0.06600
C 	C 	0.84660 0.91580 0.57540 -0.06000
C 	C 	0.91660 0.82660 0.47250 0.33400
C 	C 	0.85850 0.17230 0.88360 0.01600
H 	H 	0.85810 0.19620 0.91450 0.05200
C 	C 	0.87770 0.14560 0.77090 -0.05200
C 	C 	0.87980 0.17840 0.81950 -0.10100
C 	C 	0.79870 0.94390 0.56020 0.43500
C 	C 	0.92500 0.85140 0.59650 -0.06200
C 	C 	0.96800 0.81910 0.61310 0.42000
C 	C 	0.91350 0.21930 0.80460 0.55600
O 	O 	0.76050 0.93520 0.59700 -0.48200
O 	O 	0.80140 0.97000 0.51250 -0.47100
O 	O 	0.92660 0.78590 0.48220 -0.26400
O 	O 	0.91470 0.84700 0.41620 -0.42700
O 	O 	0.84160 0.09320 0.00640 -0.37900
O 	O 	0.78390 0.14850 0.99550 -0.27100
O 	O 	0.78060 0.04550 0.91080 -0.50700
O 	O 	0.83910 0.01600 0.83920 -0.47700
O 	O 	0.89390 0.18780 0.67310 -0.51900
O 	O 	0.86090 0.92490 0.75670 -0.43300
O 	O 	0.00730 0.82080 0.57380 -0.45600
O 	O 	0.96320 0.79530 0.66370 -0.47900
O 	O 	0.90390 0.25340 0.82660 -0.55900
O 	O 	0.95410 0.21340 0.76950 -0.57100
O 	O 	0.83860 0.98060 0.68630 -0.26100
O 	O 	0.91460 0.12040 0.66790 -0.32000
Zn	Zn	0.32821 0.45123 0.83573 1.24400
Zn	Zn	0.18566 0.43537 0.58614 1.24400
Zn	Zn	0.24542 0.50338 0.46705 1.24500
C 	C 	0.39670 0.65180 0.69770 0.44700
C 	C 	0.31780 0.54900 0.86950 0.40200
C 	C 	0.35670 0.60290 0.78910 0.01500
H 	H 	0.35520 0.57950 0.75720 0.06400
C 	C 	0.33840 0.59580 0.85390 -0.07600
C 	C 	0.33780 0.63060 0.90150 -0.02400
C 	C 	0.31930 0.62420 0.97390 0.26600
C 	C 	0.36910 0.41200 0.63880 -0.02500
C 	C 	0.35420 0.44190 0.69890 0.34100
C 	C 	0.40280 0.35590 0.53220 -0.02400
C 	C 	0.40850 0.37900 0.64940 0.00800
H 	H 	0.42330 0.37590 0.69240 0.06200
C 	C 	0.36490 0.38860 0.52240 0.00600
H 	H 	0.35120 0.39250 0.47900 0.06600
C 	C 	0.34660 0.41580 0.57540 -0.06000
C 	C 	0.41660 0.32660 0.47250 0.33400
C 	C 	0.35850 0.67230 0.88360 0.01600
H 	H 	0.35810 0.69620 0.91450 0.05200
C 	C 	0.37770 0.64560 0.77090 -0.05300
C 	C 	0.37980 0.67840 0.81950 -0.10100
C 	C 	0.29870 0.44390 0.56020 0.43500
C 	C 	0.42500 0.35140 0.59650 -0.06300
C 	C 	0.46800 0.31910 0.61310 0.42000
C 	C 	0.41350 0.71930 0.80460 0.55600
O 	O 	0.26050 0.43520 0.59700 -0.48200
O 	O 	0.30140 0.47000 0.51250 -0.47100
O 	O 	0.42660 0.28590 0.48220 -0.26400
O 	O 	0.41470 0.34700 0.41620 -0.42700
O 	O 	0.34160 0.59320 0.00640 -0.37800
O 	O 	0.28390 0.64850 0.99550 -0.27100
O 	O 	0.28060 0.54550 0.91080 -0.50700
O 	O 	0.33910 0.51600 0.83920 -0.47800
O 	O 	0.39390 0.68780 0.67310 -0.51900
O 	O 	0.36090 0.42490 0.75670 -0.43300
O 	O 	0.50730 0.32080 0.57380 -0.45600
O 	O 	0.46320 0.29530 0.66370 -0.47900
O 	O 	0.40390 0.75340 0.82660 -0.55900
O 	O 	0.45410 0.71340 0.76950 -0.57100
O 	O 	0.33860 0.48060 0.68630 -0.26100
O 	O 	0.41460 0.62040 0.66790 -0.32000
Zn	Zn	0.32821 0.95123 0.33573 1.24600
Zn	Zn	0.18566 0.93537 0.08614 1.24700
Zn	Zn	0.24542 0.00338 0.96705 1.22500
C 	C 	0.39670 0.15180 0.19770 0.44300
C 	C 	0.31780 0.04900 0.36950 0.39900
C 	C 	0.35670 0.10290 0.28910 0.00500
H 	H 	0.35520 0.07950 0.25720 0.07000
C 	C 	0.33840 0.09580 0.35390 -0.05500
C 	C 	0.33780 0.13060 0.40150 -0.04400
C 	C 	0.31930 0.12420 0.47390 0.34800
C 	C 	0.36910 0.91200 0.13880 -0.00200
C 	C 	0.35420 0.94190 0.19890 0.33400
C 	C 	0.40280 0.85590 0.03220 -0.00700
C 	C 	0.40850 0.87900 0.14940 -0.00500
H 	H 	0.42330 0.87590 0.19240 0.06900
C 	C 	0.36490 0.88860 0.02240 0.13300
H 	H 	0.35120 0.89250 0.97900 -0.02000
C 	C 	0.34660 0.91580 0.07540 -0.09700
C 	C 	0.41660 0.82660 0.97250 0.28800
C 	C 	0.35850 0.17230 0.38360 0.03500
H 	H 	0.35810 0.19620 0.41450 0.05300
C 	C 	0.37770 0.14560 0.27090 -0.04200
C 	C 	0.37980 0.17840 0.31950 -0.10700
C 	C 	0.29870 0.94390 0.06020 0.45300
C 	C 	0.42500 0.85140 0.09650 -0.05100
C 	C 	0.46800 0.81910 0.11310 0.42400
C 	C 	0.41350 0.21930 0.30460 0.56000
O 	O 	0.26050 0.93520 0.09700 -0.47600
O 	O 	0.30140 0.97000 0.01250 -0.44000
O 	O 	0.42660 0.78590 0.98220 -0.28100
O 	O 	0.41470 0.84700 0.91620 -0.42900
O 	O 	0.34160 0.09320 0.50640 -0.45100
O 	O 	0.28390 0.14850 0.49550 -0.26400
O 	O 	0.28060 0.04550 0.41080 -0.48800
O 	O 	0.33910 0.01600 0.33920 -0.46900
O 	O 	0.39390 0.18780 0.17310 -0.51500
O 	O 	0.36090 0.92490 0.25670 -0.42700
O 	O 	0.50730 0.82080 0.07380 -0.43800
O 	O 	0.46320 0.79530 0.16370 -0.47300
O 	O 	0.40390 0.25340 0.32660 -0.55700
O 	O 	0.45410 0.21340 0.26950 -0.56900
O 	O 	0.33860 0.98060 0.18630 -0.25400
O 	O 	0.41460 0.12040 0.16790 -0.31300
Zn	Zn	0.17179 0.54877 0.33573 1.24600
Zn	Zn	0.31434 0.56463 0.08614 1.24700
Zn	Zn	0.25458 0.49662 0.96705 1.22500
C 	C 	0.10330 0.34820 0.19770 0.44300
C 	C 	0.18220 0.45100 0.36950 0.39900
C 	C 	0.14330 0.39710 0.28910 0.00500
H 	H 	0.14480 0.42050 0.25720 0.07000
C 	C 	0.16160 0.40420 0.35390 -0.05500
C 	C 	0.16220 0.36940 0.40150 -0.04400
C 	C 	0.18070 0.37580 0.47390 0.34800
C 	C 	0.13090 0.58800 0.13880 -0.00200
C 	C 	0.14580 0.55810 0.19890 0.33400
C 	C 	0.09720 0.64410 0.03220 -0.00800
C 	C 	0.09150 0.62100 0.14940 -0.00500
H 	H 	0.07670 0.62410 0.19240 0.06900
C 	C 	0.13510 0.61140 0.02240 0.13400
H 	H 	0.14880 0.60750 0.97900 -0.02000
C 	C 	0.15340 0.58420 0.07540 -0.09700
C 	C 	0.08340 0.67340 0.97250 0.28900
C 	C 	0.14150 0.32770 0.38360 0.03500
H 	H 	0.14190 0.30380 0.41450 0.05300
C 	C 	0.12230 0.35440 0.27090 -0.04200
C 	C 	0.12020 0.32160 0.31950 -0.10700
C 	C 	0.20130 0.55610 0.06020 0.45300
C 	C 	0.07500 0.64860 0.09650 -0.05100
C 	C 	0.03200 0.68090 0.11310 0.42400
C 	C 	0.08650 0.28070 0.30460 0.56000
O 	O 	0.23950 0.56480 0.09700 -0.47600
O 	O 	0.19860 0.53000 0.01250 -0.44000
O 	O 	0.07340 0.71410 0.98220 -0.28100
O 	O 	0.08530 0.65300 0.91620 -0.42900
O 	O 	0.15840 0.40680 0.50640 -0.45100
O 	O 	0.21610 0.35150 0.49550 -0.26400
O 	O 	0.21940 0.45450 0.41080 -0.48800
O 	O 	0.16090 0.48400 0.33920 -0.46900
O 	O 	0.10610 0.31220 0.17310 -0.51500
O 	O 	0.13910 0.57510 0.25670 -0.42700
O 	O 	0.99270 0.67920 0.07380 -0.43900
O 	O 	0.03680 0.70470 0.16370 -0.47300
O 	O 	0.09610 0.24660 0.32660 -0.55700
O 	O 	0.04590 0.28660 0.26950 -0.56900
O 	O 	0.16140 0.51940 0.18630 -0.25400
O 	O 	0.08540 0.37960 0.16790 -0.31300
Zn	Zn	0.17179 0.04877 0.83573 1.24400
Zn	Zn	0.31434 0.06463 0.58614 1.24400
Zn	Zn	0.25458 0.99662 0.46705 1.24500
C 	C 	0.10330 0.84820 0.69770 0.44700
C 	C 	0.18220 0.95100 0.86950 0.40200
C 	C 	0.14330 0.89710 0.78910 0.01500
H 	H 	0.14480 0.92050 0.75720 0.06400
C 	C 	0.16160 0.90420 0.85390 -0.07500
C 	C 	0.16220 0.86940 0.90150 -0.02400
C 	C 	0.18070 0.87580 0.97390 0.26700
C 	C 	0.13090 0.08800 0.63880 -0.02400
C 	C 	0.14580 0.05810 0.69890 0.34100
C 	C 	0.09720 0.14410 0.53220 -0.02400
C 	C 	0.09150 0.12100 0.64940 0.00800
H 	H 	0.07670 0.12410 0.69240 0.06200
C 	C 	0.13510 0.11140 0.52240 0.00700
H 	H 	0.14880 0.10750 0.47900 0.06600
C 	C 	0.15340 0.08420 0.57540 -0.06000
C 	C 	0.08340 0.17340 0.47250 0.33400
C 	C 	0.14150 0.82770 0.88360 0.01600
H 	H 	0.14190 0.80380 0.91450 0.05200
C 	C 	0.12230 0.85440 0.77090 -0.05200
C 	C 	0.12020 0.82160 0.81950 -0.10100
C 	C 	0.20130 0.05610 0.56020 0.43500
C 	C 	0.07500 0.14860 0.59650 -0.06200
C 	C 	0.03200 0.18090 0.61310 0.42000
C 	C 	0.08650 0.78070 0.80460 0.55600
O 	O 	0.23950 0.06480 0.59700 -0.48200
O 	O 	0.19860 0.03000 0.51250 -0.47100
O 	O 	0.07340 0.21410 0.48220 -0.26400
O 	O 	0.08530 0.15300 0.41620 -0.42700
O 	O 	0.15840 0.90680 0.00640 -0.37900
O 	O 	0.21610 0.85150 0.99550 -0.27100
O 	O 	0.21940 0.95450 0.91080 -0.50700
O 	O 	0.16090 0.98400 0.83920 -0.47700
O 	O 	0.10610 0.81220 0.67310 -0.51900
O 	O 	0.13910 0.07510 0.75670 -0.43300
O 	O 	0.99270 0.17920 0.57380 -0.45600
O 	O 	0.03680 0.20470 0.66370 -0.47900
O 	O 	0.09610 0.74660 0.82660 -0.55900
O 	O 	0.04590 0.78660 0.76950 -0.57100
O 	O 	0.16140 0.01940 0.68630 -0.26100
O 	O 	0.08540 0.87960 0.66790 -0.32000
Zn	Zn	0.67179 0.54877 0.83573 1.24400
Zn	Zn	0.81434 0.56463 0.58614 1.24400
Zn	Zn	0.75458 0.49662 0.46705 1.24500
C 	C 	0.60330 0.34820 0.69770 0.44700
C 	C 	0.68220 0.45100 0.86950 0.40200
C 	C 	0.64330 0.39710 0.78910 0.01500
H 	H 	0.64480 0.42050 0.75720 0.06400
C 	C 	0.66160 0.40420 0.85390 -0.07600
C 	C 	0.66220 0.36940 0.90150 -0.02400
C 	C 	0.68070 0.37580 0.97390 0.26600
C 	C 	0.63090 0.58800 0.63880 -0.02500
C 	C 	0.64580 0.55810 0.69890 0.34100
C 	C 	0.59720 0.64410 0.53220 -0.02400
C 	C 	0.59150 0.62100 0.64940 0.00800
H 	H 	0.57670 0.62410 0.69240 0.06200
C 	C 	0.63510 0.61140 0.52240 0.00600
H 	H 	0.64880 0.60750 0.47900 0.06600
C 	C 	0.65340 0.58420 0.57540 -0.06000
C 	C 	0.58340 0.67340 0.47250 0.33400
C 	C 	0.64150 0.32770 0.88360 0.01600
H 	H 	0.64190 0.30380 0.91450 0.05200
C 	C 	0.62230 0.35440 0.77090 -0.05300
C 	C 	0.62020 0.32160 0.81950 -0.10100
C 	C 	0.70130 0.55610 0.56020 0.43500
C 	C 	0.57500 0.64860 0.59650 -0.06300
C 	C 	0.53200 0.68090 0.61310 0.42000
C 	C 	0.58650 0.28070 0.80460 0.55600
O 	O 	0.73950 0.56480 0.59700 -0.48200
O 	O 	0.69860 0.53000 0.51250 -0.47100
O 	O 	0.57340 0.71410 0.48220 -0.26400
O 	O 	0.58530 0.65300 0.41620 -0.42700
O 	O 	0.65840 0.40680 0.00640 -0.37800
O 	O 	0.71610 0.35150 0.99550 -0.27100
O 	O 	0.71940 0.45450 0.91080 -0.50700
O 	O 	0.66090 0.48400 0.83920 -0.47800
O 	O 	0.60610 0.31220 0.67310 -0.51900
O 	O 	0.63910 0.57510 0.75670 -0.43300
O 	O 	0.49270 0.67920 0.57380 -0.45600
O 	O 	0.53680 0.70470 0.66370 -0.47900
O 	O 	0.59610 0.24660 0.82660 -0.55900
O 	O 	0.54590 0.28660 0.76950 -0.57100
O 	O 	0.66140 0.51940 0.68630 -0.26100
O 	O 	0.58540 0.37960 0.66790 -0.32000
Zn	Zn	0.67179 0.04877 0.33573 1.24600
Zn	Zn	0.81434 0.06463 0.08614 1.24700
Zn	Zn	0.75458 0.99662 0.96705 1.22500
C 	C 	0.60330 0.84820 0.19770 0.44300
C 	C 	0.68220 0.95100 0.36950 0.39900
C 	C 	0.64330 0.89710 0.28910 0.00500
H 	H 	0.64480 0.92050 0.25720 0.07000
C 	C 	0.66160 0.90420 0.35390 -0.05500
C 	C 	0.66220 0.86940 0.40150 -0.04400
C 	C 	0.68070 0.87580 0.47390 0.34800
C 	C 	0.63090 0.08800 0.13880 -0.00200
C 	C 	0.64580 0.05810 0.19890 0.33400
C 	C 	0.59720 0.14410 0.03220 -0.00700
C 	C 	0.59150 0.12100 0.14940 -0.00500
H 	H 	0.57670 0.12410 0.19240 0.06900
C 	C 	0.63510 0.11140 0.02240 0.13300
H 	H 	0.64880 0.10750 0.97900 -0.02000
C 	C 	0.65340 0.08420 0.07540 -0.09700
C 	C 	0.58340 0.17340 0.97250 0.28800
C 	C 	0.64150 0.82770 0.38360 0.03500
H 	H 	0.64190 0.80380 0.41450 0.05300
C 	C 	0.62230 0.85440 0.27090 -0.04200
C 	C 	0.62020 0.82160 0.31950 -0.10700
C 	C 	0.70130 0.05610 0.06020 0.45300
C 	C 	0.57500 0.14860 0.09650 -0.05100
C 	C 	0.53200 0.18090 0.11310 0.42400
C 	C 	0.58650 0.78070 0.30460 0.56000
O 	O 	0.73950 0.06480 0.09700 -0.47600
O 	O 	0.69860 0.03000 0.01250 -0.44000
O 	O 	0.57340 0.21410 0.98220 -0.28100
O 	O 	0.58530 0.15300 0.91620 -0.42900
O 	O 	0.65840 0.90680 0.50640 -0.45100
O 	O 	0.71610 0.85150 0.49550 -0.26400
O 	O 	0.71940 0.95450 0.41080 -0.48800
O 	O 	0.66090 0.98400 0.33920 -0.46900
O 	O 	0.60610 0.81220 0.17310 -0.51500
O 	O 	0.63910 0.07510 0.25670 -0.42700
O 	O 	0.49270 0.17920 0.07380 -0.43800
O 	O 	0.53680 0.20470 0.16370 -0.47300
O 	O 	0.59610 0.74660 0.32660 -0.55700
O 	O 	0.54590 0.78660 0.26950 -0.56900
O 	O 	0.66140 0.01940 0.18630 -0.25400
O 	O 	0.58540 0.87960 0.16790 -0.31300
Zn	Zn	0.07821 0.79877 0.58573 1.24600
Zn	Zn	0.93566 0.81463 0.33614 1.24400
Zn	Zn	0.99542 0.74662 0.21705 1.24600
C 	C 	0.14670 0.59820 0.44770 0.44500
C 	C 	0.06780 0.70100 0.61950 0.39900
C 	C 	0.10670 0.64710 0.53910 0.00500
H 	H 	0.10520 0.67050 0.50720 0.06800
C 	C 	0.08840 0.65420 0.60390 -0.05600
C 	C 	0.08780 0.61940 0.65150 -0.04500
C 	C 	0.06930 0.62580 0.72390 0.34900
C 	C 	0.11910 0.83800 0.38880 -0.02400
C 	C 	0.10420 0.80810 0.44890 0.34100
C 	C 	0.15280 0.89410 0.28220 -0.02100
C 	C 	0.15850 0.87100 0.39940 0.00800
H 	H 	0.17330 0.87410 0.44240 0.06400
C 	C 	0.11490 0.86140 0.27240 0.00500
H 	H 	0.10120 0.85750 0.22900 0.06900
C 	C 	0.09660 0.83420 0.32540 -0.05800
C 	C 	0.16660 0.92340 0.22250 0.33200
C 	C 	0.10850 0.57770 0.63360 0.03500
H 	H 	0.10810 0.55380 0.66450 0.05200
C 	C 	0.12770 0.60440 0.52090 -0.04400
C 	C 	0.12980 0.57160 0.56950 -0.10700
C 	C 	0.04870 0.80610 0.31020 0.43500
C 	C 	0.17500 0.89860 0.34650 -0.06200
C 	C 	0.21800 0.93090 0.36310 0.42000
C 	C 	0.16350 0.53070 0.55460 0.56000
O 	O 	0.01050 0.81480 0.34700 -0.48100
O 	O 	0.05140 0.78000 0.26250 -0.46800
O 	O 	0.17660 0.96410 0.23220 -0.26200
O 	O 	0.16470 0.90300 0.16620 -0.42000
O 	O 	0.09160 0.65680 0.75640 -0.45200
O 	O 	0.03390 0.60150 0.74550 -0.26800
O 	O 	0.03060 0.70450 0.66080 -0.48800
O 	O 	0.08910 0.73400 0.58920 -0.46900
O 	O 	0.14390 0.56220 0.42310 -0.51800
O 	O 	0.11090 0.82510 0.50670 -0.42900
O 	O 	0.25730 0.92920 0.32380 -0.45500
O 	O 	0.21320 0.95470 0.41370 -0.47800
O 	O 	0.15390 0.49660 0.57660 -0.55800
O 	O 	0.20410 0.53660 0.51950 -0.56900
O 	O 	0.08860 0.76940 0.43630 -0.25900
O 	O 	0.16460 0.62960 0.41790 -0.31800
Zn	Zn	0.07821 0.29877 0.08573 1.24800
Zn	Zn	0.93566 0.31463 0.83614 1.24300
Zn	Zn	0.99542 0.24662 0.71705 1.24500
C 	C 	0.14670 0.09820 0.94770 0.36700
C 	C 	0.06780 0.20100 0.11950 0.39300
C 	C 	0.10670 0.14710 0.03910 -0.03200
H 	H 	0.10520 0.17050 0.00720 0.10200
C 	C 	0.08840 0.15420 0.10390 -0.03000
C 	C 	0.08780 0.11940 0.15150 -0.05800
C 	C 	0.06930 0.12580 0.22390 0.35400
C 	C 	0.11910 0.33800 0.88880 -0.00900
C 	C 	0.10420 0.30810 0.94890 0.26000
C 	C 	0.15280 0.39410 0.78220 -0.02800
C 	C 	0.15850 0.37100 0.89940 -0.00600
H 	H 	0.17330 0.37410 0.94240 0.05000
C 	C 	0.11490 0.36140 0.77240 0.01100
H 	H 	0.10120 0.35750 0.72900 0.06300
C 	C 	0.09660 0.33420 0.82540 -0.07100
C 	C 	0.16660 0.42340 0.72250 0.33400
C 	C 	0.10850 0.07770 0.13360 0.05800
H 	H 	0.10810 0.05380 0.16450 0.04700
C 	C 	0.12770 0.10440 0.02090 0.03800
C 	C 	0.12980 0.07160 0.06950 -0.13100
C 	C 	0.04870 0.30610 0.81020 0.43900
C 	C 	0.17500 0.39860 0.84650 -0.06300
C 	C 	0.21800 0.43090 0.86310 0.42100
C 	C 	0.16350 0.03070 0.05460 0.57200
O 	O 	0.01050 0.31480 0.84700 -0.48900
O 	O 	0.05140 0.28000 0.76250 -0.47400
O 	O 	0.17660 0.46410 0.73220 -0.26600
O 	O 	0.16470 0.40300 0.66620 -0.42800
O 	O 	0.09160 0.15680 0.25640 -0.45100
O 	O 	0.03390 0.10150 0.24550 -0.26300
O 	O 	0.03060 0.20450 0.16080 -0.48100
O 	O 	0.08910 0.23400 0.08920 -0.45600
O 	O 	0.14390 0.06220 0.92310 -0.51700
O 	O 	0.11090 0.32510 0.00670 -0.36000
O 	O 	0.25730 0.42920 0.82380 -0.45900
O 	O 	0.21320 0.45470 0.91370 -0.49700
O 	O 	0.15390 0.99660 0.07660 -0.55200
O 	O 	0.20410 0.03660 0.01950 -0.53800
O 	O 	0.08860 0.26940 0.93630 -0.26200
O 	O 	0.16460 0.12960 0.91790 -0.31700
Zn	Zn	0.57821 0.79877 0.08573 1.24800
Zn	Zn	0.43566 0.81463 0.83614 1.24300
Zn	Zn	0.49542 0.74662 0.71705 1.24500
C 	C 	0.64670 0.59820 0.94770 0.36600
C 	C 	0.56780 0.70100 0.11950 0.39300
C 	C 	0.60670 0.64710 0.03910 -0.03200
H 	H 	0.60520 0.67050 0.00720 0.10200
C 	C 	0.58840 0.65420 0.10390 -0.02900
C 	C 	0.58780 0.61940 0.15150 -0.05800
C 	C 	0.56930 0.62580 0.22390 0.35400
C 	C 	0.61910 0.83800 0.88880 -0.00900
C 	C 	0.60420 0.80810 0.94890 0.25900
C 	C 	0.65280 0.89410 0.78220 -0.02800
C 	C 	0.65850 0.87100 0.89940 -0.00600
H 	H 	0.67330 0.87410 0.94240 0.05000
C 	C 	0.61490 0.86140 0.77240 0.01100
H 	H 	0.60120 0.85750 0.72900 0.06300
C 	C 	0.59660 0.83420 0.82540 -0.07100
C 	C 	0.66660 0.92340 0.72250 0.33400
C 	C 	0.60850 0.57770 0.13360 0.05800
H 	H 	0.60810 0.55380 0.16450 0.04700
C 	C 	0.62770 0.60440 0.02090 0.03900
C 	C 	0.62980 0.57160 0.06950 -0.13200
C 	C 	0.54870 0.80610 0.81020 0.43900
C 	C 	0.67500 0.89860 0.84650 -0.06300
C 	C 	0.71800 0.93090 0.86310 0.42100
C 	C 	0.66350 0.53070 0.05460 0.57300
O 	O 	0.51050 0.81480 0.84700 -0.48900
O 	O 	0.55140 0.78000 0.76250 -0.47400
O 	O 	0.67660 0.96410 0.73220 -0.26600
O 	O 	0.66470 0.90300 0.66620 -0.42800
O 	O 	0.59160 0.65680 0.25640 -0.45100
O 	O 	0.53390 0.60150 0.24550 -0.26300
O 	O 	0.53060 0.70450 0.16080 -0.48100
O 	O 	0.58910 0.73400 0.08920 -0.45600
O 	O 	0.64390 0.56220 0.92310 -0.51700
O 	O 	0.61090 0.82510 0.00670 -0.35900
O 	O 	0.75730 0.92920 0.82380 -0.45900
O 	O 	0.71320 0.95470 0.91370 -0.49700
O 	O 	0.65390 0.49660 0.07660 -0.55300
O 	O 	0.70410 0.53660 0.01950 -0.53800
O 	O 	0.58860 0.76940 0.93630 -0.26300
O 	O 	0.66460 0.62960 0.91790 -0.31700
Zn	Zn	0.57821 0.29877 0.58573 1.24600
Zn	Zn	0.43566 0.31463 0.33614 1.24400
Zn	Zn	0.49542 0.24662 0.21705 1.24600
C 	C 	0.64670 0.09820 0.44770 0.44500
C 	C 	0.56780 0.20100 0.61950 0.39900
C 	C 	0.60670 0.14710 0.53910 0.00500
H 	H 	0.60520 0.17050 0.50720 0.06800
C 	C 	0.58840 0.15420 0.60390 -0.05600
C 	C 	0.58780 0.11940 0.65150 -0.04500
C 	C 	0.56930 0.12580 0.72390 0.34900
C 	C 	0.61910 0.33800 0.38880 -0.02400
C 	C 	0.60420 0.30810 0.44890 0.34100
C 	C 	0.65280 0.39410 0.28220 -0.02100
C 	C 	0.65850 0.37100 0.39940 0.00800
H 	H 	0.67330 0.37410 0.44240 0.06400
C 	C 	0.61490 0.36140 0.27240 0.00500
H 	H 	0.60120 0.35750 0.22900 0.06900
C 	C 	0.59660 0.33420 0.32540 -0.05800
C 	C 	0.66660 0.42340 0.22250 0.33200
C 	C 	0.60850 0.07770 0.63360 0.03500
H 	H 	0.60810 0.05380 0.66450 0.05200
C 	C 	0.62770 0.10440 0.52090 -0.04400
C 	C 	0.62980 0.07160 0.56950 -0.10700
C 	C 	0.54870 0.30610 0.31020 0.43500
C 	C 	0.67500 0.39860 0.34650 -0.06200
C 	C 	0.71800 0.43090 0.36310 0.42000
C 	C 	0.66350 0.03070 0.55460 0.56000
O 	O 	0.51050 0.31480 0.34700 -0.48100
O 	O 	0.55140 0.28000 0.26250 -0.46800
O 	O 	0.67660 0.46410 0.23220 -0.26200
O 	O 	0.66470 0.40300 0.16620 -0.42000
O 	O 	0.59160 0.15680 0.75640 -0.45200
O 	O 	0.53390 0.10150 0.74550 -0.26800
O 	O 	0.53060 0.20450 0.66080 -0.48800
O 	O 	0.58910 0.23400 0.58920 -0.46900
O 	O 	0.64390 0.06220 0.42310 -0.51800
O 	O 	0.61090 0.32510 0.50670 -0.43000
O 	O 	0.75730 0.42920 0.32380 -0.45500
O 	O 	0.71320 0.45470 0.41370 -0.47800
O 	O 	0.65390 0.99660 0.57660 -0.55800
O 	O 	0.70410 0.03660 0.51950 -0.56900
O 	O 	0.58860 0.26940 0.43630 -0.25900
O 	O 	0.66460 0.12960 0.41790 -0.31800
Zn	Zn	0.42179 0.70123 0.58573 1.24600
Zn	Zn	0.56434 0.68537 0.33614 1.24400
Zn	Zn	0.50458 0.75338 0.21705 1.24600
C 	C 	0.35330 0.90180 0.44770 0.44500
C 	C 	0.43220 0.79900 0.61950 0.39900
C 	C 	0.39330 0.85290 0.53910 0.00500
H 	H 	0.39480 0.82950 0.50720 0.06800
C 	C 	0.41160 0.84580 0.60390 -0.05600
C 	C 	0.41220 0.88060 0.65150 -0.04500
C 	C 	0.43070 0.87420 0.72390 0.34900
C 	C 	0.38090 0.66200 0.38880 -0.02400
C 	C 	0.39580 0.69190 0.44890 0.34100
C 	C 	0.34720 0.60590 0.28220 -0.02100
C 	C 	0.34150 0.62900 0.39940 0.00800
H 	H 	0.32670 0.62590 0.44240 0.06400
C 	C 	0.38510 0.63860 0.27240 0.00500
H 	H 	0.39880 0.64250 0.22900 0.06900
C 	C 	0.40340 0.66580 0.32540 -0.05800
C 	C 	0.33340 0.57660 0.22250 0.33200
C 	C 	0.39150 0.92230 0.63360 0.03500
H 	H 	0.39190 0.94620 0.66450 0.05200
C 	C 	0.37230 0.89560 0.52090 -0.04400
C 	C 	0.37020 0.92840 0.56950 -0.10700
C 	C 	0.45130 0.69390 0.31020 0.43500
C 	C 	0.32500 0.60140 0.34650 -0.06200
C 	C 	0.28200 0.56910 0.36310 0.42000
C 	C 	0.33650 0.96930 0.55460 0.56000
O 	O 	0.48950 0.68520 0.34700 -0.48100
O 	O 	0.44860 0.72000 0.26250 -0.46800
O 	O 	0.32340 0.53590 0.23220 -0.26200
O 	O 	0.33530 0.59700 0.16620 -0.42000
O 	O 	0.40840 0.84320 0.75640 -0.45200
O 	O 	0.46610 0.89850 0.74550 -0.26800
O 	O 	0.46940 0.79550 0.66080 -0.48800
O 	O 	0.41090 0.76600 0.58920 -0.46900
O 	O 	0.35610 0.93780 0.42310 -0.51800
O 	O 	0.38910 0.67490 0.50670 -0.43000
O 	O 	0.24270 0.57080 0.32380 -0.45500
O 	O 	0.28680 0.54530 0.41370 -0.47800
O 	O 	0.34610 0.00340 0.57660 -0.55800
O 	O 	0.29590 0.96340 0.51950 -0.56900
O 	O 	0.41140 0.73060 0.43630 -0.25900
O 	O 	0.33540 0.87040 0.41790 -0.31800
Zn	Zn	0.42179 0.20123 0.08573 1.24800
Zn	Zn	0.56434 0.18537 0.83614 1.24300
Zn	Zn	0.50458 0.25338 0.71705 1.24500
C 	C 	0.35330 0.40180 0.94770 0.36600
C 	C 	0.43220 0.29900 0.11950 0.39300
C 	C 	0.39330 0.35290 0.03910 -0.03200
H 	H 	0.39480 0.32950 0.00720 0.10200
C 	C 	0.41160 0.34580 0.10390 -0.02900
C 	C 	0.41220 0.38060 0.15150 -0.05800
C 	C 	0.43070 0.37420 0.22390 0.35400
C 	C 	0.38090 0.16200 0.88880 -0.00900
C 	C 	0.39580 0.19190 0.94890 0.25900
C 	C 	0.34720 0.10590 0.78220 -0.02800
C 	C 	0.34150 0.12900 0.89940 -0.00600
H 	H 	0.32670 0.12590 0.94240 0.05000
C 	C 	0.38510 0.13860 0.77240 0.01100
H 	H 	0.39880 0.14250 0.72900 0.06300
C 	C 	0.40340 0.16580 0.82540 -0.07100
C 	C 	0.33340 0.07660 0.72250 0.33400
C 	C 	0.39150 0.42230 0.13360 0.05800
H 	H 	0.39190 0.44620 0.16450 0.04700
C 	C 	0.37230 0.39560 0.02090 0.03900
C 	C 	0.37020 0.42840 0.06950 -0.13200
C 	C 	0.45130 0.19390 0.81020 0.43900
C 	C 	0.32500 0.10140 0.84650 -0.06300
C 	C 	0.28200 0.06910 0.86310 0.42100
C 	C 	0.33650 0.46930 0.05460 0.57300
O 	O 	0.48950 0.18520 0.84700 -0.48900
O 	O 	0.44860 0.22000 0.76250 -0.47400
O 	O 	0.32340 0.03590 0.73220 -0.26600
O 	O 	0.33530 0.09700 0.66620 -0.42800
O 	O 	0.40840 0.34320 0.25640 -0.45100
O 	O 	0.46610 0.39850 0.24550 -0.26300
O 	O 	0.46940 0.29550 0.16080 -0.48100
O 	O 	0.41090 0.26600 0.08920 -0.45600
O 	O 	0.35610 0.43780 0.92310 -0.51700
O 	O 	0.38910 0.17490 0.00670 -0.35900
O 	O 	0.24270 0.07080 0.82380 -0.45900
O 	O 	0.28680 0.04530 0.91370 -0.49700
O 	O 	0.34610 0.50340 0.07660 -0.55300
O 	O 	0.29590 0.46340 0.01950 -0.53800
O 	O 	0.41140 0.23060 0.93630 -0.26300
O 	O 	0.33540 0.37040 0.91790 -0.31700
Zn	Zn	0.92179 0.70123 0.08573 1.24800
Zn	Zn	0.06434 0.68537 0.83614 1.24300
Zn	Zn	0.00458 0.75338 0.71705 1.24500
C 	C 	0.85330 0.90180 0.94770 0.36700
C 	C 	0.93220 0.79900 0.11950 0.39300
C 	C 	0.89330 0.85290 0.03910 -0.03200
H 	H 	0.89480 0.82950 0.00720 0.10200
C 	C 	0.91160 0.84580 0.10390 -0.03000
C 	C 	0.91220 0.88060 0.15150 -0.05800
C 	C 	0.93070 0.87420 0.22390 0.35400
C 	C 	0.88090 0.66200 0.88880 -0.00900
C 	C 	0.89580 0.69190 0.94890 0.26000
C 	C 	0.84720 0.60590 0.78220 -0.02800
C 	C 	0.84150 0.62900 0.89940 -0.00600
H 	H 	0.82670 0.62590 0.94240 0.05000
C 	C 	0.88510 0.63860 0.77240 0.01100
H 	H 	0.89880 0.64250 0.72900 0.06300
C 	C 	0.90340 0.66580 0.82540 -0.07100
C 	C 	0.83340 0.57660 0.72250 0.33400
C 	C 	0.89150 0.92230 0.13360 0.05800
H 	H 	0.89190 0.94620 0.16450 0.04700
C 	C 	0.87230 0.89560 0.02090 0.03800
C 	C 	0.87020 0.92840 0.06950 -0.13100
C 	C 	0.95130 0.69390 0.81020 0.43900
C 	C 	0.82500 0.60140 0.84650 -0.06300
C 	C 	0.78200 0.56910 0.86310 0.42100
C 	C 	0.83650 0.96930 0.05460 0.57200
O 	O 	0.98950 0.68520 0.84700 -0.48900
O 	O 	0.94860 0.72000 0.76250 -0.47400
O 	O 	0.82340 0.53590 0.73220 -0.26600
O 	O 	0.83530 0.59700 0.66620 -0.42800
O 	O 	0.90840 0.84320 0.25640 -0.45100
O 	O 	0.96610 0.89850 0.24550 -0.26300
O 	O 	0.96940 0.79550 0.16080 -0.48100
O 	O 	0.91090 0.76600 0.08920 -0.45600
O 	O 	0.85610 0.93780 0.92310 -0.51700
O 	O 	0.88910 0.67490 0.00670 -0.36000
O 	O 	0.74270 0.57080 0.82380 -0.45900
O 	O 	0.78680 0.54530 0.91370 -0.49700
O 	O 	0.84610 0.00340 0.07660 -0.55200
O 	O 	0.79590 0.96340 0.01950 -0.53800
O 	O 	0.91140 0.73060 0.93630 -0.26200
O 	O 	0.83540 0.87040 0.91790 -0.31700
Zn	Zn	0.92179 0.20123 0.58573 1.24600
Zn	Zn	0.06434 0.18537 0.33614 1.24400
Zn	Zn	0.00458 0.25338 0.21705 1.24600
C 	C 	0.85330 0.40180 0.44770 0.44500
C 	C 	0.93220 0.29900 0.61950 0.39900
C 	C 	0.89330 0.35290 0.53910 0.00500
H 	H 	0.89480 0.32950 0.50720 0.06800
C 	C 	0.91160 0.34580 0.60390 -0.05600
C 	C 	0.91220 0.38060 0.65150 -0.04500
C 	C 	0.93070 0.37420 0.72390 0.34900
C 	C 	0.88090 0.16200 0.38880 -0.02400
C 	C 	0.89580 0.19190 0.44890 0.34100
C 	C 	0.84720 0.10590 0.28220 -0.02100
C 	C 	0.84150 0.12900 0.39940 0.00800
H 	H 	0.82670 0.12590 0.44240 0.06400
C 	C 	0.88510 0.13860 0.27240 0.00500
H 	H 	0.89880 0.14250 0.22900 0.06900
C 	C 	0.90340 0.16580 0.32540 -0.05800
C 	C 	0.83340 0.07660 0.22250 0.33200
C 	C 	0.89150 0.42230 0.63360 0.03500
H 	H 	0.89190 0.44620 0.66450 0.05200
C 	C 	0.87230 0.39560 0.52090 -0.04400
C 	C 	0.87020 0.42840 0.56950 -0.10700
C 	C 	0.95130 0.19390 0.31020 0.43500
C 	C 	0.82500 0.10140 0.34650 -0.06200
C 	C 	0.78200 0.06910 0.36310 0.42000
C 	C 	0.83650 0.46930 0.55460 0.56000
O 	O 	0.98950 0.18520 0.34700 -0.48100
O 	O 	0.94860 0.22000 0.26250 -0.46800
O 	O 	0.82340 0.03590 0.23220 -0.26200
O 	O 	0.83530 0.09700 0.16620 -0.42000
O 	O 	0.90840 0.34320 0.75640 -0.45200
O 	O 	0.96610 0.39850 0.74550 -0.26800
O 	O 	0.96940 0.29550 0.66080 -0.48800
O 	O 	0.91090 0.26600 0.58920 -0.46900
O 	O 	0.85610 0.43780 0.42310 -0.51800
O 	O 	0.88910 0.17490 0.50670 -0.42900
O 	O 	0.74270 0.07080 0.32380 -0.45500
O 	O 	0.78680 0.04530 0.41370 -0.47800
O 	O 	0.84610 0.50340 0.57660 -0.55800
O 	O 	0.79590 0.46340 0.51950 -0.56900
O 	O 	0.91140 0.23060 0.43630 -0.25900
O 	O 	0.83540 0.37040 0.41790 -0.31800
