data_crystal

_cell_length_a 26.78880
_cell_length_b 26.78880
_cell_length_c 65.61330
_cell_angle_alpha 90.00000
_cell_angle_beta  90.00000
_cell_angle_gamma 120.00000

_symmetry_space_group_name_	'P 1'
_symmetry_space_group_name_H-M	'P 1'

loop_
_symmetry_equiv_pos_as_xyz
  x,y,z

loop_
_atom_site_label
_atom_site_type_symbol
_atom_site_fract_x
_atom_site_fract_y
_atom_site_fract_z
_atom_site_charge
C 	C 	0.35850 0.13750 0.10135 -0.04800
H 	H 	0.35180 0.10490 0.09350 0.04200
C 	C 	0.34470 0.13200 0.12183 0.01200
H 	H 	0.32930 0.09480 0.12770 0.00600
C 	C 	0.21030 0.06500 0.15472 0.01500
H 	H 	0.23160 0.04730 0.15040 0.00500
C 	C 	0.15080 0.03380 0.15358 -0.06400
H 	H 	0.13180 0.99450 0.14950 0.05200
N 	N 	0.40874 0.24849 0.06210 -0.14800
C 	C 	0.42829 0.25602 0.04308 0.10400
C 	C 	0.44208 0.31075 0.03274 0.02300
N 	N 	0.47128 0.41515 0.01410 -0.22200
C 	C 	0.46270 0.40710 0.03433 0.01600
H 	H 	0.46620 0.43830 0.04230 0.00600
C 	C 	0.44930 0.35710 0.04410 -0.04000
H 	H 	0.44500 0.35430 0.05850 0.04100
C 	C 	0.44770 0.31620 0.01175 -0.06900
H 	H 	0.44240 0.28470 0.00350 0.05000
C 	C 	0.46110 0.36820 0.00307 -0.00300
H 	H 	0.46340 0.37140 0.98860 0.01300
C 	C 	0.43470 0.39570 0.03012 0.01700
H 	H 	0.41790 0.41760 0.03470 0.00700
C 	C 	0.42100 0.34530 0.04005 -0.05600
H 	H 	0.39730 0.33420 0.05180 0.04700
C 	C 	0.47640 0.32910 0.01582 -0.02600
H 	H 	0.49110 0.30630 0.01030 0.03800
C 	C 	0.48970 0.38060 0.00672 0.03500
H 	H 	0.51270 0.39210 0.99480 -0.00000
H 	H 	0.40320 0.27370 0.09850 0.04500
C 	C 	0.38880 0.23650 0.10435 -0.04900
H 	H 	0.38050 0.25960 0.13270 0.00500
C 	C 	0.37410 0.22730 0.12475 0.01900
H 	H 	0.22810 0.18450 0.16980 0.00600
C 	C 	0.20840 0.14510 0.16584 0.01500
H 	H 	0.12840 0.13580 0.16800 0.04400
C 	C 	0.14890 0.11650 0.16461 -0.04900
C 	C 	0.02517 0.47083 0.43468 -0.07200
H 	H 	0.01847 0.43823 0.42683 0.05100
C 	C 	0.01137 0.46533 0.45516 -0.00600
H 	H 	0.99597 0.42813 0.46103 0.02100
C 	C 	0.87697 0.39833 0.48805 0.01700
H 	H 	0.89827 0.38063 0.48373 0.00900
C 	C 	0.81747 0.36713 0.48691 -0.05000
H 	H 	0.79847 0.32783 0.48283 0.04500
N 	N 	0.07541 0.58182 0.39543 -0.14800
C 	C 	0.09496 0.58935 0.37641 0.10500
C 	C 	0.10875 0.64408 0.36607 0.02300
N 	N 	0.13795 0.74848 0.34743 -0.22200
C 	C 	0.12937 0.74043 0.36766 0.01700
H 	H 	0.13287 0.77163 0.37563 0.00600
C 	C 	0.11597 0.69043 0.37743 -0.03900
H 	H 	0.11167 0.68763 0.39183 0.04100
C 	C 	0.11437 0.64953 0.34508 -0.07000
H 	H 	0.10907 0.61803 0.33683 0.05000
C 	C 	0.12777 0.70153 0.33640 -0.00400
H 	H 	0.13007 0.70473 0.32193 0.01300
C 	C 	0.10137 0.72903 0.36345 0.01600
H 	H 	0.08457 0.75093 0.36803 0.00700
C 	C 	0.08767 0.67863 0.37338 -0.05700
H 	H 	0.06397 0.66753 0.38513 0.04700
C 	C 	0.14307 0.66243 0.34915 -0.02500
H 	H 	0.15777 0.63963 0.34363 0.03800
C 	C 	0.15637 0.71393 0.34005 0.03600
H 	H 	0.17937 0.72543 0.32813 -0.00100
H 	H 	0.06987 0.60703 0.43183 0.03600
C 	C 	0.05547 0.56983 0.43768 -0.02000
H 	H 	0.04717 0.59293 0.46603 0.00000
C 	C 	0.04077 0.56063 0.45808 0.03000
H 	H 	0.89477 0.51783 0.50313 0.00700
C 	C 	0.87507 0.47843 0.49917 0.01600
H 	H 	0.79507 0.46913 0.50133 0.04400
C 	C 	0.81557 0.44983 0.49794 -0.04500
C 	C 	0.69183 0.80417 0.76802 -0.04700
H 	H 	0.68513 0.77157 0.76017 0.04400
C 	C 	0.67803 0.79867 0.78850 0.01300
H 	H 	0.66263 0.76147 0.79437 0.00800
C 	C 	0.54363 0.73167 0.82139 0.01700
H 	H 	0.56493 0.71397 0.81707 0.00700
C 	C 	0.48413 0.70047 0.82025 -0.05100
H 	H 	0.46513 0.66117 0.81617 0.04500
N 	N 	0.74207 0.91516 0.72877 -0.14600
C 	C 	0.76162 0.92269 0.70975 0.10500
C 	C 	0.77541 0.97742 0.69941 0.03000
N 	N 	0.80461 0.08182 0.68077 -0.22100
C 	C 	0.79603 0.07377 0.70100 0.01800
H 	H 	0.79953 0.10497 0.70897 0.00500
C 	C 	0.78263 0.02377 0.71077 -0.04200
H 	H 	0.77833 0.02097 0.72517 0.04100
C 	C 	0.78103 0.98287 0.67842 -0.06800
H 	H 	0.77573 0.95137 0.67017 0.05100
C 	C 	0.79443 0.03487 0.66974 -0.00800
H 	H 	0.79673 0.03807 0.65527 0.01400
C 	C 	0.76803 0.06237 0.69679 0.01600
H 	H 	0.75123 0.08427 0.70137 0.00700
C 	C 	0.75433 0.01197 0.70672 -0.06100
H 	H 	0.73063 0.00087 0.71847 0.04700
C 	C 	0.80973 0.99577 0.68249 -0.02200
H 	H 	0.82443 0.97297 0.67697 0.03900
C 	C 	0.82303 0.04727 0.67339 0.03400
H 	H 	0.84603 0.05877 0.66147 -0.00000
H 	H 	0.73653 0.94037 0.76517 0.04700
C 	C 	0.72213 0.90317 0.77102 -0.05000
H 	H 	0.71383 0.92627 0.79937 0.00700
C 	C 	0.70743 0.89397 0.79142 0.01900
H 	H 	0.56143 0.85117 0.83647 0.00600
C 	C 	0.54173 0.81177 0.83251 0.01700
H 	H 	0.46173 0.80247 0.83467 0.04400
C 	C 	0.48223 0.78317 0.83128 -0.04500
C 	C 	0.86250 0.22100 0.10135 -0.04600
H 	H 	0.89510 0.24690 0.09350 0.04400
C 	C 	0.86800 0.21270 0.12183 0.01400
H 	H 	0.90520 0.23450 0.12770 0.00800
C 	C 	0.93500 0.14530 0.15472 0.01900
H 	H 	0.95270 0.18430 0.15040 0.00800
C 	C 	0.96620 0.11700 0.15358 -0.03900
H 	H 	0.00550 0.13730 0.14950 0.03700
N 	N 	0.75151 0.16025 0.06210 -0.14700
C 	C 	0.74398 0.17227 0.04308 0.10500
C 	C 	0.68925 0.13133 0.03274 0.02300
N 	N 	0.58485 0.05613 0.01410 -0.22300
C 	C 	0.59290 0.05560 0.03433 0.01800
H 	H 	0.56170 0.02790 0.04230 0.00400
C 	C 	0.64290 0.09220 0.04410 -0.03800
H 	H 	0.64570 0.09070 0.05850 0.04000
C 	C 	0.68380 0.13150 0.01175 -0.07100
H 	H 	0.71530 0.15770 0.00350 0.05100
C 	C 	0.63180 0.09290 0.00307 -0.00500
H 	H 	0.62860 0.09200 0.98860 0.01200
C 	C 	0.60430 0.03900 0.03012 0.01600
H 	H 	0.58240 0.00030 0.03470 0.00500
C 	C 	0.65470 0.07570 0.04005 -0.05800
H 	H 	0.66580 0.06310 0.05180 0.04700
C 	C 	0.67090 0.14730 0.01582 -0.02500
H 	H 	0.69370 0.18480 0.01030 0.03800
C 	C 	0.61940 0.10910 0.00672 0.03600
H 	H 	0.60790 0.12060 0.99480 -0.00100
H 	H 	0.72630 0.12950 0.09850 0.04500
C 	C 	0.76350 0.15230 0.10435 -0.05100
H 	H 	0.74040 0.12090 0.13270 0.00600
C 	C 	0.77270 0.14680 0.12475 0.01700
H 	H 	0.81550 0.04360 0.16980 0.00200
C 	C 	0.85490 0.06330 0.16584 0.02400
H 	H 	0.86420 0.99260 0.16800 0.04800
C 	C 	0.88350 0.03240 0.16461 -0.04700
C 	C 	0.52917 0.55433 0.43468 -0.04500
H 	H 	0.56177 0.58023 0.42683 0.04400
C 	C 	0.53467 0.54603 0.45516 0.01400
H 	H 	0.57187 0.56783 0.46103 0.00800
C 	C 	0.60167 0.47863 0.48805 0.01600
H 	H 	0.61937 0.51763 0.48373 0.00800
C 	C 	0.63287 0.45033 0.48691 -0.05100
H 	H 	0.67217 0.47063 0.48283 0.04600
N 	N 	0.41818 0.49358 0.39543 -0.14700
C 	C 	0.41065 0.50560 0.37641 0.10600
C 	C 	0.35592 0.46466 0.36607 0.02300
N 	N 	0.25152 0.38946 0.34743 -0.22200
C 	C 	0.25957 0.38893 0.36766 0.01500
H 	H 	0.22837 0.36123 0.37563 0.00600
C 	C 	0.30957 0.42553 0.37743 -0.04000
H 	H 	0.31237 0.42403 0.39183 0.04100
C 	C 	0.35047 0.46483 0.34508 -0.06800
H 	H 	0.38197 0.49103 0.33683 0.05000
C 	C 	0.29847 0.42623 0.33640 -0.00200
H 	H 	0.29527 0.42533 0.32193 0.01300
C 	C 	0.27097 0.37233 0.36345 0.01800
H 	H 	0.24907 0.33363 0.36803 0.00700
C 	C 	0.32137 0.40903 0.37338 -0.05500
H 	H 	0.33247 0.39643 0.38513 0.04600
C 	C 	0.33757 0.48063 0.34915 -0.02700
H 	H 	0.36037 0.51813 0.34363 0.03800
C 	C 	0.28607 0.44243 0.34005 0.03400
H 	H 	0.27457 0.45393 0.32813 -0.00000
H 	H 	0.39297 0.46283 0.43183 0.04600
C 	C 	0.43017 0.48563 0.43768 -0.05100
H 	H 	0.40707 0.45423 0.46603 0.00600
C 	C 	0.43937 0.48013 0.45808 0.01700
H 	H 	0.48217 0.37693 0.50313 0.00600
C 	C 	0.52157 0.39663 0.49917 0.01700
H 	H 	0.53087 0.32593 0.50133 0.04300
C 	C 	0.55017 0.36573 0.49794 -0.04500
C 	C 	0.19583 0.88767 0.76802 -0.04400
H 	H 	0.22843 0.91357 0.76017 0.04400
C 	C 	0.20133 0.87937 0.78850 0.01600
H 	H 	0.23853 0.90117 0.79437 0.00800
C 	C 	0.26833 0.81197 0.82139 0.01600
H 	H 	0.28603 0.85097 0.81707 0.00800
C 	C 	0.29953 0.78367 0.82025 -0.05100
H 	H 	0.33883 0.80397 0.81617 0.04600
N 	N 	0.08484 0.82692 0.72877 -0.14800
C 	C 	0.07731 0.83894 0.70975 0.10600
C 	C 	0.02258 0.79800 0.69941 0.01700
N 	N 	0.91818 0.72280 0.68077 -0.22200
C 	C 	0.92623 0.72227 0.70100 0.01500
H 	H 	0.89503 0.69457 0.70897 0.00700
C 	C 	0.97623 0.75887 0.71077 -0.03700
H 	H 	0.97903 0.75737 0.72517 0.04200
C 	C 	0.01713 0.79817 0.67842 -0.07000
H 	H 	0.04863 0.82437 0.67017 0.05000
C 	C 	0.96513 0.75957 0.66974 0.00200
H 	H 	0.96193 0.75867 0.65527 0.01200
C 	C 	0.93763 0.70567 0.69679 0.01800
H 	H 	0.91573 0.66697 0.70137 0.00700
C 	C 	0.98803 0.74237 0.70672 -0.05100
H 	H 	0.99913 0.72977 0.71847 0.04700
C 	C 	0.00423 0.81397 0.68249 -0.03100
H 	H 	0.02703 0.85147 0.67697 0.03900
C 	C 	0.95273 0.77577 0.67339 0.03700
H 	H 	0.94123 0.78727 0.66147 0.00000
H 	H 	0.05963 0.79617 0.76517 0.04400
C 	C 	0.09683 0.81897 0.77102 -0.04900
H 	H 	0.07373 0.78757 0.79937 0.00500
C 	C 	0.10603 0.81347 0.79142 0.01900
H 	H 	0.14883 0.71027 0.83647 0.00500
C 	C 	0.18823 0.72997 0.83251 0.01700
H 	H 	0.19753 0.65927 0.83467 0.04300
C 	C 	0.21683 0.69907 0.83128 -0.04500
C 	C 	0.77900 0.64150 0.10135 -0.04400
H 	H 	0.75310 0.64820 0.09350 0.04300
C 	C 	0.78730 0.65530 0.12183 0.01600
H 	H 	0.76550 0.67070 0.12770 0.00700
C 	C 	0.85470 0.78970 0.15472 0.01400
H 	H 	0.81570 0.76840 0.15040 0.00800
C 	C 	0.88300 0.84920 0.15358 -0.05100
H 	H 	0.86270 0.86820 0.14950 0.04600
N 	N 	0.83975 0.59126 0.06210 -0.14700
C 	C 	0.82773 0.57171 0.04308 0.10600
C 	C 	0.86867 0.55792 0.03274 0.02400
N 	N 	0.94387 0.52872 0.01410 -0.22000
C 	C 	0.94440 0.53730 0.03433 0.01200
H 	H 	0.97210 0.53380 0.04230 0.00900
C 	C 	0.90780 0.55070 0.04410 -0.04400
H 	H 	0.90930 0.55500 0.05850 0.04300
C 	C 	0.86850 0.55230 0.01175 -0.06400
H 	H 	0.84230 0.55760 0.00350 0.04900
C 	C 	0.90710 0.53890 0.00307 0.00200
H 	H 	0.90800 0.53660 0.98860 0.01300
C 	C 	0.96100 0.56530 0.03012 0.02100
H 	H 	0.99970 0.58210 0.03470 0.00800
C 	C 	0.92430 0.57900 0.04005 -0.05100
H 	H 	0.93690 0.60270 0.05180 0.04600
C 	C 	0.85270 0.52360 0.01582 -0.03100
H 	H 	0.81520 0.50890 0.01030 0.04000
C 	C 	0.89090 0.51030 0.00672 0.03100
H 	H 	0.87940 0.48730 0.99480 0.00100
H 	H 	0.87050 0.59680 0.09850 0.04700
C 	C 	0.84770 0.61120 0.10435 -0.05200
H 	H 	0.87910 0.61950 0.13270 0.00700
C 	C 	0.85320 0.62590 0.12475 0.01600
H 	H 	0.95640 0.77190 0.16980 0.00900
C 	C 	0.93670 0.79160 0.16584 0.01200
H 	H 	0.00740 0.87160 0.16800 0.03800
C 	C 	0.96760 0.85110 0.16461 -0.03900
C 	C 	0.44567 0.97483 0.43468 -0.01800
H 	H 	0.41977 0.98153 0.42683 0.03600
C 	C 	0.45397 0.98863 0.45516 0.03500
H 	H 	0.43217 0.00403 0.46103 -0.00400
C 	C 	0.52137 0.12303 0.48805 0.01500
H 	H 	0.48237 0.10173 0.48373 0.00700
C 	C 	0.54967 0.18253 0.48691 -0.05200
H 	H 	0.52937 0.20153 0.48283 0.04500
N 	N 	0.50642 0.92459 0.39543 -0.14700
C 	C 	0.49440 0.90504 0.37641 0.10600
C 	C 	0.53534 0.89125 0.36607 0.02400
N 	N 	0.61054 0.86205 0.34743 -0.22200
C 	C 	0.61107 0.87063 0.36766 0.01300
H 	H 	0.63877 0.86713 0.37563 0.00700
C 	C 	0.57447 0.88403 0.37743 -0.04200
H 	H 	0.57597 0.88833 0.39183 0.04200
C 	C 	0.53517 0.88563 0.34508 -0.06500
H 	H 	0.50897 0.89093 0.33683 0.05000
C 	C 	0.57377 0.87223 0.33640 0.00000
H 	H 	0.57467 0.86993 0.32193 0.01200
C 	C 	0.62767 0.89863 0.36345 0.02000
H 	H 	0.66637 0.91543 0.36803 0.00700
C 	C 	0.59097 0.91233 0.37338 -0.05300
H 	H 	0.60357 0.93603 0.38513 0.04700
C 	C 	0.51937 0.85693 0.34915 -0.03000
H 	H 	0.48187 0.84223 0.34363 0.03900
C 	C 	0.55757 0.84363 0.34005 0.03200
H 	H 	0.54607 0.82063 0.32813 0.00100
H 	H 	0.53717 0.93013 0.43183 0.05600
C 	C 	0.51437 0.94453 0.43768 -0.08200
H 	H 	0.54577 0.95283 0.46603 0.01300
C 	C 	0.51987 0.95923 0.45808 0.00500
H 	H 	0.62307 0.10523 0.50313 0.00500
C 	C 	0.60337 0.12493 0.49917 0.01700
H 	H 	0.67407 0.20493 0.50133 0.04300
C 	C 	0.63427 0.18443 0.49794 -0.04400
C 	C 	0.11233 0.30817 0.76802 -0.04400
H 	H 	0.08643 0.31487 0.76017 0.04200
C 	C 	0.12063 0.32197 0.78850 0.01500
H 	H 	0.09883 0.33737 0.79437 0.00700
C 	C 	0.18803 0.45637 0.82139 0.01600
H 	H 	0.14903 0.43507 0.81707 0.00700
C 	C 	0.21633 0.51587 0.82025 -0.05100
H 	H 	0.19603 0.53487 0.81617 0.04500
N 	N 	0.17308 0.25793 0.72877 -0.14700
C 	C 	0.16106 0.23838 0.70975 0.10500
C 	C 	0.20200 0.22459 0.69941 0.02300
N 	N 	0.27720 0.19539 0.68077 -0.22200
C 	C 	0.27773 0.20397 0.70100 0.01300
H 	H 	0.30543 0.20047 0.70897 0.00700
C 	C 	0.24113 0.21737 0.71077 -0.04300
H 	H 	0.24263 0.22167 0.72517 0.04200
C 	C 	0.20183 0.21897 0.67842 -0.06600
H 	H 	0.17563 0.22427 0.67017 0.04900
C 	C 	0.24043 0.20557 0.66974 -0.00000
H 	H 	0.24133 0.20327 0.65527 0.01200
C 	C 	0.29433 0.23197 0.69679 0.02000
H 	H 	0.33303 0.24877 0.70137 0.00600
C 	C 	0.25763 0.24567 0.70672 -0.05300
H 	H 	0.27023 0.26937 0.71847 0.04600
C 	C 	0.18603 0.19027 0.68249 -0.02900
H 	H 	0.14853 0.17557 0.67697 0.03800
C 	C 	0.22423 0.17697 0.67339 0.03200
H 	H 	0.21273 0.15397 0.66147 -0.00000
H 	H 	0.20383 0.26347 0.76517 0.04600
C 	C 	0.18103 0.27787 0.77102 -0.05300
H 	H 	0.21243 0.28617 0.79937 0.00600
C 	C 	0.18653 0.29257 0.79142 0.01500
H 	H 	0.28973 0.43857 0.83647 0.00600
C 	C 	0.27003 0.45827 0.83251 0.01700
H 	H 	0.34073 0.53827 0.83467 0.04300
C 	C 	0.30093 0.51777 0.83128 -0.04500
C 	C 	0.13750 0.35850 0.89865 -0.04700
H 	H 	0.10490 0.35180 0.90650 0.04300
C 	C 	0.13200 0.34470 0.87817 0.01300
H 	H 	0.09480 0.32930 0.87230 0.00700
C 	C 	0.06500 0.21030 0.84528 0.01600
H 	H 	0.04730 0.23160 0.84960 0.00600
C 	C 	0.03380 0.15080 0.84642 -0.06300
H 	H 	0.99450 0.13180 0.85050 0.05300
N 	N 	0.24849 0.40874 0.93790 -0.14700
C 	C 	0.25602 0.42829 0.95692 0.10500
C 	C 	0.31075 0.44208 0.96726 0.02300
N 	N 	0.41515 0.47128 0.98590 -0.22200
C 	C 	0.40710 0.46270 0.96567 0.01600
H 	H 	0.43830 0.46620 0.95770 0.00600
C 	C 	0.35710 0.44930 0.95590 -0.04000
H 	H 	0.35430 0.44500 0.94150 0.04100
C 	C 	0.31620 0.44770 0.98825 -0.06900
H 	H 	0.28470 0.44240 0.99650 0.05000
C 	C 	0.36820 0.46110 0.99693 -0.00300
H 	H 	0.37140 0.46340 0.01140 0.01300
C 	C 	0.39570 0.43470 0.96988 0.01700
H 	H 	0.41760 0.41790 0.96530 0.00700
C 	C 	0.34530 0.42100 0.95995 -0.05600
H 	H 	0.33420 0.39730 0.94820 0.04700
C 	C 	0.32910 0.47640 0.98418 -0.02600
H 	H 	0.30630 0.49110 0.98970 0.03800
C 	C 	0.38060 0.48970 0.99328 0.03500
H 	H 	0.39210 0.51270 0.00520 -0.00000
H 	H 	0.27370 0.40320 0.90150 0.04500
C 	C 	0.23650 0.38880 0.89565 -0.04900
H 	H 	0.25960 0.38050 0.86730 0.00500
C 	C 	0.22730 0.37410 0.87525 0.01900
H 	H 	0.18450 0.22810 0.83020 0.00600
C 	C 	0.14510 0.20840 0.83416 0.01500
H 	H 	0.13580 0.12840 0.83200 0.04400
C 	C 	0.11650 0.14890 0.83539 -0.04900
C 	C 	0.80417 0.69183 0.23198 -0.04700
H 	H 	0.77157 0.68513 0.23983 0.04400
C 	C 	0.79867 0.67803 0.21150 0.01300
H 	H 	0.76147 0.66263 0.20563 0.00800
C 	C 	0.73167 0.54363 0.17861 0.01700
H 	H 	0.71397 0.56493 0.18293 0.00700
C 	C 	0.70047 0.48413 0.17975 -0.05100
H 	H 	0.66117 0.46513 0.18383 0.04500
N 	N 	0.91516 0.74207 0.27123 -0.14600
C 	C 	0.92269 0.76162 0.29025 0.10500
C 	C 	0.97742 0.77541 0.30059 0.03000
N 	N 	0.08182 0.80461 0.31923 -0.22100
C 	C 	0.07377 0.79603 0.29900 0.01800
H 	H 	0.10497 0.79953 0.29103 0.00500
C 	C 	0.02377 0.78263 0.28923 -0.04200
H 	H 	0.02097 0.77833 0.27483 0.04100
C 	C 	0.98287 0.78103 0.32158 -0.06800
H 	H 	0.95137 0.77573 0.32983 0.05100
C 	C 	0.03487 0.79443 0.33026 -0.00800
H 	H 	0.03807 0.79673 0.34473 0.01400
C 	C 	0.06237 0.76803 0.30321 0.01600
H 	H 	0.08427 0.75123 0.29863 0.00700
C 	C 	0.01197 0.75433 0.29328 -0.06100
H 	H 	0.00087 0.73063 0.28153 0.04700
C 	C 	0.99577 0.80973 0.31751 -0.02200
H 	H 	0.97297 0.82443 0.32303 0.03900
C 	C 	0.04727 0.82303 0.32661 0.03400
H 	H 	0.05877 0.84603 0.33853 -0.00000
H 	H 	0.94037 0.73653 0.23483 0.04700
C 	C 	0.90317 0.72213 0.22898 -0.05000
H 	H 	0.92627 0.71383 0.20063 0.00700
C 	C 	0.89397 0.70743 0.20858 0.01900
H 	H 	0.85117 0.56143 0.16353 0.00600
C 	C 	0.81177 0.54173 0.16749 0.01700
H 	H 	0.80247 0.46173 0.16533 0.04400
C 	C 	0.78317 0.48223 0.16872 -0.04500
C 	C 	0.47083 0.02517 0.56532 -0.07200
H 	H 	0.43823 0.01847 0.57317 0.05100
C 	C 	0.46533 0.01137 0.54484 -0.00600
H 	H 	0.42813 0.99597 0.53897 0.02100
C 	C 	0.39833 0.87697 0.51195 0.01700
H 	H 	0.38063 0.89827 0.51627 0.00900
C 	C 	0.36713 0.81747 0.51309 -0.05000
H 	H 	0.32783 0.79847 0.51717 0.04500
N 	N 	0.58182 0.07541 0.60457 -0.14800
C 	C 	0.58935 0.09496 0.62359 0.10500
C 	C 	0.64408 0.10875 0.63393 0.02300
N 	N 	0.74848 0.13795 0.65257 -0.22200
C 	C 	0.74043 0.12937 0.63234 0.01700
H 	H 	0.77163 0.13287 0.62437 0.00600
C 	C 	0.69043 0.11597 0.62257 -0.03900
H 	H 	0.68763 0.11167 0.60817 0.04100
C 	C 	0.64953 0.11437 0.65492 -0.07000
H 	H 	0.61803 0.10907 0.66317 0.05000
C 	C 	0.70153 0.12777 0.66360 -0.00400
H 	H 	0.70473 0.13007 0.67807 0.01300
C 	C 	0.72903 0.10137 0.63655 0.01600
H 	H 	0.75093 0.08457 0.63197 0.00700
C 	C 	0.67863 0.08767 0.62662 -0.05700
H 	H 	0.66753 0.06397 0.61487 0.04700
C 	C 	0.66243 0.14307 0.65085 -0.02500
H 	H 	0.63963 0.15777 0.65637 0.03800
C 	C 	0.71393 0.15637 0.65995 0.03600
H 	H 	0.72543 0.17937 0.67187 -0.00100
H 	H 	0.60703 0.06987 0.56817 0.03600
C 	C 	0.56983 0.05547 0.56232 -0.02000
H 	H 	0.59293 0.04717 0.53397 0.00000
C 	C 	0.56063 0.04077 0.54192 0.03000
H 	H 	0.51783 0.89477 0.49687 0.00700
C 	C 	0.47843 0.87507 0.50083 0.01600
H 	H 	0.46913 0.79507 0.49867 0.04400
C 	C 	0.44983 0.81557 0.50206 -0.04500
C 	C 	0.22100 0.86250 0.89865 -0.04600
H 	H 	0.24690 0.89510 0.90650 0.04400
C 	C 	0.21270 0.86800 0.87817 0.01400
H 	H 	0.23450 0.90520 0.87230 0.00800
C 	C 	0.14530 0.93500 0.84528 0.01900
H 	H 	0.18430 0.95270 0.84960 0.00800
C 	C 	0.11700 0.96620 0.84642 -0.03900
H 	H 	0.13730 0.00550 0.85050 0.03700
N 	N 	0.16025 0.75151 0.93790 -0.14700
C 	C 	0.17227 0.74398 0.95692 0.10500
C 	C 	0.13133 0.68925 0.96726 0.02300
N 	N 	0.05613 0.58485 0.98590 -0.22300
C 	C 	0.05560 0.59290 0.96567 0.01800
H 	H 	0.02790 0.56170 0.95770 0.00400
C 	C 	0.09220 0.64290 0.95590 -0.03800
H 	H 	0.09070 0.64570 0.94150 0.04000
C 	C 	0.13150 0.68380 0.98825 -0.07100
H 	H 	0.15770 0.71530 0.99650 0.05100
C 	C 	0.09290 0.63180 0.99693 -0.00400
H 	H 	0.09200 0.62860 0.01140 0.01200
C 	C 	0.03900 0.60430 0.96988 0.01600
H 	H 	0.00030 0.58240 0.96530 0.00500
C 	C 	0.07570 0.65470 0.95995 -0.05800
H 	H 	0.06310 0.66580 0.94820 0.04700
C 	C 	0.14730 0.67090 0.98418 -0.02500
H 	H 	0.18480 0.69370 0.98970 0.03800
C 	C 	0.10910 0.61940 0.99328 0.03700
H 	H 	0.12060 0.60790 0.00520 -0.00100
H 	H 	0.12950 0.72630 0.90150 0.04500
C 	C 	0.15230 0.76350 0.89565 -0.05100
H 	H 	0.12090 0.74040 0.86730 0.00600
C 	C 	0.14680 0.77270 0.87525 0.01700
H 	H 	0.04360 0.81550 0.83020 0.00200
C 	C 	0.06330 0.85490 0.83416 0.02400
H 	H 	0.99260 0.86420 0.83200 0.04800
C 	C 	0.03240 0.88350 0.83539 -0.04700
C 	C 	0.88767 0.19583 0.23198 -0.04400
H 	H 	0.91357 0.22843 0.23983 0.04400
C 	C 	0.87937 0.20133 0.21150 0.01600
H 	H 	0.90117 0.23853 0.20563 0.00800
C 	C 	0.81197 0.26833 0.17861 0.01600
H 	H 	0.85097 0.28603 0.18293 0.00800
C 	C 	0.78367 0.29953 0.17975 -0.05100
H 	H 	0.80397 0.33883 0.18383 0.04600
N 	N 	0.82692 0.08484 0.27123 -0.14800
C 	C 	0.83894 0.07731 0.29025 0.10600
C 	C 	0.79800 0.02258 0.30059 0.01700
N 	N 	0.72280 0.91818 0.31923 -0.22200
C 	C 	0.72227 0.92623 0.29900 0.01500
H 	H 	0.69457 0.89503 0.29103 0.00700
C 	C 	0.75887 0.97623 0.28923 -0.03700
H 	H 	0.75737 0.97903 0.27483 0.04200
C 	C 	0.79817 0.01713 0.32158 -0.07000
H 	H 	0.82437 0.04863 0.32983 0.05000
C 	C 	0.75957 0.96513 0.33026 0.00200
H 	H 	0.75867 0.96193 0.34473 0.01200
C 	C 	0.70567 0.93763 0.30321 0.01800
H 	H 	0.66697 0.91573 0.29863 0.00700
C 	C 	0.74237 0.98803 0.29328 -0.05100
H 	H 	0.72977 0.99913 0.28153 0.04700
C 	C 	0.81397 0.00423 0.31751 -0.03100
H 	H 	0.85147 0.02703 0.32303 0.03900
C 	C 	0.77577 0.95273 0.32661 0.03700
H 	H 	0.78727 0.94123 0.33853 0.00000
H 	H 	0.79617 0.05963 0.23483 0.04400
C 	C 	0.81897 0.09683 0.22898 -0.04900
H 	H 	0.78757 0.07373 0.20063 0.00500
C 	C 	0.81347 0.10603 0.20858 0.01900
H 	H 	0.71027 0.14883 0.16353 0.00500
C 	C 	0.72997 0.18823 0.16749 0.01700
H 	H 	0.65927 0.19753 0.16533 0.04300
C 	C 	0.69907 0.21683 0.16872 -0.04500
C 	C 	0.55433 0.52917 0.56532 -0.04500
H 	H 	0.58023 0.56177 0.57317 0.04400
C 	C 	0.54603 0.53467 0.54484 0.01400
H 	H 	0.56783 0.57187 0.53897 0.00800
C 	C 	0.47863 0.60167 0.51195 0.01600
H 	H 	0.51763 0.61937 0.51627 0.00800
C 	C 	0.45033 0.63287 0.51309 -0.05100
H 	H 	0.47063 0.67217 0.51717 0.04600
N 	N 	0.49358 0.41818 0.60457 -0.14700
C 	C 	0.50560 0.41065 0.62359 0.10600
C 	C 	0.46466 0.35592 0.63393 0.02300
N 	N 	0.38946 0.25152 0.65257 -0.22200
C 	C 	0.38893 0.25957 0.63234 0.01500
H 	H 	0.36123 0.22837 0.62437 0.00600
C 	C 	0.42553 0.30957 0.62257 -0.04000
H 	H 	0.42403 0.31237 0.60817 0.04100
C 	C 	0.46483 0.35047 0.65492 -0.06800
H 	H 	0.49103 0.38197 0.66317 0.05000
C 	C 	0.42623 0.29847 0.66360 -0.00200
H 	H 	0.42533 0.29527 0.67807 0.01300
C 	C 	0.37233 0.27097 0.63655 0.01800
H 	H 	0.33363 0.24907 0.63197 0.00700
C 	C 	0.40903 0.32137 0.62662 -0.05500
H 	H 	0.39643 0.33247 0.61487 0.04600
C 	C 	0.48063 0.33757 0.65085 -0.02700
H 	H 	0.51813 0.36037 0.65637 0.03800
C 	C 	0.44243 0.28607 0.65995 0.03400
H 	H 	0.45393 0.27457 0.67187 -0.00000
H 	H 	0.46283 0.39297 0.56817 0.04600
C 	C 	0.48563 0.43017 0.56232 -0.05100
H 	H 	0.45423 0.40707 0.53397 0.00600
C 	C 	0.48013 0.43937 0.54192 0.01700
H 	H 	0.37693 0.48217 0.49687 0.00600
C 	C 	0.39663 0.52157 0.50083 0.01700
H 	H 	0.32593 0.53087 0.49867 0.04300
C 	C 	0.36573 0.55017 0.50206 -0.04500
C 	C 	0.64150 0.77900 0.89865 -0.04400
H 	H 	0.64820 0.75310 0.90650 0.04300
C 	C 	0.65530 0.78730 0.87817 0.01600
H 	H 	0.67070 0.76550 0.87230 0.00700
C 	C 	0.78970 0.85470 0.84528 0.01400
H 	H 	0.76840 0.81570 0.84960 0.00800
C 	C 	0.84920 0.88300 0.84642 -0.05100
H 	H 	0.86820 0.86270 0.85050 0.04600
N 	N 	0.59126 0.83975 0.93790 -0.14700
C 	C 	0.57171 0.82773 0.95692 0.10600
C 	C 	0.55792 0.86867 0.96726 0.02400
N 	N 	0.52872 0.94387 0.98590 -0.22000
C 	C 	0.53730 0.94440 0.96567 0.01200
H 	H 	0.53380 0.97210 0.95770 0.00900
C 	C 	0.55070 0.90780 0.95590 -0.04400
H 	H 	0.55500 0.90930 0.94150 0.04300
C 	C 	0.55230 0.86850 0.98825 -0.06400
H 	H 	0.55760 0.84230 0.99650 0.04900
C 	C 	0.53890 0.90710 0.99693 0.00200
H 	H 	0.53660 0.90800 0.01140 0.01300
C 	C 	0.56530 0.96100 0.96988 0.02100
H 	H 	0.58210 0.99970 0.96530 0.00800
C 	C 	0.57900 0.92430 0.95995 -0.05100
H 	H 	0.60270 0.93690 0.94820 0.04600
C 	C 	0.52360 0.85270 0.98418 -0.03100
H 	H 	0.50890 0.81520 0.98970 0.04000
C 	C 	0.51030 0.89090 0.99328 0.03100
H 	H 	0.48730 0.87940 0.00520 0.00100
H 	H 	0.59680 0.87050 0.90150 0.04700
C 	C 	0.61120 0.84770 0.89565 -0.05200
H 	H 	0.61950 0.87910 0.86730 0.00700
C 	C 	0.62590 0.85320 0.87525 0.01600
H 	H 	0.77190 0.95640 0.83020 0.00900
C 	C 	0.79160 0.93670 0.83416 0.01200
H 	H 	0.87160 0.00740 0.83200 0.03800
C 	C 	0.85110 0.96760 0.83539 -0.03900
C 	C 	0.30817 0.11233 0.23198 -0.04400
H 	H 	0.31487 0.08643 0.23983 0.04200
C 	C 	0.32197 0.12063 0.21150 0.01500
H 	H 	0.33737 0.09883 0.20563 0.00700
C 	C 	0.45637 0.18803 0.17861 0.01600
H 	H 	0.43507 0.14903 0.18293 0.00700
C 	C 	0.51587 0.21633 0.17975 -0.05100
H 	H 	0.53487 0.19603 0.18383 0.04500
N 	N 	0.25793 0.17308 0.27123 -0.14700
C 	C 	0.23838 0.16106 0.29025 0.10500
C 	C 	0.22459 0.20200 0.30059 0.02300
N 	N 	0.19539 0.27720 0.31923 -0.22200
C 	C 	0.20397 0.27773 0.29900 0.01300
H 	H 	0.20047 0.30543 0.29103 0.00700
C 	C 	0.21737 0.24113 0.28923 -0.04300
H 	H 	0.22167 0.24263 0.27483 0.04200
C 	C 	0.21897 0.20183 0.32158 -0.06600
H 	H 	0.22427 0.17563 0.32983 0.04900
C 	C 	0.20557 0.24043 0.33026 -0.00000
H 	H 	0.20327 0.24133 0.34473 0.01200
C 	C 	0.23197 0.29433 0.30321 0.02000
H 	H 	0.24877 0.33303 0.29863 0.00600
C 	C 	0.24567 0.25763 0.29328 -0.05300
H 	H 	0.26937 0.27023 0.28153 0.04600
C 	C 	0.19027 0.18603 0.31751 -0.02900
H 	H 	0.17557 0.14853 0.32303 0.03800
C 	C 	0.17697 0.22423 0.32661 0.03200
H 	H 	0.15397 0.21273 0.33853 -0.00000
H 	H 	0.26347 0.20383 0.23483 0.04600
C 	C 	0.27787 0.18103 0.22898 -0.05300
H 	H 	0.28617 0.21243 0.20063 0.00600
C 	C 	0.29257 0.18653 0.20858 0.01500
H 	H 	0.43857 0.28973 0.16353 0.00600
C 	C 	0.45827 0.27003 0.16749 0.01700
H 	H 	0.53827 0.34073 0.16533 0.04300
C 	C 	0.51777 0.30093 0.16872 -0.04500
C 	C 	0.97483 0.44567 0.56532 -0.01800
H 	H 	0.98153 0.41977 0.57317 0.03600
C 	C 	0.98863 0.45397 0.54484 0.03500
H 	H 	0.00403 0.43217 0.53897 -0.00400
C 	C 	0.12303 0.52137 0.51195 0.01500
H 	H 	0.10173 0.48237 0.51627 0.00700
C 	C 	0.18253 0.54967 0.51309 -0.05200
H 	H 	0.20153 0.52937 0.51717 0.04500
N 	N 	0.92459 0.50642 0.60457 -0.14700
C 	C 	0.90504 0.49440 0.62359 0.10600
C 	C 	0.89125 0.53534 0.63393 0.02400
N 	N 	0.86205 0.61054 0.65257 -0.22200
C 	C 	0.87063 0.61107 0.63234 0.01300
H 	H 	0.86713 0.63877 0.62437 0.00700
C 	C 	0.88403 0.57447 0.62257 -0.04200
H 	H 	0.88833 0.57597 0.60817 0.04200
C 	C 	0.88563 0.53517 0.65492 -0.06500
H 	H 	0.89093 0.50897 0.66317 0.05000
C 	C 	0.87223 0.57377 0.66360 0.00000
H 	H 	0.86993 0.57467 0.67807 0.01200
C 	C 	0.89863 0.62767 0.63655 0.02000
H 	H 	0.91543 0.66637 0.63197 0.00700
C 	C 	0.91233 0.59097 0.62662 -0.05300
H 	H 	0.93603 0.60357 0.61487 0.04700
C 	C 	0.85693 0.51937 0.65085 -0.03000
H 	H 	0.84223 0.48187 0.65637 0.03900
C 	C 	0.84363 0.55757 0.65995 0.03200
H 	H 	0.82063 0.54607 0.67187 0.00100
H 	H 	0.93013 0.53717 0.56817 0.05600
C 	C 	0.94453 0.51437 0.56232 -0.08200
H 	H 	0.95283 0.54577 0.53397 0.01300
C 	C 	0.95923 0.51987 0.54192 0.00500
H 	H 	0.10523 0.62307 0.49687 0.00500
C 	C 	0.12493 0.60337 0.50083 0.01700
H 	H 	0.20493 0.67407 0.49867 0.04300
C 	C 	0.18443 0.63427 0.50206 -0.04400
C 	C 	0.64150 0.86250 0.89865 -0.04400
H 	H 	0.64820 0.89510 0.90650 0.04400
C 	C 	0.65530 0.86800 0.87817 0.01600
H 	H 	0.67070 0.90520 0.87230 0.00800
C 	C 	0.78970 0.93500 0.84528 0.01600
H 	H 	0.76840 0.95270 0.84960 0.00900
C 	C 	0.84920 0.96620 0.84642 -0.04000
H 	H 	0.86820 0.00550 0.85050 0.03800
N 	N 	0.59126 0.75151 0.93790 -0.14700
C 	C 	0.57171 0.74398 0.95692 0.10600
C 	C 	0.55792 0.68925 0.96726 0.02400
N 	N 	0.52872 0.58485 0.98590 -0.22200
C 	C 	0.53730 0.59290 0.96567 0.01400
H 	H 	0.53380 0.56170 0.95770 0.00700
C 	C 	0.55070 0.64290 0.95590 -0.04200
H 	H 	0.55500 0.64570 0.94150 0.04200
C 	C 	0.55230 0.68380 0.98825 -0.06600
H 	H 	0.55760 0.71530 0.99650 0.05000
C 	C 	0.53890 0.63180 0.99693 -0.00100
H 	H 	0.53660 0.62860 0.01140 0.01200
C 	C 	0.56530 0.60430 0.96988 0.01900
H 	H 	0.58210 0.58240 0.96530 0.00700
C 	C 	0.57900 0.65470 0.95995 -0.05400
H 	H 	0.60270 0.66580 0.94820 0.04600
C 	C 	0.52360 0.67090 0.98418 -0.02900
H 	H 	0.50890 0.69370 0.98970 0.03900
C 	C 	0.51030 0.61940 0.99328 0.03300
H 	H 	0.48730 0.60790 0.00520 0.00000
H 	H 	0.59680 0.72630 0.90150 0.04600
C 	C 	0.61120 0.76350 0.89565 -0.05200
H 	H 	0.61950 0.74040 0.86730 0.00600
C 	C 	0.62590 0.77270 0.87525 0.01600
H 	H 	0.77190 0.81550 0.83020 0.00500
C 	C 	0.79160 0.85490 0.83416 0.01800
H 	H 	0.87160 0.86420 0.83200 0.04300
C 	C 	0.85110 0.88350 0.83539 -0.04100
C 	C 	0.30817 0.19583 0.23198 -0.04300
H 	H 	0.31487 0.22843 0.23983 0.04300
C 	C 	0.32197 0.20133 0.21150 0.01600
H 	H 	0.33737 0.23853 0.20563 0.00700
C 	C 	0.45637 0.26833 0.17861 0.01600
H 	H 	0.43507 0.28603 0.18293 0.00700
C 	C 	0.51587 0.29953 0.17975 -0.05100
H 	H 	0.53487 0.33883 0.18383 0.04500
N 	N 	0.25793 0.08484 0.27123 -0.14900
C 	C 	0.23838 0.07731 0.29025 0.10600
C 	C 	0.22459 0.02258 0.30059 0.01700
N 	N 	0.19539 0.91818 0.31923 -0.22200
C 	C 	0.20397 0.92623 0.29900 0.01200
H 	H 	0.20047 0.89503 0.29103 0.00700
C 	C 	0.21737 0.97623 0.28923 -0.03900
H 	H 	0.22167 0.97903 0.27483 0.04200
C 	C 	0.21897 0.01713 0.32158 -0.06800
H 	H 	0.22427 0.04863 0.32983 0.04900
C 	C 	0.20557 0.96513 0.33026 0.00400
H 	H 	0.20327 0.96193 0.34473 0.01200
C 	C 	0.23197 0.93763 0.30321 0.02000
H 	H 	0.24877 0.91573 0.29863 0.00700
C 	C 	0.24567 0.98803 0.29328 -0.04800
H 	H 	0.26937 0.99913 0.28153 0.04600
C 	C 	0.19027 0.00423 0.31751 -0.03300
H 	H 	0.17557 0.02703 0.32303 0.03900
C 	C 	0.17697 0.95273 0.32661 0.03500
H 	H 	0.15397 0.94123 0.33853 0.00000
H 	H 	0.26347 0.05963 0.23483 0.04400
C 	C 	0.27787 0.09683 0.22898 -0.05100
H 	H 	0.28617 0.07373 0.20063 0.00500
C 	C 	0.29257 0.10603 0.20858 0.01600
H 	H 	0.43857 0.14883 0.16353 0.00500
C 	C 	0.45827 0.18823 0.16749 0.01700
H 	H 	0.53827 0.19753 0.16533 0.04300
C 	C 	0.51777 0.21683 0.16872 -0.04500
C 	C 	0.97483 0.52917 0.56532 -0.01700
H 	H 	0.98153 0.56177 0.57317 0.03600
C 	C 	0.98863 0.53467 0.54484 0.03500
H 	H 	0.00403 0.57187 0.53897 -0.00400
C 	C 	0.12303 0.60167 0.51195 0.01500
H 	H 	0.10173 0.61937 0.51627 0.00700
C 	C 	0.18253 0.63287 0.51309 -0.05200
H 	H 	0.20153 0.67217 0.51717 0.04600
N 	N 	0.92459 0.41818 0.60457 -0.14700
C 	C 	0.90504 0.41065 0.62359 0.10600
C 	C 	0.89125 0.35592 0.63393 0.02400
N 	N 	0.86205 0.25152 0.65257 -0.22200
C 	C 	0.87063 0.25957 0.63234 0.01300
H 	H 	0.86713 0.22837 0.62437 0.00700
C 	C 	0.88403 0.30957 0.62257 -0.04200
H 	H 	0.88833 0.31237 0.60817 0.04200
C 	C 	0.88563 0.35047 0.65492 -0.06600
H 	H 	0.89093 0.38197 0.66317 0.05000
C 	C 	0.87223 0.29847 0.66360 0.00000
H 	H 	0.86993 0.29527 0.67807 0.01200
C 	C 	0.89863 0.27097 0.63655 0.02000
H 	H 	0.91543 0.24907 0.63197 0.00700
C 	C 	0.91233 0.32137 0.62662 -0.05300
H 	H 	0.93603 0.33247 0.61487 0.04700
C 	C 	0.85693 0.33757 0.65085 -0.03000
H 	H 	0.84223 0.36037 0.65637 0.03900
C 	C 	0.84363 0.28607 0.65995 0.03200
H 	H 	0.82063 0.27457 0.67187 0.00100
H 	H 	0.93013 0.39297 0.56817 0.05600
C 	C 	0.94453 0.43017 0.56232 -0.08200
H 	H 	0.95283 0.40707 0.53397 0.01300
C 	C 	0.95923 0.43937 0.54192 0.00500
H 	H 	0.10523 0.48217 0.49687 0.00500
C 	C 	0.12493 0.52157 0.50083 0.01700
H 	H 	0.20493 0.53087 0.49867 0.04300
C 	C 	0.18443 0.55017 0.50206 -0.04400
C 	C 	0.13750 0.77900 0.89865 -0.04500
H 	H 	0.10490 0.75310 0.90650 0.04300
C 	C 	0.13200 0.78730 0.87817 0.01500
H 	H 	0.09480 0.76550 0.87230 0.00700
C 	C 	0.06500 0.85470 0.84528 0.01400
H 	H 	0.04730 0.81570 0.84960 0.00700
C 	C 	0.03380 0.88300 0.84642 -0.06300
H 	H 	0.99450 0.86270 0.85050 0.05400
N 	N 	0.24849 0.83975 0.93790 -0.14700
C 	C 	0.25602 0.82773 0.95692 0.10600
C 	C 	0.31075 0.86867 0.96726 0.02400
N 	N 	0.41515 0.94387 0.98590 -0.22000
C 	C 	0.40710 0.94440 0.96567 0.01300
H 	H 	0.43830 0.97210 0.95770 0.00800
C 	C 	0.35710 0.90780 0.95590 -0.04300
H 	H 	0.35430 0.90930 0.94150 0.04300
C 	C 	0.31620 0.86850 0.98825 -0.06500
H 	H 	0.28470 0.84230 0.99650 0.04900
C 	C 	0.36820 0.90710 0.99693 0.00100
H 	H 	0.37140 0.90800 0.01140 0.01300
C 	C 	0.39570 0.96100 0.96988 0.02000
H 	H 	0.41760 0.99970 0.96530 0.00800
C 	C 	0.34530 0.92430 0.95995 -0.05200
H 	H 	0.33420 0.93690 0.94820 0.04600
C 	C 	0.32910 0.85270 0.98418 -0.03000
H 	H 	0.30630 0.81520 0.98970 0.03900
C 	C 	0.38060 0.89090 0.99328 0.03200
H 	H 	0.39210 0.87940 0.00520 0.00100
H 	H 	0.27370 0.87050 0.90150 0.04600
C 	C 	0.23650 0.84770 0.89565 -0.05100
H 	H 	0.25960 0.87910 0.86730 0.00600
C 	C 	0.22730 0.85320 0.87525 0.01800
H 	H 	0.18450 0.95640 0.83020 0.00900
C 	C 	0.14510 0.93670 0.83416 0.01000
H 	H 	0.13580 0.00740 0.83200 0.03900
C 	C 	0.11650 0.96760 0.83539 -0.04300
C 	C 	0.80417 0.11233 0.23198 -0.04600
H 	H 	0.77157 0.08643 0.23983 0.04300
C 	C 	0.79867 0.12063 0.21150 0.01300
H 	H 	0.76147 0.09883 0.20563 0.00700
C 	C 	0.73167 0.18803 0.17861 0.01600
H 	H 	0.71397 0.14903 0.18293 0.00700
C 	C 	0.70047 0.21633 0.17975 -0.05100
H 	H 	0.66117 0.19603 0.18383 0.04500
N 	N 	0.91516 0.17308 0.27123 -0.14600
C 	C 	0.92269 0.16106 0.29025 0.10500
C 	C 	0.97742 0.20200 0.30059 0.03000
N 	N 	0.08182 0.27720 0.31923 -0.22100
C 	C 	0.07377 0.27773 0.29900 0.01600
H 	H 	0.10497 0.30543 0.29103 0.00600
C 	C 	0.02377 0.24113 0.28923 -0.04400
H 	H 	0.02097 0.24263 0.27483 0.04100
C 	C 	0.98287 0.20183 0.32158 -0.06500
H 	H 	0.95137 0.17563 0.32983 0.05000
C 	C 	0.03487 0.24043 0.33026 -0.00600
H 	H 	0.03807 0.24133 0.34473 0.01300
C 	C 	0.06237 0.29433 0.30321 0.01900
H 	H 	0.08427 0.33303 0.29863 0.00600
C 	C 	0.01197 0.25763 0.29328 -0.05900
H 	H 	0.00087 0.27023 0.28153 0.04600
C 	C 	0.99577 0.18603 0.31751 -0.02400
H 	H 	0.97297 0.14853 0.32303 0.03800
C 	C 	0.04727 0.22423 0.32661 0.03100
H 	H 	0.05877 0.21273 0.33853 -0.00000
H 	H 	0.94037 0.20383 0.23483 0.04700
C 	C 	0.90317 0.18103 0.22898 -0.05200
H 	H 	0.92627 0.21243 0.20063 0.00700
C 	C 	0.89397 0.18653 0.20858 0.01600
H 	H 	0.85117 0.28973 0.16353 0.00600
C 	C 	0.81177 0.27003 0.16749 0.01700
H 	H 	0.80247 0.34073 0.16533 0.04400
C 	C 	0.78317 0.30093 0.16872 -0.04500
C 	C 	0.47083 0.44567 0.56532 -0.04500
H 	H 	0.43823 0.41977 0.57317 0.04300
C 	C 	0.46533 0.45397 0.54484 0.01500
H 	H 	0.42813 0.43217 0.53897 0.00800
C 	C 	0.39833 0.52137 0.51195 0.01700
H 	H 	0.38063 0.48237 0.51627 0.00700
C 	C 	0.36713 0.54967 0.51309 -0.05100
H 	H 	0.32783 0.52937 0.51717 0.04500
N 	N 	0.58182 0.50642 0.60457 -0.14700
C 	C 	0.58935 0.49440 0.62359 0.10600
C 	C 	0.64408 0.53534 0.63393 0.02400
N 	N 	0.74848 0.61054 0.65257 -0.22200
C 	C 	0.74043 0.61107 0.63234 0.01500
H 	H 	0.77163 0.63877 0.62437 0.00600
C 	C 	0.69043 0.57447 0.62257 -0.04100
H 	H 	0.68763 0.57597 0.60817 0.04200
C 	C 	0.64953 0.53517 0.65492 -0.06800
H 	H 	0.61803 0.50897 0.66317 0.05000
C 	C 	0.70153 0.57377 0.66360 -0.00200
H 	H 	0.70473 0.57467 0.67807 0.01300
C 	C 	0.72903 0.62767 0.63655 0.01800
H 	H 	0.75093 0.66637 0.63197 0.00700
C 	C 	0.67863 0.59097 0.62662 -0.05500
H 	H 	0.66753 0.60357 0.61487 0.04700
C 	C 	0.66243 0.51937 0.65085 -0.02700
H 	H 	0.63963 0.48187 0.65637 0.03900
C 	C 	0.71393 0.55757 0.65995 0.03400
H 	H 	0.72543 0.54607 0.67187 -0.00000
H 	H 	0.60703 0.53717 0.56817 0.04600
C 	C 	0.56983 0.51437 0.56232 -0.05100
H 	H 	0.59293 0.54577 0.53397 0.00600
C 	C 	0.56063 0.51987 0.54192 0.01800
H 	H 	0.51783 0.62307 0.49687 0.00600
C 	C 	0.47843 0.60337 0.50083 0.01700
H 	H 	0.46913 0.67407 0.49867 0.04300
C 	C 	0.44983 0.63427 0.50206 -0.04500
C 	C 	0.22100 0.35850 0.89865 -0.04700
H 	H 	0.24690 0.35180 0.90650 0.04300
C 	C 	0.21270 0.34470 0.87817 0.01300
H 	H 	0.23450 0.32930 0.87230 0.00800
C 	C 	0.14530 0.21030 0.84528 0.01900
H 	H 	0.18430 0.23160 0.84960 0.00600
C 	C 	0.11700 0.15080 0.84642 -0.05100
H 	H 	0.13730 0.13180 0.85050 0.04500
N 	N 	0.16025 0.40874 0.93790 -0.14800
C 	C 	0.17227 0.42829 0.95692 0.10500
C 	C 	0.13133 0.44208 0.96726 0.02300
N 	N 	0.05613 0.47128 0.98590 -0.22300
C 	C 	0.05560 0.46270 0.96567 0.01900
H 	H 	0.02790 0.46620 0.95770 0.00400
C 	C 	0.09220 0.44930 0.95590 -0.03700
H 	H 	0.09070 0.44500 0.94150 0.04000
C 	C 	0.13150 0.44770 0.98825 -0.07200
H 	H 	0.15770 0.44240 0.99650 0.05100
C 	C 	0.09290 0.46110 0.99693 -0.00600
H 	H 	0.09200 0.46340 0.01140 0.01300
C 	C 	0.03900 0.43470 0.96988 0.01500
H 	H 	0.00030 0.41790 0.96530 0.00500
C 	C 	0.07570 0.42100 0.95995 -0.05900
H 	H 	0.06310 0.39730 0.94820 0.04700
C 	C 	0.14730 0.47640 0.98418 -0.02400
H 	H 	0.18480 0.49110 0.98970 0.03700
C 	C 	0.10910 0.48970 0.99328 0.03800
H 	H 	0.12060 0.51270 0.00520 -0.00100
H 	H 	0.12950 0.40320 0.90150 0.04500
C 	C 	0.15230 0.38880 0.89565 -0.04900
H 	H 	0.12090 0.38050 0.86730 0.00500
C 	C 	0.14680 0.37410 0.87525 0.01900
H 	H 	0.04360 0.22810 0.83020 0.00200
C 	C 	0.06330 0.20840 0.83416 0.02200
H 	H 	0.99260 0.12840 0.83200 0.04900
C 	C 	0.03240 0.14890 0.83539 -0.05100
C 	C 	0.88767 0.69183 0.23198 -0.04600
H 	H 	0.91357 0.68513 0.23983 0.04500
C 	C 	0.87937 0.67803 0.21150 0.01400
H 	H 	0.90117 0.66263 0.20563 0.00900
C 	C 	0.81197 0.54363 0.17861 0.01600
H 	H 	0.85097 0.56493 0.18293 0.00800
C 	C 	0.78367 0.48413 0.17975 -0.05100
H 	H 	0.80397 0.46513 0.18383 0.04600
N 	N 	0.82692 0.74207 0.27123 -0.14700
C 	C 	0.83894 0.76162 0.29025 0.10600
C 	C 	0.79800 0.77541 0.30059 0.02400
N 	N 	0.72280 0.80461 0.31923 -0.22200
C 	C 	0.72227 0.79603 0.29900 0.01800
H 	H 	0.69457 0.79953 0.29103 0.00600
C 	C 	0.75887 0.78263 0.28923 -0.03800
H 	H 	0.75737 0.77833 0.27483 0.04100
C 	C 	0.79817 0.78103 0.32158 -0.07000
H 	H 	0.82437 0.77573 0.32983 0.05100
C 	C 	0.75957 0.79443 0.33026 -0.00400
H 	H 	0.75867 0.79673 0.34473 0.01300
C 	C 	0.70567 0.76803 0.30321 0.01600
H 	H 	0.66697 0.75123 0.29863 0.00800
C 	C 	0.74237 0.75433 0.29328 -0.05800
H 	H 	0.72977 0.73063 0.28153 0.04700
C 	C 	0.81397 0.80973 0.31751 -0.02600
H 	H 	0.85147 0.82443 0.32303 0.03900
C 	C 	0.77577 0.82303 0.32661 0.03600
H 	H 	0.78727 0.84603 0.33853 0.00000
H 	H 	0.79617 0.73653 0.23483 0.04500
C 	C 	0.81897 0.72213 0.22898 -0.04900
H 	H 	0.78757 0.71383 0.20063 0.00600
C 	C 	0.81347 0.70743 0.20858 0.02000
H 	H 	0.71027 0.56143 0.16353 0.00600
C 	C 	0.72997 0.54173 0.16749 0.01700
H 	H 	0.65927 0.46173 0.16533 0.04300
C 	C 	0.69907 0.48223 0.16872 -0.04500
C 	C 	0.55433 0.02517 0.56532 -0.07300
H 	H 	0.58023 0.01847 0.57317 0.05100
C 	C 	0.54603 0.01137 0.54484 -0.00600
H 	H 	0.56783 0.99597 0.53897 0.02100
C 	C 	0.47863 0.87697 0.51195 0.01700
H 	H 	0.51763 0.89827 0.51627 0.00900
C 	C 	0.45033 0.81747 0.51309 -0.05000
H 	H 	0.47063 0.79847 0.51717 0.04600
N 	N 	0.49358 0.07541 0.60457 -0.14800
C 	C 	0.50560 0.09496 0.62359 0.10500
C 	C 	0.46466 0.10875 0.63393 0.02300
N 	N 	0.38946 0.13795 0.65257 -0.22200
C 	C 	0.38893 0.12937 0.63234 0.01700
H 	H 	0.36123 0.13287 0.62437 0.00600
C 	C 	0.42553 0.11597 0.62257 -0.03900
H 	H 	0.42403 0.11167 0.60817 0.04100
C 	C 	0.46483 0.11437 0.65492 -0.07000
H 	H 	0.49103 0.10907 0.66317 0.05000
C 	C 	0.42623 0.12777 0.66360 -0.00400
H 	H 	0.42533 0.13007 0.67807 0.01300
C 	C 	0.37233 0.10137 0.63655 0.01600
H 	H 	0.33363 0.08457 0.63197 0.00700
C 	C 	0.40903 0.08767 0.62662 -0.05700
H 	H 	0.39643 0.06397 0.61487 0.04600
C 	C 	0.48063 0.14307 0.65085 -0.02500
H 	H 	0.51813 0.15777 0.65637 0.03800
C 	C 	0.44243 0.15637 0.65995 0.03600
H 	H 	0.45393 0.17937 0.67187 -0.00100
H 	H 	0.46283 0.06987 0.56817 0.03600
C 	C 	0.48563 0.05547 0.56232 -0.02000
H 	H 	0.45423 0.04717 0.53397 -0.00000
C 	C 	0.48013 0.04077 0.54192 0.03000
H 	H 	0.37693 0.89477 0.49687 0.00700
C 	C 	0.39663 0.87507 0.50083 0.01600
H 	H 	0.32593 0.79507 0.49867 0.04400
C 	C 	0.36573 0.81557 0.50206 -0.04600
C 	C 	0.86250 0.64150 0.10135 -0.04400
H 	H 	0.89510 0.64820 0.09350 0.04400
C 	C 	0.86800 0.65530 0.12183 0.01600
H 	H 	0.90520 0.67070 0.12770 0.00800
C 	C 	0.93500 0.78970 0.15472 0.01600
H 	H 	0.95270 0.76840 0.15040 0.00900
C 	C 	0.96620 0.84920 0.15358 -0.04000
H 	H 	0.00550 0.86820 0.14950 0.03800
N 	N 	0.75151 0.59126 0.06210 -0.14700
C 	C 	0.74398 0.57171 0.04308 0.10600
C 	C 	0.68925 0.55792 0.03274 0.02400
N 	N 	0.58485 0.52872 0.01410 -0.22200
C 	C 	0.59290 0.53730 0.03433 0.01400
H 	H 	0.56170 0.53380 0.04230 0.00700
C 	C 	0.64290 0.55070 0.04410 -0.04200
H 	H 	0.64570 0.55500 0.05850 0.04200
C 	C 	0.68380 0.55230 0.01175 -0.06600
H 	H 	0.71530 0.55760 0.00350 0.05000
C 	C 	0.63180 0.53890 0.00307 -0.00100
H 	H 	0.62860 0.53660 0.98860 0.01200
C 	C 	0.60430 0.56530 0.03012 0.01900
H 	H 	0.58240 0.58210 0.03470 0.00700
C 	C 	0.65470 0.57900 0.04005 -0.05400
H 	H 	0.66580 0.60270 0.05180 0.04600
C 	C 	0.67090 0.52360 0.01582 -0.02900
H 	H 	0.69370 0.50890 0.01030 0.03900
C 	C 	0.61940 0.51030 0.00672 0.03300
H 	H 	0.60790 0.48730 0.99480 0.00000
H 	H 	0.72630 0.59680 0.09850 0.04600
C 	C 	0.76350 0.61120 0.10435 -0.05200
H 	H 	0.74040 0.61950 0.13270 0.00600
C 	C 	0.77270 0.62590 0.12475 0.01600
H 	H 	0.81550 0.77190 0.16980 0.00500
C 	C 	0.85490 0.79160 0.16584 0.01800
H 	H 	0.86420 0.87160 0.16800 0.04300
C 	C 	0.88350 0.85110 0.16461 -0.04100
C 	C 	0.52917 0.97483 0.43468 -0.01700
H 	H 	0.56177 0.98153 0.42683 0.03600
C 	C 	0.53467 0.98863 0.45516 0.03500
H 	H 	0.57187 0.00403 0.46103 -0.00400
C 	C 	0.60167 0.12303 0.48805 0.01500
H 	H 	0.61937 0.10173 0.48373 0.00700
C 	C 	0.63287 0.18253 0.48691 -0.05200
H 	H 	0.67217 0.20153 0.48283 0.04600
N 	N 	0.41818 0.92459 0.39543 -0.14700
C 	C 	0.41065 0.90504 0.37641 0.10600
C 	C 	0.35592 0.89125 0.36607 0.02400
N 	N 	0.25152 0.86205 0.34743 -0.22200
C 	C 	0.25957 0.87063 0.36766 0.01300
H 	H 	0.22837 0.86713 0.37563 0.00700
C 	C 	0.30957 0.88403 0.37743 -0.04200
H 	H 	0.31237 0.88833 0.39183 0.04200
C 	C 	0.35047 0.88563 0.34508 -0.06600
H 	H 	0.38197 0.89093 0.33683 0.05000
C 	C 	0.29847 0.87223 0.33640 0.00000
H 	H 	0.29527 0.86993 0.32193 0.01200
C 	C 	0.27097 0.89863 0.36345 0.02000
H 	H 	0.24907 0.91543 0.36803 0.00700
C 	C 	0.32137 0.91233 0.37338 -0.05300
H 	H 	0.33247 0.93603 0.38513 0.04700
C 	C 	0.33757 0.85693 0.34915 -0.03000
H 	H 	0.36037 0.84223 0.34363 0.03900
C 	C 	0.28607 0.84363 0.34005 0.03200
H 	H 	0.27457 0.82063 0.32813 0.00100
H 	H 	0.39297 0.93013 0.43183 0.05600
C 	C 	0.43017 0.94453 0.43768 -0.08200
H 	H 	0.40707 0.95283 0.46603 0.01300
C 	C 	0.43937 0.95923 0.45808 0.00500
H 	H 	0.48217 0.10523 0.50313 0.00500
C 	C 	0.52157 0.12493 0.49917 0.01700
H 	H 	0.53087 0.20493 0.50133 0.04300
C 	C 	0.55017 0.18443 0.49794 -0.04400
C 	C 	0.19583 0.30817 0.76802 -0.04300
H 	H 	0.22843 0.31487 0.76017 0.04300
C 	C 	0.20133 0.32197 0.78850 0.01600
H 	H 	0.23853 0.33737 0.79437 0.00700
C 	C 	0.26833 0.45637 0.82139 0.01600
H 	H 	0.28603 0.43507 0.81707 0.00700
C 	C 	0.29953 0.51587 0.82025 -0.05100
H 	H 	0.33883 0.53487 0.81617 0.04500
N 	N 	0.08484 0.25793 0.72877 -0.14900
C 	C 	0.07731 0.23838 0.70975 0.10600
C 	C 	0.02258 0.22459 0.69941 0.01700
N 	N 	0.91818 0.19539 0.68077 -0.22200
C 	C 	0.92623 0.20397 0.70100 0.01200
H 	H 	0.89503 0.20047 0.70897 0.00700
C 	C 	0.97623 0.21737 0.71077 -0.03900
H 	H 	0.97903 0.22167 0.72517 0.04200
C 	C 	0.01713 0.21897 0.67842 -0.06800
H 	H 	0.04863 0.22427 0.67017 0.04900
C 	C 	0.96513 0.20557 0.66974 0.00400
H 	H 	0.96193 0.20327 0.65527 0.01200
C 	C 	0.93763 0.23197 0.69679 0.02000
H 	H 	0.91573 0.24877 0.70137 0.00700
C 	C 	0.98803 0.24567 0.70672 -0.04800
H 	H 	0.99913 0.26937 0.71847 0.04600
C 	C 	0.00423 0.19027 0.68249 -0.03300
H 	H 	0.02703 0.17557 0.67697 0.03900
C 	C 	0.95273 0.17697 0.67339 0.03500
H 	H 	0.94123 0.15397 0.66147 0.00000
H 	H 	0.05963 0.26347 0.76517 0.04400
C 	C 	0.09683 0.27787 0.77102 -0.05100
H 	H 	0.07373 0.28617 0.79937 0.00500
C 	C 	0.10603 0.29257 0.79142 0.01600
H 	H 	0.14883 0.43857 0.83647 0.00500
C 	C 	0.18823 0.45827 0.83251 0.01700
H 	H 	0.19753 0.53827 0.83467 0.04300
C 	C 	0.21683 0.51777 0.83128 -0.04500
C 	C 	0.77900 0.13750 0.10135 -0.04500
H 	H 	0.75310 0.10490 0.09350 0.04300
C 	C 	0.78730 0.13200 0.12183 0.01500
H 	H 	0.76550 0.09480 0.12770 0.00700
C 	C 	0.85470 0.06500 0.15472 0.01400
H 	H 	0.81570 0.04730 0.15040 0.00700
C 	C 	0.88300 0.03380 0.15358 -0.06300
H 	H 	0.86270 0.99450 0.14950 0.05400
N 	N 	0.83975 0.24849 0.06210 -0.14700
C 	C 	0.82773 0.25602 0.04308 0.10600
C 	C 	0.86867 0.31075 0.03274 0.02400
N 	N 	0.94387 0.41515 0.01410 -0.22000
C 	C 	0.94440 0.40710 0.03433 0.01300
H 	H 	0.97210 0.43830 0.04230 0.00800
C 	C 	0.90780 0.35710 0.04410 -0.04300
H 	H 	0.90930 0.35430 0.05850 0.04300
C 	C 	0.86850 0.31620 0.01175 -0.06500
H 	H 	0.84230 0.28470 0.00350 0.04900
C 	C 	0.90710 0.36820 0.00307 0.00100
H 	H 	0.90800 0.37140 0.98860 0.01300
C 	C 	0.96100 0.39570 0.03012 0.02000
H 	H 	0.99970 0.41760 0.03470 0.00800
C 	C 	0.92430 0.34530 0.04005 -0.05200
H 	H 	0.93690 0.33420 0.05180 0.04600
C 	C 	0.85270 0.32910 0.01582 -0.03000
H 	H 	0.81520 0.30630 0.01030 0.03900
C 	C 	0.89090 0.38060 0.00672 0.03200
H 	H 	0.87940 0.39210 0.99480 0.00100
H 	H 	0.87050 0.27370 0.09850 0.04600
C 	C 	0.84770 0.23650 0.10435 -0.05100
H 	H 	0.87910 0.25960 0.13270 0.00600
C 	C 	0.85320 0.22730 0.12475 0.01800
H 	H 	0.95640 0.18450 0.16980 0.00900
C 	C 	0.93670 0.14510 0.16584 0.01000
H 	H 	0.00740 0.13580 0.16800 0.03900
C 	C 	0.96760 0.11650 0.16461 -0.04300
C 	C 	0.44567 0.47083 0.43468 -0.04500
H 	H 	0.41977 0.43823 0.42683 0.04300
C 	C 	0.45397 0.46533 0.45516 0.01500
H 	H 	0.43217 0.42813 0.46103 0.00800
C 	C 	0.52137 0.39833 0.48805 0.01700
H 	H 	0.48237 0.38063 0.48373 0.00700
C 	C 	0.54967 0.36713 0.48691 -0.05100
H 	H 	0.52937 0.32783 0.48283 0.04500
N 	N 	0.50642 0.58182 0.39543 -0.14700
C 	C 	0.49440 0.58935 0.37641 0.10600
C 	C 	0.53534 0.64408 0.36607 0.02400
N 	N 	0.61054 0.74848 0.34743 -0.22200
C 	C 	0.61107 0.74043 0.36766 0.01500
H 	H 	0.63877 0.77163 0.37563 0.00600
C 	C 	0.57447 0.69043 0.37743 -0.04100
H 	H 	0.57597 0.68763 0.39183 0.04200
C 	C 	0.53517 0.64953 0.34508 -0.06800
H 	H 	0.50897 0.61803 0.33683 0.05000
C 	C 	0.57377 0.70153 0.33640 -0.00200
H 	H 	0.57467 0.70473 0.32193 0.01300
C 	C 	0.62767 0.72903 0.36345 0.01800
H 	H 	0.66637 0.75093 0.36803 0.00700
C 	C 	0.59097 0.67863 0.37338 -0.05500
H 	H 	0.60357 0.66753 0.38513 0.04700
C 	C 	0.51937 0.66243 0.34915 -0.02700
H 	H 	0.48187 0.63963 0.34363 0.03900
C 	C 	0.55757 0.71393 0.34005 0.03400
H 	H 	0.54607 0.72543 0.32813 -0.00000
H 	H 	0.53717 0.60703 0.43183 0.04600
C 	C 	0.51437 0.56983 0.43768 -0.05100
H 	H 	0.54577 0.59293 0.46603 0.00600
C 	C 	0.51987 0.56063 0.45808 0.01800
H 	H 	0.62307 0.51783 0.50313 0.00600
C 	C 	0.60337 0.47843 0.49917 0.01700
H 	H 	0.67407 0.46913 0.50133 0.04300
C 	C 	0.63427 0.44983 0.49794 -0.04500
C 	C 	0.11233 0.80417 0.76802 -0.04600
H 	H 	0.08643 0.77157 0.76017 0.04300
C 	C 	0.12063 0.79867 0.78850 0.01300
H 	H 	0.09883 0.76147 0.79437 0.00700
C 	C 	0.18803 0.73167 0.82139 0.01600
H 	H 	0.14903 0.71397 0.81707 0.00700
C 	C 	0.21633 0.70047 0.82025 -0.05100
H 	H 	0.19603 0.66117 0.81617 0.04500
N 	N 	0.17308 0.91516 0.72877 -0.14600
C 	C 	0.16106 0.92269 0.70975 0.10500
C 	C 	0.20200 0.97742 0.69941 0.03000
N 	N 	0.27720 0.08182 0.68077 -0.22100
C 	C 	0.27773 0.07377 0.70100 0.01600
H 	H 	0.30543 0.10497 0.70897 0.00600
C 	C 	0.24113 0.02377 0.71077 -0.04400
H 	H 	0.24263 0.02097 0.72517 0.04100
C 	C 	0.20183 0.98287 0.67842 -0.06500
H 	H 	0.17563 0.95137 0.67017 0.05000
C 	C 	0.24043 0.03487 0.66974 -0.00600
H 	H 	0.24133 0.03807 0.65527 0.01300
C 	C 	0.29433 0.06237 0.69679 0.01900
H 	H 	0.33303 0.08427 0.70137 0.00600
C 	C 	0.25763 0.01197 0.70672 -0.05900
H 	H 	0.27023 0.00087 0.71847 0.04600
C 	C 	0.18603 0.99577 0.68249 -0.02400
H 	H 	0.14853 0.97297 0.67697 0.03800
C 	C 	0.22423 0.04727 0.67339 0.03100
H 	H 	0.21273 0.05877 0.66147 -0.00000
H 	H 	0.20383 0.94037 0.76517 0.04700
C 	C 	0.18103 0.90317 0.77102 -0.05200
H 	H 	0.21243 0.92627 0.79937 0.00700
C 	C 	0.18653 0.89397 0.79142 0.01600
H 	H 	0.28973 0.85117 0.83647 0.00600
C 	C 	0.27003 0.81177 0.83251 0.01700
H 	H 	0.34073 0.80247 0.83467 0.04400
C 	C 	0.30093 0.78317 0.83128 -0.04500
C 	C 	0.35850 0.22100 0.10135 -0.04700
H 	H 	0.35180 0.24690 0.09350 0.04300
C 	C 	0.34470 0.21270 0.12183 0.01300
H 	H 	0.32930 0.23450 0.12770 0.00800
C 	C 	0.21030 0.14530 0.15472 0.01900
H 	H 	0.23160 0.18430 0.15040 0.00600
C 	C 	0.15080 0.11700 0.15358 -0.05100
H 	H 	0.13180 0.13730 0.14950 0.04500
N 	N 	0.40874 0.16025 0.06210 -0.14800
C 	C 	0.42829 0.17227 0.04308 0.10500
C 	C 	0.44208 0.13133 0.03274 0.02300
N 	N 	0.47128 0.05613 0.01410 -0.22300
C 	C 	0.46270 0.05560 0.03433 0.01900
H 	H 	0.46620 0.02790 0.04230 0.00400
C 	C 	0.44930 0.09220 0.04410 -0.03700
H 	H 	0.44500 0.09070 0.05850 0.04000
C 	C 	0.44770 0.13150 0.01175 -0.07200
H 	H 	0.44240 0.15770 0.00350 0.05100
C 	C 	0.46110 0.09290 0.00307 -0.00600
H 	H 	0.46340 0.09200 0.98860 0.01300
C 	C 	0.43470 0.03900 0.03012 0.01500
H 	H 	0.41790 0.00030 0.03470 0.00500
C 	C 	0.42100 0.07570 0.04005 -0.05900
H 	H 	0.39730 0.06310 0.05180 0.04700
C 	C 	0.47640 0.14730 0.01582 -0.02400
H 	H 	0.49110 0.18480 0.01030 0.03700
C 	C 	0.48970 0.10910 0.00672 0.03800
H 	H 	0.51270 0.12060 0.99480 -0.00100
H 	H 	0.40320 0.12950 0.09850 0.04500
C 	C 	0.38880 0.15230 0.10435 -0.04900
H 	H 	0.38050 0.12090 0.13270 0.00500
C 	C 	0.37410 0.14680 0.12475 0.01900
H 	H 	0.22810 0.04360 0.16980 0.00200
C 	C 	0.20840 0.06330 0.16584 0.02200
H 	H 	0.12840 0.99260 0.16800 0.04900
C 	C 	0.14890 0.03240 0.16461 -0.05100
C 	C 	0.02517 0.55433 0.43468 -0.07300
H 	H 	0.01847 0.58023 0.42683 0.05100
C 	C 	0.01137 0.54603 0.45516 -0.00600
H 	H 	0.99597 0.56783 0.46103 0.02100
C 	C 	0.87697 0.47863 0.48805 0.01700
H 	H 	0.89827 0.51763 0.48373 0.00900
C 	C 	0.81747 0.45033 0.48691 -0.05000
H 	H 	0.79847 0.47063 0.48283 0.04600
N 	N 	0.07541 0.49358 0.39543 -0.14800
C 	C 	0.09496 0.50560 0.37641 0.10500
C 	C 	0.10875 0.46466 0.36607 0.02300
N 	N 	0.13795 0.38946 0.34743 -0.22200
C 	C 	0.12937 0.38893 0.36766 0.01700
H 	H 	0.13287 0.36123 0.37563 0.00600
C 	C 	0.11597 0.42553 0.37743 -0.03900
H 	H 	0.11167 0.42403 0.39183 0.04100
C 	C 	0.11437 0.46483 0.34508 -0.07000
H 	H 	0.10907 0.49103 0.33683 0.05000
C 	C 	0.12777 0.42623 0.33640 -0.00400
H 	H 	0.13007 0.42533 0.32193 0.01300
C 	C 	0.10137 0.37233 0.36345 0.01600
H 	H 	0.08457 0.33363 0.36803 0.00700
C 	C 	0.08767 0.40903 0.37338 -0.05700
H 	H 	0.06397 0.39643 0.38513 0.04600
C 	C 	0.14307 0.48063 0.34915 -0.02500
H 	H 	0.15777 0.51813 0.34363 0.03800
C 	C 	0.15637 0.44243 0.34005 0.03600
H 	H 	0.17937 0.45393 0.32813 -0.00100
H 	H 	0.06987 0.46283 0.43183 0.03600
C 	C 	0.05547 0.48563 0.43768 -0.02000
H 	H 	0.04717 0.45423 0.46603 -0.00000
C 	C 	0.04077 0.48013 0.45808 0.03000
H 	H 	0.89477 0.37693 0.50313 0.00700
C 	C 	0.87507 0.39663 0.49917 0.01600
H 	H 	0.79507 0.32593 0.50133 0.04400
C 	C 	0.81557 0.36573 0.49794 -0.04600
C 	C 	0.69183 0.88767 0.76802 -0.04600
H 	H 	0.68513 0.91357 0.76017 0.04500
C 	C 	0.67803 0.87937 0.78850 0.01400
H 	H 	0.66263 0.90117 0.79437 0.00900
C 	C 	0.54363 0.81197 0.82139 0.01600
H 	H 	0.56493 0.85097 0.81707 0.00800
C 	C 	0.48413 0.78367 0.82025 -0.05100
H 	H 	0.46513 0.80397 0.81617 0.04600
N 	N 	0.74207 0.82692 0.72877 -0.14700
C 	C 	0.76162 0.83894 0.70975 0.10600
C 	C 	0.77541 0.79800 0.69941 0.02400
N 	N 	0.80461 0.72280 0.68077 -0.22200
C 	C 	0.79603 0.72227 0.70100 0.01800
H 	H 	0.79953 0.69457 0.70897 0.00600
C 	C 	0.78263 0.75887 0.71077 -0.03800
H 	H 	0.77833 0.75737 0.72517 0.04100
C 	C 	0.78103 0.79817 0.67842 -0.07000
H 	H 	0.77573 0.82437 0.67017 0.05100
C 	C 	0.79443 0.75957 0.66974 -0.00400
H 	H 	0.79673 0.75867 0.65527 0.01300
C 	C 	0.76803 0.70567 0.69679 0.01600
H 	H 	0.75123 0.66697 0.70137 0.00800
C 	C 	0.75433 0.74237 0.70672 -0.05800
H 	H 	0.73063 0.72977 0.71847 0.04700
C 	C 	0.80973 0.81397 0.68249 -0.02600
H 	H 	0.82443 0.85147 0.67697 0.03900
C 	C 	0.82303 0.77577 0.67339 0.03600
H 	H 	0.84603 0.78727 0.66147 0.00000
H 	H 	0.73653 0.79617 0.76517 0.04500
C 	C 	0.72213 0.81897 0.77102 -0.04900
H 	H 	0.71383 0.78757 0.79937 0.00600
C 	C 	0.70743 0.81347 0.79142 0.02000
H 	H 	0.56143 0.71027 0.83647 0.00600
C 	C 	0.54173 0.72997 0.83251 0.01700
H 	H 	0.46173 0.65927 0.83467 0.04300
C 	C 	0.48223 0.69907 0.83128 -0.04500
Co	Co	0.33333 0.16667 0.16667 1.12000
Co	Co	-0.00000 0.50000 0.50000 1.11800
Co	Co	0.83333 0.16667 0.16667 1.12000
Co	Co	0.50000 0.50000 0.50000 1.12000
Co	Co	0.83333 0.66667 0.16667 1.12000
Co	Co	0.50000 0.00000 0.50000 1.11800
Co	Co	0.16667 0.33333 0.83333 1.12000
Co	Co	0.16667 0.83333 0.83333 1.12000
Co	Co	0.66667 0.83333 0.83333 1.12000
S 	S 	0.33333 0.98878 0.16667 -0.06100
N 	N 	0.33333 0.08932 0.16667 -0.27600
C 	C 	0.33333 0.04832 0.16667 0.10800
S 	S 	0.00000 0.32211 0.50000 -0.07700
N 	N 	-0.00000 0.42265 0.50000 -0.28000
C 	C 	0.00000 0.38165 0.50000 0.11600
S 	S 	0.01122 0.34456 0.16667 -0.08400
N 	N 	0.91068 0.24402 0.16667 -0.28000
C 	C 	0.95168 0.28502 0.16667 0.12600
S 	S 	0.67789 0.67789 0.50000 -0.07000
N 	N 	0.57735 0.57735 0.50000 -0.27800
C 	C 	0.61835 0.61835 0.50000 0.11700
S 	S 	0.65544 0.66667 0.16667 -0.07200
N 	N 	0.75598 0.66667 0.16667 -0.27800
C 	C 	0.71498 0.66667 0.16667 0.11700
S 	S 	0.32211 0.00000 0.50000 -0.07700
N 	N 	0.42265 0.00000 0.50000 -0.28000
C 	C 	0.38165 0.00000 0.50000 0.11600
S 	S 	0.98878 0.33333 0.83333 -0.06100
N 	N 	0.08932 0.33333 0.83333 -0.27600
C 	C 	0.04832 0.33333 0.83333 0.10800
S 	S 	0.34456 0.01122 0.83333 -0.08400
N 	N 	0.24402 0.91068 0.83333 -0.28000
C 	C 	0.28502 0.95168 0.83333 0.12600
S 	S 	0.66667 0.65544 0.83333 -0.07200
N 	N 	0.66667 0.75598 0.83333 -0.27800
C 	C 	0.66667 0.71498 0.83333 0.11700
S 	S 	0.66667 0.01122 0.83333 -0.08300
N 	N 	0.66667 0.91068 0.83333 -0.28000
C 	C 	0.66667 0.95168 0.83333 0.12600
S 	S 	0.33333 0.34456 0.16667 -0.07300
N 	N 	0.33333 0.24402 0.16667 -0.27800
C 	C 	0.33333 0.28502 0.16667 0.11700
S 	S 	0.98878 0.65544 0.83333 -0.06100
N 	N 	0.08932 0.75598 0.83333 -0.27600
C 	C 	0.04832 0.71498 0.83333 0.10800
S 	S 	0.32211 0.32211 0.50000 -0.07400
N 	N 	0.42265 0.42265 0.50000 -0.27800
C 	C 	0.38165 0.38165 0.50000 0.11700
S 	S 	0.34456 0.33333 0.83333 -0.07300
N 	N 	0.24402 0.33333 0.83333 -0.27800
C 	C 	0.28502 0.33333 0.83333 0.11700
S 	S 	0.01122 0.66667 0.16667 -0.08300
N 	N 	0.91068 0.66667 0.16667 -0.28000
C 	C 	0.95168 0.66667 0.16667 0.12600
S 	S 	0.67789 0.00000 0.50000 -0.07500
N 	N 	0.57735 0.00000 0.50000 -0.27900
C 	C 	0.61835 0.00000 0.50000 0.11600
S 	S 	0.65544 0.98878 0.16667 -0.06100
N 	N 	0.75598 0.08932 0.16667 -0.27600
C 	C 	0.71498 0.04832 0.16667 0.10800
S 	S 	-0.00000 0.67789 0.50000 -0.07500
N 	N 	0.00000 0.57735 0.50000 -0.27900
C 	C 	0.00000 0.61835 0.50000 0.11600
N 	N 	0.43816 0.21908 0.03262 -0.14700
N 	N 	0.35134 0.17567 0.13418 -0.22500
N 	N 	0.23925 0.11963 0.16172 -0.22200
C 	C 	0.40040 0.20020 0.07093 0.10500
C 	C 	0.38220 0.19110 0.09255 0.02400
C 	C 	0.05630 0.02815 0.15709 0.09300
C 	C 	0.11957 0.05979 0.15838 0.03100
N 	N 	0.10483 0.55241 0.36595 -0.14700
N 	N 	0.01801 0.50900 0.46751 -0.22400
N 	N 	0.90592 0.45296 0.49505 -0.21900
C 	C 	0.06707 0.53353 0.40426 0.10600
C 	C 	0.04887 0.52443 0.42588 0.02100
C 	C 	0.72297 0.36148 0.49042 0.10300
C 	C 	0.78624 0.39312 0.49171 0.02500
N 	N 	0.77149 0.88575 0.69929 -0.14600
N 	N 	0.68467 0.84234 0.80085 -0.22500
N 	N 	0.57258 0.78629 0.82839 -0.22100
C 	C 	0.73373 0.86687 0.73760 0.10600
C 	C 	0.71553 0.85777 0.75922 0.02500
C 	C 	0.38963 0.69482 0.82376 0.10300
C 	C 	0.45290 0.72645 0.82505 0.02500
N 	N 	0.78092 0.21908 0.03262 -0.14700
N 	N 	0.82433 0.17567 0.13418 -0.22500
N 	N 	0.88037 0.11963 0.16172 -0.22100
C 	C 	0.79980 0.20020 0.07093 0.10600
C 	C 	0.80890 0.19110 0.09255 0.02400
C 	C 	0.97185 0.02815 0.15709 0.10300
C 	C 	0.94021 0.05979 0.15838 0.02500
N 	N 	0.44759 0.55241 0.36595 -0.14700
N 	N 	0.49100 0.50900 0.46751 -0.22500
N 	N 	0.54704 0.45296 0.49505 -0.22100
C 	C 	0.46647 0.53353 0.40426 0.10600
C 	C 	0.47557 0.52443 0.42588 0.02400
C 	C 	0.63852 0.36148 0.49042 0.10300
C 	C 	0.60688 0.39312 0.49171 0.02500
N 	N 	0.11425 0.88575 0.69929 -0.14700
N 	N 	0.15766 0.84234 0.80085 -0.22500
N 	N 	0.21371 0.78629 0.82839 -0.22100
C 	C 	0.13313 0.86687 0.73760 0.10600
C 	C 	0.14223 0.85777 0.75922 0.02400
C 	C 	0.30518 0.69482 0.82376 0.10300
C 	C 	0.27355 0.72645 0.82505 0.02500
N 	N 	0.78092 0.56184 0.03262 -0.14700
N 	N 	0.82433 0.64866 0.13418 -0.22500
N 	N 	0.88037 0.76075 0.16172 -0.22000
C 	C 	0.79980 0.59960 0.07093 0.10600
C 	C 	0.80890 0.61780 0.09255 0.02400
C 	C 	0.97185 0.94370 0.15709 0.11300
C 	C 	0.94021 0.88043 0.15838 0.01900
N 	N 	0.44759 0.89517 0.36595 -0.14600
N 	N 	0.49100 0.98199 0.46751 -0.22500
N 	N 	0.54704 0.09408 0.49505 -0.22200
C 	C 	0.46647 0.93293 0.40426 0.10600
C 	C 	0.47557 0.95113 0.42588 0.02700
C 	C 	0.63852 0.27703 0.49042 0.10300
C 	C 	0.60688 0.21376 0.49171 0.02500
N 	N 	0.11425 0.22851 0.69929 -0.14700
N 	N 	0.15766 0.31533 0.80085 -0.22500
N 	N 	0.21371 0.42742 0.82839 -0.22100
C 	C 	0.13313 0.26627 0.73760 0.10500
C 	C 	0.14223 0.28447 0.75922 0.02300
C 	C 	0.30518 0.61037 0.82376 0.10300
C 	C 	0.27355 0.54710 0.82505 0.02500
N 	N 	0.21908 0.43816 0.96738 -0.14700
N 	N 	0.17567 0.35134 0.86582 -0.22500
N 	N 	0.11963 0.23925 0.83828 -0.22200
C 	C 	0.20020 0.40040 0.92907 0.10500
C 	C 	0.19110 0.38220 0.90745 0.02400
C 	C 	0.02815 0.05630 0.84291 0.09300
C 	C 	0.05979 0.11957 0.84162 0.03100
N 	N 	0.88575 0.77149 0.30071 -0.14600
N 	N 	0.84234 0.68467 0.19915 -0.22500
N 	N 	0.78629 0.57258 0.17161 -0.22100
C 	C 	0.86687 0.73373 0.26240 0.10600
C 	C 	0.85777 0.71553 0.24078 0.02500
C 	C 	0.69482 0.38963 0.17624 0.10300
C 	C 	0.72645 0.45290 0.17495 0.02500
N 	N 	0.55241 0.10483 0.63405 -0.14700
N 	N 	0.50900 0.01801 0.53249 -0.22400
N 	N 	0.45296 0.90592 0.50495 -0.21900
C 	C 	0.53353 0.06707 0.59574 0.10600
C 	C 	0.52443 0.04887 0.57412 0.02100
C 	C 	0.36148 0.72297 0.50958 0.10300
C 	C 	0.39312 0.78624 0.50829 0.02500
N 	N 	0.21908 0.78092 0.96738 -0.14700
N 	N 	0.17567 0.82433 0.86582 -0.22500
N 	N 	0.11963 0.88037 0.83828 -0.22100
C 	C 	0.20020 0.79980 0.92907 0.10600
C 	C 	0.19110 0.80890 0.90745 0.02400
C 	C 	0.02815 0.97185 0.84291 0.10300
C 	C 	0.05979 0.94021 0.84162 0.02500
N 	N 	0.88575 0.11425 0.30071 -0.14700
N 	N 	0.84234 0.15766 0.19915 -0.22500
N 	N 	0.78629 0.21371 0.17161 -0.22100
C 	C 	0.86687 0.13313 0.26240 0.10600
C 	C 	0.85777 0.14223 0.24078 0.02400
C 	C 	0.69482 0.30518 0.17624 0.10300
C 	C 	0.72645 0.27355 0.17495 0.02500
N 	N 	0.55241 0.44759 0.63405 -0.14700
N 	N 	0.50900 0.49100 0.53249 -0.22500
N 	N 	0.45296 0.54704 0.50495 -0.22100
C 	C 	0.53353 0.46647 0.59574 0.10600
C 	C 	0.52443 0.47557 0.57412 0.02400
C 	C 	0.36148 0.63852 0.50958 0.10300
C 	C 	0.39312 0.60688 0.50829 0.02500
N 	N 	0.56184 0.78092 0.96738 -0.14700
N 	N 	0.64866 0.82433 0.86582 -0.22500
N 	N 	0.76075 0.88037 0.83828 -0.22000
C 	C 	0.59960 0.79980 0.92907 0.10600
C 	C 	0.61780 0.80890 0.90745 0.02400
C 	C 	0.94370 0.97185 0.84291 0.11300
C 	C 	0.88043 0.94022 0.84162 0.01900
N 	N 	0.22851 0.11425 0.30071 -0.14700
N 	N 	0.31533 0.15766 0.19915 -0.22500
N 	N 	0.42742 0.21371 0.17161 -0.22100
C 	C 	0.26627 0.13313 0.26240 0.10500
C 	C 	0.28447 0.14223 0.24078 0.02300
C 	C 	0.61037 0.30518 0.17624 0.10300
C 	C 	0.54710 0.27355 0.17495 0.02500
N 	N 	0.89517 0.44759 0.63405 -0.14600
N 	N 	0.98199 0.49100 0.53249 -0.22500
N 	N 	0.09408 0.54704 0.50495 -0.22200
C 	C 	0.93293 0.46647 0.59574 0.10600
C 	C 	0.95113 0.47557 0.57412 0.02700
C 	C 	0.27703 0.63852 0.50958 0.10300
C 	C 	0.21376 0.60688 0.50829 0.02500
N 	N 	0.02951 0.05901 0.15695 -0.14700
N 	N 	0.69617 0.39234 0.49028 -0.14500
N 	N 	0.36284 0.72568 0.82362 -0.14500
N 	N 	0.94099 0.97050 0.15695 -0.14300
N 	N 	0.60766 0.30383 0.49028 -0.14500
N 	N 	0.27432 0.63716 0.82362 -0.14500
N 	N 	0.02951 0.97050 0.15695 -0.14500
N 	N 	0.69617 0.30383 0.49028 -0.14500
N 	N 	0.36284 0.63716 0.82362 -0.14500
N 	N 	0.05901 0.02951 0.84305 -0.14700
N 	N 	0.72568 0.36284 0.17638 -0.14500
N 	N 	0.39234 0.69617 0.50972 -0.14500
N 	N 	0.97050 0.94099 0.84305 -0.14300
N 	N 	0.63716 0.27432 0.17638 -0.14500
N 	N 	0.30383 0.60766 0.50972 -0.14500
N 	N 	0.97050 0.02951 0.84305 -0.14500
N 	N 	0.63716 0.36284 0.17638 -0.14500
N 	N 	0.30383 0.69617 0.50972 -0.14500
Co	Co	0.50000 0.50000 -0.00000 1.11800
Co	Co	0.16667 0.83333 0.33333 1.11800
Co	Co	0.83333 0.16667 0.66667 1.11800
Co	Co	0.50000 0.00000 -0.00000 1.11500
Co	Co	0.16667 0.33333 0.33333 1.11800
Co	Co	0.83333 0.66667 0.66667 1.11800
Co	Co	0.00000 0.50000 -0.00000 1.11500
Co	Co	0.66667 0.83333 0.33333 1.11800
Co	Co	0.33333 0.16667 0.66667 1.11800
S 	S 	0.55939 0.44061 0.94079 -0.07200
N 	N 	0.52573 0.47427 0.97420 -0.27600
C 	C 	0.53985 0.46015 0.96053 0.11400
S 	S 	0.22606 0.77394 0.27412 -0.07200
N 	N 	0.19240 0.80760 0.30753 -0.27600
C 	C 	0.20652 0.79348 0.29386 0.11400
S 	S 	0.89272 0.10728 0.60746 -0.07100
N 	N 	0.85906 0.14094 0.64087 -0.27600
C 	C 	0.87318 0.12682 0.62720 0.11300
S 	S 	0.55939 0.11878 0.94079 -0.07400
N 	N 	0.52573 0.05146 0.97420 -0.27800
C 	C 	0.53985 0.07970 0.96053 0.11200
S 	S 	0.22606 0.45211 0.27412 -0.07300
N 	N 	0.19240 0.38479 0.30753 -0.27600
C 	C 	0.20652 0.41303 0.29386 0.11300
S 	S 	0.89272 0.78545 0.60746 -0.06700
N 	N 	0.85906 0.71813 0.64087 -0.27600
C 	C 	0.87318 0.74637 0.62720 0.11300
S 	S 	0.88122 0.44061 0.94079 -0.06900
N 	N 	0.94854 0.47427 0.97420 -0.27400
C 	C 	0.92030 0.46015 0.96053 0.11500
S 	S 	0.54789 0.77394 0.27412 -0.07100
N 	N 	0.61521 0.80760 0.30753 -0.27600
C 	C 	0.58697 0.79348 0.29386 0.11400
S 	S 	0.21455 0.10728 0.60746 -0.07600
N 	N 	0.28187 0.14094 0.64087 -0.27600
C 	C 	0.25363 0.12682 0.62720 0.11400
S 	S 	0.44061 0.55939 0.05921 -0.07200
N 	N 	0.47427 0.52573 0.02580 -0.27600
C 	C 	0.46015 0.53985 0.03947 0.11400
S 	S 	0.10728 0.89272 0.39254 -0.07100
N 	N 	0.14094 0.85906 0.35913 -0.27600
C 	C 	0.12682 0.87318 0.37280 0.11300
S 	S 	0.77394 0.22606 0.72588 -0.07200
N 	N 	0.80760 0.19240 0.69247 -0.27600
C 	C 	0.79348 0.20652 0.70614 0.11400
S 	S 	0.11878 0.55939 0.05921 -0.07400
N 	N 	0.05146 0.52573 0.02580 -0.27800
C 	C 	0.07970 0.53985 0.03947 0.11200
S 	S 	0.78545 0.89272 0.39254 -0.06700
N 	N 	0.71813 0.85906 0.35913 -0.27600
C 	C 	0.74637 0.87318 0.37280 0.11300
S 	S 	0.45211 0.22606 0.72588 -0.07300
N 	N 	0.38479 0.19240 0.69247 -0.27600
C 	C 	0.41303 0.20652 0.70614 0.11300
S 	S 	0.44061 0.88122 0.05921 -0.06900
N 	N 	0.47427 0.94854 0.02580 -0.27400
C 	C 	0.46015 0.92030 0.03947 0.11500
S 	S 	0.10728 0.21455 0.39254 -0.07600
N 	N 	0.14094 0.28187 0.35913 -0.27600
C 	C 	0.12682 0.25363 0.37280 0.11400
S 	S 	0.77394 0.54789 0.72588 -0.07100
N 	N 	0.80760 0.61521 0.69247 -0.27600
C 	C 	0.79348 0.58697 0.70614 0.11400
