data_crystal

_cell_length_a 41.68600
_cell_length_b 19.05000
_cell_length_c 29.29200
_cell_angle_alpha 90.00000
_cell_angle_beta  120.02800
_cell_angle_gamma 90.00000

_symmetry_space_group_name_	'P 1'
_symmetry_space_group_name_H-M	'P 1'

loop_
_symmetry_equiv_pos_as_xyz
  x,y,z

loop_
_atom_site_label
_atom_site_type_symbol
_atom_site_fract_x
_atom_site_fract_y
_atom_site_fract_z
_atom_site_charge
W 	W 	0.58233 0.12112 0.69432 0.51000
W 	W 	0.57912 0.12796 0.42079 0.51300
W 	W 	0.59495 0.77573 0.56688 0.51700
Mn	Mn	0.56582 0.85020 0.36804 1.23900
Mn	Mn	0.56861 0.84340 0.72745 1.24400
Mn	Mn	0.54751 0.31500 0.53544 1.19300
Mn	Mn	0.67099 0.02690 0.61979 1.16200
C 	C 	0.57320 0.12510 0.76200 -0.01200
N 	N 	0.56780 0.12630 0.79580 -0.24700
C 	C 	0.60470 0.21900 0.72780 -0.06100
N 	N 	0.61620 0.27500 0.74340 -0.10000
C 	C 	0.63500 0.09440 0.76250 -0.04800
N 	N 	0.66300 0.08270 0.79930 -0.10700
C 	C 	0.55370 0.06770 0.61970 -0.03200
N 	N 	0.53870 0.04190 0.57950 -0.24200
C 	C 	0.52440 0.13720 0.66800 -0.03600
N 	N 	0.49420 0.14230 0.65770 -0.24100
C 	C 	0.57790 0.01280 0.70650 -0.06000
N 	N 	0.57480 0.95370 0.71550 -0.22700
C 	C 	0.56570 0.19750 0.63220 -0.04000
N 	N 	0.55740 0.24070 0.59760 -0.25200
C 	C 	0.62180 0.09970 0.66950 -0.03900
N 	N 	0.64250 0.08400 0.65540 -0.26300
C 	C 	0.59290 0.23400 0.41300 -0.06300
N 	N 	0.60070 0.29600 0.41040 -0.10200
C 	C 	0.63340 0.11200 0.43040 -0.05700
N 	N 	0.66380 0.11200 0.43790 -0.10800
C 	C 	0.57370 0.13190 0.34310 -0.02100
N 	N 	0.56830 0.13230 0.30060 -0.24300
C 	C 	0.54740 0.07110 0.44730 -0.04100
N 	N 	0.53270 0.03920 0.46560 -0.24200
C 	C 	0.57930 0.01910 0.40100 -0.04600
C 	C 	0.52220 0.14700 0.36340 -0.03800
N 	N 	0.49200 0.15460 0.33030 -0.23700
C 	C 	0.56320 0.19510 0.46330 -0.04600
N 	N 	0.55400 0.23650 0.48590 -0.24900
C 	C 	0.61810 0.10100 0.50240 -0.03800
N 	N 	0.63740 0.08060 0.54590 -0.27400
C 	C 	0.60020 0.68100 0.60990 -0.05500
N 	N 	0.60110 0.62600 0.63280 -0.10900
C 	C 	0.60740 0.69200 0.52900 -0.05000
N 	N 	0.62600 0.66200 0.51600 -0.10200
C 	C 	0.65300 0.76100 0.61900 -0.06800
N 	N 	0.68400 0.76400 0.66600 -0.10800
C 	C 	0.55250 0.85810 0.53780 -0.01300
N 	N 	0.53130 0.89930 0.52210 -0.23800
C 	C 	0.58370 0.80450 0.48950 -0.05900
C 	C 	0.58550 0.80300 0.63190 -0.02200
N 	N 	0.57630 0.82000 0.66080 -0.24100
C 	C 	0.54220 0.72340 0.52410 -0.03400
N 	N 	0.51310 0.70010 0.50220 -0.26600
C 	C 	0.62180 0.87710 0.58730 -0.03400
N 	N 	0.63690 0.93070 0.59750 -0.26100
N 	N 	0.62760 0.82440 0.40520 -0.25700
C 	C 	0.65030 0.86180 0.39520 0.10200
H 	H 	0.64060 0.89850 0.36980 -0.01300
C 	C 	0.68700 0.84800 0.42080 -0.17900
H 	H 	0.70290 0.87850 0.41540 0.09000
C 	C 	0.70210 0.79200 0.45460 0.11900
C 	C 	0.67780 0.75000 0.46330 -0.17400
H 	H 	0.68620 0.71130 0.48680 0.08900
C 	C 	0.64110 0.76900 0.43550 0.10100
H 	H 	0.62390 0.73960 0.43860 -0.01900
C 	C 	0.74060 0.77600 0.48350 -0.09400
H 	H 	0.75580 0.80780 0.47800 0.05800
N 	N 	0.55510 0.73510 0.34250 -0.25500
C 	C 	0.54810 0.68610 0.36920 0.08400
H 	H 	0.54430 0.70040 0.39720 -0.02600
C 	C 	0.54640 0.61560 0.35730 -0.16400
H 	H 	0.54090 0.58240 0.37680 0.06800
C 	C 	0.55240 0.59250 0.31760 0.11500
C 	C 	0.55150 0.64310 0.28340 -0.16500
H 	H 	0.54910 0.63100 0.25030 0.08200
C 	C 	0.55430 0.71180 0.29910 0.09200
H 	H 	0.55580 0.74610 0.27670 -0.01800
C 	C 	0.55140 0.51800 0.30600 -0.09100
H 	H 	0.54860 0.48530 0.32830 0.05400
N 	N 	0.56270 0.27250 0.24060 -0.25300
C 	C 	0.56170 0.32260 0.20800 0.08000
H 	H 	0.56270 0.30850 0.17760 -0.01700
C 	C 	0.55930 0.39370 0.21550 -0.16100
H 	H 	0.55960 0.42700 0.19160 0.07100
C 	C 	0.55650 0.41570 0.25830 0.10300
C 	C 	0.54680 0.36360 0.28200 -0.15700
H 	H 	0.53620 0.37560 0.30310 0.08100
C 	C 	0.55250 0.29410 0.27500 0.08200
H 	H 	0.54900 0.25970 0.29540 -0.01600
C 	C 	0.55430 0.49200 0.26500 -0.08000
H 	H 	0.55490 0.52370 0.24030 0.04700
N 	N 	0.63110 0.83380 0.77780 -0.25300
C 	C 	0.65040 0.78300 0.77100 0.06400
H 	H 	0.63740 0.74680 0.74560 -0.00700
C 	C 	0.68870 0.78100 0.79900 -0.12200
H 	H 	0.70140 0.74130 0.79620 0.06000
C 	C 	0.68880 0.88600 0.84200 -0.11100
H 	H 	0.70120 0.92190 0.86720 0.07100
C 	C 	0.65070 0.88100 0.81490 0.05900
H 	H 	0.63740 0.91450 0.82330 -0.00000
C 	C 	0.70860 0.83600 0.83190 0.13000
C 	C 	0.75280 0.84300 0.86400 -0.09700
H 	H 	0.76440 0.85180 0.90080 0.05700
N 	N 	0.89090 0.83170 0.92320 -0.27100
C 	C 	0.87170 0.84400 0.94780 0.07600
H 	H 	0.88510 0.84980 0.98500 -0.02100
C 	C 	0.83340 0.84800 0.92220 -0.15400
H 	H 	0.82130 0.85830 0.94160 0.08000
C 	C 	0.81310 0.83700 0.86880 0.08800
C 	C 	0.83270 0.83500 0.84220 -0.15500
H 	H 	0.82000 0.83690 0.80470 0.07100
C 	C 	0.87090 0.82900 0.87030 0.06800
H 	H 	0.88370 0.82250 0.85130 -0.02200
C 	C 	0.77200 0.83900 0.84500 -0.07200
H 	H 	0.75850 0.83640 0.80770 0.04300
N 	N 	0.57460 0.84360 0.45070 -0.22000
N 	N 	0.57660 0.96280 0.38850 -0.22500
C 	C 	0.65000 0.87100 0.76000 0.03100
C 	C 	0.68800 0.86500 0.78200 -0.09800
C 	C 	0.68920 0.81200 0.85570 -0.08700
C 	C 	0.65090 0.80900 0.82700 0.03100
H 	H 	0.63680 0.90200 0.73120 -0.00800
H 	H 	0.69980 0.88160 0.76370 0.04600
H 	H 	0.70210 0.79720 0.89150 0.05700
H 	H 	0.63820 0.78800 0.84270 0.01200
W 	W 	0.08233 0.62112 0.69432 0.50900
W 	W 	0.07912 0.62796 0.42079 0.51200
W 	W 	0.09495 0.27573 0.56688 0.51700
Mn	Mn	0.06582 0.35020 0.36804 1.23800
Mn	Mn	0.06861 0.34340 0.72745 1.24300
Mn	Mn	0.04751 0.81500 0.53544 1.19300
Mn	Mn	0.17099 0.52690 0.61979 1.16600
C 	C 	0.07320 0.62510 0.76200 -0.01100
N 	N 	0.06780 0.62630 0.79580 -0.24600
C 	C 	0.10470 0.71900 0.72780 -0.06100
N 	N 	0.11620 0.77500 0.74340 -0.09900
C 	C 	0.13500 0.59440 0.76250 -0.04600
N 	N 	0.16300 0.58270 0.79930 -0.10400
C 	C 	0.05370 0.56770 0.61970 -0.03100
N 	N 	0.03870 0.54190 0.57950 -0.24000
C 	C 	0.02440 0.63720 0.66800 -0.04300
N 	N 	0.99420 0.64230 0.65770 -0.23400
C 	C 	0.07790 0.51280 0.70650 -0.04300
N 	N 	0.07480 0.45370 0.71550 -0.24000
C 	C 	0.06570 0.69750 0.63220 -0.04000
N 	N 	0.05740 0.74070 0.59760 -0.25200
C 	C 	0.12180 0.59970 0.66950 -0.03700
N 	N 	0.14250 0.58400 0.65540 -0.26100
C 	C 	0.09290 0.73400 0.41300 -0.06300
N 	N 	0.10070 0.79600 0.41040 -0.10100
C 	C 	0.13340 0.61200 0.43040 -0.05600
N 	N 	0.16380 0.61200 0.43790 -0.10600
C 	C 	0.07370 0.63190 0.34310 -0.02100
N 	N 	0.06830 0.63230 0.30060 -0.24300
C 	C 	0.04740 0.57110 0.44730 -0.04000
N 	N 	0.03270 0.53920 0.46560 -0.24000
C 	C 	0.07930 0.51910 0.40100 -0.02800
C 	C 	0.02220 0.64700 0.36340 -0.04400
N 	N 	0.99200 0.65460 0.33030 -0.23000
C 	C 	0.06320 0.69510 0.46330 -0.04600
N 	N 	0.05400 0.73650 0.48590 -0.24900
C 	C 	0.11810 0.60100 0.50240 -0.03600
N 	N 	0.13740 0.58060 0.54590 -0.27200
C 	C 	0.10020 0.18100 0.60990 -0.05600
N 	N 	0.10110 0.12600 0.63280 -0.11100
C 	C 	0.10740 0.19200 0.52900 -0.05200
N 	N 	0.12600 0.16200 0.51600 -0.10400
C 	C 	0.15300 0.26100 0.61900 -0.06900
N 	N 	0.18400 0.26400 0.66600 -0.10900
C 	C 	0.05250 0.35810 0.53780 -0.01600
N 	N 	0.03130 0.39930 0.52210 -0.24300
C 	C 	0.08370 0.30450 0.48950 -0.06000
C 	C 	0.08550 0.30300 0.63190 -0.02300
N 	N 	0.07630 0.32000 0.66080 -0.24200
C 	C 	0.04220 0.22340 0.52410 -0.03600
N 	N 	0.01310 0.20010 0.50220 -0.26900
C 	C 	0.12180 0.37710 0.58730 -0.03600
N 	N 	0.13690 0.43070 0.59750 -0.26600
N 	N 	0.12760 0.32440 0.40520 -0.25700
C 	C 	0.15030 0.36180 0.39520 0.10000
H 	H 	0.14060 0.39850 0.36980 -0.01500
C 	C 	0.18700 0.34800 0.42080 -0.17900
H 	H 	0.20290 0.37850 0.41540 0.08800
C 	C 	0.20210 0.29200 0.45460 0.11800
C 	C 	0.17780 0.25000 0.46330 -0.17400
H 	H 	0.18620 0.21130 0.48680 0.08800
C 	C 	0.14110 0.26900 0.43550 0.10000
H 	H 	0.12390 0.23960 0.43860 -0.02000
C 	C 	0.24060 0.27600 0.48350 -0.09400
H 	H 	0.25580 0.30780 0.47800 0.05600
N 	N 	0.05510 0.23510 0.34250 -0.26100
C 	C 	0.04810 0.18610 0.36920 0.09600
H 	H 	0.04430 0.20040 0.39720 -0.03200
C 	C 	0.04640 0.11560 0.35730 -0.19200
H 	H 	0.04090 0.08240 0.37680 0.07300
C 	C 	0.05240 0.09250 0.31760 0.15700
C 	C 	0.05150 0.14310 0.28340 -0.19300
H 	H 	0.04910 0.13100 0.25030 0.09100
C 	C 	0.05430 0.21180 0.29910 0.10400
H 	H 	0.05580 0.24610 0.27670 -0.02300
C 	C 	0.05140 0.01800 0.30600 -0.18500
H 	H 	0.04860 0.98530 0.32830 0.09300
N 	N 	0.06270 0.77250 0.24060 -0.24800
C 	C 	0.06170 0.82260 0.20800 0.06800
H 	H 	0.06270 0.80850 0.17760 -0.01300
C 	C 	0.05930 0.89370 0.21550 -0.13600
H 	H 	0.05960 0.92700 0.19160 0.06500
C 	C 	0.05650 0.91570 0.25830 0.06300
C 	C 	0.04680 0.86360 0.28200 -0.13100
H 	H 	0.03620 0.87560 0.30310 0.07000
C 	C 	0.05250 0.79410 0.27500 0.06900
H 	H 	0.04900 0.75970 0.29540 -0.01200
C 	C 	0.05430 0.99200 0.26500 0.01300
H 	H 	0.05490 0.02370 0.24030 0.00600
N 	N 	0.13110 0.33380 0.77780 -0.25300
C 	C 	0.15040 0.28300 0.77100 0.06300
H 	H 	0.13740 0.24680 0.74560 -0.00700
C 	C 	0.18870 0.28100 0.79900 -0.12200
H 	H 	0.20140 0.24130 0.79620 0.05900
C 	C 	0.18880 0.38600 0.84200 -0.11100
H 	H 	0.20120 0.42190 0.86720 0.06800
C 	C 	0.15070 0.38100 0.81490 0.05800
H 	H 	0.13740 0.41450 0.82330 -0.00300
C 	C 	0.20860 0.33600 0.83190 0.13000
C 	C 	0.25280 0.34300 0.86400 -0.09800
H 	H 	0.26440 0.35180 0.90080 0.05600
N 	N 	0.39090 0.33170 0.92320 -0.27100
C 	C 	0.37170 0.34400 0.94780 0.07400
H 	H 	0.38510 0.34980 0.98500 -0.02200
C 	C 	0.33340 0.34800 0.92220 -0.15400
H 	H 	0.32130 0.35830 0.94160 0.07900
C 	C 	0.31310 0.33700 0.86880 0.08600
C 	C 	0.33270 0.33500 0.84220 -0.15500
H 	H 	0.32000 0.33690 0.80470 0.07000
C 	C 	0.37090 0.32900 0.87030 0.06600
H 	H 	0.38370 0.32250 0.85130 -0.02300
C 	C 	0.27200 0.33900 0.84500 -0.07200
H 	H 	0.25850 0.33640 0.80770 0.04200
N 	N 	0.07460 0.34360 0.45070 -0.22200
N 	N 	0.07660 0.46280 0.38850 -0.24000
C 	C 	0.15000 0.37100 0.76000 0.03200
C 	C 	0.18800 0.36500 0.78200 -0.09900
C 	C 	0.18920 0.31200 0.85570 -0.08800
C 	C 	0.15090 0.30900 0.82700 0.03200
H 	H 	0.13680 0.40200 0.73120 -0.01100
H 	H 	0.19980 0.38160 0.76370 0.04400
H 	H 	0.20210 0.29720 0.89150 0.05700
H 	H 	0.13820 0.28800 0.84270 0.01100
W 	W 	0.41767 0.12112 0.80568 0.51100
W 	W 	0.42088 0.12796 0.07921 0.50500
W 	W 	0.40505 0.77573 0.93312 0.52600
Mn	Mn	0.43418 0.85020 0.13196 1.23800
Mn	Mn	0.43139 0.84340 0.77255 1.24400
Mn	Mn	0.45249 0.31500 0.96456 1.19900
Mn	Mn	0.32901 0.02690 0.88021 1.16400
C 	C 	0.42680 0.12510 0.73800 -0.01200
N 	N 	0.43220 0.12630 0.70420 -0.24700
C 	C 	0.39530 0.21900 0.77220 -0.06100
N 	N 	0.38380 0.27500 0.75660 -0.10000
C 	C 	0.36500 0.09440 0.73750 -0.04800
N 	N 	0.33700 0.08270 0.70070 -0.10700
C 	C 	0.44630 0.06770 0.88030 -0.03100
N 	N 	0.46130 0.04190 0.92050 -0.23800
C 	C 	0.47560 0.13720 0.83200 -0.03600
N 	N 	0.50580 0.14230 0.84230 -0.24100
C 	C 	0.42210 0.01280 0.79350 -0.06000
N 	N 	0.42520 0.95370 0.78450 -0.22700
C 	C 	0.43430 0.19750 0.86780 -0.03800
N 	N 	0.44260 0.24070 0.90240 -0.24900
C 	C 	0.37820 0.09970 0.83050 -0.03800
N 	N 	0.35750 0.08400 0.84460 -0.26300
C 	C 	0.40710 0.23400 0.08700 -0.06500
N 	N 	0.39930 0.29600 0.08960 -0.10500
C 	C 	0.36660 0.11200 0.06960 -0.06200
N 	N 	0.33620 0.11200 0.06210 -0.11000
C 	C 	0.42630 0.13190 0.15690 -0.02000
N 	N 	0.43170 0.13230 0.19940 -0.24400
C 	C 	0.45260 0.07110 0.05270 -0.04500
N 	N 	0.46730 0.03920 0.03440 -0.24500
C 	C 	0.42070 0.01910 0.09900 -0.04800
C 	C 	0.47780 0.14700 0.13660 -0.03600
N 	N 	0.50800 0.15460 0.16970 -0.23700
C 	C 	0.43680 0.19510 0.03670 -0.05100
N 	N 	0.44600 0.23650 0.01410 -0.25400
C 	C 	0.38190 0.10100 0.99760 -0.01900
N 	N 	0.36260 0.08060 0.95410 -0.27400
C 	C 	0.39980 0.68100 0.89010 -0.05600
N 	N 	0.39890 0.62600 0.86720 -0.10700
C 	C 	0.39260 0.69200 0.97100 -0.04300
N 	N 	0.37400 0.66200 0.98400 -0.09700
C 	C 	0.34700 0.76100 0.88100 -0.06700
N 	N 	0.31600 0.76400 0.83400 -0.10700
C 	C 	0.44750 0.85810 0.96220 -0.00900
N 	N 	0.46870 0.89930 0.97790 -0.23300
C 	C 	0.41630 0.80450 0.01050 -0.07700
C 	C 	0.41450 0.80300 0.86810 -0.02300
N 	N 	0.42370 0.82000 0.83920 -0.24100
C 	C 	0.45780 0.72340 0.97590 -0.03000
N 	N 	0.48690 0.70010 0.99780 -0.26000
C 	C 	0.37820 0.87710 0.91270 -0.03100
N 	N 	0.36310 0.93070 0.90250 -0.25900
N 	N 	0.37240 0.82440 0.09480 -0.26000
C 	C 	0.34970 0.86180 0.10480 0.10800
H 	H 	0.35940 0.89850 0.13020 -0.01500
C 	C 	0.31300 0.84800 0.07920 -0.19300
H 	H 	0.29710 0.87850 0.08460 0.09300
C 	C 	0.29790 0.79200 0.04540 0.13800
C 	C 	0.32220 0.75000 0.03670 -0.18700
H 	H 	0.31380 0.71130 0.01320 0.08900
C 	C 	0.35890 0.76900 0.06450 0.10500
H 	H 	0.37610 0.73960 0.06140 -0.02400
C 	C 	0.25940 0.77600 0.01650 -0.14000
H 	H 	0.24420 0.80780 0.02200 0.06700
N 	N 	0.44490 0.73510 0.15750 -0.25500
C 	C 	0.45190 0.68610 0.13080 0.08300
H 	H 	0.45570 0.70040 0.10280 -0.02900
C 	C 	0.45360 0.61560 0.14270 -0.16500
H 	H 	0.45910 0.58240 0.12320 0.06600
C 	C 	0.44760 0.59250 0.18240 0.11400
C 	C 	0.44850 0.64310 0.21660 -0.16500
H 	H 	0.45090 0.63100 0.24970 0.08200
C 	C 	0.44570 0.71180 0.20090 0.09100
H 	H 	0.44420 0.74610 0.22330 -0.01800
C 	C 	0.44860 0.51800 0.19400 -0.09000
H 	H 	0.45140 0.48530 0.17170 0.05300
N 	N 	0.43730 0.27250 0.25940 -0.25300
C 	C 	0.43830 0.32260 0.29200 0.08000
H 	H 	0.43730 0.30850 0.32240 -0.01600
C 	C 	0.44070 0.39370 0.28450 -0.16100
H 	H 	0.44040 0.42700 0.30840 0.07100
C 	C 	0.44350 0.41570 0.24170 0.10300
C 	C 	0.45320 0.36360 0.21800 -0.15700
H 	H 	0.46380 0.37560 0.19690 0.08000
C 	C 	0.44750 0.29410 0.22500 0.08200
H 	H 	0.45100 0.25970 0.20460 -0.01600
C 	C 	0.44570 0.49200 0.23500 -0.08000
H 	H 	0.44510 0.52370 0.25970 0.04700
N 	N 	0.36890 0.83380 0.72220 -0.25300
C 	C 	0.34960 0.78300 0.72900 0.06300
H 	H 	0.36260 0.74680 0.75440 -0.00700
C 	C 	0.31130 0.78100 0.70100 -0.12200
H 	H 	0.29860 0.74130 0.70380 0.06000
C 	C 	0.31120 0.88600 0.65800 -0.11000
H 	H 	0.29880 0.92190 0.63280 0.06900
C 	C 	0.34930 0.88100 0.68510 0.05900
H 	H 	0.36260 0.91450 0.67670 -0.00000
C 	C 	0.29140 0.83600 0.66810 0.12800
C 	C 	0.24720 0.84300 0.63600 -0.09600
H 	H 	0.23560 0.85180 0.59920 0.05500
N 	N 	0.10910 0.83170 0.57680 -0.27300
C 	C 	0.12830 0.84400 0.55220 0.07500
H 	H 	0.11490 0.84980 0.51500 -0.02700
C 	C 	0.16660 0.84800 0.57780 -0.15500
H 	H 	0.17870 0.85830 0.55840 0.07800
C 	C 	0.18690 0.83700 0.63120 0.08800
C 	C 	0.16730 0.83500 0.65780 -0.15600
H 	H 	0.18000 0.83690 0.69530 0.07200
C 	C 	0.12910 0.82900 0.62970 0.06700
H 	H 	0.11630 0.82250 0.64870 -0.02300
C 	C 	0.22800 0.83900 0.65500 -0.07400
H 	H 	0.24150 0.83640 0.69230 0.04300
N 	N 	0.42540 0.84360 0.04930 -0.22000
N 	N 	0.42340 0.96280 0.11150 -0.22600
C 	C 	0.35000 0.87100 0.74000 0.03100
C 	C 	0.31200 0.86500 0.71800 -0.09800
C 	C 	0.31080 0.81200 0.64430 -0.08700
C 	C 	0.34910 0.80900 0.67300 0.03100
H 	H 	0.36320 0.90200 0.76880 -0.00700
H 	H 	0.30020 0.88160 0.73630 0.04500
H 	H 	0.29790 0.79720 0.60850 0.05500
H 	H 	0.36180 0.78800 0.65730 0.01100
W 	W 	0.91767 0.62112 0.80568 0.50700
W 	W 	0.92088 0.62796 0.07921 0.50100
W 	W 	0.90505 0.27573 0.93312 0.52600
Mn	Mn	0.93418 0.35020 0.13196 1.23800
Mn	Mn	0.93139 0.34340 0.77255 1.24400
Mn	Mn	0.95249 0.81500 0.96456 1.20100
Mn	Mn	0.82901 0.52690 0.88021 1.16800
C 	C 	0.92680 0.62510 0.73800 -0.01000
N 	N 	0.93220 0.62630 0.70420 -0.24500
C 	C 	0.89530 0.71900 0.77220 -0.06100
N 	N 	0.88380 0.77500 0.75660 -0.09900
C 	C 	0.86500 0.59440 0.73750 -0.04600
N 	N 	0.83700 0.58270 0.70070 -0.10400
C 	C 	0.94630 0.56770 0.88030 -0.02800
N 	N 	0.96130 0.54190 0.92050 -0.23400
C 	C 	0.97560 0.63720 0.83200 -0.02700
N 	N 	0.00580 0.64230 0.84230 -0.24600
C 	C 	0.92210 0.51280 0.79350 -0.04200
N 	N 	0.92520 0.45370 0.78450 -0.23900
C 	C 	0.93430 0.69750 0.86780 -0.03700
N 	N 	0.94260 0.74070 0.90240 -0.24800
C 	C 	0.87820 0.59970 0.83050 -0.03600
N 	N 	0.85750 0.58400 0.84460 -0.26100
C 	C 	0.90710 0.73400 0.08700 -0.06400
N 	N 	0.89930 0.79600 0.08960 -0.10400
C 	C 	0.86660 0.61200 0.06960 -0.06000
N 	N 	0.83620 0.61200 0.06210 -0.10900
C 	C 	0.92630 0.63190 0.15690 -0.01800
N 	N 	0.93170 0.63230 0.19940 -0.24200
C 	C 	0.95260 0.57110 0.05270 -0.04200
N 	N 	0.96730 0.53920 0.03440 -0.24000
C 	C 	0.92070 0.51910 0.09900 -0.02800
C 	C 	0.97780 0.64700 0.13660 -0.02700
N 	N 	0.00800 0.65460 0.16970 -0.24300
C 	C 	0.93680 0.69510 0.03670 -0.05000
N 	N 	0.94600 0.73650 0.01410 -0.25300
C 	C 	0.88190 0.60100 0.99760 -0.01800
N 	N 	0.86260 0.58060 0.95410 -0.27200
C 	C 	0.89980 0.18100 0.89010 -0.05600
N 	N 	0.89890 0.12600 0.86720 -0.11000
C 	C 	0.89260 0.19200 0.97100 -0.04400
N 	N 	0.87400 0.16200 0.98400 -0.09900
C 	C 	0.84700 0.26100 0.88100 -0.06800
N 	N 	0.81600 0.26400 0.83400 -0.10800
C 	C 	0.94750 0.35810 0.96220 -0.01000
N 	N 	0.96870 0.39930 0.97790 -0.23400
C 	C 	0.91630 0.30450 0.01050 -0.07600
C 	C 	0.91450 0.30300 0.86810 -0.02400
N 	N 	0.92370 0.32000 0.83920 -0.24100
C 	C 	0.95780 0.22340 0.97590 -0.03000
N 	N 	0.98690 0.20010 0.99780 -0.25900
C 	C 	0.87820 0.37710 0.91270 -0.03300
N 	N 	0.86310 0.43070 0.90250 -0.26500
N 	N 	0.87240 0.32440 0.09480 -0.26000
C 	C 	0.84970 0.36180 0.10480 0.10600
H 	H 	0.85940 0.39850 0.13020 -0.01700
C 	C 	0.81300 0.34800 0.07920 -0.19300
H 	H 	0.79710 0.37850 0.08460 0.09100
C 	C 	0.79790 0.29200 0.04540 0.13600
C 	C 	0.82220 0.25000 0.03670 -0.18700
H 	H 	0.81380 0.21130 0.01320 0.08700
C 	C 	0.85890 0.26900 0.06450 0.10400
H 	H 	0.87610 0.23960 0.06140 -0.02400
C 	C 	0.75940 0.27600 0.01650 -0.14000
H 	H 	0.74420 0.30780 0.02200 0.06500
N 	N 	0.94490 0.23510 0.15750 -0.26000
C 	C 	0.95190 0.18610 0.13080 0.09700
H 	H 	0.95570 0.20040 0.10280 -0.03300
C 	C 	0.95360 0.11560 0.14270 -0.19200
H 	H 	0.95910 0.08240 0.12320 0.07300
C 	C 	0.94760 0.09250 0.18240 0.15800
C 	C 	0.94850 0.14310 0.21660 -0.19200
H 	H 	0.95090 0.13100 0.24970 0.09300
C 	C 	0.94570 0.21180 0.20090 0.10600
H 	H 	0.94420 0.24610 0.22330 -0.02200
C 	C 	0.94860 0.01800 0.19400 -0.18400
H 	H 	0.95140 0.98530 0.17170 0.09300
N 	N 	0.93730 0.77250 0.25940 -0.24800
C 	C 	0.93830 0.82260 0.29200 0.06900
H 	H 	0.93730 0.80850 0.32240 -0.01200
C 	C 	0.94070 0.89370 0.28450 -0.13600
H 	H 	0.94040 0.92700 0.30840 0.06700
C 	C 	0.94350 0.91570 0.24170 0.06400
C 	C 	0.95320 0.86360 0.21800 -0.13100
H 	H 	0.96380 0.87560 0.19690 0.07300
C 	C 	0.94750 0.79410 0.22500 0.07000
H 	H 	0.95100 0.75970 0.20460 -0.01100
C 	C 	0.94570 0.99200 0.23500 0.01300
H 	H 	0.94510 0.02370 0.25970 0.00800
N 	N 	0.86890 0.33380 0.72220 -0.25300
C 	C 	0.84960 0.28300 0.72900 0.06300
H 	H 	0.86260 0.24680 0.75440 -0.00700
C 	C 	0.81130 0.28100 0.70100 -0.12100
H 	H 	0.79860 0.24130 0.70380 0.05800
C 	C 	0.81120 0.38600 0.65800 -0.11000
H 	H 	0.79880 0.42190 0.63280 0.06600
C 	C 	0.84930 0.38100 0.68510 0.05800
H 	H 	0.86260 0.41450 0.67670 -0.00300
C 	C 	0.79140 0.33600 0.66810 0.12800
C 	C 	0.74720 0.34300 0.63600 -0.09700
H 	H 	0.73560 0.35180 0.59920 0.05400
N 	N 	0.60910 0.33170 0.57680 -0.27400
C 	C 	0.62830 0.34400 0.55220 0.07300
H 	H 	0.61490 0.34980 0.51500 -0.02700
C 	C 	0.66660 0.34800 0.57780 -0.15500
H 	H 	0.67870 0.35830 0.55840 0.07600
C 	C 	0.68690 0.33700 0.63120 0.08600
C 	C 	0.66730 0.33500 0.65780 -0.15600
H 	H 	0.68000 0.33690 0.69530 0.07000
C 	C 	0.62910 0.32900 0.62970 0.06600
H 	H 	0.61630 0.32250 0.64870 -0.02300
C 	C 	0.72800 0.33900 0.65500 -0.07500
H 	H 	0.74150 0.33640 0.69230 0.04200
N 	N 	0.92540 0.34360 0.04930 -0.22100
N 	N 	0.92340 0.46280 0.11150 -0.24000
C 	C 	0.85000 0.37100 0.74000 0.03100
C 	C 	0.81200 0.36500 0.71800 -0.09900
C 	C 	0.81080 0.31200 0.64430 -0.08700
C 	C 	0.84910 0.30900 0.67300 0.03100
H 	H 	0.86320 0.40200 0.76880 -0.01000
H 	H 	0.80020 0.38160 0.73630 0.04400
H 	H 	0.79790 0.29720 0.60850 0.05400
H 	H 	0.86180 0.28800 0.65730 0.01100
W 	W 	0.41767 0.87888 0.30568 0.50500
W 	W 	0.42088 0.87204 0.57921 0.50800
W 	W 	0.40505 0.22427 0.43312 0.51700
Mn	Mn	0.43418 0.14980 0.63196 1.23700
Mn	Mn	0.43139 0.15660 0.27255 1.24300
Mn	Mn	0.45249 0.68500 0.46456 1.19300
Mn	Mn	0.32901 0.97310 0.38021 1.17100
C 	C 	0.42680 0.87490 0.23800 -0.00900
N 	N 	0.43220 0.87370 0.20420 -0.24500
C 	C 	0.39530 0.78100 0.27220 -0.06100
N 	N 	0.38380 0.72500 0.25660 -0.10100
C 	C 	0.36500 0.90560 0.23750 -0.04400
N 	N 	0.33700 0.91730 0.20070 -0.10200
C 	C 	0.44630 0.93230 0.38030 -0.02800
N 	N 	0.46130 0.95810 0.42050 -0.23500
C 	C 	0.47560 0.86280 0.33200 -0.03300
N 	N 	0.50580 0.85770 0.34230 -0.23900
C 	C 	0.42210 0.98720 0.29350 -0.02500
N 	N 	0.42520 0.04630 0.28450 -0.25200
C 	C 	0.43430 0.80250 0.36780 -0.03900
N 	N 	0.44260 0.75930 0.40240 -0.25200
C 	C 	0.37820 0.90030 0.33050 -0.03500
N 	N 	0.35750 0.91600 0.34460 -0.25900
C 	C 	0.40710 0.76600 0.58700 -0.06200
N 	N 	0.39930 0.70400 0.58960 -0.10200
C 	C 	0.36660 0.88800 0.56960 -0.05400
N 	N 	0.33620 0.88800 0.56210 -0.10500
C 	C 	0.42630 0.86810 0.65690 -0.01900
N 	N 	0.43170 0.86770 0.69940 -0.24100
C 	C 	0.45260 0.92890 0.55270 -0.03700
N 	N 	0.46730 0.96080 0.53440 -0.23400
C 	C 	0.42070 0.98090 0.59900 -0.00800
C 	C 	0.47780 0.85300 0.63660 -0.03500
N 	N 	0.50800 0.84540 0.66970 -0.23600
C 	C 	0.43680 0.80490 0.53670 -0.04500
N 	N 	0.44600 0.76350 0.51410 -0.24900
C 	C 	0.38190 0.89900 0.49760 -0.03400
N 	N 	0.36260 0.91940 0.45410 -0.27000
C 	C 	0.39980 0.31900 0.39010 -0.05500
N 	N 	0.39890 0.37400 0.36720 -0.10900
C 	C 	0.39260 0.30800 0.47100 -0.05000
N 	N 	0.37400 0.33800 0.48400 -0.10200
C 	C 	0.34700 0.23900 0.38100 -0.06900
N 	N 	0.31600 0.23600 0.33400 -0.10900
C 	C 	0.44750 0.14190 0.46220 -0.01600
N 	N 	0.46870 0.10070 0.47790 -0.24300
C 	C 	0.41630 0.19550 0.51050 -0.06100
C 	C 	0.41450 0.19700 0.36810 -0.02400
N 	N 	0.42370 0.18000 0.33920 -0.24300
C 	C 	0.45780 0.27660 0.47590 -0.03400
N 	N 	0.48690 0.29990 0.49780 -0.26600
C 	C 	0.37820 0.12290 0.41270 -0.03800
N 	N 	0.36310 0.06930 0.40250 -0.27100
N 	N 	0.37240 0.17560 0.59480 -0.25700
C 	C 	0.34970 0.13820 0.60480 0.09900
H 	H 	0.35940 0.10150 0.63020 -0.01700
C 	C 	0.31300 0.15200 0.57920 -0.17800
H 	H 	0.29710 0.12150 0.58460 0.08500
C 	C 	0.29790 0.20800 0.54540 0.11600
C 	C 	0.32220 0.25000 0.53670 -0.17300
H 	H 	0.31380 0.28870 0.51320 0.08900
C 	C 	0.35890 0.23100 0.56450 0.09900
H 	H 	0.37610 0.26040 0.56140 -0.01900
C 	C 	0.25940 0.22400 0.51650 -0.09300
H 	H 	0.24420 0.19220 0.52200 0.05500
N 	N 	0.44490 0.26490 0.65750 -0.25500
C 	C 	0.45190 0.31390 0.63080 0.08400
H 	H 	0.45570 0.29960 0.60280 -0.02600
C 	C 	0.45360 0.38440 0.64270 -0.16400
H 	H 	0.45910 0.41760 0.62320 0.06800
C 	C 	0.44760 0.40750 0.68240 0.11500
C 	C 	0.44850 0.35690 0.71660 -0.16500
H 	H 	0.45090 0.36900 0.74970 0.08200
C 	C 	0.44570 0.28820 0.70090 0.09200
H 	H 	0.44420 0.25390 0.72330 -0.01800
C 	C 	0.44860 0.48200 0.69400 -0.09000
H 	H 	0.45140 0.51470 0.67170 0.05400
N 	N 	0.43730 0.72750 0.75940 -0.25300
C 	C 	0.43830 0.67740 0.79200 0.08100
H 	H 	0.43730 0.69150 0.82240 -0.01600
C 	C 	0.44070 0.60630 0.78450 -0.16100
H 	H 	0.44040 0.57300 0.80840 0.07200
C 	C 	0.44350 0.58430 0.74170 0.10400
C 	C 	0.45320 0.63640 0.71800 -0.15700
H 	H 	0.46380 0.62440 0.69690 0.08100
C 	C 	0.44750 0.70590 0.72500 0.08200
H 	H 	0.45100 0.74030 0.70460 -0.01600
C 	C 	0.44570 0.50800 0.73500 -0.08000
H 	H 	0.44510 0.47630 0.75970 0.04800
N 	N 	0.36890 0.16620 0.22220 -0.25300
C 	C 	0.34960 0.21700 0.22900 0.06200
H 	H 	0.36260 0.25320 0.25440 -0.00700
C 	C 	0.31130 0.21900 0.20100 -0.12000
H 	H 	0.29860 0.25870 0.20380 0.05800
C 	C 	0.31120 0.11400 0.15800 -0.11000
H 	H 	0.29880 0.07810 0.13280 0.06200
C 	C 	0.34930 0.11900 0.18510 0.05700
H 	H 	0.36260 0.08550 0.17670 -0.00500
C 	C 	0.29140 0.16400 0.16810 0.12600
C 	C 	0.24720 0.15700 0.13600 -0.09600
H 	H 	0.23560 0.14820 0.09920 0.05000
N 	N 	0.10910 0.16830 0.07680 -0.27600
C 	C 	0.12830 0.15600 0.05220 0.07100
H 	H 	0.11490 0.15020 0.01500 -0.03400
C 	C 	0.16660 0.15200 0.07780 -0.15700
H 	H 	0.17870 0.14170 0.05840 0.07300
C 	C 	0.18690 0.16300 0.13120 0.08500
C 	C 	0.16730 0.16500 0.15780 -0.15700
H 	H 	0.18000 0.16310 0.19530 0.06900
C 	C 	0.12910 0.17100 0.12970 0.06400
H 	H 	0.11630 0.17750 0.14870 -0.02400
C 	C 	0.22800 0.16100 0.15500 -0.07700
H 	H 	0.24150 0.16360 0.19230 0.04200
N 	N 	0.42540 0.15640 0.54930 -0.22300
N 	N 	0.42340 0.03720 0.61150 -0.25300
C 	C 	0.35000 0.12900 0.24000 0.03100
C 	C 	0.31200 0.13500 0.21800 -0.09900
C 	C 	0.31080 0.18800 0.14430 -0.08600
C 	C 	0.34910 0.19100 0.17300 0.03100
H 	H 	0.36320 0.09800 0.26880 -0.01300
H 	H 	0.30020 0.11840 0.23630 0.04100
H 	H 	0.29790 0.20280 0.10850 0.05200
H 	H 	0.36180 0.21200 0.15730 0.01000
W 	W 	0.91767 0.37888 0.30568 0.50700
W 	W 	0.92088 0.37204 0.57921 0.50900
W 	W 	0.90505 0.72427 0.43312 0.51700
Mn	Mn	0.93418 0.64980 0.63196 1.23800
Mn	Mn	0.93139 0.65660 0.27255 1.24400
Mn	Mn	0.95249 0.18500 0.46456 1.19300
Mn	Mn	0.82901 0.47310 0.38021 1.16600
C 	C 	0.92680 0.37490 0.23800 -0.01000
N 	N 	0.93220 0.37370 0.20420 -0.24500
C 	C 	0.89530 0.28100 0.27220 -0.06100
N 	N 	0.88380 0.22500 0.25660 -0.10200
C 	C 	0.86500 0.40560 0.23750 -0.04600
N 	N 	0.83700 0.41730 0.20070 -0.10500
C 	C 	0.94630 0.43230 0.38030 -0.02900
N 	N 	0.96130 0.45810 0.42050 -0.23700
C 	C 	0.97560 0.36280 0.33200 -0.02700
N 	N 	0.00580 0.35770 0.34230 -0.24600
C 	C 	0.92210 0.48720 0.29350 -0.04200
N 	N 	0.92520 0.54630 0.28450 -0.23900
C 	C 	0.93430 0.30250 0.36780 -0.03900
N 	N 	0.94260 0.25930 0.40240 -0.25100
C 	C 	0.87820 0.40030 0.33050 -0.03700
N 	N 	0.85750 0.41600 0.34460 -0.26200
C 	C 	0.90710 0.26600 0.58700 -0.06300
N 	N 	0.89930 0.20400 0.58960 -0.10300
C 	C 	0.86660 0.38800 0.56960 -0.05600
N 	N 	0.83620 0.38800 0.56210 -0.10700
C 	C 	0.92630 0.36810 0.65690 -0.01900
N 	N 	0.93170 0.36770 0.69940 -0.24200
C 	C 	0.95260 0.42890 0.55270 -0.03800
N 	N 	0.96730 0.46080 0.53440 -0.23700
C 	C 	0.92070 0.48090 0.59900 -0.02700
C 	C 	0.97780 0.35300 0.63660 -0.02900
N 	N 	0.00800 0.34540 0.66970 -0.24200
C 	C 	0.93680 0.30490 0.53670 -0.04500
N 	N 	0.94600 0.26350 0.51410 -0.24800
C 	C 	0.88190 0.39900 0.49760 -0.03600
N 	N 	0.86260 0.41940 0.45410 -0.27200
C 	C 	0.89980 0.81900 0.39010 -0.05400
N 	N 	0.89890 0.87400 0.36720 -0.10600
C 	C 	0.89260 0.80800 0.47100 -0.04800
N 	N 	0.87400 0.83800 0.48400 -0.10000
C 	C 	0.84700 0.73900 0.38100 -0.06800
N 	N 	0.81600 0.73600 0.33400 -0.10800
C 	C 	0.94750 0.64190 0.46220 -0.01400
N 	N 	0.96870 0.60070 0.47790 -0.23900
C 	C 	0.91630 0.69550 0.51050 -0.06000
C 	C 	0.91450 0.69700 0.36810 -0.02200
N 	N 	0.92370 0.68000 0.33920 -0.24200
C 	C 	0.95780 0.77660 0.47590 -0.03200
N 	N 	0.98690 0.79990 0.49780 -0.26300
C 	C 	0.87820 0.62290 0.41270 -0.03600
N 	N 	0.86310 0.56930 0.40250 -0.26600
N 	N 	0.87240 0.67560 0.59480 -0.25700
C 	C 	0.84970 0.63820 0.60480 0.10000
H 	H 	0.85940 0.60150 0.63020 -0.01500
C 	C 	0.81300 0.65200 0.57920 -0.17800
H 	H 	0.79710 0.62150 0.58460 0.08800
C 	C 	0.79790 0.70800 0.54540 0.11800
C 	C 	0.82220 0.75000 0.53670 -0.17300
H 	H 	0.81380 0.78870 0.51320 0.09000
C 	C 	0.85890 0.73100 0.56450 0.10000
H 	H 	0.87610 0.76040 0.56140 -0.01900
C 	C 	0.75940 0.72400 0.51650 -0.09300
H 	H 	0.74420 0.69220 0.52200 0.05600
N 	N 	0.94490 0.76490 0.65750 -0.25000
C 	C 	0.95190 0.81390 0.63080 0.07200
H 	H 	0.95570 0.79960 0.60280 -0.02100
C 	C 	0.95360 0.88440 0.64270 -0.13700
H 	H 	0.95910 0.91760 0.62320 0.06300
C 	C 	0.94760 0.90750 0.68240 0.07400
C 	C 	0.94850 0.85690 0.71660 -0.13700
H 	H 	0.95090 0.86900 0.74970 0.07400
C 	C 	0.94570 0.78820 0.70090 0.08000
H 	H 	0.94420 0.75390 0.72330 -0.01300
C 	C 	0.94860 0.98200 0.69400 0.00400
H 	H 	0.95140 0.01470 0.67170 0.01400
N 	N 	0.93730 0.22750 0.75940 -0.25800
C 	C 	0.93830 0.17740 0.79200 0.09300
H 	H 	0.93730 0.19150 0.82240 -0.02000
C 	C 	0.94070 0.10630 0.78450 -0.18600
H 	H 	0.94040 0.07300 0.80840 0.07800
C 	C 	0.94350 0.08430 0.74170 0.14500
C 	C 	0.95320 0.13640 0.71800 -0.18300
H 	H 	0.96380 0.12440 0.69690 0.09200
C 	C 	0.94750 0.20590 0.72500 0.09600
H 	H 	0.95100 0.24030 0.70460 -0.02000
C 	C 	0.94570 0.00800 0.73500 -0.17200
H 	H 	0.94510 0.97630 0.75970 0.08800
N 	N 	0.86890 0.66620 0.22220 -0.25300
C 	C 	0.84960 0.71700 0.22900 0.06300
H 	H 	0.86260 0.75320 0.25440 -0.00600
C 	C 	0.81130 0.71900 0.20100 -0.12100
H 	H 	0.79860 0.75870 0.20380 0.05900
C 	C 	0.81120 0.61400 0.15800 -0.11000
H 	H 	0.79880 0.57810 0.13280 0.06500
C 	C 	0.84930 0.61900 0.18510 0.05800
H 	H 	0.86260 0.58550 0.17670 -0.00300
C 	C 	0.79140 0.66400 0.16810 0.12600
C 	C 	0.74720 0.65700 0.13600 -0.09500
H 	H 	0.73560 0.64820 0.09920 0.05100
N 	N 	0.60910 0.66830 0.07680 -0.27600
C 	C 	0.62830 0.65600 0.05220 0.07300
H 	H 	0.61490 0.65020 0.01500 -0.03300
C 	C 	0.66660 0.65200 0.07780 -0.15700
H 	H 	0.67870 0.64170 0.05840 0.07400
C 	C 	0.68690 0.66300 0.13120 0.08700
C 	C 	0.66730 0.66500 0.15780 -0.15600
H 	H 	0.68000 0.66310 0.19530 0.07000
C 	C 	0.62910 0.67100 0.12970 0.06600
H 	H 	0.61630 0.67750 0.14870 -0.02400
C 	C 	0.72800 0.66100 0.15500 -0.07600
H 	H 	0.74150 0.66360 0.19230 0.04300
N 	N 	0.92540 0.65640 0.54930 -0.22100
N 	N 	0.92340 0.53720 0.61150 -0.23900
C 	C 	0.85000 0.62900 0.24000 0.03100
C 	C 	0.81200 0.63500 0.21800 -0.09800
C 	C 	0.81080 0.68800 0.14430 -0.08600
C 	C 	0.84910 0.69100 0.17300 0.03000
H 	H 	0.86320 0.59800 0.26880 -0.01000
H 	H 	0.80020 0.61840 0.23630 0.04300
H 	H 	0.79790 0.70280 0.10850 0.05200
H 	H 	0.86180 0.71200 0.15730 0.01100
W 	W 	0.58233 0.87888 0.19432 0.50500
W 	W 	0.57912 0.87204 0.92079 0.51600
W 	W 	0.59495 0.22427 0.06688 0.50800
Mn	Mn	0.56582 0.14980 0.86804 1.23800
Mn	Mn	0.56861 0.15660 0.22745 1.24300
Mn	Mn	0.54751 0.68500 0.03544 1.18700
Mn	Mn	0.67099 0.97310 0.11979 1.16900
C 	C 	0.57320 0.87490 0.26200 -0.00900
N 	N 	0.56780 0.87370 0.29580 -0.24500
C 	C 	0.60470 0.78100 0.22780 -0.06100
N 	N 	0.61620 0.72500 0.24340 -0.10100
C 	C 	0.63500 0.90560 0.26250 -0.04400
N 	N 	0.66300 0.91730 0.29930 -0.10200
C 	C 	0.55370 0.93230 0.11970 -0.02900
N 	N 	0.53870 0.95810 0.07950 -0.23700
C 	C 	0.52440 0.86280 0.16800 -0.03400
N 	N 	0.49420 0.85770 0.15770 -0.24000
C 	C 	0.57790 0.98720 0.20650 -0.02500
N 	N 	0.57480 0.04630 0.21550 -0.25200
C 	C 	0.56570 0.80250 0.13220 -0.04000
N 	N 	0.55740 0.75930 0.09760 -0.25400
C 	C 	0.62180 0.90030 0.16950 -0.03500
N 	N 	0.64250 0.91600 0.15540 -0.26000
C 	C 	0.59290 0.76600 0.91300 -0.06000
N 	N 	0.60070 0.70400 0.91040 -0.09900
C 	C 	0.63340 0.88800 0.93040 -0.04900
N 	N 	0.66380 0.88800 0.93790 -0.10200
C 	C 	0.57370 0.86810 0.84310 -0.02000
N 	N 	0.56830 0.86770 0.80060 -0.24100
C 	C 	0.54740 0.92890 0.94730 -0.03300
N 	N 	0.53270 0.96080 0.96560 -0.22900
C 	C 	0.57930 0.98090 0.90100 -0.00700
C 	C 	0.52220 0.85300 0.86340 -0.03600
N 	N 	0.49200 0.84540 0.83030 -0.23500
C 	C 	0.56320 0.80490 0.96330 -0.04000
N 	N 	0.55400 0.76350 0.98590 -0.24300
C 	C 	0.61810 0.89900 0.00240 -0.05200
N 	N 	0.63740 0.91940 0.04590 -0.26900
C 	C 	0.60020 0.31900 0.10990 -0.05500
N 	N 	0.60110 0.37400 0.13280 -0.11000
C 	C 	0.60740 0.30800 0.02900 -0.05700
N 	N 	0.62600 0.33800 0.01600 -0.10700
C 	C 	0.65300 0.23900 0.11900 -0.07000
N 	N 	0.68400 0.23600 0.16600 -0.11000
C 	C 	0.55250 0.14190 0.03780 -0.02100
N 	N 	0.53130 0.10070 0.02210 -0.24600
C 	C 	0.58370 0.19550 0.98950 -0.04300
C 	C 	0.58550 0.19700 0.13190 -0.02200
N 	N 	0.57630 0.18000 0.16080 -0.24300
C 	C 	0.54220 0.27660 0.02410 -0.03800
N 	N 	0.51310 0.29990 0.00220 -0.27200
C 	C 	0.62180 0.12290 0.08730 -0.04200
N 	N 	0.63690 0.06930 0.09750 -0.27300
N 	N 	0.62760 0.17560 0.90520 -0.25400
C 	C 	0.65030 0.13820 0.89520 0.09300
H 	H 	0.64060 0.10150 0.86980 -0.01400
C 	C 	0.68700 0.15200 0.92080 -0.16400
H 	H 	0.70290 0.12150 0.91540 0.08200
C 	C 	0.70210 0.20800 0.95460 0.09800
C 	C 	0.67780 0.25000 0.96330 -0.16000
H 	H 	0.68620 0.28870 0.98680 0.09000
C 	C 	0.64110 0.23100 0.93550 0.09500
H 	H 	0.62390 0.26040 0.93860 -0.01500
C 	C 	0.74060 0.22400 0.98350 -0.04700
H 	H 	0.75580 0.19220 0.97800 0.04600
N 	N 	0.55510 0.26490 0.84250 -0.25500
C 	C 	0.54810 0.31390 0.86920 0.08500
H 	H 	0.54430 0.29960 0.89720 -0.02400
C 	C 	0.54640 0.38440 0.85730 -0.16400
H 	H 	0.54090 0.41760 0.87680 0.07000
C 	C 	0.55240 0.40750 0.81760 0.11700
C 	C 	0.55150 0.35690 0.78340 -0.16500
H 	H 	0.54910 0.36900 0.75030 0.08200
C 	C 	0.55430 0.28820 0.79910 0.09200
H 	H 	0.55580 0.25390 0.77670 -0.01800
C 	C 	0.55140 0.48200 0.80600 -0.09000
H 	H 	0.54860 0.51470 0.82830 0.05500
N 	N 	0.56270 0.72750 0.74060 -0.25300
C 	C 	0.56170 0.67740 0.70800 0.08000
H 	H 	0.56270 0.69150 0.67760 -0.01600
C 	C 	0.55930 0.60630 0.71550 -0.16100
H 	H 	0.55960 0.57300 0.69160 0.07200
C 	C 	0.55650 0.58430 0.75830 0.10400
C 	C 	0.54680 0.63640 0.78200 -0.15700
H 	H 	0.53620 0.62440 0.80310 0.08200
C 	C 	0.55250 0.70590 0.77500 0.08300
H 	H 	0.54900 0.74030 0.79540 -0.01600
C 	C 	0.55430 0.50800 0.76500 -0.07900
H 	H 	0.55490 0.47630 0.74030 0.04700
N 	N 	0.63110 0.16620 0.27780 -0.25300
C 	C 	0.65040 0.21700 0.27100 0.06300
H 	H 	0.63740 0.25320 0.24560 -0.00700
C 	C 	0.68870 0.21900 0.29900 -0.12100
H 	H 	0.70140 0.25870 0.29620 0.05900
C 	C 	0.68880 0.11400 0.34200 -0.11100
H 	H 	0.70120 0.07810 0.36720 0.06300
C 	C 	0.65070 0.11900 0.31490 0.05700
H 	H 	0.63740 0.08550 0.32330 -0.00500
C 	C 	0.70860 0.16400 0.33190 0.12800
C 	C 	0.75280 0.15700 0.36400 -0.09800
H 	H 	0.76440 0.14820 0.40080 0.05300
N 	N 	0.89090 0.16830 0.42320 -0.27400
C 	C 	0.87170 0.15600 0.44780 0.07200
H 	H 	0.88510 0.15020 0.48500 -0.02800
C 	C 	0.83340 0.15200 0.42220 -0.15500
H 	H 	0.82130 0.14170 0.44160 0.07500
C 	C 	0.81310 0.16300 0.36880 0.08500
C 	C 	0.83270 0.16500 0.34220 -0.15600
H 	H 	0.82000 0.16310 0.30470 0.06800
C 	C 	0.87090 0.17100 0.37030 0.06400
H 	H 	0.88370 0.17750 0.35130 -0.02400
C 	C 	0.77200 0.16100 0.34500 -0.07500
H 	H 	0.75850 0.16360 0.30770 0.04100
N 	N 	0.57460 0.15640 0.95070 -0.22300
N 	N 	0.57660 0.03720 0.88850 -0.25300
C 	C 	0.65000 0.12900 0.26000 0.03200
C 	C 	0.68800 0.13500 0.28200 -0.10000
C 	C 	0.68920 0.18800 0.35570 -0.08700
C 	C 	0.65090 0.19100 0.32700 0.03100
H 	H 	0.63680 0.09800 0.23120 -0.01300
H 	H 	0.69980 0.11840 0.26370 0.04200
H 	H 	0.70210 0.20280 0.39150 0.05400
H 	H 	0.63820 0.21200 0.34270 0.01100
W 	W 	0.08233 0.37888 0.19432 0.51000
W 	W 	0.07912 0.37204 0.92079 0.52100
W 	W 	0.09495 0.72427 0.06688 0.50800
Mn	Mn	0.06582 0.64980 0.86804 1.23800
Mn	Mn	0.06861 0.65660 0.22745 1.24300
Mn	Mn	0.04751 0.18500 0.03544 1.18500
Mn	Mn	0.17099 0.47310 0.11979 1.16400
C 	C 	0.07320 0.37490 0.26200 -0.01100
N 	N 	0.06780 0.37370 0.29580 -0.24600
C 	C 	0.10470 0.28100 0.22780 -0.06200
N 	N 	0.11620 0.22500 0.24340 -0.10100
C 	C 	0.13500 0.40560 0.26250 -0.04600
N 	N 	0.16300 0.41730 0.29930 -0.10500
C 	C 	0.05370 0.43230 0.11970 -0.03200
N 	N 	0.03870 0.45810 0.07950 -0.24300
C 	C 	0.02440 0.36280 0.16800 -0.04400
N 	N 	0.99420 0.35770 0.15770 -0.23400
C 	C 	0.07790 0.48720 0.20650 -0.04300
N 	N 	0.07480 0.54630 0.21550 -0.24000
C 	C 	0.06570 0.30250 0.13220 -0.04200
N 	N 	0.05740 0.25930 0.09760 -0.25600
C 	C 	0.12180 0.40030 0.16950 -0.03800
N 	N 	0.14250 0.41600 0.15540 -0.26200
C 	C 	0.09290 0.26600 0.91300 -0.06100
N 	N 	0.10070 0.20400 0.91040 -0.10000
C 	C 	0.13340 0.38800 0.93040 -0.05100
N 	N 	0.16380 0.38800 0.93790 -0.10400
C 	C 	0.07370 0.36810 0.84310 -0.02200
N 	N 	0.06830 0.36770 0.80060 -0.24200
C 	C 	0.04740 0.42890 0.94730 -0.03600
N 	N 	0.03270 0.46080 0.96560 -0.23500
C 	C 	0.07930 0.48090 0.90100 -0.02600
C 	C 	0.02220 0.35300 0.86340 -0.04500
N 	N 	0.99200 0.34540 0.83030 -0.23000
C 	C 	0.06320 0.30490 0.96330 -0.04100
N 	N 	0.05400 0.26350 0.98590 -0.24400
C 	C 	0.11810 0.39900 0.00240 -0.05500
N 	N 	0.13740 0.41940 0.04590 -0.27100
C 	C 	0.10020 0.81900 0.10990 -0.05400
N 	N 	0.10110 0.87400 0.13280 -0.10800
C 	C 	0.10740 0.80800 0.02900 -0.05600
N 	N 	0.12600 0.83800 0.01600 -0.10500
C 	C 	0.15300 0.73900 0.11900 -0.06900
N 	N 	0.18400 0.73600 0.16600 -0.10900
C 	C 	0.05250 0.64190 0.03780 -0.02000
N 	N 	0.03130 0.60070 0.02210 -0.24600
C 	C 	0.08370 0.69550 0.98950 -0.04300
C 	C 	0.08550 0.69700 0.13190 -0.02200
N 	N 	0.07630 0.68000 0.16080 -0.24300
C 	C 	0.04220 0.77660 0.02410 -0.03900
N 	N 	0.01310 0.79990 0.00220 -0.27300
C 	C 	0.12180 0.62290 0.08730 -0.03900
N 	N 	0.13690 0.56930 0.09750 -0.26800
N 	N 	0.12760 0.67560 0.90520 -0.25400
C 	C 	0.15030 0.63820 0.89520 0.09500
H 	H 	0.14060 0.60150 0.86980 -0.01200
C 	C 	0.18700 0.65200 0.92080 -0.16400
H 	H 	0.20290 0.62150 0.91540 0.08500
C 	C 	0.20210 0.70800 0.95460 0.09900
C 	C 	0.17780 0.75000 0.96330 -0.16000
H 	H 	0.18620 0.78870 0.98680 0.09100
C 	C 	0.14110 0.73100 0.93550 0.09600
H 	H 	0.12390 0.76040 0.93860 -0.01400
C 	C 	0.24060 0.72400 0.98350 -0.04600
H 	H 	0.25580 0.69220 0.97800 0.04700
N 	N 	0.05510 0.76490 0.84250 -0.25000
C 	C 	0.04810 0.81390 0.86920 0.07100
H 	H 	0.04430 0.79960 0.89720 -0.02000
C 	C 	0.04640 0.88440 0.85730 -0.13700
H 	H 	0.04090 0.91760 0.87680 0.06400
C 	C 	0.05240 0.90750 0.81760 0.07300
C 	C 	0.05150 0.85690 0.78340 -0.13800
H 	H 	0.04910 0.86900 0.75030 0.07200
C 	C 	0.05430 0.78820 0.79910 0.07800
H 	H 	0.05580 0.75390 0.77670 -0.01400
C 	C 	0.05140 0.98200 0.80600 0.00300
H 	H 	0.04860 0.01470 0.82830 0.01500
N 	N 	0.06270 0.22750 0.74060 -0.25800
C 	C 	0.06170 0.17740 0.70800 0.09100
H 	H 	0.06270 0.19150 0.67760 -0.02100
C 	C 	0.05930 0.10630 0.71550 -0.18600
H 	H 	0.05960 0.07300 0.69160 0.07600
C 	C 	0.05650 0.08430 0.75830 0.14300
C 	C 	0.04680 0.13640 0.78200 -0.18300
H 	H 	0.03620 0.12440 0.80310 0.08900
C 	C 	0.05250 0.20590 0.77500 0.09400
H 	H 	0.04900 0.24030 0.79540 -0.02100
C 	C 	0.05430 0.00800 0.76500 -0.17200
H 	H 	0.05490 0.97630 0.74030 0.08700
N 	N 	0.13110 0.66620 0.27780 -0.25300
C 	C 	0.15040 0.71700 0.27100 0.06400
H 	H 	0.13740 0.75320 0.24560 -0.00600
C 	C 	0.18870 0.71900 0.29900 -0.12100
H 	H 	0.20140 0.75870 0.29620 0.06000
C 	C 	0.18880 0.61400 0.34200 -0.11100
H 	H 	0.20120 0.57810 0.36720 0.06700
C 	C 	0.15070 0.61900 0.31490 0.05800
H 	H 	0.13740 0.58550 0.32330 -0.00300
C 	C 	0.20860 0.66400 0.33190 0.12800
C 	C 	0.25280 0.65700 0.36400 -0.09700
H 	H 	0.26440 0.64820 0.40080 0.05400
N 	N 	0.39090 0.66830 0.42320 -0.27400
C 	C 	0.37170 0.65600 0.44780 0.07300
H 	H 	0.38510 0.65020 0.48500 -0.02700
C 	C 	0.33340 0.65200 0.42220 -0.15500
H 	H 	0.32130 0.64170 0.44160 0.07700
C 	C 	0.31310 0.66300 0.36880 0.08600
C 	C 	0.33270 0.66500 0.34220 -0.15500
H 	H 	0.32000 0.66310 0.30470 0.07000
C 	C 	0.37090 0.67100 0.37030 0.06600
H 	H 	0.38370 0.67750 0.35130 -0.02300
C 	C 	0.27200 0.66100 0.34500 -0.07400
H 	H 	0.25850 0.66360 0.30770 0.04200
N 	N 	0.07460 0.65640 0.95070 -0.22200
N 	N 	0.07660 0.53720 0.88850 -0.23900
C 	C 	0.15000 0.62900 0.26000 0.03100
C 	C 	0.18800 0.63500 0.28200 -0.09900
C 	C 	0.18920 0.68800 0.35570 -0.08600
C 	C 	0.15090 0.69100 0.32700 0.03100
H 	H 	0.13680 0.59800 0.23120 -0.01000
H 	H 	0.19980 0.61840 0.26370 0.04300
H 	H 	0.20210 0.70280 0.39150 0.05500
H 	H 	0.13820 0.71200 0.34270 0.01200
Mn	Mn	0.50000 -0.00000 0.50000 1.23800
Mn	Mn	-0.00000 0.50000 0.50000 1.24100
Mn	Mn	0.50000 0.00000 -0.00000 1.23100
Mn	Mn	0.00000 0.50000 -0.00000 1.23400
