data_crystal

_cell_length_a 12.59840
_cell_length_b 14.17770
_cell_length_c 14.17770
_cell_angle_alpha 98.68030
_cell_angle_beta  98.25550
_cell_angle_gamma 98.25550

_symmetry_space_group_name_	'P 1'
_symmetry_space_group_name_H-M	'P 1'

loop_
_symmetry_equiv_pos_as_xyz
  x,y,z

loop_
_atom_site_label
_atom_site_type_symbol
_atom_site_fract_x
_atom_site_fract_y
_atom_site_fract_z
_atom_site_charge
Cd	Cd	0.42300 0.30505 0.40134 1.20700
Cd	Cd	0.07700 0.59866 0.69495 1.20700
Cd	Cd	0.57700 0.69495 0.59866 1.20600
Cd	Cd	0.92300 0.40134 0.30505 1.20600
H 	H 	0.62400 0.15580 0.62760 0.06700
H 	H 	0.69390 0.05830 0.74990 0.06100
H 	H 	0.83990 0.01420 0.83760 0.04800
H 	H 	0.01470 0.07340 0.82080 0.04200
H 	H 	0.04590 0.17380 0.71340 0.05300
H 	H 	0.97430 0.25940 0.58340 0.05800
H 	H 	0.34610 0.10840 0.46860 -0.00800
H 	H 	0.20110 0.00980 0.50520 0.11900
H 	H 	0.00720 0.17930 0.39690 0.10900
H 	H 	0.15740 0.27690 0.36850 -0.01700
H 	H 	0.58850 0.17910 0.30030 0.00200
H 	H 	0.60250 0.07200 0.16600 0.11100
H 	H 	0.30550 0.10380 0.04820 0.10500
H 	H 	0.30070 0.21110 0.18490 -0.01300
H 	H 	0.87600 0.37240 0.84420 0.06800
H 	H 	0.80610 0.25010 0.94170 0.06300
H 	H 	0.66010 0.16240 0.98580 0.04500
H 	H 	0.48530 0.17920 0.92660 0.04700
H 	H 	0.45410 0.28660 0.82620 0.05400
H 	H 	0.52570 0.41660 0.74060 0.05700
H 	H 	0.15390 0.53140 0.89160 -0.00900
H 	H 	0.29890 0.49480 0.99020 0.11900
H 	H 	0.49280 0.60310 0.82070 0.11000
H 	H 	0.34260 0.63150 0.72310 -0.01800
H 	H 	0.91150 0.69970 0.82090 0.00200
H 	H 	0.89750 0.83400 0.92800 0.11000
H 	H 	0.19450 0.95180 0.89620 0.10400
H 	H 	0.19930 0.81510 0.78890 -0.01300
H 	H 	0.37600 0.84420 0.37240 0.06700
H 	H 	0.30610 0.94170 0.25010 0.06100
H 	H 	0.16010 0.98580 0.16240 0.04800
H 	H 	0.98530 0.92660 0.17920 0.04200
H 	H 	0.95410 0.82620 0.28660 0.05300
H 	H 	0.02570 0.74060 0.41660 0.05800
H 	H 	0.65390 0.89160 0.53140 -0.00800
H 	H 	0.79890 0.99020 0.49480 0.11900
H 	H 	0.99280 0.82070 0.60310 0.10900
H 	H 	0.84260 0.72310 0.63150 -0.01700
H 	H 	0.41150 0.82090 0.69970 0.00200
H 	H 	0.39750 0.92800 0.83400 0.11100
H 	H 	0.69450 0.89620 0.95180 0.10500
H 	H 	0.69930 0.78890 0.81510 -0.01300
H 	H 	0.12400 0.62760 0.15580 0.06800
H 	H 	0.19390 0.74990 0.05830 0.06300
H 	H 	0.33990 0.83760 0.01420 0.04500
H 	H 	0.51470 0.82080 0.07340 0.04700
H 	H 	0.54590 0.71340 0.17380 0.05400
H 	H 	0.47430 0.58340 0.25940 0.05700
H 	H 	0.84610 0.46860 0.10840 -0.00900
H 	H 	0.70110 0.50520 0.00980 0.11900
H 	H 	0.50720 0.39690 0.17930 0.11000
H 	H 	0.65740 0.36850 0.27690 -0.01800
H 	H 	0.08850 0.30030 0.17910 0.00200
H 	H 	0.10250 0.16600 0.07200 0.11000
H 	H 	0.80550 0.04820 0.10380 0.10400
H 	H 	0.80070 0.18490 0.21110 -0.01300
C 	C 	0.61060 0.25462 0.49178 0.30000
C 	C 	0.71000 0.22697 0.54665 -0.02900
C 	C 	0.69450 0.17372 0.61668 -0.06200
C 	C 	0.78140 0.14423 0.67437 0.03100
C 	C 	0.76420 0.08160 0.74160 -0.07300
C 	C 	0.85120 0.05600 0.79400 -0.02600
C 	C 	0.95630 0.09110 0.78350 -0.02100
C 	C 	0.97480 0.15090 0.71970 -0.06700
C 	C 	0.88790 0.17917 0.66283 0.02500
C 	C 	0.90360 0.23612 0.59068 -0.05900
C 	C 	0.81950 0.25840 0.53184 -0.03400
C 	C 	0.84510 0.30240 0.44580 0.29500
C 	C 	0.27690 0.12410 0.45570 0.10500
C 	C 	0.19030 0.06340 0.47680 -0.20800
C 	C 	0.08840 0.08520 0.45440 0.18600
C 	C 	0.07620 0.16420 0.41340 -0.21500
C 	C 	0.16680 0.22260 0.39620 0.11100
C 	C 	0.53070 0.16370 0.24890 0.11000
C 	C 	0.53980 0.09910 0.16830 -0.20500
C 	C 	0.45560 0.07569 0.09231 0.17700
C 	C 	0.36440 0.11820 0.09880 -0.20900
C 	C 	0.36210 0.18220 0.18140 0.11200
C 	C 	0.88940 0.50822 0.74538 0.30000
C 	C 	0.79000 0.45335 0.77303 -0.02800
C 	C 	0.80550 0.38332 0.82628 -0.06400
C 	C 	0.71860 0.32563 0.85577 0.03300
C 	C 	0.73580 0.25840 0.91840 -0.07700
C 	C 	0.64880 0.20600 0.94400 -0.02000
C 	C 	0.54370 0.21650 0.90890 -0.03000
C 	C 	0.52520 0.28030 0.84910 -0.06600
C 	C 	0.61210 0.33717 0.82083 0.02300
C 	C 	0.59640 0.40932 0.76388 -0.05800
C 	C 	0.68050 0.46816 0.74160 -0.03500
C 	C 	0.65490 0.55420 0.69760 0.29500
C 	C 	0.22310 0.54430 0.87590 0.10600
C 	C 	0.30970 0.52320 0.93660 -0.20900
C 	C 	0.41160 0.54560 0.91480 0.18800
C 	C 	0.42380 0.58660 0.83580 -0.21600
C 	C 	0.33320 0.60380 0.77740 0.11200
C 	C 	0.96930 0.75110 0.83630 0.11000
C 	C 	0.96020 0.83170 0.90090 -0.20300
C 	C 	0.04440 0.90769 0.92431 0.17600
C 	C 	0.13560 0.90120 0.88180 -0.20800
C 	C 	0.13790 0.81860 0.81780 0.11200
C 	C 	0.38940 0.74538 0.50822 0.30000
C 	C 	0.29000 0.77303 0.45335 -0.02900
C 	C 	0.30550 0.82628 0.38332 -0.06200
C 	C 	0.21860 0.85577 0.32563 0.03100
C 	C 	0.23580 0.91840 0.25840 -0.07300
C 	C 	0.14880 0.94400 0.20600 -0.02600
C 	C 	0.04370 0.90890 0.21650 -0.02100
C 	C 	0.02520 0.84910 0.28030 -0.06700
C 	C 	0.11210 0.82083 0.33717 0.02500
C 	C 	0.09640 0.76388 0.40932 -0.05900
C 	C 	0.18050 0.74160 0.46816 -0.03400
C 	C 	0.15490 0.69760 0.55420 0.29500
C 	C 	0.72310 0.87590 0.54430 0.10500
C 	C 	0.80970 0.93660 0.52320 -0.20800
C 	C 	0.91160 0.91480 0.54560 0.18600
C 	C 	0.92380 0.83580 0.58660 -0.21500
C 	C 	0.83320 0.77740 0.60380 0.11100
C 	C 	0.46930 0.83630 0.75110 0.11000
C 	C 	0.46020 0.90090 0.83170 -0.20500
C 	C 	0.54440 0.92431 0.90769 0.17700
C 	C 	0.63560 0.88180 0.90120 -0.20900
C 	C 	0.63790 0.81780 0.81860 0.11200
C 	C 	0.11060 0.49178 0.25462 0.30000
C 	C 	0.21000 0.54665 0.22697 -0.02800
C 	C 	0.19450 0.61668 0.17372 -0.06400
C 	C 	0.28140 0.67437 0.14423 0.03300
C 	C 	0.26420 0.74160 0.08160 -0.07700
C 	C 	0.35120 0.79400 0.05600 -0.02000
C 	C 	0.45630 0.78350 0.09110 -0.03000
C 	C 	0.47480 0.71970 0.15090 -0.06600
C 	C 	0.38790 0.66283 0.17917 0.02300
C 	C 	0.40360 0.59068 0.23612 -0.05800
C 	C 	0.31950 0.53184 0.25840 -0.03500
C 	C 	0.34510 0.44580 0.30240 0.29500
C 	C 	0.77690 0.45570 0.12410 0.10600
C 	C 	0.69030 0.47680 0.06340 -0.20900
C 	C 	0.58840 0.45440 0.08520 0.18800
C 	C 	0.57620 0.41340 0.16420 -0.21600
C 	C 	0.66680 0.39620 0.22260 0.11200
C 	C 	0.03070 0.24890 0.16370 0.11000
C 	C 	0.03980 0.16830 0.09910 -0.20300
C 	C 	0.95560 0.09231 0.07569 0.17600
C 	C 	0.86440 0.09880 0.11820 -0.20800
C 	C 	0.86210 0.18140 0.18220 0.11200
N 	N 	0.26700 0.20337 0.41787 -0.25500
N 	N 	0.44270 0.20495 0.25619 -0.23900
N 	N 	0.45460 0.01012 0.00464 -0.10900
N 	N 	0.99070 0.02735 0.47165 -0.10100
N 	N 	0.23300 0.58213 0.79663 -0.25500
N 	N 	0.05730 0.74381 0.79505 -0.24000
N 	N 	0.04540 0.99536 0.98988 -0.10900
N 	N 	0.50930 0.52835 0.97265 -0.10200
N 	N 	0.73300 0.79663 0.58213 -0.25500
N 	N 	0.55730 0.79505 0.74381 -0.23900
N 	N 	0.54540 0.98988 0.99536 -0.10900
N 	N 	0.00930 0.97265 0.52835 -0.10100
N 	N 	0.76700 0.41787 0.20337 -0.25500
N 	N 	0.94270 0.25619 0.20495 -0.24000
N 	N 	0.95460 0.00464 0.01012 -0.10900
N 	N 	0.49070 0.47165 0.02735 -0.10200
O 	O 	0.52454 0.19334 0.47556 -0.36800
O 	O 	0.61168 0.33516 0.46648 -0.37200
O 	O 	0.78263 0.27916 0.36670 -0.33900
O 	O 	0.93528 0.35955 0.45583 -0.40300
O 	O 	0.97546 0.52444 0.80666 -0.36700
O 	O 	0.88832 0.53352 0.66484 -0.37200
O 	O 	0.71737 0.63330 0.72084 -0.33900
O 	O 	0.56472 0.54417 0.64045 -0.40400
O 	O 	0.47546 0.80666 0.52444 -0.36800
O 	O 	0.38832 0.66484 0.53352 -0.37200
O 	O 	0.21737 0.72084 0.63330 -0.33900
O 	O 	0.06472 0.64045 0.54417 -0.40300
O 	O 	0.02454 0.47556 0.19334 -0.36700
O 	O 	0.11168 0.46648 0.33516 -0.37200
O 	O 	0.28263 0.36670 0.27916 -0.33900
O 	O 	0.43528 0.45583 0.35955 -0.40400
