data_crystal

_cell_length_a 55.05750
_cell_length_b 55.05750
_cell_length_c 55.05750
_cell_angle_alpha 90.00000
_cell_angle_beta  90.00000
_cell_angle_gamma 90.00000

_symmetry_space_group_name_	'P 1'
_symmetry_space_group_name_H-M	'P 1'

loop_
_symmetry_equiv_pos_as_xyz
  x,y,z

loop_
_atom_site_label
_atom_site_type_symbol
_atom_site_fract_x
_atom_site_fract_y
_atom_site_fract_z
_atom_site_charge
C 	C 	0.70391 0.67476 0.42305 0.07000
H 	H 	0.71110 0.66090 0.41570 0.03100
C 	C 	0.71373 0.68453 0.44306 -0.14900
H 	H 	0.72870 0.67830 0.44900 0.08800
O 	O 	0.65380 0.68188 0.38157 -0.19000
C 	C 	0.70391 0.17476 0.92305 0.07000
H 	H 	0.71110 0.16090 0.91570 0.03100
C 	C 	0.71373 0.18453 0.94306 -0.14900
H 	H 	0.72870 0.17830 0.94900 0.08800
O 	O 	0.65380 0.18188 0.88157 -0.19000
C 	C 	0.20391 0.67476 0.92305 0.07000
H 	H 	0.21110 0.66090 0.91570 0.03100
C 	C 	0.21373 0.68453 0.94306 -0.14900
H 	H 	0.22870 0.67830 0.94900 0.08800
O 	O 	0.15380 0.68188 0.88157 -0.19000
C 	C 	0.20391 0.17476 0.42305 0.07000
H 	H 	0.21110 0.16090 0.41570 0.03100
C 	C 	0.21373 0.18453 0.44306 -0.14900
H 	H 	0.22870 0.17830 0.44900 0.08800
O 	O 	0.15380 0.18188 0.38157 -0.19000
C 	C 	0.29609 0.32524 0.42305 0.07000
H 	H 	0.28890 0.33910 0.41570 0.03100
C 	C 	0.28627 0.31547 0.44306 -0.14900
H 	H 	0.27130 0.32170 0.44900 0.08800
O 	O 	0.34620 0.31812 0.38157 -0.19000
C 	C 	0.29609 0.82524 0.92305 0.07000
H 	H 	0.28890 0.83910 0.91570 0.03100
C 	C 	0.28627 0.81547 0.94306 -0.14900
H 	H 	0.27130 0.82170 0.94900 0.08800
O 	O 	0.34620 0.81812 0.88157 -0.19000
C 	C 	0.79609 0.32524 0.92305 0.07000
H 	H 	0.78890 0.33910 0.91570 0.03100
C 	C 	0.78627 0.31547 0.94306 -0.14900
H 	H 	0.77130 0.32170 0.94900 0.08800
O 	O 	0.84620 0.31812 0.88157 -0.19000
C 	C 	0.79609 0.82524 0.42305 0.07000
H 	H 	0.78890 0.83910 0.41570 0.03100
C 	C 	0.78627 0.81547 0.44306 -0.14900
H 	H 	0.77130 0.82170 0.44900 0.08800
O 	O 	0.84620 0.81812 0.38157 -0.19000
C 	C 	0.29609 0.67476 0.57695 0.07000
H 	H 	0.28890 0.66090 0.58430 0.03100
C 	C 	0.28627 0.68453 0.55694 -0.14900
H 	H 	0.27130 0.67830 0.55100 0.08800
O 	O 	0.34620 0.68188 0.61843 -0.19000
C 	C 	0.29609 0.17476 0.07695 0.07000
H 	H 	0.28890 0.16090 0.08430 0.03100
C 	C 	0.28627 0.18453 0.05694 -0.14900
H 	H 	0.27130 0.17830 0.05100 0.08800
O 	O 	0.34620 0.18188 0.11843 -0.19000
C 	C 	0.79609 0.67476 0.07695 0.07000
H 	H 	0.78890 0.66090 0.08430 0.03100
C 	C 	0.78627 0.68453 0.05694 -0.14900
H 	H 	0.77130 0.67830 0.05100 0.08800
O 	O 	0.84620 0.68188 0.11843 -0.19000
C 	C 	0.79609 0.17476 0.57695 0.07000
H 	H 	0.78890 0.16090 0.58430 0.03100
C 	C 	0.78627 0.18453 0.55694 -0.14900
H 	H 	0.77130 0.17830 0.55100 0.08800
O 	O 	0.84620 0.18188 0.61843 -0.19000
C 	C 	0.70391 0.32524 0.57695 0.07000
H 	H 	0.71110 0.33910 0.58430 0.03100
C 	C 	0.71373 0.31547 0.55694 -0.14900
H 	H 	0.72870 0.32170 0.55100 0.08800
O 	O 	0.65380 0.31812 0.61843 -0.19000
C 	C 	0.70391 0.82524 0.07695 0.07000
H 	H 	0.71110 0.83910 0.08430 0.03100
C 	C 	0.71373 0.81547 0.05694 -0.14900
H 	H 	0.72870 0.82170 0.05100 0.08800
O 	O 	0.65380 0.81812 0.11843 -0.19000
C 	C 	0.20391 0.32524 0.07695 0.07000
H 	H 	0.21110 0.33910 0.08430 0.03100
C 	C 	0.21373 0.31547 0.05694 -0.14900
H 	H 	0.22870 0.32170 0.05100 0.08800
O 	O 	0.15380 0.31812 0.11843 -0.19000
C 	C 	0.20391 0.82524 0.57695 0.07000
H 	H 	0.21110 0.83910 0.58430 0.03100
C 	C 	0.21373 0.81547 0.55694 -0.14900
H 	H 	0.22870 0.82170 0.55100 0.08800
O 	O 	0.15380 0.81812 0.61843 -0.19000
C 	C 	0.42305 0.70391 0.67476 0.07000
H 	H 	0.41570 0.71110 0.66090 0.03100
C 	C 	0.44306 0.71373 0.68453 -0.14900
H 	H 	0.44900 0.72870 0.67830 0.08800
O 	O 	0.38157 0.65380 0.68188 -0.19000
C 	C 	0.42305 0.20391 0.17476 0.07000
H 	H 	0.41570 0.21110 0.16090 0.03100
C 	C 	0.44306 0.21373 0.18453 -0.14900
H 	H 	0.44900 0.22870 0.17830 0.08800
O 	O 	0.38157 0.15380 0.18188 -0.19000
C 	C 	0.92305 0.70391 0.17476 0.07000
H 	H 	0.91570 0.71110 0.16090 0.03100
C 	C 	0.94306 0.71373 0.18453 -0.14900
H 	H 	0.94900 0.72870 0.17830 0.08800
O 	O 	0.88157 0.65380 0.18188 -0.19000
C 	C 	0.92305 0.20391 0.67476 0.07000
H 	H 	0.91570 0.21110 0.66090 0.03100
C 	C 	0.94306 0.21373 0.68453 -0.14900
H 	H 	0.94900 0.22870 0.67830 0.08800
O 	O 	0.88157 0.15380 0.68188 -0.19000
C 	C 	0.42305 0.29609 0.32524 0.07000
H 	H 	0.41570 0.28890 0.33910 0.03100
C 	C 	0.44306 0.28627 0.31547 -0.14900
H 	H 	0.44900 0.27130 0.32170 0.08800
O 	O 	0.38157 0.34620 0.31812 -0.19000
C 	C 	0.42305 0.79609 0.82524 0.07000
H 	H 	0.41570 0.78890 0.83910 0.03100
C 	C 	0.44306 0.78627 0.81547 -0.14900
H 	H 	0.44900 0.77130 0.82170 0.08800
O 	O 	0.38157 0.84620 0.81812 -0.19000
C 	C 	0.92305 0.29609 0.82524 0.07000
H 	H 	0.91570 0.28890 0.83910 0.03100
C 	C 	0.94306 0.28627 0.81547 -0.14900
H 	H 	0.94900 0.27130 0.82170 0.08800
O 	O 	0.88157 0.34620 0.81812 -0.19000
C 	C 	0.92305 0.79609 0.32524 0.07000
H 	H 	0.91570 0.78890 0.33910 0.03100
C 	C 	0.94306 0.78627 0.31547 -0.14900
H 	H 	0.94900 0.77130 0.32170 0.08800
O 	O 	0.88157 0.84620 0.31812 -0.19000
C 	C 	0.57695 0.29609 0.67476 0.07000
H 	H 	0.58430 0.28890 0.66090 0.03100
C 	C 	0.55694 0.28627 0.68453 -0.14900
H 	H 	0.55100 0.27130 0.67830 0.08800
O 	O 	0.61843 0.34620 0.68188 -0.19000
C 	C 	0.57695 0.79609 0.17476 0.07000
H 	H 	0.58430 0.78890 0.16090 0.03100
C 	C 	0.55694 0.78627 0.18453 -0.14900
H 	H 	0.55100 0.77130 0.17830 0.08800
O 	O 	0.61843 0.84620 0.18188 -0.19000
C 	C 	0.07695 0.29609 0.17476 0.07000
H 	H 	0.08430 0.28890 0.16090 0.03100
C 	C 	0.05694 0.28627 0.18453 -0.14900
H 	H 	0.05100 0.27130 0.17830 0.08800
O 	O 	0.11843 0.34620 0.18188 -0.19000
C 	C 	0.07695 0.79609 0.67476 0.07000
H 	H 	0.08430 0.78890 0.66090 0.03100
C 	C 	0.05694 0.78627 0.68453 -0.14900
H 	H 	0.05100 0.77130 0.67830 0.08800
O 	O 	0.11843 0.84620 0.68188 -0.19000
C 	C 	0.57695 0.70391 0.32524 0.07000
H 	H 	0.58430 0.71110 0.33910 0.03100
C 	C 	0.55694 0.71373 0.31547 -0.14900
H 	H 	0.55100 0.72870 0.32170 0.08800
O 	O 	0.61843 0.65380 0.31812 -0.19000
C 	C 	0.57695 0.20391 0.82524 0.07000
H 	H 	0.58430 0.21110 0.83910 0.03100
C 	C 	0.55694 0.21373 0.81547 -0.14900
H 	H 	0.55100 0.22870 0.82170 0.08800
O 	O 	0.61843 0.15380 0.81812 -0.19000
C 	C 	0.07695 0.70391 0.82524 0.07000
H 	H 	0.08430 0.71110 0.83910 0.03100
C 	C 	0.05694 0.71373 0.81547 -0.14900
H 	H 	0.05100 0.72870 0.82170 0.08800
O 	O 	0.11843 0.65380 0.81812 -0.19000
C 	C 	0.07695 0.20391 0.32524 0.07000
H 	H 	0.08430 0.21110 0.33910 0.03100
C 	C 	0.05694 0.21373 0.31547 -0.14900
H 	H 	0.05100 0.22870 0.32170 0.08800
O 	O 	0.11843 0.15380 0.31812 -0.19000
C 	C 	0.67476 0.42305 0.70391 0.07000
H 	H 	0.66090 0.41570 0.71110 0.03100
C 	C 	0.68453 0.44306 0.71373 -0.14900
H 	H 	0.67830 0.44900 0.72870 0.08800
O 	O 	0.68188 0.38157 0.65380 -0.19000
C 	C 	0.67476 0.92305 0.20391 0.07000
H 	H 	0.66090 0.91570 0.21110 0.03100
C 	C 	0.68453 0.94306 0.21373 -0.14900
H 	H 	0.67830 0.94900 0.22870 0.08800
O 	O 	0.68188 0.88157 0.15380 -0.19000
C 	C 	0.17476 0.42305 0.20391 0.07000
H 	H 	0.16090 0.41570 0.21110 0.03100
C 	C 	0.18453 0.44306 0.21373 -0.14900
H 	H 	0.17830 0.44900 0.22870 0.08800
O 	O 	0.18188 0.38157 0.15380 -0.19000
C 	C 	0.17476 0.92305 0.70391 0.07000
H 	H 	0.16090 0.91570 0.71110 0.03100
C 	C 	0.18453 0.94306 0.71373 -0.14900
H 	H 	0.17830 0.94900 0.72870 0.08800
O 	O 	0.18188 0.88157 0.65380 -0.19000
C 	C 	0.32524 0.42305 0.29609 0.07000
H 	H 	0.33910 0.41570 0.28890 0.03100
C 	C 	0.31547 0.44306 0.28627 -0.14900
H 	H 	0.32170 0.44900 0.27130 0.08800
O 	O 	0.31812 0.38157 0.34620 -0.19000
C 	C 	0.32524 0.92305 0.79609 0.07000
H 	H 	0.33910 0.91570 0.78890 0.03100
C 	C 	0.31547 0.94306 0.78627 -0.14900
H 	H 	0.32170 0.94900 0.77130 0.08800
O 	O 	0.31812 0.88157 0.84620 -0.19000
C 	C 	0.82524 0.42305 0.79609 0.07000
H 	H 	0.83910 0.41570 0.78890 0.03100
C 	C 	0.81547 0.44306 0.78627 -0.14900
H 	H 	0.82170 0.44900 0.77130 0.08800
O 	O 	0.81812 0.38157 0.84620 -0.19000
C 	C 	0.82524 0.92305 0.29609 0.07000
H 	H 	0.83910 0.91570 0.28890 0.03100
C 	C 	0.81547 0.94306 0.28627 -0.14900
H 	H 	0.82170 0.94900 0.27130 0.08800
O 	O 	0.81812 0.88157 0.34620 -0.19000
C 	C 	0.67476 0.57695 0.29609 0.07000
H 	H 	0.66090 0.58430 0.28890 0.03100
C 	C 	0.68453 0.55694 0.28627 -0.14900
H 	H 	0.67830 0.55100 0.27130 0.08800
O 	O 	0.68188 0.61843 0.34620 -0.19000
C 	C 	0.67476 0.07695 0.79609 0.07000
H 	H 	0.66090 0.08430 0.78890 0.03100
C 	C 	0.68453 0.05694 0.78627 -0.14900
H 	H 	0.67830 0.05100 0.77130 0.08800
O 	O 	0.68188 0.11843 0.84620 -0.19000
C 	C 	0.17476 0.57695 0.79609 0.07000
H 	H 	0.16090 0.58430 0.78890 0.03100
C 	C 	0.18453 0.55694 0.78627 -0.14900
H 	H 	0.17830 0.55100 0.77130 0.08800
O 	O 	0.18188 0.61843 0.84620 -0.19000
C 	C 	0.17476 0.07695 0.29609 0.07000
H 	H 	0.16090 0.08430 0.28890 0.03100
C 	C 	0.18453 0.05694 0.28627 -0.14900
H 	H 	0.17830 0.05100 0.27130 0.08800
O 	O 	0.18188 0.11843 0.34620 -0.19000
C 	C 	0.32524 0.57695 0.70391 0.07000
H 	H 	0.33910 0.58430 0.71110 0.03100
C 	C 	0.31547 0.55694 0.71373 -0.14900
H 	H 	0.32170 0.55100 0.72870 0.08800
O 	O 	0.31812 0.61843 0.65380 -0.19000
C 	C 	0.32524 0.07695 0.20391 0.07000
H 	H 	0.33910 0.08430 0.21110 0.03100
C 	C 	0.31547 0.05694 0.21373 -0.14900
H 	H 	0.32170 0.05100 0.22870 0.08800
O 	O 	0.31812 0.11843 0.15380 -0.19000
C 	C 	0.82524 0.57695 0.20391 0.07000
H 	H 	0.83910 0.58430 0.21110 0.03100
C 	C 	0.81547 0.55694 0.21373 -0.14900
H 	H 	0.82170 0.55100 0.22870 0.08800
O 	O 	0.81812 0.61843 0.15380 -0.19000
C 	C 	0.82524 0.07695 0.70391 0.07000
H 	H 	0.83910 0.08430 0.71110 0.03100
C 	C 	0.81547 0.05694 0.71373 -0.14900
H 	H 	0.82170 0.05100 0.72870 0.08800
O 	O 	0.81812 0.11843 0.65380 -0.19000
C 	C 	0.67476 0.70391 0.57695 0.07000
H 	H 	0.66090 0.71110 0.58430 0.03100
C 	C 	0.68453 0.71373 0.55694 -0.14900
H 	H 	0.67830 0.72870 0.55100 0.08800
O 	O 	0.68188 0.65380 0.61843 -0.19000
C 	C 	0.67476 0.20391 0.07695 0.07000
H 	H 	0.66090 0.21110 0.08430 0.03100
C 	C 	0.68453 0.21373 0.05694 -0.14900
H 	H 	0.67830 0.22870 0.05100 0.08800
O 	O 	0.68188 0.15380 0.11843 -0.19000
C 	C 	0.17476 0.70391 0.07695 0.07000
H 	H 	0.16090 0.71110 0.08430 0.03100
C 	C 	0.18453 0.71373 0.05694 -0.14900
H 	H 	0.17830 0.72870 0.05100 0.08800
O 	O 	0.18188 0.65380 0.11843 -0.19000
C 	C 	0.17476 0.20391 0.57695 0.07000
H 	H 	0.16090 0.21110 0.58430 0.03100
C 	C 	0.18453 0.21373 0.55694 -0.14900
H 	H 	0.17830 0.22870 0.55100 0.08800
O 	O 	0.18188 0.15380 0.61843 -0.19000
C 	C 	0.32524 0.29609 0.57695 0.07000
H 	H 	0.33910 0.28890 0.58430 0.03100
C 	C 	0.31547 0.28627 0.55694 -0.14900
H 	H 	0.32170 0.27130 0.55100 0.08800
O 	O 	0.31812 0.34620 0.61843 -0.19000
C 	C 	0.32524 0.79609 0.07695 0.07000
H 	H 	0.33910 0.78890 0.08430 0.03100
C 	C 	0.31547 0.78627 0.05694 -0.14900
H 	H 	0.32170 0.77130 0.05100 0.08800
O 	O 	0.31812 0.84620 0.11843 -0.19000
C 	C 	0.82524 0.29609 0.07695 0.07000
H 	H 	0.83910 0.28890 0.08430 0.03100
C 	C 	0.81547 0.28627 0.05694 -0.14900
H 	H 	0.82170 0.27130 0.05100 0.08800
O 	O 	0.81812 0.34620 0.11843 -0.19000
C 	C 	0.82524 0.79609 0.57695 0.07000
H 	H 	0.83910 0.78890 0.58430 0.03100
C 	C 	0.81547 0.78627 0.55694 -0.14900
H 	H 	0.82170 0.77130 0.55100 0.08800
O 	O 	0.81812 0.84620 0.61843 -0.19000
C 	C 	0.67476 0.29609 0.42305 0.07000
H 	H 	0.66090 0.28890 0.41570 0.03100
C 	C 	0.68453 0.28627 0.44306 -0.14900
H 	H 	0.67830 0.27130 0.44900 0.08800
O 	O 	0.68188 0.34620 0.38157 -0.19000
C 	C 	0.67476 0.79609 0.92305 0.07000
H 	H 	0.66090 0.78890 0.91570 0.03100
C 	C 	0.68453 0.78627 0.94306 -0.14900
H 	H 	0.67830 0.77130 0.94900 0.08900
O 	O 	0.68188 0.84620 0.88157 -0.18900
C 	C 	0.17476 0.29609 0.92305 0.07100
H 	H 	0.16090 0.28890 0.91570 0.03200
C 	C 	0.18453 0.28627 0.94306 -0.14800
H 	H 	0.17830 0.27130 0.94900 0.08900
O 	O 	0.18188 0.34620 0.88157 -0.18900
C 	C 	0.17476 0.79609 0.42305 0.07100
H 	H 	0.16090 0.78890 0.41570 0.03200
C 	C 	0.18453 0.78627 0.44306 -0.14800
H 	H 	0.17830 0.77130 0.44900 0.08900
O 	O 	0.18188 0.84620 0.38157 -0.18900
C 	C 	0.32524 0.70391 0.42305 0.07100
H 	H 	0.33910 0.71110 0.41570 0.03200
C 	C 	0.31547 0.71373 0.44306 -0.14800
H 	H 	0.32170 0.72870 0.44900 0.08900
O 	O 	0.31812 0.65380 0.38157 -0.18900
C 	C 	0.32524 0.20391 0.92305 0.07100
H 	H 	0.33910 0.21110 0.91570 0.03200
C 	C 	0.31547 0.21373 0.94306 -0.14800
H 	H 	0.32170 0.22870 0.94900 0.08900
O 	O 	0.31812 0.15380 0.88157 -0.18900
C 	C 	0.82524 0.70391 0.92305 0.07100
H 	H 	0.83910 0.71110 0.91570 0.03200
C 	C 	0.81547 0.71373 0.94306 -0.14800
H 	H 	0.82170 0.72870 0.94900 0.08900
O 	O 	0.81812 0.65380 0.88157 -0.18900
C 	C 	0.82524 0.20391 0.42305 0.07100
H 	H 	0.83910 0.21110 0.41570 0.03200
C 	C 	0.81547 0.21373 0.44306 -0.14800
H 	H 	0.82170 0.22870 0.44900 0.08900
O 	O 	0.81812 0.15380 0.38157 -0.18900
C 	C 	0.70391 0.42305 0.32524 0.07100
H 	H 	0.71110 0.41570 0.33910 0.03200
C 	C 	0.71373 0.44306 0.31547 -0.14800
H 	H 	0.72870 0.44900 0.32170 0.08900
O 	O 	0.65380 0.38157 0.31812 -0.18900
C 	C 	0.70391 0.92305 0.82524 0.07100
H 	H 	0.71110 0.91570 0.83910 0.03200
C 	C 	0.71373 0.94306 0.81547 -0.14800
H 	H 	0.72870 0.94900 0.82170 0.08900
O 	O 	0.65380 0.88157 0.81812 -0.18900
C 	C 	0.20391 0.42305 0.82524 0.07100
H 	H 	0.21110 0.41570 0.83910 0.03200
C 	C 	0.21373 0.44306 0.81547 -0.14800
H 	H 	0.22870 0.44900 0.82170 0.08900
O 	O 	0.15380 0.38157 0.81812 -0.18900
C 	C 	0.20391 0.92305 0.32524 0.07100
H 	H 	0.21110 0.91570 0.33910 0.03200
C 	C 	0.21373 0.94306 0.31547 -0.14800
H 	H 	0.22870 0.94900 0.32170 0.08900
O 	O 	0.15380 0.88157 0.31812 -0.18900
C 	C 	0.29609 0.42305 0.67476 0.07100
H 	H 	0.28890 0.41570 0.66090 0.03200
C 	C 	0.28627 0.44306 0.68453 -0.14800
H 	H 	0.27130 0.44900 0.67830 0.08900
O 	O 	0.34620 0.38157 0.68188 -0.18900
C 	C 	0.29609 0.92305 0.17476 0.07100
H 	H 	0.28890 0.91570 0.16090 0.03200
C 	C 	0.28627 0.94306 0.18453 -0.14800
H 	H 	0.27130 0.94900 0.17830 0.08900
O 	O 	0.34620 0.88157 0.18188 -0.18900
C 	C 	0.79609 0.42305 0.17476 0.07100
H 	H 	0.78890 0.41570 0.16090 0.03200
C 	C 	0.78627 0.44306 0.18453 -0.14800
H 	H 	0.77130 0.44900 0.17830 0.08900
O 	O 	0.84620 0.38157 0.18188 -0.18900
C 	C 	0.79609 0.92305 0.67476 0.07100
H 	H 	0.78890 0.91570 0.66090 0.03200
C 	C 	0.78627 0.94306 0.68453 -0.14800
H 	H 	0.77130 0.94900 0.67830 0.08900
O 	O 	0.84620 0.88157 0.68188 -0.18900
C 	C 	0.29609 0.57695 0.32524 0.07100
H 	H 	0.28890 0.58430 0.33910 0.03200
C 	C 	0.28627 0.55694 0.31547 -0.14800
H 	H 	0.27130 0.55100 0.32170 0.08900
O 	O 	0.34620 0.61843 0.31812 -0.18900
C 	C 	0.29609 0.07695 0.82524 0.07100
H 	H 	0.28890 0.08430 0.83910 0.03200
C 	C 	0.28627 0.05694 0.81547 -0.14800
H 	H 	0.27130 0.05100 0.82170 0.08900
O 	O 	0.34620 0.11843 0.81812 -0.18900
C 	C 	0.79609 0.57695 0.82524 0.07100
H 	H 	0.78890 0.58430 0.83910 0.03200
C 	C 	0.78627 0.55694 0.81547 -0.14800
H 	H 	0.77130 0.55100 0.82170 0.08900
O 	O 	0.84620 0.61843 0.81812 -0.18900
C 	C 	0.79609 0.07695 0.32524 0.07100
H 	H 	0.78890 0.08430 0.33910 0.03200
C 	C 	0.78627 0.05694 0.31547 -0.14800
H 	H 	0.77130 0.05100 0.32170 0.08900
O 	O 	0.84620 0.11843 0.31812 -0.18900
C 	C 	0.70391 0.57695 0.67476 0.07100
H 	H 	0.71110 0.58430 0.66090 0.03200
C 	C 	0.71373 0.55694 0.68453 -0.14800
H 	H 	0.72870 0.55100 0.67830 0.08900
O 	O 	0.65380 0.61843 0.68188 -0.18900
C 	C 	0.70391 0.07695 0.17476 0.07100
H 	H 	0.71110 0.08430 0.16090 0.03200
C 	C 	0.71373 0.05694 0.18453 -0.14800
H 	H 	0.72870 0.05100 0.17830 0.08900
O 	O 	0.65380 0.11843 0.18188 -0.18900
C 	C 	0.20391 0.57695 0.17476 0.07100
H 	H 	0.21110 0.58430 0.16090 0.03200
C 	C 	0.21373 0.55694 0.18453 -0.14800
H 	H 	0.22870 0.55100 0.17830 0.08900
O 	O 	0.15380 0.61843 0.18188 -0.18900
C 	C 	0.20391 0.07695 0.67476 0.07100
H 	H 	0.21110 0.08430 0.66090 0.03200
C 	C 	0.21373 0.05694 0.68453 -0.14800
H 	H 	0.22870 0.05100 0.67830 0.08900
O 	O 	0.15380 0.11843 0.68188 -0.18900
C 	C 	0.42305 0.67476 0.29609 0.07100
H 	H 	0.41570 0.66090 0.28890 0.03200
C 	C 	0.44306 0.68453 0.28627 -0.14800
H 	H 	0.44900 0.67830 0.27130 0.08900
O 	O 	0.38157 0.68188 0.34620 -0.18900
C 	C 	0.42305 0.17476 0.79609 0.07100
H 	H 	0.41570 0.16090 0.78890 0.03200
C 	C 	0.44306 0.18453 0.78627 -0.14800
H 	H 	0.44900 0.17830 0.77130 0.08900
O 	O 	0.38157 0.18188 0.84620 -0.18900
C 	C 	0.92305 0.67476 0.79609 0.07100
H 	H 	0.91570 0.66090 0.78890 0.03200
C 	C 	0.94306 0.68453 0.78627 -0.14800
H 	H 	0.94900 0.67830 0.77130 0.08900
O 	O 	0.88157 0.68188 0.84620 -0.18900
C 	C 	0.92305 0.17476 0.29609 0.07100
H 	H 	0.91570 0.16090 0.28890 0.03200
C 	C 	0.94306 0.18453 0.28627 -0.14800
H 	H 	0.94900 0.17830 0.27130 0.08900
O 	O 	0.88157 0.18188 0.34620 -0.18900
C 	C 	0.42305 0.32524 0.70391 0.07100
H 	H 	0.41570 0.33910 0.71110 0.03200
C 	C 	0.44306 0.31547 0.71373 -0.14800
H 	H 	0.44900 0.32170 0.72870 0.08900
O 	O 	0.38157 0.31812 0.65380 -0.18900
C 	C 	0.42305 0.82524 0.20391 0.07100
H 	H 	0.41570 0.83910 0.21110 0.03200
C 	C 	0.44306 0.81547 0.21373 -0.14800
H 	H 	0.44900 0.82170 0.22870 0.08900
O 	O 	0.38157 0.81812 0.15380 -0.18900
C 	C 	0.92305 0.32524 0.20391 0.07100
H 	H 	0.91570 0.33910 0.21110 0.03200
C 	C 	0.94306 0.31547 0.21373 -0.14800
H 	H 	0.94900 0.32170 0.22870 0.08900
O 	O 	0.88157 0.31812 0.15380 -0.18900
C 	C 	0.92305 0.82524 0.70391 0.07100
H 	H 	0.91570 0.83910 0.71110 0.03200
C 	C 	0.94306 0.81547 0.71373 -0.14800
H 	H 	0.94900 0.82170 0.72870 0.08900
O 	O 	0.88157 0.81812 0.65380 -0.18900
C 	C 	0.57695 0.67476 0.70391 0.07100
H 	H 	0.58430 0.66090 0.71110 0.03200
C 	C 	0.55694 0.68453 0.71373 -0.14800
H 	H 	0.55100 0.67830 0.72870 0.08900
O 	O 	0.61843 0.68188 0.65380 -0.18900
C 	C 	0.57695 0.17476 0.20391 0.07100
H 	H 	0.58430 0.16090 0.21110 0.03200
C 	C 	0.55694 0.18453 0.21373 -0.14800
H 	H 	0.55100 0.17830 0.22870 0.08900
O 	O 	0.61843 0.18188 0.15380 -0.18900
C 	C 	0.07695 0.67476 0.20391 0.07100
H 	H 	0.08430 0.66090 0.21110 0.03200
C 	C 	0.05694 0.68453 0.21373 -0.14800
H 	H 	0.05100 0.67830 0.22870 0.08900
O 	O 	0.11843 0.68188 0.15380 -0.18900
C 	C 	0.07695 0.17476 0.70391 0.07100
H 	H 	0.08430 0.16090 0.71110 0.03200
C 	C 	0.05694 0.18453 0.71373 -0.14800
H 	H 	0.05100 0.17830 0.72870 0.08900
O 	O 	0.11843 0.18188 0.65380 -0.18900
C 	C 	0.57695 0.32524 0.29609 0.07100
H 	H 	0.58430 0.33910 0.28890 0.03200
C 	C 	0.55694 0.31547 0.28627 -0.14800
H 	H 	0.55100 0.32170 0.27130 0.08900
O 	O 	0.61843 0.31812 0.34620 -0.18900
C 	C 	0.57695 0.82524 0.79609 0.07100
H 	H 	0.58430 0.83910 0.78890 0.03200
C 	C 	0.55694 0.81547 0.78627 -0.14800
H 	H 	0.55100 0.82170 0.77130 0.08900
O 	O 	0.61843 0.81812 0.84620 -0.18900
C 	C 	0.07695 0.32524 0.79609 0.07100
H 	H 	0.08430 0.33910 0.78890 0.03200
C 	C 	0.05694 0.31547 0.78627 -0.14800
H 	H 	0.05100 0.32170 0.77130 0.08900
O 	O 	0.11843 0.31812 0.84620 -0.18900
C 	C 	0.07695 0.82524 0.29609 0.07100
H 	H 	0.08430 0.83910 0.28890 0.03200
C 	C 	0.05694 0.81547 0.28627 -0.14800
H 	H 	0.05100 0.82170 0.27130 0.08900
O 	O 	0.11843 0.81812 0.34620 -0.18900
C 	C 	0.29609 0.32524 0.57695 0.07100
H 	H 	0.28890 0.33910 0.58430 0.03200
C 	C 	0.28627 0.31547 0.55694 -0.14800
H 	H 	0.27130 0.32170 0.55100 0.08900
O 	O 	0.34620 0.31812 0.61843 -0.18900
C 	C 	0.29609 0.82524 0.07695 0.07100
H 	H 	0.28890 0.83910 0.08430 0.03200
C 	C 	0.28627 0.81547 0.05694 -0.14800
H 	H 	0.27130 0.82170 0.05100 0.08900
O 	O 	0.34620 0.81812 0.11843 -0.18900
C 	C 	0.79609 0.32524 0.07695 0.07100
H 	H 	0.78890 0.33910 0.08430 0.03200
C 	C 	0.78627 0.31547 0.05694 -0.14800
H 	H 	0.77130 0.32170 0.05100 0.08900
O 	O 	0.84620 0.31812 0.11843 -0.18900
C 	C 	0.79609 0.82524 0.57695 0.07100
H 	H 	0.78890 0.83910 0.58430 0.03200
C 	C 	0.78627 0.81547 0.55694 -0.14800
H 	H 	0.77130 0.82170 0.55100 0.08900
O 	O 	0.84620 0.81812 0.61843 -0.18900
C 	C 	0.70391 0.67476 0.57695 0.07100
H 	H 	0.71110 0.66090 0.58430 0.03200
C 	C 	0.71373 0.68453 0.55694 -0.14800
H 	H 	0.72870 0.67830 0.55100 0.08900
O 	O 	0.65380 0.68188 0.61843 -0.18900
C 	C 	0.70391 0.17476 0.07695 0.07100
H 	H 	0.71110 0.16090 0.08430 0.03200
C 	C 	0.71373 0.18453 0.05694 -0.14800
H 	H 	0.72870 0.17830 0.05100 0.08900
O 	O 	0.65380 0.18188 0.11843 -0.18900
C 	C 	0.20391 0.67476 0.07695 0.07100
H 	H 	0.21110 0.66090 0.08430 0.03200
C 	C 	0.21373 0.68453 0.05694 -0.14800
H 	H 	0.22870 0.67830 0.05100 0.08900
O 	O 	0.15380 0.68188 0.11843 -0.18900
C 	C 	0.20391 0.17476 0.57695 0.07100
H 	H 	0.21110 0.16090 0.58430 0.03200
C 	C 	0.21373 0.18453 0.55694 -0.14800
H 	H 	0.22870 0.17830 0.55100 0.08900
O 	O 	0.15380 0.18188 0.61843 -0.18900
C 	C 	0.70391 0.32524 0.42305 0.07100
H 	H 	0.71110 0.33910 0.41570 0.03200
C 	C 	0.71373 0.31547 0.44306 -0.14800
H 	H 	0.72870 0.32170 0.44900 0.08900
O 	O 	0.65380 0.31812 0.38157 -0.18900
C 	C 	0.70391 0.82524 0.92305 0.07100
H 	H 	0.71110 0.83910 0.91570 0.03200
C 	C 	0.71373 0.81547 0.94306 -0.14800
H 	H 	0.72870 0.82170 0.94900 0.08900
O 	O 	0.65380 0.81812 0.88157 -0.18900
C 	C 	0.20391 0.32524 0.92305 0.07100
H 	H 	0.21110 0.33910 0.91570 0.03200
C 	C 	0.21373 0.31547 0.94306 -0.14800
H 	H 	0.22870 0.32170 0.94900 0.08900
O 	O 	0.15380 0.31812 0.88157 -0.18900
C 	C 	0.20391 0.82524 0.42305 0.07100
H 	H 	0.21110 0.83910 0.41570 0.03200
C 	C 	0.21373 0.81547 0.44306 -0.14800
H 	H 	0.22870 0.82170 0.44900 0.08900
O 	O 	0.15380 0.81812 0.38157 -0.18900
C 	C 	0.29609 0.67476 0.42305 0.07100
H 	H 	0.28890 0.66090 0.41570 0.03200
C 	C 	0.28627 0.68453 0.44306 -0.14800
H 	H 	0.27130 0.67830 0.44900 0.08900
O 	O 	0.34620 0.68188 0.38157 -0.18900
C 	C 	0.29609 0.17476 0.92305 0.07100
H 	H 	0.28890 0.16090 0.91570 0.03200
C 	C 	0.28627 0.18453 0.94306 -0.14800
H 	H 	0.27130 0.17830 0.94900 0.08900
O 	O 	0.34620 0.18188 0.88157 -0.18900
C 	C 	0.79609 0.67476 0.92305 0.07100
H 	H 	0.78890 0.66090 0.91570 0.03200
C 	C 	0.78627 0.68453 0.94306 -0.14800
H 	H 	0.77130 0.67830 0.94900 0.08900
O 	O 	0.84620 0.68188 0.88157 -0.18900
C 	C 	0.79609 0.17476 0.42305 0.07100
H 	H 	0.78890 0.16090 0.41570 0.03200
C 	C 	0.78627 0.18453 0.44306 -0.14800
H 	H 	0.77130 0.17830 0.44900 0.08900
O 	O 	0.84620 0.18188 0.38157 -0.18900
C 	C 	0.57695 0.29609 0.32524 0.07100
H 	H 	0.58430 0.28890 0.33910 0.03200
C 	C 	0.55694 0.28627 0.31547 -0.14800
H 	H 	0.55100 0.27130 0.32170 0.08900
O 	O 	0.61843 0.34620 0.31812 -0.18900
C 	C 	0.57695 0.79609 0.82524 0.07100
H 	H 	0.58430 0.78890 0.83910 0.03200
C 	C 	0.55694 0.78627 0.81547 -0.14800
H 	H 	0.55100 0.77130 0.82170 0.08900
O 	O 	0.61843 0.84620 0.81812 -0.18900
C 	C 	0.07695 0.29609 0.82524 0.07100
H 	H 	0.08430 0.28890 0.83910 0.03200
C 	C 	0.05694 0.28627 0.81547 -0.14800
H 	H 	0.05100 0.27130 0.82170 0.08900
O 	O 	0.11843 0.34620 0.81812 -0.18900
C 	C 	0.07695 0.79609 0.32524 0.07100
H 	H 	0.08430 0.78890 0.33910 0.03200
C 	C 	0.05694 0.78627 0.31547 -0.14800
H 	H 	0.05100 0.77130 0.32170 0.08900
O 	O 	0.11843 0.84620 0.31812 -0.18900
C 	C 	0.57695 0.70391 0.67476 0.07100
H 	H 	0.58430 0.71110 0.66090 0.03200
C 	C 	0.55694 0.71373 0.68453 -0.14800
H 	H 	0.55100 0.72870 0.67830 0.08900
O 	O 	0.61843 0.65380 0.68188 -0.18900
C 	C 	0.57695 0.20391 0.17476 0.07100
H 	H 	0.58430 0.21110 0.16090 0.03200
C 	C 	0.55694 0.21373 0.18453 -0.14800
H 	H 	0.55100 0.22870 0.17830 0.08900
O 	O 	0.61843 0.15380 0.18188 -0.18900
C 	C 	0.07695 0.70391 0.17476 0.07100
H 	H 	0.08430 0.71110 0.16090 0.03200
C 	C 	0.05694 0.71373 0.18453 -0.14800
H 	H 	0.05100 0.72870 0.17830 0.08900
O 	O 	0.11843 0.65380 0.18188 -0.18900
C 	C 	0.07695 0.20391 0.67476 0.07100
H 	H 	0.08430 0.21110 0.66090 0.03200
C 	C 	0.05694 0.21373 0.68453 -0.14800
H 	H 	0.05100 0.22870 0.67830 0.08900
O 	O 	0.11843 0.15380 0.68188 -0.18900
C 	C 	0.42305 0.70391 0.32524 0.07100
H 	H 	0.41570 0.71110 0.33910 0.03200
C 	C 	0.44306 0.71373 0.31547 -0.14800
H 	H 	0.44900 0.72870 0.32170 0.08900
O 	O 	0.38157 0.65380 0.31812 -0.18900
C 	C 	0.42305 0.20391 0.82524 0.07100
H 	H 	0.41570 0.21110 0.83910 0.03200
C 	C 	0.44306 0.21373 0.81547 -0.14800
H 	H 	0.44900 0.22870 0.82170 0.08900
O 	O 	0.38157 0.15380 0.81812 -0.18900
C 	C 	0.92305 0.70391 0.82524 0.07100
H 	H 	0.91570 0.71110 0.83910 0.03200
C 	C 	0.94306 0.71373 0.81547 -0.14800
H 	H 	0.94900 0.72870 0.82170 0.08900
O 	O 	0.88157 0.65380 0.81812 -0.18900
C 	C 	0.92305 0.20391 0.32524 0.07100
H 	H 	0.91570 0.21110 0.33910 0.03200
C 	C 	0.94306 0.21373 0.31547 -0.14800
H 	H 	0.94900 0.22870 0.32170 0.08900
O 	O 	0.88157 0.15380 0.31812 -0.18900
C 	C 	0.42305 0.29609 0.67476 0.07100
H 	H 	0.41570 0.28890 0.66090 0.03200
C 	C 	0.44306 0.28627 0.68453 -0.14800
H 	H 	0.44900 0.27130 0.67830 0.08900
O 	O 	0.38157 0.34620 0.68188 -0.18900
C 	C 	0.42305 0.79609 0.17476 0.07100
H 	H 	0.41570 0.78890 0.16090 0.03200
C 	C 	0.44306 0.78627 0.18453 -0.14800
H 	H 	0.44900 0.77130 0.17830 0.08900
O 	O 	0.38157 0.84620 0.18188 -0.18900
C 	C 	0.92305 0.29609 0.17476 0.07100
H 	H 	0.91570 0.28890 0.16090 0.03200
C 	C 	0.94306 0.28627 0.18453 -0.14800
H 	H 	0.94900 0.27130 0.17830 0.08900
O 	O 	0.88157 0.34620 0.18188 -0.18900
C 	C 	0.92305 0.79609 0.67476 0.07100
H 	H 	0.91570 0.78890 0.66090 0.03200
C 	C 	0.94306 0.78627 0.68453 -0.14800
H 	H 	0.94900 0.77130 0.67830 0.08900
O 	O 	0.88157 0.84620 0.68188 -0.18900
C 	C 	0.32524 0.57695 0.29609 0.07100
H 	H 	0.33910 0.58430 0.28890 0.03200
C 	C 	0.31547 0.55694 0.28627 -0.14800
H 	H 	0.32170 0.55100 0.27130 0.08900
O 	O 	0.31812 0.61843 0.34620 -0.18900
C 	C 	0.32524 0.07695 0.79609 0.07100
H 	H 	0.33910 0.08430 0.78890 0.03200
C 	C 	0.31547 0.05694 0.78627 -0.14800
H 	H 	0.32170 0.05100 0.77130 0.08900
O 	O 	0.31812 0.11843 0.84620 -0.18900
C 	C 	0.82524 0.57695 0.79609 0.07100
H 	H 	0.83910 0.58430 0.78890 0.03200
C 	C 	0.81547 0.55694 0.78627 -0.14800
H 	H 	0.82170 0.55100 0.77130 0.08900
O 	O 	0.81812 0.61843 0.84620 -0.18900
C 	C 	0.82524 0.07695 0.29609 0.07100
H 	H 	0.83910 0.08430 0.28890 0.03200
C 	C 	0.81547 0.05694 0.28627 -0.14800
H 	H 	0.82170 0.05100 0.27130 0.08900
O 	O 	0.81812 0.11843 0.34620 -0.18900
C 	C 	0.67476 0.57695 0.70391 0.07100
H 	H 	0.66090 0.58430 0.71110 0.03200
C 	C 	0.68453 0.55694 0.71373 -0.14800
H 	H 	0.67830 0.55100 0.72870 0.08900
O 	O 	0.68188 0.61843 0.65380 -0.18900
C 	C 	0.67476 0.07695 0.20391 0.07100
H 	H 	0.66090 0.08430 0.21110 0.03200
C 	C 	0.68453 0.05694 0.21373 -0.14800
H 	H 	0.67830 0.05100 0.22870 0.08900
O 	O 	0.68188 0.11843 0.15380 -0.18900
C 	C 	0.17476 0.57695 0.20391 0.07100
H 	H 	0.16090 0.58430 0.21110 0.03200
C 	C 	0.18453 0.55694 0.21373 -0.14800
H 	H 	0.17830 0.55100 0.22870 0.08900
O 	O 	0.18188 0.61843 0.15380 -0.18900
C 	C 	0.17476 0.07695 0.70391 0.07100
H 	H 	0.16090 0.08430 0.71110 0.03200
C 	C 	0.18453 0.05694 0.71373 -0.14800
H 	H 	0.17830 0.05100 0.72870 0.08900
O 	O 	0.18188 0.11843 0.65380 -0.18900
C 	C 	0.32524 0.42305 0.70391 0.07100
H 	H 	0.33910 0.41570 0.71110 0.03200
C 	C 	0.31547 0.44306 0.71373 -0.14800
H 	H 	0.32170 0.44900 0.72870 0.08900
O 	O 	0.31812 0.38157 0.65380 -0.18900
C 	C 	0.32524 0.92305 0.20391 0.07100
H 	H 	0.33910 0.91570 0.21110 0.03200
C 	C 	0.31547 0.94306 0.21373 -0.14800
H 	H 	0.32170 0.94900 0.22870 0.08900
O 	O 	0.31812 0.88157 0.15380 -0.18900
C 	C 	0.82524 0.42305 0.20391 0.07100
H 	H 	0.83910 0.41570 0.21110 0.03200
C 	C 	0.81547 0.44306 0.21373 -0.14800
H 	H 	0.82170 0.44900 0.22870 0.08900
O 	O 	0.81812 0.38157 0.15380 -0.18900
C 	C 	0.82524 0.92305 0.70391 0.07100
H 	H 	0.83910 0.91570 0.71110 0.03200
C 	C 	0.81547 0.94306 0.71373 -0.14800
H 	H 	0.82170 0.94900 0.72870 0.08900
O 	O 	0.81812 0.88157 0.65380 -0.18900
C 	C 	0.67476 0.42305 0.29609 0.07100
H 	H 	0.66090 0.41570 0.28890 0.03200
C 	C 	0.68453 0.44306 0.28627 -0.14800
H 	H 	0.67830 0.44900 0.27130 0.08900
O 	O 	0.68188 0.38157 0.34620 -0.18900
C 	C 	0.67476 0.92305 0.79609 0.07100
H 	H 	0.66090 0.91570 0.78890 0.03200
C 	C 	0.68453 0.94306 0.78627 -0.14800
H 	H 	0.67830 0.94900 0.77130 0.08900
O 	O 	0.68188 0.88157 0.84620 -0.18900
C 	C 	0.17476 0.42305 0.79609 0.07100
H 	H 	0.16090 0.41570 0.78890 0.03200
C 	C 	0.18453 0.44306 0.78627 -0.14800
H 	H 	0.17830 0.44900 0.77130 0.08900
O 	O 	0.18188 0.38157 0.84620 -0.18900
C 	C 	0.17476 0.92305 0.29609 0.07100
H 	H 	0.16090 0.91570 0.28890 0.03200
C 	C 	0.18453 0.94306 0.28627 -0.14800
H 	H 	0.17830 0.94900 0.27130 0.08900
O 	O 	0.18188 0.88157 0.34620 -0.18900
C 	C 	0.32524 0.29609 0.42305 0.07100
H 	H 	0.33910 0.28890 0.41570 0.03200
C 	C 	0.31547 0.28627 0.44306 -0.14800
H 	H 	0.32170 0.27130 0.44900 0.08900
O 	O 	0.31812 0.34620 0.38157 -0.18900
C 	C 	0.32524 0.79609 0.92305 0.07100
H 	H 	0.33910 0.78890 0.91570 0.03200
C 	C 	0.31547 0.78627 0.94306 -0.14800
H 	H 	0.32170 0.77130 0.94900 0.08900
O 	O 	0.31812 0.84620 0.88157 -0.18900
C 	C 	0.82524 0.29609 0.92305 0.07100
H 	H 	0.83910 0.28890 0.91570 0.03200
C 	C 	0.81547 0.28627 0.94306 -0.14800
H 	H 	0.82170 0.27130 0.94900 0.08900
O 	O 	0.81812 0.34620 0.88157 -0.18900
C 	C 	0.82524 0.79609 0.42305 0.07100
H 	H 	0.83910 0.78890 0.41570 0.03200
C 	C 	0.81547 0.78627 0.44306 -0.14800
H 	H 	0.82170 0.77130 0.44900 0.08900
O 	O 	0.81812 0.84620 0.38157 -0.18900
C 	C 	0.67476 0.70391 0.42305 0.07100
H 	H 	0.66090 0.71110 0.41570 0.03200
C 	C 	0.68453 0.71373 0.44306 -0.14800
H 	H 	0.67830 0.72870 0.44900 0.08900
O 	O 	0.68188 0.65380 0.38157 -0.18900
C 	C 	0.67476 0.20391 0.92305 0.07100
H 	H 	0.66090 0.21110 0.91570 0.03200
C 	C 	0.68453 0.21373 0.94306 -0.14800
H 	H 	0.67830 0.22870 0.94900 0.08900
O 	O 	0.68188 0.15380 0.88157 -0.18900
C 	C 	0.17476 0.70391 0.92305 0.07100
H 	H 	0.16090 0.71110 0.91570 0.03200
C 	C 	0.18453 0.71373 0.94306 -0.14800
H 	H 	0.17830 0.72870 0.94900 0.08900
O 	O 	0.18188 0.65380 0.88157 -0.18900
C 	C 	0.17476 0.20391 0.42305 0.07100
H 	H 	0.16090 0.21110 0.41570 0.03200
C 	C 	0.18453 0.21373 0.44306 -0.14800
H 	H 	0.17830 0.22870 0.44900 0.08900
O 	O 	0.18188 0.15380 0.38157 -0.18900
C 	C 	0.32524 0.70391 0.57695 0.07100
H 	H 	0.33910 0.71110 0.58430 0.03200
C 	C 	0.31547 0.71373 0.55694 -0.14800
H 	H 	0.32170 0.72870 0.55100 0.08900
O 	O 	0.31812 0.65380 0.61843 -0.18900
C 	C 	0.32524 0.20391 0.07695 0.07100
H 	H 	0.33910 0.21110 0.08430 0.03200
C 	C 	0.31547 0.21373 0.05694 -0.14800
H 	H 	0.32170 0.22870 0.05100 0.08900
O 	O 	0.31812 0.15380 0.11843 -0.18900
C 	C 	0.82524 0.70391 0.07695 0.07100
H 	H 	0.83910 0.71110 0.08430 0.03200
C 	C 	0.81547 0.71373 0.05694 -0.14800
H 	H 	0.82170 0.72870 0.05100 0.08900
O 	O 	0.81812 0.65380 0.11843 -0.18900
C 	C 	0.82524 0.20391 0.57695 0.07100
H 	H 	0.83910 0.21110 0.58430 0.03200
C 	C 	0.81547 0.21373 0.55694 -0.14800
H 	H 	0.82170 0.22870 0.55100 0.08900
O 	O 	0.81812 0.15380 0.61843 -0.18900
C 	C 	0.67476 0.29609 0.57695 0.07100
H 	H 	0.66090 0.28890 0.58430 0.03200
C 	C 	0.68453 0.28627 0.55694 -0.14800
H 	H 	0.67830 0.27130 0.55100 0.08900
O 	O 	0.68188 0.34620 0.61843 -0.18900
C 	C 	0.67476 0.79609 0.07695 0.07100
H 	H 	0.66090 0.78890 0.08430 0.03200
C 	C 	0.68453 0.78627 0.05694 -0.14800
H 	H 	0.67830 0.77130 0.05100 0.08900
O 	O 	0.68188 0.84620 0.11843 -0.18900
C 	C 	0.17476 0.29609 0.07695 0.07100
H 	H 	0.16090 0.28890 0.08430 0.03200
C 	C 	0.18453 0.28627 0.05694 -0.14800
H 	H 	0.17830 0.27130 0.05100 0.08900
O 	O 	0.18188 0.34620 0.11843 -0.18900
C 	C 	0.17476 0.79609 0.57695 0.07100
H 	H 	0.16090 0.78890 0.58430 0.03200
C 	C 	0.18453 0.78627 0.55694 -0.14800
H 	H 	0.17830 0.77130 0.55100 0.08900
O 	O 	0.18188 0.84620 0.61843 -0.18900
C 	C 	0.29609 0.57695 0.67476 0.07100
H 	H 	0.28890 0.58430 0.66090 0.03200
C 	C 	0.28627 0.55694 0.68453 -0.14800
H 	H 	0.27130 0.55100 0.67830 0.08900
O 	O 	0.34620 0.61843 0.68188 -0.18900
C 	C 	0.29609 0.07695 0.17476 0.07100
H 	H 	0.28890 0.08430 0.16090 0.03200
C 	C 	0.28627 0.05694 0.18453 -0.14800
H 	H 	0.27130 0.05100 0.17830 0.08900
O 	O 	0.34620 0.11843 0.18188 -0.18900
C 	C 	0.79609 0.57695 0.17476 0.07100
H 	H 	0.78890 0.58430 0.16090 0.03200
C 	C 	0.78627 0.55694 0.18453 -0.14800
H 	H 	0.77130 0.55100 0.17830 0.08900
O 	O 	0.84620 0.61843 0.18188 -0.18900
C 	C 	0.79609 0.07695 0.67476 0.07100
H 	H 	0.78890 0.08430 0.66090 0.03200
C 	C 	0.78627 0.05694 0.68453 -0.14800
H 	H 	0.77130 0.05100 0.67830 0.08900
O 	O 	0.84620 0.11843 0.68188 -0.18900
C 	C 	0.70391 0.57695 0.32524 0.07100
H 	H 	0.71110 0.58430 0.33910 0.03200
C 	C 	0.71373 0.55694 0.31547 -0.14800
H 	H 	0.72870 0.55100 0.32170 0.08900
O 	O 	0.65380 0.61843 0.31812 -0.18900
C 	C 	0.70391 0.07695 0.82524 0.07100
H 	H 	0.71110 0.08430 0.83910 0.03200
C 	C 	0.71373 0.05694 0.81547 -0.14800
H 	H 	0.72870 0.05100 0.82170 0.08900
O 	O 	0.65380 0.11843 0.81812 -0.18900
C 	C 	0.20391 0.57695 0.82524 0.07100
H 	H 	0.21110 0.58430 0.83910 0.03200
C 	C 	0.21373 0.55694 0.81547 -0.14800
H 	H 	0.22870 0.55100 0.82170 0.08900
O 	O 	0.15380 0.61843 0.81812 -0.18900
C 	C 	0.20391 0.07695 0.32524 0.07100
H 	H 	0.21110 0.08430 0.33910 0.03200
C 	C 	0.21373 0.05694 0.31547 -0.14800
H 	H 	0.22870 0.05100 0.32170 0.08900
O 	O 	0.15380 0.11843 0.31812 -0.18900
C 	C 	0.70391 0.42305 0.67476 0.07100
H 	H 	0.71110 0.41570 0.66090 0.03200
C 	C 	0.71373 0.44306 0.68453 -0.14800
H 	H 	0.72870 0.44900 0.67830 0.08900
O 	O 	0.65380 0.38157 0.68188 -0.18900
C 	C 	0.70391 0.92305 0.17476 0.07100
H 	H 	0.71110 0.91570 0.16090 0.03200
C 	C 	0.71373 0.94306 0.18453 -0.14800
H 	H 	0.72870 0.94900 0.17830 0.08900
O 	O 	0.65380 0.88157 0.18188 -0.18900
C 	C 	0.20391 0.42305 0.17476 0.07100
H 	H 	0.21110 0.41570 0.16090 0.03200
C 	C 	0.21373 0.44306 0.18453 -0.14800
H 	H 	0.22870 0.44900 0.17830 0.08900
O 	O 	0.15380 0.38157 0.18188 -0.18900
C 	C 	0.20391 0.92305 0.67476 0.07100
H 	H 	0.21110 0.91570 0.66090 0.03200
C 	C 	0.21373 0.94306 0.68453 -0.14800
H 	H 	0.22870 0.94900 0.67830 0.08900
O 	O 	0.15380 0.88157 0.68188 -0.18900
C 	C 	0.29609 0.42305 0.32524 0.07100
H 	H 	0.28890 0.41570 0.33910 0.03200
C 	C 	0.28627 0.44306 0.31547 -0.14800
H 	H 	0.27130 0.44900 0.32170 0.08900
O 	O 	0.34620 0.38157 0.31812 -0.18900
C 	C 	0.29609 0.92305 0.82524 0.07100
H 	H 	0.28890 0.91570 0.83910 0.03200
C 	C 	0.28627 0.94306 0.81547 -0.14800
H 	H 	0.27130 0.94900 0.82170 0.08900
O 	O 	0.34620 0.88157 0.81812 -0.18900
C 	C 	0.79609 0.42305 0.82524 0.07100
H 	H 	0.78890 0.41570 0.83910 0.03200
C 	C 	0.78627 0.44306 0.81547 -0.14800
H 	H 	0.77130 0.44900 0.82170 0.08900
O 	O 	0.84620 0.38157 0.81812 -0.18900
C 	C 	0.79609 0.92305 0.32524 0.07100
H 	H 	0.78890 0.91570 0.33910 0.03200
C 	C 	0.78627 0.94306 0.31547 -0.14800
H 	H 	0.77130 0.94900 0.32170 0.08900
O 	O 	0.84620 0.88157 0.31812 -0.18900
C 	C 	0.57695 0.32524 0.70391 0.07100
H 	H 	0.58430 0.33910 0.71110 0.03200
C 	C 	0.55694 0.31547 0.71373 -0.14800
H 	H 	0.55100 0.32170 0.72870 0.08900
O 	O 	0.61843 0.31812 0.65380 -0.18900
C 	C 	0.57695 0.82524 0.20391 0.07100
H 	H 	0.58430 0.83910 0.21110 0.03200
C 	C 	0.55694 0.81547 0.21373 -0.14800
H 	H 	0.55100 0.82170 0.22870 0.08900
O 	O 	0.61843 0.81812 0.15380 -0.18900
C 	C 	0.07695 0.32524 0.20391 0.07100
H 	H 	0.08430 0.33910 0.21110 0.03200
C 	C 	0.05694 0.31547 0.21373 -0.14800
H 	H 	0.05100 0.32170 0.22870 0.08900
O 	O 	0.11843 0.31812 0.15380 -0.18900
C 	C 	0.07695 0.82524 0.70391 0.07100
H 	H 	0.08430 0.83910 0.71110 0.03200
C 	C 	0.05694 0.81547 0.71373 -0.14800
H 	H 	0.05100 0.82170 0.72870 0.08900
O 	O 	0.11843 0.81812 0.65380 -0.18900
C 	C 	0.57695 0.67476 0.29609 0.07100
H 	H 	0.58430 0.66090 0.28890 0.03200
C 	C 	0.55694 0.68453 0.28627 -0.14800
H 	H 	0.55100 0.67830 0.27130 0.08900
O 	O 	0.61843 0.68188 0.34620 -0.18900
C 	C 	0.57695 0.17476 0.79609 0.07100
H 	H 	0.58430 0.16090 0.78890 0.03200
C 	C 	0.55694 0.18453 0.78627 -0.14800
H 	H 	0.55100 0.17830 0.77130 0.08900
O 	O 	0.61843 0.18188 0.84620 -0.18900
C 	C 	0.07695 0.67476 0.79609 0.07100
H 	H 	0.08430 0.66090 0.78890 0.03200
C 	C 	0.05694 0.68453 0.78627 -0.14800
H 	H 	0.05100 0.67830 0.77130 0.08900
O 	O 	0.11843 0.68188 0.84620 -0.18900
C 	C 	0.07695 0.17476 0.29609 0.07100
H 	H 	0.08430 0.16090 0.28890 0.03200
C 	C 	0.05694 0.18453 0.28627 -0.14800
H 	H 	0.05100 0.17830 0.27130 0.08900
O 	O 	0.11843 0.18188 0.34620 -0.18900
C 	C 	0.42305 0.32524 0.29609 0.07100
H 	H 	0.41570 0.33910 0.28890 0.03200
C 	C 	0.44306 0.31547 0.28627 -0.14800
H 	H 	0.44900 0.32170 0.27130 0.08900
O 	O 	0.38157 0.31812 0.34620 -0.18900
C 	C 	0.42305 0.82524 0.79609 0.07100
H 	H 	0.41570 0.83910 0.78890 0.03200
C 	C 	0.44306 0.81547 0.78627 -0.14800
H 	H 	0.44900 0.82170 0.77130 0.08900
O 	O 	0.38157 0.81812 0.84620 -0.18900
C 	C 	0.92305 0.32524 0.79609 0.07100
H 	H 	0.91570 0.33910 0.78890 0.03200
C 	C 	0.94306 0.31547 0.78627 -0.14800
H 	H 	0.94900 0.32170 0.77130 0.08900
O 	O 	0.88157 0.31812 0.84620 -0.18900
C 	C 	0.92305 0.82524 0.29609 0.07100
H 	H 	0.91570 0.83910 0.28890 0.03200
C 	C 	0.94306 0.81547 0.28627 -0.14800
H 	H 	0.94900 0.82170 0.27130 0.08900
O 	O 	0.88157 0.81812 0.34620 -0.18900
C 	C 	0.42305 0.67476 0.70391 0.07100
H 	H 	0.41570 0.66090 0.71110 0.03200
C 	C 	0.44306 0.68453 0.71373 -0.14800
H 	H 	0.44900 0.67830 0.72870 0.08900
O 	O 	0.38157 0.68188 0.65380 -0.18900
C 	C 	0.42305 0.17476 0.20391 0.07100
H 	H 	0.41570 0.16090 0.21110 0.03200
C 	C 	0.44306 0.18453 0.21373 -0.14800
H 	H 	0.44900 0.17830 0.22870 0.08900
O 	O 	0.38157 0.18188 0.15380 -0.18900
C 	C 	0.92305 0.67476 0.20391 0.07100
H 	H 	0.91570 0.66090 0.21110 0.03200
C 	C 	0.94306 0.68453 0.21373 -0.14800
H 	H 	0.94900 0.67830 0.22870 0.08900
O 	O 	0.88157 0.68188 0.15380 -0.18900
C 	C 	0.92305 0.17476 0.70391 0.07100
H 	H 	0.91570 0.16090 0.71110 0.03200
C 	C 	0.94306 0.18453 0.71373 -0.14800
H 	H 	0.94900 0.17830 0.72870 0.08900
O 	O 	0.88157 0.18188 0.65380 -0.18900
C 	C 	0.67236 0.67236 0.39058 0.29400
C 	C 	0.68435 0.68435 0.41359 -0.10300
C 	C 	0.70285 0.70285 0.45479 0.10200
C 	C 	0.71388 0.71388 0.47829 -0.03600
C 	C 	0.73157 0.73157 0.47639 0.02500
C 	C 	0.74131 0.74131 0.45486 -0.05400
H 	H 	0.73540 0.73540 0.43970 0.05800
C 	C 	0.67236 0.17236 0.89058 0.29400
C 	C 	0.68435 0.18435 0.91359 -0.10300
C 	C 	0.70285 0.20285 0.95479 0.10200
C 	C 	0.71388 0.21388 0.97829 -0.03600
C 	C 	0.73157 0.23157 0.97639 0.02500
C 	C 	0.74131 0.24131 0.95486 -0.05400
H 	H 	0.73540 0.23540 0.93970 0.05800
C 	C 	0.17236 0.67236 0.89058 0.29400
C 	C 	0.18435 0.68435 0.91359 -0.10300
C 	C 	0.20285 0.70285 0.95479 0.10200
C 	C 	0.21388 0.71388 0.97829 -0.03600
C 	C 	0.23157 0.73157 0.97639 0.02500
C 	C 	0.24131 0.74131 0.95486 -0.05400
H 	H 	0.23540 0.73540 0.93970 0.05800
C 	C 	0.17236 0.17236 0.39058 0.29400
C 	C 	0.18435 0.18435 0.41359 -0.10300
C 	C 	0.20285 0.20285 0.45479 0.10200
C 	C 	0.21388 0.21388 0.47829 -0.03600
C 	C 	0.23157 0.23157 0.47639 0.02500
C 	C 	0.24131 0.24131 0.45486 -0.05400
H 	H 	0.23540 0.23540 0.43970 0.05800
C 	C 	0.32764 0.32764 0.39058 0.29400
C 	C 	0.31565 0.31565 0.41359 -0.10300
C 	C 	0.29715 0.29715 0.45479 0.10200
C 	C 	0.28612 0.28612 0.47829 -0.03600
C 	C 	0.26843 0.26843 0.47639 0.02500
C 	C 	0.25869 0.25869 0.45486 -0.05400
H 	H 	0.26460 0.26460 0.43970 0.05800
C 	C 	0.32764 0.82764 0.89058 0.29400
C 	C 	0.31565 0.81565 0.91359 -0.10300
C 	C 	0.29715 0.79715 0.95479 0.10200
C 	C 	0.28612 0.78612 0.97829 -0.03600
C 	C 	0.26843 0.76843 0.97639 0.02500
C 	C 	0.25869 0.75869 0.95486 -0.05400
H 	H 	0.26460 0.76460 0.93970 0.05800
C 	C 	0.82764 0.32764 0.89058 0.29400
C 	C 	0.81565 0.31565 0.91359 -0.10300
C 	C 	0.79715 0.29715 0.95479 0.10200
C 	C 	0.78612 0.28612 0.97829 -0.03600
C 	C 	0.76843 0.26843 0.97639 0.02500
C 	C 	0.75869 0.25869 0.95486 -0.05400
H 	H 	0.76460 0.26460 0.93970 0.05800
C 	C 	0.82764 0.82764 0.39058 0.29400
C 	C 	0.81565 0.81565 0.41359 -0.10300
C 	C 	0.79715 0.79715 0.45479 0.10200
C 	C 	0.78612 0.78612 0.47829 -0.03600
C 	C 	0.76843 0.76843 0.47639 0.02500
C 	C 	0.75869 0.75869 0.45486 -0.05400
H 	H 	0.76460 0.76460 0.43970 0.05800
C 	C 	0.32764 0.67236 0.60942 0.29400
C 	C 	0.31565 0.68435 0.58641 -0.10300
C 	C 	0.29715 0.70285 0.54521 0.10200
C 	C 	0.28612 0.71388 0.52171 -0.03600
C 	C 	0.26843 0.73157 0.52361 0.02500
C 	C 	0.25869 0.74131 0.54514 -0.05400
H 	H 	0.26460 0.73540 0.56030 0.05800
C 	C 	0.32764 0.17236 0.10942 0.29400
C 	C 	0.31565 0.18435 0.08641 -0.10300
C 	C 	0.29715 0.20285 0.04521 0.10200
C 	C 	0.28612 0.21388 0.02171 -0.03600
C 	C 	0.26843 0.23157 0.02361 0.02500
C 	C 	0.25869 0.24131 0.04514 -0.05400
H 	H 	0.26460 0.23540 0.06030 0.05800
C 	C 	0.82764 0.67236 0.10942 0.29400
C 	C 	0.81565 0.68435 0.08641 -0.10300
C 	C 	0.79715 0.70285 0.04521 0.10200
C 	C 	0.78612 0.71388 0.02171 -0.03600
C 	C 	0.76843 0.73157 0.02361 0.02500
C 	C 	0.75869 0.74131 0.04514 -0.05400
H 	H 	0.76460 0.73540 0.06030 0.05800
C 	C 	0.82764 0.17236 0.60942 0.29400
C 	C 	0.81565 0.18435 0.58641 -0.10300
C 	C 	0.79715 0.20285 0.54521 0.10200
C 	C 	0.78612 0.21388 0.52171 -0.03600
C 	C 	0.76843 0.23157 0.52361 0.02500
C 	C 	0.75869 0.24131 0.54514 -0.05400
H 	H 	0.76460 0.23540 0.56030 0.05800
C 	C 	0.67236 0.32764 0.60942 0.29400
C 	C 	0.68435 0.31565 0.58641 -0.10300
C 	C 	0.70285 0.29715 0.54521 0.10200
C 	C 	0.71388 0.28612 0.52171 -0.03600
C 	C 	0.73157 0.26843 0.52361 0.02500
C 	C 	0.74131 0.25869 0.54514 -0.05400
H 	H 	0.73540 0.26460 0.56030 0.05800
C 	C 	0.67236 0.82764 0.10942 0.29400
C 	C 	0.68435 0.81565 0.08641 -0.10300
C 	C 	0.70285 0.79715 0.04521 0.10200
C 	C 	0.71388 0.78612 0.02171 -0.03600
C 	C 	0.73157 0.76843 0.02361 0.02500
C 	C 	0.74131 0.75869 0.04514 -0.05400
H 	H 	0.73540 0.76460 0.06030 0.05800
C 	C 	0.17236 0.32764 0.10942 0.29400
C 	C 	0.18435 0.31565 0.08641 -0.10300
C 	C 	0.20285 0.29715 0.04521 0.10200
C 	C 	0.21388 0.28612 0.02171 -0.03600
C 	C 	0.23157 0.26843 0.02361 0.02500
C 	C 	0.24131 0.25869 0.04514 -0.05400
H 	H 	0.23540 0.26460 0.06030 0.05800
C 	C 	0.17236 0.82764 0.60942 0.29400
C 	C 	0.18435 0.81565 0.58641 -0.10300
C 	C 	0.20285 0.79715 0.54521 0.10200
C 	C 	0.21388 0.78612 0.52171 -0.03600
C 	C 	0.23157 0.76843 0.52361 0.02500
C 	C 	0.24131 0.75869 0.54514 -0.05400
H 	H 	0.23540 0.76460 0.56030 0.05800
C 	C 	0.39058 0.67236 0.67236 0.29400
C 	C 	0.41359 0.68435 0.68435 -0.10300
C 	C 	0.45479 0.70285 0.70285 0.10200
C 	C 	0.47829 0.71388 0.71388 -0.03600
C 	C 	0.47639 0.73157 0.73157 0.02500
C 	C 	0.45486 0.74131 0.74131 -0.05400
H 	H 	0.43970 0.73540 0.73540 0.05800
C 	C 	0.39058 0.17236 0.17236 0.29400
C 	C 	0.41359 0.18435 0.18435 -0.10300
C 	C 	0.45479 0.20285 0.20285 0.10200
C 	C 	0.47829 0.21388 0.21388 -0.03600
C 	C 	0.47639 0.23157 0.23157 0.02500
C 	C 	0.45486 0.24131 0.24131 -0.05400
H 	H 	0.43970 0.23540 0.23540 0.05800
C 	C 	0.89058 0.67236 0.17236 0.29400
C 	C 	0.91359 0.68435 0.18435 -0.10300
C 	C 	0.95479 0.70285 0.20285 0.10200
C 	C 	0.97829 0.71388 0.21388 -0.03600
C 	C 	0.97639 0.73157 0.23157 0.02500
C 	C 	0.95486 0.74131 0.24131 -0.05400
H 	H 	0.93970 0.73540 0.23540 0.05800
C 	C 	0.89058 0.17236 0.67236 0.29400
C 	C 	0.91359 0.18435 0.68435 -0.10300
C 	C 	0.95479 0.20285 0.70285 0.10200
C 	C 	0.97829 0.21388 0.71388 -0.03600
C 	C 	0.97639 0.23157 0.73157 0.02500
C 	C 	0.95486 0.24131 0.74131 -0.05400
H 	H 	0.93970 0.23540 0.73540 0.05800
C 	C 	0.39058 0.32764 0.32764 0.29400
C 	C 	0.41359 0.31565 0.31565 -0.10300
C 	C 	0.45479 0.29715 0.29715 0.10200
C 	C 	0.47829 0.28612 0.28612 -0.03600
C 	C 	0.47639 0.26843 0.26843 0.02500
C 	C 	0.45486 0.25869 0.25869 -0.05400
H 	H 	0.43970 0.26460 0.26460 0.05800
C 	C 	0.39058 0.82764 0.82764 0.29400
C 	C 	0.41359 0.81565 0.81565 -0.10300
C 	C 	0.45479 0.79715 0.79715 0.10200
C 	C 	0.47829 0.78612 0.78612 -0.03600
C 	C 	0.47639 0.76843 0.76843 0.02500
C 	C 	0.45486 0.75869 0.75869 -0.05400
H 	H 	0.43970 0.76460 0.76460 0.05800
C 	C 	0.89058 0.32764 0.82764 0.29400
C 	C 	0.91359 0.31565 0.81565 -0.10300
C 	C 	0.95479 0.29715 0.79715 0.10200
C 	C 	0.97829 0.28612 0.78612 -0.03600
C 	C 	0.97639 0.26843 0.76843 0.02500
C 	C 	0.95486 0.25869 0.75869 -0.05400
H 	H 	0.93970 0.26460 0.76460 0.05800
C 	C 	0.89058 0.82764 0.32764 0.29400
C 	C 	0.91359 0.81565 0.31565 -0.10300
C 	C 	0.95479 0.79715 0.29715 0.10200
C 	C 	0.97829 0.78612 0.28612 -0.03600
C 	C 	0.97639 0.76843 0.26843 0.02500
C 	C 	0.95486 0.75869 0.25869 -0.05400
H 	H 	0.93970 0.76460 0.26460 0.05800
C 	C 	0.60942 0.32764 0.67236 0.29400
C 	C 	0.58641 0.31565 0.68435 -0.10300
C 	C 	0.54521 0.29715 0.70285 0.10200
C 	C 	0.52171 0.28612 0.71388 -0.03600
C 	C 	0.52361 0.26843 0.73157 0.02500
C 	C 	0.54514 0.25869 0.74131 -0.05400
H 	H 	0.56030 0.26460 0.73540 0.05800
C 	C 	0.60942 0.82764 0.17236 0.29400
C 	C 	0.58641 0.81565 0.18435 -0.10300
C 	C 	0.54521 0.79715 0.20285 0.10200
C 	C 	0.52171 0.78612 0.21388 -0.03600
C 	C 	0.52361 0.76843 0.23157 0.02500
C 	C 	0.54514 0.75869 0.24131 -0.05400
H 	H 	0.56030 0.76460 0.23540 0.05800
C 	C 	0.10942 0.32764 0.17236 0.29400
C 	C 	0.08641 0.31565 0.18435 -0.10300
C 	C 	0.04521 0.29715 0.20285 0.10200
C 	C 	0.02171 0.28612 0.21388 -0.03600
C 	C 	0.02361 0.26843 0.23157 0.02500
C 	C 	0.04514 0.25869 0.24131 -0.05400
H 	H 	0.06030 0.26460 0.23540 0.05800
C 	C 	0.10942 0.82764 0.67236 0.29400
C 	C 	0.08641 0.81565 0.68435 -0.10300
C 	C 	0.04521 0.79715 0.70285 0.10200
C 	C 	0.02171 0.78612 0.71388 -0.03600
C 	C 	0.02361 0.76843 0.73157 0.02500
C 	C 	0.04514 0.75869 0.74131 -0.05400
H 	H 	0.06030 0.76460 0.73540 0.05800
C 	C 	0.60942 0.67236 0.32764 0.29400
C 	C 	0.58641 0.68435 0.31565 -0.10300
C 	C 	0.54521 0.70285 0.29715 0.10200
C 	C 	0.52171 0.71388 0.28612 -0.03600
C 	C 	0.52361 0.73157 0.26843 0.02500
C 	C 	0.54514 0.74131 0.25869 -0.05400
H 	H 	0.56030 0.73540 0.26460 0.05800
C 	C 	0.60942 0.17236 0.82764 0.29400
C 	C 	0.58641 0.18435 0.81565 -0.10300
C 	C 	0.54521 0.20285 0.79715 0.10200
C 	C 	0.52171 0.21388 0.78612 -0.03600
C 	C 	0.52361 0.23157 0.76843 0.02500
C 	C 	0.54514 0.24131 0.75869 -0.05400
H 	H 	0.56030 0.23540 0.76460 0.05800
C 	C 	0.10942 0.67236 0.82764 0.29400
C 	C 	0.08641 0.68435 0.81565 -0.10300
C 	C 	0.04521 0.70285 0.79715 0.10200
C 	C 	0.02171 0.71388 0.78612 -0.03600
C 	C 	0.02361 0.73157 0.76843 0.02500
C 	C 	0.04514 0.74131 0.75869 -0.05400
H 	H 	0.06030 0.73540 0.76460 0.05800
C 	C 	0.10942 0.17236 0.32764 0.29400
C 	C 	0.08641 0.18435 0.31565 -0.10300
C 	C 	0.04521 0.20285 0.29715 0.10200
C 	C 	0.02171 0.21388 0.28612 -0.03600
C 	C 	0.02361 0.23157 0.26843 0.02500
C 	C 	0.04514 0.24131 0.25869 -0.05400
H 	H 	0.06030 0.23540 0.26460 0.05800
C 	C 	0.67236 0.39058 0.67236 0.29400
C 	C 	0.68435 0.41359 0.68435 -0.10300
C 	C 	0.70285 0.45479 0.70285 0.10200
C 	C 	0.71388 0.47829 0.71388 -0.03600
C 	C 	0.73157 0.47639 0.73157 0.02500
C 	C 	0.74131 0.45486 0.74131 -0.05400
H 	H 	0.73540 0.43970 0.73540 0.05800
C 	C 	0.67236 0.89058 0.17236 0.29400
C 	C 	0.68435 0.91359 0.18435 -0.10300
C 	C 	0.70285 0.95479 0.20285 0.10200
C 	C 	0.71388 0.97829 0.21388 -0.03600
C 	C 	0.73157 0.97639 0.23157 0.02500
C 	C 	0.74131 0.95486 0.24131 -0.05400
H 	H 	0.73540 0.93970 0.23540 0.05800
C 	C 	0.17236 0.39058 0.17236 0.29400
C 	C 	0.18435 0.41359 0.18435 -0.10300
C 	C 	0.20285 0.45479 0.20285 0.10200
C 	C 	0.21388 0.47829 0.21388 -0.03600
C 	C 	0.23157 0.47639 0.23157 0.02500
C 	C 	0.24131 0.45486 0.24131 -0.05400
H 	H 	0.23540 0.43970 0.23540 0.05800
C 	C 	0.17236 0.89058 0.67236 0.29400
C 	C 	0.18435 0.91359 0.68435 -0.10300
C 	C 	0.20285 0.95479 0.70285 0.10200
C 	C 	0.21388 0.97829 0.71388 -0.03600
C 	C 	0.23157 0.97639 0.73157 0.02500
C 	C 	0.24131 0.95486 0.74131 -0.05400
H 	H 	0.23540 0.93970 0.73540 0.05800
C 	C 	0.32764 0.39058 0.32764 0.29400
C 	C 	0.31565 0.41359 0.31565 -0.10300
C 	C 	0.29715 0.45479 0.29715 0.10200
C 	C 	0.28612 0.47829 0.28612 -0.03600
C 	C 	0.26843 0.47639 0.26843 0.02500
C 	C 	0.25869 0.45486 0.25869 -0.05400
H 	H 	0.26460 0.43970 0.26460 0.05800
C 	C 	0.32764 0.89058 0.82764 0.29400
C 	C 	0.31565 0.91359 0.81565 -0.10300
C 	C 	0.29715 0.95479 0.79715 0.10200
C 	C 	0.28612 0.97829 0.78612 -0.03600
C 	C 	0.26843 0.97639 0.76843 0.02500
C 	C 	0.25869 0.95486 0.75869 -0.05400
H 	H 	0.26460 0.93970 0.76460 0.05800
C 	C 	0.82764 0.39058 0.82764 0.29400
C 	C 	0.81565 0.41359 0.81565 -0.10300
C 	C 	0.79715 0.45479 0.79715 0.10200
C 	C 	0.78612 0.47829 0.78612 -0.03600
C 	C 	0.76843 0.47639 0.76843 0.02500
C 	C 	0.75869 0.45486 0.75869 -0.05400
H 	H 	0.76460 0.43970 0.76460 0.05800
C 	C 	0.82764 0.89058 0.32764 0.29400
C 	C 	0.81565 0.91359 0.31565 -0.10300
C 	C 	0.79715 0.95479 0.29715 0.10200
C 	C 	0.78612 0.97829 0.28612 -0.03600
C 	C 	0.76843 0.97639 0.26843 0.02500
C 	C 	0.75869 0.95486 0.25869 -0.05400
H 	H 	0.76460 0.93970 0.26460 0.05800
C 	C 	0.67236 0.60942 0.32764 0.29400
C 	C 	0.68435 0.58641 0.31565 -0.10300
C 	C 	0.70285 0.54521 0.29715 0.10200
C 	C 	0.71388 0.52171 0.28612 -0.03600
C 	C 	0.73157 0.52361 0.26843 0.02500
C 	C 	0.74131 0.54514 0.25869 -0.05400
H 	H 	0.73540 0.56030 0.26460 0.05800
C 	C 	0.67236 0.10942 0.82764 0.29400
C 	C 	0.68435 0.08641 0.81565 -0.10300
C 	C 	0.70285 0.04521 0.79715 0.10200
C 	C 	0.71388 0.02171 0.78612 -0.03600
C 	C 	0.73157 0.02361 0.76843 0.02500
C 	C 	0.74131 0.04514 0.75869 -0.05400
H 	H 	0.73540 0.06030 0.76460 0.05800
C 	C 	0.17236 0.60942 0.82764 0.29400
C 	C 	0.18435 0.58641 0.81565 -0.10300
C 	C 	0.20285 0.54521 0.79715 0.10200
C 	C 	0.21388 0.52171 0.78612 -0.03600
C 	C 	0.23157 0.52361 0.76843 0.02500
C 	C 	0.24131 0.54514 0.75869 -0.05400
H 	H 	0.23540 0.56030 0.76460 0.05800
C 	C 	0.17236 0.10942 0.32764 0.29400
C 	C 	0.18435 0.08641 0.31565 -0.10300
C 	C 	0.20285 0.04521 0.29715 0.10200
C 	C 	0.21388 0.02171 0.28612 -0.03600
C 	C 	0.23157 0.02361 0.26843 0.02500
C 	C 	0.24131 0.04514 0.25869 -0.05400
H 	H 	0.23540 0.06030 0.26460 0.05800
C 	C 	0.32764 0.60942 0.67236 0.29400
C 	C 	0.31565 0.58641 0.68435 -0.10300
C 	C 	0.29715 0.54521 0.70285 0.10200
C 	C 	0.28612 0.52171 0.71388 -0.03600
C 	C 	0.26843 0.52361 0.73157 0.02500
C 	C 	0.25869 0.54514 0.74131 -0.05400
H 	H 	0.26460 0.56030 0.73540 0.05800
C 	C 	0.32764 0.10942 0.17236 0.29400
C 	C 	0.31565 0.08641 0.18435 -0.10300
C 	C 	0.29715 0.04521 0.20285 0.10200
C 	C 	0.28612 0.02171 0.21388 -0.03600
C 	C 	0.26843 0.02361 0.23157 0.02500
C 	C 	0.25869 0.04514 0.24131 -0.05400
H 	H 	0.26460 0.06030 0.23540 0.05800
C 	C 	0.82764 0.60942 0.17236 0.29400
C 	C 	0.81565 0.58641 0.18435 -0.10300
C 	C 	0.79715 0.54521 0.20285 0.10200
C 	C 	0.78612 0.52171 0.21388 -0.03600
C 	C 	0.76843 0.52361 0.23157 0.02500
C 	C 	0.75869 0.54514 0.24131 -0.05400
H 	H 	0.76460 0.56030 0.23540 0.05800
C 	C 	0.82764 0.10942 0.67236 0.29400
C 	C 	0.81565 0.08641 0.68435 -0.10300
C 	C 	0.79715 0.04521 0.70285 0.10200
C 	C 	0.78612 0.02171 0.71388 -0.03600
C 	C 	0.76843 0.02361 0.73157 0.02500
C 	C 	0.75869 0.04514 0.74131 -0.05400
H 	H 	0.76460 0.06030 0.73540 0.05800
C 	C 	0.67236 0.67236 0.60942 0.29400
C 	C 	0.68435 0.68435 0.58641 -0.10300
C 	C 	0.70285 0.70285 0.54521 0.10200
C 	C 	0.71388 0.71388 0.52171 -0.03600
C 	C 	0.73157 0.73157 0.52361 0.02500
C 	C 	0.74131 0.74131 0.54514 -0.05400
H 	H 	0.73540 0.73540 0.56030 0.05800
C 	C 	0.67236 0.17236 0.10942 0.29400
C 	C 	0.68435 0.18435 0.08641 -0.10300
C 	C 	0.70285 0.20285 0.04521 0.10200
C 	C 	0.71388 0.21388 0.02171 -0.03600
C 	C 	0.73157 0.23157 0.02361 0.02500
C 	C 	0.74131 0.24131 0.04514 -0.05400
H 	H 	0.73540 0.23540 0.06030 0.05800
C 	C 	0.17236 0.67236 0.10942 0.29400
C 	C 	0.18435 0.68435 0.08641 -0.10300
C 	C 	0.20285 0.70285 0.04521 0.10200
C 	C 	0.21388 0.71388 0.02171 -0.03600
C 	C 	0.23157 0.73157 0.02361 0.02500
C 	C 	0.24131 0.74131 0.04514 -0.05400
H 	H 	0.23540 0.73540 0.06030 0.05800
C 	C 	0.17236 0.17236 0.60942 0.29400
C 	C 	0.18435 0.18435 0.58641 -0.10300
C 	C 	0.20285 0.20285 0.54521 0.10200
C 	C 	0.21388 0.21388 0.52171 -0.03600
C 	C 	0.23157 0.23157 0.52361 0.02500
C 	C 	0.24131 0.24131 0.54514 -0.05400
H 	H 	0.23540 0.23540 0.56030 0.05800
C 	C 	0.32764 0.32764 0.60942 0.29400
C 	C 	0.31565 0.31565 0.58641 -0.10300
C 	C 	0.29715 0.29715 0.54521 0.10200
C 	C 	0.28612 0.28612 0.52171 -0.03600
C 	C 	0.26843 0.26843 0.52361 0.02500
C 	C 	0.25869 0.25869 0.54514 -0.05400
H 	H 	0.26460 0.26460 0.56030 0.05800
C 	C 	0.32764 0.82764 0.10942 0.29400
C 	C 	0.31565 0.81565 0.08641 -0.10300
C 	C 	0.29715 0.79715 0.04521 0.10200
C 	C 	0.28612 0.78612 0.02171 -0.03600
C 	C 	0.26843 0.76843 0.02361 0.02500
C 	C 	0.25869 0.75869 0.04514 -0.05400
H 	H 	0.26460 0.76460 0.06030 0.05800
C 	C 	0.82764 0.32764 0.10942 0.29400
C 	C 	0.81565 0.31565 0.08641 -0.10300
C 	C 	0.79715 0.29715 0.04521 0.10200
C 	C 	0.78612 0.28612 0.02171 -0.03600
C 	C 	0.76843 0.26843 0.02361 0.02500
C 	C 	0.75869 0.25869 0.04514 -0.05400
H 	H 	0.76460 0.26460 0.06030 0.05800
C 	C 	0.82764 0.82764 0.60942 0.29400
C 	C 	0.81565 0.81565 0.58641 -0.10300
C 	C 	0.79715 0.79715 0.54521 0.10200
C 	C 	0.78612 0.78612 0.52171 -0.03600
C 	C 	0.76843 0.76843 0.52361 0.02500
C 	C 	0.75869 0.75869 0.54514 -0.05400
H 	H 	0.76460 0.76460 0.56030 0.05800
C 	C 	0.67236 0.32764 0.39058 0.29400
C 	C 	0.68435 0.31565 0.41359 -0.10300
C 	C 	0.70285 0.29715 0.45479 0.10200
C 	C 	0.71388 0.28612 0.47829 -0.03600
C 	C 	0.73157 0.26843 0.47639 0.02500
C 	C 	0.74131 0.25869 0.45486 -0.05400
H 	H 	0.73540 0.26460 0.43970 0.05800
C 	C 	0.67236 0.82764 0.89058 0.29400
C 	C 	0.68435 0.81565 0.91359 -0.10300
C 	C 	0.70285 0.79715 0.95479 0.10200
C 	C 	0.71388 0.78612 0.97829 -0.03600
C 	C 	0.73157 0.76843 0.97639 0.02500
C 	C 	0.74131 0.75869 0.95486 -0.05400
H 	H 	0.73540 0.76460 0.93970 0.05800
C 	C 	0.17236 0.32764 0.89058 0.29400
C 	C 	0.18435 0.31565 0.91359 -0.10300
C 	C 	0.20285 0.29715 0.95479 0.10200
C 	C 	0.21388 0.28612 0.97829 -0.03600
C 	C 	0.23157 0.26843 0.97639 0.02500
C 	C 	0.24131 0.25869 0.95486 -0.05400
H 	H 	0.23540 0.26460 0.93970 0.05800
C 	C 	0.17236 0.82764 0.39058 0.29400
C 	C 	0.18435 0.81565 0.41359 -0.10300
C 	C 	0.20285 0.79715 0.45479 0.10200
C 	C 	0.21388 0.78612 0.47829 -0.03600
C 	C 	0.23157 0.76843 0.47639 0.02500
C 	C 	0.24131 0.75869 0.45486 -0.05400
H 	H 	0.23540 0.76460 0.43970 0.05800
C 	C 	0.32764 0.67236 0.39058 0.29400
C 	C 	0.31565 0.68435 0.41359 -0.10300
C 	C 	0.29715 0.70285 0.45479 0.10200
C 	C 	0.28612 0.71388 0.47829 -0.03600
C 	C 	0.26843 0.73157 0.47639 0.02500
C 	C 	0.25869 0.74131 0.45486 -0.05400
H 	H 	0.26460 0.73540 0.43970 0.05800
C 	C 	0.32764 0.17236 0.89058 0.29400
C 	C 	0.31565 0.18435 0.91359 -0.10300
C 	C 	0.29715 0.20285 0.95479 0.10200
C 	C 	0.28612 0.21388 0.97829 -0.03600
C 	C 	0.26843 0.23157 0.97639 0.02500
C 	C 	0.25869 0.24131 0.95486 -0.05400
H 	H 	0.26460 0.23540 0.93970 0.05800
C 	C 	0.82764 0.67236 0.89058 0.29400
C 	C 	0.81565 0.68435 0.91359 -0.10300
C 	C 	0.79715 0.70285 0.95479 0.10200
C 	C 	0.78612 0.71388 0.97829 -0.03600
C 	C 	0.76843 0.73157 0.97639 0.02500
C 	C 	0.75869 0.74131 0.95486 -0.05400
H 	H 	0.76460 0.73540 0.93970 0.05800
C 	C 	0.82764 0.17236 0.39058 0.29400
C 	C 	0.81565 0.18435 0.41359 -0.10300
C 	C 	0.79715 0.20285 0.45479 0.10200
C 	C 	0.78612 0.21388 0.47829 -0.03600
C 	C 	0.76843 0.23157 0.47639 0.02500
C 	C 	0.75869 0.24131 0.45486 -0.05400
H 	H 	0.76460 0.23540 0.43970 0.05800
C 	C 	0.67236 0.39058 0.32764 0.29400
C 	C 	0.68435 0.41359 0.31565 -0.10300
C 	C 	0.70285 0.45479 0.29715 0.10200
C 	C 	0.71388 0.47829 0.28612 -0.03600
C 	C 	0.73157 0.47639 0.26843 0.02500
C 	C 	0.74131 0.45486 0.25869 -0.05400
H 	H 	0.73540 0.43970 0.26460 0.05800
C 	C 	0.67236 0.89058 0.82764 0.29400
C 	C 	0.68435 0.91359 0.81565 -0.10300
C 	C 	0.70285 0.95479 0.79715 0.10200
C 	C 	0.71388 0.97829 0.78612 -0.03600
C 	C 	0.73157 0.97639 0.76843 0.02500
C 	C 	0.74131 0.95486 0.75869 -0.05400
H 	H 	0.73540 0.93970 0.76460 0.05800
C 	C 	0.17236 0.39058 0.82764 0.29400
C 	C 	0.18435 0.41359 0.81565 -0.10300
C 	C 	0.20285 0.45479 0.79715 0.10200
C 	C 	0.21388 0.47829 0.78612 -0.03600
C 	C 	0.23157 0.47639 0.76843 0.02500
C 	C 	0.24131 0.45486 0.75869 -0.05400
H 	H 	0.23540 0.43970 0.76460 0.05800
C 	C 	0.17236 0.89058 0.32764 0.29400
C 	C 	0.18435 0.91359 0.31565 -0.10300
C 	C 	0.20285 0.95479 0.29715 0.10200
C 	C 	0.21388 0.97829 0.28612 -0.03600
C 	C 	0.23157 0.97639 0.26843 0.02500
C 	C 	0.24131 0.95486 0.25869 -0.05400
H 	H 	0.23540 0.93970 0.26460 0.05800
C 	C 	0.32764 0.39058 0.67236 0.29400
C 	C 	0.31565 0.41359 0.68435 -0.10300
C 	C 	0.29715 0.45479 0.70285 0.10200
C 	C 	0.28612 0.47829 0.71388 -0.03600
C 	C 	0.26843 0.47639 0.73157 0.02500
C 	C 	0.25869 0.45486 0.74131 -0.05400
H 	H 	0.26460 0.43970 0.73540 0.05800
C 	C 	0.32764 0.89058 0.17236 0.29400
C 	C 	0.31565 0.91359 0.18435 -0.10300
C 	C 	0.29715 0.95479 0.20285 0.10200
C 	C 	0.28612 0.97829 0.21388 -0.03600
C 	C 	0.26843 0.97639 0.23157 0.02500
C 	C 	0.25869 0.95486 0.24131 -0.05400
H 	H 	0.26460 0.93970 0.23540 0.05800
C 	C 	0.82764 0.39058 0.17236 0.29400
C 	C 	0.81565 0.41359 0.18435 -0.10300
C 	C 	0.79715 0.45479 0.20285 0.10200
C 	C 	0.78612 0.47829 0.21388 -0.03600
C 	C 	0.76843 0.47639 0.23157 0.02500
C 	C 	0.75869 0.45486 0.24131 -0.05400
H 	H 	0.76460 0.43970 0.23540 0.05800
C 	C 	0.82764 0.89058 0.67236 0.29400
C 	C 	0.81565 0.91359 0.68435 -0.10300
C 	C 	0.79715 0.95479 0.70285 0.10200
C 	C 	0.78612 0.97829 0.71388 -0.03600
C 	C 	0.76843 0.97639 0.73157 0.02500
C 	C 	0.75869 0.95486 0.74131 -0.05400
H 	H 	0.76460 0.93970 0.73540 0.05800
C 	C 	0.32764 0.60942 0.32764 0.29400
C 	C 	0.31565 0.58641 0.31565 -0.10300
C 	C 	0.29715 0.54521 0.29715 0.10200
C 	C 	0.28612 0.52171 0.28612 -0.03600
C 	C 	0.26843 0.52361 0.26843 0.02500
C 	C 	0.25869 0.54514 0.25869 -0.05400
H 	H 	0.26460 0.56030 0.26460 0.05800
C 	C 	0.32764 0.10942 0.82764 0.29400
C 	C 	0.31565 0.08641 0.81565 -0.10300
C 	C 	0.29715 0.04521 0.79715 0.10200
C 	C 	0.28612 0.02171 0.78612 -0.03600
C 	C 	0.26843 0.02361 0.76843 0.02500
C 	C 	0.25869 0.04514 0.75869 -0.05400
H 	H 	0.26460 0.06030 0.76460 0.05800
C 	C 	0.82764 0.60942 0.82764 0.29400
C 	C 	0.81565 0.58641 0.81565 -0.10300
C 	C 	0.79715 0.54521 0.79715 0.10200
C 	C 	0.78612 0.52171 0.78612 -0.03600
C 	C 	0.76843 0.52361 0.76843 0.02500
C 	C 	0.75869 0.54514 0.75869 -0.05400
H 	H 	0.76460 0.56030 0.76460 0.05800
C 	C 	0.82764 0.10942 0.32764 0.29400
C 	C 	0.81565 0.08641 0.31565 -0.10300
C 	C 	0.79715 0.04521 0.29715 0.10200
C 	C 	0.78612 0.02171 0.28612 -0.03600
C 	C 	0.76843 0.02361 0.26843 0.02500
C 	C 	0.75869 0.04514 0.25869 -0.05400
H 	H 	0.76460 0.06030 0.26460 0.05800
C 	C 	0.67236 0.60942 0.67236 0.29400
C 	C 	0.68435 0.58641 0.68435 -0.10300
C 	C 	0.70285 0.54521 0.70285 0.10200
C 	C 	0.71388 0.52171 0.71388 -0.03600
C 	C 	0.73157 0.52361 0.73157 0.02500
C 	C 	0.74131 0.54514 0.74131 -0.05400
H 	H 	0.73540 0.56030 0.73540 0.05800
C 	C 	0.67236 0.10942 0.17236 0.29400
C 	C 	0.68435 0.08641 0.18435 -0.10300
C 	C 	0.70285 0.04521 0.20285 0.10200
C 	C 	0.71388 0.02171 0.21388 -0.03600
C 	C 	0.73157 0.02361 0.23157 0.02500
C 	C 	0.74131 0.04514 0.24131 -0.05400
H 	H 	0.73540 0.06030 0.23540 0.05800
C 	C 	0.17236 0.60942 0.17236 0.29400
C 	C 	0.18435 0.58641 0.18435 -0.10300
C 	C 	0.20285 0.54521 0.20285 0.10200
C 	C 	0.21388 0.52171 0.21388 -0.03600
C 	C 	0.23157 0.52361 0.23157 0.02500
C 	C 	0.24131 0.54514 0.24131 -0.05400
H 	H 	0.23540 0.56030 0.23540 0.05800
C 	C 	0.17236 0.10942 0.67236 0.29400
C 	C 	0.18435 0.08641 0.68435 -0.10300
C 	C 	0.20285 0.04521 0.70285 0.10200
C 	C 	0.21388 0.02171 0.71388 -0.03600
C 	C 	0.23157 0.02361 0.73157 0.02500
C 	C 	0.24131 0.04514 0.74131 -0.05400
H 	H 	0.23540 0.06030 0.73540 0.05800
C 	C 	0.39058 0.67236 0.32764 0.29400
C 	C 	0.41359 0.68435 0.31565 -0.10300
C 	C 	0.45479 0.70285 0.29715 0.10200
C 	C 	0.47829 0.71388 0.28612 -0.03600
C 	C 	0.47639 0.73157 0.26843 0.02500
C 	C 	0.45486 0.74131 0.25869 -0.05400
H 	H 	0.43970 0.73540 0.26460 0.05800
C 	C 	0.39058 0.17236 0.82764 0.29400
C 	C 	0.41359 0.18435 0.81565 -0.10300
C 	C 	0.45479 0.20285 0.79715 0.10200
C 	C 	0.47829 0.21388 0.78612 -0.03600
C 	C 	0.47639 0.23157 0.76843 0.02500
C 	C 	0.45486 0.24131 0.75869 -0.05400
H 	H 	0.43970 0.23540 0.76460 0.05800
C 	C 	0.89058 0.67236 0.82764 0.29400
C 	C 	0.91359 0.68435 0.81565 -0.10300
C 	C 	0.95479 0.70285 0.79715 0.10200
C 	C 	0.97829 0.71388 0.78612 -0.03600
C 	C 	0.97639 0.73157 0.76843 0.02500
C 	C 	0.95486 0.74131 0.75869 -0.05400
H 	H 	0.93970 0.73540 0.76460 0.05800
C 	C 	0.89058 0.17236 0.32764 0.29400
C 	C 	0.91359 0.18435 0.31565 -0.10300
C 	C 	0.95479 0.20285 0.29715 0.10200
C 	C 	0.97829 0.21388 0.28612 -0.03600
C 	C 	0.97639 0.23157 0.26843 0.02500
C 	C 	0.95486 0.24131 0.25869 -0.05400
H 	H 	0.93970 0.23540 0.26460 0.05800
C 	C 	0.39058 0.32764 0.67236 0.29400
C 	C 	0.41359 0.31565 0.68435 -0.10300
C 	C 	0.45479 0.29715 0.70285 0.10200
C 	C 	0.47829 0.28612 0.71388 -0.03600
C 	C 	0.47639 0.26843 0.73157 0.02500
C 	C 	0.45486 0.25869 0.74131 -0.05400
H 	H 	0.43970 0.26460 0.73540 0.05800
C 	C 	0.39058 0.82764 0.17236 0.29400
C 	C 	0.41359 0.81565 0.18435 -0.10300
C 	C 	0.45479 0.79715 0.20285 0.10200
C 	C 	0.47829 0.78612 0.21388 -0.03600
C 	C 	0.47639 0.76843 0.23157 0.02500
C 	C 	0.45486 0.75869 0.24131 -0.05400
H 	H 	0.43970 0.76460 0.23540 0.05800
C 	C 	0.89058 0.32764 0.17236 0.29400
C 	C 	0.91359 0.31565 0.18435 -0.10300
C 	C 	0.95479 0.29715 0.20285 0.10200
C 	C 	0.97829 0.28612 0.21388 -0.03600
C 	C 	0.97639 0.26843 0.23157 0.02500
C 	C 	0.95486 0.25869 0.24131 -0.05400
H 	H 	0.93970 0.26460 0.23540 0.05800
C 	C 	0.89058 0.82764 0.67236 0.29400
C 	C 	0.91359 0.81565 0.68435 -0.10300
C 	C 	0.95479 0.79715 0.70285 0.10200
C 	C 	0.97829 0.78612 0.71388 -0.03600
C 	C 	0.97639 0.76843 0.73157 0.02500
C 	C 	0.95486 0.75869 0.74131 -0.05400
H 	H 	0.93970 0.76460 0.73540 0.05800
C 	C 	0.60942 0.67236 0.67236 0.29400
C 	C 	0.58641 0.68435 0.68435 -0.10300
C 	C 	0.54521 0.70285 0.70285 0.10200
C 	C 	0.52171 0.71388 0.71388 -0.03600
C 	C 	0.52361 0.73157 0.73157 0.02500
C 	C 	0.54514 0.74131 0.74131 -0.05400
H 	H 	0.56030 0.73540 0.73540 0.05800
C 	C 	0.60942 0.17236 0.17236 0.29400
C 	C 	0.58641 0.18435 0.18435 -0.10300
C 	C 	0.54521 0.20285 0.20285 0.10200
C 	C 	0.52171 0.21388 0.21388 -0.03600
C 	C 	0.52361 0.23157 0.23157 0.02500
C 	C 	0.54514 0.24131 0.24131 -0.05400
H 	H 	0.56030 0.23540 0.23540 0.05800
C 	C 	0.10942 0.67236 0.17236 0.29400
C 	C 	0.08641 0.68435 0.18435 -0.10300
C 	C 	0.04521 0.70285 0.20285 0.10200
C 	C 	0.02171 0.71388 0.21388 -0.03600
C 	C 	0.02361 0.73157 0.23157 0.02500
C 	C 	0.04514 0.74131 0.24131 -0.05400
H 	H 	0.06030 0.73540 0.23540 0.05800
C 	C 	0.10942 0.17236 0.67236 0.29400
C 	C 	0.08641 0.18435 0.68435 -0.10300
C 	C 	0.04521 0.20285 0.70285 0.10200
C 	C 	0.02171 0.21388 0.71388 -0.03600
C 	C 	0.02361 0.23157 0.73157 0.02500
C 	C 	0.04514 0.24131 0.74131 -0.05400
H 	H 	0.06030 0.23540 0.73540 0.05800
C 	C 	0.60942 0.32764 0.32764 0.29400
C 	C 	0.58641 0.31565 0.31565 -0.10300
C 	C 	0.54521 0.29715 0.29715 0.10200
C 	C 	0.52171 0.28612 0.28612 -0.03600
C 	C 	0.52361 0.26843 0.26843 0.02500
C 	C 	0.54514 0.25869 0.25869 -0.05400
H 	H 	0.56030 0.26460 0.26460 0.05800
C 	C 	0.60942 0.82764 0.82764 0.29400
C 	C 	0.58641 0.81565 0.81565 -0.10300
C 	C 	0.54521 0.79715 0.79715 0.10200
C 	C 	0.52171 0.78612 0.78612 -0.03600
C 	C 	0.52361 0.76843 0.76843 0.02500
C 	C 	0.54514 0.75869 0.75869 -0.05400
H 	H 	0.56030 0.76460 0.76460 0.05800
C 	C 	0.10942 0.32764 0.82764 0.29400
C 	C 	0.08641 0.31565 0.81565 -0.10300
C 	C 	0.04521 0.29715 0.79715 0.10200
C 	C 	0.02171 0.28612 0.78612 -0.03600
C 	C 	0.02361 0.26843 0.76843 0.02500
C 	C 	0.04514 0.25869 0.75869 -0.05400
H 	H 	0.06030 0.26460 0.76460 0.05800
C 	C 	0.10942 0.82764 0.32764 0.29400
C 	C 	0.08641 0.81565 0.31565 -0.10300
C 	C 	0.04521 0.79715 0.29715 0.10200
C 	C 	0.02171 0.78612 0.28612 -0.03600
C 	C 	0.02361 0.76843 0.26843 0.02500
C 	C 	0.04514 0.75869 0.25869 -0.05400
H 	H 	0.06030 0.76460 0.26460 0.05800
C 	C 	0.70550 0.70550 0.50000 -0.03500
H 	H 	0.69330 0.69330 0.50000 0.05200
C 	C 	0.74074 0.74074 0.50000 -0.00900
C 	C 	0.70550 0.20550 -0.00000 -0.03500
H 	H 	0.69330 0.19330 -0.00000 0.05200
C 	C 	0.74074 0.24074 -0.00000 -0.00900
C 	C 	0.20550 0.70550 -0.00000 -0.03500
H 	H 	0.19330 0.69330 -0.00000 0.05200
C 	C 	0.24074 0.74074 -0.00000 -0.00900
C 	C 	0.20550 0.20550 0.50000 -0.03500
H 	H 	0.19330 0.19330 0.50000 0.05200
C 	C 	0.24074 0.24074 0.50000 -0.00900
C 	C 	0.29450 0.29450 0.50000 -0.03500
H 	H 	0.30670 0.30670 0.50000 0.05200
C 	C 	0.25926 0.25926 0.50000 -0.00900
C 	C 	0.29450 0.79450 -0.00000 -0.03500
H 	H 	0.30670 0.80670 -0.00000 0.05200
C 	C 	0.25926 0.75926 -0.00000 -0.00900
C 	C 	0.79450 0.29450 -0.00000 -0.03500
H 	H 	0.80670 0.30670 -0.00000 0.05200
C 	C 	0.75926 0.25926 -0.00000 -0.00900
C 	C 	0.79450 0.79450 0.50000 -0.03500
H 	H 	0.80670 0.80670 0.50000 0.05200
C 	C 	0.75926 0.75926 0.50000 -0.00900
C 	C 	0.29450 0.70550 0.50000 -0.03500
H 	H 	0.30670 0.69330 0.50000 0.05200
C 	C 	0.25926 0.74074 0.50000 -0.00900
C 	C 	0.29450 0.20550 -0.00000 -0.03500
H 	H 	0.30670 0.19330 -0.00000 0.05200
C 	C 	0.25926 0.24074 -0.00000 -0.00900
C 	C 	0.79450 0.70550 -0.00000 -0.03500
H 	H 	0.80670 0.69330 -0.00000 0.05200
C 	C 	0.75926 0.74074 -0.00000 -0.00900
C 	C 	0.79450 0.20550 0.50000 -0.03500
H 	H 	0.80670 0.19330 0.50000 0.05200
C 	C 	0.75926 0.24074 0.50000 -0.00900
C 	C 	0.70550 0.29450 0.50000 -0.03500
H 	H 	0.69330 0.30670 0.50000 0.05200
C 	C 	0.74074 0.25926 0.50000 -0.00900
C 	C 	0.70550 0.79450 -0.00000 -0.03500
H 	H 	0.69330 0.80670 -0.00000 0.05200
C 	C 	0.74074 0.75926 -0.00000 -0.00900
C 	C 	0.20550 0.29450 -0.00000 -0.03500
H 	H 	0.19330 0.30670 -0.00000 0.05200
C 	C 	0.24074 0.25926 -0.00000 -0.00900
C 	C 	0.20550 0.79450 0.50000 -0.03500
H 	H 	0.19330 0.80670 0.50000 0.05200
C 	C 	0.24074 0.75926 0.50000 -0.00900
C 	C 	0.50000 0.70550 0.70550 -0.03500
H 	H 	0.50000 0.69330 0.69330 0.05200
C 	C 	0.50000 0.74074 0.74074 -0.00900
C 	C 	0.50000 0.20550 0.20550 -0.03500
H 	H 	0.50000 0.19330 0.19330 0.05200
C 	C 	0.50000 0.24074 0.24074 -0.00900
C 	C 	-0.00000 0.70550 0.20550 -0.03500
H 	H 	-0.00000 0.69330 0.19330 0.05200
C 	C 	-0.00000 0.74074 0.24074 -0.00900
C 	C 	-0.00000 0.20550 0.70550 -0.03500
H 	H 	-0.00000 0.19330 0.69330 0.05200
C 	C 	-0.00000 0.24074 0.74074 -0.00900
C 	C 	0.50000 0.29450 0.29450 -0.03500
H 	H 	0.50000 0.30670 0.30670 0.05200
C 	C 	0.50000 0.25926 0.25926 -0.00900
C 	C 	0.50000 0.79450 0.79450 -0.03500
H 	H 	0.50000 0.80670 0.80670 0.05200
C 	C 	0.50000 0.75926 0.75926 -0.00900
C 	C 	-0.00000 0.29450 0.79450 -0.03500
H 	H 	-0.00000 0.30670 0.80670 0.05200
C 	C 	-0.00000 0.25926 0.75926 -0.00900
C 	C 	-0.00000 0.79450 0.29450 -0.03500
H 	H 	-0.00000 0.80670 0.30670 0.05200
C 	C 	-0.00000 0.75926 0.25926 -0.00900
C 	C 	0.50000 0.29450 0.70550 -0.03500
H 	H 	0.50000 0.30670 0.69330 0.05200
C 	C 	0.50000 0.25926 0.74074 -0.00900
C 	C 	0.50000 0.79450 0.20550 -0.03500
H 	H 	0.50000 0.80670 0.19330 0.05200
C 	C 	0.50000 0.75926 0.24074 -0.00900
C 	C 	-0.00000 0.29450 0.20550 -0.03500
H 	H 	-0.00000 0.30670 0.19330 0.05200
C 	C 	-0.00000 0.25926 0.24074 -0.00900
C 	C 	-0.00000 0.79450 0.70550 -0.03500
H 	H 	-0.00000 0.80670 0.69330 0.05200
C 	C 	-0.00000 0.75926 0.74074 -0.00900
C 	C 	0.50000 0.70550 0.29450 -0.03500
H 	H 	0.50000 0.69330 0.30670 0.05200
C 	C 	0.50000 0.74074 0.25926 -0.00900
C 	C 	0.50000 0.20550 0.79450 -0.03500
H 	H 	0.50000 0.19330 0.80670 0.05200
C 	C 	0.50000 0.24074 0.75926 -0.00900
C 	C 	-0.00000 0.70550 0.79450 -0.03500
H 	H 	-0.00000 0.69330 0.80670 0.05200
C 	C 	-0.00000 0.74074 0.75926 -0.00900
C 	C 	-0.00000 0.20550 0.29450 -0.03500
H 	H 	-0.00000 0.19330 0.30670 0.05200
C 	C 	-0.00000 0.24074 0.25926 -0.00900
C 	C 	0.70550 0.50000 0.70550 -0.03500
H 	H 	0.69330 0.50000 0.69330 0.05200
C 	C 	0.74074 0.50000 0.74074 -0.00900
C 	C 	0.70550 -0.00000 0.20550 -0.03500
H 	H 	0.69330 -0.00000 0.19330 0.05200
C 	C 	0.74074 -0.00000 0.24074 -0.00900
C 	C 	0.20550 0.50000 0.20550 -0.03500
H 	H 	0.19330 0.50000 0.19330 0.05200
C 	C 	0.24074 0.50000 0.24074 -0.00900
C 	C 	0.20550 -0.00000 0.70550 -0.03500
H 	H 	0.19330 -0.00000 0.69330 0.05200
C 	C 	0.24074 -0.00000 0.74074 -0.00900
C 	C 	0.29450 0.50000 0.29450 -0.03500
H 	H 	0.30670 0.50000 0.30670 0.05200
C 	C 	0.25926 0.50000 0.25926 -0.00900
C 	C 	0.29450 -0.00000 0.79450 -0.03500
H 	H 	0.30670 -0.00000 0.80670 0.05200
C 	C 	0.25926 0.00000 0.75926 -0.00900
C 	C 	0.79450 0.50000 0.79450 -0.03500
H 	H 	0.80670 0.50000 0.80670 0.05200
C 	C 	0.75926 0.50000 0.75926 -0.00900
C 	C 	0.79450 0.00000 0.29450 -0.03500
H 	H 	0.80670 -0.00000 0.30670 0.05200
C 	C 	0.75926 -0.00000 0.25926 -0.00900
C 	C 	0.70550 0.50000 0.29450 -0.03500
H 	H 	0.69330 0.50000 0.30670 0.05200
C 	C 	0.74074 0.50000 0.25926 -0.00900
C 	C 	0.70550 -0.00000 0.79450 -0.03500
H 	H 	0.69330 -0.00000 0.80670 0.05200
C 	C 	0.74074 0.00000 0.75926 -0.00900
C 	C 	0.20550 0.50000 0.79450 -0.03500
H 	H 	0.19330 0.50000 0.80670 0.05200
C 	C 	0.24074 0.50000 0.75926 -0.00900
C 	C 	0.20550 0.00000 0.29450 -0.03500
H 	H 	0.19330 -0.00000 0.30670 0.05200
C 	C 	0.24074 -0.00000 0.25926 -0.00900
C 	C 	0.29450 0.50000 0.70550 -0.03500
H 	H 	0.30670 0.50000 0.69330 0.05200
C 	C 	0.25926 0.50000 0.74074 -0.00900
C 	C 	0.29450 -0.00000 0.20550 -0.03500
H 	H 	0.30670 -0.00000 0.19330 0.05200
C 	C 	0.25926 -0.00000 0.24074 -0.00900
C 	C 	0.79450 0.50000 0.20550 -0.03500
H 	H 	0.80670 0.50000 0.19330 0.05200
C 	C 	0.75926 0.50000 0.24074 -0.00900
C 	C 	0.79450 -0.00000 0.70550 -0.03500
H 	H 	0.80670 -0.00000 0.69330 0.05200
C 	C 	0.75926 -0.00000 0.74074 -0.00900
U 	U 	0.65150 0.65150 0.34850 0.00900
U 	U 	0.65150 0.15150 0.84850 0.00900
U 	U 	0.15150 0.65150 0.84850 0.00900
U 	U 	0.15150 0.15150 0.34850 0.00900
U 	U 	0.34850 0.34850 0.34850 0.00900
U 	U 	0.34850 0.84850 0.84850 0.00900
U 	U 	0.84850 0.34850 0.84850 0.00900
U 	U 	0.84850 0.84850 0.34850 0.00900
U 	U 	0.34850 0.65150 0.65150 0.00900
U 	U 	0.34850 0.15150 0.15150 0.00900
U 	U 	0.84850 0.65150 0.15150 0.00900
U 	U 	0.84850 0.15150 0.65150 0.00900
U 	U 	0.65150 0.34850 0.65150 0.00900
U 	U 	0.65150 0.84850 0.15150 0.00900
U 	U 	0.15150 0.34850 0.15150 0.00900
U 	U 	0.15150 0.84850 0.65150 0.00900
U 	U 	0.65150 0.65150 0.65150 0.00900
U 	U 	0.65150 0.15150 0.15150 0.00900
U 	U 	0.15150 0.65150 0.15150 0.00900
U 	U 	0.15150 0.15150 0.65150 0.00900
U 	U 	0.34850 0.34850 0.65150 0.00900
U 	U 	0.34850 0.84850 0.15150 0.00900
U 	U 	0.84850 0.34850 0.15150 0.00900
U 	U 	0.84850 0.84850 0.65150 0.00900
U 	U 	0.65150 0.34850 0.34850 0.00900
U 	U 	0.65150 0.84850 0.84850 0.00900
U 	U 	0.15150 0.34850 0.84850 0.00900
U 	U 	0.15150 0.84850 0.34850 0.00900
U 	U 	0.34850 0.65150 0.34850 0.00900
U 	U 	0.34850 0.15150 0.84850 0.00900
U 	U 	0.84850 0.65150 0.84850 0.00900
U 	U 	0.84850 0.15150 0.34850 0.00900
