data_crystal

_cell_length_a 16.15400
_cell_length_b 33.51000
_cell_length_c 41.62300
_cell_angle_alpha 90.00000
_cell_angle_beta  90.00000
_cell_angle_gamma 90.00000

_symmetry_space_group_name_	'P 1'
_symmetry_space_group_name_H-M	'P 1'

loop_
_symmetry_equiv_pos_as_xyz
  x,y,z

loop_
_atom_site_label
_atom_site_type_symbol
_atom_site_fract_x
_atom_site_fract_y
_atom_site_fract_z
_atom_site_charge
C 	C 	0.66630 0.11700 0.95410 -0.15500
C 	C 	0.72770 0.15040 0.00620 -0.74600
H 	H 	0.78050 0.14950 0.01670 0.23700
H 	H 	0.68560 0.14080 0.02050 0.23300
H 	H 	0.71550 0.17740 0.00010 0.23600
C 	C 	0.93710 0.23670 0.98580 0.21500
C 	C 	0.88260 0.19700 0.94870 0.22900
C 	C 	0.90870 0.30200 0.92490 0.17200
C 	C 	0.70220 0.26360 0.94450 -0.73000
H 	H 	0.65660 0.27850 0.93580 0.22600
H 	H 	0.69950 0.26390 0.96750 0.23300
H 	H 	0.69930 0.23650 0.93700 0.21200
C 	C 	0.96920 0.26960 0.00640 -0.65700
H 	H 	0.99760 0.25860 0.02460 0.19300
H 	H 	0.92390 0.28580 0.01370 0.20900
H 	H 	0.00690 0.28580 0.99410 0.19000
C 	C 	0.70110 0.09230 0.93110 0.23900
C 	C 	0.83900 0.18000 0.91970 -0.68700
H 	H 	0.84150 0.15140 0.92040 0.20800
H 	H 	0.86560 0.18940 0.90050 0.21000
H 	H 	0.78220 0.18840 0.91970 0.21000
C 	C 	0.86200 0.27150 0.93940 -0.13300
C 	C 	0.66830 0.07470 0.90110 -0.72200
H 	H 	0.71030 0.05860 0.89120 0.22000
H 	H 	0.65190 0.09560 0.88670 0.23800
H 	H 	0.62120 0.05830 0.90610 0.20700
C 	C 	0.89250 0.23640 0.95700 -0.14900
C 	C 	0.73000 0.12430 0.97640 0.23500
C 	C 	0.00060 0.30390 0.92480 -0.50100
H 	H 	0.01830 0.32730 0.91340 0.05800
H 	H 	0.02240 0.28050 0.91440 0.13300
H 	H 	0.02050 0.30500 0.94650 0.14500
C 	C 	0.78120 0.28180 0.93370 0.23500
N 	N 	0.91930 0.17360 0.97100 -0.23700
N 	N 	0.95190 0.19840 0.99290 -0.14500
N 	N 	0.77980 0.08570 0.94050 -0.17100
N 	N 	0.85970 0.32850 0.91060 -0.26400
N 	N 	0.78190 0.31570 0.91650 -0.19600
N 	N 	0.79930 0.10500 0.96810 -0.26800
O 	O 	0.05330 0.11600 0.98870 -0.65600
O 	O 	0.06960 0.15120 0.10376 -0.47700
O 	O 	0.04310 0.16630 0.04180 -0.67200
O 	O 	0.03090 0.22490 0.08780 -0.53200
O 	O 	0.93280 0.09020 0.09680 -0.75500
O 	O 	0.91050 0.16500 0.09279 -0.72400
O 	O 	0.19640 0.21500 0.09773 -0.53000
O 	O 	0.06800 0.09930 0.95140 -0.39900
O 	O 	0.05610 0.09100 0.05213 -0.74300
O 	O 	0.90660 0.12240 0.03270 -0.58900
Co	Co	0.92266 0.11206 0.98134 1.10800
Mo	Mo	0.96947 0.12745 0.06336 1.20000
Mo	Mo	0.97020 0.20221 0.12239 1.12800
Mo	Mo	0.11951 0.20200 0.06533 1.13900
O 	O 	0.13800 0.11050 0.93070 -0.21100
C 	C 	0.66630 0.61700 0.45410 -0.15600
C 	C 	0.72770 0.65040 0.50620 -0.74700
H 	H 	0.78050 0.64950 0.51670 0.23600
H 	H 	0.68560 0.64080 0.52050 0.23200
H 	H 	0.71550 0.67740 0.50010 0.23500
C 	C 	0.93710 0.73670 0.48580 0.21300
C 	C 	0.88260 0.69700 0.44870 0.22800
C 	C 	0.90870 0.80200 0.42490 0.17200
C 	C 	0.70220 0.76360 0.44450 -0.73100
H 	H 	0.65660 0.77850 0.43580 0.22500
H 	H 	0.69950 0.76390 0.46750 0.23200
H 	H 	0.69930 0.73650 0.43700 0.21100
C 	C 	0.96920 0.76960 0.50640 -0.65400
H 	H 	0.99760 0.75860 0.52460 0.19100
H 	H 	0.92390 0.78580 0.51370 0.20700
H 	H 	0.00690 0.78580 0.49410 0.18700
C 	C 	0.70110 0.59230 0.43110 0.23800
C 	C 	0.83900 0.68000 0.41970 -0.68800
H 	H 	0.84150 0.65140 0.42040 0.20700
H 	H 	0.86560 0.68940 0.40050 0.20900
H 	H 	0.78220 0.68840 0.41970 0.20900
C 	C 	0.86200 0.77150 0.43940 -0.13400
C 	C 	0.66830 0.57470 0.40110 -0.72200
H 	H 	0.71030 0.55860 0.39120 0.22000
H 	H 	0.65190 0.59560 0.38670 0.23800
H 	H 	0.62120 0.55830 0.40610 0.20700
C 	C 	0.89250 0.73640 0.45700 -0.14800
C 	C 	0.73000 0.62430 0.47640 0.23500
C 	C 	0.00060 0.80390 0.42480 -0.50300
H 	H 	0.01830 0.82730 0.41340 0.05900
H 	H 	0.02240 0.78050 0.41440 0.13400
H 	H 	0.02050 0.80500 0.44650 0.14500
C 	C 	0.78120 0.78180 0.43370 0.23500
N 	N 	0.91930 0.67360 0.47100 -0.23700
N 	N 	0.95190 0.69840 0.49290 -0.14400
N 	N 	0.77980 0.58570 0.44050 -0.17100
N 	N 	0.85970 0.82850 0.41060 -0.26400
N 	N 	0.78190 0.81570 0.41650 -0.19600
N 	N 	0.79930 0.60500 0.46810 -0.26800
O 	O 	0.05330 0.61600 0.48870 -0.65600
O 	O 	0.06960 0.65120 0.60376 -0.47800
O 	O 	0.04310 0.66630 0.54180 -0.67300
O 	O 	0.03090 0.72490 0.58780 -0.53300
O 	O 	0.93280 0.59020 0.59680 -0.75400
O 	O 	0.91050 0.66500 0.59279 -0.72300
O 	O 	0.19640 0.71500 0.59773 -0.53000
O 	O 	0.06800 0.59930 0.45140 -0.39900
O 	O 	0.05610 0.59100 0.55213 -0.74400
O 	O 	0.90660 0.62240 0.53270 -0.58900
Co	Co	0.92266 0.61206 0.48134 1.10800
Mo	Mo	0.96947 0.62745 0.56336 1.20000
Mo	Mo	0.97020 0.70221 0.62239 1.12800
Mo	Mo	0.11951 0.70200 0.56533 1.13900
O 	O 	0.13800 0.61050 0.43070 -0.21100
C 	C 	0.16630 0.11700 0.45410 -0.15600
C 	C 	0.22770 0.15040 0.50620 -0.74700
H 	H 	0.28050 0.14950 0.51670 0.23600
H 	H 	0.18560 0.14080 0.52050 0.23200
H 	H 	0.21550 0.17740 0.50010 0.23500
C 	C 	0.43710 0.23670 0.48580 0.21300
C 	C 	0.38260 0.19700 0.44870 0.22800
C 	C 	0.40870 0.30200 0.42490 0.17100
C 	C 	0.20220 0.26360 0.44450 -0.73100
H 	H 	0.15660 0.27850 0.43580 0.22500
H 	H 	0.19950 0.26390 0.46750 0.23200
H 	H 	0.19930 0.23650 0.43700 0.21100
C 	C 	0.46920 0.26960 0.50640 -0.65500
H 	H 	0.49760 0.25860 0.52460 0.19200
H 	H 	0.42390 0.28580 0.51370 0.20800
H 	H 	0.50690 0.28580 0.49410 0.18700
C 	C 	0.20110 0.09230 0.43110 0.23800
C 	C 	0.33900 0.18000 0.41970 -0.68800
H 	H 	0.34150 0.15140 0.42040 0.20700
H 	H 	0.36560 0.18940 0.40050 0.20900
H 	H 	0.28220 0.18840 0.41970 0.20900
C 	C 	0.36200 0.27150 0.43940 -0.13400
C 	C 	0.16830 0.07470 0.40110 -0.72200
H 	H 	0.21030 0.05860 0.39120 0.22000
H 	H 	0.15190 0.09560 0.38670 0.23800
H 	H 	0.12120 0.05830 0.40610 0.20700
C 	C 	0.39250 0.23640 0.45700 -0.14900
C 	C 	0.23000 0.12430 0.47640 0.23500
C 	C 	0.50060 0.30390 0.42480 -0.50200
H 	H 	0.51830 0.32730 0.41340 0.05800
H 	H 	0.52240 0.28050 0.41440 0.13300
H 	H 	0.52050 0.30500 0.44650 0.14500
C 	C 	0.28120 0.28180 0.43370 0.23500
N 	N 	0.41930 0.17360 0.47100 -0.23700
N 	N 	0.45190 0.19840 0.49290 -0.14400
N 	N 	0.27980 0.08570 0.44050 -0.17100
N 	N 	0.35970 0.32850 0.41060 -0.26400
N 	N 	0.28190 0.31570 0.41650 -0.19600
N 	N 	0.29930 0.10500 0.46810 -0.26800
O 	O 	0.55330 0.11600 0.48870 -0.65600
O 	O 	0.56960 0.15120 0.60376 -0.47800
O 	O 	0.54310 0.16630 0.54180 -0.67200
O 	O 	0.53090 0.22490 0.58780 -0.53300
O 	O 	0.43280 0.09020 0.59680 -0.75400
O 	O 	0.41050 0.16500 0.59279 -0.72300
O 	O 	0.69640 0.21500 0.59773 -0.53000
O 	O 	0.56800 0.09930 0.45140 -0.39900
O 	O 	0.55610 0.09100 0.55213 -0.74400
O 	O 	0.40660 0.12240 0.53270 -0.58900
Co	Co	0.42266 0.11206 0.48134 1.10800
Mo	Mo	0.46947 0.12745 0.56336 1.20000
Mo	Mo	0.47020 0.20221 0.62239 1.12800
Mo	Mo	0.61951 0.20200 0.56533 1.13900
O 	O 	0.63800 0.11050 0.43070 -0.21100
C 	C 	0.16630 0.61700 0.95410 -0.15600
C 	C 	0.22770 0.65040 0.00620 -0.74700
H 	H 	0.28050 0.64950 0.01670 0.23600
H 	H 	0.18560 0.64080 0.02050 0.23200
H 	H 	0.21550 0.67740 0.00010 0.23500
C 	C 	0.43710 0.73670 0.98580 0.21300
C 	C 	0.38260 0.69700 0.94870 0.22800
C 	C 	0.40870 0.80200 0.92490 0.17100
C 	C 	0.20220 0.76360 0.94450 -0.73100
H 	H 	0.15660 0.77850 0.93580 0.22500
H 	H 	0.19950 0.76390 0.96750 0.23200
H 	H 	0.19930 0.73650 0.93700 0.21100
C 	C 	0.46920 0.76960 0.00640 -0.65500
H 	H 	0.49760 0.75860 0.02460 0.19200
H 	H 	0.42390 0.78580 0.01370 0.20800
H 	H 	0.50690 0.78580 0.99410 0.18700
C 	C 	0.20110 0.59230 0.93110 0.23800
C 	C 	0.33900 0.68000 0.91970 -0.68800
H 	H 	0.34150 0.65140 0.92040 0.20700
H 	H 	0.36560 0.68940 0.90050 0.20900
H 	H 	0.28220 0.68840 0.91970 0.20900
C 	C 	0.36200 0.77150 0.93940 -0.13400
C 	C 	0.16830 0.57470 0.90110 -0.72200
H 	H 	0.21030 0.55860 0.89120 0.22000
H 	H 	0.15190 0.59560 0.88670 0.23800
H 	H 	0.12120 0.55830 0.90610 0.20700
C 	C 	0.39250 0.73640 0.95700 -0.14900
C 	C 	0.23000 0.62430 0.97640 0.23400
C 	C 	0.50060 0.80390 0.92480 -0.50200
H 	H 	0.51830 0.82730 0.91340 0.05800
H 	H 	0.52240 0.78050 0.91440 0.13300
H 	H 	0.52050 0.80500 0.94650 0.14500
C 	C 	0.28120 0.78180 0.93370 0.23500
N 	N 	0.41930 0.67360 0.97100 -0.23700
N 	N 	0.45190 0.69840 0.99290 -0.14400
N 	N 	0.27980 0.58570 0.94050 -0.17100
N 	N 	0.35970 0.82850 0.91060 -0.26400
N 	N 	0.28190 0.81570 0.91650 -0.19600
N 	N 	0.29930 0.60500 0.96810 -0.26800
O 	O 	0.55330 0.61600 0.98870 -0.65600
O 	O 	0.56960 0.65120 0.10376 -0.47800
O 	O 	0.54310 0.66630 0.04180 -0.67200
O 	O 	0.53090 0.72490 0.08780 -0.53300
O 	O 	0.43280 0.59020 0.09680 -0.75400
O 	O 	0.41050 0.66500 0.09279 -0.72300
O 	O 	0.69640 0.71500 0.09773 -0.53000
O 	O 	0.56800 0.59930 0.95140 -0.39900
O 	O 	0.55610 0.59100 0.05213 -0.74400
O 	O 	0.40660 0.62240 0.03270 -0.58900
Co	Co	0.42266 0.61206 0.98134 1.10800
Mo	Mo	0.46947 0.62745 0.06336 1.20000
Mo	Mo	0.47020 0.70221 0.12239 1.12800
Mo	Mo	0.61951 0.70200 0.06533 1.13900
O 	O 	0.63800 0.61050 0.93070 -0.21100
C 	C 	0.08370 0.63300 0.95410 -0.15500
C 	C 	0.02230 0.59960 0.00620 -0.74700
H 	H 	0.96950 0.60050 0.01670 0.23600
H 	H 	0.06440 0.60920 0.02050 0.23200
H 	H 	0.03450 0.57260 0.00010 0.23500
C 	C 	0.81290 0.51330 0.98580 0.21300
C 	C 	0.86740 0.55300 0.94870 0.22800
C 	C 	0.84130 0.44800 0.92490 0.17100
C 	C 	0.04780 0.48640 0.94450 -0.73100
H 	H 	0.09340 0.47150 0.93580 0.22500
H 	H 	0.05050 0.48610 0.96750 0.23200
H 	H 	0.05070 0.51350 0.93700 0.21100
C 	C 	0.78080 0.48040 0.00640 -0.65600
H 	H 	0.75240 0.49140 0.02460 0.19200
H 	H 	0.82610 0.46420 0.01370 0.20800
H 	H 	0.74310 0.46420 0.99410 0.18800
C 	C 	0.04890 0.65770 0.93110 0.23700
C 	C 	0.91100 0.57000 0.91970 -0.68800
H 	H 	0.90850 0.59860 0.92040 0.20700
H 	H 	0.88440 0.56060 0.90050 0.20900
H 	H 	0.96780 0.56160 0.91970 0.20900
C 	C 	0.88800 0.47850 0.93940 -0.13400
C 	C 	0.08170 0.67530 0.90110 -0.72100
H 	H 	0.03970 0.69140 0.89120 0.22000
H 	H 	0.09810 0.65440 0.88670 0.23700
H 	H 	0.12880 0.69170 0.90610 0.20700
C 	C 	0.85750 0.51360 0.95700 -0.14900
C 	C 	0.02000 0.62570 0.97640 0.23400
C 	C 	0.74940 0.44610 0.92480 -0.50200
H 	H 	0.73170 0.42270 0.91340 0.05800
H 	H 	0.72760 0.46950 0.91440 0.13300
H 	H 	0.72950 0.44500 0.94650 0.14500
C 	C 	0.96880 0.46820 0.93370 0.23500
N 	N 	0.83070 0.57640 0.97100 -0.23700
N 	N 	0.79810 0.55160 0.99290 -0.14400
N 	N 	0.97020 0.66430 0.94050 -0.17100
N 	N 	0.89030 0.42150 0.91060 -0.26400
N 	N 	0.96810 0.43430 0.91650 -0.19600
N 	N 	0.95070 0.64500 0.96810 -0.26800
O 	O 	0.69670 0.63400 0.98870 -0.65600
O 	O 	0.68040 0.59880 0.10376 -0.47800
O 	O 	0.70690 0.58370 0.04180 -0.67200
O 	O 	0.71910 0.52510 0.08780 -0.53300
O 	O 	0.81720 0.65980 0.09680 -0.75400
O 	O 	0.83950 0.58500 0.09279 -0.72300
O 	O 	0.55360 0.53500 0.09773 -0.53000
O 	O 	0.68200 0.65070 0.95140 -0.39900
O 	O 	0.69390 0.65900 0.05213 -0.74400
O 	O 	0.84340 0.62760 0.03270 -0.58900
Co	Co	0.82734 0.63794 0.98134 1.10800
Mo	Mo	0.78053 0.62255 0.06336 1.20000
Mo	Mo	0.77980 0.54779 0.12239 1.12800
Mo	Mo	0.63049 0.54800 0.06533 1.13900
O 	O 	0.61200 0.63950 0.93070 -0.21100
C 	C 	0.08370 0.13300 0.45410 -0.15600
C 	C 	0.02230 0.09960 0.50620 -0.74400
H 	H 	0.96950 0.10050 0.51670 0.23500
H 	H 	0.06440 0.10920 0.52050 0.23100
H 	H 	0.03450 0.07260 0.50010 0.23400
C 	C 	0.81290 0.01330 0.48580 0.21200
C 	C 	0.86740 0.05300 0.44870 0.22700
C 	C 	0.84130 0.94800 0.42490 0.17200
C 	C 	0.04780 0.98640 0.44450 -0.73800
H 	H 	0.09340 0.97150 0.43580 0.22700
H 	H 	0.05050 0.98610 0.46750 0.23400
H 	H 	0.05070 0.01350 0.43700 0.21400
C 	C 	0.78080 0.98040 0.50640 -0.65400
H 	H 	0.75240 0.99140 0.52460 0.19100
H 	H 	0.82610 0.96420 0.51370 0.20700
H 	H 	0.74310 0.96420 0.49410 0.18700
C 	C 	0.04890 0.15770 0.43110 0.23800
C 	C 	0.91100 0.07000 0.41970 -0.68700
H 	H 	0.90850 0.09860 0.42040 0.20700
H 	H 	0.88440 0.06060 0.40050 0.20800
H 	H 	0.96780 0.06160 0.41970 0.20800
C 	C 	0.88800 0.97850 0.43940 -0.13500
C 	C 	0.08170 0.17530 0.40110 -0.72300
H 	H 	0.03970 0.19140 0.39120 0.22000
H 	H 	0.09810 0.15440 0.38670 0.23800
H 	H 	0.12880 0.19170 0.40610 0.20700
C 	C 	0.85750 0.01360 0.45700 -0.14800
C 	C 	0.02000 0.12570 0.47640 0.23400
C 	C 	0.74940 0.94610 0.42480 -0.50300
H 	H 	0.73170 0.92270 0.41340 0.05800
H 	H 	0.72760 0.96950 0.41440 0.13400
H 	H 	0.72950 0.94500 0.44650 0.14500
C 	C 	0.96880 0.96820 0.43370 0.23800
N 	N 	0.83070 0.07640 0.47100 -0.23700
N 	N 	0.79810 0.05160 0.49290 -0.14400
N 	N 	0.97020 0.16430 0.44050 -0.17200
N 	N 	0.89030 0.92150 0.41060 -0.26400
N 	N 	0.96810 0.93430 0.41650 -0.19600
N 	N 	0.95070 0.14500 0.46810 -0.26900
O 	O 	0.69670 0.13400 0.48870 -0.65600
O 	O 	0.68040 0.09880 0.60376 -0.47800
O 	O 	0.70690 0.08370 0.54180 -0.67300
O 	O 	0.71910 0.02510 0.58780 -0.53300
O 	O 	0.81720 0.15980 0.59680 -0.75400
O 	O 	0.83950 0.08500 0.59279 -0.72400
O 	O 	0.55360 0.03500 0.59773 -0.53000
O 	O 	0.68200 0.15070 0.45140 -0.39900
O 	O 	0.69390 0.15900 0.55213 -0.74400
O 	O 	0.84340 0.12760 0.53270 -0.58900
Co	Co	0.82734 0.13794 0.48134 1.10800
Mo	Mo	0.78053 0.12255 0.56336 1.20000
Mo	Mo	0.77980 0.04779 0.62239 1.12800
Mo	Mo	0.63049 0.04800 0.56533 1.13900
O 	O 	0.61200 0.13950 0.43070 -0.21100
C 	C 	0.58370 0.63300 0.45410 -0.15600
C 	C 	0.52230 0.59960 0.50620 -0.74700
H 	H 	0.46950 0.60050 0.51670 0.23600
H 	H 	0.56440 0.60920 0.52050 0.23200
H 	H 	0.53450 0.57260 0.50010 0.23500
C 	C 	0.31290 0.51330 0.48580 0.21300
C 	C 	0.36740 0.55300 0.44870 0.22800
C 	C 	0.34130 0.44800 0.42490 0.17100
C 	C 	0.54780 0.48640 0.44450 -0.73100
H 	H 	0.59340 0.47150 0.43580 0.22500
H 	H 	0.55050 0.48610 0.46750 0.23200
H 	H 	0.55070 0.51350 0.43700 0.21100
C 	C 	0.28080 0.48040 0.50640 -0.65500
H 	H 	0.25240 0.49140 0.52460 0.19200
H 	H 	0.32610 0.46420 0.51370 0.20800
H 	H 	0.24310 0.46420 0.49410 0.18700
C 	C 	0.54890 0.65770 0.43110 0.23800
C 	C 	0.41100 0.57000 0.41970 -0.68800
H 	H 	0.40850 0.59860 0.42040 0.20700
H 	H 	0.38440 0.56060 0.40050 0.20900
H 	H 	0.46780 0.56160 0.41970 0.20900
C 	C 	0.38800 0.47850 0.43940 -0.13400
C 	C 	0.58170 0.67530 0.40110 -0.72200
H 	H 	0.53970 0.69140 0.39120 0.22000
H 	H 	0.59810 0.65440 0.38670 0.23800
H 	H 	0.62880 0.69170 0.40610 0.20700
C 	C 	0.35750 0.51360 0.45700 -0.14900
C 	C 	0.52000 0.62570 0.47640 0.23500
C 	C 	0.24940 0.44610 0.42480 -0.50200
H 	H 	0.23170 0.42270 0.41340 0.05800
H 	H 	0.22760 0.46950 0.41440 0.13300
H 	H 	0.22950 0.44500 0.44650 0.14500
C 	C 	0.46880 0.46820 0.43370 0.23500
N 	N 	0.33070 0.57640 0.47100 -0.23700
N 	N 	0.29810 0.55160 0.49290 -0.14400
N 	N 	0.47020 0.66430 0.44050 -0.17100
N 	N 	0.39030 0.42150 0.41060 -0.26400
N 	N 	0.46810 0.43430 0.41650 -0.19600
N 	N 	0.45070 0.64500 0.46810 -0.26800
O 	O 	0.19670 0.63400 0.48870 -0.65600
O 	O 	0.18040 0.59880 0.60376 -0.47800
O 	O 	0.20690 0.58370 0.54180 -0.67200
O 	O 	0.21910 0.52510 0.58780 -0.53300
O 	O 	0.31720 0.65980 0.59680 -0.75400
O 	O 	0.33950 0.58500 0.59279 -0.72300
O 	O 	0.05360 0.53500 0.59773 -0.53000
O 	O 	0.18200 0.65070 0.45140 -0.39900
O 	O 	0.19390 0.65900 0.55213 -0.74400
O 	O 	0.34340 0.62760 0.53270 -0.58900
Co	Co	0.32734 0.63794 0.48134 1.10800
Mo	Mo	0.28053 0.62255 0.56336 1.20000
Mo	Mo	0.27980 0.54779 0.62239 1.12800
Mo	Mo	0.13049 0.54800 0.56533 1.13900
O 	O 	0.11200 0.63950 0.43070 -0.21100
C 	C 	0.58370 0.13300 0.95410 -0.15600
C 	C 	0.52230 0.09960 0.00620 -0.74700
H 	H 	0.46950 0.10050 0.01670 0.23600
H 	H 	0.56440 0.10920 0.02050 0.23200
H 	H 	0.53450 0.07260 0.00010 0.23500
C 	C 	0.31290 0.01330 0.98580 0.21300
C 	C 	0.36740 0.05300 0.94870 0.22800
C 	C 	0.34130 0.94800 0.92490 0.17100
C 	C 	0.54780 0.98640 0.94450 -0.73100
H 	H 	0.59340 0.97150 0.93580 0.22500
H 	H 	0.55050 0.98610 0.96750 0.23200
H 	H 	0.55070 0.01350 0.93700 0.21100
C 	C 	0.28080 0.98040 0.00640 -0.65600
H 	H 	0.25240 0.99140 0.02460 0.19200
H 	H 	0.32610 0.96420 0.01370 0.20800
H 	H 	0.24310 0.96420 0.99410 0.18700
C 	C 	0.54890 0.15770 0.93110 0.23800
C 	C 	0.41100 0.07000 0.91970 -0.68800
H 	H 	0.40850 0.09860 0.92040 0.20700
H 	H 	0.38440 0.06060 0.90050 0.20900
H 	H 	0.46780 0.06160 0.91970 0.20900
C 	C 	0.38800 0.97850 0.93940 -0.13400
C 	C 	0.58170 0.17530 0.90110 -0.72200
H 	H 	0.53970 0.19140 0.89120 0.22000
H 	H 	0.59810 0.15440 0.88670 0.23800
H 	H 	0.62880 0.19170 0.90610 0.20700
C 	C 	0.35750 0.01360 0.95700 -0.14800
C 	C 	0.52000 0.12570 0.97640 0.23500
C 	C 	0.24940 0.94610 0.92480 -0.50200
H 	H 	0.23170 0.92270 0.91340 0.05800
H 	H 	0.22760 0.96950 0.91440 0.13300
H 	H 	0.22950 0.94500 0.94650 0.14500
C 	C 	0.46880 0.96820 0.93370 0.23500
N 	N 	0.33070 0.07640 0.97100 -0.23700
N 	N 	0.29810 0.05160 0.99290 -0.14400
N 	N 	0.47020 0.16430 0.94050 -0.17100
N 	N 	0.39030 0.92150 0.91060 -0.26400
N 	N 	0.46810 0.93430 0.91650 -0.19600
N 	N 	0.45070 0.14500 0.96810 -0.26800
O 	O 	0.19670 0.13400 0.98870 -0.65600
O 	O 	0.18040 0.09880 0.10376 -0.47800
O 	O 	0.20690 0.08370 0.04180 -0.67200
O 	O 	0.21910 0.02510 0.08780 -0.53300
O 	O 	0.31720 0.15980 0.09680 -0.75400
O 	O 	0.33950 0.08500 0.09279 -0.72300
O 	O 	0.05360 0.03500 0.09773 -0.53000
O 	O 	0.18200 0.15070 0.95140 -0.39900
O 	O 	0.19390 0.15900 0.05213 -0.74400
O 	O 	0.34340 0.12760 0.03270 -0.58900
Co	Co	0.32734 0.13794 0.98134 1.10800
Mo	Mo	0.28053 0.12255 0.06336 1.20000
Mo	Mo	0.27980 0.04779 0.12239 1.12800
Mo	Mo	0.13049 0.04800 0.06533 1.14000
O 	O 	0.11200 0.13950 0.93070 -0.21100
C 	C 	0.08370 0.11700 0.79590 -0.15600
C 	C 	0.02230 0.15040 0.74380 -0.74500
H 	H 	0.96950 0.14950 0.73330 0.23500
H 	H 	0.06440 0.14080 0.72950 0.23200
H 	H 	0.03450 0.17740 0.74990 0.23500
C 	C 	0.81290 0.23670 0.76420 0.21300
C 	C 	0.86740 0.19700 0.80130 0.22800
C 	C 	0.84130 0.30200 0.82510 0.17100
C 	C 	0.04780 0.26360 0.80550 -0.73000
H 	H 	0.09340 0.27850 0.81420 0.22500
H 	H 	0.05050 0.26390 0.78250 0.23200
H 	H 	0.05070 0.23650 0.81300 0.21100
C 	C 	0.78080 0.26960 0.74360 -0.65500
H 	H 	0.75240 0.25860 0.72540 0.19200
H 	H 	0.82610 0.28580 0.73630 0.20800
H 	H 	0.74310 0.28580 0.75590 0.18700
C 	C 	0.04890 0.09230 0.81890 0.23900
C 	C 	0.91100 0.18000 0.83030 -0.68800
H 	H 	0.90850 0.15140 0.82960 0.20700
H 	H 	0.88440 0.18940 0.84950 0.20900
H 	H 	0.96780 0.18840 0.83030 0.20800
C 	C 	0.88800 0.27150 0.81060 -0.13400
C 	C 	0.08170 0.07470 0.84890 -0.72300
H 	H 	0.03970 0.05860 0.85880 0.22100
H 	H 	0.09810 0.09560 0.86330 0.23800
H 	H 	0.12880 0.05830 0.84390 0.20700
C 	C 	0.85750 0.23640 0.79300 -0.14900
C 	C 	0.02000 0.12430 0.77360 0.23500
C 	C 	0.74940 0.30390 0.82520 -0.50200
H 	H 	0.73170 0.32730 0.83660 0.05800
H 	H 	0.72760 0.28050 0.83560 0.13300
H 	H 	0.72950 0.30500 0.80350 0.14500
C 	C 	0.96880 0.28180 0.81630 0.23500
N 	N 	0.83070 0.17360 0.77900 -0.23700
N 	N 	0.79810 0.19840 0.75710 -0.14400
N 	N 	0.97020 0.08570 0.80950 -0.17200
N 	N 	0.89030 0.32850 0.83940 -0.26400
N 	N 	0.96810 0.31570 0.83350 -0.19600
N 	N 	0.95070 0.10500 0.78190 -0.26900
O 	O 	0.69670 0.11600 0.76130 -0.65600
O 	O 	0.68040 0.15120 0.64624 -0.47800
O 	O 	0.70690 0.16630 0.70820 -0.67200
O 	O 	0.71910 0.22490 0.66220 -0.53300
O 	O 	0.81720 0.09020 0.65320 -0.75400
O 	O 	0.83950 0.16500 0.65721 -0.72400
O 	O 	0.55360 0.21500 0.65227 -0.53000
O 	O 	0.68200 0.09930 0.79860 -0.39900
O 	O 	0.69390 0.09100 0.69787 -0.74400
O 	O 	0.84340 0.12240 0.71730 -0.58900
Co	Co	0.82734 0.11206 0.76866 1.10800
Mo	Mo	0.78053 0.12745 0.68664 1.20000
Mo	Mo	0.77980 0.20221 0.62761 1.12800
Mo	Mo	0.63049 0.20200 0.68467 1.13900
O 	O 	0.61200 0.11050 0.81930 -0.21100
C 	C 	0.08370 0.61700 0.29590 -0.15600
C 	C 	0.02230 0.65040 0.24380 -0.74800
H 	H 	0.96950 0.64950 0.23330 0.23700
H 	H 	0.06440 0.64080 0.22950 0.23200
H 	H 	0.03450 0.67740 0.24990 0.23500
C 	C 	0.81290 0.73670 0.26420 0.21300
C 	C 	0.86740 0.69700 0.30130 0.22800
C 	C 	0.84130 0.80200 0.32510 0.17100
C 	C 	0.04780 0.76360 0.30550 -0.73200
H 	H 	0.09340 0.77850 0.31420 0.22600
H 	H 	0.05050 0.76390 0.28250 0.23200
H 	H 	0.05070 0.73650 0.31300 0.21100
C 	C 	0.78080 0.76960 0.24360 -0.65500
H 	H 	0.75240 0.75860 0.22540 0.19200
H 	H 	0.82610 0.78580 0.23630 0.20800
H 	H 	0.74310 0.78580 0.25590 0.18700
C 	C 	0.04890 0.59230 0.31890 0.23700
C 	C 	0.91100 0.68000 0.33030 -0.68800
H 	H 	0.90850 0.65140 0.32960 0.20700
H 	H 	0.88440 0.68940 0.34950 0.20900
H 	H 	0.96780 0.68840 0.33030 0.20900
C 	C 	0.88800 0.77150 0.31060 -0.13400
C 	C 	0.08170 0.57470 0.34890 -0.72200
H 	H 	0.03970 0.55860 0.35880 0.22000
H 	H 	0.09810 0.59560 0.36330 0.23800
H 	H 	0.12880 0.55830 0.34390 0.20700
C 	C 	0.85750 0.73640 0.29300 -0.14800
C 	C 	0.02000 0.62430 0.27360 0.23400
C 	C 	0.74940 0.80390 0.32520 -0.50200
H 	H 	0.73170 0.82730 0.33660 0.05800
H 	H 	0.72760 0.78050 0.33560 0.13300
H 	H 	0.72950 0.80500 0.30350 0.14500
C 	C 	0.96880 0.78180 0.31630 0.23600
N 	N 	0.83070 0.67360 0.27900 -0.23700
N 	N 	0.79810 0.69840 0.25710 -0.14400
N 	N 	0.97020 0.58570 0.30950 -0.17100
N 	N 	0.89030 0.82850 0.33940 -0.26400
N 	N 	0.96810 0.81570 0.33350 -0.19600
N 	N 	0.95070 0.60500 0.28190 -0.26800
O 	O 	0.69670 0.61600 0.26130 -0.65600
O 	O 	0.68040 0.65120 0.14624 -0.47800
O 	O 	0.70690 0.66630 0.20820 -0.67200
O 	O 	0.71910 0.72490 0.16220 -0.53300
O 	O 	0.81720 0.59020 0.15320 -0.75400
O 	O 	0.83950 0.66500 0.15721 -0.72300
O 	O 	0.55360 0.71500 0.15227 -0.53000
O 	O 	0.68200 0.59930 0.29860 -0.39900
O 	O 	0.69390 0.59100 0.19787 -0.74400
O 	O 	0.84340 0.62240 0.21730 -0.58900
Co	Co	0.82734 0.61206 0.26866 1.10800
Mo	Mo	0.78053 0.62745 0.18664 1.20000
Mo	Mo	0.77980 0.70221 0.12761 1.12800
Mo	Mo	0.63049 0.70200 0.18467 1.13900
O 	O 	0.61200 0.61050 0.31930 -0.21100
C 	C 	0.58370 0.11700 0.29590 -0.15600
C 	C 	0.52230 0.15040 0.24380 -0.74700
H 	H 	0.46950 0.14950 0.23330 0.23600
H 	H 	0.56440 0.14080 0.22950 0.23200
H 	H 	0.53450 0.17740 0.24990 0.23500
C 	C 	0.31290 0.23670 0.26420 0.21300
C 	C 	0.36740 0.19700 0.30130 0.22800
C 	C 	0.34130 0.30200 0.32510 0.17100
C 	C 	0.54780 0.26360 0.30550 -0.73100
H 	H 	0.59340 0.27850 0.31420 0.22500
H 	H 	0.55050 0.26390 0.28250 0.23200
H 	H 	0.55070 0.23650 0.31300 0.21100
C 	C 	0.28080 0.26960 0.24360 -0.65500
H 	H 	0.25240 0.25860 0.22540 0.19200
H 	H 	0.32610 0.28580 0.23630 0.20800
H 	H 	0.24310 0.28580 0.25590 0.18700
C 	C 	0.54890 0.09230 0.31890 0.23800
C 	C 	0.41100 0.18000 0.33030 -0.68800
H 	H 	0.40850 0.15140 0.32960 0.20700
H 	H 	0.38440 0.18940 0.34950 0.20900
H 	H 	0.46780 0.18840 0.33030 0.20900
C 	C 	0.38800 0.27150 0.31060 -0.13400
C 	C 	0.58170 0.07470 0.34890 -0.72200
H 	H 	0.53970 0.05860 0.35880 0.22000
H 	H 	0.59810 0.09560 0.36330 0.23800
H 	H 	0.62880 0.05830 0.34390 0.20700
C 	C 	0.35750 0.23640 0.29300 -0.14900
C 	C 	0.52000 0.12430 0.27360 0.23500
C 	C 	0.24940 0.30390 0.32520 -0.50200
H 	H 	0.23170 0.32730 0.33660 0.05800
H 	H 	0.22760 0.28050 0.33560 0.13300
H 	H 	0.22950 0.30500 0.30350 0.14500
C 	C 	0.46880 0.28180 0.31630 0.23500
N 	N 	0.33070 0.17360 0.27900 -0.23700
N 	N 	0.29810 0.19840 0.25710 -0.14400
N 	N 	0.47020 0.08570 0.30950 -0.17100
N 	N 	0.39030 0.32850 0.33940 -0.26400
N 	N 	0.46810 0.31570 0.33350 -0.19600
N 	N 	0.45070 0.10500 0.28190 -0.26800
O 	O 	0.19670 0.11600 0.26130 -0.65600
O 	O 	0.18040 0.15120 0.14624 -0.47800
O 	O 	0.20690 0.16630 0.20820 -0.67200
O 	O 	0.21910 0.22490 0.16220 -0.53300
O 	O 	0.31720 0.09020 0.15320 -0.75400
O 	O 	0.33950 0.16500 0.15721 -0.72300
O 	O 	0.05360 0.21500 0.15227 -0.53000
O 	O 	0.18200 0.09930 0.29860 -0.39900
O 	O 	0.19390 0.09100 0.19787 -0.74300
O 	O 	0.34340 0.12240 0.21730 -0.58900
Co	Co	0.32734 0.11206 0.26866 1.10800
Mo	Mo	0.28053 0.12745 0.18664 1.20000
Mo	Mo	0.27980 0.20221 0.12761 1.12800
Mo	Mo	0.13049 0.20200 0.18467 1.13900
O 	O 	0.11200 0.11050 0.31930 -0.21100
C 	C 	0.58370 0.61700 0.79590 -0.15600
C 	C 	0.52230 0.65040 0.74380 -0.74700
H 	H 	0.46950 0.64950 0.73330 0.23600
H 	H 	0.56440 0.64080 0.72950 0.23200
H 	H 	0.53450 0.67740 0.74990 0.23500
C 	C 	0.31290 0.73670 0.76420 0.21300
C 	C 	0.36740 0.69700 0.80130 0.22800
C 	C 	0.34130 0.80200 0.82510 0.17100
C 	C 	0.54780 0.76360 0.80550 -0.73100
H 	H 	0.59340 0.77850 0.81420 0.22500
H 	H 	0.55050 0.76390 0.78250 0.23200
H 	H 	0.55070 0.73650 0.81300 0.21100
C 	C 	0.28080 0.76960 0.74360 -0.65500
H 	H 	0.25240 0.75860 0.72540 0.19200
H 	H 	0.32610 0.78580 0.73630 0.20800
H 	H 	0.24310 0.78580 0.75590 0.18700
C 	C 	0.54890 0.59230 0.81890 0.23800
C 	C 	0.41100 0.68000 0.83030 -0.68800
H 	H 	0.40850 0.65140 0.82960 0.20700
H 	H 	0.38440 0.68940 0.84950 0.20900
H 	H 	0.46780 0.68840 0.83030 0.20900
C 	C 	0.38800 0.77150 0.81060 -0.13400
C 	C 	0.58170 0.57470 0.84890 -0.72200
H 	H 	0.53970 0.55860 0.85880 0.22000
H 	H 	0.59810 0.59560 0.86330 0.23800
H 	H 	0.62880 0.55830 0.84390 0.20700
C 	C 	0.35750 0.73640 0.79300 -0.14800
C 	C 	0.52000 0.62430 0.77360 0.23500
C 	C 	0.24940 0.80390 0.82520 -0.50200
H 	H 	0.23170 0.82730 0.83660 0.05800
H 	H 	0.22760 0.78050 0.83560 0.13300
H 	H 	0.22950 0.80500 0.80350 0.14500
C 	C 	0.46880 0.78180 0.81630 0.23500
N 	N 	0.33070 0.67360 0.77900 -0.23700
N 	N 	0.29810 0.69840 0.75710 -0.14400
N 	N 	0.47020 0.58570 0.80950 -0.17100
N 	N 	0.39030 0.82850 0.83940 -0.26400
N 	N 	0.46810 0.81570 0.83350 -0.19600
N 	N 	0.45070 0.60500 0.78190 -0.26800
O 	O 	0.19670 0.61600 0.76130 -0.65600
O 	O 	0.18040 0.65120 0.64624 -0.47800
O 	O 	0.20690 0.66630 0.70820 -0.67200
O 	O 	0.21910 0.72490 0.66220 -0.53300
O 	O 	0.31720 0.59020 0.65320 -0.75400
O 	O 	0.33950 0.66500 0.65721 -0.72300
O 	O 	0.05360 0.71500 0.65227 -0.53000
O 	O 	0.18200 0.59930 0.79860 -0.39900
O 	O 	0.19390 0.59100 0.69787 -0.74400
O 	O 	0.34340 0.62240 0.71730 -0.58900
Co	Co	0.32734 0.61206 0.76866 1.10800
Mo	Mo	0.28053 0.62745 0.68664 1.20000
Mo	Mo	0.27980 0.70221 0.62761 1.12800
Mo	Mo	0.13049 0.70200 0.68467 1.13900
O 	O 	0.11200 0.61050 0.81930 -0.21100
C 	C 	0.66630 0.63300 0.79590 -0.15600
C 	C 	0.72770 0.59960 0.74380 -0.74700
H 	H 	0.78050 0.60050 0.73330 0.23600
H 	H 	0.68560 0.60920 0.72950 0.23200
H 	H 	0.71550 0.57260 0.74990 0.23500
C 	C 	0.93710 0.51330 0.76420 0.21300
C 	C 	0.88260 0.55300 0.80130 0.22800
C 	C 	0.90870 0.44800 0.82510 0.17100
C 	C 	0.70220 0.48640 0.80550 -0.73100
H 	H 	0.65660 0.47150 0.81420 0.22500
H 	H 	0.69950 0.48610 0.78250 0.23200
H 	H 	0.69930 0.51350 0.81300 0.21100
C 	C 	0.96920 0.48040 0.74360 -0.65600
H 	H 	0.99760 0.49140 0.72540 0.19200
H 	H 	0.92390 0.46420 0.73630 0.20800
H 	H 	0.00690 0.46420 0.75590 0.18800
C 	C 	0.70110 0.65770 0.81890 0.23800
C 	C 	0.83900 0.57000 0.83030 -0.68800
H 	H 	0.84150 0.59860 0.82960 0.20700
H 	H 	0.86560 0.56060 0.84950 0.20900
H 	H 	0.78220 0.56160 0.83030 0.20900
C 	C 	0.86200 0.47850 0.81060 -0.13400
C 	C 	0.66830 0.67530 0.84890 -0.72200
H 	H 	0.71030 0.69140 0.85880 0.22000
H 	H 	0.65190 0.65440 0.86330 0.23800
H 	H 	0.62120 0.69170 0.84390 0.20700
C 	C 	0.89250 0.51360 0.79300 -0.14900
C 	C 	0.73000 0.62570 0.77360 0.23500
C 	C 	0.00060 0.44610 0.82520 -0.50200
H 	H 	0.01830 0.42270 0.83660 0.05800
H 	H 	0.02240 0.46950 0.83560 0.13300
H 	H 	0.02050 0.44500 0.80350 0.14500
C 	C 	0.78120 0.46820 0.81630 0.23500
N 	N 	0.91930 0.57640 0.77900 -0.23700
N 	N 	0.95190 0.55160 0.75710 -0.14400
N 	N 	0.77980 0.66430 0.80950 -0.17100
N 	N 	0.85970 0.42150 0.83940 -0.26400
N 	N 	0.78190 0.43430 0.83350 -0.19600
N 	N 	0.79930 0.64500 0.78190 -0.26800
O 	O 	0.05330 0.63400 0.76130 -0.65600
O 	O 	0.06960 0.59880 0.64624 -0.47800
O 	O 	0.04310 0.58370 0.70820 -0.67300
O 	O 	0.03090 0.52510 0.66220 -0.53300
O 	O 	0.93280 0.65980 0.65320 -0.75400
O 	O 	0.91050 0.58500 0.65721 -0.72300
O 	O 	0.19640 0.53500 0.65227 -0.53000
O 	O 	0.06800 0.65070 0.79860 -0.39900
O 	O 	0.05610 0.65900 0.69787 -0.74400
O 	O 	0.90660 0.62760 0.71730 -0.58900
Co	Co	0.92266 0.63794 0.76866 1.10800
Mo	Mo	0.96947 0.62255 0.68664 1.20000
Mo	Mo	0.97020 0.54779 0.62761 1.12800
Mo	Mo	0.11951 0.54800 0.68467 1.13900
O 	O 	0.13800 0.63950 0.81930 -0.21100
C 	C 	0.66630 0.13300 0.29590 -0.15600
C 	C 	0.72770 0.09960 0.24380 -0.74700
H 	H 	0.78050 0.10050 0.23330 0.23600
H 	H 	0.68560 0.10920 0.22950 0.23200
H 	H 	0.71550 0.07260 0.24990 0.23500
C 	C 	0.93710 0.01330 0.26420 0.21100
C 	C 	0.88260 0.05300 0.30130 0.22700
C 	C 	0.90870 0.94800 0.32510 0.17200
C 	C 	0.70220 0.98640 0.30550 -0.72900
H 	H 	0.65660 0.97150 0.31420 0.22500
H 	H 	0.69950 0.98610 0.28250 0.23100
H 	H 	0.69930 0.01350 0.31300 0.21000
C 	C 	0.96920 0.98040 0.24360 -0.64900
H 	H 	0.99760 0.99140 0.22540 0.19000
H 	H 	0.92390 0.96420 0.23630 0.20600
H 	H 	0.00690 0.96420 0.25590 0.18500
C 	C 	0.70110 0.15770 0.31890 0.23800
C 	C 	0.83900 0.07000 0.33030 -0.68800
H 	H 	0.84150 0.09860 0.32960 0.20700
H 	H 	0.86560 0.06060 0.34950 0.20900
H 	H 	0.78220 0.06160 0.33030 0.20900
C 	C 	0.86200 0.97850 0.31060 -0.13400
C 	C 	0.66830 0.17530 0.34890 -0.72200
H 	H 	0.71030 0.19140 0.35880 0.22000
H 	H 	0.65190 0.15440 0.36330 0.23800
H 	H 	0.62120 0.19170 0.34390 0.20700
C 	C 	0.89250 0.01360 0.29300 -0.14800
C 	C 	0.73000 0.12570 0.27360 0.23400
C 	C 	0.00060 0.94610 0.32520 -0.50400
H 	H 	0.01830 0.92270 0.33660 0.05900
H 	H 	0.02240 0.96950 0.33560 0.13400
H 	H 	0.02050 0.94500 0.30350 0.14500
C 	C 	0.78120 0.96820 0.31630 0.23500
N 	N 	0.91930 0.07640 0.27900 -0.23700
N 	N 	0.95190 0.05160 0.25710 -0.14400
N 	N 	0.77980 0.16430 0.30950 -0.17100
N 	N 	0.85970 0.92150 0.33940 -0.26400
N 	N 	0.78190 0.93430 0.33350 -0.19600
N 	N 	0.79930 0.14500 0.28190 -0.26800
O 	O 	0.05330 0.13400 0.26130 -0.65600
O 	O 	0.06960 0.09880 0.14624 -0.47700
O 	O 	0.04310 0.08370 0.20820 -0.67200
O 	O 	0.03090 0.02510 0.16220 -0.53200
O 	O 	0.93280 0.15980 0.15320 -0.75500
O 	O 	0.91050 0.08500 0.15721 -0.72400
O 	O 	0.19640 0.03500 0.15227 -0.53000
O 	O 	0.06800 0.15070 0.29860 -0.39900
O 	O 	0.05610 0.15900 0.19787 -0.74300
O 	O 	0.90660 0.12760 0.21730 -0.58900
Co	Co	0.92266 0.13794 0.26866 1.10800
Mo	Mo	0.96947 0.12255 0.18664 1.20000
Mo	Mo	0.97020 0.04779 0.12761 1.12700
Mo	Mo	0.11951 0.04800 0.18467 1.14000
O 	O 	0.13800 0.13950 0.31930 -0.21100
C 	C 	0.16630 0.63300 0.29590 -0.15600
C 	C 	0.22770 0.59960 0.24380 -0.74700
H 	H 	0.28050 0.60050 0.23330 0.23600
H 	H 	0.18560 0.60920 0.22950 0.23200
H 	H 	0.21550 0.57260 0.24990 0.23500
C 	C 	0.43710 0.51330 0.26420 0.21300
C 	C 	0.38260 0.55300 0.30130 0.22800
C 	C 	0.40870 0.44800 0.32510 0.17100
C 	C 	0.20220 0.48640 0.30550 -0.73100
H 	H 	0.15660 0.47150 0.31420 0.22500
H 	H 	0.19950 0.48610 0.28250 0.23200
H 	H 	0.19930 0.51350 0.31300 0.21100
C 	C 	0.46920 0.48040 0.24360 -0.65500
H 	H 	0.49760 0.49140 0.22540 0.19200
H 	H 	0.42390 0.46420 0.23630 0.20800
H 	H 	0.50690 0.46420 0.25590 0.18700
C 	C 	0.20110 0.65770 0.31890 0.23800
C 	C 	0.33900 0.57000 0.33030 -0.68800
H 	H 	0.34150 0.59860 0.32960 0.20700
H 	H 	0.36560 0.56060 0.34950 0.20900
H 	H 	0.28220 0.56160 0.33030 0.20900
C 	C 	0.36200 0.47850 0.31060 -0.13400
C 	C 	0.16830 0.67530 0.34890 -0.72200
H 	H 	0.21030 0.69140 0.35880 0.22000
H 	H 	0.15190 0.65440 0.36330 0.23800
H 	H 	0.12120 0.69170 0.34390 0.20700
C 	C 	0.39250 0.51360 0.29300 -0.14900
C 	C 	0.23000 0.62570 0.27360 0.23500
C 	C 	0.50060 0.44610 0.32520 -0.50200
H 	H 	0.51830 0.42270 0.33660 0.05800
H 	H 	0.52240 0.46950 0.33560 0.13300
H 	H 	0.52050 0.44500 0.30350 0.14500
C 	C 	0.28120 0.46820 0.31630 0.23500
N 	N 	0.41930 0.57640 0.27900 -0.23700
N 	N 	0.45190 0.55160 0.25710 -0.14400
N 	N 	0.27980 0.66430 0.30950 -0.17100
N 	N 	0.35970 0.42150 0.33940 -0.26400
N 	N 	0.28190 0.43430 0.33350 -0.19600
N 	N 	0.29930 0.64500 0.28190 -0.26800
O 	O 	0.55330 0.63400 0.26130 -0.65600
O 	O 	0.56960 0.59880 0.14624 -0.47800
O 	O 	0.54310 0.58370 0.20820 -0.67200
O 	O 	0.53090 0.52510 0.16220 -0.53300
O 	O 	0.43280 0.65980 0.15320 -0.75400
O 	O 	0.41050 0.58500 0.15721 -0.72300
O 	O 	0.69640 0.53500 0.15227 -0.53000
O 	O 	0.56800 0.65070 0.29860 -0.39900
O 	O 	0.55610 0.65900 0.19787 -0.74400
O 	O 	0.40660 0.62760 0.21730 -0.58900
Co	Co	0.42266 0.63794 0.26866 1.10800
Mo	Mo	0.46947 0.62255 0.18664 1.20000
Mo	Mo	0.47020 0.54779 0.12761 1.12800
Mo	Mo	0.61951 0.54800 0.18467 1.13900
O 	O 	0.63800 0.63950 0.31930 -0.21100
C 	C 	0.16630 0.13300 0.79590 -0.15600
C 	C 	0.22770 0.09960 0.74380 -0.74700
H 	H 	0.28050 0.10050 0.73330 0.23600
H 	H 	0.18560 0.10920 0.72950 0.23200
H 	H 	0.21550 0.07260 0.74990 0.23500
C 	C 	0.43710 0.01330 0.76420 0.21300
C 	C 	0.38260 0.05300 0.80130 0.22800
C 	C 	0.40870 0.94800 0.82510 0.17200
C 	C 	0.20220 0.98640 0.80550 -0.73400
H 	H 	0.15660 0.97150 0.81420 0.22600
H 	H 	0.19950 0.98610 0.78250 0.23300
H 	H 	0.19930 0.01350 0.81300 0.21200
C 	C 	0.46920 0.98040 0.74360 -0.65500
H 	H 	0.49760 0.99140 0.72540 0.19200
H 	H 	0.42390 0.96420 0.73630 0.20800
H 	H 	0.50690 0.96420 0.75590 0.18700
C 	C 	0.20110 0.15770 0.81890 0.23800
C 	C 	0.33900 0.07000 0.83030 -0.68800
H 	H 	0.34150 0.09860 0.82960 0.20700
H 	H 	0.36560 0.06060 0.84950 0.20900
H 	H 	0.28220 0.06160 0.83030 0.20900
C 	C 	0.36200 0.97850 0.81060 -0.13500
C 	C 	0.16830 0.17530 0.84890 -0.72200
H 	H 	0.21030 0.19140 0.85880 0.22000
H 	H 	0.15190 0.15440 0.86330 0.23800
H 	H 	0.12120 0.19170 0.84390 0.20700
C 	C 	0.39250 0.01360 0.79300 -0.14800
C 	C 	0.23000 0.12570 0.77360 0.23500
C 	C 	0.50060 0.94610 0.82520 -0.50300
H 	H 	0.51830 0.92270 0.83660 0.05800
H 	H 	0.52240 0.96950 0.83560 0.13300
H 	H 	0.52050 0.94500 0.80350 0.14500
C 	C 	0.28120 0.96820 0.81630 0.23600
N 	N 	0.41930 0.07640 0.77900 -0.23700
N 	N 	0.45190 0.05160 0.75710 -0.14400
N 	N 	0.27980 0.16430 0.80950 -0.17100
N 	N 	0.35970 0.92150 0.83940 -0.26400
N 	N 	0.28190 0.93430 0.83350 -0.19600
N 	N 	0.29930 0.14500 0.78190 -0.26800
O 	O 	0.55330 0.13400 0.76130 -0.65600
O 	O 	0.56960 0.09880 0.64624 -0.47800
O 	O 	0.54310 0.08370 0.70820 -0.67200
O 	O 	0.53090 0.02510 0.66220 -0.53300
O 	O 	0.43280 0.15980 0.65320 -0.75400
O 	O 	0.41050 0.08500 0.65721 -0.72300
O 	O 	0.69640 0.03500 0.65227 -0.53000
O 	O 	0.56800 0.15070 0.79860 -0.39900
O 	O 	0.55610 0.15900 0.69787 -0.74400
O 	O 	0.40660 0.12760 0.71730 -0.58900
Co	Co	0.42266 0.13794 0.76866 1.10800
Mo	Mo	0.46947 0.12255 0.68664 1.20000
Mo	Mo	0.47020 0.04779 0.62761 1.12800
Mo	Mo	0.61951 0.04800 0.68467 1.13900
O 	O 	0.63800 0.13950 0.81930 -0.21100
V 	V 	0.87529 0.12500 0.12500 1.67000
V 	V 	0.37529 0.12500 0.62500 1.67000
V 	V 	0.87471 0.62500 0.12500 1.67000
V 	V 	0.37471 0.62500 0.62500 1.67000
V 	V 	0.87471 0.12500 0.62500 1.67000
V 	V 	0.37471 0.12500 0.12500 1.67000
V 	V 	0.87529 0.62500 0.62500 1.67000
V 	V 	0.37529 0.62500 0.12500 1.67000
P 	P 	0.12500 0.12500 0.12500 0.52100
P 	P 	0.62500 0.62500 0.12500 0.52100
P 	P 	0.62500 0.12500 0.62500 0.52100
P 	P 	0.12500 0.62500 0.62500 0.52100
V 	V 	0.12500 0.12500 0.02629 1.75500
S 	S 	0.12500 0.12500 0.96110 0.95000
V 	V 	0.12500 0.62500 0.52629 1.75500
S 	S 	0.12500 0.62500 0.46110 0.95100
V 	V 	0.62500 0.62500 0.02629 1.75500
S 	S 	0.62500 0.62500 0.96110 0.95000
V 	V 	0.62500 0.12500 0.52629 1.75500
S 	S 	0.62500 0.12500 0.46110 0.95000
V 	V 	0.62500 0.12500 0.72371 1.75500
S 	S 	0.62500 0.12500 0.78890 0.95000
V 	V 	0.62500 0.62500 0.22371 1.75500
S 	S 	0.62500 0.62500 0.28890 0.95000
V 	V 	0.12500 0.62500 0.72371 1.75500
S 	S 	0.12500 0.62500 0.78890 0.95100
V 	V 	0.12500 0.12500 0.22371 1.75500
S 	S 	0.12500 0.12500 0.28890 0.95000
Co	Co	0.37500 0.87500 0.87500 1.02300
Co	Co	0.87500 0.37500 0.87500 1.02300
Co	Co	0.87500 0.87500 0.37500 1.02300
Co	Co	0.37500 0.37500 0.37500 1.02300
C 	C 	0.33370 0.88300 0.04590 -0.15600
C 	C 	0.27230 0.84960 0.99380 -0.74700
H 	H 	0.21950 0.85050 0.98330 0.23600
H 	H 	0.31440 0.85920 0.97950 0.23200
H 	H 	0.28450 0.82260 0.99990 0.23500
C 	C 	0.06290 0.76330 0.01420 0.21400
C 	C 	0.11740 0.80300 0.05130 0.22800
C 	C 	0.09130 0.69800 0.07510 0.17100
C 	C 	0.29780 0.73640 0.05550 -0.73100
H 	H 	0.34340 0.72150 0.06420 0.22500
H 	H 	0.30050 0.73610 0.03250 0.23200
H 	H 	0.30070 0.76350 0.06300 0.21100
C 	C 	0.03080 0.73040 0.99360 -0.65800
H 	H 	0.00240 0.74140 0.97540 0.19200
H 	H 	0.07610 0.71420 0.98630 0.20800
H 	H 	0.99310 0.71420 0.00590 0.18900
C 	C 	0.29890 0.90770 0.06890 0.23800
C 	C 	0.16100 0.82000 0.08030 -0.68800
H 	H 	0.15850 0.84860 0.07960 0.20700
H 	H 	0.13440 0.81060 0.09950 0.20900
H 	H 	0.21780 0.81160 0.08030 0.20900
C 	C 	0.13800 0.72850 0.06060 -0.13400
C 	C 	0.33170 0.92530 0.09890 -0.72200
H 	H 	0.28970 0.94140 0.10880 0.22000
H 	H 	0.34810 0.90440 0.11330 0.23800
H 	H 	0.37880 0.94170 0.09390 0.20700
C 	C 	0.10750 0.76360 0.04300 -0.14900
C 	C 	0.27000 0.87570 0.02360 0.23500
C 	C 	0.99940 0.69610 0.07520 -0.50100
H 	H 	0.98170 0.67270 0.08660 0.05800
H 	H 	0.97760 0.71950 0.08560 0.13300
H 	H 	0.97950 0.69500 0.05350 0.14500
C 	C 	0.21880 0.71820 0.06630 0.23500
N 	N 	0.08070 0.82640 0.02900 -0.23700
N 	N 	0.04810 0.80160 0.00710 -0.14500
N 	N 	0.22020 0.91430 0.05950 -0.17100
N 	N 	0.14030 0.67150 0.08940 -0.26400
N 	N 	0.21810 0.68430 0.08350 -0.19600
N 	N 	0.20070 0.89500 0.03190 -0.26800
O 	O 	0.94670 0.88400 0.01130 -0.65600
O 	O 	0.93040 0.84880 0.89624 -0.47700
O 	O 	0.95690 0.83370 0.95820 -0.67200
O 	O 	0.96910 0.77510 0.91220 -0.53200
O 	O 	0.06720 0.90980 0.90320 -0.75500
O 	O 	0.08950 0.83500 0.90721 -0.72400
O 	O 	0.80360 0.78500 0.90227 -0.53000
O 	O 	0.93200 0.90070 0.04860 -0.39900
O 	O 	0.94390 0.90900 0.94787 -0.74300
O 	O 	0.09340 0.87760 0.96730 -0.58900
Co	Co	0.07734 0.88794 0.01866 1.10800
Mo	Mo	0.03053 0.87255 0.93664 1.20000
Mo	Mo	0.02980 0.79779 0.87761 1.12800
Mo	Mo	0.88049 0.79800 0.93467 1.13900
O 	O 	0.86200 0.88950 0.06930 -0.21100
C 	C 	0.33370 0.38300 0.54590 -0.15600
C 	C 	0.27230 0.34960 0.49380 -0.74700
H 	H 	0.21950 0.35050 0.48330 0.23600
H 	H 	0.31440 0.35920 0.47950 0.23200
H 	H 	0.28450 0.32260 0.49990 0.23500
C 	C 	0.06290 0.26330 0.51420 0.21300
C 	C 	0.11740 0.30300 0.55130 0.22800
C 	C 	0.09130 0.19800 0.57510 0.17200
C 	C 	0.29780 0.23640 0.55550 -0.73100
H 	H 	0.34340 0.22150 0.56420 0.22500
H 	H 	0.30050 0.23610 0.53250 0.23200
H 	H 	0.30070 0.26350 0.56300 0.21100
C 	C 	0.03080 0.23040 0.49360 -0.65400
H 	H 	0.00240 0.24140 0.47540 0.19100
H 	H 	0.07610 0.21420 0.48630 0.20700
H 	H 	0.99310 0.21420 0.50590 0.18700
C 	C 	0.29890 0.40770 0.56890 0.23800
C 	C 	0.16100 0.32000 0.58030 -0.68800
H 	H 	0.15850 0.34860 0.57960 0.20700
H 	H 	0.13440 0.31060 0.59950 0.20900
H 	H 	0.21780 0.31160 0.58030 0.20900
C 	C 	0.13800 0.22850 0.56060 -0.13400
C 	C 	0.33170 0.42530 0.59890 -0.72200
H 	H 	0.28970 0.44140 0.60880 0.22000
H 	H 	0.34810 0.40440 0.61330 0.23800
H 	H 	0.37880 0.44170 0.59390 0.20700
C 	C 	0.10750 0.26360 0.54300 -0.14800
C 	C 	0.27000 0.37570 0.52360 0.23500
C 	C 	0.99940 0.19610 0.57520 -0.50300
H 	H 	0.98170 0.17270 0.58660 0.05900
H 	H 	0.97760 0.21950 0.58560 0.13400
H 	H 	0.97950 0.19500 0.55350 0.14500
C 	C 	0.21880 0.21820 0.56630 0.23500
N 	N 	0.08070 0.32640 0.52900 -0.23700
N 	N 	0.04810 0.30160 0.50710 -0.14400
N 	N 	0.22020 0.41430 0.55950 -0.17100
N 	N 	0.14030 0.17150 0.58940 -0.26400
N 	N 	0.21810 0.18430 0.58350 -0.19600
N 	N 	0.20070 0.39500 0.53190 -0.26800
O 	O 	0.94670 0.38400 0.51130 -0.65600
O 	O 	0.93040 0.34880 0.39624 -0.47800
O 	O 	0.95690 0.33370 0.45820 -0.67300
O 	O 	0.96910 0.27510 0.41220 -0.53300
O 	O 	0.06720 0.40980 0.40320 -0.75400
O 	O 	0.08950 0.33500 0.40721 -0.72300
O 	O 	0.80360 0.28500 0.40227 -0.53000
O 	O 	0.93200 0.40070 0.54860 -0.39900
O 	O 	0.94390 0.40900 0.44787 -0.74400
O 	O 	0.09340 0.37760 0.46730 -0.58900
Co	Co	0.07734 0.38794 0.51866 1.10800
Mo	Mo	0.03053 0.37255 0.43664 1.20000
Mo	Mo	0.02980 0.29779 0.37761 1.12800
Mo	Mo	0.88049 0.29800 0.43467 1.13900
O 	O 	0.86200 0.38950 0.56930 -0.21100
C 	C 	0.83370 0.88300 0.54590 -0.15600
C 	C 	0.77230 0.84960 0.49380 -0.74700
H 	H 	0.71950 0.85050 0.48330 0.23600
H 	H 	0.81440 0.85920 0.47950 0.23200
H 	H 	0.78450 0.82260 0.49990 0.23500
C 	C 	0.56290 0.76330 0.51420 0.21300
C 	C 	0.61740 0.80300 0.55130 0.22800
C 	C 	0.59130 0.69800 0.57510 0.17100
C 	C 	0.79780 0.73640 0.55550 -0.73100
H 	H 	0.84340 0.72150 0.56420 0.22500
H 	H 	0.80050 0.73610 0.53250 0.23200
H 	H 	0.80070 0.76350 0.56300 0.21100
C 	C 	0.53080 0.73040 0.49360 -0.65500
H 	H 	0.50240 0.74140 0.47540 0.19200
H 	H 	0.57610 0.71420 0.48630 0.20800
H 	H 	0.49310 0.71420 0.50590 0.18700
C 	C 	0.79890 0.90770 0.56890 0.23800
C 	C 	0.66100 0.82000 0.58030 -0.68800
H 	H 	0.65850 0.84860 0.57960 0.20700
H 	H 	0.63440 0.81060 0.59950 0.20900
H 	H 	0.71780 0.81160 0.58030 0.20900
C 	C 	0.63800 0.72850 0.56060 -0.13400
C 	C 	0.83170 0.92530 0.59890 -0.72200
H 	H 	0.78970 0.94140 0.60880 0.22000
H 	H 	0.84810 0.90440 0.61330 0.23800
H 	H 	0.87880 0.94170 0.59390 0.20700
C 	C 	0.60750 0.76360 0.54300 -0.14900
C 	C 	0.77000 0.87570 0.52360 0.23500
C 	C 	0.49940 0.69610 0.57520 -0.50200
H 	H 	0.48170 0.67270 0.58660 0.05800
H 	H 	0.47760 0.71950 0.58560 0.13300
H 	H 	0.47950 0.69500 0.55350 0.14500
C 	C 	0.71880 0.71820 0.56630 0.23500
N 	N 	0.58070 0.82640 0.52900 -0.23700
N 	N 	0.54810 0.80160 0.50710 -0.14400
N 	N 	0.72020 0.91430 0.55950 -0.17100
N 	N 	0.64030 0.67150 0.58940 -0.26400
N 	N 	0.71810 0.68430 0.58350 -0.19600
N 	N 	0.70070 0.89500 0.53190 -0.26800
O 	O 	0.44670 0.88400 0.51130 -0.65600
O 	O 	0.43040 0.84880 0.39624 -0.47800
O 	O 	0.45690 0.83370 0.45820 -0.67200
O 	O 	0.46910 0.77510 0.41220 -0.53300
O 	O 	0.56720 0.90980 0.40320 -0.75400
O 	O 	0.58950 0.83500 0.40721 -0.72300
O 	O 	0.30360 0.78500 0.40227 -0.53000
O 	O 	0.43200 0.90070 0.54860 -0.39900
O 	O 	0.44390 0.90900 0.44787 -0.74400
O 	O 	0.59340 0.87760 0.46730 -0.58900
Co	Co	0.57734 0.88794 0.51866 1.10800
Mo	Mo	0.53053 0.87255 0.43664 1.20000
Mo	Mo	0.52980 0.79779 0.37761 1.12800
Mo	Mo	0.38049 0.79800 0.43467 1.13900
O 	O 	0.36200 0.88950 0.56930 -0.21100
C 	C 	0.83370 0.38300 0.04590 -0.15600
C 	C 	0.77230 0.34960 0.99380 -0.74700
H 	H 	0.71950 0.35050 0.98330 0.23600
H 	H 	0.81440 0.35920 0.97950 0.23200
H 	H 	0.78450 0.32260 0.99990 0.23500
C 	C 	0.56290 0.26330 0.01420 0.21300
C 	C 	0.61740 0.30300 0.05130 0.22800
C 	C 	0.59130 0.19800 0.07510 0.17100
C 	C 	0.79780 0.23640 0.05550 -0.73100
H 	H 	0.84340 0.22150 0.06420 0.22500
H 	H 	0.80050 0.23610 0.03250 0.23200
H 	H 	0.80070 0.26350 0.06300 0.21100
C 	C 	0.53080 0.23040 0.99360 -0.65500
H 	H 	0.50240 0.24140 0.97540 0.19200
H 	H 	0.57610 0.21420 0.98630 0.20800
H 	H 	0.49310 0.21420 0.00590 0.18700
C 	C 	0.79890 0.40770 0.06890 0.23800
C 	C 	0.66100 0.32000 0.08030 -0.68800
H 	H 	0.65850 0.34860 0.07960 0.20700
H 	H 	0.63440 0.31060 0.09950 0.20900
H 	H 	0.71780 0.31160 0.08030 0.20900
C 	C 	0.63800 0.22850 0.06060 -0.13400
C 	C 	0.83170 0.42530 0.09890 -0.72200
H 	H 	0.78970 0.44140 0.10880 0.22000
H 	H 	0.84810 0.40440 0.11330 0.23800
H 	H 	0.87880 0.44170 0.09390 0.20700
C 	C 	0.60750 0.26360 0.04300 -0.14900
C 	C 	0.77000 0.37570 0.02360 0.23400
C 	C 	0.49940 0.19610 0.07520 -0.50200
H 	H 	0.48170 0.17270 0.08660 0.05800
H 	H 	0.47760 0.21950 0.08560 0.13300
H 	H 	0.47950 0.19500 0.05350 0.14500
C 	C 	0.71880 0.21820 0.06630 0.23500
N 	N 	0.58070 0.32640 0.02900 -0.23700
N 	N 	0.54810 0.30160 0.00710 -0.14400
N 	N 	0.72020 0.41430 0.05950 -0.17100
N 	N 	0.64030 0.17150 0.08940 -0.26400
N 	N 	0.71810 0.18430 0.08350 -0.19600
N 	N 	0.70070 0.39500 0.03190 -0.26800
O 	O 	0.44670 0.38400 0.01130 -0.65600
O 	O 	0.43040 0.34880 0.89624 -0.47800
O 	O 	0.45690 0.33370 0.95820 -0.67200
O 	O 	0.46910 0.27510 0.91220 -0.53300
O 	O 	0.56720 0.40980 0.90320 -0.75400
O 	O 	0.58950 0.33500 0.90721 -0.72300
O 	O 	0.30360 0.28500 0.90227 -0.53000
O 	O 	0.43200 0.40070 0.04860 -0.39900
O 	O 	0.44390 0.40900 0.94787 -0.74400
O 	O 	0.59340 0.37760 0.96730 -0.58900
Co	Co	0.57734 0.38794 0.01866 1.10800
Mo	Mo	0.53053 0.37255 0.93664 1.20000
Mo	Mo	0.52980 0.29779 0.87761 1.12800
Mo	Mo	0.38049 0.29800 0.93467 1.13900
O 	O 	0.36200 0.38950 0.06930 -0.21100
C 	C 	0.91630 0.36700 0.04590 -0.15500
C 	C 	0.97770 0.40040 0.99380 -0.74700
H 	H 	0.03050 0.39950 0.98330 0.23600
H 	H 	0.93560 0.39080 0.97950 0.23200
H 	H 	0.96550 0.42740 0.99990 0.23500
C 	C 	0.18710 0.48670 0.01420 0.21300
C 	C 	0.13260 0.44700 0.05130 0.22800
C 	C 	0.15870 0.55200 0.07510 0.17100
C 	C 	0.95220 0.51360 0.05550 -0.73100
H 	H 	0.90660 0.52850 0.06420 0.22500
H 	H 	0.94950 0.51390 0.03250 0.23200
H 	H 	0.94930 0.48650 0.06300 0.21100
C 	C 	0.21920 0.51960 0.99360 -0.65600
H 	H 	0.24760 0.50860 0.97540 0.19200
H 	H 	0.17390 0.53580 0.98630 0.20800
H 	H 	0.25690 0.53580 0.00590 0.18800
C 	C 	0.95110 0.34230 0.06890 0.23700
C 	C 	0.08900 0.43000 0.08030 -0.68800
H 	H 	0.09150 0.40140 0.07960 0.20700
H 	H 	0.11560 0.43940 0.09950 0.20900
H 	H 	0.03220 0.43840 0.08030 0.20900
C 	C 	0.11200 0.52150 0.06060 -0.13400
C 	C 	0.91830 0.32470 0.09890 -0.72100
H 	H 	0.96030 0.30860 0.10880 0.22000
H 	H 	0.90190 0.34560 0.11330 0.23700
H 	H 	0.87120 0.30830 0.09390 0.20700
C 	C 	0.14250 0.48640 0.04300 -0.14900
C 	C 	0.98000 0.37430 0.02360 0.23400
C 	C 	0.25060 0.55390 0.07520 -0.50200
H 	H 	0.26830 0.57730 0.08660 0.05800
H 	H 	0.27240 0.53050 0.08560 0.13300
H 	H 	0.27050 0.55500 0.05350 0.14500
C 	C 	0.03120 0.53180 0.06630 0.23500
N 	N 	0.16930 0.42360 0.02900 -0.23700
N 	N 	0.20190 0.44840 0.00710 -0.14400
N 	N 	0.02980 0.33570 0.05950 -0.17100
N 	N 	0.10970 0.57850 0.08940 -0.26400
N 	N 	0.03190 0.56570 0.08350 -0.19600
N 	N 	0.04930 0.35500 0.03190 -0.26800
O 	O 	0.30330 0.36600 0.01130 -0.65600
O 	O 	0.31960 0.40120 0.89624 -0.47800
O 	O 	0.29310 0.41630 0.95820 -0.67200
O 	O 	0.28090 0.47490 0.91220 -0.53300
O 	O 	0.18280 0.34020 0.90320 -0.75400
O 	O 	0.16050 0.41500 0.90721 -0.72300
O 	O 	0.44640 0.46500 0.90227 -0.53000
O 	O 	0.31800 0.34930 0.04860 -0.39900
O 	O 	0.30610 0.34100 0.94787 -0.74400
O 	O 	0.15660 0.37240 0.96730 -0.58900
Co	Co	0.17266 0.36206 0.01866 1.10800
Mo	Mo	0.21947 0.37745 0.93664 1.20000
Mo	Mo	0.22020 0.45221 0.87761 1.12800
Mo	Mo	0.36951 0.45200 0.93467 1.13900
O 	O 	0.38800 0.36050 0.06930 -0.21100
C 	C 	0.91630 0.86700 0.54590 -0.15600
C 	C 	0.97770 0.90040 0.49380 -0.74400
H 	H 	0.03050 0.89950 0.48330 0.23500
H 	H 	0.93560 0.89080 0.47950 0.23100
H 	H 	0.96550 0.92740 0.49990 0.23400
C 	C 	0.18710 0.98670 0.51420 0.21200
C 	C 	0.13260 0.94700 0.55130 0.22700
C 	C 	0.15870 0.05200 0.57510 0.17200
C 	C 	0.95220 0.01360 0.55550 -0.73800
H 	H 	0.90660 0.02850 0.56420 0.22700
H 	H 	0.94950 0.01390 0.53250 0.23400
H 	H 	0.94930 0.98650 0.56300 0.21400
C 	C 	0.21920 0.01960 0.49360 -0.65400
H 	H 	0.24760 0.00860 0.47540 0.19100
H 	H 	0.17390 0.03580 0.48630 0.20700
H 	H 	0.25690 0.03580 0.50590 0.18700
C 	C 	0.95110 0.84230 0.56890 0.23800
C 	C 	0.08900 0.93000 0.58030 -0.68700
H 	H 	0.09150 0.90140 0.57960 0.20700
H 	H 	0.11560 0.93940 0.59950 0.20800
H 	H 	0.03220 0.93840 0.58030 0.20800
C 	C 	0.11200 0.02150 0.56060 -0.13500
C 	C 	0.91830 0.82470 0.59890 -0.72300
H 	H 	0.96030 0.80860 0.60880 0.22000
H 	H 	0.90190 0.84560 0.61330 0.23800
H 	H 	0.87120 0.80830 0.59390 0.20700
C 	C 	0.14250 0.98640 0.54300 -0.14800
C 	C 	0.98000 0.87430 0.52360 0.23400
C 	C 	0.25060 0.05390 0.57520 -0.50300
H 	H 	0.26830 0.07730 0.58660 0.05800
H 	H 	0.27240 0.03050 0.58560 0.13400
H 	H 	0.27050 0.05500 0.55350 0.14500
C 	C 	0.03120 0.03180 0.56630 0.23800
N 	N 	0.16930 0.92360 0.52900 -0.23700
N 	N 	0.20190 0.94840 0.50710 -0.14400
N 	N 	0.02980 0.83570 0.55950 -0.17200
N 	N 	0.10970 0.07850 0.58940 -0.26400
N 	N 	0.03190 0.06570 0.58350 -0.19600
N 	N 	0.04930 0.85500 0.53190 -0.26900
O 	O 	0.30330 0.86600 0.51130 -0.65600
O 	O 	0.31960 0.90120 0.39624 -0.47800
O 	O 	0.29310 0.91630 0.45820 -0.67300
O 	O 	0.28090 0.97490 0.41220 -0.53300
O 	O 	0.18280 0.84020 0.40320 -0.75400
O 	O 	0.16050 0.91500 0.40721 -0.72400
O 	O 	0.44640 0.96500 0.40227 -0.53000
O 	O 	0.31800 0.84930 0.54860 -0.39900
O 	O 	0.30610 0.84100 0.44787 -0.74400
O 	O 	0.15660 0.87240 0.46730 -0.58900
Co	Co	0.17266 0.86206 0.51866 1.10800
Mo	Mo	0.21947 0.87745 0.43664 1.20000
Mo	Mo	0.22020 0.95221 0.37761 1.12800
Mo	Mo	0.36951 0.95200 0.43467 1.13900
O 	O 	0.38800 0.86050 0.56930 -0.21100
C 	C 	0.41630 0.36700 0.54590 -0.15600
C 	C 	0.47770 0.40040 0.49380 -0.74700
H 	H 	0.53050 0.39950 0.48330 0.23600
H 	H 	0.43560 0.39080 0.47950 0.23200
H 	H 	0.46550 0.42740 0.49990 0.23500
C 	C 	0.68710 0.48670 0.51420 0.21300
C 	C 	0.63260 0.44700 0.55130 0.22800
C 	C 	0.65870 0.55200 0.57510 0.17100
C 	C 	0.45220 0.51360 0.55550 -0.73100
H 	H 	0.40660 0.52850 0.56420 0.22500
H 	H 	0.44950 0.51390 0.53250 0.23200
H 	H 	0.44930 0.48650 0.56300 0.21100
C 	C 	0.71920 0.51960 0.49360 -0.65500
H 	H 	0.74760 0.50860 0.47540 0.19200
H 	H 	0.67390 0.53580 0.48630 0.20800
H 	H 	0.75690 0.53580 0.50590 0.18700
C 	C 	0.45110 0.34230 0.56890 0.23800
C 	C 	0.58900 0.43000 0.58030 -0.68800
H 	H 	0.59150 0.40140 0.57960 0.20700
H 	H 	0.61560 0.43940 0.59950 0.20900
H 	H 	0.53220 0.43840 0.58030 0.20900
C 	C 	0.61200 0.52150 0.56060 -0.13400
C 	C 	0.41830 0.32470 0.59890 -0.72200
H 	H 	0.46030 0.30860 0.60880 0.22000
H 	H 	0.40190 0.34560 0.61330 0.23800
H 	H 	0.37120 0.30830 0.59390 0.20700
C 	C 	0.64250 0.48640 0.54300 -0.14900
C 	C 	0.48000 0.37430 0.52360 0.23500
C 	C 	0.75060 0.55390 0.57520 -0.50200
H 	H 	0.76830 0.57730 0.58660 0.05800
H 	H 	0.77240 0.53050 0.58560 0.13300
H 	H 	0.77050 0.55500 0.55350 0.14500
C 	C 	0.53120 0.53180 0.56630 0.23500
N 	N 	0.66930 0.42360 0.52900 -0.23700
N 	N 	0.70190 0.44840 0.50710 -0.14400
N 	N 	0.52980 0.33570 0.55950 -0.17100
N 	N 	0.60970 0.57850 0.58940 -0.26400
N 	N 	0.53190 0.56570 0.58350 -0.19600
N 	N 	0.54930 0.35500 0.53190 -0.26800
O 	O 	0.80330 0.36600 0.51130 -0.65600
O 	O 	0.81960 0.40120 0.39624 -0.47800
O 	O 	0.79310 0.41630 0.45820 -0.67200
O 	O 	0.78090 0.47490 0.41220 -0.53300
O 	O 	0.68280 0.34020 0.40320 -0.75400
O 	O 	0.66050 0.41500 0.40721 -0.72300
O 	O 	0.94640 0.46500 0.40227 -0.53000
O 	O 	0.81800 0.34930 0.54860 -0.39900
O 	O 	0.80610 0.34100 0.44787 -0.74400
O 	O 	0.65660 0.37240 0.46730 -0.58900
Co	Co	0.67266 0.36206 0.51866 1.10800
Mo	Mo	0.71947 0.37745 0.43664 1.20000
Mo	Mo	0.72020 0.45221 0.37761 1.12800
Mo	Mo	0.86951 0.45200 0.43467 1.13900
O 	O 	0.88800 0.36050 0.56930 -0.21100
C 	C 	0.41630 0.86700 0.04590 -0.15600
C 	C 	0.47770 0.90040 0.99380 -0.74700
H 	H 	0.53050 0.89950 0.98330 0.23600
H 	H 	0.43560 0.89080 0.97950 0.23200
H 	H 	0.46550 0.92740 0.99990 0.23500
C 	C 	0.68710 0.98670 0.01420 0.21300
C 	C 	0.63260 0.94700 0.05130 0.22800
C 	C 	0.65870 0.05200 0.07510 0.17100
C 	C 	0.45220 0.01360 0.05550 -0.73100
H 	H 	0.40660 0.02850 0.06420 0.22500
H 	H 	0.44950 0.01390 0.03250 0.23200
H 	H 	0.44930 0.98650 0.06300 0.21100
C 	C 	0.71920 0.01960 0.99360 -0.65600
H 	H 	0.74760 0.00860 0.97540 0.19200
H 	H 	0.67390 0.03580 0.98630 0.20800
H 	H 	0.75690 0.03580 0.00590 0.18700
C 	C 	0.45110 0.84230 0.06890 0.23800
C 	C 	0.58900 0.93000 0.08030 -0.68800
H 	H 	0.59150 0.90140 0.07960 0.20700
H 	H 	0.61560 0.93940 0.09950 0.20900
H 	H 	0.53220 0.93840 0.08030 0.20900
C 	C 	0.61200 0.02150 0.06060 -0.13400
C 	C 	0.41830 0.82470 0.09890 -0.72200
H 	H 	0.46030 0.80860 0.10880 0.22000
H 	H 	0.40190 0.84560 0.11330 0.23800
H 	H 	0.37120 0.80830 0.09390 0.20700
C 	C 	0.64250 0.98640 0.04300 -0.14800
C 	C 	0.48000 0.87430 0.02360 0.23500
C 	C 	0.75060 0.05390 0.07520 -0.50200
H 	H 	0.76830 0.07730 0.08660 0.05800
H 	H 	0.77240 0.03050 0.08560 0.13300
H 	H 	0.77050 0.05500 0.05350 0.14500
C 	C 	0.53120 0.03180 0.06630 0.23500
N 	N 	0.66930 0.92360 0.02900 -0.23700
N 	N 	0.70190 0.94840 0.00710 -0.14400
N 	N 	0.52980 0.83570 0.05950 -0.17100
N 	N 	0.60970 0.07850 0.08940 -0.26400
N 	N 	0.53190 0.06570 0.08350 -0.19600
N 	N 	0.54930 0.85500 0.03190 -0.26800
O 	O 	0.80330 0.86600 0.01130 -0.65600
O 	O 	0.81960 0.90120 0.89624 -0.47800
O 	O 	0.79310 0.91630 0.95820 -0.67200
O 	O 	0.78090 0.97490 0.91220 -0.53300
O 	O 	0.68280 0.84020 0.90320 -0.75400
O 	O 	0.66050 0.91500 0.90721 -0.72300
O 	O 	0.94640 0.96500 0.90227 -0.53000
O 	O 	0.81800 0.84930 0.04860 -0.39900
O 	O 	0.80610 0.84100 0.94787 -0.74400
O 	O 	0.65660 0.87240 0.96730 -0.58900
Co	Co	0.67266 0.86206 0.01866 1.10800
Mo	Mo	0.71947 0.87745 0.93664 1.20000
Mo	Mo	0.72020 0.95221 0.87761 1.12800
Mo	Mo	0.86951 0.95200 0.93467 1.14000
O 	O 	0.88800 0.86050 0.06930 -0.21100
C 	C 	0.91630 0.88300 0.20410 -0.15600
C 	C 	0.97770 0.84960 0.25620 -0.74500
H 	H 	0.03050 0.85050 0.26670 0.23500
H 	H 	0.93560 0.85920 0.27050 0.23200
H 	H 	0.96550 0.82260 0.25010 0.23500
C 	C 	0.18710 0.76330 0.23580 0.21300
C 	C 	0.13260 0.80300 0.19870 0.22800
C 	C 	0.15870 0.69800 0.17490 0.17100
C 	C 	0.95220 0.73640 0.19450 -0.73000
H 	H 	0.90660 0.72150 0.18580 0.22500
H 	H 	0.94950 0.73610 0.21750 0.23200
H 	H 	0.94930 0.76350 0.18700 0.21100
C 	C 	0.21920 0.73040 0.25640 -0.65500
H 	H 	0.24760 0.74140 0.27460 0.19200
H 	H 	0.17390 0.71420 0.26370 0.20800
H 	H 	0.25690 0.71420 0.24410 0.18700
C 	C 	0.95110 0.90770 0.18110 0.23900
C 	C 	0.08900 0.82000 0.16970 -0.68800
H 	H 	0.09150 0.84860 0.17040 0.20700
H 	H 	0.11560 0.81060 0.15050 0.20900
H 	H 	0.03220 0.81160 0.16970 0.20800
C 	C 	0.11200 0.72850 0.18940 -0.13400
C 	C 	0.91830 0.92530 0.15110 -0.72300
H 	H 	0.96030 0.94140 0.14120 0.22100
H 	H 	0.90190 0.90440 0.13670 0.23800
H 	H 	0.87120 0.94170 0.15610 0.20700
C 	C 	0.14250 0.76360 0.20700 -0.14900
C 	C 	0.98000 0.87570 0.22640 0.23500
C 	C 	0.25060 0.69610 0.17480 -0.50200
H 	H 	0.26830 0.67270 0.16340 0.05800
H 	H 	0.27240 0.71950 0.16440 0.13300
H 	H 	0.27050 0.69500 0.19650 0.14500
C 	C 	0.03120 0.71820 0.18370 0.23500
N 	N 	0.16930 0.82640 0.22100 -0.23700
N 	N 	0.20190 0.80160 0.24290 -0.14400
N 	N 	0.02980 0.91430 0.19050 -0.17200
N 	N 	0.10970 0.67150 0.16060 -0.26400
N 	N 	0.03190 0.68430 0.16650 -0.19600
N 	N 	0.04930 0.89500 0.21810 -0.26900
O 	O 	0.30330 0.88400 0.23870 -0.65600
O 	O 	0.31960 0.84880 0.35376 -0.47800
O 	O 	0.29310 0.83370 0.29180 -0.67200
O 	O 	0.28090 0.77510 0.33780 -0.53300
O 	O 	0.18280 0.90980 0.34680 -0.75400
O 	O 	0.16050 0.83500 0.34279 -0.72400
O 	O 	0.44640 0.78500 0.34773 -0.53000
O 	O 	0.31800 0.90070 0.20140 -0.39900
O 	O 	0.30610 0.90900 0.30213 -0.74400
O 	O 	0.15660 0.87760 0.28270 -0.58900
Co	Co	0.17266 0.88794 0.23134 1.10800
Mo	Mo	0.21947 0.87255 0.31336 1.20000
Mo	Mo	0.22020 0.79779 0.37239 1.12800
Mo	Mo	0.36951 0.79800 0.31533 1.13900
O 	O 	0.38800 0.88950 0.18070 -0.21100
C 	C 	0.91630 0.38300 0.70410 -0.15600
C 	C 	0.97770 0.34960 0.75620 -0.74800
H 	H 	0.03050 0.35050 0.76670 0.23700
H 	H 	0.93560 0.35920 0.77050 0.23200
H 	H 	0.96550 0.32260 0.75010 0.23500
C 	C 	0.18710 0.26330 0.73580 0.21300
C 	C 	0.13260 0.30300 0.69870 0.22800
C 	C 	0.15870 0.19800 0.67490 0.17100
C 	C 	0.95220 0.23640 0.69450 -0.73200
H 	H 	0.90660 0.22150 0.68580 0.22600
H 	H 	0.94950 0.23610 0.71750 0.23200
H 	H 	0.94930 0.26350 0.68700 0.21100
C 	C 	0.21920 0.23040 0.75640 -0.65500
H 	H 	0.24760 0.24140 0.77460 0.19200
H 	H 	0.17390 0.21420 0.76370 0.20800
H 	H 	0.25690 0.21420 0.74410 0.18700
C 	C 	0.95110 0.40770 0.68110 0.23700
C 	C 	0.08900 0.32000 0.66970 -0.68800
H 	H 	0.09150 0.34860 0.67040 0.20700
H 	H 	0.11560 0.31060 0.65050 0.20900
H 	H 	0.03220 0.31160 0.66970 0.20900
C 	C 	0.11200 0.22850 0.68940 -0.13400
C 	C 	0.91830 0.42530 0.65110 -0.72200
H 	H 	0.96030 0.44140 0.64120 0.22000
H 	H 	0.90190 0.40440 0.63670 0.23800
H 	H 	0.87120 0.44170 0.65610 0.20700
C 	C 	0.14250 0.26360 0.70700 -0.14800
C 	C 	0.98000 0.37570 0.72640 0.23400
C 	C 	0.25060 0.19610 0.67480 -0.50200
H 	H 	0.26830 0.17270 0.66340 0.05800
H 	H 	0.27240 0.21950 0.66440 0.13300
H 	H 	0.27050 0.19500 0.69650 0.14500
C 	C 	0.03120 0.21820 0.68370 0.23600
N 	N 	0.16930 0.32640 0.72100 -0.23700
N 	N 	0.20190 0.30160 0.74290 -0.14400
N 	N 	0.02980 0.41430 0.69050 -0.17100
N 	N 	0.10970 0.17150 0.66060 -0.26400
N 	N 	0.03190 0.18430 0.66650 -0.19600
N 	N 	0.04930 0.39500 0.71810 -0.26800
O 	O 	0.30330 0.38400 0.73870 -0.65600
O 	O 	0.31960 0.34880 0.85376 -0.47800
O 	O 	0.29310 0.33370 0.79180 -0.67200
O 	O 	0.28090 0.27510 0.83780 -0.53300
O 	O 	0.18280 0.40980 0.84680 -0.75400
O 	O 	0.16050 0.33500 0.84279 -0.72300
O 	O 	0.44640 0.28500 0.84773 -0.53000
O 	O 	0.31800 0.40070 0.70140 -0.39900
O 	O 	0.30610 0.40900 0.80213 -0.74400
O 	O 	0.15660 0.37760 0.78270 -0.58900
Co	Co	0.17266 0.38794 0.73134 1.10800
Mo	Mo	0.21947 0.37255 0.81336 1.20000
Mo	Mo	0.22020 0.29779 0.87239 1.12800
Mo	Mo	0.36951 0.29800 0.81533 1.13900
O 	O 	0.38800 0.38950 0.68070 -0.21100
C 	C 	0.41630 0.88300 0.70410 -0.15600
C 	C 	0.47770 0.84960 0.75620 -0.74700
H 	H 	0.53050 0.85050 0.76670 0.23600
H 	H 	0.43560 0.85920 0.77050 0.23200
H 	H 	0.46550 0.82260 0.75010 0.23500
C 	C 	0.68710 0.76330 0.73580 0.21300
C 	C 	0.63260 0.80300 0.69870 0.22800
C 	C 	0.65870 0.69800 0.67490 0.17100
C 	C 	0.45220 0.73640 0.69450 -0.73100
H 	H 	0.40660 0.72150 0.68580 0.22500
H 	H 	0.44950 0.73610 0.71750 0.23200
H 	H 	0.44930 0.76350 0.68700 0.21100
C 	C 	0.71920 0.73040 0.75640 -0.65500
H 	H 	0.74760 0.74140 0.77460 0.19200
H 	H 	0.67390 0.71420 0.76370 0.20800
H 	H 	0.75690 0.71420 0.74410 0.18700
C 	C 	0.45110 0.90770 0.68110 0.23800
C 	C 	0.58900 0.82000 0.66970 -0.68800
H 	H 	0.59150 0.84860 0.67040 0.20700
H 	H 	0.61560 0.81060 0.65050 0.20900
H 	H 	0.53220 0.81160 0.66970 0.20900
C 	C 	0.61200 0.72850 0.68940 -0.13400
C 	C 	0.41830 0.92530 0.65110 -0.72200
H 	H 	0.46030 0.94140 0.64120 0.22000
H 	H 	0.40190 0.90440 0.63670 0.23800
H 	H 	0.37120 0.94170 0.65610 0.20700
C 	C 	0.64250 0.76360 0.70700 -0.14900
C 	C 	0.48000 0.87570 0.72640 0.23500
C 	C 	0.75060 0.69610 0.67480 -0.50200
H 	H 	0.76830 0.67270 0.66340 0.05800
H 	H 	0.77240 0.71950 0.66440 0.13300
H 	H 	0.77050 0.69500 0.69650 0.14500
C 	C 	0.53120 0.71820 0.68370 0.23500
N 	N 	0.66930 0.82640 0.72100 -0.23700
N 	N 	0.70190 0.80160 0.74290 -0.14400
N 	N 	0.52980 0.91430 0.69050 -0.17100
N 	N 	0.60970 0.67150 0.66060 -0.26400
N 	N 	0.53190 0.68430 0.66650 -0.19600
N 	N 	0.54930 0.89500 0.71810 -0.26800
O 	O 	0.80330 0.88400 0.73870 -0.65600
O 	O 	0.81960 0.84880 0.85376 -0.47800
O 	O 	0.79310 0.83370 0.79180 -0.67200
O 	O 	0.78090 0.77510 0.83780 -0.53300
O 	O 	0.68280 0.90980 0.84680 -0.75400
O 	O 	0.66050 0.83500 0.84279 -0.72300
O 	O 	0.94640 0.78500 0.84773 -0.53000
O 	O 	0.81800 0.90070 0.70140 -0.39900
O 	O 	0.80610 0.90900 0.80213 -0.74300
O 	O 	0.65660 0.87760 0.78270 -0.58900
Co	Co	0.67266 0.88794 0.73134 1.10800
Mo	Mo	0.71947 0.87255 0.81336 1.20000
Mo	Mo	0.72020 0.79779 0.87239 1.12800
Mo	Mo	0.86951 0.79800 0.81533 1.13900
O 	O 	0.88800 0.88950 0.68070 -0.21100
C 	C 	0.41630 0.38300 0.20410 -0.15600
C 	C 	0.47770 0.34960 0.25620 -0.74700
H 	H 	0.53050 0.35050 0.26670 0.23600
H 	H 	0.43560 0.35920 0.27050 0.23200
H 	H 	0.46550 0.32260 0.25010 0.23500
C 	C 	0.68710 0.26330 0.23580 0.21300
C 	C 	0.63260 0.30300 0.19870 0.22800
C 	C 	0.65870 0.19800 0.17490 0.17100
C 	C 	0.45220 0.23640 0.19450 -0.73100
H 	H 	0.40660 0.22150 0.18580 0.22500
H 	H 	0.44950 0.23610 0.21750 0.23200
H 	H 	0.44930 0.26350 0.18700 0.21100
C 	C 	0.71920 0.23040 0.25640 -0.65500
H 	H 	0.74760 0.24140 0.27460 0.19200
H 	H 	0.67390 0.21420 0.26370 0.20800
H 	H 	0.75690 0.21420 0.24410 0.18700
C 	C 	0.45110 0.40770 0.18110 0.23800
C 	C 	0.58900 0.32000 0.16970 -0.68800
H 	H 	0.59150 0.34860 0.17040 0.20700
H 	H 	0.61560 0.31060 0.15050 0.20900
H 	H 	0.53220 0.31160 0.16970 0.20900
C 	C 	0.61200 0.22850 0.18940 -0.13400
C 	C 	0.41830 0.42530 0.15110 -0.72200
H 	H 	0.46030 0.44140 0.14120 0.22000
H 	H 	0.40190 0.40440 0.13670 0.23800
H 	H 	0.37120 0.44170 0.15610 0.20700
C 	C 	0.64250 0.26360 0.20700 -0.14800
C 	C 	0.48000 0.37570 0.22640 0.23500
C 	C 	0.75060 0.19610 0.17480 -0.50200
H 	H 	0.76830 0.17270 0.16340 0.05800
H 	H 	0.77240 0.21950 0.16440 0.13300
H 	H 	0.77050 0.19500 0.19650 0.14500
C 	C 	0.53120 0.21820 0.18370 0.23500
N 	N 	0.66930 0.32640 0.22100 -0.23700
N 	N 	0.70190 0.30160 0.24290 -0.14400
N 	N 	0.52980 0.41430 0.19050 -0.17100
N 	N 	0.60970 0.17150 0.16060 -0.26400
N 	N 	0.53190 0.18430 0.16650 -0.19600
N 	N 	0.54930 0.39500 0.21810 -0.26800
O 	O 	0.80330 0.38400 0.23870 -0.65600
O 	O 	0.81960 0.34880 0.35376 -0.47800
O 	O 	0.79310 0.33370 0.29180 -0.67200
O 	O 	0.78090 0.27510 0.33780 -0.53300
O 	O 	0.68280 0.40980 0.34680 -0.75400
O 	O 	0.66050 0.33500 0.34279 -0.72300
O 	O 	0.94640 0.28500 0.34773 -0.53000
O 	O 	0.81800 0.40070 0.20140 -0.39900
O 	O 	0.80610 0.40900 0.30213 -0.74400
O 	O 	0.65660 0.37760 0.28270 -0.58900
Co	Co	0.67266 0.38794 0.23134 1.10800
Mo	Mo	0.71947 0.37255 0.31336 1.20000
Mo	Mo	0.72020 0.29779 0.37239 1.12800
Mo	Mo	0.86951 0.29800 0.31533 1.13900
O 	O 	0.88800 0.38950 0.18070 -0.21100
C 	C 	0.33370 0.36700 0.20410 -0.15600
C 	C 	0.27230 0.40040 0.25620 -0.74700
H 	H 	0.21950 0.39950 0.26670 0.23600
H 	H 	0.31440 0.39080 0.27050 0.23200
H 	H 	0.28450 0.42740 0.25010 0.23500
C 	C 	0.06290 0.48670 0.23580 0.21300
C 	C 	0.11740 0.44700 0.19870 0.22800
C 	C 	0.09130 0.55200 0.17490 0.17100
C 	C 	0.29780 0.51360 0.19450 -0.73100
H 	H 	0.34340 0.52850 0.18580 0.22500
H 	H 	0.30050 0.51390 0.21750 0.23200
H 	H 	0.30070 0.48650 0.18700 0.21100
C 	C 	0.03080 0.51960 0.25640 -0.65600
H 	H 	0.00240 0.50860 0.27460 0.19200
H 	H 	0.07610 0.53580 0.26370 0.20800
H 	H 	0.99310 0.53580 0.24410 0.18800
C 	C 	0.29890 0.34230 0.18110 0.23800
C 	C 	0.16100 0.43000 0.16970 -0.68800
H 	H 	0.15850 0.40140 0.17040 0.20700
H 	H 	0.13440 0.43940 0.15050 0.20900
H 	H 	0.21780 0.43840 0.16970 0.20900
C 	C 	0.13800 0.52150 0.18940 -0.13400
C 	C 	0.33170 0.32470 0.15110 -0.72200
H 	H 	0.28970 0.30860 0.14120 0.22000
H 	H 	0.34810 0.34560 0.13670 0.23800
H 	H 	0.37880 0.30830 0.15610 0.20700
C 	C 	0.10750 0.48640 0.20700 -0.14900
C 	C 	0.27000 0.37430 0.22640 0.23500
C 	C 	0.99940 0.55390 0.17480 -0.50200
H 	H 	0.98170 0.57730 0.16340 0.05800
H 	H 	0.97760 0.53050 0.16440 0.13300
H 	H 	0.97950 0.55500 0.19650 0.14500
C 	C 	0.21880 0.53180 0.18370 0.23500
N 	N 	0.08070 0.42360 0.22100 -0.23700
N 	N 	0.04810 0.44840 0.24290 -0.14400
N 	N 	0.22020 0.33570 0.19050 -0.17100
N 	N 	0.14030 0.57850 0.16060 -0.26400
N 	N 	0.21810 0.56570 0.16650 -0.19600
N 	N 	0.20070 0.35500 0.21810 -0.26800
O 	O 	0.94670 0.36600 0.23870 -0.65600
O 	O 	0.93040 0.40120 0.35376 -0.47800
O 	O 	0.95690 0.41630 0.29180 -0.67300
O 	O 	0.96910 0.47490 0.33780 -0.53300
O 	O 	0.06720 0.34020 0.34680 -0.75400
O 	O 	0.08950 0.41500 0.34279 -0.72300
O 	O 	0.80360 0.46500 0.34773 -0.53000
O 	O 	0.93200 0.34930 0.20140 -0.39900
O 	O 	0.94390 0.34100 0.30213 -0.74400
O 	O 	0.09340 0.37240 0.28270 -0.58900
Co	Co	0.07734 0.36206 0.23134 1.10800
Mo	Mo	0.03053 0.37745 0.31336 1.20000
Mo	Mo	0.02980 0.45221 0.37239 1.12800
Mo	Mo	0.88049 0.45200 0.31533 1.13900
O 	O 	0.86200 0.36050 0.18070 -0.21100
C 	C 	0.33370 0.86700 0.70410 -0.15600
C 	C 	0.27230 0.90040 0.75620 -0.74700
H 	H 	0.21950 0.89950 0.76670 0.23600
H 	H 	0.31440 0.89080 0.77050 0.23200
H 	H 	0.28450 0.92740 0.75010 0.23500
C 	C 	0.06290 0.98670 0.73580 0.21100
C 	C 	0.11740 0.94700 0.69870 0.22700
C 	C 	0.09130 0.05200 0.67490 0.17200
C 	C 	0.29780 0.01360 0.69450 -0.72900
H 	H 	0.34340 0.02850 0.68580 0.22500
H 	H 	0.30050 0.01390 0.71750 0.23100
H 	H 	0.30070 0.98650 0.68700 0.21000
C 	C 	0.03080 0.01960 0.75640 -0.64900
H 	H 	0.00240 0.00860 0.77460 0.19000
H 	H 	0.07610 0.03580 0.76370 0.20600
H 	H 	0.99310 0.03580 0.74410 0.18500
C 	C 	0.29890 0.84230 0.68110 0.23800
C 	C 	0.16100 0.93000 0.66970 -0.68800
H 	H 	0.15850 0.90140 0.67040 0.20700
H 	H 	0.13440 0.93940 0.65050 0.20900
H 	H 	0.21780 0.93840 0.66970 0.20900
C 	C 	0.13800 0.02150 0.68940 -0.13400
C 	C 	0.33170 0.82470 0.65110 -0.72200
H 	H 	0.28970 0.80860 0.64120 0.22000
H 	H 	0.34810 0.84560 0.63670 0.23800
H 	H 	0.37880 0.80830 0.65610 0.20700
C 	C 	0.10750 0.98640 0.70700 -0.14800
C 	C 	0.27000 0.87430 0.72640 0.23400
C 	C 	0.99940 0.05390 0.67480 -0.50400
H 	H 	0.98170 0.07730 0.66340 0.05900
H 	H 	0.97760 0.03050 0.66440 0.13400
H 	H 	0.97950 0.05500 0.69650 0.14500
C 	C 	0.21880 0.03180 0.68370 0.23500
N 	N 	0.08070 0.92360 0.72100 -0.23700
N 	N 	0.04810 0.94840 0.74290 -0.14400
N 	N 	0.22020 0.83570 0.69050 -0.17100
N 	N 	0.14030 0.07850 0.66060 -0.26400
N 	N 	0.21810 0.06570 0.66650 -0.19600
N 	N 	0.20070 0.85500 0.71810 -0.26800
O 	O 	0.94670 0.86600 0.73870 -0.65600
O 	O 	0.93040 0.90120 0.85376 -0.47700
O 	O 	0.95690 0.91630 0.79180 -0.67200
O 	O 	0.96910 0.97490 0.83780 -0.53200
O 	O 	0.06720 0.84020 0.84680 -0.75500
O 	O 	0.08950 0.91500 0.84279 -0.72400
O 	O 	0.80360 0.96500 0.84773 -0.53000
O 	O 	0.93200 0.84930 0.70140 -0.39900
O 	O 	0.94390 0.84100 0.80213 -0.74300
O 	O 	0.09340 0.87240 0.78270 -0.58900
Co	Co	0.07734 0.86206 0.73134 1.10800
Mo	Mo	0.03053 0.87745 0.81336 1.20000
Mo	Mo	0.02980 0.95221 0.87239 1.12700
Mo	Mo	0.88049 0.95200 0.81533 1.14000
O 	O 	0.86200 0.86050 0.68070 -0.21100
C 	C 	0.83370 0.36700 0.70410 -0.15600
C 	C 	0.77230 0.40040 0.75620 -0.74700
H 	H 	0.71950 0.39950 0.76670 0.23600
H 	H 	0.81440 0.39080 0.77050 0.23200
H 	H 	0.78450 0.42740 0.75010 0.23500
C 	C 	0.56290 0.48670 0.73580 0.21300
C 	C 	0.61740 0.44700 0.69870 0.22800
C 	C 	0.59130 0.55200 0.67490 0.17100
C 	C 	0.79780 0.51360 0.69450 -0.73100
H 	H 	0.84340 0.52850 0.68580 0.22500
H 	H 	0.80050 0.51390 0.71750 0.23200
H 	H 	0.80070 0.48650 0.68700 0.21100
C 	C 	0.53080 0.51960 0.75640 -0.65500
H 	H 	0.50240 0.50860 0.77460 0.19200
H 	H 	0.57610 0.53580 0.76370 0.20800
H 	H 	0.49310 0.53580 0.74410 0.18700
C 	C 	0.79890 0.34230 0.68110 0.23800
C 	C 	0.66100 0.43000 0.66970 -0.68800
H 	H 	0.65850 0.40140 0.67040 0.20700
H 	H 	0.63440 0.43940 0.65050 0.20900
H 	H 	0.71780 0.43840 0.66970 0.20900
C 	C 	0.63800 0.52150 0.68940 -0.13400
C 	C 	0.83170 0.32470 0.65110 -0.72200
H 	H 	0.78970 0.30860 0.64120 0.22000
H 	H 	0.84810 0.34560 0.63670 0.23800
H 	H 	0.87880 0.30830 0.65610 0.20700
C 	C 	0.60750 0.48640 0.70700 -0.14900
C 	C 	0.77000 0.37430 0.72640 0.23500
C 	C 	0.49940 0.55390 0.67480 -0.50200
H 	H 	0.48170 0.57730 0.66340 0.05800
H 	H 	0.47760 0.53050 0.66440 0.13300
H 	H 	0.47950 0.55500 0.69650 0.14500
C 	C 	0.71880 0.53180 0.68370 0.23500
N 	N 	0.58070 0.42360 0.72100 -0.23700
N 	N 	0.54810 0.44840 0.74290 -0.14400
N 	N 	0.72020 0.33570 0.69050 -0.17100
N 	N 	0.64030 0.57850 0.66060 -0.26400
N 	N 	0.71810 0.56570 0.66650 -0.19600
N 	N 	0.70070 0.35500 0.71810 -0.26800
O 	O 	0.44670 0.36600 0.73870 -0.65600
O 	O 	0.43040 0.40120 0.85376 -0.47800
O 	O 	0.45690 0.41630 0.79180 -0.67200
O 	O 	0.46910 0.47490 0.83780 -0.53300
O 	O 	0.56720 0.34020 0.84680 -0.75400
O 	O 	0.58950 0.41500 0.84279 -0.72300
O 	O 	0.30360 0.46500 0.84773 -0.53000
O 	O 	0.43200 0.34930 0.70140 -0.39900
O 	O 	0.44390 0.34100 0.80213 -0.74400
O 	O 	0.59340 0.37240 0.78270 -0.58900
Co	Co	0.57734 0.36206 0.73134 1.10800
Mo	Mo	0.53053 0.37745 0.81336 1.20000
Mo	Mo	0.52980 0.45221 0.87239 1.12800
Mo	Mo	0.38049 0.45200 0.81533 1.13900
O 	O 	0.36200 0.36050 0.68070 -0.21100
C 	C 	0.83370 0.86700 0.20410 -0.15600
C 	C 	0.77230 0.90040 0.25620 -0.74700
H 	H 	0.71950 0.89950 0.26670 0.23600
H 	H 	0.81440 0.89080 0.27050 0.23200
H 	H 	0.78450 0.92740 0.25010 0.23500
C 	C 	0.56290 0.98670 0.23580 0.21300
C 	C 	0.61740 0.94700 0.19870 0.22800
C 	C 	0.59130 0.05200 0.17490 0.17200
C 	C 	0.79780 0.01360 0.19450 -0.73400
H 	H 	0.84340 0.02850 0.18580 0.22600
H 	H 	0.80050 0.01390 0.21750 0.23300
H 	H 	0.80070 0.98650 0.18700 0.21200
C 	C 	0.53080 0.01960 0.25640 -0.65500
H 	H 	0.50240 0.00860 0.27460 0.19200
H 	H 	0.57610 0.03580 0.26370 0.20800
H 	H 	0.49310 0.03580 0.24410 0.18700
C 	C 	0.79890 0.84230 0.18110 0.23800
C 	C 	0.66100 0.93000 0.16970 -0.68800
H 	H 	0.65850 0.90140 0.17040 0.20700
H 	H 	0.63440 0.93940 0.15050 0.20900
H 	H 	0.71780 0.93840 0.16970 0.20900
C 	C 	0.63800 0.02150 0.18940 -0.13500
C 	C 	0.83170 0.82470 0.15110 -0.72200
H 	H 	0.78970 0.80860 0.14120 0.22000
H 	H 	0.84810 0.84560 0.13670 0.23800
H 	H 	0.87880 0.80830 0.15610 0.20700
C 	C 	0.60750 0.98640 0.20700 -0.14800
C 	C 	0.77000 0.87430 0.22640 0.23500
C 	C 	0.49940 0.05390 0.17480 -0.50300
H 	H 	0.48170 0.07730 0.16340 0.05800
H 	H 	0.47760 0.03050 0.16440 0.13300
H 	H 	0.47950 0.05500 0.19650 0.14500
C 	C 	0.71880 0.03180 0.18370 0.23600
N 	N 	0.58070 0.92360 0.22100 -0.23700
N 	N 	0.54810 0.94840 0.24290 -0.14400
N 	N 	0.72020 0.83570 0.19050 -0.17100
N 	N 	0.64030 0.07850 0.16060 -0.26400
N 	N 	0.71810 0.06570 0.16650 -0.19600
N 	N 	0.70070 0.85500 0.21810 -0.26800
O 	O 	0.44670 0.86600 0.23870 -0.65600
O 	O 	0.43040 0.90120 0.35376 -0.47800
O 	O 	0.45690 0.91630 0.29180 -0.67200
O 	O 	0.46910 0.97490 0.33780 -0.53300
O 	O 	0.56720 0.84020 0.34680 -0.75400
O 	O 	0.58950 0.91500 0.34279 -0.72300
O 	O 	0.30360 0.96500 0.34773 -0.53000
O 	O 	0.43200 0.84930 0.20140 -0.39900
O 	O 	0.44390 0.84100 0.30213 -0.74400
O 	O 	0.59340 0.87240 0.28270 -0.58900
Co	Co	0.57734 0.86206 0.23134 1.10800
Mo	Mo	0.53053 0.87745 0.31336 1.20000
Mo	Mo	0.52980 0.95221 0.37239 1.12800
Mo	Mo	0.38049 0.95200 0.31533 1.13900
O 	O 	0.36200 0.86050 0.18070 -0.21100
V 	V 	0.12471 0.87500 0.87500 1.67000
V 	V 	0.62471 0.87500 0.37500 1.67000
V 	V 	0.12529 0.37500 0.87500 1.67000
V 	V 	0.62529 0.37500 0.37500 1.67000
V 	V 	0.12529 0.87500 0.37500 1.67000
V 	V 	0.62529 0.87500 0.87500 1.67000
V 	V 	0.12471 0.37500 0.37500 1.67000
V 	V 	0.62471 0.37500 0.87500 1.67000
P 	P 	0.87500 0.87500 0.87500 0.52100
P 	P 	0.37500 0.37500 0.87500 0.52100
P 	P 	0.37500 0.87500 0.37500 0.52100
P 	P 	0.87500 0.37500 0.37500 0.52100
V 	V 	0.87500 0.87500 0.97371 1.75500
S 	S 	0.87500 0.87500 0.03890 0.95000
V 	V 	0.87500 0.37500 0.47371 1.75500
S 	S 	0.87500 0.37500 0.53890 0.95100
V 	V 	0.37500 0.37500 0.97371 1.75500
S 	S 	0.37500 0.37500 0.03890 0.95000
V 	V 	0.37500 0.87500 0.47371 1.75500
S 	S 	0.37500 0.87500 0.53890 0.95000
V 	V 	0.37500 0.87500 0.27629 1.75500
S 	S 	0.37500 0.87500 0.21110 0.95000
V 	V 	0.37500 0.37500 0.77629 1.75500
S 	S 	0.37500 0.37500 0.71110 0.95000
V 	V 	0.87500 0.37500 0.27629 1.75500
S 	S 	0.87500 0.37500 0.21110 0.95100
V 	V 	0.87500 0.87500 0.77629 1.75500
S 	S 	0.87500 0.87500 0.71110 0.95000
Co	Co	0.62500 0.12500 0.12500 1.02300
Co	Co	0.12500 0.62500 0.12500 1.02300
Co	Co	0.12500 0.12500 0.62500 1.02300
Co	Co	0.62500 0.62500 0.62500 1.02300
