data_crystal

_cell_length_a 13.61200
_cell_length_b 13.61200
_cell_length_c 29.95600
_cell_angle_alpha 90.00000
_cell_angle_beta  90.00000
_cell_angle_gamma 90.00000

_symmetry_space_group_name_	'P 1'
_symmetry_space_group_name_H-M	'P 1'

loop_
_symmetry_equiv_pos_as_xyz
  x,y,z

loop_
_atom_site_label
_atom_site_type_symbol
_atom_site_fract_x
_atom_site_fract_y
_atom_site_fract_z
_atom_site_charge
Mo	Mo	0.16274 0.10898 0.41934 1.10300
O 	O 	0.08960 0.98660 0.47000 -0.31200
N 	N 	0.05670 0.14170 0.25320 -0.24700
C 	C 	0.13100 0.19420 0.23420 0.14700
C 	C 	0.14180 0.28370 0.25540 -0.17300
N 	N 	0.02170 0.19990 0.28630 -0.18500
C 	C 	0.07210 0.28590 0.28820 0.26300
O 	O 	0.25140 0.04890 0.45550 -0.86200
C 	C 	0.05320 0.35910 0.32490 -0.94500
H 	H 	0.99990 0.33650 0.34320 0.31500
H 	H 	0.03650 0.42150 0.31210 0.24800
H 	H 	0.11130 0.36600 0.34280 0.23900
C 	C 	0.19020 0.15200 0.19650 -0.46900
H 	H 	0.16550 0.08800 0.18910 0.06000
H 	H 	0.25770 0.14680 0.20540 0.12300
H 	H 	0.18520 0.19420 0.17090 0.07900
O 	O 	0.14120 0.21170 0.45560 -0.82700
O 	O 	0.02460 0.12860 0.39400 -0.72800
Mo	Mo	0.83726 0.89102 0.41934 1.13900
O 	O 	0.91040 0.01340 0.47000 -0.35200
N 	N 	0.94330 0.85830 0.25320 -0.18900
C 	C 	0.86900 0.80580 0.23420 0.18400
C 	C 	0.85820 0.71630 0.25540 -0.07200
N 	N 	0.97830 0.80010 0.28630 -0.09100
C 	C 	0.92790 0.71410 0.28820 0.07400
O 	O 	0.74860 0.95110 0.45550 -0.77600
C 	C 	0.94680 0.64090 0.32490 -0.13900
H 	H 	0.00010 0.66350 0.34320 -0.04400
H 	H 	0.96350 0.57850 0.31210 0.05200
H 	H 	0.88870 0.63400 0.34280 0.02400
C 	C 	0.80980 0.84800 0.19650 -0.58200
H 	H 	0.83450 0.91200 0.18910 0.15900
H 	H 	0.74230 0.85320 0.20540 0.18300
H 	H 	0.81480 0.80580 0.17090 0.14000
O 	O 	0.85880 0.78830 0.45560 -0.80000
O 	O 	0.97540 0.87140 0.39400 -0.60100
Mo	Mo	0.89102 0.16274 0.41934 1.14100
O 	O 	0.01340 0.08960 0.47000 -0.40600
N 	N 	0.85830 0.05670 0.25320 -0.22500
C 	C 	0.80580 0.13100 0.23420 0.20400
C 	C 	0.71630 0.14180 0.25540 -0.19000
N 	N 	0.80010 0.02170 0.28630 -0.17400
C 	C 	0.71410 0.07210 0.28820 0.27000
O 	O 	0.95110 0.25140 0.45550 -0.76900
C 	C 	0.64090 0.05320 0.32490 -0.93300
H 	H 	0.66350 0.99990 0.34320 0.31000
H 	H 	0.57850 0.03650 0.31210 0.24500
H 	H 	0.63400 0.11130 0.34280 0.23800
C 	C 	0.84800 0.19020 0.19650 -0.59600
H 	H 	0.91200 0.16550 0.18910 0.14600
H 	H 	0.85320 0.25770 0.20540 0.18800
H 	H 	0.80580 0.18520 0.17090 0.13000
O 	O 	0.78830 0.14120 0.45560 -0.82200
O 	O 	0.87140 0.02460 0.39400 -0.68600
Mo	Mo	0.10898 0.83726 0.41934 1.10600
O 	O 	0.98660 0.91040 0.47000 -0.27700
N 	N 	0.14170 0.94330 0.25320 -0.20500
C 	C 	0.19420 0.86900 0.23420 0.13200
C 	C 	0.28370 0.85820 0.25540 -0.05000
N 	N 	0.19990 0.97830 0.28630 -0.09500
C 	C 	0.28590 0.92790 0.28820 0.05700
O 	O 	0.04890 0.74860 0.45550 -0.86100
C 	C 	0.35910 0.94680 0.32490 -0.10300
H 	H 	0.33650 0.00010 0.34320 -0.05900
H 	H 	0.42150 0.96350 0.31210 0.04100
H 	H 	0.36600 0.88870 0.34280 0.01200
C 	C 	0.15200 0.80980 0.19650 -0.46500
H 	H 	0.08800 0.83450 0.18910 0.08100
H 	H 	0.14680 0.74230 0.20540 0.12300
H 	H 	0.19420 0.81480 0.17090 0.09400
O 	O 	0.21170 0.85880 0.45560 -0.80300
O 	O 	0.12860 0.97540 0.39400 -0.63000
Mo	Mo	0.33726 0.60898 0.08066 1.12000
O 	O 	0.41040 0.48660 0.03000 -0.38600
N 	N 	0.44330 0.64170 0.24680 -0.23200
C 	C 	0.36900 0.69420 0.26580 0.18600
C 	C 	0.35820 0.78370 0.24460 -0.16000
N 	N 	0.47830 0.69990 0.21370 -0.14900
C 	C 	0.42790 0.78590 0.21180 0.20100
O 	O 	0.24860 0.54890 0.04450 -0.85100
C 	C 	0.44680 0.85910 0.17510 -0.60200
H 	H 	0.50010 0.83650 0.15680 0.15700
H 	H 	0.46350 0.92150 0.18790 0.19000
H 	H 	0.38870 0.86600 0.15720 0.15600
C 	C 	0.30980 0.65200 0.30350 -0.55600
H 	H 	0.33450 0.58800 0.31090 0.12000
H 	H 	0.24230 0.64680 0.29460 0.15800
H 	H 	0.31480 0.69420 0.32910 0.12700
O 	O 	0.35880 0.71170 0.04440 -0.83800
O 	O 	0.47540 0.62860 0.10600 -0.67400
Mo	Mo	0.66274 0.39102 0.08066 1.12100
O 	O 	0.58960 0.51340 0.03000 -0.38700
N 	N 	0.55670 0.35830 0.24680 -0.22800
C 	C 	0.63100 0.30580 0.26580 0.15800
C 	C 	0.64180 0.21630 0.24460 -0.08600
N 	N 	0.52170 0.30010 0.21370 -0.13700
C 	C 	0.57210 0.21410 0.21180 0.12200
O 	O 	0.75140 0.45110 0.04450 -0.83700
C 	C 	0.55320 0.14090 0.17510 -0.43100
H 	H 	0.49990 0.16350 0.15680 0.08700
H 	H 	0.53650 0.07850 0.18790 0.09100
H 	H 	0.61130 0.13400 0.15720 0.08400
C 	C 	0.69020 0.34800 0.30350 -0.53400
H 	H 	0.66550 0.41200 0.31090 0.11600
H 	H 	0.75770 0.35320 0.29460 0.16400
H 	H 	0.68520 0.30580 0.32910 0.11600
O 	O 	0.64120 0.28830 0.04440 -0.84300
O 	O 	0.52460 0.37140 0.10600 -0.67500
Mo	Mo	0.60898 0.66274 0.08066 1.12200
O 	O 	0.48660 0.58960 0.03000 -0.38700
N 	N 	0.64170 0.55670 0.24680 -0.23300
C 	C 	0.69420 0.63100 0.26580 0.19400
C 	C 	0.78370 0.64180 0.24460 -0.15300
N 	N 	0.69990 0.52170 0.21370 -0.14800
C 	C 	0.78590 0.57210 0.21180 0.19900
O 	O 	0.54890 0.75140 0.04450 -0.83500
C 	C 	0.85910 0.55320 0.17510 -0.60100
H 	H 	0.83650 0.49990 0.15680 0.15600
H 	H 	0.92150 0.53650 0.18790 0.19000
H 	H 	0.86600 0.61130 0.15720 0.15800
C 	C 	0.65200 0.69020 0.30350 -0.58500
H 	H 	0.58800 0.66550 0.31090 0.13200
H 	H 	0.64680 0.75770 0.29460 0.17900
H 	H 	0.69420 0.68520 0.32910 0.14000
O 	O 	0.71170 0.64120 0.04440 -0.83100
O 	O 	0.62860 0.52460 0.10600 -0.67400
Mo	Mo	0.39102 0.33726 0.08066 1.11800
O 	O 	0.51340 0.41040 0.03000 -0.38600
N 	N 	0.35830 0.44330 0.24680 -0.22800
C 	C 	0.30580 0.36900 0.26580 0.14800
C 	C 	0.21630 0.35820 0.24460 -0.09000
N 	N 	0.30010 0.47830 0.21370 -0.13800
C 	C 	0.21410 0.42790 0.21180 0.12300
O 	O 	0.45110 0.24860 0.04450 -0.85300
C 	C 	0.14090 0.44680 0.17510 -0.42900
H 	H 	0.16350 0.50010 0.15680 0.08700
H 	H 	0.07850 0.46350 0.18790 0.09000
H 	H 	0.13400 0.38870 0.15720 0.08000
C 	C 	0.34800 0.30980 0.30350 -0.50200
H 	H 	0.41200 0.33450 0.31090 0.10300
H 	H 	0.35320 0.24230 0.29460 0.14100
H 	H 	0.30580 0.31480 0.32910 0.10200
O 	O 	0.28830 0.35880 0.04440 -0.85100
O 	O 	0.37140 0.47540 0.10600 -0.67600
Mo	Mo	0.83726 0.89102 0.58066 1.13900
O 	O 	0.91040 0.01340 0.53000 -0.35200
N 	N 	0.94330 0.85830 0.74680 -0.19100
C 	C 	0.86900 0.80580 0.76580 0.19800
C 	C 	0.85820 0.71630 0.74460 -0.07500
N 	N 	0.97830 0.80010 0.71370 -0.09200
C 	C 	0.92790 0.71410 0.71180 0.07500
O 	O 	0.74860 0.95110 0.54450 -0.77600
C 	C 	0.94680 0.64090 0.67510 -0.13900
H 	H 	0.00010 0.66350 0.65680 -0.04400
H 	H 	0.96350 0.57850 0.68790 0.05100
H 	H 	0.88870 0.63400 0.65720 0.02400
C 	C 	0.80980 0.84800 0.80350 -0.62400
H 	H 	0.83450 0.91200 0.81090 0.18200
H 	H 	0.74230 0.85320 0.79460 0.19900
H 	H 	0.81480 0.80580 0.82910 0.16600
O 	O 	0.85880 0.78830 0.54440 -0.80000
O 	O 	0.97540 0.87140 0.60600 -0.60200
Mo	Mo	0.16274 0.10898 0.58066 1.10200
O 	O 	0.08960 0.98660 0.53000 -0.31300
N 	N 	0.05670 0.14170 0.74680 -0.24800
C 	C 	0.13100 0.19420 0.76580 0.16100
C 	C 	0.14180 0.28370 0.74460 -0.17700
N 	N 	0.02170 0.19990 0.71370 -0.18500
C 	C 	0.07210 0.28590 0.71180 0.26300
O 	O 	0.25140 0.04890 0.54450 -0.86200
C 	C 	0.05320 0.35910 0.67510 -0.94500
H 	H 	0.99990 0.33650 0.65680 0.31500
H 	H 	0.03650 0.42150 0.68790 0.24700
H 	H 	0.11130 0.36600 0.65720 0.23900
C 	C 	0.19020 0.15200 0.80350 -0.51100
H 	H 	0.16550 0.08800 0.81090 0.08300
H 	H 	0.25770 0.14680 0.79460 0.13900
H 	H 	0.18520 0.19420 0.82910 0.10500
O 	O 	0.14120 0.21170 0.54440 -0.82700
O 	O 	0.02460 0.12860 0.60600 -0.72900
Mo	Mo	0.10898 0.83726 0.58066 1.10600
O 	O 	0.98660 0.91040 0.53000 -0.27700
N 	N 	0.14170 0.94330 0.74680 -0.20700
C 	C 	0.19420 0.86900 0.76580 0.14600
C 	C 	0.28370 0.85820 0.74460 -0.05400
N 	N 	0.19990 0.97830 0.71370 -0.09500
C 	C 	0.28590 0.92790 0.71180 0.05700
O 	O 	0.04890 0.74860 0.54450 -0.86100
C 	C 	0.35910 0.94680 0.67510 -0.10300
H 	H 	0.33650 0.00010 0.65680 -0.06000
H 	H 	0.42150 0.96350 0.68790 0.04100
H 	H 	0.36600 0.88870 0.65720 0.01200
C 	C 	0.15200 0.80980 0.80350 -0.50700
H 	H 	0.08800 0.83450 0.81090 0.10500
H 	H 	0.14680 0.74230 0.79460 0.13900
H 	H 	0.19420 0.81480 0.82910 0.12000
O 	O 	0.21170 0.85880 0.54440 -0.80300
O 	O 	0.12860 0.97540 0.60600 -0.63000
Mo	Mo	0.89102 0.16274 0.58066 1.14000
O 	O 	0.01340 0.08960 0.53000 -0.40600
N 	N 	0.85830 0.05670 0.74680 -0.22600
C 	C 	0.80580 0.13100 0.76580 0.21800
C 	C 	0.71630 0.14180 0.74460 -0.19400
N 	N 	0.80010 0.02170 0.71370 -0.17400
C 	C 	0.71410 0.07210 0.71180 0.27000
O 	O 	0.95110 0.25140 0.54450 -0.76900
C 	C 	0.64090 0.05320 0.67510 -0.93300
H 	H 	0.66350 0.99990 0.65680 0.30900
H 	H 	0.57850 0.03650 0.68790 0.24500
H 	H 	0.63400 0.11130 0.65720 0.23800
C 	C 	0.84800 0.19020 0.80350 -0.63800
H 	H 	0.91200 0.16550 0.81090 0.17000
H 	H 	0.85320 0.25770 0.79460 0.20400
H 	H 	0.80580 0.18520 0.82910 0.15600
O 	O 	0.78830 0.14120 0.54440 -0.82200
O 	O 	0.87140 0.02460 0.60600 -0.68700
Mo	Mo	0.66274 0.39102 0.91934 1.12400
O 	O 	0.58960 0.51340 0.97000 -0.27600
N 	N 	0.55670 0.35830 0.75320 -0.22800
C 	C 	0.63100 0.30580 0.73420 0.15800
C 	C 	0.64180 0.21630 0.75540 -0.08900
N 	N 	0.52170 0.30010 0.78630 -0.13900
C 	C 	0.57210 0.21410 0.78820 0.13500
O 	O 	0.75140 0.45110 0.95550 -0.72800
C 	C 	0.55320 0.14090 0.82490 -0.47200
H 	H 	0.49990 0.16350 0.84320 0.10900
H 	H 	0.53650 0.07850 0.81210 0.10900
H 	H 	0.61130 0.13400 0.84280 0.10900
C 	C 	0.69020 0.34800 0.69650 -0.53400
H 	H 	0.66550 0.41200 0.68910 0.11600
H 	H 	0.75770 0.35320 0.70540 0.16300
H 	H 	0.68520 0.30580 0.67090 0.11600
O 	O 	0.64120 0.28830 0.95560 -0.73400
O 	O 	0.52460 0.37140 0.89400 -0.68000
Mo	Mo	0.33726 0.60898 0.91934 1.12200
O 	O 	0.41040 0.48660 0.97000 -0.27400
N 	N 	0.44330 0.64170 0.75320 -0.23300
C 	C 	0.36900 0.69420 0.73420 0.18700
C 	C 	0.35820 0.78370 0.75540 -0.16300
N 	N 	0.47830 0.69990 0.78630 -0.15000
C 	C 	0.42790 0.78590 0.78820 0.21400
O 	O 	0.24860 0.54890 0.95550 -0.74200
C 	C 	0.44680 0.85910 0.82490 -0.64400
H 	H 	0.50010 0.83650 0.84320 0.17900
H 	H 	0.46350 0.92150 0.81210 0.20700
H 	H 	0.38870 0.86600 0.84280 0.18100
C 	C 	0.30980 0.65200 0.69650 -0.55600
H 	H 	0.33450 0.58800 0.68910 0.11900
H 	H 	0.24230 0.64680 0.70540 0.15800
H 	H 	0.31480 0.69420 0.67090 0.12600
O 	O 	0.35880 0.71170 0.95560 -0.72900
O 	O 	0.47540 0.62860 0.89400 -0.67900
Mo	Mo	0.39102 0.33726 0.91934 1.12100
O 	O 	0.51340 0.41040 0.97000 -0.27400
N 	N 	0.35830 0.44330 0.75320 -0.22800
C 	C 	0.30580 0.36900 0.73420 0.14900
C 	C 	0.21630 0.35820 0.75540 -0.09400
N 	N 	0.30010 0.47830 0.78630 -0.13900
C 	C 	0.21410 0.42790 0.78820 0.13600
O 	O 	0.45110 0.24860 0.95550 -0.74500
C 	C 	0.14090 0.44680 0.82490 -0.47100
H 	H 	0.16350 0.50010 0.84320 0.10900
H 	H 	0.07850 0.46350 0.81210 0.10800
H 	H 	0.13400 0.38870 0.84280 0.10500
C 	C 	0.34800 0.30980 0.69650 -0.50300
H 	H 	0.41200 0.33450 0.68910 0.10300
H 	H 	0.35320 0.24230 0.70540 0.14100
H 	H 	0.30580 0.31480 0.67090 0.10200
O 	O 	0.28830 0.35880 0.95560 -0.74200
O 	O 	0.37140 0.47540 0.89400 -0.68100
Mo	Mo	0.60898 0.66274 0.91934 1.12500
O 	O 	0.48660 0.58960 0.97000 -0.27600
N 	N 	0.64170 0.55670 0.75320 -0.23300
C 	C 	0.69420 0.63100 0.73420 0.19500
C 	C 	0.78370 0.64180 0.75540 -0.15700
N 	N 	0.69990 0.52170 0.78630 -0.14900
C 	C 	0.78590 0.57210 0.78820 0.21200
O 	O 	0.54890 0.75140 0.95550 -0.72600
C 	C 	0.85910 0.55320 0.82490 -0.64300
H 	H 	0.83650 0.49990 0.84320 0.17800
H 	H 	0.92150 0.53650 0.81210 0.20700
H 	H 	0.86600 0.61130 0.84280 0.18300
C 	C 	0.65200 0.69020 0.69650 -0.58500
H 	H 	0.58800 0.66550 0.68910 0.13200
H 	H 	0.64680 0.75770 0.70540 0.17900
H 	H 	0.69420 0.68520 0.67090 0.13900
O 	O 	0.71170 0.64120 0.95560 -0.72200
O 	O 	0.62860 0.52460 0.89400 -0.67800
Ni	Ni	0.00000 0.00000 0.24727 0.99500
V 	V 	0.00000 0.00000 0.37039 1.74400
O 	O 	0.00000 0.00000 0.31600 -0.78100
Ni	Ni	0.50000 0.50000 0.25273 1.05400
V 	V 	0.50000 0.50000 0.12961 1.79400
O 	O 	0.50000 0.50000 0.18400 -0.70500
Ni	Ni	0.00000 0.00000 0.75273 0.99700
V 	V 	0.00000 0.00000 0.62961 1.74300
O 	O 	0.00000 0.00000 0.68400 -0.78200
Ni	Ni	0.50000 0.50000 0.74727 1.05300
V 	V 	0.50000 0.50000 0.87039 1.79200
O 	O 	0.50000 0.50000 0.81600 -0.70400
P 	P 	0.00000 0.00000 0.50000 0.67300
P 	P 	0.50000 0.50000 -0.00000 0.66800
Mo	Mo	0.26028 0.94800 0.50000 1.13000
V 	V 	0.24720 0.16210 0.50000 1.57500
Mo	Mo	0.73972 0.05200 0.50000 1.06000
V 	V 	0.75280 0.83790 0.50000 1.58200
Mo	Mo	0.05200 0.26028 0.50000 1.05900
V 	V 	0.83790 0.24720 0.50000 1.58200
Mo	Mo	0.94800 0.73972 0.50000 1.12600
V 	V 	0.16210 0.75280 0.50000 1.57500
Mo	Mo	0.23972 0.44800 -0.00000 1.00800
V 	V 	0.25280 0.66210 -0.00000 1.52000
Mo	Mo	0.76028 0.55200 -0.00000 1.02100
V 	V 	0.74720 0.33790 -0.00000 1.52500
Mo	Mo	0.44800 0.76028 -0.00000 1.02000
V 	V 	0.66210 0.74720 -0.00000 1.53000
Mo	Mo	0.55200 0.23972 -0.00000 1.01000
V 	V 	0.33790 0.25280 -0.00000 1.51300
