data_crystal

_cell_length_a 26.92300
_cell_length_b 26.92300
_cell_length_c 39.42200
_cell_angle_alpha 90.00000
_cell_angle_beta  90.00000
_cell_angle_gamma 90.00000

_symmetry_space_group_name_	'P 1'
_symmetry_space_group_name_H-M	'P 1'

loop_
_symmetry_equiv_pos_as_xyz
  x,y,z

loop_
_atom_site_label
_atom_site_type_symbol
_atom_site_fract_x
_atom_site_fract_y
_atom_site_fract_z
_atom_site_charge
Cu	Cu	0.75259 0.12802 0.30256 0.93900
Cu	Cu	0.81573 0.09441 0.34970 0.91000
O 	O 	0.83941 0.34784 0.46413 -0.40600
O 	O 	0.86262 0.26849 0.46440 -0.40500
O 	O 	0.80505 0.15763 0.37356 -0.40400
O 	O 	0.75593 0.18680 0.33266 -0.44500
O 	O 	0.65035 0.31502 0.21810 -0.46700
O 	O 	0.62711 0.36704 0.17701 -0.41300
O 	O 	0.73740 0.56318 0.22089 -0.36600
O 	O 	0.68234 0.53863 0.18193 -0.40900
O 	O 	0.93651 0.37513 0.53492 -0.41100
O 	O 	0.96042 0.29577 0.53603 -0.40200
O 	O 	0.09541 0.29825 0.66846 -0.36700
O 	O 	0.06673 0.24345 0.63004 -0.40400
O 	O 	0.70018 0.15615 0.26750 -0.74400
N 	N 	0.76430 0.42040 0.35924 -0.09000
N 	N 	0.74770 0.44770 0.33113 -0.08800
N 	N 	0.74030 0.36848 0.31755 -0.21900
H 	H 	0.73380 0.34090 0.30640 0.08500
N 	N 	0.00580 0.47580 0.66568 -0.08200
C 	C 	0.83980 0.30490 0.45186 0.37200
C 	C 	0.81160 0.29650 0.41969 -0.11100
C 	C 	0.80610 0.24970 0.40623 0.06500
H 	H 	0.81800 0.22180 0.41850 0.04200
C 	C 	0.78360 0.24240 0.37518 -0.12700
C 	C 	0.78060 0.19130 0.35928 0.38000
C 	C 	0.76720 0.28210 0.35695 0.04600
H 	H 	0.75180 0.27700 0.33550 -0.01300
C 	C 	0.79490 0.33800 0.40165 0.03000
H 	H 	0.79840 0.37040 0.41090 0.05100
C 	C 	0.77290 0.33100 0.36979 -0.06500
C 	C 	0.75800 0.37330 0.34883 0.14200
C 	C 	0.73460 0.41470 0.30720 0.13700
C 	C 	0.71430 0.42870 0.27284 -0.05700
C 	C 	0.69170 0.39040 0.25518 0.03500
H 	H 	0.68990 0.35820 0.26500 -0.00700
C 	C 	0.67180 0.39861 0.22344 -0.13000
C 	C 	0.64750 0.35675 0.20468 0.38700
C 	C 	0.67670 0.44550 0.20915 0.05400
H 	H 	0.66280 0.45190 0.18740 0.04400
C 	C 	0.70150 0.48310 0.22604 -0.09800
C 	C 	0.72040 0.47490 0.25814 0.02100
H 	H 	0.73730 0.50060 0.26990 0.05400
C 	C 	0.70810 0.53233 0.20787 0.35900
C 	C 	0.95960 0.33960 0.54689 0.36800
C 	C 	0.99110 0.35170 0.57810 -0.08900
C 	C 	0.01720 0.31430 0.59456 0.03300
H 	H 	0.01800 0.28150 0.58570 0.05300
C 	C 	0.98850 0.39830 0.59064 0.00700
H 	H 	0.97050 0.42320 0.57870 0.04700
C 	C 	0.01210 0.40990 0.62094 -0.03800
C 	C 	0.03960 0.37280 0.63820 0.00600
H 	H 	0.05590 0.38020 0.65900 0.06400
C 	C 	0.04230 0.32610 0.62456 -0.08100
C 	C 	0.07100 0.28630 0.64279 0.34800
C 	C 	0.00650 0.46070 0.63346 0.14200
H 	H 	0.72390 0.25760 0.26690 0.67300
H 	H 	0.73400 0.24750 0.22750 0.69000
H 	H 	0.76430 0.21720 0.25560 0.69200
Cu	Cu	0.24741 0.87198 0.30256 0.93800
Cu	Cu	0.18427 0.90559 0.34970 0.90900
O 	O 	0.16059 0.65216 0.46413 -0.40700
O 	O 	0.13738 0.73151 0.46440 -0.40600
O 	O 	0.19495 0.84237 0.37356 -0.40500
O 	O 	0.24407 0.81320 0.33266 -0.44600
O 	O 	0.34965 0.68498 0.21810 -0.46800
O 	O 	0.37289 0.63296 0.17701 -0.41400
O 	O 	0.26260 0.43682 0.22089 -0.36700
O 	O 	0.31766 0.46137 0.18193 -0.41000
O 	O 	0.06349 0.62487 0.53492 -0.41200
O 	O 	0.03958 0.70423 0.53603 -0.40200
O 	O 	0.90459 0.70175 0.66846 -0.36800
O 	O 	0.93327 0.75655 0.63004 -0.40500
O 	O 	0.29982 0.84385 0.26750 -0.74500
N 	N 	0.23570 0.57960 0.35924 -0.09100
N 	N 	0.25230 0.55230 0.33113 -0.08900
N 	N 	0.25970 0.63152 0.31755 -0.22000
H 	H 	0.26620 0.65910 0.30640 0.08400
N 	N 	0.99420 0.52420 0.66568 -0.08500
C 	C 	0.16020 0.69510 0.45186 0.37100
C 	C 	0.18840 0.70350 0.41969 -0.11200
C 	C 	0.19390 0.75030 0.40623 0.06400
H 	H 	0.18200 0.77820 0.41850 0.04100
C 	C 	0.21640 0.75760 0.37518 -0.12800
C 	C 	0.21940 0.80870 0.35928 0.37900
C 	C 	0.23280 0.71790 0.35695 0.04500
H 	H 	0.24820 0.72300 0.33550 -0.01400
C 	C 	0.20510 0.66200 0.40165 0.02900
H 	H 	0.20160 0.62960 0.41090 0.05000
C 	C 	0.22710 0.66900 0.36979 -0.06600
C 	C 	0.24200 0.62670 0.34883 0.14100
C 	C 	0.26540 0.58530 0.30720 0.13600
C 	C 	0.28570 0.57130 0.27284 -0.05800
C 	C 	0.30830 0.60960 0.25518 0.03500
H 	H 	0.31010 0.64180 0.26500 -0.00700
C 	C 	0.32820 0.60139 0.22344 -0.13000
C 	C 	0.35250 0.64325 0.20468 0.38700
C 	C 	0.32330 0.55450 0.20915 0.05400
H 	H 	0.33720 0.54810 0.18740 0.04400
C 	C 	0.29850 0.51690 0.22604 -0.09800
C 	C 	0.27960 0.52510 0.25814 0.02100
H 	H 	0.26270 0.49940 0.26990 0.05400
C 	C 	0.29190 0.46767 0.20787 0.35900
C 	C 	0.04040 0.66040 0.54689 0.36700
C 	C 	0.00890 0.64830 0.57810 -0.08500
C 	C 	0.98280 0.68570 0.59456 0.02800
H 	H 	0.98200 0.71850 0.58570 0.05300
C 	C 	0.01150 0.60170 0.59064 0.01100
H 	H 	0.02950 0.57680 0.57870 0.04700
C 	C 	0.98790 0.59010 0.62094 -0.04200
C 	C 	0.96040 0.62720 0.63820 0.00600
H 	H 	0.94410 0.61980 0.65900 0.06400
C 	C 	0.95770 0.67390 0.62456 -0.08000
C 	C 	0.92900 0.71370 0.64279 0.34800
C 	C 	0.99350 0.53930 0.63346 0.14100
H 	H 	0.27610 0.74240 0.26690 0.67300
H 	H 	0.26600 0.75250 0.22750 0.69000
H 	H 	0.23570 0.78280 0.25560 0.69200
Cu	Cu	0.87198 0.75259 0.30256 0.93800
Cu	Cu	0.90559 0.81573 0.34970 0.90900
O 	O 	0.65216 0.83941 0.46413 -0.40700
O 	O 	0.73151 0.86262 0.46440 -0.40600
O 	O 	0.84237 0.80505 0.37356 -0.40500
O 	O 	0.81320 0.75593 0.33266 -0.44600
O 	O 	0.68498 0.65035 0.21810 -0.46800
O 	O 	0.63296 0.62711 0.17701 -0.41400
O 	O 	0.43682 0.73740 0.22089 -0.36700
O 	O 	0.46137 0.68234 0.18193 -0.41000
O 	O 	0.62487 0.93651 0.53492 -0.41200
O 	O 	0.70423 0.96042 0.53603 -0.40300
O 	O 	0.70175 0.09541 0.66846 -0.36800
O 	O 	0.75655 0.06673 0.63004 -0.40500
O 	O 	0.84385 0.70018 0.26750 -0.74500
N 	N 	0.57960 0.76430 0.35924 -0.09100
N 	N 	0.55230 0.74770 0.33113 -0.08900
N 	N 	0.63152 0.74030 0.31755 -0.22000
H 	H 	0.65910 0.73380 0.30640 0.08400
N 	N 	0.52420 0.00580 0.66568 -0.08300
C 	C 	0.69510 0.83980 0.45186 0.37100
C 	C 	0.70350 0.81160 0.41969 -0.11200
C 	C 	0.75030 0.80610 0.40623 0.06400
H 	H 	0.77820 0.81800 0.41850 0.04100
C 	C 	0.75760 0.78360 0.37518 -0.12800
C 	C 	0.80870 0.78060 0.35928 0.37900
C 	C 	0.71790 0.76720 0.35695 0.04500
H 	H 	0.72300 0.75180 0.33550 -0.01400
C 	C 	0.66200 0.79490 0.40165 0.02900
H 	H 	0.62960 0.79840 0.41090 0.05000
C 	C 	0.66900 0.77290 0.36979 -0.06600
C 	C 	0.62670 0.75800 0.34883 0.14100
C 	C 	0.58530 0.73460 0.30720 0.13600
C 	C 	0.57130 0.71430 0.27284 -0.05800
C 	C 	0.60960 0.69170 0.25518 0.03500
H 	H 	0.64180 0.68990 0.26500 -0.00700
C 	C 	0.60139 0.67180 0.22344 -0.13000
C 	C 	0.64325 0.64750 0.20468 0.38700
C 	C 	0.55450 0.67670 0.20915 0.05400
H 	H 	0.54810 0.66280 0.18740 0.04400
C 	C 	0.51690 0.70150 0.22604 -0.09800
C 	C 	0.52510 0.72040 0.25814 0.02100
H 	H 	0.49940 0.73730 0.26990 0.05400
C 	C 	0.46767 0.70810 0.20787 0.35900
C 	C 	0.66040 0.95960 0.54689 0.36800
C 	C 	0.64830 0.99110 0.57810 -0.08900
C 	C 	0.68570 0.01720 0.59456 0.03300
H 	H 	0.71850 0.01800 0.58570 0.05200
C 	C 	0.60170 0.98850 0.59064 0.00700
H 	H 	0.57680 0.97050 0.57870 0.04700
C 	C 	0.59010 0.01210 0.62094 -0.03800
C 	C 	0.62720 0.03960 0.63820 0.00600
H 	H 	0.61980 0.05590 0.65900 0.06400
C 	C 	0.67390 0.04230 0.62456 -0.08100
C 	C 	0.71370 0.07100 0.64279 0.34800
C 	C 	0.53930 0.00650 0.63346 0.14200
H 	H 	0.74240 0.72390 0.26690 0.67300
H 	H 	0.75250 0.73400 0.22750 0.69000
H 	H 	0.78280 0.76430 0.25560 0.69200
Cu	Cu	0.12802 0.24741 0.30256 0.93800
Cu	Cu	0.09441 0.18427 0.34970 0.91000
O 	O 	0.34784 0.16059 0.46413 -0.40700
O 	O 	0.26849 0.13738 0.46440 -0.40600
O 	O 	0.15763 0.19495 0.37356 -0.40500
O 	O 	0.18680 0.24407 0.33266 -0.44600
O 	O 	0.31502 0.34965 0.21810 -0.46800
O 	O 	0.36704 0.37289 0.17701 -0.41400
O 	O 	0.56318 0.26260 0.22089 -0.36700
O 	O 	0.53863 0.31766 0.18193 -0.41000
O 	O 	0.37513 0.06349 0.53492 -0.41200
O 	O 	0.29577 0.03958 0.53603 -0.40200
O 	O 	0.29825 0.90459 0.66846 -0.36800
O 	O 	0.24345 0.93327 0.63004 -0.40500
O 	O 	0.15615 0.29982 0.26750 -0.74500
N 	N 	0.42040 0.23570 0.35924 -0.09100
N 	N 	0.44770 0.25230 0.33113 -0.08900
N 	N 	0.36848 0.25970 0.31755 -0.22000
H 	H 	0.34090 0.26620 0.30640 0.08400
N 	N 	0.47580 0.99420 0.66568 -0.08500
C 	C 	0.30490 0.16020 0.45186 0.37100
C 	C 	0.29650 0.18840 0.41969 -0.11200
C 	C 	0.24970 0.19390 0.40623 0.06400
H 	H 	0.22180 0.18200 0.41850 0.04200
C 	C 	0.24240 0.21640 0.37518 -0.12700
C 	C 	0.19130 0.21940 0.35928 0.37800
C 	C 	0.28210 0.23280 0.35695 0.04500
H 	H 	0.27700 0.24820 0.33550 -0.01300
C 	C 	0.33800 0.20510 0.40165 0.02800
H 	H 	0.37040 0.20160 0.41090 0.05000
C 	C 	0.33100 0.22710 0.36979 -0.06600
C 	C 	0.37330 0.24200 0.34883 0.14100
C 	C 	0.41470 0.26540 0.30720 0.13600
C 	C 	0.42870 0.28570 0.27284 -0.05800
C 	C 	0.39040 0.30830 0.25518 0.03500
H 	H 	0.35820 0.31010 0.26500 -0.00700
C 	C 	0.39861 0.32820 0.22344 -0.13000
C 	C 	0.35675 0.35250 0.20468 0.38700
C 	C 	0.44550 0.32330 0.20915 0.05400
H 	H 	0.45190 0.33720 0.18740 0.04400
C 	C 	0.48310 0.29850 0.22604 -0.09800
C 	C 	0.47490 0.27960 0.25814 0.02100
H 	H 	0.50060 0.26270 0.26990 0.05400
C 	C 	0.53233 0.29190 0.20787 0.35900
C 	C 	0.33960 0.04040 0.54689 0.36700
C 	C 	0.35170 0.00890 0.57810 -0.08500
C 	C 	0.31430 0.98280 0.59456 0.02800
H 	H 	0.28150 0.98200 0.58570 0.05300
C 	C 	0.39830 0.01150 0.59064 0.01100
H 	H 	0.42320 0.02950 0.57870 0.04700
C 	C 	0.40990 0.98790 0.62094 -0.04200
C 	C 	0.37280 0.96040 0.63820 0.00600
H 	H 	0.38020 0.94410 0.65900 0.06400
C 	C 	0.32610 0.95770 0.62456 -0.08000
C 	C 	0.28630 0.92900 0.64279 0.34800
C 	C 	0.46070 0.99350 0.63346 0.14100
H 	H 	0.25760 0.27610 0.26690 0.67300
H 	H 	0.24750 0.26600 0.22750 0.69000
H 	H 	0.21720 0.23570 0.25560 0.69200
Cu	Cu	0.74741 0.62802 0.19744 0.93800
Cu	Cu	0.68427 0.59441 0.15030 0.90900
O 	O 	0.66059 0.84784 0.03587 -0.41000
O 	O 	0.63738 0.76849 0.03560 -0.40900
O 	O 	0.69495 0.65763 0.12644 -0.40600
O 	O 	0.74407 0.68680 0.16734 -0.44700
O 	O 	0.84965 0.81502 0.28190 -0.46800
O 	O 	0.87289 0.86704 0.32299 -0.41400
O 	O 	0.76260 0.06318 0.27911 -0.36700
O 	O 	0.81766 0.03863 0.31807 -0.41000
O 	O 	0.56349 0.87513 0.96508 -0.40600
O 	O 	0.53958 0.79577 0.96397 -0.39700
O 	O 	0.40459 0.79825 0.83154 -0.36800
O 	O 	0.43327 0.74345 0.86996 -0.40400
O 	O 	0.79982 0.65615 0.23250 -0.74500
N 	N 	0.73570 0.92040 0.14076 -0.09200
N 	N 	0.75230 0.94770 0.16887 -0.09000
N 	N 	0.75970 0.86848 0.18245 -0.22000
H 	H 	0.76620 0.84090 0.19360 0.08400
N 	N 	0.49420 0.97580 0.83432 -0.08500
C 	C 	0.66020 0.80490 0.04814 0.37200
C 	C 	0.68840 0.79650 0.08031 -0.11400
C 	C 	0.69390 0.74970 0.09377 0.06500
H 	H 	0.68200 0.72180 0.08150 0.04000
C 	C 	0.71640 0.74240 0.12482 -0.12900
C 	C 	0.71940 0.69130 0.14072 0.37900
C 	C 	0.73280 0.78210 0.14305 0.04600
H 	H 	0.74820 0.77700 0.16450 -0.01400
C 	C 	0.70510 0.83800 0.09835 0.02900
H 	H 	0.70160 0.87040 0.08910 0.04900
C 	C 	0.72710 0.83100 0.13021 -0.06700
C 	C 	0.74200 0.87330 0.15117 0.14100
C 	C 	0.76540 0.91470 0.19280 0.13500
C 	C 	0.78570 0.92870 0.22716 -0.05700
C 	C 	0.80830 0.89040 0.24482 0.03400
H 	H 	0.81010 0.85820 0.23500 -0.00700
C 	C 	0.82820 0.89861 0.27656 -0.13000
C 	C 	0.85250 0.85675 0.29532 0.38700
C 	C 	0.82330 0.94550 0.29085 0.05400
H 	H 	0.83720 0.95190 0.31260 0.04400
C 	C 	0.79850 0.98310 0.27396 -0.09900
C 	C 	0.77960 0.97490 0.24186 0.01700
H 	H 	0.76270 0.00060 0.23010 0.05600
C 	C 	0.79190 0.03233 0.29213 0.36100
C 	C 	0.54040 0.83960 0.95311 0.36600
C 	C 	0.50890 0.85170 0.92190 -0.08500
C 	C 	0.48280 0.81430 0.90544 0.02900
H 	H 	0.48200 0.78150 0.91430 0.05400
C 	C 	0.51150 0.89830 0.90936 0.00800
H 	H 	0.52950 0.92320 0.92130 0.04800
C 	C 	0.48790 0.90990 0.87906 -0.03900
C 	C 	0.46040 0.87280 0.86180 0.00500
H 	H 	0.44410 0.88020 0.84100 0.06400
C 	C 	0.45770 0.82610 0.87544 -0.07900
C 	C 	0.42900 0.78630 0.85721 0.34800
C 	C 	0.49350 0.96070 0.86654 0.14100
H 	H 	0.77610 0.75760 0.23310 0.67300
H 	H 	0.76600 0.74750 0.27250 0.69000
H 	H 	0.73570 0.71720 0.24440 0.69200
Cu	Cu	0.25259 0.37198 0.19744 0.93800
Cu	Cu	0.31573 0.40559 0.15030 0.90900
O 	O 	0.33941 0.15216 0.03587 -0.41000
O 	O 	0.36262 0.23151 0.03560 -0.40900
O 	O 	0.30505 0.34237 0.12644 -0.40600
O 	O 	0.25593 0.31320 0.16734 -0.44700
O 	O 	0.15035 0.18498 0.28190 -0.46800
O 	O 	0.12711 0.13296 0.32299 -0.41300
O 	O 	0.23740 0.93682 0.27911 -0.36700
O 	O 	0.18234 0.96137 0.31807 -0.41000
O 	O 	0.43651 0.12487 0.96508 -0.40600
O 	O 	0.46042 0.20423 0.96397 -0.39700
O 	O 	0.59541 0.20175 0.83154 -0.36700
O 	O 	0.56673 0.25655 0.86996 -0.40400
O 	O 	0.20018 0.34385 0.23250 -0.74500
N 	N 	0.26430 0.07960 0.14076 -0.09200
N 	N 	0.24770 0.05230 0.16887 -0.08900
N 	N 	0.24030 0.13152 0.18245 -0.22000
H 	H 	0.23380 0.15910 0.19360 0.08400
N 	N 	0.50580 0.02420 0.83432 -0.08300
C 	C 	0.33980 0.19510 0.04814 0.37200
C 	C 	0.31160 0.20350 0.08031 -0.11400
C 	C 	0.30610 0.25030 0.09377 0.06500
H 	H 	0.31800 0.27820 0.08150 0.04000
C 	C 	0.28360 0.25760 0.12482 -0.12900
C 	C 	0.28060 0.30870 0.14072 0.37900
C 	C 	0.26720 0.21790 0.14305 0.04600
H 	H 	0.25180 0.22300 0.16450 -0.01400
C 	C 	0.29490 0.16200 0.09835 0.02900
H 	H 	0.29840 0.12960 0.08910 0.04900
C 	C 	0.27290 0.16900 0.13021 -0.06700
C 	C 	0.25800 0.12670 0.15117 0.14100
C 	C 	0.23460 0.08530 0.19280 0.13700
C 	C 	0.21430 0.07130 0.22716 -0.06000
C 	C 	0.19170 0.10960 0.24482 0.03500
H 	H 	0.18990 0.14180 0.23500 -0.00700
C 	C 	0.17180 0.10139 0.27656 -0.13000
C 	C 	0.14750 0.14325 0.29532 0.38700
C 	C 	0.17670 0.05450 0.29085 0.05400
H 	H 	0.16280 0.04810 0.31260 0.04500
C 	C 	0.20150 0.01690 0.27396 -0.09700
C 	C 	0.22040 0.02510 0.24186 0.02500
H 	H 	0.23730 0.99940 0.23010 0.05100
C 	C 	0.20810 0.96767 0.29213 0.35800
C 	C 	0.45960 0.16040 0.95311 0.36600
C 	C 	0.49110 0.14830 0.92190 -0.08400
C 	C 	0.51720 0.18570 0.90544 0.02900
H 	H 	0.51800 0.21850 0.91430 0.05400
C 	C 	0.48850 0.10170 0.90936 0.00800
H 	H 	0.47050 0.07680 0.92130 0.04900
C 	C 	0.51210 0.09010 0.87906 -0.03900
C 	C 	0.53960 0.12720 0.86180 0.00500
H 	H 	0.55590 0.11980 0.84100 0.06400
C 	C 	0.54230 0.17390 0.87544 -0.07900
C 	C 	0.57100 0.21370 0.85721 0.34800
C 	C 	0.50650 0.03930 0.86654 0.14300
H 	H 	0.22390 0.24240 0.23310 0.67300
H 	H 	0.23400 0.25250 0.27250 0.69000
H 	H 	0.26430 0.28280 0.24440 0.69200
Cu	Cu	0.62802 0.25259 0.19744 0.93800
Cu	Cu	0.59441 0.31573 0.15030 0.90900
O 	O 	0.84784 0.33941 0.03587 -0.41000
O 	O 	0.76849 0.36262 0.03560 -0.40900
O 	O 	0.65763 0.30505 0.12644 -0.40600
O 	O 	0.68680 0.25593 0.16734 -0.44700
O 	O 	0.81502 0.15035 0.28190 -0.46800
O 	O 	0.86704 0.12711 0.32299 -0.41400
O 	O 	0.06318 0.23740 0.27911 -0.36700
O 	O 	0.03863 0.18234 0.31807 -0.41000
O 	O 	0.87513 0.43651 0.96508 -0.40600
O 	O 	0.79577 0.46042 0.96397 -0.39700
O 	O 	0.79825 0.59541 0.83154 -0.36800
O 	O 	0.74345 0.56673 0.86996 -0.40400
O 	O 	0.65615 0.20018 0.23250 -0.74500
N 	N 	0.92040 0.26430 0.14076 -0.09200
N 	N 	0.94770 0.24770 0.16887 -0.09000
N 	N 	0.86848 0.24030 0.18245 -0.22000
H 	H 	0.84090 0.23380 0.19360 0.08400
N 	N 	0.97580 0.50580 0.83432 -0.08500
C 	C 	0.80490 0.33980 0.04814 0.37200
C 	C 	0.79650 0.31160 0.08031 -0.11400
C 	C 	0.74970 0.30610 0.09377 0.06500
H 	H 	0.72180 0.31800 0.08150 0.04000
C 	C 	0.74240 0.28360 0.12482 -0.12900
C 	C 	0.69130 0.28060 0.14072 0.37900
C 	C 	0.78210 0.26720 0.14305 0.04600
H 	H 	0.77700 0.25180 0.16450 -0.01400
C 	C 	0.83800 0.29490 0.09835 0.02900
H 	H 	0.87040 0.29840 0.08910 0.04900
C 	C 	0.83100 0.27290 0.13021 -0.06700
C 	C 	0.87330 0.25800 0.15117 0.14100
C 	C 	0.91470 0.23460 0.19280 0.13500
C 	C 	0.92870 0.21430 0.22716 -0.05700
C 	C 	0.89040 0.19170 0.24482 0.03400
H 	H 	0.85820 0.18990 0.23500 -0.00700
C 	C 	0.89861 0.17180 0.27656 -0.13000
C 	C 	0.85675 0.14750 0.29532 0.38700
C 	C 	0.94550 0.17670 0.29085 0.05400
H 	H 	0.95190 0.16280 0.31260 0.04400
C 	C 	0.98310 0.20150 0.27396 -0.09800
C 	C 	0.97490 0.22040 0.24186 0.01700
H 	H 	0.00060 0.23730 0.23010 0.05700
C 	C 	0.03233 0.20810 0.29213 0.36100
C 	C 	0.83960 0.45960 0.95311 0.36600
C 	C 	0.85170 0.49110 0.92190 -0.08500
C 	C 	0.81430 0.51720 0.90544 0.02900
H 	H 	0.78150 0.51800 0.91430 0.05400
C 	C 	0.89830 0.48850 0.90936 0.00800
H 	H 	0.92320 0.47050 0.92130 0.04800
C 	C 	0.90990 0.51210 0.87906 -0.03900
C 	C 	0.87280 0.53960 0.86180 0.00500
H 	H 	0.88020 0.55590 0.84100 0.06400
C 	C 	0.82610 0.54230 0.87544 -0.07900
C 	C 	0.78630 0.57100 0.85721 0.34800
C 	C 	0.96070 0.50650 0.86654 0.14100
H 	H 	0.75760 0.22390 0.23310 0.67300
H 	H 	0.74750 0.23400 0.27250 0.69000
H 	H 	0.71720 0.26430 0.24440 0.69200
Cu	Cu	0.37198 0.74741 0.19744 0.93800
Cu	Cu	0.40559 0.68427 0.15030 0.90900
O 	O 	0.15216 0.66059 0.03587 -0.41000
O 	O 	0.23151 0.63738 0.03560 -0.40900
O 	O 	0.34237 0.69495 0.12644 -0.40600
O 	O 	0.31320 0.74407 0.16734 -0.44700
O 	O 	0.18498 0.84965 0.28190 -0.46800
O 	O 	0.13296 0.87289 0.32299 -0.41400
O 	O 	0.93682 0.76260 0.27911 -0.36700
O 	O 	0.96137 0.81766 0.31807 -0.41100
O 	O 	0.12487 0.56349 0.96508 -0.40600
O 	O 	0.20423 0.53958 0.96397 -0.39700
O 	O 	0.20175 0.40459 0.83154 -0.36700
O 	O 	0.25655 0.43327 0.86996 -0.40400
O 	O 	0.34385 0.79982 0.23250 -0.74500
N 	N 	0.07960 0.73570 0.14076 -0.09200
N 	N 	0.05230 0.75230 0.16887 -0.09000
N 	N 	0.13152 0.75970 0.18245 -0.22000
H 	H 	0.15910 0.76620 0.19360 0.08400
N 	N 	0.02420 0.49420 0.83432 -0.08300
C 	C 	0.19510 0.66020 0.04814 0.37200
C 	C 	0.20350 0.68840 0.08031 -0.11400
C 	C 	0.25030 0.69390 0.09377 0.06500
H 	H 	0.27820 0.68200 0.08150 0.04000
C 	C 	0.25760 0.71640 0.12482 -0.12900
C 	C 	0.30870 0.71940 0.14072 0.37900
C 	C 	0.21790 0.73280 0.14305 0.04600
H 	H 	0.22300 0.74820 0.16450 -0.01400
C 	C 	0.16200 0.70510 0.09835 0.02900
H 	H 	0.12960 0.70160 0.08910 0.04900
C 	C 	0.16900 0.72710 0.13021 -0.06700
C 	C 	0.12670 0.74200 0.15117 0.14100
C 	C 	0.08530 0.76540 0.19280 0.13700
C 	C 	0.07130 0.78570 0.22716 -0.06000
C 	C 	0.10960 0.80830 0.24482 0.03500
H 	H 	0.14180 0.81010 0.23500 -0.00700
C 	C 	0.10139 0.82820 0.27656 -0.13000
C 	C 	0.14325 0.85250 0.29532 0.38700
C 	C 	0.05450 0.82330 0.29085 0.05400
H 	H 	0.04810 0.83720 0.31260 0.04500
C 	C 	0.01690 0.79850 0.27396 -0.09700
C 	C 	0.02510 0.77960 0.24186 0.02500
H 	H 	0.99940 0.76270 0.23010 0.05100
C 	C 	0.96767 0.79190 0.29213 0.35800
C 	C 	0.16040 0.54040 0.95311 0.36600
C 	C 	0.14830 0.50890 0.92190 -0.08400
C 	C 	0.18570 0.48280 0.90544 0.02900
H 	H 	0.21850 0.48200 0.91430 0.05400
C 	C 	0.10170 0.51150 0.90936 0.00800
H 	H 	0.07680 0.52950 0.92130 0.04900
C 	C 	0.09010 0.48790 0.87906 -0.03900
C 	C 	0.12720 0.46040 0.86180 0.00500
H 	H 	0.11980 0.44410 0.84100 0.06400
C 	C 	0.17390 0.45770 0.87544 -0.07900
C 	C 	0.21370 0.42900 0.85721 0.34800
C 	C 	0.03930 0.49350 0.86654 0.14300
H 	H 	0.24240 0.77610 0.23310 0.67300
H 	H 	0.25250 0.76600 0.27250 0.69000
H 	H 	0.28280 0.73570 0.24440 0.69200
Cu	Cu	0.24741 0.87198 0.69744 0.93800
Cu	Cu	0.18427 0.90559 0.65030 0.90900
O 	O 	0.16059 0.65216 0.53587 -0.40700
O 	O 	0.13738 0.73151 0.53560 -0.40600
O 	O 	0.19495 0.84237 0.62644 -0.40500
O 	O 	0.24407 0.81320 0.66734 -0.44600
O 	O 	0.34965 0.68498 0.78190 -0.46800
O 	O 	0.37289 0.63296 0.82299 -0.41300
O 	O 	0.26260 0.43682 0.77911 -0.36700
O 	O 	0.31766 0.46137 0.81807 -0.41000
O 	O 	0.06349 0.62487 0.46508 -0.41200
O 	O 	0.03958 0.70423 0.46397 -0.40200
O 	O 	0.90459 0.70175 0.33154 -0.36800
O 	O 	0.93327 0.75655 0.36996 -0.40500
O 	O 	0.29982 0.84385 0.73250 -0.74500
N 	N 	0.23570 0.57960 0.64076 -0.09100
N 	N 	0.25230 0.55230 0.66887 -0.08900
N 	N 	0.25970 0.63152 0.68245 -0.22000
H 	H 	0.26620 0.65910 0.69360 0.08400
N 	N 	0.99420 0.52420 0.33432 -0.08500
C 	C 	0.16020 0.69510 0.54814 0.37100
C 	C 	0.18840 0.70350 0.58031 -0.11200
C 	C 	0.19390 0.75030 0.59377 0.06400
H 	H 	0.18200 0.77820 0.58150 0.04100
C 	C 	0.21640 0.75760 0.62482 -0.12800
C 	C 	0.21940 0.80870 0.64072 0.37900
C 	C 	0.23280 0.71790 0.64305 0.04500
H 	H 	0.24820 0.72300 0.66450 -0.01400
C 	C 	0.20510 0.66200 0.59835 0.02900
H 	H 	0.20160 0.62960 0.58910 0.05000
C 	C 	0.22710 0.66900 0.63021 -0.06600
C 	C 	0.24200 0.62670 0.65117 0.14100
C 	C 	0.26540 0.58530 0.69280 0.13600
C 	C 	0.28570 0.57130 0.72716 -0.05800
C 	C 	0.30830 0.60960 0.74482 0.03400
H 	H 	0.31010 0.64180 0.73500 -0.00700
C 	C 	0.32820 0.60139 0.77656 -0.13000
C 	C 	0.35250 0.64325 0.79532 0.38700
C 	C 	0.32330 0.55450 0.79085 0.05400
H 	H 	0.33720 0.54810 0.81260 0.04500
C 	C 	0.29850 0.51690 0.77396 -0.09700
C 	C 	0.27960 0.52510 0.74186 0.02100
H 	H 	0.26270 0.49940 0.73010 0.05400
C 	C 	0.29190 0.46767 0.79213 0.35900
C 	C 	0.04040 0.66040 0.45311 0.36700
C 	C 	0.00890 0.64830 0.42190 -0.08500
C 	C 	0.98280 0.68570 0.40544 0.02800
H 	H 	0.98200 0.71850 0.41430 0.05300
C 	C 	0.01150 0.60170 0.40936 0.01100
H 	H 	0.02950 0.57680 0.42130 0.04700
C 	C 	0.98790 0.59010 0.37906 -0.04200
C 	C 	0.96040 0.62720 0.36180 0.00600
H 	H 	0.94410 0.61980 0.34100 0.06400
C 	C 	0.95770 0.67390 0.37544 -0.08000
C 	C 	0.92900 0.71370 0.35721 0.34800
C 	C 	0.99350 0.53930 0.36654 0.14100
H 	H 	0.27610 0.74240 0.73310 0.67300
H 	H 	0.26600 0.75250 0.77250 0.69000
H 	H 	0.23570 0.78280 0.74440 0.69200
Cu	Cu	0.75259 0.12802 0.69744 0.93800
Cu	Cu	0.81573 0.09441 0.65030 0.90900
O 	O 	0.83941 0.34784 0.53587 -0.40700
O 	O 	0.86262 0.26849 0.53560 -0.40600
O 	O 	0.80505 0.15763 0.62644 -0.40500
O 	O 	0.75593 0.18680 0.66734 -0.44600
O 	O 	0.65035 0.31502 0.78190 -0.46800
O 	O 	0.62711 0.36704 0.82299 -0.41300
O 	O 	0.73740 0.56318 0.77911 -0.36700
O 	O 	0.68234 0.53863 0.81807 -0.41000
O 	O 	0.93651 0.37513 0.46508 -0.41200
O 	O 	0.96042 0.29577 0.46397 -0.40300
O 	O 	0.09541 0.29825 0.33154 -0.36800
O 	O 	0.06673 0.24345 0.36996 -0.40500
O 	O 	0.70018 0.15615 0.73250 -0.74500
N 	N 	0.76430 0.42040 0.64076 -0.09100
N 	N 	0.74770 0.44770 0.66887 -0.08900
N 	N 	0.74030 0.36848 0.68245 -0.22000
H 	H 	0.73380 0.34090 0.69360 0.08400
N 	N 	0.00580 0.47580 0.33432 -0.08300
C 	C 	0.83980 0.30490 0.54814 0.37100
C 	C 	0.81160 0.29650 0.58031 -0.11200
C 	C 	0.80610 0.24970 0.59377 0.06400
H 	H 	0.81800 0.22180 0.58150 0.04100
C 	C 	0.78360 0.24240 0.62482 -0.12800
C 	C 	0.78060 0.19130 0.64072 0.37800
C 	C 	0.76720 0.28210 0.64305 0.04500
H 	H 	0.75180 0.27700 0.66450 -0.01400
C 	C 	0.79490 0.33800 0.59835 0.02800
H 	H 	0.79840 0.37040 0.58910 0.05000
C 	C 	0.77290 0.33100 0.63021 -0.06600
C 	C 	0.75800 0.37330 0.65117 0.14100
C 	C 	0.73460 0.41470 0.69280 0.13600
C 	C 	0.71430 0.42870 0.72716 -0.05800
C 	C 	0.69170 0.39040 0.74482 0.03400
H 	H 	0.68990 0.35820 0.73500 -0.00700
C 	C 	0.67180 0.39861 0.77656 -0.13000
C 	C 	0.64750 0.35675 0.79532 0.38700
C 	C 	0.67670 0.44550 0.79085 0.05400
H 	H 	0.66280 0.45190 0.81260 0.04500
C 	C 	0.70150 0.48310 0.77396 -0.09700
C 	C 	0.72040 0.47490 0.74186 0.02100
H 	H 	0.73730 0.50060 0.73010 0.05400
C 	C 	0.70810 0.53233 0.79213 0.35900
C 	C 	0.95960 0.33960 0.45311 0.36800
C 	C 	0.99110 0.35170 0.42190 -0.08900
C 	C 	0.01720 0.31430 0.40544 0.03300
H 	H 	0.01800 0.28150 0.41430 0.05300
C 	C 	0.98850 0.39830 0.40936 0.00700
H 	H 	0.97050 0.42320 0.42130 0.04700
C 	C 	0.01210 0.40990 0.37906 -0.03800
C 	C 	0.03960 0.37280 0.36180 0.00600
H 	H 	0.05590 0.38020 0.34100 0.06400
C 	C 	0.04230 0.32610 0.37544 -0.08100
C 	C 	0.07100 0.28630 0.35721 0.34800
C 	C 	0.00650 0.46070 0.36654 0.14200
H 	H 	0.72390 0.25760 0.73310 0.67300
H 	H 	0.73400 0.24750 0.77250 0.69000
H 	H 	0.76430 0.21720 0.74440 0.69200
Cu	Cu	0.12802 0.24741 0.69744 0.93800
Cu	Cu	0.09441 0.18427 0.65030 0.91000
O 	O 	0.34784 0.16059 0.53587 -0.40700
O 	O 	0.26849 0.13738 0.53560 -0.40600
O 	O 	0.15763 0.19495 0.62644 -0.40500
O 	O 	0.18680 0.24407 0.66734 -0.44600
O 	O 	0.31502 0.34965 0.78190 -0.46800
O 	O 	0.36704 0.37289 0.82299 -0.41300
O 	O 	0.56318 0.26260 0.77911 -0.36700
O 	O 	0.53863 0.31766 0.81807 -0.41000
O 	O 	0.37513 0.06349 0.46508 -0.41200
O 	O 	0.29577 0.03958 0.46397 -0.40200
O 	O 	0.29825 0.90459 0.33154 -0.36800
O 	O 	0.24345 0.93327 0.36996 -0.40500
O 	O 	0.15615 0.29982 0.73250 -0.74500
N 	N 	0.42040 0.23570 0.64076 -0.09100
N 	N 	0.44770 0.25230 0.66887 -0.08900
N 	N 	0.36848 0.25970 0.68245 -0.22000
H 	H 	0.34090 0.26620 0.69360 0.08400
N 	N 	0.47580 0.99420 0.33432 -0.08500
C 	C 	0.30490 0.16020 0.54814 0.37100
C 	C 	0.29650 0.18840 0.58031 -0.11200
C 	C 	0.24970 0.19390 0.59377 0.06400
H 	H 	0.22180 0.18200 0.58150 0.04200
C 	C 	0.24240 0.21640 0.62482 -0.12700
C 	C 	0.19130 0.21940 0.64072 0.37800
C 	C 	0.28210 0.23280 0.64305 0.04500
H 	H 	0.27700 0.24820 0.66450 -0.01400
C 	C 	0.33800 0.20510 0.59835 0.02800
H 	H 	0.37040 0.20160 0.58910 0.05000
C 	C 	0.33100 0.22710 0.63021 -0.06600
C 	C 	0.37330 0.24200 0.65117 0.14100
C 	C 	0.41470 0.26540 0.69280 0.13600
C 	C 	0.42870 0.28570 0.72716 -0.05800
C 	C 	0.39040 0.30830 0.74482 0.03400
H 	H 	0.35820 0.31010 0.73500 -0.00700
C 	C 	0.39861 0.32820 0.77656 -0.13000
C 	C 	0.35675 0.35250 0.79532 0.38700
C 	C 	0.44550 0.32330 0.79085 0.05400
H 	H 	0.45190 0.33720 0.81260 0.04500
C 	C 	0.48310 0.29850 0.77396 -0.09700
C 	C 	0.47490 0.27960 0.74186 0.02100
H 	H 	0.50060 0.26270 0.73010 0.05400
C 	C 	0.53233 0.29190 0.79213 0.35900
C 	C 	0.33960 0.04040 0.45311 0.36700
C 	C 	0.35170 0.00890 0.42190 -0.08500
C 	C 	0.31430 0.98280 0.40544 0.02800
H 	H 	0.28150 0.98200 0.41430 0.05300
C 	C 	0.39830 0.01150 0.40936 0.01100
H 	H 	0.42320 0.02950 0.42130 0.04700
C 	C 	0.40990 0.98790 0.37906 -0.04200
C 	C 	0.37280 0.96040 0.36180 0.00600
H 	H 	0.38020 0.94410 0.34100 0.06400
C 	C 	0.32610 0.95770 0.37544 -0.08000
C 	C 	0.28630 0.92900 0.35721 0.34800
C 	C 	0.46070 0.99350 0.36654 0.14100
H 	H 	0.25760 0.27610 0.73310 0.67300
H 	H 	0.24750 0.26600 0.77250 0.69000
H 	H 	0.21720 0.23570 0.74440 0.69200
Cu	Cu	0.87198 0.75259 0.69744 0.93800
Cu	Cu	0.90559 0.81573 0.65030 0.90900
O 	O 	0.65216 0.83941 0.53587 -0.40700
O 	O 	0.73151 0.86262 0.53560 -0.40600
O 	O 	0.84237 0.80505 0.62644 -0.40500
O 	O 	0.81320 0.75593 0.66734 -0.44600
O 	O 	0.68498 0.65035 0.78190 -0.46800
O 	O 	0.63296 0.62711 0.82299 -0.41300
O 	O 	0.43682 0.73740 0.77911 -0.36700
O 	O 	0.46137 0.68234 0.81807 -0.41000
O 	O 	0.62487 0.93651 0.46508 -0.41200
O 	O 	0.70423 0.96042 0.46397 -0.40300
O 	O 	0.70175 0.09541 0.33154 -0.36800
O 	O 	0.75655 0.06673 0.36996 -0.40500
O 	O 	0.84385 0.70018 0.73250 -0.74500
N 	N 	0.57960 0.76430 0.64076 -0.09100
N 	N 	0.55230 0.74770 0.66887 -0.08900
N 	N 	0.63152 0.74030 0.68245 -0.22000
H 	H 	0.65910 0.73380 0.69360 0.08400
N 	N 	0.52420 0.00580 0.33432 -0.08300
C 	C 	0.69510 0.83980 0.54814 0.37100
C 	C 	0.70350 0.81160 0.58031 -0.11200
C 	C 	0.75030 0.80610 0.59377 0.06400
H 	H 	0.77820 0.81800 0.58150 0.04100
C 	C 	0.75760 0.78360 0.62482 -0.12800
C 	C 	0.80870 0.78060 0.64072 0.37900
C 	C 	0.71790 0.76720 0.64305 0.04500
H 	H 	0.72300 0.75180 0.66450 -0.01400
C 	C 	0.66200 0.79490 0.59835 0.02900
H 	H 	0.62960 0.79840 0.58910 0.05000
C 	C 	0.66900 0.77290 0.63021 -0.06600
C 	C 	0.62670 0.75800 0.65117 0.14100
C 	C 	0.58530 0.73460 0.69280 0.13600
C 	C 	0.57130 0.71430 0.72716 -0.05800
C 	C 	0.60960 0.69170 0.74482 0.03400
H 	H 	0.64180 0.68990 0.73500 -0.00700
C 	C 	0.60139 0.67180 0.77656 -0.13000
C 	C 	0.64325 0.64750 0.79532 0.38700
C 	C 	0.55450 0.67670 0.79085 0.05400
H 	H 	0.54810 0.66280 0.81260 0.04500
C 	C 	0.51690 0.70150 0.77396 -0.09700
C 	C 	0.52510 0.72040 0.74186 0.02100
H 	H 	0.49940 0.73730 0.73010 0.05400
C 	C 	0.46767 0.70810 0.79213 0.35900
C 	C 	0.66040 0.95960 0.45311 0.36800
C 	C 	0.64830 0.99110 0.42190 -0.08900
C 	C 	0.68570 0.01720 0.40544 0.03300
H 	H 	0.71850 0.01800 0.41430 0.05300
C 	C 	0.60170 0.98850 0.40936 0.00700
H 	H 	0.57680 0.97050 0.42130 0.04700
C 	C 	0.59010 0.01210 0.37906 -0.03800
C 	C 	0.62720 0.03960 0.36180 0.00600
H 	H 	0.61980 0.05590 0.34100 0.06400
C 	C 	0.67390 0.04230 0.37544 -0.08100
C 	C 	0.71370 0.07100 0.35721 0.34800
C 	C 	0.53930 0.00650 0.36654 0.14200
H 	H 	0.74240 0.72390 0.73310 0.67300
H 	H 	0.75250 0.73400 0.77250 0.69000
H 	H 	0.78280 0.76430 0.74440 0.69200
Cu	Cu	0.25259 0.37198 0.80256 0.93800
Cu	Cu	0.31573 0.40559 0.84970 0.91000
O 	O 	0.33941 0.15216 0.96413 -0.40100
O 	O 	0.36262 0.23151 0.96440 -0.40000
O 	O 	0.30505 0.34237 0.87356 -0.40400
O 	O 	0.25593 0.31320 0.83266 -0.44600
O 	O 	0.15035 0.18498 0.71810 -0.46800
O 	O 	0.12711 0.13296 0.67701 -0.41300
O 	O 	0.23740 0.93682 0.72089 -0.36700
O 	O 	0.18234 0.96137 0.68193 -0.41000
O 	O 	0.43651 0.12487 0.03492 -0.41500
O 	O 	0.46042 0.20423 0.03603 -0.40600
O 	O 	0.59541 0.20175 0.16846 -0.36800
O 	O 	0.56673 0.25655 0.13004 -0.40600
O 	O 	0.20018 0.34385 0.76750 -0.74500
N 	N 	0.26430 0.07960 0.85924 -0.09000
N 	N 	0.24770 0.05230 0.83113 -0.08900
N 	N 	0.24030 0.13152 0.81755 -0.22000
H 	H 	0.23380 0.15910 0.80640 0.08400
N 	N 	0.50580 0.02420 0.16568 -0.08300
C 	C 	0.33980 0.19510 0.95186 0.37000
C 	C 	0.31160 0.20350 0.91969 -0.10900
C 	C 	0.30610 0.25030 0.90623 0.06300
H 	H 	0.31800 0.27820 0.91850 0.04300
C 	C 	0.28360 0.25760 0.87518 -0.12600
C 	C 	0.28060 0.30870 0.85928 0.37800
C 	C 	0.26720 0.21790 0.85695 0.04500
H 	H 	0.25180 0.22300 0.83550 -0.01300
C 	C 	0.29490 0.16200 0.90165 0.02700
H 	H 	0.29840 0.12960 0.91090 0.05200
C 	C 	0.27290 0.16900 0.86979 -0.06500
C 	C 	0.25800 0.12670 0.84883 0.14200
C 	C 	0.23460 0.08530 0.80720 0.13700
C 	C 	0.21430 0.07130 0.77284 -0.05900
C 	C 	0.19170 0.10960 0.75518 0.03500
H 	H 	0.18990 0.14180 0.76500 -0.00700
C 	C 	0.17180 0.10139 0.72344 -0.13000
C 	C 	0.14750 0.14325 0.70468 0.38700
C 	C 	0.17670 0.05450 0.70915 0.05400
H 	H 	0.16280 0.04810 0.68740 0.04500
C 	C 	0.20150 0.01690 0.72604 -0.09700
C 	C 	0.22040 0.02510 0.75814 0.02500
H 	H 	0.23730 0.99940 0.76990 0.05200
C 	C 	0.20810 0.96767 0.70787 0.35800
C 	C 	0.45960 0.16040 0.04689 0.36800
C 	C 	0.49110 0.14830 0.07810 -0.08900
C 	C 	0.51720 0.18570 0.09456 0.03100
H 	H 	0.51800 0.21850 0.08570 0.05200
C 	C 	0.48850 0.10170 0.09064 0.01000
H 	H 	0.47050 0.07680 0.07870 0.04600
C 	C 	0.51210 0.09010 0.12094 -0.04100
C 	C 	0.53960 0.12720 0.13820 0.00600
H 	H 	0.55590 0.11980 0.15900 0.06400
C 	C 	0.54230 0.17390 0.12456 -0.08100
C 	C 	0.57100 0.21370 0.14279 0.34800
C 	C 	0.50650 0.03930 0.13346 0.14200
H 	H 	0.22390 0.24240 0.76690 0.67300
H 	H 	0.23400 0.25250 0.72750 0.69000
H 	H 	0.26430 0.28280 0.75560 0.69200
Cu	Cu	0.74741 0.62802 0.80256 0.93800
Cu	Cu	0.68427 0.59441 0.84970 0.91000
O 	O 	0.66059 0.84784 0.96413 -0.40100
O 	O 	0.63738 0.76849 0.96440 -0.40000
O 	O 	0.69495 0.65763 0.87356 -0.40400
O 	O 	0.74407 0.68680 0.83266 -0.44600
O 	O 	0.84965 0.81502 0.71810 -0.46800
O 	O 	0.87289 0.86704 0.67701 -0.41400
O 	O 	0.76260 0.06318 0.72089 -0.36700
O 	O 	0.81766 0.03863 0.68193 -0.41000
O 	O 	0.56349 0.87513 0.03492 -0.41600
O 	O 	0.53958 0.79577 0.03603 -0.40600
O 	O 	0.40459 0.79825 0.16846 -0.36800
O 	O 	0.43327 0.74345 0.13004 -0.40600
O 	O 	0.79982 0.65615 0.76750 -0.74500
N 	N 	0.73570 0.92040 0.85924 -0.09100
N 	N 	0.75230 0.94770 0.83113 -0.08900
N 	N 	0.75970 0.86848 0.81755 -0.22000
H 	H 	0.76620 0.84090 0.80640 0.08400
N 	N 	0.49420 0.97580 0.16568 -0.08500
C 	C 	0.66020 0.80490 0.95186 0.37000
C 	C 	0.68840 0.79650 0.91969 -0.10900
C 	C 	0.69390 0.74970 0.90623 0.06300
H 	H 	0.68200 0.72180 0.91850 0.04300
C 	C 	0.71640 0.74240 0.87518 -0.12600
C 	C 	0.71940 0.69130 0.85928 0.37800
C 	C 	0.73280 0.78210 0.85695 0.04500
H 	H 	0.74820 0.77700 0.83550 -0.01300
C 	C 	0.70510 0.83800 0.90165 0.02800
H 	H 	0.70160 0.87040 0.91090 0.05100
C 	C 	0.72710 0.83100 0.86979 -0.06500
C 	C 	0.74200 0.87330 0.84883 0.14100
C 	C 	0.76540 0.91470 0.80720 0.13600
C 	C 	0.78570 0.92870 0.77284 -0.05700
C 	C 	0.80830 0.89040 0.75518 0.03400
H 	H 	0.81010 0.85820 0.76500 -0.00700
C 	C 	0.82820 0.89861 0.72344 -0.13000
C 	C 	0.85250 0.85675 0.70468 0.38700
C 	C 	0.82330 0.94550 0.70915 0.05400
H 	H 	0.83720 0.95190 0.68740 0.04400
C 	C 	0.79850 0.98310 0.72604 -0.09800
C 	C 	0.77960 0.97490 0.75814 0.01700
H 	H 	0.76270 0.00060 0.76990 0.05700
C 	C 	0.79190 0.03233 0.70787 0.36100
C 	C 	0.54040 0.83960 0.04689 0.36800
C 	C 	0.50890 0.85170 0.07810 -0.08900
C 	C 	0.48280 0.81430 0.09456 0.03100
H 	H 	0.48200 0.78150 0.08570 0.05200
C 	C 	0.51150 0.89830 0.09064 0.01000
H 	H 	0.52950 0.92320 0.07870 0.04600
C 	C 	0.48790 0.90990 0.12094 -0.04100
C 	C 	0.46040 0.87280 0.13820 0.00600
H 	H 	0.44410 0.88020 0.15900 0.06400
C 	C 	0.45770 0.82610 0.12456 -0.08100
C 	C 	0.42900 0.78630 0.14279 0.34800
C 	C 	0.49350 0.96070 0.13346 0.14000
H 	H 	0.77610 0.75760 0.76690 0.67300
H 	H 	0.76600 0.74750 0.72750 0.69000
H 	H 	0.73570 0.71720 0.75560 0.69200
Cu	Cu	0.37198 0.74741 0.80256 0.93800
Cu	Cu	0.40559 0.68427 0.84970 0.91000
O 	O 	0.15216 0.66059 0.96413 -0.40100
O 	O 	0.23151 0.63738 0.96440 -0.40000
O 	O 	0.34237 0.69495 0.87356 -0.40400
O 	O 	0.31320 0.74407 0.83266 -0.44600
O 	O 	0.18498 0.84965 0.71810 -0.46800
O 	O 	0.13296 0.87289 0.67701 -0.41400
O 	O 	0.93682 0.76260 0.72089 -0.36700
O 	O 	0.96137 0.81766 0.68193 -0.41100
O 	O 	0.12487 0.56349 0.03492 -0.41500
O 	O 	0.20423 0.53958 0.03603 -0.40600
O 	O 	0.20175 0.40459 0.16846 -0.36800
O 	O 	0.25655 0.43327 0.13004 -0.40600
O 	O 	0.34385 0.79982 0.76750 -0.74500
N 	N 	0.07960 0.73570 0.85924 -0.09000
N 	N 	0.05230 0.75230 0.83113 -0.08900
N 	N 	0.13152 0.75970 0.81755 -0.22000
H 	H 	0.15910 0.76620 0.80640 0.08400
N 	N 	0.02420 0.49420 0.16568 -0.08300
C 	C 	0.19510 0.66020 0.95186 0.37000
C 	C 	0.20350 0.68840 0.91969 -0.10900
C 	C 	0.25030 0.69390 0.90623 0.06300
H 	H 	0.27820 0.68200 0.91850 0.04300
C 	C 	0.25760 0.71640 0.87518 -0.12600
C 	C 	0.30870 0.71940 0.85928 0.37800
C 	C 	0.21790 0.73280 0.85695 0.04500
H 	H 	0.22300 0.74820 0.83550 -0.01300
C 	C 	0.16200 0.70510 0.90165 0.02700
H 	H 	0.12960 0.70160 0.91090 0.05100
C 	C 	0.16900 0.72710 0.86979 -0.06500
C 	C 	0.12670 0.74200 0.84883 0.14100
C 	C 	0.08530 0.76540 0.80720 0.13700
C 	C 	0.07130 0.78570 0.77284 -0.05900
C 	C 	0.10960 0.80830 0.75518 0.03500
H 	H 	0.14180 0.81010 0.76500 -0.00700
C 	C 	0.10139 0.82820 0.72344 -0.13000
C 	C 	0.14325 0.85250 0.70468 0.38700
C 	C 	0.05450 0.82330 0.70915 0.05400
H 	H 	0.04810 0.83720 0.68740 0.04500
C 	C 	0.01690 0.79850 0.72604 -0.09700
C 	C 	0.02510 0.77960 0.75814 0.02500
H 	H 	0.99940 0.76270 0.76990 0.05100
C 	C 	0.96767 0.79190 0.70787 0.35800
C 	C 	0.16040 0.54040 0.04689 0.36800
C 	C 	0.14830 0.50890 0.07810 -0.08900
C 	C 	0.18570 0.48280 0.09456 0.03100
H 	H 	0.21850 0.48200 0.08570 0.05200
C 	C 	0.10170 0.51150 0.09064 0.01000
H 	H 	0.07680 0.52950 0.07870 0.04600
C 	C 	0.09010 0.48790 0.12094 -0.04100
C 	C 	0.12720 0.46040 0.13820 0.00600
H 	H 	0.11980 0.44410 0.15900 0.06400
C 	C 	0.17390 0.45770 0.12456 -0.08100
C 	C 	0.21370 0.42900 0.14279 0.34800
C 	C 	0.03930 0.49350 0.13346 0.14200
H 	H 	0.24240 0.77610 0.76690 0.67300
H 	H 	0.25250 0.76600 0.72750 0.69000
H 	H 	0.28280 0.73570 0.75560 0.69200
Cu	Cu	0.62802 0.25259 0.80256 0.93800
Cu	Cu	0.59441 0.31573 0.84970 0.91000
O 	O 	0.84784 0.33941 0.96413 -0.40100
O 	O 	0.76849 0.36262 0.96440 -0.40000
O 	O 	0.65763 0.30505 0.87356 -0.40400
O 	O 	0.68680 0.25593 0.83266 -0.44600
O 	O 	0.81502 0.15035 0.71810 -0.46800
O 	O 	0.86704 0.12711 0.67701 -0.41400
O 	O 	0.06318 0.23740 0.72089 -0.36700
O 	O 	0.03863 0.18234 0.68193 -0.41000
O 	O 	0.87513 0.43651 0.03492 -0.41600
O 	O 	0.79577 0.46042 0.03603 -0.40600
O 	O 	0.79825 0.59541 0.16846 -0.36800
O 	O 	0.74345 0.56673 0.13004 -0.40600
O 	O 	0.65615 0.20018 0.76750 -0.74500
N 	N 	0.92040 0.26430 0.85924 -0.09100
N 	N 	0.94770 0.24770 0.83113 -0.08900
N 	N 	0.86848 0.24030 0.81755 -0.22000
H 	H 	0.84090 0.23380 0.80640 0.08400
N 	N 	0.97580 0.50580 0.16568 -0.08500
C 	C 	0.80490 0.33980 0.95186 0.37000
C 	C 	0.79650 0.31160 0.91969 -0.10900
C 	C 	0.74970 0.30610 0.90623 0.06300
H 	H 	0.72180 0.31800 0.91850 0.04300
C 	C 	0.74240 0.28360 0.87518 -0.12600
C 	C 	0.69130 0.28060 0.85928 0.37800
C 	C 	0.78210 0.26720 0.85695 0.04500
H 	H 	0.77700 0.25180 0.83550 -0.01300
C 	C 	0.83800 0.29490 0.90165 0.02800
H 	H 	0.87040 0.29840 0.91090 0.05100
C 	C 	0.83100 0.27290 0.86979 -0.06500
C 	C 	0.87330 0.25800 0.84883 0.14100
C 	C 	0.91470 0.23460 0.80720 0.13600
C 	C 	0.92870 0.21430 0.77284 -0.05700
C 	C 	0.89040 0.19170 0.75518 0.03400
H 	H 	0.85820 0.18990 0.76500 -0.00700
C 	C 	0.89861 0.17180 0.72344 -0.13000
C 	C 	0.85675 0.14750 0.70468 0.38700
C 	C 	0.94550 0.17670 0.70915 0.05400
H 	H 	0.95190 0.16280 0.68740 0.04400
C 	C 	0.98310 0.20150 0.72604 -0.09800
C 	C 	0.97490 0.22040 0.75814 0.01700
H 	H 	0.00060 0.23730 0.76990 0.05700
C 	C 	0.03233 0.20810 0.70787 0.36100
C 	C 	0.83960 0.45960 0.04689 0.36800
C 	C 	0.85170 0.49110 0.07810 -0.08900
C 	C 	0.81430 0.51720 0.09456 0.03100
H 	H 	0.78150 0.51800 0.08570 0.05200
C 	C 	0.89830 0.48850 0.09064 0.01000
H 	H 	0.92320 0.47050 0.07870 0.04600
C 	C 	0.90990 0.51210 0.12094 -0.04100
C 	C 	0.87280 0.53960 0.13820 0.00600
H 	H 	0.88020 0.55590 0.15900 0.06400
C 	C 	0.82610 0.54230 0.12456 -0.08100
C 	C 	0.78630 0.57100 0.14279 0.34800
C 	C 	0.96070 0.50650 0.13346 0.14000
H 	H 	0.75760 0.22390 0.76690 0.67300
H 	H 	0.74750 0.23400 0.72750 0.69000
H 	H 	0.71720 0.26430 0.75560 0.69200
Cu	Cu	0.91364 0.27436 0.50000 0.90200
Cu	Cu	0.88460 0.36886 0.50000 0.90700
Cu	Cu	0.08636 0.72564 0.50000 0.90200
Cu	Cu	0.11540 0.63114 0.50000 0.90700
Cu	Cu	0.72564 0.91364 0.50000 0.90200
Cu	Cu	0.63114 0.88460 0.50000 0.90700
Cu	Cu	0.27436 0.08636 0.50000 0.90200
Cu	Cu	0.36886 0.11540 0.50000 0.90700
Cu	Cu	0.58636 0.77436 -0.00000 0.89600
Cu	Cu	0.61540 0.86886 -0.00000 0.90200
Cu	Cu	0.41364 0.22564 -0.00000 0.89600
Cu	Cu	0.38460 0.13114 -0.00000 0.90200
Cu	Cu	0.77436 0.41364 -0.00000 0.89600
Cu	Cu	0.86886 0.38460 -0.00000 0.90200
Cu	Cu	0.22564 0.58636 -0.00000 0.89600
Cu	Cu	0.13114 0.61540 -0.00000 0.90200
C 	C 	0.73220 0.23220 0.25000 -4.09700
C 	C 	0.69540 0.19540 0.25000 1.76900
C 	C 	0.26780 0.76780 0.25000 -4.09800
C 	C 	0.30460 0.80460 0.25000 1.76900
C 	C 	0.76780 0.73220 0.25000 -4.09700
C 	C 	0.80460 0.69540 0.25000 1.76900
C 	C 	0.23220 0.26780 0.25000 -4.09800
C 	C 	0.19540 0.30460 0.25000 1.76900
C 	C 	0.26780 0.76780 0.75000 -4.09800
C 	C 	0.30460 0.80460 0.75000 1.76900
C 	C 	0.73220 0.23220 0.75000 -4.09700
C 	C 	0.69540 0.19540 0.75000 1.76900
C 	C 	0.23220 0.26780 0.75000 -4.09800
C 	C 	0.19540 0.30460 0.75000 1.76900
C 	C 	0.76780 0.73220 0.75000 -4.09700
C 	C 	0.80460 0.69540 0.75000 1.76900
N 	N 	-0.00000 0.50000 0.61304 -0.22300
H 	H 	0.00000 0.50000 0.59070 0.13100
N 	N 	0.50000 -0.00000 0.61304 -0.22300
H 	H 	0.50000 0.00000 0.59070 0.13100
N 	N 	0.50000 0.00000 0.88696 -0.22300
H 	H 	0.50000 -0.00000 0.90930 0.13200
N 	N 	0.00000 0.50000 0.88696 -0.22300
H 	H 	-0.00000 0.50000 0.90930 0.13200
N 	N 	-0.00000 0.50000 0.38696 -0.22300
H 	H 	-0.00000 0.50000 0.40930 0.13100
N 	N 	0.50000 -0.00000 0.38696 -0.22300
H 	H 	0.50000 0.00000 0.40930 0.13100
N 	N 	0.50000 0.00000 0.11304 -0.22300
H 	H 	0.50000 0.00000 0.09070 0.13000
N 	N 	0.00000 0.50000 0.11304 -0.22300
H 	H 	-0.00000 0.50000 0.09070 0.13000
