data_crystal

_cell_length_a 14.26100
_cell_length_b 16.66400
_cell_length_c 26.16000
_cell_angle_alpha 90.00000
_cell_angle_beta  90.00000
_cell_angle_gamma 90.00000

_symmetry_space_group_name_	'P 1'
_symmetry_space_group_name_H-M	'P 1'

loop_
_symmetry_equiv_pos_as_xyz
  x,y,z

loop_
_atom_site_label
_atom_site_type_symbol
_atom_site_fract_x
_atom_site_fract_y
_atom_site_fract_z
_atom_site_charge
Zn	Zn	0.77524 0.07662 0.89130 1.21000
Zn	Zn	0.93625 0.93611 0.90648 1.23300
O 	O 	0.86641 0.13696 0.93974 -0.42300
O 	O 	0.95780 0.02908 0.94996 -0.48600
O 	O 	0.17499 0.34307 0.09864 -0.45200
O 	O 	0.24630 0.23159 0.12427 -0.28900
O 	O 	0.03334 0.86891 0.93712 -0.44400
O 	O 	0.97393 0.76413 0.89596 -0.32300
O 	O 	0.31490 0.60655 0.07781 -0.48700
O 	O 	0.23092 0.50009 0.05188 -0.44600
O 	O 	0.54497 0.03877 0.33536 -0.50400
O 	O 	0.62672 0.92395 0.33501 -0.50000
N 	N 	0.27668 0.86094 0.06951 -0.17200
N 	N 	0.18260 0.97113 0.04024 -0.17600
N 	N 	0.29067 0.99206 0.10858 -0.17600
N 	N 	0.38299 0.88211 0.13292 -0.27100
H 	H 	0.40200 0.83590 0.12260 0.17500
N 	N 	0.16430 0.84924 0.00435 -0.25200
H 	H 	0.13440 0.87760 0.98220 0.17600
N 	N 	0.19984 0.09593 0.07925 -0.25400
H 	H 	0.23260 0.12330 0.10060 0.17500
C 	C 	0.31446 0.91483 0.10384 0.20600
C 	C 	0.21110 0.89334 0.04007 0.20500
C 	C 	0.22420 0.01633 0.07527 0.20500
C 	C 	0.13040 0.13881 0.05397 0.18200
C 	C 	0.06960 0.10285 0.01950 -0.14700
H 	H 	0.07610 0.04850 0.01230 0.11300
C 	C 	0.99930 0.14649 0.99549 0.00200
C 	C 	0.98840 0.22774 0.00480 -0.08700
H 	H 	0.94100 0.25700 0.98900 0.08200
C 	C 	0.05130 0.26458 0.03880 0.05500
H 	H 	0.04620 0.31940 0.04480 0.03300
C 	C 	0.12050 0.22148 0.06368 -0.16000
C 	C 	0.93560 0.10138 0.95765 0.36200
C 	C 	0.18590 0.26851 0.09789 0.37300
C 	C 	0.15570 0.76670 0.99697 0.17300
C 	C 	0.08920 0.73803 0.95998 -0.15000
C 	C 	0.08030 0.65695 0.95311 0.04600
H 	H 	0.03970 0.63860 0.92790 0.02800
C 	C 	0.12950 0.60018 0.98228 -0.07900
H 	H 	0.11980 0.54540 0.97780 0.07500
C 	C 	0.19420 0.62919 0.01858 -0.01300
C 	C 	0.20820 0.71189 0.02434 -0.13800
H 	H 	0.25370 0.73020 0.04700 0.11200
C 	C 	0.02720 0.79201 0.92785 0.35000
C 	C 	0.24990 0.57394 0.05118 0.33000
C 	C 	0.42820 0.91014 0.17665 0.25500
C 	C 	0.50130 0.86310 0.19593 -0.27800
H 	H 	0.51950 0.81720 0.17830 0.14500
C 	C 	0.54640 0.88310 0.24006 0.18000
H 	H 	0.59390 0.85010 0.25240 -0.01500
C 	C 	0.52260 0.95205 0.26692 -0.22600
C 	C 	0.44990 0.99810 0.24784 0.17000
H 	H 	0.43140 0.04370 0.26580 -0.00900
C 	C 	0.40340 0.97860 0.20274 -0.26700
H 	H 	0.35600 0.01160 0.19030 0.14300
C 	C 	0.56780 0.97261 0.31588 0.43300
Zn	Zn	0.72476 0.92338 0.39129 1.20900
Zn	Zn	0.56375 0.06389 0.40648 1.23200
O 	O 	0.63359 0.86304 0.43974 -0.42400
O 	O 	0.54220 0.97092 0.44996 -0.48700
O 	O 	0.32501 0.65693 0.59864 -0.45200
O 	O 	0.25370 0.76841 0.62427 -0.28900
O 	O 	0.46666 0.13109 0.43712 -0.44400
O 	O 	0.52607 0.23587 0.39596 -0.32300
O 	O 	0.18510 0.39345 0.57781 -0.48700
O 	O 	0.26908 0.49991 0.55188 -0.44600
O 	O 	0.95503 0.96123 0.83536 -0.50500
O 	O 	0.87328 0.07605 0.83501 -0.50000
N 	N 	0.22332 0.13906 0.56951 -0.17200
N 	N 	0.31740 0.02887 0.54024 -0.17700
N 	N 	0.20933 0.00794 0.60858 -0.17700
N 	N 	0.11701 0.11789 0.63292 -0.27000
H 	H 	0.09800 0.16410 0.62260 0.17500
N 	N 	0.33570 0.15076 0.50435 -0.25200
H 	H 	0.36560 0.12240 0.48220 0.17600
N 	N 	0.30016 0.90407 0.57925 -0.25400
H 	H 	0.26740 0.87670 0.60060 0.17600
C 	C 	0.18554 0.08517 0.60384 0.20500
C 	C 	0.28890 0.10666 0.54007 0.20500
C 	C 	0.27580 0.98367 0.57527 0.20600
C 	C 	0.36960 0.86119 0.55397 0.18200
C 	C 	0.43040 0.89715 0.51950 -0.14500
H 	H 	0.42390 0.95150 0.51230 0.11300
C 	C 	0.50070 0.85351 0.49549 -0.00000
C 	C 	0.51160 0.77226 0.50480 -0.08500
H 	H 	0.55900 0.74300 0.48900 0.08100
C 	C 	0.44870 0.73542 0.53880 0.05400
H 	H 	0.45380 0.68060 0.54480 0.03300
C 	C 	0.37950 0.77852 0.56368 -0.15900
C 	C 	0.56440 0.89862 0.45765 0.36200
C 	C 	0.31410 0.73149 0.59789 0.37300
C 	C 	0.34430 0.23330 0.49697 0.17300
C 	C 	0.41080 0.26197 0.45998 -0.15000
C 	C 	0.41970 0.34305 0.45311 0.04600
H 	H 	0.46030 0.36140 0.42790 0.02800
C 	C 	0.37050 0.39982 0.48228 -0.07900
H 	H 	0.38020 0.45460 0.47780 0.07500
C 	C 	0.30580 0.37081 0.51858 -0.01300
C 	C 	0.29180 0.28811 0.52434 -0.13800
H 	H 	0.24630 0.26980 0.54700 0.11200
C 	C 	0.47280 0.20799 0.42785 0.35000
C 	C 	0.25010 0.42606 0.55118 0.33000
C 	C 	0.07180 0.08986 0.67665 0.25300
C 	C 	0.99870 0.13690 0.69593 -0.27500
H 	H 	0.98050 0.18280 0.67830 0.14400
C 	C 	0.95360 0.11690 0.74006 0.17800
H 	H 	0.90610 0.14990 0.75240 -0.01500
C 	C 	0.97740 0.04795 0.76692 -0.22300
C 	C 	0.05010 0.00190 0.74784 0.16600
H 	H 	0.06860 0.95630 0.76580 -0.00700
C 	C 	0.09660 0.02140 0.70274 -0.26600
H 	H 	0.14400 0.98840 0.69030 0.14300
C 	C 	0.93220 0.02739 0.81588 0.43400
Zn	Zn	0.22476 0.57662 0.60871 1.20900
Zn	Zn	0.06375 0.43611 0.59352 1.23200
O 	O 	0.13359 0.63696 0.56026 -0.42400
O 	O 	0.04220 0.52908 0.55004 -0.48700
O 	O 	0.82501 0.84307 0.40136 -0.45200
O 	O 	0.75370 0.73159 0.37573 -0.28900
O 	O 	0.96666 0.36891 0.56288 -0.44400
O 	O 	0.02607 0.26413 0.60404 -0.32300
O 	O 	0.68510 0.10655 0.42219 -0.48700
O 	O 	0.76908 0.00009 0.44812 -0.44600
O 	O 	0.45503 0.53877 0.16464 -0.50400
O 	O 	0.37328 0.42395 0.16499 -0.50000
N 	N 	0.72332 0.36094 0.43049 -0.17200
N 	N 	0.81740 0.47113 0.45976 -0.17700
N 	N 	0.70933 0.49206 0.39142 -0.17600
N 	N 	0.61701 0.38211 0.36708 -0.27100
H 	H 	0.59800 0.33590 0.37740 0.17500
N 	N 	0.83570 0.34924 0.49565 -0.25200
H 	H 	0.86560 0.37760 0.51780 0.17600
N 	N 	0.80016 0.59593 0.42075 -0.25400
H 	H 	0.76740 0.62330 0.39940 0.17500
C 	C 	0.68554 0.41483 0.39616 0.20500
C 	C 	0.78890 0.39334 0.45993 0.20500
C 	C 	0.77580 0.51633 0.42473 0.20600
C 	C 	0.86960 0.63881 0.44603 0.18200
C 	C 	0.93040 0.60285 0.48050 -0.14500
H 	H 	0.92390 0.54850 0.48770 0.11300
C 	C 	0.00070 0.64649 0.50451 -0.00000
C 	C 	0.01160 0.72774 0.49520 -0.08400
H 	H 	0.05900 0.75700 0.51100 0.08000
C 	C 	0.94870 0.76458 0.46120 0.05300
H 	H 	0.95380 0.81940 0.45520 0.03300
C 	C 	0.87950 0.72148 0.43632 -0.15900
C 	C 	0.06440 0.60138 0.54235 0.36200
C 	C 	0.81410 0.76851 0.40211 0.37300
C 	C 	0.84430 0.26670 0.50303 0.17300
C 	C 	0.91080 0.23803 0.54002 -0.15000
C 	C 	0.91970 0.15695 0.54689 0.04600
H 	H 	0.96030 0.13860 0.57210 0.02800
C 	C 	0.87050 0.10018 0.51772 -0.07900
H 	H 	0.88020 0.04540 0.52220 0.07500
C 	C 	0.80580 0.12919 0.48142 -0.01300
C 	C 	0.79180 0.21189 0.47566 -0.13800
H 	H 	0.74630 0.23020 0.45300 0.11200
C 	C 	0.97280 0.29201 0.57215 0.35000
C 	C 	0.75010 0.07394 0.44882 0.33000
C 	C 	0.57180 0.41014 0.32335 0.25500
C 	C 	0.49870 0.36310 0.30407 -0.27800
H 	H 	0.48050 0.31720 0.32170 0.14500
C 	C 	0.45360 0.38310 0.25994 0.18000
H 	H 	0.40610 0.35010 0.24760 -0.01500
C 	C 	0.47740 0.45205 0.23308 -0.22600
C 	C 	0.55010 0.49810 0.25216 0.17000
H 	H 	0.56860 0.54370 0.23420 -0.00800
C 	C 	0.59660 0.47860 0.29726 -0.26800
H 	H 	0.64400 0.51160 0.30970 0.14400
C 	C 	0.43220 0.47261 0.18412 0.43300
Zn	Zn	0.27524 0.42338 0.10871 1.20900
Zn	Zn	0.43625 0.56389 0.09352 1.23200
O 	O 	0.36641 0.36304 0.06026 -0.42400
O 	O 	0.45780 0.47092 0.05004 -0.48700
O 	O 	0.67499 0.15693 0.90136 -0.45200
O 	O 	0.74630 0.26841 0.87573 -0.28900
O 	O 	0.53334 0.63109 0.06288 -0.44400
O 	O 	0.47393 0.73587 0.10404 -0.32300
O 	O 	0.81490 0.89345 0.92219 -0.48700
O 	O 	0.73092 0.99991 0.94812 -0.44700
O 	O 	0.04497 0.46123 0.66464 -0.50400
O 	O 	0.12672 0.57605 0.66499 -0.50000
N 	N 	0.77668 0.63906 0.93049 -0.17200
N 	N 	0.68260 0.52887 0.95976 -0.17700
N 	N 	0.79067 0.50794 0.89142 -0.17600
N 	N 	0.88299 0.61789 0.86708 -0.27100
H 	H 	0.90200 0.66410 0.87740 0.17500
N 	N 	0.66430 0.65076 0.99565 -0.25200
H 	H 	0.63440 0.62240 0.01780 0.17600
N 	N 	0.69984 0.40407 0.92075 -0.25400
H 	H 	0.73260 0.37670 0.89940 0.17500
C 	C 	0.81446 0.58517 0.89616 0.20500
C 	C 	0.71110 0.60666 0.95993 0.20500
C 	C 	0.72420 0.48367 0.92473 0.20600
C 	C 	0.63040 0.36119 0.94603 0.18100
C 	C 	0.56960 0.39715 0.98050 -0.14400
H 	H 	0.57610 0.45150 0.98770 0.11300
C 	C 	0.49930 0.35351 0.00451 -0.00100
C 	C 	0.48840 0.27226 0.99520 -0.08400
H 	H 	0.44100 0.24300 0.01100 0.08000
C 	C 	0.55130 0.23542 0.96120 0.05400
H 	H 	0.54620 0.18060 0.95520 0.03300
C 	C 	0.62050 0.27852 0.93632 -0.15900
C 	C 	0.43560 0.39862 0.04235 0.36300
C 	C 	0.68590 0.23149 0.90211 0.37300
C 	C 	0.65570 0.73330 0.00303 0.17300
C 	C 	0.58920 0.76197 0.04002 -0.15000
C 	C 	0.58030 0.84305 0.04689 0.04600
H 	H 	0.53970 0.86140 0.07210 0.02800
C 	C 	0.62950 0.89982 0.01772 -0.07900
H 	H 	0.61980 0.95460 0.02220 0.07500
C 	C 	0.69420 0.87081 0.98142 -0.01300
C 	C 	0.70820 0.78811 0.97566 -0.13800
H 	H 	0.75370 0.76980 0.95300 0.11200
C 	C 	0.52720 0.70799 0.07215 0.35000
C 	C 	0.74990 0.92606 0.94882 0.33000
C 	C 	0.92820 0.58986 0.82335 0.25500
C 	C 	0.00130 0.63690 0.80407 -0.27800
H 	H 	0.01950 0.68280 0.82170 0.14500
C 	C 	0.04640 0.61690 0.75994 0.18000
H 	H 	0.09390 0.64990 0.74760 -0.01500
C 	C 	0.02260 0.54795 0.73308 -0.22600
C 	C 	0.94990 0.50190 0.75216 0.17000
H 	H 	0.93140 0.45630 0.73420 -0.00800
C 	C 	0.90340 0.52140 0.79726 -0.26800
H 	H 	0.85600 0.48840 0.80970 0.14300
C 	C 	0.06780 0.52739 0.68412 0.43300
