data_crystal

_cell_length_a 8.84750
_cell_length_b 10.71600
_cell_length_c 18.89500
_cell_angle_alpha 75.52100
_cell_angle_beta  83.77700
_cell_angle_gamma 69.30600

_symmetry_space_group_name_	'P 1'
_symmetry_space_group_name_H-M	'P 1'

loop_
_symmetry_equiv_pos_as_xyz
  x,y,z

loop_
_atom_site_label
_atom_site_type_symbol
_atom_site_fract_x
_atom_site_fract_y
_atom_site_fract_z
_atom_site_charge
Sm	Sm	0.00220 0.41200 0.28695 1.94000
Sm	Sm	0.39655 0.53203 0.22375 2.02300
C 	C 	0.52600 0.31420 0.43950 0.11000
H 	H 	0.55740 0.29240 0.39430 -0.01000
C 	C 	0.36140 0.37140 0.45440 -0.19200
C 	C 	0.31200 0.40340 0.52140 0.12600
H 	H 	0.20290 0.44140 0.53290 0.00800
C 	C 	0.43160 0.37700 0.57210 -0.21500
C 	C 	0.59150 0.31920 0.55280 0.12300
H 	H 	0.66940 0.29990 0.58700 0.00100
C 	C 	0.24430 0.40010 0.39610 0.39600
C 	C 	0.38570 0.41630 0.64390 0.50800
C 	C 	0.90050 0.69140 0.91620 0.12500
H 	H 	0.93680 0.71350 0.86820 -0.01100
C 	C 	0.76950 0.64310 0.92970 -0.20300
C 	C 	0.71050 0.61540 0.00100 0.14800
H 	H 	0.62050 0.58770 0.01120 -0.00700
C 	C 	0.78930 0.63010 0.05690 -0.23600
C 	C 	0.92210 0.67630 0.03710 0.14600
H 	H 	0.97560 0.68560 0.07410 -0.02100
C 	C 	0.74480 0.59220 0.13600 0.54400
C 	C 	0.70080 0.61200 0.87020 0.39900
C 	C 	0.63210 0.07230 0.24390 0.14300
H 	H 	0.53420 0.14400 0.24200 -0.02000
C 	C 	0.77280 0.84760 0.24570 0.12200
H 	H 	0.77330 0.76100 0.24490 0.00300
C 	C 	0.91820 0.86440 0.24980 -0.20900
C 	C 	0.91810 0.99420 0.24890 0.14900
H 	H 	0.01520 0.00950 0.24920 -0.01900
C 	C 	0.77250 0.10110 0.24750 -0.23200
C 	C 	0.76290 0.24410 0.24790 0.50600
C 	C 	0.07240 0.74230 0.25400 0.44500
N 	N 	0.64180 0.28870 0.48700 -0.16100
N 	N 	0.97510 0.70710 0.96930 -0.16000
N 	N 	0.62770 0.95110 0.24290 -0.15800
O 	O 	0.09460 0.42930 0.41130 -0.42000
O 	O 	0.29680 0.39370 0.33150 -0.55800
O 	O 	0.23410 0.46050 0.66010 -0.52300
O 	O 	0.49470 0.41040 0.68260 -0.50800
O 	O 	0.85150 0.55570 0.18050 -0.51500
O 	O 	0.59790 0.60200 0.15040 -0.54000
O 	O 	0.56760 0.58930 0.88120 -0.42900
O 	O 	0.78020 0.60160 0.81050 -0.57000
O 	O 	0.62420 0.32690 0.25650 -0.52000
O 	O 	0.89250 0.26780 0.24130 -0.52300
O 	O 	0.20430 0.75920 0.25350 -0.45300
O 	O 	0.06270 0.62920 0.25560 -0.55300
Sm	Sm	0.99780 0.58800 0.71305 1.94100
Sm	Sm	0.60345 0.46797 0.77625 2.02400
C 	C 	0.47400 0.68580 0.56050 0.11000
H 	H 	0.44260 0.70760 0.60570 -0.01000
C 	C 	0.63860 0.62860 0.54560 -0.19200
C 	C 	0.68800 0.59660 0.47860 0.12600
H 	H 	0.79710 0.55860 0.46710 0.00800
C 	C 	0.56840 0.62300 0.42790 -0.21500
C 	C 	0.40850 0.68080 0.44720 0.12300
H 	H 	0.33060 0.70010 0.41300 0.00100
C 	C 	0.75570 0.59990 0.60390 0.39600
C 	C 	0.61430 0.58370 0.35610 0.50800
C 	C 	0.09950 0.30860 0.08380 0.12500
H 	H 	0.06320 0.28650 0.13180 -0.01100
C 	C 	0.23050 0.35690 0.07030 -0.20300
C 	C 	0.28950 0.38460 0.99900 0.14800
H 	H 	0.37950 0.41230 0.98880 -0.00700
C 	C 	0.21070 0.36990 0.94310 -0.23600
C 	C 	0.07790 0.32370 0.96290 0.14600
H 	H 	0.02440 0.31440 0.92590 -0.02100
C 	C 	0.25520 0.40780 0.86400 0.54400
C 	C 	0.29920 0.38800 0.12980 0.39900
C 	C 	0.36790 0.92770 0.75610 0.14300
H 	H 	0.46580 0.85600 0.75800 -0.02000
C 	C 	0.22720 0.15240 0.75430 0.12200
H 	H 	0.22670 0.23900 0.75510 0.00300
C 	C 	0.08180 0.13560 0.75020 -0.20900
C 	C 	0.08190 0.00580 0.75110 0.14900
H 	H 	0.98480 0.99050 0.75080 -0.01900
C 	C 	0.22750 0.89890 0.75250 -0.23200
C 	C 	0.23710 0.75590 0.75210 0.50600
C 	C 	0.92760 0.25770 0.74600 0.44500
N 	N 	0.35820 0.71130 0.51300 -0.16100
N 	N 	0.02490 0.29290 0.03070 -0.16000
N 	N 	0.37230 0.04890 0.75710 -0.15800
O 	O 	0.90540 0.57070 0.58870 -0.42000
O 	O 	0.70320 0.60630 0.66850 -0.55800
O 	O 	0.76590 0.53950 0.33990 -0.52300
O 	O 	0.50530 0.58960 0.31740 -0.50800
O 	O 	0.14850 0.44430 0.81950 -0.51500
O 	O 	0.40210 0.39800 0.84960 -0.54000
O 	O 	0.43240 0.41070 0.11880 -0.42900
O 	O 	0.21980 0.39840 0.18950 -0.57000
O 	O 	0.37580 0.67310 0.74350 -0.52000
O 	O 	0.10750 0.73220 0.75870 -0.52300
O 	O 	0.79570 0.24080 0.74650 -0.45300
O 	O 	0.93730 0.37080 0.74440 -0.55300
