data_crystal

_cell_length_a 22.00230
_cell_length_b 19.24110
_cell_length_c 8.73110
_cell_angle_alpha 90.00000
_cell_angle_beta  90.00000
_cell_angle_gamma 90.00000

_symmetry_space_group_name_	'P 1'
_symmetry_space_group_name_H-M	'P 1'

loop_
_symmetry_equiv_pos_as_xyz
  x,y,z

loop_
_atom_site_label
_atom_site_type_symbol
_atom_site_fract_x
_atom_site_fract_y
_atom_site_fract_z
_atom_site_charge
C 	C 	0.49876 0.15272 0.44330 -0.19000
C 	C 	0.50143 0.18324 0.55690 -0.18500
N 	N 	0.42703 0.03284 0.25144 -0.20300
C 	C 	0.43098 0.96854 0.19230 -0.00400
H 	H 	0.46460 0.95710 0.12870 0.00200
N 	N 	0.33752 0.93208 0.30420 -0.10800
C 	C 	0.38711 0.91856 0.22180 0.00400
H 	H 	0.39260 0.87310 0.18190 0.01200
N 	N 	0.26330 0.07958 0.47430 -0.13500
C 	C 	0.33201 0.99730 0.35780 0.02800
N 	N 	0.14546 0.18341 0.64670 -0.11900
C 	C 	0.37680 0.04718 0.33300 -0.00500
H 	H 	0.37170 0.09240 0.37480 0.01900
N 	N 	0.21585 0.28698 0.50920 -0.10400
C 	C 	0.27621 0.01249 0.44800 0.09600
N 	N 	0.06905 0.80587 0.71530 -0.23700
C 	C 	0.24036 0.95753 0.49910 -0.12800
H 	H 	0.25130 0.91090 0.47660 0.09100
C 	C 	0.18815 0.97217 0.58370 0.05300
C 	C 	0.14736 0.91495 0.63180 0.05000
C 	C 	0.14333 0.85415 0.54480 -0.12700
H 	H 	0.16750 0.84860 0.45550 0.08000
C 	C 	0.10385 0.80207 0.58950 0.06400
H 	H 	0.10120 0.76150 0.52790 -0.02100
C 	C 	0.07327 0.86398 0.79910 0.06700
H 	H 	0.04910 0.86750 0.88900 -0.02000
C 	C 	0.11101 0.91933 0.76180 -0.12800
H 	H 	0.11200 0.95970 0.82430 0.07100
C 	C 	0.17503 0.04179 0.61470 -0.12500
H 	H 	0.14070 0.05390 0.67500 0.07300
C 	C 	0.21321 0.09354 0.55580 0.09000
C 	C 	0.19675 0.16796 0.57190 0.03000
C 	C 	0.12936 0.25069 0.65080 0.00700
H 	H 	0.09320 0.26370 0.70290 0.00200
C 	C 	0.16401 0.30156 0.58130 -0.00400
H 	H 	0.15050 0.34840 0.58500 0.02900
C 	C 	0.23185 0.21995 0.50490 0.00300
H 	H 	0.26850 0.20740 0.45440 0.04500
N 	N 	0.50124 0.15272 0.05670 -0.21100
C 	C 	0.49857 0.18324 0.94310 -0.16500
N 	N 	0.57297 0.03284 0.24856 -0.20300
C 	C 	0.56902 0.96854 0.30770 -0.00300
H 	H 	0.53540 0.95710 0.37130 0.00300
N 	N 	0.66248 0.93208 0.19580 -0.10800
C 	C 	0.61289 0.91856 0.27820 0.00400
H 	H 	0.60740 0.87310 0.31810 0.01300
N 	N 	0.73670 0.07958 0.02570 -0.14200
C 	C 	0.66799 0.99730 0.14220 0.02500
N 	N 	0.85454 0.18341 0.85330 -0.10900
C 	C 	0.62320 0.04718 0.16700 -0.00300
H 	H 	0.62830 0.09240 0.12520 0.01700
N 	N 	0.78415 0.28698 0.99080 -0.10500
C 	C 	0.72379 0.01249 0.05200 0.10000
N 	N 	0.93095 0.80587 0.78470 -0.20700
C 	C 	0.75964 0.95753 0.00090 -0.14400
H 	H 	0.74870 0.91090 0.02340 0.09400
C 	C 	0.81185 0.97217 0.91630 0.07300
C 	C 	0.85264 0.91495 0.86820 0.04300
C 	C 	0.85667 0.85415 0.95520 -0.10200
H 	H 	0.83250 0.84860 0.04450 0.07200
C 	C 	0.89615 0.80207 0.91050 0.06700
H 	H 	0.89880 0.76150 0.97210 0.00400
C 	C 	0.92673 0.86398 0.70090 0.07400
H 	H 	0.95090 0.86750 0.61100 0.01100
C 	C 	0.88899 0.91933 0.73820 -0.10900
H 	H 	0.88800 0.95970 0.67570 0.07600
C 	C 	0.82497 0.04179 0.88530 -0.13600
H 	H 	0.85930 0.05390 0.82500 0.08800
C 	C 	0.78679 0.09354 0.94420 0.10300
C 	C 	0.80325 0.16796 0.92810 0.02400
C 	C 	0.87064 0.25069 0.84920 0.00400
H 	H 	0.90680 0.26370 0.79710 0.02600
C 	C 	0.83599 0.30156 0.91870 0.00200
H 	H 	0.84950 0.34840 0.91500 0.03600
C 	C 	0.76815 0.21995 0.99510 0.01600
H 	H 	0.73150 0.20740 0.04560 0.03700
C 	C 	0.99876 0.65272 0.05670 -0.03000
C 	C 	0.00143 0.68324 0.94310 -0.33700
N 	N 	0.92703 0.53284 0.24856 -0.18700
C 	C 	0.93098 0.46854 0.30770 0.00300
H 	H 	0.96460 0.45710 0.37130 0.02800
N 	N 	0.83752 0.43208 0.19580 -0.10800
C 	C 	0.88711 0.41856 0.27820 0.00800
H 	H 	0.89260 0.37310 0.31810 0.02100
N 	N 	0.76330 0.57958 0.02570 -0.14100
C 	C 	0.83201 0.49730 0.14220 0.02700
N 	N 	0.64546 0.68341 0.85330 -0.11400
C 	C 	0.87680 0.54718 0.16700 -0.00200
H 	H 	0.87170 0.59240 0.12520 0.01900
N 	N 	0.71585 0.78698 0.99080 -0.10500
C 	C 	0.77621 0.51249 0.05200 0.10000
N 	N 	0.56905 0.30587 0.78470 -0.22500
C 	C 	0.74036 0.45753 0.00090 -0.14300
H 	H 	0.75130 0.41090 0.02340 0.09400
C 	C 	0.68815 0.47217 0.91630 0.07100
C 	C 	0.64736 0.41495 0.86820 0.04100
C 	C 	0.64333 0.35415 0.95520 -0.10500
H 	H 	0.66750 0.34860 0.04450 0.07100
C 	C 	0.60385 0.30207 0.91050 0.06100
H 	H 	0.60120 0.26150 0.97210 -0.00700
C 	C 	0.57327 0.36398 0.70090 0.06800
H 	H 	0.54910 0.36750 0.61100 -0.00600
C 	C 	0.61101 0.41933 0.73820 -0.11500
H 	H 	0.61200 0.45970 0.67570 0.07200
C 	C 	0.67503 0.54179 0.88530 -0.13500
H 	H 	0.64070 0.55390 0.82500 0.08200
C 	C 	0.71321 0.59354 0.94420 0.10200
C 	C 	0.69675 0.66796 0.92810 0.02400
C 	C 	0.62936 0.75069 0.84920 0.00600
H 	H 	0.59320 0.76370 0.79710 0.01000
C 	C 	0.66401 0.80156 0.91870 -0.00200
H 	H 	0.65050 0.84840 0.91500 0.03100
C 	C 	0.73185 0.71995 0.99510 0.01500
H 	H 	0.76850 0.70740 0.04560 0.03800
N 	N 	0.00124 0.65272 0.44330 -0.28600
C 	C 	0.99857 0.68324 0.55690 -0.04600
N 	N 	0.07297 0.53284 0.25144 -0.21400
C 	C 	0.06902 0.46854 0.19230 -0.01000
H 	H 	0.03540 0.45710 0.12870 -0.01700
N 	N 	0.16248 0.43208 0.30420 -0.10900
C 	C 	0.11289 0.41856 0.22180 0.00100
H 	H 	0.10740 0.37310 0.18190 0.00700
N 	N 	0.23670 0.57958 0.47430 -0.13600
C 	C 	0.16799 0.49730 0.35780 0.02600
N 	N 	0.35454 0.68341 0.64670 -0.11500
C 	C 	0.12320 0.54718 0.33300 -0.00500
H 	H 	0.12830 0.59240 0.37480 0.01600
N 	N 	0.28415 0.78698 0.50920 -0.10400
C 	C 	0.22379 0.51249 0.44800 0.09700
N 	N 	0.43095 0.30587 0.71530 -0.22700
C 	C 	0.25964 0.45753 0.49910 -0.13000
H 	H 	0.24870 0.41090 0.47660 0.09100
C 	C 	0.31185 0.47217 0.58370 0.05700
C 	C 	0.35264 0.41495 0.63180 0.05200
C 	C 	0.35667 0.35415 0.54480 -0.12300
H 	H 	0.33250 0.34860 0.45550 0.08100
C 	C 	0.39615 0.30207 0.58950 0.06900
H 	H 	0.39880 0.26150 0.52790 -0.01100
C 	C 	0.42673 0.36398 0.79910 0.07200
H 	H 	0.45090 0.36750 0.88900 -0.00500
C 	C 	0.38899 0.41933 0.76180 -0.12200
H 	H 	0.38800 0.45970 0.82430 0.07500
C 	C 	0.32497 0.54179 0.61470 -0.12700
H 	H 	0.35930 0.55390 0.67500 0.07900
C 	C 	0.28679 0.59354 0.55580 0.09200
C 	C 	0.30325 0.66796 0.57190 0.02900
C 	C 	0.37064 0.75069 0.65080 0.00600
H 	H 	0.40680 0.76370 0.70290 0.01000
C 	C 	0.33599 0.80156 0.58130 -0.00200
H 	H 	0.34950 0.84840 0.58500 0.03000
C 	C 	0.26815 0.71995 0.50490 0.00300
H 	H 	0.23150 0.70740 0.45440 0.04500
Cu	Cu	0.50000 0.10498 0.25000 0.84800
Cu	Cu	0.00000 0.60498 0.25000 0.80800
Cu	Cu	0.50000 0.23146 0.75000 0.84800
Cu	Cu	0.00000 0.73146 0.75000 0.81900
C 	C 	0.00124 0.34728 0.94330 -0.33800
C 	C 	0.99857 0.31676 0.05690 -0.02000
N 	N 	0.07297 0.46716 0.75144 -0.21000
C 	C 	0.06902 0.53146 0.69230 -0.00900
H 	H 	0.03540 0.54290 0.62870 -0.01700
N 	N 	0.16248 0.56792 0.80420 -0.10800
C 	C 	0.11289 0.58144 0.72180 0.00200
H 	H 	0.10740 0.62690 0.68190 0.00700
N 	N 	0.23670 0.42042 0.97430 -0.13100
C 	C 	0.16799 0.50270 0.85780 0.02900
N 	N 	0.35454 0.31659 0.14670 -0.11700
C 	C 	0.12320 0.45282 0.83300 -0.00600
H 	H 	0.12830 0.40760 0.87480 0.02000
N 	N 	0.28415 0.21302 0.00920 -0.10300
C 	C 	0.22379 0.48751 0.94800 0.09300
N 	N 	0.43095 0.69413 0.21530 -0.22900
C 	C 	0.25964 0.54247 0.99910 -0.11600
H 	H 	0.24870 0.58910 0.97660 0.08800
C 	C 	0.31185 0.52783 0.08370 0.04200
C 	C 	0.35264 0.58505 0.13180 0.06100
C 	C 	0.35667 0.64585 0.04480 -0.14000
H 	H 	0.33250 0.65140 0.95550 0.09000
C 	C 	0.39615 0.69793 0.08950 0.07600
H 	H 	0.39880 0.73850 0.02790 -0.01500
C 	C 	0.42673 0.63602 0.29910 0.07500
H 	H 	0.45090 0.63250 0.38900 -0.00700
C 	C 	0.38899 0.58067 0.26180 -0.12800
H 	H 	0.38800 0.54030 0.32430 0.07600
C 	C 	0.32497 0.45821 0.11470 -0.11800
H 	H 	0.35930 0.44610 0.17500 0.07500
C 	C 	0.28679 0.40646 0.05580 0.08200
C 	C 	0.30325 0.33204 0.07190 0.03400
C 	C 	0.37064 0.24931 0.15080 0.00600
H 	H 	0.40680 0.23630 0.20290 0.00900
C 	C 	0.33599 0.19844 0.08130 -0.00400
H 	H 	0.34950 0.15160 0.08500 0.02900
C 	C 	0.26815 0.28005 0.00490 -0.01000
H 	H 	0.23150 0.29260 0.95440 0.05300
N 	N 	0.99876 0.34728 0.55670 -0.12000
C 	C 	0.00143 0.31676 0.44310 -0.27800
N 	N 	0.92703 0.46716 0.74856 -0.18400
C 	C 	0.93098 0.53146 0.80770 0.00400
H 	H 	0.96460 0.54290 0.87130 0.02600
N 	N 	0.83752 0.56792 0.69580 -0.10700
C 	C 	0.88711 0.58144 0.77820 0.00800
H 	H 	0.89260 0.62690 0.81810 0.02100
N 	N 	0.76330 0.42042 0.52570 -0.13500
C 	C 	0.83201 0.50270 0.64220 0.03000
N 	N 	0.64546 0.31659 0.35330 -0.11600
C 	C 	0.87680 0.45282 0.66700 -0.00100
H 	H 	0.87170 0.40760 0.62520 0.02400
N 	N 	0.71585 0.21302 0.49080 -0.10400
C 	C 	0.77621 0.48751 0.55200 0.09700
N 	N 	0.56905 0.69413 0.28470 -0.22700
C 	C 	0.74036 0.54247 0.50090 -0.12900
H 	H 	0.75130 0.58910 0.52340 0.09100
C 	C 	0.68815 0.52783 0.41630 0.05600
C 	C 	0.64736 0.58505 0.36820 0.05100
C 	C 	0.64333 0.64585 0.45520 -0.12300
H 	H 	0.66750 0.65140 0.54450 0.08100
C 	C 	0.60385 0.69793 0.41050 0.06800
H 	H 	0.60120 0.73850 0.47210 -0.01100
C 	C 	0.57327 0.63602 0.20090 0.07100
H 	H 	0.54910 0.63250 0.11100 -0.00800
C 	C 	0.61101 0.58067 0.23820 -0.12200
H 	H 	0.61200 0.54030 0.17570 0.07300
C 	C 	0.67503 0.45821 0.38530 -0.12600
H 	H 	0.64070 0.44610 0.32500 0.07800
C 	C 	0.71321 0.40646 0.44420 0.09100
C 	C 	0.69675 0.33204 0.42810 0.02900
C 	C 	0.62936 0.24931 0.34920 0.00600
H 	H 	0.59320 0.23630 0.29710 0.00900
C 	C 	0.66401 0.19844 0.41870 -0.00300
H 	H 	0.65050 0.15160 0.41500 0.03000
C 	C 	0.73185 0.28005 0.49510 0.00200
H 	H 	0.76850 0.29260 0.54560 0.04600
C 	C 	0.50124 0.84728 0.55670 -0.19100
C 	C 	0.49857 0.81676 0.44310 -0.18600
N 	N 	0.57297 0.96716 0.74856 -0.20200
C 	C 	0.56902 0.03146 0.80770 -0.00300
H 	H 	0.53540 0.04290 0.87130 0.00500
N 	N 	0.66248 0.06792 0.69580 -0.10800
C 	C 	0.61289 0.08144 0.77820 0.00500
H 	H 	0.60740 0.12690 0.81810 0.01300
N 	N 	0.73670 0.92042 0.52570 -0.13600
C 	C 	0.66799 0.00270 0.64220 0.02800
N 	N 	0.85454 0.81659 0.35330 -0.11200
C 	C 	0.62320 0.95282 0.66700 -0.00400
H 	H 	0.62830 0.90760 0.62520 0.01900
N 	N 	0.78415 0.71302 0.49080 -0.10400
C 	C 	0.72379 0.98751 0.55200 0.09700
N 	N 	0.93095 0.19413 0.28470 -0.21000
C 	C 	0.75964 0.04247 0.50090 -0.13000
H 	H 	0.74870 0.08910 0.52340 0.09100
C 	C 	0.81185 0.02783 0.41630 0.05900
C 	C 	0.85264 0.08505 0.36820 0.05200
C 	C 	0.85667 0.14585 0.45520 -0.11800
H 	H 	0.83250 0.15140 0.54450 0.08100
C 	C 	0.89615 0.19793 0.41050 0.07400
H 	H 	0.89880 0.23850 0.47210 0.00100
C 	C 	0.92673 0.13602 0.20090 0.07600
H 	H 	0.95090 0.13250 0.11100 0.00900
C 	C 	0.88899 0.08067 0.23820 -0.11600
H 	H 	0.88800 0.04030 0.17570 0.07700
C 	C 	0.82497 0.95821 0.38530 -0.12800
H 	H 	0.85930 0.94610 0.32500 0.08400
C 	C 	0.78679 0.90646 0.44420 0.09300
C 	C 	0.80325 0.83204 0.42810 0.02900
C 	C 	0.87064 0.74931 0.34920 0.00600
H 	H 	0.90680 0.73630 0.29710 0.01900
C 	C 	0.83599 0.69844 0.41870 -0.00100
H 	H 	0.84950 0.65160 0.41500 0.03300
C 	C 	0.76815 0.78005 0.49510 0.00300
H 	H 	0.73150 0.79260 0.54560 0.04500
N 	N 	0.49876 0.84728 0.94330 -0.20200
C 	C 	0.50143 0.81676 0.05690 -0.17800
N 	N 	0.42703 0.96716 0.75144 -0.20200
C 	C 	0.43098 0.03146 0.69230 -0.00300
H 	H 	0.46460 0.04290 0.62870 0.00300
N 	N 	0.33752 0.06792 0.80420 -0.10800
C 	C 	0.38711 0.08144 0.72180 0.00500
H 	H 	0.39260 0.12690 0.68190 0.01300
N 	N 	0.26330 0.92042 0.97430 -0.13000
C 	C 	0.33201 0.00270 0.85780 0.03000
N 	N 	0.14546 0.81659 0.14670 -0.12100
C 	C 	0.37680 0.95282 0.83300 -0.00400
H 	H 	0.37170 0.90760 0.87480 0.02000
N 	N 	0.21585 0.71302 0.00920 -0.10300
C 	C 	0.27621 0.98751 0.94800 0.09200
N 	N 	0.06905 0.19413 0.21530 -0.24000
C 	C 	0.24036 0.04247 0.99910 -0.11400
H 	H 	0.25130 0.08910 0.97660 0.08800
C 	C 	0.18815 0.02783 0.08370 0.03900
C 	C 	0.14736 0.08505 0.13180 0.06000
C 	C 	0.14333 0.14585 0.04480 -0.14500
H 	H 	0.16750 0.15140 0.95550 0.09000
C 	C 	0.10385 0.19793 0.08950 0.07100
H 	H 	0.10120 0.23850 0.02790 -0.02400
C 	C 	0.07327 0.13602 0.29910 0.06900
H 	H 	0.04910 0.13250 0.38900 -0.02200
C 	C 	0.11101 0.08067 0.26180 -0.13400
H 	H 	0.11200 0.04030 0.32430 0.07100
C 	C 	0.17503 0.95821 0.11470 -0.11600
H 	H 	0.14070 0.94610 0.17500 0.06900
C 	C 	0.21321 0.90646 0.05580 0.08000
C 	C 	0.19675 0.83204 0.07190 0.03500
C 	C 	0.12936 0.74931 0.15080 0.00800
H 	H 	0.09320 0.73630 0.20290 -0.00500
C 	C 	0.16401 0.69844 0.08130 -0.00600
H 	H 	0.15050 0.65160 0.08500 0.02600
C 	C 	0.23185 0.78005 0.00490 -0.01000
H 	H 	0.26850 0.79260 0.95440 0.05300
Cu	Cu	0.00000 0.39502 0.75000 0.82600
Cu	Cu	0.50000 0.89502 0.75000 0.84900
Cu	Cu	0.00000 0.26854 0.25000 0.81300
Cu	Cu	0.50000 0.76854 0.25000 0.84800
