data_crystal

_cell_length_a 21.94150
_cell_length_b 19.27030
_cell_length_c 8.90500
_cell_angle_alpha 90.00000
_cell_angle_beta  90.00000
_cell_angle_gamma 90.00000

_symmetry_space_group_name_	'P 1'
_symmetry_space_group_name_H-M	'P 1'

loop_
_symmetry_equiv_pos_as_xyz
  x,y,z

loop_
_atom_site_label
_atom_site_type_symbol
_atom_site_fract_x
_atom_site_fract_y
_atom_site_fract_z
_atom_site_charge
C 	C 	0.49923 0.15299 0.44380 -0.19200
C 	C 	0.50117 0.18082 0.55860 -0.18800
N 	N 	0.42530 0.03387 0.25620 -0.19700
C 	C 	0.42958 0.97045 0.19900 -0.00100
H 	H 	0.46200 0.95990 0.13560 0.00400
N 	N 	0.33803 0.93186 0.31570 -0.10800
C 	C 	0.38690 0.91970 0.23140 0.00200
H 	H 	0.39260 0.87540 0.19270 0.01100
N 	N 	0.26437 0.07718 0.48790 -0.13800
C 	C 	0.33234 0.99665 0.36850 0.02200
N 	N 	0.14614 0.17971 0.65690 -0.12000
C 	C 	0.37612 0.04615 0.33970 0.00100
H 	H 	0.37110 0.09020 0.38050 0.01800
N 	N 	0.21540 0.28290 0.52780 -0.10400
C 	C 	0.27677 0.01028 0.46070 0.10600
N 	N 	0.06983 0.80337 0.72020 -0.24600
C 	C 	0.24135 0.95653 0.50910 -0.14300
H 	H 	0.25200 0.91110 0.48550 0.09600
C 	C 	0.18955 0.96955 0.59320 0.05200
C 	C 	0.14810 0.91197 0.63980 0.07600
C 	C 	0.14150 0.85380 0.55120 -0.16100
H 	H 	0.16350 0.84970 0.46240 0.09300
C 	C 	0.10270 0.80240 0.59380 0.08700
H 	H 	0.09880 0.76410 0.53100 -0.03100
C 	C 	0.07684 0.85900 0.80290 0.10400
H 	H 	0.05460 0.86160 0.89160 -0.03100
C 	C 	0.11430 0.91320 0.76910 -0.16800
H 	H 	0.11680 0.95100 0.83370 0.08700
C 	C 	0.17687 0.03881 0.62560 -0.13300
H 	H 	0.14340 0.05020 0.68470 0.07700
C 	C 	0.21436 0.09071 0.56920 0.09300
C 	C 	0.19816 0.16507 0.58830 0.02900
C 	C 	0.13000 0.24670 0.66270 0.00700
H 	H 	0.09440 0.25900 0.71310 0.00100
C 	C 	0.16370 0.29640 0.59770 -0.00300
H 	H 	0.15010 0.34200 0.60210 0.02700
C 	C 	0.23160 0.21680 0.52500 0.00200
H 	H 	0.26790 0.20500 0.47710 0.04600
N 	N 	0.50077 0.15299 0.05620 -0.21100
C 	C 	0.49883 0.18082 0.94140 -0.17000
N 	N 	0.57470 0.03387 0.24380 -0.19800
C 	C 	0.57042 0.97045 0.30100 -0.00300
H 	H 	0.53800 0.95990 0.36440 0.00400
N 	N 	0.66197 0.93186 0.18430 -0.10900
C 	C 	0.61310 0.91970 0.26860 0.00200
H 	H 	0.60740 0.87540 0.30730 0.01200
N 	N 	0.73563 0.07718 0.01210 -0.14100
C 	C 	0.66766 0.99665 0.13150 0.02500
N 	N 	0.85386 0.17971 0.84310 -0.11000
C 	C 	0.62388 0.04615 0.16030 -0.00000
H 	H 	0.62890 0.09020 0.11950 0.01800
N 	N 	0.78460 0.28290 0.97220 -0.10500
C 	C 	0.72323 0.01028 0.03930 0.09400
N 	N 	0.93017 0.80337 0.77980 -0.21500
C 	C 	0.75865 0.95653 0.99090 -0.12300
H 	H 	0.74800 0.91110 0.01450 0.08600
C 	C 	0.81045 0.96955 0.90680 0.05500
C 	C 	0.85190 0.91197 0.86020 0.07400
C 	C 	0.85850 0.85380 0.94880 -0.13500
H 	H 	0.83650 0.84970 0.03760 0.08400
C 	C 	0.89730 0.80240 0.90620 0.08900
H 	H 	0.90120 0.76410 0.96900 -0.00400
C 	C 	0.92316 0.85900 0.69710 0.10800
H 	H 	0.94540 0.86160 0.60840 -0.00200
C 	C 	0.88570 0.91320 0.73090 -0.15100
H 	H 	0.88320 0.95100 0.66630 0.09300
C 	C 	0.82313 0.03881 0.87440 -0.13600
H 	H 	0.85660 0.05020 0.81530 0.09000
C 	C 	0.78564 0.09071 0.93080 0.10200
C 	C 	0.80184 0.16507 0.91170 0.02400
C 	C 	0.87000 0.24670 0.83730 0.00400
H 	H 	0.90560 0.25900 0.78690 0.02500
C 	C 	0.83630 0.29640 0.90230 0.00300
H 	H 	0.84990 0.34200 0.89790 0.03400
C 	C 	0.76840 0.21680 0.97500 0.01600
H 	H 	0.73210 0.20500 0.02290 0.03700
C 	C 	0.99923 0.65299 0.05620 -0.03000
C 	C 	0.00117 0.68082 0.94140 -0.34100
N 	N 	0.92530 0.53387 0.24380 -0.18300
C 	C 	0.92958 0.47045 0.30100 0.00300
H 	H 	0.96200 0.45990 0.36440 0.02800
N 	N 	0.83803 0.43186 0.18430 -0.10900
C 	C 	0.88690 0.41970 0.26860 0.00700
H 	H 	0.89260 0.37540 0.30730 0.01900
N 	N 	0.76437 0.57718 0.01210 -0.14000
C 	C 	0.83234 0.49665 0.13150 0.03000
N 	N 	0.64614 0.67971 0.84310 -0.11500
C 	C 	0.87612 0.54615 0.16030 -0.00200
H 	H 	0.87110 0.59020 0.11950 0.02100
N 	N 	0.71540 0.78290 0.97220 -0.10500
C 	C 	0.77677 0.51028 0.03930 0.09100
N 	N 	0.56983 0.30337 0.77980 -0.23400
C 	C 	0.74135 0.45653 0.99090 -0.11900
H 	H 	0.75200 0.41110 0.01450 0.08500
C 	C 	0.68955 0.46955 0.90680 0.05100
C 	C 	0.64810 0.41197 0.86020 0.07500
C 	C 	0.64150 0.35380 0.94880 -0.14200
H 	H 	0.66350 0.34970 0.03760 0.08500
C 	C 	0.60270 0.30240 0.90620 0.08500
H 	H 	0.59880 0.26410 0.96900 -0.01600
C 	C 	0.57684 0.35900 0.69710 0.10600
H 	H 	0.55460 0.36160 0.60840 -0.01800
C 	C 	0.61430 0.41320 0.73090 -0.16000
H 	H 	0.61680 0.45100 0.66630 0.09000
C 	C 	0.67687 0.53881 0.87440 -0.13400
H 	H 	0.64340 0.55020 0.81530 0.08300
C 	C 	0.71436 0.59071 0.93080 0.10000
C 	C 	0.69816 0.66507 0.91170 0.02400
C 	C 	0.63000 0.74670 0.83730 0.00600
H 	H 	0.59440 0.75900 0.78690 0.00900
C 	C 	0.66370 0.79640 0.90230 -0.00100
H 	H 	0.65010 0.84200 0.89790 0.02900
C 	C 	0.73160 0.71680 0.97500 0.01500
H 	H 	0.76790 0.70500 0.02290 0.03700
N 	N 	0.00077 0.65299 0.44380 -0.28600
C 	C 	0.99883 0.68082 0.55860 -0.04900
N 	N 	0.07470 0.53387 0.25620 -0.20900
C 	C 	0.07042 0.47045 0.19900 -0.00700
H 	H 	0.03800 0.45990 0.13560 -0.01700
N 	N 	0.16197 0.43186 0.31570 -0.10900
C 	C 	0.11310 0.41970 0.23140 -0.00100
H 	H 	0.10740 0.37540 0.19270 0.00600
N 	N 	0.23563 0.57718 0.48790 -0.13900
C 	C 	0.16766 0.49665 0.36850 0.02200
N 	N 	0.35386 0.67971 0.65690 -0.11600
C 	C 	0.12388 0.54615 0.33970 -0.00100
H 	H 	0.12890 0.59020 0.38050 0.01500
N 	N 	0.28460 0.78290 0.52780 -0.10400
C 	C 	0.22323 0.51028 0.46070 0.10500
N 	N 	0.43017 0.30337 0.72020 -0.23600
C 	C 	0.25865 0.45653 0.50910 -0.14300
H 	H 	0.24800 0.41110 0.48550 0.09700
C 	C 	0.31045 0.46955 0.59320 0.05600
C 	C 	0.35190 0.41197 0.63980 0.07700
C 	C 	0.35850 0.35380 0.55120 -0.15600
H 	H 	0.33650 0.34970 0.46240 0.09300
C 	C 	0.39730 0.30240 0.59380 0.09200
H 	H 	0.40120 0.26410 0.53100 -0.02000
C 	C 	0.42316 0.35900 0.80290 0.10700
H 	H 	0.44540 0.36160 0.89160 -0.01800
C 	C 	0.38570 0.41320 0.76910 -0.16100
H 	H 	0.38320 0.45100 0.83370 0.09100
C 	C 	0.32313 0.53881 0.62560 -0.13600
H 	H 	0.35660 0.55020 0.68470 0.08400
C 	C 	0.28564 0.59071 0.56920 0.09500
C 	C 	0.30184 0.66507 0.58830 0.02900
C 	C 	0.37000 0.74670 0.66270 0.00600
H 	H 	0.40560 0.75900 0.71310 0.00900
C 	C 	0.33630 0.79640 0.59770 -0.00200
H 	H 	0.34990 0.84200 0.60210 0.02900
C 	C 	0.26840 0.71680 0.52500 0.00300
H 	H 	0.23210 0.70500 0.47710 0.04500
Cu	Cu	0.50000 0.10918 0.25000 0.84400
Cu	Cu	0.00000 0.60918 0.25000 0.80400
Cu	Cu	0.50000 0.22632 0.75000 0.84600
Cu	Cu	0.00000 0.72632 0.75000 0.81700
C 	C 	0.00077 0.34701 0.94380 -0.34100
C 	C 	0.99883 0.31918 0.05860 -0.02200
N 	N 	0.07470 0.46613 0.75620 -0.20600
C 	C 	0.07042 0.52955 0.69900 -0.00500
H 	H 	0.03800 0.54010 0.63560 -0.01700
N 	N 	0.16197 0.56814 0.81570 -0.10800
C 	C 	0.11310 0.58030 0.73140 -0.00100
H 	H 	0.10740 0.62460 0.69270 0.00600
N 	N 	0.23563 0.42282 0.98790 -0.13700
C 	C 	0.16766 0.50335 0.86850 0.02000
N 	N 	0.35386 0.32029 0.15690 -0.11700
C 	C 	0.12388 0.45385 0.83970 0.00000
H 	H 	0.12890 0.40980 0.88050 0.01800
N 	N 	0.28460 0.21710 0.02780 -0.10400
C 	C 	0.22323 0.48972 0.96070 0.11500
N 	N 	0.43017 0.69663 0.22020 -0.23700
C 	C 	0.25865 0.54347 0.00910 -0.16000
H 	H 	0.24800 0.58890 0.98550 0.10500
C 	C 	0.31045 0.53045 0.09320 0.06000
C 	C 	0.35190 0.58803 0.13980 0.07900
C 	C 	0.35850 0.64620 0.05120 -0.16700
H 	H 	0.33650 0.65030 0.96240 0.10000
C 	C 	0.39730 0.69760 0.09380 0.09700
H 	H 	0.40120 0.73590 0.03100 -0.02400
C 	C 	0.42316 0.64100 0.30290 0.10800
H 	H 	0.44540 0.63840 0.39160 -0.01900
C 	C 	0.38570 0.58680 0.26910 -0.16300
H 	H 	0.38320 0.54900 0.33370 0.09000
C 	C 	0.32313 0.46119 0.12560 -0.13700
H 	H 	0.35660 0.44980 0.18470 0.08300
C 	C 	0.28564 0.40929 0.06920 0.09100
C 	C 	0.30184 0.33493 0.08830 0.03200
C 	C 	0.37000 0.25330 0.16270 0.00700
H 	H 	0.40560 0.24100 0.21310 0.00800
C 	C 	0.33630 0.20360 0.09770 -0.00300
H 	H 	0.34990 0.15800 0.10210 0.02800
C 	C 	0.26840 0.28320 0.02500 -0.00700
H 	H 	0.23210 0.29500 0.97710 0.05100
N 	N 	0.99923 0.34701 0.55620 -0.12100
C 	C 	0.00117 0.31918 0.44140 -0.28100
N 	N 	0.92530 0.46613 0.74380 -0.17900
C 	C 	0.92958 0.52955 0.80100 0.00500
H 	H 	0.96200 0.54010 0.86440 0.02700
N 	N 	0.83803 0.56814 0.68430 -0.10700
C 	C 	0.88690 0.58030 0.76860 0.00700
H 	H 	0.89260 0.62460 0.80730 0.02000
N 	N 	0.76437 0.42282 0.51210 -0.13800
C 	C 	0.83234 0.50335 0.63150 0.02600
N 	N 	0.64614 0.32029 0.34310 -0.11600
C 	C 	0.87612 0.45385 0.66030 0.00200
H 	H 	0.87110 0.40980 0.61950 0.02400
N 	N 	0.71540 0.21710 0.47220 -0.10400
C 	C 	0.77677 0.48972 0.53930 0.10400
N 	N 	0.56983 0.69663 0.27980 -0.23600
C 	C 	0.74135 0.54347 0.49090 -0.14200
H 	H 	0.75200 0.58890 0.51450 0.09700
C 	C 	0.68955 0.53045 0.40680 0.05600
C 	C 	0.64810 0.58803 0.36020 0.07600
C 	C 	0.64150 0.64620 0.44880 -0.15600
H 	H 	0.66350 0.65030 0.53760 0.09300
C 	C 	0.60270 0.69760 0.40620 0.09100
H 	H 	0.59880 0.73590 0.46900 -0.02000
C 	C 	0.57684 0.64100 0.19710 0.10600
H 	H 	0.55460 0.63840 0.10840 -0.02000
C 	C 	0.61430 0.58680 0.23090 -0.16200
H 	H 	0.61680 0.54900 0.16630 0.08900
C 	C 	0.67687 0.46119 0.37440 -0.13500
H 	H 	0.64340 0.44980 0.31530 0.08200
C 	C 	0.71436 0.40929 0.43080 0.09500
C 	C 	0.69816 0.33493 0.41170 0.02900
C 	C 	0.63000 0.25330 0.33730 0.00600
H 	H 	0.59440 0.24100 0.28690 0.00800
C 	C 	0.66370 0.20360 0.40230 -0.00200
H 	H 	0.65010 0.15800 0.39790 0.02900
C 	C 	0.73160 0.28320 0.47500 0.00200
H 	H 	0.76790 0.29500 0.52290 0.04600
C 	C 	0.50077 0.84701 0.55620 -0.19200
C 	C 	0.49883 0.81918 0.44140 -0.18900
N 	N 	0.57470 0.96613 0.74380 -0.19800
C 	C 	0.57042 0.02955 0.80100 -0.00000
H 	H 	0.53800 0.04010 0.86440 0.00500
N 	N 	0.66197 0.06814 0.68430 -0.10800
C 	C 	0.61310 0.08030 0.76860 0.00300
H 	H 	0.60740 0.12460 0.80730 0.01200
N 	N 	0.73563 0.92282 0.51210 -0.13900
C 	C 	0.66766 0.00335 0.63150 0.02500
N 	N 	0.85386 0.82029 0.34310 -0.11200
C 	C 	0.62388 0.95385 0.66030 -0.00100
H 	H 	0.62890 0.90980 0.61950 0.01900
N 	N 	0.78460 0.71710 0.47220 -0.10500
C 	C 	0.72323 0.98972 0.53930 0.10400
N 	N 	0.93017 0.19663 0.27980 -0.21800
C 	C 	0.75865 0.04347 0.49090 -0.14300
H 	H 	0.74800 0.08890 0.51450 0.09700
C 	C 	0.81045 0.03045 0.40680 0.06000
C 	C 	0.85190 0.08803 0.36020 0.07600
C 	C 	0.85850 0.14620 0.44880 -0.15000
H 	H 	0.83650 0.15030 0.53760 0.09300
C 	C 	0.89730 0.19760 0.40620 0.09500
H 	H 	0.90120 0.23590 0.46900 -0.00700
C 	C 	0.92316 0.14100 0.19710 0.10900
H 	H 	0.94540 0.13840 0.10840 -0.00300
C 	C 	0.88570 0.08680 0.23090 -0.15300
H 	H 	0.88320 0.04900 0.16630 0.09200
C 	C 	0.82313 0.96119 0.37440 -0.13900
H 	H 	0.85660 0.94980 0.31530 0.08900
C 	C 	0.78564 0.90929 0.43080 0.09700
C 	C 	0.80184 0.83493 0.41170 0.02800
C 	C 	0.87000 0.75330 0.33730 0.00600
H 	H 	0.90560 0.74100 0.28690 0.01900
C 	C 	0.83630 0.70360 0.40230 -0.00000
H 	H 	0.84990 0.65800 0.39790 0.03200
C 	C 	0.76840 0.78320 0.47500 0.00300
H 	H 	0.73210 0.79500 0.52290 0.04500
N 	N 	0.49923 0.84701 0.94380 -0.20300
C 	C 	0.50117 0.81918 0.05860 -0.18100
N 	N 	0.42530 0.96613 0.75620 -0.19800
C 	C 	0.42958 0.02955 0.69900 -0.00000
H 	H 	0.46200 0.04010 0.63560 0.00300
N 	N 	0.33803 0.06814 0.81570 -0.10700
C 	C 	0.38690 0.08030 0.73140 0.00300
H 	H 	0.39260 0.12460 0.69270 0.01200
N 	N 	0.26437 0.92282 0.98790 -0.13600
C 	C 	0.33234 0.00335 0.86850 0.02300
N 	N 	0.14614 0.82029 0.15690 -0.12100
C 	C 	0.37612 0.95385 0.83970 0.00100
H 	H 	0.37110 0.90980 0.88050 0.01900
N 	N 	0.21540 0.71710 0.02780 -0.10300
C 	C 	0.27677 0.98972 0.96070 0.11200
N 	N 	0.06983 0.19663 0.22020 -0.24700
C 	C 	0.24135 0.04347 0.00910 -0.15600
H 	H 	0.25200 0.08890 0.98550 0.10400
C 	C 	0.18955 0.03045 0.09320 0.05700
C 	C 	0.14810 0.08803 0.13980 0.07800
C 	C 	0.14150 0.14620 0.05120 -0.17100
H 	H 	0.16350 0.15030 0.96240 0.09900
C 	C 	0.10270 0.19760 0.09380 0.09100
H 	H 	0.09880 0.23590 0.03100 -0.03200
C 	C 	0.07684 0.14100 0.30290 0.10400
H 	H 	0.05460 0.13840 0.39160 -0.03200
C 	C 	0.11430 0.08680 0.26910 -0.16900
H 	H 	0.11680 0.04900 0.33370 0.08600
C 	C 	0.17687 0.96119 0.12560 -0.13500
H 	H 	0.14340 0.94980 0.18470 0.07700
C 	C 	0.21436 0.90929 0.06920 0.08900
C 	C 	0.19816 0.83493 0.08830 0.03300
C 	C 	0.13000 0.75330 0.16270 0.00800
H 	H 	0.09440 0.74100 0.21310 -0.00500
C 	C 	0.16370 0.70360 0.09770 -0.00600
H 	H 	0.15010 0.65800 0.10210 0.02400
C 	C 	0.23160 0.78320 0.02500 -0.00800
H 	H 	0.26790 0.79500 0.97710 0.05200
Cu	Cu	0.00000 0.39082 0.75000 0.82200
Cu	Cu	0.50000 0.89082 0.75000 0.84400
Cu	Cu	-0.00000 0.27368 0.25000 0.81200
Cu	Cu	0.50000 0.77368 0.25000 0.84600
