data_crystal

_cell_length_a 12.28130
_cell_length_b 27.32050
_cell_length_c 16.46500
_cell_angle_alpha 90.00000
_cell_angle_beta  102.86300
_cell_angle_gamma 90.00000

_symmetry_space_group_name_	'P 1'
_symmetry_space_group_name_H-M	'P 1'

loop_
_symmetry_equiv_pos_as_xyz
  x,y,z

loop_
_atom_site_label
_atom_site_type_symbol
_atom_site_fract_x
_atom_site_fract_y
_atom_site_fract_z
_atom_site_charge
Zn	Zn	0.05712 0.55143 0.00272 1.17700
Zn	Zn	0.23132 0.46497 0.01287 1.22000
C 	C 	0.27280 0.55537 0.93480 0.43500
C 	C 	0.33410 0.58394 0.88100 -0.21600
C 	C 	0.44000 0.56984 0.87370 0.17200
H 	H 	0.47520 0.54250 0.90440 -0.00600
C 	C 	0.49470 0.59529 0.82170 -0.28700
H 	H 	0.56720 0.58570 0.81670 0.14900
C 	C 	0.44190 0.63484 0.77760 0.30600
C 	C 	0.33820 0.65040 0.78560 -0.28700
H 	H 	0.30410 0.67810 0.75560 0.13600
C 	C 	0.28410 0.62490 0.83790 0.16500
H 	H 	0.21280 0.63550 0.84440 -0.02000
C 	C 	0.23050 0.51046 0.16270 0.42300
C 	C 	0.26160 0.51853 0.25520 -0.22100
C 	C 	0.35470 0.49550 0.30490 0.17200
H 	H 	0.39830 0.47350 0.28060 -0.01200
C 	C 	0.38330 0.50500 0.38970 -0.29400
H 	H 	0.44660 0.48960 0.42380 0.14800
C 	C 	0.31930 0.53660 0.42390 0.31500
C 	C 	0.22740 0.55880 0.37720 -0.29400
H 	H 	0.18350 0.58010 0.40250 0.14000
C 	C 	0.19860 0.55010 0.29200 0.17000
H 	H 	0.13510 0.56580 0.25880 -0.01500
C 	C 	0.75730 0.86620 0.53650 0.36500
C 	C 	0.70870 0.81572 0.51650 -0.18600
C 	C 	0.59980 0.80990 0.47130 0.14800
H 	H 	0.55490 0.83780 0.45290 0.00400
C 	C 	0.55660 0.76330 0.45290 -0.27000
H 	H 	0.48150 0.75920 0.42310 0.13600
C 	C 	0.62230 0.72360 0.47790 0.29800
C 	C 	0.73200 0.72870 0.52200 -0.26800
H 	H 	0.77760 0.70070 0.53770 0.13000
C 	C 	0.77410 0.77530 0.54270 0.14200
H 	H 	0.84790 0.77930 0.57500 -0.00800
C 	C 	0.48330 0.64285 0.64470 0.41000
C 	C 	0.42070 0.60183 0.61640 -0.43800
H 	H 	0.38440 0.58380 0.65210 0.19500
C 	C 	0.41220 0.58762 0.53400 0.40300
C 	C 	0.46500 0.61297 0.48110 -0.43500
H 	H 	0.45890 0.60280 0.42510 0.19700
C 	C 	0.52760 0.65396 0.51290 0.41000
C 	C 	0.53700 0.66985 0.59350 -0.44100
H 	H 	0.57880 0.69830 0.61350 0.19800
O 	O 	0.18700 0.57485 0.95020 -0.50300
O 	O 	0.31270 0.51418 0.95960 -0.47300
O 	O 	0.49610 0.66070 0.72460 -0.33500
O 	O 	0.15490 0.53653 0.12190 -0.51300
O 	O 	0.28420 0.47794 0.13340 -0.49400
O 	O 	0.34910 0.54615 0.51010 -0.33700
O 	O 	0.84540 0.87044 0.58970 -0.32500
O 	O 	0.70290 0.90107 0.49510 -0.46400
O 	O 	0.57960 0.67666 0.45700 -0.33000
O 	O 	0.07730 0.47940 0.96065 -0.68900
Zn	Zn	0.94288 0.05143 0.49728 1.17800
Zn	Zn	0.76868 0.96497 0.48713 1.22000
C 	C 	0.72720 0.05537 0.56520 0.43400
C 	C 	0.66590 0.08394 0.61900 -0.21800
C 	C 	0.56000 0.06984 0.62630 0.17300
H 	H 	0.52480 0.04250 0.59560 -0.00600
C 	C 	0.50530 0.09529 0.67830 -0.28800
H 	H 	0.43280 0.08570 0.68330 0.14900
C 	C 	0.55810 0.13484 0.72240 0.30600
C 	C 	0.66180 0.15040 0.71440 -0.28700
H 	H 	0.69590 0.17810 0.74440 0.13500
C 	C 	0.71590 0.12490 0.66210 0.16500
H 	H 	0.78720 0.13550 0.65560 -0.02100
C 	C 	0.76950 0.01046 0.33730 0.42200
C 	C 	0.73840 0.01853 0.24480 -0.21900
C 	C 	0.64530 0.99550 0.19510 0.17000
H 	H 	0.60170 0.97350 0.21940 -0.01200
C 	C 	0.61670 0.00500 0.11030 -0.29300
H 	H 	0.55340 0.98960 0.07620 0.14800
C 	C 	0.68070 0.03660 0.07610 0.31700
C 	C 	0.77260 0.05880 0.12280 -0.29400
H 	H 	0.81650 0.08010 0.09750 0.14200
C 	C 	0.80140 0.05010 0.20800 0.17000
H 	H 	0.86490 0.06580 0.24120 -0.01400
C 	C 	0.24270 0.36620 0.96350 0.36700
C 	C 	0.29130 0.31572 0.98350 -0.18200
C 	C 	0.40020 0.30990 0.02870 0.14300
H 	H 	0.44510 0.33780 0.04710 0.00500
C 	C 	0.44340 0.26330 0.04710 -0.26600
H 	H 	0.51850 0.25920 0.07690 0.13500
C 	C 	0.37770 0.22360 0.02210 0.29300
C 	C 	0.26800 0.22870 0.97800 -0.26300
H 	H 	0.22240 0.20070 0.96230 0.13000
C 	C 	0.22590 0.27530 0.95730 0.13900
H 	H 	0.15210 0.27930 0.92500 -0.00600
C 	C 	0.51670 0.14285 0.85530 0.40800
C 	C 	0.57930 0.10183 0.88360 -0.43600
H 	H 	0.61560 0.08380 0.84790 0.19400
C 	C 	0.58780 0.08762 0.96600 0.40000
C 	C 	0.53500 0.11297 0.01890 -0.43100
H 	H 	0.54110 0.10280 0.07490 0.19600
C 	C 	0.47240 0.15396 0.98710 0.40700
C 	C 	0.46300 0.16985 0.90650 -0.43900
H 	H 	0.42120 0.19830 0.88650 0.19700
O 	O 	0.81300 0.07485 0.54980 -0.50500
O 	O 	0.68730 0.01418 0.54040 -0.47500
O 	O 	0.50390 0.16070 0.77540 -0.33400
O 	O 	0.84510 0.03653 0.37810 -0.51100
O 	O 	0.71580 0.97794 0.36660 -0.49300
O 	O 	0.65090 0.04615 0.98990 -0.33900
O 	O 	0.15460 0.37044 0.91030 -0.32400
O 	O 	0.29710 0.40107 0.00490 -0.46700
O 	O 	0.42040 0.17666 0.04300 -0.32900
O 	O 	0.92270 0.97940 0.53935 -0.69200
Zn	Zn	0.94288 0.44857 0.99728 1.17600
Zn	Zn	0.76868 0.53503 0.98713 1.21900
C 	C 	0.72720 0.44463 0.06520 0.43400
C 	C 	0.66590 0.41606 0.11900 -0.21700
C 	C 	0.56000 0.43016 0.12630 0.17200
H 	H 	0.52480 0.45750 0.09560 -0.00600
C 	C 	0.50530 0.40471 0.17830 -0.28700
H 	H 	0.43280 0.41430 0.18330 0.14900
C 	C 	0.55810 0.36516 0.22240 0.30600
C 	C 	0.66180 0.34960 0.21440 -0.28700
H 	H 	0.69590 0.32190 0.24440 0.13600
C 	C 	0.71590 0.37510 0.16210 0.16500
H 	H 	0.78720 0.36450 0.15560 -0.02000
C 	C 	0.76950 0.48954 0.83730 0.42300
C 	C 	0.73840 0.48147 0.74480 -0.22100
C 	C 	0.64530 0.50450 0.69510 0.17200
H 	H 	0.60170 0.52650 0.71940 -0.01200
C 	C 	0.61670 0.49500 0.61030 -0.29400
H 	H 	0.55340 0.51040 0.57620 0.14800
C 	C 	0.68070 0.46340 0.57610 0.31500
C 	C 	0.77260 0.44120 0.62280 -0.29400
H 	H 	0.81650 0.41990 0.59750 0.14000
C 	C 	0.80140 0.44990 0.70800 0.17000
H 	H 	0.86490 0.43420 0.74120 -0.01500
C 	C 	0.24270 0.13380 0.46350 0.36500
C 	C 	0.29130 0.18428 0.48350 -0.18600
C 	C 	0.40020 0.19010 0.52870 0.14800
H 	H 	0.44510 0.16220 0.54710 0.00400
C 	C 	0.44340 0.23670 0.54710 -0.27000
H 	H 	0.51850 0.24080 0.57690 0.13600
C 	C 	0.37770 0.27640 0.52210 0.29800
C 	C 	0.26800 0.27130 0.47800 -0.26800
H 	H 	0.22240 0.29930 0.46230 0.13000
C 	C 	0.22590 0.22470 0.45730 0.14200
H 	H 	0.15210 0.22070 0.42500 -0.00800
C 	C 	0.51670 0.35715 0.35530 0.41000
C 	C 	0.57930 0.39817 0.38360 -0.43800
H 	H 	0.61560 0.41620 0.34790 0.19500
C 	C 	0.58780 0.41238 0.46600 0.40300
C 	C 	0.53500 0.38703 0.51890 -0.43500
H 	H 	0.54110 0.39720 0.57490 0.19700
C 	C 	0.47240 0.34604 0.48710 0.41000
C 	C 	0.46300 0.33015 0.40650 -0.44100
H 	H 	0.42120 0.30170 0.38650 0.19800
O 	O 	0.81300 0.42515 0.04980 -0.50300
O 	O 	0.68730 0.48582 0.04040 -0.47300
O 	O 	0.50390 0.33930 0.27540 -0.33500
O 	O 	0.84510 0.46347 0.87810 -0.51300
O 	O 	0.71580 0.52206 0.86660 -0.49400
O 	O 	0.65090 0.45385 0.48990 -0.33700
O 	O 	0.15460 0.12956 0.41030 -0.32500
O 	O 	0.29710 0.09893 0.50490 -0.46400
O 	O 	0.42040 0.32334 0.54300 -0.33000
O 	O 	0.92270 0.52060 0.03935 -0.68900
Zn	Zn	0.05712 0.94857 0.50272 1.17800
Zn	Zn	0.23132 0.03503 0.51287 1.22000
C 	C 	0.27280 0.94463 0.43480 0.43400
C 	C 	0.33410 0.91606 0.38100 -0.21800
C 	C 	0.44000 0.93016 0.37370 0.17300
H 	H 	0.47520 0.95750 0.40440 -0.00600
C 	C 	0.49470 0.90471 0.32170 -0.28800
H 	H 	0.56720 0.91430 0.31670 0.14900
C 	C 	0.44190 0.86516 0.27760 0.30600
C 	C 	0.33820 0.84960 0.28560 -0.28700
H 	H 	0.30410 0.82190 0.25560 0.13500
C 	C 	0.28410 0.87510 0.33790 0.16500
H 	H 	0.21280 0.86450 0.34440 -0.02100
C 	C 	0.23050 0.98954 0.66270 0.42200
C 	C 	0.26160 0.98147 0.75520 -0.21900
C 	C 	0.35470 0.00450 0.80490 0.17000
H 	H 	0.39830 0.02650 0.78060 -0.01200
C 	C 	0.38330 0.99500 0.88970 -0.29300
H 	H 	0.44660 0.01040 0.92380 0.14800
C 	C 	0.31930 0.96340 0.92390 0.31700
C 	C 	0.22740 0.94120 0.87720 -0.29400
H 	H 	0.18350 0.91990 0.90250 0.14200
C 	C 	0.19860 0.94990 0.79200 0.17000
H 	H 	0.13510 0.93420 0.75880 -0.01400
C 	C 	0.75730 0.63380 0.03650 0.36700
C 	C 	0.70870 0.68428 0.01650 -0.18200
C 	C 	0.59980 0.69010 0.97130 0.14300
H 	H 	0.55490 0.66220 0.95290 0.00500
C 	C 	0.55660 0.73670 0.95290 -0.26600
H 	H 	0.48150 0.74080 0.92310 0.13500
C 	C 	0.62230 0.77640 0.97790 0.29300
C 	C 	0.73200 0.77130 0.02200 -0.26300
H 	H 	0.77760 0.79930 0.03770 0.13000
C 	C 	0.77410 0.72470 0.04270 0.13900
H 	H 	0.84790 0.72070 0.07500 -0.00600
C 	C 	0.48330 0.85715 0.14470 0.40800
C 	C 	0.42070 0.89817 0.11640 -0.43600
H 	H 	0.38440 0.91620 0.15210 0.19400
C 	C 	0.41220 0.91238 0.03400 0.40000
C 	C 	0.46500 0.88703 0.98110 -0.43100
H 	H 	0.45890 0.89720 0.92510 0.19600
C 	C 	0.52760 0.84604 0.01290 0.40700
C 	C 	0.53700 0.83015 0.09350 -0.43900
H 	H 	0.57880 0.80170 0.11350 0.19700
O 	O 	0.18700 0.92515 0.45020 -0.50500
O 	O 	0.31270 0.98582 0.45960 -0.47500
O 	O 	0.49610 0.83930 0.22460 -0.33400
O 	O 	0.15490 0.96347 0.62190 -0.51100
O 	O 	0.28420 0.02206 0.63340 -0.49300
O 	O 	0.34910 0.95385 0.01010 -0.33900
O 	O 	0.84540 0.62956 0.08970 -0.32400
O 	O 	0.70290 0.59893 0.99510 -0.46700
O 	O 	0.57960 0.82334 0.95700 -0.32900
O 	O 	0.07730 0.02060 0.46065 -0.69200
