data_crystal

_cell_length_a 11.94600
_cell_length_b 13.30200
_cell_length_c 17.77700
_cell_angle_alpha 90.00000
_cell_angle_beta  98.35000
_cell_angle_gamma 90.00000

_symmetry_space_group_name_	'P 1'
_symmetry_space_group_name_H-M	'P 1'

loop_
_symmetry_equiv_pos_as_xyz
  x,y,z

loop_
_atom_site_label
_atom_site_type_symbol
_atom_site_fract_x
_atom_site_fract_y
_atom_site_fract_z
_atom_site_charge
Zn	Zn	0.67246 0.54085 0.20304 1.17200
Cu	Cu	0.04136 0.67703 0.44284 0.84500
N 	N 	0.65390 0.42540 0.13260 -0.30100
N 	N 	0.56640 0.28950 0.07540 -0.23300
N 	N 	0.56300 0.52620 0.27670 -0.29500
N 	N 	0.49740 0.51180 0.38800 -0.23600
N 	N 	0.82610 0.55360 0.26320 -0.29800
N 	N 	0.96700 0.60820 0.34940 -0.21100
N 	N 	0.15930 0.57120 0.45800 -0.24300
N 	N 	0.33300 0.50800 0.48440 -0.23900
N 	N 	0.09290 0.72770 0.54740 -0.24000
N 	N 	0.14330 0.83390 0.64310 -0.29400
C 	C 	0.57640 0.35420 0.13350 0.08700
H 	H 	0.53190 0.34960 0.17210 -0.05600
C 	C 	0.69710 0.40610 0.06830 0.02800
H 	H 	0.75390 0.44270 0.05020 -0.02300
C 	C 	0.64380 0.32420 0.03410 -0.07500
H 	H 	0.65890 0.29620 0.98870 0.04800
C 	C 	0.58610 0.51530 0.35040 0.09400
H 	H 	0.66000 0.51020 0.37510 -0.04100
C 	C 	0.44920 0.52590 0.26410 0.00500
H 	H 	0.40520 0.53180 0.21660 -0.01300
C 	C 	0.40840 0.51600 0.33020 -0.02400
H 	H 	0.33230 0.51250 0.33590 0.01700
C 	C 	0.85550 0.60910 0.32510 0.09000
H 	H 	0.80390 0.64480 0.34910 -0.04300
C 	C 	0.92420 0.51560 0.24690 0.05400
H 	H 	0.93170 0.47410 0.20580 -0.02300
C 	C 	0.01030 0.54720 0.29960 -0.08400
H 	H 	0.08610 0.53000 0.30130 0.03300
C 	C 	0.26930 0.58930 0.47420 0.09800
H 	H 	0.29910 0.65400 0.47800 -0.05300
C 	C 	0.15140 0.46960 0.45840 0.00100
H 	H 	0.08470 0.43270 0.44930 -0.02000
C 	C 	0.25730 0.43070 0.47430 -0.01800
H 	H 	0.27520 0.36260 0.47780 0.00200
C 	C 	0.10260 0.82260 0.57040 0.09300
H 	H 	0.08250 0.87670 0.53800 -0.04800
C 	C 	0.12980 0.67350 0.61130 -0.01500
H 	H 	0.13400 0.60370 0.61430 0.01000
C 	C 	0.15890 0.73750 0.66880 -0.00700
H 	H 	0.18550 0.71920 0.71870 -0.01100
Zn	Zn	0.82754 0.04085 0.29696 1.16700
Cu	Cu	0.45864 0.17703 0.05716 0.84400
N 	N 	0.84610 0.92540 0.36740 -0.28700
N 	N 	0.93360 0.78950 0.42460 -0.23300
N 	N 	0.93700 0.02620 0.22330 -0.29100
N 	N 	0.00260 0.01180 0.11200 -0.25700
N 	N 	0.67390 0.05360 0.23680 -0.28400
N 	N 	0.53300 0.10820 0.15060 -0.24300
N 	N 	0.34070 0.07120 0.04200 -0.25800
N 	N 	0.16700 0.00800 0.01560 -0.25900
N 	N 	0.40710 0.22770 0.95260 -0.22800
N 	N 	0.35670 0.33390 0.85690 -0.29400
C 	C 	0.92360 0.85420 0.36650 0.09100
H 	H 	0.96810 0.84960 0.32790 -0.04300
C 	C 	0.80290 0.90610 0.43170 0.00100
H 	H 	0.74610 0.94270 0.44980 -0.00100
C 	C 	0.85620 0.82420 0.46590 -0.00100
H 	H 	0.84110 0.79620 0.51130 0.01000
C 	C 	0.91390 0.01530 0.14960 0.11100
H 	H 	0.84000 0.01020 0.12490 -0.05800
C 	C 	0.05080 0.02590 0.23590 -0.02400
H 	H 	0.09480 0.03180 0.28340 -0.01000
C 	C 	0.09160 0.01600 0.16980 -0.01900
H 	H 	0.16770 0.01250 0.16410 0.01100
C 	C 	0.64450 0.10910 0.17490 0.08400
H 	H 	0.69610 0.14480 0.15090 -0.04500
C 	C 	0.57580 0.01560 0.25310 -0.06600
H 	H 	0.56830 0.97410 0.29420 0.03300
C 	C 	0.48970 0.04720 0.20040 0.01600
H 	H 	0.41390 0.03000 0.19870 -0.00500
C 	C 	0.23070 0.08930 0.02580 0.09000
H 	H 	0.20090 0.15400 0.02200 -0.06300
C 	C 	0.34860 0.96960 0.04160 0.02000
H 	H 	0.41530 0.93270 0.05070 -0.01900
C 	C 	0.24270 0.93070 0.02570 -0.00500
H 	H 	0.22480 0.86260 0.02220 -0.00600
C 	C 	0.39740 0.32260 0.92960 0.09600
H 	H 	0.41750 0.37670 0.96200 -0.03900
C 	C 	0.37020 0.17350 0.88870 -0.01100
H 	H 	0.36600 0.10370 0.88570 0.00900
C 	C 	0.34110 0.23750 0.83120 -0.00700
H 	H 	0.31450 0.21920 0.78130 -0.01300
Zn	Zn	0.32754 0.45915 0.79696 1.17100
Cu	Cu	0.95864 0.32297 0.55716 0.86100
N 	N 	0.34610 0.57460 0.86740 -0.29000
N 	N 	0.43360 0.71050 0.92460 -0.24600
N 	N 	0.43700 0.47380 0.72330 -0.29500
N 	N 	0.50260 0.48820 0.61200 -0.23700
N 	N 	0.17390 0.44640 0.73680 -0.28300
N 	N 	0.03300 0.39180 0.65060 -0.25700
N 	N 	0.84070 0.42880 0.54200 -0.23900
N 	N 	0.66700 0.49200 0.51560 -0.23900
N 	N 	0.90710 0.27230 0.45260 -0.23400
N 	N 	0.85670 0.16610 0.35690 -0.29600
C 	C 	0.42360 0.64580 0.86650 0.08800
H 	H 	0.46810 0.65040 0.82790 -0.05200
C 	C 	0.30290 0.59390 0.93170 -0.03300
H 	H 	0.24610 0.55730 0.94980 0.00800
C 	C 	0.35620 0.67580 0.96590 0.06000
H 	H 	0.34110 0.70380 0.01130 -0.03500
C 	C 	0.41390 0.48470 0.64960 0.09400
H 	H 	0.34000 0.48980 0.62490 -0.04100
C 	C 	0.55080 0.47410 0.73590 0.00500
H 	H 	0.59480 0.46820 0.78340 -0.00700
C 	C 	0.59160 0.48400 0.66980 -0.02200
H 	H 	0.66770 0.48750 0.66410 0.02100
C 	C 	0.14450 0.39090 0.67490 0.08600
H 	H 	0.19610 0.35520 0.65090 -0.04400
C 	C 	0.07580 0.48440 0.75310 -0.05300
H 	H 	0.06830 0.52590 0.79420 0.00700
C 	C 	0.98970 0.45280 0.70040 0.05600
H 	H 	0.91390 0.47000 0.69870 -0.00500
C 	C 	0.73070 0.41070 0.52580 0.09900
H 	H 	0.70090 0.34600 0.52200 -0.05500
C 	C 	0.84860 0.53040 0.54160 0.00300
H 	H 	0.91530 0.56730 0.55070 -0.00700
C 	C 	0.74270 0.56930 0.52570 -0.01500
H 	H 	0.72480 0.63740 0.52220 0.00400
C 	C 	0.89740 0.17740 0.42960 0.09700
H 	H 	0.91750 0.12330 0.46200 -0.04800
C 	C 	0.87020 0.32650 0.38870 -0.01200
H 	H 	0.86600 0.39630 0.38570 0.01500
C 	C 	0.84110 0.26250 0.33120 -0.00300
H 	H 	0.81450 0.28080 0.28130 -0.01100
Zn	Zn	0.17246 0.95915 0.70304 1.17400
Cu	Cu	0.54136 0.82297 0.94284 0.86100
N 	N 	0.15390 0.07460 0.63260 -0.30300
N 	N 	0.06640 0.21050 0.57540 -0.24600
N 	N 	0.06300 0.97380 0.77670 -0.30300
N 	N 	0.99740 0.98820 0.88800 -0.20300
N 	N 	0.32610 0.94640 0.76320 -0.29600
N 	N 	0.46700 0.89180 0.84940 -0.22800
N 	N 	0.65930 0.92880 0.95800 -0.22700
N 	N 	0.83300 0.99200 0.98440 -0.21000
N 	N 	0.59290 0.77230 0.04740 -0.24400
N 	N 	0.64330 0.66610 0.14310 -0.29600
C 	C 	0.07640 0.14580 0.63350 0.08400
H 	H 	0.03190 0.15040 0.67210 -0.06400
C 	C 	0.19710 0.09390 0.56830 -0.00600
H 	H 	0.25390 0.05730 0.55020 -0.01400
C 	C 	0.14380 0.17580 0.53410 -0.01000
H 	H 	0.15890 0.20380 0.48870 0.00200
C 	C 	0.08610 0.98470 0.85040 0.07000
H 	H 	0.16000 0.98980 0.87510 -0.02300
C 	C 	0.94920 0.97410 0.76410 0.04400
H 	H 	0.90520 0.96820 0.71660 -0.01200
C 	C 	0.90840 0.98400 0.83020 -0.03000
H 	H 	0.83230 0.98750 0.83590 0.03000
C 	C 	0.35550 0.89090 0.82510 0.09100
H 	H 	0.30390 0.85520 0.84910 -0.04200
C 	C 	0.42420 0.98440 0.74690 0.05500
H 	H 	0.43170 0.02590 0.70580 -0.04300
C 	C 	0.51030 0.95280 0.79960 -0.03500
H 	H 	0.58610 0.97000 0.80130 0.02900
C 	C 	0.76930 0.91070 0.97420 0.10600
H 	H 	0.79910 0.84600 0.97800 -0.04300
C 	C 	0.65140 0.03040 0.95840 -0.01300
H 	H 	0.58470 0.06730 0.94930 -0.00800
C 	C 	0.75730 0.06930 0.97430 -0.03000
H 	H 	0.77520 0.13740 0.97780 0.01500
C 	C 	0.60260 0.67740 0.07040 0.09500
H 	H 	0.58250 0.62330 0.03800 -0.05500
C 	C 	0.62980 0.82650 0.11130 -0.01500
H 	H 	0.63400 0.89630 0.11430 0.01900
C 	C 	0.65890 0.76250 0.16880 -0.00200
H 	H 	0.68550 0.78080 0.21870 -0.00900
Cu	Cu	0.50000 0.50000 0.50000 0.85100
Cu	Cu	-0.00000 0.00000 -0.00000 0.82100
