data_crystal

_cell_length_a 17.70030
_cell_length_b 17.70030
_cell_length_c 13.92080
_cell_angle_alpha 90.00000
_cell_angle_beta  90.00000
_cell_angle_gamma 120.00000

_symmetry_space_group_name_	'P 1'
_symmetry_space_group_name_H-M	'P 1'

loop_
_symmetry_equiv_pos_as_xyz
  x,y,z

loop_
_atom_site_label
_atom_site_type_symbol
_atom_site_fract_x
_atom_site_fract_y
_atom_site_fract_z
_atom_site_charge
Cu	Cu	0.87458 0.43353 0.63546 0.89700
Cu	Cu	0.87357 0.42928 0.39020 0.90200
O 	O 	0.84350 0.37490 0.51150 -0.79900
H 	H 	0.83900 0.32600 0.51100 0.29000
O 	O 	0.22840 0.54800 0.14050 -0.59400
O 	O 	0.29610 0.49560 0.22850 -0.36300
O 	O 	0.01150 0.56050 0.15940 -0.34900
O 	O 	0.77380 0.45050 0.38650 -0.57800
O 	O 	0.99020 0.43640 0.36800 -0.32700
O 	O 	0.70560 0.50270 0.29710 -0.37300
N 	N 	0.90350 0.49950 0.27650 -0.23100
N 	N 	0.09790 0.50030 0.25180 -0.22200
C 	C 	0.23370 0.50930 0.21280 0.35900
C 	C 	0.15560 0.46950 0.28420 -0.04400
H 	H 	0.17550 0.48820 0.35170 0.04900
C 	C 	0.10910 0.36340 0.27250 -0.33200
H 	H 	0.05980 0.33500 0.31700 0.12900
H 	H 	0.15160 0.34490 0.28720 0.11900
H 	H 	0.08830 0.34690 0.20650 0.10600
C 	C 	0.97560 0.51830 0.23500 0.14000
C 	C 	0.02370 0.48140 0.29030 0.10600
C 	C 	0.76770 0.49160 0.31110 0.34300
C 	C 	0.83850 0.51880 0.23610 -0.04500
H 	H 	0.86540 0.58240 0.22120 0.04700
C 	C 	0.79560 0.46060 0.14070 -0.32700
H 	H 	0.83970 0.47990 0.08980 0.12300
H 	H 	0.74680 0.46770 0.11920 0.11100
H 	H 	0.77440 0.39910 0.15540 0.11300
Cu	Cu	0.56647 0.44105 0.63546 0.89600
Cu	Cu	0.57072 0.44429 0.39020 0.90100
O 	O 	0.62510 0.46860 0.51150 -0.80000
H 	H 	0.67400 0.51300 0.51100 0.28900
O 	O 	0.45200 0.68040 0.14050 -0.59400
O 	O 	0.50440 0.80050 0.22850 -0.36300
O 	O 	0.43950 0.45100 0.15940 -0.34900
O 	O 	0.54950 0.32330 0.38650 -0.57800
O 	O 	0.56360 0.55380 0.36800 -0.32700
O 	O 	0.49730 0.20290 0.29710 -0.37300
N 	N 	0.50050 0.40400 0.27650 -0.23100
N 	N 	0.49970 0.59760 0.25180 -0.22200
C 	C 	0.49070 0.72440 0.21280 0.35900
C 	C 	0.53050 0.68610 0.28420 -0.04400
H 	H 	0.51180 0.68730 0.35170 0.04900
C 	C 	0.63660 0.74570 0.27250 -0.33200
H 	H 	0.66500 0.72480 0.31700 0.12900
H 	H 	0.65510 0.80670 0.28720 0.11900
H 	H 	0.65310 0.74140 0.20650 0.10600
C 	C 	0.48170 0.45730 0.23500 0.14000
C 	C 	0.51860 0.54230 0.29030 0.10600
C 	C 	0.50840 0.27610 0.31110 0.34300
C 	C 	0.48120 0.31970 0.23610 -0.04500
H 	H 	0.41760 0.28300 0.22120 0.04700
C 	C 	0.53940 0.33500 0.14070 -0.32700
H 	H 	0.52010 0.35980 0.08980 0.12300
H 	H 	0.53230 0.27910 0.11920 0.11100
H 	H 	0.60090 0.37530 0.15540 0.11300
Cu	Cu	0.55895 0.12542 0.63546 0.89600
Cu	Cu	0.55571 0.12643 0.39020 0.90100
O 	O 	0.53140 0.15650 0.51150 -0.80000
H 	H 	0.48700 0.16100 0.51100 0.28900
O 	O 	0.31960 0.77160 0.14050 -0.59400
O 	O 	0.19950 0.70390 0.22850 -0.36300
O 	O 	0.54900 0.98850 0.15940 -0.34900
O 	O 	0.67670 0.22620 0.38650 -0.57800
O 	O 	0.44620 0.00980 0.36800 -0.32700
O 	O 	0.79710 0.29440 0.29710 -0.37300
N 	N 	0.59600 0.09650 0.27650 -0.23100
N 	N 	0.40240 0.90210 0.25180 -0.22200
C 	C 	0.27560 0.76630 0.21280 0.35900
C 	C 	0.31390 0.84440 0.28420 -0.04400
H 	H 	0.31270 0.82450 0.35170 0.04900
C 	C 	0.25430 0.89090 0.27250 -0.33200
H 	H 	0.27520 0.94020 0.31700 0.12900
H 	H 	0.19330 0.84840 0.28720 0.11900
H 	H 	0.25860 0.91170 0.20650 0.10600
C 	C 	0.54270 0.02440 0.23500 0.13900
C 	C 	0.45770 0.97630 0.29030 0.10600
C 	C 	0.72390 0.23230 0.31110 0.34300
C 	C 	0.68030 0.16150 0.23610 -0.04500
H 	H 	0.71700 0.13460 0.22120 0.04700
C 	C 	0.66500 0.20440 0.14070 -0.32700
H 	H 	0.64020 0.16030 0.08980 0.12300
H 	H 	0.72090 0.25320 0.11920 0.11100
H 	H 	0.62470 0.22560 0.15540 0.11300
Cu	Cu	0.12542 0.56647 0.13546 0.89500
Cu	Cu	0.12643 0.57072 0.89020 0.90900
O 	O 	0.15650 0.62510 0.01150 -0.80800
H 	H 	0.16100 0.67400 0.01100 0.28500
O 	O 	0.77160 0.45200 0.64050 -0.59700
O 	O 	0.70390 0.50440 0.72850 -0.36000
O 	O 	0.98850 0.43950 0.65940 -0.34500
O 	O 	0.22620 0.54950 0.88650 -0.56000
O 	O 	0.00980 0.56360 0.86800 -0.31700
O 	O 	0.29440 0.49730 0.79710 -0.36700
N 	N 	0.09650 0.50050 0.77650 -0.23000
N 	N 	0.90210 0.49970 0.75180 -0.22000
C 	C 	0.76630 0.49070 0.71280 0.36100
C 	C 	0.84440 0.53050 0.78420 -0.04100
H 	H 	0.82450 0.51180 0.85170 0.05400
C 	C 	0.89090 0.63660 0.77250 -0.34100
H 	H 	0.94020 0.66500 0.81700 0.13600
H 	H 	0.84840 0.65510 0.78720 0.12700
H 	H 	0.91170 0.65310 0.70650 0.11300
C 	C 	0.02440 0.48170 0.73500 0.14300
C 	C 	0.97630 0.51860 0.79030 0.10600
C 	C 	0.23230 0.50840 0.81110 0.34000
C 	C 	0.16150 0.48120 0.73610 -0.04000
H 	H 	0.13460 0.41760 0.72120 0.05000
C 	C 	0.20440 0.53940 0.64070 -0.33800
H 	H 	0.16030 0.52010 0.58980 0.13200
H 	H 	0.25320 0.53230 0.61920 0.11900
H 	H 	0.22560 0.60090 0.65540 0.11800
Cu	Cu	0.43353 0.55895 0.13546 0.89500
Cu	Cu	0.42928 0.55571 0.89020 0.90900
O 	O 	0.37490 0.53140 0.01150 -0.80800
H 	H 	0.32600 0.48700 0.01100 0.28500
O 	O 	0.54800 0.31960 0.64050 -0.59700
O 	O 	0.49560 0.19950 0.72850 -0.36000
O 	O 	0.56050 0.54900 0.65940 -0.34400
O 	O 	0.45050 0.67670 0.88650 -0.56000
O 	O 	0.43640 0.44620 0.86800 -0.31800
O 	O 	0.50270 0.79710 0.79710 -0.36700
N 	N 	0.49950 0.59600 0.77650 -0.23000
N 	N 	0.50030 0.40240 0.75180 -0.22100
C 	C 	0.50930 0.27560 0.71280 0.36100
C 	C 	0.46950 0.31390 0.78420 -0.04100
H 	H 	0.48820 0.31270 0.85170 0.05400
C 	C 	0.36340 0.25430 0.77250 -0.34200
H 	H 	0.33500 0.27520 0.81700 0.13700
H 	H 	0.34490 0.19330 0.78720 0.12700
H 	H 	0.34690 0.25860 0.70650 0.11300
C 	C 	0.51830 0.54270 0.73500 0.14200
C 	C 	0.48140 0.45770 0.79030 0.10700
C 	C 	0.49160 0.72390 0.81110 0.34000
C 	C 	0.51880 0.68030 0.73610 -0.04000
H 	H 	0.58240 0.71700 0.72120 0.05000
C 	C 	0.46060 0.66500 0.64070 -0.33800
H 	H 	0.47990 0.64020 0.58980 0.13200
H 	H 	0.46770 0.72090 0.61920 0.11900
H 	H 	0.39910 0.62470 0.65540 0.11800
Cu	Cu	0.44105 0.87458 0.13546 0.89500
Cu	Cu	0.44429 0.87357 0.89020 0.90900
O 	O 	0.46860 0.84350 0.01150 -0.80800
H 	H 	0.51300 0.83900 0.01100 0.28500
O 	O 	0.68040 0.22840 0.64050 -0.59700
O 	O 	0.80050 0.29610 0.72850 -0.36000
O 	O 	0.45100 0.01150 0.65940 -0.34500
O 	O 	0.32330 0.77380 0.88650 -0.56000
O 	O 	0.55380 0.99020 0.86800 -0.31700
O 	O 	0.20290 0.70560 0.79710 -0.36700
N 	N 	0.40400 0.90350 0.77650 -0.23000
N 	N 	0.59760 0.09790 0.75180 -0.22000
C 	C 	0.72440 0.23370 0.71280 0.36100
C 	C 	0.68610 0.15560 0.78420 -0.04100
H 	H 	0.68730 0.17550 0.85170 0.05400
C 	C 	0.74570 0.10910 0.77250 -0.34100
H 	H 	0.72480 0.05980 0.81700 0.13600
H 	H 	0.80670 0.15160 0.78720 0.12600
H 	H 	0.74140 0.08830 0.70650 0.11300
C 	C 	0.45730 0.97560 0.73500 0.14300
C 	C 	0.54230 0.02370 0.79030 0.10500
C 	C 	0.27610 0.76770 0.81110 0.34000
C 	C 	0.31970 0.83850 0.73610 -0.04000
H 	H 	0.28300 0.86540 0.72120 0.05000
C 	C 	0.33500 0.79560 0.64070 -0.33800
H 	H 	0.35980 0.83970 0.58980 0.13200
H 	H 	0.27910 0.74680 0.61920 0.11900
H 	H 	0.37530 0.77440 0.65540 0.11800
Ba	Ba	0.66667 0.33333 0.51377 2.17800
Ba	Ba	0.33333 0.66667 0.01377 2.11200
