data_crystal

_cell_length_a 18.54900
_cell_length_b 18.54900
_cell_length_c 18.54900
_cell_angle_alpha 90.00000
_cell_angle_beta  90.00000
_cell_angle_gamma 90.00000

_symmetry_space_group_name_	'P 1'
_symmetry_space_group_name_H-M	'P 1'

loop_
_symmetry_equiv_pos_as_xyz
  x,y,z

loop_
_atom_site_label
_atom_site_type_symbol
_atom_site_fract_x
_atom_site_fract_y
_atom_site_fract_z
_atom_site_charge
Ni	Ni	0.00000 0.61885 0.50000 0.92300
Ni	Ni	0.00000 0.38115 0.50000 0.91900
Ni	Ni	0.50000 0.00000 0.61885 0.92300
Ni	Ni	0.50000 0.00000 0.38115 0.91900
Ni	Ni	0.61885 0.50000 -0.00000 0.92300
Ni	Ni	0.38115 0.50000 -0.00000 0.91900
Ni	Ni	0.61885 0.00000 0.50000 0.92200
Ni	Ni	0.38115 0.00000 0.50000 0.91800
Ni	Ni	0.00000 0.50000 0.38115 0.91800
Ni	Ni	0.00000 0.50000 0.61885 0.92200
Ni	Ni	0.50000 0.61885 -0.00000 0.92200
Ni	Ni	0.50000 0.38115 -0.00000 0.91800
H 	H 	0.85450 0.71315 0.56038 0.00300
H 	H 	0.14550 0.28685 0.56038 -0.02600
H 	H 	0.14550 0.71315 0.43962 -0.01700
H 	H 	0.85450 0.28685 0.43962 -0.00900
H 	H 	0.56038 0.85450 0.71315 0.00300
H 	H 	0.56038 0.14550 0.28685 -0.02600
H 	H 	0.43962 0.14550 0.71315 -0.01700
H 	H 	0.43962 0.85450 0.28685 -0.00900
H 	H 	0.71315 0.56038 0.85450 0.00300
H 	H 	0.28685 0.56038 0.14550 -0.02600
H 	H 	0.71315 0.43962 0.14550 -0.01700
H 	H 	0.28685 0.43962 0.85450 -0.00900
H 	H 	0.71315 0.85450 0.43962 0.00100
H 	H 	0.28685 0.14550 0.43962 -0.02800
H 	H 	0.71315 0.14550 0.56038 -0.01600
H 	H 	0.28685 0.85450 0.56038 -0.00700
H 	H 	0.85450 0.56038 0.28685 -0.00700
H 	H 	0.14550 0.56038 0.71315 -0.01600
H 	H 	0.14550 0.43962 0.28685 -0.02800
H 	H 	0.85450 0.43962 0.71315 0.00100
H 	H 	0.56038 0.71315 0.14550 -0.01600
H 	H 	0.56038 0.28685 0.85450 -0.00700
H 	H 	0.43962 0.71315 0.85450 0.00100
H 	H 	0.43962 0.28685 0.14550 -0.02800
H 	H 	0.14550 0.28685 0.43962 -0.02800
H 	H 	0.85450 0.71315 0.43962 0.00100
H 	H 	0.85450 0.28685 0.56038 -0.00700
H 	H 	0.14550 0.71315 0.56038 -0.01600
H 	H 	0.43962 0.14550 0.28685 -0.02800
H 	H 	0.43962 0.85450 0.71315 0.00100
H 	H 	0.56038 0.85450 0.28685 -0.00700
H 	H 	0.56038 0.14550 0.71315 -0.01600
H 	H 	0.28685 0.43962 0.14550 -0.02800
H 	H 	0.71315 0.43962 0.85450 0.00100
H 	H 	0.28685 0.56038 0.85450 -0.00700
H 	H 	0.71315 0.56038 0.14550 -0.01600
H 	H 	0.28685 0.14550 0.56038 -0.02600
H 	H 	0.71315 0.85450 0.56038 0.00300
H 	H 	0.28685 0.85450 0.43962 -0.00900
H 	H 	0.71315 0.14550 0.43962 -0.01700
H 	H 	0.14550 0.43962 0.71315 -0.01700
H 	H 	0.85450 0.43962 0.28685 -0.00900
H 	H 	0.85450 0.56038 0.71315 0.00300
H 	H 	0.14550 0.56038 0.28685 -0.02600
H 	H 	0.43962 0.28685 0.85450 -0.00900
H 	H 	0.43962 0.71315 0.14550 -0.01700
H 	H 	0.56038 0.28685 0.14550 -0.02600
H 	H 	0.56038 0.71315 0.85450 0.00300
H 	H 	0.77211 0.77211 0.61817 0.10100
H 	H 	0.22788 0.22788 0.61817 0.08300
H 	H 	0.22788 0.77211 0.38183 0.09200
H 	H 	0.77211 0.22788 0.38183 0.09200
H 	H 	0.61817 0.77211 0.77211 0.10100
H 	H 	0.61817 0.22788 0.22788 0.08300
H 	H 	0.38183 0.22788 0.77211 0.09200
H 	H 	0.38183 0.77211 0.22788 0.09200
H 	H 	0.77211 0.61817 0.77211 0.10100
H 	H 	0.22788 0.61817 0.22788 0.08300
H 	H 	0.77211 0.38183 0.22788 0.09200
H 	H 	0.22788 0.38183 0.77211 0.09200
H 	H 	0.77211 0.77211 0.38183 0.10100
H 	H 	0.22788 0.22788 0.38183 0.08300
H 	H 	0.77211 0.22788 0.61817 0.09200
H 	H 	0.22788 0.77211 0.61817 0.09200
H 	H 	0.77211 0.61817 0.22788 0.09200
H 	H 	0.22788 0.61817 0.77211 0.09200
H 	H 	0.22788 0.38183 0.22788 0.08300
H 	H 	0.77211 0.38183 0.77211 0.10100
H 	H 	0.61817 0.77211 0.22788 0.09200
H 	H 	0.61817 0.22788 0.77211 0.09200
H 	H 	0.38183 0.77211 0.77211 0.10100
H 	H 	0.38183 0.22788 0.22788 0.08300
C 	C 	0.86569 0.67080 0.58691 0.06500
C 	C 	0.13431 0.32920 0.58691 0.04800
C 	C 	0.13431 0.67080 0.41309 0.04800
C 	C 	0.86569 0.32920 0.41309 0.06200
C 	C 	0.58691 0.86569 0.67080 0.06500
C 	C 	0.58691 0.13431 0.32920 0.04800
C 	C 	0.41309 0.13431 0.67080 0.04800
C 	C 	0.41309 0.86569 0.32920 0.06200
C 	C 	0.67080 0.58691 0.86569 0.06500
C 	C 	0.32920 0.58691 0.13431 0.04800
C 	C 	0.67080 0.41309 0.13431 0.04800
C 	C 	0.32920 0.41309 0.86569 0.06200
C 	C 	0.67080 0.86569 0.41309 0.06400
C 	C 	0.32920 0.13431 0.41309 0.04600
C 	C 	0.67080 0.13431 0.58691 0.05000
C 	C 	0.32920 0.86569 0.58691 0.06300
C 	C 	0.86569 0.58691 0.32920 0.06300
C 	C 	0.13431 0.58691 0.67080 0.05000
C 	C 	0.13431 0.41309 0.32920 0.04600
C 	C 	0.86569 0.41309 0.67080 0.06400
C 	C 	0.58691 0.67080 0.13431 0.05000
C 	C 	0.58691 0.32920 0.86569 0.06300
C 	C 	0.41309 0.67080 0.86569 0.06400
C 	C 	0.41309 0.32920 0.13431 0.04600
C 	C 	0.13431 0.32920 0.41309 0.04600
C 	C 	0.86569 0.67080 0.41309 0.06400
C 	C 	0.86569 0.32920 0.58691 0.06300
C 	C 	0.13431 0.67080 0.58691 0.05000
C 	C 	0.41309 0.13431 0.32920 0.04600
C 	C 	0.41309 0.86569 0.67080 0.06400
C 	C 	0.58691 0.86569 0.32920 0.06300
C 	C 	0.58691 0.13431 0.67080 0.05000
C 	C 	0.32920 0.41309 0.13431 0.04600
C 	C 	0.67080 0.41309 0.86569 0.06400
C 	C 	0.32920 0.58691 0.86569 0.06300
C 	C 	0.67080 0.58691 0.13431 0.05000
C 	C 	0.32920 0.13431 0.58691 0.04800
C 	C 	0.67080 0.86569 0.58691 0.06500
C 	C 	0.32920 0.86569 0.41309 0.06200
C 	C 	0.67080 0.13431 0.41309 0.04800
C 	C 	0.13431 0.41309 0.67080 0.04800
C 	C 	0.86569 0.41309 0.32920 0.06200
C 	C 	0.86569 0.58691 0.67080 0.06500
C 	C 	0.13431 0.58691 0.32920 0.04800
C 	C 	0.41309 0.32920 0.86569 0.06200
C 	C 	0.41309 0.67080 0.13431 0.04800
C 	C 	0.58691 0.32920 0.13431 0.04800
C 	C 	0.58691 0.67080 0.86569 0.06500
C 	C 	0.77994 0.68949 0.68949 0.14700
C 	C 	0.83522 0.65040 0.65040 -0.08600
C 	C 	0.22006 0.31051 0.68949 0.13800
C 	C 	0.16478 0.34960 0.65040 -0.10500
C 	C 	0.22006 0.68949 0.31051 0.13800
C 	C 	0.16478 0.65040 0.34960 -0.10500
C 	C 	0.77994 0.31051 0.31051 0.14400
C 	C 	0.83522 0.34960 0.34960 -0.09900
C 	C 	0.68949 0.77994 0.68949 0.14700
C 	C 	0.65040 0.83522 0.65040 -0.08600
C 	C 	0.68949 0.22006 0.31051 0.13800
C 	C 	0.65040 0.16478 0.34960 -0.10500
C 	C 	0.31051 0.22006 0.68949 0.13800
C 	C 	0.34960 0.16478 0.65040 -0.10500
C 	C 	0.31051 0.77994 0.31051 0.14400
C 	C 	0.34960 0.83522 0.34960 -0.09900
C 	C 	0.68949 0.68949 0.77994 0.14700
C 	C 	0.65040 0.65040 0.83522 -0.08600
C 	C 	0.31051 0.68949 0.22006 0.13800
C 	C 	0.34960 0.65040 0.16478 -0.10500
C 	C 	0.68949 0.31051 0.22006 0.13800
C 	C 	0.65040 0.34960 0.16478 -0.10500
C 	C 	0.31051 0.31051 0.77994 0.14400
C 	C 	0.34960 0.34960 0.83522 -0.09900
C 	C 	0.68949 0.77994 0.31051 0.14600
C 	C 	0.65040 0.83522 0.34960 -0.09200
C 	C 	0.31051 0.22006 0.31051 0.13600
C 	C 	0.34960 0.16478 0.34960 -0.11100
C 	C 	0.68949 0.22006 0.68949 0.13900
C 	C 	0.65040 0.16478 0.65040 -0.09800
C 	C 	0.31051 0.77994 0.68949 0.14600
C 	C 	0.34960 0.83522 0.65040 -0.09200
C 	C 	0.77994 0.68949 0.31051 0.14600
C 	C 	0.83522 0.65040 0.34960 -0.09200
C 	C 	0.22006 0.68949 0.68949 0.13900
C 	C 	0.16478 0.65040 0.65040 -0.09800
C 	C 	0.22006 0.31051 0.31051 0.13600
C 	C 	0.16478 0.34960 0.34960 -0.11100
C 	C 	0.77994 0.31051 0.68949 0.14600
C 	C 	0.83522 0.34960 0.65040 -0.09200
C 	C 	0.68949 0.68949 0.22006 0.13900
C 	C 	0.65040 0.65040 0.16478 -0.09800
C 	C 	0.68949 0.31051 0.77994 0.14600
C 	C 	0.65040 0.34960 0.83522 -0.09200
C 	C 	0.31051 0.68949 0.77994 0.14600
C 	C 	0.34960 0.65040 0.83522 -0.09200
C 	C 	0.31051 0.31051 0.22006 0.13600
C 	C 	0.34960 0.34960 0.16478 -0.11100
C 	C 	0.75378 0.75378 0.66233 -0.18700
C 	C 	0.24622 0.24622 0.66233 -0.21000
C 	C 	0.24622 0.75378 0.33767 -0.20900
C 	C 	0.75378 0.24622 0.33767 -0.20900
C 	C 	0.66233 0.75378 0.75378 -0.18700
C 	C 	0.66233 0.24622 0.24622 -0.21000
C 	C 	0.33767 0.24622 0.75378 -0.20900
C 	C 	0.33767 0.75378 0.24622 -0.20900
C 	C 	0.75378 0.66233 0.75378 -0.18700
C 	C 	0.24622 0.66233 0.24622 -0.21000
C 	C 	0.75378 0.33767 0.24622 -0.20900
C 	C 	0.24622 0.33767 0.75378 -0.20900
C 	C 	0.75378 0.75378 0.33767 -0.19700
C 	C 	0.24622 0.24622 0.33767 -0.22000
C 	C 	0.75378 0.24622 0.66233 -0.19900
C 	C 	0.24622 0.75378 0.66233 -0.19900
C 	C 	0.75378 0.66233 0.24622 -0.19900
C 	C 	0.24622 0.66233 0.75378 -0.19900
C 	C 	0.24622 0.33767 0.24622 -0.22000
C 	C 	0.75378 0.33767 0.75378 -0.19700
C 	C 	0.66233 0.75378 0.24622 -0.19900
C 	C 	0.66233 0.24622 0.75378 -0.19900
C 	C 	0.33767 0.75378 0.75378 -0.19700
C 	C 	0.33767 0.24622 0.24622 -0.22000
N 	N 	0.91500 0.61991 0.56807 -0.21600
N 	N 	0.08500 0.38009 0.56807 -0.26100
N 	N 	0.08500 0.61991 0.43193 -0.26000
N 	N 	0.91500 0.38009 0.43193 -0.22000
N 	N 	0.56807 0.91500 0.61991 -0.21600
N 	N 	0.56807 0.08500 0.38009 -0.26100
N 	N 	0.43193 0.08500 0.61991 -0.26000
N 	N 	0.43193 0.91500 0.38009 -0.22000
N 	N 	0.61991 0.56807 0.91500 -0.21600
N 	N 	0.38009 0.56807 0.08500 -0.26100
N 	N 	0.61991 0.43193 0.08500 -0.26000
N 	N 	0.38009 0.43193 0.91500 -0.22000
N 	N 	0.61991 0.91500 0.43193 -0.21700
N 	N 	0.38009 0.08500 0.43193 -0.26300
N 	N 	0.61991 0.08500 0.56807 -0.25800
N 	N 	0.38009 0.91500 0.56807 -0.21900
N 	N 	0.91500 0.56807 0.38009 -0.21900
N 	N 	0.08500 0.56807 0.61991 -0.25800
N 	N 	0.08500 0.43193 0.38009 -0.26300
N 	N 	0.91500 0.43193 0.61991 -0.21700
N 	N 	0.56807 0.61991 0.08500 -0.25800
N 	N 	0.56807 0.38009 0.91500 -0.21900
N 	N 	0.43193 0.61991 0.91500 -0.21700
N 	N 	0.43193 0.38009 0.08500 -0.26300
N 	N 	0.08500 0.38009 0.43193 -0.26300
N 	N 	0.91500 0.61991 0.43193 -0.21700
N 	N 	0.91500 0.38009 0.56807 -0.21900
N 	N 	0.08500 0.61991 0.56807 -0.25800
N 	N 	0.43193 0.08500 0.38009 -0.26300
N 	N 	0.43193 0.91500 0.61991 -0.21700
N 	N 	0.56807 0.91500 0.38009 -0.21900
N 	N 	0.56807 0.08500 0.61991 -0.25800
N 	N 	0.38009 0.43193 0.08500 -0.26300
N 	N 	0.61991 0.43193 0.91500 -0.21700
N 	N 	0.38009 0.56807 0.91500 -0.21900
N 	N 	0.61991 0.56807 0.08500 -0.25800
N 	N 	0.38009 0.08500 0.56807 -0.26100
N 	N 	0.61991 0.91500 0.56807 -0.21600
N 	N 	0.38009 0.91500 0.43193 -0.22000
N 	N 	0.61991 0.08500 0.43193 -0.26000
N 	N 	0.08500 0.43193 0.61991 -0.26000
N 	N 	0.91500 0.43193 0.38009 -0.22000
N 	N 	0.91500 0.56807 0.61991 -0.21600
N 	N 	0.08500 0.56807 0.38009 -0.26100
N 	N 	0.43193 0.38009 0.91500 -0.22000
N 	N 	0.43193 0.61991 0.08500 -0.26000
N 	N 	0.56807 0.38009 0.08500 -0.26100
N 	N 	0.56807 0.61991 0.91500 -0.21600
