data_crystal

_cell_length_a 15.46250
_cell_length_b 15.46250
_cell_length_c 20.04740
_cell_angle_alpha 90.00000
_cell_angle_beta  90.00000
_cell_angle_gamma 90.00000

_symmetry_space_group_name_	'P 1'
_symmetry_space_group_name_H-M	'P 1'

loop_
_symmetry_equiv_pos_as_xyz
  x,y,z

loop_
_atom_site_label
_atom_site_type_symbol
_atom_site_fract_x
_atom_site_fract_y
_atom_site_fract_z
_atom_site_charge
Co	Co	0.25000 0.75000 -0.00000 0.96600
Co	Co	0.75000 0.25000 0.50000 1.04300
Co	Co	0.75000 0.25000 -0.00000 0.96600
Co	Co	0.25000 0.75000 0.50000 1.04300
Co	Co	0.08575 0.91425 -0.00000 0.98300
Co	Co	0.41425 0.58575 -0.00000 0.98300
Co	Co	0.58575 0.08575 0.50000 1.06200
Co	Co	0.91425 0.41425 0.50000 1.06200
Co	Co	0.91425 0.08575 -0.00000 0.98300
Co	Co	0.58575 0.41425 -0.00000 0.98300
Co	Co	0.41425 0.91425 0.50000 1.06200
Co	Co	0.08575 0.58575 0.50000 1.06100
H 	H 	0.15307 0.96777 0.74102 0.08100
H 	H 	0.13712 0.95399 0.84833 0.00800
H 	H 	0.22060 0.05342 0.07682 -0.02800
H 	H 	0.35509 0.84075 0.12474 -0.02400
H 	H 	0.34693 0.53223 0.74102 0.09000
H 	H 	0.36288 0.54601 0.84833 0.00100
H 	H 	0.27940 0.44658 0.07682 -0.03000
H 	H 	0.14491 0.65925 0.12474 -0.02400
H 	H 	0.53223 0.15307 0.24102 0.08100
H 	H 	0.54601 0.13712 0.34833 -0.01300
H 	H 	0.44658 0.22060 0.57682 -0.01000
H 	H 	0.65925 0.35509 0.62474 -0.01100
H 	H 	0.96777 0.34693 0.24102 0.08000
H 	H 	0.95399 0.36288 0.34833 -0.01200
H 	H 	0.05342 0.27940 0.57682 -0.00700
H 	H 	0.84075 0.14491 0.62474 -0.01200
H 	H 	0.84693 0.46777 0.75898 0.08900
H 	H 	0.86288 0.45399 0.65167 -0.01300
H 	H 	0.77940 0.55342 0.42318 -0.01300
H 	H 	0.64491 0.34075 0.37526 -0.01200
H 	H 	0.65307 0.03223 0.75898 0.08800
H 	H 	0.63712 0.04601 0.65167 -0.01300
H 	H 	0.72060 0.94658 0.42318 -0.01100
H 	H 	0.85509 0.15925 0.37526 -0.01200
H 	H 	0.46777 0.65307 0.25898 0.08200
H 	H 	0.45399 0.63712 0.15167 -0.02100
H 	H 	0.55342 0.72060 0.92318 0.01400
H 	H 	0.34075 0.85509 0.87526 0.00600
H 	H 	0.03223 0.84693 0.25898 0.07400
H 	H 	0.04601 0.86288 0.15167 -0.01500
H 	H 	0.94658 0.77940 0.92318 0.01600
H 	H 	0.15925 0.64491 0.87526 0.00700
H 	H 	0.84693 0.03223 0.25898 0.07400
H 	H 	0.86288 0.04601 0.15167 -0.01500
H 	H 	0.77940 0.94658 0.92318 0.01600
H 	H 	0.64491 0.15925 0.87526 0.00700
H 	H 	0.65307 0.46777 0.25898 0.08200
H 	H 	0.63712 0.45399 0.15167 -0.02100
H 	H 	0.72060 0.55342 0.92318 0.01400
H 	H 	0.85509 0.34075 0.87526 0.00600
H 	H 	0.46777 0.84693 0.75898 0.08900
H 	H 	0.45399 0.86288 0.65167 -0.01300
H 	H 	0.55342 0.77940 0.42318 -0.01300
H 	H 	0.34075 0.64491 0.37526 -0.01200
H 	H 	0.03223 0.65307 0.75898 0.08800
H 	H 	0.04601 0.63712 0.65167 -0.01300
H 	H 	0.94658 0.72060 0.42318 -0.01100
H 	H 	0.15925 0.85509 0.37526 -0.01200
H 	H 	0.15307 0.53223 0.24102 0.08100
H 	H 	0.13712 0.54601 0.34833 -0.01300
H 	H 	0.22060 0.44658 0.57682 -0.01000
H 	H 	0.35509 0.65925 0.62474 -0.01100
H 	H 	0.34693 0.96777 0.24102 0.08000
H 	H 	0.36288 0.95399 0.34833 -0.01200
H 	H 	0.27940 0.05342 0.57682 -0.00700
H 	H 	0.14491 0.84075 0.62474 -0.01200
H 	H 	0.53223 0.34693 0.74102 0.09000
H 	H 	0.54601 0.36288 0.84833 0.00100
H 	H 	0.44658 0.27940 0.07682 -0.03000
H 	H 	0.65925 0.14491 0.12474 -0.02400
H 	H 	0.96777 0.15307 0.74102 0.08100
H 	H 	0.95399 0.13712 0.84833 0.00800
H 	H 	0.05342 0.22060 0.07682 -0.02800
H 	H 	0.84075 0.35509 0.12474 -0.02400
H 	H 	0.08492 0.08492 0.56794 0.08000
H 	H 	0.41508 0.41508 0.56794 0.08100
H 	H 	0.41508 0.08492 0.06794 0.04300
H 	H 	0.08492 0.41508 0.06794 0.04300
H 	H 	0.91508 0.58492 0.93206 0.12100
H 	H 	0.58492 0.91508 0.93206 0.12100
H 	H 	0.58492 0.58492 0.43206 0.08000
H 	H 	0.91508 0.91508 0.43206 0.07900
C 	C 	0.11891 0.00884 0.71761 -0.16200
C 	C 	0.12843 0.01831 0.64905 0.11200
C 	C 	0.09402 0.99354 0.86283 0.01500
C 	C 	0.19050 0.96550 0.61326 -0.07800
C 	C 	0.23835 0.99478 0.08038 0.01100
C 	C 	0.31220 0.87801 0.10669 0.00200
C 	C 	0.38109 0.49116 0.71761 -0.17900
C 	C 	0.37157 0.48169 0.64905 0.11700
C 	C 	0.40598 0.50646 0.86283 0.03800
C 	C 	0.30950 0.53450 0.61326 -0.07800
C 	C 	0.26165 0.50522 0.08038 0.01400
C 	C 	0.18780 0.62199 0.10669 0.00200
C 	C 	0.49116 0.11891 0.21761 -0.17100
C 	C 	0.48169 0.12843 0.14905 0.09500
C 	C 	0.50646 0.09402 0.36283 0.02200
C 	C 	0.53450 0.19050 0.11326 -0.08300
C 	C 	0.50522 0.23835 0.58038 0.03200
C 	C 	0.62199 0.31220 0.60669 0.02000
C 	C 	0.00884 0.38109 0.21761 -0.16800
C 	C 	0.01831 0.37157 0.14905 0.09500
C 	C 	0.99354 0.40598 0.36283 0.02000
C 	C 	0.96550 0.30950 0.11326 -0.08200
C 	C 	0.99478 0.26165 0.58038 0.02700
C 	C 	0.87801 0.18780 0.60669 0.02000
C 	C 	0.88109 0.50884 0.78239 -0.18500
C 	C 	0.87157 0.51831 0.85095 0.13300
C 	C 	0.90598 0.49354 0.63717 0.02700
C 	C 	0.80950 0.46550 0.88674 -0.07100
C 	C 	0.76165 0.49478 0.41962 0.03000
C 	C 	0.68780 0.37801 0.39331 0.01900
C 	C 	0.61891 0.99116 0.78239 -0.18400
C 	C 	0.62843 0.98169 0.85095 0.13200
C 	C 	0.59402 0.00646 0.63717 0.02700
C 	C 	0.69050 0.03450 0.88674 -0.07000
C 	C 	0.73835 0.00522 0.41962 0.02600
C 	C 	0.81220 0.12199 0.39331 0.01900
C 	C 	0.50884 0.61891 0.28239 -0.17900
C 	C 	0.51831 0.62843 0.35095 0.11200
C 	C 	0.49354 0.59402 0.13717 0.01500
C 	C 	0.46550 0.69050 0.38674 -0.07900
C 	C 	0.49478 0.73835 0.91962 0.05000
C 	C 	0.37801 0.81220 0.89331 0.04000
C 	C 	0.99116 0.88109 0.28239 -0.16300
C 	C 	0.98169 0.87157 0.35095 0.10700
C 	C 	0.00646 0.90598 0.13717 -0.00300
C 	C 	0.03450 0.80950 0.38674 -0.07900
C 	C 	0.00522 0.76165 0.91962 0.04500
C 	C 	0.12199 0.68780 0.89331 0.04000
C 	C 	0.88109 0.99116 0.28239 -0.16300
C 	C 	0.87157 0.98169 0.35095 0.10700
C 	C 	0.90598 0.00646 0.13717 -0.00300
C 	C 	0.80950 0.03450 0.38674 -0.07900
C 	C 	0.76165 0.00522 0.91962 0.04500
C 	C 	0.68780 0.12199 0.89331 0.04000
C 	C 	0.61891 0.50884 0.28239 -0.17900
C 	C 	0.62843 0.51831 0.35095 0.11200
C 	C 	0.59402 0.49354 0.13717 0.01500
C 	C 	0.69050 0.46550 0.38674 -0.07900
C 	C 	0.73835 0.49478 0.91962 0.05000
C 	C 	0.81220 0.37801 0.89331 0.04000
C 	C 	0.50884 0.88109 0.78239 -0.18500
C 	C 	0.51831 0.87157 0.85095 0.13300
C 	C 	0.49354 0.90598 0.63717 0.02700
C 	C 	0.46550 0.80950 0.88674 -0.07100
C 	C 	0.49478 0.76165 0.41962 0.03000
C 	C 	0.37801 0.68780 0.39331 0.01900
C 	C 	0.99116 0.61891 0.78239 -0.18400
C 	C 	0.98169 0.62843 0.85095 0.13200
C 	C 	0.00646 0.59402 0.63717 0.02700
C 	C 	0.03450 0.69050 0.88674 -0.07000
C 	C 	0.00522 0.73835 0.41962 0.02600
C 	C 	0.12199 0.81220 0.39331 0.01900
C 	C 	0.11891 0.49116 0.21761 -0.17100
C 	C 	0.12843 0.48169 0.14905 0.09500
C 	C 	0.09402 0.50646 0.36283 0.02200
C 	C 	0.19050 0.53450 0.11326 -0.08300
C 	C 	0.23835 0.50522 0.58038 0.03200
C 	C 	0.31220 0.62199 0.60669 0.02000
C 	C 	0.38109 0.00884 0.21761 -0.16800
C 	C 	0.37157 0.01831 0.14905 0.09500
C 	C 	0.40598 0.99354 0.36283 0.02000
C 	C 	0.30950 0.96550 0.11326 -0.08200
C 	C 	0.26165 0.99478 0.58038 0.02700
C 	C 	0.18780 0.87801 0.60669 0.02000
C 	C 	0.49116 0.38109 0.71761 -0.17900
C 	C 	0.48169 0.37157 0.64905 0.11700
C 	C 	0.50646 0.40598 0.86283 0.03800
C 	C 	0.53450 0.30950 0.61326 -0.07800
C 	C 	0.50522 0.26165 0.08038 0.01400
C 	C 	0.62199 0.18780 0.10669 0.00200
C 	C 	0.00884 0.11891 0.71761 -0.16200
C 	C 	0.01831 0.12843 0.64905 0.11200
C 	C 	0.99354 0.09402 0.86283 0.01500
C 	C 	0.96550 0.19050 0.61326 -0.07800
C 	C 	0.99478 0.23835 0.08038 0.01100
C 	C 	0.87801 0.31220 0.10669 0.00200
C 	C 	0.05943 0.05943 0.75191 0.10400
C 	C 	0.07843 0.07843 0.61480 -0.17600
C 	C 	0.04953 0.04953 0.82343 -0.04300
C 	C 	0.44057 0.44057 0.75191 0.12100
C 	C 	0.42157 0.42157 0.61480 -0.18100
C 	C 	0.45048 0.45047 0.82343 -0.06900
C 	C 	0.44057 0.05943 0.25191 0.10300
C 	C 	0.42157 0.07843 0.11480 -0.17400
C 	C 	0.45047 0.04953 0.32343 -0.06900
C 	C 	0.05943 0.44057 0.25191 0.10300
C 	C 	0.07843 0.42157 0.11480 -0.17400
C 	C 	0.04953 0.45048 0.32343 -0.06900
C 	C 	0.94057 0.55943 0.74809 0.12400
C 	C 	0.92157 0.57843 0.88520 -0.18600
C 	C 	0.95047 0.54952 0.67657 -0.07500
C 	C 	0.55943 0.94057 0.74809 0.12400
C 	C 	0.57843 0.92157 0.88520 -0.18600
C 	C 	0.54953 0.95048 0.67657 -0.07500
C 	C 	0.55943 0.55943 0.24809 0.10900
C 	C 	0.57843 0.57843 0.38520 -0.18000
C 	C 	0.54952 0.54953 0.17657 -0.07700
C 	C 	0.94057 0.94057 0.24809 0.09400
C 	C 	0.92157 0.92157 0.38520 -0.17600
C 	C 	0.95048 0.95047 0.17657 -0.05300
N 	N 	0.06605 0.00405 0.92663 -0.18600
N 	N 	0.19709 0.92537 0.05348 -0.28000
N 	N 	0.24273 0.85320 0.06975 -0.26100
N 	N 	0.43395 0.49595 0.92663 -0.19100
N 	N 	0.30291 0.57463 0.05348 -0.28000
N 	N 	0.25727 0.64680 0.06975 -0.26100
N 	N 	0.49595 0.06605 0.42663 -0.24600
N 	N 	0.57463 0.19709 0.55348 -0.25500
N 	N 	0.64680 0.24273 0.56975 -0.24200
N 	N 	0.00405 0.43395 0.42663 -0.24600
N 	N 	0.92537 0.30291 0.55348 -0.25400
N 	N 	0.85320 0.25727 0.56975 -0.24200
N 	N 	0.93395 0.50405 0.57337 -0.24700
N 	N 	0.80291 0.42537 0.44652 -0.25500
N 	N 	0.75727 0.35320 0.43025 -0.24200
N 	N 	0.56605 0.99595 0.57337 -0.24700
N 	N 	0.69709 0.07463 0.44652 -0.25500
N 	N 	0.74273 0.14680 0.43025 -0.24200
N 	N 	0.50405 0.56605 0.07337 -0.27500
N 	N 	0.42537 0.69709 0.94652 -0.20000
N 	N 	0.35320 0.74273 0.93025 -0.19600
N 	N 	0.99595 0.93395 0.07337 -0.26800
N 	N 	0.07463 0.80291 0.94652 -0.20100
N 	N 	0.14680 0.75727 0.93025 -0.19600
N 	N 	0.93395 0.99595 0.07337 -0.26800
N 	N 	0.80291 0.07463 0.94652 -0.20100
N 	N 	0.75727 0.14680 0.93025 -0.19600
N 	N 	0.56605 0.50405 0.07337 -0.27500
N 	N 	0.69709 0.42537 0.94652 -0.20000
N 	N 	0.74273 0.35320 0.93025 -0.19600
N 	N 	0.50405 0.93395 0.57337 -0.24700
N 	N 	0.42537 0.80291 0.44652 -0.25500
N 	N 	0.35320 0.75727 0.43025 -0.24200
N 	N 	0.99595 0.56605 0.57337 -0.24700
N 	N 	0.07463 0.69709 0.44652 -0.25500
N 	N 	0.14680 0.74273 0.43025 -0.24200
N 	N 	0.06605 0.49595 0.42663 -0.24600
N 	N 	0.19709 0.57463 0.55348 -0.25500
N 	N 	0.24273 0.64680 0.56975 -0.24200
N 	N 	0.43395 0.00405 0.42663 -0.24600
N 	N 	0.30291 0.92537 0.55348 -0.25400
N 	N 	0.25727 0.85320 0.56975 -0.24200
N 	N 	0.49595 0.43395 0.92663 -0.19100
N 	N 	0.57463 0.30291 0.05348 -0.28000
N 	N 	0.64680 0.25727 0.06975 -0.26100
N 	N 	0.00405 0.06605 0.92663 -0.18600
N 	N 	0.92537 0.19709 0.05348 -0.28000
N 	N 	0.85320 0.24273 0.06975 -0.26100
