data_crystal

_cell_length_a 12.03400
_cell_length_b 19.80300
_cell_length_c 16.38900
_cell_angle_alpha 90.00000
_cell_angle_beta  90.00000
_cell_angle_gamma 90.00000

_symmetry_space_group_name_	'P 1'
_symmetry_space_group_name_H-M	'P 1'

loop_
_symmetry_equiv_pos_as_xyz
  x,y,z

loop_
_atom_site_label
_atom_site_type_symbol
_atom_site_fract_x
_atom_site_fract_y
_atom_site_fract_z
_atom_site_charge
Zn	Zn	0.58278 0.33164 0.96941 1.19300
Zn	Zn	0.91722 0.16836 0.96941 1.19200
Zn	Zn	0.08278 0.66836 0.53059 1.19300
Zn	Zn	0.41722 0.83164 0.53059 1.19300
Zn	Zn	0.41722 0.66836 0.03059 1.19300
Zn	Zn	0.08278 0.83164 0.03059 1.19200
Zn	Zn	0.91722 0.33164 0.46941 1.19300
Zn	Zn	0.58278 0.16836 0.46941 1.19300
H 	H 	0.37370 0.32610 0.87280 -0.03300
H 	H 	0.20930 0.38640 0.85600 0.11800
H 	H 	0.30330 0.51410 0.03250 0.11700
H 	H 	0.46560 0.45280 0.05060 -0.02800
H 	H 	0.12410 0.49450 0.87640 0.14200
H 	H 	0.15150 0.53680 0.95330 0.17100
H 	H 	0.97780 0.48760 0.92230 0.02800
H 	H 	0.90500 0.40250 0.86870 0.07800
H 	H 	0.86430 0.28780 0.87280 0.01000
H 	H 	0.10000 0.38200 0.06820 0.08400
H 	H 	0.05890 0.26690 0.07030 -0.01700
H 	H 	0.80110 0.35810 0.73810 0.10100
H 	H 	0.60350 0.35090 0.64480 0.11700
H 	H 	0.12630 0.17390 0.87280 -0.03100
H 	H 	0.29070 0.11360 0.85600 0.11600
H 	H 	0.19670 0.98590 0.03250 0.10700
H 	H 	0.03440 0.04720 0.05060 -0.02400
H 	H 	0.37590 0.00550 0.87640 0.14000
H 	H 	0.34850 0.96320 0.95330 0.17200
H 	H 	0.52220 0.01240 0.92230 0.03100
H 	H 	0.59500 0.09750 0.86870 0.07400
H 	H 	0.63570 0.21220 0.87280 0.01200
H 	H 	0.40000 0.11800 0.06820 0.08000
H 	H 	0.44110 0.23310 0.07030 -0.01500
H 	H 	0.69890 0.14190 0.73810 0.10100
H 	H 	0.89650 0.14910 0.64480 0.11600
H 	H 	0.87370 0.67390 0.62720 -0.03300
H 	H 	0.70930 0.61360 0.64400 0.11700
H 	H 	0.80330 0.48590 0.46750 0.11600
H 	H 	0.96560 0.54720 0.44940 -0.02700
H 	H 	0.62410 0.50550 0.62360 0.14000
H 	H 	0.65150 0.46320 0.54670 0.17000
H 	H 	0.47780 0.51240 0.57770 0.03100
H 	H 	0.40500 0.59750 0.63130 0.07500
H 	H 	0.36430 0.71220 0.62720 0.01100
H 	H 	0.60000 0.61800 0.43180 0.08100
H 	H 	0.55890 0.73310 0.42970 -0.01500
H 	H 	0.30110 0.64190 0.76190 0.10100
H 	H 	0.10350 0.64910 0.85520 0.11800
H 	H 	0.62630 0.82610 0.62720 -0.03300
H 	H 	0.79070 0.88640 0.64400 0.11700
H 	H 	0.69670 0.01410 0.46750 0.11500
H 	H 	0.53440 0.95280 0.44940 -0.02700
H 	H 	0.87590 0.99450 0.62360 0.14000
H 	H 	0.84850 0.03680 0.54670 0.16700
H 	H 	0.02220 0.98760 0.57770 0.03000
H 	H 	0.09500 0.90250 0.63130 0.07600
H 	H 	0.13570 0.78780 0.62720 0.01100
H 	H 	0.90000 0.88200 0.43180 0.08200
H 	H 	0.94110 0.76690 0.42970 -0.01500
H 	H 	0.19890 0.85810 0.76190 0.10100
H 	H 	0.39650 0.85090 0.85520 0.11700
H 	H 	0.62630 0.67390 0.12720 -0.03300
H 	H 	0.79070 0.61360 0.14400 0.11800
H 	H 	0.69670 0.48590 0.96750 0.11700
H 	H 	0.53440 0.54720 0.94940 -0.02800
H 	H 	0.87590 0.50550 0.12360 0.14200
H 	H 	0.84850 0.46320 0.04670 0.17100
H 	H 	0.02220 0.51240 0.07770 0.02800
H 	H 	0.09500 0.59750 0.13130 0.07800
H 	H 	0.13570 0.71220 0.12720 0.01000
H 	H 	0.90000 0.61800 0.93180 0.08400
H 	H 	0.94110 0.73310 0.92970 -0.01700
H 	H 	0.19890 0.64190 0.26190 0.10100
H 	H 	0.39650 0.64910 0.35520 0.11700
H 	H 	0.87370 0.82610 0.12720 -0.03100
H 	H 	0.70930 0.88640 0.14400 0.11600
H 	H 	0.80330 0.01410 0.96750 0.10700
H 	H 	0.96560 0.95280 0.94940 -0.02400
H 	H 	0.62410 0.99450 0.12360 0.14000
H 	H 	0.65150 0.03680 0.04670 0.17200
H 	H 	0.47780 0.98760 0.07770 0.03100
H 	H 	0.40500 0.90250 0.13130 0.07400
H 	H 	0.36430 0.78780 0.12720 0.01200
H 	H 	0.60000 0.88200 0.93180 0.08000
H 	H 	0.55890 0.76690 0.92970 -0.01500
H 	H 	0.30110 0.85810 0.26190 0.10100
H 	H 	0.10350 0.85090 0.35520 0.11600
H 	H 	0.12630 0.32610 0.37280 -0.03300
H 	H 	0.29070 0.38640 0.35600 0.11700
H 	H 	0.19670 0.51410 0.53250 0.11600
H 	H 	0.03440 0.45280 0.55060 -0.02700
H 	H 	0.37590 0.49450 0.37640 0.14000
H 	H 	0.34850 0.53680 0.45330 0.17000
H 	H 	0.52220 0.48760 0.42230 0.03100
H 	H 	0.59500 0.40250 0.36870 0.07500
H 	H 	0.63570 0.28780 0.37280 0.01100
H 	H 	0.40000 0.38200 0.56820 0.08100
H 	H 	0.44110 0.26690 0.57030 -0.01500
H 	H 	0.69890 0.35810 0.23810 0.10100
H 	H 	0.89650 0.35090 0.14480 0.11800
H 	H 	0.37370 0.17390 0.37280 -0.03300
H 	H 	0.20930 0.11360 0.35600 0.11700
H 	H 	0.30330 0.98590 0.53250 0.11500
H 	H 	0.46560 0.04720 0.55060 -0.02700
H 	H 	0.12410 0.00550 0.37640 0.14000
H 	H 	0.15150 0.96320 0.45330 0.16700
H 	H 	0.97780 0.01240 0.42230 0.03000
H 	H 	0.90500 0.09750 0.36870 0.07600
H 	H 	0.86430 0.21220 0.37280 0.01100
H 	H 	0.10000 0.11800 0.56820 0.08200
H 	H 	0.05890 0.23310 0.57030 -0.01500
H 	H 	0.80110 0.14190 0.23810 0.10100
H 	H 	0.60350 0.14910 0.14480 0.11700
C 	C 	0.35960 0.36388 0.90480 0.11800
C 	C 	0.26070 0.39990 0.89520 -0.24300
C 	C 	0.23870 0.45559 0.94370 0.25000
C 	C 	0.31660 0.47600 0.00080 -0.25400
C 	C 	0.41480 0.43970 0.01090 0.12200
C 	C 	0.13580 0.49120 0.93480 -0.35500
C 	C 	0.02320 0.47490 0.96950 0.01200
C 	C 	0.00250 0.40330 0.96880 0.08200
C 	C 	0.93480 0.37540 0.90960 -0.11600
C 	C 	0.91140 0.30680 0.91150 0.04500
C 	C 	0.05250 0.36320 0.02970 -0.14300
C 	C 	0.02820 0.29430 0.03020 0.07300
C 	C 	0.65510 0.36830 0.79940 0.39900
C 	C 	0.72450 0.36040 0.73100 -0.14000
C 	C 	0.67980 0.35590 0.65170 -0.21000
C 	C 	0.74760 0.35890 0.58480 0.44000
C 	C 	0.14040 0.13612 0.90480 0.11500
C 	C 	0.23930 0.10010 0.89520 -0.23700
C 	C 	0.26130 0.04441 0.94370 0.23900
C 	C 	0.18340 0.02400 0.00080 -0.23400
C 	C 	0.08520 0.06030 0.01090 0.11200
C 	C 	0.36420 0.00880 0.93480 -0.35300
C 	C 	0.47680 0.02510 0.96950 0.01000
C 	C 	0.49750 0.09670 0.96880 0.06800
C 	C 	0.56520 0.12460 0.90960 -0.10400
C 	C 	0.58860 0.19320 0.91150 0.03900
C 	C 	0.44750 0.13680 0.02970 -0.12900
C 	C 	0.47180 0.20570 0.03020 0.06700
C 	C 	0.84490 0.13170 0.79940 0.40000
C 	C 	0.77550 0.13960 0.73100 -0.14100
C 	C 	0.82020 0.14410 0.65170 -0.21000
C 	C 	0.75240 0.14110 0.58480 0.43900
C 	C 	0.85960 0.63612 0.59520 0.11700
C 	C 	0.76070 0.60010 0.60480 -0.24100
C 	C 	0.73870 0.54441 0.55630 0.24600
C 	C 	0.81660 0.52400 0.49920 -0.25000
C 	C 	0.91480 0.56030 0.48910 0.11900
C 	C 	0.63580 0.50880 0.56520 -0.35200
C 	C 	0.52320 0.52510 0.53050 0.00900
C 	C 	0.50250 0.59670 0.53120 0.07200
C 	C 	0.43480 0.62460 0.59040 -0.10500
C 	C 	0.41140 0.69320 0.58850 0.04100
C 	C 	0.55250 0.63680 0.47030 -0.13300
C 	C 	0.52820 0.70570 0.46980 0.06700
C 	C 	0.15510 0.63170 0.70060 0.39900
C 	C 	0.22450 0.63960 0.76900 -0.14000
C 	C 	0.17980 0.64410 0.84830 -0.21000
C 	C 	0.24760 0.64110 0.91520 0.44000
C 	C 	0.64040 0.86388 0.59520 0.11600
C 	C 	0.73930 0.89990 0.60480 -0.23900
C 	C 	0.76130 0.95559 0.55630 0.24400
C 	C 	0.68340 0.97600 0.49920 -0.24700
C 	C 	0.58520 0.93970 0.48910 0.11800
C 	C 	0.86420 0.99120 0.56520 -0.34800
C 	C 	0.97680 0.97490 0.53050 0.01000
C 	C 	0.99750 0.90330 0.53120 0.07400
C 	C 	0.06520 0.87540 0.59040 -0.10800
C 	C 	0.08860 0.80680 0.58850 0.04200
C 	C 	0.94750 0.86320 0.47030 -0.13400
C 	C 	0.97180 0.79430 0.46980 0.06900
C 	C 	0.34490 0.86830 0.70060 0.39900
C 	C 	0.27550 0.86040 0.76900 -0.14000
C 	C 	0.32020 0.85590 0.84830 -0.20900
C 	C 	0.25240 0.85890 0.91520 0.43900
C 	C 	0.64040 0.63612 0.09520 0.11800
C 	C 	0.73930 0.60010 0.10480 -0.24300
C 	C 	0.76130 0.54441 0.05630 0.25000
C 	C 	0.68340 0.52400 0.99920 -0.25400
C 	C 	0.58520 0.56030 0.98910 0.12200
C 	C 	0.86420 0.50880 0.06520 -0.35500
C 	C 	0.97680 0.52510 0.03050 0.01200
C 	C 	0.99750 0.59670 0.03120 0.08200
C 	C 	0.06520 0.62460 0.09040 -0.11600
C 	C 	0.08860 0.69320 0.08850 0.04500
C 	C 	0.94750 0.63680 0.97030 -0.14300
C 	C 	0.97180 0.70570 0.96980 0.07300
C 	C 	0.34490 0.63170 0.20060 0.39900
C 	C 	0.27550 0.63960 0.26900 -0.14000
C 	C 	0.32020 0.64410 0.34830 -0.21000
C 	C 	0.25240 0.64110 0.41520 0.44000
C 	C 	0.85960 0.86388 0.09520 0.11500
C 	C 	0.76070 0.89990 0.10480 -0.23700
C 	C 	0.73870 0.95559 0.05630 0.23900
C 	C 	0.81660 0.97600 0.99920 -0.23400
C 	C 	0.91480 0.93970 0.98910 0.11200
C 	C 	0.63580 0.99120 0.06520 -0.35300
C 	C 	0.52320 0.97490 0.03050 0.01000
C 	C 	0.50250 0.90330 0.03120 0.06800
C 	C 	0.43480 0.87540 0.09040 -0.10400
C 	C 	0.41140 0.80680 0.08850 0.03900
C 	C 	0.55250 0.86320 0.97030 -0.12900
C 	C 	0.52820 0.79430 0.96980 0.06700
C 	C 	0.15510 0.86830 0.20060 0.40000
C 	C 	0.22450 0.86040 0.26900 -0.14100
C 	C 	0.17980 0.85590 0.34830 -0.21000
C 	C 	0.24760 0.85890 0.41520 0.43900
C 	C 	0.14040 0.36388 0.40480 0.11700
C 	C 	0.23930 0.39990 0.39520 -0.24100
C 	C 	0.26130 0.45559 0.44370 0.24600
C 	C 	0.18340 0.47600 0.50080 -0.25000
C 	C 	0.08520 0.43970 0.51090 0.11900
C 	C 	0.36420 0.49120 0.43480 -0.35200
C 	C 	0.47680 0.47490 0.46950 0.00900
C 	C 	0.49750 0.40330 0.46880 0.07200
C 	C 	0.56520 0.37540 0.40960 -0.10500
C 	C 	0.58860 0.30680 0.41150 0.04100
C 	C 	0.44750 0.36320 0.52970 -0.13300
C 	C 	0.47180 0.29430 0.53020 0.06700
C 	C 	0.84490 0.36830 0.29940 0.39900
C 	C 	0.77550 0.36040 0.23100 -0.14000
C 	C 	0.82020 0.35590 0.15170 -0.21000
C 	C 	0.75240 0.35890 0.08480 0.44000
C 	C 	0.35960 0.13612 0.40480 0.11600
C 	C 	0.26070 0.10010 0.39520 -0.23900
C 	C 	0.23870 0.04441 0.44370 0.24400
C 	C 	0.31660 0.02400 0.50080 -0.24700
C 	C 	0.41480 0.06030 0.51090 0.11800
C 	C 	0.13580 0.00880 0.43480 -0.34800
C 	C 	0.02320 0.02510 0.46950 0.01000
C 	C 	0.00250 0.09670 0.46880 0.07400
C 	C 	0.93480 0.12460 0.40960 -0.10800
C 	C 	0.91140 0.19320 0.41150 0.04200
C 	C 	0.05250 0.13680 0.52970 -0.13400
C 	C 	0.02820 0.20570 0.53020 0.06900
C 	C 	0.65510 0.13170 0.29940 0.39900
C 	C 	0.72450 0.13960 0.23100 -0.14000
C 	C 	0.67980 0.14410 0.15170 -0.20900
C 	C 	0.74760 0.14110 0.08480 0.43900
N 	N 	0.43720 0.38484 0.96255 -0.28200
N 	N 	0.95940 0.26650 0.97220 -0.27000
N 	N 	0.06280 0.11516 0.96255 -0.27900
N 	N 	0.54060 0.23350 0.97220 -0.26700
N 	N 	0.93720 0.61516 0.53745 -0.28200
N 	N 	0.45940 0.73350 0.52780 -0.26600
N 	N 	0.56280 0.88484 0.53745 -0.28100
N 	N 	0.04060 0.76650 0.52780 -0.26700
N 	N 	0.56280 0.61516 0.03745 -0.28200
N 	N 	0.04060 0.73350 0.02780 -0.27000
N 	N 	0.93720 0.88484 0.03745 -0.27900
N 	N 	0.45940 0.76650 0.02780 -0.26700
N 	N 	0.06280 0.38484 0.46255 -0.28200
N 	N 	0.54060 0.26650 0.47220 -0.26600
N 	N 	0.43720 0.11516 0.46255 -0.28100
N 	N 	0.95940 0.23350 0.47220 -0.26700
O 	O 	0.67550 0.33956 0.86116 -0.47000
O 	O 	0.57170 0.40880 0.79469 -0.29800
O 	O 	0.71300 0.38421 0.52057 -0.36900
O 	O 	0.84460 0.34417 0.58602 -0.47300
O 	O 	0.82450 0.16044 0.86116 -0.47100
O 	O 	0.92830 0.09120 0.79469 -0.30100
O 	O 	0.78700 0.11579 0.52057 -0.36900
O 	O 	0.65540 0.15583 0.58602 -0.47300
O 	O 	0.17550 0.66044 0.63884 -0.47000
O 	O 	0.07170 0.59120 0.70531 -0.29800
O 	O 	0.21300 0.61579 0.97943 -0.36700
O 	O 	0.34460 0.65583 0.91398 -0.47200
O 	O 	0.32450 0.83956 0.63884 -0.47000
O 	O 	0.42830 0.90880 0.70531 -0.29800
O 	O 	0.28700 0.88421 0.97943 -0.36600
O 	O 	0.15540 0.84417 0.91398 -0.47100
O 	O 	0.32450 0.66044 0.13884 -0.47000
O 	O 	0.42830 0.59120 0.20531 -0.29800
O 	O 	0.28700 0.61579 0.47943 -0.36900
O 	O 	0.15540 0.65583 0.41398 -0.47300
O 	O 	0.17550 0.83956 0.13884 -0.47100
O 	O 	0.07170 0.90880 0.20531 -0.30100
O 	O 	0.21300 0.88421 0.47943 -0.36900
O 	O 	0.34460 0.84417 0.41398 -0.47300
O 	O 	0.82450 0.33956 0.36116 -0.47000
O 	O 	0.92830 0.40880 0.29469 -0.29800
O 	O 	0.78700 0.38421 0.02057 -0.36700
O 	O 	0.65540 0.34417 0.08602 -0.47200
O 	O 	0.67550 0.16044 0.36116 -0.47000
O 	O 	0.57170 0.09120 0.29469 -0.29800
O 	O 	0.71300 0.11579 0.02057 -0.36600
O 	O 	0.84460 0.15583 0.08602 -0.47100
