data_crystal

_cell_length_a 8.39850
_cell_length_b 13.48360
_cell_length_c 14.18630
_cell_angle_alpha 61.62550
_cell_angle_beta  85.79400
_cell_angle_gamma 81.12200

_symmetry_space_group_name_	'P 1'
_symmetry_space_group_name_H-M	'P 1'

loop_
_symmetry_equiv_pos_as_xyz
  x,y,z

loop_
_atom_site_label
_atom_site_type_symbol
_atom_site_fract_x
_atom_site_fract_y
_atom_site_fract_z
_atom_site_charge
Zn	Zn	0.69643 0.60892 0.18234 1.20800
Zn	Zn	0.19643 0.79126 0.81766 1.20900
H 	H 	0.29580 0.21800 0.52700 0.05700
H 	H 	0.89100 0.11950 0.10900 0.05100
H 	H 	0.49420 0.14470 0.16320 0.07200
H 	H 	0.69430 0.26430 0.40580 0.09200
H 	H 	0.69600 0.79350 0.23280 -0.01500
H 	H 	0.27230 0.14140 0.82880 0.07900
H 	H 	0.56990 0.51910 0.92160 0.02800
H 	H 	0.89440 0.97170 0.88920 0.08900
H 	H 	0.79210 0.69050 0.80500 0.09700
H 	H 	0.07030 0.33110 0.47960 0.08800
H 	H 	0.32990 0.84540 0.59840 -0.00200
H 	H 	0.81790 0.79140 0.96140 -0.01000
H 	H 	0.79580 0.74500 0.47300 0.05800
H 	H 	0.04440 0.60030 0.12500 -0.01500
H 	H 	0.18840 0.68500 0.25960 0.02800
H 	H 	0.93080 0.13900 0.90660 0.06100
H 	H 	0.39440 0.86090 0.11080 0.09100
H 	H 	0.58260 0.25850 0.22420 0.02900
H 	H 	0.31790 0.75280 0.03860 -0.01000
H 	H 	0.29210 0.49550 0.19500 0.09800
H 	H 	0.19430 0.67010 0.59420 0.09200
H 	H 	0.47330 0.40420 0.86100 0.07500
H 	H 	0.08260 0.48270 0.77580 0.03200
H 	H 	0.68840 0.94460 0.74040 0.02300
H 	H 	0.57030 0.81070 0.52040 0.08800
H 	H 	0.46140 0.36130 0.34960 0.07800
H 	H 	0.99420 0.30790 0.83680 0.06300
H 	H 	0.54440 0.72530 0.87500 -0.01500
H 	H 	0.44890 0.05750 0.66200 0.07800
H 	H 	0.96140 0.71090 0.65040 0.07600
H 	H 	0.39100 0.22850 0.89100 0.05300
H 	H 	0.43080 0.04560 0.09340 0.06300
H 	H 	0.43200 0.62910 0.52000 0.02400
H 	H 	0.06990 0.44070 0.07840 0.02800
H 	H 	0.97330 0.26520 0.13900 0.07500
H 	H 	0.19600 0.02630 0.76720 -0.00800
H 	H 	0.93200 0.14910 0.48000 0.02400
H 	H 	0.77230 0.97020 0.17120 0.08000
H 	H 	0.82990 0.44380 0.40160 -0.00100
H 	H 	0.94890 0.71950 0.33800 0.07000
C 	C 	0.50930 0.22060 0.11380 -0.12200
C 	C 	0.06820 0.38710 0.40640 -0.15600
C 	C 	0.35670 0.89730 0.03900 -0.16700
C 	C 	0.00930 0.33440 0.88620 -0.10500
C 	C 	0.70850 0.74900 0.65360 0.12500
C 	C 	0.58170 0.39970 0.07960 -0.10600
C 	C 	0.85670 0.93630 0.96100 -0.16400
C 	C 	0.73940 0.82930 0.16260 0.07900
C 	C 	0.42490 0.81280 0.64080 0.09200
C 	C 	0.23940 0.99190 0.83740 0.06900
C 	C 	0.47850 0.26220 0.00440 0.08500
C 	C 	0.90380 0.10210 0.98060 -0.09100
C 	C 	0.80970 0.82820 0.00480 0.08700
C 	C 	0.84840 0.99160 0.02200 0.11300
C 	C 	0.40380 0.08270 0.01940 -0.08900
C 	C 	0.83670 0.03620 0.61920 -0.11800
C 	C 	0.88850 0.72660 0.51580 -0.06900
C 	C 	0.86810 0.72640 0.60900 -0.09500
C 	C 	0.30970 0.83300 0.99520 0.08900
C 	C 	0.78430 0.93500 0.12640 -0.15700
C 	C 	0.28430 0.06140 0.87360 -0.14900
C 	C 	0.92020 0.15610 0.03540 -0.05900
C 	C 	0.69900 0.72230 0.76080 -0.16700
C 	C 	0.13330 0.59350 0.87760 0.30200
C 	C 	0.19260 0.67270 0.52620 -0.14300
C 	C 	0.04780 0.70280 0.37440 -0.12500
C 	C 	0.38850 0.24240 0.48420 -0.06400
C 	C 	0.33400 0.64950 0.48160 0.05800
C 	C 	0.05280 0.41430 0.02920 0.04700
C 	C 	0.69000 0.00970 0.67200 0.06100
C 	C 	0.55280 0.44350 0.97080 0.04300
C 	C 	0.42020 0.19150 0.96460 -0.06300
C 	C 	0.06100 0.43850 0.85000 0.03400
C 	C 	0.49180 0.63120 0.33160 0.33400
C 	C 	0.19900 0.48310 0.23920 -0.16800
C 	C 	0.36810 0.33540 0.39100 -0.09500
C 	C 	0.83400 0.13110 0.51840 0.05900
C 	C 	0.19000 0.68170 0.32800 0.05100
C 	C 	0.56100 0.28850 0.15000 0.04200
C 	C 	0.33670 0.65540 0.38080 -0.11900
C 	C 	0.63330 0.47110 0.12240 0.30200
C 	C 	0.97850 0.26660 0.99560 0.07500
C 	C 	0.49770 0.37370 0.93480 -0.12200
C 	C 	0.92490 0.45360 0.35920 0.08600
C 	C 	0.04650 0.70000 0.47360 0.09800
C 	C 	0.69260 0.19890 0.47380 -0.14300
C 	C 	0.54650 0.17360 0.52640 0.09700
C 	C 	0.20850 0.40260 0.34640 0.12500
C 	C 	0.55030 0.74320 0.80160 0.09800
C 	C 	0.05030 0.54480 0.19840 0.10300
C 	C 	0.34840 0.01360 0.97800 0.11800
C 	C 	0.99180 0.96280 0.66840 0.32700
C 	C 	0.56820 0.79350 0.59360 -0.16300
C 	C 	0.08170 0.47930 0.92040 -0.10400
C 	C 	0.54780 0.07720 0.62560 -0.13600
C 	C 	0.99770 0.30850 0.06520 -0.12200
N 	N 	0.25330 0.87860 0.89500 -0.26300
N 	N 	0.75330 0.77360 0.10500 -0.26500
N 	N 	0.91610 0.53140 0.25520 -0.27000
N 	N 	0.41610 0.78660 0.74480 -0.26900
O 	O 	0.48540 0.64260 0.23820 -0.45500
O 	O 	0.15280 0.63531 0.94038 -0.41500
O 	O 	0.98540 0.88080 0.76180 -0.45500
O 	O 	0.62120 0.60470 0.38220 -0.31800
O 	O 	0.65720 0.43085 0.22090 -0.37900
O 	O 	0.65280 0.57569 0.05962 -0.41700
O 	O 	0.15720 0.65175 0.77910 -0.37800
O 	O 	0.12120 0.98690 0.61780 -0.31500
