data_crystal

_cell_length_a 10.45000
_cell_length_b 10.45000
_cell_length_c 22.73600
_cell_angle_alpha 90.00000
_cell_angle_beta  90.00000
_cell_angle_gamma 90.00000

_symmetry_space_group_name_	'P 1'
_symmetry_space_group_name_H-M	'P 1'

loop_
_symmetry_equiv_pos_as_xyz
  x,y,z

loop_
_atom_site_label
_atom_site_type_symbol
_atom_site_fract_x
_atom_site_fract_y
_atom_site_fract_z
_atom_site_charge
Mn	Mn	0.57161 0.44163 0.30281 1.13400
Mn	Mn	0.07352 0.93986 0.16835 1.14000
Mn	Mn	0.42839 0.55837 0.80281 1.13200
Mn	Mn	0.92648 0.06014 0.66835 1.13600
Mn	Mn	0.55837 0.57161 0.05281 1.14200
Mn	Mn	0.06014 0.07352 0.91835 1.13000
Mn	Mn	0.44163 0.42839 0.55281 1.13500
Mn	Mn	0.93986 0.92648 0.41835 1.13600
Nb	Nb	0.57121 0.93855 0.23584 1.25600
Nb	Nb	0.42879 0.06145 0.73584 1.25700
Nb	Nb	0.06145 0.57121 0.98584 1.22400
Nb	Nb	0.93855 0.42879 0.48584 1.25600
C 	C 	0.37400 0.95860 0.19860 -0.19700
C 	C 	0.77300 0.92060 0.20450 -0.20300
C 	C 	0.58690 0.07110 0.15720 -0.19400
C 	C 	0.56090 0.79950 0.15960 -0.18900
C 	C 	0.70180 0.92470 0.31700 -0.17200
C 	C 	0.43100 0.96310 0.31060 -0.20800
C 	C 	0.54290 0.74340 0.27360 -0.21300
C 	C 	0.59800 0.13870 0.26660 -0.19700
C 	C 	0.62600 0.04140 0.69860 -0.19800
C 	C 	0.22700 0.07940 0.70450 -0.20300
C 	C 	0.41310 0.92890 0.65720 -0.20000
C 	C 	0.43910 0.20050 0.65960 -0.19100
C 	C 	0.29820 0.07530 0.81700 -0.17400
C 	C 	0.56900 0.03690 0.81060 -0.21100
C 	C 	0.45710 0.25660 0.77360 -0.21500
C 	C 	0.40200 0.86130 0.76660 -0.20100
C 	C 	0.04140 0.37400 0.94860 -0.22000
C 	C 	0.07940 0.77300 0.95450 -0.22500
C 	C 	0.92890 0.58690 0.90720 -0.21200
C 	C 	0.20050 0.56090 0.90960 -0.20300
C 	C 	0.07530 0.70180 0.06700 -0.14900
C 	C 	0.03690 0.43100 0.06060 -0.18300
C 	C 	0.25660 0.54290 0.02360 -0.17900
C 	C 	0.86130 0.59800 0.01660 -0.16800
C 	C 	0.95860 0.62600 0.44860 -0.19900
C 	C 	0.92060 0.22700 0.45450 -0.20400
C 	C 	0.07110 0.41310 0.40720 -0.19700
C 	C 	0.79950 0.43910 0.40960 -0.19100
C 	C 	0.92470 0.29820 0.56700 -0.17200
C 	C 	0.96310 0.56900 0.56060 -0.20800
C 	C 	0.74340 0.45710 0.52360 -0.21300
C 	C 	0.13870 0.40200 0.51660 -0.19800
N 	N 	0.55180 0.72230 0.12220 -0.26300
N 	N 	0.77720 0.91780 0.35220 -0.26200
N 	N 	0.59660 0.15220 0.12320 -0.14200
N 	N 	0.87360 0.91400 0.18560 -0.28300
N 	N 	0.34850 0.97120 0.34310 -0.14800
N 	N 	0.27660 0.96780 0.17590 -0.28100
N 	N 	0.53270 0.64650 0.29760 -0.27800
N 	N 	0.60760 0.24010 0.28450 -0.27500
N 	N 	0.44820 0.27770 0.62220 -0.26700
N 	N 	0.22280 0.08220 0.85220 -0.26400
N 	N 	0.40340 0.84780 0.62320 -0.14800
N 	N 	0.12640 0.08600 0.68560 -0.28300
N 	N 	0.65150 0.02880 0.84310 -0.15400
N 	N 	0.72340 0.03220 0.67590 -0.28400
N 	N 	0.46730 0.35350 0.79760 -0.28100
N 	N 	0.39240 0.75990 0.78450 -0.27700
N 	N 	0.27770 0.55180 0.87220 -0.26900
N 	N 	0.08220 0.77720 0.10220 -0.26100
N 	N 	0.84780 0.59660 0.87320 -0.15200
N 	N 	0.08600 0.87360 0.93560 -0.28700
N 	N 	0.02880 0.34850 0.09310 -0.14700
N 	N 	0.03220 0.27660 0.92590 -0.28600
N 	N 	0.35350 0.53270 0.04760 -0.27800
N 	N 	0.75990 0.60760 0.03450 -0.27400
N 	N 	0.72230 0.44820 0.37220 -0.26700
N 	N 	0.91780 0.22280 0.60220 -0.26200
N 	N 	0.15220 0.40340 0.37320 -0.14800
N 	N 	0.91400 0.12640 0.43560 -0.28300
N 	N 	0.97120 0.65150 0.59310 -0.14900
N 	N 	0.96780 0.72340 0.42590 -0.28400
N 	N 	0.64650 0.46730 0.54760 -0.27800
N 	N 	0.24010 0.39240 0.53450 -0.27600
