data_crystal

_cell_length_a 10.94340
_cell_length_b 28.60350
_cell_length_c 22.54490
_cell_angle_alpha 90.00000
_cell_angle_beta  99.58700
_cell_angle_gamma 90.00000

_symmetry_space_group_name_	'P 1'
_symmetry_space_group_name_H-M	'P 1'

loop_
_symmetry_equiv_pos_as_xyz
  x,y,z

loop_
_atom_site_label
_atom_site_type_symbol
_atom_site_fract_x
_atom_site_fract_y
_atom_site_fract_z
_atom_site_charge
C 	C 	0.29740 0.45150 0.49390 0.37700
C 	C 	0.17420 0.45870 0.45750 -0.07300
C 	C 	0.06760 0.44200 0.47800 0.01000
H 	H 	0.07550 0.42420 0.51390 0.04700
C 	C 	0.95020 0.45170 0.44550 -0.06200
C 	C 	0.83880 0.43580 0.46940 0.37200
C 	C 	0.93700 0.47720 0.39220 -0.12200
H 	H 	0.85710 0.48360 0.37010 0.07400
C 	C 	0.04140 0.49300 0.37210 0.18300
C 	C 	0.15930 0.48350 0.40330 -0.10200
H 	H 	0.23010 0.49400 0.38770 0.07100
O 	O 	0.03600 0.52560 0.32690 -0.27000
C 	C 	0.92000 0.53480 0.29000 0.27700
H 	H 	0.92600 0.56240 0.26400 -0.06300
H 	H 	0.85530 0.54080 0.31490 0.04300
C 	C 	0.88700 0.48790 0.24930 -0.31100
H 	H 	0.80780 0.49210 0.22260 0.10900
H 	H 	0.95260 0.48250 0.22510 0.21200
H 	H 	0.88230 0.46100 0.27570 0.28500
C 	C 	0.51440 0.31600 0.60170 0.37600
C 	C 	0.47310 0.26630 0.60880 -0.04100
C 	C 	0.53240 0.23050 0.58300 -0.04000
H 	H 	0.59940 0.23720 0.56240 0.04800
C 	C 	0.49220 0.18490 0.58780 -0.01300
C 	C 	0.55780 0.14580 0.56010 0.33600
C 	C 	0.39830 0.17430 0.61800 -0.18300
H 	H 	0.37480 0.14270 0.62220 0.10800
C 	C 	0.33670 0.20990 0.64290 0.25800
C 	C 	0.37650 0.25610 0.63950 -0.14800
H 	H 	0.33750 0.28050 0.65810 0.09400
C 	C 	0.18360 0.15700 0.66820 1.07200
H 	H 	0.24300 0.13290 0.68650 -0.31800
H 	H 	0.15830 0.14940 0.62500 -0.28800
C 	C 	0.07220 0.15730 0.69890 -2.24100
C 	C 	0.53800 0.48970 0.65760 0.37800
C 	C 	0.62130 0.51630 0.70610 -0.08300
C 	C 	0.69920 0.49190 0.75010 0.00100
H 	H 	0.70020 0.45870 0.74910 0.03100
C 	C 	0.77440 0.51500 0.79500 -0.06900
C 	C 	0.85320 0.48760 0.84300 0.33800
C 	C 	0.77320 0.56400 0.79840 -0.11800
H 	H 	0.82300 0.58000 0.83070 0.07700
C 	C 	0.69720 0.58830 0.75340 0.17100
C 	C 	0.62020 0.56470 0.70730 -0.11200
H 	H 	0.56750 0.58180 0.67710 0.07600
C 	C 	0.75350 0.66190 0.79940 0.29900
H 	H 	0.84060 0.65110 0.80800 -0.04800
H 	H 	0.71560 0.65700 0.83580 -0.07600
C 	C 	0.74900 0.71320 0.78290 -0.39000
H 	H 	0.79440 0.73130 0.81640 0.13400
H 	H 	0.78720 0.71780 0.74700 0.11000
H 	H 	0.66260 0.72360 0.77470 0.31700
C 	C 	0.93860 0.31380 0.90330 0.35400
C 	C 	0.89580 0.26410 0.89710 -0.05100
C 	C 	0.97940 0.22910 0.92070 -0.02200
H 	H 	0.06160 0.23680 0.93890 0.04200
C 	C 	0.93970 0.18290 0.91700 -0.04800
C 	C 	0.02620 0.14520 0.94160 0.33800
C 	C 	0.81970 0.17110 0.89130 -0.13600
H 	H 	0.79420 0.13930 0.88860 0.10100
C 	C 	0.73710 0.20650 0.86940 0.21200
C 	C 	0.77550 0.25330 0.87240 -0.13300
H 	H 	0.71890 0.27740 0.85750 0.08700
C 	C 	0.57530 0.14970 0.83680 0.80200
H 	H 	0.58530 0.13530 0.87730 -0.19600
H 	H 	0.62290 0.13120 0.81140 -0.17800
C 	C 	0.44190 0.15200 0.80910 -1.13700
H 	H 	0.40060 0.17630 0.82930 0.26700
H 	H 	0.40260 0.12180 0.81370 0.10000
H 	H 	0.43480 0.15960 0.76630 0.85900
C 	C 	0.79270 0.45380 0.00590 0.36500
C 	C 	0.69270 0.46220 0.04110 -0.06900
C 	C 	0.57370 0.44200 0.02400 0.00600
H 	H 	0.56040 0.42010 0.99180 0.04000
C 	C 	0.47640 0.45360 0.05380 -0.06400
C 	C 	0.34990 0.43520 0.03200 0.37000
C 	C 	0.49530 0.48620 0.10160 -0.13700
H 	H 	0.42890 0.49480 0.12170 0.05900
C 	C 	0.61370 0.50570 0.11890 0.18600
C 	C 	0.71210 0.49370 0.08960 -0.11200
H 	H 	0.79190 0.50680 0.10240 0.06400
C 	C 	0.54160 0.55520 0.19320 0.73600
C 	C 	0.47200 0.58140 0.16320 -1.44300
H 	H 	0.40710 0.59110 0.18580 0.42500
H 	H 	0.51760 0.60890 0.15310 0.44100
H 	H 	0.43390 0.56560 0.12610 0.43400
O 	O 	0.38530 0.47810 0.48380 -0.53500
O 	O 	0.60750 0.42410 0.55000 -0.69600
H 	H 	0.65840 0.44800 0.57550 0.13500
O 	O 	0.30870 0.42130 0.53440 -0.46500
O 	O 	0.06590 0.42490 0.95250 -0.71800
H 	H 	0.09510 0.44930 0.92620 0.14300
O 	O 	0.85330 0.40570 0.51080 -0.46100
O 	O 	0.73790 0.45390 0.44600 -0.44100
O 	O 	0.43550 0.34710 0.60500 -0.45900
O 	O 	0.62180 0.32230 0.59290 -0.48700
O 	O 	0.64230 0.15610 0.53180 -0.44800
O 	O 	0.51990 0.10500 0.56880 -0.43100
O 	O 	0.24210 0.20300 0.67450 -0.46900
O 	O 	0.48350 0.50830 0.61320 -0.48500
O 	O 	0.53300 0.44560 0.66650 -0.48300
O 	O 	0.84730 0.44290 0.83790 -0.46000
O 	O 	0.92140 0.50670 0.88630 -0.45300
O 	O 	0.68670 0.63610 0.74990 -0.30100
O 	O 	0.85350 0.34450 0.90120 -0.46000
O 	O 	0.05210 0.32150 0.90930 -0.48400
O 	O 	0.13370 0.15650 0.96760 -0.44100
O 	O 	0.98620 0.10400 0.93510 -0.43500
O 	O 	0.61770 0.19870 0.84080 -0.35700
O 	O 	0.77290 0.42270 0.96610 -0.46700
O 	O 	0.89020 0.47891 0.01580 -0.52400
O 	O 	0.26490 0.45080 0.05830 -0.44700
O 	O 	0.33640 0.40690 0.98890 -0.46900
O 	O 	0.64050 0.53910 0.16300 -0.40900
Co	Co	0.46176 0.41468 0.59120 1.16900
Co	Co	0.72726 0.36808 0.54987 1.12700
Co	Co	0.89610 0.41009 0.91475 1.16700
Co	Co	0.18464 0.36909 0.95126 1.12400
Co	Co	0.06491 0.04387 0.96731 1.18900
Co	Co	0.07992 0.45527 0.03582 1.18600
O 	O 	0.04840 0.50680 0.31030 -0.04100
C 	C 	0.93400 0.51540 0.27220 0.08200
H 	H 	0.94300 0.54050 0.24300 -0.01800
H 	H 	0.87020 0.52530 0.29630 -0.17500
C 	C 	0.89200 0.46610 0.23680 -0.31900
H 	H 	0.81280 0.47050 0.20990 0.09400
H 	H 	0.95550 0.45670 0.21320 0.04300
H 	H 	0.88300 0.44160 0.26620 -0.07700
C 	C 	0.70800 0.71330 0.78920 -0.24900
H 	H 	0.75050 0.73300 0.82180 0.05100
H 	H 	0.72660 0.72450 0.75070 0.10000
H 	H 	0.61840 0.71460 0.78880 -0.13400
C 	C 	0.45200 0.15060 0.78800 -0.60100
H 	H 	0.44310 0.18130 0.76840 -0.23200
H 	H 	0.38010 0.14480 0.80790 0.55700
H 	H 	0.45620 0.12630 0.75780 0.06900
C 	C 	0.58260 0.60200 0.22690 -0.49900
H 	H 	0.51610 0.61310 0.24760 0.14700
H 	H 	0.65760 0.59650 0.25650 0.14700
H 	H 	0.59980 0.62550 0.19790 0.11100
H 	H 	0.03240 0.12650 0.69490 0.38800
H 	H 	0.09800 0.16460 0.74170 0.37200
H 	H 	0.01340 0.18110 0.68040 0.39000
H 	H 	0.06340 0.18830 0.71640 0.38900
H 	H 	0.99790 0.15020 0.66960 0.39400
H 	H 	0.08250 0.13370 0.73090 0.38000
C 	C 	0.20260 0.95150 0.00610 0.37900
C 	C 	0.32580 0.95870 0.04250 -0.07200
C 	C 	0.43240 0.94200 0.02200 0.01200
H 	H 	0.42450 0.92420 0.98610 0.04700
C 	C 	0.54980 0.95170 0.05450 -0.06200
C 	C 	0.66120 0.93580 0.03060 0.37200
C 	C 	0.56300 0.97720 0.10780 -0.12100
H 	H 	0.64290 0.98360 0.12990 0.07400
C 	C 	0.45860 0.99300 0.12790 0.18300
C 	C 	0.34070 0.98350 0.09670 -0.10100
H 	H 	0.26990 0.99400 0.11230 0.07100
O 	O 	0.46400 0.02560 0.17310 -0.26900
C 	C 	0.58000 0.03480 0.21000 0.27700
H 	H 	0.57400 0.06240 0.23600 -0.06300
H 	H 	0.64470 0.04080 0.18510 0.04300
C 	C 	0.61300 0.98790 0.25070 -0.31100
H 	H 	0.69220 0.99210 0.27740 0.10900
H 	H 	0.54740 0.98250 0.27490 0.21200
H 	H 	0.61770 0.96100 0.22430 0.28500
C 	C 	0.98560 0.81600 0.89830 0.38200
C 	C 	0.02690 0.76630 0.89120 -0.05000
C 	C 	0.96760 0.73050 0.91700 -0.03000
H 	H 	0.90060 0.73720 0.93760 0.04500
C 	C 	0.00780 0.68490 0.91220 -0.02100
C 	C 	0.94220 0.64580 0.93990 0.33900
C 	C 	0.10170 0.67430 0.88200 -0.17800
H 	H 	0.12520 0.64270 0.87780 0.10600
C 	C 	0.16330 0.70990 0.85710 0.25400
C 	C 	0.12350 0.75610 0.86050 -0.14300
H 	H 	0.16250 0.78050 0.84190 0.09300
C 	C 	0.31640 0.65700 0.83180 1.07100
H 	H 	0.25700 0.63290 0.81350 -0.31800
H 	H 	0.34170 0.64940 0.87500 -0.28800
C 	C 	0.42780 0.65730 0.80110 -2.24100
C 	C 	0.96200 0.98970 0.84240 0.38000
C 	C 	0.87870 0.01630 0.79390 -0.08500
C 	C 	0.80080 0.99190 0.74990 0.00300
H 	H 	0.79980 0.95870 0.75090 0.03100
C 	C 	0.72560 0.01500 0.70500 -0.07100
C 	C 	0.64680 0.98760 0.65700 0.33800
C 	C 	0.72680 0.06400 0.70160 -0.11700
H 	H 	0.67700 0.08000 0.66930 0.07600
C 	C 	0.80280 0.08830 0.74660 0.17000
C 	C 	0.87980 0.06470 0.79270 -0.11100
H 	H 	0.93250 0.08180 0.82290 0.07600
C 	C 	0.74650 0.16190 0.70060 0.29900
H 	H 	0.65940 0.15110 0.69200 -0.04800
H 	H 	0.78440 0.15700 0.66420 -0.07600
C 	C 	0.75100 0.21320 0.71710 -0.39000
H 	H 	0.70560 0.23130 0.68360 0.13300
H 	H 	0.71280 0.21780 0.75300 0.11000
H 	H 	0.83740 0.22360 0.72530 0.31700
C 	C 	0.56140 0.81380 0.59670 0.35300
C 	C 	0.60420 0.76410 0.60290 -0.05100
C 	C 	0.52060 0.72910 0.57930 -0.02300
H 	H 	0.43840 0.73680 0.56110 0.04200
C 	C 	0.56030 0.68290 0.58300 -0.04700
C 	C 	0.47380 0.64520 0.55840 0.33800
C 	C 	0.68030 0.67110 0.60870 -0.13600
H 	H 	0.70580 0.63930 0.61140 0.10100
C 	C 	0.76290 0.70650 0.63060 0.21200
C 	C 	0.72450 0.75330 0.62760 -0.13300
H 	H 	0.78110 0.77740 0.64250 0.08700
C 	C 	0.92470 0.64970 0.66320 0.80800
H 	H 	0.91470 0.63530 0.62270 -0.19800
H 	H 	0.87710 0.63120 0.68860 -0.18000
C 	C 	0.05810 0.65200 0.69090 -1.14400
H 	H 	0.09940 0.67630 0.67070 0.26800
H 	H 	0.09740 0.62180 0.68630 0.10100
H 	H 	0.06520 0.65960 0.73370 0.86400
C 	C 	0.70730 0.95380 0.49410 0.36700
C 	C 	0.80730 0.96220 0.45890 -0.07000
C 	C 	0.92630 0.94200 0.47600 0.00800
H 	H 	0.93960 0.92010 0.50820 0.04000
C 	C 	0.02360 0.95360 0.44620 -0.06700
C 	C 	0.15010 0.93520 0.46800 0.37000
C 	C 	0.00470 0.98620 0.39840 -0.13400
H 	H 	0.07110 0.99480 0.37830 0.05900
C 	C 	0.88630 0.00570 0.38110 0.18300
C 	C 	0.78790 0.99370 0.41040 -0.10900
H 	H 	0.70810 0.00680 0.39760 0.06300
C 	C 	0.95840 0.05520 0.30680 0.72500
C 	C 	0.02800 0.08140 0.33680 -1.41800
H 	H 	0.09290 0.09110 0.31420 0.41900
H 	H 	0.98240 0.10890 0.34690 0.43300
H 	H 	0.06610 0.06560 0.37390 0.42800
O 	O 	0.11470 0.97810 0.01620 -0.53500
O 	O 	0.89250 0.92410 0.95000 -0.69500
H 	H 	0.84160 0.94800 0.92450 0.13500
O 	O 	0.19130 0.92130 0.96560 -0.46600
O 	O 	0.43410 0.92490 0.54750 -0.71700
H 	H 	0.40490 0.94930 0.57380 0.14300
O 	O 	0.64670 0.90570 0.98920 -0.46100
O 	O 	0.76210 0.95390 0.05400 -0.44100
O 	O 	0.06450 0.84710 0.89500 -0.46200
O 	O 	0.87820 0.82230 0.90710 -0.48800
O 	O 	0.85770 0.65610 0.96820 -0.44900
O 	O 	0.98010 0.60500 0.93120 -0.43100
O 	O 	0.25790 0.70300 0.82550 -0.46800
O 	O 	0.01650 0.00830 0.88680 -0.48600
O 	O 	0.96700 0.94560 0.83350 -0.48300
O 	O 	0.65270 0.94290 0.66210 -0.45900
O 	O 	0.57860 0.00670 0.61370 -0.45300
O 	O 	0.81330 0.13610 0.75010 -0.30100
O 	O 	0.64650 0.84450 0.59880 -0.46000
O 	O 	0.44790 0.82150 0.59070 -0.48400
O 	O 	0.36630 0.65650 0.53240 -0.44100
O 	O 	0.51380 0.60400 0.56490 -0.43600
O 	O 	0.88230 0.69870 0.65920 -0.35800
O 	O 	0.72710 0.92270 0.53390 -0.46700
O 	O 	0.60980 0.97891 0.48420 -0.52400
O 	O 	0.23510 0.95080 0.44170 -0.44800
O 	O 	0.16360 0.90690 0.51110 -0.46900
O 	O 	0.85950 0.03910 0.33700 -0.40600
Co	Co	0.03824 0.91468 0.90880 1.16800
Co	Co	0.77274 0.86808 0.95013 1.12800
Co	Co	0.60390 0.91009 0.58525 1.16700
Co	Co	0.31536 0.86909 0.54874 1.12400
Co	Co	0.43509 0.54387 0.53269 1.18900
Co	Co	0.42008 0.95527 0.46418 1.18600
O 	O 	0.45160 0.00680 0.18970 -0.04100
C 	C 	0.56600 0.01540 0.22780 0.08300
H 	H 	0.55700 0.04050 0.25700 -0.01800
H 	H 	0.62980 0.02530 0.20370 -0.17600
C 	C 	0.60800 0.96610 0.26320 -0.31900
H 	H 	0.68720 0.97050 0.29010 0.09500
H 	H 	0.54450 0.95670 0.28680 0.04400
H 	H 	0.61700 0.94160 0.23380 -0.07700
C 	C 	0.79200 0.21330 0.71080 -0.24900
H 	H 	0.74950 0.23300 0.67820 0.05100
H 	H 	0.77340 0.22450 0.74930 0.10000
H 	H 	0.88160 0.21460 0.71120 -0.13400
C 	C 	0.04800 0.65060 0.71200 -0.60500
H 	H 	0.05690 0.68130 0.73160 -0.23400
H 	H 	0.11990 0.64480 0.69210 0.56000
H 	H 	0.04380 0.62630 0.74220 0.06900
C 	C 	0.91740 0.10200 0.27310 -0.49800
H 	H 	0.98390 0.11310 0.25240 0.14600
H 	H 	0.84240 0.09650 0.24350 0.14700
H 	H 	0.90020 0.12550 0.30210 0.11100
H 	H 	0.46760 0.62650 0.80510 0.38700
H 	H 	0.40200 0.66460 0.75830 0.37200
H 	H 	0.48660 0.68110 0.81960 0.39000
H 	H 	0.43660 0.68830 0.78360 0.38900
H 	H 	0.50210 0.65020 0.83040 0.39400
H 	H 	0.41750 0.63370 0.76910 0.38000
C 	C 	0.70260 0.54850 0.50610 0.37800
C 	C 	0.82580 0.54130 0.54250 -0.07200
C 	C 	0.93240 0.55800 0.52200 0.01100
H 	H 	0.92450 0.57580 0.48610 0.04800
C 	C 	0.04980 0.54830 0.55450 -0.06200
C 	C 	0.16120 0.56420 0.53060 0.37200
C 	C 	0.06300 0.52280 0.60780 -0.12200
H 	H 	0.14290 0.51640 0.62990 0.07400
C 	C 	0.95860 0.50700 0.62790 0.18300
C 	C 	0.84070 0.51650 0.59670 -0.10200
H 	H 	0.76990 0.50600 0.61230 0.07100
O 	O 	0.96400 0.47440 0.67310 -0.27000
C 	C 	0.08000 0.46520 0.71000 0.27700
H 	H 	0.07400 0.43760 0.73600 -0.06300
H 	H 	0.14470 0.45920 0.68510 0.04300
C 	C 	0.11300 0.51210 0.75070 -0.31100
H 	H 	0.19220 0.50790 0.77740 0.10900
H 	H 	0.04740 0.51750 0.77490 0.21200
H 	H 	0.11770 0.53900 0.72430 0.28500
C 	C 	0.48560 0.68400 0.39830 0.37600
C 	C 	0.52690 0.73370 0.39120 -0.04100
C 	C 	0.46760 0.76950 0.41700 -0.04000
H 	H 	0.40060 0.76280 0.43760 0.04800
C 	C 	0.50780 0.81510 0.41220 -0.01300
C 	C 	0.44220 0.85420 0.43990 0.33600
C 	C 	0.60170 0.82570 0.38200 -0.18300
H 	H 	0.62520 0.85730 0.37780 0.10800
C 	C 	0.66330 0.79010 0.35710 0.25800
C 	C 	0.62350 0.74390 0.36050 -0.14800
H 	H 	0.66250 0.71950 0.34190 0.09400
C 	C 	0.81640 0.84300 0.33180 1.07200
H 	H 	0.75700 0.86710 0.31350 -0.31800
H 	H 	0.84170 0.85060 0.37500 -0.28800
C 	C 	0.92780 0.84270 0.30110 -2.24100
C 	C 	0.46200 0.51030 0.34240 0.37800
C 	C 	0.37870 0.48370 0.29390 -0.08300
C 	C 	0.30080 0.50810 0.24990 0.00100
H 	H 	0.29980 0.54130 0.25090 0.03100
C 	C 	0.22560 0.48500 0.20500 -0.06900
C 	C 	0.14680 0.51240 0.15700 0.33800
C 	C 	0.22680 0.43600 0.20160 -0.11800
H 	H 	0.17700 0.42000 0.16930 0.07700
C 	C 	0.30280 0.41170 0.24660 0.17100
C 	C 	0.37980 0.43530 0.29270 -0.11200
H 	H 	0.43250 0.41820 0.32290 0.07600
C 	C 	0.24650 0.33810 0.20060 0.29900
H 	H 	0.15940 0.34890 0.19200 -0.04800
H 	H 	0.28440 0.34300 0.16420 -0.07600
C 	C 	0.25100 0.28680 0.21710 -0.39000
H 	H 	0.20560 0.26870 0.18360 0.13400
H 	H 	0.21280 0.28220 0.25300 0.11000
H 	H 	0.33740 0.27640 0.22530 0.31700
C 	C 	0.06140 0.68620 0.09670 0.35400
C 	C 	0.10420 0.73590 0.10290 -0.05100
C 	C 	0.02060 0.77090 0.07930 -0.02200
H 	H 	0.93840 0.76320 0.06110 0.04200
C 	C 	0.06030 0.81710 0.08300 -0.04800
C 	C 	0.97380 0.85480 0.05840 0.33800
C 	C 	0.18030 0.82890 0.10870 -0.13600
H 	H 	0.20580 0.86070 0.11140 0.10100
C 	C 	0.26290 0.79350 0.13060 0.21200
C 	C 	0.22450 0.74670 0.12760 -0.13300
H 	H 	0.28110 0.72260 0.14250 0.08700
C 	C 	0.42470 0.85030 0.16320 0.80200
H 	H 	0.41470 0.86470 0.12270 -0.19600
H 	H 	0.37710 0.86880 0.18860 -0.17800
C 	C 	0.55810 0.84800 0.19090 -1.13700
H 	H 	0.59940 0.82370 0.17070 0.26700
H 	H 	0.59740 0.87820 0.18630 0.10000
H 	H 	0.56520 0.84040 0.23370 0.85900
C 	C 	0.20730 0.54620 0.99410 0.36500
C 	C 	0.30730 0.53780 0.95890 -0.06900
C 	C 	0.42630 0.55800 0.97600 0.00600
H 	H 	0.43960 0.57990 0.00820 0.04000
C 	C 	0.52360 0.54640 0.94620 -0.06400
C 	C 	0.65010 0.56480 0.96800 0.37000
C 	C 	0.50470 0.51380 0.89840 -0.13700
H 	H 	0.57110 0.50520 0.87830 0.05900
C 	C 	0.38630 0.49430 0.88110 0.18600
C 	C 	0.28790 0.50630 0.91040 -0.11200
H 	H 	0.20810 0.49320 0.89760 0.06400
C 	C 	0.45840 0.44480 0.80680 0.73600
C 	C 	0.52800 0.41860 0.83680 -1.44300
H 	H 	0.59290 0.40890 0.81420 0.42500
H 	H 	0.48240 0.39110 0.84690 0.44100
H 	H 	0.56610 0.43440 0.87390 0.43400
O 	O 	0.61470 0.52190 0.51620 -0.53500
O 	O 	0.39250 0.57590 0.45000 -0.69600
H 	H 	0.34160 0.55200 0.42450 0.13500
O 	O 	0.69130 0.57870 0.46560 -0.46500
O 	O 	0.93410 0.57510 0.04750 -0.71800
H 	H 	0.90490 0.55070 0.07380 0.14300
O 	O 	0.14670 0.59430 0.48920 -0.46100
O 	O 	0.26210 0.54610 0.55400 -0.44100
O 	O 	0.56450 0.65290 0.39500 -0.45900
O 	O 	0.37820 0.67770 0.40710 -0.48700
O 	O 	0.35770 0.84390 0.46820 -0.44800
O 	O 	0.48010 0.89500 0.43120 -0.43100
O 	O 	0.75790 0.79700 0.32550 -0.46900
O 	O 	0.51650 0.49170 0.38680 -0.48500
O 	O 	0.46700 0.55440 0.33350 -0.48300
O 	O 	0.15270 0.55710 0.16210 -0.46000
O 	O 	0.07860 0.49330 0.11370 -0.45300
O 	O 	0.31330 0.36390 0.25010 -0.30100
O 	O 	0.14650 0.65550 0.09880 -0.46000
O 	O 	0.94790 0.67850 0.09070 -0.48400
O 	O 	0.86630 0.84350 0.03240 -0.44100
O 	O 	0.01380 0.89600 0.06490 -0.43500
O 	O 	0.38230 0.80130 0.15920 -0.35700
O 	O 	0.22710 0.57730 0.03390 -0.46700
O 	O 	0.10980 0.52109 0.98420 -0.52400
O 	O 	0.73510 0.54920 0.94170 -0.44700
O 	O 	0.66360 0.59310 0.01110 -0.46900
O 	O 	0.35950 0.46090 0.83700 -0.40900
Co	Co	0.53824 0.58532 0.40880 1.16900
Co	Co	0.27274 0.63192 0.45013 1.12700
Co	Co	0.10390 0.58991 0.08525 1.16700
Co	Co	0.81536 0.63091 0.04874 1.12400
Co	Co	0.93509 0.95613 0.03269 1.18900
Co	Co	0.92008 0.54473 0.96418 1.18600
O 	O 	0.95160 0.49320 0.68970 -0.04100
C 	C 	0.06600 0.48460 0.72780 0.08200
H 	H 	0.05700 0.45950 0.75700 -0.01800
H 	H 	0.12980 0.47470 0.70370 -0.17500
C 	C 	0.10800 0.53390 0.76320 -0.31900
H 	H 	0.18720 0.52950 0.79010 0.09400
H 	H 	0.04450 0.54330 0.78680 0.04300
H 	H 	0.11700 0.55840 0.73380 -0.07700
C 	C 	0.29200 0.28670 0.21080 -0.24900
H 	H 	0.24950 0.26700 0.17820 0.05100
H 	H 	0.27340 0.27550 0.24930 0.10000
H 	H 	0.38160 0.28540 0.21120 -0.13400
C 	C 	0.54800 0.84940 0.21200 -0.60100
H 	H 	0.55690 0.81870 0.23160 -0.23200
H 	H 	0.61990 0.85520 0.19210 0.55700
H 	H 	0.54380 0.87370 0.24220 0.06900
C 	C 	0.41740 0.39800 0.77310 -0.49900
H 	H 	0.48390 0.38690 0.75240 0.14700
H 	H 	0.34240 0.40350 0.74350 0.14700
H 	H 	0.40020 0.37450 0.80210 0.11100
H 	H 	0.96760 0.87350 0.30510 0.38800
H 	H 	0.90200 0.83540 0.25830 0.37200
H 	H 	0.98660 0.81890 0.31960 0.39000
H 	H 	0.93660 0.81170 0.28360 0.38900
H 	H 	0.00210 0.84980 0.33040 0.39400
H 	H 	0.91750 0.86630 0.26910 0.38000
C 	C 	0.79740 0.04850 0.99390 0.37900
C 	C 	0.67420 0.04130 0.95750 -0.07200
C 	C 	0.56760 0.05800 0.97800 0.01200
H 	H 	0.57550 0.07580 0.01390 0.04700
C 	C 	0.45020 0.04830 0.94550 -0.06200
C 	C 	0.33880 0.06420 0.96940 0.37200
C 	C 	0.43700 0.02280 0.89220 -0.12100
H 	H 	0.35710 0.01640 0.87010 0.07400
C 	C 	0.54140 0.00700 0.87210 0.18300
C 	C 	0.65930 0.01650 0.90330 -0.10100
H 	H 	0.73010 0.00600 0.88770 0.07100
O 	O 	0.53600 0.97440 0.82690 -0.26900
C 	C 	0.42000 0.96520 0.79000 0.27700
H 	H 	0.42600 0.93760 0.76400 -0.06300
H 	H 	0.35530 0.95920 0.81490 0.04300
C 	C 	0.38700 0.01210 0.74930 -0.31100
H 	H 	0.30780 0.00790 0.72260 0.10900
H 	H 	0.45260 0.01750 0.72510 0.21200
H 	H 	0.38230 0.03900 0.77570 0.28500
C 	C 	0.01440 0.18400 0.10170 0.38200
C 	C 	0.97310 0.23370 0.10880 -0.05000
C 	C 	0.03240 0.26950 0.08300 -0.03000
H 	H 	0.09940 0.26280 0.06240 0.04500
C 	C 	0.99220 0.31510 0.08780 -0.02100
C 	C 	0.05780 0.35420 0.06010 0.33900
C 	C 	0.89830 0.32570 0.11800 -0.17800
H 	H 	0.87480 0.35730 0.12220 0.10600
C 	C 	0.83670 0.29010 0.14290 0.25400
C 	C 	0.87650 0.24390 0.13950 -0.14300
H 	H 	0.83750 0.21950 0.15810 0.09300
C 	C 	0.68360 0.34300 0.16820 1.07100
H 	H 	0.74300 0.36710 0.18650 -0.31800
H 	H 	0.65830 0.35060 0.12500 -0.28800
C 	C 	0.57220 0.34270 0.19890 -2.24100
C 	C 	0.03800 0.01030 0.15760 0.38000
C 	C 	0.12130 0.98370 0.20610 -0.08500
C 	C 	0.19920 0.00810 0.25010 0.00300
H 	H 	0.20020 0.04130 0.24910 0.03100
C 	C 	0.27440 0.98500 0.29500 -0.07100
C 	C 	0.35320 0.01240 0.34300 0.33800
C 	C 	0.27320 0.93600 0.29840 -0.11700
H 	H 	0.32300 0.92000 0.33070 0.07600
C 	C 	0.19720 0.91170 0.25340 0.17000
C 	C 	0.12020 0.93530 0.20730 -0.11100
H 	H 	0.06750 0.91820 0.17710 0.07600
C 	C 	0.25350 0.83810 0.29940 0.29900
H 	H 	0.34060 0.84890 0.30800 -0.04800
H 	H 	0.21560 0.84300 0.33580 -0.07600
C 	C 	0.24900 0.78680 0.28290 -0.39000
H 	H 	0.29440 0.76870 0.31640 0.13300
H 	H 	0.28720 0.78220 0.24700 0.11000
H 	H 	0.16260 0.77640 0.27470 0.31700
C 	C 	0.43860 0.18620 0.40330 0.35300
C 	C 	0.39580 0.23590 0.39710 -0.05100
C 	C 	0.47940 0.27090 0.42070 -0.02300
H 	H 	0.56160 0.26320 0.43890 0.04200
C 	C 	0.43970 0.31710 0.41700 -0.04700
C 	C 	0.52620 0.35480 0.44160 0.33800
C 	C 	0.31970 0.32890 0.39130 -0.13600
H 	H 	0.29420 0.36070 0.38860 0.10100
C 	C 	0.23710 0.29350 0.36940 0.21200
C 	C 	0.27550 0.24670 0.37240 -0.13300
H 	H 	0.21890 0.22260 0.35750 0.08700
C 	C 	0.07530 0.35030 0.33680 0.80800
H 	H 	0.08530 0.36470 0.37730 -0.19800
H 	H 	0.12290 0.36880 0.31140 -0.18000
C 	C 	0.94190 0.34800 0.30910 -1.14400
H 	H 	0.90060 0.32370 0.32930 0.26800
H 	H 	0.90260 0.37820 0.31370 0.10100
H 	H 	0.93480 0.34040 0.26630 0.86400
C 	C 	0.29270 0.04620 0.50590 0.36700
C 	C 	0.19270 0.03780 0.54110 -0.07000
C 	C 	0.07370 0.05800 0.52400 0.00800
H 	H 	0.06040 0.07990 0.49180 0.04000
C 	C 	0.97640 0.04640 0.55380 -0.06700
C 	C 	0.84990 0.06480 0.53200 0.37000
C 	C 	0.99530 0.01380 0.60160 -0.13400
H 	H 	0.92890 0.00520 0.62170 0.05900
C 	C 	0.11370 0.99430 0.61890 0.18300
C 	C 	0.21210 0.00630 0.58960 -0.10900
H 	H 	0.29190 0.99320 0.60240 0.06300
C 	C 	0.04160 0.94480 0.69320 0.72500
C 	C 	0.97200 0.91860 0.66320 -1.41800
H 	H 	0.90710 0.90890 0.68580 0.41900
H 	H 	0.01760 0.89110 0.65310 0.43300
H 	H 	0.93390 0.93440 0.62610 0.42800
O 	O 	0.88530 0.02190 0.98380 -0.53500
O 	O 	0.10750 0.07590 0.05000 -0.69500
H 	H 	0.15840 0.05200 0.07550 0.13500
O 	O 	0.80870 0.07870 0.03440 -0.46600
O 	O 	0.56590 0.07510 0.45250 -0.71700
H 	H 	0.59510 0.05070 0.42620 0.14300
O 	O 	0.35330 0.09430 0.01080 -0.46100
O 	O 	0.23790 0.04610 0.94600 -0.44100
O 	O 	0.93550 0.15290 0.10500 -0.46200
O 	O 	0.12180 0.17770 0.09290 -0.48800
O 	O 	0.14230 0.34390 0.03180 -0.44900
O 	O 	0.01990 0.39500 0.06880 -0.43100
O 	O 	0.74210 0.29700 0.17450 -0.46800
O 	O 	0.98350 0.99170 0.11320 -0.48600
O 	O 	0.03300 0.05440 0.16650 -0.48300
O 	O 	0.34730 0.05710 0.33790 -0.45900
O 	O 	0.42140 0.99330 0.38630 -0.45300
O 	O 	0.18670 0.86390 0.24990 -0.30100
O 	O 	0.35350 0.15550 0.40120 -0.46000
O 	O 	0.55210 0.17850 0.40930 -0.48400
O 	O 	0.63370 0.34350 0.46760 -0.44100
O 	O 	0.48620 0.39600 0.43510 -0.43600
O 	O 	0.11770 0.30130 0.34080 -0.35800
O 	O 	0.27290 0.07730 0.46610 -0.46700
O 	O 	0.39020 0.02109 0.51580 -0.52400
O 	O 	0.76490 0.04920 0.55830 -0.44800
O 	O 	0.83640 0.09310 0.48890 -0.46900
O 	O 	0.14050 0.96090 0.66300 -0.40600
Co	Co	0.96176 0.08532 0.09120 1.16800
Co	Co	0.22726 0.13192 0.04987 1.12800
Co	Co	0.39610 0.08991 0.41475 1.16700
Co	Co	0.68464 0.13091 0.45126 1.12400
Co	Co	0.56491 0.45613 0.46731 1.18900
Co	Co	0.57992 0.04473 0.53582 1.18600
O 	O 	0.54840 0.99320 0.81030 -0.04100
C 	C 	0.43400 0.98460 0.77220 0.08300
H 	H 	0.44300 0.95950 0.74300 -0.01800
H 	H 	0.37020 0.97470 0.79630 -0.17600
C 	C 	0.39200 0.03390 0.73680 -0.31900
H 	H 	0.31280 0.02950 0.70990 0.09500
H 	H 	0.45550 0.04330 0.71320 0.04400
H 	H 	0.38300 0.05840 0.76620 -0.07700
C 	C 	0.20800 0.78670 0.28920 -0.24900
H 	H 	0.25050 0.76700 0.32180 0.05100
H 	H 	0.22660 0.77550 0.25070 0.10000
H 	H 	0.11840 0.78540 0.28880 -0.13400
C 	C 	0.95200 0.34940 0.28800 -0.60500
H 	H 	0.94310 0.31870 0.26840 -0.23400
H 	H 	0.88010 0.35520 0.30790 0.56000
H 	H 	0.95620 0.37370 0.25780 0.06900
C 	C 	0.08260 0.89800 0.72690 -0.49800
H 	H 	0.01610 0.88690 0.74760 0.14600
H 	H 	0.15760 0.90350 0.75650 0.14700
H 	H 	0.09980 0.87450 0.69790 0.11100
H 	H 	0.53240 0.37350 0.19490 0.38700
H 	H 	0.59800 0.33540 0.24170 0.37200
H 	H 	0.51340 0.31890 0.18040 0.39000
H 	H 	0.56340 0.31170 0.21640 0.38900
H 	H 	0.49790 0.34980 0.16960 0.39400
H 	H 	0.58250 0.36630 0.23090 0.38000
