data_crystal

_cell_length_a 10.94670
_cell_length_b 28.69100
_cell_length_c 23.14320
_cell_angle_alpha 90.00000
_cell_angle_beta  102.23800
_cell_angle_gamma 90.00000

_symmetry_space_group_name_	'P 1'
_symmetry_space_group_name_H-M	'P 1'

loop_
_symmetry_equiv_pos_as_xyz
  x,y,z

loop_
_atom_site_label
_atom_site_type_symbol
_atom_site_fract_x
_atom_site_fract_y
_atom_site_fract_z
_atom_site_charge
Co	Co	0.07624 0.54590 0.03726 1.18200
O 	O 	0.26250 0.55123 0.05961 -0.44300
O 	O 	0.05160 0.57471 0.95486 -0.72100
O 	O 	0.88620 0.51999 0.02032 -0.50800
O 	O 	0.91140 0.49555 0.88971 -0.46400
O 	O 	0.51840 0.89378 0.56858 -0.43800
C 	C 	0.34530 0.56525 0.03350 0.36200
Co	Co	0.17178 0.62975 0.95133 1.16400
C 	C 	0.47370 0.54442 0.05437 -0.05600
O 	O 	0.33020 0.59331 0.99103 -0.42700
C 	C 	0.57110 0.55685 0.02780 -0.00300
C 	C 	0.48920 0.50893 0.09720 -0.10400
H 	H 	0.56000 0.58090 0.99890 0.06100
C 	C 	0.68580 0.53380 0.04370 -0.06600
C 	C 	0.60350 0.48650 0.11270 0.15200
H 	H 	0.42210 0.50040 0.11520 0.07900
C 	C 	0.78640 0.54415 0.01080 0.35700
C 	C 	0.70260 0.49921 0.08670 -0.09200
O 	O 	0.62620 0.44914 0.15080 -0.22300
O 	O 	0.76270 0.57624 0.97294 -0.45000
H 	H 	0.78140 0.48430 0.09840 0.05300
C 	C 	0.52110 0.42773 0.16920 -0.03100
Co	Co	0.87691 0.58988 0.92095 1.17100
H 	H 	0.45310 0.42160 0.13440 0.04700
H 	H 	0.48860 0.44880 0.19640 0.05000
C 	C 	0.56490 0.38270 0.20010 0.04300
O 	O 	0.83740 0.65555 0.91189 -0.45800
O 	O 	0.81650 0.55802 0.84483 -0.44800
H 	H 	0.63410 0.38920 0.23430 0.02100
H 	H 	0.59750 0.36200 0.17260 0.02200
C 	C 	0.45980 0.35800 0.22150 -0.43200
H 	H 	0.07520 0.54990 0.92890 0.14900
C 	C 	0.83580 0.51387 0.84780 0.34500
C 	C 	0.91990 0.68546 0.90850 0.35400
H 	H 	0.49140 0.32890 0.24140 0.14700
H 	H 	0.42840 0.37820 0.24930 0.15300
H 	H 	0.39190 0.35100 0.18770 0.15300
O 	O 	0.03110 0.67684 0.90637 -0.44200
O 	O 	0.63290 0.84297 0.52840 -0.42500
C 	C 	0.76650 0.48594 0.79720 -0.06900
C 	C 	0.88000 0.73560 0.90710 -0.06000
C 	C 	0.68580 0.50829 0.75200 0.00300
C 	C 	0.78330 0.43736 0.79590 -0.10600
C 	C 	0.96900 0.76982 0.92570 -0.00600
C 	C 	0.75430 0.74696 0.88960 -0.08600
Co	Co	0.55930 0.54503 0.47127 1.19000
Co	Co	0.73211 0.62970 0.55921 1.19400
H 	H 	0.67560 0.54110 0.75320 0.04600
C 	C 	0.61960 0.48297 0.70460 -0.07000
C 	C 	0.71990 0.41249 0.74680 0.14600
H 	H 	0.83660 0.42180 0.82790 0.07000
H 	H 	0.05490 0.76180 0.93780 0.04900
C 	C 	0.93130 0.81573 0.92650 -0.05400
C 	C 	0.71860 0.79360 0.88970 0.13500
H 	H 	0.69340 0.72330 0.87760 0.07200
O 	O 	0.72850 0.55170 0.45245 -0.43500
O 	O 	0.85680 0.59319 0.52237 -0.40200
C 	C 	0.53460 0.50870 0.65570 0.35800
C 	C 	0.63770 0.43527 0.70070 -0.10400
O 	O 	0.73090 0.36552 0.73945 -0.22700
C 	C 	0.02290 0.85345 0.95010 0.33000
C 	C 	0.80660 0.82798 0.90760 -0.08900
O 	O 	0.59250 0.80211 0.87240 -0.14500
C 	C 	0.83460 0.56670 0.47870 0.34500
O 	O 	0.51210 0.55150 0.66654 -0.45400
O 	O 	0.49170 0.48997 0.60807 -0.46500
H 	H 	0.59510 0.41830 0.66720 0.08100
C 	C 	0.80930 0.34037 0.78670 -0.01900
O 	O 	0.13120 0.84236 0.97829 -0.41100
O 	O 	0.98070 0.89449 0.94154 -0.43500
H 	H 	0.78210 0.85980 0.90700 0.08100
C 	C 	0.55360 0.84990 0.86010 -0.45300
C 	C 	0.94260 0.54907 0.45390 -0.05500
O 	O 	0.37970 0.52187 0.48447 -0.53500
Co	Co	0.46710 0.58587 0.59241 1.17400
H 	H 	0.77550 0.34240 0.82310 0.03800
H 	H 	0.89490 0.35350 0.79520 0.02700
C 	C 	0.81160 0.28960 0.76670 0.04400
H 	H 	0.59870 0.86380 0.83150 0.16100
H 	H 	0.57230 0.86850 0.89690 0.16400
C 	C 	0.41440 0.84970 0.83460 0.77500
C 	C 	0.06400 0.55780 0.48400 -0.00700
C 	C 	0.91850 0.52226 0.40270 -0.11500
O 	O 	0.30740 0.57582 0.53750 -0.45900
O 	O 	0.43880 0.65189 0.60528 -0.44600
H 	H 	0.84150 0.28850 0.72920 0.02200
H 	H 	0.87190 0.27200 0.79670 0.01400
C 	C 	0.68570 0.26630 0.75750 -0.43200
C 	C 	0.33140 0.83370 0.86570 -1.21100
C 	C 	0.16260 0.53990 0.46220 -0.07300
H 	H 	0.07930 0.57580 0.51920 0.06600
C 	C 	0.01640 0.50540 0.38050 0.15600
H 	H 	0.83490 0.51570 0.38320 0.08100
C 	C 	0.29290 0.54645 0.49700 0.38200
C 	C 	0.51880 0.68352 0.60260 0.34900
H 	H 	0.69280 0.23400 0.74480 0.15100
H 	H 	0.65630 0.26650 0.79470 0.15900
H 	H 	0.62600 0.28310 0.72710 0.16300
H 	H 	0.24650 0.83650 0.84170 0.36000
H 	H 	0.34930 0.80090 0.87600 0.38400
H 	H 	0.33830 0.85210 0.90190 0.37400
C 	C 	0.14070 0.51500 0.40900 -0.09000
O 	O 	0.00530 0.47767 0.33100 -0.19800
O 	O 	0.62860 0.67703 0.59823 -0.43200
C 	C 	0.47280 0.73292 0.60460 -0.03900
H 	H 	0.20840 0.50480 0.39250 0.07200
C 	C 	0.88080 0.46960 0.29590 -0.03500
C 	C 	0.53290 0.76837 0.58120 -0.02700
C 	C 	0.36910 0.74200 0.62810 -0.11300
H 	H 	0.82500 0.46010 0.32230 0.04600
H 	H 	0.88400 0.44370 0.26800 0.05100
C 	C 	0.82690 0.51250 0.26130 0.04100
H 	H 	0.60300 0.76180 0.56430 0.06900
C 	C 	0.48960 0.81364 0.58270 -0.03700
C 	C 	0.32560 0.78730 0.62800 0.16200
H 	H 	0.32830 0.71750 0.64420 0.08900
H 	H 	0.81080 0.53660 0.28940 0.00300
H 	H 	0.74580 0.50420 0.23540 0.01900
C 	C 	0.91230 0.53310 0.22330 -0.42400
C 	C 	0.55320 0.85337 0.55800 0.33400
C 	C 	0.38710 0.82328 0.60670 -0.12400
O 	O 	0.21950 0.79302 0.65070 -0.21800
H 	H 	0.87230 0.56050 0.20220 0.14000
H 	H 	0.99220 0.54210 0.24870 0.15500
H 	H 	0.92710 0.50970 0.19460 0.15600
H 	H 	0.35900 0.85450 0.60840 0.08200
C 	C 	0.15010 0.84180 0.63660 0.07400
H 	H 	0.19840 0.86640 0.66130 0.05000
H 	H 	0.14450 0.85000 0.59460 0.02600
C 	C 	0.02030 0.83910 0.64910 0.01100
C 	C 	0.92560 0.81510 0.59790 -0.38000
H 	H 	0.99060 0.87090 0.65510 0.00800
H 	H 	0.02370 0.82140 0.68610 0.01100
H 	H 	0.84290 0.81410 0.60780 0.23700
H 	H 	0.92060 0.83280 0.56130 0.16600
H 	H 	0.95360 0.78330 0.59240 0.22700
O 	O 	0.29800 0.68084 0.93974 -0.44300
H 	H 	0.30000 0.70860 0.95800 0.21500
O 	O 	0.61030 0.57424 0.55483 -0.69500
H 	H 	0.66000 0.54940 0.57960 0.15800
O 	O 	0.82480 0.60123 0.64170 -0.42600
H 	H 	0.82600 0.60800 0.67950 0.20600
O 	O 	0.86790 0.68460 0.57460 -0.15000
C 	C 	0.37460 0.82350 0.78470 -1.16800
H 	H 	0.28350 0.82590 0.77210 0.35500
H 	H 	0.41370 0.83510 0.75310 0.34900
H 	H 	0.39800 0.79090 0.79310 0.36900
C 	C 	0.09960 0.83260 0.70510 0.05800
H 	H 	0.13200 0.81600 0.74270 -0.02400
H 	H 	0.02780 0.81480 0.68230 0.00800
C 	C 	0.19940 0.83630 0.67040 -0.07600
H 	H 	0.17300 0.85770 0.63660 -0.04100
H 	H 	0.27720 0.84850 0.69570 0.01600
C 	C 	0.05800 0.88110 0.71780 -0.47300
H 	H 	0.99200 0.87890 0.74060 0.16900
H 	H 	0.12890 0.89850 0.74060 0.14800
H 	H 	0.02510 0.89730 0.68050 0.16500
O 	O 	0.84530 0.78730 0.57760 -0.25700
O 	O 	0.89000 0.67110 0.54900 -0.12700
Co	Co	0.42376 0.04590 0.46274 1.18100
O 	O 	0.23750 0.05123 0.44039 -0.44400
O 	O 	0.44840 0.07471 0.54514 -0.72200
O 	O 	0.61380 0.01999 0.47968 -0.50900
O 	O 	0.58860 0.99555 0.61029 -0.46400
O 	O 	0.98160 0.39378 0.93142 -0.43800
C 	C 	0.15470 0.06525 0.46650 0.36200
Co	Co	0.32822 0.12975 0.54867 1.16400
C 	C 	0.02630 0.04442 0.44563 -0.05600
O 	O 	0.16980 0.09331 0.50897 -0.42600
C 	C 	0.92890 0.05685 0.47220 -0.00300
C 	C 	0.01080 0.00893 0.40280 -0.10400
H 	H 	0.94000 0.08090 0.50110 0.06100
C 	C 	0.81420 0.03380 0.45630 -0.06600
C 	C 	0.89650 0.98650 0.38730 0.15200
H 	H 	0.07790 0.00040 0.38480 0.07900
C 	C 	0.71360 0.04415 0.48920 0.35700
C 	C 	0.79740 0.99921 0.41330 -0.09100
O 	O 	0.87380 0.94914 0.34920 -0.22200
O 	O 	0.73730 0.07624 0.52706 -0.45100
H 	H 	0.71860 0.98430 0.40160 0.05200
C 	C 	0.97890 0.92773 0.33080 -0.03200
Co	Co	0.62309 0.08988 0.57905 1.17100
H 	H 	0.04690 0.92160 0.36560 0.04800
H 	H 	0.01140 0.94880 0.30360 0.05000
C 	C 	0.93510 0.88270 0.29990 0.04300
O 	O 	0.66260 0.15555 0.58811 -0.45800
O 	O 	0.68350 0.05802 0.65517 -0.44800
H 	H 	0.86590 0.88920 0.26570 0.02100
H 	H 	0.90250 0.86200 0.32740 0.02200
C 	C 	0.04020 0.85800 0.27850 -0.43100
H 	H 	0.42480 0.04990 0.57110 0.14900
C 	C 	0.66420 0.01387 0.65220 0.34500
C 	C 	0.58010 0.18546 0.59150 0.35300
H 	H 	0.00860 0.82890 0.25860 0.14700
H 	H 	0.07160 0.87820 0.25070 0.15300
H 	H 	0.10810 0.85100 0.31230 0.15200
O 	O 	0.46890 0.17684 0.59363 -0.44200
O 	O 	0.86710 0.34297 0.97160 -0.42500
C 	C 	0.73350 0.98594 0.70280 -0.06900
C 	C 	0.62000 0.23560 0.59290 -0.06000
C 	C 	0.81420 0.00829 0.74800 0.00300
C 	C 	0.71670 0.93736 0.70410 -0.10600
C 	C 	0.53100 0.26982 0.57430 -0.00600
C 	C 	0.74570 0.24696 0.61040 -0.08600
Co	Co	0.94070 0.04503 0.02873 1.19000
Co	Co	0.76789 0.12970 0.94079 1.19400
H 	H 	0.82440 0.04110 0.74680 0.04600
C 	C 	0.88040 0.98297 0.79540 -0.06900
C 	C 	0.78010 0.91249 0.75320 0.14600
H 	H 	0.66340 0.92180 0.67210 0.07000
H 	H 	0.44510 0.26180 0.56220 0.04900
C 	C 	0.56870 0.31573 0.57350 -0.05500
C 	C 	0.78140 0.29360 0.61030 0.13500
H 	H 	0.80660 0.22330 0.62240 0.07300
O 	O 	0.77150 0.05170 0.04755 -0.43500
O 	O 	0.64320 0.09319 0.97763 -0.40200
C 	C 	0.96540 0.00870 0.84430 0.35900
C 	C 	0.86230 0.93527 0.79930 -0.10400
O 	O 	0.76910 0.86552 0.76055 -0.22700
C 	C 	0.47710 0.35345 0.54990 0.33100
C 	C 	0.69340 0.32798 0.59240 -0.08900
O 	O 	0.90750 0.30211 0.62760 -0.14500
C 	C 	0.66540 0.06670 0.02130 0.34400
O 	O 	0.98790 0.05150 0.83346 -0.45300
O 	O 	0.00830 0.98997 0.89193 -0.46600
H 	H 	0.90490 0.91830 0.83280 0.08100
C 	C 	0.69070 0.84037 0.71330 -0.01900
O 	O 	0.36880 0.34236 0.52171 -0.41100
O 	O 	0.51930 0.39449 0.55846 -0.43600
H 	H 	0.71790 0.35980 0.59300 0.08100
C 	C 	0.94640 0.34990 0.63990 -0.45100
C 	C 	0.55740 0.04907 0.04610 -0.05400
O 	O 	0.12030 0.02187 0.01553 -0.53400
Co	Co	0.03290 0.08587 0.90759 1.17400
H 	H 	0.72450 0.84240 0.67690 0.03800
H 	H 	0.60510 0.85350 0.70480 0.02600
C 	C 	0.68840 0.78960 0.73330 0.04400
H 	H 	0.90130 0.36380 0.66850 0.16100
H 	H 	0.92770 0.36850 0.60310 0.16400
C 	C 	0.08560 0.34970 0.66540 0.77300
C 	C 	0.43600 0.05780 0.01600 -0.00700
C 	C 	0.58150 0.02226 0.09730 -0.11500
O 	O 	0.19260 0.07582 0.96250 -0.46000
O 	O 	0.06120 0.15189 0.89472 -0.44700
H 	H 	0.65850 0.78850 0.77080 0.02100
H 	H 	0.62810 0.77200 0.70330 0.01400
C 	C 	0.81430 0.76630 0.74250 -0.43200
C 	C 	0.16860 0.33370 0.63430 -1.20900
C 	C 	0.33740 0.03990 0.03780 -0.07400
H 	H 	0.42070 0.07580 0.98080 0.06600
C 	C 	0.48360 0.00540 0.11950 0.15500
H 	H 	0.66510 0.01570 0.11680 0.08100
C 	C 	0.20710 0.04645 0.00300 0.38300
C 	C 	0.98120 0.18352 0.89740 0.35200
H 	H 	0.80720 0.73400 0.75520 0.15100
H 	H 	0.84370 0.76650 0.70530 0.15900
H 	H 	0.87400 0.78310 0.77290 0.16300
H 	H 	0.25350 0.33650 0.65830 0.36000
H 	H 	0.15070 0.30090 0.62400 0.38300
H 	H 	0.16170 0.35210 0.59810 0.37400
C 	C 	0.35930 0.01500 0.09100 -0.09000
O 	O 	0.49470 0.97767 0.16900 -0.19800
O 	O 	0.87140 0.17703 0.90177 -0.43300
C 	C 	0.02720 0.23292 0.89540 -0.04400
H 	H 	0.29160 0.00480 0.10750 0.07200
C 	C 	0.61920 0.96960 0.20410 -0.03500
C 	C 	0.96710 0.26837 0.91880 -0.02100
C 	C 	0.13090 0.24200 0.87190 -0.11000
H 	H 	0.67500 0.96010 0.17770 0.04600
H 	H 	0.61600 0.94370 0.23200 0.05100
C 	C 	0.67310 0.01250 0.23870 0.04100
H 	H 	0.89700 0.26180 0.93570 0.06700
C 	C 	0.01040 0.31364 0.91730 -0.04200
C 	C 	0.17440 0.28730 0.87200 0.16000
H 	H 	0.17170 0.21750 0.85580 0.08800
H 	H 	0.68920 0.03660 0.21060 0.00300
H 	H 	0.75420 0.00420 0.26460 0.01900
C 	C 	0.58770 0.03310 0.27670 -0.42400
C 	C 	0.94680 0.35337 0.94200 0.33600
C 	C 	0.11290 0.32328 0.89330 -0.12100
O 	O 	0.28050 0.29302 0.84930 -0.21700
H 	H 	0.62770 0.06050 0.29780 0.14000
H 	H 	0.50780 0.04210 0.25130 0.15500
H 	H 	0.57290 0.00970 0.30540 0.15600
H 	H 	0.14100 0.35450 0.89160 0.08000
C 	C 	0.34990 0.34180 0.86340 0.07400
H 	H 	0.30160 0.36640 0.83870 0.05000
H 	H 	0.35550 0.35000 0.90540 0.02600
C 	C 	0.47970 0.33910 0.85090 0.01200
C 	C 	0.57440 0.31510 0.90210 -0.38100
H 	H 	0.50940 0.37090 0.84490 0.00800
H 	H 	0.47630 0.32140 0.81390 0.01100
H 	H 	0.65710 0.31410 0.89220 0.23700
H 	H 	0.57940 0.33280 0.93870 0.16600
H 	H 	0.54640 0.28330 0.90760 0.22800
O 	O 	0.20200 0.18084 0.56026 -0.44300
H 	H 	0.20000 0.20860 0.54200 0.21500
O 	O 	0.88970 0.07424 0.94517 -0.69400
H 	H 	0.84000 0.04940 0.92040 0.15800
O 	O 	0.67520 0.10123 0.85830 -0.42600
H 	H 	0.67400 0.10800 0.82050 0.20600
O 	O 	0.63210 0.18460 0.92540 -0.15000
C 	C 	0.12540 0.32350 0.71530 -1.16600
H 	H 	0.21650 0.32590 0.72790 0.35400
H 	H 	0.08630 0.33510 0.74690 0.34800
H 	H 	0.10200 0.29090 0.70690 0.36900
C 	C 	0.40040 0.33260 0.79490 0.05700
H 	H 	0.36800 0.31600 0.75730 -0.02400
H 	H 	0.47220 0.31480 0.81770 0.00800
C 	C 	0.30060 0.33630 0.82960 -0.07600
H 	H 	0.32700 0.35770 0.86340 -0.04100
H 	H 	0.22280 0.34850 0.80430 0.01600
C 	C 	0.44200 0.38110 0.78220 -0.47200
H 	H 	0.50800 0.37890 0.75940 0.16800
H 	H 	0.37110 0.39850 0.75940 0.14800
H 	H 	0.47490 0.39730 0.81950 0.16500
O 	O 	0.65470 0.28730 0.92240 -0.25700
O 	O 	0.61000 0.17110 0.95100 -0.12700
Co	Co	0.92376 0.45410 0.96274 1.18100
O 	O 	0.73750 0.44877 0.94039 -0.44400
O 	O 	0.94840 0.42529 0.04514 -0.72200
O 	O 	0.11380 0.48001 0.97968 -0.50900
O 	O 	0.08860 0.50445 0.11029 -0.46400
O 	O 	0.48160 0.10622 0.43142 -0.43800
C 	C 	0.65470 0.43475 0.96650 0.36200
Co	Co	0.82822 0.37025 0.04867 1.16400
C 	C 	0.52630 0.45558 0.94563 -0.05600
O 	O 	0.66980 0.40669 0.00897 -0.42700
C 	C 	0.42890 0.44315 0.97220 -0.00300
C 	C 	0.51080 0.49107 0.90280 -0.10400
H 	H 	0.44000 0.41910 0.00110 0.06100
C 	C 	0.31420 0.46620 0.95630 -0.06600
C 	C 	0.39650 0.51350 0.88730 0.15200
H 	H 	0.57790 0.49960 0.88480 0.07900
C 	C 	0.21360 0.45585 0.98920 0.35700
C 	C 	0.29740 0.50079 0.91330 -0.09200
O 	O 	0.37380 0.55086 0.84920 -0.22300
O 	O 	0.23730 0.42376 0.02706 -0.45000
H 	H 	0.21860 0.51570 0.90160 0.05300
C 	C 	0.47890 0.57227 0.83080 -0.03100
Co	Co	0.12309 0.41012 0.07905 1.17100
H 	H 	0.54690 0.57840 0.86560 0.04700
H 	H 	0.51140 0.55120 0.80360 0.05000
C 	C 	0.43510 0.61730 0.79990 0.04300
O 	O 	0.16260 0.34445 0.08811 -0.45800
O 	O 	0.18350 0.44198 0.15517 -0.44800
H 	H 	0.36590 0.61080 0.76570 0.02100
H 	H 	0.40250 0.63800 0.82740 0.02200
C 	C 	0.54020 0.64200 0.77850 -0.43200
H 	H 	0.92480 0.45010 0.07110 0.14900
C 	C 	0.16420 0.48613 0.15220 0.34500
C 	C 	0.08010 0.31454 0.09150 0.35400
H 	H 	0.50860 0.67110 0.75860 0.14700
H 	H 	0.57160 0.62180 0.75070 0.15300
H 	H 	0.60810 0.64900 0.81230 0.15300
O 	O 	0.96890 0.32316 0.09363 -0.44200
O 	O 	0.36710 0.15703 0.47160 -0.42500
C 	C 	0.23350 0.51406 0.20280 -0.06900
C 	C 	0.12000 0.26440 0.09290 -0.06000
C 	C 	0.31420 0.49171 0.24800 0.00300
C 	C 	0.21670 0.56264 0.20410 -0.10600
C 	C 	0.03100 0.23018 0.07430 -0.00600
C 	C 	0.24570 0.25304 0.11040 -0.08600
Co	Co	0.44070 0.45497 0.52873 1.19000
Co	Co	0.26789 0.37030 0.44079 1.19400
H 	H 	0.32440 0.45890 0.24680 0.04600
C 	C 	0.38040 0.51703 0.29540 -0.07000
C 	C 	0.28010 0.58751 0.25320 0.14600
H 	H 	0.16340 0.57820 0.17210 0.07000
H 	H 	0.94510 0.23820 0.06220 0.04900
C 	C 	0.06870 0.18427 0.07350 -0.05400
C 	C 	0.28140 0.20640 0.11030 0.13500
H 	H 	0.30660 0.27670 0.12240 0.07200
O 	O 	0.27150 0.44830 0.54755 -0.43500
O 	O 	0.14320 0.40681 0.47763 -0.40200
C 	C 	0.46540 0.49130 0.34430 0.35800
C 	C 	0.36230 0.56473 0.29930 -0.10400
O 	O 	0.26910 0.63448 0.26055 -0.22700
C 	C 	0.97710 0.14655 0.04990 0.33000
C 	C 	0.19340 0.17202 0.09240 -0.08900
O 	O 	0.40750 0.19789 0.12760 -0.14500
C 	C 	0.16540 0.43330 0.52130 0.34500
O 	O 	0.48790 0.44850 0.33346 -0.45400
O 	O 	0.50830 0.51003 0.39193 -0.46500
H 	H 	0.40490 0.58170 0.33280 0.08100
C 	C 	0.19070 0.65963 0.21330 -0.01900
O 	O 	0.86880 0.15764 0.02171 -0.41100
O 	O 	0.01930 0.10551 0.05846 -0.43500
H 	H 	0.21790 0.14020 0.09300 0.08100
C 	C 	0.44640 0.15010 0.13990 -0.45300
C 	C 	0.05740 0.45093 0.54610 -0.05500
O 	O 	0.62030 0.47813 0.51553 -0.53500
Co	Co	0.53290 0.41413 0.40759 1.17400
H 	H 	0.22450 0.65760 0.17690 0.03800
H 	H 	0.10510 0.64650 0.20480 0.02700
C 	C 	0.18840 0.71040 0.23330 0.04400
H 	H 	0.40130 0.13620 0.16850 0.16100
H 	H 	0.42770 0.13150 0.10310 0.16400
C 	C 	0.58560 0.15030 0.16540 0.77500
C 	C 	0.93600 0.44220 0.51600 -0.00700
C 	C 	0.08150 0.47774 0.59730 -0.11500
O 	O 	0.69260 0.42418 0.46250 -0.45900
O 	O 	0.56120 0.34811 0.39472 -0.44600
H 	H 	0.15850 0.71150 0.27080 0.02200
H 	H 	0.12810 0.72800 0.20330 0.01400
C 	C 	0.31430 0.73370 0.24250 -0.43200
C 	C 	0.66860 0.16630 0.13430 -1.21100
C 	C 	0.83740 0.46010 0.53780 -0.07300
H 	H 	0.92070 0.42420 0.48080 0.06600
C 	C 	0.98360 0.49460 0.61950 0.15600
H 	H 	0.16510 0.48430 0.61680 0.08100
C 	C 	0.70710 0.45355 0.50300 0.38200
C 	C 	0.48120 0.31648 0.39740 0.34900
H 	H 	0.30720 0.76600 0.25520 0.15100
H 	H 	0.34370 0.73350 0.20530 0.15900
H 	H 	0.37400 0.71690 0.27290 0.16300
H 	H 	0.75350 0.16350 0.15830 0.36000
H 	H 	0.65070 0.19910 0.12400 0.38400
H 	H 	0.66170 0.14790 0.09810 0.37400
C 	C 	0.85930 0.48500 0.59100 -0.09000
O 	O 	0.99470 0.52233 0.66900 -0.19800
O 	O 	0.37140 0.32297 0.40177 -0.43200
C 	C 	0.52720 0.26708 0.39540 -0.03900
H 	H 	0.79160 0.49520 0.60750 0.07200
C 	C 	0.11920 0.53040 0.70410 -0.03500
C 	C 	0.46710 0.23163 0.41880 -0.02700
C 	C 	0.63090 0.25800 0.37190 -0.11300
H 	H 	0.17500 0.53990 0.67770 0.04600
H 	H 	0.11600 0.55630 0.73200 0.05100
C 	C 	0.17310 0.48750 0.73870 0.04100
H 	H 	0.39700 0.23820 0.43570 0.06900
C 	C 	0.51040 0.18636 0.41730 -0.03700
C 	C 	0.67440 0.21270 0.37200 0.16200
H 	H 	0.67170 0.28250 0.35580 0.08900
H 	H 	0.18920 0.46340 0.71060 0.00300
H 	H 	0.25420 0.49580 0.76460 0.01900
C 	C 	0.08770 0.46690 0.77670 -0.42400
C 	C 	0.44680 0.14663 0.44200 0.33400
C 	C 	0.61290 0.17672 0.39330 -0.12400
O 	O 	0.78050 0.20698 0.34930 -0.21800
H 	H 	0.12770 0.43950 0.79780 0.14000
H 	H 	0.00780 0.45790 0.75130 0.15500
H 	H 	0.07290 0.49030 0.80540 0.15600
H 	H 	0.64100 0.14550 0.39160 0.08200
C 	C 	0.84990 0.15820 0.36340 0.07400
H 	H 	0.80160 0.13360 0.33870 0.05000
H 	H 	0.85550 0.15000 0.40540 0.02600
C 	C 	0.97970 0.16090 0.35090 0.01100
C 	C 	0.07440 0.18490 0.40210 -0.38000
H 	H 	0.00940 0.12910 0.34490 0.00800
H 	H 	0.97630 0.17860 0.31390 0.01100
H 	H 	0.15710 0.18590 0.39220 0.23700
H 	H 	0.07940 0.16720 0.43870 0.16600
H 	H 	0.04640 0.21670 0.40760 0.22700
O 	O 	0.70200 0.31916 0.06026 -0.44300
H 	H 	0.70000 0.29140 0.04200 0.21500
O 	O 	0.38970 0.42576 0.44517 -0.69500
H 	H 	0.34000 0.45060 0.42040 0.15800
O 	O 	0.17520 0.39877 0.35830 -0.42600
H 	H 	0.17400 0.39200 0.32050 0.20600
O 	O 	0.13210 0.31540 0.42540 -0.15000
C 	C 	0.62540 0.17650 0.21530 -1.16800
H 	H 	0.71650 0.17410 0.22790 0.35500
H 	H 	0.58630 0.16490 0.24690 0.34900
H 	H 	0.60200 0.20910 0.20690 0.36900
C 	C 	0.90040 0.16740 0.29490 0.05800
H 	H 	0.86800 0.18400 0.25730 -0.02400
H 	H 	0.97220 0.18520 0.31770 0.00800
C 	C 	0.80060 0.16370 0.32960 -0.07600
H 	H 	0.82700 0.14230 0.36340 -0.04100
H 	H 	0.72280 0.15150 0.30430 0.01600
C 	C 	0.94200 0.11890 0.28220 -0.47300
H 	H 	0.00800 0.12110 0.25940 0.16900
H 	H 	0.87110 0.10150 0.25940 0.14800
H 	H 	0.97490 0.10270 0.31950 0.16500
O 	O 	0.15470 0.21270 0.42240 -0.25700
O 	O 	0.11000 0.32890 0.45100 -0.12700
Co	Co	0.57624 0.95410 0.53726 1.18100
O 	O 	0.76250 0.94877 0.55961 -0.44400
O 	O 	0.55160 0.92529 0.45486 -0.72200
O 	O 	0.38620 0.98001 0.52032 -0.50900
O 	O 	0.41140 0.00445 0.38971 -0.46400
O 	O 	0.01840 0.60622 0.06858 -0.43800
C 	C 	0.84530 0.93475 0.53350 0.36200
Co	Co	0.67178 0.87025 0.45133 1.16400
C 	C 	0.97370 0.95558 0.55437 -0.05600
O 	O 	0.83020 0.90669 0.49103 -0.42600
C 	C 	0.07110 0.94315 0.52780 -0.00300
C 	C 	0.98920 0.99107 0.59720 -0.10400
H 	H 	0.06000 0.91910 0.49890 0.06100
C 	C 	0.18580 0.96620 0.54370 -0.06600
C 	C 	0.10350 0.01350 0.61270 0.15200
H 	H 	0.92210 0.99960 0.61520 0.07900
C 	C 	0.28640 0.95585 0.51080 0.35700
C 	C 	0.20260 0.00079 0.58670 -0.09100
O 	O 	0.12620 0.05086 0.65080 -0.22200
O 	O 	0.26270 0.92376 0.47294 -0.45100
H 	H 	0.28140 0.01570 0.59840 0.05200
C 	C 	0.02110 0.07227 0.66920 -0.03200
Co	Co	0.37691 0.91012 0.42095 1.17100
H 	H 	0.95310 0.07840 0.63440 0.04800
H 	H 	0.98860 0.05120 0.69640 0.05000
C 	C 	0.06490 0.11730 0.70010 0.04300
O 	O 	0.33740 0.84445 0.41189 -0.45800
O 	O 	0.31650 0.94198 0.34483 -0.44800
H 	H 	0.13410 0.11080 0.73430 0.02100
H 	H 	0.09750 0.13800 0.67260 0.02200
C 	C 	0.95980 0.14200 0.72150 -0.43100
H 	H 	0.57520 0.95010 0.42890 0.14900
C 	C 	0.33580 0.98613 0.34780 0.34500
C 	C 	0.41990 0.81454 0.40850 0.35300
H 	H 	0.99140 0.17110 0.74140 0.14700
H 	H 	0.92840 0.12180 0.74930 0.15300
H 	H 	0.89190 0.14900 0.68770 0.15200
O 	O 	0.53110 0.82316 0.40637 -0.44200
O 	O 	0.13290 0.65703 0.02840 -0.42500
C 	C 	0.26650 0.01406 0.29720 -0.06900
C 	C 	0.38000 0.76440 0.40710 -0.06000
C 	C 	0.18580 0.99171 0.25200 0.00300
C 	C 	0.28330 0.06264 0.29590 -0.10600
C 	C 	0.46900 0.73018 0.42570 -0.00600
C 	C 	0.25430 0.75304 0.38960 -0.08600
Co	Co	0.05930 0.95497 0.97127 1.19000
Co	Co	0.23211 0.87030 0.05921 1.19400
H 	H 	0.17560 0.95890 0.25320 0.04600
C 	C 	0.11960 0.01703 0.20460 -0.06900
C 	C 	0.21990 0.08751 0.24680 0.14600
H 	H 	0.33660 0.07820 0.32790 0.07000
H 	H 	0.55490 0.73820 0.43780 0.04900
C 	C 	0.43130 0.68427 0.42650 -0.05500
C 	C 	0.21860 0.70640 0.38970 0.13500
H 	H 	0.19340 0.77670 0.37760 0.07300
O 	O 	0.22850 0.94830 0.95245 -0.43500
O 	O 	0.35680 0.90681 0.02237 -0.40200
C 	C 	0.03460 0.99130 0.15570 0.35900
C 	C 	0.13770 0.06473 0.20070 -0.10400
O 	O 	0.23090 0.13448 0.23945 -0.22700
C 	C 	0.52290 0.64655 0.45010 0.33100
C 	C 	0.30660 0.67202 0.40760 -0.08900
O 	O 	0.09250 0.69789 0.37240 -0.14500
C 	C 	0.33460 0.93330 0.97870 0.34400
O 	O 	0.01210 0.94850 0.16654 -0.45300
O 	O 	0.99170 0.01003 0.10807 -0.46600
H 	H 	0.09510 0.08170 0.16720 0.08100
C 	C 	0.30930 0.15963 0.28670 -0.01900
O 	O 	0.63120 0.65764 0.47829 -0.41100
O 	O 	0.48070 0.60551 0.44154 -0.43600
H 	H 	0.28210 0.64020 0.40700 0.08100
C 	C 	0.05360 0.65010 0.36010 -0.45100
C 	C 	0.44260 0.95093 0.95390 -0.05400
O 	O 	0.87970 0.97813 0.98447 -0.53400
Co	Co	0.96710 0.91413 0.09241 1.17400
H 	H 	0.27550 0.15760 0.32310 0.03800
H 	H 	0.39490 0.14650 0.29520 0.02600
C 	C 	0.31160 0.21040 0.26670 0.04400
H 	H 	0.09870 0.63620 0.33150 0.16100
H 	H 	0.07230 0.63150 0.39690 0.16400
C 	C 	0.91440 0.65030 0.33460 0.77300
C 	C 	0.56400 0.94220 0.98400 -0.00700
C 	C 	0.41850 0.97774 0.90270 -0.11500
O 	O 	0.80740 0.92418 0.03750 -0.46000
O 	O 	0.93880 0.84811 0.10528 -0.44700
H 	H 	0.34150 0.21150 0.22920 0.02100
H 	H 	0.37190 0.22800 0.29670 0.01400
C 	C 	0.18570 0.23370 0.25750 -0.43200
C 	C 	0.83140 0.66630 0.36570 -1.20900
C 	C 	0.66260 0.96010 0.96220 -0.07400
H 	H 	0.57930 0.92420 0.01920 0.06600
C 	C 	0.51640 0.99460 0.88050 0.15500
H 	H 	0.33490 0.98430 0.88320 0.08100
C 	C 	0.79290 0.95355 0.99700 0.38300
C 	C 	0.01880 0.81648 0.10260 0.35200
H 	H 	0.19280 0.26600 0.24480 0.15100
H 	H 	0.15630 0.23350 0.29470 0.15900
H 	H 	0.12600 0.21690 0.22710 0.16300
H 	H 	0.74650 0.66350 0.34170 0.36000
H 	H 	0.84930 0.69910 0.37600 0.38300
H 	H 	0.83830 0.64790 0.40190 0.37400
C 	C 	0.64070 0.98500 0.90900 -0.09000
O 	O 	0.50530 0.02233 0.83100 -0.19800
O 	O 	0.12860 0.82297 0.09823 -0.43300
C 	C 	0.97280 0.76708 0.10460 -0.04400
H 	H 	0.70840 0.99520 0.89250 0.07200
C 	C 	0.38080 0.03040 0.79590 -0.03500
C 	C 	0.03290 0.73163 0.08120 -0.02100
C 	C 	0.86910 0.75800 0.12810 -0.11000
H 	H 	0.32500 0.03990 0.82230 0.04600
H 	H 	0.38400 0.05630 0.76800 0.05100
C 	C 	0.32690 0.98750 0.76130 0.04100
H 	H 	0.10300 0.73820 0.06430 0.06700
C 	C 	0.98960 0.68636 0.08270 -0.04200
C 	C 	0.82560 0.71270 0.12800 0.16000
H 	H 	0.82830 0.78250 0.14420 0.08800
H 	H 	0.31080 0.96340 0.78940 0.00300
H 	H 	0.24580 0.99580 0.73540 0.01900
C 	C 	0.41230 0.96690 0.72330 -0.42400
C 	C 	0.05320 0.64663 0.05800 0.33600
C 	C 	0.88710 0.67672 0.10670 -0.12100
O 	O 	0.71950 0.70698 0.15070 -0.21700
H 	H 	0.37230 0.93950 0.70220 0.14000
H 	H 	0.49220 0.95790 0.74870 0.15500
H 	H 	0.42710 0.99030 0.69460 0.15600
H 	H 	0.85900 0.64550 0.10840 0.08000
C 	C 	0.65010 0.65820 0.13660 0.07400
H 	H 	0.69840 0.63360 0.16130 0.05000
H 	H 	0.64450 0.65000 0.09460 0.02600
C 	C 	0.52030 0.66090 0.14910 0.01200
C 	C 	0.42560 0.68490 0.09790 -0.38100
H 	H 	0.49060 0.62910 0.15510 0.00800
H 	H 	0.52370 0.67860 0.18610 0.01100
H 	H 	0.34290 0.68590 0.10780 0.23700
H 	H 	0.42060 0.66720 0.06130 0.16600
H 	H 	0.45360 0.71670 0.09240 0.22800
O 	O 	0.79800 0.81916 0.43974 -0.44300
H 	H 	0.80000 0.79140 0.45800 0.21500
O 	O 	0.11030 0.92576 0.05483 -0.69400
H 	H 	0.16000 0.95060 0.07960 0.15800
O 	O 	0.32480 0.89877 0.14170 -0.42600
H 	H 	0.32600 0.89200 0.17950 0.20600
O 	O 	0.36790 0.81540 0.07460 -0.15000
C 	C 	0.87460 0.67650 0.28470 -1.16600
H 	H 	0.78350 0.67410 0.27210 0.35400
H 	H 	0.91370 0.66490 0.25310 0.34800
H 	H 	0.89800 0.70910 0.29310 0.36900
C 	C 	0.59960 0.66740 0.20510 0.05700
H 	H 	0.63200 0.68400 0.24270 -0.02400
H 	H 	0.52780 0.68520 0.18230 0.00800
C 	C 	0.69940 0.66370 0.17040 -0.07600
H 	H 	0.67300 0.64230 0.13660 -0.04100
H 	H 	0.77720 0.65150 0.19570 0.01600
C 	C 	0.55800 0.61890 0.21780 -0.47200
H 	H 	0.49200 0.62110 0.24060 0.16800
H 	H 	0.62890 0.60150 0.24060 0.14800
H 	H 	0.52510 0.60270 0.18050 0.16500
O 	O 	0.34530 0.71270 0.07760 -0.25700
O 	O 	0.39000 0.82890 0.04900 -0.12700
