data_crystal

_cell_length_a 27.77900
_cell_length_b 27.77900
_cell_length_c 17.80700
_cell_angle_alpha 90.00000
_cell_angle_beta  90.00000
_cell_angle_gamma 120.00000

_symmetry_space_group_name_	'P 1'
_symmetry_space_group_name_H-M	'P 1'

loop_
_symmetry_equiv_pos_as_xyz
  x,y,z

loop_
_atom_site_label
_atom_site_type_symbol
_atom_site_fract_x
_atom_site_fract_y
_atom_site_fract_z
_atom_site_charge
C 	C 	0.27740 0.06650 0.05620 0.36100
C 	C 	0.26470 0.09300 0.12010 -0.05600
C 	C 	0.26890 0.14460 0.11030 0.00200
H 	H 	0.27710 0.16180 0.06230 0.06000
C 	C 	0.26102 0.17068 0.17130 -0.05500
C 	C 	0.27030 0.22800 0.16200 0.35800
C 	C 	0.24781 0.14565 0.24220 -0.09600
H 	H 	0.24360 0.16430 0.28420 0.07700
C 	C 	0.24100 0.09280 0.24940 0.16000
C 	C 	0.25040 0.06680 0.18950 -0.09800
H 	H 	0.24710 0.03130 0.19580 0.08000
C 	C 	0.20670 0.08290 0.37720 -0.02600
H 	H 	0.17750 0.09080 0.35970 0.04300
H 	H 	0.23780 0.11740 0.39830 0.04200
C 	C 	0.18370 0.03800 0.43530 0.04100
H 	H 	0.21390 0.03230 0.45460 0.02200
H 	H 	0.15530 0.00280 0.41190 0.02300
C 	C 	0.15770 0.05220 0.50000 -0.43000
H 	H 	0.18350 0.09000 0.51750 0.15400
H 	H 	0.14980 0.02580 0.54120 0.14900
H 	H 	0.12310 0.04990 0.48330 0.14300
C 	C 	0.29960 0.93450 0.24490 0.36800
C 	C 	0.25970 0.87760 0.26950 -0.07100
C 	C 	0.20950 0.84600 0.23210 0.00300
H 	H 	0.20100 0.86060 0.18910 0.05100
C 	C 	0.17190 0.79290 0.25820 -0.06300
C 	C 	0.11680 0.75910 0.22060 0.38200
C 	C 	0.18430 0.77130 0.32090 -0.11400
H 	H 	0.15810 0.73540 0.33910 0.08900
C 	C 	0.23450 0.80190 0.35660 0.17300
C 	C 	0.27200 0.85520 0.33150 -0.10800
H 	H 	0.30640 0.87650 0.35700 0.09100
C 	C 	0.21100 0.73960 0.46190 0.09200
Co	Co	0.41122 0.02587 0.25041 1.17800
Co	Co	0.32909 0.99485 0.08717 1.16000
O 	O 	0.27394 0.02003 0.06580 -0.46600
O 	O 	0.29025 0.09176 0.99447 -0.43100
O 	O 	0.28115 0.25807 0.21862 -0.45700
O 	O 	0.26564 0.24293 0.09592 -0.45400
O 	O 	0.22588 0.06306 0.31570 -0.21800
O 	O 	0.29137 0.95246 0.18450 -0.46000
O 	O 	0.34175 0.96315 0.28710 -0.51000
O 	O 	0.08247 0.71471 0.25210 -0.46800
O 	O 	0.10870 0.77753 0.16010 -0.46500
O 	O 	0.25095 0.78392 0.41810 -0.23200
C 	C 	0.24080 0.72580 0.52270 -0.02200
C 	C 	0.20590 0.70900 0.59890 0.00700
C 	C 	0.24380 0.75430 0.54510 0.01400
C 	C 	0.94407 0.39983 0.38953 0.35900
C 	C 	0.93137 0.42633 0.45343 -0.05700
C 	C 	0.93557 0.47793 0.44363 0.00100
H 	H 	0.94377 0.49513 0.39563 0.05900
C 	C 	0.92769 0.50401 0.50463 -0.05600
C 	C 	0.93697 0.56133 0.49533 0.35700
C 	C 	0.91448 0.47898 0.57553 -0.09800
H 	H 	0.91027 0.49763 0.61753 0.07600
C 	C 	0.90767 0.42613 0.58273 0.15900
C 	C 	0.91707 0.40013 0.52283 -0.10000
H 	H 	0.91377 0.36463 0.52913 0.07900
C 	C 	0.87337 0.41623 0.71053 -0.02700
H 	H 	0.84417 0.42413 0.69303 0.04100
H 	H 	0.90447 0.45073 0.73163 0.04100
C 	C 	0.85037 0.37133 0.76863 0.04000
H 	H 	0.88057 0.36563 0.78793 0.02100
H 	H 	0.82197 0.33613 0.74523 0.02200
C 	C 	0.82437 0.38553 0.83333 -0.43100
H 	H 	0.85017 0.42333 0.85083 0.15300
H 	H 	0.81647 0.35913 0.87453 0.14700
H 	H 	0.78977 0.38323 0.81663 0.14200
C 	C 	0.96627 0.26783 0.57823 0.36600
C 	C 	0.92637 0.21093 0.60283 -0.07200
C 	C 	0.87617 0.17933 0.56543 0.00200
H 	H 	0.86767 0.19393 0.52243 0.05100
C 	C 	0.83857 0.12623 0.59153 -0.06300
C 	C 	0.78347 0.09243 0.55393 0.38200
C 	C 	0.85097 0.10463 0.65423 -0.11400
H 	H 	0.82477 0.06873 0.67243 0.08900
C 	C 	0.90117 0.13523 0.68993 0.17300
C 	C 	0.93867 0.18853 0.66483 -0.10800
H 	H 	0.97307 0.20983 0.69033 0.09100
C 	C 	0.87767 0.07293 0.79523 0.09200
Co	Co	0.07789 0.35920 0.58374 1.17800
Co	Co	0.99576 0.32818 0.42050 1.16100
O 	O 	0.94061 0.35336 0.39913 -0.46600
O 	O 	0.95692 0.42509 0.32780 -0.43000
O 	O 	0.94782 0.59140 0.55195 -0.45700
O 	O 	0.93231 0.57626 0.42925 -0.45400
O 	O 	0.89255 0.39639 0.64903 -0.21800
O 	O 	0.95804 0.28579 0.51783 -0.45900
O 	O 	0.00842 0.29648 0.62043 -0.50900
O 	O 	0.74914 0.04804 0.58543 -0.46800
O 	O 	0.77537 0.11086 0.49343 -0.46400
O 	O 	0.91762 0.11725 0.75143 -0.23200
C 	C 	0.90747 0.05913 0.85603 -0.02200
C 	C 	0.87257 0.04233 0.93223 0.00600
C 	C 	0.91047 0.08763 0.87843 0.01300
C 	C 	0.61073 0.73317 0.72287 0.35900
C 	C 	0.59803 0.75967 0.78677 -0.05700
C 	C 	0.60223 0.81127 0.77697 0.00100
H 	H 	0.61043 0.82847 0.72897 0.05900
C 	C 	0.59435 0.83735 0.83797 -0.05600
C 	C 	0.60363 0.89467 0.82867 0.35700
C 	C 	0.58114 0.81232 0.90887 -0.09700
H 	H 	0.57693 0.83097 0.95087 0.07600
C 	C 	0.57433 0.75947 0.91607 0.15900
C 	C 	0.58373 0.73347 0.85617 -0.10000
H 	H 	0.58043 0.69797 0.86247 0.07900
C 	C 	0.54003 0.74957 0.04387 -0.02800
H 	H 	0.51083 0.75747 0.02637 0.04100
H 	H 	0.57113 0.78407 0.06497 0.04100
C 	C 	0.51703 0.70467 0.10197 0.04100
H 	H 	0.54723 0.69897 0.12127 0.02100
H 	H 	0.48863 0.66947 0.07857 0.02100
C 	C 	0.49103 0.71887 0.16667 -0.43100
H 	H 	0.51683 0.75667 0.18417 0.15300
H 	H 	0.48313 0.69247 0.20787 0.14800
H 	H 	0.45643 0.71657 0.14997 0.14200
C 	C 	0.63293 0.60117 0.91157 0.36600
C 	C 	0.59303 0.54427 0.93617 -0.07100
C 	C 	0.54283 0.51267 0.89877 0.00100
H 	H 	0.53433 0.52727 0.85577 0.05100
C 	C 	0.50523 0.45957 0.92487 -0.06200
C 	C 	0.45013 0.42577 0.88727 0.38200
C 	C 	0.51763 0.43797 0.98757 -0.11600
H 	H 	0.49143 0.40207 0.00577 0.09000
C 	C 	0.56783 0.46857 0.02327 0.17500
C 	C 	0.60533 0.52187 0.99817 -0.11100
H 	H 	0.63973 0.54317 0.02367 0.09200
C 	C 	0.54433 0.40627 0.12857 0.09200
Co	Co	0.74455 0.69254 0.91708 1.17800
Co	Co	0.66242 0.66152 0.75384 1.16000
O 	O 	0.60727 0.68670 0.73247 -0.46700
O 	O 	0.62358 0.75843 0.66114 -0.43000
O 	O 	0.61448 0.92474 0.88529 -0.45600
O 	O 	0.59897 0.90960 0.76259 -0.45400
O 	O 	0.55921 0.72973 0.98237 -0.21800
O 	O 	0.62470 0.61913 0.85117 -0.45900
O 	O 	0.67508 0.62982 0.95377 -0.51000
O 	O 	0.41580 0.38138 0.91877 -0.46800
O 	O 	0.44203 0.44420 0.82677 -0.46400
O 	O 	0.58428 0.45059 0.08477 -0.23300
C 	C 	0.57413 0.39247 0.18937 -0.02200
C 	C 	0.53923 0.37567 0.26557 0.00700
C 	C 	0.57713 0.42097 0.21177 0.01400
C 	C 	0.93350 0.21090 0.05620 0.36200
C 	C 	0.90700 0.17170 0.12010 -0.05800
C 	C 	0.85540 0.12430 0.11030 0.00200
H 	H 	0.83820 0.11530 0.06230 0.06000
C 	C 	0.82932 0.09034 0.17130 -0.05600
C 	C 	0.77200 0.04230 0.16200 0.35700
C 	C 	0.85435 0.10216 0.24220 -0.09700
H 	H 	0.83570 0.07930 0.28420 0.07600
C 	C 	0.90720 0.14820 0.24940 0.15900
C 	C 	0.93320 0.18360 0.18950 -0.09900
H 	H 	0.96870 0.21580 0.19580 0.07900
C 	C 	0.91710 0.12380 0.37720 -0.02700
H 	H 	0.90920 0.08670 0.35970 0.04200
H 	H 	0.88260 0.12040 0.39830 0.04100
C 	C 	0.96200 0.14570 0.43530 0.04100
H 	H 	0.96770 0.18160 0.45460 0.02100
H 	H 	0.99720 0.15250 0.41190 0.02200
C 	C 	0.94780 0.10550 0.50000 -0.43200
H 	H 	0.91000 0.09350 0.51750 0.15400
H 	H 	0.97420 0.12400 0.54120 0.14800
H 	H 	0.95010 0.07320 0.48330 0.14300
C 	C 	0.06550 0.36510 0.24490 0.36700
C 	C 	0.12240 0.38210 0.26950 -0.07200
C 	C 	0.15400 0.36350 0.23210 0.00200
H 	H 	0.13940 0.34040 0.18910 0.05100
C 	C 	0.20710 0.37900 0.25820 -0.06300
C 	C 	0.24090 0.35770 0.22060 0.38200
C 	C 	0.22870 0.41300 0.32090 -0.11400
H 	H 	0.26460 0.42270 0.33910 0.08900
C 	C 	0.19810 0.43260 0.35660 0.17300
C 	C 	0.14480 0.41680 0.33150 -0.10800
H 	H 	0.12350 0.42990 0.35700 0.09100
C 	C 	0.26040 0.47140 0.46190 0.09200
Co	Co	0.97413 0.38535 0.25041 1.17800
Co	Co	0.00515 0.33424 0.08717 1.16000
O 	O 	0.97997 0.25391 0.06580 -0.46600
O 	O 	0.90824 0.19849 0.99447 -0.43300
O 	O 	0.74193 0.02308 0.21862 -0.45600
O 	O 	0.75707 0.02271 0.09592 -0.45300
O 	O 	0.93694 0.16282 0.31570 -0.21800
O 	O 	0.04754 0.33891 0.18450 -0.46000
O 	O 	0.03685 0.37860 0.28710 -0.51000
O 	O 	0.28529 0.36776 0.25210 -0.46800
O 	O 	0.22247 0.33117 0.16010 -0.46400
O 	O 	0.21608 0.46703 0.41810 -0.23200
C 	C 	0.27420 0.51500 0.52270 -0.02200
C 	C 	0.29100 0.49690 0.59890 0.00700
C 	C 	0.24570 0.48950 0.54510 0.01400
C 	C 	0.60017 0.54423 0.38953 0.35900
C 	C 	0.57367 0.50503 0.45343 -0.05700
C 	C 	0.52207 0.45763 0.44363 0.00100
H 	H 	0.50487 0.44863 0.39563 0.05900
C 	C 	0.49599 0.42367 0.50463 -0.05600
C 	C 	0.43867 0.37563 0.49533 0.35700
C 	C 	0.52102 0.43549 0.57553 -0.09700
H 	H 	0.50237 0.41263 0.61753 0.07600
C 	C 	0.57387 0.48153 0.58273 0.15900
C 	C 	0.59987 0.51693 0.52283 -0.10000
H 	H 	0.63537 0.54913 0.52913 0.07900
C 	C 	0.58377 0.45713 0.71053 -0.02700
H 	H 	0.57587 0.42003 0.69303 0.04200
H 	H 	0.54927 0.45373 0.73163 0.04100
C 	C 	0.62867 0.47903 0.76863 0.04000
H 	H 	0.63437 0.51493 0.78793 0.02100
H 	H 	0.66387 0.48583 0.74523 0.02200
C 	C 	0.61447 0.43883 0.83333 -0.43100
H 	H 	0.57667 0.42683 0.85083 0.15300
H 	H 	0.64087 0.45733 0.87453 0.14700
H 	H 	0.61677 0.40653 0.81663 0.14200
C 	C 	0.73217 0.69843 0.57823 0.36700
C 	C 	0.78907 0.71543 0.60283 -0.07200
C 	C 	0.82067 0.69683 0.56543 0.00200
H 	H 	0.80607 0.67373 0.52243 0.05100
C 	C 	0.87377 0.71233 0.59153 -0.06300
C 	C 	0.90757 0.69103 0.55393 0.38200
C 	C 	0.89537 0.74633 0.65423 -0.11400
H 	H 	0.93127 0.75603 0.67243 0.08900
C 	C 	0.86477 0.76593 0.68993 0.17300
C 	C 	0.81147 0.75013 0.66483 -0.10800
H 	H 	0.79017 0.76323 0.69033 0.09100
C 	C 	0.92707 0.80473 0.79523 0.09200
Co	Co	0.64080 0.71868 0.58374 1.17800
Co	Co	0.67182 0.66757 0.42050 1.16000
O 	O 	0.64664 0.58724 0.39913 -0.46700
O 	O 	0.57491 0.53182 0.32780 -0.43000
O 	O 	0.40860 0.35641 0.55195 -0.45700
O 	O 	0.42374 0.35604 0.42925 -0.45400
O 	O 	0.60361 0.49615 0.64903 -0.21800
O 	O 	0.71421 0.67224 0.51783 -0.45900
O 	O 	0.70352 0.71193 0.62043 -0.51000
O 	O 	0.95196 0.70109 0.58543 -0.46800
O 	O 	0.88914 0.66450 0.49343 -0.46500
O 	O 	0.88275 0.80036 0.75143 -0.23200
C 	C 	0.94087 0.84833 0.85603 -0.02200
C 	C 	0.95767 0.83023 0.93223 0.00700
C 	C 	0.91237 0.82283 0.87843 0.01400
C 	C 	0.26683 0.87757 0.72287 0.35900
C 	C 	0.24033 0.83837 0.78677 -0.05700
C 	C 	0.18873 0.79097 0.77697 0.00100
H 	H 	0.17153 0.78197 0.72897 0.05900
C 	C 	0.16265 0.75701 0.83797 -0.05600
C 	C 	0.10533 0.70897 0.82867 0.35700
C 	C 	0.18768 0.76883 0.90887 -0.09700
H 	H 	0.16903 0.74597 0.95087 0.07600
C 	C 	0.24053 0.81487 0.91607 0.15900
C 	C 	0.26653 0.85027 0.85617 -0.09900
H 	H 	0.30203 0.88247 0.86247 0.07900
C 	C 	0.25043 0.79047 0.04387 -0.03000
H 	H 	0.24253 0.75337 0.02637 0.04200
H 	H 	0.21593 0.78707 0.06497 0.04200
C 	C 	0.29533 0.81237 0.10197 0.04200
H 	H 	0.30103 0.84827 0.12127 0.02000
H 	H 	0.33053 0.81917 0.07857 0.02100
C 	C 	0.28113 0.77217 0.16667 -0.43300
H 	H 	0.24333 0.76017 0.18417 0.15400
H 	H 	0.30753 0.79067 0.20787 0.14800
H 	H 	0.28343 0.73987 0.14997 0.14200
C 	C 	0.39883 0.03177 0.91157 0.36400
C 	C 	0.45573 0.04877 0.93617 -0.06700
C 	C 	0.48733 0.03017 0.89877 -0.00300
H 	H 	0.47273 0.00707 0.85577 0.05200
C 	C 	0.54043 0.04567 0.92487 -0.05700
C 	C 	0.57423 0.02437 0.88727 0.37800
C 	C 	0.56203 0.07967 0.98757 -0.12500
H 	H 	0.59793 0.08937 0.00577 0.09400
C 	C 	0.53143 0.09927 0.02327 0.18300
C 	C 	0.47813 0.08347 0.99817 -0.11800
H 	H 	0.45683 0.09657 0.02367 0.09500
C 	C 	0.59373 0.13807 0.12857 0.09300
Co	Co	0.30746 0.05202 0.91708 1.17800
Co	Co	0.33848 0.00091 0.75384 1.16000
O 	O 	0.31330 0.92058 0.73247 -0.46600
O 	O 	0.24157 0.86516 0.66114 -0.43000
O 	O 	0.07526 0.68975 0.88529 -0.45600
O 	O 	0.09040 0.68938 0.76259 -0.45400
O 	O 	0.27027 0.82949 0.98237 -0.21600
O 	O 	0.38087 0.00558 0.85117 -0.45900
O 	O 	0.37018 0.04527 0.95377 -0.51000
O 	O 	0.61862 0.03443 0.91877 -0.46800
O 	O 	0.55580 0.99784 0.82677 -0.46200
O 	O 	0.54941 0.13370 0.08477 -0.23400
C 	C 	0.60753 0.18167 0.18937 -0.02200
C 	C 	0.62433 0.16357 0.26557 0.00700
C 	C 	0.57903 0.15617 0.21177 0.01400
C 	C 	0.78910 0.72260 0.05620 0.35900
C 	C 	0.82830 0.73530 0.12010 -0.05700
C 	C 	0.87570 0.73110 0.11030 0.00100
H 	H 	0.88470 0.72290 0.06230 0.05900
C 	C 	0.90966 0.73898 0.17130 -0.05600
C 	C 	0.95770 0.72970 0.16200 0.35700
C 	C 	0.89784 0.75219 0.24220 -0.09700
H 	H 	0.92070 0.75640 0.28420 0.07600
C 	C 	0.85180 0.75900 0.24940 0.15900
C 	C 	0.81640 0.74960 0.18950 -0.09900
H 	H 	0.78420 0.75290 0.19580 0.07900
C 	C 	0.87620 0.79330 0.37720 -0.02700
H 	H 	0.91330 0.82250 0.35970 0.04200
H 	H 	0.87960 0.76220 0.39830 0.04100
C 	C 	0.85430 0.81630 0.43530 0.04000
H 	H 	0.81840 0.78610 0.45460 0.02100
H 	H 	0.84750 0.84470 0.41190 0.02200
C 	C 	0.89450 0.84230 0.50000 -0.43100
H 	H 	0.90650 0.81650 0.51750 0.15300
H 	H 	0.87600 0.85020 0.54120 0.14800
H 	H 	0.92680 0.87690 0.48330 0.14200
C 	C 	0.63490 0.70040 0.24490 0.36700
C 	C 	0.61790 0.74030 0.26950 -0.07200
C 	C 	0.63650 0.79050 0.23210 0.00200
H 	H 	0.65960 0.79900 0.18910 0.05100
C 	C 	0.62100 0.82810 0.25820 -0.06300
C 	C 	0.64230 0.88320 0.22060 0.38200
C 	C 	0.58700 0.81570 0.32090 -0.11400
H 	H 	0.57730 0.84190 0.33910 0.08900
C 	C 	0.56740 0.76550 0.35660 0.17300
C 	C 	0.58320 0.72800 0.33150 -0.10800
H 	H 	0.57010 0.69360 0.35700 0.09100
C 	C 	0.52860 0.78900 0.46190 0.09200
Co	Co	0.61465 0.58878 0.25041 1.17800
Co	Co	0.66576 0.67091 0.08717 1.16000
O 	O 	0.74609 0.72606 0.06580 -0.46700
O 	O 	0.80151 0.70975 0.99447 -0.43100
O 	O 	0.97692 0.71885 0.21862 -0.45600
O 	O 	0.97729 0.73436 0.09592 -0.45400
O 	O 	0.83718 0.77412 0.31570 -0.21800
O 	O 	0.66109 0.70863 0.18450 -0.45900
O 	O 	0.62140 0.65825 0.28710 -0.51000
O 	O 	0.63224 0.91753 0.25210 -0.46800
O 	O 	0.66883 0.89130 0.16010 -0.46500
O 	O 	0.53297 0.74905 0.41810 -0.23200
C 	C 	0.48500 0.75920 0.52270 -0.02200
C 	C 	0.50310 0.79410 0.59890 0.00700
C 	C 	0.51050 0.75620 0.54510 0.01400
C 	C 	0.45577 0.05593 0.38953 0.35900
C 	C 	0.49497 0.06863 0.45343 -0.05700
C 	C 	0.54237 0.06443 0.44363 0.00100
H 	H 	0.55137 0.05623 0.39563 0.05900
C 	C 	0.57633 0.07231 0.50463 -0.05600
C 	C 	0.62437 0.06303 0.49533 0.35700
C 	C 	0.56451 0.08552 0.57553 -0.09800
H 	H 	0.58737 0.08973 0.61753 0.07600
C 	C 	0.51847 0.09233 0.58273 0.15900
C 	C 	0.48307 0.08293 0.52283 -0.10000
H 	H 	0.45087 0.08623 0.52913 0.07900
C 	C 	0.54287 0.12663 0.71053 -0.02700
H 	H 	0.57997 0.15583 0.69303 0.04100
H 	H 	0.54627 0.09553 0.73163 0.04100
C 	C 	0.52097 0.14963 0.76863 0.04000
H 	H 	0.48507 0.11943 0.78793 0.02100
H 	H 	0.51417 0.17803 0.74523 0.02200
C 	C 	0.56117 0.17563 0.83333 -0.43100
H 	H 	0.57317 0.14983 0.85083 0.15300
H 	H 	0.54267 0.18353 0.87453 0.14700
H 	H 	0.59347 0.21023 0.81663 0.14200
C 	C 	0.30157 0.03373 0.57823 0.36600
C 	C 	0.28457 0.07363 0.60283 -0.07200
C 	C 	0.30317 0.12383 0.56543 0.00200
H 	H 	0.32627 0.13233 0.52243 0.05100
C 	C 	0.28767 0.16143 0.59153 -0.06300
C 	C 	0.30897 0.21653 0.55393 0.38200
C 	C 	0.25367 0.14903 0.65423 -0.11400
H 	H 	0.24397 0.17523 0.67243 0.08900
C 	C 	0.23407 0.09883 0.68993 0.17400
C 	C 	0.24987 0.06133 0.66483 -0.10800
H 	H 	0.23677 0.02693 0.69033 0.09100
C 	C 	0.19527 0.12233 0.79523 0.09200
Co	Co	0.28132 0.92211 0.58374 1.17800
Co	Co	0.33243 0.00424 0.42050 1.16100
O 	O 	0.41276 0.05939 0.39913 -0.46600
O 	O 	0.46818 0.04308 0.32780 -0.43000
O 	O 	0.64359 0.05218 0.55195 -0.45700
O 	O 	0.64396 0.06769 0.42925 -0.45400
O 	O 	0.50385 0.10745 0.64903 -0.21800
O 	O 	0.32776 0.04196 0.51783 -0.45900
O 	O 	0.28807 0.99158 0.62043 -0.50900
O 	O 	0.29891 0.25086 0.58543 -0.46800
O 	O 	0.33550 0.22463 0.49343 -0.46400
O 	O 	0.19964 0.08238 0.75143 -0.23200
C 	C 	0.15167 0.09253 0.85603 -0.02100
C 	C 	0.16977 0.12743 0.93223 0.00700
C 	C 	0.17717 0.08953 0.87843 0.01300
C 	C 	0.12243 0.38927 0.72287 0.35900
C 	C 	0.16163 0.40197 0.78677 -0.05700
C 	C 	0.20903 0.39777 0.77697 0.00100
H 	H 	0.21803 0.38957 0.72897 0.05900
C 	C 	0.24299 0.40565 0.83797 -0.05600
C 	C 	0.29103 0.39637 0.82867 0.35700
C 	C 	0.23117 0.41886 0.90887 -0.09700
H 	H 	0.25403 0.42307 0.95087 0.07600
C 	C 	0.18513 0.42567 0.91607 0.15900
C 	C 	0.14973 0.41627 0.85617 -0.09900
H 	H 	0.11753 0.41957 0.86247 0.07900
C 	C 	0.20953 0.45997 0.04387 -0.02900
H 	H 	0.24663 0.48917 0.02637 0.04200
H 	H 	0.21293 0.42887 0.06497 0.04100
C 	C 	0.18763 0.48297 0.10197 0.04100
H 	H 	0.15173 0.45277 0.12127 0.02000
H 	H 	0.18083 0.51137 0.07857 0.02100
C 	C 	0.22783 0.50897 0.16667 -0.43200
H 	H 	0.23983 0.48317 0.18417 0.15300
H 	H 	0.20933 0.51687 0.20787 0.14800
H 	H 	0.26013 0.54357 0.14997 0.14200
C 	C 	0.96823 0.36707 0.91157 0.36400
C 	C 	0.95123 0.40697 0.93617 -0.06600
C 	C 	0.96983 0.45717 0.89877 -0.00300
H 	H 	0.99293 0.46567 0.85577 0.05200
C 	C 	0.95433 0.49477 0.92487 -0.05700
C 	C 	0.97563 0.54987 0.88727 0.37800
C 	C 	0.92033 0.48237 0.98757 -0.12500
H 	H 	0.91063 0.50857 0.00577 0.09400
C 	C 	0.90073 0.43217 0.02327 0.18400
C 	C 	0.91653 0.39467 0.99817 -0.12000
H 	H 	0.90343 0.36027 0.02367 0.09600
C 	C 	0.86193 0.45567 0.12857 0.09300
Co	Co	0.94798 0.25545 0.91708 1.17700
Co	Co	0.99909 0.33758 0.75384 1.16000
O 	O 	0.07942 0.39273 0.73247 -0.46600
O 	O 	0.13484 0.37642 0.66114 -0.43000
O 	O 	0.31025 0.38552 0.88529 -0.45700
O 	O 	0.31062 0.40103 0.76259 -0.45400
O 	O 	0.17051 0.44079 0.98237 -0.21700
O 	O 	0.99442 0.37530 0.85117 -0.45900
O 	O 	0.95473 0.32492 0.95377 -0.51000
O 	O 	0.96557 0.58420 0.91877 -0.46800
O 	O 	0.00216 0.55797 0.82677 -0.46200
O 	O 	0.86630 0.41572 0.08477 -0.23400
C 	C 	0.81833 0.42587 0.18937 -0.02200
C 	C 	0.83643 0.46077 0.26557 0.00700
C 	C 	0.84383 0.42287 0.21177 0.01400
C 	C 	0.72260 0.93350 0.94380 0.36000
C 	C 	0.73530 0.90700 0.87990 -0.05700
C 	C 	0.73110 0.85540 0.88970 0.00100
H 	H 	0.72290 0.83820 0.93770 0.05900
C 	C 	0.73898 0.82932 0.82870 -0.05600
C 	C 	0.72970 0.77200 0.83800 0.35700
C 	C 	0.75219 0.85435 0.75780 -0.09700
H 	H 	0.75640 0.83570 0.71580 0.07600
C 	C 	0.75900 0.90720 0.75060 0.15900
C 	C 	0.74960 0.93320 0.81050 -0.09900
H 	H 	0.75290 0.96870 0.80420 0.07900
C 	C 	0.79330 0.91710 0.62280 -0.02700
H 	H 	0.82250 0.90920 0.64030 0.04200
H 	H 	0.76220 0.88260 0.60170 0.04100
C 	C 	0.81630 0.96200 0.56470 0.04000
H 	H 	0.78610 0.96770 0.54540 0.02100
H 	H 	0.84470 0.99720 0.58810 0.02200
C 	C 	0.84230 0.94780 0.50000 -0.43100
H 	H 	0.81650 0.91000 0.48250 0.15300
H 	H 	0.85020 0.97420 0.45880 0.14800
H 	H 	0.87690 0.95010 0.51670 0.14200
C 	C 	0.70040 0.06550 0.75510 0.36700
C 	C 	0.74030 0.12240 0.73050 -0.07200
C 	C 	0.79050 0.15400 0.76790 0.00200
H 	H 	0.79900 0.13940 0.81090 0.05100
C 	C 	0.82810 0.20710 0.74180 -0.06300
C 	C 	0.88320 0.24090 0.77940 0.38200
C 	C 	0.81570 0.22870 0.67910 -0.11400
H 	H 	0.84190 0.26460 0.66090 0.08900
C 	C 	0.76550 0.19810 0.64340 0.17300
C 	C 	0.72800 0.14480 0.66850 -0.10800
H 	H 	0.69360 0.12350 0.64300 0.09100
C 	C 	0.78900 0.26040 0.53810 0.09200
Co	Co	0.58878 0.97413 0.74959 1.17800
Co	Co	0.67091 0.00515 0.91283 1.16000
O 	O 	0.72606 0.97997 0.93420 -0.46600
O 	O 	0.70975 0.90824 0.00553 -0.43100
O 	O 	0.71885 0.74193 0.78138 -0.45700
O 	O 	0.73436 0.75707 0.90408 -0.45400
O 	O 	0.77412 0.93694 0.68430 -0.21800
O 	O 	0.70863 0.04754 0.81550 -0.46000
O 	O 	0.65825 0.03685 0.71290 -0.51000
O 	O 	0.91753 0.28529 0.74790 -0.46800
O 	O 	0.89130 0.22247 0.83990 -0.46500
O 	O 	0.74905 0.21608 0.58190 -0.23200
C 	C 	0.75920 0.27420 0.47730 -0.02200
C 	C 	0.79410 0.29100 0.40110 0.00700
C 	C 	0.75620 0.24570 0.45490 0.01400
C 	C 	0.38927 0.26683 0.27713 0.35900
C 	C 	0.40197 0.24033 0.21323 -0.05700
C 	C 	0.39777 0.18873 0.22303 0.00100
H 	H 	0.38957 0.17153 0.27103 0.05900
C 	C 	0.40565 0.16265 0.16203 -0.05600
C 	C 	0.39637 0.10533 0.17133 0.35700
C 	C 	0.41886 0.18768 0.09113 -0.09700
H 	H 	0.42307 0.16903 0.04913 0.07600
C 	C 	0.42567 0.24053 0.08393 0.15900
C 	C 	0.41627 0.26653 0.14383 -0.10000
H 	H 	0.41957 0.30203 0.13753 0.07900
C 	C 	0.45997 0.25043 0.95613 -0.02800
H 	H 	0.48917 0.24253 0.97363 0.04100
H 	H 	0.42887 0.21593 0.93503 0.04100
C 	C 	0.48297 0.29533 0.89803 0.04100
H 	H 	0.45277 0.30103 0.87873 0.02100
H 	H 	0.51137 0.33053 0.92143 0.02100
C 	C 	0.50897 0.28113 0.83333 -0.43100
H 	H 	0.48317 0.24333 0.81583 0.15300
H 	H 	0.51687 0.30753 0.79213 0.14800
H 	H 	0.54357 0.28343 0.85003 0.14200
C 	C 	0.36707 0.39883 0.08843 0.36600
C 	C 	0.40697 0.45573 0.06383 -0.07100
C 	C 	0.45717 0.48733 0.10123 0.00100
H 	H 	0.46567 0.47273 0.14423 0.05100
C 	C 	0.49477 0.54043 0.07513 -0.06200
C 	C 	0.54987 0.57423 0.11273 0.38200
C 	C 	0.48237 0.56203 0.01243 -0.11600
H 	H 	0.50857 0.59793 0.99423 0.09000
C 	C 	0.43217 0.53143 0.97673 0.17500
C 	C 	0.39467 0.47813 0.00183 -0.11100
H 	H 	0.36027 0.45683 0.97633 0.09200
C 	C 	0.45567 0.59373 0.87143 0.09200
Co	Co	0.25545 0.30746 0.08292 1.17800
Co	Co	0.33758 0.33848 0.24616 1.16000
O 	O 	0.39273 0.31330 0.26753 -0.46700
O 	O 	0.37642 0.24157 0.33886 -0.43000
O 	O 	0.38552 0.07526 0.11471 -0.45600
O 	O 	0.40103 0.09040 0.23741 -0.45400
O 	O 	0.44079 0.27027 0.01763 -0.21800
O 	O 	0.37530 0.38087 0.14883 -0.45900
O 	O 	0.32492 0.37018 0.04623 -0.51000
O 	O 	0.58420 0.61862 0.08123 -0.46800
O 	O 	0.55797 0.55580 0.17323 -0.46400
O 	O 	0.41572 0.54941 0.91523 -0.23300
C 	C 	0.42587 0.60753 0.81063 -0.02200
C 	C 	0.46077 0.62433 0.73443 0.00700
C 	C 	0.42287 0.57903 0.78823 0.01400
C 	C 	0.05593 0.60017 0.61047 0.35900
C 	C 	0.06863 0.57367 0.54657 -0.05700
C 	C 	0.06443 0.52207 0.55637 0.00100
H 	H 	0.05623 0.50487 0.60437 0.05900
C 	C 	0.07231 0.49599 0.49537 -0.05600
C 	C 	0.06303 0.43867 0.50467 0.35700
C 	C 	0.08552 0.52102 0.42447 -0.09800
H 	H 	0.08973 0.50237 0.38247 0.07600
C 	C 	0.09233 0.57387 0.41727 0.15900
C 	C 	0.08293 0.59987 0.47717 -0.10000
H 	H 	0.08623 0.63537 0.47087 0.07900
C 	C 	0.12663 0.58377 0.28947 -0.02700
H 	H 	0.15583 0.57587 0.30697 0.04100
H 	H 	0.09553 0.54927 0.26837 0.04100
C 	C 	0.14963 0.62867 0.23137 0.04000
H 	H 	0.11943 0.63437 0.21207 0.02100
H 	H 	0.17803 0.66387 0.25477 0.02200
C 	C 	0.17563 0.61447 0.16667 -0.43100
H 	H 	0.14983 0.57667 0.14917 0.15300
H 	H 	0.18353 0.64087 0.12547 0.14700
H 	H 	0.21023 0.61677 0.18337 0.14200
C 	C 	0.03373 0.73217 0.42177 0.36600
C 	C 	0.07363 0.78907 0.39717 -0.07200
C 	C 	0.12383 0.82067 0.43457 0.00200
H 	H 	0.13233 0.80607 0.47757 0.05100
C 	C 	0.16143 0.87377 0.40847 -0.06300
C 	C 	0.21653 0.90757 0.44607 0.38200
C 	C 	0.14903 0.89537 0.34577 -0.11400
H 	H 	0.17523 0.93127 0.32757 0.08900
C 	C 	0.09883 0.86477 0.31007 0.17300
C 	C 	0.06133 0.81147 0.33517 -0.10800
H 	H 	0.02693 0.79017 0.30967 0.09100
C 	C 	0.12233 0.92707 0.20477 0.09200
Co	Co	0.92211 0.64080 0.41626 1.17800
Co	Co	0.00424 0.67182 0.57950 1.16100
O 	O 	0.05939 0.64664 0.60087 -0.46600
O 	O 	0.04308 0.57491 0.67220 -0.43000
O 	O 	0.05218 0.40860 0.44805 -0.45700
O 	O 	0.06769 0.42374 0.57075 -0.45400
O 	O 	0.10745 0.60361 0.35097 -0.21800
O 	O 	0.04196 0.71421 0.48217 -0.45900
O 	O 	0.99158 0.70352 0.37957 -0.50900
O 	O 	0.25086 0.95196 0.41457 -0.46800
O 	O 	0.22463 0.88914 0.50657 -0.46400
O 	O 	0.08238 0.88275 0.24857 -0.23200
C 	C 	0.09253 0.94087 0.14397 -0.02200
C 	C 	0.12743 0.95767 0.06777 0.00600
C 	C 	0.08953 0.91237 0.12157 0.01300
C 	C 	0.06650 0.78910 0.94380 0.36200
C 	C 	0.09300 0.82830 0.87990 -0.05800
C 	C 	0.14460 0.87570 0.88970 0.00200
H 	H 	0.16180 0.88470 0.93770 0.06000
C 	C 	0.17068 0.90966 0.82870 -0.05600
C 	C 	0.22800 0.95770 0.83800 0.35700
C 	C 	0.14565 0.89784 0.75780 -0.09700
H 	H 	0.16430 0.92070 0.71580 0.07600
C 	C 	0.09280 0.85180 0.75060 0.15900
C 	C 	0.06680 0.81640 0.81050 -0.09900
H 	H 	0.03130 0.78420 0.80420 0.07900
C 	C 	0.08290 0.87620 0.62280 -0.02700
H 	H 	0.09080 0.91330 0.64030 0.04200
H 	H 	0.11740 0.87960 0.60170 0.04100
C 	C 	0.03800 0.85430 0.56470 0.04100
H 	H 	0.03230 0.81840 0.54540 0.02100
H 	H 	0.00280 0.84750 0.58810 0.02200
C 	C 	0.05220 0.89450 0.50000 -0.43200
H 	H 	0.09000 0.90650 0.48250 0.15400
H 	H 	0.02580 0.87600 0.45880 0.14800
H 	H 	0.04990 0.92680 0.51670 0.14300
C 	C 	0.93450 0.63490 0.75510 0.36700
C 	C 	0.87760 0.61790 0.73050 -0.07200
C 	C 	0.84600 0.63650 0.76790 0.00200
H 	H 	0.86060 0.65960 0.81090 0.05100
C 	C 	0.79290 0.62100 0.74180 -0.06300
C 	C 	0.75910 0.64230 0.77940 0.38200
C 	C 	0.77130 0.58700 0.67910 -0.11400
H 	H 	0.73540 0.57730 0.66090 0.08900
C 	C 	0.80190 0.56740 0.64340 0.17300
C 	C 	0.85520 0.58320 0.66850 -0.10800
H 	H 	0.87650 0.57010 0.64300 0.09100
C 	C 	0.73960 0.52860 0.53810 0.09200
Co	Co	0.02587 0.61465 0.74959 1.17800
Co	Co	0.99485 0.66576 0.91283 1.16000
O 	O 	0.02003 0.74609 0.93420 -0.46600
O 	O 	0.09176 0.80151 0.00553 -0.43300
O 	O 	0.25807 0.97692 0.78138 -0.45600
O 	O 	0.24293 0.97729 0.90408 -0.45300
O 	O 	0.06306 0.83718 0.68430 -0.21800
O 	O 	0.95246 0.66109 0.81550 -0.46000
O 	O 	0.96315 0.62140 0.71290 -0.51000
O 	O 	0.71471 0.63224 0.74790 -0.46800
O 	O 	0.77753 0.66883 0.83990 -0.46400
O 	O 	0.78392 0.53297 0.58190 -0.23200
C 	C 	0.72580 0.48500 0.47730 -0.02200
C 	C 	0.70900 0.50310 0.40110 0.00700
C 	C 	0.75430 0.51050 0.45490 0.01400
C 	C 	0.73317 0.12243 0.27713 0.35900
C 	C 	0.75967 0.16163 0.21323 -0.05700
C 	C 	0.81127 0.20903 0.22303 0.00100
H 	H 	0.82847 0.21803 0.27103 0.05900
C 	C 	0.83735 0.24299 0.16203 -0.05600
C 	C 	0.89467 0.29103 0.17133 0.35700
C 	C 	0.81232 0.23117 0.09113 -0.09700
H 	H 	0.83097 0.25403 0.04913 0.07600
C 	C 	0.75947 0.18513 0.08393 0.15900
C 	C 	0.73347 0.14973 0.14383 -0.09900
H 	H 	0.69797 0.11753 0.13753 0.07900
C 	C 	0.74957 0.20953 0.95613 -0.03000
H 	H 	0.75747 0.24663 0.97363 0.04200
H 	H 	0.78407 0.21293 0.93503 0.04200
C 	C 	0.70467 0.18763 0.89803 0.04200
H 	H 	0.69897 0.15173 0.87873 0.02000
H 	H 	0.66947 0.18083 0.92143 0.02100
C 	C 	0.71887 0.22783 0.83333 -0.43300
H 	H 	0.75667 0.23983 0.81583 0.15400
H 	H 	0.69247 0.20933 0.79213 0.14800
H 	H 	0.71657 0.26013 0.85003 0.14200
C 	C 	0.60117 0.96823 0.08843 0.36400
C 	C 	0.54427 0.95123 0.06383 -0.06700
C 	C 	0.51267 0.96983 0.10123 -0.00300
H 	H 	0.52727 0.99293 0.14423 0.05200
C 	C 	0.45957 0.95433 0.07513 -0.05700
C 	C 	0.42577 0.97563 0.11273 0.37800
C 	C 	0.43797 0.92033 0.01243 -0.12500
H 	H 	0.40207 0.91063 0.99423 0.09400
C 	C 	0.46857 0.90073 0.97673 0.18300
C 	C 	0.52187 0.91653 0.00183 -0.11800
H 	H 	0.54317 0.90343 0.97633 0.09500
C 	C 	0.40627 0.86193 0.87143 0.09300
Co	Co	0.69254 0.94798 0.08292 1.17800
Co	Co	0.66152 0.99909 0.24616 1.16000
O 	O 	0.68670 0.07942 0.26753 -0.46600
O 	O 	0.75843 0.13484 0.33886 -0.43000
O 	O 	0.92474 0.31025 0.11471 -0.45600
O 	O 	0.90960 0.31062 0.23741 -0.45400
O 	O 	0.72973 0.17051 0.01763 -0.21600
O 	O 	0.61913 0.99442 0.14883 -0.45900
O 	O 	0.62982 0.95473 0.04623 -0.51000
O 	O 	0.38138 0.96557 0.08123 -0.46800
O 	O 	0.44420 0.00216 0.17323 -0.46200
O 	O 	0.45059 0.86630 0.91523 -0.23400
C 	C 	0.39247 0.81833 0.81063 -0.02200
C 	C 	0.37567 0.83643 0.73443 0.00700
C 	C 	0.42097 0.84383 0.78823 0.01400
C 	C 	0.39983 0.45577 0.61047 0.35900
C 	C 	0.42633 0.49497 0.54657 -0.05700
C 	C 	0.47793 0.54237 0.55637 0.00100
H 	H 	0.49513 0.55137 0.60437 0.05900
C 	C 	0.50401 0.57633 0.49537 -0.05600
C 	C 	0.56133 0.62437 0.50467 0.35700
C 	C 	0.47898 0.56451 0.42447 -0.09700
H 	H 	0.49763 0.58737 0.38247 0.07600
C 	C 	0.42613 0.51847 0.41727 0.15900
C 	C 	0.40013 0.48307 0.47717 -0.10000
H 	H 	0.36463 0.45087 0.47087 0.07900
C 	C 	0.41623 0.54287 0.28947 -0.02700
H 	H 	0.42413 0.57997 0.30697 0.04200
H 	H 	0.45073 0.54627 0.26837 0.04100
C 	C 	0.37133 0.52097 0.23137 0.04000
H 	H 	0.36563 0.48507 0.21207 0.02100
H 	H 	0.33613 0.51417 0.25477 0.02200
C 	C 	0.38553 0.56117 0.16667 -0.43100
H 	H 	0.42333 0.57317 0.14917 0.15300
H 	H 	0.35913 0.54267 0.12547 0.14700
H 	H 	0.38323 0.59347 0.18337 0.14200
C 	C 	0.26783 0.30157 0.42177 0.36700
C 	C 	0.21093 0.28457 0.39717 -0.07200
C 	C 	0.17933 0.30317 0.43457 0.00200
H 	H 	0.19393 0.32627 0.47757 0.05100
C 	C 	0.12623 0.28767 0.40847 -0.06300
C 	C 	0.09243 0.30897 0.44607 0.38200
C 	C 	0.10463 0.25367 0.34577 -0.11400
H 	H 	0.06873 0.24397 0.32757 0.08900
C 	C 	0.13523 0.23407 0.31007 0.17300
C 	C 	0.18853 0.24987 0.33517 -0.10800
H 	H 	0.20983 0.23677 0.30967 0.09100
C 	C 	0.07293 0.19527 0.20477 0.09200
Co	Co	0.35920 0.28132 0.41626 1.17800
Co	Co	0.32818 0.33243 0.57950 1.16000
O 	O 	0.35336 0.41276 0.60087 -0.46700
O 	O 	0.42509 0.46818 0.67220 -0.43000
O 	O 	0.59140 0.64359 0.44805 -0.45700
O 	O 	0.57626 0.64396 0.57075 -0.45400
O 	O 	0.39639 0.50385 0.35097 -0.21800
O 	O 	0.28579 0.32776 0.48217 -0.45900
O 	O 	0.29648 0.28807 0.37957 -0.51000
O 	O 	0.04804 0.29891 0.41457 -0.46800
O 	O 	0.11086 0.33550 0.50657 -0.46500
O 	O 	0.11725 0.19964 0.24857 -0.23200
C 	C 	0.05913 0.15167 0.14397 -0.02200
C 	C 	0.04233 0.16977 0.06777 0.00700
C 	C 	0.08763 0.17717 0.12157 0.01400
C 	C 	0.21090 0.27740 0.94380 0.35900
C 	C 	0.17170 0.26470 0.87990 -0.05700
C 	C 	0.12430 0.26890 0.88970 0.00100
H 	H 	0.11530 0.27710 0.93770 0.05900
C 	C 	0.09034 0.26102 0.82870 -0.05600
C 	C 	0.04230 0.27030 0.83800 0.35700
C 	C 	0.10216 0.24781 0.75780 -0.09700
H 	H 	0.07930 0.24360 0.71580 0.07600
C 	C 	0.14820 0.24100 0.75060 0.15900
C 	C 	0.18360 0.25040 0.81050 -0.09900
H 	H 	0.21580 0.24710 0.80420 0.07900
C 	C 	0.12380 0.20670 0.62280 -0.02700
H 	H 	0.08670 0.17750 0.64030 0.04200
H 	H 	0.12040 0.23780 0.60170 0.04100
C 	C 	0.14570 0.18370 0.56470 0.04000
H 	H 	0.18160 0.21390 0.54540 0.02100
H 	H 	0.15250 0.15530 0.58810 0.02200
C 	C 	0.10550 0.15770 0.50000 -0.43100
H 	H 	0.09350 0.18350 0.48250 0.15300
H 	H 	0.12400 0.14980 0.45880 0.14800
H 	H 	0.07320 0.12310 0.51670 0.14200
C 	C 	0.36510 0.29960 0.75510 0.36700
C 	C 	0.38210 0.25970 0.73050 -0.07200
C 	C 	0.36350 0.20950 0.76790 0.00200
H 	H 	0.34040 0.20100 0.81090 0.05100
C 	C 	0.37900 0.17190 0.74180 -0.06300
C 	C 	0.35770 0.11680 0.77940 0.38200
C 	C 	0.41300 0.18430 0.67910 -0.11400
H 	H 	0.42270 0.15810 0.66090 0.08900
C 	C 	0.43260 0.23450 0.64340 0.17300
C 	C 	0.41680 0.27200 0.66850 -0.10800
H 	H 	0.42990 0.30640 0.64300 0.09100
C 	C 	0.47140 0.21100 0.53810 0.09200
Co	Co	0.38535 0.41122 0.74959 1.17800
Co	Co	0.33424 0.32909 0.91283 1.16000
O 	O 	0.25391 0.27394 0.93420 -0.46700
O 	O 	0.19849 0.29025 0.00553 -0.43100
O 	O 	0.02308 0.28115 0.78138 -0.45600
O 	O 	0.02271 0.26564 0.90408 -0.45400
O 	O 	0.16282 0.22588 0.68430 -0.21800
O 	O 	0.33891 0.29137 0.81550 -0.45900
O 	O 	0.37860 0.34175 0.71290 -0.51000
O 	O 	0.36776 0.08247 0.74790 -0.46800
O 	O 	0.33117 0.10870 0.83990 -0.46500
O 	O 	0.46703 0.25095 0.58190 -0.23200
C 	C 	0.51500 0.24080 0.47730 -0.02200
C 	C 	0.49690 0.20590 0.40110 0.00700
C 	C 	0.48950 0.24380 0.45490 0.01400
C 	C 	0.87757 0.61073 0.27713 0.35900
C 	C 	0.83837 0.59803 0.21323 -0.05700
C 	C 	0.79097 0.60223 0.22303 0.00100
H 	H 	0.78197 0.61043 0.27103 0.05900
C 	C 	0.75701 0.59435 0.16203 -0.05600
C 	C 	0.70897 0.60363 0.17133 0.35700
C 	C 	0.76883 0.58114 0.09113 -0.09700
H 	H 	0.74597 0.57693 0.04913 0.07600
C 	C 	0.81487 0.57433 0.08393 0.15900
C 	C 	0.85027 0.58373 0.14383 -0.09900
H 	H 	0.88247 0.58043 0.13753 0.07900
C 	C 	0.79047 0.54003 0.95613 -0.02900
H 	H 	0.75337 0.51083 0.97363 0.04200
H 	H 	0.78707 0.57113 0.93503 0.04100
C 	C 	0.81237 0.51703 0.89803 0.04100
H 	H 	0.84827 0.54723 0.87873 0.02000
H 	H 	0.81917 0.48863 0.92143 0.02100
C 	C 	0.77217 0.49103 0.83333 -0.43200
H 	H 	0.76017 0.51683 0.81583 0.15300
H 	H 	0.79067 0.48313 0.79213 0.14800
H 	H 	0.73987 0.45643 0.85003 0.14200
C 	C 	0.03177 0.63293 0.08843 0.36400
C 	C 	0.04877 0.59303 0.06383 -0.06600
C 	C 	0.03017 0.54283 0.10123 -0.00300
H 	H 	0.00707 0.53433 0.14423 0.05200
C 	C 	0.04567 0.50523 0.07513 -0.05700
C 	C 	0.02437 0.45013 0.11273 0.37800
C 	C 	0.07967 0.51763 0.01243 -0.12500
H 	H 	0.08937 0.49143 0.99423 0.09400
C 	C 	0.09927 0.56783 0.97673 0.18400
C 	C 	0.08347 0.60533 0.00183 -0.12000
H 	H 	0.09657 0.63973 0.97633 0.09600
C 	C 	0.13807 0.54433 0.87143 0.09300
Co	Co	0.05202 0.74455 0.08292 1.17700
Co	Co	0.00091 0.66242 0.24616 1.16000
O 	O 	0.92058 0.60727 0.26753 -0.46600
O 	O 	0.86516 0.62358 0.33886 -0.43000
O 	O 	0.68975 0.61448 0.11471 -0.45700
O 	O 	0.68938 0.59897 0.23741 -0.45400
O 	O 	0.82949 0.55921 0.01763 -0.21700
O 	O 	0.00558 0.62470 0.14883 -0.45900
O 	O 	0.04527 0.67508 0.04623 -0.51000
O 	O 	0.03443 0.41580 0.08123 -0.46800
O 	O 	0.99784 0.44203 0.17323 -0.46200
O 	O 	0.13370 0.58428 0.91523 -0.23400
C 	C 	0.18167 0.57413 0.81063 -0.02200
C 	C 	0.16357 0.53923 0.73443 0.00700
C 	C 	0.15617 0.57713 0.78823 0.01400
C 	C 	0.54423 0.94407 0.61047 0.35900
C 	C 	0.50503 0.93137 0.54657 -0.05700
C 	C 	0.45763 0.93557 0.55637 0.00100
H 	H 	0.44863 0.94377 0.60437 0.05900
C 	C 	0.42367 0.92769 0.49537 -0.05600
C 	C 	0.37563 0.93697 0.50467 0.35700
C 	C 	0.43549 0.91448 0.42447 -0.09800
H 	H 	0.41263 0.91027 0.38247 0.07600
C 	C 	0.48153 0.90767 0.41727 0.15900
C 	C 	0.51693 0.91707 0.47717 -0.10000
H 	H 	0.54913 0.91377 0.47087 0.07900
C 	C 	0.45713 0.87337 0.28947 -0.02700
H 	H 	0.42003 0.84417 0.30697 0.04100
H 	H 	0.45373 0.90447 0.26837 0.04100
C 	C 	0.47903 0.85037 0.23137 0.04000
H 	H 	0.51493 0.88057 0.21207 0.02100
H 	H 	0.48583 0.82197 0.25477 0.02200
C 	C 	0.43883 0.82437 0.16667 -0.43100
H 	H 	0.42683 0.85017 0.14917 0.15300
H 	H 	0.45733 0.81647 0.12547 0.14700
H 	H 	0.40653 0.78977 0.18337 0.14200
C 	C 	0.69843 0.96627 0.42177 0.36600
C 	C 	0.71543 0.92637 0.39717 -0.07200
C 	C 	0.69683 0.87617 0.43457 0.00200
H 	H 	0.67373 0.86767 0.47757 0.05100
C 	C 	0.71233 0.83857 0.40847 -0.06300
C 	C 	0.69103 0.78347 0.44607 0.38200
C 	C 	0.74633 0.85097 0.34577 -0.11400
H 	H 	0.75603 0.82477 0.32757 0.08900
C 	C 	0.76593 0.90117 0.31007 0.17400
C 	C 	0.75013 0.93867 0.33517 -0.10800
H 	H 	0.76323 0.97307 0.30967 0.09100
C 	C 	0.80473 0.87767 0.20477 0.09200
Co	Co	0.71868 0.07789 0.41626 1.17800
Co	Co	0.66757 0.99576 0.57950 1.16100
O 	O 	0.58724 0.94061 0.60087 -0.46600
O 	O 	0.53182 0.95692 0.67220 -0.43000
O 	O 	0.35641 0.94782 0.44805 -0.45700
O 	O 	0.35604 0.93231 0.57075 -0.45400
O 	O 	0.49615 0.89255 0.35097 -0.21800
O 	O 	0.67224 0.95804 0.48217 -0.45900
O 	O 	0.71193 0.00842 0.37957 -0.50900
O 	O 	0.70109 0.74914 0.41457 -0.46800
O 	O 	0.66450 0.77537 0.50657 -0.46400
O 	O 	0.80036 0.91762 0.24857 -0.23200
C 	C 	0.84833 0.90747 0.14397 -0.02100
C 	C 	0.83023 0.87257 0.06777 0.00700
C 	C 	0.82283 0.91047 0.12157 0.01300
