data_crystal

_cell_length_a 27.67650
_cell_length_b 27.67650
_cell_length_c 17.93530
_cell_angle_alpha 90.00000
_cell_angle_beta  90.00000
_cell_angle_gamma 120.00000

_symmetry_space_group_name_	'P 1'
_symmetry_space_group_name_H-M	'P 1'

loop_
_symmetry_equiv_pos_as_xyz
  x,y,z

loop_
_atom_site_label
_atom_site_type_symbol
_atom_site_fract_x
_atom_site_fract_y
_atom_site_fract_z
_atom_site_charge
C 	C 	0.27579 0.06533 0.55769 0.36100
C 	C 	0.26439 0.09371 0.62074 -0.06100
C 	C 	0.26938 0.14578 0.60950 -0.00700
H 	H 	0.27640 0.16180 0.56110 0.05300
C 	C 	0.26393 0.17398 0.66976 -0.05100
C 	C 	0.27352 0.23182 0.66009 0.35300
C 	C 	0.25165 0.15012 0.74115 -0.12000
H 	H 	0.24910 0.17010 0.78250 0.08500
C 	C 	0.24335 0.09667 0.75021 0.18500
C 	C 	0.25110 0.06897 0.69070 -0.11500
H 	H 	0.24730 0.03320 0.69790 0.07900
C 	C 	0.21713 0.09308 0.87946 0.28500
H 	H 	0.19080 0.10590 0.86500 -0.05400
H 	H 	0.25200 0.12560 0.89780 -0.05400
C 	C 	0.19166 0.04859 0.93927 -0.61000
H 	H 	0.15600 0.01780 0.92150 0.20700
H 	H 	0.18530 0.06460 0.98440 0.19800
H 	H 	0.21710 0.03460 0.95060 0.20600
C 	C 	0.35955 0.11554 0.28113 0.38200
C 	C 	0.38036 0.16982 0.24068 -0.05400
C 	C 	0.36560 0.20794 0.26581 -0.01200
H 	H 	0.34360 0.20050 0.30950 0.05100
C 	C 	0.38338 0.25731 0.22628 -0.06000
C 	C 	0.36748 0.29902 0.25166 0.36200
C 	C 	0.41571 0.26831 0.16256 -0.12100
H 	H 	0.42840 0.30240 0.13650 0.09900
C 	C 	0.42943 0.22908 0.13697 0.19400
C 	C 	0.41272 0.18023 0.17652 -0.12800
H 	H 	0.42320 0.15410 0.16020 0.09100
C 	C 	0.46354 0.19891 0.03425 0.29900
H 	H 	0.42690 0.16410 0.03290 -0.04700
H 	H 	0.49050 0.19140 0.06080 -0.04900
C 	C 	0.48374 0.21916 0.95601 -0.63500
H 	H 	0.45680 0.22650 0.93040 0.22000
H 	H 	0.48750 0.19060 0.92870 0.21500
H 	H 	0.52000 0.25360 0.95820 0.21400
O 	O 	0.28953 0.09053 0.49587 -0.46000
O 	O 	0.27122 0.01830 0.56895 -0.48600
O 	O 	0.26934 0.24686 0.59422 -0.48000
O 	O 	0.28498 0.26229 0.71637 -0.47200
O 	O 	0.22861 0.06776 0.81658 -0.28300
O 	O 	0.33064 0.10838 0.33869 -0.48200
O 	O 	0.37261 0.08134 0.25468 -0.49300
O 	O 	0.33273 0.28510 0.30461 -0.49200
O 	O 	0.38930 0.34509 0.21800 -0.50500
O 	O 	0.45871 0.24247 0.07138 -0.28100
Zn	Zn	0.33315 0.32255 0.39895 1.21300
Zn	Zn	0.30908 0.05395 0.41812 1.22900
C 	C 	0.94246 0.39866 0.89102 0.36200
C 	C 	0.93106 0.42704 0.95407 -0.06200
C 	C 	0.93605 0.47911 0.94283 -0.01000
H 	H 	0.94307 0.49513 0.89443 0.05500
C 	C 	0.93060 0.50731 0.00309 -0.04400
C 	C 	0.94019 0.56515 0.99342 0.34800
C 	C 	0.91832 0.48345 0.07448 -0.12100
H 	H 	0.91577 0.50343 0.11583 0.08700
C 	C 	0.91002 0.43000 0.08354 0.18600
C 	C 	0.91777 0.40230 0.02403 -0.11100
H 	H 	0.91397 0.36653 0.03123 0.08000
C 	C 	0.88380 0.42641 0.21279 0.28600
H 	H 	0.85747 0.43923 0.19833 -0.05300
H 	H 	0.91867 0.45893 0.23113 -0.05300
C 	C 	0.85833 0.38192 0.27260 -0.60900
H 	H 	0.82267 0.35113 0.25483 0.20800
H 	H 	0.85197 0.39793 0.31773 0.20000
H 	H 	0.88377 0.36793 0.28393 0.20700
C 	C 	0.02622 0.44887 0.61446 0.38400
C 	C 	0.04703 0.50315 0.57401 -0.05300
C 	C 	0.03227 0.54127 0.59914 -0.01000
H 	H 	0.01027 0.53383 0.64283 0.05300
C 	C 	0.05005 0.59064 0.55961 -0.05900
C 	C 	0.03415 0.63235 0.58499 0.36400
C 	C 	0.08238 0.60164 0.49589 -0.12000
H 	H 	0.09507 0.63573 0.46983 0.10000
C 	C 	0.09610 0.56241 0.47030 0.19400
C 	C 	0.07939 0.51356 0.50985 -0.12700
H 	H 	0.08987 0.48743 0.49353 0.09200
C 	C 	0.13021 0.53224 0.36758 0.29800
H 	H 	0.09357 0.49743 0.36623 -0.04600
H 	H 	0.15717 0.52473 0.39413 -0.04800
C 	C 	0.15041 0.55249 0.28934 -0.63100
H 	H 	0.12347 0.55983 0.26373 0.21900
H 	H 	0.15417 0.52393 0.26203 0.21400
H 	H 	0.18667 0.58693 0.29153 0.21400
O 	O 	0.95620 0.42386 0.82920 -0.46100
O 	O 	0.93789 0.35163 0.90228 -0.48700
O 	O 	0.93601 0.58019 0.92755 -0.47900
O 	O 	0.95165 0.59562 0.04970 -0.46900
O 	O 	0.89528 0.40109 0.14991 -0.28300
O 	O 	0.99731 0.44171 0.67202 -0.48300
O 	O 	0.03928 0.41467 0.58801 -0.49300
O 	O 	0.99940 0.61843 0.63794 -0.49300
O 	O 	0.05597 0.67842 0.55133 -0.50500
O 	O 	0.12538 0.57580 0.40471 -0.28100
Zn	Zn	0.99982 0.65588 0.73228 1.21200
Zn	Zn	0.97575 0.38728 0.75145 1.22800
C 	C 	0.60912 0.73200 0.22436 0.36200
C 	C 	0.59772 0.76038 0.28741 -0.06000
C 	C 	0.60271 0.81245 0.27617 -0.00600
H 	H 	0.60973 0.82847 0.22777 0.05400
C 	C 	0.59726 0.84065 0.33643 -0.05000
C 	C 	0.60685 0.89849 0.32676 0.35400
C 	C 	0.58498 0.81679 0.40782 -0.11900
H 	H 	0.58243 0.83677 0.44917 0.08600
C 	C 	0.57668 0.76334 0.41688 0.18600
C 	C 	0.58443 0.73564 0.35737 -0.11400
H 	H 	0.58063 0.69987 0.36457 0.08000
C 	C 	0.55046 0.75975 0.54613 0.28700
H 	H 	0.52413 0.77257 0.53167 -0.05300
H 	H 	0.58533 0.79227 0.56447 -0.05300
C 	C 	0.52499 0.71526 0.60594 -0.60900
H 	H 	0.48933 0.68447 0.58817 0.20800
H 	H 	0.51863 0.73127 0.65107 0.20000
H 	H 	0.55043 0.70127 0.61727 0.20700
C 	C 	0.69288 0.78221 0.94780 0.38400
C 	C 	0.71369 0.83649 0.90735 -0.05300
C 	C 	0.69893 0.87461 0.93248 -0.01000
H 	H 	0.67693 0.86717 0.97617 0.05200
C 	C 	0.71671 0.92398 0.89295 -0.06000
C 	C 	0.70081 0.96569 0.91833 0.36500
C 	C 	0.74904 0.93498 0.82923 -0.12000
H 	H 	0.76173 0.96907 0.80317 0.10000
C 	C 	0.76276 0.89575 0.80364 0.19400
C 	C 	0.74605 0.84690 0.84319 -0.12700
H 	H 	0.75653 0.82077 0.82687 0.09200
C 	C 	0.79687 0.86558 0.70092 0.29800
H 	H 	0.76023 0.83077 0.69957 -0.04600
H 	H 	0.82383 0.85807 0.72747 -0.04800
C 	C 	0.81707 0.88583 0.62268 -0.63200
H 	H 	0.79013 0.89317 0.59707 0.22000
H 	H 	0.82083 0.85727 0.59537 0.21400
H 	H 	0.85333 0.92027 0.62487 0.21400
O 	O 	0.62286 0.75720 0.16254 -0.46000
O 	O 	0.60455 0.68497 0.23562 -0.48500
O 	O 	0.60267 0.91353 0.26089 -0.48000
O 	O 	0.61831 0.92896 0.38304 -0.47200
O 	O 	0.56194 0.73443 0.48325 -0.28300
O 	O 	0.66397 0.77505 0.00536 -0.48300
O 	O 	0.70594 0.74801 0.92135 -0.49300
O 	O 	0.66606 0.95177 0.97128 -0.49200
O 	O 	0.72263 0.01176 0.88467 -0.50700
O 	O 	0.79204 0.90914 0.73805 -0.28100
Zn	Zn	0.66648 0.98922 0.06562 1.21200
Zn	Zn	0.64241 0.72062 0.08479 1.22900
C 	C 	0.93467 0.21046 0.55769 0.36200
C 	C 	0.90629 0.17068 0.62074 -0.06000
C 	C 	0.85422 0.12360 0.60950 -0.00600
H 	H 	0.83820 0.11460 0.56110 0.05400
C 	C 	0.82602 0.08995 0.66976 -0.05000
C 	C 	0.76818 0.04170 0.66009 0.35400
C 	C 	0.84988 0.10153 0.74115 -0.11900
H 	H 	0.82990 0.07900 0.78250 0.08600
C 	C 	0.90333 0.14668 0.75021 0.18600
C 	C 	0.93103 0.18213 0.69070 -0.11400
H 	H 	0.96680 0.21410 0.69790 0.08000
C 	C 	0.90692 0.12405 0.87946 0.28500
H 	H 	0.89410 0.08490 0.86500 -0.05300
H 	H 	0.87440 0.12640 0.89780 -0.05300
C 	C 	0.95141 0.14307 0.93927 -0.60700
H 	H 	0.98220 0.13820 0.92150 0.20700
H 	H 	0.93540 0.12070 0.98440 0.19800
H 	H 	0.96540 0.18250 0.95060 0.20500
C 	C 	0.88446 0.24401 0.28113 0.38300
C 	C 	0.83018 0.21054 0.24068 -0.05300
C 	C 	0.79206 0.15766 0.26581 -0.01100
H 	H 	0.79950 0.14310 0.30950 0.05200
C 	C 	0.74269 0.12607 0.22628 -0.05900
C 	C 	0.70098 0.06846 0.25166 0.36300
C 	C 	0.73169 0.14740 0.16256 -0.12000
H 	H 	0.69760 0.12600 0.13650 0.10000
C 	C 	0.77092 0.20035 0.13697 0.19500
C 	C 	0.81977 0.23249 0.17652 -0.12700
H 	H 	0.84590 0.26910 0.16020 0.09200
C 	C 	0.80109 0.26463 0.03425 0.30300
H 	H 	0.83590 0.26280 0.03290 -0.04700
H 	H 	0.80860 0.29910 0.06080 -0.04900
C 	C 	0.78084 0.26458 0.95601 -0.63800
H 	H 	0.77350 0.23030 0.93040 0.22100
H 	H 	0.80940 0.29690 0.92870 0.21600
H 	H 	0.74640 0.26640 0.95820 0.21500
O 	O 	0.90947 0.19900 0.49587 -0.46000
O 	O 	0.98170 0.25292 0.56895 -0.48500
O 	O 	0.75314 0.02248 0.59422 -0.48000
O 	O 	0.73771 0.02269 0.71637 -0.47200
O 	O 	0.93224 0.16085 0.81658 -0.28300
O 	O 	0.89162 0.22226 0.33869 -0.48200
O 	O 	0.91866 0.29127 0.25468 -0.49300
O 	O 	0.71490 0.04763 0.30461 -0.49200
O 	O 	0.65491 0.04421 0.21800 -0.50500
O 	O 	0.75753 0.21624 0.07138 -0.28100
Zn	Zn	0.67745 0.01060 0.39895 1.21300
Zn	Zn	0.94605 0.25513 0.41812 1.22900
C 	C 	0.60134 0.54379 0.89102 0.36200
C 	C 	0.57296 0.50401 0.95407 -0.06000
C 	C 	0.52089 0.45693 0.94283 -0.00700
H 	H 	0.50487 0.44793 0.89443 0.05400
C 	C 	0.49269 0.42328 0.00309 -0.04900
C 	C 	0.43485 0.37503 0.99342 0.35300
C 	C 	0.51655 0.43486 0.07448 -0.11900
H 	H 	0.49657 0.41233 0.11583 0.08600
C 	C 	0.57000 0.48001 0.08354 0.18600
C 	C 	0.59770 0.51546 0.02403 -0.11400
H 	H 	0.63347 0.54743 0.03123 0.08000
C 	C 	0.57359 0.45738 0.21279 0.28700
H 	H 	0.56077 0.41823 0.19833 -0.05300
H 	H 	0.54107 0.45973 0.23113 -0.05300
C 	C 	0.61808 0.47640 0.27260 -0.61000
H 	H 	0.64887 0.47153 0.25483 0.20800
H 	H 	0.60207 0.45403 0.31773 0.20000
H 	H 	0.63207 0.51583 0.28393 0.20700
C 	C 	0.55113 0.57734 0.61446 0.38300
C 	C 	0.49685 0.54387 0.57401 -0.05300
C 	C 	0.45873 0.49099 0.59914 -0.01000
H 	H 	0.46617 0.47643 0.64283 0.05200
C 	C 	0.40936 0.45940 0.55961 -0.05900
C 	C 	0.36765 0.40179 0.58499 0.36300
C 	C 	0.39836 0.48073 0.49589 -0.12000
H 	H 	0.36427 0.45933 0.46983 0.10000
C 	C 	0.43759 0.53368 0.47030 0.19400
C 	C 	0.48644 0.56582 0.50985 -0.12700
H 	H 	0.51257 0.60243 0.49353 0.09200
C 	C 	0.46776 0.59796 0.36758 0.29800
H 	H 	0.50257 0.59613 0.36623 -0.04600
H 	H 	0.47527 0.63243 0.39413 -0.04800
C 	C 	0.44751 0.59791 0.28934 -0.63100
H 	H 	0.44017 0.56363 0.26373 0.22000
H 	H 	0.47607 0.63023 0.26203 0.21400
H 	H 	0.41307 0.59973 0.29153 0.21400
O 	O 	0.57614 0.53233 0.82920 -0.46000
O 	O 	0.64837 0.58625 0.90228 -0.48600
O 	O 	0.41981 0.35581 0.92755 -0.48000
O 	O 	0.40438 0.35602 0.04970 -0.47100
O 	O 	0.59891 0.49418 0.14991 -0.28300
O 	O 	0.55829 0.55559 0.67202 -0.48200
O 	O 	0.58533 0.62460 0.58801 -0.49300
O 	O 	0.38157 0.38096 0.63794 -0.49200
O 	O 	0.32158 0.37754 0.55133 -0.50500
O 	O 	0.42420 0.54957 0.40471 -0.28100
Zn	Zn	0.34412 0.34393 0.73228 1.21300
Zn	Zn	0.61272 0.58846 0.75145 1.22900
C 	C 	0.26800 0.87713 0.22436 0.36200
C 	C 	0.23962 0.83735 0.28741 -0.06000
C 	C 	0.18755 0.79027 0.27617 -0.00600
H 	H 	0.17153 0.78127 0.22777 0.05400
C 	C 	0.15935 0.75662 0.33643 -0.05000
C 	C 	0.10151 0.70837 0.32676 0.35400
C 	C 	0.18321 0.76820 0.40782 -0.11900
H 	H 	0.16323 0.74567 0.44917 0.08600
C 	C 	0.23666 0.81335 0.41688 0.18600
C 	C 	0.26436 0.84880 0.35737 -0.11400
H 	H 	0.30013 0.88077 0.36457 0.08000
C 	C 	0.24025 0.79072 0.54613 0.28700
H 	H 	0.22743 0.75157 0.53167 -0.05300
H 	H 	0.20773 0.79307 0.56447 -0.05300
C 	C 	0.28474 0.80974 0.60594 -0.61000
H 	H 	0.31553 0.80487 0.58817 0.20800
H 	H 	0.26873 0.78737 0.65107 0.20000
H 	H 	0.29873 0.84917 0.61727 0.20700
C 	C 	0.21779 0.91068 0.94780 0.38800
C 	C 	0.16351 0.87721 0.90735 -0.05300
C 	C 	0.12539 0.82433 0.93248 -0.00900
H 	H 	0.13283 0.80977 0.97617 0.05300
C 	C 	0.07602 0.79274 0.89295 -0.06000
C 	C 	0.03431 0.73513 0.91833 0.36600
C 	C 	0.06502 0.81407 0.82923 -0.11900
H 	H 	0.03093 0.79267 0.80317 0.10000
C 	C 	0.10425 0.86702 0.80364 0.19400
C 	C 	0.15310 0.89916 0.84319 -0.12600
H 	H 	0.17923 0.93577 0.82687 0.09200
C 	C 	0.13442 0.93130 0.70092 0.29800
H 	H 	0.16923 0.92947 0.69957 -0.04600
H 	H 	0.14193 0.96577 0.72747 -0.04800
C 	C 	0.11417 0.93125 0.62268 -0.63200
H 	H 	0.10683 0.89697 0.59707 0.22000
H 	H 	0.14273 0.96357 0.59537 0.21500
H 	H 	0.07973 0.93307 0.62487 0.21500
O 	O 	0.24280 0.86567 0.16254 -0.46100
O 	O 	0.31503 0.91959 0.23562 -0.48600
O 	O 	0.08647 0.68915 0.26089 -0.48000
O 	O 	0.07104 0.68936 0.38304 -0.47200
O 	O 	0.26557 0.82752 0.48325 -0.28300
O 	O 	0.22495 0.88893 0.00536 -0.48600
O 	O 	0.25199 0.95794 0.92135 -0.49300
O 	O 	0.04823 0.71430 0.97128 -0.49100
O 	O 	0.98824 0.71088 0.88467 -0.50700
O 	O 	0.09086 0.88291 0.73805 -0.28000
Zn	Zn	0.01078 0.67727 0.06562 1.21200
Zn	Zn	0.27938 0.92180 0.08479 1.22800
C 	C 	0.78954 0.72421 0.55769 0.36200
C 	C 	0.82932 0.73561 0.62074 -0.06000
C 	C 	0.87640 0.73062 0.60950 -0.00600
H 	H 	0.88540 0.72360 0.56110 0.05400
C 	C 	0.91005 0.73607 0.66976 -0.05000
C 	C 	0.95830 0.72648 0.66009 0.35400
C 	C 	0.89847 0.74835 0.74115 -0.11900
H 	H 	0.92100 0.75090 0.78250 0.08600
C 	C 	0.85332 0.75665 0.75021 0.18600
C 	C 	0.81787 0.74890 0.69070 -0.11400
H 	H 	0.78590 0.75270 0.69790 0.08000
C 	C 	0.87595 0.78287 0.87946 0.28700
H 	H 	0.91510 0.80920 0.86500 -0.05300
H 	H 	0.87360 0.74800 0.89780 -0.05300
C 	C 	0.85693 0.80834 0.93927 -0.61000
H 	H 	0.86180 0.84400 0.92150 0.20800
H 	H 	0.87930 0.81470 0.98440 0.20000
H 	H 	0.81750 0.78290 0.95060 0.20700
C 	C 	0.75599 0.64045 0.28113 0.38300
C 	C 	0.78946 0.61964 0.24068 -0.05300
C 	C 	0.84234 0.63440 0.26581 -0.01100
H 	H 	0.85690 0.65640 0.30950 0.05200
C 	C 	0.87393 0.61662 0.22628 -0.05900
C 	C 	0.93154 0.63252 0.25166 0.36300
C 	C 	0.85260 0.58429 0.16256 -0.12000
H 	H 	0.87400 0.57160 0.13650 0.10000
C 	C 	0.79965 0.57057 0.13697 0.19400
C 	C 	0.76751 0.58728 0.17652 -0.12700
H 	H 	0.73090 0.57680 0.16020 0.09200
C 	C 	0.73537 0.53646 0.03425 0.30000
H 	H 	0.73720 0.57310 0.03290 -0.04700
H 	H 	0.70090 0.50950 0.06080 -0.04900
C 	C 	0.73542 0.51626 0.95601 -0.63400
H 	H 	0.76970 0.54320 0.93040 0.22000
H 	H 	0.70310 0.51250 0.92870 0.21500
H 	H 	0.73360 0.48000 0.95820 0.21400
O 	O 	0.80100 0.71047 0.49587 -0.46000
O 	O 	0.74708 0.72878 0.56895 -0.48500
O 	O 	0.97752 0.73066 0.59422 -0.48000
O 	O 	0.97731 0.71502 0.71637 -0.47200
O 	O 	0.83915 0.77139 0.81658 -0.28300
O 	O 	0.77774 0.66936 0.33869 -0.48200
O 	O 	0.70873 0.62739 0.25468 -0.49300
O 	O 	0.95237 0.66727 0.30461 -0.49200
O 	O 	0.95579 0.61070 0.21800 -0.50500
O 	O 	0.78376 0.54129 0.07138 -0.28100
Zn	Zn	0.98940 0.66685 0.39895 1.21300
Zn	Zn	0.74487 0.69092 0.41812 1.22900
C 	C 	0.45621 0.05754 0.89102 0.36100
C 	C 	0.49599 0.06894 0.95407 -0.06000
C 	C 	0.54307 0.06395 0.94283 -0.01200
H 	H 	0.55207 0.05693 0.89443 0.05500
C 	C 	0.57672 0.06940 0.00309 -0.04100
C 	C 	0.62497 0.05981 0.99342 0.34600
C 	C 	0.56514 0.08168 0.07448 -0.12200
H 	H 	0.58767 0.08423 0.11583 0.08700
C 	C 	0.51999 0.08998 0.08354 0.18700
C 	C 	0.48454 0.08223 0.02403 -0.11300
H 	H 	0.45257 0.08603 0.03123 0.08100
C 	C 	0.54262 0.11620 0.21279 0.28700
H 	H 	0.58177 0.14253 0.19833 -0.05300
H 	H 	0.54027 0.08133 0.23113 -0.05300
C 	C 	0.52360 0.14167 0.27260 -0.61000
H 	H 	0.52847 0.17733 0.25483 0.20800
H 	H 	0.54597 0.14803 0.31773 0.20000
H 	H 	0.48417 0.11623 0.28393 0.20700
C 	C 	0.42266 0.97378 0.61446 0.38500
C 	C 	0.45613 0.95297 0.57401 -0.05300
C 	C 	0.50901 0.96773 0.59914 -0.01000
H 	H 	0.52357 0.98973 0.64283 0.05300
C 	C 	0.54060 0.94995 0.55961 -0.05900
C 	C 	0.59821 0.96585 0.58499 0.36300
C 	C 	0.51927 0.91762 0.49589 -0.12000
H 	H 	0.54067 0.90493 0.46983 0.10000
C 	C 	0.46632 0.90390 0.47030 0.19400
C 	C 	0.43418 0.92061 0.50985 -0.12700
H 	H 	0.39757 0.91013 0.49353 0.09200
C 	C 	0.40204 0.86979 0.36758 0.29800
H 	H 	0.40387 0.90643 0.36623 -0.04600
H 	H 	0.36757 0.84283 0.39413 -0.04800
C 	C 	0.40209 0.84959 0.28934 -0.63100
H 	H 	0.43637 0.87653 0.26373 0.21900
H 	H 	0.36977 0.84583 0.26203 0.21400
H 	H 	0.40027 0.81333 0.29153 0.21400
O 	O 	0.46767 0.04380 0.82920 -0.46100
O 	O 	0.41375 0.06211 0.90228 -0.48600
O 	O 	0.64419 0.06399 0.92755 -0.47900
O 	O 	0.64398 0.04835 0.04970 -0.46800
O 	O 	0.50582 0.10472 0.14991 -0.28300
O 	O 	0.44441 0.00269 0.67202 -0.48300
O 	O 	0.37540 0.96072 0.58801 -0.49300
O 	O 	0.61904 0.00060 0.63794 -0.49300
O 	O 	0.62246 0.94403 0.55133 -0.50500
O 	O 	0.45043 0.87462 0.40471 -0.28100
Zn	Zn	0.65607 0.00018 0.73228 1.21200
Zn	Zn	0.41154 0.02425 0.75145 1.22800
C 	C 	0.12287 0.39088 0.22436 0.36200
C 	C 	0.16265 0.40228 0.28741 -0.06000
C 	C 	0.20973 0.39729 0.27617 -0.00600
H 	H 	0.21873 0.39027 0.22777 0.05400
C 	C 	0.24338 0.40274 0.33643 -0.05000
C 	C 	0.29163 0.39315 0.32676 0.35400
C 	C 	0.23180 0.41502 0.40782 -0.11900
H 	H 	0.25433 0.41757 0.44917 0.08600
C 	C 	0.18665 0.42332 0.41688 0.18600
C 	C 	0.15120 0.41557 0.35737 -0.11400
H 	H 	0.11923 0.41937 0.36457 0.08000
C 	C 	0.20928 0.44954 0.54613 0.28700
H 	H 	0.24843 0.47587 0.53167 -0.05300
H 	H 	0.20693 0.41467 0.56447 -0.05300
C 	C 	0.19026 0.47501 0.60594 -0.61000
H 	H 	0.19513 0.51067 0.58817 0.20800
H 	H 	0.21263 0.48137 0.65107 0.20000
H 	H 	0.15083 0.44957 0.61727 0.20700
C 	C 	0.08932 0.30712 0.94780 0.38500
C 	C 	0.12279 0.28631 0.90735 -0.05300
C 	C 	0.17567 0.30107 0.93248 -0.01000
H 	H 	0.19023 0.32307 0.97617 0.05200
C 	C 	0.20726 0.28329 0.89295 -0.05900
C 	C 	0.26487 0.29919 0.91833 0.36300
C 	C 	0.18593 0.25096 0.82923 -0.12000
H 	H 	0.20733 0.23827 0.80317 0.10000
C 	C 	0.13298 0.23724 0.80364 0.19400
C 	C 	0.10084 0.25395 0.84319 -0.12700
H 	H 	0.06423 0.24347 0.82687 0.09200
C 	C 	0.06870 0.20313 0.70092 0.29800
H 	H 	0.07053 0.23977 0.69957 -0.04600
H 	H 	0.03423 0.17617 0.72747 -0.04800
C 	C 	0.06875 0.18293 0.62268 -0.63100
H 	H 	0.10303 0.20987 0.59707 0.22000
H 	H 	0.03643 0.17917 0.59537 0.21400
H 	H 	0.06693 0.14667 0.62487 0.21400
O 	O 	0.13433 0.37714 0.16254 -0.46000
O 	O 	0.08041 0.39545 0.23562 -0.48600
O 	O 	0.31085 0.39733 0.26089 -0.48000
O 	O 	0.31064 0.38169 0.38304 -0.47200
O 	O 	0.17248 0.43806 0.48325 -0.28300
O 	O 	0.11107 0.33603 0.00536 -0.48400
O 	O 	0.04206 0.29406 0.92135 -0.49300
O 	O 	0.28570 0.33394 0.97128 -0.49200
O 	O 	0.28912 0.27737 0.88467 -0.50500
O 	O 	0.11709 0.20796 0.73805 -0.28100
Zn	Zn	0.32273 0.33352 0.06562 1.21200
Zn	Zn	0.07820 0.35759 0.08479 1.22800
C 	C 	0.72421 0.93467 0.44231 0.36200
C 	C 	0.73561 0.90629 0.37926 -0.06000
C 	C 	0.73062 0.85422 0.39050 -0.00600
H 	H 	0.72360 0.83820 0.43890 0.05400
C 	C 	0.73607 0.82602 0.33024 -0.05000
C 	C 	0.72648 0.76818 0.33991 0.35400
C 	C 	0.74835 0.84988 0.25885 -0.11900
H 	H 	0.75090 0.82990 0.21750 0.08600
C 	C 	0.75665 0.90333 0.24979 0.18600
C 	C 	0.74890 0.93103 0.30930 -0.11400
H 	H 	0.75270 0.96680 0.30210 0.08000
C 	C 	0.78287 0.90692 0.12054 0.28600
H 	H 	0.80920 0.89410 0.13500 -0.05300
H 	H 	0.74800 0.87440 0.10220 -0.05300
C 	C 	0.80834 0.95141 0.06073 -0.60900
H 	H 	0.84400 0.98220 0.07850 0.20800
H 	H 	0.81470 0.93540 0.01560 0.19900
H 	H 	0.78290 0.96540 0.04940 0.20700
C 	C 	0.64045 0.88446 0.71887 0.38300
C 	C 	0.61964 0.83018 0.75932 -0.05300
C 	C 	0.63440 0.79206 0.73419 -0.01100
H 	H 	0.65640 0.79950 0.69050 0.05200
C 	C 	0.61662 0.74269 0.77372 -0.05900
C 	C 	0.63252 0.70098 0.74834 0.36300
C 	C 	0.58429 0.73169 0.83744 -0.12000
H 	H 	0.57160 0.69760 0.86350 0.10000
C 	C 	0.57057 0.77092 0.86303 0.19500
C 	C 	0.58728 0.81977 0.82348 -0.12700
H 	H 	0.57680 0.84590 0.83980 0.09200
C 	C 	0.53646 0.80109 0.96575 0.30000
H 	H 	0.57310 0.83590 0.96710 -0.04700
H 	H 	0.50950 0.80860 0.93920 -0.04900
C 	C 	0.51626 0.78084 0.04399 -0.63500
H 	H 	0.54320 0.77350 0.06960 0.22000
H 	H 	0.51250 0.80940 0.07130 0.21500
H 	H 	0.48000 0.74640 0.04180 0.21400
O 	O 	0.71047 0.90947 0.50413 -0.46000
O 	O 	0.72878 0.98170 0.43105 -0.48600
O 	O 	0.73066 0.75314 0.40578 -0.48000
O 	O 	0.71502 0.73771 0.28363 -0.47200
O 	O 	0.77139 0.93224 0.18342 -0.28300
O 	O 	0.66936 0.89162 0.66131 -0.48200
O 	O 	0.62739 0.91866 0.74532 -0.49300
O 	O 	0.66727 0.71490 0.69539 -0.49200
O 	O 	0.61070 0.65491 0.78200 -0.50500
O 	O 	0.54129 0.75753 0.92862 -0.28100
Zn	Zn	0.66685 0.67745 0.60105 1.21300
Zn	Zn	0.69092 0.94605 0.58188 1.22900
C 	C 	0.39088 0.26800 0.77564 0.36200
C 	C 	0.40228 0.23962 0.71259 -0.06000
C 	C 	0.39729 0.18755 0.72383 -0.00600
H 	H 	0.39027 0.17153 0.77223 0.05400
C 	C 	0.40274 0.15935 0.66357 -0.05000
C 	C 	0.39315 0.10151 0.67324 0.35400
C 	C 	0.41502 0.18321 0.59218 -0.11900
H 	H 	0.41757 0.16323 0.55083 0.08600
C 	C 	0.42332 0.23666 0.58312 0.18600
C 	C 	0.41557 0.26436 0.64263 -0.11400
H 	H 	0.41937 0.30013 0.63543 0.08000
C 	C 	0.44954 0.24025 0.45387 0.28700
H 	H 	0.47587 0.22743 0.46833 -0.05300
H 	H 	0.41467 0.20773 0.43553 -0.05300
C 	C 	0.47501 0.28474 0.39406 -0.60900
H 	H 	0.51067 0.31553 0.41183 0.20800
H 	H 	0.48137 0.26873 0.34893 0.20000
H 	H 	0.44957 0.29873 0.38273 0.20700
C 	C 	0.30712 0.21779 0.05220 0.38400
C 	C 	0.28631 0.16351 0.09265 -0.05300
C 	C 	0.30107 0.12539 0.06752 -0.01000
H 	H 	0.32307 0.13283 0.02383 0.05200
C 	C 	0.28329 0.07602 0.10705 -0.06000
C 	C 	0.29919 0.03431 0.08167 0.36500
C 	C 	0.25096 0.06502 0.17077 -0.12000
H 	H 	0.23827 0.03093 0.19683 0.10000
C 	C 	0.23724 0.10425 0.19636 0.19400
C 	C 	0.25395 0.15310 0.15681 -0.12700
H 	H 	0.24347 0.17923 0.17313 0.09200
C 	C 	0.20313 0.13442 0.29908 0.29800
H 	H 	0.23977 0.16923 0.30043 -0.04600
H 	H 	0.17617 0.14193 0.27253 -0.04800
C 	C 	0.18293 0.11417 0.37732 -0.63200
H 	H 	0.20987 0.10683 0.40293 0.22000
H 	H 	0.17917 0.14273 0.40463 0.21400
H 	H 	0.14667 0.07973 0.37513 0.21400
O 	O 	0.37714 0.24280 0.83746 -0.46000
O 	O 	0.39545 0.31503 0.76438 -0.48500
O 	O 	0.39733 0.08647 0.73911 -0.48000
O 	O 	0.38169 0.07104 0.61696 -0.47200
O 	O 	0.43806 0.26557 0.51675 -0.28300
O 	O 	0.33603 0.22495 0.99464 -0.48300
O 	O 	0.29406 0.25199 0.07865 -0.49300
O 	O 	0.33394 0.04823 0.02872 -0.49200
O 	O 	0.27737 0.98824 0.11533 -0.50700
O 	O 	0.20796 0.09086 0.26195 -0.28100
Zn	Zn	0.33352 0.01078 0.93438 1.21200
Zn	Zn	0.35759 0.27938 0.91521 1.22900
C 	C 	0.05754 0.60134 0.10898 0.36200
C 	C 	0.06894 0.57296 0.04593 -0.06200
C 	C 	0.06395 0.52089 0.05717 -0.01000
H 	H 	0.05693 0.50487 0.10557 0.05500
C 	C 	0.06940 0.49269 0.99691 -0.04400
C 	C 	0.05981 0.43485 0.00658 0.34800
C 	C 	0.08168 0.51655 0.92552 -0.12100
H 	H 	0.08423 0.49657 0.88417 0.08700
C 	C 	0.08998 0.57000 0.91646 0.18600
C 	C 	0.08223 0.59770 0.97597 -0.11100
H 	H 	0.08603 0.63347 0.96877 0.08000
C 	C 	0.11620 0.57359 0.78721 0.28600
H 	H 	0.14253 0.56077 0.80167 -0.05300
H 	H 	0.08133 0.54107 0.76887 -0.05300
C 	C 	0.14167 0.61808 0.72740 -0.60900
H 	H 	0.17733 0.64887 0.74517 0.20800
H 	H 	0.14803 0.60207 0.68227 0.20000
H 	H 	0.11623 0.63207 0.71607 0.20700
C 	C 	0.97378 0.55113 0.38554 0.38400
C 	C 	0.95297 0.49685 0.42599 -0.05300
C 	C 	0.96773 0.45873 0.40086 -0.01000
H 	H 	0.98973 0.46617 0.35717 0.05300
C 	C 	0.94995 0.40936 0.44039 -0.05900
C 	C 	0.96585 0.36765 0.41501 0.36400
C 	C 	0.91762 0.39836 0.50411 -0.12000
H 	H 	0.90493 0.36427 0.53017 0.10000
C 	C 	0.90390 0.43759 0.52970 0.19400
C 	C 	0.92061 0.48644 0.49015 -0.12700
H 	H 	0.91013 0.51257 0.50647 0.09200
C 	C 	0.86979 0.46776 0.63242 0.29800
H 	H 	0.90643 0.50257 0.63377 -0.04600
H 	H 	0.84283 0.47527 0.60587 -0.04800
C 	C 	0.84959 0.44751 0.71066 -0.63100
H 	H 	0.87653 0.44017 0.73627 0.21900
H 	H 	0.84583 0.47607 0.73797 0.21400
H 	H 	0.81333 0.41307 0.70847 0.21400
O 	O 	0.04380 0.57614 0.17080 -0.46100
O 	O 	0.06211 0.64837 0.09772 -0.48700
O 	O 	0.06399 0.41981 0.07245 -0.47900
O 	O 	0.04835 0.40438 0.95030 -0.46900
O 	O 	0.10472 0.59891 0.85009 -0.28300
O 	O 	0.00269 0.55829 0.32798 -0.48300
O 	O 	0.96072 0.58533 0.41199 -0.49300
O 	O 	0.00060 0.38157 0.36206 -0.49300
O 	O 	0.94403 0.32158 0.44867 -0.50500
O 	O 	0.87462 0.42420 0.59529 -0.28100
Zn	Zn	0.00018 0.34412 0.26772 1.21200
Zn	Zn	0.02425 0.61272 0.24855 1.22800
C 	C 	0.06533 0.78954 0.44231 0.36200
C 	C 	0.09371 0.82932 0.37926 -0.06000
C 	C 	0.14578 0.87640 0.39050 -0.00600
H 	H 	0.16180 0.88540 0.43890 0.05400
C 	C 	0.17398 0.91005 0.33024 -0.05000
C 	C 	0.23182 0.95830 0.33991 0.35400
C 	C 	0.15012 0.89847 0.25885 -0.11900
H 	H 	0.17010 0.92100 0.21750 0.08600
C 	C 	0.09667 0.85332 0.24979 0.18600
C 	C 	0.06897 0.81787 0.30930 -0.11400
H 	H 	0.03320 0.78590 0.30210 0.08000
C 	C 	0.09308 0.87595 0.12054 0.28500
H 	H 	0.10590 0.91510 0.13500 -0.05300
H 	H 	0.12560 0.87360 0.10220 -0.05300
C 	C 	0.04859 0.85693 0.06073 -0.60700
H 	H 	0.01780 0.86180 0.07850 0.20700
H 	H 	0.06460 0.87930 0.01560 0.19800
H 	H 	0.03460 0.81750 0.04940 0.20500
C 	C 	0.11554 0.75599 0.71887 0.38300
C 	C 	0.16982 0.78946 0.75932 -0.05300
C 	C 	0.20794 0.84234 0.73419 -0.01100
H 	H 	0.20050 0.85690 0.69050 0.05200
C 	C 	0.25731 0.87393 0.77372 -0.05900
C 	C 	0.29902 0.93154 0.74834 0.36300
C 	C 	0.26831 0.85260 0.83744 -0.12000
H 	H 	0.30240 0.87400 0.86350 0.10000
C 	C 	0.22908 0.79965 0.86303 0.19500
C 	C 	0.18023 0.76751 0.82348 -0.12700
H 	H 	0.15410 0.73090 0.83980 0.09200
C 	C 	0.19891 0.73537 0.96575 0.30300
H 	H 	0.16410 0.73720 0.96710 -0.04700
H 	H 	0.19140 0.70090 0.93920 -0.04900
C 	C 	0.21916 0.73542 0.04399 -0.63800
H 	H 	0.22650 0.76970 0.06960 0.22100
H 	H 	0.19060 0.70310 0.07130 0.21600
H 	H 	0.25360 0.73360 0.04180 0.21500
O 	O 	0.09053 0.80100 0.50413 -0.46000
O 	O 	0.01830 0.74708 0.43105 -0.48500
O 	O 	0.24686 0.97752 0.40578 -0.48000
O 	O 	0.26229 0.97731 0.28363 -0.47200
O 	O 	0.06776 0.83915 0.18342 -0.28300
O 	O 	0.10838 0.77774 0.66131 -0.48200
O 	O 	0.08134 0.70873 0.74532 -0.49300
O 	O 	0.28510 0.95237 0.69539 -0.49200
O 	O 	0.34509 0.95579 0.78200 -0.50500
O 	O 	0.24247 0.78376 0.92862 -0.28100
Zn	Zn	0.32255 0.98940 0.60105 1.21300
Zn	Zn	0.05395 0.74487 0.58188 1.22900
C 	C 	0.73200 0.12287 0.77564 0.36200
C 	C 	0.76038 0.16265 0.71259 -0.06000
C 	C 	0.81245 0.20973 0.72383 -0.00600
H 	H 	0.82847 0.21873 0.77223 0.05400
C 	C 	0.84065 0.24338 0.66357 -0.05000
C 	C 	0.89849 0.29163 0.67324 0.35400
C 	C 	0.81679 0.23180 0.59218 -0.11900
H 	H 	0.83677 0.25433 0.55083 0.08600
C 	C 	0.76334 0.18665 0.58312 0.18600
C 	C 	0.73564 0.15120 0.64263 -0.11400
H 	H 	0.69987 0.11923 0.63543 0.08000
C 	C 	0.75975 0.20928 0.45387 0.28700
H 	H 	0.77257 0.24843 0.46833 -0.05300
H 	H 	0.79227 0.20693 0.43553 -0.05300
C 	C 	0.71526 0.19026 0.39406 -0.61000
H 	H 	0.68447 0.19513 0.41183 0.20800
H 	H 	0.73127 0.21263 0.34893 0.20000
H 	H 	0.70127 0.15083 0.38273 0.20700
C 	C 	0.78221 0.08932 0.05220 0.38800
C 	C 	0.83649 0.12279 0.09265 -0.05300
C 	C 	0.87461 0.17567 0.06752 -0.00900
H 	H 	0.86717 0.19023 0.02383 0.05300
C 	C 	0.92398 0.20726 0.10705 -0.06000
C 	C 	0.96569 0.26487 0.08167 0.36600
C 	C 	0.93498 0.18593 0.17077 -0.11900
H 	H 	0.96907 0.20733 0.19683 0.10000
C 	C 	0.89575 0.13298 0.19636 0.19400
C 	C 	0.84690 0.10084 0.15681 -0.12600
H 	H 	0.82077 0.06423 0.17313 0.09200
C 	C 	0.86558 0.06870 0.29908 0.29800
H 	H 	0.83077 0.07053 0.30043 -0.04600
H 	H 	0.85807 0.03423 0.27253 -0.04800
C 	C 	0.88583 0.06875 0.37732 -0.63200
H 	H 	0.89317 0.10303 0.40293 0.22000
H 	H 	0.85727 0.03643 0.40463 0.21500
H 	H 	0.92027 0.06693 0.37513 0.21500
O 	O 	0.75720 0.13433 0.83746 -0.46100
O 	O 	0.68497 0.08041 0.76438 -0.48600
O 	O 	0.91353 0.31085 0.73911 -0.48000
O 	O 	0.92896 0.31064 0.61696 -0.47200
O 	O 	0.73443 0.17248 0.51675 -0.28300
O 	O 	0.77505 0.11107 0.99464 -0.48600
O 	O 	0.74801 0.04206 0.07865 -0.49300
O 	O 	0.95177 0.28570 0.02872 -0.49100
O 	O 	0.01176 0.28912 0.11533 -0.50700
O 	O 	0.90914 0.11709 0.26195 -0.28000
Zn	Zn	0.98922 0.32273 0.93438 1.21200
Zn	Zn	0.72062 0.07820 0.91521 1.22800
C 	C 	0.39866 0.45621 0.10898 0.36200
C 	C 	0.42704 0.49599 0.04593 -0.06000
C 	C 	0.47911 0.54307 0.05717 -0.00700
H 	H 	0.49513 0.55207 0.10557 0.05400
C 	C 	0.50731 0.57672 0.99691 -0.04900
C 	C 	0.56515 0.62497 0.00658 0.35300
C 	C 	0.48345 0.56514 0.92552 -0.11900
H 	H 	0.50343 0.58767 0.88417 0.08600
C 	C 	0.43000 0.51999 0.91646 0.18600
C 	C 	0.40230 0.48454 0.97597 -0.11400
H 	H 	0.36653 0.45257 0.96877 0.08000
C 	C 	0.42641 0.54262 0.78721 0.28700
H 	H 	0.43923 0.58177 0.80167 -0.05300
H 	H 	0.45893 0.54027 0.76887 -0.05300
C 	C 	0.38192 0.52360 0.72740 -0.61000
H 	H 	0.35113 0.52847 0.74517 0.20800
H 	H 	0.39793 0.54597 0.68227 0.20000
H 	H 	0.36793 0.48417 0.71607 0.20700
C 	C 	0.44887 0.42266 0.38554 0.38300
C 	C 	0.50315 0.45613 0.42599 -0.05300
C 	C 	0.54127 0.50901 0.40086 -0.01000
H 	H 	0.53383 0.52357 0.35717 0.05200
C 	C 	0.59064 0.54060 0.44039 -0.05900
C 	C 	0.63235 0.59821 0.41501 0.36300
C 	C 	0.60164 0.51927 0.50411 -0.12000
H 	H 	0.63573 0.54067 0.53017 0.10000
C 	C 	0.56241 0.46632 0.52970 0.19400
C 	C 	0.51356 0.43418 0.49015 -0.12700
H 	H 	0.48743 0.39757 0.50647 0.09200
C 	C 	0.53224 0.40204 0.63242 0.29800
H 	H 	0.49743 0.40387 0.63377 -0.04600
H 	H 	0.52473 0.36757 0.60587 -0.04800
C 	C 	0.55249 0.40209 0.71066 -0.63100
H 	H 	0.55983 0.43637 0.73627 0.22000
H 	H 	0.52393 0.36977 0.73797 0.21400
H 	H 	0.58693 0.40027 0.70847 0.21400
O 	O 	0.42386 0.46767 0.17080 -0.46000
O 	O 	0.35163 0.41375 0.09772 -0.48600
O 	O 	0.58019 0.64419 0.07245 -0.48000
O 	O 	0.59562 0.64398 0.95030 -0.47100
O 	O 	0.40109 0.50582 0.85009 -0.28300
O 	O 	0.44171 0.44441 0.32798 -0.48200
O 	O 	0.41467 0.37540 0.41199 -0.49300
O 	O 	0.61843 0.61904 0.36206 -0.49200
O 	O 	0.67842 0.62246 0.44867 -0.50500
O 	O 	0.57580 0.45043 0.59529 -0.28100
Zn	Zn	0.65588 0.65607 0.26772 1.21300
Zn	Zn	0.38728 0.41154 0.24855 1.22900
C 	C 	0.21046 0.27579 0.44231 0.36200
C 	C 	0.17068 0.26439 0.37926 -0.06000
C 	C 	0.12360 0.26938 0.39050 -0.00600
H 	H 	0.11460 0.27640 0.43890 0.05400
C 	C 	0.08995 0.26393 0.33024 -0.05000
C 	C 	0.04170 0.27352 0.33991 0.35400
C 	C 	0.10153 0.25165 0.25885 -0.11900
H 	H 	0.07900 0.24910 0.21750 0.08600
C 	C 	0.14668 0.24335 0.24979 0.18600
C 	C 	0.18213 0.25110 0.30930 -0.11400
H 	H 	0.21410 0.24730 0.30210 0.08000
C 	C 	0.12405 0.21713 0.12054 0.28700
H 	H 	0.08490 0.19080 0.13500 -0.05300
H 	H 	0.12640 0.25200 0.10220 -0.05300
C 	C 	0.14307 0.19166 0.06073 -0.61000
H 	H 	0.13820 0.15600 0.07850 0.20800
H 	H 	0.12070 0.18530 0.01560 0.20000
H 	H 	0.18250 0.21710 0.04940 0.20700
C 	C 	0.24401 0.35955 0.71887 0.38300
C 	C 	0.21054 0.38036 0.75932 -0.05300
C 	C 	0.15766 0.36560 0.73419 -0.01100
H 	H 	0.14310 0.34360 0.69050 0.05200
C 	C 	0.12607 0.38338 0.77372 -0.05900
C 	C 	0.06846 0.36748 0.74834 0.36300
C 	C 	0.14740 0.41571 0.83744 -0.12000
H 	H 	0.12600 0.42840 0.86350 0.10000
C 	C 	0.20035 0.42943 0.86303 0.19400
C 	C 	0.23249 0.41272 0.82348 -0.12700
H 	H 	0.26910 0.42320 0.83980 0.09200
C 	C 	0.26463 0.46354 0.96575 0.30000
H 	H 	0.26280 0.42690 0.96710 -0.04700
H 	H 	0.29910 0.49050 0.93920 -0.04900
C 	C 	0.26458 0.48374 0.04399 -0.63400
H 	H 	0.23030 0.45680 0.06960 0.22000
H 	H 	0.29690 0.48750 0.07130 0.21500
H 	H 	0.26640 0.52000 0.04180 0.21400
O 	O 	0.19900 0.28953 0.50413 -0.46000
O 	O 	0.25292 0.27122 0.43105 -0.48500
O 	O 	0.02248 0.26934 0.40578 -0.48000
O 	O 	0.02269 0.28498 0.28363 -0.47200
O 	O 	0.16085 0.22861 0.18342 -0.28300
O 	O 	0.22226 0.33064 0.66131 -0.48200
O 	O 	0.29127 0.37261 0.74532 -0.49300
O 	O 	0.04763 0.33273 0.69539 -0.49200
O 	O 	0.04421 0.38930 0.78200 -0.50500
O 	O 	0.21624 0.45871 0.92862 -0.28100
Zn	Zn	0.01060 0.33315 0.60105 1.21300
Zn	Zn	0.25513 0.30908 0.58188 1.22900
C 	C 	0.87713 0.60912 0.77564 0.36200
C 	C 	0.83735 0.59772 0.71259 -0.06000
C 	C 	0.79027 0.60271 0.72383 -0.00600
H 	H 	0.78127 0.60973 0.77223 0.05400
C 	C 	0.75662 0.59726 0.66357 -0.05000
C 	C 	0.70837 0.60685 0.67324 0.35400
C 	C 	0.76820 0.58498 0.59218 -0.11900
H 	H 	0.74567 0.58243 0.55083 0.08600
C 	C 	0.81335 0.57668 0.58312 0.18600
C 	C 	0.84880 0.58443 0.64263 -0.11400
H 	H 	0.88077 0.58063 0.63543 0.08000
C 	C 	0.79072 0.55046 0.45387 0.28700
H 	H 	0.75157 0.52413 0.46833 -0.05300
H 	H 	0.79307 0.58533 0.43553 -0.05300
C 	C 	0.80974 0.52499 0.39406 -0.61000
H 	H 	0.80487 0.48933 0.41183 0.20800
H 	H 	0.78737 0.51863 0.34893 0.20000
H 	H 	0.84917 0.55043 0.38273 0.20700
C 	C 	0.91068 0.69288 0.05220 0.38500
C 	C 	0.87721 0.71369 0.09265 -0.05300
C 	C 	0.82433 0.69893 0.06752 -0.01000
H 	H 	0.80977 0.67693 0.02383 0.05200
C 	C 	0.79274 0.71671 0.10705 -0.05900
C 	C 	0.73513 0.70081 0.08167 0.36300
C 	C 	0.81407 0.74904 0.17077 -0.12000
H 	H 	0.79267 0.76173 0.19683 0.10000
C 	C 	0.86702 0.76276 0.19636 0.19400
C 	C 	0.89916 0.74605 0.15681 -0.12700
H 	H 	0.93577 0.75653 0.17313 0.09200
C 	C 	0.93130 0.79687 0.29908 0.29800
H 	H 	0.92947 0.76023 0.30043 -0.04600
H 	H 	0.96577 0.82383 0.27253 -0.04800
C 	C 	0.93125 0.81707 0.37732 -0.63100
H 	H 	0.89697 0.79013 0.40293 0.22000
H 	H 	0.96357 0.82083 0.40463 0.21400
H 	H 	0.93307 0.85333 0.37513 0.21400
O 	O 	0.86567 0.62286 0.83746 -0.46000
O 	O 	0.91959 0.60455 0.76438 -0.48600
O 	O 	0.68915 0.60267 0.73911 -0.48000
O 	O 	0.68936 0.61831 0.61696 -0.47200
O 	O 	0.82752 0.56194 0.51675 -0.28300
O 	O 	0.88893 0.66397 0.99464 -0.48400
O 	O 	0.95794 0.70594 0.07865 -0.49300
O 	O 	0.71430 0.66606 0.02872 -0.49200
O 	O 	0.71088 0.72263 0.11533 -0.50500
O 	O 	0.88291 0.79204 0.26195 -0.28100
Zn	Zn	0.67727 0.66648 0.93438 1.21200
Zn	Zn	0.92180 0.64241 0.91521 1.22800
C 	C 	0.54379 0.94246 0.10898 0.36100
C 	C 	0.50401 0.93106 0.04593 -0.06000
C 	C 	0.45693 0.93605 0.05717 -0.01200
H 	H 	0.44793 0.94307 0.10557 0.05500
C 	C 	0.42328 0.93060 0.99691 -0.04100
C 	C 	0.37503 0.94019 0.00658 0.34600
C 	C 	0.43486 0.91832 0.92552 -0.12200
H 	H 	0.41233 0.91577 0.88417 0.08700
C 	C 	0.48001 0.91002 0.91646 0.18700
C 	C 	0.51546 0.91777 0.97597 -0.11300
H 	H 	0.54743 0.91397 0.96877 0.08100
C 	C 	0.45738 0.88380 0.78721 0.28700
H 	H 	0.41823 0.85747 0.80167 -0.05300
H 	H 	0.45973 0.91867 0.76887 -0.05300
C 	C 	0.47640 0.85833 0.72740 -0.61000
H 	H 	0.47153 0.82267 0.74517 0.20800
H 	H 	0.45403 0.85197 0.68227 0.20000
H 	H 	0.51583 0.88377 0.71607 0.20700
C 	C 	0.57734 0.02622 0.38554 0.38500
C 	C 	0.54387 0.04703 0.42599 -0.05300
C 	C 	0.49099 0.03227 0.40086 -0.01000
H 	H 	0.47643 0.01027 0.35717 0.05300
C 	C 	0.45940 0.05005 0.44039 -0.05900
C 	C 	0.40179 0.03415 0.41501 0.36300
C 	C 	0.48073 0.08238 0.50411 -0.12000
H 	H 	0.45933 0.09507 0.53017 0.10000
C 	C 	0.53368 0.09610 0.52970 0.19400
C 	C 	0.56582 0.07939 0.49015 -0.12700
H 	H 	0.60243 0.08987 0.50647 0.09200
C 	C 	0.59796 0.13021 0.63242 0.29800
H 	H 	0.59613 0.09357 0.63377 -0.04600
H 	H 	0.63243 0.15717 0.60587 -0.04800
C 	C 	0.59791 0.15041 0.71066 -0.63100
H 	H 	0.56363 0.12347 0.73627 0.21900
H 	H 	0.63023 0.15417 0.73797 0.21400
H 	H 	0.59973 0.18667 0.70847 0.21400
O 	O 	0.53233 0.95620 0.17080 -0.46100
O 	O 	0.58625 0.93789 0.09772 -0.48600
O 	O 	0.35581 0.93601 0.07245 -0.47900
O 	O 	0.35602 0.95165 0.95030 -0.46800
O 	O 	0.49418 0.89528 0.85009 -0.28300
O 	O 	0.55559 0.99731 0.32798 -0.48300
O 	O 	0.62460 0.03928 0.41199 -0.49300
O 	O 	0.38096 0.99940 0.36206 -0.49300
O 	O 	0.37754 0.05597 0.44867 -0.50500
O 	O 	0.54957 0.12538 0.59529 -0.28100
Zn	Zn	0.34393 0.99982 0.26772 1.21200
Zn	Zn	0.58846 0.97575 0.24855 1.22800
