data_crystal

_cell_length_a 22.39920
_cell_length_b 22.39920
_cell_length_c 22.39920
_cell_angle_alpha 109.47100
_cell_angle_beta  109.47100
_cell_angle_gamma 109.47100

_symmetry_space_group_name_	'P 1'
_symmetry_space_group_name_H-M	'P 1'

loop_
_symmetry_equiv_pos_as_xyz
  x,y,z

loop_
_atom_site_label
_atom_site_type_symbol
_atom_site_fract_x
_atom_site_fract_y
_atom_site_fract_z
_atom_site_charge
Zn	Zn	0.50000 0.96262 0.50000 1.22300
Zn	Zn	0.50000 0.80562 0.50000 1.20000
Zn	Zn	0.96262 0.00000 -0.00000 1.20400
Zn	Zn	0.80562 0.00000 -0.00000 1.17800
Zn	Zn	0.53738 0.53738 0.03738 1.21100
Zn	Zn	0.69438 0.69438 0.19438 1.20000
Zn	Zn	-0.00000 0.50000 0.46262 1.20700
Zn	Zn	-0.00000 0.50000 0.30562 1.19000
Zn	Zn	0.50000 0.46262 0.50000 1.21800
Zn	Zn	0.50000 0.30562 0.50000 1.19900
Zn	Zn	0.46262 0.00000 -0.00000 1.19700
Zn	Zn	0.30562 0.00000 -0.00000 1.17900
Zn	Zn	0.00000 0.50000 0.96262 1.21400
Zn	Zn	0.00000 0.50000 0.80562 1.18600
Zn	Zn	0.03738 0.03738 0.53738 1.20600
Zn	Zn	0.19438 0.19438 0.69438 1.19900
H 	H 	0.67690 0.99790 0.46360 -0.01900
H 	H 	0.79330 0.04820 0.48030 0.09900
H 	H 	0.85170 0.97230 0.61800 0.10200
H 	H 	0.73450 0.91920 0.59590 -0.00600
H 	H 	0.92140 0.08750 0.55090 0.09500
H 	H 	0.94790 0.06310 0.60960 0.09300
H 	H 	0.85430 0.89660 0.49510 0.06600
H 	H 	0.93280 0.94210 0.56750 0.07500
H 	H 	0.84290 0.99130 0.42960 0.03800
H 	H 	0.85430 0.92310 0.39840 0.01800
H 	H 	0.03430 0.21330 0.03640 -0.03800
H 	H 	0.06790 0.31300 0.01970 0.04700
H 	H 	0.85430 0.23370 0.88200 0.09600
H 	H 	0.82330 0.13860 0.90410 -0.00500
H 	H 	0.03660 0.37050 0.94910 0.05000
H 	H 	0.95350 0.33830 0.89040 0.06200
H 	H 	0.90150 0.35920 0.00490 -0.00800
H 	H 	0.87460 0.36530 0.93250 0.01900
H 	H 	0.06170 0.41330 0.07040 0.04800
H 	H 	0.02470 0.45590 0.10160 0.03500
H 	H 	0.46570 0.50210 0.17900 -0.01800
H 	H 	0.43210 0.45180 0.24510 0.08700
H 	H 	0.64570 0.52770 0.37940 0.10000
H 	H 	0.67670 0.58080 0.31530 -0.00900
H 	H 	0.46340 0.41250 0.33390 0.08500
H 	H 	0.54650 0.43690 0.38480 0.07800
H 	H 	0.59850 0.60340 0.45770 0.06100
H 	H 	0.62540 0.55790 0.49070 0.05700
H 	H 	0.43830 0.50870 0.35160 0.04700
H 	H 	0.47530 0.57690 0.43120 0.03600
H 	H 	0.82310 0.28670 0.32100 -0.01100
H 	H 	0.70670 0.18700 0.25490 0.08500
H 	H 	0.64830 0.26630 0.12060 0.09300
H 	H 	0.76550 0.36140 0.18470 -0.01000
H 	H 	0.57860 0.12950 0.16610 0.08200
H 	H 	0.55210 0.16170 0.11520 0.07500
H 	H 	0.64570 0.14080 0.04230 0.06600
H 	H 	0.56720 0.13470 0.00930 0.05600
H 	H 	0.65710 0.08670 0.14840 0.05600
H 	H 	0.64570 0.04410 0.06880 0.03200
H 	H 	0.67900 0.46570 0.00210 -0.00700
H 	H 	0.74510 0.43210 0.95180 0.08000
H 	H 	0.87940 0.64570 0.02770 0.10900
H 	H 	0.81530 0.67670 0.08080 -0.01300
H 	H 	0.83390 0.46340 0.91250 0.08400
H 	H 	0.88480 0.54650 0.93690 0.08200
H 	H 	0.95770 0.59850 0.10340 0.05400
H 	H 	0.99070 0.62540 0.05790 0.05000
H 	H 	0.85160 0.43830 0.00870 0.06000
H 	H 	0.93120 0.47530 0.07690 0.06800
H 	H 	0.82100 0.82310 0.78670 -0.00600
H 	H 	0.75490 0.70670 0.68700 0.09000
H 	H 	0.62060 0.64830 0.76630 0.09900
H 	H 	0.68470 0.76550 0.86140 -0.00300
H 	H 	0.66610 0.57860 0.62950 0.08700
H 	H 	0.61520 0.55210 0.66170 0.07900
H 	H 	0.54230 0.64570 0.64080 0.06200
H 	H 	0.50930 0.56720 0.63470 0.05700
H 	H 	0.64840 0.65710 0.58670 0.04900
H 	H 	0.56880 0.64570 0.54410 0.03600
H 	H 	0.96360 0.67690 0.49790 -0.08900
H 	H 	0.98030 0.79330 0.54820 0.20400
H 	H 	0.11800 0.85170 0.47230 0.14400
H 	H 	0.09590 0.73450 0.41920 -0.05500
H 	H 	0.05090 0.92140 0.58750 0.10400
H 	H 	0.10960 0.94790 0.56310 0.11000
H 	H 	0.99510 0.85430 0.39660 0.13100
H 	H 	0.06750 0.93280 0.44210 0.10100
H 	H 	0.92960 0.84290 0.49130 0.04800
H 	H 	0.89840 0.85430 0.42310 0.03400
H 	H 	0.53640 0.03430 0.71330 -0.09200
H 	H 	0.51970 0.06790 0.81300 0.14700
H 	H 	0.38200 0.85430 0.73370 0.12800
H 	H 	0.40410 0.82330 0.63860 -0.03800
H 	H 	0.44910 0.03660 0.87050 0.07800
H 	H 	0.39040 0.95350 0.83830 0.08500
H 	H 	0.50490 0.90150 0.85920 0.06600
H 	H 	0.43250 0.87460 0.86530 0.05900
H 	H 	0.57040 0.06170 0.91330 0.03900
H 	H 	0.60160 0.02470 0.95590 0.02900
H 	H 	0.21330 0.53640 0.53430 -0.01400
H 	H 	0.31300 0.51970 0.56790 0.09000
H 	H 	0.23370 0.38200 0.35430 0.09900
H 	H 	0.13860 0.40410 0.32330 -0.01600
H 	H 	0.37050 0.44910 0.53660 0.08600
H 	H 	0.33830 0.39040 0.45350 0.07800
H 	H 	0.35920 0.50490 0.40150 0.06000
H 	H 	0.36530 0.43250 0.37460 0.05600
H 	H 	0.41330 0.57040 0.56170 0.04800
H 	H 	0.45590 0.60160 0.52470 0.03600
H 	H 	0.99790 0.96360 0.17690 -0.08200
H 	H 	0.04820 0.98030 0.29330 0.18900
H 	H 	0.97230 0.11800 0.35170 0.12900
H 	H 	0.91920 0.09590 0.23450 -0.04200
H 	H 	0.08750 0.05090 0.42140 0.09900
H 	H 	0.06310 0.10960 0.44790 0.09500
H 	H 	0.89660 0.99510 0.35430 0.11800
H 	H 	0.94210 0.06750 0.43280 0.09000
H 	H 	0.99130 0.92960 0.34290 0.03600
H 	H 	0.92310 0.89840 0.35430 0.01000
H 	H 	0.28670 0.82100 0.32310 -0.00900
H 	H 	0.18700 0.75490 0.20670 0.08500
H 	H 	0.26630 0.62060 0.14830 0.09400
H 	H 	0.36140 0.68470 0.26550 -0.00900
H 	H 	0.12950 0.66610 0.07860 0.07500
H 	H 	0.16170 0.61520 0.05210 0.06500
H 	H 	0.14080 0.54230 0.14570 0.05400
H 	H 	0.13470 0.50930 0.06720 0.04000
H 	H 	0.08670 0.64840 0.15710 0.05600
H 	H 	0.04410 0.56880 0.14570 0.03800
H 	H 	0.50210 0.67900 0.96570 0.08800
H 	H 	0.45180 0.74510 0.93210 0.02100
H 	H 	0.52770 0.87940 0.14570 0.06800
H 	H 	0.58080 0.81530 0.17670 0.02800
H 	H 	0.41250 0.83390 0.96340 0.10400
H 	H 	0.43690 0.88480 0.04650 0.07500
H 	H 	0.60340 0.95770 0.09850 0.05200
H 	H 	0.55790 0.99070 0.12540 0.05700
H 	H 	0.50870 0.85160 0.93830 0.04700
H 	H 	0.57690 0.93120 0.97530 0.04600
H 	H 	0.71330 0.53430 0.53640 -0.01300
H 	H 	0.81300 0.56790 0.51970 0.09400
H 	H 	0.73370 0.35430 0.38200 0.10000
H 	H 	0.63860 0.32330 0.40410 -0.01200
H 	H 	0.87050 0.53660 0.44910 0.09200
H 	H 	0.83830 0.45350 0.39040 0.08000
H 	H 	0.85920 0.40150 0.50490 0.06400
H 	H 	0.86530 0.37460 0.43250 0.06000
H 	H 	0.91330 0.56170 0.57040 0.04000
H 	H 	0.95590 0.52470 0.60160 0.03200
H 	H 	0.49790 0.17690 0.96360 -0.09400
H 	H 	0.54820 0.29330 0.98030 0.20700
H 	H 	0.47230 0.35170 0.11800 0.14100
H 	H 	0.41920 0.23450 0.09590 -0.05800
H 	H 	0.58750 0.42140 0.05090 0.10000
H 	H 	0.56310 0.44790 0.10960 0.10000
H 	H 	0.39660 0.35430 0.99510 0.12900
H 	H 	0.44210 0.43280 0.06750 0.09100
H 	H 	0.49130 0.34290 0.92960 0.04800
H 	H 	0.42310 0.35430 0.89840 0.03200
H 	H 	0.78670 0.32310 0.82100 -0.00700
H 	H 	0.68700 0.20670 0.75490 0.08900
H 	H 	0.76630 0.14830 0.62060 0.09500
H 	H 	0.86140 0.26550 0.68470 -0.00400
H 	H 	0.62950 0.07860 0.66610 0.08100
H 	H 	0.66170 0.05210 0.61520 0.06800
H 	H 	0.64080 0.14570 0.54230 0.05800
H 	H 	0.63470 0.06720 0.50930 0.04600
H 	H 	0.58670 0.15710 0.64840 0.04900
H 	H 	0.54410 0.14570 0.56880 0.03400
H 	H 	0.00210 0.96570 0.67900 0.06700
H 	H 	0.95180 0.93210 0.74510 0.02900
H 	H 	0.02770 0.14570 0.87940 0.08200
H 	H 	0.08080 0.17670 0.81530 0.01300
H 	H 	0.91250 0.96340 0.83390 0.10000
H 	H 	0.93690 0.04650 0.88480 0.07900
H 	H 	0.10340 0.09850 0.95770 0.05000
H 	H 	0.05790 0.12540 0.99070 0.05100
H 	H 	0.00870 0.93830 0.85160 0.06000
H 	H 	0.07690 0.97530 0.93120 0.07000
H 	H 	0.17690 0.46360 0.99790 -0.02200
H 	H 	0.29330 0.48030 0.04820 0.09800
H 	H 	0.35170 0.61800 0.97230 0.09600
H 	H 	0.23450 0.59590 0.91920 -0.00600
H 	H 	0.42140 0.55090 0.08750 0.08900
H 	H 	0.44790 0.60960 0.06310 0.07900
H 	H 	0.35430 0.49510 0.89660 0.06200
H 	H 	0.43280 0.56750 0.94210 0.06200
H 	H 	0.34290 0.42960 0.99130 0.03500
H 	H 	0.35430 0.39840 0.92310 0.01200
H 	H 	0.53430 0.03640 0.21330 0.04800
H 	H 	0.56790 0.01970 0.31300 -0.00400
H 	H 	0.35430 0.88200 0.23370 0.06600
H 	H 	0.32330 0.90410 0.13860 0.02100
H 	H 	0.53660 0.94910 0.37050 0.07600
H 	H 	0.45350 0.89040 0.33830 0.06200
H 	H 	0.40150 0.00490 0.35920 0.00500
H 	H 	0.37460 0.93250 0.36530 0.02900
H 	H 	0.56170 0.07040 0.41330 0.04700
H 	H 	0.52470 0.10160 0.45590 0.03800
H 	H 	0.96570 0.17900 0.50210 0.08800
H 	H 	0.93210 0.24510 0.45180 0.01600
H 	H 	0.14570 0.37940 0.52770 0.06200
H 	H 	0.17670 0.31530 0.58080 0.02700
H 	H 	0.96340 0.33390 0.41250 0.10700
H 	H 	0.04650 0.38480 0.43690 0.07300
H 	H 	0.09850 0.45770 0.60340 0.05700
H 	H 	0.12540 0.49070 0.55790 0.05800
H 	H 	0.93830 0.35160 0.50870 0.04700
H 	H 	0.97530 0.43120 0.57690 0.04000
H 	H 	0.32310 0.32100 0.28670 -0.01300
H 	H 	0.20670 0.25490 0.18700 0.08300
H 	H 	0.14830 0.12060 0.26630 0.09000
H 	H 	0.26550 0.18470 0.36140 -0.01100
H 	H 	0.07860 0.16610 0.12950 0.07500
H 	H 	0.05210 0.11520 0.16170 0.06300
H 	H 	0.14570 0.04230 0.14080 0.06000
H 	H 	0.06720 0.00930 0.13470 0.04300
H 	H 	0.15710 0.14840 0.08670 0.05600
H 	H 	0.14570 0.06880 0.04410 0.03200
H 	H 	0.17900 0.00210 0.46570 -0.01300
H 	H 	0.24510 0.95180 0.43210 0.08000
H 	H 	0.37940 0.02770 0.64570 0.10400
H 	H 	0.31530 0.08080 0.67670 -0.01400
H 	H 	0.33390 0.91250 0.46340 0.08400
H 	H 	0.38480 0.93690 0.54650 0.07900
H 	H 	0.45770 0.10340 0.59850 0.06000
H 	H 	0.49070 0.05790 0.62540 0.05300
H 	H 	0.35160 0.00870 0.43830 0.05700
H 	H 	0.43120 0.07690 0.47530 0.05400
H 	H 	0.32100 0.78670 0.82310 -0.01100
H 	H 	0.25490 0.68700 0.70670 0.08800
H 	H 	0.12060 0.76630 0.64830 0.09400
H 	H 	0.18470 0.86140 0.76550 -0.00700
H 	H 	0.16610 0.62950 0.57860 0.08600
H 	H 	0.11520 0.66170 0.55210 0.07600
H 	H 	0.04230 0.64080 0.64570 0.06800
H 	H 	0.00930 0.63470 0.56720 0.05900
H 	H 	0.14840 0.58670 0.65710 0.04800
H 	H 	0.06880 0.54410 0.64570 0.02700
H 	H 	0.46360 0.49790 0.67690 -0.01500
H 	H 	0.48030 0.54820 0.79330 0.09100
H 	H 	0.61800 0.47230 0.85170 0.10600
H 	H 	0.59590 0.41920 0.73450 -0.01100
H 	H 	0.55090 0.58750 0.92140 0.09400
H 	H 	0.60960 0.56310 0.94790 0.09300
H 	H 	0.49510 0.39660 0.85430 0.06500
H 	H 	0.56750 0.44210 0.93280 0.07000
H 	H 	0.42960 0.49130 0.84290 0.04700
H 	H 	0.39840 0.42310 0.85430 0.03600
H 	H 	0.03640 0.71330 0.03430 -0.03500
H 	H 	0.01970 0.81300 0.06790 0.05300
H 	H 	0.88200 0.73370 0.85430 0.09700
H 	H 	0.90410 0.63860 0.82330 -0.00200
H 	H 	0.94910 0.87050 0.03660 0.05700
H 	H 	0.89040 0.83830 0.95350 0.06500
H 	H 	0.00490 0.85920 0.90150 -0.00700
H 	H 	0.93250 0.86530 0.87460 0.02200
H 	H 	0.07040 0.91330 0.06170 0.04100
H 	H 	0.10160 0.95590 0.02470 0.03200
C 	C 	0.61610 0.91800 0.51210 0.45900
C 	C 	0.69320 0.95130 0.52590 -0.22400
C 	C 	0.71250 0.99120 0.49370 0.17800
C 	C 	0.78160 0.02150 0.50390 -0.25700
C 	C 	0.83550 0.01330 0.54960 0.14600
C 	C 	0.81580 0.97620 0.58460 -0.18600
C 	C 	0.74660 0.94550 0.57210 0.13700
C 	C 	0.91150 0.04510 0.55880 -0.21900
C 	C 	0.90740 0.92650 0.51490 -0.12100
C 	C 	0.88030 0.97650 0.43240 0.00300
C 	C 	0.90590 0.10400 0.98790 0.49900
C 	C 	0.92540 0.16730 0.97410 -0.17800
C 	C 	0.99750 0.21880 0.00630 0.10600
C 	C 	0.01760 0.27770 0.99610 -0.16900
C 	C 	0.96370 0.28590 0.95040 0.16400
C 	C 	0.89160 0.23120 0.91540 -0.19500
C 	C 	0.87340 0.17450 0.92790 0.12400
C 	C 	0.98630 0.35270 0.94120 -0.11100
C 	C 	0.91160 0.39250 0.98510 0.04100
C 	C 	0.04410 0.44790 0.06760 -0.13300
C 	C 	0.59410 0.58200 0.19810 0.45200
C 	C 	0.57460 0.54870 0.24190 -0.21700
C 	C 	0.50250 0.50880 0.22130 0.12400
C 	C 	0.48240 0.47850 0.26010 -0.20900
C 	C 	0.53630 0.48670 0.32220 0.16000
C 	C 	0.60840 0.52380 0.33960 -0.21800
C 	C 	0.62660 0.55450 0.30110 0.13700
C 	C 	0.51370 0.45490 0.36640 -0.19100
C 	C 	0.58840 0.57350 0.48090 -0.11200
C 	C 	0.45590 0.52350 0.40380 -0.07300
C 	C 	0.88390 0.39600 0.30190 0.44600
C 	C 	0.80680 0.33270 0.25810 -0.21000
C 	C 	0.78750 0.28120 0.27870 0.11900
C 	C 	0.71840 0.22230 0.23990 -0.20300
C 	C 	0.66450 0.21410 0.17780 0.15500
C 	C 	0.68420 0.26880 0.16040 -0.21300
C 	C 	0.75340 0.32550 0.19890 0.13000
C 	C 	0.58850 0.14730 0.13360 -0.19000
C 	C 	0.59260 0.10750 0.01910 -0.16100
C 	C 	0.61970 0.05210 0.09620 -0.12000
C 	C 	0.69810 0.59410 0.08200 0.44500
C 	C 	0.74190 0.57460 0.04870 -0.20700
C 	C 	0.72130 0.50250 0.00880 0.06100
C 	C 	0.76010 0.48240 0.97850 -0.14900
C 	C 	0.82220 0.53630 0.98670 0.18900
C 	C 	0.83960 0.60840 0.02380 -0.26400
C 	C 	0.80110 0.62660 0.05450 0.14400
C 	C 	0.86640 0.51370 0.95490 -0.16600
C 	C 	0.98090 0.58840 0.07350 -0.06800
C 	C 	0.90380 0.45590 0.02350 -0.16800
C 	C 	0.80190 0.88390 0.89600 0.44400
C 	C 	0.75810 0.80680 0.83270 -0.20400
C 	C 	0.77870 0.78750 0.78120 0.11900
C 	C 	0.73990 0.71840 0.72230 -0.20100
C 	C 	0.67780 0.66450 0.71410 0.15700
C 	C 	0.66040 0.68420 0.76880 -0.21000
C 	C 	0.69890 0.75340 0.82550 0.13100
C 	C 	0.63360 0.58850 0.64730 -0.19000
C 	C 	0.51910 0.59260 0.60750 -0.11300
C 	C 	0.59620 0.61970 0.55210 -0.07300
C 	C 	0.01210 0.61610 0.41800 0.45500
C 	C 	0.02590 0.69320 0.45130 -0.37100
C 	C 	0.99370 0.71250 0.49120 0.38600
C 	C 	0.00390 0.78160 0.52150 -0.47500
C 	C 	0.04960 0.83550 0.51330 0.29300
C 	C 	0.08460 0.81580 0.47620 -0.35300
C 	C 	0.07210 0.74660 0.44550 0.26700
C 	C 	0.05880 0.91150 0.54510 -0.27300
C 	C 	0.01490 0.90740 0.42650 -0.26300
C 	C 	0.93240 0.88030 0.47650 -0.04200
C 	C 	0.48790 0.90590 0.60400 0.48800
C 	C 	0.47410 0.92540 0.66730 -0.30800
C 	C 	0.50630 0.99750 0.71880 0.31400
C 	C 	0.49610 0.01760 0.77770 -0.38100
C 	C 	0.45040 0.96370 0.78590 0.26200
C 	C 	0.41540 0.89160 0.73120 -0.30300
C 	C 	0.42790 0.87340 0.67450 0.22700
C 	C 	0.44120 0.98630 0.85270 -0.19700
C 	C 	0.48510 0.91160 0.89250 -0.11700
C 	C 	0.56760 0.04410 0.94790 -0.03800
C 	C 	0.10400 0.48790 0.40590 0.45400
C 	C 	0.16730 0.47410 0.42540 -0.21900
C 	C 	0.21880 0.50630 0.49750 0.12800
C 	C 	0.27770 0.49610 0.51760 -0.20900
C 	C 	0.28590 0.45040 0.46370 0.16200
C 	C 	0.23120 0.41540 0.39160 -0.22100
C 	C 	0.17450 0.42790 0.37340 0.13900
C 	C 	0.35270 0.44120 0.48630 -0.19200
C 	C 	0.39250 0.48510 0.41160 -0.11200
C 	C 	0.44790 0.56760 0.54410 -0.07300
C 	C 	0.91800 0.01210 0.11610 0.46000
C 	C 	0.95130 0.02590 0.19320 -0.35200
C 	C 	0.99120 0.99370 0.21250 0.39600
C 	C 	0.02150 0.00390 0.28160 -0.47600
C 	C 	0.01330 0.04960 0.33550 0.23800
C 	C 	0.97620 0.08460 0.31580 -0.28300
C 	C 	0.94550 0.07210 0.24660 0.23700
C 	C 	0.04510 0.05880 0.41150 -0.27500
C 	C 	0.92650 0.01490 0.40740 -0.22600
C 	C 	0.97650 0.93240 0.38030 0.04300
C 	C 	0.39600 0.80190 0.38390 0.45000
C 	C 	0.33270 0.75810 0.30680 -0.21000
C 	C 	0.28120 0.77870 0.28750 0.11900
C 	C 	0.22230 0.73990 0.21840 -0.20100
C 	C 	0.21410 0.67780 0.16450 0.15100
C 	C 	0.26880 0.66040 0.18420 -0.21000
C 	C 	0.32550 0.69890 0.25340 0.13000
C 	C 	0.14730 0.63360 0.08850 -0.18200
C 	C 	0.10750 0.51910 0.09260 -0.09200
C 	C 	0.05210 0.59620 0.11970 -0.12000
C 	C 	0.58200 0.69810 0.09410 0.40700
C 	C 	0.54870 0.74190 0.07460 -0.09600
C 	C 	0.50880 0.72130 0.00250 -0.11700
C 	C 	0.47850 0.76010 0.98240 0.01500
C 	C 	0.48670 0.82220 0.03630 0.03200
C 	C 	0.52380 0.83960 0.10840 -0.10800
C 	C 	0.55450 0.80110 0.12660 0.02400
C 	C 	0.45490 0.86640 0.01370 -0.18800
C 	C 	0.57350 0.98090 0.08840 -0.06800
C 	C 	0.52350 0.90380 0.95590 -0.04300
C 	C 	0.60400 0.40590 0.48790 0.45300
C 	C 	0.66730 0.42540 0.47410 -0.21700
C 	C 	0.71880 0.49750 0.50630 0.12800
C 	C 	0.77770 0.51760 0.49610 -0.21000
C 	C 	0.78590 0.46370 0.45040 0.16300
C 	C 	0.73120 0.39160 0.41540 -0.22000
C 	C 	0.67450 0.37340 0.42790 0.13900
C 	C 	0.85270 0.48630 0.44120 -0.19400
C 	C 	0.89250 0.41160 0.48510 -0.12000
C 	C 	0.94790 0.54410 0.56760 -0.02100
C 	C 	0.41800 0.11610 0.01210 0.45400
C 	C 	0.45130 0.19320 0.02590 -0.37900
C 	C 	0.49120 0.21250 0.99370 0.39600
C 	C 	0.52150 0.28160 0.00390 -0.48500
C 	C 	0.51330 0.33550 0.04960 0.29400
C 	C 	0.47620 0.31580 0.08460 -0.35600
C 	C 	0.44550 0.24660 0.07210 0.27100
C 	C 	0.54510 0.41150 0.05880 -0.27100
C 	C 	0.42650 0.40740 0.01490 -0.25700
C 	C 	0.47650 0.38030 0.93240 -0.04200
C 	C 	0.89600 0.38390 0.80190 0.44700
C 	C 	0.83270 0.30680 0.75810 -0.20600
C 	C 	0.78120 0.28750 0.77870 0.11800
C 	C 	0.72230 0.21840 0.73990 -0.20000
C 	C 	0.71410 0.16450 0.67780 0.15300
C 	C 	0.76880 0.18420 0.66040 -0.20900
C 	C 	0.82550 0.25340 0.69890 0.12900
C 	C 	0.64730 0.08850 0.63360 -0.18500
C 	C 	0.60750 0.09260 0.51910 -0.10300
C 	C 	0.55210 0.11970 0.59620 -0.07300
C 	C 	0.08200 0.09410 0.69810 0.41100
C 	C 	0.04870 0.07460 0.74190 -0.11900
C 	C 	0.00880 0.00250 0.72130 -0.11700
C 	C 	0.97850 0.98240 0.76010 0.01700
C 	C 	0.98670 0.03630 0.82220 0.09100
C 	C 	0.02380 0.10840 0.83960 -0.18100
C 	C 	0.05450 0.12660 0.80110 0.05800
C 	C 	0.95490 0.01370 0.86640 -0.16900
C 	C 	0.07350 0.08840 0.98090 -0.06400
C 	C 	0.02350 0.95590 0.90380 -0.15000
C 	C 	0.11610 0.51210 0.91800 0.46100
C 	C 	0.19320 0.52590 0.95130 -0.22700
C 	C 	0.21250 0.49370 0.99120 0.18700
C 	C 	0.28160 0.50390 0.02150 -0.26400
C 	C 	0.33550 0.54960 0.01330 0.13500
C 	C 	0.31580 0.58460 0.97620 -0.17500
C 	C 	0.24660 0.57210 0.94550 0.13300
C 	C 	0.41150 0.55880 0.04510 -0.21600
C 	C 	0.40740 0.51490 0.92650 -0.10800
C 	C 	0.38030 0.43240 0.97650 0.02100
C 	C 	0.40590 0.98790 0.10400 0.45200
C 	C 	0.42540 0.97410 0.16730 -0.09000
C 	C 	0.49750 0.00630 0.21880 -0.08800
C 	C 	0.51760 0.99610 0.27770 0.01100
C 	C 	0.46370 0.95040 0.28590 0.05500
C 	C 	0.39160 0.91540 0.23120 -0.11000
C 	C 	0.37340 0.92790 0.17450 0.03200
C 	C 	0.48630 0.94120 0.35270 -0.13000
C 	C 	0.41160 0.98510 0.39250 0.00400
C 	C 	0.54410 0.06760 0.44790 -0.09700
C 	C 	0.09410 0.19810 0.58200 0.40500
C 	C 	0.07460 0.24190 0.54870 -0.09300
C 	C 	0.00250 0.22130 0.50880 -0.12800
C 	C 	0.98240 0.26010 0.47850 0.02400
C 	C 	0.03630 0.32220 0.48670 0.02600
C 	C 	0.10840 0.33960 0.52380 -0.10500
C 	C 	0.12660 0.30110 0.55450 0.01700
C 	C 	0.01370 0.36640 0.45490 -0.19200
C 	C 	0.08840 0.48090 0.57350 -0.11300
C 	C 	0.95590 0.40380 0.52350 -0.04100
C 	C 	0.38390 0.30190 0.39600 0.45000
C 	C 	0.30680 0.25810 0.33270 -0.21300
C 	C 	0.28750 0.27870 0.28120 0.11900
C 	C 	0.21840 0.23990 0.22230 -0.20300
C 	C 	0.16450 0.17780 0.21410 0.15100
C 	C 	0.18420 0.16040 0.26880 -0.21100
C 	C 	0.25340 0.19890 0.32550 0.12900
C 	C 	0.08850 0.13360 0.14730 -0.18300
C 	C 	0.09260 0.01910 0.10750 -0.13600
C 	C 	0.11970 0.09620 0.05210 -0.12700
C 	C 	0.19810 0.08200 0.59410 0.44700
C 	C 	0.24190 0.04870 0.57460 -0.21200
C 	C 	0.22130 0.00880 0.50250 0.07600
C 	C 	0.26010 0.97850 0.48240 -0.16500
C 	C 	0.32220 0.98670 0.53630 0.18100
C 	C 	0.33960 0.02380 0.60840 -0.25300
C 	C 	0.30110 0.05450 0.62660 0.14100
C 	C 	0.36640 0.95490 0.51370 -0.17300
C 	C 	0.48090 0.07350 0.58840 -0.11500
C 	C 	0.40380 0.02350 0.45590 -0.14800
C 	C 	0.30190 0.89600 0.88390 0.44400
C 	C 	0.25810 0.83270 0.80680 -0.20800
C 	C 	0.27870 0.78120 0.78750 0.11900
C 	C 	0.23990 0.72230 0.71840 -0.20400
C 	C 	0.17780 0.71410 0.66450 0.15700
C 	C 	0.16040 0.76880 0.68420 -0.21200
C 	C 	0.19890 0.82550 0.75340 0.13000
C 	C 	0.13360 0.64730 0.58850 -0.19100
C 	C 	0.01910 0.60750 0.59260 -0.16300
C 	C 	0.09620 0.55210 0.61970 -0.07600
C 	C 	0.51210 0.41800 0.61610 0.45300
C 	C 	0.52590 0.45130 0.69320 -0.21900
C 	C 	0.49370 0.49120 0.71250 0.12900
C 	C 	0.50390 0.52150 0.78160 -0.21200
C 	C 	0.54960 0.51330 0.83550 0.16800
C 	C 	0.58460 0.47620 0.81580 -0.22300
C 	C 	0.57210 0.44550 0.74660 0.14200
C 	C 	0.55880 0.54510 0.91150 -0.20000
C 	C 	0.51490 0.42650 0.90740 -0.12400
C 	C 	0.43240 0.47650 0.88030 -0.07200
C 	C 	0.98790 0.60400 0.90590 0.49500
C 	C 	0.97410 0.66730 0.92540 -0.17700
C 	C 	0.00630 0.71880 0.99750 0.10400
C 	C 	0.99610 0.77770 0.01760 -0.17200
C 	C 	0.95040 0.78590 0.96370 0.16600
C 	C 	0.91540 0.73120 0.89160 -0.19500
C 	C 	0.92790 0.67450 0.87340 0.12400
C 	C 	0.94120 0.85270 0.98630 -0.11800
C 	C 	0.98510 0.89250 0.91160 0.03700
C 	C 	0.06760 0.94790 0.04410 -0.08500
N 	N 	0.92140 0.99120 0.50720 -0.13800
N 	N 	0.98400 0.41420 0.99280 -0.14000
N 	N 	0.51600 0.50880 0.43020 -0.15500
N 	N 	0.57860 0.08580 0.06980 -0.15200
N 	N 	0.93020 0.51600 0.00880 -0.16400
N 	N 	0.56980 0.57860 0.58580 -0.15500
N 	N 	0.00720 0.92140 0.49120 -0.14200
N 	N 	0.49280 0.98400 0.91420 -0.13900
N 	N 	0.41420 0.49280 0.48400 -0.15400
N 	N 	0.99120 0.00720 0.42140 -0.14000
N 	N 	0.08580 0.56980 0.07860 -0.16200
N 	N 	0.50880 0.93020 0.01600 -0.17200
N 	N 	0.91420 0.48400 0.49280 -0.15300
N 	N 	0.49120 0.42140 0.00720 -0.14900
N 	N 	0.58580 0.07860 0.56980 -0.16200
N 	N 	0.00880 0.01600 0.93020 -0.17500
N 	N 	0.42140 0.50720 0.99120 -0.14400
N 	N 	0.48400 0.99280 0.41420 -0.15900
N 	N 	0.01600 0.43020 0.50880 -0.17400
N 	N 	0.07860 0.06980 0.08580 -0.16000
N 	N 	0.43020 0.00880 0.51600 -0.16300
N 	N 	0.06980 0.58580 0.57860 -0.15300
N 	N 	0.50720 0.49120 0.92140 -0.14600
N 	N 	0.99280 0.91420 0.98400 -0.14200
O 	O 	0.57465 0.93466 0.48263 -0.51200
O 	O 	0.60025 0.87100 0.53345 -0.52000
O 	O 	0.95203 0.09202 0.01737 -0.55200
O 	O 	0.83755 0.06680 0.96655 -0.52200
O 	O 	0.54797 0.56534 0.13999 -0.52000
O 	O 	0.66245 0.62900 0.22925 -0.52100
O 	O 	0.92535 0.40798 0.36001 -0.50200
O 	O 	0.89975 0.43320 0.27075 -0.50900
O 	O 	0.63999 0.54797 0.06534 -0.52400
O 	O 	0.72925 0.66245 0.12900 -0.52100
O 	O 	0.86001 0.92535 0.90798 -0.49100
O 	O 	0.77075 0.89975 0.93320 -0.49400
O 	O 	0.98263 0.57465 0.43466 -0.48400
O 	O 	0.03345 0.60025 0.37100 -0.53100
O 	O 	0.51737 0.95203 0.59202 -0.51500
O 	O 	0.46655 0.83755 0.56680 -0.52800
O 	O 	0.09202 0.51737 0.45203 -0.52300
O 	O 	0.06680 0.46655 0.33755 -0.53300
O 	O 	0.93466 0.98263 0.07465 -0.49000
O 	O 	0.87100 0.03345 0.10025 -0.53600
O 	O 	0.40798 0.86001 0.42535 -0.51400
O 	O 	0.43320 0.77075 0.39975 -0.52100
O 	O 	0.56534 0.63999 0.04797 -0.51900
O 	O 	0.62900 0.72925 0.16245 -0.51200
O 	O 	0.59202 0.45203 0.51737 -0.51700
O 	O 	0.56680 0.33755 0.46655 -0.52300
O 	O 	0.43466 0.07465 0.98263 -0.48700
O 	O 	0.37100 0.10025 0.03345 -0.53800
O 	O 	0.90798 0.42535 0.86001 -0.50200
O 	O 	0.93320 0.39975 0.77075 -0.50400
O 	O 	0.06534 0.04797 0.63999 -0.52600
O 	O 	0.12900 0.16245 0.72925 -0.51600
O 	O 	0.07465 0.48263 0.93466 -0.52100
O 	O 	0.10025 0.53345 0.87100 -0.53000
O 	O 	0.45203 0.01737 0.09202 -0.54800
O 	O 	0.33755 0.96655 0.06680 -0.52000
O 	O 	0.04797 0.13999 0.56534 -0.52100
O 	O 	0.16245 0.22925 0.62900 -0.51400
O 	O 	0.42535 0.36001 0.40798 -0.51700
O 	O 	0.39975 0.27075 0.43320 -0.52400
O 	O 	0.13999 0.06534 0.54797 -0.52600
O 	O 	0.22925 0.12900 0.66245 -0.52300
O 	O 	0.36001 0.90798 0.92535 -0.49500
O 	O 	0.27075 0.93320 0.89975 -0.49800
O 	O 	0.48263 0.43466 0.57465 -0.51800
O 	O 	0.53345 0.37100 0.60025 -0.52200
O 	O 	0.01737 0.59202 0.95203 -0.54600
O 	O 	0.96655 0.56680 0.83755 -0.51500
