data_crystal

_cell_length_a 28.15480
_cell_length_b 28.15480
_cell_length_c 17.92810
_cell_angle_alpha 90.00000
_cell_angle_beta  90.00000
_cell_angle_gamma 120.00000

_symmetry_space_group_name_	'P 1'
_symmetry_space_group_name_H-M	'P 1'

loop_
_symmetry_equiv_pos_as_xyz
  x,y,z

loop_
_atom_site_label
_atom_site_type_symbol
_atom_site_fract_x
_atom_site_fract_y
_atom_site_fract_z
_atom_site_charge
C 	C 	0.40303 0.45472 0.59570 0.38400
C 	C 	0.43251 0.49747 0.53729 -0.06600
C 	C 	0.48092 0.54427 0.55571 0.00400
H 	H 	0.49340 0.55050 0.60590 0.05700
C 	C 	0.51124 0.58212 0.50071 -0.06000
C 	C 	0.56335 0.63144 0.52296 0.33700
C 	C 	0.49251 0.57398 0.42723 -0.09800
H 	H 	0.51360 0.59960 0.38950 0.07400
C 	C 	0.44249 0.52783 0.40970 0.16600
C 	C 	0.41271 0.48922 0.46450 -0.09400
H 	H 	0.37900 0.45740 0.45220 0.07500
C 	C 	0.44160 0.55930 0.28410 0.08400
C 	C 	0.42780 0.60040 0.29750 -0.01500
C 	C 	0.45490 0.63920 0.22490 -0.00300
C 	C 	0.45090 0.69490 0.22810 0.00500
C 	C 	0.45878 0.42482 0.88490 0.39400
C 	C 	0.51163 0.45988 0.92596 -0.06900
C 	C 	0.54899 0.51190 0.90195 0.01900
H 	H 	0.54330 0.52550 0.85640 0.04100
C 	C 	0.59553 0.54450 0.94535 -0.08200
C 	C 	0.63548 0.60169 0.92322 0.36900
C 	C 	0.60456 0.52320 0.01030 -0.09300
H 	H 	0.63660 0.54500 0.03900 0.08000
C 	C 	0.56730 0.47070 0.03340 0.15400
C 	C 	0.52017 0.43838 0.99190 -0.09100
H 	H 	0.49420 0.40240 0.00790 0.08000
O 	O 	0.35995 0.41209 0.57777 -0.48300
O 	O 	0.42477 0.46424 0.65939 -0.45900
O 	O 	0.59757 0.66208 0.47458 -0.50300
O 	O 	0.57256 0.64291 0.59115 -0.44300
O 	O 	0.41934 0.51557 0.33998 -0.23200
O 	O 	0.42259 0.38341 0.91845 -0.48100
O 	O 	0.45445 0.43952 0.82007 -0.47600
O 	O 	0.63296 0.61861 0.85982 -0.47800
O 	O 	0.67291 0.63193 0.97086 -0.54800
Mn	Mn	0.38921 0.41317 0.74915 1.29100
Mn	Mn	0.32770 0.32805 0.57903 1.28600
O 	O 	0.58600 0.44640 0.08590 -0.08900
C 	C 	0.54540 0.38520 0.10670 0.05400
C 	C 	0.58420 0.37210 0.15570 0.00400
C 	C 	0.59180 0.40780 0.23200 0.03100
C 	C 	0.59600 0.40770 0.32700 -0.00800
C 	C 	0.39370 0.54560 0.23050 -0.00700
C 	C 	0.54390 0.41240 0.13910 -0.11100
C 	C 	0.53970 0.41180 0.23080 0.01800
C 	C 	0.50130 0.39630 0.27270 -0.01400
C 	C 	0.41500 0.59780 0.17520 0.00200
C 	C 	0.55840 0.36860 0.33790 0.00500
C 	C 	0.52850 0.36690 0.26530 0.00000
C 	C 	0.56720 0.41210 0.21990 -0.03100
C 	C 	0.52380 0.40660 0.14050 0.13600
O 	O 	0.57550 0.45900 0.10690 -0.12300
C 	C 	0.06970 0.78805 0.92903 0.38500
C 	C 	0.09918 0.83080 0.87062 -0.06400
C 	C 	0.14759 0.87760 0.88904 0.00400
H 	H 	0.16007 0.88383 0.93923 0.05900
C 	C 	0.17791 0.91545 0.83404 -0.05800
C 	C 	0.23002 0.96477 0.85629 0.33800
C 	C 	0.15918 0.90731 0.76056 -0.09900
H 	H 	0.18027 0.93293 0.72283 0.07400
C 	C 	0.10916 0.86116 0.74303 0.16600
C 	C 	0.07938 0.82255 0.79783 -0.09400
H 	H 	0.04567 0.79073 0.78553 0.07500
C 	C 	0.10827 0.89263 0.61743 0.08400
C 	C 	0.09447 0.93373 0.63083 -0.01400
C 	C 	0.12157 0.97253 0.55823 -0.00200
C 	C 	0.11757 0.02823 0.56143 0.00500
C 	C 	0.12545 0.75815 0.21823 0.39400
C 	C 	0.17830 0.79321 0.25929 -0.07000
C 	C 	0.21566 0.84523 0.23528 0.01900
H 	H 	0.20997 0.85883 0.18973 0.04100
C 	C 	0.26220 0.87783 0.27868 -0.08200
C 	C 	0.30215 0.93502 0.25655 0.36900
C 	C 	0.27123 0.85653 0.34363 -0.09200
H 	H 	0.30327 0.87833 0.37233 0.08000
C 	C 	0.23397 0.80403 0.36673 0.15300
C 	C 	0.18684 0.77171 0.32523 -0.08800
H 	H 	0.16087 0.73573 0.34123 0.07900
O 	O 	0.02662 0.74542 0.91110 -0.48200
O 	O 	0.09144 0.79757 0.99272 -0.45700
O 	O 	0.26424 0.99541 0.80791 -0.50100
O 	O 	0.23923 0.97624 0.92448 -0.44100
O 	O 	0.08601 0.84890 0.67331 -0.23200
O 	O 	0.08926 0.71674 0.25178 -0.48100
O 	O 	0.12112 0.77285 0.15340 -0.47700
O 	O 	0.29963 0.95194 0.19315 -0.47900
O 	O 	0.33958 0.96526 0.30419 -0.54800
Mn	Mn	0.05588 0.74650 0.08248 1.29000
Mn	Mn	0.99437 0.66138 0.91236 1.28500
O 	O 	0.25267 0.77973 0.41923 -0.08900
C 	C 	0.21207 0.71853 0.44003 0.05400
C 	C 	0.25087 0.70543 0.48903 0.00400
C 	C 	0.25847 0.74113 0.56533 0.03100
C 	C 	0.26267 0.74103 0.66033 -0.00800
C 	C 	0.06037 0.87893 0.56383 -0.00600
C 	C 	0.21057 0.74573 0.47243 -0.11100
C 	C 	0.20637 0.74513 0.56413 0.01800
C 	C 	0.16797 0.72963 0.60603 -0.01400
C 	C 	0.08167 0.93113 0.50853 0.00200
C 	C 	0.22507 0.70193 0.67123 0.00500
C 	C 	0.19517 0.70023 0.59863 0.00000
C 	C 	0.23387 0.74543 0.55323 -0.03100
C 	C 	0.19047 0.73993 0.47383 0.13600
O 	O 	0.24217 0.79233 0.44023 -0.12200
C 	C 	0.73636 0.12139 0.26237 0.38500
C 	C 	0.76584 0.16414 0.20396 -0.06500
C 	C 	0.81425 0.21094 0.22238 0.00500
H 	H 	0.82673 0.21717 0.27257 0.05800
C 	C 	0.84457 0.24879 0.16738 -0.05800
C 	C 	0.89668 0.29811 0.18963 0.33800
C 	C 	0.82584 0.24065 0.09390 -0.09800
H 	H 	0.84693 0.26627 0.05617 0.07400
C 	C 	0.77582 0.19450 0.07637 0.16600
C 	C 	0.74604 0.15589 0.13117 -0.09400
H 	H 	0.71233 0.12407 0.11887 0.07500
C 	C 	0.77493 0.22597 0.95077 0.08100
C 	C 	0.76113 0.26707 0.96417 -0.01600
C 	C 	0.78823 0.30587 0.89157 -0.00300
C 	C 	0.78423 0.36157 0.89477 0.00500
C 	C 	0.79211 0.09149 0.55157 0.39400
C 	C 	0.84496 0.12655 0.59263 -0.06900
C 	C 	0.88232 0.17857 0.56862 0.01900
H 	H 	0.87663 0.19217 0.52307 0.04100
C 	C 	0.92886 0.21117 0.61202 -0.08200
C 	C 	0.96881 0.26836 0.58989 0.36800
C 	C 	0.93789 0.18987 0.67697 -0.09200
H 	H 	0.96993 0.21167 0.70567 0.08000
C 	C 	0.90063 0.13737 0.70007 0.15300
C 	C 	0.85350 0.10505 0.65857 -0.08900
H 	H 	0.82753 0.06907 0.67457 0.07900
O 	O 	0.69328 0.07876 0.24444 -0.48300
O 	O 	0.75810 0.13091 0.32606 -0.45900
O 	O 	0.93090 0.32875 0.14125 -0.50200
O 	O 	0.90589 0.30958 0.25782 -0.44300
O 	O 	0.75267 0.18224 0.00665 -0.23000
O 	O 	0.75592 0.05008 0.58512 -0.48100
O 	O 	0.78778 0.10619 0.48674 -0.47600
O 	O 	0.96629 0.28528 0.52649 -0.47800
O 	O 	0.00624 0.29860 0.63753 -0.54700
Mn	Mn	0.72254 0.07984 0.41582 1.29100
Mn	Mn	0.66103 0.99472 0.24570 1.28500
O 	O 	0.91933 0.11307 0.75257 -0.08900
C 	C 	0.87873 0.05187 0.77337 0.05400
C 	C 	0.91753 0.03877 0.82237 0.00300
C 	C 	0.92513 0.07447 0.89867 0.03000
C 	C 	0.92933 0.07437 0.99367 -0.02000
C 	C 	0.72703 0.21227 0.89717 -0.00700
C 	C 	0.87723 0.07907 0.80577 -0.11000
C 	C 	0.87303 0.07847 0.89747 0.01700
C 	C 	0.83463 0.06297 0.93937 -0.01500
C 	C 	0.74833 0.26447 0.84187 0.00200
C 	C 	0.89173 0.03527 0.00457 0.01900
C 	C 	0.86183 0.03357 0.93197 -0.00500
C 	C 	0.90053 0.07877 0.88657 -0.02800
C 	C 	0.85713 0.07327 0.80717 0.13500
O 	O 	0.90883 0.12567 0.77357 -0.12300
C 	C 	0.54528 0.94831 0.59570 0.38500
C 	C 	0.50253 0.93504 0.53729 -0.06500
C 	C 	0.45573 0.93665 0.55571 0.00500
H 	H 	0.44950 0.94290 0.60590 0.05900
C 	C 	0.41788 0.92912 0.50071 -0.05900
C 	C 	0.36856 0.93191 0.52296 0.33800
C 	C 	0.42602 0.91853 0.42723 -0.09800
H 	H 	0.40040 0.91400 0.38950 0.07400
C 	C 	0.47217 0.91466 0.40970 0.16600
C 	C 	0.51078 0.92349 0.46450 -0.09400
H 	H 	0.54260 0.92160 0.45220 0.07500
C 	C 	0.44070 0.88230 0.28410 0.08400
C 	C 	0.39960 0.82740 0.29750 -0.01500
C 	C 	0.36080 0.81570 0.22490 -0.00300
C 	C 	0.30510 0.75600 0.22810 0.00500
C 	C 	0.57518 0.03396 0.88490 0.39300
C 	C 	0.54012 0.05175 0.92596 -0.06600
C 	C 	0.48810 0.03709 0.90195 0.01700
H 	H 	0.47450 0.01780 0.85640 0.04100
C 	C 	0.45550 0.05103 0.94535 -0.08300
C 	C 	0.39831 0.03379 0.92322 0.36900
C 	C 	0.47680 0.08136 0.01030 -0.09200
H 	H 	0.45500 0.09160 0.03900 0.08000
C 	C 	0.52930 0.09660 0.03340 0.15900
C 	C 	0.56162 0.08179 0.99190 -0.09800
H 	H 	0.59760 0.09180 0.00790 0.08400
O 	O 	0.58791 0.94786 0.57777 -0.48300
O 	O 	0.53576 0.96053 0.65939 -0.45800
O 	O 	0.33792 0.93549 0.47458 -0.50300
O 	O 	0.35709 0.92965 0.59115 -0.44300
O 	O 	0.48443 0.90377 0.33998 -0.23200
O 	O 	0.61659 0.03918 0.91845 -0.48100
O 	O 	0.56048 0.01493 0.82007 -0.47600
O 	O 	0.38139 0.01435 0.85982 -0.47900
O 	O 	0.36807 0.04098 0.97086 -0.54900
Mn	Mn	0.58683 0.97604 0.74915 1.29100
Mn	Mn	0.67195 0.99965 0.57903 1.28600
O 	O 	0.55360 0.13960 0.08590 -0.08900
C 	C 	0.61480 0.16020 0.10670 0.05400
C 	C 	0.62790 0.21210 0.15570 0.00400
C 	C 	0.59220 0.18400 0.23200 0.03100
C 	C 	0.59230 0.18830 0.32700 -0.00800
C 	C 	0.45440 0.84810 0.23050 -0.00700
C 	C 	0.58760 0.13150 0.13910 -0.11000
C 	C 	0.58820 0.12790 0.23080 0.01800
C 	C 	0.60370 0.10500 0.27270 -0.01400
C 	C 	0.40220 0.81720 0.17520 0.00200
C 	C 	0.63140 0.18980 0.33790 0.00500
C 	C 	0.63310 0.16160 0.26530 -0.00000
C 	C 	0.58790 0.15510 0.21990 -0.03100
C 	C 	0.59340 0.11720 0.14050 0.13600
O 	O 	0.54100 0.11650 0.10690 -0.12300
C 	C 	0.21195 0.28164 0.92903 0.38500
C 	C 	0.16920 0.26837 0.87062 -0.06500
C 	C 	0.12240 0.26998 0.88904 0.00500
H 	H 	0.11617 0.27623 0.93923 0.05900
C 	C 	0.08455 0.26245 0.83404 -0.05800
C 	C 	0.03523 0.26524 0.85629 0.33800
C 	C 	0.09269 0.25186 0.76056 -0.09800
H 	H 	0.06707 0.24733 0.72283 0.07400
C 	C 	0.13884 0.24799 0.74303 0.16600
C 	C 	0.17745 0.25682 0.79783 -0.09400
H 	H 	0.20927 0.25493 0.78553 0.07500
C 	C 	0.10737 0.21563 0.61743 0.08400
C 	C 	0.06627 0.16073 0.63083 -0.01500
C 	C 	0.02747 0.14903 0.55823 -0.00300
C 	C 	0.97177 0.08933 0.56143 0.00600
C 	C 	0.24185 0.36729 0.21823 0.39400
C 	C 	0.20679 0.38508 0.25929 -0.06900
C 	C 	0.15477 0.37042 0.23528 0.01900
H 	H 	0.14117 0.35113 0.18973 0.04100
C 	C 	0.12217 0.38436 0.27868 -0.08200
C 	C 	0.06498 0.36712 0.25655 0.36900
C 	C 	0.14347 0.41469 0.34363 -0.09200
H 	H 	0.12167 0.42493 0.37233 0.08000
C 	C 	0.19597 0.42993 0.36673 0.15300
C 	C 	0.22829 0.41512 0.32523 -0.08900
H 	H 	0.26427 0.42513 0.34123 0.07900
O 	O 	0.25458 0.28119 0.91110 -0.48300
O 	O 	0.20243 0.29386 0.99272 -0.45900
O 	O 	0.00459 0.26882 0.80791 -0.50200
O 	O 	0.02376 0.26298 0.92448 -0.44200
O 	O 	0.15110 0.23710 0.67331 -0.23200
O 	O 	0.28326 0.37251 0.25178 -0.48100
O 	O 	0.22715 0.34826 0.15340 -0.47600
O 	O 	0.04806 0.34768 0.19315 -0.47900
O 	O 	0.03474 0.37431 0.30419 -0.54800
Mn	Mn	0.25350 0.30937 0.08248 1.29000
Mn	Mn	0.33862 0.33298 0.91236 1.28600
O 	O 	0.22027 0.47293 0.41923 -0.08900
C 	C 	0.28147 0.49353 0.44003 0.05400
C 	C 	0.29457 0.54543 0.48903 0.00400
C 	C 	0.25887 0.51733 0.56533 0.03100
C 	C 	0.25897 0.52163 0.66033 -0.00800
C 	C 	0.12107 0.18143 0.56383 -0.00700
C 	C 	0.25427 0.46483 0.47243 -0.11100
C 	C 	0.25487 0.46123 0.56413 0.01800
C 	C 	0.27037 0.43833 0.60603 -0.01400
C 	C 	0.06887 0.15053 0.50853 0.00200
C 	C 	0.29807 0.52313 0.67123 0.00500
C 	C 	0.29977 0.49493 0.59863 0.00000
C 	C 	0.25457 0.48843 0.55323 -0.03100
C 	C 	0.26007 0.45053 0.47383 0.13600
O 	O 	0.20767 0.44983 0.44023 -0.12200
C 	C 	0.87861 0.61498 0.26237 0.38500
C 	C 	0.83586 0.60171 0.20396 -0.06500
C 	C 	0.78906 0.60332 0.22238 0.00500
H 	H 	0.78283 0.60957 0.27257 0.05800
C 	C 	0.75121 0.59579 0.16738 -0.05900
C 	C 	0.70189 0.59858 0.18963 0.33800
C 	C 	0.75935 0.58520 0.09390 -0.09800
H 	H 	0.73373 0.58067 0.05617 0.07400
C 	C 	0.80550 0.58133 0.07637 0.16600
C 	C 	0.84411 0.59016 0.13117 -0.09400
H 	H 	0.87593 0.58827 0.11887 0.07500
C 	C 	0.77403 0.54897 0.95077 0.08300
C 	C 	0.73293 0.49407 0.96417 -0.01600
C 	C 	0.69413 0.48237 0.89157 -0.00300
C 	C 	0.63843 0.42267 0.89477 0.00500
C 	C 	0.90851 0.70063 0.55157 0.39400
C 	C 	0.87345 0.71842 0.59263 -0.06900
C 	C 	0.82143 0.70376 0.56862 0.01900
H 	H 	0.80783 0.68447 0.52307 0.04100
C 	C 	0.78883 0.71770 0.61202 -0.08200
C 	C 	0.73164 0.70046 0.58989 0.36900
C 	C 	0.81013 0.74803 0.67697 -0.09200
H 	H 	0.78833 0.75827 0.70567 0.08000
C 	C 	0.86263 0.76327 0.70007 0.15300
C 	C 	0.89495 0.74846 0.65857 -0.08900
H 	H 	0.93093 0.75847 0.67457 0.07900
O 	O 	0.92124 0.61453 0.24444 -0.48300
O 	O 	0.86909 0.62720 0.32606 -0.45900
O 	O 	0.67125 0.60216 0.14125 -0.50300
O 	O 	0.69042 0.59632 0.25782 -0.44300
O 	O 	0.81776 0.57044 0.00665 -0.23100
O 	O 	0.94992 0.70585 0.58512 -0.48100
O 	O 	0.89381 0.68160 0.48674 -0.47600
O 	O 	0.71472 0.68102 0.52649 -0.47800
O 	O 	0.70140 0.70765 0.63753 -0.54800
Mn	Mn	0.92016 0.64271 0.41582 1.29100
Mn	Mn	0.00528 0.66632 0.24570 1.28500
O 	O 	0.88693 0.80627 0.75257 -0.08900
C 	C 	0.94813 0.82687 0.77337 0.05400
C 	C 	0.96123 0.87877 0.82237 0.00400
C 	C 	0.92553 0.85067 0.89867 0.03100
C 	C 	0.92563 0.85497 0.99367 -0.01000
C 	C 	0.78773 0.51477 0.89717 -0.00700
C 	C 	0.92093 0.79817 0.80577 -0.11100
C 	C 	0.92153 0.79457 0.89747 0.01700
C 	C 	0.93703 0.77167 0.93937 -0.01500
C 	C 	0.73553 0.48387 0.84187 0.00200
C 	C 	0.96473 0.85647 0.00457 0.00800
C 	C 	0.96643 0.82827 0.93197 -0.00100
C 	C 	0.92123 0.82177 0.88657 -0.03000
C 	C 	0.92673 0.78387 0.80717 0.13600
O 	O 	0.87433 0.78317 0.77357 -0.12200
C 	C 	0.05169 0.59697 0.59570 0.38500
C 	C 	0.06496 0.56749 0.53729 -0.06500
C 	C 	0.06335 0.51908 0.55571 0.00500
H 	H 	0.05710 0.50660 0.60590 0.05900
C 	C 	0.07088 0.48876 0.50071 -0.05900
C 	C 	0.06809 0.43665 0.52296 0.33800
C 	C 	0.08147 0.50749 0.42723 -0.09800
H 	H 	0.08600 0.48640 0.38950 0.07400
C 	C 	0.08534 0.55751 0.40970 0.16600
C 	C 	0.07651 0.58729 0.46450 -0.09400
H 	H 	0.07840 0.62100 0.45220 0.07500
C 	C 	0.11770 0.55840 0.28410 0.08400
C 	C 	0.17260 0.57220 0.29750 -0.01500
C 	C 	0.18430 0.54510 0.22490 -0.00300
C 	C 	0.24400 0.54910 0.22810 0.00500
C 	C 	0.96604 0.54122 0.88490 0.39300
C 	C 	0.94825 0.48837 0.92596 -0.06700
C 	C 	0.96291 0.45101 0.90195 0.01800
H 	H 	0.98220 0.45670 0.85640 0.04100
C 	C 	0.94897 0.40447 0.94535 -0.08500
C 	C 	0.96621 0.36452 0.92322 0.37000
C 	C 	0.91864 0.39544 0.01030 -0.09000
H 	H 	0.90840 0.36340 0.03900 0.08000
C 	C 	0.90340 0.43270 0.03340 0.15700
C 	C 	0.91821 0.47983 0.99190 -0.09700
H 	H 	0.90820 0.50580 0.00790 0.08300
O 	O 	0.05214 0.64005 0.57777 -0.48300
O 	O 	0.03947 0.57523 0.65939 -0.45800
O 	O 	0.06451 0.40243 0.47458 -0.50300
O 	O 	0.07035 0.42744 0.59115 -0.44300
O 	O 	0.09623 0.58066 0.33998 -0.23200
O 	O 	0.96082 0.57741 0.91845 -0.48100
O 	O 	0.98507 0.54555 0.82007 -0.47600
O 	O 	0.98565 0.36704 0.85982 -0.47900
O 	O 	0.95902 0.32709 0.97086 -0.55000
Mn	Mn	0.02396 0.61079 0.74915 1.29100
Mn	Mn	0.00035 0.67230 0.57903 1.28600
O 	O 	0.86040 0.41400 0.08590 -0.08900
C 	C 	0.83980 0.45460 0.10670 0.05400
C 	C 	0.78790 0.41580 0.15570 0.00400
C 	C 	0.81600 0.40820 0.23200 0.03100
C 	C 	0.81170 0.40400 0.32700 -0.00800
C 	C 	0.15190 0.60630 0.23050 -0.00700
C 	C 	0.86850 0.45610 0.13910 -0.11000
C 	C 	0.87210 0.46030 0.23080 0.01800
C 	C 	0.89500 0.49870 0.27270 -0.01400
C 	C 	0.18280 0.58500 0.17520 0.00200
C 	C 	0.81020 0.44160 0.33790 0.00500
C 	C 	0.83840 0.47150 0.26530 -0.00000
C 	C 	0.84490 0.43280 0.21990 -0.03100
C 	C 	0.88280 0.47620 0.14050 0.13600
O 	O 	0.88350 0.42450 0.10690 -0.12300
C 	C 	0.71836 0.93030 0.92903 0.38500
C 	C 	0.73163 0.90082 0.87062 -0.06500
C 	C 	0.73002 0.85241 0.88904 0.00500
H 	H 	0.72377 0.83993 0.93923 0.05800
C 	C 	0.73755 0.82209 0.83404 -0.05900
C 	C 	0.73476 0.76998 0.85629 0.33800
C 	C 	0.74814 0.84082 0.76056 -0.09800
H 	H 	0.75267 0.81973 0.72283 0.07400
C 	C 	0.75201 0.89084 0.74303 0.16600
C 	C 	0.74318 0.92062 0.79783 -0.09400
H 	H 	0.74507 0.95433 0.78553 0.07500
C 	C 	0.78437 0.89173 0.61743 0.08400
C 	C 	0.83927 0.90553 0.63083 -0.01500
C 	C 	0.85097 0.87843 0.55823 -0.00300
C 	C 	0.91067 0.88243 0.56143 0.00500
C 	C 	0.63271 0.87455 0.21823 0.39400
C 	C 	0.61492 0.82170 0.25929 -0.06900
C 	C 	0.62958 0.78434 0.23528 0.01900
H 	H 	0.64887 0.79003 0.18973 0.04100
C 	C 	0.61564 0.73780 0.27868 -0.08200
C 	C 	0.63288 0.69785 0.25655 0.36900
C 	C 	0.58531 0.72877 0.34363 -0.09200
H 	H 	0.57507 0.69673 0.37233 0.08000
C 	C 	0.57007 0.76603 0.36673 0.15300
C 	C 	0.58488 0.81316 0.32523 -0.08900
H 	H 	0.57487 0.83913 0.34123 0.07900
O 	O 	0.71881 0.97338 0.91110 -0.48200
O 	O 	0.70614 0.90856 0.99272 -0.45900
O 	O 	0.73118 0.73576 0.80791 -0.50300
O 	O 	0.73702 0.76077 0.92448 -0.44300
O 	O 	0.76290 0.91399 0.67331 -0.23200
O 	O 	0.62749 0.91074 0.25178 -0.48100
O 	O 	0.65174 0.87888 0.15340 -0.47600
O 	O 	0.65232 0.70037 0.19315 -0.47900
O 	O 	0.62569 0.66042 0.30419 -0.54800
Mn	Mn	0.69063 0.94412 0.08248 1.29000
Mn	Mn	0.66702 0.00563 0.91236 1.28500
O 	O 	0.52707 0.74733 0.41923 -0.08900
C 	C 	0.50647 0.78793 0.44003 0.05400
C 	C 	0.45457 0.74913 0.48903 0.00400
C 	C 	0.48267 0.74153 0.56533 0.03100
C 	C 	0.47837 0.73733 0.66033 -0.00800
C 	C 	0.81857 0.93963 0.56383 -0.00700
C 	C 	0.53517 0.78943 0.47243 -0.11100
C 	C 	0.53877 0.79363 0.56413 0.01800
C 	C 	0.56167 0.83203 0.60603 -0.01400
C 	C 	0.84947 0.91833 0.50853 0.00200
C 	C 	0.47687 0.77493 0.67123 0.00500
C 	C 	0.50507 0.80483 0.59863 0.00000
C 	C 	0.51157 0.76613 0.55323 -0.03100
C 	C 	0.54947 0.80953 0.47383 0.13600
O 	O 	0.55017 0.75783 0.44023 -0.12200
C 	C 	0.38502 0.26364 0.26237 0.38500
C 	C 	0.39829 0.23416 0.20396 -0.06500
C 	C 	0.39668 0.18575 0.22238 0.00500
H 	H 	0.39043 0.17327 0.27257 0.05800
C 	C 	0.40421 0.15543 0.16738 -0.05900
C 	C 	0.40142 0.10332 0.18963 0.33800
C 	C 	0.41480 0.17416 0.09390 -0.09800
H 	H 	0.41933 0.15307 0.05617 0.07400
C 	C 	0.41867 0.22418 0.07637 0.16600
C 	C 	0.40984 0.25396 0.13117 -0.09400
H 	H 	0.41173 0.28767 0.11887 0.07500
C 	C 	0.45103 0.22507 0.95077 0.08300
C 	C 	0.50593 0.23887 0.96417 -0.01600
C 	C 	0.51763 0.21177 0.89157 -0.00300
C 	C 	0.57733 0.21577 0.89477 0.00500
C 	C 	0.29937 0.20789 0.55157 0.39400
C 	C 	0.28158 0.15504 0.59263 -0.06900
C 	C 	0.29624 0.11768 0.56862 0.01900
H 	H 	0.31553 0.12337 0.52307 0.04100
C 	C 	0.28230 0.07114 0.61202 -0.08200
C 	C 	0.29954 0.03119 0.58989 0.36800
C 	C 	0.25197 0.06211 0.67697 -0.09200
H 	H 	0.24173 0.03007 0.70567 0.07900
C 	C 	0.23673 0.09937 0.70007 0.15300
C 	C 	0.25154 0.14650 0.65857 -0.08900
H 	H 	0.24153 0.17247 0.67457 0.07900
O 	O 	0.38547 0.30672 0.24444 -0.48300
O 	O 	0.37280 0.24190 0.32606 -0.45900
O 	O 	0.39784 0.06910 0.14125 -0.50200
O 	O 	0.40368 0.09411 0.25782 -0.44300
O 	O 	0.42956 0.24733 0.00665 -0.23200
O 	O 	0.29415 0.24408 0.58512 -0.48100
O 	O 	0.31840 0.21222 0.48674 -0.47600
O 	O 	0.31898 0.03371 0.52649 -0.47800
O 	O 	0.29235 0.99376 0.63753 -0.54700
Mn	Mn	0.35729 0.27746 0.41582 1.29100
Mn	Mn	0.33368 0.33897 0.24570 1.28600
O 	O 	0.19373 0.08067 0.75257 -0.08900
C 	C 	0.17313 0.12127 0.77337 0.05400
C 	C 	0.12123 0.08247 0.82237 0.00400
C 	C 	0.14933 0.07487 0.89867 0.03100
C 	C 	0.14503 0.07067 0.99367 -0.01000
C 	C 	0.48523 0.27297 0.89717 -0.00700
C 	C 	0.20183 0.12277 0.80577 -0.11100
C 	C 	0.20543 0.12697 0.89747 0.01800
C 	C 	0.22833 0.16537 0.93937 -0.01400
C 	C 	0.51613 0.25167 0.84187 0.00200
C 	C 	0.14353 0.10827 0.00457 0.00700
C 	C 	0.17173 0.13817 0.93197 -0.00000
C 	C 	0.17823 0.09947 0.88657 -0.03100
C 	C 	0.21613 0.14287 0.80717 0.13600
O 	O 	0.21683 0.09117 0.77357 -0.12300
C 	C 	0.59697 0.54528 0.40430 0.38500
C 	C 	0.56749 0.50253 0.46271 -0.06500
C 	C 	0.51908 0.45573 0.44429 0.00500
H 	H 	0.50660 0.44950 0.39410 0.05800
C 	C 	0.48876 0.41788 0.49929 -0.05900
C 	C 	0.43665 0.36856 0.47704 0.33800
C 	C 	0.50749 0.42602 0.57277 -0.09800
H 	H 	0.48640 0.40040 0.61050 0.07400
C 	C 	0.55751 0.47217 0.59030 0.16600
C 	C 	0.58729 0.51078 0.53550 -0.09400
H 	H 	0.62100 0.54260 0.54780 0.07500
C 	C 	0.55840 0.44070 0.71590 0.08400
C 	C 	0.57220 0.39960 0.70250 -0.01500
C 	C 	0.54510 0.36080 0.77510 -0.00300
C 	C 	0.54910 0.30510 0.77190 0.00500
C 	C 	0.54122 0.57518 0.11510 0.39400
C 	C 	0.48837 0.54012 0.07404 -0.06900
C 	C 	0.45101 0.48810 0.09805 0.01900
H 	H 	0.45670 0.47450 0.14360 0.04100
C 	C 	0.40447 0.45550 0.05465 -0.08200
C 	C 	0.36452 0.39831 0.07678 0.36900
C 	C 	0.39544 0.47680 0.98970 -0.09300
H 	H 	0.36340 0.45500 0.96100 0.08000
C 	C 	0.43270 0.52930 0.96660 0.15400
C 	C 	0.47983 0.56162 0.00810 -0.09100
H 	H 	0.50580 0.59760 0.99210 0.08000
O 	O 	0.64005 0.58791 0.42223 -0.48300
O 	O 	0.57523 0.53576 0.34061 -0.45900
O 	O 	0.40243 0.33792 0.52542 -0.50300
O 	O 	0.42744 0.35709 0.40885 -0.44300
O 	O 	0.58066 0.48443 0.66002 -0.23200
O 	O 	0.57741 0.61659 0.08155 -0.48100
O 	O 	0.54555 0.56048 0.17993 -0.47600
O 	O 	0.36704 0.38139 0.14018 -0.47800
O 	O 	0.32709 0.36807 0.02914 -0.54800
Mn	Mn	0.61079 0.58683 0.25085 1.29100
Mn	Mn	0.67230 0.67195 0.42097 1.28600
O 	O 	0.41400 0.55360 0.91410 -0.08900
C 	C 	0.45460 0.61480 0.89330 0.05400
C 	C 	0.41580 0.62790 0.84430 0.00400
C 	C 	0.40820 0.59220 0.76800 0.03100
C 	C 	0.40400 0.59230 0.67300 -0.00800
C 	C 	0.60630 0.45440 0.76950 -0.00700
C 	C 	0.45610 0.58760 0.86090 -0.11100
C 	C 	0.46030 0.58820 0.76920 0.01800
C 	C 	0.49870 0.60370 0.72730 -0.01400
C 	C 	0.58500 0.40220 0.82480 0.00200
C 	C 	0.44160 0.63140 0.66210 0.00500
C 	C 	0.47150 0.63310 0.73470 0.00000
C 	C 	0.43280 0.58790 0.78010 -0.03100
C 	C 	0.47620 0.59340 0.85950 0.13600
O 	O 	0.42450 0.54100 0.89310 -0.12300
C 	C 	0.26364 0.87861 0.73763 0.38500
C 	C 	0.23416 0.83586 0.79604 -0.06500
C 	C 	0.18575 0.78906 0.77762 0.00500
H 	H 	0.17327 0.78283 0.72743 0.05800
C 	C 	0.15543 0.75121 0.83262 -0.05800
C 	C 	0.10332 0.70189 0.81037 0.33800
C 	C 	0.17416 0.75935 0.90610 -0.09800
H 	H 	0.15307 0.73373 0.94383 0.07400
C 	C 	0.22418 0.80550 0.92363 0.16600
C 	C 	0.25396 0.84411 0.86883 -0.09400
H 	H 	0.28767 0.87593 0.88113 0.07500
C 	C 	0.22507 0.77403 0.04923 0.08100
C 	C 	0.23887 0.73293 0.03583 -0.01600
C 	C 	0.21177 0.69413 0.10843 -0.00300
C 	C 	0.21577 0.63843 0.10523 0.00500
C 	C 	0.20789 0.90851 0.44843 0.39400
C 	C 	0.15504 0.87345 0.40737 -0.06900
C 	C 	0.11768 0.82143 0.43138 0.01900
H 	H 	0.12337 0.80783 0.47693 0.04100
C 	C 	0.07114 0.78883 0.38798 -0.08200
C 	C 	0.03119 0.73164 0.41011 0.36800
C 	C 	0.06211 0.81013 0.32303 -0.09200
H 	H 	0.03007 0.78833 0.29433 0.08000
C 	C 	0.09937 0.86263 0.29993 0.15300
C 	C 	0.14650 0.89495 0.34143 -0.08900
H 	H 	0.17247 0.93093 0.32543 0.07900
O 	O 	0.30672 0.92124 0.75556 -0.48300
O 	O 	0.24190 0.86909 0.67394 -0.45900
O 	O 	0.06910 0.67125 0.85875 -0.50200
O 	O 	0.09411 0.69042 0.74218 -0.44300
O 	O 	0.24733 0.81776 0.99335 -0.23000
O 	O 	0.24408 0.94992 0.41488 -0.48100
O 	O 	0.21222 0.89381 0.51326 -0.47600
O 	O 	0.03371 0.71472 0.47351 -0.47800
O 	O 	0.99376 0.70140 0.36247 -0.54700
Mn	Mn	0.27746 0.92016 0.58418 1.29100
Mn	Mn	0.33897 0.00528 0.75430 1.28500
O 	O 	0.08067 0.88693 0.24743 -0.08900
C 	C 	0.12127 0.94813 0.22663 0.05400
C 	C 	0.08247 0.96123 0.17763 0.00300
C 	C 	0.07487 0.92553 0.10133 0.03000
C 	C 	0.07067 0.92563 0.00633 -0.02000
C 	C 	0.27297 0.78773 0.10283 -0.00700
C 	C 	0.12277 0.92093 0.19423 -0.11000
C 	C 	0.12697 0.92153 0.10253 0.01700
C 	C 	0.16537 0.93703 0.06063 -0.01500
C 	C 	0.25167 0.73553 0.15813 0.00200
C 	C 	0.10827 0.96473 0.99543 0.01900
C 	C 	0.13817 0.96643 0.06803 -0.00500
C 	C 	0.09947 0.92123 0.11343 -0.02800
C 	C 	0.14287 0.92673 0.19283 0.13500
O 	O 	0.09117 0.87433 0.22643 -0.12300
C 	C 	0.93030 0.21195 0.07097 0.38500
C 	C 	0.90082 0.16920 0.12938 -0.06400
C 	C 	0.85241 0.12240 0.11096 0.00400
H 	H 	0.83993 0.11617 0.06077 0.05900
C 	C 	0.82209 0.08455 0.16596 -0.05800
C 	C 	0.76998 0.03523 0.14371 0.33800
C 	C 	0.84082 0.09269 0.23944 -0.09900
H 	H 	0.81973 0.06707 0.27717 0.07400
C 	C 	0.89084 0.13884 0.25697 0.16600
C 	C 	0.92062 0.17745 0.20217 -0.09400
H 	H 	0.95433 0.20927 0.21447 0.07500
C 	C 	0.89173 0.10737 0.38257 0.08400
C 	C 	0.90553 0.06627 0.36917 -0.01400
C 	C 	0.87843 0.02747 0.44177 -0.00200
C 	C 	0.88243 0.97177 0.43857 0.00500
C 	C 	0.87455 0.24185 0.78177 0.39400
C 	C 	0.82170 0.20679 0.74071 -0.07000
C 	C 	0.78434 0.15477 0.76472 0.01900
H 	H 	0.79003 0.14117 0.81027 0.04100
C 	C 	0.73780 0.12217 0.72132 -0.08200
C 	C 	0.69785 0.06498 0.74345 0.36900
C 	C 	0.72877 0.14347 0.65637 -0.09200
H 	H 	0.69673 0.12167 0.62767 0.08000
C 	C 	0.76603 0.19597 0.63327 0.15300
C 	C 	0.81316 0.22829 0.67477 -0.08800
H 	H 	0.83913 0.26427 0.65877 0.07900
O 	O 	0.97338 0.25458 0.08890 -0.48200
O 	O 	0.90856 0.20243 0.00728 -0.45700
O 	O 	0.73576 0.00459 0.19209 -0.50100
O 	O 	0.76077 0.02376 0.07552 -0.44100
O 	O 	0.91399 0.15110 0.32669 -0.23200
O 	O 	0.91074 0.28326 0.74822 -0.48100
O 	O 	0.87888 0.22715 0.84660 -0.47700
O 	O 	0.70037 0.04806 0.80685 -0.47900
O 	O 	0.66042 0.03474 0.69581 -0.54800
Mn	Mn	0.94412 0.25350 0.91752 1.29000
Mn	Mn	0.00563 0.33862 0.08764 1.28500
O 	O 	0.74733 0.22027 0.58077 -0.08900
C 	C 	0.78793 0.28147 0.55997 0.05400
C 	C 	0.74913 0.29457 0.51097 0.00400
C 	C 	0.74153 0.25887 0.43467 0.03100
C 	C 	0.73733 0.25897 0.33967 -0.00800
C 	C 	0.93963 0.12107 0.43617 -0.00600
C 	C 	0.78943 0.25427 0.52757 -0.11100
C 	C 	0.79363 0.25487 0.43587 0.01800
C 	C 	0.83203 0.27037 0.39397 -0.01400
C 	C 	0.91833 0.06887 0.49147 0.00200
C 	C 	0.77493 0.29807 0.32877 0.00500
C 	C 	0.80483 0.29977 0.40137 0.00000
C 	C 	0.76613 0.25457 0.44677 -0.03100
C 	C 	0.80953 0.26007 0.52617 0.13600
O 	O 	0.75783 0.20767 0.55977 -0.12200
C 	C 	0.45472 0.05169 0.40430 0.38500
C 	C 	0.49747 0.06496 0.46271 -0.06500
C 	C 	0.54427 0.06335 0.44429 0.00500
H 	H 	0.55050 0.05710 0.39410 0.05900
C 	C 	0.58212 0.07088 0.49929 -0.05900
C 	C 	0.63144 0.06809 0.47704 0.33800
C 	C 	0.57398 0.08147 0.57277 -0.09800
H 	H 	0.59960 0.08600 0.61050 0.07400
C 	C 	0.52783 0.08534 0.59030 0.16600
C 	C 	0.48922 0.07651 0.53550 -0.09400
H 	H 	0.45740 0.07840 0.54780 0.07500
C 	C 	0.55930 0.11770 0.71590 0.08400
C 	C 	0.60040 0.17260 0.70250 -0.01500
C 	C 	0.63920 0.18430 0.77510 -0.00300
C 	C 	0.69490 0.24400 0.77190 0.00500
C 	C 	0.42482 0.96604 0.11510 0.39300
C 	C 	0.45988 0.94825 0.07404 -0.06600
C 	C 	0.51190 0.96291 0.09805 0.01700
H 	H 	0.52550 0.98220 0.14360 0.04100
C 	C 	0.54450 0.94897 0.05465 -0.08300
C 	C 	0.60169 0.96621 0.07678 0.36900
C 	C 	0.52320 0.91864 0.98970 -0.09200
H 	H 	0.54500 0.90840 0.96100 0.08000
C 	C 	0.47070 0.90340 0.96660 0.15900
C 	C 	0.43838 0.91821 0.00810 -0.09800
H 	H 	0.40240 0.90820 0.99210 0.08400
O 	O 	0.41209 0.05214 0.42223 -0.48300
O 	O 	0.46424 0.03947 0.34061 -0.45800
O 	O 	0.66208 0.06451 0.52542 -0.50300
O 	O 	0.64291 0.07035 0.40885 -0.44300
O 	O 	0.51557 0.09623 0.66002 -0.23200
O 	O 	0.38341 0.96082 0.08155 -0.48100
O 	O 	0.43952 0.98507 0.17993 -0.47600
O 	O 	0.61861 0.98565 0.14018 -0.47900
O 	O 	0.63193 0.95902 0.02914 -0.54900
Mn	Mn	0.41317 0.02396 0.25085 1.29100
Mn	Mn	0.32805 0.00035 0.42097 1.28600
O 	O 	0.44640 0.86040 0.91410 -0.08900
C 	C 	0.38520 0.83980 0.89330 0.05400
C 	C 	0.37210 0.78790 0.84430 0.00400
C 	C 	0.40780 0.81600 0.76800 0.03100
C 	C 	0.40770 0.81170 0.67300 -0.00800
C 	C 	0.54560 0.15190 0.76950 -0.00700
C 	C 	0.41240 0.86850 0.86090 -0.11000
C 	C 	0.41180 0.87210 0.76920 0.01800
C 	C 	0.39630 0.89500 0.72730 -0.01400
C 	C 	0.59780 0.18280 0.82480 0.00200
C 	C 	0.36860 0.81020 0.66210 0.00500
C 	C 	0.36690 0.83840 0.73470 -0.00000
C 	C 	0.41210 0.84490 0.78010 -0.03100
C 	C 	0.40660 0.88280 0.85950 0.13600
O 	O 	0.45900 0.88350 0.89310 -0.12300
C 	C 	0.12139 0.38502 0.73763 0.38500
C 	C 	0.16414 0.39829 0.79604 -0.06500
C 	C 	0.21094 0.39668 0.77762 0.00500
H 	H 	0.21717 0.39043 0.72743 0.05800
C 	C 	0.24879 0.40421 0.83262 -0.05900
C 	C 	0.29811 0.40142 0.81037 0.33800
C 	C 	0.24065 0.41480 0.90610 -0.09800
H 	H 	0.26627 0.41933 0.94383 0.07400
C 	C 	0.19450 0.41867 0.92363 0.16600
C 	C 	0.15589 0.40984 0.86883 -0.09400
H 	H 	0.12407 0.41173 0.88113 0.07500
C 	C 	0.22597 0.45103 0.04923 0.08300
C 	C 	0.26707 0.50593 0.03583 -0.01600
C 	C 	0.30587 0.51763 0.10843 -0.00300
C 	C 	0.36157 0.57733 0.10523 0.00500
C 	C 	0.09149 0.29937 0.44843 0.39400
C 	C 	0.12655 0.28158 0.40737 -0.06900
C 	C 	0.17857 0.29624 0.43138 0.01900
H 	H 	0.19217 0.31553 0.47693 0.04100
C 	C 	0.21117 0.28230 0.38798 -0.08200
C 	C 	0.26836 0.29954 0.41011 0.36900
C 	C 	0.18987 0.25197 0.32303 -0.09200
H 	H 	0.21167 0.24173 0.29433 0.08000
C 	C 	0.13737 0.23673 0.29993 0.15300
C 	C 	0.10505 0.25154 0.34143 -0.08900
H 	H 	0.06907 0.24153 0.32543 0.07900
O 	O 	0.07876 0.38547 0.75556 -0.48300
O 	O 	0.13091 0.37280 0.67394 -0.45900
O 	O 	0.32875 0.39784 0.85875 -0.50300
O 	O 	0.30958 0.40368 0.74218 -0.44300
O 	O 	0.18224 0.42956 0.99335 -0.23100
O 	O 	0.05008 0.29415 0.41488 -0.48100
O 	O 	0.10619 0.31840 0.51326 -0.47600
O 	O 	0.28528 0.31898 0.47351 -0.47800
O 	O 	0.29860 0.29235 0.36247 -0.54800
Mn	Mn	0.07984 0.35729 0.58418 1.29100
Mn	Mn	0.99472 0.33368 0.75430 1.28500
O 	O 	0.11307 0.19373 0.24743 -0.08900
C 	C 	0.05187 0.17313 0.22663 0.05400
C 	C 	0.03877 0.12123 0.17763 0.00400
C 	C 	0.07447 0.14933 0.10133 0.03100
C 	C 	0.07437 0.14503 0.00633 -0.01000
C 	C 	0.21227 0.48523 0.10283 -0.00700
C 	C 	0.07907 0.20183 0.19423 -0.11100
C 	C 	0.07847 0.20543 0.10253 0.01700
C 	C 	0.06297 0.22833 0.06063 -0.01500
C 	C 	0.26447 0.51613 0.15813 0.00200
C 	C 	0.03527 0.14353 0.99543 0.00800
C 	C 	0.03357 0.17173 0.06803 -0.00100
C 	C 	0.07877 0.17823 0.11343 -0.03000
C 	C 	0.07327 0.21613 0.19283 0.13600
O 	O 	0.12567 0.21683 0.22643 -0.12200
C 	C 	0.78805 0.71836 0.07097 0.38500
C 	C 	0.83080 0.73163 0.12938 -0.06500
C 	C 	0.87760 0.73002 0.11096 0.00500
H 	H 	0.88383 0.72377 0.06077 0.05900
C 	C 	0.91545 0.73755 0.16596 -0.05800
C 	C 	0.96477 0.73476 0.14371 0.33800
C 	C 	0.90731 0.74814 0.23944 -0.09800
H 	H 	0.93293 0.75267 0.27717 0.07400
C 	C 	0.86116 0.75201 0.25697 0.16600
C 	C 	0.82255 0.74318 0.20217 -0.09400
H 	H 	0.79073 0.74507 0.21447 0.07500
C 	C 	0.89263 0.78437 0.38257 0.08400
C 	C 	0.93373 0.83927 0.36917 -0.01500
C 	C 	0.97253 0.85097 0.44177 -0.00300
C 	C 	0.02823 0.91067 0.43857 0.00600
C 	C 	0.75815 0.63271 0.78177 0.39400
C 	C 	0.79321 0.61492 0.74071 -0.06900
C 	C 	0.84523 0.62958 0.76472 0.01900
H 	H 	0.85883 0.64887 0.81027 0.04100
C 	C 	0.87783 0.61564 0.72132 -0.08200
C 	C 	0.93502 0.63288 0.74345 0.36900
C 	C 	0.85653 0.58531 0.65637 -0.09200
H 	H 	0.87833 0.57507 0.62767 0.08000
C 	C 	0.80403 0.57007 0.63327 0.15300
C 	C 	0.77171 0.58488 0.67477 -0.08900
H 	H 	0.73573 0.57487 0.65877 0.07900
O 	O 	0.74542 0.71881 0.08890 -0.48300
O 	O 	0.79757 0.70614 0.00728 -0.45900
O 	O 	0.99541 0.73118 0.19209 -0.50200
O 	O 	0.97624 0.73702 0.07552 -0.44200
O 	O 	0.84890 0.76290 0.32669 -0.23200
O 	O 	0.71674 0.62749 0.74822 -0.48100
O 	O 	0.77285 0.65174 0.84660 -0.47600
O 	O 	0.95194 0.65232 0.80685 -0.47900
O 	O 	0.96526 0.62569 0.69581 -0.54800
Mn	Mn	0.74650 0.69063 0.91752 1.29000
Mn	Mn	0.66138 0.66702 0.08764 1.28600
O 	O 	0.77973 0.52707 0.58077 -0.08900
C 	C 	0.71853 0.50647 0.55997 0.05400
C 	C 	0.70543 0.45457 0.51097 0.00400
C 	C 	0.74113 0.48267 0.43467 0.03100
C 	C 	0.74103 0.47837 0.33967 -0.00800
C 	C 	0.87893 0.81857 0.43617 -0.00700
C 	C 	0.74573 0.53517 0.52757 -0.11100
C 	C 	0.74513 0.53877 0.43587 0.01800
C 	C 	0.72963 0.56167 0.39397 -0.01400
C 	C 	0.93113 0.84947 0.49147 0.00200
C 	C 	0.70193 0.47687 0.32877 0.00500
C 	C 	0.70023 0.50507 0.40137 0.00000
C 	C 	0.74543 0.51157 0.44677 -0.03100
C 	C 	0.73993 0.54947 0.52617 0.13600
O 	O 	0.79233 0.55017 0.55977 -0.12200
C 	C 	0.94831 0.40303 0.40430 0.38500
C 	C 	0.93504 0.43251 0.46271 -0.06500
C 	C 	0.93665 0.48092 0.44429 0.00500
H 	H 	0.94290 0.49340 0.39410 0.05900
C 	C 	0.92912 0.51124 0.49929 -0.05900
C 	C 	0.93191 0.56335 0.47704 0.33800
C 	C 	0.91853 0.49251 0.57277 -0.09800
H 	H 	0.91400 0.51360 0.61050 0.07400
C 	C 	0.91466 0.44249 0.59030 0.16600
C 	C 	0.92349 0.41271 0.53550 -0.09400
H 	H 	0.92160 0.37900 0.54780 0.07500
C 	C 	0.88230 0.44160 0.71590 0.08400
C 	C 	0.82740 0.42780 0.70250 -0.01500
C 	C 	0.81570 0.45490 0.77510 -0.00300
C 	C 	0.75600 0.45090 0.77190 0.00500
C 	C 	0.03396 0.45878 0.11510 0.39300
C 	C 	0.05175 0.51163 0.07404 -0.06700
C 	C 	0.03709 0.54899 0.09805 0.01800
H 	H 	0.01780 0.54330 0.14360 0.04100
C 	C 	0.05103 0.59553 0.05465 -0.08500
C 	C 	0.03379 0.63548 0.07678 0.37000
C 	C 	0.08136 0.60456 0.98970 -0.09000
H 	H 	0.09160 0.63660 0.96100 0.08000
C 	C 	0.09660 0.56730 0.96660 0.15700
C 	C 	0.08179 0.52017 0.00810 -0.09700
H 	H 	0.09180 0.49420 0.99210 0.08300
O 	O 	0.94786 0.35995 0.42223 -0.48300
O 	O 	0.96053 0.42477 0.34061 -0.45800
O 	O 	0.93549 0.59757 0.52542 -0.50300
O 	O 	0.92965 0.57256 0.40885 -0.44300
O 	O 	0.90377 0.41934 0.66002 -0.23200
O 	O 	0.03918 0.42259 0.08155 -0.48100
O 	O 	0.01493 0.45445 0.17993 -0.47600
O 	O 	0.01435 0.63296 0.14018 -0.47900
O 	O 	0.04098 0.67291 0.02914 -0.55000
Mn	Mn	0.97604 0.38921 0.25085 1.29100
Mn	Mn	0.99965 0.32770 0.42097 1.28600
O 	O 	0.13960 0.58600 0.91410 -0.08900
C 	C 	0.16020 0.54540 0.89330 0.05400
C 	C 	0.21210 0.58420 0.84430 0.00400
C 	C 	0.18400 0.59180 0.76800 0.03100
C 	C 	0.18830 0.59600 0.67300 -0.00800
C 	C 	0.84810 0.39370 0.76950 -0.00700
C 	C 	0.13150 0.54390 0.86090 -0.11000
C 	C 	0.12790 0.53970 0.76920 0.01800
C 	C 	0.10500 0.50130 0.72730 -0.01400
C 	C 	0.81720 0.41500 0.82480 0.00200
C 	C 	0.18980 0.55840 0.66210 0.00500
C 	C 	0.16160 0.52850 0.73470 -0.00000
C 	C 	0.15510 0.56720 0.78010 -0.03100
C 	C 	0.11720 0.52380 0.85950 0.13600
O 	O 	0.11650 0.57550 0.89310 -0.12300
C 	C 	0.61498 0.73636 0.73763 0.38500
C 	C 	0.60171 0.76584 0.79604 -0.06500
C 	C 	0.60332 0.81425 0.77762 0.00500
H 	H 	0.60957 0.82673 0.72743 0.05800
C 	C 	0.59579 0.84457 0.83262 -0.05900
C 	C 	0.59858 0.89668 0.81037 0.33800
C 	C 	0.58520 0.82584 0.90610 -0.09800
H 	H 	0.58067 0.84693 0.94383 0.07400
C 	C 	0.58133 0.77582 0.92363 0.16600
C 	C 	0.59016 0.74604 0.86883 -0.09400
H 	H 	0.58827 0.71233 0.88113 0.07500
C 	C 	0.54897 0.77493 0.04923 0.08300
C 	C 	0.49407 0.76113 0.03583 -0.01600
C 	C 	0.48237 0.78823 0.10843 -0.00300
C 	C 	0.42267 0.78423 0.10523 0.00500
C 	C 	0.70063 0.79211 0.44843 0.39400
C 	C 	0.71842 0.84496 0.40737 -0.06900
C 	C 	0.70376 0.88232 0.43138 0.01900
H 	H 	0.68447 0.87663 0.47693 0.04100
C 	C 	0.71770 0.92886 0.38798 -0.08200
C 	C 	0.70046 0.96881 0.41011 0.36800
C 	C 	0.74803 0.93789 0.32303 -0.09200
H 	H 	0.75827 0.96993 0.29433 0.07900
C 	C 	0.76327 0.90063 0.29993 0.15300
C 	C 	0.74846 0.85350 0.34143 -0.08900
H 	H 	0.75847 0.82753 0.32543 0.07900
O 	O 	0.61453 0.69328 0.75556 -0.48300
O 	O 	0.62720 0.75810 0.67394 -0.45900
O 	O 	0.60216 0.93090 0.85875 -0.50200
O 	O 	0.59632 0.90589 0.74218 -0.44300
O 	O 	0.57044 0.75267 0.99335 -0.23200
O 	O 	0.70585 0.75592 0.41488 -0.48100
O 	O 	0.68160 0.78778 0.51326 -0.47600
O 	O 	0.68102 0.96629 0.47351 -0.47800
O 	O 	0.70765 0.00624 0.36247 -0.54700
Mn	Mn	0.64271 0.72254 0.58418 1.29100
Mn	Mn	0.66632 0.66103 0.75430 1.28600
O 	O 	0.80627 0.91933 0.24743 -0.08900
C 	C 	0.82687 0.87873 0.22663 0.05400
C 	C 	0.87877 0.91753 0.17763 0.00400
C 	C 	0.85067 0.92513 0.10133 0.03100
C 	C 	0.85497 0.92933 0.00633 -0.01000
C 	C 	0.51477 0.72703 0.10283 -0.00700
C 	C 	0.79817 0.87723 0.19423 -0.11100
C 	C 	0.79457 0.87303 0.10253 0.01800
C 	C 	0.77167 0.83463 0.06063 -0.01400
C 	C 	0.48387 0.74833 0.15813 0.00200
C 	C 	0.85647 0.89173 0.99543 0.00700
C 	C 	0.82827 0.86183 0.06803 -0.00000
C 	C 	0.82177 0.90053 0.11343 -0.03100
C 	C 	0.78387 0.85713 0.19283 0.13600
O 	O 	0.78317 0.90883 0.22643 -0.12300
C 	C 	0.28164 0.06970 0.07097 0.38500
C 	C 	0.26837 0.09918 0.12938 -0.06500
C 	C 	0.26998 0.14759 0.11096 0.00500
H 	H 	0.27623 0.16007 0.06077 0.05800
C 	C 	0.26245 0.17791 0.16596 -0.05900
C 	C 	0.26524 0.23002 0.14371 0.33800
C 	C 	0.25186 0.15918 0.23944 -0.09800
H 	H 	0.24733 0.18027 0.27717 0.07400
C 	C 	0.24799 0.10916 0.25697 0.16600
C 	C 	0.25682 0.07938 0.20217 -0.09400
H 	H 	0.25493 0.04567 0.21447 0.07500
C 	C 	0.21563 0.10827 0.38257 0.08400
C 	C 	0.16073 0.09447 0.36917 -0.01500
C 	C 	0.14903 0.12157 0.44177 -0.00300
C 	C 	0.08933 0.11757 0.43857 0.00500
C 	C 	0.36729 0.12545 0.78177 0.39400
C 	C 	0.38508 0.17830 0.74071 -0.06900
C 	C 	0.37042 0.21566 0.76472 0.01900
H 	H 	0.35113 0.20997 0.81027 0.04100
C 	C 	0.38436 0.26220 0.72132 -0.08200
C 	C 	0.36712 0.30215 0.74345 0.36900
C 	C 	0.41469 0.27123 0.65637 -0.09200
H 	H 	0.42493 0.30327 0.62767 0.08000
C 	C 	0.42993 0.23397 0.63327 0.15300
C 	C 	0.41512 0.18684 0.67477 -0.08900
H 	H 	0.42513 0.16087 0.65877 0.07900
O 	O 	0.28119 0.02662 0.08890 -0.48200
O 	O 	0.29386 0.09144 0.00728 -0.45900
O 	O 	0.26882 0.26424 0.19209 -0.50300
O 	O 	0.26298 0.23923 0.07552 -0.44300
O 	O 	0.23710 0.08601 0.32669 -0.23200
O 	O 	0.37251 0.08926 0.74822 -0.48100
O 	O 	0.34826 0.12112 0.84660 -0.47600
O 	O 	0.34768 0.29963 0.80685 -0.47900
O 	O 	0.37431 0.33958 0.69581 -0.54800
Mn	Mn	0.30937 0.05588 0.91752 1.29000
Mn	Mn	0.33298 0.99437 0.08764 1.28500
O 	O 	0.47293 0.25267 0.58077 -0.08900
C 	C 	0.49353 0.21207 0.55997 0.05400
C 	C 	0.54543 0.25087 0.51097 0.00400
C 	C 	0.51733 0.25847 0.43467 0.03100
C 	C 	0.52163 0.26267 0.33967 -0.00800
C 	C 	0.18143 0.06037 0.43617 -0.00700
C 	C 	0.46483 0.21057 0.52757 -0.11100
C 	C 	0.46123 0.20637 0.43587 0.01800
C 	C 	0.43833 0.16797 0.39397 -0.01400
C 	C 	0.15053 0.08167 0.49147 0.00200
C 	C 	0.52313 0.22507 0.32877 0.00500
C 	C 	0.49493 0.19517 0.40137 0.00000
C 	C 	0.48843 0.23387 0.44677 -0.03100
C 	C 	0.45053 0.19047 0.52617 0.13600
O 	O 	0.44983 0.24217 0.55977 -0.12200
