data_crystal

_cell_length_a 27.63800
_cell_length_b 27.63800
_cell_length_c 17.94900
_cell_angle_alpha 90.00000
_cell_angle_beta  90.00000
_cell_angle_gamma 120.00000

_symmetry_space_group_name_	'P 1'
_symmetry_space_group_name_H-M	'P 1'

loop_
_symmetry_equiv_pos_as_xyz
  x,y,z

loop_
_atom_site_label
_atom_site_type_symbol
_atom_site_fract_x
_atom_site_fract_y
_atom_site_fract_z
_atom_site_charge
C 	C 	0.40209 0.03425 0.91600 0.36000
C 	C 	0.45995 0.05029 0.94000 -0.04800
C 	C 	0.48985 0.03021 0.90150 -0.01300
H 	H 	0.47360 0.00590 0.86010 0.05300
C 	C 	0.54380 0.04614 0.92440 -0.04300
C 	C 	0.57665 0.02488 0.88360 0.37900
C 	C 	0.56730 0.08120 0.98540 -0.13300
H 	H 	0.60400 0.09150 0.00120 0.10200
C 	C 	0.53720 0.10120 0.02310 0.21500
C 	C 	0.48320 0.08560 0.00060 -0.13200
H 	H 	0.46240 0.09910 0.02660 0.09800
C 	C 	0.53620 0.15100 0.13070 0.11700
C 	C 	0.57750 0.18350 0.20070 -0.02000
C 	C 	0.58540 0.14270 0.23820 0.00500
C 	C 	0.27539 0.06464 0.05930 0.37500
C 	C 	0.26345 0.09287 0.12230 -0.06100
C 	C 	0.26874 0.14524 0.11020 0.00100
H 	H 	0.27600 0.16100 0.06160 0.05800
C 	C 	0.26331 0.17394 0.16990 -0.05700
C 	C 	0.27318 0.23155 0.15950 0.35200
C 	C 	0.25158 0.15052 0.24120 -0.10400
H 	H 	0.24970 0.17110 0.28240 0.07900
C 	C 	0.24268 0.09691 0.25140 0.16200
C 	C 	0.25013 0.06868 0.19260 -0.10000
H 	H 	0.24610 0.03290 0.20040 0.07700
C 	C 	0.21640 0.09380 0.38050 0.00400
H 	H 	0.19150 0.10810 0.36500 0.03900
H 	H 	0.25130 0.12530 0.40070 0.03400
C 	C 	0.18770 0.04810 0.43970 -0.00200
C 	C 	0.12890 0.01400 0.42080 0.00500
O 	O 	0.37864 0.05721 0.94906 -0.50400
O 	O 	0.37979 0.99833 0.86456 -0.48900
O 	O 	0.55425 0.99485 0.82705 -0.47900
O 	O 	0.62475 0.03921 0.90820 -0.48800
O 	O 	0.56030 0.13550 0.08270 -0.29900
O 	O 	0.27075 0.01763 0.07099 -0.48300
O 	O 	0.28940 0.08993 0.99823 -0.45500
O 	O 	0.26906 0.24640 0.09367 -0.47600
O 	O 	0.28481 0.26257 0.21566 -0.47300
O 	O 	0.22847 0.06878 0.31811 -0.22000
Zn	Zn	0.30921 0.05349 0.91982 1.22800
Zn	Zn	0.34412 0.99975 0.76962 1.21500
C 	C 	0.60450 0.14130 0.12250 0.11400
C 	C 	0.61420 0.17730 0.19210 -0.01900
C 	C 	0.16100 0.06050 0.49740 -0.00700
C 	C 	0.06876 0.36758 0.24933 0.36300
C 	C 	0.12662 0.38362 0.27333 -0.04800
C 	C 	0.15652 0.36354 0.23483 -0.01100
H 	H 	0.14027 0.33923 0.19343 0.05400
C 	C 	0.21047 0.37947 0.25773 -0.04400
C 	C 	0.24332 0.35821 0.21693 0.38200
C 	C 	0.23397 0.41453 0.31873 -0.12600
H 	H 	0.27067 0.42483 0.33453 0.10000
C 	C 	0.20387 0.43453 0.35643 0.21200
C 	C 	0.14987 0.41893 0.33393 -0.13000
H 	H 	0.12907 0.43243 0.35993 0.09900
C 	C 	0.20287 0.48433 0.46403 0.11800
C 	C 	0.24417 0.51683 0.53403 -0.01900
C 	C 	0.25207 0.47603 0.57153 0.00600
C 	C 	0.94206 0.39797 0.39263 0.37500
C 	C 	0.93012 0.42620 0.45563 -0.05900
C 	C 	0.93541 0.47857 0.44353 0.00200
H 	H 	0.94267 0.49433 0.39493 0.05900
C 	C 	0.92998 0.50727 0.50323 -0.05600
C 	C 	0.93985 0.56488 0.49283 0.35300
C 	C 	0.91825 0.48385 0.57453 -0.10300
H 	H 	0.91637 0.50443 0.61573 0.07900
C 	C 	0.90935 0.43024 0.58473 0.16300
C 	C 	0.91680 0.40201 0.52593 -0.09900
H 	H 	0.91277 0.36623 0.53373 0.07800
C 	C 	0.88307 0.42713 0.71383 0.00500
H 	H 	0.85817 0.44143 0.69833 0.04000
H 	H 	0.91797 0.45863 0.73403 0.03500
C 	C 	0.85437 0.38143 0.77303 -0.00100
C 	C 	0.79557 0.34733 0.75413 0.00600
O 	O 	0.04531 0.39054 0.28239 -0.50300
O 	O 	0.04646 0.33166 0.19789 -0.49000
O 	O 	0.22092 0.32818 0.16038 -0.47900
O 	O 	0.29142 0.37254 0.24153 -0.48700
O 	O 	0.22697 0.46883 0.41603 -0.29800
O 	O 	0.93742 0.35096 0.40432 -0.48300
O 	O 	0.95607 0.42326 0.33156 -0.45400
O 	O 	0.93573 0.57973 0.42700 -0.47600
O 	O 	0.95148 0.59590 0.54899 -0.47300
O 	O 	0.89514 0.40211 0.65144 -0.22000
Zn	Zn	0.97588 0.38682 0.25315 1.22900
Zn	Zn	0.01079 0.33308 0.10295 1.21400
C 	C 	0.27117 0.47463 0.45583 0.11400
C 	C 	0.28087 0.51063 0.52543 -0.01900
C 	C 	0.82767 0.39383 0.83073 -0.00700
C 	C 	0.73542 0.70092 0.58267 0.36300
C 	C 	0.79328 0.71696 0.60667 -0.04800
C 	C 	0.82318 0.69688 0.56817 -0.01100
H 	H 	0.80693 0.67257 0.52677 0.05400
C 	C 	0.87713 0.71281 0.59107 -0.04400
C 	C 	0.90998 0.69155 0.55027 0.38200
C 	C 	0.90063 0.74787 0.65207 -0.12600
H 	H 	0.93733 0.75817 0.66787 0.10000
C 	C 	0.87053 0.76787 0.68977 0.21200
C 	C 	0.81653 0.75227 0.66727 -0.13000
H 	H 	0.79573 0.76577 0.69327 0.09900
C 	C 	0.86953 0.81767 0.79737 0.11800
C 	C 	0.91083 0.85017 0.86737 -0.01900
C 	C 	0.91873 0.80937 0.90487 0.00500
C 	C 	0.60872 0.73131 0.72597 0.37500
C 	C 	0.59678 0.75954 0.78897 -0.05900
C 	C 	0.60207 0.81191 0.77687 0.00200
H 	H 	0.60933 0.82767 0.72827 0.05900
C 	C 	0.59664 0.84061 0.83657 -0.05600
C 	C 	0.60651 0.89822 0.82617 0.35300
C 	C 	0.58491 0.81719 0.90787 -0.10300
H 	H 	0.58303 0.83777 0.94907 0.08000
C 	C 	0.57601 0.76358 0.91807 0.16300
C 	C 	0.58346 0.73535 0.85927 -0.09900
H 	H 	0.57943 0.69957 0.86707 0.07800
C 	C 	0.54973 0.76047 0.04717 0.00500
H 	H 	0.52483 0.77477 0.03167 0.04000
H 	H 	0.58463 0.79197 0.06737 0.03500
C 	C 	0.52103 0.71477 0.10637 -0.00100
C 	C 	0.46223 0.68067 0.08747 0.00600
O 	O 	0.71197 0.72388 0.61573 -0.50300
O 	O 	0.71312 0.66500 0.53123 -0.48900
O 	O 	0.88758 0.66152 0.49372 -0.47900
O 	O 	0.95808 0.70588 0.57487 -0.48700
O 	O 	0.89363 0.80217 0.74937 -0.29800
O 	O 	0.60408 0.68430 0.73766 -0.48300
O 	O 	0.62273 0.75660 0.66490 -0.45400
O 	O 	0.60239 0.91307 0.76034 -0.47600
O 	O 	0.61814 0.92924 0.88233 -0.47200
O 	O 	0.56180 0.73545 0.98478 -0.22000
Zn	Zn	0.64254 0.72016 0.58649 1.22900
Zn	Zn	0.67745 0.66642 0.43629 1.21400
C 	C 	0.93783 0.80797 0.78917 0.11400
C 	C 	0.94753 0.84397 0.85877 -0.01900
C 	C 	0.49433 0.72717 0.16407 -0.00700
C 	C 	0.96575 0.36784 0.91600 0.36200
C 	C 	0.94971 0.40966 0.94000 -0.04800
C 	C 	0.96979 0.45964 0.90150 -0.01200
H 	H 	0.99410 0.46770 0.86010 0.05400
C 	C 	0.95386 0.49766 0.92440 -0.04200
C 	C 	0.97512 0.55177 0.88360 0.38000
C 	C 	0.91880 0.48610 0.98540 -0.13100
H 	H 	0.90850 0.51250 0.00120 0.10200
C 	C 	0.89880 0.43600 0.02310 0.21500
C 	C 	0.91440 0.39760 0.00060 -0.13000
H 	H 	0.90090 0.36330 0.02660 0.09900
C 	C 	0.84900 0.38520 0.13070 0.11800
C 	C 	0.81650 0.39400 0.20070 -0.01900
C 	C 	0.85730 0.44270 0.23820 0.00600
C 	C 	0.93536 0.21075 0.05930 0.37800
C 	C 	0.90713 0.17058 0.12230 -0.06000
C 	C 	0.85476 0.12350 0.11020 0.00300
H 	H 	0.83900 0.11500 0.06160 0.05900
C 	C 	0.82606 0.08937 0.16990 -0.05600
C 	C 	0.76845 0.04163 0.15950 0.35300
C 	C 	0.84948 0.10106 0.24120 -0.10300
H 	H 	0.82890 0.07860 0.28240 0.08000
C 	C 	0.90309 0.14577 0.25140 0.16300
C 	C 	0.93132 0.18145 0.19260 -0.09900
H 	H 	0.96710 0.21320 0.20040 0.07800
C 	C 	0.90620 0.12260 0.38050 0.00500
H 	H 	0.89190 0.08340 0.36500 0.04000
H 	H 	0.87470 0.12600 0.40070 0.03500
C 	C 	0.95190 0.13960 0.43970 -0.00100
C 	C 	0.98600 0.11490 0.42080 0.00700
O 	O 	0.94279 0.32143 0.94906 -0.50300
O 	O 	0.00167 0.38146 0.86456 -0.48800
O 	O 	0.00515 0.55940 0.82705 -0.47800
O 	O 	0.96079 0.58554 0.90820 -0.48700
O 	O 	0.86450 0.42480 0.08270 -0.29900
O 	O 	0.98237 0.25312 0.07099 -0.48300
O 	O 	0.91007 0.19947 0.99823 -0.45700
O 	O 	0.75360 0.02266 0.09367 -0.47500
O 	O 	0.73743 0.02224 0.21566 -0.47200
O 	O 	0.93122 0.15969 0.31811 -0.22000
Zn	Zn	0.94651 0.25572 0.91982 1.22800
Zn	Zn	0.00025 0.34437 0.76962 1.21400
C 	C 	0.85870 0.46320 0.12250 0.11400
C 	C 	0.82270 0.43690 0.19210 -0.01900
C 	C 	0.93950 0.10050 0.49740 -0.00700
C 	C 	0.63242 0.70117 0.24933 0.36300
C 	C 	0.61638 0.74299 0.27333 -0.04800
C 	C 	0.63646 0.79297 0.23483 -0.01100
H 	H 	0.66077 0.80103 0.19343 0.05400
C 	C 	0.62053 0.83099 0.25773 -0.04400
C 	C 	0.64179 0.88510 0.21693 0.38200
C 	C 	0.58547 0.81943 0.31873 -0.12600
H 	H 	0.57517 0.84583 0.33453 0.10000
C 	C 	0.56547 0.76933 0.35643 0.21200
C 	C 	0.58107 0.73093 0.33393 -0.13000
H 	H 	0.56757 0.69663 0.35993 0.09900
C 	C 	0.51567 0.71853 0.46403 0.11800
C 	C 	0.48317 0.72733 0.53403 -0.01900
C 	C 	0.52397 0.77603 0.57153 0.00600
C 	C 	0.60203 0.54408 0.39263 0.37500
C 	C 	0.57380 0.50391 0.45563 -0.05900
C 	C 	0.52143 0.45683 0.44353 0.00200
H 	H 	0.50567 0.44833 0.39493 0.05900
C 	C 	0.49273 0.42270 0.50323 -0.05600
C 	C 	0.43512 0.37496 0.49283 0.35300
C 	C 	0.51615 0.43439 0.57453 -0.10300
H 	H 	0.49557 0.41193 0.61573 0.08000
C 	C 	0.56976 0.47910 0.58473 0.16300
C 	C 	0.59799 0.51478 0.52593 -0.09900
H 	H 	0.63377 0.54653 0.53373 0.07800
C 	C 	0.57287 0.45593 0.71383 0.00500
H 	H 	0.55857 0.41673 0.69833 0.04000
H 	H 	0.54137 0.45933 0.73403 0.03500
C 	C 	0.61857 0.47293 0.77303 -0.00100
C 	C 	0.65267 0.44823 0.75413 0.00600
O 	O 	0.60946 0.65476 0.28239 -0.50300
O 	O 	0.66834 0.71479 0.19789 -0.48900
O 	O 	0.67182 0.89273 0.16038 -0.47900
O 	O 	0.62746 0.91887 0.24153 -0.48700
O 	O 	0.53117 0.75813 0.41603 -0.29800
O 	O 	0.64904 0.58645 0.40432 -0.48300
O 	O 	0.57674 0.53280 0.33156 -0.45400
O 	O 	0.42027 0.35599 0.42700 -0.47600
O 	O 	0.40410 0.35557 0.54899 -0.47300
O 	O 	0.59789 0.49302 0.65144 -0.22000
Zn	Zn	0.61318 0.58905 0.25315 1.22900
Zn	Zn	0.66692 0.67770 0.10295 1.21400
C 	C 	0.52537 0.79653 0.45583 0.11400
C 	C 	0.48937 0.77023 0.52543 -0.01900
C 	C 	0.60617 0.43383 0.83073 -0.00700
C 	C 	0.29908 0.03451 0.58267 0.36200
C 	C 	0.28304 0.07633 0.60667 -0.04800
C 	C 	0.30312 0.12631 0.56817 -0.01100
H 	H 	0.32743 0.13437 0.52677 0.05400
C 	C 	0.28719 0.16433 0.59107 -0.04400
C 	C 	0.30845 0.21844 0.55027 0.38200
C 	C 	0.25213 0.15277 0.65207 -0.12600
H 	H 	0.24183 0.17917 0.66787 0.10000
C 	C 	0.23213 0.10267 0.68977 0.21200
C 	C 	0.24773 0.06427 0.66727 -0.13000
H 	H 	0.23423 0.02997 0.69327 0.09800
C 	C 	0.18233 0.05187 0.79737 0.11800
C 	C 	0.14983 0.06067 0.86737 -0.01900
C 	C 	0.19063 0.10937 0.90487 0.00600
C 	C 	0.26869 0.87742 0.72597 0.37500
C 	C 	0.24046 0.83725 0.78897 -0.05900
C 	C 	0.18809 0.79017 0.77687 0.00200
H 	H 	0.17233 0.78167 0.72827 0.05900
C 	C 	0.15939 0.75604 0.83657 -0.05600
C 	C 	0.10178 0.70830 0.82617 0.35300
C 	C 	0.18281 0.76773 0.90787 -0.10300
H 	H 	0.16223 0.74527 0.94907 0.08000
C 	C 	0.23642 0.81244 0.91807 0.16300
C 	C 	0.26465 0.84812 0.85927 -0.09900
H 	H 	0.30043 0.87987 0.86707 0.07800
C 	C 	0.23953 0.78927 0.04717 0.00400
H 	H 	0.22523 0.75007 0.03167 0.04000
H 	H 	0.20803 0.79267 0.06737 0.03500
C 	C 	0.28523 0.80627 0.10637 -0.00100
C 	C 	0.31933 0.78157 0.08747 0.00500
O 	O 	0.27612 0.98810 0.61573 -0.50200
O 	O 	0.33500 0.04813 0.53123 -0.48900
O 	O 	0.33848 0.22607 0.49372 -0.47900
O 	O 	0.29412 0.25221 0.57487 -0.48700
O 	O 	0.19783 0.09147 0.74937 -0.29800
O 	O 	0.31570 0.91979 0.73766 -0.48300
O 	O 	0.24340 0.86614 0.66490 -0.45400
O 	O 	0.08693 0.68933 0.76034 -0.47600
O 	O 	0.07076 0.68891 0.88233 -0.47200
O 	O 	0.26455 0.82636 0.98478 -0.21900
Zn	Zn	0.27984 0.92239 0.58649 1.22900
Zn	Zn	0.33358 0.01104 0.43629 1.21400
C 	C 	0.19203 0.12987 0.78917 0.11400
C 	C 	0.15603 0.10357 0.85877 -0.01900
C 	C 	0.27283 0.76717 0.16407 -0.00700
C 	C 	0.63216 0.59791 0.91600 0.36300
C 	C 	0.59034 0.54005 0.94000 -0.04800
C 	C 	0.54036 0.51015 0.90150 -0.01100
H 	H 	0.53230 0.52640 0.86010 0.05400
C 	C 	0.50234 0.45620 0.92440 -0.04400
C 	C 	0.44823 0.42335 0.88360 0.38200
C 	C 	0.51390 0.43270 0.98540 -0.12800
H 	H 	0.48750 0.39600 0.00120 0.10000
C 	C 	0.56400 0.46280 0.02310 0.21300
C 	C 	0.60240 0.51680 0.00060 -0.13100
H 	H 	0.63670 0.53760 0.02660 0.09900
C 	C 	0.61480 0.46380 0.13070 0.11800
C 	C 	0.60600 0.42250 0.20070 -0.01900
C 	C 	0.55730 0.41460 0.23820 0.00600
C 	C 	0.78925 0.72461 0.05930 0.37600
C 	C 	0.82942 0.73655 0.12230 -0.06000
C 	C 	0.87650 0.73126 0.11020 0.00200
H 	H 	0.88500 0.72400 0.06160 0.05900
C 	C 	0.91063 0.73669 0.16990 -0.05600
C 	C 	0.95837 0.72682 0.15950 0.35300
C 	C 	0.89894 0.74842 0.24120 -0.10300
H 	H 	0.92140 0.75030 0.28240 0.08000
C 	C 	0.85423 0.75732 0.25140 0.16300
C 	C 	0.81855 0.74987 0.19260 -0.09900
H 	H 	0.78680 0.75390 0.20040 0.07800
C 	C 	0.87740 0.78360 0.38050 0.00500
H 	H 	0.91660 0.80850 0.36500 0.04000
H 	H 	0.87400 0.74870 0.40070 0.03500
C 	C 	0.86040 0.81230 0.43970 -0.00100
C 	C 	0.88510 0.87110 0.42080 0.00600
O 	O 	0.67857 0.62136 0.94906 -0.50300
O 	O 	0.61854 0.62021 0.86456 -0.48900
O 	O 	0.44060 0.44575 0.82705 -0.47900
O 	O 	0.41446 0.37525 0.90820 -0.48700
O 	O 	0.57520 0.43970 0.08270 -0.29800
O 	O 	0.74688 0.72925 0.07099 -0.48300
O 	O 	0.80053 0.71060 0.99823 -0.45500
O 	O 	0.97734 0.73094 0.09367 -0.47600
O 	O 	0.97776 0.71519 0.21566 -0.47200
O 	O 	0.84031 0.77153 0.31811 -0.22000
Zn	Zn	0.74428 0.69079 0.91982 1.22900
Zn	Zn	0.65563 0.65588 0.76962 1.21400
C 	C 	0.53680 0.39550 0.12250 0.11400
C 	C 	0.56310 0.38580 0.19210 -0.01900
C 	C 	0.89950 0.83900 0.49740 -0.00700
C 	C 	0.29883 0.93124 0.24933 0.36300
C 	C 	0.25701 0.87338 0.27333 -0.04800
C 	C 	0.20703 0.84348 0.23483 -0.01100
H 	H 	0.19897 0.85973 0.19343 0.05400
C 	C 	0.16901 0.78953 0.25773 -0.04400
C 	C 	0.11490 0.75668 0.21693 0.38200
C 	C 	0.18057 0.76603 0.31873 -0.12600
H 	H 	0.15417 0.72933 0.33453 0.10000
C 	C 	0.23067 0.79613 0.35643 0.21200
C 	C 	0.26907 0.85013 0.33393 -0.13000
H 	H 	0.30337 0.87093 0.35993 0.09900
C 	C 	0.28147 0.79713 0.46403 0.11800
C 	C 	0.27267 0.75583 0.53403 -0.01900
C 	C 	0.22397 0.74793 0.57153 0.00600
C 	C 	0.45592 0.05794 0.39263 0.37500
C 	C 	0.49609 0.06988 0.45563 -0.05900
C 	C 	0.54317 0.06459 0.44353 0.00200
H 	H 	0.55167 0.05733 0.39493 0.05900
C 	C 	0.57730 0.07002 0.50323 -0.05600
C 	C 	0.62504 0.06015 0.49283 0.35300
C 	C 	0.56561 0.08175 0.57453 -0.10300
H 	H 	0.58807 0.08363 0.61573 0.08000
C 	C 	0.52090 0.09065 0.58473 0.16300
C 	C 	0.48522 0.08320 0.52593 -0.09900
H 	H 	0.45347 0.08723 0.53373 0.07800
C 	C 	0.54407 0.11693 0.71383 0.00500
H 	H 	0.58327 0.14183 0.69833 0.04000
H 	H 	0.54067 0.08203 0.73403 0.03500
C 	C 	0.52707 0.14563 0.77303 -0.00100
C 	C 	0.55177 0.20443 0.75413 0.00600
O 	O 	0.34524 0.95469 0.28239 -0.50300
O 	O 	0.28521 0.95354 0.19789 -0.48900
O 	O 	0.10727 0.77908 0.16038 -0.47900
O 	O 	0.08113 0.70858 0.24153 -0.48700
O 	O 	0.24187 0.77303 0.41603 -0.29800
O 	O 	0.41355 0.06258 0.40432 -0.48300
O 	O 	0.46720 0.04393 0.33156 -0.45400
O 	O 	0.64401 0.06427 0.42700 -0.47600
O 	O 	0.64443 0.04852 0.54899 -0.47300
O 	O 	0.50698 0.10486 0.65144 -0.22000
Zn	Zn	0.41095 0.02412 0.25315 1.22900
Zn	Zn	0.32230 0.98921 0.10295 1.21400
C 	C 	0.20347 0.72883 0.45583 0.11400
C 	C 	0.22977 0.71913 0.52543 -0.01900
C 	C 	0.56617 0.17233 0.83073 -0.00700
C 	C 	0.96549 0.26458 0.58267 0.36300
C 	C 	0.92367 0.20672 0.60667 -0.04800
C 	C 	0.87369 0.17682 0.56817 -0.01100
H 	H 	0.86563 0.19307 0.52677 0.05400
C 	C 	0.83567 0.12287 0.59107 -0.04400
C 	C 	0.78156 0.09002 0.55027 0.38200
C 	C 	0.84723 0.09937 0.65207 -0.12600
H 	H 	0.82083 0.06267 0.66787 0.10000
C 	C 	0.89733 0.12947 0.68977 0.21200
C 	C 	0.93573 0.18347 0.66727 -0.13000
H 	H 	0.97003 0.20427 0.69327 0.09900
C 	C 	0.94813 0.13047 0.79737 0.11800
C 	C 	0.93933 0.08917 0.86737 -0.02000
C 	C 	0.89063 0.08127 0.90487 0.00500
C 	C 	0.12258 0.39128 0.72597 0.37500
C 	C 	0.16275 0.40322 0.78897 -0.05900
C 	C 	0.20983 0.39793 0.77687 0.00200
H 	H 	0.21833 0.39067 0.72827 0.05900
C 	C 	0.24396 0.40336 0.83657 -0.05600
C 	C 	0.29170 0.39349 0.82617 0.35300
C 	C 	0.23227 0.41509 0.90787 -0.10300
H 	H 	0.25473 0.41697 0.94907 0.08000
C 	C 	0.18756 0.42399 0.91807 0.16300
C 	C 	0.15188 0.41654 0.85927 -0.09900
H 	H 	0.12013 0.42057 0.86707 0.07800
C 	C 	0.21073 0.45027 0.04717 0.00400
H 	H 	0.24993 0.47517 0.03167 0.04000
H 	H 	0.20733 0.41537 0.06737 0.03500
C 	C 	0.19373 0.47897 0.10637 -0.00100
C 	C 	0.21843 0.53777 0.08747 0.00500
O 	O 	0.01190 0.28803 0.61573 -0.50300
O 	O 	0.95187 0.28688 0.53123 -0.48900
O 	O 	0.77393 0.11242 0.49372 -0.47900
O 	O 	0.74779 0.04192 0.57487 -0.48700
O 	O 	0.90853 0.10637 0.74937 -0.29800
O 	O 	0.08021 0.39592 0.73766 -0.48300
O 	O 	0.13386 0.37727 0.66490 -0.45400
O 	O 	0.31067 0.39761 0.76034 -0.47600
O 	O 	0.31109 0.38186 0.88233 -0.47300
O 	O 	0.17364 0.43820 0.98478 -0.22000
Zn	Zn	0.07761 0.35746 0.58649 1.22900
Zn	Zn	0.98896 0.32255 0.43629 1.21400
C 	C 	0.87013 0.06217 0.78917 0.11400
C 	C 	0.89643 0.05247 0.85877 -0.01900
C 	C 	0.23283 0.50567 0.16407 -0.00700
C 	C 	0.59791 0.96575 0.08400 0.36100
C 	C 	0.54005 0.94971 0.06000 -0.04700
C 	C 	0.51015 0.96979 0.09850 -0.01200
H 	H 	0.52640 0.99410 0.13990 0.05400
C 	C 	0.45620 0.95386 0.07560 -0.04200
C 	C 	0.42335 0.97512 0.11640 0.38000
C 	C 	0.43270 0.91880 0.01460 -0.13200
H 	H 	0.39600 0.90850 0.99880 0.10300
C 	C 	0.46280 0.89880 0.97690 0.21600
C 	C 	0.51680 0.91440 0.99940 -0.13100
H 	H 	0.53760 0.90090 0.97340 0.09900
C 	C 	0.46380 0.84900 0.86930 0.11800
C 	C 	0.42250 0.81650 0.79930 -0.01900
C 	C 	0.41460 0.85730 0.76180 0.00600
C 	C 	0.72461 0.93536 0.94070 0.37600
C 	C 	0.73655 0.90713 0.87770 -0.06000
C 	C 	0.73126 0.85476 0.88980 0.00200
H 	H 	0.72400 0.83900 0.93840 0.05900
C 	C 	0.73669 0.82606 0.83010 -0.05600
C 	C 	0.72682 0.76845 0.84050 0.35300
C 	C 	0.74842 0.84948 0.75880 -0.10300
H 	H 	0.75030 0.82890 0.71760 0.08000
C 	C 	0.75732 0.90309 0.74860 0.16300
C 	C 	0.74987 0.93132 0.80740 -0.09900
H 	H 	0.75390 0.96710 0.79960 0.07800
C 	C 	0.78360 0.90620 0.61950 0.00500
H 	H 	0.80850 0.89190 0.63500 0.04000
H 	H 	0.74870 0.87470 0.59930 0.03500
C 	C 	0.81230 0.95190 0.56030 -0.00100
C 	C 	0.87110 0.98600 0.57920 0.00600
O 	O 	0.62136 0.94279 0.05094 -0.50300
O 	O 	0.62021 0.00167 0.13544 -0.48800
O 	O 	0.44575 0.00515 0.17295 -0.47800
O 	O 	0.37525 0.96079 0.09180 -0.48700
O 	O 	0.43970 0.86450 0.91730 -0.29900
O 	O 	0.72925 0.98237 0.92901 -0.48300
O 	O 	0.71060 0.91007 0.00177 -0.45500
O 	O 	0.73094 0.75360 0.90633 -0.47600
O 	O 	0.71519 0.73743 0.78434 -0.47300
O 	O 	0.77153 0.93122 0.68189 -0.22000
Zn	Zn	0.69079 0.94651 0.08018 1.22800
Zn	Zn	0.65588 0.00025 0.23038 1.21500
C 	C 	0.39550 0.85870 0.87750 0.11400
C 	C 	0.38580 0.82270 0.80790 -0.01900
C 	C 	0.83900 0.93950 0.50260 -0.00700
C 	C 	0.26458 0.29908 0.41733 0.36300
C 	C 	0.20672 0.28304 0.39333 -0.04800
C 	C 	0.17682 0.30312 0.43183 -0.01100
H 	H 	0.19307 0.32743 0.47323 0.05400
C 	C 	0.12287 0.28719 0.40893 -0.04400
C 	C 	0.09002 0.30845 0.44973 0.38200
C 	C 	0.09937 0.25213 0.34793 -0.12600
H 	H 	0.06267 0.24183 0.33213 0.10000
C 	C 	0.12947 0.23213 0.31023 0.21200
C 	C 	0.18347 0.24773 0.33273 -0.13000
H 	H 	0.20427 0.23423 0.30673 0.09900
C 	C 	0.13047 0.18233 0.20263 0.11800
C 	C 	0.08917 0.14983 0.13263 -0.01900
C 	C 	0.08127 0.19063 0.09513 0.00500
C 	C 	0.39128 0.26869 0.27403 0.37500
C 	C 	0.40322 0.24046 0.21103 -0.05900
C 	C 	0.39793 0.18809 0.22313 0.00200
H 	H 	0.39067 0.17233 0.27173 0.05900
C 	C 	0.40336 0.15939 0.16343 -0.05600
C 	C 	0.39349 0.10178 0.17383 0.35300
C 	C 	0.41509 0.18281 0.09213 -0.10300
H 	H 	0.41697 0.16223 0.05093 0.08000
C 	C 	0.42399 0.23642 0.08193 0.16300
C 	C 	0.41654 0.26465 0.14073 -0.09900
H 	H 	0.42057 0.30043 0.13293 0.07800
C 	C 	0.45027 0.23953 0.95283 0.00500
H 	H 	0.47517 0.22523 0.96833 0.04000
H 	H 	0.41537 0.20803 0.93263 0.03500
C 	C 	0.47897 0.28523 0.89363 -0.00100
C 	C 	0.53777 0.31933 0.91253 0.00600
O 	O 	0.28803 0.27612 0.38427 -0.50300
O 	O 	0.28688 0.33500 0.46877 -0.48900
O 	O 	0.11242 0.33848 0.50628 -0.47900
O 	O 	0.04192 0.29412 0.42513 -0.48700
O 	O 	0.10637 0.19783 0.25063 -0.29800
O 	O 	0.39592 0.31570 0.26234 -0.48300
O 	O 	0.37727 0.24340 0.33510 -0.45400
O 	O 	0.39761 0.08693 0.23966 -0.47600
O 	O 	0.38186 0.07076 0.11767 -0.47200
O 	O 	0.43820 0.26455 0.01522 -0.22000
Zn	Zn	0.35746 0.27984 0.41351 1.22900
Zn	Zn	0.32255 0.33358 0.56371 1.21400
C 	C 	0.06217 0.19203 0.21083 0.11400
C 	C 	0.05247 0.15603 0.14123 -0.01900
C 	C 	0.50567 0.27283 0.83593 -0.00700
C 	C 	0.93124 0.63242 0.75067 0.36300
C 	C 	0.87338 0.61638 0.72667 -0.04800
C 	C 	0.84348 0.63646 0.76517 -0.01100
H 	H 	0.85973 0.66077 0.80657 0.05400
C 	C 	0.78953 0.62053 0.74227 -0.04400
C 	C 	0.75668 0.64179 0.78307 0.38200
C 	C 	0.76603 0.58547 0.68127 -0.12600
H 	H 	0.72933 0.57517 0.66547 0.10000
C 	C 	0.79613 0.56547 0.64357 0.21200
C 	C 	0.85013 0.58107 0.66607 -0.13000
H 	H 	0.87093 0.56757 0.64007 0.09900
C 	C 	0.79713 0.51567 0.53597 0.11800
C 	C 	0.75583 0.48317 0.46597 -0.01900
C 	C 	0.74793 0.52397 0.42847 0.00600
C 	C 	0.05794 0.60203 0.60737 0.37500
C 	C 	0.06988 0.57380 0.54437 -0.05900
C 	C 	0.06459 0.52143 0.55647 0.00200
H 	H 	0.05733 0.50567 0.60507 0.05900
C 	C 	0.07002 0.49273 0.49677 -0.05600
C 	C 	0.06015 0.43512 0.50717 0.35300
C 	C 	0.08175 0.51615 0.42547 -0.10300
H 	H 	0.08363 0.49557 0.38427 0.07900
C 	C 	0.09065 0.56976 0.41527 0.16300
C 	C 	0.08320 0.59799 0.47407 -0.09900
H 	H 	0.08723 0.63377 0.46627 0.07800
C 	C 	0.11693 0.57287 0.28617 0.00500
H 	H 	0.14183 0.55857 0.30167 0.04000
H 	H 	0.08203 0.54137 0.26597 0.03500
C 	C 	0.14563 0.61857 0.22697 -0.00100
C 	C 	0.20443 0.65267 0.24587 0.00600
O 	O 	0.95469 0.60946 0.71761 -0.50300
O 	O 	0.95354 0.66834 0.80211 -0.49000
O 	O 	0.77908 0.67182 0.83962 -0.47900
O 	O 	0.70858 0.62746 0.75847 -0.48700
O 	O 	0.77303 0.53117 0.58397 -0.29800
O 	O 	0.06258 0.64904 0.59568 -0.48300
O 	O 	0.04393 0.57674 0.66844 -0.45400
O 	O 	0.06427 0.42027 0.57300 -0.47600
O 	O 	0.04852 0.40410 0.45101 -0.47300
O 	O 	0.10486 0.59789 0.34856 -0.22000
Zn	Zn	0.02412 0.61318 0.74685 1.22900
Zn	Zn	0.98921 0.66692 0.89705 1.21400
C 	C 	0.72883 0.52537 0.54417 0.11400
C 	C 	0.71913 0.48937 0.47457 -0.01900
C 	C 	0.17233 0.60617 0.16927 -0.00700
C 	C 	0.03425 0.63216 0.08400 0.36200
C 	C 	0.05029 0.59034 0.06000 -0.04800
C 	C 	0.03021 0.54036 0.09850 -0.01200
H 	H 	0.00590 0.53230 0.13990 0.05400
C 	C 	0.04614 0.50234 0.07560 -0.04200
C 	C 	0.02488 0.44823 0.11640 0.38000
C 	C 	0.08120 0.51390 0.01460 -0.13100
H 	H 	0.09150 0.48750 0.99880 0.10200
C 	C 	0.10120 0.56400 0.97690 0.21500
C 	C 	0.08560 0.60240 0.99940 -0.13000
H 	H 	0.09910 0.63670 0.97340 0.09900
C 	C 	0.15100 0.61480 0.86930 0.11800
C 	C 	0.18350 0.60600 0.79930 -0.01900
C 	C 	0.14270 0.55730 0.76180 0.00600
C 	C 	0.06464 0.78925 0.94070 0.37800
C 	C 	0.09287 0.82942 0.87770 -0.06000
C 	C 	0.14524 0.87650 0.88980 0.00300
H 	H 	0.16100 0.88500 0.93840 0.05900
C 	C 	0.17394 0.91063 0.83010 -0.05600
C 	C 	0.23155 0.95837 0.84050 0.35300
C 	C 	0.15052 0.89894 0.75880 -0.10300
H 	H 	0.17110 0.92140 0.71760 0.08000
C 	C 	0.09691 0.85423 0.74860 0.16300
C 	C 	0.06868 0.81855 0.80740 -0.09900
H 	H 	0.03290 0.78680 0.79960 0.07800
C 	C 	0.09380 0.87740 0.61950 0.00500
H 	H 	0.10810 0.91660 0.63500 0.04000
H 	H 	0.12530 0.87400 0.59930 0.03500
C 	C 	0.04810 0.86040 0.56030 -0.00100
C 	C 	0.01400 0.88510 0.57920 0.00700
O 	O 	0.05721 0.67857 0.05094 -0.50300
O 	O 	0.99833 0.61854 0.13544 -0.48800
O 	O 	0.99485 0.44060 0.17295 -0.47800
O 	O 	0.03921 0.41446 0.09180 -0.48700
O 	O 	0.13550 0.57520 0.91730 -0.29900
O 	O 	0.01763 0.74688 0.92901 -0.48300
O 	O 	0.08993 0.80053 0.00177 -0.45700
O 	O 	0.24640 0.97734 0.90633 -0.47500
O 	O 	0.26257 0.97776 0.78434 -0.47200
O 	O 	0.06878 0.84031 0.68189 -0.22000
Zn	Zn	0.05349 0.74428 0.08018 1.22800
Zn	Zn	0.99975 0.65563 0.23038 1.21400
C 	C 	0.14130 0.53680 0.87750 0.11400
C 	C 	0.17730 0.56310 0.80790 -0.01900
C 	C 	0.06050 0.89950 0.50260 -0.00700
C 	C 	0.70092 0.96549 0.41733 0.36200
C 	C 	0.71696 0.92367 0.39333 -0.04800
C 	C 	0.69688 0.87369 0.43183 -0.01100
H 	H 	0.67257 0.86563 0.47323 0.05400
C 	C 	0.71281 0.83567 0.40893 -0.04400
C 	C 	0.69155 0.78156 0.44973 0.38200
C 	C 	0.74787 0.84723 0.34793 -0.12600
H 	H 	0.75817 0.82083 0.33213 0.10000
C 	C 	0.76787 0.89733 0.31023 0.21200
C 	C 	0.75227 0.93573 0.33273 -0.13000
H 	H 	0.76577 0.97003 0.30673 0.09800
C 	C 	0.81767 0.94813 0.20263 0.11800
C 	C 	0.85017 0.93933 0.13263 -0.01900
C 	C 	0.80937 0.89063 0.09513 0.00600
C 	C 	0.73131 0.12258 0.27403 0.37500
C 	C 	0.75954 0.16275 0.21103 -0.05900
C 	C 	0.81191 0.20983 0.22313 0.00200
H 	H 	0.82767 0.21833 0.27173 0.05900
C 	C 	0.84061 0.24396 0.16343 -0.05600
C 	C 	0.89822 0.29170 0.17383 0.35300
C 	C 	0.81719 0.23227 0.09213 -0.10300
H 	H 	0.83777 0.25473 0.05093 0.08000
C 	C 	0.76358 0.18756 0.08193 0.16300
C 	C 	0.73535 0.15188 0.14073 -0.09900
H 	H 	0.69957 0.12013 0.13293 0.07800
C 	C 	0.76047 0.21073 0.95283 0.00400
H 	H 	0.77477 0.24993 0.96833 0.04000
H 	H 	0.79197 0.20733 0.93263 0.03500
C 	C 	0.71477 0.19373 0.89363 -0.00100
C 	C 	0.68067 0.21843 0.91253 0.00500
O 	O 	0.72388 0.01190 0.38427 -0.50200
O 	O 	0.66500 0.95187 0.46877 -0.48900
O 	O 	0.66152 0.77393 0.50628 -0.47900
O 	O 	0.70588 0.74779 0.42513 -0.48700
O 	O 	0.80217 0.90853 0.25063 -0.29800
O 	O 	0.68430 0.08021 0.26234 -0.48300
O 	O 	0.75660 0.13386 0.33510 -0.45400
O 	O 	0.91307 0.31067 0.23966 -0.47600
O 	O 	0.92924 0.31109 0.11767 -0.47200
O 	O 	0.73545 0.17364 0.01522 -0.21900
Zn	Zn	0.72016 0.07761 0.41351 1.22900
Zn	Zn	0.66642 0.98896 0.56371 1.21400
C 	C 	0.80797 0.87013 0.21083 0.11400
C 	C 	0.84397 0.89643 0.14123 -0.01900
C 	C 	0.72717 0.23283 0.83593 -0.00700
C 	C 	0.36758 0.29883 0.75067 0.36300
C 	C 	0.38362 0.25701 0.72667 -0.04800
C 	C 	0.36354 0.20703 0.76517 -0.01100
H 	H 	0.33923 0.19897 0.80657 0.05400
C 	C 	0.37947 0.16901 0.74227 -0.04400
C 	C 	0.35821 0.11490 0.78307 0.38200
C 	C 	0.41453 0.18057 0.68127 -0.12600
H 	H 	0.42483 0.15417 0.66547 0.10000
C 	C 	0.43453 0.23067 0.64357 0.21200
C 	C 	0.41893 0.26907 0.66607 -0.13000
H 	H 	0.43243 0.30337 0.64007 0.09900
C 	C 	0.48433 0.28147 0.53597 0.11800
C 	C 	0.51683 0.27267 0.46597 -0.01900
C 	C 	0.47603 0.22397 0.42847 0.00600
C 	C 	0.39797 0.45592 0.60737 0.37500
C 	C 	0.42620 0.49609 0.54437 -0.05900
C 	C 	0.47857 0.54317 0.55647 0.00200
H 	H 	0.49433 0.55167 0.60507 0.05900
C 	C 	0.50727 0.57730 0.49677 -0.05600
C 	C 	0.56488 0.62504 0.50717 0.35300
C 	C 	0.48385 0.56561 0.42547 -0.10300
H 	H 	0.50443 0.58807 0.38427 0.08000
C 	C 	0.43024 0.52090 0.41527 0.16300
C 	C 	0.40201 0.48522 0.47407 -0.09900
H 	H 	0.36623 0.45347 0.46627 0.07800
C 	C 	0.42713 0.54407 0.28617 0.00500
H 	H 	0.44143 0.58327 0.30167 0.04000
H 	H 	0.45863 0.54067 0.26597 0.03500
C 	C 	0.38143 0.52707 0.22697 -0.00100
C 	C 	0.34733 0.55177 0.24587 0.00600
O 	O 	0.39054 0.34524 0.71761 -0.50300
O 	O 	0.33166 0.28521 0.80211 -0.48900
O 	O 	0.32818 0.10727 0.83962 -0.47900
O 	O 	0.37254 0.08113 0.75847 -0.48700
O 	O 	0.46883 0.24187 0.58397 -0.29800
O 	O 	0.35096 0.41355 0.59568 -0.48300
O 	O 	0.42326 0.46720 0.66844 -0.45400
O 	O 	0.57973 0.64401 0.57300 -0.47600
O 	O 	0.59590 0.64443 0.45101 -0.47300
O 	O 	0.40211 0.50698 0.34856 -0.22000
Zn	Zn	0.38682 0.41095 0.74685 1.22900
Zn	Zn	0.33308 0.32230 0.89705 1.21400
C 	C 	0.47463 0.20347 0.54417 0.11400
C 	C 	0.51063 0.22977 0.47457 -0.01900
C 	C 	0.39383 0.56617 0.16927 -0.00700
C 	C 	0.36784 0.40209 0.08400 0.36300
C 	C 	0.40966 0.45995 0.06000 -0.04800
C 	C 	0.45964 0.48985 0.09850 -0.01100
H 	H 	0.46770 0.47360 0.13990 0.05400
C 	C 	0.49766 0.54380 0.07560 -0.04400
C 	C 	0.55177 0.57665 0.11640 0.38200
C 	C 	0.48610 0.56730 0.01460 -0.12800
H 	H 	0.51250 0.60400 0.99880 0.10000
C 	C 	0.43600 0.53720 0.97690 0.21300
C 	C 	0.39760 0.48320 0.99940 -0.13100
H 	H 	0.36330 0.46240 0.97340 0.09900
C 	C 	0.38520 0.53620 0.86930 0.11800
C 	C 	0.39400 0.57750 0.79930 -0.01900
C 	C 	0.44270 0.58540 0.76180 0.00600
C 	C 	0.21075 0.27539 0.94070 0.37600
C 	C 	0.17058 0.26345 0.87770 -0.06000
C 	C 	0.12350 0.26874 0.88980 0.00200
H 	H 	0.11500 0.27600 0.93840 0.05900
C 	C 	0.08937 0.26331 0.83010 -0.05600
C 	C 	0.04163 0.27318 0.84050 0.35300
C 	C 	0.10106 0.25158 0.75880 -0.10300
H 	H 	0.07860 0.24970 0.71760 0.08000
C 	C 	0.14577 0.24268 0.74860 0.16300
C 	C 	0.18145 0.25013 0.80740 -0.09900
H 	H 	0.21320 0.24610 0.79960 0.07800
C 	C 	0.12260 0.21640 0.61950 0.00500
H 	H 	0.08340 0.19150 0.63500 0.04000
H 	H 	0.12600 0.25130 0.59930 0.03500
C 	C 	0.13960 0.18770 0.56030 -0.00100
C 	C 	0.11490 0.12890 0.57920 0.00600
O 	O 	0.32143 0.37864 0.05094 -0.50300
O 	O 	0.38146 0.37979 0.13544 -0.48900
O 	O 	0.55940 0.55425 0.17295 -0.47900
O 	O 	0.58554 0.62475 0.09180 -0.48700
O 	O 	0.42480 0.56030 0.91730 -0.29800
O 	O 	0.25312 0.27075 0.92901 -0.48300
O 	O 	0.19947 0.28940 0.00177 -0.45500
O 	O 	0.02266 0.26906 0.90633 -0.47600
O 	O 	0.02224 0.28481 0.78434 -0.47200
O 	O 	0.15969 0.22847 0.68189 -0.22000
Zn	Zn	0.25572 0.30921 0.08018 1.22900
Zn	Zn	0.34437 0.34412 0.23038 1.21400
C 	C 	0.46320 0.60450 0.87750 0.11400
C 	C 	0.43690 0.61420 0.80790 -0.01900
C 	C 	0.10050 0.16100 0.50260 -0.00700
C 	C 	0.03451 0.73542 0.41733 0.36300
C 	C 	0.07633 0.79328 0.39333 -0.04800
C 	C 	0.12631 0.82318 0.43183 -0.01100
H 	H 	0.13437 0.80693 0.47323 0.05400
C 	C 	0.16433 0.87713 0.40893 -0.04400
C 	C 	0.21844 0.90998 0.44973 0.38200
C 	C 	0.15277 0.90063 0.34793 -0.12600
H 	H 	0.17917 0.93733 0.33213 0.10000
C 	C 	0.10267 0.87053 0.31023 0.21200
C 	C 	0.06427 0.81653 0.33273 -0.13000
H 	H 	0.02997 0.79573 0.30673 0.09900
C 	C 	0.05187 0.86953 0.20263 0.11800
C 	C 	0.06067 0.91083 0.13263 -0.02000
C 	C 	0.10937 0.91873 0.09513 0.00500
C 	C 	0.87742 0.60872 0.27403 0.37500
C 	C 	0.83725 0.59678 0.21103 -0.05900
C 	C 	0.79017 0.60207 0.22313 0.00200
H 	H 	0.78167 0.60933 0.27173 0.05900
C 	C 	0.75604 0.59664 0.16343 -0.05600
C 	C 	0.70830 0.60651 0.17383 0.35300
C 	C 	0.76773 0.58491 0.09213 -0.10300
H 	H 	0.74527 0.58303 0.05093 0.08000
C 	C 	0.81244 0.57601 0.08193 0.16300
C 	C 	0.84812 0.58346 0.14073 -0.09900
H 	H 	0.87987 0.57943 0.13293 0.07800
C 	C 	0.78927 0.54973 0.95283 0.00400
H 	H 	0.75007 0.52483 0.96833 0.04000
H 	H 	0.79267 0.58463 0.93263 0.03500
C 	C 	0.80627 0.52103 0.89363 -0.00100
C 	C 	0.78157 0.46223 0.91253 0.00500
O 	O 	0.98810 0.71197 0.38427 -0.50300
O 	O 	0.04813 0.71312 0.46877 -0.48900
O 	O 	0.22607 0.88758 0.50628 -0.47900
O 	O 	0.25221 0.95808 0.42513 -0.48700
O 	O 	0.09147 0.89363 0.25063 -0.29800
O 	O 	0.91979 0.60408 0.26234 -0.48300
O 	O 	0.86614 0.62273 0.33510 -0.45400
O 	O 	0.68933 0.60239 0.23966 -0.47600
O 	O 	0.68891 0.61814 0.11767 -0.47300
O 	O 	0.82636 0.56180 0.01522 -0.22000
Zn	Zn	0.92239 0.64254 0.41351 1.22900
Zn	Zn	0.01104 0.67745 0.56371 1.21400
C 	C 	0.12987 0.93783 0.21083 0.11400
C 	C 	0.10357 0.94753 0.14123 -0.01900
C 	C 	0.76717 0.49433 0.83593 -0.00700
C 	C 	0.70117 0.06876 0.75067 0.36300
C 	C 	0.74299 0.12662 0.72667 -0.04800
C 	C 	0.79297 0.15652 0.76517 -0.01100
H 	H 	0.80103 0.14027 0.80657 0.05400
C 	C 	0.83099 0.21047 0.74227 -0.04400
C 	C 	0.88510 0.24332 0.78307 0.38200
C 	C 	0.81943 0.23397 0.68127 -0.12600
H 	H 	0.84583 0.27067 0.66547 0.10000
C 	C 	0.76933 0.20387 0.64357 0.21200
C 	C 	0.73093 0.14987 0.66607 -0.13000
H 	H 	0.69663 0.12907 0.64007 0.09900
C 	C 	0.71853 0.20287 0.53597 0.11800
C 	C 	0.72733 0.24417 0.46597 -0.01900
C 	C 	0.77603 0.25207 0.42847 0.00600
C 	C 	0.54408 0.94206 0.60737 0.37500
C 	C 	0.50391 0.93012 0.54437 -0.05900
C 	C 	0.45683 0.93541 0.55647 0.00200
H 	H 	0.44833 0.94267 0.60507 0.05900
C 	C 	0.42270 0.92998 0.49677 -0.05600
C 	C 	0.37496 0.93985 0.50717 0.35300
C 	C 	0.43439 0.91825 0.42547 -0.10300
H 	H 	0.41193 0.91637 0.38427 0.08000
C 	C 	0.47910 0.90935 0.41527 0.16300
C 	C 	0.51478 0.91680 0.47407 -0.09900
H 	H 	0.54653 0.91277 0.46627 0.07800
C 	C 	0.45593 0.88307 0.28617 0.00500
H 	H 	0.41673 0.85817 0.30167 0.04000
H 	H 	0.45933 0.91797 0.26597 0.03500
C 	C 	0.47293 0.85437 0.22697 -0.00100
C 	C 	0.44823 0.79557 0.24587 0.00600
O 	O 	0.65476 0.04531 0.71761 -0.50300
O 	O 	0.71479 0.04646 0.80211 -0.48900
O 	O 	0.89273 0.22092 0.83962 -0.47900
O 	O 	0.91887 0.29142 0.75847 -0.48700
O 	O 	0.75813 0.22697 0.58397 -0.29800
O 	O 	0.58645 0.93742 0.59568 -0.48300
O 	O 	0.53280 0.95607 0.66844 -0.45400
O 	O 	0.35599 0.93573 0.57300 -0.47600
O 	O 	0.35557 0.95148 0.45101 -0.47300
O 	O 	0.49302 0.89514 0.34856 -0.22000
Zn	Zn	0.58905 0.97588 0.74685 1.22900
Zn	Zn	0.67770 0.01079 0.89705 1.21400
C 	C 	0.79653 0.27117 0.54417 0.11400
C 	C 	0.77023 0.28087 0.47457 -0.01900
C 	C 	0.43383 0.82767 0.16927 -0.00700
