data_crystal

_cell_length_a 36.01500
_cell_length_b 14.77740
_cell_length_c 31.24800
_cell_angle_alpha 90.00000
_cell_angle_beta  102.21600
_cell_angle_gamma 90.00000

_symmetry_space_group_name_	'P 1'
_symmetry_space_group_name_H-M	'P 1'

loop_
_symmetry_equiv_pos_as_xyz
  x,y,z

loop_
_atom_site_label
_atom_site_type_symbol
_atom_site_fract_x
_atom_site_fract_y
_atom_site_fract_z
_atom_site_charge
C 	C 	0.25670 0.09620 0.19843 0.08600
N 	N 	0.26305 0.18419 0.19209 -0.14200
C 	C 	0.29324 0.21900 0.21962 0.10200
N 	N 	0.31713 0.17242 0.24984 -0.13800
C 	C 	0.30734 0.08610 0.25425 0.09800
N 	N 	0.27701 0.04480 0.23037 -0.14300
C 	C 	0.22453 0.05150 0.16848 0.04000
C 	C 	0.21475 0.96260 0.17611 -0.12200
H 	H 	0.22860 0.93030 0.20060 0.08600
C 	C 	0.18496 0.92210 0.14799 0.06400
H 	H 	0.17840 0.86160 0.15370 -0.00800
N 	N 	0.16469 0.96491 0.11268 -0.27500
C 	C 	0.17417 0.05090 0.10527 0.05900
H 	H 	0.16000 0.08160 0.08040 -0.00600
C 	C 	0.20362 0.09640 0.13225 -0.11300
H 	H 	0.20940 0.15710 0.12610 0.07700
C 	C 	0.30055 0.31760 0.21853 0.05000
C 	C 	0.27278 0.37790 0.19879 -0.11700
H 	H 	0.24850 0.35660 0.18410 0.07200
C 	C 	0.28079 0.46940 0.20064 0.06300
H 	H 	0.26150 0.51040 0.18730 -0.01200
N 	N 	0.31472 0.50275 0.22043 -0.27500
C 	C 	0.34158 0.44390 0.23936 0.06300
H 	H 	0.36570 0.46690 0.25350 -0.01700
C 	C 	0.33581 0.35170 0.23927 -0.11600
H 	H 	0.35550 0.31210 0.25310 0.07900
C 	C 	0.33317 0.03420 0.28945 0.05500
C 	C 	0.36452 0.07620 0.31421 -0.12000
H 	H 	0.37000 0.13750 0.30890 0.08900
C 	C 	0.38790 0.02790 0.34680 0.06800
H 	H 	0.40980 0.05700 0.36340 -0.01000
N 	N 	0.38122 0.94209 0.35611 -0.27600
C 	C 	0.35035 0.90160 0.33257 0.06500
H 	H 	0.34520 0.84080 0.33930 -0.01200
C 	C 	0.32553 0.94460 0.29872 -0.12400
H 	H 	0.30400 0.91390 0.28230 0.07300
C 	C 	0.98311 0.16770 0.06380 0.09300
N 	N 	0.96287 0.15410 0.09450 -0.13500
C 	C 	0.93421 0.21210 0.09265 0.10700
N 	N 	0.92641 0.28275 0.06537 -0.13600
C 	C 	0.94881 0.28970 0.03684 0.09300
N 	N 	0.97670 0.23230 0.03341 -0.15000
C 	C 	0.01569 0.10660 0.06440 0.04500
C 	C 	0.02915 0.09100 0.02687 -0.11900
H 	H 	0.01740 0.11900 -0.00000 0.07400
C 	C 	0.05988 0.03460 0.02880 0.06800
H 	H 	0.06880 0.02340 0.00280 -0.00800
N 	N 	0.07771 0.99475 0.06605 -0.27500
C 	C 	0.06484 0.01190 0.10262 0.06900
H 	H 	0.07770 0.98520 0.12930 -0.01500
C 	C 	0.03399 0.06600 0.10311 -0.11900
H 	H 	0.02540 0.07550 0.12950 0.08100
C 	C 	0.90872 0.19580 0.12357 0.06100
C 	C 	0.91933 0.13650 0.15858 -0.11900
H 	H 	0.94330 0.10700 0.16370 0.08200
C 	C 	0.89438 0.12160 0.18563 0.07200
H 	H 	0.90170 0.08150 0.20970 -0.02000
N 	N 	0.86031 0.16090 0.17968 -0.27700
C 	C 	0.85025 0.21830 0.14592 0.06600
H 	H 	0.82600 0.24660 0.14140 -0.01300
C 	C 	0.87357 0.23770 0.11761 -0.11600
H 	H 	0.86570 0.27920 0.09430 0.08200
C 	C 	0.94323 0.36830 0.00633 0.04400
C 	C 	0.91142 0.42270 0.00163 -0.12100
H 	H 	0.89290 0.41160 0.01860 0.07800
C 	C 	0.90668 0.49310 0.97214 0.07100
H 	H 	0.88430 0.52870 0.96850 -0.01900
N 	N 	0.93226 0.51331 0.94841 -0.27200
C 	C 	0.96343 0.46160 0.95336 0.06500
H 	H 	0.98200 0.47580 0.93680 -0.01000
C 	C 	0.96977 0.38860 0.98154 -0.11400
H 	H 	0.99200 0.35270 0.98390 0.06800
Zn	Zn	0.12117 0.90373 0.06870 1.15800
I 	I 	0.09971 0.76130 0.10415 -0.18600
I 	I 	0.13771 0.90120 0.99228 -0.21800
Zn	Zn	0.42126 0.88013 0.40366 1.15800
I 	I 	0.38979 0.75558 0.43838 -0.16000
I 	I 	0.47818 0.86920 0.36736 -0.16100
Zn	Zn	0.82656 0.13994 0.22461 1.15800
I 	I 	0.87059 0.16163 0.30052 -0.24100
I 	I 	0.76562 0.23014 0.19970 -0.16300
I 	I 	0.09987 0.76940 0.10720 -0.15400
I 	I 	0.13560 0.89440 0.99570 -0.11700
I 	I 	0.39110 0.75900 0.44340 -0.17800
I 	I 	0.47700 0.84930 0.36730 -0.15900
I 	I 	0.86550 0.16280 0.29710 -0.12800
I 	I 	0.76460 0.22490 0.19480 -0.17400
C 	C 	0.75670 0.59620 0.19843 0.08700
N 	N 	0.76305 0.68419 0.19209 -0.14100
C 	C 	0.79324 0.71900 0.21962 0.10300
N 	N 	0.81713 0.67242 0.24984 -0.13700
C 	C 	0.80734 0.58610 0.25425 0.09900
N 	N 	0.77701 0.54480 0.23037 -0.14200
C 	C 	0.72453 0.55150 0.16848 0.04100
C 	C 	0.71475 0.46260 0.17611 -0.12100
H 	H 	0.72860 0.43030 0.20060 0.08700
C 	C 	0.68496 0.42210 0.14799 0.06500
H 	H 	0.67840 0.36160 0.15370 -0.00700
N 	N 	0.66469 0.46491 0.11268 -0.27400
C 	C 	0.67417 0.55090 0.10527 0.06000
H 	H 	0.66000 0.58160 0.08040 -0.00500
C 	C 	0.70362 0.59640 0.13225 -0.11200
H 	H 	0.70940 0.65710 0.12610 0.07800
C 	C 	0.80055 0.81760 0.21853 0.05100
C 	C 	0.77278 0.87790 0.19879 -0.11600
H 	H 	0.74850 0.85660 0.18410 0.07300
C 	C 	0.78079 0.96940 0.20064 0.06300
H 	H 	0.76150 0.01040 0.18730 -0.01100
N 	N 	0.81472 0.00275 0.22043 -0.27400
C 	C 	0.84158 0.94390 0.23936 0.06300
H 	H 	0.86570 0.96690 0.25350 -0.01700
C 	C 	0.83581 0.85170 0.23927 -0.11600
H 	H 	0.85550 0.81210 0.25310 0.07900
C 	C 	0.83317 0.53420 0.28945 0.05500
C 	C 	0.86452 0.57620 0.31421 -0.12000
H 	H 	0.87000 0.63750 0.30890 0.08900
C 	C 	0.88790 0.52790 0.34680 0.06800
H 	H 	0.90980 0.55700 0.36340 -0.01000
N 	N 	0.88122 0.44209 0.35611 -0.27600
C 	C 	0.85035 0.40160 0.33257 0.06500
H 	H 	0.84520 0.34080 0.33930 -0.01200
C 	C 	0.82553 0.44460 0.29872 -0.12400
H 	H 	0.80400 0.41390 0.28230 0.07300
C 	C 	0.48311 0.66770 0.06380 0.09300
N 	N 	0.46287 0.65410 0.09450 -0.13500
C 	C 	0.43421 0.71210 0.09265 0.10700
N 	N 	0.42641 0.78275 0.06537 -0.13600
C 	C 	0.44881 0.78970 0.03684 0.09300
N 	N 	0.47670 0.73230 0.03341 -0.15000
C 	C 	0.51569 0.60660 0.06440 0.04500
C 	C 	0.52915 0.59100 0.02687 -0.11800
H 	H 	0.51740 0.61900 -0.00000 0.07400
C 	C 	0.55988 0.53460 0.02880 0.06800
H 	H 	0.56880 0.52340 0.00280 -0.00800
N 	N 	0.57771 0.49475 0.06605 -0.27500
C 	C 	0.56484 0.51190 0.10262 0.06800
H 	H 	0.57770 0.48520 0.12930 -0.01500
C 	C 	0.53399 0.56600 0.10311 -0.11900
H 	H 	0.52540 0.57550 0.12950 0.08100
C 	C 	0.40872 0.69580 0.12357 0.06100
C 	C 	0.41933 0.63650 0.15858 -0.11900
H 	H 	0.44330 0.60700 0.16370 0.08200
C 	C 	0.39438 0.62160 0.18563 0.07200
H 	H 	0.40170 0.58150 0.20970 -0.02000
N 	N 	0.36031 0.66090 0.17968 -0.27700
C 	C 	0.35025 0.71830 0.14592 0.06600
H 	H 	0.32600 0.74660 0.14140 -0.01300
C 	C 	0.37357 0.73770 0.11761 -0.11600
H 	H 	0.36570 0.77920 0.09430 0.08200
C 	C 	0.44323 0.86830 0.00633 0.04400
C 	C 	0.41142 0.92270 0.00163 -0.12100
H 	H 	0.39290 0.91160 0.01860 0.07800
C 	C 	0.40668 0.99310 0.97214 0.07100
H 	H 	0.38430 0.02870 0.96850 -0.01900
N 	N 	0.43226 0.01331 0.94841 -0.27200
C 	C 	0.46343 0.96160 0.95336 0.06500
H 	H 	0.48200 0.97580 0.93680 -0.01000
C 	C 	0.46977 0.88860 0.98154 -0.11400
H 	H 	0.49200 0.85270 0.98390 0.06800
Zn	Zn	0.62117 0.40373 0.06870 1.15800
I 	I 	0.59971 0.26130 0.10415 -0.18600
I 	I 	0.63771 0.40120 0.99228 -0.21800
Zn	Zn	0.92126 0.38013 0.40366 1.15800
I 	I 	0.88979 0.25558 0.43838 -0.16000
I 	I 	0.97818 0.36920 0.36736 -0.16100
Zn	Zn	0.32656 0.63994 0.22461 1.15800
I 	I 	0.37059 0.66163 0.30052 -0.24100
I 	I 	0.26562 0.73014 0.19970 -0.16300
I 	I 	0.59987 0.26940 0.10720 -0.15400
I 	I 	0.63560 0.39440 0.99570 -0.11700
I 	I 	0.89110 0.25900 0.44340 -0.17800
I 	I 	0.97700 0.34930 0.36730 -0.15900
I 	I 	0.36550 0.66280 0.29710 -0.12800
I 	I 	0.26460 0.72490 0.19480 -0.17400
C 	C 	0.25670 0.90380 0.69843 0.08700
N 	N 	0.26305 0.81581 0.69209 -0.14100
C 	C 	0.29324 0.78100 0.71962 0.10300
N 	N 	0.31713 0.82758 0.74984 -0.13700
C 	C 	0.30734 0.91390 0.75425 0.09900
N 	N 	0.27701 0.95520 0.73037 -0.14200
C 	C 	0.22453 0.94850 0.66848 0.04100
C 	C 	0.21475 0.03740 0.67611 -0.12100
H 	H 	0.22860 0.06970 0.70060 0.08700
C 	C 	0.18496 0.07790 0.64799 0.06500
H 	H 	0.17840 0.13840 0.65370 -0.00700
N 	N 	0.16469 0.03509 0.61268 -0.27400
C 	C 	0.17417 0.94910 0.60527 0.06000
H 	H 	0.16000 0.91840 0.58040 -0.00500
C 	C 	0.20362 0.90360 0.63225 -0.11200
H 	H 	0.20940 0.84290 0.62610 0.07900
C 	C 	0.30055 0.68240 0.71853 0.05100
C 	C 	0.27278 0.62210 0.69879 -0.11600
H 	H 	0.24850 0.64340 0.68410 0.07300
C 	C 	0.28079 0.53060 0.70064 0.06400
H 	H 	0.26150 0.48960 0.68730 -0.01100
N 	N 	0.31472 0.49725 0.72043 -0.27400
C 	C 	0.34158 0.55610 0.73936 0.06300
H 	H 	0.36570 0.53310 0.75350 -0.01700
C 	C 	0.33581 0.64830 0.73927 -0.11600
H 	H 	0.35550 0.68790 0.75310 0.07900
C 	C 	0.33317 0.96580 0.78945 0.05500
C 	C 	0.36452 0.92380 0.81421 -0.12000
H 	H 	0.37000 0.86250 0.80890 0.08900
C 	C 	0.38790 0.97210 0.84680 0.06800
H 	H 	0.40980 0.94300 0.86340 -0.01000
N 	N 	0.38122 0.05791 0.85611 -0.27600
C 	C 	0.35035 0.09840 0.83257 0.06500
H 	H 	0.34520 0.15920 0.83930 -0.01200
C 	C 	0.32553 0.05540 0.79872 -0.12400
H 	H 	0.30400 0.08610 0.78230 0.07300
C 	C 	0.98311 0.83230 0.56380 0.09300
N 	N 	0.96287 0.84590 0.59450 -0.13500
C 	C 	0.93421 0.78790 0.59265 0.10700
N 	N 	0.92641 0.71725 0.56537 -0.13600
C 	C 	0.94881 0.71030 0.53684 0.09300
N 	N 	0.97670 0.76770 0.53341 -0.15000
C 	C 	0.01569 0.89340 0.56440 0.04500
C 	C 	0.02915 0.90900 0.52687 -0.11800
H 	H 	0.01740 0.88100 0.50000 0.07500
C 	C 	0.05988 0.96540 0.52880 0.06800
H 	H 	0.06880 0.97660 0.50280 -0.00700
N 	N 	0.07771 0.00525 0.56605 -0.27500
C 	C 	0.06484 0.98810 0.60262 0.06800
H 	H 	0.07770 0.01480 0.62930 -0.01500
C 	C 	0.03399 0.93400 0.60311 -0.11900
H 	H 	0.02540 0.92450 0.62950 0.08100
C 	C 	0.90872 0.80420 0.62357 0.06100
C 	C 	0.91933 0.86350 0.65858 -0.11900
H 	H 	0.94330 0.89300 0.66370 0.08200
C 	C 	0.89438 0.87840 0.68563 0.07200
H 	H 	0.90170 0.91850 0.70970 -0.02000
N 	N 	0.86031 0.83910 0.67968 -0.27700
C 	C 	0.85025 0.78170 0.64592 0.06600
H 	H 	0.82600 0.75340 0.64140 -0.01300
C 	C 	0.87357 0.76230 0.61761 -0.11600
H 	H 	0.86570 0.72080 0.59430 0.08200
C 	C 	0.94323 0.63170 0.50633 0.04600
C 	C 	0.91142 0.57730 0.50163 -0.11900
H 	H 	0.89290 0.58840 0.51860 0.07800
C 	C 	0.90668 0.50690 0.47214 0.06800
H 	H 	0.88430 0.47130 0.46850 -0.01800
N 	N 	0.93226 0.48669 0.44841 -0.27200
C 	C 	0.96343 0.53840 0.45336 0.06600
H 	H 	0.98200 0.52420 0.43680 -0.01000
C 	C 	0.96977 0.61140 0.48154 -0.11600
H 	H 	0.99200 0.64730 0.48390 0.06800
Zn	Zn	0.12117 0.09627 0.56870 1.15800
I 	I 	0.09971 0.23870 0.60415 -0.18600
I 	I 	0.13771 0.09880 0.49228 -0.21900
Zn	Zn	0.42126 0.11987 0.90366 1.15800
I 	I 	0.38979 0.24442 0.93838 -0.16000
I 	I 	0.47818 0.13080 0.86736 -0.16100
Zn	Zn	0.82656 0.86006 0.72461 1.15800
I 	I 	0.87059 0.83837 0.80052 -0.24100
I 	I 	0.76562 0.76986 0.69970 -0.16300
I 	I 	0.09987 0.23060 0.60720 -0.15300
I 	I 	0.13560 0.10560 0.49570 -0.11700
I 	I 	0.39110 0.24100 0.94340 -0.17800
I 	I 	0.47700 0.15070 0.86730 -0.15900
I 	I 	0.86550 0.83720 0.79710 -0.12800
I 	I 	0.76460 0.77510 0.69480 -0.17400
C 	C 	0.75670 0.40380 0.69843 0.08700
N 	N 	0.76305 0.31581 0.69209 -0.14100
C 	C 	0.79324 0.28100 0.71962 0.10300
N 	N 	0.81713 0.32758 0.74984 -0.13700
C 	C 	0.80734 0.41390 0.75425 0.09900
N 	N 	0.77701 0.45520 0.73037 -0.14200
C 	C 	0.72453 0.44850 0.66848 0.04100
C 	C 	0.71475 0.53740 0.67611 -0.12100
H 	H 	0.72860 0.56970 0.70060 0.08700
C 	C 	0.68496 0.57790 0.64799 0.06500
H 	H 	0.67840 0.63840 0.65370 -0.00700
N 	N 	0.66469 0.53509 0.61268 -0.27400
C 	C 	0.67417 0.44910 0.60527 0.06000
H 	H 	0.66000 0.41840 0.58040 -0.00500
C 	C 	0.70362 0.40360 0.63225 -0.11200
H 	H 	0.70940 0.34290 0.62610 0.07900
C 	C 	0.80055 0.18240 0.71853 0.05100
C 	C 	0.77278 0.12210 0.69879 -0.11600
H 	H 	0.74850 0.14340 0.68410 0.07300
C 	C 	0.78079 0.03060 0.70064 0.06400
H 	H 	0.76150 0.98960 0.68730 -0.01100
N 	N 	0.81472 0.99725 0.72043 -0.27400
C 	C 	0.84158 0.05610 0.73936 0.06300
H 	H 	0.86570 0.03310 0.75350 -0.01700
C 	C 	0.83581 0.14830 0.73927 -0.11600
H 	H 	0.85550 0.18790 0.75310 0.07900
C 	C 	0.83317 0.46580 0.78945 0.05500
C 	C 	0.86452 0.42380 0.81421 -0.12000
H 	H 	0.87000 0.36250 0.80890 0.08900
C 	C 	0.88790 0.47210 0.84680 0.06800
H 	H 	0.90980 0.44300 0.86340 -0.01000
N 	N 	0.88122 0.55791 0.85611 -0.27600
C 	C 	0.85035 0.59840 0.83257 0.06500
H 	H 	0.84520 0.65920 0.83930 -0.01200
C 	C 	0.82553 0.55540 0.79872 -0.12400
H 	H 	0.80400 0.58610 0.78230 0.07300
C 	C 	0.48311 0.33230 0.56380 0.09300
N 	N 	0.46287 0.34590 0.59450 -0.13500
C 	C 	0.43421 0.28790 0.59265 0.10700
N 	N 	0.42641 0.21725 0.56537 -0.13600
C 	C 	0.44881 0.21030 0.53684 0.09300
N 	N 	0.47670 0.26770 0.53341 -0.15000
C 	C 	0.51569 0.39340 0.56440 0.04500
C 	C 	0.52915 0.40900 0.52687 -0.11800
H 	H 	0.51740 0.38100 0.50000 0.07500
C 	C 	0.55988 0.46540 0.52880 0.06800
H 	H 	0.56880 0.47660 0.50280 -0.00700
N 	N 	0.57771 0.50525 0.56605 -0.27500
C 	C 	0.56484 0.48810 0.60262 0.06800
H 	H 	0.57770 0.51480 0.62930 -0.01500
C 	C 	0.53399 0.43400 0.60311 -0.11900
H 	H 	0.52540 0.42450 0.62950 0.08100
C 	C 	0.40872 0.30420 0.62357 0.06100
C 	C 	0.41933 0.36350 0.65858 -0.11900
H 	H 	0.44330 0.39300 0.66370 0.08200
C 	C 	0.39438 0.37840 0.68563 0.07200
H 	H 	0.40170 0.41850 0.70970 -0.02000
N 	N 	0.36031 0.33910 0.67968 -0.27700
C 	C 	0.35025 0.28170 0.64592 0.06600
H 	H 	0.32600 0.25340 0.64140 -0.01300
C 	C 	0.37357 0.26230 0.61761 -0.11600
H 	H 	0.36570 0.22080 0.59430 0.08200
C 	C 	0.44323 0.13170 0.50633 0.04600
C 	C 	0.41142 0.07730 0.50163 -0.11900
H 	H 	0.39290 0.08840 0.51860 0.07800
C 	C 	0.40668 0.00690 0.47214 0.06800
H 	H 	0.38430 0.97130 0.46850 -0.01800
N 	N 	0.43226 0.98669 0.44841 -0.27200
C 	C 	0.46343 0.03840 0.45336 0.06600
H 	H 	0.48200 0.02420 0.43680 -0.01000
C 	C 	0.46977 0.11140 0.48154 -0.11600
H 	H 	0.49200 0.14730 0.48390 0.06800
Zn	Zn	0.62117 0.59627 0.56870 1.15800
I 	I 	0.59971 0.73870 0.60415 -0.18600
I 	I 	0.63771 0.59880 0.49228 -0.21900
Zn	Zn	0.92126 0.61987 0.90366 1.15800
I 	I 	0.88979 0.74442 0.93838 -0.16000
I 	I 	0.97818 0.63080 0.86736 -0.16100
Zn	Zn	0.32656 0.36006 0.72461 1.15800
I 	I 	0.37059 0.33837 0.80052 -0.24100
I 	I 	0.26562 0.26986 0.69970 -0.16300
I 	I 	0.59987 0.73060 0.60720 -0.15300
I 	I 	0.63560 0.60560 0.49570 -0.11700
I 	I 	0.89110 0.74100 0.94340 -0.17800
I 	I 	0.97700 0.65070 0.86730 -0.15900
I 	I 	0.36550 0.33720 0.79710 -0.12800
I 	I 	0.26460 0.27510 0.69480 -0.17400
C 	C 	0.74330 0.09620 0.30157 0.08700
N 	N 	0.73695 0.18419 0.30791 -0.14100
C 	C 	0.70676 0.21900 0.28038 0.10300
N 	N 	0.68287 0.17242 0.25016 -0.13700
C 	C 	0.69266 0.08610 0.24575 0.09900
N 	N 	0.72299 0.04480 0.26963 -0.14200
C 	C 	0.77547 0.05150 0.33152 0.04100
C 	C 	0.78525 0.96260 0.32389 -0.12100
H 	H 	0.77140 0.93030 0.29940 0.08700
C 	C 	0.81504 0.92210 0.35201 0.06500
H 	H 	0.82160 0.86160 0.34630 -0.00700
N 	N 	0.83531 0.96491 0.38732 -0.27400
C 	C 	0.82583 0.05090 0.39473 0.06000
H 	H 	0.84000 0.08160 0.41960 -0.00500
C 	C 	0.79638 0.09640 0.36775 -0.11200
H 	H 	0.79060 0.15710 0.37390 0.07900
C 	C 	0.69945 0.31760 0.28147 0.05100
C 	C 	0.72722 0.37790 0.30121 -0.11600
H 	H 	0.75150 0.35660 0.31590 0.07300
C 	C 	0.71921 0.46940 0.29936 0.06400
H 	H 	0.73850 0.51040 0.31270 -0.01100
N 	N 	0.68528 0.50275 0.27957 -0.27400
C 	C 	0.65842 0.44390 0.26064 0.06300
H 	H 	0.63430 0.46690 0.24650 -0.01700
C 	C 	0.66419 0.35170 0.26073 -0.11600
H 	H 	0.64450 0.31210 0.24690 0.07900
C 	C 	0.66683 0.03420 0.21055 0.05500
C 	C 	0.63548 0.07620 0.18579 -0.12000
H 	H 	0.63000 0.13750 0.19110 0.08900
C 	C 	0.61210 0.02790 0.15320 0.06800
H 	H 	0.59020 0.05700 0.13660 -0.01000
N 	N 	0.61878 0.94209 0.14389 -0.27600
C 	C 	0.64965 0.90160 0.16743 0.06500
H 	H 	0.65480 0.84080 0.16070 -0.01200
C 	C 	0.67447 0.94460 0.20128 -0.12400
H 	H 	0.69600 0.91390 0.21770 0.07300
C 	C 	0.01689 0.16770 0.43620 0.09300
N 	N 	0.03713 0.15410 0.40550 -0.13500
C 	C 	0.06579 0.21210 0.40735 0.10700
N 	N 	0.07359 0.28275 0.43463 -0.13600
C 	C 	0.05119 0.28970 0.46316 0.09300
N 	N 	0.02330 0.23230 0.46659 -0.15000
C 	C 	0.98431 0.10660 0.43560 0.04500
C 	C 	0.97085 0.09100 0.47313 -0.11800
H 	H 	0.98260 0.11900 0.50000 0.07500
C 	C 	0.94012 0.03460 0.47120 0.06800
H 	H 	0.93120 0.02340 0.49720 -0.00700
N 	N 	0.92229 0.99475 0.43395 -0.27500
C 	C 	0.93516 0.01190 0.39738 0.06900
H 	H 	0.92230 0.98520 0.37070 -0.01500
C 	C 	0.96601 0.06600 0.39689 -0.11900
H 	H 	0.97460 0.07550 0.37050 0.08100
C 	C 	0.09128 0.19580 0.37643 0.06100
C 	C 	0.08067 0.13650 0.34142 -0.11900
H 	H 	0.05670 0.10700 0.33630 0.08200
C 	C 	0.10562 0.12160 0.31437 0.07200
H 	H 	0.09830 0.08150 0.29030 -0.02000
N 	N 	0.13969 0.16090 0.32032 -0.27700
C 	C 	0.14975 0.21830 0.35408 0.06600
H 	H 	0.17400 0.24660 0.35860 -0.01300
C 	C 	0.12643 0.23770 0.38239 -0.11600
H 	H 	0.13430 0.27920 0.40570 0.08200
C 	C 	0.05677 0.36830 0.49367 0.04600
C 	C 	0.08858 0.42270 0.49837 -0.11900
H 	H 	0.10710 0.41160 0.48140 0.07800
C 	C 	0.09332 0.49310 0.52786 0.06800
H 	H 	0.11570 0.52870 0.53150 -0.01800
N 	N 	0.06774 0.51331 0.55159 -0.27200
C 	C 	0.03657 0.46160 0.54664 0.06600
H 	H 	0.01800 0.47580 0.56320 -0.01000
C 	C 	0.03023 0.38860 0.51846 -0.11600
H 	H 	0.00800 0.35270 0.51610 0.06800
Zn	Zn	0.87883 0.90373 0.43130 1.15800
I 	I 	0.90029 0.76130 0.39585 -0.18600
I 	I 	0.86229 0.90120 0.50772 -0.21900
Zn	Zn	0.57874 0.88013 0.09634 1.15800
I 	I 	0.61021 0.75558 0.06162 -0.16100
I 	I 	0.52182 0.86920 0.13264 -0.16100
Zn	Zn	0.17344 0.13994 0.27539 1.15800
I 	I 	0.12941 0.16163 0.19948 -0.24100
I 	I 	0.23438 0.23014 0.30030 -0.16300
I 	I 	0.90013 0.76940 0.39280 -0.15300
I 	I 	0.86440 0.89440 0.50430 -0.11800
I 	I 	0.60890 0.75900 0.05660 -0.17900
I 	I 	0.52300 0.84930 0.13270 -0.16000
I 	I 	0.13450 0.16280 0.20290 -0.12800
I 	I 	0.23540 0.22490 0.30520 -0.17400
C 	C 	0.24330 0.59620 0.30157 0.08700
N 	N 	0.23695 0.68419 0.30791 -0.14100
C 	C 	0.20676 0.71900 0.28038 0.10300
N 	N 	0.18287 0.67242 0.25016 -0.13700
C 	C 	0.19266 0.58610 0.24575 0.09900
N 	N 	0.22299 0.54480 0.26963 -0.14200
C 	C 	0.27547 0.55150 0.33152 0.04100
C 	C 	0.28525 0.46260 0.32389 -0.12100
H 	H 	0.27140 0.43030 0.29940 0.08700
C 	C 	0.31504 0.42210 0.35201 0.06500
H 	H 	0.32160 0.36160 0.34630 -0.00700
N 	N 	0.33531 0.46491 0.38732 -0.27400
C 	C 	0.32583 0.55090 0.39473 0.06000
H 	H 	0.34000 0.58160 0.41960 -0.00500
C 	C 	0.29638 0.59640 0.36775 -0.11200
H 	H 	0.29060 0.65710 0.37390 0.07900
C 	C 	0.19945 0.81760 0.28147 0.05100
C 	C 	0.22722 0.87790 0.30121 -0.11600
H 	H 	0.25150 0.85660 0.31590 0.07300
C 	C 	0.21921 0.96940 0.29936 0.06300
H 	H 	0.23850 0.01040 0.31270 -0.01100
N 	N 	0.18528 0.00275 0.27957 -0.27400
C 	C 	0.15842 0.94390 0.26064 0.06300
H 	H 	0.13430 0.96690 0.24650 -0.01700
C 	C 	0.16419 0.85170 0.26073 -0.11600
H 	H 	0.14450 0.81210 0.24690 0.07900
C 	C 	0.16683 0.53420 0.21055 0.05500
C 	C 	0.13548 0.57620 0.18579 -0.12000
H 	H 	0.13000 0.63750 0.19110 0.08900
C 	C 	0.11210 0.52790 0.15320 0.06800
H 	H 	0.09020 0.55700 0.13660 -0.01000
N 	N 	0.11878 0.44209 0.14389 -0.27600
C 	C 	0.14965 0.40160 0.16743 0.06500
H 	H 	0.15480 0.34080 0.16070 -0.01200
C 	C 	0.17447 0.44460 0.20128 -0.12400
H 	H 	0.19600 0.41390 0.21770 0.07300
C 	C 	0.51689 0.66770 0.43620 0.09300
N 	N 	0.53713 0.65410 0.40550 -0.13500
C 	C 	0.56579 0.71210 0.40735 0.10700
N 	N 	0.57359 0.78275 0.43463 -0.13600
C 	C 	0.55119 0.78970 0.46316 0.09300
N 	N 	0.52330 0.73230 0.46659 -0.15000
C 	C 	0.48431 0.60660 0.43560 0.04500
C 	C 	0.47085 0.59100 0.47313 -0.11800
H 	H 	0.48260 0.61900 0.50000 0.07500
C 	C 	0.44012 0.53460 0.47120 0.06800
H 	H 	0.43120 0.52340 0.49720 -0.00700
N 	N 	0.42229 0.49475 0.43395 -0.27500
C 	C 	0.43516 0.51190 0.39738 0.06800
H 	H 	0.42230 0.48520 0.37070 -0.01500
C 	C 	0.46601 0.56600 0.39689 -0.11900
H 	H 	0.47460 0.57550 0.37050 0.08100
C 	C 	0.59128 0.69580 0.37643 0.06100
C 	C 	0.58067 0.63650 0.34142 -0.11900
H 	H 	0.55670 0.60700 0.33630 0.08200
C 	C 	0.60562 0.62160 0.31437 0.07200
H 	H 	0.59830 0.58150 0.29030 -0.02000
N 	N 	0.63969 0.66090 0.32032 -0.27700
C 	C 	0.64975 0.71830 0.35408 0.06600
H 	H 	0.67400 0.74660 0.35860 -0.01300
C 	C 	0.62643 0.73770 0.38239 -0.11600
H 	H 	0.63430 0.77920 0.40570 0.08200
C 	C 	0.55677 0.86830 0.49367 0.04600
C 	C 	0.58858 0.92270 0.49837 -0.11900
H 	H 	0.60710 0.91160 0.48140 0.07700
C 	C 	0.59332 0.99310 0.52786 0.06800
H 	H 	0.61570 0.02870 0.53150 -0.01800
N 	N 	0.56774 0.01331 0.55159 -0.27200
C 	C 	0.53657 0.96160 0.54664 0.06600
H 	H 	0.51800 0.97580 0.56320 -0.01000
C 	C 	0.53023 0.88860 0.51846 -0.11600
H 	H 	0.50800 0.85270 0.51610 0.06800
Zn	Zn	0.37883 0.40373 0.43130 1.15800
I 	I 	0.40029 0.26130 0.39585 -0.18600
I 	I 	0.36229 0.40120 0.50772 -0.21900
Zn	Zn	0.07874 0.38013 0.09634 1.15800
I 	I 	0.11021 0.25558 0.06162 -0.16100
I 	I 	0.02182 0.36920 0.13264 -0.16100
Zn	Zn	0.67344 0.63994 0.27539 1.15800
I 	I 	0.62941 0.66163 0.19948 -0.24100
I 	I 	0.73438 0.73014 0.30030 -0.16300
I 	I 	0.40013 0.26940 0.39280 -0.15300
I 	I 	0.36440 0.39440 0.50430 -0.11700
I 	I 	0.10890 0.25900 0.05660 -0.17900
I 	I 	0.02300 0.34930 0.13270 -0.15900
I 	I 	0.63450 0.66280 0.20290 -0.12800
I 	I 	0.73540 0.72490 0.30520 -0.17400
C 	C 	0.74330 0.90380 0.80157 0.08700
N 	N 	0.73695 0.81581 0.80791 -0.14100
C 	C 	0.70676 0.78100 0.78038 0.10300
N 	N 	0.68287 0.82758 0.75016 -0.13700
C 	C 	0.69266 0.91390 0.74575 0.09900
N 	N 	0.72299 0.95520 0.76963 -0.14200
C 	C 	0.77547 0.94850 0.83152 0.04100
C 	C 	0.78525 0.03740 0.82389 -0.12100
H 	H 	0.77140 0.06970 0.79940 0.08700
C 	C 	0.81504 0.07790 0.85201 0.06500
H 	H 	0.82160 0.13840 0.84630 -0.00700
N 	N 	0.83531 0.03509 0.88732 -0.27400
C 	C 	0.82583 0.94910 0.89473 0.06000
H 	H 	0.84000 0.91840 0.91960 -0.00400
C 	C 	0.79638 0.90360 0.86775 -0.11200
H 	H 	0.79060 0.84290 0.87390 0.07900
C 	C 	0.69945 0.68240 0.78147 0.05100
C 	C 	0.72722 0.62210 0.80121 -0.11600
H 	H 	0.75150 0.64340 0.81590 0.07300
C 	C 	0.71921 0.53060 0.79936 0.06400
H 	H 	0.73850 0.48960 0.81270 -0.01100
N 	N 	0.68528 0.49725 0.77957 -0.27400
C 	C 	0.65842 0.55610 0.76064 0.06300
H 	H 	0.63430 0.53310 0.74650 -0.01700
C 	C 	0.66419 0.64830 0.76073 -0.11600
H 	H 	0.64450 0.68790 0.74690 0.07900
C 	C 	0.66683 0.96580 0.71055 0.05500
C 	C 	0.63548 0.92380 0.68579 -0.12000
H 	H 	0.63000 0.86250 0.69110 0.08900
C 	C 	0.61210 0.97210 0.65320 0.06800
H 	H 	0.59020 0.94300 0.63660 -0.01000
N 	N 	0.61878 0.05791 0.64389 -0.27600
C 	C 	0.64965 0.09840 0.66743 0.06500
H 	H 	0.65480 0.15920 0.66070 -0.01200
C 	C 	0.67447 0.05540 0.70128 -0.12400
H 	H 	0.69600 0.08610 0.71770 0.07300
C 	C 	0.01689 0.83230 0.93620 0.09400
N 	N 	0.03713 0.84590 0.90550 -0.13500
C 	C 	0.06579 0.78790 0.90735 0.10700
N 	N 	0.07359 0.71725 0.93463 -0.13600
C 	C 	0.05119 0.71030 0.96316 0.09300
N 	N 	0.02330 0.76770 0.96659 -0.15000
C 	C 	0.98431 0.89340 0.93560 0.04300
C 	C 	0.97085 0.90900 0.97313 -0.11300
H 	H 	0.98260 0.88100 -0.00000 0.07200
C 	C 	0.94012 0.96540 0.97120 0.06600
H 	H 	0.93120 0.97660 0.99720 -0.00600
N 	N 	0.92229 0.00525 0.93395 -0.27400
C 	C 	0.93516 0.98810 0.89738 0.06800
H 	H 	0.92230 0.01480 0.87070 -0.01500
C 	C 	0.96601 0.93400 0.89689 -0.11800
H 	H 	0.97460 0.92450 0.87050 0.08100
C 	C 	0.09128 0.80420 0.87643 0.06100
C 	C 	0.08067 0.86350 0.84142 -0.11900
H 	H 	0.05670 0.89300 0.83630 0.08200
C 	C 	0.10562 0.87840 0.81437 0.07200
H 	H 	0.09830 0.91850 0.79030 -0.02000
N 	N 	0.13969 0.83910 0.82032 -0.27700
C 	C 	0.14975 0.78170 0.85408 0.06600
H 	H 	0.17400 0.75340 0.85860 -0.01300
C 	C 	0.12643 0.76230 0.88239 -0.11600
H 	H 	0.13430 0.72080 0.90570 0.08200
C 	C 	0.05677 0.63170 0.99367 0.04800
C 	C 	0.08858 0.57730 0.99837 -0.11600
H 	H 	0.10710 0.58840 0.98140 0.07700
C 	C 	0.09332 0.50690 0.02786 0.06500
H 	H 	0.11570 0.47130 0.03150 -0.01800
N 	N 	0.06774 0.48669 0.05159 -0.27200
C 	C 	0.03657 0.53840 0.04664 0.06600
H 	H 	0.01800 0.52420 0.06320 -0.01100
C 	C 	0.03023 0.61140 0.01846 -0.11900
H 	H 	0.00800 0.64730 0.01610 0.06800
Zn	Zn	0.87883 0.09627 0.93130 1.15800
I 	I 	0.90029 0.23870 0.89585 -0.18600
I 	I 	0.86229 0.09880 0.00772 -0.22000
Zn	Zn	0.57874 0.11987 0.59634 1.15800
I 	I 	0.61021 0.24442 0.56162 -0.16000
I 	I 	0.52182 0.13080 0.63264 -0.16100
Zn	Zn	0.17344 0.86006 0.77539 1.15800
I 	I 	0.12941 0.83837 0.69948 -0.24100
I 	I 	0.23438 0.76986 0.80030 -0.16300
I 	I 	0.90013 0.23060 0.89280 -0.15300
I 	I 	0.86440 0.10560 0.00430 -0.11800
I 	I 	0.60890 0.24100 0.55660 -0.17800
I 	I 	0.52300 0.15070 0.63270 -0.15900
I 	I 	0.13450 0.83720 0.70290 -0.12800
I 	I 	0.23540 0.77510 0.80520 -0.17400
C 	C 	0.24330 0.40380 0.80157 0.08700
N 	N 	0.23695 0.31581 0.80791 -0.14100
C 	C 	0.20676 0.28100 0.78038 0.10300
N 	N 	0.18287 0.32758 0.75016 -0.13700
C 	C 	0.19266 0.41390 0.74575 0.09900
N 	N 	0.22299 0.45520 0.76963 -0.14200
C 	C 	0.27547 0.44850 0.83152 0.04100
C 	C 	0.28525 0.53740 0.82389 -0.12100
H 	H 	0.27140 0.56970 0.79940 0.08700
C 	C 	0.31504 0.57790 0.85201 0.06500
H 	H 	0.32160 0.63840 0.84630 -0.00700
N 	N 	0.33531 0.53509 0.88732 -0.27300
C 	C 	0.32583 0.44910 0.89473 0.06000
H 	H 	0.34000 0.41840 0.91960 -0.00400
C 	C 	0.29638 0.40360 0.86775 -0.11200
H 	H 	0.29060 0.34290 0.87390 0.07900
C 	C 	0.19945 0.18240 0.78147 0.05100
C 	C 	0.22722 0.12210 0.80121 -0.11600
H 	H 	0.25150 0.14340 0.81590 0.07300
C 	C 	0.21921 0.03060 0.79936 0.06400
H 	H 	0.23850 0.98960 0.81270 -0.01100
N 	N 	0.18528 0.99725 0.77957 -0.27400
C 	C 	0.15842 0.05610 0.76064 0.06300
H 	H 	0.13430 0.03310 0.74650 -0.01700
C 	C 	0.16419 0.14830 0.76073 -0.11600
H 	H 	0.14450 0.18790 0.74690 0.07900
C 	C 	0.16683 0.46580 0.71055 0.05500
C 	C 	0.13548 0.42380 0.68579 -0.12000
H 	H 	0.13000 0.36250 0.69110 0.08900
C 	C 	0.11210 0.47210 0.65320 0.06800
H 	H 	0.09020 0.44300 0.63660 -0.01000
N 	N 	0.11878 0.55791 0.64389 -0.27600
C 	C 	0.14965 0.59840 0.66743 0.06500
H 	H 	0.15480 0.65920 0.66070 -0.01200
C 	C 	0.17447 0.55540 0.70128 -0.12400
H 	H 	0.19600 0.58610 0.71770 0.07300
C 	C 	0.51689 0.33230 0.93620 0.09400
N 	N 	0.53713 0.34590 0.90550 -0.13500
C 	C 	0.56579 0.28790 0.90735 0.10700
N 	N 	0.57359 0.21725 0.93463 -0.13600
C 	C 	0.55119 0.21030 0.96316 0.09300
N 	N 	0.52330 0.26770 0.96659 -0.15000
C 	C 	0.48431 0.39340 0.93560 0.04300
C 	C 	0.47085 0.40900 0.97313 -0.11300
H 	H 	0.48260 0.38100 -0.00000 0.07200
C 	C 	0.44012 0.46540 0.97120 0.06600
H 	H 	0.43120 0.47660 0.99720 -0.00600
N 	N 	0.42229 0.50525 0.93395 -0.27400
C 	C 	0.43516 0.48810 0.89738 0.06800
H 	H 	0.42230 0.51480 0.87070 -0.01500
C 	C 	0.46601 0.43400 0.89689 -0.11800
H 	H 	0.47460 0.42450 0.87050 0.08100
C 	C 	0.59128 0.30420 0.87643 0.06100
C 	C 	0.58067 0.36350 0.84142 -0.11900
H 	H 	0.55670 0.39300 0.83630 0.08200
C 	C 	0.60562 0.37840 0.81437 0.07200
H 	H 	0.59830 0.41850 0.79030 -0.02000
N 	N 	0.63969 0.33910 0.82032 -0.27700
C 	C 	0.64975 0.28170 0.85408 0.06600
H 	H 	0.67400 0.25340 0.85860 -0.01300
C 	C 	0.62643 0.26230 0.88239 -0.11600
H 	H 	0.63430 0.22080 0.90570 0.08200
C 	C 	0.55677 0.13170 0.99367 0.04800
C 	C 	0.58858 0.07730 0.99837 -0.11700
H 	H 	0.60710 0.08840 0.98140 0.07700
C 	C 	0.59332 0.00690 0.02786 0.06600
H 	H 	0.61570 0.97130 0.03150 -0.01800
N 	N 	0.56774 0.98669 0.05159 -0.27200
C 	C 	0.53657 0.03840 0.04664 0.06600
H 	H 	0.51800 0.02420 0.06320 -0.01100
C 	C 	0.53023 0.11140 0.01846 -0.11900
H 	H 	0.50800 0.14730 0.01610 0.06800
Zn	Zn	0.37883 0.59627 0.93130 1.15900
I 	I 	0.40029 0.73870 0.89585 -0.18600
I 	I 	0.36229 0.59880 0.00772 -0.22000
Zn	Zn	0.07874 0.61987 0.59634 1.15800
I 	I 	0.11021 0.74442 0.56162 -0.16000
I 	I 	0.02182 0.63080 0.63264 -0.16100
Zn	Zn	0.67344 0.36006 0.77539 1.15800
I 	I 	0.62941 0.33837 0.69948 -0.24100
I 	I 	0.73438 0.26986 0.80030 -0.16300
I 	I 	0.40013 0.73060 0.89280 -0.15300
I 	I 	0.36440 0.60560 0.00430 -0.11800
I 	I 	0.10890 0.74100 0.55660 -0.17800
I 	I 	0.02300 0.65070 0.63270 -0.15900
I 	I 	0.63450 0.33720 0.70290 -0.12800
I 	I 	0.73540 0.27510 0.80520 -0.17400
