data_crystal

_cell_length_a 6.76700
_cell_length_b 11.23100
_cell_length_c 19.74250
_cell_angle_alpha 106.52500
_cell_angle_beta  90.92030
_cell_angle_gamma 90.00000

_symmetry_space_group_name_	'P 1'
_symmetry_space_group_name_H-M	'P 1'

loop_
_symmetry_equiv_pos_as_xyz
  x,y,z

loop_
_atom_site_label
_atom_site_type_symbol
_atom_site_fract_x
_atom_site_fract_y
_atom_site_fract_z
_atom_site_charge
Er	Er	0.80984 0.92025 0.25904 1.53100
Er	Er	0.69016 0.66121 0.74096 1.54600
Er	Er	0.19016 0.07975 0.74096 1.53100
Er	Er	0.30984 0.33879 0.25904 1.54600
H 	H 	0.47160 0.83320 0.03580 0.10800
H 	H 	0.59490 0.07500 0.06240 0.03000
H 	H 	0.48510 0.24830 0.43280 0.14900
H 	H 	0.62900 0.01310 0.42620 -0.00300
H 	H 	0.61960 0.22760 0.54620 0.03800
H 	H 	0.82790 0.01100 0.53000 0.11800
H 	H 	0.02840 0.79740 0.96420 0.10600
H 	H 	0.90510 0.01260 0.93760 0.03100
H 	H 	0.01490 0.81550 0.56720 0.14600
H 	H 	0.87100 0.58690 0.57380 -0.00000
H 	H 	0.88040 0.68140 0.45380 0.03500
H 	H 	0.67210 0.48100 0.47000 0.11800
H 	H 	0.52840 0.16680 0.96420 0.10800
H 	H 	0.40510 0.92500 0.93760 0.03000
H 	H 	0.51490 0.75170 0.56720 0.14900
H 	H 	0.37100 0.98690 0.57380 -0.00300
H 	H 	0.38040 0.77240 0.45380 0.03800
H 	H 	0.17210 0.98900 0.47000 0.11800
H 	H 	0.97160 0.20260 0.03580 0.10600
H 	H 	0.09490 0.98740 0.06240 0.03100
H 	H 	0.98510 0.18450 0.43280 0.14600
H 	H 	0.12900 0.41310 0.42620 -0.00000
H 	H 	0.11960 0.31860 0.54620 0.03500
H 	H 	0.32790 0.51900 0.53000 0.11800
C 	C 	0.62760 0.91092 0.13024 0.37100
C 	C 	0.53490 0.90598 0.06136 -0.23200
C 	C 	0.53880 0.00121 0.03482 0.03100
C 	C 	0.46230 0.11198 0.33516 0.53200
C 	C 	0.51460 0.16560 0.41060 -0.32200
C 	C 	0.60470 0.09665 0.44810 0.07900
C 	C 	0.66470 0.14922 0.52184 -0.00300
C 	C 	0.78170 0.08882 0.55524 -0.23700
C 	C 	0.84280 0.13862 0.63064 0.42800
C 	C 	0.87240 0.78068 0.86976 0.37300
C 	C 	0.96510 0.84462 0.93864 -0.22400
C 	C 	0.96120 0.96639 0.96518 0.02700
C 	C 	0.03770 0.77682 0.66484 0.52400
C 	C 	0.98540 0.75500 0.58940 -0.31400
C 	C 	0.89530 0.64855 0.55190 0.07300
C 	C 	0.83530 0.62738 0.47816 0.00100
C 	C 	0.71830 0.53358 0.44476 -0.24100
C 	C 	0.65720 0.50798 0.36936 0.43000
C 	C 	0.37240 0.08908 0.86976 0.37100
C 	C 	0.46510 0.09402 0.93864 -0.23200
C 	C 	0.46120 0.99879 0.96518 0.03100
C 	C 	0.53770 0.88802 0.66484 0.53200
C 	C 	0.48540 0.83440 0.58940 -0.32200
C 	C 	0.39530 0.90335 0.55190 0.07900
C 	C 	0.33530 0.85078 0.47816 -0.00300
C 	C 	0.21830 0.91118 0.44476 -0.23700
C 	C 	0.15720 0.86138 0.36936 0.42800
C 	C 	0.12760 0.21932 0.13024 0.37300
C 	C 	0.03490 0.15538 0.06136 -0.22400
C 	C 	0.03880 0.03361 0.03482 0.02700
C 	C 	0.96230 0.22318 0.33516 0.52400
C 	C 	0.01460 0.24500 0.41060 -0.31400
C 	C 	0.10470 0.35145 0.44810 0.07300
C 	C 	0.16470 0.37262 0.52184 0.00100
C 	C 	0.28170 0.46642 0.55524 -0.24100
C 	C 	0.34280 0.49202 0.63064 0.43000
O 	O 	0.72270 0.00588 0.16476 -0.40300
O 	O 	0.61360 0.82025 0.15530 -0.43700
O 	O 	0.51100 0.00250 0.30220 -0.47500
O 	O 	0.37020 0.18160 0.30700 -0.48900
O 	O 	0.99080 0.08428 0.64876 -0.48100
O 	O 	0.75720 0.22962 0.66984 -0.33600
O 	O 	0.77730 0.84112 0.83524 -0.40600
O 	O 	0.88640 0.66495 0.84470 -0.43700
O 	O 	0.98900 0.70030 0.69780 -0.47200
O 	O 	0.12980 0.87460 0.69300 -0.48600
O 	O 	0.50920 0.43552 0.35124 -0.48800
O 	O 	0.74280 0.55978 0.33016 -0.33900
O 	O 	0.27730 0.99412 0.83524 -0.40300
O 	O 	0.38640 0.17975 0.84470 -0.43700
O 	O 	0.48900 0.99750 0.69780 -0.47500
O 	O 	0.62980 0.81840 0.69300 -0.48900
O 	O 	0.00920 0.91572 0.35124 -0.48100
O 	O 	0.24280 0.77038 0.33016 -0.33600
O 	O 	0.22270 0.15888 0.16476 -0.40600
O 	O 	0.11360 0.33505 0.15530 -0.43700
O 	O 	0.01100 0.29970 0.30220 -0.47200
O 	O 	0.87020 0.12540 0.30700 -0.48600
O 	O 	0.49080 0.56448 0.64876 -0.48800
O 	O 	0.25720 0.44022 0.66984 -0.33900
