data_crystal

_cell_length_a 26.35040
_cell_length_b 26.35040
_cell_length_c 26.35040
_cell_angle_alpha 90.00000
_cell_angle_beta  90.00000
_cell_angle_gamma 90.00000

_symmetry_space_group_name_	'P 1'
_symmetry_space_group_name_H-M	'P 1'

loop_
_symmetry_equiv_pos_as_xyz
  x,y,z

loop_
_atom_site_label
_atom_site_type_symbol
_atom_site_fract_x
_atom_site_fract_y
_atom_site_fract_z
_atom_site_charge
O 	O 	0.68341 0.44754 0.24325 -0.40900
O 	O 	0.68341 0.94754 0.74325 -0.37300
O 	O 	0.18341 0.44754 0.74325 -0.41100
O 	O 	0.18341 0.94754 0.24325 -0.38200
O 	O 	0.31659 0.55246 0.24325 -0.41000
O 	O 	0.31659 0.05246 0.74325 -0.42300
O 	O 	0.81659 0.55246 0.74325 -0.40000
O 	O 	0.81659 0.05246 0.24325 -0.42100
O 	O 	0.31659 0.44754 0.75675 -0.40600
O 	O 	0.31659 0.94754 0.25675 -0.37800
O 	O 	0.81659 0.44754 0.25675 -0.40400
O 	O 	0.81659 0.94754 0.75675 -0.36900
O 	O 	0.68341 0.55246 0.75675 -0.40600
O 	O 	0.68341 0.05246 0.25675 -0.42700
O 	O 	0.18341 0.55246 0.25675 -0.41500
O 	O 	0.18341 0.05246 0.75675 -0.42800
O 	O 	0.24325 0.68341 0.44754 -0.40900
O 	O 	0.24325 0.18341 0.94754 -0.38200
O 	O 	0.74325 0.68341 0.94754 -0.37300
O 	O 	0.74325 0.18341 0.44754 -0.41100
O 	O 	0.24325 0.31659 0.55246 -0.41000
O 	O 	0.24325 0.81659 0.05246 -0.42200
O 	O 	0.74325 0.31659 0.05246 -0.42400
O 	O 	0.74325 0.81659 0.55246 -0.40100
O 	O 	0.75675 0.31659 0.44754 -0.40700
O 	O 	0.75675 0.81659 0.94754 -0.37000
O 	O 	0.25675 0.31659 0.94754 -0.37900
O 	O 	0.25675 0.81659 0.44754 -0.40500
O 	O 	0.75675 0.68341 0.55246 -0.40700
O 	O 	0.75675 0.18341 0.05246 -0.42900
O 	O 	0.25675 0.68341 0.05246 -0.42800
O 	O 	0.25675 0.18341 0.55246 -0.41600
O 	O 	0.44754 0.24325 0.68341 -0.41000
O 	O 	0.44754 0.74325 0.18341 -0.41200
O 	O 	0.94754 0.24325 0.18341 -0.38300
O 	O 	0.94754 0.74325 0.68341 -0.37400
O 	O 	0.55246 0.24325 0.31659 -0.41100
O 	O 	0.55246 0.74325 0.81659 -0.40100
O 	O 	0.05246 0.24325 0.81659 -0.42200
O 	O 	0.05246 0.74325 0.31659 -0.42400
O 	O 	0.44754 0.75675 0.31659 -0.40700
O 	O 	0.44754 0.25675 0.81659 -0.40500
O 	O 	0.94754 0.75675 0.81659 -0.37000
O 	O 	0.94754 0.25675 0.31659 -0.37900
O 	O 	0.55246 0.75675 0.68341 -0.40700
O 	O 	0.55246 0.25675 0.18341 -0.41600
O 	O 	0.05246 0.75675 0.18341 -0.42900
O 	O 	0.05246 0.25675 0.68341 -0.42800
O 	O 	0.44754 0.68341 0.75675 -0.40700
O 	O 	0.44754 0.18341 0.25675 -0.41600
O 	O 	0.94754 0.68341 0.25675 -0.37800
O 	O 	0.94754 0.18341 0.75675 -0.38000
O 	O 	0.55246 0.31659 0.75675 -0.40700
O 	O 	0.55246 0.81659 0.25675 -0.40500
O 	O 	0.05246 0.31659 0.25675 -0.42800
O 	O 	0.05246 0.81659 0.75675 -0.41900
O 	O 	0.44754 0.31659 0.24325 -0.41100
O 	O 	0.44754 0.81659 0.74325 -0.40100
O 	O 	0.94754 0.31659 0.74325 -0.37500
O 	O 	0.94754 0.81659 0.24325 -0.37300
O 	O 	0.55246 0.68341 0.24325 -0.41000
O 	O 	0.55246 0.18341 0.74325 -0.41100
O 	O 	0.05246 0.68341 0.74325 -0.42300
O 	O 	0.05246 0.18341 0.24325 -0.43200
O 	O 	0.68341 0.24325 0.55246 -0.41000
O 	O 	0.68341 0.74325 0.05246 -0.42300
O 	O 	0.18341 0.24325 0.05246 -0.43200
O 	O 	0.18341 0.74325 0.55246 -0.41100
O 	O 	0.31659 0.24325 0.44754 -0.41100
O 	O 	0.31659 0.74325 0.94754 -0.37500
O 	O 	0.81659 0.24325 0.94754 -0.37300
O 	O 	0.81659 0.74325 0.44754 -0.40100
O 	O 	0.31659 0.75675 0.55246 -0.40700
O 	O 	0.31659 0.25675 0.05246 -0.42800
O 	O 	0.81659 0.75675 0.05246 -0.41900
O 	O 	0.81659 0.25675 0.55246 -0.40500
O 	O 	0.68341 0.75675 0.44754 -0.40700
O 	O 	0.68341 0.25675 0.94754 -0.37800
O 	O 	0.18341 0.75675 0.94754 -0.38000
O 	O 	0.18341 0.25675 0.44754 -0.41600
O 	O 	0.24325 0.44754 0.31659 -0.41100
O 	O 	0.24325 0.94754 0.81659 -0.37300
O 	O 	0.74325 0.44754 0.81659 -0.40100
O 	O 	0.74325 0.94754 0.31659 -0.37500
O 	O 	0.24325 0.55246 0.68341 -0.41000
O 	O 	0.24325 0.05246 0.18341 -0.43200
O 	O 	0.74325 0.55246 0.18341 -0.41100
O 	O 	0.74325 0.05246 0.68341 -0.42300
O 	O 	0.75675 0.44754 0.68341 -0.40700
O 	O 	0.75675 0.94754 0.18341 -0.38000
O 	O 	0.25675 0.44754 0.18341 -0.41600
O 	O 	0.25675 0.94754 0.68341 -0.37800
O 	O 	0.75675 0.55246 0.31659 -0.40700
O 	O 	0.75675 0.05246 0.81659 -0.41900
O 	O 	0.25675 0.55246 0.81659 -0.40500
O 	O 	0.25675 0.05246 0.31659 -0.42800
O 	O 	0.31659 0.55246 0.75675 -0.40700
O 	O 	0.31659 0.05246 0.25675 -0.42800
O 	O 	0.81659 0.55246 0.25675 -0.40500
O 	O 	0.81659 0.05246 0.75675 -0.41900
O 	O 	0.68341 0.44754 0.75675 -0.40700
O 	O 	0.68341 0.94754 0.25675 -0.37800
O 	O 	0.18341 0.44754 0.25675 -0.41600
O 	O 	0.18341 0.94754 0.75675 -0.38000
O 	O 	0.68341 0.55246 0.24325 -0.41000
O 	O 	0.68341 0.05246 0.74325 -0.42300
O 	O 	0.18341 0.55246 0.74325 -0.41100
O 	O 	0.18341 0.05246 0.24325 -0.43200
O 	O 	0.31659 0.44754 0.24325 -0.41100
O 	O 	0.31659 0.94754 0.74325 -0.37500
O 	O 	0.81659 0.44754 0.74325 -0.40100
O 	O 	0.81659 0.94754 0.24325 -0.37300
O 	O 	0.75675 0.31659 0.55246 -0.40700
O 	O 	0.75675 0.81659 0.05246 -0.41900
O 	O 	0.25675 0.31659 0.05246 -0.42800
O 	O 	0.25675 0.81659 0.55246 -0.40500
O 	O 	0.75675 0.68341 0.44754 -0.40700
O 	O 	0.75675 0.18341 0.94754 -0.38000
O 	O 	0.25675 0.68341 0.94754 -0.37800
O 	O 	0.25675 0.18341 0.44754 -0.41600
O 	O 	0.24325 0.68341 0.55246 -0.41000
O 	O 	0.24325 0.18341 0.05246 -0.43200
O 	O 	0.74325 0.68341 0.05246 -0.42300
O 	O 	0.74325 0.18341 0.55246 -0.41100
O 	O 	0.24325 0.31659 0.44754 -0.41100
O 	O 	0.24325 0.81659 0.94754 -0.37300
O 	O 	0.74325 0.31659 0.94754 -0.37500
O 	O 	0.74325 0.81659 0.44754 -0.40100
O 	O 	0.55246 0.75675 0.31659 -0.40700
O 	O 	0.55246 0.25675 0.81659 -0.40500
O 	O 	0.05246 0.75675 0.81659 -0.41900
O 	O 	0.05246 0.25675 0.31659 -0.42800
O 	O 	0.44754 0.75675 0.68341 -0.40700
O 	O 	0.44754 0.25675 0.18341 -0.41600
O 	O 	0.94754 0.75675 0.18341 -0.38000
O 	O 	0.94754 0.25675 0.68341 -0.37800
O 	O 	0.55246 0.24325 0.68341 -0.41000
O 	O 	0.55246 0.74325 0.18341 -0.41100
O 	O 	0.05246 0.24325 0.18341 -0.43200
O 	O 	0.05246 0.74325 0.68341 -0.42300
O 	O 	0.44754 0.24325 0.31659 -0.41100
O 	O 	0.44754 0.74325 0.81659 -0.40100
O 	O 	0.94754 0.24325 0.81659 -0.37300
O 	O 	0.94754 0.74325 0.31659 -0.37500
O 	O 	0.55246 0.31659 0.24325 -0.41100
O 	O 	0.55246 0.81659 0.74325 -0.40100
O 	O 	0.05246 0.31659 0.74325 -0.42400
O 	O 	0.05246 0.81659 0.24325 -0.42200
O 	O 	0.44754 0.68341 0.24325 -0.41000
O 	O 	0.44754 0.18341 0.74325 -0.41200
O 	O 	0.94754 0.68341 0.74325 -0.37400
O 	O 	0.94754 0.18341 0.24325 -0.38300
O 	O 	0.55246 0.68341 0.75675 -0.40700
O 	O 	0.55246 0.18341 0.25675 -0.41600
O 	O 	0.05246 0.68341 0.25675 -0.42800
O 	O 	0.05246 0.18341 0.75675 -0.42900
O 	O 	0.44754 0.31659 0.75675 -0.40700
O 	O 	0.44754 0.81659 0.25675 -0.40500
O 	O 	0.94754 0.31659 0.25675 -0.37900
O 	O 	0.94754 0.81659 0.75675 -0.37000
O 	O 	0.31659 0.75675 0.44754 -0.40700
O 	O 	0.31659 0.25675 0.94754 -0.37900
O 	O 	0.81659 0.75675 0.94754 -0.37000
O 	O 	0.81659 0.25675 0.44754 -0.40500
O 	O 	0.68341 0.75675 0.55246 -0.40700
O 	O 	0.68341 0.25675 0.05246 -0.42800
O 	O 	0.18341 0.75675 0.05246 -0.42900
O 	O 	0.18341 0.25675 0.55246 -0.41600
O 	O 	0.68341 0.24325 0.44754 -0.41000
O 	O 	0.68341 0.74325 0.94754 -0.37400
O 	O 	0.18341 0.24325 0.94754 -0.38300
O 	O 	0.18341 0.74325 0.44754 -0.41200
O 	O 	0.31659 0.24325 0.55246 -0.41100
O 	O 	0.31659 0.74325 0.05246 -0.42400
O 	O 	0.81659 0.24325 0.05246 -0.42200
O 	O 	0.81659 0.74325 0.55246 -0.40100
O 	O 	0.75675 0.55246 0.68341 -0.40700
O 	O 	0.75675 0.05246 0.18341 -0.42900
O 	O 	0.25675 0.55246 0.18341 -0.41600
O 	O 	0.25675 0.05246 0.68341 -0.42800
O 	O 	0.75675 0.44754 0.31659 -0.40700
O 	O 	0.75675 0.94754 0.81659 -0.37000
O 	O 	0.25675 0.44754 0.81659 -0.40500
O 	O 	0.25675 0.94754 0.31659 -0.37900
O 	O 	0.24325 0.55246 0.31659 -0.41100
O 	O 	0.24325 0.05246 0.81659 -0.42200
O 	O 	0.74325 0.55246 0.81659 -0.40100
O 	O 	0.74325 0.05246 0.31659 -0.42400
O 	O 	0.24325 0.44754 0.68341 -0.41000
O 	O 	0.24325 0.94754 0.18341 -0.38300
O 	O 	0.74325 0.44754 0.18341 -0.41200
O 	O 	0.74325 0.94754 0.68341 -0.37400
Cu	Cu	0.71477 0.50000 0.28523 0.90700
Cu	Cu	0.71477 -0.00000 0.78523 0.88000
Cu	Cu	0.21477 0.50000 0.78523 0.90700
Cu	Cu	0.21477 0.00000 0.28523 0.87600
Cu	Cu	0.28523 0.50000 0.28523 0.90700
Cu	Cu	0.28523 -0.00000 0.78523 0.88000
Cu	Cu	0.78523 0.50000 0.78523 0.91100
Cu	Cu	0.78523 0.00000 0.28523 0.88000
Cu	Cu	0.28523 0.50000 0.71477 0.90700
Cu	Cu	0.28523 -0.00000 0.21477 0.87600
Cu	Cu	0.78523 0.50000 0.21477 0.90700
Cu	Cu	0.78523 0.00000 0.71477 0.88000
Cu	Cu	0.71477 0.50000 0.71477 0.90700
Cu	Cu	0.71477 -0.00000 0.21477 0.87600
Cu	Cu	0.21477 0.50000 0.21477 0.90400
Cu	Cu	0.21477 0.00000 0.71477 0.87600
Cu	Cu	0.28523 0.71477 0.50000 0.90700
Cu	Cu	0.28523 0.21477 -0.00000 0.87600
Cu	Cu	0.78523 0.71477 -0.00000 0.88000
Cu	Cu	0.78523 0.21477 0.50000 0.90700
Cu	Cu	0.28523 0.28523 0.50000 0.90700
Cu	Cu	0.28523 0.78523 -0.00000 0.88000
Cu	Cu	0.78523 0.28523 -0.00000 0.88000
Cu	Cu	0.78523 0.78523 0.50000 0.91100
Cu	Cu	0.71477 0.28523 0.50000 0.90700
Cu	Cu	0.71477 0.78523 -0.00000 0.88000
Cu	Cu	0.21477 0.28523 -0.00000 0.87600
Cu	Cu	0.21477 0.78523 0.50000 0.90700
Cu	Cu	0.71477 0.71477 0.50000 0.90700
Cu	Cu	0.71477 0.21477 -0.00000 0.87600
Cu	Cu	0.21477 0.71477 -0.00000 0.87600
Cu	Cu	0.21477 0.21477 0.50000 0.90400
Cu	Cu	0.50000 0.28523 0.71477 0.90700
Cu	Cu	0.50000 0.78523 0.21477 0.90700
Cu	Cu	0.00000 0.28523 0.21477 0.87600
Cu	Cu	0.00000 0.78523 0.71477 0.88000
Cu	Cu	0.50000 0.28523 0.28523 0.90700
Cu	Cu	0.50000 0.78523 0.78523 0.91100
Cu	Cu	-0.00000 0.28523 0.78523 0.88000
Cu	Cu	-0.00000 0.78523 0.28523 0.88000
Cu	Cu	0.50000 0.71477 0.28523 0.90700
Cu	Cu	0.50000 0.21477 0.78523 0.90700
Cu	Cu	0.00000 0.71477 0.78523 0.88000
Cu	Cu	0.00000 0.21477 0.28523 0.87600
Cu	Cu	0.50000 0.71477 0.71477 0.90700
Cu	Cu	0.50000 0.21477 0.21477 0.90400
Cu	Cu	0.00000 0.71477 0.21477 0.87600
Cu	Cu	0.00000 0.21477 0.71477 0.87600
C 	C 	0.70355 0.43082 0.20355 0.37600
C 	C 	0.67802 0.38652 0.17802 -0.12400
C 	C 	0.70355 0.93082 0.70355 0.36600
C 	C 	0.67802 0.88652 0.67802 -0.10000
C 	C 	0.29645 0.56918 0.20355 0.37800
C 	C 	0.32198 0.61348 0.17802 -0.12600
C 	C 	0.29645 0.06918 0.70355 0.37800
C 	C 	0.32198 0.11348 0.67802 -0.12900
C 	C 	0.79645 0.56918 0.70355 0.37300
C 	C 	0.82198 0.61348 0.67802 -0.10700
C 	C 	0.29645 0.43082 0.79645 0.37500
C 	C 	0.32198 0.38652 0.82198 -0.11100
C 	C 	0.29645 0.93082 0.29645 0.37000
C 	C 	0.32198 0.88652 0.32198 -0.10600
C 	C 	0.79645 0.93082 0.79645 0.36400
C 	C 	0.82198 0.88652 0.82198 -0.08700
C 	C 	0.70355 0.56918 0.79645 0.37300
C 	C 	0.67802 0.61348 0.82198 -0.10700
C 	C 	0.70355 0.06918 0.29645 0.37800
C 	C 	0.67802 0.11348 0.32198 -0.12900
C 	C 	0.20355 0.70355 0.43082 0.37600
C 	C 	0.17802 0.67802 0.38652 -0.12400
C 	C 	0.20355 0.20355 0.93082 0.37100
C 	C 	0.17802 0.17802 0.88652 -0.11700
C 	C 	0.70355 0.70355 0.93082 0.36600
C 	C 	0.67802 0.67802 0.88652 -0.10000
C 	C 	0.20355 0.29645 0.56918 0.37800
C 	C 	0.17802 0.32198 0.61348 -0.12600
C 	C 	0.20355 0.79645 0.06918 0.37700
C 	C 	0.17802 0.82198 0.11348 -0.12800
C 	C 	0.70355 0.79645 0.56918 0.37300
C 	C 	0.67802 0.82198 0.61348 -0.10700
C 	C 	0.79645 0.29645 0.43082 0.37500
C 	C 	0.82198 0.32198 0.38652 -0.11100
C 	C 	0.79645 0.79645 0.93082 0.36400
C 	C 	0.82198 0.82198 0.88652 -0.08700
C 	C 	0.79645 0.70355 0.56918 0.37300
C 	C 	0.82198 0.67802 0.61348 -0.10700
C 	C 	0.79645 0.20355 0.06918 0.37700
C 	C 	0.82198 0.17802 0.11348 -0.12800
C 	C 	0.43082 0.20355 0.70355 0.37600
C 	C 	0.38652 0.17802 0.67802 -0.12400
C 	C 	0.93082 0.20355 0.20355 0.37100
C 	C 	0.88652 0.17802 0.17802 -0.11700
C 	C 	0.93082 0.70355 0.70355 0.36600
C 	C 	0.88652 0.67802 0.67802 -0.10000
C 	C 	0.56918 0.20355 0.29645 0.37800
C 	C 	0.61348 0.17802 0.32198 -0.12600
C 	C 	0.56918 0.70355 0.79645 0.37300
C 	C 	0.61348 0.67802 0.82198 -0.10700
C 	C 	0.06918 0.20355 0.79645 0.37700
C 	C 	0.11348 0.17802 0.82198 -0.12800
C 	C 	0.43082 0.79645 0.29645 0.37500
C 	C 	0.38652 0.82198 0.32198 -0.11100
C 	C 	0.93082 0.79645 0.79645 0.36400
C 	C 	0.88652 0.82198 0.82198 -0.08700
C 	C 	0.56918 0.79645 0.70355 0.37300
C 	C 	0.61348 0.82198 0.67802 -0.10700
C 	C 	0.06918 0.79645 0.20355 0.37700
C 	C 	0.11348 0.82198 0.17802 -0.12800
C 	C 	0.43082 0.70355 0.79645 0.37300
C 	C 	0.38652 0.67802 0.82198 -0.10900
C 	C 	0.93082 0.70355 0.29645 0.36800
C 	C 	0.88652 0.67802 0.32198 -0.10300
C 	C 	0.56918 0.29645 0.79645 0.37400
C 	C 	0.61348 0.32198 0.82198 -0.11000
C 	C 	0.06918 0.29645 0.29645 0.37900
C 	C 	0.11348 0.32198 0.32198 -0.13200
C 	C 	0.06918 0.79645 0.79645 0.37400
C 	C 	0.11348 0.82198 0.82198 -0.11200
C 	C 	0.43082 0.29645 0.20355 0.37800
C 	C 	0.38652 0.32198 0.17802 -0.12700
C 	C 	0.43082 0.79645 0.70355 0.37300
C 	C 	0.38652 0.82198 0.67802 -0.10900
C 	C 	0.93082 0.29645 0.70355 0.36800
C 	C 	0.88652 0.32198 0.67802 -0.10300
C 	C 	0.56918 0.70355 0.20355 0.37600
C 	C 	0.61348 0.67802 0.17802 -0.12300
C 	C 	0.06918 0.70355 0.70355 0.37600
C 	C 	0.11348 0.67802 0.67802 -0.12600
C 	C 	0.70355 0.20355 0.56918 0.37600
C 	C 	0.67802 0.17802 0.61348 -0.12300
C 	C 	0.70355 0.70355 0.06918 0.37600
C 	C 	0.67802 0.67802 0.11348 -0.12600
C 	C 	0.29645 0.20355 0.43082 0.37800
C 	C 	0.32198 0.17802 0.38652 -0.12700
C 	C 	0.29645 0.70355 0.93082 0.36800
C 	C 	0.32198 0.67802 0.88652 -0.10300
C 	C 	0.79645 0.70355 0.43082 0.37300
C 	C 	0.82198 0.67802 0.38652 -0.10900
C 	C 	0.29645 0.79645 0.56918 0.37400
C 	C 	0.32198 0.82198 0.61348 -0.11000
C 	C 	0.29645 0.29645 0.06918 0.37900
C 	C 	0.32198 0.32198 0.11348 -0.13200
C 	C 	0.79645 0.79645 0.06918 0.37400
C 	C 	0.82198 0.82198 0.11348 -0.11200
C 	C 	0.70355 0.79645 0.43082 0.37300
C 	C 	0.67802 0.82198 0.38652 -0.10900
C 	C 	0.70355 0.29645 0.93082 0.36800
C 	C 	0.67802 0.32198 0.88652 -0.10300
C 	C 	0.20355 0.43082 0.29645 0.37800
C 	C 	0.17802 0.38652 0.32198 -0.12700
C 	C 	0.20355 0.93082 0.79645 0.36700
C 	C 	0.17802 0.88652 0.82198 -0.10200
C 	C 	0.70355 0.43082 0.79645 0.37300
C 	C 	0.67802 0.38652 0.82198 -0.10900
C 	C 	0.20355 0.56918 0.70355 0.37600
C 	C 	0.17802 0.61348 0.67802 -0.12300
C 	C 	0.20355 0.06918 0.20355 0.38100
C 	C 	0.17802 0.11348 0.17802 -0.14300
C 	C 	0.70355 0.06918 0.70355 0.37600
C 	C 	0.67802 0.11348 0.67802 -0.12600
C 	C 	0.79645 0.43082 0.70355 0.37300
C 	C 	0.82198 0.38652 0.67802 -0.10900
C 	C 	0.79645 0.93082 0.20355 0.36700
C 	C 	0.82198 0.88652 0.17802 -0.10200
C 	C 	0.79645 0.56918 0.29645 0.37400
C 	C 	0.82198 0.61348 0.32198 -0.11000
C 	C 	0.79645 0.06918 0.79645 0.37400
C 	C 	0.82198 0.11348 0.82198 -0.11200
C 	C 	0.29645 0.56918 0.79645 0.37400
C 	C 	0.32198 0.61348 0.82198 -0.11000
C 	C 	0.29645 0.06918 0.29645 0.37900
C 	C 	0.32198 0.11348 0.32198 -0.13200
C 	C 	0.70355 0.93082 0.29645 0.36800
C 	C 	0.67802 0.88652 0.32198 -0.10300
C 	C 	0.70355 0.56918 0.20355 0.37600
C 	C 	0.67802 0.61348 0.17802 -0.12300
C 	C 	0.29645 0.43082 0.20355 0.37800
C 	C 	0.32198 0.38652 0.17802 -0.12700
C 	C 	0.29645 0.93082 0.70355 0.36800
C 	C 	0.32198 0.88652 0.67802 -0.10300
C 	C 	0.79645 0.29645 0.56918 0.37400
C 	C 	0.82198 0.32198 0.61348 -0.11000
C 	C 	0.79645 0.20355 0.93082 0.36700
C 	C 	0.82198 0.17802 0.88652 -0.10200
C 	C 	0.20355 0.70355 0.56918 0.37600
C 	C 	0.17802 0.67802 0.61348 -0.12300
C 	C 	0.20355 0.20355 0.06918 0.38100
C 	C 	0.17802 0.17802 0.11348 -0.14300
C 	C 	0.20355 0.29645 0.43082 0.37800
C 	C 	0.17802 0.32198 0.38652 -0.12700
C 	C 	0.20355 0.79645 0.93082 0.36700
C 	C 	0.17802 0.82198 0.88652 -0.10200
C 	C 	0.56918 0.79645 0.29645 0.37400
C 	C 	0.61348 0.82198 0.32198 -0.11000
C 	C 	0.93082 0.79645 0.20355 0.36700
C 	C 	0.88652 0.82198 0.17802 -0.10200
C 	C 	0.56918 0.20355 0.70355 0.37600
C 	C 	0.61348 0.17802 0.67802 -0.12300
C 	C 	0.06918 0.20355 0.20355 0.38100
C 	C 	0.11348 0.17802 0.17802 -0.14300
C 	C 	0.43082 0.20355 0.29645 0.37800
C 	C 	0.38652 0.17802 0.32198 -0.12700
C 	C 	0.93082 0.20355 0.79645 0.36700
C 	C 	0.88652 0.17802 0.82198 -0.10200
C 	C 	0.56918 0.29645 0.20355 0.37800
C 	C 	0.61348 0.32198 0.17802 -0.12600
C 	C 	0.06918 0.29645 0.70355 0.37800
C 	C 	0.11348 0.32198 0.67802 -0.12900
C 	C 	0.43082 0.70355 0.20355 0.37600
C 	C 	0.38652 0.67802 0.17802 -0.12400
C 	C 	0.06918 0.70355 0.29645 0.37800
C 	C 	0.11348 0.67802 0.32198 -0.12900
C 	C 	0.43082 0.29645 0.79645 0.37500
C 	C 	0.38652 0.32198 0.82198 -0.11100
C 	C 	0.93082 0.29645 0.29645 0.37000
C 	C 	0.88652 0.32198 0.32198 -0.10600
C 	C 	0.29645 0.79645 0.43082 0.37500
C 	C 	0.32198 0.82198 0.38652 -0.11100
C 	C 	0.29645 0.29645 0.93082 0.37000
C 	C 	0.32198 0.32198 0.88652 -0.10600
C 	C 	0.70355 0.29645 0.06918 0.37800
C 	C 	0.67802 0.32198 0.11348 -0.12900
C 	C 	0.70355 0.20355 0.43082 0.37600
C 	C 	0.67802 0.17802 0.38652 -0.12400
C 	C 	0.29645 0.20355 0.56918 0.37800
C 	C 	0.32198 0.17802 0.61348 -0.12600
C 	C 	0.29645 0.70355 0.06918 0.37800
C 	C 	0.32198 0.67802 0.11348 -0.12900
C 	C 	0.79645 0.06918 0.20355 0.37700
C 	C 	0.82198 0.11348 0.17802 -0.12800
C 	C 	0.79645 0.43082 0.29645 0.37500
C 	C 	0.82198 0.38652 0.32198 -0.11100
C 	C 	0.20355 0.56918 0.29645 0.37800
C 	C 	0.17802 0.61348 0.32198 -0.12600
C 	C 	0.20355 0.06918 0.79645 0.37700
C 	C 	0.17802 0.11348 0.82198 -0.12800
C 	C 	0.20355 0.43082 0.70355 0.37600
C 	C 	0.17802 0.38652 0.67802 -0.12400
C 	C 	0.20355 0.93082 0.20355 0.37100
C 	C 	0.17802 0.88652 0.17802 -0.11700
C 	C 	0.63501 0.36499 0.19951 0.06700
H 	H 	0.62060 0.37940 0.22830 0.04000
C 	C 	0.63501 0.86499 0.69951 0.05400
H 	H 	0.62060 0.87940 0.72830 0.05400
C 	C 	0.13501 0.36499 0.69951 0.06700
H 	H 	0.12060 0.37940 0.72830 0.03700
C 	C 	0.13501 0.86499 0.19951 0.06500
H 	H 	0.12060 0.87940 0.22830 0.04200
C 	C 	0.36499 0.63501 0.19951 0.06700
H 	H 	0.37940 0.62060 0.22830 0.04000
C 	C 	0.36499 0.13501 0.69951 0.06700
H 	H 	0.37940 0.12060 0.72830 0.03700
C 	C 	0.86499 0.63501 0.69951 0.05400
H 	H 	0.87940 0.62060 0.72830 0.05400
C 	C 	0.86499 0.13501 0.19951 0.06500
H 	H 	0.87940 0.12060 0.22830 0.04200
C 	C 	0.36499 0.36499 0.80049 0.06000
H 	H 	0.37940 0.37940 0.77170 0.04500
C 	C 	0.36499 0.86499 0.30049 0.05900
H 	H 	0.37940 0.87940 0.27170 0.04900
C 	C 	0.86499 0.36499 0.30049 0.05900
H 	H 	0.87940 0.37940 0.27170 0.04900
C 	C 	0.86499 0.86499 0.80049 0.04500
H 	H 	0.87940 0.87940 0.77170 0.06300
C 	C 	0.63501 0.63501 0.80049 0.05700
H 	H 	0.62060 0.62060 0.77170 0.04600
C 	C 	0.63501 0.13501 0.30049 0.06800
H 	H 	0.62060 0.12060 0.27170 0.03400
C 	C 	0.13501 0.63501 0.30049 0.06800
H 	H 	0.12060 0.62060 0.27170 0.03400
C 	C 	0.13501 0.13501 0.80049 0.06700
H 	H 	0.12060 0.12060 0.77170 0.03100
C 	C 	0.19951 0.63501 0.36499 0.06700
H 	H 	0.22830 0.62060 0.37940 0.04000
C 	C 	0.19951 0.13501 0.86499 0.06500
H 	H 	0.22830 0.12060 0.87940 0.04200
C 	C 	0.69951 0.63501 0.86499 0.05400
H 	H 	0.72830 0.62060 0.87940 0.05400
C 	C 	0.69951 0.13501 0.36499 0.06700
H 	H 	0.72830 0.12060 0.37940 0.03700
C 	C 	0.19951 0.36499 0.63501 0.06700
H 	H 	0.22830 0.37940 0.62060 0.04000
C 	C 	0.19951 0.86499 0.13501 0.06500
H 	H 	0.22830 0.87940 0.12060 0.04200
C 	C 	0.69951 0.36499 0.13501 0.06700
H 	H 	0.72830 0.37940 0.12060 0.03700
C 	C 	0.69951 0.86499 0.63501 0.05400
H 	H 	0.72830 0.87940 0.62060 0.05400
C 	C 	0.80049 0.36499 0.36499 0.06000
H 	H 	0.77170 0.37940 0.37940 0.04500
C 	C 	0.80049 0.86499 0.86499 0.04500
H 	H 	0.77170 0.87940 0.87940 0.06300
C 	C 	0.30049 0.36499 0.86499 0.05900
H 	H 	0.27170 0.37940 0.87940 0.04900
C 	C 	0.30049 0.86499 0.36499 0.05900
H 	H 	0.27170 0.87940 0.37940 0.04900
C 	C 	0.80049 0.63501 0.63501 0.05700
H 	H 	0.77170 0.62060 0.62060 0.04600
C 	C 	0.80049 0.13501 0.13501 0.06700
H 	H 	0.77170 0.12060 0.12060 0.03100
C 	C 	0.30049 0.63501 0.13501 0.06800
H 	H 	0.27170 0.62060 0.12060 0.03400
C 	C 	0.30049 0.13501 0.63501 0.06800
H 	H 	0.27170 0.12060 0.62060 0.03400
C 	C 	0.36499 0.19951 0.63501 0.06700
H 	H 	0.37940 0.22830 0.62060 0.04000
C 	C 	0.36499 0.69951 0.13501 0.06700
H 	H 	0.37940 0.72830 0.12060 0.03700
C 	C 	0.86499 0.19951 0.13501 0.06500
H 	H 	0.87940 0.22830 0.12060 0.04200
C 	C 	0.86499 0.69951 0.63501 0.05400
H 	H 	0.87940 0.72830 0.62060 0.05400
C 	C 	0.63501 0.19951 0.36499 0.06700
H 	H 	0.62060 0.22830 0.37940 0.04000
C 	C 	0.63501 0.69951 0.86499 0.05400
H 	H 	0.62060 0.72830 0.87940 0.05400
C 	C 	0.13501 0.19951 0.86499 0.06500
H 	H 	0.12060 0.22830 0.87940 0.04200
C 	C 	0.13501 0.69951 0.36499 0.06700
H 	H 	0.12060 0.72830 0.37940 0.03700
C 	C 	0.36499 0.80049 0.36499 0.06000
H 	H 	0.37940 0.77170 0.37940 0.04500
C 	C 	0.36499 0.30049 0.86499 0.05900
H 	H 	0.37940 0.27170 0.87940 0.04900
C 	C 	0.86499 0.80049 0.86499 0.04500
H 	H 	0.87940 0.77170 0.87940 0.06300
C 	C 	0.86499 0.30049 0.36499 0.05900
H 	H 	0.87940 0.27170 0.37940 0.04900
C 	C 	0.63501 0.80049 0.63501 0.05700
H 	H 	0.62060 0.77170 0.62060 0.04600
C 	C 	0.63501 0.30049 0.13501 0.06800
H 	H 	0.62060 0.27170 0.12060 0.03400
C 	C 	0.13501 0.80049 0.13501 0.06700
H 	H 	0.12060 0.77170 0.12060 0.03100
C 	C 	0.13501 0.30049 0.63501 0.06800
H 	H 	0.12060 0.27170 0.62060 0.03400
C 	C 	0.36499 0.63501 0.80049 0.05800
H 	H 	0.37940 0.62060 0.77170 0.04600
C 	C 	0.36499 0.13501 0.30049 0.07000
H 	H 	0.37940 0.12060 0.27170 0.03300
C 	C 	0.86499 0.63501 0.30049 0.05700
H 	H 	0.87940 0.62060 0.27170 0.05000
C 	C 	0.86499 0.13501 0.80049 0.05600
H 	H 	0.87940 0.12060 0.77170 0.04700
C 	C 	0.63501 0.36499 0.80049 0.05800
H 	H 	0.62060 0.37940 0.77170 0.04600
C 	C 	0.63501 0.86499 0.30049 0.05700
H 	H 	0.62060 0.87940 0.27170 0.05000
C 	C 	0.13501 0.36499 0.30049 0.07000
H 	H 	0.12060 0.37940 0.27170 0.03300
C 	C 	0.13501 0.86499 0.80049 0.05600
H 	H 	0.12060 0.87940 0.77170 0.04700
C 	C 	0.36499 0.36499 0.19951 0.06800
H 	H 	0.37940 0.37940 0.22830 0.04000
C 	C 	0.36499 0.86499 0.69951 0.05600
H 	H 	0.37940 0.87940 0.72830 0.05300
C 	C 	0.86499 0.36499 0.69951 0.05600
H 	H 	0.87940 0.37940 0.72830 0.05300
C 	C 	0.86499 0.86499 0.19951 0.05400
H 	H 	0.87940 0.87940 0.22830 0.05800
C 	C 	0.63501 0.63501 0.19951 0.06500
H 	H 	0.62060 0.62060 0.22830 0.04100
C 	C 	0.63501 0.13501 0.69951 0.06600
H 	H 	0.62060 0.12060 0.72830 0.03800
C 	C 	0.13501 0.63501 0.69951 0.06600
H 	H 	0.12060 0.62060 0.72830 0.03800
C 	C 	0.13501 0.13501 0.19951 0.07600
H 	H 	0.12060 0.12060 0.22830 0.02600
C 	C 	0.63501 0.19951 0.63501 0.06500
H 	H 	0.62060 0.22830 0.62060 0.04100
C 	C 	0.63501 0.69951 0.13501 0.06600
H 	H 	0.62060 0.72830 0.12060 0.03800
C 	C 	0.13501 0.19951 0.13501 0.07600
H 	H 	0.12060 0.22830 0.12060 0.02600
C 	C 	0.13501 0.69951 0.63501 0.06600
H 	H 	0.12060 0.72830 0.62060 0.03800
C 	C 	0.36499 0.19951 0.36499 0.06800
H 	H 	0.37940 0.22830 0.37940 0.04000
C 	C 	0.36499 0.69951 0.86499 0.05600
H 	H 	0.37940 0.72830 0.87940 0.05300
C 	C 	0.86499 0.19951 0.86499 0.05400
H 	H 	0.87940 0.22830 0.87940 0.05800
C 	C 	0.86499 0.69951 0.36499 0.05600
H 	H 	0.87940 0.72830 0.37940 0.05300
C 	C 	0.36499 0.80049 0.63501 0.05800
H 	H 	0.37940 0.77170 0.62060 0.04600
C 	C 	0.36499 0.30049 0.13501 0.07000
H 	H 	0.37940 0.27170 0.12060 0.03300
C 	C 	0.86499 0.80049 0.13501 0.05600
H 	H 	0.87940 0.77170 0.12060 0.04700
C 	C 	0.86499 0.30049 0.63501 0.05700
H 	H 	0.87940 0.27170 0.62060 0.05000
C 	C 	0.63501 0.80049 0.36499 0.05800
H 	H 	0.62060 0.77170 0.37940 0.04600
C 	C 	0.63501 0.30049 0.86499 0.05700
H 	H 	0.62060 0.27170 0.87940 0.05000
C 	C 	0.13501 0.80049 0.86499 0.05600
H 	H 	0.12060 0.77170 0.87940 0.04700
C 	C 	0.13501 0.30049 0.36499 0.07000
H 	H 	0.12060 0.27170 0.37940 0.03300
C 	C 	0.19951 0.36499 0.36499 0.06800
H 	H 	0.22830 0.37940 0.37940 0.04000
C 	C 	0.19951 0.86499 0.86499 0.05400
H 	H 	0.22830 0.87940 0.87940 0.05800
C 	C 	0.69951 0.36499 0.86499 0.05600
H 	H 	0.72830 0.37940 0.87940 0.05300
C 	C 	0.69951 0.86499 0.36499 0.05600
H 	H 	0.72830 0.87940 0.37940 0.05300
C 	C 	0.19951 0.63501 0.63501 0.06500
H 	H 	0.22830 0.62060 0.62060 0.04100
C 	C 	0.19951 0.13501 0.13501 0.07600
H 	H 	0.22830 0.12060 0.12060 0.02600
C 	C 	0.69951 0.63501 0.13501 0.06600
H 	H 	0.72830 0.62060 0.12060 0.03800
C 	C 	0.69951 0.13501 0.63501 0.06600
H 	H 	0.72830 0.12060 0.62060 0.03800
C 	C 	0.80049 0.36499 0.63501 0.05800
H 	H 	0.77170 0.37940 0.62060 0.04600
C 	C 	0.80049 0.86499 0.13501 0.05600
H 	H 	0.77170 0.87940 0.12060 0.04700
C 	C 	0.30049 0.36499 0.13501 0.07000
H 	H 	0.27170 0.37940 0.12060 0.03300
C 	C 	0.30049 0.86499 0.63501 0.05700
H 	H 	0.27170 0.87940 0.62060 0.05000
C 	C 	0.80049 0.63501 0.36499 0.05800
H 	H 	0.77170 0.62060 0.37940 0.04600
C 	C 	0.80049 0.13501 0.86499 0.05600
H 	H 	0.77170 0.12060 0.87940 0.04700
C 	C 	0.30049 0.63501 0.86499 0.05700
H 	H 	0.27170 0.62060 0.87940 0.05000
C 	C 	0.30049 0.13501 0.36499 0.07000
H 	H 	0.27170 0.12060 0.37940 0.03300
