data_crystal

_cell_length_a 18.86840
_cell_length_b 18.86840
_cell_length_c 51.01470
_cell_angle_alpha 90.00000
_cell_angle_beta  90.00000
_cell_angle_gamma 120.00000

_symmetry_space_group_name_	'P 1'
_symmetry_space_group_name_H-M	'P 1'

loop_
_symmetry_equiv_pos_as_xyz
  x,y,z

loop_
_atom_site_label
_atom_site_type_symbol
_atom_site_fract_x
_atom_site_fract_y
_atom_site_fract_z
_atom_site_charge
O 	O 	0.88942 0.51765 0.49593 -0.40100
O 	O 	0.96599 0.55611 0.53226 -0.40900
O 	O 	0.99272 0.87170 0.72281 -0.46200
C 	C 	0.90626 0.54494 0.51901 0.36000
C 	C 	0.84804 0.56825 0.53119 -0.06400
C 	C 	0.86445 0.60291 0.55592 -0.04200
H 	H 	0.91200 0.61290 0.56450 0.07100
C 	C 	0.83740 0.79310 0.67575 -0.02300
H 	H 	0.79580 0.79710 0.68410 0.06200
C 	C 	0.83130 0.76940 0.65099 0.07600
C 	C 	0.75620 0.75910 0.63474 0.56200
H 	H 	0.70710 0.71240 0.64110 -0.03800
H 	H 	0.76380 0.75120 0.61660 -0.13400
H 	H 	0.75170 0.80730 0.63660 -0.14400
C 	C 	0.81020 0.74990 0.65090 -0.06700
H 	H 	0.76000 0.73530 0.64330 -0.24600
O 	O 	0.48235 0.37177 0.49593 -0.40100
O 	O 	0.44389 0.40988 0.53226 -0.41000
O 	O 	0.12830 0.12102 0.72281 -0.46800
C 	C 	0.45506 0.36132 0.51901 0.36000
C 	C 	0.43175 0.27979 0.53119 -0.06400
C 	C 	0.39709 0.26154 0.55592 -0.04200
H 	H 	0.38710 0.29910 0.56450 0.06900
C 	C 	0.20690 0.04430 0.67575 -0.00100
H 	H 	0.20290 0.99870 0.68410 0.04600
C 	C 	0.23060 0.06190 0.65099 0.08700
C 	C 	0.24090 0.99710 0.63474 0.64100
H 	H 	0.28760 0.99470 0.64110 -0.05500
H 	H 	0.24880 0.01260 0.61660 -0.15200
H 	H 	0.19270 0.94440 0.63660 -0.17200
C 	C 	0.25010 0.06030 0.65090 -0.08100
H 	H 	0.26470 0.02470 0.64330 -0.27400
O 	O 	0.62823 0.11058 0.49593 -0.40100
O 	O 	0.59012 0.03401 0.53226 -0.40900
O 	O 	0.87898 0.00728 0.72281 -0.46000
C 	C 	0.63868 0.09374 0.51901 0.36000
C 	C 	0.72021 0.15196 0.53119 -0.06500
C 	C 	0.73846 0.13555 0.55592 -0.04300
H 	H 	0.70090 0.08800 0.56450 0.07000
C 	C 	0.95570 0.16260 0.67575 0.01000
H 	H 	0.00130 0.20420 0.68410 0.04200
C 	C 	0.93810 0.16870 0.65099 0.08400
C 	C 	0.00290 0.24380 0.63474 0.64200
H 	H 	0.00530 0.29290 0.64110 -0.05600
H 	H 	0.98740 0.23620 0.61660 -0.15400
H 	H 	0.05560 0.24830 0.63660 -0.17300
C 	C 	0.93970 0.18980 0.65090 -0.08500
H 	H 	0.97530 0.24000 0.64330 -0.27400
O 	O 	0.11058 0.48235 0.99593 -0.40200
O 	O 	0.03401 0.44389 0.03226 -0.41000
O 	O 	0.00728 0.12830 0.22281 -0.46300
C 	C 	0.09374 0.45506 0.01901 0.35900
C 	C 	0.15196 0.43175 0.03119 -0.06500
C 	C 	0.13555 0.39709 0.05592 -0.04300
H 	H 	0.08800 0.38710 0.06450 0.07000
C 	C 	0.16260 0.20690 0.17575 -0.02400
H 	H 	0.20420 0.20290 0.18410 0.06100
C 	C 	0.16870 0.23060 0.15099 0.07500
C 	C 	0.24380 0.24090 0.13474 0.56100
H 	H 	0.29290 0.28760 0.14110 -0.03900
H 	H 	0.23620 0.24880 0.11660 -0.13500
H 	H 	0.24830 0.19270 0.13660 -0.14500
C 	C 	0.18980 0.25010 0.15090 -0.06800
H 	H 	0.24000 0.26470 0.14330 -0.24700
O 	O 	0.51765 0.62823 0.99593 -0.40200
O 	O 	0.55611 0.59012 0.03226 -0.41100
O 	O 	0.87170 0.87898 0.22281 -0.46900
C 	C 	0.54494 0.63868 0.01901 0.35900
C 	C 	0.56825 0.72021 0.03119 -0.06500
C 	C 	0.60291 0.73846 0.05592 -0.04300
H 	H 	0.61290 0.70090 0.06450 0.06800
C 	C 	0.79310 0.95570 0.17575 -0.00200
H 	H 	0.79710 0.00130 0.18410 0.04500
C 	C 	0.76940 0.93810 0.15099 0.08600
C 	C 	0.75910 0.00290 0.13474 0.64100
H 	H 	0.71240 0.00530 0.14110 -0.05600
H 	H 	0.75120 0.98740 0.11660 -0.15300
H 	H 	0.80730 0.05560 0.13660 -0.17300
C 	C 	0.74990 0.93970 0.15090 -0.08200
H 	H 	0.73530 0.97530 0.14330 -0.27500
O 	O 	0.37177 0.88942 0.99593 -0.40200
O 	O 	0.40988 0.96599 0.03226 -0.41000
O 	O 	0.12102 0.99272 0.22281 -0.46100
C 	C 	0.36132 0.90626 0.01901 0.35900
C 	C 	0.27979 0.84804 0.03119 -0.06500
C 	C 	0.26154 0.86445 0.05592 -0.04300
H 	H 	0.29910 0.91200 0.06450 0.07000
C 	C 	0.04430 0.83740 0.17575 0.01000
H 	H 	0.99870 0.79580 0.18410 0.04200
C 	C 	0.06190 0.83130 0.15099 0.08400
C 	C 	0.99710 0.75620 0.13474 0.64300
H 	H 	0.99470 0.70710 0.14110 -0.05700
H 	H 	0.01260 0.76380 0.11660 -0.15400
H 	H 	0.94440 0.75170 0.13660 -0.17300
C 	C 	0.06030 0.81020 0.15090 -0.08500
H 	H 	0.02470 0.76000 0.14330 -0.27400
O 	O 	0.51765 0.88942 0.50407 -0.40200
O 	O 	0.55611 0.96599 0.46774 -0.41000
O 	O 	0.87170 0.99272 0.27719 -0.46300
C 	C 	0.54494 0.90626 0.48099 0.35900
C 	C 	0.56825 0.84804 0.46881 -0.06500
C 	C 	0.60291 0.86445 0.44408 -0.04300
H 	H 	0.61290 0.91200 0.43550 0.07000
C 	C 	0.79310 0.83740 0.32425 -0.02400
H 	H 	0.79710 0.79580 0.31590 0.06100
C 	C 	0.76940 0.83130 0.34901 0.07500
C 	C 	0.75910 0.75620 0.36526 0.56100
H 	H 	0.71240 0.70710 0.35890 -0.03900
H 	H 	0.75120 0.76380 0.38340 -0.13500
H 	H 	0.80730 0.75170 0.36340 -0.14500
C 	C 	0.74990 0.81020 0.34910 -0.06800
H 	H 	0.73530 0.76000 0.35670 -0.24700
O 	O 	0.37177 0.48235 0.50407 -0.40200
O 	O 	0.40988 0.44389 0.46774 -0.41100
O 	O 	0.12102 0.12830 0.27719 -0.46900
C 	C 	0.36132 0.45506 0.48099 0.35900
C 	C 	0.27979 0.43175 0.46881 -0.06500
C 	C 	0.26154 0.39709 0.44408 -0.04300
H 	H 	0.29910 0.38710 0.43550 0.06800
C 	C 	0.04430 0.20690 0.32425 -0.00200
H 	H 	0.99870 0.20290 0.31590 0.04500
C 	C 	0.06190 0.23060 0.34901 0.08600
C 	C 	0.99710 0.24090 0.36526 0.64000
H 	H 	0.99470 0.28760 0.35890 -0.05600
H 	H 	0.01260 0.24880 0.38340 -0.15300
H 	H 	0.94440 0.19270 0.36340 -0.17300
C 	C 	0.06030 0.25010 0.34910 -0.08200
H 	H 	0.02470 0.26470 0.35670 -0.27500
O 	O 	0.11058 0.62823 0.50407 -0.40200
O 	O 	0.03401 0.59012 0.46774 -0.41000
O 	O 	0.00728 0.87898 0.27719 -0.46100
C 	C 	0.09374 0.63868 0.48099 0.35900
C 	C 	0.15196 0.72021 0.46881 -0.06500
C 	C 	0.13555 0.73846 0.44408 -0.04300
H 	H 	0.08800 0.70090 0.43550 0.07000
C 	C 	0.16260 0.95570 0.32425 0.01000
H 	H 	0.20420 0.00130 0.31590 0.04200
C 	C 	0.16870 0.93810 0.34901 0.08400
C 	C 	0.24380 0.00290 0.36526 0.64200
H 	H 	0.29290 0.00530 0.35890 -0.05600
H 	H 	0.23620 0.98740 0.38340 -0.15400
H 	H 	0.24830 0.05560 0.36340 -0.17300
C 	C 	0.18980 0.93970 0.34910 -0.08500
H 	H 	0.24000 0.97530 0.35670 -0.27400
O 	O 	0.48235 0.11058 0.00407 -0.40200
O 	O 	0.44389 0.03401 0.96774 -0.41000
O 	O 	0.12830 0.00728 0.77719 -0.46300
C 	C 	0.45506 0.09374 0.98099 0.35900
C 	C 	0.43175 0.15196 0.96881 -0.06500
C 	C 	0.39709 0.13555 0.94408 -0.04300
H 	H 	0.38710 0.08800 0.93550 0.07000
C 	C 	0.20690 0.16260 0.82425 -0.02400
H 	H 	0.20290 0.20420 0.81590 0.06100
C 	C 	0.23060 0.16870 0.84901 0.07500
C 	C 	0.24090 0.24380 0.86526 0.56100
H 	H 	0.28760 0.29290 0.85890 -0.03900
H 	H 	0.24880 0.23620 0.88340 -0.13500
H 	H 	0.19270 0.24830 0.86340 -0.14500
C 	C 	0.25010 0.18980 0.84910 -0.06800
H 	H 	0.26470 0.24000 0.85670 -0.24700
O 	O 	0.62823 0.51765 0.00407 -0.40200
O 	O 	0.59012 0.55611 0.96774 -0.41100
O 	O 	0.87898 0.87170 0.77719 -0.46900
C 	C 	0.63868 0.54494 0.98099 0.35900
C 	C 	0.72021 0.56825 0.96881 -0.06500
C 	C 	0.73846 0.60291 0.94408 -0.04300
H 	H 	0.70090 0.61290 0.93550 0.06800
C 	C 	0.95570 0.79310 0.82425 -0.00200
H 	H 	0.00130 0.79710 0.81590 0.04500
C 	C 	0.93810 0.76940 0.84901 0.08600
C 	C 	0.00290 0.75910 0.86526 0.64100
H 	H 	0.00530 0.71240 0.85890 -0.05600
H 	H 	0.98740 0.75120 0.88340 -0.15300
H 	H 	0.05560 0.80730 0.86340 -0.17300
C 	C 	0.93970 0.74990 0.84910 -0.08200
H 	H 	0.97530 0.73530 0.85670 -0.27500
O 	O 	0.88942 0.37177 0.00407 -0.40200
O 	O 	0.96599 0.40988 0.96774 -0.41000
O 	O 	0.99272 0.12102 0.77719 -0.46100
C 	C 	0.90626 0.36132 0.98099 0.35900
C 	C 	0.84804 0.27979 0.96881 -0.06500
C 	C 	0.86445 0.26154 0.94408 -0.04300
H 	H 	0.91200 0.29910 0.93550 0.07000
C 	C 	0.83740 0.04430 0.82425 0.01000
H 	H 	0.79580 0.99870 0.81590 0.04200
C 	C 	0.83130 0.06190 0.84901 0.08400
C 	C 	0.75620 0.99710 0.86526 0.64300
H 	H 	0.70710 0.99470 0.85890 -0.05700
H 	H 	0.76380 0.01260 0.88340 -0.15400
H 	H 	0.75170 0.94440 0.86340 -0.17300
C 	C 	0.81020 0.06030 0.84910 -0.08500
H 	H 	0.76000 0.02470 0.85670 -0.27400
O 	O 	0.11058 0.48235 0.50407 -0.40200
O 	O 	0.03401 0.44389 0.46774 -0.41000
O 	O 	0.00728 0.12830 0.27719 -0.46300
C 	C 	0.09374 0.45506 0.48099 0.35900
C 	C 	0.15196 0.43175 0.46881 -0.06500
C 	C 	0.13555 0.39709 0.44408 -0.04300
H 	H 	0.08800 0.38710 0.43550 0.07000
C 	C 	0.16260 0.20690 0.32425 -0.02400
H 	H 	0.20420 0.20290 0.31590 0.06100
C 	C 	0.16870 0.23060 0.34901 0.07500
C 	C 	0.24380 0.24090 0.36526 0.56100
H 	H 	0.29290 0.28760 0.35890 -0.03900
H 	H 	0.23620 0.24880 0.38340 -0.13500
H 	H 	0.24830 0.19270 0.36340 -0.14500
C 	C 	0.18980 0.25010 0.34910 -0.06800
H 	H 	0.24000 0.26470 0.35670 -0.24700
O 	O 	0.51765 0.62823 0.50407 -0.40200
O 	O 	0.55611 0.59012 0.46774 -0.41100
O 	O 	0.87170 0.87898 0.27719 -0.46900
C 	C 	0.54494 0.63868 0.48099 0.35900
C 	C 	0.56825 0.72021 0.46881 -0.06500
C 	C 	0.60291 0.73846 0.44408 -0.04300
H 	H 	0.61290 0.70090 0.43550 0.06800
C 	C 	0.79310 0.95570 0.32425 -0.00200
H 	H 	0.79710 0.00130 0.31590 0.04500
C 	C 	0.76940 0.93810 0.34901 0.08600
C 	C 	0.75910 0.00290 0.36526 0.64000
H 	H 	0.71240 0.00530 0.35890 -0.05600
H 	H 	0.75120 0.98740 0.38340 -0.15300
H 	H 	0.80730 0.05560 0.36340 -0.17300
C 	C 	0.74990 0.93970 0.34910 -0.08200
H 	H 	0.73530 0.97530 0.35670 -0.27500
O 	O 	0.37177 0.88942 0.50407 -0.40200
O 	O 	0.40988 0.96599 0.46774 -0.41000
O 	O 	0.12102 0.99272 0.27719 -0.46100
C 	C 	0.36132 0.90626 0.48099 0.35900
C 	C 	0.27979 0.84804 0.46881 -0.06500
C 	C 	0.26154 0.86445 0.44408 -0.04300
H 	H 	0.29910 0.91200 0.43550 0.07000
C 	C 	0.04430 0.83740 0.32425 0.01000
H 	H 	0.99870 0.79580 0.31590 0.04200
C 	C 	0.06190 0.83130 0.34901 0.08400
C 	C 	0.99710 0.75620 0.36526 0.64200
H 	H 	0.99470 0.70710 0.35890 -0.05600
H 	H 	0.01260 0.76380 0.38340 -0.15400
H 	H 	0.94440 0.75170 0.36340 -0.17300
C 	C 	0.06030 0.81020 0.34910 -0.08500
H 	H 	0.02470 0.76000 0.35670 -0.27400
O 	O 	0.88942 0.51765 0.00407 -0.40200
O 	O 	0.96599 0.55611 0.96774 -0.41000
O 	O 	0.99272 0.87170 0.77719 -0.46300
C 	C 	0.90626 0.54494 0.98099 0.35900
C 	C 	0.84804 0.56825 0.96881 -0.06500
C 	C 	0.86445 0.60291 0.94408 -0.04300
H 	H 	0.91200 0.61290 0.93550 0.07000
C 	C 	0.83740 0.79310 0.82425 -0.02400
H 	H 	0.79580 0.79710 0.81590 0.06100
C 	C 	0.83130 0.76940 0.84901 0.07500
C 	C 	0.75620 0.75910 0.86526 0.56100
H 	H 	0.70710 0.71240 0.85890 -0.03900
H 	H 	0.76380 0.75120 0.88340 -0.13500
H 	H 	0.75170 0.80730 0.86340 -0.14500
C 	C 	0.81020 0.74990 0.84910 -0.06800
H 	H 	0.76000 0.73530 0.85670 -0.24700
O 	O 	0.48235 0.37177 0.00407 -0.40200
O 	O 	0.44389 0.40988 0.96774 -0.41100
O 	O 	0.12830 0.12102 0.77719 -0.46900
C 	C 	0.45506 0.36132 0.98099 0.35900
C 	C 	0.43175 0.27979 0.96881 -0.06500
C 	C 	0.39709 0.26154 0.94408 -0.04300
H 	H 	0.38710 0.29910 0.93550 0.06800
C 	C 	0.20690 0.04430 0.82425 -0.00200
H 	H 	0.20290 0.99870 0.81590 0.04500
C 	C 	0.23060 0.06190 0.84901 0.08600
C 	C 	0.24090 0.99710 0.86526 0.64100
H 	H 	0.28760 0.99470 0.85890 -0.05600
H 	H 	0.24880 0.01260 0.88340 -0.15300
H 	H 	0.19270 0.94440 0.86340 -0.17300
C 	C 	0.25010 0.06030 0.84910 -0.08200
H 	H 	0.26470 0.02470 0.85670 -0.27500
O 	O 	0.62823 0.11058 0.00407 -0.40200
O 	O 	0.59012 0.03401 0.96774 -0.41000
O 	O 	0.87898 0.00728 0.77719 -0.46100
C 	C 	0.63868 0.09374 0.98099 0.35900
C 	C 	0.72021 0.15196 0.96881 -0.06500
C 	C 	0.73846 0.13555 0.94408 -0.04300
H 	H 	0.70090 0.08800 0.93550 0.07000
C 	C 	0.95570 0.16260 0.82425 0.01000
H 	H 	0.00130 0.20420 0.81590 0.04200
C 	C 	0.93810 0.16870 0.84901 0.08400
C 	C 	0.00290 0.24380 0.86526 0.64300
H 	H 	0.00530 0.29290 0.85890 -0.05700
H 	H 	0.98740 0.23620 0.88340 -0.15400
H 	H 	0.05560 0.24830 0.86340 -0.17300
C 	C 	0.93970 0.18980 0.84910 -0.08500
H 	H 	0.97530 0.24000 0.85670 -0.27400
O 	O 	0.48235 0.11058 0.49593 -0.40200
O 	O 	0.44389 0.03401 0.53226 -0.41000
O 	O 	0.12830 0.00728 0.72281 -0.46300
C 	C 	0.45506 0.09374 0.51901 0.35900
C 	C 	0.43175 0.15196 0.53119 -0.06500
C 	C 	0.39709 0.13555 0.55592 -0.04300
H 	H 	0.38710 0.08800 0.56450 0.07000
C 	C 	0.20690 0.16260 0.67575 -0.02400
H 	H 	0.20290 0.20420 0.68410 0.06100
C 	C 	0.23060 0.16870 0.65099 0.07500
C 	C 	0.24090 0.24380 0.63474 0.56100
H 	H 	0.28760 0.29290 0.64110 -0.03900
H 	H 	0.24880 0.23620 0.61660 -0.13500
H 	H 	0.19270 0.24830 0.63660 -0.14500
C 	C 	0.25010 0.18980 0.65090 -0.06800
H 	H 	0.26470 0.24000 0.64330 -0.24700
O 	O 	0.62823 0.51765 0.49593 -0.40200
O 	O 	0.59012 0.55611 0.53226 -0.41100
O 	O 	0.87898 0.87170 0.72281 -0.46900
C 	C 	0.63868 0.54494 0.51901 0.35900
C 	C 	0.72021 0.56825 0.53119 -0.06500
C 	C 	0.73846 0.60291 0.55592 -0.04300
H 	H 	0.70090 0.61290 0.56450 0.06800
C 	C 	0.95570 0.79310 0.67575 -0.00200
H 	H 	0.00130 0.79710 0.68410 0.04500
C 	C 	0.93810 0.76940 0.65099 0.08600
C 	C 	0.00290 0.75910 0.63474 0.64000
H 	H 	0.00530 0.71240 0.64110 -0.05600
H 	H 	0.98740 0.75120 0.61660 -0.15300
H 	H 	0.05560 0.80730 0.63660 -0.17300
C 	C 	0.93970 0.74990 0.65090 -0.08200
H 	H 	0.97530 0.73530 0.64330 -0.27500
O 	O 	0.88942 0.37177 0.49593 -0.40200
O 	O 	0.96599 0.40988 0.53226 -0.41000
O 	O 	0.99272 0.12102 0.72281 -0.46100
C 	C 	0.90626 0.36132 0.51901 0.35900
C 	C 	0.84804 0.27979 0.53119 -0.06500
C 	C 	0.86445 0.26154 0.55592 -0.04300
H 	H 	0.91200 0.29910 0.56450 0.07000
C 	C 	0.83740 0.04430 0.67575 0.01000
H 	H 	0.79580 0.99870 0.68410 0.04200
C 	C 	0.83130 0.06190 0.65099 0.08400
C 	C 	0.75620 0.99710 0.63474 0.64200
H 	H 	0.70710 0.99470 0.64110 -0.05600
H 	H 	0.76380 0.01260 0.61660 -0.15400
H 	H 	0.75170 0.94440 0.63660 -0.17300
C 	C 	0.81020 0.06030 0.65090 -0.08500
H 	H 	0.76000 0.02470 0.64330 -0.27400
O 	O 	0.51765 0.88942 0.99593 -0.40200
O 	O 	0.55611 0.96599 0.03226 -0.41000
O 	O 	0.87170 0.99272 0.22281 -0.46300
C 	C 	0.54494 0.90626 0.01901 0.35900
C 	C 	0.56825 0.84804 0.03119 -0.06500
C 	C 	0.60291 0.86445 0.05592 -0.04300
H 	H 	0.61290 0.91200 0.06450 0.07000
C 	C 	0.79310 0.83740 0.17575 -0.02400
H 	H 	0.79710 0.79580 0.18410 0.06100
C 	C 	0.76940 0.83130 0.15099 0.07500
C 	C 	0.75910 0.75620 0.13474 0.56100
H 	H 	0.71240 0.70710 0.14110 -0.03900
H 	H 	0.75120 0.76380 0.11660 -0.13500
H 	H 	0.80730 0.75170 0.13660 -0.14500
C 	C 	0.74990 0.81020 0.15090 -0.06800
H 	H 	0.73530 0.76000 0.14330 -0.24700
O 	O 	0.37177 0.48235 0.99593 -0.40200
O 	O 	0.40988 0.44389 0.03226 -0.41100
O 	O 	0.12102 0.12830 0.22281 -0.46900
C 	C 	0.36132 0.45506 0.01901 0.35900
C 	C 	0.27979 0.43175 0.03119 -0.06500
C 	C 	0.26154 0.39709 0.05592 -0.04300
H 	H 	0.29910 0.38710 0.06450 0.06800
C 	C 	0.04430 0.20690 0.17575 -0.00200
H 	H 	0.99870 0.20290 0.18410 0.04500
C 	C 	0.06190 0.23060 0.15099 0.08600
C 	C 	0.99710 0.24090 0.13474 0.64100
H 	H 	0.99470 0.28760 0.14110 -0.05600
H 	H 	0.01260 0.24880 0.11660 -0.15300
H 	H 	0.94440 0.19270 0.13660 -0.17300
C 	C 	0.06030 0.25010 0.15090 -0.08200
H 	H 	0.02470 0.26470 0.14330 -0.27500
O 	O 	0.11058 0.62823 0.99593 -0.40200
O 	O 	0.03401 0.59012 0.03226 -0.41000
O 	O 	0.00728 0.87898 0.22281 -0.46100
C 	C 	0.09374 0.63868 0.01901 0.35900
C 	C 	0.15196 0.72021 0.03119 -0.06500
C 	C 	0.13555 0.73846 0.05592 -0.04300
H 	H 	0.08800 0.70090 0.06450 0.07000
C 	C 	0.16260 0.95570 0.17575 0.01000
H 	H 	0.20420 0.00130 0.18410 0.04200
C 	C 	0.16870 0.93810 0.15099 0.08400
C 	C 	0.24380 0.00290 0.13474 0.64300
H 	H 	0.29290 0.00530 0.14110 -0.05700
H 	H 	0.23620 0.98740 0.11660 -0.15400
H 	H 	0.24830 0.05560 0.13660 -0.17300
C 	C 	0.18980 0.93970 0.15090 -0.08500
H 	H 	0.24000 0.97530 0.14330 -0.27400
Cu	Cu	0.04505 0.52252 0.52173 0.90400
Cu	Cu	0.47748 0.52252 0.52173 0.90500
Cu	Cu	0.47748 0.95495 0.52173 0.90400
Cu	Cu	0.95495 0.47748 0.02173 0.90400
Cu	Cu	0.52252 0.47748 0.02173 0.90500
Cu	Cu	0.52252 0.04505 0.02173 0.90400
Cu	Cu	0.52252 0.04505 0.47827 0.90400
Cu	Cu	0.52252 0.47748 0.47827 0.90500
Cu	Cu	0.95495 0.47748 0.47827 0.90400
Cu	Cu	0.47748 0.95495 0.97827 0.90400
Cu	Cu	0.47748 0.52252 0.97827 0.90500
Cu	Cu	0.04505 0.52252 0.97827 0.90400
Cu	Cu	0.05970 0.94030 0.75000 0.93000
Cu	Cu	0.05970 0.11940 0.75000 0.93600
Cu	Cu	0.88060 0.94030 0.75000 0.93600
Cu	Cu	0.94030 0.05970 0.25000 0.93000
Cu	Cu	0.94030 0.88060 0.25000 0.93600
Cu	Cu	0.11940 0.05970 0.25000 0.93600
C 	C 	0.77535 0.55070 0.51911 0.01200
H 	H 	0.76335 0.52670 0.50260 0.05800
C 	C 	0.81140 0.62280 0.56800 0.03700
C 	C 	0.82990 0.65980 0.59409 -0.02700
C 	C 	0.84660 0.69320 0.61466 0.02700
C 	C 	0.86640 0.73280 0.63995 -0.01600
C 	C 	0.90520 0.81040 0.68755 -0.09500
C 	C 	0.92835 0.85670 0.71415 0.47100
C 	C 	0.44930 0.22465 0.51911 0.01200
H 	H 	0.47330 0.23665 0.50260 0.05800
C 	C 	0.37720 0.18860 0.56800 0.03700
C 	C 	0.34020 0.17010 0.59409 -0.02700
C 	C 	0.30680 0.15340 0.61466 0.02700
C 	C 	0.26720 0.13360 0.63995 -0.01600
C 	C 	0.18960 0.09480 0.68755 -0.09500
C 	C 	0.14330 0.07165 0.71415 0.47100
C 	C 	0.77535 0.22465 0.51911 0.01200
H 	H 	0.76335 0.23665 0.50260 0.05800
C 	C 	0.81140 0.18860 0.56800 0.03800
C 	C 	0.82990 0.17010 0.59409 -0.02500
C 	C 	0.84660 0.15340 0.61466 0.02800
C 	C 	0.86640 0.13360 0.63995 -0.00900
C 	C 	0.90520 0.09480 0.68755 -0.11000
C 	C 	0.92835 0.07165 0.71415 0.47700
C 	C 	0.22465 0.44930 0.01911 0.01200
H 	H 	0.23665 0.47330 0.00260 0.05800
C 	C 	0.18860 0.37720 0.06800 0.03700
C 	C 	0.17010 0.34020 0.09409 -0.02700
C 	C 	0.15340 0.30680 0.11466 0.02800
C 	C 	0.13360 0.26720 0.13995 -0.01600
C 	C 	0.09480 0.18960 0.18755 -0.09500
C 	C 	0.07165 0.14330 0.21415 0.47100
C 	C 	0.55070 0.77535 0.01911 0.01200
H 	H 	0.52670 0.76335 0.00260 0.05800
C 	C 	0.62280 0.81140 0.06800 0.03700
C 	C 	0.65980 0.82990 0.09409 -0.02700
C 	C 	0.69320 0.84660 0.11466 0.02800
C 	C 	0.73280 0.86640 0.13995 -0.01600
C 	C 	0.81040 0.90520 0.18755 -0.09500
C 	C 	0.85670 0.92835 0.21415 0.47100
C 	C 	0.22465 0.77535 0.01911 0.01200
H 	H 	0.23665 0.76335 0.00260 0.05800
C 	C 	0.18860 0.81140 0.06800 0.03800
C 	C 	0.17010 0.82990 0.09409 -0.02500
C 	C 	0.15340 0.84660 0.11466 0.02800
C 	C 	0.13360 0.86640 0.13995 -0.00900
C 	C 	0.09480 0.90520 0.18755 -0.11000
C 	C 	0.07165 0.92835 0.21415 0.47700
C 	C 	0.55070 0.77535 0.48089 0.01200
H 	H 	0.52670 0.76335 0.49740 0.05800
C 	C 	0.62280 0.81140 0.43200 0.03700
C 	C 	0.65980 0.82990 0.40591 -0.02700
C 	C 	0.69320 0.84660 0.38534 0.02700
C 	C 	0.73280 0.86640 0.36005 -0.01600
C 	C 	0.81040 0.90520 0.31245 -0.09500
C 	C 	0.85670 0.92835 0.28585 0.47100
C 	C 	0.22465 0.44930 0.48089 0.01200
H 	H 	0.23665 0.47330 0.49740 0.05800
C 	C 	0.18860 0.37720 0.43200 0.03700
C 	C 	0.17010 0.34020 0.40591 -0.02700
C 	C 	0.15340 0.30680 0.38534 0.02700
C 	C 	0.13360 0.26720 0.36005 -0.01600
C 	C 	0.09480 0.18960 0.31245 -0.09500
C 	C 	0.07165 0.14330 0.28585 0.47100
C 	C 	0.22465 0.77535 0.48089 0.01200
H 	H 	0.23665 0.76335 0.49740 0.05800
C 	C 	0.18860 0.81140 0.43200 0.03800
C 	C 	0.17010 0.82990 0.40591 -0.02500
C 	C 	0.15340 0.84660 0.38534 0.02800
C 	C 	0.13360 0.86640 0.36005 -0.00900
C 	C 	0.09480 0.90520 0.31245 -0.11000
C 	C 	0.07165 0.92835 0.28585 0.47700
C 	C 	0.44930 0.22465 0.98089 0.01200
H 	H 	0.47330 0.23665 0.99740 0.05800
C 	C 	0.37720 0.18860 0.93200 0.03700
C 	C 	0.34020 0.17010 0.90591 -0.02700
C 	C 	0.30680 0.15340 0.88534 0.02800
C 	C 	0.26720 0.13360 0.86005 -0.01600
C 	C 	0.18960 0.09480 0.81245 -0.09500
C 	C 	0.14330 0.07165 0.78585 0.47100
C 	C 	0.77535 0.55070 0.98089 0.01200
H 	H 	0.76335 0.52670 0.99740 0.05800
C 	C 	0.81140 0.62280 0.93200 0.03700
C 	C 	0.82990 0.65980 0.90591 -0.02700
C 	C 	0.84660 0.69320 0.88534 0.02800
C 	C 	0.86640 0.73280 0.86005 -0.01600
C 	C 	0.90520 0.81040 0.81245 -0.09500
C 	C 	0.92835 0.85670 0.78585 0.47100
C 	C 	0.77535 0.22465 0.98089 0.01200
H 	H 	0.76335 0.23665 0.99740 0.05800
C 	C 	0.81140 0.18860 0.93200 0.03800
C 	C 	0.82990 0.17010 0.90591 -0.02500
C 	C 	0.84660 0.15340 0.88534 0.02800
C 	C 	0.86640 0.13360 0.86005 -0.00900
C 	C 	0.90520 0.09480 0.81245 -0.11000
C 	C 	0.92835 0.07165 0.78585 0.47700
