data_crystal

_cell_length_a 14.83600
_cell_length_b 6.68440
_cell_length_c 4.36300
_cell_angle_alpha 90.00000
_cell_angle_beta  93.28000
_cell_angle_gamma 90.00000

_symmetry_space_group_name_	'P 1'
_symmetry_space_group_name_H-M	'P 1'

loop_
_symmetry_equiv_pos_as_xyz
  x,y,z

loop_
_atom_site_label
_atom_site_type_symbol
_atom_site_fract_x
_atom_site_fract_y
_atom_site_fract_z
_atom_site_charge
O 	O 	0.15880 0.18970 0.78520 -0.41200
H 	H 	0.03430 0.12270 0.22800 0.08300
O 	O 	0.65880 0.68970 0.78520 -0.42200
H 	H 	0.53430 0.62270 0.22800 0.09700
O 	O 	0.84120 0.18970 0.21480 -0.41200
H 	H 	0.96570 0.12270 0.77200 0.08300
O 	O 	0.34120 0.68970 0.21480 -0.42200
H 	H 	0.46570 0.62270 0.77200 0.09700
O 	O 	0.84120 0.81030 0.21480 -0.43800
H 	H 	0.96570 0.87730 0.77200 0.05600
O 	O 	0.34120 0.31030 0.21480 -0.40700
H 	H 	0.46570 0.37730 0.77200 0.10500
O 	O 	0.15880 0.81030 0.78520 -0.43800
H 	H 	0.03430 0.87730 0.22800 0.05600
O 	O 	0.65880 0.31030 0.78520 -0.40700
H 	H 	0.53430 0.37730 0.22800 0.10500
Cu	Cu	0.25000 0.25000 0.50000 0.90400
Cu	Cu	0.75000 0.25000 0.50000 0.90400
Cu	Cu	0.75000 0.75000 0.50000 0.89300
Cu	Cu	0.25000 0.75000 0.50000 0.89300
P 	P 	0.14930 -0.00000 0.97170 0.44700
O 	O 	0.21740 0.00000 0.25670 -0.46600
C 	C 	0.03870 0.00000 0.12050 -0.15900
P 	P 	0.64930 0.50000 0.97170 0.42400
O 	O 	0.71740 0.50000 0.25670 -0.48400
C 	C 	0.53870 0.50000 0.12050 -0.22100
P 	P 	0.85070 0.00000 0.02830 0.44700
O 	O 	0.78260 -0.00000 0.74330 -0.46600
C 	C 	0.96130 0.00000 0.87950 -0.15900
P 	P 	0.35070 0.50000 0.02830 0.42400
O 	O 	0.28260 0.50000 0.74330 -0.48400
C 	C 	0.46130 0.50000 0.87950 -0.22100
