data_crystal

_cell_length_a 29.11150
_cell_length_b 14.31080
_cell_length_c 26.17880
_cell_angle_alpha 90.00000
_cell_angle_beta  101.95900
_cell_angle_gamma 90.00000

_symmetry_space_group_name_	'P 1'
_symmetry_space_group_name_H-M	'P 1'

loop_
_symmetry_equiv_pos_as_xyz
  x,y,z

loop_
_atom_site_label
_atom_site_type_symbol
_atom_site_fract_x
_atom_site_fract_y
_atom_site_fract_z
_atom_site_charge
Cd	Cd	0.62660 0.66132 0.44134 1.22400
Cd	Cd	0.62927 0.43766 0.36983 1.22900
Cd	Cd	0.75389 0.37601 0.34833 1.19500
N 	N 	0.74326 0.61560 0.45350 -0.24300
N 	N 	0.69925 0.58380 0.43900 -0.16000
N 	N 	0.69961 0.50810 0.41130 -0.16500
N 	N 	0.74403 0.48990 0.40670 -0.26400
N 	N 	0.79260 0.23060 0.21810 -0.11700
O 	O 	0.68254 0.79070 0.44057 -0.50900
O 	O 	0.60721 0.81930 0.42110 -0.37800
O 	O 	0.64940 0.29420 0.39550 -0.45400
O 	O 	0.72060 0.25910 0.38210 -0.46100
O 	O 	0.62869 0.68430 0.52541 -0.43600
O 	O 	0.70678 0.68020 0.55271 -0.44600
O 	O 	0.68290 0.56580 0.80350 -0.51200
O 	O 	0.60810 0.60210 0.78380 -0.39500
O 	O 	0.60775 0.59850 0.35236 -0.47600
O 	O 	0.55022 0.65180 0.38800 -0.36100
O 	O 	0.61009 0.50010 0.45209 -0.46000
O 	O 	0.55774 0.42140 0.39500 -0.37200
O 	O 	0.76160 0.27000 0.28480 -0.38500
C 	C 	0.77060 0.55710 0.43320 0.29500
C 	C 	0.82220 0.56770 0.43870 -0.82500
H 	H 	0.83720 0.50830 0.44750 0.24400
H 	H 	0.83390 0.61190 0.46590 0.26200
H 	H 	0.82900 0.58960 0.40640 0.24600
C 	C 	0.64870 0.84740 0.42840 0.31900
C 	C 	0.68170 0.23940 0.39370 0.39500
C 	C 	0.65810 0.94870 0.42010 -0.07800
C 	C 	0.70330 0.98110 0.42240 -0.04000
H 	H 	0.72850 0.93990 0.42980 0.04300
C 	C 	0.71100 0.07440 0.41390 -0.00600
H 	H 	0.74130 0.09510 0.41420 0.03800
C 	C 	0.67450 0.13720 0.40490 -0.10000
C 	C 	0.62970 0.10520 0.40400 -0.00900
H 	H 	0.60490 0.14740 0.39860 0.04400
C 	C 	0.62090 0.01110 0.41090 -0.04100
H 	H 	0.59040 0.99020 0.40930 0.05500
C 	C 	0.66580 0.67450 0.55980 0.35400
C 	C 	0.64740 0.59300 0.77180 0.34900
C 	C 	0.66020 0.65240 0.61450 -0.07700
C 	C 	0.69630 0.60900 0.64870 -0.03100
H 	H 	0.72370 0.59290 0.63780 0.04700
C 	C 	0.69200 0.58930 0.69950 -0.00700
H 	H 	0.71680 0.56170 0.72270 0.01300
C 	C 	0.65090 0.61050 0.71560 -0.09200
C 	C 	0.61410 0.65070 0.68060 -0.01400
H 	H 	0.58620 0.66460 0.69110 0.05100
C 	C 	0.61850 0.67030 0.63010 -0.02900
H 	H 	0.59320 0.69570 0.60650 0.04800
C 	C 	0.56470 0.62030 0.34950 0.30000
C 	C 	0.53090 0.61130 0.29790 -0.06400
C 	C 	0.54760 0.60790 0.25210 -0.02500
H 	H 	0.57980 0.60410 0.25360 0.04700
C 	C 	0.48330 0.61020 0.29570 -0.01900
H 	H 	0.47190 0.61100 0.32640 0.05300
C 	C 	0.56880 0.46740 0.43650 0.30900
C 	C 	0.53290 0.48410 0.46960 -0.06400
C 	C 	0.54550 0.52770 0.51730 -0.03200
H 	H 	0.57640 0.54670 0.52930 0.05200
C 	C 	0.51240 0.54330 0.54750 -0.01400
H 	H 	0.52120 0.57290 0.57970 0.05200
C 	C 	0.79090 0.28400 0.25800 0.07200
C 	C 	0.82440 0.24500 0.18240 -0.18100
H 	H 	0.80880 0.28040 0.15280 0.05400
H 	H 	0.83360 0.18530 0.17090 0.07000
H 	H 	0.85180 0.27810 0.20010 -0.00600
C 	C 	0.75900 0.15300 0.20230 0.16600
H 	H 	0.75140 0.12520 0.23280 -0.06000
H 	H 	0.77280 0.10730 0.18340 -0.00200
H 	H 	0.73090 0.17730 0.18030 -0.09700
O 	O 	0.78800 0.29000 0.29200 -0.21800
C 	C 	0.76800 0.24200 0.25500 0.34500
C 	C 	0.78200 0.16300 0.17500 -0.51300
H 	H 	0.74870 0.15450 0.16490 0.16700
H 	H 	0.79670 0.10440 0.18600 0.16000
H 	H 	0.79380 0.18630 0.14570 0.18200
C 	C 	0.83400 0.28900 0.21500 -0.15500
H 	H 	0.84410 0.27490 0.18300 0.15400
H 	H 	0.85890 0.27590 0.24410 0.07300
H 	H 	0.82550 0.35370 0.21510 0.06200
Cd	Cd	0.12660 0.16132 0.44134 1.22500
Cd	Cd	0.12927 0.93766 0.36983 1.23000
Cd	Cd	0.25389 0.87601 0.34833 1.19600
N 	N 	0.24326 0.11560 0.45350 -0.24200
N 	N 	0.19925 0.08380 0.43900 -0.15900
N 	N 	0.19961 0.00810 0.41130 -0.16500
N 	N 	0.24403 0.98990 0.40670 -0.26200
N 	N 	0.29260 0.73060 0.21810 -0.11600
O 	O 	0.18254 0.29070 0.44057 -0.50900
O 	O 	0.10721 0.31930 0.42110 -0.37700
O 	O 	0.14940 0.79420 0.39550 -0.45400
O 	O 	0.22060 0.75910 0.38210 -0.46100
O 	O 	0.12869 0.18430 0.52541 -0.43600
O 	O 	0.20678 0.18020 0.55271 -0.44600
O 	O 	0.18290 0.06580 0.80350 -0.51300
O 	O 	0.10810 0.10210 0.78380 -0.39600
O 	O 	0.10775 0.09850 0.35236 -0.47600
O 	O 	0.05022 0.15180 0.38800 -0.36200
O 	O 	0.11009 0.00010 0.45209 -0.46100
O 	O 	0.05774 0.92140 0.39500 -0.37200
O 	O 	0.26160 0.77000 0.28480 -0.38500
C 	C 	0.27060 0.05710 0.43320 0.29400
C 	C 	0.32220 0.06770 0.43870 -0.82300
H 	H 	0.33720 0.00830 0.44750 0.24300
H 	H 	0.33390 0.11190 0.46590 0.26100
H 	H 	0.32900 0.08960 0.40640 0.24600
C 	C 	0.14870 0.34740 0.42840 0.32000
C 	C 	0.18170 0.73940 0.39370 0.39400
C 	C 	0.15810 0.44870 0.42010 -0.08000
C 	C 	0.20330 0.48110 0.42240 -0.04000
H 	H 	0.22850 0.43990 0.42980 0.04300
C 	C 	0.21100 0.57440 0.41390 -0.00500
H 	H 	0.24130 0.59510 0.41420 0.03800
C 	C 	0.17450 0.63720 0.40490 -0.09900
C 	C 	0.12970 0.60520 0.40400 -0.01100
H 	H 	0.10490 0.64740 0.39860 0.04400
C 	C 	0.12090 0.51110 0.41090 -0.03600
H 	H 	0.09040 0.49020 0.40930 0.05200
C 	C 	0.16580 0.17450 0.55980 0.35400
C 	C 	0.14740 0.09300 0.77180 0.34900
C 	C 	0.16020 0.15240 0.61450 -0.07700
C 	C 	0.19630 0.10900 0.64870 -0.03100
H 	H 	0.22370 0.09290 0.63780 0.04700
C 	C 	0.19200 0.08930 0.69950 -0.00700
H 	H 	0.21680 0.06170 0.72270 0.01300
C 	C 	0.15090 0.11050 0.71560 -0.09300
C 	C 	0.11410 0.15070 0.68060 -0.01400
H 	H 	0.08620 0.16460 0.69110 0.05000
C 	C 	0.11850 0.17030 0.63010 -0.02900
H 	H 	0.09320 0.19570 0.60650 0.04800
C 	C 	0.06470 0.12030 0.34950 0.30100
C 	C 	0.03090 0.11130 0.29790 -0.06600
C 	C 	0.04760 0.10790 0.25210 -0.02300
H 	H 	0.07980 0.10410 0.25360 0.04600
C 	C 	0.98330 0.11020 0.29570 -0.01600
H 	H 	0.97190 0.11100 0.32640 0.05100
C 	C 	0.06880 0.96740 0.43650 0.31000
C 	C 	0.03290 0.98410 0.46960 -0.06400
C 	C 	0.04550 0.02770 0.51730 -0.03400
H 	H 	0.07640 0.04670 0.52930 0.05200
C 	C 	0.01240 0.04330 0.54750 -0.01500
H 	H 	0.02120 0.07290 0.57970 0.05200
C 	C 	0.29090 0.78400 0.25800 0.07200
C 	C 	0.32440 0.74500 0.18240 -0.18100
H 	H 	0.30880 0.78040 0.15280 0.05400
H 	H 	0.33360 0.68530 0.17090 0.07000
H 	H 	0.35180 0.77810 0.20010 -0.00600
C 	C 	0.25900 0.65300 0.20230 0.16600
H 	H 	0.25140 0.62520 0.23280 -0.06000
H 	H 	0.27280 0.60730 0.18340 -0.00200
H 	H 	0.23090 0.67730 0.18030 -0.09700
O 	O 	0.28800 0.79000 0.29200 -0.21800
C 	C 	0.26800 0.74200 0.25500 0.34500
C 	C 	0.28200 0.66300 0.17500 -0.51300
H 	H 	0.24870 0.65450 0.16490 0.16700
H 	H 	0.29670 0.60440 0.18600 0.16000
H 	H 	0.29380 0.68630 0.14570 0.18200
C 	C 	0.33400 0.78900 0.21500 -0.15500
H 	H 	0.34410 0.77490 0.18300 0.15400
H 	H 	0.35890 0.77590 0.24410 0.07300
H 	H 	0.32550 0.85370 0.21510 0.06200
Cd	Cd	0.37340 0.66132 0.05866 1.22100
Cd	Cd	0.37073 0.43766 0.13017 1.23000
Cd	Cd	0.24611 0.37601 0.15167 1.19500
N 	N 	0.25674 0.61560 0.04650 -0.24500
N 	N 	0.30075 0.58380 0.06100 -0.16200
N 	N 	0.30039 0.50810 0.08870 -0.16600
N 	N 	0.25597 0.48990 0.09330 -0.26300
N 	N 	0.20740 0.23060 0.28190 -0.11700
O 	O 	0.31746 0.79070 0.05943 -0.51500
O 	O 	0.39279 0.81930 0.07890 -0.38200
O 	O 	0.35060 0.29420 0.10450 -0.45600
O 	O 	0.27940 0.25910 0.11790 -0.46300
O 	O 	0.37131 0.68430 0.97459 -0.42100
O 	O 	0.29322 0.68020 0.94729 -0.43600
O 	O 	0.31710 0.56580 0.69650 -0.51300
O 	O 	0.39190 0.60210 0.71620 -0.39500
O 	O 	0.39225 0.59850 0.14764 -0.47700
O 	O 	0.44978 0.65180 0.11200 -0.36500
O 	O 	0.38991 0.50010 0.04791 -0.47700
O 	O 	0.44226 0.42140 0.10500 -0.38100
O 	O 	0.23840 0.27000 0.21520 -0.38700
C 	C 	0.22940 0.55710 0.06680 0.28500
C 	C 	0.17780 0.56770 0.06130 -0.80300
H 	H 	0.16280 0.50830 0.05250 0.23100
H 	H 	0.16610 0.61190 0.03410 0.24900
H 	H 	0.17100 0.58960 0.09360 0.23900
C 	C 	0.35130 0.84740 0.07160 0.31700
C 	C 	0.31830 0.23940 0.10630 0.39300
C 	C 	0.34190 0.94870 0.07990 -0.08400
C 	C 	0.29670 0.98110 0.07760 -0.04200
H 	H 	0.27150 0.93990 0.07020 0.04000
C 	C 	0.28900 0.07440 0.08610 -0.00700
H 	H 	0.25870 0.09510 0.08580 0.03500
C 	C 	0.32550 0.13720 0.09510 -0.10200
C 	C 	0.37030 0.10520 0.09600 -0.01200
H 	H 	0.39510 0.14740 0.10140 0.04300
C 	C 	0.37910 0.01110 0.08910 -0.03900
H 	H 	0.40960 0.99020 0.09070 0.05000
C 	C 	0.33420 0.67450 0.94020 0.35200
C 	C 	0.35260 0.59300 0.72820 0.35000
C 	C 	0.33980 0.65240 0.88550 -0.07200
C 	C 	0.30370 0.60900 0.85130 -0.03300
H 	H 	0.27630 0.59290 0.86220 0.04800
C 	C 	0.30800 0.58930 0.80050 -0.00500
H 	H 	0.28320 0.56170 0.77730 0.01300
C 	C 	0.34910 0.61050 0.78440 -0.09300
C 	C 	0.38590 0.65070 0.81940 -0.01200
H 	H 	0.41380 0.66460 0.80890 0.05000
C 	C 	0.38150 0.67030 0.86990 -0.03100
H 	H 	0.40680 0.69570 0.89350 0.05000
C 	C 	0.43530 0.62030 0.15050 0.30200
C 	C 	0.46910 0.61130 0.20210 -0.06600
C 	C 	0.45240 0.60790 0.24790 -0.02300
H 	H 	0.42020 0.60410 0.24640 0.04700
C 	C 	0.51670 0.61020 0.20430 -0.01700
H 	H 	0.52810 0.61100 0.17360 0.05100
C 	C 	0.43120 0.46740 0.06350 0.34000
C 	C 	0.46710 0.48410 0.03040 -0.16600
C 	C 	0.45450 0.52770 0.98270 0.09000
H 	H 	0.42360 0.54670 0.97070 0.01700
C 	C 	0.48760 0.54330 0.95250 -0.11000
H 	H 	0.47880 0.57290 0.92030 0.08700
C 	C 	0.20910 0.28400 0.24200 0.07000
C 	C 	0.17560 0.24500 0.31760 -0.18000
H 	H 	0.19120 0.28040 0.34720 0.05400
H 	H 	0.16640 0.18530 0.32910 0.06900
H 	H 	0.14820 0.27810 0.29990 -0.00600
C 	C 	0.24100 0.15300 0.29770 0.16600
H 	H 	0.24860 0.12520 0.26720 -0.06000
H 	H 	0.22720 0.10730 0.31660 -0.00200
H 	H 	0.26910 0.17730 0.31970 -0.09700
O 	O 	0.21200 0.29000 0.20800 -0.21800
C 	C 	0.23200 0.24200 0.24500 0.34700
C 	C 	0.21800 0.16300 0.32500 -0.51400
H 	H 	0.25130 0.15450 0.33510 0.16700
H 	H 	0.20330 0.10440 0.31400 0.16000
H 	H 	0.20620 0.18630 0.35430 0.18200
C 	C 	0.16600 0.28900 0.28500 -0.15400
H 	H 	0.15590 0.27490 0.31700 0.15300
H 	H 	0.14110 0.27590 0.25590 0.07200
H 	H 	0.17450 0.35370 0.28490 0.06200
Cd	Cd	0.87340 0.16132 0.05866 1.22200
Cd	Cd	0.87073 0.93766 0.13017 1.23000
Cd	Cd	0.74611 0.87601 0.15167 1.19500
N 	N 	0.75674 0.11560 0.04650 -0.24500
N 	N 	0.80075 0.08380 0.06100 -0.16200
N 	N 	0.80039 0.00810 0.08870 -0.16600
N 	N 	0.75597 0.98990 0.09330 -0.26300
N 	N 	0.70740 0.73060 0.28190 -0.11700
O 	O 	0.81746 0.29070 0.05943 -0.51400
O 	O 	0.89279 0.31930 0.07890 -0.38200
O 	O 	0.85060 0.79420 0.10450 -0.45600
O 	O 	0.77940 0.75910 0.11790 -0.46300
O 	O 	0.87131 0.18430 0.97459 -0.42200
O 	O 	0.79322 0.18020 0.94729 -0.43600
O 	O 	0.81710 0.06580 0.69650 -0.51300
O 	O 	0.89190 0.10210 0.71620 -0.39500
O 	O 	0.89225 0.09850 0.14764 -0.47600
O 	O 	0.94978 0.15180 0.11200 -0.36500
O 	O 	0.88991 0.00010 0.04791 -0.47600
O 	O 	0.94226 0.92140 0.10500 -0.38000
O 	O 	0.73840 0.77000 0.21520 -0.38700
C 	C 	0.72940 0.05710 0.06680 0.28500
C 	C 	0.67780 0.06770 0.06130 -0.80400
H 	H 	0.66280 0.00830 0.05250 0.23100
H 	H 	0.66610 0.11190 0.03410 0.24900
H 	H 	0.67100 0.08960 0.09360 0.23900
C 	C 	0.85130 0.34740 0.07160 0.31800
C 	C 	0.81830 0.73940 0.10630 0.39300
C 	C 	0.84190 0.44870 0.07990 -0.08400
C 	C 	0.79670 0.48110 0.07760 -0.04300
H 	H 	0.77150 0.43990 0.07020 0.04000
C 	C 	0.78900 0.57440 0.08610 -0.00700
H 	H 	0.75870 0.59510 0.08580 0.03400
C 	C 	0.82550 0.63720 0.09510 -0.10200
C 	C 	0.87030 0.60520 0.09600 -0.01300
H 	H 	0.89510 0.64740 0.10140 0.04300
C 	C 	0.87910 0.51110 0.08910 -0.03800
H 	H 	0.90960 0.49020 0.09070 0.05000
C 	C 	0.83420 0.17450 0.94020 0.35200
C 	C 	0.85260 0.09300 0.72820 0.35000
C 	C 	0.83980 0.15240 0.88550 -0.07300
C 	C 	0.80370 0.10900 0.85130 -0.03300
H 	H 	0.77630 0.09290 0.86220 0.04800
C 	C 	0.80800 0.08930 0.80050 -0.00500
H 	H 	0.78320 0.06170 0.77730 0.01200
C 	C 	0.84910 0.11050 0.78440 -0.09400
C 	C 	0.88590 0.15070 0.81940 -0.01200
H 	H 	0.91380 0.16460 0.80890 0.05000
C 	C 	0.88150 0.17030 0.86990 -0.03200
H 	H 	0.90680 0.19570 0.89350 0.05000
C 	C 	0.93530 0.12030 0.15050 0.30100
C 	C 	0.96910 0.11130 0.20210 -0.06300
C 	C 	0.95240 0.10790 0.24790 -0.02600
H 	H 	0.92020 0.10410 0.24640 0.04700
C 	C 	0.01670 0.11020 0.20430 -0.02000
H 	H 	0.02810 0.11100 0.17360 0.05200
C 	C 	0.93120 0.96740 0.06350 0.33800
C 	C 	0.96710 0.98410 0.03040 -0.15700
C 	C 	0.95450 0.02770 0.98270 0.08000
H 	H 	0.92360 0.04670 0.97070 0.02000
C 	C 	0.98760 0.04330 0.95250 -0.10200
H 	H 	0.97880 0.07290 0.92030 0.08400
C 	C 	0.70910 0.78400 0.24200 0.07000
C 	C 	0.67560 0.74500 0.31760 -0.18000
H 	H 	0.69120 0.78040 0.34720 0.05400
H 	H 	0.66640 0.68530 0.32910 0.06900
H 	H 	0.64820 0.77810 0.29990 -0.00600
C 	C 	0.74100 0.65300 0.29770 0.16600
H 	H 	0.74860 0.62520 0.26720 -0.06000
H 	H 	0.72720 0.60730 0.31660 -0.00200
H 	H 	0.76910 0.67730 0.31970 -0.09700
O 	O 	0.71200 0.79000 0.20800 -0.21800
C 	C 	0.73200 0.74200 0.24500 0.34700
C 	C 	0.71800 0.66300 0.32500 -0.51400
H 	H 	0.75130 0.65450 0.33510 0.16700
H 	H 	0.70330 0.60440 0.31400 0.16000
H 	H 	0.70620 0.68630 0.35430 0.18200
C 	C 	0.66600 0.78900 0.28500 -0.15400
H 	H 	0.65590 0.77490 0.31700 0.15300
H 	H 	0.64110 0.77590 0.25590 0.07200
H 	H 	0.67450 0.85370 0.28490 0.06200
Cd	Cd	0.37340 0.33868 0.55866 1.22500
Cd	Cd	0.37073 0.56234 0.63017 1.23000
Cd	Cd	0.24611 0.62399 0.65167 1.19600
N 	N 	0.25674 0.38440 0.54650 -0.24200
N 	N 	0.30075 0.41620 0.56100 -0.15900
N 	N 	0.30039 0.49190 0.58870 -0.16400
N 	N 	0.25597 0.51010 0.59330 -0.26300
N 	N 	0.20740 0.76940 0.78190 -0.11600
O 	O 	0.31746 0.20930 0.55943 -0.50900
O 	O 	0.39279 0.18070 0.57890 -0.37700
O 	O 	0.35060 0.70580 0.60450 -0.45300
O 	O 	0.27940 0.74090 0.61790 -0.46000
O 	O 	0.37131 0.31570 0.47459 -0.43600
O 	O 	0.29322 0.31980 0.44729 -0.44600
O 	O 	0.31710 0.43420 0.19650 -0.51300
O 	O 	0.39190 0.39790 0.21620 -0.39500
O 	O 	0.39225 0.40150 0.64764 -0.47600
O 	O 	0.44978 0.34820 0.61200 -0.36100
O 	O 	0.38991 0.49990 0.54791 -0.46000
O 	O 	0.44226 0.57860 0.60500 -0.37100
O 	O 	0.23840 0.73000 0.71520 -0.38500
C 	C 	0.22940 0.44290 0.56680 0.29500
C 	C 	0.17780 0.43230 0.56130 -0.82500
H 	H 	0.16280 0.49170 0.55250 0.24400
H 	H 	0.16610 0.38810 0.53410 0.26200
H 	H 	0.17100 0.41040 0.59360 0.24600
C 	C 	0.35130 0.15260 0.57160 0.32100
C 	C 	0.31830 0.76060 0.60630 0.39400
C 	C 	0.34190 0.05130 0.57990 -0.08400
C 	C 	0.29670 0.01890 0.57760 -0.04000
H 	H 	0.27150 0.06010 0.57020 0.04300
C 	C 	0.28900 0.92560 0.58610 -0.00500
H 	H 	0.25870 0.90490 0.58580 0.03800
C 	C 	0.32550 0.86280 0.59510 -0.09800
C 	C 	0.37030 0.89480 0.59600 -0.01400
H 	H 	0.39510 0.85260 0.60140 0.04600
C 	C 	0.37910 0.98890 0.58910 -0.03000
H 	H 	0.40960 0.00980 0.59070 0.04900
C 	C 	0.33420 0.32550 0.44020 0.35400
C 	C 	0.35260 0.40700 0.22820 0.34900
C 	C 	0.33980 0.34760 0.38550 -0.07700
C 	C 	0.30370 0.39100 0.35130 -0.03100
H 	H 	0.27630 0.40710 0.36220 0.04700
C 	C 	0.30800 0.41070 0.30050 -0.00700
H 	H 	0.28320 0.43830 0.27730 0.01300
C 	C 	0.34910 0.38950 0.28440 -0.09200
C 	C 	0.38590 0.34930 0.31940 -0.01400
H 	H 	0.41380 0.33540 0.30890 0.05100
C 	C 	0.38150 0.32970 0.36990 -0.02900
H 	H 	0.40680 0.30430 0.39350 0.04800
C 	C 	0.43530 0.37970 0.65050 0.30000
C 	C 	0.46910 0.38870 0.70210 -0.06500
C 	C 	0.45240 0.39210 0.74790 -0.02300
H 	H 	0.42020 0.39590 0.74640 0.04700
C 	C 	0.51670 0.38980 0.70430 -0.01700
H 	H 	0.52810 0.38900 0.67360 0.05200
C 	C 	0.43120 0.53260 0.56350 0.30900
C 	C 	0.46710 0.51590 0.53040 -0.06400
C 	C 	0.45450 0.47230 0.48270 -0.03200
H 	H 	0.42360 0.45330 0.47070 0.05200
C 	C 	0.48760 0.45670 0.45250 -0.01400
H 	H 	0.47880 0.42710 0.42030 0.05200
C 	C 	0.20910 0.71600 0.74200 0.07300
C 	C 	0.17560 0.75500 0.81760 -0.18100
H 	H 	0.19120 0.71960 0.84720 0.05400
H 	H 	0.16640 0.81470 0.82910 0.07000
H 	H 	0.14820 0.72190 0.79990 -0.00600
C 	C 	0.24100 0.84700 0.79770 0.16500
H 	H 	0.24860 0.87480 0.76720 -0.05900
H 	H 	0.22720 0.89270 0.81660 -0.00200
H 	H 	0.26910 0.82270 0.81970 -0.09600
O 	O 	0.21200 0.71000 0.70800 -0.21900
C 	C 	0.23200 0.75800 0.74500 0.34400
C 	C 	0.21800 0.83700 0.82500 -0.51300
H 	H 	0.25130 0.84550 0.83510 0.16700
H 	H 	0.20330 0.89560 0.81400 0.16000
H 	H 	0.20620 0.81370 0.85430 0.18200
C 	C 	0.16600 0.71100 0.78500 -0.15400
H 	H 	0.15590 0.72510 0.81700 0.15400
H 	H 	0.14110 0.72410 0.75590 0.07300
H 	H 	0.17450 0.64630 0.78490 0.06200
Cd	Cd	0.87340 0.83868 0.55866 1.22500
Cd	Cd	0.87073 0.06234 0.63017 1.23000
Cd	Cd	0.74611 0.12399 0.65167 1.19600
N 	N 	0.75674 0.88440 0.54650 -0.24200
N 	N 	0.80075 0.91620 0.56100 -0.15900
N 	N 	0.80039 0.99190 0.58870 -0.16400
N 	N 	0.75597 0.01010 0.59330 -0.26500
N 	N 	0.70740 0.26940 0.78190 -0.11600
O 	O 	0.81746 0.70930 0.55943 -0.50800
O 	O 	0.89279 0.68070 0.57890 -0.37700
O 	O 	0.85060 0.20580 0.60450 -0.45400
O 	O 	0.77940 0.24090 0.61790 -0.46100
O 	O 	0.87131 0.81570 0.47459 -0.43600
O 	O 	0.79322 0.81980 0.44729 -0.44500
O 	O 	0.81710 0.93420 0.19650 -0.51200
O 	O 	0.89190 0.89790 0.21620 -0.39500
O 	O 	0.89225 0.90150 0.64764 -0.47500
O 	O 	0.94978 0.84820 0.61200 -0.36100
O 	O 	0.88991 0.99990 0.54791 -0.45900
O 	O 	0.94226 0.07860 0.60500 -0.37100
O 	O 	0.73840 0.23000 0.71520 -0.38500
C 	C 	0.72940 0.94290 0.56680 0.29700
C 	C 	0.67780 0.93230 0.56130 -0.82700
H 	H 	0.66280 0.99170 0.55250 0.24500
H 	H 	0.66610 0.88810 0.53410 0.26300
H 	H 	0.67100 0.91040 0.59360 0.24700
C 	C 	0.85130 0.65260 0.57160 0.32000
C 	C 	0.81830 0.26060 0.60630 0.39400
C 	C 	0.84190 0.55130 0.57990 -0.08000
C 	C 	0.79670 0.51890 0.57760 -0.04000
H 	H 	0.77150 0.56010 0.57020 0.04300
C 	C 	0.78900 0.42560 0.58610 -0.00500
H 	H 	0.75870 0.40490 0.58580 0.03800
C 	C 	0.82550 0.36280 0.59510 -0.10000
C 	C 	0.87030 0.39480 0.59600 -0.01100
H 	H 	0.89510 0.35260 0.60140 0.04500
C 	C 	0.87910 0.48890 0.58910 -0.03600
H 	H 	0.90960 0.50980 0.59070 0.05300
C 	C 	0.83420 0.82550 0.44020 0.35400
C 	C 	0.85260 0.90700 0.22820 0.34900
C 	C 	0.83980 0.84760 0.38550 -0.07700
C 	C 	0.80370 0.89100 0.35130 -0.03100
H 	H 	0.77630 0.90710 0.36220 0.04700
C 	C 	0.80800 0.91070 0.30050 -0.00700
H 	H 	0.78320 0.93830 0.27730 0.01400
C 	C 	0.84910 0.88950 0.28440 -0.09200
C 	C 	0.88590 0.84930 0.31940 -0.01400
H 	H 	0.91380 0.83540 0.30890 0.05100
C 	C 	0.88150 0.82970 0.36990 -0.02900
H 	H 	0.90680 0.80430 0.39350 0.04800
C 	C 	0.93530 0.87970 0.65050 0.30000
C 	C 	0.96910 0.88870 0.70210 -0.06200
C 	C 	0.95240 0.89210 0.74790 -0.02500
H 	H 	0.92020 0.89590 0.74640 0.04800
C 	C 	0.01670 0.88980 0.70430 -0.02000
H 	H 	0.02810 0.88900 0.67360 0.05300
C 	C 	0.93120 0.03260 0.56350 0.30700
C 	C 	0.96710 0.01590 0.53040 -0.06500
C 	C 	0.95450 0.97230 0.48270 -0.03000
H 	H 	0.92360 0.95330 0.47070 0.05100
C 	C 	0.98760 0.95670 0.45250 -0.01400
H 	H 	0.97880 0.92710 0.42030 0.05300
C 	C 	0.70910 0.21600 0.74200 0.07200
C 	C 	0.67560 0.25500 0.81760 -0.18000
H 	H 	0.69120 0.21960 0.84720 0.05400
H 	H 	0.66640 0.31470 0.82910 0.07000
H 	H 	0.64820 0.22190 0.79990 -0.00600
C 	C 	0.74100 0.34700 0.79770 0.16600
H 	H 	0.74860 0.37480 0.76720 -0.06000
H 	H 	0.72720 0.39270 0.81660 -0.00200
H 	H 	0.76910 0.32270 0.81970 -0.09700
O 	O 	0.71200 0.21000 0.70800 -0.21900
C 	C 	0.73200 0.25800 0.74500 0.34500
C 	C 	0.71800 0.33700 0.82500 -0.51300
H 	H 	0.75130 0.34550 0.83510 0.16600
H 	H 	0.70330 0.39560 0.81400 0.16000
H 	H 	0.70620 0.31370 0.85430 0.18200
C 	C 	0.66600 0.21100 0.78500 -0.15400
H 	H 	0.65590 0.22510 0.81700 0.15400
H 	H 	0.64110 0.22410 0.75590 0.07300
H 	H 	0.67450 0.14630 0.78490 0.06200
Cd	Cd	0.62660 0.33868 0.94134 1.23000
Cd	Cd	0.62927 0.56234 0.86983 1.23000
Cd	Cd	0.75389 0.62399 0.84833 1.19700
N 	N 	0.74326 0.38440 0.95350 -0.23700
N 	N 	0.69925 0.41620 0.93900 -0.15600
N 	N 	0.69961 0.49190 0.91130 -0.16300
N 	N 	0.74403 0.51010 0.90670 -0.26300
N 	N 	0.79260 0.76940 0.71810 -0.11600
O 	O 	0.68254 0.20930 0.94057 -0.50000
O 	O 	0.60721 0.18070 0.92110 -0.37200
O 	O 	0.64940 0.70580 0.89550 -0.45100
O 	O 	0.72060 0.74090 0.88210 -0.45800
O 	O 	0.62869 0.31570 0.02541 -0.45000
O 	O 	0.70678 0.31980 0.05271 -0.45200
O 	O 	0.68290 0.43420 0.30350 -0.51200
O 	O 	0.60810 0.39790 0.28380 -0.39500
O 	O 	0.60775 0.40150 0.85236 -0.47500
O 	O 	0.55022 0.34820 0.88800 -0.35700
O 	O 	0.61009 0.49990 0.95209 -0.44300
O 	O 	0.55774 0.57860 0.89500 -0.36200
O 	O 	0.76160 0.73000 0.78480 -0.38300
C 	C 	0.77060 0.44290 0.93320 0.30500
C 	C 	0.82220 0.43230 0.93870 -0.84700
H 	H 	0.83720 0.49170 0.94750 0.25700
H 	H 	0.83390 0.38810 0.96590 0.27600
H 	H 	0.82900 0.41040 0.90640 0.25400
C 	C 	0.64870 0.15260 0.92840 0.32300
C 	C 	0.68170 0.76060 0.89370 0.39500
C 	C 	0.65810 0.05130 0.92010 -0.08000
C 	C 	0.70330 0.01890 0.92240 -0.03900
H 	H 	0.72850 0.06010 0.92980 0.04600
C 	C 	0.71100 0.92560 0.91390 -0.00200
H 	H 	0.74130 0.90490 0.91420 0.04100
C 	C 	0.67450 0.86280 0.90490 -0.09500
C 	C 	0.62970 0.89480 0.90400 -0.01300
H 	H 	0.60490 0.85260 0.89860 0.04800
C 	C 	0.62090 0.98890 0.91090 -0.02500
H 	H 	0.59040 0.00980 0.90930 0.05100
C 	C 	0.66580 0.32550 0.05980 0.35600
C 	C 	0.64740 0.40700 0.27180 0.34900
C 	C 	0.66020 0.34760 0.11450 -0.08000
C 	C 	0.69630 0.39100 0.14870 -0.03000
H 	H 	0.72370 0.40710 0.13780 0.04600
C 	C 	0.69200 0.41070 0.19950 -0.00800
H 	H 	0.71680 0.43830 0.22270 0.01400
C 	C 	0.65090 0.38950 0.21560 -0.09100
C 	C 	0.61410 0.34930 0.18060 -0.01600
H 	H 	0.58620 0.33540 0.19110 0.05100
C 	C 	0.61850 0.32970 0.13010 -0.02700
H 	H 	0.59320 0.30430 0.10650 0.04600
C 	C 	0.56470 0.37970 0.84950 0.29900
C 	C 	0.53090 0.38870 0.79790 -0.06300
C 	C 	0.54760 0.39210 0.75210 -0.02500
H 	H 	0.57980 0.39590 0.75360 0.04700
C 	C 	0.48330 0.38980 0.79570 -0.01900
H 	H 	0.47190 0.38900 0.82640 0.05400
C 	C 	0.56880 0.53260 0.93650 0.27700
C 	C 	0.53290 0.51590 0.96960 0.03800
C 	C 	0.54550 0.47230 0.01730 -0.15400
H 	H 	0.57640 0.45330 0.02930 0.08700
C 	C 	0.51240 0.45670 0.04750 0.08200
H 	H 	0.52120 0.42710 0.07970 0.01800
C 	C 	0.79090 0.71600 0.75800 0.07500
C 	C 	0.82440 0.75500 0.68240 -0.18200
H 	H 	0.80880 0.71960 0.65280 0.05400
H 	H 	0.83360 0.81470 0.67090 0.07000
H 	H 	0.85180 0.72190 0.70010 -0.00600
C 	C 	0.75900 0.84700 0.70230 0.16500
H 	H 	0.75140 0.87480 0.73280 -0.05900
H 	H 	0.77280 0.89270 0.68340 -0.00200
H 	H 	0.73090 0.82270 0.68030 -0.09600
O 	O 	0.78800 0.71000 0.79200 -0.21900
C 	C 	0.76800 0.75800 0.75500 0.34200
C 	C 	0.78200 0.83700 0.67500 -0.51200
H 	H 	0.74870 0.84550 0.66490 0.16600
H 	H 	0.79670 0.89560 0.68600 0.16000
H 	H 	0.79380 0.81370 0.64570 0.18200
C 	C 	0.83400 0.71100 0.71500 -0.15600
H 	H 	0.84410 0.72510 0.68300 0.15500
H 	H 	0.85890 0.72410 0.74410 0.07400
H 	H 	0.82550 0.64630 0.71510 0.06300
Cd	Cd	0.12660 0.83868 0.94134 1.23000
Cd	Cd	0.12927 0.06234 0.86983 1.23000
Cd	Cd	0.25389 0.12399 0.84833 1.19700
N 	N 	0.24326 0.88440 0.95350 -0.23700
N 	N 	0.19925 0.91620 0.93900 -0.15500
N 	N 	0.19961 0.99190 0.91130 -0.16200
N 	N 	0.24403 0.01010 0.90670 -0.26500
N 	N 	0.29260 0.26940 0.71810 -0.11600
O 	O 	0.18254 0.70930 0.94057 -0.50000
O 	O 	0.10721 0.68070 0.92110 -0.37100
O 	O 	0.14940 0.20580 0.89550 -0.45100
O 	O 	0.22060 0.24090 0.88210 -0.45800
O 	O 	0.12869 0.81570 0.02541 -0.45000
O 	O 	0.20678 0.81980 0.05271 -0.45300
O 	O 	0.18290 0.93420 0.30350 -0.51200
O 	O 	0.10810 0.89790 0.28380 -0.39500
O 	O 	0.10775 0.90150 0.85236 -0.47500
O 	O 	0.05022 0.84820 0.88800 -0.35700
O 	O 	0.11009 0.99990 0.95209 -0.44200
O 	O 	0.05774 0.07860 0.89500 -0.36300
O 	O 	0.26160 0.23000 0.78480 -0.38400
C 	C 	0.27060 0.94290 0.93320 0.30800
C 	C 	0.32220 0.93230 0.93870 -0.85000
H 	H 	0.33720 0.99170 0.94750 0.25800
H 	H 	0.33390 0.88810 0.96590 0.27700
H 	H 	0.32900 0.91040 0.90640 0.25500
C 	C 	0.14870 0.65260 0.92840 0.32100
C 	C 	0.18170 0.26060 0.89370 0.39500
C 	C 	0.15810 0.55130 0.92010 -0.07500
C 	C 	0.20330 0.51890 0.92240 -0.03900
H 	H 	0.22850 0.56010 0.92980 0.04700
C 	C 	0.21100 0.42560 0.91390 -0.00300
H 	H 	0.24130 0.40490 0.91420 0.04100
C 	C 	0.17450 0.36280 0.90490 -0.09700
C 	C 	0.12970 0.39480 0.90400 -0.00800
H 	H 	0.10490 0.35260 0.89860 0.04600
C 	C 	0.12090 0.48890 0.91090 -0.03500
H 	H 	0.09040 0.50980 0.90930 0.05600
C 	C 	0.16580 0.82550 0.05980 0.35600
C 	C 	0.14740 0.90700 0.27180 0.34900
C 	C 	0.16020 0.84760 0.11450 -0.08000
C 	C 	0.19630 0.89100 0.14870 -0.03000
H 	H 	0.22370 0.90710 0.13780 0.04600
C 	C 	0.19200 0.91070 0.19950 -0.00800
H 	H 	0.21680 0.93830 0.22270 0.01400
C 	C 	0.15090 0.88950 0.21560 -0.09100
C 	C 	0.11410 0.84930 0.18060 -0.01600
H 	H 	0.08620 0.83540 0.19110 0.05100
C 	C 	0.11850 0.82970 0.13010 -0.02700
H 	H 	0.09320 0.80430 0.10650 0.04500
C 	C 	0.06470 0.87970 0.84950 0.30000
C 	C 	0.03090 0.88870 0.79790 -0.06500
C 	C 	0.04760 0.89210 0.75210 -0.02300
H 	H 	0.07980 0.89590 0.75360 0.04700
C 	C 	0.98330 0.88980 0.79570 -0.01600
H 	H 	0.97190 0.88900 0.82640 0.05300
C 	C 	0.06880 0.03260 0.93650 0.27700
C 	C 	0.03290 0.01590 0.96960 0.02900
C 	C 	0.04550 0.97230 0.01730 -0.14400
H 	H 	0.07640 0.95330 0.02930 0.08400
C 	C 	0.01240 0.95670 0.04750 0.07300
H 	H 	0.02120 0.92710 0.07970 0.02100
C 	C 	0.29090 0.21600 0.75800 0.07400
C 	C 	0.32440 0.25500 0.68240 -0.18100
H 	H 	0.30880 0.21960 0.65280 0.05400
H 	H 	0.33360 0.31470 0.67090 0.07000
H 	H 	0.35180 0.22190 0.70010 -0.00600
C 	C 	0.25900 0.34700 0.70230 0.16600
H 	H 	0.25140 0.37480 0.73280 -0.05900
H 	H 	0.27280 0.39270 0.68340 -0.00200
H 	H 	0.23090 0.32270 0.68030 -0.09600
O 	O 	0.28800 0.21000 0.79200 -0.21900
C 	C 	0.26800 0.25800 0.75500 0.34300
C 	C 	0.28200 0.33700 0.67500 -0.51200
H 	H 	0.24870 0.34550 0.66490 0.16600
H 	H 	0.29670 0.39560 0.68600 0.16000
H 	H 	0.29380 0.31370 0.64570 0.18200
C 	C 	0.33400 0.21100 0.71500 -0.15500
H 	H 	0.34410 0.22510 0.68300 0.15500
H 	H 	0.35890 0.22410 0.74410 0.07400
H 	H 	0.32550 0.14630 0.71510 0.06200
Cd	Cd	0.75000 0.75000 0.50000 1.22600
Cd	Cd	0.25000 0.75000 -0.00000 1.21700
Cd	Cd	0.25000 0.25000 0.50000 1.22600
Cd	Cd	0.75000 0.25000 -0.00000 1.21700
