data_crystal

_cell_length_a 29.03020
_cell_length_b 29.03020
_cell_length_c 29.03020
_cell_angle_alpha 90.00000
_cell_angle_beta  90.00000
_cell_angle_gamma 90.00000

_symmetry_space_group_name_	'P 1'
_symmetry_space_group_name_H-M	'P 1'

loop_
_symmetry_equiv_pos_as_xyz
  x,y,z

loop_
_atom_site_label
_atom_site_type_symbol
_atom_site_fract_x
_atom_site_fract_y
_atom_site_fract_z
_atom_site_charge
C 	C 	0.60560 0.97400 0.17990 0.03700
H 	H 	0.60530 0.95460 0.15450 0.02400
C 	C 	0.65950 0.87430 0.16020 0.01500
H 	H 	0.67600 0.90170 0.15930 0.03300
N 	N 	0.60600 0.96240 0.22250 -0.23200
N 	N 	0.63160 0.86060 0.19460 -0.23900
O 	O 	0.60520 0.96350 0.31740 -0.15200
O 	O 	0.57410 0.75380 0.19350 -0.17100
C 	C 	0.10560 0.47400 0.67990 0.02900
H 	H 	0.10530 0.45460 0.65450 0.02600
C 	C 	0.15950 0.37430 0.66020 0.01500
H 	H 	0.17600 0.40170 0.65930 0.03300
N 	N 	0.10600 0.46240 0.72250 -0.23300
N 	N 	0.13160 0.36060 0.69460 -0.23900
O 	O 	0.10520 0.46350 0.81740 -0.15600
O 	O 	0.07410 0.25380 0.69350 -0.17200
C 	C 	0.39440 0.02600 0.17990 0.02100
H 	H 	0.39470 0.04540 0.15450 0.02800
C 	C 	0.34050 0.12570 0.16020 0.01400
H 	H 	0.32400 0.09830 0.15930 0.03200
N 	N 	0.39400 0.03760 0.22250 -0.23200
N 	N 	0.36840 0.13940 0.19460 -0.23900
O 	O 	0.39480 0.03650 0.31740 -0.15700
O 	O 	0.42590 0.24620 0.19350 -0.17100
C 	C 	0.89440 0.52600 0.67990 0.03000
H 	H 	0.89470 0.54540 0.65450 0.02700
C 	C 	0.84050 0.62570 0.66020 0.01500
H 	H 	0.82400 0.59830 0.65930 0.03300
N 	N 	0.89400 0.53760 0.72250 -0.23300
N 	N 	0.86840 0.63940 0.69460 -0.23900
O 	O 	0.89480 0.53650 0.81740 -0.15500
O 	O 	0.92590 0.74620 0.69350 -0.16900
C 	C 	0.39440 0.97400 0.82010 0.03700
H 	H 	0.39470 0.95460 0.84550 0.02600
C 	C 	0.34050 0.87430 0.83980 0.01600
H 	H 	0.32400 0.90170 0.84070 0.03400
N 	N 	0.39400 0.96240 0.77750 -0.23100
N 	N 	0.36840 0.86060 0.80540 -0.23800
O 	O 	0.39480 0.96350 0.68260 -0.15100
O 	O 	0.42590 0.75380 0.80650 -0.17000
C 	C 	0.89440 0.47400 0.32010 0.03100
H 	H 	0.89470 0.45460 0.34550 0.02800
C 	C 	0.84050 0.37430 0.33980 0.01600
H 	H 	0.82400 0.40170 0.34070 0.03400
N 	N 	0.89400 0.46240 0.27750 -0.23200
N 	N 	0.86840 0.36060 0.30540 -0.23800
O 	O 	0.89480 0.46350 0.18260 -0.15500
O 	O 	0.92590 0.25380 0.30650 -0.16900
C 	C 	0.60560 0.02600 0.82010 0.02300
H 	H 	0.60530 0.04540 0.84550 0.02900
C 	C 	0.65950 0.12570 0.83980 0.01600
H 	H 	0.67600 0.09830 0.84070 0.03400
N 	N 	0.60600 0.03760 0.77750 -0.23100
N 	N 	0.63160 0.13940 0.80540 -0.23800
O 	O 	0.60520 0.03650 0.68260 -0.15600
O 	O 	0.57410 0.24620 0.80650 -0.17000
C 	C 	0.10560 0.52600 0.32010 0.03000
H 	H 	0.10530 0.54540 0.34550 0.02700
C 	C 	0.15950 0.62570 0.33980 0.01600
H 	H 	0.17600 0.59830 0.34070 0.03400
N 	N 	0.10600 0.53760 0.27750 -0.23200
N 	N 	0.13160 0.63940 0.30540 -0.23800
O 	O 	0.10520 0.53650 0.18260 -0.15600
O 	O 	0.07410 0.74620 0.30650 -0.17100
C 	C 	0.17990 0.60560 0.97400 0.03800
H 	H 	0.15450 0.60530 0.95460 0.02500
C 	C 	0.16020 0.65950 0.87430 0.01600
H 	H 	0.15930 0.67600 0.90170 0.03400
N 	N 	0.22250 0.60600 0.96240 -0.23100
N 	N 	0.19460 0.63160 0.86060 -0.23800
O 	O 	0.31740 0.60520 0.96350 -0.15100
O 	O 	0.19350 0.57410 0.75380 -0.17000
C 	C 	0.67990 0.10560 0.47400 0.03000
H 	H 	0.65450 0.10530 0.45460 0.02700
C 	C 	0.66020 0.15950 0.37430 0.01600
H 	H 	0.65930 0.17600 0.40170 0.03400
N 	N 	0.72250 0.10600 0.46240 -0.23200
N 	N 	0.69460 0.13160 0.36060 -0.23800
O 	O 	0.81740 0.10520 0.46350 -0.15500
O 	O 	0.69350 0.07410 0.25380 -0.17100
C 	C 	0.17990 0.39440 0.02600 0.02200
H 	H 	0.15450 0.39470 0.04540 0.02900
C 	C 	0.16020 0.34050 0.12570 0.01500
H 	H 	0.15930 0.32400 0.09830 0.03300
N 	N 	0.22250 0.39400 0.03760 -0.23100
N 	N 	0.19460 0.36840 0.13940 -0.23800
O 	O 	0.31740 0.39480 0.03650 -0.15600
O 	O 	0.19350 0.42590 0.24620 -0.17000
C 	C 	0.67990 0.89440 0.52600 0.03100
H 	H 	0.65450 0.89470 0.54540 0.02800
C 	C 	0.66020 0.84050 0.62570 0.01600
H 	H 	0.65930 0.82400 0.59830 0.03400
N 	N 	0.72250 0.89400 0.53760 -0.23200
N 	N 	0.69460 0.86840 0.63940 -0.23800
O 	O 	0.81740 0.89480 0.53650 -0.15400
O 	O 	0.69350 0.92590 0.74620 -0.16800
C 	C 	0.82010 0.39440 0.97400 0.03800
H 	H 	0.84550 0.39470 0.95460 0.02600
C 	C 	0.83980 0.34050 0.87430 0.01600
H 	H 	0.84070 0.32400 0.90170 0.03400
N 	N 	0.77750 0.39400 0.96240 -0.23100
N 	N 	0.80540 0.36840 0.86060 -0.23800
O 	O 	0.68260 0.39480 0.96350 -0.15100
O 	O 	0.80650 0.42590 0.75380 -0.17000
C 	C 	0.32010 0.89440 0.47400 0.03100
H 	H 	0.34550 0.89470 0.45460 0.02800
C 	C 	0.33980 0.84050 0.37430 0.01600
H 	H 	0.34070 0.82400 0.40170 0.03400
N 	N 	0.27750 0.89400 0.46240 -0.23200
N 	N 	0.30540 0.86840 0.36060 -0.23800
O 	O 	0.18260 0.89480 0.46350 -0.15500
O 	O 	0.30650 0.92590 0.25380 -0.16900
C 	C 	0.82010 0.60560 0.02600 0.02300
H 	H 	0.84550 0.60530 0.04540 0.02900
C 	C 	0.83980 0.65950 0.12570 0.01600
H 	H 	0.84070 0.67600 0.09830 0.03400
N 	N 	0.77750 0.60600 0.03760 -0.23100
N 	N 	0.80540 0.63160 0.13940 -0.23800
O 	O 	0.68260 0.60520 0.03650 -0.15600
O 	O 	0.80650 0.57410 0.24620 -0.17000
C 	C 	0.32010 0.10560 0.52600 0.03000
H 	H 	0.34550 0.10530 0.54540 0.02700
C 	C 	0.33980 0.15950 0.62570 0.01600
H 	H 	0.34070 0.17600 0.59830 0.03400
N 	N 	0.27750 0.10600 0.53760 -0.23200
N 	N 	0.30540 0.13160 0.63940 -0.23800
O 	O 	0.18260 0.10520 0.53650 -0.15600
O 	O 	0.30650 0.07410 0.74620 -0.17100
C 	C 	0.97400 0.17990 0.60560 0.03800
H 	H 	0.95460 0.15450 0.60530 0.02500
C 	C 	0.87430 0.16020 0.65950 0.01600
H 	H 	0.90170 0.15930 0.67600 0.03400
N 	N 	0.96240 0.22250 0.60600 -0.23100
N 	N 	0.86060 0.19460 0.63160 -0.23800
O 	O 	0.96350 0.31740 0.60520 -0.15100
O 	O 	0.75380 0.19350 0.57410 -0.17000
C 	C 	0.47400 0.67990 0.10560 0.03000
H 	H 	0.45460 0.65450 0.10530 0.02700
C 	C 	0.37430 0.66020 0.15950 0.01600
H 	H 	0.40170 0.65930 0.17600 0.03400
N 	N 	0.46240 0.72250 0.10600 -0.23200
N 	N 	0.36060 0.69460 0.13160 -0.23800
O 	O 	0.46350 0.81740 0.10520 -0.15500
O 	O 	0.25380 0.69350 0.07410 -0.17100
C 	C 	0.02600 0.17990 0.39440 0.02200
H 	H 	0.04540 0.15450 0.39470 0.02900
C 	C 	0.12570 0.16020 0.34050 0.01500
H 	H 	0.09830 0.15930 0.32400 0.03300
N 	N 	0.03760 0.22250 0.39400 -0.23100
N 	N 	0.13940 0.19460 0.36840 -0.23800
O 	O 	0.03650 0.31740 0.39480 -0.15600
O 	O 	0.24620 0.19350 0.42590 -0.17000
C 	C 	0.52600 0.67990 0.89440 0.03100
H 	H 	0.54540 0.65450 0.89470 0.02800
C 	C 	0.62570 0.66020 0.84050 0.01600
H 	H 	0.59830 0.65930 0.82400 0.03400
N 	N 	0.53760 0.72250 0.89400 -0.23200
N 	N 	0.63940 0.69460 0.86840 -0.23800
O 	O 	0.53650 0.81740 0.89480 -0.15400
O 	O 	0.74620 0.69350 0.92590 -0.16800
C 	C 	0.97400 0.82010 0.39440 0.03800
H 	H 	0.95460 0.84550 0.39470 0.02600
C 	C 	0.87430 0.83980 0.34050 0.01600
H 	H 	0.90170 0.84070 0.32400 0.03400
N 	N 	0.96240 0.77750 0.39400 -0.23100
N 	N 	0.86060 0.80540 0.36840 -0.23800
O 	O 	0.96350 0.68260 0.39480 -0.15100
O 	O 	0.75380 0.80650 0.42590 -0.17000
C 	C 	0.47400 0.32010 0.89440 0.03100
H 	H 	0.45460 0.34550 0.89470 0.02800
C 	C 	0.37430 0.33980 0.84050 0.01600
H 	H 	0.40170 0.34070 0.82400 0.03400
N 	N 	0.46240 0.27750 0.89400 -0.23200
N 	N 	0.36060 0.30540 0.86840 -0.23800
O 	O 	0.46350 0.18260 0.89480 -0.15500
O 	O 	0.25380 0.30650 0.92590 -0.16900
C 	C 	0.02600 0.82010 0.60560 0.02300
H 	H 	0.04540 0.84550 0.60530 0.02900
C 	C 	0.12570 0.83980 0.65950 0.01600
H 	H 	0.09830 0.84070 0.67600 0.03400
N 	N 	0.03760 0.77750 0.60600 -0.23100
N 	N 	0.13940 0.80540 0.63160 -0.23800
O 	O 	0.03650 0.68260 0.60520 -0.15600
O 	O 	0.24620 0.80650 0.57410 -0.17000
C 	C 	0.52600 0.32010 0.10560 0.03000
H 	H 	0.54540 0.34550 0.10530 0.02700
C 	C 	0.62570 0.33980 0.15950 0.01600
H 	H 	0.59830 0.34070 0.17600 0.03400
N 	N 	0.53760 0.27750 0.10600 -0.23200
N 	N 	0.63940 0.30540 0.13160 -0.23800
O 	O 	0.53650 0.18260 0.10520 -0.15600
O 	O 	0.74620 0.30650 0.07410 -0.17100
C 	C 	0.97400 0.60560 0.82010 0.03800
H 	H 	0.95460 0.60530 0.84550 0.02600
C 	C 	0.87430 0.65950 0.83980 0.01600
H 	H 	0.90170 0.67600 0.84070 0.03500
N 	N 	0.96240 0.60600 0.77750 -0.23100
N 	N 	0.86060 0.63160 0.80540 -0.23800
O 	O 	0.96350 0.60520 0.68260 -0.15100
O 	O 	0.75380 0.57410 0.80650 -0.17000
C 	C 	0.47400 0.10560 0.32010 0.03000
H 	H 	0.45460 0.10530 0.34550 0.02700
C 	C 	0.37430 0.15950 0.33980 0.01600
H 	H 	0.40170 0.17600 0.34070 0.03400
N 	N 	0.46240 0.10600 0.27750 -0.23200
N 	N 	0.36060 0.13160 0.30540 -0.23800
O 	O 	0.46350 0.10520 0.18260 -0.15600
O 	O 	0.25380 0.07410 0.30650 -0.17100
C 	C 	0.02600 0.39440 0.82010 0.02300
H 	H 	0.04540 0.39470 0.84550 0.02900
C 	C 	0.12570 0.34050 0.83980 0.01600
H 	H 	0.09830 0.32400 0.84070 0.03300
N 	N 	0.03760 0.39400 0.77750 -0.23100
N 	N 	0.13940 0.36840 0.80540 -0.23800
O 	O 	0.03650 0.39480 0.68260 -0.15600
O 	O 	0.24620 0.42590 0.80650 -0.17000
C 	C 	0.52600 0.89440 0.32010 0.03100
H 	H 	0.54540 0.89470 0.34550 0.02800
C 	C 	0.62570 0.84050 0.33980 0.01600
H 	H 	0.59830 0.82400 0.34070 0.03400
N 	N 	0.53760 0.89400 0.27750 -0.23200
N 	N 	0.63940 0.86840 0.30540 -0.23800
O 	O 	0.53650 0.89480 0.18260 -0.15500
O 	O 	0.74620 0.92590 0.30650 -0.16800
C 	C 	0.97400 0.39440 0.17990 0.03800
H 	H 	0.95460 0.39470 0.15450 0.02500
C 	C 	0.87430 0.34050 0.16020 0.01500
H 	H 	0.90170 0.32400 0.15930 0.03400
N 	N 	0.96240 0.39400 0.22250 -0.23100
N 	N 	0.86060 0.36840 0.19460 -0.23800
O 	O 	0.96350 0.39480 0.31740 -0.15100
O 	O 	0.75380 0.42590 0.19350 -0.17000
C 	C 	0.47400 0.89440 0.67990 0.03100
H 	H 	0.45460 0.89470 0.65450 0.02800
C 	C 	0.37430 0.84050 0.66020 0.01600
H 	H 	0.40170 0.82400 0.65930 0.03400
N 	N 	0.46240 0.89400 0.72250 -0.23200
N 	N 	0.36060 0.86840 0.69460 -0.23800
O 	O 	0.46350 0.89480 0.81740 -0.15400
O 	O 	0.25380 0.92590 0.69350 -0.16900
C 	C 	0.02600 0.60560 0.17990 0.02200
H 	H 	0.04540 0.60530 0.15450 0.02900
C 	C 	0.12570 0.65950 0.16020 0.01500
H 	H 	0.09830 0.67600 0.15930 0.03300
N 	N 	0.03760 0.60600 0.22250 -0.23100
N 	N 	0.13940 0.63160 0.19460 -0.23800
O 	O 	0.03650 0.60520 0.31740 -0.15600
O 	O 	0.24620 0.57410 0.19350 -0.17000
C 	C 	0.52600 0.10560 0.67990 0.03000
H 	H 	0.54540 0.10530 0.65450 0.02700
C 	C 	0.62570 0.15950 0.66020 0.01600
H 	H 	0.59830 0.17600 0.65930 0.03400
N 	N 	0.53760 0.10600 0.72250 -0.23200
N 	N 	0.63940 0.13160 0.69460 -0.23800
O 	O 	0.53650 0.10520 0.81740 -0.15500
O 	O 	0.74620 0.07410 0.69350 -0.17000
C 	C 	0.60560 0.17990 0.02600 0.02200
H 	H 	0.60530 0.15450 0.04540 0.02900
C 	C 	0.65950 0.16020 0.12570 0.01500
H 	H 	0.67600 0.15930 0.09830 0.03300
N 	N 	0.60600 0.22250 0.03760 -0.23100
N 	N 	0.63160 0.19460 0.13940 -0.23800
O 	O 	0.60520 0.31740 0.03650 -0.15600
O 	O 	0.57410 0.19350 0.24620 -0.17000
C 	C 	0.10560 0.67990 0.52600 0.03000
H 	H 	0.10530 0.65450 0.54540 0.02700
C 	C 	0.15950 0.66020 0.62570 0.01600
H 	H 	0.17600 0.65930 0.59830 0.03400
N 	N 	0.10600 0.72250 0.53760 -0.23200
N 	N 	0.13160 0.69460 0.63940 -0.23800
O 	O 	0.10520 0.81740 0.53650 -0.15500
O 	O 	0.07410 0.69350 0.74620 -0.17000
C 	C 	0.39440 0.17990 0.97400 0.03800
H 	H 	0.39470 0.15450 0.95460 0.02500
C 	C 	0.34050 0.16020 0.87430 0.01500
H 	H 	0.32400 0.15930 0.90170 0.03400
N 	N 	0.39400 0.22250 0.96240 -0.23100
N 	N 	0.36840 0.19460 0.86060 -0.23800
O 	O 	0.39480 0.31740 0.96350 -0.15100
O 	O 	0.42590 0.19350 0.75380 -0.17000
C 	C 	0.89440 0.67990 0.47400 0.03100
H 	H 	0.89470 0.65450 0.45460 0.02800
C 	C 	0.84050 0.66020 0.37430 0.01600
H 	H 	0.82400 0.65930 0.40170 0.03400
N 	N 	0.89400 0.72250 0.46240 -0.23200
N 	N 	0.86840 0.69460 0.36060 -0.23800
O 	O 	0.89480 0.81740 0.46350 -0.15400
O 	O 	0.92590 0.69350 0.25380 -0.16900
C 	C 	0.39440 0.82010 0.02600 0.02300
H 	H 	0.39470 0.84550 0.04540 0.02900
C 	C 	0.34050 0.83980 0.12570 0.01600
H 	H 	0.32400 0.84070 0.09830 0.03300
N 	N 	0.39400 0.77750 0.03760 -0.23100
N 	N 	0.36840 0.80540 0.13940 -0.23800
O 	O 	0.39480 0.68260 0.03650 -0.15600
O 	O 	0.42590 0.80650 0.24620 -0.17000
C 	C 	0.89440 0.32010 0.52600 0.03100
H 	H 	0.89470 0.34550 0.54540 0.02800
C 	C 	0.84050 0.33980 0.62570 0.01600
H 	H 	0.82400 0.34070 0.59830 0.03400
N 	N 	0.89400 0.27750 0.53760 -0.23200
N 	N 	0.86840 0.30540 0.63940 -0.23800
O 	O 	0.89480 0.18260 0.53650 -0.15500
O 	O 	0.92590 0.30650 0.74620 -0.16800
C 	C 	0.60560 0.82010 0.97400 0.03800
H 	H 	0.60530 0.84550 0.95460 0.02600
C 	C 	0.65950 0.83980 0.87430 0.01600
H 	H 	0.67600 0.84070 0.90170 0.03500
N 	N 	0.60600 0.77750 0.96240 -0.23100
N 	N 	0.63160 0.80540 0.86060 -0.23800
O 	O 	0.60520 0.68260 0.96350 -0.15100
O 	O 	0.57410 0.80650 0.75380 -0.17000
C 	C 	0.10560 0.32010 0.47400 0.03000
H 	H 	0.10530 0.34550 0.45460 0.02700
C 	C 	0.15950 0.33980 0.37430 0.01600
H 	H 	0.17600 0.34070 0.40170 0.03400
N 	N 	0.10600 0.27750 0.46240 -0.23200
N 	N 	0.13160 0.30540 0.36060 -0.23800
O 	O 	0.10520 0.18260 0.46350 -0.15600
O 	O 	0.07410 0.30650 0.25380 -0.17100
C 	C 	0.17990 0.97400 0.39440 0.03800
H 	H 	0.15450 0.95460 0.39470 0.02500
C 	C 	0.16020 0.87430 0.34050 0.01500
H 	H 	0.15930 0.90170 0.32400 0.03400
N 	N 	0.22250 0.96240 0.39400 -0.23100
N 	N 	0.19460 0.86060 0.36840 -0.23800
O 	O 	0.31740 0.96350 0.39480 -0.15100
O 	O 	0.19350 0.75380 0.42590 -0.17000
C 	C 	0.67990 0.47400 0.89440 0.03100
H 	H 	0.65450 0.45460 0.89470 0.02800
C 	C 	0.66020 0.37430 0.84050 0.01600
H 	H 	0.65930 0.40170 0.82400 0.03400
N 	N 	0.72250 0.46240 0.89400 -0.23200
N 	N 	0.69460 0.36060 0.86840 -0.23800
O 	O 	0.81740 0.46350 0.89480 -0.15400
O 	O 	0.69350 0.25380 0.92590 -0.16900
C 	C 	0.17990 0.02600 0.60560 0.02200
H 	H 	0.15450 0.04540 0.60530 0.02900
C 	C 	0.16020 0.12570 0.65950 0.01500
H 	H 	0.15930 0.09830 0.67600 0.03300
N 	N 	0.22250 0.03760 0.60600 -0.23100
N 	N 	0.19460 0.13940 0.63160 -0.23800
O 	O 	0.31740 0.03650 0.60520 -0.15600
O 	O 	0.19350 0.24620 0.57410 -0.17000
C 	C 	0.67990 0.52600 0.10560 0.03000
H 	H 	0.65450 0.54540 0.10530 0.02700
C 	C 	0.66020 0.62570 0.15950 0.01600
H 	H 	0.65930 0.59830 0.17600 0.03400
N 	N 	0.72250 0.53760 0.10600 -0.23200
N 	N 	0.69460 0.63940 0.13160 -0.23800
O 	O 	0.81740 0.53650 0.10520 -0.15500
O 	O 	0.69350 0.74620 0.07410 -0.17000
C 	C 	0.82010 0.97400 0.60560 0.03800
H 	H 	0.84550 0.95460 0.60530 0.02600
C 	C 	0.83980 0.87430 0.65950 0.01600
H 	H 	0.84070 0.90170 0.67600 0.03500
N 	N 	0.77750 0.96240 0.60600 -0.23100
N 	N 	0.80540 0.86060 0.63160 -0.23800
O 	O 	0.68260 0.96350 0.60520 -0.15100
O 	O 	0.80650 0.75380 0.57410 -0.17000
C 	C 	0.32010 0.47400 0.10560 0.03000
H 	H 	0.34550 0.45460 0.10530 0.02700
C 	C 	0.33980 0.37430 0.15950 0.01600
H 	H 	0.34070 0.40170 0.17600 0.03400
N 	N 	0.27750 0.46240 0.10600 -0.23200
N 	N 	0.30540 0.36060 0.13160 -0.23800
O 	O 	0.18260 0.46350 0.10520 -0.15600
O 	O 	0.30650 0.25380 0.07410 -0.17100
C 	C 	0.82010 0.02600 0.39440 0.02300
H 	H 	0.84550 0.04540 0.39470 0.02900
C 	C 	0.83980 0.12570 0.34050 0.01600
H 	H 	0.84070 0.09830 0.32400 0.03300
N 	N 	0.77750 0.03760 0.39400 -0.23100
N 	N 	0.80540 0.13940 0.36840 -0.23800
O 	O 	0.68260 0.03650 0.39480 -0.15600
O 	O 	0.80650 0.24620 0.42590 -0.17000
C 	C 	0.32010 0.52600 0.89440 0.03100
H 	H 	0.34550 0.54540 0.89470 0.02800
C 	C 	0.33980 0.62570 0.84050 0.01600
H 	H 	0.34070 0.59830 0.82400 0.03400
N 	N 	0.27750 0.53760 0.89400 -0.23200
N 	N 	0.30540 0.63940 0.86840 -0.23800
O 	O 	0.18260 0.53650 0.89480 -0.15500
O 	O 	0.30650 0.74620 0.92590 -0.16800
C 	C 	0.39440 0.02600 0.82010 0.02300
H 	H 	0.39470 0.04540 0.84550 0.02900
C 	C 	0.34050 0.12570 0.83980 0.01600
H 	H 	0.32400 0.09830 0.84070 0.03300
N 	N 	0.39400 0.03760 0.77750 -0.23100
N 	N 	0.36840 0.13940 0.80540 -0.23800
O 	O 	0.39480 0.03650 0.68260 -0.15600
O 	O 	0.42590 0.24620 0.80650 -0.17000
C 	C 	0.89440 0.52600 0.32010 0.03100
H 	H 	0.89470 0.54540 0.34550 0.02800
C 	C 	0.84050 0.62570 0.33980 0.01600
H 	H 	0.82400 0.59830 0.34070 0.03400
N 	N 	0.89400 0.53760 0.27750 -0.23200
N 	N 	0.86840 0.63940 0.30540 -0.23800
O 	O 	0.89480 0.53650 0.18260 -0.15500
O 	O 	0.92590 0.74620 0.30650 -0.16800
C 	C 	0.60560 0.97400 0.82010 0.03800
H 	H 	0.60530 0.95460 0.84550 0.02600
C 	C 	0.65950 0.87430 0.83980 0.01600
H 	H 	0.67600 0.90170 0.84070 0.03500
N 	N 	0.60600 0.96240 0.77750 -0.23100
N 	N 	0.63160 0.86060 0.80540 -0.23800
O 	O 	0.60520 0.96350 0.68260 -0.15100
O 	O 	0.57410 0.75380 0.80650 -0.17000
C 	C 	0.10560 0.47400 0.32010 0.03000
H 	H 	0.10530 0.45460 0.34550 0.02700
C 	C 	0.15950 0.37430 0.33980 0.01600
H 	H 	0.17600 0.40170 0.34070 0.03400
N 	N 	0.10600 0.46240 0.27750 -0.23200
N 	N 	0.13160 0.36060 0.30540 -0.23800
O 	O 	0.10520 0.46350 0.18260 -0.15600
O 	O 	0.07410 0.25380 0.30650 -0.17100
C 	C 	0.60560 0.02600 0.17990 0.02200
H 	H 	0.60530 0.04540 0.15450 0.02900
C 	C 	0.65950 0.12570 0.16020 0.01500
H 	H 	0.67600 0.09830 0.15930 0.03300
N 	N 	0.60600 0.03760 0.22250 -0.23100
N 	N 	0.63160 0.13940 0.19460 -0.23800
O 	O 	0.60520 0.03650 0.31740 -0.15600
O 	O 	0.57410 0.24620 0.19350 -0.17000
C 	C 	0.10560 0.52600 0.67990 0.03000
H 	H 	0.10530 0.54540 0.65450 0.02700
C 	C 	0.15950 0.62570 0.66020 0.01600
H 	H 	0.17600 0.59830 0.65930 0.03400
N 	N 	0.10600 0.53760 0.72250 -0.23200
N 	N 	0.13160 0.63940 0.69460 -0.23800
O 	O 	0.10520 0.53650 0.81740 -0.15500
O 	O 	0.07410 0.74620 0.69350 -0.17000
C 	C 	0.39440 0.97400 0.17990 0.03800
H 	H 	0.39470 0.95460 0.15450 0.02500
C 	C 	0.34050 0.87430 0.16020 0.01500
H 	H 	0.32400 0.90170 0.15930 0.03400
N 	N 	0.39400 0.96240 0.22250 -0.23100
N 	N 	0.36840 0.86060 0.19460 -0.23800
O 	O 	0.39480 0.96350 0.31740 -0.15100
O 	O 	0.42590 0.75380 0.19350 -0.17000
C 	C 	0.89440 0.47400 0.67990 0.03100
H 	H 	0.89470 0.45460 0.65450 0.02800
C 	C 	0.84050 0.37430 0.66020 0.01600
H 	H 	0.82400 0.40170 0.65930 0.03400
N 	N 	0.89400 0.46240 0.72250 -0.23200
N 	N 	0.86840 0.36060 0.69460 -0.23800
O 	O 	0.89480 0.46350 0.81740 -0.15400
O 	O 	0.92590 0.25380 0.69350 -0.16900
C 	C 	0.82010 0.39440 0.02600 0.02300
H 	H 	0.84550 0.39470 0.04540 0.02900
C 	C 	0.83980 0.34050 0.12570 0.01600
H 	H 	0.84070 0.32400 0.09830 0.03300
N 	N 	0.77750 0.39400 0.03760 -0.23100
N 	N 	0.80540 0.36840 0.13940 -0.23800
O 	O 	0.68260 0.39480 0.03650 -0.15600
O 	O 	0.80650 0.42590 0.24620 -0.17000
C 	C 	0.32010 0.89440 0.52600 0.03100
H 	H 	0.34550 0.89470 0.54540 0.02800
C 	C 	0.33980 0.84050 0.62570 0.01600
H 	H 	0.34070 0.82400 0.59830 0.03400
N 	N 	0.27750 0.89400 0.53760 -0.23200
N 	N 	0.30540 0.86840 0.63940 -0.23800
O 	O 	0.18260 0.89480 0.53650 -0.15500
O 	O 	0.30650 0.92590 0.74620 -0.16800
C 	C 	0.82010 0.60560 0.97400 0.03800
H 	H 	0.84550 0.60530 0.95460 0.02600
C 	C 	0.83980 0.65950 0.87430 0.01600
H 	H 	0.84070 0.67600 0.90170 0.03500
N 	N 	0.77750 0.60600 0.96240 -0.23100
N 	N 	0.80540 0.63160 0.86060 -0.23800
O 	O 	0.68260 0.60520 0.96350 -0.15100
O 	O 	0.80650 0.57410 0.75380 -0.17000
C 	C 	0.32010 0.10560 0.47400 0.03000
H 	H 	0.34550 0.10530 0.45460 0.02700
C 	C 	0.33980 0.15950 0.37430 0.01600
H 	H 	0.34070 0.17600 0.40170 0.03400
N 	N 	0.27750 0.10600 0.46240 -0.23200
N 	N 	0.30540 0.13160 0.36060 -0.23800
O 	O 	0.18260 0.10520 0.46350 -0.15600
O 	O 	0.30650 0.07410 0.25380 -0.17100
C 	C 	0.17990 0.60560 0.02600 0.02200
H 	H 	0.15450 0.60530 0.04540 0.02900
C 	C 	0.16020 0.65950 0.12570 0.01500
H 	H 	0.15930 0.67600 0.09830 0.03300
N 	N 	0.22250 0.60600 0.03760 -0.23100
N 	N 	0.19460 0.63160 0.13940 -0.23800
O 	O 	0.31740 0.60520 0.03650 -0.15600
O 	O 	0.19350 0.57410 0.24620 -0.17000
C 	C 	0.67990 0.10560 0.52600 0.03000
H 	H 	0.65450 0.10530 0.54540 0.02700
C 	C 	0.66020 0.15950 0.62570 0.01600
H 	H 	0.65930 0.17600 0.59830 0.03400
N 	N 	0.72250 0.10600 0.53760 -0.23200
N 	N 	0.69460 0.13160 0.63940 -0.23800
O 	O 	0.81740 0.10520 0.53650 -0.15500
O 	O 	0.69350 0.07410 0.74620 -0.17000
C 	C 	0.17990 0.39440 0.97400 0.03800
H 	H 	0.15450 0.39470 0.95460 0.02500
C 	C 	0.16020 0.34050 0.87430 0.01500
H 	H 	0.15930 0.32400 0.90170 0.03400
N 	N 	0.22250 0.39400 0.96240 -0.23100
N 	N 	0.19460 0.36840 0.86060 -0.23800
O 	O 	0.31740 0.39480 0.96350 -0.15100
O 	O 	0.19350 0.42590 0.75380 -0.17000
C 	C 	0.67990 0.89440 0.47400 0.03100
H 	H 	0.65450 0.89470 0.45460 0.02800
C 	C 	0.66020 0.84050 0.37430 0.01600
H 	H 	0.65930 0.82400 0.40170 0.03400
N 	N 	0.72250 0.89400 0.46240 -0.23200
N 	N 	0.69460 0.86840 0.36060 -0.23800
O 	O 	0.81740 0.89480 0.46350 -0.15400
O 	O 	0.69350 0.92590 0.25380 -0.16900
C 	C 	0.02600 0.82010 0.39440 0.02300
H 	H 	0.04540 0.84550 0.39470 0.02900
C 	C 	0.12570 0.83980 0.34050 0.01600
H 	H 	0.09830 0.84070 0.32400 0.03300
N 	N 	0.03760 0.77750 0.39400 -0.23100
N 	N 	0.13940 0.80540 0.36840 -0.23800
O 	O 	0.03650 0.68260 0.39480 -0.15600
O 	O 	0.24620 0.80650 0.42590 -0.17000
C 	C 	0.52600 0.32010 0.89440 0.03100
H 	H 	0.54540 0.34550 0.89470 0.02800
C 	C 	0.62570 0.33980 0.84050 0.01600
H 	H 	0.59830 0.34070 0.82400 0.03400
N 	N 	0.53760 0.27750 0.89400 -0.23200
N 	N 	0.63940 0.30540 0.86840 -0.23800
O 	O 	0.53650 0.18260 0.89480 -0.15500
O 	O 	0.74620 0.30650 0.92590 -0.16800
C 	C 	0.97400 0.82010 0.60560 0.03800
H 	H 	0.95460 0.84550 0.60530 0.02600
C 	C 	0.87430 0.83980 0.65950 0.01600
H 	H 	0.90170 0.84070 0.67600 0.03500
N 	N 	0.96240 0.77750 0.60600 -0.23100
N 	N 	0.86060 0.80540 0.63160 -0.23800
O 	O 	0.96350 0.68260 0.60520 -0.15100
O 	O 	0.75380 0.80650 0.57410 -0.17000
C 	C 	0.47400 0.32010 0.10560 0.03000
H 	H 	0.45460 0.34550 0.10530 0.02700
C 	C 	0.37430 0.33980 0.15950 0.01600
H 	H 	0.40170 0.34070 0.17600 0.03400
N 	N 	0.46240 0.27750 0.10600 -0.23200
N 	N 	0.36060 0.30540 0.13160 -0.23800
O 	O 	0.46350 0.18260 0.10520 -0.15600
O 	O 	0.25380 0.30650 0.07410 -0.17100
C 	C 	0.02600 0.17990 0.60560 0.02200
H 	H 	0.04540 0.15450 0.60530 0.02900
C 	C 	0.12570 0.16020 0.65950 0.01500
H 	H 	0.09830 0.15930 0.67600 0.03300
N 	N 	0.03760 0.22250 0.60600 -0.23100
N 	N 	0.13940 0.19460 0.63160 -0.23800
O 	O 	0.03650 0.31740 0.60520 -0.15600
O 	O 	0.24620 0.19350 0.57410 -0.17000
C 	C 	0.52600 0.67990 0.10560 0.03000
H 	H 	0.54540 0.65450 0.10530 0.02700
C 	C 	0.62570 0.66020 0.15950 0.01600
H 	H 	0.59830 0.65930 0.17600 0.03400
N 	N 	0.53760 0.72250 0.10600 -0.23200
N 	N 	0.63940 0.69460 0.13160 -0.23800
O 	O 	0.53650 0.81740 0.10520 -0.15500
O 	O 	0.74620 0.69350 0.07410 -0.17000
C 	C 	0.97400 0.17990 0.39440 0.03800
H 	H 	0.95460 0.15450 0.39470 0.02500
C 	C 	0.87430 0.16020 0.34050 0.01500
H 	H 	0.90170 0.15930 0.32400 0.03400
N 	N 	0.96240 0.22250 0.39400 -0.23100
N 	N 	0.86060 0.19460 0.36840 -0.23800
O 	O 	0.96350 0.31740 0.39480 -0.15100
O 	O 	0.75380 0.19350 0.42590 -0.17000
C 	C 	0.47400 0.67990 0.89440 0.03100
H 	H 	0.45460 0.65450 0.89470 0.02800
C 	C 	0.37430 0.66020 0.84050 0.01600
H 	H 	0.40170 0.65930 0.82400 0.03400
N 	N 	0.46240 0.72250 0.89400 -0.23200
N 	N 	0.36060 0.69460 0.86840 -0.23800
O 	O 	0.46350 0.81740 0.89480 -0.15400
O 	O 	0.25380 0.69350 0.92590 -0.16900
C 	C 	0.02600 0.39440 0.17990 0.02200
H 	H 	0.04540 0.39470 0.15450 0.02900
C 	C 	0.12570 0.34050 0.16020 0.01500
H 	H 	0.09830 0.32400 0.15930 0.03300
N 	N 	0.03760 0.39400 0.22250 -0.23100
N 	N 	0.13940 0.36840 0.19460 -0.23800
O 	O 	0.03650 0.39480 0.31740 -0.15600
O 	O 	0.24620 0.42590 0.19350 -0.17000
C 	C 	0.52600 0.89440 0.67990 0.03100
H 	H 	0.54540 0.89470 0.65450 0.02800
C 	C 	0.62570 0.84050 0.66020 0.01600
H 	H 	0.59830 0.82400 0.65930 0.03400
N 	N 	0.53760 0.89400 0.72250 -0.23200
N 	N 	0.63940 0.86840 0.69460 -0.23800
O 	O 	0.53650 0.89480 0.81740 -0.15400
O 	O 	0.74620 0.92590 0.69350 -0.16800
C 	C 	0.97400 0.60560 0.17990 0.03800
H 	H 	0.95460 0.60530 0.15450 0.02500
C 	C 	0.87430 0.65950 0.16020 0.01600
H 	H 	0.90170 0.67600 0.15930 0.03400
N 	N 	0.96240 0.60600 0.22250 -0.23100
N 	N 	0.86060 0.63160 0.19460 -0.23800
O 	O 	0.96350 0.60520 0.31740 -0.15100
O 	O 	0.75380 0.57410 0.19350 -0.17000
C 	C 	0.47400 0.10560 0.67990 0.03000
H 	H 	0.45460 0.10530 0.65450 0.02700
C 	C 	0.37430 0.15950 0.66020 0.01600
H 	H 	0.40170 0.17600 0.65930 0.03400
N 	N 	0.46240 0.10600 0.72250 -0.23200
N 	N 	0.36060 0.13160 0.69460 -0.23800
O 	O 	0.46350 0.10520 0.81740 -0.15500
O 	O 	0.25380 0.07410 0.69350 -0.17100
C 	C 	0.02600 0.60560 0.82010 0.02300
H 	H 	0.04540 0.60530 0.84550 0.02900
C 	C 	0.12570 0.65950 0.83980 0.01600
H 	H 	0.09830 0.67600 0.84070 0.03400
N 	N 	0.03760 0.60600 0.77750 -0.23100
N 	N 	0.13940 0.63160 0.80540 -0.23800
O 	O 	0.03650 0.60520 0.68260 -0.15600
O 	O 	0.24620 0.57410 0.80650 -0.17000
C 	C 	0.52600 0.10560 0.32010 0.03000
H 	H 	0.54540 0.10530 0.34550 0.02700
C 	C 	0.62570 0.15950 0.33980 0.01600
H 	H 	0.59830 0.17600 0.34070 0.03400
N 	N 	0.53760 0.10600 0.27750 -0.23200
N 	N 	0.63940 0.13160 0.30540 -0.23800
O 	O 	0.53650 0.10520 0.18260 -0.15600
O 	O 	0.74620 0.07410 0.30650 -0.17100
C 	C 	0.97400 0.39440 0.82010 0.03800
H 	H 	0.95460 0.39470 0.84550 0.02600
C 	C 	0.87430 0.34050 0.83980 0.01600
H 	H 	0.90170 0.32400 0.84070 0.03400
N 	N 	0.96240 0.39400 0.77750 -0.23100
N 	N 	0.86060 0.36840 0.80540 -0.23800
O 	O 	0.96350 0.39480 0.68260 -0.15100
O 	O 	0.75380 0.42590 0.80650 -0.17000
C 	C 	0.47400 0.89440 0.32010 0.03100
H 	H 	0.45460 0.89470 0.34550 0.02800
C 	C 	0.37430 0.84050 0.33980 0.01600
H 	H 	0.40170 0.82400 0.34070 0.03400
N 	N 	0.46240 0.89400 0.27750 -0.23200
N 	N 	0.36060 0.86840 0.30540 -0.23800
O 	O 	0.46350 0.89480 0.18260 -0.15500
O 	O 	0.25380 0.92590 0.30650 -0.16900
C 	C 	0.39440 0.82010 0.97400 0.03800
H 	H 	0.39470 0.84550 0.95460 0.02600
C 	C 	0.34050 0.83980 0.87430 0.01600
H 	H 	0.32400 0.84070 0.90170 0.03400
N 	N 	0.39400 0.77750 0.96240 -0.23100
N 	N 	0.36840 0.80540 0.86060 -0.23800
O 	O 	0.39480 0.68260 0.96350 -0.15100
O 	O 	0.42590 0.80650 0.75380 -0.17000
C 	C 	0.89440 0.32010 0.47400 0.03100
H 	H 	0.89470 0.34550 0.45460 0.02800
C 	C 	0.84050 0.33980 0.37430 0.01600
H 	H 	0.82400 0.34070 0.40170 0.03400
N 	N 	0.89400 0.27750 0.46240 -0.23200
N 	N 	0.86840 0.30540 0.36060 -0.23800
O 	O 	0.89480 0.18260 0.46350 -0.15500
O 	O 	0.92590 0.30650 0.25380 -0.16900
C 	C 	0.60560 0.82010 0.02600 0.02300
H 	H 	0.60530 0.84550 0.04540 0.02900
C 	C 	0.65950 0.83980 0.12570 0.01600
H 	H 	0.67600 0.84070 0.09830 0.03400
N 	N 	0.60600 0.77750 0.03760 -0.23100
N 	N 	0.63160 0.80540 0.13940 -0.23800
O 	O 	0.60520 0.68260 0.03650 -0.15600
O 	O 	0.57410 0.80650 0.24620 -0.17000
C 	C 	0.10560 0.32010 0.52600 0.03000
H 	H 	0.10530 0.34550 0.54540 0.02700
C 	C 	0.15950 0.33980 0.62570 0.01600
H 	H 	0.17600 0.34070 0.59830 0.03400
N 	N 	0.10600 0.27750 0.53760 -0.23200
N 	N 	0.13160 0.30540 0.63940 -0.23800
O 	O 	0.10520 0.18260 0.53650 -0.15600
O 	O 	0.07410 0.30650 0.74620 -0.17100
C 	C 	0.60560 0.17990 0.97400 0.03800
H 	H 	0.60530 0.15450 0.95460 0.02500
C 	C 	0.65950 0.16020 0.87430 0.01600
H 	H 	0.67600 0.15930 0.90170 0.03400
N 	N 	0.60600 0.22250 0.96240 -0.23100
N 	N 	0.63160 0.19460 0.86060 -0.23800
O 	O 	0.60520 0.31740 0.96350 -0.15100
O 	O 	0.57410 0.19350 0.75380 -0.17000
C 	C 	0.10560 0.67990 0.47400 0.03000
H 	H 	0.10530 0.65450 0.45460 0.02700
C 	C 	0.15950 0.66020 0.37430 0.01600
H 	H 	0.17600 0.65930 0.40170 0.03400
N 	N 	0.10600 0.72250 0.46240 -0.23200
N 	N 	0.13160 0.69460 0.36060 -0.23800
O 	O 	0.10520 0.81740 0.46350 -0.15500
O 	O 	0.07410 0.69350 0.25380 -0.17100
C 	C 	0.39440 0.17990 0.02600 0.02200
H 	H 	0.39470 0.15450 0.04540 0.02900
C 	C 	0.34050 0.16020 0.12570 0.01500
H 	H 	0.32400 0.15930 0.09830 0.03300
N 	N 	0.39400 0.22250 0.03760 -0.23100
N 	N 	0.36840 0.19460 0.13940 -0.23800
O 	O 	0.39480 0.31740 0.03650 -0.15600
O 	O 	0.42590 0.19350 0.24620 -0.17000
C 	C 	0.89440 0.67990 0.52600 0.03100
H 	H 	0.89470 0.65450 0.54540 0.02800
C 	C 	0.84050 0.66020 0.62570 0.01600
H 	H 	0.82400 0.65930 0.59830 0.03400
N 	N 	0.89400 0.72250 0.53760 -0.23200
N 	N 	0.86840 0.69460 0.63940 -0.23800
O 	O 	0.89480 0.81740 0.53650 -0.15400
O 	O 	0.92590 0.69350 0.74620 -0.16800
C 	C 	0.82010 0.02600 0.60560 0.02300
H 	H 	0.84550 0.04540 0.60530 0.02900
C 	C 	0.83980 0.12570 0.65950 0.01600
H 	H 	0.84070 0.09830 0.67600 0.03400
N 	N 	0.77750 0.03760 0.60600 -0.23100
N 	N 	0.80540 0.13940 0.63160 -0.23800
O 	O 	0.68260 0.03650 0.60520 -0.15600
O 	O 	0.80650 0.24620 0.57410 -0.17000
C 	C 	0.32010 0.52600 0.10560 0.03000
H 	H 	0.34550 0.54540 0.10530 0.02700
C 	C 	0.33980 0.62570 0.15950 0.01600
H 	H 	0.34070 0.59830 0.17600 0.03400
N 	N 	0.27750 0.53760 0.10600 -0.23200
N 	N 	0.30540 0.63940 0.13160 -0.23800
O 	O 	0.18260 0.53650 0.10520 -0.15600
O 	O 	0.30650 0.74620 0.07410 -0.17100
C 	C 	0.82010 0.97400 0.39440 0.03800
H 	H 	0.84550 0.95460 0.39470 0.02600
C 	C 	0.83980 0.87430 0.34050 0.01600
H 	H 	0.84070 0.90170 0.32400 0.03400
N 	N 	0.77750 0.96240 0.39400 -0.23100
N 	N 	0.80540 0.86060 0.36840 -0.23800
O 	O 	0.68260 0.96350 0.39480 -0.15100
O 	O 	0.80650 0.75380 0.42590 -0.17000
C 	C 	0.32010 0.47400 0.89440 0.03100
H 	H 	0.34550 0.45460 0.89470 0.02800
C 	C 	0.33980 0.37430 0.84050 0.01600
H 	H 	0.34070 0.40170 0.82400 0.03400
N 	N 	0.27750 0.46240 0.89400 -0.23200
N 	N 	0.30540 0.36060 0.86840 -0.23800
O 	O 	0.18260 0.46350 0.89480 -0.15500
O 	O 	0.30650 0.25380 0.92590 -0.16900
C 	C 	0.17990 0.02600 0.39440 0.02200
H 	H 	0.15450 0.04540 0.39470 0.02900
C 	C 	0.16020 0.12570 0.34050 0.01500
H 	H 	0.15930 0.09830 0.32400 0.03300
N 	N 	0.22250 0.03760 0.39400 -0.23100
N 	N 	0.19460 0.13940 0.36840 -0.23800
O 	O 	0.31740 0.03650 0.39480 -0.15600
O 	O 	0.19350 0.24620 0.42590 -0.17000
C 	C 	0.67990 0.52600 0.89440 0.03100
H 	H 	0.65450 0.54540 0.89470 0.02800
C 	C 	0.66020 0.62570 0.84050 0.01600
H 	H 	0.65930 0.59830 0.82400 0.03400
N 	N 	0.72250 0.53760 0.89400 -0.23200
N 	N 	0.69460 0.63940 0.86840 -0.23800
O 	O 	0.81740 0.53650 0.89480 -0.15400
O 	O 	0.69350 0.74620 0.92590 -0.16800
C 	C 	0.17990 0.97400 0.60560 0.03800
H 	H 	0.15450 0.95460 0.60530 0.02500
C 	C 	0.16020 0.87430 0.65950 0.01600
H 	H 	0.15930 0.90170 0.67600 0.03400
N 	N 	0.22250 0.96240 0.60600 -0.23100
N 	N 	0.19460 0.86060 0.63160 -0.23800
O 	O 	0.31740 0.96350 0.60520 -0.15100
O 	O 	0.19350 0.75380 0.57410 -0.17000
C 	C 	0.67990 0.47400 0.10560 0.03000
H 	H 	0.65450 0.45460 0.10530 0.02700
C 	C 	0.66020 0.37430 0.15950 0.01600
H 	H 	0.65930 0.40170 0.17600 0.03400
N 	N 	0.72250 0.46240 0.10600 -0.23200
N 	N 	0.69460 0.36060 0.13160 -0.23800
O 	O 	0.81740 0.46350 0.10520 -0.15500
O 	O 	0.69350 0.25380 0.07410 -0.17100
C 	C 	0.61560 0.81870 0.18130 0.14000
N 	N 	0.58650 0.79100 0.20900 -0.01900
C 	C 	0.11560 0.31870 0.68130 0.14000
N 	N 	0.08650 0.29100 0.70900 -0.01800
C 	C 	0.38440 0.18130 0.18130 0.14000
N 	N 	0.41350 0.20900 0.20900 -0.01900
C 	C 	0.88440 0.68130 0.68130 0.14000
N 	N 	0.91350 0.70900 0.70900 -0.01900
C 	C 	0.38440 0.81870 0.81870 0.14000
N 	N 	0.41350 0.79100 0.79100 -0.01900
C 	C 	0.88440 0.31870 0.31870 0.14000
N 	N 	0.91350 0.29100 0.29100 -0.01900
C 	C 	0.61560 0.18130 0.81870 0.14000
N 	N 	0.58650 0.20900 0.79100 -0.01900
C 	C 	0.11560 0.68130 0.31870 0.14000
N 	N 	0.08650 0.70900 0.29100 -0.01800
C 	C 	0.18130 0.61560 0.81870 0.14000
N 	N 	0.20900 0.58650 0.79100 -0.01900
C 	C 	0.68130 0.11560 0.31870 0.14000
N 	N 	0.70900 0.08650 0.29100 -0.01800
C 	C 	0.18130 0.38440 0.18130 0.14000
N 	N 	0.20900 0.41350 0.20900 -0.01900
C 	C 	0.68130 0.88440 0.68130 0.14000
N 	N 	0.70900 0.91350 0.70900 -0.01900
C 	C 	0.81870 0.38440 0.81870 0.14000
N 	N 	0.79100 0.41350 0.79100 -0.01900
C 	C 	0.31870 0.88440 0.31870 0.14000
N 	N 	0.29100 0.91350 0.29100 -0.01900
C 	C 	0.81870 0.61560 0.18130 0.14000
N 	N 	0.79100 0.58650 0.20900 -0.01900
C 	C 	0.31870 0.11560 0.68130 0.14000
N 	N 	0.29100 0.08650 0.70900 -0.01800
C 	C 	0.81870 0.18130 0.61560 0.14000
N 	N 	0.79100 0.20900 0.58650 -0.01900
C 	C 	0.31870 0.68130 0.11560 0.14000
N 	N 	0.29100 0.70900 0.08650 -0.01800
C 	C 	0.18130 0.18130 0.38440 0.14000
N 	N 	0.20900 0.20900 0.41350 -0.01900
C 	C 	0.68130 0.68130 0.88440 0.14000
N 	N 	0.70900 0.70900 0.91350 -0.01900
C 	C 	0.81870 0.81870 0.38440 0.14000
N 	N 	0.79100 0.79100 0.41350 -0.01900
C 	C 	0.31870 0.31870 0.88440 0.14000
N 	N 	0.29100 0.29100 0.91350 -0.01900
C 	C 	0.18130 0.81870 0.61560 0.14000
N 	N 	0.20900 0.79100 0.58650 -0.01900
C 	C 	0.68130 0.31870 0.11560 0.14000
N 	N 	0.70900 0.29100 0.08650 -0.01800
C 	C 	0.81870 0.61560 0.81870 0.14000
N 	N 	0.79100 0.58650 0.79100 -0.01900
C 	C 	0.31870 0.11560 0.31870 0.14000
N 	N 	0.29100 0.08650 0.29100 -0.01800
C 	C 	0.18130 0.38440 0.81870 0.14000
N 	N 	0.20900 0.41350 0.79100 -0.01900
C 	C 	0.68130 0.88440 0.31870 0.14000
N 	N 	0.70900 0.91350 0.29100 -0.01900
C 	C 	0.81870 0.38440 0.18130 0.14000
N 	N 	0.79100 0.41350 0.20900 -0.01900
C 	C 	0.31870 0.88440 0.68130 0.14000
N 	N 	0.29100 0.91350 0.70900 -0.01900
C 	C 	0.18130 0.61560 0.18130 0.14000
N 	N 	0.20900 0.58650 0.20900 -0.01900
C 	C 	0.68130 0.11560 0.68130 0.14000
N 	N 	0.70900 0.08650 0.70900 -0.01900
C 	C 	0.61560 0.18130 0.18130 0.14000
N 	N 	0.58650 0.20900 0.20900 -0.01900
C 	C 	0.11560 0.68130 0.68130 0.14000
N 	N 	0.08650 0.70900 0.70900 -0.01900
C 	C 	0.38440 0.18130 0.81870 0.14000
N 	N 	0.41350 0.20900 0.79100 -0.01900
C 	C 	0.88440 0.68130 0.31870 0.14000
N 	N 	0.91350 0.70900 0.29100 -0.01900
C 	C 	0.38440 0.81870 0.18130 0.14000
N 	N 	0.41350 0.79100 0.20900 -0.01900
C 	C 	0.88440 0.31870 0.68130 0.14000
N 	N 	0.91350 0.29100 0.70900 -0.01900
C 	C 	0.61560 0.81870 0.81870 0.14000
N 	N 	0.58650 0.79100 0.79100 -0.01900
C 	C 	0.11560 0.31870 0.31870 0.14000
N 	N 	0.08650 0.29100 0.29100 -0.01800
C 	C 	0.18130 0.81870 0.38440 0.14000
N 	N 	0.20900 0.79100 0.41350 -0.01900
C 	C 	0.68130 0.31870 0.88440 0.14000
N 	N 	0.70900 0.29100 0.91350 -0.01900
C 	C 	0.18130 0.18130 0.61560 0.14000
N 	N 	0.20900 0.20900 0.58650 -0.01900
C 	C 	0.68130 0.68130 0.11560 0.14000
N 	N 	0.70900 0.70900 0.08650 -0.01900
C 	C 	0.81870 0.81870 0.61560 0.14000
N 	N 	0.79100 0.79100 0.58650 -0.01900
C 	C 	0.31870 0.31870 0.11560 0.14000
N 	N 	0.29100 0.29100 0.08650 -0.01800
C 	C 	0.81870 0.18130 0.38440 0.14000
N 	N 	0.79100 0.20900 0.41350 -0.01900
C 	C 	0.31870 0.68130 0.88440 0.14000
N 	N 	0.29100 0.70900 0.91350 -0.01900
C 	C 	0.60690 0.00000 0.25000 0.14900
N 	N 	0.60770 0.00000 0.29540 -0.03500
C 	C 	0.10690 0.50000 0.75000 0.15400
N 	N 	0.10770 0.50000 0.79540 -0.03300
C 	C 	0.39310 0.00000 0.25000 0.14900
N 	N 	0.39230 0.00000 0.29540 -0.03500
C 	C 	0.89310 0.50000 0.75000 0.15500
N 	N 	0.89230 0.50000 0.79540 -0.03300
C 	C 	0.39310 0.00000 0.75000 0.14900
N 	N 	0.39230 0.00000 0.70460 -0.03500
C 	C 	0.89310 0.50000 0.25000 0.15500
N 	N 	0.89230 0.50000 0.20460 -0.03300
C 	C 	0.60690 0.00000 0.75000 0.14900
N 	N 	0.60770 0.00000 0.70460 -0.03500
C 	C 	0.10690 0.50000 0.25000 0.15400
N 	N 	0.10770 0.50000 0.20460 -0.03300
C 	C 	0.25000 0.60690 -0.00000 0.14900
N 	N 	0.29540 0.60770 -0.00000 -0.03500
C 	C 	0.75000 0.10690 0.50000 0.15400
N 	N 	0.79540 0.10770 0.50000 -0.03300
C 	C 	0.25000 0.39310 -0.00000 0.14900
N 	N 	0.29540 0.39230 -0.00000 -0.03500
C 	C 	0.75000 0.89310 0.50000 0.15500
N 	N 	0.79540 0.89230 0.50000 -0.03300
C 	C 	0.75000 0.39310 -0.00000 0.14900
N 	N 	0.70460 0.39230 -0.00000 -0.03500
C 	C 	0.25000 0.89310 0.50000 0.15500
N 	N 	0.20460 0.89230 0.50000 -0.03300
C 	C 	0.75000 0.60690 -0.00000 0.14900
N 	N 	0.70460 0.60770 -0.00000 -0.03500
C 	C 	0.25000 0.10690 0.50000 0.15400
N 	N 	0.20460 0.10770 0.50000 -0.03300
C 	C 	-0.00000 0.25000 0.60690 0.14900
N 	N 	0.00000 0.29540 0.60770 -0.03500
C 	C 	0.50000 0.75000 0.10690 0.15400
N 	N 	0.50000 0.79540 0.10770 -0.03300
C 	C 	0.00000 0.25000 0.39310 0.14900
N 	N 	0.00000 0.29540 0.39230 -0.03500
C 	C 	0.50000 0.75000 0.89310 0.15500
N 	N 	0.50000 0.79540 0.89230 -0.03300
C 	C 	0.00000 0.75000 0.39310 0.14900
N 	N 	0.00000 0.70460 0.39230 -0.03500
C 	C 	0.50000 0.25000 0.89310 0.15500
N 	N 	0.50000 0.20460 0.89230 -0.03300
C 	C 	0.00000 0.75000 0.60690 0.14900
N 	N 	0.00000 0.70460 0.60770 -0.03500
C 	C 	0.50000 0.25000 0.10690 0.15400
N 	N 	0.50000 0.20460 0.10770 -0.03300
C 	C 	0.00000 0.60690 0.75000 0.14900
N 	N 	0.00000 0.60770 0.70460 -0.03500
C 	C 	0.50000 0.10690 0.25000 0.15400
N 	N 	0.50000 0.10770 0.20460 -0.03300
C 	C 	-0.00000 0.39310 0.75000 0.14900
N 	N 	0.00000 0.39230 0.70460 -0.03500
C 	C 	0.50000 0.89310 0.25000 0.15500
N 	N 	0.50000 0.89230 0.20460 -0.03300
C 	C 	0.00000 0.39310 0.25000 0.14900
N 	N 	0.00000 0.39230 0.29540 -0.03500
C 	C 	0.50000 0.89310 0.75000 0.15500
N 	N 	0.50000 0.89230 0.79540 -0.03300
C 	C 	0.00000 0.60690 0.25000 0.14900
N 	N 	0.00000 0.60770 0.29540 -0.03500
C 	C 	0.50000 0.10690 0.75000 0.15400
N 	N 	0.50000 0.10770 0.79540 -0.03300
C 	C 	0.60690 0.25000 -0.00000 0.14900
N 	N 	0.60770 0.29540 -0.00000 -0.03500
C 	C 	0.10690 0.75000 0.50000 0.15400
N 	N 	0.10770 0.79540 0.50000 -0.03300
C 	C 	0.39310 0.25000 -0.00000 0.14900
N 	N 	0.39230 0.29540 -0.00000 -0.03500
C 	C 	0.89310 0.75000 0.50000 0.15500
N 	N 	0.89230 0.79540 0.50000 -0.03300
C 	C 	0.39310 0.75000 -0.00000 0.14900
N 	N 	0.39230 0.70460 -0.00000 -0.03500
C 	C 	0.89310 0.25000 0.50000 0.15500
N 	N 	0.89230 0.20460 0.50000 -0.03300
C 	C 	0.60690 0.75000 -0.00000 0.14900
N 	N 	0.60770 0.70460 -0.00000 -0.03500
C 	C 	0.10690 0.25000 0.50000 0.15400
N 	N 	0.10770 0.20460 0.50000 -0.03300
C 	C 	0.25000 0.00000 0.39310 0.14900
N 	N 	0.29540 0.00000 0.39230 -0.03500
C 	C 	0.75000 0.50000 0.89310 0.15500
N 	N 	0.79540 0.50000 0.89230 -0.03300
C 	C 	0.25000 0.00000 0.60690 0.14900
N 	N 	0.29540 0.00000 0.60770 -0.03500
C 	C 	0.75000 0.50000 0.10690 0.15400
N 	N 	0.79540 0.50000 0.10770 -0.03300
C 	C 	0.75000 0.00000 0.60690 0.14900
N 	N 	0.70460 0.00000 0.60770 -0.03500
C 	C 	0.25000 0.50000 0.10690 0.15400
N 	N 	0.20460 0.50000 0.10770 -0.03300
C 	C 	0.75000 0.00000 0.39310 0.14900
N 	N 	0.70460 0.00000 0.39230 -0.03500
C 	C 	0.25000 0.50000 0.89310 0.15500
N 	N 	0.20460 0.50000 0.89230 -0.03300
Co	Co	0.60500 0.89500 0.25000 1.13400
Co	Co	0.39500 0.10500 0.25000 1.13400
Co	Co	0.39500 0.89500 0.75000 1.13400
Co	Co	0.60500 0.10500 0.75000 1.13400
Co	Co	0.25000 0.60500 0.89500 1.13400
Co	Co	0.25000 0.39500 0.10500 1.13400
Co	Co	0.75000 0.39500 0.89500 1.13400
Co	Co	0.75000 0.60500 0.10500 1.13400
Co	Co	0.89500 0.25000 0.60500 1.13400
Co	Co	0.10500 0.25000 0.39500 1.13400
Co	Co	0.89500 0.75000 0.39500 1.13400
Co	Co	0.10500 0.75000 0.60500 1.13400
Co	Co	0.89500 0.60500 0.75000 1.13400
Co	Co	0.10500 0.39500 0.75000 1.13400
Co	Co	0.89500 0.39500 0.25000 1.13400
Co	Co	0.10500 0.60500 0.25000 1.13400
Co	Co	0.60500 0.25000 0.10500 1.13400
Co	Co	0.39500 0.25000 0.89500 1.13400
Co	Co	0.39500 0.75000 0.10500 1.13400
Co	Co	0.60500 0.75000 0.89500 1.13400
Co	Co	0.25000 0.89500 0.39500 1.13400
Co	Co	0.25000 0.10500 0.60500 1.13400
Co	Co	0.75000 0.89500 0.60500 1.13400
Co	Co	0.75000 0.10500 0.39500 1.13400
Co	Co	0.39500 0.10500 0.75000 1.13400
Co	Co	0.60500 0.89500 0.75000 1.13400
Co	Co	0.60500 0.10500 0.25000 1.13400
Co	Co	0.39500 0.89500 0.25000 1.13400
Co	Co	0.75000 0.39500 0.10500 1.13400
Co	Co	0.75000 0.60500 0.89500 1.13400
Co	Co	0.25000 0.60500 0.10500 1.13400
Co	Co	0.25000 0.39500 0.89500 1.13400
Co	Co	0.10500 0.75000 0.39500 1.13400
Co	Co	0.89500 0.75000 0.60500 1.13400
Co	Co	0.10500 0.25000 0.60500 1.13400
Co	Co	0.89500 0.25000 0.39500 1.13400
Co	Co	0.10500 0.39500 0.25000 1.13400
Co	Co	0.89500 0.60500 0.25000 1.13400
Co	Co	0.10500 0.60500 0.75000 1.13400
Co	Co	0.89500 0.39500 0.75000 1.13400
Co	Co	0.39500 0.75000 0.89500 1.13400
Co	Co	0.60500 0.75000 0.10500 1.13400
Co	Co	0.60500 0.25000 0.89500 1.13400
Co	Co	0.39500 0.25000 0.10500 1.13400
Co	Co	0.75000 0.10500 0.60500 1.13400
Co	Co	0.75000 0.89500 0.39500 1.13400
Co	Co	0.25000 0.10500 0.39500 1.13400
Co	Co	0.25000 0.89500 0.60500 1.13400
