data_crystal

_cell_length_a 26.28000
_cell_length_b 47.80000
_cell_length_c 9.58500
_cell_angle_alpha 90.00000
_cell_angle_beta  90.00000
_cell_angle_gamma 90.00000

_symmetry_space_group_name_	'P 1'
_symmetry_space_group_name_H-M	'P 1'

loop_
_symmetry_equiv_pos_as_xyz
  x,y,z

loop_
_atom_site_label
_atom_site_type_symbol
_atom_site_fract_x
_atom_site_fract_y
_atom_site_fract_z
_atom_site_charge
N 	N 	0.14100 0.23249 0.70130 -0.25000
C 	C 	0.10440 0.25250 0.73260 0.05200
H 	H 	0.07970 0.24880 0.79950 -0.02100
C 	C 	0.10470 0.27811 0.66390 -0.13500
H 	H 	0.08010 0.29150 0.68480 0.07200
C 	C 	0.14160 0.28371 0.56390 0.06900
C 	C 	0.17820 0.26370 0.53260 -0.13700
H 	H 	0.20290 0.26740 0.46570 0.06700
C 	C 	0.17790 0.23809 0.60130 0.05000
H 	H 	0.20250 0.22470 0.58030 -0.02300
C 	C 	0.14640 0.31010 0.47300 -0.01800
C 	C 	0.17300 0.32940 0.42300 -0.04500
C 	C 	0.14040 0.35290 0.35970 0.10100
C 	C 	0.17370 0.35770 0.24970 -0.15100
H 	H 	0.19990 0.34520 0.23180 0.07800
C 	C 	0.16790 0.38130 0.16650 0.05100
H 	H 	0.19020 0.38450 0.09290 -0.02100
N 	N 	0.12870 0.40010 0.19330 -0.25900
C 	C 	0.09540 0.39530 0.30330 0.05000
H 	H 	0.06920 0.40790 0.32120 -0.02300
C 	C 	0.10120 0.37170 0.38650 -0.15000
H 	H 	0.07890 0.36850 0.46010 0.07600
C 	C 	0.37020 0.19800 0.04200 0.03300
H 	H 	0.37060 0.21330 0.10220 0.00600
N 	N 	0.22220 0.19053 0.85700 -0.24000
C 	C 	0.23720 0.21166 0.94770 0.02200
H 	H 	0.21420 0.22550 0.97390 -0.01200
C 	C 	0.28670 0.21215 0.99940 -0.07200
H 	H 	0.29670 0.22630 0.06010 0.02800
C 	C 	0.32110 0.19150 0.96020 0.04000
C 	C 	0.30610 0.17040 0.86950 -0.11000
H 	H 	0.32910 0.15660 0.84330 0.05900
C 	C 	0.25670 0.16989 0.81780 0.04500
H 	H 	0.24660 0.15580 0.75710 -0.02100
C 	C 	0.40950 0.18360 0.02900 -0.26900
H 	H 	0.40660 0.16980 0.96120 0.12400
C 	C 	0.45500 0.18350 0.09320 0.23900
C 	C 	0.46350 0.19900 0.21390 -0.24300
H 	H 	0.43670 0.20850 0.25610 0.11300
C 	C 	0.51200 0.20020 0.27150 0.10900
H 	H 	0.51770 0.21050 0.35230 -0.04400
N 	N 	0.55200 0.18600 0.20850 -0.26800
C 	C 	0.54350 0.17050 0.08780 0.12200
H 	H 	0.57020 0.16100 0.04560 -0.06300
C 	C 	0.49500 0.16930 0.03020 -0.28900
H 	H 	0.48930 0.15900 0.94940 0.13000
Cd	Cd	0.13538 0.18827 0.80090 1.15900
C 	C 	0.11930 0.33150 0.46500 -0.03800
N 	N 	0.14100 0.73249 0.20130 -0.25400
C 	C 	0.10440 0.75250 0.23260 0.05300
H 	H 	0.07970 0.74880 0.29950 -0.02400
C 	C 	0.10470 0.77811 0.16390 -0.13600
H 	H 	0.08010 0.79150 0.18480 0.06700
C 	C 	0.14160 0.78371 0.06390 0.06600
C 	C 	0.17820 0.76370 0.03260 -0.17800
H 	H 	0.20290 0.76740 0.96570 0.09600
C 	C 	0.17790 0.73809 0.10130 0.06700
H 	H 	0.20250 0.72470 0.08030 -0.03400
C 	C 	0.14640 0.81010 0.97300 -0.00300
C 	C 	0.17300 0.82940 0.92300 -0.04300
C 	C 	0.14040 0.85290 0.85970 0.10400
C 	C 	0.17370 0.85770 0.74970 -0.15100
H 	H 	0.19990 0.84520 0.73180 0.08300
C 	C 	0.16790 0.88130 0.66650 0.05400
H 	H 	0.19020 0.88450 0.59290 -0.01600
N 	N 	0.12870 0.90010 0.69330 -0.25700
C 	C 	0.09540 0.89530 0.80330 0.05300
H 	H 	0.06920 0.90790 0.82120 -0.02100
C 	C 	0.10120 0.87170 0.88650 -0.15000
H 	H 	0.07890 0.86850 0.96010 0.08000
C 	C 	0.37020 0.69800 0.54200 -0.02500
H 	H 	0.37060 0.71330 0.60220 0.03000
N 	N 	0.22220 0.69053 0.35700 -0.24800
C 	C 	0.23720 0.71166 0.44770 0.04900
H 	H 	0.21420 0.72550 0.47390 -0.02700
C 	C 	0.28670 0.71215 0.49940 -0.13400
H 	H 	0.29670 0.72630 0.56010 0.06400
C 	C 	0.32110 0.69150 0.46020 0.06800
C 	C 	0.30610 0.67040 0.36950 -0.13400
H 	H 	0.32910 0.65660 0.34330 0.06300
C 	C 	0.25670 0.66989 0.31780 0.05400
H 	H 	0.24660 0.65580 0.25710 -0.02800
C 	C 	0.40950 0.68360 0.52900 -0.15400
H 	H 	0.40660 0.66980 0.46120 0.07200
C 	C 	0.45500 0.68350 0.59320 0.15500
C 	C 	0.46350 0.69900 0.71390 -0.18900
H 	H 	0.43670 0.70850 0.75610 0.09600
C 	C 	0.51200 0.70020 0.77150 0.08200
H 	H 	0.51770 0.71050 0.85230 -0.03100
N 	N 	0.55200 0.68600 0.70850 -0.25500
C 	C 	0.54350 0.67050 0.58780 0.07700
H 	H 	0.57020 0.66100 0.54560 -0.04200
C 	C 	0.49500 0.66930 0.53020 -0.19200
H 	H 	0.48930 0.65900 0.44940 0.08100
Cd	Cd	0.13538 0.68827 0.30090 1.15700
C 	C 	0.11930 0.83150 0.96500 -0.03700
N 	N 	0.64100 0.23249 0.20130 -0.25400
C 	C 	0.60440 0.25250 0.23260 0.05300
H 	H 	0.57970 0.24880 0.29950 -0.02400
C 	C 	0.60470 0.27811 0.16390 -0.13600
H 	H 	0.58010 0.29150 0.18480 0.06700
C 	C 	0.64160 0.28371 0.06390 0.06600
C 	C 	0.67820 0.26370 0.03260 -0.17800
H 	H 	0.70290 0.26740 0.96570 0.09600
C 	C 	0.67790 0.23809 0.10130 0.06700
H 	H 	0.70250 0.22470 0.08030 -0.03400
C 	C 	0.64640 0.31010 0.97300 -0.00300
C 	C 	0.67300 0.32940 0.92300 -0.04300
C 	C 	0.64040 0.35290 0.85970 0.10400
C 	C 	0.67370 0.35770 0.74970 -0.15100
H 	H 	0.69990 0.34520 0.73180 0.08300
C 	C 	0.66790 0.38130 0.66650 0.05400
H 	H 	0.69020 0.38450 0.59290 -0.01600
N 	N 	0.62870 0.40010 0.69330 -0.25700
C 	C 	0.59540 0.39530 0.80330 0.05300
H 	H 	0.56920 0.40790 0.82120 -0.02100
C 	C 	0.60120 0.37170 0.88650 -0.15000
H 	H 	0.57890 0.36850 0.96010 0.08000
C 	C 	0.87020 0.19800 0.54200 -0.02500
H 	H 	0.87060 0.21330 0.60220 0.03000
N 	N 	0.72220 0.19053 0.35700 -0.24800
C 	C 	0.73720 0.21166 0.44770 0.04900
H 	H 	0.71420 0.22550 0.47390 -0.02700
C 	C 	0.78670 0.21215 0.49940 -0.13400
H 	H 	0.79670 0.22630 0.56010 0.06400
C 	C 	0.82110 0.19150 0.46020 0.06800
C 	C 	0.80610 0.17040 0.36950 -0.13400
H 	H 	0.82910 0.15660 0.34330 0.06300
C 	C 	0.75670 0.16989 0.31780 0.05400
H 	H 	0.74660 0.15580 0.25710 -0.02800
C 	C 	0.90950 0.18360 0.52900 -0.15400
H 	H 	0.90660 0.16980 0.46120 0.07200
C 	C 	0.95500 0.18350 0.59320 0.15500
C 	C 	0.96350 0.19900 0.71390 -0.18900
H 	H 	0.93670 0.20850 0.75610 0.09600
C 	C 	0.01200 0.20020 0.77150 0.08200
H 	H 	0.01770 0.21050 0.85230 -0.03100
N 	N 	0.05200 0.18600 0.70850 -0.25500
C 	C 	0.04350 0.17050 0.58780 0.07700
H 	H 	0.07020 0.16100 0.54560 -0.04200
C 	C 	0.99500 0.16930 0.53020 -0.19200
H 	H 	0.98930 0.15900 0.44940 0.08100
Cd	Cd	0.63538 0.18827 0.30090 1.15700
C 	C 	0.61930 0.33150 0.96500 -0.03700
N 	N 	0.64100 0.73249 0.70130 -0.24900
C 	C 	0.60440 0.75250 0.73260 0.05300
H 	H 	0.57970 0.74880 0.79950 -0.02000
C 	C 	0.60470 0.77811 0.66390 -0.13400
H 	H 	0.58010 0.79150 0.68480 0.07300
C 	C 	0.64160 0.78371 0.56390 0.07000
C 	C 	0.67820 0.76370 0.53260 -0.13600
H 	H 	0.70290 0.76740 0.46570 0.06800
C 	C 	0.67790 0.73809 0.60130 0.05000
H 	H 	0.70250 0.72470 0.58030 -0.02300
C 	C 	0.64640 0.81010 0.47300 -0.01800
C 	C 	0.67300 0.82940 0.42300 -0.04500
C 	C 	0.64040 0.85290 0.35970 0.10100
C 	C 	0.67370 0.85770 0.24970 -0.15100
H 	H 	0.69990 0.84520 0.23180 0.07800
C 	C 	0.66790 0.88130 0.16650 0.05100
H 	H 	0.69020 0.88450 0.09290 -0.02100
N 	N 	0.62870 0.90010 0.19330 -0.25900
C 	C 	0.59540 0.89530 0.30330 0.05000
H 	H 	0.56920 0.90790 0.32120 -0.02300
C 	C 	0.60120 0.87170 0.38650 -0.15000
H 	H 	0.57890 0.86850 0.46010 0.07600
C 	C 	0.87020 0.69800 0.04200 0.03200
H 	H 	0.87060 0.71330 0.10220 0.00600
N 	N 	0.72220 0.69053 0.85700 -0.24000
C 	C 	0.73720 0.71166 0.94770 0.02200
H 	H 	0.71420 0.72550 0.97390 -0.01200
C 	C 	0.78670 0.71215 0.99940 -0.07300
H 	H 	0.79670 0.72630 0.06010 0.02800
C 	C 	0.82110 0.69150 0.96020 0.04000
C 	C 	0.80610 0.67040 0.86950 -0.11000
H 	H 	0.82910 0.65660 0.84330 0.05900
C 	C 	0.75670 0.66989 0.81780 0.04500
H 	H 	0.74660 0.65580 0.75710 -0.02100
C 	C 	0.90950 0.68360 0.02900 -0.26900
H 	H 	0.90660 0.66980 0.96120 0.12400
C 	C 	0.95500 0.68350 0.09320 0.23900
C 	C 	0.96350 0.69900 0.21390 -0.24300
H 	H 	0.93670 0.70850 0.25610 0.11300
C 	C 	0.01200 0.70020 0.27150 0.10800
H 	H 	0.01770 0.71050 0.35230 -0.04400
N 	N 	0.05200 0.68600 0.20850 -0.26800
C 	C 	0.04350 0.67050 0.08780 0.12200
H 	H 	0.07020 0.66100 0.04560 -0.06300
C 	C 	0.99500 0.66930 0.03020 -0.28900
H 	H 	0.98930 0.65900 0.94940 0.12900
Cd	Cd	0.63538 0.68827 0.80090 1.15900
C 	C 	0.61930 0.83150 0.46500 -0.03800
N 	N 	0.10900 0.48249 0.95130 -0.25300
C 	C 	0.14560 0.50250 0.98260 0.10600
H 	H 	0.17030 0.49880 0.04950 -0.05600
C 	C 	0.14530 0.52811 0.91390 -0.16200
H 	H 	0.16990 0.54150 0.93480 0.08700
C 	C 	0.10840 0.53371 0.81390 0.08800
C 	C 	0.07180 0.51370 0.78260 -0.14700
H 	H 	0.04710 0.51740 0.71570 0.07300
C 	C 	0.07210 0.48809 0.85130 0.06000
H 	H 	0.04750 0.47470 0.83030 -0.02300
C 	C 	0.10360 0.56010 0.72300 -0.02400
C 	C 	0.07700 0.57940 0.67300 -0.03900
C 	C 	0.10960 0.60290 0.60970 0.09900
C 	C 	0.07630 0.60770 0.49970 -0.14900
H 	H 	0.05010 0.59520 0.48180 0.08100
C 	C 	0.08210 0.63130 0.41650 0.05300
H 	H 	0.05980 0.63450 0.34290 -0.01600
N 	N 	0.12130 0.65010 0.44330 -0.25700
C 	C 	0.15460 0.64530 0.55330 0.05100
H 	H 	0.18080 0.65790 0.57120 -0.02100
C 	C 	0.14880 0.62170 0.63650 -0.14800
H 	H 	0.17110 0.61850 0.71010 0.07800
C 	C 	0.87980 0.44800 0.29200 -0.02600
H 	H 	0.87940 0.46330 0.35220 0.02900
N 	N 	0.02780 0.44053 0.10700 -0.25100
C 	C 	0.01280 0.46166 0.19770 0.04600
H 	H 	0.03580 0.47550 0.22390 -0.02900
C 	C 	0.96330 0.46215 0.24940 -0.13500
H 	H 	0.95330 0.47630 0.31010 0.06300
C 	C 	0.92890 0.44150 0.21020 0.06600
C 	C 	0.94390 0.42040 0.11950 -0.13500
H 	H 	0.92090 0.40660 0.09330 0.06200
C 	C 	0.99330 0.41989 0.06780 0.05200
H 	H 	0.00340 0.40580 0.00710 -0.03100
C 	C 	0.84050 0.43360 0.27900 -0.15500
H 	H 	0.84340 0.41980 0.21120 0.07000
C 	C 	0.79500 0.43350 0.34320 0.15400
C 	C 	0.78650 0.44900 0.46390 -0.18900
H 	H 	0.81330 0.45850 0.50610 0.09400
C 	C 	0.73800 0.45020 0.52150 0.08100
H 	H 	0.73230 0.46050 0.60230 -0.03300
N 	N 	0.69800 0.43600 0.45850 -0.25500
C 	C 	0.70650 0.42050 0.33780 0.07600
H 	H 	0.67980 0.41100 0.29560 -0.04500
C 	C 	0.75500 0.41930 0.28020 -0.19300
H 	H 	0.76070 0.40900 0.19940 0.07900
Cd	Cd	0.11462 0.43827 0.05090 1.15100
C 	C 	0.13070 0.58150 0.71500 -0.03400
N 	N 	0.10900 0.98249 0.45130 -0.25000
C 	C 	0.14560 0.00250 0.48260 0.05300
H 	H 	0.17030 0.99880 0.54950 -0.02300
C 	C 	0.14530 0.02811 0.41390 -0.13600
H 	H 	0.16990 0.04150 0.43480 0.07100
C 	C 	0.10840 0.03371 0.31390 0.07200
C 	C 	0.07180 0.01370 0.28260 -0.13800
H 	H 	0.04710 0.01740 0.21570 0.06600
C 	C 	0.07210 0.98809 0.35130 0.05000
H 	H 	0.04750 0.97470 0.33030 -0.02500
C 	C 	0.10360 0.06010 0.22300 -0.02500
C 	C 	0.07700 0.07940 0.17300 -0.04400
C 	C 	0.10960 0.10290 0.10970 0.06100
C 	C 	0.07630 0.10770 0.99970 -0.10400
H 	H 	0.05010 0.09520 0.98180 0.07100
C 	C 	0.08210 0.13130 0.91650 0.03600
H 	H 	0.05980 0.13450 0.84290 -0.00900
N 	N 	0.12130 0.15010 0.94330 -0.24000
C 	C 	0.15460 0.14530 0.05330 0.01500
H 	H 	0.18080 0.15790 0.07120 -0.01700
C 	C 	0.14880 0.12170 0.13650 -0.12400
H 	H 	0.17110 0.11850 0.21010 0.06500
C 	C 	0.87980 0.94800 0.79200 -0.08200
H 	H 	0.87940 0.96330 0.85220 0.05400
N 	N 	0.02780 0.94053 0.60700 -0.25000
C 	C 	0.01280 0.96166 0.69770 0.05700
H 	H 	0.03580 0.97550 0.72390 -0.02800
C 	C 	0.96330 0.96215 0.74940 -0.14800
H 	H 	0.95330 0.97630 0.81010 0.07200
C 	C 	0.92890 0.94150 0.71020 0.09500
C 	C 	0.94390 0.92040 0.61950 -0.15100
H 	H 	0.92090 0.90660 0.59330 0.07200
C 	C 	0.99330 0.91989 0.56780 0.06300
H 	H 	0.00340 0.90580 0.50710 -0.03000
C 	C 	0.84050 0.93360 0.77900 -0.07000
H 	H 	0.84340 0.91980 0.71120 0.04600
C 	C 	0.79500 0.93350 0.84320 0.06600
C 	C 	0.78650 0.94900 0.96390 -0.04900
H 	H 	0.81330 0.95850 0.00610 0.03000
C 	C 	0.73800 0.95020 0.02150 -0.02300
H 	H 	0.73230 0.96050 0.10230 -0.00100
N 	N 	0.69800 0.93600 0.95850 -0.22200
C 	C 	0.70650 0.92050 0.83780 0.04700
H 	H 	0.67980 0.91100 0.79560 -0.02900
C 	C 	0.75500 0.91930 0.78020 -0.13100
H 	H 	0.76070 0.90900 0.69940 0.06200
Cd	Cd	0.11462 0.93827 0.55090 1.15700
C 	C 	0.13070 0.08150 0.21500 -0.03000
N 	N 	0.60900 0.48249 0.45130 -0.25000
C 	C 	0.64560 0.50250 0.48260 0.05300
H 	H 	0.67030 0.49880 0.54950 -0.02300
C 	C 	0.64530 0.52811 0.41390 -0.13600
H 	H 	0.66990 0.54150 0.43480 0.07100
C 	C 	0.60840 0.53371 0.31390 0.07200
C 	C 	0.57180 0.51370 0.28260 -0.13800
H 	H 	0.54710 0.51740 0.21570 0.06600
C 	C 	0.57210 0.48809 0.35130 0.05000
H 	H 	0.54750 0.47470 0.33030 -0.02500
C 	C 	0.60360 0.56010 0.22300 -0.02500
C 	C 	0.57700 0.57940 0.17300 -0.04400
C 	C 	0.60960 0.60290 0.10970 0.06100
C 	C 	0.57630 0.60770 0.99970 -0.10400
H 	H 	0.55010 0.59520 0.98180 0.07100
C 	C 	0.58210 0.63130 0.91650 0.03600
H 	H 	0.55980 0.63450 0.84290 -0.00900
N 	N 	0.62130 0.65010 0.94330 -0.24000
C 	C 	0.65460 0.64530 0.05330 0.01500
H 	H 	0.68080 0.65790 0.07120 -0.01700
C 	C 	0.64880 0.62170 0.13650 -0.12400
H 	H 	0.67110 0.61850 0.21010 0.06500
C 	C 	0.37980 0.44800 0.79200 -0.08200
H 	H 	0.37940 0.46330 0.85220 0.05400
N 	N 	0.52780 0.44053 0.60700 -0.25000
C 	C 	0.51280 0.46166 0.69770 0.05700
H 	H 	0.53580 0.47550 0.72390 -0.02800
C 	C 	0.46330 0.46215 0.74940 -0.14800
H 	H 	0.45330 0.47630 0.81010 0.07200
C 	C 	0.42890 0.44150 0.71020 0.09500
C 	C 	0.44390 0.42040 0.61950 -0.15100
H 	H 	0.42090 0.40660 0.59330 0.07200
C 	C 	0.49330 0.41989 0.56780 0.06300
H 	H 	0.50340 0.40580 0.50710 -0.03000
C 	C 	0.34050 0.43360 0.77900 -0.07000
H 	H 	0.34340 0.41980 0.71120 0.04600
C 	C 	0.29500 0.43350 0.84320 0.06600
C 	C 	0.28650 0.44900 0.96390 -0.04900
H 	H 	0.31330 0.45850 0.00610 0.03000
C 	C 	0.23800 0.45020 0.02150 -0.02300
H 	H 	0.23230 0.46050 0.10230 -0.00100
N 	N 	0.19800 0.43600 0.95850 -0.22200
C 	C 	0.20650 0.42050 0.83780 0.04700
H 	H 	0.17980 0.41100 0.79560 -0.02900
C 	C 	0.25500 0.41930 0.78020 -0.13100
H 	H 	0.26070 0.40900 0.69940 0.06200
Cd	Cd	0.61462 0.43827 0.55090 1.15700
C 	C 	0.63070 0.58150 0.21500 -0.03000
N 	N 	0.60900 0.98249 0.95130 -0.25300
C 	C 	0.64560 0.00250 0.98260 0.10600
H 	H 	0.67030 0.99880 0.04950 -0.05600
C 	C 	0.64530 0.02811 0.91390 -0.16200
H 	H 	0.66990 0.04150 0.93480 0.08700
C 	C 	0.60840 0.03371 0.81390 0.08800
C 	C 	0.57180 0.01370 0.78260 -0.14700
H 	H 	0.54710 0.01740 0.71570 0.07300
C 	C 	0.57210 0.98809 0.85130 0.06000
H 	H 	0.54750 0.97470 0.83030 -0.02200
C 	C 	0.60360 0.06010 0.72300 -0.02400
C 	C 	0.57700 0.07940 0.67300 -0.03900
C 	C 	0.60960 0.10290 0.60970 0.09900
C 	C 	0.57630 0.10770 0.49970 -0.14900
H 	H 	0.55010 0.09520 0.48180 0.08100
C 	C 	0.58210 0.13130 0.41650 0.05300
H 	H 	0.55980 0.13450 0.34290 -0.01600
N 	N 	0.62130 0.15010 0.44330 -0.25700
C 	C 	0.65460 0.14530 0.55330 0.05100
H 	H 	0.68080 0.15790 0.57120 -0.02100
C 	C 	0.64880 0.12170 0.63650 -0.14800
H 	H 	0.67110 0.11850 0.71010 0.07800
C 	C 	0.37980 0.94800 0.29200 -0.02600
H 	H 	0.37940 0.96330 0.35220 0.02900
N 	N 	0.52780 0.94053 0.10700 -0.25100
C 	C 	0.51280 0.96166 0.19770 0.04600
H 	H 	0.53580 0.97550 0.22390 -0.02900
C 	C 	0.46330 0.96215 0.24940 -0.13500
H 	H 	0.45330 0.97630 0.31010 0.06300
C 	C 	0.42890 0.94150 0.21020 0.06600
C 	C 	0.44390 0.92040 0.11950 -0.13600
H 	H 	0.42090 0.90660 0.09330 0.06200
C 	C 	0.49330 0.91989 0.06780 0.05200
H 	H 	0.50340 0.90580 0.00710 -0.03100
C 	C 	0.34050 0.93360 0.27900 -0.15500
H 	H 	0.34340 0.91980 0.21120 0.07000
C 	C 	0.29500 0.93350 0.34320 0.15400
C 	C 	0.28650 0.94900 0.46390 -0.18900
H 	H 	0.31330 0.95850 0.50610 0.09400
C 	C 	0.23800 0.95020 0.52150 0.08100
H 	H 	0.23230 0.96050 0.60230 -0.03300
N 	N 	0.19800 0.93600 0.45850 -0.25500
C 	C 	0.20650 0.92050 0.33780 0.07600
H 	H 	0.17980 0.91100 0.29560 -0.04500
C 	C 	0.25500 0.91930 0.28020 -0.19300
H 	H 	0.26070 0.90900 0.19940 0.07900
Cd	Cd	0.61462 0.93827 0.05090 1.15100
C 	C 	0.63070 0.08150 0.71500 -0.03400
N 	N 	0.85900 0.76751 0.70130 -0.24900
C 	C 	0.89560 0.74750 0.73260 0.05300
H 	H 	0.92030 0.75120 0.79950 -0.02000
C 	C 	0.89530 0.72189 0.66390 -0.13400
H 	H 	0.91990 0.70850 0.68480 0.07300
C 	C 	0.85840 0.71629 0.56390 0.07000
C 	C 	0.82180 0.73630 0.53260 -0.13600
H 	H 	0.79710 0.73260 0.46570 0.06800
C 	C 	0.82210 0.76191 0.60130 0.05000
H 	H 	0.79750 0.77530 0.58030 -0.02300
C 	C 	0.85360 0.68990 0.47300 -0.01800
C 	C 	0.82700 0.67060 0.42300 -0.04500
C 	C 	0.85960 0.64710 0.35970 0.10100
C 	C 	0.82630 0.64230 0.24970 -0.15100
H 	H 	0.80010 0.65480 0.23180 0.07800
C 	C 	0.83210 0.61870 0.16650 0.05100
H 	H 	0.80980 0.61550 0.09290 -0.02100
N 	N 	0.87130 0.59990 0.19330 -0.25900
C 	C 	0.90460 0.60470 0.30330 0.05000
H 	H 	0.93080 0.59210 0.32120 -0.02300
C 	C 	0.89880 0.62830 0.38650 -0.15000
H 	H 	0.92110 0.63150 0.46010 0.07600
C 	C 	0.62980 0.80200 0.04200 0.03300
H 	H 	0.62940 0.78670 0.10220 0.00600
N 	N 	0.77780 0.80947 0.85700 -0.24000
C 	C 	0.76280 0.78834 0.94770 0.02200
H 	H 	0.78580 0.77450 0.97390 -0.01200
C 	C 	0.71330 0.78785 0.99940 -0.07200
H 	H 	0.70330 0.77370 0.06010 0.02800
C 	C 	0.67890 0.80850 0.96020 0.04000
C 	C 	0.69390 0.82960 0.86950 -0.11000
H 	H 	0.67090 0.84340 0.84330 0.05900
C 	C 	0.74330 0.83011 0.81780 0.04500
H 	H 	0.75340 0.84420 0.75710 -0.02100
C 	C 	0.59050 0.81640 0.02900 -0.26900
H 	H 	0.59340 0.83020 0.96120 0.12400
C 	C 	0.54500 0.81650 0.09320 0.23900
C 	C 	0.53650 0.80100 0.21390 -0.24300
H 	H 	0.56330 0.79150 0.25610 0.11300
C 	C 	0.48800 0.79980 0.27150 0.10900
H 	H 	0.48230 0.78950 0.35230 -0.04400
N 	N 	0.44800 0.81400 0.20850 -0.26800
C 	C 	0.45650 0.82950 0.08780 0.12200
H 	H 	0.42980 0.83900 0.04560 -0.06300
C 	C 	0.50500 0.83070 0.03020 -0.28900
H 	H 	0.51070 0.84100 0.94940 0.13000
Cd	Cd	0.86462 0.81173 0.80090 1.15900
C 	C 	0.88070 0.66850 0.46500 -0.03800
N 	N 	0.85900 0.26751 0.20130 -0.25400
C 	C 	0.89560 0.24750 0.23260 0.05300
H 	H 	0.92030 0.25120 0.29950 -0.02400
C 	C 	0.89530 0.22189 0.16390 -0.13600
H 	H 	0.91990 0.20850 0.18480 0.06700
C 	C 	0.85840 0.21629 0.06390 0.06600
C 	C 	0.82180 0.23630 0.03260 -0.17800
H 	H 	0.79710 0.23260 0.96570 0.09600
C 	C 	0.82210 0.26191 0.10130 0.06700
H 	H 	0.79750 0.27530 0.08030 -0.03400
C 	C 	0.85360 0.18990 0.97300 -0.00300
C 	C 	0.82700 0.17060 0.92300 -0.04300
C 	C 	0.85960 0.14710 0.85970 0.10400
C 	C 	0.82630 0.14230 0.74970 -0.15100
H 	H 	0.80010 0.15480 0.73180 0.08300
C 	C 	0.83210 0.11870 0.66650 0.05400
H 	H 	0.80980 0.11550 0.59290 -0.01600
N 	N 	0.87130 0.09990 0.69330 -0.25700
C 	C 	0.90460 0.10470 0.80330 0.05300
H 	H 	0.93080 0.09210 0.82120 -0.02100
C 	C 	0.89880 0.12830 0.88650 -0.15000
H 	H 	0.92110 0.13150 0.96010 0.08000
C 	C 	0.62980 0.30200 0.54200 -0.02500
H 	H 	0.62940 0.28670 0.60220 0.03000
N 	N 	0.77780 0.30947 0.35700 -0.24800
C 	C 	0.76280 0.28834 0.44770 0.04900
H 	H 	0.78580 0.27450 0.47390 -0.02700
C 	C 	0.71330 0.28785 0.49940 -0.13400
H 	H 	0.70330 0.27370 0.56010 0.06400
C 	C 	0.67890 0.30850 0.46020 0.06800
C 	C 	0.69390 0.32960 0.36950 -0.13400
H 	H 	0.67090 0.34340 0.34330 0.06300
C 	C 	0.74330 0.33011 0.31780 0.05400
H 	H 	0.75340 0.34420 0.25710 -0.02800
C 	C 	0.59050 0.31640 0.52900 -0.15400
H 	H 	0.59340 0.33020 0.46120 0.07200
C 	C 	0.54500 0.31650 0.59320 0.15500
C 	C 	0.53650 0.30100 0.71390 -0.18900
H 	H 	0.56330 0.29150 0.75610 0.09600
C 	C 	0.48800 0.29980 0.77150 0.08200
H 	H 	0.48230 0.28950 0.85230 -0.03100
N 	N 	0.44800 0.31400 0.70850 -0.25500
C 	C 	0.45650 0.32950 0.58780 0.07700
H 	H 	0.42980 0.33900 0.54560 -0.04200
C 	C 	0.50500 0.33070 0.53020 -0.19200
H 	H 	0.51070 0.34100 0.44940 0.08100
Cd	Cd	0.86462 0.31173 0.30090 1.15700
C 	C 	0.88070 0.16850 0.96500 -0.03700
N 	N 	0.35900 0.76751 0.20130 -0.25400
C 	C 	0.39560 0.74750 0.23260 0.05300
H 	H 	0.42030 0.75120 0.29950 -0.02400
C 	C 	0.39530 0.72189 0.16390 -0.13600
H 	H 	0.41990 0.70850 0.18480 0.06700
C 	C 	0.35840 0.71629 0.06390 0.06600
C 	C 	0.32180 0.73630 0.03260 -0.17800
H 	H 	0.29710 0.73260 0.96570 0.09600
C 	C 	0.32210 0.76191 0.10130 0.06700
H 	H 	0.29750 0.77530 0.08030 -0.03400
C 	C 	0.35360 0.68990 0.97300 -0.00300
C 	C 	0.32700 0.67060 0.92300 -0.04300
C 	C 	0.35960 0.64710 0.85970 0.10400
C 	C 	0.32630 0.64230 0.74970 -0.15100
H 	H 	0.30010 0.65480 0.73180 0.08300
C 	C 	0.33210 0.61870 0.66650 0.05400
H 	H 	0.30980 0.61550 0.59290 -0.01600
N 	N 	0.37130 0.59990 0.69330 -0.25700
C 	C 	0.40460 0.60470 0.80330 0.05300
H 	H 	0.43080 0.59210 0.82120 -0.02100
C 	C 	0.39880 0.62830 0.88650 -0.15000
H 	H 	0.42110 0.63150 0.96010 0.08000
C 	C 	0.12980 0.80200 0.54200 -0.02500
H 	H 	0.12940 0.78670 0.60220 0.03000
N 	N 	0.27780 0.80947 0.35700 -0.24800
C 	C 	0.26280 0.78834 0.44770 0.04900
H 	H 	0.28580 0.77450 0.47390 -0.02700
C 	C 	0.21330 0.78785 0.49940 -0.13400
H 	H 	0.20330 0.77370 0.56010 0.06400
C 	C 	0.17890 0.80850 0.46020 0.06800
C 	C 	0.19390 0.82960 0.36950 -0.13400
H 	H 	0.17090 0.84340 0.34330 0.06300
C 	C 	0.24330 0.83011 0.31780 0.05400
H 	H 	0.25340 0.84420 0.25710 -0.02800
C 	C 	0.09050 0.81640 0.52900 -0.15400
H 	H 	0.09340 0.83020 0.46120 0.07200
C 	C 	0.04500 0.81650 0.59320 0.15500
C 	C 	0.03650 0.80100 0.71390 -0.18900
H 	H 	0.06330 0.79150 0.75610 0.09600
C 	C 	0.98800 0.79980 0.77150 0.08200
H 	H 	0.98230 0.78950 0.85230 -0.03100
N 	N 	0.94800 0.81400 0.70850 -0.25500
C 	C 	0.95650 0.82950 0.58780 0.07700
H 	H 	0.92980 0.83900 0.54560 -0.04200
C 	C 	0.00500 0.83070 0.53020 -0.19200
H 	H 	0.01070 0.84100 0.44940 0.08100
Cd	Cd	0.36462 0.81173 0.30090 1.15700
C 	C 	0.38070 0.66850 0.96500 -0.03700
N 	N 	0.35900 0.26751 0.70130 -0.24900
C 	C 	0.39560 0.24750 0.73260 0.05300
H 	H 	0.42030 0.25120 0.79950 -0.02000
C 	C 	0.39530 0.22189 0.66390 -0.13400
H 	H 	0.41990 0.20850 0.68480 0.07300
C 	C 	0.35840 0.21629 0.56390 0.07000
C 	C 	0.32180 0.23630 0.53260 -0.13600
H 	H 	0.29710 0.23260 0.46570 0.06800
C 	C 	0.32210 0.26191 0.60130 0.05000
H 	H 	0.29750 0.27530 0.58030 -0.02300
C 	C 	0.35360 0.18990 0.47300 -0.01800
C 	C 	0.32700 0.17060 0.42300 -0.04500
C 	C 	0.35960 0.14710 0.35970 0.10100
C 	C 	0.32630 0.14230 0.24970 -0.15100
H 	H 	0.30010 0.15480 0.23180 0.07800
C 	C 	0.33210 0.11870 0.16650 0.05100
H 	H 	0.30980 0.11550 0.09290 -0.02100
N 	N 	0.37130 0.09990 0.19330 -0.25900
C 	C 	0.40460 0.10470 0.30330 0.05000
H 	H 	0.43080 0.09210 0.32120 -0.02300
C 	C 	0.39880 0.12830 0.38650 -0.15000
H 	H 	0.42110 0.13150 0.46010 0.07600
C 	C 	0.12980 0.30200 0.04200 0.03200
H 	H 	0.12940 0.28670 0.10220 0.00600
N 	N 	0.27780 0.30947 0.85700 -0.24000
C 	C 	0.26280 0.28834 0.94770 0.02200
H 	H 	0.28580 0.27450 0.97390 -0.01200
C 	C 	0.21330 0.28785 0.99940 -0.07300
H 	H 	0.20330 0.27370 0.06010 0.02800
C 	C 	0.17890 0.30850 0.96020 0.04000
C 	C 	0.19390 0.32960 0.86950 -0.11000
H 	H 	0.17090 0.34340 0.84330 0.05900
C 	C 	0.24330 0.33011 0.81780 0.04500
H 	H 	0.25340 0.34420 0.75710 -0.02100
C 	C 	0.09050 0.31640 0.02900 -0.26900
H 	H 	0.09340 0.33020 0.96120 0.12400
C 	C 	0.04500 0.31650 0.09320 0.23900
C 	C 	0.03650 0.30100 0.21390 -0.24300
H 	H 	0.06330 0.29150 0.25610 0.11300
C 	C 	0.98800 0.29980 0.27150 0.10800
H 	H 	0.98230 0.28950 0.35230 -0.04400
N 	N 	0.94800 0.31400 0.20850 -0.26800
C 	C 	0.95650 0.32950 0.08780 0.12200
H 	H 	0.92980 0.33900 0.04560 -0.06300
C 	C 	0.00500 0.33070 0.03020 -0.28900
H 	H 	0.01070 0.34100 0.94940 0.12900
Cd	Cd	0.36462 0.31173 0.80090 1.15900
C 	C 	0.38070 0.16850 0.46500 -0.03800
N 	N 	0.39100 0.01751 0.95130 -0.25300
C 	C 	0.35440 0.99750 0.98260 0.10600
H 	H 	0.32970 0.00120 0.04950 -0.05600
C 	C 	0.35470 0.97189 0.91390 -0.16200
H 	H 	0.33010 0.95850 0.93480 0.08700
C 	C 	0.39160 0.96629 0.81390 0.08800
C 	C 	0.42820 0.98630 0.78260 -0.14700
H 	H 	0.45290 0.98260 0.71570 0.07300
C 	C 	0.42790 0.01191 0.85130 0.06000
H 	H 	0.45250 0.02530 0.83030 -0.02200
C 	C 	0.39640 0.93990 0.72300 -0.02400
C 	C 	0.42300 0.92060 0.67300 -0.03900
C 	C 	0.39040 0.89710 0.60970 0.09900
C 	C 	0.42370 0.89230 0.49970 -0.14900
H 	H 	0.44990 0.90480 0.48180 0.08100
C 	C 	0.41790 0.86870 0.41650 0.05300
H 	H 	0.44020 0.86550 0.34290 -0.01600
N 	N 	0.37870 0.84990 0.44330 -0.25700
C 	C 	0.34540 0.85470 0.55330 0.05100
H 	H 	0.31920 0.84210 0.57120 -0.02100
C 	C 	0.35120 0.87830 0.63650 -0.14800
H 	H 	0.32890 0.88150 0.71010 0.07800
C 	C 	0.62020 0.05200 0.29200 -0.02600
H 	H 	0.62060 0.03670 0.35220 0.02900
N 	N 	0.47220 0.05947 0.10700 -0.25100
C 	C 	0.48720 0.03834 0.19770 0.04600
H 	H 	0.46420 0.02450 0.22390 -0.02900
C 	C 	0.53670 0.03785 0.24940 -0.13500
H 	H 	0.54670 0.02370 0.31010 0.06300
C 	C 	0.57110 0.05850 0.21020 0.06600
C 	C 	0.55610 0.07960 0.11950 -0.13600
H 	H 	0.57910 0.09340 0.09330 0.06200
C 	C 	0.50670 0.08011 0.06780 0.05200
H 	H 	0.49660 0.09420 0.00710 -0.03100
C 	C 	0.65950 0.06640 0.27900 -0.15500
H 	H 	0.65660 0.08020 0.21120 0.07000
C 	C 	0.70500 0.06650 0.34320 0.15400
C 	C 	0.71350 0.05100 0.46390 -0.18900
H 	H 	0.68670 0.04150 0.50610 0.09400
C 	C 	0.76200 0.04980 0.52150 0.08100
H 	H 	0.76770 0.03950 0.60230 -0.03300
N 	N 	0.80200 0.06400 0.45850 -0.25500
C 	C 	0.79350 0.07950 0.33780 0.07600
H 	H 	0.82020 0.08900 0.29560 -0.04500
C 	C 	0.74500 0.08070 0.28020 -0.19300
H 	H 	0.73930 0.09100 0.19940 0.07900
Cd	Cd	0.38538 0.06173 0.05090 1.15100
C 	C 	0.36930 0.91850 0.71500 -0.03400
N 	N 	0.39100 0.51751 0.45130 -0.25000
C 	C 	0.35440 0.49750 0.48260 0.05300
H 	H 	0.32970 0.50120 0.54950 -0.02300
C 	C 	0.35470 0.47189 0.41390 -0.13600
H 	H 	0.33010 0.45850 0.43480 0.07100
C 	C 	0.39160 0.46629 0.31390 0.07200
C 	C 	0.42820 0.48630 0.28260 -0.13800
H 	H 	0.45290 0.48260 0.21570 0.06600
C 	C 	0.42790 0.51191 0.35130 0.05000
H 	H 	0.45250 0.52530 0.33030 -0.02500
C 	C 	0.39640 0.43990 0.22300 -0.02500
C 	C 	0.42300 0.42060 0.17300 -0.04400
C 	C 	0.39040 0.39710 0.10970 0.06100
C 	C 	0.42370 0.39230 0.99970 -0.10400
H 	H 	0.44990 0.40480 0.98180 0.07100
C 	C 	0.41790 0.36870 0.91650 0.03600
H 	H 	0.44020 0.36550 0.84290 -0.00900
N 	N 	0.37870 0.34990 0.94330 -0.24000
C 	C 	0.34540 0.35470 0.05330 0.01500
H 	H 	0.31920 0.34210 0.07120 -0.01700
C 	C 	0.35120 0.37830 0.13650 -0.12400
H 	H 	0.32890 0.38150 0.21010 0.06500
C 	C 	0.62020 0.55200 0.79200 -0.08200
H 	H 	0.62060 0.53670 0.85220 0.05400
N 	N 	0.47220 0.55947 0.60700 -0.25000
C 	C 	0.48720 0.53834 0.69770 0.05700
H 	H 	0.46420 0.52450 0.72390 -0.02800
C 	C 	0.53670 0.53785 0.74940 -0.14800
H 	H 	0.54670 0.52370 0.81010 0.07200
C 	C 	0.57110 0.55850 0.71020 0.09500
C 	C 	0.55610 0.57960 0.61950 -0.15100
H 	H 	0.57910 0.59340 0.59330 0.07200
C 	C 	0.50670 0.58011 0.56780 0.06300
H 	H 	0.49660 0.59420 0.50710 -0.03000
C 	C 	0.65950 0.56640 0.77900 -0.07000
H 	H 	0.65660 0.58020 0.71120 0.04600
C 	C 	0.70500 0.56650 0.84320 0.06600
C 	C 	0.71350 0.55100 0.96390 -0.04900
H 	H 	0.68670 0.54150 0.00610 0.03000
C 	C 	0.76200 0.54980 0.02150 -0.02300
H 	H 	0.76770 0.53950 0.10230 -0.00100
N 	N 	0.80200 0.56400 0.95850 -0.22200
C 	C 	0.79350 0.57950 0.83780 0.04700
H 	H 	0.82020 0.58900 0.79560 -0.02900
C 	C 	0.74500 0.58070 0.78020 -0.13100
H 	H 	0.73930 0.59100 0.69940 0.06200
Cd	Cd	0.38538 0.56173 0.55090 1.15700
C 	C 	0.36930 0.41850 0.21500 -0.03000
N 	N 	0.89100 0.01751 0.45130 -0.25000
C 	C 	0.85440 0.99750 0.48260 0.05300
H 	H 	0.82970 0.00120 0.54950 -0.02300
C 	C 	0.85470 0.97189 0.41390 -0.13600
H 	H 	0.83010 0.95850 0.43480 0.07100
C 	C 	0.89160 0.96629 0.31390 0.07200
C 	C 	0.92820 0.98630 0.28260 -0.13800
H 	H 	0.95290 0.98260 0.21570 0.06600
C 	C 	0.92790 0.01191 0.35130 0.05000
H 	H 	0.95250 0.02530 0.33030 -0.02500
C 	C 	0.89640 0.93990 0.22300 -0.02500
C 	C 	0.92300 0.92060 0.17300 -0.04400
C 	C 	0.89040 0.89710 0.10970 0.06100
C 	C 	0.92370 0.89230 0.99970 -0.10400
H 	H 	0.94990 0.90480 0.98180 0.07100
C 	C 	0.91790 0.86870 0.91650 0.03600
H 	H 	0.94020 0.86550 0.84290 -0.00900
N 	N 	0.87870 0.84990 0.94330 -0.24000
C 	C 	0.84540 0.85470 0.05330 0.01500
H 	H 	0.81920 0.84210 0.07120 -0.01700
C 	C 	0.85120 0.87830 0.13650 -0.12400
H 	H 	0.82890 0.88150 0.21010 0.06500
C 	C 	0.12020 0.05200 0.79200 -0.08200
H 	H 	0.12060 0.03670 0.85220 0.05400
N 	N 	0.97220 0.05947 0.60700 -0.25000
C 	C 	0.98720 0.03834 0.69770 0.05700
H 	H 	0.96420 0.02450 0.72390 -0.02800
C 	C 	0.03670 0.03785 0.74940 -0.14800
H 	H 	0.04670 0.02370 0.81010 0.07200
C 	C 	0.07110 0.05850 0.71020 0.09500
C 	C 	0.05610 0.07960 0.61950 -0.15100
H 	H 	0.07910 0.09340 0.59330 0.07200
C 	C 	0.00670 0.08011 0.56780 0.06300
H 	H 	0.99660 0.09420 0.50710 -0.03000
C 	C 	0.15950 0.06640 0.77900 -0.07000
H 	H 	0.15660 0.08020 0.71120 0.04600
C 	C 	0.20500 0.06650 0.84320 0.06600
C 	C 	0.21350 0.05100 0.96390 -0.04900
H 	H 	0.18670 0.04150 0.00610 0.03000
C 	C 	0.26200 0.04980 0.02150 -0.02300
H 	H 	0.26770 0.03950 0.10230 -0.00100
N 	N 	0.30200 0.06400 0.95850 -0.22200
C 	C 	0.29350 0.07950 0.83780 0.04700
H 	H 	0.32020 0.08900 0.79560 -0.02900
C 	C 	0.24500 0.08070 0.78020 -0.13100
H 	H 	0.23930 0.09100 0.69940 0.06200
Cd	Cd	0.88538 0.06173 0.55090 1.15700
C 	C 	0.86930 0.91850 0.21500 -0.03000
N 	N 	0.89100 0.51751 0.95130 -0.25300
C 	C 	0.85440 0.49750 0.98260 0.10600
H 	H 	0.82970 0.50120 0.04950 -0.05600
C 	C 	0.85470 0.47189 0.91390 -0.16200
H 	H 	0.83010 0.45850 0.93480 0.08700
C 	C 	0.89160 0.46629 0.81390 0.08800
C 	C 	0.92820 0.48630 0.78260 -0.14700
H 	H 	0.95290 0.48260 0.71570 0.07300
C 	C 	0.92790 0.51191 0.85130 0.06000
H 	H 	0.95250 0.52530 0.83030 -0.02300
C 	C 	0.89640 0.43990 0.72300 -0.02400
C 	C 	0.92300 0.42060 0.67300 -0.03900
C 	C 	0.89040 0.39710 0.60970 0.09900
C 	C 	0.92370 0.39230 0.49970 -0.14900
H 	H 	0.94990 0.40480 0.48180 0.08100
C 	C 	0.91790 0.36870 0.41650 0.05300
H 	H 	0.94020 0.36550 0.34290 -0.01600
N 	N 	0.87870 0.34990 0.44330 -0.25700
C 	C 	0.84540 0.35470 0.55330 0.05100
H 	H 	0.81920 0.34210 0.57120 -0.02100
C 	C 	0.85120 0.37830 0.63650 -0.14800
H 	H 	0.82890 0.38150 0.71010 0.07800
C 	C 	0.12020 0.55200 0.29200 -0.02600
H 	H 	0.12060 0.53670 0.35220 0.02900
N 	N 	0.97220 0.55947 0.10700 -0.25100
C 	C 	0.98720 0.53834 0.19770 0.04600
H 	H 	0.96420 0.52450 0.22390 -0.02900
C 	C 	0.03670 0.53785 0.24940 -0.13500
H 	H 	0.04670 0.52370 0.31010 0.06300
C 	C 	0.07110 0.55850 0.21020 0.06600
C 	C 	0.05610 0.57960 0.11950 -0.13500
H 	H 	0.07910 0.59340 0.09330 0.06200
C 	C 	0.00670 0.58011 0.06780 0.05200
H 	H 	0.99660 0.59420 0.00710 -0.03100
C 	C 	0.15950 0.56640 0.27900 -0.15500
H 	H 	0.15660 0.58020 0.21120 0.07000
C 	C 	0.20500 0.56650 0.34320 0.15400
C 	C 	0.21350 0.55100 0.46390 -0.18900
H 	H 	0.18670 0.54150 0.50610 0.09400
C 	C 	0.26200 0.54980 0.52150 0.08100
H 	H 	0.26770 0.53950 0.60230 -0.03300
N 	N 	0.30200 0.56400 0.45850 -0.25500
C 	C 	0.29350 0.57950 0.33780 0.07600
H 	H 	0.32020 0.58900 0.29560 -0.04500
C 	C 	0.24500 0.58070 0.28020 -0.19300
H 	H 	0.23930 0.59100 0.19940 0.07900
Cd	Cd	0.88538 0.56173 0.05090 1.15100
C 	C 	0.86930 0.41850 0.71500 -0.03400
