data_crystal

_cell_length_a 35.25930
_cell_length_b 14.84340
_cell_length_c 31.06970
_cell_angle_alpha 90.00000
_cell_angle_beta  101.61100
_cell_angle_gamma 90.00000

_symmetry_space_group_name_	'P 1'
_symmetry_space_group_name_H-M	'P 1'

loop_
_symmetry_equiv_pos_as_xyz
  x,y,z

loop_
_atom_site_label
_atom_site_type_symbol
_atom_site_fract_x
_atom_site_fract_y
_atom_site_fract_z
_atom_site_charge
Zn	Zn	0.66945 0.86060 0.51781 0.58200
I 	I 	0.72951 0.76499 0.54022 -0.03200
I 	I 	0.62295 0.84490 0.44411 -0.29900
Zn	Zn	0.37539 0.09930 0.68722 0.54800
I 	I 	0.39534 0.23668 0.64821 -0.31000
I 	I 	0.35685 0.10000 0.76158 -0.05700
Zn	Zn	0.08444 0.12647 0.34226 1.15700
I 	I 	0.02536 0.14940 0.37835 -0.20800
I 	I 	0.11819 0.24070 0.30478 -0.12800
Zn	Zn	0.87500 0.39500 0.18530 0.56700
I 	I 	0.89659 0.25940 0.14607 -0.25900
I 	I 	0.85241 0.40770 0.25960 -0.19100
Zn	Zn	0.17040 0.63923 0.02075 1.15700
I 	I 	0.23061 0.73579 0.04307 -0.15200
I 	I 	0.12364 0.65540 0.94639 -0.23200
Zn	Zn	0.08210 0.87673 0.84176 1.15600
I 	I 	0.11534 0.75706 0.80376 -0.17100
I 	I 	0.02356 0.85570 0.87689 -0.16000
N 	N 	0.63850 0.84390 0.56740 -0.29200
N 	N 	0.57060 0.48450 0.79790 -0.27000
N 	N 	0.42099 0.01210 0.69040 -0.27200
N 	N 	0.57569 0.72760 0.68720 -0.13600
N 	N 	0.52442 0.77340 0.72110 -0.14700
N 	N 	0.53937 0.85730 0.66140 -0.13600
N 	N 	0.33178 0.03540 0.64370 -0.26700
N 	N 	0.18390 0.49750 0.52530 -0.27900
N 	N 	0.12400 0.05900 0.38970 -0.27300
N 	N 	0.23400 0.81540 0.56130 -0.14100
N 	N 	0.18160 0.82830 0.50020 -0.13500
N 	N 	0.22092 0.95510 0.52300 -0.14400
N 	N 	0.07020 0.02010 0.29840 -0.27100
N 	N 	0.92001 0.49270 0.19160 -0.26900
N 	N 	0.13910 0.65640 0.06900 -0.28200
N 	N 	0.02349 0.72820 0.22247 -0.15100
N 	N 	0.03711 0.64660 0.16210 -0.13600
N 	N 	0.07445 0.77680 0.18780 -0.13700
N 	N 	0.18360 0.50280 0.02660 -0.27400
N 	N 	0.33282 0.96540 0.14120 -0.27000
N 	N 	0.12220 0.94120 0.89040 -0.27700
N 	N 	0.23540 0.18510 0.05890 -0.14100
N 	N 	0.22200 0.04660 0.02110 -0.14100
N 	N 	0.18252 0.17460 0.99840 -0.13600
C 	C 	0.60570 0.88390 0.56410 0.10800
H 	H 	0.59740 0.92260 0.53970 -0.03100
C 	C 	0.58230 0.87460 0.59330 -0.14500
H 	H 	0.55880 0.90760 0.58950 0.09000
C 	C 	0.59260 0.81650 0.62880 0.07300
C 	C 	0.62830 0.77400 0.63210 -0.13300
H 	H 	0.63750 0.73420 0.65590 0.08800
C 	C 	0.64940 0.78930 0.60200 0.08200
H 	H 	0.67370 0.75980 0.60520 -0.02200
C 	C 	0.59770 0.51120 0.77630 0.06800
H 	H 	0.62100 0.47750 0.77950 -0.01600
C 	C 	0.59320 0.58570 0.74960 -0.11700
H 	H 	0.61310 0.60330 0.73480 0.07700
C 	C 	0.55890 0.63540 0.74450 0.04700
C 	C 	0.53130 0.60960 0.76750 -0.11200
H 	H 	0.50820 0.64350 0.76560 0.06700
C 	C 	0.53780 0.53350 0.79350 0.06000
H 	H 	0.51840 0.51490 0.80890 -0.00900
C 	C 	0.43550 0.99900 0.65580 0.09400
H 	H 	0.42300 0.02660 0.62920 -0.01700
C 	C 	0.46780 0.94780 0.65500 -0.13600
H 	H 	0.47880 0.94500 0.62950 0.08900
C 	C 	0.48380 0.90000 0.69300 0.05600
C 	C 	0.46770 0.90820 0.72890 -0.13000
H 	H 	0.47820 0.87630 0.75510 0.07800
C 	C 	0.43670 0.96240 0.72690 0.06500
H 	H 	0.42520 0.96640 0.75200 -0.00800
C 	C 	0.56770 0.80010 0.66090 0.10200
C 	C 	0.55300 0.71720 0.71600 0.09200
C 	C 	0.51840 0.84170 0.69190 0.08800
C 	C 	0.31020 0.07990 0.61040 0.06700
H 	H 	0.31540 0.14170 0.60610 -0.00100
C 	C 	0.27990 0.03750 0.58170 -0.12300
H 	H 	0.26430 0.07110 0.55880 0.08900
C 	C 	0.27280 0.94850 0.58630 0.04600
C 	C 	0.29550 0.90280 0.62130 -0.11800
H 	H 	0.29110 0.84070 0.62590 0.08100
C 	C 	0.32430 0.94810 0.64900 0.06600
H 	H 	0.33950 0.91640 0.67290 -0.00400
C 	C 	0.21530 0.52810 0.55100 0.06800
H 	H 	0.23380 0.48680 0.56640 -0.01600
C 	C 	0.22200 0.62270 0.55640 -0.12100
H 	H 	0.24330 0.64440 0.57760 0.07800
C 	C 	0.19750 0.68180 0.53080 0.06500
C 	C 	0.16540 0.64810 0.50500 -0.12800
H 	H 	0.14680 0.68750 0.48840 0.08600
C 	C 	0.15930 0.55480 0.50270 0.07600
H 	H 	0.13660 0.53220 0.48400 -0.01700
C 	C 	0.11750 0.97270 0.39660 0.06600
H 	H 	0.09730 0.94310 0.37670 -0.00400
C 	C 	0.13900 0.92250 0.43160 -0.11600
H 	H 	0.13320 0.86100 0.43590 0.09100
C 	C 	0.16880 0.96620 0.45960 0.05700
C 	C 	0.17450 0.05560 0.45320 -0.12900
H 	H 	0.19380 0.08760 0.47310 0.07400
C 	C 	0.15210 0.09980 0.41780 0.07000
H 	H 	0.15710 0.16170 0.41340 -0.01800
C 	C 	0.24010 0.90340 0.55500 0.08700
C 	C 	0.20490 0.78110 0.53170 0.09900
C 	C 	0.19210 0.91370 0.49640 0.10200
C 	C 	0.09410 0.99790 0.27230 0.06600
H 	H 	0.11580 0.03590 0.27190 -0.01500
C 	C 	0.08930 0.92150 0.24520 -0.11600
H 	H 	0.10740 0.90770 0.22720 0.07700
C 	C 	0.05790 0.86720 0.24530 0.04800
C 	C 	0.03230 0.89120 0.27120 -0.11200
H 	H 	0.00980 0.85570 0.27100 0.06800
C 	C 	0.03900 0.96740 0.29780 0.06000
H 	H 	0.02130 0.98250 0.31590 -0.00700
C 	C 	0.93740 0.52950 0.22870 0.07300
H 	H 	0.92850 0.51650 0.25490 -0.00900
C 	C 	0.96910 0.58810 0.23050 -0.11800
H 	H 	0.98040 0.61700 0.25730 0.07600
C 	C 	0.98360 0.60310 0.19280 0.04400
C 	C 	0.96380 0.56430 0.15390 -0.12100
H 	H 	0.97160 0.57600 0.12690 0.08300
C 	C 	0.93290 0.50900 0.15500 0.07200
H 	H 	0.92010 0.48110 0.12850 -0.01700
C 	C 	0.14910 0.71530 0.10160 0.07100
H 	H 	0.17290 0.74680 0.10430 -0.01200
C 	C 	0.12550 0.73250 0.13260 -0.12500
H 	H 	0.13320 0.77550 0.15530 0.08400
C 	C 	0.09210 0.68740 0.12940 0.07700
C 	C 	0.08270 0.62350 0.09780 -0.13500
H 	H 	0.05960 0.58940 0.09560 0.08700
C 	C 	0.10700 0.60870 0.06930 0.08400
H 	H 	0.10060 0.56150 0.04840 -0.02200
C 	C 	0.05160 0.78520 0.21720 0.08600
C 	C 	0.01680 0.66350 0.19300 0.09300
C 	C 	0.06650 0.70440 0.16210 0.09600
C 	C 	0.15820 0.44420 0.00420 0.06500
H 	H 	0.13490 0.46710 0.98700 -0.01700
C 	C 	0.16400 0.35280 0.00470 -0.11900
H 	H 	0.14570 0.31420 0.98720 0.08200
C 	C 	0.19730 0.31770 0.03130 0.05300
C 	C 	0.22450 0.37840 0.05460 -0.12100
H 	H 	0.24820 0.35770 0.07180 0.07700
C 	C 	0.21570 0.46860 0.05160 0.07300
H 	H 	0.23350 0.50930 0.06850 -0.01200
C 	C 	0.31210 0.92260 0.10620 0.07000
H 	H 	0.31800 0.86130 0.10160 -0.00700
C 	C 	0.28310 0.96240 0.07700 -0.12600
H 	H 	0.26940 0.92990 0.05240 0.08900
C 	C 	0.27380 0.05310 0.08390 0.04300
C 	C 	0.29610 0.09780 0.11920 -0.12300
H 	H 	0.29190 0.15990 0.12400 0.08100
C 	C 	0.32440 0.05090 0.14700 0.07300
H 	H 	0.33870 0.08150 0.17190 -0.00700
C 	C 	0.11700 0.02930 0.89730 0.08100
H 	H 	0.09680 0.06000 0.87790 -0.00900
C 	C 	0.13860 0.07540 0.92980 -0.13800
H 	H 	0.13350 0.13760 0.93310 0.09700
C 	C 	0.16780 0.03550 0.95830 0.06800
C 	C 	0.17420 0.94390 0.95240 -0.13700
H 	H 	0.19410 0.91220 0.97170 0.07800
C 	C 	0.15040 0.90060 0.91750 0.08000
H 	H 	0.15480 0.83840 0.91310 -0.02100
C 	C 	0.20560 0.21950 0.02960 0.10500
C 	C 	0.24170 0.09730 0.05310 0.08800
C 	C 	0.19180 0.08710 0.99550 0.09400
Zn	Zn	0.67700 0.85930 0.52590 0.59300
I 	I 	0.74020 0.77670 0.55200 -0.33100
I 	I 	0.63280 0.83440 0.44910 -0.07300
Zn	Zn	0.37270 0.09530 0.69470 0.58800
I 	I 	0.38400 0.24750 0.66080 -0.04400
I 	I 	0.34930 0.07950 0.76470 -0.29100
I 	I 	0.02890 0.16500 0.37610 -0.11700
I 	I 	0.12670 0.23300 0.30529 -0.21600
Zn	Zn	0.87450 0.40890 0.18900 0.54600
I 	I 	0.89460 0.26850 0.15270 -0.07900
I 	I 	0.85024 0.38700 0.25642 -0.14200
I 	I 	0.23340 0.72700 0.04970 -0.18500
I 	I 	0.12440 0.67020 0.95180 -0.14100
I 	I 	0.12080 0.77030 0.80320 -0.17100
I 	I 	0.02500 0.84980 0.87860 -0.15800
Zn	Zn	0.16945 0.36060 0.51781 0.58300
I 	I 	0.22951 0.26499 0.54022 -0.03100
I 	I 	0.12295 0.34490 0.44411 -0.29800
Zn	Zn	0.87539 0.59930 0.68722 0.54900
I 	I 	0.89534 0.73668 0.64821 -0.30900
I 	I 	0.85685 0.60000 0.76158 -0.05500
Zn	Zn	0.58444 0.62647 0.34226 1.15800
I 	I 	0.52536 0.64940 0.37835 -0.20700
I 	I 	0.61819 0.74070 0.30478 -0.12700
Zn	Zn	0.37500 0.89500 0.18530 0.56800
I 	I 	0.39659 0.75940 0.14607 -0.25800
I 	I 	0.35241 0.90770 0.25960 -0.19000
Zn	Zn	0.67040 0.13923 0.02075 1.15800
I 	I 	0.73061 0.23579 0.04307 -0.15100
I 	I 	0.62364 0.15540 0.94639 -0.23100
Zn	Zn	0.58210 0.37673 0.84176 1.15700
I 	I 	0.61534 0.25706 0.80376 -0.17000
I 	I 	0.52356 0.35570 0.87689 -0.15900
N 	N 	0.13850 0.34390 0.56740 -0.29200
N 	N 	0.07060 0.98450 0.79790 -0.27000
N 	N 	0.92099 0.51210 0.69040 -0.27200
N 	N 	0.07569 0.22760 0.68720 -0.13600
N 	N 	0.02442 0.27340 0.72110 -0.14700
N 	N 	0.03937 0.35730 0.66140 -0.13600
N 	N 	0.83178 0.53540 0.64370 -0.26700
N 	N 	0.68390 0.99750 0.52530 -0.27900
N 	N 	0.62400 0.55900 0.38970 -0.27300
N 	N 	0.73400 0.31540 0.56130 -0.14100
N 	N 	0.68160 0.32830 0.50020 -0.13500
N 	N 	0.72092 0.45510 0.52300 -0.14400
N 	N 	0.57020 0.52010 0.29840 -0.27100
N 	N 	0.42001 0.99270 0.19160 -0.26900
N 	N 	0.63910 0.15640 0.06900 -0.28200
N 	N 	0.52349 0.22820 0.22247 -0.15100
N 	N 	0.53711 0.14660 0.16210 -0.13600
N 	N 	0.57445 0.27680 0.18780 -0.13700
N 	N 	0.68360 0.00280 0.02660 -0.27400
N 	N 	0.83282 0.46540 0.14120 -0.27000
N 	N 	0.62220 0.44120 0.89040 -0.27700
N 	N 	0.73540 0.68510 0.05890 -0.14100
N 	N 	0.72200 0.54660 0.02110 -0.14100
N 	N 	0.68252 0.67460 0.99840 -0.13600
C 	C 	0.10570 0.38390 0.56410 0.10800
H 	H 	0.09740 0.42260 0.53970 -0.03100
C 	C 	0.08230 0.37460 0.59330 -0.14500
H 	H 	0.05880 0.40760 0.58950 0.09000
C 	C 	0.09260 0.31650 0.62880 0.07300
C 	C 	0.12830 0.27400 0.63210 -0.13300
H 	H 	0.13750 0.23420 0.65590 0.08800
C 	C 	0.14940 0.28930 0.60200 0.08200
H 	H 	0.17370 0.25980 0.60520 -0.02200
C 	C 	0.09770 0.01120 0.77630 0.06800
H 	H 	0.12100 0.97750 0.77950 -0.01600
C 	C 	0.09320 0.08570 0.74960 -0.11700
H 	H 	0.11310 0.10330 0.73480 0.07700
C 	C 	0.05890 0.13540 0.74450 0.04600
C 	C 	0.03130 0.10960 0.76750 -0.11200
H 	H 	0.00820 0.14350 0.76560 0.06700
C 	C 	0.03780 0.03350 0.79350 0.06000
H 	H 	0.01840 0.01490 0.80890 -0.00900
C 	C 	0.93550 0.49900 0.65580 0.09400
H 	H 	0.92300 0.52660 0.62920 -0.01700
C 	C 	0.96780 0.44780 0.65500 -0.13600
H 	H 	0.97880 0.44500 0.62950 0.08900
C 	C 	0.98380 0.40000 0.69300 0.05600
C 	C 	0.96770 0.40820 0.72890 -0.13000
H 	H 	0.97820 0.37630 0.75510 0.07800
C 	C 	0.93670 0.46240 0.72690 0.06500
H 	H 	0.92520 0.46640 0.75200 -0.00800
C 	C 	0.06770 0.30010 0.66090 0.10200
C 	C 	0.05300 0.21720 0.71600 0.09200
C 	C 	0.01840 0.34170 0.69190 0.08800
C 	C 	0.81020 0.57990 0.61040 0.06700
H 	H 	0.81540 0.64170 0.60610 -0.00100
C 	C 	0.77990 0.53750 0.58170 -0.12300
H 	H 	0.76430 0.57110 0.55880 0.08900
C 	C 	0.77280 0.44850 0.58630 0.04600
C 	C 	0.79550 0.40280 0.62130 -0.11800
H 	H 	0.79110 0.34070 0.62590 0.08100
C 	C 	0.82430 0.44810 0.64900 0.06600
H 	H 	0.83950 0.41640 0.67290 -0.00400
C 	C 	0.71530 0.02810 0.55100 0.06800
H 	H 	0.73380 0.98680 0.56640 -0.01600
C 	C 	0.72200 0.12270 0.55640 -0.12100
H 	H 	0.74330 0.14440 0.57760 0.07700
C 	C 	0.69750 0.18180 0.53080 0.06500
C 	C 	0.66540 0.14810 0.50500 -0.12700
H 	H 	0.64680 0.18750 0.48840 0.08600
C 	C 	0.65930 0.05480 0.50270 0.07600
H 	H 	0.63660 0.03220 0.48400 -0.01700
C 	C 	0.61750 0.47270 0.39660 0.06600
H 	H 	0.59730 0.44310 0.37670 -0.00400
C 	C 	0.63900 0.42250 0.43160 -0.11600
H 	H 	0.63320 0.36100 0.43590 0.09100
C 	C 	0.66880 0.46620 0.45960 0.05700
C 	C 	0.67450 0.55560 0.45320 -0.12900
H 	H 	0.69380 0.58760 0.47310 0.07400
C 	C 	0.65210 0.59980 0.41780 0.07000
H 	H 	0.65710 0.66170 0.41340 -0.01800
C 	C 	0.74010 0.40340 0.55500 0.08700
C 	C 	0.70490 0.28110 0.53170 0.09900
C 	C 	0.69210 0.41370 0.49640 0.10200
C 	C 	0.59410 0.49790 0.27230 0.06600
H 	H 	0.61580 0.53590 0.27190 -0.01500
C 	C 	0.58930 0.42150 0.24520 -0.11600
H 	H 	0.60740 0.40770 0.22720 0.07700
C 	C 	0.55790 0.36720 0.24530 0.04800
C 	C 	0.53230 0.39120 0.27120 -0.11200
H 	H 	0.50980 0.35570 0.27100 0.06800
C 	C 	0.53900 0.46740 0.29780 0.06000
H 	H 	0.52130 0.48250 0.31590 -0.00700
C 	C 	0.43740 0.02950 0.22870 0.07300
H 	H 	0.42850 0.01650 0.25490 -0.00900
C 	C 	0.46910 0.08810 0.23050 -0.11800
H 	H 	0.48040 0.11700 0.25730 0.07600
C 	C 	0.48360 0.10310 0.19280 0.04400
C 	C 	0.46380 0.06430 0.15390 -0.12100
H 	H 	0.47160 0.07600 0.12690 0.08300
C 	C 	0.43290 0.00900 0.15500 0.07200
H 	H 	0.42010 0.98110 0.12850 -0.01700
C 	C 	0.64910 0.21530 0.10160 0.07100
H 	H 	0.67290 0.24680 0.10430 -0.01200
C 	C 	0.62550 0.23250 0.13260 -0.12500
H 	H 	0.63320 0.27550 0.15530 0.08400
C 	C 	0.59210 0.18740 0.12940 0.07700
C 	C 	0.58270 0.12350 0.09780 -0.13500
H 	H 	0.55960 0.08940 0.09560 0.08700
C 	C 	0.60700 0.10870 0.06930 0.08400
H 	H 	0.60060 0.06150 0.04840 -0.02200
C 	C 	0.55160 0.28520 0.21720 0.08600
C 	C 	0.51680 0.16350 0.19300 0.09300
C 	C 	0.56650 0.20440 0.16210 0.09600
C 	C 	0.65820 0.94420 0.00420 0.06500
H 	H 	0.63490 0.96710 0.98700 -0.01700
C 	C 	0.66400 0.85280 0.00470 -0.11800
H 	H 	0.64570 0.81420 0.98720 0.08100
C 	C 	0.69730 0.81770 0.03130 0.05300
C 	C 	0.72450 0.87840 0.05460 -0.12100
H 	H 	0.74820 0.85770 0.07180 0.07700
C 	C 	0.71570 0.96860 0.05160 0.07300
H 	H 	0.73350 0.00930 0.06850 -0.01300
C 	C 	0.81210 0.42260 0.10620 0.07000
H 	H 	0.81800 0.36130 0.10160 -0.00700
C 	C 	0.78310 0.46240 0.07700 -0.12600
H 	H 	0.76940 0.42990 0.05240 0.08900
C 	C 	0.77380 0.55310 0.08390 0.04300
C 	C 	0.79610 0.59780 0.11920 -0.12300
H 	H 	0.79190 0.65990 0.12400 0.08100
C 	C 	0.82440 0.55090 0.14700 0.07300
H 	H 	0.83870 0.58150 0.17190 -0.00700
C 	C 	0.61700 0.52930 0.89730 0.08100
H 	H 	0.59680 0.56000 0.87790 -0.00900
C 	C 	0.63860 0.57540 0.92980 -0.13900
H 	H 	0.63350 0.63760 0.93310 0.09700
C 	C 	0.66780 0.53550 0.95830 0.06800
C 	C 	0.67420 0.44390 0.95240 -0.13700
H 	H 	0.69410 0.41220 0.97170 0.07800
C 	C 	0.65040 0.40060 0.91750 0.08000
H 	H 	0.65480 0.33840 0.91310 -0.02100
C 	C 	0.70560 0.71950 0.02960 0.10500
C 	C 	0.74170 0.59730 0.05310 0.08800
C 	C 	0.69180 0.58710 0.99550 0.09400
Zn	Zn	0.17700 0.35930 0.52590 0.59300
I 	I 	0.24020 0.27670 0.55200 -0.33100
I 	I 	0.13280 0.33440 0.44910 -0.07300
Zn	Zn	0.87270 0.59530 0.69470 0.58800
I 	I 	0.88400 0.74750 0.66080 -0.04400
I 	I 	0.84930 0.57950 0.76470 -0.29100
I 	I 	0.52890 0.66500 0.37610 -0.11600
I 	I 	0.62670 0.73300 0.30529 -0.21600
Zn	Zn	0.37450 0.90890 0.18900 0.54600
I 	I 	0.39460 0.76850 0.15270 -0.07900
I 	I 	0.35024 0.88700 0.25642 -0.14200
I 	I 	0.73340 0.22700 0.04970 -0.18500
I 	I 	0.62440 0.17020 0.95180 -0.14100
I 	I 	0.62080 0.27030 0.80320 -0.17100
I 	I 	0.52500 0.34980 0.87860 -0.15800
Zn	Zn	0.33055 0.86060 0.48219 0.58300
I 	I 	0.27049 0.76499 0.45978 -0.03100
I 	I 	0.37705 0.84490 0.55589 -0.29800
Zn	Zn	0.62461 0.09930 0.31278 0.54900
I 	I 	0.60466 0.23668 0.35179 -0.30900
I 	I 	0.64315 0.10000 0.23842 -0.05600
Zn	Zn	0.91556 0.12647 0.65774 1.15800
I 	I 	0.97464 0.14940 0.62165 -0.20700
I 	I 	0.88181 0.24070 0.69522 -0.12700
Zn	Zn	0.12500 0.39500 0.81470 0.56800
I 	I 	0.10341 0.25940 0.85393 -0.25800
I 	I 	0.14759 0.40770 0.74040 -0.19000
Zn	Zn	0.82960 0.63923 0.97925 1.15800
I 	I 	0.76939 0.73579 0.95693 -0.15100
I 	I 	0.87636 0.65540 0.05361 -0.23100
Zn	Zn	0.91790 0.87673 0.15824 1.15700
I 	I 	0.88466 0.75706 0.19624 -0.17000
I 	I 	0.97644 0.85570 0.12311 -0.15900
N 	N 	0.36150 0.84390 0.43260 -0.29200
N 	N 	0.42940 0.48450 0.20210 -0.27000
N 	N 	0.57901 0.01210 0.30960 -0.27200
N 	N 	0.42431 0.72760 0.31280 -0.13600
N 	N 	0.47558 0.77340 0.27890 -0.14700
N 	N 	0.46063 0.85730 0.33860 -0.13600
N 	N 	0.66822 0.03540 0.35630 -0.26700
N 	N 	0.81610 0.49750 0.47470 -0.27900
N 	N 	0.87600 0.05900 0.61030 -0.27300
N 	N 	0.76600 0.81540 0.43870 -0.14100
N 	N 	0.81840 0.82830 0.49980 -0.13500
N 	N 	0.77908 0.95510 0.47700 -0.14400
N 	N 	0.92980 0.02010 0.70160 -0.27100
N 	N 	0.07999 0.49270 0.80840 -0.26900
N 	N 	0.86090 0.65640 0.93100 -0.28200
N 	N 	0.97651 0.72820 0.77753 -0.15100
N 	N 	0.96289 0.64660 0.83790 -0.13600
N 	N 	0.92555 0.77680 0.81220 -0.13700
N 	N 	0.81640 0.50280 0.97340 -0.27400
N 	N 	0.66718 0.96540 0.85880 -0.27000
N 	N 	0.87780 0.94120 0.10960 -0.27700
N 	N 	0.76460 0.18510 0.94110 -0.14100
N 	N 	0.77800 0.04660 0.97890 -0.14100
N 	N 	0.81748 0.17460 0.00160 -0.13600
C 	C 	0.39430 0.88390 0.43590 0.10800
H 	H 	0.40260 0.92260 0.46030 -0.03100
C 	C 	0.41770 0.87460 0.40670 -0.14500
H 	H 	0.44120 0.90760 0.41050 0.09000
C 	C 	0.40740 0.81650 0.37120 0.07300
C 	C 	0.37170 0.77400 0.36790 -0.13300
H 	H 	0.36250 0.73420 0.34410 0.08800
C 	C 	0.35060 0.78930 0.39800 0.08200
H 	H 	0.32630 0.75980 0.39480 -0.02200
C 	C 	0.40230 0.51120 0.22370 0.06800
H 	H 	0.37900 0.47750 0.22050 -0.01600
C 	C 	0.40680 0.58570 0.25040 -0.11700
H 	H 	0.38690 0.60330 0.26520 0.07700
C 	C 	0.44110 0.63540 0.25550 0.04700
C 	C 	0.46870 0.60960 0.23250 -0.11200
H 	H 	0.49180 0.64350 0.23440 0.06700
C 	C 	0.46220 0.53350 0.20650 0.06000
H 	H 	0.48160 0.51490 0.19110 -0.00900
C 	C 	0.56450 0.99900 0.34420 0.09400
H 	H 	0.57700 0.02660 0.37080 -0.01700
C 	C 	0.53220 0.94780 0.34500 -0.13600
H 	H 	0.52120 0.94500 0.37050 0.08900
C 	C 	0.51620 0.90000 0.30700 0.05600
C 	C 	0.53230 0.90820 0.27110 -0.13000
H 	H 	0.52180 0.87630 0.24490 0.07800
C 	C 	0.56330 0.96240 0.27310 0.06500
H 	H 	0.57480 0.96640 0.24800 -0.00800
C 	C 	0.43230 0.80010 0.33910 0.10200
C 	C 	0.44700 0.71720 0.28400 0.09200
C 	C 	0.48160 0.84170 0.30810 0.08800
C 	C 	0.68980 0.07990 0.38960 0.06700
H 	H 	0.68460 0.14170 0.39390 -0.00100
C 	C 	0.72010 0.03750 0.41830 -0.12300
H 	H 	0.73570 0.07110 0.44120 0.08900
C 	C 	0.72720 0.94850 0.41370 0.04600
C 	C 	0.70450 0.90280 0.37870 -0.11800
H 	H 	0.70890 0.84070 0.37410 0.08100
C 	C 	0.67570 0.94810 0.35100 0.06600
H 	H 	0.66050 0.91640 0.32710 -0.00400
C 	C 	0.78470 0.52810 0.44900 0.06800
H 	H 	0.76620 0.48680 0.43360 -0.01600
C 	C 	0.77800 0.62270 0.44360 -0.12100
H 	H 	0.75670 0.64440 0.42240 0.07800
C 	C 	0.80250 0.68180 0.46920 0.06500
C 	C 	0.83460 0.64810 0.49500 -0.12800
H 	H 	0.85320 0.68750 0.51160 0.08600
C 	C 	0.84070 0.55480 0.49730 0.07600
H 	H 	0.86340 0.53220 0.51600 -0.01700
C 	C 	0.88250 0.97270 0.60340 0.06600
H 	H 	0.90270 0.94310 0.62330 -0.00400
C 	C 	0.86100 0.92250 0.56840 -0.11600
H 	H 	0.86680 0.86100 0.56410 0.09100
C 	C 	0.83120 0.96620 0.54040 0.05700
C 	C 	0.82550 0.05560 0.54680 -0.12900
H 	H 	0.80620 0.08760 0.52690 0.07400
C 	C 	0.84790 0.09980 0.58220 0.07000
H 	H 	0.84290 0.16170 0.58660 -0.01800
C 	C 	0.75990 0.90340 0.44500 0.08700
C 	C 	0.79510 0.78110 0.46830 0.09900
C 	C 	0.80790 0.91370 0.50360 0.10200
C 	C 	0.90590 0.99790 0.72770 0.06600
H 	H 	0.88420 0.03590 0.72810 -0.01500
C 	C 	0.91070 0.92150 0.75480 -0.11600
H 	H 	0.89260 0.90770 0.77280 0.07700
C 	C 	0.94210 0.86720 0.75470 0.04800
C 	C 	0.96770 0.89120 0.72880 -0.11200
H 	H 	0.99020 0.85570 0.72900 0.06800
C 	C 	0.96100 0.96740 0.70220 0.06000
H 	H 	0.97870 0.98250 0.68410 -0.00700
C 	C 	0.06260 0.52950 0.77130 0.07300
H 	H 	0.07150 0.51650 0.74510 -0.00900
C 	C 	0.03090 0.58810 0.76950 -0.11800
H 	H 	0.01960 0.61700 0.74270 0.07600
C 	C 	0.01640 0.60310 0.80720 0.04400
C 	C 	0.03620 0.56430 0.84610 -0.12100
H 	H 	0.02840 0.57600 0.87310 0.08300
C 	C 	0.06710 0.50900 0.84500 0.07200
H 	H 	0.07990 0.48110 0.87150 -0.01700
C 	C 	0.85090 0.71530 0.89840 0.07100
H 	H 	0.82710 0.74680 0.89570 -0.01200
C 	C 	0.87450 0.73250 0.86740 -0.12500
H 	H 	0.86680 0.77550 0.84470 0.08400
C 	C 	0.90790 0.68740 0.87060 0.07700
C 	C 	0.91730 0.62350 0.90220 -0.13500
H 	H 	0.94040 0.58940 0.90440 0.08700
C 	C 	0.89300 0.60870 0.93070 0.08400
H 	H 	0.89940 0.56150 0.95160 -0.02200
C 	C 	0.94840 0.78520 0.78280 0.08600
C 	C 	0.98320 0.66350 0.80700 0.09300
C 	C 	0.93350 0.70440 0.83790 0.09600
C 	C 	0.84180 0.44420 0.99580 0.06500
H 	H 	0.86510 0.46710 0.01300 -0.01700
C 	C 	0.83600 0.35280 0.99530 -0.11900
H 	H 	0.85430 0.31420 0.01280 0.08200
C 	C 	0.80270 0.31770 0.96870 0.05300
C 	C 	0.77550 0.37840 0.94540 -0.12100
H 	H 	0.75180 0.35770 0.92820 0.07700
C 	C 	0.78430 0.46860 0.94840 0.07300
H 	H 	0.76650 0.50930 0.93150 -0.01200
C 	C 	0.68790 0.92260 0.89380 0.07000
H 	H 	0.68200 0.86130 0.89840 -0.00700
C 	C 	0.71690 0.96240 0.92300 -0.12600
H 	H 	0.73060 0.92990 0.94760 0.08900
C 	C 	0.72620 0.05310 0.91610 0.04300
C 	C 	0.70390 0.09780 0.88080 -0.12300
H 	H 	0.70810 0.15990 0.87600 0.08100
C 	C 	0.67560 0.05090 0.85300 0.07300
H 	H 	0.66130 0.08150 0.82810 -0.00700
C 	C 	0.88300 0.02930 0.10270 0.08100
H 	H 	0.90320 0.06000 0.12210 -0.00900
C 	C 	0.86140 0.07540 0.07020 -0.13800
H 	H 	0.86650 0.13760 0.06690 0.09700
C 	C 	0.83220 0.03550 0.04170 0.06800
C 	C 	0.82580 0.94390 0.04760 -0.13700
H 	H 	0.80590 0.91220 0.02830 0.07800
C 	C 	0.84960 0.90060 0.08250 0.08000
H 	H 	0.84520 0.83840 0.08690 -0.02100
C 	C 	0.79440 0.21950 0.97040 0.10500
C 	C 	0.75830 0.09730 0.94690 0.08800
C 	C 	0.80820 0.08710 0.00450 0.09400
Zn	Zn	0.32300 0.85930 0.47410 0.59300
I 	I 	0.25980 0.77670 0.44800 -0.33100
I 	I 	0.36720 0.83440 0.55090 -0.07300
Zn	Zn	0.62730 0.09530 0.30530 0.58800
I 	I 	0.61600 0.24750 0.33920 -0.04400
I 	I 	0.65070 0.07950 0.23530 -0.29100
I 	I 	0.97110 0.16500 0.62390 -0.11700
I 	I 	0.87330 0.23300 0.69471 -0.21600
Zn	Zn	0.12550 0.40890 0.81100 0.54600
I 	I 	0.10540 0.26850 0.84730 -0.07900
I 	I 	0.14976 0.38700 0.74358 -0.14200
I 	I 	0.76660 0.72700 0.95030 -0.18500
I 	I 	0.87560 0.67020 0.04820 -0.14100
I 	I 	0.87920 0.77030 0.19680 -0.17100
I 	I 	0.97500 0.84980 0.12140 -0.15800
Zn	Zn	0.83055 0.36060 0.48219 0.58300
I 	I 	0.77049 0.26499 0.45978 -0.03100
I 	I 	0.87705 0.34490 0.55589 -0.29800
Zn	Zn	0.12461 0.59930 0.31278 0.54900
I 	I 	0.10466 0.73668 0.35179 -0.30900
I 	I 	0.14315 0.60000 0.23842 -0.05500
Zn	Zn	0.41556 0.62647 0.65774 1.15800
I 	I 	0.47464 0.64940 0.62165 -0.20700
I 	I 	0.38181 0.74070 0.69522 -0.12700
Zn	Zn	0.62500 0.89500 0.81470 0.56800
I 	I 	0.60341 0.75940 0.85393 -0.25800
I 	I 	0.64759 0.90770 0.74040 -0.19000
Zn	Zn	0.32960 0.13923 0.97925 1.15800
I 	I 	0.26939 0.23579 0.95693 -0.15100
I 	I 	0.37636 0.15540 0.05361 -0.23100
Zn	Zn	0.41790 0.37673 0.15824 1.15700
I 	I 	0.38466 0.25706 0.19624 -0.17000
I 	I 	0.47644 0.35570 0.12311 -0.15900
N 	N 	0.86150 0.34390 0.43260 -0.29200
N 	N 	0.92940 0.98450 0.20210 -0.27000
N 	N 	0.07901 0.51210 0.30960 -0.27200
N 	N 	0.92431 0.22760 0.31280 -0.13600
N 	N 	0.97558 0.27340 0.27890 -0.14700
N 	N 	0.96063 0.35730 0.33860 -0.13600
N 	N 	0.16822 0.53540 0.35630 -0.26700
N 	N 	0.31610 0.99750 0.47470 -0.27900
N 	N 	0.37600 0.55900 0.61030 -0.27300
N 	N 	0.26600 0.31540 0.43870 -0.14100
N 	N 	0.31840 0.32830 0.49980 -0.13500
N 	N 	0.27908 0.45510 0.47700 -0.14400
N 	N 	0.42980 0.52010 0.70160 -0.27100
N 	N 	0.57999 0.99270 0.80840 -0.26900
N 	N 	0.36090 0.15640 0.93100 -0.28200
N 	N 	0.47651 0.22820 0.77753 -0.15100
N 	N 	0.46289 0.14660 0.83790 -0.13600
N 	N 	0.42555 0.27680 0.81220 -0.13700
N 	N 	0.31640 0.00280 0.97340 -0.27400
N 	N 	0.16718 0.46540 0.85880 -0.27000
N 	N 	0.37780 0.44120 0.10960 -0.27700
N 	N 	0.26460 0.68510 0.94110 -0.14100
N 	N 	0.27800 0.54660 0.97890 -0.14100
N 	N 	0.31748 0.67460 0.00160 -0.13600
C 	C 	0.89430 0.38390 0.43590 0.10800
H 	H 	0.90260 0.42260 0.46030 -0.03100
C 	C 	0.91770 0.37460 0.40670 -0.14500
H 	H 	0.94120 0.40760 0.41050 0.09000
C 	C 	0.90740 0.31650 0.37120 0.07300
C 	C 	0.87170 0.27400 0.36790 -0.13300
H 	H 	0.86250 0.23420 0.34410 0.08800
C 	C 	0.85060 0.28930 0.39800 0.08200
H 	H 	0.82630 0.25980 0.39480 -0.02200
C 	C 	0.90230 0.01120 0.22370 0.06800
H 	H 	0.87900 0.97750 0.22050 -0.01600
C 	C 	0.90680 0.08570 0.25040 -0.11700
H 	H 	0.88690 0.10330 0.26520 0.07700
C 	C 	0.94110 0.13540 0.25550 0.04600
C 	C 	0.96870 0.10960 0.23250 -0.11200
H 	H 	0.99180 0.14350 0.23440 0.06700
C 	C 	0.96220 0.03350 0.20650 0.06000
H 	H 	0.98160 0.01490 0.19110 -0.00900
C 	C 	0.06450 0.49900 0.34420 0.09400
H 	H 	0.07700 0.52660 0.37080 -0.01700
C 	C 	0.03220 0.44780 0.34500 -0.13600
H 	H 	0.02120 0.44500 0.37050 0.08900
C 	C 	0.01620 0.40000 0.30700 0.05600
C 	C 	0.03230 0.40820 0.27110 -0.13000
H 	H 	0.02180 0.37630 0.24490 0.07800
C 	C 	0.06330 0.46240 0.27310 0.06500
H 	H 	0.07480 0.46640 0.24800 -0.00800
C 	C 	0.93230 0.30010 0.33910 0.10200
C 	C 	0.94700 0.21720 0.28400 0.09200
C 	C 	0.98160 0.34170 0.30810 0.08800
C 	C 	0.18980 0.57990 0.38960 0.06700
H 	H 	0.18460 0.64170 0.39390 -0.00100
C 	C 	0.22010 0.53750 0.41830 -0.12300
H 	H 	0.23570 0.57110 0.44120 0.08900
C 	C 	0.22720 0.44850 0.41370 0.04600
C 	C 	0.20450 0.40280 0.37870 -0.11800
H 	H 	0.20890 0.34070 0.37410 0.08100
C 	C 	0.17570 0.44810 0.35100 0.06600
H 	H 	0.16050 0.41640 0.32710 -0.00400
C 	C 	0.28470 0.02810 0.44900 0.06800
H 	H 	0.26620 0.98680 0.43360 -0.01600
C 	C 	0.27800 0.12270 0.44360 -0.12100
H 	H 	0.25670 0.14440 0.42240 0.07700
C 	C 	0.30250 0.18180 0.46920 0.06500
C 	C 	0.33460 0.14810 0.49500 -0.12700
H 	H 	0.35320 0.18750 0.51160 0.08600
C 	C 	0.34070 0.05480 0.49730 0.07600
H 	H 	0.36340 0.03220 0.51600 -0.01700
C 	C 	0.38250 0.47270 0.60340 0.06600
H 	H 	0.40270 0.44310 0.62330 -0.00400
C 	C 	0.36100 0.42250 0.56840 -0.11600
H 	H 	0.36680 0.36100 0.56410 0.09100
C 	C 	0.33120 0.46620 0.54040 0.05700
C 	C 	0.32550 0.55560 0.54680 -0.12900
H 	H 	0.30620 0.58760 0.52690 0.07400
C 	C 	0.34790 0.59980 0.58220 0.07000
H 	H 	0.34290 0.66170 0.58660 -0.01800
C 	C 	0.25990 0.40340 0.44500 0.08700
C 	C 	0.29510 0.28110 0.46830 0.09900
C 	C 	0.30790 0.41370 0.50360 0.10200
C 	C 	0.40590 0.49790 0.72770 0.06600
H 	H 	0.38420 0.53590 0.72810 -0.01500
C 	C 	0.41070 0.42150 0.75480 -0.11600
H 	H 	0.39260 0.40770 0.77280 0.07700
C 	C 	0.44210 0.36720 0.75470 0.04800
C 	C 	0.46770 0.39120 0.72880 -0.11200
H 	H 	0.49020 0.35570 0.72900 0.06800
C 	C 	0.46100 0.46740 0.70220 0.06000
H 	H 	0.47870 0.48250 0.68410 -0.00700
C 	C 	0.56260 0.02950 0.77130 0.07300
H 	H 	0.57150 0.01650 0.74510 -0.00900
C 	C 	0.53090 0.08810 0.76950 -0.11800
H 	H 	0.51960 0.11700 0.74270 0.07600
C 	C 	0.51640 0.10310 0.80720 0.04400
C 	C 	0.53620 0.06430 0.84610 -0.12100
H 	H 	0.52840 0.07600 0.87310 0.08300
C 	C 	0.56710 0.00900 0.84500 0.07200
H 	H 	0.57990 0.98110 0.87150 -0.01700
C 	C 	0.35090 0.21530 0.89840 0.07100
H 	H 	0.32710 0.24680 0.89570 -0.01200
C 	C 	0.37450 0.23250 0.86740 -0.12500
H 	H 	0.36680 0.27550 0.84470 0.08400
C 	C 	0.40790 0.18740 0.87060 0.07700
C 	C 	0.41730 0.12350 0.90220 -0.13500
H 	H 	0.44040 0.08940 0.90440 0.08700
C 	C 	0.39300 0.10870 0.93070 0.08400
H 	H 	0.39940 0.06150 0.95160 -0.02200
C 	C 	0.44840 0.28520 0.78280 0.08600
C 	C 	0.48320 0.16350 0.80700 0.09300
C 	C 	0.43350 0.20440 0.83790 0.09600
C 	C 	0.34180 0.94420 0.99580 0.06500
H 	H 	0.36510 0.96710 0.01300 -0.01700
C 	C 	0.33600 0.85280 0.99530 -0.11800
H 	H 	0.35430 0.81420 0.01280 0.08100
C 	C 	0.30270 0.81770 0.96870 0.05300
C 	C 	0.27550 0.87840 0.94540 -0.12100
H 	H 	0.25180 0.85770 0.92820 0.07700
C 	C 	0.28430 0.96860 0.94840 0.07300
H 	H 	0.26650 0.00930 0.93150 -0.01300
C 	C 	0.18790 0.42260 0.89380 0.07000
H 	H 	0.18200 0.36130 0.89840 -0.00700
C 	C 	0.21690 0.46240 0.92300 -0.12600
H 	H 	0.23060 0.42990 0.94760 0.08900
C 	C 	0.22620 0.55310 0.91610 0.04300
C 	C 	0.20390 0.59780 0.88080 -0.12300
H 	H 	0.20810 0.65990 0.87600 0.08100
C 	C 	0.17560 0.55090 0.85300 0.07300
H 	H 	0.16130 0.58150 0.82810 -0.00700
C 	C 	0.38300 0.52930 0.10270 0.08100
H 	H 	0.40320 0.56000 0.12210 -0.00900
C 	C 	0.36140 0.57540 0.07020 -0.13900
H 	H 	0.36650 0.63760 0.06690 0.09700
C 	C 	0.33220 0.53550 0.04170 0.06800
C 	C 	0.32580 0.44390 0.04760 -0.13700
H 	H 	0.30590 0.41220 0.02830 0.07800
C 	C 	0.34960 0.40060 0.08250 0.08000
H 	H 	0.34520 0.33840 0.08690 -0.02100
C 	C 	0.29440 0.71950 0.97040 0.10500
C 	C 	0.25830 0.59730 0.94690 0.08800
C 	C 	0.30820 0.58710 0.00450 0.09400
Zn	Zn	0.82300 0.35930 0.47410 0.59300
I 	I 	0.75980 0.27670 0.44800 -0.33100
I 	I 	0.86720 0.33440 0.55090 -0.07300
Zn	Zn	0.12730 0.59530 0.30530 0.58800
I 	I 	0.11600 0.74750 0.33920 -0.04400
I 	I 	0.15070 0.57950 0.23530 -0.29100
I 	I 	0.47110 0.66500 0.62390 -0.11600
I 	I 	0.37330 0.73300 0.69471 -0.21600
Zn	Zn	0.62550 0.90890 0.81100 0.54600
I 	I 	0.60540 0.76850 0.84730 -0.07900
I 	I 	0.64976 0.88700 0.74358 -0.14200
I 	I 	0.26660 0.22700 0.95030 -0.18500
I 	I 	0.37560 0.17020 0.04820 -0.14100
I 	I 	0.37920 0.27030 0.19680 -0.17100
I 	I 	0.47500 0.34980 0.12140 -0.15800
