data_crystal

_cell_length_a 35.18450
_cell_length_b 14.85610
_cell_length_c 31.08550
_cell_angle_alpha 90.00000
_cell_angle_beta  101.73900
_cell_angle_gamma 90.00000

_symmetry_space_group_name_	'P 1'
_symmetry_space_group_name_H-M	'P 1'

loop_
_symmetry_equiv_pos_as_xyz
  x,y,z

loop_
_atom_site_label
_atom_site_type_symbol
_atom_site_fract_x
_atom_site_fract_y
_atom_site_fract_z
_atom_site_charge
Zn	Zn	0.62600 0.40290 0.31140 0.53300
I 	I 	0.64790 0.41580 0.23900 -0.23600
I 	I 	0.60390 0.26310 0.35230 -0.30400
Zn	Zn	0.32630 0.64000 0.47620 0.57800
I 	I 	0.26440 0.72250 0.44810 -0.23000
I 	I 	0.37644 0.65720 0.55327 -0.46000
Zn	Zn	0.42030 0.87220 0.65610 0.53900
I 	I 	0.47880 0.85500 0.62060 -0.22600
I 	I 	0.38090 0.76210 0.69330 -0.16200
Zn	Zn	0.32730 0.35730 0.97490 0.53900
I 	I 	0.27042 0.26080 0.95749 -0.03100
I 	I 	0.37120 0.33200 0.05060 -0.09400
Zn	Zn	0.41610 0.11410 0.15770 0.64600
I 	I 	0.47582 0.14900 0.12021 -0.23100
I 	I 	0.38422 0.23920 0.19310 -0.13800
Zn	Zn	0.12580 0.08620 0.80790 0.60900
I 	I 	0.14390 0.10040 0.74280 -0.01400
I 	I 	0.10500 0.23820 0.85640 -0.44100
N 	N 	0.58000 0.48690 0.30880 -0.27600
N 	N 	0.43100 0.01160 0.20150 -0.29500
N 	N 	0.36080 0.65550 0.42890 -0.30500
N 	N 	0.47640 0.72580 0.27810 -0.14500
N 	N 	0.42470 0.77240 0.31110 -0.14300
N 	N 	0.46150 0.64300 0.33740 -0.11800
N 	N 	0.31510 0.50230 0.47370 -0.29000
N 	N 	0.16730 0.96330 0.35850 -0.26700
N 	N 	0.38010 0.94030 0.60820 -0.28200
N 	N 	0.26520 0.18490 0.44130 -0.14200
N 	N 	0.27860 0.04560 0.47880 -0.13900
N 	N 	0.31790 0.17240 0.50140 -0.13700
N 	N 	0.43230 0.97830 0.70130 -0.25700
N 	N 	0.57900 0.50710 0.80930 -0.27700
N 	N 	0.36030 0.34030 0.93070 -0.28000
N 	N 	0.47620 0.27110 0.77750 -0.14900
N 	N 	0.46090 0.35500 0.83640 -0.13700
N 	N 	0.42510 0.22330 0.81110 -0.13700
N 	N 	0.31640 0.49270 0.97270 -0.26700
N 	N 	0.37760 0.05250 0.10950 -0.27300
N 	N 	0.16840 0.02760 0.85770 -0.29000
N 	N 	0.31840 0.82010 0.00120 -0.13300
N 	N 	0.27950 0.94950 0.97830 -0.13900
N 	N 	0.26480 0.81030 0.94040 -0.14100
C 	C 	0.56370 0.49640 0.34290 0.10400
H 	H 	0.57230 0.45840 0.36670 -0.00900
C 	C 	0.53490 0.55790 0.34670 -0.14500
H 	H 	0.52840 0.57160 0.37350 0.12600
C 	C 	0.51590 0.59860 0.30660 0.07900
C 	C 	0.53220 0.58660 0.27000 -0.16200
H 	H 	0.52240 0.61640 0.24380 0.09400
C 	C 	0.56310 0.52940 0.27390 0.11800
H 	H 	0.57300 0.52010 0.24870 -0.02100
C 	C 	0.46070 0.96080 0.20280 0.11900
H 	H 	0.47770 0.97380 0.18430 -0.02900
C 	C 	0.46820 0.88740 0.23060 -0.17100
H 	H 	0.49140 0.85600 0.23310 0.09100
C 	C 	0.44220 0.86170 0.25360 0.08600
C 	C 	0.41130 0.92110 0.25160 -0.19100
H 	H 	0.39310 0.90990 0.26890 0.08500
C 	C 	0.40690 0.99340 0.22580 0.12800
H 	H 	0.38580 0.03140 0.22550 -0.05000
C 	C 	0.39300 0.60700 0.42740 0.16500
H 	H 	0.39770 0.55690 0.44540 -0.03700
C 	C 	0.41740 0.62400 0.40360 -0.21900
H 	H 	0.44160 0.59640 0.40890 0.14400
C 	C 	0.40760 0.68460 0.36980 0.13200
C 	C 	0.37490 0.73410 0.36610 -0.20000
H 	H 	0.36680 0.77550 0.34370 0.10200
C 	C 	0.35380 0.71630 0.40060 0.13700
H 	H 	0.33290 0.75390 0.40180 -0.04300
C 	C 	0.48160 0.65830 0.30710 0.09000
C 	C 	0.44770 0.78240 0.28280 0.06700
C 	C 	0.43160 0.70180 0.33740 0.07200
C 	C 	0.34090 0.44470 0.49570 0.09700
H 	H 	0.36400 0.46790 0.51180 -0.04500
C 	C 	0.33570 0.35450 0.49620 -0.17800
H 	H 	0.35390 0.31710 0.51340 0.09600
C 	C 	0.30150 0.31920 0.46940 0.09700
C 	C 	0.27740 0.37590 0.44550 -0.18200
H 	H 	0.25480 0.35520 0.42720 0.09800
C 	C 	0.28630 0.46830 0.44800 0.12800
H 	H 	0.26970 0.50710 0.42950 -0.03300
C 	C 	0.17350 0.04840 0.35410 0.07500
H 	H 	0.15750 0.07960 0.33150 -0.00700
C 	C 	0.20450 0.09760 0.38320 -0.13400
H 	H 	0.20870 0.15850 0.37910 0.08400
C 	C 	0.22650 0.05120 0.41590 0.05300
C 	C 	0.21900 0.96130 0.42260 -0.13000
H 	H 	0.23420 0.92940 0.44550 0.09500
C 	C 	0.18790 0.91930 0.39380 0.06300
H 	H 	0.18150 0.86020 0.39910 -0.00000
C 	C 	0.35180 0.90050 0.58280 0.09100
H 	H 	0.34770 0.83980 0.58740 -0.02700
C 	C 	0.32680 0.94430 0.54820 -0.16500
H 	H 	0.30660 0.91340 0.53020 0.09200
C 	C 	0.33300 0.03460 0.54170 0.08800
C 	C 	0.36410 0.07430 0.56760 -0.18300
H 	H 	0.37130 0.13290 0.56230 0.10600
C 	C 	0.38440 0.02590 0.60170 0.10500
H 	H 	0.40290 0.05650 0.62210 -0.02400
C 	C 	0.29510 0.21900 0.47140 0.08100
C 	C 	0.25980 0.09600 0.44770 0.08000
C 	C 	0.30820 0.08690 0.50580 0.08200
C 	C 	0.40430 0.00530 0.72510 0.04000
H 	H 	0.38160 0.97190 0.72220 -0.00400
C 	C 	0.40900 0.08100 0.75350 -0.10800
H 	H 	0.39080 0.09630 0.77010 0.07600
C 	C 	0.44240 0.13070 0.75480 0.04600
C 	C 	0.47020 0.10910 0.72850 -0.12800
H 	H 	0.49140 0.14620 0.72790 0.07300
C 	C 	0.46410 0.03140 0.70410 0.06400
H 	H 	0.48300 0.01420 0.68860 -0.02000
C 	C 	0.56420 0.46100 0.77120 0.04500
H 	H 	0.57510 0.46590 0.74640 0.01500
C 	C 	0.53140 0.40550 0.77170 -0.11500
H 	H 	0.52050 0.37380 0.74640 0.08400
C 	C 	0.51550 0.39700 0.80710 0.05400
C 	C 	0.53160 0.44310 0.84440 -0.13700
H 	H 	0.51970 0.44280 0.86850 0.09100
C 	C 	0.56490 0.48910 0.84560 0.07900
H 	H 	0.57870 0.50930 0.87260 -0.01700
C 	C 	0.34810 0.28310 0.89450 0.04900
H 	H 	0.32400 0.25510 0.89010 -0.01100
C 	C 	0.37170 0.26990 0.86680 -0.11900
H 	H 	0.36370 0.22810 0.84460 0.07900
C 	C 	0.40680 0.31180 0.86760 0.06400
C 	C 	0.41390 0.37860 0.89870 -0.13000
H 	H 	0.43420 0.41870 0.89880 0.08800
C 	C 	0.38970 0.38740 0.93200 0.09700
H 	H 	0.39660 0.42930 0.95440 -0.03100
C 	C 	0.44820 0.21470 0.78240 0.09500
C 	C 	0.48290 0.33850 0.80690 0.08800
C 	C 	0.43290 0.29790 0.83670 0.10400
C 	C 	0.34050 0.54920 0.99780 0.06900
H 	H 	0.36240 0.52690 0.01670 -0.01600
C 	C 	0.33320 0.64310 0.99630 -0.13400
H 	H 	0.35030 0.68140 0.01440 0.09100
C 	C 	0.30240 0.67730 0.96960 0.06600
C 	C 	0.27610 0.61750 0.94370 -0.13000
H 	H 	0.25420 0.63890 0.92430 0.07800
C 	C 	0.28380 0.52450 0.94800 0.06900
H 	H 	0.26550 0.48410 0.93320 -0.01900
C 	C 	0.38540 0.96670 0.10270 0.07100
H 	H 	0.40730 0.93990 0.11960 -0.00700
C 	C 	0.36100 0.91640 0.07050 -0.13500
H 	H 	0.36360 0.85420 0.06980 0.10200
C 	C 	0.33280 0.95980 0.03940 0.06500
C 	C 	0.32600 0.04810 0.04740 -0.14200
H 	H 	0.30600 0.07830 0.02880 0.08000
C 	C 	0.34820 0.09350 0.08250 0.06900
H 	H 	0.34260 0.15340 0.08750 -0.02100
C 	C 	0.17710 0.94050 0.85220 0.09700
H 	H 	0.16360 0.91020 0.82760 -0.01500
C 	C 	0.20360 0.89690 0.87950 -0.15500
H 	H 	0.20690 0.83560 0.87540 0.09300
C 	C 	0.22750 0.94140 0.91570 0.06600
C 	C 	0.21910 0.03220 0.91920 -0.16500
H 	H 	0.23260 0.06550 0.94280 0.10300
C 	C 	0.19210 0.07160 0.88940 0.10300
H 	H 	0.18950 0.13380 0.89080 -0.02700
C 	C 	0.29400 0.77550 0.96800 0.09700
C 	C 	0.30900 0.90690 0.00280 0.09700
C 	C 	0.25800 0.89700 0.94570 0.07400
Zn	Zn	0.62700 0.39780 0.31490 0.53300
I 	I 	0.64830 0.38600 0.24340 -0.11100
I 	I 	0.61630 0.25220 0.34000 -0.05600
Zn	Zn	0.33340 0.63510 0.48030 0.55500
I 	I 	0.27100 0.73780 0.46040 -0.11000
I 	I 	0.36590 0.67410 0.54220 0.06200
Zn	Zn	0.41690 0.87620 0.65820 0.53400
I 	I 	0.47430 0.84180 0.62460 -0.12600
I 	I 	0.38710 0.75220 0.69460 -0.16100
Zn	Zn	0.33020 0.35430 0.98110 0.55100
I 	I 	0.25910 0.27250 0.94390 -0.31800
I 	I 	0.38090 0.33820 0.05320 -0.26100
Zn	Zn	0.42080 0.13200 0.15610 0.52600
I 	I 	0.47630 0.14410 0.12860 -0.10500
I 	I 	0.37400 0.22230 0.19420 -0.22300
Zn	Zn	0.12470 0.10040 0.81720 0.59800
I 	I 	0.15060 0.07810 0.73720 -0.34000
I 	I 	0.11070 0.23140 0.84170 0.05100
Zn	Zn	0.12600 0.90290 0.31140 0.53200
I 	I 	0.14790 0.91580 0.23900 -0.23700
I 	I 	0.10390 0.76310 0.35230 -0.30400
Zn	Zn	0.82630 0.14000 0.47620 0.57700
I 	I 	0.76440 0.22250 0.44810 -0.23000
I 	I 	0.87644 0.15720 0.55327 -0.46000
Zn	Zn	0.92030 0.37220 0.65610 0.53900
I 	I 	0.97880 0.35500 0.62060 -0.22600
I 	I 	0.88090 0.26210 0.69330 -0.16200
Zn	Zn	0.82730 0.85730 0.97490 0.53900
I 	I 	0.77042 0.76080 0.95749 -0.03100
I 	I 	0.87120 0.83200 0.05060 -0.09300
Zn	Zn	0.91610 0.61410 0.15770 0.64600
I 	I 	0.97582 0.64900 0.12021 -0.23100
I 	I 	0.88422 0.73920 0.19310 -0.13800
Zn	Zn	0.62580 0.58620 0.80790 0.60900
I 	I 	0.64390 0.60040 0.74280 -0.01300
I 	I 	0.60500 0.73820 0.85640 -0.44100
N 	N 	0.08000 0.98690 0.30880 -0.27600
N 	N 	0.93100 0.51160 0.20150 -0.29300
N 	N 	0.86080 0.15550 0.42890 -0.30500
N 	N 	0.97640 0.22580 0.27810 -0.14500
N 	N 	0.92470 0.27240 0.31110 -0.14300
N 	N 	0.96150 0.14300 0.33740 -0.11800
N 	N 	0.81510 0.00230 0.47370 -0.29200
N 	N 	0.66730 0.46330 0.35850 -0.26800
N 	N 	0.88010 0.44030 0.60820 -0.28300
N 	N 	0.76520 0.68490 0.44130 -0.14200
N 	N 	0.77860 0.54560 0.47880 -0.13800
N 	N 	0.81790 0.67240 0.50140 -0.13700
N 	N 	0.93230 0.47830 0.70130 -0.25800
N 	N 	0.07900 0.00710 0.80930 -0.27900
N 	N 	0.86030 0.84030 0.93070 -0.28000
N 	N 	0.97620 0.77110 0.77750 -0.14900
N 	N 	0.96090 0.85500 0.83640 -0.13700
N 	N 	0.92510 0.72330 0.81110 -0.13600
N 	N 	0.81640 0.99270 0.97270 -0.26600
N 	N 	0.87760 0.55250 0.10950 -0.27200
N 	N 	0.66840 0.52760 0.85770 -0.28900
N 	N 	0.81840 0.32010 0.00120 -0.13400
N 	N 	0.77950 0.44950 0.97830 -0.14000
N 	N 	0.76480 0.31030 0.94040 -0.14100
C 	C 	0.06370 0.99640 0.34290 0.10600
H 	H 	0.07230 0.95840 0.36670 -0.00900
C 	C 	0.03490 0.05790 0.34670 -0.14700
H 	H 	0.02840 0.07160 0.37350 0.12700
C 	C 	0.01590 0.09860 0.30660 0.07900
C 	C 	0.03220 0.08660 0.27000 -0.16200
H 	H 	0.02240 0.11640 0.24380 0.09400
C 	C 	0.06310 0.02940 0.27390 0.11600
H 	H 	0.07300 0.02010 0.24870 -0.02100
C 	C 	0.96070 0.46080 0.20280 0.11700
H 	H 	0.97770 0.47380 0.18430 -0.02800
C 	C 	0.96820 0.38740 0.23060 -0.17000
H 	H 	0.99140 0.35600 0.23310 0.09000
C 	C 	0.94220 0.36170 0.25360 0.08500
C 	C 	0.91130 0.42110 0.25160 -0.18900
H 	H 	0.89310 0.40990 0.26890 0.08500
C 	C 	0.90690 0.49340 0.22580 0.12500
H 	H 	0.88580 0.53140 0.22550 -0.04900
C 	C 	0.89300 0.10700 0.42740 0.16500
H 	H 	0.89770 0.05690 0.44540 -0.03700
C 	C 	0.91740 0.12400 0.40360 -0.21900
H 	H 	0.94160 0.09640 0.40890 0.14400
C 	C 	0.90760 0.18460 0.36980 0.13100
C 	C 	0.87490 0.23410 0.36610 -0.20000
H 	H 	0.86680 0.27550 0.34370 0.10200
C 	C 	0.85380 0.21630 0.40060 0.13700
H 	H 	0.83290 0.25390 0.40180 -0.04300
C 	C 	0.98160 0.15830 0.30710 0.09000
C 	C 	0.94770 0.28240 0.28280 0.06700
C 	C 	0.93160 0.20180 0.33740 0.07200
C 	C 	0.84090 0.94470 0.49570 0.09900
H 	H 	0.86400 0.96790 0.51180 -0.04500
C 	C 	0.83570 0.85450 0.49620 -0.17900
H 	H 	0.85390 0.81710 0.51340 0.09700
C 	C 	0.80150 0.81920 0.46940 0.09800
C 	C 	0.77740 0.87590 0.44550 -0.18400
H 	H 	0.75480 0.85520 0.42720 0.09900
C 	C 	0.78630 0.96830 0.44800 0.13100
H 	H 	0.76970 0.00710 0.42950 -0.03500
C 	C 	0.67350 0.54840 0.35410 0.07600
H 	H 	0.65750 0.57960 0.33150 -0.00800
C 	C 	0.70450 0.59760 0.38320 -0.13600
H 	H 	0.70870 0.65850 0.37910 0.08500
C 	C 	0.72650 0.55120 0.41590 0.05500
C 	C 	0.71900 0.46130 0.42260 -0.13200
H 	H 	0.73420 0.42940 0.44550 0.09500
C 	C 	0.68790 0.41930 0.39380 0.06400
H 	H 	0.68150 0.36020 0.39910 -0.00100
C 	C 	0.85180 0.40050 0.58280 0.09200
H 	H 	0.84770 0.33980 0.58740 -0.02700
C 	C 	0.82680 0.44430 0.54820 -0.16700
H 	H 	0.80660 0.41340 0.53020 0.09300
C 	C 	0.83300 0.53460 0.54170 0.08900
C 	C 	0.86410 0.57430 0.56760 -0.18400
H 	H 	0.87130 0.63290 0.56230 0.10700
C 	C 	0.88440 0.52590 0.60170 0.10700
H 	H 	0.90290 0.55650 0.62210 -0.02500
C 	C 	0.79510 0.71900 0.47140 0.08000
C 	C 	0.75980 0.59600 0.44770 0.07900
C 	C 	0.80820 0.58690 0.50580 0.08200
C 	C 	0.90430 0.50530 0.72510 0.04200
H 	H 	0.88160 0.47190 0.72220 -0.00500
C 	C 	0.90900 0.58100 0.75350 -0.10900
H 	H 	0.89080 0.59630 0.77010 0.07700
C 	C 	0.94240 0.63070 0.75480 0.04700
C 	C 	0.97020 0.60910 0.72850 -0.12900
H 	H 	0.99140 0.64620 0.72790 0.07400
C 	C 	0.96410 0.53140 0.70410 0.06500
H 	H 	0.98300 0.51420 0.68860 -0.02000
C 	C 	0.06420 0.96100 0.77120 0.04700
H 	H 	0.07510 0.96590 0.74640 0.01500
C 	C 	0.03140 0.90550 0.77170 -0.11700
H 	H 	0.02050 0.87380 0.74640 0.08400
C 	C 	0.01550 0.89700 0.80710 0.05600
C 	C 	0.03160 0.94310 0.84440 -0.14000
H 	H 	0.01970 0.94280 0.86850 0.09200
C 	C 	0.06490 0.98910 0.84560 0.08300
H 	H 	0.07870 0.00930 0.87260 -0.01900
C 	C 	0.84810 0.78310 0.89450 0.04900
H 	H 	0.82400 0.75510 0.89010 -0.01100
C 	C 	0.87170 0.76990 0.86680 -0.11900
H 	H 	0.86370 0.72810 0.84460 0.07900
C 	C 	0.90680 0.81180 0.86760 0.06400
C 	C 	0.91390 0.87860 0.89870 -0.13000
H 	H 	0.93420 0.91870 0.89880 0.08800
C 	C 	0.88970 0.88740 0.93200 0.09700
H 	H 	0.89660 0.92930 0.95440 -0.03100
C 	C 	0.94820 0.71470 0.78240 0.09500
C 	C 	0.98290 0.83850 0.80690 0.08700
C 	C 	0.93290 0.79790 0.83670 0.10400
C 	C 	0.84050 0.04920 0.99780 0.06800
H 	H 	0.86240 0.02690 0.01670 -0.01500
C 	C 	0.83320 0.14310 0.99630 -0.13300
H 	H 	0.85030 0.18140 0.01440 0.09100
C 	C 	0.80240 0.17730 0.96960 0.06500
C 	C 	0.77610 0.11750 0.94370 -0.12800
H 	H 	0.75420 0.13890 0.92430 0.07700
C 	C 	0.78380 0.02450 0.94800 0.06600
H 	H 	0.76550 0.98410 0.93320 -0.01700
C 	C 	0.88540 0.46670 0.10270 0.07000
H 	H 	0.90730 0.43990 0.11960 -0.00700
C 	C 	0.86100 0.41640 0.07050 -0.13400
H 	H 	0.86360 0.35420 0.06980 0.10200
C 	C 	0.83280 0.45980 0.03940 0.06300
C 	C 	0.82600 0.54810 0.04740 -0.14000
H 	H 	0.80600 0.57830 0.02880 0.07900
C 	C 	0.84820 0.59350 0.08250 0.06800
H 	H 	0.84260 0.65340 0.08750 -0.02000
C 	C 	0.67710 0.44050 0.85220 0.09500
H 	H 	0.66360 0.41020 0.82760 -0.01500
C 	C 	0.70360 0.39690 0.87950 -0.15300
H 	H 	0.70690 0.33560 0.87540 0.09300
C 	C 	0.72750 0.44140 0.91570 0.06400
C 	C 	0.71910 0.53220 0.91920 -0.16200
H 	H 	0.73260 0.56550 0.94280 0.10200
C 	C 	0.69210 0.57160 0.88940 0.10200
H 	H 	0.68950 0.63380 0.89080 -0.02600
C 	C 	0.79400 0.27550 0.96800 0.09700
C 	C 	0.80900 0.40690 0.00280 0.09800
C 	C 	0.75800 0.39700 0.94570 0.07500
Zn	Zn	0.12700 0.89780 0.31490 0.53300
I 	I 	0.14830 0.88600 0.24340 -0.11100
I 	I 	0.11630 0.75220 0.34000 -0.05600
Zn	Zn	0.83340 0.13510 0.48030 0.55500
I 	I 	0.77100 0.23780 0.46040 -0.11000
I 	I 	0.86590 0.17410 0.54220 0.06200
Zn	Zn	0.91690 0.37620 0.65820 0.53400
I 	I 	0.97430 0.34180 0.62460 -0.12600
I 	I 	0.88710 0.25220 0.69460 -0.16100
Zn	Zn	0.83020 0.85430 0.98110 0.55100
I 	I 	0.75910 0.77250 0.94390 -0.31800
I 	I 	0.88090 0.83820 0.05320 -0.26000
Zn	Zn	0.92080 0.63200 0.15610 0.52600
I 	I 	0.97630 0.64410 0.12860 -0.10500
I 	I 	0.87400 0.72230 0.19420 -0.22300
Zn	Zn	0.62470 0.60040 0.81720 0.59800
I 	I 	0.65060 0.57810 0.73720 -0.34000
I 	I 	0.61070 0.73140 0.84170 0.05100
Zn	Zn	0.37400 0.40290 0.68860 0.53200
I 	I 	0.35210 0.41580 0.76100 -0.23700
I 	I 	0.39610 0.26310 0.64770 -0.30400
Zn	Zn	0.67370 0.64000 0.52380 0.57800
I 	I 	0.73560 0.72250 0.55190 -0.23000
I 	I 	0.62356 0.65720 0.44673 -0.46000
Zn	Zn	0.57970 0.87220 0.34390 0.53900
I 	I 	0.52120 0.85500 0.37940 -0.22600
I 	I 	0.61910 0.76210 0.30670 -0.16200
Zn	Zn	0.67270 0.35730 0.02510 0.53900
I 	I 	0.72958 0.26080 0.04251 -0.03100
I 	I 	0.62880 0.33200 0.94940 -0.09400
Zn	Zn	0.58390 0.11410 0.84230 0.64600
I 	I 	0.52418 0.14900 0.87979 -0.23100
I 	I 	0.61578 0.23920 0.80690 -0.13800
Zn	Zn	0.87420 0.08620 0.19210 0.60900
I 	I 	0.85610 0.10040 0.25720 -0.01400
I 	I 	0.89500 0.23820 0.14360 -0.44100
N 	N 	0.42000 0.48690 0.69120 -0.27600
N 	N 	0.56900 0.01160 0.79850 -0.29500
N 	N 	0.63920 0.65550 0.57110 -0.30500
N 	N 	0.52360 0.72580 0.72190 -0.14500
N 	N 	0.57530 0.77240 0.68890 -0.14300
N 	N 	0.53850 0.64300 0.66260 -0.11800
N 	N 	0.68490 0.50230 0.52630 -0.29000
N 	N 	0.83270 0.96330 0.64150 -0.26700
N 	N 	0.61990 0.94030 0.39180 -0.28200
N 	N 	0.73480 0.18490 0.55870 -0.14200
N 	N 	0.72140 0.04560 0.52120 -0.13900
N 	N 	0.68210 0.17240 0.49860 -0.13700
N 	N 	0.56770 0.97830 0.29870 -0.25700
N 	N 	0.42100 0.50710 0.19070 -0.27700
N 	N 	0.63970 0.34030 0.06930 -0.28000
N 	N 	0.52380 0.27110 0.22250 -0.14900
N 	N 	0.53910 0.35500 0.16360 -0.13700
N 	N 	0.57490 0.22330 0.18890 -0.13700
N 	N 	0.68360 0.49270 0.02730 -0.26700
N 	N 	0.62240 0.05250 0.89050 -0.27300
N 	N 	0.83160 0.02760 0.14230 -0.29000
N 	N 	0.68160 0.82010 0.99880 -0.13300
N 	N 	0.72050 0.94950 0.02170 -0.13900
N 	N 	0.73520 0.81030 0.05960 -0.14100
C 	C 	0.43630 0.49640 0.65710 0.10400
H 	H 	0.42770 0.45840 0.63330 -0.00900
C 	C 	0.46510 0.55790 0.65330 -0.14500
H 	H 	0.47160 0.57160 0.62650 0.12600
C 	C 	0.48410 0.59860 0.69340 0.07900
C 	C 	0.46780 0.58660 0.73000 -0.16200
H 	H 	0.47760 0.61640 0.75620 0.09400
C 	C 	0.43690 0.52940 0.72610 0.11800
H 	H 	0.42700 0.52010 0.75130 -0.02100
C 	C 	0.53930 0.96080 0.79720 0.11900
H 	H 	0.52230 0.97380 0.81570 -0.02900
C 	C 	0.53180 0.88740 0.76940 -0.17100
H 	H 	0.50860 0.85600 0.76690 0.09100
C 	C 	0.55780 0.86170 0.74640 0.08600
C 	C 	0.58870 0.92110 0.74840 -0.19100
H 	H 	0.60690 0.90990 0.73110 0.08500
C 	C 	0.59310 0.99340 0.77420 0.12800
H 	H 	0.61420 0.03140 0.77450 -0.05000
C 	C 	0.60700 0.60700 0.57260 0.16500
H 	H 	0.60230 0.55690 0.55460 -0.03700
C 	C 	0.58260 0.62400 0.59640 -0.21900
H 	H 	0.55840 0.59640 0.59110 0.14400
C 	C 	0.59240 0.68460 0.63020 0.13200
C 	C 	0.62510 0.73410 0.63390 -0.20000
H 	H 	0.63320 0.77550 0.65630 0.10200
C 	C 	0.64620 0.71630 0.59940 0.13700
H 	H 	0.66710 0.75390 0.59820 -0.04300
C 	C 	0.51840 0.65830 0.69290 0.09000
C 	C 	0.55230 0.78240 0.71720 0.06700
C 	C 	0.56840 0.70180 0.66260 0.07200
C 	C 	0.65910 0.44470 0.50430 0.09700
H 	H 	0.63600 0.46790 0.48820 -0.04500
C 	C 	0.66430 0.35450 0.50380 -0.17800
H 	H 	0.64610 0.31710 0.48660 0.09600
C 	C 	0.69850 0.31920 0.53060 0.09700
C 	C 	0.72260 0.37590 0.55450 -0.18200
H 	H 	0.74520 0.35520 0.57280 0.09800
C 	C 	0.71370 0.46830 0.55200 0.12800
H 	H 	0.73030 0.50710 0.57050 -0.03300
C 	C 	0.82650 0.04840 0.64590 0.07500
H 	H 	0.84250 0.07960 0.66850 -0.00700
C 	C 	0.79550 0.09760 0.61680 -0.13400
H 	H 	0.79130 0.15850 0.62090 0.08400
C 	C 	0.77350 0.05120 0.58410 0.05300
C 	C 	0.78100 0.96130 0.57740 -0.13000
H 	H 	0.76580 0.92940 0.55450 0.09500
C 	C 	0.81210 0.91930 0.60620 0.06300
H 	H 	0.81850 0.86020 0.60090 -0.00000
C 	C 	0.64820 0.90050 0.41720 0.09100
H 	H 	0.65230 0.83980 0.41260 -0.02700
C 	C 	0.67320 0.94430 0.45180 -0.16500
H 	H 	0.69340 0.91340 0.46980 0.09200
C 	C 	0.66700 0.03460 0.45830 0.08800
C 	C 	0.63590 0.07430 0.43240 -0.18300
H 	H 	0.62870 0.13290 0.43770 0.10600
C 	C 	0.61560 0.02590 0.39830 0.10500
H 	H 	0.59710 0.05650 0.37790 -0.02400
C 	C 	0.70490 0.21900 0.52860 0.08100
C 	C 	0.74020 0.09600 0.55230 0.08000
C 	C 	0.69180 0.08690 0.49420 0.08200
C 	C 	0.59570 0.00530 0.27490 0.04000
H 	H 	0.61840 0.97190 0.27780 -0.00400
C 	C 	0.59100 0.08100 0.24650 -0.10800
H 	H 	0.60920 0.09630 0.22990 0.07600
C 	C 	0.55760 0.13070 0.24520 0.04600
C 	C 	0.52980 0.10910 0.27150 -0.12800
H 	H 	0.50860 0.14620 0.27210 0.07300
C 	C 	0.53590 0.03140 0.29590 0.06400
H 	H 	0.51700 0.01420 0.31140 -0.02000
C 	C 	0.43580 0.46100 0.22880 0.04500
H 	H 	0.42490 0.46590 0.25360 0.01500
C 	C 	0.46860 0.40550 0.22830 -0.11500
H 	H 	0.47950 0.37380 0.25360 0.08400
C 	C 	0.48450 0.39700 0.19290 0.05400
C 	C 	0.46840 0.44310 0.15560 -0.13700
H 	H 	0.48030 0.44280 0.13150 0.09100
C 	C 	0.43510 0.48910 0.15440 0.07900
H 	H 	0.42130 0.50930 0.12740 -0.01700
C 	C 	0.65190 0.28310 0.10550 0.04900
H 	H 	0.67600 0.25510 0.10990 -0.01100
C 	C 	0.62830 0.26990 0.13320 -0.11900
H 	H 	0.63630 0.22810 0.15540 0.07900
C 	C 	0.59320 0.31180 0.13240 0.06400
C 	C 	0.58610 0.37860 0.10130 -0.13000
H 	H 	0.56580 0.41870 0.10120 0.08800
C 	C 	0.61030 0.38740 0.06800 0.09700
H 	H 	0.60340 0.42930 0.04560 -0.03100
C 	C 	0.55180 0.21470 0.21760 0.09500
C 	C 	0.51710 0.33850 0.19310 0.08800
C 	C 	0.56710 0.29790 0.16330 0.10400
C 	C 	0.65950 0.54920 0.00220 0.06900
H 	H 	0.63760 0.52690 0.98330 -0.01600
C 	C 	0.66680 0.64310 0.00370 -0.13400
H 	H 	0.64970 0.68140 0.98560 0.09100
C 	C 	0.69760 0.67730 0.03040 0.06600
C 	C 	0.72390 0.61750 0.05630 -0.13000
H 	H 	0.74580 0.63890 0.07570 0.07800
C 	C 	0.71620 0.52450 0.05200 0.06900
H 	H 	0.73450 0.48410 0.06680 -0.01900
C 	C 	0.61460 0.96670 0.89730 0.07100
H 	H 	0.59270 0.93990 0.88040 -0.00700
C 	C 	0.63900 0.91640 0.92950 -0.13500
H 	H 	0.63640 0.85420 0.93020 0.10200
C 	C 	0.66720 0.95980 0.96060 0.06500
C 	C 	0.67400 0.04810 0.95260 -0.14200
H 	H 	0.69400 0.07830 0.97120 0.08000
C 	C 	0.65180 0.09350 0.91750 0.06900
H 	H 	0.65740 0.15340 0.91250 -0.02100
C 	C 	0.82290 0.94050 0.14780 0.09700
H 	H 	0.83640 0.91020 0.17240 -0.01500
C 	C 	0.79640 0.89690 0.12050 -0.15500
H 	H 	0.79310 0.83560 0.12460 0.09300
C 	C 	0.77250 0.94140 0.08430 0.06600
C 	C 	0.78090 0.03220 0.08080 -0.16500
H 	H 	0.76740 0.06550 0.05720 0.10300
C 	C 	0.80790 0.07160 0.11060 0.10300
H 	H 	0.81050 0.13380 0.10920 -0.02700
C 	C 	0.70600 0.77550 0.03200 0.09700
C 	C 	0.69100 0.90690 0.99720 0.09700
C 	C 	0.74200 0.89700 0.05430 0.07400
Zn	Zn	0.37300 0.39780 0.68510 0.53300
I 	I 	0.35170 0.38600 0.75660 -0.11100
I 	I 	0.38370 0.25220 0.66000 -0.05600
Zn	Zn	0.66660 0.63510 0.51970 0.55500
I 	I 	0.72900 0.73780 0.53960 -0.11000
I 	I 	0.63410 0.67410 0.45780 0.06200
Zn	Zn	0.58310 0.87620 0.34180 0.53400
I 	I 	0.52570 0.84180 0.37540 -0.12600
I 	I 	0.61290 0.75220 0.30540 -0.16100
Zn	Zn	0.66980 0.35430 0.01890 0.55100
I 	I 	0.74090 0.27250 0.05610 -0.31800
I 	I 	0.61910 0.33820 0.94680 -0.26100
Zn	Zn	0.57920 0.13200 0.84390 0.52600
I 	I 	0.52370 0.14410 0.87140 -0.10500
I 	I 	0.62600 0.22230 0.80580 -0.22300
Zn	Zn	0.87530 0.10040 0.18280 0.59800
I 	I 	0.84940 0.07810 0.26280 -0.34000
I 	I 	0.88930 0.23140 0.15830 0.05100
Zn	Zn	0.87400 0.90290 0.68860 0.53200
I 	I 	0.85210 0.91580 0.76100 -0.23700
I 	I 	0.89610 0.76310 0.64770 -0.30400
Zn	Zn	0.17370 0.14000 0.52380 0.57700
I 	I 	0.23560 0.22250 0.55190 -0.23000
I 	I 	0.12356 0.15720 0.44673 -0.46000
Zn	Zn	0.07970 0.37220 0.34390 0.53900
I 	I 	0.02120 0.35500 0.37940 -0.22600
I 	I 	0.11910 0.26210 0.30670 -0.16200
Zn	Zn	0.17270 0.85730 0.02510 0.53900
I 	I 	0.22958 0.76080 0.04251 -0.03100
I 	I 	0.12880 0.83200 0.94940 -0.09300
Zn	Zn	0.08390 0.61410 0.84230 0.64600
I 	I 	0.02418 0.64900 0.87979 -0.23100
I 	I 	0.11578 0.73920 0.80690 -0.13800
Zn	Zn	0.37420 0.58620 0.19210 0.60900
I 	I 	0.35610 0.60040 0.25720 -0.01300
I 	I 	0.39500 0.73820 0.14360 -0.44100
N 	N 	0.92000 0.98690 0.69120 -0.27600
N 	N 	0.06900 0.51160 0.79850 -0.29300
N 	N 	0.13920 0.15550 0.57110 -0.30500
N 	N 	0.02360 0.22580 0.72190 -0.14500
N 	N 	0.07530 0.27240 0.68890 -0.14300
N 	N 	0.03850 0.14300 0.66260 -0.11800
N 	N 	0.18490 0.00230 0.52630 -0.29200
N 	N 	0.33270 0.46330 0.64150 -0.26800
N 	N 	0.11990 0.44030 0.39180 -0.28300
N 	N 	0.23480 0.68490 0.55870 -0.14200
N 	N 	0.22140 0.54560 0.52120 -0.13800
N 	N 	0.18210 0.67240 0.49860 -0.13700
N 	N 	0.06770 0.47830 0.29870 -0.25800
N 	N 	0.92100 0.00710 0.19070 -0.27900
N 	N 	0.13970 0.84030 0.06930 -0.28000
N 	N 	0.02380 0.77110 0.22250 -0.14900
N 	N 	0.03910 0.85500 0.16360 -0.13700
N 	N 	0.07490 0.72330 0.18890 -0.13600
N 	N 	0.18360 0.99270 0.02730 -0.26600
N 	N 	0.12240 0.55250 0.89050 -0.27200
N 	N 	0.33160 0.52760 0.14230 -0.28900
N 	N 	0.18160 0.32010 0.99880 -0.13400
N 	N 	0.22050 0.44950 0.02170 -0.14000
N 	N 	0.23520 0.31030 0.05960 -0.14100
C 	C 	0.93630 0.99640 0.65710 0.10600
H 	H 	0.92770 0.95840 0.63330 -0.00900
C 	C 	0.96510 0.05790 0.65330 -0.14700
H 	H 	0.97160 0.07160 0.62650 0.12700
C 	C 	0.98410 0.09860 0.69340 0.07900
C 	C 	0.96780 0.08660 0.73000 -0.16200
H 	H 	0.97760 0.11640 0.75620 0.09400
C 	C 	0.93690 0.02940 0.72610 0.11600
H 	H 	0.92700 0.02010 0.75130 -0.02100
C 	C 	0.03930 0.46080 0.79720 0.11700
H 	H 	0.02230 0.47380 0.81570 -0.02800
C 	C 	0.03180 0.38740 0.76940 -0.17000
H 	H 	0.00860 0.35600 0.76690 0.09000
C 	C 	0.05780 0.36170 0.74640 0.08500
C 	C 	0.08870 0.42110 0.74840 -0.18900
H 	H 	0.10690 0.40990 0.73110 0.08500
C 	C 	0.09310 0.49340 0.77420 0.12500
H 	H 	0.11420 0.53140 0.77450 -0.04900
C 	C 	0.10700 0.10700 0.57260 0.16500
H 	H 	0.10230 0.05690 0.55460 -0.03700
C 	C 	0.08260 0.12400 0.59640 -0.21900
H 	H 	0.05840 0.09640 0.59110 0.14400
C 	C 	0.09240 0.18460 0.63020 0.13100
C 	C 	0.12510 0.23410 0.63390 -0.20000
H 	H 	0.13320 0.27550 0.65630 0.10200
C 	C 	0.14620 0.21630 0.59940 0.13700
H 	H 	0.16710 0.25390 0.59820 -0.04300
C 	C 	0.01840 0.15830 0.69290 0.09000
C 	C 	0.05230 0.28240 0.71720 0.06700
C 	C 	0.06840 0.20180 0.66260 0.07200
C 	C 	0.15910 0.94470 0.50430 0.09900
H 	H 	0.13600 0.96790 0.48820 -0.04500
C 	C 	0.16430 0.85450 0.50380 -0.17900
H 	H 	0.14610 0.81710 0.48660 0.09700
C 	C 	0.19850 0.81920 0.53060 0.09800
C 	C 	0.22260 0.87590 0.55450 -0.18400
H 	H 	0.24520 0.85520 0.57280 0.09900
C 	C 	0.21370 0.96830 0.55200 0.13100
H 	H 	0.23030 0.00710 0.57050 -0.03500
C 	C 	0.32650 0.54840 0.64590 0.07600
H 	H 	0.34250 0.57960 0.66850 -0.00800
C 	C 	0.29550 0.59760 0.61680 -0.13600
H 	H 	0.29130 0.65850 0.62090 0.08500
C 	C 	0.27350 0.55120 0.58410 0.05500
C 	C 	0.28100 0.46130 0.57740 -0.13200
H 	H 	0.26580 0.42940 0.55450 0.09500
C 	C 	0.31210 0.41930 0.60620 0.06400
H 	H 	0.31850 0.36020 0.60090 -0.00100
C 	C 	0.14820 0.40050 0.41720 0.09200
H 	H 	0.15230 0.33980 0.41260 -0.02700
C 	C 	0.17320 0.44430 0.45180 -0.16700
H 	H 	0.19340 0.41340 0.46980 0.09300
C 	C 	0.16700 0.53460 0.45830 0.08900
C 	C 	0.13590 0.57430 0.43240 -0.18400
H 	H 	0.12870 0.63290 0.43770 0.10700
C 	C 	0.11560 0.52590 0.39830 0.10700
H 	H 	0.09710 0.55650 0.37790 -0.02500
C 	C 	0.20490 0.71900 0.52860 0.08000
C 	C 	0.24020 0.59600 0.55230 0.07900
C 	C 	0.19180 0.58690 0.49420 0.08200
C 	C 	0.09570 0.50530 0.27490 0.04200
H 	H 	0.11840 0.47190 0.27780 -0.00500
C 	C 	0.09100 0.58100 0.24650 -0.10900
H 	H 	0.10920 0.59630 0.22990 0.07700
C 	C 	0.05760 0.63070 0.24520 0.04700
C 	C 	0.02980 0.60910 0.27150 -0.12900
H 	H 	0.00860 0.64620 0.27210 0.07400
C 	C 	0.03590 0.53140 0.29590 0.06500
H 	H 	0.01700 0.51420 0.31140 -0.02000
C 	C 	0.93580 0.96100 0.22880 0.04700
H 	H 	0.92490 0.96590 0.25360 0.01500
C 	C 	0.96860 0.90550 0.22830 -0.11700
H 	H 	0.97950 0.87380 0.25360 0.08400
C 	C 	0.98450 0.89700 0.19290 0.05600
C 	C 	0.96840 0.94310 0.15560 -0.14000
H 	H 	0.98030 0.94280 0.13150 0.09200
C 	C 	0.93510 0.98910 0.15440 0.08300
H 	H 	0.92130 0.00930 0.12740 -0.01900
C 	C 	0.15190 0.78310 0.10550 0.04900
H 	H 	0.17600 0.75510 0.10990 -0.01100
C 	C 	0.12830 0.76990 0.13320 -0.11900
H 	H 	0.13630 0.72810 0.15540 0.07900
C 	C 	0.09320 0.81180 0.13240 0.06400
C 	C 	0.08610 0.87860 0.10130 -0.13000
H 	H 	0.06580 0.91870 0.10120 0.08800
C 	C 	0.11030 0.88740 0.06800 0.09700
H 	H 	0.10340 0.92930 0.04560 -0.03100
C 	C 	0.05180 0.71470 0.21760 0.09500
C 	C 	0.01710 0.83850 0.19310 0.08700
C 	C 	0.06710 0.79790 0.16330 0.10400
C 	C 	0.15950 0.04920 0.00220 0.06800
H 	H 	0.13760 0.02690 0.98330 -0.01500
C 	C 	0.16680 0.14310 0.00370 -0.13300
H 	H 	0.14970 0.18140 0.98560 0.09100
C 	C 	0.19760 0.17730 0.03040 0.06500
C 	C 	0.22390 0.11750 0.05630 -0.12800
H 	H 	0.24580 0.13890 0.07570 0.07700
C 	C 	0.21620 0.02450 0.05200 0.06600
H 	H 	0.23450 0.98410 0.06680 -0.01700
C 	C 	0.11460 0.46670 0.89730 0.07000
H 	H 	0.09270 0.43990 0.88040 -0.00700
C 	C 	0.13900 0.41640 0.92950 -0.13400
H 	H 	0.13640 0.35420 0.93020 0.10200
C 	C 	0.16720 0.45980 0.96060 0.06300
C 	C 	0.17400 0.54810 0.95260 -0.14000
H 	H 	0.19400 0.57830 0.97120 0.07900
C 	C 	0.15180 0.59350 0.91750 0.06800
H 	H 	0.15740 0.65340 0.91250 -0.02000
C 	C 	0.32290 0.44050 0.14780 0.09500
H 	H 	0.33640 0.41020 0.17240 -0.01500
C 	C 	0.29640 0.39690 0.12050 -0.15300
H 	H 	0.29310 0.33560 0.12460 0.09300
C 	C 	0.27250 0.44140 0.08430 0.06400
C 	C 	0.28090 0.53220 0.08080 -0.16200
H 	H 	0.26740 0.56550 0.05720 0.10200
C 	C 	0.30790 0.57160 0.11060 0.10200
H 	H 	0.31050 0.63380 0.10920 -0.02600
C 	C 	0.20600 0.27550 0.03200 0.09700
C 	C 	0.19100 0.40690 0.99720 0.09800
C 	C 	0.24200 0.39700 0.05430 0.07500
Zn	Zn	0.87300 0.89780 0.68510 0.53300
I 	I 	0.85170 0.88600 0.75660 -0.11100
I 	I 	0.88370 0.75220 0.66000 -0.05600
Zn	Zn	0.16660 0.13510 0.51970 0.55500
I 	I 	0.22900 0.23780 0.53960 -0.11000
I 	I 	0.13410 0.17410 0.45780 0.06200
Zn	Zn	0.08310 0.37620 0.34180 0.53400
I 	I 	0.02570 0.34180 0.37540 -0.12600
I 	I 	0.11290 0.25220 0.30540 -0.16100
Zn	Zn	0.16980 0.85430 0.01890 0.55100
I 	I 	0.24090 0.77250 0.05610 -0.31800
I 	I 	0.11910 0.83820 0.94680 -0.26000
Zn	Zn	0.07920 0.63200 0.84390 0.52600
I 	I 	0.02370 0.64410 0.87140 -0.10500
I 	I 	0.12600 0.72230 0.80580 -0.22300
Zn	Zn	0.37530 0.60040 0.18280 0.59800
I 	I 	0.34940 0.57810 0.26280 -0.34000
I 	I 	0.38930 0.73140 0.15830 0.05100
C 	C 	0.43100 0.20800 0.33300 -0.40300
H 	H 	0.45350 0.22140 0.35640 0.18000
H 	H 	0.43110 0.25100 0.30960 0.13700
C 	C 	0.43650 0.11200 0.31530 0.21300
H 	H 	0.41750 0.10270 0.28840 -0.03100
H 	H 	0.46210 0.10690 0.30850 -0.24500
C 	C 	0.43200 0.03900 0.34800 -0.71500
H 	H 	0.45520 0.03590 0.37080 0.24900
H 	H 	0.42830 0.98150 0.33330 0.23600
C 	C 	0.39700 0.05600 0.37000 0.92100
H 	H 	0.39710 0.01100 0.39260 -0.28300
H 	H 	0.37330 0.04980 0.34830 -0.23400
C 	C 	0.39900 0.15100 0.39100 -0.53700
H 	H 	0.42320 0.16070 0.41100 0.19500
H 	H 	0.37770 0.15860 0.40670 0.14700
C 	C 	0.39400 0.21700 0.35100 0.23100
H 	H 	0.37140 0.20040 0.32840 -0.03800
H 	H 	0.39050 0.27830 0.36000 -0.02800
C 	C 	0.24700 0.72100 0.18400 -0.21600
H 	H 	0.24110 0.69630 0.15460 0.10000
H 	H 	0.23710 0.68100 0.20380 0.09900
C 	C 	0.29170 0.73500 0.20000 -0.06500
H 	H 	0.29730 0.76120 0.22880 0.03700
H 	H 	0.30500 0.67730 0.20080 0.01000
C 	C 	0.30520 0.79700 0.16700 -0.21900
H 	H 	0.33320 0.80340 0.17480 0.05900
H 	H 	0.29910 0.76940 0.13790 0.09100
C 	C 	0.28700 0.89100 0.16400 -0.08500
H 	H 	0.29620 0.92690 0.14190 0.13400
H 	H 	0.29350 0.92130 0.19180 0.28400
C 	C 	0.24220 0.87600 0.15000 -0.15200
H 	H 	0.22870 0.93340 0.14810 0.11000
H 	H 	0.23570 0.84690 0.12150 0.01200
C 	C 	0.23000 0.81700 0.18500 -0.16700
H 	H 	0.20190 0.81310 0.17990 0.07900
H 	H 	0.23910 0.84320 0.21390 0.03900
Cl	Cl	0.54370 0.40000 0.64840 -0.34700
C 	C 	0.50400 0.37200 0.60600 -0.03000
H 	H 	0.50470 0.30730 0.60210 0.02400
H 	H 	0.48060 0.38480 0.61720 0.07400
Cl	Cl	0.46100 0.48600 0.53560 -0.67700
C 	C 	0.49800 0.41400 0.56000 0.25600
H 	H 	0.49750 0.36430 0.54000 -0.00700
H 	H 	0.52200 0.44680 0.55960 0.01000
H 	H 	0.45630 0.89190 0.47890 -0.49700
C 	C 	0.39870 0.89500 0.48560 -1.14300
H 	H 	0.40800 0.93650 0.50980 0.37300
H 	H 	0.38840 0.84210 0.49710 0.40000
C 	C 	0.36710 0.94200 0.45000 0.90900
H 	H 	0.36450 0.91110 0.42190 -0.33100
H 	H 	0.34210 0.94140 0.45860 -0.27000
C 	C 	0.38200 0.03900 0.44700 -1.16300
H 	H 	0.36330 0.07640 0.42800 0.37900
H 	H 	0.38900 0.06680 0.47590 0.38600
C 	C 	0.41800 0.02100 0.42700 1.31800
H 	H 	0.44140 0.03970 0.44790 -0.38300
H 	H 	0.41650 0.05540 0.40050 -0.53800
C 	C 	0.42000 0.91900 0.41800 -1.47600
H 	H 	0.43900 0.90770 0.39990 0.47500
H 	H 	0.39480 0.89820 0.40200 0.52800
C 	C 	0.46100 0.11500 0.37980 -0.18400
H 	H 	0.45140 0.16890 0.39170 0.06100
H 	H 	0.44940 0.06300 0.39080 0.07300
C 	C 	0.50590 0.11100 0.39400 -0.06500
H 	H 	0.51510 0.04900 0.39420 0.02700
H 	H 	0.51480 0.13700 0.42270 0.02200
C 	C 	0.51970 0.16700 0.35800 -0.13100
H 	H 	0.51860 0.13030 0.33180 0.07300
H 	H 	0.54640 0.18560 0.36830 0.07300
C 	C 	0.49300 0.25100 0.34700 -0.11700
H 	H 	0.48610 0.27500 0.37280 0.06400
H 	H 	0.50630 0.29730 0.33320 0.08300
C 	C 	0.45700 0.21700 0.31400 -0.07700
H 	H 	0.46100 0.21780 0.28400 0.04600
H 	H 	0.43440 0.25350 0.31540 0.05200
C 	C 	0.45050 0.11700 0.32850 0.20800
H 	H 	0.42370 0.09910 0.31810 -0.03000
H 	H 	0.46700 0.07600 0.31640 0.13600
C 	C 	0.26940 0.96400 0.31200 -0.33000
H 	H 	0.26560 0.02820 0.31620 0.12600
H 	H 	0.24490 0.93850 0.29720 0.12500
C 	C 	0.28500 0.91700 0.35600 0.16600
H 	H 	0.26420 0.91640 0.37300 -0.01500
H 	H 	0.29120 0.85540 0.35090 -0.02000
C 	C 	0.32000 0.96500 0.38290 -0.40600
H 	H 	0.33220 0.92890 0.40800 0.17900
H 	H 	0.31310 0.02290 0.39350 0.14400
C 	C 	0.34900 0.97800 0.35200 0.31500
H 	H 	0.37000 0.01690 0.36620 -0.13000
H 	H 	0.36020 0.92040 0.34710 -0.08700
C 	C 	0.33200 0.01900 0.30600 -0.37700
H 	H 	0.35170 0.02830 0.28940 0.15300
H 	H 	0.31950 0.07690 0.30950 0.14300
C 	C 	0.30100 0.95000 0.28300 0.21500
H 	H 	0.31120 0.88880 0.28600 -0.05100
H 	H 	0.29140 0.96410 0.25270 -0.15200
C 	C 	0.26300 0.82600 0.19300 0.28000
H 	H 	0.27020 0.78320 0.17240 0.04500
H 	H 	0.25100 0.79370 0.21350 -0.01300
C 	C 	0.23480 0.89600 0.16800 -0.22200
H 	H 	0.21260 0.90150 0.18190 0.09700
H 	H 	0.22560 0.87590 0.13800 0.13600
C 	C 	0.25450 0.99000 0.16800 -0.04000
H 	H 	0.23780 0.02790 0.14650 0.02400
H 	H 	0.25680 0.01700 0.19630 0.03300
C 	C 	0.29460 0.98600 0.15610 -0.29600
H 	H 	0.29200 0.97930 0.12460 0.07500
H 	H 	0.30830 0.04230 0.16470 0.11200
C 	C 	0.31780 0.90800 0.18000 -0.19700
H 	H 	0.34440 0.92720 0.19040 0.08200
H 	H 	0.31800 0.85930 0.15900 0.13500
C 	C 	0.30100 0.87400 0.21800 -0.55400
H 	H 	0.29440 0.92360 0.23620 0.23300
H 	H 	0.31790 0.83260 0.23680 0.20200
C 	C 	0.42700 0.38900 0.51200 -0.92200
H 	H 	0.43790 0.44880 0.51300 0.58700
H 	H 	0.39940 0.39560 0.51250 0.31200
C 	C 	0.44600 0.33800 0.55200 0.67700
H 	H 	0.43150 0.34550 0.57520 -0.16600
H 	H 	0.47200 0.36270 0.56310 -0.19600
C 	C 	0.45000 0.23700 0.54400 -0.68200
H 	H 	0.47470 0.22550 0.53500 0.22800
H 	H 	0.45060 0.20360 0.57100 0.23600
C 	C 	0.41700 0.20400 0.50800 0.45900
H 	H 	0.39230 0.21760 0.51680 -0.11300
H 	H 	0.41840 0.13880 0.50560 -0.15000
C 	C 	0.41700 0.24700 0.46400 -0.61900
H 	H 	0.39150 0.24320 0.44540 0.20900
H 	H 	0.43490 0.21390 0.44950 0.19200
C 	C 	0.43000 0.34600 0.46800 0.52900
H 	H 	0.45640 0.35050 0.46400 -0.12700
H 	H 	0.41370 0.38000 0.44410 -0.12300
C 	C 	0.52000 0.72600 0.49400 -0.79700
H 	H 	0.54500 0.69780 0.49820 -0.02100
H 	H 	0.50990 0.73310 0.46270 0.17400
C 	C 	0.49200 0.66500 0.51300 0.51500
H 	H 	0.50500 0.64130 0.54160 -0.08800
H 	H 	0.48310 0.61560 0.49380 -0.12600
C 	C 	0.45800 0.72600 0.51900 0.54400
H 	H 	0.43390 0.69080 0.51400 -0.10400
H 	H 	0.46210 0.74980 0.54850 -0.13700
C 	C 	0.45300 0.80400 0.48600 0.34200
H 	H 	0.45500 0.78190 0.45680 0.13600
H 	H 	0.42800 0.83260 0.48340 -0.38700
C 	C 	0.48600 0.87300 0.50100 0.05600
H 	H 	0.48000 0.90790 0.52600 0.02200
H 	H 	0.48780 0.91470 0.47790 0.07800
C 	C 	0.52400 0.81900 0.51600 -0.04700
H 	H 	0.54510 0.85150 0.50770 -0.06300
H 	H 	0.52950 0.81220 0.54770 -0.06300
C 	C 	0.43150 0.87100 0.46300 1.59800
H 	H 	0.43280 0.80600 0.45870 -0.47900
C 	C 	0.56900 0.20800 0.66700 -0.40300
H 	H 	0.54650 0.22140 0.64360 0.18000
H 	H 	0.56890 0.25100 0.69040 0.13700
C 	C 	0.56350 0.11200 0.68470 0.21300
H 	H 	0.58250 0.10270 0.71160 -0.03100
H 	H 	0.53790 0.10690 0.69150 -0.24500
C 	C 	0.56800 0.03900 0.65200 -0.71500
H 	H 	0.54480 0.03590 0.62920 0.24900
H 	H 	0.57170 0.98150 0.66670 0.23600
C 	C 	0.60300 0.05600 0.63000 0.92100
H 	H 	0.60290 0.01100 0.60740 -0.28300
H 	H 	0.62670 0.04980 0.65170 -0.23400
C 	C 	0.60100 0.15100 0.60900 -0.53700
H 	H 	0.57680 0.16070 0.58900 0.19500
H 	H 	0.62230 0.15860 0.59330 0.14700
C 	C 	0.60600 0.21700 0.64900 0.23100
H 	H 	0.62860 0.20040 0.67160 -0.03800
H 	H 	0.60950 0.27830 0.64000 -0.02800
C 	C 	0.75300 0.72100 0.81600 -0.21600
H 	H 	0.75890 0.69630 0.84540 0.10000
H 	H 	0.76290 0.68100 0.79620 0.09900
C 	C 	0.70830 0.73500 0.80000 -0.06500
H 	H 	0.70270 0.76120 0.77120 0.03700
H 	H 	0.69500 0.67730 0.79920 0.01000
C 	C 	0.69480 0.79700 0.83300 -0.21900
H 	H 	0.66680 0.80340 0.82520 0.05900
H 	H 	0.70090 0.76940 0.86210 0.09100
C 	C 	0.71300 0.89100 0.83600 -0.08500
H 	H 	0.70380 0.92690 0.85810 0.13400
H 	H 	0.70650 0.92130 0.80820 0.28400
C 	C 	0.75780 0.87600 0.85000 -0.15200
H 	H 	0.77130 0.93340 0.85190 0.11000
H 	H 	0.76430 0.84690 0.87850 0.01200
C 	C 	0.77000 0.81700 0.81500 -0.16700
H 	H 	0.79810 0.81310 0.82010 0.07900
H 	H 	0.76090 0.84320 0.78610 0.03900
Cl	Cl	0.45630 0.40000 0.35160 -0.34700
C 	C 	0.49600 0.37200 0.39400 -0.03000
H 	H 	0.49530 0.30730 0.39790 0.02400
H 	H 	0.51940 0.38480 0.38280 0.07400
Cl	Cl	0.53900 0.48600 0.46440 -0.67700
C 	C 	0.50200 0.41400 0.44000 0.25600
H 	H 	0.50250 0.36430 0.46000 -0.00700
H 	H 	0.47800 0.44680 0.44040 0.01000
H 	H 	0.54370 0.89190 0.52110 -0.49700
C 	C 	0.60130 0.89500 0.51440 -1.14300
H 	H 	0.59200 0.93650 0.49020 0.37300
H 	H 	0.61160 0.84210 0.50290 0.40000
C 	C 	0.63290 0.94200 0.55000 0.90900
H 	H 	0.63550 0.91110 0.57810 -0.33100
H 	H 	0.65790 0.94140 0.54140 -0.27000
C 	C 	0.61800 0.03900 0.55300 -1.16300
H 	H 	0.63670 0.07640 0.57200 0.37900
H 	H 	0.61100 0.06680 0.52410 0.38600
C 	C 	0.58200 0.02100 0.57300 1.31800
H 	H 	0.55860 0.03970 0.55210 -0.38300
H 	H 	0.58350 0.05540 0.59950 -0.53800
C 	C 	0.58000 0.91900 0.58200 -1.47600
H 	H 	0.56100 0.90770 0.60010 0.47500
H 	H 	0.60520 0.89820 0.59800 0.52800
C 	C 	0.53900 0.11500 0.62020 -0.18400
H 	H 	0.54860 0.16890 0.60830 0.06100
H 	H 	0.55060 0.06300 0.60920 0.07300
C 	C 	0.49410 0.11100 0.60600 -0.06500
H 	H 	0.48490 0.04900 0.60580 0.02700
H 	H 	0.48520 0.13700 0.57730 0.02200
C 	C 	0.48030 0.16700 0.64200 -0.13100
H 	H 	0.48140 0.13030 0.66820 0.07300
H 	H 	0.45360 0.18560 0.63170 0.07300
C 	C 	0.50700 0.25100 0.65300 -0.11700
H 	H 	0.51390 0.27500 0.62720 0.06400
H 	H 	0.49370 0.29730 0.66680 0.08300
C 	C 	0.54300 0.21700 0.68600 -0.07700
H 	H 	0.53900 0.21780 0.71600 0.04600
H 	H 	0.56560 0.25350 0.68460 0.05200
C 	C 	0.54950 0.11700 0.67150 0.20800
H 	H 	0.57630 0.09910 0.68190 -0.03000
H 	H 	0.53300 0.07600 0.68360 0.13600
C 	C 	0.73060 0.96400 0.68800 -0.33000
H 	H 	0.73440 0.02820 0.68380 0.12600
H 	H 	0.75510 0.93850 0.70280 0.12500
C 	C 	0.71500 0.91700 0.64400 0.16600
H 	H 	0.73580 0.91640 0.62700 -0.01500
H 	H 	0.70880 0.85540 0.64910 -0.02000
C 	C 	0.68000 0.96500 0.61710 -0.40600
H 	H 	0.66780 0.92890 0.59200 0.17900
H 	H 	0.68690 0.02290 0.60650 0.14400
C 	C 	0.65100 0.97800 0.64800 0.31500
H 	H 	0.63000 0.01690 0.63380 -0.13000
H 	H 	0.63980 0.92040 0.65290 -0.08700
C 	C 	0.66800 0.01900 0.69400 -0.37700
H 	H 	0.64830 0.02830 0.71060 0.15300
H 	H 	0.68050 0.07690 0.69050 0.14300
C 	C 	0.69900 0.95000 0.71700 0.21500
H 	H 	0.68880 0.88880 0.71400 -0.05100
H 	H 	0.70860 0.96410 0.74730 -0.15200
C 	C 	0.73700 0.82600 0.80700 0.28000
H 	H 	0.72980 0.78320 0.82760 0.04500
H 	H 	0.74900 0.79370 0.78650 -0.01300
C 	C 	0.76520 0.89600 0.83200 -0.22200
H 	H 	0.78740 0.90150 0.81810 0.09700
H 	H 	0.77440 0.87590 0.86200 0.13600
C 	C 	0.74550 0.99000 0.83200 -0.04000
H 	H 	0.76220 0.02790 0.85350 0.02400
H 	H 	0.74320 0.01700 0.80370 0.03300
C 	C 	0.70540 0.98600 0.84390 -0.29600
H 	H 	0.70800 0.97930 0.87540 0.07500
H 	H 	0.69170 0.04230 0.83530 0.11200
C 	C 	0.68220 0.90800 0.82000 -0.19700
H 	H 	0.65560 0.92720 0.80960 0.08200
H 	H 	0.68200 0.85930 0.84100 0.13500
C 	C 	0.69900 0.87400 0.78200 -0.55400
H 	H 	0.70560 0.92360 0.76380 0.23300
H 	H 	0.68210 0.83260 0.76320 0.20200
C 	C 	0.57300 0.38900 0.48800 -0.92200
H 	H 	0.56210 0.44880 0.48700 0.58700
H 	H 	0.60060 0.39560 0.48750 0.31200
C 	C 	0.55400 0.33800 0.44800 0.67700
H 	H 	0.56850 0.34550 0.42480 -0.16600
H 	H 	0.52800 0.36270 0.43690 -0.19600
C 	C 	0.55000 0.23700 0.45600 -0.68200
H 	H 	0.52530 0.22550 0.46500 0.22800
H 	H 	0.54940 0.20360 0.42900 0.23600
C 	C 	0.58300 0.20400 0.49200 0.45900
H 	H 	0.60770 0.21760 0.48320 -0.11300
H 	H 	0.58160 0.13880 0.49440 -0.15000
C 	C 	0.58300 0.24700 0.53600 -0.61900
H 	H 	0.60850 0.24320 0.55460 0.20900
H 	H 	0.56510 0.21390 0.55050 0.19200
C 	C 	0.57000 0.34600 0.53200 0.52900
H 	H 	0.54360 0.35050 0.53600 -0.12700
H 	H 	0.58630 0.38000 0.55590 -0.12300
C 	C 	0.48000 0.72600 0.50600 -0.79700
H 	H 	0.45500 0.69780 0.50180 -0.02100
H 	H 	0.49010 0.73310 0.53730 0.17400
C 	C 	0.50800 0.66500 0.48700 0.51500
H 	H 	0.49500 0.64130 0.45840 -0.08800
H 	H 	0.51690 0.61560 0.50620 -0.12600
C 	C 	0.54200 0.72600 0.48100 0.54400
H 	H 	0.56610 0.69080 0.48600 -0.10400
H 	H 	0.53790 0.74980 0.45150 -0.13700
C 	C 	0.54700 0.80400 0.51400 0.34200
H 	H 	0.54500 0.78190 0.54320 0.13600
H 	H 	0.57200 0.83260 0.51660 -0.38700
C 	C 	0.51400 0.87300 0.49900 0.05600
H 	H 	0.52000 0.90790 0.47400 0.02200
H 	H 	0.51220 0.91470 0.52210 0.07800
C 	C 	0.47600 0.81900 0.48400 -0.04700
H 	H 	0.45490 0.85150 0.49230 -0.06300
H 	H 	0.47050 0.81220 0.45230 -0.06300
C 	C 	0.56850 0.87100 0.53700 1.59800
H 	H 	0.56720 0.80600 0.54130 -0.47900
C 	C 	0.93100 0.70800 0.33300 -0.40400
H 	H 	0.95350 0.72140 0.35640 0.18000
H 	H 	0.93110 0.75100 0.30960 0.13700
C 	C 	0.93650 0.61200 0.31530 0.21300
H 	H 	0.91750 0.60270 0.28840 -0.03100
H 	H 	0.96210 0.60690 0.30850 -0.24500
C 	C 	0.93200 0.53900 0.34800 -0.71500
H 	H 	0.95520 0.53590 0.37080 0.24900
H 	H 	0.92830 0.48150 0.33330 0.23500
C 	C 	0.89700 0.55600 0.37000 0.92400
H 	H 	0.89710 0.51100 0.39260 -0.28400
H 	H 	0.87330 0.54980 0.34830 -0.23500
C 	C 	0.89900 0.65100 0.39100 -0.53900
H 	H 	0.92320 0.66070 0.41100 0.19600
H 	H 	0.87770 0.65860 0.40670 0.14700
C 	C 	0.89400 0.71700 0.35100 0.23200
H 	H 	0.87140 0.70040 0.32840 -0.03800
H 	H 	0.89050 0.77830 0.36000 -0.02800
C 	C 	0.74700 0.22100 0.18400 -0.21400
H 	H 	0.74110 0.19630 0.15460 0.10000
H 	H 	0.73710 0.18100 0.20380 0.09800
C 	C 	0.79170 0.23500 0.20000 -0.06600
H 	H 	0.79730 0.26120 0.22880 0.03700
H 	H 	0.80500 0.17730 0.20080 0.01000
C 	C 	0.80520 0.29700 0.16700 -0.21800
H 	H 	0.83320 0.30340 0.17480 0.05900
H 	H 	0.79910 0.26940 0.13790 0.09100
C 	C 	0.78700 0.39100 0.16400 -0.08500
H 	H 	0.79620 0.42690 0.14190 0.13400
H 	H 	0.79350 0.42130 0.19180 0.28400
C 	C 	0.74220 0.37600 0.15000 -0.15000
H 	H 	0.72870 0.43340 0.14810 0.11000
H 	H 	0.73570 0.34690 0.12150 0.01200
C 	C 	0.73000 0.31700 0.18500 -0.16900
H 	H 	0.70190 0.31310 0.17990 0.07900
H 	H 	0.73910 0.34320 0.21390 0.03900
Cl	Cl	0.04370 0.90000 0.64840 -0.34700
C 	C 	0.00400 0.87200 0.60600 -0.03000
H 	H 	0.00470 0.80730 0.60210 0.02400
H 	H 	0.98060 0.88480 0.61720 0.07400
Cl	Cl	0.96100 0.98600 0.53560 -0.67600
C 	C 	0.99800 0.91400 0.56000 0.25600
H 	H 	0.99750 0.86430 0.54000 -0.00700
H 	H 	0.02200 0.94680 0.55960 0.01100
H 	H 	0.95630 0.39190 0.47890 -0.50000
C 	C 	0.89870 0.39500 0.48560 -1.14900
H 	H 	0.90800 0.43650 0.50980 0.37400
H 	H 	0.88840 0.34210 0.49710 0.40200
C 	C 	0.86710 0.44200 0.45000 0.91300
H 	H 	0.86450 0.41110 0.42190 -0.33300
H 	H 	0.84210 0.44140 0.45860 -0.27200
C 	C 	0.88200 0.53900 0.44700 -1.16800
H 	H 	0.86330 0.57640 0.42800 0.38000
H 	H 	0.88900 0.56680 0.47590 0.38800
C 	C 	0.91800 0.52100 0.42700 1.32500
H 	H 	0.94140 0.53970 0.44790 -0.38600
H 	H 	0.91650 0.55540 0.40050 -0.54100
C 	C 	0.92000 0.41900 0.41800 -1.48400
H 	H 	0.93900 0.40770 0.39990 0.47700
H 	H 	0.89480 0.39820 0.40200 0.53100
C 	C 	0.96100 0.61500 0.37980 -0.18500
H 	H 	0.95140 0.66890 0.39170 0.06100
H 	H 	0.94940 0.56300 0.39080 0.07300
C 	C 	0.00590 0.61100 0.39400 -0.06400
H 	H 	0.01510 0.54900 0.39420 0.02700
H 	H 	0.01480 0.63700 0.42270 0.02100
C 	C 	0.01970 0.66700 0.35800 -0.13200
H 	H 	0.01860 0.63030 0.33180 0.07300
H 	H 	0.04640 0.68560 0.36830 0.07300
C 	C 	0.99300 0.75100 0.34700 -0.11700
H 	H 	0.98610 0.77500 0.37280 0.06400
H 	H 	0.00630 0.79730 0.33320 0.08300
C 	C 	0.95700 0.71700 0.31400 -0.07700
H 	H 	0.96100 0.71780 0.28400 0.04600
H 	H 	0.93440 0.75350 0.31540 0.05200
C 	C 	0.95050 0.61700 0.32850 0.20900
H 	H 	0.92370 0.59910 0.31810 -0.03100
H 	H 	0.96700 0.57600 0.31640 0.13600
C 	C 	0.76940 0.46400 0.31200 -0.33100
H 	H 	0.76560 0.52820 0.31620 0.12700
H 	H 	0.74490 0.43850 0.29720 0.12600
C 	C 	0.78500 0.41700 0.35600 0.16700
H 	H 	0.76420 0.41640 0.37300 -0.01600
H 	H 	0.79120 0.35540 0.35090 -0.02100
C 	C 	0.82000 0.46500 0.38290 -0.40800
H 	H 	0.83220 0.42890 0.40800 0.18000
H 	H 	0.81310 0.52290 0.39350 0.14400
C 	C 	0.84900 0.47800 0.35200 0.31300
H 	H 	0.87000 0.51690 0.36620 -0.12900
H 	H 	0.86020 0.42040 0.34710 -0.08700
C 	C 	0.83200 0.51900 0.30600 -0.37400
H 	H 	0.85170 0.52830 0.28940 0.15300
H 	H 	0.81950 0.57690 0.30950 0.14300
C 	C 	0.80100 0.45000 0.28300 0.21400
H 	H 	0.81120 0.38880 0.28600 -0.05000
H 	H 	0.79140 0.46410 0.25270 -0.15200
C 	C 	0.76300 0.32600 0.19300 0.27900
H 	H 	0.77020 0.28320 0.17240 0.04600
H 	H 	0.75100 0.29370 0.21350 -0.01300
C 	C 	0.73480 0.39600 0.16800 -0.22000
H 	H 	0.71260 0.40150 0.18190 0.09700
H 	H 	0.72560 0.37590 0.13800 0.13500
C 	C 	0.75450 0.49000 0.16800 -0.04500
H 	H 	0.73780 0.52790 0.14650 0.02600
H 	H 	0.75680 0.51700 0.19630 0.03600
C 	C 	0.79460 0.48600 0.15610 -0.29400
H 	H 	0.79200 0.47930 0.12460 0.07400
H 	H 	0.80830 0.54230 0.16470 0.11200
C 	C 	0.81780 0.40800 0.18000 -0.19800
H 	H 	0.84440 0.42720 0.19040 0.08200
H 	H 	0.81800 0.35930 0.15900 0.13500
C 	C 	0.80100 0.37400 0.21800 -0.55300
H 	H 	0.79440 0.42360 0.23620 0.23200
H 	H 	0.81790 0.33260 0.23680 0.20200
C 	C 	0.92700 0.88900 0.51200 -0.92100
H 	H 	0.93790 0.94880 0.51300 0.58600
H 	H 	0.89940 0.89560 0.51250 0.31200
C 	C 	0.94600 0.83800 0.55200 0.67600
H 	H 	0.93150 0.84550 0.57520 -0.16500
H 	H 	0.97200 0.86270 0.56310 -0.19600
C 	C 	0.95000 0.73700 0.54400 -0.68100
H 	H 	0.97470 0.72550 0.53500 0.22800
H 	H 	0.95060 0.70360 0.57100 0.23600
C 	C 	0.91700 0.70400 0.50800 0.45900
H 	H 	0.89230 0.71760 0.51680 -0.11300
H 	H 	0.91840 0.63880 0.50560 -0.15000
C 	C 	0.91700 0.74700 0.46400 -0.61900
H 	H 	0.89150 0.74320 0.44540 0.20900
H 	H 	0.93490 0.71390 0.44950 0.19200
C 	C 	0.93000 0.84600 0.46800 0.52900
H 	H 	0.95640 0.85050 0.46400 -0.12700
H 	H 	0.91370 0.88000 0.44410 -0.12200
C 	C 	0.02000 0.22600 0.49400 -0.79700
H 	H 	0.04500 0.19780 0.49820 -0.02000
H 	H 	0.00990 0.23310 0.46270 0.17400
C 	C 	0.99200 0.16500 0.51300 0.51500
H 	H 	0.00500 0.14130 0.54160 -0.08900
H 	H 	0.98310 0.11560 0.49380 -0.12600
C 	C 	0.95800 0.22600 0.51900 0.54200
H 	H 	0.93390 0.19080 0.51400 -0.10400
H 	H 	0.96210 0.24980 0.54850 -0.13600
C 	C 	0.95300 0.30400 0.48600 0.34200
H 	H 	0.95500 0.28190 0.45680 0.13700
H 	H 	0.92800 0.33260 0.48340 -0.38900
C 	C 	0.98600 0.37300 0.50100 0.05500
H 	H 	0.98000 0.40790 0.52600 0.02200
H 	H 	0.98780 0.41470 0.47790 0.07800
C 	C 	0.02400 0.31900 0.51600 -0.04500
H 	H 	0.04510 0.35150 0.50770 -0.06200
H 	H 	0.02950 0.31220 0.54770 -0.06400
C 	C 	0.93150 0.37100 0.46300 1.60700
H 	H 	0.93280 0.30600 0.45870 -0.48100
C 	C 	0.06900 0.70800 0.66700 -0.40400
H 	H 	0.04650 0.72140 0.64360 0.18000
H 	H 	0.06890 0.75100 0.69040 0.13700
C 	C 	0.06350 0.61200 0.68470 0.21300
H 	H 	0.08250 0.60270 0.71160 -0.03100
H 	H 	0.03790 0.60690 0.69150 -0.24500
C 	C 	0.06800 0.53900 0.65200 -0.71500
H 	H 	0.04480 0.53590 0.62920 0.24900
H 	H 	0.07170 0.48150 0.66670 0.23500
C 	C 	0.10300 0.55600 0.63000 0.92400
H 	H 	0.10290 0.51100 0.60740 -0.28400
H 	H 	0.12670 0.54980 0.65170 -0.23500
C 	C 	0.10100 0.65100 0.60900 -0.53900
H 	H 	0.07680 0.66070 0.58900 0.19600
H 	H 	0.12230 0.65860 0.59330 0.14700
C 	C 	0.10600 0.71700 0.64900 0.23200
H 	H 	0.12860 0.70040 0.67160 -0.03800
H 	H 	0.10950 0.77830 0.64000 -0.02800
C 	C 	0.25300 0.22100 0.81600 -0.21400
H 	H 	0.25890 0.19630 0.84540 0.10000
H 	H 	0.26290 0.18100 0.79620 0.09800
C 	C 	0.20830 0.23500 0.80000 -0.06600
H 	H 	0.20270 0.26120 0.77120 0.03700
H 	H 	0.19500 0.17730 0.79920 0.01000
C 	C 	0.19480 0.29700 0.83300 -0.21800
H 	H 	0.16680 0.30340 0.82520 0.05900
H 	H 	0.20090 0.26940 0.86210 0.09100
C 	C 	0.21300 0.39100 0.83600 -0.08500
H 	H 	0.20380 0.42690 0.85810 0.13400
H 	H 	0.20650 0.42130 0.80820 0.28400
C 	C 	0.25780 0.37600 0.85000 -0.15000
H 	H 	0.27130 0.43340 0.85190 0.11000
H 	H 	0.26430 0.34690 0.87850 0.01200
C 	C 	0.27000 0.31700 0.81500 -0.16900
H 	H 	0.29810 0.31310 0.82010 0.07900
H 	H 	0.26090 0.34320 0.78610 0.03900
Cl	Cl	0.95630 0.90000 0.35160 -0.34700
C 	C 	0.99600 0.87200 0.39400 -0.03000
H 	H 	0.99530 0.80730 0.39790 0.02400
H 	H 	0.01940 0.88480 0.38280 0.07400
Cl	Cl	0.03900 0.98600 0.46440 -0.67600
C 	C 	0.00200 0.91400 0.44000 0.25600
H 	H 	0.00250 0.86430 0.46000 -0.00700
H 	H 	0.97800 0.94680 0.44040 0.01100
H 	H 	0.04370 0.39190 0.52110 -0.50000
C 	C 	0.10130 0.39500 0.51440 -1.14900
H 	H 	0.09200 0.43650 0.49020 0.37400
H 	H 	0.11160 0.34210 0.50290 0.40200
C 	C 	0.13290 0.44200 0.55000 0.91300
H 	H 	0.13550 0.41110 0.57810 -0.33300
H 	H 	0.15790 0.44140 0.54140 -0.27200
C 	C 	0.11800 0.53900 0.55300 -1.16800
H 	H 	0.13670 0.57640 0.57200 0.38000
H 	H 	0.11100 0.56680 0.52410 0.38800
C 	C 	0.08200 0.52100 0.57300 1.32500
H 	H 	0.05860 0.53970 0.55210 -0.38600
H 	H 	0.08350 0.55540 0.59950 -0.54100
C 	C 	0.08000 0.41900 0.58200 -1.48400
H 	H 	0.06100 0.40770 0.60010 0.47700
H 	H 	0.10520 0.39820 0.59800 0.53100
C 	C 	0.03900 0.61500 0.62020 -0.18500
H 	H 	0.04860 0.66890 0.60830 0.06100
H 	H 	0.05060 0.56300 0.60920 0.07300
C 	C 	0.99410 0.61100 0.60600 -0.06400
H 	H 	0.98490 0.54900 0.60580 0.02700
H 	H 	0.98520 0.63700 0.57730 0.02100
C 	C 	0.98030 0.66700 0.64200 -0.13200
H 	H 	0.98140 0.63030 0.66820 0.07300
H 	H 	0.95360 0.68560 0.63170 0.07300
C 	C 	0.00700 0.75100 0.65300 -0.11700
H 	H 	0.01390 0.77500 0.62720 0.06400
H 	H 	0.99370 0.79730 0.66680 0.08300
C 	C 	0.04300 0.71700 0.68600 -0.07700
H 	H 	0.03900 0.71780 0.71600 0.04600
H 	H 	0.06560 0.75350 0.68460 0.05200
C 	C 	0.04950 0.61700 0.67150 0.20900
H 	H 	0.07630 0.59910 0.68190 -0.03100
H 	H 	0.03300 0.57600 0.68360 0.13600
C 	C 	0.23060 0.46400 0.68800 -0.33100
H 	H 	0.23440 0.52820 0.68380 0.12700
H 	H 	0.25510 0.43850 0.70280 0.12600
C 	C 	0.21500 0.41700 0.64400 0.16700
H 	H 	0.23580 0.41640 0.62700 -0.01600
H 	H 	0.20880 0.35540 0.64910 -0.02100
C 	C 	0.18000 0.46500 0.61710 -0.40800
H 	H 	0.16780 0.42890 0.59200 0.18000
H 	H 	0.18690 0.52290 0.60650 0.14400
C 	C 	0.15100 0.47800 0.64800 0.31300
H 	H 	0.13000 0.51690 0.63380 -0.12900
H 	H 	0.13980 0.42040 0.65290 -0.08700
C 	C 	0.16800 0.51900 0.69400 -0.37400
H 	H 	0.14830 0.52830 0.71060 0.15300
H 	H 	0.18050 0.57690 0.69050 0.14300
C 	C 	0.19900 0.45000 0.71700 0.21400
H 	H 	0.18880 0.38880 0.71400 -0.05000
H 	H 	0.20860 0.46410 0.74730 -0.15200
C 	C 	0.23700 0.32600 0.80700 0.27900
H 	H 	0.22980 0.28320 0.82760 0.04600
H 	H 	0.24900 0.29370 0.78650 -0.01300
C 	C 	0.26520 0.39600 0.83200 -0.22000
H 	H 	0.28740 0.40150 0.81810 0.09700
H 	H 	0.27440 0.37590 0.86200 0.13500
C 	C 	0.24550 0.49000 0.83200 -0.04500
H 	H 	0.26220 0.52790 0.85350 0.02600
H 	H 	0.24320 0.51700 0.80370 0.03600
C 	C 	0.20540 0.48600 0.84390 -0.29400
H 	H 	0.20800 0.47930 0.87540 0.07400
H 	H 	0.19170 0.54230 0.83530 0.11200
C 	C 	0.18220 0.40800 0.82000 -0.19800
H 	H 	0.15560 0.42720 0.80960 0.08200
H 	H 	0.18200 0.35930 0.84100 0.13500
C 	C 	0.19900 0.37400 0.78200 -0.55300
H 	H 	0.20560 0.42360 0.76380 0.23200
H 	H 	0.18210 0.33260 0.76320 0.20200
C 	C 	0.07300 0.88900 0.48800 -0.92100
H 	H 	0.06210 0.94880 0.48700 0.58600
H 	H 	0.10060 0.89560 0.48750 0.31200
C 	C 	0.05400 0.83800 0.44800 0.67600
H 	H 	0.06850 0.84550 0.42480 -0.16500
H 	H 	0.02800 0.86270 0.43690 -0.19600
C 	C 	0.05000 0.73700 0.45600 -0.68100
H 	H 	0.02530 0.72550 0.46500 0.22800
H 	H 	0.04940 0.70360 0.42900 0.23600
C 	C 	0.08300 0.70400 0.49200 0.45900
H 	H 	0.10770 0.71760 0.48320 -0.11300
H 	H 	0.08160 0.63880 0.49440 -0.15000
C 	C 	0.08300 0.74700 0.53600 -0.61900
H 	H 	0.10850 0.74320 0.55460 0.20900
H 	H 	0.06510 0.71390 0.55050 0.19200
C 	C 	0.07000 0.84600 0.53200 0.52900
H 	H 	0.04360 0.85050 0.53600 -0.12700
H 	H 	0.08630 0.88000 0.55590 -0.12200
C 	C 	0.98000 0.22600 0.50600 -0.79700
H 	H 	0.95500 0.19780 0.50180 -0.02000
H 	H 	0.99010 0.23310 0.53730 0.17400
C 	C 	0.00800 0.16500 0.48700 0.51500
H 	H 	0.99500 0.14130 0.45840 -0.08900
H 	H 	0.01690 0.11560 0.50620 -0.12600
C 	C 	0.04200 0.22600 0.48100 0.54200
H 	H 	0.06610 0.19080 0.48600 -0.10400
H 	H 	0.03790 0.24980 0.45150 -0.13600
C 	C 	0.04700 0.30400 0.51400 0.34200
H 	H 	0.04500 0.28190 0.54320 0.13700
H 	H 	0.07200 0.33260 0.51660 -0.38900
C 	C 	0.01400 0.37300 0.49900 0.05500
H 	H 	0.02000 0.40790 0.47400 0.02200
H 	H 	0.01220 0.41470 0.52210 0.07800
C 	C 	0.97600 0.31900 0.48400 -0.04500
H 	H 	0.95490 0.35150 0.49230 -0.06200
H 	H 	0.97050 0.31220 0.45230 -0.06400
C 	C 	0.06850 0.37100 0.53700 1.60700
H 	H 	0.06720 0.30600 0.54130 -0.48100
