data_crystal

_cell_length_a 33.00280
_cell_length_b 33.00280
_cell_length_c 33.48230
_cell_angle_alpha 90.00000
_cell_angle_beta  90.00000
_cell_angle_gamma 90.00000

_symmetry_space_group_name_	'P 1'
_symmetry_space_group_name_H-M	'P 1'

loop_
_symmetry_equiv_pos_as_xyz
  x,y,z

loop_
_atom_site_label
_atom_site_type_symbol
_atom_site_fract_x
_atom_site_fract_y
_atom_site_fract_z
_atom_site_charge
O 	O 	0.32349 0.04138 0.45857 -0.41100
O 	O 	0.25557 0.04112 0.45896 -0.41300
C 	C 	0.28943 0.05262 0.44593 0.36600
C 	C 	0.28918 0.08122 0.41180 -0.11300
C 	C 	0.32484 0.09521 0.39524 0.03900
H 	H 	0.35000 0.08650 0.40600 0.03000
C 	C 	0.32429 0.12162 0.36329 -0.10000
H 	H 	0.34910 0.13070 0.35200 0.06300
C 	C 	0.28782 0.13510 0.34744 0.03600
C 	C 	0.25215 0.12105 0.36444 -0.09800
H 	H 	0.22690 0.13010 0.35400 0.06300
C 	C 	0.25243 0.09440 0.39600 0.03700
H 	H 	0.22760 0.08500 0.40700 0.03300
C 	C 	0.28656 0.16388 0.31366 0.05000
C 	C 	0.31346 0.16185 0.28239 -0.13000
H 	H 	0.33410 0.14180 0.28260 0.07300
C 	C 	0.25312 0.22170 0.28245 0.03000
C 	C 	0.25707 0.19403 0.31330 -0.10200
H 	H 	0.23880 0.19570 0.33520 0.06400
C 	C 	0.41330 0.98990 0.46760 -0.07200
H 	H 	0.39920 0.98330 0.44450 0.05100
C 	C 	0.45522 0.98940 0.46680 -0.01300
H 	H 	0.46870 0.98180 0.44370 0.02300
C 	C 	0.41470 0.02970 0.48490 0.06000
H 	H 	0.40080 0.04860 0.47010 0.00800
C 	C 	0.45610 0.03190 0.48570 -0.09300
H 	H 	0.46960 0.05300 0.47370 0.05200
O 	O 	0.82349 0.54138 0.95857 -0.39900
O 	O 	0.75557 0.54112 0.95896 -0.40000
C 	C 	0.78943 0.55262 0.94593 0.36400
C 	C 	0.78918 0.58122 0.91180 -0.10700
C 	C 	0.82484 0.59521 0.89524 0.03900
H 	H 	0.85000 0.58650 0.90600 0.03300
C 	C 	0.82429 0.62162 0.86329 -0.09700
H 	H 	0.84910 0.63070 0.85200 0.06400
C 	C 	0.78782 0.63510 0.84744 0.03500
C 	C 	0.75215 0.62105 0.86444 -0.09600
H 	H 	0.72690 0.63010 0.85400 0.06300
C 	C 	0.75243 0.59440 0.89600 0.03600
H 	H 	0.72760 0.58500 0.90700 0.03700
C 	C 	0.78656 0.66388 0.81366 0.05200
C 	C 	0.81346 0.66185 0.78239 -0.13200
H 	H 	0.83410 0.64180 0.78260 0.07500
C 	C 	0.75312 0.72170 0.78245 0.03100
C 	C 	0.75707 0.69403 0.81330 -0.10300
H 	H 	0.73880 0.69570 0.83520 0.06500
C 	C 	0.91330 0.48990 0.96760 -0.02000
H 	H 	0.89920 0.48330 0.94450 0.02900
C 	C 	0.95522 0.48940 0.96680 0.04300
H 	H 	0.96870 0.48180 0.94370 0.00400
C 	C 	0.91470 0.52970 0.98490 0.01700
H 	H 	0.90080 0.54860 0.97010 0.02700
C 	C 	0.95610 0.53190 0.98570 -0.15200
H 	H 	0.96960 0.55300 0.97370 0.07900
O 	O 	0.67651 0.95862 0.45857 -0.40500
O 	O 	0.74443 0.95888 0.45896 -0.40500
C 	C 	0.71057 0.94738 0.44593 0.36400
C 	C 	0.71082 0.91878 0.41180 -0.11000
C 	C 	0.67516 0.90479 0.39524 0.03800
H 	H 	0.65000 0.91350 0.40600 0.03000
C 	C 	0.67571 0.87838 0.36329 -0.09900
H 	H 	0.65090 0.86930 0.35200 0.06300
C 	C 	0.71218 0.86490 0.34744 0.03500
C 	C 	0.74785 0.87895 0.36444 -0.09700
H 	H 	0.77310 0.86990 0.35400 0.06300
C 	C 	0.74757 0.90560 0.39600 0.03600
H 	H 	0.77240 0.91500 0.40700 0.03600
C 	C 	0.71344 0.83612 0.31366 0.05100
C 	C 	0.68654 0.83815 0.28239 -0.13200
H 	H 	0.66590 0.85820 0.28260 0.07400
C 	C 	0.74688 0.77830 0.28245 0.03000
C 	C 	0.74293 0.80597 0.31330 -0.10300
H 	H 	0.76120 0.80430 0.33520 0.06400
C 	C 	0.58670 0.01010 0.46760 -0.02900
H 	H 	0.60080 0.01670 0.44450 0.02800
C 	C 	0.54478 0.01060 0.46680 0.03400
H 	H 	0.53130 0.01820 0.44370 0.00000
C 	C 	0.58530 0.97030 0.48490 0.08100
H 	H 	0.59920 0.95140 0.47010 0.00200
C 	C 	0.54390 0.96810 0.48570 -0.07300
H 	H 	0.53040 0.94700 0.47370 0.04500
O 	O 	0.17651 0.45862 0.95857 -0.40100
O 	O 	0.24443 0.45888 0.95896 -0.40100
C 	C 	0.21057 0.44738 0.94593 0.36300
C 	C 	0.21082 0.41878 0.91180 -0.10900
C 	C 	0.17516 0.40479 0.89524 0.03700
H 	H 	0.15000 0.41350 0.90600 0.03100
C 	C 	0.17571 0.37838 0.86329 -0.09800
H 	H 	0.15090 0.36930 0.85200 0.06200
C 	C 	0.21218 0.36490 0.84744 0.03400
C 	C 	0.24785 0.37895 0.86444 -0.09600
H 	H 	0.27310 0.36990 0.85400 0.06300
C 	C 	0.24757 0.40560 0.89600 0.03500
H 	H 	0.27240 0.41500 0.90700 0.03700
C 	C 	0.21344 0.33612 0.81366 0.05100
C 	C 	0.18654 0.33815 0.78239 -0.13200
H 	H 	0.16590 0.35820 0.78260 0.07300
C 	C 	0.24688 0.27830 0.78245 0.03000
C 	C 	0.24293 0.30597 0.81330 -0.10300
H 	H 	0.26120 0.30430 0.83520 0.06400
C 	C 	0.08670 0.51010 0.96760 -0.01500
H 	H 	0.10080 0.51670 0.94450 0.02700
C 	C 	0.04478 0.51060 0.96680 0.04500
H 	H 	0.03130 0.51820 0.94370 -0.00200
C 	C 	0.08530 0.47030 0.98490 0.00600
H 	H 	0.09920 0.45140 0.97010 0.02900
C 	C 	0.04390 0.46810 0.98570 -0.13600
H 	H 	0.03040 0.44700 0.97370 0.06700
O 	O 	0.95862 0.32349 0.45857 -0.40500
O 	O 	0.95888 0.25557 0.45896 -0.40600
C 	C 	0.94738 0.28943 0.44593 0.36400
C 	C 	0.91878 0.28918 0.41180 -0.11000
C 	C 	0.90479 0.32484 0.39524 0.03800
H 	H 	0.91350 0.35000 0.40600 0.03000
C 	C 	0.87838 0.32429 0.36329 -0.09900
H 	H 	0.86930 0.34910 0.35200 0.06300
C 	C 	0.86490 0.28782 0.34744 0.03500
C 	C 	0.87895 0.25215 0.36444 -0.09700
H 	H 	0.86990 0.22690 0.35400 0.06300
C 	C 	0.90560 0.25243 0.39600 0.03600
H 	H 	0.91500 0.22760 0.40700 0.03500
C 	C 	0.83612 0.28656 0.31366 0.05000
C 	C 	0.83815 0.31346 0.28239 -0.13200
H 	H 	0.85820 0.33410 0.28260 0.07400
C 	C 	0.77830 0.25312 0.28245 0.03000
C 	C 	0.80597 0.25707 0.31330 -0.10300
H 	H 	0.80430 0.23880 0.33520 0.06300
C 	C 	0.01010 0.41330 0.46760 -0.02900
H 	H 	0.01670 0.39920 0.44450 0.02800
C 	C 	0.01060 0.45522 0.46680 0.03400
H 	H 	0.01820 0.46870 0.44370 0.00000
C 	C 	0.97030 0.41470 0.48490 0.08100
H 	H 	0.95140 0.40080 0.47010 0.00200
C 	C 	0.96810 0.45610 0.48570 -0.07300
H 	H 	0.94700 0.46960 0.47370 0.04500
O 	O 	0.45862 0.82349 0.95857 -0.40100
O 	O 	0.45888 0.75557 0.95896 -0.40100
C 	C 	0.44738 0.78943 0.94593 0.36300
C 	C 	0.41878 0.78918 0.91180 -0.10800
C 	C 	0.40479 0.82484 0.89524 0.03800
H 	H 	0.41350 0.85000 0.90600 0.03200
C 	C 	0.37838 0.82429 0.86329 -0.09800
H 	H 	0.36930 0.84910 0.85200 0.06400
C 	C 	0.36490 0.78782 0.84744 0.03500
C 	C 	0.37895 0.75215 0.86444 -0.09600
H 	H 	0.36990 0.72690 0.85400 0.06300
C 	C 	0.40560 0.75243 0.89600 0.03500
H 	H 	0.41500 0.72760 0.90700 0.03700
C 	C 	0.33612 0.78656 0.81366 0.05100
C 	C 	0.33815 0.81346 0.78239 -0.13200
H 	H 	0.35820 0.83410 0.78260 0.07500
C 	C 	0.27830 0.75312 0.78245 0.03100
C 	C 	0.30597 0.75707 0.81330 -0.10300
H 	H 	0.30430 0.73880 0.83520 0.06500
C 	C 	0.51010 0.91330 0.96760 -0.02000
H 	H 	0.51670 0.89920 0.94450 0.02900
C 	C 	0.51060 0.95522 0.96680 0.04300
H 	H 	0.51820 0.96870 0.94370 0.00400
C 	C 	0.47030 0.91470 0.98490 0.01700
H 	H 	0.45140 0.90080 0.97010 0.02700
C 	C 	0.46810 0.95610 0.98570 -0.15200
H 	H 	0.44700 0.96960 0.97370 0.07900
O 	O 	0.04138 0.67651 0.45857 -0.41200
O 	O 	0.04112 0.74443 0.45896 -0.41300
C 	C 	0.05262 0.71057 0.44593 0.36500
C 	C 	0.08122 0.71082 0.41180 -0.11300
C 	C 	0.09521 0.67516 0.39524 0.03800
H 	H 	0.08650 0.65000 0.40600 0.02900
C 	C 	0.12162 0.67571 0.36329 -0.10100
H 	H 	0.13070 0.65090 0.35200 0.06200
C 	C 	0.13510 0.71218 0.34744 0.03500
C 	C 	0.12105 0.74785 0.36444 -0.09900
H 	H 	0.13010 0.77310 0.35400 0.06200
C 	C 	0.09440 0.74757 0.39600 0.03600
H 	H 	0.08500 0.77240 0.40700 0.03400
C 	C 	0.16388 0.71344 0.31366 0.04900
C 	C 	0.16185 0.68654 0.28239 -0.13100
H 	H 	0.14180 0.66590 0.28260 0.07300
C 	C 	0.22170 0.74688 0.28245 0.02900
C 	C 	0.19403 0.74293 0.31330 -0.10200
H 	H 	0.19570 0.76120 0.33520 0.06300
C 	C 	0.98990 0.58670 0.46760 -0.07300
H 	H 	0.98330 0.60080 0.44450 0.05000
C 	C 	0.98940 0.54478 0.46680 -0.01400
H 	H 	0.98180 0.53130 0.44370 0.02200
C 	C 	0.02970 0.58530 0.48490 0.05900
H 	H 	0.04860 0.59920 0.47010 0.00700
C 	C 	0.03190 0.54390 0.48570 -0.09400
H 	H 	0.05300 0.53040 0.47370 0.05100
O 	O 	0.54138 0.17651 0.95857 -0.40100
O 	O 	0.54112 0.24443 0.95896 -0.40100
C 	C 	0.55262 0.21057 0.94593 0.36300
C 	C 	0.58122 0.21082 0.91180 -0.10900
C 	C 	0.59521 0.17516 0.89524 0.03700
H 	H 	0.58650 0.15000 0.90600 0.03100
C 	C 	0.62162 0.17571 0.86329 -0.09800
H 	H 	0.63070 0.15090 0.85200 0.06200
C 	C 	0.63510 0.21218 0.84744 0.03400
C 	C 	0.62105 0.24785 0.86444 -0.09600
H 	H 	0.63010 0.27310 0.85400 0.06300
C 	C 	0.59440 0.24757 0.89600 0.03500
H 	H 	0.58500 0.27240 0.90700 0.03700
C 	C 	0.66388 0.21344 0.81366 0.05100
C 	C 	0.66185 0.18654 0.78239 -0.13100
H 	H 	0.64180 0.16590 0.78260 0.07300
C 	C 	0.72170 0.24688 0.78245 0.03000
C 	C 	0.69403 0.24293 0.81330 -0.10300
H 	H 	0.69570 0.26120 0.83520 0.06400
C 	C 	0.48990 0.08670 0.96760 -0.01500
H 	H 	0.48330 0.10080 0.94450 0.02700
C 	C 	0.48940 0.04478 0.96680 0.04500
H 	H 	0.48180 0.03130 0.94370 -0.00200
C 	C 	0.52970 0.08530 0.98490 0.00600
H 	H 	0.54860 0.09920 0.97010 0.02900
C 	C 	0.53190 0.04390 0.98570 -0.13600
H 	H 	0.55300 0.03040 0.97370 0.06700
O 	O 	0.67651 0.04138 0.54143 -0.41100
O 	O 	0.74443 0.04112 0.54104 -0.41300
C 	C 	0.71057 0.05262 0.55407 0.36500
C 	C 	0.71082 0.08122 0.58820 -0.11300
C 	C 	0.67516 0.09521 0.60476 0.03800
H 	H 	0.65000 0.08650 0.59400 0.02900
C 	C 	0.67571 0.12162 0.63671 -0.10100
H 	H 	0.65090 0.13070 0.64800 0.06200
C 	C 	0.71218 0.13510 0.65256 0.03500
C 	C 	0.74785 0.12105 0.63556 -0.09900
H 	H 	0.77310 0.13010 0.64600 0.06300
C 	C 	0.74757 0.09440 0.60400 0.03700
H 	H 	0.77240 0.08500 0.59300 0.03400
C 	C 	0.71344 0.16388 0.68634 0.05000
C 	C 	0.68654 0.16185 0.71761 -0.13100
H 	H 	0.66590 0.14180 0.71740 0.07300
C 	C 	0.74688 0.22170 0.71755 0.03000
C 	C 	0.74293 0.19403 0.68670 -0.10200
H 	H 	0.76120 0.19570 0.66480 0.06300
C 	C 	0.58670 0.98990 0.53240 -0.07300
H 	H 	0.60080 0.98330 0.55550 0.05000
C 	C 	0.54478 0.98940 0.53320 -0.01400
H 	H 	0.53130 0.98180 0.55630 0.02200
C 	C 	0.58530 0.02970 0.51510 0.05900
H 	H 	0.59920 0.04860 0.52990 0.00700
C 	C 	0.54390 0.03190 0.51430 -0.09400
H 	H 	0.53040 0.05300 0.52630 0.05100
O 	O 	0.17651 0.54138 0.04143 -0.41400
O 	O 	0.24443 0.54112 0.04104 -0.41600
C 	C 	0.21057 0.55262 0.05407 0.36500
C 	C 	0.21082 0.58122 0.08820 -0.11500
C 	C 	0.17516 0.59521 0.10476 0.03800
H 	H 	0.15000 0.58650 0.09400 0.02800
C 	C 	0.17571 0.62162 0.13671 -0.10200
H 	H 	0.15090 0.63070 0.14800 0.06100
C 	C 	0.21218 0.63510 0.15256 0.03500
C 	C 	0.24785 0.62105 0.13556 -0.10000
H 	H 	0.27310 0.63010 0.14600 0.06200
C 	C 	0.24757 0.59440 0.10400 0.03700
H 	H 	0.27240 0.58500 0.09300 0.03200
C 	C 	0.21344 0.66388 0.18634 0.04900
C 	C 	0.18654 0.66185 0.21761 -0.13100
H 	H 	0.16590 0.64180 0.21740 0.07300
C 	C 	0.24688 0.72170 0.21755 0.02900
C 	C 	0.24293 0.69403 0.18670 -0.10200
H 	H 	0.26120 0.69570 0.16480 0.06200
C 	C 	0.08670 0.48990 0.03240 -0.07800
H 	H 	0.10080 0.48330 0.05550 0.04900
C 	C 	0.04478 0.48940 0.03320 -0.02200
H 	H 	0.03130 0.48180 0.05630 0.02000
C 	C 	0.08530 0.52970 0.01510 0.12100
H 	H 	0.09920 0.54860 0.02990 -0.01600
C 	C 	0.04390 0.53190 0.01430 -0.00700
H 	H 	0.03040 0.55300 0.02630 0.01600
O 	O 	0.32349 0.95862 0.54143 -0.40500
O 	O 	0.25557 0.95888 0.54104 -0.40600
C 	C 	0.28943 0.94738 0.55407 0.36400
C 	C 	0.28918 0.91878 0.58820 -0.11000
C 	C 	0.32484 0.90479 0.60476 0.03800
H 	H 	0.35000 0.91350 0.59400 0.03000
C 	C 	0.32429 0.87838 0.63671 -0.09900
H 	H 	0.34910 0.86930 0.64800 0.06300
C 	C 	0.28782 0.86490 0.65256 0.03500
C 	C 	0.25215 0.87895 0.63556 -0.09700
H 	H 	0.22690 0.86990 0.64600 0.06300
C 	C 	0.25243 0.90560 0.60400 0.03600
H 	H 	0.22760 0.91500 0.59300 0.03500
C 	C 	0.28656 0.83612 0.68634 0.05100
C 	C 	0.31346 0.83815 0.71761 -0.13200
H 	H 	0.33410 0.85820 0.71740 0.07500
C 	C 	0.25312 0.77830 0.71755 0.03000
C 	C 	0.25707 0.80597 0.68670 -0.10300
H 	H 	0.23880 0.80430 0.66480 0.06400
C 	C 	0.41330 0.01010 0.53240 -0.02900
H 	H 	0.39920 0.01670 0.55550 0.02800
C 	C 	0.45522 0.01060 0.53320 0.03400
H 	H 	0.46870 0.01820 0.55630 0.00000
C 	C 	0.41470 0.97030 0.51510 0.08100
H 	H 	0.40080 0.95140 0.52990 0.00200
C 	C 	0.45610 0.96810 0.51430 -0.07300
H 	H 	0.46960 0.94700 0.52630 0.04500
O 	O 	0.82349 0.45862 0.04143 -0.41300
O 	O 	0.75557 0.45888 0.04104 -0.41600
C 	C 	0.78943 0.44738 0.05407 0.36500
C 	C 	0.78918 0.41878 0.08820 -0.11400
C 	C 	0.82484 0.40479 0.10476 0.03900
H 	H 	0.85000 0.41350 0.09400 0.02900
C 	C 	0.82429 0.37838 0.13671 -0.10100
H 	H 	0.84910 0.36930 0.14800 0.06300
C 	C 	0.78782 0.36490 0.15256 0.03500
C 	C 	0.75215 0.37895 0.13556 -0.09900
H 	H 	0.72690 0.36990 0.14600 0.06200
C 	C 	0.75243 0.40560 0.10400 0.03700
H 	H 	0.72760 0.41500 0.09300 0.03200
C 	C 	0.78656 0.33612 0.18634 0.04900
C 	C 	0.81346 0.33815 0.21761 -0.13200
H 	H 	0.83410 0.35820 0.21740 0.07400
C 	C 	0.75312 0.27830 0.21755 0.03000
C 	C 	0.75707 0.30597 0.18670 -0.10300
H 	H 	0.73880 0.30430 0.16480 0.06200
C 	C 	0.91330 0.51010 0.03240 -0.08300
H 	H 	0.89920 0.51670 0.05550 0.05100
C 	C 	0.95522 0.51060 0.03320 -0.02400
H 	H 	0.96870 0.51820 0.05630 0.02500
C 	C 	0.91470 0.47030 0.01510 0.13200
H 	H 	0.90080 0.45140 0.02990 -0.01900
C 	C 	0.95610 0.46810 0.01430 -0.02300
H 	H 	0.96960 0.44700 0.02630 0.02700
O 	O 	0.04138 0.32349 0.54143 -0.41200
O 	O 	0.04112 0.25557 0.54104 -0.41300
C 	C 	0.05262 0.28943 0.55407 0.36500
C 	C 	0.08122 0.28918 0.58820 -0.11300
C 	C 	0.09521 0.32484 0.60476 0.03800
H 	H 	0.08650 0.35000 0.59400 0.02900
C 	C 	0.12162 0.32429 0.63671 -0.10100
H 	H 	0.13070 0.34910 0.64800 0.06200
C 	C 	0.13510 0.28782 0.65256 0.03500
C 	C 	0.12105 0.25215 0.63556 -0.09900
H 	H 	0.13010 0.22690 0.64600 0.06200
C 	C 	0.09440 0.25243 0.60400 0.03700
H 	H 	0.08500 0.22760 0.59300 0.03300
C 	C 	0.16388 0.28656 0.68634 0.04900
C 	C 	0.16185 0.31346 0.71761 -0.13100
H 	H 	0.14180 0.33410 0.71740 0.07300
C 	C 	0.22170 0.25312 0.71755 0.03000
C 	C 	0.19403 0.25707 0.68670 -0.10300
H 	H 	0.19570 0.23880 0.66480 0.06300
C 	C 	0.98990 0.41330 0.53240 -0.07300
H 	H 	0.98330 0.39920 0.55550 0.05000
C 	C 	0.98940 0.45522 0.53320 -0.01400
H 	H 	0.98180 0.46870 0.55630 0.02200
C 	C 	0.02970 0.41470 0.51510 0.05900
H 	H 	0.04860 0.40080 0.52990 0.00700
C 	C 	0.03190 0.45610 0.51430 -0.09400
H 	H 	0.05300 0.46960 0.52630 0.05100
O 	O 	0.54138 0.82349 0.04143 -0.41300
O 	O 	0.54112 0.75557 0.04104 -0.41600
C 	C 	0.55262 0.78943 0.05407 0.36500
C 	C 	0.58122 0.78918 0.08820 -0.11400
C 	C 	0.59521 0.82484 0.10476 0.03900
H 	H 	0.58650 0.85000 0.09400 0.02900
C 	C 	0.62162 0.82429 0.13671 -0.10100
H 	H 	0.63070 0.84910 0.14800 0.06300
C 	C 	0.63510 0.78782 0.15256 0.03500
C 	C 	0.62105 0.75215 0.13556 -0.09900
H 	H 	0.63010 0.72690 0.14600 0.06200
C 	C 	0.59440 0.75243 0.10400 0.03700
H 	H 	0.58500 0.72760 0.09300 0.03200
C 	C 	0.66388 0.78656 0.18634 0.04900
C 	C 	0.66185 0.81346 0.21761 -0.13100
H 	H 	0.64180 0.83410 0.21740 0.07400
C 	C 	0.72170 0.75312 0.21755 0.03000
C 	C 	0.69403 0.75707 0.18670 -0.10300
H 	H 	0.69570 0.73880 0.16480 0.06300
C 	C 	0.48990 0.91330 0.03240 -0.08300
H 	H 	0.48330 0.89920 0.05550 0.05100
C 	C 	0.48940 0.95522 0.03320 -0.02400
H 	H 	0.48180 0.96870 0.05630 0.02500
C 	C 	0.52970 0.91470 0.01510 0.13200
H 	H 	0.54860 0.90080 0.02990 -0.01900
C 	C 	0.53190 0.95610 0.01430 -0.02300
H 	H 	0.55300 0.96960 0.02630 0.02800
O 	O 	0.95862 0.67651 0.54143 -0.40500
O 	O 	0.95888 0.74443 0.54104 -0.40500
C 	C 	0.94738 0.71057 0.55407 0.36400
C 	C 	0.91878 0.71082 0.58820 -0.11000
C 	C 	0.90479 0.67516 0.60476 0.03800
H 	H 	0.91350 0.65000 0.59400 0.03100
C 	C 	0.87838 0.67571 0.63671 -0.09900
H 	H 	0.86930 0.65090 0.64800 0.06300
C 	C 	0.86490 0.71218 0.65256 0.03500
C 	C 	0.87895 0.74785 0.63556 -0.09700
H 	H 	0.86990 0.77310 0.64600 0.06400
C 	C 	0.90560 0.74757 0.60400 0.03600
H 	H 	0.91500 0.77240 0.59300 0.03600
C 	C 	0.83612 0.71344 0.68634 0.05100
C 	C 	0.83815 0.68654 0.71761 -0.13200
H 	H 	0.85820 0.66590 0.71740 0.07500
C 	C 	0.77830 0.74688 0.71755 0.03100
C 	C 	0.80597 0.74293 0.68670 -0.10300
H 	H 	0.80430 0.76120 0.66480 0.06400
C 	C 	0.01010 0.58670 0.53240 -0.02900
H 	H 	0.01670 0.60080 0.55550 0.02800
C 	C 	0.01060 0.54478 0.53320 0.03400
H 	H 	0.01820 0.53130 0.55630 0.00000
C 	C 	0.97030 0.58530 0.51510 0.08100
H 	H 	0.95140 0.59920 0.52990 0.00200
C 	C 	0.96810 0.54390 0.51430 -0.07300
H 	H 	0.94700 0.53040 0.52630 0.04500
O 	O 	0.45862 0.17651 0.04143 -0.41400
O 	O 	0.45888 0.24443 0.04104 -0.41600
C 	C 	0.44738 0.21057 0.05407 0.36500
C 	C 	0.41878 0.21082 0.08820 -0.11500
C 	C 	0.40479 0.17516 0.10476 0.03800
H 	H 	0.41350 0.15000 0.09400 0.02800
C 	C 	0.37838 0.17571 0.13671 -0.10200
H 	H 	0.36930 0.15090 0.14800 0.06100
C 	C 	0.36490 0.21218 0.15256 0.03500
C 	C 	0.37895 0.24785 0.13556 -0.10000
H 	H 	0.36990 0.27310 0.14600 0.06200
C 	C 	0.40560 0.24757 0.10400 0.03700
H 	H 	0.41500 0.27240 0.09300 0.03200
C 	C 	0.33612 0.21344 0.18634 0.04800
C 	C 	0.33815 0.18654 0.21761 -0.13100
H 	H 	0.35820 0.16590 0.21740 0.07200
C 	C 	0.27830 0.24688 0.21755 0.02900
C 	C 	0.30597 0.24293 0.18670 -0.10300
H 	H 	0.30430 0.26120 0.16480 0.06200
C 	C 	0.51010 0.08670 0.03240 -0.07800
H 	H 	0.51670 0.10080 0.05550 0.04900
C 	C 	0.51060 0.04478 0.03320 -0.02200
H 	H 	0.51820 0.03130 0.05630 0.02000
C 	C 	0.47030 0.08530 0.01510 0.12100
H 	H 	0.45140 0.09920 0.02990 -0.01600
C 	C 	0.46810 0.04390 0.01430 -0.00700
H 	H 	0.44700 0.03040 0.02630 0.01500
O 	O 	0.67651 0.95862 0.54143 -0.40500
O 	O 	0.74443 0.95888 0.54104 -0.40500
C 	C 	0.71057 0.94738 0.55407 0.36400
C 	C 	0.71082 0.91878 0.58820 -0.11000
C 	C 	0.67516 0.90479 0.60476 0.03800
H 	H 	0.65000 0.91350 0.59400 0.03100
C 	C 	0.67571 0.87838 0.63671 -0.09900
H 	H 	0.65090 0.86930 0.64800 0.06300
C 	C 	0.71218 0.86490 0.65256 0.03500
C 	C 	0.74785 0.87895 0.63556 -0.09700
H 	H 	0.77310 0.86990 0.64600 0.06400
C 	C 	0.74757 0.90560 0.60400 0.03600
H 	H 	0.77240 0.91500 0.59300 0.03600
C 	C 	0.71344 0.83612 0.68634 0.05100
C 	C 	0.68654 0.83815 0.71761 -0.13200
H 	H 	0.66590 0.85820 0.71740 0.07500
C 	C 	0.74688 0.77830 0.71755 0.03100
C 	C 	0.74293 0.80597 0.68670 -0.10300
H 	H 	0.76120 0.80430 0.66480 0.06400
C 	C 	0.58670 0.01010 0.53240 -0.02900
H 	H 	0.60080 0.01670 0.55550 0.02800
C 	C 	0.54478 0.01060 0.53320 0.03400
H 	H 	0.53130 0.01820 0.55630 0.00000
C 	C 	0.58530 0.97030 0.51510 0.08100
H 	H 	0.59920 0.95140 0.52990 0.00200
C 	C 	0.54390 0.96810 0.51430 -0.07300
H 	H 	0.53040 0.94700 0.52630 0.04500
O 	O 	0.17651 0.45862 0.04143 -0.41400
O 	O 	0.24443 0.45888 0.04104 -0.41600
C 	C 	0.21057 0.44738 0.05407 0.36500
C 	C 	0.21082 0.41878 0.08820 -0.11500
C 	C 	0.17516 0.40479 0.10476 0.03800
H 	H 	0.15000 0.41350 0.09400 0.02800
C 	C 	0.17571 0.37838 0.13671 -0.10200
H 	H 	0.15090 0.36930 0.14800 0.06100
C 	C 	0.21218 0.36490 0.15256 0.03500
C 	C 	0.24785 0.37895 0.13556 -0.10000
H 	H 	0.27310 0.36990 0.14600 0.06200
C 	C 	0.24757 0.40560 0.10400 0.03700
H 	H 	0.27240 0.41500 0.09300 0.03200
C 	C 	0.21344 0.33612 0.18634 0.04800
C 	C 	0.18654 0.33815 0.21761 -0.13100
H 	H 	0.16590 0.35820 0.21740 0.07200
C 	C 	0.24688 0.27830 0.21755 0.02900
C 	C 	0.24293 0.30597 0.18670 -0.10300
H 	H 	0.26120 0.30430 0.16480 0.06200
C 	C 	0.08670 0.51010 0.03240 -0.07800
H 	H 	0.10080 0.51670 0.05550 0.04900
C 	C 	0.04478 0.51060 0.03320 -0.02200
H 	H 	0.03130 0.51820 0.05630 0.02000
C 	C 	0.08530 0.47030 0.01510 0.12100
H 	H 	0.09920 0.45140 0.02990 -0.01600
C 	C 	0.04390 0.46810 0.01430 -0.00700
H 	H 	0.03040 0.44700 0.02630 0.01500
O 	O 	0.32349 0.04138 0.54143 -0.41200
O 	O 	0.25557 0.04112 0.54104 -0.41300
C 	C 	0.28943 0.05262 0.55407 0.36500
C 	C 	0.28918 0.08122 0.58820 -0.11300
C 	C 	0.32484 0.09521 0.60476 0.03800
H 	H 	0.35000 0.08650 0.59400 0.02900
C 	C 	0.32429 0.12162 0.63671 -0.10100
H 	H 	0.34910 0.13070 0.64800 0.06200
C 	C 	0.28782 0.13510 0.65256 0.03500
C 	C 	0.25215 0.12105 0.63556 -0.09900
H 	H 	0.22690 0.13010 0.64600 0.06200
C 	C 	0.25243 0.09440 0.60400 0.03700
H 	H 	0.22760 0.08500 0.59300 0.03300
C 	C 	0.28656 0.16388 0.68634 0.04900
C 	C 	0.31346 0.16185 0.71761 -0.13100
H 	H 	0.33410 0.14180 0.71740 0.07300
C 	C 	0.25312 0.22170 0.71755 0.03000
C 	C 	0.25707 0.19403 0.68670 -0.10300
H 	H 	0.23880 0.19570 0.66480 0.06300
C 	C 	0.41330 0.98990 0.53240 -0.07300
H 	H 	0.39920 0.98330 0.55550 0.05000
C 	C 	0.45522 0.98940 0.53320 -0.01400
H 	H 	0.46870 0.98180 0.55630 0.02200
C 	C 	0.41470 0.02970 0.51510 0.05900
H 	H 	0.40080 0.04860 0.52990 0.00700
C 	C 	0.45610 0.03190 0.51430 -0.09400
H 	H 	0.46960 0.05300 0.52630 0.05100
O 	O 	0.82349 0.54138 0.04143 -0.41300
O 	O 	0.75557 0.54112 0.04104 -0.41600
C 	C 	0.78943 0.55262 0.05407 0.36500
C 	C 	0.78918 0.58122 0.08820 -0.11400
C 	C 	0.82484 0.59521 0.10476 0.03900
H 	H 	0.85000 0.58650 0.09400 0.02900
C 	C 	0.82429 0.62162 0.13671 -0.10100
H 	H 	0.84910 0.63070 0.14800 0.06300
C 	C 	0.78782 0.63510 0.15256 0.03500
C 	C 	0.75215 0.62105 0.13556 -0.09900
H 	H 	0.72690 0.63010 0.14600 0.06200
C 	C 	0.75243 0.59440 0.10400 0.03700
H 	H 	0.72760 0.58500 0.09300 0.03200
C 	C 	0.78656 0.66388 0.18634 0.04900
C 	C 	0.81346 0.66185 0.21761 -0.13100
H 	H 	0.83410 0.64180 0.21740 0.07400
C 	C 	0.75312 0.72170 0.21755 0.03000
C 	C 	0.75707 0.69403 0.18670 -0.10300
H 	H 	0.73880 0.69570 0.16480 0.06300
C 	C 	0.91330 0.48990 0.03240 -0.08300
H 	H 	0.89920 0.48330 0.05550 0.05100
C 	C 	0.95522 0.48940 0.03320 -0.02400
H 	H 	0.96870 0.48180 0.05630 0.02500
C 	C 	0.91470 0.52970 0.01510 0.13200
H 	H 	0.90080 0.54860 0.02990 -0.01900
C 	C 	0.95610 0.53190 0.01430 -0.02300
H 	H 	0.96960 0.55300 0.02630 0.02800
O 	O 	0.04138 0.67651 0.54143 -0.41100
O 	O 	0.04112 0.74443 0.54104 -0.41300
C 	C 	0.05262 0.71057 0.55407 0.36500
C 	C 	0.08122 0.71082 0.58820 -0.11300
C 	C 	0.09521 0.67516 0.60476 0.03800
H 	H 	0.08650 0.65000 0.59400 0.02900
C 	C 	0.12162 0.67571 0.63671 -0.10100
H 	H 	0.13070 0.65090 0.64800 0.06200
C 	C 	0.13510 0.71218 0.65256 0.03500
C 	C 	0.12105 0.74785 0.63556 -0.09900
H 	H 	0.13010 0.77310 0.64600 0.06300
C 	C 	0.09440 0.74757 0.60400 0.03700
H 	H 	0.08500 0.77240 0.59300 0.03400
C 	C 	0.16388 0.71344 0.68634 0.05000
C 	C 	0.16185 0.68654 0.71761 -0.13100
H 	H 	0.14180 0.66590 0.71740 0.07300
C 	C 	0.22170 0.74688 0.71755 0.03000
C 	C 	0.19403 0.74293 0.68670 -0.10200
H 	H 	0.19570 0.76120 0.66480 0.06300
C 	C 	0.98990 0.58670 0.53240 -0.07300
H 	H 	0.98330 0.60080 0.55550 0.05000
C 	C 	0.98940 0.54478 0.53320 -0.01400
H 	H 	0.98180 0.53130 0.55630 0.02200
C 	C 	0.02970 0.58530 0.51510 0.05900
H 	H 	0.04860 0.59920 0.52990 0.00700
C 	C 	0.03190 0.54390 0.51430 -0.09400
H 	H 	0.05300 0.53040 0.52630 0.05100
O 	O 	0.54138 0.17651 0.04143 -0.41400
O 	O 	0.54112 0.24443 0.04104 -0.41600
C 	C 	0.55262 0.21057 0.05407 0.36500
C 	C 	0.58122 0.21082 0.08820 -0.11500
C 	C 	0.59521 0.17516 0.10476 0.03800
H 	H 	0.58650 0.15000 0.09400 0.02800
C 	C 	0.62162 0.17571 0.13671 -0.10200
H 	H 	0.63070 0.15090 0.14800 0.06100
C 	C 	0.63510 0.21218 0.15256 0.03500
C 	C 	0.62105 0.24785 0.13556 -0.10000
H 	H 	0.63010 0.27310 0.14600 0.06200
C 	C 	0.59440 0.24757 0.10400 0.03700
H 	H 	0.58500 0.27240 0.09300 0.03200
C 	C 	0.66388 0.21344 0.18634 0.04900
C 	C 	0.66185 0.18654 0.21761 -0.13100
H 	H 	0.64180 0.16590 0.21740 0.07300
C 	C 	0.72170 0.24688 0.21755 0.02900
C 	C 	0.69403 0.24293 0.18670 -0.10200
H 	H 	0.69570 0.26120 0.16480 0.06200
C 	C 	0.48990 0.08670 0.03240 -0.07800
H 	H 	0.48330 0.10080 0.05550 0.04900
C 	C 	0.48940 0.04478 0.03320 -0.02200
H 	H 	0.48180 0.03130 0.05630 0.02000
C 	C 	0.52970 0.08530 0.01510 0.12100
H 	H 	0.54860 0.09920 0.02990 -0.01600
C 	C 	0.53190 0.04390 0.01430 -0.00700
H 	H 	0.55300 0.03040 0.02630 0.01600
O 	O 	0.95862 0.32349 0.54143 -0.40500
O 	O 	0.95888 0.25557 0.54104 -0.40600
C 	C 	0.94738 0.28943 0.55407 0.36400
C 	C 	0.91878 0.28918 0.58820 -0.11000
C 	C 	0.90479 0.32484 0.60476 0.03800
H 	H 	0.91350 0.35000 0.59400 0.03000
C 	C 	0.87838 0.32429 0.63671 -0.09900
H 	H 	0.86930 0.34910 0.64800 0.06300
C 	C 	0.86490 0.28782 0.65256 0.03500
C 	C 	0.87895 0.25215 0.63556 -0.09700
H 	H 	0.86990 0.22690 0.64600 0.06300
C 	C 	0.90560 0.25243 0.60400 0.03600
H 	H 	0.91500 0.22760 0.59300 0.03500
C 	C 	0.83612 0.28656 0.68634 0.05100
C 	C 	0.83815 0.31346 0.71761 -0.13200
H 	H 	0.85820 0.33410 0.71740 0.07500
C 	C 	0.77830 0.25312 0.71755 0.03000
C 	C 	0.80597 0.25707 0.68670 -0.10300
H 	H 	0.80430 0.23880 0.66480 0.06400
C 	C 	0.01010 0.41330 0.53240 -0.02900
H 	H 	0.01670 0.39920 0.55550 0.02800
C 	C 	0.01060 0.45522 0.53320 0.03400
H 	H 	0.01820 0.46870 0.55630 0.00000
C 	C 	0.97030 0.41470 0.51510 0.08100
H 	H 	0.95140 0.40080 0.52990 0.00200
C 	C 	0.96810 0.45610 0.51430 -0.07300
H 	H 	0.94700 0.46960 0.52630 0.04500
O 	O 	0.45862 0.82349 0.04143 -0.41300
O 	O 	0.45888 0.75557 0.04104 -0.41600
C 	C 	0.44738 0.78943 0.05407 0.36500
C 	C 	0.41878 0.78918 0.08820 -0.11400
C 	C 	0.40479 0.82484 0.10476 0.03900
H 	H 	0.41350 0.85000 0.09400 0.02900
C 	C 	0.37838 0.82429 0.13671 -0.10100
H 	H 	0.36930 0.84910 0.14800 0.06300
C 	C 	0.36490 0.78782 0.15256 0.03500
C 	C 	0.37895 0.75215 0.13556 -0.09900
H 	H 	0.36990 0.72690 0.14600 0.06200
C 	C 	0.40560 0.75243 0.10400 0.03700
H 	H 	0.41500 0.72760 0.09300 0.03200
C 	C 	0.33612 0.78656 0.18634 0.04900
C 	C 	0.33815 0.81346 0.21761 -0.13200
H 	H 	0.35820 0.83410 0.21740 0.07400
C 	C 	0.27830 0.75312 0.21755 0.03000
C 	C 	0.30597 0.75707 0.18670 -0.10300
H 	H 	0.30430 0.73880 0.16480 0.06200
C 	C 	0.51010 0.91330 0.03240 -0.08300
H 	H 	0.51670 0.89920 0.05550 0.05100
C 	C 	0.51060 0.95522 0.03320 -0.02400
H 	H 	0.51820 0.96870 0.05630 0.02500
C 	C 	0.47030 0.91470 0.01510 0.13200
H 	H 	0.45140 0.90080 0.02990 -0.01900
C 	C 	0.46810 0.95610 0.01430 -0.02300
H 	H 	0.44700 0.96960 0.02630 0.02700
O 	O 	0.32349 0.95862 0.45857 -0.40500
O 	O 	0.25557 0.95888 0.45896 -0.40600
C 	C 	0.28943 0.94738 0.44593 0.36400
C 	C 	0.28918 0.91878 0.41180 -0.11000
C 	C 	0.32484 0.90479 0.39524 0.03800
H 	H 	0.35000 0.91350 0.40600 0.03000
C 	C 	0.32429 0.87838 0.36329 -0.09900
H 	H 	0.34910 0.86930 0.35200 0.06300
C 	C 	0.28782 0.86490 0.34744 0.03500
C 	C 	0.25215 0.87895 0.36444 -0.09700
H 	H 	0.22690 0.86990 0.35400 0.06300
C 	C 	0.25243 0.90560 0.39600 0.03600
H 	H 	0.22760 0.91500 0.40700 0.03500
C 	C 	0.28656 0.83612 0.31366 0.05000
C 	C 	0.31346 0.83815 0.28239 -0.13200
H 	H 	0.33410 0.85820 0.28260 0.07400
C 	C 	0.25312 0.77830 0.28245 0.03000
C 	C 	0.25707 0.80597 0.31330 -0.10300
H 	H 	0.23880 0.80430 0.33520 0.06300
C 	C 	0.41330 0.01010 0.46760 -0.02900
H 	H 	0.39920 0.01670 0.44450 0.02800
C 	C 	0.45522 0.01060 0.46680 0.03400
H 	H 	0.46870 0.01820 0.44370 0.00000
C 	C 	0.41470 0.97030 0.48490 0.08100
H 	H 	0.40080 0.95140 0.47010 0.00200
C 	C 	0.45610 0.96810 0.48570 -0.07300
H 	H 	0.46960 0.94700 0.47370 0.04500
O 	O 	0.82349 0.45862 0.95857 -0.40100
O 	O 	0.75557 0.45888 0.95896 -0.40100
C 	C 	0.78943 0.44738 0.94593 0.36300
C 	C 	0.78918 0.41878 0.91180 -0.10800
C 	C 	0.82484 0.40479 0.89524 0.03800
H 	H 	0.85000 0.41350 0.90600 0.03200
C 	C 	0.82429 0.37838 0.86329 -0.09800
H 	H 	0.84910 0.36930 0.85200 0.06400
C 	C 	0.78782 0.36490 0.84744 0.03500
C 	C 	0.75215 0.37895 0.86444 -0.09600
H 	H 	0.72690 0.36990 0.85400 0.06300
C 	C 	0.75243 0.40560 0.89600 0.03500
H 	H 	0.72760 0.41500 0.90700 0.03700
C 	C 	0.78656 0.33612 0.81366 0.05100
C 	C 	0.81346 0.33815 0.78239 -0.13200
H 	H 	0.83410 0.35820 0.78260 0.07500
C 	C 	0.75312 0.27830 0.78245 0.03100
C 	C 	0.75707 0.30597 0.81330 -0.10300
H 	H 	0.73880 0.30430 0.83520 0.06500
C 	C 	0.91330 0.51010 0.96760 -0.02000
H 	H 	0.89920 0.51670 0.94450 0.02900
C 	C 	0.95522 0.51060 0.96680 0.04300
H 	H 	0.96870 0.51820 0.94370 0.00400
C 	C 	0.91470 0.47030 0.98490 0.01700
H 	H 	0.90080 0.45140 0.97010 0.02700
C 	C 	0.95610 0.46810 0.98570 -0.15200
H 	H 	0.96960 0.44700 0.97370 0.07900
O 	O 	0.67651 0.04138 0.45857 -0.41200
O 	O 	0.74443 0.04112 0.45896 -0.41300
C 	C 	0.71057 0.05262 0.44593 0.36500
C 	C 	0.71082 0.08122 0.41180 -0.11300
C 	C 	0.67516 0.09521 0.39524 0.03800
H 	H 	0.65000 0.08650 0.40600 0.02900
C 	C 	0.67571 0.12162 0.36329 -0.10100
H 	H 	0.65090 0.13070 0.35200 0.06200
C 	C 	0.71218 0.13510 0.34744 0.03500
C 	C 	0.74785 0.12105 0.36444 -0.09900
H 	H 	0.77310 0.13010 0.35400 0.06200
C 	C 	0.74757 0.09440 0.39600 0.03600
H 	H 	0.77240 0.08500 0.40700 0.03400
C 	C 	0.71344 0.16388 0.31366 0.04900
C 	C 	0.68654 0.16185 0.28239 -0.13100
H 	H 	0.66590 0.14180 0.28260 0.07300
C 	C 	0.74688 0.22170 0.28245 0.02900
C 	C 	0.74293 0.19403 0.31330 -0.10200
H 	H 	0.76120 0.19570 0.33520 0.06300
C 	C 	0.58670 0.98990 0.46760 -0.07300
H 	H 	0.60080 0.98330 0.44450 0.05000
C 	C 	0.54478 0.98940 0.46680 -0.01400
H 	H 	0.53130 0.98180 0.44370 0.02200
C 	C 	0.58530 0.02970 0.48490 0.05900
H 	H 	0.59920 0.04860 0.47010 0.00700
C 	C 	0.54390 0.03190 0.48570 -0.09400
H 	H 	0.53040 0.05300 0.47370 0.05100
O 	O 	0.17651 0.54138 0.95857 -0.40100
O 	O 	0.24443 0.54112 0.95896 -0.40100
C 	C 	0.21057 0.55262 0.94593 0.36300
C 	C 	0.21082 0.58122 0.91180 -0.10900
C 	C 	0.17516 0.59521 0.89524 0.03700
H 	H 	0.15000 0.58650 0.90600 0.03100
C 	C 	0.17571 0.62162 0.86329 -0.09800
H 	H 	0.15090 0.63070 0.85200 0.06200
C 	C 	0.21218 0.63510 0.84744 0.03400
C 	C 	0.24785 0.62105 0.86444 -0.09600
H 	H 	0.27310 0.63010 0.85400 0.06300
C 	C 	0.24757 0.59440 0.89600 0.03500
H 	H 	0.27240 0.58500 0.90700 0.03700
C 	C 	0.21344 0.66388 0.81366 0.05100
C 	C 	0.18654 0.66185 0.78239 -0.13100
H 	H 	0.16590 0.64180 0.78260 0.07300
C 	C 	0.24688 0.72170 0.78245 0.03000
C 	C 	0.24293 0.69403 0.81330 -0.10300
H 	H 	0.26120 0.69570 0.83520 0.06400
C 	C 	0.08670 0.48990 0.96760 -0.01500
H 	H 	0.10080 0.48330 0.94450 0.02700
C 	C 	0.04478 0.48940 0.96680 0.04500
H 	H 	0.03130 0.48180 0.94370 -0.00200
C 	C 	0.08530 0.52970 0.98490 0.00600
H 	H 	0.09920 0.54860 0.97010 0.02900
C 	C 	0.04390 0.53190 0.98570 -0.13600
H 	H 	0.03040 0.55300 0.97370 0.06700
O 	O 	0.95862 0.67651 0.45857 -0.40500
O 	O 	0.95888 0.74443 0.45896 -0.40500
C 	C 	0.94738 0.71057 0.44593 0.36400
C 	C 	0.91878 0.71082 0.41180 -0.11000
C 	C 	0.90479 0.67516 0.39524 0.03800
H 	H 	0.91350 0.65000 0.40600 0.03000
C 	C 	0.87838 0.67571 0.36329 -0.09900
H 	H 	0.86930 0.65090 0.35200 0.06300
C 	C 	0.86490 0.71218 0.34744 0.03500
C 	C 	0.87895 0.74785 0.36444 -0.09700
H 	H 	0.86990 0.77310 0.35400 0.06300
C 	C 	0.90560 0.74757 0.39600 0.03600
H 	H 	0.91500 0.77240 0.40700 0.03600
C 	C 	0.83612 0.71344 0.31366 0.05100
C 	C 	0.83815 0.68654 0.28239 -0.13200
H 	H 	0.85820 0.66590 0.28260 0.07400
C 	C 	0.77830 0.74688 0.28245 0.03000
C 	C 	0.80597 0.74293 0.31330 -0.10300
H 	H 	0.80430 0.76120 0.33520 0.06400
C 	C 	0.01010 0.58670 0.46760 -0.02900
H 	H 	0.01670 0.60080 0.44450 0.02800
C 	C 	0.01060 0.54478 0.46680 0.03400
H 	H 	0.01820 0.53130 0.44370 0.00000
C 	C 	0.97030 0.58530 0.48490 0.08100
H 	H 	0.95140 0.59920 0.47010 0.00200
C 	C 	0.96810 0.54390 0.48570 -0.07300
H 	H 	0.94700 0.53040 0.47370 0.04500
O 	O 	0.45862 0.17651 0.95857 -0.40100
O 	O 	0.45888 0.24443 0.95896 -0.40100
C 	C 	0.44738 0.21057 0.94593 0.36300
C 	C 	0.41878 0.21082 0.91180 -0.10900
C 	C 	0.40479 0.17516 0.89524 0.03700
H 	H 	0.41350 0.15000 0.90600 0.03100
C 	C 	0.37838 0.17571 0.86329 -0.09800
H 	H 	0.36930 0.15090 0.85200 0.06200
C 	C 	0.36490 0.21218 0.84744 0.03400
C 	C 	0.37895 0.24785 0.86444 -0.09600
H 	H 	0.36990 0.27310 0.85400 0.06300
C 	C 	0.40560 0.24757 0.89600 0.03500
H 	H 	0.41500 0.27240 0.90700 0.03700
C 	C 	0.33612 0.21344 0.81366 0.05100
C 	C 	0.33815 0.18654 0.78239 -0.13200
H 	H 	0.35820 0.16590 0.78260 0.07300
C 	C 	0.27830 0.24688 0.78245 0.03000
C 	C 	0.30597 0.24293 0.81330 -0.10300
H 	H 	0.30430 0.26120 0.83520 0.06400
C 	C 	0.51010 0.08670 0.96760 -0.01500
H 	H 	0.51670 0.10080 0.94450 0.02700
C 	C 	0.51060 0.04478 0.96680 0.04500
H 	H 	0.51820 0.03130 0.94370 -0.00200
C 	C 	0.47030 0.08530 0.98490 0.00600
H 	H 	0.45140 0.09920 0.97010 0.02900
C 	C 	0.46810 0.04390 0.98570 -0.13600
H 	H 	0.44700 0.03040 0.97370 0.06700
O 	O 	0.04138 0.32349 0.45857 -0.41200
O 	O 	0.04112 0.25557 0.45896 -0.41400
C 	C 	0.05262 0.28943 0.44593 0.36500
C 	C 	0.08122 0.28918 0.41180 -0.11400
C 	C 	0.09521 0.32484 0.39524 0.03800
H 	H 	0.08650 0.35000 0.40600 0.02900
C 	C 	0.12162 0.32429 0.36329 -0.10100
H 	H 	0.13070 0.34910 0.35200 0.06200
C 	C 	0.13510 0.28782 0.34744 0.03500
C 	C 	0.12105 0.25215 0.36444 -0.09900
H 	H 	0.13010 0.22690 0.35400 0.06200
C 	C 	0.09440 0.25243 0.39600 0.03600
H 	H 	0.08500 0.22760 0.40700 0.03200
C 	C 	0.16388 0.28656 0.31366 0.04900
C 	C 	0.16185 0.31346 0.28239 -0.13100
H 	H 	0.14180 0.33410 0.28260 0.07200
C 	C 	0.22170 0.25312 0.28245 0.02900
C 	C 	0.19403 0.25707 0.31330 -0.10300
H 	H 	0.19570 0.23880 0.33520 0.06300
C 	C 	0.98990 0.41330 0.46760 -0.07300
H 	H 	0.98330 0.39920 0.44450 0.05000
C 	C 	0.98940 0.45522 0.46680 -0.01400
H 	H 	0.98180 0.46870 0.44370 0.02200
C 	C 	0.02970 0.41470 0.48490 0.05900
H 	H 	0.04860 0.40080 0.47010 0.00700
C 	C 	0.03190 0.45610 0.48570 -0.09400
H 	H 	0.05300 0.46960 0.47370 0.05100
O 	O 	0.54138 0.82349 0.95857 -0.40000
O 	O 	0.54112 0.75557 0.95896 -0.40100
C 	C 	0.55262 0.78943 0.94593 0.36300
C 	C 	0.58122 0.78918 0.91180 -0.10800
C 	C 	0.59521 0.82484 0.89524 0.03800
H 	H 	0.58650 0.85000 0.90600 0.03200
C 	C 	0.62162 0.82429 0.86329 -0.09800
H 	H 	0.63070 0.84910 0.85200 0.06400
C 	C 	0.63510 0.78782 0.84744 0.03500
C 	C 	0.62105 0.75215 0.86444 -0.09600
H 	H 	0.63010 0.72690 0.85400 0.06300
C 	C 	0.59440 0.75243 0.89600 0.03600
H 	H 	0.58500 0.72760 0.90700 0.03700
C 	C 	0.66388 0.78656 0.81366 0.05200
C 	C 	0.66185 0.81346 0.78239 -0.13200
H 	H 	0.64180 0.83410 0.78260 0.07500
C 	C 	0.72170 0.75312 0.78245 0.03100
C 	C 	0.69403 0.75707 0.81330 -0.10300
H 	H 	0.69570 0.73880 0.83520 0.06500
C 	C 	0.48990 0.91330 0.96760 -0.02000
H 	H 	0.48330 0.89920 0.94450 0.02900
C 	C 	0.48940 0.95522 0.96680 0.04300
H 	H 	0.48180 0.96870 0.94370 0.00400
C 	C 	0.52970 0.91470 0.98490 0.01700
H 	H 	0.54860 0.90080 0.97010 0.02700
C 	C 	0.53190 0.95610 0.98570 -0.15200
H 	H 	0.55300 0.96960 0.97370 0.07900
Cu	Cu	0.32976 0.00000 0.50000 0.91000
Cu	Cu	0.25185 0.00000 0.50000 0.90300
N 	N 	0.39394 0.00000 0.50000 -0.20200
C 	C 	0.47755 0.00000 0.50000 0.03400
Cu	Cu	0.82976 0.50000 -0.00000 0.90500
Cu	Cu	0.75185 0.50000 -0.00000 0.89900
N 	N 	0.89394 0.50000 -0.00000 -0.21100
C 	C 	0.97755 0.50000 -0.00000 0.04800
Cu	Cu	0.67024 0.00000 0.50000 0.91000
Cu	Cu	0.74815 0.00000 0.50000 0.90300
N 	N 	0.60606 0.00000 0.50000 -0.20200
C 	C 	0.52245 0.00000 0.50000 0.03400
Cu	Cu	0.17024 0.50000 -0.00000 0.90500
Cu	Cu	0.24815 0.50000 -0.00000 0.89900
N 	N 	0.10606 0.50000 -0.00000 -0.20600
C 	C 	0.02245 0.50000 -0.00000 -0.00400
Cu	Cu	0.00000 0.32976 0.50000 0.91000
Cu	Cu	-0.00000 0.25185 0.50000 0.90300
N 	N 	-0.00000 0.39394 0.50000 -0.20200
C 	C 	0.00000 0.47755 0.50000 0.03400
Cu	Cu	0.50000 0.82976 -0.00000 0.90500
Cu	Cu	0.50000 0.75185 -0.00000 0.89900
N 	N 	0.50000 0.89394 -0.00000 -0.21100
C 	C 	0.50000 0.97755 -0.00000 0.04800
Cu	Cu	-0.00000 0.67024 0.50000 0.91000
Cu	Cu	0.00000 0.74815 0.50000 0.90300
N 	N 	0.00000 0.60606 0.50000 -0.20200
C 	C 	0.00000 0.52245 0.50000 0.03400
Cu	Cu	0.50000 0.17024 -0.00000 0.90500
Cu	Cu	0.50000 0.24815 -0.00000 0.89900
N 	N 	0.50000 0.10606 -0.00000 -0.20600
C 	C 	0.50000 0.02245 -0.00000 -0.00400
C 	C 	0.31095 0.18905 0.25000 0.08800
C 	C 	0.28061 0.21939 0.25000 -0.04800
C 	C 	0.68905 0.81095 0.25000 0.09000
C 	C 	0.71939 0.78061 0.25000 -0.04800
C 	C 	0.81095 0.31095 0.25000 0.08900
C 	C 	0.78061 0.28061 0.25000 -0.04800
C 	C 	0.18905 0.68905 0.25000 0.08800
C 	C 	0.21939 0.71939 0.25000 -0.04800
C 	C 	0.68905 0.18905 0.75000 0.08900
C 	C 	0.71939 0.21939 0.75000 -0.04800
C 	C 	0.31095 0.81095 0.75000 0.09100
C 	C 	0.28061 0.78061 0.75000 -0.04800
C 	C 	0.18905 0.31095 0.75000 0.08900
C 	C 	0.21939 0.28061 0.75000 -0.04800
C 	C 	0.81095 0.68905 0.75000 0.09100
C 	C 	0.78061 0.71939 0.75000 -0.04800
C 	C 	0.68905 0.81095 0.75000 0.09100
C 	C 	0.71939 0.78061 0.75000 -0.04800
C 	C 	0.18905 0.31095 0.25000 0.08800
C 	C 	0.21939 0.28061 0.25000 -0.04800
C 	C 	0.31095 0.18905 0.75000 0.08900
C 	C 	0.28061 0.21939 0.75000 -0.04800
C 	C 	0.18905 0.68905 0.75000 0.08900
C 	C 	0.21939 0.71939 0.75000 -0.04800
C 	C 	0.81095 0.31095 0.75000 0.09100
C 	C 	0.78061 0.28061 0.75000 -0.04800
C 	C 	0.31095 0.81095 0.25000 0.08900
C 	C 	0.28061 0.78061 0.25000 -0.04800
C 	C 	0.68905 0.18905 0.25000 0.08800
C 	C 	0.71939 0.21939 0.25000 -0.04800
C 	C 	0.81095 0.68905 0.25000 0.09000
C 	C 	0.78061 0.71939 0.25000 -0.04800
