data_crystal

_cell_length_a 33.50780
_cell_length_b 33.50780
_cell_length_c 33.45600
_cell_angle_alpha 90.00000
_cell_angle_beta  90.00000
_cell_angle_gamma 90.00000

_symmetry_space_group_name_	'P 1'
_symmetry_space_group_name_H-M	'P 1'

loop_
_symmetry_equiv_pos_as_xyz
  x,y,z

loop_
_atom_site_label
_atom_site_type_symbol
_atom_site_fract_x
_atom_site_fract_y
_atom_site_fract_z
_atom_site_charge
O 	O 	0.32367 0.04175 0.45748 -0.47200
O 	O 	0.25709 0.04131 0.45800 -0.49000
C 	C 	0.29024 0.05307 0.44492 0.41600
C 	C 	0.28979 0.08271 0.41167 -0.15400
C 	C 	0.32416 0.09718 0.39509 0.07800
H 	H 	0.34860 0.08910 0.40540 0.01500
C 	C 	0.32326 0.12335 0.36363 -0.13800
H 	H 	0.34710 0.13240 0.35270 0.07800
C 	C 	0.28758 0.13657 0.34784 0.06100
C 	C 	0.25258 0.12200 0.36478 -0.13800
H 	H 	0.22810 0.13030 0.35480 0.07400
C 	C 	0.25374 0.09570 0.39591 0.07400
H 	H 	0.23000 0.08630 0.40670 0.01200
C 	C 	0.28585 0.16516 0.31388 0.04200
C 	C 	0.31193 0.16236 0.28200 -0.13500
H 	H 	0.33090 0.14210 0.28160 0.07500
C 	C 	0.25282 0.22160 0.28247 0.03000
C 	C 	0.25677 0.19481 0.31341 -0.10700
H 	H 	0.23930 0.19660 0.33490 0.06500
C 	C 	0.41513 0.99000 0.46763 0.01400
H 	H 	0.40110 0.98340 0.44460 0.01200
C 	C 	0.45540 0.98980 0.46632 -0.06800
H 	H 	0.46880 0.98220 0.44320 0.04200
C 	C 	0.41560 0.02800 0.48090 -0.03500
H 	H 	0.40170 0.04700 0.46610 0.03000
C 	C 	0.45552 0.02910 0.48100 -0.02500
H 	H 	0.46900 0.05020 0.46910 0.02700
O 	O 	0.82367 0.54175 0.95748 -0.46000
O 	O 	0.75709 0.54131 0.95800 -0.47600
C 	C 	0.79024 0.55307 0.94492 0.41300
C 	C 	0.78979 0.58271 0.91167 -0.14800
C 	C 	0.82416 0.59718 0.89509 0.07600
H 	H 	0.84860 0.58910 0.90540 0.01900
C 	C 	0.82326 0.62335 0.86363 -0.13400
H 	H 	0.84710 0.63240 0.85270 0.07900
C 	C 	0.78758 0.63657 0.84784 0.05900
C 	C 	0.75258 0.62200 0.86478 -0.13300
H 	H 	0.72810 0.63030 0.85480 0.07600
C 	C 	0.75374 0.59570 0.89591 0.07200
H 	H 	0.73000 0.58630 0.90670 0.01800
C 	C 	0.78585 0.66516 0.81388 0.04600
C 	C 	0.81193 0.66236 0.78200 -0.13700
H 	H 	0.83090 0.64210 0.78160 0.07800
C 	C 	0.75282 0.72160 0.78247 0.03200
C 	C 	0.75677 0.69481 0.81341 -0.10700
H 	H 	0.73930 0.69660 0.83490 0.06700
C 	C 	0.91513 0.49000 0.96763 0.08100
H 	H 	0.90110 0.48340 0.94460 -0.01400
C 	C 	0.95540 0.48980 0.96632 -0.00200
H 	H 	0.96880 0.48220 0.94320 0.02100
C 	C 	0.91560 0.52800 0.98090 -0.08300
H 	H 	0.90170 0.54700 0.96610 0.05200
C 	C 	0.95552 0.52910 0.98100 -0.08300
H 	H 	0.96900 0.55020 0.96910 0.05700
O 	O 	0.67633 0.95825 0.45748 -0.46600
O 	O 	0.74291 0.95869 0.45800 -0.48200
C 	C 	0.70976 0.94693 0.44492 0.41400
C 	C 	0.71021 0.91729 0.41167 -0.15100
C 	C 	0.67584 0.90282 0.39509 0.07600
H 	H 	0.65140 0.91090 0.40540 0.01600
C 	C 	0.67674 0.87665 0.36363 -0.13600
H 	H 	0.65290 0.86760 0.35270 0.07700
C 	C 	0.71242 0.86343 0.34784 0.06000
C 	C 	0.74742 0.87800 0.36478 -0.13500
H 	H 	0.77190 0.86970 0.35480 0.07600
C 	C 	0.74626 0.90430 0.39591 0.07300
H 	H 	0.77000 0.91370 0.40670 0.01600
C 	C 	0.71415 0.83484 0.31388 0.04400
C 	C 	0.68807 0.83764 0.28200 -0.13600
H 	H 	0.66910 0.85790 0.28160 0.07700
C 	C 	0.74718 0.77840 0.28247 0.03100
C 	C 	0.74323 0.80519 0.31341 -0.10700
H 	H 	0.76070 0.80340 0.33490 0.06500
C 	C 	0.58487 0.01000 0.46763 0.05500
H 	H 	0.59890 0.01660 0.44460 -0.01000
C 	C 	0.54460 0.01020 0.46632 -0.02400
H 	H 	0.53120 0.01780 0.44320 0.02100
C 	C 	0.58440 0.97200 0.48090 -0.00800
H 	H 	0.59830 0.95300 0.46610 0.02300
C 	C 	0.54448 0.97090 0.48100 0.00100
H 	H 	0.53100 0.94980 0.46910 0.02000
O 	O 	0.17633 0.45825 0.95748 -0.46100
O 	O 	0.24291 0.45869 0.95800 -0.47600
C 	C 	0.20976 0.44693 0.94492 0.41300
C 	C 	0.21021 0.41729 0.91167 -0.14800
C 	C 	0.17584 0.40282 0.89509 0.07500
H 	H 	0.15140 0.41090 0.90540 0.01700
C 	C 	0.17674 0.37665 0.86363 -0.13500
H 	H 	0.15290 0.36760 0.85270 0.07600
C 	C 	0.21242 0.36343 0.84784 0.05900
C 	C 	0.24742 0.37800 0.86478 -0.13400
H 	H 	0.27190 0.36970 0.85480 0.07600
C 	C 	0.24626 0.40430 0.89591 0.07200
H 	H 	0.27000 0.41370 0.90670 0.01800
C 	C 	0.21415 0.33484 0.81388 0.04400
C 	C 	0.18807 0.33764 0.78200 -0.13600
H 	H 	0.16910 0.35790 0.78160 0.07600
C 	C 	0.24718 0.27840 0.78247 0.03100
C 	C 	0.24323 0.30519 0.81341 -0.10700
H 	H 	0.26070 0.30340 0.83490 0.06600
C 	C 	0.08487 0.51000 0.96763 0.07200
H 	H 	0.09890 0.51660 0.94460 -0.01100
C 	C 	0.04460 0.51020 0.96632 0.01000
H 	H 	0.03120 0.51780 0.94320 0.01100
C 	C 	0.08440 0.47200 0.98090 -0.07900
H 	H 	0.09830 0.45300 0.96610 0.05000
C 	C 	0.04448 0.47090 0.98100 -0.08000
H 	H 	0.03100 0.44980 0.96910 0.04800
O 	O 	0.95825 0.32367 0.45748 -0.46600
O 	O 	0.95869 0.25709 0.45800 -0.48300
C 	C 	0.94693 0.29024 0.44492 0.41400
C 	C 	0.91729 0.28979 0.41167 -0.15100
C 	C 	0.90282 0.32416 0.39509 0.07600
H 	H 	0.91090 0.34860 0.40540 0.01600
C 	C 	0.87665 0.32326 0.36363 -0.13700
H 	H 	0.86760 0.34710 0.35270 0.07700
C 	C 	0.86343 0.28758 0.34784 0.06000
C 	C 	0.87800 0.25258 0.36478 -0.13600
H 	H 	0.86970 0.22810 0.35480 0.07500
C 	C 	0.90430 0.25374 0.39591 0.07300
H 	H 	0.91370 0.23000 0.40670 0.01500
C 	C 	0.83484 0.28585 0.31388 0.04400
C 	C 	0.83764 0.31193 0.28200 -0.13600
H 	H 	0.85790 0.33090 0.28160 0.07700
C 	C 	0.77840 0.25282 0.28247 0.03100
C 	C 	0.80519 0.25677 0.31341 -0.10700
H 	H 	0.80340 0.23930 0.33490 0.06500
C 	C 	0.01000 0.41513 0.46763 0.05500
H 	H 	0.01660 0.40110 0.44460 -0.01000
C 	C 	0.01020 0.45540 0.46632 -0.02400
H 	H 	0.01780 0.46880 0.44320 0.02000
C 	C 	0.97200 0.41560 0.48090 -0.00800
H 	H 	0.95300 0.40170 0.46610 0.02300
C 	C 	0.97090 0.45552 0.48100 0.00100
H 	H 	0.94980 0.46900 0.46910 0.02000
O 	O 	0.45825 0.82367 0.95748 -0.46000
O 	O 	0.45869 0.75709 0.95800 -0.47600
C 	C 	0.44693 0.79024 0.94492 0.41300
C 	C 	0.41729 0.78979 0.91167 -0.14800
C 	C 	0.40282 0.82416 0.89509 0.07500
H 	H 	0.41090 0.84860 0.90540 0.01800
C 	C 	0.37665 0.82326 0.86363 -0.13500
H 	H 	0.36760 0.84710 0.85270 0.07800
C 	C 	0.36343 0.78758 0.84784 0.05900
C 	C 	0.37800 0.75258 0.86478 -0.13300
H 	H 	0.36970 0.72810 0.85480 0.07600
C 	C 	0.40430 0.75374 0.89591 0.07200
H 	H 	0.41370 0.73000 0.90670 0.01800
C 	C 	0.33484 0.78585 0.81388 0.04600
C 	C 	0.33764 0.81193 0.78200 -0.13700
H 	H 	0.35790 0.83090 0.78160 0.07800
C 	C 	0.27840 0.75282 0.78247 0.03200
C 	C 	0.30519 0.75677 0.81341 -0.10800
H 	H 	0.30340 0.73930 0.83490 0.06700
C 	C 	0.51000 0.91513 0.96763 0.08100
H 	H 	0.51660 0.90110 0.94460 -0.01400
C 	C 	0.51020 0.95540 0.96632 -0.00200
H 	H 	0.51780 0.96880 0.94320 0.02100
C 	C 	0.47200 0.91560 0.98090 -0.08300
H 	H 	0.45300 0.90170 0.96610 0.05200
C 	C 	0.47090 0.95552 0.98100 -0.08300
H 	H 	0.44980 0.96900 0.96910 0.05700
O 	O 	0.04175 0.67633 0.45748 -0.47300
O 	O 	0.04131 0.74291 0.45800 -0.49100
C 	C 	0.05307 0.70976 0.44492 0.41500
C 	C 	0.08271 0.71021 0.41167 -0.15500
C 	C 	0.09718 0.67584 0.39509 0.07700
H 	H 	0.08910 0.65140 0.40540 0.01400
C 	C 	0.12335 0.67674 0.36363 -0.13900
H 	H 	0.13240 0.65290 0.35270 0.07700
C 	C 	0.13657 0.71242 0.34784 0.06000
C 	C 	0.12200 0.74742 0.36478 -0.13800
H 	H 	0.13030 0.77190 0.35480 0.07500
C 	C 	0.09570 0.74626 0.39591 0.07400
H 	H 	0.08630 0.77000 0.40670 0.01300
C 	C 	0.16516 0.71415 0.31388 0.04200
C 	C 	0.16236 0.68807 0.28200 -0.13500
H 	H 	0.14210 0.66910 0.28160 0.07500
C 	C 	0.22160 0.74718 0.28247 0.03000
C 	C 	0.19481 0.74323 0.31341 -0.10600
H 	H 	0.19660 0.76070 0.33490 0.06500
C 	C 	0.99000 0.58487 0.46763 0.01400
H 	H 	0.98340 0.59890 0.44460 0.01200
C 	C 	0.98980 0.54460 0.46632 -0.06800
H 	H 	0.98220 0.53120 0.44320 0.04200
C 	C 	0.02800 0.58440 0.48090 -0.03500
H 	H 	0.04700 0.59830 0.46610 0.03000
C 	C 	0.02910 0.54448 0.48100 -0.02500
H 	H 	0.05020 0.53100 0.46910 0.02700
O 	O 	0.54175 0.17633 0.95748 -0.46100
O 	O 	0.54131 0.24291 0.95800 -0.47600
C 	C 	0.55307 0.20976 0.94492 0.41300
C 	C 	0.58271 0.21021 0.91167 -0.14800
C 	C 	0.59718 0.17584 0.89509 0.07500
H 	H 	0.58910 0.15140 0.90540 0.01700
C 	C 	0.62335 0.17674 0.86363 -0.13500
H 	H 	0.63240 0.15290 0.85270 0.07700
C 	C 	0.63657 0.21242 0.84784 0.05900
C 	C 	0.62200 0.24742 0.86478 -0.13400
H 	H 	0.63030 0.27190 0.85480 0.07600
C 	C 	0.59570 0.24626 0.89591 0.07200
H 	H 	0.58630 0.27000 0.90670 0.01800
C 	C 	0.66516 0.21415 0.81388 0.04500
C 	C 	0.66236 0.18807 0.78200 -0.13600
H 	H 	0.64210 0.16910 0.78160 0.07600
C 	C 	0.72160 0.24718 0.78247 0.03100
C 	C 	0.69481 0.24323 0.81341 -0.10700
H 	H 	0.69660 0.26070 0.83490 0.06700
C 	C 	0.49000 0.08487 0.96763 0.07200
H 	H 	0.48340 0.09890 0.94460 -0.01100
C 	C 	0.48980 0.04460 0.96632 0.00900
H 	H 	0.48220 0.03120 0.94320 0.01100
C 	C 	0.52800 0.08440 0.98090 -0.07900
H 	H 	0.54700 0.09830 0.96610 0.05000
C 	C 	0.52910 0.04448 0.98100 -0.08000
H 	H 	0.55020 0.03100 0.96910 0.04900
O 	O 	0.67633 0.04175 0.54252 -0.47300
O 	O 	0.74291 0.04131 0.54200 -0.49000
C 	C 	0.70976 0.05307 0.55508 0.41500
C 	C 	0.71021 0.08271 0.58833 -0.15500
C 	C 	0.67584 0.09718 0.60491 0.07700
H 	H 	0.65140 0.08910 0.59460 0.01400
C 	C 	0.67674 0.12335 0.63637 -0.13900
H 	H 	0.65290 0.13240 0.64730 0.07700
C 	C 	0.71242 0.13657 0.65216 0.06100
C 	C 	0.74742 0.12200 0.63522 -0.13800
H 	H 	0.77190 0.13030 0.64520 0.07600
C 	C 	0.74626 0.09570 0.60409 0.07400
H 	H 	0.77000 0.08630 0.59330 0.01300
C 	C 	0.71415 0.16516 0.68612 0.04300
C 	C 	0.68807 0.16236 0.71800 -0.13500
H 	H 	0.66910 0.14210 0.71840 0.07600
C 	C 	0.74718 0.22160 0.71753 0.03000
C 	C 	0.74323 0.19481 0.68659 -0.10600
H 	H 	0.76070 0.19660 0.66510 0.06500
C 	C 	0.58487 0.99000 0.53237 0.01400
H 	H 	0.59890 0.98340 0.55540 0.01200
C 	C 	0.54460 0.98980 0.53368 -0.06800
H 	H 	0.53120 0.98220 0.55680 0.04200
C 	C 	0.58440 0.02800 0.51910 -0.03500
H 	H 	0.59830 0.04700 0.53390 0.03000
C 	C 	0.54448 0.02910 0.51900 -0.02500
H 	H 	0.53100 0.05020 0.53090 0.02700
O 	O 	0.17633 0.54175 0.04252 -0.47700
O 	O 	0.24291 0.54131 0.04200 -0.49500
C 	C 	0.20976 0.55307 0.05508 0.41500
C 	C 	0.21021 0.58271 0.08833 -0.15700
C 	C 	0.17584 0.59718 0.10491 0.07800
H 	H 	0.15140 0.58910 0.09460 0.01200
C 	C 	0.17674 0.62335 0.13637 -0.14100
H 	H 	0.15290 0.63240 0.14730 0.07600
C 	C 	0.21242 0.63657 0.15216 0.06100
C 	C 	0.24742 0.62200 0.13522 -0.14000
H 	H 	0.27190 0.63030 0.14520 0.07500
C 	C 	0.24626 0.59570 0.10409 0.07500
H 	H 	0.27000 0.58630 0.09330 0.01100
C 	C 	0.21415 0.66516 0.18612 0.04100
C 	C 	0.18807 0.66236 0.21800 -0.13500
H 	H 	0.16910 0.64210 0.21840 0.07500
C 	C 	0.24718 0.72160 0.21753 0.02900
C 	C 	0.24323 0.69481 0.18659 -0.10600
H 	H 	0.26070 0.69660 0.16510 0.06400
C 	C 	0.08487 0.49000 0.03237 -0.01600
H 	H 	0.09890 0.48340 0.05540 0.01700
C 	C 	0.04460 0.48980 0.03368 -0.08500
H 	H 	0.03120 0.48220 0.05680 0.04000
C 	C 	0.08440 0.52800 0.01910 0.04800
H 	H 	0.09830 0.54700 0.03390 -0.00100
C 	C 	0.04448 0.52910 0.01900 0.06500
H 	H 	0.03100 0.55020 0.03090 -0.01000
O 	O 	0.32367 0.95825 0.54252 -0.46600
O 	O 	0.25709 0.95869 0.54200 -0.48200
C 	C 	0.29024 0.94693 0.55508 0.41400
C 	C 	0.28979 0.91729 0.58833 -0.15100
C 	C 	0.32416 0.90282 0.60491 0.07700
H 	H 	0.34860 0.91090 0.59460 0.01600
C 	C 	0.32326 0.87665 0.63637 -0.13700
H 	H 	0.34710 0.86760 0.64730 0.07700
C 	C 	0.28758 0.86343 0.65216 0.06000
C 	C 	0.25258 0.87800 0.63522 -0.13500
H 	H 	0.22810 0.86970 0.64520 0.07600
C 	C 	0.25374 0.90430 0.60409 0.07300
H 	H 	0.23000 0.91370 0.59330 0.01500
C 	C 	0.28585 0.83484 0.68612 0.04500
C 	C 	0.31193 0.83764 0.71800 -0.13700
H 	H 	0.33090 0.85790 0.71840 0.07800
C 	C 	0.25282 0.77840 0.71753 0.03100
C 	C 	0.25677 0.80519 0.68659 -0.10700
H 	H 	0.23930 0.80340 0.66510 0.06500
C 	C 	0.41513 0.01000 0.53237 0.05500
H 	H 	0.40110 0.01660 0.55540 -0.01000
C 	C 	0.45540 0.01020 0.53368 -0.02400
H 	H 	0.46880 0.01780 0.55680 0.02100
C 	C 	0.41560 0.97200 0.51910 -0.00800
H 	H 	0.40170 0.95300 0.53390 0.02300
C 	C 	0.45552 0.97090 0.51900 0.00100
H 	H 	0.46900 0.94980 0.53090 0.02000
O 	O 	0.82367 0.45825 0.04252 -0.47600
O 	O 	0.75709 0.45869 0.04200 -0.49500
C 	C 	0.79024 0.44693 0.05508 0.41500
C 	C 	0.78979 0.41729 0.08833 -0.15700
C 	C 	0.82416 0.40282 0.10491 0.07800
H 	H 	0.84860 0.41090 0.09460 0.01400
C 	C 	0.82326 0.37665 0.13637 -0.14000
H 	H 	0.84710 0.36760 0.14730 0.07700
C 	C 	0.78758 0.36343 0.15216 0.06100
C 	C 	0.75258 0.37800 0.13522 -0.13900
H 	H 	0.72810 0.36970 0.14520 0.07500
C 	C 	0.75374 0.40430 0.10409 0.07500
H 	H 	0.73000 0.41370 0.09330 0.01100
C 	C 	0.78585 0.33484 0.18612 0.04200
C 	C 	0.81193 0.33764 0.21800 -0.13600
H 	H 	0.83090 0.35790 0.21840 0.07700
C 	C 	0.75282 0.27840 0.21753 0.03000
C 	C 	0.75677 0.30519 0.18659 -0.10700
H 	H 	0.73930 0.30340 0.16510 0.06400
C 	C 	0.91513 0.51000 0.03237 -0.00700
H 	H 	0.90110 0.51660 0.05540 0.01500
C 	C 	0.95540 0.51020 0.03368 -0.09600
H 	H 	0.96880 0.51780 0.05680 0.05000
C 	C 	0.91560 0.47200 0.01910 0.04300
H 	H 	0.90170 0.45300 0.03390 0.00100
C 	C 	0.95552 0.47090 0.01900 0.06100
H 	H 	0.96900 0.44980 0.03090 -0.00200
O 	O 	0.04175 0.32367 0.54252 -0.47300
O 	O 	0.04131 0.25709 0.54200 -0.49100
C 	C 	0.05307 0.29024 0.55508 0.41500
C 	C 	0.08271 0.28979 0.58833 -0.15500
C 	C 	0.09718 0.32416 0.60491 0.07800
H 	H 	0.08910 0.34860 0.59460 0.01400
C 	C 	0.12335 0.32326 0.63637 -0.13900
H 	H 	0.13240 0.34710 0.64730 0.07700
C 	C 	0.13657 0.28758 0.65216 0.06100
C 	C 	0.12200 0.25258 0.63522 -0.13800
H 	H 	0.13030 0.22810 0.64520 0.07500
C 	C 	0.09570 0.25374 0.60409 0.07400
H 	H 	0.08630 0.23000 0.59330 0.01200
C 	C 	0.16516 0.28585 0.68612 0.04200
C 	C 	0.16236 0.31193 0.71800 -0.13600
H 	H 	0.14210 0.33090 0.71840 0.07600
C 	C 	0.22160 0.25282 0.71753 0.03000
C 	C 	0.19481 0.25677 0.68659 -0.10700
H 	H 	0.19660 0.23930 0.66510 0.06500
C 	C 	0.99000 0.41513 0.53237 0.01400
H 	H 	0.98340 0.40110 0.55540 0.01200
C 	C 	0.98980 0.45540 0.53368 -0.06800
H 	H 	0.98220 0.46880 0.55680 0.04200
C 	C 	0.02800 0.41560 0.51910 -0.03500
H 	H 	0.04700 0.40170 0.53390 0.03000
C 	C 	0.02910 0.45552 0.51900 -0.02500
H 	H 	0.05020 0.46900 0.53090 0.02700
O 	O 	0.54175 0.82367 0.04252 -0.47600
O 	O 	0.54131 0.75709 0.04200 -0.49500
C 	C 	0.55307 0.79024 0.05508 0.41500
C 	C 	0.58271 0.78979 0.08833 -0.15700
C 	C 	0.59718 0.82416 0.10491 0.07800
H 	H 	0.58910 0.84860 0.09460 0.01400
C 	C 	0.62335 0.82326 0.13637 -0.14000
H 	H 	0.63240 0.84710 0.14730 0.07800
C 	C 	0.63657 0.78758 0.15216 0.06100
C 	C 	0.62200 0.75258 0.13522 -0.13900
H 	H 	0.63030 0.72810 0.14520 0.07500
C 	C 	0.59570 0.75374 0.10409 0.07500
H 	H 	0.58630 0.73000 0.09330 0.01100
C 	C 	0.66516 0.78585 0.18612 0.04200
C 	C 	0.66236 0.81193 0.21800 -0.13600
H 	H 	0.64210 0.83090 0.21840 0.07700
C 	C 	0.72160 0.75282 0.21753 0.03000
C 	C 	0.69481 0.75677 0.18659 -0.10700
H 	H 	0.69660 0.73930 0.16510 0.06400
C 	C 	0.49000 0.91513 0.03237 -0.00700
H 	H 	0.48340 0.90110 0.05540 0.01500
C 	C 	0.48980 0.95540 0.03368 -0.09600
H 	H 	0.48220 0.96880 0.05680 0.05000
C 	C 	0.52800 0.91560 0.01910 0.04300
H 	H 	0.54700 0.90170 0.03390 0.00200
C 	C 	0.52910 0.95552 0.01900 0.06100
H 	H 	0.55020 0.96900 0.03090 -0.00100
O 	O 	0.95825 0.67633 0.54252 -0.46600
O 	O 	0.95869 0.74291 0.54200 -0.48100
C 	C 	0.94693 0.70976 0.55508 0.41400
C 	C 	0.91729 0.71021 0.58833 -0.15000
C 	C 	0.90282 0.67584 0.60491 0.07600
H 	H 	0.91090 0.65140 0.59460 0.01600
C 	C 	0.87665 0.67674 0.63637 -0.13600
H 	H 	0.86760 0.65290 0.64730 0.07700
C 	C 	0.86343 0.71242 0.65216 0.06000
C 	C 	0.87800 0.74742 0.63522 -0.13500
H 	H 	0.86970 0.77190 0.64520 0.07700
C 	C 	0.90430 0.74626 0.60409 0.07300
H 	H 	0.91370 0.77000 0.59330 0.01700
C 	C 	0.83484 0.71415 0.68612 0.04500
C 	C 	0.83764 0.68807 0.71800 -0.13600
H 	H 	0.85790 0.66910 0.71840 0.07800
C 	C 	0.77840 0.74718 0.71753 0.03200
C 	C 	0.80519 0.74323 0.68659 -0.10700
H 	H 	0.80340 0.76070 0.66510 0.06600
C 	C 	0.01000 0.58487 0.53237 0.05500
H 	H 	0.01660 0.59890 0.55540 -0.01000
C 	C 	0.01020 0.54460 0.53368 -0.02400
H 	H 	0.01780 0.53120 0.55680 0.02100
C 	C 	0.97200 0.58440 0.51910 -0.00900
H 	H 	0.95300 0.59830 0.53390 0.02300
C 	C 	0.97090 0.54448 0.51900 0.00100
H 	H 	0.94980 0.53100 0.53090 0.02000
O 	O 	0.45825 0.17633 0.04252 -0.47700
O 	O 	0.45869 0.24291 0.04200 -0.49500
C 	C 	0.44693 0.20976 0.05508 0.41500
C 	C 	0.41729 0.21021 0.08833 -0.15700
C 	C 	0.40282 0.17584 0.10491 0.07800
H 	H 	0.41090 0.15140 0.09460 0.01200
C 	C 	0.37665 0.17674 0.13637 -0.14100
H 	H 	0.36760 0.15290 0.14730 0.07500
C 	C 	0.36343 0.21242 0.15216 0.06100
C 	C 	0.37800 0.24742 0.13522 -0.14000
H 	H 	0.36970 0.27190 0.14520 0.07500
C 	C 	0.40430 0.24626 0.10409 0.07500
H 	H 	0.41370 0.27000 0.09330 0.01100
C 	C 	0.33484 0.21415 0.18612 0.04100
C 	C 	0.33764 0.18807 0.21800 -0.13500
H 	H 	0.35790 0.16910 0.21840 0.07500
C 	C 	0.27840 0.24718 0.21753 0.02900
C 	C 	0.30519 0.24323 0.18659 -0.10700
H 	H 	0.30340 0.26070 0.16510 0.06300
C 	C 	0.51000 0.08487 0.03237 -0.01600
H 	H 	0.51660 0.09890 0.05540 0.01700
C 	C 	0.51020 0.04460 0.03368 -0.08500
H 	H 	0.51780 0.03120 0.05680 0.04000
C 	C 	0.47200 0.08440 0.01910 0.04800
H 	H 	0.45300 0.09830 0.03390 -0.00100
C 	C 	0.47090 0.04448 0.01900 0.06500
H 	H 	0.44980 0.03100 0.03090 -0.01000
O 	O 	0.67633 0.95825 0.54252 -0.46600
O 	O 	0.74291 0.95869 0.54200 -0.48100
C 	C 	0.70976 0.94693 0.55508 0.41400
C 	C 	0.71021 0.91729 0.58833 -0.15000
C 	C 	0.67584 0.90282 0.60491 0.07600
H 	H 	0.65140 0.91090 0.59460 0.01600
C 	C 	0.67674 0.87665 0.63637 -0.13600
H 	H 	0.65290 0.86760 0.64730 0.07700
C 	C 	0.71242 0.86343 0.65216 0.06000
C 	C 	0.74742 0.87800 0.63522 -0.13500
H 	H 	0.77190 0.86970 0.64520 0.07700
C 	C 	0.74626 0.90430 0.60409 0.07300
H 	H 	0.77000 0.91370 0.59330 0.01700
C 	C 	0.71415 0.83484 0.68612 0.04500
C 	C 	0.68807 0.83764 0.71800 -0.13600
H 	H 	0.66910 0.85790 0.71840 0.07800
C 	C 	0.74718 0.77840 0.71753 0.03200
C 	C 	0.74323 0.80519 0.68659 -0.10700
H 	H 	0.76070 0.80340 0.66510 0.06600
C 	C 	0.58487 0.01000 0.53237 0.05500
H 	H 	0.59890 0.01660 0.55540 -0.01000
C 	C 	0.54460 0.01020 0.53368 -0.02400
H 	H 	0.53120 0.01780 0.55680 0.02100
C 	C 	0.58440 0.97200 0.51910 -0.00900
H 	H 	0.59830 0.95300 0.53390 0.02300
C 	C 	0.54448 0.97090 0.51900 0.00100
H 	H 	0.53100 0.94980 0.53090 0.02000
O 	O 	0.17633 0.45825 0.04252 -0.47700
O 	O 	0.24291 0.45869 0.04200 -0.49500
C 	C 	0.20976 0.44693 0.05508 0.41500
C 	C 	0.21021 0.41729 0.08833 -0.15700
C 	C 	0.17584 0.40282 0.10491 0.07800
H 	H 	0.15140 0.41090 0.09460 0.01200
C 	C 	0.17674 0.37665 0.13637 -0.14100
H 	H 	0.15290 0.36760 0.14730 0.07500
C 	C 	0.21242 0.36343 0.15216 0.06100
C 	C 	0.24742 0.37800 0.13522 -0.14000
H 	H 	0.27190 0.36970 0.14520 0.07500
C 	C 	0.24626 0.40430 0.10409 0.07500
H 	H 	0.27000 0.41370 0.09330 0.01100
C 	C 	0.21415 0.33484 0.18612 0.04100
C 	C 	0.18807 0.33764 0.21800 -0.13500
H 	H 	0.16910 0.35790 0.21840 0.07500
C 	C 	0.24718 0.27840 0.21753 0.02900
C 	C 	0.24323 0.30519 0.18659 -0.10700
H 	H 	0.26070 0.30340 0.16510 0.06300
C 	C 	0.08487 0.51000 0.03237 -0.01600
H 	H 	0.09890 0.51660 0.05540 0.01700
C 	C 	0.04460 0.51020 0.03368 -0.08500
H 	H 	0.03120 0.51780 0.05680 0.04000
C 	C 	0.08440 0.47200 0.01910 0.04800
H 	H 	0.09830 0.45300 0.03390 -0.00100
C 	C 	0.04448 0.47090 0.01900 0.06500
H 	H 	0.03100 0.44980 0.03090 -0.01000
O 	O 	0.32367 0.04175 0.54252 -0.47300
O 	O 	0.25709 0.04131 0.54200 -0.49100
C 	C 	0.29024 0.05307 0.55508 0.41500
C 	C 	0.28979 0.08271 0.58833 -0.15500
C 	C 	0.32416 0.09718 0.60491 0.07800
H 	H 	0.34860 0.08910 0.59460 0.01400
C 	C 	0.32326 0.12335 0.63637 -0.13900
H 	H 	0.34710 0.13240 0.64730 0.07700
C 	C 	0.28758 0.13657 0.65216 0.06100
C 	C 	0.25258 0.12200 0.63522 -0.13800
H 	H 	0.22810 0.13030 0.64520 0.07500
C 	C 	0.25374 0.09570 0.60409 0.07400
H 	H 	0.23000 0.08630 0.59330 0.01200
C 	C 	0.28585 0.16516 0.68612 0.04200
C 	C 	0.31193 0.16236 0.71800 -0.13600
H 	H 	0.33090 0.14210 0.71840 0.07600
C 	C 	0.25282 0.22160 0.71753 0.03000
C 	C 	0.25677 0.19481 0.68659 -0.10700
H 	H 	0.23930 0.19660 0.66510 0.06500
C 	C 	0.41513 0.99000 0.53237 0.01400
H 	H 	0.40110 0.98340 0.55540 0.01200
C 	C 	0.45540 0.98980 0.53368 -0.06800
H 	H 	0.46880 0.98220 0.55680 0.04200
C 	C 	0.41560 0.02800 0.51910 -0.03500
H 	H 	0.40170 0.04700 0.53390 0.03000
C 	C 	0.45552 0.02910 0.51900 -0.02500
H 	H 	0.46900 0.05020 0.53090 0.02700
O 	O 	0.82367 0.54175 0.04252 -0.47600
O 	O 	0.75709 0.54131 0.04200 -0.49500
C 	C 	0.79024 0.55307 0.05508 0.41500
C 	C 	0.78979 0.58271 0.08833 -0.15700
C 	C 	0.82416 0.59718 0.10491 0.07800
H 	H 	0.84860 0.58910 0.09460 0.01400
C 	C 	0.82326 0.62335 0.13637 -0.14000
H 	H 	0.84710 0.63240 0.14730 0.07800
C 	C 	0.78758 0.63657 0.15216 0.06100
C 	C 	0.75258 0.62200 0.13522 -0.13900
H 	H 	0.72810 0.63030 0.14520 0.07500
C 	C 	0.75374 0.59570 0.10409 0.07500
H 	H 	0.73000 0.58630 0.09330 0.01100
C 	C 	0.78585 0.66516 0.18612 0.04200
C 	C 	0.81193 0.66236 0.21800 -0.13600
H 	H 	0.83090 0.64210 0.21840 0.07700
C 	C 	0.75282 0.72160 0.21753 0.03000
C 	C 	0.75677 0.69481 0.18659 -0.10700
H 	H 	0.73930 0.69660 0.16510 0.06400
C 	C 	0.91513 0.49000 0.03237 -0.00700
H 	H 	0.90110 0.48340 0.05540 0.01500
C 	C 	0.95540 0.48980 0.03368 -0.09600
H 	H 	0.96880 0.48220 0.05680 0.05000
C 	C 	0.91560 0.52800 0.01910 0.04300
H 	H 	0.90170 0.54700 0.03390 0.00200
C 	C 	0.95552 0.52910 0.01900 0.06100
H 	H 	0.96900 0.55020 0.03090 -0.00100
O 	O 	0.04175 0.67633 0.54252 -0.47300
O 	O 	0.04131 0.74291 0.54200 -0.49000
C 	C 	0.05307 0.70976 0.55508 0.41500
C 	C 	0.08271 0.71021 0.58833 -0.15500
C 	C 	0.09718 0.67584 0.60491 0.07700
H 	H 	0.08910 0.65140 0.59460 0.01400
C 	C 	0.12335 0.67674 0.63637 -0.13900
H 	H 	0.13240 0.65290 0.64730 0.07700
C 	C 	0.13657 0.71242 0.65216 0.06100
C 	C 	0.12200 0.74742 0.63522 -0.13800
H 	H 	0.13030 0.77190 0.64520 0.07600
C 	C 	0.09570 0.74626 0.60409 0.07400
H 	H 	0.08630 0.77000 0.59330 0.01300
C 	C 	0.16516 0.71415 0.68612 0.04300
C 	C 	0.16236 0.68807 0.71800 -0.13500
H 	H 	0.14210 0.66910 0.71840 0.07600
C 	C 	0.22160 0.74718 0.71753 0.03000
C 	C 	0.19481 0.74323 0.68659 -0.10600
H 	H 	0.19660 0.76070 0.66510 0.06500
C 	C 	0.99000 0.58487 0.53237 0.01400
H 	H 	0.98340 0.59890 0.55540 0.01200
C 	C 	0.98980 0.54460 0.53368 -0.06800
H 	H 	0.98220 0.53120 0.55680 0.04200
C 	C 	0.02800 0.58440 0.51910 -0.03500
H 	H 	0.04700 0.59830 0.53390 0.03000
C 	C 	0.02910 0.54448 0.51900 -0.02500
H 	H 	0.05020 0.53100 0.53090 0.02700
O 	O 	0.54175 0.17633 0.04252 -0.47700
O 	O 	0.54131 0.24291 0.04200 -0.49500
C 	C 	0.55307 0.20976 0.05508 0.41500
C 	C 	0.58271 0.21021 0.08833 -0.15700
C 	C 	0.59718 0.17584 0.10491 0.07800
H 	H 	0.58910 0.15140 0.09460 0.01200
C 	C 	0.62335 0.17674 0.13637 -0.14100
H 	H 	0.63240 0.15290 0.14730 0.07600
C 	C 	0.63657 0.21242 0.15216 0.06100
C 	C 	0.62200 0.24742 0.13522 -0.14000
H 	H 	0.63030 0.27190 0.14520 0.07500
C 	C 	0.59570 0.24626 0.10409 0.07500
H 	H 	0.58630 0.27000 0.09330 0.01100
C 	C 	0.66516 0.21415 0.18612 0.04100
C 	C 	0.66236 0.18807 0.21800 -0.13500
H 	H 	0.64210 0.16910 0.21840 0.07500
C 	C 	0.72160 0.24718 0.21753 0.02900
C 	C 	0.69481 0.24323 0.18659 -0.10600
H 	H 	0.69660 0.26070 0.16510 0.06400
C 	C 	0.49000 0.08487 0.03237 -0.01600
H 	H 	0.48340 0.09890 0.05540 0.01700
C 	C 	0.48980 0.04460 0.03368 -0.08500
H 	H 	0.48220 0.03120 0.05680 0.04000
C 	C 	0.52800 0.08440 0.01910 0.04800
H 	H 	0.54700 0.09830 0.03390 -0.00100
C 	C 	0.52910 0.04448 0.01900 0.06500
H 	H 	0.55020 0.03100 0.03090 -0.01000
O 	O 	0.95825 0.32367 0.54252 -0.46600
O 	O 	0.95869 0.25709 0.54200 -0.48200
C 	C 	0.94693 0.29024 0.55508 0.41400
C 	C 	0.91729 0.28979 0.58833 -0.15100
C 	C 	0.90282 0.32416 0.60491 0.07700
H 	H 	0.91090 0.34860 0.59460 0.01600
C 	C 	0.87665 0.32326 0.63637 -0.13700
H 	H 	0.86760 0.34710 0.64730 0.07700
C 	C 	0.86343 0.28758 0.65216 0.06000
C 	C 	0.87800 0.25258 0.63522 -0.13500
H 	H 	0.86970 0.22810 0.64520 0.07600
C 	C 	0.90430 0.25374 0.60409 0.07300
H 	H 	0.91370 0.23000 0.59330 0.01500
C 	C 	0.83484 0.28585 0.68612 0.04500
C 	C 	0.83764 0.31193 0.71800 -0.13700
H 	H 	0.85790 0.33090 0.71840 0.07800
C 	C 	0.77840 0.25282 0.71753 0.03100
C 	C 	0.80519 0.25677 0.68659 -0.10700
H 	H 	0.80340 0.23930 0.66510 0.06500
C 	C 	0.01000 0.41513 0.53237 0.05500
H 	H 	0.01660 0.40110 0.55540 -0.01000
C 	C 	0.01020 0.45540 0.53368 -0.02400
H 	H 	0.01780 0.46880 0.55680 0.02100
C 	C 	0.97200 0.41560 0.51910 -0.00800
H 	H 	0.95300 0.40170 0.53390 0.02300
C 	C 	0.97090 0.45552 0.51900 0.00100
H 	H 	0.94980 0.46900 0.53090 0.02000
O 	O 	0.45825 0.82367 0.04252 -0.47600
O 	O 	0.45869 0.75709 0.04200 -0.49500
C 	C 	0.44693 0.79024 0.05508 0.41500
C 	C 	0.41729 0.78979 0.08833 -0.15700
C 	C 	0.40282 0.82416 0.10491 0.07800
H 	H 	0.41090 0.84860 0.09460 0.01400
C 	C 	0.37665 0.82326 0.13637 -0.14000
H 	H 	0.36760 0.84710 0.14730 0.07700
C 	C 	0.36343 0.78758 0.15216 0.06100
C 	C 	0.37800 0.75258 0.13522 -0.13900
H 	H 	0.36970 0.72810 0.14520 0.07500
C 	C 	0.40430 0.75374 0.10409 0.07500
H 	H 	0.41370 0.73000 0.09330 0.01100
C 	C 	0.33484 0.78585 0.18612 0.04200
C 	C 	0.33764 0.81193 0.21800 -0.13600
H 	H 	0.35790 0.83090 0.21840 0.07700
C 	C 	0.27840 0.75282 0.21753 0.03000
C 	C 	0.30519 0.75677 0.18659 -0.10700
H 	H 	0.30340 0.73930 0.16510 0.06400
C 	C 	0.51000 0.91513 0.03237 -0.00700
H 	H 	0.51660 0.90110 0.05540 0.01500
C 	C 	0.51020 0.95540 0.03368 -0.09600
H 	H 	0.51780 0.96880 0.05680 0.05000
C 	C 	0.47200 0.91560 0.01910 0.04300
H 	H 	0.45300 0.90170 0.03390 0.00100
C 	C 	0.47090 0.95552 0.01900 0.06100
H 	H 	0.44980 0.96900 0.03090 -0.00200
O 	O 	0.32367 0.95825 0.45748 -0.46600
O 	O 	0.25709 0.95869 0.45800 -0.48300
C 	C 	0.29024 0.94693 0.44492 0.41400
C 	C 	0.28979 0.91729 0.41167 -0.15100
C 	C 	0.32416 0.90282 0.39509 0.07600
H 	H 	0.34860 0.91090 0.40540 0.01600
C 	C 	0.32326 0.87665 0.36363 -0.13700
H 	H 	0.34710 0.86760 0.35270 0.07700
C 	C 	0.28758 0.86343 0.34784 0.06000
C 	C 	0.25258 0.87800 0.36478 -0.13600
H 	H 	0.22810 0.86970 0.35480 0.07500
C 	C 	0.25374 0.90430 0.39591 0.07300
H 	H 	0.23000 0.91370 0.40670 0.01500
C 	C 	0.28585 0.83484 0.31388 0.04400
C 	C 	0.31193 0.83764 0.28200 -0.13600
H 	H 	0.33090 0.85790 0.28160 0.07700
C 	C 	0.25282 0.77840 0.28247 0.03100
C 	C 	0.25677 0.80519 0.31341 -0.10700
H 	H 	0.23930 0.80340 0.33490 0.06500
C 	C 	0.41513 0.01000 0.46763 0.05500
H 	H 	0.40110 0.01660 0.44460 -0.01000
C 	C 	0.45540 0.01020 0.46632 -0.02400
H 	H 	0.46880 0.01780 0.44320 0.02000
C 	C 	0.41560 0.97200 0.48090 -0.00800
H 	H 	0.40170 0.95300 0.46610 0.02300
C 	C 	0.45552 0.97090 0.48100 0.00100
H 	H 	0.46900 0.94980 0.46910 0.02000
O 	O 	0.82367 0.45825 0.95748 -0.46000
O 	O 	0.75709 0.45869 0.95800 -0.47600
C 	C 	0.79024 0.44693 0.94492 0.41300
C 	C 	0.78979 0.41729 0.91167 -0.14800
C 	C 	0.82416 0.40282 0.89509 0.07500
H 	H 	0.84860 0.41090 0.90540 0.01800
C 	C 	0.82326 0.37665 0.86363 -0.13500
H 	H 	0.84710 0.36760 0.85270 0.07800
C 	C 	0.78758 0.36343 0.84784 0.05900
C 	C 	0.75258 0.37800 0.86478 -0.13300
H 	H 	0.72810 0.36970 0.85480 0.07600
C 	C 	0.75374 0.40430 0.89591 0.07200
H 	H 	0.73000 0.41370 0.90670 0.01800
C 	C 	0.78585 0.33484 0.81388 0.04600
C 	C 	0.81193 0.33764 0.78200 -0.13700
H 	H 	0.83090 0.35790 0.78160 0.07800
C 	C 	0.75282 0.27840 0.78247 0.03200
C 	C 	0.75677 0.30519 0.81341 -0.10800
H 	H 	0.73930 0.30340 0.83490 0.06700
C 	C 	0.91513 0.51000 0.96763 0.08100
H 	H 	0.90110 0.51660 0.94460 -0.01400
C 	C 	0.95540 0.51020 0.96632 -0.00200
H 	H 	0.96880 0.51780 0.94320 0.02100
C 	C 	0.91560 0.47200 0.98090 -0.08300
H 	H 	0.90170 0.45300 0.96610 0.05200
C 	C 	0.95552 0.47090 0.98100 -0.08300
H 	H 	0.96900 0.44980 0.96910 0.05700
O 	O 	0.67633 0.04175 0.45748 -0.47300
O 	O 	0.74291 0.04131 0.45800 -0.49100
C 	C 	0.70976 0.05307 0.44492 0.41500
C 	C 	0.71021 0.08271 0.41167 -0.15500
C 	C 	0.67584 0.09718 0.39509 0.07700
H 	H 	0.65140 0.08910 0.40540 0.01400
C 	C 	0.67674 0.12335 0.36363 -0.13900
H 	H 	0.65290 0.13240 0.35270 0.07700
C 	C 	0.71242 0.13657 0.34784 0.06000
C 	C 	0.74742 0.12200 0.36478 -0.13800
H 	H 	0.77190 0.13030 0.35480 0.07500
C 	C 	0.74626 0.09570 0.39591 0.07400
H 	H 	0.77000 0.08630 0.40670 0.01300
C 	C 	0.71415 0.16516 0.31388 0.04200
C 	C 	0.68807 0.16236 0.28200 -0.13500
H 	H 	0.66910 0.14210 0.28160 0.07500
C 	C 	0.74718 0.22160 0.28247 0.03000
C 	C 	0.74323 0.19481 0.31341 -0.10600
H 	H 	0.76070 0.19660 0.33490 0.06500
C 	C 	0.58487 0.99000 0.46763 0.01400
H 	H 	0.59890 0.98340 0.44460 0.01200
C 	C 	0.54460 0.98980 0.46632 -0.06800
H 	H 	0.53120 0.98220 0.44320 0.04200
C 	C 	0.58440 0.02800 0.48090 -0.03500
H 	H 	0.59830 0.04700 0.46610 0.03000
C 	C 	0.54448 0.02910 0.48100 -0.02500
H 	H 	0.53100 0.05020 0.46910 0.02700
O 	O 	0.17633 0.54175 0.95748 -0.46100
O 	O 	0.24291 0.54131 0.95800 -0.47600
C 	C 	0.20976 0.55307 0.94492 0.41300
C 	C 	0.21021 0.58271 0.91167 -0.14800
C 	C 	0.17584 0.59718 0.89509 0.07500
H 	H 	0.15140 0.58910 0.90540 0.01700
C 	C 	0.17674 0.62335 0.86363 -0.13500
H 	H 	0.15290 0.63240 0.85270 0.07700
C 	C 	0.21242 0.63657 0.84784 0.05900
C 	C 	0.24742 0.62200 0.86478 -0.13400
H 	H 	0.27190 0.63030 0.85480 0.07600
C 	C 	0.24626 0.59570 0.89591 0.07200
H 	H 	0.27000 0.58630 0.90670 0.01800
C 	C 	0.21415 0.66516 0.81388 0.04500
C 	C 	0.18807 0.66236 0.78200 -0.13600
H 	H 	0.16910 0.64210 0.78160 0.07600
C 	C 	0.24718 0.72160 0.78247 0.03100
C 	C 	0.24323 0.69481 0.81341 -0.10700
H 	H 	0.26070 0.69660 0.83490 0.06700
C 	C 	0.08487 0.49000 0.96763 0.07200
H 	H 	0.09890 0.48340 0.94460 -0.01100
C 	C 	0.04460 0.48980 0.96632 0.00900
H 	H 	0.03120 0.48220 0.94320 0.01100
C 	C 	0.08440 0.52800 0.98090 -0.07900
H 	H 	0.09830 0.54700 0.96610 0.05000
C 	C 	0.04448 0.52910 0.98100 -0.08000
H 	H 	0.03100 0.55020 0.96910 0.04900
O 	O 	0.95825 0.67633 0.45748 -0.46600
O 	O 	0.95869 0.74291 0.45800 -0.48200
C 	C 	0.94693 0.70976 0.44492 0.41400
C 	C 	0.91729 0.71021 0.41167 -0.15100
C 	C 	0.90282 0.67584 0.39509 0.07600
H 	H 	0.91090 0.65140 0.40540 0.01600
C 	C 	0.87665 0.67674 0.36363 -0.13600
H 	H 	0.86760 0.65290 0.35270 0.07700
C 	C 	0.86343 0.71242 0.34784 0.06000
C 	C 	0.87800 0.74742 0.36478 -0.13500
H 	H 	0.86970 0.77190 0.35480 0.07600
C 	C 	0.90430 0.74626 0.39591 0.07300
H 	H 	0.91370 0.77000 0.40670 0.01600
C 	C 	0.83484 0.71415 0.31388 0.04400
C 	C 	0.83764 0.68807 0.28200 -0.13600
H 	H 	0.85790 0.66910 0.28160 0.07700
C 	C 	0.77840 0.74718 0.28247 0.03100
C 	C 	0.80519 0.74323 0.31341 -0.10700
H 	H 	0.80340 0.76070 0.33490 0.06500
C 	C 	0.01000 0.58487 0.46763 0.05500
H 	H 	0.01660 0.59890 0.44460 -0.01000
C 	C 	0.01020 0.54460 0.46632 -0.02400
H 	H 	0.01780 0.53120 0.44320 0.02100
C 	C 	0.97200 0.58440 0.48090 -0.00800
H 	H 	0.95300 0.59830 0.46610 0.02300
C 	C 	0.97090 0.54448 0.48100 0.00100
H 	H 	0.94980 0.53100 0.46910 0.02000
O 	O 	0.45825 0.17633 0.95748 -0.46100
O 	O 	0.45869 0.24291 0.95800 -0.47600
C 	C 	0.44693 0.20976 0.94492 0.41300
C 	C 	0.41729 0.21021 0.91167 -0.14800
C 	C 	0.40282 0.17584 0.89509 0.07500
H 	H 	0.41090 0.15140 0.90540 0.01700
C 	C 	0.37665 0.17674 0.86363 -0.13500
H 	H 	0.36760 0.15290 0.85270 0.07600
C 	C 	0.36343 0.21242 0.84784 0.05900
C 	C 	0.37800 0.24742 0.86478 -0.13400
H 	H 	0.36970 0.27190 0.85480 0.07600
C 	C 	0.40430 0.24626 0.89591 0.07200
H 	H 	0.41370 0.27000 0.90670 0.01800
C 	C 	0.33484 0.21415 0.81388 0.04400
C 	C 	0.33764 0.18807 0.78200 -0.13600
H 	H 	0.35790 0.16910 0.78160 0.07600
C 	C 	0.27840 0.24718 0.78247 0.03100
C 	C 	0.30519 0.24323 0.81341 -0.10700
H 	H 	0.30340 0.26070 0.83490 0.06600
C 	C 	0.51000 0.08487 0.96763 0.07200
H 	H 	0.51660 0.09890 0.94460 -0.01100
C 	C 	0.51020 0.04460 0.96632 0.01000
H 	H 	0.51780 0.03120 0.94320 0.01100
C 	C 	0.47200 0.08440 0.98090 -0.07900
H 	H 	0.45300 0.09830 0.96610 0.05000
C 	C 	0.47090 0.04448 0.98100 -0.08000
H 	H 	0.44980 0.03100 0.96910 0.04800
O 	O 	0.04175 0.32367 0.45748 -0.47300
O 	O 	0.04131 0.25709 0.45800 -0.49100
C 	C 	0.05307 0.29024 0.44492 0.41500
C 	C 	0.08271 0.28979 0.41167 -0.15500
C 	C 	0.09718 0.32416 0.39509 0.07700
H 	H 	0.08910 0.34860 0.40540 0.01400
C 	C 	0.12335 0.32326 0.36363 -0.13900
H 	H 	0.13240 0.34710 0.35270 0.07700
C 	C 	0.13657 0.28758 0.34784 0.06000
C 	C 	0.12200 0.25258 0.36478 -0.13900
H 	H 	0.13030 0.22810 0.35480 0.07400
C 	C 	0.09570 0.25374 0.39591 0.07400
H 	H 	0.08630 0.23000 0.40670 0.01200
C 	C 	0.16516 0.28585 0.31388 0.04200
C 	C 	0.16236 0.31193 0.28200 -0.13500
H 	H 	0.14210 0.33090 0.28160 0.07500
C 	C 	0.22160 0.25282 0.28247 0.03000
C 	C 	0.19481 0.25677 0.31341 -0.10700
H 	H 	0.19660 0.23930 0.33490 0.06500
C 	C 	0.99000 0.41513 0.46763 0.01400
H 	H 	0.98340 0.40110 0.44460 0.01200
C 	C 	0.98980 0.45540 0.46632 -0.06800
H 	H 	0.98220 0.46880 0.44320 0.04200
C 	C 	0.02800 0.41560 0.48090 -0.03500
H 	H 	0.04700 0.40170 0.46610 0.03000
C 	C 	0.02910 0.45552 0.48100 -0.02500
H 	H 	0.05020 0.46900 0.46910 0.02700
O 	O 	0.54175 0.82367 0.95748 -0.46000
O 	O 	0.54131 0.75709 0.95800 -0.47600
C 	C 	0.55307 0.79024 0.94492 0.41300
C 	C 	0.58271 0.78979 0.91167 -0.14800
C 	C 	0.59718 0.82416 0.89509 0.07600
H 	H 	0.58910 0.84860 0.90540 0.01900
C 	C 	0.62335 0.82326 0.86363 -0.13400
H 	H 	0.63240 0.84710 0.85270 0.07900
C 	C 	0.63657 0.78758 0.84784 0.05900
C 	C 	0.62200 0.75258 0.86478 -0.13300
H 	H 	0.63030 0.72810 0.85480 0.07600
C 	C 	0.59570 0.75374 0.89591 0.07200
H 	H 	0.58630 0.73000 0.90670 0.01800
C 	C 	0.66516 0.78585 0.81388 0.04600
C 	C 	0.66236 0.81193 0.78200 -0.13700
H 	H 	0.64210 0.83090 0.78160 0.07800
C 	C 	0.72160 0.75282 0.78247 0.03200
C 	C 	0.69481 0.75677 0.81341 -0.10700
H 	H 	0.69660 0.73930 0.83490 0.06700
C 	C 	0.49000 0.91513 0.96763 0.08100
H 	H 	0.48340 0.90110 0.94460 -0.01400
C 	C 	0.48980 0.95540 0.96632 -0.00200
H 	H 	0.48220 0.96880 0.94320 0.02100
C 	C 	0.52800 0.91560 0.98090 -0.08300
H 	H 	0.54700 0.90170 0.96610 0.05200
C 	C 	0.52910 0.95552 0.98100 -0.08300
H 	H 	0.55020 0.96900 0.96910 0.05700
Zn	Zn	0.33389 -0.00000 0.50000 1.21500
Zn	Zn	0.24570 -0.00000 0.50000 1.19800
N 	N 	0.39415 -0.00000 0.50000 -0.24700
C 	C 	0.47766 -0.00000 0.50000 0.01200
Zn	Zn	0.83389 0.50000 -0.00000 1.21200
Zn	Zn	0.74570 0.50000 -0.00000 1.19400
N 	N 	0.89415 0.50000 -0.00000 -0.25700
C 	C 	0.97766 0.50000 -0.00000 0.02200
Zn	Zn	0.66611 -0.00000 0.50000 1.21500
Zn	Zn	0.75430 -0.00000 0.50000 1.19800
N 	N 	0.60585 -0.00000 0.50000 -0.24700
C 	C 	0.52234 -0.00000 0.50000 0.01200
Zn	Zn	0.16611 0.50000 -0.00000 1.21100
Zn	Zn	0.25430 0.50000 -0.00000 1.19400
N 	N 	0.10585 0.50000 -0.00000 -0.25500
C 	C 	0.02234 0.50000 -0.00000 -0.02600
Zn	Zn	-0.00000 0.33389 0.50000 1.21500
Zn	Zn	-0.00000 0.24570 0.50000 1.19800
N 	N 	-0.00000 0.39415 0.50000 -0.24700
C 	C 	-0.00000 0.47766 0.50000 0.01200
Zn	Zn	0.50000 0.83389 -0.00000 1.21200
Zn	Zn	0.50000 0.74570 -0.00000 1.19400
N 	N 	0.50000 0.89415 -0.00000 -0.25700
C 	C 	0.50000 0.97766 -0.00000 0.02200
Zn	Zn	-0.00000 0.66611 0.50000 1.21500
Zn	Zn	-0.00000 0.75430 0.50000 1.19800
N 	N 	-0.00000 0.60585 0.50000 -0.24700
C 	C 	-0.00000 0.52234 0.50000 0.01200
Zn	Zn	0.50000 0.16611 -0.00000 1.21100
Zn	Zn	0.50000 0.25430 -0.00000 1.19400
N 	N 	0.50000 0.10585 -0.00000 -0.25500
C 	C 	0.50000 0.02234 -0.00000 -0.02600
C 	C 	0.31030 0.18970 0.25000 0.08900
C 	C 	0.28013 0.21987 0.25000 -0.04900
C 	C 	0.68970 0.81030 0.25000 0.09100
C 	C 	0.71987 0.78013 0.25000 -0.04900
C 	C 	0.81030 0.31030 0.25000 0.09100
C 	C 	0.78013 0.28013 0.25000 -0.04900
C 	C 	0.18970 0.68970 0.25000 0.08900
C 	C 	0.21987 0.71987 0.25000 -0.04800
C 	C 	0.68970 0.18970 0.75000 0.09100
C 	C 	0.71987 0.21987 0.75000 -0.04800
C 	C 	0.31030 0.81030 0.75000 0.09300
C 	C 	0.28013 0.78013 0.75000 -0.04900
C 	C 	0.18970 0.31030 0.75000 0.09100
C 	C 	0.21987 0.28013 0.75000 -0.04900
C 	C 	0.81030 0.68970 0.75000 0.09300
C 	C 	0.78013 0.71987 0.75000 -0.04900
C 	C 	0.68970 0.81030 0.75000 0.09300
C 	C 	0.71987 0.78013 0.75000 -0.04900
C 	C 	0.18970 0.31030 0.25000 0.08900
C 	C 	0.21987 0.28013 0.25000 -0.04900
C 	C 	0.31030 0.18970 0.75000 0.09100
C 	C 	0.28013 0.21987 0.75000 -0.04900
C 	C 	0.18970 0.68970 0.75000 0.09100
C 	C 	0.21987 0.71987 0.75000 -0.04800
C 	C 	0.81030 0.31030 0.75000 0.09300
C 	C 	0.78013 0.28013 0.75000 -0.04900
C 	C 	0.31030 0.81030 0.25000 0.09100
C 	C 	0.28013 0.78013 0.25000 -0.04900
C 	C 	0.68970 0.18970 0.25000 0.08900
C 	C 	0.71987 0.21987 0.25000 -0.04800
C 	C 	0.81030 0.68970 0.25000 0.09100
C 	C 	0.78013 0.71987 0.25000 -0.04900
