data_crystal

_cell_length_a 38.39370
_cell_length_b 38.39370
_cell_length_c 38.39370
_cell_angle_alpha 90.00000
_cell_angle_beta  90.00000
_cell_angle_gamma 90.00000

_symmetry_space_group_name_	'P 1'
_symmetry_space_group_name_H-M	'P 1'

loop_
_symmetry_equiv_pos_as_xyz
  x,y,z

loop_
_atom_site_label
_atom_site_type_symbol
_atom_site_fract_x
_atom_site_fract_y
_atom_site_fract_z
_atom_site_charge
O 	O 	0.67214 0.81407 0.27850 -0.78200
C 	C 	0.63332 0.87617 0.22020 0.17100
H 	H 	0.64500 0.87030 0.19920 -0.03700
C 	C 	0.60839 0.90240 0.22040 -0.25300
H 	H 	0.60390 0.91530 0.19980 0.11000
C 	C 	0.52882 0.92662 0.24850 0.14400
C 	C 	0.51743 0.89068 0.24780 -0.08700
H 	H 	0.53210 0.87070 0.24750 0.05200
O 	O 	0.17214 0.31407 0.77850 -0.78200
C 	C 	0.13332 0.37617 0.72020 0.17100
H 	H 	0.14500 0.37030 0.69920 -0.03700
C 	C 	0.10839 0.40240 0.72040 -0.25300
H 	H 	0.10390 0.41530 0.69980 0.11000
C 	C 	0.02882 0.42662 0.74850 0.14300
C 	C 	0.01743 0.39068 0.74780 -0.08300
H 	H 	0.03210 0.37070 0.74750 0.05100
O 	O 	0.32786 0.18593 0.27850 -0.78200
C 	C 	0.36668 0.12383 0.22020 0.17100
H 	H 	0.35500 0.12970 0.19920 -0.03700
C 	C 	0.39161 0.09760 0.22040 -0.25300
H 	H 	0.39610 0.08470 0.19980 0.11100
C 	C 	0.47118 0.07338 0.24850 0.14400
C 	C 	0.48257 0.10932 0.24780 -0.08700
H 	H 	0.46790 0.12930 0.24750 0.05200
O 	O 	0.82786 0.68593 0.77850 -0.78200
C 	C 	0.86668 0.62383 0.72020 0.17100
H 	H 	0.85500 0.62970 0.69920 -0.03700
C 	C 	0.89161 0.59760 0.72040 -0.25300
H 	H 	0.89610 0.58470 0.69980 0.11000
C 	C 	0.97118 0.57338 0.74850 0.14300
C 	C 	0.98257 0.60932 0.74780 -0.09200
H 	H 	0.96790 0.62930 0.74750 0.05300
O 	O 	0.32786 0.81407 0.72150 -0.78200
C 	C 	0.36668 0.87617 0.77980 0.17100
H 	H 	0.35500 0.87030 0.80080 -0.03700
C 	C 	0.39161 0.90240 0.77960 -0.25300
H 	H 	0.39610 0.91530 0.80020 0.10900
C 	C 	0.47118 0.92662 0.75150 0.14300
C 	C 	0.48257 0.89068 0.75220 -0.08900
H 	H 	0.46790 0.87070 0.75250 0.05100
O 	O 	0.82786 0.31407 0.22150 -0.78300
C 	C 	0.86668 0.37617 0.27980 0.17000
H 	H 	0.85500 0.37030 0.30080 -0.03800
C 	C 	0.89161 0.40240 0.27960 -0.25400
H 	H 	0.89610 0.41530 0.30020 0.10900
C 	C 	0.97118 0.42662 0.25150 0.14200
C 	C 	0.98257 0.39068 0.25220 -0.09300
H 	H 	0.96790 0.37070 0.25250 0.05200
O 	O 	0.67214 0.18593 0.72150 -0.78300
C 	C 	0.63332 0.12383 0.77980 0.17000
H 	H 	0.64500 0.12970 0.80080 -0.03800
C 	C 	0.60839 0.09760 0.77960 -0.25400
H 	H 	0.60390 0.08470 0.80020 0.10900
C 	C 	0.52882 0.07338 0.75150 0.14300
C 	C 	0.51743 0.10932 0.75220 -0.08800
H 	H 	0.53210 0.12930 0.75250 0.05100
O 	O 	0.17214 0.68593 0.22150 -0.78200
C 	C 	0.13332 0.62383 0.27980 0.17000
H 	H 	0.14500 0.62970 0.30080 -0.03800
C 	C 	0.10839 0.59760 0.27960 -0.25400
H 	H 	0.10390 0.58470 0.30020 0.10900
C 	C 	0.02882 0.57338 0.25150 0.14200
C 	C 	0.01743 0.60932 0.25220 -0.08400
H 	H 	0.03210 0.62930 0.25250 0.05000
O 	O 	0.27850 0.67214 0.81407 -0.78300
C 	C 	0.22020 0.63332 0.87617 0.17000
H 	H 	0.19920 0.64500 0.87030 -0.03800
C 	C 	0.22040 0.60839 0.90240 -0.25400
H 	H 	0.19980 0.60390 0.91530 0.10900
C 	C 	0.24850 0.52882 0.92662 0.14300
C 	C 	0.24780 0.51743 0.89068 -0.08800
H 	H 	0.24750 0.53210 0.87070 0.05100
O 	O 	0.77850 0.17214 0.31407 -0.78300
C 	C 	0.72020 0.13332 0.37617 0.17000
H 	H 	0.69920 0.14500 0.37030 -0.03800
C 	C 	0.72040 0.10839 0.40240 -0.25400
H 	H 	0.69980 0.10390 0.41530 0.10900
C 	C 	0.74850 0.02882 0.42662 0.14200
C 	C 	0.74780 0.01743 0.39068 -0.08400
H 	H 	0.74750 0.03210 0.37070 0.05000
O 	O 	0.27850 0.32786 0.18593 -0.78300
C 	C 	0.22020 0.36668 0.12383 0.17000
H 	H 	0.19920 0.35500 0.12970 -0.03800
C 	C 	0.22040 0.39161 0.09760 -0.25400
H 	H 	0.19980 0.39610 0.08470 0.11000
C 	C 	0.24850 0.47118 0.07338 0.14300
C 	C 	0.24780 0.48257 0.10932 -0.08800
H 	H 	0.24750 0.46790 0.12930 0.05100
O 	O 	0.77850 0.82786 0.68593 -0.78300
C 	C 	0.72020 0.86668 0.62383 0.17000
H 	H 	0.69920 0.85500 0.62970 -0.03800
C 	C 	0.72040 0.89161 0.59760 -0.25400
H 	H 	0.69980 0.89610 0.58470 0.10900
C 	C 	0.74850 0.97118 0.57338 0.14200
C 	C 	0.74780 0.98257 0.60932 -0.09300
H 	H 	0.74750 0.96790 0.62930 0.05200
O 	O 	0.72150 0.32786 0.81407 -0.78300
C 	C 	0.77980 0.36668 0.87617 0.17000
H 	H 	0.80080 0.35500 0.87030 -0.03800
C 	C 	0.77960 0.39161 0.90240 -0.25400
H 	H 	0.80020 0.39610 0.91530 0.10900
C 	C 	0.75150 0.47118 0.92662 0.14300
C 	C 	0.75220 0.48257 0.89068 -0.08900
H 	H 	0.75250 0.46790 0.87070 0.05100
O 	O 	0.22150 0.82786 0.31407 -0.78300
C 	C 	0.27980 0.86668 0.37617 0.17000
H 	H 	0.30080 0.85500 0.37030 -0.03800
C 	C 	0.27960 0.89161 0.40240 -0.25400
H 	H 	0.30020 0.89610 0.41530 0.10900
C 	C 	0.25150 0.97118 0.42662 0.14200
C 	C 	0.25220 0.98257 0.39068 -0.09300
H 	H 	0.25250 0.96790 0.37070 0.05200
O 	O 	0.72150 0.67214 0.18593 -0.78300
C 	C 	0.77980 0.63332 0.12383 0.17000
H 	H 	0.80080 0.64500 0.12970 -0.03800
C 	C 	0.77960 0.60839 0.09760 -0.25400
H 	H 	0.80020 0.60390 0.08470 0.10900
C 	C 	0.75150 0.52882 0.07338 0.14300
C 	C 	0.75220 0.51743 0.10932 -0.08800
H 	H 	0.75250 0.53210 0.12930 0.05100
O 	O 	0.22150 0.17214 0.68593 -0.78200
C 	C 	0.27980 0.13332 0.62383 0.17000
H 	H 	0.30080 0.14500 0.62970 -0.03800
C 	C 	0.27960 0.10839 0.59760 -0.25400
H 	H 	0.30020 0.10390 0.58470 0.10900
C 	C 	0.25150 0.02882 0.57338 0.14200
C 	C 	0.25220 0.01743 0.60932 -0.08400
H 	H 	0.25250 0.03210 0.62930 0.05000
O 	O 	0.81407 0.27850 0.67214 -0.78300
C 	C 	0.87617 0.22020 0.63332 0.17000
H 	H 	0.87030 0.19920 0.64500 -0.03800
C 	C 	0.90240 0.22040 0.60839 -0.25400
H 	H 	0.91530 0.19980 0.60390 0.10900
C 	C 	0.92662 0.24850 0.52882 0.14300
C 	C 	0.89068 0.24780 0.51743 -0.08800
H 	H 	0.87070 0.24750 0.53210 0.05100
O 	O 	0.31407 0.77850 0.17214 -0.78300
C 	C 	0.37617 0.72020 0.13332 0.17000
H 	H 	0.37030 0.69920 0.14500 -0.03800
C 	C 	0.40240 0.72040 0.10839 -0.25400
H 	H 	0.41530 0.69980 0.10390 0.10900
C 	C 	0.42662 0.74850 0.02882 0.14200
C 	C 	0.39068 0.74780 0.01743 -0.08400
H 	H 	0.37070 0.74750 0.03210 0.05000
O 	O 	0.18593 0.27850 0.32786 -0.78300
C 	C 	0.12383 0.22020 0.36668 0.17000
H 	H 	0.12970 0.19920 0.35500 -0.03800
C 	C 	0.09760 0.22040 0.39161 -0.25400
H 	H 	0.08470 0.19980 0.39610 0.11000
C 	C 	0.07338 0.24850 0.47118 0.14300
C 	C 	0.10932 0.24780 0.48257 -0.08800
H 	H 	0.12930 0.24750 0.46790 0.05100
O 	O 	0.68593 0.77850 0.82786 -0.78300
C 	C 	0.62383 0.72020 0.86668 0.17000
H 	H 	0.62970 0.69920 0.85500 -0.03800
C 	C 	0.59760 0.72040 0.89161 -0.25400
H 	H 	0.58470 0.69980 0.89610 0.10900
C 	C 	0.57338 0.74850 0.97118 0.14200
C 	C 	0.60932 0.74780 0.98257 -0.09300
H 	H 	0.62930 0.74750 0.96790 0.05200
O 	O 	0.81407 0.72150 0.32786 -0.78300
C 	C 	0.87617 0.77980 0.36668 0.17000
H 	H 	0.87030 0.80080 0.35500 -0.03800
C 	C 	0.90240 0.77960 0.39161 -0.25400
H 	H 	0.91530 0.80020 0.39610 0.10900
C 	C 	0.92662 0.75150 0.47118 0.14300
C 	C 	0.89068 0.75220 0.48257 -0.08900
H 	H 	0.87070 0.75250 0.46790 0.05100
O 	O 	0.31407 0.22150 0.82786 -0.78300
C 	C 	0.37617 0.27980 0.86668 0.17000
H 	H 	0.37030 0.30080 0.85500 -0.03800
C 	C 	0.40240 0.27960 0.89161 -0.25400
H 	H 	0.41530 0.30020 0.89610 0.10900
C 	C 	0.42662 0.25150 0.97118 0.14200
C 	C 	0.39068 0.25220 0.98257 -0.09300
H 	H 	0.37070 0.25250 0.96790 0.05200
O 	O 	0.18593 0.72150 0.67214 -0.78300
C 	C 	0.12383 0.77980 0.63332 0.17000
H 	H 	0.12970 0.80080 0.64500 -0.03800
C 	C 	0.09760 0.77960 0.60839 -0.25400
H 	H 	0.08470 0.80020 0.60390 0.10900
C 	C 	0.07338 0.75150 0.52882 0.14300
C 	C 	0.10932 0.75220 0.51743 -0.08800
H 	H 	0.12930 0.75250 0.53210 0.05100
O 	O 	0.68593 0.22150 0.17214 -0.78200
C 	C 	0.62383 0.27980 0.13332 0.17000
H 	H 	0.62970 0.30080 0.14500 -0.03800
C 	C 	0.59760 0.27960 0.10839 -0.25400
H 	H 	0.58470 0.30020 0.10390 0.10900
C 	C 	0.57338 0.25150 0.02882 0.14200
C 	C 	0.60932 0.25220 0.01743 -0.08400
H 	H 	0.62930 0.25250 0.03210 0.05000
O 	O 	0.81407 0.67214 0.72150 -0.78300
C 	C 	0.87617 0.63332 0.77980 0.17000
H 	H 	0.87030 0.64500 0.80080 -0.03800
C 	C 	0.90240 0.60839 0.77960 -0.25400
H 	H 	0.91530 0.60390 0.80020 0.10900
C 	C 	0.92662 0.52882 0.75150 0.14300
C 	C 	0.89068 0.51743 0.75220 -0.08900
H 	H 	0.87070 0.53210 0.75250 0.05100
O 	O 	0.31407 0.17214 0.22150 -0.78200
C 	C 	0.37617 0.13332 0.27980 0.17000
H 	H 	0.37030 0.14500 0.30080 -0.03800
C 	C 	0.40240 0.10839 0.27960 -0.25400
H 	H 	0.41530 0.10390 0.30020 0.10900
C 	C 	0.42662 0.02882 0.25150 0.14200
C 	C 	0.39068 0.01743 0.25220 -0.08400
H 	H 	0.37070 0.03210 0.25250 0.05000
O 	O 	0.18593 0.32786 0.72150 -0.78300
C 	C 	0.12383 0.36668 0.77980 0.17000
H 	H 	0.12970 0.35500 0.80080 -0.03800
C 	C 	0.09760 0.39161 0.77960 -0.25400
H 	H 	0.08470 0.39610 0.80020 0.10900
C 	C 	0.07338 0.47118 0.75150 0.14300
C 	C 	0.10932 0.48257 0.75220 -0.08800
H 	H 	0.12930 0.46790 0.75250 0.05100
O 	O 	0.68593 0.82786 0.22150 -0.78300
C 	C 	0.62383 0.86668 0.27980 0.17000
H 	H 	0.62970 0.85500 0.30080 -0.03800
C 	C 	0.59760 0.89161 0.27960 -0.25400
H 	H 	0.58470 0.89610 0.30020 0.10900
C 	C 	0.57338 0.97118 0.25150 0.14200
C 	C 	0.60932 0.98257 0.25220 -0.09300
H 	H 	0.62930 0.96790 0.25250 0.05200
O 	O 	0.81407 0.32786 0.27850 -0.78300
C 	C 	0.87617 0.36668 0.22020 0.17000
H 	H 	0.87030 0.35500 0.19920 -0.03800
C 	C 	0.90240 0.39161 0.22040 -0.25400
H 	H 	0.91530 0.39610 0.19980 0.10900
C 	C 	0.92662 0.47118 0.24850 0.14300
C 	C 	0.89068 0.48257 0.24780 -0.08800
H 	H 	0.87070 0.46790 0.24750 0.05100
O 	O 	0.31407 0.82786 0.77850 -0.78300
C 	C 	0.37617 0.86668 0.72020 0.17000
H 	H 	0.37030 0.85500 0.69920 -0.03800
C 	C 	0.40240 0.89161 0.72040 -0.25400
H 	H 	0.41530 0.89610 0.69980 0.10900
C 	C 	0.42662 0.97118 0.74850 0.14200
C 	C 	0.39068 0.98257 0.74780 -0.09300
H 	H 	0.37070 0.96790 0.74750 0.05200
O 	O 	0.18593 0.67214 0.27850 -0.78300
C 	C 	0.12383 0.63332 0.22020 0.17000
H 	H 	0.12970 0.64500 0.19920 -0.03800
C 	C 	0.09760 0.60839 0.22040 -0.25400
H 	H 	0.08470 0.60390 0.19980 0.11000
C 	C 	0.07338 0.52882 0.24850 0.14300
C 	C 	0.10932 0.51743 0.24780 -0.08800
H 	H 	0.12930 0.53210 0.24750 0.05100
O 	O 	0.68593 0.17214 0.77850 -0.78300
C 	C 	0.62383 0.13332 0.72020 0.17000
H 	H 	0.62970 0.14500 0.69920 -0.03800
C 	C 	0.59760 0.10839 0.72040 -0.25400
H 	H 	0.58470 0.10390 0.69980 0.10900
C 	C 	0.57338 0.02882 0.74850 0.14200
C 	C 	0.60932 0.01743 0.74780 -0.08400
H 	H 	0.62930 0.03210 0.74750 0.05000
O 	O 	0.67214 0.27850 0.18593 -0.78300
C 	C 	0.63332 0.22020 0.12383 0.17000
H 	H 	0.64500 0.19920 0.12970 -0.03800
C 	C 	0.60839 0.22040 0.09760 -0.25400
H 	H 	0.60390 0.19980 0.08470 0.11000
C 	C 	0.52882 0.24850 0.07338 0.14300
C 	C 	0.51743 0.24780 0.10932 -0.08800
H 	H 	0.53210 0.24750 0.12930 0.05100
O 	O 	0.17214 0.77850 0.68593 -0.78300
C 	C 	0.13332 0.72020 0.62383 0.17000
H 	H 	0.14500 0.69920 0.62970 -0.03800
C 	C 	0.10839 0.72040 0.59760 -0.25400
H 	H 	0.10390 0.69980 0.58470 0.10900
C 	C 	0.02882 0.74850 0.57338 0.14200
C 	C 	0.01743 0.74780 0.60932 -0.08400
H 	H 	0.03210 0.74750 0.62930 0.05000
O 	O 	0.32786 0.27850 0.81407 -0.78300
C 	C 	0.36668 0.22020 0.87617 0.17000
H 	H 	0.35500 0.19920 0.87030 -0.03800
C 	C 	0.39161 0.22040 0.90240 -0.25400
H 	H 	0.39610 0.19980 0.91530 0.10900
C 	C 	0.47118 0.24850 0.92662 0.14300
C 	C 	0.48257 0.24780 0.89068 -0.08800
H 	H 	0.46790 0.24750 0.87070 0.05100
O 	O 	0.82786 0.77850 0.31407 -0.78300
C 	C 	0.86668 0.72020 0.37617 0.17000
H 	H 	0.85500 0.69920 0.37030 -0.03800
C 	C 	0.89161 0.72040 0.40240 -0.25400
H 	H 	0.89610 0.69980 0.41530 0.10900
C 	C 	0.97118 0.74850 0.42662 0.14200
C 	C 	0.98257 0.74780 0.39068 -0.09300
H 	H 	0.96790 0.74750 0.37070 0.05200
O 	O 	0.32786 0.72150 0.18593 -0.78300
C 	C 	0.36668 0.77980 0.12383 0.17000
H 	H 	0.35500 0.80080 0.12970 -0.03800
C 	C 	0.39161 0.77960 0.09760 -0.25400
H 	H 	0.39610 0.80020 0.08470 0.10900
C 	C 	0.47118 0.75150 0.07338 0.14300
C 	C 	0.48257 0.75220 0.10932 -0.08800
H 	H 	0.46790 0.75250 0.12930 0.05100
O 	O 	0.82786 0.22150 0.68593 -0.78300
C 	C 	0.86668 0.27980 0.62383 0.17000
H 	H 	0.85500 0.30080 0.62970 -0.03800
C 	C 	0.89161 0.27960 0.59760 -0.25400
H 	H 	0.89610 0.30020 0.58470 0.10900
C 	C 	0.97118 0.25150 0.57338 0.14200
C 	C 	0.98257 0.25220 0.60932 -0.09300
H 	H 	0.96790 0.25250 0.62930 0.05200
O 	O 	0.67214 0.72150 0.81407 -0.78300
C 	C 	0.63332 0.77980 0.87617 0.17000
H 	H 	0.64500 0.80080 0.87030 -0.03800
C 	C 	0.60839 0.77960 0.90240 -0.25400
H 	H 	0.60390 0.80020 0.91530 0.10900
C 	C 	0.52882 0.75150 0.92662 0.14300
C 	C 	0.51743 0.75220 0.89068 -0.08900
H 	H 	0.53210 0.75250 0.87070 0.05100
O 	O 	0.17214 0.22150 0.31407 -0.78200
C 	C 	0.13332 0.27980 0.37617 0.17000
H 	H 	0.14500 0.30080 0.37030 -0.03800
C 	C 	0.10839 0.27960 0.40240 -0.25400
H 	H 	0.10390 0.30020 0.41530 0.10900
C 	C 	0.02882 0.25150 0.42662 0.14200
C 	C 	0.01743 0.25220 0.39068 -0.08400
H 	H 	0.03210 0.25250 0.37070 0.05000
O 	O 	0.27850 0.81407 0.32786 -0.78300
C 	C 	0.22020 0.87617 0.36668 0.17000
H 	H 	0.19920 0.87030 0.35500 -0.03800
C 	C 	0.22040 0.90240 0.39161 -0.25400
H 	H 	0.19980 0.91530 0.39610 0.10900
C 	C 	0.24850 0.92662 0.47118 0.14300
C 	C 	0.24780 0.89068 0.48257 -0.08800
H 	H 	0.24750 0.87070 0.46790 0.05100
O 	O 	0.77850 0.31407 0.82786 -0.78300
C 	C 	0.72020 0.37617 0.86668 0.17000
H 	H 	0.69920 0.37030 0.85500 -0.03800
C 	C 	0.72040 0.40240 0.89161 -0.25400
H 	H 	0.69980 0.41530 0.89610 0.10900
C 	C 	0.74850 0.42662 0.97118 0.14200
C 	C 	0.74780 0.39068 0.98257 -0.09300
H 	H 	0.74750 0.37070 0.96790 0.05200
O 	O 	0.27850 0.18593 0.67214 -0.78300
C 	C 	0.22020 0.12383 0.63332 0.17000
H 	H 	0.19920 0.12970 0.64500 -0.03800
C 	C 	0.22040 0.09760 0.60839 -0.25400
H 	H 	0.19980 0.08470 0.60390 0.11000
C 	C 	0.24850 0.07338 0.52882 0.14300
C 	C 	0.24780 0.10932 0.51743 -0.08800
H 	H 	0.24750 0.12930 0.53210 0.05100
O 	O 	0.77850 0.68593 0.17214 -0.78300
C 	C 	0.72020 0.62383 0.13332 0.17000
H 	H 	0.69920 0.62970 0.14500 -0.03800
C 	C 	0.72040 0.59760 0.10839 -0.25400
H 	H 	0.69980 0.58470 0.10390 0.10900
C 	C 	0.74850 0.57338 0.02882 0.14200
C 	C 	0.74780 0.60932 0.01743 -0.08400
H 	H 	0.74750 0.62930 0.03210 0.05000
O 	O 	0.72150 0.81407 0.67214 -0.78300
C 	C 	0.77980 0.87617 0.63332 0.17000
H 	H 	0.80080 0.87030 0.64500 -0.03800
C 	C 	0.77960 0.90240 0.60839 -0.25400
H 	H 	0.80020 0.91530 0.60390 0.10900
C 	C 	0.75150 0.92662 0.52882 0.14300
C 	C 	0.75220 0.89068 0.51743 -0.08900
H 	H 	0.75250 0.87070 0.53210 0.05100
O 	O 	0.22150 0.31407 0.17214 -0.78200
C 	C 	0.27980 0.37617 0.13332 0.17000
H 	H 	0.30080 0.37030 0.14500 -0.03800
C 	C 	0.27960 0.40240 0.10839 -0.25400
H 	H 	0.30020 0.41530 0.10390 0.10900
C 	C 	0.25150 0.42662 0.02882 0.14200
C 	C 	0.25220 0.39068 0.01743 -0.08400
H 	H 	0.25250 0.37070 0.03210 0.05000
O 	O 	0.72150 0.18593 0.32786 -0.78300
C 	C 	0.77980 0.12383 0.36668 0.17000
H 	H 	0.80080 0.12970 0.35500 -0.03800
C 	C 	0.77960 0.09760 0.39161 -0.25400
H 	H 	0.80020 0.08470 0.39610 0.10900
C 	C 	0.75150 0.07338 0.47118 0.14300
C 	C 	0.75220 0.10932 0.48257 -0.08800
H 	H 	0.75250 0.12930 0.46790 0.05100
O 	O 	0.22150 0.68593 0.82786 -0.78300
C 	C 	0.27980 0.62383 0.86668 0.17000
H 	H 	0.30080 0.62970 0.85500 -0.03800
C 	C 	0.27960 0.59760 0.89161 -0.25400
H 	H 	0.30020 0.58470 0.89610 0.10900
C 	C 	0.25150 0.57338 0.97118 0.14200
C 	C 	0.25220 0.60932 0.98257 -0.09300
H 	H 	0.25250 0.62930 0.96790 0.05200
O 	O 	0.32786 0.18593 0.72150 -0.78300
C 	C 	0.36668 0.12383 0.77980 0.17000
H 	H 	0.35500 0.12970 0.80080 -0.03800
C 	C 	0.39161 0.09760 0.77960 -0.25400
H 	H 	0.39610 0.08470 0.80020 0.10900
C 	C 	0.47118 0.07338 0.75150 0.14300
C 	C 	0.48257 0.10932 0.75220 -0.08800
H 	H 	0.46790 0.12930 0.75250 0.05100
O 	O 	0.82786 0.68593 0.22150 -0.78300
C 	C 	0.86668 0.62383 0.27980 0.17000
H 	H 	0.85500 0.62970 0.30080 -0.03800
C 	C 	0.89161 0.59760 0.27960 -0.25400
H 	H 	0.89610 0.58470 0.30020 0.10900
C 	C 	0.97118 0.57338 0.25150 0.14200
C 	C 	0.98257 0.60932 0.25220 -0.09300
H 	H 	0.96790 0.62930 0.25250 0.05200
O 	O 	0.67214 0.81407 0.72150 -0.78300
C 	C 	0.63332 0.87617 0.77980 0.17000
H 	H 	0.64500 0.87030 0.80080 -0.03800
C 	C 	0.60839 0.90240 0.77960 -0.25400
H 	H 	0.60390 0.91530 0.80020 0.10900
C 	C 	0.52882 0.92662 0.75150 0.14300
C 	C 	0.51743 0.89068 0.75220 -0.08900
H 	H 	0.53210 0.87070 0.75250 0.05100
O 	O 	0.17214 0.31407 0.22150 -0.78200
C 	C 	0.13332 0.37617 0.27980 0.17000
H 	H 	0.14500 0.37030 0.30080 -0.03800
C 	C 	0.10839 0.40240 0.27960 -0.25400
H 	H 	0.10390 0.41530 0.30020 0.10900
C 	C 	0.02882 0.42662 0.25150 0.14200
C 	C 	0.01743 0.39068 0.25220 -0.08400
H 	H 	0.03210 0.37070 0.25250 0.05000
O 	O 	0.67214 0.18593 0.27850 -0.78300
C 	C 	0.63332 0.12383 0.22020 0.17000
H 	H 	0.64500 0.12970 0.19920 -0.03800
C 	C 	0.60839 0.09760 0.22040 -0.25400
H 	H 	0.60390 0.08470 0.19980 0.11000
C 	C 	0.52882 0.07338 0.24850 0.14300
C 	C 	0.51743 0.10932 0.24780 -0.08800
H 	H 	0.53210 0.12930 0.24750 0.05100
O 	O 	0.17214 0.68593 0.77850 -0.78300
C 	C 	0.13332 0.62383 0.72020 0.17000
H 	H 	0.14500 0.62970 0.69920 -0.03800
C 	C 	0.10839 0.59760 0.72040 -0.25400
H 	H 	0.10390 0.58470 0.69980 0.10900
C 	C 	0.02882 0.57338 0.74850 0.14200
C 	C 	0.01743 0.60932 0.74780 -0.08400
H 	H 	0.03210 0.62930 0.74750 0.05000
O 	O 	0.32786 0.81407 0.27850 -0.78300
C 	C 	0.36668 0.87617 0.22020 0.17000
H 	H 	0.35500 0.87030 0.19920 -0.03800
C 	C 	0.39161 0.90240 0.22040 -0.25400
H 	H 	0.39610 0.91530 0.19980 0.10900
C 	C 	0.47118 0.92662 0.24850 0.14300
C 	C 	0.48257 0.89068 0.24780 -0.08800
H 	H 	0.46790 0.87070 0.24750 0.05100
O 	O 	0.82786 0.31407 0.77850 -0.78300
C 	C 	0.86668 0.37617 0.72020 0.17000
H 	H 	0.85500 0.37030 0.69920 -0.03800
C 	C 	0.89161 0.40240 0.72040 -0.25400
H 	H 	0.89610 0.41530 0.69980 0.10900
C 	C 	0.97118 0.42662 0.74850 0.14200
C 	C 	0.98257 0.39068 0.74780 -0.09300
H 	H 	0.96790 0.37070 0.74750 0.05200
O 	O 	0.72150 0.32786 0.18593 -0.78300
C 	C 	0.77980 0.36668 0.12383 0.17000
H 	H 	0.80080 0.35500 0.12970 -0.03800
C 	C 	0.77960 0.39161 0.09760 -0.25400
H 	H 	0.80020 0.39610 0.08470 0.10900
C 	C 	0.75150 0.47118 0.07338 0.14300
C 	C 	0.75220 0.48257 0.10932 -0.08800
H 	H 	0.75250 0.46790 0.12930 0.05100
O 	O 	0.22150 0.82786 0.68593 -0.78300
C 	C 	0.27980 0.86668 0.62383 0.17000
H 	H 	0.30080 0.85500 0.62970 -0.03800
C 	C 	0.27960 0.89161 0.59760 -0.25400
H 	H 	0.30020 0.89610 0.58470 0.10900
C 	C 	0.25150 0.97118 0.57338 0.14200
C 	C 	0.25220 0.98257 0.60932 -0.09300
H 	H 	0.25250 0.96790 0.62930 0.05200
O 	O 	0.72150 0.67214 0.81407 -0.78300
C 	C 	0.77980 0.63332 0.87617 0.17000
H 	H 	0.80080 0.64500 0.87030 -0.03800
C 	C 	0.77960 0.60839 0.90240 -0.25400
H 	H 	0.80020 0.60390 0.91530 0.10900
C 	C 	0.75150 0.52882 0.92662 0.14300
C 	C 	0.75220 0.51743 0.89068 -0.08900
H 	H 	0.75250 0.53210 0.87070 0.05100
O 	O 	0.22150 0.17214 0.31407 -0.78200
C 	C 	0.27980 0.13332 0.37617 0.17000
H 	H 	0.30080 0.14500 0.37030 -0.03800
C 	C 	0.27960 0.10839 0.40240 -0.25400
H 	H 	0.30020 0.10390 0.41530 0.10900
C 	C 	0.25150 0.02882 0.42662 0.14200
C 	C 	0.25220 0.01743 0.39068 -0.08400
H 	H 	0.25250 0.03210 0.37070 0.05000
O 	O 	0.27850 0.67214 0.18593 -0.78300
C 	C 	0.22020 0.63332 0.12383 0.17000
H 	H 	0.19920 0.64500 0.12970 -0.03800
C 	C 	0.22040 0.60839 0.09760 -0.25400
H 	H 	0.19980 0.60390 0.08470 0.11000
C 	C 	0.24850 0.52882 0.07338 0.14300
C 	C 	0.24780 0.51743 0.10932 -0.08800
H 	H 	0.24750 0.53210 0.12930 0.05100
O 	O 	0.77850 0.17214 0.68593 -0.78300
C 	C 	0.72020 0.13332 0.62383 0.17000
H 	H 	0.69920 0.14500 0.62970 -0.03800
C 	C 	0.72040 0.10839 0.59760 -0.25400
H 	H 	0.69980 0.10390 0.58470 0.10900
C 	C 	0.74850 0.02882 0.57338 0.14200
C 	C 	0.74780 0.01743 0.60932 -0.08400
H 	H 	0.74750 0.03210 0.62930 0.05000
O 	O 	0.27850 0.32786 0.81407 -0.78300
C 	C 	0.22020 0.36668 0.87617 0.17000
H 	H 	0.19920 0.35500 0.87030 -0.03800
C 	C 	0.22040 0.39161 0.90240 -0.25400
H 	H 	0.19980 0.39610 0.91530 0.10900
C 	C 	0.24850 0.47118 0.92662 0.14300
C 	C 	0.24780 0.48257 0.89068 -0.08800
H 	H 	0.24750 0.46790 0.87070 0.05100
O 	O 	0.77850 0.82786 0.31407 -0.78300
C 	C 	0.72020 0.86668 0.37617 0.17000
H 	H 	0.69920 0.85500 0.37030 -0.03800
C 	C 	0.72040 0.89161 0.40240 -0.25400
H 	H 	0.69980 0.89610 0.41530 0.10900
C 	C 	0.74850 0.97118 0.42662 0.14200
C 	C 	0.74780 0.98257 0.39068 -0.09300
H 	H 	0.74750 0.96790 0.37070 0.05200
O 	O 	0.18593 0.72150 0.32786 -0.78300
C 	C 	0.12383 0.77980 0.36668 0.17000
H 	H 	0.12970 0.80080 0.35500 -0.03800
C 	C 	0.09760 0.77960 0.39161 -0.25400
H 	H 	0.08470 0.80020 0.39610 0.10900
C 	C 	0.07338 0.75150 0.47118 0.14300
C 	C 	0.10932 0.75220 0.48257 -0.08800
H 	H 	0.12930 0.75250 0.46790 0.05100
O 	O 	0.68593 0.22150 0.82786 -0.78300
C 	C 	0.62383 0.27980 0.86668 0.17000
H 	H 	0.62970 0.30080 0.85500 -0.03800
C 	C 	0.59760 0.27960 0.89161 -0.25400
H 	H 	0.58470 0.30020 0.89610 0.10900
C 	C 	0.57338 0.25150 0.97118 0.14200
C 	C 	0.60932 0.25220 0.98257 -0.09300
H 	H 	0.62930 0.25250 0.96790 0.05200
O 	O 	0.81407 0.72150 0.67214 -0.78300
C 	C 	0.87617 0.77980 0.63332 0.17000
H 	H 	0.87030 0.80080 0.64500 -0.03800
C 	C 	0.90240 0.77960 0.60839 -0.25400
H 	H 	0.91530 0.80020 0.60390 0.10900
C 	C 	0.92662 0.75150 0.52882 0.14300
C 	C 	0.89068 0.75220 0.51743 -0.08900
H 	H 	0.87070 0.75250 0.53210 0.05100
O 	O 	0.31407 0.22150 0.17214 -0.78200
C 	C 	0.37617 0.27980 0.13332 0.17000
H 	H 	0.37030 0.30080 0.14500 -0.03800
C 	C 	0.40240 0.27960 0.10839 -0.25400
H 	H 	0.41530 0.30020 0.10390 0.10900
C 	C 	0.42662 0.25150 0.02882 0.14200
C 	C 	0.39068 0.25220 0.01743 -0.08400
H 	H 	0.37070 0.25250 0.03210 0.05000
O 	O 	0.18593 0.27850 0.67214 -0.78300
C 	C 	0.12383 0.22020 0.63332 0.17000
H 	H 	0.12970 0.19920 0.64500 -0.03800
C 	C 	0.09760 0.22040 0.60839 -0.25400
H 	H 	0.08470 0.19980 0.60390 0.11000
C 	C 	0.07338 0.24850 0.52882 0.14300
C 	C 	0.10932 0.24780 0.51743 -0.08800
H 	H 	0.12930 0.24750 0.53210 0.05100
O 	O 	0.68593 0.77850 0.17214 -0.78300
C 	C 	0.62383 0.72020 0.13332 0.17000
H 	H 	0.62970 0.69920 0.14500 -0.03800
C 	C 	0.59760 0.72040 0.10839 -0.25400
H 	H 	0.58470 0.69980 0.10390 0.10900
C 	C 	0.57338 0.74850 0.02882 0.14200
C 	C 	0.60932 0.74780 0.01743 -0.08400
H 	H 	0.62930 0.74750 0.03210 0.05000
O 	O 	0.81407 0.27850 0.32786 -0.78300
C 	C 	0.87617 0.22020 0.36668 0.17000
H 	H 	0.87030 0.19920 0.35500 -0.03800
C 	C 	0.90240 0.22040 0.39161 -0.25400
H 	H 	0.91530 0.19980 0.39610 0.10900
C 	C 	0.92662 0.24850 0.47118 0.14300
C 	C 	0.89068 0.24780 0.48257 -0.08800
H 	H 	0.87070 0.24750 0.46790 0.05100
O 	O 	0.31407 0.77850 0.82786 -0.78300
C 	C 	0.37617 0.72020 0.86668 0.17000
H 	H 	0.37030 0.69920 0.85500 -0.03800
C 	C 	0.40240 0.72040 0.89161 -0.25400
H 	H 	0.41530 0.69980 0.89610 0.10900
C 	C 	0.42662 0.74850 0.97118 0.14200
C 	C 	0.39068 0.74780 0.98257 -0.09300
H 	H 	0.37070 0.74750 0.96790 0.05200
O 	O 	0.18593 0.32786 0.27850 -0.78300
C 	C 	0.12383 0.36668 0.22020 0.17000
H 	H 	0.12970 0.35500 0.19920 -0.03800
C 	C 	0.09760 0.39161 0.22040 -0.25400
H 	H 	0.08470 0.39610 0.19980 0.11000
C 	C 	0.07338 0.47118 0.24850 0.14300
C 	C 	0.10932 0.48257 0.24780 -0.08800
H 	H 	0.12930 0.46790 0.24750 0.05100
O 	O 	0.68593 0.82786 0.77850 -0.78300
C 	C 	0.62383 0.86668 0.72020 0.17000
H 	H 	0.62970 0.85500 0.69920 -0.03800
C 	C 	0.59760 0.89161 0.72040 -0.25400
H 	H 	0.58470 0.89610 0.69980 0.10900
C 	C 	0.57338 0.97118 0.74850 0.14200
C 	C 	0.60932 0.98257 0.74780 -0.09300
H 	H 	0.62930 0.96790 0.74750 0.05200
O 	O 	0.81407 0.67214 0.27850 -0.78300
C 	C 	0.87617 0.63332 0.22020 0.17000
H 	H 	0.87030 0.64500 0.19920 -0.03800
C 	C 	0.90240 0.60839 0.22040 -0.25400
H 	H 	0.91530 0.60390 0.19980 0.10900
C 	C 	0.92662 0.52882 0.24850 0.14300
C 	C 	0.89068 0.51743 0.24780 -0.08800
H 	H 	0.87070 0.53210 0.24750 0.05100
O 	O 	0.31407 0.17214 0.77850 -0.78300
C 	C 	0.37617 0.13332 0.72020 0.17000
H 	H 	0.37030 0.14500 0.69920 -0.03800
C 	C 	0.40240 0.10839 0.72040 -0.25400
H 	H 	0.41530 0.10390 0.69980 0.10900
C 	C 	0.42662 0.02882 0.74850 0.14200
C 	C 	0.39068 0.01743 0.74780 -0.08400
H 	H 	0.37070 0.03210 0.74750 0.05000
O 	O 	0.18593 0.67214 0.72150 -0.78300
C 	C 	0.12383 0.63332 0.77980 0.17000
H 	H 	0.12970 0.64500 0.80080 -0.03800
C 	C 	0.09760 0.60839 0.77960 -0.25400
H 	H 	0.08470 0.60390 0.80020 0.10900
C 	C 	0.07338 0.52882 0.75150 0.14300
C 	C 	0.10932 0.51743 0.75220 -0.08800
H 	H 	0.12930 0.53210 0.75250 0.05100
O 	O 	0.68593 0.17214 0.22150 -0.78200
C 	C 	0.62383 0.13332 0.27980 0.17000
H 	H 	0.62970 0.14500 0.30080 -0.03800
C 	C 	0.59760 0.10839 0.27960 -0.25400
H 	H 	0.58470 0.10390 0.30020 0.10900
C 	C 	0.57338 0.02882 0.25150 0.14200
C 	C 	0.60932 0.01743 0.25220 -0.08400
H 	H 	0.62930 0.03210 0.25250 0.05000
O 	O 	0.81407 0.32786 0.72150 -0.78300
C 	C 	0.87617 0.36668 0.77980 0.17000
H 	H 	0.87030 0.35500 0.80080 -0.03800
C 	C 	0.90240 0.39161 0.77960 -0.25400
H 	H 	0.91530 0.39610 0.80020 0.10900
C 	C 	0.92662 0.47118 0.75150 0.14300
C 	C 	0.89068 0.48257 0.75220 -0.08900
H 	H 	0.87070 0.46790 0.75250 0.05100
O 	O 	0.31407 0.82786 0.22150 -0.78300
C 	C 	0.37617 0.86668 0.27980 0.17000
H 	H 	0.37030 0.85500 0.30080 -0.03800
C 	C 	0.40240 0.89161 0.27960 -0.25400
H 	H 	0.41530 0.89610 0.30020 0.10900
C 	C 	0.42662 0.97118 0.25150 0.14200
C 	C 	0.39068 0.98257 0.25220 -0.09300
H 	H 	0.37070 0.96790 0.25250 0.05200
O 	O 	0.32786 0.72150 0.81407 -0.78300
C 	C 	0.36668 0.77980 0.87617 0.17000
H 	H 	0.35500 0.80080 0.87030 -0.03800
C 	C 	0.39161 0.77960 0.90240 -0.25400
H 	H 	0.39610 0.80020 0.91530 0.10900
C 	C 	0.47118 0.75150 0.92662 0.14300
C 	C 	0.48257 0.75220 0.89068 -0.08900
H 	H 	0.46790 0.75250 0.87070 0.05100
O 	O 	0.82786 0.22150 0.31407 -0.78300
C 	C 	0.86668 0.27980 0.37617 0.17000
H 	H 	0.85500 0.30080 0.37030 -0.03800
C 	C 	0.89161 0.27960 0.40240 -0.25400
H 	H 	0.89610 0.30020 0.41530 0.10900
C 	C 	0.97118 0.25150 0.42662 0.14200
C 	C 	0.98257 0.25220 0.39068 -0.09300
H 	H 	0.96790 0.25250 0.37070 0.05200
O 	O 	0.67214 0.72150 0.18593 -0.78300
C 	C 	0.63332 0.77980 0.12383 0.17000
H 	H 	0.64500 0.80080 0.12970 -0.03800
C 	C 	0.60839 0.77960 0.09760 -0.25400
H 	H 	0.60390 0.80020 0.08470 0.10900
C 	C 	0.52882 0.75150 0.07338 0.14300
C 	C 	0.51743 0.75220 0.10932 -0.08800
H 	H 	0.53210 0.75250 0.12930 0.05100
O 	O 	0.17214 0.22150 0.68593 -0.78200
C 	C 	0.13332 0.27980 0.62383 0.17000
H 	H 	0.14500 0.30080 0.62970 -0.03800
C 	C 	0.10839 0.27960 0.59760 -0.25400
H 	H 	0.10390 0.30020 0.58470 0.10900
C 	C 	0.02882 0.25150 0.57338 0.14200
C 	C 	0.01743 0.25220 0.60932 -0.08400
H 	H 	0.03210 0.25250 0.62930 0.05000
O 	O 	0.67214 0.27850 0.81407 -0.78300
C 	C 	0.63332 0.22020 0.87617 0.17000
H 	H 	0.64500 0.19920 0.87030 -0.03800
C 	C 	0.60839 0.22040 0.90240 -0.25400
H 	H 	0.60390 0.19980 0.91530 0.10900
C 	C 	0.52882 0.24850 0.92662 0.14300
C 	C 	0.51743 0.24780 0.89068 -0.08800
H 	H 	0.53210 0.24750 0.87070 0.05100
O 	O 	0.17214 0.77850 0.31407 -0.78300
C 	C 	0.13332 0.72020 0.37617 0.17000
H 	H 	0.14500 0.69920 0.37030 -0.03800
C 	C 	0.10839 0.72040 0.40240 -0.25400
H 	H 	0.10390 0.69980 0.41530 0.10900
C 	C 	0.02882 0.74850 0.42662 0.14200
C 	C 	0.01743 0.74780 0.39068 -0.08400
H 	H 	0.03210 0.74750 0.37070 0.05000
O 	O 	0.32786 0.27850 0.18593 -0.78300
C 	C 	0.36668 0.22020 0.12383 0.17000
H 	H 	0.35500 0.19920 0.12970 -0.03800
C 	C 	0.39161 0.22040 0.09760 -0.25400
H 	H 	0.39610 0.19980 0.08470 0.11000
C 	C 	0.47118 0.24850 0.07338 0.14300
C 	C 	0.48257 0.24780 0.10932 -0.08800
H 	H 	0.46790 0.24750 0.12930 0.05100
O 	O 	0.82786 0.77850 0.68593 -0.78300
C 	C 	0.86668 0.72020 0.62383 0.17000
H 	H 	0.85500 0.69920 0.62970 -0.03800
C 	C 	0.89161 0.72040 0.59760 -0.25400
H 	H 	0.89610 0.69980 0.58470 0.10900
C 	C 	0.97118 0.74850 0.57338 0.14200
C 	C 	0.98257 0.74780 0.60932 -0.09300
H 	H 	0.96790 0.74750 0.62930 0.05200
O 	O 	0.72150 0.18593 0.67214 -0.78300
C 	C 	0.77980 0.12383 0.63332 0.17000
H 	H 	0.80080 0.12970 0.64500 -0.03800
C 	C 	0.77960 0.09760 0.60839 -0.25400
H 	H 	0.80020 0.08470 0.60390 0.10900
C 	C 	0.75150 0.07338 0.52882 0.14300
C 	C 	0.75220 0.10932 0.51743 -0.08800
H 	H 	0.75250 0.12930 0.53210 0.05100
O 	O 	0.22150 0.68593 0.17214 -0.78200
C 	C 	0.27980 0.62383 0.13332 0.17000
H 	H 	0.30080 0.62970 0.14500 -0.03800
C 	C 	0.27960 0.59760 0.10839 -0.25400
H 	H 	0.30020 0.58470 0.10390 0.10900
C 	C 	0.25150 0.57338 0.02882 0.14200
C 	C 	0.25220 0.60932 0.01743 -0.08400
H 	H 	0.25250 0.62930 0.03210 0.05000
O 	O 	0.72150 0.81407 0.32786 -0.78300
C 	C 	0.77980 0.87617 0.36668 0.17000
H 	H 	0.80080 0.87030 0.35500 -0.03800
C 	C 	0.77960 0.90240 0.39161 -0.25400
H 	H 	0.80020 0.91530 0.39610 0.10900
C 	C 	0.75150 0.92662 0.47118 0.14300
C 	C 	0.75220 0.89068 0.48257 -0.08900
H 	H 	0.75250 0.87070 0.46790 0.05100
O 	O 	0.22150 0.31407 0.82786 -0.78300
C 	C 	0.27980 0.37617 0.86668 0.17000
H 	H 	0.30080 0.37030 0.85500 -0.03800
C 	C 	0.27960 0.40240 0.89161 -0.25400
H 	H 	0.30020 0.41530 0.89610 0.10900
C 	C 	0.25150 0.42662 0.97118 0.14200
C 	C 	0.25220 0.39068 0.98257 -0.09300
H 	H 	0.25250 0.37070 0.96790 0.05200
O 	O 	0.27850 0.18593 0.32786 -0.78300
C 	C 	0.22020 0.12383 0.36668 0.17000
H 	H 	0.19920 0.12970 0.35500 -0.03800
C 	C 	0.22040 0.09760 0.39161 -0.25400
H 	H 	0.19980 0.08470 0.39610 0.11000
C 	C 	0.24850 0.07338 0.47118 0.14300
C 	C 	0.24780 0.10932 0.48257 -0.08800
H 	H 	0.24750 0.12930 0.46790 0.05100
O 	O 	0.77850 0.68593 0.82786 -0.78300
C 	C 	0.72020 0.62383 0.86668 0.17000
H 	H 	0.69920 0.62970 0.85500 -0.03800
C 	C 	0.72040 0.59760 0.89161 -0.25400
H 	H 	0.69980 0.58470 0.89610 0.10900
C 	C 	0.74850 0.57338 0.97118 0.14200
C 	C 	0.74780 0.60932 0.98257 -0.09300
H 	H 	0.74750 0.62930 0.96790 0.05200
O 	O 	0.27850 0.81407 0.67214 -0.78300
C 	C 	0.22020 0.87617 0.63332 0.17000
H 	H 	0.19920 0.87030 0.64500 -0.03800
C 	C 	0.22040 0.90240 0.60839 -0.25400
H 	H 	0.19980 0.91530 0.60390 0.10900
C 	C 	0.24850 0.92662 0.52882 0.14300
C 	C 	0.24780 0.89068 0.51743 -0.08800
H 	H 	0.24750 0.87070 0.53210 0.05100
O 	O 	0.77850 0.31407 0.17214 -0.78300
C 	C 	0.72020 0.37617 0.13332 0.17000
H 	H 	0.69920 0.37030 0.14500 -0.03800
C 	C 	0.72040 0.40240 0.10839 -0.25400
H 	H 	0.69980 0.41530 0.10390 0.10900
C 	C 	0.74850 0.42662 0.02882 0.14200
C 	C 	0.74780 0.39068 0.01743 -0.08400
H 	H 	0.74750 0.37070 0.03210 0.05000
Ir	Ir	0.50000 0.00000 0.25000 0.55800
Ir	Ir	0.50000 0.00000 0.75000 0.55800
Ir	Ir	0.00000 0.50000 0.25000 0.55800
Ir	Ir	0.25000 0.50000 -0.00000 0.55800
Ir	Ir	0.75000 0.50000 -0.00000 0.55800
Ir	Ir	0.25000 0.00000 0.50000 0.55800
Ir	Ir	0.00000 0.25000 0.50000 0.55800
Ir	Ir	0.00000 0.75000 0.50000 0.55800
Ir	Ir	0.00000 0.50000 0.75000 0.55800
Ir	Ir	0.50000 0.25000 -0.00000 0.55800
Ir	Ir	0.50000 0.75000 -0.00000 0.55800
Ir	Ir	0.75000 0.00000 0.50000 0.55800
Zr	Zr	0.70694 0.77136 0.29306 3.17000
O 	O 	0.74272 0.80780 0.25728 -1.38900
Zr	Zr	0.20694 0.27136 0.79306 3.17000
O 	O 	0.24272 0.30780 0.75728 -1.38900
Zr	Zr	0.29306 0.22864 0.29306 3.17000
O 	O 	0.25728 0.19220 0.25728 -1.38800
Zr	Zr	0.79306 0.72864 0.79306 3.17000
O 	O 	0.75728 0.69220 0.75728 -1.38900
Zr	Zr	0.29306 0.77136 0.70694 3.17000
O 	O 	0.25728 0.80780 0.74272 -1.38900
Zr	Zr	0.79306 0.27136 0.20694 3.17000
O 	O 	0.75728 0.30780 0.24272 -1.38900
Zr	Zr	0.70694 0.22864 0.70694 3.17000
O 	O 	0.74272 0.19220 0.74272 -1.38900
Zr	Zr	0.20694 0.72864 0.20694 3.17000
O 	O 	0.24272 0.69220 0.24272 -1.38900
Zr	Zr	0.29306 0.70694 0.77136 3.17000
O 	O 	0.25728 0.74272 0.80780 -1.38900
Zr	Zr	0.79306 0.20694 0.27136 3.17000
O 	O 	0.75728 0.24272 0.30780 -1.38900
Zr	Zr	0.29306 0.29306 0.22864 3.17000
O 	O 	0.25728 0.25728 0.19220 -1.38800
Zr	Zr	0.79306 0.79306 0.72864 3.17000
O 	O 	0.75728 0.75728 0.69220 -1.38900
Zr	Zr	0.70694 0.29306 0.77136 3.17000
O 	O 	0.74272 0.25728 0.80780 -1.38900
Zr	Zr	0.20694 0.79306 0.27136 3.17000
O 	O 	0.24272 0.75728 0.30780 -1.38900
Zr	Zr	0.70694 0.70694 0.22864 3.17000
O 	O 	0.74272 0.74272 0.19220 -1.38900
Zr	Zr	0.20694 0.20694 0.72864 3.17000
O 	O 	0.24272 0.24272 0.69220 -1.38900
Zr	Zr	0.77136 0.29306 0.70694 3.17000
O 	O 	0.80780 0.25728 0.74272 -1.38900
Zr	Zr	0.27136 0.79306 0.20694 3.17000
O 	O 	0.30780 0.75728 0.24272 -1.38900
Zr	Zr	0.22864 0.29306 0.29306 3.17000
O 	O 	0.19220 0.25728 0.25728 -1.38800
Zr	Zr	0.72864 0.79306 0.79306 3.17000
O 	O 	0.69220 0.75728 0.75728 -1.38900
Zr	Zr	0.77136 0.70694 0.29306 3.17000
O 	O 	0.80780 0.74272 0.25728 -1.38900
Zr	Zr	0.27136 0.20694 0.79306 3.17000
O 	O 	0.30780 0.24272 0.75728 -1.38900
Zr	Zr	0.22864 0.70694 0.70694 3.17000
O 	O 	0.19220 0.74272 0.74272 -1.38900
Zr	Zr	0.72864 0.20694 0.20694 3.17000
O 	O 	0.69220 0.24272 0.24272 -1.38900
Zr	Zr	0.77136 0.70694 0.70694 3.17000
O 	O 	0.80780 0.74272 0.74272 -1.38900
Zr	Zr	0.27136 0.20694 0.20694 3.17000
O 	O 	0.30780 0.24272 0.24272 -1.38900
Zr	Zr	0.22864 0.29306 0.70694 3.17000
O 	O 	0.19220 0.25728 0.74272 -1.38900
Zr	Zr	0.72864 0.79306 0.20694 3.17000
O 	O 	0.69220 0.75728 0.24272 -1.38900
Zr	Zr	0.77136 0.29306 0.29306 3.17000
O 	O 	0.80780 0.25728 0.25728 -1.38900
Zr	Zr	0.27136 0.79306 0.79306 3.17000
O 	O 	0.30780 0.75728 0.75728 -1.38900
Zr	Zr	0.22864 0.70694 0.29306 3.17000
O 	O 	0.19220 0.74272 0.25728 -1.38900
Zr	Zr	0.72864 0.20694 0.79306 3.17000
O 	O 	0.69220 0.24272 0.75728 -1.38900
Zr	Zr	0.70694 0.29306 0.22864 3.17000
O 	O 	0.74272 0.25728 0.19220 -1.38900
Zr	Zr	0.20694 0.79306 0.72864 3.17000
O 	O 	0.24272 0.75728 0.69220 -1.38900
Zr	Zr	0.29306 0.29306 0.77136 3.17000
O 	O 	0.25728 0.25728 0.80780 -1.38900
Zr	Zr	0.79306 0.79306 0.27136 3.17000
O 	O 	0.75728 0.75728 0.30780 -1.38900
Zr	Zr	0.29306 0.70694 0.22864 3.17000
O 	O 	0.25728 0.74272 0.19220 -1.38900
Zr	Zr	0.79306 0.20694 0.72864 3.17000
O 	O 	0.75728 0.24272 0.69220 -1.38900
Zr	Zr	0.70694 0.70694 0.77136 3.17000
O 	O 	0.74272 0.74272 0.80780 -1.38900
Zr	Zr	0.20694 0.20694 0.27136 3.17000
O 	O 	0.24272 0.24272 0.30780 -1.38900
Zr	Zr	0.29306 0.77136 0.29306 3.17000
O 	O 	0.25728 0.80780 0.25728 -1.38900
Zr	Zr	0.79306 0.27136 0.79306 3.17000
O 	O 	0.75728 0.30780 0.75728 -1.38900
Zr	Zr	0.29306 0.22864 0.70694 3.17000
O 	O 	0.25728 0.19220 0.74272 -1.38900
Zr	Zr	0.79306 0.72864 0.20694 3.17000
O 	O 	0.75728 0.69220 0.24272 -1.38900
Zr	Zr	0.70694 0.77136 0.70694 3.17000
O 	O 	0.74272 0.80780 0.74272 -1.38900
Zr	Zr	0.20694 0.27136 0.20694 3.17000
O 	O 	0.24272 0.30780 0.24272 -1.38900
Zr	Zr	0.70694 0.22864 0.29306 3.17000
O 	O 	0.74272 0.19220 0.25728 -1.38900
Zr	Zr	0.20694 0.72864 0.79306 3.17000
O 	O 	0.24272 0.69220 0.75728 -1.38900
N 	N 	0.50000 0.94695 0.24970 -0.17100
N 	N 	0.00000 0.44695 0.74970 -0.16900
N 	N 	0.50000 0.05305 0.24970 -0.17000
N 	N 	0.00000 0.55305 0.74970 -0.16900
N 	N 	0.50000 0.94695 0.75030 -0.17100
N 	N 	0.00000 0.44695 0.25030 -0.16900
N 	N 	0.50000 0.05305 0.75030 -0.17000
N 	N 	0.00000 0.55305 0.25030 -0.16900
N 	N 	0.24970 0.50000 0.94695 -0.17100
N 	N 	0.74970 0.00000 0.44695 -0.16900
N 	N 	0.24970 0.50000 0.05305 -0.17000
N 	N 	0.74970 0.00000 0.55305 -0.16900
N 	N 	0.75030 0.50000 0.94695 -0.17100
N 	N 	0.25030 0.00000 0.44695 -0.16900
N 	N 	0.75030 0.50000 0.05305 -0.17000
N 	N 	0.25030 0.00000 0.55305 -0.16900
N 	N 	0.94695 0.24970 0.50000 -0.17100
N 	N 	0.44695 0.74970 -0.00000 -0.16900
N 	N 	0.05305 0.24970 0.50000 -0.17000
N 	N 	0.55305 0.74970 -0.00000 -0.16900
N 	N 	0.94695 0.75030 0.50000 -0.17100
N 	N 	0.44695 0.25030 -0.00000 -0.16900
N 	N 	0.05305 0.75030 0.50000 -0.17000
N 	N 	0.55305 0.25030 -0.00000 -0.16900
N 	N 	0.94695 0.50000 0.75030 -0.17100
N 	N 	0.44695 0.00000 0.25030 -0.16900
N 	N 	0.05305 0.50000 0.75030 -0.17000
N 	N 	0.55305 0.00000 0.25030 -0.16900
N 	N 	0.94695 0.50000 0.24970 -0.17100
N 	N 	0.44695 0.00000 0.74970 -0.16900
N 	N 	0.05305 0.50000 0.24970 -0.17000
N 	N 	0.55305 0.00000 0.74970 -0.16900
N 	N 	0.50000 0.24970 0.05305 -0.17000
N 	N 	0.00000 0.74970 0.55305 -0.16900
N 	N 	0.50000 0.24970 0.94695 -0.17100
N 	N 	0.00000 0.74970 0.44695 -0.16900
N 	N 	0.50000 0.75030 0.05305 -0.17000
N 	N 	0.00000 0.25030 0.55305 -0.16900
N 	N 	0.50000 0.75030 0.94695 -0.17100
N 	N 	0.00000 0.25030 0.44695 -0.16900
N 	N 	0.24970 0.94695 0.50000 -0.17100
N 	N 	0.74970 0.44695 -0.00000 -0.16900
N 	N 	0.24970 0.05305 0.50000 -0.17000
N 	N 	0.74970 0.55305 -0.00000 -0.16900
N 	N 	0.75030 0.94695 0.50000 -0.17100
N 	N 	0.25030 0.44695 -0.00000 -0.16900
N 	N 	0.75030 0.05305 0.50000 -0.17000
N 	N 	0.25030 0.55305 -0.00000 -0.16900
O 	O 	0.71713 0.71713 0.28287 -1.53700
O 	O 	0.21713 0.21713 0.78287 -1.53700
O 	O 	0.28287 0.28287 0.28287 -1.53700
O 	O 	0.78287 0.78287 0.78287 -1.53700
O 	O 	0.28287 0.71713 0.71713 -1.53700
O 	O 	0.78287 0.21713 0.21713 -1.53700
O 	O 	0.71713 0.28287 0.71713 -1.53700
O 	O 	0.21713 0.78287 0.21713 -1.53700
O 	O 	0.71713 0.71713 0.71713 -1.53700
O 	O 	0.21713 0.21713 0.21713 -1.53600
O 	O 	0.28287 0.28287 0.71713 -1.53700
O 	O 	0.78287 0.78287 0.21713 -1.53700
O 	O 	0.71713 0.28287 0.28287 -1.53700
O 	O 	0.21713 0.78287 0.78287 -1.53700
O 	O 	0.28287 0.71713 0.28287 -1.53700
O 	O 	0.78287 0.21713 0.78287 -1.53700
Cl	Cl	0.50000 0.00000 0.18990 -0.36600
Cl	Cl	0.00000 0.50000 0.68990 -0.36600
Cl	Cl	0.50000 0.00000 0.81010 -0.36600
Cl	Cl	0.00000 0.50000 0.31010 -0.36600
Cl	Cl	0.18990 0.50000 -0.00000 -0.36600
Cl	Cl	0.68990 0.00000 0.50000 -0.36600
Cl	Cl	0.81010 0.50000 -0.00000 -0.36600
Cl	Cl	0.31010 0.00000 0.50000 -0.36600
Cl	Cl	0.00000 0.18990 0.50000 -0.36600
Cl	Cl	0.50000 0.68990 -0.00000 -0.36600
Cl	Cl	0.00000 0.81010 0.50000 -0.36600
Cl	Cl	0.50000 0.31010 -0.00000 -0.36600
Cl	Cl	0.00000 0.50000 0.81010 -0.36600
Cl	Cl	0.50000 0.00000 0.31010 -0.36600
Cl	Cl	0.00000 0.50000 0.18990 -0.36600
Cl	Cl	0.50000 0.00000 0.68990 -0.36600
Cl	Cl	0.50000 0.18990 -0.00000 -0.36600
Cl	Cl	0.00000 0.68990 0.50000 -0.36600
Cl	Cl	0.50000 0.81010 -0.00000 -0.36600
Cl	Cl	0.00000 0.31010 0.50000 -0.36600
Cl	Cl	0.18990 0.00000 0.50000 -0.36600
Cl	Cl	0.68990 0.50000 -0.00000 -0.36600
Cl	Cl	0.81010 0.00000 0.50000 -0.36600
Cl	Cl	0.31010 0.50000 -0.00000 -0.36600
C 	C 	0.66931 0.83069 0.25000 0.55900
C 	C 	0.64101 0.85899 0.25000 -0.26800
C 	C 	0.59039 0.90961 0.25000 0.19500
C 	C 	0.56278 0.93722 0.25000 -0.16100
C 	C 	0.33069 0.16931 0.25000 0.55900
C 	C 	0.35899 0.14101 0.25000 -0.26800
C 	C 	0.40961 0.09039 0.25000 0.19500
C 	C 	0.43722 0.06278 0.25000 -0.16100
C 	C 	0.33069 0.83069 0.75000 0.55900
C 	C 	0.35899 0.85899 0.75000 -0.26800
C 	C 	0.40961 0.90961 0.75000 0.19500
C 	C 	0.43722 0.93722 0.75000 -0.16100
C 	C 	0.66931 0.16931 0.75000 0.55900
C 	C 	0.64101 0.14101 0.75000 -0.26800
C 	C 	0.59039 0.09039 0.75000 0.19500
C 	C 	0.56278 0.06278 0.75000 -0.16100
C 	C 	0.25000 0.66931 0.83069 0.55900
C 	C 	0.25000 0.64101 0.85899 -0.26800
C 	C 	0.25000 0.59039 0.90961 0.19500
C 	C 	0.25000 0.56278 0.93722 -0.16100
C 	C 	0.25000 0.33069 0.16931 0.55900
C 	C 	0.25000 0.35899 0.14101 -0.26800
C 	C 	0.25000 0.40961 0.09039 0.19500
C 	C 	0.25000 0.43722 0.06278 -0.16100
C 	C 	0.75000 0.33069 0.83069 0.55900
C 	C 	0.75000 0.35899 0.85899 -0.26800
C 	C 	0.75000 0.40961 0.90961 0.19500
C 	C 	0.75000 0.43722 0.93722 -0.16100
C 	C 	0.75000 0.66931 0.16931 0.55900
C 	C 	0.75000 0.64101 0.14101 -0.26800
C 	C 	0.75000 0.59039 0.09039 0.19500
C 	C 	0.75000 0.56278 0.06278 -0.16100
C 	C 	0.83069 0.25000 0.66931 0.55900
C 	C 	0.85899 0.25000 0.64101 -0.26800
C 	C 	0.90961 0.25000 0.59039 0.19500
C 	C 	0.93722 0.25000 0.56278 -0.16100
C 	C 	0.16931 0.25000 0.33069 0.55900
C 	C 	0.14101 0.25000 0.35899 -0.26800
C 	C 	0.09039 0.25000 0.40961 0.19500
C 	C 	0.06278 0.25000 0.43722 -0.16100
C 	C 	0.83069 0.75000 0.33069 0.55900
C 	C 	0.85899 0.75000 0.35899 -0.26800
C 	C 	0.90961 0.75000 0.40961 0.19500
C 	C 	0.93722 0.75000 0.43722 -0.16100
C 	C 	0.16931 0.75000 0.66931 0.55900
C 	C 	0.14101 0.75000 0.64101 -0.26800
C 	C 	0.09039 0.75000 0.59039 0.19500
C 	C 	0.06278 0.75000 0.56278 -0.16100
C 	C 	0.83069 0.66931 0.75000 0.55900
C 	C 	0.85899 0.64101 0.75000 -0.26800
C 	C 	0.90961 0.59039 0.75000 0.19500
C 	C 	0.93722 0.56278 0.75000 -0.16100
C 	C 	0.16931 0.33069 0.75000 0.55900
C 	C 	0.14101 0.35899 0.75000 -0.26800
C 	C 	0.09039 0.40961 0.75000 0.19500
C 	C 	0.06278 0.43722 0.75000 -0.16100
C 	C 	0.83069 0.33069 0.25000 0.55900
C 	C 	0.85899 0.35899 0.25000 -0.26800
C 	C 	0.90961 0.40961 0.25000 0.19500
C 	C 	0.93722 0.43722 0.25000 -0.16100
C 	C 	0.16931 0.66931 0.25000 0.55900
C 	C 	0.14101 0.64101 0.25000 -0.26800
C 	C 	0.09039 0.59039 0.25000 0.19500
C 	C 	0.06278 0.56278 0.25000 -0.16100
C 	C 	0.66931 0.25000 0.16931 0.55900
C 	C 	0.64101 0.25000 0.14101 -0.26800
C 	C 	0.59039 0.25000 0.09039 0.19500
C 	C 	0.56278 0.25000 0.06278 -0.16100
C 	C 	0.33069 0.25000 0.83069 0.55900
C 	C 	0.35899 0.25000 0.85899 -0.26800
C 	C 	0.40961 0.25000 0.90961 0.19500
C 	C 	0.43722 0.25000 0.93722 -0.16100
C 	C 	0.33069 0.75000 0.16931 0.55900
C 	C 	0.35899 0.75000 0.14101 -0.26800
C 	C 	0.40961 0.75000 0.09039 0.19500
C 	C 	0.43722 0.75000 0.06278 -0.16100
C 	C 	0.66931 0.75000 0.83069 0.55900
C 	C 	0.64101 0.75000 0.85899 -0.26800
C 	C 	0.59039 0.75000 0.90961 0.19500
C 	C 	0.56278 0.75000 0.93722 -0.16100
C 	C 	0.25000 0.83069 0.33069 0.55900
C 	C 	0.25000 0.85899 0.35899 -0.26800
C 	C 	0.25000 0.90961 0.40961 0.19500
C 	C 	0.25000 0.93722 0.43722 -0.16100
C 	C 	0.25000 0.16931 0.66931 0.55900
C 	C 	0.25000 0.14101 0.64101 -0.26800
C 	C 	0.25000 0.09039 0.59039 0.19500
C 	C 	0.25000 0.06278 0.56278 -0.16100
C 	C 	0.75000 0.83069 0.66931 0.55900
C 	C 	0.75000 0.85899 0.64101 -0.26800
C 	C 	0.75000 0.90961 0.59039 0.19500
C 	C 	0.75000 0.93722 0.56278 -0.16100
C 	C 	0.75000 0.16931 0.33069 0.55900
C 	C 	0.75000 0.14101 0.35899 -0.26800
C 	C 	0.75000 0.09039 0.40961 0.19500
C 	C 	0.75000 0.06278 0.43722 -0.16100
C 	C 	0.33069 0.16931 0.75000 0.55900
C 	C 	0.35899 0.14101 0.75000 -0.26800
C 	C 	0.40961 0.09039 0.75000 0.19500
C 	C 	0.43722 0.06278 0.75000 -0.16100
C 	C 	0.66931 0.83069 0.75000 0.55900
C 	C 	0.64101 0.85899 0.75000 -0.26800
C 	C 	0.59039 0.90961 0.75000 0.19500
C 	C 	0.56278 0.93722 0.75000 -0.16100
C 	C 	0.66931 0.16931 0.25000 0.55900
C 	C 	0.64101 0.14101 0.25000 -0.26800
C 	C 	0.59039 0.09039 0.25000 0.19500
C 	C 	0.56278 0.06278 0.25000 -0.16100
C 	C 	0.33069 0.83069 0.25000 0.55900
C 	C 	0.35899 0.85899 0.25000 -0.26800
C 	C 	0.40961 0.90961 0.25000 0.19500
C 	C 	0.43722 0.93722 0.25000 -0.16100
C 	C 	0.75000 0.33069 0.16931 0.55900
C 	C 	0.75000 0.35899 0.14101 -0.26800
C 	C 	0.75000 0.40961 0.09039 0.19500
C 	C 	0.75000 0.43722 0.06278 -0.16100
C 	C 	0.75000 0.66931 0.83069 0.55900
C 	C 	0.75000 0.64101 0.85899 -0.26800
C 	C 	0.75000 0.59039 0.90961 0.19500
C 	C 	0.75000 0.56278 0.93722 -0.16100
C 	C 	0.25000 0.66931 0.16931 0.55900
C 	C 	0.25000 0.64101 0.14101 -0.26800
C 	C 	0.25000 0.59039 0.09039 0.19500
C 	C 	0.25000 0.56278 0.06278 -0.16100
C 	C 	0.25000 0.33069 0.83069 0.55900
C 	C 	0.25000 0.35899 0.85899 -0.26800
C 	C 	0.25000 0.40961 0.90961 0.19500
C 	C 	0.25000 0.43722 0.93722 -0.16100
C 	C 	0.16931 0.75000 0.33069 0.55900
C 	C 	0.14101 0.75000 0.35899 -0.26800
C 	C 	0.09039 0.75000 0.40961 0.19500
C 	C 	0.06278 0.75000 0.43722 -0.16100
C 	C 	0.83069 0.75000 0.66931 0.55900
C 	C 	0.85899 0.75000 0.64101 -0.26800
C 	C 	0.90961 0.75000 0.59039 0.19500
C 	C 	0.93722 0.75000 0.56278 -0.16100
C 	C 	0.16931 0.25000 0.66931 0.55900
C 	C 	0.14101 0.25000 0.64101 -0.26800
C 	C 	0.09039 0.25000 0.59039 0.19500
C 	C 	0.06278 0.25000 0.56278 -0.16100
C 	C 	0.83069 0.25000 0.33069 0.55900
C 	C 	0.85899 0.25000 0.35899 -0.26800
C 	C 	0.90961 0.25000 0.40961 0.19500
C 	C 	0.93722 0.25000 0.43722 -0.16100
C 	C 	0.16931 0.33069 0.25000 0.55900
C 	C 	0.14101 0.35899 0.25000 -0.26800
C 	C 	0.09039 0.40961 0.25000 0.19500
C 	C 	0.06278 0.43722 0.25000 -0.16100
C 	C 	0.83069 0.66931 0.25000 0.55900
C 	C 	0.85899 0.64101 0.25000 -0.26800
C 	C 	0.90961 0.59039 0.25000 0.19500
C 	C 	0.93722 0.56278 0.25000 -0.16100
C 	C 	0.16931 0.66931 0.75000 0.55900
C 	C 	0.14101 0.64101 0.75000 -0.26800
C 	C 	0.09039 0.59039 0.75000 0.19500
C 	C 	0.06278 0.56278 0.75000 -0.16100
C 	C 	0.83069 0.33069 0.75000 0.55900
C 	C 	0.85899 0.35899 0.75000 -0.26800
C 	C 	0.90961 0.40961 0.75000 0.19500
C 	C 	0.93722 0.43722 0.75000 -0.16100
C 	C 	0.33069 0.75000 0.83069 0.55900
C 	C 	0.35899 0.75000 0.85899 -0.26800
C 	C 	0.40961 0.75000 0.90961 0.19500
C 	C 	0.43722 0.75000 0.93722 -0.16100
C 	C 	0.66931 0.75000 0.16931 0.55900
C 	C 	0.64101 0.75000 0.14101 -0.26800
C 	C 	0.59039 0.75000 0.09039 0.19500
C 	C 	0.56278 0.75000 0.06278 -0.16100
C 	C 	0.66931 0.25000 0.83069 0.55900
C 	C 	0.64101 0.25000 0.85899 -0.26800
C 	C 	0.59039 0.25000 0.90961 0.19500
C 	C 	0.56278 0.25000 0.93722 -0.16100
C 	C 	0.33069 0.25000 0.16931 0.55900
C 	C 	0.35899 0.25000 0.14101 -0.26800
C 	C 	0.40961 0.25000 0.09039 0.19500
C 	C 	0.43722 0.25000 0.06278 -0.16100
C 	C 	0.75000 0.16931 0.66931 0.55900
C 	C 	0.75000 0.14101 0.64101 -0.26800
C 	C 	0.75000 0.09039 0.59039 0.19500
C 	C 	0.75000 0.06278 0.56278 -0.16100
C 	C 	0.75000 0.83069 0.33069 0.55900
C 	C 	0.75000 0.85899 0.35899 -0.26800
C 	C 	0.75000 0.90961 0.40961 0.19500
C 	C 	0.75000 0.93722 0.43722 -0.16100
C 	C 	0.25000 0.16931 0.33069 0.55900
C 	C 	0.25000 0.14101 0.35899 -0.26800
C 	C 	0.25000 0.09039 0.40961 0.19500
C 	C 	0.25000 0.06278 0.43722 -0.16100
C 	C 	0.25000 0.83069 0.66931 0.55900
C 	C 	0.25000 0.85899 0.64101 -0.26800
C 	C 	0.25000 0.90961 0.59039 0.19500
C 	C 	0.25000 0.93722 0.56278 -0.16100
