data_crystal

_cell_length_a 46.00900
_cell_length_b 9.73330
_cell_length_c 20.71590
_cell_angle_alpha 90.00000
_cell_angle_beta  105.77000
_cell_angle_gamma 90.00000

_symmetry_space_group_name_	'P 1'
_symmetry_space_group_name_H-M	'P 1'

loop_
_symmetry_equiv_pos_as_xyz
  x,y,z

loop_
_atom_site_label
_atom_site_type_symbol
_atom_site_fract_x
_atom_site_fract_y
_atom_site_fract_z
_atom_site_charge
Gd	Gd	0.49661 0.75163 0.48342 1.53400
Cu	Cu	0.21630 0.40674 0.36270 0.75800
Cu	Cu	0.26634 0.33117 0.46705 0.76000
Cu	Cu	0.25300 0.57667 0.33148 0.78200
I 	I 	0.21658 0.42144 0.49133 -0.64000
I 	I 	0.26768 0.32180 0.33751 -0.63900
I 	I 	0.19896 0.65422 0.31126 -0.47300
O 	O 	0.45644 0.65510 0.52980 -0.35400
O 	O 	0.47824 0.84570 0.57730 -0.35700
O 	O 	0.45110 0.88320 0.43680 -0.42100
O 	O 	0.46650 0.09190 0.47220 -0.49500
O 	O 	0.52149 0.59960 0.56510 -0.48000
O 	O 	0.53161 0.38740 0.60280 -0.46300
N 	N 	0.30014 0.46300 0.51050 -0.26100
N 	N 	0.28736 0.70580 0.34480 -0.26000
N 	N 	0.68378 0.22980 0.81860 -0.25800
C 	C 	0.32917 0.42290 0.52930 0.08000
H 	H 	0.33330 0.32940 0.52910 -0.01300
C 	C 	0.35340 0.51300 0.54890 -0.16200
H 	H 	0.37300 0.47890 0.56220 0.08500
C 	C 	0.34850 0.65120 0.54880 0.10300
C 	C 	0.31851 0.69570 0.53080 -0.16900
H 	H 	0.31390 0.78860 0.53150 0.10200
C 	C 	0.29601 0.59930 0.51200 0.08200
H 	H 	0.27620 0.63120 0.49930 -0.04500
C 	C 	0.37363 0.75180 0.56610 -0.02100
C 	C 	0.40178 0.71640 0.55820 -0.02700
H 	H 	0.40420 0.63090 0.54030 0.04800
C 	C 	0.42651 0.80490 0.57630 -0.05800
C 	C 	0.42271 0.93530 0.60160 -0.01600
H 	H 	0.43880 0.99640 0.61340 0.03300
C 	C 	0.39448 0.97250 0.60880 -0.04900
H 	H 	0.39180 0.05890 0.62540 0.04300
C 	C 	0.37049 0.88160 0.59150 -0.03800
H 	H 	0.35190 0.90790 0.59690 0.04800
C 	C 	0.45563 0.76530 0.56120 0.29100
C 	C 	0.31645 0.66580 0.36260 0.09800
H 	H 	0.32080 0.57230 0.36460 -0.01800
C 	C 	0.33988 0.75740 0.37760 -0.18200
H 	H 	0.35960 0.72430 0.38970 0.09700
C 	C 	0.33519 0.89600 0.37540 0.13300
C 	C 	0.30525 0.93800 0.35620 -0.19500
H 	H 	0.30060 0.03110 0.35280 0.10900
C 	C 	0.28263 0.84220 0.34230 0.09300
H 	H 	0.26280 0.87330 0.33030 -0.02800
C 	C 	0.36037 0.99930 0.39570 -0.06400
C 	C 	0.39052 0.96070 0.40960 0.04700
H 	H 	0.39520 0.86910 0.40440 0.02500
C 	C 	0.41347 0.05250 0.43070 -0.16100
C 	C 	0.40691 0.19050 0.43740 0.06700
H 	H 	0.42240 0.25420 0.45160 -0.00400
C 	C 	0.37747 0.23100 0.42280 -0.11000
H 	H 	0.37300 0.32320 0.42700 0.06900
C 	C 	0.35415 0.13820 0.40180 0.01300
H 	H 	0.33420 0.16830 0.39180 0.03800
C 	C 	0.44576 0.00750 0.44730 0.43700
C 	C 	0.65498 0.19120 0.79660 0.10000
H 	H 	0.65060 0.09850 0.79930 -0.01800
C 	C 	0.63126 0.27900 0.77020 -0.18400
H 	H 	0.61170 0.24470 0.75520 0.09400
C 	C 	0.63650 0.41740 0.76590 0.12500
C 	C 	0.66646 0.45960 0.78800 -0.18600
H 	H 	0.67140 0.55160 0.78480 0.11300
C 	C 	0.68886 0.36550 0.81430 0.09600
H 	H 	0.70860 0.39720 0.83000 -0.03700
C 	C 	0.61172 0.51400 0.73770 -0.06500
C 	C 	0.58622 0.47300 0.68850 0.03700
H 	H 	0.58490 0.38260 0.67340 0.02800
C 	C 	0.56284 0.56200 0.66150 -0.15600
C 	C 	0.56455 0.69570 0.68440 0.05600
H 	H 	0.54890 0.75690 0.66640 0.01500
C 	C 	0.58940 0.73860 0.73400 -0.09700
H 	H 	0.59010 0.82790 0.75030 0.06900
C 	C 	0.61322 0.65030 0.75990 0.00400
H 	H 	0.63020 0.68140 0.79200 0.04200
C 	C 	0.53672 0.51390 0.60590 0.45400
Gd	Gd	0.99661 0.25163 0.48342 1.53300
Cu	Cu	0.71630 0.90674 0.36270 0.75700
Cu	Cu	0.76634 0.83117 0.46705 0.75900
Cu	Cu	0.75300 0.07667 0.33148 0.78100
I 	I 	0.71658 0.92144 0.49133 -0.64000
I 	I 	0.76768 0.82180 0.33751 -0.63900
I 	I 	0.69896 0.15422 0.31126 -0.47300
O 	O 	0.95644 0.15510 0.52980 -0.35400
O 	O 	0.97824 0.34570 0.57730 -0.35700
O 	O 	0.95110 0.38320 0.43680 -0.42100
O 	O 	0.96650 0.59190 0.47220 -0.49500
O 	O 	0.02149 0.09960 0.56510 -0.48000
O 	O 	0.03161 0.88740 0.60280 -0.46300
N 	N 	0.80014 0.96300 0.51050 -0.26100
N 	N 	0.78736 0.20580 0.34480 -0.26000
N 	N 	0.18378 0.72980 0.81860 -0.25800
C 	C 	0.82917 0.92290 0.52930 0.07900
H 	H 	0.83330 0.82940 0.52910 -0.01300
C 	C 	0.85340 0.01300 0.54890 -0.16200
H 	H 	0.87300 0.97890 0.56220 0.08500
C 	C 	0.84850 0.15120 0.54880 0.10300
C 	C 	0.81851 0.19570 0.53080 -0.16900
H 	H 	0.81390 0.28860 0.53150 0.10200
C 	C 	0.79601 0.09930 0.51200 0.08200
H 	H 	0.77620 0.13120 0.49930 -0.04500
C 	C 	0.87363 0.25180 0.56610 -0.02100
C 	C 	0.90178 0.21640 0.55820 -0.02700
H 	H 	0.90420 0.13090 0.54030 0.04800
C 	C 	0.92651 0.30490 0.57630 -0.05800
C 	C 	0.92271 0.43530 0.60160 -0.01600
H 	H 	0.93880 0.49640 0.61340 0.03300
C 	C 	0.89448 0.47250 0.60880 -0.04900
H 	H 	0.89180 0.55890 0.62540 0.04300
C 	C 	0.87049 0.38160 0.59150 -0.03800
H 	H 	0.85190 0.40790 0.59690 0.04800
C 	C 	0.95563 0.26530 0.56120 0.29100
C 	C 	0.81645 0.16580 0.36260 0.09800
H 	H 	0.82080 0.07230 0.36460 -0.01800
C 	C 	0.83988 0.25740 0.37760 -0.18200
H 	H 	0.85960 0.22430 0.38970 0.09700
C 	C 	0.83519 0.39600 0.37540 0.13300
C 	C 	0.80525 0.43800 0.35620 -0.19600
H 	H 	0.80060 0.53110 0.35280 0.10900
C 	C 	0.78263 0.34220 0.34230 0.09300
H 	H 	0.76280 0.37330 0.33030 -0.02800
C 	C 	0.86037 0.49930 0.39570 -0.06400
C 	C 	0.89052 0.46070 0.40960 0.04700
H 	H 	0.89520 0.36910 0.40440 0.02500
C 	C 	0.91347 0.55250 0.43070 -0.16100
C 	C 	0.90691 0.69050 0.43740 0.06700
H 	H 	0.92240 0.75420 0.45160 -0.00400
C 	C 	0.87747 0.73100 0.42280 -0.11000
H 	H 	0.87300 0.82320 0.42700 0.06900
C 	C 	0.85415 0.63820 0.40180 0.01400
H 	H 	0.83420 0.66830 0.39180 0.03800
C 	C 	0.94576 0.50750 0.44730 0.43700
C 	C 	0.15498 0.69120 0.79660 0.10000
H 	H 	0.15060 0.59850 0.79930 -0.01800
C 	C 	0.13126 0.77900 0.77020 -0.18400
H 	H 	0.11170 0.74470 0.75520 0.09300
C 	C 	0.13650 0.91740 0.76590 0.12500
C 	C 	0.16646 0.95960 0.78800 -0.18700
H 	H 	0.17140 0.05160 0.78480 0.11300
C 	C 	0.18886 0.86550 0.81430 0.09600
H 	H 	0.20860 0.89720 0.83000 -0.03700
C 	C 	0.11172 0.01400 0.73770 -0.06400
C 	C 	0.08622 0.97300 0.68850 0.03600
H 	H 	0.08490 0.88260 0.67340 0.02800
C 	C 	0.06284 0.06200 0.66150 -0.15500
C 	C 	0.06455 0.19570 0.68440 0.05600
H 	H 	0.04890 0.25690 0.66640 0.01500
C 	C 	0.08940 0.23860 0.73400 -0.09700
H 	H 	0.09010 0.32790 0.75030 0.06900
C 	C 	0.11322 0.15030 0.75990 0.00400
H 	H 	0.13020 0.18140 0.79200 0.04200
C 	C 	0.03672 0.01390 0.60590 0.45400
Gd	Gd	0.50339 0.75163 0.01658 1.53300
Cu	Cu	0.78370 0.40674 0.13730 0.75700
Cu	Cu	0.73366 0.33117 0.03295 0.75900
Cu	Cu	0.74700 0.57667 0.16852 0.78100
I 	I 	0.78342 0.42144 0.00867 -0.64000
I 	I 	0.73232 0.32180 0.16249 -0.63900
I 	I 	0.80104 0.65422 0.18874 -0.47300
O 	O 	0.54356 0.65510 0.97020 -0.35400
O 	O 	0.52176 0.84570 0.92270 -0.35700
O 	O 	0.54890 0.88320 0.06320 -0.42100
O 	O 	0.53350 0.09190 0.02780 -0.49500
O 	O 	0.47851 0.59960 0.93490 -0.48000
O 	O 	0.46839 0.38740 0.89720 -0.46300
N 	N 	0.69986 0.46300 0.98950 -0.26100
N 	N 	0.71264 0.70580 0.15520 -0.26000
N 	N 	0.31622 0.22980 0.68140 -0.25800
C 	C 	0.67083 0.42290 0.97070 0.08000
H 	H 	0.66670 0.32940 0.97090 -0.01300
C 	C 	0.64660 0.51300 0.95110 -0.16200
H 	H 	0.62700 0.47890 0.93780 0.08500
C 	C 	0.65150 0.65120 0.95120 0.10300
C 	C 	0.68149 0.69570 0.96920 -0.16900
H 	H 	0.68610 0.78860 0.96850 0.10200
C 	C 	0.70399 0.59930 0.98800 0.08200
H 	H 	0.72380 0.63120 0.00070 -0.04500
C 	C 	0.62637 0.75180 0.93390 -0.02100
C 	C 	0.59822 0.71640 0.94180 -0.02700
H 	H 	0.59580 0.63090 0.95970 0.04800
C 	C 	0.57349 0.80490 0.92370 -0.05800
C 	C 	0.57729 0.93530 0.89840 -0.01500
H 	H 	0.56120 0.99640 0.88660 0.03300
C 	C 	0.60552 0.97250 0.89120 -0.04900
H 	H 	0.60820 0.05890 0.87460 0.04300
C 	C 	0.62951 0.88160 0.90850 -0.03700
H 	H 	0.64810 0.90790 0.90310 0.04800
C 	C 	0.54437 0.76530 0.93880 0.29100
C 	C 	0.68355 0.66580 0.13740 0.09800
H 	H 	0.67920 0.57230 0.13540 -0.01800
C 	C 	0.66012 0.75740 0.12240 -0.18200
H 	H 	0.64040 0.72430 0.11030 0.09700
C 	C 	0.66481 0.89600 0.12460 0.13300
C 	C 	0.69475 0.93800 0.14380 -0.19500
H 	H 	0.69940 0.03110 0.14720 0.10900
C 	C 	0.71737 0.84220 0.15770 0.09300
H 	H 	0.73720 0.87330 0.16970 -0.02800
C 	C 	0.63963 0.99930 0.10430 -0.06400
C 	C 	0.60948 0.96070 0.09040 0.04700
H 	H 	0.60480 0.86910 0.09560 0.02500
C 	C 	0.58653 0.05250 0.06930 -0.16100
C 	C 	0.59309 0.19050 0.06260 0.06700
H 	H 	0.57760 0.25420 0.04840 -0.00400
C 	C 	0.62253 0.23100 0.07720 -0.11000
H 	H 	0.62700 0.32320 0.07300 0.06900
C 	C 	0.64585 0.13820 0.09820 0.01300
H 	H 	0.66580 0.16830 0.10820 0.03800
C 	C 	0.55424 0.00750 0.05270 0.43700
C 	C 	0.34502 0.19120 0.70340 0.10000
H 	H 	0.34940 0.09850 0.70070 -0.01800
C 	C 	0.36874 0.27900 0.72980 -0.18400
H 	H 	0.38830 0.24470 0.74480 0.09300
C 	C 	0.36350 0.41740 0.73410 0.12500
C 	C 	0.33354 0.45960 0.71200 -0.18600
H 	H 	0.32860 0.55160 0.71520 0.11300
C 	C 	0.31114 0.36550 0.68570 0.09600
H 	H 	0.29140 0.39720 0.67000 -0.03700
C 	C 	0.38828 0.51400 0.76230 -0.06500
C 	C 	0.41378 0.47300 0.81150 0.03700
H 	H 	0.41510 0.38260 0.82660 0.02800
C 	C 	0.43716 0.56200 0.83850 -0.15600
C 	C 	0.43545 0.69570 0.81560 0.05600
H 	H 	0.45110 0.75690 0.83360 0.01500
C 	C 	0.41060 0.73860 0.76600 -0.09700
H 	H 	0.40990 0.82790 0.74970 0.06900
C 	C 	0.38678 0.65030 0.74010 0.00400
H 	H 	0.36980 0.68140 0.70800 0.04200
C 	C 	0.46328 0.51390 0.89410 0.45400
Gd	Gd	0.00339 0.25163 0.01658 1.53200
Cu	Cu	0.28370 0.90674 0.13730 0.75700
Cu	Cu	0.23366 0.83117 0.03295 0.75900
Cu	Cu	0.24700 0.07667 0.16852 0.78100
I 	I 	0.28342 0.92144 0.00867 -0.64000
I 	I 	0.23232 0.82180 0.16249 -0.63800
I 	I 	0.30104 0.15422 0.18874 -0.47300
O 	O 	0.04356 0.15510 0.97020 -0.35400
O 	O 	0.02176 0.34570 0.92270 -0.35700
O 	O 	0.04890 0.38320 0.06320 -0.42100
O 	O 	0.03350 0.59190 0.02780 -0.49400
O 	O 	0.97851 0.09960 0.93490 -0.48000
O 	O 	0.96839 0.88740 0.89720 -0.46300
N 	N 	0.19986 0.96300 0.98950 -0.26100
N 	N 	0.21264 0.20580 0.15520 -0.26000
N 	N 	0.81622 0.72980 0.68140 -0.25800
C 	C 	0.17083 0.92290 0.97070 0.07900
H 	H 	0.16670 0.82940 0.97090 -0.01300
C 	C 	0.14660 0.01300 0.95110 -0.16100
H 	H 	0.12700 0.97890 0.93780 0.08500
C 	C 	0.15150 0.15120 0.95120 0.10200
C 	C 	0.18149 0.19570 0.96920 -0.16900
H 	H 	0.18610 0.28860 0.96850 0.10200
C 	C 	0.20399 0.09930 0.98800 0.08300
H 	H 	0.22380 0.13120 0.00070 -0.04500
C 	C 	0.12637 0.25180 0.93390 -0.02100
C 	C 	0.09822 0.21640 0.94180 -0.02800
H 	H 	0.09580 0.13090 0.95970 0.04800
C 	C 	0.07349 0.30490 0.92370 -0.05800
C 	C 	0.07729 0.43530 0.89840 -0.01600
H 	H 	0.06120 0.49640 0.88660 0.03300
C 	C 	0.10552 0.47250 0.89120 -0.04900
H 	H 	0.10820 0.55890 0.87460 0.04300
C 	C 	0.12951 0.38160 0.90850 -0.03800
H 	H 	0.14810 0.40790 0.90310 0.04800
C 	C 	0.04437 0.26530 0.93880 0.29100
C 	C 	0.18355 0.16580 0.13740 0.09800
H 	H 	0.17920 0.07230 0.13540 -0.01800
C 	C 	0.16012 0.25740 0.12240 -0.18200
H 	H 	0.14040 0.22430 0.11030 0.09700
C 	C 	0.16481 0.39600 0.12460 0.13300
C 	C 	0.19475 0.43800 0.14380 -0.19600
H 	H 	0.19940 0.53110 0.14720 0.10900
C 	C 	0.21737 0.34220 0.15770 0.09300
H 	H 	0.23720 0.37330 0.16970 -0.02800
C 	C 	0.13963 0.49930 0.10430 -0.06400
C 	C 	0.10948 0.46070 0.09040 0.04700
H 	H 	0.10480 0.36910 0.09560 0.02500
C 	C 	0.08653 0.55250 0.06930 -0.16100
C 	C 	0.09309 0.69050 0.06260 0.06700
H 	H 	0.07760 0.75420 0.04840 -0.00400
C 	C 	0.12253 0.73100 0.07720 -0.11000
H 	H 	0.12700 0.82320 0.07300 0.06900
C 	C 	0.14585 0.63820 0.09820 0.01400
H 	H 	0.16580 0.66830 0.10820 0.03800
C 	C 	0.05424 0.50750 0.05270 0.43700
C 	C 	0.84502 0.69120 0.70340 0.10000
H 	H 	0.84940 0.59850 0.70070 -0.01800
C 	C 	0.86874 0.77900 0.72980 -0.18400
H 	H 	0.88830 0.74470 0.74480 0.09300
C 	C 	0.86350 0.91740 0.73410 0.12500
C 	C 	0.83354 0.95960 0.71200 -0.18700
H 	H 	0.82860 0.05160 0.71520 0.11300
C 	C 	0.81114 0.86550 0.68570 0.09600
H 	H 	0.79140 0.89720 0.67000 -0.03700
C 	C 	0.88828 0.01400 0.76230 -0.06400
C 	C 	0.91378 0.97300 0.81150 0.03600
H 	H 	0.91510 0.88260 0.82660 0.02800
C 	C 	0.93716 0.06200 0.83850 -0.15500
C 	C 	0.93545 0.19570 0.81560 0.05500
H 	H 	0.95110 0.25690 0.83360 0.01600
C 	C 	0.91060 0.23860 0.76600 -0.09700
H 	H 	0.90990 0.32790 0.74970 0.06900
C 	C 	0.88678 0.15030 0.74010 0.00400
H 	H 	0.86980 0.18140 0.70800 0.04200
C 	C 	0.96328 0.01390 0.89410 0.45400
Gd	Gd	0.50339 0.24837 0.51658 1.53300
Cu	Cu	0.78370 0.59326 0.63730 0.75700
Cu	Cu	0.73366 0.66883 0.53295 0.75900
Cu	Cu	0.74700 0.42333 0.66852 0.78100
I 	I 	0.78342 0.57856 0.50867 -0.64000
I 	I 	0.73232 0.67820 0.66249 -0.63900
I 	I 	0.80104 0.34578 0.68874 -0.47300
O 	O 	0.54356 0.34490 0.47020 -0.35400
O 	O 	0.52176 0.15430 0.42270 -0.35700
O 	O 	0.54890 0.11680 0.56320 -0.42100
O 	O 	0.53350 0.90810 0.52780 -0.49500
O 	O 	0.47851 0.40040 0.43490 -0.48000
O 	O 	0.46839 0.61260 0.39720 -0.46300
N 	N 	0.69986 0.53700 0.48950 -0.26100
N 	N 	0.71264 0.29420 0.65520 -0.26000
N 	N 	0.31622 0.77020 0.18140 -0.25800
C 	C 	0.67083 0.57710 0.47070 0.08000
H 	H 	0.66670 0.67060 0.47090 -0.01300
C 	C 	0.64660 0.48700 0.45110 -0.16200
H 	H 	0.62700 0.52110 0.43780 0.08500
C 	C 	0.65150 0.34880 0.45120 0.10300
C 	C 	0.68149 0.30430 0.46920 -0.16900
H 	H 	0.68610 0.21140 0.46850 0.10200
C 	C 	0.70399 0.40070 0.48800 0.08200
H 	H 	0.72380 0.36880 0.50070 -0.04500
C 	C 	0.62637 0.24820 0.43390 -0.02100
C 	C 	0.59822 0.28360 0.44180 -0.02700
H 	H 	0.59580 0.36910 0.45970 0.04800
C 	C 	0.57349 0.19510 0.42370 -0.05800
C 	C 	0.57729 0.06470 0.39840 -0.01600
H 	H 	0.56120 0.00360 0.38660 0.03300
C 	C 	0.60552 0.02750 0.39120 -0.04900
H 	H 	0.60820 0.94110 0.37460 0.04300
C 	C 	0.62951 0.11840 0.40850 -0.03800
H 	H 	0.64810 0.09210 0.40310 0.04800
C 	C 	0.54437 0.23470 0.43880 0.29100
C 	C 	0.68355 0.33420 0.63740 0.09800
H 	H 	0.67920 0.42770 0.63540 -0.01800
C 	C 	0.66012 0.24260 0.62240 -0.18200
H 	H 	0.64040 0.27570 0.61030 0.09700
C 	C 	0.66481 0.10400 0.62460 0.13300
C 	C 	0.69475 0.06200 0.64380 -0.19500
H 	H 	0.69940 0.96890 0.64720 0.10900
C 	C 	0.71737 0.15780 0.65770 0.09300
H 	H 	0.73720 0.12670 0.66970 -0.02800
C 	C 	0.63963 0.00070 0.60430 -0.06400
C 	C 	0.60948 0.03930 0.59040 0.04700
H 	H 	0.60480 0.13090 0.59560 0.02500
C 	C 	0.58653 0.94750 0.56930 -0.16100
C 	C 	0.59309 0.80950 0.56260 0.06700
H 	H 	0.57760 0.74580 0.54840 -0.00400
C 	C 	0.62253 0.76900 0.57720 -0.11000
H 	H 	0.62700 0.67680 0.57300 0.06900
C 	C 	0.64585 0.86180 0.59820 0.01300
H 	H 	0.66580 0.83170 0.60820 0.03800
C 	C 	0.55424 0.99250 0.55270 0.43700
C 	C 	0.34502 0.80880 0.20340 0.10000
H 	H 	0.34940 0.90150 0.20070 -0.01800
C 	C 	0.36874 0.72100 0.22980 -0.18400
H 	H 	0.38830 0.75530 0.24480 0.09400
C 	C 	0.36350 0.58260 0.23410 0.12500
C 	C 	0.33354 0.54040 0.21200 -0.18600
H 	H 	0.32860 0.44840 0.21520 0.11300
C 	C 	0.31114 0.63450 0.18570 0.09600
H 	H 	0.29140 0.60280 0.17000 -0.03700
C 	C 	0.38828 0.48600 0.26230 -0.06500
C 	C 	0.41378 0.52700 0.31150 0.03700
H 	H 	0.41510 0.61740 0.32660 0.02800
C 	C 	0.43716 0.43800 0.33850 -0.15600
C 	C 	0.43545 0.30430 0.31560 0.05600
H 	H 	0.45110 0.24310 0.33360 0.01500
C 	C 	0.41060 0.26140 0.26600 -0.09700
H 	H 	0.40990 0.17210 0.24970 0.06900
C 	C 	0.38678 0.34970 0.24010 0.00400
H 	H 	0.36980 0.31860 0.20800 0.04200
C 	C 	0.46328 0.48610 0.39410 0.45400
Gd	Gd	0.00339 0.74837 0.51658 1.53300
Cu	Cu	0.28370 0.09326 0.63730 0.75700
Cu	Cu	0.23366 0.16883 0.53295 0.75900
Cu	Cu	0.24700 0.92333 0.66852 0.78100
I 	I 	0.28342 0.07856 0.50867 -0.64000
I 	I 	0.23232 0.17820 0.66249 -0.63900
I 	I 	0.30104 0.84578 0.68874 -0.47300
O 	O 	0.04356 0.84490 0.47020 -0.35400
O 	O 	0.02176 0.65430 0.42270 -0.35700
O 	O 	0.04890 0.61680 0.56320 -0.42100
O 	O 	0.03350 0.40810 0.52780 -0.49500
O 	O 	0.97851 0.90040 0.43490 -0.48000
O 	O 	0.96839 0.11260 0.39720 -0.46300
N 	N 	0.19986 0.03700 0.48950 -0.26100
N 	N 	0.21264 0.79420 0.65520 -0.26000
N 	N 	0.81622 0.27020 0.18140 -0.25800
C 	C 	0.17083 0.07710 0.47070 0.07900
H 	H 	0.16670 0.17060 0.47090 -0.01300
C 	C 	0.14660 0.98700 0.45110 -0.16200
H 	H 	0.12700 0.02110 0.43780 0.08500
C 	C 	0.15150 0.84880 0.45120 0.10300
C 	C 	0.18149 0.80430 0.46920 -0.16900
H 	H 	0.18610 0.71140 0.46850 0.10200
C 	C 	0.20399 0.90070 0.48800 0.08200
H 	H 	0.22380 0.86880 0.50070 -0.04500
C 	C 	0.12637 0.74820 0.43390 -0.02100
C 	C 	0.09822 0.78360 0.44180 -0.02700
H 	H 	0.09580 0.86910 0.45970 0.04800
C 	C 	0.07349 0.69510 0.42370 -0.05800
C 	C 	0.07729 0.56470 0.39840 -0.01600
H 	H 	0.06120 0.50360 0.38660 0.03300
C 	C 	0.10552 0.52750 0.39120 -0.04900
H 	H 	0.10820 0.44110 0.37460 0.04300
C 	C 	0.12951 0.61840 0.40850 -0.03800
H 	H 	0.14810 0.59210 0.40310 0.04800
C 	C 	0.04437 0.73470 0.43880 0.29100
C 	C 	0.18355 0.83420 0.63740 0.09800
H 	H 	0.17920 0.92770 0.63540 -0.01800
C 	C 	0.16012 0.74260 0.62240 -0.18200
H 	H 	0.14040 0.77570 0.61030 0.09700
C 	C 	0.16481 0.60400 0.62460 0.13300
C 	C 	0.19475 0.56200 0.64380 -0.19600
H 	H 	0.19940 0.46890 0.64720 0.10900
C 	C 	0.21737 0.65780 0.65770 0.09300
H 	H 	0.23720 0.62670 0.66970 -0.02800
C 	C 	0.13963 0.50070 0.60430 -0.06400
C 	C 	0.10948 0.53930 0.59040 0.04700
H 	H 	0.10480 0.63090 0.59560 0.02500
C 	C 	0.08653 0.44750 0.56930 -0.16100
C 	C 	0.09309 0.30950 0.56260 0.06700
H 	H 	0.07760 0.24580 0.54840 -0.00400
C 	C 	0.12253 0.26900 0.57720 -0.11000
H 	H 	0.12700 0.17680 0.57300 0.06900
C 	C 	0.14585 0.36180 0.59820 0.01400
H 	H 	0.16580 0.33170 0.60820 0.03800
C 	C 	0.05424 0.49250 0.55270 0.43700
C 	C 	0.84502 0.30880 0.20340 0.10000
H 	H 	0.84940 0.40150 0.20070 -0.01800
C 	C 	0.86874 0.22100 0.22980 -0.18400
H 	H 	0.88830 0.25530 0.24480 0.09300
C 	C 	0.86350 0.08260 0.23410 0.12500
C 	C 	0.83354 0.04040 0.21200 -0.18700
H 	H 	0.82860 0.94840 0.21520 0.11300
C 	C 	0.81114 0.13450 0.18570 0.09600
H 	H 	0.79140 0.10280 0.17000 -0.03700
C 	C 	0.88828 0.98600 0.26230 -0.06400
C 	C 	0.91378 0.02700 0.31150 0.03600
H 	H 	0.91510 0.11740 0.32660 0.02800
C 	C 	0.93716 0.93800 0.33850 -0.15500
C 	C 	0.93545 0.80430 0.31560 0.05600
H 	H 	0.95110 0.74310 0.33360 0.01500
C 	C 	0.91060 0.76140 0.26600 -0.09700
H 	H 	0.90990 0.67210 0.24970 0.06900
C 	C 	0.88678 0.84970 0.24010 0.00400
H 	H 	0.86980 0.81860 0.20800 0.04200
C 	C 	0.96328 0.98610 0.39410 0.45400
Gd	Gd	0.49661 0.24837 0.98342 1.53300
Cu	Cu	0.21630 0.59326 0.86270 0.75700
Cu	Cu	0.26634 0.66883 0.96705 0.75900
Cu	Cu	0.25300 0.42333 0.83148 0.78100
I 	I 	0.21658 0.57856 0.99133 -0.64000
I 	I 	0.26768 0.67820 0.83751 -0.63900
I 	I 	0.19896 0.34578 0.81126 -0.47300
O 	O 	0.45644 0.34490 0.02980 -0.35400
O 	O 	0.47824 0.15430 0.07730 -0.35700
O 	O 	0.45110 0.11680 0.93680 -0.42100
O 	O 	0.46650 0.90810 0.97220 -0.49500
O 	O 	0.52149 0.40040 0.06510 -0.48000
O 	O 	0.53161 0.61260 0.10280 -0.46300
N 	N 	0.30014 0.53700 0.01050 -0.26100
N 	N 	0.28736 0.29420 0.84480 -0.26000
N 	N 	0.68378 0.77020 0.31860 -0.25800
C 	C 	0.32917 0.57710 0.02930 0.08000
H 	H 	0.33330 0.67060 0.02910 -0.01300
C 	C 	0.35340 0.48700 0.04890 -0.16200
H 	H 	0.37300 0.52110 0.06220 0.08500
C 	C 	0.34850 0.34880 0.04880 0.10300
C 	C 	0.31851 0.30430 0.03080 -0.16900
H 	H 	0.31390 0.21140 0.03150 0.10200
C 	C 	0.29601 0.40070 0.01200 0.08200
H 	H 	0.27620 0.36880 0.99930 -0.04500
C 	C 	0.37363 0.24820 0.06610 -0.02100
C 	C 	0.40178 0.28360 0.05820 -0.02700
H 	H 	0.40420 0.36910 0.04030 0.04800
C 	C 	0.42651 0.19510 0.07630 -0.05800
C 	C 	0.42271 0.06470 0.10160 -0.01500
H 	H 	0.43880 0.00360 0.11340 0.03300
C 	C 	0.39448 0.02750 0.10880 -0.04900
H 	H 	0.39180 0.94110 0.12540 0.04300
C 	C 	0.37049 0.11840 0.09150 -0.03700
H 	H 	0.35190 0.09210 0.09690 0.04800
C 	C 	0.45563 0.23470 0.06120 0.29100
C 	C 	0.31645 0.33420 0.86260 0.09800
H 	H 	0.32080 0.42770 0.86460 -0.01800
C 	C 	0.33988 0.24260 0.87760 -0.18200
H 	H 	0.35960 0.27570 0.88970 0.09700
C 	C 	0.33519 0.10400 0.87540 0.13300
C 	C 	0.30525 0.06200 0.85620 -0.19500
H 	H 	0.30060 0.96890 0.85280 0.10900
C 	C 	0.28263 0.15780 0.84230 0.09300
H 	H 	0.26280 0.12670 0.83030 -0.02800
C 	C 	0.36037 0.00070 0.89570 -0.06400
C 	C 	0.39052 0.03930 0.90960 0.04700
H 	H 	0.39520 0.13090 0.90440 0.02500
C 	C 	0.41347 0.94750 0.93070 -0.16100
C 	C 	0.40691 0.80950 0.93740 0.06700
H 	H 	0.42240 0.74580 0.95160 -0.00400
C 	C 	0.37747 0.76900 0.92280 -0.11000
H 	H 	0.37300 0.67680 0.92700 0.06900
C 	C 	0.35415 0.86180 0.90180 0.01300
H 	H 	0.33420 0.83170 0.89180 0.03800
C 	C 	0.44576 0.99250 0.94730 0.43700
C 	C 	0.65498 0.80880 0.29660 0.10000
H 	H 	0.65060 0.90150 0.29930 -0.01800
C 	C 	0.63126 0.72100 0.27020 -0.18400
H 	H 	0.61170 0.75530 0.25520 0.09300
C 	C 	0.63650 0.58260 0.26590 0.12500
C 	C 	0.66646 0.54040 0.28800 -0.18600
H 	H 	0.67140 0.44840 0.28480 0.11300
C 	C 	0.68886 0.63450 0.31430 0.09600
H 	H 	0.70860 0.60280 0.33000 -0.03700
C 	C 	0.61172 0.48600 0.23770 -0.06500
C 	C 	0.58622 0.52700 0.18850 0.03700
H 	H 	0.58490 0.61740 0.17340 0.02800
C 	C 	0.56284 0.43800 0.16150 -0.15600
C 	C 	0.56455 0.30430 0.18440 0.05600
H 	H 	0.54890 0.24310 0.16640 0.01500
C 	C 	0.58940 0.26140 0.23400 -0.09700
H 	H 	0.59010 0.17210 0.25030 0.06900
C 	C 	0.61322 0.34970 0.25990 0.00400
H 	H 	0.63020 0.31860 0.29200 0.04200
C 	C 	0.53672 0.48610 0.10590 0.45400
Gd	Gd	0.99661 0.74837 0.98342 1.53200
Cu	Cu	0.71630 0.09326 0.86270 0.75700
Cu	Cu	0.76634 0.16883 0.96705 0.75900
Cu	Cu	0.75300 0.92333 0.83148 0.78100
I 	I 	0.71658 0.07856 0.99133 -0.64000
I 	I 	0.76768 0.17820 0.83751 -0.63800
I 	I 	0.69896 0.84578 0.81126 -0.47300
O 	O 	0.95644 0.84490 0.02980 -0.35400
O 	O 	0.97824 0.65430 0.07730 -0.35700
O 	O 	0.95110 0.61680 0.93680 -0.42100
O 	O 	0.96650 0.40810 0.97220 -0.49400
O 	O 	0.02149 0.90040 0.06510 -0.48000
O 	O 	0.03161 0.11260 0.10280 -0.46300
N 	N 	0.80014 0.03700 0.01050 -0.26100
N 	N 	0.78736 0.79420 0.84480 -0.26000
N 	N 	0.18378 0.27020 0.31860 -0.25800
C 	C 	0.82917 0.07710 0.02930 0.07900
H 	H 	0.83330 0.17060 0.02910 -0.01300
C 	C 	0.85340 0.98700 0.04890 -0.16100
H 	H 	0.87300 0.02110 0.06220 0.08500
C 	C 	0.84850 0.84880 0.04880 0.10200
C 	C 	0.81851 0.80430 0.03080 -0.16900
H 	H 	0.81390 0.71140 0.03150 0.10200
C 	C 	0.79601 0.90070 0.01200 0.08300
H 	H 	0.77620 0.86880 0.99930 -0.04500
C 	C 	0.87363 0.74820 0.06610 -0.02100
C 	C 	0.90178 0.78360 0.05820 -0.02800
H 	H 	0.90420 0.86910 0.04030 0.04800
C 	C 	0.92651 0.69510 0.07630 -0.05800
C 	C 	0.92271 0.56470 0.10160 -0.01600
H 	H 	0.93880 0.50360 0.11340 0.03300
C 	C 	0.89448 0.52750 0.10880 -0.04900
H 	H 	0.89180 0.44110 0.12540 0.04300
C 	C 	0.87049 0.61840 0.09150 -0.03800
H 	H 	0.85190 0.59210 0.09690 0.04800
C 	C 	0.95563 0.73470 0.06120 0.29100
C 	C 	0.81645 0.83420 0.86260 0.09800
H 	H 	0.82080 0.92770 0.86460 -0.01800
C 	C 	0.83988 0.74260 0.87760 -0.18200
H 	H 	0.85960 0.77570 0.88970 0.09700
C 	C 	0.83519 0.60400 0.87540 0.13300
C 	C 	0.80525 0.56200 0.85620 -0.19600
H 	H 	0.80060 0.46890 0.85280 0.10900
C 	C 	0.78263 0.65780 0.84230 0.09300
H 	H 	0.76280 0.62670 0.83030 -0.02800
C 	C 	0.86037 0.50070 0.89570 -0.06400
C 	C 	0.89052 0.53930 0.90960 0.04700
H 	H 	0.89520 0.63090 0.90440 0.02500
C 	C 	0.91347 0.44750 0.93070 -0.16100
C 	C 	0.90691 0.30950 0.93740 0.06700
H 	H 	0.92240 0.24580 0.95160 -0.00400
C 	C 	0.87747 0.26900 0.92280 -0.11000
H 	H 	0.87300 0.17680 0.92700 0.06900
C 	C 	0.85415 0.36180 0.90180 0.01400
H 	H 	0.83420 0.33170 0.89180 0.03800
C 	C 	0.94576 0.49250 0.94730 0.43700
C 	C 	0.15498 0.30880 0.29660 0.10000
H 	H 	0.15060 0.40150 0.29930 -0.01800
C 	C 	0.13126 0.22100 0.27020 -0.18400
H 	H 	0.11170 0.25530 0.25520 0.09300
C 	C 	0.13650 0.08260 0.26590 0.12500
C 	C 	0.16646 0.04040 0.28800 -0.18700
H 	H 	0.17140 0.94840 0.28480 0.11300
C 	C 	0.18886 0.13450 0.31430 0.09600
H 	H 	0.20860 0.10280 0.33000 -0.03700
C 	C 	0.11172 0.98600 0.23770 -0.06400
C 	C 	0.08622 0.02700 0.18850 0.03600
H 	H 	0.08490 0.11740 0.17340 0.02800
C 	C 	0.06284 0.93800 0.16150 -0.15500
C 	C 	0.06455 0.80430 0.18440 0.05500
H 	H 	0.04890 0.74310 0.16640 0.01600
C 	C 	0.08940 0.76140 0.23400 -0.09700
H 	H 	0.09010 0.67210 0.25030 0.06900
C 	C 	0.11322 0.84970 0.25990 0.00400
H 	H 	0.13020 0.81860 0.29200 0.04200
C 	C 	0.03672 0.98610 0.10590 0.45400
