data_crystal

_cell_length_a 17.21900
_cell_length_b 23.08470
_cell_length_c 23.08470
_cell_angle_alpha 60.54050
_cell_angle_beta  68.10210
_cell_angle_gamma 68.10220

_symmetry_space_group_name_	'P 1'
_symmetry_space_group_name_H-M	'P 1'

loop_
_symmetry_equiv_pos_as_xyz
  x,y,z

loop_
_atom_site_label
_atom_site_type_symbol
_atom_site_fract_x
_atom_site_fract_y
_atom_site_fract_z
_atom_site_charge
Zn	Zn	0.97175 0.47000 0.97000 1.19500
Zn	Zn	0.41175 0.03000 0.53000 1.19600
Zn	Zn	0.02825 0.53000 0.03000 1.19600
Zn	Zn	0.58825 0.97000 0.47000 1.19700
H 	H 	0.24480 0.57730 0.66770 0.11800
H 	H 	0.23070 0.60960 0.85260 -0.01600
H 	H 	0.14830 0.53340 0.76960 -0.01300
H 	H 	0.33340 0.64310 0.75470 0.12300
H 	H 	0.38280 0.67450 0.51130 0.09000
H 	H 	0.45370 0.61230 0.44430 0.02500
H 	H 	0.48980 0.92270 0.83230 0.11900
H 	H 	0.69290 0.89040 0.64740 -0.01700
H 	H 	0.45130 0.96660 0.73040 -0.01300
H 	H 	0.73120 0.85690 0.74530 0.12300
H 	H 	0.56860 0.82550 0.98870 0.08900
H 	H 	0.51030 0.88770 0.05570 0.02600
H 	H 	0.75520 0.83230 0.92270 0.11800
H 	H 	0.76930 0.64740 0.89040 -0.01700
H 	H 	0.85170 0.73040 0.96660 -0.01400
H 	H 	0.66660 0.74530 0.85690 0.12300
H 	H 	0.61720 0.98870 0.82550 0.08800
H 	H 	0.54630 0.05570 0.88770 0.02700
H 	H 	0.51020 0.66770 0.57730 0.11800
H 	H 	0.30710 0.85260 0.60960 -0.01700
H 	H 	0.54870 0.76960 0.53340 -0.01400
H 	H 	0.26880 0.75470 0.64310 0.12300
H 	H 	0.43140 0.51130 0.67450 0.09000
H 	H 	0.48970 0.44430 0.61230 0.02500
H 	H 	0.75520 0.42270 0.33230 0.11800
H 	H 	0.76930 0.39040 0.14740 -0.01600
H 	H 	0.85170 0.46660 0.23040 -0.01300
H 	H 	0.66660 0.35690 0.24530 0.12300
H 	H 	0.61720 0.32550 0.48870 0.09000
H 	H 	0.54630 0.38770 0.55570 0.02500
H 	H 	0.51020 0.07730 0.16770 0.11900
H 	H 	0.30710 0.10960 0.35260 -0.01700
H 	H 	0.54870 0.03340 0.26960 -0.01300
H 	H 	0.26880 0.14310 0.25470 0.12300
H 	H 	0.43140 0.17450 0.01130 0.08900
H 	H 	0.48970 0.11230 0.94430 0.02600
H 	H 	0.24480 0.16770 0.07730 0.11800
H 	H 	0.23070 0.35260 0.10960 -0.01700
H 	H 	0.14830 0.26960 0.03340 -0.01400
H 	H 	0.33340 0.25470 0.14310 0.12300
H 	H 	0.38280 0.01130 0.17450 0.08800
H 	H 	0.45370 0.94430 0.11230 0.02700
H 	H 	0.48980 0.33230 0.42270 0.11800
H 	H 	0.69290 0.14740 0.39040 -0.01700
H 	H 	0.45130 0.23040 0.46660 -0.01400
H 	H 	0.73120 0.24530 0.35690 0.12300
H 	H 	0.56860 0.48870 0.32550 0.09000
H 	H 	0.51030 0.55570 0.38770 0.02500
C 	C 	0.11193 0.54329 0.88725 0.44700
C 	C 	0.24293 0.58283 0.70551 -0.24800
C 	C 	0.29954 0.61563 0.70009 0.21400
C 	C 	0.23376 0.60209 0.81559 0.16300
C 	C 	0.17629 0.56948 0.82094 -0.21400
C 	C 	0.18338 0.55792 0.76612 0.15400
C 	C 	0.29422 0.62297 0.75659 -0.26200
C 	C 	0.40671 0.62790 0.53188 -0.16500
C 	C 	0.44789 0.59004 0.49138 0.00700
C 	C 	0.54247 0.95671 0.61275 0.44700
C 	C 	0.53127 0.91717 0.79449 -0.24800
C 	C 	0.61526 0.88437 0.79991 0.21400
C 	C 	0.65144 0.89791 0.68441 0.16300
C 	C 	0.56671 0.93052 0.67906 -0.21500
C 	C 	0.50742 0.94208 0.73388 0.15500
C 	C 	0.67378 0.87703 0.74341 -0.26200
C 	C 	0.56649 0.87210 0.96812 -0.16000
C 	C 	0.52931 0.90996 0.00862 0.00300
C 	C 	0.88807 0.61275 0.95671 0.44700
C 	C 	0.75707 0.79449 0.91717 -0.24800
C 	C 	0.70046 0.79991 0.88437 0.21400
C 	C 	0.76624 0.68441 0.89791 0.16300
C 	C 	0.82371 0.67906 0.93052 -0.21500
C 	C 	0.81662 0.73388 0.94208 0.15500
C 	C 	0.70578 0.74341 0.87703 -0.26300
C 	C 	0.59329 0.96812 0.87210 -0.16000
C 	C 	0.55211 0.00862 0.90996 0.00200
C 	C 	0.45753 0.88725 0.54329 0.44700
C 	C 	0.46873 0.70551 0.58283 -0.24800
C 	C 	0.38474 0.70009 0.61563 0.21400
C 	C 	0.34856 0.81559 0.60209 0.16300
C 	C 	0.43329 0.82094 0.56948 -0.21500
C 	C 	0.49258 0.76612 0.55792 0.15500
C 	C 	0.32622 0.75659 0.62297 -0.26200
C 	C 	0.43351 0.53188 0.62790 -0.16500
C 	C 	0.47069 0.49138 0.59004 0.00700
C 	C 	0.88807 0.45671 0.11275 0.44700
C 	C 	0.75707 0.41717 0.29449 -0.24800
C 	C 	0.70046 0.38437 0.29991 0.21400
C 	C 	0.76624 0.39791 0.18441 0.16300
C 	C 	0.82371 0.43052 0.17906 -0.21400
C 	C 	0.81662 0.44208 0.23388 0.15400
C 	C 	0.70578 0.37703 0.24341 -0.26200
C 	C 	0.59329 0.37210 0.46812 -0.16500
C 	C 	0.55211 0.40996 0.50862 0.00700
C 	C 	0.45753 0.04329 0.38725 0.44700
C 	C 	0.46873 0.08283 0.20551 -0.24800
C 	C 	0.38474 0.11563 0.20009 0.21400
C 	C 	0.34856 0.10209 0.31559 0.16300
C 	C 	0.43329 0.06948 0.32094 -0.21500
C 	C 	0.49258 0.05792 0.26612 0.15500
C 	C 	0.32622 0.12297 0.25659 -0.26200
C 	C 	0.43351 0.12790 0.03188 -0.16000
C 	C 	0.47069 0.09004 0.99138 0.00300
C 	C 	0.11193 0.38725 0.04329 0.44700
C 	C 	0.24293 0.20551 0.08283 -0.24800
C 	C 	0.29954 0.20009 0.11563 0.21400
C 	C 	0.23376 0.31559 0.10209 0.16300
C 	C 	0.17629 0.32094 0.06948 -0.21500
C 	C 	0.18338 0.26612 0.05792 0.15500
C 	C 	0.29422 0.25659 0.12297 -0.26300
C 	C 	0.40671 0.03188 0.12790 -0.16000
C 	C 	0.44789 0.99138 0.09004 0.00200
C 	C 	0.54247 0.11275 0.45671 0.44700
C 	C 	0.53127 0.29449 0.41717 -0.24800
C 	C 	0.61526 0.29991 0.38437 0.21400
C 	C 	0.65144 0.18441 0.39791 0.16300
C 	C 	0.56671 0.17906 0.43052 -0.21500
C 	C 	0.50742 0.23388 0.44208 0.15500
C 	C 	0.67378 0.24341 0.37703 -0.26200
C 	C 	0.56649 0.46812 0.37210 -0.16500
C 	C 	0.52931 0.50862 0.40996 0.00700
C 	C 	0.40156 0.59844 0.59844 0.15800
C 	C 	0.47907 0.52093 0.52093 -0.02000
C 	C 	0.59844 0.90156 0.90156 0.15500
C 	C 	0.52093 0.97907 0.97907 -0.01600
C 	C 	0.59844 0.40156 0.40156 0.15800
C 	C 	0.52093 0.47907 0.47907 -0.02000
C 	C 	0.40156 0.09844 0.09844 0.15500
C 	C 	0.47907 0.02093 0.02093 -0.01600
N 	N 	0.36153 0.63847 0.63847 -0.20600
N 	N 	0.63847 0.86153 0.86153 -0.20500
N 	N 	0.63847 0.36153 0.36153 -0.20600
N 	N 	0.36153 0.13847 0.13847 -0.20500
O 	O 	0.06542 0.51133 0.88939 -0.49200
O 	O 	0.10806 0.55693 0.93425 -0.49200
O 	O 	0.46614 0.98867 0.61061 -0.49300
O 	O 	0.59924 0.94307 0.56575 -0.49400
O 	O 	0.93458 0.61061 0.98867 -0.49400
O 	O 	0.89194 0.56575 0.94307 -0.49400
O 	O 	0.53386 0.88939 0.51133 -0.49300
O 	O 	0.40076 0.93425 0.55693 -0.49400
O 	O 	0.93458 0.48867 0.11061 -0.49200
O 	O 	0.89194 0.44307 0.06575 -0.49200
O 	O 	0.53386 0.01133 0.38939 -0.49300
O 	O 	0.40076 0.05693 0.43425 -0.49400
O 	O 	0.06542 0.38939 0.01133 -0.49400
O 	O 	0.10806 0.43425 0.05693 -0.49400
O 	O 	0.46614 0.11061 0.48867 -0.49300
O 	O 	0.59924 0.06575 0.44307 -0.49400
