data_crystal

_cell_length_a 16.25200
_cell_length_b 11.87380
_cell_length_c 9.55850
_cell_angle_alpha 90.00000
_cell_angle_beta  114.58800
_cell_angle_gamma 90.00000

_symmetry_space_group_name_	'P 1'
_symmetry_space_group_name_H-M	'P 1'

loop_
_symmetry_equiv_pos_as_xyz
  x,y,z

loop_
_atom_site_label
_atom_site_type_symbol
_atom_site_fract_x
_atom_site_fract_y
_atom_site_fract_z
_atom_site_charge
O 	O 	0.40891 0.42821 0.80186 -0.52500
O 	O 	0.39856 0.49613 0.57751 -0.53200
O 	O 	0.35012 0.22442 0.81228 -0.36100
H 	H 	0.38180 0.28150 0.85190 0.23900
C 	C 	0.31237 0.33450 0.57671 -0.25900
C 	C 	0.30147 0.24208 0.65901 0.17600
C 	C 	0.26090 0.34103 0.41807 0.16100
C 	C 	0.37862 0.42636 0.65678 0.48300
O 	O 	0.26520 0.41500 0.31460 -0.38700
H 	H 	0.30290 0.46560 0.36050 0.23200
O 	O 	0.90891 0.92821 0.80186 -0.39700
O 	O 	0.89856 0.99613 0.57751 -0.39900
O 	O 	0.85012 0.72442 0.81228 -0.30000
H 	H 	0.88180 0.78150 0.85190 0.27500
C 	C 	0.81237 0.83450 0.57671 -0.20700
C 	C 	0.80147 0.74208 0.65901 0.19800
C 	C 	0.76090 0.84103 0.41807 0.18500
C 	C 	0.87862 0.92636 0.65678 0.47300
O 	O 	0.76520 0.91500 0.31460 -0.33000
H 	H 	0.80290 0.96560 0.36050 0.27500
O 	O 	0.59109 0.42821 0.69814 -0.53000
O 	O 	0.60144 0.49613 0.92249 -0.46300
O 	O 	0.64988 0.22442 0.68772 -0.33600
H 	H 	0.61820 0.28150 0.64810 0.21300
C 	C 	0.68763 0.33450 0.92329 -0.06700
C 	C 	0.69853 0.24208 0.84099 0.08500
C 	C 	0.73910 0.34103 0.08193 -0.01600
C 	C 	0.62138 0.42636 0.84322 0.44000
O 	O 	0.73480 0.41500 0.18540 -0.29000
H 	H 	0.69710 0.46560 0.13950 0.18500
O 	O 	0.09109 0.92821 0.69814 -0.50500
O 	O 	0.10144 0.99613 0.92249 -0.43300
O 	O 	0.14988 0.72442 0.68772 -0.32300
H 	H 	0.11820 0.78150 0.64810 0.21200
C 	C 	0.18763 0.83450 0.92329 -0.04700
C 	C 	0.19853 0.74208 0.84099 0.07900
C 	C 	0.23910 0.84103 0.08193 -0.02100
C 	C 	0.12138 0.92636 0.84322 0.42000
O 	O 	0.23480 0.91500 0.18540 -0.26800
H 	H 	0.19710 0.96560 0.13950 0.22100
O 	O 	0.59109 0.57179 0.19814 -0.57100
O 	O 	0.60144 0.50387 0.42249 -0.54900
O 	O 	0.64988 0.77558 0.18772 -0.33300
H 	H 	0.61820 0.71850 0.14810 0.21800
C 	C 	0.68763 0.66550 0.42329 -0.24800
C 	C 	0.69853 0.75792 0.34099 0.19800
C 	C 	0.73910 0.65897 0.58193 0.18700
C 	C 	0.62138 0.57364 0.34322 0.50300
O 	O 	0.73480 0.58500 0.68540 -0.31900
H 	H 	0.69710 0.53440 0.63950 0.22900
O 	O 	0.09109 0.07179 0.19814 -0.69400
O 	O 	0.10144 0.00387 0.42249 -0.67500
O 	O 	0.14988 0.27558 0.18772 -0.39400
H 	H 	0.11820 0.21850 0.14810 0.18100
C 	C 	0.18763 0.16550 0.42329 -0.29800
C 	C 	0.19853 0.25792 0.34099 0.17400
C 	C 	0.23910 0.15897 0.58193 0.16100
C 	C 	0.12138 0.07364 0.34322 0.50700
O 	O 	0.23480 0.08500 0.68540 -0.37700
H 	H 	0.19710 0.03440 0.63950 0.18400
O 	O 	0.40891 0.57179 0.30186 -0.57100
O 	O 	0.39856 0.50387 0.07751 -0.61700
O 	O 	0.35012 0.77558 0.31228 -0.35900
H 	H 	0.38180 0.71850 0.35190 0.24400
C 	C 	0.31237 0.66550 0.07671 -0.44800
C 	C 	0.30147 0.75792 0.15901 0.29500
C 	C 	0.26090 0.65897 0.91807 0.37300
C 	C 	0.37862 0.57364 0.15678 0.54800
O 	O 	0.26520 0.58500 0.81460 -0.41800
H 	H 	0.30290 0.53440 0.86050 0.27800
O 	O 	0.90891 0.07179 0.30186 -0.57100
O 	O 	0.89856 0.00387 0.07751 -0.61700
O 	O 	0.85012 0.27558 0.31228 -0.36700
H 	H 	0.88180 0.21850 0.35190 0.24700
C 	C 	0.81237 0.16550 0.07671 -0.44300
C 	C 	0.80147 0.25792 0.15901 0.29000
C 	C 	0.76090 0.15897 0.91807 0.35800
C 	C 	0.87862 0.07364 0.15678 0.55600
O 	O 	0.76520 0.08500 0.81460 -0.43300
H 	H 	0.80290 0.03440 0.86050 0.24200
Mg	Mg	0.50000 0.50000 -0.00000 1.45500
Mg	Mg	-0.00000 0.00000 -0.00000 1.42200
Mg	Mg	0.50000 0.50000 0.50000 1.46500
Mg	Mg	0.00000 0.00000 0.50000 1.43100
