data_crystal

_cell_length_a 40.59200
_cell_length_b 16.61600
_cell_length_c 12.99800
_cell_angle_alpha 90.00000
_cell_angle_beta  98.14500
_cell_angle_gamma 90.00000

_symmetry_space_group_name_	'P 1'
_symmetry_space_group_name_H-M	'P 1'

loop_
_symmetry_equiv_pos_as_xyz
  x,y,z

loop_
_atom_site_label
_atom_site_type_symbol
_atom_site_fract_x
_atom_site_fract_y
_atom_site_fract_z
_atom_site_charge
Sr	Sr	0.76387 0.40463 0.13339 1.52100
Sr	Sr	0.74079 0.39141 0.82957 1.48900
O 	O 	0.68086 0.35410 0.85720 -0.44800
O 	O 	0.27066 0.14220 0.40090 -0.25600
O 	O 	0.27182 0.01810 0.33550 -0.44900
O 	O 	0.82047 0.34890 0.11300 -0.43400
O 	O 	0.78440 0.33620 0.96930 -0.54400
O 	O 	0.21602 0.00770 0.48890 -0.47900
O 	O 	0.21627 0.14150 0.45920 -0.25200
C 	C 	0.65989 0.31500 0.01060 -0.16200
C 	C 	0.66736 0.29220 0.11480 0.07100
H 	H 	0.68890 0.29770 0.14930 0.00100
C 	C 	0.64257 0.26150 0.16660 -0.17700
H 	H 	0.64770 0.24660 0.23600 0.10000
C 	C 	0.61020 0.25260 0.11640 0.11000
C 	C 	0.60331 0.27380 0.01110 -0.16700
H 	H 	0.58190 0.26730 0.97590 0.09300
C 	C 	0.62791 0.30400 0.95930 0.08100
H 	H 	0.62300 0.31720 0.88930 0.01200
C 	C 	0.58231 0.22350 0.17110 -0.07300
C 	C 	0.56964 0.14510 0.15310 0.03500
C 	C 	0.53964 0.12130 0.19220 -0.00100
C 	C 	0.52284 0.17680 0.24860 -0.01300
C 	C 	0.53693 0.25300 0.27320 -0.00500
C 	C 	0.56687 0.27650 0.23520 0.03600
C 	C 	0.58019 0.35420 0.26280 -0.08900
H 	H 	0.59970 0.36990 0.23890 0.06100
C 	C 	0.56556 0.40520 0.32210 -0.01500
H 	H 	0.57470 0.45580 0.33770 0.03400
C 	C 	0.53602 0.38200 0.36080 -0.05000
H 	H 	0.52610 0.41670 0.40330 0.04800
C 	C 	0.52226 0.30840 0.33560 -0.05200
H 	H 	0.50260 0.29440 0.36020 0.05100
C 	C 	0.52750 0.04180 0.17010 -0.06000
H 	H 	0.50780 0.02580 0.19300 0.05400
C 	C 	0.54410 0.98860 0.11580 -0.03800
H 	H 	0.53560 0.93710 0.10210 0.04000
C 	C 	0.57388 0.01110 0.08070 -0.03000
H 	H 	0.58540 0.97400 0.04590 0.03700
C 	C 	0.58617 0.08770 0.09740 -0.08000
H 	H 	0.60560 0.10230 0.07190 0.05500
C 	C 	0.48937 0.15620 0.27570 -0.01100
C 	C 	0.46138 0.16340 0.19830 -0.00400
C 	C 	0.42886 0.14380 0.22130 0.03600
C 	C 	0.42465 0.12060 0.32350 -0.07500
C 	C 	0.45245 0.11330 0.39960 0.03900
C 	C 	0.48526 0.13020 0.37620 -0.00600
C 	C 	0.51295 0.12190 0.45560 -0.04900
H 	H 	0.53430 0.13070 0.44010 0.05000
C 	C 	0.50853 0.10120 0.55500 -0.04700
H 	H 	0.52680 0.09780 0.60680 0.05200
C 	C 	0.47613 0.08490 0.57880 -0.01000
H 	H 	0.47330 0.07050 0.64610 0.03600
C 	C 	0.44902 0.09010 0.50380 -0.08600
H 	H 	0.42800 0.07840 0.52050 0.06400
C 	C 	0.40093 0.14870 0.14010 -0.08900
H 	H 	0.37990 0.13470 0.15430 0.06200
C 	C 	0.40484 0.17360 0.04250 -0.01800
H 	H 	0.38670 0.17580 0.99030 0.02700
C 	C 	0.43721 0.19640 0.02150 -0.04900
H 	H 	0.43980 0.21560 0.95590 0.04600
C 	C 	0.46424 0.19040 0.09590 -0.05100
H 	H 	0.48510 0.20420 0.07960 0.05400
C 	C 	0.39006 0.10810 0.34550 0.10200
C 	C 	0.37050 0.17520 0.35800 -0.15600
H 	H 	0.38000 0.22620 0.35900 0.08200
C 	C 	0.33712 0.16770 0.36910 0.06600
H 	H 	0.32460 0.21320 0.37930 0.01100
C 	C 	0.32223 0.09110 0.36490 -0.14700
C 	C 	0.34173 0.02400 0.35540 0.07300
H 	H 	0.33230 0.97300 0.35420 0.00400
C 	C 	0.37535 0.03250 0.34770 -0.15800
H 	H 	0.38830 0.98670 0.34400 0.08400
C 	C 	0.28554 0.08230 0.36650 0.35600
C 	C 	0.84137 0.30200 0.96360 -0.18500
C 	C 	0.87378 0.30230 0.01400 0.10300
H 	H 	0.87840 0.32050 0.08220 0.00500
C 	C 	0.89933 0.27540 0.96280 -0.19000
H 	H 	0.92110 0.27680 0.99660 0.10100
C 	C 	0.89307 0.24640 0.86210 0.13000
C 	C 	0.86051 0.24550 0.81230 -0.20000
H 	H 	0.85590 0.22630 0.74460 0.10900
C 	C 	0.83460 0.27290 0.86260 0.09300
H 	H 	0.81280 0.27180 0.82870 -0.01800
C 	C 	0.92157 0.21810 0.81200 -0.08300
C 	C 	0.93429 0.13940 0.83340 0.03900
C 	C 	0.96477 0.11570 0.79900 -0.00300
C 	C 	0.98141 0.16860 0.74010 -0.01100
C 	C 	0.96735 0.24350 0.71140 -0.00700
C 	C 	0.93710 0.26950 0.74880 0.04200
C 	C 	0.92401 0.34730 0.71980 -0.09200
H 	H 	0.90500 0.36470 0.74540 0.06000
C 	C 	0.93825 0.39590 0.65680 -0.01200
H 	H 	0.92920 0.44630 0.63910 0.03200
C 	C 	0.96709 0.37010 0.61770 -0.05200
H 	H 	0.97630 0.40320 0.57170 0.04800
C 	C 	0.98183 0.29850 0.64500 -0.05100
H 	H 	0.00150 0.28470 0.62050 0.05000
C 	C 	0.91680 0.08340 0.89040 -0.08300
H 	H 	0.89700 0.09850 0.91310 0.05800
C 	C 	0.92937 0.00810 0.91110 -0.02600
H 	H 	0.91750 0.97180 0.94620 0.03600
C 	C 	0.95961 0.98410 0.88090 -0.03900
H 	H 	0.96790 0.93270 0.89730 0.04000
C 	C 	0.97720 0.03640 0.82680 -0.06000
H 	H 	0.99740 0.02020 0.80790 0.05400
C 	C 	0.01445 0.14680 0.71110 -0.01100
C 	C 	0.04363 0.15460 0.78330 -0.00500
C 	C 	0.07556 0.13730 0.75500 0.03700
C 	C 	0.07803 0.11590 0.64990 -0.07500
C 	C 	0.04886 0.11010 0.57610 0.04000
C 	C 	0.01681 0.12270 0.60680 -0.00600
C 	C 	0.98794 0.11330 0.53190 -0.04700
H 	H 	0.96690 0.11770 0.55190 0.05000
C 	C 	0.99104 0.09810 0.43170 -0.04700
H 	H 	0.97200 0.09350 0.38320 0.05100
C 	C 	0.02248 0.08880 0.39870 -0.00900
H 	H 	0.02410 0.08000 0.32900 0.03600
C 	C 	0.05032 0.09290 0.47010 -0.08900
H 	H 	0.07090 0.08420 0.44870 0.06800
C 	C 	0.04252 0.18110 0.88570 -0.05000
H 	H 	0.02200 0.19400 0.90550 0.05300
C 	C 	0.07041 0.18850 0.95660 -0.05000
H 	H 	0.06890 0.20670 0.02350 0.04600
C 	C 	0.10191 0.16830 0.92740 -0.01400
H 	H 	0.12090 0.17160 0.97630 0.02900
C 	C 	0.10443 0.14440 0.83010 -0.08900
H 	H 	0.12520 0.13250 0.81180 0.05900
C 	C 	0.11102 0.10490 0.61530 0.10200
C 	C 	0.12324 0.02820 0.59460 -0.15700
H 	H 	0.11090 0.98270 0.60570 0.08200
C 	C 	0.15371 0.01940 0.55750 0.06200
H 	H 	0.16180 0.96830 0.54610 -0.00300
C 	C 	0.17207 0.08700 0.53740 -0.15600
C 	C 	0.16051 0.16200 0.55940 0.07500
H 	H 	0.17270 0.20760 0.54730 0.01200
C 	C 	0.13088 0.17010 0.59930 -0.16200
H 	H 	0.12400 0.22120 0.61600 0.08600
C 	C 	0.20386 0.07680 0.49210 0.33700
O 	O 	0.71425 0.36850 0.00580 -0.55100
C 	C 	0.68682 0.34870 0.95400 0.38100
C 	C 	0.81379 0.33040 0.01900 0.37900
Cl	Cl	0.74879 0.27038 0.25570 -0.70200
Sr	Sr	0.23613 0.90463 0.36661 1.52200
Sr	Sr	0.25921 0.89141 0.67043 1.49000
O 	O 	0.31914 0.85410 0.64280 -0.44700
O 	O 	0.72934 0.64220 0.09910 -0.25500
O 	O 	0.72818 0.51810 0.16450 -0.44900
O 	O 	0.17953 0.84890 0.38700 -0.43300
O 	O 	0.21560 0.83620 0.53070 -0.54200
O 	O 	0.78398 0.50770 0.01110 -0.47900
O 	O 	0.78373 0.64150 0.04080 -0.25100
C 	C 	0.34011 0.81500 0.48940 -0.16500
C 	C 	0.33264 0.79220 0.38520 0.07600
H 	H 	0.31110 0.79770 0.35070 0.00100
C 	C 	0.35743 0.76150 0.33340 -0.18000
H 	H 	0.35230 0.74660 0.26400 0.10100
C 	C 	0.38980 0.75260 0.38360 0.11300
C 	C 	0.39669 0.77380 0.48890 -0.17200
H 	H 	0.41810 0.76730 0.52410 0.09500
C 	C 	0.37209 0.80400 0.54070 0.08700
H 	H 	0.37700 0.81720 0.61070 0.01000
C 	C 	0.41769 0.72350 0.32890 -0.07500
C 	C 	0.43036 0.64510 0.34690 0.03800
C 	C 	0.46036 0.62130 0.30780 -0.00300
C 	C 	0.47716 0.67680 0.25140 -0.01200
C 	C 	0.46307 0.75300 0.22680 -0.00600
C 	C 	0.43313 0.77650 0.26480 0.03800
C 	C 	0.41981 0.85420 0.23720 -0.09100
H 	H 	0.40030 0.86990 0.26110 0.06100
C 	C 	0.43444 0.90520 0.17790 -0.01400
H 	H 	0.42530 0.95580 0.16230 0.03300
C 	C 	0.46398 0.88200 0.13920 -0.05100
H 	H 	0.47390 0.91670 0.09670 0.04800
C 	C 	0.47774 0.80840 0.16440 -0.05100
H 	H 	0.49740 0.79440 0.13980 0.05000
C 	C 	0.47250 0.54180 0.32990 -0.05500
H 	H 	0.49220 0.52580 0.30700 0.05200
C 	C 	0.45590 0.48860 0.38420 -0.04500
H 	H 	0.46440 0.43710 0.39790 0.04300
C 	C 	0.42612 0.51110 0.41930 -0.02200
H 	H 	0.41460 0.47400 0.45410 0.03300
C 	C 	0.41383 0.58770 0.40260 -0.08400
H 	H 	0.39440 0.60230 0.42810 0.05700
C 	C 	0.51063 0.65620 0.22430 -0.01200
C 	C 	0.53862 0.66340 0.30170 -0.00400
C 	C 	0.57114 0.64380 0.27870 0.03600
C 	C 	0.57535 0.62060 0.17650 -0.07500
C 	C 	0.54755 0.61330 0.10040 0.03900
C 	C 	0.51474 0.63020 0.12380 -0.00600
C 	C 	0.48705 0.62190 0.04440 -0.04900
H 	H 	0.46570 0.63070 0.05990 0.05000
C 	C 	0.49147 0.60120 0.94500 -0.04700
H 	H 	0.47320 0.59780 0.89320 0.05200
C 	C 	0.52387 0.58490 0.92120 -0.01000
H 	H 	0.52670 0.57050 0.85390 0.03500
C 	C 	0.55098 0.59010 0.99620 -0.08700
H 	H 	0.57200 0.57840 0.97950 0.06400
C 	C 	0.59907 0.64870 0.35990 -0.08900
H 	H 	0.62010 0.63470 0.34570 0.06200
C 	C 	0.59516 0.67360 0.45750 -0.01700
H 	H 	0.61330 0.67580 0.50970 0.02700
C 	C 	0.56279 0.69640 0.47850 -0.04900
H 	H 	0.56020 0.71560 0.54410 0.04600
C 	C 	0.53576 0.69040 0.40410 -0.05100
H 	H 	0.51490 0.70420 0.42040 0.05400
C 	C 	0.60994 0.60810 0.15450 0.10200
C 	C 	0.62950 0.67520 0.14200 -0.15600
H 	H 	0.62000 0.72620 0.14100 0.08200
C 	C 	0.66288 0.66770 0.13090 0.06600
H 	H 	0.67540 0.71320 0.12070 0.01200
C 	C 	0.67777 0.59110 0.13510 -0.14600
C 	C 	0.65827 0.52400 0.14460 0.06900
H 	H 	0.66770 0.47300 0.14580 0.00700
C 	C 	0.62465 0.53250 0.15230 -0.15900
H 	H 	0.61170 0.48670 0.15600 0.08500
C 	C 	0.71446 0.58230 0.13350 0.35500
C 	C 	0.15863 0.80200 0.53640 -0.18200
C 	C 	0.12622 0.80230 0.48600 0.09900
H 	H 	0.12160 0.82050 0.41780 0.00600
C 	C 	0.10067 0.77540 0.53720 -0.18800
H 	H 	0.07890 0.77680 0.50340 0.10000
C 	C 	0.10693 0.74640 0.63790 0.12900
C 	C 	0.13949 0.74550 0.68770 -0.19900
H 	H 	0.14410 0.72630 0.75540 0.10900
C 	C 	0.16540 0.77290 0.63740 0.09100
H 	H 	0.18720 0.77180 0.67130 -0.01700
C 	C 	0.07843 0.71810 0.68800 -0.08400
C 	C 	0.06571 0.63940 0.66660 0.04300
C 	C 	0.03523 0.61570 0.70100 -0.00700
C 	C 	0.01859 0.66860 0.75990 -0.00900
C 	C 	0.03265 0.74350 0.78860 -0.00800
C 	C 	0.06290 0.76950 0.75120 0.04300
C 	C 	0.07599 0.84730 0.78020 -0.09300
H 	H 	0.09500 0.86470 0.75460 0.06000
C 	C 	0.06175 0.89590 0.84320 -0.01100
H 	H 	0.07080 0.94630 0.86090 0.03200
C 	C 	0.03291 0.87010 0.88230 -0.05200
H 	H 	0.02370 0.90320 0.92830 0.04900
C 	C 	0.01817 0.79850 0.85500 -0.05000
H 	H 	0.99850 0.78470 0.87950 0.05000
C 	C 	0.08320 0.58340 0.60960 -0.08900
H 	H 	0.10300 0.59850 0.58690 0.06100
C 	C 	0.07063 0.50810 0.58890 -0.01600
H 	H 	0.08250 0.47180 0.55380 0.03200
C 	C 	0.04039 0.48410 0.61910 -0.04800
H 	H 	0.03210 0.43270 0.60270 0.04300
C 	C 	0.02280 0.53640 0.67320 -0.05300
H 	H 	0.00260 0.52020 0.69210 0.05200
C 	C 	0.98555 0.64680 0.78890 -0.01200
C 	C 	0.95637 0.65460 0.71670 -0.00400
C 	C 	0.92444 0.63730 0.74500 0.03700
C 	C 	0.92197 0.61590 0.85010 -0.07500
C 	C 	0.95114 0.61010 0.92390 0.04000
C 	C 	0.98319 0.62270 0.89320 -0.00600
C 	C 	0.01206 0.61330 0.96810 -0.04700
H 	H 	0.03310 0.61770 0.94810 0.05000
C 	C 	0.00896 0.59810 0.06830 -0.04700
H 	H 	0.02800 0.59350 0.11680 0.05100
C 	C 	0.97752 0.58880 0.10130 -0.01000
H 	H 	0.97590 0.58000 0.17100 0.03600
C 	C 	0.94968 0.59290 0.02990 -0.08900
H 	H 	0.92910 0.58420 0.05130 0.06800
C 	C 	0.95748 0.68110 0.61430 -0.05000
H 	H 	0.97800 0.69400 0.59450 0.05300
C 	C 	0.92959 0.68850 0.54340 -0.05000
H 	H 	0.93110 0.70670 0.47650 0.04600
C 	C 	0.89809 0.66830 0.57260 -0.01400
H 	H 	0.87910 0.67160 0.52370 0.02800
C 	C 	0.89557 0.64440 0.66990 -0.09000
H 	H 	0.87480 0.63250 0.68820 0.05900
C 	C 	0.88898 0.60490 0.88470 0.10200
C 	C 	0.87676 0.52820 0.90540 -0.15900
H 	H 	0.88910 0.48270 0.89430 0.08400
C 	C 	0.84629 0.51940 0.94250 0.05900
H 	H 	0.83820 0.46830 0.95390 -0.00000
C 	C 	0.82793 0.58700 0.96260 -0.15600
C 	C 	0.83949 0.66200 0.94060 0.07400
H 	H 	0.82730 0.70760 0.95270 0.01200
C 	C 	0.86912 0.67010 0.90070 -0.16300
H 	H 	0.87600 0.72120 0.88400 0.08600
C 	C 	0.79614 0.57680 0.00790 0.33800
O 	O 	0.28575 0.86850 0.49420 -0.55200
C 	C 	0.31318 0.84870 0.54600 0.38400
C 	C 	0.18621 0.83040 0.48100 0.37600
Cl	Cl	0.25121 0.77038 0.24430 -0.70300
Sr	Sr	0.23613 0.59537 0.86661 1.52200
Sr	Sr	0.25921 0.60859 0.17043 1.49000
O 	O 	0.31914 0.64590 0.14280 -0.44700
O 	O 	0.72934 0.85780 0.59910 -0.25500
O 	O 	0.72818 0.98190 0.66450 -0.44800
O 	O 	0.17953 0.65110 0.88700 -0.43300
O 	O 	0.21560 0.66380 0.03070 -0.54300
O 	O 	0.78398 0.99230 0.51110 -0.47800
O 	O 	0.78373 0.85850 0.54080 -0.25100
C 	C 	0.34011 0.68500 0.98940 -0.16100
C 	C 	0.33264 0.70780 0.88520 0.07200
H 	H 	0.31110 0.70230 0.85070 0.00200
C 	C 	0.35743 0.73850 0.83340 -0.17700
H 	H 	0.35230 0.75340 0.76400 0.10000
C 	C 	0.38980 0.74740 0.88360 0.11000
C 	C 	0.39669 0.72620 0.98890 -0.16700
H 	H 	0.41810 0.73270 0.02410 0.09300
C 	C 	0.37209 0.69600 0.04070 0.08100
H 	H 	0.37700 0.68280 0.11070 0.01200
C 	C 	0.41769 0.77650 0.82890 -0.07300
C 	C 	0.43036 0.85490 0.84690 0.03500
C 	C 	0.46036 0.87870 0.80780 -0.00100
C 	C 	0.47716 0.82320 0.75140 -0.01300
C 	C 	0.46307 0.74700 0.72680 -0.00500
C 	C 	0.43313 0.72350 0.76480 0.03600
C 	C 	0.41981 0.64580 0.73720 -0.08900
H 	H 	0.40030 0.63010 0.76110 0.06100
C 	C 	0.43444 0.59480 0.67790 -0.01500
H 	H 	0.42530 0.54420 0.66230 0.03400
C 	C 	0.46398 0.61800 0.63920 -0.05000
H 	H 	0.47390 0.58330 0.59670 0.04800
C 	C 	0.47774 0.69160 0.66440 -0.05200
H 	H 	0.49740 0.70560 0.63980 0.05100
C 	C 	0.47250 0.95820 0.82990 -0.06000
H 	H 	0.49220 0.97420 0.80700 0.05400
C 	C 	0.45590 0.01140 0.88420 -0.03800
H 	H 	0.46440 0.06290 0.89790 0.04000
C 	C 	0.42612 0.98890 0.91930 -0.03000
H 	H 	0.41460 0.02600 0.95410 0.03700
C 	C 	0.41383 0.91230 0.90260 -0.08000
H 	H 	0.39440 0.89770 0.92810 0.05500
C 	C 	0.51063 0.84380 0.72430 -0.01100
C 	C 	0.53862 0.83660 0.80170 -0.00400
C 	C 	0.57114 0.85620 0.77870 0.03600
C 	C 	0.57535 0.87940 0.67650 -0.07500
C 	C 	0.54755 0.88670 0.60040 0.03900
C 	C 	0.51474 0.86980 0.62380 -0.00600
C 	C 	0.48705 0.87810 0.54440 -0.04900
H 	H 	0.46570 0.86930 0.55990 0.05000
C 	C 	0.49147 0.89880 0.44500 -0.04700
H 	H 	0.47320 0.90220 0.39320 0.05200
C 	C 	0.52387 0.91510 0.42120 -0.01000
H 	H 	0.52670 0.92950 0.35390 0.03600
C 	C 	0.55098 0.90990 0.49620 -0.08600
H 	H 	0.57200 0.92160 0.47950 0.06400
C 	C 	0.59907 0.85130 0.85990 -0.08900
H 	H 	0.62010 0.86530 0.84570 0.06200
C 	C 	0.59516 0.82640 0.95750 -0.01800
H 	H 	0.61330 0.82420 0.00970 0.02700
C 	C 	0.56279 0.80360 0.97850 -0.04900
H 	H 	0.56020 0.78440 0.04410 0.04600
C 	C 	0.53576 0.80960 0.90410 -0.05100
H 	H 	0.51490 0.79580 0.92040 0.05400
C 	C 	0.60994 0.89190 0.65450 0.10200
C 	C 	0.62950 0.82480 0.64200 -0.15600
H 	H 	0.62000 0.77380 0.64100 0.08200
C 	C 	0.66288 0.83230 0.63090 0.06600
H 	H 	0.67540 0.78680 0.62070 0.01100
C 	C 	0.67777 0.90890 0.63510 -0.14700
C 	C 	0.65827 0.97600 0.64460 0.07300
H 	H 	0.66770 0.02700 0.64580 0.00400
C 	C 	0.62465 0.96750 0.65230 -0.15800
H 	H 	0.61170 0.01330 0.65600 0.08400
C 	C 	0.71446 0.91770 0.63350 0.35600
C 	C 	0.15863 0.69800 0.03640 -0.18500
C 	C 	0.12622 0.69770 0.98600 0.10300
H 	H 	0.12160 0.67950 0.91780 0.00500
C 	C 	0.10067 0.72460 0.03720 -0.19000
H 	H 	0.07890 0.72320 0.00340 0.10100
C 	C 	0.10693 0.75360 0.13790 0.13000
C 	C 	0.13949 0.75450 0.18770 -0.20000
H 	H 	0.14410 0.77370 0.25540 0.10900
C 	C 	0.16540 0.72710 0.13740 0.09300
H 	H 	0.18720 0.72820 0.17130 -0.01800
C 	C 	0.07843 0.78190 0.18800 -0.08300
C 	C 	0.06571 0.86060 0.16660 0.03900
C 	C 	0.03523 0.88430 0.20100 -0.00300
C 	C 	0.01859 0.83140 0.25990 -0.01100
C 	C 	0.03265 0.75650 0.28860 -0.00700
C 	C 	0.06290 0.73050 0.25120 0.04200
C 	C 	0.07599 0.65270 0.28020 -0.09200
H 	H 	0.09500 0.63530 0.25460 0.06000
C 	C 	0.06175 0.60410 0.34320 -0.01200
H 	H 	0.07080 0.55370 0.36090 0.03200
C 	C 	0.03291 0.62990 0.38230 -0.05200
H 	H 	0.02370 0.59680 0.42830 0.04800
C 	C 	0.01817 0.70150 0.35500 -0.05100
H 	H 	0.99850 0.71530 0.37950 0.05000
C 	C 	0.08320 0.91660 0.10960 -0.08300
H 	H 	0.10300 0.90150 0.08690 0.05800
C 	C 	0.07063 0.99190 0.08890 -0.02600
H 	H 	0.08250 0.02820 0.05380 0.03600
C 	C 	0.04039 0.01590 0.11910 -0.03900
H 	H 	0.03210 0.06730 0.10270 0.04000
C 	C 	0.02280 0.96360 0.17320 -0.06000
H 	H 	0.00260 0.97980 0.19210 0.05400
C 	C 	0.98555 0.85320 0.28890 -0.01100
C 	C 	0.95637 0.84540 0.21670 -0.00500
C 	C 	0.92444 0.86270 0.24500 0.03700
C 	C 	0.92197 0.88410 0.35010 -0.07500
C 	C 	0.95114 0.88990 0.42390 0.04000
C 	C 	0.98319 0.87730 0.39320 -0.00600
C 	C 	0.01206 0.88670 0.46810 -0.04700
H 	H 	0.03310 0.88230 0.44810 0.05000
C 	C 	0.00896 0.90190 0.56830 -0.04700
H 	H 	0.02800 0.90650 0.61680 0.05100
C 	C 	0.97752 0.91120 0.60130 -0.00900
H 	H 	0.97590 0.92000 0.67100 0.03600
C 	C 	0.94968 0.90710 0.52990 -0.08900
H 	H 	0.92910 0.91580 0.55130 0.06800
C 	C 	0.95748 0.81890 0.11430 -0.05000
H 	H 	0.97800 0.80600 0.09450 0.05300
C 	C 	0.92959 0.81150 0.04340 -0.05000
H 	H 	0.93110 0.79330 0.97650 0.04600
C 	C 	0.89809 0.83170 0.07260 -0.01400
H 	H 	0.87910 0.82840 0.02370 0.02900
C 	C 	0.89557 0.85560 0.16990 -0.08900
H 	H 	0.87480 0.86750 0.18820 0.05900
C 	C 	0.88898 0.89510 0.38470 0.10200
C 	C 	0.87676 0.97180 0.40540 -0.15700
H 	H 	0.88910 0.01730 0.39430 0.08200
C 	C 	0.84629 0.98060 0.44250 0.06200
H 	H 	0.83820 0.03170 0.45390 -0.00300
C 	C 	0.82793 0.91300 0.46260 -0.15600
C 	C 	0.83949 0.83800 0.44060 0.07500
H 	H 	0.82730 0.79240 0.45270 0.01200
C 	C 	0.86912 0.82990 0.40070 -0.16200
H 	H 	0.87600 0.77880 0.38400 0.08600
C 	C 	0.79614 0.92320 0.50790 0.33700
O 	O 	0.28575 0.63150 0.99420 -0.55100
C 	C 	0.31318 0.65130 0.04600 0.38100
C 	C 	0.18621 0.66960 0.98100 0.37900
Cl	Cl	0.25121 0.72962 0.74430 -0.70200
Sr	Sr	0.76387 0.09537 0.63339 1.52200
Sr	Sr	0.74079 0.10859 0.32957 1.49000
O 	O 	0.68086 0.14590 0.35720 -0.44700
O 	O 	0.27066 0.35780 0.90090 -0.25500
O 	O 	0.27182 0.48190 0.83550 -0.44900
O 	O 	0.82047 0.15110 0.61300 -0.43300
O 	O 	0.78440 0.16380 0.46930 -0.54200
O 	O 	0.21602 0.49230 0.98890 -0.47900
O 	O 	0.21627 0.35850 0.95920 -0.25100
C 	C 	0.65989 0.18500 0.51060 -0.16500
C 	C 	0.66736 0.20780 0.61480 0.07600
H 	H 	0.68890 0.20230 0.64930 0.00100
C 	C 	0.64257 0.23850 0.66660 -0.18000
H 	H 	0.64770 0.25340 0.73600 0.10100
C 	C 	0.61020 0.24740 0.61640 0.11300
C 	C 	0.60331 0.22620 0.51110 -0.17200
H 	H 	0.58190 0.23270 0.47590 0.09500
C 	C 	0.62791 0.19600 0.45930 0.08700
H 	H 	0.62300 0.18280 0.38930 0.01000
C 	C 	0.58231 0.27650 0.67110 -0.07500
C 	C 	0.56964 0.35490 0.65310 0.03800
C 	C 	0.53964 0.37870 0.69220 -0.00300
C 	C 	0.52284 0.32320 0.74860 -0.01200
C 	C 	0.53693 0.24700 0.77320 -0.00600
C 	C 	0.56687 0.22350 0.73520 0.03800
C 	C 	0.58019 0.14580 0.76280 -0.09100
H 	H 	0.59970 0.13010 0.73890 0.06100
C 	C 	0.56556 0.09480 0.82210 -0.01400
H 	H 	0.57470 0.04420 0.83770 0.03300
C 	C 	0.53602 0.11800 0.86080 -0.05100
H 	H 	0.52610 0.08330 0.90330 0.04800
C 	C 	0.52226 0.19160 0.83560 -0.05100
H 	H 	0.50260 0.20560 0.86020 0.05000
C 	C 	0.52750 0.45820 0.67010 -0.05500
H 	H 	0.50780 0.47420 0.69300 0.05200
C 	C 	0.54410 0.51140 0.61580 -0.04500
H 	H 	0.53560 0.56290 0.60210 0.04300
C 	C 	0.57388 0.48890 0.58070 -0.02200
H 	H 	0.58540 0.52600 0.54590 0.03300
C 	C 	0.58617 0.41230 0.59740 -0.08400
H 	H 	0.60560 0.39770 0.57190 0.05700
C 	C 	0.48937 0.34380 0.77570 -0.01200
C 	C 	0.46138 0.33660 0.69830 -0.00400
C 	C 	0.42886 0.35620 0.72130 0.03600
C 	C 	0.42465 0.37940 0.82350 -0.07500
C 	C 	0.45245 0.38670 0.89960 0.03900
C 	C 	0.48526 0.36980 0.87620 -0.00600
C 	C 	0.51295 0.37810 0.95560 -0.04900
H 	H 	0.53430 0.36930 0.94010 0.05000
C 	C 	0.50853 0.39880 0.05500 -0.04700
H 	H 	0.52680 0.40220 0.10680 0.05200
C 	C 	0.47613 0.41510 0.07880 -0.01000
H 	H 	0.47330 0.42950 0.14610 0.03500
C 	C 	0.44902 0.40990 0.00380 -0.08700
H 	H 	0.42800 0.42160 0.02050 0.06400
C 	C 	0.40093 0.35130 0.64010 -0.08900
H 	H 	0.37990 0.36530 0.65430 0.06200
C 	C 	0.40484 0.32640 0.54250 -0.01700
H 	H 	0.38670 0.32420 0.49030 0.02700
C 	C 	0.43721 0.30360 0.52150 -0.04900
H 	H 	0.43980 0.28440 0.45590 0.04600
C 	C 	0.46424 0.30960 0.59590 -0.05100
H 	H 	0.48510 0.29580 0.57960 0.05400
C 	C 	0.39006 0.39190 0.84550 0.10200
C 	C 	0.37050 0.32480 0.85800 -0.15600
H 	H 	0.38000 0.27380 0.85900 0.08200
C 	C 	0.33712 0.33230 0.86910 0.06600
H 	H 	0.32460 0.28680 0.87930 0.01200
C 	C 	0.32223 0.40890 0.86490 -0.14600
C 	C 	0.34173 0.47600 0.85540 0.06900
H 	H 	0.33230 0.52700 0.85420 0.00700
C 	C 	0.37535 0.46750 0.84770 -0.15900
H 	H 	0.38830 0.51330 0.84400 0.08500
C 	C 	0.28554 0.41770 0.86650 0.35500
C 	C 	0.84137 0.19800 0.46360 -0.18200
C 	C 	0.87378 0.19770 0.51400 0.09900
H 	H 	0.87840 0.17950 0.58220 0.00600
C 	C 	0.89933 0.22460 0.46280 -0.18800
H 	H 	0.92110 0.22320 0.49660 0.10000
C 	C 	0.89307 0.25360 0.36210 0.12900
C 	C 	0.86051 0.25450 0.31230 -0.19900
H 	H 	0.85590 0.27370 0.24460 0.10900
C 	C 	0.83460 0.22710 0.36260 0.09100
H 	H 	0.81280 0.22820 0.32870 -0.01700
C 	C 	0.92157 0.28190 0.31200 -0.08400
C 	C 	0.93429 0.36060 0.33340 0.04300
C 	C 	0.96477 0.38430 0.29900 -0.00700
C 	C 	0.98141 0.33140 0.24010 -0.00900
C 	C 	0.96735 0.25650 0.21140 -0.00800
C 	C 	0.93710 0.23050 0.24880 0.04300
C 	C 	0.92401 0.15270 0.21980 -0.09300
H 	H 	0.90500 0.13530 0.24540 0.06000
C 	C 	0.93825 0.10410 0.15680 -0.01100
H 	H 	0.92920 0.05370 0.13910 0.03200
C 	C 	0.96709 0.12990 0.11770 -0.05200
H 	H 	0.97630 0.09680 0.07170 0.04900
C 	C 	0.98183 0.20150 0.14500 -0.05000
H 	H 	0.00150 0.21530 0.12050 0.05000
C 	C 	0.91680 0.41660 0.39040 -0.08900
H 	H 	0.89700 0.40150 0.41310 0.06100
C 	C 	0.92937 0.49190 0.41110 -0.01600
H 	H 	0.91750 0.52820 0.44620 0.03200
C 	C 	0.95961 0.51590 0.38090 -0.04800
H 	H 	0.96790 0.56730 0.39730 0.04300
C 	C 	0.97720 0.46360 0.32680 -0.05300
H 	H 	0.99740 0.47980 0.30790 0.05200
C 	C 	0.01445 0.35320 0.21110 -0.01200
C 	C 	0.04363 0.34540 0.28330 -0.00400
C 	C 	0.07556 0.36270 0.25500 0.03700
C 	C 	0.07803 0.38410 0.14990 -0.07500
C 	C 	0.04886 0.38990 0.07610 0.04000
C 	C 	0.01681 0.37730 0.10680 -0.00600
C 	C 	0.98794 0.38670 0.03190 -0.04700
H 	H 	0.96690 0.38230 0.05190 0.05000
C 	C 	0.99104 0.40190 0.93170 -0.04700
H 	H 	0.97200 0.40650 0.88320 0.05100
C 	C 	0.02248 0.41120 0.89870 -0.01000
H 	H 	0.02410 0.42000 0.82900 0.03600
C 	C 	0.05032 0.40710 0.97010 -0.08900
H 	H 	0.07090 0.41580 0.94870 0.06800
C 	C 	0.04252 0.31890 0.38570 -0.05000
H 	H 	0.02200 0.30600 0.40550 0.05300
C 	C 	0.07041 0.31150 0.45660 -0.05000
H 	H 	0.06890 0.29330 0.52350 0.04600
C 	C 	0.10191 0.33170 0.42740 -0.01400
H 	H 	0.12090 0.32840 0.47630 0.02800
C 	C 	0.10443 0.35560 0.33010 -0.09000
H 	H 	0.12520 0.36750 0.31180 0.05900
C 	C 	0.11102 0.39510 0.11530 0.10200
C 	C 	0.12324 0.47180 0.09460 -0.15900
H 	H 	0.11090 0.51730 0.10570 0.08400
C 	C 	0.15371 0.48060 0.05750 0.05900
H 	H 	0.16180 0.53170 0.04610 -0.00000
C 	C 	0.17207 0.41300 0.03740 -0.15600
C 	C 	0.16051 0.33800 0.05940 0.07400
H 	H 	0.17270 0.29240 0.04730 0.01200
C 	C 	0.13088 0.32990 0.09930 -0.16300
H 	H 	0.12400 0.27880 0.11600 0.08600
C 	C 	0.20386 0.42320 0.99210 0.33800
O 	O 	0.71425 0.13150 0.50580 -0.55200
C 	C 	0.68682 0.15130 0.45400 0.38400
C 	C 	0.81379 0.16960 0.51900 0.37600
Cl	Cl	0.74879 0.22962 0.75570 -0.70300
