data_crystal

_cell_length_a 88.79000
_cell_length_b 13.98800
_cell_length_c 27.88800
_cell_angle_alpha 90.00000
_cell_angle_beta  90.00000
_cell_angle_gamma 90.00000

_symmetry_space_group_name_	'P 1'
_symmetry_space_group_name_H-M	'P 1'

loop_
_symmetry_equiv_pos_as_xyz
  x,y,z

loop_
_atom_site_label
_atom_site_type_symbol
_atom_site_fract_x
_atom_site_fract_y
_atom_site_fract_z
_atom_site_charge
C 	C 	0.13950 0.12920 0.39180 -0.02700
H 	H 	0.12960 0.12490 0.40270 0.04100
C 	C 	0.14850 0.05660 0.39950 -0.08600
H 	H 	0.14460 0.99910 0.41040 0.06900
C 	C 	0.16470 0.06390 0.39140 0.00300
H 	H 	0.17120 0.01660 0.40220 0.02100
C 	C 	0.17010 0.14350 0.36700 -0.10700
H 	H 	0.18020 0.14580 0.35880 0.06500
C 	C 	0.18260 0.31960 0.32840 0.12500
C 	C 	0.19110 0.26750 0.29300 -0.19800
H 	H 	0.18620 0.22000 0.27560 0.09700
C 	C 	0.20620 0.28480 0.28320 0.14200
H 	H 	0.21090 0.25410 0.25760 -0.02500
C 	C 	0.21420 0.34660 0.31120 -0.24400
C 	C 	0.20610 0.39880 0.35040 0.12500
H 	H 	0.21130 0.44210 0.36970 -0.01500
C 	C 	0.19160 0.38260 0.35720 -0.19600
H 	H 	0.18680 0.41420 0.38240 0.09400
C 	C 	0.22980 0.36810 0.30180 0.50300
C 	C 	0.23070 0.44810 0.19950 0.47900
C 	C 	0.21280 0.47180 0.18590 -0.18800
C 	C 	0.20560 0.43180 0.15480 0.16400
H 	H 	0.21050 0.38390 0.13770 -0.02600
C 	C 	0.19140 0.45000 0.14300 -0.21500
H 	H 	0.18730 0.42170 0.11580 0.10100
C 	C 	0.18240 0.51280 0.17150 0.11600
C 	C 	0.19060 0.55880 0.20920 -0.16800
H 	H 	0.18540 0.59970 0.22960 0.08700
C 	C 	0.20550 0.54650 0.21700 0.07900
H 	H 	0.21080 0.58140 0.23980 0.01300
C 	C 	0.15630 0.44720 0.17370 0.03600
C 	C 	0.14030 0.45910 0.15930 0.00300
C 	C 	0.13510 0.54210 0.14410 -0.02200
C 	C 	0.14460 0.62170 0.13690 0.00000
C 	C 	0.16110 0.61730 0.14410 0.03900
C 	C 	0.16600 0.52360 0.16420 -0.07600
C 	C 	0.16140 0.36000 0.19690 -0.08200
H 	H 	0.17120 0.35830 0.20840 0.06300
C 	C 	0.15290 0.28240 0.20290 -0.02000
H 	H 	0.15680 0.22560 0.21520 0.03900
C 	C 	0.13740 0.29270 0.18890 -0.03900
H 	H 	0.13110 0.24020 0.19290 0.04600
C 	C 	0.13130 0.37420 0.17030 -0.06000
H 	H 	0.12100 0.37600 0.16450 0.05500
C 	C 	0.13910 0.70860 0.11830 -0.05600
H 	H 	0.12890 0.71500 0.11270 0.05200
C 	C 	0.14860 0.78580 0.10800 -0.05400
H 	H 	0.14480 0.84340 0.09650 0.05300
C 	C 	0.16520 0.77160 0.11660 -0.00900
H 	H 	0.17190 0.82030 0.10840 0.03200
C 	C 	0.17050 0.69250 0.13520 -0.09800
H 	H 	0.18070 0.68750 0.14230 0.06300
C 	C 	0.11830 0.54850 0.13160 0.01300
C 	C 	0.10720 0.55600 0.17110 -0.03700
C 	C 	0.09170 0.55240 0.16020 0.07300
C 	C 	0.08620 0.54350 0.11120 -0.14700
C 	C 	0.09780 0.54590 0.07290 0.07800
C 	C 	0.11290 0.54570 0.08870 -0.03900
C 	C 	0.12430 0.54410 0.04580 -0.01700
H 	H 	0.13460 0.54570 0.05120 0.04000
C 	C 	0.11880 0.54030 0.00070 -0.10000
H 	H 	0.12570 0.53900 0.97570 0.06700
C 	C 	0.10330 0.53820 0.98870 0.05600
H 	H 	0.10030 0.53190 0.95690 0.01500
C 	C 	0.09370 0.54510 0.02180 -0.14600
H 	H 	0.08360 0.54980 0.01360 0.07900
C 	C 	0.11130 0.56140 0.22130 -0.01500
H 	H 	0.12140 0.55920 0.23000 0.04100
C 	C 	0.10090 0.56930 0.25500 -0.09300
H 	H 	0.10360 0.58080 0.28660 0.06200
C 	C 	0.08590 0.56060 0.24300 0.04100
H 	H 	0.07910 0.55540 0.26830 0.01100
C 	C 	0.08030 0.55870 0.20060 -0.13400
H 	H 	0.07000 0.56110 0.19510 0.07400
C 	C 	0.07030 0.53340 0.09710 0.28700
C 	C 	0.06440 0.44930 0.09890 -0.37800
H 	H 	0.07000 0.39880 0.11140 0.16000
C 	C 	0.04990 0.43270 0.08260 0.27900
H 	H 	0.04650 0.37010 0.08010 -0.06600
C 	C 	0.04030 0.50640 0.06980 -0.38700
C 	C 	0.04710 0.59650 0.06990 0.28600
H 	H 	0.04180 0.64850 0.05780 -0.08800
C 	C 	0.06130 0.61100 0.08710 -0.36600
H 	H 	0.06490 0.67270 0.09200 0.15200
C 	C 	0.02470 0.48670 0.05320 0.67700
C 	C 	0.16670 0.30290 0.33770 -0.09400
C 	C 	0.16060 0.22180 0.35410 0.05700
C 	C 	0.14410 0.21450 0.36740 -0.01900
C 	C 	0.13510 0.29060 0.35960 -0.00500
C 	C 	0.14070 0.37590 0.33720 -0.01200
C 	C 	0.15760 0.38600 0.32770 0.04800
C 	C 	0.16230 0.47440 0.30580 -0.10700
H 	H 	0.17220 0.48250 0.29570 0.07000
C 	C 	0.15230 0.54410 0.30010 0.01000
H 	H 	0.15560 0.60000 0.28550 0.02900
C 	C 	0.13780 0.54020 0.31380 -0.06600
H 	H 	0.13170 0.59370 0.31000 0.05400
C 	C 	0.13230 0.46480 0.33200 -0.03500
H 	H 	0.12240 0.46620 0.34250 0.04700
C 	C 	0.11910 0.28300 0.37110 -0.00800
C 	C 	0.11430 0.28480 0.42150 -0.01500
C 	C 	0.09920 0.28540 0.43490 0.05600
C 	C 	0.08810 0.28350 0.40030 -0.10600
C 	C 	0.09110 0.28210 0.34990 0.06200
C 	C 	0.10740 0.28430 0.33910 -0.01300
C 	C 	0.11180 0.27600 0.28870 -0.04900
H 	H 	0.12190 0.27230 0.28010 0.05400
C 	C 	0.09990 0.27490 0.25230 -0.05600
H 	H 	0.10250 0.27020 0.22000 0.04800
C 	C 	0.08500 0.28050 0.26580 -0.00200
H 	H 	0.07750 0.28460 0.24280 0.02400
C 	C 	0.08150 0.27990 0.31500 -0.11400
H 	H 	0.07130 0.27790 0.32310 0.06700
C 	C 	0.09490 0.28680 0.48340 -0.09100
H 	H 	0.08480 0.28210 0.49210 0.06400
C 	C 	0.10660 0.29580 0.51960 -0.02500
H 	H 	0.10430 0.30040 0.55210 0.04400
C 	C 	0.12200 0.29720 0.50300 -0.03600
H 	H 	0.12940 0.30080 0.52640 0.04300
C 	C 	0.12640 0.29420 0.46010 -0.05300
H 	H 	0.13660 0.29750 0.45230 0.05200
C 	C 	0.07090 0.29090 0.41580 0.19400
C 	C 	0.06450 0.21270 0.43470 -0.27000
H 	H 	0.06970 0.15500 0.43660 0.12100
C 	C 	0.04940 0.22190 0.45180 0.19000
H 	H 	0.04490 0.17010 0.46710 -0.03700
C 	C 	0.04150 0.30270 0.44640 -0.29500
C 	C 	0.04910 0.37830 0.42430 0.20100
H 	H 	0.04370 0.43350 0.41740 -0.04400
C 	C 	0.06390 0.37590 0.41240 -0.28900
H 	H 	0.06900 0.43050 0.40230 0.13000
C 	C 	0.02530 0.31510 0.46450 0.57100
O 	O 	0.23670 0.50820 0.22880 -0.54700
O 	O 	0.23460 0.36980 0.18190 -0.55400
O 	O 	0.01650 0.56160 0.05510 -0.61000
O 	O 	0.02026 0.41240 0.04520 -0.62000
O 	O 	0.01851 0.38880 0.45790 -0.61200
O 	O 	0.01990 0.24280 0.48650 -0.55500
O 	O 	0.23660 0.44070 0.32140 -0.51400
O 	O 	0.23750 0.31490 0.27580 -0.52800
Tb	Tb	0.25101 0.56192 0.28702 1.84300
C 	C 	0.13950 0.62920 0.89180 -0.05100
H 	H 	0.12960 0.62490 0.90270 0.05000
C 	C 	0.14850 0.55660 0.89950 -0.04900
H 	H 	0.14460 0.49910 0.91040 0.04800
C 	C 	0.16470 0.56390 0.89140 -0.01800
H 	H 	0.17120 0.51660 0.90220 0.03100
C 	C 	0.17010 0.64350 0.86700 -0.09400
H 	H 	0.18020 0.64580 0.85880 0.06000
C 	C 	0.18260 0.81960 0.82840 0.12300
C 	C 	0.19110 0.76750 0.79300 -0.19600
H 	H 	0.18620 0.72000 0.77560 0.09600
C 	C 	0.20620 0.78480 0.78320 0.14200
H 	H 	0.21090 0.75410 0.75760 -0.02400
C 	C 	0.21420 0.84660 0.81120 -0.24100
C 	C 	0.20610 0.89880 0.85040 0.12500
H 	H 	0.21130 0.94210 0.86970 -0.01200
C 	C 	0.19160 0.88260 0.85720 -0.19300
H 	H 	0.18680 0.91420 0.88240 0.09600
C 	C 	0.22980 0.86810 0.80180 0.50300
C 	C 	0.23070 0.94810 0.69950 0.48300
C 	C 	0.21280 0.97180 0.68590 -0.16100
C 	C 	0.20560 0.93180 0.65480 0.13100
H 	H 	0.21050 0.88390 0.63770 -0.01400
C 	C 	0.19140 0.95000 0.64300 -0.18000
H 	H 	0.18730 0.92170 0.61580 0.09100
C 	C 	0.18240 0.01280 0.67150 0.09100
C 	C 	0.19060 0.05880 0.70920 -0.14800
H 	H 	0.18540 0.09970 0.72960 0.07900
C 	C 	0.20550 0.04650 0.71700 0.05000
H 	H 	0.21080 0.08140 0.73980 0.02200
C 	C 	0.15630 0.94720 0.67370 0.03900
C 	C 	0.14030 0.95910 0.65930 0.01800
C 	C 	0.13510 0.04210 0.64410 -0.03400
C 	C 	0.14460 0.12170 0.63690 0.00500
C 	C 	0.16110 0.11730 0.64410 0.03500
C 	C 	0.16600 0.02360 0.66420 -0.07600
C 	C 	0.16140 0.86000 0.69690 -0.08000
H 	H 	0.17120 0.85830 0.70840 0.06400
C 	C 	0.15290 0.78240 0.70290 -0.02300
H 	H 	0.15680 0.72560 0.71520 0.04000
C 	C 	0.13740 0.79270 0.68890 -0.03400
H 	H 	0.13110 0.74020 0.69290 0.04400
C 	C 	0.13130 0.87420 0.67030 -0.06600
H 	H 	0.12100 0.87600 0.66450 0.06000
C 	C 	0.13910 0.20860 0.61830 -0.06000
H 	H 	0.12890 0.21500 0.61270 0.05400
C 	C 	0.14860 0.28580 0.60800 -0.05100
H 	H 	0.14480 0.34340 0.59650 0.05000
C 	C 	0.16520 0.27160 0.61660 -0.01300
H 	H 	0.17190 0.32030 0.60840 0.03200
C 	C 	0.17050 0.19250 0.63520 -0.09400
H 	H 	0.18070 0.18750 0.64230 0.06100
C 	C 	0.11830 0.04850 0.63160 0.00900
C 	C 	0.10720 0.05600 0.67110 -0.03600
C 	C 	0.09170 0.05240 0.66020 0.06800
C 	C 	0.08620 0.04350 0.61120 -0.14200
C 	C 	0.09780 0.04590 0.57290 0.06200
C 	C 	0.11290 0.04570 0.58870 -0.02800
C 	C 	0.12430 0.04410 0.54580 -0.04200
H 	H 	0.13460 0.04570 0.55120 0.04700
C 	C 	0.11880 0.04030 0.50070 -0.06100
H 	H 	0.12570 0.03900 0.47570 0.04900
C 	C 	0.10330 0.03820 0.48870 0.00900
H 	H 	0.10030 0.03190 0.45690 0.02800
C 	C 	0.09370 0.04510 0.52180 -0.11200
H 	H 	0.08360 0.04980 0.51360 0.06600
C 	C 	0.11130 0.06140 0.72130 -0.01900
H 	H 	0.12140 0.05920 0.73000 0.04100
C 	C 	0.10090 0.06930 0.75500 -0.09200
H 	H 	0.10360 0.08080 0.78660 0.05900
C 	C 	0.08590 0.06060 0.74300 0.03700
H 	H 	0.07910 0.05540 0.76830 0.01000
C 	C 	0.08030 0.05870 0.70060 -0.13300
H 	H 	0.07000 0.06110 0.69510 0.07100
C 	C 	0.07030 0.03340 0.59710 0.27800
C 	C 	0.06440 0.94930 0.59890 -0.37400
H 	H 	0.07000 0.89880 0.61140 0.16100
C 	C 	0.04990 0.93270 0.58260 0.30700
H 	H 	0.04650 0.87010 0.58010 -0.07500
C 	C 	0.04030 0.00640 0.56980 -0.42500
C 	C 	0.04710 0.09650 0.56990 0.30300
H 	H 	0.04180 0.14850 0.55780 -0.09400
C 	C 	0.06130 0.11100 0.58710 -0.37300
H 	H 	0.06490 0.17270 0.59200 0.15400
C 	C 	0.02470 0.98670 0.55320 0.71500
C 	C 	0.16670 0.80290 0.83770 -0.08800
C 	C 	0.16060 0.72180 0.85410 0.04900
C 	C 	0.14410 0.71450 0.86740 -0.00800
C 	C 	0.13510 0.79060 0.85960 -0.00800
C 	C 	0.14070 0.87590 0.83720 -0.01400
C 	C 	0.15760 0.88600 0.82770 0.04600
C 	C 	0.16230 0.97440 0.80580 -0.09300
H 	H 	0.17220 0.98250 0.79570 0.06900
C 	C 	0.15230 0.04410 0.80010 0.00300
H 	H 	0.15560 0.10000 0.78550 0.03100
C 	C 	0.13780 0.04020 0.81380 -0.08500
H 	H 	0.13170 0.09370 0.81000 0.06000
C 	C 	0.13230 0.96480 0.83200 -0.01500
H 	H 	0.12240 0.96620 0.84250 0.04300
C 	C 	0.11910 0.78300 0.87110 -0.00500
C 	C 	0.11430 0.78480 0.92150 -0.01800
C 	C 	0.09920 0.78540 0.93490 0.05700
C 	C 	0.08810 0.78350 0.90030 -0.10600
C 	C 	0.09110 0.78210 0.84990 0.06300
C 	C 	0.10740 0.78430 0.83910 -0.01300
C 	C 	0.11180 0.77600 0.78870 -0.04800
H 	H 	0.12190 0.77230 0.78010 0.05400
C 	C 	0.09990 0.77490 0.75230 -0.05500
H 	H 	0.10250 0.77020 0.72000 0.04900
C 	C 	0.08500 0.78050 0.76580 0.00000
H 	H 	0.07750 0.78460 0.74280 0.02600
C 	C 	0.08150 0.77990 0.81500 -0.11300
H 	H 	0.07130 0.77790 0.82310 0.06800
C 	C 	0.09490 0.78680 0.98340 -0.08900
H 	H 	0.08480 0.78210 0.99210 0.06500
C 	C 	0.10660 0.79580 0.01960 -0.02500
H 	H 	0.10430 0.80040 0.05210 0.04400
C 	C 	0.12200 0.79720 0.00300 -0.04500
H 	H 	0.12940 0.80080 0.02640 0.04700
C 	C 	0.12640 0.79420 0.96010 -0.04300
H 	H 	0.13660 0.79750 0.95230 0.05100
C 	C 	0.07090 0.79090 0.91580 0.19300
C 	C 	0.06450 0.71270 0.93470 -0.26700
H 	H 	0.06970 0.65500 0.93660 0.12100
C 	C 	0.04940 0.72190 0.95180 0.18700
H 	H 	0.04490 0.67010 0.96710 -0.03400
C 	C 	0.04150 0.80270 0.94640 -0.28900
C 	C 	0.04910 0.87830 0.92430 0.19900
H 	H 	0.04370 0.93350 0.91740 -0.03900
C 	C 	0.06390 0.87590 0.91240 -0.28600
H 	H 	0.06900 0.93050 0.90230 0.13200
C 	C 	0.02530 0.81510 0.96450 0.56800
O 	O 	0.23670 0.00820 0.72880 -0.55400
O 	O 	0.23460 0.86980 0.68190 -0.55400
O 	O 	0.01650 0.06160 0.55510 -0.62700
O 	O 	0.02026 0.91240 0.54520 -0.63000
O 	O 	0.01851 0.88880 0.95790 -0.60100
O 	O 	0.01990 0.74280 0.98650 -0.55000
O 	O 	0.23660 0.94070 0.82140 -0.50800
O 	O 	0.23750 0.81490 0.77580 -0.52600
Tb	Tb	0.25101 0.06192 0.78702 1.83400
C 	C 	0.63950 0.12920 0.89180 -0.02700
H 	H 	0.62960 0.12490 0.90270 0.04000
C 	C 	0.64850 0.05660 0.89950 -0.08700
H 	H 	0.64460 0.99910 0.91040 0.06800
C 	C 	0.66470 0.06390 0.89140 0.00200
H 	H 	0.67120 0.01660 0.90220 0.02000
C 	C 	0.67010 0.14350 0.86700 -0.10800
H 	H 	0.68020 0.14580 0.85880 0.06400
C 	C 	0.68260 0.31960 0.82840 0.12500
C 	C 	0.69110 0.26750 0.79300 -0.19800
H 	H 	0.68620 0.22000 0.77560 0.09700
C 	C 	0.70620 0.28480 0.78320 0.14200
H 	H 	0.71090 0.25410 0.75760 -0.02500
C 	C 	0.71420 0.34660 0.81120 -0.24300
C 	C 	0.70610 0.39880 0.85040 0.12500
H 	H 	0.71130 0.44210 0.86970 -0.01500
C 	C 	0.69160 0.38260 0.85720 -0.19600
H 	H 	0.68680 0.41420 0.88240 0.09500
C 	C 	0.72980 0.36810 0.80180 0.50300
C 	C 	0.73070 0.44810 0.69950 0.48000
C 	C 	0.71280 0.47180 0.68590 -0.18800
C 	C 	0.70560 0.43180 0.65480 0.16400
H 	H 	0.71050 0.38390 0.63770 -0.02600
C 	C 	0.69140 0.45000 0.64300 -0.21500
H 	H 	0.68730 0.42170 0.61580 0.10200
C 	C 	0.68240 0.51280 0.67150 0.11600
C 	C 	0.69060 0.55880 0.70920 -0.16800
H 	H 	0.68540 0.59970 0.72960 0.08700
C 	C 	0.70550 0.54650 0.71700 0.08000
H 	H 	0.71080 0.58140 0.73980 0.01300
C 	C 	0.65630 0.44720 0.67370 0.03700
C 	C 	0.64030 0.45910 0.65930 0.00200
C 	C 	0.63510 0.54210 0.64410 -0.01900
C 	C 	0.64460 0.62170 0.63690 -0.00100
C 	C 	0.66110 0.61730 0.64410 0.04000
C 	C 	0.66600 0.52360 0.66420 -0.07700
C 	C 	0.66140 0.36000 0.69690 -0.08200
H 	H 	0.67120 0.35830 0.70840 0.06300
C 	C 	0.65290 0.28240 0.70290 -0.01900
H 	H 	0.65680 0.22560 0.71520 0.03900
C 	C 	0.63740 0.29270 0.68890 -0.04000
H 	H 	0.63110 0.24020 0.69290 0.04600
C 	C 	0.63130 0.37420 0.67030 -0.05800
H 	H 	0.62100 0.37600 0.66450 0.05500
C 	C 	0.63910 0.70860 0.61830 -0.05500
H 	H 	0.62890 0.71500 0.61270 0.05200
C 	C 	0.64860 0.78580 0.60800 -0.05400
H 	H 	0.64480 0.84340 0.59650 0.05400
C 	C 	0.66520 0.77160 0.61660 -0.00900
H 	H 	0.67190 0.82030 0.60840 0.03200
C 	C 	0.67050 0.69250 0.63520 -0.09800
H 	H 	0.68070 0.68750 0.64230 0.06400
C 	C 	0.61830 0.54850 0.63160 0.00500
C 	C 	0.60720 0.55600 0.67110 -0.03200
C 	C 	0.59170 0.55240 0.66020 0.06800
C 	C 	0.58620 0.54350 0.61120 -0.14000
C 	C 	0.59780 0.54590 0.57290 0.06200
C 	C 	0.61290 0.54570 0.58870 -0.02400
C 	C 	0.62430 0.54410 0.54580 -0.04200
H 	H 	0.63460 0.54570 0.55120 0.04900
C 	C 	0.61880 0.54030 0.50070 -0.05900
H 	H 	0.62570 0.53900 0.47570 0.05100
C 	C 	0.60330 0.53820 0.48870 0.00900
H 	H 	0.60030 0.53190 0.45690 0.03100
C 	C 	0.59370 0.54510 0.52180 -0.10900
H 	H 	0.58360 0.54980 0.51360 0.06700
C 	C 	0.61130 0.56140 0.72130 -0.02000
H 	H 	0.62140 0.55920 0.73000 0.04300
C 	C 	0.60090 0.56930 0.75500 -0.08800
H 	H 	0.60360 0.58080 0.78660 0.06000
C 	C 	0.58590 0.56060 0.74300 0.03600
H 	H 	0.57910 0.55540 0.76830 0.01300
C 	C 	0.58030 0.55870 0.70060 -0.12900
H 	H 	0.57000 0.56110 0.69510 0.07200
C 	C 	0.57030 0.53340 0.59710 0.28200
C 	C 	0.56440 0.44930 0.59890 -0.37400
H 	H 	0.57000 0.39880 0.61140 0.15800
C 	C 	0.54990 0.43270 0.58260 0.27700
H 	H 	0.54650 0.37010 0.58010 -0.06500
C 	C 	0.54030 0.50640 0.56980 -0.38500
C 	C 	0.54710 0.59650 0.56990 0.28300
H 	H 	0.54180 0.64850 0.55780 -0.08600
C 	C 	0.56130 0.61100 0.58710 -0.36100
H 	H 	0.56490 0.67270 0.59200 0.15100
C 	C 	0.52470 0.48670 0.55320 0.67600
C 	C 	0.66670 0.30290 0.83770 -0.09400
C 	C 	0.66060 0.22180 0.85410 0.05800
C 	C 	0.64410 0.21450 0.86740 -0.01900
C 	C 	0.63510 0.29060 0.85960 -0.00600
C 	C 	0.64070 0.37590 0.83720 -0.01200
C 	C 	0.65760 0.38600 0.82770 0.04800
C 	C 	0.66230 0.47440 0.80580 -0.10600
H 	H 	0.67220 0.48250 0.79570 0.07000
C 	C 	0.65230 0.54410 0.80010 0.01000
H 	H 	0.65560 0.60000 0.78550 0.02900
C 	C 	0.63780 0.54020 0.81380 -0.06600
H 	H 	0.63170 0.59370 0.81000 0.05400
C 	C 	0.63230 0.46480 0.83200 -0.03500
H 	H 	0.62240 0.46620 0.84250 0.04700
C 	C 	0.61910 0.28300 0.87110 -0.00700
C 	C 	0.61430 0.28480 0.92150 -0.01700
C 	C 	0.59920 0.28540 0.93490 0.05600
C 	C 	0.58810 0.28350 0.90030 -0.10600
C 	C 	0.59110 0.28210 0.84990 0.06200
C 	C 	0.60740 0.28430 0.83910 -0.01400
C 	C 	0.61180 0.27600 0.78870 -0.04900
H 	H 	0.62190 0.27230 0.78010 0.05400
C 	C 	0.59990 0.27490 0.75230 -0.05600
H 	H 	0.60250 0.27020 0.72000 0.04800
C 	C 	0.58500 0.28050 0.76580 -0.00100
H 	H 	0.57750 0.28460 0.74280 0.02400
C 	C 	0.58150 0.27990 0.81500 -0.11400
H 	H 	0.57130 0.27790 0.82310 0.06700
C 	C 	0.59490 0.28680 0.98340 -0.08900
H 	H 	0.58480 0.28210 0.99210 0.06400
C 	C 	0.60660 0.29580 0.01960 -0.02600
H 	H 	0.60430 0.30040 0.05210 0.04400
C 	C 	0.62200 0.29720 0.00300 -0.04500
H 	H 	0.62940 0.30080 0.02640 0.04600
C 	C 	0.62640 0.29420 0.96010 -0.04400
H 	H 	0.63660 0.29750 0.95230 0.05000
C 	C 	0.57090 0.29090 0.91580 0.19400
C 	C 	0.56450 0.21270 0.93470 -0.26900
H 	H 	0.56970 0.15500 0.93660 0.12100
C 	C 	0.54940 0.22190 0.95180 0.18900
H 	H 	0.54490 0.17010 0.96710 -0.03600
C 	C 	0.54150 0.30270 0.94640 -0.29400
C 	C 	0.54910 0.37830 0.92430 0.20100
H 	H 	0.54370 0.43350 0.91740 -0.04400
C 	C 	0.56390 0.37590 0.91240 -0.28900
H 	H 	0.56900 0.43050 0.90230 0.12900
C 	C 	0.52530 0.31510 0.96450 0.57100
O 	O 	0.73670 0.50820 0.72880 -0.54700
O 	O 	0.73460 0.36980 0.68190 -0.55400
O 	O 	0.51650 0.56160 0.55510 -0.61000
O 	O 	0.52026 0.41240 0.54520 -0.61900
O 	O 	0.51851 0.38880 0.95790 -0.61200
O 	O 	0.51990 0.24280 0.98650 -0.55300
O 	O 	0.73660 0.44070 0.82140 -0.51400
O 	O 	0.73750 0.31490 0.77580 -0.52800
Tb	Tb	0.75101 0.56192 0.78702 1.84400
C 	C 	0.63950 0.62920 0.39180 -0.05100
H 	H 	0.62960 0.62490 0.40270 0.05000
C 	C 	0.64850 0.55660 0.39950 -0.05000
H 	H 	0.64460 0.49910 0.41040 0.04800
C 	C 	0.66470 0.56390 0.39140 -0.01800
H 	H 	0.67120 0.51660 0.40220 0.03100
C 	C 	0.67010 0.64350 0.36700 -0.09400
H 	H 	0.68020 0.64580 0.35880 0.06000
C 	C 	0.68260 0.81960 0.32840 0.12300
C 	C 	0.69110 0.76750 0.29300 -0.19600
H 	H 	0.68620 0.72000 0.27560 0.09600
C 	C 	0.70620 0.78480 0.28320 0.14200
H 	H 	0.71090 0.75410 0.25760 -0.02400
C 	C 	0.71420 0.84660 0.31120 -0.24100
C 	C 	0.70610 0.89880 0.35040 0.12500
H 	H 	0.71130 0.94210 0.36970 -0.01300
C 	C 	0.69160 0.88260 0.35720 -0.19400
H 	H 	0.68680 0.91420 0.38240 0.09600
C 	C 	0.72980 0.86810 0.30180 0.50300
C 	C 	0.73070 0.94810 0.19950 0.48300
C 	C 	0.71280 0.97180 0.18590 -0.16200
C 	C 	0.70560 0.93180 0.15480 0.13100
H 	H 	0.71050 0.88390 0.13770 -0.01500
C 	C 	0.69140 0.95000 0.14300 -0.18100
H 	H 	0.68730 0.92170 0.11580 0.09100
C 	C 	0.68240 0.01280 0.17150 0.09200
C 	C 	0.69060 0.05880 0.20920 -0.14800
H 	H 	0.68540 0.09970 0.22960 0.07900
C 	C 	0.70550 0.04650 0.21700 0.05100
H 	H 	0.71080 0.08140 0.23980 0.02100
C 	C 	0.65630 0.94720 0.17370 0.03900
C 	C 	0.64030 0.95910 0.15930 0.01900
C 	C 	0.63510 0.04210 0.14410 -0.03700
C 	C 	0.64460 0.12170 0.13690 0.00600
C 	C 	0.66110 0.11730 0.14410 0.03400
C 	C 	0.66600 0.02360 0.16420 -0.07600
C 	C 	0.66140 0.86000 0.19690 -0.07900
H 	H 	0.67120 0.85830 0.20840 0.06400
C 	C 	0.65290 0.78240 0.20290 -0.02400
H 	H 	0.65680 0.72560 0.21520 0.04100
C 	C 	0.63740 0.79270 0.18890 -0.03300
H 	H 	0.63110 0.74020 0.19290 0.04400
C 	C 	0.63130 0.87420 0.17030 -0.06700
H 	H 	0.62100 0.87600 0.16450 0.06000
C 	C 	0.63910 0.20860 0.11830 -0.06100
H 	H 	0.62890 0.21500 0.11270 0.05400
C 	C 	0.64860 0.28580 0.10800 -0.05100
H 	H 	0.64480 0.34340 0.09650 0.04900
C 	C 	0.66520 0.27160 0.11660 -0.01400
H 	H 	0.67190 0.32030 0.10840 0.03200
C 	C 	0.67050 0.19250 0.13520 -0.09400
H 	H 	0.68070 0.18750 0.14230 0.06100
C 	C 	0.61830 0.04850 0.13160 0.01600
C 	C 	0.60720 0.05600 0.17110 -0.04000
C 	C 	0.59170 0.05240 0.16020 0.07300
C 	C 	0.58620 0.04350 0.11120 -0.14900
C 	C 	0.59780 0.04590 0.07290 0.07700
C 	C 	0.61290 0.04570 0.08870 -0.04100
C 	C 	0.62430 0.04410 0.04580 -0.01900
H 	H 	0.63460 0.04570 0.05120 0.03800
C 	C 	0.61880 0.04030 0.00070 -0.09900
H 	H 	0.62570 0.03900 0.97570 0.06400
C 	C 	0.60330 0.03820 0.98870 0.05200
H 	H 	0.60030 0.03190 0.95690 0.01400
C 	C 	0.59370 0.04510 0.02180 -0.14500
H 	H 	0.58360 0.04980 0.01360 0.07700
C 	C 	0.61130 0.06140 0.22130 -0.01500
H 	H 	0.62140 0.05920 0.23000 0.03900
C 	C 	0.60090 0.06930 0.25500 -0.09600
H 	H 	0.60360 0.08080 0.28660 0.06100
C 	C 	0.58590 0.06060 0.24300 0.04200
H 	H 	0.57910 0.05540 0.26830 0.00900
C 	C 	0.58030 0.05870 0.20060 -0.13700
H 	H 	0.57000 0.06110 0.19510 0.07300
C 	C 	0.57030 0.03340 0.09710 0.28300
C 	C 	0.56440 0.94930 0.09890 -0.37800
H 	H 	0.57000 0.89880 0.11140 0.16300
C 	C 	0.54990 0.93270 0.08260 0.30900
H 	H 	0.54650 0.87010 0.08010 -0.07600
C 	C 	0.54030 0.00640 0.06980 -0.42600
C 	C 	0.54710 0.09650 0.06990 0.30500
H 	H 	0.54180 0.14850 0.05780 -0.09500
C 	C 	0.56130 0.11100 0.08710 -0.37700
H 	H 	0.56490 0.17270 0.09200 0.15500
C 	C 	0.52470 0.98670 0.05320 0.71400
C 	C 	0.66670 0.80290 0.33770 -0.08800
C 	C 	0.66060 0.72180 0.35410 0.04900
C 	C 	0.64410 0.71450 0.36740 -0.00900
C 	C 	0.63510 0.79060 0.35960 -0.00800
C 	C 	0.64070 0.87590 0.33720 -0.01400
C 	C 	0.65760 0.88600 0.32770 0.04600
C 	C 	0.66230 0.97440 0.30580 -0.09400
H 	H 	0.67220 0.98250 0.29570 0.06900
C 	C 	0.65230 0.04410 0.30010 0.00300
H 	H 	0.65560 0.10000 0.28550 0.03100
C 	C 	0.63780 0.04020 0.31380 -0.08500
H 	H 	0.63170 0.09370 0.31000 0.06000
C 	C 	0.63230 0.96480 0.33200 -0.01500
H 	H 	0.62240 0.96620 0.34250 0.04300
C 	C 	0.61910 0.78300 0.37110 -0.00600
C 	C 	0.61430 0.78480 0.42150 -0.01500
C 	C 	0.59920 0.78540 0.43490 0.05600
C 	C 	0.58810 0.78350 0.40030 -0.10600
C 	C 	0.59110 0.78210 0.34990 0.06300
C 	C 	0.60740 0.78430 0.33910 -0.01300
C 	C 	0.61180 0.77600 0.28870 -0.04800
H 	H 	0.62190 0.77230 0.28010 0.05400
C 	C 	0.59990 0.77490 0.25230 -0.05500
H 	H 	0.60250 0.77020 0.22000 0.04900
C 	C 	0.58500 0.78050 0.26580 -0.00000
H 	H 	0.57750 0.78460 0.24280 0.02600
C 	C 	0.58150 0.77990 0.31500 -0.11300
H 	H 	0.57130 0.77790 0.32310 0.06800
C 	C 	0.59490 0.78680 0.48340 -0.09200
H 	H 	0.58480 0.78210 0.49210 0.06400
C 	C 	0.60660 0.79580 0.51960 -0.02400
H 	H 	0.60430 0.80040 0.55210 0.04400
C 	C 	0.62200 0.79720 0.50300 -0.03600
H 	H 	0.62940 0.80080 0.52640 0.04500
C 	C 	0.62640 0.79420 0.46010 -0.05300
H 	H 	0.63660 0.79750 0.45230 0.05300
C 	C 	0.57090 0.79090 0.41580 0.19400
C 	C 	0.56450 0.71270 0.43470 -0.26800
H 	H 	0.56970 0.65500 0.43660 0.12100
C 	C 	0.54940 0.72190 0.45180 0.18800
H 	H 	0.54490 0.67010 0.46710 -0.03500
C 	C 	0.54150 0.80270 0.44640 -0.29000
C 	C 	0.54910 0.87830 0.42430 0.19900
H 	H 	0.54370 0.93350 0.41740 -0.03900
C 	C 	0.56390 0.87590 0.41240 -0.28700
H 	H 	0.56900 0.93050 0.40230 0.13200
C 	C 	0.52530 0.81510 0.46450 0.56900
O 	O 	0.73670 0.00820 0.22880 -0.55400
O 	O 	0.73460 0.86980 0.18190 -0.55500
O 	O 	0.51650 0.06160 0.05510 -0.62600
O 	O 	0.52026 0.91240 0.04520 -0.63000
O 	O 	0.51851 0.88880 0.45790 -0.60200
O 	O 	0.51990 0.74280 0.48650 -0.55300
O 	O 	0.73660 0.94070 0.32140 -0.50800
O 	O 	0.73750 0.81490 0.27580 -0.52600
Tb	Tb	0.75101 0.06192 0.28702 1.83400
C 	C 	0.86050 0.87080 0.39180 -0.08200
H 	H 	0.87040 0.87510 0.40270 0.06200
C 	C 	0.85150 0.94340 0.39950 -0.00300
H 	H 	0.85540 0.00090 0.41040 0.02400
C 	C 	0.83530 0.93610 0.39140 -0.04400
H 	H 	0.82880 0.98340 0.40220 0.04400
C 	C 	0.82990 0.85650 0.36700 -0.07600
H 	H 	0.81980 0.85420 0.35880 0.05500
C 	C 	0.81740 0.68040 0.32840 0.11900
C 	C 	0.80890 0.73250 0.29300 -0.19400
H 	H 	0.81380 0.78000 0.27560 0.09600
C 	C 	0.79380 0.71520 0.28320 0.14100
H 	H 	0.78910 0.74590 0.25760 -0.02400
C 	C 	0.78580 0.65340 0.31120 -0.24100
C 	C 	0.79390 0.60120 0.35040 0.12300
H 	H 	0.78870 0.55790 0.36970 -0.01400
C 	C 	0.80840 0.61740 0.35720 -0.19200
H 	H 	0.81320 0.58580 0.38240 0.09300
C 	C 	0.77020 0.63190 0.30180 0.50300
C 	C 	0.76930 0.55190 0.19950 0.47900
C 	C 	0.78720 0.52820 0.18590 -0.18800
C 	C 	0.79440 0.56820 0.15480 0.16300
H 	H 	0.78950 0.61610 0.13770 -0.02600
C 	C 	0.80860 0.55000 0.14300 -0.21500
H 	H 	0.81270 0.57830 0.11580 0.10100
C 	C 	0.81760 0.48720 0.17150 0.11500
C 	C 	0.80940 0.44120 0.20920 -0.16800
H 	H 	0.81460 0.40030 0.22960 0.08700
C 	C 	0.79450 0.45350 0.21700 0.07900
H 	H 	0.78920 0.41860 0.23980 0.01300
C 	C 	0.84370 0.55280 0.17370 0.03600
C 	C 	0.85970 0.54090 0.15930 0.00400
C 	C 	0.86490 0.45790 0.14410 -0.02200
C 	C 	0.85540 0.37830 0.13690 0.00100
C 	C 	0.83890 0.38270 0.14410 0.03800
C 	C 	0.83400 0.47640 0.16420 -0.07600
C 	C 	0.83860 0.64000 0.19690 -0.08200
H 	H 	0.82880 0.64170 0.20840 0.06300
C 	C 	0.84710 0.71760 0.20290 -0.02100
H 	H 	0.84320 0.77440 0.21520 0.03900
C 	C 	0.86260 0.70730 0.18890 -0.03900
H 	H 	0.86890 0.75980 0.19290 0.04600
C 	C 	0.86870 0.62580 0.17030 -0.06000
H 	H 	0.87900 0.62400 0.16450 0.05500
C 	C 	0.86090 0.29140 0.11830 -0.05800
H 	H 	0.87110 0.28500 0.11270 0.05300
C 	C 	0.85140 0.21420 0.10800 -0.05400
H 	H 	0.85520 0.15660 0.09650 0.04800
C 	C 	0.83480 0.22840 0.11660 -0.01200
H 	H 	0.82810 0.17970 0.10840 0.02900
C 	C 	0.82950 0.30750 0.13520 -0.09700
H 	H 	0.81930 0.31250 0.14230 0.06200
C 	C 	0.88170 0.45150 0.13160 0.01300
C 	C 	0.89280 0.44400 0.17110 -0.03700
C 	C 	0.90830 0.44760 0.16020 0.07300
C 	C 	0.91380 0.45650 0.11120 -0.14700
C 	C 	0.90220 0.45410 0.07290 0.07800
C 	C 	0.88710 0.45430 0.08870 -0.03900
C 	C 	0.87570 0.45590 0.04580 -0.01700
H 	H 	0.86540 0.45430 0.05120 0.03900
C 	C 	0.88120 0.45970 0.00070 -0.10000
H 	H 	0.87430 0.46100 0.97570 0.06700
C 	C 	0.89670 0.46180 0.98870 0.05500
H 	H 	0.89970 0.46810 0.95690 0.01500
C 	C 	0.90630 0.45490 0.02180 -0.14600
H 	H 	0.91640 0.45020 0.01360 0.07900
C 	C 	0.88870 0.43860 0.22130 -0.01600
H 	H 	0.87860 0.44080 0.23000 0.04100
C 	C 	0.89910 0.43070 0.25500 -0.09300
H 	H 	0.89640 0.41920 0.28660 0.06100
C 	C 	0.91410 0.43940 0.24300 0.04000
H 	H 	0.92090 0.44460 0.26830 0.01100
C 	C 	0.91970 0.44130 0.20060 -0.13400
H 	H 	0.93000 0.43890 0.19510 0.07400
C 	C 	0.92970 0.46660 0.09710 0.28700
C 	C 	0.93560 0.55070 0.09890 -0.37900
H 	H 	0.93000 0.60120 0.11140 0.16000
C 	C 	0.95010 0.56730 0.08260 0.28000
H 	H 	0.95350 0.62990 0.08010 -0.06700
C 	C 	0.95970 0.49360 0.06980 -0.38800
C 	C 	0.95290 0.40350 0.06990 0.28600
H 	H 	0.95820 0.35150 0.05780 -0.08900
C 	C 	0.93870 0.38900 0.08710 -0.36600
H 	H 	0.93510 0.32730 0.09200 0.15100
C 	C 	0.97530 0.51330 0.05320 0.67700
C 	C 	0.83330 0.69710 0.33770 -0.08100
C 	C 	0.83940 0.77820 0.35410 0.03600
C 	C 	0.85590 0.78550 0.36740 0.00800
C 	C 	0.86490 0.70940 0.35960 -0.02000
C 	C 	0.85930 0.62410 0.33720 -0.00200
C 	C 	0.84240 0.61400 0.32770 0.03900
C 	C 	0.83770 0.52560 0.30580 -0.09600
H 	H 	0.82780 0.51750 0.29570 0.06600
C 	C 	0.84770 0.45590 0.30010 -0.00200
H 	H 	0.84440 0.40000 0.28550 0.03300
C 	C 	0.86220 0.45980 0.31380 -0.05300
H 	H 	0.86830 0.40630 0.31000 0.05000
C 	C 	0.86770 0.53520 0.33200 -0.04700
H 	H 	0.87760 0.53380 0.34250 0.05100
C 	C 	0.88090 0.71700 0.37110 -0.00100
C 	C 	0.88570 0.71520 0.42150 -0.01800
C 	C 	0.90080 0.71460 0.43490 0.05700
C 	C 	0.91190 0.71650 0.40030 -0.10700
C 	C 	0.90890 0.71790 0.34990 0.06500
C 	C 	0.89260 0.71570 0.33910 -0.01600
C 	C 	0.88820 0.72400 0.28870 -0.04700
H 	H 	0.87810 0.72770 0.28010 0.05300
C 	C 	0.90010 0.72510 0.25230 -0.05700
H 	H 	0.89750 0.72980 0.22000 0.04900
C 	C 	0.91500 0.71950 0.26580 0.00100
H 	H 	0.92250 0.71540 0.24280 0.02500
C 	C 	0.91850 0.72010 0.31500 -0.11500
H 	H 	0.92870 0.72210 0.32310 0.06900
C 	C 	0.90510 0.71320 0.48340 -0.09300
H 	H 	0.91520 0.71790 0.49210 0.06500
C 	C 	0.89340 0.70420 0.51960 -0.02400
H 	H 	0.89570 0.69960 0.55210 0.04400
C 	C 	0.87800 0.70280 0.50300 -0.03800
H 	H 	0.87060 0.69920 0.52640 0.04400
C 	C 	0.87360 0.70580 0.46010 -0.05100
H 	H 	0.86340 0.70250 0.45230 0.05200
C 	C 	0.92910 0.70910 0.41580 0.19500
C 	C 	0.93550 0.78730 0.43470 -0.27000
H 	H 	0.93030 0.84500 0.43660 0.12300
C 	C 	0.95060 0.77810 0.45180 0.19100
H 	H 	0.95510 0.82990 0.46710 -0.03400
C 	C 	0.95850 0.69730 0.44640 -0.29400
C 	C 	0.95090 0.62170 0.42430 0.20100
H 	H 	0.95630 0.56650 0.41740 -0.04400
C 	C 	0.93610 0.62410 0.41240 -0.29000
H 	H 	0.93100 0.56950 0.40230 0.13000
C 	C 	0.97470 0.68490 0.46450 0.57200
O 	O 	0.76330 0.49180 0.22880 -0.54700
O 	O 	0.76540 0.63020 0.18190 -0.55400
O 	O 	0.98350 0.43840 0.05510 -0.61000
O 	O 	0.97974 0.58760 0.04520 -0.62000
O 	O 	0.98149 0.61120 0.45790 -0.61200
O 	O 	0.98010 0.75720 0.48650 -0.55500
O 	O 	0.76340 0.55930 0.32140 -0.51300
O 	O 	0.76250 0.68510 0.27580 -0.52700
Tb	Tb	0.74899 0.43808 0.28702 1.84300
C 	C 	0.86050 0.37080 0.89180 -0.05400
H 	H 	0.87040 0.37510 0.90270 0.05100
C 	C 	0.85150 0.44340 0.89950 -0.04700
H 	H 	0.85540 0.50090 0.91040 0.04700
C 	C 	0.83530 0.43610 0.89140 -0.02000
H 	H 	0.82880 0.48340 0.90220 0.03200
C 	C 	0.82990 0.35650 0.86700 -0.09200
H 	H 	0.81980 0.35420 0.85880 0.05900
C 	C 	0.81740 0.18040 0.82840 0.12100
C 	C 	0.80890 0.23250 0.79300 -0.19700
H 	H 	0.81380 0.28000 0.77560 0.09700
C 	C 	0.79380 0.21520 0.78320 0.14200
H 	H 	0.78910 0.24590 0.75760 -0.02400
C 	C 	0.78580 0.15340 0.81120 -0.24400
C 	C 	0.79390 0.10120 0.85040 0.12300
H 	H 	0.78870 0.05790 0.86970 -0.01700
C 	C 	0.80840 0.11740 0.85720 -0.19400
H 	H 	0.81320 0.08580 0.88240 0.09200
C 	C 	0.77020 0.13190 0.80180 0.50400
C 	C 	0.76930 0.05190 0.69950 0.47600
C 	C 	0.78720 0.02820 0.68590 -0.21900
C 	C 	0.79440 0.06820 0.65480 0.20100
H 	H 	0.78950 0.11610 0.63770 -0.03900
C 	C 	0.80860 0.05000 0.64300 -0.25500
H 	H 	0.81270 0.07830 0.61580 0.11300
C 	C 	0.81760 0.98720 0.67150 0.14300
C 	C 	0.80940 0.94120 0.70920 -0.19100
H 	H 	0.81460 0.90030 0.72960 0.09600
C 	C 	0.79450 0.95350 0.71700 0.11200
H 	H 	0.78920 0.91860 0.73980 0.00300
C 	C 	0.84370 0.05280 0.67370 0.03400
C 	C 	0.85970 0.04090 0.65930 -0.01700
C 	C 	0.86490 0.95790 0.64410 -0.00100
C 	C 	0.85540 0.87830 0.63690 -0.00800
C 	C 	0.83890 0.88270 0.64410 0.04500
C 	C 	0.83400 0.97640 0.66420 -0.07700
C 	C 	0.83860 0.14000 0.69690 -0.08500
H 	H 	0.82880 0.14170 0.70840 0.06300
C 	C 	0.84710 0.21760 0.70290 -0.01600
H 	H 	0.84320 0.27440 0.71520 0.03800
C 	C 	0.86260 0.20730 0.68890 -0.04700
H 	H 	0.86890 0.25980 0.69290 0.04800
C 	C 	0.86870 0.12580 0.67030 -0.04900
H 	H 	0.87900 0.12400 0.66450 0.04900
C 	C 	0.86090 0.79140 0.61830 -0.05100
H 	H 	0.87110 0.78500 0.61270 0.05000
C 	C 	0.85140 0.71420 0.60800 -0.05800
H 	H 	0.85520 0.65660 0.59650 0.05200
C 	C 	0.83480 0.72840 0.61660 -0.00500
H 	H 	0.82810 0.67970 0.60840 0.03000
C 	C 	0.82950 0.80750 0.63520 -0.10300
H 	H 	0.81930 0.81250 0.64230 0.06500
C 	C 	0.88170 0.95150 0.63160 0.00100
C 	C 	0.89280 0.94400 0.67110 -0.02800
C 	C 	0.90830 0.94760 0.66020 0.06800
C 	C 	0.91380 0.95650 0.61120 -0.13800
C 	C 	0.90220 0.95410 0.57290 0.06200
C 	C 	0.88710 0.95430 0.58870 -0.02000
C 	C 	0.87570 0.95590 0.54580 -0.04200
H 	H 	0.86540 0.95430 0.55120 0.05100
C 	C 	0.88120 0.95970 0.50070 -0.05600
H 	H 	0.87430 0.96100 0.47570 0.05200
C 	C 	0.89670 0.96180 0.48870 0.00900
H 	H 	0.89970 0.96810 0.45690 0.03300
C 	C 	0.90630 0.95490 0.52180 -0.10700
H 	H 	0.91640 0.95020 0.51360 0.06900
C 	C 	0.88870 0.93860 0.72130 -0.02200
H 	H 	0.87860 0.94080 0.73000 0.04600
C 	C 	0.89910 0.93070 0.75500 -0.08400
H 	H 	0.89640 0.91920 0.78660 0.06000
C 	C 	0.91410 0.93940 0.74300 0.03400
H 	H 	0.92090 0.94460 0.76830 0.01600
C 	C 	0.91970 0.94130 0.70060 -0.12600
H 	H 	0.93000 0.93890 0.69510 0.07300
C 	C 	0.92970 0.96660 0.59710 0.28800
C 	C 	0.93560 0.05070 0.59890 -0.37600
H 	H 	0.93000 0.10120 0.61140 0.15600
C 	C 	0.95010 0.06730 0.58260 0.24600
H 	H 	0.95350 0.12990 0.58010 -0.05600
C 	C 	0.95970 0.99360 0.56980 -0.34300
C 	C 	0.95290 0.90350 0.56990 0.26300
H 	H 	0.95820 0.85150 0.55780 -0.07900
C 	C 	0.93870 0.88900 0.58710 -0.35100
H 	H 	0.93510 0.82730 0.59200 0.14700
C 	C 	0.97530 0.01330 0.55320 0.63700
C 	C 	0.83330 0.19710 0.83770 -0.08700
C 	C 	0.83940 0.27820 0.85410 0.04600
C 	C 	0.85590 0.28550 0.86740 -0.00400
C 	C 	0.86490 0.20940 0.85960 -0.01700
C 	C 	0.85930 0.12410 0.83720 0.00100
C 	C 	0.84240 0.11400 0.82770 0.04200
C 	C 	0.83770 0.02560 0.80580 -0.11100
H 	H 	0.82780 0.01750 0.79570 0.06800
C 	C 	0.84770 0.95590 0.80010 0.00700
H 	H 	0.84440 0.90000 0.78550 0.03200
C 	C 	0.86220 0.95980 0.81380 -0.03100
H 	H 	0.86830 0.90630 0.81000 0.04300
C 	C 	0.86770 0.03520 0.83200 -0.07200
H 	H 	0.87760 0.03380 0.84250 0.05600
C 	C 	0.88090 0.21700 0.87110 -0.00200
C 	C 	0.88570 0.21520 0.92150 -0.02000
C 	C 	0.90080 0.21460 0.93490 0.05700
C 	C 	0.91190 0.21650 0.90030 -0.10700
C 	C 	0.90890 0.21790 0.84990 0.06300
C 	C 	0.89260 0.21570 0.83910 -0.01700
C 	C 	0.88820 0.22400 0.78870 -0.04800
H 	H 	0.87810 0.22770 0.78010 0.05300
C 	C 	0.90010 0.22510 0.75230 -0.05800
H 	H 	0.89750 0.22980 0.72000 0.04800
C 	C 	0.91500 0.21950 0.76580 -0.00100
H 	H 	0.92250 0.21540 0.74280 0.02300
C 	C 	0.91850 0.22010 0.81500 -0.11600
H 	H 	0.92870 0.22210 0.82310 0.06700
C 	C 	0.90510 0.21320 0.98340 -0.08900
H 	H 	0.91520 0.21790 0.99210 0.06500
C 	C 	0.89340 0.20420 0.01960 -0.02600
H 	H 	0.89570 0.19960 0.05210 0.04400
C 	C 	0.87800 0.20280 0.00300 -0.04700
H 	H 	0.87060 0.19920 0.02640 0.04500
C 	C 	0.87360 0.20580 0.96010 -0.04300
H 	H 	0.86340 0.20250 0.95230 0.04900
C 	C 	0.92910 0.20910 0.91580 0.19400
C 	C 	0.93550 0.28730 0.93470 -0.26900
H 	H 	0.93030 0.34500 0.93660 0.12200
C 	C 	0.95060 0.27810 0.95180 0.18900
H 	H 	0.95510 0.32990 0.96710 -0.03500
C 	C 	0.95850 0.19730 0.94640 -0.29400
C 	C 	0.95090 0.12170 0.92430 0.20000
H 	H 	0.95630 0.06650 0.91740 -0.04700
C 	C 	0.93610 0.12410 0.91240 -0.28900
H 	H 	0.93100 0.06950 0.90230 0.12600
C 	C 	0.97470 0.18490 0.96450 0.56900
O 	O 	0.76330 0.99180 0.72880 -0.54000
O 	O 	0.76540 0.13020 0.68190 -0.55400
O 	O 	0.98350 0.93840 0.55510 -0.59300
O 	O 	0.97974 0.08760 0.54520 -0.60900
O 	O 	0.98149 0.11120 0.95790 -0.61100
O 	O 	0.98010 0.25720 0.98650 -0.55200
O 	O 	0.76340 0.05930 0.82140 -0.51900
O 	O 	0.76250 0.18510 0.77580 -0.52900
Tb	Tb	0.74899 0.93808 0.78702 1.85300
C 	C 	0.36050 0.87080 0.89180 -0.08200
H 	H 	0.37040 0.87510 0.90270 0.06200
C 	C 	0.35150 0.94340 0.89950 -0.00200
H 	H 	0.35540 0.00090 0.91040 0.02300
C 	C 	0.33530 0.93610 0.89140 -0.04400
H 	H 	0.32880 0.98340 0.90220 0.04400
C 	C 	0.32990 0.85650 0.86700 -0.07500
H 	H 	0.31980 0.85420 0.85880 0.05500
C 	C 	0.31740 0.68040 0.82840 0.11900
C 	C 	0.30890 0.73250 0.79300 -0.19400
H 	H 	0.31380 0.78000 0.77560 0.09600
C 	C 	0.29380 0.71520 0.78320 0.14100
H 	H 	0.28910 0.74590 0.75760 -0.02400
C 	C 	0.28580 0.65340 0.81120 -0.24100
C 	C 	0.29390 0.60120 0.85040 0.12300
H 	H 	0.28870 0.55790 0.86970 -0.01400
C 	C 	0.30840 0.61740 0.85720 -0.19200
H 	H 	0.31320 0.58580 0.88240 0.09300
C 	C 	0.27020 0.63190 0.80180 0.50300
C 	C 	0.26930 0.55190 0.69950 0.47900
C 	C 	0.28720 0.52820 0.68590 -0.18800
C 	C 	0.29440 0.56820 0.65480 0.16300
H 	H 	0.28950 0.61610 0.63770 -0.02600
C 	C 	0.30860 0.55000 0.64300 -0.21500
H 	H 	0.31270 0.57830 0.61580 0.10100
C 	C 	0.31760 0.48720 0.67150 0.11600
C 	C 	0.30940 0.44120 0.70920 -0.16800
H 	H 	0.31460 0.40030 0.72960 0.08700
C 	C 	0.29450 0.45350 0.71700 0.07900
H 	H 	0.28920 0.41860 0.73980 0.01300
C 	C 	0.34370 0.55280 0.67370 0.03700
C 	C 	0.35970 0.54090 0.65930 0.00200
C 	C 	0.36490 0.45790 0.64410 -0.01900
C 	C 	0.35540 0.37830 0.63690 -0.00100
C 	C 	0.33890 0.38270 0.64410 0.03900
C 	C 	0.33400 0.47640 0.66420 -0.07700
C 	C 	0.33860 0.64000 0.69690 -0.08200
H 	H 	0.32880 0.64170 0.70840 0.06300
C 	C 	0.34710 0.71760 0.70290 -0.02000
H 	H 	0.34320 0.77440 0.71520 0.03900
C 	C 	0.36260 0.70730 0.68890 -0.04000
H 	H 	0.36890 0.75980 0.69290 0.04600
C 	C 	0.36870 0.62580 0.67030 -0.05900
H 	H 	0.37900 0.62400 0.66450 0.05500
C 	C 	0.36090 0.29140 0.61830 -0.05700
H 	H 	0.37110 0.28500 0.61270 0.05200
C 	C 	0.35140 0.21420 0.60800 -0.05400
H 	H 	0.35520 0.15660 0.59650 0.04800
C 	C 	0.33480 0.22840 0.61660 -0.01100
H 	H 	0.32810 0.17970 0.60840 0.02900
C 	C 	0.32950 0.30750 0.63520 -0.09800
H 	H 	0.31930 0.31250 0.64230 0.06300
C 	C 	0.38170 0.45150 0.63160 0.00500
C 	C 	0.39280 0.44400 0.67110 -0.03200
C 	C 	0.40830 0.44760 0.66020 0.06800
C 	C 	0.41380 0.45650 0.61120 -0.14000
C 	C 	0.40220 0.45410 0.57290 0.06200
C 	C 	0.38710 0.45430 0.58870 -0.02400
C 	C 	0.37570 0.45590 0.54580 -0.04200
H 	H 	0.36540 0.45430 0.55120 0.04900
C 	C 	0.38120 0.45970 0.50070 -0.05900
H 	H 	0.37430 0.46100 0.47570 0.05100
C 	C 	0.39670 0.46180 0.48870 0.00900
H 	H 	0.39970 0.46810 0.45690 0.03100
C 	C 	0.40630 0.45490 0.52180 -0.11000
H 	H 	0.41640 0.45020 0.51360 0.06700
C 	C 	0.38870 0.43860 0.72130 -0.02000
H 	H 	0.37860 0.44080 0.73000 0.04300
C 	C 	0.39910 0.43070 0.75500 -0.08800
H 	H 	0.39640 0.41920 0.78660 0.06000
C 	C 	0.41410 0.43940 0.74300 0.03500
H 	H 	0.42090 0.44460 0.76830 0.01300
C 	C 	0.41970 0.44130 0.70060 -0.13000
H 	H 	0.43000 0.43890 0.69510 0.07200
C 	C 	0.42970 0.46660 0.59710 0.28200
C 	C 	0.43560 0.55070 0.59890 -0.37400
H 	H 	0.43000 0.60120 0.61140 0.15900
C 	C 	0.45010 0.56730 0.58260 0.27700
H 	H 	0.45350 0.62990 0.58010 -0.06500
C 	C 	0.45970 0.49360 0.56980 -0.38500
C 	C 	0.45290 0.40350 0.56990 0.28300
H 	H 	0.45820 0.35150 0.55780 -0.08700
C 	C 	0.43870 0.38900 0.58710 -0.36200
H 	H 	0.43510 0.32730 0.59200 0.15000
C 	C 	0.47530 0.51330 0.55320 0.67700
C 	C 	0.33330 0.69710 0.83770 -0.08100
C 	C 	0.33940 0.77820 0.85410 0.03600
C 	C 	0.35590 0.78550 0.86740 0.00900
C 	C 	0.36490 0.70940 0.85960 -0.02000
C 	C 	0.35930 0.62410 0.83720 -0.00100
C 	C 	0.34240 0.61400 0.82770 0.03900
C 	C 	0.33770 0.52560 0.80580 -0.09600
H 	H 	0.32780 0.51750 0.79570 0.06600
C 	C 	0.34770 0.45590 0.80010 -0.00200
H 	H 	0.34440 0.40000 0.78550 0.03400
C 	C 	0.36220 0.45980 0.81380 -0.05300
H 	H 	0.36830 0.40630 0.81000 0.05000
C 	C 	0.36770 0.53520 0.83200 -0.04700
H 	H 	0.37760 0.53380 0.84250 0.05100
C 	C 	0.38090 0.71700 0.87110 -0.00000
C 	C 	0.38570 0.71520 0.92150 -0.02000
C 	C 	0.40080 0.71460 0.93490 0.05800
C 	C 	0.41190 0.71650 0.90030 -0.10800
C 	C 	0.40890 0.71790 0.84990 0.06500
C 	C 	0.39260 0.71570 0.83910 -0.01700
C 	C 	0.38820 0.72400 0.78870 -0.04700
H 	H 	0.37810 0.72770 0.78010 0.05300
C 	C 	0.40010 0.72510 0.75230 -0.05800
H 	H 	0.39750 0.72980 0.72000 0.04900
C 	C 	0.41500 0.71950 0.76580 0.00100
H 	H 	0.42250 0.71540 0.74280 0.02500
C 	C 	0.41850 0.72010 0.81500 -0.11600
H 	H 	0.42870 0.72210 0.82310 0.06900
C 	C 	0.40510 0.71320 0.98340 -0.09000
H 	H 	0.41520 0.71790 0.99210 0.06500
C 	C 	0.39340 0.70420 0.01960 -0.02500
H 	H 	0.39570 0.69960 0.05210 0.04400
C 	C 	0.37800 0.70280 0.00300 -0.04700
H 	H 	0.37060 0.69920 0.02640 0.04700
C 	C 	0.37360 0.70580 0.96010 -0.04200
H 	H 	0.36340 0.70250 0.95230 0.05000
C 	C 	0.42910 0.70910 0.91580 0.19500
C 	C 	0.43550 0.78730 0.93470 -0.26900
H 	H 	0.43030 0.84500 0.93660 0.12300
C 	C 	0.45060 0.77810 0.95180 0.19000
H 	H 	0.45510 0.82990 0.96710 -0.03300
C 	C 	0.45850 0.69730 0.94640 -0.29300
C 	C 	0.45090 0.62170 0.92430 0.20100
H 	H 	0.45630 0.56650 0.91740 -0.04400
C 	C 	0.43610 0.62410 0.91240 -0.28900
H 	H 	0.43100 0.56950 0.90230 0.13000
C 	C 	0.47470 0.68490 0.96450 0.57200
O 	O 	0.26330 0.49180 0.72880 -0.54700
O 	O 	0.26540 0.63020 0.68190 -0.55400
O 	O 	0.48350 0.43840 0.55510 -0.61000
O 	O 	0.47974 0.58760 0.54520 -0.62000
O 	O 	0.48149 0.61120 0.95790 -0.61100
O 	O 	0.48010 0.75720 0.98650 -0.55200
O 	O 	0.26340 0.55930 0.82140 -0.51300
O 	O 	0.26250 0.68510 0.77580 -0.52700
Tb	Tb	0.24899 0.43808 0.78702 1.84300
C 	C 	0.36050 0.37080 0.39180 -0.05400
H 	H 	0.37040 0.37510 0.40270 0.05100
C 	C 	0.35150 0.44340 0.39950 -0.04700
H 	H 	0.35540 0.50090 0.41040 0.04700
C 	C 	0.33530 0.43610 0.39140 -0.02000
H 	H 	0.32880 0.48340 0.40220 0.03100
C 	C 	0.32990 0.35650 0.36700 -0.09200
H 	H 	0.31980 0.35420 0.35880 0.05900
C 	C 	0.31740 0.18040 0.32840 0.12100
C 	C 	0.30890 0.23250 0.29300 -0.19700
H 	H 	0.31380 0.28000 0.27560 0.09700
C 	C 	0.29380 0.21520 0.28320 0.14200
H 	H 	0.28910 0.24590 0.25760 -0.02400
C 	C 	0.28580 0.15340 0.31120 -0.24400
C 	C 	0.29390 0.10120 0.35040 0.12300
H 	H 	0.28870 0.05790 0.36970 -0.01700
C 	C 	0.30840 0.11740 0.35720 -0.19500
H 	H 	0.31320 0.08580 0.38240 0.09200
C 	C 	0.27020 0.13190 0.30180 0.50300
C 	C 	0.26930 0.05190 0.19950 0.47600
C 	C 	0.28720 0.02820 0.18590 -0.21800
C 	C 	0.29440 0.06820 0.15480 0.20000
H 	H 	0.28950 0.11610 0.13770 -0.03900
C 	C 	0.30860 0.05000 0.14300 -0.25400
H 	H 	0.31270 0.07830 0.11580 0.11300
C 	C 	0.31760 0.98720 0.17150 0.14200
C 	C 	0.30940 0.94120 0.20920 -0.19000
H 	H 	0.31460 0.90030 0.22960 0.09600
C 	C 	0.29450 0.95350 0.21700 0.11100
H 	H 	0.28920 0.91860 0.23980 0.00400
C 	C 	0.34370 0.05280 0.17370 0.03400
C 	C 	0.35970 0.04090 0.15930 -0.01500
C 	C 	0.36490 0.95790 0.14410 -0.00400
C 	C 	0.35540 0.87830 0.13690 -0.00600
C 	C 	0.33890 0.88270 0.14410 0.04400
C 	C 	0.33400 0.97640 0.16420 -0.07600
C 	C 	0.33860 0.14000 0.19690 -0.08400
H 	H 	0.32880 0.14170 0.20840 0.06300
C 	C 	0.34710 0.21760 0.20290 -0.01700
H 	H 	0.34320 0.27440 0.21520 0.03800
C 	C 	0.36260 0.20730 0.18890 -0.04600
H 	H 	0.36890 0.25980 0.19290 0.04800
C 	C 	0.36870 0.12580 0.17030 -0.05100
H 	H 	0.37900 0.12400 0.16450 0.04900
C 	C 	0.36090 0.79140 0.11830 -0.05200
H 	H 	0.37110 0.78500 0.11270 0.05000
C 	C 	0.35140 0.71420 0.10800 -0.05800
H 	H 	0.35520 0.65660 0.09650 0.05200
C 	C 	0.33480 0.72840 0.11660 -0.00600
H 	H 	0.32810 0.67970 0.10840 0.03000
C 	C 	0.32950 0.80750 0.13520 -0.10200
H 	H 	0.31930 0.81250 0.14230 0.06500
C 	C 	0.38170 0.95150 0.13160 0.00900
C 	C 	0.39280 0.94400 0.17110 -0.03300
C 	C 	0.40830 0.94760 0.16020 0.07300
C 	C 	0.41380 0.95650 0.11120 -0.14500
C 	C 	0.40220 0.95410 0.07290 0.07900
C 	C 	0.38710 0.95430 0.08870 -0.03500
C 	C 	0.37570 0.95590 0.04580 -0.01700
H 	H 	0.36540 0.95430 0.05120 0.04100
C 	C 	0.38120 0.95970 0.00070 -0.09800
H 	H 	0.37430 0.96100 0.97570 0.06900
C 	C 	0.39670 0.96180 0.98870 0.05600
H 	H 	0.39970 0.96810 0.95690 0.01700
C 	C 	0.40630 0.95490 0.02180 -0.14400
H 	H 	0.41640 0.95020 0.01360 0.08000
C 	C 	0.38870 0.93860 0.22130 -0.01700
H 	H 	0.37860 0.94080 0.23000 0.04400
C 	C 	0.39910 0.93070 0.25500 -0.08900
H 	H 	0.39640 0.91920 0.28660 0.06200
C 	C 	0.41410 0.93940 0.24300 0.03900
H 	H 	0.42090 0.94460 0.26830 0.01400
C 	C 	0.41970 0.94130 0.20060 -0.13100
H 	H 	0.43000 0.93890 0.19510 0.07500
C 	C 	0.42970 0.96660 0.09710 0.29300
C 	C 	0.43560 0.05070 0.09890 -0.38100
H 	H 	0.43000 0.10120 0.11140 0.15800
C 	C 	0.45010 0.06730 0.08260 0.24900
H 	H 	0.45350 0.12990 0.08010 -0.05700
C 	C 	0.45970 0.99360 0.06980 -0.34700
C 	C 	0.45290 0.90350 0.06990 0.26600
H 	H 	0.45820 0.85150 0.05780 -0.08100
C 	C 	0.43870 0.88900 0.08710 -0.35500
H 	H 	0.43510 0.82730 0.09200 0.14800
C 	C 	0.47530 0.01330 0.05320 0.63800
C 	C 	0.33330 0.19710 0.33770 -0.08800
C 	C 	0.33940 0.27820 0.35410 0.04600
C 	C 	0.35590 0.28550 0.36740 -0.00500
C 	C 	0.36490 0.20940 0.35960 -0.01600
C 	C 	0.35930 0.12410 0.33720 0.00100
C 	C 	0.34240 0.11400 0.32770 0.04200
C 	C 	0.33770 0.02560 0.30580 -0.11100
H 	H 	0.32780 0.01750 0.29570 0.06800
C 	C 	0.34770 0.95590 0.30010 0.00700
H 	H 	0.34440 0.90000 0.28550 0.03200
C 	C 	0.36220 0.95980 0.31380 -0.03200
H 	H 	0.36830 0.90630 0.31000 0.04400
C 	C 	0.36770 0.03520 0.33200 -0.07100
H 	H 	0.37760 0.03380 0.34250 0.05500
C 	C 	0.38090 0.21700 0.37110 -0.00300
C 	C 	0.38570 0.21520 0.42150 -0.01800
C 	C 	0.40080 0.21460 0.43490 0.05600
C 	C 	0.41190 0.21650 0.40030 -0.10700
C 	C 	0.40890 0.21790 0.34990 0.06300
C 	C 	0.39260 0.21570 0.33910 -0.01600
C 	C 	0.38820 0.22400 0.28870 -0.04800
H 	H 	0.37810 0.22770 0.28010 0.05300
C 	C 	0.40010 0.22510 0.25230 -0.05800
H 	H 	0.39750 0.22980 0.22000 0.04800
C 	C 	0.41500 0.21950 0.26580 -0.00100
H 	H 	0.42250 0.21540 0.24280 0.02300
C 	C 	0.41850 0.22010 0.31500 -0.11600
H 	H 	0.42870 0.22210 0.32310 0.06700
C 	C 	0.40510 0.21320 0.48340 -0.09200
H 	H 	0.41520 0.21790 0.49210 0.06400
C 	C 	0.39340 0.20420 0.51960 -0.02500
H 	H 	0.39570 0.19960 0.55210 0.04400
C 	C 	0.37800 0.20280 0.50300 -0.03800
H 	H 	0.37060 0.19920 0.52640 0.04300
C 	C 	0.37360 0.20580 0.46010 -0.05200
H 	H 	0.36340 0.20250 0.45230 0.05100
C 	C 	0.42910 0.20910 0.41580 0.19400
C 	C 	0.43550 0.28730 0.43470 -0.27000
H 	H 	0.43030 0.34500 0.43660 0.12200
C 	C 	0.45060 0.27810 0.45180 0.19000
H 	H 	0.45510 0.32990 0.46710 -0.03600
C 	C 	0.45850 0.19730 0.44640 -0.29500
C 	C 	0.45090 0.12170 0.42430 0.20000
H 	H 	0.45630 0.06650 0.41740 -0.04700
C 	C 	0.43610 0.12410 0.41240 -0.28900
H 	H 	0.43100 0.06950 0.40230 0.12600
C 	C 	0.47470 0.18490 0.46450 0.56900
O 	O 	0.26330 0.99180 0.22880 -0.54100
O 	O 	0.26540 0.13020 0.18190 -0.55400
O 	O 	0.48350 0.93840 0.05510 -0.59300
O 	O 	0.47974 0.08760 0.04520 -0.61000
O 	O 	0.48149 0.11120 0.45790 -0.61200
O 	O 	0.48010 0.25720 0.48650 -0.55400
O 	O 	0.26340 0.05930 0.32140 -0.51900
O 	O 	0.26250 0.18510 0.27580 -0.52800
Tb	Tb	0.24899 0.93808 0.28702 1.85200
C 	C 	0.38950 0.12080 0.64180 -0.05100
H 	H 	0.37960 0.12510 0.65270 0.04700
C 	C 	0.39850 0.19340 0.64950 -0.04800
H 	H 	0.39460 0.25090 0.66040 0.04700
C 	C 	0.41470 0.18610 0.64140 -0.02500
H 	H 	0.42120 0.23340 0.65220 0.03200
C 	C 	0.42010 0.10650 0.61700 -0.08300
H 	H 	0.43020 0.10420 0.60880 0.05300
C 	C 	0.43260 0.93040 0.57840 0.09900
C 	C 	0.44110 0.98250 0.54300 -0.15100
H 	H 	0.43620 0.03000 0.52560 0.07200
C 	C 	0.45620 0.96520 0.53320 0.11300
H 	H 	0.46090 0.99590 0.50760 -0.01000
C 	C 	0.46420 0.90340 0.56120 -0.22400
C 	C 	0.45610 0.85120 0.60040 0.10800
H 	H 	0.46130 0.80790 0.61970 -0.00800
C 	C 	0.44160 0.86740 0.60720 -0.17400
H 	H 	0.43680 0.83580 0.63240 0.08800
C 	C 	0.47980 0.88190 0.55180 0.49400
C 	C 	0.48070 0.80190 0.44950 0.47700
C 	C 	0.46280 0.77820 0.43590 -0.18600
C 	C 	0.45560 0.81820 0.40480 0.16100
H 	H 	0.46050 0.86610 0.38770 -0.02300
C 	C 	0.44140 0.80000 0.39300 -0.21300
H 	H 	0.43730 0.82830 0.36580 0.10200
C 	C 	0.43240 0.73720 0.42150 0.11600
C 	C 	0.44060 0.69120 0.45920 -0.16700
H 	H 	0.43540 0.65030 0.47960 0.08700
C 	C 	0.45550 0.70350 0.46700 0.07800
H 	H 	0.46080 0.66860 0.48980 0.01300
C 	C 	0.40630 0.80280 0.42370 0.04100
C 	C 	0.39030 0.79090 0.40930 0.00300
C 	C 	0.38510 0.70790 0.39410 -0.01900
C 	C 	0.39460 0.62830 0.38690 -0.00100
C 	C 	0.41110 0.63270 0.39410 0.04000
C 	C 	0.41600 0.72640 0.41420 -0.07800
C 	C 	0.41140 0.89000 0.44690 -0.09300
H 	H 	0.42120 0.89170 0.45840 0.07000
C 	C 	0.40290 0.96760 0.45290 0.00200
H 	H 	0.40680 0.02440 0.46520 0.02400
C 	C 	0.38740 0.95730 0.43890 -0.02600
H 	H 	0.38110 0.00980 0.44290 0.03300
C 	C 	0.38130 0.87580 0.42030 -0.06400
H 	H 	0.37100 0.87400 0.41450 0.05900
C 	C 	0.38910 0.54140 0.36830 -0.05600
H 	H 	0.37890 0.53500 0.36270 0.05200
C 	C 	0.39860 0.46420 0.35800 -0.05500
H 	H 	0.39480 0.40660 0.34650 0.05100
C 	C 	0.41520 0.47840 0.36660 -0.00900
H 	H 	0.42190 0.42970 0.35840 0.03100
C 	C 	0.42050 0.55750 0.38520 -0.09900
H 	H 	0.43070 0.56250 0.39230 0.06300
C 	C 	0.36830 0.70150 0.38160 0.00600
C 	C 	0.35720 0.69400 0.42110 -0.03200
C 	C 	0.34170 0.69760 0.41020 0.06800
C 	C 	0.33620 0.70650 0.36120 -0.13900
C 	C 	0.34780 0.70410 0.32290 0.06200
C 	C 	0.36290 0.70430 0.33870 -0.02400
C 	C 	0.37430 0.70590 0.29580 -0.04200
H 	H 	0.38460 0.70430 0.30120 0.04900
C 	C 	0.36880 0.70970 0.25070 -0.05900
H 	H 	0.37570 0.71100 0.22570 0.05100
C 	C 	0.35330 0.71180 0.23870 0.00900
H 	H 	0.35030 0.71810 0.20690 0.03100
C 	C 	0.34370 0.70490 0.27180 -0.10900
H 	H 	0.33360 0.70020 0.26360 0.06700
C 	C 	0.36130 0.68860 0.47130 -0.02000
H 	H 	0.37140 0.69080 0.48000 0.04300
C 	C 	0.35090 0.68070 0.50500 -0.08900
H 	H 	0.35360 0.66920 0.53660 0.06000
C 	C 	0.33590 0.68940 0.49300 0.03600
H 	H 	0.32910 0.69460 0.51830 0.01300
C 	C 	0.33030 0.69130 0.45060 -0.12900
H 	H 	0.32000 0.68890 0.44510 0.07200
C 	C 	0.32030 0.71660 0.34710 0.28200
C 	C 	0.31440 0.80070 0.34890 -0.37300
H 	H 	0.32000 0.85120 0.36140 0.16000
C 	C 	0.29990 0.81730 0.33260 0.27700
H 	H 	0.29650 0.87990 0.33010 -0.06300
C 	C 	0.29030 0.74360 0.31980 -0.38400
C 	C 	0.29710 0.65350 0.31990 0.28300
H 	H 	0.29180 0.60150 0.30780 -0.08600
C 	C 	0.31130 0.63900 0.33710 -0.36100
H 	H 	0.31490 0.57730 0.34200 0.15000
C 	C 	0.27470 0.76330 0.30320 0.67700
C 	C 	0.41670 0.94710 0.58770 -0.06100
C 	C 	0.41060 0.02820 0.60410 0.02700
C 	C 	0.39410 0.03550 0.61740 -0.01600
C 	C 	0.38510 0.95940 0.60960 -0.00100
C 	C 	0.39070 0.87410 0.58720 -0.00500
C 	C 	0.40760 0.86400 0.57770 0.03600
C 	C 	0.41230 0.77560 0.55580 -0.09400
H 	H 	0.42220 0.76750 0.54570 0.06600
C 	C 	0.40230 0.70590 0.55010 -0.00200
H 	H 	0.40560 0.65000 0.53550 0.03300
C 	C 	0.38780 0.70980 0.56380 -0.05400
H 	H 	0.38170 0.65630 0.56000 0.05000
C 	C 	0.38230 0.78520 0.58200 -0.04400
H 	H 	0.37240 0.78380 0.59250 0.05000
C 	C 	0.36910 0.96700 0.62110 -0.00500
C 	C 	0.36430 0.96520 0.67150 -0.01500
C 	C 	0.34920 0.96460 0.68490 0.05900
C 	C 	0.33810 0.96650 0.65030 -0.10900
C 	C 	0.34110 0.96790 0.59990 0.06700
C 	C 	0.35740 0.96570 0.58910 -0.01300
C 	C 	0.36180 0.97400 0.53870 -0.04600
H 	H 	0.37190 0.97770 0.53010 0.05600
C 	C 	0.34990 0.97510 0.50230 -0.05600
H 	H 	0.35250 0.97980 0.47000 0.05100
C 	C 	0.33500 0.96950 0.51580 0.00200
H 	H 	0.32750 0.96540 0.49280 0.02600
C 	C 	0.33150 0.97010 0.56500 -0.11500
H 	H 	0.32130 0.97210 0.57310 0.07000
C 	C 	0.34490 0.96320 0.73340 -0.09300
H 	H 	0.33480 0.96790 0.74210 0.06700
C 	C 	0.35660 0.95420 0.76960 -0.02200
H 	H 	0.35430 0.94960 0.80210 0.04500
C 	C 	0.37200 0.95280 0.75300 -0.03600
H 	H 	0.37940 0.94920 0.77640 0.04600
C 	C 	0.37640 0.95580 0.71010 -0.05100
H 	H 	0.38660 0.95250 0.70230 0.05400
C 	C 	0.32090 0.95910 0.66580 0.21000
C 	C 	0.31450 0.03730 0.68470 -0.28600
H 	H 	0.31970 0.09500 0.68660 0.12500
C 	C 	0.29940 0.02810 0.70180 0.18300
H 	H 	0.29490 0.07990 0.71710 -0.03500
C 	C 	0.29150 0.94730 0.69640 -0.28700
C 	C 	0.29910 0.87170 0.67430 0.20400
H 	H 	0.29370 0.81650 0.66740 -0.04500
C 	C 	0.31390 0.87410 0.66240 -0.29700
H 	H 	0.31900 0.81950 0.65230 0.13200
C 	C 	0.27530 0.93490 0.71450 0.58100
O 	O 	0.48670 0.74180 0.47880 -0.54600
O 	O 	0.48460 0.88020 0.43190 -0.54600
O 	O 	0.26650 0.68840 0.30510 -0.61000
O 	O 	0.27026 0.83760 0.29520 -0.61900
O 	O 	0.26851 0.86120 0.70790 -0.61300
O 	O 	0.26990 0.00720 0.73650 -0.56300
O 	O 	0.48660 0.80930 0.57140 -0.51000
O 	O 	0.48750 0.93510 0.52580 -0.51700
Tb	Tb	0.50101 0.68808 0.53702 1.84400
C 	C 	0.38950 0.62080 0.14180 -0.05200
H 	H 	0.37960 0.62510 0.15270 0.05000
C 	C 	0.39850 0.69340 0.14950 -0.04800
H 	H 	0.39460 0.75090 0.16040 0.04800
C 	C 	0.41470 0.68610 0.14140 -0.01900
H 	H 	0.42120 0.73340 0.15220 0.03100
C 	C 	0.42010 0.60650 0.11700 -0.09300
H 	H 	0.43020 0.60420 0.10880 0.05900
C 	C 	0.43260 0.43040 0.07840 0.12200
C 	C 	0.44110 0.48250 0.04300 -0.19700
H 	H 	0.43620 0.53000 0.02560 0.09600
C 	C 	0.45620 0.46520 0.03320 0.14200
H 	H 	0.46090 0.49590 0.00760 -0.02600
C 	C 	0.46420 0.40340 0.06120 -0.24300
C 	C 	0.45610 0.35120 0.10040 0.12400
H 	H 	0.46130 0.30790 0.11970 -0.01600
C 	C 	0.44160 0.36740 0.10720 -0.19400
H 	H 	0.43680 0.33580 0.13240 0.09400
C 	C 	0.47980 0.38190 0.05180 0.50300
C 	C 	0.48070 0.30190 0.94950 0.47900
C 	C 	0.46280 0.27820 0.93590 -0.18900
C 	C 	0.45560 0.31820 0.90480 0.16400
H 	H 	0.46050 0.36610 0.88770 -0.02600
C 	C 	0.44140 0.30000 0.89300 -0.21600
H 	H 	0.43730 0.32830 0.86580 0.10200
C 	C 	0.43240 0.23720 0.92150 0.11700
C 	C 	0.44060 0.19120 0.95920 -0.16900
H 	H 	0.43540 0.15030 0.97960 0.08700
C 	C 	0.45550 0.20350 0.96700 0.08000
H 	H 	0.46080 0.16860 0.98980 0.01300
C 	C 	0.40630 0.30280 0.92370 0.03800
C 	C 	0.39030 0.29090 0.90930 0.00300
C 	C 	0.38510 0.20790 0.89410 -0.02200
C 	C 	0.39460 0.12830 0.88690 -0.00000
C 	C 	0.41110 0.13270 0.89410 0.04600
C 	C 	0.41600 0.22640 0.91420 -0.08000
C 	C 	0.41140 0.39000 0.94690 -0.08300
H 	H 	0.42120 0.39170 0.95840 0.06400
C 	C 	0.40290 0.46760 0.95290 -0.01900
H 	H 	0.40680 0.52440 0.96520 0.04000
C 	C 	0.38740 0.45730 0.93890 -0.04000
H 	H 	0.38110 0.50980 0.94290 0.04600
C 	C 	0.38130 0.37580 0.92030 -0.05900
H 	H 	0.37100 0.37400 0.91450 0.05500
C 	C 	0.38910 0.04140 0.86830 -0.07200
H 	H 	0.37890 0.03500 0.86270 0.05400
C 	C 	0.39860 0.96420 0.85800 -0.04500
H 	H 	0.39480 0.90660 0.84650 0.04900
C 	C 	0.41520 0.97840 0.86660 0.01400
H 	H 	0.42190 0.92970 0.85840 0.02500
C 	C 	0.42050 0.05750 0.88520 -0.12500
H 	H 	0.43070 0.06250 0.89230 0.06900
C 	C 	0.36830 0.20150 0.88160 0.01300
C 	C 	0.35720 0.19400 0.92110 -0.04900
C 	C 	0.34170 0.19760 0.91020 0.08400
C 	C 	0.33620 0.20650 0.86120 -0.14700
C 	C 	0.34780 0.20410 0.82290 0.06600
C 	C 	0.36290 0.20430 0.83870 -0.03000
C 	C 	0.37430 0.20590 0.79580 -0.03900
H 	H 	0.38460 0.20430 0.80120 0.04700
C 	C 	0.36880 0.20970 0.75070 -0.06400
H 	H 	0.37570 0.21100 0.72570 0.05100
C 	C 	0.35330 0.21180 0.73870 0.01200
H 	H 	0.35030 0.21810 0.70690 0.02800
C 	C 	0.34370 0.20490 0.77180 -0.11500
H 	H 	0.33360 0.20020 0.76360 0.06800
C 	C 	0.36130 0.18860 0.97130 0.01400
H 	H 	0.37140 0.19080 0.98000 0.03100
C 	C 	0.35090 0.18070 0.00500 -0.13800
H 	H 	0.35360 0.16920 0.03660 0.07500
C 	C 	0.33590 0.18940 0.99300 0.08500
H 	H 	0.32910 0.19460 0.01830 -0.00700
C 	C 	0.33030 0.19130 0.95060 -0.16400
H 	H 	0.32000 0.18890 0.94510 0.08400
C 	C 	0.32030 0.21660 0.84710 0.28600
C 	C 	0.31440 0.30070 0.84890 -0.37700
H 	H 	0.32000 0.35120 0.86140 0.16000
C 	C 	0.29990 0.31730 0.83260 0.27900
H 	H 	0.29650 0.37990 0.83010 -0.06600
C 	C 	0.29030 0.24360 0.81980 -0.38700
C 	C 	0.29710 0.15350 0.81990 0.28400
H 	H 	0.29180 0.10150 0.80780 -0.08800
C 	C 	0.31130 0.13900 0.83710 -0.36400
H 	H 	0.31490 0.07730 0.84200 0.14800
C 	C 	0.27470 0.26330 0.80320 0.67700
C 	C 	0.41670 0.44710 0.08770 -0.08800
C 	C 	0.41060 0.52820 0.10410 0.04700
C 	C 	0.39410 0.53550 0.11740 -0.00700
C 	C 	0.38510 0.45940 0.10960 -0.01200
C 	C 	0.39070 0.37410 0.08720 -0.00700
C 	C 	0.40760 0.36400 0.07770 0.04400
C 	C 	0.41230 0.27560 0.05580 -0.10300
H 	H 	0.42220 0.26750 0.04570 0.06800
C 	C 	0.40230 0.20590 0.05010 0.00400
H 	H 	0.40560 0.15000 0.03550 0.02800
C 	C 	0.38780 0.20980 0.06380 -0.06000
H 	H 	0.38170 0.15630 0.06000 0.04900
C 	C 	0.38230 0.28520 0.08200 -0.04100
H 	H 	0.37240 0.28380 0.09250 0.04900
C 	C 	0.36910 0.46700 0.12110 -0.00500
C 	C 	0.36430 0.46520 0.17150 -0.01600
C 	C 	0.34920 0.46460 0.18490 0.05600
C 	C 	0.33810 0.46650 0.15030 -0.10600
C 	C 	0.34110 0.46790 0.09990 0.06200
C 	C 	0.35740 0.46570 0.08910 -0.01500
C 	C 	0.36180 0.47400 0.03870 -0.04700
H 	H 	0.37190 0.47770 0.03010 0.05200
C 	C 	0.34990 0.47510 0.00230 -0.06100
H 	H 	0.35250 0.47980 0.97000 0.05200
C 	C 	0.33500 0.46950 0.01580 -0.00600
H 	H 	0.32750 0.46540 0.99280 0.02900
C 	C 	0.33150 0.47010 0.06500 -0.11100
H 	H 	0.32130 0.47210 0.07310 0.06600
C 	C 	0.34490 0.46320 0.23340 -0.09200
H 	H 	0.33480 0.46790 0.24210 0.06400
C 	C 	0.35660 0.45420 0.26960 -0.02500
H 	H 	0.35430 0.44960 0.30210 0.04400
C 	C 	0.37200 0.45280 0.25300 -0.03600
H 	H 	0.37940 0.44920 0.27640 0.04400
C 	C 	0.37640 0.45580 0.21010 -0.05300
H 	H 	0.38660 0.45250 0.20230 0.05200
C 	C 	0.32090 0.45910 0.16580 0.19400
C 	C 	0.31450 0.53730 0.18470 -0.26900
H 	H 	0.31970 0.59500 0.18660 0.12200
C 	C 	0.29940 0.52810 0.20180 0.19000
H 	H 	0.29490 0.57990 0.21710 -0.03500
C 	C 	0.29150 0.44730 0.19640 -0.29400
C 	C 	0.29910 0.37170 0.17430 0.20100
H 	H 	0.29370 0.31650 0.16740 -0.04400
C 	C 	0.31390 0.37410 0.16240 -0.28900
H 	H 	0.31900 0.31950 0.15230 0.12900
C 	C 	0.27530 0.43490 0.21450 0.57100
O 	O 	0.48670 0.24180 0.97880 -0.54600
O 	O 	0.48460 0.38020 0.93190 -0.55400
O 	O 	0.26650 0.18840 0.80510 -0.61000
O 	O 	0.27026 0.33760 0.79520 -0.62000
O 	O 	0.26851 0.36120 0.20790 -0.61200
O 	O 	0.26990 0.50720 0.23650 -0.55500
O 	O 	0.48660 0.30930 0.07140 -0.51400
O 	O 	0.48750 0.43510 0.02580 -0.52900
Tb	Tb	0.50101 0.18808 0.03702 1.83300
C 	C 	0.88950 0.12080 0.14180 -0.05100
H 	H 	0.87960 0.12510 0.15270 0.04700
C 	C 	0.89850 0.19340 0.14950 -0.04800
H 	H 	0.89460 0.25090 0.16040 0.04700
C 	C 	0.91470 0.18610 0.14140 -0.02500
H 	H 	0.92120 0.23340 0.15220 0.03200
C 	C 	0.92010 0.10650 0.11700 -0.08400
H 	H 	0.93020 0.10420 0.10880 0.05300
C 	C 	0.93260 0.93040 0.07840 0.10000
C 	C 	0.94110 0.98250 0.04300 -0.15300
H 	H 	0.93620 0.03000 0.02560 0.07200
C 	C 	0.95620 0.96520 0.03320 0.11400
H 	H 	0.96090 0.99590 0.00760 -0.01100
C 	C 	0.96420 0.90340 0.06120 -0.22500
C 	C 	0.95610 0.85120 0.10040 0.10800
H 	H 	0.96130 0.80790 0.11970 -0.00900
C 	C 	0.94160 0.86740 0.10720 -0.17500
H 	H 	0.93680 0.83580 0.13240 0.08800
C 	C 	0.97980 0.88190 0.05180 0.49500
C 	C 	0.98070 0.80190 0.94950 0.47700
C 	C 	0.96280 0.77820 0.93590 -0.18500
C 	C 	0.95560 0.81820 0.90480 0.16100
H 	H 	0.96050 0.86610 0.88770 -0.02200
C 	C 	0.94140 0.80000 0.89300 -0.21200
H 	H 	0.93730 0.82830 0.86580 0.10200
C 	C 	0.93240 0.73720 0.92150 0.11500
C 	C 	0.94060 0.69120 0.95920 -0.16600
H 	H 	0.93540 0.65030 0.97960 0.08800
C 	C 	0.95550 0.70350 0.96700 0.07800
H 	H 	0.96080 0.66860 0.98980 0.01500
C 	C 	0.90630 0.80280 0.92370 0.04000
C 	C 	0.89030 0.79090 0.90930 0.00500
C 	C 	0.88510 0.70790 0.89410 -0.02200
C 	C 	0.89460 0.62830 0.88690 0.00100
C 	C 	0.91110 0.63270 0.89410 0.03900
C 	C 	0.91600 0.72640 0.91420 -0.07700
C 	C 	0.91140 0.89000 0.94690 -0.09300
H 	H 	0.92120 0.89170 0.95840 0.07000
C 	C 	0.90290 0.96760 0.95290 0.00200
H 	H 	0.90680 0.02440 0.96520 0.02500
C 	C 	0.88740 0.95730 0.93890 -0.02400
H 	H 	0.88110 0.00980 0.94290 0.03300
C 	C 	0.88130 0.87580 0.92030 -0.06500
H 	H 	0.87100 0.87400 0.91450 0.05900
C 	C 	0.88910 0.54140 0.86830 -0.05700
H 	H 	0.87890 0.53500 0.86270 0.05200
C 	C 	0.89860 0.46420 0.85800 -0.05300
H 	H 	0.89480 0.40660 0.84650 0.05100
C 	C 	0.91520 0.47840 0.86660 -0.01000
H 	H 	0.92190 0.42970 0.85840 0.03100
C 	C 	0.92050 0.55750 0.88520 -0.09700
H 	H 	0.93070 0.56250 0.89230 0.06300
C 	C 	0.86830 0.70150 0.88160 0.01400
C 	C 	0.85720 0.69400 0.92110 -0.05100
C 	C 	0.84170 0.69760 0.91020 0.08600
C 	C 	0.83620 0.70650 0.86120 -0.14800
C 	C 	0.84780 0.70410 0.82290 0.06800
C 	C 	0.86290 0.70430 0.83870 -0.03000
C 	C 	0.87430 0.70590 0.79580 -0.03700
H 	H 	0.88460 0.70430 0.80120 0.04700
C 	C 	0.86880 0.70970 0.75070 -0.06300
H 	H 	0.87570 0.71100 0.72570 0.05200
C 	C 	0.85330 0.71180 0.73870 0.01400
H 	H 	0.85030 0.71810 0.70690 0.02900
C 	C 	0.84370 0.70490 0.77180 -0.11500
H 	H 	0.83360 0.70020 0.76360 0.06900
C 	C 	0.86130 0.68860 0.97130 0.01800
H 	H 	0.87140 0.69080 0.98000 0.03100
C 	C 	0.85090 0.68070 0.00500 -0.14200
H 	H 	0.85360 0.66920 0.03660 0.07800
C 	C 	0.83590 0.68940 0.99300 0.09100
H 	H 	0.82910 0.69460 0.01830 -0.00800
C 	C 	0.83030 0.69130 0.95060 -0.16600
H 	H 	0.82000 0.68890 0.94510 0.08600
C 	C 	0.82030 0.71660 0.84710 0.28800
C 	C 	0.81440 0.80070 0.84890 -0.37800
H 	H 	0.82000 0.85120 0.86140 0.16200
C 	C 	0.79990 0.81730 0.83260 0.28000
H 	H 	0.79650 0.87990 0.83010 -0.06400
C 	C 	0.79030 0.74360 0.81980 -0.38700
C 	C 	0.79710 0.65350 0.81990 0.28600
H 	H 	0.79180 0.60150 0.80780 -0.08700
C 	C 	0.81130 0.63900 0.83710 -0.36600
H 	H 	0.81490 0.57730 0.84200 0.15200
C 	C 	0.77470 0.76330 0.80320 0.67800
C 	C 	0.91670 0.94710 0.08770 -0.06200
C 	C 	0.91060 0.02820 0.10410 0.02700
C 	C 	0.89410 0.03550 0.11740 -0.01600
C 	C 	0.88510 0.95940 0.10960 -0.00100
C 	C 	0.89070 0.87410 0.08720 -0.00600
C 	C 	0.90760 0.86400 0.07770 0.03600
C 	C 	0.91230 0.77560 0.05580 -0.09400
H 	H 	0.92220 0.76750 0.04570 0.06500
C 	C 	0.90230 0.70590 0.05010 -0.00300
H 	H 	0.90560 0.65000 0.03550 0.03300
C 	C 	0.88780 0.70980 0.06380 -0.05400
H 	H 	0.88170 0.65630 0.06000 0.04900
C 	C 	0.88230 0.78520 0.08200 -0.04500
H 	H 	0.87240 0.78380 0.09250 0.05000
C 	C 	0.86910 0.96700 0.12110 -0.00500
C 	C 	0.86430 0.96520 0.17150 -0.01500
C 	C 	0.84920 0.96460 0.18490 0.05900
C 	C 	0.83810 0.96650 0.15030 -0.10900
C 	C 	0.84110 0.96790 0.09990 0.06500
C 	C 	0.85740 0.96570 0.08910 -0.01300
C 	C 	0.86180 0.97400 0.03870 -0.04500
H 	H 	0.87190 0.97770 0.03010 0.05400
C 	C 	0.84990 0.97510 0.00230 -0.06100
H 	H 	0.85250 0.97980 0.97000 0.05500
C 	C 	0.83500 0.96950 0.01580 -0.00500
H 	H 	0.82750 0.96540 0.99280 0.03100
C 	C 	0.83150 0.97010 0.06500 -0.11200
H 	H 	0.82130 0.97210 0.07310 0.06800
C 	C 	0.84490 0.96320 0.23340 -0.09200
H 	H 	0.83480 0.96790 0.24210 0.06700
C 	C 	0.85660 0.95420 0.26960 -0.02200
H 	H 	0.85430 0.94960 0.30210 0.04500
C 	C 	0.87200 0.95280 0.25300 -0.03600
H 	H 	0.87940 0.94920 0.27640 0.04600
C 	C 	0.87640 0.95580 0.21010 -0.05100
H 	H 	0.88660 0.95250 0.20230 0.05400
C 	C 	0.82090 0.95910 0.16580 0.21000
C 	C 	0.81450 0.03730 0.18470 -0.28600
H 	H 	0.81970 0.09500 0.18660 0.12500
C 	C 	0.79940 0.02810 0.20180 0.18300
H 	H 	0.79490 0.07990 0.21710 -0.03500
C 	C 	0.79150 0.94730 0.19640 -0.28800
C 	C 	0.79910 0.87170 0.17430 0.20400
H 	H 	0.79370 0.81650 0.16740 -0.04500
C 	C 	0.81390 0.87410 0.16240 -0.29600
H 	H 	0.81900 0.81950 0.15230 0.13200
C 	C 	0.77530 0.93490 0.21450 0.58000
O 	O 	0.98670 0.74180 0.97880 -0.54300
O 	O 	0.98460 0.88020 0.93190 -0.54500
O 	O 	0.76650 0.68840 0.80510 -0.61000
O 	O 	0.77026 0.83760 0.79520 -0.61900
O 	O 	0.76851 0.86120 0.20790 -0.61300
O 	O 	0.76990 0.00720 0.23650 -0.56200
O 	O 	0.98660 0.80930 0.07140 -0.51000
O 	O 	0.98750 0.93510 0.02580 -0.51900
Tb	Tb	0.00101 0.68808 0.03702 1.83800
C 	C 	0.88950 0.62080 0.64180 -0.05200
H 	H 	0.87960 0.62510 0.65270 0.05000
C 	C 	0.89850 0.69340 0.64950 -0.04900
H 	H 	0.89460 0.75090 0.66040 0.04800
C 	C 	0.91470 0.68610 0.64140 -0.01900
H 	H 	0.92120 0.73340 0.65220 0.03100
C 	C 	0.92010 0.60650 0.61700 -0.09300
H 	H 	0.93020 0.60420 0.60880 0.06000
C 	C 	0.93260 0.43040 0.57840 0.12200
C 	C 	0.94110 0.48250 0.54300 -0.19700
H 	H 	0.93620 0.53000 0.52560 0.09700
C 	C 	0.95620 0.46520 0.53320 0.14200
H 	H 	0.96090 0.49590 0.50760 -0.02500
C 	C 	0.96420 0.40340 0.56120 -0.24300
C 	C 	0.95610 0.35120 0.60040 0.12400
H 	H 	0.96130 0.30790 0.61970 -0.01600
C 	C 	0.94160 0.36740 0.60720 -0.19400
H 	H 	0.93680 0.33580 0.63240 0.09400
C 	C 	0.97980 0.38190 0.55180 0.50300
C 	C 	0.98070 0.30190 0.44950 0.47900
C 	C 	0.96280 0.27820 0.43590 -0.19000
C 	C 	0.95560 0.31820 0.40480 0.16500
H 	H 	0.96050 0.36610 0.38770 -0.02700
C 	C 	0.94140 0.30000 0.39300 -0.21700
H 	H 	0.93730 0.32830 0.36580 0.10200
C 	C 	0.93240 0.23720 0.42150 0.11700
C 	C 	0.94060 0.19120 0.45920 -0.17000
H 	H 	0.93540 0.15030 0.47960 0.08600
C 	C 	0.95550 0.20350 0.46700 0.08000
H 	H 	0.96080 0.16860 0.48980 0.01100
C 	C 	0.90630 0.30280 0.42370 0.03900
C 	C 	0.89030 0.29090 0.40930 0.00100
C 	C 	0.88510 0.20790 0.39410 -0.01900
C 	C 	0.89460 0.12830 0.38690 -0.00200
C 	C 	0.91110 0.13270 0.39410 0.04600
C 	C 	0.91600 0.22640 0.41420 -0.08000
C 	C 	0.91140 0.39000 0.44690 -0.08400
H 	H 	0.92120 0.39170 0.45840 0.06400
C 	C 	0.90290 0.46760 0.45290 -0.01900
H 	H 	0.90680 0.52440 0.46520 0.03900
C 	C 	0.88740 0.45730 0.43890 -0.04100
H 	H 	0.88110 0.50980 0.44290 0.04600
C 	C 	0.88130 0.37580 0.42030 -0.05800
H 	H 	0.87100 0.37400 0.41450 0.05500
C 	C 	0.88910 0.04140 0.36830 -0.07100
H 	H 	0.87890 0.03500 0.36270 0.05300
C 	C 	0.89860 0.96420 0.35800 -0.04600
H 	H 	0.89480 0.90660 0.34650 0.04900
C 	C 	0.91520 0.97840 0.36660 0.01400
H 	H 	0.92190 0.92970 0.35840 0.02500
C 	C 	0.92050 0.05750 0.38520 -0.12600
H 	H 	0.93070 0.06250 0.39230 0.06900
C 	C 	0.86830 0.20150 0.38160 0.00500
C 	C 	0.85720 0.19400 0.42110 -0.03200
C 	C 	0.84170 0.19760 0.41020 0.06700
C 	C 	0.83620 0.20650 0.36120 -0.14000
C 	C 	0.84780 0.20410 0.32290 0.06100
C 	C 	0.86290 0.20430 0.33870 -0.02500
C 	C 	0.87430 0.20590 0.29580 -0.04300
H 	H 	0.88460 0.20430 0.30120 0.04800
C 	C 	0.86880 0.20970 0.25070 -0.06000
H 	H 	0.87570 0.21100 0.22570 0.05000
C 	C 	0.85330 0.21180 0.23870 0.00800
H 	H 	0.85030 0.21810 0.20690 0.03000
C 	C 	0.84370 0.20490 0.27180 -0.11000
H 	H 	0.83360 0.20020 0.26360 0.06700
C 	C 	0.86130 0.18860 0.47130 -0.02100
H 	H 	0.87140 0.19080 0.48000 0.04200
C 	C 	0.85090 0.18070 0.50500 -0.08900
H 	H 	0.85360 0.16920 0.53660 0.05900
C 	C 	0.83590 0.18940 0.49300 0.03500
H 	H 	0.82910 0.19460 0.51830 0.01200
C 	C 	0.83030 0.19130 0.45060 -0.13000
H 	H 	0.82000 0.18890 0.44510 0.07100
C 	C 	0.82030 0.21660 0.34710 0.28000
C 	C 	0.81440 0.30070 0.34890 -0.37300
H 	H 	0.82000 0.35120 0.36140 0.15800
C 	C 	0.79990 0.31730 0.33260 0.27600
H 	H 	0.79650 0.37990 0.33010 -0.06500
C 	C 	0.79030 0.24360 0.31980 -0.38400
C 	C 	0.79710 0.15350 0.31990 0.28100
H 	H 	0.79180 0.10150 0.30780 -0.08700
C 	C 	0.81130 0.13900 0.33710 -0.36000
H 	H 	0.81490 0.07730 0.34200 0.14700
C 	C 	0.77470 0.26330 0.30320 0.67600
C 	C 	0.91670 0.44710 0.58770 -0.08800
C 	C 	0.91060 0.52820 0.60410 0.04800
C 	C 	0.89410 0.53550 0.61740 -0.00700
C 	C 	0.88510 0.45940 0.60960 -0.01200
C 	C 	0.89070 0.37410 0.58720 -0.00700
C 	C 	0.90760 0.36400 0.57770 0.04400
C 	C 	0.91230 0.27560 0.55580 -0.10300
H 	H 	0.92220 0.26750 0.54570 0.06800
C 	C 	0.90230 0.20590 0.55010 0.00500
H 	H 	0.90560 0.15000 0.53550 0.02800
C 	C 	0.88780 0.20980 0.56380 -0.06100
H 	H 	0.88170 0.15630 0.56000 0.05000
C 	C 	0.88230 0.28520 0.58200 -0.04100
H 	H 	0.87240 0.28380 0.59250 0.04900
C 	C 	0.86910 0.46700 0.62110 -0.00500
C 	C 	0.86430 0.46520 0.67150 -0.01700
C 	C 	0.84920 0.46460 0.68490 0.05600
C 	C 	0.83810 0.46650 0.65030 -0.10700
C 	C 	0.84110 0.46790 0.59990 0.06300
C 	C 	0.85740 0.46570 0.58910 -0.01500
C 	C 	0.86180 0.47400 0.53870 -0.04800
H 	H 	0.87190 0.47770 0.53010 0.05400
C 	C 	0.84990 0.47510 0.50230 -0.05700
H 	H 	0.85250 0.47980 0.47000 0.04900
C 	C 	0.83500 0.46950 0.51580 -0.00000
H 	H 	0.82750 0.46540 0.49280 0.02500
C 	C 	0.83150 0.47010 0.56500 -0.11400
H 	H 	0.82130 0.47210 0.57310 0.06800
C 	C 	0.84490 0.46320 0.73340 -0.09200
H 	H 	0.83480 0.46790 0.74210 0.06400
C 	C 	0.85660 0.45420 0.76960 -0.02500
H 	H 	0.85430 0.44960 0.80210 0.04400
C 	C 	0.87200 0.45280 0.75300 -0.03700
H 	H 	0.87940 0.44920 0.77640 0.04400
C 	C 	0.87640 0.45580 0.71010 -0.05200
H 	H 	0.88660 0.45250 0.70230 0.05200
C 	C 	0.82090 0.45910 0.66580 0.19500
C 	C 	0.81450 0.53730 0.68470 -0.27000
H 	H 	0.81970 0.59500 0.68660 0.12200
C 	C 	0.79940 0.52810 0.70180 0.19000
H 	H 	0.79490 0.57990 0.71710 -0.03500
C 	C 	0.79150 0.44730 0.69640 -0.29400
C 	C 	0.79910 0.37170 0.67430 0.20100
H 	H 	0.79370 0.31650 0.66740 -0.04400
C 	C 	0.81390 0.37410 0.66240 -0.28900
H 	H 	0.81900 0.31950 0.65230 0.12900
C 	C 	0.77530 0.43490 0.71450 0.57100
O 	O 	0.98670 0.24180 0.47880 -0.54800
O 	O 	0.98460 0.38020 0.43190 -0.55400
O 	O 	0.76650 0.18840 0.30510 -0.61000
O 	O 	0.77026 0.33760 0.29520 -0.61900
O 	O 	0.76851 0.36120 0.70790 -0.61200
O 	O 	0.76990 0.50720 0.73650 -0.55500
O 	O 	0.98660 0.30930 0.57140 -0.51400
O 	O 	0.98750 0.43510 0.52580 -0.52700
Tb	Tb	0.00101 0.18808 0.53702 1.83900
C 	C 	0.11050 0.37920 0.64180 -0.05200
H 	H 	0.12040 0.37490 0.65270 0.05000
C 	C 	0.10150 0.30660 0.64950 -0.04900
H 	H 	0.10540 0.24910 0.66040 0.04800
C 	C 	0.08530 0.31390 0.64140 -0.01900
H 	H 	0.07880 0.26660 0.65220 0.03100
C 	C 	0.07990 0.39350 0.61700 -0.09300
H 	H 	0.06980 0.39580 0.60880 0.05900
C 	C 	0.06740 0.56960 0.57840 0.12200
C 	C 	0.05890 0.51750 0.54300 -0.19600
H 	H 	0.06380 0.47000 0.52560 0.09600
C 	C 	0.04380 0.53480 0.53320 0.14200
H 	H 	0.03910 0.50410 0.50760 -0.02400
C 	C 	0.03580 0.59660 0.56120 -0.24200
C 	C 	0.04390 0.64880 0.60040 0.12400
H 	H 	0.03870 0.69210 0.61970 -0.01400
C 	C 	0.05840 0.63260 0.60720 -0.19400
H 	H 	0.06320 0.66420 0.63240 0.09400
C 	C 	0.02020 0.61810 0.55180 0.50300
C 	C 	0.01930 0.69810 0.44950 0.48000
C 	C 	0.03720 0.72180 0.43590 -0.18700
C 	C 	0.04440 0.68180 0.40480 0.16200
H 	H 	0.03950 0.63390 0.38770 -0.02500
C 	C 	0.05860 0.70000 0.39300 -0.21300
H 	H 	0.06270 0.67170 0.36580 0.10100
C 	C 	0.06760 0.76280 0.42150 0.11500
C 	C 	0.05940 0.80880 0.45920 -0.16600
H 	H 	0.06460 0.84970 0.47960 0.08800
C 	C 	0.04450 0.79650 0.46700 0.07900
H 	H 	0.03920 0.83140 0.48980 0.01500
C 	C 	0.09370 0.69720 0.42370 0.03600
C 	C 	0.10970 0.70910 0.40930 0.00300
C 	C 	0.11490 0.79210 0.39410 -0.01900
C 	C 	0.10540 0.87170 0.38690 -0.00000
C 	C 	0.08890 0.86730 0.39410 0.03300
C 	C 	0.08400 0.77360 0.41420 -0.07300
C 	C 	0.08860 0.61000 0.44690 -0.08100
H 	H 	0.07880 0.60830 0.45840 0.06300
C 	C 	0.09710 0.53240 0.45290 -0.02000
H 	H 	0.09320 0.47560 0.46520 0.03900
C 	C 	0.11260 0.54270 0.43890 -0.03900
H 	H 	0.11890 0.49020 0.44290 0.04600
C 	C 	0.11870 0.62420 0.42030 -0.05900
H 	H 	0.12900 0.62600 0.41450 0.05500
C 	C 	0.11090 0.95860 0.36830 -0.04400
H 	H 	0.12110 0.96500 0.36270 0.05100
C 	C 	0.10140 0.03580 0.35800 -0.06100
H 	H 	0.10520 0.09340 0.34650 0.05200
C 	C 	0.08480 0.02160 0.36660 -0.03000
H 	H 	0.07810 0.07030 0.35840 0.03600
C 	C 	0.07950 0.94250 0.38520 -0.07400
H 	H 	0.06930 0.93750 0.39230 0.05800
C 	C 	0.13170 0.79850 0.38160 0.00600
C 	C 	0.14280 0.80600 0.42110 -0.03200
C 	C 	0.15830 0.80240 0.41020 0.06900
C 	C 	0.16380 0.79350 0.36120 -0.13900
C 	C 	0.15220 0.79590 0.32290 0.06300
C 	C 	0.13710 0.79570 0.33870 -0.02400
C 	C 	0.12570 0.79410 0.29580 -0.04100
H 	H 	0.11540 0.79570 0.30120 0.05000
C 	C 	0.13120 0.79030 0.25070 -0.05800
H 	H 	0.12430 0.78900 0.22570 0.05100
C 	C 	0.14670 0.78820 0.23870 0.01000
H 	H 	0.14970 0.78190 0.20690 0.03100
C 	C 	0.15630 0.79510 0.27180 -0.10900
H 	H 	0.16640 0.79980 0.26360 0.06800
C 	C 	0.13870 0.81140 0.47130 -0.01900
H 	H 	0.12860 0.80920 0.48000 0.04400
C 	C 	0.14910 0.81930 0.50500 -0.08800
H 	H 	0.14640 0.83080 0.53660 0.06100
C 	C 	0.16410 0.81060 0.49300 0.03600
H 	H 	0.17090 0.80540 0.51830 0.01300
C 	C 	0.16970 0.80870 0.45060 -0.12900
H 	H 	0.18000 0.81110 0.44510 0.07300
C 	C 	0.17970 0.78340 0.34710 0.28300
C 	C 	0.18560 0.69930 0.34890 -0.37500
H 	H 	0.18000 0.64880 0.36140 0.15900
C 	C 	0.20010 0.68270 0.33260 0.27800
H 	H 	0.20350 0.62010 0.33010 -0.06600
C 	C 	0.20970 0.75640 0.31980 -0.38600
C 	C 	0.20290 0.84650 0.31990 0.28500
H 	H 	0.20820 0.89850 0.30780 -0.08600
C 	C 	0.18870 0.86100 0.33710 -0.36200
H 	H 	0.18510 0.92270 0.34200 0.15300
C 	C 	0.22530 0.73670 0.30320 0.67700
C 	C 	0.08330 0.55290 0.58770 -0.08800
C 	C 	0.08940 0.47180 0.60410 0.04800
C 	C 	0.10590 0.46450 0.61740 -0.00700
C 	C 	0.11490 0.54060 0.60960 -0.01200
C 	C 	0.10930 0.62590 0.58720 -0.00700
C 	C 	0.09240 0.63600 0.57770 0.04400
C 	C 	0.08770 0.72440 0.55580 -0.10100
H 	H 	0.07780 0.73250 0.54570 0.06800
C 	C 	0.09770 0.79410 0.55010 0.00500
H 	H 	0.09440 0.85000 0.53550 0.03300
C 	C 	0.11220 0.79020 0.56380 -0.06000
H 	H 	0.11830 0.84370 0.56000 0.05400
C 	C 	0.11770 0.71480 0.58200 -0.04100
H 	H 	0.12760 0.71620 0.59250 0.04900
C 	C 	0.13090 0.53300 0.62110 -0.00500
C 	C 	0.13570 0.53480 0.67150 -0.01700
C 	C 	0.15080 0.53540 0.68490 0.05600
C 	C 	0.16190 0.53350 0.65030 -0.10700
C 	C 	0.15890 0.53210 0.59990 0.06300
C 	C 	0.14260 0.53430 0.58910 -0.01500
C 	C 	0.13820 0.52600 0.53870 -0.04800
H 	H 	0.12810 0.52230 0.53010 0.05400
C 	C 	0.15010 0.52490 0.50230 -0.05700
H 	H 	0.14750 0.52020 0.47000 0.04800
C 	C 	0.16500 0.53050 0.51580 -0.00000
H 	H 	0.17250 0.53460 0.49280 0.02400
C 	C 	0.16850 0.52990 0.56500 -0.11400
H 	H 	0.17870 0.52790 0.57310 0.06800
C 	C 	0.15510 0.53680 0.73340 -0.09200
H 	H 	0.16520 0.53210 0.74210 0.06400
C 	C 	0.14340 0.54580 0.76960 -0.02500
H 	H 	0.14570 0.55040 0.80210 0.04400
C 	C 	0.12800 0.54720 0.75300 -0.03700
H 	H 	0.12060 0.55080 0.77640 0.04400
C 	C 	0.12360 0.54420 0.71010 -0.05200
H 	H 	0.11340 0.54750 0.70230 0.05200
C 	C 	0.17910 0.54090 0.66580 0.19500
C 	C 	0.18550 0.46270 0.68470 -0.27000
H 	H 	0.18030 0.40500 0.68660 0.12200
C 	C 	0.20060 0.47190 0.70180 0.19000
H 	H 	0.20510 0.42010 0.71710 -0.03600
C 	C 	0.20850 0.55270 0.69640 -0.29500
C 	C 	0.20090 0.62830 0.67430 0.20100
H 	H 	0.20630 0.68350 0.66740 -0.04400
C 	C 	0.18610 0.62590 0.66240 -0.29000
H 	H 	0.18100 0.68050 0.65230 0.13000
C 	C 	0.22470 0.56510 0.71450 0.57200
O 	O 	0.01330 0.75820 0.47880 -0.54600
O 	O 	0.01540 0.61980 0.43190 -0.55400
O 	O 	0.23350 0.81160 0.30510 -0.61100
O 	O 	0.22974 0.66240 0.29520 -0.62000
O 	O 	0.23149 0.63880 0.70790 -0.61200
O 	O 	0.23010 0.49280 0.73650 -0.55500
O 	O 	0.01340 0.69070 0.57140 -0.51300
O 	O 	0.01250 0.56490 0.52580 -0.52700
Tb	Tb	0.99899 0.81192 0.53702 1.84700
C 	C 	0.11050 0.87920 0.14180 -0.05300
H 	H 	0.12040 0.87490 0.15270 0.05300
C 	C 	0.10150 0.80660 0.14950 -0.04900
H 	H 	0.10540 0.74910 0.16040 0.04800
C 	C 	0.08530 0.81390 0.14140 -0.01400
H 	H 	0.07880 0.76660 0.15220 0.03000
C 	C 	0.07990 0.89350 0.11700 -0.10200
H 	H 	0.06980 0.89580 0.10880 0.06500
C 	C 	0.06740 0.06960 0.07840 0.14100
C 	C 	0.05890 0.01750 0.04300 -0.23500
H 	H 	0.06380 0.97000 0.02560 0.11600
C 	C 	0.04380 0.03480 0.03320 0.16400
H 	H 	0.03910 0.00410 0.00760 -0.03700
C 	C 	0.03580 0.09660 0.06120 -0.25700
C 	C 	0.04390 0.14880 0.10040 0.13700
H 	H 	0.03870 0.19210 0.11970 -0.02000
C 	C 	0.05840 0.13260 0.10720 -0.21000
H 	H 	0.06320 0.16420 0.13240 0.09900
C 	C 	0.02020 0.11810 0.05180 0.50700
C 	C 	0.01930 0.19810 0.94950 0.47800
C 	C 	0.03720 0.22180 0.93590 -0.18800
C 	C 	0.04440 0.18180 0.90480 0.16300
H 	H 	0.03950 0.13390 0.88770 -0.02800
C 	C 	0.05860 0.20000 0.89300 -0.21500
H 	H 	0.06270 0.17170 0.86580 0.10000
C 	C 	0.06760 0.26280 0.92150 0.11500
C 	C 	0.05940 0.30880 0.95920 -0.16700
H 	H 	0.06460 0.34970 0.97960 0.08800
C 	C 	0.04450 0.29650 0.96700 0.07900
H 	H 	0.03920 0.33140 0.98980 0.01400
C 	C 	0.09370 0.19720 0.92370 0.03300
C 	C 	0.10970 0.20910 0.90930 0.00300
C 	C 	0.11490 0.29210 0.89410 -0.02200
C 	C 	0.10540 0.37170 0.88690 0.00100
C 	C 	0.08890 0.36730 0.89410 0.03800
C 	C 	0.08400 0.27360 0.91420 -0.07500
C 	C 	0.08860 0.11000 0.94690 -0.07100
H 	H 	0.07880 0.10830 0.95840 0.05800
C 	C 	0.09710 0.03240 0.95290 -0.03900
H 	H 	0.09320 0.97560 0.96520 0.05300
C 	C 	0.11260 0.04270 0.93890 -0.05100
H 	H 	0.11890 0.99020 0.94290 0.05800
C 	C 	0.11870 0.12420 0.92030 -0.05400
H 	H 	0.12900 0.12600 0.91450 0.05200
C 	C 	0.11090 0.45860 0.86830 -0.05700
H 	H 	0.12110 0.46500 0.86270 0.05300
C 	C 	0.10140 0.53580 0.85800 -0.05300
H 	H 	0.10520 0.59340 0.84650 0.05000
C 	C 	0.08480 0.52160 0.86660 -0.01000
H 	H 	0.07810 0.57030 0.85840 0.03100
C 	C 	0.07950 0.44250 0.88520 -0.09700
H 	H 	0.06930 0.43750 0.89230 0.06300
C 	C 	0.13170 0.29850 0.88160 0.01300
C 	C 	0.14280 0.30600 0.92110 -0.05000
C 	C 	0.15830 0.30240 0.91020 0.08500
C 	C 	0.16380 0.29350 0.86120 -0.14800
C 	C 	0.15220 0.29590 0.82290 0.06700
C 	C 	0.13710 0.29570 0.83870 -0.03000
C 	C 	0.12570 0.29410 0.79580 -0.03800
H 	H 	0.11540 0.29570 0.80120 0.04700
C 	C 	0.13120 0.29030 0.75070 -0.06300
H 	H 	0.12430 0.28900 0.72570 0.05200
C 	C 	0.14670 0.28820 0.73870 0.01400
H 	H 	0.14970 0.28190 0.70690 0.02900
C 	C 	0.15630 0.29510 0.77180 -0.11500
H 	H 	0.16640 0.29980 0.76360 0.06900
C 	C 	0.13870 0.31140 0.97130 0.01600
H 	H 	0.12860 0.30920 0.98000 0.03200
C 	C 	0.14910 0.31930 0.00500 -0.13800
H 	H 	0.14640 0.33080 0.03660 0.07700
C 	C 	0.16410 0.31060 0.99300 0.08700
H 	H 	0.17090 0.30540 0.01830 -0.00700
C 	C 	0.16970 0.30870 0.95060 -0.16400
H 	H 	0.18000 0.31110 0.94510 0.08500
C 	C 	0.17970 0.28340 0.84710 0.28800
C 	C 	0.18560 0.19930 0.84890 -0.37900
H 	H 	0.18000 0.14880 0.86140 0.15900
C 	C 	0.20010 0.18270 0.83260 0.28100
H 	H 	0.20350 0.12010 0.83010 -0.06800
C 	C 	0.20970 0.25640 0.81980 -0.38800
C 	C 	0.20290 0.34650 0.81990 0.28700
H 	H 	0.20820 0.39850 0.80780 -0.08800
C 	C 	0.18870 0.36100 0.83710 -0.36600
H 	H 	0.18510 0.42270 0.84200 0.15200
C 	C 	0.22530 0.23670 0.80320 0.67800
C 	C 	0.08330 0.05290 0.08770 -0.11100
C 	C 	0.08940 0.97180 0.10410 0.06500
C 	C 	0.10590 0.96450 0.11740 0.00100
C 	C 	0.11490 0.04060 0.10960 -0.02100
C 	C 	0.10930 0.12590 0.08720 -0.00900
C 	C 	0.09240 0.13600 0.07770 0.05100
C 	C 	0.08770 0.22440 0.05580 -0.10900
H 	H 	0.07780 0.23250 0.04570 0.07000
C 	C 	0.09770 0.29410 0.05010 0.01000
H 	H 	0.09440 0.35000 0.03550 0.02900
C 	C 	0.11220 0.29020 0.06380 -0.06500
H 	H 	0.11830 0.34370 0.06000 0.05300
C 	C 	0.11770 0.21480 0.08200 -0.03800
H 	H 	0.12760 0.21620 0.09250 0.04800
C 	C 	0.13090 0.03300 0.12110 -0.00500
C 	C 	0.13570 0.03480 0.17150 -0.01800
C 	C 	0.15080 0.03540 0.18490 0.05400
C 	C 	0.16190 0.03350 0.15030 -0.10400
C 	C 	0.15890 0.03210 0.09990 0.05900
C 	C 	0.14260 0.03430 0.08910 -0.01600
C 	C 	0.13820 0.02600 0.03870 -0.04900
H 	H 	0.12810 0.02230 0.03010 0.05100
C 	C 	0.15010 0.02490 0.00230 -0.06100
H 	H 	0.14750 0.02020 0.97000 0.04900
C 	C 	0.16500 0.03050 0.01580 -0.00800
H 	H 	0.17250 0.03460 0.99280 0.02800
C 	C 	0.16850 0.02990 0.06500 -0.11100
H 	H 	0.17870 0.02790 0.07310 0.06400
C 	C 	0.15510 0.03680 0.23340 -0.09100
H 	H 	0.16520 0.03210 0.24210 0.06200
C 	C 	0.14340 0.04580 0.26960 -0.02700
H 	H 	0.14570 0.05040 0.30210 0.04300
C 	C 	0.12800 0.04720 0.25300 -0.03700
H 	H 	0.12060 0.05080 0.27640 0.04200
C 	C 	0.12360 0.04420 0.21010 -0.05400
H 	H 	0.11340 0.04750 0.20230 0.05100
C 	C 	0.17910 0.04090 0.16580 0.18100
C 	C 	0.18550 0.96270 0.18470 -0.25600
H 	H 	0.18030 0.90500 0.18660 0.11900
C 	C 	0.20060 0.97190 0.20180 0.19700
H 	H 	0.20510 0.92010 0.21710 -0.03700
C 	C 	0.20850 0.05270 0.19640 -0.30100
C 	C 	0.20090 0.12830 0.17430 0.19800
H 	H 	0.20630 0.18350 0.16740 -0.04300
C 	C 	0.18610 0.12590 0.16240 -0.28300
H 	H 	0.18100 0.18050 0.15230 0.12700
C 	C 	0.22470 0.06510 0.21450 0.56300
O 	O 	0.01330 0.25820 0.97880 -0.54400
O 	O 	0.01540 0.11980 0.93190 -0.55200
O 	O 	0.23350 0.31160 0.80510 -0.61100
O 	O 	0.22974 0.16240 0.79520 -0.62100
O 	O 	0.23149 0.13880 0.20790 -0.61100
O 	O 	0.23010 0.99280 0.23650 -0.54800
O 	O 	0.01340 0.19070 0.07140 -0.51500
O 	O 	0.01250 0.06490 0.02580 -0.53100
Tb	Tb	0.99899 0.31192 0.03702 1.83600
C 	C 	0.61050 0.37920 0.14180 -0.05200
H 	H 	0.62040 0.37490 0.15270 0.05000
C 	C 	0.60150 0.30660 0.14950 -0.04900
H 	H 	0.60540 0.24910 0.16040 0.04800
C 	C 	0.58530 0.31390 0.14140 -0.01900
H 	H 	0.57880 0.26660 0.15220 0.03100
C 	C 	0.57990 0.39350 0.11700 -0.09300
H 	H 	0.56980 0.39580 0.10880 0.05900
C 	C 	0.56740 0.56960 0.07840 0.12200
C 	C 	0.55890 0.51750 0.04300 -0.19700
H 	H 	0.56380 0.47000 0.02560 0.09600
C 	C 	0.54380 0.53480 0.03320 0.14200
H 	H 	0.53910 0.50410 0.00760 -0.02600
C 	C 	0.53580 0.59660 0.06120 -0.24300
C 	C 	0.54390 0.64880 0.10040 0.12400
H 	H 	0.53870 0.69210 0.11970 -0.01400
C 	C 	0.55840 0.63260 0.10720 -0.19400
H 	H 	0.56320 0.66420 0.13240 0.09400
C 	C 	0.52020 0.61810 0.05180 0.50300
C 	C 	0.51930 0.69810 0.94950 0.47900
C 	C 	0.53720 0.72180 0.93590 -0.18600
C 	C 	0.54440 0.68180 0.90480 0.16200
H 	H 	0.53950 0.63390 0.88770 -0.02500
C 	C 	0.55860 0.70000 0.89300 -0.21300
H 	H 	0.56270 0.67170 0.86580 0.10100
C 	C 	0.56760 0.76280 0.92150 0.11400
C 	C 	0.55940 0.80880 0.95920 -0.16500
H 	H 	0.56460 0.84970 0.97960 0.08900
C 	C 	0.54450 0.79650 0.96700 0.07900
H 	H 	0.53920 0.83140 0.98980 0.01600
C 	C 	0.59370 0.69720 0.92370 0.03500
C 	C 	0.60970 0.70910 0.90930 0.00500
C 	C 	0.61490 0.79210 0.89410 -0.02200
C 	C 	0.60540 0.87170 0.88690 0.00200
C 	C 	0.58890 0.86730 0.89410 0.03300
C 	C 	0.58400 0.77360 0.91420 -0.07200
C 	C 	0.58860 0.61000 0.94690 -0.08000
H 	H 	0.57880 0.60830 0.95840 0.06400
C 	C 	0.59710 0.53240 0.95290 -0.02100
H 	H 	0.59320 0.47560 0.96520 0.04000
C 	C 	0.61260 0.54270 0.93890 -0.03800
H 	H 	0.61890 0.49020 0.94290 0.04600
C 	C 	0.61870 0.62420 0.92030 -0.06000
H 	H 	0.62900 0.62600 0.91450 0.05500
C 	C 	0.61090 0.95860 0.86830 -0.04400
H 	H 	0.62110 0.96500 0.86270 0.05100
C 	C 	0.60140 0.03580 0.85800 -0.06000
H 	H 	0.60520 0.09340 0.84650 0.05200
C 	C 	0.58480 0.02160 0.86660 -0.03100
H 	H 	0.57810 0.07030 0.85840 0.03600
C 	C 	0.57950 0.94250 0.88520 -0.07200
H 	H 	0.56930 0.93750 0.89230 0.05700
C 	C 	0.63170 0.79850 0.88160 0.01400
C 	C 	0.64280 0.80600 0.92110 -0.05100
C 	C 	0.65830 0.80240 0.91020 0.08700
C 	C 	0.66380 0.79350 0.86120 -0.14800
C 	C 	0.65220 0.79590 0.82290 0.06900
C 	C 	0.63710 0.79570 0.83870 -0.03000
C 	C 	0.62570 0.79410 0.79580 -0.03700
H 	H 	0.61540 0.79570 0.80120 0.04800
C 	C 	0.63120 0.79030 0.75070 -0.06200
H 	H 	0.62430 0.78900 0.72570 0.05300
C 	C 	0.64670 0.78820 0.73870 0.01500
H 	H 	0.64970 0.78190 0.70690 0.02900
C 	C 	0.65630 0.79510 0.77180 -0.11400
H 	H 	0.66640 0.79980 0.76360 0.07000
C 	C 	0.63870 0.81140 0.97130 0.01800
H 	H 	0.62860 0.80920 0.98000 0.03200
C 	C 	0.64910 0.81930 0.00500 -0.14000
H 	H 	0.64640 0.83080 0.03660 0.07900
C 	C 	0.66410 0.81060 0.99300 0.09100
H 	H 	0.67090 0.80540 0.01830 -0.00800
C 	C 	0.66970 0.80870 0.95060 -0.16500
H 	H 	0.68000 0.81110 0.94510 0.08700
C 	C 	0.67970 0.78340 0.84710 0.28900
C 	C 	0.68560 0.69930 0.84890 -0.38000
H 	H 	0.68000 0.64880 0.86140 0.16100
C 	C 	0.70010 0.68270 0.83260 0.28200
H 	H 	0.70350 0.62010 0.83010 -0.06700
C 	C 	0.70970 0.75640 0.81980 -0.38800
C 	C 	0.70290 0.84650 0.81990 0.28800
H 	H 	0.70820 0.89850 0.80780 -0.08700
C 	C 	0.68870 0.86100 0.83710 -0.36700
H 	H 	0.68510 0.92270 0.84200 0.15500
C 	C 	0.72530 0.73670 0.80320 0.67900
C 	C 	0.58330 0.55290 0.08770 -0.08800
C 	C 	0.58940 0.47180 0.10410 0.04700
C 	C 	0.60590 0.46450 0.11740 -0.00700
C 	C 	0.61490 0.54060 0.10960 -0.01200
C 	C 	0.60930 0.62590 0.08720 -0.00700
C 	C 	0.59240 0.63600 0.07770 0.04400
C 	C 	0.58770 0.72440 0.05580 -0.10100
H 	H 	0.57780 0.73250 0.04570 0.06800
C 	C 	0.59770 0.79410 0.05010 0.00400
H 	H 	0.59440 0.85000 0.03550 0.03300
C 	C 	0.61220 0.79020 0.06380 -0.05900
H 	H 	0.61830 0.84370 0.06000 0.05300
C 	C 	0.61770 0.71480 0.08200 -0.04100
H 	H 	0.62760 0.71620 0.09250 0.04900
C 	C 	0.63090 0.53300 0.12110 -0.00500
C 	C 	0.63570 0.53480 0.17150 -0.01600
C 	C 	0.65080 0.53540 0.18490 0.05600
C 	C 	0.66190 0.53350 0.15030 -0.10600
C 	C 	0.65890 0.53210 0.09990 0.06200
C 	C 	0.64260 0.53430 0.08910 -0.01500
C 	C 	0.63820 0.52600 0.03870 -0.04700
H 	H 	0.62810 0.52230 0.03010 0.05200
C 	C 	0.65010 0.52490 0.00230 -0.06100
H 	H 	0.64750 0.52020 0.97000 0.05200
C 	C 	0.66500 0.53050 0.01580 -0.00700
H 	H 	0.67250 0.53460 0.99280 0.02900
C 	C 	0.66850 0.52990 0.06500 -0.11100
H 	H 	0.67870 0.52790 0.07310 0.06600
C 	C 	0.65510 0.53680 0.23340 -0.09200
H 	H 	0.66520 0.53210 0.24210 0.06400
C 	C 	0.64340 0.54580 0.26960 -0.02500
H 	H 	0.64570 0.55040 0.30210 0.04400
C 	C 	0.62800 0.54720 0.25300 -0.03600
H 	H 	0.62060 0.55080 0.27640 0.04400
C 	C 	0.62360 0.54420 0.21010 -0.05200
H 	H 	0.61340 0.54750 0.20230 0.05200
C 	C 	0.67910 0.54090 0.16580 0.19500
C 	C 	0.68550 0.46270 0.18470 -0.27000
H 	H 	0.68030 0.40500 0.18660 0.12200
C 	C 	0.70060 0.47190 0.20180 0.19000
H 	H 	0.70510 0.42010 0.21710 -0.03600
C 	C 	0.70850 0.55270 0.19640 -0.29500
C 	C 	0.70090 0.62830 0.17430 0.20100
H 	H 	0.70630 0.68350 0.16740 -0.04400
C 	C 	0.68610 0.62590 0.16240 -0.29000
H 	H 	0.68100 0.68050 0.15230 0.13000
C 	C 	0.72470 0.56510 0.21450 0.57200
O 	O 	0.51330 0.75820 0.97880 -0.54400
O 	O 	0.51540 0.61980 0.93190 -0.55400
O 	O 	0.73350 0.81160 0.80510 -0.61100
O 	O 	0.72974 0.66240 0.79520 -0.62000
O 	O 	0.73149 0.63880 0.20790 -0.61200
O 	O 	0.73010 0.49280 0.23650 -0.55500
O 	O 	0.51340 0.69070 0.07140 -0.51300
O 	O 	0.51250 0.56490 0.02580 -0.53000
Tb	Tb	0.49899 0.81192 0.03702 1.84100
C 	C 	0.61050 0.87920 0.64180 -0.05300
H 	H 	0.62040 0.87490 0.65270 0.05300
C 	C 	0.60150 0.80660 0.64950 -0.05000
H 	H 	0.60540 0.74910 0.66040 0.04800
C 	C 	0.58530 0.81390 0.64140 -0.01400
H 	H 	0.57880 0.76660 0.65220 0.03000
C 	C 	0.57990 0.89350 0.61700 -0.10200
H 	H 	0.56980 0.89580 0.60880 0.06600
C 	C 	0.56740 0.06960 0.57840 0.14200
C 	C 	0.55890 0.01750 0.54300 -0.23600
H 	H 	0.56380 0.97000 0.52560 0.11800
C 	C 	0.54380 0.03480 0.53320 0.16500
H 	H 	0.53910 0.00410 0.50760 -0.03600
C 	C 	0.53580 0.09660 0.56120 -0.25700
C 	C 	0.54390 0.14880 0.60040 0.13800
H 	H 	0.53870 0.19210 0.61970 -0.02000
C 	C 	0.55840 0.13260 0.60720 -0.21100
H 	H 	0.56320 0.16420 0.63240 0.09900
C 	C 	0.52020 0.11810 0.55180 0.50700
C 	C 	0.51930 0.19810 0.44950 0.47900
C 	C 	0.53720 0.22180 0.43590 -0.18900
C 	C 	0.54440 0.18180 0.40480 0.16300
H 	H 	0.53950 0.13390 0.38770 -0.02800
C 	C 	0.55860 0.20000 0.39300 -0.21600
H 	H 	0.56270 0.17170 0.36580 0.10000
C 	C 	0.56760 0.26280 0.42150 0.11500
C 	C 	0.55940 0.30880 0.45920 -0.16800
H 	H 	0.56460 0.34970 0.47960 0.08700
C 	C 	0.54450 0.29650 0.46700 0.07900
H 	H 	0.53920 0.33140 0.48980 0.01300
C 	C 	0.59370 0.19720 0.42370 0.03400
C 	C 	0.60970 0.20910 0.40930 0.00100
C 	C 	0.61490 0.29210 0.39410 -0.01900
C 	C 	0.60540 0.37170 0.38690 -0.00100
C 	C 	0.58890 0.36730 0.39410 0.03900
C 	C 	0.58400 0.27360 0.41420 -0.07600
C 	C 	0.58860 0.11000 0.44690 -0.07300
H 	H 	0.57880 0.10830 0.45840 0.05800
C 	C 	0.59710 0.03240 0.45290 -0.03900
H 	H 	0.59320 0.97560 0.46520 0.05200
C 	C 	0.61260 0.04270 0.43890 -0.05200
H 	H 	0.61890 0.99020 0.44290 0.05700
C 	C 	0.61870 0.12420 0.42030 -0.05400
H 	H 	0.62900 0.12600 0.41450 0.05200
C 	C 	0.61090 0.45860 0.36830 -0.05600
H 	H 	0.62110 0.46500 0.36270 0.05200
C 	C 	0.60140 0.53580 0.35800 -0.05400
H 	H 	0.60520 0.59340 0.34650 0.05100
C 	C 	0.58480 0.52160 0.36660 -0.01000
H 	H 	0.57810 0.57030 0.35840 0.03100
C 	C 	0.57950 0.44250 0.38520 -0.09800
H 	H 	0.56930 0.43750 0.39230 0.06300
C 	C 	0.63170 0.29850 0.38160 0.00500
C 	C 	0.64280 0.30600 0.42110 -0.03200
C 	C 	0.65830 0.30240 0.41020 0.06800
C 	C 	0.66380 0.29350 0.36120 -0.14000
C 	C 	0.65220 0.29590 0.32290 0.06200
C 	C 	0.63710 0.29570 0.33870 -0.02400
C 	C 	0.62570 0.29410 0.29580 -0.04200
H 	H 	0.61540 0.29570 0.30120 0.04900
C 	C 	0.63120 0.29030 0.25070 -0.05900
H 	H 	0.62430 0.28900 0.22570 0.05100
C 	C 	0.64670 0.28820 0.23870 0.00900
H 	H 	0.64970 0.28190 0.20690 0.03100
C 	C 	0.65630 0.29510 0.27180 -0.10900
H 	H 	0.66640 0.29980 0.26360 0.06700
C 	C 	0.63870 0.31140 0.47130 -0.02000
H 	H 	0.62860 0.30920 0.48000 0.04300
C 	C 	0.64910 0.31930 0.50500 -0.08800
H 	H 	0.64640 0.33080 0.53660 0.06000
C 	C 	0.66410 0.31060 0.49300 0.03600
H 	H 	0.67090 0.30540 0.51830 0.01300
C 	C 	0.66970 0.30870 0.45060 -0.13000
H 	H 	0.68000 0.31110 0.44510 0.07200
C 	C 	0.67970 0.28340 0.34710 0.28200
C 	C 	0.68560 0.19930 0.34890 -0.37500
H 	H 	0.68000 0.14880 0.36140 0.15700
C 	C 	0.70010 0.18270 0.33260 0.27700
H 	H 	0.70350 0.12010 0.33010 -0.06700
C 	C 	0.70970 0.25640 0.31980 -0.38600
C 	C 	0.70290 0.34650 0.31990 0.28400
H 	H 	0.70820 0.39850 0.30780 -0.08700
C 	C 	0.68870 0.36100 0.33710 -0.36200
H 	H 	0.68510 0.42270 0.34200 0.15000
C 	C 	0.72530 0.23670 0.30320 0.67600
C 	C 	0.58330 0.05290 0.58770 -0.11200
C 	C 	0.58940 0.97180 0.60410 0.06600
C 	C 	0.60590 0.96450 0.61740 0.00100
C 	C 	0.61490 0.04060 0.60960 -0.02100
C 	C 	0.60930 0.12590 0.58720 -0.00900
C 	C 	0.59240 0.13600 0.57770 0.05200
C 	C 	0.58770 0.22440 0.55580 -0.10900
H 	H 	0.57780 0.23250 0.54570 0.07100
C 	C 	0.59770 0.29410 0.55010 0.01100
H 	H 	0.59440 0.35000 0.53550 0.02900
C 	C 	0.61220 0.29020 0.56380 -0.06600
H 	H 	0.61830 0.34370 0.56000 0.05400
C 	C 	0.61770 0.21480 0.58200 -0.03700
H 	H 	0.62760 0.21620 0.59250 0.04800
C 	C 	0.63090 0.03300 0.62110 -0.00400
C 	C 	0.63570 0.03480 0.67150 -0.01800
C 	C 	0.65080 0.03540 0.68490 0.05400
C 	C 	0.66190 0.03350 0.65030 -0.10400
C 	C 	0.65890 0.03210 0.59990 0.06100
C 	C 	0.64260 0.03430 0.58910 -0.01600
C 	C 	0.63820 0.02600 0.53870 -0.05000
H 	H 	0.62810 0.02230 0.53010 0.05200
C 	C 	0.65010 0.02490 0.50230 -0.05700
H 	H 	0.64750 0.02020 0.47000 0.04600
C 	C 	0.66500 0.03050 0.51580 -0.00300
H 	H 	0.67250 0.03460 0.49280 0.02300
C 	C 	0.66850 0.02990 0.56500 -0.11400
H 	H 	0.67870 0.02790 0.57310 0.06600
C 	C 	0.65510 0.03680 0.73340 -0.09200
H 	H 	0.66520 0.03210 0.74210 0.06200
C 	C 	0.64340 0.04580 0.76960 -0.02700
H 	H 	0.64570 0.05040 0.80210 0.04300
C 	C 	0.62800 0.04720 0.75300 -0.03700
H 	H 	0.62060 0.05080 0.77640 0.04200
C 	C 	0.62360 0.04420 0.71010 -0.05400
H 	H 	0.61340 0.04750 0.70230 0.05000
C 	C 	0.67910 0.04090 0.66580 0.18100
C 	C 	0.68550 0.96270 0.68470 -0.25600
H 	H 	0.68030 0.90500 0.68660 0.11900
C 	C 	0.70060 0.97190 0.70180 0.19700
H 	H 	0.70510 0.92010 0.71710 -0.03700
C 	C 	0.70850 0.05270 0.69640 -0.30100
C 	C 	0.70090 0.12830 0.67430 0.19800
H 	H 	0.70630 0.18350 0.66740 -0.04300
C 	C 	0.68610 0.12590 0.66240 -0.28300
H 	H 	0.68100 0.18050 0.65230 0.12700
C 	C 	0.72470 0.06510 0.71450 0.56300
O 	O 	0.51330 0.25820 0.47880 -0.54700
O 	O 	0.51540 0.11980 0.43190 -0.55200
O 	O 	0.73350 0.31160 0.30510 -0.61000
O 	O 	0.72974 0.16240 0.29520 -0.62000
O 	O 	0.73149 0.13880 0.70790 -0.61100
O 	O 	0.73010 0.99280 0.73650 -0.54700
O 	O 	0.51340 0.19070 0.57140 -0.51500
O 	O 	0.51250 0.06490 0.52580 -0.52900
Tb	Tb	0.49899 0.31192 0.53702 1.84100
Tb	Tb	0.25000 0.25000 0.20899 2.04100
Tb	Tb	0.25000 0.75000 0.70899 2.04600
Tb	Tb	0.75000 0.75000 0.20899 2.04600
Tb	Tb	0.75000 0.25000 0.70899 2.04100
Tb	Tb	0.50000 0.00000 0.45899 2.01300
Tb	Tb	0.50000 0.50000 0.95899 2.04900
Tb	Tb	-0.00000 0.50000 0.45899 2.04400
Tb	Tb	0.00000 0.00000 0.95899 2.01700
