data_crystal

_cell_length_a 36.37830
_cell_length_b 14.67550
_cell_length_c 31.22780
_cell_angle_alpha 90.00000
_cell_angle_beta  103.18400
_cell_angle_gamma 90.00000

_symmetry_space_group_name_	'P 1'
_symmetry_space_group_name_H-M	'P 1'

loop_
_symmetry_equiv_pos_as_xyz
  x,y,z

loop_
_atom_site_label
_atom_site_type_symbol
_atom_site_fract_x
_atom_site_fract_y
_atom_site_fract_z
_atom_site_charge
Zn	Zn	0.07217 0.38512 0.85481 1.16600
Zn	Zn	0.38130 0.39852 0.17470 1.16300
Zn	Zn	0.57414 0.12331 0.35084 1.15000
Zn	Zn	0.67276 0.65024 0.03020 1.15100
Zn	Zn	0.67667 0.35093 0.53488 1.15600
Zn	Zn	0.38091 0.60332 0.67270 1.16500
I 	I 	0.01331 0.36555 0.88424 -0.43700
I 	I 	0.10494 0.26354 0.82067 -0.38100
I 	I 	0.35803 0.39461 0.24522 -0.37600
I 	I 	0.39749 0.25692 0.13697 -0.40000
I 	I 	0.36295 0.61105 0.74596 -0.39400
I 	I 	0.39912 0.73991 0.63175 -0.37800
N 	N 	0.11200 0.44690 0.90410 -0.27200
C 	C 	0.14400 0.40820 0.92520 0.07200
H 	H 	0.14900 0.34730 0.91800 -0.01300
C 	C 	0.16990 0.45220 0.95680 -0.12900
H 	H 	0.19210 0.42150 0.97170 0.07400
C 	C 	0.16360 0.54200 0.96730 0.05800
C 	C 	0.12910 0.58100 0.94760 -0.11700
H 	H 	0.12220 0.63930 0.95640 0.09800
C 	C 	0.10520 0.53260 0.91490 0.07100
H 	H 	0.08280 0.56150 0.89930 -0.00200
N 	N 	0.34060 0.46870 0.12950 -0.27300
C 	C 	0.33430 0.55450 0.13680 0.07900
H 	H 	0.35090 0.58450 0.16040 -0.00100
C 	C 	0.30460 0.60320 0.11190 -0.12000
H 	H 	0.30110 0.66560 0.11810 0.08500
C 	C 	0.28010 0.55950 0.07770 0.04600
C 	C 	0.28760 0.46970 0.06910 -0.12400
H 	H 	0.27210 0.43840 0.04490 0.08900
C 	C 	0.31760 0.42650 0.09590 0.06500
H 	H 	0.32230 0.36430 0.09040 -0.00200
N 	N 	0.18670 0.01230 0.03790 -0.29900
C 	C 	0.22110 0.98020 0.05650 0.12100
H 	H 	0.24020 0.02180 0.07020 -0.03900
C 	C 	0.22980 0.88870 0.05640 -0.15100
H 	H 	0.25470 0.86790 0.06910 0.08600
C 	C 	0.20190 0.82780 0.03760 0.06700
C 	C 	0.16630 0.86060 0.01810 -0.14200
H 	H 	0.14700 0.82050 0.00340 0.08800
C 	C 	0.15950 0.95210 0.02040 0.08500
H 	H 	0.13460 0.97390 0.00920 -0.02200
C 	C 	0.19190 0.59540 0.99980 0.09400
N 	N 	0.22330 0.55410 0.02120 -0.14100
C 	C 	0.24640 0.60590 0.05120 0.09300
N 	N 	0.24060 0.69330 0.05830 -0.14400
C 	C 	0.20940 0.72900 0.03380 0.09200
N 	N 	0.18340 0.68340 0.00520 -0.13700
N 	N 	0.42580 0.48920 0.18170 -0.27800
C 	C 	0.44110 0.52990 0.21900 0.08600
H 	H 	0.43110 0.51900 0.24410 -0.01000
C 	C 	0.47130 0.58770 0.22270 -0.13300
H 	H 	0.48190 0.61640 0.25000 0.08300
C 	C 	0.48600 0.60390 0.18740 0.05900
C 	C 	0.46950 0.56500 0.14680 -0.13600
H 	H 	0.47880 0.57610 0.12120 0.08800
C 	C 	0.43910 0.50980 0.14640 0.08000
H 	H 	0.42640 0.48430 0.11910 -0.02300
N 	N 	0.56480 0.01660 0.30590 -0.30400
C 	C 	0.53410 0.96470 0.29850 0.10200
H 	H 	0.51440 0.97990 0.31270 -0.01100
C 	C 	0.52950 0.88970 0.27120 -0.14400
H 	H 	0.50730 0.85340 0.26720 0.08200
C 	C 	0.55730 0.86860 0.25000 0.07000
C 	C 	0.59040 0.92070 0.25790 -0.15700
H 	H 	0.61070 0.90640 0.24460 0.08800
C 	C 	0.59190 0.99380 0.28600 0.13400
H 	H 	0.61400 0.03050 0.29140 -0.05100
N 	N 	0.64030 0.67010 0.07590 -0.28300
C 	C 	0.65370 0.70970 0.11370 0.11900
H 	H 	0.67940 0.72820 0.12100 -0.00900
C 	C 	0.63120 0.72530 0.14360 -0.10400
H 	H 	0.64170 0.75390 0.17090 0.08000
C 	C 	0.59430 0.69980 0.13360 0.05800
C 	C 	0.58000 0.66060 0.09310 -0.11100
H 	H 	0.55440 0.64220 0.08450 0.08100
C 	C 	0.60410 0.64890 0.06540 0.09000
H 	H 	0.59400 0.62400 0.03710 0.02700
C 	C 	0.51950 0.66650 0.19000 0.08900
N 	N 	0.52470 0.73100 0.22070 -0.14600
C 	C 	0.55270 0.78870 0.21940 0.08900
N 	N 	0.57580 0.78330 0.19260 -0.13200
C 	C 	0.56970 0.71290 0.16420 0.09900
N 	N 	0.54050 0.65460 0.16040 -0.14200
N 	N 	0.61490 0.05800 0.39820 -0.28600
C 	C 	0.60330 0.98120 0.41520 0.09200
H 	H 	0.57750 0.96340 0.40790 -0.01100
C 	C 	0.63000 0.92940 0.44360 -0.13600
H 	H 	0.62350 0.86960 0.45110 0.10000
C 	C 	0.66500 0.96130 0.46110 0.09200
C 	C 	0.67540 0.04320 0.44580 -0.16300
H 	H 	0.70000 0.06720 0.45690 0.08400
C 	C 	0.64920 0.09010 0.41380 0.08600
H 	H 	0.65620 0.14660 0.40310 -0.02100
N 	N 	0.68680 0.49030 0.53590 -0.27400
C 	C 	0.66270 0.54690 0.50950 0.06900
H 	H 	0.64040 0.52190 0.49150 -0.01600
C 	C 	0.66870 0.63810 0.50740 -0.12300
H 	H 	0.65060 0.67550 0.48850 0.08400
C 	C 	0.70110 0.67590 0.53280 0.05500
C 	C 	0.72660 0.61890 0.56020 -0.12100
H 	H 	0.74930 0.64260 0.57810 0.07500
C 	C 	0.71830 0.52770 0.56090 0.06500
H 	H 	0.73570 0.48900 0.58000 -0.01300
N 	N 	0.83860 0.03580 0.63010 -0.28500
C 	C 	0.81480 0.07970 0.59620 0.06800
H 	H 	0.81900 0.14230 0.59130 -0.00400
C 	C 	0.78510 0.03680 0.56930 -0.14600
H 	H 	0.76880 0.06990 0.54650 0.09100
C 	C 	0.77850 0.94410 0.57510 0.06700
C 	C 	0.80310 0.89870 0.60860 -0.13000
H 	H 	0.80010 0.83530 0.61310 0.08500
C 	C 	0.83240 0.94710 0.63560 0.08800
H 	H 	0.84870 0.91570 0.65910 -0.00600
C 	C 	0.69180 0.90800 0.49470 0.09500
N 	N 	0.68290 0.82220 0.50040 -0.13400
C 	C 	0.70880 0.77420 0.52910 0.10100
N 	N 	0.74020 0.80980 0.55420 -0.13800
C 	C 	0.74620 0.89980 0.54700 0.07900
N 	N 	0.72310 0.94990 0.51630 -0.13400
N 	N 	0.64400 0.33020 0.58010 -0.27800
C 	C 	0.65320 0.27680 0.61570 0.07500
H 	H 	0.67740 0.24920 0.62190 -0.01700
C 	C 	0.63030 0.25930 0.64360 -0.11700
H 	H 	0.63810 0.21920 0.66790 0.08300
C 	C 	0.59490 0.30180 0.63560 0.05800
C 	C 	0.58520 0.35920 0.59850 -0.11200
H 	H 	0.56180 0.39080 0.59230 0.08100
C 	C 	0.60980 0.36900 0.57150 0.06600
H 	H 	0.60230 0.40480 0.54560 -0.02000
N 	N 	0.42550 0.51510 0.67900 -0.26900
C 	C 	0.44150 0.47680 0.71760 0.06200
H 	H 	0.43160 0.48980 0.74260 -0.01300
C 	C 	0.47230 0.41860 0.72220 -0.11200
H 	H 	0.48290 0.39120 0.74980 0.06500
C 	C 	0.48760 0.40060 0.68610 0.03700
C 	C 	0.46950 0.43600 0.64670 -0.11100
H 	H 	0.47810 0.42020 0.62110 0.07700
C 	C 	0.43910 0.49450 0.64280 0.05300
H 	H 	0.42770 0.52040 0.61510 -0.00800
N 	N 	0.56330 0.99280 0.80950 -0.23800
C 	C 	0.58990 0.00970 0.78780 0.00700
H 	H 	0.61140 0.97110 0.79240 0.01800
C 	C 	0.58730 0.08180 0.75840 -0.08000
H 	H 	0.60660 0.09200 0.74300 0.06400
C 	C 	0.55610 0.13870 0.75200 0.02400
C 	C 	0.52830 0.11960 0.77460 -0.09400
H 	H 	0.50620 0.15620 0.77030 0.05400
C 	C 	0.53310 0.04620 0.80340 0.03900
H 	H 	0.51420 0.03390 0.81920 -0.00800
C 	C 	0.56910 0.28860 0.66470 0.11100
N 	N 	0.54080 0.34830 0.66080 -0.13500
C 	C 	0.51940 0.33740 0.68960 0.09500
N 	N 	0.52440 0.27530 0.72160 -0.15400
C 	C 	0.55240 0.21600 0.72070 0.09500
N 	N 	0.57600 0.21960 0.69340 -0.13400
I 	I 	0.51459 0.13790 0.38278 -0.45100
I 	I 	0.60222 0.24813 0.31525 0.00900
I 	I 	0.73090 0.74410 0.04990 -0.01000
I 	I 	0.62499 0.65997 0.95546 -0.27200
I 	I 	0.74210 0.27700 0.56101 -0.21000
I 	I 	0.63035 0.31720 0.46136 -0.18600
I 	I 	0.52790 0.14620 0.38350 0.07500
I 	I 	0.61200 0.24850 0.30560 -0.35400
I 	I 	0.74230 0.74180 0.05790 -0.29400
I 	I 	0.63330 0.66700 0.95740 -0.09500
I 	I 	0.73740 0.26910 0.56100 -0.13500
I 	I 	0.63340 0.31960 0.45980 -0.17500
Zn	Zn	0.57217 0.88512 0.85481 1.16700
Zn	Zn	0.88130 0.89852 0.17470 1.16500
Zn	Zn	0.07414 0.62331 0.35084 1.15200
Zn	Zn	0.17276 0.15024 0.03020 1.15100
Zn	Zn	0.17667 0.85093 0.53488 1.15800
Zn	Zn	0.88091 0.10332 0.67270 1.16500
I 	I 	0.51331 0.86555 0.88424 -0.42800
I 	I 	0.60494 0.76354 0.82067 -0.37600
I 	I 	0.85803 0.89461 0.24522 -0.36000
I 	I 	0.89749 0.75692 0.13697 -0.39700
I 	I 	0.86295 0.11105 0.74596 -0.40200
I 	I 	0.89912 0.23991 0.63175 -0.38300
N 	N 	0.61200 0.94690 0.90410 -0.25500
C 	C 	0.64400 0.90820 0.92520 0.04800
H 	H 	0.64900 0.84730 0.91800 -0.01000
C 	C 	0.66990 0.95220 0.95680 -0.09400
H 	H 	0.69210 0.92150 0.97170 0.06000
C 	C 	0.66360 0.04200 0.96730 0.01800
C 	C 	0.62910 0.08100 0.94760 -0.07700
H 	H 	0.62220 0.13930 0.95640 0.08600
C 	C 	0.60520 0.03260 0.91490 0.03700
H 	H 	0.58280 0.06150 0.89930 0.00500
N 	N 	0.84060 0.96870 0.12950 -0.25600
C 	C 	0.83430 0.05450 0.13680 0.04500
H 	H 	0.85090 0.08450 0.16040 0.00700
C 	C 	0.80460 0.10320 0.11190 -0.09200
H 	H 	0.80110 0.16560 0.11810 0.07700
C 	C 	0.78010 0.05950 0.07770 0.00700
C 	C 	0.78760 0.96970 0.06910 -0.07900
H 	H 	0.77210 0.93840 0.04490 0.08100
C 	C 	0.81760 0.92650 0.09590 0.04900
H 	H 	0.82230 0.86430 0.09040 0.00600
N 	N 	0.68670 0.51230 0.03790 -0.27200
C 	C 	0.72110 0.48020 0.05650 0.06100
H 	H 	0.74020 0.52180 0.07020 -0.00800
C 	C 	0.72980 0.38870 0.05640 -0.11400
H 	H 	0.75470 0.36790 0.06910 0.07300
C 	C 	0.70190 0.32780 0.03760 0.04500
C 	C 	0.66630 0.36060 0.01810 -0.11500
H 	H 	0.64700 0.32050 0.00340 0.07800
C 	C 	0.65950 0.45210 0.02040 0.05600
H 	H 	0.63460 0.47390 0.00920 -0.01700
C 	C 	0.69190 0.09540 0.99980 0.12200
N 	N 	0.72330 0.05410 0.02120 -0.14400
C 	C 	0.74640 0.10590 0.05120 0.12800
N 	N 	0.74060 0.19330 0.05830 -0.13800
C 	C 	0.70940 0.22900 0.03380 0.12400
N 	N 	0.68340 0.18340 0.00520 -0.13500
N 	N 	0.92580 0.98920 0.18170 -0.25100
C 	C 	0.94110 0.02990 0.21900 0.05600
H 	H 	0.93110 0.01900 0.24410 -0.00700
C 	C 	0.97130 0.08770 0.22270 -0.11100
H 	H 	0.98190 0.11640 0.25000 0.07300
C 	C 	0.98600 0.10390 0.18740 0.03600
C 	C 	0.96950 0.06500 0.14680 -0.10300
H 	H 	0.97880 0.07610 0.12120 0.07400
C 	C 	0.93910 0.00980 0.14640 0.02100
H 	H 	0.92640 0.98430 0.11910 0.00600
N 	N 	0.06480 0.51660 0.30590 -0.27700
C 	C 	0.03410 0.46470 0.29850 0.07500
H 	H 	0.01440 0.47990 0.31270 -0.00900
C 	C 	0.02950 0.38970 0.27120 -0.12700
H 	H 	0.00730 0.35340 0.26720 0.07500
C 	C 	0.05730 0.36860 0.25000 0.05600
C 	C 	0.09040 0.42070 0.25790 -0.13100
H 	H 	0.11070 0.40640 0.24460 0.09000
C 	C 	0.09190 0.49380 0.28600 0.07800
H 	H 	0.11400 0.53050 0.29140 -0.02100
N 	N 	0.14030 0.17010 0.07590 -0.28500
C 	C 	0.15370 0.20970 0.11370 0.07400
H 	H 	0.17940 0.22820 0.12100 -0.02300
C 	C 	0.13120 0.22530 0.14360 -0.11800
H 	H 	0.14170 0.25390 0.17090 0.11900
C 	C 	0.09430 0.19980 0.13360 0.05400
C 	C 	0.08000 0.16060 0.09310 -0.12300
H 	H 	0.05440 0.14220 0.08450 0.08200
C 	C 	0.10410 0.14890 0.06540 0.06900
H 	H 	0.09400 0.12400 0.03710 0.03100
C 	C 	0.01950 0.16650 0.19000 0.09400
N 	N 	0.02470 0.23100 0.22070 -0.14800
C 	C 	0.05270 0.28870 0.21940 0.09300
N 	N 	0.07580 0.28330 0.19260 -0.12200
C 	C 	0.06970 0.21290 0.16420 0.09900
N 	N 	0.04050 0.15460 0.16040 -0.14500
N 	N 	0.11490 0.55800 0.39820 -0.27100
C 	C 	0.10330 0.48120 0.41520 0.06100
H 	H 	0.07750 0.46340 0.40790 -0.00600
C 	C 	0.13000 0.42940 0.44360 -0.11100
H 	H 	0.12350 0.36960 0.45110 0.09000
C 	C 	0.16500 0.46130 0.46110 0.05600
C 	C 	0.17540 0.54320 0.44580 -0.12400
H 	H 	0.20000 0.56720 0.45690 0.07500
C 	C 	0.14920 0.59010 0.41380 0.07100
H 	H 	0.15620 0.64660 0.40310 -0.01500
N 	N 	0.18680 0.99030 0.53590 -0.24800
C 	C 	0.16270 0.04690 0.50950 0.04100
H 	H 	0.14040 0.02190 0.49150 -0.01300
C 	C 	0.16870 0.13810 0.50740 -0.10200
H 	H 	0.15060 0.17550 0.48850 0.07600
C 	C 	0.20110 0.17590 0.53280 0.03500
C 	C 	0.22660 0.11890 0.56020 -0.08800
H 	H 	0.24930 0.14260 0.57810 0.06300
C 	C 	0.21830 0.02770 0.56090 0.00800
H 	H 	0.23570 0.98900 0.58000 0.01700
N 	N 	0.33860 0.53580 0.63010 -0.27000
C 	C 	0.31480 0.57970 0.59620 0.05400
H 	H 	0.31900 0.64230 0.59130 0.00200
C 	C 	0.28510 0.53680 0.56930 -0.11000
H 	H 	0.26880 0.56990 0.54650 0.08300
C 	C 	0.27850 0.44410 0.57510 0.03500
C 	C 	0.30310 0.39870 0.60860 -0.10900
H 	H 	0.30010 0.33530 0.61310 0.07800
C 	C 	0.33240 0.44710 0.63560 0.05900
H 	H 	0.34870 0.41570 0.65910 0.00100
C 	C 	0.19180 0.40800 0.49470 0.10300
N 	N 	0.18290 0.32220 0.50040 -0.13700
C 	C 	0.20880 0.27420 0.52910 0.10700
N 	N 	0.24020 0.30980 0.55420 -0.14100
C 	C 	0.24620 0.39980 0.54700 0.08600
N 	N 	0.22310 0.44990 0.51630 -0.14200
N 	N 	0.14400 0.83020 0.58010 -0.27700
C 	C 	0.15320 0.77680 0.61570 0.07700
H 	H 	0.17740 0.74920 0.62190 -0.01400
C 	C 	0.13030 0.75930 0.64360 -0.11600
H 	H 	0.13810 0.71920 0.66790 0.08500
C 	C 	0.09490 0.80180 0.63560 0.05900
C 	C 	0.08520 0.85920 0.59850 -0.11100
H 	H 	0.06180 0.89080 0.59230 0.08300
C 	C 	0.10980 0.86900 0.57150 0.06700
H 	H 	0.10230 0.90480 0.54560 -0.01700
N 	N 	0.92550 0.01510 0.67900 -0.29400
C 	C 	0.94150 0.97680 0.71760 0.08900
H 	H 	0.93160 0.98980 0.74260 -0.01700
C 	C 	0.97230 0.91860 0.72220 -0.13100
H 	H 	0.98290 0.89120 0.74980 0.07200
C 	C 	0.98760 0.90060 0.68610 0.05800
C 	C 	0.96950 0.93600 0.64670 -0.14300
H 	H 	0.97810 0.92020 0.62110 0.09000
C 	C 	0.93910 0.99450 0.64280 0.10900
H 	H 	0.92770 0.02040 0.61510 -0.03700
N 	N 	0.06330 0.49280 0.80950 -0.26600
C 	C 	0.08990 0.50970 0.78780 0.06900
H 	H 	0.11140 0.47110 0.79240 -0.01300
C 	C 	0.08730 0.58180 0.75840 -0.11300
H 	H 	0.10660 0.59200 0.74300 0.07900
C 	C 	0.05610 0.63870 0.75200 0.04600
C 	C 	0.02830 0.61960 0.77460 -0.11400
H 	H 	0.00620 0.65620 0.77030 0.06300
C 	C 	0.03310 0.54620 0.80340 0.06900
H 	H 	0.01420 0.53390 0.81920 -0.01100
C 	C 	0.06910 0.78860 0.66470 0.11200
N 	N 	0.04080 0.84830 0.66080 -0.13300
C 	C 	0.01940 0.83740 0.68960 0.09000
N 	N 	0.02440 0.77530 0.72160 -0.15100
C 	C 	0.05240 0.71600 0.72070 0.09000
N 	N 	0.07600 0.71960 0.69340 -0.13200
I 	I 	0.01459 0.63790 0.38278 -0.44800
I 	I 	0.10222 0.74813 0.31525 0.01200
I 	I 	0.23090 0.24410 0.04990 -0.01900
I 	I 	0.12499 0.15997 0.95546 -0.26200
I 	I 	0.24210 0.77700 0.56101 -0.20700
I 	I 	0.13035 0.81720 0.46136 -0.18400
I 	I 	0.02790 0.64620 0.38350 0.08100
I 	I 	0.11200 0.74850 0.30560 -0.35400
I 	I 	0.24230 0.24180 0.05790 -0.32200
I 	I 	0.13330 0.16700 0.95740 -0.09400
I 	I 	0.23740 0.76910 0.56100 -0.13300
I 	I 	0.13340 0.81960 0.45980 -0.17200
Zn	Zn	0.92783 0.38512 0.14519 1.16700
Zn	Zn	0.61870 0.39852 0.82530 1.16400
Zn	Zn	0.42586 0.12331 0.64916 1.15100
Zn	Zn	0.32724 0.65024 0.96980 1.15200
Zn	Zn	0.32333 0.35093 0.46512 1.15700
Zn	Zn	0.61909 0.60332 0.32730 1.16600
I 	I 	0.98669 0.36555 0.11576 -0.43800
I 	I 	0.89506 0.26354 0.17933 -0.38000
I 	I 	0.64197 0.39461 0.75478 -0.37500
I 	I 	0.60251 0.25692 0.86303 -0.40000
I 	I 	0.63705 0.61105 0.25404 -0.39400
I 	I 	0.60088 0.73991 0.36825 -0.37800
N 	N 	0.88800 0.44690 0.09590 -0.27200
C 	C 	0.85600 0.40820 0.07480 0.07200
H 	H 	0.85100 0.34730 0.08200 -0.01300
C 	C 	0.83010 0.45220 0.04320 -0.12900
H 	H 	0.80790 0.42150 0.02830 0.07400
C 	C 	0.83640 0.54200 0.03270 0.05800
C 	C 	0.87090 0.58100 0.05240 -0.11700
H 	H 	0.87780 0.63930 0.04360 0.09800
C 	C 	0.89480 0.53260 0.08510 0.07100
H 	H 	0.91720 0.56150 0.10070 -0.00200
N 	N 	0.65940 0.46870 0.87050 -0.27300
C 	C 	0.66570 0.55450 0.86320 0.07900
H 	H 	0.64910 0.58450 0.83960 -0.00100
C 	C 	0.69540 0.60320 0.88810 -0.12000
H 	H 	0.69890 0.66560 0.88190 0.08500
C 	C 	0.71990 0.55950 0.92230 0.04600
C 	C 	0.71240 0.46970 0.93090 -0.12400
H 	H 	0.72790 0.43840 0.95510 0.08900
C 	C 	0.68240 0.42650 0.90410 0.06500
H 	H 	0.67770 0.36430 0.90960 -0.00200
N 	N 	0.81330 0.01230 0.96210 -0.29900
C 	C 	0.77890 0.98020 0.94350 0.12100
H 	H 	0.75980 0.02180 0.92980 -0.03900
C 	C 	0.77020 0.88870 0.94360 -0.15100
H 	H 	0.74530 0.86790 0.93090 0.08600
C 	C 	0.79810 0.82780 0.96240 0.06700
C 	C 	0.83370 0.86060 0.98190 -0.14200
H 	H 	0.85300 0.82050 0.99660 0.08800
C 	C 	0.84050 0.95210 0.97960 0.08500
H 	H 	0.86540 0.97390 0.99080 -0.02200
C 	C 	0.80810 0.59540 0.00020 0.09400
N 	N 	0.77670 0.55410 0.97880 -0.14100
C 	C 	0.75360 0.60590 0.94880 0.09300
N 	N 	0.75940 0.69330 0.94170 -0.14400
C 	C 	0.79060 0.72900 0.96620 0.09200
N 	N 	0.81660 0.68340 0.99480 -0.13700
N 	N 	0.57420 0.48920 0.81830 -0.27800
C 	C 	0.55890 0.52990 0.78100 0.08600
H 	H 	0.56890 0.51900 0.75590 -0.01000
C 	C 	0.52870 0.58770 0.77730 -0.13300
H 	H 	0.51810 0.61640 0.75000 0.08300
C 	C 	0.51400 0.60390 0.81260 0.05900
C 	C 	0.53050 0.56500 0.85320 -0.13600
H 	H 	0.52120 0.57610 0.87880 0.08800
C 	C 	0.56090 0.50980 0.85360 0.08000
H 	H 	0.57360 0.48430 0.88090 -0.02300
N 	N 	0.43520 0.01660 0.69410 -0.30400
C 	C 	0.46590 0.96470 0.70150 0.10200
H 	H 	0.48560 0.97990 0.68730 -0.01100
C 	C 	0.47050 0.88970 0.72880 -0.14400
H 	H 	0.49270 0.85340 0.73280 0.08200
C 	C 	0.44270 0.86860 0.75000 0.07000
C 	C 	0.40960 0.92070 0.74210 -0.15700
H 	H 	0.38930 0.90640 0.75540 0.08800
C 	C 	0.40810 0.99380 0.71400 0.13400
H 	H 	0.38600 0.03050 0.70860 -0.05100
N 	N 	0.35970 0.67010 0.92410 -0.28300
C 	C 	0.34630 0.70970 0.88630 0.11900
H 	H 	0.32060 0.72820 0.87900 -0.00900
C 	C 	0.36880 0.72530 0.85640 -0.10400
H 	H 	0.35830 0.75390 0.82910 0.08000
C 	C 	0.40570 0.69980 0.86640 0.05800
C 	C 	0.42000 0.66060 0.90690 -0.11100
H 	H 	0.44560 0.64220 0.91550 0.08100
C 	C 	0.39590 0.64890 0.93460 0.09000
H 	H 	0.40600 0.62400 0.96290 0.02700
C 	C 	0.48050 0.66650 0.81000 0.08900
N 	N 	0.47530 0.73100 0.77930 -0.14600
C 	C 	0.44730 0.78870 0.78060 0.08900
N 	N 	0.42420 0.78330 0.80740 -0.13200
C 	C 	0.43030 0.71290 0.83580 0.09900
N 	N 	0.45950 0.65460 0.83960 -0.14200
N 	N 	0.38510 0.05800 0.60180 -0.28600
C 	C 	0.39670 0.98120 0.58480 0.09200
H 	H 	0.42250 0.96340 0.59210 -0.01100
C 	C 	0.37000 0.92940 0.55640 -0.13600
H 	H 	0.37650 0.86960 0.54890 0.10000
C 	C 	0.33500 0.96130 0.53890 0.09200
C 	C 	0.32460 0.04320 0.55420 -0.16300
H 	H 	0.30000 0.06720 0.54310 0.08400
C 	C 	0.35080 0.09010 0.58620 0.08600
H 	H 	0.34380 0.14660 0.59690 -0.02100
N 	N 	0.31320 0.49030 0.46410 -0.27400
C 	C 	0.33730 0.54690 0.49050 0.06900
H 	H 	0.35960 0.52190 0.50850 -0.01600
C 	C 	0.33130 0.63810 0.49260 -0.12300
H 	H 	0.34940 0.67550 0.51150 0.08400
C 	C 	0.29890 0.67590 0.46720 0.05500
C 	C 	0.27340 0.61890 0.43980 -0.12100
H 	H 	0.25070 0.64260 0.42190 0.07500
C 	C 	0.28170 0.52770 0.43910 0.06500
H 	H 	0.26430 0.48900 0.42000 -0.01300
N 	N 	0.16140 0.03580 0.36990 -0.28500
C 	C 	0.18520 0.07970 0.40380 0.06800
H 	H 	0.18100 0.14230 0.40870 -0.00400
C 	C 	0.21490 0.03680 0.43070 -0.14600
H 	H 	0.23120 0.06990 0.45350 0.09100
C 	C 	0.22150 0.94410 0.42490 0.06700
C 	C 	0.19690 0.89870 0.39140 -0.13000
H 	H 	0.19990 0.83530 0.38690 0.08500
C 	C 	0.16760 0.94710 0.36440 0.08800
H 	H 	0.15130 0.91570 0.34090 -0.00600
C 	C 	0.30820 0.90800 0.50530 0.09500
N 	N 	0.31710 0.82220 0.49960 -0.13400
C 	C 	0.29120 0.77420 0.47090 0.10100
N 	N 	0.25980 0.80980 0.44580 -0.13800
C 	C 	0.25380 0.89980 0.45300 0.07900
N 	N 	0.27690 0.94990 0.48370 -0.13400
N 	N 	0.35600 0.33020 0.41990 -0.27800
C 	C 	0.34680 0.27680 0.38430 0.07500
H 	H 	0.32260 0.24920 0.37810 -0.01700
C 	C 	0.36970 0.25930 0.35640 -0.11700
H 	H 	0.36190 0.21920 0.33210 0.08300
C 	C 	0.40510 0.30180 0.36440 0.05800
C 	C 	0.41480 0.35920 0.40150 -0.11200
H 	H 	0.43820 0.39080 0.40770 0.08100
C 	C 	0.39020 0.36900 0.42850 0.06600
H 	H 	0.39770 0.40480 0.45440 -0.02000
N 	N 	0.57450 0.51510 0.32100 -0.26900
C 	C 	0.55850 0.47680 0.28240 0.06200
H 	H 	0.56840 0.48980 0.25740 -0.01300
C 	C 	0.52770 0.41860 0.27780 -0.11200
H 	H 	0.51710 0.39120 0.25020 0.06500
C 	C 	0.51240 0.40060 0.31390 0.03700
C 	C 	0.53050 0.43600 0.35330 -0.11100
H 	H 	0.52190 0.42020 0.37890 0.07700
C 	C 	0.56090 0.49450 0.35720 0.05300
H 	H 	0.57230 0.52040 0.38490 -0.00800
N 	N 	0.43670 0.99280 0.19050 -0.23800
C 	C 	0.41010 0.00970 0.21220 0.00700
H 	H 	0.38860 0.97110 0.20760 0.01800
C 	C 	0.41270 0.08180 0.24160 -0.08000
H 	H 	0.39340 0.09200 0.25700 0.06400
C 	C 	0.44390 0.13870 0.24800 0.02400
C 	C 	0.47170 0.11960 0.22540 -0.09400
H 	H 	0.49380 0.15620 0.22970 0.05500
C 	C 	0.46690 0.04620 0.19660 0.03900
H 	H 	0.48580 0.03390 0.18080 -0.00800
C 	C 	0.43090 0.28860 0.33530 0.11100
N 	N 	0.45920 0.34830 0.33920 -0.13500
C 	C 	0.48060 0.33740 0.31040 0.09500
N 	N 	0.47560 0.27530 0.27840 -0.15400
C 	C 	0.44760 0.21600 0.27930 0.09500
N 	N 	0.42400 0.21960 0.30660 -0.13400
I 	I 	0.48541 0.13790 0.61722 -0.45100
I 	I 	0.39778 0.24813 0.68475 0.00900
I 	I 	0.26910 0.74410 0.95010 -0.01000
I 	I 	0.37501 0.65997 0.04454 -0.27200
I 	I 	0.25790 0.27700 0.43899 -0.21000
I 	I 	0.36965 0.31720 0.53864 -0.18600
I 	I 	0.47210 0.14620 0.61650 0.07500
I 	I 	0.38800 0.24850 0.69440 -0.35400
I 	I 	0.25770 0.74180 0.94210 -0.29400
I 	I 	0.36670 0.66700 0.04260 -0.09500
I 	I 	0.26260 0.26910 0.43900 -0.13500
I 	I 	0.36660 0.31960 0.54020 -0.17500
Zn	Zn	0.42783 0.88512 0.14519 1.16700
Zn	Zn	0.11870 0.89852 0.82530 1.16500
Zn	Zn	0.92586 0.62331 0.64916 1.15200
Zn	Zn	0.82724 0.15024 0.96980 1.15100
Zn	Zn	0.82333 0.85093 0.46512 1.15800
Zn	Zn	0.11909 0.10332 0.32730 1.16500
I 	I 	0.48669 0.86555 0.11576 -0.42800
I 	I 	0.39506 0.76354 0.17933 -0.37600
I 	I 	0.14197 0.89461 0.75478 -0.36000
I 	I 	0.10251 0.75692 0.86303 -0.39700
I 	I 	0.13705 0.11105 0.25404 -0.40200
I 	I 	0.10088 0.23991 0.36825 -0.38300
N 	N 	0.38800 0.94690 0.09590 -0.25500
C 	C 	0.35600 0.90820 0.07480 0.04800
H 	H 	0.35100 0.84730 0.08200 -0.01000
C 	C 	0.33010 0.95220 0.04320 -0.09400
H 	H 	0.30790 0.92150 0.02830 0.06000
C 	C 	0.33640 0.04200 0.03270 0.01800
C 	C 	0.37090 0.08100 0.05240 -0.07700
H 	H 	0.37780 0.13930 0.04360 0.08600
C 	C 	0.39480 0.03260 0.08510 0.03700
H 	H 	0.41720 0.06150 0.10070 0.00500
N 	N 	0.15940 0.96870 0.87050 -0.25600
C 	C 	0.16570 0.05450 0.86320 0.04500
H 	H 	0.14910 0.08450 0.83960 0.00700
C 	C 	0.19540 0.10320 0.88810 -0.09200
H 	H 	0.19890 0.16560 0.88190 0.07700
C 	C 	0.21990 0.05950 0.92230 0.00700
C 	C 	0.21240 0.96970 0.93090 -0.07900
H 	H 	0.22790 0.93840 0.95510 0.08100
C 	C 	0.18240 0.92650 0.90410 0.04900
H 	H 	0.17770 0.86430 0.90960 0.00600
N 	N 	0.31330 0.51230 0.96210 -0.27200
C 	C 	0.27890 0.48020 0.94350 0.06100
H 	H 	0.25980 0.52180 0.92980 -0.00800
C 	C 	0.27020 0.38870 0.94360 -0.11400
H 	H 	0.24530 0.36790 0.93090 0.07300
C 	C 	0.29810 0.32780 0.96240 0.04500
C 	C 	0.33370 0.36060 0.98190 -0.11500
H 	H 	0.35300 0.32050 0.99660 0.07800
C 	C 	0.34050 0.45210 0.97960 0.05600
H 	H 	0.36540 0.47390 0.99080 -0.01700
C 	C 	0.30810 0.09540 0.00020 0.12200
N 	N 	0.27670 0.05410 0.97880 -0.14400
C 	C 	0.25360 0.10590 0.94880 0.12800
N 	N 	0.25940 0.19330 0.94170 -0.13800
C 	C 	0.29060 0.22900 0.96620 0.12400
N 	N 	0.31660 0.18340 0.99480 -0.13500
N 	N 	0.07420 0.98920 0.81830 -0.25100
C 	C 	0.05890 0.02990 0.78100 0.05600
H 	H 	0.06890 0.01900 0.75590 -0.00700
C 	C 	0.02870 0.08770 0.77730 -0.11100
H 	H 	0.01810 0.11640 0.75000 0.07300
C 	C 	0.01400 0.10390 0.81260 0.03700
C 	C 	0.03050 0.06500 0.85320 -0.10300
H 	H 	0.02120 0.07610 0.87880 0.07400
C 	C 	0.06090 0.00980 0.85360 0.02100
H 	H 	0.07360 0.98430 0.88090 0.00600
N 	N 	0.93520 0.51660 0.69410 -0.27700
C 	C 	0.96590 0.46470 0.70150 0.07500
H 	H 	0.98560 0.47990 0.68730 -0.00900
C 	C 	0.97050 0.38970 0.72880 -0.12700
H 	H 	0.99270 0.35340 0.73280 0.07500
C 	C 	0.94270 0.36860 0.75000 0.05600
C 	C 	0.90960 0.42070 0.74210 -0.13100
H 	H 	0.88930 0.40640 0.75540 0.09000
C 	C 	0.90810 0.49380 0.71400 0.07800
H 	H 	0.88600 0.53050 0.70860 -0.02100
N 	N 	0.85970 0.17010 0.92410 -0.28500
C 	C 	0.84630 0.20970 0.88630 0.07400
H 	H 	0.82060 0.22820 0.87900 -0.02300
C 	C 	0.86880 0.22530 0.85640 -0.11800
H 	H 	0.85830 0.25390 0.82910 0.11900
C 	C 	0.90570 0.19980 0.86640 0.05400
C 	C 	0.92000 0.16060 0.90690 -0.12300
H 	H 	0.94560 0.14220 0.91550 0.08100
C 	C 	0.89590 0.14890 0.93460 0.06900
H 	H 	0.90600 0.12400 0.96290 0.03100
C 	C 	0.98050 0.16650 0.81000 0.09300
N 	N 	0.97530 0.23100 0.77930 -0.14800
C 	C 	0.94730 0.28870 0.78060 0.09300
N 	N 	0.92420 0.28330 0.80740 -0.12200
C 	C 	0.93030 0.21290 0.83580 0.09900
N 	N 	0.95950 0.15460 0.83960 -0.14500
N 	N 	0.88510 0.55800 0.60180 -0.27100
C 	C 	0.89670 0.48120 0.58480 0.06100
H 	H 	0.92250 0.46340 0.59210 -0.00600
C 	C 	0.87000 0.42940 0.55640 -0.11100
H 	H 	0.87650 0.36960 0.54890 0.09000
C 	C 	0.83500 0.46130 0.53890 0.05600
C 	C 	0.82460 0.54320 0.55420 -0.12400
H 	H 	0.80000 0.56720 0.54310 0.07500
C 	C 	0.85080 0.59010 0.58620 0.07100
H 	H 	0.84380 0.64660 0.59690 -0.01500
N 	N 	0.81320 0.99030 0.46410 -0.24800
C 	C 	0.83730 0.04690 0.49050 0.04100
H 	H 	0.85960 0.02190 0.50850 -0.01300
C 	C 	0.83130 0.13810 0.49260 -0.10200
H 	H 	0.84940 0.17550 0.51150 0.07600
C 	C 	0.79890 0.17590 0.46720 0.03500
C 	C 	0.77340 0.11890 0.43980 -0.08800
H 	H 	0.75070 0.14260 0.42190 0.06300
C 	C 	0.78170 0.02770 0.43910 0.00800
H 	H 	0.76430 0.98900 0.42000 0.01700
N 	N 	0.66140 0.53580 0.36990 -0.27000
C 	C 	0.68520 0.57970 0.40380 0.05400
H 	H 	0.68100 0.64230 0.40870 0.00200
C 	C 	0.71490 0.53680 0.43070 -0.11000
H 	H 	0.73120 0.56990 0.45350 0.08300
C 	C 	0.72150 0.44410 0.42490 0.03500
C 	C 	0.69690 0.39870 0.39140 -0.10900
H 	H 	0.69990 0.33530 0.38690 0.07800
C 	C 	0.66760 0.44710 0.36440 0.05900
H 	H 	0.65130 0.41570 0.34090 0.00100
C 	C 	0.80820 0.40800 0.50530 0.10300
N 	N 	0.81710 0.32220 0.49960 -0.13700
C 	C 	0.79120 0.27420 0.47090 0.10700
N 	N 	0.75980 0.30980 0.44580 -0.14100
C 	C 	0.75380 0.39980 0.45300 0.08600
N 	N 	0.77690 0.44990 0.48370 -0.14200
N 	N 	0.85600 0.83020 0.41990 -0.27700
C 	C 	0.84680 0.77680 0.38430 0.07700
H 	H 	0.82260 0.74920 0.37810 -0.01400
C 	C 	0.86970 0.75930 0.35640 -0.11600
H 	H 	0.86190 0.71920 0.33210 0.08500
C 	C 	0.90510 0.80180 0.36440 0.05900
C 	C 	0.91480 0.85920 0.40150 -0.11100
H 	H 	0.93820 0.89080 0.40770 0.08300
C 	C 	0.89020 0.86900 0.42850 0.06700
H 	H 	0.89770 0.90480 0.45440 -0.01700
N 	N 	0.07450 0.01510 0.32100 -0.29500
C 	C 	0.05850 0.97680 0.28240 0.09000
H 	H 	0.06840 0.98980 0.25740 -0.01700
C 	C 	0.02770 0.91860 0.27780 -0.13100
H 	H 	0.01710 0.89120 0.25020 0.07300
C 	C 	0.01240 0.90060 0.31390 0.05900
C 	C 	0.03050 0.93600 0.35330 -0.14300
H 	H 	0.02190 0.92020 0.37890 0.09000
C 	C 	0.06090 0.99450 0.35720 0.10900
H 	H 	0.07230 0.02040 0.38490 -0.03700
N 	N 	0.93670 0.49280 0.19050 -0.26600
C 	C 	0.91010 0.50970 0.21220 0.06800
H 	H 	0.88860 0.47110 0.20760 -0.01300
C 	C 	0.91270 0.58180 0.24160 -0.11300
H 	H 	0.89340 0.59200 0.25700 0.07900
C 	C 	0.94390 0.63870 0.24800 0.04500
C 	C 	0.97170 0.61960 0.22540 -0.11400
H 	H 	0.99380 0.65620 0.22970 0.06300
C 	C 	0.96690 0.54620 0.19660 0.06900
H 	H 	0.98580 0.53390 0.18080 -0.01100
C 	C 	0.93090 0.78860 0.33530 0.11200
N 	N 	0.95920 0.84830 0.33920 -0.13300
C 	C 	0.98060 0.83740 0.31040 0.08900
N 	N 	0.97560 0.77530 0.27840 -0.15100
C 	C 	0.94760 0.71600 0.27930 0.09000
N 	N 	0.92400 0.71960 0.30660 -0.13200
I 	I 	0.98541 0.63790 0.61722 -0.44800
I 	I 	0.89778 0.74813 0.68475 0.01200
I 	I 	0.76910 0.24410 0.95010 -0.01900
I 	I 	0.87501 0.15997 0.04454 -0.26200
I 	I 	0.75790 0.77700 0.43899 -0.20700
I 	I 	0.86965 0.81720 0.53864 -0.18400
I 	I 	0.97210 0.64620 0.61650 0.08000
I 	I 	0.88800 0.74850 0.69440 -0.35400
I 	I 	0.75770 0.24180 0.94210 -0.32200
I 	I 	0.86670 0.16700 0.04260 -0.09400
I 	I 	0.76260 0.76910 0.43900 -0.13300
I 	I 	0.86660 0.81960 0.54020 -0.17200
C 	C 	0.14600 0.48400 0.14080 5.09900
H 	H 	0.14950 0.42510 0.15750 -1.40100
C 	C 	0.12950 0.55600 0.16870 0.11000
H 	H 	0.14090 0.54460 0.20050 -0.00400
C 	C 	0.08760 0.53500 0.16030 0.30400
H 	H 	0.08420 0.47070 0.16790 0.01800
H 	H 	0.07600 0.57380 0.17960 -0.06800
C 	C 	0.06810 0.55100 0.11360 -0.20800
H 	H 	0.06800 0.61740 0.10710 0.12100
H 	H 	0.04150 0.53070 0.10860 0.10900
C 	C 	0.08810 0.49990 0.08350 0.28100
C 	C 	0.12450 0.46560 0.09710 -1.49400
C 	C 	0.13930 0.40970 0.06920 -0.42100
H 	H 	0.16420 0.38620 0.07850 0.13700
C 	C 	0.11760 0.38810 0.02780 -0.30700
H 	H 	0.12770 0.34980 0.00870 0.11000
C 	C 	0.08120 0.42200 0.01420 -0.03200
H 	H 	0.06640 0.40760 0.98590 0.03000
C 	C 	0.06640 0.47800 0.04210 -0.22800
C 	C 	0.18540 0.51800 0.13690 -0.60600
O 	O 	0.19570 0.55500 0.11590 -0.81900
O 	O 	0.20690 0.48100 0.17350 0.80000
C 	C 	0.24900 0.49900 0.18500 -0.64400
H 	H 	0.26070 0.46780 0.21200 0.12500
H 	H 	0.26000 0.47650 0.16070 0.16900
H 	H 	0.25360 0.56480 0.18820 -0.51600
O 	O 	0.13860 0.64000 0.15900 0.36700
H 	H 	0.15180 0.63810 0.14050 -0.12700
O 	O 	0.03070 0.52300 0.03000 -0.08000
C 	C 	0.99190 0.49600 0.01600 -1.06000
H 	H 	0.97590 0.55070 0.01070 0.43100
H 	H 	0.98850 0.46160 0.98820 0.54700
H 	H 	0.98490 0.45820 0.03830 0.28300
C 	C 	0.13410 0.55200 0.11910 -0.72100
H 	H 	0.12900 0.50300 0.13940 -2.47000
C 	C 	0.12440 0.64700 0.13760 0.31900
H 	H 	0.09750 0.64430 0.14000 -0.05100
C 	C 	0.12610 0.71400 0.10170 -0.39800
H 	H 	0.11840 0.77400 0.11110 0.12300
H 	H 	0.15290 0.71910 0.10010 0.12600
C 	C 	0.10380 0.69700 0.05660 0.26800
H 	H 	0.11760 0.72200 0.03520 -0.04600
H 	H 	0.07940 0.73010 0.05230 -0.04600
C 	C 	0.09620 0.59700 0.04750 -0.45500
C 	C 	0.11420 0.52860 0.07530 0.82800
C 	C 	0.11210 0.43870 0.06090 0.51400
H 	H 	0.12450 0.39190 0.07990 0.36800
C 	C 	0.09210 0.41730 0.01860 -0.00100
H 	H 	0.09060 0.35590 0.00880 0.08600
C 	C 	0.07400 0.48600 0.99080 -0.14800
H 	H 	0.06030 0.47120 0.96200 0.05000
C 	C 	0.07610 0.57600 0.00530 0.24000
C 	C 	0.17680 0.55200 0.12090 0.95800
O 	O 	0.19310 0.57600 0.10210 0.28300
O 	O 	0.19160 0.50100 0.15670 -1.10800
C 	C 	0.23420 0.50500 0.17400 -0.21200
H 	H 	0.24160 0.46550 0.19950 0.21100
H 	H 	0.24650 0.48400 0.15070 0.13100
H 	H 	0.24190 0.56780 0.18180 0.80000
O 	O 	0.14530 0.66000 0.17810 -0.84800
H 	H 	0.15950 0.70520 0.17820 0.36500
O 	O 	0.05900 0.65300 0.98020 -0.16600
C 	C 	0.03800 0.72800 0.99300 0.00900
H 	H 	0.03020 0.76980 0.96790 0.41800
H 	H 	0.01540 0.70390 0.00120 0.05300
H 	H 	0.05360 0.76040 0.01770 0.07900
C 	C 	-0.00000 0.82400 0.06060 -0.06600
C 	C 	0.95600 0.80700 0.04800 -0.35100
H 	H 	0.94560 0.80520 0.07460 0.15100
C 	C 	0.93520 0.87300 0.01600 0.25900
H 	H 	0.90940 0.88110 0.02050 -0.06400
H 	H 	0.93310 0.85020 0.98550 0.01800
C 	C 	0.95600 0.96500 0.02100 -0.14100
H 	H 	0.94040 0.01230 0.00240 0.09200
H 	H 	0.96110 0.98570 0.05210 0.09400
C 	C 	0.99200 0.94700 0.00600 -0.02600
C 	C 	0.01030 0.86700 0.01870 0.08700
C 	C 	0.03900 0.83500 0.00400 -0.17400
H 	H 	0.05160 0.77950 0.01420 -0.01200
C 	C 	0.05000 0.88700 0.97100 -0.11900
H 	H 	0.06520 0.86130 0.95250 0.06700
C 	C 	0.03900 0.97800 0.96600 -0.00200
H 	H 	0.05360 0.02040 0.95360 0.00200
C 	C 	0.00700 0.01000 0.98000 0.09100
C 	C 	0.02000 0.83800 0.11090 0.35200
O 	O 	0.03100 0.82700 0.15200 0.22400
O 	O 	0.04900 0.90000 0.12200 -0.91800
C 	C 	0.08800 0.91400 0.14000 -0.71200
H 	H 	0.09430 0.97920 0.13950 0.20400
H 	H 	0.09470 0.89220 0.17060 0.27800
H 	H 	0.10320 0.88030 0.12290 0.25100
O 	O 	0.97100 0.71900 0.04100 -0.39100
O 	O 	0.01000 0.10400 0.99300 -0.02700
C 	C 	0.00300 0.20000 0.99200 0.55700
H 	H 	0.01820 0.22770 0.01890 3.59400
H 	H 	0.01090 0.22640 0.96640 -0.31900
H 	H 	0.97640 0.21240 0.98970 -3.96600
C 	C 	0.01950 0.84000 0.16200 -0.33900
H 	H 	0.01680 0.82110 0.19180 0.12900
H 	H 	0.99710 0.87700 0.14840 0.10800
C 	C 	0.05600 0.89800 0.16640 -0.39700
H 	H 	0.05640 0.92840 0.13820 0.92500
H 	H 	0.05800 0.94490 0.18950 0.12100
C 	C 	0.08830 0.83000 0.17900 0.00800
H 	H 	0.11000 0.85710 0.19950 -0.02900
H 	H 	0.09680 0.81040 0.15190 0.04500
C 	C 	0.07300 0.74800 0.19950 -0.18700
H 	H 	0.06070 0.77010 0.22250 0.09200
H 	H 	0.09480 0.70930 0.21410 0.11200
C 	C 	0.04500 0.68700 0.16800 0.09700
H 	H 	0.02780 0.65470 0.18300 -0.00500
H 	H 	0.05820 0.64180 0.15300 0.00600
C 	C 	0.02300 0.75600 0.13400 -0.34700
H 	H 	0.03670 0.77070 0.11080 0.10200
H 	H 	0.99740 0.73210 0.11940 0.14600
C 	C 	0.85400 0.48400 0.85920 5.09600
H 	H 	0.85050 0.42510 0.84250 -1.40000
C 	C 	0.87050 0.55600 0.83130 0.10900
H 	H 	0.85910 0.54460 0.79950 -0.00400
C 	C 	0.91240 0.53500 0.83970 0.30300
H 	H 	0.91580 0.47070 0.83210 0.01800
H 	H 	0.92400 0.57380 0.82040 -0.06800
C 	C 	0.93190 0.55100 0.88640 -0.20800
H 	H 	0.93200 0.61740 0.89290 0.12100
H 	H 	0.95850 0.53070 0.89140 0.10900
C 	C 	0.91190 0.49990 0.91650 0.28100
C 	C 	0.87550 0.46560 0.90290 -1.49400
C 	C 	0.86070 0.40970 0.93080 -0.41700
H 	H 	0.83580 0.38620 0.92150 0.13600
C 	C 	0.88240 0.38810 0.97220 -0.30900
H 	H 	0.87230 0.34980 0.99130 0.11000
C 	C 	0.91880 0.42200 0.98580 -0.03000
H 	H 	0.93360 0.40760 0.01410 0.03000
C 	C 	0.93360 0.47800 0.95790 -0.22700
C 	C 	0.81460 0.51800 0.86310 -0.60600
O 	O 	0.80430 0.55500 0.88410 -0.81900
O 	O 	0.79310 0.48100 0.82650 0.80000
C 	C 	0.75100 0.49900 0.81500 -0.64400
H 	H 	0.73930 0.46780 0.78800 0.12500
H 	H 	0.74000 0.47650 0.83930 0.16900
H 	H 	0.74640 0.56480 0.81180 -0.51600
O 	O 	0.86140 0.64000 0.84100 0.36700
H 	H 	0.84820 0.63810 0.85950 -0.12700
O 	O 	0.96930 0.52300 0.97000 -0.08100
C 	C 	0.00810 0.49600 0.98400 -1.05100
H 	H 	0.02410 0.55070 0.98930 0.42800
H 	H 	0.01150 0.46160 0.01180 0.54800
H 	H 	0.01510 0.45820 0.96170 0.28000
C 	C 	0.86590 0.55200 0.88090 -0.72100
H 	H 	0.87100 0.50300 0.86060 -2.46800
C 	C 	0.87560 0.64700 0.86240 0.31900
H 	H 	0.90250 0.64430 0.86000 -0.05100
C 	C 	0.87390 0.71400 0.89830 -0.39800
H 	H 	0.88160 0.77400 0.88890 0.12300
H 	H 	0.84710 0.71910 0.89990 0.12700
C 	C 	0.89620 0.69700 0.94340 0.26800
H 	H 	0.88240 0.72200 0.96480 -0.04600
H 	H 	0.92060 0.73010 0.94770 -0.04600
C 	C 	0.90380 0.59700 0.95250 -0.45500
C 	C 	0.88580 0.52860 0.92470 0.82800
C 	C 	0.88790 0.43870 0.93910 0.51300
H 	H 	0.87550 0.39190 0.92010 0.36700
C 	C 	0.90790 0.41730 0.98140 -0.00100
H 	H 	0.90940 0.35590 0.99120 0.08600
C 	C 	0.92600 0.48600 0.00920 -0.14800
H 	H 	0.93970 0.47120 0.03800 0.05100
C 	C 	0.92390 0.57600 0.99470 0.24000
C 	C 	0.82320 0.55200 0.87910 0.95800
O 	O 	0.80690 0.57600 0.89790 0.28200
O 	O 	0.80840 0.50100 0.84330 -1.10700
C 	C 	0.76580 0.50500 0.82600 -0.21200
H 	H 	0.75840 0.46550 0.80050 0.21100
H 	H 	0.75350 0.48400 0.84930 0.13100
H 	H 	0.75810 0.56780 0.81820 0.80000
O 	O 	0.85470 0.66000 0.82190 -0.84700
H 	H 	0.84050 0.70520 0.82180 0.36500
O 	O 	0.94100 0.65300 0.01980 -0.16600
C 	C 	0.96200 0.72800 0.00700 0.01000
H 	H 	0.96980 0.76980 0.03210 0.41700
H 	H 	0.98460 0.70390 0.99880 0.05200
H 	H 	0.94640 0.76040 0.98230 0.07900
C 	C 	0.00000 0.82400 0.93940 -0.06500
C 	C 	0.04400 0.80700 0.95200 -0.35200
H 	H 	0.05440 0.80520 0.92540 0.15200
C 	C 	0.06480 0.87300 0.98400 0.26000
H 	H 	0.09060 0.88110 0.97950 -0.06400
H 	H 	0.06690 0.85020 0.01450 0.01800
C 	C 	0.04400 0.96500 0.97900 -0.14000
H 	H 	0.05960 0.01230 0.99760 0.09200
H 	H 	0.03890 0.98570 0.94790 0.09300
C 	C 	0.00800 0.94700 0.99400 -0.03200
C 	C 	0.98970 0.86700 0.98130 0.08500
C 	C 	0.96100 0.83500 0.99600 -0.17400
H 	H 	0.94840 0.77950 0.98580 -0.01300
C 	C 	0.95000 0.88700 0.02900 -0.11900
H 	H 	0.93480 0.86130 0.04750 0.06700
C 	C 	0.96100 0.97800 0.03400 -0.00300
H 	H 	0.94640 0.02040 0.04640 0.00200
C 	C 	0.99300 0.01000 0.02000 0.08800
C 	C 	0.98000 0.83800 0.88910 0.35100
O 	O 	0.96900 0.82700 0.84800 0.22300
O 	O 	0.95100 0.90000 0.87800 -0.91800
C 	C 	0.91200 0.91400 0.86000 -0.71200
H 	H 	0.90570 0.97920 0.86050 0.20400
H 	H 	0.90530 0.89220 0.82940 0.27700
H 	H 	0.89680 0.88030 0.87710 0.25100
O 	O 	0.02900 0.71900 0.95900 -0.39100
O 	O 	0.99000 0.10400 0.00700 -0.02700
C 	C 	0.99700 0.20000 0.00800 0.55800
H 	H 	0.98180 0.22770 0.98110 3.59600
H 	H 	0.98910 0.22640 0.03360 -0.31900
H 	H 	0.02360 0.21240 0.01030 -3.96400
C 	C 	0.98050 0.84000 0.83800 -0.33700
H 	H 	0.98320 0.82110 0.80820 0.12800
H 	H 	0.00290 0.87700 0.85160 0.10800
C 	C 	0.94400 0.89800 0.83360 -0.39800
H 	H 	0.94360 0.92840 0.86180 0.92500
H 	H 	0.94200 0.94490 0.81050 0.12100
C 	C 	0.91170 0.83000 0.82100 0.00900
H 	H 	0.89000 0.85710 0.80050 -0.02900
H 	H 	0.90320 0.81040 0.84810 0.04500
C 	C 	0.92700 0.74800 0.80050 -0.18800
H 	H 	0.93930 0.77010 0.77750 0.09300
H 	H 	0.90520 0.70930 0.78590 0.11200
C 	C 	0.95500 0.68700 0.83200 0.09800
H 	H 	0.97220 0.65470 0.81700 -0.00500
H 	H 	0.94180 0.64180 0.84700 0.00500
C 	C 	0.97700 0.75600 0.86600 -0.34800
H 	H 	0.96330 0.77070 0.88920 0.10200
H 	H 	0.00260 0.73210 0.88060 0.14700
C 	C 	0.64600 0.98400 0.14080 -1.25100
H 	H 	0.64950 0.92510 0.15750 0.42600
C 	C 	0.62950 0.05600 0.16870 -0.17300
H 	H 	0.64090 0.04460 0.20050 0.11400
C 	C 	0.58760 0.03500 0.16030 0.01700
H 	H 	0.58420 0.97070 0.16790 0.02700
H 	H 	0.57600 0.07380 0.17960 0.02200
C 	C 	0.56810 0.05100 0.11360 -0.54300
H 	H 	0.56800 0.11740 0.10710 0.19400
H 	H 	0.54150 0.03070 0.10860 0.20000
C 	C 	0.58810 0.99990 0.08350 0.65200
C 	C 	0.62450 0.96560 0.09710 -0.17500
C 	C 	0.63930 0.90970 0.06920 4.00900
H 	H 	0.66420 0.88620 0.07850 -1.28900
C 	C 	0.61760 0.88810 0.02780 -2.00200
H 	H 	0.62770 0.84980 0.00870 0.66500
C 	C 	0.58120 0.92200 0.01420 1.25800
H 	H 	0.56640 0.90760 0.98590 -0.36400
C 	C 	0.56640 0.97800 0.04210 -0.37900
C 	C 	0.68540 0.01800 0.13690 -0.04200
O 	O 	0.69570 0.05500 0.11590 0.57500
O 	O 	0.70690 0.98100 0.17350 0.02100
C 	C 	0.74900 0.99900 0.18500 -0.41700
H 	H 	0.76070 0.96780 0.21200 0.04700
H 	H 	0.76000 0.97650 0.16070 0.13200
H 	H 	0.75360 0.06480 0.18820 -0.43100
O 	O 	0.63860 0.14000 0.15900 0.05900
H 	H 	0.65180 0.13810 0.14050 0.03700
O 	O 	0.53070 0.02300 0.03000 -0.09300
C 	C 	0.49190 0.99600 0.01600 -0.79600
H 	H 	0.47590 0.05070 0.01070 0.34400
H 	H 	0.48850 0.96160 0.98820 0.42700
H 	H 	0.48490 0.95820 0.03830 0.21800
C 	C 	0.63410 0.05200 0.11910 -0.04600
H 	H 	0.62900 0.00300 0.13940 0.81500
C 	C 	0.62440 0.14700 0.13760 0.12900
H 	H 	0.59750 0.14430 0.14000 0.00100
C 	C 	0.62610 0.21400 0.10170 -0.23600
H 	H 	0.61840 0.27400 0.11110 0.08000
H 	H 	0.65290 0.21910 0.10010 0.11600
C 	C 	0.60380 0.19700 0.05660 0.00700
H 	H 	0.61760 0.22200 0.03520 0.03600
H 	H 	0.57940 0.23010 0.05230 0.02100
C 	C 	0.59620 0.09700 0.04750 -0.08100
C 	C 	0.61420 0.02860 0.07530 -0.20800
C 	C 	0.61210 0.93870 0.06090 -0.71600
H 	H 	0.62450 0.89190 0.07990 -1.49700
C 	C 	0.59210 0.91730 0.01860 0.25200
H 	H 	0.59060 0.85590 0.00880 0.10100
C 	C 	0.57400 0.98600 0.99080 -0.83100
H 	H 	0.56030 0.97120 0.96200 0.35600
C 	C 	0.57610 0.07600 0.00530 0.37400
C 	C 	0.67680 0.05200 0.12090 0.45700
O 	O 	0.69310 0.07600 0.10210 -0.96200
O 	O 	0.69160 0.00100 0.15670 -0.18500
C 	C 	0.73420 0.00500 0.17400 -0.14100
H 	H 	0.74160 0.96550 0.19950 0.26000
H 	H 	0.74650 0.98400 0.15070 0.08100
H 	H 	0.74190 0.06780 0.18180 0.61800
O 	O 	0.64530 0.16000 0.17810 -0.43700
H 	H 	0.65950 0.20520 0.17820 0.23200
O 	O 	0.55900 0.15300 0.98020 -0.20200
C 	C 	0.53800 0.22800 0.99300 0.02500
H 	H 	0.53020 0.26980 0.96790 0.41000
H 	H 	0.51540 0.20390 0.00120 0.04400
H 	H 	0.55360 0.26040 0.01770 0.08500
C 	C 	0.50000 0.32400 0.06060 -0.06900
C 	C 	0.45600 0.30700 0.04800 -0.34900
H 	H 	0.44560 0.30520 0.07460 0.15200
C 	C 	0.43520 0.37300 0.01600 0.27700
H 	H 	0.40940 0.38110 0.02050 -0.07000
H 	H 	0.43310 0.35020 0.98550 0.01000
C 	C 	0.45600 0.46500 0.02100 -0.16000
H 	H 	0.44040 0.51230 0.00240 0.10400
H 	H 	0.46110 0.48570 0.05210 0.08600
C 	C 	0.49200 0.44700 0.00600 -0.05400
C 	C 	0.51030 0.36700 0.01870 0.09300
C 	C 	0.53900 0.33500 0.00400 -0.16600
H 	H 	0.55160 0.27950 0.01420 -0.03400
C 	C 	0.55000 0.38700 0.97100 -0.12400
H 	H 	0.56520 0.36130 0.95250 0.06400
C 	C 	0.53900 0.47800 0.96600 -0.01200
H 	H 	0.55360 0.52040 0.95360 0.01800
C 	C 	0.50700 0.51000 0.98000 0.12600
C 	C 	0.52000 0.33800 0.11090 0.34900
O 	O 	0.53100 0.32700 0.15200 0.22000
O 	O 	0.54900 0.40000 0.12200 -0.91400
C 	C 	0.58800 0.41400 0.14000 -0.71700
H 	H 	0.59430 0.47920 0.13950 0.20000
H 	H 	0.59470 0.39220 0.17060 0.28300
H 	H 	0.60320 0.38030 0.12290 0.25400
O 	O 	0.47100 0.21900 0.04100 -0.38700
O 	O 	0.51000 0.60400 0.99300 -0.03500
C 	C 	0.50300 0.70000 0.99200 0.54200
H 	H 	0.51820 0.72770 0.01890 3.51600
H 	H 	0.51090 0.72640 0.96640 -0.30600
H 	H 	0.47640 0.71240 0.98970 -3.86900
C 	C 	0.51950 0.34000 0.16200 -0.34500
H 	H 	0.51680 0.32110 0.19180 0.13100
H 	H 	0.49710 0.37700 0.14840 0.10800
C 	C 	0.55600 0.39800 0.16640 -0.38000
H 	H 	0.55640 0.42840 0.13820 0.91500
H 	H 	0.55800 0.44490 0.18950 0.11200
C 	C 	0.58830 0.33000 0.17900 -0.01900
H 	H 	0.61000 0.35710 0.19950 -0.02300
H 	H 	0.59680 0.31040 0.15190 0.05600
C 	C 	0.57300 0.24800 0.19950 -0.16000
H 	H 	0.56070 0.27010 0.22250 0.08400
H 	H 	0.59480 0.20930 0.21410 0.09800
C 	C 	0.54500 0.18700 0.16800 0.06200
H 	H 	0.52780 0.15470 0.18300 0.00400
H 	H 	0.55820 0.14180 0.15300 0.01500
C 	C 	0.52300 0.25600 0.13400 -0.32600
H 	H 	0.53670 0.27070 0.11080 0.09300
H 	H 	0.49740 0.23210 0.11940 0.13900
C 	C 	0.35400 0.98400 0.85920 -1.25200
H 	H 	0.35050 0.92510 0.84250 0.42600
C 	C 	0.37050 0.05600 0.83130 -0.17300
H 	H 	0.35910 0.04460 0.79950 0.11400
C 	C 	0.41240 0.03500 0.83970 0.01700
H 	H 	0.41580 0.97070 0.83210 0.02700
H 	H 	0.42400 0.07380 0.82040 0.02200
C 	C 	0.43190 0.05100 0.88640 -0.54300
H 	H 	0.43200 0.11740 0.89290 0.19400
H 	H 	0.45850 0.03070 0.89140 0.20000
C 	C 	0.41190 0.99990 0.91650 0.65200
C 	C 	0.37550 0.96560 0.90290 -0.17400
C 	C 	0.36070 0.90970 0.93080 4.01000
H 	H 	0.33580 0.88620 0.92150 -1.28900
C 	C 	0.38240 0.88810 0.97220 -2.00200
H 	H 	0.37230 0.84980 0.99130 0.66500
C 	C 	0.41880 0.92200 0.98580 1.25800
H 	H 	0.43360 0.90760 0.01410 -0.36400
C 	C 	0.43360 0.97800 0.95790 -0.37900
C 	C 	0.31460 0.01800 0.86310 -0.04100
O 	O 	0.30430 0.05500 0.88410 0.57600
O 	O 	0.29310 0.98100 0.82650 0.02100
C 	C 	0.25100 0.99900 0.81500 -0.41700
H 	H 	0.23930 0.96780 0.78800 0.04700
H 	H 	0.24000 0.97650 0.83930 0.13200
H 	H 	0.24640 0.06480 0.81180 -0.43100
O 	O 	0.36140 0.14000 0.84100 0.05900
H 	H 	0.34820 0.13810 0.85950 0.03700
O 	O 	0.46930 0.02300 0.97000 -0.09400
C 	C 	0.50810 0.99600 0.98400 -0.79600
H 	H 	0.52410 0.05070 0.98930 0.34300
H 	H 	0.51150 0.96160 0.01180 0.42700
H 	H 	0.51510 0.95820 0.96170 0.21800
C 	C 	0.36590 0.05200 0.88090 -0.04600
H 	H 	0.37100 0.00300 0.86060 0.81600
C 	C 	0.37560 0.14700 0.86240 0.12900
H 	H 	0.40250 0.14430 0.86000 0.00100
C 	C 	0.37390 0.21400 0.89830 -0.23600
H 	H 	0.38160 0.27400 0.88890 0.08000
H 	H 	0.34710 0.21910 0.89990 0.11600
C 	C 	0.39620 0.19700 0.94340 0.00700
H 	H 	0.38240 0.22200 0.96480 0.03600
H 	H 	0.42060 0.23010 0.94770 0.02100
C 	C 	0.40380 0.09700 0.95250 -0.08100
C 	C 	0.38580 0.02860 0.92470 -0.20800
C 	C 	0.38790 0.93870 0.93910 -0.71600
H 	H 	0.37550 0.89190 0.92010 -1.49700
C 	C 	0.40790 0.91730 0.98140 0.25200
H 	H 	0.40940 0.85590 0.99120 0.10100
C 	C 	0.42600 0.98600 0.00920 -0.83100
H 	H 	0.43970 0.97120 0.03800 0.35600
C 	C 	0.42390 0.07600 0.99470 0.37400
C 	C 	0.32320 0.05200 0.87910 0.45700
O 	O 	0.30690 0.07600 0.89790 -0.96200
O 	O 	0.30840 0.00100 0.84330 -0.18400
C 	C 	0.26580 0.00500 0.82600 -0.14100
H 	H 	0.25840 0.96550 0.80050 0.26000
H 	H 	0.25350 0.98400 0.84930 0.08100
H 	H 	0.25810 0.06780 0.81820 0.61800
O 	O 	0.35470 0.16000 0.82190 -0.43700
H 	H 	0.34050 0.20520 0.82180 0.23200
O 	O 	0.44100 0.15300 0.01980 -0.20200
C 	C 	0.46200 0.22800 0.00700 0.02500
H 	H 	0.46980 0.26980 0.03210 0.41000
H 	H 	0.48460 0.20390 0.99880 0.04500
H 	H 	0.44640 0.26040 0.98230 0.08500
C 	C 	0.50000 0.32400 0.93940 -0.06900
C 	C 	0.54400 0.30700 0.95200 -0.34900
H 	H 	0.55440 0.30520 0.92540 0.15200
C 	C 	0.56480 0.37300 0.98400 0.27700
H 	H 	0.59060 0.38110 0.97950 -0.07000
H 	H 	0.56690 0.35020 0.01450 0.01000
C 	C 	0.54400 0.46500 0.97900 -0.16000
H 	H 	0.55960 0.51230 0.99760 0.10400
H 	H 	0.53890 0.48570 0.94790 0.08600
C 	C 	0.50800 0.44700 0.99400 -0.05400
C 	C 	0.48970 0.36700 0.98130 0.09300
C 	C 	0.46100 0.33500 0.99600 -0.16600
H 	H 	0.44840 0.27950 0.98580 -0.03400
C 	C 	0.45000 0.38700 0.02900 -0.12400
H 	H 	0.43480 0.36130 0.04750 0.06400
C 	C 	0.46100 0.47800 0.03400 -0.01200
H 	H 	0.44640 0.52040 0.04640 0.01800
C 	C 	0.49300 0.51000 0.02000 0.12600
C 	C 	0.48000 0.33800 0.88910 0.34900
O 	O 	0.46900 0.32700 0.84800 0.22000
O 	O 	0.45100 0.40000 0.87800 -0.91400
C 	C 	0.41200 0.41400 0.86000 -0.71700
H 	H 	0.40570 0.47920 0.86050 0.20000
H 	H 	0.40530 0.39220 0.82940 0.28300
H 	H 	0.39680 0.38030 0.87710 0.25400
O 	O 	0.52900 0.21900 0.95900 -0.38700
O 	O 	0.49000 0.60400 0.00700 -0.03500
C 	C 	0.49700 0.70000 0.00800 0.54200
H 	H 	0.48180 0.72770 0.98110 3.51600
H 	H 	0.48910 0.72640 0.03360 -0.30600
H 	H 	0.52360 0.71240 0.01030 -3.86900
C 	C 	0.48050 0.34000 0.83800 -0.34500
H 	H 	0.48320 0.32110 0.80820 0.13100
H 	H 	0.50290 0.37700 0.85160 0.10800
C 	C 	0.44400 0.39800 0.83360 -0.38000
H 	H 	0.44360 0.42840 0.86180 0.91500
H 	H 	0.44200 0.44490 0.81050 0.11200
C 	C 	0.41170 0.33000 0.82100 -0.01900
H 	H 	0.39000 0.35710 0.80050 -0.02300
H 	H 	0.40320 0.31040 0.84810 0.05600
C 	C 	0.42700 0.24800 0.80050 -0.16000
H 	H 	0.43930 0.27010 0.77750 0.08400
H 	H 	0.40520 0.20930 0.78590 0.09800
C 	C 	0.45500 0.18700 0.83200 0.06200
H 	H 	0.47220 0.15470 0.81700 0.00400
H 	H 	0.44180 0.14180 0.84700 0.01500
C 	C 	0.47700 0.25600 0.86600 -0.32600
H 	H 	0.46330 0.27070 0.88920 0.09300
H 	H 	0.50260 0.23210 0.88060 0.13900
