data_crystal

_cell_length_a 35.73650
_cell_length_b 15.06100
_cell_length_c 30.93450
_cell_angle_alpha 90.00000
_cell_angle_beta  104.14100
_cell_angle_gamma 90.00000

_symmetry_space_group_name_	'P 1'
_symmetry_space_group_name_H-M	'P 1'

loop_
_symmetry_equiv_pos_as_xyz
  x,y,z

loop_
_atom_site_label
_atom_site_type_symbol
_atom_site_fract_x
_atom_site_fract_y
_atom_site_fract_z
_atom_site_charge
I 	I 	0.48926 0.87980 0.37707 -1.33000
Zn	Zn	0.43111 0.89310 0.40568 0.62700
I 	I 	0.39773 0.76742 0.43531 0.12000
N 	N 	0.39030 0.95140 0.35340 -0.29400
C 	C 	0.35640 0.91510 0.33200 0.04700
H 	H 	0.35010 0.85700 0.33980 -0.01900
C 	C 	0.32980 0.96220 0.29750 -0.11100
H 	H 	0.30550 0.93730 0.28310 0.07300
C 	C 	0.34050 0.04450 0.28620 0.05200
C 	C 	0.37630 0.08200 0.30800 -0.11100
H 	H 	0.38400 0.13900 0.30030 0.09100
C 	C 	0.39980 0.03090 0.34170 0.07900
H 	H 	0.42410 0.05480 0.35700 -0.00400
C 	C 	0.31280 0.10010 0.25240 0.10800
N 	N 	0.28290 0.05750 0.22610 -0.14100
C 	C 	0.26010 0.10960 0.19510 0.08700
N 	N 	0.26460 0.19750 0.19100 -0.13800
C 	C 	0.29490 0.23250 0.22020 0.10500
N 	N 	0.32040 0.18560 0.25020 -0.13400
N 	N 	0.31380 0.51260 0.22640 -0.27600
C 	C 	0.28200 0.47780 0.19930 0.07600
H 	H 	0.26340 0.51690 0.18200 -0.01200
C 	C 	0.27550 0.39020 0.19570 -0.12500
H 	H 	0.25300 0.36880 0.17520 0.08000
C 	C 	0.30170 0.32890 0.22180 0.06200
C 	C 	0.33360 0.36590 0.25030 -0.13100
H 	H 	0.35210 0.32950 0.26970 0.09000
C 	C 	0.33810 0.45550 0.25020 0.08500
H 	H 	0.36100 0.47910 0.26910 -0.02000
I 	I 	0.37408 0.67253 0.30508 -0.42300
Zn	Zn	0.32674 0.64804 0.22962 1.16300
I 	I 	0.26430 0.73501 0.20083 -0.37600
N 	N 	0.16590 0.97410 0.10780 -0.27300
C 	C 	0.17210 0.06160 0.10310 0.07000
H 	H 	0.15530 0.09200 0.07910 0.00700
C 	C 	0.20100 0.10930 0.13060 -0.12200
H 	H 	0.20310 0.17160 0.12710 0.08800
C 	C 	0.22700 0.06340 0.16380 0.05400
C 	C 	0.22160 0.97580 0.16890 -0.13000
H 	H 	0.23880 0.94360 0.19170 0.09400
C 	C 	0.19080 0.93290 0.14060 0.07300
H 	H 	0.18730 0.87130 0.14500 -0.00300
I 	I 	0.13739 0.91645 0.98812 -0.36000
I 	I 	0.10866 0.76664 0.10353 -0.37400
Zn	Zn	0.12180 0.90777 0.06417 1.16300
N 	N 	0.07480 0.98860 0.06220 -0.27400
C 	C 	0.05930 0.99200 0.09690 0.07400
H 	H 	0.07060 0.95750 0.12250 -0.01400
C 	C 	0.02750 0.04360 0.09770 -0.12500
H 	H 	0.01660 0.04180 0.12280 0.08200
C 	C 	0.01180 0.09690 0.06240 0.04400
C 	C 	0.02800 0.09460 0.02580 -0.13000
H 	H 	0.01790 0.13050 0.00040 0.07700
C 	C 	0.05810 0.04090 0.02700 0.07500
H 	H 	0.06850 0.03930 0.00150 -0.00200
C 	C 	0.97960 0.15830 0.06250 0.08400
N 	N 	0.95970 0.14750 0.09400 -0.13300
C 	C 	0.93090 0.20420 0.09250 0.11700
N 	N 	0.92290 0.27390 0.06490 -0.12200
C 	C 	0.94510 0.28000 0.03590 0.10100
N 	N 	0.97230 0.22180 0.03200 -0.15700
N 	N 	0.93570 0.50860 0.95150 -0.28900
C 	C 	0.96530 0.45310 0.95650 0.06000
H 	H 	0.98460 0.46480 0.94080 0.00700
C 	C 	0.96920 0.37880 0.98360 -0.10600
H 	H 	0.99080 0.34070 0.98670 0.05700
C 	C 	0.94010 0.36020 0.00710 0.05000
C 	C 	0.91070 0.41780 0.00240 -0.10700
H 	H 	0.89090 0.40890 0.01760 0.08400
C 	C 	0.90970 0.49190 0.97430 0.06800
H 	H 	0.88890 0.53260 0.97160 -0.01800
N 	N 	0.85860 0.16280 0.18250 -0.27400
C 	C 	0.84780 0.21360 0.14650 0.07900
H 	H 	0.82300 0.24040 0.14050 -0.01000
C 	C 	0.87060 0.22930 0.11750 -0.11700
H 	H 	0.86180 0.26800 0.09290 0.08900
C 	C 	0.90640 0.18890 0.12390 0.07300
C 	C 	0.91800 0.13430 0.15980 -0.11700
H 	H 	0.94230 0.10550 0.16580 0.08600
C 	C 	0.89310 0.12200 0.18760 0.07200
H 	H 	0.90090 0.08190 0.21190 -0.01300
I 	I 	0.38550 0.76380 0.44310 -0.53500
I 	I 	0.47370 0.85340 0.38370 0.91500
Zn	Zn	0.42020 0.87630 0.40710 0.64800
I 	I 	0.98926 0.37980 0.37707 -1.32900
Zn	Zn	0.93111 0.39310 0.40568 0.62800
I 	I 	0.89773 0.26742 0.43531 0.12100
N 	N 	0.89030 0.45140 0.35340 -0.29300
C 	C 	0.85640 0.41510 0.33200 0.04800
H 	H 	0.85010 0.35700 0.33980 -0.01800
C 	C 	0.82980 0.46220 0.29750 -0.11000
H 	H 	0.80550 0.43730 0.28310 0.07400
C 	C 	0.84050 0.54450 0.28620 0.05300
C 	C 	0.87630 0.58200 0.30800 -0.11000
H 	H 	0.88400 0.63900 0.30030 0.09200
C 	C 	0.89980 0.53090 0.34170 0.08000
H 	H 	0.92410 0.55480 0.35700 -0.00300
C 	C 	0.81280 0.60010 0.25240 0.10900
N 	N 	0.78290 0.55750 0.22610 -0.14000
C 	C 	0.76010 0.60960 0.19510 0.08800
N 	N 	0.76460 0.69750 0.19100 -0.13800
C 	C 	0.79490 0.73250 0.22020 0.10500
N 	N 	0.82040 0.68560 0.25020 -0.13400
N 	N 	0.81380 0.01260 0.22640 -0.27500
C 	C 	0.78200 0.97780 0.19930 0.07600
H 	H 	0.76340 0.01690 0.18200 -0.01200
C 	C 	0.77550 0.89020 0.19570 -0.12500
H 	H 	0.75300 0.86880 0.17520 0.08000
C 	C 	0.80170 0.82890 0.22180 0.06200
C 	C 	0.83360 0.86590 0.25030 -0.13100
H 	H 	0.85210 0.82950 0.26970 0.09000
C 	C 	0.83810 0.95550 0.25020 0.08500
H 	H 	0.86100 0.97910 0.26910 -0.02000
I 	I 	0.87408 0.17253 0.30508 -0.42300
Zn	Zn	0.82674 0.14804 0.22962 1.16300
I 	I 	0.76430 0.23501 0.20083 -0.37600
N 	N 	0.66590 0.47410 0.10780 -0.27300
C 	C 	0.67210 0.56160 0.10310 0.06900
H 	H 	0.65530 0.59200 0.07910 0.00700
C 	C 	0.70100 0.60930 0.13060 -0.12200
H 	H 	0.70310 0.67160 0.12710 0.08800
C 	C 	0.72700 0.56340 0.16380 0.05400
C 	C 	0.72160 0.47580 0.16890 -0.12900
H 	H 	0.73880 0.44360 0.19170 0.09400
C 	C 	0.69080 0.43290 0.14060 0.07200
H 	H 	0.68730 0.37130 0.14500 -0.00300
I 	I 	0.63739 0.41645 0.98812 -0.36000
I 	I 	0.60866 0.26664 0.10353 -0.37400
Zn	Zn	0.62180 0.40777 0.06417 1.16400
N 	N 	0.57480 0.48860 0.06220 -0.27400
C 	C 	0.55930 0.49200 0.09690 0.07400
H 	H 	0.57060 0.45750 0.12250 -0.01400
C 	C 	0.52750 0.54360 0.09770 -0.12500
H 	H 	0.51660 0.54180 0.12280 0.08300
C 	C 	0.51180 0.59690 0.06240 0.04400
C 	C 	0.52800 0.59460 0.02580 -0.13000
H 	H 	0.51790 0.63050 0.00040 0.07700
C 	C 	0.55810 0.54090 0.02700 0.07500
H 	H 	0.56850 0.53930 0.00150 -0.00200
C 	C 	0.47960 0.65830 0.06250 0.08400
N 	N 	0.45970 0.64750 0.09400 -0.13300
C 	C 	0.43090 0.70420 0.09250 0.11700
N 	N 	0.42290 0.77390 0.06490 -0.12200
C 	C 	0.44510 0.78000 0.03590 0.10100
N 	N 	0.47230 0.72180 0.03200 -0.15700
N 	N 	0.43570 0.00860 0.95150 -0.28900
C 	C 	0.46530 0.95310 0.95650 0.06000
H 	H 	0.48460 0.96480 0.94080 0.00700
C 	C 	0.46920 0.87880 0.98360 -0.10600
H 	H 	0.49080 0.84070 0.98670 0.05700
C 	C 	0.44010 0.86020 0.00710 0.05000
C 	C 	0.41070 0.91780 0.00240 -0.10700
H 	H 	0.39090 0.90890 0.01760 0.08400
C 	C 	0.40970 0.99190 0.97430 0.06900
H 	H 	0.38890 0.03260 0.97160 -0.01900
N 	N 	0.35860 0.66280 0.18250 -0.27400
C 	C 	0.34780 0.71360 0.14650 0.07900
H 	H 	0.32300 0.74040 0.14050 -0.01000
C 	C 	0.37060 0.72930 0.11750 -0.11700
H 	H 	0.36180 0.76800 0.09290 0.08900
C 	C 	0.40640 0.68890 0.12390 0.07300
C 	C 	0.41800 0.63430 0.15980 -0.11700
H 	H 	0.44230 0.60550 0.16580 0.08600
C 	C 	0.39310 0.62200 0.18760 0.07200
H 	H 	0.40090 0.58190 0.21190 -0.01300
I 	I 	0.88550 0.26380 0.44310 -0.53500
I 	I 	0.97370 0.35340 0.38370 0.91500
Zn	Zn	0.92020 0.37630 0.40710 0.64800
I 	I 	0.48926 0.12020 0.87707 -1.32900
Zn	Zn	0.43111 0.10690 0.90568 0.62800
I 	I 	0.39773 0.23258 0.93531 0.12100
N 	N 	0.39030 0.04860 0.85340 -0.29300
C 	C 	0.35640 0.08490 0.83200 0.04800
H 	H 	0.35010 0.14300 0.83980 -0.01800
C 	C 	0.32980 0.03780 0.79750 -0.11000
H 	H 	0.30550 0.06270 0.78310 0.07400
C 	C 	0.34050 0.95550 0.78620 0.05300
C 	C 	0.37630 0.91800 0.80800 -0.11000
H 	H 	0.38400 0.86100 0.80030 0.09200
C 	C 	0.39980 0.96910 0.84170 0.08000
H 	H 	0.42410 0.94520 0.85700 -0.00300
C 	C 	0.31280 0.89990 0.75240 0.10900
N 	N 	0.28290 0.94250 0.72610 -0.14000
C 	C 	0.26010 0.89040 0.69510 0.08800
N 	N 	0.26460 0.80250 0.69100 -0.13800
C 	C 	0.29490 0.76750 0.72020 0.10500
N 	N 	0.32040 0.81440 0.75020 -0.13400
N 	N 	0.31380 0.48740 0.72640 -0.27600
C 	C 	0.28200 0.52220 0.69930 0.07600
H 	H 	0.26340 0.48310 0.68200 -0.01200
C 	C 	0.27550 0.60980 0.69570 -0.12500
H 	H 	0.25300 0.63120 0.67520 0.08000
C 	C 	0.30170 0.67110 0.72180 0.06200
C 	C 	0.33360 0.63410 0.75030 -0.13100
H 	H 	0.35210 0.67050 0.76970 0.09000
C 	C 	0.33810 0.54450 0.75020 0.08500
H 	H 	0.36100 0.52090 0.76910 -0.02000
I 	I 	0.37408 0.32747 0.80508 -0.42300
Zn	Zn	0.32674 0.35196 0.72962 1.16300
I 	I 	0.26430 0.26499 0.70083 -0.37600
N 	N 	0.16590 0.02590 0.60780 -0.27300
C 	C 	0.17210 0.93840 0.60310 0.06900
H 	H 	0.15530 0.90800 0.57910 0.00700
C 	C 	0.20100 0.89070 0.63060 -0.12200
H 	H 	0.20310 0.82840 0.62710 0.08800
C 	C 	0.22700 0.93660 0.66380 0.05400
C 	C 	0.22160 0.02420 0.66890 -0.12900
H 	H 	0.23880 0.05640 0.69170 0.09400
C 	C 	0.19080 0.06710 0.64060 0.07300
H 	H 	0.18730 0.12870 0.64500 -0.00300
I 	I 	0.13739 0.08355 0.48812 -0.36000
I 	I 	0.10866 0.23336 0.60353 -0.37400
Zn	Zn	0.12180 0.09223 0.56417 1.16300
N 	N 	0.07480 0.01140 0.56220 -0.27400
C 	C 	0.05930 0.00800 0.59690 0.07400
H 	H 	0.07060 0.04250 0.62250 -0.01400
C 	C 	0.02750 0.95640 0.59770 -0.12500
H 	H 	0.01660 0.95820 0.62280 0.08200
C 	C 	0.01180 0.90310 0.56240 0.04400
C 	C 	0.02800 0.90540 0.52580 -0.13000
H 	H 	0.01790 0.86950 0.50040 0.07700
C 	C 	0.05810 0.95910 0.52700 0.07400
H 	H 	0.06850 0.96070 0.50150 -0.00200
C 	C 	0.97960 0.84170 0.56250 0.08400
N 	N 	0.95970 0.85250 0.59400 -0.13300
C 	C 	0.93090 0.79580 0.59250 0.11700
N 	N 	0.92290 0.72610 0.56490 -0.12200
C 	C 	0.94510 0.72000 0.53590 0.10100
N 	N 	0.97230 0.77820 0.53200 -0.15700
N 	N 	0.93570 0.49140 0.45150 -0.28900
C 	C 	0.96530 0.54690 0.45650 0.05900
H 	H 	0.98460 0.53520 0.44080 0.00700
C 	C 	0.96920 0.62120 0.48360 -0.10600
H 	H 	0.99080 0.65930 0.48670 0.05700
C 	C 	0.94010 0.63980 0.50710 0.05000
C 	C 	0.91070 0.58220 0.50240 -0.10700
H 	H 	0.89090 0.59110 0.51760 0.08400
C 	C 	0.90970 0.50810 0.47430 0.06800
H 	H 	0.88890 0.46740 0.47160 -0.01800
N 	N 	0.85860 0.83720 0.68250 -0.27400
C 	C 	0.84780 0.78640 0.64650 0.07900
H 	H 	0.82300 0.75960 0.64050 -0.01000
C 	C 	0.87060 0.77070 0.61750 -0.11700
H 	H 	0.86180 0.73200 0.59290 0.08900
C 	C 	0.90640 0.81110 0.62390 0.07300
C 	C 	0.91800 0.86570 0.65980 -0.11700
H 	H 	0.94230 0.89450 0.66580 0.08600
C 	C 	0.89310 0.87800 0.68760 0.07200
H 	H 	0.90090 0.91810 0.71190 -0.01300
I 	I 	0.38550 0.23620 0.94310 -0.53500
I 	I 	0.47370 0.14660 0.88370 0.91500
Zn	Zn	0.42020 0.12370 0.90710 0.64800
I 	I 	0.98926 0.62020 0.87707 -1.32900
Zn	Zn	0.93111 0.60690 0.90568 0.62800
I 	I 	0.89773 0.73258 0.93531 0.12100
N 	N 	0.89030 0.54860 0.85340 -0.29300
C 	C 	0.85640 0.58490 0.83200 0.04800
H 	H 	0.85010 0.64300 0.83980 -0.01800
C 	C 	0.82980 0.53780 0.79750 -0.11000
H 	H 	0.80550 0.56270 0.78310 0.07400
C 	C 	0.84050 0.45550 0.78620 0.05300
C 	C 	0.87630 0.41800 0.80800 -0.11000
H 	H 	0.88400 0.36100 0.80030 0.09200
C 	C 	0.89980 0.46910 0.84170 0.08000
H 	H 	0.92410 0.44520 0.85700 -0.00300
C 	C 	0.81280 0.39990 0.75240 0.10900
N 	N 	0.78290 0.44250 0.72610 -0.14000
C 	C 	0.76010 0.39040 0.69510 0.08800
N 	N 	0.76460 0.30250 0.69100 -0.13800
C 	C 	0.79490 0.26750 0.72020 0.10500
N 	N 	0.82040 0.31440 0.75020 -0.13400
N 	N 	0.81380 0.98740 0.72640 -0.27600
C 	C 	0.78200 0.02220 0.69930 0.07600
H 	H 	0.76340 0.98310 0.68200 -0.01200
C 	C 	0.77550 0.10980 0.69570 -0.12500
H 	H 	0.75300 0.13120 0.67520 0.08000
C 	C 	0.80170 0.17110 0.72180 0.06200
C 	C 	0.83360 0.13410 0.75030 -0.13100
H 	H 	0.85210 0.17050 0.76970 0.09000
C 	C 	0.83810 0.04450 0.75020 0.08500
H 	H 	0.86100 0.02090 0.76910 -0.02000
I 	I 	0.87408 0.82747 0.80508 -0.42300
Zn	Zn	0.82674 0.85196 0.72962 1.16300
I 	I 	0.76430 0.76499 0.70083 -0.37600
N 	N 	0.66590 0.52590 0.60780 -0.27300
C 	C 	0.67210 0.43840 0.60310 0.06900
H 	H 	0.65530 0.40800 0.57910 0.00700
C 	C 	0.70100 0.39070 0.63060 -0.12200
H 	H 	0.70310 0.32840 0.62710 0.08800
C 	C 	0.72700 0.43660 0.66380 0.05400
C 	C 	0.72160 0.52420 0.66890 -0.12900
H 	H 	0.73880 0.55640 0.69170 0.09400
C 	C 	0.69080 0.56710 0.64060 0.07200
H 	H 	0.68730 0.62870 0.64500 -0.00300
I 	I 	0.63739 0.58355 0.48812 -0.36000
I 	I 	0.60866 0.73336 0.60353 -0.37400
Zn	Zn	0.62180 0.59223 0.56417 1.16300
N 	N 	0.57480 0.51140 0.56220 -0.27400
C 	C 	0.55930 0.50800 0.59690 0.07400
H 	H 	0.57060 0.54250 0.62250 -0.01400
C 	C 	0.52750 0.45640 0.59770 -0.12500
H 	H 	0.51660 0.45820 0.62280 0.08300
C 	C 	0.51180 0.40310 0.56240 0.04400
C 	C 	0.52800 0.40540 0.52580 -0.13000
H 	H 	0.51790 0.36950 0.50040 0.07800
C 	C 	0.55810 0.45910 0.52700 0.07500
H 	H 	0.56850 0.46070 0.50150 -0.00200
C 	C 	0.47960 0.34170 0.56250 0.08400
N 	N 	0.45970 0.35250 0.59400 -0.13300
C 	C 	0.43090 0.29580 0.59250 0.11700
N 	N 	0.42290 0.22610 0.56490 -0.12200
C 	C 	0.44510 0.22000 0.53590 0.10100
N 	N 	0.47230 0.27820 0.53200 -0.15700
N 	N 	0.43570 0.99140 0.45150 -0.28900
C 	C 	0.46530 0.04690 0.45650 0.05900
H 	H 	0.48460 0.03520 0.44080 0.00700
C 	C 	0.46920 0.12120 0.48360 -0.10600
H 	H 	0.49080 0.15930 0.48670 0.05700
C 	C 	0.44010 0.13980 0.50710 0.05000
C 	C 	0.41070 0.08220 0.50240 -0.10700
H 	H 	0.39090 0.09110 0.51760 0.08400
C 	C 	0.40970 0.00810 0.47430 0.06800
H 	H 	0.38890 0.96740 0.47160 -0.01800
N 	N 	0.35860 0.33720 0.68250 -0.27400
C 	C 	0.34780 0.28640 0.64650 0.07900
H 	H 	0.32300 0.25960 0.64050 -0.01000
C 	C 	0.37060 0.27070 0.61750 -0.11700
H 	H 	0.36180 0.23200 0.59290 0.08900
C 	C 	0.40640 0.31110 0.62390 0.07300
C 	C 	0.41800 0.36570 0.65980 -0.11700
H 	H 	0.44230 0.39450 0.66580 0.08600
C 	C 	0.39310 0.37800 0.68760 0.07200
H 	H 	0.40090 0.41810 0.71190 -0.01300
I 	I 	0.88550 0.73620 0.94310 -0.53500
I 	I 	0.97370 0.64660 0.88370 0.91500
Zn	Zn	0.92020 0.62370 0.90710 0.64800
I 	I 	0.51074 0.87980 0.12293 -1.32900
Zn	Zn	0.56889 0.89310 0.09432 0.62800
I 	I 	0.60227 0.76742 0.06469 0.12100
N 	N 	0.60970 0.95140 0.14660 -0.29300
C 	C 	0.64360 0.91510 0.16800 0.04800
H 	H 	0.64990 0.85700 0.16020 -0.01800
C 	C 	0.67020 0.96220 0.20250 -0.11000
H 	H 	0.69450 0.93730 0.21690 0.07400
C 	C 	0.65950 0.04450 0.21380 0.05300
C 	C 	0.62370 0.08200 0.19200 -0.11000
H 	H 	0.61600 0.13900 0.19970 0.09200
C 	C 	0.60020 0.03090 0.15830 0.08000
H 	H 	0.57590 0.05480 0.14300 -0.00300
C 	C 	0.68720 0.10010 0.24760 0.10900
N 	N 	0.71710 0.05750 0.27390 -0.14000
C 	C 	0.73990 0.10960 0.30490 0.08800
N 	N 	0.73540 0.19750 0.30900 -0.13800
C 	C 	0.70510 0.23250 0.27980 0.10500
N 	N 	0.67960 0.18560 0.24980 -0.13400
N 	N 	0.68620 0.51260 0.27360 -0.27600
C 	C 	0.71800 0.47780 0.30070 0.07600
H 	H 	0.73660 0.51690 0.31800 -0.01200
C 	C 	0.72450 0.39020 0.30430 -0.12500
H 	H 	0.74700 0.36880 0.32480 0.08000
C 	C 	0.69830 0.32890 0.27820 0.06200
C 	C 	0.66640 0.36590 0.24970 -0.13100
H 	H 	0.64790 0.32950 0.23030 0.09000
C 	C 	0.66190 0.45550 0.24980 0.08500
H 	H 	0.63900 0.47910 0.23090 -0.02000
I 	I 	0.62592 0.67253 0.19492 -0.42300
Zn	Zn	0.67326 0.64804 0.27038 1.16300
I 	I 	0.73570 0.73501 0.29917 -0.37600
N 	N 	0.83410 0.97410 0.39220 -0.27300
C 	C 	0.82790 0.06160 0.39690 0.06900
H 	H 	0.84470 0.09200 0.42090 0.00700
C 	C 	0.79900 0.10930 0.36940 -0.12200
H 	H 	0.79690 0.17160 0.37290 0.08800
C 	C 	0.77300 0.06340 0.33620 0.05400
C 	C 	0.77840 0.97580 0.33110 -0.12900
H 	H 	0.76120 0.94360 0.30830 0.09400
C 	C 	0.80920 0.93290 0.35940 0.07300
H 	H 	0.81270 0.87130 0.35500 -0.00300
I 	I 	0.86261 0.91645 0.51188 -0.36000
I 	I 	0.89134 0.76664 0.39647 -0.37400
Zn	Zn	0.87820 0.90777 0.43583 1.16300
N 	N 	0.92520 0.98860 0.43780 -0.27400
C 	C 	0.94070 0.99200 0.40310 0.07400
H 	H 	0.92940 0.95750 0.37750 -0.01400
C 	C 	0.97250 0.04360 0.40230 -0.12500
H 	H 	0.98340 0.04180 0.37720 0.08200
C 	C 	0.98820 0.09690 0.43760 0.04400
C 	C 	0.97200 0.09460 0.47420 -0.13000
H 	H 	0.98210 0.13050 0.49960 0.07700
C 	C 	0.94190 0.04090 0.47300 0.07400
H 	H 	0.93150 0.03930 0.49850 -0.00200
C 	C 	0.02040 0.15830 0.43750 0.08400
N 	N 	0.04030 0.14750 0.40600 -0.13300
C 	C 	0.06910 0.20420 0.40750 0.11700
N 	N 	0.07710 0.27390 0.43510 -0.12200
C 	C 	0.05490 0.28000 0.46410 0.10100
N 	N 	0.02770 0.22180 0.46800 -0.15700
N 	N 	0.06430 0.50860 0.54850 -0.28900
C 	C 	0.03470 0.45310 0.54350 0.05900
H 	H 	0.01540 0.46480 0.55920 0.00700
C 	C 	0.03080 0.37880 0.51640 -0.10600
H 	H 	0.00920 0.34070 0.51330 0.05700
C 	C 	0.05990 0.36020 0.49290 0.05000
C 	C 	0.08930 0.41780 0.49760 -0.10700
H 	H 	0.10910 0.40890 0.48240 0.08400
C 	C 	0.09030 0.49190 0.52570 0.06800
H 	H 	0.11110 0.53260 0.52840 -0.01800
N 	N 	0.14140 0.16280 0.31750 -0.27400
C 	C 	0.15220 0.21360 0.35350 0.07900
H 	H 	0.17700 0.24040 0.35950 -0.01000
C 	C 	0.12940 0.22930 0.38250 -0.11700
H 	H 	0.13820 0.26800 0.40710 0.08900
C 	C 	0.09360 0.18890 0.37610 0.07300
C 	C 	0.08200 0.13430 0.34020 -0.11700
H 	H 	0.05770 0.10550 0.33420 0.08600
C 	C 	0.10690 0.12200 0.31240 0.07200
H 	H 	0.09910 0.08190 0.28810 -0.01300
I 	I 	0.61450 0.76380 0.05690 -0.53500
I 	I 	0.52630 0.85340 0.11630 0.91500
Zn	Zn	0.57980 0.87630 0.09290 0.64800
I 	I 	0.01074 0.37980 0.12293 -1.32900
Zn	Zn	0.06889 0.39310 0.09432 0.62800
I 	I 	0.10227 0.26742 0.06469 0.12100
N 	N 	0.10970 0.45140 0.14660 -0.29300
C 	C 	0.14360 0.41510 0.16800 0.04800
H 	H 	0.14990 0.35700 0.16020 -0.01800
C 	C 	0.17020 0.46220 0.20250 -0.11000
H 	H 	0.19450 0.43730 0.21690 0.07400
C 	C 	0.15950 0.54450 0.21380 0.05300
C 	C 	0.12370 0.58200 0.19200 -0.11000
H 	H 	0.11600 0.63900 0.19970 0.09200
C 	C 	0.10020 0.53090 0.15830 0.08000
H 	H 	0.07590 0.55480 0.14300 -0.00300
C 	C 	0.18720 0.60010 0.24760 0.10900
N 	N 	0.21710 0.55750 0.27390 -0.14000
C 	C 	0.23990 0.60960 0.30490 0.08800
N 	N 	0.23540 0.69750 0.30900 -0.13800
C 	C 	0.20510 0.73250 0.27980 0.10500
N 	N 	0.17960 0.68560 0.24980 -0.13400
N 	N 	0.18620 0.01260 0.27360 -0.27600
C 	C 	0.21800 0.97780 0.30070 0.07600
H 	H 	0.23660 0.01690 0.31800 -0.01200
C 	C 	0.22450 0.89020 0.30430 -0.12500
H 	H 	0.24700 0.86880 0.32480 0.08000
C 	C 	0.19830 0.82890 0.27820 0.06200
C 	C 	0.16640 0.86590 0.24970 -0.13100
H 	H 	0.14790 0.82950 0.23030 0.09000
C 	C 	0.16190 0.95550 0.24980 0.08500
H 	H 	0.13900 0.97910 0.23090 -0.02000
I 	I 	0.12592 0.17253 0.19492 -0.42300
Zn	Zn	0.17326 0.14804 0.27038 1.16300
I 	I 	0.23570 0.23501 0.29917 -0.37600
N 	N 	0.33410 0.47410 0.39220 -0.27300
C 	C 	0.32790 0.56160 0.39690 0.06900
H 	H 	0.34470 0.59200 0.42090 0.00700
C 	C 	0.29900 0.60930 0.36940 -0.12200
H 	H 	0.29690 0.67160 0.37290 0.08800
C 	C 	0.27300 0.56340 0.33620 0.05400
C 	C 	0.27840 0.47580 0.33110 -0.12900
H 	H 	0.26120 0.44360 0.30830 0.09400
C 	C 	0.30920 0.43290 0.35940 0.07200
H 	H 	0.31270 0.37130 0.35500 -0.00300
I 	I 	0.36261 0.41645 0.51188 -0.36000
I 	I 	0.39134 0.26664 0.39647 -0.37400
Zn	Zn	0.37820 0.40777 0.43583 1.16300
N 	N 	0.42520 0.48860 0.43780 -0.27400
C 	C 	0.44070 0.49200 0.40310 0.07400
H 	H 	0.42940 0.45750 0.37750 -0.01400
C 	C 	0.47250 0.54360 0.40230 -0.12500
H 	H 	0.48340 0.54180 0.37720 0.08300
C 	C 	0.48820 0.59690 0.43760 0.04400
C 	C 	0.47200 0.59460 0.47420 -0.13000
H 	H 	0.48210 0.63050 0.49960 0.07800
C 	C 	0.44190 0.54090 0.47300 0.07500
H 	H 	0.43150 0.53930 0.49850 -0.00200
C 	C 	0.52040 0.65830 0.43750 0.08400
N 	N 	0.54030 0.64750 0.40600 -0.13300
C 	C 	0.56910 0.70420 0.40750 0.11700
N 	N 	0.57710 0.77390 0.43510 -0.12200
C 	C 	0.55490 0.78000 0.46410 0.10100
N 	N 	0.52770 0.72180 0.46800 -0.15700
N 	N 	0.56430 0.00860 0.54850 -0.28900
C 	C 	0.53470 0.95310 0.54350 0.05900
H 	H 	0.51540 0.96480 0.55920 0.00700
C 	C 	0.53080 0.87880 0.51640 -0.10600
H 	H 	0.50920 0.84070 0.51330 0.05700
C 	C 	0.55990 0.86020 0.49290 0.05000
C 	C 	0.58930 0.91780 0.49760 -0.10700
H 	H 	0.60910 0.90890 0.48240 0.08400
C 	C 	0.59030 0.99190 0.52570 0.06800
H 	H 	0.61110 0.03260 0.52840 -0.01800
N 	N 	0.64140 0.66280 0.31750 -0.27400
C 	C 	0.65220 0.71360 0.35350 0.07900
H 	H 	0.67700 0.74040 0.35950 -0.01000
C 	C 	0.62940 0.72930 0.38250 -0.11700
H 	H 	0.63820 0.76800 0.40710 0.08900
C 	C 	0.59360 0.68890 0.37610 0.07300
C 	C 	0.58200 0.63430 0.34020 -0.11700
H 	H 	0.55770 0.60550 0.33420 0.08600
C 	C 	0.60690 0.62200 0.31240 0.07200
H 	H 	0.59910 0.58190 0.28810 -0.01300
I 	I 	0.11450 0.26380 0.05690 -0.53500
I 	I 	0.02630 0.35340 0.11630 0.91500
Zn	Zn	0.07980 0.37630 0.09290 0.64800
I 	I 	0.51074 0.12020 0.62293 -1.32900
Zn	Zn	0.56889 0.10690 0.59432 0.62800
I 	I 	0.60227 0.23258 0.56469 0.12100
N 	N 	0.60970 0.04860 0.64660 -0.29300
C 	C 	0.64360 0.08490 0.66800 0.04800
H 	H 	0.64990 0.14300 0.66020 -0.01800
C 	C 	0.67020 0.03780 0.70250 -0.11000
H 	H 	0.69450 0.06270 0.71690 0.07400
C 	C 	0.65950 0.95550 0.71380 0.05300
C 	C 	0.62370 0.91800 0.69200 -0.11000
H 	H 	0.61600 0.86100 0.69970 0.09200
C 	C 	0.60020 0.96910 0.65830 0.08000
H 	H 	0.57590 0.94520 0.64300 -0.00300
C 	C 	0.68720 0.89990 0.74760 0.10900
N 	N 	0.71710 0.94250 0.77390 -0.14000
C 	C 	0.73990 0.89040 0.80490 0.08800
N 	N 	0.73540 0.80250 0.80900 -0.13800
C 	C 	0.70510 0.76750 0.77980 0.10500
N 	N 	0.67960 0.81440 0.74980 -0.13400
N 	N 	0.68620 0.48740 0.77360 -0.27600
C 	C 	0.71800 0.52220 0.80070 0.07600
H 	H 	0.73660 0.48310 0.81800 -0.01200
C 	C 	0.72450 0.60980 0.80430 -0.12500
H 	H 	0.74700 0.63120 0.82480 0.08000
C 	C 	0.69830 0.67110 0.77820 0.06200
C 	C 	0.66640 0.63410 0.74970 -0.13100
H 	H 	0.64790 0.67050 0.73030 0.09000
C 	C 	0.66190 0.54450 0.74980 0.08500
H 	H 	0.63900 0.52090 0.73090 -0.02000
I 	I 	0.62592 0.32747 0.69492 -0.42300
Zn	Zn	0.67326 0.35196 0.77038 1.16300
I 	I 	0.73570 0.26499 0.79917 -0.37600
N 	N 	0.83410 0.02590 0.89220 -0.27300
C 	C 	0.82790 0.93840 0.89690 0.07000
H 	H 	0.84470 0.90800 0.92090 0.00700
C 	C 	0.79900 0.89070 0.86940 -0.12200
H 	H 	0.79690 0.82840 0.87290 0.08800
C 	C 	0.77300 0.93660 0.83620 0.05400
C 	C 	0.77840 0.02420 0.83110 -0.13000
H 	H 	0.76120 0.05640 0.80830 0.09400
C 	C 	0.80920 0.06710 0.85940 0.07300
H 	H 	0.81270 0.12870 0.85500 -0.00300
I 	I 	0.86261 0.08355 0.01188 -0.36000
I 	I 	0.89134 0.23336 0.89647 -0.37400
Zn	Zn	0.87820 0.09223 0.93583 1.16300
N 	N 	0.92520 0.01140 0.93780 -0.27400
C 	C 	0.94070 0.00800 0.90310 0.07400
H 	H 	0.92940 0.04250 0.87750 -0.01400
C 	C 	0.97250 0.95640 0.90230 -0.12500
H 	H 	0.98340 0.95820 0.87720 0.08200
C 	C 	0.98820 0.90310 0.93760 0.04400
C 	C 	0.97200 0.90540 0.97420 -0.13000
H 	H 	0.98210 0.86950 0.99960 0.07700
C 	C 	0.94190 0.95910 0.97300 0.07500
H 	H 	0.93150 0.96070 0.99850 -0.00200
C 	C 	0.02040 0.84170 0.93750 0.08400
N 	N 	0.04030 0.85250 0.90600 -0.13300
C 	C 	0.06910 0.79580 0.90750 0.11700
N 	N 	0.07710 0.72610 0.93510 -0.12200
C 	C 	0.05490 0.72000 0.96410 0.10100
N 	N 	0.02770 0.77820 0.96800 -0.15700
N 	N 	0.06430 0.49140 0.04850 -0.28900
C 	C 	0.03470 0.54690 0.04350 0.06000
H 	H 	0.01540 0.53520 0.05920 0.00700
C 	C 	0.03080 0.62120 0.01640 -0.10600
H 	H 	0.00920 0.65930 0.01330 0.05700
C 	C 	0.05990 0.63980 0.99290 0.05000
C 	C 	0.08930 0.58220 0.99760 -0.10700
H 	H 	0.10910 0.59110 0.98240 0.08400
C 	C 	0.09030 0.50810 0.02570 0.06800
H 	H 	0.11110 0.46740 0.02840 -0.01800
N 	N 	0.14140 0.83720 0.81750 -0.27400
C 	C 	0.15220 0.78640 0.85350 0.07900
H 	H 	0.17700 0.75960 0.85950 -0.01000
C 	C 	0.12940 0.77070 0.88250 -0.11700
H 	H 	0.13820 0.73200 0.90710 0.08900
C 	C 	0.09360 0.81110 0.87610 0.07300
C 	C 	0.08200 0.86570 0.84020 -0.11700
H 	H 	0.05770 0.89450 0.83420 0.08600
C 	C 	0.10690 0.87800 0.81240 0.07200
H 	H 	0.09910 0.91810 0.78810 -0.01300
I 	I 	0.61450 0.23620 0.55690 -0.53500
I 	I 	0.52630 0.14660 0.61630 0.91500
Zn	Zn	0.57980 0.12370 0.59290 0.64800
I 	I 	0.01074 0.62020 0.62293 -1.32900
Zn	Zn	0.06889 0.60690 0.59432 0.62800
I 	I 	0.10227 0.73258 0.56469 0.12100
N 	N 	0.10970 0.54860 0.64660 -0.29300
C 	C 	0.14360 0.58490 0.66800 0.04800
H 	H 	0.14990 0.64300 0.66020 -0.01800
C 	C 	0.17020 0.53780 0.70250 -0.11000
H 	H 	0.19450 0.56270 0.71690 0.07400
C 	C 	0.15950 0.45550 0.71380 0.05300
C 	C 	0.12370 0.41800 0.69200 -0.11000
H 	H 	0.11600 0.36100 0.69970 0.09200
C 	C 	0.10020 0.46910 0.65830 0.08000
H 	H 	0.07590 0.44520 0.64300 -0.00300
C 	C 	0.18720 0.39990 0.74760 0.10900
N 	N 	0.21710 0.44250 0.77390 -0.14000
C 	C 	0.23990 0.39040 0.80490 0.08800
N 	N 	0.23540 0.30250 0.80900 -0.13800
C 	C 	0.20510 0.26750 0.77980 0.10500
N 	N 	0.17960 0.31440 0.74980 -0.13400
N 	N 	0.18620 0.98740 0.77360 -0.27500
C 	C 	0.21800 0.02220 0.80070 0.07600
H 	H 	0.23660 0.98310 0.81800 -0.01200
C 	C 	0.22450 0.10980 0.80430 -0.12500
H 	H 	0.24700 0.13120 0.82480 0.08000
C 	C 	0.19830 0.17110 0.77820 0.06200
C 	C 	0.16640 0.13410 0.74970 -0.13100
H 	H 	0.14790 0.17050 0.73030 0.09000
C 	C 	0.16190 0.04450 0.74980 0.08500
H 	H 	0.13900 0.02090 0.73090 -0.02000
I 	I 	0.12592 0.82747 0.69492 -0.42300
Zn	Zn	0.17326 0.85196 0.77038 1.16300
I 	I 	0.23570 0.76499 0.79917 -0.37600
N 	N 	0.33410 0.52590 0.89220 -0.27300
C 	C 	0.32790 0.43840 0.89690 0.06900
H 	H 	0.34470 0.40800 0.92090 0.00700
C 	C 	0.29900 0.39070 0.86940 -0.12200
H 	H 	0.29690 0.32840 0.87290 0.08800
C 	C 	0.27300 0.43660 0.83620 0.05400
C 	C 	0.27840 0.52420 0.83110 -0.12900
H 	H 	0.26120 0.55640 0.80830 0.09400
C 	C 	0.30920 0.56710 0.85940 0.07200
H 	H 	0.31270 0.62870 0.85500 -0.00300
I 	I 	0.36261 0.58355 0.01188 -0.36000
I 	I 	0.39134 0.73336 0.89647 -0.37400
Zn	Zn	0.37820 0.59223 0.93583 1.16400
N 	N 	0.42520 0.51140 0.93780 -0.27400
C 	C 	0.44070 0.50800 0.90310 0.07400
H 	H 	0.42940 0.54250 0.87750 -0.01400
C 	C 	0.47250 0.45640 0.90230 -0.12500
H 	H 	0.48340 0.45820 0.87720 0.08300
C 	C 	0.48820 0.40310 0.93760 0.04400
C 	C 	0.47200 0.40540 0.97420 -0.13000
H 	H 	0.48210 0.36950 0.99960 0.07700
C 	C 	0.44190 0.45910 0.97300 0.07500
H 	H 	0.43150 0.46070 0.99850 -0.00200
C 	C 	0.52040 0.34170 0.93750 0.08400
N 	N 	0.54030 0.35250 0.90600 -0.13300
C 	C 	0.56910 0.29580 0.90750 0.11700
N 	N 	0.57710 0.22610 0.93510 -0.12200
C 	C 	0.55490 0.22000 0.96410 0.10100
N 	N 	0.52770 0.27820 0.96800 -0.15700
N 	N 	0.56430 0.99140 0.04850 -0.28900
C 	C 	0.53470 0.04690 0.04350 0.06000
H 	H 	0.51540 0.03520 0.05920 0.00700
C 	C 	0.53080 0.12120 0.01640 -0.10600
H 	H 	0.50920 0.15930 0.01330 0.05700
C 	C 	0.55990 0.13980 0.99290 0.05000
C 	C 	0.58930 0.08220 0.99760 -0.10700
H 	H 	0.60910 0.09110 0.98240 0.08400
C 	C 	0.59030 0.00810 0.02570 0.06900
H 	H 	0.61110 0.96740 0.02840 -0.01900
N 	N 	0.64140 0.33720 0.81750 -0.27400
C 	C 	0.65220 0.28640 0.85350 0.07900
H 	H 	0.67700 0.25960 0.85950 -0.01000
C 	C 	0.62940 0.27070 0.88250 -0.11700
H 	H 	0.63820 0.23200 0.90710 0.08900
C 	C 	0.59360 0.31110 0.87610 0.07300
C 	C 	0.58200 0.36570 0.84020 -0.11700
H 	H 	0.55770 0.39450 0.83420 0.08600
C 	C 	0.60690 0.37800 0.81240 0.07200
H 	H 	0.59910 0.41810 0.78810 -0.01300
I 	I 	0.11450 0.73620 0.55690 -0.53500
I 	I 	0.02630 0.64660 0.61630 0.91500
Zn	Zn	0.07980 0.62370 0.59290 0.64800
