data_crystal

_cell_length_a 34.77070
_cell_length_b 14.84060
_cell_length_c 31.21520
_cell_angle_alpha 90.00000
_cell_angle_beta  102.60100
_cell_angle_gamma 90.00000

_symmetry_space_group_name_	'P 1'
_symmetry_space_group_name_H-M	'P 1'

loop_
_symmetry_equiv_pos_as_xyz
  x,y,z

loop_
_atom_site_label
_atom_site_type_symbol
_atom_site_fract_x
_atom_site_fract_y
_atom_site_fract_z
_atom_site_charge
N 	N 	0.12390 0.69920 0.88390 -0.27900
C 	C 	0.15020 0.65760 0.91450 0.07800
H 	H 	0.15320 0.59430 0.91220 -0.02200
C 	C 	0.17350 0.70180 0.94970 -0.14300
H 	H 	0.19120 0.66880 0.97160 0.08100
C 	C 	0.17100 0.79180 0.95270 0.06700
C 	C 	0.14510 0.83800 0.91930 -0.13300
H 	H 	0.14350 0.90190 0.91900 0.09200
C 	C 	0.12180 0.78580 0.88630 0.08600
H 	H 	0.10320 0.81610 0.86420 -0.01200
C 	C 	0.19300 0.84600 0.99060 0.09300
N 	N 	0.22240 0.80400 0.01890 -0.14000
C 	C 	0.23940 0.85820 0.05180 0.08700
N 	N 	0.23200 0.94450 0.05840 -0.14100
C 	C 	0.20360 0.97680 0.02640 0.08100
N 	N 	0.18280 0.93220 0.99260 -0.13600
N 	N 	0.32940 0.72990 0.14830 -0.27300
C 	C 	0.31730 0.81080 0.15470 0.07700
H 	H 	0.32810 0.84010 0.18170 -0.01000
C 	C 	0.28910 0.85640 0.12360 -0.12500
H 	H 	0.28250 0.91700 0.12870 0.07900
C 	C 	0.27140 0.81440 0.08640 0.04800
C 	C 	0.28330 0.72530 0.08010 -0.12300
H 	H 	0.27100 0.69260 0.05460 0.08800
C 	C 	0.31280 0.68610 0.11090 0.06200
H 	H 	0.32160 0.62730 0.10590 -0.00400
N 	N 	0.17910 0.25910 0.02410 -0.28200
C 	C 	0.15250 0.19920 0.00230 0.06900
H 	H 	0.12800 0.22110 0.98580 -0.01700
C 	C 	0.15950 0.10860 0.00300 -0.13200
H 	H 	0.14050 0.06850 0.98670 0.09200
C 	C 	0.19520 0.07550 0.02820 0.08900
C 	C 	0.22180 0.13670 0.05110 -0.14600
H 	H 	0.24660 0.11750 0.06770 0.09200
C 	C 	0.21160 0.22520 0.04920 0.09400
H 	H 	0.22910 0.26590 0.06720 -0.02000
I 	I 	0.02325 0.89880 0.38261 -0.31800
I 	I 	0.11360 0.00430 0.30870 -0.20000
I 	I 	0.23300 0.01970 0.53724 -0.16700
I 	I 	0.12410 0.10410 0.44268 -0.22300
I 	I 	0.12140 0.41140 0.94260 -0.15000
Zn	Zn	0.16569 0.39465 0.01727 1.15800
I 	I 	0.22559 0.49600 0.03810 -0.15800
N 	N 	0.13430 0.41850 0.06440 -0.27800
C 	C 	0.14860 0.46610 0.10190 0.07100
H 	H 	0.17460 0.48970 0.10650 -0.01100
C 	C 	0.12770 0.48110 0.13260 -0.12200
H 	H 	0.13950 0.51130 0.15900 0.08800
C 	C 	0.08940 0.45300 0.12610 0.06800
C 	C 	0.07340 0.40800 0.08850 -0.11400
H 	H 	0.04680 0.38760 0.08310 0.08300
C 	C 	0.09660 0.39100 0.05760 0.06300
H 	H 	0.08530 0.35980 0.03130 -0.01500
C 	C 	0.06540 0.47050 0.15850 0.10300
N 	N 	0.07360 0.54210 0.18510 -0.13400
C 	C 	0.05150 0.54870 0.21480 0.09400
N 	N 	0.02370 0.49230 0.22050 -0.15100
C 	C 	0.01650 0.42600 0.19070 0.09300
N 	N 	0.03580 0.41170 0.15910 -0.13200
N 	N 	0.92050 0.25400 0.19580 -0.26900
C 	C 	0.93140 0.27020 0.15820 0.07800
H 	H 	0.91660 0.24310 0.13220 -0.01400
C 	C 	0.96270 0.32370 0.15510 -0.12000
H 	H 	0.97020 0.33120 0.12790 0.08600
C 	C 	0.98330 0.36710 0.19290 0.04300
C 	C 	0.97140 0.35010 0.23240 -0.11300
H 	H 	0.98540 0.37630 0.25900 0.07500
C 	C 	0.94010 0.29670 0.23250 0.06900
H 	H 	0.93150 0.28860 0.25910 -0.00100
I 	I 	0.85673 0.19304 0.27067 -0.36200
Zn	Zn	0.87297 0.17090 0.19601 1.16500
I 	I 	0.89045 0.02307 0.16529 -0.36900
N 	N 	0.06630 0.78220 0.29770 -0.27000
C 	C 	0.03670 0.72350 0.29720 0.07100
H 	H 	0.01910 0.73360 0.31610 -0.00700
C 	C 	0.03140 0.65000 0.27060 -0.11800
H 	H 	0.00980 0.61090 0.27070 0.07300
C 	C 	0.05640 0.63150 0.24370 0.05100
C 	C 	0.08680 0.69300 0.24340 -0.11300
H 	H 	0.10450 0.68400 0.22450 0.07800
C 	C 	0.09080 0.76650 0.27070 0.06200
H 	H 	0.11160 0.80770 0.27040 -0.01500
Zn	Zn	0.08055 0.88458 0.34414 1.15800
N 	N 	0.12070 0.81420 0.39100 -0.27900
C 	C 	0.11290 0.73170 0.39960 0.09400
H 	H 	0.09070 0.70420 0.38100 -0.01400
C 	C 	0.13420 0.68070 0.43350 -0.13700
H 	H 	0.12740 0.61970 0.43740 0.09800
C 	C 	0.16500 0.72000 0.46110 0.06500
C 	C 	0.17360 0.81050 0.45380 -0.13500
H 	H 	0.19480 0.84040 0.47270 0.07500
C 	C 	0.15110 0.85430 0.41940 0.06800
H 	H 	0.15670 0.91580 0.41480 -0.02300
C 	C 	0.18910 0.66900 0.49790 0.09400
N 	N 	0.17970 0.58190 0.50200 -0.13400
C 	C 	0.20310 0.53580 0.53330 0.10300
N 	N 	0.23300 0.57230 0.56390 -0.13900
C 	C 	0.24000 0.65890 0.55740 0.09100
N 	N 	0.21930 0.70920 0.52540 -0.14200
N 	N 	0.18270 0.25210 0.52850 -0.27300
C 	C 	0.21620 0.28600 0.55220 0.07400
H 	H 	0.23590 0.24500 0.56620 -0.01100
C 	C 	0.22380 0.37600 0.55740 -0.12000
H 	H 	0.24720 0.39730 0.57640 0.07800
C 	C 	0.19510 0.43750 0.53330 0.05600
C 	C 	0.16110 0.40310 0.50940 -0.12000
H 	H 	0.14080 0.44200 0.49460 0.08200
C 	C 	0.15630 0.31070 0.50690 0.06600
H 	H 	0.13280 0.28750 0.48880 -0.01700
N 	N 	0.33260 0.79190 0.64540 -0.27300
C 	C 	0.31450 0.82900 0.60770 0.07200
H 	H 	0.32290 0.88690 0.60060 -0.01200
C 	C 	0.28420 0.78810 0.57840 -0.12800
H 	H 	0.27210 0.81730 0.55180 0.08400
C 	C 	0.27190 0.70410 0.58840 0.04300
C 	C 	0.29060 0.66280 0.62780 -0.11000
H 	H 	0.28290 0.60470 0.63540 0.08200
C 	C 	0.32100 0.70940 0.65540 0.06000
H 	H 	0.33400 0.68210 0.68210 -0.00000
I 	I 	0.11257 0.50836 0.80528 -0.39200
Zn	Zn	0.08050 0.62964 0.84012 1.16500
I 	I 	0.02539 0.61744 0.88108 -0.35900
N 	N 	0.06480 0.72950 0.79210 -0.26800
C 	C 	0.03810 0.79220 0.79650 0.05900
H 	H 	0.02250 0.78370 0.81770 -0.00600
C 	C 	0.03280 0.86990 0.77050 -0.11400
H 	H 	0.01430 0.91430 0.77460 0.06700
C 	C 	0.05450 0.88170 0.73900 0.05000
C 	C 	0.08050 0.81240 0.73300 -0.12000
H 	H 	0.09450 0.81540 0.71020 0.08100
C 	C 	0.08490 0.74010 0.76140 0.07300
H 	H 	0.10360 0.69510 0.75850 -0.01300
C 	C 	0.05090 0.96500 0.71250 0.07700
N 	N 	0.02390 0.02440 0.71730 -0.13700
C 	C 	0.01860 0.09160 0.68860 0.09200
N 	N 	0.03950 0.10490 0.65850 -0.13900
C 	C 	0.06730 0.04520 0.65840 0.12900
N 	N 	0.07400 0.97230 0.68350 -0.14800
N 	N 	0.13890 0.08940 0.56530 -0.29100
C 	C 	0.14650 0.02380 0.59470 0.11300
H 	H 	0.16840 0.98570 0.59450 -0.04300
C 	C 	0.12490 0.00790 0.62490 -0.10800
H 	H 	0.13260 0.96170 0.64600 0.06500
C 	C 	0.09210 0.05770 0.62520 0.06500
C 	C 	0.08330 0.12600 0.59330 -0.13500
H 	H 	0.06000 0.16120 0.59010 0.08900
C 	C 	0.10890 0.14000 0.56760 0.10300
H 	H 	0.10470 0.19130 0.54920 -0.03100
Zn	Zn	0.17109 0.11504 0.51827 1.15900
N 	N 	0.92360 0.26940 0.69100 -0.28000
C 	C 	0.93730 0.26100 0.65560 0.09000
H 	H 	0.92540 0.29470 0.63020 -0.02200
C 	C 	0.96860 0.20430 0.65370 -0.14000
H 	H 	0.97780 0.19850 0.62740 0.09000
C 	C 	0.98580 0.15770 0.68980 0.06500
C 	C 	0.97080 0.16270 0.72710 -0.14100
H 	H 	0.98060 0.12660 0.75220 0.08700
C 	C 	0.94040 0.22380 0.72570 0.09300
H 	H 	0.93120 0.23300 0.75180 -0.01200
I 	I 	0.85919 0.34920 0.76400 -0.37300
Zn	Zn	0.87666 0.35653 0.68993 1.16500
I 	I 	0.89173 0.50092 0.65426 -0.38700
I 	I 	0.11640 0.41170 0.94260 -0.20600
I 	I 	0.22850 0.48800 0.04090 -0.17800
I 	I 	0.02560 0.90600 0.37170 -0.04600
I 	I 	0.12430 0.99600 0.30840 -0.13700
I 	I 	0.23570 0.03400 0.54370 -0.15800
I 	I 	0.13050 0.10010 0.44380 -0.13700
N 	N 	0.62390 0.19920 0.88390 -0.27700
C 	C 	0.65020 0.15760 0.91450 0.08100
H 	H 	0.65320 0.09430 0.91220 -0.01600
C 	C 	0.67350 0.20180 0.94970 -0.14100
H 	H 	0.69120 0.16880 0.97160 0.08600
C 	C 	0.67100 0.29180 0.95270 0.07100
C 	C 	0.64510 0.33800 0.91930 -0.13300
H 	H 	0.64350 0.40190 0.91900 0.09800
C 	C 	0.62180 0.28580 0.88630 0.08900
H 	H 	0.60320 0.31610 0.86420 -0.00900
C 	C 	0.69300 0.34600 0.99060 0.09400
N 	N 	0.72240 0.30400 0.01890 -0.14000
C 	C 	0.73940 0.35820 0.05180 0.08800
N 	N 	0.73200 0.44450 0.05840 -0.14100
C 	C 	0.70360 0.47680 0.02640 0.10600
N 	N 	0.68280 0.43220 0.99260 -0.13600
N 	N 	0.82940 0.22990 0.14830 -0.27300
C 	C 	0.81730 0.31080 0.15470 0.07900
H 	H 	0.82810 0.34010 0.18170 -0.00700
C 	C 	0.78910 0.35640 0.12360 -0.12500
H 	H 	0.78250 0.41700 0.12870 0.08500
C 	C 	0.77140 0.31440 0.08640 0.05100
C 	C 	0.78330 0.22530 0.08010 -0.12300
H 	H 	0.77100 0.19260 0.05460 0.09100
C 	C 	0.81280 0.18610 0.11090 0.06500
H 	H 	0.82160 0.12730 0.10590 -0.00100
N 	N 	0.67910 0.75910 0.02410 -0.27900
C 	C 	0.65250 0.69920 0.00230 0.06100
H 	H 	0.62800 0.72110 0.98580 -0.01500
C 	C 	0.65950 0.60860 0.00300 -0.11800
H 	H 	0.64050 0.56850 0.98670 0.08100
C 	C 	0.69520 0.57550 0.02820 0.05900
C 	C 	0.72180 0.63670 0.05110 -0.13100
H 	H 	0.74660 0.61750 0.06770 0.08200
C 	C 	0.71160 0.72520 0.04920 0.08500
H 	H 	0.72910 0.76590 0.06720 -0.01800
I 	I 	0.52325 0.39880 0.38261 -0.31100
I 	I 	0.61360 0.50430 0.30870 -0.10000
I 	I 	0.73300 0.51970 0.53724 -0.17200
I 	I 	0.62410 0.60410 0.44268 -0.22900
I 	I 	0.62140 0.91140 0.94260 -0.15700
Zn	Zn	0.66569 0.89465 0.01727 1.15700
I 	I 	0.72559 0.99600 0.03810 -0.16400
N 	N 	0.63430 0.91850 0.06440 -0.28600
C 	C 	0.64860 0.96610 0.10190 0.10200
H 	H 	0.67460 0.98970 0.10650 -0.02600
C 	C 	0.62770 0.98110 0.13260 -0.18800
H 	H 	0.63950 0.01130 0.15900 0.12600
C 	C 	0.58940 0.95300 0.12610 0.09900
C 	C 	0.57340 0.90800 0.08850 -0.13600
H 	H 	0.54680 0.88760 0.08310 0.08800
C 	C 	0.59660 0.89100 0.05760 0.07200
H 	H 	0.58530 0.85980 0.03130 -0.01900
C 	C 	0.56540 0.97050 0.15850 0.07500
N 	N 	0.57360 0.04210 0.18510 -0.12200
C 	C 	0.55150 0.04870 0.21480 0.11300
N 	N 	0.52370 0.99230 0.22050 -0.16600
C 	C 	0.51650 0.92600 0.19070 0.08900
N 	N 	0.53580 0.91170 0.15910 -0.13000
N 	N 	0.42050 0.75400 0.19580 -0.26900
C 	C 	0.43140 0.77020 0.15820 0.07600
H 	H 	0.41660 0.74310 0.13220 -0.01400
C 	C 	0.46270 0.82370 0.15510 -0.12000
H 	H 	0.47020 0.83120 0.12790 0.08400
C 	C 	0.48330 0.86710 0.19290 0.04000
C 	C 	0.47140 0.85010 0.23240 -0.11400
H 	H 	0.48540 0.87630 0.25900 0.07100
C 	C 	0.44010 0.79670 0.23250 0.06600
H 	H 	0.43150 0.78860 0.25910 -0.00200
I 	I 	0.35673 0.69304 0.27067 -0.37200
Zn	Zn	0.37297 0.67090 0.19601 1.16500
I 	I 	0.39045 0.52307 0.16529 -0.38900
N 	N 	0.56630 0.28220 0.29770 -0.26800
C 	C 	0.53670 0.22350 0.29720 0.07000
H 	H 	0.51910 0.23360 0.31610 -0.00500
C 	C 	0.53140 0.15000 0.27060 -0.11400
H 	H 	0.50980 0.11090 0.27070 0.07500
C 	C 	0.55640 0.13150 0.24370 0.04700
C 	C 	0.58680 0.19300 0.24340 -0.10900
H 	H 	0.60450 0.18400 0.22450 0.07900
C 	C 	0.59080 0.26650 0.27070 0.06100
H 	H 	0.61160 0.30770 0.27040 -0.01000
Zn	Zn	0.58055 0.38458 0.34414 1.15900
N 	N 	0.62070 0.31420 0.39100 -0.27700
C 	C 	0.61290 0.23170 0.39960 0.09600
H 	H 	0.59070 0.20420 0.38100 -0.01300
C 	C 	0.63420 0.18070 0.43350 -0.13700
H 	H 	0.62740 0.11970 0.43740 0.10100
C 	C 	0.66500 0.22000 0.46110 0.06800
C 	C 	0.67360 0.31050 0.45380 -0.13500
H 	H 	0.69480 0.34040 0.47270 0.07900
C 	C 	0.65110 0.35430 0.41940 0.07000
H 	H 	0.65670 0.41580 0.41480 -0.01600
C 	C 	0.68910 0.16900 0.49790 0.09600
N 	N 	0.67970 0.08190 0.50200 -0.13400
C 	C 	0.70310 0.03580 0.53330 0.12800
N 	N 	0.73300 0.07230 0.56390 -0.13800
C 	C 	0.74000 0.15890 0.55740 0.09300
N 	N 	0.71930 0.20920 0.52540 -0.14100
N 	N 	0.68270 0.75210 0.52850 -0.27000
C 	C 	0.71620 0.78600 0.55220 0.06500
H 	H 	0.73590 0.74500 0.56620 -0.01000
C 	C 	0.72380 0.87600 0.55740 -0.10600
H 	H 	0.74720 0.89730 0.57640 0.06800
C 	C 	0.69510 0.93750 0.53330 0.02400
C 	C 	0.66110 0.90310 0.50940 -0.10400
H 	H 	0.64080 0.94200 0.49460 0.06900
C 	C 	0.65630 0.81070 0.50690 0.05500
H 	H 	0.63280 0.78750 0.48880 -0.01500
N 	N 	0.83260 0.29190 0.64540 -0.27100
C 	C 	0.81450 0.32900 0.60770 0.07300
H 	H 	0.82290 0.38690 0.60060 -0.00600
C 	C 	0.78420 0.28810 0.57840 -0.12700
H 	H 	0.77210 0.31730 0.55180 0.08700
C 	C 	0.77190 0.20410 0.58840 0.04500
C 	C 	0.79060 0.16280 0.62780 -0.10900
H 	H 	0.78290 0.10470 0.63540 0.08500
C 	C 	0.82100 0.20940 0.65540 0.06100
H 	H 	0.83400 0.18210 0.68210 0.00100
I 	I 	0.61257 0.00836 0.80528 -0.37000
Zn	Zn	0.58050 0.12964 0.84012 1.16600
I 	I 	0.52539 0.11744 0.88108 -0.34100
N 	N 	0.56480 0.22950 0.79210 -0.26700
C 	C 	0.53810 0.29220 0.79650 0.05900
H 	H 	0.52250 0.28370 0.81770 -0.00400
C 	C 	0.53280 0.36990 0.77050 -0.10900
H 	H 	0.51430 0.41430 0.77460 0.07200
C 	C 	0.55450 0.38170 0.73900 0.04700
C 	C 	0.58050 0.31240 0.73300 -0.11600
H 	H 	0.59450 0.31540 0.71020 0.08200
C 	C 	0.58490 0.24010 0.76140 0.07300
H 	H 	0.60360 0.19510 0.75850 -0.01100
C 	C 	0.55090 0.46500 0.71250 0.09700
N 	N 	0.52390 0.52440 0.71730 -0.15100
C 	C 	0.51860 0.59160 0.68860 0.08900
N 	N 	0.53950 0.60490 0.65850 -0.13700
C 	C 	0.56730 0.54520 0.65840 0.10500
N 	N 	0.57400 0.47230 0.68350 -0.13600
N 	N 	0.63890 0.58940 0.56530 -0.29100
C 	C 	0.64650 0.52380 0.59470 0.09400
H 	H 	0.66840 0.48570 0.59450 -0.02000
C 	C 	0.62490 0.50790 0.62490 -0.14200
H 	H 	0.63260 0.46170 0.64600 0.09000
C 	C 	0.59210 0.55770 0.62520 0.08000
C 	C 	0.58330 0.62600 0.59330 -0.14500
H 	H 	0.56000 0.66120 0.59010 0.09000
C 	C 	0.60890 0.64000 0.56760 0.10700
H 	H 	0.60470 0.69130 0.54920 -0.03400
Zn	Zn	0.67109 0.61504 0.51827 1.15800
N 	N 	0.42360 0.76940 0.69100 -0.28200
C 	C 	0.43730 0.76100 0.65560 0.08800
H 	H 	0.42540 0.79470 0.63020 -0.02500
C 	C 	0.46860 0.70430 0.65370 -0.14100
H 	H 	0.47780 0.69850 0.62740 0.08800
C 	C 	0.48580 0.65770 0.68980 0.06300
C 	C 	0.47080 0.66270 0.72710 -0.14200
H 	H 	0.48060 0.62660 0.75220 0.08300
C 	C 	0.44040 0.72380 0.72570 0.09000
H 	H 	0.43120 0.73300 0.75180 -0.01300
I 	I 	0.35919 0.84920 0.76400 -0.38600
Zn	Zn	0.37666 0.85653 0.68993 1.16200
I 	I 	0.39173 0.00092 0.65426 -0.36400
I 	I 	0.61640 0.91170 0.94260 -0.21200
I 	I 	0.72850 0.98800 0.04090 -0.18600
I 	I 	0.52560 0.40600 0.37170 -0.03700
I 	I 	0.62430 0.49600 0.30840 -0.23600
I 	I 	0.73570 0.53400 0.54370 -0.16800
I 	I 	0.63050 0.60010 0.44380 -0.14300
N 	N 	0.87610 0.69920 0.11610 -0.27800
C 	C 	0.84980 0.65760 0.08550 0.07900
H 	H 	0.84680 0.59430 0.08780 -0.02100
C 	C 	0.82650 0.70180 0.05030 -0.14200
H 	H 	0.80880 0.66880 0.02840 0.08200
C 	C 	0.82900 0.79180 0.04730 0.06800
C 	C 	0.85490 0.83800 0.08070 -0.13300
H 	H 	0.85650 0.90190 0.08100 0.09200
C 	C 	0.87820 0.78580 0.11370 0.08600
H 	H 	0.89680 0.81610 0.13580 -0.01200
C 	C 	0.80700 0.84600 0.00940 0.09300
N 	N 	0.77760 0.80400 0.98110 -0.14000
C 	C 	0.76060 0.85820 0.94820 0.08700
N 	N 	0.76800 0.94450 0.94160 -0.14100
C 	C 	0.79640 0.97680 0.97360 0.08100
N 	N 	0.81720 0.93220 0.00740 -0.13600
N 	N 	0.67060 0.72990 0.85170 -0.27300
C 	C 	0.68270 0.81080 0.84530 0.07700
H 	H 	0.67190 0.84010 0.81830 -0.01000
C 	C 	0.71090 0.85640 0.87640 -0.12500
H 	H 	0.71750 0.91700 0.87130 0.07900
C 	C 	0.72860 0.81440 0.91360 0.04800
C 	C 	0.71670 0.72530 0.91990 -0.12300
H 	H 	0.72900 0.69260 0.94540 0.08800
C 	C 	0.68720 0.68610 0.88910 0.06200
H 	H 	0.67840 0.62730 0.89410 -0.00400
N 	N 	0.82090 0.25910 0.97590 -0.28200
C 	C 	0.84750 0.19920 0.99770 0.06900
H 	H 	0.87200 0.22110 0.01420 -0.01700
C 	C 	0.84050 0.10860 0.99700 -0.13200
H 	H 	0.85950 0.06850 0.01330 0.09200
C 	C 	0.80480 0.07550 0.97180 0.08900
C 	C 	0.77820 0.13670 0.94890 -0.14600
H 	H 	0.75340 0.11750 0.93230 0.09200
C 	C 	0.78840 0.22520 0.95080 0.09400
H 	H 	0.77090 0.26590 0.93280 -0.02000
I 	I 	0.97675 0.89880 0.61739 -0.31800
I 	I 	0.88640 0.00430 0.69130 -0.20000
I 	I 	0.76700 0.01970 0.46276 -0.16700
I 	I 	0.87590 0.10410 0.55732 -0.22300
I 	I 	0.87860 0.41140 0.05740 -0.15000
Zn	Zn	0.83431 0.39465 0.98273 1.15800
I 	I 	0.77441 0.49600 0.96190 -0.15800
N 	N 	0.86570 0.41850 0.93560 -0.27800
C 	C 	0.85140 0.46610 0.89810 0.07100
H 	H 	0.82540 0.48970 0.89350 -0.01100
C 	C 	0.87230 0.48110 0.86740 -0.12200
H 	H 	0.86050 0.51130 0.84100 0.08800
C 	C 	0.91060 0.45300 0.87390 0.06800
C 	C 	0.92660 0.40800 0.91150 -0.11400
H 	H 	0.95320 0.38760 0.91690 0.08300
C 	C 	0.90340 0.39100 0.94240 0.06300
H 	H 	0.91470 0.35980 0.96870 -0.01500
C 	C 	0.93460 0.47050 0.84150 0.10300
N 	N 	0.92640 0.54210 0.81490 -0.13400
C 	C 	0.94850 0.54870 0.78520 0.09400
N 	N 	0.97630 0.49230 0.77950 -0.15100
C 	C 	0.98350 0.42600 0.80930 0.09300
N 	N 	0.96420 0.41170 0.84090 -0.13200
N 	N 	0.07950 0.25400 0.80420 -0.26900
C 	C 	0.06860 0.27020 0.84180 0.07800
H 	H 	0.08340 0.24310 0.86780 -0.01400
C 	C 	0.03730 0.32370 0.84490 -0.12000
H 	H 	0.02980 0.33120 0.87210 0.08600
C 	C 	0.01670 0.36710 0.80710 0.04300
C 	C 	0.02860 0.35010 0.76760 -0.11300
H 	H 	0.01460 0.37630 0.74100 0.07500
C 	C 	0.05990 0.29670 0.76750 0.06900
H 	H 	0.06850 0.28860 0.74090 -0.00100
I 	I 	0.14327 0.19304 0.72933 -0.36200
Zn	Zn	0.12703 0.17090 0.80399 1.16500
I 	I 	0.10955 0.02307 0.83471 -0.36900
N 	N 	0.93370 0.78220 0.70230 -0.27000
C 	C 	0.96330 0.72350 0.70280 0.07100
H 	H 	0.98090 0.73360 0.68390 -0.00700
C 	C 	0.96860 0.65000 0.72940 -0.11800
H 	H 	0.99020 0.61090 0.72930 0.07300
C 	C 	0.94360 0.63150 0.75630 0.05100
C 	C 	0.91320 0.69300 0.75660 -0.11300
H 	H 	0.89550 0.68400 0.77550 0.07800
C 	C 	0.90920 0.76650 0.72930 0.06200
H 	H 	0.88840 0.80770 0.72960 -0.01500
Zn	Zn	0.91945 0.88458 0.65586 1.15800
N 	N 	0.87930 0.81420 0.60900 -0.27900
C 	C 	0.88710 0.73170 0.60040 0.09400
H 	H 	0.90930 0.70420 0.61900 -0.01400
C 	C 	0.86580 0.68070 0.56650 -0.13700
H 	H 	0.87260 0.61970 0.56260 0.09800
C 	C 	0.83500 0.72000 0.53890 0.06500
C 	C 	0.82640 0.81050 0.54620 -0.13500
H 	H 	0.80520 0.84040 0.52730 0.07500
C 	C 	0.84890 0.85430 0.58060 0.06800
H 	H 	0.84330 0.91580 0.58520 -0.02300
C 	C 	0.81090 0.66900 0.50210 0.09400
N 	N 	0.82030 0.58190 0.49800 -0.13400
C 	C 	0.79690 0.53580 0.46670 0.10300
N 	N 	0.76700 0.57230 0.43610 -0.13900
C 	C 	0.76000 0.65890 0.44260 0.09100
N 	N 	0.78070 0.70920 0.47460 -0.14200
N 	N 	0.81730 0.25210 0.47150 -0.27300
C 	C 	0.78380 0.28600 0.44780 0.07400
H 	H 	0.76410 0.24500 0.43380 -0.01100
C 	C 	0.77620 0.37600 0.44260 -0.12000
H 	H 	0.75280 0.39730 0.42360 0.07800
C 	C 	0.80490 0.43750 0.46670 0.05600
C 	C 	0.83890 0.40310 0.49060 -0.12000
H 	H 	0.85920 0.44200 0.50540 0.08200
C 	C 	0.84370 0.31070 0.49310 0.06600
H 	H 	0.86720 0.28750 0.51120 -0.01700
N 	N 	0.66740 0.79190 0.35460 -0.27300
C 	C 	0.68550 0.82900 0.39230 0.07200
H 	H 	0.67710 0.88690 0.39940 -0.01200
C 	C 	0.71580 0.78810 0.42160 -0.12800
H 	H 	0.72790 0.81730 0.44820 0.08400
C 	C 	0.72810 0.70410 0.41160 0.04300
C 	C 	0.70940 0.66280 0.37220 -0.11000
H 	H 	0.71710 0.60470 0.36460 0.08200
C 	C 	0.67900 0.70940 0.34460 0.06000
H 	H 	0.66600 0.68210 0.31790 -0.00000
I 	I 	0.88743 0.50836 0.19472 -0.39200
Zn	Zn	0.91950 0.62964 0.15988 1.16500
I 	I 	0.97461 0.61744 0.11892 -0.35900
N 	N 	0.93520 0.72950 0.20790 -0.26800
C 	C 	0.96190 0.79220 0.20350 0.05900
H 	H 	0.97750 0.78370 0.18230 -0.00600
C 	C 	0.96720 0.86990 0.22950 -0.11400
H 	H 	0.98570 0.91430 0.22540 0.06700
C 	C 	0.94550 0.88170 0.26100 0.05000
C 	C 	0.91950 0.81240 0.26700 -0.12000
H 	H 	0.90550 0.81540 0.28980 0.08100
C 	C 	0.91510 0.74010 0.23860 0.07300
H 	H 	0.89640 0.69510 0.24150 -0.01300
C 	C 	0.94910 0.96500 0.28750 0.07700
N 	N 	0.97610 0.02440 0.28270 -0.13700
C 	C 	0.98140 0.09160 0.31140 0.09200
N 	N 	0.96050 0.10490 0.34150 -0.13900
C 	C 	0.93270 0.04520 0.34160 0.12900
N 	N 	0.92600 0.97230 0.31650 -0.14800
N 	N 	0.86110 0.08940 0.43470 -0.29100
C 	C 	0.85350 0.02380 0.40530 0.11300
H 	H 	0.83160 0.98570 0.40550 -0.04300
C 	C 	0.87510 0.00790 0.37510 -0.10800
H 	H 	0.86740 0.96170 0.35400 0.06500
C 	C 	0.90790 0.05770 0.37480 0.06500
C 	C 	0.91670 0.12600 0.40670 -0.13500
H 	H 	0.94000 0.16120 0.40990 0.08900
C 	C 	0.89110 0.14000 0.43240 0.10300
H 	H 	0.89530 0.19130 0.45080 -0.03100
Zn	Zn	0.82891 0.11504 0.48173 1.15900
N 	N 	0.07640 0.26940 0.30900 -0.28000
C 	C 	0.06270 0.26100 0.34440 0.09000
H 	H 	0.07460 0.29470 0.36980 -0.02200
C 	C 	0.03140 0.20430 0.34630 -0.14000
H 	H 	0.02220 0.19850 0.37260 0.09000
C 	C 	0.01420 0.15770 0.31020 0.06500
C 	C 	0.02920 0.16270 0.27290 -0.14100
H 	H 	0.01940 0.12660 0.24780 0.08700
C 	C 	0.05960 0.22380 0.27430 0.09300
H 	H 	0.06880 0.23300 0.24820 -0.01200
I 	I 	0.14081 0.34920 0.23600 -0.37300
Zn	Zn	0.12334 0.35653 0.31007 1.16500
I 	I 	0.10827 0.50092 0.34574 -0.38700
I 	I 	0.88360 0.41170 0.05740 -0.20600
I 	I 	0.77150 0.48800 0.95910 -0.17800
I 	I 	0.97440 0.90600 0.62830 -0.04600
I 	I 	0.87570 0.99600 0.69160 -0.13700
I 	I 	0.76430 0.03400 0.45630 -0.15800
I 	I 	0.86950 0.10010 0.55620 -0.13700
N 	N 	0.37610 0.19920 0.11610 -0.27700
C 	C 	0.34980 0.15760 0.08550 0.08100
H 	H 	0.34680 0.09430 0.08780 -0.01600
C 	C 	0.32650 0.20180 0.05030 -0.14100
H 	H 	0.30880 0.16880 0.02840 0.08600
C 	C 	0.32900 0.29180 0.04730 0.07100
C 	C 	0.35490 0.33800 0.08070 -0.13300
H 	H 	0.35650 0.40190 0.08100 0.09800
C 	C 	0.37820 0.28580 0.11370 0.08900
H 	H 	0.39680 0.31610 0.13580 -0.00900
C 	C 	0.30700 0.34600 0.00940 0.09400
N 	N 	0.27760 0.30400 0.98110 -0.14000
C 	C 	0.26060 0.35820 0.94820 0.08800
N 	N 	0.26800 0.44450 0.94160 -0.14100
C 	C 	0.29640 0.47680 0.97360 0.10600
N 	N 	0.31720 0.43220 0.00740 -0.13600
N 	N 	0.17060 0.22990 0.85170 -0.27300
C 	C 	0.18270 0.31080 0.84530 0.07900
H 	H 	0.17190 0.34010 0.81830 -0.00700
C 	C 	0.21090 0.35640 0.87640 -0.12500
H 	H 	0.21750 0.41700 0.87130 0.08500
C 	C 	0.22860 0.31440 0.91360 0.05100
C 	C 	0.21670 0.22530 0.91990 -0.12300
H 	H 	0.22900 0.19260 0.94540 0.09100
C 	C 	0.18720 0.18610 0.88910 0.06500
H 	H 	0.17840 0.12730 0.89410 -0.00100
N 	N 	0.32090 0.75910 0.97590 -0.27900
C 	C 	0.34750 0.69920 0.99770 0.06100
H 	H 	0.37200 0.72110 0.01420 -0.01500
C 	C 	0.34050 0.60860 0.99700 -0.11800
H 	H 	0.35950 0.56850 0.01330 0.08100
C 	C 	0.30480 0.57550 0.97180 0.05900
C 	C 	0.27820 0.63670 0.94890 -0.13100
H 	H 	0.25340 0.61750 0.93230 0.08200
C 	C 	0.28840 0.72520 0.95080 0.08500
H 	H 	0.27090 0.76590 0.93280 -0.01800
I 	I 	0.47675 0.39880 0.61739 -0.31100
I 	I 	0.38640 0.50430 0.69130 -0.10000
I 	I 	0.26700 0.51970 0.46276 -0.17200
I 	I 	0.37590 0.60410 0.55732 -0.22900
I 	I 	0.37860 0.91140 0.05740 -0.15700
Zn	Zn	0.33431 0.89465 0.98273 1.15700
I 	I 	0.27441 0.99600 0.96190 -0.16400
N 	N 	0.36570 0.91850 0.93560 -0.28600
C 	C 	0.35140 0.96610 0.89810 0.10200
H 	H 	0.32540 0.98970 0.89350 -0.02600
C 	C 	0.37230 0.98110 0.86740 -0.18800
H 	H 	0.36050 0.01130 0.84100 0.12600
C 	C 	0.41060 0.95300 0.87390 0.09900
C 	C 	0.42660 0.90800 0.91150 -0.13600
H 	H 	0.45320 0.88760 0.91690 0.08800
C 	C 	0.40340 0.89100 0.94240 0.07200
H 	H 	0.41470 0.85980 0.96870 -0.01900
C 	C 	0.43460 0.97050 0.84150 0.07500
N 	N 	0.42640 0.04210 0.81490 -0.12200
C 	C 	0.44850 0.04870 0.78520 0.11300
N 	N 	0.47630 0.99230 0.77950 -0.16600
C 	C 	0.48350 0.92600 0.80930 0.08900
N 	N 	0.46420 0.91170 0.84090 -0.13000
N 	N 	0.57950 0.75400 0.80420 -0.26900
C 	C 	0.56860 0.77020 0.84180 0.07600
H 	H 	0.58340 0.74310 0.86780 -0.01400
C 	C 	0.53730 0.82370 0.84490 -0.12000
H 	H 	0.52980 0.83120 0.87210 0.08400
C 	C 	0.51670 0.86710 0.80710 0.04000
C 	C 	0.52860 0.85010 0.76760 -0.11400
H 	H 	0.51460 0.87630 0.74100 0.07100
C 	C 	0.55990 0.79670 0.76750 0.06600
H 	H 	0.56850 0.78860 0.74090 -0.00200
I 	I 	0.64327 0.69304 0.72933 -0.37200
Zn	Zn	0.62703 0.67090 0.80399 1.16500
I 	I 	0.60955 0.52307 0.83471 -0.38900
N 	N 	0.43370 0.28220 0.70230 -0.26800
C 	C 	0.46330 0.22350 0.70280 0.07000
H 	H 	0.48090 0.23360 0.68390 -0.00500
C 	C 	0.46860 0.15000 0.72940 -0.11400
H 	H 	0.49020 0.11090 0.72930 0.07500
C 	C 	0.44360 0.13150 0.75630 0.04700
C 	C 	0.41320 0.19300 0.75660 -0.10900
H 	H 	0.39550 0.18400 0.77550 0.07900
C 	C 	0.40920 0.26650 0.72930 0.06100
H 	H 	0.38840 0.30770 0.72960 -0.01000
Zn	Zn	0.41945 0.38458 0.65586 1.15900
N 	N 	0.37930 0.31420 0.60900 -0.27700
C 	C 	0.38710 0.23170 0.60040 0.09600
H 	H 	0.40930 0.20420 0.61900 -0.01300
C 	C 	0.36580 0.18070 0.56650 -0.13700
H 	H 	0.37260 0.11970 0.56260 0.10100
C 	C 	0.33500 0.22000 0.53890 0.06800
C 	C 	0.32640 0.31050 0.54620 -0.13500
H 	H 	0.30520 0.34040 0.52730 0.07900
C 	C 	0.34890 0.35430 0.58060 0.07000
H 	H 	0.34330 0.41580 0.58520 -0.01600
C 	C 	0.31090 0.16900 0.50210 0.09600
N 	N 	0.32030 0.08190 0.49800 -0.13400
C 	C 	0.29690 0.03580 0.46670 0.12800
N 	N 	0.26700 0.07230 0.43610 -0.13800
C 	C 	0.26000 0.15890 0.44260 0.09300
N 	N 	0.28070 0.20920 0.47460 -0.14100
N 	N 	0.31730 0.75210 0.47150 -0.27000
C 	C 	0.28380 0.78600 0.44780 0.06500
H 	H 	0.26410 0.74500 0.43380 -0.01000
C 	C 	0.27620 0.87600 0.44260 -0.10600
H 	H 	0.25280 0.89730 0.42360 0.06800
C 	C 	0.30490 0.93750 0.46670 0.02400
C 	C 	0.33890 0.90310 0.49060 -0.10400
H 	H 	0.35920 0.94200 0.50540 0.06900
C 	C 	0.34370 0.81070 0.49310 0.05500
H 	H 	0.36720 0.78750 0.51120 -0.01500
N 	N 	0.16740 0.29190 0.35460 -0.27100
C 	C 	0.18550 0.32900 0.39230 0.07300
H 	H 	0.17710 0.38690 0.39940 -0.00600
C 	C 	0.21580 0.28810 0.42160 -0.12700
H 	H 	0.22790 0.31730 0.44820 0.08700
C 	C 	0.22810 0.20410 0.41160 0.04500
C 	C 	0.20940 0.16280 0.37220 -0.10900
H 	H 	0.21710 0.10470 0.36460 0.08500
C 	C 	0.17900 0.20940 0.34460 0.06100
H 	H 	0.16600 0.18210 0.31790 0.00100
I 	I 	0.38743 0.00836 0.19472 -0.37000
Zn	Zn	0.41950 0.12964 0.15988 1.16600
I 	I 	0.47461 0.11744 0.11892 -0.34100
N 	N 	0.43520 0.22950 0.20790 -0.26700
C 	C 	0.46190 0.29220 0.20350 0.05900
H 	H 	0.47750 0.28370 0.18230 -0.00400
C 	C 	0.46720 0.36990 0.22950 -0.10900
H 	H 	0.48570 0.41430 0.22540 0.07200
C 	C 	0.44550 0.38170 0.26100 0.04700
C 	C 	0.41950 0.31240 0.26700 -0.11600
H 	H 	0.40550 0.31540 0.28980 0.08200
C 	C 	0.41510 0.24010 0.23860 0.07300
H 	H 	0.39640 0.19510 0.24150 -0.01100
C 	C 	0.44910 0.46500 0.28750 0.09700
N 	N 	0.47610 0.52440 0.28270 -0.15100
C 	C 	0.48140 0.59160 0.31140 0.08900
N 	N 	0.46050 0.60490 0.34150 -0.13700
C 	C 	0.43270 0.54520 0.34160 0.10500
N 	N 	0.42600 0.47230 0.31650 -0.13600
N 	N 	0.36110 0.58940 0.43470 -0.29100
C 	C 	0.35350 0.52380 0.40530 0.09400
H 	H 	0.33160 0.48570 0.40550 -0.02000
C 	C 	0.37510 0.50790 0.37510 -0.14200
H 	H 	0.36740 0.46170 0.35400 0.09000
C 	C 	0.40790 0.55770 0.37480 0.08000
C 	C 	0.41670 0.62600 0.40670 -0.14500
H 	H 	0.44000 0.66120 0.40990 0.09000
C 	C 	0.39110 0.64000 0.43240 0.10700
H 	H 	0.39530 0.69130 0.45080 -0.03400
Zn	Zn	0.32891 0.61504 0.48173 1.15800
N 	N 	0.57640 0.76940 0.30900 -0.28200
C 	C 	0.56270 0.76100 0.34440 0.08800
H 	H 	0.57460 0.79470 0.36980 -0.02500
C 	C 	0.53140 0.70430 0.34630 -0.14100
H 	H 	0.52220 0.69850 0.37260 0.08800
C 	C 	0.51420 0.65770 0.31020 0.06300
C 	C 	0.52920 0.66270 0.27290 -0.14200
H 	H 	0.51940 0.62660 0.24780 0.08300
C 	C 	0.55960 0.72380 0.27430 0.09000
H 	H 	0.56880 0.73300 0.24820 -0.01300
I 	I 	0.64081 0.84920 0.23600 -0.38600
Zn	Zn	0.62334 0.85653 0.31007 1.16200
I 	I 	0.60827 0.00092 0.34574 -0.36400
I 	I 	0.38360 0.91170 0.05740 -0.21200
I 	I 	0.27150 0.98800 0.95910 -0.18600
I 	I 	0.47440 0.40600 0.62830 -0.03700
I 	I 	0.37570 0.49600 0.69160 -0.23600
I 	I 	0.26430 0.53400 0.45630 -0.16800
I 	I 	0.36950 0.60010 0.55620 -0.14300
