data_crystal

_cell_length_a 22.14900
_cell_length_b 9.77900
_cell_length_c 19.37600
_cell_angle_alpha 90.00000
_cell_angle_beta  119.16100
_cell_angle_gamma 90.00000

_symmetry_space_group_name_	'P 1'
_symmetry_space_group_name_H-M	'P 1'

loop_
_symmetry_equiv_pos_as_xyz
  x,y,z

loop_
_atom_site_label
_atom_site_type_symbol
_atom_site_fract_x
_atom_site_fract_y
_atom_site_fract_z
_atom_site_charge
Gd	Gd	0.01106 0.30853 0.45570 1.52300
Co	Co	0.81975 0.37106 0.20502 1.16000
O 	O 	0.90190 0.39150 0.33060 -0.46400
O 	O 	0.94360 0.53520 0.43320 -0.47100
O 	O 	0.77210 0.85610 0.41000 -0.35700
O 	O 	0.86540 0.72520 0.48150 -0.41300
H 	H 	0.89400 0.66600 0.48300 0.05900
O 	O 	0.87260 0.49840 0.15830 -0.32900
O 	O 	0.88170 0.22510 0.18410 -0.34000
O 	O 	0.96080 0.20940 0.14270 -0.31600
O 	O 	0.94240 0.47820 0.10110 -0.32200
O 	O 	0.04690 0.91200 0.59090 -0.32000
O 	O 	0.04920 0.13490 0.56260 -0.33600
N 	N 	0.78580 0.54270 0.24190 -0.21600
N 	N 	0.73440 0.71630 0.27390 -0.21600
C 	C 	0.89510 0.50000 0.36410 0.31300
C 	C 	0.82930 0.57880 0.32060 -0.03600
C 	C 	0.79740 0.68490 0.34110 -0.04200
C 	C 	0.73030 0.62810 0.21690 0.11700
H 	H 	0.69310 0.62650 0.16590 -0.00300
C 	C 	0.81460 0.75890 0.41670 0.34600
C 	C 	0.91890 0.27290 0.15650 0.24600
C 	C 	0.91020 0.43260 0.13750 0.21800
C 	C 	0.02810 0.01440 0.54540 0.19000
Gd	Gd	0.51106 0.80853 0.45570 1.53200
Co	Co	0.31975 0.87106 0.20502 1.16300
O 	O 	0.40190 0.89150 0.33060 -0.44300
O 	O 	0.44360 0.03520 0.43320 -0.47600
O 	O 	0.27210 0.35610 0.41000 -0.36200
O 	O 	0.36540 0.22520 0.48150 -0.41500
H 	H 	0.39400 0.16600 0.48300 0.06100
O 	O 	0.37260 0.99840 0.15830 -0.32300
O 	O 	0.38170 0.72510 0.18410 -0.33800
O 	O 	0.46080 0.70940 0.14270 -0.31400
O 	O 	0.44240 0.97820 0.10110 -0.31600
O 	O 	0.54690 0.41200 0.59090 -0.34800
O 	O 	0.54920 0.63490 0.56260 -0.34300
N 	N 	0.28580 0.04270 0.24190 -0.22500
N 	N 	0.23440 0.21630 0.27390 -0.21800
C 	C 	0.39510 -0.00000 0.36410 0.28300
C 	C 	0.32930 0.07880 0.32060 -0.03400
C 	C 	0.29740 0.18490 0.34110 -0.04700
C 	C 	0.23030 0.12810 0.21690 0.11300
H 	H 	0.19310 0.12650 0.16590 -0.00800
C 	C 	0.31460 0.25890 0.41670 0.34600
C 	C 	0.41890 0.77290 0.15650 0.24700
C 	C 	0.41020 0.93260 0.13750 0.21700
C 	C 	0.52810 0.51440 0.54540 0.24800
Gd	Gd	0.98894 0.30853 0.04430 1.50200
Co	Co	0.18025 0.37106 0.29498 1.15900
O 	O 	0.09810 0.39150 0.16940 -0.46000
O 	O 	0.05640 0.53520 0.06680 -0.46600
O 	O 	0.22790 0.85610 0.09000 -0.35700
O 	O 	0.13460 0.72520 0.01850 -0.41300
H 	H 	0.10600 0.66600 0.01700 0.06100
O 	O 	0.12740 0.49840 0.34170 -0.32800
O 	O 	0.11830 0.22510 0.31590 -0.33900
O 	O 	0.03920 0.20940 0.35730 -0.31400
O 	O 	0.05760 0.47820 0.39890 -0.32000
O 	O 	0.95310 0.91200 0.90910 -0.31500
O 	O 	0.95080 0.13490 0.93740 -0.33300
N 	N 	0.21420 0.54270 0.25810 -0.21600
N 	N 	0.26560 0.71630 0.22610 -0.21600
C 	C 	0.10490 0.50000 0.13590 0.31200
C 	C 	0.17070 0.57880 0.17940 -0.03600
C 	C 	0.20260 0.68490 0.15890 -0.04200
C 	C 	0.26970 0.62810 0.28310 0.11700
H 	H 	0.30690 0.62650 0.33410 -0.00200
C 	C 	0.18540 0.75890 0.08330 0.34700
C 	C 	0.08110 0.27290 0.34350 0.24700
C 	C 	0.08980 0.43260 0.36250 0.21900
C 	C 	0.97190 0.01440 0.95460 0.19100
Gd	Gd	0.48894 0.80853 0.04430 1.52500
Co	Co	0.68025 0.87106 0.29498 1.16300
O 	O 	0.59810 0.89150 0.16940 -0.44400
O 	O 	0.55640 0.03520 0.06680 -0.47500
O 	O 	0.72790 0.35610 0.09000 -0.36300
O 	O 	0.63460 0.22520 0.01850 -0.41600
H 	H 	0.60600 0.16600 0.01700 0.06100
O 	O 	0.62740 0.99840 0.34170 -0.32300
O 	O 	0.61830 0.72510 0.31590 -0.33800
O 	O 	0.53920 0.70940 0.35730 -0.31500
O 	O 	0.55760 0.97820 0.39890 -0.31500
O 	O 	0.45310 0.41200 0.90910 -0.34800
O 	O 	0.45080 0.63490 0.93740 -0.34200
N 	N 	0.71420 0.04270 0.25810 -0.22600
N 	N 	0.76560 0.21630 0.22610 -0.21800
C 	C 	0.60490 0.00000 0.13590 0.28500
C 	C 	0.67070 0.07880 0.17940 -0.03500
C 	C 	0.70260 0.18490 0.15890 -0.04700
C 	C 	0.76970 0.12810 0.28310 0.11300
H 	H 	0.80690 0.12650 0.33410 -0.00800
C 	C 	0.68540 0.25890 0.08330 0.34600
C 	C 	0.58110 0.77290 0.34350 0.24700
C 	C 	0.58980 0.93260 0.36250 0.21700
C 	C 	0.47190 0.51440 0.95460 0.25000
Gd	Gd	0.98894 0.69147 0.54430 1.52800
Co	Co	0.18025 0.62894 0.79498 1.15900
O 	O 	0.09810 0.60850 0.66940 -0.46400
O 	O 	0.05640 0.46480 0.56680 -0.47200
O 	O 	0.22790 0.14390 0.59000 -0.36800
O 	O 	0.13460 0.27480 0.51850 -0.41700
H 	H 	0.10600 0.33400 0.51700 0.06000
O 	O 	0.12740 0.50160 0.84170 -0.33500
O 	O 	0.11830 0.77490 0.81590 -0.33400
O 	O 	0.03920 0.79060 0.85730 -0.31000
O 	O 	0.05760 0.52180 0.89890 -0.32600
O 	O 	0.95310 0.08800 0.40910 -0.37800
O 	O 	0.95080 0.86510 0.43740 -0.35400
N 	N 	0.21420 0.45730 0.75810 -0.21700
N 	N 	0.26560 0.28370 0.72610 -0.21900
C 	C 	0.10490 0.50000 0.63590 0.31200
C 	C 	0.17070 0.42120 0.67940 -0.03700
C 	C 	0.20260 0.31510 0.65890 -0.04600
C 	C 	0.26970 0.37190 0.78310 0.11400
H 	H 	0.30690 0.37350 0.83410 -0.00500
C 	C 	0.18540 0.24110 0.58330 0.34600
C 	C 	0.08110 0.72710 0.84350 0.24500
C 	C 	0.08980 0.56740 0.86250 0.21900
C 	C 	0.97190 0.98560 0.45460 0.30500
Gd	Gd	0.48894 0.19147 0.54430 1.50500
Co	Co	0.68025 0.12894 0.79498 1.15400
O 	O 	0.59810 0.10850 0.66940 -0.45400
O 	O 	0.55640 0.96480 0.56680 -0.43600
O 	O 	0.72790 0.64390 0.59000 -0.36500
O 	O 	0.63460 0.77480 0.51850 -0.41700
H 	H 	0.60600 0.83400 0.51700 0.06100
O 	O 	0.62740 0.00160 0.84170 -0.34100
O 	O 	0.61830 0.27490 0.81590 -0.33500
O 	O 	0.53920 0.29060 0.85730 -0.31000
O 	O 	0.55760 0.02180 0.89890 -0.33000
O 	O 	0.45310 0.58800 0.40910 -0.35000
O 	O 	0.45080 0.36510 0.43740 -0.34500
N 	N 	0.71420 0.95730 0.75810 -0.21100
N 	N 	0.76560 0.78370 0.72610 -0.21500
C 	C 	0.60490 0.00000 0.63590 0.25400
C 	C 	0.67070 0.92120 0.67940 -0.00100
C 	C 	0.70260 0.81510 0.65890 -0.05400
C 	C 	0.76970 0.87190 0.78310 0.11800
H 	H 	0.80690 0.87350 0.83410 0.00200
C 	C 	0.68540 0.74110 0.58330 0.35200
C 	C 	0.58110 0.22710 0.84350 0.24500
C 	C 	0.58980 0.06740 0.86250 0.22000
C 	C 	0.47190 0.48560 0.45460 0.24800
Gd	Gd	0.01106 0.69147 0.95570 1.51500
Co	Co	0.81975 0.62894 0.70502 1.15900
O 	O 	0.90190 0.60850 0.83060 -0.46100
O 	O 	0.94360 0.46480 0.93320 -0.46600
O 	O 	0.77210 0.14390 0.91000 -0.36800
O 	O 	0.86540 0.27480 0.98150 -0.41600
H 	H 	0.89400 0.33400 0.98300 0.06400
O 	O 	0.87260 0.50160 0.65830 -0.33400
O 	O 	0.88170 0.77490 0.68410 -0.33300
O 	O 	0.96080 0.79060 0.64270 -0.30900
O 	O 	0.94240 0.52180 0.60110 -0.32500
O 	O 	0.04690 0.08800 0.09090 -0.37200
O 	O 	0.04920 0.86510 0.06260 -0.35100
N 	N 	0.78580 0.45730 0.74190 -0.21700
N 	N 	0.73440 0.28370 0.77390 -0.21900
C 	C 	0.89510 0.50000 0.86410 0.31100
C 	C 	0.82930 0.42120 0.82060 -0.03600
C 	C 	0.79740 0.31510 0.84110 -0.04600
C 	C 	0.73030 0.37190 0.71690 0.11400
H 	H 	0.69310 0.37350 0.66590 -0.00500
C 	C 	0.81460 0.24110 0.91670 0.34600
C 	C 	0.91890 0.72710 0.65650 0.24600
C 	C 	0.91020 0.56740 0.63750 0.21900
C 	C 	0.02810 0.98560 0.04540 0.30200
Gd	Gd	0.51106 0.19147 0.95570 1.50600
Co	Co	0.31975 0.12894 0.70502 1.15400
O 	O 	0.40190 0.10850 0.83060 -0.45300
O 	O 	0.44360 0.96480 0.93320 -0.43200
O 	O 	0.27210 0.64390 0.91000 -0.36500
O 	O 	0.36540 0.77480 0.98150 -0.41700
H 	H 	0.39400 0.83400 0.98300 0.06300
O 	O 	0.37260 0.00160 0.65830 -0.34100
O 	O 	0.38170 0.27490 0.68410 -0.33600
O 	O 	0.46080 0.29060 0.64270 -0.31000
O 	O 	0.44240 0.02180 0.60110 -0.33000
O 	O 	0.54690 0.58800 0.09090 -0.34900
O 	O 	0.54920 0.36510 0.06260 -0.34500
N 	N 	0.28580 0.95730 0.74190 -0.21200
N 	N 	0.23440 0.78370 0.77390 -0.21500
C 	C 	0.39510 0.00000 0.86410 0.25000
C 	C 	0.32930 0.92120 0.82060 0.00100
C 	C 	0.29740 0.81510 0.84110 -0.05400
C 	C 	0.23030 0.87190 0.71690 0.11800
H 	H 	0.19310 0.87350 0.66590 0.00100
C 	C 	0.31460 0.74110 0.91670 0.35300
C 	C 	0.41890 0.22710 0.65650 0.24400
C 	C 	0.41020 0.06740 0.63750 0.22000
C 	C 	0.52810 0.48560 0.04540 0.24700
