data_crystal

_cell_length_a 18.29500
_cell_length_b 10.84820
_cell_length_c 17.39840
_cell_angle_alpha 90.00000
_cell_angle_beta  101.39500
_cell_angle_gamma 90.00000

_symmetry_space_group_name_	'P 1'
_symmetry_space_group_name_H-M	'P 1'

loop_
_symmetry_equiv_pos_as_xyz
  x,y,z

loop_
_atom_site_label
_atom_site_type_symbol
_atom_site_fract_x
_atom_site_fract_y
_atom_site_fract_z
_atom_site_charge
Yb	Yb	0.48898 0.40159 0.10204 1.54800
C 	C 	0.61340 0.60780 0.08300 0.38400
O 	O 	0.56320 0.34290 0.02120 -0.44400
O 	O 	0.58340 0.42300 0.90870 -0.39400
O 	O 	0.57570 0.54940 0.12510 -0.41900
O 	O 	0.92590 0.89380 0.19720 -0.45100
O 	O 	0.91500 0.80850 0.31040 -0.41900
C 	C 	0.81980 0.76990 0.19900 -0.10600
C 	C 	0.60330 0.36000 0.97040 0.36700
C 	C 	0.89190 0.82730 0.23850 0.37400
C 	C 	0.72000 0.29500 0.92540 -0.01700
H 	H 	0.69960 0.32580 0.87450 0.05200
O 	O 	0.59660 0.61970 0.00990 -0.45800
C 	C 	0.68490 0.66610 0.12400 -0.08300
C 	C 	0.71710 0.76070 0.08770 -0.01600
H 	H 	0.69330 0.78940 0.03740 0.03800
C 	C 	0.72000 0.62370 0.19810 -0.02100
H 	H 	0.69790 0.55970 0.22300 0.05500
C 	C 	0.67940 0.30270 0.98530 -0.07800
C 	C 	0.78700 0.67510 0.23510 -0.00500
H 	H 	0.81090 0.64580 0.28530 0.04000
C 	C 	0.78370 0.81260 0.12530 -0.01800
H 	H 	0.80520 0.87790 0.10090 0.03500
C 	C 	0.70970 0.25790 0.05930 -0.02200
H 	H 	0.68200 0.26360 0.09990 0.05400
Yb	Yb	0.98898 0.90159 0.10204 1.54200
C 	C 	0.11340 0.10780 0.08300 0.38200
O 	O 	0.06320 0.84290 0.02120 -0.44300
O 	O 	0.08340 0.92300 0.90870 -0.39500
O 	O 	0.07570 0.04940 0.12510 -0.41600
O 	O 	0.42590 0.39380 0.19720 -0.45100
O 	O 	0.41500 0.30850 0.31040 -0.41900
C 	C 	0.31980 0.26990 0.19900 -0.10600
C 	C 	0.10330 0.86000 0.97040 0.36500
C 	C 	0.39190 0.32730 0.23850 0.37500
C 	C 	0.22000 0.79500 0.92540 -0.01300
H 	H 	0.19960 0.82580 0.87450 0.05100
O 	O 	0.09660 0.11970 0.00990 -0.45200
C 	C 	0.18490 0.16610 0.12400 -0.08100
C 	C 	0.21710 0.26070 0.08770 -0.01600
H 	H 	0.19330 0.28940 0.03740 0.04100
C 	C 	0.22000 0.12370 0.19810 -0.02200
H 	H 	0.19790 0.05970 0.22300 0.05600
C 	C 	0.17940 0.80270 0.98530 -0.08300
C 	C 	0.28700 0.17510 0.23510 -0.00400
H 	H 	0.31090 0.14580 0.28530 0.03900
C 	C 	0.28370 0.31260 0.12530 -0.01600
H 	H 	0.30520 0.37790 0.10090 0.03700
C 	C 	0.20970 0.75790 0.05930 -0.01600
H 	H 	0.18200 0.76360 0.09990 0.05200
Yb	Yb	0.51102 0.40159 0.39796 1.54700
C 	C 	0.38660 0.60780 0.41700 0.38300
O 	O 	0.43680 0.34290 0.47880 -0.44600
O 	O 	0.41660 0.42300 0.59130 -0.39600
O 	O 	0.42430 0.54940 0.37490 -0.42000
O 	O 	0.07410 0.89380 0.30280 -0.45000
O 	O 	0.08500 0.80850 0.18960 -0.41700
C 	C 	0.18020 0.76990 0.30100 -0.10500
C 	C 	0.39670 0.36000 0.52960 0.36800
C 	C 	0.10810 0.82730 0.26150 0.37400
C 	C 	0.28000 0.29500 0.57460 -0.01500
H 	H 	0.30040 0.32580 0.62550 0.05100
O 	O 	0.40340 0.61970 0.49010 -0.45700
C 	C 	0.31510 0.66610 0.37600 -0.08300
C 	C 	0.28290 0.76070 0.41230 -0.01600
H 	H 	0.30670 0.78940 0.46260 0.03900
C 	C 	0.28000 0.62370 0.30190 -0.02100
H 	H 	0.30210 0.55970 0.27700 0.05500
C 	C 	0.32060 0.30270 0.51470 -0.08000
C 	C 	0.21300 0.67510 0.26490 -0.00500
H 	H 	0.18910 0.64580 0.21470 0.04000
C 	C 	0.21630 0.81260 0.37470 -0.01800
H 	H 	0.19480 0.87790 0.39910 0.03600
C 	C 	0.29030 0.25790 0.44070 -0.01900
H 	H 	0.31800 0.26360 0.40010 0.05300
Yb	Yb	0.01102 0.90159 0.39796 1.54800
C 	C 	0.88660 0.10780 0.41700 0.38300
O 	O 	0.93680 0.84290 0.47880 -0.44500
O 	O 	0.91660 0.92300 0.59130 -0.39500
O 	O 	0.92430 0.04940 0.37490 -0.42000
O 	O 	0.57410 0.39380 0.30280 -0.45100
O 	O 	0.58500 0.30850 0.18960 -0.41900
C 	C 	0.68020 0.26990 0.30100 -0.10600
C 	C 	0.89670 0.86000 0.52960 0.36800
C 	C 	0.60810 0.32730 0.26150 0.37400
C 	C 	0.78000 0.79500 0.57460 -0.01500
H 	H 	0.80040 0.82580 0.62550 0.05200
O 	O 	0.90340 0.11970 0.49010 -0.45600
C 	C 	0.81510 0.16610 0.37600 -0.08200
C 	C 	0.78290 0.26070 0.41230 -0.01600
H 	H 	0.80670 0.28940 0.46260 0.04000
C 	C 	0.78000 0.12370 0.30190 -0.02100
H 	H 	0.80210 0.05970 0.27700 0.05600
C 	C 	0.82060 0.80270 0.51470 -0.08000
C 	C 	0.71300 0.17510 0.26490 -0.00500
H 	H 	0.68910 0.14580 0.21470 0.04000
C 	C 	0.71630 0.31260 0.37470 -0.01700
H 	H 	0.69480 0.37790 0.39910 0.03600
C 	C 	0.79030 0.75790 0.44070 -0.02000
H 	H 	0.81800 0.76360 0.40010 0.05300
Yb	Yb	0.51102 0.59841 0.89796 1.54700
C 	C 	0.38660 0.39220 0.91700 0.38300
O 	O 	0.43680 0.65710 0.97880 -0.44500
O 	O 	0.41660 0.57700 0.09130 -0.39500
O 	O 	0.42430 0.45060 0.87490 -0.42000
O 	O 	0.07410 0.10620 0.80280 -0.45200
O 	O 	0.08500 0.19150 0.68960 -0.41900
C 	C 	0.18020 0.23010 0.80100 -0.10600
C 	C 	0.39670 0.64000 0.02960 0.36700
C 	C 	0.10810 0.17270 0.76150 0.37400
C 	C 	0.28000 0.70500 0.07460 -0.01700
H 	H 	0.30040 0.67420 0.12550 0.05200
O 	O 	0.40340 0.38030 0.99010 -0.45800
C 	C 	0.31510 0.33390 0.87600 -0.08300
C 	C 	0.28290 0.23930 0.91230 -0.01600
H 	H 	0.30670 0.21060 0.96260 0.03800
C 	C 	0.28000 0.37630 0.80190 -0.02100
H 	H 	0.30210 0.44030 0.77700 0.05500
C 	C 	0.32060 0.69730 0.01470 -0.07800
C 	C 	0.21300 0.32490 0.76490 -0.00500
H 	H 	0.18910 0.35420 0.71470 0.04000
C 	C 	0.21630 0.18740 0.87470 -0.01800
H 	H 	0.19480 0.12210 0.89910 0.03500
C 	C 	0.29030 0.74210 0.94070 -0.02200
H 	H 	0.31800 0.73640 0.90010 0.05400
Yb	Yb	0.01102 0.09841 0.89796 1.54200
C 	C 	0.88660 0.89220 0.91700 0.38200
O 	O 	0.93680 0.15710 0.97880 -0.44300
O 	O 	0.91660 0.07700 0.09130 -0.39500
O 	O 	0.92430 0.95060 0.87490 -0.41600
O 	O 	0.57410 0.60620 0.80280 -0.45100
O 	O 	0.58500 0.69150 0.68960 -0.41900
C 	C 	0.68020 0.73010 0.80100 -0.10600
C 	C 	0.89670 0.14000 0.02960 0.36500
C 	C 	0.60810 0.67270 0.76150 0.37500
C 	C 	0.78000 0.20500 0.07460 -0.01300
H 	H 	0.80040 0.17420 0.12550 0.05100
O 	O 	0.90340 0.88030 0.99010 -0.45200
C 	C 	0.81510 0.83390 0.87600 -0.08100
C 	C 	0.78290 0.73930 0.91230 -0.01600
H 	H 	0.80670 0.71060 0.96260 0.04100
C 	C 	0.78000 0.87630 0.80190 -0.02200
H 	H 	0.80210 0.94030 0.77700 0.05600
C 	C 	0.82060 0.19730 0.01470 -0.08300
C 	C 	0.71300 0.82490 0.76490 -0.00400
H 	H 	0.68910 0.85420 0.71470 0.03900
C 	C 	0.71630 0.68740 0.87470 -0.01600
H 	H 	0.69480 0.62210 0.89910 0.03700
C 	C 	0.79030 0.24210 0.94070 -0.01600
H 	H 	0.81800 0.23640 0.90010 0.05200
Yb	Yb	0.48898 0.59841 0.60204 1.54700
C 	C 	0.61340 0.39220 0.58300 0.38300
O 	O 	0.56320 0.65710 0.52120 -0.44600
O 	O 	0.58340 0.57700 0.40870 -0.39600
O 	O 	0.57570 0.45060 0.62510 -0.42000
O 	O 	0.92590 0.10620 0.69720 -0.45000
O 	O 	0.91500 0.19150 0.81040 -0.41700
C 	C 	0.81980 0.23010 0.69900 -0.10500
C 	C 	0.60330 0.64000 0.47040 0.36800
C 	C 	0.89190 0.17270 0.73850 0.37400
C 	C 	0.72000 0.70500 0.42540 -0.01500
H 	H 	0.69960 0.67420 0.37450 0.05100
O 	O 	0.59660 0.38030 0.50990 -0.45700
C 	C 	0.68490 0.33390 0.62400 -0.08300
C 	C 	0.71710 0.23930 0.58770 -0.01600
H 	H 	0.69330 0.21060 0.53740 0.03900
C 	C 	0.72000 0.37630 0.69810 -0.02100
H 	H 	0.69790 0.44030 0.72300 0.05500
C 	C 	0.67940 0.69730 0.48530 -0.08000
C 	C 	0.78700 0.32490 0.73510 -0.00500
H 	H 	0.81090 0.35420 0.78530 0.04000
C 	C 	0.78370 0.18740 0.62530 -0.01800
H 	H 	0.80520 0.12210 0.60090 0.03600
C 	C 	0.70970 0.74210 0.55930 -0.01900
H 	H 	0.68200 0.73640 0.59990 0.05300
Yb	Yb	0.98898 0.09841 0.60204 1.54800
C 	C 	0.11340 0.89220 0.58300 0.38300
O 	O 	0.06320 0.15710 0.52120 -0.44500
O 	O 	0.08340 0.07700 0.40870 -0.39500
O 	O 	0.07570 0.95060 0.62510 -0.42000
O 	O 	0.42590 0.60620 0.69720 -0.45100
O 	O 	0.41500 0.69150 0.81040 -0.41900
C 	C 	0.31980 0.73010 0.69900 -0.10600
C 	C 	0.10330 0.14000 0.47040 0.36800
C 	C 	0.39190 0.67270 0.73850 0.37400
C 	C 	0.22000 0.20500 0.42540 -0.01500
H 	H 	0.19960 0.17420 0.37450 0.05200
O 	O 	0.09660 0.88030 0.50990 -0.45600
C 	C 	0.18490 0.83390 0.62400 -0.08200
C 	C 	0.21710 0.73930 0.58770 -0.01600
H 	H 	0.19330 0.71060 0.53740 0.04000
C 	C 	0.22000 0.87630 0.69810 -0.02100
H 	H 	0.19790 0.94030 0.72300 0.05600
C 	C 	0.17940 0.19730 0.48530 -0.08000
C 	C 	0.28700 0.82490 0.73510 -0.00500
H 	H 	0.31090 0.85420 0.78530 0.04000
C 	C 	0.28370 0.68740 0.62530 -0.01700
H 	H 	0.30520 0.62210 0.60090 0.03600
C 	C 	0.20970 0.24210 0.55930 -0.02000
H 	H 	0.18200 0.23640 0.59990 0.05300
