data_crystal

_cell_length_a 26.38000
_cell_length_b 26.38000
_cell_length_c 28.24000
_cell_angle_alpha 90.00000
_cell_angle_beta  90.00000
_cell_angle_gamma 90.00000

_symmetry_space_group_name_	'P 1'
_symmetry_space_group_name_H-M	'P 1'

loop_
_symmetry_equiv_pos_as_xyz
  x,y,z

loop_
_atom_site_label
_atom_site_type_symbol
_atom_site_fract_x
_atom_site_fract_y
_atom_site_fract_z
_atom_site_charge
N 	N 	0.60364 0.79418 0.19573 -0.21700
O 	O 	0.52127 0.57122 0.14991 -0.42200
O 	O 	0.52254 0.57046 0.22902 -0.41200
O 	O 	0.48696 0.93478 0.04943 -0.42400
O 	O 	0.56271 0.97266 0.04869 -0.41900
C 	C 	0.52863 0.59138 0.18947 0.39000
C 	C 	0.54678 0.64527 0.19066 -0.18200
C 	C 	0.55548 0.66896 0.23339 0.12300
H 	H 	0.54880 0.65180 0.26150 0.00300
C 	C 	0.57425 0.71848 0.23491 -0.22900
H 	H 	0.58070 0.73390 0.26390 0.11300
C 	C 	0.58312 0.74412 0.19418 0.19500
C 	C 	0.57312 0.72056 0.15113 -0.23300
H 	H 	0.57910 0.73790 0.12300 0.11000
C 	C 	0.55468 0.67223 0.14972 0.13200
H 	H 	0.54740 0.65740 0.12060 -0.00700
C 	C 	0.53202 0.93966 0.06311 0.39600
C 	C 	0.55005 0.90297 0.09896 -0.19100
C 	C 	0.60046 0.90186 0.11271 0.13300
H 	H 	0.62260 0.92560 0.09990 -0.00400
C 	C 	0.61901 0.86708 0.14459 -0.23300
H 	H 	0.65310 0.86710 0.15280 0.11300
C 	C 	0.58588 0.83179 0.16437 0.19600
C 	C 	0.53490 0.83371 0.15232 -0.23400
H 	H 	0.51220 0.81110 0.16610 0.11600
C 	C 	0.51783 0.86865 0.12023 0.13700
H 	H 	0.48360 0.86930 0.11260 -0.00400
C 	C 	0.64881 0.80114 0.22345 0.28300
C 	C 	0.68533 0.76542 0.22420 -0.36800
H 	H 	0.68120 0.73580 0.20670 0.16000
C 	C 	0.48570 0.53910 0.33670 0.10700
H 	H 	0.47460 0.56730 0.31990 0.00300
N 	N 	0.47490 0.58870 0.45330 -0.24000
C 	C 	0.47340 0.59250 0.40830 0.12800
H 	H 	0.46590 0.62230 0.39220 -0.01100
C 	C 	0.48520 0.54280 0.38430 -0.21500
O 	O 	0.51450 0.51480 0.45650 -0.35600
C 	C 	0.44070 0.63100 0.47410 -0.10400
H 	H 	0.45260 0.66370 0.46290 0.06000
H 	H 	0.40630 0.62630 0.46290 0.05000
N 	N 	0.39636 0.20582 0.19573 -0.21600
O 	O 	0.47873 0.42878 0.14991 -0.42100
O 	O 	0.47746 0.42954 0.22902 -0.41200
O 	O 	0.51304 0.06522 0.04943 -0.43700
O 	O 	0.43729 0.02734 0.04869 -0.44200
C 	C 	0.47137 0.40862 0.18947 0.39100
C 	C 	0.45322 0.35473 0.19066 -0.18200
C 	C 	0.44452 0.33104 0.23339 0.12400
H 	H 	0.45120 0.34820 0.26150 0.00300
C 	C 	0.42575 0.28152 0.23491 -0.22900
H 	H 	0.41930 0.26610 0.26390 0.11200
C 	C 	0.41688 0.25588 0.19418 0.19400
C 	C 	0.42688 0.27944 0.15113 -0.23300
H 	H 	0.42090 0.26210 0.12300 0.10900
C 	C 	0.44532 0.32777 0.14972 0.13200
H 	H 	0.45260 0.34260 0.12060 -0.00800
C 	C 	0.46798 0.06034 0.06311 0.40000
C 	C 	0.44995 0.09703 0.09896 -0.20200
C 	C 	0.39954 0.09814 0.11271 0.13700
H 	H 	0.37740 0.07440 0.09990 -0.01200
C 	C 	0.38099 0.13292 0.14459 -0.24000
H 	H 	0.34690 0.13290 0.15280 0.11100
C 	C 	0.41412 0.16821 0.16437 0.19800
C 	C 	0.46510 0.16629 0.15232 -0.24000
H 	H 	0.48780 0.18890 0.16610 0.11600
C 	C 	0.48217 0.13135 0.12023 0.14100
H 	H 	0.51640 0.13070 0.11260 -0.01100
C 	C 	0.35119 0.19886 0.22345 0.27800
C 	C 	0.31467 0.23458 0.22420 -0.36500
H 	H 	0.31880 0.26420 0.20670 0.15700
C 	C 	0.51430 0.46090 0.33670 0.10800
H 	H 	0.52540 0.43270 0.31990 0.00300
N 	N 	0.52510 0.41130 0.45330 -0.24000
C 	C 	0.52660 0.40750 0.40830 0.12800
H 	H 	0.53410 0.37770 0.39220 -0.01200
C 	C 	0.51480 0.45720 0.38430 -0.21600
O 	O 	0.48550 0.48520 0.45650 -0.35600
C 	C 	0.55930 0.36900 0.47410 -0.10400
H 	H 	0.54740 0.33630 0.46290 0.05800
H 	H 	0.59370 0.37370 0.46290 0.04900
N 	N 	0.20582 0.60364 0.19573 -0.21600
O 	O 	0.42878 0.52127 0.14991 -0.42100
O 	O 	0.42954 0.52254 0.22902 -0.41100
O 	O 	0.06522 0.48696 0.04943 -0.43700
O 	O 	0.02734 0.56271 0.04869 -0.44200
C 	C 	0.40862 0.52863 0.18947 0.39100
C 	C 	0.35473 0.54678 0.19066 -0.18200
C 	C 	0.33104 0.55548 0.23339 0.12400
H 	H 	0.34820 0.54880 0.26150 0.00300
C 	C 	0.28152 0.57425 0.23491 -0.22900
H 	H 	0.26610 0.58070 0.26390 0.11300
C 	C 	0.25588 0.58312 0.19418 0.19400
C 	C 	0.27944 0.57312 0.15113 -0.23300
H 	H 	0.26210 0.57910 0.12300 0.10900
C 	C 	0.32777 0.55468 0.14972 0.13200
H 	H 	0.34260 0.54740 0.12060 -0.00800
C 	C 	0.06034 0.53202 0.06311 0.40000
C 	C 	0.09703 0.55005 0.09896 -0.20200
C 	C 	0.09814 0.60046 0.11271 0.13700
H 	H 	0.07440 0.62260 0.09990 -0.01200
C 	C 	0.13292 0.61901 0.14459 -0.24000
H 	H 	0.13290 0.65310 0.15280 0.11200
C 	C 	0.16821 0.58588 0.16437 0.19800
C 	C 	0.16629 0.53490 0.15232 -0.24000
H 	H 	0.18890 0.51220 0.16610 0.11600
C 	C 	0.13135 0.51783 0.12023 0.14100
H 	H 	0.13070 0.48360 0.11260 -0.01100
C 	C 	0.19886 0.64881 0.22345 0.27900
C 	C 	0.23458 0.68533 0.22420 -0.36400
H 	H 	0.26420 0.68120 0.20670 0.15900
C 	C 	0.46090 0.48570 0.33670 0.10800
H 	H 	0.43270 0.47460 0.31990 0.00300
N 	N 	0.41130 0.47490 0.45330 -0.24000
C 	C 	0.40750 0.47340 0.40830 0.12800
H 	H 	0.37770 0.46590 0.39220 -0.01200
C 	C 	0.45720 0.48520 0.38430 -0.21600
O 	O 	0.48520 0.51450 0.45650 -0.35600
C 	C 	0.36900 0.44070 0.47410 -0.10400
H 	H 	0.33630 0.45260 0.46290 0.05800
H 	H 	0.37370 0.40630 0.46290 0.04900
N 	N 	0.79418 0.39636 0.19573 -0.21600
O 	O 	0.57122 0.47873 0.14991 -0.42100
O 	O 	0.57046 0.47746 0.22902 -0.41100
O 	O 	0.93478 0.51304 0.04943 -0.42300
O 	O 	0.97266 0.43729 0.04869 -0.41800
C 	C 	0.59138 0.47137 0.18947 0.39100
C 	C 	0.64527 0.45322 0.19066 -0.18200
C 	C 	0.66896 0.44452 0.23339 0.12400
H 	H 	0.65180 0.45120 0.26150 0.00300
C 	C 	0.71848 0.42575 0.23491 -0.22900
H 	H 	0.73390 0.41930 0.26390 0.11300
C 	C 	0.74412 0.41688 0.19418 0.19400
C 	C 	0.72056 0.42688 0.15113 -0.23300
H 	H 	0.73790 0.42090 0.12300 0.10900
C 	C 	0.67223 0.44532 0.14972 0.13200
H 	H 	0.65740 0.45260 0.12060 -0.00800
C 	C 	0.93966 0.46798 0.06311 0.39600
C 	C 	0.90297 0.44995 0.09896 -0.19100
C 	C 	0.90186 0.39954 0.11271 0.13200
H 	H 	0.92560 0.37740 0.09990 -0.00400
C 	C 	0.86708 0.38099 0.14459 -0.23300
H 	H 	0.86710 0.34690 0.15280 0.11200
C 	C 	0.83179 0.41412 0.16437 0.19600
C 	C 	0.83371 0.46510 0.15232 -0.23400
H 	H 	0.81110 0.48780 0.16610 0.11600
C 	C 	0.86865 0.48217 0.12023 0.13700
H 	H 	0.86930 0.51640 0.11260 -0.00400
C 	C 	0.80114 0.35119 0.22345 0.28300
C 	C 	0.76542 0.31467 0.22420 -0.36900
H 	H 	0.73580 0.31880 0.20670 0.15900
C 	C 	0.53910 0.51430 0.33670 0.10700
H 	H 	0.56730 0.52540 0.31990 0.00300
N 	N 	0.58870 0.52510 0.45330 -0.24000
C 	C 	0.59250 0.52660 0.40830 0.12800
H 	H 	0.62230 0.53410 0.39220 -0.01200
C 	C 	0.54280 0.51480 0.38430 -0.21500
O 	O 	0.51480 0.48550 0.45650 -0.35600
C 	C 	0.63100 0.55930 0.47410 -0.10400
H 	H 	0.66370 0.54740 0.46290 0.06000
H 	H 	0.62630 0.59370 0.46290 0.05000
N 	N 	0.89636 0.29418 0.30427 -0.22200
O 	O 	0.97873 0.07122 0.35009 -0.40700
O 	O 	0.97746 0.07046 0.27098 -0.40100
O 	O 	0.01304 0.43478 0.45057 -0.45100
O 	O 	0.93729 0.47266 0.45131 -0.42600
C 	C 	0.97137 0.09138 0.31053 0.38700
C 	C 	0.95322 0.14527 0.30934 -0.17500
C 	C 	0.94452 0.16896 0.26661 0.12200
H 	H 	0.95120 0.15180 0.23850 0.00600
C 	C 	0.92575 0.21848 0.26509 -0.22700
H 	H 	0.91930 0.23390 0.23610 0.11300
C 	C 	0.91688 0.24412 0.30582 0.19600
C 	C 	0.92688 0.22056 0.34887 -0.23100
H 	H 	0.92090 0.23790 0.37700 0.11600
C 	C 	0.94532 0.17223 0.35028 0.13100
H 	H 	0.95260 0.15740 0.37940 0.00100
C 	C 	0.96798 0.43966 0.43689 0.45300
C 	C 	0.94995 0.40297 0.40104 -0.24700
C 	C 	0.89954 0.40186 0.38729 0.18100
H 	H 	0.87740 0.42560 0.40010 -0.01700
C 	C 	0.88099 0.36708 0.35541 -0.27100
H 	H 	0.84690 0.36710 0.34720 0.12800
C 	C 	0.91412 0.33179 0.33563 0.23300
C 	C 	0.96510 0.33371 0.34768 -0.29900
H 	H 	0.98780 0.31110 0.33390 0.14600
C 	C 	0.98217 0.36865 0.37977 0.24700
H 	H 	0.01640 0.36930 0.38740 -0.06000
C 	C 	0.85119 0.30114 0.27655 0.28400
C 	C 	0.81467 0.26542 0.27580 -0.36900
H 	H 	0.81880 0.23580 0.29330 0.16000
C 	C 	0.01430 0.03910 0.16330 0.06900
H 	H 	0.02540 0.06730 0.18010 0.00700
N 	N 	0.02510 0.08870 0.04670 -0.23800
C 	C 	0.02660 0.09250 0.09170 0.10800
H 	H 	0.03410 0.12230 0.10780 -0.01400
C 	C 	0.01480 0.04280 0.11570 -0.19300
O 	O 	0.98550 0.01480 0.04350 -0.34700
C 	C 	0.05930 0.13100 0.02590 -0.19800
H 	H 	0.04740 0.16370 0.03710 0.06800
H 	H 	0.09370 0.12630 0.03710 0.06100
N 	N 	0.10364 0.70582 0.30427 -0.21000
O 	O 	0.02127 0.92878 0.35009 -0.41000
O 	O 	0.02254 0.92954 0.27098 -0.40700
O 	O 	0.98696 0.56522 0.45057 -0.38300
O 	O 	0.06271 0.52734 0.45131 -0.40700
C 	C 	0.02863 0.90862 0.31053 0.38800
C 	C 	0.04678 0.85473 0.30934 -0.17800
C 	C 	0.05548 0.83104 0.26661 0.12100
H 	H 	0.04880 0.84820 0.23850 -0.00100
C 	C 	0.07425 0.78152 0.26509 -0.22800
H 	H 	0.08070 0.76610 0.23610 0.10900
C 	C 	0.08312 0.75588 0.30582 0.19200
C 	C 	0.07312 0.77944 0.34887 -0.22900
H 	H 	0.07910 0.76210 0.37700 0.11400
C 	C 	0.05468 0.82777 0.35028 0.13000
H 	H 	0.04740 0.84260 0.37940 -0.00100
C 	C 	0.03202 0.56034 0.43689 0.34100
C 	C 	0.05005 0.59703 0.40104 -0.13000
C 	C 	0.10046 0.59814 0.38729 0.08500
H 	H 	0.12260 0.57440 0.40010 0.01400
C 	C 	0.11901 0.63292 0.35541 -0.19100
H 	H 	0.15310 0.63290 0.34720 0.10000
C 	C 	0.08588 0.66821 0.33563 0.16000
C 	C 	0.03490 0.66629 0.34768 -0.16600
H 	H 	0.01220 0.68890 0.33390 0.08700
C 	C 	0.01783 0.63135 0.37977 0.02900
H 	H 	0.98360 0.63070 0.38740 0.05400
C 	C 	0.14881 0.69886 0.27655 0.27900
C 	C 	0.18533 0.73458 0.27580 -0.36400
H 	H 	0.18120 0.76420 0.29330 0.16200
C 	C 	0.98570 0.96090 0.16330 0.13600
H 	H 	0.97460 0.93270 0.18010 0.00200
N 	N 	0.97490 0.91130 0.04670 -0.23300
C 	C 	0.97340 0.90750 0.09170 0.11200
H 	H 	0.96590 0.87770 0.10780 -0.00400
C 	C 	0.98520 0.95720 0.11570 -0.16500
O 	O 	0.01450 0.98520 0.04350 -0.36500
C 	C 	0.94070 0.86900 0.02590 -0.19800
H 	H 	0.95260 0.83630 0.03710 0.07800
H 	H 	0.90630 0.87370 0.03710 0.06800
N 	N 	0.29418 0.10364 0.30427 -0.21000
O 	O 	0.07122 0.02127 0.35009 -0.42800
O 	O 	0.07046 0.02254 0.27098 -0.42300
O 	O 	0.43478 0.98696 0.45057 -0.38300
O 	O 	0.47266 0.06271 0.45131 -0.40700
C 	C 	0.09138 0.02863 0.31053 0.39000
C 	C 	0.14527 0.04678 0.30934 -0.18600
C 	C 	0.16896 0.05548 0.26661 0.12300
H 	H 	0.15180 0.04880 0.23850 -0.00300
C 	C 	0.21848 0.07425 0.26509 -0.23200
H 	H 	0.23390 0.08070 0.23610 0.10900
C 	C 	0.24412 0.08312 0.30582 0.19300
C 	C 	0.22056 0.07312 0.34887 -0.23400
H 	H 	0.23790 0.07910 0.37700 0.11300
C 	C 	0.17223 0.05468 0.35028 0.13200
H 	H 	0.15740 0.04740 0.37940 -0.00600
C 	C 	0.43966 0.03202 0.43689 0.34000
C 	C 	0.40297 0.05005 0.40104 -0.12900
C 	C 	0.40186 0.10046 0.38729 0.08300
H 	H 	0.42560 0.12260 0.40010 0.01400
C 	C 	0.36708 0.11901 0.35541 -0.19100
H 	H 	0.36710 0.15310 0.34720 0.09900
C 	C 	0.33179 0.08588 0.33563 0.15900
C 	C 	0.33371 0.03490 0.34768 -0.16500
H 	H 	0.31110 0.01220 0.33390 0.08600
C 	C 	0.36865 0.01783 0.37977 0.02600
H 	H 	0.36930 0.98360 0.38740 0.05600
C 	C 	0.30114 0.14881 0.27655 0.27800
C 	C 	0.26542 0.18533 0.27580 -0.36400
H 	H 	0.23580 0.18120 0.29330 0.15800
C 	C 	0.03910 0.98570 0.16330 0.10800
H 	H 	0.06730 0.97460 0.18010 0.00700
N 	N 	0.08870 0.97490 0.04670 -0.23000
C 	C 	0.09250 0.97340 0.09170 0.11200
H 	H 	0.12230 0.96590 0.10780 -0.00500
C 	C 	0.04280 0.98520 0.11570 -0.17400
O 	O 	0.01480 0.01450 0.04350 -0.39200
C 	C 	0.13100 0.94070 0.02590 -0.19800
H 	H 	0.16370 0.95260 0.03710 0.07800
H 	H 	0.12630 0.90630 0.03710 0.06300
N 	N 	0.70582 0.89636 0.30427 -0.22100
O 	O 	0.92878 0.97873 0.35009 -0.39100
O 	O 	0.92954 0.97746 0.27098 -0.38800
O 	O 	0.56522 0.01304 0.45057 -0.45000
O 	O 	0.52734 0.93729 0.45131 -0.42600
C 	C 	0.90862 0.97137 0.31053 0.38500
C 	C 	0.85473 0.95322 0.30934 -0.16900
C 	C 	0.83104 0.94452 0.26661 0.12000
H 	H 	0.84820 0.95120 0.23850 0.00800
C 	C 	0.78152 0.92575 0.26509 -0.22400
H 	H 	0.76610 0.91930 0.23610 0.11200
C 	C 	0.75588 0.91688 0.30582 0.19500
C 	C 	0.77944 0.92688 0.34887 -0.22700
H 	H 	0.76210 0.92090 0.37700 0.11600
C 	C 	0.82777 0.94532 0.35028 0.12900
H 	H 	0.84260 0.95260 0.37940 0.00600
C 	C 	0.56034 0.96798 0.43689 0.45300
C 	C 	0.59703 0.94995 0.40104 -0.24500
C 	C 	0.59814 0.89954 0.38729 0.18000
H 	H 	0.57440 0.87740 0.40010 -0.01600
C 	C 	0.63292 0.88099 0.35541 -0.27000
H 	H 	0.63290 0.84690 0.34720 0.12800
C 	C 	0.66821 0.91412 0.33563 0.23200
C 	C 	0.66629 0.96510 0.34768 -0.29700
H 	H 	0.68890 0.98780 0.33390 0.14500
C 	C 	0.63135 0.98217 0.37977 0.24500
H 	H 	0.63070 0.01640 0.38740 -0.05800
C 	C 	0.69886 0.85119 0.27655 0.28500
C 	C 	0.73458 0.81467 0.27580 -0.36900
H 	H 	0.76420 0.81880 0.29330 0.16400
C 	C 	0.96090 0.01430 0.16330 0.11200
H 	H 	0.93270 0.02540 0.18010 -0.00200
N 	N 	0.91130 0.02510 0.04670 -0.24000
C 	C 	0.90750 0.02660 0.09170 0.10900
H 	H 	0.87770 0.03410 0.10780 -0.01200
C 	C 	0.95720 0.01480 0.11570 -0.18300
O 	O 	0.98520 0.98550 0.04350 -0.27800
C 	C 	0.86900 0.05930 0.02590 -0.19700
H 	H 	0.83630 0.04740 0.03710 0.06900
H 	H 	0.87370 0.09370 0.03710 0.06700
N 	N 	0.39636 0.20582 0.80427 -0.21500
O 	O 	0.47873 0.42878 0.85009 -0.40900
O 	O 	0.47746 0.42954 0.77098 -0.41000
O 	O 	0.51304 0.06522 0.95057 -0.39800
O 	O 	0.43729 0.02734 0.95131 -0.40300
C 	C 	0.47137 0.40862 0.81053 0.38900
C 	C 	0.45322 0.35473 0.80934 -0.17500
C 	C 	0.44452 0.33104 0.76661 0.12200
H 	H 	0.45120 0.34820 0.73850 0.00400
C 	C 	0.42575 0.28152 0.76509 -0.22800
H 	H 	0.41930 0.26610 0.73610 0.11200
C 	C 	0.41688 0.25588 0.80582 0.19500
C 	C 	0.42688 0.27944 0.84887 -0.22900
H 	H 	0.42090 0.26210 0.87700 0.12100
C 	C 	0.44532 0.32777 0.85028 0.13200
H 	H 	0.45260 0.34260 0.87940 0.00600
C 	C 	0.46798 0.06034 0.93689 0.39300
C 	C 	0.44995 0.09703 0.90104 -0.18100
C 	C 	0.39954 0.09814 0.88729 0.13000
H 	H 	0.37740 0.07440 0.90010 0.00300
C 	C 	0.38099 0.13292 0.85541 -0.22700
H 	H 	0.34690 0.13290 0.84720 0.11400
C 	C 	0.41412 0.16821 0.83563 0.19500
C 	C 	0.46510 0.16629 0.84768 -0.22800
H 	H 	0.48780 0.18890 0.83390 0.11600
C 	C 	0.48217 0.13135 0.87977 0.13400
H 	H 	0.51640 0.13070 0.88740 0.00200
C 	C 	0.35119 0.19886 0.77655 0.28100
C 	C 	0.31467 0.23458 0.77580 -0.36500
H 	H 	0.31880 0.26420 0.79330 0.16300
C 	C 	0.51430 0.46090 0.66330 0.10700
H 	H 	0.52540 0.43270 0.68010 0.00300
N 	N 	0.52510 0.41130 0.54670 -0.24000
C 	C 	0.52660 0.40750 0.59170 0.12800
H 	H 	0.53410 0.37770 0.60780 -0.01200
C 	C 	0.51480 0.45720 0.61570 -0.21500
O 	O 	0.48550 0.48520 0.54350 -0.35600
C 	C 	0.55930 0.36900 0.52590 -0.10400
H 	H 	0.54740 0.33630 0.53710 0.05800
H 	H 	0.59370 0.37370 0.53710 0.04900
N 	N 	0.60364 0.79418 0.80427 -0.21500
O 	O 	0.52127 0.57122 0.85009 -0.40900
O 	O 	0.52254 0.57046 0.77098 -0.41000
O 	O 	0.48696 0.93478 0.95057 -0.38400
O 	O 	0.56271 0.97266 0.95131 -0.37900
C 	C 	0.52863 0.59138 0.81053 0.38900
C 	C 	0.54678 0.64527 0.80934 -0.17500
C 	C 	0.55548 0.66896 0.76661 0.12300
H 	H 	0.54880 0.65180 0.73850 0.00400
C 	C 	0.57425 0.71848 0.76509 -0.22700
H 	H 	0.58070 0.73390 0.73610 0.11300
C 	C 	0.58312 0.74412 0.80582 0.19600
C 	C 	0.57312 0.72056 0.84887 -0.22900
H 	H 	0.57910 0.73790 0.87700 0.12200
C 	C 	0.55468 0.67223 0.85028 0.13300
H 	H 	0.54740 0.65740 0.87940 0.00700
C 	C 	0.53202 0.93966 0.93689 0.39000
C 	C 	0.55005 0.90297 0.90104 -0.17000
C 	C 	0.60046 0.90186 0.88729 0.12600
H 	H 	0.62260 0.92560 0.90010 0.01100
C 	C 	0.61901 0.86708 0.85541 -0.22000
H 	H 	0.65310 0.86710 0.84720 0.11600
C 	C 	0.58588 0.83179 0.83563 0.19400
C 	C 	0.53490 0.83371 0.84768 -0.22200
H 	H 	0.51220 0.81110 0.83390 0.11700
C 	C 	0.51783 0.86865 0.87977 0.13000
H 	H 	0.48360 0.86930 0.88740 0.00800
C 	C 	0.64881 0.80114 0.77655 0.28600
C 	C 	0.68533 0.76542 0.77580 -0.36900
H 	H 	0.68120 0.73580 0.79330 0.16600
C 	C 	0.48570 0.53910 0.66330 0.10700
H 	H 	0.47460 0.56730 0.68010 0.00300
N 	N 	0.47490 0.58870 0.54670 -0.24000
C 	C 	0.47340 0.59250 0.59170 0.12800
H 	H 	0.46590 0.62230 0.60780 -0.01100
C 	C 	0.48520 0.54280 0.61570 -0.21500
O 	O 	0.51450 0.51480 0.54350 -0.35600
C 	C 	0.44070 0.63100 0.52590 -0.10400
H 	H 	0.45260 0.66370 0.53710 0.06000
H 	H 	0.40630 0.62630 0.53710 0.05000
N 	N 	0.79418 0.39636 0.80427 -0.21500
O 	O 	0.57122 0.47873 0.85009 -0.40900
O 	O 	0.57046 0.47746 0.77098 -0.41000
O 	O 	0.93478 0.51304 0.95057 -0.38400
O 	O 	0.97266 0.43729 0.95131 -0.37900
C 	C 	0.59138 0.47137 0.81053 0.38900
C 	C 	0.64527 0.45322 0.80934 -0.17500
C 	C 	0.66896 0.44452 0.76661 0.12300
H 	H 	0.65180 0.45120 0.73850 0.00400
C 	C 	0.71848 0.42575 0.76509 -0.22700
H 	H 	0.73390 0.41930 0.73610 0.11300
C 	C 	0.74412 0.41688 0.80582 0.19600
C 	C 	0.72056 0.42688 0.84887 -0.22900
H 	H 	0.73790 0.42090 0.87700 0.12100
C 	C 	0.67223 0.44532 0.85028 0.13200
H 	H 	0.65740 0.45260 0.87940 0.00700
C 	C 	0.93966 0.46798 0.93689 0.38900
C 	C 	0.90297 0.44995 0.90104 -0.17000
C 	C 	0.90186 0.39954 0.88729 0.12600
H 	H 	0.92560 0.37740 0.90010 0.01100
C 	C 	0.86708 0.38099 0.85541 -0.22000
H 	H 	0.86710 0.34690 0.84720 0.11500
C 	C 	0.83179 0.41412 0.83563 0.19300
C 	C 	0.83371 0.46510 0.84768 -0.22200
H 	H 	0.81110 0.48780 0.83390 0.11700
C 	C 	0.86865 0.48217 0.87977 0.13000
H 	H 	0.86930 0.51640 0.88740 0.00800
C 	C 	0.80114 0.35119 0.77655 0.28500
C 	C 	0.76542 0.31467 0.77580 -0.36900
H 	H 	0.73580 0.31880 0.79330 0.16400
C 	C 	0.53910 0.51430 0.66330 0.10700
H 	H 	0.56730 0.52540 0.68010 0.00300
N 	N 	0.58870 0.52510 0.54670 -0.24000
C 	C 	0.59250 0.52660 0.59170 0.12800
H 	H 	0.62230 0.53410 0.60780 -0.01100
C 	C 	0.54280 0.51480 0.61570 -0.21500
O 	O 	0.51480 0.48550 0.54350 -0.35600
C 	C 	0.63100 0.55930 0.52590 -0.10400
H 	H 	0.66370 0.54740 0.53710 0.06000
H 	H 	0.62630 0.59370 0.53710 0.05000
N 	N 	0.20582 0.60364 0.80427 -0.21500
O 	O 	0.42878 0.52127 0.85009 -0.40900
O 	O 	0.42954 0.52254 0.77098 -0.41000
O 	O 	0.06522 0.48696 0.95057 -0.39800
O 	O 	0.02734 0.56271 0.95131 -0.40300
C 	C 	0.40862 0.52863 0.81053 0.38900
C 	C 	0.35473 0.54678 0.80934 -0.17500
C 	C 	0.33104 0.55548 0.76661 0.12300
H 	H 	0.34820 0.54880 0.73850 0.00400
C 	C 	0.28152 0.57425 0.76509 -0.22800
H 	H 	0.26610 0.58070 0.73610 0.11200
C 	C 	0.25588 0.58312 0.80582 0.19600
C 	C 	0.27944 0.57312 0.84887 -0.22900
H 	H 	0.26210 0.57910 0.87700 0.12100
C 	C 	0.32777 0.55468 0.85028 0.13200
H 	H 	0.34260 0.54740 0.87940 0.00600
C 	C 	0.06034 0.53202 0.93689 0.39300
C 	C 	0.09703 0.55005 0.90104 -0.18100
C 	C 	0.09814 0.60046 0.88729 0.13000
H 	H 	0.07440 0.62260 0.90010 0.00300
C 	C 	0.13292 0.61901 0.85541 -0.22700
H 	H 	0.13290 0.65310 0.84720 0.11500
C 	C 	0.16821 0.58588 0.83563 0.19500
C 	C 	0.16629 0.53490 0.84768 -0.22800
H 	H 	0.18890 0.51220 0.83390 0.11600
C 	C 	0.13135 0.51783 0.87977 0.13400
H 	H 	0.13070 0.48360 0.88740 0.00200
C 	C 	0.19886 0.64881 0.77655 0.28200
C 	C 	0.23458 0.68533 0.77580 -0.36500
H 	H 	0.26420 0.68120 0.79330 0.16400
C 	C 	0.46090 0.48570 0.66330 0.10800
H 	H 	0.43270 0.47460 0.68010 0.00300
N 	N 	0.41130 0.47490 0.54670 -0.24000
C 	C 	0.40750 0.47340 0.59170 0.12800
H 	H 	0.37770 0.46590 0.60780 -0.01200
C 	C 	0.45720 0.48520 0.61570 -0.21600
O 	O 	0.48520 0.51450 0.54350 -0.35600
C 	C 	0.36900 0.44070 0.52590 -0.10400
H 	H 	0.33630 0.45260 0.53710 0.05900
H 	H 	0.37370 0.40630 0.53710 0.04900
N 	N 	0.10364 0.70582 0.69573 -0.21000
O 	O 	0.02127 0.92878 0.64991 -0.41000
O 	O 	0.02254 0.92954 0.72902 -0.40600
O 	O 	0.98696 0.56522 0.54943 -0.38300
O 	O 	0.06271 0.52734 0.54869 -0.40700
C 	C 	0.02863 0.90862 0.68947 0.38800
C 	C 	0.04678 0.85473 0.69066 -0.17800
C 	C 	0.05548 0.83104 0.73339 0.12300
H 	H 	0.04880 0.84820 0.76150 0.00200
C 	C 	0.07425 0.78152 0.73491 -0.22800
H 	H 	0.08070 0.76610 0.76390 0.11300
C 	C 	0.08312 0.75588 0.69418 0.19300
C 	C 	0.07312 0.77944 0.65113 -0.23000
H 	H 	0.07910 0.76210 0.62300 0.11400
C 	C 	0.05468 0.82777 0.64972 0.13100
H 	H 	0.04740 0.84260 0.62060 -0.00100
C 	C 	0.03202 0.56034 0.56311 0.34100
C 	C 	0.05005 0.59703 0.59896 -0.13000
C 	C 	0.10046 0.59814 0.61271 0.08500
H 	H 	0.12260 0.57440 0.59990 0.01400
C 	C 	0.11901 0.63292 0.64459 -0.19200
H 	H 	0.15310 0.63290 0.65280 0.10000
C 	C 	0.08588 0.66821 0.66437 0.16000
C 	C 	0.03490 0.66629 0.65232 -0.16700
H 	H 	0.01220 0.68890 0.66610 0.08800
C 	C 	0.01783 0.63135 0.62023 0.03000
H 	H 	0.98360 0.63070 0.61260 0.05500
C 	C 	0.14881 0.69886 0.72345 0.28100
C 	C 	0.18533 0.73458 0.72420 -0.36400
H 	H 	0.18120 0.76420 0.70670 0.16300
C 	C 	0.98570 0.96090 0.83670 0.13200
H 	H 	0.97460 0.93270 0.81990 0.00500
N 	N 	0.97490 0.91130 0.95330 -0.22800
C 	C 	0.97340 0.90750 0.90830 0.11300
H 	H 	0.96590 0.87770 0.89220 0.00200
C 	C 	0.98520 0.95720 0.88430 -0.15500
O 	O 	0.01450 0.98520 0.95650 -0.35200
C 	C 	0.94070 0.86900 0.97410 -0.00900
H 	H 	0.95260 0.83630 0.96290 0.05000
H 	H 	0.90630 0.87370 0.96290 0.03900
N 	N 	0.89636 0.29418 0.69573 -0.22200
O 	O 	0.97873 0.07122 0.64991 -0.40700
O 	O 	0.97746 0.07046 0.72902 -0.40000
O 	O 	0.01304 0.43478 0.54943 -0.45000
O 	O 	0.93729 0.47266 0.54869 -0.42600
C 	C 	0.97137 0.09138 0.68947 0.38700
C 	C 	0.95322 0.14527 0.69066 -0.17500
C 	C 	0.94452 0.16896 0.73339 0.12300
H 	H 	0.95120 0.15180 0.76150 0.00800
C 	C 	0.92575 0.21848 0.73491 -0.22700
H 	H 	0.91930 0.23390 0.76390 0.11700
C 	C 	0.91688 0.24412 0.69418 0.19700
C 	C 	0.92688 0.22056 0.65113 -0.23100
H 	H 	0.92090 0.23790 0.62300 0.11600
C 	C 	0.94532 0.17223 0.64972 0.13200
H 	H 	0.95260 0.15740 0.62060 0.00100
C 	C 	0.96798 0.43966 0.56311 0.45400
C 	C 	0.94995 0.40297 0.59896 -0.24700
C 	C 	0.89954 0.40186 0.61271 0.18100
H 	H 	0.87740 0.42560 0.59990 -0.01700
C 	C 	0.88099 0.36708 0.64459 -0.27100
H 	H 	0.84690 0.36710 0.65280 0.12800
C 	C 	0.91412 0.33179 0.66437 0.23300
C 	C 	0.96510 0.33371 0.65232 -0.29900
H 	H 	0.98780 0.31110 0.66610 0.14700
C 	C 	0.98217 0.36865 0.62023 0.24700
H 	H 	0.01640 0.36930 0.61260 -0.05900
C 	C 	0.85119 0.30114 0.72345 0.28600
C 	C 	0.81467 0.26542 0.72420 -0.37000
H 	H 	0.81880 0.23580 0.70670 0.16100
C 	C 	0.01430 0.03910 0.83670 0.06600
H 	H 	0.02540 0.06730 0.81990 0.01000
N 	N 	0.02510 0.08870 0.95330 -0.23400
C 	C 	0.02660 0.09250 0.90830 0.10900
H 	H 	0.03410 0.12230 0.89220 -0.00800
C 	C 	0.01480 0.04280 0.88430 -0.18400
O 	O 	0.98550 0.01480 0.95650 -0.33300
C 	C 	0.05930 0.13100 0.97410 -0.00900
H 	H 	0.04740 0.16370 0.96290 0.04000
H 	H 	0.09370 0.12630 0.96290 0.03200
N 	N 	0.70582 0.89636 0.69573 -0.22100
O 	O 	0.92878 0.97873 0.64991 -0.39100
O 	O 	0.92954 0.97746 0.72902 -0.38700
O 	O 	0.56522 0.01304 0.54943 -0.45000
O 	O 	0.52734 0.93729 0.54869 -0.42600
C 	C 	0.90862 0.97137 0.68947 0.38600
C 	C 	0.85473 0.95322 0.69066 -0.16900
C 	C 	0.83104 0.94452 0.73339 0.12200
H 	H 	0.84820 0.95120 0.76150 0.01000
C 	C 	0.78152 0.92575 0.73491 -0.22400
H 	H 	0.76610 0.91930 0.76390 0.11600
C 	C 	0.75588 0.91688 0.69418 0.19600
C 	C 	0.77944 0.92688 0.65113 -0.22700
H 	H 	0.76210 0.92090 0.62300 0.11700
C 	C 	0.82777 0.94532 0.64972 0.13000
H 	H 	0.84260 0.95260 0.62060 0.00600
C 	C 	0.56034 0.96798 0.56311 0.45300
C 	C 	0.59703 0.94995 0.59896 -0.24500
C 	C 	0.59814 0.89954 0.61271 0.18000
H 	H 	0.57440 0.87740 0.59990 -0.01600
C 	C 	0.63292 0.88099 0.64459 -0.27000
H 	H 	0.63290 0.84690 0.65280 0.12800
C 	C 	0.66821 0.91412 0.66437 0.23300
C 	C 	0.66629 0.96510 0.65232 -0.29800
H 	H 	0.68890 0.98780 0.66610 0.14600
C 	C 	0.63135 0.98217 0.62023 0.24500
H 	H 	0.63070 0.01640 0.61260 -0.05800
C 	C 	0.69886 0.85119 0.72345 0.28600
C 	C 	0.73458 0.81467 0.72420 -0.37000
H 	H 	0.76420 0.81880 0.70670 0.16500
C 	C 	0.96090 0.01430 0.83670 0.10800
H 	H 	0.93270 0.02540 0.81990 0.00100
N 	N 	0.91130 0.02510 0.95330 -0.23500
C 	C 	0.90750 0.02660 0.90830 0.11000
H 	H 	0.87770 0.03410 0.89220 -0.00700
C 	C 	0.95720 0.01480 0.88430 -0.17400
O 	O 	0.98520 0.98550 0.95650 -0.26400
C 	C 	0.86900 0.05930 0.97410 -0.00800
H 	H 	0.83630 0.04740 0.96290 0.04100
H 	H 	0.87370 0.09370 0.96290 0.03800
N 	N 	0.29418 0.10364 0.69573 -0.21000
O 	O 	0.07122 0.02127 0.64991 -0.42800
O 	O 	0.07046 0.02254 0.72902 -0.42200
O 	O 	0.43478 0.98696 0.54943 -0.38300
O 	O 	0.47266 0.06271 0.54869 -0.40700
C 	C 	0.09138 0.02863 0.68947 0.39000
C 	C 	0.14527 0.04678 0.69066 -0.18600
C 	C 	0.16896 0.05548 0.73339 0.12500
H 	H 	0.15180 0.04880 0.76150 -0.00100
C 	C 	0.21848 0.07425 0.73491 -0.23200
H 	H 	0.23390 0.08070 0.76390 0.11300
C 	C 	0.24412 0.08312 0.69418 0.19500
C 	C 	0.22056 0.07312 0.65113 -0.23400
H 	H 	0.23790 0.07910 0.62300 0.11300
C 	C 	0.17223 0.05468 0.64972 0.13300
H 	H 	0.15740 0.04740 0.62060 -0.00700
C 	C 	0.43966 0.03202 0.56311 0.34000
C 	C 	0.40297 0.05005 0.59896 -0.12900
C 	C 	0.40186 0.10046 0.61271 0.08400
H 	H 	0.42560 0.12260 0.59990 0.01400
C 	C 	0.36708 0.11901 0.64459 -0.19100
H 	H 	0.36710 0.15310 0.65280 0.09900
C 	C 	0.33179 0.08588 0.66437 0.15900
C 	C 	0.33371 0.03490 0.65232 -0.16500
H 	H 	0.31110 0.01220 0.66610 0.08700
C 	C 	0.36865 0.01783 0.62023 0.02700
H 	H 	0.36930 0.98360 0.61260 0.05600
C 	C 	0.30114 0.14881 0.72345 0.28000
C 	C 	0.26542 0.18533 0.72420 -0.36400
H 	H 	0.23580 0.18120 0.70670 0.15900
C 	C 	0.03910 0.98570 0.83670 0.10400
H 	H 	0.06730 0.97460 0.81990 0.01000
N 	N 	0.08870 0.97490 0.95330 -0.22500
C 	C 	0.09250 0.97340 0.90830 0.11300
H 	H 	0.12230 0.96590 0.89220 0.00000
C 	C 	0.04280 0.98520 0.88430 -0.16500
O 	O 	0.01480 0.01450 0.95650 -0.37800
C 	C 	0.13100 0.94070 0.97410 -0.00900
H 	H 	0.16370 0.95260 0.96290 0.05000
H 	H 	0.12630 0.90630 0.96290 0.03400
Cu	Cu	0.50000 0.50000 0.14300 0.90000
Cu	Cu	0.50000 0.50000 0.23664 0.91900
N 	N 	0.50000 0.50000 0.31181 -0.25600
C 	C 	0.50000 0.50000 0.40950 0.65600
Cu	Cu	0.00000 0.00000 0.35700 0.88000
Cu	Cu	0.00000 0.00000 0.26336 0.89800
N 	N 	0.00000 0.00000 0.18819 -0.28400
C 	C 	-0.00000 -0.00000 0.09050 0.53100
Cu	Cu	0.50000 0.50000 0.85700 0.90600
Cu	Cu	0.50000 0.50000 0.76336 0.91900
N 	N 	0.50000 0.50000 0.68819 -0.25600
C 	C 	0.50000 0.50000 0.59050 0.65500
Cu	Cu	-0.00000 0.00000 0.64300 0.88000
Cu	Cu	0.00000 0.00000 0.73664 0.89800
N 	N 	-0.00000 -0.00000 0.81181 -0.28200
C 	C 	0.00000 0.00000 0.90950 0.51000
Cu	Cu	0.45556 0.97742 -0.00000 0.89000
Cu	Cu	0.54444 0.02258 -0.00000 0.86700
Cu	Cu	0.02258 0.45556 -0.00000 0.86700
Cu	Cu	0.97742 0.54444 -0.00000 0.89000
Cu	Cu	0.04444 0.47742 0.50000 0.89800
Cu	Cu	0.95556 0.52258 0.50000 0.90600
Cu	Cu	0.47742 0.95556 0.50000 0.90600
Cu	Cu	0.52258 0.04444 0.50000 0.89800
C 	C 	0.72789 0.77211 0.25000 0.29300
H 	H 	0.75280 0.74720 0.25000 -0.07300
C 	C 	0.65540 0.84460 0.25000 -0.34800
H 	H 	0.63050 0.86950 0.25000 0.15900
C 	C 	0.27211 0.22789 0.25000 0.28700
H 	H 	0.24720 0.25280 0.25000 -0.07500
C 	C 	0.34460 0.15540 0.25000 -0.34300
H 	H 	0.36950 0.13050 0.25000 0.15400
C 	C 	0.22789 0.72789 0.25000 0.28800
H 	H 	0.25280 0.75280 0.25000 -0.07200
C 	C 	0.15540 0.65540 0.25000 -0.34400
H 	H 	0.13050 0.63050 0.25000 0.15400
C 	C 	0.77211 0.27211 0.25000 0.29200
H 	H 	0.74720 0.24720 0.25000 -0.07700
C 	C 	0.84460 0.34460 0.25000 -0.34800
H 	H 	0.86950 0.36950 0.25000 0.15900
C 	C 	0.27211 0.22789 0.75000 0.29000
H 	H 	0.24720 0.25280 0.75000 -0.07300
C 	C 	0.34460 0.15540 0.75000 -0.34400
H 	H 	0.36950 0.13050 0.75000 0.15500
C 	C 	0.72789 0.77211 0.75000 0.29700
H 	H 	0.75280 0.74720 0.75000 -0.07100
C 	C 	0.65540 0.84460 0.75000 -0.34900
H 	H 	0.63050 0.86950 0.75000 0.16000
C 	C 	0.77211 0.27211 0.75000 0.29600
H 	H 	0.74720 0.24720 0.75000 -0.07400
C 	C 	0.84460 0.34460 0.75000 -0.34900
H 	H 	0.86950 0.36950 0.75000 0.16000
C 	C 	0.22789 0.72789 0.75000 0.29200
H 	H 	0.25280 0.75280 0.75000 -0.06900
C 	C 	0.15540 0.65540 0.75000 -0.34400
H 	H 	0.13050 0.63050 0.75000 0.15500
Ni	Ni	0.48200 0.53630 0.50000 0.96700
Ni	Ni	0.51800 0.46370 0.50000 0.96700
Ni	Ni	0.46370 0.48200 0.50000 0.96700
Ni	Ni	0.53630 0.51800 0.50000 0.96700
Ni	Ni	0.01800 0.03630 -0.00000 0.94100
Ni	Ni	0.98200 0.96370 -0.00000 0.94100
Ni	Ni	0.03630 0.98200 -0.00000 0.95100
Ni	Ni	0.96370 0.01800 -0.00000 0.93800
