data_crystal

_cell_length_a 26.34000
_cell_length_b 26.34000
_cell_length_c 28.37000
_cell_angle_alpha 90.00000
_cell_angle_beta  90.00000
_cell_angle_gamma 90.00000

_symmetry_space_group_name_	'P 1'
_symmetry_space_group_name_H-M	'P 1'

loop_
_symmetry_equiv_pos_as_xyz
  x,y,z

loop_
_atom_site_label
_atom_site_type_symbol
_atom_site_fract_x
_atom_site_fract_y
_atom_site_fract_z
_atom_site_charge
N 	N 	0.60294 0.79529 0.19585 -0.21200
O 	O 	0.52152 0.57135 0.14947 -0.42000
O 	O 	0.52233 0.57039 0.22843 -0.40900
O 	O 	0.48609 0.93455 0.04862 -0.41900
O 	O 	0.56303 0.97282 0.04868 -0.40700
C 	C 	0.52840 0.59143 0.18873 0.38400
C 	C 	0.54650 0.64551 0.19034 -0.17000
C 	C 	0.55543 0.66893 0.23277 0.11200
H 	H 	0.54920 0.65150 0.26070 0.00600
C 	C 	0.57375 0.71855 0.23446 -0.21400
H 	H 	0.57980 0.73400 0.26340 0.10700
C 	C 	0.58293 0.74470 0.19315 0.18200
C 	C 	0.57363 0.72100 0.15067 -0.22400
H 	H 	0.57990 0.73830 0.12270 0.10700
C 	C 	0.55544 0.67257 0.14893 0.11900
H 	H 	0.54900 0.65750 0.11990 -0.00200
C 	C 	0.53120 0.93967 0.06229 0.37100
C 	C 	0.54997 0.90358 0.09963 -0.16300
C 	C 	0.59960 0.90317 0.11266 0.10700
H 	H 	0.62140 0.92730 0.10000 0.00700
C 	C 	0.61897 0.86715 0.14481 -0.21100
H 	H 	0.65330 0.86680 0.15250 0.10600
C 	C 	0.58552 0.83199 0.16478 0.19000
C 	C 	0.53515 0.83391 0.15240 -0.22000
H 	H 	0.51260 0.81080 0.16570 0.11200
C 	C 	0.51715 0.86922 0.12069 0.11500
H 	H 	0.48270 0.87000 0.11340 0.00400
C 	C 	0.64854 0.80192 0.22307 0.26500
C 	C 	0.68470 0.76540 0.22320 -0.33700
H 	H 	0.68070 0.73590 0.20560 0.15100
C 	C 	0.48320 0.53730 0.33640 0.09300
H 	H 	0.47070 0.56510 0.31990 0.00900
N 	N 	0.46490 0.57940 0.45330 -0.18400
C 	C 	0.46270 0.58760 0.40670 0.10200
H 	H 	0.45140 0.61710 0.39210 -0.00200
C 	C 	0.48130 0.54120 0.38240 -0.17800
O 	O 	0.51700 0.48600 0.45560 -0.30400
C 	C 	0.42030 0.60670 0.47440 -0.09900
H 	H 	0.41970 0.64160 0.46340 0.05900
H 	H 	0.38950 0.59030 0.46340 0.05100
N 	N 	0.39706 0.20471 0.19585 -0.21200
O 	O 	0.47848 0.42865 0.14947 -0.42000
O 	O 	0.47767 0.42961 0.22843 -0.40900
O 	O 	0.51391 0.06545 0.04862 -0.43200
O 	O 	0.43697 0.02718 0.04868 -0.43000
C 	C 	0.47160 0.40857 0.18873 0.38400
C 	C 	0.45350 0.35449 0.19034 -0.16900
C 	C 	0.44457 0.33107 0.23277 0.11200
H 	H 	0.45080 0.34850 0.26070 0.00700
C 	C 	0.42625 0.28145 0.23446 -0.21300
H 	H 	0.42020 0.26600 0.26340 0.10700
C 	C 	0.41707 0.25530 0.19315 0.18200
C 	C 	0.42637 0.27900 0.15067 -0.22400
H 	H 	0.42010 0.26170 0.12270 0.10600
C 	C 	0.44456 0.32743 0.14893 0.11900
H 	H 	0.45100 0.34250 0.11990 -0.00300
C 	C 	0.46880 0.06033 0.06229 0.37300
C 	C 	0.45003 0.09642 0.09963 -0.17300
C 	C 	0.40040 0.09683 0.11266 0.11100
H 	H 	0.37860 0.07270 0.10000 -0.00100
C 	C 	0.38103 0.13285 0.14481 -0.21700
H 	H 	0.34670 0.13320 0.15250 0.10400
C 	C 	0.41448 0.16801 0.16478 0.19100
C 	C 	0.46485 0.16609 0.15240 -0.22600
H 	H 	0.48740 0.18920 0.16570 0.11100
C 	C 	0.48285 0.13078 0.12069 0.11800
H 	H 	0.51730 0.13000 0.11340 -0.00200
C 	C 	0.35146 0.19808 0.22307 0.26100
C 	C 	0.31530 0.23460 0.22320 -0.33400
H 	H 	0.31930 0.26410 0.20560 0.14900
C 	C 	0.51680 0.46270 0.33640 0.09300
H 	H 	0.52930 0.43490 0.31990 0.00800
N 	N 	0.53510 0.42060 0.45330 -0.18500
C 	C 	0.53730 0.41240 0.40670 0.10200
H 	H 	0.54860 0.38290 0.39210 -0.00300
C 	C 	0.51870 0.45880 0.38240 -0.17800
O 	O 	0.48300 0.51400 0.45560 -0.30400
C 	C 	0.57970 0.39330 0.47440 -0.09900
H 	H 	0.58030 0.35840 0.46340 0.05800
H 	H 	0.61050 0.40970 0.46340 0.05100
N 	N 	0.20471 0.60294 0.19585 -0.21200
O 	O 	0.42865 0.52152 0.14947 -0.41900
O 	O 	0.42961 0.52233 0.22843 -0.40800
O 	O 	0.06545 0.48609 0.04862 -0.43200
O 	O 	0.02718 0.56303 0.04868 -0.42900
C 	C 	0.40857 0.52840 0.18873 0.38500
C 	C 	0.35449 0.54650 0.19034 -0.16900
C 	C 	0.33107 0.55543 0.23277 0.11300
H 	H 	0.34850 0.54920 0.26070 0.00700
C 	C 	0.28145 0.57375 0.23446 -0.21300
H 	H 	0.26600 0.57980 0.26340 0.10800
C 	C 	0.25530 0.58293 0.19315 0.18200
C 	C 	0.27900 0.57363 0.15067 -0.22400
H 	H 	0.26170 0.57990 0.12270 0.10700
C 	C 	0.32743 0.55544 0.14893 0.11900
H 	H 	0.34250 0.54900 0.11990 -0.00300
C 	C 	0.06033 0.53120 0.06229 0.37300
C 	C 	0.09642 0.54997 0.09963 -0.17300
C 	C 	0.09683 0.59960 0.11266 0.11100
H 	H 	0.07270 0.62140 0.10000 -0.00100
C 	C 	0.13285 0.61897 0.14481 -0.21700
H 	H 	0.13320 0.65330 0.15250 0.10500
C 	C 	0.16801 0.58552 0.16478 0.19100
C 	C 	0.16609 0.53515 0.15240 -0.22600
H 	H 	0.18920 0.51260 0.16570 0.11100
C 	C 	0.13078 0.51715 0.12069 0.11800
H 	H 	0.13000 0.48270 0.11340 -0.00200
C 	C 	0.19808 0.64854 0.22307 0.26200
C 	C 	0.23460 0.68470 0.22320 -0.33300
H 	H 	0.26410 0.68070 0.20560 0.15000
C 	C 	0.46270 0.48320 0.33640 0.09300
H 	H 	0.43490 0.47070 0.31990 0.00800
N 	N 	0.42060 0.46490 0.45330 -0.18500
C 	C 	0.41240 0.46270 0.40670 0.10200
H 	H 	0.38290 0.45140 0.39210 -0.00300
C 	C 	0.45880 0.48130 0.38240 -0.17800
O 	O 	0.51400 0.51700 0.45560 -0.30400
C 	C 	0.39330 0.42030 0.47440 -0.09800
H 	H 	0.35840 0.41970 0.46340 0.05800
H 	H 	0.40970 0.38950 0.46340 0.05100
N 	N 	0.79529 0.39706 0.19585 -0.21100
O 	O 	0.57135 0.47848 0.14947 -0.41900
O 	O 	0.57039 0.47767 0.22843 -0.40800
O 	O 	0.93455 0.51391 0.04862 -0.41800
O 	O 	0.97282 0.43697 0.04868 -0.40600
C 	C 	0.59143 0.47160 0.18873 0.38500
C 	C 	0.64551 0.45350 0.19034 -0.16900
C 	C 	0.66893 0.44457 0.23277 0.11300
H 	H 	0.65150 0.45080 0.26070 0.00700
C 	C 	0.71855 0.42625 0.23446 -0.21300
H 	H 	0.73400 0.42020 0.26340 0.10800
C 	C 	0.74470 0.41707 0.19315 0.18300
C 	C 	0.72100 0.42637 0.15067 -0.22400
H 	H 	0.73830 0.42010 0.12270 0.10700
C 	C 	0.67257 0.44456 0.14893 0.11900
H 	H 	0.65750 0.45100 0.11990 -0.00200
C 	C 	0.93967 0.46880 0.06229 0.37100
C 	C 	0.90358 0.45003 0.09963 -0.16300
C 	C 	0.90317 0.40040 0.11266 0.10700
H 	H 	0.92730 0.37860 0.10000 0.00700
C 	C 	0.86715 0.38103 0.14481 -0.21100
H 	H 	0.86680 0.34670 0.15250 0.10500
C 	C 	0.83199 0.41448 0.16478 0.19000
C 	C 	0.83391 0.46485 0.15240 -0.22000
H 	H 	0.81080 0.48740 0.16570 0.11200
C 	C 	0.86922 0.48285 0.12069 0.11500
H 	H 	0.87000 0.51730 0.11340 0.00400
C 	C 	0.80192 0.35146 0.22307 0.26500
C 	C 	0.76540 0.31530 0.22320 -0.33700
H 	H 	0.73590 0.31930 0.20560 0.15000
C 	C 	0.53730 0.51680 0.33640 0.09300
H 	H 	0.56510 0.52930 0.31990 0.00900
N 	N 	0.57940 0.53510 0.45330 -0.18400
C 	C 	0.58760 0.53730 0.40670 0.10200
H 	H 	0.61710 0.54860 0.39210 -0.00200
C 	C 	0.54120 0.51870 0.38240 -0.17800
O 	O 	0.48600 0.48300 0.45560 -0.30400
C 	C 	0.60670 0.57970 0.47440 -0.09900
H 	H 	0.64160 0.58030 0.46340 0.06000
H 	H 	0.59030 0.61050 0.46340 0.05200
N 	N 	0.89706 0.29529 0.30415 -0.21700
O 	O 	0.97848 0.07135 0.35053 -0.40700
O 	O 	0.97767 0.07039 0.27157 -0.39800
O 	O 	0.01391 0.43455 0.45138 -0.44600
O 	O 	0.93697 0.47282 0.45132 -0.41500
C 	C 	0.97160 0.09143 0.31127 0.38100
C 	C 	0.95350 0.14551 0.30966 -0.16300
C 	C 	0.94457 0.16893 0.26723 0.11100
H 	H 	0.95080 0.15150 0.23930 0.01000
C 	C 	0.92625 0.21855 0.26554 -0.21100
H 	H 	0.92020 0.23400 0.23660 0.10800
C 	C 	0.91707 0.24470 0.30685 0.18400
C 	C 	0.92637 0.22100 0.34933 -0.22100
H 	H 	0.92010 0.23830 0.37730 0.11300
C 	C 	0.94456 0.17257 0.35107 0.11900
H 	H 	0.95100 0.15750 0.38010 0.00500
C 	C 	0.96880 0.43967 0.43771 0.42400
C 	C 	0.95003 0.40358 0.40037 -0.21500
C 	C 	0.90040 0.40317 0.38734 0.15100
H 	H 	0.87860 0.42730 0.40000 -0.00500
C 	C 	0.88103 0.36715 0.35519 -0.24500
H 	H 	0.84670 0.36680 0.34750 0.11900
C 	C 	0.91448 0.33199 0.33522 0.22400
C 	C 	0.96485 0.33391 0.34760 -0.28100
H 	H 	0.98740 0.31080 0.33430 0.14000
C 	C 	0.98285 0.36922 0.37931 0.21700
H 	H 	0.01730 0.37000 0.38660 -0.04900
C 	C 	0.85146 0.30192 0.27693 0.26600
C 	C 	0.81530 0.26540 0.27680 -0.33800
H 	H 	0.81930 0.23590 0.29440 0.15100
C 	C 	0.01680 0.03730 0.16360 0.05200
H 	H 	0.02930 0.06510 0.18010 0.01400
N 	N 	0.03510 0.07940 0.04670 -0.18200
C 	C 	0.03730 0.08760 0.09330 0.08100
H 	H 	0.04860 0.11710 0.10790 -0.00400
C 	C 	0.01870 0.04120 0.11760 -0.15300
O 	O 	0.98300 0.98600 0.04440 -0.22600
C 	C 	0.07970 0.10670 0.02560 -0.18400
H 	H 	0.08030 0.14160 0.03660 0.06800
H 	H 	0.11050 0.09030 0.03660 0.06200
N 	N 	0.10294 0.70471 0.30415 -0.20500
O 	O 	0.02152 0.92865 0.35053 -0.40900
O 	O 	0.02233 0.92961 0.27157 -0.40400
O 	O 	0.98609 0.56545 0.45138 -0.38200
O 	O 	0.06303 0.52718 0.45132 -0.39800
C 	C 	0.02840 0.90857 0.31127 0.38100
C 	C 	0.04650 0.85449 0.30966 -0.16600
C 	C 	0.05543 0.83107 0.26723 0.11000
H 	H 	0.04920 0.84850 0.23930 0.00400
C 	C 	0.07375 0.78145 0.26554 -0.21200
H 	H 	0.07980 0.76600 0.23660 0.10400
C 	C 	0.08293 0.75530 0.30685 0.18100
C 	C 	0.07363 0.77900 0.34933 -0.22000
H 	H 	0.07990 0.76170 0.37730 0.11100
C 	C 	0.05544 0.82743 0.35107 0.11700
H 	H 	0.04900 0.84250 0.38010 0.00400
C 	C 	0.03120 0.56033 0.43771 0.32100
C 	C 	0.04997 0.59642 0.40037 -0.10800
C 	C 	0.09960 0.59683 0.38734 0.06500
H 	H 	0.12140 0.57270 0.40000 0.02200
C 	C 	0.11897 0.63285 0.35519 -0.17500
H 	H 	0.15330 0.63320 0.34750 0.09500
C 	C 	0.08552 0.66801 0.33522 0.15700
C 	C 	0.03515 0.66609 0.34760 -0.15900
H 	H 	0.01260 0.68920 0.33430 0.08500
C 	C 	0.01715 0.63078 0.37931 0.01500
H 	H 	0.98270 0.63000 0.38660 0.05900
C 	C 	0.14854 0.69808 0.27693 0.26100
C 	C 	0.18470 0.73460 0.27680 -0.33300
H 	H 	0.18070 0.76410 0.29440 0.15200
C 	C 	0.98320 0.96270 0.16360 0.11800
H 	H 	0.97070 0.93490 0.18010 0.00800
N 	N 	0.96490 0.92060 0.04670 -0.17700
C 	C 	0.96270 0.91240 0.09330 0.08700
H 	H 	0.95140 0.88290 0.10790 0.00400
C 	C 	0.98130 0.95880 0.11760 -0.12700
O 	O 	0.01700 0.01400 0.04440 -0.32400
C 	C 	0.92030 0.89330 0.02560 -0.18400
H 	H 	0.91970 0.85840 0.03660 0.07600
H 	H 	0.88950 0.90970 0.03660 0.06900
N 	N 	0.29529 0.10294 0.30415 -0.20500
O 	O 	0.07135 0.02152 0.35053 -0.42700
O 	O 	0.07039 0.02233 0.27157 -0.41900
O 	O 	0.43455 0.98609 0.45138 -0.38100
O 	O 	0.47282 0.06303 0.45132 -0.39800
C 	C 	0.09143 0.02840 0.31127 0.38300
C 	C 	0.14551 0.04650 0.30966 -0.17300
C 	C 	0.16893 0.05543 0.26723 0.11200
H 	H 	0.15150 0.04920 0.23930 0.00100
C 	C 	0.21855 0.07375 0.26554 -0.21500
H 	H 	0.23400 0.07980 0.23660 0.10400
C 	C 	0.24470 0.08293 0.30685 0.18200
C 	C 	0.22100 0.07363 0.34933 -0.22400
H 	H 	0.23830 0.07990 0.37730 0.11000
C 	C 	0.17257 0.05544 0.35107 0.11900
H 	H 	0.15750 0.04900 0.38010 -0.00200
C 	C 	0.43967 0.03120 0.43771 0.32000
C 	C 	0.40358 0.04997 0.40037 -0.10700
C 	C 	0.40317 0.09960 0.38734 0.06300
H 	H 	0.42730 0.12140 0.40000 0.02300
C 	C 	0.36715 0.11897 0.35519 -0.17500
H 	H 	0.36680 0.15330 0.34750 0.09400
C 	C 	0.33199 0.08552 0.33522 0.15500
C 	C 	0.33391 0.03515 0.34760 -0.15700
H 	H 	0.31080 0.01260 0.33430 0.08400
C 	C 	0.36922 0.01715 0.37931 0.01200
H 	H 	0.37000 0.98270 0.38660 0.06000
C 	C 	0.30192 0.14854 0.27693 0.26100
C 	C 	0.26540 0.18470 0.27680 -0.33300
H 	H 	0.23590 0.18070 0.29440 0.14900
C 	C 	0.03730 0.98320 0.16360 0.09400
H 	H 	0.06510 0.97070 0.18010 0.01300
N 	N 	0.07940 0.96490 0.04670 -0.17300
C 	C 	0.08760 0.96270 0.09330 0.08700
H 	H 	0.11710 0.95140 0.10790 0.00300
C 	C 	0.04120 0.98130 0.11760 -0.13700
O 	O 	0.98600 0.01700 0.04440 -0.30500
C 	C 	0.10670 0.92030 0.02560 -0.18400
H 	H 	0.14160 0.91970 0.03660 0.07500
H 	H 	0.09030 0.88950 0.03660 0.06200
N 	N 	0.70471 0.89706 0.30415 -0.21600
O 	O 	0.92865 0.97848 0.35053 -0.39100
O 	O 	0.92961 0.97767 0.27157 -0.38600
O 	O 	0.56545 0.01391 0.45138 -0.44500
O 	O 	0.52718 0.93697 0.45132 -0.41500
C 	C 	0.90857 0.97160 0.31127 0.37900
C 	C 	0.85449 0.95350 0.30966 -0.15800
C 	C 	0.83107 0.94457 0.26723 0.10900
H 	H 	0.84850 0.95080 0.23930 0.01200
C 	C 	0.78145 0.92625 0.26554 -0.20800
H 	H 	0.76600 0.92020 0.23660 0.10800
C 	C 	0.75530 0.91707 0.30685 0.18300
C 	C 	0.77900 0.92637 0.34933 -0.21800
H 	H 	0.76170 0.92010 0.37730 0.11300
C 	C 	0.82743 0.94456 0.35107 0.11700
H 	H 	0.84250 0.95100 0.38010 0.01000
C 	C 	0.56033 0.96880 0.43771 0.42300
C 	C 	0.59642 0.95003 0.40037 -0.21300
C 	C 	0.59683 0.90040 0.38734 0.15100
H 	H 	0.57270 0.87860 0.40000 -0.00500
C 	C 	0.63285 0.88103 0.35519 -0.24400
H 	H 	0.63320 0.84670 0.34750 0.11900
C 	C 	0.66801 0.91448 0.33522 0.22400
C 	C 	0.66609 0.96485 0.34760 -0.27900
H 	H 	0.68920 0.98740 0.33430 0.13900
C 	C 	0.63078 0.98285 0.37931 0.21500
H 	H 	0.63000 0.01730 0.38660 -0.04700
C 	C 	0.69808 0.85146 0.27693 0.26700
C 	C 	0.73460 0.81530 0.27680 -0.33700
H 	H 	0.76410 0.81930 0.29440 0.15400
C 	C 	0.96270 0.01680 0.16360 0.09700
H 	H 	0.93490 0.02930 0.18010 0.00300
N 	N 	0.92060 0.03510 0.04670 -0.18300
C 	C 	0.91240 0.03730 0.09330 0.08400
H 	H 	0.88290 0.04860 0.10790 -0.00300
C 	C 	0.95880 0.01870 0.11760 -0.14500
O 	O 	0.01400 0.98300 0.04440 -0.32100
C 	C 	0.89330 0.07970 0.02560 -0.18400
H 	H 	0.85840 0.08030 0.03660 0.06900
H 	H 	0.90970 0.11050 0.03660 0.07000
N 	N 	0.39706 0.20471 0.80415 -0.21100
O 	O 	0.47848 0.42865 0.85053 -0.40900
O 	O 	0.47767 0.42961 0.77157 -0.40700
O 	O 	0.51391 0.06545 0.95138 -0.39800
O 	O 	0.43697 0.02718 0.95132 -0.39600
C 	C 	0.47160 0.40857 0.81127 0.38300
C 	C 	0.45350 0.35449 0.80966 -0.16400
C 	C 	0.44457 0.33107 0.76723 0.11100
H 	H 	0.45080 0.34850 0.73930 0.00800
C 	C 	0.42625 0.28145 0.76554 -0.21100
H 	H 	0.42020 0.26600 0.73660 0.10700
C 	C 	0.41707 0.25530 0.80685 0.18400
C 	C 	0.42637 0.27900 0.84933 -0.22000
H 	H 	0.42010 0.26170 0.87730 0.11700
C 	C 	0.44456 0.32743 0.85107 0.11900
H 	H 	0.45100 0.34250 0.88010 0.01000
C 	C 	0.46880 0.06033 0.93771 0.37000
C 	C 	0.45003 0.09642 0.90037 -0.15600
C 	C 	0.40040 0.09683 0.88734 0.10600
H 	H 	0.37860 0.07270 0.90000 0.01100
C 	C 	0.38103 0.13285 0.85519 -0.20700
H 	H 	0.34670 0.13320 0.84750 0.10700
C 	C 	0.41448 0.16801 0.83522 0.18900
C 	C 	0.46485 0.16609 0.84760 -0.21700
H 	H 	0.48740 0.18920 0.83430 0.11200
C 	C 	0.48285 0.13078 0.87931 0.11300
H 	H 	0.51730 0.13000 0.88660 0.00800
C 	C 	0.35146 0.19808 0.77693 0.26300
C 	C 	0.31530 0.23460 0.77680 -0.33400
H 	H 	0.31930 0.26410 0.79440 0.15300
C 	C 	0.51680 0.46270 0.66360 0.09300
H 	H 	0.52930 0.43490 0.68010 0.00900
N 	N 	0.53510 0.42060 0.54670 -0.18400
C 	C 	0.53730 0.41240 0.59330 0.10200
H 	H 	0.54860 0.38290 0.60790 -0.00300
C 	C 	0.51870 0.45880 0.61760 -0.17800
O 	O 	0.48300 0.51400 0.54440 -0.30400
C 	C 	0.57970 0.39330 0.52560 -0.09900
H 	H 	0.58030 0.35840 0.53660 0.05800
H 	H 	0.61050 0.40970 0.53660 0.05100
N 	N 	0.60294 0.79529 0.80415 -0.21000
O 	O 	0.52152 0.57135 0.85053 -0.40900
O 	O 	0.52233 0.57039 0.77157 -0.40700
O 	O 	0.48609 0.93455 0.95138 -0.38400
O 	O 	0.56303 0.97282 0.95132 -0.37300
C 	C 	0.52840 0.59143 0.81127 0.38300
C 	C 	0.54650 0.64551 0.80966 -0.16400
C 	C 	0.55543 0.66893 0.76723 0.11200
H 	H 	0.54920 0.65150 0.73930 0.00800
C 	C 	0.57375 0.71855 0.76554 -0.21100
H 	H 	0.57980 0.73400 0.73660 0.10800
C 	C 	0.58293 0.74470 0.80685 0.18400
C 	C 	0.57363 0.72100 0.84933 -0.22000
H 	H 	0.57990 0.73830 0.87730 0.11800
C 	C 	0.55544 0.67257 0.85107 0.12000
H 	H 	0.54900 0.65750 0.88010 0.01000
C 	C 	0.53120 0.93967 0.93771 0.36700
C 	C 	0.54997 0.90358 0.90037 -0.14700
C 	C 	0.59960 0.90317 0.88734 0.10300
H 	H 	0.62140 0.92730 0.90000 0.02000
C 	C 	0.61897 0.86715 0.85519 -0.20100
H 	H 	0.65330 0.86680 0.84750 0.10900
C 	C 	0.58552 0.83199 0.83522 0.18800
C 	C 	0.53515 0.83391 0.84760 -0.21100
H 	H 	0.51260 0.81080 0.83430 0.11300
C 	C 	0.51715 0.86922 0.87931 0.11000
H 	H 	0.48270 0.87000 0.88660 0.01500
C 	C 	0.64854 0.80192 0.77693 0.26800
C 	C 	0.68470 0.76540 0.77680 -0.33700
H 	H 	0.68070 0.73590 0.79440 0.15600
C 	C 	0.48320 0.53730 0.66360 0.09300
H 	H 	0.47070 0.56510 0.68010 0.00900
N 	N 	0.46490 0.57940 0.54670 -0.18400
C 	C 	0.46270 0.58760 0.59330 0.10200
H 	H 	0.45140 0.61710 0.60790 -0.00200
C 	C 	0.48130 0.54120 0.61760 -0.17800
O 	O 	0.51700 0.48600 0.54440 -0.30400
C 	C 	0.42030 0.60670 0.52560 -0.09900
H 	H 	0.41970 0.64160 0.53660 0.06000
H 	H 	0.38950 0.59030 0.53660 0.05100
N 	N 	0.79529 0.39706 0.80415 -0.21000
O 	O 	0.57135 0.47848 0.85053 -0.40900
O 	O 	0.57039 0.47767 0.77157 -0.40700
O 	O 	0.93455 0.51391 0.95138 -0.38400
O 	O 	0.97282 0.43697 0.95132 -0.37300
C 	C 	0.59143 0.47160 0.81127 0.38300
C 	C 	0.64551 0.45350 0.80966 -0.16400
C 	C 	0.66893 0.44457 0.76723 0.11200
H 	H 	0.65150 0.45080 0.73930 0.00800
C 	C 	0.71855 0.42625 0.76554 -0.21100
H 	H 	0.73400 0.42020 0.73660 0.10800
C 	C 	0.74470 0.41707 0.80685 0.18400
C 	C 	0.72100 0.42637 0.84933 -0.22000
H 	H 	0.73830 0.42010 0.87730 0.11700
C 	C 	0.67257 0.44456 0.85107 0.12000
H 	H 	0.65750 0.45100 0.88010 0.01000
C 	C 	0.93967 0.46880 0.93771 0.36700
C 	C 	0.90358 0.45003 0.90037 -0.14700
C 	C 	0.90317 0.40040 0.88734 0.10300
H 	H 	0.92730 0.37860 0.90000 0.02000
C 	C 	0.86715 0.38103 0.85519 -0.20100
H 	H 	0.86680 0.34670 0.84750 0.10800
C 	C 	0.83199 0.41448 0.83522 0.18800
C 	C 	0.83391 0.46485 0.84760 -0.21100
H 	H 	0.81080 0.48740 0.83430 0.11300
C 	C 	0.86922 0.48285 0.87931 0.11000
H 	H 	0.87000 0.51730 0.88660 0.01500
C 	C 	0.80192 0.35146 0.77693 0.26700
C 	C 	0.76540 0.31530 0.77680 -0.33700
H 	H 	0.73590 0.31930 0.79440 0.15400
C 	C 	0.53730 0.51680 0.66360 0.09300
H 	H 	0.56510 0.52930 0.68010 0.00900
N 	N 	0.57940 0.53510 0.54670 -0.18400
C 	C 	0.58760 0.53730 0.59330 0.10200
H 	H 	0.61710 0.54860 0.60790 -0.00200
C 	C 	0.54120 0.51870 0.61760 -0.17800
O 	O 	0.48600 0.48300 0.54440 -0.30400
C 	C 	0.60670 0.57970 0.52560 -0.09900
H 	H 	0.64160 0.58030 0.53660 0.06000
H 	H 	0.59030 0.61050 0.53660 0.05200
N 	N 	0.20471 0.60294 0.80415 -0.21100
O 	O 	0.42865 0.52152 0.85053 -0.40900
O 	O 	0.42961 0.52233 0.77157 -0.40700
O 	O 	0.06545 0.48609 0.95138 -0.39800
O 	O 	0.02718 0.56303 0.95132 -0.39600
C 	C 	0.40857 0.52840 0.81127 0.38300
C 	C 	0.35449 0.54650 0.80966 -0.16400
C 	C 	0.33107 0.55543 0.76723 0.11200
H 	H 	0.34850 0.54920 0.73930 0.00800
C 	C 	0.28145 0.57375 0.76554 -0.21100
H 	H 	0.26600 0.57980 0.73660 0.10800
C 	C 	0.25530 0.58293 0.80685 0.18400
C 	C 	0.27900 0.57363 0.84933 -0.22000
H 	H 	0.26170 0.57990 0.87730 0.11700
C 	C 	0.32743 0.55544 0.85107 0.11900
H 	H 	0.34250 0.54900 0.88010 0.01000
C 	C 	0.06033 0.53120 0.93771 0.37000
C 	C 	0.09642 0.54997 0.90037 -0.15600
C 	C 	0.09683 0.59960 0.88734 0.10700
H 	H 	0.07270 0.62140 0.90000 0.01200
C 	C 	0.13285 0.61897 0.85519 -0.20700
H 	H 	0.13320 0.65330 0.84750 0.10800
C 	C 	0.16801 0.58552 0.83522 0.19000
C 	C 	0.16609 0.53515 0.84760 -0.21700
H 	H 	0.18920 0.51260 0.83430 0.11200
C 	C 	0.13078 0.51715 0.87931 0.11300
H 	H 	0.13000 0.48270 0.88660 0.00800
C 	C 	0.19808 0.64854 0.77693 0.26400
C 	C 	0.23460 0.68470 0.77680 -0.33300
H 	H 	0.26410 0.68070 0.79440 0.15400
C 	C 	0.46270 0.48320 0.66360 0.09300
H 	H 	0.43490 0.47070 0.68010 0.00900
N 	N 	0.42060 0.46490 0.54670 -0.18400
C 	C 	0.41240 0.46270 0.59330 0.10200
H 	H 	0.38290 0.45140 0.60790 -0.00300
C 	C 	0.45880 0.48130 0.61760 -0.17800
O 	O 	0.51400 0.51700 0.54440 -0.30400
C 	C 	0.39330 0.42030 0.52560 -0.09900
H 	H 	0.35840 0.41970 0.53660 0.05800
H 	H 	0.40970 0.38950 0.53660 0.05100
N 	N 	0.10294 0.70471 0.69585 -0.20500
O 	O 	0.02152 0.92865 0.64947 -0.40900
O 	O 	0.02233 0.92961 0.72843 -0.40300
O 	O 	0.98609 0.56545 0.54862 -0.38200
O 	O 	0.06303 0.52718 0.54868 -0.39800
C 	C 	0.02840 0.90857 0.68873 0.38200
C 	C 	0.04650 0.85449 0.69034 -0.16600
C 	C 	0.05543 0.83107 0.73277 0.11200
H 	H 	0.04920 0.84850 0.76070 0.00600
C 	C 	0.07375 0.78145 0.73446 -0.21200
H 	H 	0.07980 0.76600 0.76340 0.10800
C 	C 	0.08293 0.75530 0.69315 0.18200
C 	C 	0.07363 0.77900 0.65067 -0.22000
H 	H 	0.07990 0.76170 0.62270 0.11100
C 	C 	0.05544 0.82743 0.64893 0.11800
H 	H 	0.04900 0.84250 0.61990 0.00300
C 	C 	0.03120 0.56033 0.56229 0.32100
C 	C 	0.04997 0.59642 0.59963 -0.10800
C 	C 	0.09960 0.59683 0.61266 0.06500
H 	H 	0.12140 0.57270 0.60000 0.02300
C 	C 	0.11897 0.63285 0.64481 -0.17500
H 	H 	0.15330 0.63320 0.65250 0.09500
C 	C 	0.08552 0.66801 0.66478 0.15700
C 	C 	0.03515 0.66609 0.65240 -0.15900
H 	H 	0.01260 0.68920 0.66570 0.08600
C 	C 	0.01715 0.63078 0.62069 0.01500
H 	H 	0.98270 0.63000 0.61340 0.05900
C 	C 	0.14854 0.69808 0.72307 0.26300
C 	C 	0.18470 0.73460 0.72320 -0.33300
H 	H 	0.18070 0.76410 0.70560 0.15300
C 	C 	0.98320 0.96270 0.83640 0.11500
H 	H 	0.97070 0.93490 0.81990 0.01100
N 	N 	0.96490 0.92060 0.95330 -0.17700
C 	C 	0.96270 0.91240 0.90670 0.08800
H 	H 	0.95140 0.88290 0.89210 0.01000
C 	C 	0.98130 0.95880 0.88240 -0.12000
O 	O 	0.01700 0.01400 0.95560 -0.31200
C 	C 	0.92030 0.89330 0.97440 -0.01200
H 	H 	0.91970 0.85840 0.96340 0.04900
H 	H 	0.88950 0.90970 0.96340 0.04100
N 	N 	0.89706 0.29529 0.69585 -0.21700
O 	O 	0.97848 0.07135 0.64947 -0.40700
O 	O 	0.97767 0.07039 0.72843 -0.39800
O 	O 	0.01391 0.43455 0.54862 -0.44600
O 	O 	0.93697 0.47282 0.54868 -0.41500
C 	C 	0.97160 0.09143 0.68873 0.38100
C 	C 	0.95350 0.14551 0.69034 -0.16300
C 	C 	0.94457 0.16893 0.73277 0.11200
H 	H 	0.95080 0.15150 0.76070 0.01200
C 	C 	0.92625 0.21855 0.73446 -0.21100
H 	H 	0.92020 0.23400 0.76340 0.11100
C 	C 	0.91707 0.24470 0.69315 0.18500
C 	C 	0.92637 0.22100 0.65067 -0.22200
H 	H 	0.92010 0.23830 0.62270 0.11300
C 	C 	0.94456 0.17257 0.64893 0.11900
H 	H 	0.95100 0.15750 0.61990 0.00500
C 	C 	0.96880 0.43967 0.56229 0.42400
C 	C 	0.95003 0.40358 0.59963 -0.21500
C 	C 	0.90040 0.40317 0.61266 0.15200
H 	H 	0.87860 0.42730 0.60000 -0.00500
C 	C 	0.88103 0.36715 0.64481 -0.24500
H 	H 	0.84670 0.36680 0.65250 0.11900
C 	C 	0.91448 0.33199 0.66478 0.22500
C 	C 	0.96485 0.33391 0.65240 -0.28100
H 	H 	0.98740 0.31080 0.66570 0.14000
C 	C 	0.98285 0.36922 0.62069 0.21700
H 	H 	0.01730 0.37000 0.61340 -0.04800
C 	C 	0.85146 0.30192 0.72307 0.26700
C 	C 	0.81530 0.26540 0.72320 -0.33800
H 	H 	0.81930 0.23590 0.70560 0.15200
C 	C 	0.01680 0.03730 0.83640 0.04800
H 	H 	0.02930 0.06510 0.81990 0.01600
N 	N 	0.03510 0.07940 0.95330 -0.18200
C 	C 	0.03730 0.08760 0.90670 0.08200
H 	H 	0.04860 0.11710 0.89210 0.00200
C 	C 	0.01870 0.04120 0.88240 -0.14600
O 	O 	0.98300 0.98600 0.95560 -0.21400
C 	C 	0.07970 0.10670 0.97440 -0.01200
H 	H 	0.08030 0.14160 0.96340 0.04200
H 	H 	0.11050 0.09030 0.96340 0.03400
N 	N 	0.70471 0.89706 0.69585 -0.21600
O 	O 	0.92865 0.97848 0.64947 -0.39100
O 	O 	0.92961 0.97767 0.72843 -0.38500
O 	O 	0.56545 0.01391 0.54862 -0.44500
O 	O 	0.52718 0.93697 0.54868 -0.41500
C 	C 	0.90857 0.97160 0.68873 0.37900
C 	C 	0.85449 0.95350 0.69034 -0.15800
C 	C 	0.83107 0.94457 0.73277 0.11100
H 	H 	0.84850 0.95080 0.76070 0.01400
C 	C 	0.78145 0.92625 0.73446 -0.20800
H 	H 	0.76600 0.92020 0.76340 0.11100
C 	C 	0.75530 0.91707 0.69315 0.18400
C 	C 	0.77900 0.92637 0.65067 -0.21800
H 	H 	0.76170 0.92010 0.62270 0.11300
C 	C 	0.82743 0.94456 0.64893 0.11700
H 	H 	0.84250 0.95100 0.61990 0.01000
C 	C 	0.56033 0.96880 0.56229 0.42300
C 	C 	0.59642 0.95003 0.59963 -0.21300
C 	C 	0.59683 0.90040 0.61266 0.15100
H 	H 	0.57270 0.87860 0.60000 -0.00500
C 	C 	0.63285 0.88103 0.64481 -0.24400
H 	H 	0.63320 0.84670 0.65250 0.11900
C 	C 	0.66801 0.91448 0.66478 0.22400
C 	C 	0.66609 0.96485 0.65240 -0.27900
H 	H 	0.68920 0.98740 0.66570 0.14000
C 	C 	0.63078 0.98285 0.62069 0.21500
H 	H 	0.63000 0.01730 0.61340 -0.04700
C 	C 	0.69808 0.85146 0.72307 0.26800
C 	C 	0.73460 0.81530 0.72320 -0.33700
H 	H 	0.76410 0.81930 0.70560 0.15500
C 	C 	0.96270 0.01680 0.83640 0.09400
H 	H 	0.93490 0.02930 0.81990 0.00600
N 	N 	0.92060 0.03510 0.95330 -0.18300
C 	C 	0.91240 0.03730 0.90670 0.08400
H 	H 	0.88290 0.04860 0.89210 0.00300
C 	C 	0.95880 0.01870 0.88240 -0.13800
O 	O 	0.01400 0.98300 0.95560 -0.30900
C 	C 	0.89330 0.07970 0.97440 -0.01200
H 	H 	0.85840 0.08030 0.96340 0.04300
H 	H 	0.90970 0.11050 0.96340 0.04200
N 	N 	0.29529 0.10294 0.69585 -0.20500
O 	O 	0.07135 0.02152 0.64947 -0.42700
O 	O 	0.07039 0.02233 0.72843 -0.41900
O 	O 	0.43455 0.98609 0.54862 -0.38100
O 	O 	0.47282 0.06303 0.54868 -0.39800
C 	C 	0.09143 0.02840 0.68873 0.38300
C 	C 	0.14551 0.04650 0.69034 -0.17300
C 	C 	0.16893 0.05543 0.73277 0.11300
H 	H 	0.15150 0.04920 0.76070 0.00300
C 	C 	0.21855 0.07375 0.73446 -0.21500
H 	H 	0.23400 0.07980 0.76340 0.10800
C 	C 	0.24470 0.08293 0.69315 0.18300
C 	C 	0.22100 0.07363 0.65067 -0.22500
H 	H 	0.23830 0.07990 0.62270 0.11000
C 	C 	0.17257 0.05544 0.64893 0.12000
H 	H 	0.15750 0.04900 0.61990 -0.00200
C 	C 	0.43967 0.03120 0.56229 0.32000
C 	C 	0.40358 0.04997 0.59963 -0.10700
C 	C 	0.40317 0.09960 0.61266 0.06400
H 	H 	0.42730 0.12140 0.60000 0.02300
C 	C 	0.36715 0.11897 0.64481 -0.17500
H 	H 	0.36680 0.15330 0.65250 0.09400
C 	C 	0.33199 0.08552 0.66478 0.15600
C 	C 	0.33391 0.03515 0.65240 -0.15700
H 	H 	0.31080 0.01260 0.66570 0.08500
C 	C 	0.36922 0.01715 0.62069 0.01300
H 	H 	0.37000 0.98270 0.61340 0.06000
C 	C 	0.30192 0.14854 0.72307 0.26200
C 	C 	0.26540 0.18470 0.72320 -0.33300
H 	H 	0.23590 0.18070 0.70560 0.15000
C 	C 	0.03730 0.98320 0.83640 0.09100
H 	H 	0.06510 0.97070 0.81990 0.01500
N 	N 	0.07940 0.96490 0.95330 -0.17300
C 	C 	0.08760 0.96270 0.90670 0.08800
H 	H 	0.11710 0.95140 0.89210 0.00900
C 	C 	0.04120 0.98130 0.88240 -0.13000
O 	O 	0.98600 0.01700 0.95560 -0.29300
C 	C 	0.10670 0.92030 0.97440 -0.01200
H 	H 	0.14160 0.91970 0.96340 0.04900
H 	H 	0.09030 0.88950 0.96340 0.03400
Cu	Cu	0.50000 0.50000 0.14266 0.90000
Cu	Cu	0.50000 0.50000 0.23598 0.92000
N 	N 	0.50000 0.50000 0.31069 -0.24700
C 	C 	0.50000 0.50000 0.40730 0.55900
Cu	Cu	0.00000 0.00000 0.35734 0.88000
Cu	Cu	0.00000 0.00000 0.26402 0.89900
N 	N 	0.00000 0.00000 0.18931 -0.27300
C 	C 	-0.00000 -0.00000 0.09270 0.43600
Cu	Cu	0.50000 0.50000 0.85734 0.90500
Cu	Cu	0.50000 0.50000 0.76402 0.91900
N 	N 	0.50000 0.50000 0.68931 -0.24600
C 	C 	0.50000 0.50000 0.59270 0.55900
Cu	Cu	-0.00000 0.00000 0.64266 0.88000
Cu	Cu	0.00000 0.00000 0.73598 0.89900
N 	N 	0.00000 0.00000 0.81069 -0.27000
C 	C 	0.00000 0.00000 0.90730 0.42000
Cu	Cu	0.45549 0.97732 -0.00000 0.89300
Cu	Cu	0.54451 0.02268 -0.00000 0.87000
Cu	Cu	0.02268 0.45549 -0.00000 0.87000
Cu	Cu	0.97732 0.54451 -0.00000 0.89300
Cu	Cu	0.04451 0.47732 0.50000 0.89800
Cu	Cu	0.95549 0.52268 0.50000 0.90600
Cu	Cu	0.47732 0.95549 0.50000 0.90600
Cu	Cu	0.52268 0.04451 0.50000 0.89800
C 	C 	0.72700 0.77300 0.25000 0.25100
H 	H 	0.75200 0.74800 0.25000 -0.05600
C 	C 	0.65498 0.84502 0.25000 -0.33200
H 	H 	0.63000 0.87000 0.25000 0.15400
C 	C 	0.27300 0.22700 0.25000 0.24500
H 	H 	0.24800 0.25200 0.25000 -0.05900
C 	C 	0.34502 0.15498 0.25000 -0.32800
H 	H 	0.37000 0.13000 0.25000 0.14900
C 	C 	0.22700 0.72700 0.25000 0.24700
H 	H 	0.25200 0.75200 0.25000 -0.05500
C 	C 	0.15498 0.65498 0.25000 -0.32800
H 	H 	0.13000 0.63000 0.25000 0.14900
C 	C 	0.77300 0.27300 0.25000 0.25000
H 	H 	0.74800 0.24800 0.25000 -0.06000
C 	C 	0.84502 0.34502 0.25000 -0.33200
H 	H 	0.87000 0.37000 0.25000 0.15400
C 	C 	0.27300 0.22700 0.75000 0.24800
H 	H 	0.24800 0.25200 0.75000 -0.05600
C 	C 	0.34502 0.15498 0.75000 -0.32800
H 	H 	0.37000 0.13000 0.75000 0.15000
C 	C 	0.72700 0.77300 0.75000 0.25400
H 	H 	0.75200 0.74800 0.75000 -0.05400
C 	C 	0.65498 0.84502 0.75000 -0.33300
H 	H 	0.63000 0.87000 0.75000 0.15400
C 	C 	0.77300 0.27300 0.75000 0.25200
H 	H 	0.74800 0.24800 0.75000 -0.05800
C 	C 	0.84502 0.34502 0.75000 -0.33300
H 	H 	0.87000 0.37000 0.75000 0.15400
C 	C 	0.22700 0.72700 0.75000 0.24900
H 	H 	0.25200 0.75200 0.75000 -0.05300
C 	C 	0.15498 0.65498 0.75000 -0.32800
H 	H 	0.13000 0.63000 0.75000 0.15000
Cu	Cu	0.47940 0.52860 0.50000 0.75200
Cu	Cu	0.52060 0.47140 0.50000 0.75200
Cu	Cu	0.47140 0.47940 0.50000 0.75200
Cu	Cu	0.52860 0.52060 0.50000 0.75200
Cu	Cu	0.02060 0.02860 -0.00000 0.72600
Cu	Cu	0.97940 0.97140 -0.00000 0.73000
Cu	Cu	0.02860 0.97940 -0.00000 0.74000
Cu	Cu	0.97140 0.02060 -0.00000 0.73000
