data_crystal

_cell_length_a 26.49000
_cell_length_b 26.49000
_cell_length_c 27.35000
_cell_angle_alpha 90.00000
_cell_angle_beta  90.00000
_cell_angle_gamma 90.00000

_symmetry_space_group_name_	'P 1'
_symmetry_space_group_name_H-M	'P 1'

loop_
_symmetry_equiv_pos_as_xyz
  x,y,z

loop_
_atom_site_label
_atom_site_type_symbol
_atom_site_fract_x
_atom_site_fract_y
_atom_site_fract_z
_atom_site_charge
N 	N 	0.61200 0.78927 0.19139 -0.20800
O 	O 	0.52464 0.57054 0.13711 -0.41800
O 	O 	0.52686 0.56814 0.21822 -0.41700
O 	O 	0.48897 0.93501 0.05058 -0.41800
O 	O 	0.56370 0.97477 0.05014 -0.40700
C 	C 	0.53315 0.58951 0.17791 0.39900
C 	C 	0.55325 0.64240 0.18050 -0.18200
C 	C 	0.56378 0.66356 0.22536 0.12600
H 	H 	0.55840 0.64490 0.25370 0.00200
C 	C 	0.58236 0.71233 0.22884 -0.22700
H 	H 	0.58880 0.72640 0.25940 0.11200
C 	C 	0.59123 0.73980 0.18733 0.19300
C 	C 	0.58106 0.71878 0.14217 -0.23100
H 	H 	0.58700 0.73730 0.11390 0.11100
C 	C 	0.56212 0.67051 0.13881 0.12800
H 	H 	0.55520 0.65670 0.10830 -0.00700
C 	C 	0.53401 0.94050 0.06409 0.37900
C 	C 	0.55476 0.90233 0.09930 -0.17000
C 	C 	0.60531 0.90201 0.11143 0.11600
H 	H 	0.62670 0.92650 0.09860 0.00100
C 	C 	0.62441 0.86560 0.14255 -0.21700
H 	H 	0.65850 0.86590 0.15060 0.10700
C 	C 	0.59294 0.82843 0.16192 0.18600
C 	C 	0.54189 0.83035 0.15071 -0.22000
H 	H 	0.52010 0.80690 0.16460 0.11000
C 	C 	0.52301 0.86615 0.11964 0.11900
H 	H 	0.48880 0.86630 0.11210 -0.00100
C 	C 	0.65613 0.79583 0.22112 0.23400
C 	C 	0.69326 0.75935 0.22092 -0.29000
H 	H 	0.69000 0.73100 0.20110 0.13400
C 	C 	0.48090 0.53840 0.32930 0.09400
H 	H 	0.46710 0.56560 0.31250 0.00700
C 	C 	0.48080 0.53950 0.37930 -0.19200
O 	O 	0.51550 0.48850 0.45230 -0.28100
N 	N 	0.46300 0.58180 0.45280 -0.20500
C 	C 	0.45540 0.58300 0.40480 0.09800
H 	H 	0.43670 0.60770 0.38890 -0.00200
C 	C 	0.44750 0.62990 0.47350 -0.08300
H 	H 	0.41530 0.64150 0.46200 0.05100
H 	H 	0.47280 0.65300 0.46200 0.04900
C 	C 	0.53530 0.46390 0.02830 -0.03500
H 	H 	0.56900 0.47190 0.04000 0.04700
H 	H 	0.53090 0.43220 0.03980 0.02000
H 	H 	0.41130 0.87310 0.02850 0.05200
H 	H 	0.34650 0.83050 0.97150 0.06500
H 	H 	0.34180 0.98530 0.97140 0.07900
H 	H 	0.27300 0.94270 0.02850 0.04900
C 	C 	0.36740 0.92430 0.95290 -0.00600
H 	H 	0.39420 0.91060 0.93270 0.03300
H 	H 	0.35690 0.95610 0.93850 0.03200
C 	C 	0.32290 0.88790 0.95220 -0.01000
H 	H 	0.29800 0.90080 0.92940 0.03300
H 	H 	0.33470 0.85580 0.93940 0.02600
H 	H 	0.52660 0.43050 0.04000 0.01900
C 	C 	0.49900 0.55050 0.02810 -0.03600
N 	N 	0.38800 0.21073 0.19139 -0.20800
O 	O 	0.47536 0.42946 0.13711 -0.41700
O 	O 	0.47314 0.43186 0.21822 -0.41600
O 	O 	0.51103 0.06499 0.05058 -0.42200
O 	O 	0.43630 0.02523 0.05014 -0.42200
C 	C 	0.46685 0.41049 0.17791 0.39900
C 	C 	0.44675 0.35760 0.18050 -0.18200
C 	C 	0.43622 0.33644 0.22536 0.12500
H 	H 	0.44160 0.35510 0.25370 0.00200
C 	C 	0.41764 0.28767 0.22884 -0.22700
H 	H 	0.41120 0.27360 0.25940 0.11200
C 	C 	0.40877 0.26020 0.18733 0.19200
C 	C 	0.41894 0.28122 0.14217 -0.23100
H 	H 	0.41300 0.26270 0.11390 0.11000
C 	C 	0.43788 0.32949 0.13881 0.12800
H 	H 	0.44480 0.34330 0.10830 -0.00700
C 	C 	0.46599 0.05950 0.06409 0.38100
C 	C 	0.44524 0.09767 0.09930 -0.17600
C 	C 	0.39469 0.09799 0.11143 0.11900
H 	H 	0.37330 0.07350 0.09860 -0.00500
C 	C 	0.37559 0.13440 0.14255 -0.22100
H 	H 	0.34150 0.13410 0.15060 0.10600
C 	C 	0.40706 0.17157 0.16192 0.18700
C 	C 	0.45811 0.16965 0.15071 -0.22300
H 	H 	0.47990 0.19310 0.16460 0.11100
C 	C 	0.47699 0.13385 0.11964 0.12100
H 	H 	0.51120 0.13370 0.11210 -0.00300
C 	C 	0.34387 0.20417 0.22112 0.23300
C 	C 	0.30674 0.24065 0.22092 -0.28900
H 	H 	0.31000 0.26900 0.20110 0.13300
C 	C 	0.51910 0.46160 0.32930 0.09400
H 	H 	0.53290 0.43440 0.31250 0.00600
C 	C 	0.51920 0.46050 0.37930 -0.19200
O 	O 	0.48450 0.51150 0.45230 -0.28100
N 	N 	0.53700 0.41820 0.45280 -0.20500
C 	C 	0.54460 0.41700 0.40480 0.09800
H 	H 	0.56330 0.39230 0.38890 -0.00200
C 	C 	0.55250 0.37010 0.47350 -0.08200
H 	H 	0.58470 0.35850 0.46200 0.05000
H 	H 	0.52720 0.34700 0.46200 0.04900
C 	C 	0.46470 0.53610 0.02830 -0.03500
H 	H 	0.43100 0.52810 0.04000 0.04700
H 	H 	0.46910 0.56780 0.03980 0.02000
H 	H 	0.58870 0.12690 0.02850 0.05200
H 	H 	0.65350 0.16950 0.97150 0.06600
H 	H 	0.65820 0.01470 0.97140 0.07000
H 	H 	0.72700 0.05730 0.02850 0.04600
C 	C 	0.63260 0.07570 0.95290 -0.00400
H 	H 	0.60580 0.08940 0.93270 0.03000
H 	H 	0.64310 0.04390 0.93850 0.02700
C 	C 	0.67710 0.11210 0.95220 -0.01000
H 	H 	0.70200 0.09920 0.92940 0.03100
H 	H 	0.66530 0.14420 0.93940 0.02600
H 	H 	0.47340 0.56950 0.04000 0.01900
C 	C 	0.50100 0.44950 0.02810 -0.03600
N 	N 	0.21073 0.61200 0.19139 -0.20800
O 	O 	0.42946 0.52464 0.13711 -0.41700
O 	O 	0.43186 0.52686 0.21822 -0.41600
O 	O 	0.06499 0.48897 0.05058 -0.42200
O 	O 	0.02523 0.56370 0.05014 -0.42200
C 	C 	0.41049 0.53315 0.17791 0.39900
C 	C 	0.35760 0.55325 0.18050 -0.18200
C 	C 	0.33644 0.56378 0.22536 0.12600
H 	H 	0.35510 0.55840 0.25370 0.00200
C 	C 	0.28767 0.58236 0.22884 -0.22700
H 	H 	0.27360 0.58880 0.25940 0.11200
C 	C 	0.26020 0.59123 0.18733 0.19300
C 	C 	0.28122 0.58106 0.14217 -0.23100
H 	H 	0.26270 0.58700 0.11390 0.11000
C 	C 	0.32949 0.56212 0.13881 0.12800
H 	H 	0.34330 0.55520 0.10830 -0.00700
C 	C 	0.05950 0.53401 0.06409 0.38100
C 	C 	0.09767 0.55476 0.09930 -0.17600
C 	C 	0.09799 0.60531 0.11143 0.11900
H 	H 	0.07350 0.62670 0.09860 -0.00500
C 	C 	0.13440 0.62441 0.14255 -0.22100
H 	H 	0.13410 0.65850 0.15060 0.10600
C 	C 	0.17157 0.59294 0.16192 0.18700
C 	C 	0.16965 0.54189 0.15071 -0.22300
H 	H 	0.19310 0.52010 0.16460 0.11100
C 	C 	0.13385 0.52301 0.11964 0.12100
H 	H 	0.13370 0.48880 0.11210 -0.00300
C 	C 	0.20417 0.65613 0.22112 0.23300
C 	C 	0.24065 0.69326 0.22092 -0.28900
H 	H 	0.26900 0.69000 0.20110 0.13300
C 	C 	0.46160 0.48090 0.32930 0.09400
H 	H 	0.43440 0.46710 0.31250 0.00600
C 	C 	0.46050 0.48080 0.37930 -0.19200
O 	O 	0.51150 0.51550 0.45230 -0.28100
N 	N 	0.41820 0.46300 0.45280 -0.20500
C 	C 	0.41700 0.45540 0.40480 0.09800
H 	H 	0.39230 0.43670 0.38890 -0.00200
C 	C 	0.37010 0.44750 0.47350 -0.08200
H 	H 	0.35850 0.41530 0.46200 0.05000
H 	H 	0.34700 0.47280 0.46200 0.04900
C 	C 	0.53610 0.53530 0.02830 -0.03500
H 	H 	0.52810 0.56900 0.04000 0.04700
H 	H 	0.56780 0.53090 0.03980 0.02000
H 	H 	0.12690 0.41130 0.02850 0.05100
H 	H 	0.16950 0.34650 0.97150 0.06500
H 	H 	0.01470 0.34180 0.97140 0.07000
H 	H 	0.05730 0.27300 0.02850 0.04600
C 	C 	0.07570 0.36740 0.95290 -0.00400
H 	H 	0.08940 0.39420 0.93270 0.03000
H 	H 	0.04390 0.35690 0.93850 0.02700
C 	C 	0.11210 0.32290 0.95220 -0.00900
H 	H 	0.09920 0.29800 0.92940 0.03100
H 	H 	0.14420 0.33470 0.93940 0.02600
H 	H 	0.56950 0.52660 0.04000 0.01900
C 	C 	0.44950 0.49900 0.02810 -0.03600
N 	N 	0.78927 0.38800 0.19139 -0.20700
O 	O 	0.57054 0.47536 0.13711 -0.41700
O 	O 	0.56814 0.47314 0.21822 -0.41600
O 	O 	0.93501 0.51103 0.05058 -0.41700
O 	O 	0.97477 0.43630 0.05014 -0.40700
C 	C 	0.58951 0.46685 0.17791 0.39900
C 	C 	0.64240 0.44675 0.18050 -0.18200
C 	C 	0.66356 0.43622 0.22536 0.12600
H 	H 	0.64490 0.44160 0.25370 0.00200
C 	C 	0.71233 0.41764 0.22884 -0.22700
H 	H 	0.72640 0.41120 0.25940 0.11200
C 	C 	0.73980 0.40877 0.18733 0.19300
C 	C 	0.71878 0.41894 0.14217 -0.23100
H 	H 	0.73730 0.41300 0.11390 0.11100
C 	C 	0.67051 0.43788 0.13881 0.12800
H 	H 	0.65670 0.44480 0.10830 -0.00700
C 	C 	0.94050 0.46599 0.06409 0.37900
C 	C 	0.90233 0.44524 0.09930 -0.17000
C 	C 	0.90201 0.39469 0.11143 0.11600
H 	H 	0.92650 0.37330 0.09860 0.00100
C 	C 	0.86560 0.37559 0.14255 -0.21700
H 	H 	0.86590 0.34150 0.15060 0.10700
C 	C 	0.82843 0.40706 0.16192 0.18600
C 	C 	0.83035 0.45811 0.15071 -0.22000
H 	H 	0.80690 0.47990 0.16460 0.11000
C 	C 	0.86615 0.47699 0.11964 0.11900
H 	H 	0.86630 0.51120 0.11210 -0.00100
C 	C 	0.79583 0.34387 0.22112 0.23400
C 	C 	0.75935 0.30674 0.22092 -0.29000
H 	H 	0.73100 0.31000 0.20110 0.13300
C 	C 	0.53840 0.51910 0.32930 0.09400
H 	H 	0.56560 0.53290 0.31250 0.00700
C 	C 	0.53950 0.51920 0.37930 -0.19200
O 	O 	0.48850 0.48450 0.45230 -0.28100
N 	N 	0.58180 0.53700 0.45280 -0.20500
C 	C 	0.58300 0.54460 0.40480 0.09800
H 	H 	0.60770 0.56330 0.38890 -0.00200
C 	C 	0.62990 0.55250 0.47350 -0.08300
H 	H 	0.64150 0.58470 0.46200 0.05100
H 	H 	0.65300 0.52720 0.46200 0.04900
C 	C 	0.46390 0.46470 0.02830 -0.03500
H 	H 	0.47190 0.43100 0.04000 0.04700
H 	H 	0.43220 0.46910 0.03980 0.02000
H 	H 	0.87310 0.58870 0.02850 0.05200
H 	H 	0.83050 0.65350 0.97150 0.06600
H 	H 	0.98530 0.65820 0.97140 0.07800
H 	H 	0.94270 0.72700 0.02850 0.04900
C 	C 	0.92430 0.63260 0.95290 -0.00600
H 	H 	0.91060 0.60580 0.93270 0.03300
H 	H 	0.95610 0.64310 0.93850 0.03200
C 	C 	0.88790 0.67710 0.95220 -0.01000
H 	H 	0.90080 0.70200 0.92940 0.03300
H 	H 	0.85580 0.66530 0.93940 0.02700
H 	H 	0.43050 0.47340 0.04000 0.01900
C 	C 	0.55050 0.50100 0.02810 -0.03600
N 	N 	0.88800 0.28927 0.30861 -0.21000
O 	O 	0.97536 0.07054 0.36289 -0.41000
O 	O 	0.97314 0.06814 0.28178 -0.41100
O 	O 	0.01103 0.43501 0.44942 -0.43100
O 	O 	0.93630 0.47477 0.44986 -0.41400
C 	C 	0.96685 0.08951 0.32209 0.39700
C 	C 	0.94675 0.14240 0.31950 -0.17900
C 	C 	0.93622 0.16356 0.27464 0.12400
H 	H 	0.94160 0.14490 0.24630 0.00400
C 	C 	0.91764 0.21233 0.27116 -0.22600
H 	H 	0.91120 0.22640 0.24060 0.11200
C 	C 	0.90877 0.23980 0.31267 0.19300
C 	C 	0.91894 0.21878 0.35783 -0.22900
H 	H 	0.91300 0.23730 0.38610 0.11400
C 	C 	0.93788 0.17051 0.36119 0.12800
H 	H 	0.94480 0.15670 0.39170 -0.00100
C 	C 	0.96599 0.44050 0.43591 0.40800
C 	C 	0.94524 0.40233 0.40070 -0.19800
C 	C 	0.89469 0.40201 0.38857 0.14100
H 	H 	0.87330 0.42650 0.40140 -0.00700
C 	C 	0.87559 0.36560 0.35745 -0.23600
H 	H 	0.84150 0.36590 0.34940 0.11400
C 	C 	0.90706 0.32843 0.33808 0.20500
C 	C 	0.95811 0.33035 0.34929 -0.25300
H 	H 	0.97990 0.30690 0.33540 0.12600
C 	C 	0.97699 0.36615 0.38036 0.17500
H 	H 	0.01120 0.36630 0.38790 -0.02800
C 	C 	0.84387 0.29583 0.27888 0.23500
C 	C 	0.80674 0.25935 0.27908 -0.29000
H 	H 	0.81000 0.23100 0.29890 0.13400
C 	C 	0.01910 0.03840 0.17070 0.07300
H 	H 	0.03290 0.06560 0.18750 0.00900
C 	C 	0.01920 0.03950 0.12070 -0.17900
O 	O 	0.98450 0.98850 0.04770 -0.23500
N 	N 	0.03700 0.08180 0.04720 -0.20100
C 	C 	0.04460 0.08300 0.09520 0.08700
H 	H 	0.06330 0.10770 0.11110 -0.00200
C 	C 	0.05250 0.12990 0.02650 -0.14100
H 	H 	0.08470 0.14150 0.03800 0.06000
H 	H 	0.02720 0.15300 0.03800 0.05800
C 	C 	0.96470 0.96390 0.47170 0.00900
H 	H 	0.93100 0.97190 0.46000 0.22500
H 	H 	0.96910 0.93220 0.46020 -0.08000
H 	H 	0.08870 0.37310 0.47150 0.04100
H 	H 	0.15350 0.33050 0.52850 0.03000
H 	H 	0.15820 0.48530 0.52860 0.04000
H 	H 	0.22700 0.44270 0.47150 0.03800
C 	C 	0.13260 0.42430 0.54710 -0.04600
H 	H 	0.10580 0.41060 0.56730 0.04200
H 	H 	0.14310 0.45610 0.56150 0.04100
C 	C 	0.17710 0.38790 0.54780 -0.05100
H 	H 	0.20200 0.40080 0.57060 0.04100
H 	H 	0.16530 0.35580 0.56060 0.03800
H 	H 	0.97340 0.93050 0.46000 -0.03200
C 	C 	0.00100 0.05050 0.47190 -0.42900
N 	N 	0.11200 0.71073 0.30861 -0.20400
O 	O 	0.02464 0.92946 0.36289 -0.41400
O 	O 	0.02686 0.93186 0.28178 -0.41400
O 	O 	0.98897 0.56499 0.44942 -0.39800
O 	O 	0.06370 0.52523 0.44986 -0.40500
C 	C 	0.03315 0.91049 0.32209 0.39800
C 	C 	0.05325 0.85760 0.31950 -0.18200
C 	C 	0.06378 0.83644 0.27464 0.12500
H 	H 	0.05840 0.85510 0.24630 0.00100
C 	C 	0.08236 0.78767 0.27116 -0.22700
H 	H 	0.08880 0.77360 0.24060 0.11000
C 	C 	0.09123 0.76020 0.31267 0.19200
C 	C 	0.08106 0.78122 0.35783 -0.23000
H 	H 	0.08700 0.76270 0.38610 0.11300
C 	C 	0.06212 0.82949 0.36119 0.12900
H 	H 	0.05520 0.84330 0.39170 -0.00500
C 	C 	0.03401 0.55950 0.43591 0.35500
C 	C 	0.05476 0.59767 0.40070 -0.14300
C 	C 	0.10531 0.59799 0.38857 0.09500
H 	H 	0.12670 0.57350 0.40140 0.00800
C 	C 	0.12441 0.63440 0.35745 -0.19800
H 	H 	0.15850 0.63410 0.34940 0.10100
C 	C 	0.09294 0.67157 0.33808 0.16900
C 	C 	0.04189 0.66965 0.34929 -0.18900
H 	H 	0.02010 0.69310 0.33540 0.09700
C 	C 	0.02301 0.63385 0.38036 0.06800
H 	H 	0.98880 0.63370 0.38790 0.02700
C 	C 	0.15613 0.70417 0.27888 0.23300
C 	C 	0.19326 0.74065 0.27908 -0.28900
H 	H 	0.19000 0.76900 0.29890 0.13500
C 	C 	0.98090 0.96160 0.17070 0.10500
H 	H 	0.96710 0.93440 0.18750 0.00700
C 	C 	0.98080 0.96050 0.12070 -0.16400
O 	O 	0.01550 0.01150 0.04770 -0.30000
N 	N 	0.96300 0.91820 0.04720 -0.19900
C 	C 	0.95540 0.91700 0.09520 0.08800
H 	H 	0.93670 0.89230 0.11110 0.00100
C 	C 	0.94750 0.87010 0.02650 -0.14100
H 	H 	0.91530 0.85850 0.03800 0.06300
H 	H 	0.97280 0.84700 0.03800 0.06300
C 	C 	0.03530 0.03610 0.47170 -0.04700
H 	H 	0.06900 0.02810 0.46000 -0.13900
H 	H 	0.03090 0.06780 0.46020 0.11800
H 	H 	0.91130 0.62690 0.47150 0.04300
H 	H 	0.84650 0.66950 0.52850 0.03100
H 	H 	0.84180 0.51470 0.52860 0.04100
H 	H 	0.77300 0.55730 0.47150 0.03800
C 	C 	0.86740 0.57570 0.54710 -0.04600
H 	H 	0.89420 0.58940 0.56730 0.04300
H 	H 	0.85690 0.54390 0.56150 0.04100
C 	C 	0.82290 0.61210 0.54780 -0.05100
H 	H 	0.79800 0.59920 0.57060 0.04200
H 	H 	0.83470 0.64420 0.56060 0.03900
H 	H 	0.02660 0.06950 0.46000 0.06800
C 	C 	0.99900 0.94950 0.47190 0.38300
N 	N 	0.28927 0.11200 0.30861 -0.20400
O 	O 	0.07054 0.02464 0.36289 -0.41900
O 	O 	0.06814 0.02686 0.28178 -0.42100
O 	O 	0.43501 0.98897 0.44942 -0.39800
O 	O 	0.47477 0.06370 0.44986 -0.40400
C 	C 	0.08951 0.03315 0.32209 0.39800
C 	C 	0.14240 0.05325 0.31950 -0.18300
C 	C 	0.16356 0.06378 0.27464 0.12400
H 	H 	0.14490 0.05840 0.24630 -0.00000
C 	C 	0.21233 0.08236 0.27116 -0.22700
H 	H 	0.22640 0.08880 0.24060 0.10900
C 	C 	0.23980 0.09123 0.31267 0.19200
C 	C 	0.21878 0.08106 0.35783 -0.23000
H 	H 	0.23730 0.08700 0.38610 0.11300
C 	C 	0.17051 0.06212 0.36119 0.12700
H 	H 	0.15670 0.05520 0.39170 -0.00400
C 	C 	0.44050 0.03401 0.43591 0.35400
C 	C 	0.40233 0.05476 0.40070 -0.14200
C 	C 	0.40201 0.10531 0.38857 0.09400
H 	H 	0.42650 0.12670 0.40140 0.00900
C 	C 	0.36560 0.12441 0.35745 -0.19800
H 	H 	0.36590 0.15850 0.34940 0.10100
C 	C 	0.32843 0.09294 0.33808 0.16800
C 	C 	0.33035 0.04189 0.34929 -0.18700
H 	H 	0.30690 0.02010 0.33540 0.09600
C 	C 	0.36615 0.02301 0.38036 0.06600
H 	H 	0.36630 0.98880 0.38790 0.02800
C 	C 	0.29583 0.15613 0.27888 0.23300
C 	C 	0.25935 0.19326 0.27908 -0.28900
H 	H 	0.23100 0.19000 0.29890 0.13300
C 	C 	0.03840 0.98090 0.17070 0.09300
H 	H 	0.06560 0.96710 0.18750 0.00900
C 	C 	0.03950 0.98080 0.12070 -0.16700
O 	O 	0.98850 0.01550 0.04770 -0.27600
N 	N 	0.08180 0.96300 0.04720 -0.19700
C 	C 	0.08300 0.95540 0.09520 0.08700
H 	H 	0.10770 0.93670 0.11110 0.00000
C 	C 	0.12990 0.94750 0.02650 -0.14200
H 	H 	0.14150 0.91530 0.03800 0.06200
H 	H 	0.15300 0.97280 0.03800 0.06400
C 	C 	0.96390 0.03530 0.47170 0.62100
H 	H 	0.97190 0.06900 0.46000 -0.03500
H 	H 	0.93220 0.03090 0.46020 0.07000
H 	H 	0.37310 0.91130 0.47150 0.04300
H 	H 	0.33050 0.84650 0.52850 0.03100
H 	H 	0.48530 0.84180 0.52860 0.04100
H 	H 	0.44270 0.77300 0.47150 0.03800
C 	C 	0.42430 0.86740 0.54710 -0.04600
H 	H 	0.41060 0.89420 0.56730 0.04300
H 	H 	0.45610 0.85690 0.56150 0.04100
C 	C 	0.38790 0.82290 0.54780 -0.05100
H 	H 	0.40080 0.79800 0.57060 0.04200
H 	H 	0.35580 0.83470 0.56060 0.03900
H 	H 	0.93050 0.02660 0.46000 -0.08500
C 	C 	0.05050 0.99900 0.47190 0.49400
N 	N 	0.71073 0.88800 0.30861 -0.21000
O 	O 	0.92946 0.97536 0.36289 -0.40700
O 	O 	0.93186 0.97314 0.28178 -0.40500
O 	O 	0.56499 0.01103 0.44942 -0.43000
O 	O 	0.52523 0.93630 0.44986 -0.41400
C 	C 	0.91049 0.96685 0.32209 0.39800
C 	C 	0.85760 0.94675 0.31950 -0.17900
C 	C 	0.83644 0.93622 0.27464 0.12500
H 	H 	0.85510 0.94160 0.24630 0.00400
C 	C 	0.78767 0.91764 0.27116 -0.22600
H 	H 	0.77360 0.91120 0.24060 0.11200
C 	C 	0.76020 0.90877 0.31267 0.19400
C 	C 	0.78122 0.91894 0.35783 -0.23000
H 	H 	0.76270 0.91300 0.38610 0.11500
C 	C 	0.82949 0.93788 0.36119 0.13000
H 	H 	0.84330 0.94480 0.39170 -0.00300
C 	C 	0.55950 0.96599 0.43591 0.40800
C 	C 	0.59767 0.94524 0.40070 -0.19700
C 	C 	0.59799 0.89469 0.38857 0.14000
H 	H 	0.57350 0.87330 0.40140 -0.00700
C 	C 	0.63440 0.87559 0.35745 -0.23500
H 	H 	0.63410 0.84150 0.34940 0.11400
C 	C 	0.67157 0.90706 0.33808 0.20400
C 	C 	0.66965 0.95811 0.34929 -0.25200
H 	H 	0.69310 0.97990 0.33540 0.12500
C 	C 	0.63385 0.97699 0.38036 0.17200
H 	H 	0.63370 0.01120 0.38790 -0.02700
C 	C 	0.70417 0.84387 0.27888 0.23500
C 	C 	0.74065 0.80674 0.27908 -0.29000
H 	H 	0.76900 0.81000 0.29890 0.13500
C 	C 	0.96160 0.01910 0.17070 0.09500
H 	H 	0.93440 0.03290 0.18750 0.00500
C 	C 	0.96050 0.01920 0.12070 -0.17300
O 	O 	0.01150 0.98450 0.04770 -0.28800
N 	N 	0.91820 0.03700 0.04720 -0.20200
C 	C 	0.91700 0.04460 0.09520 0.08800
H 	H 	0.89230 0.06330 0.11110 -0.00100
C 	C 	0.87010 0.05250 0.02650 -0.14000
H 	H 	0.85850 0.08470 0.03800 0.06200
H 	H 	0.84700 0.02720 0.03800 0.05800
C 	C 	0.03610 0.96470 0.47170 -0.65700
H 	H 	0.02810 0.93100 0.46000 0.12600
H 	H 	0.06780 0.96910 0.46020 -0.03400
H 	H 	0.62690 0.08870 0.47150 0.04100
H 	H 	0.66950 0.15350 0.52850 0.02900
H 	H 	0.51470 0.15820 0.52860 0.04000
H 	H 	0.55730 0.22700 0.47150 0.03800
C 	C 	0.57570 0.13260 0.54710 -0.04600
H 	H 	0.58940 0.10580 0.56730 0.04200
H 	H 	0.54390 0.14310 0.56150 0.04000
C 	C 	0.61210 0.17710 0.54780 -0.05100
H 	H 	0.59920 0.20200 0.57060 0.04100
H 	H 	0.64420 0.16530 0.56060 0.03800
H 	H 	0.06950 0.97340 0.46000 0.12000
C 	C 	0.94950 0.00100 0.47190 -0.52900
N 	N 	0.38800 0.21073 0.80861 -0.20700
O 	O 	0.47536 0.42946 0.86289 -0.41500
O 	O 	0.47314 0.43186 0.78178 -0.41600
O 	O 	0.51103 0.06499 0.94942 -0.40600
O 	O 	0.43630 0.02523 0.94986 -0.40500
C 	C 	0.46685 0.41049 0.82209 0.39900
C 	C 	0.44675 0.35760 0.81950 -0.18100
C 	C 	0.43622 0.33644 0.77464 0.12600
H 	H 	0.44160 0.35510 0.74630 0.00200
C 	C 	0.41764 0.28767 0.77116 -0.22700
H 	H 	0.41120 0.27360 0.74060 0.11200
C 	C 	0.40877 0.26020 0.81267 0.19400
C 	C 	0.41894 0.28122 0.85783 -0.23000
H 	H 	0.41300 0.26270 0.88610 0.11700
C 	C 	0.43788 0.32949 0.86119 0.13000
H 	H 	0.44480 0.34330 0.89170 -0.00000
C 	C 	0.46599 0.05950 0.93591 0.38100
C 	C 	0.44524 0.09767 0.90070 -0.16900
C 	C 	0.39469 0.09799 0.88857 0.11900
H 	H 	0.37330 0.07350 0.90140 0.00000
C 	C 	0.37559 0.13440 0.85745 -0.21700
H 	H 	0.34150 0.13410 0.84940 0.10800
C 	C 	0.40706 0.17157 0.83808 0.18700
C 	C 	0.45811 0.16965 0.84929 -0.22000
H 	H 	0.47990 0.19310 0.83540 0.11100
C 	C 	0.47699 0.13385 0.88036 0.12100
H 	H 	0.51120 0.13370 0.88790 0.00000
C 	C 	0.34387 0.20417 0.77888 0.23400
C 	C 	0.30674 0.24065 0.77908 -0.28900
H 	H 	0.31000 0.26900 0.79890 0.13500
C 	C 	0.51910 0.46160 0.67070 0.09400
H 	H 	0.53290 0.43440 0.68750 0.00700
C 	C 	0.51920 0.46050 0.62070 -0.19200
O 	O 	0.48450 0.51150 0.54770 -0.28100
N 	N 	0.53700 0.41820 0.54720 -0.20500
C 	C 	0.54460 0.41700 0.59520 0.09800
H 	H 	0.56330 0.39230 0.61110 -0.00200
C 	C 	0.55250 0.37010 0.52650 -0.08300
H 	H 	0.58470 0.35850 0.53800 0.05100
H 	H 	0.52720 0.34700 0.53800 0.04900
C 	C 	0.46470 0.53610 0.97170 -0.00900
H 	H 	0.43100 0.52810 0.96000 0.04400
H 	H 	0.46910 0.56780 0.96020 0.01800
H 	H 	0.58870 0.12690 0.97150 0.07200
H 	H 	0.65350 0.16950 0.02850 0.04300
H 	H 	0.65820 0.01470 0.02860 0.04900
H 	H 	0.72700 0.05730 0.97150 0.06800
C 	C 	0.63260 0.07570 0.04710 -0.02700
H 	H 	0.60580 0.08940 0.06730 0.03500
H 	H 	0.64310 0.04390 0.06150 0.03200
C 	C 	0.67710 0.11210 0.04780 -0.03000
H 	H 	0.70200 0.09920 0.07060 0.03300
H 	H 	0.66530 0.14420 0.06060 0.03000
H 	H 	0.47340 0.56950 0.96000 0.01800
C 	C 	0.50100 0.44950 0.97190 -0.01200
N 	N 	0.61200 0.78927 0.80861 -0.20700
O 	O 	0.52464 0.57054 0.86289 -0.41500
O 	O 	0.52686 0.56814 0.78178 -0.41600
O 	O 	0.48897 0.93501 0.94942 -0.40000
O 	O 	0.56370 0.97477 0.94986 -0.39000
C 	C 	0.53315 0.58951 0.82209 0.39900
C 	C 	0.55325 0.64240 0.81950 -0.18100
C 	C 	0.56378 0.66356 0.77464 0.12600
H 	H 	0.55840 0.64490 0.74630 0.00200
C 	C 	0.58236 0.71233 0.77116 -0.22700
H 	H 	0.58880 0.72640 0.74060 0.11200
C 	C 	0.59123 0.73980 0.81267 0.19400
C 	C 	0.58106 0.71878 0.85783 -0.23000
H 	H 	0.58700 0.73730 0.88610 0.11700
C 	C 	0.56212 0.67051 0.86119 0.13000
H 	H 	0.55520 0.65670 0.89170 -0.00000
C 	C 	0.53401 0.94050 0.93591 0.37900
C 	C 	0.55476 0.90233 0.90070 -0.16300
C 	C 	0.60531 0.90201 0.88857 0.11600
H 	H 	0.62670 0.92650 0.90140 0.00600
C 	C 	0.62441 0.86560 0.85745 -0.21300
H 	H 	0.65850 0.86590 0.84940 0.10900
C 	C 	0.59294 0.82843 0.83808 0.18600
C 	C 	0.54189 0.83035 0.84929 -0.21700
H 	H 	0.52010 0.80690 0.83540 0.11100
C 	C 	0.52301 0.86615 0.88036 0.11900
H 	H 	0.48880 0.86630 0.88790 0.00300
C 	C 	0.65613 0.79583 0.77888 0.23600
C 	C 	0.69326 0.75935 0.77908 -0.29000
H 	H 	0.69000 0.73100 0.79890 0.13600
C 	C 	0.48090 0.53840 0.67070 0.09400
H 	H 	0.46710 0.56560 0.68750 0.00700
C 	C 	0.48080 0.53950 0.62070 -0.19200
O 	O 	0.51550 0.48850 0.54770 -0.28100
N 	N 	0.46300 0.58180 0.54720 -0.20500
C 	C 	0.45540 0.58300 0.59520 0.09800
H 	H 	0.43670 0.60770 0.61110 -0.00200
C 	C 	0.44750 0.62990 0.52650 -0.08300
H 	H 	0.41530 0.64150 0.53800 0.05100
H 	H 	0.47280 0.65300 0.53800 0.04900
C 	C 	0.53530 0.46390 0.97170 -0.00900
H 	H 	0.56900 0.47190 0.96000 0.04400
H 	H 	0.53090 0.43220 0.96020 0.01800
H 	H 	0.41130 0.87310 0.97150 0.07300
H 	H 	0.34650 0.83050 0.02850 0.04300
H 	H 	0.34180 0.98530 0.02860 0.05700
H 	H 	0.27300 0.94270 0.97150 0.07100
C 	C 	0.36740 0.92430 0.04710 -0.02900
H 	H 	0.39420 0.91060 0.06730 0.03800
H 	H 	0.35690 0.95610 0.06150 0.03700
C 	C 	0.32290 0.88790 0.04780 -0.03100
H 	H 	0.29800 0.90080 0.07060 0.03500
H 	H 	0.33470 0.85580 0.06060 0.03000
H 	H 	0.52660 0.43050 0.96000 0.01800
C 	C 	0.49900 0.55050 0.97190 -0.01200
N 	N 	0.78927 0.38800 0.80861 -0.20700
O 	O 	0.57054 0.47536 0.86289 -0.41500
O 	O 	0.56814 0.47314 0.78178 -0.41600
O 	O 	0.93501 0.51103 0.94942 -0.40000
O 	O 	0.97477 0.43630 0.94986 -0.39000
C 	C 	0.58951 0.46685 0.82209 0.39900
C 	C 	0.64240 0.44675 0.81950 -0.18100
C 	C 	0.66356 0.43622 0.77464 0.12600
H 	H 	0.64490 0.44160 0.74630 0.00200
C 	C 	0.71233 0.41764 0.77116 -0.22700
H 	H 	0.72640 0.41120 0.74060 0.11200
C 	C 	0.73980 0.40877 0.81267 0.19400
C 	C 	0.71878 0.41894 0.85783 -0.23000
H 	H 	0.73730 0.41300 0.88610 0.11700
C 	C 	0.67051 0.43788 0.86119 0.13000
H 	H 	0.65670 0.44480 0.89170 -0.00000
C 	C 	0.94050 0.46599 0.93591 0.37900
C 	C 	0.90233 0.44524 0.90070 -0.16300
C 	C 	0.90201 0.39469 0.88857 0.11600
H 	H 	0.92650 0.37330 0.90140 0.00600
C 	C 	0.86560 0.37559 0.85745 -0.21300
H 	H 	0.86590 0.34150 0.84940 0.10900
C 	C 	0.82843 0.40706 0.83808 0.18600
C 	C 	0.83035 0.45811 0.84929 -0.21700
H 	H 	0.80690 0.47990 0.83540 0.11100
C 	C 	0.86615 0.47699 0.88036 0.11900
H 	H 	0.86630 0.51120 0.88790 0.00300
C 	C 	0.79583 0.34387 0.77888 0.23600
C 	C 	0.75935 0.30674 0.77908 -0.29000
H 	H 	0.73100 0.31000 0.79890 0.13600
C 	C 	0.53840 0.51910 0.67070 0.09400
H 	H 	0.56560 0.53290 0.68750 0.00700
C 	C 	0.53950 0.51920 0.62070 -0.19200
O 	O 	0.48850 0.48450 0.54770 -0.28100
N 	N 	0.58180 0.53700 0.54720 -0.20500
C 	C 	0.58300 0.54460 0.59520 0.09800
H 	H 	0.60770 0.56330 0.61110 -0.00200
C 	C 	0.62990 0.55250 0.52650 -0.08300
H 	H 	0.64150 0.58470 0.53800 0.05100
H 	H 	0.65300 0.52720 0.53800 0.04900
C 	C 	0.46390 0.46470 0.97170 -0.00900
H 	H 	0.47190 0.43100 0.96000 0.04400
H 	H 	0.43220 0.46910 0.96020 0.01800
H 	H 	0.87310 0.58870 0.97150 0.07300
H 	H 	0.83050 0.65350 0.02850 0.04300
H 	H 	0.98530 0.65820 0.02860 0.05700
H 	H 	0.94270 0.72700 0.97150 0.07100
C 	C 	0.92430 0.63260 0.04710 -0.02900
H 	H 	0.91060 0.60580 0.06730 0.03800
H 	H 	0.95610 0.64310 0.06150 0.03700
C 	C 	0.88790 0.67710 0.04780 -0.03100
H 	H 	0.90080 0.70200 0.07060 0.03500
H 	H 	0.85580 0.66530 0.06060 0.03100
H 	H 	0.43050 0.47340 0.96000 0.01800
C 	C 	0.55050 0.50100 0.97190 -0.01200
N 	N 	0.21073 0.61200 0.80861 -0.20700
O 	O 	0.42946 0.52464 0.86289 -0.41500
O 	O 	0.43186 0.52686 0.78178 -0.41600
O 	O 	0.06499 0.48897 0.94942 -0.40600
O 	O 	0.02523 0.56370 0.94986 -0.40500
C 	C 	0.41049 0.53315 0.82209 0.39900
C 	C 	0.35760 0.55325 0.81950 -0.18100
C 	C 	0.33644 0.56378 0.77464 0.12600
H 	H 	0.35510 0.55840 0.74630 0.00200
C 	C 	0.28767 0.58236 0.77116 -0.22700
H 	H 	0.27360 0.58880 0.74060 0.11200
C 	C 	0.26020 0.59123 0.81267 0.19400
C 	C 	0.28122 0.58106 0.85783 -0.23000
H 	H 	0.26270 0.58700 0.88610 0.11700
C 	C 	0.32949 0.56212 0.86119 0.13000
H 	H 	0.34330 0.55520 0.89170 -0.00000
C 	C 	0.05950 0.53401 0.93591 0.38100
C 	C 	0.09767 0.55476 0.90070 -0.16900
C 	C 	0.09799 0.60531 0.88857 0.11900
H 	H 	0.07350 0.62670 0.90140 0.00000
C 	C 	0.13440 0.62441 0.85745 -0.21700
H 	H 	0.13410 0.65850 0.84940 0.10800
C 	C 	0.17157 0.59294 0.83808 0.18700
C 	C 	0.16965 0.54189 0.84929 -0.22000
H 	H 	0.19310 0.52010 0.83540 0.11100
C 	C 	0.13385 0.52301 0.88036 0.12100
H 	H 	0.13370 0.48880 0.88790 0.00000
C 	C 	0.20417 0.65613 0.77888 0.23400
C 	C 	0.24065 0.69326 0.77908 -0.28900
H 	H 	0.26900 0.69000 0.79890 0.13500
C 	C 	0.46160 0.48090 0.67070 0.09400
H 	H 	0.43440 0.46710 0.68750 0.00700
C 	C 	0.46050 0.48080 0.62070 -0.19200
O 	O 	0.51150 0.51550 0.54770 -0.28100
N 	N 	0.41820 0.46300 0.54720 -0.20500
C 	C 	0.41700 0.45540 0.59520 0.09800
H 	H 	0.39230 0.43670 0.61110 -0.00200
C 	C 	0.37010 0.44750 0.52650 -0.08300
H 	H 	0.35850 0.41530 0.53800 0.05100
H 	H 	0.34700 0.47280 0.53800 0.04900
C 	C 	0.53610 0.53530 0.97170 -0.00900
H 	H 	0.52810 0.56900 0.96000 0.04400
H 	H 	0.56780 0.53090 0.96020 0.01800
H 	H 	0.12690 0.41130 0.97150 0.07200
H 	H 	0.16950 0.34650 0.02850 0.04300
H 	H 	0.01470 0.34180 0.02860 0.04900
H 	H 	0.05730 0.27300 0.97150 0.06800
C 	C 	0.07570 0.36740 0.04710 -0.02700
H 	H 	0.08940 0.39420 0.06730 0.03500
H 	H 	0.04390 0.35690 0.06150 0.03200
C 	C 	0.11210 0.32290 0.04780 -0.03000
H 	H 	0.09920 0.29800 0.07060 0.03200
H 	H 	0.14420 0.33470 0.06060 0.03000
H 	H 	0.56950 0.52660 0.96000 0.01800
C 	C 	0.44950 0.49900 0.97190 -0.01200
N 	N 	0.11200 0.71073 0.69139 -0.20500
O 	O 	0.02464 0.92946 0.63711 -0.41400
O 	O 	0.02686 0.93186 0.71822 -0.41300
O 	O 	0.98897 0.56499 0.55058 -0.39800
O 	O 	0.06370 0.52523 0.55014 -0.40500
C 	C 	0.03315 0.91049 0.67791 0.39800
C 	C 	0.05325 0.85760 0.68050 -0.18200
C 	C 	0.06378 0.83644 0.72536 0.12600
H 	H 	0.05840 0.85510 0.75370 0.00100
C 	C 	0.08236 0.78767 0.72884 -0.22800
H 	H 	0.08880 0.77360 0.75940 0.11100
C 	C 	0.09123 0.76020 0.68733 0.19300
C 	C 	0.08106 0.78122 0.64217 -0.23100
H 	H 	0.08700 0.76270 0.61390 0.11300
C 	C 	0.06212 0.82949 0.63881 0.12900
H 	H 	0.05520 0.84330 0.60830 -0.00500
C 	C 	0.03401 0.55950 0.56409 0.35500
C 	C 	0.05476 0.59767 0.59930 -0.14300
C 	C 	0.10531 0.59799 0.61143 0.09500
H 	H 	0.12670 0.57350 0.59860 0.00800
C 	C 	0.12441 0.63440 0.64255 -0.19900
H 	H 	0.15850 0.63410 0.65060 0.10100
C 	C 	0.09294 0.67157 0.66192 0.16900
C 	C 	0.04189 0.66965 0.65071 -0.18900
H 	H 	0.02010 0.69310 0.66460 0.09700
C 	C 	0.02301 0.63385 0.61964 0.06900
H 	H 	0.98880 0.63370 0.61210 0.02700
C 	C 	0.15613 0.70417 0.72112 0.23400
C 	C 	0.19326 0.74065 0.72092 -0.28900
H 	H 	0.19000 0.76900 0.70110 0.13500
C 	C 	0.98090 0.96160 0.82930 0.10300
H 	H 	0.96710 0.93440 0.81250 0.00800
C 	C 	0.98080 0.96050 0.87930 -0.16000
O 	O 	0.01550 0.01150 0.95230 -0.29400
N 	N 	0.96300 0.91820 0.95280 -0.20200
C 	C 	0.95540 0.91700 0.90480 0.09000
H 	H 	0.93670 0.89230 0.88890 0.00300
C 	C 	0.94750 0.87010 0.97350 -0.02400
H 	H 	0.91530 0.85850 0.96200 0.04100
H 	H 	0.97280 0.84700 0.96200 0.04000
C 	C 	0.03530 0.03610 0.52830 -0.04700
H 	H 	0.06900 0.02810 0.54000 -0.13900
H 	H 	0.03090 0.06780 0.53980 0.11800
H 	H 	0.91130 0.62690 0.52850 0.04300
H 	H 	0.84650 0.66950 0.47150 0.03100
H 	H 	0.84180 0.51470 0.47140 0.04100
H 	H 	0.77300 0.55730 0.52850 0.03800
C 	C 	0.86740 0.57570 0.45290 -0.04600
H 	H 	0.89420 0.58940 0.43270 0.04300
H 	H 	0.85690 0.54390 0.43850 0.04100
C 	C 	0.82290 0.61210 0.45220 -0.05100
H 	H 	0.79800 0.59920 0.42940 0.04200
H 	H 	0.83470 0.64420 0.43940 0.03900
H 	H 	0.02660 0.06950 0.54000 0.06800
C 	C 	0.99900 0.94950 0.52810 0.38300
N 	N 	0.88800 0.28927 0.69139 -0.21000
O 	O 	0.97536 0.07054 0.63711 -0.41000
O 	O 	0.97314 0.06814 0.71822 -0.41000
O 	O 	0.01103 0.43501 0.55058 -0.43100
O 	O 	0.93630 0.47477 0.55014 -0.41400
C 	C 	0.96685 0.08951 0.67791 0.39700
C 	C 	0.94675 0.14240 0.68050 -0.17900
C 	C 	0.93622 0.16356 0.72536 0.12500
H 	H 	0.94160 0.14490 0.75370 0.00400
C 	C 	0.91764 0.21233 0.72884 -0.22600
H 	H 	0.91120 0.22640 0.75940 0.11300
C 	C 	0.90877 0.23980 0.68733 0.19400
C 	C 	0.91894 0.21878 0.64217 -0.23000
H 	H 	0.91300 0.23730 0.61390 0.11400
C 	C 	0.93788 0.17051 0.63881 0.12800
H 	H 	0.94480 0.15670 0.60830 -0.00100
C 	C 	0.96599 0.44050 0.56409 0.40800
C 	C 	0.94524 0.40233 0.59930 -0.19800
C 	C 	0.89469 0.40201 0.61143 0.14100
H 	H 	0.87330 0.42650 0.59860 -0.00700
C 	C 	0.87559 0.36560 0.64255 -0.23600
H 	H 	0.84150 0.36590 0.65060 0.11400
C 	C 	0.90706 0.32843 0.66192 0.20500
C 	C 	0.95811 0.33035 0.65071 -0.25300
H 	H 	0.97990 0.30690 0.66460 0.12600
C 	C 	0.97699 0.36615 0.61964 0.17500
H 	H 	0.01120 0.36630 0.61210 -0.02800
C 	C 	0.84387 0.29583 0.72112 0.23600
C 	C 	0.80674 0.25935 0.72092 -0.29100
H 	H 	0.81000 0.23100 0.70110 0.13400
C 	C 	0.01910 0.03840 0.82930 0.07200
H 	H 	0.03290 0.06560 0.81250 0.01000
C 	C 	0.01920 0.03950 0.87930 -0.17500
O 	O 	0.98450 0.98850 0.95230 -0.22800
N 	N 	0.03700 0.08180 0.95280 -0.20400
C 	C 	0.04460 0.08300 0.90480 0.08900
H 	H 	0.06330 0.10770 0.88890 -0.00000
C 	C 	0.05250 0.12990 0.97350 -0.02400
H 	H 	0.08470 0.14150 0.96200 0.03800
H 	H 	0.02720 0.15300 0.96200 0.03600
C 	C 	0.96470 0.96390 0.52830 0.00900
H 	H 	0.93100 0.97190 0.54000 0.22500
H 	H 	0.96910 0.93220 0.53980 -0.08000
H 	H 	0.08870 0.37310 0.52850 0.04100
H 	H 	0.15350 0.33050 0.47150 0.03000
H 	H 	0.15820 0.48530 0.47140 0.04000
H 	H 	0.22700 0.44270 0.52850 0.03800
C 	C 	0.13260 0.42430 0.45290 -0.04600
H 	H 	0.10580 0.41060 0.43270 0.04200
H 	H 	0.14310 0.45610 0.43850 0.04100
C 	C 	0.17710 0.38790 0.45220 -0.05100
H 	H 	0.20200 0.40080 0.42940 0.04100
H 	H 	0.16530 0.35580 0.43940 0.03800
H 	H 	0.97340 0.93050 0.54000 -0.03200
C 	C 	0.00100 0.05050 0.52810 -0.42900
N 	N 	0.71073 0.88800 0.69139 -0.21000
O 	O 	0.92946 0.97536 0.63711 -0.40700
O 	O 	0.93186 0.97314 0.71822 -0.40500
O 	O 	0.56499 0.01103 0.55058 -0.43000
O 	O 	0.52523 0.93630 0.55014 -0.41400
C 	C 	0.91049 0.96685 0.67791 0.39800
C 	C 	0.85760 0.94675 0.68050 -0.17900
C 	C 	0.83644 0.93622 0.72536 0.12600
H 	H 	0.85510 0.94160 0.75370 0.00500
C 	C 	0.78767 0.91764 0.72884 -0.22600
H 	H 	0.77360 0.91120 0.75940 0.11400
C 	C 	0.76020 0.90877 0.68733 0.19400
C 	C 	0.78122 0.91894 0.64217 -0.23000
H 	H 	0.76270 0.91300 0.61390 0.11500
C 	C 	0.82949 0.93788 0.63881 0.13000
H 	H 	0.84330 0.94480 0.60830 -0.00300
C 	C 	0.55950 0.96599 0.56409 0.40800
C 	C 	0.59767 0.94524 0.59930 -0.19700
C 	C 	0.59799 0.89469 0.61143 0.14000
H 	H 	0.57350 0.87330 0.59860 -0.00700
C 	C 	0.63440 0.87559 0.64255 -0.23500
H 	H 	0.63410 0.84150 0.65060 0.11400
C 	C 	0.67157 0.90706 0.66192 0.20400
C 	C 	0.66965 0.95811 0.65071 -0.25200
H 	H 	0.69310 0.97990 0.66460 0.12500
C 	C 	0.63385 0.97699 0.61964 0.17200
H 	H 	0.63370 0.01120 0.61210 -0.02700
C 	C 	0.70417 0.84387 0.72112 0.23600
C 	C 	0.74065 0.80674 0.72092 -0.29000
H 	H 	0.76900 0.81000 0.70110 0.13500
C 	C 	0.96160 0.01910 0.82930 0.09300
H 	H 	0.93440 0.03290 0.81250 0.00600
C 	C 	0.96050 0.01920 0.87930 -0.16900
O 	O 	0.01150 0.98450 0.95230 -0.28100
N 	N 	0.91820 0.03700 0.95280 -0.20400
C 	C 	0.91700 0.04460 0.90480 0.09000
H 	H 	0.89230 0.06330 0.88890 0.00100
C 	C 	0.87010 0.05250 0.97350 -0.02300
H 	H 	0.85850 0.08470 0.96200 0.04000
H 	H 	0.84700 0.02720 0.96200 0.03500
C 	C 	0.03610 0.96470 0.52830 -0.65700
H 	H 	0.02810 0.93100 0.54000 0.12600
H 	H 	0.06780 0.96910 0.53980 -0.03400
H 	H 	0.62690 0.08870 0.52850 0.04100
H 	H 	0.66950 0.15350 0.47150 0.02900
H 	H 	0.51470 0.15820 0.47140 0.04000
H 	H 	0.55730 0.22700 0.52850 0.03800
C 	C 	0.57570 0.13260 0.45290 -0.04600
H 	H 	0.58940 0.10580 0.43270 0.04200
H 	H 	0.54390 0.14310 0.43850 0.04000
C 	C 	0.61210 0.17710 0.45220 -0.05100
H 	H 	0.59920 0.20200 0.42940 0.04100
H 	H 	0.64420 0.16530 0.43940 0.03800
H 	H 	0.06950 0.97340 0.54000 0.12000
C 	C 	0.94950 0.00100 0.52810 -0.52900
N 	N 	0.28927 0.11200 0.69139 -0.20400
O 	O 	0.07054 0.02464 0.63711 -0.41900
O 	O 	0.06814 0.02686 0.71822 -0.42100
O 	O 	0.43501 0.98897 0.55058 -0.39800
O 	O 	0.47477 0.06370 0.55014 -0.40400
C 	C 	0.08951 0.03315 0.67791 0.39800
C 	C 	0.14240 0.05325 0.68050 -0.18300
C 	C 	0.16356 0.06378 0.72536 0.12500
H 	H 	0.14490 0.05840 0.75370 0.00000
C 	C 	0.21233 0.08236 0.72884 -0.22800
H 	H 	0.22640 0.08880 0.75940 0.11100
C 	C 	0.23980 0.09123 0.68733 0.19200
C 	C 	0.21878 0.08106 0.64217 -0.23000
H 	H 	0.23730 0.08700 0.61390 0.11300
C 	C 	0.17051 0.06212 0.63881 0.12700
H 	H 	0.15670 0.05520 0.60830 -0.00400
C 	C 	0.44050 0.03401 0.56409 0.35400
C 	C 	0.40233 0.05476 0.59930 -0.14200
C 	C 	0.40201 0.10531 0.61143 0.09400
H 	H 	0.42650 0.12670 0.59860 0.00900
C 	C 	0.36560 0.12441 0.64255 -0.19800
H 	H 	0.36590 0.15850 0.65060 0.10100
C 	C 	0.32843 0.09294 0.66192 0.16800
C 	C 	0.33035 0.04189 0.65071 -0.18700
H 	H 	0.30690 0.02010 0.66460 0.09600
C 	C 	0.36615 0.02301 0.61964 0.06600
H 	H 	0.36630 0.98880 0.61210 0.02800
C 	C 	0.29583 0.15613 0.72112 0.23300
C 	C 	0.25935 0.19326 0.72092 -0.28900
H 	H 	0.23100 0.19000 0.70110 0.13400
C 	C 	0.03840 0.98090 0.82930 0.09100
H 	H 	0.06560 0.96710 0.81250 0.01000
C 	C 	0.03950 0.98080 0.87930 -0.16300
O 	O 	0.98850 0.01550 0.95230 -0.26900
N 	N 	0.08180 0.96300 0.95280 -0.20000
C 	C 	0.08300 0.95540 0.90480 0.09000
H 	H 	0.10770 0.93670 0.88890 0.00200
C 	C 	0.12990 0.94750 0.97350 -0.02500
H 	H 	0.14150 0.91530 0.96200 0.03900
H 	H 	0.15300 0.97280 0.96200 0.04100
C 	C 	0.96390 0.03530 0.52830 0.62100
H 	H 	0.97190 0.06900 0.54000 -0.03500
H 	H 	0.93220 0.03090 0.53980 0.07000
H 	H 	0.37310 0.91130 0.52850 0.04300
H 	H 	0.33050 0.84650 0.47150 0.03100
H 	H 	0.48530 0.84180 0.47140 0.04100
H 	H 	0.44270 0.77300 0.52850 0.03800
C 	C 	0.42430 0.86740 0.45290 -0.04600
H 	H 	0.41060 0.89420 0.43270 0.04300
H 	H 	0.45610 0.85690 0.43850 0.04100
C 	C 	0.38790 0.82290 0.45220 -0.05100
H 	H 	0.40080 0.79800 0.42940 0.04200
H 	H 	0.35580 0.83470 0.43940 0.03900
H 	H 	0.93050 0.02660 0.54000 -0.08500
C 	C 	0.05050 0.99900 0.52810 0.49400
Cu	Cu	0.50000 0.50000 0.12851 0.91000
Cu	Cu	0.50000 0.50000 0.22607 0.92300
N 	N 	0.50000 0.50000 0.30365 -0.23900
N 	N 	0.50000 0.50000 0.04787 -0.13100
C 	C 	0.50000 0.50000 0.40600 0.62400
Cu	Cu	0.00000 0.00000 0.37149 0.89900
Cu	Cu	-0.00000 0.00000 0.27393 0.91200
N 	N 	0.00000 0.00000 0.19635 -0.25200
N 	N 	-0.00000 0.00000 0.45213 -0.15900
C 	C 	0.00000 0.00000 0.09400 0.55300
Cu	Cu	0.50000 0.50000 0.87149 0.91000
Cu	Cu	0.50000 0.50000 0.77393 0.92300
N 	N 	0.50000 0.50000 0.69635 -0.23900
N 	N 	0.50000 0.50000 0.95213 -0.15000
C 	C 	0.50000 0.50000 0.59400 0.62400
Cu	Cu	0.00000 -0.00000 0.62851 0.89900
Cu	Cu	-0.00000 0.00000 0.72607 0.91200
N 	N 	0.00000 0.00000 0.80365 -0.25100
N 	N 	-0.00000 0.00000 0.54787 -0.15900
C 	C 	0.00000 -0.00000 0.90600 0.54300
Cu	Cu	0.45617 0.97601 -0.00000 0.90900
N 	N 	0.38670 0.93374 -0.00000 -0.14800
N 	N 	0.29660 0.87780 -0.00000 -0.10000
C 	C 	0.39170 0.88250 -0.00000 -0.09100
C 	C 	0.34540 0.85230 -0.00000 -0.08400
C 	C 	0.34150 0.96370 -0.00000 -0.10900
C 	C 	0.29240 0.93290 -0.00000 -0.09000
Cu	Cu	0.54383 0.02399 -0.00000 0.89900
N 	N 	0.61330 0.06626 -0.00000 -0.15100
N 	N 	0.70340 0.12220 -0.00000 -0.09900
C 	C 	0.60830 0.11750 -0.00000 -0.09000
C 	C 	0.65460 0.14770 -0.00000 -0.08400
C 	C 	0.65850 0.03630 -0.00000 -0.10300
C 	C 	0.70760 0.06710 -0.00000 -0.09100
Cu	Cu	0.02399 0.45617 -0.00000 0.89900
N 	N 	0.06626 0.38670 -0.00000 -0.15100
N 	N 	0.12220 0.29660 -0.00000 -0.10000
C 	C 	0.11750 0.39170 -0.00000 -0.09000
C 	C 	0.14770 0.34540 -0.00000 -0.08400
C 	C 	0.03630 0.34150 -0.00000 -0.10300
C 	C 	0.06710 0.29240 -0.00000 -0.09100
Cu	Cu	0.97601 0.54383 -0.00000 0.90900
N 	N 	0.93374 0.61330 -0.00000 -0.14800
N 	N 	0.87780 0.70340 -0.00000 -0.09900
C 	C 	0.88250 0.60830 -0.00000 -0.09100
C 	C 	0.85230 0.65460 -0.00000 -0.08400
C 	C 	0.96370 0.65850 -0.00000 -0.10800
C 	C 	0.93290 0.70760 -0.00000 -0.09000
Cu	Cu	0.04383 0.47601 0.50000 0.91400
N 	N 	0.11330 0.43374 0.50000 -0.14500
N 	N 	0.20340 0.37780 0.50000 -0.09400
C 	C 	0.10830 0.38250 0.50000 -0.04100
C 	C 	0.15460 0.35230 0.50000 -0.02700
C 	C 	0.15850 0.46370 0.50000 -0.05000
C 	C 	0.20760 0.43290 0.50000 -0.04400
Cu	Cu	0.95617 0.52399 0.50000 0.91700
N 	N 	0.88670 0.56626 0.50000 -0.14500
N 	N 	0.79660 0.62220 0.50000 -0.09400
C 	C 	0.89170 0.61750 0.50000 -0.04300
C 	C 	0.84540 0.64770 0.50000 -0.02700
C 	C 	0.84150 0.53630 0.50000 -0.05100
C 	C 	0.79240 0.56710 0.50000 -0.04300
Cu	Cu	0.47601 0.95617 0.50000 0.91700
N 	N 	0.43374 0.88670 0.50000 -0.14500
N 	N 	0.37780 0.79660 0.50000 -0.09300
C 	C 	0.38250 0.89170 0.50000 -0.04300
C 	C 	0.35230 0.84540 0.50000 -0.02800
C 	C 	0.46370 0.84150 0.50000 -0.05100
C 	C 	0.43290 0.79240 0.50000 -0.04300
Cu	Cu	0.52399 0.04383 0.50000 0.91400
N 	N 	0.56626 0.11330 0.50000 -0.14500
N 	N 	0.62220 0.20340 0.50000 -0.09400
C 	C 	0.61750 0.10830 0.50000 -0.04200
C 	C 	0.64770 0.15460 0.50000 -0.02700
C 	C 	0.53630 0.15850 0.50000 -0.05000
C 	C 	0.56710 0.20760 0.50000 -0.04400
C 	C 	0.73486 0.76514 0.25000 0.20300
H 	H 	0.75970 0.74030 0.25000 -0.04300
C 	C 	0.66179 0.83821 0.25000 -0.30400
H 	H 	0.63700 0.86300 0.25000 0.14300
C 	C 	0.26514 0.23486 0.25000 0.20100
H 	H 	0.24030 0.25970 0.25000 -0.04400
C 	C 	0.33821 0.16179 0.25000 -0.30200
H 	H 	0.36300 0.13700 0.25000 0.14100
C 	C 	0.23486 0.73486 0.25000 0.20100
H 	H 	0.25970 0.75970 0.25000 -0.04300
C 	C 	0.16179 0.66179 0.25000 -0.30200
H 	H 	0.13700 0.63700 0.25000 0.14100
C 	C 	0.76514 0.26514 0.25000 0.20300
H 	H 	0.74030 0.24030 0.25000 -0.04400
C 	C 	0.83821 0.33821 0.25000 -0.30400
H 	H 	0.86300 0.36300 0.25000 0.14300
C 	C 	0.26514 0.23486 0.75000 0.20200
H 	H 	0.24030 0.25970 0.75000 -0.04300
C 	C 	0.33821 0.16179 0.75000 -0.30200
H 	H 	0.36300 0.13700 0.75000 0.14100
C 	C 	0.73486 0.76514 0.75000 0.20500
H 	H 	0.75970 0.74030 0.75000 -0.04200
C 	C 	0.66179 0.83821 0.75000 -0.30400
H 	H 	0.63700 0.86300 0.75000 0.14300
C 	C 	0.76514 0.26514 0.75000 0.20400
H 	H 	0.74030 0.24030 0.75000 -0.04400
C 	C 	0.83821 0.33821 0.75000 -0.30400
H 	H 	0.86300 0.36300 0.75000 0.14300
C 	C 	0.23486 0.73486 0.75000 0.20300
H 	H 	0.25970 0.75970 0.75000 -0.04200
C 	C 	0.16179 0.66179 0.75000 -0.30200
H 	H 	0.13700 0.63700 0.75000 0.14100
Cu	Cu	0.48270 0.53240 0.50000 0.73500
Cu	Cu	0.51730 0.46760 0.50000 0.73500
Cu	Cu	0.46760 0.48270 0.50000 0.73500
Cu	Cu	0.53240 0.51730 0.50000 0.73500
Cu	Cu	0.01730 0.03240 -0.00000 0.72000
Cu	Cu	0.98270 0.96760 -0.00000 0.72200
Cu	Cu	0.03240 0.98270 -0.00000 0.72800
Cu	Cu	0.96760 0.01730 -0.00000 0.71900
