data_crystal

_cell_length_a 32.09410
_cell_length_b 32.09410
_cell_length_c 32.09410
_cell_angle_alpha 90.00000
_cell_angle_beta  90.00000
_cell_angle_gamma 90.00000

_symmetry_space_group_name_	'P 1'
_symmetry_space_group_name_H-M	'P 1'

loop_
_symmetry_equiv_pos_as_xyz
  x,y,z

loop_
_atom_site_label
_atom_site_type_symbol
_atom_site_fract_x
_atom_site_fract_y
_atom_site_fract_z
_atom_site_charge
O 	O 	0.89650 0.51750 0.49620 -0.18800
O 	O 	0.91371 0.48141 0.44098 -0.19800
C 	C 	0.78760 0.40476 0.49090 0.11300
C 	C 	0.79640 0.43600 0.51940 -0.14300
H 	H 	0.77980 0.43880 0.54370 0.09100
C 	C 	0.85480 0.45770 0.47850 -0.09000
C 	C 	0.82870 0.46260 0.51280 0.05600
H 	H 	0.83340 0.48490 0.53170 0.04100
C 	C 	0.84460 0.42700 0.45100 0.06400
H 	H 	0.86040 0.42470 0.42610 0.03900
C 	C 	0.89170 0.48790 0.47090 0.31000
C 	C 	0.81350 0.39990 0.45720 -0.14700
H 	H 	0.80940 0.37740 0.43830 0.09300
O 	O 	0.39650 0.01750 0.99620 -0.18700
O 	O 	0.41371 0.98141 0.94098 -0.19800
C 	C 	0.28760 0.90476 0.99090 0.11000
C 	C 	0.29640 0.93600 0.01940 -0.14100
H 	H 	0.27980 0.93880 0.04370 0.09100
C 	C 	0.35480 0.95770 0.97850 -0.09000
C 	C 	0.32870 0.96260 0.01280 0.05600
H 	H 	0.33340 0.98490 0.03170 0.04100
C 	C 	0.34460 0.92700 0.95100 0.06300
H 	H 	0.36040 0.92470 0.92610 0.03900
C 	C 	0.39170 0.98790 0.97090 0.30900
C 	C 	0.31350 0.89990 0.95720 -0.14600
H 	H 	0.30940 0.87740 0.93830 0.09300
O 	O 	0.60350 0.48250 0.99620 -0.18800
O 	O 	0.58629 0.51859 0.94098 -0.19900
C 	C 	0.71240 0.59524 0.99090 0.10900
C 	C 	0.70360 0.56400 0.01940 -0.14200
H 	H 	0.72020 0.56120 0.04370 0.09000
C 	C 	0.64520 0.54230 0.97850 -0.09100
C 	C 	0.67130 0.53740 0.01280 0.05500
H 	H 	0.66660 0.51510 0.03170 0.04000
C 	C 	0.65540 0.57300 0.95100 0.06300
H 	H 	0.63960 0.57530 0.92610 0.03800
C 	C 	0.60830 0.51210 0.97090 0.30900
C 	C 	0.68650 0.60010 0.95720 -0.14700
H 	H 	0.69060 0.62260 0.93830 0.09200
O 	O 	0.10350 0.98250 0.49620 -0.19000
O 	O 	0.08629 0.01859 0.44098 -0.19900
C 	C 	0.21240 0.09524 0.49090 0.11200
C 	C 	0.20360 0.06400 0.51940 -0.14400
H 	H 	0.22020 0.06120 0.54370 0.09000
C 	C 	0.14520 0.04230 0.47850 -0.09100
C 	C 	0.17130 0.03740 0.51280 0.05500
H 	H 	0.16660 0.01510 0.53170 0.04000
C 	C 	0.15540 0.07300 0.45100 0.06300
H 	H 	0.13960 0.07530 0.42610 0.03800
C 	C 	0.10830 0.01210 0.47090 0.31000
C 	C 	0.18650 0.10010 0.45720 -0.14900
H 	H 	0.19060 0.12260 0.43830 0.09200
O 	O 	0.10350 0.01750 0.00380 -0.18700
O 	O 	0.08629 0.98141 0.05902 -0.19900
C 	C 	0.21240 0.90476 0.00910 0.11200
C 	C 	0.20360 0.93600 0.98060 -0.14400
H 	H 	0.22020 0.93880 0.95630 0.09000
C 	C 	0.14520 0.95770 0.02150 -0.08900
C 	C 	0.17130 0.96260 0.98720 0.05300
H 	H 	0.16660 0.98490 0.96830 0.04000
C 	C 	0.15540 0.92700 0.04900 0.06200
H 	H 	0.13960 0.92470 0.07390 0.03800
C 	C 	0.10830 0.98790 0.02910 0.30800
C 	C 	0.18650 0.89990 0.04280 -0.14800
H 	H 	0.19060 0.87740 0.06170 0.09200
O 	O 	0.60350 0.51750 0.50380 -0.18900
O 	O 	0.58629 0.48141 0.55902 -0.19900
C 	C 	0.71240 0.40476 0.50910 0.11200
C 	C 	0.70360 0.43600 0.48060 -0.14400
H 	H 	0.72020 0.43880 0.45630 0.09000
C 	C 	0.64520 0.45770 0.52150 -0.09100
C 	C 	0.67130 0.46260 0.48720 0.05500
H 	H 	0.66660 0.48490 0.46830 0.04000
C 	C 	0.65540 0.42700 0.54900 0.06300
H 	H 	0.63960 0.42470 0.57390 0.03800
C 	C 	0.60830 0.48790 0.52910 0.30900
C 	C 	0.68650 0.39990 0.54280 -0.14800
H 	H 	0.69060 0.37740 0.56170 0.09200
O 	O 	0.39650 0.98250 0.50380 -0.19000
O 	O 	0.41371 0.01859 0.55902 -0.19900
C 	C 	0.28760 0.09524 0.50910 0.11200
C 	C 	0.29640 0.06400 0.48060 -0.14400
H 	H 	0.27980 0.06120 0.45630 0.09000
C 	C 	0.35480 0.04230 0.52150 -0.09100
C 	C 	0.32870 0.03740 0.48720 0.05500
H 	H 	0.33340 0.01510 0.46830 0.04000
C 	C 	0.34460 0.07300 0.54900 0.06300
H 	H 	0.36040 0.07530 0.57390 0.03800
C 	C 	0.39170 0.01210 0.52910 0.31000
C 	C 	0.31350 0.10010 0.54280 -0.14900
H 	H 	0.30940 0.12260 0.56170 0.09200
O 	O 	0.89650 0.48250 0.00380 -0.18900
O 	O 	0.91371 0.51859 0.05902 -0.19900
C 	C 	0.78760 0.59524 0.00910 0.11200
C 	C 	0.79640 0.56400 0.98060 -0.14400
H 	H 	0.77980 0.56120 0.95630 0.09000
C 	C 	0.85480 0.54230 0.02150 -0.09000
C 	C 	0.82870 0.53740 0.98720 0.05300
H 	H 	0.83340 0.51510 0.96830 0.04000
C 	C 	0.84460 0.57300 0.04900 0.06300
H 	H 	0.86040 0.57530 0.07390 0.03800
C 	C 	0.89170 0.51210 0.02910 0.30900
C 	C 	0.81350 0.60010 0.04280 -0.14800
H 	H 	0.80940 0.62260 0.06170 0.09200
O 	O 	0.49620 0.89650 0.51750 -0.18900
O 	O 	0.44098 0.91371 0.48141 -0.19900
C 	C 	0.49090 0.78760 0.40476 0.11200
C 	C 	0.51940 0.79640 0.43600 -0.14400
H 	H 	0.54370 0.77980 0.43880 0.09000
C 	C 	0.47850 0.85480 0.45770 -0.09100
C 	C 	0.51280 0.82870 0.46260 0.05500
H 	H 	0.53170 0.83340 0.48490 0.04000
C 	C 	0.45100 0.84460 0.42700 0.06300
H 	H 	0.42610 0.86040 0.42470 0.03800
C 	C 	0.47090 0.89170 0.48790 0.30900
C 	C 	0.45720 0.81350 0.39990 -0.14800
H 	H 	0.43830 0.80940 0.37740 0.09200
O 	O 	0.99620 0.39650 0.01750 -0.18800
O 	O 	0.94098 0.41371 0.98141 -0.19900
C 	C 	0.99090 0.28760 0.90476 0.10900
C 	C 	0.01940 0.29640 0.93600 -0.14200
H 	H 	0.04370 0.27980 0.93880 0.09000
C 	C 	0.97850 0.35480 0.95770 -0.09100
C 	C 	0.01280 0.32870 0.96260 0.05500
H 	H 	0.03170 0.33340 0.98490 0.04000
C 	C 	0.95100 0.34460 0.92700 0.06200
H 	H 	0.92610 0.36040 0.92470 0.03800
C 	C 	0.97090 0.39170 0.98790 0.30800
C 	C 	0.95720 0.31350 0.89990 -0.14700
H 	H 	0.93830 0.30940 0.87740 0.09200
O 	O 	0.99620 0.60350 0.48250 -0.18900
O 	O 	0.94098 0.58629 0.51859 -0.19900
C 	C 	0.99090 0.71240 0.59524 0.10900
C 	C 	0.01940 0.70360 0.56400 -0.14200
H 	H 	0.04370 0.72020 0.56120 0.09000
C 	C 	0.97850 0.64520 0.54230 -0.09100
C 	C 	0.01280 0.67130 0.53740 0.05500
H 	H 	0.03170 0.66660 0.51510 0.04000
C 	C 	0.95100 0.65540 0.57300 0.06300
H 	H 	0.92610 0.63960 0.57530 0.03800
C 	C 	0.97090 0.60830 0.51210 0.30900
C 	C 	0.95720 0.68650 0.60010 -0.14700
H 	H 	0.93830 0.69060 0.62260 0.09200
O 	O 	0.49620 0.10350 0.98250 -0.19000
O 	O 	0.44098 0.08629 0.01859 -0.19900
C 	C 	0.49090 0.21240 0.09524 0.11200
C 	C 	0.51940 0.20360 0.06400 -0.14400
H 	H 	0.54370 0.22020 0.06120 0.09000
C 	C 	0.47850 0.14520 0.04230 -0.09100
C 	C 	0.51280 0.17130 0.03740 0.05500
H 	H 	0.53170 0.16660 0.01510 0.04000
C 	C 	0.45100 0.15540 0.07300 0.06300
H 	H 	0.42610 0.13960 0.07530 0.03800
C 	C 	0.47090 0.10830 0.01210 0.31000
C 	C 	0.45720 0.18650 0.10010 -0.14900
H 	H 	0.43830 0.19060 0.12260 0.09200
O 	O 	0.00380 0.10350 0.01750 -0.18700
O 	O 	0.05902 0.08629 0.98141 -0.19900
C 	C 	0.00910 0.21240 0.90476 0.11200
C 	C 	0.98060 0.20360 0.93600 -0.14400
H 	H 	0.95630 0.22020 0.93880 0.09000
C 	C 	0.02150 0.14520 0.95770 -0.08900
C 	C 	0.98720 0.17130 0.96260 0.05300
H 	H 	0.96830 0.16660 0.98490 0.04000
C 	C 	0.04900 0.15540 0.92700 0.06200
H 	H 	0.07390 0.13960 0.92470 0.03800
C 	C 	0.02910 0.10830 0.98790 0.30800
C 	C 	0.04280 0.18650 0.89990 -0.14800
H 	H 	0.06170 0.19060 0.87740 0.09200
O 	O 	0.50380 0.60350 0.51750 -0.18900
O 	O 	0.55902 0.58629 0.48141 -0.19900
C 	C 	0.50910 0.71240 0.40476 0.11200
C 	C 	0.48060 0.70360 0.43600 -0.14400
H 	H 	0.45630 0.72020 0.43880 0.09000
C 	C 	0.52150 0.64520 0.45770 -0.09100
C 	C 	0.48720 0.67130 0.46260 0.05500
H 	H 	0.46830 0.66660 0.48490 0.04000
C 	C 	0.54900 0.65540 0.42700 0.06300
H 	H 	0.57390 0.63960 0.42470 0.03800
C 	C 	0.52910 0.60830 0.48790 0.30900
C 	C 	0.54280 0.68650 0.39990 -0.14800
H 	H 	0.56170 0.69060 0.37740 0.09200
O 	O 	0.50380 0.39650 0.98250 -0.19000
O 	O 	0.55902 0.41371 0.01859 -0.19900
C 	C 	0.50910 0.28760 0.09524 0.11200
C 	C 	0.48060 0.29640 0.06400 -0.14400
H 	H 	0.45630 0.27980 0.06120 0.09000
C 	C 	0.52150 0.35480 0.04230 -0.09100
C 	C 	0.48720 0.32870 0.03740 0.05500
H 	H 	0.46830 0.33340 0.01510 0.04000
C 	C 	0.54900 0.34460 0.07300 0.06300
H 	H 	0.57390 0.36040 0.07530 0.03800
C 	C 	0.52910 0.39170 0.01210 0.31000
C 	C 	0.54280 0.31350 0.10010 -0.14900
H 	H 	0.56170 0.30940 0.12260 0.09200
O 	O 	0.00380 0.89650 0.48250 -0.18900
O 	O 	0.05902 0.91371 0.51859 -0.19900
C 	C 	0.00910 0.78760 0.59524 0.11200
C 	C 	0.98060 0.79640 0.56400 -0.14400
H 	H 	0.95630 0.77980 0.56120 0.09000
C 	C 	0.02150 0.85480 0.54230 -0.09000
C 	C 	0.98720 0.82870 0.53740 0.05300
H 	H 	0.96830 0.83340 0.51510 0.04000
C 	C 	0.04900 0.84460 0.57300 0.06300
H 	H 	0.07390 0.86040 0.57530 0.03800
C 	C 	0.02910 0.89170 0.51210 0.30900
C 	C 	0.04280 0.81350 0.60010 -0.14800
H 	H 	0.06170 0.80940 0.62260 0.09200
O 	O 	0.51750 0.49620 0.89650 -0.18900
O 	O 	0.48141 0.44098 0.91371 -0.19900
C 	C 	0.40476 0.49090 0.78760 0.11200
C 	C 	0.43600 0.51940 0.79640 -0.14400
H 	H 	0.43880 0.54370 0.77980 0.09000
C 	C 	0.45770 0.47850 0.85480 -0.09100
C 	C 	0.46260 0.51280 0.82870 0.05500
H 	H 	0.48490 0.53170 0.83340 0.04000
C 	C 	0.42700 0.45100 0.84460 0.06300
H 	H 	0.42470 0.42610 0.86040 0.03800
C 	C 	0.48790 0.47090 0.89170 0.30900
C 	C 	0.39990 0.45720 0.81350 -0.14800
H 	H 	0.37740 0.43830 0.80940 0.09200
O 	O 	0.01750 0.99620 0.39650 -0.18800
O 	O 	0.98141 0.94098 0.41371 -0.19900
C 	C 	0.90476 0.99090 0.28760 0.10900
C 	C 	0.93600 0.01940 0.29640 -0.14200
H 	H 	0.93880 0.04370 0.27980 0.09000
C 	C 	0.95770 0.97850 0.35480 -0.09100
C 	C 	0.96260 0.01280 0.32870 0.05500
H 	H 	0.98490 0.03170 0.33340 0.04000
C 	C 	0.92700 0.95100 0.34460 0.06200
H 	H 	0.92470 0.92610 0.36040 0.03800
C 	C 	0.98790 0.97090 0.39170 0.30800
C 	C 	0.89990 0.95720 0.31350 -0.14700
H 	H 	0.87740 0.93830 0.30940 0.09200
O 	O 	0.48250 0.99620 0.60350 -0.18900
O 	O 	0.51859 0.94098 0.58629 -0.19900
C 	C 	0.59524 0.99090 0.71240 0.10900
C 	C 	0.56400 0.01940 0.70360 -0.14200
H 	H 	0.56120 0.04370 0.72020 0.09000
C 	C 	0.54230 0.97850 0.64520 -0.09100
C 	C 	0.53740 0.01280 0.67130 0.05500
H 	H 	0.51510 0.03170 0.66660 0.04000
C 	C 	0.57300 0.95100 0.65540 0.06300
H 	H 	0.57530 0.92610 0.63960 0.03800
C 	C 	0.51210 0.97090 0.60830 0.30900
C 	C 	0.60010 0.95720 0.68650 -0.14700
H 	H 	0.62260 0.93830 0.69060 0.09200
O 	O 	0.98250 0.49620 0.10350 -0.19000
O 	O 	0.01859 0.44098 0.08629 -0.19900
C 	C 	0.09524 0.49090 0.21240 0.11200
C 	C 	0.06400 0.51940 0.20360 -0.14400
H 	H 	0.06120 0.54370 0.22020 0.09000
C 	C 	0.04230 0.47850 0.14520 -0.09100
C 	C 	0.03740 0.51280 0.17130 0.05500
H 	H 	0.01510 0.53170 0.16660 0.04000
C 	C 	0.07300 0.45100 0.15540 0.06300
H 	H 	0.07530 0.42610 0.13960 0.03800
C 	C 	0.01210 0.47090 0.10830 0.31000
C 	C 	0.10010 0.45720 0.18650 -0.14900
H 	H 	0.12260 0.43830 0.19060 0.09200
O 	O 	0.01750 0.00380 0.10350 -0.18700
O 	O 	0.98141 0.05902 0.08629 -0.19900
C 	C 	0.90476 0.00910 0.21240 0.11200
C 	C 	0.93600 0.98060 0.20360 -0.14400
H 	H 	0.93880 0.95630 0.22020 0.09000
C 	C 	0.95770 0.02150 0.14520 -0.08900
C 	C 	0.96260 0.98720 0.17130 0.05300
H 	H 	0.98490 0.96830 0.16660 0.04000
C 	C 	0.92700 0.04900 0.15540 0.06200
H 	H 	0.92470 0.07390 0.13960 0.03800
C 	C 	0.98790 0.02910 0.10830 0.30800
C 	C 	0.89990 0.04280 0.18650 -0.14800
H 	H 	0.87740 0.06170 0.19060 0.09200
O 	O 	0.51750 0.50380 0.60350 -0.18900
O 	O 	0.48141 0.55902 0.58629 -0.19900
C 	C 	0.40476 0.50910 0.71240 0.11200
C 	C 	0.43600 0.48060 0.70360 -0.14400
H 	H 	0.43880 0.45630 0.72020 0.09000
C 	C 	0.45770 0.52150 0.64520 -0.09100
C 	C 	0.46260 0.48720 0.67130 0.05500
H 	H 	0.48490 0.46830 0.66660 0.04000
C 	C 	0.42700 0.54900 0.65540 0.06300
H 	H 	0.42470 0.57390 0.63960 0.03800
C 	C 	0.48790 0.52910 0.60830 0.30900
C 	C 	0.39990 0.54280 0.68650 -0.14800
H 	H 	0.37740 0.56170 0.69060 0.09200
O 	O 	0.98250 0.50380 0.39650 -0.19000
O 	O 	0.01859 0.55902 0.41371 -0.19900
C 	C 	0.09524 0.50910 0.28760 0.11200
C 	C 	0.06400 0.48060 0.29640 -0.14400
H 	H 	0.06120 0.45630 0.27980 0.09000
C 	C 	0.04230 0.52150 0.35480 -0.09100
C 	C 	0.03740 0.48720 0.32870 0.05500
H 	H 	0.01510 0.46830 0.33340 0.04000
C 	C 	0.07300 0.54900 0.34460 0.06300
H 	H 	0.07530 0.57390 0.36040 0.03800
C 	C 	0.01210 0.52910 0.39170 0.31000
C 	C 	0.10010 0.54280 0.31350 -0.14900
H 	H 	0.12260 0.56170 0.30940 0.09200
O 	O 	0.48250 0.00380 0.89650 -0.18900
O 	O 	0.51859 0.05902 0.91371 -0.19900
C 	C 	0.59524 0.00910 0.78760 0.11200
C 	C 	0.56400 0.98060 0.79640 -0.14400
H 	H 	0.56120 0.95630 0.77980 0.09000
C 	C 	0.54230 0.02150 0.85480 -0.09000
C 	C 	0.53740 0.98720 0.82870 0.05300
H 	H 	0.51510 0.96830 0.83340 0.04000
C 	C 	0.57300 0.04900 0.84460 0.06300
H 	H 	0.57530 0.07390 0.86040 0.03800
C 	C 	0.51210 0.02910 0.89170 0.30900
C 	C 	0.60010 0.04280 0.81350 -0.14800
H 	H 	0.62260 0.06170 0.80940 0.09200
O 	O 	0.76750 0.14650 0.74620 -0.18900
O 	O 	0.73141 0.16371 0.69098 -0.19900
C 	C 	0.65476 0.03760 0.74090 0.11100
C 	C 	0.68600 0.04640 0.76940 -0.14300
H 	H 	0.68880 0.02980 0.79370 0.09000
C 	C 	0.70770 0.10480 0.72850 -0.09100
C 	C 	0.71260 0.07870 0.76280 0.05400
H 	H 	0.73490 0.08340 0.78170 0.04000
C 	C 	0.67700 0.09460 0.70100 0.06300
H 	H 	0.67470 0.11040 0.67610 0.03800
C 	C 	0.73790 0.14170 0.72090 0.30900
C 	C 	0.64990 0.06350 0.70720 -0.14800
H 	H 	0.62740 0.05940 0.68830 0.09200
O 	O 	0.26750 0.64650 0.24620 -0.18900
O 	O 	0.23141 0.66371 0.19098 -0.19900
C 	C 	0.15476 0.53760 0.24090 0.11200
C 	C 	0.18600 0.54640 0.26940 -0.14400
H 	H 	0.18880 0.52980 0.29370 0.09000
C 	C 	0.20770 0.60480 0.22850 -0.09100
C 	C 	0.21260 0.57870 0.26280 0.05500
H 	H 	0.23490 0.58340 0.28170 0.04000
C 	C 	0.17700 0.59460 0.20100 0.06300
H 	H 	0.17470 0.61040 0.17610 0.03800
C 	C 	0.23790 0.64170 0.22090 0.30900
C 	C 	0.14990 0.56350 0.20720 -0.14800
H 	H 	0.12740 0.55940 0.18830 0.09200
O 	O 	0.73250 0.85350 0.24620 -0.18900
O 	O 	0.76859 0.83629 0.19098 -0.19900
C 	C 	0.84524 0.96240 0.24090 0.11000
C 	C 	0.81400 0.95360 0.26940 -0.14300
H 	H 	0.81120 0.97020 0.29370 0.09000
C 	C 	0.79230 0.89520 0.22850 -0.09000
C 	C 	0.78740 0.92130 0.26280 0.05400
H 	H 	0.76510 0.91660 0.28170 0.04000
C 	C 	0.82300 0.90540 0.20100 0.06200
H 	H 	0.82530 0.88960 0.17610 0.03800
C 	C 	0.76210 0.85830 0.22090 0.30900
C 	C 	0.85010 0.93650 0.20720 -0.14700
H 	H 	0.87260 0.94060 0.18830 0.09200
O 	O 	0.23250 0.35350 0.74620 -0.18900
O 	O 	0.26859 0.33629 0.69098 -0.19900
C 	C 	0.34524 0.46240 0.74090 0.11200
C 	C 	0.31400 0.45360 0.76940 -0.14400
H 	H 	0.31120 0.47020 0.79370 0.09000
C 	C 	0.29230 0.39520 0.72850 -0.09100
C 	C 	0.28740 0.42130 0.76280 0.05500
H 	H 	0.26510 0.41660 0.78170 0.04000
C 	C 	0.32300 0.40540 0.70100 0.06300
H 	H 	0.32530 0.38960 0.67610 0.03800
C 	C 	0.26210 0.35830 0.72090 0.30900
C 	C 	0.35010 0.43650 0.70720 -0.14800
H 	H 	0.37260 0.44060 0.68830 0.09200
O 	O 	0.26750 0.35350 0.25380 -0.18900
O 	O 	0.23141 0.33629 0.30902 -0.19900
C 	C 	0.15476 0.46240 0.25910 0.11200
C 	C 	0.18600 0.45360 0.23060 -0.14400
H 	H 	0.18880 0.47020 0.20630 0.09000
C 	C 	0.20770 0.39520 0.27150 -0.09100
C 	C 	0.21260 0.42130 0.23720 0.05500
H 	H 	0.23490 0.41660 0.21830 0.04000
C 	C 	0.17700 0.40540 0.29900 0.06300
H 	H 	0.17470 0.38960 0.32390 0.03800
C 	C 	0.23790 0.35830 0.27910 0.30900
C 	C 	0.14990 0.43650 0.29280 -0.14800
H 	H 	0.12740 0.44060 0.31170 0.09200
O 	O 	0.76750 0.85350 0.75380 -0.18900
O 	O 	0.73141 0.83629 0.80902 -0.19900
C 	C 	0.65476 0.96240 0.75910 0.11000
C 	C 	0.68600 0.95360 0.73060 -0.14300
H 	H 	0.68880 0.97020 0.70630 0.09000
C 	C 	0.70770 0.89520 0.77150 -0.09000
C 	C 	0.71260 0.92130 0.73720 0.05400
H 	H 	0.73490 0.91660 0.71830 0.04000
C 	C 	0.67700 0.90540 0.79900 0.06200
H 	H 	0.67470 0.88960 0.82390 0.03800
C 	C 	0.73790 0.85830 0.77910 0.30900
C 	C 	0.64990 0.93650 0.79280 -0.14800
H 	H 	0.62740 0.94060 0.81170 0.09200
O 	O 	0.23250 0.64650 0.75380 -0.18900
O 	O 	0.26859 0.66371 0.80902 -0.19900
C 	C 	0.34524 0.53760 0.75910 0.11200
C 	C 	0.31400 0.54640 0.73060 -0.14400
H 	H 	0.31120 0.52980 0.70630 0.09000
C 	C 	0.29230 0.60480 0.77150 -0.09100
C 	C 	0.28740 0.57870 0.73720 0.05500
H 	H 	0.26510 0.58340 0.71830 0.04000
C 	C 	0.32300 0.59460 0.79900 0.06300
H 	H 	0.32530 0.61040 0.82390 0.03800
C 	C 	0.26210 0.64170 0.77910 0.30900
C 	C 	0.35010 0.56350 0.79280 -0.14800
H 	H 	0.37260 0.55940 0.81170 0.09200
O 	O 	0.73250 0.14650 0.25380 -0.18900
O 	O 	0.76859 0.16371 0.30902 -0.19900
C 	C 	0.84524 0.03760 0.25910 0.11100
C 	C 	0.81400 0.04640 0.23060 -0.14300
H 	H 	0.81120 0.02980 0.20630 0.09000
C 	C 	0.79230 0.10480 0.27150 -0.09000
C 	C 	0.78740 0.07870 0.23720 0.05400
H 	H 	0.76510 0.08340 0.21830 0.04000
C 	C 	0.82300 0.09460 0.29900 0.06300
H 	H 	0.82530 0.11040 0.32390 0.03800
C 	C 	0.76210 0.14170 0.27910 0.30900
C 	C 	0.85010 0.06350 0.29280 -0.14800
H 	H 	0.87260 0.05940 0.31170 0.09200
O 	O 	0.14650 0.74620 0.76750 -0.18900
O 	O 	0.16371 0.69098 0.73141 -0.19900
C 	C 	0.03760 0.74090 0.65476 0.11100
C 	C 	0.04640 0.76940 0.68600 -0.14300
H 	H 	0.02980 0.79370 0.68880 0.09000
C 	C 	0.10480 0.72850 0.70770 -0.09100
C 	C 	0.07870 0.76280 0.71260 0.05400
H 	H 	0.08340 0.78170 0.73490 0.04000
C 	C 	0.09460 0.70100 0.67700 0.06300
H 	H 	0.11040 0.67610 0.67470 0.03800
C 	C 	0.14170 0.72090 0.73790 0.30900
C 	C 	0.06350 0.70720 0.64990 -0.14800
H 	H 	0.05940 0.68830 0.62740 0.09200
O 	O 	0.64650 0.24620 0.26750 -0.18900
O 	O 	0.66371 0.19098 0.23141 -0.19900
C 	C 	0.53760 0.24090 0.15476 0.11200
C 	C 	0.54640 0.26940 0.18600 -0.14400
H 	H 	0.52980 0.29370 0.18880 0.09000
C 	C 	0.60480 0.22850 0.20770 -0.09100
C 	C 	0.57870 0.26280 0.21260 0.05500
H 	H 	0.58340 0.28170 0.23490 0.04000
C 	C 	0.59460 0.20100 0.17700 0.06300
H 	H 	0.61040 0.17610 0.17470 0.03800
C 	C 	0.64170 0.22090 0.23790 0.30900
C 	C 	0.56350 0.20720 0.14990 -0.14800
H 	H 	0.55940 0.18830 0.12740 0.09200
O 	O 	0.85350 0.24620 0.73250 -0.18900
O 	O 	0.83629 0.19098 0.76859 -0.19900
C 	C 	0.96240 0.24090 0.84524 0.11000
C 	C 	0.95360 0.26940 0.81400 -0.14300
H 	H 	0.97020 0.29370 0.81120 0.09000
C 	C 	0.89520 0.22850 0.79230 -0.09000
C 	C 	0.92130 0.26280 0.78740 0.05400
H 	H 	0.91660 0.28170 0.76510 0.04000
C 	C 	0.90540 0.20100 0.82300 0.06200
H 	H 	0.88960 0.17610 0.82530 0.03800
C 	C 	0.85830 0.22090 0.76210 0.30900
C 	C 	0.93650 0.20720 0.85010 -0.14700
H 	H 	0.94060 0.18830 0.87260 0.09200
O 	O 	0.35350 0.74620 0.23250 -0.18900
O 	O 	0.33629 0.69098 0.26859 -0.19900
C 	C 	0.46240 0.74090 0.34524 0.11200
C 	C 	0.45360 0.76940 0.31400 -0.14400
H 	H 	0.47020 0.79370 0.31120 0.09000
C 	C 	0.39520 0.72850 0.29230 -0.09100
C 	C 	0.42130 0.76280 0.28740 0.05500
H 	H 	0.41660 0.78170 0.26510 0.04000
C 	C 	0.40540 0.70100 0.32300 0.06300
H 	H 	0.38960 0.67610 0.32530 0.03800
C 	C 	0.35830 0.72090 0.26210 0.30900
C 	C 	0.43650 0.70720 0.35010 -0.14800
H 	H 	0.44060 0.68830 0.37260 0.09200
O 	O 	0.35350 0.25380 0.26750 -0.18900
O 	O 	0.33629 0.30902 0.23141 -0.19900
C 	C 	0.46240 0.25910 0.15476 0.11200
C 	C 	0.45360 0.23060 0.18600 -0.14400
H 	H 	0.47020 0.20630 0.18880 0.09000
C 	C 	0.39520 0.27150 0.20770 -0.09100
C 	C 	0.42130 0.23720 0.21260 0.05500
H 	H 	0.41660 0.21830 0.23490 0.04000
C 	C 	0.40540 0.29900 0.17700 0.06300
H 	H 	0.38960 0.32390 0.17470 0.03800
C 	C 	0.35830 0.27910 0.23790 0.30900
C 	C 	0.43650 0.29280 0.14990 -0.14800
H 	H 	0.44060 0.31170 0.12740 0.09200
O 	O 	0.85350 0.75380 0.76750 -0.18900
O 	O 	0.83629 0.80902 0.73141 -0.19900
C 	C 	0.96240 0.75910 0.65476 0.11000
C 	C 	0.95360 0.73060 0.68600 -0.14300
H 	H 	0.97020 0.70630 0.68880 0.09000
C 	C 	0.89520 0.77150 0.70770 -0.09000
C 	C 	0.92130 0.73720 0.71260 0.05400
H 	H 	0.91660 0.71830 0.73490 0.04000
C 	C 	0.90540 0.79900 0.67700 0.06200
H 	H 	0.88960 0.82390 0.67470 0.03800
C 	C 	0.85830 0.77910 0.73790 0.30900
C 	C 	0.93650 0.79280 0.64990 -0.14800
H 	H 	0.94060 0.81170 0.62740 0.09200
O 	O 	0.64650 0.75380 0.23250 -0.18900
O 	O 	0.66371 0.80902 0.26859 -0.19900
C 	C 	0.53760 0.75910 0.34524 0.11200
C 	C 	0.54640 0.73060 0.31400 -0.14400
H 	H 	0.52980 0.70630 0.31120 0.09000
C 	C 	0.60480 0.77150 0.29230 -0.09100
C 	C 	0.57870 0.73720 0.28740 0.05500
H 	H 	0.58340 0.71830 0.26510 0.04000
C 	C 	0.59460 0.79900 0.32300 0.06300
H 	H 	0.61040 0.82390 0.32530 0.03800
C 	C 	0.64170 0.77910 0.26210 0.30900
C 	C 	0.56350 0.79280 0.35010 -0.14800
H 	H 	0.55940 0.81170 0.37260 0.09200
O 	O 	0.14650 0.25380 0.73250 -0.18900
O 	O 	0.16371 0.30902 0.76859 -0.19900
C 	C 	0.03760 0.25910 0.84524 0.11100
C 	C 	0.04640 0.23060 0.81400 -0.14300
H 	H 	0.02980 0.20630 0.81120 0.09000
C 	C 	0.10480 0.27150 0.79230 -0.09000
C 	C 	0.07870 0.23720 0.78740 0.05400
H 	H 	0.08340 0.21830 0.76510 0.04000
C 	C 	0.09460 0.29900 0.82300 0.06300
H 	H 	0.11040 0.32390 0.82530 0.03800
C 	C 	0.14170 0.27910 0.76210 0.30900
C 	C 	0.06350 0.29280 0.85010 -0.14800
H 	H 	0.05940 0.31170 0.87260 0.09200
O 	O 	0.74620 0.76750 0.14650 -0.18900
O 	O 	0.69098 0.73141 0.16371 -0.19900
C 	C 	0.74090 0.65476 0.03760 0.11100
C 	C 	0.76940 0.68600 0.04640 -0.14300
H 	H 	0.79370 0.68880 0.02980 0.09000
C 	C 	0.72850 0.70770 0.10480 -0.09100
C 	C 	0.76280 0.71260 0.07870 0.05400
H 	H 	0.78170 0.73490 0.08340 0.04000
C 	C 	0.70100 0.67700 0.09460 0.06300
H 	H 	0.67610 0.67470 0.11040 0.03800
C 	C 	0.72090 0.73790 0.14170 0.30900
C 	C 	0.70720 0.64990 0.06350 -0.14800
H 	H 	0.68830 0.62740 0.05940 0.09200
O 	O 	0.24620 0.26750 0.64650 -0.18900
O 	O 	0.19098 0.23141 0.66371 -0.19900
C 	C 	0.24090 0.15476 0.53760 0.11200
C 	C 	0.26940 0.18600 0.54640 -0.14400
H 	H 	0.29370 0.18880 0.52980 0.09000
C 	C 	0.22850 0.20770 0.60480 -0.09100
C 	C 	0.26280 0.21260 0.57870 0.05500
H 	H 	0.28170 0.23490 0.58340 0.04000
C 	C 	0.20100 0.17700 0.59460 0.06300
H 	H 	0.17610 0.17470 0.61040 0.03800
C 	C 	0.22090 0.23790 0.64170 0.30900
C 	C 	0.20720 0.14990 0.56350 -0.14800
H 	H 	0.18830 0.12740 0.55940 0.09200
O 	O 	0.24620 0.73250 0.85350 -0.18900
O 	O 	0.19098 0.76859 0.83629 -0.19900
C 	C 	0.24090 0.84524 0.96240 0.11000
C 	C 	0.26940 0.81400 0.95360 -0.14300
H 	H 	0.29370 0.81120 0.97020 0.09000
C 	C 	0.22850 0.79230 0.89520 -0.09000
C 	C 	0.26280 0.78740 0.92130 0.05400
H 	H 	0.28170 0.76510 0.91660 0.04000
C 	C 	0.20100 0.82300 0.90540 0.06200
H 	H 	0.17610 0.82530 0.88960 0.03800
C 	C 	0.22090 0.76210 0.85830 0.30900
C 	C 	0.20720 0.85010 0.93650 -0.14700
H 	H 	0.18830 0.87260 0.94060 0.09200
O 	O 	0.74620 0.23250 0.35350 -0.18900
O 	O 	0.69098 0.26859 0.33629 -0.19900
C 	C 	0.74090 0.34524 0.46240 0.11200
C 	C 	0.76940 0.31400 0.45360 -0.14400
H 	H 	0.79370 0.31120 0.47020 0.09000
C 	C 	0.72850 0.29230 0.39520 -0.09100
C 	C 	0.76280 0.28740 0.42130 0.05500
H 	H 	0.78170 0.26510 0.41660 0.04000
C 	C 	0.70100 0.32300 0.40540 0.06300
H 	H 	0.67610 0.32530 0.38960 0.03800
C 	C 	0.72090 0.26210 0.35830 0.30900
C 	C 	0.70720 0.35010 0.43650 -0.14800
H 	H 	0.68830 0.37260 0.44060 0.09200
O 	O 	0.25380 0.26750 0.35350 -0.18900
O 	O 	0.30902 0.23141 0.33629 -0.19900
C 	C 	0.25910 0.15476 0.46240 0.11200
C 	C 	0.23060 0.18600 0.45360 -0.14400
H 	H 	0.20630 0.18880 0.47020 0.09000
C 	C 	0.27150 0.20770 0.39520 -0.09100
C 	C 	0.23720 0.21260 0.42130 0.05500
H 	H 	0.21830 0.23490 0.41660 0.04000
C 	C 	0.29900 0.17700 0.40540 0.06300
H 	H 	0.32390 0.17470 0.38960 0.03800
C 	C 	0.27910 0.23790 0.35830 0.30900
C 	C 	0.29280 0.14990 0.43650 -0.14800
H 	H 	0.31170 0.12740 0.44060 0.09200
O 	O 	0.75380 0.76750 0.85350 -0.18900
O 	O 	0.80902 0.73141 0.83629 -0.19900
C 	C 	0.75910 0.65476 0.96240 0.11000
C 	C 	0.73060 0.68600 0.95360 -0.14300
H 	H 	0.70630 0.68880 0.97020 0.09000
C 	C 	0.77150 0.70770 0.89520 -0.09000
C 	C 	0.73720 0.71260 0.92130 0.05400
H 	H 	0.71830 0.73490 0.91660 0.04000
C 	C 	0.79900 0.67700 0.90540 0.06200
H 	H 	0.82390 0.67470 0.88960 0.03800
C 	C 	0.77910 0.73790 0.85830 0.30900
C 	C 	0.79280 0.64990 0.93650 -0.14800
H 	H 	0.81170 0.62740 0.94060 0.09200
O 	O 	0.75380 0.23250 0.64650 -0.18900
O 	O 	0.80902 0.26859 0.66371 -0.19900
C 	C 	0.75910 0.34524 0.53760 0.11200
C 	C 	0.73060 0.31400 0.54640 -0.14400
H 	H 	0.70630 0.31120 0.52980 0.09000
C 	C 	0.77150 0.29230 0.60480 -0.09100
C 	C 	0.73720 0.28740 0.57870 0.05500
H 	H 	0.71830 0.26510 0.58340 0.04000
C 	C 	0.79900 0.32300 0.59460 0.06300
H 	H 	0.82390 0.32530 0.61040 0.03800
C 	C 	0.77910 0.26210 0.64170 0.30900
C 	C 	0.79280 0.35010 0.56350 -0.14800
H 	H 	0.81170 0.37260 0.55940 0.09200
O 	O 	0.25380 0.73250 0.14650 -0.18900
O 	O 	0.30902 0.76859 0.16371 -0.19900
C 	C 	0.25910 0.84524 0.03760 0.11100
C 	C 	0.23060 0.81400 0.04640 -0.14300
H 	H 	0.20630 0.81120 0.02980 0.09000
C 	C 	0.27150 0.79230 0.10480 -0.09000
C 	C 	0.23720 0.78740 0.07870 0.05400
H 	H 	0.21830 0.76510 0.08340 0.04000
C 	C 	0.29900 0.82300 0.09460 0.06300
H 	H 	0.32390 0.82530 0.11040 0.03800
C 	C 	0.27910 0.76210 0.14170 0.30900
C 	C 	0.29280 0.85010 0.06350 -0.14800
H 	H 	0.31170 0.87260 0.05940 0.09200
U 	U 	0.95755 0.54245 0.45755 0.01100
U 	U 	0.45755 0.04245 0.95755 0.01100
U 	U 	0.54245 0.45755 0.95755 0.01100
U 	U 	0.04245 0.95755 0.45755 0.01100
U 	U 	0.04245 0.04245 0.04245 0.01200
U 	U 	0.54245 0.54245 0.54245 0.01100
U 	U 	0.45755 0.95755 0.54245 0.01100
U 	U 	0.95755 0.45755 0.04245 0.01100
U 	U 	0.79245 0.20755 0.70755 0.01100
U 	U 	0.29245 0.70755 0.20755 0.01100
U 	U 	0.70755 0.79245 0.20755 0.01100
U 	U 	0.20755 0.29245 0.70755 0.01100
U 	U 	0.29245 0.29245 0.29245 0.01100
U 	U 	0.79245 0.79245 0.79245 0.01100
U 	U 	0.20755 0.70755 0.79245 0.01100
U 	U 	0.70755 0.20755 0.29245 0.01100
C 	C 	0.75000 0.37500 0.50000 -0.12800
C 	C 	0.75000 0.62500 -0.00000 -0.12600
C 	C 	0.25000 0.87500 -0.00000 -0.12600
C 	C 	0.25000 0.12500 0.50000 -0.12800
C 	C 	0.50000 0.75000 0.37500 -0.12800
C 	C 	0.00000 0.75000 0.62500 -0.12600
C 	C 	0.00000 0.25000 0.87500 -0.12600
C 	C 	0.50000 0.25000 0.12500 -0.12800
C 	C 	0.37500 0.50000 0.75000 -0.12800
C 	C 	0.62500 0.00000 0.75000 -0.12600
C 	C 	0.87500 0.00000 0.25000 -0.12600
C 	C 	0.12500 0.50000 0.25000 -0.12800
