data_crystal

_cell_length_a 29.15080
_cell_length_b 29.15080
_cell_length_c 36.13490
_cell_angle_alpha 90.00000
_cell_angle_beta  90.00000
_cell_angle_gamma 120.00000

_symmetry_space_group_name_	'P 1'
_symmetry_space_group_name_H-M	'P 1'

loop_
_symmetry_equiv_pos_as_xyz
  x,y,z

loop_
_atom_site_label
_atom_site_type_symbol
_atom_site_fract_x
_atom_site_fract_y
_atom_site_fract_z
_atom_site_charge
C 	C 	0.41640 0.26730 0.64280 -0.15600
H 	H 	0.42680 0.26310 0.61870 0.09300
C 	C 	0.37040 0.22620 0.65870 0.12900
O 	O 	0.31750 0.12040 0.46480 -0.16800
C 	C 	0.35560 0.23300 0.69240 -0.15800
H 	H 	0.32720 0.20400 0.70490 0.11000
C 	C 	0.42800 0.32300 0.69370 -0.10500
C 	C 	0.38200 0.28290 0.70910 0.07100
H 	H 	0.36830 0.28930 0.73120 0.03900
O 	O 	0.08670 0.08140 0.64680 -0.17800
C 	C 	0.44560 0.31240 0.66120 0.07600
H 	H 	0.47940 0.33770 0.65180 0.03600
C 	C 	0.46010 0.37380 0.71230 0.29000
O 	O 	0.50410 0.40650 0.69610 -0.17700
O 	O 	0.44630 0.38450 0.74260 -0.18200
C 	C 	0.33690 0.21100 0.54150 0.04800
H 	H 	0.33440 0.23830 0.52890 0.04400
C 	C 	0.34220 0.21220 0.57830 -0.12900
H 	H 	0.34460 0.24140 0.59160 0.08300
C 	C 	0.19850 0.05810 0.64540 0.03500
H 	H 	0.17910 0.02050 0.64570 0.04200
C 	C 	0.25350 0.08400 0.64560 -0.11100
H 	H 	0.27230 0.06510 0.64450 0.07600
C 	C 	0.08307 0.60063 0.97613 -0.14100
H 	H 	0.09347 0.59643 0.95203 0.08700
C 	C 	0.03707 0.55953 0.99203 0.11100
O 	O 	0.98417 0.45373 0.79813 -0.16900
C 	C 	0.02227 0.56633 0.02573 -0.13600
H 	H 	0.99387 0.53733 0.03823 0.10100
C 	C 	0.09467 0.65633 0.02703 -0.09200
C 	C 	0.04867 0.61623 0.04243 0.05500
H 	H 	0.03497 0.62263 0.06453 0.04400
O 	O 	0.75337 0.41473 0.98013 -0.18000
C 	C 	0.11227 0.64573 0.99453 0.05800
H 	H 	0.14607 0.67103 0.98513 0.04000
C 	C 	0.12677 0.70713 0.04563 0.28400
O 	O 	0.17077 0.73983 0.02943 -0.17600
O 	O 	0.11297 0.71783 0.07593 -0.18100
C 	C 	0.00357 0.54433 0.87483 0.04300
H 	H 	0.00107 0.57163 0.86223 0.04500
C 	C 	0.00887 0.54553 0.91163 -0.12500
H 	H 	0.01127 0.57473 0.92493 0.08100
C 	C 	0.86517 0.39143 0.97873 0.03100
H 	H 	0.84577 0.35383 0.97903 0.04200
C 	C 	0.92017 0.41733 0.97893 -0.10800
H 	H 	0.93897 0.39843 0.97783 0.07300
C 	C 	0.74973 0.93397 0.30947 -0.16100
H 	H 	0.76013 0.92977 0.28537 0.09400
C 	C 	0.70373 0.89287 0.32537 0.13000
O 	O 	0.65083 0.78707 0.13147 -0.16800
C 	C 	0.68893 0.89967 0.35907 -0.16000
H 	H 	0.66053 0.87067 0.37157 0.11000
C 	C 	0.76133 0.98967 0.36037 -0.10600
C 	C 	0.71533 0.94957 0.37577 0.07100
H 	H 	0.70163 0.95597 0.39787 0.03900
O 	O 	0.42003 0.74807 0.31347 -0.18000
C 	C 	0.77893 0.97907 0.32787 0.08200
H 	H 	0.81273 0.00437 0.31847 0.03100
C 	C 	0.79343 0.04047 0.37897 0.28700
O 	O 	0.83743 0.07317 0.36277 -0.17900
O 	O 	0.77963 0.05117 0.40927 -0.18400
C 	C 	0.67023 0.87767 0.20817 0.04700
H 	H 	0.66773 0.90497 0.19557 0.04400
C 	C 	0.67553 0.87887 0.24497 -0.13000
H 	H 	0.67793 0.90807 0.25827 0.08200
C 	C 	0.53183 0.72477 0.31207 0.03400
H 	H 	0.51243 0.68717 0.31237 0.04200
C 	C 	0.58683 0.75067 0.31227 -0.11200
H 	H 	0.60563 0.73177 0.31117 0.07600
C 	C 	0.73270 0.14910 0.64280 -0.15800
H 	H 	0.73690 0.16370 0.61870 0.09200
C 	C 	0.77380 0.14420 0.65870 0.12800
O 	O 	0.87960 0.19710 0.46480 -0.16900
C 	C 	0.76700 0.12260 0.69240 -0.15900
H 	H 	0.79600 0.12320 0.70490 0.10900
C 	C 	0.67700 0.10500 0.69370 -0.10700
C 	C 	0.71710 0.09910 0.70910 0.07000
H 	H 	0.71070 0.07900 0.73120 0.03800
O 	O 	0.91860 0.00530 0.64680 -0.18100
C 	C 	0.68760 0.13320 0.66120 0.07500
H 	H 	0.66230 0.14170 0.65180 0.03500
C 	C 	0.62620 0.08630 0.71230 0.28900
O 	O 	0.59350 0.09760 0.69610 -0.17900
O 	O 	0.61550 0.06180 0.74260 -0.18400
C 	C 	0.78900 0.12590 0.54150 0.04700
H 	H 	0.76170 0.09610 0.52890 0.04300
C 	C 	0.78780 0.13000 0.57830 -0.13000
H 	H 	0.75860 0.10320 0.59160 0.08200
C 	C 	0.94190 0.14040 0.64540 0.03400
H 	H 	0.97950 0.15860 0.64570 0.04100
C 	C 	0.91600 0.16950 0.64560 -0.11200
H 	H 	0.93490 0.20720 0.64450 0.07600
C 	C 	0.39937 0.48243 0.97613 -0.14700
H 	H 	0.40357 0.49703 0.95203 0.08900
C 	C 	0.44047 0.47753 0.99203 0.11700
O 	O 	0.54627 0.53043 0.79813 -0.16800
C 	C 	0.43367 0.45593 0.02573 -0.14700
H 	H 	0.46267 0.45653 0.03823 0.10600
C 	C 	0.34367 0.43833 0.02703 -0.09600
C 	C 	0.38377 0.43243 0.04243 0.06200
H 	H 	0.37737 0.41233 0.06453 0.04200
O 	O 	0.58527 0.33863 0.98013 -0.18000
C 	C 	0.35427 0.46653 0.99453 0.06300
H 	H 	0.32897 0.47503 0.98513 0.03900
C 	C 	0.29287 0.41963 0.04563 0.28600
O 	O 	0.26017 0.43093 0.02943 -0.17700
O 	O 	0.28217 0.39513 0.07593 -0.18200
C 	C 	0.45567 0.45923 0.87483 0.04600
H 	H 	0.42837 0.42943 0.86223 0.04400
C 	C 	0.45447 0.46333 0.91163 -0.12800
H 	H 	0.42527 0.43653 0.92493 0.08100
C 	C 	0.60857 0.47373 0.97873 0.03300
H 	H 	0.64617 0.49193 0.97903 0.04200
C 	C 	0.58267 0.50283 0.97893 -0.11100
H 	H 	0.60157 0.54053 0.97783 0.07500
C 	C 	0.06603 0.81577 0.30947 -0.16100
H 	H 	0.07023 0.83037 0.28537 0.09400
C 	C 	0.10713 0.81087 0.32537 0.13000
O 	O 	0.21293 0.86377 0.13147 -0.16800
C 	C 	0.10033 0.78927 0.35907 -0.16000
H 	H 	0.12933 0.78987 0.37157 0.11000
C 	C 	0.01033 0.77167 0.36037 -0.10600
C 	C 	0.05043 0.76577 0.37577 0.07100
H 	H 	0.04403 0.74567 0.39787 0.03900
O 	O 	0.25193 0.67197 0.31347 -0.18000
C 	C 	0.02093 0.79987 0.32787 0.08200
H 	H 	0.99563 0.80837 0.31847 0.03200
C 	C 	0.95953 0.75297 0.37897 0.28700
O 	O 	0.92683 0.76427 0.36277 -0.17800
O 	O 	0.94883 0.72847 0.40927 -0.18400
C 	C 	0.12233 0.79257 0.20817 0.04700
H 	H 	0.09503 0.76277 0.19557 0.04400
C 	C 	0.12113 0.79667 0.24497 -0.13000
H 	H 	0.09193 0.76987 0.25827 0.08300
C 	C 	0.27523 0.80707 0.31207 0.03400
H 	H 	0.31283 0.82527 0.31237 0.04200
C 	C 	0.24933 0.83617 0.31227 -0.11200
H 	H 	0.26823 0.87387 0.31117 0.07600
C 	C 	0.85090 0.58360 0.64280 -0.15800
H 	H 	0.83630 0.57320 0.61870 0.09200
C 	C 	0.85580 0.62960 0.65870 0.12800
O 	O 	0.80290 0.68250 0.46480 -0.16900
C 	C 	0.87740 0.64440 0.69240 -0.15900
H 	H 	0.87680 0.67280 0.70490 0.10900
C 	C 	0.89500 0.57200 0.69370 -0.10700
C 	C 	0.90090 0.61800 0.70910 0.07000
H 	H 	0.92100 0.63170 0.73120 0.03800
O 	O 	0.99470 0.91330 0.64680 -0.18000
C 	C 	0.86680 0.55440 0.66120 0.07500
H 	H 	0.85830 0.52060 0.65180 0.03500
C 	C 	0.91370 0.53990 0.71230 0.28900
O 	O 	0.90240 0.49590 0.69610 -0.17900
O 	O 	0.93820 0.55370 0.74260 -0.18400
C 	C 	0.87410 0.66310 0.54150 0.04700
H 	H 	0.90390 0.66560 0.52890 0.04300
C 	C 	0.87000 0.65780 0.57830 -0.13000
H 	H 	0.89680 0.65540 0.59160 0.08200
C 	C 	0.85960 0.80150 0.64540 0.03400
H 	H 	0.84140 0.82090 0.64570 0.04200
C 	C 	0.83050 0.74650 0.64560 -0.11200
H 	H 	0.79280 0.72770 0.64450 0.07600
C 	C 	0.51757 0.91693 0.97613 -0.14200
H 	H 	0.50297 0.90653 0.95203 0.08700
C 	C 	0.52247 0.96293 0.99203 0.11100
O 	O 	0.46957 0.01583 0.79813 -0.16900
C 	C 	0.54407 0.97773 0.02573 -0.13500
H 	H 	0.54347 0.00613 0.03823 0.10000
C 	C 	0.56167 0.90533 0.02703 -0.09200
C 	C 	0.56757 0.95133 0.04243 0.05500
H 	H 	0.58767 0.96503 0.06453 0.04500
O 	O 	0.66137 0.24663 0.98013 -0.18000
C 	C 	0.53347 0.88773 0.99453 0.05800
H 	H 	0.52497 0.85393 0.98513 0.04000
C 	C 	0.58037 0.87323 0.04563 0.28400
O 	O 	0.56907 0.82923 0.02943 -0.17600
O 	O 	0.60487 0.88703 0.07593 -0.18100
C 	C 	0.54077 0.99643 0.87483 0.04300
H 	H 	0.57057 0.99893 0.86223 0.04600
C 	C 	0.53667 0.99113 0.91163 -0.12500
H 	H 	0.56347 0.98873 0.92493 0.08100
C 	C 	0.52627 0.13483 0.97873 0.03100
H 	H 	0.50807 0.15423 0.97903 0.04200
C 	C 	0.49717 0.07983 0.97893 -0.10800
H 	H 	0.45947 0.06103 0.97783 0.07300
C 	C 	0.18423 0.25027 0.30947 -0.15800
H 	H 	0.16963 0.23987 0.28537 0.09300
C 	C 	0.18913 0.29627 0.32537 0.12800
O 	O 	0.13623 0.34917 0.13147 -0.16800
C 	C 	0.21073 0.31107 0.35907 -0.15900
H 	H 	0.21013 0.33947 0.37157 0.10900
C 	C 	0.22833 0.23867 0.36037 -0.10600
C 	C 	0.23423 0.28467 0.37577 0.07000
H 	H 	0.25433 0.29837 0.39787 0.03800
O 	O 	0.32803 0.57997 0.31347 -0.18000
C 	C 	0.20013 0.22107 0.32787 0.07500
H 	H 	0.19163 0.18727 0.31847 0.03500
C 	C 	0.24703 0.20657 0.37897 0.28900
O 	O 	0.23573 0.16257 0.36277 -0.17800
O 	O 	0.27153 0.22037 0.40927 -0.18300
C 	C 	0.20743 0.32977 0.20817 0.04700
H 	H 	0.23723 0.33227 0.19557 0.04300
C 	C 	0.20333 0.32447 0.24497 -0.13000
H 	H 	0.23013 0.32207 0.25827 0.08200
C 	C 	0.19293 0.46817 0.31207 0.03400
H 	H 	0.17473 0.48757 0.31237 0.04200
C 	C 	0.16383 0.41317 0.31227 -0.11200
H 	H 	0.12613 0.39437 0.31117 0.07600
C 	C 	0.73270 0.58360 0.64280 -0.15700
H 	H 	0.73690 0.57320 0.61870 0.09200
C 	C 	0.77380 0.62960 0.65870 0.12800
O 	O 	0.87960 0.68250 0.46480 -0.16900
C 	C 	0.76700 0.64440 0.69240 -0.15900
H 	H 	0.79600 0.67280 0.70490 0.10900
C 	C 	0.67700 0.57200 0.69370 -0.10600
C 	C 	0.71710 0.61800 0.70910 0.07000
H 	H 	0.71070 0.63170 0.73120 0.03800
O 	O 	0.91860 0.91330 0.64680 -0.17900
C 	C 	0.68760 0.55440 0.66120 0.07500
H 	H 	0.66230 0.52060 0.65180 0.03500
C 	C 	0.62620 0.53990 0.71230 0.28900
O 	O 	0.59350 0.49590 0.69610 -0.17800
O 	O 	0.61550 0.55370 0.74260 -0.18300
C 	C 	0.78900 0.66310 0.54150 0.04700
H 	H 	0.76170 0.66560 0.52890 0.04300
C 	C 	0.78780 0.65780 0.57830 -0.13000
H 	H 	0.75860 0.65540 0.59160 0.08200
C 	C 	0.94190 0.80150 0.64540 0.03400
H 	H 	0.97950 0.82090 0.64570 0.04100
C 	C 	0.91600 0.74650 0.64560 -0.11200
H 	H 	0.93490 0.72770 0.64450 0.07500
C 	C 	0.39937 0.91693 0.97613 -0.14200
H 	H 	0.40357 0.90653 0.95203 0.08700
C 	C 	0.44047 0.96293 0.99203 0.11000
O 	O 	0.54627 0.01583 0.79813 -0.16900
C 	C 	0.43367 0.97773 0.02573 -0.13500
H 	H 	0.46267 0.00613 0.03823 0.10000
C 	C 	0.34367 0.90533 0.02703 -0.09100
C 	C 	0.38377 0.95133 0.04243 0.05500
H 	H 	0.37737 0.96503 0.06453 0.04500
O 	O 	0.58527 0.24663 0.98013 -0.18000
C 	C 	0.35427 0.88773 0.99453 0.05800
H 	H 	0.32897 0.85393 0.98513 0.04000
C 	C 	0.29287 0.87323 0.04563 0.28400
O 	O 	0.26017 0.82923 0.02943 -0.17600
O 	O 	0.28217 0.88703 0.07593 -0.18100
C 	C 	0.45567 0.99643 0.87483 0.04300
H 	H 	0.42837 0.99893 0.86223 0.04600
C 	C 	0.45447 0.99113 0.91163 -0.12500
H 	H 	0.42527 0.98873 0.92493 0.08100
C 	C 	0.60857 0.13483 0.97873 0.03100
H 	H 	0.64617 0.15423 0.97903 0.04200
C 	C 	0.58267 0.07983 0.97893 -0.10800
H 	H 	0.60157 0.06103 0.97783 0.07300
C 	C 	0.06603 0.25027 0.30947 -0.16100
H 	H 	0.07023 0.23987 0.28537 0.09400
C 	C 	0.10713 0.29627 0.32537 0.13000
O 	O 	0.21293 0.34917 0.13147 -0.16800
C 	C 	0.10033 0.31107 0.35907 -0.16000
H 	H 	0.12933 0.33947 0.37157 0.11000
C 	C 	0.01033 0.23867 0.36037 -0.10600
C 	C 	0.05043 0.28467 0.37577 0.07100
H 	H 	0.04403 0.29837 0.39787 0.03900
O 	O 	0.25193 0.57997 0.31347 -0.18000
C 	C 	0.02093 0.22107 0.32787 0.08200
H 	H 	0.99563 0.18727 0.31847 0.03100
C 	C 	0.95953 0.20657 0.37897 0.28700
O 	O 	0.92683 0.16257 0.36277 -0.17900
O 	O 	0.94883 0.22037 0.40927 -0.18400
C 	C 	0.12233 0.32977 0.20817 0.04700
H 	H 	0.09503 0.33227 0.19557 0.04400
C 	C 	0.12113 0.32447 0.24497 -0.13000
H 	H 	0.09193 0.32207 0.25827 0.08200
C 	C 	0.27523 0.46817 0.31207 0.03400
H 	H 	0.31283 0.48757 0.31237 0.04200
C 	C 	0.24933 0.41317 0.31227 -0.11200
H 	H 	0.26823 0.39437 0.31117 0.07600
C 	C 	0.85090 0.26730 0.64280 -0.15800
H 	H 	0.83630 0.26310 0.61870 0.09200
C 	C 	0.85580 0.22620 0.65870 0.12800
O 	O 	0.80290 0.12040 0.46480 -0.16900
C 	C 	0.87740 0.23300 0.69240 -0.15900
H 	H 	0.87680 0.20400 0.70490 0.10900
C 	C 	0.89500 0.32300 0.69370 -0.10700
C 	C 	0.90090 0.28290 0.70910 0.07000
H 	H 	0.92100 0.28930 0.73120 0.03800
O 	O 	0.99470 0.08140 0.64680 -0.18100
C 	C 	0.86680 0.31240 0.66120 0.07500
H 	H 	0.85830 0.33770 0.65180 0.03500
C 	C 	0.91370 0.37380 0.71230 0.28900
O 	O 	0.90240 0.40650 0.69610 -0.17900
O 	O 	0.93820 0.38450 0.74260 -0.18400
C 	C 	0.87410 0.21100 0.54150 0.04700
H 	H 	0.90390 0.23830 0.52890 0.04300
C 	C 	0.87000 0.21220 0.57830 -0.13000
H 	H 	0.89680 0.24140 0.59160 0.08200
C 	C 	0.85960 0.05810 0.64540 0.03400
H 	H 	0.84140 0.02050 0.64570 0.04100
C 	C 	0.83050 0.08400 0.64560 -0.11200
H 	H 	0.79280 0.06510 0.64450 0.07600
C 	C 	0.51757 0.60063 0.97613 -0.14700
H 	H 	0.50297 0.59643 0.95203 0.08900
C 	C 	0.52247 0.55953 0.99203 0.11700
O 	O 	0.46957 0.45373 0.79813 -0.16800
C 	C 	0.54407 0.56633 0.02573 -0.14700
H 	H 	0.54347 0.53733 0.03823 0.10600
C 	C 	0.56167 0.65633 0.02703 -0.09600
C 	C 	0.56757 0.61623 0.04243 0.06200
H 	H 	0.58767 0.62263 0.06453 0.04200
O 	O 	0.66137 0.41473 0.98013 -0.18000
C 	C 	0.53347 0.64573 0.99453 0.06300
H 	H 	0.52497 0.67103 0.98513 0.03900
C 	C 	0.58037 0.70713 0.04563 0.28600
O 	O 	0.56907 0.73983 0.02943 -0.17700
O 	O 	0.60487 0.71783 0.07593 -0.18200
C 	C 	0.54077 0.54433 0.87483 0.04600
H 	H 	0.57057 0.57163 0.86223 0.04400
C 	C 	0.53667 0.54553 0.91163 -0.12800
H 	H 	0.56347 0.57473 0.92493 0.08100
C 	C 	0.52627 0.39143 0.97873 0.03300
H 	H 	0.50807 0.35383 0.97903 0.04200
C 	C 	0.49717 0.41733 0.97893 -0.11100
H 	H 	0.45947 0.39843 0.97783 0.07500
C 	C 	0.18423 0.93397 0.30947 -0.16100
H 	H 	0.16963 0.92977 0.28537 0.09500
C 	C 	0.18913 0.89287 0.32537 0.13000
O 	O 	0.13623 0.78707 0.13147 -0.16800
C 	C 	0.21073 0.89967 0.35907 -0.16000
H 	H 	0.21013 0.87067 0.37157 0.11000
C 	C 	0.22833 0.98967 0.36037 -0.10600
C 	C 	0.23423 0.94957 0.37577 0.07100
H 	H 	0.25433 0.95597 0.39787 0.03900
O 	O 	0.32803 0.74807 0.31347 -0.18000
C 	C 	0.20013 0.97907 0.32787 0.08200
H 	H 	0.19163 0.00437 0.31847 0.03100
C 	C 	0.24703 0.04047 0.37897 0.28700
O 	O 	0.23573 0.07317 0.36277 -0.17800
O 	O 	0.27153 0.05117 0.40927 -0.18400
C 	C 	0.20743 0.87767 0.20817 0.04700
H 	H 	0.23723 0.90497 0.19557 0.04400
C 	C 	0.20333 0.87887 0.24497 -0.13000
H 	H 	0.23013 0.90807 0.25827 0.08300
C 	C 	0.19293 0.72477 0.31207 0.03400
H 	H 	0.17473 0.68717 0.31237 0.04200
C 	C 	0.16383 0.75067 0.31227 -0.11200
H 	H 	0.12613 0.73177 0.31117 0.07600
C 	C 	0.41640 0.14910 0.64280 -0.15800
H 	H 	0.42680 0.16370 0.61870 0.09200
C 	C 	0.37040 0.14420 0.65870 0.12800
O 	O 	0.31750 0.19710 0.46480 -0.16900
C 	C 	0.35560 0.12260 0.69240 -0.15900
H 	H 	0.32720 0.12320 0.70490 0.10900
C 	C 	0.42800 0.10500 0.69370 -0.10700
C 	C 	0.38200 0.09910 0.70910 0.07000
H 	H 	0.36830 0.07900 0.73120 0.03800
O 	O 	0.08670 0.00530 0.64680 -0.18000
C 	C 	0.44560 0.13320 0.66120 0.07500
H 	H 	0.47940 0.14170 0.65180 0.03500
C 	C 	0.46010 0.08630 0.71230 0.28900
O 	O 	0.50410 0.09760 0.69610 -0.17900
O 	O 	0.44630 0.06180 0.74260 -0.18400
C 	C 	0.33690 0.12590 0.54150 0.04700
H 	H 	0.33440 0.09610 0.52890 0.04300
C 	C 	0.34220 0.13000 0.57830 -0.13000
H 	H 	0.34460 0.10320 0.59160 0.08200
C 	C 	0.19850 0.14040 0.64540 0.03400
H 	H 	0.17910 0.15860 0.64570 0.04200
C 	C 	0.25350 0.16950 0.64560 -0.11200
H 	H 	0.27230 0.20720 0.64450 0.07600
C 	C 	0.08307 0.48243 0.97613 -0.14200
H 	H 	0.09347 0.49703 0.95203 0.08700
C 	C 	0.03707 0.47753 0.99203 0.11100
O 	O 	0.98417 0.53043 0.79813 -0.16900
C 	C 	0.02227 0.45593 0.02573 -0.13600
H 	H 	0.99387 0.45653 0.03823 0.10100
C 	C 	0.09467 0.43833 0.02703 -0.09200
C 	C 	0.04867 0.43243 0.04243 0.05500
H 	H 	0.03497 0.41233 0.06453 0.04400
O 	O 	0.75337 0.33863 0.98013 -0.18000
C 	C 	0.11227 0.46653 0.99453 0.05800
H 	H 	0.14607 0.47503 0.98513 0.04000
C 	C 	0.12677 0.41963 0.04563 0.28400
O 	O 	0.17077 0.43093 0.02943 -0.17600
O 	O 	0.11297 0.39513 0.07593 -0.18100
C 	C 	0.00357 0.45923 0.87483 0.04300
H 	H 	0.00107 0.42943 0.86223 0.04500
C 	C 	0.00887 0.46333 0.91163 -0.12500
H 	H 	0.01127 0.43653 0.92493 0.08100
C 	C 	0.86517 0.47373 0.97873 0.03100
H 	H 	0.84577 0.49193 0.97903 0.04200
C 	C 	0.92017 0.50283 0.97893 -0.10800
H 	H 	0.93897 0.54053 0.97783 0.07300
C 	C 	0.74973 0.81577 0.30947 -0.15800
H 	H 	0.76013 0.83037 0.28537 0.09300
C 	C 	0.70373 0.81087 0.32537 0.12800
O 	O 	0.65083 0.86377 0.13147 -0.16800
C 	C 	0.68893 0.78927 0.35907 -0.15900
H 	H 	0.66053 0.78987 0.37157 0.10900
C 	C 	0.76133 0.77167 0.36037 -0.10600
C 	C 	0.71533 0.76577 0.37577 0.07000
H 	H 	0.70163 0.74567 0.39787 0.03800
O 	O 	0.42003 0.67197 0.31347 -0.18000
C 	C 	0.77893 0.79987 0.32787 0.07500
H 	H 	0.81273 0.80837 0.31847 0.03500
C 	C 	0.79343 0.75297 0.37897 0.28900
O 	O 	0.83743 0.76427 0.36277 -0.17800
O 	O 	0.77963 0.72847 0.40927 -0.18300
C 	C 	0.67023 0.79257 0.20817 0.04700
H 	H 	0.66773 0.76277 0.19557 0.04300
C 	C 	0.67553 0.79667 0.24497 -0.13000
H 	H 	0.67793 0.76987 0.25827 0.08200
C 	C 	0.53183 0.80707 0.31207 0.03400
H 	H 	0.51243 0.82527 0.31237 0.04200
C 	C 	0.58683 0.83617 0.31227 -0.11200
H 	H 	0.60563 0.87387 0.31117 0.07600
U 	U 	-0.00000 -0.00000 0.64468 0.01300
U 	U 	0.66667 0.33333 0.97801 0.01200
U 	U 	0.33333 0.66667 0.31135 0.01200
U 	U 	0.52809 0.47191 0.74492 0.01000
U 	U 	0.19476 0.80524 0.07825 0.01000
U 	U 	0.86142 0.13858 0.41159 0.00900
U 	U 	0.52809 0.05618 0.74492 0.00900
U 	U 	0.19476 0.38951 0.07825 0.01000
U 	U 	0.86142 0.72285 0.41159 0.01000
U 	U 	0.94382 0.47191 0.74492 0.00900
U 	U 	0.61049 0.80524 0.07825 0.01000
U 	U 	0.27715 0.13858 0.41159 0.01000
C 	C 	0.34230 0.17115 0.64220 -0.12800
C 	C 	0.34410 0.17205 0.59760 0.09800
C 	C 	0.17080 0.08540 0.64470 -0.07000
C 	C 	0.11130 0.05565 0.64630 0.27800
C 	C 	0.28000 0.14000 0.64750 0.09100
C 	C 	0.33510 0.16755 0.52110 -0.08300
C 	C 	0.32530 0.16265 0.48250 0.26500
C 	C 	0.00897 0.50448 0.97553 -0.11500
C 	C 	0.01077 0.50538 0.93093 0.09300
C 	C 	0.83747 0.41873 0.97803 -0.06800
C 	C 	0.77797 0.38898 0.97963 0.27700
C 	C 	0.94667 0.47333 0.98083 0.08400
C 	C 	0.00177 0.50088 0.85443 -0.07700
C 	C 	0.99197 0.49598 0.81583 0.26100
C 	C 	0.67563 0.83782 0.30887 -0.12900
C 	C 	0.67743 0.83872 0.26427 0.09800
C 	C 	0.50413 0.75207 0.31137 -0.07000
C 	C 	0.44463 0.72232 0.31297 0.27800
C 	C 	0.61333 0.80667 0.31417 0.09100
C 	C 	0.66843 0.83422 0.18777 -0.08300
C 	C 	0.65863 0.82932 0.14917 0.26500
C 	C 	0.82885 0.17115 0.64220 -0.12800
C 	C 	0.82795 0.17205 0.59760 0.09800
C 	C 	0.91460 0.08540 0.64470 -0.07100
C 	C 	0.94435 0.05565 0.64630 0.27800
C 	C 	0.86000 0.14000 0.64750 0.09100
C 	C 	0.83245 0.16755 0.52110 -0.08400
C 	C 	0.83735 0.16265 0.48250 0.26500
C 	C 	0.49552 0.50448 0.97553 -0.12200
C 	C 	0.49462 0.50538 0.93093 0.09600
C 	C 	0.58127 0.41873 0.97803 -0.07000
C 	C 	0.61102 0.38898 0.97963 0.27700
C 	C 	0.52667 0.47333 0.98083 0.08800
C 	C 	0.49912 0.50088 0.85443 -0.08200
C 	C 	0.50402 0.49598 0.81583 0.26500
C 	C 	0.16218 0.83782 0.30887 -0.13000
C 	C 	0.16128 0.83872 0.26427 0.09900
C 	C 	0.24793 0.75207 0.31137 -0.07000
C 	C 	0.27768 0.72232 0.31297 0.27800
C 	C 	0.19333 0.80667 0.31417 0.09100
C 	C 	0.16578 0.83422 0.18777 -0.08300
C 	C 	0.17068 0.82932 0.14917 0.26500
C 	C 	0.82885 0.65770 0.64220 -0.12800
C 	C 	0.82795 0.65590 0.59760 0.09800
C 	C 	0.91460 0.82920 0.64470 -0.07000
C 	C 	0.94435 0.88870 0.64630 0.27800
C 	C 	0.86000 0.72000 0.64750 0.09100
C 	C 	0.83245 0.66490 0.52110 -0.08300
C 	C 	0.83735 0.67470 0.48250 0.26500
C 	C 	0.49552 0.99103 0.97553 -0.11500
C 	C 	0.49462 0.98923 0.93093 0.09300
C 	C 	0.58127 0.16253 0.97803 -0.06800
C 	C 	0.61102 0.22203 0.97963 0.27700
C 	C 	0.52667 0.05333 0.98083 0.08300
C 	C 	0.49912 0.99823 0.85443 -0.07700
C 	C 	0.50402 0.00803 0.81583 0.26100
C 	C 	0.16218 0.32437 0.30887 -0.12900
C 	C 	0.16128 0.32257 0.26427 0.09800
C 	C 	0.24793 0.49587 0.31137 -0.07000
C 	C 	0.27768 0.55537 0.31297 0.27800
C 	C 	0.19333 0.38667 0.31417 0.09100
C 	C 	0.16578 0.33157 0.18777 -0.08300
C 	C 	0.17068 0.34137 0.14917 0.26500
O 	O 	0.66160 0.41500 0.39980 -0.18300
C 	C 	0.28830 0.40760 0.44110 0.29200
C 	C 	0.34110 0.43190 0.42520 -0.10300
O 	O 	0.27730 0.38450 0.47140 -0.18800
C 	C 	0.35070 0.45760 0.39150 0.04900
H 	H 	0.32310 0.45940 0.37880 0.03800
O 	O 	0.25210 0.41190 0.42350 -0.19200
C 	C 	0.44150 0.47480 0.39240 0.11200
C 	C 	0.40320 0.48150 0.37580 -0.13500
H 	H 	0.41110 0.50190 0.35380 0.08700
O 	O 	0.47050 0.45600 0.19810 -0.19200
C 	C 	0.43100 0.45060 0.42680 -0.14300
H 	H 	0.45840 0.44920 0.44000 0.08800
C 	C 	0.52870 0.39170 0.39110 0.06300
H 	H 	0.51090 0.35410 0.38960 0.04100
C 	C 	0.50090 0.41700 0.38910 -0.14400
H 	H 	0.46330 0.39780 0.39000 0.09100
C 	C 	0.38120 0.42860 0.44190 0.06300
H 	H 	0.37440 0.41040 0.46490 0.03700
C 	C 	0.45820 0.45990 0.31420 -0.12800
H 	H 	0.42780 0.43350 0.32690 0.08200
C 	C 	0.46350 0.45610 0.27670 0.04400
H 	H 	0.43980 0.42410 0.26440 0.04300
O 	O 	0.32827 0.74833 0.73313 -0.18300
C 	C 	0.95497 0.74093 0.77443 0.29000
C 	C 	0.00777 0.76523 0.75853 -0.10100
O 	O 	0.94397 0.71783 0.80473 -0.18800
C 	C 	0.01737 0.79093 0.72483 0.05400
H 	H 	0.98977 0.79273 0.71213 0.03400
O 	O 	0.91877 0.74523 0.75683 -0.19200
C 	C 	0.10817 0.80813 0.72573 0.11300
C 	C 	0.06987 0.81483 0.70913 -0.13800
H 	H 	0.07777 0.83523 0.68713 0.08800
O 	O 	0.13717 0.78933 0.53143 -0.19200
C 	C 	0.09767 0.78393 0.76013 -0.14300
H 	H 	0.12507 0.78253 0.77333 0.08900
C 	C 	0.19537 0.72503 0.72443 0.06300
H 	H 	0.17757 0.68743 0.72293 0.04100
C 	C 	0.16757 0.75033 0.72243 -0.14400
H 	H 	0.12997 0.73113 0.72333 0.09100
C 	C 	0.04787 0.76193 0.77523 0.06300
H 	H 	0.04107 0.74373 0.79823 0.03800
C 	C 	0.12487 0.79323 0.64753 -0.12800
H 	H 	0.09447 0.76683 0.66023 0.08200
C 	C 	0.13017 0.78943 0.61003 0.04400
H 	H 	0.10647 0.75743 0.59773 0.04300
O 	O 	0.99493 0.08167 0.06647 -0.18400
C 	C 	0.62163 0.07427 0.10777 0.29200
C 	C 	0.67443 0.09857 0.09187 -0.10300
O 	O 	0.61063 0.05117 0.13807 -0.18900
C 	C 	0.68403 0.12427 0.05817 0.05000
H 	H 	0.65643 0.12607 0.04547 0.03800
O 	O 	0.58543 0.07857 0.09017 -0.19200
C 	C 	0.77483 0.14147 0.05907 0.11400
C 	C 	0.73653 0.14817 0.04247 -0.13600
H 	H 	0.74443 0.16857 0.02047 0.08800
O 	O 	0.80383 0.12267 0.86477 -0.19300
C 	C 	0.76433 0.11727 0.09347 -0.14400
H 	H 	0.79173 0.11587 0.10667 0.08800
C 	C 	0.86203 0.05837 0.05777 0.06400
H 	H 	0.84423 0.02077 0.05627 0.04000
C 	C 	0.83423 0.08367 0.05577 -0.14600
H 	H 	0.79663 0.06447 0.05667 0.09100
C 	C 	0.71453 0.09527 0.10857 0.06400
H 	H 	0.70773 0.07707 0.13157 0.03700
C 	C 	0.79153 0.12657 0.98087 -0.13800
H 	H 	0.76113 0.10017 0.99357 0.08300
C 	C 	0.79683 0.12277 0.94337 0.04900
H 	H 	0.77313 0.09077 0.93107 0.04000
O 	O 	0.58500 0.24660 0.39980 -0.18300
C 	C 	0.59240 0.88070 0.44110 0.29100
C 	C 	0.56810 0.90920 0.42520 -0.09800
O 	O 	0.61550 0.89280 0.47140 -0.18700
C 	C 	0.54240 0.89310 0.39150 0.04500
H 	H 	0.54060 0.86370 0.37880 0.03900
O 	O 	0.58810 0.84020 0.42350 -0.19200
C 	C 	0.52520 0.96670 0.39240 0.10600
C 	C 	0.51850 0.92170 0.37580 -0.13100
H 	H 	0.49810 0.90920 0.35380 0.08500
O 	O 	0.54400 0.01450 0.19810 -0.19200
C 	C 	0.54940 0.98040 0.42680 -0.13200
H 	H 	0.55080 0.00920 0.44000 0.08300
C 	C 	0.60830 0.13700 0.39110 0.05800
H 	H 	0.64590 0.15680 0.38960 0.04200
C 	C 	0.58300 0.08390 0.38910 -0.13900
H 	H 	0.60220 0.06550 0.39000 0.08800
C 	C 	0.57140 0.95260 0.44190 0.05600
H 	H 	0.58960 0.96400 0.46490 0.04000
C 	C 	0.54010 0.99830 0.31420 -0.11600
H 	H 	0.56650 0.99430 0.32690 0.07800
C 	C 	0.54390 0.00740 0.27670 0.03200
H 	H 	0.57590 0.01570 0.26440 0.04600
O 	O 	0.25167 0.57993 0.73313 -0.18300
C 	C 	0.25907 0.21403 0.77443 0.29200
C 	C 	0.23477 0.24253 0.75853 -0.10300
O 	O 	0.28217 0.22613 0.80473 -0.18800
C 	C 	0.20907 0.22643 0.72483 0.04900
H 	H 	0.20727 0.19703 0.71213 0.03800
O 	O 	0.25477 0.17353 0.75683 -0.19200
C 	C 	0.19187 0.30003 0.72573 0.11200
C 	C 	0.18517 0.25503 0.70913 -0.13600
H 	H 	0.16477 0.24253 0.68713 0.08700
O 	O 	0.21067 0.34783 0.53143 -0.19200
C 	C 	0.21607 0.31373 0.76013 -0.14300
H 	H 	0.21747 0.34253 0.77333 0.08800
C 	C 	0.27497 0.47033 0.72443 0.06300
H 	H 	0.31257 0.49013 0.72293 0.04100
C 	C 	0.24967 0.41723 0.72243 -0.14400
H 	H 	0.26887 0.39883 0.72333 0.09100
C 	C 	0.23807 0.28593 0.77523 0.06300
H 	H 	0.25627 0.29733 0.79823 0.03700
C 	C 	0.20677 0.33163 0.64753 -0.12800
H 	H 	0.23317 0.32763 0.66023 0.08200
C 	C 	0.21057 0.34073 0.61003 0.04400
H 	H 	0.24257 0.34903 0.59773 0.04300
O 	O 	0.91833 0.91327 0.06647 -0.18200
C 	C 	0.92573 0.54737 0.10777 0.29200
C 	C 	0.90143 0.57587 0.09187 -0.10300
O 	O 	0.94883 0.55947 0.13807 -0.18900
C 	C 	0.87573 0.55977 0.05817 0.05000
H 	H 	0.87393 0.53037 0.04547 0.03800
O 	O 	0.92143 0.50687 0.09017 -0.19200
C 	C 	0.85853 0.63337 0.05907 0.11400
C 	C 	0.85183 0.58837 0.04247 -0.13600
H 	H 	0.83143 0.57587 0.02047 0.08800
O 	O 	0.87733 0.68117 0.86477 -0.19300
C 	C 	0.88273 0.64707 0.09347 -0.14400
H 	H 	0.88413 0.67587 0.10667 0.08900
C 	C 	0.94163 0.80367 0.05777 0.06300
H 	H 	0.97923 0.82347 0.05627 0.04100
C 	C 	0.91633 0.75057 0.05577 -0.14500
H 	H 	0.93553 0.73217 0.05667 0.09100
C 	C 	0.90473 0.61927 0.10857 0.06400
H 	H 	0.92293 0.63067 0.13157 0.03700
C 	C 	0.87343 0.66497 0.98087 -0.13800
H 	H 	0.89983 0.66097 0.99357 0.08300
C 	C 	0.87723 0.67407 0.94337 0.05000
H 	H 	0.90923 0.68237 0.93107 0.04000
O 	O 	0.75340 0.33840 0.39980 -0.18300
C 	C 	0.11930 0.71170 0.44110 0.29100
C 	C 	0.09080 0.65890 0.42520 -0.09900
O 	O 	0.10720 0.72270 0.47140 -0.18700
C 	C 	0.10690 0.64930 0.39150 0.04500
H 	H 	0.13630 0.67690 0.37880 0.03900
O 	O 	0.15980 0.74790 0.42350 -0.19200
C 	C 	0.03330 0.55850 0.39240 0.10600
C 	C 	0.07830 0.59680 0.37580 -0.13100
H 	H 	0.09080 0.58890 0.35380 0.08500
O 	O 	0.98550 0.52950 0.19810 -0.19200
C 	C 	0.01960 0.56900 0.42680 -0.13200
H 	H 	0.99080 0.54160 0.44000 0.08300
C 	C 	0.86300 0.47130 0.39110 0.05900
H 	H 	0.84320 0.48910 0.38960 0.04200
C 	C 	0.91610 0.49910 0.38910 -0.14000
H 	H 	0.93450 0.53670 0.39000 0.08800
C 	C 	0.04740 0.61880 0.44190 0.05700
H 	H 	0.03600 0.62560 0.46490 0.04000
C 	C 	0.00170 0.54180 0.31420 -0.11700
H 	H 	0.00570 0.57220 0.32690 0.07900
C 	C 	0.99260 0.53650 0.27670 0.03300
H 	H 	0.98430 0.56020 0.26440 0.04600
O 	O 	0.42007 0.67173 0.73313 -0.18300
C 	C 	0.78597 0.04503 0.77443 0.29000
C 	C 	0.75747 0.99223 0.75853 -0.10100
O 	O 	0.77387 0.05603 0.80473 -0.18900
C 	C 	0.77357 0.98263 0.72483 0.05400
H 	H 	0.80297 0.01023 0.71213 0.03400
O 	O 	0.82647 0.08123 0.75683 -0.19200
C 	C 	0.69997 0.89183 0.72573 0.11300
C 	C 	0.74497 0.93013 0.70913 -0.13800
H 	H 	0.75747 0.92223 0.68713 0.08800
O 	O 	0.65217 0.86283 0.53143 -0.19200
C 	C 	0.68627 0.90233 0.76013 -0.14300
H 	H 	0.65747 0.87493 0.77333 0.08800
C 	C 	0.52967 0.80463 0.72443 0.06300
H 	H 	0.50987 0.82243 0.72293 0.04100
C 	C 	0.58277 0.83243 0.72243 -0.14400
H 	H 	0.60117 0.87003 0.72333 0.09100
C 	C 	0.71407 0.95213 0.77523 0.06300
H 	H 	0.70267 0.95893 0.79823 0.03800
C 	C 	0.66837 0.87513 0.64753 -0.12800
H 	H 	0.67237 0.90553 0.66023 0.08200
C 	C 	0.65927 0.86983 0.61003 0.04400
H 	H 	0.65097 0.89353 0.59773 0.04300
O 	O 	0.08673 0.00507 0.06647 -0.18300
C 	C 	0.45263 0.37837 0.10777 0.29200
C 	C 	0.42413 0.32557 0.09187 -0.10300
O 	O 	0.44053 0.38937 0.13807 -0.18800
C 	C 	0.44023 0.31597 0.05817 0.05000
H 	H 	0.46963 0.34357 0.04547 0.03800
O 	O 	0.49313 0.41457 0.09017 -0.19200
C 	C 	0.36663 0.22517 0.05907 0.11400
C 	C 	0.41163 0.26347 0.04247 -0.13600
H 	H 	0.42413 0.25557 0.02047 0.08800
O 	O 	0.31883 0.19617 0.86477 -0.19300
C 	C 	0.35293 0.23567 0.09347 -0.14400
H 	H 	0.32413 0.20827 0.10667 0.08900
C 	C 	0.19633 0.13797 0.05777 0.06300
H 	H 	0.17653 0.15577 0.05627 0.04100
C 	C 	0.24943 0.16577 0.05577 -0.14500
H 	H 	0.26783 0.20337 0.05667 0.09100
C 	C 	0.38073 0.28547 0.10857 0.06400
H 	H 	0.36933 0.29227 0.13157 0.03700
C 	C 	0.33503 0.20847 0.98087 -0.13800
H 	H 	0.33903 0.23887 0.99357 0.08400
C 	C 	0.32593 0.20317 0.94337 0.05000
H 	H 	0.31763 0.22687 0.93107 0.04000
O 	O 	0.58500 0.33840 0.39980 -0.18300
C 	C 	0.59240 0.71170 0.44110 0.29200
C 	C 	0.56810 0.65890 0.42520 -0.10200
O 	O 	0.61550 0.72270 0.47140 -0.18800
C 	C 	0.54240 0.64930 0.39150 0.04900
H 	H 	0.54060 0.67690 0.37880 0.03800
O 	O 	0.58810 0.74790 0.42350 -0.19200
C 	C 	0.52520 0.55850 0.39240 0.11200
C 	C 	0.51850 0.59680 0.37580 -0.13500
H 	H 	0.49810 0.58890 0.35380 0.08700
O 	O 	0.54400 0.52950 0.19810 -0.19200
C 	C 	0.54940 0.56900 0.42680 -0.14300
H 	H 	0.55080 0.54160 0.44000 0.08800
C 	C 	0.60830 0.47130 0.39110 0.06300
H 	H 	0.64590 0.48910 0.38960 0.04100
C 	C 	0.58300 0.49910 0.38910 -0.14400
H 	H 	0.60220 0.53670 0.39000 0.09100
C 	C 	0.57140 0.61880 0.44190 0.06300
H 	H 	0.58960 0.62560 0.46490 0.03700
C 	C 	0.54010 0.54180 0.31420 -0.12800
H 	H 	0.56650 0.57220 0.32690 0.08200
C 	C 	0.54390 0.53650 0.27670 0.04400
H 	H 	0.57590 0.56020 0.26440 0.04300
O 	O 	0.25167 0.67173 0.73313 -0.18300
C 	C 	0.25907 0.04503 0.77443 0.29000
C 	C 	0.23477 0.99223 0.75853 -0.10100
O 	O 	0.28217 0.05603 0.80473 -0.18800
C 	C 	0.20907 0.98263 0.72483 0.05400
H 	H 	0.20727 0.01023 0.71213 0.03400
O 	O 	0.25477 0.08123 0.75683 -0.19200
C 	C 	0.19187 0.89183 0.72573 0.11300
C 	C 	0.18517 0.93013 0.70913 -0.13800
H 	H 	0.16477 0.92223 0.68713 0.08800
O 	O 	0.21067 0.86283 0.53143 -0.19200
C 	C 	0.21607 0.90233 0.76013 -0.14300
H 	H 	0.21747 0.87493 0.77333 0.08900
C 	C 	0.27497 0.80463 0.72443 0.06300
H 	H 	0.31257 0.82243 0.72293 0.04100
C 	C 	0.24967 0.83243 0.72243 -0.14400
H 	H 	0.26887 0.87003 0.72333 0.09100
C 	C 	0.23807 0.95213 0.77523 0.06300
H 	H 	0.25627 0.95893 0.79823 0.03800
C 	C 	0.20677 0.87513 0.64753 -0.12800
H 	H 	0.23317 0.90553 0.66023 0.08200
C 	C 	0.21057 0.86983 0.61003 0.04400
H 	H 	0.24257 0.89353 0.59773 0.04300
O 	O 	0.91833 0.00507 0.06647 -0.18400
C 	C 	0.92573 0.37837 0.10777 0.29200
C 	C 	0.90143 0.32557 0.09187 -0.10300
O 	O 	0.94883 0.38937 0.13807 -0.18900
C 	C 	0.87573 0.31597 0.05817 0.05000
H 	H 	0.87393 0.34357 0.04547 0.03800
O 	O 	0.92143 0.41457 0.09017 -0.19200
C 	C 	0.85853 0.22517 0.05907 0.11400
C 	C 	0.85183 0.26347 0.04247 -0.13600
H 	H 	0.83143 0.25557 0.02047 0.08800
O 	O 	0.87733 0.19617 0.86477 -0.19300
C 	C 	0.88273 0.23567 0.09347 -0.14400
H 	H 	0.88413 0.20827 0.10667 0.08800
C 	C 	0.94163 0.13797 0.05777 0.06400
H 	H 	0.97923 0.15577 0.05627 0.04000
C 	C 	0.91633 0.16577 0.05577 -0.14600
H 	H 	0.93553 0.20337 0.05667 0.09100
C 	C 	0.90473 0.28547 0.10857 0.06400
H 	H 	0.92293 0.29227 0.13157 0.03700
C 	C 	0.87343 0.20847 0.98087 -0.13800
H 	H 	0.89983 0.23887 0.99357 0.08300
C 	C 	0.87723 0.20317 0.94337 0.04900
H 	H 	0.90923 0.22687 0.93107 0.04000
O 	O 	0.75340 0.41500 0.39980 -0.18300
C 	C 	0.11930 0.40760 0.44110 0.29100
C 	C 	0.09080 0.43190 0.42520 -0.09900
O 	O 	0.10720 0.38450 0.47140 -0.18700
C 	C 	0.10690 0.45760 0.39150 0.04500
H 	H 	0.13630 0.45940 0.37880 0.03900
O 	O 	0.15980 0.41190 0.42350 -0.19200
C 	C 	0.03330 0.47480 0.39240 0.10600
C 	C 	0.07830 0.48150 0.37580 -0.13100
H 	H 	0.09080 0.50190 0.35380 0.08500
O 	O 	0.98550 0.45600 0.19810 -0.19200
C 	C 	0.01960 0.45060 0.42680 -0.13200
H 	H 	0.99080 0.44920 0.44000 0.08300
C 	C 	0.86300 0.39170 0.39110 0.05900
H 	H 	0.84320 0.35410 0.38960 0.04200
C 	C 	0.91610 0.41700 0.38910 -0.14000
H 	H 	0.93450 0.39780 0.39000 0.08800
C 	C 	0.04740 0.42860 0.44190 0.05700
H 	H 	0.03600 0.41040 0.46490 0.04000
C 	C 	0.00170 0.45990 0.31420 -0.11700
H 	H 	0.00570 0.43350 0.32690 0.07900
C 	C 	0.99260 0.45610 0.27670 0.03300
H 	H 	0.98430 0.42410 0.26440 0.04500
O 	O 	0.42007 0.74833 0.73313 -0.18300
C 	C 	0.78597 0.74093 0.77443 0.29200
C 	C 	0.75747 0.76523 0.75853 -0.10300
O 	O 	0.77387 0.71783 0.80473 -0.18800
C 	C 	0.77357 0.79093 0.72483 0.04900
H 	H 	0.80297 0.79273 0.71213 0.03800
O 	O 	0.82647 0.74523 0.75683 -0.19200
C 	C 	0.69997 0.80813 0.72573 0.11200
C 	C 	0.74497 0.81483 0.70913 -0.13600
H 	H 	0.75747 0.83523 0.68713 0.08700
O 	O 	0.65217 0.78933 0.53143 -0.19200
C 	C 	0.68627 0.78393 0.76013 -0.14300
H 	H 	0.65747 0.78253 0.77333 0.08800
C 	C 	0.52967 0.72503 0.72443 0.06300
H 	H 	0.50987 0.68743 0.72293 0.04100
C 	C 	0.58277 0.75033 0.72243 -0.14400
H 	H 	0.60117 0.73113 0.72333 0.09100
C 	C 	0.71407 0.76193 0.77523 0.06300
H 	H 	0.70267 0.74373 0.79823 0.03700
C 	C 	0.66837 0.79323 0.64753 -0.12800
H 	H 	0.67237 0.76683 0.66023 0.08200
C 	C 	0.65927 0.78943 0.61003 0.04400
H 	H 	0.65097 0.75743 0.59773 0.04300
O 	O 	0.08673 0.08167 0.06647 -0.18200
C 	C 	0.45263 0.07427 0.10777 0.29200
C 	C 	0.42413 0.09857 0.09187 -0.10300
O 	O 	0.44053 0.05117 0.13807 -0.18900
C 	C 	0.44023 0.12427 0.05817 0.05000
H 	H 	0.46963 0.12607 0.04547 0.03800
O 	O 	0.49313 0.07857 0.09017 -0.19200
C 	C 	0.36663 0.14147 0.05907 0.11400
C 	C 	0.41163 0.14817 0.04247 -0.13600
H 	H 	0.42413 0.16857 0.02047 0.08800
O 	O 	0.31883 0.12267 0.86477 -0.19300
C 	C 	0.35293 0.11727 0.09347 -0.14400
H 	H 	0.32413 0.11587 0.10667 0.08900
C 	C 	0.19633 0.05837 0.05777 0.06300
H 	H 	0.17653 0.02077 0.05627 0.04100
C 	C 	0.24943 0.08367 0.05577 -0.14500
H 	H 	0.26783 0.06447 0.05667 0.09100
C 	C 	0.38073 0.09527 0.10857 0.06400
H 	H 	0.36933 0.07707 0.13157 0.03700
C 	C 	0.33503 0.12657 0.98087 -0.13800
H 	H 	0.33903 0.10017 0.99357 0.08300
C 	C 	0.32593 0.12277 0.94337 0.05000
H 	H 	0.31763 0.09077 0.93107 0.04000
O 	O 	0.66160 0.24660 0.39980 -0.18300
C 	C 	0.28830 0.88070 0.44110 0.29100
C 	C 	0.34110 0.90920 0.42520 -0.09800
O 	O 	0.27730 0.89280 0.47140 -0.18700
C 	C 	0.35070 0.89310 0.39150 0.04500
H 	H 	0.32310 0.86370 0.37880 0.03900
O 	O 	0.25210 0.84020 0.42350 -0.19200
C 	C 	0.44150 0.96670 0.39240 0.10600
C 	C 	0.40320 0.92170 0.37580 -0.13100
H 	H 	0.41110 0.90920 0.35380 0.08500
O 	O 	0.47050 0.01450 0.19810 -0.19200
C 	C 	0.43100 0.98040 0.42680 -0.13200
H 	H 	0.45840 0.00920 0.44000 0.08300
C 	C 	0.52870 0.13700 0.39110 0.05800
H 	H 	0.51090 0.15680 0.38960 0.04200
C 	C 	0.50090 0.08390 0.38910 -0.13900
H 	H 	0.46330 0.06550 0.39000 0.08800
C 	C 	0.38120 0.95260 0.44190 0.05600
H 	H 	0.37440 0.96400 0.46490 0.04000
C 	C 	0.45820 0.99830 0.31420 -0.11600
H 	H 	0.42780 0.99430 0.32690 0.07800
C 	C 	0.46350 0.00740 0.27670 0.03200
H 	H 	0.43980 0.01570 0.26440 0.04600
O 	O 	0.32827 0.57993 0.73313 -0.18300
C 	C 	0.95497 0.21403 0.77443 0.29000
C 	C 	0.00777 0.24253 0.75853 -0.10100
O 	O 	0.94397 0.22613 0.80473 -0.18900
C 	C 	0.01737 0.22643 0.72483 0.05400
H 	H 	0.98977 0.19703 0.71213 0.03400
O 	O 	0.91877 0.17353 0.75683 -0.19200
C 	C 	0.10817 0.30003 0.72573 0.11300
C 	C 	0.06987 0.25503 0.70913 -0.13800
H 	H 	0.07777 0.24253 0.68713 0.08800
O 	O 	0.13717 0.34783 0.53143 -0.19200
C 	C 	0.09767 0.31373 0.76013 -0.14300
H 	H 	0.12507 0.34253 0.77333 0.08800
C 	C 	0.19537 0.47033 0.72443 0.06300
H 	H 	0.17757 0.49013 0.72293 0.04100
C 	C 	0.16757 0.41723 0.72243 -0.14400
H 	H 	0.12997 0.39883 0.72333 0.09100
C 	C 	0.04787 0.28593 0.77523 0.06300
H 	H 	0.04107 0.29733 0.79823 0.03800
C 	C 	0.12487 0.33163 0.64753 -0.12800
H 	H 	0.09447 0.32763 0.66023 0.08200
C 	C 	0.13017 0.34073 0.61003 0.04400
H 	H 	0.10647 0.34903 0.59773 0.04300
O 	O 	0.99493 0.91327 0.06647 -0.18300
C 	C 	0.62163 0.54737 0.10777 0.29200
C 	C 	0.67443 0.57587 0.09187 -0.10300
O 	O 	0.61063 0.55947 0.13807 -0.18800
C 	C 	0.68403 0.55977 0.05817 0.05000
H 	H 	0.65643 0.53037 0.04547 0.03800
O 	O 	0.58543 0.50687 0.09017 -0.19200
C 	C 	0.77483 0.63337 0.05907 0.11400
C 	C 	0.73653 0.58837 0.04247 -0.13600
H 	H 	0.74443 0.57587 0.02047 0.08800
O 	O 	0.80383 0.68117 0.86477 -0.19300
C 	C 	0.76433 0.64707 0.09347 -0.14400
H 	H 	0.79173 0.67587 0.10667 0.08900
C 	C 	0.86203 0.80367 0.05777 0.06300
H 	H 	0.84423 0.82347 0.05627 0.04100
C 	C 	0.83423 0.75057 0.05577 -0.14500
H 	H 	0.79663 0.73217 0.05667 0.09100
C 	C 	0.71453 0.61927 0.10857 0.06400
H 	H 	0.70773 0.63067 0.13157 0.03700
C 	C 	0.79153 0.66497 0.98087 -0.13800
H 	H 	0.76113 0.66097 0.99357 0.08400
C 	C 	0.79683 0.67407 0.94337 0.05000
H 	H 	0.77313 0.68237 0.93107 0.04100
C 	C 	0.52840 0.47160 0.38590 0.11000
C 	C 	0.49750 0.50250 0.37670 -0.12700
C 	C 	0.58100 0.41900 0.39500 -0.09100
C 	C 	0.61170 0.38830 0.39930 0.28600
C 	C 	0.49760 0.50240 0.33350 0.10000
C 	C 	0.50230 0.49770 0.25660 -0.07900
C 	C 	0.50320 0.49680 0.21390 0.30600
C 	C 	0.19507 0.80493 0.71923 0.11000
C 	C 	0.16417 0.83583 0.71003 -0.12700
C 	C 	0.24767 0.75233 0.72833 -0.09100
C 	C 	0.27837 0.72163 0.73263 0.28600
C 	C 	0.16427 0.83573 0.66683 0.10100
C 	C 	0.16897 0.83103 0.58993 -0.07900
C 	C 	0.16987 0.83013 0.54723 0.30600
C 	C 	0.86173 0.13827 0.05257 0.11100
C 	C 	0.83083 0.16917 0.04337 -0.13000
C 	C 	0.91433 0.08567 0.06167 -0.09200
C 	C 	0.94503 0.05497 0.06597 0.28700
C 	C 	0.83093 0.16907 0.00017 0.11000
C 	C 	0.83563 0.16437 0.92327 -0.08400
C 	C 	0.83653 0.16347 0.88057 0.30700
C 	C 	0.52840 0.05680 0.38590 0.10300
C 	C 	0.49750 0.99500 0.37670 -0.11800
C 	C 	0.58100 0.16200 0.39500 -0.08800
C 	C 	0.61170 0.22340 0.39930 0.28500
C 	C 	0.49760 0.99520 0.33350 0.09200
C 	C 	0.50230 0.00460 0.25660 -0.07300
C 	C 	0.50320 0.00640 0.21390 0.30300
C 	C 	0.19507 0.39013 0.71923 0.11000
C 	C 	0.16417 0.32833 0.71003 -0.12700
C 	C 	0.24767 0.49533 0.72833 -0.09100
C 	C 	0.27837 0.55673 0.73263 0.28600
C 	C 	0.16427 0.32853 0.66683 0.10000
C 	C 	0.16897 0.33793 0.58993 -0.07900
C 	C 	0.16987 0.33973 0.54723 0.30600
C 	C 	0.86173 0.72347 0.05257 0.11100
C 	C 	0.83083 0.66167 0.04337 -0.13000
C 	C 	0.91433 0.82867 0.06167 -0.09100
C 	C 	0.94503 0.89007 0.06597 0.28600
C 	C 	0.83093 0.66187 0.00017 0.11000
C 	C 	0.83563 0.67127 0.92327 -0.08400
C 	C 	0.83653 0.67307 0.88057 0.30700
C 	C 	0.94320 0.47160 0.38590 0.10300
C 	C 	0.00500 0.50250 0.37670 -0.11800
C 	C 	0.83800 0.41900 0.39500 -0.08800
C 	C 	0.77660 0.38830 0.39930 0.28500
C 	C 	0.00480 0.50240 0.33350 0.09300
C 	C 	0.99540 0.49770 0.25660 -0.07300
C 	C 	0.99360 0.49680 0.21390 0.30300
C 	C 	0.60987 0.80493 0.71923 0.11000
C 	C 	0.67167 0.83583 0.71003 -0.12700
C 	C 	0.50467 0.75233 0.72833 -0.09100
C 	C 	0.44327 0.72163 0.73263 0.28600
C 	C 	0.67147 0.83573 0.66683 0.10100
C 	C 	0.66207 0.83103 0.58993 -0.07900
C 	C 	0.66027 0.83013 0.54723 0.30600
C 	C 	0.27653 0.13827 0.05257 0.11100
C 	C 	0.33833 0.16917 0.04337 -0.13000
C 	C 	0.17133 0.08567 0.06167 -0.09100
C 	C 	0.10993 0.05497 0.06597 0.28600
C 	C 	0.33813 0.16907 0.00017 0.11000
C 	C 	0.32873 0.16437 0.92327 -0.08400
C 	C 	0.32693 0.16347 0.88057 0.30700
U 	U 	0.19014 0.38028 0.47443 0.01000
U 	U 	0.85681 0.71361 0.80776 0.01000
U 	U 	0.52347 0.04695 0.14110 0.01000
U 	U 	0.61972 0.80986 0.47443 0.01000
U 	U 	0.28639 0.14319 0.80776 0.01000
U 	U 	0.95305 0.47653 0.14110 0.01000
U 	U 	0.19014 0.80986 0.47443 0.01100
U 	U 	0.85681 0.14319 0.80776 0.01000
U 	U 	0.52347 0.47653 0.14110 0.01000
U 	U 	0.66667 0.33333 0.40149 0.00900
U 	U 	0.33333 0.66667 0.73482 0.00900
U 	U 	-0.00000 0.00000 0.06816 0.01000
