data_crystal

_cell_length_a 21.23000
_cell_length_b 32.11300
_cell_length_c 14.91700
_cell_angle_alpha 90.00000
_cell_angle_beta  132.84700
_cell_angle_gamma 90.00000

_symmetry_space_group_name_	'P 1'
_symmetry_space_group_name_H-M	'P 1'

loop_
_symmetry_equiv_pos_as_xyz
  x,y,z

loop_
_atom_site_label
_atom_site_type_symbol
_atom_site_fract_x
_atom_site_fract_y
_atom_site_fract_z
_atom_site_charge
Cd	Cd	0.73141 0.46809 0.50656 1.23000
Cd	Cd	0.72967 0.90828 0.85213 1.22000
Cd	Cd	0.23267 0.96273 0.22703 1.22000
N 	N 	0.58590 0.47110 0.36970 -0.24000
N 	N 	0.45430 0.45030 0.22260 -0.22300
H 	H 	0.41090 0.43390 0.17660 0.15000
N 	N 	0.13280 0.45260 0.82410 -0.23900
N 	N 	0.00290 0.47570 0.71830 -0.20700
H 	H 	0.94780 0.47590 0.66940 0.13900
N 	N 	0.37210 0.96120 0.35850 -0.24000
N 	N 	0.50680 0.93940 0.48990 -0.21600
H 	H 	0.55040 0.92300 0.53420 0.15000
N 	N 	0.82780 0.94710 0.87430 -0.24300
N 	N 	0.95950 0.96580 0.97250 -0.20400
H 	H 	0.01470 0.96530 0.02370 0.12800
O 	O 	0.82670 0.51520 0.51710 -0.39500
O 	O 	0.75200 0.53590 0.55940 -0.47000
O 	O 	0.70860 0.85580 0.94040 -0.35400
O 	O 	0.82680 0.89277 0.06110 -0.40000
O 	O 	0.21240 0.88180 0.18490 -0.32600
O 	O 	0.11580 0.93098 0.06890 -0.41800
O 	O 	0.15930 0.01859 0.21990 -0.42100
O 	O 	0.22930 0.03228 0.16440 -0.50900
O 	O 	0.26180 0.35270 0.77630 -0.35600
O 	O 	0.13950 0.38554 0.65250 -0.39800
O 	O 	0.79600 0.36830 0.49850 -0.26600
O 	O 	0.83820 0.42221 0.62140 -0.40600
O 	O 	0.70620 0.42934 0.34840 -0.74700
H 	H 	0.67680 0.40780 0.33230 0.32000
H 	H 	0.67880 0.44440 0.28460 0.18100
C 	C 	0.80180 0.54360 0.54260 0.35600
C 	C 	0.82740 0.58780 0.55140 -0.14400
C 	C 	0.82120 0.61570 0.61600 0.07100
H 	H 	0.80480 0.60640 0.65660 0.01100
C 	C 	0.83950 0.65740 0.62030 -0.13900
H 	H 	0.83840 0.67550 0.66770 0.08500
C 	C 	0.85920 0.67240 0.55630 0.06400
C 	C 	0.86550 0.64470 0.49230 -0.13600
H 	H 	0.87980 0.65440 0.44930 0.08100
C 	C 	0.85060 0.60200 0.49130 0.06700
H 	H 	0.85650 0.58350 0.44960 0.01600
C 	C 	0.87720 0.71760 0.56140 0.02900
C 	C 	0.91670 0.74100 0.66810 -0.10700
H 	H 	0.93220 0.72810 0.73650 0.07100
C 	C 	0.93250 0.78300 0.67150 0.04100
C 	C 	0.90800 0.80230 0.56840 -0.10900
H 	H 	0.91760 0.83070 0.57070 0.06700
C 	C 	0.86900 0.78000 0.46090 0.04200
C 	C 	0.85420 0.73760 0.45870 -0.10500
H 	H 	0.82870 0.72220 0.38830 0.06900
C 	C 	0.84770 0.80110 0.35480 0.03900
C 	C 	0.89790 0.83380 0.37040 -0.10900
H 	H 	0.94660 0.84220 0.44880 0.06900
C 	C 	0.87620 0.85360 0.27170 0.02600
H 	H 	0.91090 0.87500 0.28410 0.02800
C 	C 	0.80240 0.84240 0.15160 -0.09600
C 	C 	0.75350 0.80940 0.13600 0.02600
H 	H 	0.70510 0.80090 0.05740 0.03400
C 	C 	0.77570 0.78910 0.23570 -0.10600
H 	H 	0.74220 0.76700 0.22320 0.07200
C 	C 	0.77720 0.86520 0.04410 0.29500
C 	C 	0.97940 0.80880 0.78380 0.04600
C 	C 	0.95300 0.84930 0.77550 -0.11400
H 	H 	0.90000 0.85840 0.70310 0.07300
C 	C 	0.00520 0.87650 0.87520 0.03900
H 	H 	0.98850 0.90400 0.86710 0.03400
C 	C 	0.08090 0.86260 0.98460 -0.09100
C 	C 	0.10400 0.82180 0.99610 0.06600
H 	H 	0.15470 0.81220 0.07090 0.01300
C 	C 	0.05260 0.79410 0.89690 -0.11900
H 	H 	0.06760 0.76610 0.90710 0.08200
C 	C 	0.14050 0.89310 0.08740 0.29500
C 	C 	0.18420 0.04390 0.18500 0.36600
C 	C 	0.16150 0.08950 0.17360 -0.15300
C 	C 	0.17730 0.11730 0.12050 0.07300
H 	H 	0.20080 0.10770 0.08970 -0.02000
C 	C 	0.15860 0.15930 0.11230 -0.13700
H 	H 	0.16670 0.17740 0.07220 0.07400
C 	C 	0.12800 0.17450 0.16360 0.04500
C 	C 	0.11450 0.14620 0.22080 -0.12900
H 	H 	0.09450 0.15580 0.25660 0.07900
C 	C 	0.13050 0.10420 0.22440 0.06500
H 	H 	0.12040 0.08570 0.26130 0.01800
C 	C 	0.10830 0.21940 0.15700 0.05700
C 	C 	0.06820 0.24180 0.05070 -0.15700
H 	H 	0.05380 0.22840 0.98350 0.10000
C 	C 	0.04880 0.28410 0.04220 0.05700
C 	C 	0.07260 0.30300 0.14500 -0.12000
H 	H 	0.06070 0.33110 0.14080 0.06900
C 	C 	0.11370 0.28190 0.25490 0.05200
C 	C 	0.13110 0.23930 0.25800 -0.12200
H 	H 	0.15850 0.22430 0.32950 0.07500
C 	C 	0.13540 0.30210 0.36150 0.03500
C 	C 	0.08370 0.33380 0.34480 -0.10500
H 	H 	0.03670 0.34300 0.26620 0.06800
C 	C 	0.10200 0.35200 0.44500 0.02800
H 	H 	0.06650 0.37300 0.43240 0.03100
C 	C 	0.17200 0.33940 0.56310 -0.09900
C 	C 	0.22400 0.30880 0.58060 0.02500
H 	H 	0.27200 0.30050 0.65960 0.04000
C 	C 	0.20580 0.28960 0.48050 -0.10300
H 	H 	0.24110 0.26830 0.49390 0.07100
C 	C 	0.19310 0.35910 0.67160 0.31700
C 	C 	0.99980 0.30820 0.92720 0.01800
C 	C 	0.00810 0.35050 0.92970 -0.04200
H 	H 	0.05010 0.36350 0.00480 0.03100
C 	C 	0.95680 0.37460 0.82560 -0.00300
H 	H 	0.96310 0.40340 0.83240 0.04000
C 	C 	0.89730 0.35710 0.71340 -0.08800
C 	C 	0.88670 0.31420 0.70630 0.01600
H 	H 	0.84540 0.30150 0.63040 0.03900
C 	C 	0.93690 0.29000 0.81100 -0.08600
H 	H 	0.92900 0.26130 0.80450 0.06600
C 	C 	0.84010 0.38440 0.60290 0.33200
C 	C 	0.53550 0.43900 0.31860 0.12600
H 	H 	0.55330 0.41170 0.34510 -0.03500
C 	C 	0.53690 0.50450 0.30430 -0.01600
H 	H 	0.55680 0.53180 0.32000 0.03300
C 	C 	0.45290 0.49250 0.21070 0.05500
C 	C 	0.37430 0.51580 0.11250 0.01700
C 	C 	0.37880 0.55750 0.09540 -0.05000
H 	H 	0.43170 0.57100 0.14540 0.04400
C 	C 	0.30290 0.57960 0.00180 -0.08600
H 	H 	0.30510 0.60810 0.99380 0.07200
C 	C 	0.22570 0.55910 0.92260 -0.02500
H 	H 	0.17660 0.57340 0.85770 0.04300
C 	C 	0.22050 0.51730 0.93840 0.02300
C 	C 	0.29490 0.49650 0.03480 -0.11100
H 	H 	0.29130 0.46860 0.04780 0.04400
C 	C 	0.13790 0.49470 0.85120 0.02800
C 	C 	0.05660 0.50920 0.78370 0.01800
H 	H 	0.04040 0.53630 0.78210 0.03200
C 	C 	0.05090 0.44370 0.74410 0.13500
H 	H 	0.02910 0.41740 0.70940 -0.01900
C 	C 	0.42370 0.92750 0.41530 0.11500
H 	H 	0.40490 0.90020 0.40480 -0.00600
C 	C 	0.42790 0.99480 0.40110 -0.02300
H 	H 	0.41080 0.02230 0.37650 0.03300
C 	C 	0.51060 0.98150 0.48380 0.05500
C 	C 	0.59280 0.00460 0.56110 0.04400
C 	C 	0.59240 0.04650 0.54810 -0.10400
H 	H 	0.54080 0.06060 0.49010 0.06500
C 	C 	0.67110 0.06840 0.62350 0.02300
H 	H 	0.67170 0.09660 0.61050 0.02200
C 	C 	0.74490 0.04860 0.71390 -0.10800
H 	H 	0.79580 0.06360 0.76660 0.07100
C 	C 	0.74570 0.00660 0.72900 0.04200
C 	C 	0.67010 0.98480 0.64820 -0.11300
H 	H 	0.67130 0.95590 0.65270 0.04000
C 	C 	0.82620 0.98460 0.82900 0.02000
C 	C 	0.90970 0.99560 0.89220 0.03200
H 	H 	0.92790 0.01970 0.88080 0.02700
C 	C 	0.91000 0.93670 0.96070 0.15400
H 	H 	0.93000 0.91240 0.00680 -0.04200
Cd	Cd	0.23141 0.96809 0.50656 1.23100
Cd	Cd	0.22967 0.40828 0.85213 1.22100
Cd	Cd	0.73267 0.46273 0.22703 1.22100
N 	N 	0.08590 0.97110 0.36970 -0.24100
N 	N 	0.95430 0.95030 0.22260 -0.22400
H 	H 	0.91090 0.93390 0.17660 0.15000
N 	N 	0.63280 0.95260 0.82410 -0.23900
N 	N 	0.50290 0.97570 0.71830 -0.21100
H 	H 	0.44780 0.97590 0.66940 0.14200
N 	N 	0.87210 0.46120 0.35850 -0.23900
N 	N 	0.00680 0.43940 0.48990 -0.21500
H 	H 	0.05040 0.42300 0.53420 0.15000
N 	N 	0.32780 0.44710 0.87430 -0.24300
N 	N 	0.45950 0.46580 0.97250 -0.20100
H 	H 	0.51470 0.46530 0.02370 0.12400
O 	O 	0.32670 0.01520 0.51710 -0.39400
O 	O 	0.25200 0.03590 0.55940 -0.47000
O 	O 	0.20860 0.35580 0.94040 -0.35300
O 	O 	0.32680 0.39277 0.06110 -0.40000
O 	O 	0.71240 0.38180 0.18490 -0.32600
O 	O 	0.61580 0.43098 0.06890 -0.41800
O 	O 	0.65930 0.51859 0.21990 -0.42200
O 	O 	0.72930 0.53228 0.16440 -0.50900
O 	O 	0.76180 0.85270 0.77630 -0.35700
O 	O 	0.63950 0.88554 0.65250 -0.39800
O 	O 	0.29600 0.86830 0.49850 -0.26700
O 	O 	0.33820 0.92221 0.62140 -0.40700
O 	O 	0.20620 0.92934 0.34840 -0.74700
H 	H 	0.17680 0.90780 0.33230 0.32100
H 	H 	0.17880 0.94440 0.28460 0.18100
C 	C 	0.30180 0.04360 0.54260 0.35700
C 	C 	0.32740 0.08780 0.55140 -0.14300
C 	C 	0.32120 0.11570 0.61600 0.07100
H 	H 	0.30480 0.10640 0.65660 0.01100
C 	C 	0.33950 0.15740 0.62030 -0.13900
H 	H 	0.33840 0.17550 0.66770 0.08500
C 	C 	0.35920 0.17240 0.55630 0.06500
C 	C 	0.36550 0.14470 0.49230 -0.13600
H 	H 	0.37980 0.15440 0.44930 0.08100
C 	C 	0.35060 0.10200 0.49130 0.06700
H 	H 	0.35650 0.08350 0.44960 0.01600
C 	C 	0.37720 0.21760 0.56140 0.03000
C 	C 	0.41670 0.24100 0.66810 -0.10800
H 	H 	0.43220 0.22810 0.73650 0.07200
C 	C 	0.43250 0.28300 0.67150 0.04200
C 	C 	0.40800 0.30230 0.56840 -0.10900
H 	H 	0.41760 0.33070 0.57070 0.06800
C 	C 	0.36900 0.28000 0.46090 0.04300
C 	C 	0.35420 0.23760 0.45870 -0.10500
H 	H 	0.32870 0.22220 0.38830 0.06900
C 	C 	0.34770 0.30110 0.35480 0.03900
C 	C 	0.39790 0.33380 0.37040 -0.10800
H 	H 	0.44660 0.34220 0.44880 0.06900
C 	C 	0.37620 0.35360 0.27170 0.02500
H 	H 	0.41090 0.37500 0.28410 0.02900
C 	C 	0.30240 0.34240 0.15160 -0.09600
C 	C 	0.25350 0.30940 0.13600 0.02600
H 	H 	0.20510 0.30090 0.05740 0.03400
C 	C 	0.27570 0.28910 0.23570 -0.10600
H 	H 	0.24220 0.26700 0.22320 0.07200
C 	C 	0.27720 0.36520 0.04410 0.29500
C 	C 	0.47940 0.30880 0.78380 0.04600
C 	C 	0.45300 0.34930 0.77550 -0.10400
H 	H 	0.40000 0.35840 0.70310 0.07000
C 	C 	0.50520 0.37650 0.87520 0.02400
H 	H 	0.48850 0.40400 0.86710 0.04100
C 	C 	0.58090 0.36260 0.98460 -0.08500
C 	C 	0.60400 0.32180 0.99610 0.06300
H 	H 	0.65470 0.31220 0.07090 0.01300
C 	C 	0.55260 0.29410 0.89690 -0.12000
H 	H 	0.56760 0.26610 0.90710 0.08100
C 	C 	0.64050 0.39310 0.08740 0.29200
C 	C 	0.68420 0.54390 0.18500 0.36700
C 	C 	0.66150 0.58950 0.17360 -0.15400
C 	C 	0.67730 0.61730 0.12050 0.07400
H 	H 	0.70080 0.60770 0.08970 -0.02100
C 	C 	0.65860 0.65930 0.11230 -0.13900
H 	H 	0.66670 0.67740 0.07220 0.07400
C 	C 	0.62800 0.67450 0.16360 0.04800
C 	C 	0.61450 0.64620 0.22080 -0.13100
H 	H 	0.59450 0.65580 0.25660 0.07900
C 	C 	0.63050 0.60420 0.22440 0.06500
H 	H 	0.62040 0.58570 0.26130 0.01800
C 	C 	0.60830 0.71940 0.15700 0.05100
C 	C 	0.56820 0.74180 0.05070 -0.14900
H 	H 	0.55380 0.72840 0.98350 0.09600
C 	C 	0.54880 0.78410 0.04220 0.04400
C 	C 	0.57260 0.80300 0.14500 -0.11200
H 	H 	0.56070 0.83110 0.14080 0.06600
C 	C 	0.61370 0.78190 0.25490 0.04700
C 	C 	0.63110 0.73930 0.25800 -0.11800
H 	H 	0.65850 0.72430 0.32950 0.07400
C 	C 	0.63540 0.80210 0.36150 0.03700
C 	C 	0.58370 0.83380 0.34480 -0.10700
H 	H 	0.53670 0.84300 0.26620 0.06800
C 	C 	0.60200 0.85200 0.44500 0.02900
H 	H 	0.56650 0.87300 0.43240 0.03000
C 	C 	0.67200 0.83940 0.56310 -0.10000
C 	C 	0.72400 0.80880 0.58060 0.02700
H 	H 	0.77200 0.80050 0.65960 0.03900
C 	C 	0.70580 0.78960 0.48050 -0.10500
H 	H 	0.74110 0.76830 0.49390 0.07200
C 	C 	0.69310 0.85910 0.67160 0.31800
C 	C 	0.49980 0.80820 0.92720 0.03800
C 	C 	0.50810 0.85050 0.92970 -0.06700
H 	H 	0.55010 0.86350 0.00480 0.03900
C 	C 	0.45680 0.87460 0.82560 0.01800
H 	H 	0.46310 0.90340 0.83240 0.03400
C 	C 	0.39730 0.85710 0.71340 -0.10000
C 	C 	0.38670 0.81420 0.70630 0.02900
H 	H 	0.34540 0.80150 0.63040 0.03500
C 	C 	0.43690 0.79000 0.81100 -0.10000
H 	H 	0.42900 0.76130 0.80450 0.07200
C 	C 	0.34010 0.88440 0.60290 0.33700
C 	C 	0.03550 0.93900 0.31860 0.12900
H 	H 	0.05330 0.91170 0.34510 -0.03500
C 	C 	0.03690 0.00450 0.30430 -0.01100
H 	H 	0.05680 0.03180 0.32000 0.03200
C 	C 	0.95290 0.99250 0.21070 0.05100
C 	C 	0.87430 0.01580 0.11250 0.01900
C 	C 	0.87880 0.05750 0.09540 -0.05100
H 	H 	0.93170 0.07100 0.14540 0.04400
C 	C 	0.80290 0.07960 0.00180 -0.08500
H 	H 	0.80510 0.10810 0.99380 0.07200
C 	C 	0.72570 0.05910 0.92260 -0.02600
H 	H 	0.67660 0.07340 0.85770 0.04300
C 	C 	0.72050 0.01730 0.93840 0.02500
C 	C 	0.79490 0.99650 0.03480 -0.11200
H 	H 	0.79130 0.96860 0.04780 0.04400
C 	C 	0.63790 0.99470 0.85120 0.02600
C 	C 	0.55660 0.00920 0.78370 0.02000
H 	H 	0.54040 0.03630 0.78210 0.03000
C 	C 	0.55090 0.94370 0.74410 0.13600
H 	H 	0.52910 0.91740 0.70940 -0.02000
C 	C 	0.92370 0.42750 0.41530 0.11100
H 	H 	0.90490 0.40020 0.40480 -0.00500
C 	C 	0.92790 0.49480 0.40110 -0.02800
H 	H 	0.91080 0.52230 0.37650 0.03400
C 	C 	0.01060 0.48150 0.48380 0.06000
C 	C 	0.09280 0.50460 0.56110 0.04000
C 	C 	0.09240 0.54650 0.54810 -0.10100
H 	H 	0.04080 0.56060 0.49010 0.06500
C 	C 	0.17110 0.56840 0.62350 0.02100
H 	H 	0.17170 0.59660 0.61050 0.02400
C 	C 	0.24490 0.54860 0.71390 -0.10500
H 	H 	0.29580 0.56360 0.76660 0.07100
C 	C 	0.24570 0.50660 0.72900 0.04000
C 	C 	0.17010 0.48480 0.64820 -0.10900
H 	H 	0.17130 0.45590 0.65270 0.03900
C 	C 	0.32620 0.48460 0.82900 0.02100
C 	C 	0.40970 0.49560 0.89220 0.03100
H 	H 	0.42790 0.51970 0.88080 0.02800
C 	C 	0.41000 0.43670 0.96070 0.15500
H 	H 	0.43000 0.41240 0.00680 -0.04200
Cd	Cd	0.73141 0.53191 0.00656 1.22700
Cd	Cd	0.72967 0.09172 0.35213 1.21800
Cd	Cd	0.23267 0.03727 0.72703 1.22200
N 	N 	0.58590 0.52890 0.86970 -0.23600
N 	N 	0.45430 0.54970 0.72260 -0.22100
H 	H 	0.41090 0.56610 0.67660 0.15100
N 	N 	0.13280 0.54740 0.32410 -0.24000
N 	N 	0.00290 0.52430 0.21830 -0.20800
H 	H 	0.94780 0.52410 0.16940 0.13800
N 	N 	0.37210 0.03880 0.85850 -0.23800
N 	N 	0.50680 0.06060 0.98990 -0.20200
H 	H 	0.55040 0.07700 0.03420 0.13300
N 	N 	0.82780 0.05290 0.37430 -0.24000
N 	N 	0.95950 0.03420 0.47250 -0.21400
H 	H 	0.01470 0.03470 0.52370 0.14200
O 	O 	0.82670 0.48480 0.01710 -0.40500
O 	O 	0.75200 0.46410 0.05940 -0.47600
O 	O 	0.70860 0.14420 0.44040 -0.37400
O 	O 	0.82680 0.10723 0.56110 -0.40000
O 	O 	0.21240 0.11820 0.68490 -0.32600
O 	O 	0.11580 0.06902 0.56890 -0.41500
O 	O 	0.15930 0.98141 0.71990 -0.41800
O 	O 	0.22930 0.96772 0.66440 -0.50700
O 	O 	0.26180 0.64730 0.27630 -0.36100
O 	O 	0.13950 0.61446 0.15250 -0.40300
O 	O 	0.79600 0.63170 0.99850 -0.24700
O 	O 	0.83820 0.57779 0.12140 -0.40500
O 	O 	0.70620 0.57066 0.84840 -0.74200
H 	H 	0.67680 0.59220 0.83230 0.32100
H 	H 	0.67880 0.55560 0.78460 0.18100
C 	C 	0.80180 0.45640 0.04260 0.36300
C 	C 	0.82740 0.41220 0.05140 -0.17000
C 	C 	0.82120 0.38430 0.11600 0.07700
H 	H 	0.80480 0.39360 0.15660 0.00700
C 	C 	0.83950 0.34260 0.12030 -0.14200
H 	H 	0.83840 0.32450 0.16770 0.08400
C 	C 	0.85920 0.32760 0.05630 0.05000
C 	C 	0.86550 0.35530 0.99230 -0.12200
H 	H 	0.87980 0.34560 0.94930 0.07900
C 	C 	0.85060 0.39800 0.99130 0.09300
H 	H 	0.85650 0.41650 0.94960 0.01100
C 	C 	0.87720 0.28240 0.06140 0.01600
C 	C 	0.91670 0.25900 0.16810 -0.11200
H 	H 	0.93220 0.27190 0.23650 0.07100
C 	C 	0.93250 0.21700 0.17150 0.05100
C 	C 	0.90800 0.19770 0.06840 -0.13800
H 	H 	0.91760 0.16930 0.07070 0.07100
C 	C 	0.86900 0.22000 0.96090 0.06000
C 	C 	0.85420 0.26240 0.95870 -0.09000
H 	H 	0.82870 0.27780 0.88830 0.06600
C 	C 	0.84770 0.19890 0.85480 0.03700
C 	C 	0.89790 0.16620 0.87040 -0.10800
H 	H 	0.94660 0.15780 0.94880 0.07500
C 	C 	0.87620 0.14640 0.77170 0.03000
H 	H 	0.91090 0.12500 0.78410 0.02800
C 	C 	0.80240 0.15760 0.65160 -0.10100
C 	C 	0.75350 0.19060 0.63600 0.02900
H 	H 	0.70510 0.19910 0.55740 0.03800
C 	C 	0.77570 0.21090 0.73570 -0.10500
H 	H 	0.74220 0.23300 0.72320 0.07200
C 	C 	0.77720 0.13480 0.54410 0.31800
C 	C 	0.97940 0.19120 0.28380 0.03000
C 	C 	0.95300 0.15070 0.27550 -0.10300
H 	H 	0.90000 0.14160 0.20310 0.06700
C 	C 	0.00520 0.12350 0.37520 0.03100
H 	H 	0.98850 0.09600 0.36710 0.03300
C 	C 	0.08090 0.13740 0.48460 -0.09000
C 	C 	0.10400 0.17820 0.49610 0.02100
H 	H 	0.15470 0.18780 0.57090 0.04000
C 	C 	0.05260 0.20590 0.39690 -0.09500
H 	H 	0.06760 0.23390 0.40710 0.07000
C 	C 	0.14050 0.10690 0.58740 0.30500
C 	C 	0.18420 0.95610 0.68500 0.36900
C 	C 	0.16150 0.91050 0.67360 -0.15300
C 	C 	0.17730 0.88270 0.62050 0.07900
H 	H 	0.20080 0.89230 0.58970 -0.01900
C 	C 	0.15860 0.84070 0.61230 -0.14200
H 	H 	0.16670 0.82260 0.57220 0.08000
C 	C 	0.12800 0.82550 0.66360 0.05800
C 	C 	0.11450 0.85380 0.72080 -0.13300
H 	H 	0.09450 0.84420 0.75660 0.08200
C 	C 	0.13050 0.89580 0.72440 0.07000
H 	H 	0.12040 0.91430 0.76130 0.01900
C 	C 	0.10830 0.78060 0.65700 0.04000
C 	C 	0.06820 0.75820 0.55070 -0.11500
H 	H 	0.05380 0.77160 0.48350 0.07200
C 	C 	0.04880 0.71590 0.54220 0.05400
C 	C 	0.07260 0.69700 0.64500 -0.11500
H 	H 	0.06070 0.66890 0.64080 0.07000
C 	C 	0.11370 0.71810 0.75490 0.04800
C 	C 	0.13110 0.76070 0.75800 -0.11300
H 	H 	0.15850 0.77570 0.82950 0.07400
C 	C 	0.13540 0.69790 0.86150 0.03500
C 	C 	0.08370 0.66620 0.84480 -0.11300
H 	H 	0.03670 0.65700 0.76620 0.07300
C 	C 	0.10200 0.64800 0.94500 0.05600
H 	H 	0.06650 0.62700 0.93240 0.02700
C 	C 	0.17200 0.66060 0.06310 -0.11800
C 	C 	0.22400 0.69120 0.08060 0.00600
H 	H 	0.27200 0.69950 0.15960 0.04300
C 	C 	0.20580 0.71040 0.98050 -0.08100
H 	H 	0.24110 0.73170 0.99390 0.06900
C 	C 	0.19310 0.64090 0.17160 0.32100
C 	C 	0.99980 0.69180 0.42720 0.02300
C 	C 	0.00810 0.64950 0.42970 -0.08800
H 	H 	0.05010 0.63650 0.50480 0.05900
C 	C 	0.95680 0.62540 0.32560 0.02000
H 	H 	0.96310 0.59660 0.33240 0.03100
C 	C 	0.89730 0.64290 0.21340 -0.09600
C 	C 	0.88670 0.68580 0.20630 0.02200
H 	H 	0.84540 0.69850 0.13040 0.03300
C 	C 	0.93690 0.71000 0.31100 -0.09500
H 	H 	0.92900 0.73870 0.30450 0.06700
C 	C 	0.84010 0.61560 0.10290 0.31400
C 	C 	0.53550 0.56100 0.81860 0.12700
H 	H 	0.55330 0.58830 0.84510 -0.03100
C 	C 	0.53690 0.49550 0.80430 -0.00900
H 	H 	0.55680 0.46820 0.82000 0.03400
C 	C 	0.45290 0.50750 0.71070 0.04800
C 	C 	0.37430 0.48420 0.61250 0.04300
C 	C 	0.37880 0.44250 0.59540 -0.10100
H 	H 	0.43170 0.42900 0.64540 0.06500
C 	C 	0.30290 0.42040 0.50180 0.01800
H 	H 	0.30510 0.39190 0.49380 0.02300
C 	C 	0.22570 0.44090 0.42260 -0.09900
H 	H 	0.17660 0.42660 0.35770 0.06700
C 	C 	0.22050 0.48270 0.43840 0.03600
C 	C 	0.29490 0.50350 0.53480 -0.11300
H 	H 	0.29130 0.53140 0.54780 0.04900
C 	C 	0.13790 0.50530 0.35120 0.01800
C 	C 	0.05660 0.49080 0.28370 0.02000
H 	H 	0.04040 0.46370 0.28210 0.02900
C 	C 	0.05090 0.55630 0.24410 0.13300
H 	H 	0.02910 0.58260 0.20940 -0.02100
C 	C 	0.42370 0.07250 0.91530 0.11400
H 	H 	0.40490 0.09980 0.90480 -0.00200
C 	C 	0.42790 0.00520 0.90110 -0.02300
H 	H 	0.41080 0.97770 0.87650 0.03500
C 	C 	0.51060 0.01850 0.98380 0.06600
C 	C 	0.59280 0.99540 0.06110 0.04500
C 	C 	0.59240 0.95350 0.04810 -0.14900
H 	H 	0.54080 0.93940 0.99010 0.09200
C 	C 	0.67110 0.93160 0.12350 0.05000
H 	H 	0.67170 0.90340 0.11050 0.01000
C 	C 	0.74490 0.95140 0.21390 -0.12700
H 	H 	0.79580 0.93640 0.26660 0.07600
C 	C 	0.74570 0.99340 0.22900 0.05100
C 	C 	0.67010 0.01520 0.14820 -0.12100
H 	H 	0.67130 0.04410 0.15270 0.04100
C 	C 	0.82620 0.01540 0.32900 0.01300
C 	C 	0.90970 0.00440 0.39220 0.03600
H 	H 	0.92790 0.98030 0.38080 0.02200
C 	C 	0.91000 0.06330 0.46070 0.12300
H 	H 	0.93000 0.08760 0.50680 -0.02000
Cd	Cd	0.23141 0.03191 0.00656 1.22700
Cd	Cd	0.22967 0.59172 0.35213 1.21800
Cd	Cd	0.73267 0.53727 0.72703 1.22200
N 	N 	0.08590 0.02890 0.86970 -0.23700
N 	N 	0.95430 0.04970 0.72260 -0.22300
H 	H 	0.91090 0.06610 0.67660 0.15100
N 	N 	0.63280 0.04740 0.32410 -0.24000
N 	N 	0.50290 0.02430 0.21830 -0.21100
H 	H 	0.44780 0.02410 0.16940 0.14100
N 	N 	0.87210 0.53880 0.85850 -0.23700
N 	N 	0.00680 0.56060 0.98990 -0.20100
H 	H 	0.05040 0.57700 0.03420 0.13400
N 	N 	0.32780 0.55290 0.37430 -0.24000
N 	N 	0.45950 0.53420 0.47250 -0.21100
H 	H 	0.51470 0.53470 0.52370 0.13900
O 	O 	0.32670 0.98480 0.01710 -0.40500
O 	O 	0.25200 0.96410 0.05940 -0.47600
O 	O 	0.20860 0.64420 0.44040 -0.37400
O 	O 	0.32680 0.60723 0.56110 -0.40000
O 	O 	0.71240 0.61820 0.68490 -0.32600
O 	O 	0.61580 0.56902 0.56890 -0.41500
O 	O 	0.65930 0.48141 0.71990 -0.41800
O 	O 	0.72930 0.46772 0.66440 -0.50700
O 	O 	0.76180 0.14730 0.27630 -0.36200
O 	O 	0.63950 0.11446 0.15250 -0.40300
O 	O 	0.29600 0.13170 0.99850 -0.24700
O 	O 	0.33820 0.07779 0.12140 -0.40600
O 	O 	0.20620 0.07066 0.84840 -0.74200
H 	H 	0.17680 0.09220 0.83230 0.32100
H 	H 	0.17880 0.05560 0.78460 0.18100
C 	C 	0.30180 0.95640 0.04260 0.36300
C 	C 	0.32740 0.91220 0.05140 -0.16900
C 	C 	0.32120 0.88430 0.11600 0.07700
H 	H 	0.30480 0.89360 0.15660 0.00700
C 	C 	0.33950 0.84260 0.12030 -0.14200
H 	H 	0.33840 0.82450 0.16770 0.08400
C 	C 	0.35920 0.82760 0.05630 0.05000
C 	C 	0.36550 0.85530 0.99230 -0.12200
H 	H 	0.37980 0.84560 0.94930 0.08000
C 	C 	0.35060 0.89800 0.99130 0.09200
H 	H 	0.35650 0.91650 0.94960 0.01200
C 	C 	0.37720 0.78240 0.06140 0.01700
C 	C 	0.41670 0.75900 0.16810 -0.11200
H 	H 	0.43220 0.77190 0.23650 0.07200
C 	C 	0.43250 0.71700 0.17150 0.05300
C 	C 	0.40800 0.69770 0.06840 -0.13800
H 	H 	0.41760 0.66930 0.07070 0.07200
C 	C 	0.36900 0.72000 0.96090 0.06100
C 	C 	0.35420 0.76240 0.95870 -0.09000
H 	H 	0.32870 0.77780 0.88830 0.06600
C 	C 	0.34770 0.69890 0.85480 0.03700
C 	C 	0.39790 0.66620 0.87040 -0.10800
H 	H 	0.44660 0.65780 0.94880 0.07600
C 	C 	0.37620 0.64640 0.77170 0.03000
H 	H 	0.41090 0.62500 0.78410 0.02900
C 	C 	0.30240 0.65760 0.65160 -0.10100
C 	C 	0.25350 0.69060 0.63600 0.02900
H 	H 	0.20510 0.69910 0.55740 0.03800
C 	C 	0.27570 0.71090 0.73570 -0.10500
H 	H 	0.24220 0.73300 0.72320 0.07200
C 	C 	0.27720 0.63480 0.54410 0.31800
C 	C 	0.47940 0.69120 0.28380 0.02900
C 	C 	0.45300 0.65070 0.27550 -0.09300
H 	H 	0.40000 0.64160 0.20310 0.06300
C 	C 	0.50520 0.62350 0.37520 0.01500
H 	H 	0.48850 0.59600 0.36710 0.04100
C 	C 	0.58090 0.63740 0.48460 -0.08400
C 	C 	0.60400 0.67820 0.49610 0.01800
H 	H 	0.65470 0.68780 0.57090 0.04100
C 	C 	0.55260 0.70590 0.39690 -0.09500
H 	H 	0.56760 0.73390 0.40710 0.06900
C 	C 	0.64050 0.60690 0.58740 0.30200
C 	C 	0.68420 0.45610 0.68500 0.36900
C 	C 	0.66150 0.41050 0.67360 -0.15400
C 	C 	0.67730 0.38270 0.62050 0.08000
H 	H 	0.70080 0.39230 0.58970 -0.01900
C 	C 	0.65860 0.34070 0.61230 -0.14300
H 	H 	0.66670 0.32260 0.57220 0.08000
C 	C 	0.62800 0.32550 0.66360 0.06000
C 	C 	0.61450 0.35380 0.72080 -0.13500
H 	H 	0.59450 0.34420 0.75660 0.08200
C 	C 	0.63050 0.39580 0.72440 0.07100
H 	H 	0.62040 0.41430 0.76130 0.01800
C 	C 	0.60830 0.28060 0.65700 0.03500
C 	C 	0.56820 0.25820 0.55070 -0.10800
H 	H 	0.55380 0.27160 0.48350 0.06900
C 	C 	0.54880 0.21590 0.54220 0.04100
C 	C 	0.57260 0.19700 0.64500 -0.10700
H 	H 	0.56070 0.16890 0.64080 0.06700
C 	C 	0.61370 0.21810 0.75490 0.04300
C 	C 	0.63110 0.26070 0.75800 -0.10900
H 	H 	0.65850 0.27570 0.82950 0.07200
C 	C 	0.63540 0.19790 0.86150 0.03700
C 	C 	0.58370 0.16620 0.84480 -0.11500
H 	H 	0.53670 0.15700 0.76620 0.07300
C 	C 	0.60200 0.14800 0.94500 0.05700
H 	H 	0.56650 0.12700 0.93240 0.02600
C 	C 	0.67200 0.16060 0.06310 -0.11900
C 	C 	0.72400 0.19120 0.08060 0.00700
H 	H 	0.77200 0.19950 0.15960 0.04200
C 	C 	0.70580 0.21040 0.98050 -0.08200
H 	H 	0.74110 0.23170 0.99390 0.07000
C 	C 	0.69310 0.14090 0.17160 0.32200
C 	C 	0.49980 0.19180 0.42720 0.04400
C 	C 	0.50810 0.14950 0.42970 -0.11200
H 	H 	0.55010 0.13650 0.50480 0.06700
C 	C 	0.45680 0.12540 0.32560 0.04000
H 	H 	0.46310 0.09660 0.33240 0.02500
C 	C 	0.39730 0.14290 0.21340 -0.10700
C 	C 	0.38670 0.18580 0.20630 0.03500
H 	H 	0.34540 0.19850 0.13040 0.02900
C 	C 	0.43690 0.21000 0.31100 -0.10900
H 	H 	0.42900 0.23870 0.30450 0.07200
C 	C 	0.34010 0.11560 0.10290 0.31800
C 	C 	0.03550 0.06100 0.81860 0.13100
H 	H 	0.05330 0.08830 0.84510 -0.03100
C 	C 	0.03690 0.99550 0.80430 -0.00600
H 	H 	0.05680 0.96820 0.82000 0.03300
C 	C 	0.95290 0.00750 0.71070 0.04500
C 	C 	0.87430 0.98420 0.61250 0.04300
C 	C 	0.87880 0.94250 0.59540 -0.10200
H 	H 	0.93170 0.92900 0.64540 0.06400
C 	C 	0.80290 0.92040 0.50180 0.01800
H 	H 	0.80510 0.89190 0.49380 0.02300
C 	C 	0.72570 0.94090 0.42260 -0.09900
H 	H 	0.67660 0.92660 0.35770 0.06700
C 	C 	0.72050 0.98270 0.43840 0.03600
C 	C 	0.79490 0.00350 0.53480 -0.11300
H 	H 	0.79130 0.03140 0.54780 0.04900
C 	C 	0.63790 0.00530 0.35120 0.01800
C 	C 	0.55660 0.99080 0.28370 0.02000
H 	H 	0.54040 0.96370 0.28210 0.02800
C 	C 	0.55090 0.05630 0.24410 0.13400
H 	H 	0.52910 0.08260 0.20940 -0.02300
C 	C 	0.92370 0.57250 0.91530 0.11100
H 	H 	0.90490 0.59980 0.90480 -0.00100
C 	C 	0.92790 0.50520 0.90110 -0.02900
H 	H 	0.91080 0.47770 0.87650 0.03600
C 	C 	0.01060 0.51850 0.98380 0.07100
C 	C 	0.09280 0.49540 0.06110 0.04300
C 	C 	0.09240 0.45350 0.04810 -0.14800
H 	H 	0.04080 0.43940 0.99010 0.09200
C 	C 	0.17110 0.43160 0.12350 0.04900
H 	H 	0.17170 0.40340 0.11050 0.01100
C 	C 	0.24490 0.45140 0.21390 -0.12500
H 	H 	0.29580 0.43640 0.26660 0.07600
C 	C 	0.24570 0.49340 0.22900 0.05000
C 	C 	0.17010 0.51520 0.14820 -0.11900
H 	H 	0.17130 0.54410 0.15270 0.04000
C 	C 	0.32620 0.51540 0.32900 0.01400
C 	C 	0.40970 0.50440 0.39220 0.03500
H 	H 	0.42790 0.48030 0.38080 0.02300
C 	C 	0.41000 0.56330 0.46070 0.12200
H 	H 	0.43000 0.58760 0.50680 -0.01800
