data_crystal

_cell_length_a 17.29260
_cell_length_b 17.29260
_cell_length_c 22.89620
_cell_angle_alpha 90.00000
_cell_angle_beta  90.00000
_cell_angle_gamma 90.00000

_symmetry_space_group_name_	'P 1'
_symmetry_space_group_name_H-M	'P 1'

loop_
_symmetry_equiv_pos_as_xyz
  x,y,z

loop_
_atom_site_label
_atom_site_type_symbol
_atom_site_fract_x
_atom_site_fract_y
_atom_site_fract_z
_atom_site_charge
Fe	Fe	-0.00000 0.00000 -0.00000 1.07800
Fe	Fe	0.50000 0.50000 0.50000 1.13000
Fe	Fe	0.50000 0.00000 0.05156 1.10600
Fe	Fe	-0.00000 0.50000 0.94844 1.11900
Fe	Fe	0.00000 0.50000 0.44844 1.11300
Fe	Fe	0.50000 0.00000 0.55156 1.11300
Fe	Fe	0.50000 0.50000 -0.00000 1.11300
Fe	Fe	0.00000 0.00000 0.50000 1.09300
H 	H 	0.85990 0.82160 0.97820 0.04000
H 	H 	0.85980 0.68910 0.96140 0.08700
H 	H 	0.63940 0.67640 0.01820 0.07500
H 	H 	0.63690 0.80850 0.03200 0.02700
H 	H 	0.10210 0.95100 0.89580 0.00400
H 	H 	0.10390 0.94630 0.79440 0.05800
H 	H 	0.06820 0.90440 0.70500 0.05700
H 	H 	0.06750 0.90870 0.60530 -0.01600
H 	H 	0.55960 0.90410 0.94640 -0.00300
H 	H 	0.56180 0.90010 0.84550 0.06400
H 	H 	0.60240 0.94350 0.75660 0.06700
H 	H 	0.59930 0.94480 0.65590 -0.00500
H 	H 	0.14010 0.17840 0.97820 0.01700
H 	H 	0.14020 0.31090 0.96140 0.07000
H 	H 	0.36060 0.32360 0.01820 0.07600
H 	H 	0.36310 0.19150 0.03200 0.02300
H 	H 	0.89790 0.04900 0.89580 -0.01000
H 	H 	0.89610 0.05370 0.79440 0.05200
H 	H 	0.93180 0.09560 0.70500 0.06000
H 	H 	0.93250 0.09130 0.60530 -0.00800
H 	H 	0.44040 0.09590 0.94640 0.00400
H 	H 	0.43820 0.09990 0.84550 0.06600
H 	H 	0.39760 0.05650 0.75660 0.06100
H 	H 	0.40070 0.05520 0.65590 -0.01300
H 	H 	0.82160 0.14010 0.02180 0.07100
H 	H 	0.68910 0.14020 0.03860 0.01700
H 	H 	0.67640 0.36060 0.98180 0.02600
H 	H 	0.80850 0.36310 0.96800 0.07700
H 	H 	0.95100 0.89790 0.10420 -0.01400
H 	H 	0.94630 0.89610 0.20560 0.05400
H 	H 	0.90440 0.93180 0.29500 0.05700
H 	H 	0.90870 0.93250 0.39470 -0.01400
H 	H 	0.90410 0.44040 0.05360 -0.02600
H 	H 	0.90010 0.43820 0.15450 0.06000
H 	H 	0.94350 0.39760 0.24340 0.06100
H 	H 	0.94480 0.40070 0.34410 -0.00600
H 	H 	0.17840 0.85990 0.02180 0.08200
H 	H 	0.31090 0.85980 0.03860 0.03700
H 	H 	0.32360 0.63940 0.98180 0.02900
H 	H 	0.19150 0.63690 0.96800 0.07400
H 	H 	0.04900 0.10210 0.10420 -0.01600
H 	H 	0.05370 0.10390 0.20560 0.05400
H 	H 	0.09560 0.06820 0.29500 0.05800
H 	H 	0.09130 0.06750 0.39470 -0.01100
H 	H 	0.09590 0.55960 0.05360 -0.01900
H 	H 	0.09990 0.56180 0.15450 0.06400
H 	H 	0.05650 0.60240 0.24340 0.06100
H 	H 	0.05520 0.59930 0.34410 -0.01100
H 	H 	0.64010 0.32160 0.52180 0.05100
H 	H 	0.64020 0.18910 0.53860 0.05000
H 	H 	0.86060 0.17640 0.48180 0.05900
H 	H 	0.86310 0.30850 0.46800 0.05800
H 	H 	0.39790 0.45100 0.60420 -0.01000
H 	H 	0.39610 0.44630 0.70560 0.06800
H 	H 	0.43180 0.40440 0.79500 0.07000
H 	H 	0.43250 0.40870 0.89470 -0.00600
H 	H 	0.94040 0.40410 0.55360 -0.00900
H 	H 	0.93820 0.40010 0.65450 0.06300
H 	H 	0.89760 0.44350 0.74340 0.06000
H 	H 	0.90070 0.44480 0.84410 -0.01200
H 	H 	0.35990 0.67840 0.52180 0.05000
H 	H 	0.35980 0.81090 0.53860 0.05500
H 	H 	0.13940 0.82360 0.48180 0.04800
H 	H 	0.13690 0.69150 0.46800 0.04300
H 	H 	0.60210 0.54900 0.60420 -0.00800
H 	H 	0.60390 0.55370 0.70560 0.07200
H 	H 	0.56820 0.59560 0.79500 0.07300
H 	H 	0.56750 0.59130 0.89470 -0.00500
H 	H 	0.05960 0.59590 0.55360 -0.01200
H 	H 	0.06180 0.59990 0.65450 0.06400
H 	H 	0.10240 0.55650 0.74340 0.06400
H 	H 	0.09930 0.55520 0.84410 -0.00600
H 	H 	0.67840 0.64010 0.47820 0.05000
H 	H 	0.81090 0.64020 0.46140 0.05500
H 	H 	0.82360 0.86060 0.51820 0.06400
H 	H 	0.69150 0.86310 0.53200 0.05800
H 	H 	0.54900 0.39790 0.39580 -0.00900
H 	H 	0.55370 0.39610 0.29440 0.06800
H 	H 	0.59560 0.43180 0.20500 0.07000
H 	H 	0.59130 0.43250 0.10530 -0.01500
H 	H 	0.59590 0.94040 0.44640 -0.00900
H 	H 	0.59990 0.93820 0.34550 0.06400
H 	H 	0.55650 0.89760 0.25660 0.06000
H 	H 	0.55520 0.90070 0.15590 -0.01100
H 	H 	0.32160 0.35990 0.47820 0.05000
H 	H 	0.18910 0.35980 0.46140 0.04900
H 	H 	0.17640 0.13940 0.51820 0.04200
H 	H 	0.30850 0.13690 0.53200 0.04300
H 	H 	0.45100 0.60210 0.39580 -0.00800
H 	H 	0.44630 0.60390 0.29440 0.07000
H 	H 	0.40440 0.56820 0.20500 0.07000
H 	H 	0.40870 0.56750 0.10530 -0.01500
H 	H 	0.40410 0.05960 0.44640 -0.01300
H 	H 	0.40010 0.06180 0.34550 0.06200
H 	H 	0.44350 0.10240 0.25660 0.06300
H 	H 	0.44480 0.09930 0.15590 -0.00700
C 	C 	0.81715 0.95683 0.00895 0.12300
C 	C 	0.74865 0.91475 0.01691 -0.11100
C 	C 	0.68097 0.95173 0.03517 0.12400
C 	C 	0.74920 0.83199 0.00670 -0.01200
C 	C 	0.81412 0.79295 0.98585 0.02800
C 	C 	0.81439 0.71355 0.97578 -0.13500
C 	C 	0.74946 0.67015 0.98717 0.14900
C 	C 	0.68385 0.70626 0.00904 -0.16600
C 	C 	0.68293 0.78479 0.01805 -0.00100
C 	C 	0.74932 0.58375 0.97789 -0.15900
C 	C 	0.68313 0.54233 0.98916 0.14300
C 	C 	0.81838 0.54680 0.96251 0.14000
C 	C 	0.05929 0.97109 0.87464 0.08300
C 	C 	0.06107 0.96893 0.81396 -0.05900
C 	C 	0.04022 0.94396 0.68544 -0.07300
C 	C 	0.03899 0.94667 0.62616 0.09100
C 	C 	0.53462 0.94432 0.92539 0.10400
C 	C 	0.53626 0.94140 0.86502 -0.07400
C 	C 	0.56003 0.96701 0.73707 -0.07400
C 	C 	0.55790 0.96770 0.67698 0.10000
C 	C 	0.18285 0.04317 0.00895 0.08900
C 	C 	0.25135 0.08525 0.01691 -0.11200
C 	C 	0.31903 0.04827 0.03517 0.09800
C 	C 	0.25080 0.16801 0.00670 -0.02700
C 	C 	0.18588 0.20705 0.98585 0.03200
C 	C 	0.18561 0.28645 0.97578 -0.14700
C 	C 	0.25054 0.32985 0.98717 0.14900
C 	C 	0.31615 0.29374 0.00904 -0.17500
C 	C 	0.31707 0.21521 0.01805 0.00200
C 	C 	0.25068 0.41625 0.97789 -0.16400
C 	C 	0.31687 0.45767 0.98916 0.14300
C 	C 	0.18162 0.45320 0.96251 0.13300
C 	C 	0.94071 0.02891 0.87464 0.08200
C 	C 	0.93893 0.03107 0.81396 -0.06100
C 	C 	0.95978 0.05604 0.68544 -0.07200
C 	C 	0.96101 0.05333 0.62616 0.09300
C 	C 	0.46538 0.05568 0.92539 0.06000
C 	C 	0.46374 0.05860 0.86502 -0.11200
C 	C 	0.43997 0.03299 0.73707 -0.11600
C 	C 	0.44210 0.03230 0.67698 0.05300
C 	C 	0.95683 0.18285 0.99105 0.15700
C 	C 	0.91475 0.25135 0.98309 -0.16700
C 	C 	0.95173 0.31903 0.96483 0.15300
C 	C 	0.83199 0.25080 0.99330 0.15000
C 	C 	0.79295 0.18588 0.01415 -0.17200
C 	C 	0.71355 0.18561 0.02422 0.00300
C 	C 	0.67015 0.25054 0.01283 -0.02700
C 	C 	0.70626 0.31615 0.99096 0.03400
C 	C 	0.78479 0.31707 0.98195 -0.13600
C 	C 	0.58375 0.25068 0.02211 -0.11100
C 	C 	0.54233 0.31687 0.01084 0.10100
C 	C 	0.54680 0.18162 0.03749 0.10400
C 	C 	0.97109 0.94071 0.12536 0.12900
C 	C 	0.96893 0.93893 0.18604 -0.02300
C 	C 	0.94396 0.95978 0.31456 -0.03300
C 	C 	0.94667 0.96101 0.37384 0.13600
C 	C 	0.94432 0.46538 0.07461 0.10000
C 	C 	0.94140 0.46374 0.13498 -0.08200
C 	C 	0.96701 0.43997 0.26293 -0.07200
C 	C 	0.96770 0.44210 0.32302 0.09700
C 	C 	0.04317 0.81715 0.99105 0.13600
C 	C 	0.08525 0.74865 0.98309 -0.16400
C 	C 	0.04827 0.68097 0.96483 0.13200
C 	C 	0.16801 0.74920 0.99330 0.14200
C 	C 	0.20705 0.81412 0.01415 -0.16000
C 	C 	0.28645 0.81439 0.02422 -0.00200
C 	C 	0.32985 0.74946 0.01283 -0.01600
C 	C 	0.29374 0.68385 0.99096 0.02500
C 	C 	0.21521 0.68293 0.98195 -0.12900
C 	C 	0.41625 0.74932 0.02211 -0.11100
C 	C 	0.45767 0.68313 0.01084 0.10400
C 	C 	0.45320 0.81838 0.03749 0.11200
C 	C 	0.02891 0.05929 0.12536 0.03700
C 	C 	0.03107 0.06107 0.18604 -0.10500
C 	C 	0.05604 0.04022 0.31456 -0.11100
C 	C 	0.05333 0.03899 0.37384 0.04400
C 	C 	0.05568 0.53462 0.07461 0.05500
C 	C 	0.05860 0.53626 0.13498 -0.12000
C 	C 	0.03299 0.56003 0.26293 -0.11400
C 	C 	0.03230 0.55790 0.32302 0.05100
C 	C 	0.68285 0.45683 0.49105 0.12700
C 	C 	0.75135 0.41475 0.48309 -0.13900
C 	C 	0.81903 0.45173 0.46483 0.12900
C 	C 	0.75080 0.33199 0.49330 0.06400
C 	C 	0.68588 0.29295 0.51415 -0.06900
C 	C 	0.68561 0.21355 0.52422 -0.07100
C 	C 	0.75054 0.17015 0.51283 0.06200
C 	C 	0.81615 0.20626 0.49096 -0.06900
C 	C 	0.81707 0.28479 0.48195 -0.06600
C 	C 	0.75068 0.08375 0.52211 -0.13600
C 	C 	0.81687 0.04233 0.51084 0.11200
C 	C 	0.68162 0.04680 0.53749 0.10800
C 	C 	0.44071 0.47109 0.62536 0.06900
C 	C 	0.43893 0.46893 0.68604 -0.12500
C 	C 	0.45978 0.44396 0.81456 -0.12600
C 	C 	0.46101 0.44667 0.87384 0.07500
C 	C 	0.96538 0.44432 0.57461 0.10400
C 	C 	0.96374 0.44140 0.63498 -0.07600
C 	C 	0.93997 0.46701 0.76293 -0.07300
C 	C 	0.94210 0.46770 0.82302 0.09700
C 	C 	0.31715 0.54317 0.49105 0.12500
C 	C 	0.24865 0.58525 0.48309 -0.14000
C 	C 	0.18097 0.54827 0.46483 0.12400
C 	C 	0.24920 0.66801 0.49330 0.06100
C 	C 	0.31412 0.70705 0.51415 -0.06600
C 	C 	0.31439 0.78645 0.52422 -0.07200
C 	C 	0.24946 0.82985 0.51283 0.06700
C 	C 	0.18385 0.79374 0.49096 -0.07300
C 	C 	0.18293 0.71521 0.48195 -0.06400
C 	C 	0.24932 0.91625 0.52211 -0.13600
C 	C 	0.18313 0.95767 0.51084 0.13500
C 	C 	0.31838 0.95320 0.53749 0.13700
C 	C 	0.55929 0.52891 0.62536 0.07000
C 	C 	0.56107 0.53107 0.68604 -0.12400
C 	C 	0.54022 0.55604 0.81456 -0.12600
C 	C 	0.53899 0.55333 0.87384 0.07600
C 	C 	0.03462 0.55568 0.57461 0.05600
C 	C 	0.03626 0.55860 0.63498 -0.11700
C 	C 	0.06003 0.53299 0.76293 -0.11300
C 	C 	0.05790 0.53230 0.82302 0.05300
C 	C 	0.54317 0.68285 0.50895 0.12800
C 	C 	0.58525 0.75135 0.51691 -0.13800
C 	C 	0.54827 0.81903 0.53517 0.12900
C 	C 	0.66801 0.75080 0.50670 0.06300
C 	C 	0.70705 0.68588 0.48585 -0.06500
C 	C 	0.78645 0.68561 0.47578 -0.07200
C 	C 	0.82985 0.75054 0.48717 0.07100
C 	C 	0.79374 0.81615 0.50904 -0.07100
C 	C 	0.71521 0.81707 0.51805 -0.06100
C 	C 	0.91625 0.75068 0.47789 -0.13500
C 	C 	0.95767 0.81687 0.48916 0.14100
C 	C 	0.95320 0.68162 0.46251 0.13900
C 	C 	0.52891 0.44071 0.37464 0.06900
C 	C 	0.53107 0.43893 0.31396 -0.12400
C 	C 	0.55604 0.45978 0.18544 -0.12900
C 	C 	0.55333 0.46101 0.12616 0.07400
C 	C 	0.55568 0.96538 0.42539 0.10500
C 	C 	0.55860 0.96374 0.36502 -0.07500
C 	C 	0.53299 0.93997 0.23707 -0.07200
C 	C 	0.53230 0.94210 0.17698 0.09800
C 	C 	0.45683 0.31715 0.50895 0.12500
C 	C 	0.41475 0.24865 0.51691 -0.14100
C 	C 	0.45173 0.18097 0.53517 0.12400
C 	C 	0.33199 0.24920 0.50670 0.06100
C 	C 	0.29295 0.31412 0.48585 -0.07000
C 	C 	0.21355 0.31439 0.47578 -0.07100
C 	C 	0.17015 0.24946 0.48717 0.05800
C 	C 	0.20626 0.18385 0.50904 -0.07100
C 	C 	0.28479 0.18293 0.51805 -0.06900
C 	C 	0.08375 0.24932 0.47789 -0.13700
C 	C 	0.04233 0.18313 0.48916 0.10600
C 	C 	0.04680 0.31838 0.46251 0.10600
C 	C 	0.47109 0.55929 0.37464 0.06900
C 	C 	0.46893 0.56107 0.31396 -0.12400
C 	C 	0.44396 0.54022 0.18544 -0.13000
C 	C 	0.44667 0.53899 0.12616 0.07400
C 	C 	0.44432 0.03462 0.42539 0.05600
C 	C 	0.44140 0.03626 0.36502 -0.11700
C 	C 	0.46701 0.06003 0.23707 -0.11300
C 	C 	0.46770 0.05790 0.17698 0.05200
C 	C 	0.50000 0.00000 0.83308 0.00800
C 	C 	0.50000 0.00000 0.76901 0.00800
C 	C 	0.00000 0.50000 0.16692 0.00700
C 	C 	-0.00000 0.50000 0.23099 0.00300
C 	C 	-0.00000 0.50000 0.66692 0.00700
C 	C 	0.00000 0.50000 0.73099 0.00500
C 	C 	0.50000 -0.00000 0.33308 0.00600
C 	C 	0.50000 0.00000 0.26901 0.00400
C 	C 	-0.00000 -0.00000 0.78238 -0.04100
C 	C 	0.00000 0.00000 0.71787 -0.03200
C 	C 	0.00000 0.00000 0.21762 -0.04000
C 	C 	-0.00000 -0.00000 0.28213 -0.03300
C 	C 	0.50000 0.50000 0.71762 0.05100
C 	C 	0.50000 0.50000 0.78213 0.04900
C 	C 	0.50000 0.50000 0.28238 0.04900
C 	C 	0.50000 0.50000 0.21787 0.04900
N 	N 	0.87685 0.98464 0.00123 -0.23700
N 	N 	0.62214 0.97643 0.04989 -0.24400
N 	N 	0.87833 0.52148 0.94930 -0.24900
N 	N 	0.62315 0.51431 0.99929 -0.25100
N 	N 	0.12315 0.01536 0.00123 -0.27900
N 	N 	0.37786 0.02357 0.04989 -0.26600
N 	N 	0.12167 0.47852 0.94930 -0.26500
N 	N 	0.37685 0.48569 0.99929 -0.25200
N 	N 	0.98464 0.12315 0.99877 -0.23700
N 	N 	0.97643 0.37786 0.95011 -0.24700
N 	N 	0.52148 0.12167 0.05070 -0.26300
N 	N 	0.51431 0.37685 0.00071 -0.26600
N 	N 	0.01536 0.87685 0.99877 -0.25100
N 	N 	0.02357 0.62214 0.95011 -0.26800
N 	N 	0.47852 0.87833 0.05070 -0.24800
N 	N 	0.48569 0.62315 0.00071 -0.26600
N 	N 	0.62315 0.48464 0.49877 -0.26200
N 	N 	0.87786 0.47643 0.45011 -0.24900
N 	N 	0.62167 0.02148 0.55070 -0.27000
N 	N 	0.87685 0.01431 0.50071 -0.25700
N 	N 	0.37685 0.51536 0.49877 -0.26200
N 	N 	0.12214 0.52357 0.45011 -0.26400
N 	N 	0.37833 0.97852 0.55070 -0.24200
N 	N 	0.12315 0.98569 0.50071 -0.24500
N 	N 	0.51536 0.62315 0.50123 -0.26200
N 	N 	0.52357 0.87786 0.54989 -0.24900
N 	N 	0.97852 0.62167 0.44930 -0.24200
N 	N 	0.98569 0.87685 0.49929 -0.23100
N 	N 	0.48464 0.37685 0.50123 -0.26200
N 	N 	0.47643 0.12214 0.54989 -0.26400
N 	N 	0.02148 0.37833 0.44930 -0.27100
N 	N 	0.01431 0.12315 0.49929 -0.27200
N 	N 	0.50000 -0.00000 0.95595 -0.24900
N 	N 	0.50000 -0.00000 0.64632 -0.26100
N 	N 	0.00000 0.50000 0.04405 -0.27300
N 	N 	0.00000 0.50000 0.35368 -0.26000
N 	N 	-0.00000 0.50000 0.54405 -0.26200
N 	N 	-0.00000 0.50000 0.85368 -0.26100
N 	N 	0.50000 -0.00000 0.45595 -0.26200
N 	N 	0.50000 0.00000 0.14632 -0.26100
N 	N 	0.00000 0.00000 0.90473 -0.27700
N 	N 	0.00000 0.00000 0.59600 -0.28600
N 	N 	-0.00000 0.00000 0.09527 -0.28800
N 	N 	-0.00000 0.00000 0.40400 -0.28600
N 	N 	0.50000 0.50000 0.59527 -0.23700
N 	N 	0.50000 0.50000 0.90400 -0.23000
N 	N 	0.50000 0.50000 0.40473 -0.23700
N 	N 	0.50000 0.50000 0.09600 -0.24000
