data_crystal

_cell_length_a 6.03270
_cell_length_b 12.77520
_cell_length_c 13.17750
_cell_angle_alpha 118.99000
_cell_angle_beta  90.57500
_cell_angle_gamma 91.67000

_symmetry_space_group_name_	'P 1'
_symmetry_space_group_name_H-M	'P 1'

loop_
_symmetry_equiv_pos_as_xyz
  x,y,z

loop_
_atom_site_label
_atom_site_type_symbol
_atom_site_fract_x
_atom_site_fract_y
_atom_site_fract_z
_atom_site_charge
Er	Er	0.27633 0.16011 0.32198 1.54100
N 	N 	0.41400 0.07300 0.10910 -0.16100
N 	N 	0.07680 0.04790 0.43110 -0.16900
N 	N 	0.43050 0.37950 0.44500 -0.16800
O 	O 	0.66310 0.16550 0.29730 -0.43300
O 	O 	0.44900 0.17900 0.48550 -0.43000
O 	O 	0.19190 0.28500 0.24810 -0.40800
O 	O 	0.96050 0.06790 0.20340 -0.44200
C 	C 	0.62450 0.03970 0.09660 -0.07800
C 	C 	0.29010 0.03460 0.01090 0.07200
C 	C 	0.18790 0.06590 0.52670 -0.05800
C 	C 	0.88930 0.98140 0.40450 0.07300
C 	C 	0.38500 0.45070 0.40010 -0.05400
C 	C 	0.54430 0.42980 0.54510 0.05400
C 	C 	0.76130 0.09420 0.20730 0.39400
C 	C 	0.40180 0.13970 0.55380 0.35000
C 	C 	0.24960 0.39360 0.28780 0.33600
H 	H 	0.14470 0.05850 0.01560 0.02400
H 	H 	0.80790 0.96630 0.33810 0.00900
H 	H 	0.57770 0.38340 0.57960 0.04000
O 	O 	0.51920 0.15590 0.63870 -0.25800
O 	O 	0.20260 0.45660 0.24330 -0.23300
Er	Er	0.72367 0.83989 0.67802 1.54000
N 	N 	0.58600 0.92700 0.89090 -0.16200
N 	N 	0.92320 0.95210 0.56890 -0.16900
N 	N 	0.56950 0.62050 0.55500 -0.16800
O 	O 	0.33690 0.83450 0.70270 -0.43300
O 	O 	0.55100 0.82100 0.51450 -0.43000
O 	O 	0.80810 0.71500 0.75190 -0.40800
O 	O 	0.03950 0.93210 0.79660 -0.44200
C 	C 	0.37550 0.96030 0.90340 -0.07800
C 	C 	0.70990 0.96540 0.98910 0.07200
C 	C 	0.81210 0.93410 0.47330 -0.05800
C 	C 	0.11070 0.01860 0.59550 0.07300
C 	C 	0.61500 0.54930 0.59990 -0.05400
C 	C 	0.45570 0.57020 0.45490 0.05400
C 	C 	0.23870 0.90580 0.79270 0.39400
C 	C 	0.59820 0.86030 0.44620 0.35000
C 	C 	0.75040 0.60640 0.71220 0.33600
H 	H 	0.85530 0.94150 0.98440 0.02400
H 	H 	0.19210 0.03370 0.66190 0.00900
H 	H 	0.42230 0.61660 0.42040 0.04000
O 	O 	0.48080 0.84410 0.36130 -0.25800
O 	O 	0.79740 0.54340 0.75670 -0.23300
