data_crystal

_cell_length_a 6.05200
_cell_length_b 10.49940
_cell_length_c 13.45470
_cell_angle_alpha 71.63000
_cell_angle_beta  89.25400
_cell_angle_gamma 89.10100

_symmetry_space_group_name_	'P 1'
_symmetry_space_group_name_H-M	'P 1'

loop_
_symmetry_equiv_pos_as_xyz
  x,y,z

loop_
_atom_site_label
_atom_site_type_symbol
_atom_site_fract_x
_atom_site_fract_y
_atom_site_fract_z
_atom_site_charge
Eu	Eu	0.25043 0.65949 0.70707 1.72200
N 	N 	0.08020 0.88500 0.57600 -0.18200
N 	N 	0.43330 0.55600 0.89660 -0.18800
N 	N 	0.09140 0.57300 0.55900 -0.18400
O 	O 	0.45080 0.76870 0.54640 -0.42400
O 	O 	0.06530 0.70190 0.85140 -0.43800
O 	O 	0.85170 0.64170 0.69950 -0.46000
O 	O 	0.55860 0.52760 0.67630 -0.45300
C 	C 	0.18650 0.93930 0.48520 -0.06000
C 	C 	0.89360 0.94610 0.59030 0.07800
C 	C 	0.31740 0.57440 0.97590 -0.06600
C 	C 	0.61560 0.48120 0.92090 0.07600
C 	C 	0.88350 0.52930 0.57460 -0.07700
C 	C 	0.20820 0.54370 0.48410 0.07300
C 	C 	0.39860 0.86910 0.47070 0.35000
C 	C 	0.11000 0.65980 0.94720 0.35200
C 	C 	0.75280 0.56940 0.65710 0.39700
H 	H 	0.81460 0.91130 0.65250 0.00500
H 	H 	0.70050 0.46560 0.86770 0.00700
H 	H 	0.35330 0.57270 0.47100 0.01800
O 	O 	0.50510 0.91430 0.38820 -0.27200
O 	O 	0.99890 0.68200 0.01730 -0.27200
Eu	Eu	0.74957 0.34051 0.29293 1.72100
N 	N 	0.91980 0.11500 0.42400 -0.18300
N 	N 	0.56670 0.44400 0.10340 -0.18900
N 	N 	0.90860 0.42700 0.44100 -0.18500
O 	O 	0.54920 0.23130 0.45360 -0.42400
O 	O 	0.93470 0.29810 0.14860 -0.43800
O 	O 	0.14830 0.35830 0.30050 -0.46000
O 	O 	0.44140 0.47240 0.32370 -0.45300
C 	C 	0.81350 0.06070 0.51480 -0.06000
C 	C 	0.10640 0.05390 0.40970 0.07800
C 	C 	0.68260 0.42560 0.02410 -0.06600
C 	C 	0.38440 0.51880 0.07910 0.07600
C 	C 	0.11650 0.47070 0.42540 -0.07700
C 	C 	0.79180 0.45630 0.51590 0.07300
C 	C 	0.60140 0.13090 0.52930 0.35000
C 	C 	0.89000 0.34020 0.05280 0.35200
C 	C 	0.24720 0.43060 0.34290 0.39700
H 	H 	0.18540 0.08870 0.34750 0.00500
H 	H 	0.29950 0.53440 0.13230 0.00700
H 	H 	0.64670 0.42730 0.52900 0.01800
O 	O 	0.49490 0.08570 0.61180 -0.27200
O 	O 	0.00110 0.31800 0.98270 -0.27200
