data_crystal

_cell_length_a 6.08200
_cell_length_b 10.50910
_cell_length_c 13.62800
_cell_angle_alpha 72.39800
_cell_angle_beta  88.98000
_cell_angle_gamma 89.04300

_symmetry_space_group_name_	'P 1'
_symmetry_space_group_name_H-M	'P 1'

loop_
_symmetry_equiv_pos_as_xyz
  x,y,z

loop_
_atom_site_label
_atom_site_type_symbol
_atom_site_fract_x
_atom_site_fract_y
_atom_site_fract_z
_atom_site_charge
Pr	Pr	0.25128 0.66056 0.70878 2.02300
N 	N 	0.07820 0.88700 0.57550 -0.20600
N 	N 	0.43400 0.55690 0.89840 -0.21200
N 	N 	0.08960 0.57220 0.55820 -0.20500
O 	O 	0.45340 0.77120 0.54720 -0.45900
O 	O 	0.06330 0.69820 0.85680 -0.47800
O 	O 	0.84580 0.64140 0.69920 -0.50100
O 	O 	0.56010 0.52390 0.67540 -0.47700
C 	C 	0.18670 0.94000 0.48610 -0.06200
C 	C 	0.89100 0.94740 0.58900 0.06600
C 	C 	0.31830 0.57320 0.97730 -0.06500
C 	C 	0.61760 0.48270 0.92130 0.05700
C 	C 	0.88280 0.52890 0.57460 -0.08200
C 	C 	0.20490 0.54350 0.48520 0.06600
C 	C 	0.40000 0.86820 0.47300 0.34100
C 	C 	0.10960 0.65780 0.95060 0.33700
C 	C 	0.75310 0.56770 0.65620 0.36600
H 	H 	0.81050 0.91370 0.64970 0.00000
H 	H 	0.70370 0.46840 0.86850 0.01000
H 	H 	0.34940 0.57230 0.47320 0.02100
O 	O 	0.50280 0.91130 0.38980 -0.27000
O 	O 	0.99810 0.67920 0.02080 -0.27000
Pr	Pr	0.74872 0.33944 0.29122 2.02300
N 	N 	0.92180 0.11300 0.42450 -0.20600
N 	N 	0.56600 0.44310 0.10160 -0.21200
N 	N 	0.91040 0.42780 0.44180 -0.20500
O 	O 	0.54660 0.22880 0.45280 -0.45900
O 	O 	0.93670 0.30180 0.14320 -0.47800
O 	O 	0.15420 0.35860 0.30080 -0.50100
O 	O 	0.43990 0.47610 0.32460 -0.47700
C 	C 	0.81330 0.06000 0.51390 -0.06200
C 	C 	0.10900 0.05260 0.41100 0.06600
C 	C 	0.68170 0.42680 0.02270 -0.06500
C 	C 	0.38240 0.51730 0.07870 0.05700
C 	C 	0.11720 0.47110 0.42540 -0.08200
C 	C 	0.79510 0.45650 0.51480 0.06600
C 	C 	0.60000 0.13180 0.52700 0.34100
C 	C 	0.89040 0.34220 0.04940 0.33700
C 	C 	0.24690 0.43230 0.34380 0.36600
H 	H 	0.18950 0.08630 0.35030 0.00000
H 	H 	0.29630 0.53160 0.13150 0.01000
H 	H 	0.65060 0.42770 0.52680 0.02100
O 	O 	0.49720 0.08870 0.61020 -0.27000
O 	O 	0.00190 0.32080 0.97920 -0.27000
