data_crystal

_cell_length_a 15.67290
_cell_length_b 23.59900
_cell_length_c 18.21740
_cell_angle_alpha 90.00000
_cell_angle_beta  105.44600
_cell_angle_gamma 90.00000

_symmetry_space_group_name_	'P 1'
_symmetry_space_group_name_H-M	'P 1'

loop_
_symmetry_equiv_pos_as_xyz
  x,y,z

loop_
_atom_site_label
_atom_site_type_symbol
_atom_site_fract_x
_atom_site_fract_y
_atom_site_fract_z
_atom_site_charge
In	In	0.29002 0.51379 0.86563 1.98900
In	In	0.19078 0.53038 0.65546 2.01600
O 	O 	0.42870 0.51523 0.88810 -0.85900
H 	H 	0.45670 0.52230 0.84990 0.25300
O 	O 	0.27440 0.49181 0.75143 -0.87600
H 	H 	0.30830 0.46160 0.74240 0.24700
O 	O 	0.09040 0.55866 0.56365 -0.86600
H 	H 	0.08570 0.59690 0.55090 0.27100
O 	O 	0.28650 0.54365 0.97610 -0.58900
O 	O 	0.42590 0.56429 0.04010 -0.61100
O 	O 	0.28140 0.89653 0.33910 -0.60500
O 	O 	0.17990 0.89870 0.22700 -0.60300
O 	O 	0.00990 0.54520 0.40070 -0.69600
O 	O 	0.91660 0.50525 0.30020 -0.64700
O 	O 	0.20510 0.45299 0.59730 -0.63300
O 	O 	0.10730 0.44578 0.48500 -0.61600
O 	O 	0.77930 0.38710 0.48230 -0.37800
O 	O 	0.70450 0.42910 0.37720 -0.59600
O 	O 	0.40810 0.06698 0.50830 -0.63300
O 	O 	0.29690 0.07435 0.40230 -0.65400
C 	C 	0.34290 0.56790 0.02860 0.51100
C 	C 	0.31170 0.60320 0.08290 -0.47900
H 	H 	0.35290 0.62490 0.11790 0.18600
C 	C 	0.22820 0.60550 0.08420 0.32000
H 	H 	0.18620 0.58730 0.04550 -0.10900
C 	C 	0.19780 0.63560 0.14430 -0.45500
C 	C 	0.20180 0.69440 0.15210 0.47600
C 	C 	0.18040 0.71970 0.21480 -0.47500
C 	C 	0.14970 0.68690 0.26610 0.50700
C 	C 	0.14030 0.62810 0.25440 -0.50500
C 	C 	0.16400 0.60200 0.19370 0.47900
C 	C 	0.23290 0.73130 0.09680 -0.95700
H 	H 	0.23110 0.77030 0.11110 0.30500
H 	H 	0.29240 0.72110 0.09750 0.28300
H 	H 	0.19490 0.72580 0.04640 0.28000
C 	C 	0.12320 0.71220 0.33290 -1.00400
H 	H 	0.10410 0.68260 0.36110 0.32200
H 	H 	0.17290 0.73160 0.36550 0.31200
H 	H 	0.07560 0.73860 0.31470 0.30500
C 	C 	0.15990 0.53840 0.18300 -0.96000
H 	H 	0.17860 0.52870 0.13850 0.29300
H 	H 	0.19810 0.52050 0.22680 0.29900
H 	H 	0.10020 0.52570 0.17680 0.27700
C 	C 	0.18700 0.78160 0.22210 0.36000
H 	H 	0.15570 0.80250 0.18030 -0.10600
C 	C 	0.23180 0.81070 0.28070 -0.50800
H 	H 	0.26510 0.79140 0.32330 0.19700
C 	C 	0.23150 0.87320 0.28170 0.57000
C 	C 	0.09870 0.59550 0.30490 0.47700
H 	H 	0.12560 0.59570 0.35700 -0.12400
C 	C 	0.02520 0.56610 0.27940 -0.76200
H 	H 	0.99990 0.56390 0.22720 0.31500
C 	C 	0.98150 0.53660 0.33120 0.77800
C 	C 	0.17920 0.43450 0.53170 0.59800
C 	C 	0.23730 0.39290 0.50630 -0.51400
H 	H 	0.21630 0.37480 0.45970 0.19800
C 	C 	0.31670 0.38140 0.54790 0.35400
H 	H 	0.33470 0.40000 0.59450 -0.09400
C 	C 	0.38190 0.34180 0.52930 -0.46900
C 	C 	0.45790 0.36400 0.51490 0.48700
C 	C 	0.52420 0.32710 0.50520 -0.47600
C 	C 	0.51240 0.26890 0.50650 0.50500
C 	C 	0.43320 0.24710 0.51590 -0.46900
C 	C 	0.36950 0.28340 0.53080 0.49100
C 	C 	0.46700 0.42830 0.51070 -0.98200
H 	H 	0.52240 0.43740 0.50050 0.30800
H 	H 	0.41930 0.44300 0.47060 0.30300
H 	H 	0.46490 0.44490 0.55830 0.30600
C 	C 	0.58050 0.22880 0.49060 -1.00900
H 	H 	0.56160 0.19040 0.49390 0.32900
H 	H 	0.58690 0.23570 0.44040 0.30700
H 	H 	0.63630 0.23480 0.52740 0.31300
C 	C 	0.29070 0.25930 0.55340 -0.98600
H 	H 	0.29240 0.21860 0.55140 0.30400
H 	H 	0.29270 0.27110 0.60420 0.30500
H 	H 	0.23710 0.27270 0.51890 0.30000
C 	C 	0.61020 0.34890 0.49620 0.36600
H 	H 	0.66060 0.33960 0.53440 -0.09800
C 	C 	0.62150 0.37860 0.44230 -0.50300
H 	H 	0.57150 0.38870 0.40410 0.19700
C 	C 	0.71030 0.39940 0.43460 0.52000
C 	C 	0.42020 0.18480 0.51140 0.34300
H 	H 	0.46300 0.16300 0.54450 -0.09400
C 	C 	0.35510 0.15770 0.46560 -0.50300
H 	H 	0.30780 0.17840 0.43610 0.19200
C 	C 	0.35320 0.09460 0.45870 0.56300
In	In	0.70998 0.01379 0.63437 1.97000
In	In	0.80922 0.03038 0.84454 1.99800
O 	O 	0.57130 0.01523 0.61190 -0.90300
H 	H 	0.54330 0.02230 0.65010 0.23800
O 	O 	0.72560 0.99181 0.74857 -0.81900
H 	H 	0.69170 0.96160 0.75760 0.25000
O 	O 	0.90960 0.05866 0.93635 -0.86800
H 	H 	0.91430 0.09690 0.94910 0.28700
O 	O 	0.71350 0.04365 0.52390 -0.65700
O 	O 	0.57410 0.06429 0.45990 -0.62900
O 	O 	0.71860 0.39653 0.16090 -0.61700
O 	O 	0.82010 0.39870 0.27300 -0.60900
O 	O 	0.99010 0.04520 0.09930 -0.53400
O 	O 	0.08340 0.00525 0.19980 -0.60100
O 	O 	0.79490 0.95299 0.90270 -0.59500
O 	O 	0.89270 0.94578 0.01500 -0.57900
O 	O 	0.22070 0.88710 0.01770 -0.37900
O 	O 	0.29550 0.92910 0.12280 -0.56200
O 	O 	0.59190 0.56698 0.99170 -0.56600
O 	O 	0.70310 0.57435 0.09770 -0.61900
C 	C 	0.65710 0.06790 0.47140 0.56900
C 	C 	0.68830 0.10320 0.41710 -0.49400
H 	H 	0.64710 0.12490 0.38210 0.18900
C 	C 	0.77180 0.10550 0.41580 0.31900
H 	H 	0.81380 0.08730 0.45450 -0.09300
C 	C 	0.80220 0.13560 0.35570 -0.42400
C 	C 	0.79820 0.19440 0.34790 0.46600
C 	C 	0.81960 0.21970 0.28520 -0.43900
C 	C 	0.85030 0.18690 0.23390 0.44700
C 	C 	0.85970 0.12810 0.24560 -0.35600
C 	C 	0.83600 0.10200 0.30630 0.41800
C 	C 	0.76710 0.23130 0.40320 -0.97200
H 	H 	0.76890 0.27030 0.38890 0.31600
H 	H 	0.70760 0.22110 0.40250 0.29600
H 	H 	0.80510 0.22580 0.45360 0.30400
C 	C 	0.87680 0.21220 0.16710 -0.94700
H 	H 	0.89590 0.18260 0.13890 0.31100
H 	H 	0.82710 0.23160 0.13450 0.29500
H 	H 	0.92440 0.23860 0.18530 0.30400
C 	C 	0.84010 0.03840 0.31700 -0.88800
H 	H 	0.82140 0.02870 0.36150 0.27200
H 	H 	0.80190 0.02050 0.27320 0.26800
H 	H 	0.89980 0.02570 0.32320 0.27600
C 	C 	0.81300 0.28160 0.27790 0.34200
H 	H 	0.84430 0.30250 0.31970 -0.09000
C 	C 	0.76820 0.31070 0.21930 -0.49500
H 	H 	0.73490 0.29140 0.17670 0.19300
C 	C 	0.76850 0.37320 0.21830 0.56600
C 	C 	0.90130 0.09550 0.19510 0.14500
H 	H 	0.87440 0.09570 0.14300 -0.01800
C 	C 	0.97480 0.06610 0.22060 -0.18600
H 	H 	0.00010 0.06390 0.27280 0.03000
C 	C 	0.01850 0.03660 0.16880 0.36300
C 	C 	0.82080 0.93450 0.96830 0.61400
C 	C 	0.76270 0.89290 0.99370 -0.40600
H 	H 	0.78370 0.87480 0.04030 0.15200
C 	C 	0.68330 0.88140 0.95210 0.31200
H 	H 	0.66530 0.90000 0.90550 -0.07100
C 	C 	0.61810 0.84180 0.97070 -0.44900
C 	C 	0.54210 0.86400 0.98510 0.45500
C 	C 	0.47580 0.82710 0.99480 -0.41800
C 	C 	0.48760 0.76890 0.99350 0.61900
C 	C 	0.56680 0.74710 0.98410 -0.54400
C 	C 	0.63050 0.78340 0.96920 0.54700
C 	C 	0.53300 0.92830 0.98930 -0.84700
H 	H 	0.47760 0.93740 0.99950 0.30400
H 	H 	0.58070 0.94300 0.02940 0.25400
H 	H 	0.53510 0.94490 0.94170 0.29000
C 	C 	0.41950 0.72880 0.00940 -1.34100
H 	H 	0.43840 0.69040 0.00610 0.41200
H 	H 	0.41310 0.73570 0.05960 0.40000
H 	H 	0.36370 0.73480 0.97260 0.43900
C 	C 	0.70930 0.75930 0.94660 -1.09600
H 	H 	0.70760 0.71860 0.94860 0.35700
H 	H 	0.70730 0.77110 0.89580 0.34900
H 	H 	0.76290 0.77270 0.98110 0.36000
C 	C 	0.38980 0.84890 0.00380 0.17600
H 	H 	0.33940 0.83960 0.96560 -0.00600
C 	C 	0.37850 0.87860 0.05770 -0.39200
H 	H 	0.42850 0.88870 0.09590 0.16300
C 	C 	0.28970 0.89940 0.06540 0.47700
C 	C 	0.57980 0.68480 0.98860 0.47000
H 	H 	0.53700 0.66300 0.95550 -0.12600
C 	C 	0.64490 0.65770 0.03440 -0.60300
H 	H 	0.69220 0.67840 0.06390 0.22600
C 	C 	0.64680 0.59460 0.04130 0.54600
In	In	0.70998 0.48621 0.13437 1.98700
In	In	0.80922 0.46962 0.34454 2.01800
O 	O 	0.57130 0.48477 0.11190 -0.88000
H 	H 	0.54330 0.47770 0.15010 0.25400
O 	O 	0.72560 0.50819 0.24857 -0.87100
H 	H 	0.69170 0.53840 0.25760 0.24700
O 	O 	0.90960 0.44134 0.43635 -0.84500
H 	H 	0.91430 0.40310 0.44910 0.27800
O 	O 	0.71350 0.45635 0.02390 -0.67800
O 	O 	0.57410 0.43571 0.95990 -0.60500
O 	O 	0.71860 0.10347 0.66090 -0.62500
O 	O 	0.82010 0.10130 0.77300 -0.63000
O 	O 	0.99010 0.45480 0.59930 -0.51200
O 	O 	0.08340 0.49475 0.69980 -0.56400
O 	O 	0.79490 0.54701 0.40270 -0.62200
O 	O 	0.89270 0.55422 0.51500 -0.57700
O 	O 	0.22070 0.61290 0.51770 -0.37800
O 	O 	0.29550 0.57090 0.62280 -0.59600
O 	O 	0.59190 0.93302 0.49170 -0.57300
O 	O 	0.70310 0.92565 0.59770 -0.58800
C 	C 	0.65710 0.43210 0.97140 0.62400
C 	C 	0.68830 0.39680 0.91710 -0.50600
H 	H 	0.64710 0.37510 0.88210 0.20100
C 	C 	0.77180 0.39450 0.91580 0.34100
H 	H 	0.81380 0.41270 0.95450 -0.08200
C 	C 	0.80220 0.36440 0.85570 -0.44900
C 	C 	0.79820 0.30560 0.84790 0.49900
C 	C 	0.81960 0.28030 0.78520 -0.45900
C 	C 	0.85030 0.31310 0.73390 0.47100
C 	C 	0.85970 0.37190 0.74560 -0.38100
C 	C 	0.83600 0.39800 0.80630 0.46700
C 	C 	0.76710 0.26870 0.90320 -1.02900
H 	H 	0.76890 0.22970 0.88890 0.33700
H 	H 	0.70760 0.27890 0.90250 0.32200
H 	H 	0.80510 0.27420 0.95360 0.33300
C 	C 	0.87680 0.28780 0.66710 -0.98000
H 	H 	0.89590 0.31740 0.63890 0.32600
H 	H 	0.82710 0.26840 0.63450 0.30700
H 	H 	0.92440 0.26140 0.68530 0.31500
C 	C 	0.84010 0.46160 0.81700 -0.99400
H 	H 	0.82140 0.47130 0.86150 0.32300
H 	H 	0.80190 0.47950 0.77320 0.31900
H 	H 	0.89980 0.47430 0.82320 0.32600
C 	C 	0.81300 0.21840 0.77790 0.35400
H 	H 	0.84430 0.19750 0.81970 -0.09400
C 	C 	0.76820 0.18930 0.71930 -0.50400
H 	H 	0.73490 0.20860 0.67670 0.19600
C 	C 	0.76850 0.12680 0.71830 0.57000
C 	C 	0.90130 0.40450 0.69510 0.16700
H 	H 	0.87440 0.40430 0.64300 -0.01500
C 	C 	0.97480 0.43390 0.72060 -0.20300
H 	H 	0.00010 0.43610 0.77280 0.04900
C 	C 	0.01850 0.46340 0.66880 0.37700
C 	C 	0.82080 0.56550 0.46830 0.59900
C 	C 	0.76270 0.60710 0.49370 -0.51300
H 	H 	0.78370 0.62520 0.54030 0.21100
C 	C 	0.68330 0.61860 0.45210 0.36300
H 	H 	0.66530 0.60000 0.40550 -0.09600
C 	C 	0.61810 0.65820 0.47070 -0.48300
C 	C 	0.54210 0.63600 0.48510 0.49800
C 	C 	0.47580 0.67290 0.49480 -0.48400
C 	C 	0.48760 0.73110 0.49350 0.51600
C 	C 	0.56680 0.75290 0.48410 -0.48000
C 	C 	0.63050 0.71660 0.46920 0.52100
C 	C 	0.53300 0.57170 0.48930 -0.99400
H 	H 	0.47760 0.56260 0.49950 0.31200
H 	H 	0.58070 0.55700 0.52940 0.30900
H 	H 	0.53510 0.55510 0.44170 0.30900
C 	C 	0.41950 0.77120 0.50940 -1.02100
H 	H 	0.43840 0.80960 0.50610 0.33500
H 	H 	0.41310 0.76430 0.55960 0.31200
H 	H 	0.36370 0.76520 0.47260 0.31600
C 	C 	0.70930 0.74070 0.44660 -1.05900
H 	H 	0.70760 0.78140 0.44860 0.34100
H 	H 	0.70730 0.72890 0.39580 0.33800
H 	H 	0.76290 0.72730 0.48110 0.33900
C 	C 	0.38980 0.65110 0.50380 0.37200
H 	H 	0.33940 0.66040 0.46560 -0.10000
C 	C 	0.37850 0.62140 0.55770 -0.50700
H 	H 	0.42850 0.61130 0.59590 0.20000
C 	C 	0.28970 0.60060 0.56540 0.52100
C 	C 	0.57980 0.81520 0.48860 0.34900
H 	H 	0.53700 0.83700 0.45550 -0.09100
C 	C 	0.64490 0.84230 0.53440 -0.49300
H 	H 	0.69220 0.82160 0.56390 0.20200
C 	C 	0.64680 0.90540 0.54130 0.56300
In	In	0.29002 0.98621 0.36563 2.00500
In	In	0.19078 0.96962 0.15546 2.03400
O 	O 	0.42870 0.98477 0.38810 -0.83200
H 	H 	0.45670 0.97770 0.34990 0.26900
O 	O 	0.27440 0.00819 0.25143 -0.92800
H 	H 	0.30830 0.03840 0.24240 0.24400
O 	O 	0.09040 0.94134 0.06365 -0.83600
H 	H 	0.08570 0.90310 0.05090 0.25800
O 	O 	0.28650 0.95635 0.47610 -0.61200
O 	O 	0.42590 0.93571 0.54010 -0.58300
O 	O 	0.28140 0.60347 0.83910 -0.61300
O 	O 	0.17990 0.60130 0.72700 -0.62200
O 	O 	0.00990 0.95480 0.90070 -0.64400
O 	O 	0.91660 0.99475 0.80020 -0.59900
O 	O 	0.20510 0.04701 0.09730 -0.65600
O 	O 	0.10730 0.05422 0.98500 -0.60000
O 	O 	0.77930 0.11290 0.98230 -0.38000
O 	O 	0.70450 0.07090 0.87720 -0.62900
O 	O 	0.40810 0.43302 0.00830 -0.64600
O 	O 	0.29690 0.42565 0.90230 -0.62400
C 	C 	0.34290 0.93210 0.52860 0.57000
C 	C 	0.31170 0.89680 0.58290 -0.49200
H 	H 	0.35290 0.87510 0.61790 0.19800
C 	C 	0.22820 0.89450 0.58420 0.34300
H 	H 	0.18620 0.91270 0.54550 -0.09600
C 	C 	0.19780 0.86440 0.64430 -0.48000
C 	C 	0.20180 0.80560 0.65210 0.51000
C 	C 	0.18040 0.78030 0.71480 -0.49500
C 	C 	0.14970 0.81310 0.76610 0.52800
C 	C 	0.14030 0.87190 0.75440 -0.51900
C 	C 	0.16400 0.89800 0.69370 0.52700
C 	C 	0.23290 0.76870 0.59680 -1.01700
H 	H 	0.23110 0.72970 0.61110 0.32800
H 	H 	0.29240 0.77890 0.59750 0.31100
H 	H 	0.19490 0.77420 0.54640 0.31200
C 	C 	0.12320 0.78780 0.83290 -1.03700
H 	H 	0.10410 0.81740 0.86110 0.33900
H 	H 	0.17290 0.76840 0.86550 0.32500
H 	H 	0.07560 0.76140 0.81470 0.31800
C 	C 	0.15990 0.96160 0.68300 -1.07100
H 	H 	0.17860 0.97130 0.63850 0.34800
H 	H 	0.19810 0.97950 0.72680 0.35400
H 	H 	0.10020 0.97430 0.67680 0.33100
C 	C 	0.18700 0.71840 0.72210 0.37200
H 	H 	0.15570 0.69750 0.68030 -0.10900
C 	C 	0.23180 0.68930 0.78070 -0.51600
H 	H 	0.26510 0.70860 0.82330 0.20000
C 	C 	0.23150 0.62680 0.78170 0.57400
C 	C 	0.09870 0.90450 0.80490 0.46900
H 	H 	0.12560 0.90430 0.85700 -0.10900
C 	C 	0.02520 0.93390 0.77940 -0.72400
H 	H 	0.99990 0.93610 0.72720 0.30800
C 	C 	0.98150 0.96340 0.83120 0.75200
C 	C 	0.17920 0.06550 0.03170 0.57700
C 	C 	0.23730 0.10710 0.00630 -0.62300
H 	H 	0.21630 0.12520 0.95970 0.25900
C 	C 	0.31670 0.11860 0.04790 0.40600
H 	H 	0.33470 0.10000 0.09450 -0.11900
C 	C 	0.38190 0.15820 0.02930 -0.50200
C 	C 	0.45790 0.13600 0.01490 0.52600
C 	C 	0.52420 0.17290 0.00520 -0.53500
C 	C 	0.51240 0.23110 0.00650 0.40600
C 	C 	0.43320 0.25290 0.01590 -0.40600
C 	C 	0.36950 0.21660 0.03080 0.46300
C 	C 	0.46700 0.07170 0.01070 -1.12300
H 	H 	0.52240 0.06260 0.00050 0.31700
H 	H 	0.41930 0.05700 0.97060 0.35600
H 	H 	0.46490 0.05510 0.05830 0.32400
C 	C 	0.58050 0.27120 0.99060 -0.70900
H 	H 	0.56160 0.30960 0.99390 0.25700
H 	H 	0.58690 0.26430 0.94040 0.22500
H 	H 	0.63630 0.26520 0.02740 0.19800
C 	C 	0.29070 0.24070 0.05340 -0.94500
H 	H 	0.29240 0.28140 0.05140 0.28700
H 	H 	0.29270 0.22890 0.10420 0.29200
H 	H 	0.23710 0.22730 0.01890 0.27800
C 	C 	0.61020 0.15110 0.99620 0.54400
H 	H 	0.66060 0.16040 0.03440 -0.18200
C 	C 	0.62150 0.12140 0.94230 -0.60800
H 	H 	0.57150 0.11130 0.90410 0.23000
C 	C 	0.71030 0.10060 0.93460 0.56000
C 	C 	0.42020 0.31520 0.01140 0.22100
H 	H 	0.46300 0.33700 0.04450 -0.05800
C 	C 	0.35510 0.34230 0.96560 -0.39400
H 	H 	0.30780 0.32160 0.93610 0.17000
C 	C 	0.35320 0.40540 0.95870 0.58200
In	In	0.50000 0.50000 -0.00000 2.00200
In	In	0.50000 0.00000 0.50000 1.99100
In	In	0.00000 0.50000 0.50000 2.00200
In	In	-0.00000 0.00000 -0.00000 1.97000
