data_crystal

_cell_length_a 7.83000
_cell_length_b 10.91200
_cell_length_c 12.49800
_cell_angle_alpha 106.54400
_cell_angle_beta  96.59600
_cell_angle_gamma 99.56200

_symmetry_space_group_name_	'P 1'
_symmetry_space_group_name_H-M	'P 1'

loop_
_symmetry_equiv_pos_as_xyz
  x,y,z

loop_
_atom_site_label
_atom_site_type_symbol
_atom_site_fract_x
_atom_site_fract_y
_atom_site_fract_z
_atom_site_charge
Co	Co	0.86215 0.51850 0.40173 1.17600
Co	Co	0.51596 0.36557 0.52034 1.13100
O 	O 	0.93870 0.36360 0.46070 -0.53400
O 	O 	0.70210 0.25290 0.50280 -0.44500
O 	O 	0.65310 0.77900 0.45010 -0.44000
O 	O 	0.83440 0.67430 0.34900 -0.43800
O 	O 	0.53160 0.05360 0.20280 -0.11100
O 	O 	0.61500 0.88850 0.11130 -0.12600
O 	O 	0.27740 0.62260 0.75090 -0.39100
O 	O 	0.99050 0.56250 0.73420 -0.38100
O 	O 	0.19260 0.01220 0.21820 -0.24400
O 	O 	0.67530 0.52700 0.49940 -0.71600
H 	H 	0.74100 0.57420 0.57580 0.13900
N 	N 	0.50010 0.94610 0.13480 0.01300
C 	C 	0.88600 0.13060 0.40320 -0.04800
C 	C 	0.80230 0.01470 0.41830 -0.00900
H 	H 	0.71370 0.01600 0.46190 0.07200
C 	C 	0.85090 0.89790 0.36870 -0.02400
C 	C 	0.98110 0.89480 0.30080 -0.12700
H 	H 	0.01660 0.81720 0.26870 0.10300
C 	C 	0.05570 0.00880 0.28210 0.18600
C 	C 	0.01300 0.12730 0.33370 -0.10800
H 	H 	0.06840 0.20350 0.32200 0.07700
C 	C 	0.83690 0.25710 0.46010 0.36900
C 	C 	0.77200 0.77300 0.39110 0.35600
C 	C 	0.17140 0.92090 0.11450 0.18800
C 	C 	0.32190 0.88750 0.07190 0.00200
C 	C 	0.30700 0.79450 0.96740 0.00500
H 	H 	0.40790 0.77280 0.94120 0.07200
C 	C 	0.14510 0.73400 0.90180 -0.09900
C 	C 	0.99610 0.76880 0.94240 0.08300
H 	H 	0.88590 0.72970 0.89830 0.01900
C 	C 	0.00850 0.86090 0.04750 -0.19300
H 	H 	0.90710 0.88240 0.07300 0.12800
C 	C 	0.13520 0.63430 0.78940 0.31600
Co	Co	0.13785 0.48150 0.59827 1.17500
Co	Co	0.48404 0.63443 0.47966 1.13000
O 	O 	0.06130 0.63640 0.53930 -0.53400
O 	O 	0.29790 0.74710 0.49720 -0.44500
O 	O 	0.34690 0.22100 0.54990 -0.44000
O 	O 	0.16560 0.32570 0.65100 -0.43800
O 	O 	0.46840 0.94640 0.79720 -0.11100
O 	O 	0.38500 0.11150 0.88870 -0.12600
O 	O 	0.72260 0.37740 0.24910 -0.39100
O 	O 	0.00950 0.43750 0.26580 -0.38100
O 	O 	0.80740 0.98780 0.78180 -0.24400
O 	O 	0.32470 0.47300 0.50060 -0.71600
H 	H 	0.25900 0.42580 0.42420 0.13900
N 	N 	0.49990 0.05390 0.86520 0.01300
C 	C 	0.11400 0.86940 0.59680 -0.04800
C 	C 	0.19770 0.98530 0.58170 -0.00900
H 	H 	0.28630 0.98400 0.53810 0.07200
C 	C 	0.14910 0.10210 0.63130 -0.02400
C 	C 	0.01890 0.10520 0.69920 -0.12700
H 	H 	0.98340 0.18280 0.73130 0.10300
C 	C 	0.94430 0.99120 0.71790 0.18600
C 	C 	0.98700 0.87270 0.66630 -0.10800
H 	H 	0.93160 0.79650 0.67800 0.07700
C 	C 	0.16310 0.74290 0.53990 0.36900
C 	C 	0.22800 0.22700 0.60890 0.35600
C 	C 	0.82860 0.07910 0.88550 0.18800
C 	C 	0.67810 0.11250 0.92810 0.00200
C 	C 	0.69300 0.20550 0.03260 0.00500
H 	H 	0.59210 0.22720 0.05880 0.07200
C 	C 	0.85490 0.26600 0.09820 -0.09900
C 	C 	0.00390 0.23120 0.05760 0.08300
H 	H 	0.11410 0.27030 0.10170 0.01900
C 	C 	0.99150 0.13910 0.95250 -0.19300
H 	H 	0.09290 0.11760 0.92700 0.12800
C 	C 	0.86480 0.36570 0.21060 0.31600
