data_crystal

_cell_length_a 7.31080
_cell_length_b 9.72200
_cell_length_c 14.68250
_cell_angle_alpha 90.00000
_cell_angle_beta  99.38170
_cell_angle_gamma 90.00000

_symmetry_space_group_name_	'P 1'
_symmetry_space_group_name_H-M	'P 1'

loop_
_symmetry_equiv_pos_as_xyz
  x,y,z

loop_
_atom_site_label
_atom_site_type_symbol
_atom_site_fract_x
_atom_site_fract_y
_atom_site_fract_z
_atom_site_charge
Tb	Tb	0.63728 0.44511 0.35767 1.85500
Tb	Tb	0.86272 0.94511 0.14233 1.81000
Tb	Tb	0.36272 0.55489 0.64233 1.85500
Tb	Tb	0.13728 0.05489 0.85767 1.81000
H 	H 	0.72290 0.95330 0.62490 0.02100
H 	H 	0.82300 0.16480 0.54540 0.04600
H 	H 	0.77710 0.45330 0.87510 0.01900
H 	H 	0.67700 0.66480 0.95460 0.04500
H 	H 	0.27710 0.04670 0.37510 0.02100
H 	H 	0.17700 0.83520 0.45460 0.04600
H 	H 	0.22290 0.54670 0.12490 0.01900
H 	H 	0.32300 0.33520 0.04540 0.04500
C 	C 	0.60670 0.72590 0.49680 0.47400
C 	C 	0.68720 0.86440 0.49630 -0.03900
C 	C 	0.72960 0.96240 0.56250 -0.01600
C 	C 	0.78580 0.08100 0.51800 -0.02700
C 	C 	0.77430 0.04780 0.42770 -0.03200
C 	C 	0.81260 0.12470 0.34690 0.43300
C 	C 	0.95670 0.46490 0.53840 0.26200
C 	C 	0.89330 0.22590 0.00320 0.47000
C 	C 	0.81280 0.36440 0.00370 -0.04200
C 	C 	0.77040 0.46240 0.93750 -0.00800
C 	C 	0.71420 0.58100 0.98200 -0.02500
C 	C 	0.72570 0.54780 0.07230 -0.04500
C 	C 	0.68740 0.62470 0.15310 0.43800
C 	C 	0.54330 0.96490 0.96160 0.26200
C 	C 	0.39330 0.27410 0.50320 0.47400
C 	C 	0.31280 0.13560 0.50370 -0.03900
C 	C 	0.27040 0.03760 0.43750 -0.01600
C 	C 	0.21420 0.91900 0.48200 -0.02700
C 	C 	0.22570 0.95220 0.57230 -0.03200
C 	C 	0.18740 0.87530 0.65310 0.43300
C 	C 	0.04330 0.53510 0.46160 0.26200
C 	C 	0.10670 0.77410 0.99680 0.47000
C 	C 	0.18720 0.63560 0.99630 -0.04200
C 	C 	0.22960 0.53760 0.06250 -0.00800
C 	C 	0.28580 0.41900 0.01800 -0.02500
C 	C 	0.27430 0.45220 0.92770 -0.04500
C 	C 	0.31260 0.37530 0.84690 0.43800
C 	C 	0.45670 0.03510 0.03840 0.26200
O 	O 	0.79250 0.42450 0.51780 -0.39700
O 	O 	0.58866 0.65820 0.42326 -0.49600
O 	O 	0.55943 0.68790 0.57073 -0.53300
O 	O 	0.71652 0.91380 0.41312 -0.16500
O 	O 	0.83535 0.25380 0.35645 -0.47800
O 	O 	0.82020 0.06100 0.27400 -0.50000
O 	O 	0.05660 0.45400 0.61600 -0.39600
O 	O 	0.70750 0.92450 0.98220 -0.39100
O 	O 	0.91134 0.15820 0.07674 -0.48600
O 	O 	0.94057 0.18790 0.92927 -0.52400
O 	O 	0.78348 0.41380 0.08688 -0.15800
O 	O 	0.66465 0.75380 0.14355 -0.47900
O 	O 	0.67980 0.56100 0.22600 -0.51200
O 	O 	0.44340 0.95400 0.88400 -0.38600
O 	O 	0.20750 0.57550 0.48220 -0.39700
O 	O 	0.41134 0.34180 0.57674 -0.49600
O 	O 	0.44057 0.31210 0.42927 -0.53300
O 	O 	0.28348 0.08620 0.58688 -0.16500
O 	O 	0.16465 0.74620 0.64355 -0.47800
O 	O 	0.17980 0.93900 0.72600 -0.50000
O 	O 	0.94340 0.54600 0.38400 -0.39600
O 	O 	0.29250 0.07550 0.01780 -0.39100
O 	O 	0.08866 0.84180 0.92326 -0.48600
O 	O 	0.05943 0.81210 0.07073 -0.52400
O 	O 	0.21652 0.58620 0.91312 -0.15800
O 	O 	0.33535 0.24620 0.85645 -0.47900
O 	O 	0.32020 0.43900 0.77400 -0.51200
O 	O 	0.55660 0.04600 0.11600 -0.38600
