data_crystal

_cell_length_a 7.35190
_cell_length_b 9.72950
_cell_length_c 14.76610
_cell_angle_alpha 90.00000
_cell_angle_beta  99.62760
_cell_angle_gamma 90.00000

_symmetry_space_group_name_	'P 1'
_symmetry_space_group_name_H-M	'P 1'

loop_
_symmetry_equiv_pos_as_xyz
  x,y,z

loop_
_atom_site_label
_atom_site_type_symbol
_atom_site_fract_x
_atom_site_fract_y
_atom_site_fract_z
_atom_site_charge
Eu	Eu	0.63539 0.44491 0.35726 1.93900
Eu	Eu	0.86461 0.94491 0.14274 1.89100
Eu	Eu	0.36461 0.55509 0.64274 1.93900
Eu	Eu	0.13539 0.05509 0.85726 1.89100
H 	H 	0.72440 0.95310 0.62430 0.01600
H 	H 	0.82200 0.16460 0.54520 0.04100
H 	H 	0.77560 0.45310 0.87570 0.01400
H 	H 	0.67800 0.66460 0.95480 0.04000
H 	H 	0.27560 0.04690 0.37570 0.01600
H 	H 	0.17800 0.83540 0.45480 0.04100
H 	H 	0.22440 0.54690 0.12430 0.01500
H 	H 	0.32200 0.33540 0.04520 0.04100
C 	C 	0.60710 0.72700 0.49640 0.47200
C 	C 	0.68700 0.86490 0.49600 -0.04200
C 	C 	0.73000 0.96240 0.56210 -0.01600
C 	C 	0.78540 0.08070 0.51790 -0.02400
C 	C 	0.77440 0.04790 0.42800 -0.03900
C 	C 	0.81360 0.12430 0.34770 0.44500
C 	C 	0.95740 0.46510 0.53810 0.26000
C 	C 	0.89290 0.22700 0.00360 0.46900
C 	C 	0.81300 0.36490 0.00400 -0.04500
C 	C 	0.77000 0.46240 0.93790 -0.00800
C 	C 	0.71460 0.58070 0.98210 -0.02200
C 	C 	0.72560 0.54790 0.07200 -0.05300
C 	C 	0.68640 0.62430 0.15230 0.45000
C 	C 	0.54260 0.96510 0.96190 0.26000
C 	C 	0.39290 0.27300 0.50360 0.47200
C 	C 	0.31300 0.13510 0.50400 -0.04200
C 	C 	0.27000 0.03760 0.43790 -0.01600
C 	C 	0.21460 0.91930 0.48210 -0.02400
C 	C 	0.22560 0.95210 0.57200 -0.03900
C 	C 	0.18640 0.87570 0.65230 0.44500
C 	C 	0.04260 0.53490 0.46190 0.26000
C 	C 	0.10710 0.77300 0.99640 0.46900
C 	C 	0.18700 0.63510 0.99600 -0.04500
C 	C 	0.23000 0.53760 0.06210 -0.00800
C 	C 	0.28540 0.41930 0.01790 -0.02200
C 	C 	0.27440 0.45210 0.92800 -0.05300
C 	C 	0.31360 0.37570 0.84770 0.45000
C 	C 	0.45740 0.03490 0.03810 0.26000
O 	O 	0.79290 0.42500 0.51820 -0.40500
O 	O 	0.58660 0.65980 0.42290 -0.50700
O 	O 	0.56240 0.68820 0.57080 -0.54300
O 	O 	0.71680 0.91420 0.41320 -0.16700
O 	O 	0.83550 0.25270 0.35720 -0.49500
O 	O 	0.82270 0.06050 0.27560 -0.51600
O 	O 	0.05820 0.45310 0.61520 -0.40700
O 	O 	0.70710 0.92500 0.98180 -0.39800
O 	O 	0.91340 0.15980 0.07710 -0.49700
O 	O 	0.93760 0.18820 0.92920 -0.53300
O 	O 	0.78320 0.41420 0.08680 -0.15900
O 	O 	0.66450 0.75270 0.14280 -0.49600
O 	O 	0.67730 0.56050 0.22440 -0.52900
O 	O 	0.44180 0.95310 0.88480 -0.39700
O 	O 	0.20710 0.57500 0.48180 -0.40500
O 	O 	0.41340 0.34020 0.57710 -0.50700
O 	O 	0.43760 0.31180 0.42920 -0.54300
O 	O 	0.28320 0.08580 0.58680 -0.16700
O 	O 	0.16450 0.74730 0.64280 -0.49500
O 	O 	0.17730 0.93950 0.72440 -0.51600
O 	O 	0.94180 0.54690 0.38480 -0.40700
O 	O 	0.29290 0.07500 0.01820 -0.39800
O 	O 	0.08660 0.84020 0.92290 -0.49700
O 	O 	0.06240 0.81180 0.07080 -0.53300
O 	O 	0.21680 0.58580 0.91320 -0.15900
O 	O 	0.33550 0.24730 0.85720 -0.49600
O 	O 	0.32270 0.43950 0.77560 -0.52900
O 	O 	0.55820 0.04690 0.11520 -0.39700
