data_crystal

_cell_length_a 11.37900
_cell_length_b 13.38600
_cell_length_c 25.90400
_cell_angle_alpha 90.00000
_cell_angle_beta  90.00000
_cell_angle_gamma 90.00000

_symmetry_space_group_name_	'P 1'
_symmetry_space_group_name_H-M	'P 1'

loop_
_symmetry_equiv_pos_as_xyz
  x,y,z

loop_
_atom_site_label
_atom_site_type_symbol
_atom_site_fract_x
_atom_site_fract_y
_atom_site_fract_z
_atom_site_charge
Co	Co	0.84432 0.44353 0.42199 1.17500
Co	Co	0.09813 0.55392 0.36133 1.17700
O 	O 	0.91630 0.57300 0.38498 -0.65300
H 	H 	0.91120 0.63040 0.40900 0.22800
H 	H 	0.86830 0.58900 0.35420 0.22100
O 	O 	0.47150 0.76950 0.56333 -0.30300
O 	O 	0.71960 0.60330 0.33633 -0.27800
O 	O 	0.69850 0.45100 0.37352 -0.38700
O 	O 	0.64600 0.82620 0.59254 -0.39100
O 	O 	0.92560 0.34950 0.36743 -0.42000
O 	O 	0.04920 0.43630 0.31623 -0.43100
O 	O 	0.14070 0.45350 0.42034 -0.40600
O 	O 	0.98420 0.43630 0.47309 -0.41900
N 	N 	0.26570 0.18200 0.54101 -0.21000
N 	N 	0.93170 0.15440 0.20251 -0.20900
N 	N 	0.75750 0.54210 0.47677 -0.21000
N 	N 	0.28260 0.54360 0.34269 -0.20900
C 	C 	0.34000 0.45560 0.34660 0.05300
H 	H 	0.29490 0.39590 0.34780 0.01700
C 	C 	0.28860 0.19820 0.49090 0.03200
H 	H 	0.34470 0.15700 0.47400 0.02000
C 	C 	0.99300 0.23960 0.19600 0.02300
H 	H 	0.02540 0.25360 0.16300 0.02800
C 	C 	0.23220 0.27490 0.46210 -0.04900
H 	H 	0.24890 0.28480 0.42660 0.05900
C 	C 	0.63820 0.54960 0.47760 0.04100
H 	H 	0.59350 0.50240 0.45840 0.01700
C 	C 	0.64240 0.68660 0.53530 -0.02400
C 	C 	0.98050 0.36540 0.32683 0.36900
C 	C 	0.15050 0.33540 0.48830 -0.04300
C 	C 	0.01080 0.30740 0.23550 -0.03400
H 	H 	0.05430 0.36670 0.22910 0.06000
C 	C 	0.88760 0.13550 0.24960 0.03400
H 	H 	0.84530 0.07520 0.25500 0.01500
C 	C 	0.34720 0.62620 0.33910 0.04900
H 	H 	0.30830 0.68870 0.33620 0.01400
C 	C 	0.76530 0.67860 0.53590 -0.05900
H 	H 	0.81130 0.72270 0.55630 0.06900
C 	C 	0.18570 0.23930 0.56410 0.04100
H 	H 	0.16930 0.22800 0.59960 0.02100
C 	C 	0.08650 0.41510 0.45779 0.34600
C 	C 	0.96620 0.28980 0.28350 -0.05400
C 	C 	0.57950 0.76780 0.56560 0.31200
C 	C 	0.81910 0.60450 0.50590 0.04600
H 	H 	0.90230 0.59870 0.50650 0.02400
C 	C 	0.12480 0.31550 0.53870 -0.05300
H 	H 	0.06620 0.35290 0.55630 0.06000
C 	C 	0.57890 0.62270 0.50510 -0.06300
H 	H 	0.49580 0.62830 0.50300 0.07100
C 	C 	0.90190 0.20210 0.29130 -0.04600
H 	H 	0.86850 0.18760 0.32410 0.06100
C 	C 	0.47090 0.62430 0.33940 -0.07000
H 	H 	0.51490 0.68430 0.33600 0.07000
C 	C 	0.45870 0.44830 0.34897 -0.07200
H 	H 	0.49500 0.38500 0.35350 0.06800
C 	C 	0.52690 0.53370 0.34475 -0.01800
C 	C 	0.65860 0.53020 0.35149 0.29100
Co	Co	0.65568 0.55647 0.92199 1.17400
Co	Co	0.40187 0.44608 0.86133 1.17700
O 	O 	0.58370 0.42700 0.88498 -0.65300
H 	H 	0.58880 0.36960 0.90900 0.22800
H 	H 	0.63170 0.41100 0.85420 0.22100
O 	O 	0.02850 0.23050 0.06333 -0.30000
O 	O 	0.78040 0.39670 0.83633 -0.27900
O 	O 	0.80150 0.54900 0.87352 -0.38700
O 	O 	0.85400 0.17380 0.09254 -0.39000
O 	O 	0.57440 0.65050 0.86743 -0.42000
O 	O 	0.45080 0.56370 0.81623 -0.43100
O 	O 	0.35930 0.54650 0.92034 -0.40600
O 	O 	0.51580 0.56370 0.97309 -0.41900
N 	N 	0.23430 0.81800 0.04101 -0.21000
N 	N 	0.56830 0.84560 0.70251 -0.21000
N 	N 	0.74250 0.45790 0.97677 -0.21100
N 	N 	0.21740 0.45640 0.84269 -0.20800
C 	C 	0.16000 0.54440 0.84660 0.05200
H 	H 	0.20510 0.60410 0.84780 0.01700
C 	C 	0.21140 0.80180 0.99090 0.03100
H 	H 	0.15530 0.84300 0.97400 0.02000
C 	C 	0.50700 0.76040 0.69600 0.03200
H 	H 	0.47460 0.74640 0.66300 0.02300
C 	C 	0.26780 0.72510 0.96210 -0.04900
H 	H 	0.25110 0.71520 0.92660 0.05900
C 	C 	0.86180 0.45040 0.97760 0.04400
H 	H 	0.90650 0.49760 0.95840 0.01500
C 	C 	0.85760 0.31340 0.03530 -0.02100
C 	C 	0.51950 0.63460 0.82683 0.36800
C 	C 	0.34950 0.66460 0.98830 -0.04400
C 	C 	0.48920 0.69260 0.73550 -0.04400
H 	H 	0.44570 0.63330 0.72910 0.06300
C 	C 	0.61240 0.86450 0.74960 0.03600
H 	H 	0.65470 0.92480 0.75500 0.01500
C 	C 	0.15280 0.37380 0.83910 0.04700
H 	H 	0.19170 0.31130 0.83620 0.01500
C 	C 	0.73470 0.32140 0.03590 -0.06100
H 	H 	0.68870 0.27730 0.05630 0.06900
C 	C 	0.31430 0.76070 0.06410 0.04000
H 	H 	0.33070 0.77200 0.09960 0.02100
C 	C 	0.41350 0.58490 0.95779 0.34600
C 	C 	0.53380 0.71020 0.78350 -0.04800
C 	C 	0.92050 0.23220 0.06560 0.30800
C 	C 	0.68090 0.39550 0.00590 0.04600
H 	H 	0.59770 0.40130 0.00650 0.02400
C 	C 	0.37520 0.68450 0.03870 -0.05200
H 	H 	0.43380 0.64710 0.05630 0.06000
C 	C 	0.92110 0.37730 0.00510 -0.07000
H 	H 	0.00420 0.37170 0.00300 0.07400
C 	C 	0.59810 0.79790 0.79130 -0.04800
H 	H 	0.63150 0.81240 0.82410 0.06200
C 	C 	0.02910 0.37570 0.83940 -0.06600
H 	H 	0.98510 0.31570 0.83600 0.06800
C 	C 	0.04130 0.55170 0.84897 -0.07000
H 	H 	0.00500 0.61500 0.85350 0.06700
C 	C 	0.97310 0.46630 0.84475 -0.02100
C 	C 	0.84140 0.46980 0.85149 0.29200
Co	Co	0.15568 0.94353 0.07801 1.17400
Co	Co	0.90187 0.05392 0.13867 1.17600
O 	O 	0.08370 0.07300 0.11502 -0.65100
H 	H 	0.08880 0.13040 0.09100 0.22800
H 	H 	0.13170 0.08900 0.14580 0.22200
O 	O 	0.52850 0.26950 0.93667 -0.30300
O 	O 	0.28040 0.10330 0.16367 -0.27800
O 	O 	0.30150 0.95100 0.12648 -0.38700
O 	O 	0.35400 0.32620 0.90746 -0.39100
O 	O 	0.07440 0.84950 0.13257 -0.42000
O 	O 	0.95080 0.93630 0.18377 -0.42800
O 	O 	0.85930 0.95350 0.07966 -0.40600
O 	O 	0.01580 0.93630 0.02691 -0.42000
N 	N 	0.73430 0.68200 0.95899 -0.21000
N 	N 	0.06830 0.65440 0.29749 -0.20900
N 	N 	0.24250 0.04210 0.02323 -0.21000
N 	N 	0.71740 0.04360 0.15731 -0.21000
C 	C 	0.66000 0.95560 0.15340 0.05500
H 	H 	0.70510 0.89590 0.15220 0.01600
C 	C 	0.71140 0.69820 0.00910 0.03200
H 	H 	0.65530 0.65700 0.02600 0.02000
C 	C 	0.00700 0.73960 0.30400 0.02600
H 	H 	0.97460 0.75360 0.33700 0.02600
C 	C 	0.76780 0.77490 0.03790 -0.04900
H 	H 	0.75110 0.78480 0.07340 0.05900
C 	C 	0.36180 0.04960 0.02240 0.04000
H 	H 	0.40650 0.00240 0.04160 0.01700
C 	C 	0.35760 0.18660 0.96470 -0.02500
C 	C 	0.01950 0.86540 0.17317 0.36600
C 	C 	0.84950 0.83540 0.01170 -0.04300
C 	C 	0.98920 0.80740 0.26450 -0.03800
H 	H 	0.94570 0.86670 0.27090 0.06100
C 	C 	0.11240 0.63550 0.25040 0.03500
H 	H 	0.15470 0.57520 0.24500 0.01600
C 	C 	0.65280 0.12620 0.16090 0.04900
H 	H 	0.69170 0.18870 0.16380 0.01400
C 	C 	0.23470 0.17860 0.96410 -0.05800
H 	H 	0.18870 0.22270 0.94370 0.06900
C 	C 	0.81430 0.73930 0.93590 0.04100
H 	H 	0.83070 0.72800 0.90040 0.02100
C 	C 	0.91350 0.91510 0.04221 0.34700
C 	C 	0.03380 0.78980 0.21650 -0.05200
C 	C 	0.42050 0.26780 0.93440 0.31200
C 	C 	0.18090 0.10450 0.99410 0.04600
H 	H 	0.09770 0.09870 0.99350 0.02500
C 	C 	0.87520 0.81550 0.96130 -0.05300
H 	H 	0.93380 0.85290 0.94370 0.06100
C 	C 	0.42110 0.12270 0.99490 -0.06300
H 	H 	0.50420 0.12830 0.99700 0.07100
C 	C 	0.09810 0.70210 0.20870 -0.04700
H 	H 	0.13150 0.68760 0.17590 0.06100
C 	C 	0.52910 0.12430 0.16060 -0.07000
H 	H 	0.48510 0.18430 0.16400 0.07000
C 	C 	0.54130 0.94830 0.15103 -0.07200
H 	H 	0.50500 0.88500 0.14650 0.06800
C 	C 	0.47310 0.03370 0.15525 -0.01900
C 	C 	0.34140 0.03020 0.14851 0.29200
Co	Co	0.34432 0.05647 0.57801 1.17500
Co	Co	0.59813 0.94608 0.63867 1.17700
O 	O 	0.41630 0.92700 0.61502 -0.65300
H 	H 	0.41120 0.86960 0.59100 0.22800
H 	H 	0.36830 0.91100 0.64580 0.22100
O 	O 	0.97150 0.73050 0.43667 -0.30100
O 	O 	0.21960 0.89670 0.66367 -0.27900
O 	O 	0.19850 0.04900 0.62648 -0.38500
O 	O 	0.14600 0.67380 0.40746 -0.39000
O 	O 	0.42560 0.15050 0.63257 -0.42000
O 	O 	0.54920 0.06370 0.68377 -0.43100
O 	O 	0.64070 0.04650 0.57966 -0.40600
O 	O 	0.48420 0.06370 0.52691 -0.41800
N 	N 	0.76570 0.31800 0.45899 -0.21000
N 	N 	0.43170 0.34560 0.79749 -0.21000
N 	N 	0.25750 0.95790 0.52323 -0.21100
N 	N 	0.78260 0.95640 0.65731 -0.20600
C 	C 	0.84000 0.04440 0.65340 0.04900
H 	H 	0.79490 0.10410 0.65220 0.01800
C 	C 	0.78860 0.30180 0.50910 0.03200
H 	H 	0.84470 0.34300 0.52600 0.02000
C 	C 	0.49300 0.26040 0.80400 0.03200
H 	H 	0.52540 0.24640 0.83700 0.02300
C 	C 	0.73220 0.22510 0.53790 -0.05000
H 	H 	0.74890 0.21520 0.57340 0.05900
C 	C 	0.13820 0.95040 0.52240 0.04400
H 	H 	0.09350 0.99760 0.54160 0.01500
C 	C 	0.14240 0.81340 0.46470 -0.02100
C 	C 	0.48050 0.13460 0.67317 0.36800
C 	C 	0.65050 0.16460 0.51170 -0.04300
C 	C 	0.51080 0.19260 0.76450 -0.04400
H 	H 	0.55430 0.13330 0.77090 0.06300
C 	C 	0.38760 0.36450 0.75040 0.03600
H 	H 	0.34530 0.42480 0.74500 0.01500
C 	C 	0.84720 0.87380 0.66090 0.04400
H 	H 	0.80830 0.81130 0.66380 0.01600
C 	C 	0.26530 0.82140 0.46410 -0.06100
H 	H 	0.31130 0.77730 0.44370 0.06900
C 	C 	0.68570 0.26070 0.43590 0.04100
H 	H 	0.66930 0.27200 0.40040 0.02100
C 	C 	0.58650 0.08490 0.54221 0.34600
C 	C 	0.46620 0.21020 0.71650 -0.04800
C 	C 	0.07950 0.73220 0.43440 0.30900
C 	C 	0.31910 0.89550 0.49410 0.04700
H 	H 	0.40230 0.90130 0.49350 0.02400
C 	C 	0.62480 0.18450 0.46130 -0.05300
H 	H 	0.56620 0.14710 0.44370 0.06000
C 	C 	0.07890 0.87730 0.49490 -0.07100
H 	H 	0.99580 0.87170 0.49700 0.07500
C 	C 	0.40190 0.29790 0.70870 -0.04800
H 	H 	0.36850 0.31240 0.67590 0.06200
C 	C 	0.97090 0.87570 0.66060 -0.05900
H 	H 	0.01490 0.81570 0.66400 0.06500
C 	C 	0.95870 0.05170 0.65103 -0.06700
H 	H 	0.99500 0.11500 0.64650 0.06600
C 	C 	0.02690 0.96630 0.65525 -0.02700
C 	C 	0.15860 0.96980 0.64851 0.29100
