data_crystal

_cell_length_a 11.47770
_cell_length_b 13.31640
_cell_length_c 26.03070
_cell_angle_alpha 90.00000
_cell_angle_beta  90.00000
_cell_angle_gamma 90.00000

_symmetry_space_group_name_	'P 1'
_symmetry_space_group_name_H-M	'P 1'

loop_
_symmetry_equiv_pos_as_xyz
  x,y,z

loop_
_atom_site_label
_atom_site_type_symbol
_atom_site_fract_x
_atom_site_fract_y
_atom_site_fract_z
_atom_site_charge
Co	Co	0.34580 0.44426 0.92184 1.17700
Co	Co	0.60222 0.54997 0.86039 1.17800
Co	Co	0.15420 0.55574 0.42184 1.17600
Co	Co	0.89778 0.45003 0.36039 1.17700
Co	Co	0.65420 0.94426 0.57816 1.17600
Co	Co	0.39778 0.04997 0.63961 1.17700
Co	Co	0.84580 0.05574 0.07816 1.17600
Co	Co	0.10222 0.95003 0.13961 1.17500
H 	H 	0.37360 0.59000 0.85510 0.21500
H 	H 	0.41890 0.62940 0.90960 0.23000
H 	H 	0.10140 0.51500 0.95510 0.01600
H 	H 	0.33760 0.07580 0.75460 0.01300
H 	H 	0.52630 0.24840 0.66380 0.02100
H 	H 	0.80920 0.68540 0.83080 0.01600
H 	H 	0.00930 0.63880 0.00270 0.06800
H 	H 	0.73340 0.26840 0.92560 0.05800
H 	H 	0.82510 0.14320 0.97130 0.01800
H 	H 	0.40620 0.59510 0.01080 0.02800
H 	H 	0.01060 0.68540 0.83040 0.06600
H 	H 	0.67780 0.23420 0.09980 0.01900
H 	H 	0.56520 0.35650 0.73200 0.06300
H 	H 	0.32050 0.71930 0.06130 0.06500
H 	H 	0.57710 0.35750 0.05660 0.06000
H 	H 	0.36130 0.18730 0.82250 0.06200
H 	H 	0.80080 0.39320 0.85060 0.01800
H 	H 	0.00130 0.38630 0.85640 0.06500
H 	H 	0.12640 0.41000 0.35510 0.21500
H 	H 	0.08110 0.37060 0.40960 0.23000
H 	H 	0.39860 0.48500 0.45510 0.01700
H 	H 	0.16240 0.92420 0.25460 0.01300
H 	H 	0.97370 0.75160 0.16380 0.02500
H 	H 	0.69080 0.31460 0.33080 0.01500
H 	H 	0.49070 0.36120 0.50270 0.06900
H 	H 	0.76660 0.73160 0.42560 0.05900
H 	H 	0.67490 0.85680 0.47130 0.01800
H 	H 	0.09380 0.40490 0.51080 0.02900
H 	H 	0.48940 0.31460 0.33040 0.06700
H 	H 	0.82220 0.76580 0.59980 0.01900
H 	H 	0.93480 0.64350 0.23200 0.06000
H 	H 	0.17950 0.28070 0.56130 0.06500
H 	H 	0.92290 0.64250 0.55660 0.06000
H 	H 	0.13870 0.81270 0.32250 0.06100
H 	H 	0.69920 0.60680 0.35060 0.01800
H 	H 	0.49870 0.61370 0.35640 0.06500
H 	H 	0.62640 0.09000 0.64490 0.21500
H 	H 	0.58110 0.12940 0.59040 0.23000
H 	H 	0.89860 0.01500 0.54490 0.01600
H 	H 	0.66240 0.57580 0.74540 0.01200
H 	H 	0.47370 0.74840 0.83620 0.02100
H 	H 	0.19080 0.18540 0.66920 0.01700
H 	H 	0.99070 0.13880 0.49730 0.06800
H 	H 	0.26660 0.76840 0.57440 0.05900
H 	H 	0.17490 0.64320 0.52870 0.01800
H 	H 	0.59380 0.09510 0.48920 0.02900
H 	H 	0.98940 0.18540 0.66960 0.06200
H 	H 	0.32220 0.73420 0.40020 0.01900
H 	H 	0.43480 0.85650 0.76800 0.06300
H 	H 	0.67950 0.21930 0.43870 0.06500
H 	H 	0.42290 0.85750 0.44340 0.06100
H 	H 	0.63870 0.68730 0.67750 0.06200
H 	H 	0.19920 0.89320 0.64940 0.01900
H 	H 	0.99870 0.88630 0.64360 0.06600
H 	H 	0.87360 0.91000 0.14490 0.21600
H 	H 	0.91890 0.87060 0.09040 0.23000
H 	H 	0.60140 0.98500 0.04490 0.01700
H 	H 	0.83760 0.42420 0.24540 0.01300
H 	H 	0.02630 0.25160 0.33620 0.02400
H 	H 	0.30920 0.81460 0.16920 0.01500
H 	H 	0.50930 0.86120 0.99730 0.06900
H 	H 	0.23340 0.23160 0.07440 0.05900
H 	H 	0.32510 0.35680 0.02870 0.01800
H 	H 	0.90620 0.90490 0.98920 0.02900
H 	H 	0.51060 0.81460 0.16960 0.06700
H 	H 	0.17780 0.26580 0.90020 0.01900
H 	H 	0.06520 0.14350 0.26800 0.06100
H 	H 	0.82050 0.78070 0.93870 0.06500
H 	H 	0.07710 0.14250 0.94340 0.06100
H 	H 	0.86130 0.31270 0.17750 0.06100
H 	H 	0.30080 0.10680 0.14940 0.01800
H 	H 	0.50130 0.11370 0.14360 0.06500
C 	C 	0.14700 0.55780 0.97630 0.04000
C 	C 	0.38300 0.13470 0.74950 0.03900
C 	C 	0.49450 0.23420 0.69670 0.03300
C 	C 	0.84900 0.62350 0.83550 0.04500
C 	C 	0.09140 0.63140 0.00500 -0.05700
C 	C 	0.72090 0.26270 0.96160 -0.04900
C 	C 	0.09270 0.77330 0.06670 0.33100
C 	C 	0.77570 0.18880 0.98910 0.03300
C 	C 	0.47900 0.36280 0.82630 0.37000
C 	C 	0.32420 0.60440 0.00900 0.04000
C 	C 	0.96950 0.62440 0.83600 -0.06100
C 	C 	0.68920 0.24120 0.06380 0.04300
C 	C 	0.46450 0.28580 0.78350 -0.04800
C 	C 	0.03020 0.53550 0.84470 -0.03100
C 	C 	0.64760 0.32890 0.98640 -0.04600
C 	C 	0.51520 0.30050 0.73700 -0.04500
C 	C 	0.15410 0.69350 0.03660 -0.03800
C 	C 	0.27390 0.67910 0.03930 -0.05100
C 	C 	0.62990 0.31550 0.03850 -0.05400
C 	C 	0.58630 0.41090 0.95580 0.36200
C 	C 	0.39720 0.20050 0.79030 -0.05100
C 	C 	0.84400 0.45380 0.84780 0.04900
C 	C 	0.96400 0.44890 0.85060 -0.06400
C 	C 	0.16160 0.53360 0.85210 0.32000
C 	C 	0.35300 0.44220 0.47630 0.03900
C 	C 	0.11700 0.86530 0.24950 0.03700
C 	C 	0.00550 0.76580 0.19670 0.02300
C 	C 	0.65100 0.37650 0.33550 0.04600
C 	C 	0.40860 0.36860 0.50500 -0.05500
C 	C 	0.77910 0.73730 0.46160 -0.05000
C 	C 	0.40730 0.22670 0.56670 0.33500
C 	C 	0.72430 0.81120 0.48910 0.03500
C 	C 	0.02100 0.63720 0.32630 0.37100
C 	C 	0.17580 0.39560 0.50900 0.04000
C 	C 	0.53050 0.37560 0.33600 -0.06400
C 	C 	0.81080 0.75880 0.56380 0.04400
C 	C 	0.03550 0.71420 0.28350 -0.05300
C 	C 	0.46980 0.46450 0.34470 -0.02900
C 	C 	0.85240 0.67110 0.48640 -0.04500
C 	C 	0.98480 0.69950 0.23700 -0.03500
C 	C 	0.34590 0.30650 0.53660 -0.03900
C 	C 	0.22610 0.32090 0.53930 -0.05000
C 	C 	0.87010 0.68450 0.53850 -0.05500
C 	C 	0.91370 0.58910 0.45580 0.36100
C 	C 	0.10280 0.79950 0.29030 -0.04800
C 	C 	0.65600 0.54620 0.34780 0.04900
C 	C 	0.53600 0.55110 0.35060 -0.06400
C 	C 	0.33840 0.46640 0.35210 0.31900
C 	C 	0.85300 0.05780 0.52370 0.03900
C 	C 	0.61700 0.63470 0.75050 0.03900
C 	C 	0.50550 0.73420 0.80330 0.03300
C 	C 	0.15100 0.12350 0.66450 0.04200
C 	C 	0.90860 0.13140 0.49500 -0.05600
C 	C 	0.27910 0.76270 0.53840 -0.05000
C 	C 	0.90730 0.27330 0.43330 0.33200
C 	C 	0.22430 0.68880 0.51090 0.03400
C 	C 	0.52100 0.86280 0.67370 0.37000
C 	C 	0.67580 0.10440 0.49100 0.04000
C 	C 	0.03050 0.12440 0.66400 -0.05300
C 	C 	0.31080 0.74120 0.43620 0.04300
C 	C 	0.53550 0.78580 0.71650 -0.04800
C 	C 	0.96980 0.03550 0.65530 -0.03600
C 	C 	0.35240 0.82890 0.51360 -0.04500
C 	C 	0.48480 0.80050 0.76300 -0.04500
C 	C 	0.84590 0.19350 0.46340 -0.03900
C 	C 	0.72610 0.17910 0.46070 -0.05000
C 	C 	0.37010 0.81550 0.46150 -0.05500
C 	C 	0.41370 0.91090 0.54420 0.36200
C 	C 	0.60280 0.70050 0.70970 -0.05100
C 	C 	0.15600 0.95380 0.65220 0.04700
C 	C 	0.03600 0.94890 0.64940 -0.06300
C 	C 	0.83840 0.03360 0.64790 0.31900
C 	C 	0.64700 0.94220 0.02370 0.03900
C 	C 	0.88300 0.36530 0.25050 0.03800
C 	C 	0.99450 0.26580 0.30330 0.02600
C 	C 	0.34900 0.87650 0.16450 0.04600
C 	C 	0.59140 0.86860 0.99500 -0.05500
C 	C 	0.22090 0.23730 0.03840 -0.04900
C 	C 	0.59270 0.72670 0.93330 0.33500
C 	C 	0.27570 0.31120 0.01090 0.03400
C 	C 	0.97900 0.13720 0.17370 0.36900
C 	C 	0.82420 0.89560 0.99100 0.04000
C 	C 	0.46950 0.87560 0.16400 -0.06400
C 	C 	0.18920 0.25880 0.93620 0.04300
C 	C 	0.96450 0.21420 0.21650 -0.05100
C 	C 	0.53020 0.96450 0.15530 -0.03000
C 	C 	0.14760 0.17110 0.01360 -0.04600
C 	C 	0.01520 0.19950 0.26300 -0.03800
C 	C 	0.65410 0.80650 0.96340 -0.03900
C 	C 	0.77390 0.82090 0.96070 -0.04900
C 	C 	0.12990 0.18450 0.96150 -0.05400
C 	C 	0.08630 0.08910 0.04420 0.36300
C 	C 	0.89720 0.29950 0.20970 -0.04900
C 	C 	0.34400 0.04620 0.15220 0.05100
C 	C 	0.46400 0.05110 0.14940 -0.06400
C 	C 	0.66160 0.96640 0.14790 0.32000
N 	N 	0.43040 0.15050 0.70323 -0.21100
N 	N 	0.76230 0.17810 0.04028 -0.21100
N 	N 	0.26310 0.54510 0.97736 -0.20700
N 	N 	0.78560 0.53990 0.84140 -0.20700
N 	N 	0.06960 0.84950 0.20323 -0.21000
N 	N 	0.73770 0.82190 0.54028 -0.21100
N 	N 	0.23690 0.45490 0.47736 -0.20700
N 	N 	0.71440 0.46010 0.34140 -0.20700
N 	N 	0.56960 0.65050 0.79677 -0.21100
N 	N 	0.23770 0.67810 0.45972 -0.21100
N 	N 	0.73690 0.04510 0.52264 -0.20700
N 	N 	0.21440 0.03990 0.65860 -0.20500
N 	N 	0.93040 0.34950 0.29677 -0.21000
N 	N 	0.26230 0.32190 0.95972 -0.21100
N 	N 	0.76310 0.95490 0.02264 -0.20600
N 	N 	0.28560 0.96010 0.15860 -0.20800
O 	O 	0.42150 0.57200 0.88541 -0.64700
O 	O 	0.98630 0.77970 0.06060 -0.30900
O 	O 	0.21810 0.60960 0.83840 -0.28400
O 	O 	0.20200 0.45710 0.87320 -0.40200
O 	O 	0.55020 0.43170 0.81655 -0.43300
O 	O 	0.48550 0.43390 0.97122 -0.42500
O 	O 	0.15490 0.82930 0.09454 -0.40100
O 	O 	0.42110 0.34910 0.86616 -0.41800
O 	O 	0.64010 0.44670 0.91906 -0.41500
O 	O 	0.07850 0.42800 0.38541 -0.64700
O 	O 	0.51370 0.22030 0.56060 -0.31200
O 	O 	0.28190 0.39040 0.33840 -0.28400
O 	O 	0.29800 0.54290 0.37320 -0.40100
O 	O 	0.94980 0.56830 0.31655 -0.43300
O 	O 	0.01450 0.56610 0.47122 -0.42400
O 	O 	0.34510 0.17070 0.59454 -0.40100
O 	O 	0.07890 0.65090 0.36616 -0.41800
O 	O 	0.85990 0.55330 0.41906 -0.41500
O 	O 	0.57850 0.07200 0.61459 -0.64700
O 	O 	0.01370 0.27970 0.43940 -0.31000
O 	O 	0.78190 0.10960 0.66160 -0.28400
O 	O 	0.79800 0.95710 0.62680 -0.39900
O 	O 	0.44980 0.93170 0.68345 -0.43300
O 	O 	0.51450 0.93390 0.52878 -0.42400
O 	O 	0.84510 0.32930 0.40546 -0.40100
O 	O 	0.57890 0.84910 0.63384 -0.41800
O 	O 	0.35990 0.94670 0.58094 -0.41500
O 	O 	0.92150 0.92800 0.11459 -0.64600
O 	O 	0.48630 0.72030 0.93940 -0.31200
O 	O 	0.71810 0.89040 0.16160 -0.28400
O 	O 	0.70200 0.04290 0.12680 -0.40200
O 	O 	0.05020 0.06830 0.18345 -0.43100
O 	O 	0.98550 0.06610 0.02878 -0.42600
O 	O 	0.65490 0.67070 0.90546 -0.40100
O 	O 	0.92110 0.15090 0.13384 -0.41800
O 	O 	0.14010 0.05330 0.08094 -0.41400
