data_crystal

_cell_length_a 11.46590
_cell_length_b 13.27320
_cell_length_c 26.12010
_cell_angle_alpha 90.00000
_cell_angle_beta  90.00000
_cell_angle_gamma 90.00000

_symmetry_space_group_name_	'P 1'
_symmetry_space_group_name_H-M	'P 1'

loop_
_symmetry_equiv_pos_as_xyz
  x,y,z

loop_
_atom_site_label
_atom_site_type_symbol
_atom_site_fract_x
_atom_site_fract_y
_atom_site_fract_z
_atom_site_charge
Co	Co	0.84879 0.05571 0.92167 1.17500
Co	Co	0.10516 0.95032 0.85991 1.17400
Co	Co	0.65121 0.94429 0.42167 1.17500
Co	Co	0.39484 0.04968 0.35991 1.17600
Co	Co	0.15121 0.55571 0.57833 1.17500
Co	Co	0.89484 0.45032 0.64009 1.17600
Co	Co	0.34879 0.44429 0.07833 1.17600
Co	Co	0.60516 0.54968 0.14009 1.17700
H 	H 	0.92110 0.87000 0.90860 0.23000
H 	H 	0.87580 0.91060 0.85450 0.21700
H 	H 	0.60580 0.98500 0.95540 0.01700
H 	H 	0.23830 0.23080 0.92620 0.06000
H 	H 	0.02580 0.25380 0.66450 0.02300
H 	H 	0.83740 0.42530 0.75510 0.01200
H 	H 	0.32760 0.35840 0.97140 0.01700
H 	H 	0.31360 0.81440 0.83060 0.01700
H 	H 	0.51270 0.86080 0.00300 0.06800
H 	H 	0.06100 0.14130 0.73070 0.06200
H 	H 	0.82490 0.78100 0.06070 0.06600
H 	H 	0.85920 0.31320 0.82240 0.06200
H 	H 	0.17940 0.26460 0.09880 0.01700
H 	H 	0.08150 0.14120 0.05590 0.06300
H 	H 	0.51490 0.81520 0.82970 0.06600
H 	H 	0.90890 0.90480 0.01030 0.02600
H 	H 	0.30340 0.11000 0.84900 0.01900
H 	H 	0.50530 0.11450 0.85410 0.06400
H 	H 	0.57890 0.13000 0.40860 0.23000
H 	H 	0.62420 0.08940 0.35450 0.21600
H 	H 	0.89420 0.01500 0.45540 0.01600
H 	H 	0.26170 0.76920 0.42620 0.06000
H 	H 	0.47420 0.74620 0.16450 0.02000
H 	H 	0.66260 0.57470 0.25510 0.01100
H 	H 	0.17240 0.64160 0.47140 0.01700
H 	H 	0.18640 0.18560 0.33060 0.01900
H 	H 	0.98730 0.13920 0.50300 0.06800
H 	H 	0.43900 0.85870 0.23070 0.06300
H 	H 	0.67510 0.21900 0.56070 0.06600
H 	H 	0.64080 0.68680 0.32240 0.06300
H 	H 	0.32060 0.73540 0.59880 0.01700
H 	H 	0.41850 0.85880 0.55590 0.06300
H 	H 	0.98510 0.18480 0.32970 0.06100
H 	H 	0.59110 0.09520 0.51030 0.02500
H 	H 	0.19660 0.89000 0.34900 0.02000
H 	H 	0.99470 0.88550 0.35410 0.06500
H 	H 	0.07890 0.37000 0.59140 0.23000
H 	H 	0.12420 0.41060 0.64550 0.21700
H 	H 	0.39420 0.48500 0.54460 0.01600
H 	H 	0.76170 0.73080 0.57380 0.06100
H 	H 	0.97420 0.75380 0.83550 0.02400
H 	H 	0.16260 0.92530 0.74490 0.01100
H 	H 	0.67240 0.85840 0.52860 0.01800
H 	H 	0.68640 0.31440 0.66940 0.01700
H 	H 	0.48730 0.36080 0.49700 0.06800
H 	H 	0.93900 0.64130 0.76930 0.06000
H 	H 	0.17510 0.28100 0.43930 0.06700
H 	H 	0.14080 0.81320 0.67760 0.06100
H 	H 	0.82060 0.76460 0.40120 0.01700
H 	H 	0.91850 0.64120 0.44410 0.06300
H 	H 	0.48510 0.31520 0.67030 0.06600
H 	H 	0.09110 0.40480 0.48970 0.02500
H 	H 	0.69660 0.61000 0.65100 0.01900
H 	H 	0.49470 0.61450 0.64590 0.06400
H 	H 	0.42110 0.63000 0.09140 0.23000
H 	H 	0.37580 0.58940 0.14550 0.21700
H 	H 	0.10580 0.51500 0.04460 0.01600
H 	H 	0.73830 0.26920 0.07380 0.06000
H 	H 	0.52580 0.24620 0.33550 0.02000
H 	H 	0.33740 0.07470 0.24490 0.01100
H 	H 	0.82760 0.14160 0.02860 0.01700
H 	H 	0.81360 0.68560 0.16940 0.01800
H 	H 	0.01270 0.63920 0.99700 0.06800
H 	H 	0.56100 0.35870 0.26930 0.06300
H 	H 	0.32490 0.71900 0.93930 0.06600
H 	H 	0.35920 0.18680 0.17760 0.06300
H 	H 	0.67940 0.23540 0.90120 0.01700
H 	H 	0.58150 0.35880 0.94410 0.06200
H 	H 	0.01490 0.68480 0.17030 0.06400
H 	H 	0.40890 0.59520 0.98970 0.02500
H 	H 	0.80340 0.39000 0.15100 0.01900
H 	H 	0.00530 0.38550 0.14590 0.06400
C 	C 	0.65120 0.94180 0.97640 0.03700
C 	C 	0.22480 0.23700 0.96190 -0.05400
C 	C 	0.98030 0.13880 0.82640 0.36400
C 	C 	0.99270 0.26650 0.69720 0.02800
C 	C 	0.88180 0.36580 0.74980 0.04200
C 	C 	0.27910 0.31190 0.98910 0.03600
C 	C 	0.35340 0.87660 0.83490 0.04200
C 	C 	0.59500 0.86810 0.00520 -0.05400
C 	C 	0.53300 0.96490 0.84390 -0.03200
C 	C 	0.01320 0.19870 0.73640 -0.04000
C 	C 	0.65770 0.80640 0.03670 -0.03900
C 	C 	0.96440 0.21470 0.78360 -0.05000
C 	C 	0.77760 0.82110 0.03880 -0.05400
C 	C 	0.59700 0.72590 0.06690 0.34000
C 	C 	0.89570 0.30020 0.79040 -0.05200
C 	C 	0.19180 0.25780 0.06300 0.04800
C 	C 	0.13390 0.18400 0.03790 -0.06100
C 	C 	0.47340 0.87620 0.83530 -0.06100
C 	C 	0.15140 0.17140 0.98610 -0.03700
C 	C 	0.82690 0.89550 0.00850 0.05000
C 	C 	0.09060 0.08840 0.95520 0.35000
C 	C 	0.34650 0.04900 0.84640 0.04700
C 	C 	0.46700 0.05190 0.84890 -0.06000
C 	C 	0.66430 0.96750 0.85160 0.32100
C 	C 	0.84880 0.05820 0.47640 0.03700
C 	C 	0.27520 0.76300 0.46190 -0.05500
C 	C 	0.51970 0.86120 0.32640 0.36500
C 	C 	0.50730 0.73350 0.19720 0.03500
C 	C 	0.61820 0.63420 0.24980 0.04400
C 	C 	0.22090 0.68810 0.48910 0.03600
C 	C 	0.14660 0.12340 0.33490 0.03700
C 	C 	0.90500 0.13190 0.50520 -0.05500
C 	C 	0.96700 0.03510 0.34390 -0.03900
C 	C 	0.48680 0.80130 0.23640 -0.04700
C 	C 	0.84230 0.19360 0.53670 -0.03800
C 	C 	0.53560 0.78530 0.28360 -0.04700
C 	C 	0.72240 0.17890 0.53880 -0.05500
C 	C 	0.90300 0.27410 0.56690 0.33800
C 	C 	0.60430 0.69980 0.29040 -0.05400
C 	C 	0.30820 0.74220 0.56300 0.04900
C 	C 	0.36610 0.81600 0.53790 -0.06200
C 	C 	0.02660 0.12380 0.33530 -0.04900
C 	C 	0.34860 0.82860 0.48610 -0.03600
C 	C 	0.67310 0.10450 0.50850 0.05000
C 	C 	0.40940 0.91160 0.45520 0.34800
C 	C 	0.15350 0.95100 0.34640 0.04300
C 	C 	0.03300 0.94810 0.34890 -0.05900
C 	C 	0.83570 0.03250 0.35160 0.32000
C 	C 	0.34880 0.44180 0.52360 0.03800
C 	C 	0.77520 0.73700 0.53810 -0.05500
C 	C 	0.01970 0.63880 0.67360 0.36600
C 	C 	0.00730 0.76650 0.80280 0.02500
C 	C 	0.11820 0.86580 0.75020 0.04100
C 	C 	0.72090 0.81190 0.51090 0.03700
C 	C 	0.64660 0.37660 0.66510 0.04200
C 	C 	0.40500 0.36810 0.49480 -0.05400
C 	C 	0.46700 0.46490 0.65610 -0.03200
C 	C 	0.98680 0.69870 0.76360 -0.03700
C 	C 	0.34230 0.30640 0.46330 -0.03900
C 	C 	0.03560 0.71470 0.71640 -0.05200
C 	C 	0.22240 0.32110 0.46120 -0.05500
C 	C 	0.40300 0.22590 0.43310 0.34000
C 	C 	0.10430 0.80020 0.70960 -0.05100
C 	C 	0.80820 0.75780 0.43700 0.04900
C 	C 	0.86610 0.68400 0.46210 -0.06200
C 	C 	0.52660 0.37620 0.66470 -0.06100
C 	C 	0.84860 0.67140 0.51390 -0.03600
C 	C 	0.17310 0.39550 0.49150 0.05000
C 	C 	0.90940 0.58840 0.54480 0.34800
C 	C 	0.65350 0.54900 0.65360 0.04500
C 	C 	0.53300 0.55190 0.65110 -0.06000
C 	C 	0.33570 0.46750 0.64840 0.32000
C 	C 	0.15120 0.55820 0.02360 0.03900
C 	C 	0.72480 0.26300 0.03810 -0.05400
C 	C 	0.48030 0.36120 0.17360 0.36500
C 	C 	0.49270 0.23350 0.30280 0.03400
C 	C 	0.38180 0.13420 0.25020 0.04300
C 	C 	0.77910 0.18810 0.01090 0.03500
C 	C 	0.85340 0.62340 0.16510 0.04100
C 	C 	0.09500 0.63190 0.99480 -0.05600
C 	C 	0.03300 0.53510 0.15610 -0.03300
C 	C 	0.51320 0.30130 0.26360 -0.04700
C 	C 	0.15770 0.69360 0.96330 -0.03800
C 	C 	0.46440 0.28530 0.21640 -0.04700
C 	C 	0.27760 0.67890 0.96120 -0.05600
C 	C 	0.09700 0.77410 0.93310 0.33600
C 	C 	0.39570 0.19980 0.20960 -0.05400
C 	C 	0.69180 0.24220 0.93700 0.04800
C 	C 	0.63390 0.31600 0.96210 -0.06100
C 	C 	0.97340 0.62380 0.16470 -0.05800
C 	C 	0.65140 0.32860 0.01390 -0.03700
C 	C 	0.32690 0.60450 0.99150 0.05000
C 	C 	0.59060 0.41160 0.04480 0.34900
C 	C 	0.84650 0.45100 0.15360 0.04500
C 	C 	0.96700 0.44810 0.15110 -0.06000
C 	C 	0.16430 0.53250 0.14840 0.32100
N 	N 	0.26550 0.32150 0.04020 -0.21200
N 	N 	0.92740 0.34980 0.70370 -0.21100
N 	N 	0.76770 0.95390 0.97740 -0.20900
N 	N 	0.28940 0.96130 0.84050 -0.20500
N 	N 	0.23450 0.67850 0.54020 -0.21200
N 	N 	0.57260 0.65020 0.20370 -0.21200
N 	N 	0.73230 0.04610 0.47740 -0.21000
N 	N 	0.21060 0.03870 0.34050 -0.20200
N 	N 	0.73450 0.82150 0.45980 -0.21200
N 	N 	0.07260 0.84980 0.79630 -0.21100
N 	N 	0.23230 0.45390 0.52260 -0.20900
N 	N 	0.71060 0.46130 0.65950 -0.20400
N 	N 	0.76550 0.17850 0.95980 -0.21200
N 	N 	0.42740 0.15020 0.29630 -0.21200
N 	N 	0.26770 0.54610 0.02260 -0.20900
N 	N 	0.78940 0.53870 0.15950 -0.20300
O 	O 	0.92380 0.92800 0.88479 -0.64600
O 	O 	0.72210 0.89140 0.83820 -0.28500
O 	O 	0.49020 0.72050 0.06130 -0.31300
O 	O 	0.70430 0.04380 0.87290 -0.40200
O 	O 	0.05220 0.06850 0.81640 -0.42600
O 	O 	0.92400 0.15130 0.86640 -0.41800
O 	O 	0.98850 0.06580 0.97060 -0.42100
O 	O 	0.65840 0.67110 0.09500 -0.40400
O 	O 	0.14450 0.05230 0.91832 -0.41100
O 	O 	0.57620 0.07200 0.38479 -0.64700
O 	O 	0.77790 0.10860 0.33820 -0.28500
O 	O 	0.00980 0.27950 0.56130 -0.31100
O 	O 	0.79570 0.95620 0.37290 -0.39900
O 	O 	0.44780 0.93150 0.31640 -0.42800
O 	O 	0.57600 0.84870 0.36640 -0.41800
O 	O 	0.51150 0.93420 0.47060 -0.41900
O 	O 	0.84160 0.32890 0.59500 -0.40300
O 	O 	0.35550 0.94770 0.41832 -0.41200
O 	O 	0.07620 0.42800 0.61521 -0.64700
O 	O 	0.27790 0.39140 0.66180 -0.28400
O 	O 	0.50980 0.22050 0.43870 -0.31300
O 	O 	0.29570 0.54380 0.62710 -0.40100
O 	O 	0.94780 0.56850 0.68360 -0.42800
O 	O 	0.07600 0.65130 0.63360 -0.41800
O 	O 	0.01150 0.56580 0.52940 -0.41900
O 	O 	0.34160 0.17110 0.40500 -0.40400
O 	O 	0.85550 0.55230 0.58168 -0.41100
O 	O 	0.42380 0.57200 0.11521 -0.64700
O 	O 	0.22210 0.60860 0.16180 -0.28500
O 	O 	0.99020 0.77950 0.93870 -0.31000
O 	O 	0.20430 0.45620 0.12710 -0.40100
O 	O 	0.55220 0.43150 0.18360 -0.42800
O 	O 	0.42400 0.34870 0.13360 -0.41800
O 	O 	0.48850 0.43420 0.02940 -0.42000
O 	O 	0.15840 0.82890 0.90500 -0.40400
O 	O 	0.64450 0.44770 0.08168 -0.41200
