data_crystal

_cell_length_a 20.31790
_cell_length_b 20.31790
_cell_length_c 20.31790
_cell_angle_alpha 109.47120
_cell_angle_beta  109.47120
_cell_angle_gamma 109.47120

_symmetry_space_group_name_	'P 1'
_symmetry_space_group_name_H-M	'P 1'

loop_
_symmetry_equiv_pos_as_xyz
  x,y,z

loop_
_atom_site_label
_atom_site_type_symbol
_atom_site_fract_x
_atom_site_fract_y
_atom_site_fract_z
_atom_site_charge
Zn	Zn	0.52079 0.05620 0.94613 1.22200
H 	H 	0.78980 0.27580 0.24540 0.03300
H 	H 	0.74740 0.25830 0.03230 0.04400
H 	H 	0.93510 0.45890 0.23760 0.03300
C 	C 	0.80402 0.29839 0.21583 0.09200
C 	C 	0.75741 0.25489 0.13194 -0.14000
C 	C 	0.77809 0.28754 0.08829 0.07900
C 	C 	0.84471 0.36434 0.12635 -0.13200
C 	C 	0.89078 0.40750 0.21124 0.08100
C 	C 	0.87065 0.37403 0.25602 -0.15600
C 	C 	0.68127 0.17488 0.09151 0.41200
C 	C 	0.92014 0.42114 0.34508 0.42400
C 	C 	0.86460 0.40120 0.07740 0.37800
O 	O 	0.63616 0.14366 0.01804 -0.46500
O 	O 	0.67116 0.14507 0.13509 -0.48100
O 	O 	0.97936 0.48877 0.37721 -0.48300
O 	O 	0.89602 0.38737 0.38107 -0.48900
O 	O 	0.92421 0.47168 0.11759 -0.47500
O 	O 	0.82646 0.36352 0.00504 -0.32300
Zn	Zn	0.11007 0.57466 0.05387 1.23000
H 	H 	0.03040 0.54440 0.75460 0.03600
H 	H 	0.22600 0.71510 0.96770 0.02800
H 	H 	0.22130 0.69750 0.76240 0.03400
C 	C 	0.08256 0.58819 0.78417 0.09200
C 	C 	0.12295 0.62547 0.86806 -0.14900
C 	C 	0.19925 0.68980 0.91171 0.08300
C 	C 	0.23799 0.71836 0.87365 -0.14100
C 	C 	0.19626 0.67954 0.78876 0.08200
C 	C 	0.11801 0.61463 0.74398 -0.15300
C 	C 	0.08337 0.58976 0.90849 0.41500
C 	C 	0.07606 0.57506 0.65492 0.42200
C 	C 	0.32380 0.78720 0.92260 0.38100
O 	O 	0.12562 0.61812 0.98196 -0.49700
O 	O 	0.00998 0.53607 0.86491 -0.48000
O 	O 	0.11156 0.60215 0.62279 -0.46600
O 	O 	0.00630 0.51495 0.61893 -0.46900
O 	O 	0.35409 0.80662 0.88241 -0.48000
O 	O 	0.35848 0.82142 0.99496 -0.35300
Zn	Zn	0.88993 0.94380 0.46459 1.21200
H 	H 	0.96960 0.72420 0.51400 0.02200
H 	H 	0.77400 0.74170 0.48910 0.03000
H 	H 	0.77870 0.54110 0.47620 0.03300
C 	C 	0.91744 0.70161 0.50563 0.09700
C 	C 	0.87705 0.74511 0.50252 -0.15800
C 	C 	0.80075 0.71246 0.49055 0.08600
C 	C 	0.76201 0.63566 0.48037 -0.14100
C 	C 	0.80374 0.59250 0.48328 0.08500
C 	C 	0.88199 0.62597 0.49662 -0.16400
C 	C 	0.91663 0.82512 0.50639 0.41800
C 	C 	0.92394 0.57886 0.49900 0.42600
C 	C 	0.67620 0.59880 0.46340 0.38000
O 	O 	0.87438 0.85634 0.49250 -0.49800
O 	O 	0.99002 0.85493 0.52609 -0.51200
O 	O 	0.88844 0.51123 0.49059 -0.47800
O 	O 	0.99370 0.61263 0.50865 -0.49800
O 	O 	0.64591 0.52832 0.45253 -0.47100
O 	O 	0.64152 0.63648 0.46294 -0.33600
Zn	Zn	0.47921 0.42534 0.53541 1.22400
H 	H 	0.21020 0.45560 0.48600 0.03400
H 	H 	0.25260 0.28490 0.51090 0.03900
H 	H 	0.06490 0.30250 0.52380 0.04300
C 	C 	0.19598 0.41181 0.49437 0.08900
C 	C 	0.24259 0.37453 0.49748 -0.14100
C 	C 	0.22191 0.31020 0.50945 0.07700
C 	C 	0.15529 0.28164 0.51963 -0.12600
C 	C 	0.10922 0.32046 0.51672 0.07700
C 	C 	0.12935 0.38537 0.50338 -0.14700
C 	C 	0.31873 0.41024 0.49361 0.41400
C 	C 	0.07986 0.42494 0.50100 0.42100
C 	C 	0.13540 0.21280 0.53660 0.37600
O 	O 	0.36384 0.38188 0.50750 -0.48200
O 	O 	0.32884 0.46393 0.47391 -0.48600
O 	O 	0.02064 0.39785 0.50941 -0.45700
O 	O 	0.10398 0.48505 0.49135 -0.47500
O 	O 	0.07579 0.19338 0.54747 -0.45800
O 	O 	0.17354 0.17858 0.53706 -0.32500
Zn	Zn	0.94613 0.52079 0.05620 1.22100
H 	H 	0.24540 0.78980 0.27580 0.03200
H 	H 	0.03230 0.74740 0.25830 0.04300
H 	H 	0.23760 0.93510 0.45890 0.03200
C 	C 	0.21583 0.80402 0.29839 0.09100
C 	C 	0.13194 0.75741 0.25489 -0.14100
C 	C 	0.08829 0.77809 0.28754 0.07900
C 	C 	0.12635 0.84471 0.36434 -0.13200
C 	C 	0.21124 0.89078 0.40750 0.08100
C 	C 	0.25602 0.87065 0.37403 -0.15600
C 	C 	0.09151 0.68127 0.17488 0.41200
C 	C 	0.34508 0.92014 0.42114 0.42400
C 	C 	0.07740 0.86460 0.40120 0.37800
O 	O 	0.01804 0.63616 0.14366 -0.46500
O 	O 	0.13509 0.67116 0.14507 -0.48100
O 	O 	0.37721 0.97936 0.48877 -0.48300
O 	O 	0.38107 0.89602 0.38737 -0.48900
O 	O 	0.11759 0.92421 0.47168 -0.47500
O 	O 	0.00504 0.82646 0.36352 -0.32300
Zn	Zn	0.05387 0.11007 0.57466 1.23000
H 	H 	0.75460 0.03040 0.54440 0.03600
H 	H 	0.96770 0.22600 0.71510 0.02800
H 	H 	0.76240 0.22130 0.69750 0.03400
C 	C 	0.78417 0.08256 0.58819 0.09200
C 	C 	0.86806 0.12295 0.62547 -0.14900
C 	C 	0.91171 0.19925 0.68980 0.08300
C 	C 	0.87365 0.23799 0.71836 -0.14100
C 	C 	0.78876 0.19626 0.67954 0.08200
C 	C 	0.74398 0.11801 0.61463 -0.15300
C 	C 	0.90849 0.08337 0.58976 0.41500
C 	C 	0.65492 0.07606 0.57506 0.42200
C 	C 	0.92260 0.32380 0.78720 0.38100
O 	O 	0.98196 0.12562 0.61812 -0.49700
O 	O 	0.86491 0.00998 0.53607 -0.48000
O 	O 	0.62279 0.11156 0.60215 -0.46600
O 	O 	0.61893 0.00630 0.51495 -0.46900
O 	O 	0.88241 0.35409 0.80662 -0.48000
O 	O 	0.99496 0.35848 0.82142 -0.35300
Zn	Zn	0.46459 0.88993 0.94380 1.21200
H 	H 	0.51400 0.96960 0.72420 0.02200
H 	H 	0.48910 0.77400 0.74170 0.03000
H 	H 	0.47620 0.77870 0.54110 0.03300
C 	C 	0.50563 0.91744 0.70161 0.09700
C 	C 	0.50252 0.87705 0.74511 -0.15800
C 	C 	0.49055 0.80075 0.71246 0.08600
C 	C 	0.48037 0.76201 0.63566 -0.14100
C 	C 	0.48328 0.80374 0.59250 0.08500
C 	C 	0.49662 0.88199 0.62597 -0.16400
C 	C 	0.50639 0.91663 0.82512 0.41800
C 	C 	0.49900 0.92394 0.57886 0.42600
C 	C 	0.46340 0.67620 0.59880 0.38000
O 	O 	0.49250 0.87438 0.85634 -0.49800
O 	O 	0.52609 0.99002 0.85493 -0.51200
O 	O 	0.49059 0.88844 0.51123 -0.47800
O 	O 	0.50865 0.99370 0.61263 -0.49800
O 	O 	0.45253 0.64591 0.52832 -0.47100
O 	O 	0.46294 0.64152 0.63648 -0.33600
Zn	Zn	0.53541 0.47921 0.42534 1.22400
H 	H 	0.48600 0.21020 0.45560 0.03400
H 	H 	0.51090 0.25260 0.28490 0.03900
H 	H 	0.52380 0.06490 0.30250 0.04300
C 	C 	0.49437 0.19598 0.41181 0.08900
C 	C 	0.49748 0.24259 0.37453 -0.14100
C 	C 	0.50945 0.22191 0.31020 0.07700
C 	C 	0.51963 0.15529 0.28164 -0.12600
C 	C 	0.51672 0.10922 0.32046 0.07700
C 	C 	0.50338 0.12935 0.38537 -0.14700
C 	C 	0.49361 0.31873 0.41024 0.41400
C 	C 	0.50100 0.07986 0.42494 0.42100
C 	C 	0.53660 0.13540 0.21280 0.37600
O 	O 	0.50750 0.36384 0.38188 -0.48200
O 	O 	0.47391 0.32884 0.46393 -0.48600
O 	O 	0.50941 0.02064 0.39785 -0.45700
O 	O 	0.49135 0.10398 0.48505 -0.47500
O 	O 	0.54747 0.07579 0.19338 -0.45800
O 	O 	0.53706 0.17354 0.17858 -0.32500
Zn	Zn	0.05620 0.94613 0.52079 1.22100
H 	H 	0.27580 0.24540 0.78980 0.03200
H 	H 	0.25830 0.03230 0.74740 0.04300
H 	H 	0.45890 0.23760 0.93510 0.03200
C 	C 	0.29839 0.21583 0.80402 0.09100
C 	C 	0.25489 0.13194 0.75741 -0.14100
C 	C 	0.28754 0.08829 0.77809 0.07900
C 	C 	0.36434 0.12635 0.84471 -0.13200
C 	C 	0.40750 0.21124 0.89078 0.08100
C 	C 	0.37403 0.25602 0.87065 -0.15600
C 	C 	0.17488 0.09151 0.68127 0.41200
C 	C 	0.42114 0.34508 0.92014 0.42400
C 	C 	0.40120 0.07740 0.86460 0.37800
O 	O 	0.14366 0.01804 0.63616 -0.46500
O 	O 	0.14507 0.13509 0.67116 -0.48100
O 	O 	0.48877 0.37721 0.97936 -0.48300
O 	O 	0.38737 0.38107 0.89602 -0.48900
O 	O 	0.47168 0.11759 0.92421 -0.47500
O 	O 	0.36352 0.00504 0.82646 -0.32300
Zn	Zn	0.57466 0.05387 0.11007 1.23000
H 	H 	0.54440 0.75460 0.03040 0.03600
H 	H 	0.71510 0.96770 0.22600 0.02800
H 	H 	0.69750 0.76240 0.22130 0.03400
C 	C 	0.58819 0.78417 0.08256 0.09200
C 	C 	0.62547 0.86806 0.12295 -0.14900
C 	C 	0.68980 0.91171 0.19925 0.08300
C 	C 	0.71836 0.87365 0.23799 -0.14100
C 	C 	0.67954 0.78876 0.19626 0.08200
C 	C 	0.61463 0.74398 0.11801 -0.15300
C 	C 	0.58976 0.90849 0.08337 0.41500
C 	C 	0.57506 0.65492 0.07606 0.42200
C 	C 	0.78720 0.92260 0.32380 0.38100
O 	O 	0.61812 0.98196 0.12562 -0.49700
O 	O 	0.53607 0.86491 0.00998 -0.48000
O 	O 	0.60215 0.62279 0.11156 -0.46600
O 	O 	0.51495 0.61893 0.00630 -0.46900
O 	O 	0.80662 0.88241 0.35409 -0.48000
O 	O 	0.82142 0.99496 0.35848 -0.35300
Zn	Zn	0.94380 0.46459 0.88993 1.21200
H 	H 	0.72420 0.51400 0.96960 0.02200
H 	H 	0.74170 0.48910 0.77400 0.03000
H 	H 	0.54110 0.47620 0.77870 0.03300
C 	C 	0.70161 0.50563 0.91744 0.09700
C 	C 	0.74511 0.50252 0.87705 -0.15800
C 	C 	0.71246 0.49055 0.80075 0.08600
C 	C 	0.63566 0.48037 0.76201 -0.14100
C 	C 	0.59250 0.48328 0.80374 0.08500
C 	C 	0.62597 0.49662 0.88199 -0.16400
C 	C 	0.82512 0.50639 0.91663 0.41800
C 	C 	0.57886 0.49900 0.92394 0.42600
C 	C 	0.59880 0.46340 0.67620 0.38000
O 	O 	0.85634 0.49250 0.87438 -0.49800
O 	O 	0.85493 0.52609 0.99002 -0.51200
O 	O 	0.51123 0.49059 0.88844 -0.47800
O 	O 	0.61263 0.50865 0.99370 -0.49800
O 	O 	0.52832 0.45253 0.64591 -0.47100
O 	O 	0.63648 0.46294 0.64152 -0.33600
Zn	Zn	0.42534 0.53541 0.47921 1.22400
H 	H 	0.45560 0.48600 0.21020 0.03400
H 	H 	0.28490 0.51090 0.25260 0.03900
H 	H 	0.30250 0.52380 0.06490 0.04300
C 	C 	0.41181 0.49437 0.19598 0.08900
C 	C 	0.37453 0.49748 0.24259 -0.14100
C 	C 	0.31020 0.50945 0.22191 0.07700
C 	C 	0.28164 0.51963 0.15529 -0.12600
C 	C 	0.32046 0.51672 0.10922 0.07700
C 	C 	0.38537 0.50338 0.12935 -0.14700
C 	C 	0.41024 0.49361 0.31873 0.41400
C 	C 	0.42494 0.50100 0.07986 0.42100
C 	C 	0.21280 0.53660 0.13540 0.37600
O 	O 	0.38188 0.50750 0.36384 -0.48200
O 	O 	0.46393 0.47391 0.32884 -0.48600
O 	O 	0.39785 0.50941 0.02064 -0.45700
O 	O 	0.48505 0.49135 0.10398 -0.47500
O 	O 	0.19338 0.54747 0.07579 -0.45800
O 	O 	0.17858 0.53706 0.17354 -0.32500
H 	H 	0.44088 0.00000 -0.00000 0.19200
O 	O 	0.48908 0.00000 -0.00000 -0.85000
H 	H 	-0.00000 0.44088 -0.00000 0.19200
O 	O 	0.00000 0.48908 -0.00000 -0.85000
H 	H 	-0.00000 0.00000 0.44088 0.19200
O 	O 	-0.00000 -0.00000 0.48908 -0.85000
H 	H 	0.55912 0.55912 0.55912 0.17700
O 	O 	0.51092 0.51092 0.51092 -0.87600
Zn	Zn	0.93658 0.43658 0.50000 1.19000
Zn	Zn	0.06342 0.56342 0.50000 1.20600
Zn	Zn	0.50000 0.93658 0.43658 1.19000
Zn	Zn	0.50000 0.06342 0.56342 1.20600
Zn	Zn	0.43658 0.50000 0.93658 1.19000
Zn	Zn	0.56342 0.50000 0.06342 1.20600
