data_crystal

_cell_length_a 15.78910
_cell_length_b 8.43060
_cell_length_c 16.13580
_cell_angle_alpha 90.00000
_cell_angle_beta  112.35700
_cell_angle_gamma 90.00000

_symmetry_space_group_name_	'P 1'
_symmetry_space_group_name_H-M	'P 1'

loop_
_symmetry_equiv_pos_as_xyz
  x,y,z

loop_
_atom_site_label
_atom_site_type_symbol
_atom_site_fract_x
_atom_site_fract_y
_atom_site_fract_z
_atom_site_charge
Zn	Zn	0.63644 0.63754 0.52447 1.23700
P 	P 	0.52040 0.37261 0.40048 0.44700
O 	O 	0.60770 0.42200 0.47620 -0.43700
O 	O 	0.45570 0.28660 0.43250 -0.42600
O 	O 	0.47480 0.51100 0.34060 -0.48000
H 	H 	0.54800 0.26200 0.35300 -0.02700
P 	P 	0.65252 0.86260 0.36492 0.47300
H 	H 	0.61400 0.00100 0.34400 -0.03100
O 	O 	0.74930 0.90020 0.37610 -0.42600
O 	O 	0.63970 0.80880 0.44810 -0.48900
O 	O 	0.61020 0.75290 0.28630 -0.44600
Zn	Zn	0.13644 0.13754 0.52447 1.23200
P 	P 	0.02040 0.87261 0.40048 0.31100
O 	O 	0.10770 0.92200 0.47620 -0.43600
O 	O 	0.95570 0.78660 0.43250 -0.34500
O 	O 	0.97480 0.01100 0.34060 -0.38600
H 	H 	0.04800 0.76200 0.35300 -0.03600
P 	P 	0.15252 0.36260 0.36492 0.47100
H 	H 	0.11400 0.50100 0.34400 -0.04800
O 	O 	0.24930 0.40020 0.37610 -0.43300
O 	O 	0.13970 0.30880 0.44810 -0.50400
O 	O 	0.11020 0.25290 0.28630 -0.46600
Zn	Zn	0.36356 0.63754 0.97553 1.23300
P 	P 	0.47960 0.37261 0.09952 0.44600
O 	O 	0.39230 0.42200 0.02380 -0.43600
O 	O 	0.54430 0.28660 0.06750 -0.42200
O 	O 	0.52520 0.51100 0.15940 -0.47800
H 	H 	0.45200 0.26200 0.14700 -0.02800
P 	P 	0.34748 0.86260 0.13508 0.47300
H 	H 	0.38600 0.00100 0.15600 -0.03200
O 	O 	0.25070 0.90020 0.12390 -0.43300
O 	O 	0.36030 0.80880 0.05190 -0.48800
O 	O 	0.38980 0.75290 0.21370 -0.44900
Zn	Zn	0.86356 0.13754 0.97553 1.23700
P 	P 	0.97960 0.87261 0.09952 0.58000
O 	O 	0.89230 0.92200 0.02380 -0.43700
O 	O 	0.04430 0.78660 0.06750 -0.50300
O 	O 	0.02520 0.01100 0.15940 -0.55900
H 	H 	0.95200 0.76200 0.14700 -0.01800
P 	P 	0.84748 0.36260 0.13508 0.47600
H 	H 	0.88600 0.50100 0.15600 -0.01600
O 	O 	0.75070 0.40020 0.12390 -0.42600
O 	O 	0.86030 0.30880 0.05190 -0.47000
O 	O 	0.88980 0.25290 0.21370 -0.41600
Zn	Zn	0.36356 0.36246 0.47553 1.23500
P 	P 	0.47960 0.62739 0.59952 0.44600
O 	O 	0.39230 0.57800 0.52380 -0.44000
O 	O 	0.54430 0.71340 0.56750 -0.42500
O 	O 	0.52520 0.48900 0.65940 -0.47900
H 	H 	0.45200 0.73800 0.64700 -0.02800
P 	P 	0.34748 0.13740 0.63508 0.47300
H 	H 	0.38600 0.99900 0.65600 -0.03300
O 	O 	0.25070 0.09980 0.62390 -0.43500
O 	O 	0.36030 0.19120 0.55190 -0.49100
O 	O 	0.38980 0.24710 0.71370 -0.44900
Zn	Zn	0.86356 0.86246 0.47553 1.23900
P 	P 	0.97960 0.12739 0.59952 0.58000
O 	O 	0.89230 0.07800 0.52380 -0.44000
O 	O 	0.04430 0.21340 0.56750 -0.50500
O 	O 	0.02520 0.98900 0.65940 -0.56000
H 	H 	0.95200 0.23800 0.64700 -0.01800
P 	P 	0.84748 0.63740 0.63508 0.47600
H 	H 	0.88600 0.49900 0.65600 -0.01700
O 	O 	0.75070 0.59980 0.62390 -0.42800
O 	O 	0.86030 0.69120 0.55190 -0.47400
O 	O 	0.88980 0.74710 0.71370 -0.41800
Zn	Zn	0.63644 0.36246 0.02447 1.23800
P 	P 	0.52040 0.62739 0.90048 0.44600
O 	O 	0.60770 0.57800 0.97620 -0.44100
O 	O 	0.45570 0.71340 0.93250 -0.42800
O 	O 	0.47480 0.48900 0.84060 -0.48100
H 	H 	0.54800 0.73800 0.85300 -0.02800
P 	P 	0.65252 0.13740 0.86492 0.47300
H 	H 	0.61400 0.99900 0.84400 -0.03200
O 	O 	0.74930 0.09980 0.87610 -0.42800
O 	O 	0.63970 0.19120 0.94810 -0.49300
O 	O 	0.61020 0.24710 0.78630 -0.44600
Zn	Zn	0.13644 0.86246 0.02447 1.23400
P 	P 	0.02040 0.12739 0.90048 0.31300
O 	O 	0.10770 0.07800 0.97620 -0.44000
O 	O 	0.95570 0.21340 0.93250 -0.34900
O 	O 	0.97480 0.98900 0.84060 -0.38800
H 	H 	0.04800 0.23800 0.85300 -0.03600
P 	P 	0.15252 0.63740 0.86492 0.47100
H 	H 	0.11400 0.49900 0.84400 -0.04800
O 	O 	0.24930 0.59980 0.87610 -0.43400
O 	O 	0.13970 0.69120 0.94810 -0.50600
O 	O 	0.11020 0.74710 0.78630 -0.46600
Zn	Zn	0.50000 0.62722 0.25000 1.23200
Zn	Zn	0.00000 0.12722 0.25000 1.20300
Zn	Zn	0.50000 0.37278 0.75000 1.23200
Zn	Zn	0.00000 0.87278 0.75000 1.20400
