data_crystal

_cell_length_a 15.78300
_cell_length_b 8.37800
_cell_length_c 15.95500
_cell_angle_alpha 90.00000
_cell_angle_beta  111.50000
_cell_angle_gamma 90.00000

_symmetry_space_group_name_	'P 1'
_symmetry_space_group_name_H-M	'P 1'

loop_
_symmetry_equiv_pos_as_xyz
  x,y,z

loop_
_atom_site_label
_atom_site_type_symbol
_atom_site_fract_x
_atom_site_fract_y
_atom_site_fract_z
_atom_site_charge
Zn	Zn	0.36328 0.63895 0.47452 1.23300
P 	P 	0.15472 0.63362 0.36453 0.45800
P 	P 	0.02115 0.12698 0.40041 0.30400
O 	O 	0.25108 0.59570 0.37340 -0.42500
O 	O 	0.14390 0.68590 0.45038 -0.49700
O 	O 	0.11171 0.74720 0.28635 -0.46100
O 	O 	0.95761 0.21800 0.43400 -0.34100
O 	O 	0.97507 0.98540 0.34229 -0.38500
O 	O 	0.10937 0.07830 0.47654 -0.42900
H 	H 	0.11040 0.49800 0.34160 -0.04500
H 	H 	0.04810 0.22500 0.35260 -0.04400
Zn	Zn	0.86328 0.13895 0.47452 1.23700
P 	P 	0.65472 0.13362 0.36453 0.46100
P 	P 	0.52115 0.62698 0.40041 0.44100
O 	O 	0.75108 0.09570 0.37340 -0.41900
O 	O 	0.64390 0.18590 0.45038 -0.48300
O 	O 	0.61171 0.24720 0.28635 -0.44200
O 	O 	0.45761 0.71800 0.43400 -0.42300
O 	O 	0.47507 0.48540 0.34229 -0.47900
O 	O 	0.60937 0.57830 0.47654 -0.43000
H 	H 	0.61040 0.99800 0.34160 -0.02800
H 	H 	0.54810 0.72500 0.35260 -0.03900
Zn	Zn	0.63672 0.63895 0.02548 1.23600
P 	P 	0.84528 0.63362 0.13547 0.46300
P 	P 	0.97885 0.12698 0.09959 0.57500
O 	O 	0.74892 0.59570 0.12660 -0.41800
O 	O 	0.85610 0.68590 0.04962 -0.46400
O 	O 	0.88829 0.74720 0.21365 -0.41300
O 	O 	0.04239 0.21800 0.06600 -0.50000
O 	O 	0.02493 0.98540 0.15771 -0.55800
O 	O 	0.89063 0.07830 0.02346 -0.42900
H 	H 	0.88960 0.49800 0.15840 -0.01100
H 	H 	0.95190 0.22500 0.14740 -0.03300
Zn	Zn	0.13672 0.13895 0.02548 1.23200
P 	P 	0.34528 0.13362 0.13547 0.46000
P 	P 	0.47885 0.62698 0.09959 0.44100
O 	O 	0.24892 0.09570 0.12660 -0.42600
O 	O 	0.35610 0.18590 0.04962 -0.48100
O 	O 	0.38829 0.24720 0.21365 -0.44500
O 	O 	0.54239 0.71800 0.06600 -0.41900
O 	O 	0.52493 0.48540 0.15771 -0.47700
O 	O 	0.39063 0.57830 0.02346 -0.42900
H 	H 	0.38960 0.99800 0.15840 -0.02900
H 	H 	0.45190 0.72500 0.14740 -0.03900
Zn	Zn	0.63672 0.36105 0.52548 1.23400
P 	P 	0.84528 0.36638 0.63547 0.46300
P 	P 	0.97885 0.87302 0.59959 0.57600
O 	O 	0.74892 0.40430 0.62660 -0.42000
O 	O 	0.85610 0.31410 0.54962 -0.46900
O 	O 	0.88829 0.25280 0.71365 -0.41400
O 	O 	0.04239 0.78200 0.56600 -0.50200
O 	O 	0.02493 0.01460 0.65771 -0.56000
O 	O 	0.89063 0.92170 0.52346 -0.43200
H 	H 	0.88960 0.50200 0.65840 -0.01200
H 	H 	0.95190 0.77500 0.64740 -0.03400
Zn	Zn	0.13672 0.86105 0.52548 1.23000
P 	P 	0.34528 0.86638 0.63547 0.46100
P 	P 	0.47885 0.37302 0.59959 0.44100
O 	O 	0.24892 0.90430 0.62660 -0.42700
O 	O 	0.35610 0.81410 0.54962 -0.48500
O 	O 	0.38829 0.75280 0.71365 -0.44500
O 	O 	0.54239 0.28200 0.56600 -0.42200
O 	O 	0.52493 0.51460 0.65771 -0.47800
O 	O 	0.39063 0.42170 0.52346 -0.43300
H 	H 	0.38960 0.00200 0.65840 -0.03000
H 	H 	0.45190 0.27500 0.64740 -0.04000
Zn	Zn	0.36328 0.36105 0.97452 1.23100
P 	P 	0.15472 0.36638 0.86453 0.45800
P 	P 	0.02115 0.87302 0.90041 0.30700
O 	O 	0.25108 0.40430 0.87340 -0.42700
O 	O 	0.14390 0.31410 0.95038 -0.49900
O 	O 	0.11171 0.25280 0.78635 -0.46200
O 	O 	0.95761 0.78200 0.93400 -0.34600
O 	O 	0.97507 0.01460 0.84229 -0.38700
O 	O 	0.10937 0.92170 0.97654 -0.43300
H 	H 	0.11040 0.50200 0.84160 -0.04600
H 	H 	0.04810 0.77500 0.85260 -0.04400
Zn	Zn	0.86328 0.86105 0.97452 1.23500
P 	P 	0.65472 0.86638 0.86453 0.46000
P 	P 	0.52115 0.37302 0.90041 0.44100
O 	O 	0.75108 0.90430 0.87340 -0.42100
O 	O 	0.64390 0.81410 0.95038 -0.48700
O 	O 	0.61171 0.75280 0.78635 -0.44300
O 	O 	0.45761 0.28200 0.93400 -0.42500
O 	O 	0.47507 0.51460 0.84229 -0.48000
O 	O 	0.60937 0.42170 0.97654 -0.43300
H 	H 	0.61040 0.00200 0.84160 -0.02900
H 	H 	0.54810 0.27500 0.85260 -0.03900
Zn	Zn	0.00000 0.86908 0.25000 1.20200
Zn	Zn	0.50000 0.36908 0.25000 1.23100
Zn	Zn	0.00000 0.13092 0.75000 1.20300
Zn	Zn	0.50000 0.63092 0.75000 1.23100
