data_crystal

_cell_length_a 16.47300
_cell_length_b 17.06800
_cell_length_c 17.38400
_cell_angle_alpha 77.35000
_cell_angle_beta  62.91000
_cell_angle_gamma 62.40000

_symmetry_space_group_name_	'P 1'
_symmetry_space_group_name_H-M	'P 1'

loop_
_symmetry_equiv_pos_as_xyz
  x,y,z

loop_
_atom_site_label
_atom_site_type_symbol
_atom_site_fract_x
_atom_site_fract_y
_atom_site_fract_z
_atom_site_charge
Sm	Sm	0.95948 0.80676 0.04268 1.60900
Sm	Sm	0.01736 0.02417 0.67806 1.51100
Sm	Sm	0.68391 0.31549 0.55462 1.64200
Sm	Sm	0.22368 0.48160 0.80207 1.64500
Sm	Sm	0.04052 0.19324 0.95732 1.60800
Sm	Sm	0.98264 0.97583 0.32194 1.51000
Sm	Sm	0.31609 0.68451 0.44538 1.64200
Sm	Sm	0.77632 0.51840 0.19793 1.64500
H 	H 	0.23400 0.37040 0.90420 0.15600
H 	H 	0.30320 0.40590 0.86470 0.04400
H 	H 	0.04110 0.34700 0.70360 0.01700
H 	H 	0.23790 0.72110 0.16750 0.02400
H 	H 	0.64390 0.04080 0.49210 0.01000
H 	H 	0.35800 0.58590 0.09470 0.03600
H 	H 	0.32220 0.53790 0.00030 0.03000
H 	H 	0.38540 0.20640 0.66860 0.02100
H 	H 	0.47810 0.07370 0.59270 0.03600
H 	H 	0.15610 0.50320 0.51790 0.01000
H 	H 	0.57720 0.09190 0.94640 0.04600
H 	H 	0.61030 0.16140 0.80680 0.02800
H 	H 	0.72010 0.97990 0.97250 -0.00400
H 	H 	0.06150 0.41500 0.57010 0.03800
H 	H 	0.76600 0.62960 0.09580 0.15600
H 	H 	0.69680 0.59410 0.13530 0.04400
H 	H 	0.95890 0.65300 0.29640 0.01700
H 	H 	0.76210 0.27890 0.83250 0.02400
H 	H 	0.35610 0.95920 0.50790 0.01000
H 	H 	0.64200 0.41410 0.90530 0.03600
H 	H 	0.67780 0.46210 0.99970 0.03000
H 	H 	0.61460 0.79360 0.33140 0.02100
H 	H 	0.52190 0.92630 0.40730 0.03600
H 	H 	0.84390 0.49680 0.48210 0.01000
H 	H 	0.42280 0.90810 0.05360 0.04600
H 	H 	0.38970 0.83860 0.19320 0.02800
H 	H 	0.27990 0.02010 0.02750 -0.00400
H 	H 	0.93850 0.58500 0.42990 0.03800
C 	C 	0.78720 0.14690 0.67960 0.38000
C 	C 	0.64420 0.07740 0.90310 -0.08800
C 	C 	0.66390 0.11970 0.82070 0.00300
C 	C 	0.72890 0.01230 0.91880 0.02200
C 	C 	0.76020 0.09940 0.76400 -0.07600
C 	C 	0.82400 0.99650 0.85520 -0.10600
C 	C 	0.75410 0.13520 0.45690 0.39100
C 	C 	0.15690 0.61770 0.96530 0.38700
C 	C 	0.11490 0.39790 0.73200 -0.07800
C 	C 	0.17660 0.48730 0.62710 -0.09100
C 	C 	0.24230 0.53670 0.60000 0.40800
C 	C 	0.10740 0.35430 0.81900 0.40300
C 	C 	0.18480 0.64200 0.02440 -0.07100
C 	C 	0.14050 0.74240 0.11920 -0.06900
C 	C 	0.08880 0.42320 0.60330 -0.08900
C 	C 	0.05680 0.82820 0.16520 0.39800
C 	C 	0.22580 0.69910 0.13000 -0.00800
C 	C 	0.07620 0.38430 0.68180 0.00200
C 	C 	0.60590 0.09230 0.52650 0.00300
C 	C 	0.50210 0.24260 0.62050 -0.07300
C 	C 	0.29750 0.61950 0.08650 -0.07300
C 	C 	0.27570 0.59110 0.03140 -0.01200
C 	C 	0.45390 0.18890 0.63140 -0.00200
C 	C 	0.50780 0.11260 0.58500 -0.08300
C 	C 	0.14340 0.47670 0.57280 0.00100
C 	C 	0.45210 0.32600 0.66990 0.39100
C 	C 	0.64860 0.14990 0.51700 -0.08900
C 	C 	0.91570 0.93140 0.86580 0.39000
C 	C 	0.21280 0.85310 0.32040 0.38000
C 	C 	0.35580 0.92260 0.09690 -0.08800
C 	C 	0.33610 0.88030 0.17930 0.00300
C 	C 	0.27110 0.98770 0.08120 0.02200
C 	C 	0.23980 0.90060 0.23600 -0.07600
C 	C 	0.17600 0.00350 0.14480 -0.10600
C 	C 	0.24590 0.86480 0.54310 0.39100
C 	C 	0.84310 0.38230 0.03470 0.38700
C 	C 	0.88510 0.60210 0.26800 -0.07800
C 	C 	0.82340 0.51270 0.37290 -0.09100
C 	C 	0.75770 0.46330 0.40000 0.40800
C 	C 	0.89260 0.64570 0.18100 0.40300
C 	C 	0.81520 0.35800 0.97560 -0.07100
C 	C 	0.85950 0.25760 0.88080 -0.06900
C 	C 	0.91120 0.57680 0.39670 -0.08900
C 	C 	0.94320 0.17180 0.83480 0.39800
C 	C 	0.77420 0.30090 0.87000 -0.00800
C 	C 	0.92380 0.61570 0.31820 0.00200
C 	C 	0.39410 0.90770 0.47350 0.00300
C 	C 	0.49790 0.75740 0.37950 -0.07300
C 	C 	0.70250 0.38050 0.91350 -0.07300
C 	C 	0.72430 0.40890 0.96860 -0.01200
C 	C 	0.54610 0.81110 0.36860 -0.00200
C 	C 	0.49220 0.88740 0.41500 -0.08300
C 	C 	0.85660 0.52330 0.42720 0.00100
C 	C 	0.54790 0.67400 0.33010 0.39100
C 	C 	0.35140 0.85010 0.48300 -0.08900
C 	C 	0.08430 0.06860 0.13420 0.39000
N 	N 	0.84270 0.03780 0.77800 -0.16700
N 	N 	0.59660 0.22240 0.56550 -0.18000
N 	N 	0.12060 0.71720 0.06540 -0.17500
N 	N 	0.16080 0.45070 0.70600 -0.17700
N 	N 	0.15730 0.96220 0.22200 -0.16700
N 	N 	0.40340 0.77760 0.43450 -0.18000
N 	N 	0.87940 0.28280 0.93460 -0.17500
N 	N 	0.83920 0.54930 0.29400 -0.17700
O 	O 	0.36160 0.35200 0.72130 -0.45300
O 	O 	0.71860 0.20300 0.65670 -0.48700
O 	O 	0.88090 0.12850 0.63510 -0.48800
O 	O 	0.90840 0.88170 0.92980 -0.53100
O 	O 	0.07430 0.67270 0.96190 -0.50400
O 	O 	0.50810 0.36420 0.65570 -0.49800
O 	O 	0.07190 0.29900 0.84490 -0.48800
O 	O 	0.14490 0.37550 0.85610 -0.48300
O 	O 	0.06900 0.85850 0.21580 -0.45900
O 	O 	0.80750 0.06850 0.40870 -0.49900
O 	O 	0.21270 0.54940 0.92280 -0.47000
O 	O 	0.00080 0.92960 0.80880 -0.46800
O 	O 	0.27930 0.53220 0.64970 -0.51500
O 	O 	0.25380 0.57820 0.52930 -0.53800
O 	O 	0.27970 0.37780 0.90860 -0.45800
O 	O 	0.98080 0.86280 0.14700 -0.51800
O 	O 	0.78290 0.19120 0.45790 -0.51300
O 	O 	0.63840 0.64800 0.27870 -0.45300
O 	O 	0.28140 0.79700 0.34330 -0.48700
O 	O 	0.11910 0.87150 0.36490 -0.48800
O 	O 	0.09160 0.11830 0.07020 -0.53100
O 	O 	0.92570 0.32730 0.03810 -0.50400
O 	O 	0.49190 0.63580 0.34430 -0.49800
O 	O 	0.92810 0.70100 0.15510 -0.48800
O 	O 	0.85510 0.62450 0.14390 -0.48300
O 	O 	0.93100 0.14150 0.78420 -0.45900
O 	O 	0.19250 0.93150 0.59130 -0.49900
O 	O 	0.78730 0.45060 0.07720 -0.47000
O 	O 	0.99920 0.07040 0.19120 -0.46800
O 	O 	0.72070 0.46780 0.35030 -0.51500
O 	O 	0.74620 0.42180 0.47070 -0.53800
O 	O 	0.72030 0.62220 0.09140 -0.45800
O 	O 	0.01920 0.13720 0.85300 -0.51800
O 	O 	0.21710 0.80880 0.54210 -0.51300
