data_crystal

_cell_length_a 19.34740
_cell_length_b 43.60510
_cell_length_c 43.60510
_cell_angle_alpha 90.00000
_cell_angle_beta  90.00000
_cell_angle_gamma 90.00000

_symmetry_space_group_name_	'P 1'
_symmetry_space_group_name_H-M	'P 1'

loop_
_symmetry_equiv_pos_as_xyz
  x,y,z

loop_
_atom_site_label
_atom_site_type_symbol
_atom_site_fract_x
_atom_site_fract_y
_atom_site_fract_z
_atom_site_charge
Pr	Pr	0.78697 0.47303 0.87578 2.08100
Pr	Pr	0.77837 0.45455 0.76615 2.08200
Pr	Pr	0.63558 0.39537 0.83636 2.08500
Pr	Pr	0.58426 0.50062 0.81754 2.08600
Pr	Pr	0.16054 0.73740 0.69689 2.08500
Pr	Pr	0.78697 0.02697 0.62422 2.08100
Pr	Pr	0.77837 0.04545 0.73385 2.08200
Pr	Pr	0.63558 0.10463 0.66364 2.08500
Pr	Pr	0.58426 0.99938 0.68246 2.08600
Pr	Pr	0.16054 0.76260 0.80311 2.08500
Pr	Pr	0.28697 0.12422 0.97303 2.08100
Pr	Pr	0.27837 0.23385 0.95455 2.08200
Pr	Pr	0.13558 0.16364 0.89537 2.08500
Pr	Pr	0.08426 0.18246 0.00062 2.08600
Pr	Pr	0.66054 0.30311 0.23740 2.08500
Pr	Pr	0.28697 0.37578 0.52697 2.08100
Pr	Pr	0.27837 0.26615 0.54545 2.08200
Pr	Pr	0.13558 0.33636 0.60463 2.08500
Pr	Pr	0.08426 0.31754 0.49938 2.08600
Pr	Pr	0.66054 0.19689 0.26260 2.08500
Pr	Pr	0.21303 0.52697 0.12422 2.08100
Pr	Pr	0.22163 0.54545 0.23385 2.08200
Pr	Pr	0.36442 0.60463 0.16364 2.08500
Pr	Pr	0.41574 0.49938 0.18246 2.08600
Pr	Pr	0.83946 0.26260 0.30311 2.08500
Pr	Pr	0.21303 0.97303 0.37578 2.08100
Pr	Pr	0.22163 0.95455 0.26615 2.08200
Pr	Pr	0.36442 0.89537 0.33636 2.08500
Pr	Pr	0.41574 0.00062 0.31754 2.08600
Pr	Pr	0.83946 0.23740 0.19689 2.08500
Pr	Pr	0.71303 0.87578 0.02697 2.08100
Pr	Pr	0.72163 0.76615 0.04545 2.08200
Pr	Pr	0.86442 0.83636 0.10463 2.08500
Pr	Pr	0.91574 0.81754 0.99938 2.08600
Pr	Pr	0.33946 0.69689 0.76260 2.08400
Pr	Pr	0.71303 0.62422 0.47303 2.08000
Pr	Pr	0.72163 0.73385 0.45455 2.08100
Pr	Pr	0.86442 0.66364 0.39537 2.08400
Pr	Pr	0.91574 0.68246 0.50062 2.08500
Pr	Pr	0.33946 0.80311 0.73740 2.08400
Sb	Sb	0.65787 0.42518 0.91535 0.52000
Sb	Sb	0.61704 0.50555 0.90196 0.53000
Sb	Sb	0.72430 0.54877 0.84861 0.52000
Sb	Sb	0.87091 0.51312 0.81131 0.53500
Sb	Sb	0.91022 0.43342 0.82472 0.52200
Sb	Sb	0.80388 0.38847 0.87674 0.52200
Sb	Sb	0.50495 0.44605 0.87254 0.51400
Sb	Sb	0.71779 0.53420 0.76693 0.52600
Sb	Sb	0.79710 0.37484 0.79521 0.50600
Sb	Sb	0.60571 0.47397 0.73787 0.50600
Sb	Sb	0.64252 0.39390 0.75168 0.54000
Sb	Sb	0.49669 0.43116 0.79059 0.52400
Sb	Sb	0.18496 0.65802 0.72994 0.53000
Sb	Sb	0.18323 0.67940 0.81039 0.52300
Sb	Sb	0.05117 0.70949 0.75852 0.52200
Sb	Sb	0.65787 0.07482 0.58465 0.52000
Sb	Sb	0.61704 0.99445 0.59804 0.53000
Sb	Sb	0.72430 0.95123 0.65139 0.52000
Sb	Sb	0.87091 0.98688 0.68869 0.53500
Sb	Sb	0.91022 0.06658 0.67528 0.52200
Sb	Sb	0.80388 0.11153 0.62326 0.52200
Sb	Sb	0.50495 0.05395 0.62746 0.51400
Sb	Sb	0.71779 0.96580 0.73307 0.52600
Sb	Sb	0.79710 0.12516 0.70479 0.50600
Sb	Sb	0.60571 0.02603 0.76213 0.50600
Sb	Sb	0.64252 0.10610 0.74832 0.54000
Sb	Sb	0.49669 0.06884 0.70941 0.52400
Sb	Sb	0.18496 0.84198 0.77006 0.53000
Sb	Sb	0.18323 0.82060 0.68961 0.52300
Sb	Sb	0.05117 0.79051 0.74148 0.52200
Sb	Sb	0.15787 0.08465 0.92518 0.52000
Sb	Sb	0.11704 0.09804 0.00555 0.53000
Sb	Sb	0.22430 0.15139 0.04877 0.52000
Sb	Sb	0.37091 0.18869 0.01312 0.53500
Sb	Sb	0.41022 0.17528 0.93342 0.52200
Sb	Sb	0.30388 0.12326 0.88847 0.52200
Sb	Sb	0.00495 0.12746 0.94605 0.51400
Sb	Sb	0.21779 0.23307 0.03420 0.52600
Sb	Sb	0.29710 0.20479 0.87484 0.50700
Sb	Sb	0.10571 0.26213 0.97397 0.50600
Sb	Sb	0.14252 0.24832 0.89390 0.54000
Sb	Sb	0.99669 0.20941 0.93116 0.52300
Sb	Sb	0.68496 0.27006 0.15802 0.53000
Sb	Sb	0.68323 0.18961 0.17940 0.52300
Sb	Sb	0.55117 0.24148 0.20949 0.52200
Sb	Sb	0.15787 0.41535 0.57482 0.52000
Sb	Sb	0.11704 0.40196 0.49445 0.53000
Sb	Sb	0.22430 0.34861 0.45123 0.52000
Sb	Sb	0.37091 0.31131 0.48688 0.53500
Sb	Sb	0.41022 0.32472 0.56658 0.52200
Sb	Sb	0.30388 0.37674 0.61153 0.52200
Sb	Sb	0.00495 0.37254 0.55395 0.51400
Sb	Sb	0.21779 0.26693 0.46580 0.52600
Sb	Sb	0.29710 0.29521 0.62516 0.50700
Sb	Sb	0.10571 0.23787 0.52603 0.50600
Sb	Sb	0.14252 0.25168 0.60610 0.54000
Sb	Sb	0.99669 0.29059 0.56884 0.52300
Sb	Sb	0.68496 0.22994 0.34198 0.53000
Sb	Sb	0.68323 0.31039 0.32060 0.52300
Sb	Sb	0.55117 0.25852 0.29051 0.52200
Sb	Sb	0.34213 0.57482 0.08465 0.52000
Sb	Sb	0.38296 0.49445 0.09804 0.53000
Sb	Sb	0.27570 0.45123 0.15139 0.52000
Sb	Sb	0.12909 0.48688 0.18869 0.53500
Sb	Sb	0.08978 0.56658 0.17528 0.52200
Sb	Sb	0.19612 0.61153 0.12326 0.52200
Sb	Sb	0.49505 0.55395 0.12746 0.51400
Sb	Sb	0.28221 0.46580 0.23307 0.52600
Sb	Sb	0.20290 0.62516 0.20479 0.50600
Sb	Sb	0.39429 0.52603 0.26213 0.50600
Sb	Sb	0.35748 0.60610 0.24832 0.54000
Sb	Sb	0.50331 0.56884 0.20941 0.52400
Sb	Sb	0.81504 0.34198 0.27006 0.53000
Sb	Sb	0.81677 0.32060 0.18961 0.52300
Sb	Sb	0.94883 0.29051 0.24148 0.52200
Sb	Sb	0.34213 0.92518 0.41535 0.52000
Sb	Sb	0.38296 0.00555 0.40196 0.53000
Sb	Sb	0.27570 0.04877 0.34861 0.52000
Sb	Sb	0.12909 0.01312 0.31131 0.53500
Sb	Sb	0.08978 0.93342 0.32472 0.52200
Sb	Sb	0.19612 0.88847 0.37674 0.52200
Sb	Sb	0.49505 0.94605 0.37254 0.51400
Sb	Sb	0.28221 0.03420 0.26693 0.52600
Sb	Sb	0.20290 0.87484 0.29521 0.50600
Sb	Sb	0.39429 0.97397 0.23787 0.50600
Sb	Sb	0.35748 0.89390 0.25168 0.54000
Sb	Sb	0.50331 0.93116 0.29059 0.52400
Sb	Sb	0.81504 0.15802 0.22994 0.53000
Sb	Sb	0.81677 0.17940 0.31039 0.52300
Sb	Sb	0.94883 0.20949 0.25852 0.52200
Sb	Sb	0.84213 0.91535 0.07482 0.52000
Sb	Sb	0.88296 0.90196 0.99445 0.53000
Sb	Sb	0.77570 0.84861 0.95123 0.52000
Sb	Sb	0.62909 0.81131 0.98688 0.53500
Sb	Sb	0.58978 0.82472 0.06658 0.52200
Sb	Sb	0.69612 0.87674 0.11153 0.52200
Sb	Sb	0.99505 0.87254 0.05395 0.51400
Sb	Sb	0.78221 0.76693 0.96580 0.52600
Sb	Sb	0.70290 0.79521 0.12516 0.50700
Sb	Sb	0.89429 0.73787 0.02603 0.50600
Sb	Sb	0.85748 0.75168 0.10610 0.54000
Sb	Sb	0.00331 0.79059 0.06884 0.52300
Sb	Sb	0.31504 0.72994 0.84198 0.53000
Sb	Sb	0.31677 0.81039 0.82060 0.52300
Sb	Sb	0.44883 0.75852 0.79051 0.52200
Sb	Sb	0.84213 0.58465 0.42518 0.52000
Sb	Sb	0.88296 0.59804 0.50555 0.53000
Sb	Sb	0.77570 0.65139 0.54877 0.52000
Sb	Sb	0.62909 0.68869 0.51312 0.53500
Sb	Sb	0.58978 0.67528 0.43342 0.52200
Sb	Sb	0.69612 0.62326 0.38847 0.52200
Sb	Sb	0.99505 0.62746 0.44605 0.51400
Sb	Sb	0.78221 0.73307 0.53420 0.52600
Sb	Sb	0.70290 0.70479 0.37484 0.50700
Sb	Sb	0.89429 0.76213 0.47397 0.50600
Sb	Sb	0.85748 0.74832 0.39390 0.54000
Sb	Sb	0.00331 0.70941 0.43116 0.52300
Sb	Sb	0.31504 0.77006 0.65802 0.53000
Sb	Sb	0.31677 0.68961 0.67940 0.52300
Sb	Sb	0.44883 0.74148 0.70949 0.52200
H 	H 	0.42850 0.53030 0.75620 0.05400
H 	H 	0.33570 0.56130 0.74230 0.03800
H 	H 	0.46330 0.60070 0.90470 0.05500
H 	H 	0.37830 0.63850 0.88850 0.04000
H 	H 	0.01140 0.39140 0.66540 0.06200
H 	H 	0.94000 0.41400 0.70530 0.06300
H 	H 	0.42850 0.96970 0.74380 0.05400
H 	H 	0.33570 0.93870 0.75770 0.03800
H 	H 	0.46330 0.89930 0.59530 0.05500
H 	H 	0.37830 0.86150 0.61150 0.04000
H 	H 	0.01140 0.10860 0.83460 0.06200
H 	H 	0.94000 0.08600 0.79470 0.06300
H 	H 	0.92850 0.24380 0.03030 0.05400
H 	H 	0.83570 0.25770 0.06130 0.03800
H 	H 	0.96330 0.09530 0.10070 0.05500
H 	H 	0.87830 0.11150 0.13850 0.04000
H 	H 	0.51140 0.33460 0.89140 0.06100
H 	H 	0.44000 0.29470 0.91400 0.06300
H 	H 	0.92850 0.25620 0.46970 0.05400
H 	H 	0.83570 0.24230 0.43870 0.03800
H 	H 	0.96330 0.40470 0.39930 0.05500
H 	H 	0.87830 0.38850 0.36150 0.04000
H 	H 	0.51140 0.16540 0.60860 0.06100
H 	H 	0.44000 0.20530 0.58600 0.06300
H 	H 	0.57150 0.46970 0.24380 0.05400
H 	H 	0.66430 0.43870 0.25770 0.03800
H 	H 	0.53670 0.39930 0.09530 0.05500
H 	H 	0.62170 0.36150 0.11150 0.04000
H 	H 	0.98860 0.60860 0.33460 0.06200
H 	H 	0.06000 0.58600 0.29470 0.06300
H 	H 	0.57150 0.03030 0.25620 0.05400
H 	H 	0.66430 0.06130 0.24230 0.03800
H 	H 	0.53670 0.10070 0.40470 0.05500
H 	H 	0.62170 0.13850 0.38850 0.04000
H 	H 	0.98860 0.89140 0.16540 0.06200
H 	H 	0.06000 0.91400 0.20530 0.06300
H 	H 	0.07150 0.75620 0.96970 0.05400
H 	H 	0.16430 0.74230 0.93870 0.03800
H 	H 	0.03670 0.90470 0.89930 0.05500
H 	H 	0.12170 0.88850 0.86150 0.04000
H 	H 	0.48860 0.66540 0.10860 0.06100
H 	H 	0.56000 0.70530 0.08600 0.06300
H 	H 	0.07150 0.74380 0.53030 0.05400
H 	H 	0.16430 0.75770 0.56130 0.03800
H 	H 	0.03670 0.59530 0.60070 0.05500
H 	H 	0.12170 0.61150 0.63850 0.04000
H 	H 	0.48860 0.83460 0.39140 0.06100
H 	H 	0.56000 0.79470 0.41400 0.06300
C 	C 	0.55660 0.55660 0.75990 0.40800
C 	C 	0.49010 0.56840 0.75330 -0.13300
C 	C 	0.43150 0.55120 0.75220 -0.01300
C 	C 	0.37970 0.56950 0.74460 0.03500
C 	C 	0.38940 0.60060 0.73990 -0.16400
C 	C 	0.34350 0.62450 0.73250 0.45100
C 	C 	0.52910 0.56170 0.85970 0.40800
C 	C 	0.47650 0.58730 0.85920 -0.09700
C 	C 	0.45040 0.60400 0.88440 -0.01800
C 	C 	0.40230 0.62610 0.87480 0.01800
C 	C 	0.39350 0.62790 0.84430 -0.13100
C 	C 	0.35070 0.65020 0.82820 0.41500
C 	C 	0.96150 0.34730 0.62620 0.40300
C 	C 	0.93290 0.36440 0.65180 -0.11700
C 	C 	0.96570 0.38570 0.66880 0.00300
C 	C 	0.92470 0.39870 0.69210 -0.00000
C 	C 	0.86050 0.38640 0.69330 -0.10700
C 	C 	0.80460 0.39370 0.71560 0.40700
C 	C 	0.55660 0.94340 0.74010 0.40800
C 	C 	0.49010 0.93160 0.74670 -0.13300
C 	C 	0.43150 0.94880 0.74780 -0.01300
C 	C 	0.37970 0.93050 0.75540 0.03500
C 	C 	0.38940 0.89940 0.76010 -0.16400
C 	C 	0.34350 0.87550 0.76750 0.45100
C 	C 	0.52910 0.93830 0.64030 0.40800
C 	C 	0.47650 0.91270 0.64080 -0.09700
C 	C 	0.45040 0.89600 0.61560 -0.01800
C 	C 	0.40230 0.87390 0.62520 0.01800
C 	C 	0.39350 0.87210 0.65570 -0.13100
C 	C 	0.35070 0.84980 0.67180 0.41500
C 	C 	0.96150 0.15270 0.87380 0.40300
C 	C 	0.93290 0.13560 0.84820 -0.11700
C 	C 	0.96570 0.11430 0.83120 0.00300
C 	C 	0.92470 0.10130 0.80790 -0.00000
C 	C 	0.86050 0.11360 0.80670 -0.10700
C 	C 	0.80460 0.10630 0.78440 0.40700
C 	C 	0.05660 0.24010 0.05660 0.40800
C 	C 	0.99010 0.24670 0.06840 -0.13300
C 	C 	0.93150 0.24780 0.05120 -0.01300
C 	C 	0.87970 0.25540 0.06950 0.03500
C 	C 	0.88940 0.26010 0.10060 -0.16400
C 	C 	0.84350 0.26750 0.12450 0.45100
C 	C 	0.02910 0.14030 0.06170 0.40800
C 	C 	0.97650 0.14080 0.08730 -0.09700
C 	C 	0.95040 0.11560 0.10400 -0.01800
C 	C 	0.90230 0.12520 0.12610 0.01800
C 	C 	0.89350 0.15570 0.12790 -0.13100
C 	C 	0.85070 0.17180 0.15020 0.41500
C 	C 	0.46150 0.37380 0.84730 0.40300
C 	C 	0.43290 0.34820 0.86440 -0.11800
C 	C 	0.46570 0.33120 0.88570 0.00400
C 	C 	0.42470 0.30790 0.89870 -0.00100
C 	C 	0.36050 0.30670 0.88640 -0.10700
C 	C 	0.30460 0.28440 0.89370 0.40700
C 	C 	0.05660 0.25990 0.44340 0.40800
C 	C 	0.99010 0.25330 0.43160 -0.13300
C 	C 	0.93150 0.25220 0.44880 -0.01300
C 	C 	0.87970 0.24460 0.43050 0.03500
C 	C 	0.88940 0.23990 0.39940 -0.16400
C 	C 	0.84350 0.23250 0.37550 0.45100
C 	C 	0.02910 0.35970 0.43830 0.40800
C 	C 	0.97650 0.35920 0.41270 -0.09700
C 	C 	0.95040 0.38440 0.39600 -0.01800
C 	C 	0.90230 0.37480 0.37390 0.01800
C 	C 	0.89350 0.34430 0.37210 -0.13100
C 	C 	0.85070 0.32820 0.34980 0.41500
C 	C 	0.46150 0.12620 0.65270 0.40300
C 	C 	0.43290 0.15180 0.63560 -0.11800
C 	C 	0.46570 0.16880 0.61430 0.00400
C 	C 	0.42470 0.19210 0.60130 -0.00100
C 	C 	0.36050 0.19330 0.61360 -0.10700
C 	C 	0.30460 0.21560 0.60630 0.40700
C 	C 	0.44340 0.44340 0.24010 0.40800
C 	C 	0.50990 0.43160 0.24670 -0.13300
C 	C 	0.56850 0.44880 0.24780 -0.01300
C 	C 	0.62030 0.43050 0.25540 0.03500
C 	C 	0.61060 0.39940 0.26010 -0.16400
C 	C 	0.65650 0.37550 0.26750 0.45100
C 	C 	0.47090 0.43830 0.14030 0.40800
C 	C 	0.52350 0.41270 0.14080 -0.09700
C 	C 	0.54960 0.39600 0.11560 -0.01800
C 	C 	0.59770 0.37390 0.12520 0.01800
C 	C 	0.60650 0.37210 0.15570 -0.13100
C 	C 	0.64930 0.34980 0.17180 0.41500
C 	C 	0.03850 0.65270 0.37380 0.40300
C 	C 	0.06710 0.63560 0.34820 -0.11700
C 	C 	0.03430 0.61430 0.33120 0.00300
C 	C 	0.07530 0.60130 0.30790 -0.00000
C 	C 	0.13950 0.61360 0.30670 -0.10700
C 	C 	0.19540 0.60630 0.28440 0.40700
C 	C 	0.44340 0.05660 0.25990 0.40800
C 	C 	0.50990 0.06840 0.25330 -0.13300
C 	C 	0.56850 0.05120 0.25220 -0.01300
C 	C 	0.62030 0.06950 0.24460 0.03500
C 	C 	0.61060 0.10060 0.23990 -0.16400
C 	C 	0.65650 0.12450 0.23250 0.45100
C 	C 	0.47090 0.06170 0.35970 0.40800
C 	C 	0.52350 0.08730 0.35920 -0.09700
C 	C 	0.54960 0.10400 0.38440 -0.01800
C 	C 	0.59770 0.12610 0.37480 0.01800
C 	C 	0.60650 0.12790 0.34430 -0.13100
C 	C 	0.64930 0.15020 0.32820 0.41500
C 	C 	0.03850 0.84730 0.12620 0.40300
C 	C 	0.06710 0.86440 0.15180 -0.11700
C 	C 	0.03430 0.88570 0.16880 0.00300
C 	C 	0.07530 0.89870 0.19210 -0.00000
C 	C 	0.13950 0.88640 0.19330 -0.10700
C 	C 	0.19540 0.89370 0.21560 0.40700
C 	C 	0.94340 0.75990 0.94340 0.40800
C 	C 	0.00990 0.75330 0.93160 -0.13300
C 	C 	0.06850 0.75220 0.94880 -0.01300
C 	C 	0.12030 0.74460 0.93050 0.03500
C 	C 	0.11060 0.73990 0.89940 -0.16400
C 	C 	0.15650 0.73250 0.87550 0.45100
C 	C 	0.97090 0.85970 0.93830 0.40800
C 	C 	0.02350 0.85920 0.91270 -0.09700
C 	C 	0.04960 0.88440 0.89600 -0.01800
C 	C 	0.09770 0.87480 0.87390 0.01800
C 	C 	0.10650 0.84430 0.87210 -0.13100
C 	C 	0.14930 0.82820 0.84980 0.41500
C 	C 	0.53850 0.62620 0.15270 0.40300
C 	C 	0.56710 0.65180 0.13560 -0.11800
C 	C 	0.53430 0.66880 0.11430 0.00400
C 	C 	0.57530 0.69210 0.10130 -0.00100
C 	C 	0.63950 0.69330 0.11360 -0.10700
C 	C 	0.69540 0.71560 0.10630 0.40700
C 	C 	0.94340 0.74010 0.55660 0.40800
C 	C 	0.00990 0.74670 0.56840 -0.13300
C 	C 	0.06850 0.74780 0.55120 -0.01300
C 	C 	0.12030 0.75540 0.56950 0.03500
C 	C 	0.11060 0.76010 0.60060 -0.16400
C 	C 	0.15650 0.76750 0.62450 0.45100
C 	C 	0.97090 0.64030 0.56170 0.40800
C 	C 	0.02350 0.64080 0.58730 -0.09700
C 	C 	0.04960 0.61560 0.60400 -0.01800
C 	C 	0.09770 0.62520 0.62610 0.01800
C 	C 	0.10650 0.65570 0.62790 -0.13100
C 	C 	0.14930 0.67180 0.65020 0.41500
C 	C 	0.53850 0.87380 0.34730 0.40300
C 	C 	0.56710 0.84820 0.36440 -0.11800
C 	C 	0.53430 0.83120 0.38570 0.00400
C 	C 	0.57530 0.80790 0.39870 -0.00100
C 	C 	0.63950 0.80670 0.38640 -0.10700
C 	C 	0.69540 0.78440 0.39370 0.40700
S 	S 	0.84890 0.35956 0.66485 0.09400
S 	S 	0.44150 0.60082 0.82582 0.10100
S 	S 	0.47510 0.60577 0.74470 0.12400
S 	S 	0.84890 0.14044 0.83515 0.09400
S 	S 	0.44150 0.89918 0.67418 0.10100
S 	S 	0.47510 0.89423 0.75530 0.12400
S 	S 	0.34890 0.33515 0.85956 0.09400
S 	S 	0.94150 0.17418 0.10082 0.10100
S 	S 	0.97510 0.25530 0.10577 0.12400
S 	S 	0.34890 0.16485 0.64044 0.09400
S 	S 	0.94150 0.32582 0.39918 0.10100
S 	S 	0.97510 0.24470 0.39423 0.12400
S 	S 	0.15110 0.64044 0.33515 0.09400
S 	S 	0.55850 0.39918 0.17418 0.10100
S 	S 	0.52490 0.39423 0.25530 0.12400
S 	S 	0.15110 0.85956 0.16485 0.09400
S 	S 	0.55850 0.10082 0.32582 0.10100
S 	S 	0.52490 0.10577 0.24470 0.12400
S 	S 	0.65110 0.66485 0.14044 0.09400
S 	S 	0.05850 0.82582 0.89918 0.10100
S 	S 	0.02490 0.74470 0.89423 0.12400
S 	S 	0.65110 0.83515 0.35956 0.09400
S 	S 	0.05850 0.67418 0.60082 0.10100
S 	S 	0.02490 0.75530 0.60577 0.12400
Cl	Cl	0.69590 0.45570 0.82490 -0.94200
Cl	Cl	0.93200 0.48910 0.87733 -0.46600
Cl	Cl	0.82060 0.44175 0.93208 -0.46800
Cl	Cl	0.77180 0.52798 0.91515 -0.46400
Cl	Cl	0.93080 0.47015 0.76217 -0.46600
Cl	Cl	0.76130 0.48767 0.70872 -0.47800
Cl	Cl	0.64900 0.33930 0.80004 -0.47600
Cl	Cl	0.66370 0.35446 0.89013 -0.47000
Cl	Cl	0.43050 0.48913 0.82093 -0.47000
Cl	Cl	0.00300 0.73514 0.69686 -0.46200
Cl	Cl	0.69590 0.04430 0.67510 -0.94200
Cl	Cl	0.93200 0.01090 0.62267 -0.46600
Cl	Cl	0.82060 0.05825 0.56792 -0.46800
Cl	Cl	0.77180 0.97202 0.58485 -0.46400
Cl	Cl	0.93080 0.02985 0.73783 -0.46600
Cl	Cl	0.76130 0.01233 0.79128 -0.47800
Cl	Cl	0.64900 0.16070 0.69996 -0.47600
Cl	Cl	0.66370 0.14554 0.60987 -0.47000
Cl	Cl	0.43050 0.01087 0.67907 -0.47000
Cl	Cl	0.00300 0.76486 0.80314 -0.46200
Cl	Cl	0.19590 0.17510 0.95570 -0.94200
Cl	Cl	0.43200 0.12267 0.98910 -0.46600
Cl	Cl	0.32060 0.06792 0.94175 -0.46800
Cl	Cl	0.27180 0.08485 0.02798 -0.46400
Cl	Cl	0.43080 0.23783 0.97015 -0.46600
Cl	Cl	0.26130 0.29128 0.98767 -0.47800
Cl	Cl	0.14900 0.19996 0.83930 -0.47600
Cl	Cl	0.16370 0.10987 0.85446 -0.47000
Cl	Cl	0.93050 0.17907 0.98913 -0.47000
Cl	Cl	0.50300 0.30314 0.23514 -0.46200
Cl	Cl	0.19590 0.32490 0.54430 -0.94200
Cl	Cl	0.43200 0.37733 0.51090 -0.46600
Cl	Cl	0.32060 0.43208 0.55825 -0.46800
Cl	Cl	0.27180 0.41515 0.47202 -0.46400
Cl	Cl	0.43080 0.26217 0.52985 -0.46600
Cl	Cl	0.26130 0.20872 0.51233 -0.47800
Cl	Cl	0.14900 0.30004 0.66070 -0.47600
Cl	Cl	0.16370 0.39013 0.64554 -0.47000
Cl	Cl	0.93050 0.32093 0.51087 -0.47000
Cl	Cl	0.50300 0.19686 0.26486 -0.46200
Cl	Cl	0.30410 0.54430 0.17510 -0.94200
Cl	Cl	0.06800 0.51090 0.12267 -0.46600
Cl	Cl	0.17940 0.55825 0.06792 -0.46800
Cl	Cl	0.22820 0.47202 0.08485 -0.46400
Cl	Cl	0.06920 0.52985 0.23783 -0.46600
Cl	Cl	0.23870 0.51233 0.29128 -0.47800
Cl	Cl	0.35100 0.66070 0.19996 -0.47600
Cl	Cl	0.33630 0.64554 0.10987 -0.47000
Cl	Cl	0.56950 0.51087 0.17907 -0.47000
Cl	Cl	0.99700 0.26486 0.30314 -0.46200
Cl	Cl	0.30410 0.95570 0.32490 -0.94200
Cl	Cl	0.06800 0.98910 0.37733 -0.46600
Cl	Cl	0.17940 0.94175 0.43208 -0.46800
Cl	Cl	0.22820 0.02798 0.41515 -0.46400
Cl	Cl	0.06920 0.97015 0.26217 -0.46600
Cl	Cl	0.23870 0.98767 0.20872 -0.47800
Cl	Cl	0.35100 0.83930 0.30004 -0.47600
Cl	Cl	0.33630 0.85446 0.39013 -0.47000
Cl	Cl	0.56950 0.98913 0.32093 -0.47000
Cl	Cl	0.99700 0.23514 0.19686 -0.46200
Cl	Cl	0.80410 0.82490 0.04430 -0.94200
Cl	Cl	0.56800 0.87733 0.01090 -0.46600
Cl	Cl	0.67940 0.93208 0.05825 -0.46800
Cl	Cl	0.72820 0.91515 0.97202 -0.46400
Cl	Cl	0.56920 0.76217 0.02985 -0.46600
Cl	Cl	0.73870 0.70872 0.01233 -0.47800
Cl	Cl	0.85100 0.80004 0.16070 -0.47600
Cl	Cl	0.83630 0.89013 0.14554 -0.47000
Cl	Cl	0.06950 0.82093 0.01087 -0.47000
Cl	Cl	0.49700 0.69686 0.76486 -0.46200
Cl	Cl	0.80410 0.67510 0.45570 -0.94200
Cl	Cl	0.56800 0.62267 0.48910 -0.46600
Cl	Cl	0.67940 0.56792 0.44175 -0.46800
Cl	Cl	0.72820 0.58485 0.52798 -0.46400
Cl	Cl	0.56920 0.73783 0.47015 -0.46600
Cl	Cl	0.73870 0.79128 0.48767 -0.47800
Cl	Cl	0.85100 0.69996 0.33930 -0.47600
Cl	Cl	0.83630 0.60987 0.35446 -0.47000
Cl	Cl	0.06950 0.67907 0.48913 -0.47000
Cl	Cl	0.49700 0.80314 0.73514 -0.46200
Cl	Cl	0.25000 0.75000 0.75000 -0.95500
Cl	Cl	0.75000 0.25000 0.25000 -0.95500
O 	O 	0.66870 0.51340 0.86300 -0.48800
O 	O 	0.80190 0.52030 0.84440 -0.45600
O 	O 	0.84810 0.46970 0.82080 -0.49000
O 	O 	0.85170 0.42610 0.86190 -0.45000
O 	O 	0.72540 0.41780 0.88150 -0.48600
O 	O 	0.67880 0.46840 0.90510 -0.45900
O 	O 	0.55260 0.48560 0.87180 -0.44700
O 	O 	0.68220 0.53690 0.80930 -0.45400
O 	O 	0.80050 0.50910 0.77940 -0.45600
O 	O 	0.84510 0.41500 0.79530 -0.45600
O 	O 	0.75840 0.37920 0.83700 -0.45600
O 	O 	0.58740 0.42120 0.88300 -0.45700
O 	O 	0.54310 0.44080 0.83010 -0.49500
O 	O 	0.67270 0.49290 0.76780 -0.49900
O 	O 	0.71640 0.40020 0.78240 -0.48200
O 	O 	0.57830 0.40350 0.78610 -0.45700
O 	O 	0.55040 0.46700 0.77530 -0.46500
O 	O 	0.66440 0.43710 0.74200 -0.44100
O 	O 	0.25030 0.68900 0.71410 -0.48200
O 	O 	0.11870 0.69400 0.72840 -0.46300
O 	O 	0.11830 0.71010 0.79320 -0.45300
O 	O 	0.22670 0.66950 0.77080 -0.45600
O 	O 	0.56050 0.53030 0.76820 -0.46000
O 	O 	0.60780 0.57440 0.75680 -0.29100
O 	O 	0.28150 0.61900 0.72670 -0.32400
O 	O 	0.36330 0.65050 0.73320 -0.48700
O 	O 	0.55430 0.55580 0.88420 -0.33200
O 	O 	0.53930 0.54870 0.83460 -0.48000
O 	O 	0.30440 0.66290 0.84170 -0.33400
O 	O 	0.36460 0.65690 0.80110 -0.46000
O 	O 	0.02560 0.34460 0.62580 -0.48600
O 	O 	0.92170 0.33470 0.60760 -0.29900
O 	O 	0.81610 0.41780 0.73060 -0.48400
O 	O 	0.75260 0.37810 0.71680 -0.31800
O 	O 	0.66870 0.98660 0.63700 -0.48800
O 	O 	0.80190 0.97970 0.65560 -0.45600
O 	O 	0.84810 0.03030 0.67920 -0.49000
O 	O 	0.85170 0.07390 0.63810 -0.45000
O 	O 	0.72540 0.08220 0.61850 -0.48600
O 	O 	0.67880 0.03160 0.59490 -0.45900
O 	O 	0.55260 0.01440 0.62820 -0.44700
O 	O 	0.68220 0.96310 0.69070 -0.45400
O 	O 	0.80050 0.99090 0.72060 -0.45600
O 	O 	0.84510 0.08500 0.70470 -0.45600
O 	O 	0.75840 0.12080 0.66300 -0.45600
O 	O 	0.58740 0.07880 0.61700 -0.45700
O 	O 	0.54310 0.05920 0.66990 -0.49500
O 	O 	0.67270 0.00710 0.73220 -0.49900
O 	O 	0.71640 0.09980 0.71760 -0.48200
O 	O 	0.57830 0.09650 0.71390 -0.45700
O 	O 	0.55040 0.03300 0.72470 -0.46500
O 	O 	0.66440 0.06290 0.75800 -0.44100
O 	O 	0.25030 0.81100 0.78590 -0.48200
O 	O 	0.11870 0.80600 0.77160 -0.46300
O 	O 	0.11830 0.78990 0.70680 -0.45300
O 	O 	0.22670 0.83050 0.72920 -0.45600
O 	O 	0.56050 0.96970 0.73180 -0.46000
O 	O 	0.60780 0.92560 0.74320 -0.29100
O 	O 	0.28150 0.88100 0.77330 -0.32400
O 	O 	0.36330 0.84950 0.76680 -0.48700
O 	O 	0.55430 0.94420 0.61580 -0.33200
O 	O 	0.53930 0.95130 0.66540 -0.48000
O 	O 	0.30440 0.83710 0.65830 -0.33400
O 	O 	0.36460 0.84310 0.69890 -0.46000
O 	O 	0.02560 0.15540 0.87420 -0.48600
O 	O 	0.92170 0.16530 0.89240 -0.29900
O 	O 	0.81610 0.08220 0.76940 -0.48400
O 	O 	0.75260 0.12190 0.78320 -0.31800
O 	O 	0.16870 0.13700 0.01340 -0.48800
O 	O 	0.30190 0.15560 0.02030 -0.45600
O 	O 	0.34810 0.17920 0.96970 -0.49000
O 	O 	0.35170 0.13810 0.92610 -0.45000
O 	O 	0.22540 0.11850 0.91780 -0.48600
O 	O 	0.17880 0.09490 0.96840 -0.45900
O 	O 	0.05260 0.12820 0.98560 -0.44700
O 	O 	0.18220 0.19070 0.03690 -0.45400
O 	O 	0.30050 0.22060 0.00910 -0.45600
O 	O 	0.34510 0.20470 0.91500 -0.45600
O 	O 	0.25840 0.16300 0.87920 -0.45600
O 	O 	0.08740 0.11700 0.92120 -0.45700
O 	O 	0.04310 0.16990 0.94080 -0.49500
O 	O 	0.17270 0.23220 0.99290 -0.49900
O 	O 	0.21640 0.21760 0.90020 -0.48200
O 	O 	0.07830 0.21390 0.90350 -0.45700
O 	O 	0.05040 0.22470 0.96700 -0.46500
O 	O 	0.16440 0.25800 0.93710 -0.44100
O 	O 	0.75030 0.28590 0.18900 -0.48200
O 	O 	0.61870 0.27160 0.19400 -0.46300
O 	O 	0.61830 0.20680 0.21010 -0.45300
O 	O 	0.72670 0.22920 0.16950 -0.45600
O 	O 	0.06050 0.23180 0.03030 -0.46000
O 	O 	0.10780 0.24320 0.07440 -0.29100
O 	O 	0.78150 0.27330 0.11900 -0.32400
O 	O 	0.86330 0.26680 0.15050 -0.48700
O 	O 	0.05430 0.11580 0.05580 -0.33200
O 	O 	0.03930 0.16540 0.04870 -0.48000
O 	O 	0.80440 0.15830 0.16290 -0.33400
O 	O 	0.86460 0.19890 0.15690 -0.46000
O 	O 	0.52560 0.37420 0.84460 -0.48700
O 	O 	0.42170 0.39240 0.83470 -0.29900
O 	O 	0.31610 0.26940 0.91780 -0.48400
O 	O 	0.25260 0.28320 0.87810 -0.31800
O 	O 	0.16870 0.36300 0.48660 -0.48800
O 	O 	0.30190 0.34440 0.47970 -0.45600
O 	O 	0.34810 0.32080 0.53030 -0.49000
O 	O 	0.35170 0.36190 0.57390 -0.45000
O 	O 	0.22540 0.38150 0.58220 -0.48600
O 	O 	0.17880 0.40510 0.53160 -0.45900
O 	O 	0.05260 0.37180 0.51440 -0.44700
O 	O 	0.18220 0.30930 0.46310 -0.45400
O 	O 	0.30050 0.27940 0.49090 -0.45600
O 	O 	0.34510 0.29530 0.58500 -0.45600
O 	O 	0.25840 0.33700 0.62080 -0.45600
O 	O 	0.08740 0.38300 0.57880 -0.45700
O 	O 	0.04310 0.33010 0.55920 -0.49500
O 	O 	0.17270 0.26780 0.50710 -0.49900
O 	O 	0.21640 0.28240 0.59980 -0.48200
O 	O 	0.07830 0.28610 0.59650 -0.45700
O 	O 	0.05040 0.27530 0.53300 -0.46500
O 	O 	0.16440 0.24200 0.56290 -0.44100
O 	O 	0.75030 0.21410 0.31100 -0.48200
O 	O 	0.61870 0.22840 0.30600 -0.46300
O 	O 	0.61830 0.29320 0.28990 -0.45300
O 	O 	0.72670 0.27080 0.33050 -0.45600
O 	O 	0.06050 0.26820 0.46970 -0.46000
O 	O 	0.10780 0.25680 0.42560 -0.29100
O 	O 	0.78150 0.22670 0.38100 -0.32400
O 	O 	0.86330 0.23320 0.34950 -0.48700
O 	O 	0.05430 0.38420 0.44420 -0.33200
O 	O 	0.03930 0.33460 0.45130 -0.48000
O 	O 	0.80440 0.34170 0.33710 -0.33400
O 	O 	0.86460 0.30110 0.34310 -0.46000
O 	O 	0.52560 0.12580 0.65540 -0.48700
O 	O 	0.42170 0.10760 0.66530 -0.29900
O 	O 	0.31610 0.23060 0.58220 -0.48400
O 	O 	0.25260 0.21680 0.62190 -0.31800
O 	O 	0.33130 0.48660 0.13700 -0.48800
O 	O 	0.19810 0.47970 0.15560 -0.45600
O 	O 	0.15190 0.53030 0.17920 -0.49000
O 	O 	0.14830 0.57390 0.13810 -0.45000
O 	O 	0.27460 0.58220 0.11850 -0.48600
O 	O 	0.32120 0.53160 0.09490 -0.45900
O 	O 	0.44740 0.51440 0.12820 -0.44700
O 	O 	0.31780 0.46310 0.19070 -0.45400
O 	O 	0.19950 0.49090 0.22060 -0.45600
O 	O 	0.15490 0.58500 0.20470 -0.45600
O 	O 	0.24160 0.62080 0.16300 -0.45600
O 	O 	0.41260 0.57880 0.11700 -0.45700
O 	O 	0.45690 0.55920 0.16990 -0.49500
O 	O 	0.32730 0.50710 0.23220 -0.49900
O 	O 	0.28360 0.59980 0.21760 -0.48200
O 	O 	0.42170 0.59650 0.21390 -0.45700
O 	O 	0.44960 0.53300 0.22470 -0.46500
O 	O 	0.33560 0.56290 0.25800 -0.44100
O 	O 	0.74970 0.31100 0.28590 -0.48200
O 	O 	0.88130 0.30600 0.27160 -0.46300
O 	O 	0.88170 0.28990 0.20680 -0.45300
O 	O 	0.77330 0.33050 0.22920 -0.45600
O 	O 	0.43950 0.46970 0.23180 -0.46000
O 	O 	0.39220 0.42560 0.24320 -0.29100
O 	O 	0.71850 0.38100 0.27330 -0.32400
O 	O 	0.63670 0.34950 0.26680 -0.48700
O 	O 	0.44570 0.44420 0.11580 -0.33200
O 	O 	0.46070 0.45130 0.16540 -0.48000
O 	O 	0.69560 0.33710 0.15830 -0.33400
O 	O 	0.63540 0.34310 0.19890 -0.46000
O 	O 	0.97440 0.65540 0.37420 -0.48600
O 	O 	0.07830 0.66530 0.39240 -0.29900
O 	O 	0.18390 0.58220 0.26940 -0.48400
O 	O 	0.24740 0.62190 0.28320 -0.31800
O 	O 	0.33130 0.01340 0.36300 -0.48800
O 	O 	0.19810 0.02030 0.34440 -0.45600
O 	O 	0.15190 0.96970 0.32080 -0.49000
O 	O 	0.14830 0.92610 0.36190 -0.45000
O 	O 	0.27460 0.91780 0.38150 -0.48600
O 	O 	0.32120 0.96840 0.40510 -0.45900
O 	O 	0.44740 0.98560 0.37180 -0.44700
O 	O 	0.31780 0.03690 0.30930 -0.45400
O 	O 	0.19950 0.00910 0.27940 -0.45600
O 	O 	0.15490 0.91500 0.29530 -0.45600
O 	O 	0.24160 0.87920 0.33700 -0.45600
O 	O 	0.41260 0.92120 0.38300 -0.45700
O 	O 	0.45690 0.94080 0.33010 -0.49500
O 	O 	0.32730 0.99290 0.26780 -0.49900
O 	O 	0.28360 0.90020 0.28240 -0.48200
O 	O 	0.42170 0.90350 0.28610 -0.45700
O 	O 	0.44960 0.96700 0.27530 -0.46500
O 	O 	0.33560 0.93710 0.24200 -0.44100
O 	O 	0.74970 0.18900 0.21410 -0.48200
O 	O 	0.88130 0.19400 0.22840 -0.46300
O 	O 	0.88170 0.21010 0.29320 -0.45300
O 	O 	0.77330 0.16950 0.27080 -0.45600
O 	O 	0.43950 0.03030 0.26820 -0.46000
O 	O 	0.39220 0.07440 0.25680 -0.29100
O 	O 	0.71850 0.11900 0.22670 -0.32400
O 	O 	0.63670 0.15050 0.23320 -0.48700
O 	O 	0.44570 0.05580 0.38420 -0.33200
O 	O 	0.46070 0.04870 0.33460 -0.48000
O 	O 	0.69560 0.16290 0.34170 -0.33400
O 	O 	0.63540 0.15690 0.30110 -0.46000
O 	O 	0.97440 0.84460 0.12580 -0.48600
O 	O 	0.07830 0.83470 0.10760 -0.29900
O 	O 	0.18390 0.91780 0.23060 -0.48400
O 	O 	0.24740 0.87810 0.21680 -0.31800
O 	O 	0.83130 0.86300 0.98660 -0.48800
O 	O 	0.69810 0.84440 0.97970 -0.45600
O 	O 	0.65190 0.82080 0.03030 -0.49000
O 	O 	0.64830 0.86190 0.07390 -0.45000
O 	O 	0.77460 0.88150 0.08220 -0.48600
O 	O 	0.82120 0.90510 0.03160 -0.45900
O 	O 	0.94740 0.87180 0.01440 -0.44700
O 	O 	0.81780 0.80930 0.96310 -0.45400
O 	O 	0.69950 0.77940 0.99090 -0.45600
O 	O 	0.65490 0.79530 0.08500 -0.45600
O 	O 	0.74160 0.83700 0.12080 -0.45600
O 	O 	0.91260 0.88300 0.07880 -0.45700
O 	O 	0.95690 0.83010 0.05920 -0.49500
O 	O 	0.82730 0.76780 0.00710 -0.49900
O 	O 	0.78360 0.78240 0.09980 -0.48200
O 	O 	0.92170 0.78610 0.09650 -0.45700
O 	O 	0.94960 0.77530 0.03300 -0.46500
O 	O 	0.83560 0.74200 0.06290 -0.44100
O 	O 	0.24970 0.71410 0.81100 -0.48200
O 	O 	0.38130 0.72840 0.80600 -0.46300
O 	O 	0.38170 0.79320 0.78990 -0.45300
O 	O 	0.27330 0.77080 0.83050 -0.45600
O 	O 	0.93950 0.76820 0.96970 -0.46000
O 	O 	0.89220 0.75680 0.92560 -0.29100
O 	O 	0.21850 0.72670 0.88100 -0.32400
O 	O 	0.13670 0.73320 0.84950 -0.48700
O 	O 	0.94570 0.88420 0.94420 -0.33200
O 	O 	0.96070 0.83460 0.95130 -0.48000
O 	O 	0.19560 0.84170 0.83710 -0.33400
O 	O 	0.13540 0.80110 0.84310 -0.46000
O 	O 	0.47440 0.62580 0.15540 -0.48700
O 	O 	0.57830 0.60760 0.16530 -0.29900
O 	O 	0.68390 0.73060 0.08220 -0.48400
O 	O 	0.74740 0.71680 0.12190 -0.31800
O 	O 	0.83130 0.63700 0.51340 -0.48800
O 	O 	0.69810 0.65560 0.52030 -0.45600
O 	O 	0.65190 0.67920 0.46970 -0.49000
O 	O 	0.64830 0.63810 0.42610 -0.45000
O 	O 	0.77460 0.61850 0.41780 -0.48600
O 	O 	0.82120 0.59490 0.46840 -0.45900
O 	O 	0.94740 0.62820 0.48560 -0.44700
O 	O 	0.81780 0.69070 0.53690 -0.45400
O 	O 	0.69950 0.72060 0.50910 -0.45600
O 	O 	0.65490 0.70470 0.41500 -0.45600
O 	O 	0.74160 0.66300 0.37920 -0.45600
O 	O 	0.91260 0.61700 0.42120 -0.45700
O 	O 	0.95690 0.66990 0.44080 -0.49500
O 	O 	0.82730 0.73220 0.49290 -0.49900
O 	O 	0.78360 0.71760 0.40020 -0.48200
O 	O 	0.92170 0.71390 0.40350 -0.45700
O 	O 	0.94960 0.72470 0.46700 -0.46500
O 	O 	0.83560 0.75800 0.43710 -0.44100
O 	O 	0.24970 0.78590 0.68900 -0.48200
O 	O 	0.38130 0.77160 0.69400 -0.46300
O 	O 	0.38170 0.70680 0.71010 -0.45300
O 	O 	0.27330 0.72920 0.66950 -0.45600
O 	O 	0.93950 0.73180 0.53030 -0.46000
O 	O 	0.89220 0.74320 0.57440 -0.29100
O 	O 	0.21850 0.77330 0.61900 -0.32400
O 	O 	0.13670 0.76680 0.65050 -0.48700
O 	O 	0.94570 0.61580 0.55580 -0.33200
O 	O 	0.96070 0.66540 0.54870 -0.48000
O 	O 	0.19560 0.65830 0.66290 -0.33400
O 	O 	0.13540 0.69890 0.65690 -0.46000
O 	O 	0.47440 0.87420 0.34460 -0.48700
O 	O 	0.57830 0.89240 0.33470 -0.29900
O 	O 	0.68390 0.76940 0.41780 -0.48400
O 	O 	0.74740 0.78320 0.37810 -0.31800
O 	O 	0.09650 0.75000 0.75000 -0.50400
O 	O 	0.59650 0.25000 0.25000 -0.50400
O 	O 	0.90350 0.25000 0.25000 -0.50400
O 	O 	0.40350 0.75000 0.75000 -0.50400
