data_crystal

_cell_length_a 37.26510
_cell_length_b 37.26510
_cell_length_c 37.26510
_cell_angle_alpha 109.47100
_cell_angle_beta  109.47100
_cell_angle_gamma 109.47100

_symmetry_space_group_name_	'P 1'
_symmetry_space_group_name_H-M	'P 1'

loop_
_symmetry_equiv_pos_as_xyz
  x,y,z

loop_
_atom_site_label
_atom_site_type_symbol
_atom_site_fract_x
_atom_site_fract_y
_atom_site_fract_z
_atom_site_charge
Zn	Zn	0.49007 0.14719 0.00226 1.19600
Zn	Zn	0.75128 0.24002 0.24536 1.19000
Zn	Zn	0.64493 0.48781 0.49774 1.20000
Zn	Zn	0.49466 0.50592 0.25464 1.19000
Zn	Zn	0.85507 0.35281 0.84288 1.20000
Zn	Zn	0.00534 0.25998 0.01126 1.19100
Zn	Zn	0.00993 0.01219 0.65712 1.20100
Zn	Zn	0.74872 0.99408 0.48874 1.19400
Zn	Zn	0.34288 0.85507 0.85281 1.20100
Zn	Zn	0.51126 0.00534 0.75998 1.18700
Zn	Zn	0.15712 0.00993 0.51219 1.19700
Zn	Zn	0.98874 0.74872 0.49408 1.18700
Zn	Zn	0.50226 0.49007 0.64719 1.20000
Zn	Zn	0.74536 0.75128 0.74002 1.19200
Zn	Zn	0.99774 0.64493 0.98781 1.20100
Zn	Zn	0.75464 0.49466 0.00592 1.18800
Zn	Zn	0.48781 0.99774 0.14493 1.20400
Zn	Zn	0.50592 0.75464 0.99466 1.19500
Zn	Zn	0.14719 0.50226 0.99007 1.20600
Zn	Zn	0.24002 0.74536 0.25128 1.19200
Zn	Zn	0.01219 0.15712 0.50993 1.20400
Zn	Zn	0.99408 0.98874 0.24872 1.18900
Zn	Zn	0.35281 0.34288 0.35507 1.20100
Zn	Zn	0.25998 0.51126 0.50534 1.19200
Zn	Zn	0.50993 0.85281 0.99774 1.20500
Zn	Zn	0.24872 0.75998 0.75464 1.19200
Zn	Zn	0.35507 0.51219 0.50226 1.20100
Zn	Zn	0.50534 0.49408 0.74536 1.19200
Zn	Zn	0.14493 0.64719 0.15712 1.20100
Zn	Zn	0.99466 0.74002 0.98874 1.19100
Zn	Zn	0.99007 0.98781 0.34288 1.19900
Zn	Zn	0.25128 0.00592 0.51126 1.18800
Zn	Zn	0.65712 0.14493 0.14719 1.20000
Zn	Zn	0.48874 0.99466 0.24002 1.19500
Zn	Zn	0.84288 0.99007 0.48781 1.20400
Zn	Zn	0.01126 0.25128 0.50592 1.19500
Zn	Zn	0.49774 0.50993 0.35281 1.20100
Zn	Zn	0.25464 0.24872 0.25998 1.19100
Zn	Zn	0.00226 0.35507 0.01219 1.20200
Zn	Zn	0.24536 0.50534 0.99408 1.19500
Zn	Zn	0.51219 0.00226 0.85507 1.19900
Zn	Zn	0.49408 0.24536 0.00534 1.18800
Zn	Zn	0.85281 0.49774 0.00993 1.19700
Zn	Zn	0.75998 0.25464 0.74872 1.19100
Zn	Zn	0.98781 0.84288 0.49007 1.19800
Zn	Zn	0.00592 0.01126 0.75128 1.19200
Zn	Zn	0.64719 0.65712 0.64493 1.20100
Zn	Zn	0.74002 0.48874 0.49466 1.19100
Zn	Zn	0.74119 0.49119 0.25000 1.16100
Zn	Zn	0.75881 0.00881 0.75000 1.15800
Zn	Zn	0.25000 0.75881 0.50881 1.16200
Zn	Zn	0.75000 0.74119 0.99119 1.16600
Zn	Zn	0.49119 0.75000 0.24119 1.16100
Zn	Zn	0.00881 0.25000 0.25881 1.16600
Zn	Zn	0.25881 0.50881 0.75000 1.16200
Zn	Zn	0.24119 0.99119 0.25000 1.16600
Zn	Zn	0.75000 0.24119 0.49119 1.16100
Zn	Zn	0.25000 0.25881 0.00881 1.15700
Zn	Zn	0.50881 0.25000 0.75881 1.16100
Zn	Zn	0.99119 0.75000 0.74119 1.15700
Zn	Zn	1.00000 0.50000 0.16614 1.16800
Zn	Zn	1.00000 0.50000 0.26202 1.19200
Zn	Zn	0.83386 0.83386 0.33386 1.17300
Zn	Zn	0.73798 0.73798 0.23798 1.19800
Zn	Zn	0.66614 0.00000 -0.00000 1.16500
Zn	Zn	0.76202 0.00000 -0.00000 1.19000
Zn	Zn	0.50000 0.66614 0.50000 1.17400
Zn	Zn	0.50000 0.76202 0.50000 1.19900
Zn	Zn	1.00000 0.50000 0.83386 1.16900
Zn	Zn	1.00000 0.50000 0.73798 1.19500
Zn	Zn	0.16614 0.16614 0.66614 1.17400
Zn	Zn	0.26202 0.26202 0.76202 1.19900
Zn	Zn	0.33386 0.00000 -0.00000 1.16500
Zn	Zn	0.23798 0.00000 -0.00000 1.19000
Zn	Zn	0.50000 0.33386 0.50000 1.17400
Zn	Zn	0.50000 0.23798 0.50000 1.19800
H 	H 	0.60530 0.21100 0.10830 -0.02800
H 	H 	0.61190 0.32420 0.12170 0.01600
H 	H 	0.70830 0.32530 0.21380 0.01600
H 	H 	0.77340 0.40620 0.13600 0.04700
H 	H 	0.87460 0.49470 0.22050 0.02000
H 	H 	0.63060 0.34580 0.22720 0.04900
H 	H 	0.71730 0.34540 0.13830 0.04900
H 	H 	0.86230 0.58090 0.22360 0.04600
H 	H 	0.78310 0.48960 0.11990 0.01500
H 	H 	0.89400 0.49480 0.12020 -0.02800
H 	H 	0.60270 0.49700 0.39170 -0.02600
H 	H 	0.70250 0.49020 0.37830 0.01700
H 	H 	0.61150 0.49450 0.28620 0.01600
H 	H 	0.77020 0.63740 0.36400 0.04800
H 	H 	0.77420 0.65410 0.27950 0.02200
H 	H 	0.61860 0.40340 0.27280 0.04900
H 	H 	0.70710 0.57900 0.36170 0.05100
H 	H 	0.85730 0.63870 0.27640 0.04700
H 	H 	0.86970 0.66320 0.38010 0.01600
H 	H 	0.87460 0.77380 0.37980 -0.02600
H 	H 	0.89730 0.28900 0.89430 -0.02600
H 	H 	0.79750 0.17580 0.78770 0.01700
H 	H 	0.88850 0.17470 0.88300 0.01600
H 	H 	0.72980 0.09380 0.86720 0.05000
H 	H 	0.72580 0.00530 0.87990 0.01800
H 	H 	0.88140 0.15420 0.78480 0.04800
H 	H 	0.79290 0.15460 0.87190 0.05100
H 	H 	0.64270 0.91910 0.78140 0.05300
H 	H 	0.63030 0.01040 0.79350 0.01400
H 	H 	0.62540 0.00520 0.89920 -0.02900
H 	H 	0.89470 0.00300 0.60570 -0.03400
H 	H 	0.88810 0.00980 0.71230 0.01400
H 	H 	0.79170 0.00550 0.61700 0.01000
H 	H 	0.72660 0.86260 0.63280 0.04800
H 	H 	0.62540 0.84590 0.62010 0.02300
H 	H 	0.86940 0.09660 0.71520 0.04800
H 	H 	0.78270 0.92100 0.62810 0.05500
H 	H 	0.63770 0.86130 0.71860 0.04800
H 	H 	0.71690 0.83680 0.70650 0.01800
H 	H 	0.60600 0.72620 0.60080 -0.02500
H 	H 	0.39430 0.89730 0.78900 -0.02300
H 	H 	0.28770 0.79750 0.67580 0.01900
H 	H 	0.38300 0.88850 0.67470 0.01900
H 	H 	0.36720 0.72980 0.59380 0.04900
H 	H 	0.37990 0.72580 0.50530 0.02300
H 	H 	0.28480 0.88140 0.65420 0.05100
H 	H 	0.37190 0.79290 0.65460 0.05100
H 	H 	0.28140 0.64270 0.41910 0.04800
H 	H 	0.29350 0.63030 0.51040 0.01700
H 	H 	0.39920 0.62540 0.50520 -0.02500
H 	H 	0.10570 0.89470 0.50300 -0.02100
H 	H 	0.21230 0.88810 0.50980 0.02000
H 	H 	0.11700 0.79170 0.50550 0.02000
H 	H 	0.13280 0.72660 0.36260 0.05000
H 	H 	0.12010 0.62540 0.34590 0.02400
H 	H 	0.21520 0.86940 0.59660 0.05100
H 	H 	0.12810 0.78270 0.42100 0.05200
H 	H 	0.21860 0.63770 0.36130 0.04800
H 	H 	0.20650 0.71690 0.33680 0.01800
H 	H 	0.10080 0.60600 0.22620 -0.02300
H 	H 	0.60830 0.60530 0.71100 -0.02500
H 	H 	0.62170 0.61190 0.82420 0.01800
H 	H 	0.71380 0.70830 0.82530 0.01800
H 	H 	0.63600 0.77340 0.90620 0.04800
H 	H 	0.72050 0.87460 0.99470 0.03000
H 	H 	0.72720 0.63060 0.84580 0.04900
H 	H 	0.63830 0.71730 0.84540 0.05100
H 	H 	0.72360 0.86230 0.08090 0.04400
H 	H 	0.61990 0.78310 0.98960 0.02100
H 	H 	0.62020 0.89400 0.99480 -0.01500
H 	H 	0.89170 0.60270 0.99700 -0.01900
H 	H 	0.87830 0.70250 0.99020 0.02000
H 	H 	0.78620 0.61150 0.99450 0.02400
H 	H 	0.86400 0.77020 0.13740 0.04800
H 	H 	0.77950 0.77420 0.15410 0.02100
H 	H 	0.77280 0.61860 0.90340 0.04800
H 	H 	0.86170 0.70710 0.07900 0.04400
H 	H 	0.77640 0.85730 0.13870 0.04900
H 	H 	0.88010 0.86970 0.16320 0.01500
H 	H 	0.87980 0.87460 0.27380 -0.02600
H 	H 	0.49700 0.89170 0.10270 -0.02600
H 	H 	0.49020 0.87830 0.20250 0.01800
H 	H 	0.49450 0.78620 0.11150 0.01500
H 	H 	0.63740 0.86400 0.27020 0.04900
H 	H 	0.65410 0.77950 0.27420 0.02200
H 	H 	0.40340 0.77280 0.11860 0.04800
H 	H 	0.57900 0.86170 0.20710 0.05100
H 	H 	0.63870 0.77640 0.35730 0.04800
H 	H 	0.66320 0.88010 0.36970 0.01800
H 	H 	0.77380 0.87980 0.37460 -0.02400
H 	H 	0.21100 0.60830 0.10530 -0.02600
H 	H 	0.32420 0.62170 0.11190 0.01600
H 	H 	0.32530 0.71380 0.20830 0.01700
H 	H 	0.40620 0.63600 0.27340 0.04800
H 	H 	0.49470 0.72050 0.37460 0.02300
H 	H 	0.34580 0.72720 0.13060 0.04800
H 	H 	0.34540 0.63830 0.21730 0.05100
H 	H 	0.58090 0.72360 0.36230 0.04800
H 	H 	0.48960 0.61990 0.28310 0.01600
H 	H 	0.49480 0.62020 0.39400 -0.02500
H 	H 	0.00300 0.10570 0.39470 -0.02000
H 	H 	0.00980 0.21230 0.38810 0.02000
H 	H 	0.00550 0.11700 0.29170 0.02200
H 	H 	0.86260 0.13280 0.22660 0.04800
H 	H 	0.84590 0.12010 0.12540 0.01900
H 	H 	0.09660 0.21520 0.36940 0.04800
H 	H 	0.92100 0.12810 0.28270 0.04400
H 	H 	0.86130 0.21860 0.13770 0.04700
H 	H 	0.83680 0.20650 0.21690 0.01500
H 	H 	0.72620 0.10080 0.10600 -0.02800
H 	H 	0.28900 0.39430 0.39730 -0.02600
H 	H 	0.17580 0.28770 0.29750 0.01800
H 	H 	0.17470 0.38300 0.38850 0.01800
H 	H 	0.09380 0.36720 0.22980 0.04800
H 	H 	0.00530 0.37990 0.22580 0.03000
H 	H 	0.15420 0.28480 0.38140 0.04900
H 	H 	0.15460 0.37190 0.29290 0.05100
H 	H 	0.91910 0.28140 0.14270 0.04100
H 	H 	0.01040 0.29350 0.13030 0.01900
H 	H 	0.00520 0.39920 0.12540 -0.01700
H 	H 	0.39470 0.78900 0.89170 -0.02300
H 	H 	0.38810 0.67580 0.87830 0.01900
H 	H 	0.29170 0.67470 0.78620 0.01800
H 	H 	0.22660 0.59380 0.86400 0.05000
H 	H 	0.12540 0.50530 0.77950 0.02500
H 	H 	0.36940 0.65420 0.77280 0.04900
H 	H 	0.28270 0.65460 0.86170 0.05200
H 	H 	0.13770 0.41910 0.77640 0.04900
H 	H 	0.21690 0.51040 0.88010 0.01900
H 	H 	0.10600 0.50520 0.87980 -0.02100
H 	H 	0.39730 0.50300 0.60830 -0.02500
H 	H 	0.29750 0.50980 0.62170 0.01800
H 	H 	0.38850 0.50550 0.71380 0.01700
H 	H 	0.22980 0.36260 0.63600 0.04900
H 	H 	0.22580 0.34590 0.72050 0.02300
H 	H 	0.38140 0.59660 0.72720 0.04900
H 	H 	0.29290 0.42100 0.63830 0.05100
H 	H 	0.14270 0.36130 0.72360 0.04900
H 	H 	0.13030 0.33680 0.61990 0.01800
H 	H 	0.12540 0.22620 0.62020 -0.02400
H 	H 	0.10270 0.71100 0.10570 -0.02500
H 	H 	0.20250 0.82420 0.21230 0.01900
H 	H 	0.11150 0.82530 0.11700 0.01800
H 	H 	0.27020 0.90620 0.13280 0.04700
H 	H 	0.27420 0.99470 0.12010 0.02900
H 	H 	0.11860 0.84580 0.21520 0.05100
H 	H 	0.20710 0.84540 0.12810 0.05100
H 	H 	0.35730 0.08090 0.21860 0.04200
H 	H 	0.36970 0.98960 0.20650 0.02000
H 	H 	0.37460 0.99480 0.10080 -0.01700
H 	H 	0.10530 0.99700 0.39430 -0.01500
H 	H 	0.11190 0.99020 0.28770 0.02300
H 	H 	0.20830 0.99450 0.38300 0.02500
H 	H 	0.27340 0.13740 0.36720 0.04900
H 	H 	0.37460 0.15410 0.37990 0.02100
H 	H 	0.13060 0.90340 0.28480 0.05000
H 	H 	0.21730 0.07900 0.37190 0.04500
H 	H 	0.36230 0.13870 0.28140 0.04800
H 	H 	0.28310 0.16320 0.29350 0.01600
H 	H 	0.39400 0.27380 0.39920 -0.02500
H 	H 	0.60570 0.10270 0.21100 -0.02800
H 	H 	0.71230 0.20250 0.32420 0.01600
H 	H 	0.61700 0.11150 0.32530 0.01500
H 	H 	0.63280 0.27020 0.40620 0.04800
H 	H 	0.62010 0.27420 0.49470 0.02200
H 	H 	0.71520 0.11860 0.34580 0.04700
H 	H 	0.62810 0.20710 0.34540 0.05000
H 	H 	0.71860 0.35730 0.58090 0.04800
H 	H 	0.70650 0.36970 0.48960 0.01600
H 	H 	0.60080 0.37460 0.49480 -0.02500
H 	H 	0.89430 0.10530 0.49700 -0.02900
H 	H 	0.78770 0.11190 0.49020 0.01500
H 	H 	0.88300 0.20830 0.49450 0.01400
H 	H 	0.86720 0.27340 0.63740 0.04700
H 	H 	0.87990 0.37460 0.65410 0.02100
H 	H 	0.78480 0.13060 0.40340 0.04700
H 	H 	0.87190 0.21730 0.57900 0.04900
H 	H 	0.78140 0.36230 0.63870 0.04800
H 	H 	0.79350 0.28310 0.66320 0.01600
H 	H 	0.89920 0.39400 0.77380 -0.02600
H 	H 	0.39170 0.39470 0.28900 -0.02600
H 	H 	0.37830 0.38810 0.17580 0.01700
H 	H 	0.28620 0.29170 0.17470 0.01600
H 	H 	0.36400 0.22660 0.09380 0.04900
H 	H 	0.27950 0.12540 0.00530 0.01500
H 	H 	0.27280 0.36940 0.15420 0.04800
H 	H 	0.36170 0.28270 0.15460 0.05000
H 	H 	0.27640 0.13770 0.91910 0.05300
H 	H 	0.38010 0.21690 0.01040 0.01300
H 	H 	0.37980 0.10600 0.00520 -0.03400
H 	H 	0.10830 0.39730 0.00300 -0.03100
H 	H 	0.12170 0.29750 0.00980 0.01600
H 	H 	0.21380 0.38850 0.00550 0.01000
H 	H 	0.13600 0.22980 0.86260 0.04900
H 	H 	0.22050 0.22580 0.84590 0.02400
H 	H 	0.22720 0.38140 0.09660 0.04900
H 	H 	0.13830 0.29290 0.92100 0.05800
H 	H 	0.22360 0.14270 0.86130 0.04700
H 	H 	0.11990 0.13030 0.83680 0.01800
H 	H 	0.12020 0.12540 0.72620 -0.02400
H 	H 	0.50300 0.10830 0.89730 -0.02500
H 	H 	0.50980 0.12170 0.79750 0.01700
H 	H 	0.50550 0.21380 0.88850 0.01900
H 	H 	0.36260 0.13600 0.72980 0.04800
H 	H 	0.34590 0.22050 0.72580 0.02300
H 	H 	0.59660 0.22720 0.88140 0.05000
H 	H 	0.42100 0.13830 0.79290 0.05000
H 	H 	0.36130 0.22360 0.64270 0.04800
H 	H 	0.33680 0.11990 0.63030 0.01500
H 	H 	0.22620 0.12020 0.62540 -0.02600
H 	H 	0.78900 0.39170 0.89470 -0.02400
H 	H 	0.67580 0.37830 0.88810 0.01900
H 	H 	0.67470 0.28620 0.79170 0.01700
H 	H 	0.59380 0.36400 0.72660 0.04900
H 	H 	0.50530 0.27950 0.62540 0.02200
H 	H 	0.65420 0.27280 0.86940 0.05000
H 	H 	0.65460 0.36170 0.78270 0.05100
H 	H 	0.41910 0.27640 0.63770 0.04800
H 	H 	0.51040 0.38010 0.71690 0.01700
H 	H 	0.50520 0.37980 0.60600 -0.02500
H 	H 	0.99700 0.89430 0.60530 -0.03200
H 	H 	0.99020 0.78770 0.61190 0.01400
H 	H 	0.99450 0.88300 0.70830 0.01100
H 	H 	0.13740 0.86720 0.77340 0.05000
H 	H 	0.15410 0.87990 0.87460 0.02700
H 	H 	0.90340 0.78480 0.63060 0.05000
H 	H 	0.07900 0.87190 0.71730 0.05900
H 	H 	0.13870 0.78140 0.86230 0.04900
H 	H 	0.16320 0.79350 0.78310 0.01900
H 	H 	0.27380 0.89920 0.89400 -0.02100
H 	H 	0.71100 0.60570 0.60270 -0.02600
H 	H 	0.82420 0.71230 0.70250 0.01800
H 	H 	0.82530 0.61700 0.61150 0.01600
H 	H 	0.90620 0.63280 0.77020 0.05000
H 	H 	0.99470 0.62010 0.77420 0.01500
H 	H 	0.84580 0.71520 0.61860 0.04800
H 	H 	0.84540 0.62810 0.70710 0.05000
H 	H 	0.08090 0.71860 0.85730 0.05500
H 	H 	0.98960 0.70650 0.86970 0.01500
H 	H 	0.99480 0.60080 0.87460 -0.03200
C 	C 	0.66030 0.26340 0.16230 -0.19200
C 	C 	0.62010 0.24220 0.12470 0.12400
C 	C 	0.62330 0.30820 0.13230 0.02600
C 	C 	0.66090 0.32820 0.16890 -0.01400
C 	C 	0.68140 0.30870 0.18670 0.02400
C 	C 	0.68510 0.37780 0.19470 -0.10400
C 	C 	0.67920 0.39980 0.22880 0.06700
C 	C 	0.68150 0.23810 0.17440 0.46100
C 	C 	0.71900 0.39910 0.18790 0.06900
C 	C 	0.76080 0.41000 0.15440 -0.07700
C 	C 	0.76990 0.45170 0.18760 0.06200
C 	C 	0.80040 0.49180 0.19740 -0.10700
C 	C 	0.80890 0.53100 0.22690 0.06500
C 	C 	0.86490 0.49410 0.19320 0.01800
C 	C 	0.64530 0.37630 0.23720 -0.07900
C 	C 	0.72920 0.37610 0.15510 -0.08300
C 	C 	0.82450 0.49060 0.17250 -0.01000
C 	C 	0.84360 0.57660 0.23580 -0.07400
C 	C 	0.81030 0.49080 0.13350 0.02400
C 	C 	0.89080 0.49670 0.17450 -0.17200
C 	C 	0.87680 0.49490 0.13410 0.10500
C 	C 	0.83670 0.49300 0.11450 -0.19800
C 	C 	0.60060 0.26210 0.10950 -0.20000
C 	C 	0.55630 0.23790 0.06940 0.47500
C 	C 	0.82260 0.49560 0.07300 0.52600
C 	C 	0.93620 0.50300 0.19720 0.44400
C 	C 	0.60110 0.49800 0.33770 -0.19000
C 	C 	0.61750 0.49540 0.37530 0.12300
C 	C 	0.67590 0.49100 0.36770 0.02500
C 	C 	0.65930 0.49200 0.33110 -0.01300
C 	C 	0.62200 0.49470 0.31330 0.02400
C 	C 	0.68310 0.49040 0.30530 -0.10400
C 	C 	0.67100 0.45040 0.27120 0.06700
C 	C 	0.56370 0.50710 0.32560 0.46000
C 	C 	0.71120 0.53110 0.31210 0.07000
C 	C 	0.75560 0.60640 0.34560 -0.07700
C 	C 	0.76410 0.58230 0.31240 0.06200
C 	C 	0.79440 0.60300 0.30260 -0.10700
C 	C 	0.80410 0.58200 0.27310 0.06500
C 	C 	0.80090 0.67170 0.30680 0.01700
C 	C 	0.63910 0.40810 0.26280 -0.07900
C 	C 	0.72100 0.57410 0.34490 -0.08300
C 	C 	0.81810 0.65200 0.32750 -0.00900
C 	C 	0.84080 0.60780 0.26420 -0.07400
C 	C 	0.85730 0.67680 0.36650 0.02300
C 	C 	0.82220 0.71630 0.32550 -0.17000
C 	C 	0.86080 0.74270 0.36590 0.10400
C 	C 	0.87850 0.72220 0.38550 -0.19600
C 	C 	0.65260 0.49110 0.39050 -0.19800
C 	C 	0.66850 0.48690 0.43060 0.47500
C 	C 	0.92260 0.74960 0.42700 0.52600
C 	C 	0.80580 0.73900 0.30280 0.44300
C 	C 	0.89890 0.23660 0.89690 -0.19000
C 	C 	0.88250 0.25780 0.87790 0.12300
C 	C 	0.82410 0.19180 0.81510 0.02500
C 	C 	0.84070 0.17180 0.83270 -0.01300
C 	C 	0.87800 0.19130 0.87270 0.02400
C 	C 	0.81690 0.12220 0.80730 -0.10500
C 	C 	0.82900 0.10020 0.77940 0.06700
C 	C 	0.93630 0.26190 0.94340 0.46000
C 	C 	0.78880 0.10090 0.81990 0.06900
C 	C 	0.74440 0.09000 0.85080 -0.07900
C 	C 	0.73590 0.04830 0.81820 0.06700
C 	C 	0.70560 0.00820 0.80860 -0.12400
C 	C 	0.69590 0.96900 0.77790 0.08400
C 	C 	0.69910 0.00590 0.87080 0.02500
C 	C 	0.86090 0.12370 0.76900 -0.07900
C 	C 	0.77900 0.12390 0.85310 -0.08200
C 	C 	0.68190 0.00940 0.83390 -0.01000
C 	C 	0.65920 0.92340 0.76700 -0.07700
C 	C 	0.64270 0.00920 0.81950 0.02400
C 	C 	0.67780 0.00330 0.89410 -0.18900
C 	C 	0.63920 0.00510 0.88190 0.11200
C 	C 	0.62150 0.00700 0.84370 -0.20000
C 	C 	0.84740 0.23790 0.83850 -0.19800
C 	C 	0.83150 0.26210 0.81840 0.47500
C 	C 	0.57740 0.00440 0.82700 0.52700
C 	C 	0.69420 0.99700 0.93320 0.47300
C 	C 	0.83970 0.00200 0.60310 -0.21000
C 	C 	0.87990 0.00460 0.62210 0.13400
C 	C 	0.87670 0.00900 0.68490 0.02900
C 	C 	0.83910 0.00800 0.66730 -0.01700
C 	C 	0.81860 0.00530 0.62730 0.03000
C 	C 	0.81490 0.00960 0.69270 -0.11900
C 	C 	0.82080 0.04960 0.72060 0.07000
C 	C 	0.81850 0.99290 0.55660 0.47600
C 	C 	0.78100 0.96890 0.68010 0.08600
C 	C 	0.73920 0.89360 0.64920 -0.07400
C 	C 	0.73010 0.91770 0.68180 0.06300
C 	C 	0.69960 0.89700 0.69140 -0.10600
C 	C 	0.69110 0.91800 0.72210 0.06600
C 	C 	0.63510 0.82830 0.62920 0.01600
C 	C 	0.85470 0.09190 0.73100 -0.08100
C 	C 	0.77080 0.92590 0.64690 -0.08700
C 	C 	0.67550 0.84800 0.66610 -0.00800
C 	C 	0.65640 0.89220 0.73300 -0.07000
C 	C 	0.68970 0.82320 0.68050 0.02200
C 	C 	0.60920 0.78370 0.60590 -0.16800
C 	C 	0.62320 0.75730 0.61810 0.10300
C 	C 	0.66330 0.77780 0.65630 -0.19400
C 	C 	0.89940 0.00890 0.66150 -0.20800
C 	C 	0.94370 0.01310 0.68160 0.47800
C 	C 	0.67740 0.75040 0.67300 0.52500
C 	C 	0.56380 0.76100 0.56680 0.44300
C 	C 	0.39690 0.89890 0.73660 -0.18600
C 	C 	0.37790 0.88250 0.75780 0.12100
C 	C 	0.31510 0.82410 0.69180 0.02300
C 	C 	0.33270 0.84070 0.67180 -0.01000
C 	C 	0.37270 0.87800 0.69130 0.02100
C 	C 	0.30730 0.81690 0.62220 -0.10500
C 	C 	0.27940 0.82900 0.60020 0.06900
C 	C 	0.44340 0.93630 0.76190 0.45800
C 	C 	0.31990 0.78880 0.60090 0.07100
C 	C 	0.35080 0.74440 0.59000 -0.07700
C 	C 	0.31820 0.73590 0.54830 0.06300
C 	C 	0.30860 0.70560 0.50820 -0.10700
C 	C 	0.27790 0.69590 0.46900 0.06600
C 	C 	0.37080 0.69910 0.50590 0.01600
C 	C 	0.26900 0.86090 0.62370 -0.07800
C 	C 	0.35310 0.77900 0.62390 -0.08300
C 	C 	0.33390 0.68190 0.50940 -0.00800
C 	C 	0.26700 0.65920 0.42340 -0.07300
C 	C 	0.31950 0.64270 0.50920 0.02200
C 	C 	0.39410 0.67780 0.50330 -0.16800
C 	C 	0.38190 0.63920 0.50510 0.10300
C 	C 	0.34370 0.62150 0.50700 -0.19400
C 	C 	0.33850 0.84740 0.73790 -0.19500
C 	C 	0.31840 0.83150 0.76210 0.47400
C 	C 	0.32700 0.57740 0.50440 0.52500
C 	C 	0.43320 0.69420 0.49700 0.44300
C 	C 	0.10310 0.83970 0.50200 -0.18400
C 	C 	0.12210 0.87990 0.50460 0.11900
C 	C 	0.18490 0.87670 0.50900 0.02200
C 	C 	0.16730 0.83910 0.50800 -0.00900
C 	C 	0.12730 0.81860 0.50530 0.02000
C 	C 	0.19270 0.81490 0.50960 -0.10500
C 	C 	0.22060 0.82080 0.54960 0.06900
C 	C 	0.05660 0.81850 0.49290 0.45800
C 	C 	0.18010 0.78100 0.46890 0.07100
C 	C 	0.14920 0.73920 0.39360 -0.07600
C 	C 	0.18180 0.73010 0.41770 0.06300
C 	C 	0.19140 0.69960 0.39700 -0.10700
C 	C 	0.22210 0.69110 0.41800 0.06600
C 	C 	0.12920 0.63510 0.32830 0.01500
C 	C 	0.23100 0.85470 0.59190 -0.07800
C 	C 	0.14690 0.77080 0.42590 -0.08200
C 	C 	0.16610 0.67550 0.34800 -0.00700
C 	C 	0.23300 0.65640 0.39220 -0.07300
C 	C 	0.18050 0.68970 0.32320 0.02100
C 	C 	0.10590 0.60920 0.28370 -0.16600
C 	C 	0.11810 0.62320 0.25730 0.10200
C 	C 	0.15630 0.66330 0.27780 -0.19300
C 	C 	0.16150 0.89940 0.50890 -0.19200
C 	C 	0.18160 0.94370 0.51310 0.47200
C 	C 	0.17300 0.67740 0.25040 0.52500
C 	C 	0.06680 0.56380 0.26100 0.44200
C 	C 	0.66230 0.66030 0.76340 -0.18900
C 	C 	0.62470 0.62010 0.74220 0.12300
C 	C 	0.63230 0.62330 0.80820 0.02500
C 	C 	0.66890 0.66090 0.82820 -0.01200
C 	C 	0.68670 0.68140 0.80870 0.02300
C 	C 	0.69470 0.68510 0.87780 -0.10400
C 	C 	0.72880 0.67920 0.89980 0.06800
C 	C 	0.67440 0.68150 0.73810 0.46000
C 	C 	0.68790 0.71900 0.89910 0.07100
C 	C 	0.65440 0.76080 0.91000 -0.07400
C 	C 	0.68760 0.76990 0.95170 0.05900
C 	C 	0.69740 0.80040 0.99180 -0.08900
C 	C 	0.72690 0.80890 0.03100 0.04600
C 	C 	0.69320 0.86490 0.99410 0.00500
C 	C 	0.73720 0.64530 0.87630 -0.07900
C 	C 	0.65510 0.72920 0.87610 -0.08300
C 	C 	0.67250 0.82450 0.99060 -0.00300
C 	C 	0.73580 0.84360 0.07660 -0.06900
C 	C 	0.63350 0.81030 0.99080 0.01900
C 	C 	0.67450 0.89080 0.99670 -0.14000
C 	C 	0.63410 0.87680 0.99490 0.09000
C 	C 	0.61450 0.83670 0.99300 -0.18500
C 	C 	0.60950 0.60060 0.76210 -0.19700
C 	C 	0.56940 0.55630 0.73790 0.47400
C 	C 	0.57300 0.82260 0.99560 0.52300
C 	C 	0.69720 0.93620 0.00300 0.40500
C 	C 	0.83770 0.60110 0.99800 -0.16900
C 	C 	0.87530 0.61750 0.99540 0.11300
C 	C 	0.86770 0.67590 0.99100 0.02300
C 	C 	0.83110 0.65930 0.99200 -0.01000
C 	C 	0.81330 0.62200 0.99470 0.01700
C 	C 	0.80530 0.68310 0.99040 -0.08700
C 	C 	0.77120 0.67100 0.95040 0.06400
C 	C 	0.82560 0.56370 0.00710 0.44300
C 	C 	0.81210 0.71120 0.03110 0.05000
C 	C 	0.84560 0.75560 0.10640 -0.08100
C 	C 	0.81240 0.76410 0.08230 0.06200
C 	C 	0.80260 0.79440 0.10300 -0.10900
C 	C 	0.77310 0.80410 0.08200 0.06500
C 	C 	0.80680 0.80090 0.17170 0.01700
C 	C 	0.76280 0.63910 0.90810 -0.07600
C 	C 	0.84490 0.72100 0.07410 -0.07800
C 	C 	0.82750 0.81810 0.15200 -0.00900
C 	C 	0.76420 0.84080 0.10780 -0.07600
C 	C 	0.86650 0.85730 0.17680 0.02300
C 	C 	0.82550 0.82220 0.21630 -0.17000
C 	C 	0.86590 0.86080 0.24270 0.10400
C 	C 	0.88550 0.87850 0.22220 -0.19600
C 	C 	0.89050 0.65260 0.99110 -0.19100
C 	C 	0.93060 0.66850 0.98690 0.47300
C 	C 	0.92700 0.92260 0.24960 0.52600
C 	C 	0.80280 0.80580 0.23900 0.44300
C 	C 	0.49800 0.83770 0.10110 -0.19200
C 	C 	0.49540 0.87530 0.11750 0.12400
C 	C 	0.49100 0.86770 0.17590 0.02500
C 	C 	0.49200 0.83110 0.15930 -0.01300
C 	C 	0.49470 0.81330 0.12200 0.02400
C 	C 	0.49040 0.80530 0.18310 -0.10400
C 	C 	0.45040 0.77120 0.17100 0.06700
C 	C 	0.50710 0.82560 0.06370 0.46200
C 	C 	0.53110 0.81210 0.21120 0.07000
C 	C 	0.60640 0.84560 0.25560 -0.07700
C 	C 	0.58230 0.81240 0.26410 0.06300
C 	C 	0.60300 0.80260 0.29440 -0.10700
C 	C 	0.58200 0.77310 0.30410 0.06600
C 	C 	0.67170 0.80680 0.30090 0.01600
C 	C 	0.40810 0.76280 0.13910 -0.07900
C 	C 	0.57410 0.84490 0.22100 -0.08200
C 	C 	0.65200 0.82750 0.31810 -0.00800
C 	C 	0.60780 0.76420 0.34080 -0.07300
C 	C 	0.67680 0.86650 0.35730 0.02200
C 	C 	0.71630 0.82550 0.32220 -0.16800
C 	C 	0.74270 0.86590 0.36080 0.10300
C 	C 	0.72220 0.88550 0.37850 -0.19300
C 	C 	0.49110 0.89050 0.15260 -0.19800
C 	C 	0.48690 0.93060 0.16850 0.47500
C 	C 	0.74960 0.92700 0.42260 0.52500
C 	C 	0.73900 0.80280 0.30580 0.44300
C 	C 	0.26340 0.66230 0.16030 -0.19100
C 	C 	0.24220 0.62470 0.12010 0.12400
C 	C 	0.30820 0.63230 0.12330 0.02600
C 	C 	0.32820 0.66890 0.16090 -0.01400
C 	C 	0.30870 0.68670 0.18140 0.02400
C 	C 	0.37780 0.69470 0.18510 -0.10400
C 	C 	0.39980 0.72880 0.17920 0.06700
C 	C 	0.23810 0.67440 0.18150 0.46000
C 	C 	0.39910 0.68790 0.21900 0.07000
C 	C 	0.41000 0.65440 0.26080 -0.07700
C 	C 	0.45170 0.68760 0.26990 0.06300
C 	C 	0.49180 0.69740 0.30040 -0.10700
C 	C 	0.53100 0.72690 0.30890 0.06600
C 	C 	0.49410 0.69320 0.36490 0.01600
C 	C 	0.37630 0.73720 0.14530 -0.07900
C 	C 	0.37610 0.65510 0.22920 -0.08300
C 	C 	0.49060 0.67250 0.32450 -0.00800
C 	C 	0.57660 0.73580 0.34360 -0.07300
C 	C 	0.49080 0.63350 0.31030 0.02200
C 	C 	0.49670 0.67450 0.39080 -0.16800
C 	C 	0.49490 0.63410 0.37680 0.10300
C 	C 	0.49300 0.61450 0.33670 -0.19500
C 	C 	0.26210 0.60950 0.10060 -0.20000
C 	C 	0.23790 0.56940 0.05630 0.47600
C 	C 	0.49560 0.57300 0.32260 0.52500
C 	C 	0.50300 0.69720 0.43620 0.44300
C 	C 	0.00200 0.10310 0.33970 -0.17300
C 	C 	0.00460 0.12210 0.37990 0.11500
C 	C 	0.00900 0.18490 0.37670 0.02400
C 	C 	0.00800 0.16730 0.33910 -0.01100
C 	C 	0.00530 0.12730 0.31860 0.01800
C 	C 	0.00960 0.19270 0.31490 -0.08700
C 	C 	0.04960 0.22060 0.32080 0.06300
C 	C 	0.99290 0.05660 0.31850 0.44500
C 	C 	0.96890 0.18010 0.28100 0.04900
C 	C 	0.89360 0.14920 0.23920 -0.08100
C 	C 	0.91770 0.18180 0.23010 0.06100
C 	C 	0.89700 0.19140 0.19960 -0.10800
C 	C 	0.91800 0.22210 0.19110 0.06400
C 	C 	0.82830 0.12920 0.13510 0.01800
C 	C 	0.09190 0.23100 0.35470 -0.07600
C 	C 	0.92590 0.14690 0.27080 -0.07800
C 	C 	0.84800 0.16610 0.17550 -0.01000
C 	C 	0.89220 0.23300 0.15640 -0.07700
C 	C 	0.82320 0.18050 0.18970 0.02400
C 	C 	0.78370 0.10590 0.10920 -0.17300
C 	C 	0.75730 0.11810 0.12320 0.10500
C 	C 	0.77780 0.15630 0.16330 -0.19800
C 	C 	0.00890 0.16150 0.39940 -0.19200
C 	C 	0.01310 0.18160 0.44370 0.47300
C 	C 	0.75040 0.17300 0.17740 0.52600
C 	C 	0.76100 0.06680 0.06380 0.44400
C 	C 	0.23660 0.39690 0.39890 -0.19000
C 	C 	0.25780 0.37790 0.38250 0.12300
C 	C 	0.19180 0.31510 0.32410 0.02500
C 	C 	0.17180 0.33270 0.34070 -0.01200
C 	C 	0.19130 0.37270 0.37800 0.02300
C 	C 	0.12220 0.30730 0.31690 -0.10400
C 	C 	0.10020 0.27940 0.32900 0.06800
C 	C 	0.26190 0.44340 0.43630 0.46000
C 	C 	0.10090 0.31990 0.28880 0.07100
C 	C 	0.09000 0.35080 0.24440 -0.07400
C 	C 	0.04830 0.31820 0.23590 0.05800
C 	C 	0.00820 0.30860 0.20560 -0.08800
C 	C 	0.96900 0.27790 0.19590 0.04300
C 	C 	0.00590 0.37080 0.19910 0.00400
C 	C 	0.12370 0.26900 0.36090 -0.08000
C 	C 	0.12390 0.35310 0.27900 -0.08300
C 	C 	0.00940 0.33390 0.18190 -0.00400
C 	C 	0.92340 0.26700 0.15920 -0.07000
C 	C 	0.00920 0.31950 0.14270 0.01900
C 	C 	0.00330 0.39410 0.17780 -0.13900
C 	C 	0.00510 0.38190 0.13920 0.09000
C 	C 	0.00700 0.34370 0.12150 -0.18700
C 	C 	0.23790 0.33850 0.34740 -0.19800
C 	C 	0.26210 0.31840 0.33150 0.47500
C 	C 	0.00440 0.32700 0.07740 0.52300
C 	C 	0.99700 0.43320 0.19420 0.40100
C 	C 	0.33970 0.73660 0.83770 -0.18800
C 	C 	0.37990 0.75780 0.87530 0.12200
C 	C 	0.37670 0.69180 0.86770 0.02400
C 	C 	0.33910 0.67180 0.83110 -0.01100
C 	C 	0.31860 0.69130 0.81330 0.02200
C 	C 	0.31490 0.62220 0.80530 -0.10500
C 	C 	0.32080 0.60020 0.77120 0.06800
C 	C 	0.31850 0.76190 0.82560 0.46000
C 	C 	0.28100 0.60090 0.81210 0.07100
C 	C 	0.23920 0.59000 0.84560 -0.07600
C 	C 	0.23010 0.54830 0.81240 0.06400
C 	C 	0.19960 0.50820 0.80260 -0.10800
C 	C 	0.19110 0.46900 0.77310 0.06700
C 	C 	0.13510 0.50590 0.80680 0.01400
C 	C 	0.35470 0.62370 0.76280 -0.07900
C 	C 	0.27080 0.62390 0.84490 -0.08200
C 	C 	0.17550 0.50940 0.82750 -0.00600
C 	C 	0.15640 0.42340 0.76420 -0.07300
C 	C 	0.18970 0.50920 0.86650 0.02000
C 	C 	0.10920 0.50330 0.82550 -0.16400
C 	C 	0.12320 0.50510 0.86590 0.10100
C 	C 	0.16330 0.50700 0.88550 -0.19000
C 	C 	0.39940 0.73790 0.89050 -0.19500
C 	C 	0.44370 0.76210 0.93060 0.47400
C 	C 	0.17740 0.50440 0.92700 0.52400
C 	C 	0.06380 0.49700 0.80280 0.44100
C 	C 	0.39890 0.50200 0.66230 -0.19000
C 	C 	0.38250 0.50460 0.62470 0.12300
C 	C 	0.32410 0.50900 0.63230 0.02500
C 	C 	0.34070 0.50800 0.66890 -0.01200
C 	C 	0.37800 0.50530 0.68670 0.02300
C 	C 	0.31690 0.50960 0.69470 -0.10400
C 	C 	0.32900 0.54960 0.72880 0.06800
C 	C 	0.43630 0.49290 0.67440 0.46000
C 	C 	0.28880 0.46890 0.68790 0.07000
C 	C 	0.24440 0.39360 0.65440 -0.07700
C 	C 	0.23590 0.41770 0.68760 0.06300
C 	C 	0.20560 0.39700 0.69740 -0.10700
C 	C 	0.19590 0.41800 0.72690 0.06600
C 	C 	0.19910 0.32830 0.69320 0.01600
C 	C 	0.36090 0.59190 0.73720 -0.07900
C 	C 	0.27900 0.42590 0.65510 -0.08300
C 	C 	0.18190 0.34800 0.67250 -0.00700
C 	C 	0.15920 0.39220 0.73580 -0.07200
C 	C 	0.14270 0.32320 0.63350 0.02200
C 	C 	0.17780 0.28370 0.67450 -0.16800
C 	C 	0.13920 0.25730 0.63410 0.10300
C 	C 	0.12150 0.27780 0.61450 -0.19300
C 	C 	0.34740 0.50890 0.60950 -0.19700
C 	C 	0.33150 0.51310 0.56940 0.47500
C 	C 	0.07740 0.25040 0.57300 0.52500
C 	C 	0.19420 0.26100 0.69720 0.44300
C 	C 	0.10110 0.76340 0.10310 -0.18800
C 	C 	0.11750 0.74220 0.12210 0.12200
C 	C 	0.17590 0.80820 0.18490 0.02400
C 	C 	0.15930 0.82820 0.16730 -0.01100
C 	C 	0.12200 0.80870 0.12730 0.02200
C 	C 	0.18310 0.87780 0.19270 -0.10400
C 	C 	0.17100 0.89980 0.22060 0.06900
C 	C 	0.06370 0.73810 0.05660 0.46000
C 	C 	0.21120 0.89910 0.18010 0.07100
C 	C 	0.25560 0.91000 0.14920 -0.07400
C 	C 	0.26410 0.95170 0.18180 0.05800
C 	C 	0.29440 0.99180 0.19140 -0.08700
C 	C 	0.30410 0.03100 0.22210 0.04400
C 	C 	0.30090 0.99410 0.12920 0.00500
C 	C 	0.13910 0.87630 0.23100 -0.07900
C 	C 	0.22100 0.87610 0.14690 -0.08400
C 	C 	0.31810 0.99060 0.16610 -0.00500
C 	C 	0.34080 0.07660 0.23300 -0.06900
C 	C 	0.35730 0.99080 0.18050 0.01900
C 	C 	0.32220 0.99670 0.10590 -0.14100
C 	C 	0.36080 0.99490 0.11810 0.09000
C 	C 	0.37850 0.99300 0.15630 -0.18600
C 	C 	0.15260 0.76210 0.16150 -0.19700
C 	C 	0.16850 0.73790 0.18160 0.47400
C 	C 	0.42260 0.99560 0.17300 0.52300
C 	C 	0.30580 0.00300 0.06680 0.40200
C 	C 	0.16030 0.99800 0.39690 -0.16400
C 	C 	0.12010 0.99540 0.37790 0.11000
C 	C 	0.12330 0.99100 0.31510 0.02000
C 	C 	0.16090 0.99200 0.33270 -0.00700
C 	C 	0.18140 0.99470 0.37270 0.01400
C 	C 	0.18510 0.99040 0.30730 -0.08600
C 	C 	0.17920 0.95040 0.27940 0.06400
C 	C 	0.18150 0.00710 0.44340 0.44100
C 	C 	0.21900 0.03110 0.31990 0.04900
C 	C 	0.26080 0.10640 0.35080 -0.08100
C 	C 	0.26990 0.08230 0.31820 0.06200
C 	C 	0.30040 0.10300 0.30860 -0.10900
C 	C 	0.30890 0.08200 0.27790 0.06500
C 	C 	0.36490 0.17170 0.37080 0.01700
C 	C 	0.14530 0.90810 0.26900 -0.07600
C 	C 	0.22920 0.07410 0.35310 -0.07700
C 	C 	0.32450 0.15200 0.33390 -0.00900
C 	C 	0.34360 0.10780 0.26700 -0.07700
C 	C 	0.31030 0.17680 0.31950 0.02200
C 	C 	0.39080 0.21630 0.39410 -0.16900
C 	C 	0.37680 0.24270 0.38190 0.10300
C 	C 	0.33670 0.22220 0.34370 -0.19500
C 	C 	0.10060 0.99110 0.33850 -0.18500
C 	C 	0.05630 0.98690 0.31840 0.47100
C 	C 	0.32260 0.24960 0.32700 0.52500
C 	C 	0.43620 0.23900 0.43320 0.44300
C 	C 	0.60310 0.10110 0.26340 -0.19400
C 	C 	0.62210 0.11750 0.24220 0.12500
C 	C 	0.68490 0.17590 0.30820 0.02700
C 	C 	0.66730 0.15930 0.32820 -0.01500
C 	C 	0.62730 0.12200 0.30870 0.02500
C 	C 	0.69270 0.18310 0.37780 -0.10400
C 	C 	0.72060 0.17100 0.39980 0.06700
C 	C 	0.55660 0.06370 0.23810 0.46200
C 	C 	0.68010 0.21120 0.39910 0.06900
C 	C 	0.64920 0.25560 0.41000 -0.07700
C 	C 	0.68180 0.26410 0.45170 0.06200
C 	C 	0.69140 0.29440 0.49180 -0.10700
C 	C 	0.72210 0.30410 0.53100 0.06500
C 	C 	0.62920 0.30090 0.49410 0.01700
C 	C 	0.73100 0.13910 0.37630 -0.07900
C 	C 	0.64690 0.22100 0.37610 -0.08300
C 	C 	0.66610 0.31810 0.49060 -0.00900
C 	C 	0.73300 0.34080 0.57660 -0.07300
C 	C 	0.68050 0.35730 0.49080 0.02300
C 	C 	0.60590 0.32220 0.49670 -0.16900
C 	C 	0.61810 0.36080 0.49490 0.10300
C 	C 	0.65630 0.37850 0.49300 -0.19500
C 	C 	0.66150 0.15260 0.26210 -0.20100
C 	C 	0.68160 0.16850 0.23790 0.47500
C 	C 	0.67300 0.42260 0.49560 0.52500
C 	C 	0.56680 0.30580 0.50300 0.44300
C 	C 	0.89690 0.16030 0.49800 -0.19500
C 	C 	0.87790 0.12010 0.49540 0.12600
C 	C 	0.81510 0.12330 0.49100 0.02800
C 	C 	0.83270 0.16090 0.49200 -0.01600
C 	C 	0.87270 0.18140 0.49470 0.02600
C 	C 	0.80730 0.18510 0.49040 -0.10400
C 	C 	0.77940 0.17920 0.45040 0.06700
C 	C 	0.94340 0.18150 0.50710 0.46200
C 	C 	0.81990 0.21900 0.53110 0.06900
C 	C 	0.85080 0.26080 0.60640 -0.07800
C 	C 	0.81820 0.26990 0.58230 0.06200
C 	C 	0.80860 0.30040 0.60300 -0.10700
C 	C 	0.77790 0.30890 0.58200 0.06500
C 	C 	0.87080 0.36490 0.67170 0.01700
C 	C 	0.76900 0.14530 0.40810 -0.07900
C 	C 	0.85310 0.22920 0.57410 -0.08300
C 	C 	0.83390 0.32450 0.65200 -0.00900
C 	C 	0.76700 0.34360 0.60780 -0.07300
C 	C 	0.81950 0.31030 0.67680 0.02300
C 	C 	0.89410 0.39080 0.71630 -0.17000
C 	C 	0.88190 0.37680 0.74270 0.10400
C 	C 	0.84370 0.33670 0.72220 -0.19600
C 	C 	0.83850 0.10060 0.49110 -0.20300
C 	C 	0.81840 0.05630 0.48690 0.47700
C 	C 	0.82700 0.32260 0.74960 0.52500
C 	C 	0.93320 0.43620 0.73900 0.44300
C 	C 	0.33770 0.33970 0.23660 -0.19100
C 	C 	0.37530 0.37990 0.25780 0.12300
C 	C 	0.36770 0.37670 0.19180 0.02500
C 	C 	0.33110 0.33910 0.17180 -0.01300
C 	C 	0.31330 0.31860 0.19130 0.02400
C 	C 	0.30530 0.31490 0.12220 -0.10500
C 	C 	0.27120 0.32080 0.10020 0.06700
C 	C 	0.32560 0.31850 0.26190 0.46000
C 	C 	0.31210 0.28100 0.10090 0.06900
C 	C 	0.34560 0.23920 0.09000 -0.08000
C 	C 	0.31240 0.23010 0.04830 0.06700
C 	C 	0.30260 0.19960 0.00820 -0.12500
C 	C 	0.27310 0.19110 0.96900 0.08600
C 	C 	0.30680 0.13510 0.00590 0.02800
C 	C 	0.26280 0.35470 0.12370 -0.07800
C 	C 	0.34490 0.27080 0.12390 -0.08200
C 	C 	0.32750 0.17550 0.00940 -0.01300
C 	C 	0.26420 0.15640 0.92340 -0.07700
C 	C 	0.36650 0.18970 0.00920 0.02600
C 	C 	0.32550 0.10920 0.00330 -0.19700
C 	C 	0.36590 0.12320 0.00510 0.11600
C 	C 	0.38550 0.16330 0.00700 -0.20400
C 	C 	0.39050 0.39940 0.23790 -0.19800
C 	C 	0.43060 0.44370 0.26210 0.47500
C 	C 	0.42700 0.17740 0.00440 0.52800
C 	C 	0.30280 0.06380 0.99700 0.48100
C 	C 	0.16230 0.39890 0.00200 -0.21000
C 	C 	0.12470 0.38250 0.00460 0.13300
C 	C 	0.13230 0.32410 0.00900 0.02700
C 	C 	0.16890 0.34070 0.00800 -0.01500
C 	C 	0.18670 0.37800 0.00530 0.03000
C 	C 	0.19470 0.31690 0.00960 -0.12100
C 	C 	0.22880 0.32900 0.04960 0.07100
C 	C 	0.17440 0.43630 0.99290 0.47700
C 	C 	0.18790 0.28880 0.96890 0.09000
C 	C 	0.15440 0.24440 0.89360 -0.07300
C 	C 	0.18760 0.23590 0.91770 0.06300
C 	C 	0.19740 0.20560 0.89700 -0.10600
C 	C 	0.22690 0.19590 0.91800 0.06600
C 	C 	0.19320 0.19910 0.82830 0.01600
C 	C 	0.23720 0.36090 0.09190 -0.08100
C 	C 	0.15510 0.27900 0.92590 -0.08700
C 	C 	0.17250 0.18190 0.84800 -0.00800
C 	C 	0.23580 0.15920 0.89220 -0.07000
C 	C 	0.13350 0.14270 0.82320 0.02200
C 	C 	0.17450 0.17780 0.78370 -0.16800
C 	C 	0.13410 0.13920 0.75730 0.10300
C 	C 	0.11450 0.12150 0.77780 -0.19300
C 	C 	0.10950 0.34740 0.00890 -0.20400
C 	C 	0.06940 0.33150 0.01310 0.47600
C 	C 	0.07300 0.07740 0.75040 0.52500
C 	C 	0.19720 0.19420 0.76100 0.44300
C 	C 	0.50200 0.16230 0.89890 -0.18700
C 	C 	0.50460 0.12470 0.88250 0.12200
C 	C 	0.50900 0.13230 0.82410 0.02400
C 	C 	0.50800 0.16890 0.84070 -0.01200
C 	C 	0.50530 0.18670 0.87800 0.02200
C 	C 	0.50960 0.19470 0.81690 -0.10500
C 	C 	0.54960 0.22880 0.82900 0.06800
C 	C 	0.49290 0.17440 0.93630 0.45900
C 	C 	0.46890 0.18790 0.78880 0.07000
C 	C 	0.39360 0.15440 0.74440 -0.07700
C 	C 	0.41770 0.18760 0.73590 0.06200
C 	C 	0.39700 0.19740 0.70560 -0.10700
C 	C 	0.41800 0.22690 0.69590 0.06500
C 	C 	0.32830 0.19320 0.69910 0.01700
C 	C 	0.59190 0.23720 0.86090 -0.07900
C 	C 	0.42590 0.15510 0.77900 -0.08300
C 	C 	0.34800 0.17250 0.68190 -0.00900
C 	C 	0.39220 0.23580 0.65920 -0.07300
C 	C 	0.32320 0.13350 0.64270 0.02300
C 	C 	0.28370 0.17450 0.67780 -0.16900
C 	C 	0.25730 0.13410 0.63920 0.10400
C 	C 	0.27780 0.11450 0.62150 -0.19600
C 	C 	0.50890 0.10950 0.84740 -0.19700
C 	C 	0.51310 0.06940 0.83150 0.47400
C 	C 	0.25040 0.07300 0.57740 0.52600
C 	C 	0.26100 0.19720 0.69420 0.44300
C 	C 	0.73660 0.33770 0.83970 -0.18900
C 	C 	0.75780 0.37530 0.87990 0.12200
C 	C 	0.69180 0.36770 0.87670 0.02400
C 	C 	0.67180 0.33110 0.83910 -0.01100
C 	C 	0.69130 0.31330 0.81860 0.02300
C 	C 	0.62220 0.30530 0.81490 -0.10400
C 	C 	0.60020 0.27120 0.82080 0.06800
C 	C 	0.76190 0.32560 0.81850 0.46000
C 	C 	0.60090 0.31210 0.78100 0.07000
C 	C 	0.59000 0.34560 0.73920 -0.07700
C 	C 	0.54830 0.31240 0.73010 0.06300
C 	C 	0.50820 0.30260 0.69960 -0.10700
C 	C 	0.46900 0.27310 0.69110 0.06500
C 	C 	0.50590 0.30680 0.63510 0.01700
C 	C 	0.62370 0.26280 0.85470 -0.07800
C 	C 	0.62390 0.34490 0.77080 -0.08300
C 	C 	0.50940 0.32750 0.67550 -0.00800
C 	C 	0.42340 0.26420 0.65640 -0.07300
C 	C 	0.50920 0.36650 0.68970 0.02200
C 	C 	0.50330 0.32550 0.60920 -0.16900
C 	C 	0.50510 0.36590 0.62320 0.10300
C 	C 	0.50700 0.38550 0.66330 -0.19500
C 	C 	0.73790 0.39050 0.89940 -0.19500
C 	C 	0.76210 0.43060 0.94370 0.47300
C 	C 	0.50440 0.42700 0.67740 0.52500
C 	C 	0.49700 0.30280 0.56380 0.44300
C 	C 	0.99800 0.89690 0.66030 -0.21200
C 	C 	0.99540 0.87790 0.62010 0.13400
C 	C 	0.99100 0.81510 0.62330 0.02700
C 	C 	0.99200 0.83270 0.66090 -0.01500
C 	C 	0.99470 0.87270 0.68140 0.03000
C 	C 	0.99040 0.80730 0.68510 -0.12500
C 	C 	0.95040 0.77940 0.67920 0.07200
C 	C 	0.00710 0.94340 0.68150 0.48000
C 	C 	0.03110 0.81990 0.71900 0.09400
C 	C 	0.10640 0.85080 0.76080 -0.07200
C 	C 	0.08230 0.81820 0.76990 0.06400
C 	C 	0.10300 0.80860 0.80040 -0.10600
C 	C 	0.08200 0.77790 0.80890 0.06700
C 	C 	0.17170 0.87080 0.86490 0.01400
C 	C 	0.90810 0.76900 0.64530 -0.08200
C 	C 	0.07410 0.85310 0.72920 -0.08800
C 	C 	0.15200 0.83390 0.82450 -0.00500
C 	C 	0.10780 0.76700 0.84360 -0.06900
C 	C 	0.17680 0.81950 0.81030 0.02000
C 	C 	0.21630 0.89410 0.89080 -0.16200
C 	C 	0.24270 0.88190 0.87680 0.10000
C 	C 	0.22220 0.84370 0.83670 -0.19100
C 	C 	0.99110 0.83850 0.60060 -0.20600
C 	C 	0.98690 0.81840 0.55630 0.47700
C 	C 	0.24960 0.82700 0.82260 0.52400
C 	C 	0.23900 0.93320 0.93620 0.44000
C 	C 	0.76340 0.60310 0.60110 -0.19000
C 	C 	0.74220 0.62210 0.61750 0.12300
C 	C 	0.80820 0.68490 0.67590 0.02500
C 	C 	0.82820 0.66730 0.65930 -0.01300
C 	C 	0.80870 0.62730 0.62200 0.02400
C 	C 	0.87780 0.69270 0.68310 -0.10400
C 	C 	0.89980 0.72060 0.67100 0.06700
C 	C 	0.73810 0.55660 0.56370 0.46000
C 	C 	0.89910 0.68010 0.71120 0.06900
C 	C 	0.91000 0.64920 0.75560 -0.08000
C 	C 	0.95170 0.68180 0.76410 0.06800
C 	C 	0.99180 0.69140 0.79440 -0.12900
C 	C 	0.03100 0.72210 0.80410 0.09000
C 	C 	0.99410 0.62920 0.80090 0.02800
C 	C 	0.87630 0.73100 0.63910 -0.07800
C 	C 	0.87610 0.64690 0.72100 -0.08200
C 	C 	0.99060 0.66610 0.81810 -0.01100
C 	C 	0.07660 0.73300 0.84080 -0.07700
C 	C 	0.99080 0.68050 0.85730 0.02500
C 	C 	0.99670 0.60590 0.82220 -0.19700
C 	C 	0.99490 0.61810 0.86080 0.11600
C 	C 	0.99300 0.65630 0.87850 -0.20200
C 	C 	0.76210 0.66150 0.65260 -0.19800
C 	C 	0.73790 0.68160 0.66850 0.47500
C 	C 	0.99560 0.67300 0.92260 0.52700
C 	C 	0.00300 0.56680 0.80580 0.48400
N 	N 	0.74350 0.44370 0.20640 -0.29200
N 	N 	0.73730 0.53710 0.29360 -0.29200
N 	N 	0.76270 0.05630 0.79980 -0.29500
N 	N 	0.75650 0.96290 0.70020 -0.29100
N 	N 	0.29980 0.76270 0.55630 -0.29200
N 	N 	0.20020 0.75650 0.46290 -0.29200
N 	N 	0.70640 0.74350 0.94370 -0.28900
N 	N 	0.79360 0.73730 0.03710 -0.29400
N 	N 	0.53710 0.79360 0.23730 -0.29200
N 	N 	0.44370 0.70640 0.24350 -0.29200
N 	N 	0.96290 0.20020 0.25650 -0.29400
N 	N 	0.05630 0.29980 0.26270 -0.28900
N 	N 	0.25650 0.55630 0.79360 -0.29200
N 	N 	0.26270 0.46290 0.70640 -0.29200
N 	N 	0.23730 0.94370 0.20020 -0.28900
N 	N 	0.24350 0.03710 0.29980 -0.29400
N 	N 	0.70020 0.23730 0.44370 -0.29200
N 	N 	0.79980 0.24350 0.53710 -0.29200
N 	N 	0.29360 0.25650 0.05630 -0.29500
N 	N 	0.20640 0.26270 0.96290 -0.29000
N 	N 	0.46290 0.20640 0.76270 -0.29200
N 	N 	0.55630 0.29360 0.75650 -0.29200
N 	N 	0.03710 0.79980 0.74350 -0.29000
N 	N 	0.94370 0.70020 0.73730 -0.29500
N 	N 	0.69390 0.44390 0.25000 -0.29000
N 	N 	0.78790 0.53790 0.25000 -0.29500
N 	N 	0.80610 0.05610 0.75000 -0.29200
N 	N 	0.71210 0.96210 0.75000 -0.29400
N 	N 	0.25000 0.80610 0.55610 -0.28900
N 	N 	0.25000 0.71210 0.46210 -0.29400
N 	N 	0.75000 0.69390 0.94390 -0.28700
N 	N 	0.75000 0.78790 0.03790 -0.29600
N 	N 	0.44390 0.75000 0.19390 -0.28900
N 	N 	0.53790 0.75000 0.28790 -0.29500
N 	N 	0.05610 0.25000 0.30610 -0.28700
N 	N 	0.96210 0.25000 0.21210 -0.29600
N 	N 	0.30610 0.55610 0.75000 -0.28900
N 	N 	0.21210 0.46210 0.75000 -0.29400
N 	N 	0.19390 0.94390 0.25000 -0.28600
N 	N 	0.28790 0.03790 0.25000 -0.29600
N 	N 	0.75000 0.19390 0.44390 -0.29000
N 	N 	0.75000 0.28790 0.53790 -0.29500
N 	N 	0.25000 0.30610 0.05610 -0.29200
N 	N 	0.25000 0.21210 0.96210 -0.29300
N 	N 	0.55610 0.25000 0.80610 -0.28900
N 	N 	0.46210 0.25000 0.71210 -0.29500
N 	N 	0.94390 0.75000 0.69390 -0.29300
N 	N 	0.03790 0.75000 0.78790 -0.29300
O 	O 	0.53790 0.19600 0.04870 -0.60800
O 	O 	0.84610 0.49540 0.05650 -0.60900
O 	O 	0.71560 0.25890 0.21090 -0.54000
O 	O 	0.78870 0.49670 0.05780 -0.59300
O 	O 	0.54180 0.26040 0.05920 -0.56500
O 	O 	0.94720 0.49820 0.22980 -0.56200
O 	O 	0.66240 0.19740 0.14860 -0.57600
O 	O 	0.95900 0.51410 0.18010 -0.56500
O 	O 	0.64730 0.48920 0.45130 -0.60500
O 	O 	0.93890 0.78960 0.44350 -0.60800
O 	O 	0.54800 0.50470 0.28910 -0.53900
O 	O 	0.93890 0.73090 0.44220 -0.59300
O 	O 	0.70120 0.48260 0.44080 -0.56300
O 	O 	0.76840 0.71740 0.27020 -0.55700
O 	O 	0.54880 0.51380 0.35140 -0.57400
O 	O 	0.83400 0.77890 0.31990 -0.56000
O 	O 	0.85270 0.30400 0.84190 -0.60500
O 	O 	0.56110 0.00460 0.85070 -0.60700
O 	O 	0.95200 0.24110 0.95670 -0.53900
O 	O 	0.56110 0.00330 0.79200 -0.59300
O 	O 	0.79880 0.23960 0.78140 -0.56300
O 	O 	0.73160 0.00180 0.94900 -0.56700
O 	O 	0.95120 0.30260 0.96500 -0.57300
O 	O 	0.66600 0.98590 0.94490 -0.55200
O 	O 	0.96210 0.01080 0.65810 -0.61600
O 	O 	0.65390 0.71040 0.64930 -0.60400
O 	O 	0.78440 0.99530 0.54330 -0.53600
O 	O 	0.71130 0.76910 0.70800 -0.58800
O 	O 	0.95820 0.01740 0.71860 -0.57200
O 	O 	0.55280 0.78260 0.55100 -0.55600
O 	O 	0.83760 0.98620 0.53500 -0.57300
O 	O 	0.54100 0.72110 0.55510 -0.55900
O 	O 	0.34190 0.85270 0.80400 -0.60200
O 	O 	0.35070 0.56110 0.50460 -0.60400
O 	O 	0.45670 0.95200 0.74110 -0.53100
O 	O 	0.29200 0.56110 0.50330 -0.58900
O 	O 	0.28140 0.79880 0.73960 -0.56100
O 	O 	0.44900 0.73160 0.50180 -0.55600
O 	O 	0.46500 0.95120 0.80260 -0.56600
O 	O 	0.44490 0.66600 0.48590 -0.55900
O 	O 	0.15810 0.96210 0.51080 -0.59400
O 	O 	0.14930 0.65390 0.21040 -0.60300
O 	O 	0.04330 0.78440 0.49530 -0.52900
O 	O 	0.20800 0.71130 0.26910 -0.58800
O 	O 	0.21860 0.95820 0.51740 -0.55400
O 	O 	0.05100 0.55280 0.28260 -0.54900
O 	O 	0.03500 0.83760 0.48620 -0.56200
O 	O 	0.05510 0.54100 0.22110 -0.55200
O 	O 	0.54870 0.53790 0.69600 -0.60400
O 	O 	0.55650 0.84610 0.99540 -0.59900
O 	O 	0.71090 0.71560 0.75890 -0.53800
O 	O 	0.55780 0.78870 0.99670 -0.58400
O 	O 	0.55920 0.54180 0.76040 -0.56100
O 	O 	0.72980 0.94720 0.99820 -0.52900
O 	O 	0.64860 0.66240 0.69740 -0.57400
O 	O 	0.68010 0.95900 0.01410 -0.55000
O 	O 	0.95130 0.64730 0.98920 -0.60300
O 	O 	0.94350 0.93890 0.28960 -0.60600
O 	O 	0.78910 0.54800 0.00470 -0.54100
O 	O 	0.94220 0.93890 0.23090 -0.59100
O 	O 	0.94080 0.70120 0.98260 -0.56100
O 	O 	0.77020 0.76840 0.21740 -0.55700
O 	O 	0.85140 0.54880 0.01380 -0.57700
O 	O 	0.81990 0.83400 0.27890 -0.55900
O 	O 	0.48920 0.95130 0.14730 -0.60200
O 	O 	0.78960 0.94350 0.43890 -0.60200
O 	O 	0.50470 0.78910 0.04800 -0.54600
O 	O 	0.73090 0.94220 0.43890 -0.58600
O 	O 	0.48260 0.94080 0.20120 -0.56000
O 	O 	0.71740 0.77020 0.26840 -0.55700
O 	O 	0.51380 0.85140 0.04880 -0.58000
O 	O 	0.77890 0.81990 0.33400 -0.55900
O 	O 	0.19600 0.54870 0.03790 -0.61100
O 	O 	0.49540 0.55650 0.34610 -0.60400
O 	O 	0.25890 0.71090 0.21560 -0.53800
O 	O 	0.49670 0.55780 0.28870 -0.58900
O 	O 	0.26040 0.55920 0.04180 -0.56900
O 	O 	0.49820 0.72980 0.44720 -0.55600
O 	O 	0.19740 0.64860 0.16240 -0.57400
O 	O 	0.51410 0.68010 0.45900 -0.55900
O 	O 	0.01080 0.15810 0.46210 -0.60100
O 	O 	0.71040 0.14930 0.15390 -0.60700
O 	O 	0.99530 0.04330 0.28440 -0.54900
O 	O 	0.76910 0.20800 0.21130 -0.59000
O 	O 	0.01740 0.21860 0.45820 -0.55800
O 	O 	0.78260 0.05100 0.05280 -0.56500
O 	O 	0.98620 0.03500 0.33760 -0.58400
O 	O 	0.72110 0.05510 0.04100 -0.56700
O 	O 	0.30400 0.34190 0.35270 -0.60500
O 	O 	0.00460 0.35070 0.06110 -0.60200
O 	O 	0.24110 0.45670 0.45200 -0.53800
O 	O 	0.00330 0.29200 0.06110 -0.58700
O 	O 	0.23960 0.28140 0.29880 -0.56200
O 	O 	0.00180 0.44900 0.23160 -0.53100
O 	O 	0.30260 0.46500 0.45120 -0.57400
O 	O 	0.98590 0.44490 0.16600 -0.55800
O 	O 	0.46210 0.80400 0.95130 -0.60000
O 	O 	0.15390 0.50460 0.94350 -0.59900
O 	O 	0.28440 0.74110 0.78910 -0.53700
O 	O 	0.21130 0.50330 0.94220 -0.58500
O 	O 	0.45820 0.73960 0.94080 -0.55900
O 	O 	0.05280 0.50180 0.77020 -0.54800
O 	O 	0.33760 0.80260 0.85140 -0.57200
O 	O 	0.04100 0.48590 0.81990 -0.55000
O 	O 	0.35270 0.51080 0.54870 -0.60400
O 	O 	0.06110 0.21040 0.55650 -0.60200
O 	O 	0.45200 0.49530 0.71090 -0.53800
O 	O 	0.06110 0.26910 0.55780 -0.58600
O 	O 	0.29880 0.51740 0.55920 -0.56200
O 	O 	0.23160 0.28260 0.72980 -0.55600
O 	O 	0.45120 0.48620 0.64860 -0.57400
O 	O 	0.16600 0.22110 0.68010 -0.55800
O 	O 	0.14730 0.69600 0.15810 -0.60400
O 	O 	0.43890 0.99540 0.14930 -0.60100
O 	O 	0.04800 0.75890 0.04330 -0.53600
O 	O 	0.43890 0.99670 0.20800 -0.58400
O 	O 	0.20120 0.76040 0.21860 -0.56100
O 	O 	0.26840 0.99820 0.05100 -0.53500
O 	O 	0.04880 0.69740 0.03500 -0.57200
O 	O 	0.33400 0.01410 0.05510 -0.56000
O 	O 	0.03790 0.98920 0.34190 -0.59000
O 	O 	0.34610 0.28960 0.35070 -0.60500
O 	O 	0.21560 0.00470 0.45670 -0.54100
O 	O 	0.28870 0.23090 0.29200 -0.59000
O 	O 	0.04180 0.98260 0.28140 -0.54900
O 	O 	0.44720 0.21740 0.44900 -0.55700
O 	O 	0.16240 0.01380 0.46500 -0.57500
O 	O 	0.45900 0.27890 0.44490 -0.55900
O 	O 	0.65810 0.14730 0.19600 -0.60700
O 	O 	0.64930 0.43890 0.49540 -0.60400
O 	O 	0.54330 0.04800 0.25890 -0.54600
O 	O 	0.70800 0.43890 0.49670 -0.58900
O 	O 	0.71860 0.20120 0.26040 -0.56300
O 	O 	0.55100 0.26840 0.49820 -0.55700
O 	O 	0.53500 0.04880 0.19740 -0.58200
O 	O 	0.55510 0.33400 0.51410 -0.55900
O 	O 	0.84190 0.03790 0.48920 -0.61300
O 	O 	0.85070 0.34610 0.78960 -0.60500
O 	O 	0.95670 0.21560 0.50470 -0.54700
O 	O 	0.79200 0.28870 0.73090 -0.59000
O 	O 	0.78140 0.04180 0.48260 -0.56900
O 	O 	0.94900 0.44720 0.71740 -0.56000
O 	O 	0.96500 0.16240 0.51380 -0.58300
O 	O 	0.94490 0.45900 0.77890 -0.56300
O 	O 	0.45130 0.46210 0.30400 -0.60500
O 	O 	0.44350 0.15390 0.00460 -0.61000
O 	O 	0.28910 0.28440 0.24110 -0.53900
O 	O 	0.44220 0.21130 0.00330 -0.59400
O 	O 	0.44080 0.45820 0.23960 -0.56300
O 	O 	0.27020 0.05280 0.00180 -0.58000
O 	O 	0.35140 0.33760 0.30260 -0.57400
O 	O 	0.31990 0.04100 0.98590 -0.56300
O 	O 	0.04870 0.35270 0.01080 -0.60500
O 	O 	0.05650 0.06110 0.71040 -0.60400
O 	O 	0.21090 0.45200 0.99530 -0.53500
O 	O 	0.05780 0.06110 0.76910 -0.58800
O 	O 	0.05920 0.29880 0.01740 -0.56300
O 	O 	0.22980 0.23160 0.78260 -0.55500
O 	O 	0.14860 0.45120 0.98620 -0.57000
O 	O 	0.18010 0.16600 0.72110 -0.55900
O 	O 	0.51080 0.04870 0.85270 -0.60600
O 	O 	0.21040 0.05650 0.56110 -0.60800
O 	O 	0.49530 0.21090 0.95200 -0.53100
O 	O 	0.26910 0.05780 0.56110 -0.59300
O 	O 	0.51740 0.05920 0.79880 -0.56400
O 	O 	0.28260 0.22980 0.73160 -0.55600
O 	O 	0.48620 0.14860 0.95120 -0.56700
O 	O 	0.22110 0.18010 0.66600 -0.56000
O 	O 	0.80400 0.45130 0.96210 -0.59700
O 	O 	0.50460 0.44350 0.65390 -0.60400
O 	O 	0.74110 0.28910 0.78440 -0.53900
O 	O 	0.50330 0.44220 0.71130 -0.58900
O 	O 	0.73960 0.44080 0.95820 -0.55400
O 	O 	0.50180 0.27020 0.55280 -0.55700
O 	O 	0.80260 0.35140 0.83760 -0.57300
O 	O 	0.48590 0.31990 0.54100 -0.55900
O 	O 	0.98920 0.84190 0.53790 -0.60900
O 	O 	0.28960 0.85070 0.84610 -0.60100
O 	O 	0.00470 0.95670 0.71560 -0.52700
O 	O 	0.23090 0.79200 0.78870 -0.58700
O 	O 	0.98260 0.78140 0.54180 -0.56600
O 	O 	0.21740 0.94900 0.94720 -0.54200
O 	O 	0.01380 0.96500 0.66240 -0.56200
O 	O 	0.27890 0.94490 0.95900 -0.54600
O 	O 	0.69600 0.65810 0.64730 -0.60500
O 	O 	0.99540 0.64930 0.93890 -0.60600
O 	O 	0.75890 0.54330 0.54800 -0.53900
O 	O 	0.99670 0.70800 0.93890 -0.59100
O 	O 	0.76040 0.71860 0.70120 -0.56200
O 	O 	0.99820 0.55100 0.76840 -0.57900
O 	O 	0.69740 0.53500 0.54880 -0.57400
O 	O 	0.01410 0.55510 0.83400 -0.55800
