data_crystal

_cell_length_a 28.75950
_cell_length_b 28.75950
_cell_length_c 28.75950
_cell_angle_alpha 90.00000
_cell_angle_beta  90.00000
_cell_angle_gamma 90.00000

_symmetry_space_group_name_	'P 1'
_symmetry_space_group_name_H-M	'P 1'

loop_
_symmetry_equiv_pos_as_xyz
  x,y,z

loop_
_atom_site_label
_atom_site_type_symbol
_atom_site_fract_x
_atom_site_fract_y
_atom_site_fract_z
_atom_site_charge
Co	Co	0.39650 0.10440 0.25150 1.10900
C 	C 	0.33590 0.02320 0.22210 0.06300
C 	C 	0.30900 0.05350 0.20100 -0.14900
H 	H 	0.29860 0.08230 0.19890 0.06500
C 	C 	0.26630 0.02900 0.18000 -0.03400
H 	H 	0.24050 0.04020 0.16620 0.03300
C 	C 	0.40200 0.11400 0.14800 -0.11800
C 	C 	0.41000 0.06900 0.13900 0.14000
H 	H 	0.41320 0.04000 0.15560 -0.03800
C 	C 	0.41400 0.05400 0.08800 -0.08300
H 	H 	0.41710 0.02240 0.07750 0.04300
C 	C 	0.35540 0.17290 0.31940 0.04100
C 	C 	0.38480 0.21170 0.31440 -0.11800
H 	H 	0.40950 0.21540 0.29440 0.04400
C 	C 	0.37470 0.24990 0.34280 -0.01300
H 	H 	0.38820 0.28360 0.32990 0.02100
C 	C 	0.47700 0.07700 0.31400 0.08900
C 	C 	0.45300 0.05800 0.34800 -0.10500
H 	H 	0.41790 0.06020 0.35440 0.03100
C 	C 	0.47800 0.03200 0.38700 -0.01700
H 	H 	0.46150 0.01620 0.40840 0.02100
N 	N 	0.37670 0.03850 0.24270 -0.27200
N 	N 	0.39860 0.13390 0.19030 -0.27800
N 	N 	0.35360 0.13010 0.29720 -0.29800
N 	N 	0.46060 0.10060 0.27680 -0.28100
C 	C 	0.42700 0.11800 0.15300 0.16100
C 	C 	0.44500 0.07600 0.14600 -0.26700
H 	H 	0.44180 0.05020 0.16800 0.08400
C 	C 	0.46100 0.07100 0.10300 0.04500
H 	H 	0.47520 0.04220 0.09660 0.00700
H 	H 	0.30250 0.08350 0.31840 -0.03800
C 	C 	0.47470 0.10150 0.32310 -0.04200
C 	C 	0.44990 0.09570 0.36470 0.00900
H 	H 	0.41760 0.09490 0.36520 0.00200
C 	C 	0.47500 0.09300 0.40600 -0.05000
H 	H 	0.46070 0.08820 0.43360 0.03600
Co	Co	0.60350 0.89560 0.25150 1.10900
C 	C 	0.66410 0.97680 0.22210 0.06900
C 	C 	0.69100 0.94650 0.20100 -0.15300
H 	H 	0.70140 0.91770 0.19890 0.06700
C 	C 	0.73370 0.97100 0.18000 -0.03000
H 	H 	0.75950 0.95980 0.16620 0.03200
C 	C 	0.59800 0.88600 0.14800 -0.11800
C 	C 	0.59000 0.93100 0.13900 0.14000
H 	H 	0.58680 0.96000 0.15560 -0.03800
C 	C 	0.58600 0.94600 0.08800 -0.08300
H 	H 	0.58290 0.97760 0.07750 0.04400
C 	C 	0.64460 0.82710 0.31940 0.04100
C 	C 	0.61520 0.78830 0.31440 -0.11800
H 	H 	0.59050 0.78460 0.29440 0.04400
C 	C 	0.62530 0.75010 0.34280 -0.01300
H 	H 	0.61180 0.71640 0.32990 0.02100
C 	C 	0.52300 0.92300 0.31400 0.08900
C 	C 	0.54700 0.94200 0.34800 -0.10400
H 	H 	0.58210 0.93980 0.35440 0.03100
C 	C 	0.52200 0.96800 0.38700 -0.01700
H 	H 	0.53850 0.98380 0.40840 0.02300
N 	N 	0.62330 0.96150 0.24270 -0.27300
N 	N 	0.60140 0.86610 0.19030 -0.27800
N 	N 	0.64640 0.86990 0.29720 -0.29800
N 	N 	0.53940 0.89940 0.27680 -0.28000
C 	C 	0.57300 0.88200 0.15300 0.16200
C 	C 	0.55500 0.92400 0.14600 -0.26600
H 	H 	0.55820 0.94980 0.16800 0.08600
C 	C 	0.53900 0.92900 0.10300 0.04700
H 	H 	0.52480 0.95780 0.09660 0.00800
H 	H 	0.69750 0.91650 0.31840 -0.03700
C 	C 	0.52530 0.89850 0.32310 -0.04100
C 	C 	0.55010 0.90430 0.36470 0.00900
H 	H 	0.58240 0.90510 0.36520 0.00300
C 	C 	0.52500 0.90700 0.40600 -0.04900
H 	H 	0.53930 0.91180 0.43360 0.03700
Co	Co	0.60350 0.10440 0.74850 1.11000
C 	C 	0.66410 0.02320 0.77790 0.06400
C 	C 	0.69100 0.05350 0.79900 -0.14800
H 	H 	0.70140 0.08230 0.80110 0.06600
C 	C 	0.73370 0.02900 0.82000 -0.03300
H 	H 	0.75950 0.04020 0.83380 0.03500
C 	C 	0.59800 0.11400 0.85200 -0.11700
C 	C 	0.59000 0.06900 0.86100 0.14100
H 	H 	0.58680 0.04000 0.84440 -0.03700
C 	C 	0.58600 0.05400 0.91200 -0.08200
H 	H 	0.58290 0.02240 0.92250 0.04400
C 	C 	0.64460 0.17290 0.68060 0.04200
C 	C 	0.61520 0.21170 0.68560 -0.11700
H 	H 	0.59050 0.21540 0.70560 0.04500
C 	C 	0.62530 0.24990 0.65720 -0.01200
H 	H 	0.61180 0.28360 0.67010 0.02200
C 	C 	0.52300 0.07700 0.68600 0.09000
C 	C 	0.54700 0.05800 0.65200 -0.10400
H 	H 	0.58210 0.06020 0.64560 0.03200
C 	C 	0.52200 0.03200 0.61300 -0.01600
H 	H 	0.53850 0.01620 0.59160 0.02200
N 	N 	0.62330 0.03850 0.75730 -0.27100
N 	N 	0.60140 0.13390 0.80970 -0.27700
N 	N 	0.64640 0.13010 0.70280 -0.29700
N 	N 	0.53940 0.10060 0.72320 -0.28000
C 	C 	0.57300 0.11800 0.84700 0.16200
C 	C 	0.55500 0.07600 0.85400 -0.26600
H 	H 	0.55820 0.05020 0.83200 0.08500
C 	C 	0.53900 0.07100 0.89700 0.04600
H 	H 	0.52480 0.04220 0.90340 0.00800
H 	H 	0.69750 0.08350 0.68160 -0.03700
C 	C 	0.52530 0.10150 0.67690 -0.04100
C 	C 	0.55010 0.09570 0.63530 0.01000
H 	H 	0.58240 0.09490 0.63480 0.00300
C 	C 	0.52500 0.09300 0.59400 -0.04900
H 	H 	0.53930 0.08820 0.56640 0.03700
Co	Co	0.39650 0.89560 0.74850 1.11000
C 	C 	0.33590 0.97680 0.77790 0.07000
C 	C 	0.30900 0.94650 0.79900 -0.15200
H 	H 	0.29860 0.91770 0.80110 0.06800
C 	C 	0.26630 0.97100 0.82000 -0.02900
H 	H 	0.24050 0.95980 0.83380 0.03300
C 	C 	0.40200 0.88600 0.85200 -0.11700
C 	C 	0.41000 0.93100 0.86100 0.14100
H 	H 	0.41320 0.96000 0.84440 -0.03700
C 	C 	0.41400 0.94600 0.91200 -0.08200
H 	H 	0.41710 0.97760 0.92250 0.04500
C 	C 	0.35540 0.82710 0.68060 0.04200
C 	C 	0.38480 0.78830 0.68560 -0.11700
H 	H 	0.40950 0.78460 0.70560 0.04500
C 	C 	0.37470 0.75010 0.65720 -0.01200
H 	H 	0.38820 0.71640 0.67010 0.02200
C 	C 	0.47700 0.92300 0.68600 0.09000
C 	C 	0.45300 0.94200 0.65200 -0.10300
H 	H 	0.41790 0.93980 0.64560 0.03200
C 	C 	0.47800 0.96800 0.61300 -0.01600
H 	H 	0.46150 0.98380 0.59160 0.02400
N 	N 	0.37670 0.96150 0.75730 -0.27200
N 	N 	0.39860 0.86610 0.80970 -0.27700
N 	N 	0.35360 0.86990 0.70280 -0.29700
N 	N 	0.46060 0.89940 0.72320 -0.28000
C 	C 	0.42700 0.88200 0.84700 0.16200
C 	C 	0.44500 0.92400 0.85400 -0.26600
H 	H 	0.44180 0.94980 0.83200 0.08600
C 	C 	0.46100 0.92900 0.89700 0.04700
H 	H 	0.47520 0.95780 0.90340 0.00800
H 	H 	0.30250 0.91650 0.68160 -0.03700
C 	C 	0.47470 0.89850 0.67690 -0.04100
C 	C 	0.44990 0.90430 0.63530 0.00900
H 	H 	0.41760 0.90510 0.63480 0.00300
C 	C 	0.47500 0.90700 0.59400 -0.04900
H 	H 	0.46070 0.91180 0.56640 0.03700
Co	Co	0.25150 0.39650 0.10440 1.11000
C 	C 	0.22210 0.33590 0.02320 0.06400
C 	C 	0.20100 0.30900 0.05350 -0.14800
H 	H 	0.19890 0.29860 0.08230 0.06600
C 	C 	0.18000 0.26630 0.02900 -0.03300
H 	H 	0.16620 0.24050 0.04020 0.03400
C 	C 	0.14800 0.40200 0.11400 -0.11700
C 	C 	0.13900 0.41000 0.06900 0.14100
H 	H 	0.15560 0.41320 0.04000 -0.03700
C 	C 	0.08800 0.41400 0.05400 -0.08200
H 	H 	0.07750 0.41710 0.02240 0.04400
C 	C 	0.31940 0.35540 0.17290 0.04200
C 	C 	0.31440 0.38480 0.21170 -0.11700
H 	H 	0.29440 0.40950 0.21540 0.04500
C 	C 	0.34280 0.37470 0.24990 -0.01200
H 	H 	0.32990 0.38820 0.28360 0.02200
C 	C 	0.31400 0.47700 0.07700 0.09000
C 	C 	0.34800 0.45300 0.05800 -0.10400
H 	H 	0.35440 0.41790 0.06020 0.03200
C 	C 	0.38700 0.47800 0.03200 -0.01600
H 	H 	0.40840 0.46150 0.01620 0.02200
N 	N 	0.24270 0.37670 0.03850 -0.27100
N 	N 	0.19030 0.39860 0.13390 -0.27700
N 	N 	0.29720 0.35360 0.13010 -0.29700
N 	N 	0.27680 0.46060 0.10060 -0.28000
C 	C 	0.15300 0.42700 0.11800 0.16200
C 	C 	0.14600 0.44500 0.07600 -0.26600
H 	H 	0.16800 0.44180 0.05020 0.08500
C 	C 	0.10300 0.46100 0.07100 0.04600
H 	H 	0.09660 0.47520 0.04220 0.00800
H 	H 	0.31840 0.30250 0.08350 -0.03700
C 	C 	0.32310 0.47470 0.10150 -0.04100
C 	C 	0.36470 0.44990 0.09570 0.01000
H 	H 	0.36520 0.41760 0.09490 0.00300
C 	C 	0.40600 0.47500 0.09300 -0.04900
H 	H 	0.43360 0.46070 0.08820 0.03700
Co	Co	0.25150 0.60350 0.89560 1.11000
C 	C 	0.22210 0.66410 0.97680 0.07000
C 	C 	0.20100 0.69100 0.94650 -0.15200
H 	H 	0.19890 0.70140 0.91770 0.06800
C 	C 	0.18000 0.73370 0.97100 -0.02900
H 	H 	0.16620 0.75950 0.95980 0.03300
C 	C 	0.14800 0.59800 0.88600 -0.11700
C 	C 	0.13900 0.59000 0.93100 0.14100
H 	H 	0.15560 0.58680 0.96000 -0.03700
C 	C 	0.08800 0.58600 0.94600 -0.08200
H 	H 	0.07750 0.58290 0.97760 0.04500
C 	C 	0.31940 0.64460 0.82710 0.04200
C 	C 	0.31440 0.61520 0.78830 -0.11700
H 	H 	0.29440 0.59050 0.78460 0.04500
C 	C 	0.34280 0.62530 0.75010 -0.01200
H 	H 	0.32990 0.61180 0.71640 0.02200
C 	C 	0.31400 0.52300 0.92300 0.09000
C 	C 	0.34800 0.54700 0.94200 -0.10300
H 	H 	0.35440 0.58210 0.93980 0.03200
C 	C 	0.38700 0.52200 0.96800 -0.01600
H 	H 	0.40840 0.53850 0.98380 0.02400
N 	N 	0.24270 0.62330 0.96150 -0.27200
N 	N 	0.19030 0.60140 0.86610 -0.27700
N 	N 	0.29720 0.64640 0.86990 -0.29700
N 	N 	0.27680 0.53940 0.89940 -0.28000
C 	C 	0.15300 0.57300 0.88200 0.16200
C 	C 	0.14600 0.55500 0.92400 -0.26600
H 	H 	0.16800 0.55820 0.94980 0.08600
C 	C 	0.10300 0.53900 0.92900 0.04700
H 	H 	0.09660 0.52480 0.95780 0.00800
H 	H 	0.31840 0.69750 0.91650 -0.03700
C 	C 	0.32310 0.52530 0.89850 -0.04100
C 	C 	0.36470 0.55010 0.90430 0.00900
H 	H 	0.36520 0.58240 0.90510 0.00300
C 	C 	0.40600 0.52500 0.90700 -0.04900
H 	H 	0.43360 0.53930 0.91180 0.03700
Co	Co	0.74850 0.60350 0.10440 1.11000
C 	C 	0.77790 0.66410 0.02320 0.06400
C 	C 	0.79900 0.69100 0.05350 -0.14800
H 	H 	0.80110 0.70140 0.08230 0.06600
C 	C 	0.82000 0.73370 0.02900 -0.03300
H 	H 	0.83380 0.75950 0.04020 0.03500
C 	C 	0.85200 0.59800 0.11400 -0.11700
C 	C 	0.86100 0.59000 0.06900 0.14100
H 	H 	0.84440 0.58680 0.04000 -0.03700
C 	C 	0.91200 0.58600 0.05400 -0.08200
H 	H 	0.92250 0.58290 0.02240 0.04400
C 	C 	0.68060 0.64460 0.17290 0.04200
C 	C 	0.68560 0.61520 0.21170 -0.11700
H 	H 	0.70560 0.59050 0.21540 0.04500
C 	C 	0.65720 0.62530 0.24990 -0.01200
H 	H 	0.67010 0.61180 0.28360 0.02200
C 	C 	0.68600 0.52300 0.07700 0.09000
C 	C 	0.65200 0.54700 0.05800 -0.10400
H 	H 	0.64560 0.58210 0.06020 0.03200
C 	C 	0.61300 0.52200 0.03200 -0.01600
H 	H 	0.59160 0.53850 0.01620 0.02200
N 	N 	0.75730 0.62330 0.03850 -0.27100
N 	N 	0.80970 0.60140 0.13390 -0.27700
N 	N 	0.70280 0.64640 0.13010 -0.29700
N 	N 	0.72320 0.53940 0.10060 -0.28000
C 	C 	0.84700 0.57300 0.11800 0.16200
C 	C 	0.85400 0.55500 0.07600 -0.26600
H 	H 	0.83200 0.55820 0.05020 0.08500
C 	C 	0.89700 0.53900 0.07100 0.04600
H 	H 	0.90340 0.52480 0.04220 0.00800
H 	H 	0.68160 0.69750 0.08350 -0.03700
C 	C 	0.67690 0.52530 0.10150 -0.04100
C 	C 	0.63530 0.55010 0.09570 0.01000
H 	H 	0.63480 0.58240 0.09490 0.00300
C 	C 	0.59400 0.52500 0.09300 -0.04900
H 	H 	0.56640 0.53930 0.08820 0.03700
Co	Co	0.74850 0.39650 0.89560 1.11000
C 	C 	0.77790 0.33590 0.97680 0.07000
C 	C 	0.79900 0.30900 0.94650 -0.15200
H 	H 	0.80110 0.29860 0.91770 0.06800
C 	C 	0.82000 0.26630 0.97100 -0.02900
H 	H 	0.83380 0.24050 0.95980 0.03300
C 	C 	0.85200 0.40200 0.88600 -0.11700
C 	C 	0.86100 0.41000 0.93100 0.14100
H 	H 	0.84440 0.41320 0.96000 -0.03700
C 	C 	0.91200 0.41400 0.94600 -0.08200
H 	H 	0.92250 0.41710 0.97760 0.04500
C 	C 	0.68060 0.35540 0.82710 0.04200
C 	C 	0.68560 0.38480 0.78830 -0.11700
H 	H 	0.70560 0.40950 0.78460 0.04500
C 	C 	0.65720 0.37470 0.75010 -0.01200
H 	H 	0.67010 0.38820 0.71640 0.02200
C 	C 	0.68600 0.47700 0.92300 0.09000
C 	C 	0.65200 0.45300 0.94200 -0.10300
H 	H 	0.64560 0.41790 0.93980 0.03200
C 	C 	0.61300 0.47800 0.96800 -0.01600
H 	H 	0.59160 0.46150 0.98380 0.02400
N 	N 	0.75730 0.37670 0.96150 -0.27200
N 	N 	0.80970 0.39860 0.86610 -0.27700
N 	N 	0.70280 0.35360 0.86990 -0.29700
N 	N 	0.72320 0.46060 0.89940 -0.28000
C 	C 	0.84700 0.42700 0.88200 0.16200
C 	C 	0.85400 0.44500 0.92400 -0.26600
H 	H 	0.83200 0.44180 0.94980 0.08600
C 	C 	0.89700 0.46100 0.92900 0.04700
H 	H 	0.90340 0.47520 0.95780 0.00800
H 	H 	0.68160 0.30250 0.91650 -0.03700
C 	C 	0.67690 0.47470 0.89850 -0.04100
C 	C 	0.63530 0.44990 0.90430 0.00900
H 	H 	0.63480 0.41760 0.90510 0.00300
C 	C 	0.59400 0.47500 0.90700 -0.04900
H 	H 	0.56640 0.46070 0.91180 0.03700
Co	Co	0.10440 0.25150 0.39650 1.11000
C 	C 	0.02320 0.22210 0.33590 0.06400
C 	C 	0.05350 0.20100 0.30900 -0.14800
H 	H 	0.08230 0.19890 0.29860 0.06600
C 	C 	0.02900 0.18000 0.26630 -0.03300
H 	H 	0.04020 0.16620 0.24050 0.03400
C 	C 	0.11400 0.14800 0.40200 -0.11700
C 	C 	0.06900 0.13900 0.41000 0.14100
H 	H 	0.04000 0.15560 0.41320 -0.03700
C 	C 	0.05400 0.08800 0.41400 -0.08200
H 	H 	0.02240 0.07750 0.41710 0.04400
C 	C 	0.17290 0.31940 0.35540 0.04200
C 	C 	0.21170 0.31440 0.38480 -0.11700
H 	H 	0.21540 0.29440 0.40950 0.04500
C 	C 	0.24990 0.34280 0.37470 -0.01200
H 	H 	0.28360 0.32990 0.38820 0.02200
C 	C 	0.07700 0.31400 0.47700 0.09000
C 	C 	0.05800 0.34800 0.45300 -0.10400
H 	H 	0.06020 0.35440 0.41790 0.03200
C 	C 	0.03200 0.38700 0.47800 -0.01600
H 	H 	0.01620 0.40840 0.46150 0.02200
N 	N 	0.03850 0.24270 0.37670 -0.27100
N 	N 	0.13390 0.19030 0.39860 -0.27700
N 	N 	0.13010 0.29720 0.35360 -0.29700
N 	N 	0.10060 0.27680 0.46060 -0.28000
C 	C 	0.11800 0.15300 0.42700 0.16200
C 	C 	0.07600 0.14600 0.44500 -0.26600
H 	H 	0.05020 0.16800 0.44180 0.08500
C 	C 	0.07100 0.10300 0.46100 0.04600
H 	H 	0.04220 0.09660 0.47520 0.00800
H 	H 	0.08350 0.31840 0.30250 -0.03700
C 	C 	0.10150 0.32310 0.47470 -0.04100
C 	C 	0.09570 0.36470 0.44990 0.01000
H 	H 	0.09490 0.36520 0.41760 0.00300
C 	C 	0.09300 0.40600 0.47500 -0.04900
H 	H 	0.08820 0.43360 0.46070 0.03700
Co	Co	0.89560 0.25150 0.60350 1.11000
C 	C 	0.97680 0.22210 0.66410 0.07000
C 	C 	0.94650 0.20100 0.69100 -0.15200
H 	H 	0.91770 0.19890 0.70140 0.06800
C 	C 	0.97100 0.18000 0.73370 -0.02900
H 	H 	0.95980 0.16620 0.75950 0.03300
C 	C 	0.88600 0.14800 0.59800 -0.11700
C 	C 	0.93100 0.13900 0.59000 0.14100
H 	H 	0.96000 0.15560 0.58680 -0.03700
C 	C 	0.94600 0.08800 0.58600 -0.08200
H 	H 	0.97760 0.07750 0.58290 0.04500
C 	C 	0.82710 0.31940 0.64460 0.04200
C 	C 	0.78830 0.31440 0.61520 -0.11700
H 	H 	0.78460 0.29440 0.59050 0.04500
C 	C 	0.75010 0.34280 0.62530 -0.01200
H 	H 	0.71640 0.32990 0.61180 0.02200
C 	C 	0.92300 0.31400 0.52300 0.09000
C 	C 	0.94200 0.34800 0.54700 -0.10300
H 	H 	0.93980 0.35440 0.58210 0.03200
C 	C 	0.96800 0.38700 0.52200 -0.01600
H 	H 	0.98380 0.40840 0.53850 0.02400
N 	N 	0.96150 0.24270 0.62330 -0.27200
N 	N 	0.86610 0.19030 0.60140 -0.27700
N 	N 	0.86990 0.29720 0.64640 -0.29700
N 	N 	0.89940 0.27680 0.53940 -0.28000
C 	C 	0.88200 0.15300 0.57300 0.16200
C 	C 	0.92400 0.14600 0.55500 -0.26600
H 	H 	0.94980 0.16800 0.55820 0.08600
C 	C 	0.92900 0.10300 0.53900 0.04700
H 	H 	0.95780 0.09660 0.52480 0.00800
H 	H 	0.91650 0.31840 0.69750 -0.03700
C 	C 	0.89850 0.32310 0.52530 -0.04100
C 	C 	0.90430 0.36470 0.55010 0.00900
H 	H 	0.90510 0.36520 0.58240 0.00300
C 	C 	0.90700 0.40600 0.52500 -0.04900
H 	H 	0.91180 0.43360 0.53930 0.03700
Co	Co	0.10440 0.74850 0.60350 1.11000
C 	C 	0.02320 0.77790 0.66410 0.06400
C 	C 	0.05350 0.79900 0.69100 -0.14800
H 	H 	0.08230 0.80110 0.70140 0.06600
C 	C 	0.02900 0.82000 0.73370 -0.03300
H 	H 	0.04020 0.83380 0.75950 0.03500
C 	C 	0.11400 0.85200 0.59800 -0.11700
C 	C 	0.06900 0.86100 0.59000 0.14100
H 	H 	0.04000 0.84440 0.58680 -0.03700
C 	C 	0.05400 0.91200 0.58600 -0.08200
H 	H 	0.02240 0.92250 0.58290 0.04400
C 	C 	0.17290 0.68060 0.64460 0.04200
C 	C 	0.21170 0.68560 0.61520 -0.11700
H 	H 	0.21540 0.70560 0.59050 0.04500
C 	C 	0.24990 0.65720 0.62530 -0.01200
H 	H 	0.28360 0.67010 0.61180 0.02200
C 	C 	0.07700 0.68600 0.52300 0.09000
C 	C 	0.05800 0.65200 0.54700 -0.10400
H 	H 	0.06020 0.64560 0.58210 0.03200
C 	C 	0.03200 0.61300 0.52200 -0.01600
H 	H 	0.01620 0.59160 0.53850 0.02200
N 	N 	0.03850 0.75730 0.62330 -0.27100
N 	N 	0.13390 0.80970 0.60140 -0.27700
N 	N 	0.13010 0.70280 0.64640 -0.29700
N 	N 	0.10060 0.72320 0.53940 -0.28000
C 	C 	0.11800 0.84700 0.57300 0.16200
C 	C 	0.07600 0.85400 0.55500 -0.26600
H 	H 	0.05020 0.83200 0.55820 0.08500
C 	C 	0.07100 0.89700 0.53900 0.04600
H 	H 	0.04220 0.90340 0.52480 0.00800
H 	H 	0.08350 0.68160 0.69750 -0.03700
C 	C 	0.10150 0.67690 0.52530 -0.04100
C 	C 	0.09570 0.63530 0.55010 0.01000
H 	H 	0.09490 0.63480 0.58240 0.00300
C 	C 	0.09300 0.59400 0.52500 -0.04900
H 	H 	0.08820 0.56640 0.53930 0.03700
Co	Co	0.89560 0.74850 0.39650 1.11000
C 	C 	0.97680 0.77790 0.33590 0.07000
C 	C 	0.94650 0.79900 0.30900 -0.15200
H 	H 	0.91770 0.80110 0.29860 0.06800
C 	C 	0.97100 0.82000 0.26630 -0.02900
H 	H 	0.95980 0.83380 0.24050 0.03300
C 	C 	0.88600 0.85200 0.40200 -0.11700
C 	C 	0.93100 0.86100 0.41000 0.14100
H 	H 	0.96000 0.84440 0.41320 -0.03700
C 	C 	0.94600 0.91200 0.41400 -0.08200
H 	H 	0.97760 0.92250 0.41710 0.04500
C 	C 	0.82710 0.68060 0.35540 0.04200
C 	C 	0.78830 0.68560 0.38480 -0.11700
H 	H 	0.78460 0.70560 0.40950 0.04500
C 	C 	0.75010 0.65720 0.37470 -0.01200
H 	H 	0.71640 0.67010 0.38820 0.02200
C 	C 	0.92300 0.68600 0.47700 0.09000
C 	C 	0.94200 0.65200 0.45300 -0.10300
H 	H 	0.93980 0.64560 0.41790 0.03200
C 	C 	0.96800 0.61300 0.47800 -0.01600
H 	H 	0.98380 0.59160 0.46150 0.02400
N 	N 	0.96150 0.75730 0.37670 -0.27200
N 	N 	0.86610 0.80970 0.39860 -0.27700
N 	N 	0.86990 0.70280 0.35360 -0.29700
N 	N 	0.89940 0.72320 0.46060 -0.28000
C 	C 	0.88200 0.84700 0.42700 0.16200
C 	C 	0.92400 0.85400 0.44500 -0.26600
H 	H 	0.94980 0.83200 0.44180 0.08600
C 	C 	0.92900 0.89700 0.46100 0.04700
H 	H 	0.95780 0.90340 0.47520 0.00800
H 	H 	0.91650 0.68160 0.30250 -0.03700
C 	C 	0.89850 0.67690 0.47470 -0.04100
C 	C 	0.90430 0.63530 0.44990 0.00900
H 	H 	0.90510 0.63480 0.41760 0.00300
C 	C 	0.90700 0.59400 0.47500 -0.04900
H 	H 	0.91180 0.56640 0.46070 0.03700
Co	Co	0.10440 0.39650 0.74850 1.11000
C 	C 	0.02320 0.33590 0.77790 0.06400
C 	C 	0.05350 0.30900 0.79900 -0.14800
H 	H 	0.08230 0.29860 0.80110 0.06600
C 	C 	0.02900 0.26630 0.82000 -0.03300
H 	H 	0.04020 0.24050 0.83380 0.03500
C 	C 	0.11400 0.40200 0.85200 -0.11700
C 	C 	0.06900 0.41000 0.86100 0.14100
H 	H 	0.04000 0.41320 0.84440 -0.03700
C 	C 	0.05400 0.41400 0.91200 -0.08200
H 	H 	0.02240 0.41710 0.92250 0.04400
C 	C 	0.17290 0.35540 0.68060 0.04200
C 	C 	0.21170 0.38480 0.68560 -0.11700
H 	H 	0.21540 0.40950 0.70560 0.04500
C 	C 	0.24990 0.37470 0.65720 -0.01200
H 	H 	0.28360 0.38820 0.67010 0.02200
C 	C 	0.07700 0.47700 0.68600 0.09000
C 	C 	0.05800 0.45300 0.65200 -0.10400
H 	H 	0.06020 0.41790 0.64560 0.03200
C 	C 	0.03200 0.47800 0.61300 -0.01600
H 	H 	0.01620 0.46150 0.59160 0.02200
N 	N 	0.03850 0.37670 0.75730 -0.27100
N 	N 	0.13390 0.39860 0.80970 -0.27700
N 	N 	0.13010 0.35360 0.70280 -0.29700
N 	N 	0.10060 0.46060 0.72320 -0.28000
C 	C 	0.11800 0.42700 0.84700 0.16200
C 	C 	0.07600 0.44500 0.85400 -0.26600
H 	H 	0.05020 0.44180 0.83200 0.08500
C 	C 	0.07100 0.46100 0.89700 0.04600
H 	H 	0.04220 0.47520 0.90340 0.00800
H 	H 	0.08350 0.30250 0.68160 -0.03700
C 	C 	0.10150 0.47470 0.67690 -0.04100
C 	C 	0.09570 0.44990 0.63530 0.01000
H 	H 	0.09490 0.41760 0.63480 0.00300
C 	C 	0.09300 0.47500 0.59400 -0.04900
H 	H 	0.08820 0.46070 0.56640 0.03700
Co	Co	0.89560 0.60350 0.74850 1.11000
C 	C 	0.97680 0.66410 0.77790 0.07000
C 	C 	0.94650 0.69100 0.79900 -0.15200
H 	H 	0.91770 0.70140 0.80110 0.06800
C 	C 	0.97100 0.73370 0.82000 -0.02900
H 	H 	0.95980 0.75950 0.83380 0.03400
C 	C 	0.88600 0.59800 0.85200 -0.11700
C 	C 	0.93100 0.59000 0.86100 0.14100
H 	H 	0.96000 0.58680 0.84440 -0.03700
C 	C 	0.94600 0.58600 0.91200 -0.08200
H 	H 	0.97760 0.58290 0.92250 0.04500
C 	C 	0.82710 0.64460 0.68060 0.04200
C 	C 	0.78830 0.61520 0.68560 -0.11700
H 	H 	0.78460 0.59050 0.70560 0.04500
C 	C 	0.75010 0.62530 0.65720 -0.01200
H 	H 	0.71640 0.61180 0.67010 0.02200
C 	C 	0.92300 0.52300 0.68600 0.09000
C 	C 	0.94200 0.54700 0.65200 -0.10300
H 	H 	0.93980 0.58210 0.64560 0.03200
C 	C 	0.96800 0.52200 0.61300 -0.01600
H 	H 	0.98380 0.53850 0.59160 0.02400
N 	N 	0.96150 0.62330 0.75730 -0.27200
N 	N 	0.86610 0.60140 0.80970 -0.27700
N 	N 	0.86990 0.64640 0.70280 -0.29700
N 	N 	0.89940 0.53940 0.72320 -0.28000
C 	C 	0.88200 0.57300 0.84700 0.16200
C 	C 	0.92400 0.55500 0.85400 -0.26600
H 	H 	0.94980 0.55820 0.83200 0.08600
C 	C 	0.92900 0.53900 0.89700 0.04700
H 	H 	0.95780 0.52480 0.90340 0.00800
H 	H 	0.91650 0.69750 0.68160 -0.03700
C 	C 	0.89850 0.52530 0.67690 -0.04100
C 	C 	0.90430 0.55010 0.63530 0.00900
H 	H 	0.90510 0.58240 0.63480 0.00300
C 	C 	0.90700 0.52500 0.59400 -0.04900
H 	H 	0.91180 0.53930 0.56640 0.03700
Co	Co	0.10440 0.60350 0.25150 1.11000
C 	C 	0.02320 0.66410 0.22210 0.06400
C 	C 	0.05350 0.69100 0.20100 -0.14800
H 	H 	0.08230 0.70140 0.19890 0.06600
C 	C 	0.02900 0.73370 0.18000 -0.03300
H 	H 	0.04020 0.75950 0.16620 0.03500
C 	C 	0.11400 0.59800 0.14800 -0.11700
C 	C 	0.06900 0.59000 0.13900 0.14100
H 	H 	0.04000 0.58680 0.15560 -0.03700
C 	C 	0.05400 0.58600 0.08800 -0.08200
H 	H 	0.02240 0.58290 0.07750 0.04400
C 	C 	0.17290 0.64460 0.31940 0.04200
C 	C 	0.21170 0.61520 0.31440 -0.11700
H 	H 	0.21540 0.59050 0.29440 0.04500
C 	C 	0.24990 0.62530 0.34280 -0.01200
H 	H 	0.28360 0.61180 0.32990 0.02200
C 	C 	0.07700 0.52300 0.31400 0.09000
C 	C 	0.05800 0.54700 0.34800 -0.10400
H 	H 	0.06020 0.58210 0.35440 0.03200
C 	C 	0.03200 0.52200 0.38700 -0.01600
H 	H 	0.01620 0.53850 0.40840 0.02200
N 	N 	0.03850 0.62330 0.24270 -0.27100
N 	N 	0.13390 0.60140 0.19030 -0.27700
N 	N 	0.13010 0.64640 0.29720 -0.29700
N 	N 	0.10060 0.53940 0.27680 -0.28000
C 	C 	0.11800 0.57300 0.15300 0.16200
C 	C 	0.07600 0.55500 0.14600 -0.26600
H 	H 	0.05020 0.55820 0.16800 0.08500
C 	C 	0.07100 0.53900 0.10300 0.04600
H 	H 	0.04220 0.52480 0.09660 0.00800
H 	H 	0.08350 0.69750 0.31840 -0.03700
C 	C 	0.10150 0.52530 0.32310 -0.04100
C 	C 	0.09570 0.55010 0.36470 0.01000
H 	H 	0.09490 0.58240 0.36520 0.00300
C 	C 	0.09300 0.52500 0.40600 -0.04900
H 	H 	0.08820 0.53930 0.43360 0.03700
Co	Co	0.89560 0.39650 0.25150 1.11000
C 	C 	0.97680 0.33590 0.22210 0.07000
C 	C 	0.94650 0.30900 0.20100 -0.15200
H 	H 	0.91770 0.29860 0.19890 0.06800
C 	C 	0.97100 0.26630 0.18000 -0.02900
H 	H 	0.95980 0.24050 0.16620 0.03300
C 	C 	0.88600 0.40200 0.14800 -0.11700
C 	C 	0.93100 0.41000 0.13900 0.14100
H 	H 	0.96000 0.41320 0.15560 -0.03700
C 	C 	0.94600 0.41400 0.08800 -0.08200
H 	H 	0.97760 0.41710 0.07750 0.04500
C 	C 	0.82710 0.35540 0.31940 0.04200
C 	C 	0.78830 0.38480 0.31440 -0.11700
H 	H 	0.78460 0.40950 0.29440 0.04500
C 	C 	0.75010 0.37470 0.34280 -0.01200
H 	H 	0.71640 0.38820 0.32990 0.02200
C 	C 	0.92300 0.47700 0.31400 0.09000
C 	C 	0.94200 0.45300 0.34800 -0.10300
H 	H 	0.93980 0.41790 0.35440 0.03200
C 	C 	0.96800 0.47800 0.38700 -0.01600
H 	H 	0.98380 0.46150 0.40840 0.02400
N 	N 	0.96150 0.37670 0.24270 -0.27200
N 	N 	0.86610 0.39860 0.19030 -0.27700
N 	N 	0.86990 0.35360 0.29720 -0.29700
N 	N 	0.89940 0.46060 0.27680 -0.28000
C 	C 	0.88200 0.42700 0.15300 0.16200
C 	C 	0.92400 0.44500 0.14600 -0.26600
H 	H 	0.94980 0.44180 0.16800 0.08600
C 	C 	0.92900 0.46100 0.10300 0.04700
H 	H 	0.95780 0.47520 0.09660 0.00800
H 	H 	0.91650 0.30250 0.31840 -0.03700
C 	C 	0.89850 0.47470 0.32310 -0.04100
C 	C 	0.90430 0.44990 0.36470 0.00900
H 	H 	0.90510 0.41760 0.36520 0.00300
C 	C 	0.90700 0.47500 0.40600 -0.04900
H 	H 	0.91180 0.46070 0.43360 0.03700
Co	Co	0.39650 0.25150 0.89560 1.11000
C 	C 	0.33590 0.22210 0.97680 0.07000
C 	C 	0.30900 0.20100 0.94650 -0.15200
H 	H 	0.29860 0.19890 0.91770 0.06800
C 	C 	0.26630 0.18000 0.97100 -0.02900
H 	H 	0.24050 0.16620 0.95980 0.03300
C 	C 	0.40200 0.14800 0.88600 -0.11700
C 	C 	0.41000 0.13900 0.93100 0.14100
H 	H 	0.41320 0.15560 0.96000 -0.03700
C 	C 	0.41400 0.08800 0.94600 -0.08200
H 	H 	0.41710 0.07750 0.97760 0.04500
C 	C 	0.35540 0.31940 0.82710 0.04200
C 	C 	0.38480 0.31440 0.78830 -0.11700
H 	H 	0.40950 0.29440 0.78460 0.04500
C 	C 	0.37470 0.34280 0.75010 -0.01200
H 	H 	0.38820 0.32990 0.71640 0.02200
C 	C 	0.47700 0.31400 0.92300 0.09000
C 	C 	0.45300 0.34800 0.94200 -0.10300
H 	H 	0.41790 0.35440 0.93980 0.03200
C 	C 	0.47800 0.38700 0.96800 -0.01600
H 	H 	0.46150 0.40840 0.98380 0.02400
N 	N 	0.37670 0.24270 0.96150 -0.27200
N 	N 	0.39860 0.19030 0.86610 -0.27700
N 	N 	0.35360 0.29720 0.86990 -0.29700
N 	N 	0.46060 0.27680 0.89940 -0.28000
C 	C 	0.42700 0.15300 0.88200 0.16200
C 	C 	0.44500 0.14600 0.92400 -0.26600
H 	H 	0.44180 0.16800 0.94980 0.08600
C 	C 	0.46100 0.10300 0.92900 0.04700
H 	H 	0.47520 0.09660 0.95780 0.00800
H 	H 	0.30250 0.31840 0.91650 -0.03700
C 	C 	0.47470 0.32310 0.89850 -0.04100
C 	C 	0.44990 0.36470 0.90430 0.00900
H 	H 	0.41760 0.36520 0.90510 0.00300
C 	C 	0.47500 0.40600 0.90700 -0.04900
H 	H 	0.46070 0.43360 0.91180 0.03700
Co	Co	0.60350 0.25150 0.10440 1.11000
C 	C 	0.66410 0.22210 0.02320 0.06400
C 	C 	0.69100 0.20100 0.05350 -0.14800
H 	H 	0.70140 0.19890 0.08230 0.06600
C 	C 	0.73370 0.18000 0.02900 -0.03300
H 	H 	0.75950 0.16620 0.04020 0.03500
C 	C 	0.59800 0.14800 0.11400 -0.11700
C 	C 	0.59000 0.13900 0.06900 0.14100
H 	H 	0.58680 0.15560 0.04000 -0.03700
C 	C 	0.58600 0.08800 0.05400 -0.08200
H 	H 	0.58290 0.07750 0.02240 0.04400
C 	C 	0.64460 0.31940 0.17290 0.04200
C 	C 	0.61520 0.31440 0.21170 -0.11700
H 	H 	0.59050 0.29440 0.21540 0.04500
C 	C 	0.62530 0.34280 0.24990 -0.01200
H 	H 	0.61180 0.32990 0.28360 0.02200
C 	C 	0.52300 0.31400 0.07700 0.09000
C 	C 	0.54700 0.34800 0.05800 -0.10400
H 	H 	0.58210 0.35440 0.06020 0.03200
C 	C 	0.52200 0.38700 0.03200 -0.01600
H 	H 	0.53850 0.40840 0.01620 0.02200
N 	N 	0.62330 0.24270 0.03850 -0.27100
N 	N 	0.60140 0.19030 0.13390 -0.27700
N 	N 	0.64640 0.29720 0.13010 -0.29700
N 	N 	0.53940 0.27680 0.10060 -0.28000
C 	C 	0.57300 0.15300 0.11800 0.16200
C 	C 	0.55500 0.14600 0.07600 -0.26600
H 	H 	0.55820 0.16800 0.05020 0.08500
C 	C 	0.53900 0.10300 0.07100 0.04600
H 	H 	0.52480 0.09660 0.04220 0.00800
H 	H 	0.69750 0.31840 0.08350 -0.03700
C 	C 	0.52530 0.32310 0.10150 -0.04100
C 	C 	0.55010 0.36470 0.09570 0.01000
H 	H 	0.58240 0.36520 0.09490 0.00300
C 	C 	0.52500 0.40600 0.09300 -0.04900
H 	H 	0.53930 0.43360 0.08820 0.03700
Co	Co	0.60350 0.74850 0.89560 1.11000
C 	C 	0.66410 0.77790 0.97680 0.07000
C 	C 	0.69100 0.79900 0.94650 -0.15200
H 	H 	0.70140 0.80110 0.91770 0.06800
C 	C 	0.73370 0.82000 0.97100 -0.02900
H 	H 	0.75950 0.83380 0.95980 0.03400
C 	C 	0.59800 0.85200 0.88600 -0.11700
C 	C 	0.59000 0.86100 0.93100 0.14100
H 	H 	0.58680 0.84440 0.96000 -0.03700
C 	C 	0.58600 0.91200 0.94600 -0.08200
H 	H 	0.58290 0.92250 0.97760 0.04500
C 	C 	0.64460 0.68060 0.82710 0.04200
C 	C 	0.61520 0.68560 0.78830 -0.11700
H 	H 	0.59050 0.70560 0.78460 0.04500
C 	C 	0.62530 0.65720 0.75010 -0.01200
H 	H 	0.61180 0.67010 0.71640 0.02200
C 	C 	0.52300 0.68600 0.92300 0.09000
C 	C 	0.54700 0.65200 0.94200 -0.10300
H 	H 	0.58210 0.64560 0.93980 0.03200
C 	C 	0.52200 0.61300 0.96800 -0.01600
H 	H 	0.53850 0.59160 0.98380 0.02400
N 	N 	0.62330 0.75730 0.96150 -0.27200
N 	N 	0.60140 0.80970 0.86610 -0.27700
N 	N 	0.64640 0.70280 0.86990 -0.29700
N 	N 	0.53940 0.72320 0.89940 -0.28000
C 	C 	0.57300 0.84700 0.88200 0.16200
C 	C 	0.55500 0.85400 0.92400 -0.26600
H 	H 	0.55820 0.83200 0.94980 0.08600
C 	C 	0.53900 0.89700 0.92900 0.04700
H 	H 	0.52480 0.90340 0.95780 0.00800
H 	H 	0.69750 0.68160 0.91650 -0.03700
C 	C 	0.52530 0.67690 0.89850 -0.04100
C 	C 	0.55010 0.63530 0.90430 0.00900
H 	H 	0.58240 0.63480 0.90510 0.00300
C 	C 	0.52500 0.59400 0.90700 -0.04900
H 	H 	0.53930 0.56640 0.91180 0.03700
Co	Co	0.39650 0.74850 0.10440 1.11000
C 	C 	0.33590 0.77790 0.02320 0.06400
C 	C 	0.30900 0.79900 0.05350 -0.14800
H 	H 	0.29860 0.80110 0.08230 0.06600
C 	C 	0.26630 0.82000 0.02900 -0.03300
H 	H 	0.24050 0.83380 0.04020 0.03500
C 	C 	0.40200 0.85200 0.11400 -0.11700
C 	C 	0.41000 0.86100 0.06900 0.14100
H 	H 	0.41320 0.84440 0.04000 -0.03700
C 	C 	0.41400 0.91200 0.05400 -0.08200
H 	H 	0.41710 0.92250 0.02240 0.04400
C 	C 	0.35540 0.68060 0.17290 0.04200
C 	C 	0.38480 0.68560 0.21170 -0.11700
H 	H 	0.40950 0.70560 0.21540 0.04500
C 	C 	0.37470 0.65720 0.24990 -0.01200
H 	H 	0.38820 0.67010 0.28360 0.02200
C 	C 	0.47700 0.68600 0.07700 0.09000
C 	C 	0.45300 0.65200 0.05800 -0.10400
H 	H 	0.41790 0.64560 0.06020 0.03200
C 	C 	0.47800 0.61300 0.03200 -0.01600
H 	H 	0.46150 0.59160 0.01620 0.02200
N 	N 	0.37670 0.75730 0.03850 -0.27100
N 	N 	0.39860 0.80970 0.13390 -0.27700
N 	N 	0.35360 0.70280 0.13010 -0.29700
N 	N 	0.46060 0.72320 0.10060 -0.28000
C 	C 	0.42700 0.84700 0.11800 0.16200
C 	C 	0.44500 0.85400 0.07600 -0.26600
H 	H 	0.44180 0.83200 0.05020 0.08500
C 	C 	0.46100 0.89700 0.07100 0.04600
H 	H 	0.47520 0.90340 0.04220 0.00800
H 	H 	0.30250 0.68160 0.08350 -0.03700
C 	C 	0.47470 0.67690 0.10150 -0.04100
C 	C 	0.44990 0.63530 0.09570 0.01000
H 	H 	0.41760 0.63480 0.09490 0.00300
C 	C 	0.47500 0.59400 0.09300 -0.04900
H 	H 	0.46070 0.56640 0.08820 0.03700
Co	Co	0.25150 0.10440 0.60350 1.11000
C 	C 	0.22210 0.02320 0.66410 0.06400
C 	C 	0.20100 0.05350 0.69100 -0.14800
H 	H 	0.19890 0.08230 0.70140 0.06600
C 	C 	0.18000 0.02900 0.73370 -0.03300
H 	H 	0.16620 0.04020 0.75950 0.03500
C 	C 	0.14800 0.11400 0.59800 -0.11700
C 	C 	0.13900 0.06900 0.59000 0.14100
H 	H 	0.15560 0.04000 0.58680 -0.03700
C 	C 	0.08800 0.05400 0.58600 -0.08200
H 	H 	0.07750 0.02240 0.58290 0.04400
C 	C 	0.31940 0.17290 0.64460 0.04200
C 	C 	0.31440 0.21170 0.61520 -0.11700
H 	H 	0.29440 0.21540 0.59050 0.04500
C 	C 	0.34280 0.24990 0.62530 -0.01200
H 	H 	0.32990 0.28360 0.61180 0.02200
C 	C 	0.31400 0.07700 0.52300 0.09000
C 	C 	0.34800 0.05800 0.54700 -0.10400
H 	H 	0.35440 0.06020 0.58210 0.03200
C 	C 	0.38700 0.03200 0.52200 -0.01600
H 	H 	0.40840 0.01620 0.53850 0.02200
N 	N 	0.24270 0.03850 0.62330 -0.27100
N 	N 	0.19030 0.13390 0.60140 -0.27700
N 	N 	0.29720 0.13010 0.64640 -0.29700
N 	N 	0.27680 0.10060 0.53940 -0.28000
C 	C 	0.15300 0.11800 0.57300 0.16200
C 	C 	0.14600 0.07600 0.55500 -0.26600
H 	H 	0.16800 0.05020 0.55820 0.08500
C 	C 	0.10300 0.07100 0.53900 0.04600
H 	H 	0.09660 0.04220 0.52480 0.00800
H 	H 	0.31840 0.08350 0.69750 -0.03700
C 	C 	0.32310 0.10150 0.52530 -0.04100
C 	C 	0.36470 0.09570 0.55010 0.01000
H 	H 	0.36520 0.09490 0.58240 0.00300
C 	C 	0.40600 0.09300 0.52500 -0.04900
H 	H 	0.43360 0.08820 0.53930 0.03700
Co	Co	0.25150 0.89560 0.39650 1.11000
C 	C 	0.22210 0.97680 0.33590 0.07000
C 	C 	0.20100 0.94650 0.30900 -0.15200
H 	H 	0.19890 0.91770 0.29860 0.06800
C 	C 	0.18000 0.97100 0.26630 -0.02900
H 	H 	0.16620 0.95980 0.24050 0.03300
C 	C 	0.14800 0.88600 0.40200 -0.11700
C 	C 	0.13900 0.93100 0.41000 0.14100
H 	H 	0.15560 0.96000 0.41320 -0.03700
C 	C 	0.08800 0.94600 0.41400 -0.08200
H 	H 	0.07750 0.97760 0.41710 0.04500
C 	C 	0.31940 0.82710 0.35540 0.04200
C 	C 	0.31440 0.78830 0.38480 -0.11700
H 	H 	0.29440 0.78460 0.40950 0.04500
C 	C 	0.34280 0.75010 0.37470 -0.01200
H 	H 	0.32990 0.71640 0.38820 0.02200
C 	C 	0.31400 0.92300 0.47700 0.09000
C 	C 	0.34800 0.94200 0.45300 -0.10300
H 	H 	0.35440 0.93980 0.41790 0.03200
C 	C 	0.38700 0.96800 0.47800 -0.01600
H 	H 	0.40840 0.98380 0.46150 0.02400
N 	N 	0.24270 0.96150 0.37670 -0.27200
N 	N 	0.19030 0.86610 0.39860 -0.27700
N 	N 	0.29720 0.86990 0.35360 -0.29700
N 	N 	0.27680 0.89940 0.46060 -0.28000
C 	C 	0.15300 0.88200 0.42700 0.16200
C 	C 	0.14600 0.92400 0.44500 -0.26600
H 	H 	0.16800 0.94980 0.44180 0.08600
C 	C 	0.10300 0.92900 0.46100 0.04700
H 	H 	0.09660 0.95780 0.47520 0.00800
H 	H 	0.31840 0.91650 0.30250 -0.03700
C 	C 	0.32310 0.89850 0.47470 -0.04100
C 	C 	0.36470 0.90430 0.44990 0.00900
H 	H 	0.36520 0.90510 0.41760 0.00300
C 	C 	0.40600 0.90700 0.47500 -0.04900
H 	H 	0.43360 0.91180 0.46070 0.03700
Co	Co	0.74850 0.10440 0.39650 1.11000
C 	C 	0.77790 0.02320 0.33590 0.06400
C 	C 	0.79900 0.05350 0.30900 -0.14800
H 	H 	0.80110 0.08230 0.29860 0.06600
C 	C 	0.82000 0.02900 0.26630 -0.03300
H 	H 	0.83380 0.04020 0.24050 0.03500
C 	C 	0.85200 0.11400 0.40200 -0.11700
C 	C 	0.86100 0.06900 0.41000 0.14100
H 	H 	0.84440 0.04000 0.41320 -0.03700
C 	C 	0.91200 0.05400 0.41400 -0.08200
H 	H 	0.92250 0.02240 0.41710 0.04400
C 	C 	0.68060 0.17290 0.35540 0.04200
C 	C 	0.68560 0.21170 0.38480 -0.11700
H 	H 	0.70560 0.21540 0.40950 0.04500
C 	C 	0.65720 0.24990 0.37470 -0.01200
H 	H 	0.67010 0.28360 0.38820 0.02200
C 	C 	0.68600 0.07700 0.47700 0.09000
C 	C 	0.65200 0.05800 0.45300 -0.10400
H 	H 	0.64560 0.06020 0.41790 0.03200
C 	C 	0.61300 0.03200 0.47800 -0.01600
H 	H 	0.59160 0.01620 0.46150 0.02200
N 	N 	0.75730 0.03850 0.37670 -0.27100
N 	N 	0.80970 0.13390 0.39860 -0.27700
N 	N 	0.70280 0.13010 0.35360 -0.29700
N 	N 	0.72320 0.10060 0.46060 -0.28000
C 	C 	0.84700 0.11800 0.42700 0.16200
C 	C 	0.85400 0.07600 0.44500 -0.26600
H 	H 	0.83200 0.05020 0.44180 0.08500
C 	C 	0.89700 0.07100 0.46100 0.04600
H 	H 	0.90340 0.04220 0.47520 0.00800
H 	H 	0.68160 0.08350 0.30250 -0.03700
C 	C 	0.67690 0.10150 0.47470 -0.04100
C 	C 	0.63530 0.09570 0.44990 0.01000
H 	H 	0.63480 0.09490 0.41760 0.00300
C 	C 	0.59400 0.09300 0.47500 -0.04900
H 	H 	0.56640 0.08820 0.46070 0.03700
Co	Co	0.74850 0.89560 0.60350 1.11000
C 	C 	0.77790 0.97680 0.66410 0.07000
C 	C 	0.79900 0.94650 0.69100 -0.15200
H 	H 	0.80110 0.91770 0.70140 0.06800
C 	C 	0.82000 0.97100 0.73370 -0.02900
H 	H 	0.83380 0.95980 0.75950 0.03400
C 	C 	0.85200 0.88600 0.59800 -0.11700
C 	C 	0.86100 0.93100 0.59000 0.14100
H 	H 	0.84440 0.96000 0.58680 -0.03700
C 	C 	0.91200 0.94600 0.58600 -0.08200
H 	H 	0.92250 0.97760 0.58290 0.04500
C 	C 	0.68060 0.82710 0.64460 0.04200
C 	C 	0.68560 0.78830 0.61520 -0.11700
H 	H 	0.70560 0.78460 0.59050 0.04500
C 	C 	0.65720 0.75010 0.62530 -0.01200
H 	H 	0.67010 0.71640 0.61180 0.02200
C 	C 	0.68600 0.92300 0.52300 0.09000
C 	C 	0.65200 0.94200 0.54700 -0.10300
H 	H 	0.64560 0.93980 0.58210 0.03200
C 	C 	0.61300 0.96800 0.52200 -0.01600
H 	H 	0.59160 0.98380 0.53850 0.02400
N 	N 	0.75730 0.96150 0.62330 -0.27200
N 	N 	0.80970 0.86610 0.60140 -0.27700
N 	N 	0.70280 0.86990 0.64640 -0.29700
N 	N 	0.72320 0.89940 0.53940 -0.28000
C 	C 	0.84700 0.88200 0.57300 0.16200
C 	C 	0.85400 0.92400 0.55500 -0.26600
H 	H 	0.83200 0.94980 0.55820 0.08600
C 	C 	0.89700 0.92900 0.53900 0.04700
H 	H 	0.90340 0.95780 0.52480 0.00800
H 	H 	0.68160 0.91650 0.69750 -0.03700
C 	C 	0.67690 0.89850 0.52530 -0.04100
C 	C 	0.63530 0.90430 0.55010 0.00900
H 	H 	0.63480 0.90510 0.58240 0.00300
C 	C 	0.59400 0.90700 0.52500 -0.04900
H 	H 	0.56640 0.91180 0.53930 0.03700
Co	Co	0.60350 0.89560 0.74850 1.11000
C 	C 	0.66410 0.97680 0.77790 0.07000
C 	C 	0.69100 0.94650 0.79900 -0.15200
H 	H 	0.70140 0.91770 0.80110 0.06800
C 	C 	0.73370 0.97100 0.82000 -0.02900
H 	H 	0.75950 0.95980 0.83380 0.03400
C 	C 	0.59800 0.88600 0.85200 -0.11700
C 	C 	0.59000 0.93100 0.86100 0.14100
H 	H 	0.58680 0.96000 0.84440 -0.03700
C 	C 	0.58600 0.94600 0.91200 -0.08200
H 	H 	0.58290 0.97760 0.92250 0.04500
C 	C 	0.64460 0.82710 0.68060 0.04200
C 	C 	0.61520 0.78830 0.68560 -0.11700
H 	H 	0.59050 0.78460 0.70560 0.04500
C 	C 	0.62530 0.75010 0.65720 -0.01200
H 	H 	0.61180 0.71640 0.67010 0.02200
C 	C 	0.52300 0.92300 0.68600 0.09000
C 	C 	0.54700 0.94200 0.65200 -0.10300
H 	H 	0.58210 0.93980 0.64560 0.03200
C 	C 	0.52200 0.96800 0.61300 -0.01600
H 	H 	0.53850 0.98380 0.59160 0.02400
N 	N 	0.62330 0.96150 0.75730 -0.27200
N 	N 	0.60140 0.86610 0.80970 -0.27700
N 	N 	0.64640 0.86990 0.70280 -0.29700
N 	N 	0.53940 0.89940 0.72320 -0.28000
C 	C 	0.57300 0.88200 0.84700 0.16200
C 	C 	0.55500 0.92400 0.85400 -0.26600
H 	H 	0.55820 0.94980 0.83200 0.08600
C 	C 	0.53900 0.92900 0.89700 0.04700
H 	H 	0.52480 0.95780 0.90340 0.00800
H 	H 	0.69750 0.91650 0.68160 -0.03700
C 	C 	0.52530 0.89850 0.67690 -0.04100
C 	C 	0.55010 0.90430 0.63530 0.00900
H 	H 	0.58240 0.90510 0.63480 0.00300
C 	C 	0.52500 0.90700 0.59400 -0.04900
H 	H 	0.53930 0.91180 0.56640 0.03700
Co	Co	0.39650 0.10440 0.74850 1.11000
C 	C 	0.33590 0.02320 0.77790 0.06400
C 	C 	0.30900 0.05350 0.79900 -0.14800
H 	H 	0.29860 0.08230 0.80110 0.06600
C 	C 	0.26630 0.02900 0.82000 -0.03300
H 	H 	0.24050 0.04020 0.83380 0.03500
C 	C 	0.40200 0.11400 0.85200 -0.11700
C 	C 	0.41000 0.06900 0.86100 0.14100
H 	H 	0.41320 0.04000 0.84440 -0.03700
C 	C 	0.41400 0.05400 0.91200 -0.08200
H 	H 	0.41710 0.02240 0.92250 0.04400
C 	C 	0.35540 0.17290 0.68060 0.04200
C 	C 	0.38480 0.21170 0.68560 -0.11700
H 	H 	0.40950 0.21540 0.70560 0.04500
C 	C 	0.37470 0.24990 0.65720 -0.01200
H 	H 	0.38820 0.28360 0.67010 0.02200
C 	C 	0.47700 0.07700 0.68600 0.09000
C 	C 	0.45300 0.05800 0.65200 -0.10400
H 	H 	0.41790 0.06020 0.64560 0.03200
C 	C 	0.47800 0.03200 0.61300 -0.01600
H 	H 	0.46150 0.01620 0.59160 0.02200
N 	N 	0.37670 0.03850 0.75730 -0.27100
N 	N 	0.39860 0.13390 0.80970 -0.27700
N 	N 	0.35360 0.13010 0.70280 -0.29700
N 	N 	0.46060 0.10060 0.72320 -0.28000
C 	C 	0.42700 0.11800 0.84700 0.16200
C 	C 	0.44500 0.07600 0.85400 -0.26600
H 	H 	0.44180 0.05020 0.83200 0.08500
C 	C 	0.46100 0.07100 0.89700 0.04600
H 	H 	0.47520 0.04220 0.90340 0.00800
H 	H 	0.30250 0.08350 0.68160 -0.03700
C 	C 	0.47470 0.10150 0.67690 -0.04100
C 	C 	0.44990 0.09570 0.63530 0.01000
H 	H 	0.41760 0.09490 0.63480 0.00300
C 	C 	0.47500 0.09300 0.59400 -0.04900
H 	H 	0.46070 0.08820 0.56640 0.03700
Co	Co	0.39650 0.89560 0.25150 1.11000
C 	C 	0.33590 0.97680 0.22210 0.07000
C 	C 	0.30900 0.94650 0.20100 -0.15200
H 	H 	0.29860 0.91770 0.19890 0.06800
C 	C 	0.26630 0.97100 0.18000 -0.02900
H 	H 	0.24050 0.95980 0.16620 0.03300
C 	C 	0.40200 0.88600 0.14800 -0.11700
C 	C 	0.41000 0.93100 0.13900 0.14100
H 	H 	0.41320 0.96000 0.15560 -0.03700
C 	C 	0.41400 0.94600 0.08800 -0.08200
H 	H 	0.41710 0.97760 0.07750 0.04500
C 	C 	0.35540 0.82710 0.31940 0.04200
C 	C 	0.38480 0.78830 0.31440 -0.11700
H 	H 	0.40950 0.78460 0.29440 0.04500
C 	C 	0.37470 0.75010 0.34280 -0.01200
H 	H 	0.38820 0.71640 0.32990 0.02200
C 	C 	0.47700 0.92300 0.31400 0.09000
C 	C 	0.45300 0.94200 0.34800 -0.10300
H 	H 	0.41790 0.93980 0.35440 0.03200
C 	C 	0.47800 0.96800 0.38700 -0.01600
H 	H 	0.46150 0.98380 0.40840 0.02400
N 	N 	0.37670 0.96150 0.24270 -0.27200
N 	N 	0.39860 0.86610 0.19030 -0.27700
N 	N 	0.35360 0.86990 0.29720 -0.29700
N 	N 	0.46060 0.89940 0.27680 -0.28000
C 	C 	0.42700 0.88200 0.15300 0.16200
C 	C 	0.44500 0.92400 0.14600 -0.26600
H 	H 	0.44180 0.94980 0.16800 0.08600
C 	C 	0.46100 0.92900 0.10300 0.04700
H 	H 	0.47520 0.95780 0.09660 0.00800
H 	H 	0.30250 0.91650 0.31840 -0.03700
C 	C 	0.47470 0.89850 0.32310 -0.04100
C 	C 	0.44990 0.90430 0.36470 0.00900
H 	H 	0.41760 0.90510 0.36520 0.00300
C 	C 	0.47500 0.90700 0.40600 -0.04900
H 	H 	0.46070 0.91180 0.43360 0.03700
Co	Co	0.60350 0.10440 0.25150 1.11000
C 	C 	0.66410 0.02320 0.22210 0.06400
C 	C 	0.69100 0.05350 0.20100 -0.14800
H 	H 	0.70140 0.08230 0.19890 0.06600
C 	C 	0.73370 0.02900 0.18000 -0.03300
H 	H 	0.75950 0.04020 0.16620 0.03500
C 	C 	0.59800 0.11400 0.14800 -0.11700
C 	C 	0.59000 0.06900 0.13900 0.14100
H 	H 	0.58680 0.04000 0.15560 -0.03700
C 	C 	0.58600 0.05400 0.08800 -0.08200
H 	H 	0.58290 0.02240 0.07750 0.04400
C 	C 	0.64460 0.17290 0.31940 0.04200
C 	C 	0.61520 0.21170 0.31440 -0.11700
H 	H 	0.59050 0.21540 0.29440 0.04500
C 	C 	0.62530 0.24990 0.34280 -0.01200
H 	H 	0.61180 0.28360 0.32990 0.02200
C 	C 	0.52300 0.07700 0.31400 0.09000
C 	C 	0.54700 0.05800 0.34800 -0.10400
H 	H 	0.58210 0.06020 0.35440 0.03200
C 	C 	0.52200 0.03200 0.38700 -0.01600
H 	H 	0.53850 0.01620 0.40840 0.02200
N 	N 	0.62330 0.03850 0.24270 -0.27100
N 	N 	0.60140 0.13390 0.19030 -0.27700
N 	N 	0.64640 0.13010 0.29720 -0.29700
N 	N 	0.53940 0.10060 0.27680 -0.28000
C 	C 	0.57300 0.11800 0.15300 0.16200
C 	C 	0.55500 0.07600 0.14600 -0.26600
H 	H 	0.55820 0.05020 0.16800 0.08500
C 	C 	0.53900 0.07100 0.10300 0.04600
H 	H 	0.52480 0.04220 0.09660 0.00800
H 	H 	0.69750 0.08350 0.31840 -0.03700
C 	C 	0.52530 0.10150 0.32310 -0.04100
C 	C 	0.55010 0.09570 0.36470 0.01000
H 	H 	0.58240 0.09490 0.36520 0.00300
C 	C 	0.52500 0.09300 0.40600 -0.04900
H 	H 	0.53930 0.08820 0.43360 0.03700
Co	Co	0.74850 0.60350 0.89560 1.11000
C 	C 	0.77790 0.66410 0.97680 0.07000
C 	C 	0.79900 0.69100 0.94650 -0.15200
H 	H 	0.80110 0.70140 0.91770 0.06800
C 	C 	0.82000 0.73370 0.97100 -0.02900
H 	H 	0.83380 0.75950 0.95980 0.03400
C 	C 	0.85200 0.59800 0.88600 -0.11700
C 	C 	0.86100 0.59000 0.93100 0.14100
H 	H 	0.84440 0.58680 0.96000 -0.03700
C 	C 	0.91200 0.58600 0.94600 -0.08200
H 	H 	0.92250 0.58290 0.97760 0.04500
C 	C 	0.68060 0.64460 0.82710 0.04200
C 	C 	0.68560 0.61520 0.78830 -0.11700
H 	H 	0.70560 0.59050 0.78460 0.04500
C 	C 	0.65720 0.62530 0.75010 -0.01200
H 	H 	0.67010 0.61180 0.71640 0.02200
C 	C 	0.68600 0.52300 0.92300 0.09000
C 	C 	0.65200 0.54700 0.94200 -0.10300
H 	H 	0.64560 0.58210 0.93980 0.03200
C 	C 	0.61300 0.52200 0.96800 -0.01600
H 	H 	0.59160 0.53850 0.98380 0.02400
N 	N 	0.75730 0.62330 0.96150 -0.27200
N 	N 	0.80970 0.60140 0.86610 -0.27700
N 	N 	0.70280 0.64640 0.86990 -0.29700
N 	N 	0.72320 0.53940 0.89940 -0.28000
C 	C 	0.84700 0.57300 0.88200 0.16200
C 	C 	0.85400 0.55500 0.92400 -0.26600
H 	H 	0.83200 0.55820 0.94980 0.08600
C 	C 	0.89700 0.53900 0.92900 0.04700
H 	H 	0.90340 0.52480 0.95780 0.00800
H 	H 	0.68160 0.69750 0.91650 -0.03700
C 	C 	0.67690 0.52530 0.89850 -0.04100
C 	C 	0.63530 0.55010 0.90430 0.00900
H 	H 	0.63480 0.58240 0.90510 0.00300
C 	C 	0.59400 0.52500 0.90700 -0.04900
H 	H 	0.56640 0.53930 0.91180 0.03700
Co	Co	0.74850 0.39650 0.10440 1.11000
C 	C 	0.77790 0.33590 0.02320 0.06400
C 	C 	0.79900 0.30900 0.05350 -0.14800
H 	H 	0.80110 0.29860 0.08230 0.06600
C 	C 	0.82000 0.26630 0.02900 -0.03300
H 	H 	0.83380 0.24050 0.04020 0.03500
C 	C 	0.85200 0.40200 0.11400 -0.11700
C 	C 	0.86100 0.41000 0.06900 0.14100
H 	H 	0.84440 0.41320 0.04000 -0.03700
C 	C 	0.91200 0.41400 0.05400 -0.08200
H 	H 	0.92250 0.41710 0.02240 0.04400
C 	C 	0.68060 0.35540 0.17290 0.04200
C 	C 	0.68560 0.38480 0.21170 -0.11700
H 	H 	0.70560 0.40950 0.21540 0.04500
C 	C 	0.65720 0.37470 0.24990 -0.01200
H 	H 	0.67010 0.38820 0.28360 0.02200
C 	C 	0.68600 0.47700 0.07700 0.09000
C 	C 	0.65200 0.45300 0.05800 -0.10400
H 	H 	0.64560 0.41790 0.06020 0.03200
C 	C 	0.61300 0.47800 0.03200 -0.01600
H 	H 	0.59160 0.46150 0.01620 0.02200
N 	N 	0.75730 0.37670 0.03850 -0.27100
N 	N 	0.80970 0.39860 0.13390 -0.27700
N 	N 	0.70280 0.35360 0.13010 -0.29700
N 	N 	0.72320 0.46060 0.10060 -0.28000
C 	C 	0.84700 0.42700 0.11800 0.16200
C 	C 	0.85400 0.44500 0.07600 -0.26600
H 	H 	0.83200 0.44180 0.05020 0.08500
C 	C 	0.89700 0.46100 0.07100 0.04600
H 	H 	0.90340 0.47520 0.04220 0.00800
H 	H 	0.68160 0.30250 0.08350 -0.03700
C 	C 	0.67690 0.47470 0.10150 -0.04100
C 	C 	0.63530 0.44990 0.09570 0.01000
H 	H 	0.63480 0.41760 0.09490 0.00300
C 	C 	0.59400 0.47500 0.09300 -0.04900
H 	H 	0.56640 0.46070 0.08820 0.03700
Co	Co	0.25150 0.39650 0.89560 1.11000
C 	C 	0.22210 0.33590 0.97680 0.07000
C 	C 	0.20100 0.30900 0.94650 -0.15200
H 	H 	0.19890 0.29860 0.91770 0.06800
C 	C 	0.18000 0.26630 0.97100 -0.02900
H 	H 	0.16620 0.24050 0.95980 0.03300
C 	C 	0.14800 0.40200 0.88600 -0.11700
C 	C 	0.13900 0.41000 0.93100 0.14100
H 	H 	0.15560 0.41320 0.96000 -0.03700
C 	C 	0.08800 0.41400 0.94600 -0.08200
H 	H 	0.07750 0.41710 0.97760 0.04500
C 	C 	0.31940 0.35540 0.82710 0.04200
C 	C 	0.31440 0.38480 0.78830 -0.11700
H 	H 	0.29440 0.40950 0.78460 0.04500
C 	C 	0.34280 0.37470 0.75010 -0.01200
H 	H 	0.32990 0.38820 0.71640 0.02200
C 	C 	0.31400 0.47700 0.92300 0.09000
C 	C 	0.34800 0.45300 0.94200 -0.10300
H 	H 	0.35440 0.41790 0.93980 0.03200
C 	C 	0.38700 0.47800 0.96800 -0.01600
H 	H 	0.40840 0.46150 0.98380 0.02400
N 	N 	0.24270 0.37670 0.96150 -0.27200
N 	N 	0.19030 0.39860 0.86610 -0.27700
N 	N 	0.29720 0.35360 0.86990 -0.29700
N 	N 	0.27680 0.46060 0.89940 -0.28000
C 	C 	0.15300 0.42700 0.88200 0.16200
C 	C 	0.14600 0.44500 0.92400 -0.26600
H 	H 	0.16800 0.44180 0.94980 0.08600
C 	C 	0.10300 0.46100 0.92900 0.04700
H 	H 	0.09660 0.47520 0.95780 0.00800
H 	H 	0.31840 0.30250 0.91650 -0.03700
C 	C 	0.32310 0.47470 0.89850 -0.04100
C 	C 	0.36470 0.44990 0.90430 0.00900
H 	H 	0.36520 0.41760 0.90510 0.00300
C 	C 	0.40600 0.47500 0.90700 -0.04900
H 	H 	0.43360 0.46070 0.91180 0.03700
Co	Co	0.25150 0.60350 0.10440 1.11000
C 	C 	0.22210 0.66410 0.02320 0.06400
C 	C 	0.20100 0.69100 0.05350 -0.14800
H 	H 	0.19890 0.70140 0.08230 0.06600
C 	C 	0.18000 0.73370 0.02900 -0.03300
H 	H 	0.16620 0.75950 0.04020 0.03500
C 	C 	0.14800 0.59800 0.11400 -0.11700
C 	C 	0.13900 0.59000 0.06900 0.14100
H 	H 	0.15560 0.58680 0.04000 -0.03700
C 	C 	0.08800 0.58600 0.05400 -0.08200
H 	H 	0.07750 0.58290 0.02240 0.04400
C 	C 	0.31940 0.64460 0.17290 0.04200
C 	C 	0.31440 0.61520 0.21170 -0.11700
H 	H 	0.29440 0.59050 0.21540 0.04500
C 	C 	0.34280 0.62530 0.24990 -0.01200
H 	H 	0.32990 0.61180 0.28360 0.02200
C 	C 	0.31400 0.52300 0.07700 0.09000
C 	C 	0.34800 0.54700 0.05800 -0.10400
H 	H 	0.35440 0.58210 0.06020 0.03200
C 	C 	0.38700 0.52200 0.03200 -0.01600
H 	H 	0.40840 0.53850 0.01620 0.02200
N 	N 	0.24270 0.62330 0.03850 -0.27100
N 	N 	0.19030 0.60140 0.13390 -0.27700
N 	N 	0.29720 0.64640 0.13010 -0.29700
N 	N 	0.27680 0.53940 0.10060 -0.28000
C 	C 	0.15300 0.57300 0.11800 0.16200
C 	C 	0.14600 0.55500 0.07600 -0.26600
H 	H 	0.16800 0.55820 0.05020 0.08500
C 	C 	0.10300 0.53900 0.07100 0.04600
H 	H 	0.09660 0.52480 0.04220 0.00800
H 	H 	0.31840 0.69750 0.08350 -0.03700
C 	C 	0.32310 0.52530 0.10150 -0.04100
C 	C 	0.36470 0.55010 0.09570 0.01000
H 	H 	0.36520 0.58240 0.09490 0.00300
C 	C 	0.40600 0.52500 0.09300 -0.04900
H 	H 	0.43360 0.53930 0.08820 0.03700
Co	Co	0.89560 0.74850 0.60350 1.11000
C 	C 	0.97680 0.77790 0.66410 0.07000
C 	C 	0.94650 0.79900 0.69100 -0.15200
H 	H 	0.91770 0.80110 0.70140 0.06800
C 	C 	0.97100 0.82000 0.73370 -0.02900
H 	H 	0.95980 0.83380 0.75950 0.03400
C 	C 	0.88600 0.85200 0.59800 -0.11700
C 	C 	0.93100 0.86100 0.59000 0.14100
H 	H 	0.96000 0.84440 0.58680 -0.03700
C 	C 	0.94600 0.91200 0.58600 -0.08200
H 	H 	0.97760 0.92250 0.58290 0.04500
C 	C 	0.82710 0.68060 0.64460 0.04200
C 	C 	0.78830 0.68560 0.61520 -0.11700
H 	H 	0.78460 0.70560 0.59050 0.04500
C 	C 	0.75010 0.65720 0.62530 -0.01200
H 	H 	0.71640 0.67010 0.61180 0.02200
C 	C 	0.92300 0.68600 0.52300 0.09000
C 	C 	0.94200 0.65200 0.54700 -0.10300
H 	H 	0.93980 0.64560 0.58210 0.03200
C 	C 	0.96800 0.61300 0.52200 -0.01600
H 	H 	0.98380 0.59160 0.53850 0.02400
N 	N 	0.96150 0.75730 0.62330 -0.27200
N 	N 	0.86610 0.80970 0.60140 -0.27700
N 	N 	0.86990 0.70280 0.64640 -0.29700
N 	N 	0.89940 0.72320 0.53940 -0.28000
C 	C 	0.88200 0.84700 0.57300 0.16200
C 	C 	0.92400 0.85400 0.55500 -0.26600
H 	H 	0.94980 0.83200 0.55820 0.08600
C 	C 	0.92900 0.89700 0.53900 0.04700
H 	H 	0.95780 0.90340 0.52480 0.00800
H 	H 	0.91650 0.68160 0.69750 -0.03700
C 	C 	0.89850 0.67690 0.52530 -0.04100
C 	C 	0.90430 0.63530 0.55010 0.00900
H 	H 	0.90510 0.63480 0.58240 0.00300
C 	C 	0.90700 0.59400 0.52500 -0.04900
H 	H 	0.91180 0.56640 0.53930 0.03700
Co	Co	0.10440 0.74850 0.39650 1.11000
C 	C 	0.02320 0.77790 0.33590 0.06400
C 	C 	0.05350 0.79900 0.30900 -0.14800
H 	H 	0.08230 0.80110 0.29860 0.06600
C 	C 	0.02900 0.82000 0.26630 -0.03300
H 	H 	0.04020 0.83380 0.24050 0.03500
C 	C 	0.11400 0.85200 0.40200 -0.11700
C 	C 	0.06900 0.86100 0.41000 0.14100
H 	H 	0.04000 0.84440 0.41320 -0.03700
C 	C 	0.05400 0.91200 0.41400 -0.08200
H 	H 	0.02240 0.92250 0.41710 0.04400
C 	C 	0.17290 0.68060 0.35540 0.04200
C 	C 	0.21170 0.68560 0.38480 -0.11700
H 	H 	0.21540 0.70560 0.40950 0.04500
C 	C 	0.24990 0.65720 0.37470 -0.01200
H 	H 	0.28360 0.67010 0.38820 0.02200
C 	C 	0.07700 0.68600 0.47700 0.09000
C 	C 	0.05800 0.65200 0.45300 -0.10400
H 	H 	0.06020 0.64560 0.41790 0.03200
C 	C 	0.03200 0.61300 0.47800 -0.01600
H 	H 	0.01620 0.59160 0.46150 0.02200
N 	N 	0.03850 0.75730 0.37670 -0.27100
N 	N 	0.13390 0.80970 0.39860 -0.27700
N 	N 	0.13010 0.70280 0.35360 -0.29700
N 	N 	0.10060 0.72320 0.46060 -0.28000
C 	C 	0.11800 0.84700 0.42700 0.16200
C 	C 	0.07600 0.85400 0.44500 -0.26600
H 	H 	0.05020 0.83200 0.44180 0.08500
C 	C 	0.07100 0.89700 0.46100 0.04600
H 	H 	0.04220 0.90340 0.47520 0.00800
H 	H 	0.08350 0.68160 0.30250 -0.03700
C 	C 	0.10150 0.67690 0.47470 -0.04100
C 	C 	0.09570 0.63530 0.44990 0.01000
H 	H 	0.09490 0.63480 0.41760 0.00300
C 	C 	0.09300 0.59400 0.47500 -0.04900
H 	H 	0.08820 0.56640 0.46070 0.03700
Co	Co	0.89560 0.25150 0.39650 1.11000
C 	C 	0.97680 0.22210 0.33590 0.07000
C 	C 	0.94650 0.20100 0.30900 -0.15200
H 	H 	0.91770 0.19890 0.29860 0.06800
C 	C 	0.97100 0.18000 0.26630 -0.02900
H 	H 	0.95980 0.16620 0.24050 0.03300
C 	C 	0.88600 0.14800 0.40200 -0.11700
C 	C 	0.93100 0.13900 0.41000 0.14100
H 	H 	0.96000 0.15560 0.41320 -0.03700
C 	C 	0.94600 0.08800 0.41400 -0.08200
H 	H 	0.97760 0.07750 0.41710 0.04500
C 	C 	0.82710 0.31940 0.35540 0.04200
C 	C 	0.78830 0.31440 0.38480 -0.11700
H 	H 	0.78460 0.29440 0.40950 0.04500
C 	C 	0.75010 0.34280 0.37470 -0.01200
H 	H 	0.71640 0.32990 0.38820 0.02200
C 	C 	0.92300 0.31400 0.47700 0.09000
C 	C 	0.94200 0.34800 0.45300 -0.10300
H 	H 	0.93980 0.35440 0.41790 0.03200
C 	C 	0.96800 0.38700 0.47800 -0.01600
H 	H 	0.98380 0.40840 0.46150 0.02400
N 	N 	0.96150 0.24270 0.37670 -0.27200
N 	N 	0.86610 0.19030 0.39860 -0.27700
N 	N 	0.86990 0.29720 0.35360 -0.29700
N 	N 	0.89940 0.27680 0.46060 -0.28000
C 	C 	0.88200 0.15300 0.42700 0.16200
C 	C 	0.92400 0.14600 0.44500 -0.26600
H 	H 	0.94980 0.16800 0.44180 0.08600
C 	C 	0.92900 0.10300 0.46100 0.04700
H 	H 	0.95780 0.09660 0.47520 0.00800
H 	H 	0.91650 0.31840 0.30250 -0.03700
C 	C 	0.89850 0.32310 0.47470 -0.04100
C 	C 	0.90430 0.36470 0.44990 0.00900
H 	H 	0.90510 0.36520 0.41760 0.00300
C 	C 	0.90700 0.40600 0.47500 -0.04900
H 	H 	0.91180 0.43360 0.46070 0.03700
Co	Co	0.10440 0.25150 0.60350 1.11000
C 	C 	0.02320 0.22210 0.66410 0.06400
C 	C 	0.05350 0.20100 0.69100 -0.14800
H 	H 	0.08230 0.19890 0.70140 0.06600
C 	C 	0.02900 0.18000 0.73370 -0.03300
H 	H 	0.04020 0.16620 0.75950 0.03500
C 	C 	0.11400 0.14800 0.59800 -0.11700
C 	C 	0.06900 0.13900 0.59000 0.14100
H 	H 	0.04000 0.15560 0.58680 -0.03700
C 	C 	0.05400 0.08800 0.58600 -0.08200
H 	H 	0.02240 0.07750 0.58290 0.04400
C 	C 	0.17290 0.31940 0.64460 0.04200
C 	C 	0.21170 0.31440 0.61520 -0.11700
H 	H 	0.21540 0.29440 0.59050 0.04500
C 	C 	0.24990 0.34280 0.62530 -0.01200
H 	H 	0.28360 0.32990 0.61180 0.02200
C 	C 	0.07700 0.31400 0.52300 0.09000
C 	C 	0.05800 0.34800 0.54700 -0.10400
H 	H 	0.06020 0.35440 0.58210 0.03200
C 	C 	0.03200 0.38700 0.52200 -0.01600
H 	H 	0.01620 0.40840 0.53850 0.02200
N 	N 	0.03850 0.24270 0.62330 -0.27100
N 	N 	0.13390 0.19030 0.60140 -0.27700
N 	N 	0.13010 0.29720 0.64640 -0.29700
N 	N 	0.10060 0.27680 0.53940 -0.28000
C 	C 	0.11800 0.15300 0.57300 0.16200
C 	C 	0.07600 0.14600 0.55500 -0.26600
H 	H 	0.05020 0.16800 0.55820 0.08500
C 	C 	0.07100 0.10300 0.53900 0.04600
H 	H 	0.04220 0.09660 0.52480 0.00800
H 	H 	0.08350 0.31840 0.69750 -0.03700
C 	C 	0.10150 0.32310 0.52530 -0.04100
C 	C 	0.09570 0.36470 0.55010 0.01000
H 	H 	0.09490 0.36520 0.58240 0.00300
C 	C 	0.09300 0.40600 0.52500 -0.04900
H 	H 	0.08820 0.43360 0.53930 0.03700
Co	Co	0.89560 0.60350 0.25150 1.11000
C 	C 	0.97680 0.66410 0.22210 0.07000
C 	C 	0.94650 0.69100 0.20100 -0.15200
H 	H 	0.91770 0.70140 0.19890 0.06800
C 	C 	0.97100 0.73370 0.18000 -0.02900
H 	H 	0.95980 0.75950 0.16620 0.03300
C 	C 	0.88600 0.59800 0.14800 -0.11700
C 	C 	0.93100 0.59000 0.13900 0.14100
H 	H 	0.96000 0.58680 0.15560 -0.03700
C 	C 	0.94600 0.58600 0.08800 -0.08200
H 	H 	0.97760 0.58290 0.07750 0.04500
C 	C 	0.82710 0.64460 0.31940 0.04200
C 	C 	0.78830 0.61520 0.31440 -0.11700
H 	H 	0.78460 0.59050 0.29440 0.04500
C 	C 	0.75010 0.62530 0.34280 -0.01200
H 	H 	0.71640 0.61180 0.32990 0.02200
C 	C 	0.92300 0.52300 0.31400 0.09000
C 	C 	0.94200 0.54700 0.34800 -0.10300
H 	H 	0.93980 0.58210 0.35440 0.03200
C 	C 	0.96800 0.52200 0.38700 -0.01600
H 	H 	0.98380 0.53850 0.40840 0.02400
N 	N 	0.96150 0.62330 0.24270 -0.27200
N 	N 	0.86610 0.60140 0.19030 -0.27700
N 	N 	0.86990 0.64640 0.29720 -0.29700
N 	N 	0.89940 0.53940 0.27680 -0.28000
C 	C 	0.88200 0.57300 0.15300 0.16200
C 	C 	0.92400 0.55500 0.14600 -0.26600
H 	H 	0.94980 0.55820 0.16800 0.08600
C 	C 	0.92900 0.53900 0.10300 0.04700
H 	H 	0.95780 0.52480 0.09660 0.00800
H 	H 	0.91650 0.69750 0.31840 -0.03700
C 	C 	0.89850 0.52530 0.32310 -0.04100
C 	C 	0.90430 0.55010 0.36470 0.00900
H 	H 	0.90510 0.58240 0.36520 0.00300
C 	C 	0.90700 0.52500 0.40600 -0.04900
H 	H 	0.91180 0.53930 0.43360 0.03700
Co	Co	0.10440 0.39650 0.25150 1.11000
C 	C 	0.02320 0.33590 0.22210 0.06400
C 	C 	0.05350 0.30900 0.20100 -0.14800
H 	H 	0.08230 0.29860 0.19890 0.06600
C 	C 	0.02900 0.26630 0.18000 -0.03300
H 	H 	0.04020 0.24050 0.16620 0.03400
C 	C 	0.11400 0.40200 0.14800 -0.11700
C 	C 	0.06900 0.41000 0.13900 0.14100
H 	H 	0.04000 0.41320 0.15560 -0.03700
C 	C 	0.05400 0.41400 0.08800 -0.08200
H 	H 	0.02240 0.41710 0.07750 0.04400
C 	C 	0.17290 0.35540 0.31940 0.04200
C 	C 	0.21170 0.38480 0.31440 -0.11700
H 	H 	0.21540 0.40950 0.29440 0.04500
C 	C 	0.24990 0.37470 0.34280 -0.01200
H 	H 	0.28360 0.38820 0.32990 0.02200
C 	C 	0.07700 0.47700 0.31400 0.09000
C 	C 	0.05800 0.45300 0.34800 -0.10400
H 	H 	0.06020 0.41790 0.35440 0.03200
C 	C 	0.03200 0.47800 0.38700 -0.01600
H 	H 	0.01620 0.46150 0.40840 0.02200
N 	N 	0.03850 0.37670 0.24270 -0.27100
N 	N 	0.13390 0.39860 0.19030 -0.27700
N 	N 	0.13010 0.35360 0.29720 -0.29700
N 	N 	0.10060 0.46060 0.27680 -0.28000
C 	C 	0.11800 0.42700 0.15300 0.16200
C 	C 	0.07600 0.44500 0.14600 -0.26600
H 	H 	0.05020 0.44180 0.16800 0.08500
C 	C 	0.07100 0.46100 0.10300 0.04600
H 	H 	0.04220 0.47520 0.09660 0.00800
H 	H 	0.08350 0.30250 0.31840 -0.03700
C 	C 	0.10150 0.47470 0.32310 -0.04100
C 	C 	0.09570 0.44990 0.36470 0.01000
H 	H 	0.09490 0.41760 0.36520 0.00300
C 	C 	0.09300 0.47500 0.40600 -0.04900
H 	H 	0.08820 0.46070 0.43360 0.03700
Co	Co	0.89560 0.39650 0.74850 1.11000
C 	C 	0.97680 0.33590 0.77790 0.07000
C 	C 	0.94650 0.30900 0.79900 -0.15200
H 	H 	0.91770 0.29860 0.80110 0.06800
C 	C 	0.97100 0.26630 0.82000 -0.02900
H 	H 	0.95980 0.24050 0.83380 0.03300
C 	C 	0.88600 0.40200 0.85200 -0.11700
C 	C 	0.93100 0.41000 0.86100 0.14100
H 	H 	0.96000 0.41320 0.84440 -0.03700
C 	C 	0.94600 0.41400 0.91200 -0.08200
H 	H 	0.97760 0.41710 0.92250 0.04500
C 	C 	0.82710 0.35540 0.68060 0.04200
C 	C 	0.78830 0.38480 0.68560 -0.11700
H 	H 	0.78460 0.40950 0.70560 0.04500
C 	C 	0.75010 0.37470 0.65720 -0.01200
H 	H 	0.71640 0.38820 0.67010 0.02200
C 	C 	0.92300 0.47700 0.68600 0.09000
C 	C 	0.94200 0.45300 0.65200 -0.10300
H 	H 	0.93980 0.41790 0.64560 0.03200
C 	C 	0.96800 0.47800 0.61300 -0.01600
H 	H 	0.98380 0.46150 0.59160 0.02400
N 	N 	0.96150 0.37670 0.75730 -0.27200
N 	N 	0.86610 0.39860 0.80970 -0.27700
N 	N 	0.86990 0.35360 0.70280 -0.29700
N 	N 	0.89940 0.46060 0.72320 -0.28000
C 	C 	0.88200 0.42700 0.84700 0.16200
C 	C 	0.92400 0.44500 0.85400 -0.26600
H 	H 	0.94980 0.44180 0.83200 0.08600
C 	C 	0.92900 0.46100 0.89700 0.04700
H 	H 	0.95780 0.47520 0.90340 0.00800
H 	H 	0.91650 0.30250 0.68160 -0.03700
C 	C 	0.89850 0.47470 0.67690 -0.04100
C 	C 	0.90430 0.44990 0.63530 0.00900
H 	H 	0.90510 0.41760 0.63480 0.00300
C 	C 	0.90700 0.47500 0.59400 -0.04900
H 	H 	0.91180 0.46070 0.56640 0.03700
Co	Co	0.10440 0.60350 0.74850 1.11000
C 	C 	0.02320 0.66410 0.77790 0.06400
C 	C 	0.05350 0.69100 0.79900 -0.14800
H 	H 	0.08230 0.70140 0.80110 0.06600
C 	C 	0.02900 0.73370 0.82000 -0.03300
H 	H 	0.04020 0.75950 0.83380 0.03500
C 	C 	0.11400 0.59800 0.85200 -0.11700
C 	C 	0.06900 0.59000 0.86100 0.14100
H 	H 	0.04000 0.58680 0.84440 -0.03700
C 	C 	0.05400 0.58600 0.91200 -0.08200
H 	H 	0.02240 0.58290 0.92250 0.04400
C 	C 	0.17290 0.64460 0.68060 0.04200
C 	C 	0.21170 0.61520 0.68560 -0.11700
H 	H 	0.21540 0.59050 0.70560 0.04500
C 	C 	0.24990 0.62530 0.65720 -0.01200
H 	H 	0.28360 0.61180 0.67010 0.02200
C 	C 	0.07700 0.52300 0.68600 0.09000
C 	C 	0.05800 0.54700 0.65200 -0.10400
H 	H 	0.06020 0.58210 0.64560 0.03200
C 	C 	0.03200 0.52200 0.61300 -0.01600
H 	H 	0.01620 0.53850 0.59160 0.02200
N 	N 	0.03850 0.62330 0.75730 -0.27100
N 	N 	0.13390 0.60140 0.80970 -0.27700
N 	N 	0.13010 0.64640 0.70280 -0.29700
N 	N 	0.10060 0.53940 0.72320 -0.28000
C 	C 	0.11800 0.57300 0.84700 0.16200
C 	C 	0.07600 0.55500 0.85400 -0.26600
H 	H 	0.05020 0.55820 0.83200 0.08500
C 	C 	0.07100 0.53900 0.89700 0.04600
H 	H 	0.04220 0.52480 0.90340 0.00800
H 	H 	0.08350 0.69750 0.68160 -0.03700
C 	C 	0.10150 0.52530 0.67690 -0.04100
C 	C 	0.09570 0.55010 0.63530 0.01000
H 	H 	0.09490 0.58240 0.63480 0.00300
C 	C 	0.09300 0.52500 0.59400 -0.04900
H 	H 	0.08820 0.53930 0.56640 0.03700
Co	Co	0.60350 0.74850 0.10440 1.11000
C 	C 	0.66410 0.77790 0.02320 0.06400
C 	C 	0.69100 0.79900 0.05350 -0.14800
H 	H 	0.70140 0.80110 0.08230 0.06600
C 	C 	0.73370 0.82000 0.02900 -0.03300
H 	H 	0.75950 0.83380 0.04020 0.03500
C 	C 	0.59800 0.85200 0.11400 -0.11700
C 	C 	0.59000 0.86100 0.06900 0.14100
H 	H 	0.58680 0.84440 0.04000 -0.03700
C 	C 	0.58600 0.91200 0.05400 -0.08200
H 	H 	0.58290 0.92250 0.02240 0.04400
C 	C 	0.64460 0.68060 0.17290 0.04200
C 	C 	0.61520 0.68560 0.21170 -0.11700
H 	H 	0.59050 0.70560 0.21540 0.04500
C 	C 	0.62530 0.65720 0.24990 -0.01200
H 	H 	0.61180 0.67010 0.28360 0.02200
C 	C 	0.52300 0.68600 0.07700 0.09000
C 	C 	0.54700 0.65200 0.05800 -0.10400
H 	H 	0.58210 0.64560 0.06020 0.03200
C 	C 	0.52200 0.61300 0.03200 -0.01600
H 	H 	0.53850 0.59160 0.01620 0.02200
N 	N 	0.62330 0.75730 0.03850 -0.27100
N 	N 	0.60140 0.80970 0.13390 -0.27700
N 	N 	0.64640 0.70280 0.13010 -0.29700
N 	N 	0.53940 0.72320 0.10060 -0.28000
C 	C 	0.57300 0.84700 0.11800 0.16200
C 	C 	0.55500 0.85400 0.07600 -0.26600
H 	H 	0.55820 0.83200 0.05020 0.08500
C 	C 	0.53900 0.89700 0.07100 0.04600
H 	H 	0.52480 0.90340 0.04220 0.00800
H 	H 	0.69750 0.68160 0.08350 -0.03700
C 	C 	0.52530 0.67690 0.10150 -0.04100
C 	C 	0.55010 0.63530 0.09570 0.01000
H 	H 	0.58240 0.63480 0.09490 0.00300
C 	C 	0.52500 0.59400 0.09300 -0.04900
H 	H 	0.53930 0.56640 0.08820 0.03700
Co	Co	0.39650 0.74850 0.89560 1.11000
C 	C 	0.33590 0.77790 0.97680 0.07000
C 	C 	0.30900 0.79900 0.94650 -0.15200
H 	H 	0.29860 0.80110 0.91770 0.06800
C 	C 	0.26630 0.82000 0.97100 -0.02900
H 	H 	0.24050 0.83380 0.95980 0.03300
C 	C 	0.40200 0.85200 0.88600 -0.11700
C 	C 	0.41000 0.86100 0.93100 0.14100
H 	H 	0.41320 0.84440 0.96000 -0.03700
C 	C 	0.41400 0.91200 0.94600 -0.08200
H 	H 	0.41710 0.92250 0.97760 0.04500
C 	C 	0.35540 0.68060 0.82710 0.04200
C 	C 	0.38480 0.68560 0.78830 -0.11700
H 	H 	0.40950 0.70560 0.78460 0.04500
C 	C 	0.37470 0.65720 0.75010 -0.01200
H 	H 	0.38820 0.67010 0.71640 0.02200
C 	C 	0.47700 0.68600 0.92300 0.09000
C 	C 	0.45300 0.65200 0.94200 -0.10300
H 	H 	0.41790 0.64560 0.93980 0.03200
C 	C 	0.47800 0.61300 0.96800 -0.01600
H 	H 	0.46150 0.59160 0.98380 0.02400
N 	N 	0.37670 0.75730 0.96150 -0.27200
N 	N 	0.39860 0.80970 0.86610 -0.27700
N 	N 	0.35360 0.70280 0.86990 -0.29700
N 	N 	0.46060 0.72320 0.89940 -0.28000
C 	C 	0.42700 0.84700 0.88200 0.16200
C 	C 	0.44500 0.85400 0.92400 -0.26600
H 	H 	0.44180 0.83200 0.94980 0.08600
C 	C 	0.46100 0.89700 0.92900 0.04700
H 	H 	0.47520 0.90340 0.95780 0.00800
H 	H 	0.30250 0.68160 0.91650 -0.03700
C 	C 	0.47470 0.67690 0.89850 -0.04100
C 	C 	0.44990 0.63530 0.90430 0.00900
H 	H 	0.41760 0.63480 0.90510 0.00300
C 	C 	0.47500 0.59400 0.90700 -0.04900
H 	H 	0.46070 0.56640 0.91180 0.03700
Co	Co	0.39650 0.25150 0.10440 1.11000
C 	C 	0.33590 0.22210 0.02320 0.06400
C 	C 	0.30900 0.20100 0.05350 -0.14800
H 	H 	0.29860 0.19890 0.08230 0.06600
C 	C 	0.26630 0.18000 0.02900 -0.03300
H 	H 	0.24050 0.16620 0.04020 0.03400
C 	C 	0.40200 0.14800 0.11400 -0.11700
C 	C 	0.41000 0.13900 0.06900 0.14100
H 	H 	0.41320 0.15560 0.04000 -0.03700
C 	C 	0.41400 0.08800 0.05400 -0.08200
H 	H 	0.41710 0.07750 0.02240 0.04400
C 	C 	0.35540 0.31940 0.17290 0.04200
C 	C 	0.38480 0.31440 0.21170 -0.11700
H 	H 	0.40950 0.29440 0.21540 0.04500
C 	C 	0.37470 0.34280 0.24990 -0.01200
H 	H 	0.38820 0.32990 0.28360 0.02200
C 	C 	0.47700 0.31400 0.07700 0.09000
C 	C 	0.45300 0.34800 0.05800 -0.10400
H 	H 	0.41790 0.35440 0.06020 0.03200
C 	C 	0.47800 0.38700 0.03200 -0.01600
H 	H 	0.46150 0.40840 0.01620 0.02200
N 	N 	0.37670 0.24270 0.03850 -0.27100
N 	N 	0.39860 0.19030 0.13390 -0.27700
N 	N 	0.35360 0.29720 0.13010 -0.29700
N 	N 	0.46060 0.27680 0.10060 -0.28000
C 	C 	0.42700 0.15300 0.11800 0.16200
C 	C 	0.44500 0.14600 0.07600 -0.26600
H 	H 	0.44180 0.16800 0.05020 0.08500
C 	C 	0.46100 0.10300 0.07100 0.04600
H 	H 	0.47520 0.09660 0.04220 0.00800
H 	H 	0.30250 0.31840 0.08350 -0.03700
C 	C 	0.47470 0.32310 0.10150 -0.04100
C 	C 	0.44990 0.36470 0.09570 0.01000
H 	H 	0.41760 0.36520 0.09490 0.00300
C 	C 	0.47500 0.40600 0.09300 -0.04900
H 	H 	0.46070 0.43360 0.08820 0.03700
Co	Co	0.60350 0.25150 0.89560 1.11000
C 	C 	0.66410 0.22210 0.97680 0.07000
C 	C 	0.69100 0.20100 0.94650 -0.15200
H 	H 	0.70140 0.19890 0.91770 0.06800
C 	C 	0.73370 0.18000 0.97100 -0.02900
H 	H 	0.75950 0.16620 0.95980 0.03300
C 	C 	0.59800 0.14800 0.88600 -0.11700
C 	C 	0.59000 0.13900 0.93100 0.14100
H 	H 	0.58680 0.15560 0.96000 -0.03700
C 	C 	0.58600 0.08800 0.94600 -0.08200
H 	H 	0.58290 0.07750 0.97760 0.04500
C 	C 	0.64460 0.31940 0.82710 0.04200
C 	C 	0.61520 0.31440 0.78830 -0.11700
H 	H 	0.59050 0.29440 0.78460 0.04500
C 	C 	0.62530 0.34280 0.75010 -0.01200
H 	H 	0.61180 0.32990 0.71640 0.02200
C 	C 	0.52300 0.31400 0.92300 0.09000
C 	C 	0.54700 0.34800 0.94200 -0.10300
H 	H 	0.58210 0.35440 0.93980 0.03200
C 	C 	0.52200 0.38700 0.96800 -0.01600
H 	H 	0.53850 0.40840 0.98380 0.02400
N 	N 	0.62330 0.24270 0.96150 -0.27200
N 	N 	0.60140 0.19030 0.86610 -0.27700
N 	N 	0.64640 0.29720 0.86990 -0.29700
N 	N 	0.53940 0.27680 0.89940 -0.28000
C 	C 	0.57300 0.15300 0.88200 0.16200
C 	C 	0.55500 0.14600 0.92400 -0.26600
H 	H 	0.55820 0.16800 0.94980 0.08600
C 	C 	0.53900 0.10300 0.92900 0.04700
H 	H 	0.52480 0.09660 0.95780 0.00800
H 	H 	0.69750 0.31840 0.91650 -0.03700
C 	C 	0.52530 0.32310 0.89850 -0.04100
C 	C 	0.55010 0.36470 0.90430 0.00900
H 	H 	0.58240 0.36520 0.90510 0.00300
C 	C 	0.52500 0.40600 0.90700 -0.04900
H 	H 	0.53930 0.43360 0.91180 0.03700
Co	Co	0.74850 0.89560 0.39650 1.11000
C 	C 	0.77790 0.97680 0.33590 0.07000
C 	C 	0.79900 0.94650 0.30900 -0.15200
H 	H 	0.80110 0.91770 0.29860 0.06800
C 	C 	0.82000 0.97100 0.26630 -0.02900
H 	H 	0.83380 0.95980 0.24050 0.03300
C 	C 	0.85200 0.88600 0.40200 -0.11700
C 	C 	0.86100 0.93100 0.41000 0.14100
H 	H 	0.84440 0.96000 0.41320 -0.03700
C 	C 	0.91200 0.94600 0.41400 -0.08200
H 	H 	0.92250 0.97760 0.41710 0.04500
C 	C 	0.68060 0.82710 0.35540 0.04200
C 	C 	0.68560 0.78830 0.38480 -0.11700
H 	H 	0.70560 0.78460 0.40950 0.04500
C 	C 	0.65720 0.75010 0.37470 -0.01200
H 	H 	0.67010 0.71640 0.38820 0.02200
C 	C 	0.68600 0.92300 0.47700 0.09000
C 	C 	0.65200 0.94200 0.45300 -0.10300
H 	H 	0.64560 0.93980 0.41790 0.03200
C 	C 	0.61300 0.96800 0.47800 -0.01600
H 	H 	0.59160 0.98380 0.46150 0.02400
N 	N 	0.75730 0.96150 0.37670 -0.27200
N 	N 	0.80970 0.86610 0.39860 -0.27700
N 	N 	0.70280 0.86990 0.35360 -0.29700
N 	N 	0.72320 0.89940 0.46060 -0.28000
C 	C 	0.84700 0.88200 0.42700 0.16200
C 	C 	0.85400 0.92400 0.44500 -0.26600
H 	H 	0.83200 0.94980 0.44180 0.08600
C 	C 	0.89700 0.92900 0.46100 0.04700
H 	H 	0.90340 0.95780 0.47520 0.00800
H 	H 	0.68160 0.91650 0.30250 -0.03700
C 	C 	0.67690 0.89850 0.47470 -0.04100
C 	C 	0.63530 0.90430 0.44990 0.00900
H 	H 	0.63480 0.90510 0.41760 0.00300
C 	C 	0.59400 0.90700 0.47500 -0.04900
H 	H 	0.56640 0.91180 0.46070 0.03700
Co	Co	0.74850 0.10440 0.60350 1.11000
C 	C 	0.77790 0.02320 0.66410 0.06400
C 	C 	0.79900 0.05350 0.69100 -0.14800
H 	H 	0.80110 0.08230 0.70140 0.06600
C 	C 	0.82000 0.02900 0.73370 -0.03300
H 	H 	0.83380 0.04020 0.75950 0.03500
C 	C 	0.85200 0.11400 0.59800 -0.11700
C 	C 	0.86100 0.06900 0.59000 0.14100
H 	H 	0.84440 0.04000 0.58680 -0.03700
C 	C 	0.91200 0.05400 0.58600 -0.08200
H 	H 	0.92250 0.02240 0.58290 0.04400
C 	C 	0.68060 0.17290 0.64460 0.04200
C 	C 	0.68560 0.21170 0.61520 -0.11700
H 	H 	0.70560 0.21540 0.59050 0.04500
C 	C 	0.65720 0.24990 0.62530 -0.01200
H 	H 	0.67010 0.28360 0.61180 0.02200
C 	C 	0.68600 0.07700 0.52300 0.09000
C 	C 	0.65200 0.05800 0.54700 -0.10400
H 	H 	0.64560 0.06020 0.58210 0.03200
C 	C 	0.61300 0.03200 0.52200 -0.01600
H 	H 	0.59160 0.01620 0.53850 0.02200
N 	N 	0.75730 0.03850 0.62330 -0.27100
N 	N 	0.80970 0.13390 0.60140 -0.27700
N 	N 	0.70280 0.13010 0.64640 -0.29700
N 	N 	0.72320 0.10060 0.53940 -0.28000
C 	C 	0.84700 0.11800 0.57300 0.16200
C 	C 	0.85400 0.07600 0.55500 -0.26600
H 	H 	0.83200 0.05020 0.55820 0.08500
C 	C 	0.89700 0.07100 0.53900 0.04600
H 	H 	0.90340 0.04220 0.52480 0.00800
H 	H 	0.68160 0.08350 0.69750 -0.03700
C 	C 	0.67690 0.10150 0.52530 -0.04100
C 	C 	0.63530 0.09570 0.55010 0.01000
H 	H 	0.63480 0.09490 0.58240 0.00300
C 	C 	0.59400 0.09300 0.52500 -0.04900
H 	H 	0.56640 0.08820 0.53930 0.03700
Co	Co	0.25150 0.89560 0.60350 1.11000
C 	C 	0.22210 0.97680 0.66410 0.07000
C 	C 	0.20100 0.94650 0.69100 -0.15200
H 	H 	0.19890 0.91770 0.70140 0.06800
C 	C 	0.18000 0.97100 0.73370 -0.02900
H 	H 	0.16620 0.95980 0.75950 0.03300
C 	C 	0.14800 0.88600 0.59800 -0.11700
C 	C 	0.13900 0.93100 0.59000 0.14100
H 	H 	0.15560 0.96000 0.58680 -0.03700
C 	C 	0.08800 0.94600 0.58600 -0.08200
H 	H 	0.07750 0.97760 0.58290 0.04500
C 	C 	0.31940 0.82710 0.64460 0.04200
C 	C 	0.31440 0.78830 0.61520 -0.11700
H 	H 	0.29440 0.78460 0.59050 0.04500
C 	C 	0.34280 0.75010 0.62530 -0.01200
H 	H 	0.32990 0.71640 0.61180 0.02200
C 	C 	0.31400 0.92300 0.52300 0.09000
C 	C 	0.34800 0.94200 0.54700 -0.10300
H 	H 	0.35440 0.93980 0.58210 0.03200
C 	C 	0.38700 0.96800 0.52200 -0.01600
H 	H 	0.40840 0.98380 0.53850 0.02400
N 	N 	0.24270 0.96150 0.62330 -0.27200
N 	N 	0.19030 0.86610 0.60140 -0.27700
N 	N 	0.29720 0.86990 0.64640 -0.29700
N 	N 	0.27680 0.89940 0.53940 -0.28000
C 	C 	0.15300 0.88200 0.57300 0.16200
C 	C 	0.14600 0.92400 0.55500 -0.26600
H 	H 	0.16800 0.94980 0.55820 0.08600
C 	C 	0.10300 0.92900 0.53900 0.04700
H 	H 	0.09660 0.95780 0.52480 0.00800
H 	H 	0.31840 0.91650 0.69750 -0.03700
C 	C 	0.32310 0.89850 0.52530 -0.04100
C 	C 	0.36470 0.90430 0.55010 0.00900
H 	H 	0.36520 0.90510 0.58240 0.00300
C 	C 	0.40600 0.90700 0.52500 -0.04900
H 	H 	0.43360 0.91180 0.53930 0.03700
Co	Co	0.25150 0.10440 0.39650 1.11000
C 	C 	0.22210 0.02320 0.33590 0.06400
C 	C 	0.20100 0.05350 0.30900 -0.14800
H 	H 	0.19890 0.08230 0.29860 0.06600
C 	C 	0.18000 0.02900 0.26630 -0.03300
H 	H 	0.16620 0.04020 0.24050 0.03400
C 	C 	0.14800 0.11400 0.40200 -0.11700
C 	C 	0.13900 0.06900 0.41000 0.14100
H 	H 	0.15560 0.04000 0.41320 -0.03700
C 	C 	0.08800 0.05400 0.41400 -0.08200
H 	H 	0.07750 0.02240 0.41710 0.04400
C 	C 	0.31940 0.17290 0.35540 0.04200
C 	C 	0.31440 0.21170 0.38480 -0.11700
H 	H 	0.29440 0.21540 0.40950 0.04500
C 	C 	0.34280 0.24990 0.37470 -0.01200
H 	H 	0.32990 0.28360 0.38820 0.02200
C 	C 	0.31400 0.07700 0.47700 0.09000
C 	C 	0.34800 0.05800 0.45300 -0.10400
H 	H 	0.35440 0.06020 0.41790 0.03200
C 	C 	0.38700 0.03200 0.47800 -0.01600
H 	H 	0.40840 0.01620 0.46150 0.02200
N 	N 	0.24270 0.03850 0.37670 -0.27100
N 	N 	0.19030 0.13390 0.39860 -0.27700
N 	N 	0.29720 0.13010 0.35360 -0.29700
N 	N 	0.27680 0.10060 0.46060 -0.28000
C 	C 	0.15300 0.11800 0.42700 0.16200
C 	C 	0.14600 0.07600 0.44500 -0.26600
H 	H 	0.16800 0.05020 0.44180 0.08500
C 	C 	0.10300 0.07100 0.46100 0.04600
H 	H 	0.09660 0.04220 0.47520 0.00800
H 	H 	0.31840 0.08350 0.30250 -0.03700
C 	C 	0.32310 0.10150 0.47470 -0.04100
C 	C 	0.36470 0.09570 0.44990 0.01000
H 	H 	0.36520 0.09490 0.41760 0.00300
C 	C 	0.40600 0.09300 0.47500 -0.04900
H 	H 	0.43360 0.08820 0.46070 0.03700
C 	C 	0.40010 -0.00000 0.25990 0.07300
H 	H 	0.42270 -0.00000 0.27280 -0.04100
C 	C 	0.59990 -0.00000 0.25990 0.07300
H 	H 	0.57730 -0.00000 0.27280 -0.04100
C 	C 	0.59990 -0.00000 0.74010 0.07300
H 	H 	0.57730 0.00000 0.72720 -0.04100
C 	C 	0.40010 -0.00000 0.74010 0.07300
H 	H 	0.42270 0.00000 0.72720 -0.04100
C 	C 	0.25990 0.40010 -0.00000 0.07300
H 	H 	0.27280 0.42270 -0.00000 -0.04100
C 	C 	0.25990 0.59990 -0.00000 0.07300
H 	H 	0.27280 0.57730 -0.00000 -0.04100
C 	C 	0.74010 0.59990 -0.00000 0.07300
H 	H 	0.72720 0.57730 -0.00000 -0.04100
C 	C 	0.74010 0.40010 -0.00000 0.07300
H 	H 	0.72720 0.42270 -0.00000 -0.04100
C 	C 	-0.00000 0.25990 0.40010 0.07300
H 	H 	-0.00000 0.27280 0.42270 -0.04100
C 	C 	0.00000 0.25990 0.59990 0.07300
H 	H 	-0.00000 0.27280 0.57730 -0.04100
C 	C 	0.00000 0.74010 0.59990 0.07300
H 	H 	-0.00000 0.72720 0.57730 -0.04100
C 	C 	-0.00000 0.74010 0.40010 0.07300
H 	H 	0.00000 0.72720 0.42270 -0.04100
C 	C 	-0.00000 0.40010 0.74010 0.07300
H 	H 	0.00000 0.42270 0.72720 -0.04100
C 	C 	0.00000 0.59990 0.74010 0.07300
H 	H 	0.00000 0.57730 0.72720 -0.04100
C 	C 	0.00000 0.59990 0.25990 0.07300
H 	H 	-0.00000 0.57730 0.27280 -0.04100
C 	C 	-0.00000 0.40010 0.25990 0.07300
H 	H 	-0.00000 0.42270 0.27280 -0.04100
C 	C 	0.40010 0.25990 -0.00000 0.07300
H 	H 	0.42270 0.27280 -0.00000 -0.04100
C 	C 	0.59990 0.25990 -0.00000 0.07300
H 	H 	0.57730 0.27280 -0.00000 -0.04100
C 	C 	0.59990 0.74010 -0.00000 0.07300
H 	H 	0.57730 0.72720 -0.00000 -0.04100
C 	C 	0.40010 0.74010 -0.00000 0.07300
H 	H 	0.42270 0.72720 -0.00000 -0.04100
C 	C 	0.25990 0.00000 0.59990 0.07300
H 	H 	0.27280 0.00000 0.57730 -0.04100
C 	C 	0.25990 0.00000 0.40010 0.07300
H 	H 	0.27280 0.00000 0.42270 -0.04100
C 	C 	0.74010 0.00000 0.40010 0.07300
H 	H 	0.72720 0.00000 0.42270 -0.04100
C 	C 	0.74010 0.00000 0.59990 0.07300
H 	H 	0.72720 0.00000 0.57730 -0.04100
C 	C 	0.39300 0.17930 0.17930 0.07100
H 	H 	0.37960 0.20070 0.20070 -0.04400
C 	C 	0.60700 0.82070 0.17930 0.07100
H 	H 	0.62040 0.79930 0.20070 -0.04400
C 	C 	0.60700 0.17930 0.82070 0.07100
H 	H 	0.62040 0.20070 0.79930 -0.04400
C 	C 	0.39300 0.82070 0.82070 0.07100
H 	H 	0.37960 0.79930 0.79930 -0.04400
C 	C 	0.17930 0.39300 0.17930 0.07100
H 	H 	0.20070 0.37960 0.20070 -0.04400
C 	C 	0.17930 0.60700 0.82070 0.07100
H 	H 	0.20070 0.62040 0.79930 -0.04400
C 	C 	0.82070 0.60700 0.17930 0.07100
H 	H 	0.79930 0.62040 0.20070 -0.04400
C 	C 	0.82070 0.39300 0.82070 0.07100
H 	H 	0.79930 0.37960 0.79930 -0.04400
C 	C 	0.17930 0.17930 0.39300 0.07100
H 	H 	0.20070 0.20070 0.37960 -0.04400
C 	C 	0.82070 0.17930 0.60700 0.07100
H 	H 	0.79930 0.20070 0.62040 -0.04400
C 	C 	0.17930 0.82070 0.60700 0.07100
H 	H 	0.20070 0.79930 0.62040 -0.04400
C 	C 	0.82070 0.82070 0.39300 0.07100
H 	H 	0.79930 0.79930 0.37960 -0.04400
C 	C 	0.17930 0.39300 0.82070 0.07100
H 	H 	0.20070 0.37960 0.79930 -0.04400
C 	C 	0.82070 0.60700 0.82070 0.07100
H 	H 	0.79930 0.62040 0.79930 -0.04400
C 	C 	0.17930 0.60700 0.17930 0.07100
H 	H 	0.20070 0.62040 0.20070 -0.04400
C 	C 	0.82070 0.39300 0.17930 0.07100
H 	H 	0.79930 0.37960 0.20070 -0.04400
C 	C 	0.39300 0.17930 0.82070 0.07100
H 	H 	0.37960 0.20070 0.79930 -0.04400
C 	C 	0.60700 0.17930 0.17930 0.07100
H 	H 	0.62040 0.20070 0.20070 -0.04400
C 	C 	0.60700 0.82070 0.82070 0.07100
H 	H 	0.62040 0.79930 0.79930 -0.04400
C 	C 	0.39300 0.82070 0.17930 0.07100
H 	H 	0.37960 0.79930 0.20070 -0.04400
C 	C 	0.17930 0.17930 0.60700 0.07100
H 	H 	0.20070 0.20070 0.62040 -0.04400
C 	C 	0.17930 0.82070 0.39300 0.07100
H 	H 	0.20070 0.79930 0.37960 -0.04400
C 	C 	0.82070 0.17930 0.39300 0.07100
H 	H 	0.79930 0.20070 0.37960 -0.04400
C 	C 	0.82070 0.82070 0.60700 0.07100
H 	H 	0.79930 0.79930 0.62040 -0.04400
C 	C 	0.32030 0.10900 0.32030 0.13800
C 	C 	0.67970 0.89100 0.32030 0.13800
C 	C 	0.67970 0.10900 0.67970 0.13800
C 	C 	0.32030 0.89100 0.67970 0.13800
C 	C 	0.32030 0.32030 0.10900 0.13800
C 	C 	0.32030 0.67970 0.89100 0.13800
C 	C 	0.67970 0.67970 0.10900 0.13800
C 	C 	0.67970 0.32030 0.89100 0.13800
C 	C 	0.10900 0.32030 0.32030 0.13800
C 	C 	0.89100 0.32030 0.67970 0.13800
C 	C 	0.10900 0.67970 0.67970 0.13800
C 	C 	0.89100 0.67970 0.32030 0.13800
C 	C 	0.10900 0.32030 0.67970 0.13800
C 	C 	0.89100 0.67970 0.67970 0.13800
C 	C 	0.10900 0.67970 0.32030 0.13800
C 	C 	0.89100 0.32030 0.32030 0.13800
C 	C 	0.32030 0.32030 0.89100 0.13800
C 	C 	0.67970 0.32030 0.10900 0.13800
C 	C 	0.67970 0.67970 0.89100 0.13800
C 	C 	0.32030 0.67970 0.10900 0.13800
C 	C 	0.32030 0.10900 0.67970 0.13800
C 	C 	0.32030 0.89100 0.32030 0.13800
C 	C 	0.67970 0.10900 0.32030 0.13800
C 	C 	0.67970 0.89100 0.67970 0.13800
C 	C 	0.50000 0.10650 0.25340 0.07800
H 	H 	0.50000 0.12150 0.22280 -0.04300
C 	C 	0.50000 0.89350 0.25340 0.07900
H 	H 	0.50000 0.87850 0.22280 -0.04300
C 	C 	0.50000 0.10650 0.74660 0.07800
H 	H 	0.50000 0.12150 0.77720 -0.04300
C 	C 	0.50000 0.89350 0.74660 0.07900
H 	H 	0.50000 0.87850 0.77720 -0.04300
C 	C 	0.25340 0.50000 0.10650 0.07800
H 	H 	0.22280 0.50000 0.12150 -0.04300
C 	C 	0.25340 0.50000 0.89350 0.07900
H 	H 	0.22280 0.50000 0.87850 -0.04300
C 	C 	0.74660 0.50000 0.10650 0.07800
H 	H 	0.77720 0.50000 0.12150 -0.04300
C 	C 	0.74660 0.50000 0.89350 0.07900
H 	H 	0.77720 0.50000 0.87850 -0.04300
C 	C 	0.10650 0.25340 0.50000 0.07800
H 	H 	0.12150 0.22280 0.50000 -0.04300
C 	C 	0.89350 0.25340 0.50000 0.07900
H 	H 	0.87850 0.22280 0.50000 -0.04300
C 	C 	0.10650 0.74660 0.50000 0.07800
H 	H 	0.12150 0.77720 0.50000 -0.04300
C 	C 	0.89350 0.74660 0.50000 0.07900
H 	H 	0.87850 0.77720 0.50000 -0.04300
C 	C 	0.10650 0.50000 0.74660 0.07800
H 	H 	0.12150 0.50000 0.77720 -0.04300
C 	C 	0.89350 0.50000 0.74660 0.07900
H 	H 	0.87850 0.50000 0.77720 -0.04300
C 	C 	0.10650 0.50000 0.25340 0.07800
H 	H 	0.12150 0.50000 0.22280 -0.04300
C 	C 	0.89350 0.50000 0.25340 0.07900
H 	H 	0.87850 0.50000 0.22280 -0.04300
C 	C 	0.50000 0.25340 0.89350 0.07900
H 	H 	0.50000 0.22280 0.87850 -0.04300
C 	C 	0.50000 0.25340 0.10650 0.07800
H 	H 	0.50000 0.22280 0.12150 -0.04300
C 	C 	0.50000 0.74660 0.89350 0.07900
H 	H 	0.50000 0.77720 0.87850 -0.04300
C 	C 	0.50000 0.74660 0.10650 0.07800
H 	H 	0.50000 0.77720 0.12150 -0.04300
C 	C 	0.25340 0.10650 0.50000 0.07800
H 	H 	0.22280 0.12150 0.50000 -0.04300
C 	C 	0.25340 0.89350 0.50000 0.07900
H 	H 	0.22280 0.87850 0.50000 -0.04300
C 	C 	0.74660 0.10650 0.50000 0.07800
H 	H 	0.77720 0.12150 0.50000 -0.04300
C 	C 	0.74660 0.89350 0.50000 0.07900
H 	H 	0.77720 0.87850 0.50000 -0.04300
