data_crystal

_cell_length_a 27.06080
_cell_length_b 27.06080
_cell_length_c 19.40600
_cell_angle_alpha 90.00000
_cell_angle_beta  90.00000
_cell_angle_gamma 90.00000

_symmetry_space_group_name_	'P 1'
_symmetry_space_group_name_H-M	'P 1'

loop_
_symmetry_equiv_pos_as_xyz
  x,y,z

loop_
_atom_site_label
_atom_site_type_symbol
_atom_site_fract_x
_atom_site_fract_y
_atom_site_fract_z
_atom_site_charge
C 	C 	0.36710 0.10450 0.22790 -0.01000
H 	H 	0.37560 0.07320 0.21060 -0.00300
C 	C 	0.19180 0.15760 0.24790 -0.00800
H 	H 	0.20130 0.13860 0.28630 -0.00300
C 	C 	0.20090 0.02500 0.17090 0.01000
H 	H 	0.17280 0.04540 0.17340 -0.00900
C 	C 	0.33270 0.14190 0.03580 -0.02000
H 	H 	0.35860 0.15230 0.06460 0.00500
N 	N 	0.32420 0.13000 0.21340 -0.29100
N 	N 	0.21140 0.15380 0.18320 -0.29300
N 	N 	0.24880 0.04090 0.16680 -0.31200
N 	N 	0.28610 0.12330 0.05710 -0.29500
Zn	Zn	0.26787 0.11096 0.15461 1.17100
C 	C 	0.21360 0.02550 0.22260 -0.04600
H 	H 	0.19530 0.04640 0.25160 0.01300
C 	C 	0.31580 0.16350 0.03540 -0.00500
H 	H 	0.33240 0.18600 0.06410 -0.00400
C 	C 	0.86710 0.60450 0.72790 -0.01000
H 	H 	0.87560 0.57320 0.71060 -0.00200
C 	C 	0.69180 0.65760 0.74790 -0.00900
H 	H 	0.70130 0.63860 0.78630 -0.00300
C 	C 	0.70090 0.52500 0.67090 0.01100
H 	H 	0.67280 0.54540 0.67340 -0.00900
C 	C 	0.83270 0.64190 0.53580 -0.01700
H 	H 	0.85860 0.65230 0.56460 0.00400
N 	N 	0.82420 0.63000 0.71340 -0.29100
N 	N 	0.71140 0.65380 0.68320 -0.29300
N 	N 	0.74880 0.54090 0.66680 -0.31300
N 	N 	0.78610 0.62330 0.55710 -0.29500
Zn	Zn	0.76787 0.61096 0.65461 1.17200
C 	C 	0.71360 0.52550 0.72260 -0.04300
H 	H 	0.69530 0.54640 0.75160 0.01300
C 	C 	0.81580 0.66350 0.53540 -0.00500
H 	H 	0.83240 0.68600 0.56410 -0.00400
C 	C 	0.63290 0.89550 0.22790 -0.01100
H 	H 	0.62440 0.92680 0.21060 -0.00200
C 	C 	0.80820 0.84240 0.24790 -0.00900
H 	H 	0.79870 0.86140 0.28630 -0.00300
C 	C 	0.79910 0.97500 0.17090 0.01300
H 	H 	0.82720 0.95460 0.17340 -0.00900
C 	C 	0.66730 0.85810 0.03580 -0.01800
H 	H 	0.64140 0.84770 0.06460 0.00300
N 	N 	0.67580 0.87000 0.21340 -0.29100
N 	N 	0.78860 0.84620 0.18320 -0.29300
N 	N 	0.75120 0.95910 0.16680 -0.31200
N 	N 	0.71390 0.87670 0.05710 -0.29400
Zn	Zn	0.73213 0.88904 0.15461 1.17200
C 	C 	0.78640 0.97450 0.22260 -0.03900
H 	H 	0.80470 0.95360 0.25160 0.01200
C 	C 	0.68420 0.83650 0.03540 -0.00800
H 	H 	0.66760 0.81400 0.06410 -0.00300
C 	C 	0.13290 0.39550 0.72790 -0.01100
H 	H 	0.12440 0.42680 0.71060 -0.00300
C 	C 	0.30820 0.34240 0.74790 -0.00900
H 	H 	0.29870 0.36140 0.78630 -0.00300
C 	C 	0.29910 0.47500 0.67090 0.01100
H 	H 	0.32720 0.45460 0.67340 -0.00900
C 	C 	0.16730 0.35810 0.53580 -0.01800
H 	H 	0.14140 0.34770 0.56460 0.00300
N 	N 	0.17580 0.37000 0.71340 -0.29100
N 	N 	0.28860 0.34620 0.68320 -0.29300
N 	N 	0.25120 0.45910 0.66680 -0.31300
N 	N 	0.21390 0.37670 0.55710 -0.29500
Zn	Zn	0.23213 0.38904 0.65461 1.17200
C 	C 	0.28640 0.47450 0.72260 -0.04300
H 	H 	0.30470 0.45360 0.75160 0.01300
C 	C 	0.18420 0.33650 0.53540 -0.00400
H 	H 	0.16760 0.31400 0.56410 -0.00400
C 	C 	0.89550 0.36710 0.22790 -0.01100
H 	H 	0.92680 0.37560 0.21060 -0.00200
C 	C 	0.84240 0.19180 0.24790 -0.00900
H 	H 	0.86140 0.20130 0.28630 -0.00300
C 	C 	0.97500 0.20090 0.17090 0.01300
H 	H 	0.95460 0.17280 0.17340 -0.01000
C 	C 	0.85810 0.33270 0.03580 -0.01800
H 	H 	0.84770 0.35860 0.06460 0.00300
N 	N 	0.87000 0.32420 0.21340 -0.29100
N 	N 	0.84620 0.21140 0.18320 -0.29300
N 	N 	0.95910 0.24880 0.16680 -0.31200
N 	N 	0.87670 0.28610 0.05710 -0.29400
Zn	Zn	0.88904 0.26787 0.15461 1.17200
C 	C 	0.97450 0.21360 0.22260 -0.03900
H 	H 	0.95360 0.19530 0.25160 0.01200
C 	C 	0.83650 0.31580 0.03540 -0.00800
H 	H 	0.81400 0.33240 0.06410 -0.00300
C 	C 	0.39550 0.86710 0.72790 -0.01000
H 	H 	0.42680 0.87560 0.71060 -0.00200
C 	C 	0.34240 0.69180 0.74790 -0.00900
H 	H 	0.36140 0.70130 0.78630 -0.00300
C 	C 	0.47500 0.70090 0.67090 0.01100
H 	H 	0.45460 0.67280 0.67340 -0.00900
C 	C 	0.35810 0.83270 0.53580 -0.01600
H 	H 	0.34770 0.85860 0.56460 0.00300
N 	N 	0.37000 0.82420 0.71340 -0.29100
N 	N 	0.34620 0.71140 0.68320 -0.29300
N 	N 	0.45910 0.74880 0.66680 -0.31300
N 	N 	0.37670 0.78610 0.55710 -0.29500
Zn	Zn	0.38904 0.76787 0.65461 1.17200
C 	C 	0.47450 0.71360 0.72260 -0.04300
H 	H 	0.45360 0.69530 0.75160 0.01300
C 	C 	0.33650 0.81580 0.53540 -0.00500
H 	H 	0.31400 0.83240 0.56410 -0.00400
C 	C 	0.10450 0.63290 0.22790 -0.01100
H 	H 	0.07320 0.62440 0.21060 -0.00400
C 	C 	0.15760 0.80820 0.24790 -0.00900
H 	H 	0.13860 0.79870 0.28630 -0.00400
C 	C 	0.02500 0.79910 0.17090 0.00900
H 	H 	0.04540 0.82720 0.17340 -0.00900
C 	C 	0.14190 0.66730 0.03580 -0.02100
H 	H 	0.15230 0.64140 0.06460 0.00400
N 	N 	0.13000 0.67580 0.21340 -0.29100
N 	N 	0.15380 0.78860 0.18320 -0.29300
N 	N 	0.04090 0.75120 0.16680 -0.31200
N 	N 	0.12330 0.71390 0.05710 -0.29400
Zn	Zn	0.11096 0.73213 0.15461 1.17100
C 	C 	0.02550 0.78640 0.22260 -0.04600
H 	H 	0.04640 0.80470 0.25160 0.01300
C 	C 	0.16350 0.68420 0.03540 -0.00500
H 	H 	0.18600 0.66760 0.06410 -0.00400
C 	C 	0.60450 0.13290 0.72790 -0.01100
H 	H 	0.57320 0.12440 0.71060 -0.00300
C 	C 	0.65760 0.30820 0.74790 -0.00900
H 	H 	0.63860 0.29870 0.78630 -0.00300
C 	C 	0.52500 0.29910 0.67090 0.01100
H 	H 	0.54540 0.32720 0.67340 -0.00900
C 	C 	0.64190 0.16730 0.53580 -0.01800
H 	H 	0.65230 0.14140 0.56460 0.00300
N 	N 	0.63000 0.17580 0.71340 -0.29100
N 	N 	0.65380 0.28860 0.68320 -0.29300
N 	N 	0.54090 0.25120 0.66680 -0.31300
N 	N 	0.62330 0.21390 0.55710 -0.29500
Zn	Zn	0.61096 0.23213 0.65461 1.17200
C 	C 	0.52550 0.28640 0.72260 -0.04300
H 	H 	0.54640 0.30470 0.75160 0.01300
C 	C 	0.66350 0.18420 0.53540 -0.00400
H 	H 	0.68600 0.16760 0.56410 -0.00400
C 	C 	0.63290 0.10450 0.77210 -0.01100
H 	H 	0.62440 0.07320 0.78940 -0.00300
C 	C 	0.80820 0.15760 0.75210 -0.00900
H 	H 	0.79870 0.13860 0.71370 -0.00300
C 	C 	0.79910 0.02500 0.82910 0.01000
H 	H 	0.82720 0.04540 0.82660 -0.00900
C 	C 	0.66730 0.14190 0.96420 -0.01600
H 	H 	0.64140 0.15230 0.93540 0.00300
N 	N 	0.67580 0.13000 0.78660 -0.29100
N 	N 	0.78860 0.15380 0.81680 -0.29300
N 	N 	0.75120 0.04090 0.83320 -0.31200
N 	N 	0.71390 0.12330 0.94290 -0.29400
Zn	Zn	0.73213 0.11096 0.84539 1.17200
C 	C 	0.78640 0.02550 0.77740 -0.04600
H 	H 	0.80470 0.04640 0.74840 0.01400
C 	C 	0.68420 0.16350 0.96460 -0.00100
H 	H 	0.66760 0.18600 0.93590 -0.00500
C 	C 	0.13290 0.60450 0.27210 -0.01100
H 	H 	0.12440 0.57320 0.28940 -0.00300
C 	C 	0.30820 0.65760 0.25210 -0.00900
H 	H 	0.29870 0.63860 0.21370 -0.00400
C 	C 	0.29910 0.52500 0.32910 0.01200
H 	H 	0.32720 0.54540 0.32660 -0.00900
C 	C 	0.16730 0.64190 0.46420 -0.01800
H 	H 	0.14140 0.65230 0.43540 0.00300
N 	N 	0.17580 0.63000 0.28660 -0.29100
N 	N 	0.28860 0.65380 0.31680 -0.29300
N 	N 	0.25120 0.54090 0.33320 -0.31300
N 	N 	0.21390 0.62330 0.44290 -0.29500
Zn	Zn	0.23213 0.61096 0.34539 1.17200
C 	C 	0.28640 0.52550 0.27740 -0.04300
H 	H 	0.30470 0.54640 0.24840 0.01300
C 	C 	0.18420 0.66350 0.46460 -0.00400
H 	H 	0.16760 0.68600 0.43590 -0.00400
C 	C 	0.36710 0.89550 0.77210 -0.01000
H 	H 	0.37560 0.92680 0.78940 -0.00200
C 	C 	0.19180 0.84240 0.75210 -0.00900
H 	H 	0.20130 0.86140 0.71370 -0.00300
C 	C 	0.20090 0.97500 0.82910 0.01400
H 	H 	0.17280 0.95460 0.82660 -0.00900
C 	C 	0.33270 0.85810 0.96420 -0.01300
H 	H 	0.35860 0.84770 0.93540 0.00300
N 	N 	0.32420 0.87000 0.78660 -0.29100
N 	N 	0.21140 0.84620 0.81680 -0.29300
N 	N 	0.24880 0.95910 0.83320 -0.31100
N 	N 	0.28610 0.87670 0.94290 -0.29300
Zn	Zn	0.26787 0.88904 0.84539 1.17200
C 	C 	0.21360 0.97450 0.77740 -0.04000
H 	H 	0.19530 0.95360 0.74840 0.01200
C 	C 	0.31580 0.83650 0.96460 -0.00400
H 	H 	0.33240 0.81400 0.93590 -0.00400
C 	C 	0.86710 0.39550 0.27210 -0.01000
H 	H 	0.87560 0.42680 0.28940 -0.00300
C 	C 	0.69180 0.34240 0.25210 -0.00900
H 	H 	0.70130 0.36140 0.21370 -0.00400
C 	C 	0.70090 0.47500 0.32910 0.01100
H 	H 	0.67280 0.45460 0.32660 -0.00900
C 	C 	0.83270 0.35810 0.46420 -0.01600
H 	H 	0.85860 0.34770 0.43540 0.00300
N 	N 	0.82420 0.37000 0.28660 -0.29100
N 	N 	0.71140 0.34620 0.31680 -0.29300
N 	N 	0.74880 0.45910 0.33320 -0.31300
N 	N 	0.78610 0.37670 0.44290 -0.29500
Zn	Zn	0.76787 0.38904 0.34539 1.17200
C 	C 	0.71360 0.47450 0.27740 -0.04300
H 	H 	0.69530 0.45360 0.24840 0.01300
C 	C 	0.81580 0.33650 0.46460 -0.00500
H 	H 	0.83240 0.31400 0.43590 -0.00400
C 	C 	0.10450 0.36710 0.77210 -0.01100
H 	H 	0.07320 0.37560 0.78940 -0.00300
C 	C 	0.15760 0.19180 0.75210 -0.00900
H 	H 	0.13860 0.20130 0.71370 -0.00400
C 	C 	0.02500 0.20090 0.82910 0.01000
H 	H 	0.04540 0.17280 0.82660 -0.00900
C 	C 	0.14190 0.33270 0.96420 -0.01600
H 	H 	0.15230 0.35860 0.93540 0.00300
N 	N 	0.13000 0.32420 0.78660 -0.29100
N 	N 	0.15380 0.21140 0.81680 -0.29300
N 	N 	0.04090 0.24880 0.83320 -0.31200
N 	N 	0.12330 0.28610 0.94290 -0.29400
Zn	Zn	0.11096 0.26787 0.84539 1.17200
C 	C 	0.02550 0.21360 0.77740 -0.04600
H 	H 	0.04640 0.19530 0.74840 0.01300
C 	C 	0.16350 0.31580 0.96460 -0.00100
H 	H 	0.18600 0.33240 0.93590 -0.00500
C 	C 	0.60450 0.86710 0.27210 -0.01000
H 	H 	0.57320 0.87560 0.28940 -0.00300
C 	C 	0.65760 0.69180 0.25210 -0.00900
H 	H 	0.63860 0.70130 0.21370 -0.00400
C 	C 	0.52500 0.70090 0.32910 0.01100
H 	H 	0.54540 0.67280 0.32660 -0.00900
C 	C 	0.64190 0.83270 0.46420 -0.01700
H 	H 	0.65230 0.85860 0.43540 0.00400
N 	N 	0.63000 0.82420 0.28660 -0.29100
N 	N 	0.65380 0.71140 0.31680 -0.29300
N 	N 	0.54090 0.74880 0.33320 -0.31300
N 	N 	0.62330 0.78610 0.44290 -0.29500
Zn	Zn	0.61096 0.76787 0.34539 1.17200
C 	C 	0.52550 0.71360 0.27740 -0.04300
H 	H 	0.54640 0.69530 0.24840 0.01300
C 	C 	0.66350 0.81580 0.46460 -0.00500
H 	H 	0.68600 0.83240 0.43590 -0.00400
C 	C 	0.89550 0.63290 0.77210 -0.01000
H 	H 	0.92680 0.62440 0.78940 -0.00200
C 	C 	0.84240 0.80820 0.75210 -0.00900
H 	H 	0.86140 0.79870 0.71370 -0.00300
C 	C 	0.97500 0.79910 0.82910 0.01400
H 	H 	0.95460 0.82720 0.82660 -0.00900
C 	C 	0.85810 0.66730 0.96420 -0.01300
H 	H 	0.84770 0.64140 0.93540 0.00300
N 	N 	0.87000 0.67580 0.78660 -0.29100
N 	N 	0.84620 0.78860 0.81680 -0.29300
N 	N 	0.95910 0.75120 0.83320 -0.31100
N 	N 	0.87670 0.71390 0.94290 -0.29300
Zn	Zn	0.88904 0.73213 0.84539 1.17200
C 	C 	0.97450 0.78640 0.77740 -0.04000
H 	H 	0.95360 0.80470 0.74840 0.01300
C 	C 	0.83650 0.68420 0.96460 -0.00400
H 	H 	0.81400 0.66760 0.93590 -0.00400
C 	C 	0.39550 0.13290 0.27210 -0.01100
H 	H 	0.42680 0.12440 0.28940 -0.00300
C 	C 	0.34240 0.30820 0.25210 -0.00900
H 	H 	0.36140 0.29870 0.21370 -0.00400
C 	C 	0.47500 0.29910 0.32910 0.01200
H 	H 	0.45460 0.32720 0.32660 -0.00900
C 	C 	0.35810 0.16730 0.46420 -0.01800
H 	H 	0.34770 0.14140 0.43540 0.00300
N 	N 	0.37000 0.17580 0.28660 -0.29100
N 	N 	0.34620 0.28860 0.31680 -0.29300
N 	N 	0.45910 0.25120 0.33320 -0.31300
N 	N 	0.37670 0.21390 0.44290 -0.29500
Zn	Zn	0.38904 0.23213 0.34539 1.17200
C 	C 	0.47450 0.28640 0.27740 -0.04300
H 	H 	0.45360 0.30470 0.24840 0.01300
C 	C 	0.33650 0.18420 0.46460 -0.00400
H 	H 	0.31400 0.16760 0.43590 -0.00400
C 	C 	0.63290 0.89550 0.77210 -0.01000
H 	H 	0.62440 0.92680 0.78940 -0.00200
C 	C 	0.80820 0.84240 0.75210 -0.00900
H 	H 	0.79870 0.86140 0.71370 -0.00300
C 	C 	0.79910 0.97500 0.82910 0.01400
H 	H 	0.82720 0.95460 0.82660 -0.00900
C 	C 	0.66730 0.85810 0.96420 -0.01300
H 	H 	0.64140 0.84770 0.93540 0.00300
N 	N 	0.67580 0.87000 0.78660 -0.29100
N 	N 	0.78860 0.84620 0.81680 -0.29300
N 	N 	0.75120 0.95910 0.83320 -0.31100
N 	N 	0.71390 0.87670 0.94290 -0.29300
Zn	Zn	0.73213 0.88904 0.84539 1.17200
C 	C 	0.78640 0.97450 0.77740 -0.04000
H 	H 	0.80470 0.95360 0.74840 0.01300
C 	C 	0.68420 0.83650 0.96460 -0.00400
H 	H 	0.66760 0.81400 0.93590 -0.00400
C 	C 	0.13290 0.39550 0.27210 -0.01100
H 	H 	0.12440 0.42680 0.28940 -0.00300
C 	C 	0.30820 0.34240 0.25210 -0.00900
H 	H 	0.29870 0.36140 0.21370 -0.00400
C 	C 	0.29910 0.47500 0.32910 0.01200
H 	H 	0.32720 0.45460 0.32660 -0.00900
C 	C 	0.16730 0.35810 0.46420 -0.01800
H 	H 	0.14140 0.34770 0.43540 0.00300
N 	N 	0.17580 0.37000 0.28660 -0.29100
N 	N 	0.28860 0.34620 0.31680 -0.29300
N 	N 	0.25120 0.45910 0.33320 -0.31300
N 	N 	0.21390 0.37670 0.44290 -0.29500
Zn	Zn	0.23213 0.38904 0.34539 1.17200
C 	C 	0.28640 0.47450 0.27740 -0.04300
H 	H 	0.30470 0.45360 0.24840 0.01300
C 	C 	0.18420 0.33650 0.46460 -0.00400
H 	H 	0.16760 0.31400 0.43590 -0.00400
C 	C 	0.36710 0.10450 0.77210 -0.01100
H 	H 	0.37560 0.07320 0.78940 -0.00300
C 	C 	0.19180 0.15760 0.75210 -0.00900
H 	H 	0.20130 0.13860 0.71370 -0.00400
C 	C 	0.20090 0.02500 0.82910 0.01000
H 	H 	0.17280 0.04540 0.82660 -0.00900
C 	C 	0.33270 0.14190 0.96420 -0.01600
H 	H 	0.35860 0.15230 0.93540 0.00300
N 	N 	0.32420 0.13000 0.78660 -0.29100
N 	N 	0.21140 0.15380 0.81680 -0.29300
N 	N 	0.24880 0.04090 0.83320 -0.31200
N 	N 	0.28610 0.12330 0.94290 -0.29400
Zn	Zn	0.26787 0.11096 0.84539 1.17200
C 	C 	0.21360 0.02550 0.77740 -0.04600
H 	H 	0.19530 0.04640 0.74840 0.01300
C 	C 	0.31580 0.16350 0.96460 -0.00100
H 	H 	0.33240 0.18600 0.93590 -0.00500
C 	C 	0.86710 0.60450 0.27210 -0.01000
H 	H 	0.87560 0.57320 0.28940 -0.00300
C 	C 	0.69180 0.65760 0.25210 -0.00900
H 	H 	0.70130 0.63860 0.21370 -0.00400
C 	C 	0.70090 0.52500 0.32910 0.01100
H 	H 	0.67280 0.54540 0.32660 -0.00900
C 	C 	0.83270 0.64190 0.46420 -0.01700
H 	H 	0.85860 0.65230 0.43540 0.00400
N 	N 	0.82420 0.63000 0.28660 -0.29100
N 	N 	0.71140 0.65380 0.31680 -0.29300
N 	N 	0.74880 0.54090 0.33320 -0.31300
N 	N 	0.78610 0.62330 0.44290 -0.29500
Zn	Zn	0.76787 0.61096 0.34539 1.17200
C 	C 	0.71360 0.52550 0.27740 -0.04300
H 	H 	0.69530 0.54640 0.24840 0.01300
C 	C 	0.81580 0.66350 0.46460 -0.00500
H 	H 	0.83240 0.68600 0.43590 -0.00400
C 	C 	0.10450 0.63290 0.77210 -0.01100
H 	H 	0.07320 0.62440 0.78940 -0.00300
C 	C 	0.15760 0.80820 0.75210 -0.00900
H 	H 	0.13860 0.79870 0.71370 -0.00300
C 	C 	0.02500 0.79910 0.82910 0.01000
H 	H 	0.04540 0.82720 0.82660 -0.00900
C 	C 	0.14190 0.66730 0.96420 -0.01600
H 	H 	0.15230 0.64140 0.93540 0.00300
N 	N 	0.13000 0.67580 0.78660 -0.29100
N 	N 	0.15380 0.78860 0.81680 -0.29300
N 	N 	0.04090 0.75120 0.83320 -0.31200
N 	N 	0.12330 0.71390 0.94290 -0.29400
Zn	Zn	0.11096 0.73213 0.84539 1.17200
C 	C 	0.02550 0.78640 0.77740 -0.04600
H 	H 	0.04640 0.80470 0.74840 0.01400
C 	C 	0.16350 0.68420 0.96460 -0.00100
H 	H 	0.18600 0.66760 0.93590 -0.00500
C 	C 	0.60450 0.13290 0.27210 -0.01100
H 	H 	0.57320 0.12440 0.28940 -0.00300
C 	C 	0.65760 0.30820 0.25210 -0.00900
H 	H 	0.63860 0.29870 0.21370 -0.00400
C 	C 	0.52500 0.29910 0.32910 0.01200
H 	H 	0.54540 0.32720 0.32660 -0.00900
C 	C 	0.64190 0.16730 0.46420 -0.01800
H 	H 	0.65230 0.14140 0.43540 0.00300
N 	N 	0.63000 0.17580 0.28660 -0.29100
N 	N 	0.65380 0.28860 0.31680 -0.29300
N 	N 	0.54090 0.25120 0.33320 -0.31300
N 	N 	0.62330 0.21390 0.44290 -0.29500
Zn	Zn	0.61096 0.23213 0.34539 1.17200
C 	C 	0.52550 0.28640 0.27740 -0.04300
H 	H 	0.54640 0.30470 0.24840 0.01300
C 	C 	0.66350 0.18420 0.46460 -0.00400
H 	H 	0.68600 0.16760 0.43590 -0.00400
C 	C 	0.89550 0.36710 0.77210 -0.01000
H 	H 	0.92680 0.37560 0.78940 -0.00200
C 	C 	0.84240 0.19180 0.75210 -0.00900
H 	H 	0.86140 0.20130 0.71370 -0.00300
C 	C 	0.97500 0.20090 0.82910 0.01400
H 	H 	0.95460 0.17280 0.82660 -0.00900
C 	C 	0.85810 0.33270 0.96420 -0.01300
H 	H 	0.84770 0.35860 0.93540 0.00300
N 	N 	0.87000 0.32420 0.78660 -0.29100
N 	N 	0.84620 0.21140 0.81680 -0.29300
N 	N 	0.95910 0.24880 0.83320 -0.31100
N 	N 	0.87670 0.28610 0.94290 -0.29300
Zn	Zn	0.88904 0.26787 0.84539 1.17200
C 	C 	0.97450 0.21360 0.77740 -0.04000
H 	H 	0.95360 0.19530 0.74840 0.01200
C 	C 	0.83650 0.31580 0.96460 -0.00400
H 	H 	0.81400 0.33240 0.93590 -0.00400
C 	C 	0.39550 0.86710 0.27210 -0.01000
H 	H 	0.42680 0.87560 0.28940 -0.00300
C 	C 	0.34240 0.69180 0.25210 -0.00900
H 	H 	0.36140 0.70130 0.21370 -0.00400
C 	C 	0.47500 0.70090 0.32910 0.01100
H 	H 	0.45460 0.67280 0.32660 -0.00900
C 	C 	0.35810 0.83270 0.46420 -0.01600
H 	H 	0.34770 0.85860 0.43540 0.00300
N 	N 	0.37000 0.82420 0.28660 -0.29100
N 	N 	0.34620 0.71140 0.31680 -0.29300
N 	N 	0.45910 0.74880 0.33320 -0.31300
N 	N 	0.37670 0.78610 0.44290 -0.29500
Zn	Zn	0.38904 0.76787 0.34539 1.17200
C 	C 	0.47450 0.71360 0.27740 -0.04300
H 	H 	0.45360 0.69530 0.24840 0.01300
C 	C 	0.33650 0.81580 0.46460 -0.00500
H 	H 	0.31400 0.83240 0.43590 -0.00400
C 	C 	0.36710 0.89550 0.22790 -0.01100
H 	H 	0.37560 0.92680 0.21060 -0.00200
C 	C 	0.19180 0.84240 0.24790 -0.00900
H 	H 	0.20130 0.86140 0.28630 -0.00300
C 	C 	0.20090 0.97500 0.17090 0.01300
H 	H 	0.17280 0.95460 0.17340 -0.01000
C 	C 	0.33270 0.85810 0.03580 -0.01800
H 	H 	0.35860 0.84770 0.06460 0.00300
N 	N 	0.32420 0.87000 0.21340 -0.29100
N 	N 	0.21140 0.84620 0.18320 -0.29300
N 	N 	0.24880 0.95910 0.16680 -0.31200
N 	N 	0.28610 0.87670 0.05710 -0.29400
Zn	Zn	0.26787 0.88904 0.15461 1.17200
C 	C 	0.21360 0.97450 0.22260 -0.03900
H 	H 	0.19530 0.95360 0.25160 0.01200
C 	C 	0.31580 0.83650 0.03540 -0.00800
H 	H 	0.33240 0.81400 0.06410 -0.00300
C 	C 	0.86710 0.39550 0.72790 -0.01000
H 	H 	0.87560 0.42680 0.71060 -0.00200
C 	C 	0.69180 0.34240 0.74790 -0.00900
H 	H 	0.70130 0.36140 0.78630 -0.00300
C 	C 	0.70090 0.47500 0.67090 0.01100
H 	H 	0.67280 0.45460 0.67340 -0.00900
C 	C 	0.83270 0.35810 0.53580 -0.01600
H 	H 	0.85860 0.34770 0.56460 0.00300
N 	N 	0.82420 0.37000 0.71340 -0.29100
N 	N 	0.71140 0.34620 0.68320 -0.29300
N 	N 	0.74880 0.45910 0.66680 -0.31300
N 	N 	0.78610 0.37670 0.55710 -0.29500
Zn	Zn	0.76787 0.38904 0.65461 1.17200
C 	C 	0.71360 0.47450 0.72260 -0.04300
H 	H 	0.69530 0.45360 0.75160 0.01300
C 	C 	0.81580 0.33650 0.53540 -0.00500
H 	H 	0.83240 0.31400 0.56410 -0.00400
C 	C 	0.63290 0.10450 0.22790 -0.01100
H 	H 	0.62440 0.07320 0.21060 -0.00400
C 	C 	0.80820 0.15760 0.24790 -0.00900
H 	H 	0.79870 0.13860 0.28630 -0.00400
C 	C 	0.79910 0.02500 0.17090 0.00900
H 	H 	0.82720 0.04540 0.17340 -0.00900
C 	C 	0.66730 0.14190 0.03580 -0.02100
H 	H 	0.64140 0.15230 0.06460 0.00400
N 	N 	0.67580 0.13000 0.21340 -0.29100
N 	N 	0.78860 0.15380 0.18320 -0.29300
N 	N 	0.75120 0.04090 0.16680 -0.31200
N 	N 	0.71390 0.12330 0.05710 -0.29400
Zn	Zn	0.73213 0.11096 0.15461 1.17100
C 	C 	0.78640 0.02550 0.22260 -0.04600
H 	H 	0.80470 0.04640 0.25160 0.01300
C 	C 	0.68420 0.16350 0.03540 -0.00500
H 	H 	0.66760 0.18600 0.06410 -0.00400
C 	C 	0.13290 0.60450 0.72790 -0.01100
H 	H 	0.12440 0.57320 0.71060 -0.00300
C 	C 	0.30820 0.65760 0.74790 -0.00900
H 	H 	0.29870 0.63860 0.78630 -0.00300
C 	C 	0.29910 0.52500 0.67090 0.01100
H 	H 	0.32720 0.54540 0.67340 -0.00900
C 	C 	0.16730 0.64190 0.53580 -0.01800
H 	H 	0.14140 0.65230 0.56460 0.00300
N 	N 	0.17580 0.63000 0.71340 -0.29100
N 	N 	0.28860 0.65380 0.68320 -0.29300
N 	N 	0.25120 0.54090 0.66680 -0.31300
N 	N 	0.21390 0.62330 0.55710 -0.29500
Zn	Zn	0.23213 0.61096 0.65461 1.17200
C 	C 	0.28640 0.52550 0.72260 -0.04300
H 	H 	0.30470 0.54640 0.75160 0.01300
C 	C 	0.18420 0.66350 0.53540 -0.00400
H 	H 	0.16760 0.68600 0.56410 -0.00400
C 	C 	0.89550 0.63290 0.22790 -0.01100
H 	H 	0.92680 0.62440 0.21060 -0.00200
C 	C 	0.84240 0.80820 0.24790 -0.00900
H 	H 	0.86140 0.79870 0.28630 -0.00300
C 	C 	0.97500 0.79910 0.17090 0.01300
H 	H 	0.95460 0.82720 0.17340 -0.00900
C 	C 	0.85810 0.66730 0.03580 -0.01800
H 	H 	0.84770 0.64140 0.06460 0.00300
N 	N 	0.87000 0.67580 0.21340 -0.29100
N 	N 	0.84620 0.78860 0.18320 -0.29300
N 	N 	0.95910 0.75120 0.16680 -0.31200
N 	N 	0.87670 0.71390 0.05710 -0.29400
Zn	Zn	0.88904 0.73213 0.15461 1.17200
C 	C 	0.97450 0.78640 0.22260 -0.03900
H 	H 	0.95360 0.80470 0.25160 0.01200
C 	C 	0.83650 0.68420 0.03540 -0.00800
H 	H 	0.81400 0.66760 0.06410 -0.00300
C 	C 	0.39550 0.13290 0.72790 -0.01100
H 	H 	0.42680 0.12440 0.71060 -0.00300
C 	C 	0.34240 0.30820 0.74790 -0.00900
H 	H 	0.36140 0.29870 0.78630 -0.00300
C 	C 	0.47500 0.29910 0.67090 0.01100
H 	H 	0.45460 0.32720 0.67340 -0.00900
C 	C 	0.35810 0.16730 0.53580 -0.01800
H 	H 	0.34770 0.14140 0.56460 0.00300
N 	N 	0.37000 0.17580 0.71340 -0.29100
N 	N 	0.34620 0.28860 0.68320 -0.29300
N 	N 	0.45910 0.25120 0.66680 -0.31300
N 	N 	0.37670 0.21390 0.55710 -0.29500
Zn	Zn	0.38904 0.23213 0.65461 1.17200
C 	C 	0.47450 0.28640 0.72260 -0.04300
H 	H 	0.45360 0.30470 0.75160 0.01300
C 	C 	0.33650 0.18420 0.53540 -0.00400
H 	H 	0.31400 0.16760 0.56410 -0.00400
C 	C 	0.10450 0.36710 0.22790 -0.01100
H 	H 	0.07320 0.37560 0.21060 -0.00400
C 	C 	0.15760 0.19180 0.24790 -0.00900
H 	H 	0.13860 0.20130 0.28630 -0.00400
C 	C 	0.02500 0.20090 0.17090 0.00900
H 	H 	0.04540 0.17280 0.17340 -0.01000
C 	C 	0.14190 0.33270 0.03580 -0.02100
H 	H 	0.15230 0.35860 0.06460 0.00400
N 	N 	0.13000 0.32420 0.21340 -0.29100
N 	N 	0.15380 0.21140 0.18320 -0.29300
N 	N 	0.04090 0.24880 0.16680 -0.31200
N 	N 	0.12330 0.28610 0.05710 -0.29500
Zn	Zn	0.11096 0.26787 0.15461 1.17100
C 	C 	0.02550 0.21360 0.22260 -0.04600
H 	H 	0.04640 0.19530 0.25160 0.01300
C 	C 	0.16350 0.31580 0.03540 -0.00500
H 	H 	0.18600 0.33240 0.06410 -0.00400
C 	C 	0.60450 0.86710 0.72790 -0.01000
H 	H 	0.57320 0.87560 0.71060 -0.00200
C 	C 	0.65760 0.69180 0.74790 -0.00900
H 	H 	0.63860 0.70130 0.78630 -0.00300
C 	C 	0.52500 0.70090 0.67090 0.01100
H 	H 	0.54540 0.67280 0.67340 -0.00900
C 	C 	0.64190 0.83270 0.53580 -0.01700
H 	H 	0.65230 0.85860 0.56460 0.00400
N 	N 	0.63000 0.82420 0.71340 -0.29100
N 	N 	0.65380 0.71140 0.68320 -0.29300
N 	N 	0.54090 0.74880 0.66680 -0.31300
N 	N 	0.62330 0.78610 0.55710 -0.29500
Zn	Zn	0.61096 0.76787 0.65461 1.17200
C 	C 	0.52550 0.71360 0.72260 -0.04300
H 	H 	0.54640 0.69530 0.75160 0.01300
C 	C 	0.66350 0.81580 0.53540 -0.00500
H 	H 	0.68600 0.83240 0.56410 -0.00400
C 	C 	0.32820 0.17180 0.25000 0.08200
H 	H 	0.30360 0.19640 0.25000 -0.05300
C 	C 	0.67180 0.82820 0.25000 0.08200
H 	H 	0.69640 0.80360 0.25000 -0.05300
C 	C 	0.82820 0.32820 0.25000 0.08200
H 	H 	0.80360 0.30360 0.25000 -0.05300
C 	C 	0.17180 0.67180 0.25000 0.08200
H 	H 	0.19640 0.69640 0.25000 -0.05300
C 	C 	0.67180 0.17180 0.75000 0.08200
H 	H 	0.69640 0.19640 0.75000 -0.05300
C 	C 	0.32820 0.82820 0.75000 0.08200
H 	H 	0.30360 0.80360 0.75000 -0.05300
C 	C 	0.17180 0.32820 0.75000 0.08200
H 	H 	0.19640 0.30360 0.75000 -0.05300
C 	C 	0.82820 0.67180 0.75000 0.08200
H 	H 	0.80360 0.69640 0.75000 -0.05300
C 	C 	0.67180 0.82820 0.75000 0.08200
H 	H 	0.69640 0.80360 0.75000 -0.05300
C 	C 	0.17180 0.32820 0.25000 0.08200
H 	H 	0.19640 0.30360 0.25000 -0.05300
C 	C 	0.32820 0.17180 0.75000 0.08200
H 	H 	0.30360 0.19640 0.75000 -0.05300
C 	C 	0.17180 0.67180 0.75000 0.08200
H 	H 	0.19640 0.69640 0.75000 -0.05300
C 	C 	0.82820 0.32820 0.75000 0.08200
H 	H 	0.80360 0.30360 0.75000 -0.05300
C 	C 	0.32820 0.82820 0.25000 0.08200
H 	H 	0.30360 0.80360 0.25000 -0.05300
C 	C 	0.67180 0.17180 0.25000 0.08200
H 	H 	0.69640 0.19640 0.25000 -0.05300
C 	C 	0.82820 0.67180 0.25000 0.08200
H 	H 	0.80360 0.69640 0.25000 -0.05300
C 	C 	0.18740 0.18740 0.14770 0.10500
H 	H 	0.19360 0.19360 0.10090 -0.06500
C 	C 	0.68740 0.68740 0.64770 0.10500
H 	H 	0.69360 0.69360 0.60090 -0.06500
C 	C 	0.81260 0.81260 0.14770 0.10500
H 	H 	0.80640 0.80640 0.10090 -0.06500
C 	C 	0.31260 0.31260 0.64770 0.10500
H 	H 	0.30640 0.30640 0.60090 -0.06500
C 	C 	0.81260 0.18740 0.14770 0.10500
H 	H 	0.80640 0.19360 0.10090 -0.06500
C 	C 	0.31260 0.68740 0.64770 0.10500
H 	H 	0.30640 0.69360 0.60090 -0.06500
C 	C 	0.18740 0.81260 0.14770 0.10500
H 	H 	0.19360 0.80640 0.10090 -0.06500
C 	C 	0.68740 0.31260 0.64770 0.10500
H 	H 	0.69360 0.30640 0.60090 -0.06500
C 	C 	0.81260 0.18740 0.85230 0.10500
H 	H 	0.80640 0.19360 0.89910 -0.06400
C 	C 	0.31260 0.68740 0.35230 0.10500
H 	H 	0.30640 0.69360 0.39910 -0.06500
C 	C 	0.18740 0.81260 0.85230 0.10500
H 	H 	0.19360 0.80640 0.89910 -0.06400
C 	C 	0.68740 0.31260 0.35230 0.10500
H 	H 	0.69360 0.30640 0.39910 -0.06500
C 	C 	0.18740 0.18740 0.85230 0.10500
H 	H 	0.19360 0.19360 0.89910 -0.06400
C 	C 	0.68740 0.68740 0.35230 0.10500
H 	H 	0.69360 0.69360 0.39910 -0.06500
C 	C 	0.81260 0.81260 0.85230 0.10500
H 	H 	0.80640 0.80640 0.89910 -0.06400
C 	C 	0.31260 0.31260 0.35230 0.10500
H 	H 	0.30640 0.30640 0.39910 -0.06500
C 	C 	0.26840 0.00000 0.15210 0.17000
H 	H 	0.29900 0.00000 0.12920 -0.09000
C 	C 	0.76840 0.50000 0.65210 0.17500
H 	H 	0.79900 0.50000 0.62920 -0.09000
C 	C 	0.73160 0.00000 0.15210 0.17000
H 	H 	0.70100 0.00000 0.12920 -0.09000
C 	C 	0.23160 0.50000 0.65210 0.17500
H 	H 	0.20100 0.50000 0.62920 -0.09000
C 	C 	0.00000 0.26840 0.15210 0.17000
H 	H 	0.00000 0.29900 0.12920 -0.09000
C 	C 	0.50000 0.76840 0.65210 0.17500
H 	H 	0.50000 0.79900 0.62920 -0.09000
C 	C 	-0.00000 0.73160 0.15210 0.17000
H 	H 	-0.00000 0.70100 0.12920 -0.09000
C 	C 	0.50000 0.23160 0.65210 0.17500
H 	H 	0.50000 0.20100 0.62920 -0.09000
C 	C 	0.73160 0.00000 0.84790 0.17000
H 	H 	0.70100 -0.00000 0.87080 -0.08900
C 	C 	0.23160 0.50000 0.34790 0.17500
H 	H 	0.20100 0.50000 0.37080 -0.09000
C 	C 	0.26840 0.00000 0.84790 0.17000
H 	H 	0.29900 -0.00000 0.87080 -0.08900
C 	C 	0.76840 0.50000 0.34790 0.17500
H 	H 	0.79900 0.50000 0.37080 -0.09000
C 	C 	-0.00000 0.26840 0.84790 0.17000
H 	H 	-0.00000 0.29900 0.87080 -0.08900
C 	C 	0.50000 0.76840 0.34790 0.17500
H 	H 	0.50000 0.79900 0.37080 -0.09000
C 	C 	-0.00000 0.73160 0.84790 0.17000
H 	H 	-0.00000 0.70100 0.87080 -0.08900
C 	C 	0.50000 0.23160 0.34790 0.17500
H 	H 	0.50000 0.20100 0.37080 -0.09000
C 	C 	0.26540 0.10750 -0.00000 0.10600
H 	H 	0.23790 0.08640 -0.00000 -0.07100
C 	C 	0.76540 0.60750 0.50000 0.11000
H 	H 	0.73790 0.58640 0.50000 -0.07100
C 	C 	0.73460 0.89250 -0.00000 0.10600
H 	H 	0.76210 0.91360 -0.00000 -0.07000
C 	C 	0.23460 0.39250 0.50000 0.11000
H 	H 	0.26210 0.41360 0.50000 -0.07100
C 	C 	0.89250 0.26540 -0.00000 0.10600
H 	H 	0.91360 0.23790 -0.00000 -0.07000
C 	C 	0.39250 0.76540 0.50000 0.11000
H 	H 	0.41360 0.73790 0.50000 -0.07100
C 	C 	0.10750 0.73460 -0.00000 0.10600
H 	H 	0.08640 0.76210 -0.00000 -0.07100
C 	C 	0.60750 0.23460 0.50000 0.11000
H 	H 	0.58640 0.26210 0.50000 -0.07100
C 	C 	0.73460 0.10750 -0.00000 0.10600
H 	H 	0.76210 0.08640 -0.00000 -0.07100
C 	C 	0.23460 0.60750 0.50000 0.11000
H 	H 	0.26210 0.58640 0.50000 -0.07100
C 	C 	0.26540 0.89250 -0.00000 0.10600
H 	H 	0.23790 0.91360 -0.00000 -0.07000
C 	C 	0.76540 0.39250 0.50000 0.11000
H 	H 	0.73790 0.41360 0.50000 -0.07100
C 	C 	0.10750 0.26540 -0.00000 0.10600
H 	H 	0.08640 0.23790 -0.00000 -0.07100
C 	C 	0.60750 0.76540 0.50000 0.11000
H 	H 	0.58640 0.73790 0.50000 -0.07100
C 	C 	0.89250 0.73460 -0.00000 0.10600
H 	H 	0.91360 0.76210 -0.00000 -0.07000
C 	C 	0.39250 0.23460 0.50000 0.11000
H 	H 	0.41360 0.26210 0.50000 -0.07100
