data_crystal

_cell_length_a 22.94370
_cell_length_b 22.94370
_cell_length_c 15.74700
_cell_angle_alpha 90.00000
_cell_angle_beta  90.00000
_cell_angle_gamma 120.00000

_symmetry_space_group_name_	'P 1'
_symmetry_space_group_name_H-M	'P 1'

loop_
_symmetry_equiv_pos_as_xyz
  x,y,z

loop_
_atom_site_label
_atom_site_type_symbol
_atom_site_fract_x
_atom_site_fract_y
_atom_site_fract_z
_atom_site_charge
C 	C 	0.32940 0.02880 0.17560 0.09100
H 	H 	0.33330 0.07100 0.17140 -0.04300
C 	C 	0.33670 0.94560 0.22340 0.04400
C 	C 	0.34760 0.90060 0.27140 -0.10800
H 	H 	0.36750 0.91170 0.32490 0.04400
C 	C 	0.32700 0.83940 0.23450 -0.01900
H 	H 	0.33460 0.80850 0.26350 0.03000
C 	C 	0.39260 0.20060 0.33940 0.10600
H 	H 	0.36590 0.18910 0.38780 -0.04600
C 	C 	0.45220 0.19570 0.23770 0.04300
C 	C 	0.48700 0.17940 0.18000 -0.10700
H 	H 	0.48630 0.13850 0.18290 0.03600
C 	C 	0.52280 0.22580 0.11810 -0.02400
H 	H 	0.54760 0.21670 0.07890 0.03200
C 	C 	0.45240 0.25670 0.23280 0.03700
C 	C 	0.48870 0.30380 0.17020 -0.10300
H 	H 	0.48990 0.34480 0.16720 0.03600
C 	C 	0.52260 0.28640 0.11290 -0.02700
H 	H 	0.54630 0.31620 0.06920 0.03200
C 	C 	0.30400 0.92770 0.14540 0.04200
C 	C 	0.28370 0.86520 0.11060 -0.10400
H 	H 	0.26280 0.85330 0.05780 0.04100
C 	C 	0.29520 0.82090 0.15640 -0.02800
H 	H 	0.28160 0.77830 0.13480 0.03300
Co	Co	0.39885 0.07006 0.34075 1.10600
N 	N 	0.35260 0.01120 0.24270 -0.28200
N 	N 	0.41240 0.15970 0.30630 -0.28100
N 	N 	0.41290 0.25830 0.29990 -0.28100
N 	N 	0.30040 0.98250 0.11490 -0.28300
C 	C 	0.99607 0.36213 0.50893 0.08600
H 	H 	0.99997 0.40433 0.50473 -0.04300
C 	C 	0.00337 0.27893 0.55673 0.04400
C 	C 	0.01427 0.23393 0.60473 -0.10700
H 	H 	0.03417 0.24503 0.65823 0.04300
C 	C 	0.99367 0.17273 0.56783 -0.02400
H 	H 	0.00127 0.14183 0.59683 0.03000
C 	C 	0.05927 0.53393 0.67273 0.10500
H 	H 	0.03257 0.52243 0.72113 -0.04700
C 	C 	0.11887 0.52903 0.57103 0.04100
C 	C 	0.15367 0.51273 0.51333 -0.10800
H 	H 	0.15297 0.47183 0.51623 0.03400
C 	C 	0.18947 0.55913 0.45143 -0.02500
H 	H 	0.21427 0.55003 0.41223 0.03000
C 	C 	0.11907 0.59003 0.56613 0.03600
C 	C 	0.15537 0.63713 0.50353 -0.10500
H 	H 	0.15657 0.67813 0.50053 0.03600
C 	C 	0.18927 0.61973 0.44623 -0.02700
H 	H 	0.21297 0.64953 0.40253 0.03100
C 	C 	0.97067 0.26103 0.47873 0.04300
C 	C 	0.95037 0.19853 0.44393 -0.10600
H 	H 	0.92947 0.18663 0.39113 0.04200
C 	C 	0.96187 0.15423 0.48973 -0.02600
H 	H 	0.94827 0.11163 0.46813 0.03200
Co	Co	0.06552 0.40339 0.67408 1.10600
N 	N 	0.01927 0.34453 0.57603 -0.28200
N 	N 	0.07907 0.49303 0.63963 -0.28100
N 	N 	0.07957 0.59163 0.63323 -0.28100
N 	N 	0.96707 0.31583 0.44823 -0.28100
C 	C 	0.66273 0.69547 0.84227 0.08600
H 	H 	0.66663 0.73767 0.83807 -0.04300
C 	C 	0.67003 0.61227 0.89007 0.04600
C 	C 	0.68093 0.56727 0.93807 -0.11000
H 	H 	0.70083 0.57837 0.99157 0.04400
C 	C 	0.66033 0.50607 0.90117 -0.01900
H 	H 	0.66793 0.47517 0.93017 0.02800
C 	C 	0.72593 0.86727 0.00607 0.10300
H 	H 	0.69923 0.85577 0.05447 -0.04700
C 	C 	0.78553 0.86237 0.90437 0.04400
C 	C 	0.82033 0.84607 0.84667 -0.11100
H 	H 	0.81963 0.80517 0.84957 0.03500
C 	C 	0.85613 0.89247 0.78477 -0.02100
H 	H 	0.88093 0.88337 0.74557 0.02900
C 	C 	0.78573 0.92337 0.89947 0.03300
C 	C 	0.82203 0.97047 0.83687 -0.09600
H 	H 	0.82323 0.01147 0.83387 0.03100
C 	C 	0.85593 0.95307 0.77957 -0.03300
H 	H 	0.87963 0.98287 0.73587 0.03400
C 	C 	0.63733 0.59437 0.81207 0.04200
C 	C 	0.61703 0.53187 0.77727 -0.10400
H 	H 	0.59613 0.51997 0.72447 0.04100
C 	C 	0.62853 0.48757 0.82307 -0.02900
H 	H 	0.61493 0.44497 0.80147 0.03400
Co	Co	0.73218 0.73673 0.00742 1.10600
N 	N 	0.68593 0.67787 0.90937 -0.28300
N 	N 	0.74573 0.82637 0.97297 -0.28000
N 	N 	0.74623 0.92497 0.96657 -0.27900
N 	N 	0.63373 0.64917 0.78157 -0.28100
C 	C 	0.97120 0.30060 0.17560 0.09000
H 	H 	0.92900 0.26230 0.17140 -0.04300
C 	C 	0.05440 0.39110 0.22340 0.04300
C 	C 	0.09940 0.44700 0.27140 -0.10900
H 	H 	0.08830 0.45580 0.32490 0.04300
C 	C 	0.16060 0.48760 0.23450 -0.02000
H 	H 	0.19150 0.52610 0.26350 0.02900
C 	C 	0.79940 0.19200 0.33940 0.10500
H 	H 	0.81090 0.17680 0.38780 -0.04700
C 	C 	0.80430 0.25650 0.23770 0.04200
C 	C 	0.82060 0.30760 0.18000 -0.10700
H 	H 	0.86150 0.34780 0.18290 0.03500
C 	C 	0.77420 0.29700 0.11810 -0.02500
H 	H 	0.78330 0.33090 0.07890 0.03100
C 	C 	0.74330 0.19570 0.23280 0.03600
C 	C 	0.69620 0.18490 0.17020 -0.10400
H 	H 	0.65520 0.14510 0.16720 0.03700
C 	C 	0.71360 0.23620 0.11290 -0.02700
H 	H 	0.68380 0.23010 0.06920 0.03200
C 	C 	0.07230 0.37630 0.14540 0.04200
C 	C 	0.13480 0.41850 0.11060 -0.10500
H 	H 	0.14670 0.40950 0.05780 0.04100
C 	C 	0.17910 0.47430 0.15640 -0.02800
H 	H 	0.22170 0.50330 0.13480 0.03300
Co	Co	0.92994 0.32879 0.34075 1.10600
N 	N 	0.98880 0.34140 0.24270 -0.28200
N 	N 	0.84030 0.25270 0.30630 -0.28100
N 	N 	0.74170 0.15460 0.29990 -0.28100
N 	N 	0.01750 0.31790 0.11490 -0.28300
C 	C 	0.63787 0.63393 0.50893 0.08600
H 	H 	0.59567 0.59563 0.50473 -0.04300
C 	C 	0.72107 0.72443 0.55673 0.04500
C 	C 	0.76607 0.78033 0.60473 -0.11000
H 	H 	0.75497 0.78913 0.65823 0.04400
C 	C 	0.82727 0.82093 0.56783 -0.01900
H 	H 	0.85817 0.85943 0.59683 0.02800
C 	C 	0.46607 0.52533 0.67273 0.10500
H 	H 	0.47757 0.51013 0.72113 -0.04700
C 	C 	0.47097 0.58983 0.57103 0.04100
C 	C 	0.48727 0.64093 0.51333 -0.10800
H 	H 	0.52817 0.68113 0.51623 0.03400
C 	C 	0.44087 0.63033 0.45143 -0.02500
H 	H 	0.44997 0.66423 0.41223 0.03100
C 	C 	0.40997 0.52903 0.56613 0.03600
C 	C 	0.36287 0.51823 0.50353 -0.10500
H 	H 	0.32187 0.47843 0.50053 0.03600
C 	C 	0.38027 0.56953 0.44623 -0.02700
H 	H 	0.35047 0.56343 0.40253 0.03100
C 	C 	0.73897 0.70963 0.47873 0.04200
C 	C 	0.80147 0.75183 0.44393 -0.10400
H 	H 	0.81337 0.74283 0.39113 0.04100
C 	C 	0.84577 0.80763 0.48973 -0.02900
H 	H 	0.88837 0.83663 0.46813 0.03300
Co	Co	0.59661 0.66212 0.67408 1.10600
N 	N 	0.65547 0.67473 0.57603 -0.28300
N 	N 	0.50697 0.58603 0.63963 -0.28100
N 	N 	0.40837 0.48793 0.63323 -0.28100
N 	N 	0.68417 0.65123 0.44823 -0.28100
C 	C 	0.30453 0.96727 0.84227 0.09000
H 	H 	0.26233 0.92897 0.83807 -0.04300
C 	C 	0.38773 0.05777 0.89007 0.04600
C 	C 	0.43273 0.11367 0.93807 -0.11100
H 	H 	0.42163 0.12247 0.99157 0.04400
C 	C 	0.49393 0.15427 0.90117 -0.01800
H 	H 	0.52483 0.19277 0.93017 0.02800
C 	C 	0.13273 0.85867 0.00607 0.09400
H 	H 	0.14423 0.84347 0.05447 -0.04400
C 	C 	0.13763 0.92317 0.90437 0.04100
C 	C 	0.15393 0.97427 0.84667 -0.10200
H 	H 	0.19483 0.01447 0.84957 0.03100
C 	C 	0.10753 0.96367 0.78477 -0.02700
H 	H 	0.11663 0.99757 0.74557 0.03200
C 	C 	0.07663 0.86237 0.89947 0.03600
C 	C 	0.02953 0.85157 0.83687 -0.09900
H 	H 	0.98853 0.81177 0.83387 0.03300
C 	C 	0.04693 0.90287 0.77957 -0.02900
H 	H 	0.01713 0.89677 0.73587 0.03200
C 	C 	0.40563 0.04297 0.81207 0.03900
C 	C 	0.46813 0.08517 0.77727 -0.10200
H 	H 	0.48003 0.07617 0.72447 0.04100
C 	C 	0.51243 0.14097 0.82307 -0.03000
H 	H 	0.55503 0.16997 0.80147 0.03400
Co	Co	0.26327 0.99546 0.00742 1.10400
N 	N 	0.32213 0.00807 0.90937 -0.28400
N 	N 	0.17363 0.91937 0.97297 -0.27600
N 	N 	0.07503 0.82127 0.96657 -0.27600
N 	N 	0.35083 0.98457 0.78157 -0.28000
C 	C 	0.69940 0.67060 0.17560 0.08600
H 	H 	0.73770 0.66670 0.17140 -0.04300
C 	C 	0.60890 0.66330 0.22340 0.04500
C 	C 	0.55300 0.65240 0.27140 -0.11000
H 	H 	0.54420 0.63250 0.32490 0.04400
C 	C 	0.51240 0.67300 0.23450 -0.01900
H 	H 	0.47390 0.66540 0.26350 0.02800
C 	C 	0.80800 0.60740 0.33940 0.10500
H 	H 	0.82320 0.63410 0.38780 -0.04700
C 	C 	0.74350 0.54780 0.23770 0.04100
C 	C 	0.69240 0.51300 0.18000 -0.10800
H 	H 	0.65220 0.51370 0.18290 0.03400
C 	C 	0.70300 0.47720 0.11810 -0.02500
H 	H 	0.66910 0.45240 0.07890 0.03100
C 	C 	0.80430 0.54760 0.23280 0.03600
C 	C 	0.81510 0.51130 0.17020 -0.10400
H 	H 	0.85490 0.51010 0.16720 0.03700
C 	C 	0.76380 0.47740 0.11290 -0.02700
H 	H 	0.76990 0.45370 0.06920 0.03200
C 	C 	0.62370 0.69600 0.14540 0.04200
C 	C 	0.58150 0.71630 0.11060 -0.10400
H 	H 	0.59050 0.73720 0.05780 0.04100
C 	C 	0.52570 0.70480 0.15640 -0.02900
H 	H 	0.49670 0.71840 0.13480 0.03300
Co	Co	0.67121 0.60115 0.34075 1.10600
N 	N 	0.65860 0.64740 0.24270 -0.28300
N 	N 	0.74730 0.58760 0.30630 -0.28100
N 	N 	0.84540 0.58710 0.29990 -0.28100
N 	N 	0.68210 0.69960 0.11490 -0.28100
C 	C 	0.36607 0.00393 0.50893 0.08600
H 	H 	0.40437 0.00003 0.50473 -0.04300
C 	C 	0.27557 0.99663 0.55673 0.04400
C 	C 	0.21967 0.98573 0.60473 -0.10700
H 	H 	0.21087 0.96583 0.65823 0.04300
C 	C 	0.17907 0.00633 0.56783 -0.02400
H 	H 	0.14057 0.99873 0.59683 0.03000
C 	C 	0.47467 0.94073 0.67273 0.10500
H 	H 	0.48987 0.96743 0.72113 -0.04700
C 	C 	0.41017 0.88113 0.57103 0.04100
C 	C 	0.35907 0.84633 0.51333 -0.10800
H 	H 	0.31887 0.84703 0.51623 0.03400
C 	C 	0.36967 0.81053 0.45143 -0.02500
H 	H 	0.33577 0.78573 0.41223 0.03000
C 	C 	0.47097 0.88093 0.56613 0.03600
C 	C 	0.48177 0.84463 0.50353 -0.10500
H 	H 	0.52157 0.84343 0.50053 0.03600
C 	C 	0.43047 0.81073 0.44623 -0.02700
H 	H 	0.43657 0.78703 0.40253 0.03100
C 	C 	0.29037 0.02933 0.47873 0.04300
C 	C 	0.24817 0.04963 0.44393 -0.10600
H 	H 	0.25717 0.07053 0.39113 0.04200
C 	C 	0.19237 0.03813 0.48973 -0.02500
H 	H 	0.16337 0.05173 0.46813 0.03200
Co	Co	0.33788 0.93448 0.67408 1.10600
N 	N 	0.32527 0.98073 0.57603 -0.28200
N 	N 	0.41397 0.92093 0.63963 -0.28100
N 	N 	0.51207 0.92043 0.63323 -0.28100
N 	N 	0.34877 0.03293 0.44823 -0.28100
C 	C 	0.03273 0.33727 0.84227 0.09000
H 	H 	0.07103 0.33337 0.83807 -0.04400
C 	C 	0.94223 0.32997 0.89007 0.04600
C 	C 	0.88633 0.31907 0.93807 -0.11100
H 	H 	0.87753 0.29917 0.99157 0.04300
C 	C 	0.84573 0.33967 0.90117 -0.01900
H 	H 	0.80723 0.33207 0.93017 0.02700
C 	C 	0.14133 0.27407 0.00607 0.10300
H 	H 	0.15653 0.30077 0.05447 -0.04700
C 	C 	0.07683 0.21447 0.90437 0.03800
C 	C 	0.02573 0.17967 0.84667 -0.09900
H 	H 	0.98553 0.18037 0.84957 0.02900
C 	C 	0.03633 0.14387 0.78477 -0.03100
H 	H 	0.00243 0.11907 0.74557 0.03300
C 	C 	0.13763 0.21427 0.89947 0.03800
C 	C 	0.14843 0.17797 0.83687 -0.10800
H 	H 	0.18823 0.17677 0.83387 0.03700
C 	C 	0.09713 0.14407 0.77957 -0.02300
H 	H 	0.10323 0.12037 0.73587 0.03000
C 	C 	0.95703 0.36267 0.81207 0.04000
C 	C 	0.91483 0.38297 0.77727 -0.10200
H 	H 	0.92383 0.40387 0.72447 0.04100
C 	C 	0.85903 0.37147 0.82307 -0.03000
H 	H 	0.83003 0.38507 0.80147 0.03400
Co	Co	0.00454 0.26782 0.00742 1.10600
N 	N 	0.99193 0.31407 0.90937 -0.28500
N 	N 	0.08063 0.25427 0.97297 -0.27900
N 	N 	0.17873 0.25377 0.96657 -0.28100
N 	N 	0.01543 0.36627 0.78157 -0.28000
C 	C 	0.67060 0.97120 0.82440 0.09000
H 	H 	0.66670 0.92900 0.82860 -0.04400
C 	C 	0.66330 0.05440 0.77660 0.04300
C 	C 	0.65240 0.09940 0.72860 -0.10900
H 	H 	0.63250 0.08830 0.67510 0.04300
C 	C 	0.67300 0.16060 0.76550 -0.02000
H 	H 	0.66540 0.19150 0.73650 0.02900
C 	C 	0.60740 0.79940 0.66060 0.10500
H 	H 	0.63410 0.81090 0.61220 -0.04700
C 	C 	0.54780 0.80430 0.76230 0.04200
C 	C 	0.51300 0.82060 0.82000 -0.10800
H 	H 	0.51370 0.86150 0.81710 0.03500
C 	C 	0.47720 0.77420 0.88190 -0.02500
H 	H 	0.45240 0.78330 0.92110 0.03100
C 	C 	0.54760 0.74330 0.76720 0.03600
C 	C 	0.51130 0.69620 0.82980 -0.10400
H 	H 	0.51010 0.65520 0.83280 0.03600
C 	C 	0.47740 0.71360 0.88710 -0.02700
H 	H 	0.45370 0.68380 0.93080 0.03200
C 	C 	0.69600 0.07230 0.85460 0.04200
C 	C 	0.71630 0.13480 0.88940 -0.10400
H 	H 	0.73720 0.14670 0.94220 0.04100
C 	C 	0.70480 0.17910 0.84360 -0.02800
H 	H 	0.71840 0.22170 0.86520 0.03300
Co	Co	0.60115 0.92994 0.65925 1.10600
N 	N 	0.64740 0.98880 0.75730 -0.28200
N 	N 	0.58760 0.84030 0.69370 -0.28100
N 	N 	0.58710 0.74170 0.70010 -0.28100
N 	N 	0.69960 0.01750 0.88510 -0.28300
C 	C 	0.33727 0.30453 0.15773 0.08600
H 	H 	0.33337 0.26233 0.16193 -0.04300
C 	C 	0.32997 0.38773 0.10993 0.04600
C 	C 	0.31907 0.43273 0.06193 -0.11000
H 	H 	0.29917 0.42163 0.00843 0.04400
C 	C 	0.33967 0.49393 0.09883 -0.01900
H 	H 	0.33207 0.52483 0.06983 0.02800
C 	C 	0.27407 0.13273 0.99393 0.10300
H 	H 	0.30077 0.14423 0.94553 -0.04700
C 	C 	0.21447 0.13763 0.09563 0.04400
C 	C 	0.17967 0.15393 0.15333 -0.11100
H 	H 	0.18037 0.19483 0.15043 0.03500
C 	C 	0.14387 0.10753 0.21523 -0.02100
H 	H 	0.11907 0.11663 0.25443 0.02900
C 	C 	0.21427 0.07663 0.10053 0.03300
C 	C 	0.17797 0.02953 0.16313 -0.09600
H 	H 	0.17677 0.98853 0.16613 0.03100
C 	C 	0.14407 0.04693 0.22043 -0.03300
H 	H 	0.12037 0.01713 0.26413 0.03400
C 	C 	0.36267 0.40563 0.18793 0.04200
C 	C 	0.38297 0.46813 0.22273 -0.10400
H 	H 	0.40387 0.48003 0.27553 0.04100
C 	C 	0.37147 0.51243 0.17693 -0.02900
H 	H 	0.38507 0.55503 0.19853 0.03400
Co	Co	0.26782 0.26327 0.99258 1.10600
N 	N 	0.31407 0.32213 0.09063 -0.28300
N 	N 	0.25427 0.17363 0.02703 -0.28000
N 	N 	0.25377 0.07503 0.03343 -0.27900
N 	N 	0.36627 0.35083 0.21843 -0.28100
C 	C 	0.00393 0.63787 0.49107 0.08600
H 	H 	0.00003 0.59567 0.49527 -0.04300
C 	C 	0.99663 0.72107 0.44327 0.04400
C 	C 	0.98573 0.76607 0.39527 -0.10700
H 	H 	0.96583 0.75497 0.34177 0.04300
C 	C 	0.00633 0.82727 0.43217 -0.02400
H 	H 	0.99873 0.85817 0.40317 0.03000
C 	C 	0.94073 0.46607 0.32727 0.10500
H 	H 	0.96743 0.47757 0.27887 -0.04700
C 	C 	0.88113 0.47097 0.42897 0.04100
C 	C 	0.84633 0.48727 0.48667 -0.10800
H 	H 	0.84703 0.52817 0.48377 0.03400
C 	C 	0.81053 0.44087 0.54857 -0.02500
H 	H 	0.78573 0.44997 0.58777 0.03000
C 	C 	0.88093 0.40997 0.43387 0.03600
C 	C 	0.84463 0.36287 0.49647 -0.10500
H 	H 	0.84343 0.32187 0.49947 0.03600
C 	C 	0.81073 0.38027 0.55377 -0.02700
H 	H 	0.78703 0.35047 0.59747 0.03100
C 	C 	0.02933 0.73897 0.52127 0.04300
C 	C 	0.04963 0.80147 0.55607 -0.10600
H 	H 	0.07053 0.81337 0.60887 0.04200
C 	C 	0.03813 0.84577 0.51027 -0.02600
H 	H 	0.05173 0.88837 0.53187 0.03200
Co	Co	0.93448 0.59661 0.32592 1.10600
N 	N 	0.98073 0.65547 0.42397 -0.28200
N 	N 	0.92093 0.50697 0.36037 -0.28100
N 	N 	0.92043 0.40837 0.36677 -0.28100
N 	N 	0.03293 0.68417 0.55177 -0.28100
C 	C 	0.02880 0.69940 0.82440 0.09000
H 	H 	0.07100 0.73770 0.82860 -0.04300
C 	C 	0.94560 0.60890 0.77660 0.04300
C 	C 	0.90060 0.55300 0.72860 -0.10900
H 	H 	0.91170 0.54420 0.67510 0.04300
C 	C 	0.83940 0.51240 0.76550 -0.02000
H 	H 	0.80850 0.47390 0.73650 0.02900
C 	C 	0.20060 0.80800 0.66060 0.10500
H 	H 	0.18910 0.82320 0.61220 -0.04700
C 	C 	0.19570 0.74350 0.76230 0.04200
C 	C 	0.17940 0.69240 0.82000 -0.10700
H 	H 	0.13850 0.65220 0.81710 0.03500
C 	C 	0.22580 0.70300 0.88190 -0.02500
H 	H 	0.21670 0.66910 0.92110 0.03100
C 	C 	0.25670 0.80430 0.76720 0.03600
C 	C 	0.30380 0.81510 0.82980 -0.10400
H 	H 	0.34480 0.85490 0.83280 0.03700
C 	C 	0.28640 0.76380 0.88710 -0.02700
H 	H 	0.31620 0.76990 0.93080 0.03200
C 	C 	0.92770 0.62370 0.85460 0.04200
C 	C 	0.86520 0.58150 0.88940 -0.10500
H 	H 	0.85330 0.59050 0.94220 0.04100
C 	C 	0.82090 0.52570 0.84360 -0.02800
H 	H 	0.77830 0.49670 0.86520 0.03300
Co	Co	0.07006 0.67121 0.65925 1.10600
N 	N 	0.01120 0.65860 0.75730 -0.28200
N 	N 	0.15970 0.74730 0.69370 -0.28100
N 	N 	0.25830 0.84540 0.70010 -0.28100
N 	N 	0.98250 0.68210 0.88510 -0.28300
C 	C 	0.69547 0.03273 0.15773 0.09000
H 	H 	0.73767 0.07103 0.16193 -0.04300
C 	C 	0.61227 0.94223 0.10993 0.04600
C 	C 	0.56727 0.88633 0.06193 -0.11100
H 	H 	0.57837 0.87753 0.00843 0.04400
C 	C 	0.50607 0.84573 0.09883 -0.01800
H 	H 	0.47517 0.80723 0.06983 0.02800
C 	C 	0.86727 0.14133 0.99393 0.09400
H 	H 	0.85577 0.15653 0.94553 -0.04400
C 	C 	0.86237 0.07683 0.09563 0.04100
C 	C 	0.84607 0.02573 0.15333 -0.10200
H 	H 	0.80517 0.98553 0.15043 0.03100
C 	C 	0.89247 0.03633 0.21523 -0.02700
H 	H 	0.88337 0.00243 0.25443 0.03200
C 	C 	0.92337 0.13763 0.10053 0.03600
C 	C 	0.97047 0.14843 0.16313 -0.09900
H 	H 	0.01147 0.18823 0.16613 0.03300
C 	C 	0.95307 0.09713 0.22043 -0.02900
H 	H 	0.98287 0.10323 0.26413 0.03200
C 	C 	0.59437 0.95703 0.18793 0.03900
C 	C 	0.53187 0.91483 0.22273 -0.10200
H 	H 	0.51997 0.92383 0.27553 0.04100
C 	C 	0.48757 0.85903 0.17693 -0.03000
H 	H 	0.44497 0.83003 0.19853 0.03400
Co	Co	0.73673 0.00454 0.99258 1.10400
N 	N 	0.67787 0.99193 0.09063 -0.28400
N 	N 	0.82637 0.08063 0.02703 -0.27600
N 	N 	0.92497 0.17873 0.03343 -0.27600
N 	N 	0.64917 0.01543 0.21843 -0.28000
C 	C 	0.36213 0.36607 0.49107 0.08600
H 	H 	0.40433 0.40437 0.49527 -0.04300
C 	C 	0.27893 0.27557 0.44327 0.04500
C 	C 	0.23393 0.21967 0.39527 -0.11000
H 	H 	0.24503 0.21087 0.34177 0.04400
C 	C 	0.17273 0.17907 0.43217 -0.01900
H 	H 	0.14183 0.14057 0.40317 0.02800
C 	C 	0.53393 0.47467 0.32727 0.10500
H 	H 	0.52243 0.48987 0.27887 -0.04700
C 	C 	0.52903 0.41017 0.42897 0.04100
C 	C 	0.51273 0.35907 0.48667 -0.10800
H 	H 	0.47183 0.31887 0.48377 0.03400
C 	C 	0.55913 0.36967 0.54857 -0.02500
H 	H 	0.55003 0.33577 0.58777 0.03100
C 	C 	0.59003 0.47097 0.43387 0.03600
C 	C 	0.63713 0.48177 0.49647 -0.10500
H 	H 	0.67813 0.52157 0.49947 0.03600
C 	C 	0.61973 0.43047 0.55377 -0.02700
H 	H 	0.64953 0.43657 0.59747 0.03100
C 	C 	0.26103 0.29037 0.52127 0.04200
C 	C 	0.19853 0.24817 0.55607 -0.10400
H 	H 	0.18663 0.25717 0.60887 0.04100
C 	C 	0.15423 0.19237 0.51027 -0.02900
H 	H 	0.11163 0.16337 0.53187 0.03300
Co	Co	0.40339 0.33788 0.32592 1.10600
N 	N 	0.34453 0.32527 0.42397 -0.28300
N 	N 	0.49303 0.41397 0.36037 -0.28100
N 	N 	0.59163 0.51207 0.36677 -0.28100
N 	N 	0.31583 0.34877 0.55177 -0.28100
C 	C 	0.30060 0.32940 0.82440 0.08600
H 	H 	0.26230 0.33330 0.82860 -0.04300
C 	C 	0.39110 0.33670 0.77660 0.04500
C 	C 	0.44700 0.34760 0.72860 -0.11000
H 	H 	0.45580 0.36750 0.67510 0.04400
C 	C 	0.48760 0.32700 0.76550 -0.01900
H 	H 	0.52610 0.33460 0.73650 0.02800
C 	C 	0.19200 0.39260 0.66060 0.10500
H 	H 	0.17680 0.36590 0.61220 -0.04700
C 	C 	0.25650 0.45220 0.76230 0.04100
C 	C 	0.30760 0.48700 0.82000 -0.10800
H 	H 	0.34780 0.48630 0.81710 0.03400
C 	C 	0.29700 0.52280 0.88190 -0.02500
H 	H 	0.33090 0.54760 0.92110 0.03100
C 	C 	0.19570 0.45240 0.76720 0.03600
C 	C 	0.18490 0.48870 0.82980 -0.10400
H 	H 	0.14510 0.48990 0.83280 0.03700
C 	C 	0.23620 0.52260 0.88710 -0.02700
H 	H 	0.23010 0.54630 0.93080 0.03200
C 	C 	0.37630 0.30400 0.85460 0.04200
C 	C 	0.41850 0.28370 0.88940 -0.10400
H 	H 	0.40950 0.26280 0.94220 0.04100
C 	C 	0.47430 0.29520 0.84360 -0.02900
H 	H 	0.50330 0.28160 0.86520 0.03300
Co	Co	0.32879 0.39885 0.65925 1.10600
N 	N 	0.34140 0.35260 0.75730 -0.28300
N 	N 	0.25270 0.41240 0.69370 -0.28100
N 	N 	0.15460 0.41290 0.70010 -0.28100
N 	N 	0.31790 0.30040 0.88510 -0.28100
C 	C 	0.96727 0.66273 0.15773 0.09000
H 	H 	0.92897 0.66663 0.16193 -0.04400
C 	C 	0.05777 0.67003 0.10993 0.04600
C 	C 	0.11367 0.68093 0.06193 -0.11100
H 	H 	0.12247 0.70083 0.00843 0.04300
C 	C 	0.15427 0.66033 0.09883 -0.01900
H 	H 	0.19277 0.66793 0.06983 0.02700
C 	C 	0.85867 0.72593 0.99393 0.10300
H 	H 	0.84347 0.69923 0.94553 -0.04700
C 	C 	0.92317 0.78553 0.09563 0.03800
C 	C 	0.97427 0.82033 0.15333 -0.09900
H 	H 	0.01447 0.81963 0.15043 0.02900
C 	C 	0.96367 0.85613 0.21523 -0.03100
H 	H 	0.99757 0.88093 0.25443 0.03300
C 	C 	0.86237 0.78573 0.10053 0.03800
C 	C 	0.85157 0.82203 0.16313 -0.10800
H 	H 	0.81177 0.82323 0.16613 0.03700
C 	C 	0.90287 0.85593 0.22043 -0.02300
H 	H 	0.89677 0.87963 0.26413 0.03000
C 	C 	0.04297 0.63733 0.18793 0.04000
C 	C 	0.08517 0.61703 0.22273 -0.10200
H 	H 	0.07617 0.59613 0.27553 0.04100
C 	C 	0.14097 0.62853 0.17693 -0.03000
H 	H 	0.16997 0.61493 0.19853 0.03400
Co	Co	0.99546 0.73218 0.99258 1.10600
N 	N 	0.00807 0.68593 0.09063 -0.28500
N 	N 	0.91937 0.74573 0.02703 -0.27900
N 	N 	0.82127 0.74623 0.03343 -0.28100
N 	N 	0.98457 0.63373 0.21843 -0.28000
C 	C 	0.63393 0.99607 0.49107 0.08600
H 	H 	0.59563 0.99997 0.49527 -0.04300
C 	C 	0.72443 0.00337 0.44327 0.04400
C 	C 	0.78033 0.01427 0.39527 -0.10700
H 	H 	0.78913 0.03417 0.34177 0.04300
C 	C 	0.82093 0.99367 0.43217 -0.02400
H 	H 	0.85943 0.00127 0.40317 0.03000
C 	C 	0.52533 0.05927 0.32727 0.10500
H 	H 	0.51013 0.03257 0.27887 -0.04700
C 	C 	0.58983 0.11887 0.42897 0.04100
C 	C 	0.64093 0.15367 0.48667 -0.10800
H 	H 	0.68113 0.15297 0.48377 0.03400
C 	C 	0.63033 0.18947 0.54857 -0.02500
H 	H 	0.66423 0.21427 0.58777 0.03000
C 	C 	0.52903 0.11907 0.43387 0.03600
C 	C 	0.51823 0.15537 0.49647 -0.10500
H 	H 	0.47843 0.15657 0.49947 0.03600
C 	C 	0.56953 0.18927 0.55377 -0.02700
H 	H 	0.56343 0.21297 0.59747 0.03100
C 	C 	0.70963 0.97067 0.52127 0.04300
C 	C 	0.75183 0.95037 0.55607 -0.10600
H 	H 	0.74283 0.92947 0.60887 0.04200
C 	C 	0.80763 0.96187 0.51027 -0.02500
H 	H 	0.83663 0.94827 0.53187 0.03200
Co	Co	0.66212 0.06552 0.32592 1.10600
N 	N 	0.67473 0.01927 0.42397 -0.28200
N 	N 	0.58603 0.07907 0.36037 -0.28100
N 	N 	0.48793 0.07957 0.36677 -0.28100
N 	N 	0.65123 0.96707 0.55177 -0.28100
