data_crystal

_cell_length_a 28.75950
_cell_length_b 28.75950
_cell_length_c 28.75950
_cell_angle_alpha 90.00000
_cell_angle_beta  90.00000
_cell_angle_gamma 90.00000

_symmetry_space_group_name_	'P 1'
_symmetry_space_group_name_H-M	'P 1'

loop_
_symmetry_equiv_pos_as_xyz
  x,y,z

loop_
_atom_site_label
_atom_site_type_symbol
_atom_site_fract_x
_atom_site_fract_y
_atom_site_fract_z
_atom_site_charge
Zn	Zn	0.39623 0.10429 0.25197 1.17500
C 	C 	0.33560 0.02560 0.22150 0.03800
C 	C 	0.29910 0.05000 0.19980 -0.10100
H 	H 	0.29860 0.08230 0.19890 0.03400
C 	C 	0.26520 0.02470 0.18030 -0.03000
H 	H 	0.24050 0.04020 0.16620 0.03100
C 	C 	0.40710 0.10960 0.14470 0.10700
C 	C 	0.41200 0.06320 0.13310 -0.16600
H 	H 	0.41320 0.04000 0.15560 0.07100
C 	C 	0.41500 0.05330 0.08670 0.00600
H 	H 	0.41710 0.02240 0.07750 0.01400
C 	C 	0.35540 0.17380 0.31970 0.03900
C 	C 	0.38250 0.21370 0.31390 -0.11400
H 	H 	0.40950 0.21540 0.29440 0.03500
C 	C 	0.37230 0.25640 0.33740 -0.10400
H 	H 	0.38820 0.28360 0.32990 0.05000
C 	C 	0.47700 0.08080 0.31690 0.00800
C 	C 	0.45010 0.05840 0.35290 -0.03900
H 	H 	0.41790 0.06020 0.35440 0.01100
C 	C 	0.47690 0.03340 0.38570 -0.02800
H 	H 	0.46150 0.01620 0.40840 0.02300
N 	N 	0.37510 0.03940 0.24400 -0.30000
N 	N 	0.39920 0.13580 0.19060 -0.28800
N 	N 	0.35290 0.13120 0.29750 -0.31500
N 	N 	0.46070 0.10220 0.27680 -0.29100
C 	C 	0.42300 0.12010 0.15630 -0.07700
C 	C 	0.44230 0.07440 0.14660 0.04400
H 	H 	0.44180 0.05020 0.16800 -0.02800
C 	C 	0.46110 0.07030 0.10380 -0.04400
H 	H 	0.47520 0.04220 0.09660 0.03200
H 	H 	0.30250 0.08350 0.31840 -0.04300
C 	C 	0.38770 0.23890 0.35030 0.07700
H 	H 	0.41420 0.25700 0.35390 -0.00800
C 	C 	0.47470 0.10150 0.32310 0.03200
C 	C 	0.44990 0.09570 0.36470 -0.07000
H 	H 	0.41760 0.09490 0.36520 0.02900
C 	C 	0.47620 0.09130 0.40540 -0.02400
H 	H 	0.46070 0.08820 0.43360 0.02700
Zn	Zn	0.60377 0.89571 0.25197 1.17600
C 	C 	0.66440 0.97440 0.22150 0.04900
C 	C 	0.70090 0.95000 0.19980 -0.11200
H 	H 	0.70140 0.91770 0.19890 0.03900
C 	C 	0.73480 0.97530 0.18030 -0.01100
H 	H 	0.75950 0.95980 0.16620 0.02700
C 	C 	0.59290 0.89040 0.14470 0.10800
C 	C 	0.58800 0.93680 0.13310 -0.16600
H 	H 	0.58680 0.96000 0.15560 0.07300
C 	C 	0.58500 0.94670 0.08670 0.00800
H 	H 	0.58290 0.97760 0.07750 0.01700
C 	C 	0.64460 0.82620 0.31970 0.04000
C 	C 	0.61750 0.78630 0.31390 -0.11300
H 	H 	0.59050 0.78460 0.29440 0.03600
C 	C 	0.62770 0.74360 0.33740 -0.10300
H 	H 	0.61180 0.71640 0.32990 0.05100
C 	C 	0.52300 0.91920 0.31690 0.01000
C 	C 	0.54990 0.94160 0.35290 -0.03700
H 	H 	0.58210 0.93980 0.35440 0.01200
C 	C 	0.52310 0.96660 0.38570 -0.02800
H 	H 	0.53850 0.98380 0.40840 0.02700
N 	N 	0.62490 0.96060 0.24400 -0.30000
N 	N 	0.60080 0.86420 0.19060 -0.28700
N 	N 	0.64710 0.86880 0.29750 -0.31400
N 	N 	0.53930 0.89780 0.27680 -0.29100
C 	C 	0.57700 0.87990 0.15630 -0.07700
C 	C 	0.55770 0.92560 0.14660 0.04500
H 	H 	0.55820 0.94980 0.16800 -0.02800
C 	C 	0.53890 0.92970 0.10380 -0.04600
H 	H 	0.52480 0.95780 0.09660 0.03300
H 	H 	0.69750 0.91650 0.31840 -0.04200
C 	C 	0.61230 0.76110 0.35030 0.07700
H 	H 	0.58580 0.74300 0.35390 -0.00800
C 	C 	0.52530 0.89850 0.32310 0.03100
C 	C 	0.55010 0.90430 0.36470 -0.07100
H 	H 	0.58240 0.90510 0.36520 0.02900
C 	C 	0.52380 0.90870 0.40540 -0.02400
H 	H 	0.53930 0.91180 0.43360 0.02700
Zn	Zn	0.60377 0.10429 0.74803 1.17600
C 	C 	0.66440 0.02560 0.77850 0.03900
C 	C 	0.70090 0.05000 0.80020 -0.10000
H 	H 	0.70140 0.08230 0.80110 0.03500
C 	C 	0.73480 0.02470 0.81970 -0.02900
H 	H 	0.75950 0.04020 0.83380 0.03300
C 	C 	0.59290 0.10960 0.85530 0.10900
C 	C 	0.58800 0.06320 0.86690 -0.16500
H 	H 	0.58680 0.04000 0.84440 0.07200
C 	C 	0.58500 0.05330 0.91330 0.00700
H 	H 	0.58290 0.02240 0.92250 0.01600
C 	C 	0.64460 0.17380 0.68030 0.04000
C 	C 	0.61750 0.21370 0.68610 -0.11300
H 	H 	0.59050 0.21540 0.70560 0.03600
C 	C 	0.62770 0.25640 0.66260 -0.10300
H 	H 	0.61180 0.28360 0.67010 0.05100
C 	C 	0.52300 0.08080 0.68310 0.00900
C 	C 	0.54990 0.05840 0.64710 -0.03800
H 	H 	0.58210 0.06020 0.64560 0.01200
C 	C 	0.52310 0.03340 0.61430 -0.02700
H 	H 	0.53850 0.01620 0.59160 0.02400
N 	N 	0.62490 0.03940 0.75600 -0.29900
N 	N 	0.60080 0.13580 0.80940 -0.28700
N 	N 	0.64710 0.13120 0.70250 -0.31400
N 	N 	0.53930 0.10220 0.72320 -0.29100
C 	C 	0.57700 0.12010 0.84370 -0.07700
C 	C 	0.55770 0.07440 0.85340 0.04200
H 	H 	0.55820 0.05020 0.83200 -0.02800
C 	C 	0.53890 0.07030 0.89620 -0.04300
H 	H 	0.52480 0.04220 0.90340 0.03200
H 	H 	0.69750 0.08350 0.68160 -0.04300
C 	C 	0.61230 0.23890 0.64970 0.07700
H 	H 	0.58580 0.25700 0.64610 -0.00800
C 	C 	0.52530 0.10150 0.67690 0.03200
C 	C 	0.55010 0.09570 0.63530 -0.07000
H 	H 	0.58240 0.09490 0.63480 0.02900
C 	C 	0.52380 0.09130 0.59460 -0.02400
H 	H 	0.53930 0.08820 0.56640 0.02700
Zn	Zn	0.39623 0.89571 0.74803 1.17600
C 	C 	0.33560 0.97440 0.77850 0.04900
C 	C 	0.29910 0.95000 0.80020 -0.11200
H 	H 	0.29860 0.91770 0.80110 0.03900
C 	C 	0.26520 0.97530 0.81970 -0.01100
H 	H 	0.24050 0.95980 0.83380 0.02700
C 	C 	0.40710 0.89040 0.85530 0.10900
C 	C 	0.41200 0.93680 0.86690 -0.16500
H 	H 	0.41320 0.96000 0.84440 0.07300
C 	C 	0.41500 0.94670 0.91330 0.00700
H 	H 	0.41710 0.97760 0.92250 0.01700
C 	C 	0.35540 0.82620 0.68030 0.04000
C 	C 	0.38250 0.78630 0.68610 -0.11300
H 	H 	0.40950 0.78460 0.70560 0.03600
C 	C 	0.37230 0.74360 0.66260 -0.10300
H 	H 	0.38820 0.71640 0.67010 0.05100
C 	C 	0.47700 0.91920 0.68310 0.01000
C 	C 	0.45010 0.94160 0.64710 -0.03700
H 	H 	0.41790 0.93980 0.64560 0.01200
C 	C 	0.47690 0.96660 0.61430 -0.02800
H 	H 	0.46150 0.98380 0.59160 0.02700
N 	N 	0.37510 0.96060 0.75600 -0.30000
N 	N 	0.39920 0.86420 0.80940 -0.28700
N 	N 	0.35290 0.86880 0.70250 -0.31400
N 	N 	0.46070 0.89780 0.72320 -0.29100
C 	C 	0.42300 0.87990 0.84370 -0.07700
C 	C 	0.44230 0.92560 0.85340 0.04300
H 	H 	0.44180 0.94980 0.83200 -0.02800
C 	C 	0.46110 0.92970 0.89620 -0.04400
H 	H 	0.47520 0.95780 0.90340 0.03300
H 	H 	0.30250 0.91650 0.68160 -0.04200
C 	C 	0.38770 0.76110 0.64970 0.07700
H 	H 	0.41420 0.74300 0.64610 -0.00800
C 	C 	0.47470 0.89850 0.67690 0.03100
C 	C 	0.44990 0.90430 0.63530 -0.07100
H 	H 	0.41760 0.90510 0.63480 0.02900
C 	C 	0.47620 0.90870 0.59460 -0.02400
H 	H 	0.46070 0.91180 0.56640 0.02700
Zn	Zn	0.25197 0.39623 0.10429 1.17600
C 	C 	0.22150 0.33560 0.02560 0.03900
C 	C 	0.19980 0.29910 0.05000 -0.10000
H 	H 	0.19890 0.29860 0.08230 0.03500
C 	C 	0.18030 0.26520 0.02470 -0.02900
H 	H 	0.16620 0.24050 0.04020 0.03200
C 	C 	0.14470 0.40710 0.10960 0.10800
C 	C 	0.13310 0.41200 0.06320 -0.16500
H 	H 	0.15560 0.41320 0.04000 0.07200
C 	C 	0.08670 0.41500 0.05330 0.00700
H 	H 	0.07750 0.41710 0.02240 0.01500
C 	C 	0.31970 0.35540 0.17380 0.04000
C 	C 	0.31390 0.38250 0.21370 -0.11300
H 	H 	0.29440 0.40950 0.21540 0.03600
C 	C 	0.33740 0.37230 0.25640 -0.10300
H 	H 	0.32990 0.38820 0.28360 0.05100
C 	C 	0.31690 0.47700 0.08080 0.00900
C 	C 	0.35290 0.45010 0.05840 -0.03800
H 	H 	0.35440 0.41790 0.06020 0.01200
C 	C 	0.38570 0.47690 0.03340 -0.02700
H 	H 	0.40840 0.46150 0.01620 0.02400
N 	N 	0.24400 0.37510 0.03940 -0.29900
N 	N 	0.19060 0.39920 0.13580 -0.28700
N 	N 	0.29750 0.35290 0.13120 -0.31400
N 	N 	0.27680 0.46070 0.10220 -0.29100
C 	C 	0.15630 0.42300 0.12010 -0.07700
C 	C 	0.14660 0.44230 0.07440 0.04400
H 	H 	0.16800 0.44180 0.05020 -0.02800
C 	C 	0.10380 0.46110 0.07030 -0.04400
H 	H 	0.09660 0.47520 0.04220 0.03200
H 	H 	0.31840 0.30250 0.08350 -0.04300
C 	C 	0.35030 0.38770 0.23890 0.07700
H 	H 	0.35390 0.41420 0.25700 -0.00800
C 	C 	0.32310 0.47470 0.10150 0.03200
C 	C 	0.36470 0.44990 0.09570 -0.07000
H 	H 	0.36520 0.41760 0.09490 0.02900
C 	C 	0.40540 0.47620 0.09130 -0.02400
H 	H 	0.43360 0.46070 0.08820 0.02700
Zn	Zn	0.25197 0.60377 0.89571 1.17600
C 	C 	0.22150 0.66440 0.97440 0.04900
C 	C 	0.19980 0.70090 0.95000 -0.11200
H 	H 	0.19890 0.70140 0.91770 0.03900
C 	C 	0.18030 0.73480 0.97530 -0.01100
H 	H 	0.16620 0.75950 0.95980 0.02700
C 	C 	0.14470 0.59290 0.89040 0.10800
C 	C 	0.13310 0.58800 0.93680 -0.16600
H 	H 	0.15560 0.58680 0.96000 0.07300
C 	C 	0.08670 0.58500 0.94670 0.00800
H 	H 	0.07750 0.58290 0.97760 0.01700
C 	C 	0.31970 0.64460 0.82620 0.04000
C 	C 	0.31390 0.61750 0.78630 -0.11300
H 	H 	0.29440 0.59050 0.78460 0.03600
C 	C 	0.33740 0.62770 0.74360 -0.10300
H 	H 	0.32990 0.61180 0.71640 0.05100
C 	C 	0.31690 0.52300 0.91920 0.01000
C 	C 	0.35290 0.54990 0.94160 -0.03700
H 	H 	0.35440 0.58210 0.93980 0.01200
C 	C 	0.38570 0.52310 0.96660 -0.02800
H 	H 	0.40840 0.53850 0.98380 0.02700
N 	N 	0.24400 0.62490 0.96060 -0.30000
N 	N 	0.19060 0.60080 0.86420 -0.28700
N 	N 	0.29750 0.64710 0.86880 -0.31400
N 	N 	0.27680 0.53930 0.89780 -0.29100
C 	C 	0.15630 0.57700 0.87990 -0.07700
C 	C 	0.14660 0.55770 0.92560 0.04500
H 	H 	0.16800 0.55820 0.94980 -0.02800
C 	C 	0.10380 0.53890 0.92970 -0.04600
H 	H 	0.09660 0.52480 0.95780 0.03300
H 	H 	0.31840 0.69750 0.91650 -0.04200
C 	C 	0.35030 0.61230 0.76110 0.07700
H 	H 	0.35390 0.58580 0.74300 -0.00800
C 	C 	0.32310 0.52530 0.89850 0.03100
C 	C 	0.36470 0.55010 0.90430 -0.07100
H 	H 	0.36520 0.58240 0.90510 0.02900
C 	C 	0.40540 0.52380 0.90870 -0.02400
H 	H 	0.43360 0.53930 0.91180 0.02700
Zn	Zn	0.74803 0.60377 0.10429 1.17600
C 	C 	0.77850 0.66440 0.02560 0.03900
C 	C 	0.80020 0.70090 0.05000 -0.10000
H 	H 	0.80110 0.70140 0.08230 0.03500
C 	C 	0.81970 0.73480 0.02470 -0.02900
H 	H 	0.83380 0.75950 0.04020 0.03300
C 	C 	0.85530 0.59290 0.10960 0.10900
C 	C 	0.86690 0.58800 0.06320 -0.16500
H 	H 	0.84440 0.58680 0.04000 0.07200
C 	C 	0.91330 0.58500 0.05330 0.00700
H 	H 	0.92250 0.58290 0.02240 0.01600
C 	C 	0.68030 0.64460 0.17380 0.04000
C 	C 	0.68610 0.61750 0.21370 -0.11300
H 	H 	0.70560 0.59050 0.21540 0.03600
C 	C 	0.66260 0.62770 0.25640 -0.10300
H 	H 	0.67010 0.61180 0.28360 0.05100
C 	C 	0.68310 0.52300 0.08080 0.00900
C 	C 	0.64710 0.54990 0.05840 -0.03800
H 	H 	0.64560 0.58210 0.06020 0.01200
C 	C 	0.61430 0.52310 0.03340 -0.02700
H 	H 	0.59160 0.53850 0.01620 0.02400
N 	N 	0.75600 0.62490 0.03940 -0.29900
N 	N 	0.80940 0.60080 0.13580 -0.28700
N 	N 	0.70250 0.64710 0.13120 -0.31400
N 	N 	0.72320 0.53930 0.10220 -0.29100
C 	C 	0.84370 0.57700 0.12010 -0.07700
C 	C 	0.85340 0.55770 0.07440 0.04200
H 	H 	0.83200 0.55820 0.05020 -0.02800
C 	C 	0.89620 0.53890 0.07030 -0.04300
H 	H 	0.90340 0.52480 0.04220 0.03200
H 	H 	0.68160 0.69750 0.08350 -0.04300
C 	C 	0.64970 0.61230 0.23890 0.07700
H 	H 	0.64610 0.58580 0.25700 -0.00800
C 	C 	0.67690 0.52530 0.10150 0.03200
C 	C 	0.63530 0.55010 0.09570 -0.07000
H 	H 	0.63480 0.58240 0.09490 0.02900
C 	C 	0.59460 0.52380 0.09130 -0.02400
H 	H 	0.56640 0.53930 0.08820 0.02700
Zn	Zn	0.74803 0.39623 0.89571 1.17600
C 	C 	0.77850 0.33560 0.97440 0.04900
C 	C 	0.80020 0.29910 0.95000 -0.11200
H 	H 	0.80110 0.29860 0.91770 0.03900
C 	C 	0.81970 0.26520 0.97530 -0.01100
H 	H 	0.83380 0.24050 0.95980 0.02700
C 	C 	0.85530 0.40710 0.89040 0.10900
C 	C 	0.86690 0.41200 0.93680 -0.16500
H 	H 	0.84440 0.41320 0.96000 0.07300
C 	C 	0.91330 0.41500 0.94670 0.00700
H 	H 	0.92250 0.41710 0.97760 0.01700
C 	C 	0.68030 0.35540 0.82620 0.04000
C 	C 	0.68610 0.38250 0.78630 -0.11300
H 	H 	0.70560 0.40950 0.78460 0.03600
C 	C 	0.66260 0.37230 0.74360 -0.10300
H 	H 	0.67010 0.38820 0.71640 0.05100
C 	C 	0.68310 0.47700 0.91920 0.01000
C 	C 	0.64710 0.45010 0.94160 -0.03700
H 	H 	0.64560 0.41790 0.93980 0.01200
C 	C 	0.61430 0.47690 0.96660 -0.02800
H 	H 	0.59160 0.46150 0.98380 0.02700
N 	N 	0.75600 0.37510 0.96060 -0.30000
N 	N 	0.80940 0.39920 0.86420 -0.28700
N 	N 	0.70250 0.35290 0.86880 -0.31400
N 	N 	0.72320 0.46070 0.89780 -0.29100
C 	C 	0.84370 0.42300 0.87990 -0.07700
C 	C 	0.85340 0.44230 0.92560 0.04300
H 	H 	0.83200 0.44180 0.94980 -0.02800
C 	C 	0.89620 0.46110 0.92970 -0.04400
H 	H 	0.90340 0.47520 0.95780 0.03300
H 	H 	0.68160 0.30250 0.91650 -0.04200
C 	C 	0.64970 0.38770 0.76110 0.07700
H 	H 	0.64610 0.41420 0.74300 -0.00800
C 	C 	0.67690 0.47470 0.89850 0.03100
C 	C 	0.63530 0.44990 0.90430 -0.07100
H 	H 	0.63480 0.41760 0.90510 0.02900
C 	C 	0.59460 0.47620 0.90870 -0.02400
H 	H 	0.56640 0.46070 0.91180 0.02700
Zn	Zn	0.10429 0.25197 0.39623 1.17600
C 	C 	0.02560 0.22150 0.33560 0.03900
C 	C 	0.05000 0.19980 0.29910 -0.10000
H 	H 	0.08230 0.19890 0.29860 0.03500
C 	C 	0.02470 0.18030 0.26520 -0.02900
H 	H 	0.04020 0.16620 0.24050 0.03200
C 	C 	0.10960 0.14470 0.40710 0.10800
C 	C 	0.06320 0.13310 0.41200 -0.16500
H 	H 	0.04000 0.15560 0.41320 0.07200
C 	C 	0.05330 0.08670 0.41500 0.00700
H 	H 	0.02240 0.07750 0.41710 0.01500
C 	C 	0.17380 0.31970 0.35540 0.04000
C 	C 	0.21370 0.31390 0.38250 -0.11300
H 	H 	0.21540 0.29440 0.40950 0.03600
C 	C 	0.25640 0.33740 0.37230 -0.10300
H 	H 	0.28360 0.32990 0.38820 0.05100
C 	C 	0.08080 0.31690 0.47700 0.00900
C 	C 	0.05840 0.35290 0.45010 -0.03800
H 	H 	0.06020 0.35440 0.41790 0.01200
C 	C 	0.03340 0.38570 0.47690 -0.02700
H 	H 	0.01620 0.40840 0.46150 0.02400
N 	N 	0.03940 0.24400 0.37510 -0.29900
N 	N 	0.13580 0.19060 0.39920 -0.28700
N 	N 	0.13120 0.29750 0.35290 -0.31400
N 	N 	0.10220 0.27680 0.46070 -0.29100
C 	C 	0.12010 0.15630 0.42300 -0.07700
C 	C 	0.07440 0.14660 0.44230 0.04400
H 	H 	0.05020 0.16800 0.44180 -0.02800
C 	C 	0.07030 0.10380 0.46110 -0.04400
H 	H 	0.04220 0.09660 0.47520 0.03200
H 	H 	0.08350 0.31840 0.30250 -0.04300
C 	C 	0.23890 0.35030 0.38770 0.07700
H 	H 	0.25700 0.35390 0.41420 -0.00800
C 	C 	0.10150 0.32310 0.47470 0.03200
C 	C 	0.09570 0.36470 0.44990 -0.07000
H 	H 	0.09490 0.36520 0.41760 0.02900
C 	C 	0.09130 0.40540 0.47620 -0.02400
H 	H 	0.08820 0.43360 0.46070 0.02700
Zn	Zn	0.89571 0.25197 0.60377 1.17600
C 	C 	0.97440 0.22150 0.66440 0.04900
C 	C 	0.95000 0.19980 0.70090 -0.11200
H 	H 	0.91770 0.19890 0.70140 0.03900
C 	C 	0.97530 0.18030 0.73480 -0.01100
H 	H 	0.95980 0.16620 0.75950 0.02700
C 	C 	0.89040 0.14470 0.59290 0.10800
C 	C 	0.93680 0.13310 0.58800 -0.16600
H 	H 	0.96000 0.15560 0.58680 0.07300
C 	C 	0.94670 0.08670 0.58500 0.00800
H 	H 	0.97760 0.07750 0.58290 0.01700
C 	C 	0.82620 0.31970 0.64460 0.04000
C 	C 	0.78630 0.31390 0.61750 -0.11300
H 	H 	0.78460 0.29440 0.59050 0.03600
C 	C 	0.74360 0.33740 0.62770 -0.10300
H 	H 	0.71640 0.32990 0.61180 0.05100
C 	C 	0.91920 0.31690 0.52300 0.01000
C 	C 	0.94160 0.35290 0.54990 -0.03700
H 	H 	0.93980 0.35440 0.58210 0.01200
C 	C 	0.96660 0.38570 0.52310 -0.02800
H 	H 	0.98380 0.40840 0.53850 0.02700
N 	N 	0.96060 0.24400 0.62490 -0.30000
N 	N 	0.86420 0.19060 0.60080 -0.28700
N 	N 	0.86880 0.29750 0.64710 -0.31400
N 	N 	0.89780 0.27680 0.53930 -0.29100
C 	C 	0.87990 0.15630 0.57700 -0.07700
C 	C 	0.92560 0.14660 0.55770 0.04500
H 	H 	0.94980 0.16800 0.55820 -0.02800
C 	C 	0.92970 0.10380 0.53890 -0.04600
H 	H 	0.95780 0.09660 0.52480 0.03300
H 	H 	0.91650 0.31840 0.69750 -0.04200
C 	C 	0.76110 0.35030 0.61230 0.07700
H 	H 	0.74300 0.35390 0.58580 -0.00800
C 	C 	0.89850 0.32310 0.52530 0.03100
C 	C 	0.90430 0.36470 0.55010 -0.07100
H 	H 	0.90510 0.36520 0.58240 0.02900
C 	C 	0.90870 0.40540 0.52380 -0.02400
H 	H 	0.91180 0.43360 0.53930 0.02700
Zn	Zn	0.10429 0.74803 0.60377 1.17600
C 	C 	0.02560 0.77850 0.66440 0.03900
C 	C 	0.05000 0.80020 0.70090 -0.10000
H 	H 	0.08230 0.80110 0.70140 0.03500
C 	C 	0.02470 0.81970 0.73480 -0.02900
H 	H 	0.04020 0.83380 0.75950 0.03300
C 	C 	0.10960 0.85530 0.59290 0.10900
C 	C 	0.06320 0.86690 0.58800 -0.16500
H 	H 	0.04000 0.84440 0.58680 0.07200
C 	C 	0.05330 0.91330 0.58500 0.00700
H 	H 	0.02240 0.92250 0.58290 0.01600
C 	C 	0.17380 0.68030 0.64460 0.04000
C 	C 	0.21370 0.68610 0.61750 -0.11300
H 	H 	0.21540 0.70560 0.59050 0.03600
C 	C 	0.25640 0.66260 0.62770 -0.10300
H 	H 	0.28360 0.67010 0.61180 0.05100
C 	C 	0.08080 0.68310 0.52300 0.00900
C 	C 	0.05840 0.64710 0.54990 -0.03800
H 	H 	0.06020 0.64560 0.58210 0.01200
C 	C 	0.03340 0.61430 0.52310 -0.02700
H 	H 	0.01620 0.59160 0.53850 0.02400
N 	N 	0.03940 0.75600 0.62490 -0.29900
N 	N 	0.13580 0.80940 0.60080 -0.28700
N 	N 	0.13120 0.70250 0.64710 -0.31400
N 	N 	0.10220 0.72320 0.53930 -0.29100
C 	C 	0.12010 0.84370 0.57700 -0.07700
C 	C 	0.07440 0.85340 0.55770 0.04200
H 	H 	0.05020 0.83200 0.55820 -0.02800
C 	C 	0.07030 0.89620 0.53890 -0.04300
H 	H 	0.04220 0.90340 0.52480 0.03200
H 	H 	0.08350 0.68160 0.69750 -0.04300
C 	C 	0.23890 0.64970 0.61230 0.07700
H 	H 	0.25700 0.64610 0.58580 -0.00800
C 	C 	0.10150 0.67690 0.52530 0.03200
C 	C 	0.09570 0.63530 0.55010 -0.07000
H 	H 	0.09490 0.63480 0.58240 0.02900
C 	C 	0.09130 0.59460 0.52380 -0.02400
H 	H 	0.08820 0.56640 0.53930 0.02700
Zn	Zn	0.89571 0.74803 0.39623 1.17600
C 	C 	0.97440 0.77850 0.33560 0.04900
C 	C 	0.95000 0.80020 0.29910 -0.11200
H 	H 	0.91770 0.80110 0.29860 0.03900
C 	C 	0.97530 0.81970 0.26520 -0.01100
H 	H 	0.95980 0.83380 0.24050 0.02700
C 	C 	0.89040 0.85530 0.40710 0.10900
C 	C 	0.93680 0.86690 0.41200 -0.16500
H 	H 	0.96000 0.84440 0.41320 0.07300
C 	C 	0.94670 0.91330 0.41500 0.00700
H 	H 	0.97760 0.92250 0.41710 0.01700
C 	C 	0.82620 0.68030 0.35540 0.04000
C 	C 	0.78630 0.68610 0.38250 -0.11300
H 	H 	0.78460 0.70560 0.40950 0.03600
C 	C 	0.74360 0.66260 0.37230 -0.10300
H 	H 	0.71640 0.67010 0.38820 0.05100
C 	C 	0.91920 0.68310 0.47700 0.01000
C 	C 	0.94160 0.64710 0.45010 -0.03700
H 	H 	0.93980 0.64560 0.41790 0.01200
C 	C 	0.96660 0.61430 0.47690 -0.02800
H 	H 	0.98380 0.59160 0.46150 0.02700
N 	N 	0.96060 0.75600 0.37510 -0.30000
N 	N 	0.86420 0.80940 0.39920 -0.28700
N 	N 	0.86880 0.70250 0.35290 -0.31400
N 	N 	0.89780 0.72320 0.46070 -0.29100
C 	C 	0.87990 0.84370 0.42300 -0.07700
C 	C 	0.92560 0.85340 0.44230 0.04300
H 	H 	0.94980 0.83200 0.44180 -0.02800
C 	C 	0.92970 0.89620 0.46110 -0.04400
H 	H 	0.95780 0.90340 0.47520 0.03300
H 	H 	0.91650 0.68160 0.30250 -0.04200
C 	C 	0.76110 0.64970 0.38770 0.07700
H 	H 	0.74300 0.64610 0.41420 -0.00800
C 	C 	0.89850 0.67690 0.47470 0.03100
C 	C 	0.90430 0.63530 0.44990 -0.07100
H 	H 	0.90510 0.63480 0.41760 0.02900
C 	C 	0.90870 0.59460 0.47620 -0.02400
H 	H 	0.91180 0.56640 0.46070 0.02700
Zn	Zn	0.10429 0.39623 0.74803 1.17600
C 	C 	0.02560 0.33560 0.77850 0.03900
C 	C 	0.05000 0.29910 0.80020 -0.10000
H 	H 	0.08230 0.29860 0.80110 0.03500
C 	C 	0.02470 0.26520 0.81970 -0.02900
H 	H 	0.04020 0.24050 0.83380 0.03200
C 	C 	0.10960 0.40710 0.85530 0.10900
C 	C 	0.06320 0.41200 0.86690 -0.16500
H 	H 	0.04000 0.41320 0.84440 0.07200
C 	C 	0.05330 0.41500 0.91330 0.00700
H 	H 	0.02240 0.41710 0.92250 0.01600
C 	C 	0.17380 0.35540 0.68030 0.04000
C 	C 	0.21370 0.38250 0.68610 -0.11300
H 	H 	0.21540 0.40950 0.70560 0.03600
C 	C 	0.25640 0.37230 0.66260 -0.10300
H 	H 	0.28360 0.38820 0.67010 0.05100
C 	C 	0.08080 0.47700 0.68310 0.00900
C 	C 	0.05840 0.45010 0.64710 -0.03800
H 	H 	0.06020 0.41790 0.64560 0.01200
C 	C 	0.03340 0.47690 0.61430 -0.02700
H 	H 	0.01620 0.46150 0.59160 0.02400
N 	N 	0.03940 0.37510 0.75600 -0.29900
N 	N 	0.13580 0.39920 0.80940 -0.28700
N 	N 	0.13120 0.35290 0.70250 -0.31400
N 	N 	0.10220 0.46070 0.72320 -0.29100
C 	C 	0.12010 0.42300 0.84370 -0.07700
C 	C 	0.07440 0.44230 0.85340 0.04200
H 	H 	0.05020 0.44180 0.83200 -0.02800
C 	C 	0.07030 0.46110 0.89620 -0.04300
H 	H 	0.04220 0.47520 0.90340 0.03200
H 	H 	0.08350 0.30250 0.68160 -0.04300
C 	C 	0.23890 0.38770 0.64970 0.07700
H 	H 	0.25700 0.41420 0.64610 -0.00800
C 	C 	0.10150 0.47470 0.67690 0.03200
C 	C 	0.09570 0.44990 0.63530 -0.07000
H 	H 	0.09490 0.41760 0.63480 0.02900
C 	C 	0.09130 0.47620 0.59460 -0.02400
H 	H 	0.08820 0.46070 0.56640 0.02700
Zn	Zn	0.89571 0.60377 0.74803 1.17600
C 	C 	0.97440 0.66440 0.77850 0.04900
C 	C 	0.95000 0.70090 0.80020 -0.11200
H 	H 	0.91770 0.70140 0.80110 0.03900
C 	C 	0.97530 0.73480 0.81970 -0.01100
H 	H 	0.95980 0.75950 0.83380 0.02700
C 	C 	0.89040 0.59290 0.85530 0.10900
C 	C 	0.93680 0.58800 0.86690 -0.16500
H 	H 	0.96000 0.58680 0.84440 0.07300
C 	C 	0.94670 0.58500 0.91330 0.00700
H 	H 	0.97760 0.58290 0.92250 0.01700
C 	C 	0.82620 0.64460 0.68030 0.04000
C 	C 	0.78630 0.61750 0.68610 -0.11300
H 	H 	0.78460 0.59050 0.70560 0.03600
C 	C 	0.74360 0.62770 0.66260 -0.10300
H 	H 	0.71640 0.61180 0.67010 0.05100
C 	C 	0.91920 0.52300 0.68310 0.01000
C 	C 	0.94160 0.54990 0.64710 -0.03700
H 	H 	0.93980 0.58210 0.64560 0.01200
C 	C 	0.96660 0.52310 0.61430 -0.02800
H 	H 	0.98380 0.53850 0.59160 0.02700
N 	N 	0.96060 0.62490 0.75600 -0.30000
N 	N 	0.86420 0.60080 0.80940 -0.28700
N 	N 	0.86880 0.64710 0.70250 -0.31400
N 	N 	0.89780 0.53930 0.72320 -0.29100
C 	C 	0.87990 0.57700 0.84370 -0.07700
C 	C 	0.92560 0.55770 0.85340 0.04300
H 	H 	0.94980 0.55820 0.83200 -0.02800
C 	C 	0.92970 0.53890 0.89620 -0.04400
H 	H 	0.95780 0.52480 0.90340 0.03300
H 	H 	0.91650 0.69750 0.68160 -0.04200
C 	C 	0.76110 0.61230 0.64970 0.07700
H 	H 	0.74300 0.58580 0.64610 -0.00800
C 	C 	0.89850 0.52530 0.67690 0.03100
C 	C 	0.90430 0.55010 0.63530 -0.07100
H 	H 	0.90510 0.58240 0.63480 0.02900
C 	C 	0.90870 0.52380 0.59460 -0.02400
H 	H 	0.91180 0.53930 0.56640 0.02700
Zn	Zn	0.10429 0.60377 0.25197 1.17600
C 	C 	0.02560 0.66440 0.22150 0.03900
C 	C 	0.05000 0.70090 0.19980 -0.10000
H 	H 	0.08230 0.70140 0.19890 0.03500
C 	C 	0.02470 0.73480 0.18030 -0.02900
H 	H 	0.04020 0.75950 0.16620 0.03200
C 	C 	0.10960 0.59290 0.14470 0.10800
C 	C 	0.06320 0.58800 0.13310 -0.16500
H 	H 	0.04000 0.58680 0.15560 0.07200
C 	C 	0.05330 0.58500 0.08670 0.00700
H 	H 	0.02240 0.58290 0.07750 0.01500
C 	C 	0.17380 0.64460 0.31970 0.04000
C 	C 	0.21370 0.61750 0.31390 -0.11300
H 	H 	0.21540 0.59050 0.29440 0.03600
C 	C 	0.25640 0.62770 0.33740 -0.10300
H 	H 	0.28360 0.61180 0.32990 0.05100
C 	C 	0.08080 0.52300 0.31690 0.00900
C 	C 	0.05840 0.54990 0.35290 -0.03800
H 	H 	0.06020 0.58210 0.35440 0.01200
C 	C 	0.03340 0.52310 0.38570 -0.02700
H 	H 	0.01620 0.53850 0.40840 0.02400
N 	N 	0.03940 0.62490 0.24400 -0.29900
N 	N 	0.13580 0.60080 0.19060 -0.28700
N 	N 	0.13120 0.64710 0.29750 -0.31400
N 	N 	0.10220 0.53930 0.27680 -0.29100
C 	C 	0.12010 0.57700 0.15630 -0.07700
C 	C 	0.07440 0.55770 0.14660 0.04300
H 	H 	0.05020 0.55820 0.16800 -0.02800
C 	C 	0.07030 0.53890 0.10380 -0.04400
H 	H 	0.04220 0.52480 0.09660 0.03200
H 	H 	0.08350 0.69750 0.31840 -0.04300
C 	C 	0.23890 0.61230 0.35030 0.07700
H 	H 	0.25700 0.58580 0.35390 -0.00800
C 	C 	0.10150 0.52530 0.32310 0.03200
C 	C 	0.09570 0.55010 0.36470 -0.07000
H 	H 	0.09490 0.58240 0.36520 0.02900
C 	C 	0.09130 0.52380 0.40540 -0.02400
H 	H 	0.08820 0.53930 0.43360 0.02700
Zn	Zn	0.89571 0.39623 0.25197 1.17600
C 	C 	0.97440 0.33560 0.22150 0.04900
C 	C 	0.95000 0.29910 0.19980 -0.11200
H 	H 	0.91770 0.29860 0.19890 0.03900
C 	C 	0.97530 0.26520 0.18030 -0.01100
H 	H 	0.95980 0.24050 0.16620 0.02700
C 	C 	0.89040 0.40710 0.14470 0.10800
C 	C 	0.93680 0.41200 0.13310 -0.16600
H 	H 	0.96000 0.41320 0.15560 0.07300
C 	C 	0.94670 0.41500 0.08670 0.00800
H 	H 	0.97760 0.41710 0.07750 0.01700
C 	C 	0.82620 0.35540 0.31970 0.04000
C 	C 	0.78630 0.38250 0.31390 -0.11300
H 	H 	0.78460 0.40950 0.29440 0.03600
C 	C 	0.74360 0.37230 0.33740 -0.10300
H 	H 	0.71640 0.38820 0.32990 0.05100
C 	C 	0.91920 0.47700 0.31690 0.01000
C 	C 	0.94160 0.45010 0.35290 -0.03700
H 	H 	0.93980 0.41790 0.35440 0.01200
C 	C 	0.96660 0.47690 0.38570 -0.02800
H 	H 	0.98380 0.46150 0.40840 0.02700
N 	N 	0.96060 0.37510 0.24400 -0.30000
N 	N 	0.86420 0.39920 0.19060 -0.28700
N 	N 	0.86880 0.35290 0.29750 -0.31400
N 	N 	0.89780 0.46070 0.27680 -0.29100
C 	C 	0.87990 0.42300 0.15630 -0.07700
C 	C 	0.92560 0.44230 0.14660 0.04500
H 	H 	0.94980 0.44180 0.16800 -0.02800
C 	C 	0.92970 0.46110 0.10380 -0.04600
H 	H 	0.95780 0.47520 0.09660 0.03300
H 	H 	0.91650 0.30250 0.31840 -0.04200
C 	C 	0.76110 0.38770 0.35030 0.07700
H 	H 	0.74300 0.41420 0.35390 -0.00800
C 	C 	0.89850 0.47470 0.32310 0.03100
C 	C 	0.90430 0.44990 0.36470 -0.07100
H 	H 	0.90510 0.41760 0.36520 0.02900
C 	C 	0.90870 0.47620 0.40540 -0.02400
H 	H 	0.91180 0.46070 0.43360 0.02700
Zn	Zn	0.39623 0.25197 0.89571 1.17600
C 	C 	0.33560 0.22150 0.97440 0.04900
C 	C 	0.29910 0.19980 0.95000 -0.11200
H 	H 	0.29860 0.19890 0.91770 0.03900
C 	C 	0.26520 0.18030 0.97530 -0.01100
H 	H 	0.24050 0.16620 0.95980 0.02700
C 	C 	0.40710 0.14470 0.89040 0.10800
C 	C 	0.41200 0.13310 0.93680 -0.16600
H 	H 	0.41320 0.15560 0.96000 0.07300
C 	C 	0.41500 0.08670 0.94670 0.00800
H 	H 	0.41710 0.07750 0.97760 0.01700
C 	C 	0.35540 0.31970 0.82620 0.04000
C 	C 	0.38250 0.31390 0.78630 -0.11300
H 	H 	0.40950 0.29440 0.78460 0.03600
C 	C 	0.37230 0.33740 0.74360 -0.10300
H 	H 	0.38820 0.32990 0.71640 0.05100
C 	C 	0.47700 0.31690 0.91920 0.01000
C 	C 	0.45010 0.35290 0.94160 -0.03700
H 	H 	0.41790 0.35440 0.93980 0.01200
C 	C 	0.47690 0.38570 0.96660 -0.02800
H 	H 	0.46150 0.40840 0.98380 0.02700
N 	N 	0.37510 0.24400 0.96060 -0.30000
N 	N 	0.39920 0.19060 0.86420 -0.28700
N 	N 	0.35290 0.29750 0.86880 -0.31400
N 	N 	0.46070 0.27680 0.89780 -0.29100
C 	C 	0.42300 0.15630 0.87990 -0.07700
C 	C 	0.44230 0.14660 0.92560 0.04500
H 	H 	0.44180 0.16800 0.94980 -0.02800
C 	C 	0.46110 0.10380 0.92970 -0.04600
H 	H 	0.47520 0.09660 0.95780 0.03300
H 	H 	0.30250 0.31840 0.91650 -0.04200
C 	C 	0.38770 0.35030 0.76110 0.07700
H 	H 	0.41420 0.35390 0.74300 -0.00800
C 	C 	0.47470 0.32310 0.89850 0.03100
C 	C 	0.44990 0.36470 0.90430 -0.07100
H 	H 	0.41760 0.36520 0.90510 0.02900
C 	C 	0.47620 0.40540 0.90870 -0.02400
H 	H 	0.46070 0.43360 0.91180 0.02700
Zn	Zn	0.60377 0.25197 0.10429 1.17600
C 	C 	0.66440 0.22150 0.02560 0.03900
C 	C 	0.70090 0.19980 0.05000 -0.10000
H 	H 	0.70140 0.19890 0.08230 0.03500
C 	C 	0.73480 0.18030 0.02470 -0.02900
H 	H 	0.75950 0.16620 0.04020 0.03200
C 	C 	0.59290 0.14470 0.10960 0.10800
C 	C 	0.58800 0.13310 0.06320 -0.16500
H 	H 	0.58680 0.15560 0.04000 0.07200
C 	C 	0.58500 0.08670 0.05330 0.00700
H 	H 	0.58290 0.07750 0.02240 0.01500
C 	C 	0.64460 0.31970 0.17380 0.04000
C 	C 	0.61750 0.31390 0.21370 -0.11300
H 	H 	0.59050 0.29440 0.21540 0.03600
C 	C 	0.62770 0.33740 0.25640 -0.10300
H 	H 	0.61180 0.32990 0.28360 0.05100
C 	C 	0.52300 0.31690 0.08080 0.00900
C 	C 	0.54990 0.35290 0.05840 -0.03800
H 	H 	0.58210 0.35440 0.06020 0.01200
C 	C 	0.52310 0.38570 0.03340 -0.02700
H 	H 	0.53850 0.40840 0.01620 0.02400
N 	N 	0.62490 0.24400 0.03940 -0.29900
N 	N 	0.60080 0.19060 0.13580 -0.28700
N 	N 	0.64710 0.29750 0.13120 -0.31400
N 	N 	0.53930 0.27680 0.10220 -0.29100
C 	C 	0.57700 0.15630 0.12010 -0.07700
C 	C 	0.55770 0.14660 0.07440 0.04300
H 	H 	0.55820 0.16800 0.05020 -0.02800
C 	C 	0.53890 0.10380 0.07030 -0.04400
H 	H 	0.52480 0.09660 0.04220 0.03200
H 	H 	0.69750 0.31840 0.08350 -0.04300
C 	C 	0.61230 0.35030 0.23890 0.07700
H 	H 	0.58580 0.35390 0.25700 -0.00800
C 	C 	0.52530 0.32310 0.10150 0.03200
C 	C 	0.55010 0.36470 0.09570 -0.07000
H 	H 	0.58240 0.36520 0.09490 0.02900
C 	C 	0.52380 0.40540 0.09130 -0.02400
H 	H 	0.53930 0.43360 0.08820 0.02700
Zn	Zn	0.60377 0.74803 0.89571 1.17600
C 	C 	0.66440 0.77850 0.97440 0.04900
C 	C 	0.70090 0.80020 0.95000 -0.11200
H 	H 	0.70140 0.80110 0.91770 0.03900
C 	C 	0.73480 0.81970 0.97530 -0.01100
H 	H 	0.75950 0.83380 0.95980 0.02700
C 	C 	0.59290 0.85530 0.89040 0.10900
C 	C 	0.58800 0.86690 0.93680 -0.16500
H 	H 	0.58680 0.84440 0.96000 0.07300
C 	C 	0.58500 0.91330 0.94670 0.00700
H 	H 	0.58290 0.92250 0.97760 0.01700
C 	C 	0.64460 0.68030 0.82620 0.04000
C 	C 	0.61750 0.68610 0.78630 -0.11300
H 	H 	0.59050 0.70560 0.78460 0.03600
C 	C 	0.62770 0.66260 0.74360 -0.10300
H 	H 	0.61180 0.67010 0.71640 0.05100
C 	C 	0.52300 0.68310 0.91920 0.01000
C 	C 	0.54990 0.64710 0.94160 -0.03700
H 	H 	0.58210 0.64560 0.93980 0.01200
C 	C 	0.52310 0.61430 0.96660 -0.02800
H 	H 	0.53850 0.59160 0.98380 0.02700
N 	N 	0.62490 0.75600 0.96060 -0.30000
N 	N 	0.60080 0.80940 0.86420 -0.28700
N 	N 	0.64710 0.70250 0.86880 -0.31400
N 	N 	0.53930 0.72320 0.89780 -0.29100
C 	C 	0.57700 0.84370 0.87990 -0.07700
C 	C 	0.55770 0.85340 0.92560 0.04300
H 	H 	0.55820 0.83200 0.94980 -0.02800
C 	C 	0.53890 0.89620 0.92970 -0.04400
H 	H 	0.52480 0.90340 0.95780 0.03300
H 	H 	0.69750 0.68160 0.91650 -0.04200
C 	C 	0.61230 0.64970 0.76110 0.07700
H 	H 	0.58580 0.64610 0.74300 -0.00800
C 	C 	0.52530 0.67690 0.89850 0.03100
C 	C 	0.55010 0.63530 0.90430 -0.07100
H 	H 	0.58240 0.63480 0.90510 0.02900
C 	C 	0.52380 0.59460 0.90870 -0.02400
H 	H 	0.53930 0.56640 0.91180 0.02700
Zn	Zn	0.39623 0.74803 0.10429 1.17600
C 	C 	0.33560 0.77850 0.02560 0.03900
C 	C 	0.29910 0.80020 0.05000 -0.10000
H 	H 	0.29860 0.80110 0.08230 0.03500
C 	C 	0.26520 0.81970 0.02470 -0.02900
H 	H 	0.24050 0.83380 0.04020 0.03200
C 	C 	0.40710 0.85530 0.10960 0.10900
C 	C 	0.41200 0.86690 0.06320 -0.16500
H 	H 	0.41320 0.84440 0.04000 0.07200
C 	C 	0.41500 0.91330 0.05330 0.00700
H 	H 	0.41710 0.92250 0.02240 0.01600
C 	C 	0.35540 0.68030 0.17380 0.04000
C 	C 	0.38250 0.68610 0.21370 -0.11300
H 	H 	0.40950 0.70560 0.21540 0.03600
C 	C 	0.37230 0.66260 0.25640 -0.10300
H 	H 	0.38820 0.67010 0.28360 0.05100
C 	C 	0.47700 0.68310 0.08080 0.00900
C 	C 	0.45010 0.64710 0.05840 -0.03800
H 	H 	0.41790 0.64560 0.06020 0.01200
C 	C 	0.47690 0.61430 0.03340 -0.02700
H 	H 	0.46150 0.59160 0.01620 0.02400
N 	N 	0.37510 0.75600 0.03940 -0.29900
N 	N 	0.39920 0.80940 0.13580 -0.28700
N 	N 	0.35290 0.70250 0.13120 -0.31400
N 	N 	0.46070 0.72320 0.10220 -0.29100
C 	C 	0.42300 0.84370 0.12010 -0.07700
C 	C 	0.44230 0.85340 0.07440 0.04200
H 	H 	0.44180 0.83200 0.05020 -0.02800
C 	C 	0.46110 0.89620 0.07030 -0.04300
H 	H 	0.47520 0.90340 0.04220 0.03200
H 	H 	0.30250 0.68160 0.08350 -0.04300
C 	C 	0.38770 0.64970 0.23890 0.07700
H 	H 	0.41420 0.64610 0.25700 -0.00800
C 	C 	0.47470 0.67690 0.10150 0.03200
C 	C 	0.44990 0.63530 0.09570 -0.07000
H 	H 	0.41760 0.63480 0.09490 0.02900
C 	C 	0.47620 0.59460 0.09130 -0.02400
H 	H 	0.46070 0.56640 0.08820 0.02700
Zn	Zn	0.25197 0.10429 0.60377 1.17600
C 	C 	0.22150 0.02560 0.66440 0.03900
C 	C 	0.19980 0.05000 0.70090 -0.10000
H 	H 	0.19890 0.08230 0.70140 0.03500
C 	C 	0.18030 0.02470 0.73480 -0.02900
H 	H 	0.16620 0.04020 0.75950 0.03200
C 	C 	0.14470 0.10960 0.59290 0.10800
C 	C 	0.13310 0.06320 0.58800 -0.16500
H 	H 	0.15560 0.04000 0.58680 0.07200
C 	C 	0.08670 0.05330 0.58500 0.00700
H 	H 	0.07750 0.02240 0.58290 0.01500
C 	C 	0.31970 0.17380 0.64460 0.04000
C 	C 	0.31390 0.21370 0.61750 -0.11300
H 	H 	0.29440 0.21540 0.59050 0.03600
C 	C 	0.33740 0.25640 0.62770 -0.10300
H 	H 	0.32990 0.28360 0.61180 0.05100
C 	C 	0.31690 0.08080 0.52300 0.00900
C 	C 	0.35290 0.05840 0.54990 -0.03800
H 	H 	0.35440 0.06020 0.58210 0.01200
C 	C 	0.38570 0.03340 0.52310 -0.02700
H 	H 	0.40840 0.01620 0.53850 0.02400
N 	N 	0.24400 0.03940 0.62490 -0.29900
N 	N 	0.19060 0.13580 0.60080 -0.28700
N 	N 	0.29750 0.13120 0.64710 -0.31400
N 	N 	0.27680 0.10220 0.53930 -0.29100
C 	C 	0.15630 0.12010 0.57700 -0.07700
C 	C 	0.14660 0.07440 0.55770 0.04300
H 	H 	0.16800 0.05020 0.55820 -0.02800
C 	C 	0.10380 0.07030 0.53890 -0.04400
H 	H 	0.09660 0.04220 0.52480 0.03200
H 	H 	0.31840 0.08350 0.69750 -0.04300
C 	C 	0.35030 0.23890 0.61230 0.07700
H 	H 	0.35390 0.25700 0.58580 -0.00800
C 	C 	0.32310 0.10150 0.52530 0.03200
C 	C 	0.36470 0.09570 0.55010 -0.07000
H 	H 	0.36520 0.09490 0.58240 0.02900
C 	C 	0.40540 0.09130 0.52380 -0.02400
H 	H 	0.43360 0.08820 0.53930 0.02700
Zn	Zn	0.25197 0.89571 0.39623 1.17600
C 	C 	0.22150 0.97440 0.33560 0.04900
C 	C 	0.19980 0.95000 0.29910 -0.11200
H 	H 	0.19890 0.91770 0.29860 0.03900
C 	C 	0.18030 0.97530 0.26520 -0.01100
H 	H 	0.16620 0.95980 0.24050 0.02700
C 	C 	0.14470 0.89040 0.40710 0.10800
C 	C 	0.13310 0.93680 0.41200 -0.16600
H 	H 	0.15560 0.96000 0.41320 0.07300
C 	C 	0.08670 0.94670 0.41500 0.00800
H 	H 	0.07750 0.97760 0.41710 0.01700
C 	C 	0.31970 0.82620 0.35540 0.04000
C 	C 	0.31390 0.78630 0.38250 -0.11300
H 	H 	0.29440 0.78460 0.40950 0.03600
C 	C 	0.33740 0.74360 0.37230 -0.10300
H 	H 	0.32990 0.71640 0.38820 0.05100
C 	C 	0.31690 0.91920 0.47700 0.01000
C 	C 	0.35290 0.94160 0.45010 -0.03700
H 	H 	0.35440 0.93980 0.41790 0.01200
C 	C 	0.38570 0.96660 0.47690 -0.02800
H 	H 	0.40840 0.98380 0.46150 0.02700
N 	N 	0.24400 0.96060 0.37510 -0.30000
N 	N 	0.19060 0.86420 0.39920 -0.28700
N 	N 	0.29750 0.86880 0.35290 -0.31400
N 	N 	0.27680 0.89780 0.46070 -0.29100
C 	C 	0.15630 0.87990 0.42300 -0.07700
C 	C 	0.14660 0.92560 0.44230 0.04500
H 	H 	0.16800 0.94980 0.44180 -0.02800
C 	C 	0.10380 0.92970 0.46110 -0.04600
H 	H 	0.09660 0.95780 0.47520 0.03300
H 	H 	0.31840 0.91650 0.30250 -0.04200
C 	C 	0.35030 0.76110 0.38770 0.07700
H 	H 	0.35390 0.74300 0.41420 -0.00800
C 	C 	0.32310 0.89850 0.47470 0.03100
C 	C 	0.36470 0.90430 0.44990 -0.07100
H 	H 	0.36520 0.90510 0.41760 0.02900
C 	C 	0.40540 0.90870 0.47620 -0.02400
H 	H 	0.43360 0.91180 0.46070 0.02700
Zn	Zn	0.74803 0.10429 0.39623 1.17600
C 	C 	0.77850 0.02560 0.33560 0.03900
C 	C 	0.80020 0.05000 0.29910 -0.10000
H 	H 	0.80110 0.08230 0.29860 0.03500
C 	C 	0.81970 0.02470 0.26520 -0.02900
H 	H 	0.83380 0.04020 0.24050 0.03200
C 	C 	0.85530 0.10960 0.40710 0.10900
C 	C 	0.86690 0.06320 0.41200 -0.16500
H 	H 	0.84440 0.04000 0.41320 0.07200
C 	C 	0.91330 0.05330 0.41500 0.00700
H 	H 	0.92250 0.02240 0.41710 0.01600
C 	C 	0.68030 0.17380 0.35540 0.04000
C 	C 	0.68610 0.21370 0.38250 -0.11300
H 	H 	0.70560 0.21540 0.40950 0.03600
C 	C 	0.66260 0.25640 0.37230 -0.10300
H 	H 	0.67010 0.28360 0.38820 0.05100
C 	C 	0.68310 0.08080 0.47700 0.00900
C 	C 	0.64710 0.05840 0.45010 -0.03800
H 	H 	0.64560 0.06020 0.41790 0.01200
C 	C 	0.61430 0.03340 0.47690 -0.02700
H 	H 	0.59160 0.01620 0.46150 0.02400
N 	N 	0.75600 0.03940 0.37510 -0.29900
N 	N 	0.80940 0.13580 0.39920 -0.28700
N 	N 	0.70250 0.13120 0.35290 -0.31400
N 	N 	0.72320 0.10220 0.46070 -0.29100
C 	C 	0.84370 0.12010 0.42300 -0.07700
C 	C 	0.85340 0.07440 0.44230 0.04200
H 	H 	0.83200 0.05020 0.44180 -0.02800
C 	C 	0.89620 0.07030 0.46110 -0.04300
H 	H 	0.90340 0.04220 0.47520 0.03200
H 	H 	0.68160 0.08350 0.30250 -0.04300
C 	C 	0.64970 0.23890 0.38770 0.07700
H 	H 	0.64610 0.25700 0.41420 -0.00800
C 	C 	0.67690 0.10150 0.47470 0.03200
C 	C 	0.63530 0.09570 0.44990 -0.07000
H 	H 	0.63480 0.09490 0.41760 0.02900
C 	C 	0.59460 0.09130 0.47620 -0.02400
H 	H 	0.56640 0.08820 0.46070 0.02700
Zn	Zn	0.74803 0.89571 0.60377 1.17600
C 	C 	0.77850 0.97440 0.66440 0.04900
C 	C 	0.80020 0.95000 0.70090 -0.11200
H 	H 	0.80110 0.91770 0.70140 0.03900
C 	C 	0.81970 0.97530 0.73480 -0.01100
H 	H 	0.83380 0.95980 0.75950 0.02700
C 	C 	0.85530 0.89040 0.59290 0.10900
C 	C 	0.86690 0.93680 0.58800 -0.16500
H 	H 	0.84440 0.96000 0.58680 0.07300
C 	C 	0.91330 0.94670 0.58500 0.00700
H 	H 	0.92250 0.97760 0.58290 0.01700
C 	C 	0.68030 0.82620 0.64460 0.04000
C 	C 	0.68610 0.78630 0.61750 -0.11300
H 	H 	0.70560 0.78460 0.59050 0.03600
C 	C 	0.66260 0.74360 0.62770 -0.10300
H 	H 	0.67010 0.71640 0.61180 0.05100
C 	C 	0.68310 0.91920 0.52300 0.01000
C 	C 	0.64710 0.94160 0.54990 -0.03700
H 	H 	0.64560 0.93980 0.58210 0.01200
C 	C 	0.61430 0.96660 0.52310 -0.02800
H 	H 	0.59160 0.98380 0.53850 0.02700
N 	N 	0.75600 0.96060 0.62490 -0.30000
N 	N 	0.80940 0.86420 0.60080 -0.28700
N 	N 	0.70250 0.86880 0.64710 -0.31400
N 	N 	0.72320 0.89780 0.53930 -0.29100
C 	C 	0.84370 0.87990 0.57700 -0.07700
C 	C 	0.85340 0.92560 0.55770 0.04300
H 	H 	0.83200 0.94980 0.55820 -0.02800
C 	C 	0.89620 0.92970 0.53890 -0.04400
H 	H 	0.90340 0.95780 0.52480 0.03300
H 	H 	0.68160 0.91650 0.69750 -0.04200
C 	C 	0.64970 0.76110 0.61230 0.07700
H 	H 	0.64610 0.74300 0.58580 -0.00800
C 	C 	0.67690 0.89850 0.52530 0.03100
C 	C 	0.63530 0.90430 0.55010 -0.07100
H 	H 	0.63480 0.90510 0.58240 0.02900
C 	C 	0.59460 0.90870 0.52380 -0.02400
H 	H 	0.56640 0.91180 0.53930 0.02700
Zn	Zn	0.60377 0.89571 0.74803 1.17600
C 	C 	0.66440 0.97440 0.77850 0.04900
C 	C 	0.70090 0.95000 0.80020 -0.11200
H 	H 	0.70140 0.91770 0.80110 0.03900
C 	C 	0.73480 0.97530 0.81970 -0.01100
H 	H 	0.75950 0.95980 0.83380 0.02700
C 	C 	0.59290 0.89040 0.85530 0.10900
C 	C 	0.58800 0.93680 0.86690 -0.16500
H 	H 	0.58680 0.96000 0.84440 0.07300
C 	C 	0.58500 0.94670 0.91330 0.00700
H 	H 	0.58290 0.97760 0.92250 0.01700
C 	C 	0.64460 0.82620 0.68030 0.04000
C 	C 	0.61750 0.78630 0.68610 -0.11300
H 	H 	0.59050 0.78460 0.70560 0.03600
C 	C 	0.62770 0.74360 0.66260 -0.10300
H 	H 	0.61180 0.71640 0.67010 0.05100
C 	C 	0.52300 0.91920 0.68310 0.01000
C 	C 	0.54990 0.94160 0.64710 -0.03700
H 	H 	0.58210 0.93980 0.64560 0.01200
C 	C 	0.52310 0.96660 0.61430 -0.02800
H 	H 	0.53850 0.98380 0.59160 0.02700
N 	N 	0.62490 0.96060 0.75600 -0.30000
N 	N 	0.60080 0.86420 0.80940 -0.28700
N 	N 	0.64710 0.86880 0.70250 -0.31400
N 	N 	0.53930 0.89780 0.72320 -0.29100
C 	C 	0.57700 0.87990 0.84370 -0.07700
C 	C 	0.55770 0.92560 0.85340 0.04300
H 	H 	0.55820 0.94980 0.83200 -0.02800
C 	C 	0.53890 0.92970 0.89620 -0.04400
H 	H 	0.52480 0.95780 0.90340 0.03300
H 	H 	0.69750 0.91650 0.68160 -0.04200
C 	C 	0.61230 0.76110 0.64970 0.07700
H 	H 	0.58580 0.74300 0.64610 -0.00800
C 	C 	0.52530 0.89850 0.67690 0.03100
C 	C 	0.55010 0.90430 0.63530 -0.07100
H 	H 	0.58240 0.90510 0.63480 0.02900
C 	C 	0.52380 0.90870 0.59460 -0.02400
H 	H 	0.53930 0.91180 0.56640 0.02700
Zn	Zn	0.39623 0.10429 0.74803 1.17600
C 	C 	0.33560 0.02560 0.77850 0.03900
C 	C 	0.29910 0.05000 0.80020 -0.10000
H 	H 	0.29860 0.08230 0.80110 0.03500
C 	C 	0.26520 0.02470 0.81970 -0.02900
H 	H 	0.24050 0.04020 0.83380 0.03200
C 	C 	0.40710 0.10960 0.85530 0.10900
C 	C 	0.41200 0.06320 0.86690 -0.16500
H 	H 	0.41320 0.04000 0.84440 0.07200
C 	C 	0.41500 0.05330 0.91330 0.00700
H 	H 	0.41710 0.02240 0.92250 0.01600
C 	C 	0.35540 0.17380 0.68030 0.04000
C 	C 	0.38250 0.21370 0.68610 -0.11300
H 	H 	0.40950 0.21540 0.70560 0.03600
C 	C 	0.37230 0.25640 0.66260 -0.10300
H 	H 	0.38820 0.28360 0.67010 0.05100
C 	C 	0.47700 0.08080 0.68310 0.00900
C 	C 	0.45010 0.05840 0.64710 -0.03800
H 	H 	0.41790 0.06020 0.64560 0.01200
C 	C 	0.47690 0.03340 0.61430 -0.02700
H 	H 	0.46150 0.01620 0.59160 0.02400
N 	N 	0.37510 0.03940 0.75600 -0.29900
N 	N 	0.39920 0.13580 0.80940 -0.28700
N 	N 	0.35290 0.13120 0.70250 -0.31400
N 	N 	0.46070 0.10220 0.72320 -0.29100
C 	C 	0.42300 0.12010 0.84370 -0.07700
C 	C 	0.44230 0.07440 0.85340 0.04200
H 	H 	0.44180 0.05020 0.83200 -0.02800
C 	C 	0.46110 0.07030 0.89620 -0.04300
H 	H 	0.47520 0.04220 0.90340 0.03200
H 	H 	0.30250 0.08350 0.68160 -0.04300
C 	C 	0.38770 0.23890 0.64970 0.07700
H 	H 	0.41420 0.25700 0.64610 -0.00800
C 	C 	0.47470 0.10150 0.67690 0.03200
C 	C 	0.44990 0.09570 0.63530 -0.07000
H 	H 	0.41760 0.09490 0.63480 0.02900
C 	C 	0.47620 0.09130 0.59460 -0.02400
H 	H 	0.46070 0.08820 0.56640 0.02700
Zn	Zn	0.39623 0.89571 0.25197 1.17600
C 	C 	0.33560 0.97440 0.22150 0.04900
C 	C 	0.29910 0.95000 0.19980 -0.11200
H 	H 	0.29860 0.91770 0.19890 0.03900
C 	C 	0.26520 0.97530 0.18030 -0.01100
H 	H 	0.24050 0.95980 0.16620 0.02700
C 	C 	0.40710 0.89040 0.14470 0.10800
C 	C 	0.41200 0.93680 0.13310 -0.16600
H 	H 	0.41320 0.96000 0.15560 0.07300
C 	C 	0.41500 0.94670 0.08670 0.00800
H 	H 	0.41710 0.97760 0.07750 0.01700
C 	C 	0.35540 0.82620 0.31970 0.04000
C 	C 	0.38250 0.78630 0.31390 -0.11300
H 	H 	0.40950 0.78460 0.29440 0.03600
C 	C 	0.37230 0.74360 0.33740 -0.10300
H 	H 	0.38820 0.71640 0.32990 0.05100
C 	C 	0.47700 0.91920 0.31690 0.01000
C 	C 	0.45010 0.94160 0.35290 -0.03700
H 	H 	0.41790 0.93980 0.35440 0.01200
C 	C 	0.47690 0.96660 0.38570 -0.02800
H 	H 	0.46150 0.98380 0.40840 0.02700
N 	N 	0.37510 0.96060 0.24400 -0.30000
N 	N 	0.39920 0.86420 0.19060 -0.28700
N 	N 	0.35290 0.86880 0.29750 -0.31400
N 	N 	0.46070 0.89780 0.27680 -0.29100
C 	C 	0.42300 0.87990 0.15630 -0.07700
C 	C 	0.44230 0.92560 0.14660 0.04500
H 	H 	0.44180 0.94980 0.16800 -0.02800
C 	C 	0.46110 0.92970 0.10380 -0.04600
H 	H 	0.47520 0.95780 0.09660 0.03300
H 	H 	0.30250 0.91650 0.31840 -0.04200
C 	C 	0.38770 0.76110 0.35030 0.07700
H 	H 	0.41420 0.74300 0.35390 -0.00800
C 	C 	0.47470 0.89850 0.32310 0.03100
C 	C 	0.44990 0.90430 0.36470 -0.07100
H 	H 	0.41760 0.90510 0.36520 0.02900
C 	C 	0.47620 0.90870 0.40540 -0.02400
H 	H 	0.46070 0.91180 0.43360 0.02700
Zn	Zn	0.60377 0.10429 0.25197 1.17600
C 	C 	0.66440 0.02560 0.22150 0.03900
C 	C 	0.70090 0.05000 0.19980 -0.10000
H 	H 	0.70140 0.08230 0.19890 0.03500
C 	C 	0.73480 0.02470 0.18030 -0.02900
H 	H 	0.75950 0.04020 0.16620 0.03200
C 	C 	0.59290 0.10960 0.14470 0.10800
C 	C 	0.58800 0.06320 0.13310 -0.16500
H 	H 	0.58680 0.04000 0.15560 0.07200
C 	C 	0.58500 0.05330 0.08670 0.00700
H 	H 	0.58290 0.02240 0.07750 0.01500
C 	C 	0.64460 0.17380 0.31970 0.04000
C 	C 	0.61750 0.21370 0.31390 -0.11300
H 	H 	0.59050 0.21540 0.29440 0.03600
C 	C 	0.62770 0.25640 0.33740 -0.10300
H 	H 	0.61180 0.28360 0.32990 0.05100
C 	C 	0.52300 0.08080 0.31690 0.00900
C 	C 	0.54990 0.05840 0.35290 -0.03800
H 	H 	0.58210 0.06020 0.35440 0.01200
C 	C 	0.52310 0.03340 0.38570 -0.02700
H 	H 	0.53850 0.01620 0.40840 0.02400
N 	N 	0.62490 0.03940 0.24400 -0.29900
N 	N 	0.60080 0.13580 0.19060 -0.28700
N 	N 	0.64710 0.13120 0.29750 -0.31400
N 	N 	0.53930 0.10220 0.27680 -0.29100
C 	C 	0.57700 0.12010 0.15630 -0.07700
C 	C 	0.55770 0.07440 0.14660 0.04300
H 	H 	0.55820 0.05020 0.16800 -0.02800
C 	C 	0.53890 0.07030 0.10380 -0.04400
H 	H 	0.52480 0.04220 0.09660 0.03200
H 	H 	0.69750 0.08350 0.31840 -0.04300
C 	C 	0.61230 0.23890 0.35030 0.07700
H 	H 	0.58580 0.25700 0.35390 -0.00800
C 	C 	0.52530 0.10150 0.32310 0.03200
C 	C 	0.55010 0.09570 0.36470 -0.07000
H 	H 	0.58240 0.09490 0.36520 0.02900
C 	C 	0.52380 0.09130 0.40540 -0.02400
H 	H 	0.53930 0.08820 0.43360 0.02700
Zn	Zn	0.74803 0.60377 0.89571 1.17600
C 	C 	0.77850 0.66440 0.97440 0.04900
C 	C 	0.80020 0.70090 0.95000 -0.11200
H 	H 	0.80110 0.70140 0.91770 0.03900
C 	C 	0.81970 0.73480 0.97530 -0.01100
H 	H 	0.83380 0.75950 0.95980 0.02700
C 	C 	0.85530 0.59290 0.89040 0.10900
C 	C 	0.86690 0.58800 0.93680 -0.16500
H 	H 	0.84440 0.58680 0.96000 0.07300
C 	C 	0.91330 0.58500 0.94670 0.00700
H 	H 	0.92250 0.58290 0.97760 0.01700
C 	C 	0.68030 0.64460 0.82620 0.04000
C 	C 	0.68610 0.61750 0.78630 -0.11300
H 	H 	0.70560 0.59050 0.78460 0.03600
C 	C 	0.66260 0.62770 0.74360 -0.10300
H 	H 	0.67010 0.61180 0.71640 0.05100
C 	C 	0.68310 0.52300 0.91920 0.01000
C 	C 	0.64710 0.54990 0.94160 -0.03700
H 	H 	0.64560 0.58210 0.93980 0.01200
C 	C 	0.61430 0.52310 0.96660 -0.02800
H 	H 	0.59160 0.53850 0.98380 0.02700
N 	N 	0.75600 0.62490 0.96060 -0.30000
N 	N 	0.80940 0.60080 0.86420 -0.28700
N 	N 	0.70250 0.64710 0.86880 -0.31400
N 	N 	0.72320 0.53930 0.89780 -0.29100
C 	C 	0.84370 0.57700 0.87990 -0.07700
C 	C 	0.85340 0.55770 0.92560 0.04300
H 	H 	0.83200 0.55820 0.94980 -0.02800
C 	C 	0.89620 0.53890 0.92970 -0.04400
H 	H 	0.90340 0.52480 0.95780 0.03300
H 	H 	0.68160 0.69750 0.91650 -0.04200
C 	C 	0.64970 0.61230 0.76110 0.07700
H 	H 	0.64610 0.58580 0.74300 -0.00800
C 	C 	0.67690 0.52530 0.89850 0.03100
C 	C 	0.63530 0.55010 0.90430 -0.07100
H 	H 	0.63480 0.58240 0.90510 0.02900
C 	C 	0.59460 0.52380 0.90870 -0.02400
H 	H 	0.56640 0.53930 0.91180 0.02700
Zn	Zn	0.74803 0.39623 0.10429 1.17600
C 	C 	0.77850 0.33560 0.02560 0.03900
C 	C 	0.80020 0.29910 0.05000 -0.10000
H 	H 	0.80110 0.29860 0.08230 0.03500
C 	C 	0.81970 0.26520 0.02470 -0.02900
H 	H 	0.83380 0.24050 0.04020 0.03200
C 	C 	0.85530 0.40710 0.10960 0.10900
C 	C 	0.86690 0.41200 0.06320 -0.16500
H 	H 	0.84440 0.41320 0.04000 0.07200
C 	C 	0.91330 0.41500 0.05330 0.00700
H 	H 	0.92250 0.41710 0.02240 0.01600
C 	C 	0.68030 0.35540 0.17380 0.04000
C 	C 	0.68610 0.38250 0.21370 -0.11300
H 	H 	0.70560 0.40950 0.21540 0.03600
C 	C 	0.66260 0.37230 0.25640 -0.10300
H 	H 	0.67010 0.38820 0.28360 0.05100
C 	C 	0.68310 0.47700 0.08080 0.00900
C 	C 	0.64710 0.45010 0.05840 -0.03800
H 	H 	0.64560 0.41790 0.06020 0.01200
C 	C 	0.61430 0.47690 0.03340 -0.02700
H 	H 	0.59160 0.46150 0.01620 0.02400
N 	N 	0.75600 0.37510 0.03940 -0.29900
N 	N 	0.80940 0.39920 0.13580 -0.28700
N 	N 	0.70250 0.35290 0.13120 -0.31400
N 	N 	0.72320 0.46070 0.10220 -0.29100
C 	C 	0.84370 0.42300 0.12010 -0.07700
C 	C 	0.85340 0.44230 0.07440 0.04200
H 	H 	0.83200 0.44180 0.05020 -0.02800
C 	C 	0.89620 0.46110 0.07030 -0.04300
H 	H 	0.90340 0.47520 0.04220 0.03200
H 	H 	0.68160 0.30250 0.08350 -0.04300
C 	C 	0.64970 0.38770 0.23890 0.07700
H 	H 	0.64610 0.41420 0.25700 -0.00800
C 	C 	0.67690 0.47470 0.10150 0.03200
C 	C 	0.63530 0.44990 0.09570 -0.07000
H 	H 	0.63480 0.41760 0.09490 0.02900
C 	C 	0.59460 0.47620 0.09130 -0.02400
H 	H 	0.56640 0.46070 0.08820 0.02700
Zn	Zn	0.25197 0.39623 0.89571 1.17600
C 	C 	0.22150 0.33560 0.97440 0.04900
C 	C 	0.19980 0.29910 0.95000 -0.11200
H 	H 	0.19890 0.29860 0.91770 0.03900
C 	C 	0.18030 0.26520 0.97530 -0.01100
H 	H 	0.16620 0.24050 0.95980 0.02700
C 	C 	0.14470 0.40710 0.89040 0.10800
C 	C 	0.13310 0.41200 0.93680 -0.16600
H 	H 	0.15560 0.41320 0.96000 0.07300
C 	C 	0.08670 0.41500 0.94670 0.00800
H 	H 	0.07750 0.41710 0.97760 0.01700
C 	C 	0.31970 0.35540 0.82620 0.04000
C 	C 	0.31390 0.38250 0.78630 -0.11300
H 	H 	0.29440 0.40950 0.78460 0.03600
C 	C 	0.33740 0.37230 0.74360 -0.10300
H 	H 	0.32990 0.38820 0.71640 0.05100
C 	C 	0.31690 0.47700 0.91920 0.01000
C 	C 	0.35290 0.45010 0.94160 -0.03700
H 	H 	0.35440 0.41790 0.93980 0.01200
C 	C 	0.38570 0.47690 0.96660 -0.02800
H 	H 	0.40840 0.46150 0.98380 0.02700
N 	N 	0.24400 0.37510 0.96060 -0.30000
N 	N 	0.19060 0.39920 0.86420 -0.28700
N 	N 	0.29750 0.35290 0.86880 -0.31400
N 	N 	0.27680 0.46070 0.89780 -0.29100
C 	C 	0.15630 0.42300 0.87990 -0.07700
C 	C 	0.14660 0.44230 0.92560 0.04500
H 	H 	0.16800 0.44180 0.94980 -0.02800
C 	C 	0.10380 0.46110 0.92970 -0.04600
H 	H 	0.09660 0.47520 0.95780 0.03300
H 	H 	0.31840 0.30250 0.91650 -0.04200
C 	C 	0.35030 0.38770 0.76110 0.07700
H 	H 	0.35390 0.41420 0.74300 -0.00800
C 	C 	0.32310 0.47470 0.89850 0.03100
C 	C 	0.36470 0.44990 0.90430 -0.07100
H 	H 	0.36520 0.41760 0.90510 0.02900
C 	C 	0.40540 0.47620 0.90870 -0.02400
H 	H 	0.43360 0.46070 0.91180 0.02700
Zn	Zn	0.25197 0.60377 0.10429 1.17600
C 	C 	0.22150 0.66440 0.02560 0.03900
C 	C 	0.19980 0.70090 0.05000 -0.10000
H 	H 	0.19890 0.70140 0.08230 0.03500
C 	C 	0.18030 0.73480 0.02470 -0.02900
H 	H 	0.16620 0.75950 0.04020 0.03200
C 	C 	0.14470 0.59290 0.10960 0.10800
C 	C 	0.13310 0.58800 0.06320 -0.16500
H 	H 	0.15560 0.58680 0.04000 0.07200
C 	C 	0.08670 0.58500 0.05330 0.00700
H 	H 	0.07750 0.58290 0.02240 0.01500
C 	C 	0.31970 0.64460 0.17380 0.04000
C 	C 	0.31390 0.61750 0.21370 -0.11300
H 	H 	0.29440 0.59050 0.21540 0.03600
C 	C 	0.33740 0.62770 0.25640 -0.10300
H 	H 	0.32990 0.61180 0.28360 0.05100
C 	C 	0.31690 0.52300 0.08080 0.00900
C 	C 	0.35290 0.54990 0.05840 -0.03800
H 	H 	0.35440 0.58210 0.06020 0.01200
C 	C 	0.38570 0.52310 0.03340 -0.02700
H 	H 	0.40840 0.53850 0.01620 0.02400
N 	N 	0.24400 0.62490 0.03940 -0.29900
N 	N 	0.19060 0.60080 0.13580 -0.28700
N 	N 	0.29750 0.64710 0.13120 -0.31400
N 	N 	0.27680 0.53930 0.10220 -0.29100
C 	C 	0.15630 0.57700 0.12010 -0.07700
C 	C 	0.14660 0.55770 0.07440 0.04300
H 	H 	0.16800 0.55820 0.05020 -0.02800
C 	C 	0.10380 0.53890 0.07030 -0.04400
H 	H 	0.09660 0.52480 0.04220 0.03200
H 	H 	0.31840 0.69750 0.08350 -0.04300
C 	C 	0.35030 0.61230 0.23890 0.07700
H 	H 	0.35390 0.58580 0.25700 -0.00800
C 	C 	0.32310 0.52530 0.10150 0.03200
C 	C 	0.36470 0.55010 0.09570 -0.07000
H 	H 	0.36520 0.58240 0.09490 0.02900
C 	C 	0.40540 0.52380 0.09130 -0.02400
H 	H 	0.43360 0.53930 0.08820 0.02700
Zn	Zn	0.89571 0.74803 0.60377 1.17600
C 	C 	0.97440 0.77850 0.66440 0.04900
C 	C 	0.95000 0.80020 0.70090 -0.11200
H 	H 	0.91770 0.80110 0.70140 0.03900
C 	C 	0.97530 0.81970 0.73480 -0.01100
H 	H 	0.95980 0.83380 0.75950 0.02700
C 	C 	0.89040 0.85530 0.59290 0.10900
C 	C 	0.93680 0.86690 0.58800 -0.16500
H 	H 	0.96000 0.84440 0.58680 0.07300
C 	C 	0.94670 0.91330 0.58500 0.00700
H 	H 	0.97760 0.92250 0.58290 0.01700
C 	C 	0.82620 0.68030 0.64460 0.04000
C 	C 	0.78630 0.68610 0.61750 -0.11300
H 	H 	0.78460 0.70560 0.59050 0.03600
C 	C 	0.74360 0.66260 0.62770 -0.10300
H 	H 	0.71640 0.67010 0.61180 0.05100
C 	C 	0.91920 0.68310 0.52300 0.01000
C 	C 	0.94160 0.64710 0.54990 -0.03700
H 	H 	0.93980 0.64560 0.58210 0.01200
C 	C 	0.96660 0.61430 0.52310 -0.02800
H 	H 	0.98380 0.59160 0.53850 0.02700
N 	N 	0.96060 0.75600 0.62490 -0.30000
N 	N 	0.86420 0.80940 0.60080 -0.28700
N 	N 	0.86880 0.70250 0.64710 -0.31400
N 	N 	0.89780 0.72320 0.53930 -0.29100
C 	C 	0.87990 0.84370 0.57700 -0.07700
C 	C 	0.92560 0.85340 0.55770 0.04300
H 	H 	0.94980 0.83200 0.55820 -0.02800
C 	C 	0.92970 0.89620 0.53890 -0.04400
H 	H 	0.95780 0.90340 0.52480 0.03300
H 	H 	0.91650 0.68160 0.69750 -0.04200
C 	C 	0.76110 0.64970 0.61230 0.07700
H 	H 	0.74300 0.64610 0.58580 -0.00800
C 	C 	0.89850 0.67690 0.52530 0.03100
C 	C 	0.90430 0.63530 0.55010 -0.07100
H 	H 	0.90510 0.63480 0.58240 0.02900
C 	C 	0.90870 0.59460 0.52380 -0.02400
H 	H 	0.91180 0.56640 0.53930 0.02700
Zn	Zn	0.10429 0.74803 0.39623 1.17600
C 	C 	0.02560 0.77850 0.33560 0.03900
C 	C 	0.05000 0.80020 0.29910 -0.10000
H 	H 	0.08230 0.80110 0.29860 0.03500
C 	C 	0.02470 0.81970 0.26520 -0.02900
H 	H 	0.04020 0.83380 0.24050 0.03200
C 	C 	0.10960 0.85530 0.40710 0.10900
C 	C 	0.06320 0.86690 0.41200 -0.16500
H 	H 	0.04000 0.84440 0.41320 0.07200
C 	C 	0.05330 0.91330 0.41500 0.00700
H 	H 	0.02240 0.92250 0.41710 0.01600
C 	C 	0.17380 0.68030 0.35540 0.04000
C 	C 	0.21370 0.68610 0.38250 -0.11300
H 	H 	0.21540 0.70560 0.40950 0.03600
C 	C 	0.25640 0.66260 0.37230 -0.10300
H 	H 	0.28360 0.67010 0.38820 0.05100
C 	C 	0.08080 0.68310 0.47700 0.00900
C 	C 	0.05840 0.64710 0.45010 -0.03800
H 	H 	0.06020 0.64560 0.41790 0.01200
C 	C 	0.03340 0.61430 0.47690 -0.02700
H 	H 	0.01620 0.59160 0.46150 0.02400
N 	N 	0.03940 0.75600 0.37510 -0.29900
N 	N 	0.13580 0.80940 0.39920 -0.28700
N 	N 	0.13120 0.70250 0.35290 -0.31400
N 	N 	0.10220 0.72320 0.46070 -0.29100
C 	C 	0.12010 0.84370 0.42300 -0.07700
C 	C 	0.07440 0.85340 0.44230 0.04200
H 	H 	0.05020 0.83200 0.44180 -0.02800
C 	C 	0.07030 0.89620 0.46110 -0.04300
H 	H 	0.04220 0.90340 0.47520 0.03200
H 	H 	0.08350 0.68160 0.30250 -0.04300
C 	C 	0.23890 0.64970 0.38770 0.07700
H 	H 	0.25700 0.64610 0.41420 -0.00800
C 	C 	0.10150 0.67690 0.47470 0.03200
C 	C 	0.09570 0.63530 0.44990 -0.07000
H 	H 	0.09490 0.63480 0.41760 0.02900
C 	C 	0.09130 0.59460 0.47620 -0.02400
H 	H 	0.08820 0.56640 0.46070 0.02700
Zn	Zn	0.89571 0.25197 0.39623 1.17600
C 	C 	0.97440 0.22150 0.33560 0.04900
C 	C 	0.95000 0.19980 0.29910 -0.11200
H 	H 	0.91770 0.19890 0.29860 0.03900
C 	C 	0.97530 0.18030 0.26520 -0.01100
H 	H 	0.95980 0.16620 0.24050 0.02700
C 	C 	0.89040 0.14470 0.40710 0.10800
C 	C 	0.93680 0.13310 0.41200 -0.16600
H 	H 	0.96000 0.15560 0.41320 0.07300
C 	C 	0.94670 0.08670 0.41500 0.00800
H 	H 	0.97760 0.07750 0.41710 0.01700
C 	C 	0.82620 0.31970 0.35540 0.04000
C 	C 	0.78630 0.31390 0.38250 -0.11300
H 	H 	0.78460 0.29440 0.40950 0.03600
C 	C 	0.74360 0.33740 0.37230 -0.10300
H 	H 	0.71640 0.32990 0.38820 0.05100
C 	C 	0.91920 0.31690 0.47700 0.01000
C 	C 	0.94160 0.35290 0.45010 -0.03700
H 	H 	0.93980 0.35440 0.41790 0.01200
C 	C 	0.96660 0.38570 0.47690 -0.02800
H 	H 	0.98380 0.40840 0.46150 0.02700
N 	N 	0.96060 0.24400 0.37510 -0.30000
N 	N 	0.86420 0.19060 0.39920 -0.28700
N 	N 	0.86880 0.29750 0.35290 -0.31400
N 	N 	0.89780 0.27680 0.46070 -0.29100
C 	C 	0.87990 0.15630 0.42300 -0.07700
C 	C 	0.92560 0.14660 0.44230 0.04500
H 	H 	0.94980 0.16800 0.44180 -0.02800
C 	C 	0.92970 0.10380 0.46110 -0.04600
H 	H 	0.95780 0.09660 0.47520 0.03300
H 	H 	0.91650 0.31840 0.30250 -0.04200
C 	C 	0.76110 0.35030 0.38770 0.07700
H 	H 	0.74300 0.35390 0.41420 -0.00800
C 	C 	0.89850 0.32310 0.47470 0.03100
C 	C 	0.90430 0.36470 0.44990 -0.07100
H 	H 	0.90510 0.36520 0.41760 0.02900
C 	C 	0.90870 0.40540 0.47620 -0.02400
H 	H 	0.91180 0.43360 0.46070 0.02700
Zn	Zn	0.10429 0.25197 0.60377 1.17600
C 	C 	0.02560 0.22150 0.66440 0.03900
C 	C 	0.05000 0.19980 0.70090 -0.10000
H 	H 	0.08230 0.19890 0.70140 0.03500
C 	C 	0.02470 0.18030 0.73480 -0.02900
H 	H 	0.04020 0.16620 0.75950 0.03200
C 	C 	0.10960 0.14470 0.59290 0.10800
C 	C 	0.06320 0.13310 0.58800 -0.16500
H 	H 	0.04000 0.15560 0.58680 0.07200
C 	C 	0.05330 0.08670 0.58500 0.00700
H 	H 	0.02240 0.07750 0.58290 0.01500
C 	C 	0.17380 0.31970 0.64460 0.04000
C 	C 	0.21370 0.31390 0.61750 -0.11300
H 	H 	0.21540 0.29440 0.59050 0.03600
C 	C 	0.25640 0.33740 0.62770 -0.10300
H 	H 	0.28360 0.32990 0.61180 0.05100
C 	C 	0.08080 0.31690 0.52300 0.00900
C 	C 	0.05840 0.35290 0.54990 -0.03800
H 	H 	0.06020 0.35440 0.58210 0.01200
C 	C 	0.03340 0.38570 0.52310 -0.02700
H 	H 	0.01620 0.40840 0.53850 0.02400
N 	N 	0.03940 0.24400 0.62490 -0.29900
N 	N 	0.13580 0.19060 0.60080 -0.28700
N 	N 	0.13120 0.29750 0.64710 -0.31400
N 	N 	0.10220 0.27680 0.53930 -0.29100
C 	C 	0.12010 0.15630 0.57700 -0.07700
C 	C 	0.07440 0.14660 0.55770 0.04300
H 	H 	0.05020 0.16800 0.55820 -0.02800
C 	C 	0.07030 0.10380 0.53890 -0.04400
H 	H 	0.04220 0.09660 0.52480 0.03200
H 	H 	0.08350 0.31840 0.69750 -0.04300
C 	C 	0.23890 0.35030 0.61230 0.07700
H 	H 	0.25700 0.35390 0.58580 -0.00800
C 	C 	0.10150 0.32310 0.52530 0.03200
C 	C 	0.09570 0.36470 0.55010 -0.07000
H 	H 	0.09490 0.36520 0.58240 0.02900
C 	C 	0.09130 0.40540 0.52380 -0.02400
H 	H 	0.08820 0.43360 0.53930 0.02700
Zn	Zn	0.89571 0.60377 0.25197 1.17600
C 	C 	0.97440 0.66440 0.22150 0.04900
C 	C 	0.95000 0.70090 0.19980 -0.11200
H 	H 	0.91770 0.70140 0.19890 0.03900
C 	C 	0.97530 0.73480 0.18030 -0.01100
H 	H 	0.95980 0.75950 0.16620 0.02700
C 	C 	0.89040 0.59290 0.14470 0.10800
C 	C 	0.93680 0.58800 0.13310 -0.16600
H 	H 	0.96000 0.58680 0.15560 0.07300
C 	C 	0.94670 0.58500 0.08670 0.00800
H 	H 	0.97760 0.58290 0.07750 0.01700
C 	C 	0.82620 0.64460 0.31970 0.04000
C 	C 	0.78630 0.61750 0.31390 -0.11300
H 	H 	0.78460 0.59050 0.29440 0.03600
C 	C 	0.74360 0.62770 0.33740 -0.10300
H 	H 	0.71640 0.61180 0.32990 0.05100
C 	C 	0.91920 0.52300 0.31690 0.01000
C 	C 	0.94160 0.54990 0.35290 -0.03700
H 	H 	0.93980 0.58210 0.35440 0.01200
C 	C 	0.96660 0.52310 0.38570 -0.02800
H 	H 	0.98380 0.53850 0.40840 0.02700
N 	N 	0.96060 0.62490 0.24400 -0.30000
N 	N 	0.86420 0.60080 0.19060 -0.28700
N 	N 	0.86880 0.64710 0.29750 -0.31400
N 	N 	0.89780 0.53930 0.27680 -0.29100
C 	C 	0.87990 0.57700 0.15630 -0.07700
C 	C 	0.92560 0.55770 0.14660 0.04500
H 	H 	0.94980 0.55820 0.16800 -0.02800
C 	C 	0.92970 0.53890 0.10380 -0.04600
H 	H 	0.95780 0.52480 0.09660 0.03300
H 	H 	0.91650 0.69750 0.31840 -0.04200
C 	C 	0.76110 0.61230 0.35030 0.07700
H 	H 	0.74300 0.58580 0.35390 -0.00800
C 	C 	0.89850 0.52530 0.32310 0.03100
C 	C 	0.90430 0.55010 0.36470 -0.07100
H 	H 	0.90510 0.58240 0.36520 0.02900
C 	C 	0.90870 0.52380 0.40540 -0.02400
H 	H 	0.91180 0.53930 0.43360 0.02700
Zn	Zn	0.10429 0.39623 0.25197 1.17600
C 	C 	0.02560 0.33560 0.22150 0.03900
C 	C 	0.05000 0.29910 0.19980 -0.10000
H 	H 	0.08230 0.29860 0.19890 0.03500
C 	C 	0.02470 0.26520 0.18030 -0.02900
H 	H 	0.04020 0.24050 0.16620 0.03200
C 	C 	0.10960 0.40710 0.14470 0.10800
C 	C 	0.06320 0.41200 0.13310 -0.16500
H 	H 	0.04000 0.41320 0.15560 0.07200
C 	C 	0.05330 0.41500 0.08670 0.00700
H 	H 	0.02240 0.41710 0.07750 0.01500
C 	C 	0.17380 0.35540 0.31970 0.04000
C 	C 	0.21370 0.38250 0.31390 -0.11300
H 	H 	0.21540 0.40950 0.29440 0.03600
C 	C 	0.25640 0.37230 0.33740 -0.10300
H 	H 	0.28360 0.38820 0.32990 0.05100
C 	C 	0.08080 0.47700 0.31690 0.00900
C 	C 	0.05840 0.45010 0.35290 -0.03800
H 	H 	0.06020 0.41790 0.35440 0.01200
C 	C 	0.03340 0.47690 0.38570 -0.02700
H 	H 	0.01620 0.46150 0.40840 0.02400
N 	N 	0.03940 0.37510 0.24400 -0.29900
N 	N 	0.13580 0.39920 0.19060 -0.28700
N 	N 	0.13120 0.35290 0.29750 -0.31400
N 	N 	0.10220 0.46070 0.27680 -0.29100
C 	C 	0.12010 0.42300 0.15630 -0.07700
C 	C 	0.07440 0.44230 0.14660 0.04400
H 	H 	0.05020 0.44180 0.16800 -0.02800
C 	C 	0.07030 0.46110 0.10380 -0.04400
H 	H 	0.04220 0.47520 0.09660 0.03200
H 	H 	0.08350 0.30250 0.31840 -0.04300
C 	C 	0.23890 0.38770 0.35030 0.07700
H 	H 	0.25700 0.41420 0.35390 -0.00800
C 	C 	0.10150 0.47470 0.32310 0.03200
C 	C 	0.09570 0.44990 0.36470 -0.07000
H 	H 	0.09490 0.41760 0.36520 0.02900
C 	C 	0.09130 0.47620 0.40540 -0.02400
H 	H 	0.08820 0.46070 0.43360 0.02700
Zn	Zn	0.89571 0.39623 0.74803 1.17600
C 	C 	0.97440 0.33560 0.77850 0.04900
C 	C 	0.95000 0.29910 0.80020 -0.11200
H 	H 	0.91770 0.29860 0.80110 0.03900
C 	C 	0.97530 0.26520 0.81970 -0.01100
H 	H 	0.95980 0.24050 0.83380 0.02700
C 	C 	0.89040 0.40710 0.85530 0.10900
C 	C 	0.93680 0.41200 0.86690 -0.16500
H 	H 	0.96000 0.41320 0.84440 0.07300
C 	C 	0.94670 0.41500 0.91330 0.00700
H 	H 	0.97760 0.41710 0.92250 0.01700
C 	C 	0.82620 0.35540 0.68030 0.04000
C 	C 	0.78630 0.38250 0.68610 -0.11300
H 	H 	0.78460 0.40950 0.70560 0.03600
C 	C 	0.74360 0.37230 0.66260 -0.10300
H 	H 	0.71640 0.38820 0.67010 0.05100
C 	C 	0.91920 0.47700 0.68310 0.01000
C 	C 	0.94160 0.45010 0.64710 -0.03700
H 	H 	0.93980 0.41790 0.64560 0.01200
C 	C 	0.96660 0.47690 0.61430 -0.02800
H 	H 	0.98380 0.46150 0.59160 0.02700
N 	N 	0.96060 0.37510 0.75600 -0.30000
N 	N 	0.86420 0.39920 0.80940 -0.28700
N 	N 	0.86880 0.35290 0.70250 -0.31400
N 	N 	0.89780 0.46070 0.72320 -0.29100
C 	C 	0.87990 0.42300 0.84370 -0.07700
C 	C 	0.92560 0.44230 0.85340 0.04300
H 	H 	0.94980 0.44180 0.83200 -0.02800
C 	C 	0.92970 0.46110 0.89620 -0.04400
H 	H 	0.95780 0.47520 0.90340 0.03300
H 	H 	0.91650 0.30250 0.68160 -0.04200
C 	C 	0.76110 0.38770 0.64970 0.07700
H 	H 	0.74300 0.41420 0.64610 -0.00800
C 	C 	0.89850 0.47470 0.67690 0.03100
C 	C 	0.90430 0.44990 0.63530 -0.07100
H 	H 	0.90510 0.41760 0.63480 0.02900
C 	C 	0.90870 0.47620 0.59460 -0.02400
H 	H 	0.91180 0.46070 0.56640 0.02700
Zn	Zn	0.10429 0.60377 0.74803 1.17600
C 	C 	0.02560 0.66440 0.77850 0.03900
C 	C 	0.05000 0.70090 0.80020 -0.10000
H 	H 	0.08230 0.70140 0.80110 0.03500
C 	C 	0.02470 0.73480 0.81970 -0.02900
H 	H 	0.04020 0.75950 0.83380 0.03300
C 	C 	0.10960 0.59290 0.85530 0.10900
C 	C 	0.06320 0.58800 0.86690 -0.16500
H 	H 	0.04000 0.58680 0.84440 0.07200
C 	C 	0.05330 0.58500 0.91330 0.00700
H 	H 	0.02240 0.58290 0.92250 0.01600
C 	C 	0.17380 0.64460 0.68030 0.04000
C 	C 	0.21370 0.61750 0.68610 -0.11300
H 	H 	0.21540 0.59050 0.70560 0.03600
C 	C 	0.25640 0.62770 0.66260 -0.10300
H 	H 	0.28360 0.61180 0.67010 0.05100
C 	C 	0.08080 0.52300 0.68310 0.00900
C 	C 	0.05840 0.54990 0.64710 -0.03800
H 	H 	0.06020 0.58210 0.64560 0.01200
C 	C 	0.03340 0.52310 0.61430 -0.02700
H 	H 	0.01620 0.53850 0.59160 0.02400
N 	N 	0.03940 0.62490 0.75600 -0.29900
N 	N 	0.13580 0.60080 0.80940 -0.28700
N 	N 	0.13120 0.64710 0.70250 -0.31400
N 	N 	0.10220 0.53930 0.72320 -0.29100
C 	C 	0.12010 0.57700 0.84370 -0.07700
C 	C 	0.07440 0.55770 0.85340 0.04200
H 	H 	0.05020 0.55820 0.83200 -0.02800
C 	C 	0.07030 0.53890 0.89620 -0.04300
H 	H 	0.04220 0.52480 0.90340 0.03200
H 	H 	0.08350 0.69750 0.68160 -0.04300
C 	C 	0.23890 0.61230 0.64970 0.07700
H 	H 	0.25700 0.58580 0.64610 -0.00800
C 	C 	0.10150 0.52530 0.67690 0.03200
C 	C 	0.09570 0.55010 0.63530 -0.07000
H 	H 	0.09490 0.58240 0.63480 0.02900
C 	C 	0.09130 0.52380 0.59460 -0.02400
H 	H 	0.08820 0.53930 0.56640 0.02700
Zn	Zn	0.60377 0.74803 0.10429 1.17600
C 	C 	0.66440 0.77850 0.02560 0.03900
C 	C 	0.70090 0.80020 0.05000 -0.10000
H 	H 	0.70140 0.80110 0.08230 0.03500
C 	C 	0.73480 0.81970 0.02470 -0.02900
H 	H 	0.75950 0.83380 0.04020 0.03300
C 	C 	0.59290 0.85530 0.10960 0.10900
C 	C 	0.58800 0.86690 0.06320 -0.16500
H 	H 	0.58680 0.84440 0.04000 0.07200
C 	C 	0.58500 0.91330 0.05330 0.00700
H 	H 	0.58290 0.92250 0.02240 0.01600
C 	C 	0.64460 0.68030 0.17380 0.04000
C 	C 	0.61750 0.68610 0.21370 -0.11300
H 	H 	0.59050 0.70560 0.21540 0.03600
C 	C 	0.62770 0.66260 0.25640 -0.10300
H 	H 	0.61180 0.67010 0.28360 0.05100
C 	C 	0.52300 0.68310 0.08080 0.00900
C 	C 	0.54990 0.64710 0.05840 -0.03800
H 	H 	0.58210 0.64560 0.06020 0.01200
C 	C 	0.52310 0.61430 0.03340 -0.02700
H 	H 	0.53850 0.59160 0.01620 0.02400
N 	N 	0.62490 0.75600 0.03940 -0.29900
N 	N 	0.60080 0.80940 0.13580 -0.28700
N 	N 	0.64710 0.70250 0.13120 -0.31400
N 	N 	0.53930 0.72320 0.10220 -0.29100
C 	C 	0.57700 0.84370 0.12010 -0.07700
C 	C 	0.55770 0.85340 0.07440 0.04200
H 	H 	0.55820 0.83200 0.05020 -0.02800
C 	C 	0.53890 0.89620 0.07030 -0.04300
H 	H 	0.52480 0.90340 0.04220 0.03200
H 	H 	0.69750 0.68160 0.08350 -0.04300
C 	C 	0.61230 0.64970 0.23890 0.07700
H 	H 	0.58580 0.64610 0.25700 -0.00800
C 	C 	0.52530 0.67690 0.10150 0.03200
C 	C 	0.55010 0.63530 0.09570 -0.07000
H 	H 	0.58240 0.63480 0.09490 0.02900
C 	C 	0.52380 0.59460 0.09130 -0.02400
H 	H 	0.53930 0.56640 0.08820 0.02700
Zn	Zn	0.39623 0.74803 0.89571 1.17600
C 	C 	0.33560 0.77850 0.97440 0.04900
C 	C 	0.29910 0.80020 0.95000 -0.11200
H 	H 	0.29860 0.80110 0.91770 0.03900
C 	C 	0.26520 0.81970 0.97530 -0.01100
H 	H 	0.24050 0.83380 0.95980 0.02700
C 	C 	0.40710 0.85530 0.89040 0.10900
C 	C 	0.41200 0.86690 0.93680 -0.16500
H 	H 	0.41320 0.84440 0.96000 0.07300
C 	C 	0.41500 0.91330 0.94670 0.00700
H 	H 	0.41710 0.92250 0.97760 0.01700
C 	C 	0.35540 0.68030 0.82620 0.04000
C 	C 	0.38250 0.68610 0.78630 -0.11300
H 	H 	0.40950 0.70560 0.78460 0.03600
C 	C 	0.37230 0.66260 0.74360 -0.10300
H 	H 	0.38820 0.67010 0.71640 0.05100
C 	C 	0.47700 0.68310 0.91920 0.01000
C 	C 	0.45010 0.64710 0.94160 -0.03700
H 	H 	0.41790 0.64560 0.93980 0.01200
C 	C 	0.47690 0.61430 0.96660 -0.02800
H 	H 	0.46150 0.59160 0.98380 0.02700
N 	N 	0.37510 0.75600 0.96060 -0.30000
N 	N 	0.39920 0.80940 0.86420 -0.28700
N 	N 	0.35290 0.70250 0.86880 -0.31400
N 	N 	0.46070 0.72320 0.89780 -0.29100
C 	C 	0.42300 0.84370 0.87990 -0.07700
C 	C 	0.44230 0.85340 0.92560 0.04300
H 	H 	0.44180 0.83200 0.94980 -0.02800
C 	C 	0.46110 0.89620 0.92970 -0.04400
H 	H 	0.47520 0.90340 0.95780 0.03300
H 	H 	0.30250 0.68160 0.91650 -0.04200
C 	C 	0.38770 0.64970 0.76110 0.07700
H 	H 	0.41420 0.64610 0.74300 -0.00800
C 	C 	0.47470 0.67690 0.89850 0.03100
C 	C 	0.44990 0.63530 0.90430 -0.07100
H 	H 	0.41760 0.63480 0.90510 0.02900
C 	C 	0.47620 0.59460 0.90870 -0.02400
H 	H 	0.46070 0.56640 0.91180 0.02700
Zn	Zn	0.39623 0.25197 0.10429 1.17600
C 	C 	0.33560 0.22150 0.02560 0.03900
C 	C 	0.29910 0.19980 0.05000 -0.10000
H 	H 	0.29860 0.19890 0.08230 0.03500
C 	C 	0.26520 0.18030 0.02470 -0.02900
H 	H 	0.24050 0.16620 0.04020 0.03200
C 	C 	0.40710 0.14470 0.10960 0.10800
C 	C 	0.41200 0.13310 0.06320 -0.16500
H 	H 	0.41320 0.15560 0.04000 0.07200
C 	C 	0.41500 0.08670 0.05330 0.00700
H 	H 	0.41710 0.07750 0.02240 0.01500
C 	C 	0.35540 0.31970 0.17380 0.04000
C 	C 	0.38250 0.31390 0.21370 -0.11300
H 	H 	0.40950 0.29440 0.21540 0.03600
C 	C 	0.37230 0.33740 0.25640 -0.10300
H 	H 	0.38820 0.32990 0.28360 0.05100
C 	C 	0.47700 0.31690 0.08080 0.00900
C 	C 	0.45010 0.35290 0.05840 -0.03800
H 	H 	0.41790 0.35440 0.06020 0.01200
C 	C 	0.47690 0.38570 0.03340 -0.02700
H 	H 	0.46150 0.40840 0.01620 0.02400
N 	N 	0.37510 0.24400 0.03940 -0.29900
N 	N 	0.39920 0.19060 0.13580 -0.28700
N 	N 	0.35290 0.29750 0.13120 -0.31400
N 	N 	0.46070 0.27680 0.10220 -0.29100
C 	C 	0.42300 0.15630 0.12010 -0.07700
C 	C 	0.44230 0.14660 0.07440 0.04400
H 	H 	0.44180 0.16800 0.05020 -0.02800
C 	C 	0.46110 0.10380 0.07030 -0.04400
H 	H 	0.47520 0.09660 0.04220 0.03200
H 	H 	0.30250 0.31840 0.08350 -0.04300
C 	C 	0.38770 0.35030 0.23890 0.07700
H 	H 	0.41420 0.35390 0.25700 -0.00800
C 	C 	0.47470 0.32310 0.10150 0.03200
C 	C 	0.44990 0.36470 0.09570 -0.07000
H 	H 	0.41760 0.36520 0.09490 0.02900
C 	C 	0.47620 0.40540 0.09130 -0.02400
H 	H 	0.46070 0.43360 0.08820 0.02700
Zn	Zn	0.60377 0.25197 0.89571 1.17600
C 	C 	0.66440 0.22150 0.97440 0.04900
C 	C 	0.70090 0.19980 0.95000 -0.11200
H 	H 	0.70140 0.19890 0.91770 0.03900
C 	C 	0.73480 0.18030 0.97530 -0.01100
H 	H 	0.75950 0.16620 0.95980 0.02700
C 	C 	0.59290 0.14470 0.89040 0.10800
C 	C 	0.58800 0.13310 0.93680 -0.16600
H 	H 	0.58680 0.15560 0.96000 0.07300
C 	C 	0.58500 0.08670 0.94670 0.00800
H 	H 	0.58290 0.07750 0.97760 0.01700
C 	C 	0.64460 0.31970 0.82620 0.04000
C 	C 	0.61750 0.31390 0.78630 -0.11300
H 	H 	0.59050 0.29440 0.78460 0.03600
C 	C 	0.62770 0.33740 0.74360 -0.10300
H 	H 	0.61180 0.32990 0.71640 0.05100
C 	C 	0.52300 0.31690 0.91920 0.01000
C 	C 	0.54990 0.35290 0.94160 -0.03700
H 	H 	0.58210 0.35440 0.93980 0.01200
C 	C 	0.52310 0.38570 0.96660 -0.02800
H 	H 	0.53850 0.40840 0.98380 0.02700
N 	N 	0.62490 0.24400 0.96060 -0.30000
N 	N 	0.60080 0.19060 0.86420 -0.28700
N 	N 	0.64710 0.29750 0.86880 -0.31400
N 	N 	0.53930 0.27680 0.89780 -0.29100
C 	C 	0.57700 0.15630 0.87990 -0.07700
C 	C 	0.55770 0.14660 0.92560 0.04500
H 	H 	0.55820 0.16800 0.94980 -0.02800
C 	C 	0.53890 0.10380 0.92970 -0.04600
H 	H 	0.52480 0.09660 0.95780 0.03300
H 	H 	0.69750 0.31840 0.91650 -0.04200
C 	C 	0.61230 0.35030 0.76110 0.07700
H 	H 	0.58580 0.35390 0.74300 -0.00800
C 	C 	0.52530 0.32310 0.89850 0.03100
C 	C 	0.55010 0.36470 0.90430 -0.07100
H 	H 	0.58240 0.36520 0.90510 0.02900
C 	C 	0.52380 0.40540 0.90870 -0.02400
H 	H 	0.53930 0.43360 0.91180 0.02700
Zn	Zn	0.74803 0.89571 0.39623 1.17600
C 	C 	0.77850 0.97440 0.33560 0.04900
C 	C 	0.80020 0.95000 0.29910 -0.11200
H 	H 	0.80110 0.91770 0.29860 0.03900
C 	C 	0.81970 0.97530 0.26520 -0.01100
H 	H 	0.83380 0.95980 0.24050 0.02700
C 	C 	0.85530 0.89040 0.40710 0.10900
C 	C 	0.86690 0.93680 0.41200 -0.16500
H 	H 	0.84440 0.96000 0.41320 0.07300
C 	C 	0.91330 0.94670 0.41500 0.00700
H 	H 	0.92250 0.97760 0.41710 0.01700
C 	C 	0.68030 0.82620 0.35540 0.04000
C 	C 	0.68610 0.78630 0.38250 -0.11300
H 	H 	0.70560 0.78460 0.40950 0.03600
C 	C 	0.66260 0.74360 0.37230 -0.10300
H 	H 	0.67010 0.71640 0.38820 0.05100
C 	C 	0.68310 0.91920 0.47700 0.01000
C 	C 	0.64710 0.94160 0.45010 -0.03700
H 	H 	0.64560 0.93980 0.41790 0.01200
C 	C 	0.61430 0.96660 0.47690 -0.02800
H 	H 	0.59160 0.98380 0.46150 0.02700
N 	N 	0.75600 0.96060 0.37510 -0.30000
N 	N 	0.80940 0.86420 0.39920 -0.28700
N 	N 	0.70250 0.86880 0.35290 -0.31400
N 	N 	0.72320 0.89780 0.46070 -0.29100
C 	C 	0.84370 0.87990 0.42300 -0.07700
C 	C 	0.85340 0.92560 0.44230 0.04300
H 	H 	0.83200 0.94980 0.44180 -0.02800
C 	C 	0.89620 0.92970 0.46110 -0.04400
H 	H 	0.90340 0.95780 0.47520 0.03300
H 	H 	0.68160 0.91650 0.30250 -0.04200
C 	C 	0.64970 0.76110 0.38770 0.07700
H 	H 	0.64610 0.74300 0.41420 -0.00800
C 	C 	0.67690 0.89850 0.47470 0.03100
C 	C 	0.63530 0.90430 0.44990 -0.07100
H 	H 	0.63480 0.90510 0.41760 0.02900
C 	C 	0.59460 0.90870 0.47620 -0.02400
H 	H 	0.56640 0.91180 0.46070 0.02700
Zn	Zn	0.74803 0.10429 0.60377 1.17600
C 	C 	0.77850 0.02560 0.66440 0.03900
C 	C 	0.80020 0.05000 0.70090 -0.10000
H 	H 	0.80110 0.08230 0.70140 0.03500
C 	C 	0.81970 0.02470 0.73480 -0.02900
H 	H 	0.83380 0.04020 0.75950 0.03300
C 	C 	0.85530 0.10960 0.59290 0.10900
C 	C 	0.86690 0.06320 0.58800 -0.16500
H 	H 	0.84440 0.04000 0.58680 0.07200
C 	C 	0.91330 0.05330 0.58500 0.00700
H 	H 	0.92250 0.02240 0.58290 0.01600
C 	C 	0.68030 0.17380 0.64460 0.04000
C 	C 	0.68610 0.21370 0.61750 -0.11300
H 	H 	0.70560 0.21540 0.59050 0.03600
C 	C 	0.66260 0.25640 0.62770 -0.10300
H 	H 	0.67010 0.28360 0.61180 0.05100
C 	C 	0.68310 0.08080 0.52300 0.00900
C 	C 	0.64710 0.05840 0.54990 -0.03800
H 	H 	0.64560 0.06020 0.58210 0.01200
C 	C 	0.61430 0.03340 0.52310 -0.02700
H 	H 	0.59160 0.01620 0.53850 0.02400
N 	N 	0.75600 0.03940 0.62490 -0.29900
N 	N 	0.80940 0.13580 0.60080 -0.28700
N 	N 	0.70250 0.13120 0.64710 -0.31400
N 	N 	0.72320 0.10220 0.53930 -0.29100
C 	C 	0.84370 0.12010 0.57700 -0.07700
C 	C 	0.85340 0.07440 0.55770 0.04200
H 	H 	0.83200 0.05020 0.55820 -0.02800
C 	C 	0.89620 0.07030 0.53890 -0.04300
H 	H 	0.90340 0.04220 0.52480 0.03200
H 	H 	0.68160 0.08350 0.69750 -0.04300
C 	C 	0.64970 0.23890 0.61230 0.07700
H 	H 	0.64610 0.25700 0.58580 -0.00800
C 	C 	0.67690 0.10150 0.52530 0.03200
C 	C 	0.63530 0.09570 0.55010 -0.07000
H 	H 	0.63480 0.09490 0.58240 0.02900
C 	C 	0.59460 0.09130 0.52380 -0.02400
H 	H 	0.56640 0.08820 0.53930 0.02700
Zn	Zn	0.25197 0.89571 0.60377 1.17600
C 	C 	0.22150 0.97440 0.66440 0.04900
C 	C 	0.19980 0.95000 0.70090 -0.11200
H 	H 	0.19890 0.91770 0.70140 0.03900
C 	C 	0.18030 0.97530 0.73480 -0.01100
H 	H 	0.16620 0.95980 0.75950 0.02700
C 	C 	0.14470 0.89040 0.59290 0.10800
C 	C 	0.13310 0.93680 0.58800 -0.16600
H 	H 	0.15560 0.96000 0.58680 0.07300
C 	C 	0.08670 0.94670 0.58500 0.00800
H 	H 	0.07750 0.97760 0.58290 0.01700
C 	C 	0.31970 0.82620 0.64460 0.04000
C 	C 	0.31390 0.78630 0.61750 -0.11300
H 	H 	0.29440 0.78460 0.59050 0.03600
C 	C 	0.33740 0.74360 0.62770 -0.10300
H 	H 	0.32990 0.71640 0.61180 0.05100
C 	C 	0.31690 0.91920 0.52300 0.01000
C 	C 	0.35290 0.94160 0.54990 -0.03700
H 	H 	0.35440 0.93980 0.58210 0.01200
C 	C 	0.38570 0.96660 0.52310 -0.02800
H 	H 	0.40840 0.98380 0.53850 0.02700
N 	N 	0.24400 0.96060 0.62490 -0.30000
N 	N 	0.19060 0.86420 0.60080 -0.28700
N 	N 	0.29750 0.86880 0.64710 -0.31400
N 	N 	0.27680 0.89780 0.53930 -0.29100
C 	C 	0.15630 0.87990 0.57700 -0.07700
C 	C 	0.14660 0.92560 0.55770 0.04500
H 	H 	0.16800 0.94980 0.55820 -0.02800
C 	C 	0.10380 0.92970 0.53890 -0.04600
H 	H 	0.09660 0.95780 0.52480 0.03300
H 	H 	0.31840 0.91650 0.69750 -0.04200
C 	C 	0.35030 0.76110 0.61230 0.07700
H 	H 	0.35390 0.74300 0.58580 -0.00800
C 	C 	0.32310 0.89850 0.52530 0.03100
C 	C 	0.36470 0.90430 0.55010 -0.07100
H 	H 	0.36520 0.90510 0.58240 0.02900
C 	C 	0.40540 0.90870 0.52380 -0.02400
H 	H 	0.43360 0.91180 0.53930 0.02700
Zn	Zn	0.25197 0.10429 0.39623 1.17600
C 	C 	0.22150 0.02560 0.33560 0.03900
C 	C 	0.19980 0.05000 0.29910 -0.10000
H 	H 	0.19890 0.08230 0.29860 0.03500
C 	C 	0.18030 0.02470 0.26520 -0.02900
H 	H 	0.16620 0.04020 0.24050 0.03200
C 	C 	0.14470 0.10960 0.40710 0.10800
C 	C 	0.13310 0.06320 0.41200 -0.16500
H 	H 	0.15560 0.04000 0.41320 0.07200
C 	C 	0.08670 0.05330 0.41500 0.00700
H 	H 	0.07750 0.02240 0.41710 0.01500
C 	C 	0.31970 0.17380 0.35540 0.04000
C 	C 	0.31390 0.21370 0.38250 -0.11300
H 	H 	0.29440 0.21540 0.40950 0.03600
C 	C 	0.33740 0.25640 0.37230 -0.10300
H 	H 	0.32990 0.28360 0.38820 0.05100
C 	C 	0.31690 0.08080 0.47700 0.00900
C 	C 	0.35290 0.05840 0.45010 -0.03800
H 	H 	0.35440 0.06020 0.41790 0.01200
C 	C 	0.38570 0.03340 0.47690 -0.02700
H 	H 	0.40840 0.01620 0.46150 0.02400
N 	N 	0.24400 0.03940 0.37510 -0.29900
N 	N 	0.19060 0.13580 0.39920 -0.28700
N 	N 	0.29750 0.13120 0.35290 -0.31400
N 	N 	0.27680 0.10220 0.46070 -0.29100
C 	C 	0.15630 0.12010 0.42300 -0.07700
C 	C 	0.14660 0.07440 0.44230 0.04400
H 	H 	0.16800 0.05020 0.44180 -0.02800
C 	C 	0.10380 0.07030 0.46110 -0.04400
H 	H 	0.09660 0.04220 0.47520 0.03200
H 	H 	0.31840 0.08350 0.30250 -0.04300
C 	C 	0.35030 0.23890 0.38770 0.07700
H 	H 	0.35390 0.25700 0.41420 -0.00800
C 	C 	0.32310 0.10150 0.47470 0.03200
C 	C 	0.36470 0.09570 0.44990 -0.07000
H 	H 	0.36520 0.09490 0.41760 0.02900
C 	C 	0.40540 0.09130 0.47620 -0.02400
H 	H 	0.43360 0.08820 0.46070 0.02700
C 	C 	0.39500 0.00000 0.25600 0.11000
H 	H 	0.42270 -0.00000 0.27280 -0.05200
C 	C 	0.60500 0.00000 0.25600 0.11000
H 	H 	0.57730 -0.00000 0.27280 -0.05200
C 	C 	0.60500 -0.00000 0.74400 0.11000
H 	H 	0.57730 0.00000 0.72720 -0.05200
C 	C 	0.39500 -0.00000 0.74400 0.11000
H 	H 	0.42270 0.00000 0.72720 -0.05200
C 	C 	0.25600 0.39500 -0.00000 0.11000
H 	H 	0.27280 0.42270 -0.00000 -0.05200
C 	C 	0.25600 0.60500 -0.00000 0.11000
H 	H 	0.27280 0.57730 -0.00000 -0.05200
C 	C 	0.74400 0.60500 -0.00000 0.11000
H 	H 	0.72720 0.57730 -0.00000 -0.05200
C 	C 	0.74400 0.39500 -0.00000 0.11000
H 	H 	0.72720 0.42270 -0.00000 -0.05200
C 	C 	-0.00000 0.25600 0.39500 0.11000
H 	H 	-0.00000 0.27280 0.42270 -0.05200
C 	C 	-0.00000 0.25600 0.60500 0.11000
H 	H 	-0.00000 0.27280 0.57730 -0.05200
C 	C 	-0.00000 0.74400 0.60500 0.11000
H 	H 	-0.00000 0.72720 0.57730 -0.05200
C 	C 	-0.00000 0.74400 0.39500 0.11000
H 	H 	0.00000 0.72720 0.42270 -0.05200
C 	C 	-0.00000 0.39500 0.74400 0.11000
H 	H 	0.00000 0.42270 0.72720 -0.05200
C 	C 	-0.00000 0.60500 0.74400 0.11000
H 	H 	0.00000 0.57730 0.72720 -0.05200
C 	C 	-0.00000 0.60500 0.25600 0.11000
H 	H 	-0.00000 0.57730 0.27280 -0.05200
C 	C 	-0.00000 0.39500 0.25600 0.11000
H 	H 	-0.00000 0.42270 0.27280 -0.05200
C 	C 	0.39500 0.25600 -0.00000 0.11000
H 	H 	0.42270 0.27280 -0.00000 -0.05200
C 	C 	0.60500 0.25600 -0.00000 0.11000
H 	H 	0.57730 0.27280 -0.00000 -0.05200
C 	C 	0.60500 0.74400 -0.00000 0.11000
H 	H 	0.57730 0.72720 -0.00000 -0.05200
C 	C 	0.39500 0.74400 -0.00000 0.11000
H 	H 	0.42270 0.72720 -0.00000 -0.05200
C 	C 	0.25600 -0.00000 0.60500 0.11000
H 	H 	0.27280 0.00000 0.57730 -0.05200
C 	C 	0.25600 0.00000 0.39500 0.11000
H 	H 	0.27280 0.00000 0.42270 -0.05200
C 	C 	0.74400 0.00000 0.39500 0.11000
H 	H 	0.72720 0.00000 0.42270 -0.05200
C 	C 	0.74400 -0.00000 0.60500 0.11000
H 	H 	0.72720 0.00000 0.57730 -0.05200
C 	C 	0.39080 0.17930 0.17930 0.11200
H 	H 	0.37960 0.20070 0.20070 -0.06000
C 	C 	0.60920 0.82070 0.17930 0.11200
H 	H 	0.62040 0.79930 0.20070 -0.06000
C 	C 	0.60920 0.17930 0.82070 0.11200
H 	H 	0.62040 0.20070 0.79930 -0.06000
C 	C 	0.39080 0.82070 0.82070 0.11200
H 	H 	0.37960 0.79930 0.79930 -0.06000
C 	C 	0.17930 0.39080 0.17930 0.11200
H 	H 	0.20070 0.37960 0.20070 -0.06000
C 	C 	0.17930 0.60920 0.82070 0.11200
H 	H 	0.20070 0.62040 0.79930 -0.06000
C 	C 	0.82070 0.60920 0.17930 0.11200
H 	H 	0.79930 0.62040 0.20070 -0.06000
C 	C 	0.82070 0.39080 0.82070 0.11200
H 	H 	0.79930 0.37960 0.79930 -0.06000
C 	C 	0.17930 0.17930 0.39080 0.11200
H 	H 	0.20070 0.20070 0.37960 -0.06000
C 	C 	0.82070 0.17930 0.60920 0.11200
H 	H 	0.79930 0.20070 0.62040 -0.06000
C 	C 	0.17930 0.82070 0.60920 0.11200
H 	H 	0.20070 0.79930 0.62040 -0.06000
C 	C 	0.82070 0.82070 0.39080 0.11200
H 	H 	0.79930 0.79930 0.37960 -0.06000
C 	C 	0.17930 0.39080 0.82070 0.11200
H 	H 	0.20070 0.37960 0.79930 -0.06000
C 	C 	0.82070 0.60920 0.82070 0.11200
H 	H 	0.79930 0.62040 0.79930 -0.06000
C 	C 	0.17930 0.60920 0.17930 0.11200
H 	H 	0.20070 0.62040 0.20070 -0.06000
C 	C 	0.82070 0.39080 0.17930 0.11200
H 	H 	0.79930 0.37960 0.20070 -0.06000
C 	C 	0.39080 0.17930 0.82070 0.11200
H 	H 	0.37960 0.20070 0.79930 -0.06000
C 	C 	0.60920 0.17930 0.17930 0.11200
H 	H 	0.62040 0.20070 0.20070 -0.06000
C 	C 	0.60920 0.82070 0.82070 0.11200
H 	H 	0.62040 0.79930 0.79930 -0.06000
C 	C 	0.39080 0.82070 0.17930 0.11200
H 	H 	0.37960 0.79930 0.20070 -0.06000
C 	C 	0.17930 0.17930 0.60920 0.11200
H 	H 	0.20070 0.20070 0.62040 -0.06000
C 	C 	0.17930 0.82070 0.39080 0.11200
H 	H 	0.20070 0.79930 0.37960 -0.06000
C 	C 	0.82070 0.17930 0.39080 0.11200
H 	H 	0.79930 0.20070 0.37960 -0.06000
C 	C 	0.82070 0.82070 0.60920 0.11200
H 	H 	0.79930 0.79930 0.62040 -0.06000
C 	C 	0.31890 0.11130 0.31890 0.15600
C 	C 	0.68110 0.88870 0.31890 0.15600
C 	C 	0.68110 0.11130 0.68110 0.15600
C 	C 	0.31890 0.88870 0.68110 0.15600
C 	C 	0.31890 0.31890 0.11130 0.15600
C 	C 	0.31890 0.68110 0.88870 0.15600
C 	C 	0.68110 0.68110 0.11130 0.15600
C 	C 	0.68110 0.31890 0.88870 0.15600
C 	C 	0.11130 0.31890 0.31890 0.15600
C 	C 	0.88870 0.31890 0.68110 0.15600
C 	C 	0.11130 0.68110 0.68110 0.15600
C 	C 	0.88870 0.68110 0.31890 0.15600
C 	C 	0.11130 0.31890 0.68110 0.15600
C 	C 	0.88870 0.68110 0.68110 0.15600
C 	C 	0.11130 0.68110 0.31890 0.15600
C 	C 	0.88870 0.31890 0.31890 0.15600
C 	C 	0.31890 0.31890 0.88870 0.15600
C 	C 	0.68110 0.31890 0.11130 0.15600
C 	C 	0.68110 0.68110 0.88870 0.15600
C 	C 	0.31890 0.68110 0.11130 0.15600
C 	C 	0.31890 0.11130 0.68110 0.15600
C 	C 	0.31890 0.88870 0.31890 0.15600
C 	C 	0.68110 0.11130 0.31890 0.15600
C 	C 	0.68110 0.88870 0.68110 0.15600
C 	C 	0.50000 0.11060 0.25330 0.08400
H 	H 	0.50000 0.12150 0.22280 -0.04400
C 	C 	0.50000 0.88940 0.25330 0.08400
H 	H 	0.50000 0.87850 0.22280 -0.04400
C 	C 	0.50000 0.11060 0.74670 0.08400
H 	H 	0.50000 0.12150 0.77720 -0.04400
C 	C 	0.50000 0.88940 0.74670 0.08400
H 	H 	0.50000 0.87850 0.77720 -0.04400
C 	C 	0.25330 0.50000 0.11060 0.08400
H 	H 	0.22280 0.50000 0.12150 -0.04400
C 	C 	0.25330 0.50000 0.88940 0.08400
H 	H 	0.22280 0.50000 0.87850 -0.04400
C 	C 	0.74670 0.50000 0.11060 0.08400
H 	H 	0.77720 0.50000 0.12150 -0.04400
C 	C 	0.74670 0.50000 0.88940 0.08400
H 	H 	0.77720 0.50000 0.87850 -0.04400
C 	C 	0.11060 0.25330 0.50000 0.08400
H 	H 	0.12150 0.22280 0.50000 -0.04400
C 	C 	0.88940 0.25330 0.50000 0.08400
H 	H 	0.87850 0.22280 0.50000 -0.04400
C 	C 	0.11060 0.74670 0.50000 0.08400
H 	H 	0.12150 0.77720 0.50000 -0.04400
C 	C 	0.88940 0.74670 0.50000 0.08400
H 	H 	0.87850 0.77720 0.50000 -0.04400
C 	C 	0.11060 0.50000 0.74670 0.08400
H 	H 	0.12150 0.50000 0.77720 -0.04400
C 	C 	0.88940 0.50000 0.74670 0.08400
H 	H 	0.87850 0.50000 0.77720 -0.04400
C 	C 	0.11060 0.50000 0.25330 0.08400
H 	H 	0.12150 0.50000 0.22280 -0.04400
C 	C 	0.88940 0.50000 0.25330 0.08400
H 	H 	0.87850 0.50000 0.22280 -0.04400
C 	C 	0.50000 0.25330 0.88940 0.08400
H 	H 	0.50000 0.22280 0.87850 -0.04400
C 	C 	0.50000 0.25330 0.11060 0.08400
H 	H 	0.50000 0.22280 0.12150 -0.04400
C 	C 	0.50000 0.74670 0.88940 0.08400
H 	H 	0.50000 0.77720 0.87850 -0.04400
C 	C 	0.50000 0.74670 0.11060 0.08400
H 	H 	0.50000 0.77720 0.12150 -0.04400
C 	C 	0.25330 0.11060 0.50000 0.08400
H 	H 	0.22280 0.12150 0.50000 -0.04400
C 	C 	0.25330 0.88940 0.50000 0.08400
H 	H 	0.22280 0.87850 0.50000 -0.04400
C 	C 	0.74670 0.11060 0.50000 0.08400
H 	H 	0.77720 0.12150 0.50000 -0.04400
C 	C 	0.74670 0.88940 0.50000 0.08400
H 	H 	0.77720 0.87850 0.50000 -0.04400
