data_crystal

_cell_length_a 22.98900
_cell_length_b 22.98900
_cell_length_c 15.76300
_cell_angle_alpha 90.00000
_cell_angle_beta  90.00000
_cell_angle_gamma 120.00000

_symmetry_space_group_name_	'P 1'
_symmetry_space_group_name_H-M	'P 1'

loop_
_symmetry_equiv_pos_as_xyz
  x,y,z

loop_
_atom_site_label
_atom_site_type_symbol
_atom_site_fract_x
_atom_site_fract_y
_atom_site_fract_z
_atom_site_charge
C 	C 	0.69950 0.02850 0.17630 0.08800
H 	H 	0.73820 0.07030 0.17200 -0.04800
C 	C 	0.60880 0.94520 0.22640 0.04200
C 	C 	0.55290 0.90140 0.27220 -0.11100
H 	H 	0.54360 0.91310 0.32480 0.04100
C 	C 	0.51170 0.83960 0.23700 -0.02400
H 	H 	0.47380 0.80870 0.26670 0.02800
C 	C 	0.52510 0.82150 0.15630 -0.02600
H 	H 	0.49600 0.77900 0.13450 0.03200
C 	C 	0.62220 0.92740 0.14630 0.04400
C 	C 	0.58000 0.86540 0.11010 -0.10700
H 	H 	0.58860 0.85410 0.05670 0.04000
C 	C 	0.80820 0.20120 0.33980 0.12000
H 	H 	0.82440 0.18970 0.38710 -0.05500
C 	C 	0.80340 0.25700 0.23610 0.04700
C 	C 	0.81400 0.30390 0.17010 -0.11500
H 	H 	0.85440 0.34400 0.16580 0.03800
C 	C 	0.74430 0.19720 0.24000 0.02400
C 	C 	0.69050 0.17970 0.18020 -0.09200
H 	H 	0.65050 0.13890 0.18320 0.02800
C 	C 	0.76370 0.28860 0.11380 -0.01400
H 	H 	0.77020 0.31940 0.07140 0.02800
C 	C 	0.70170 0.22710 0.11750 -0.04000
H 	H 	0.66830 0.21840 0.07800 0.03700
N 	N 	0.65890 0.01130 0.24330 -0.29400
N 	N 	0.74800 0.16040 0.30920 -0.29500
N 	N 	0.68120 0.98190 0.11520 -0.29600
N 	N 	0.84450 0.25900 0.30060 -0.29700
Zn	Zn	0.67190 0.07047 0.34160 1.17400
C 	C 	0.36617 0.36183 0.50963 0.08500
H 	H 	0.40487 0.40363 0.50533 -0.04700
C 	C 	0.27547 0.27853 0.55973 0.04500
C 	C 	0.21957 0.23473 0.60553 -0.11100
H 	H 	0.21027 0.24643 0.65813 0.04200
C 	C 	0.17837 0.17293 0.57033 -0.02200
H 	H 	0.14047 0.14203 0.60003 0.02900
C 	C 	0.19177 0.15483 0.48963 -0.02600
H 	H 	0.16267 0.11233 0.46783 0.03300
C 	C 	0.28887 0.26073 0.47963 0.04300
C 	C 	0.24667 0.19873 0.44343 -0.10600
H 	H 	0.25527 0.18743 0.39003 0.04000
C 	C 	0.47487 0.53453 0.67313 0.12000
H 	H 	0.49107 0.52303 0.72043 -0.05500
C 	C 	0.47007 0.59033 0.56943 0.04700
C 	C 	0.48067 0.63723 0.50343 -0.11600
H 	H 	0.52107 0.67733 0.49913 0.03800
C 	C 	0.41097 0.53053 0.57333 0.02300
C 	C 	0.35717 0.51303 0.51353 -0.09200
H 	H 	0.31717 0.47223 0.51653 0.02800
C 	C 	0.43037 0.62193 0.44713 -0.01400
H 	H 	0.43687 0.65273 0.40473 0.02700
C 	C 	0.36837 0.56043 0.45083 -0.04100
H 	H 	0.33497 0.55173 0.41133 0.03600
N 	N 	0.32557 0.34463 0.57663 -0.29500
N 	N 	0.41467 0.49373 0.64253 -0.29500
N 	N 	0.34787 0.31523 0.44853 -0.29400
N 	N 	0.51117 0.59233 0.63393 -0.29800
Zn	Zn	0.33857 0.40380 0.67493 1.17400
C 	C 	0.03283 0.69517 0.84297 0.08900
H 	H 	0.07153 0.73697 0.83867 -0.04700
C 	C 	0.94213 0.61187 0.89307 0.04600
C 	C 	0.88623 0.56807 0.93887 -0.11200
H 	H 	0.87693 0.57977 0.99147 0.04200
C 	C 	0.84503 0.50627 0.90367 -0.02100
H 	H 	0.80713 0.47537 0.93337 0.02800
C 	C 	0.85843 0.48817 0.82297 -0.02800
H 	H 	0.82933 0.44567 0.80117 0.03300
C 	C 	0.95553 0.59407 0.81297 0.04100
C 	C 	0.91333 0.53207 0.77677 -0.10400
H 	H 	0.92193 0.52077 0.72337 0.03900
C 	C 	0.14153 0.86787 0.00647 0.10800
H 	H 	0.15773 0.85637 0.05377 -0.05100
C 	C 	0.13673 0.92367 0.90277 0.04600
C 	C 	0.14733 0.97057 0.83677 -0.11000
H 	H 	0.18773 0.01067 0.83247 0.03400
C 	C 	0.07763 0.86387 0.90667 0.02300
C 	C 	0.02383 0.84637 0.84687 -0.08700
H 	H 	0.98383 0.80557 0.84987 0.02400
C 	C 	0.09703 0.95527 0.78047 -0.01600
H 	H 	0.10353 0.98607 0.73807 0.02800
C 	C 	0.03503 0.89377 0.78417 -0.04200
H 	H 	0.00163 0.88507 0.74467 0.03700
N 	N 	0.99223 0.67797 0.90997 -0.29700
N 	N 	0.08133 0.82707 0.97587 -0.29000
N 	N 	0.01453 0.64857 0.78187 -0.29300
N 	N 	0.17783 0.92567 0.96727 -0.29200
Zn	Zn	0.00523 0.73714 0.00827 1.17200
C 	C 	0.97150 0.67100 0.17630 0.08900
H 	H 	0.92970 0.66790 0.17200 -0.04700
C 	C 	0.05480 0.66360 0.22640 0.04300
C 	C 	0.09860 0.65150 0.27220 -0.11000
H 	H 	0.08690 0.63050 0.32480 0.04200
C 	C 	0.16040 0.67210 0.23700 -0.02300
H 	H 	0.19130 0.66510 0.26670 0.02900
C 	C 	0.17850 0.70360 0.15630 -0.02600
H 	H 	0.22100 0.71700 0.13450 0.03200
C 	C 	0.07260 0.69480 0.14630 0.04300
C 	C 	0.13460 0.71460 0.11010 -0.10600
H 	H 	0.14590 0.73450 0.05670 0.03900
C 	C 	0.79880 0.60700 0.33980 0.12000
H 	H 	0.81030 0.63470 0.38710 -0.05500
C 	C 	0.74300 0.54640 0.23610 0.04700
C 	C 	0.69610 0.51010 0.17010 -0.11500
H 	H 	0.65600 0.51040 0.16580 0.03800
C 	C 	0.80280 0.54710 0.24000 0.02400
C 	C 	0.82030 0.51080 0.18020 -0.09200
H 	H 	0.86110 0.51160 0.18320 0.02800
C 	C 	0.71140 0.47510 0.11380 -0.01400
H 	H 	0.68060 0.45080 0.07140 0.02700
C 	C 	0.77290 0.47460 0.11750 -0.04000
H 	H 	0.78160 0.44990 0.07800 0.03700
N 	N 	0.98870 0.64760 0.24330 -0.29400
N 	N 	0.83960 0.58760 0.30920 -0.29500
N 	N 	0.01810 0.69930 0.11520 -0.29600
N 	N 	0.74100 0.58550 0.30060 -0.29700
Zn	Zn	0.92953 0.60143 0.34160 1.17400
C 	C 	0.63817 0.00433 0.50963 0.08500
H 	H 	0.59637 0.00123 0.50533 -0.04700
C 	C 	0.72147 0.99693 0.55973 0.04400
C 	C 	0.76527 0.98483 0.60553 -0.10800
H 	H 	0.75357 0.96383 0.65813 0.04100
C 	C 	0.82707 0.00543 0.57033 -0.02700
H 	H 	0.85797 0.99843 0.60003 0.03100
C 	C 	0.84517 0.03693 0.48963 -0.02300
H 	H 	0.88767 0.05033 0.46783 0.03200
C 	C 	0.73927 0.02813 0.47963 0.04400
C 	C 	0.80127 0.04793 0.44343 -0.10700
H 	H 	0.81257 0.06783 0.39003 0.04100
C 	C 	0.46547 0.94033 0.67313 0.12000
H 	H 	0.47697 0.96803 0.72043 -0.05400
C 	C 	0.40967 0.87973 0.56943 0.04600
C 	C 	0.36277 0.84343 0.50343 -0.11600
H 	H 	0.32267 0.84373 0.49913 0.03800
C 	C 	0.46947 0.88043 0.57333 0.02300
C 	C 	0.48697 0.84413 0.51353 -0.09200
H 	H 	0.52777 0.84493 0.51653 0.02800
C 	C 	0.37807 0.80843 0.44713 -0.01400
H 	H 	0.34727 0.78413 0.40473 0.02700
C 	C 	0.43957 0.80793 0.45083 -0.04100
H 	H 	0.44827 0.78323 0.41133 0.03600
N 	N 	0.65537 0.98093 0.57663 -0.29400
N 	N 	0.50627 0.92093 0.64253 -0.29500
N 	N 	0.68477 0.03263 0.44853 -0.29400
N 	N 	0.40767 0.91883 0.63393 -0.29700
Zn	Zn	0.59620 0.93476 0.67493 1.17400
C 	C 	0.30483 0.33767 0.84297 0.08500
H 	H 	0.26303 0.33457 0.83867 -0.04700
C 	C 	0.38813 0.33027 0.89307 0.04500
C 	C 	0.43193 0.31817 0.93887 -0.11100
H 	H 	0.42023 0.29717 0.99147 0.04200
C 	C 	0.49373 0.33877 0.90367 -0.02200
H 	H 	0.52463 0.33177 0.93337 0.02900
C 	C 	0.51183 0.37027 0.82297 -0.02600
H 	H 	0.55433 0.38367 0.80117 0.03300
C 	C 	0.40593 0.36147 0.81297 0.04300
C 	C 	0.46793 0.38127 0.77677 -0.10600
H 	H 	0.47923 0.40117 0.72337 0.04000
C 	C 	0.13213 0.27367 0.00647 0.11800
H 	H 	0.14363 0.30137 0.05377 -0.05400
C 	C 	0.07633 0.21307 0.90277 0.04400
C 	C 	0.02943 0.17677 0.83677 -0.10700
H 	H 	0.98933 0.17707 0.83247 0.03300
C 	C 	0.13613 0.21377 0.90667 0.02500
C 	C 	0.15363 0.17747 0.84687 -0.09500
H 	H 	0.19443 0.17827 0.84987 0.02900
C 	C 	0.04473 0.14177 0.78047 -0.02000
H 	H 	0.01393 0.11747 0.73807 0.02900
C 	C 	0.10623 0.14127 0.78417 -0.03700
H 	H 	0.11493 0.11657 0.74467 0.03500
N 	N 	0.32203 0.31427 0.90997 -0.29500
N 	N 	0.17293 0.25427 0.97587 -0.29500
N 	N 	0.35143 0.36597 0.78187 -0.29400
N 	N 	0.07433 0.25217 0.96727 -0.29600
Zn	Zn	0.26286 0.26810 0.00827 1.17400
C 	C 	0.32900 0.30050 0.17630 0.08500
H 	H 	0.33210 0.26180 0.17200 -0.04700
C 	C 	0.33640 0.39120 0.22640 0.04500
C 	C 	0.34850 0.44710 0.27220 -0.11100
H 	H 	0.36950 0.45640 0.32480 0.04200
C 	C 	0.32790 0.48830 0.23700 -0.02200
H 	H 	0.33490 0.52620 0.26670 0.02900
C 	C 	0.29640 0.47490 0.15630 -0.02600
H 	H 	0.28300 0.50400 0.13450 0.03300
C 	C 	0.30520 0.37780 0.14630 0.04300
C 	C 	0.28540 0.42000 0.11010 -0.10600
H 	H 	0.26550 0.41140 0.05670 0.04000
C 	C 	0.39300 0.19180 0.33980 0.12000
H 	H 	0.36530 0.17560 0.38710 -0.05500
C 	C 	0.45360 0.19660 0.23610 0.04700
C 	C 	0.48990 0.18600 0.17010 -0.11500
H 	H 	0.48960 0.14560 0.16580 0.03800
C 	C 	0.45290 0.25570 0.24000 0.02300
C 	C 	0.48920 0.30950 0.18020 -0.09200
H 	H 	0.48840 0.34950 0.18320 0.02800
C 	C 	0.52490 0.23630 0.11380 -0.01400
H 	H 	0.54920 0.22980 0.07140 0.02700
C 	C 	0.52540 0.29830 0.11750 -0.04000
H 	H 	0.55010 0.33170 0.07800 0.03700
N 	N 	0.35240 0.34110 0.24330 -0.29500
N 	N 	0.41240 0.25200 0.30920 -0.29500
N 	N 	0.30070 0.31880 0.11520 -0.29400
N 	N 	0.41450 0.15550 0.30060 -0.29800
Zn	Zn	0.39857 0.32810 0.34160 1.17400
C 	C 	0.99567 0.63383 0.50963 0.08500
H 	H 	0.99877 0.59513 0.50533 -0.04700
C 	C 	0.00307 0.72453 0.55973 0.04400
C 	C 	0.01517 0.78043 0.60553 -0.10700
H 	H 	0.03617 0.78973 0.65813 0.04100
C 	C 	0.99457 0.82163 0.57033 -0.02700
H 	H 	0.00157 0.85953 0.60003 0.03100
C 	C 	0.96307 0.80823 0.48963 -0.02300
H 	H 	0.94967 0.83733 0.46783 0.03200
C 	C 	0.97187 0.71113 0.47963 0.04400
C 	C 	0.95207 0.75333 0.44343 -0.10800
H 	H 	0.93217 0.74473 0.39003 0.04100
C 	C 	0.05967 0.52513 0.67313 0.12000
H 	H 	0.03197 0.50893 0.72043 -0.05400
C 	C 	0.12027 0.52993 0.56943 0.04700
C 	C 	0.15657 0.51933 0.50343 -0.11600
H 	H 	0.15627 0.47893 0.49913 0.03800
C 	C 	0.11957 0.58903 0.57333 0.02300
C 	C 	0.15587 0.64283 0.51353 -0.09200
H 	H 	0.15507 0.68283 0.51653 0.02800
C 	C 	0.19157 0.56963 0.44713 -0.01400
H 	H 	0.21587 0.56313 0.40473 0.02700
C 	C 	0.19207 0.63163 0.45083 -0.04100
H 	H 	0.21677 0.66503 0.41133 0.03600
N 	N 	0.01907 0.67443 0.57663 -0.29400
N 	N 	0.07907 0.58533 0.64253 -0.29500
N 	N 	0.96737 0.65213 0.44853 -0.29400
N 	N 	0.08117 0.48883 0.63393 -0.29700
Zn	Zn	0.06524 0.66143 0.67493 1.17400
C 	C 	0.66233 0.96717 0.84297 0.08900
H 	H 	0.66543 0.92847 0.83867 -0.04800
C 	C 	0.66973 0.05787 0.89307 0.04500
C 	C 	0.68183 0.11377 0.93887 -0.11200
H 	H 	0.70283 0.12307 0.99147 0.04200
C 	C 	0.66123 0.15497 0.90367 -0.02100
H 	H 	0.66823 0.19287 0.93337 0.02800
C 	C 	0.62973 0.14157 0.82297 -0.02700
H 	H 	0.61633 0.17067 0.80117 0.03300
C 	C 	0.63853 0.04447 0.81297 0.04100
C 	C 	0.61873 0.08667 0.77677 -0.10400
H 	H 	0.59883 0.07807 0.72337 0.03900
C 	C 	0.72633 0.85847 0.00647 0.11800
H 	H 	0.69863 0.84227 0.05377 -0.05400
C 	C 	0.78693 0.86327 0.90277 0.04800
C 	C 	0.82323 0.85267 0.83677 -0.11800
H 	H 	0.82293 0.81227 0.83247 0.03900
C 	C 	0.78623 0.92237 0.90667 0.02100
C 	C 	0.82253 0.97617 0.84687 -0.08500
H 	H 	0.82173 0.01617 0.84987 0.02300
C 	C 	0.85823 0.90297 0.78047 -0.01100
H 	H 	0.88253 0.89647 0.73807 0.02500
C 	C 	0.85873 0.96497 0.78417 -0.04600
H 	H 	0.88343 0.99837 0.74467 0.03800
N 	N 	0.68573 0.00777 0.90997 -0.29700
N 	N 	0.74573 0.91867 0.97587 -0.29400
N 	N 	0.63403 0.98547 0.78187 -0.29300
N 	N 	0.74783 0.82217 0.96727 -0.29700
Zn	Zn	0.73190 0.99477 0.00827 1.17400
C 	C 	0.30050 0.97150 0.82370 0.08900
H 	H 	0.26180 0.92970 0.82800 -0.04700
C 	C 	0.39120 0.05480 0.77360 0.04300
C 	C 	0.44710 0.09860 0.72780 -0.11000
H 	H 	0.45640 0.08690 0.67520 0.04200
C 	C 	0.48830 0.16040 0.76300 -0.02300
H 	H 	0.52620 0.19130 0.73330 0.02900
C 	C 	0.47490 0.17850 0.84370 -0.02500
H 	H 	0.50400 0.22100 0.86550 0.03200
C 	C 	0.37780 0.07260 0.85370 0.04400
C 	C 	0.42000 0.13460 0.88990 -0.10700
H 	H 	0.41140 0.14590 0.94330 0.04000
C 	C 	0.19180 0.79880 0.66020 0.12000
H 	H 	0.17560 0.81030 0.61290 -0.05500
C 	C 	0.19660 0.74300 0.76390 0.04700
C 	C 	0.18600 0.69610 0.82990 -0.11500
H 	H 	0.14560 0.65600 0.83420 0.03800
C 	C 	0.25570 0.80280 0.76000 0.02400
C 	C 	0.30950 0.82030 0.81980 -0.09200
H 	H 	0.34950 0.86110 0.81680 0.02800
C 	C 	0.23630 0.71140 0.88620 -0.01400
H 	H 	0.22980 0.68060 0.92860 0.02800
C 	C 	0.29830 0.77290 0.88250 -0.04000
H 	H 	0.33170 0.78160 0.92200 0.03700
N 	N 	0.34110 0.98870 0.75670 -0.29400
N 	N 	0.25200 0.83960 0.69080 -0.29500
N 	N 	0.31880 0.01810 0.88480 -0.29600
N 	N 	0.15550 0.74100 0.69940 -0.29700
Zn	Zn	0.32810 0.92953 0.65840 1.17400
C 	C 	0.96717 0.30483 0.15703 0.08900
H 	H 	0.92847 0.26303 0.16133 -0.04700
C 	C 	0.05787 0.38813 0.10693 0.04600
C 	C 	0.11377 0.43193 0.06113 -0.11200
H 	H 	0.12307 0.42023 0.00853 0.04200
C 	C 	0.15497 0.49373 0.09633 -0.02100
H 	H 	0.19287 0.52463 0.06663 0.02800
C 	C 	0.14157 0.51183 0.17703 -0.02800
H 	H 	0.17067 0.55433 0.19883 0.03300
C 	C 	0.04447 0.40593 0.18703 0.04100
C 	C 	0.08667 0.46793 0.22323 -0.10400
H 	H 	0.07807 0.47923 0.27663 0.03900
C 	C 	0.85847 0.13213 0.99353 0.10800
H 	H 	0.84227 0.14363 0.94623 -0.05100
C 	C 	0.86327 0.07633 0.09723 0.04600
C 	C 	0.85267 0.02943 0.16323 -0.11000
H 	H 	0.81227 0.98933 0.16753 0.03400
C 	C 	0.92237 0.13613 0.09333 0.02300
C 	C 	0.97617 0.15363 0.15313 -0.08700
H 	H 	0.01617 0.19443 0.15013 0.02400
C 	C 	0.90297 0.04473 0.21953 -0.01600
H 	H 	0.89647 0.01393 0.26193 0.02800
C 	C 	0.96497 0.10623 0.21583 -0.04200
H 	H 	0.99837 0.11493 0.25533 0.03700
N 	N 	0.00777 0.32203 0.09003 -0.29700
N 	N 	0.91867 0.17293 0.02413 -0.29000
N 	N 	0.98547 0.35143 0.21813 -0.29300
N 	N 	0.82217 0.07433 0.03273 -0.29200
Zn	Zn	0.99477 0.26286 0.99173 1.17200
C 	C 	0.63383 0.63817 0.49037 0.08500
H 	H 	0.59513 0.59637 0.49467 -0.04700
C 	C 	0.72453 0.72147 0.44027 0.04500
C 	C 	0.78043 0.76527 0.39447 -0.11100
H 	H 	0.78973 0.75357 0.34187 0.04200
C 	C 	0.82163 0.82707 0.42967 -0.02200
H 	H 	0.85953 0.85797 0.39997 0.02900
C 	C 	0.80823 0.84517 0.51037 -0.02600
H 	H 	0.83733 0.88767 0.53217 0.03300
C 	C 	0.71113 0.73927 0.52037 0.04300
C 	C 	0.75333 0.80127 0.55657 -0.10600
H 	H 	0.74473 0.81257 0.60997 0.04000
C 	C 	0.52513 0.46547 0.32687 0.12000
H 	H 	0.50893 0.47697 0.27957 -0.05500
C 	C 	0.52993 0.40967 0.43057 0.04700
C 	C 	0.51933 0.36277 0.49657 -0.11600
H 	H 	0.47893 0.32267 0.50087 0.03800
C 	C 	0.58903 0.46947 0.42667 0.02300
C 	C 	0.64283 0.48697 0.48647 -0.09200
H 	H 	0.68283 0.52777 0.48347 0.02800
C 	C 	0.56963 0.37807 0.55287 -0.01400
H 	H 	0.56313 0.34727 0.59527 0.02700
C 	C 	0.63163 0.43957 0.54917 -0.04100
H 	H 	0.66503 0.44827 0.58867 0.03600
N 	N 	0.67443 0.65537 0.42337 -0.29500
N 	N 	0.58533 0.50627 0.35747 -0.29500
N 	N 	0.65213 0.68477 0.55147 -0.29400
N 	N 	0.48883 0.40767 0.36607 -0.29800
Zn	Zn	0.66143 0.59620 0.32507 1.17400
C 	C 	0.02850 0.32900 0.82370 0.08900
H 	H 	0.07030 0.33210 0.82800 -0.04700
C 	C 	0.94520 0.33640 0.77360 0.04300
C 	C 	0.90140 0.34850 0.72780 -0.11000
H 	H 	0.91310 0.36950 0.67520 0.04200
C 	C 	0.83960 0.32790 0.76300 -0.02300
H 	H 	0.80870 0.33490 0.73330 0.02900
C 	C 	0.82150 0.29640 0.84370 -0.02600
H 	H 	0.77900 0.28300 0.86550 0.03200
C 	C 	0.92740 0.30520 0.85370 0.04300
C 	C 	0.86540 0.28540 0.88990 -0.10600
H 	H 	0.85410 0.26550 0.94330 0.03900
C 	C 	0.20120 0.39300 0.66020 0.12000
H 	H 	0.18970 0.36530 0.61290 -0.05500
C 	C 	0.25700 0.45360 0.76390 0.04700
C 	C 	0.30390 0.48990 0.82990 -0.11500
H 	H 	0.34400 0.48960 0.83420 0.03800
C 	C 	0.19720 0.45290 0.76000 0.02400
C 	C 	0.17970 0.48920 0.81980 -0.09200
H 	H 	0.13890 0.48840 0.81680 0.02800
C 	C 	0.28860 0.52490 0.88620 -0.01400
H 	H 	0.31940 0.54920 0.92860 0.02700
C 	C 	0.22710 0.52540 0.88250 -0.04000
H 	H 	0.21840 0.55010 0.92200 0.03700
N 	N 	0.01130 0.35240 0.75670 -0.29400
N 	N 	0.16040 0.41240 0.69080 -0.29500
N 	N 	0.98190 0.30070 0.88480 -0.29600
N 	N 	0.25900 0.41450 0.69940 -0.29700
Zn	Zn	0.07047 0.39857 0.65840 1.17400
C 	C 	0.69517 0.66233 0.15703 0.08500
H 	H 	0.73697 0.66543 0.16133 -0.04700
C 	C 	0.61187 0.66973 0.10693 0.04500
C 	C 	0.56807 0.68183 0.06113 -0.11100
H 	H 	0.57977 0.70283 0.00853 0.04200
C 	C 	0.50627 0.66123 0.09633 -0.02200
H 	H 	0.47537 0.66823 0.06663 0.02900
C 	C 	0.48817 0.62973 0.17703 -0.02600
H 	H 	0.44567 0.61633 0.19883 0.03300
C 	C 	0.59407 0.63853 0.18703 0.04300
C 	C 	0.53207 0.61873 0.22323 -0.10600
H 	H 	0.52077 0.59883 0.27663 0.04000
C 	C 	0.86787 0.72633 0.99353 0.11800
H 	H 	0.85637 0.69863 0.94623 -0.05400
C 	C 	0.92367 0.78693 0.09723 0.04400
C 	C 	0.97057 0.82323 0.16323 -0.10700
H 	H 	0.01067 0.82293 0.16753 0.03300
C 	C 	0.86387 0.78623 0.09333 0.02500
C 	C 	0.84637 0.82253 0.15313 -0.09500
H 	H 	0.80557 0.82173 0.15013 0.02900
C 	C 	0.95527 0.85823 0.21953 -0.02000
H 	H 	0.98607 0.88253 0.26193 0.02900
C 	C 	0.89377 0.85873 0.21583 -0.03700
H 	H 	0.88507 0.88343 0.25533 0.03500
N 	N 	0.67797 0.68573 0.09003 -0.29500
N 	N 	0.82707 0.74573 0.02413 -0.29500
N 	N 	0.64857 0.63403 0.21813 -0.29400
N 	N 	0.92567 0.74783 0.03273 -0.29600
Zn	Zn	0.73714 0.73190 0.99173 1.17400
C 	C 	0.36183 0.99567 0.49037 0.08500
H 	H 	0.40363 0.99877 0.49467 -0.04700
C 	C 	0.27853 0.00307 0.44027 0.04400
C 	C 	0.23473 0.01517 0.39447 -0.10800
H 	H 	0.24643 0.03617 0.34187 0.04100
C 	C 	0.17293 0.99457 0.42967 -0.02700
H 	H 	0.14203 0.00157 0.39997 0.03100
C 	C 	0.15483 0.96307 0.51037 -0.02300
H 	H 	0.11233 0.94967 0.53217 0.03200
C 	C 	0.26073 0.97187 0.52037 0.04400
C 	C 	0.19873 0.95207 0.55657 -0.10700
H 	H 	0.18743 0.93217 0.60997 0.04100
C 	C 	0.53453 0.05967 0.32687 0.12000
H 	H 	0.52303 0.03197 0.27957 -0.05400
C 	C 	0.59033 0.12027 0.43057 0.04600
C 	C 	0.63723 0.15657 0.49657 -0.11600
H 	H 	0.67733 0.15627 0.50087 0.03800
C 	C 	0.53053 0.11957 0.42667 0.02300
C 	C 	0.51303 0.15587 0.48647 -0.09200
H 	H 	0.47223 0.15507 0.48347 0.02800
C 	C 	0.62193 0.19157 0.55287 -0.01400
H 	H 	0.65273 0.21587 0.59527 0.02700
C 	C 	0.56043 0.19207 0.54917 -0.04100
H 	H 	0.55173 0.21677 0.58867 0.03600
N 	N 	0.34463 0.01907 0.42337 -0.29400
N 	N 	0.49373 0.07907 0.35747 -0.29500
N 	N 	0.31523 0.96737 0.55147 -0.29400
N 	N 	0.59233 0.08117 0.36607 -0.29700
Zn	Zn	0.40380 0.06524 0.32507 1.17400
C 	C 	0.67100 0.69950 0.82370 0.08500
H 	H 	0.66790 0.73820 0.82800 -0.04700
C 	C 	0.66360 0.60880 0.77360 0.04500
C 	C 	0.65150 0.55290 0.72780 -0.11100
H 	H 	0.63050 0.54360 0.67520 0.04200
C 	C 	0.67210 0.51170 0.76300 -0.02200
H 	H 	0.66510 0.47380 0.73330 0.02900
C 	C 	0.70360 0.52510 0.84370 -0.02600
H 	H 	0.71700 0.49600 0.86550 0.03300
C 	C 	0.69480 0.62220 0.85370 0.04300
C 	C 	0.71460 0.58000 0.88990 -0.10600
H 	H 	0.73450 0.58860 0.94330 0.04000
C 	C 	0.60700 0.80820 0.66020 0.12000
H 	H 	0.63470 0.82440 0.61290 -0.05500
C 	C 	0.54640 0.80340 0.76390 0.04700
C 	C 	0.51010 0.81400 0.82990 -0.11500
H 	H 	0.51040 0.85440 0.83420 0.03800
C 	C 	0.54710 0.74430 0.76000 0.02300
C 	C 	0.51080 0.69050 0.81980 -0.09200
H 	H 	0.51160 0.65050 0.81680 0.02800
C 	C 	0.47510 0.76370 0.88620 -0.01400
H 	H 	0.45080 0.77020 0.92860 0.02700
C 	C 	0.47460 0.70170 0.88250 -0.04000
H 	H 	0.44990 0.66830 0.92200 0.03700
N 	N 	0.64760 0.65890 0.75670 -0.29500
N 	N 	0.58760 0.74800 0.69080 -0.29500
N 	N 	0.69930 0.68120 0.88480 -0.29400
N 	N 	0.58550 0.84450 0.69940 -0.29800
Zn	Zn	0.60143 0.67190 0.65840 1.17400
C 	C 	0.33767 0.03283 0.15703 0.08900
H 	H 	0.33457 0.07153 0.16133 -0.04800
C 	C 	0.33027 0.94213 0.10693 0.04500
C 	C 	0.31817 0.88623 0.06113 -0.11200
H 	H 	0.29717 0.87693 0.00853 0.04200
C 	C 	0.33877 0.84503 0.09633 -0.02100
H 	H 	0.33177 0.80713 0.06663 0.02800
C 	C 	0.37027 0.85843 0.17703 -0.02700
H 	H 	0.38367 0.82933 0.19883 0.03300
C 	C 	0.36147 0.95553 0.18703 0.04100
C 	C 	0.38127 0.91333 0.22323 -0.10400
H 	H 	0.40117 0.92193 0.27663 0.03900
C 	C 	0.27367 0.14153 0.99353 0.11800
H 	H 	0.30137 0.15773 0.94623 -0.05400
C 	C 	0.21307 0.13673 0.09723 0.04800
C 	C 	0.17677 0.14733 0.16323 -0.11800
H 	H 	0.17707 0.18773 0.16753 0.03900
C 	C 	0.21377 0.07763 0.09333 0.02100
C 	C 	0.17747 0.02383 0.15313 -0.08500
H 	H 	0.17827 0.98383 0.15013 0.02300
C 	C 	0.14177 0.09703 0.21953 -0.01100
H 	H 	0.11747 0.10353 0.26193 0.02500
C 	C 	0.14127 0.03503 0.21583 -0.04600
H 	H 	0.11657 0.00163 0.25533 0.03800
N 	N 	0.31427 0.99223 0.09003 -0.29700
N 	N 	0.25427 0.08133 0.02413 -0.29400
N 	N 	0.36597 0.01453 0.21813 -0.29300
N 	N 	0.25217 0.17783 0.03273 -0.29700
Zn	Zn	0.26810 0.00523 0.99173 1.17400
C 	C 	0.00433 0.36617 0.49037 0.08500
H 	H 	0.00123 0.40487 0.49467 -0.04700
C 	C 	0.99693 0.27547 0.44027 0.04400
C 	C 	0.98483 0.21957 0.39447 -0.10700
H 	H 	0.96383 0.21027 0.34187 0.04100
C 	C 	0.00543 0.17837 0.42967 -0.02700
H 	H 	0.99843 0.14047 0.39997 0.03100
C 	C 	0.03693 0.19177 0.51037 -0.02300
H 	H 	0.05033 0.16267 0.53217 0.03200
C 	C 	0.02813 0.28887 0.52037 0.04400
C 	C 	0.04793 0.24667 0.55657 -0.10800
H 	H 	0.06783 0.25527 0.60997 0.04100
C 	C 	0.94033 0.47487 0.32687 0.12000
H 	H 	0.96803 0.49107 0.27957 -0.05400
C 	C 	0.87973 0.47007 0.43057 0.04700
C 	C 	0.84343 0.48067 0.49657 -0.11600
H 	H 	0.84373 0.52107 0.50087 0.03800
C 	C 	0.88043 0.41097 0.42667 0.02300
C 	C 	0.84413 0.35717 0.48647 -0.09200
H 	H 	0.84493 0.31717 0.48347 0.02800
C 	C 	0.80843 0.43037 0.55287 -0.01400
H 	H 	0.78413 0.43687 0.59527 0.02700
C 	C 	0.80793 0.36837 0.54917 -0.04100
H 	H 	0.78323 0.33497 0.58867 0.03600
N 	N 	0.98093 0.32557 0.42337 -0.29400
N 	N 	0.92093 0.41467 0.35747 -0.29500
N 	N 	0.03263 0.34787 0.55147 -0.29400
N 	N 	0.91883 0.51117 0.36607 -0.29700
Zn	Zn	0.93476 0.33857 0.32507 1.17400
