data_crystal

_cell_length_a 16.99100
_cell_length_b 16.99100
_cell_length_c 16.99100
_cell_angle_alpha 90.00000
_cell_angle_beta  90.00000
_cell_angle_gamma 90.00000

_symmetry_space_group_name_	'P 1'
_symmetry_space_group_name_H-M	'P 1'

loop_
_symmetry_equiv_pos_as_xyz
  x,y,z

loop_
_atom_site_label
_atom_site_type_symbol
_atom_site_fract_x
_atom_site_fract_y
_atom_site_fract_z
_atom_site_charge
C 	C 	0.36851 0.89914 0.68750 -0.03900
H 	H 	0.37770 0.85890 0.72340 -0.02800
N 	N 	0.40973 0.96832 0.68278 -0.27500
H 	H 	0.45870 0.07980 0.57430 0.14400
H 	H 	0.40580 0.12280 0.63640 0.16500
H 	H 	0.37240 0.10390 0.55250 0.13900
C 	C 	0.86851 0.39914 0.18750 -0.03500
H 	H 	0.87770 0.35890 0.22340 -0.02100
N 	N 	0.90973 0.46832 0.18278 -0.35500
H 	H 	0.95870 0.57980 0.07430 0.25700
H 	H 	0.90580 0.62280 0.13640 0.25500
H 	H 	0.87240 0.60390 0.05250 0.22200
C 	C 	0.63149 0.10086 0.68750 -0.04500
H 	H 	0.62230 0.14110 0.72340 -0.02300
N 	N 	0.59027 0.03168 0.68278 -0.46400
H 	H 	0.54130 0.92020 0.57430 0.33000
H 	H 	0.59420 0.87720 0.63640 0.33400
H 	H 	0.62760 0.89610 0.55250 0.31700
C 	C 	0.13149 0.60086 0.18750 -0.04900
H 	H 	0.12230 0.64110 0.22340 -0.03100
N 	N 	0.09027 0.53168 0.18278 -0.35200
H 	H 	0.04130 0.42020 0.07430 0.10300
H 	H 	0.09420 0.37720 0.13640 0.14200
H 	H 	0.12760 0.39610 0.05250 0.10600
C 	C 	0.63149 0.89914 0.31250 -0.03800
H 	H 	0.62230 0.85890 0.27660 -0.02400
N 	N 	0.59027 0.96832 0.31722 -0.27400
H 	H 	0.54130 0.07980 0.42570 0.14300
H 	H 	0.59420 0.12280 0.36360 0.16400
H 	H 	0.62760 0.10390 0.44750 0.13700
C 	C 	0.13149 0.39914 0.81250 -0.05000
H 	H 	0.12230 0.35890 0.77660 -0.02900
N 	N 	0.09027 0.46832 0.81722 -0.38700
H 	H 	0.04130 0.57980 0.92570 0.22800
H 	H 	0.09420 0.62280 0.86360 0.25600
H 	H 	0.12760 0.60390 0.94750 0.24600
C 	C 	0.36851 0.10086 0.31250 -0.04500
H 	H 	0.37770 0.14110 0.27660 -0.01800
N 	N 	0.40973 0.03168 0.31722 -0.46300
H 	H 	0.45870 0.92020 0.42570 0.33400
H 	H 	0.40580 0.87720 0.36360 0.33800
H 	H 	0.37240 0.89610 0.44750 0.32100
C 	C 	0.86851 0.60086 0.81250 -0.03400
H 	H 	0.87770 0.64110 0.77660 -0.01300
N 	N 	0.90973 0.53168 0.81722 -0.38400
H 	H 	0.95870 0.42020 0.92570 0.36500
H 	H 	0.90580 0.37720 0.86360 0.34900
H 	H 	0.87240 0.39610 0.94750 0.34300
C 	C 	0.68750 0.36851 0.89914 -0.04000
H 	H 	0.72340 0.37770 0.85890 -0.02900
N 	N 	0.68278 0.40973 0.96832 -0.27600
H 	H 	0.57430 0.45870 0.07980 0.14300
H 	H 	0.63640 0.40580 0.12280 0.16400
H 	H 	0.55250 0.37240 0.10390 0.13800
C 	C 	0.18750 0.86851 0.39914 -0.03500
H 	H 	0.22340 0.87770 0.35890 -0.02100
N 	N 	0.18278 0.90973 0.46832 -0.35500
H 	H 	0.07430 0.95870 0.57980 0.25700
H 	H 	0.13640 0.90580 0.62280 0.25500
H 	H 	0.05250 0.87240 0.60390 0.22200
C 	C 	0.68750 0.63149 0.10086 -0.04500
H 	H 	0.72340 0.62230 0.14110 -0.02300
N 	N 	0.68278 0.59027 0.03168 -0.46400
H 	H 	0.57430 0.54130 0.92020 0.33000
H 	H 	0.63640 0.59420 0.87720 0.33400
H 	H 	0.55250 0.62760 0.89610 0.31700
C 	C 	0.18750 0.13149 0.60086 -0.04900
H 	H 	0.22340 0.12230 0.64110 -0.03100
N 	N 	0.18278 0.09027 0.53168 -0.35200
H 	H 	0.07430 0.04130 0.42020 0.10300
H 	H 	0.13640 0.09420 0.37720 0.14200
H 	H 	0.05250 0.12760 0.39610 0.10600
C 	C 	0.31250 0.63149 0.89914 -0.03800
H 	H 	0.27660 0.62230 0.85890 -0.02400
N 	N 	0.31722 0.59027 0.96832 -0.27400
H 	H 	0.42570 0.54130 0.07980 0.14300
H 	H 	0.36360 0.59420 0.12280 0.16400
H 	H 	0.44750 0.62760 0.10390 0.13700
C 	C 	0.81250 0.13149 0.39914 -0.05000
H 	H 	0.77660 0.12230 0.35890 -0.02900
N 	N 	0.81722 0.09027 0.46832 -0.38700
H 	H 	0.92570 0.04130 0.57980 0.22800
H 	H 	0.86360 0.09420 0.62280 0.25600
H 	H 	0.94750 0.12760 0.60390 0.24600
C 	C 	0.31250 0.36851 0.10086 -0.04500
H 	H 	0.27660 0.37770 0.14110 -0.01800
N 	N 	0.31722 0.40973 0.03168 -0.46300
H 	H 	0.42570 0.45870 0.92020 0.33400
H 	H 	0.36360 0.40580 0.87720 0.33800
H 	H 	0.44750 0.37240 0.89610 0.32100
C 	C 	0.81250 0.86851 0.60086 -0.03400
H 	H 	0.77660 0.87770 0.64110 -0.01300
N 	N 	0.81722 0.90973 0.53168 -0.38400
H 	H 	0.92570 0.95870 0.42020 0.36500
H 	H 	0.86360 0.90580 0.37720 0.34900
H 	H 	0.94750 0.87240 0.39610 0.34300
C 	C 	0.89914 0.68750 0.36851 -0.04000
H 	H 	0.85890 0.72340 0.37770 -0.02900
N 	N 	0.96832 0.68278 0.40973 -0.27600
H 	H 	0.07980 0.57430 0.45870 0.14300
H 	H 	0.12280 0.63640 0.40580 0.16400
H 	H 	0.10390 0.55250 0.37240 0.13800
C 	C 	0.39914 0.18750 0.86851 -0.03500
H 	H 	0.35890 0.22340 0.87770 -0.02100
N 	N 	0.46832 0.18278 0.90973 -0.35500
H 	H 	0.57980 0.07430 0.95870 0.25700
H 	H 	0.62280 0.13640 0.90580 0.25500
H 	H 	0.60390 0.05250 0.87240 0.22200
C 	C 	0.10086 0.68750 0.63149 -0.04500
H 	H 	0.14110 0.72340 0.62230 -0.02300
N 	N 	0.03168 0.68278 0.59027 -0.46400
H 	H 	0.92020 0.57430 0.54130 0.33000
H 	H 	0.87720 0.63640 0.59420 0.33400
H 	H 	0.89610 0.55250 0.62760 0.31700
C 	C 	0.60086 0.18750 0.13149 -0.04900
H 	H 	0.64110 0.22340 0.12230 -0.03100
N 	N 	0.53168 0.18278 0.09027 -0.35200
H 	H 	0.42020 0.07430 0.04130 0.10300
H 	H 	0.37720 0.13640 0.09420 0.14200
H 	H 	0.39610 0.05250 0.12760 0.10600
C 	C 	0.89914 0.31250 0.63149 -0.03800
H 	H 	0.85890 0.27660 0.62230 -0.02400
N 	N 	0.96832 0.31722 0.59027 -0.27400
H 	H 	0.07980 0.42570 0.54130 0.14300
H 	H 	0.12280 0.36360 0.59420 0.16400
H 	H 	0.10390 0.44750 0.62760 0.13700
C 	C 	0.39914 0.81250 0.13149 -0.05000
H 	H 	0.35890 0.77660 0.12230 -0.02900
N 	N 	0.46832 0.81722 0.09027 -0.38700
H 	H 	0.57980 0.92570 0.04130 0.22800
H 	H 	0.62280 0.86360 0.09420 0.25600
H 	H 	0.60390 0.94750 0.12760 0.24600
C 	C 	0.10086 0.31250 0.36851 -0.04500
H 	H 	0.14110 0.27660 0.37770 -0.01800
N 	N 	0.03168 0.31722 0.40973 -0.46300
H 	H 	0.92020 0.42570 0.45870 0.33400
H 	H 	0.87720 0.36360 0.40580 0.33800
H 	H 	0.89610 0.44750 0.37240 0.32100
C 	C 	0.60086 0.81250 0.86851 -0.03400
H 	H 	0.64110 0.77660 0.87770 -0.01300
N 	N 	0.53168 0.81722 0.90973 -0.38400
H 	H 	0.42020 0.92570 0.95870 0.36500
H 	H 	0.37720 0.86360 0.90580 0.34900
H 	H 	0.39610 0.94750 0.87240 0.34300
C 	C 	0.89914 0.36851 0.68750 -0.04000
H 	H 	0.85890 0.37770 0.72340 -0.02900
N 	N 	0.96832 0.40973 0.68278 -0.27600
H 	H 	0.07980 0.45870 0.57430 0.14300
H 	H 	0.12280 0.40580 0.63640 0.16400
H 	H 	0.10390 0.37240 0.55250 0.13800
C 	C 	0.39914 0.86851 0.18750 -0.03500
H 	H 	0.35890 0.87770 0.22340 -0.02100
N 	N 	0.46832 0.90973 0.18278 -0.35500
H 	H 	0.57980 0.95870 0.07430 0.25700
H 	H 	0.62280 0.90580 0.13640 0.25500
H 	H 	0.60390 0.87240 0.05250 0.22200
C 	C 	0.10086 0.63149 0.68750 -0.04500
H 	H 	0.14110 0.62230 0.72340 -0.02300
N 	N 	0.03168 0.59027 0.68278 -0.46400
H 	H 	0.92020 0.54130 0.57430 0.33000
H 	H 	0.87720 0.59420 0.63640 0.33400
H 	H 	0.89610 0.62760 0.55250 0.31700
C 	C 	0.60086 0.13149 0.18750 -0.04900
H 	H 	0.64110 0.12230 0.22340 -0.03100
N 	N 	0.53168 0.09027 0.18278 -0.35200
H 	H 	0.42020 0.04130 0.07430 0.10300
H 	H 	0.37720 0.09420 0.13640 0.14200
H 	H 	0.39610 0.12760 0.05250 0.10600
C 	C 	0.89914 0.63149 0.31250 -0.03800
H 	H 	0.85890 0.62230 0.27660 -0.02400
N 	N 	0.96832 0.59027 0.31722 -0.27400
H 	H 	0.07980 0.54130 0.42570 0.14300
H 	H 	0.12280 0.59420 0.36360 0.16400
H 	H 	0.10390 0.62760 0.44750 0.13700
C 	C 	0.39914 0.13149 0.81250 -0.05000
H 	H 	0.35890 0.12230 0.77660 -0.02900
N 	N 	0.46832 0.09027 0.81722 -0.38700
H 	H 	0.57980 0.04130 0.92570 0.22800
H 	H 	0.62280 0.09420 0.86360 0.25600
H 	H 	0.60390 0.12760 0.94750 0.24600
C 	C 	0.10086 0.36851 0.31250 -0.04500
H 	H 	0.14110 0.37770 0.27660 -0.01800
N 	N 	0.03168 0.40973 0.31722 -0.46300
H 	H 	0.92020 0.45870 0.42570 0.33400
H 	H 	0.87720 0.40580 0.36360 0.33800
H 	H 	0.89610 0.37240 0.44750 0.32100
C 	C 	0.60086 0.86851 0.81250 -0.03400
H 	H 	0.64110 0.87770 0.77660 -0.01300
N 	N 	0.53168 0.90973 0.81722 -0.38400
H 	H 	0.42020 0.95870 0.92570 0.36500
H 	H 	0.37720 0.90580 0.86360 0.34900
H 	H 	0.39610 0.87240 0.94750 0.34300
C 	C 	0.36851 0.68750 0.89914 -0.04000
H 	H 	0.37770 0.72340 0.85890 -0.02900
N 	N 	0.40973 0.68278 0.96832 -0.27600
H 	H 	0.45870 0.57430 0.07980 0.14300
H 	H 	0.40580 0.63640 0.12280 0.16400
H 	H 	0.37240 0.55250 0.10390 0.13800
C 	C 	0.86851 0.18750 0.39914 -0.03500
H 	H 	0.87770 0.22340 0.35890 -0.02100
N 	N 	0.90973 0.18278 0.46832 -0.35500
H 	H 	0.95870 0.07430 0.57980 0.25700
H 	H 	0.90580 0.13640 0.62280 0.25500
H 	H 	0.87240 0.05250 0.60390 0.22200
C 	C 	0.63149 0.68750 0.10086 -0.04500
H 	H 	0.62230 0.72340 0.14110 -0.02300
N 	N 	0.59027 0.68278 0.03168 -0.46400
H 	H 	0.54130 0.57430 0.92020 0.33000
H 	H 	0.59420 0.63640 0.87720 0.33400
H 	H 	0.62760 0.55250 0.89610 0.31700
C 	C 	0.13149 0.18750 0.60086 -0.04900
H 	H 	0.12230 0.22340 0.64110 -0.03100
N 	N 	0.09027 0.18278 0.53168 -0.35200
H 	H 	0.04130 0.07430 0.42020 0.10300
H 	H 	0.09420 0.13640 0.37720 0.14200
H 	H 	0.12760 0.05250 0.39610 0.10600
C 	C 	0.63149 0.31250 0.89914 -0.03800
H 	H 	0.62230 0.27660 0.85890 -0.02400
N 	N 	0.59027 0.31722 0.96832 -0.27400
H 	H 	0.54130 0.42570 0.07980 0.14300
H 	H 	0.59420 0.36360 0.12280 0.16400
H 	H 	0.62760 0.44750 0.10390 0.13700
C 	C 	0.13149 0.81250 0.39914 -0.05000
H 	H 	0.12230 0.77660 0.35890 -0.02900
N 	N 	0.09027 0.81722 0.46832 -0.38700
H 	H 	0.04130 0.92570 0.57980 0.22800
H 	H 	0.09420 0.86360 0.62280 0.25600
H 	H 	0.12760 0.94750 0.60390 0.24600
C 	C 	0.36851 0.31250 0.10086 -0.04500
H 	H 	0.37770 0.27660 0.14110 -0.01800
N 	N 	0.40973 0.31722 0.03168 -0.46300
H 	H 	0.45870 0.42570 0.92020 0.33400
H 	H 	0.40580 0.36360 0.87720 0.33800
H 	H 	0.37240 0.44750 0.89610 0.32100
C 	C 	0.86851 0.81250 0.60086 -0.03400
H 	H 	0.87770 0.77660 0.64110 -0.01300
N 	N 	0.90973 0.81722 0.53168 -0.38400
H 	H 	0.95870 0.92570 0.42020 0.36500
H 	H 	0.90580 0.86360 0.37720 0.34900
H 	H 	0.87240 0.94750 0.39610 0.34300
C 	C 	0.68750 0.89914 0.36851 -0.04000
H 	H 	0.72340 0.85890 0.37770 -0.02900
N 	N 	0.68278 0.96832 0.40973 -0.27600
H 	H 	0.57430 0.07980 0.45870 0.14300
H 	H 	0.63640 0.12280 0.40580 0.16400
H 	H 	0.55250 0.10390 0.37240 0.13800
C 	C 	0.18750 0.39914 0.86851 -0.03500
H 	H 	0.22340 0.35890 0.87770 -0.02100
N 	N 	0.18278 0.46832 0.90973 -0.35500
H 	H 	0.07430 0.57980 0.95870 0.25700
H 	H 	0.13640 0.62280 0.90580 0.25500
H 	H 	0.05250 0.60390 0.87240 0.22200
C 	C 	0.68750 0.10086 0.63149 -0.04500
H 	H 	0.72340 0.14110 0.62230 -0.02300
N 	N 	0.68278 0.03168 0.59027 -0.46400
H 	H 	0.57430 0.92020 0.54130 0.33000
H 	H 	0.63640 0.87720 0.59420 0.33400
H 	H 	0.55250 0.89610 0.62760 0.31700
C 	C 	0.18750 0.60086 0.13149 -0.04900
H 	H 	0.22340 0.64110 0.12230 -0.03100
N 	N 	0.18278 0.53168 0.09027 -0.35200
H 	H 	0.07430 0.42020 0.04130 0.10300
H 	H 	0.13640 0.37720 0.09420 0.14200
H 	H 	0.05250 0.39610 0.12760 0.10600
C 	C 	0.31250 0.89914 0.63149 -0.03800
H 	H 	0.27660 0.85890 0.62230 -0.02400
N 	N 	0.31722 0.96832 0.59027 -0.27400
H 	H 	0.42570 0.07980 0.54130 0.14300
H 	H 	0.36360 0.12280 0.59420 0.16400
H 	H 	0.44750 0.10390 0.62760 0.13700
C 	C 	0.81250 0.39914 0.13149 -0.05000
H 	H 	0.77660 0.35890 0.12230 -0.02900
N 	N 	0.81722 0.46832 0.09027 -0.38700
H 	H 	0.92570 0.57980 0.04130 0.22800
H 	H 	0.86360 0.62280 0.09420 0.25600
H 	H 	0.94750 0.60390 0.12760 0.24600
C 	C 	0.31250 0.10086 0.36851 -0.04500
H 	H 	0.27660 0.14110 0.37770 -0.01800
N 	N 	0.31722 0.03168 0.40973 -0.46300
H 	H 	0.42570 0.92020 0.45870 0.33400
H 	H 	0.36360 0.87720 0.40580 0.33800
H 	H 	0.44750 0.89610 0.37240 0.32100
C 	C 	0.81250 0.60086 0.86851 -0.03400
H 	H 	0.77660 0.64110 0.87770 -0.01300
N 	N 	0.81722 0.53168 0.90973 -0.38400
H 	H 	0.92570 0.42020 0.95870 0.36500
H 	H 	0.86360 0.37720 0.90580 0.34900
H 	H 	0.94750 0.39610 0.87240 0.34300
C 	C 	0.37705 0.00790 0.62295 0.14200
C 	C 	0.40610 0.08550 0.59390 -1.03300
C 	C 	0.87705 0.50790 0.12295 0.43300
C 	C 	0.90610 0.58550 0.09390 -1.58300
C 	C 	0.62295 0.99210 0.62295 0.71000
C 	C 	0.59390 0.91450 0.59390 -2.07200
C 	C 	0.12295 0.49210 0.12295 0.25200
C 	C 	0.09390 0.41450 0.09390 -0.94800
C 	C 	0.62295 0.00790 0.37705 0.14200
C 	C 	0.59390 0.08550 0.40610 -1.03300
C 	C 	0.12295 0.50790 0.87705 0.43300
C 	C 	0.09390 0.58550 0.90610 -1.58300
C 	C 	0.37705 0.99210 0.37705 0.71400
C 	C 	0.40610 0.91450 0.40610 -2.09200
C 	C 	0.87705 0.49210 0.87705 0.59200
C 	C 	0.90610 0.41450 0.90610 -2.12600
C 	C 	0.62295 0.37705 0.00790 0.14200
C 	C 	0.59390 0.40610 0.08550 -1.03300
C 	C 	0.12295 0.87705 0.50790 0.43300
C 	C 	0.09390 0.90610 0.58550 -1.58300
C 	C 	0.62295 0.62295 0.99210 0.71000
C 	C 	0.59390 0.59390 0.91450 -2.07200
C 	C 	0.12295 0.12295 0.49210 0.25200
C 	C 	0.09390 0.09390 0.41450 -0.94800
C 	C 	0.37705 0.62295 0.00790 0.14200
C 	C 	0.40610 0.59390 0.08550 -1.03300
C 	C 	0.87705 0.12295 0.50790 0.43300
C 	C 	0.90610 0.09390 0.58550 -1.58300
C 	C 	0.37705 0.37705 0.99210 0.71400
C 	C 	0.40610 0.40610 0.91450 -2.09200
C 	C 	0.87705 0.87705 0.49210 0.59200
C 	C 	0.90610 0.90610 0.41450 -2.12600
C 	C 	0.00790 0.62295 0.37705 0.14200
C 	C 	0.08550 0.59390 0.40610 -1.03300
C 	C 	0.50790 0.12295 0.87705 0.43300
C 	C 	0.58550 0.09390 0.90610 -1.58300
C 	C 	0.99210 0.62295 0.62295 0.71000
C 	C 	0.91450 0.59390 0.59390 -2.07200
C 	C 	0.49210 0.12295 0.12295 0.25200
C 	C 	0.41450 0.09390 0.09390 -0.94800
C 	C 	0.00790 0.37705 0.62295 0.14200
C 	C 	0.08550 0.40610 0.59390 -1.03300
C 	C 	0.50790 0.87705 0.12295 0.43300
C 	C 	0.58550 0.90610 0.09390 -1.58300
C 	C 	0.99210 0.37705 0.37705 0.71400
C 	C 	0.91450 0.40610 0.40610 -2.09200
C 	C 	0.49210 0.87705 0.87705 0.59200
C 	C 	0.41450 0.90610 0.90610 -2.12600
Zn	Zn	0.50000 -0.00000 0.75000 1.13400
Zn	Zn	0.50000 -0.00000 0.25000 1.13500
Zn	Zn	0.75000 0.50000 -0.00000 1.13400
Zn	Zn	0.25000 0.50000 -0.00000 1.13500
Zn	Zn	-0.00000 0.75000 0.50000 1.13400
Zn	Zn	-0.00000 0.25000 0.50000 1.13500
Zn	Zn	-0.00000 0.50000 0.75000 1.13400
Zn	Zn	-0.00000 0.50000 0.25000 1.13500
Zn	Zn	0.50000 0.75000 -0.00000 1.13400
Zn	Zn	0.50000 0.25000 -0.00000 1.13500
Zn	Zn	0.75000 -0.00000 0.50000 1.13400
Zn	Zn	0.25000 -0.00000 0.50000 1.13500
