data_crystal

_cell_length_a 22.24900
_cell_length_b 7.05280
_cell_length_c 13.57470
_cell_angle_alpha 90.00000
_cell_angle_beta  90.00000
_cell_angle_gamma 90.00000

_symmetry_space_group_name_	'P 1'
_symmetry_space_group_name_H-M	'P 1'

loop_
_symmetry_equiv_pos_as_xyz
  x,y,z

loop_
_atom_site_label
_atom_site_type_symbol
_atom_site_fract_x
_atom_site_fract_y
_atom_site_fract_z
_atom_site_charge
N 	N 	0.43663 0.65620 0.56569 -0.16400
N 	N 	0.38905 0.59290 0.61290 -0.10300
C 	C 	0.27700 0.58180 0.72500 -0.03300
H 	H 	0.29520 0.46700 0.70920 0.05000
N 	N 	0.93663 0.15620 0.06569 -0.16400
N 	N 	0.88905 0.09290 0.11290 -0.11600
C 	C 	0.77700 0.08180 0.22500 -0.09500
H 	H 	0.79520 0.96700 0.20920 0.09100
N 	N 	0.56337 0.84380 0.56569 -0.15500
N 	N 	0.61095 0.90710 0.61290 -0.09100
C 	C 	0.72300 0.91820 0.72500 0.01900
H 	H 	0.70480 0.03300 0.70920 0.00800
N 	N 	0.06337 0.34380 0.06569 -0.18900
N 	N 	0.11095 0.40710 0.11290 -0.11500
C 	C 	0.22300 0.41820 0.22500 -0.04900
H 	H 	0.20480 0.53300 0.20920 0.04500
N 	N 	0.56337 0.15620 0.43431 -0.17400
N 	N 	0.61095 0.09290 0.38710 -0.11500
C 	C 	0.72300 0.08180 0.27500 -0.09900
H 	H 	0.70480 0.96700 0.29080 0.09300
N 	N 	0.06337 0.65620 0.93431 -0.14900
N 	N 	0.11095 0.59290 0.88710 -0.09700
C 	C 	0.22300 0.58180 0.77500 -0.03900
H 	H 	0.20480 0.46700 0.79080 0.05300
N 	N 	0.43663 0.34380 0.43431 -0.16900
N 	N 	0.38905 0.40710 0.38710 -0.10300
C 	C 	0.27700 0.41820 0.27500 -0.05600
H 	H 	0.29520 0.53300 0.29080 0.05200
N 	N 	0.93663 0.84380 0.93431 -0.11300
N 	N 	0.88905 0.90710 0.88710 -0.07600
C 	C 	0.77700 0.91820 0.77500 0.00800
H 	H 	0.79520 0.03300 0.79080 0.01800
N 	N 	0.56337 0.34380 0.43431 -0.16800
N 	N 	0.61095 0.40710 0.38710 -0.10300
C 	C 	0.72300 0.41820 0.27500 -0.05100
H 	H 	0.70480 0.53300 0.29080 0.05300
N 	N 	0.06337 0.84380 0.93431 -0.14000
N 	N 	0.11095 0.90710 0.88710 -0.08400
C 	C 	0.22300 0.91820 0.77500 0.01000
H 	H 	0.20480 0.03300 0.79080 0.01100
N 	N 	0.43663 0.15620 0.43431 -0.17400
N 	N 	0.38905 0.09290 0.38710 -0.11600
C 	C 	0.27700 0.08180 0.27500 -0.10400
H 	H 	0.29520 0.96700 0.29080 0.09300
N 	N 	0.93663 0.65620 0.93431 -0.12200
N 	N 	0.88905 0.59290 0.88710 -0.08800
C 	C 	0.77700 0.58180 0.77500 -0.04000
H 	H 	0.79520 0.46700 0.79080 0.05900
N 	N 	0.43663 0.84380 0.56569 -0.15500
N 	N 	0.38905 0.90710 0.61290 -0.09100
C 	C 	0.27700 0.91820 0.72500 0.01500
H 	H 	0.29520 0.03300 0.70920 0.00800
N 	N 	0.93663 0.34380 0.06569 -0.16000
N 	N 	0.88905 0.40710 0.11290 -0.10500
C 	C 	0.77700 0.41820 0.22500 -0.04900
H 	H 	0.79520 0.53300 0.20920 0.05200
N 	N 	0.56337 0.65620 0.56569 -0.16400
N 	N 	0.61095 0.59290 0.61290 -0.10400
C 	C 	0.72300 0.58180 0.72500 -0.02900
H 	H 	0.70480 0.46700 0.70920 0.05000
N 	N 	0.06337 0.15620 0.06569 -0.19400
N 	N 	0.11095 0.09290 0.11290 -0.12700
C 	C 	0.22300 0.08180 0.22500 -0.09600
H 	H 	0.20480 0.96700 0.20920 0.08600
Cu	Cu	0.50000 0.50000 0.50000 0.83800
Cu	Cu	-0.00000 0.00000 -0.00000 0.75800
Cu	Cu	0.50000 -0.00000 0.50000 0.82000
Cu	Cu	0.00000 0.50000 -0.00000 0.77500
C 	C 	0.36090 0.75000 0.64170 0.13000
C 	C 	0.30460 0.75000 0.69800 -0.02200
C 	C 	0.86090 0.25000 0.14170 0.10100
C 	C 	0.80460 0.25000 0.19800 0.00300
C 	C 	0.63910 0.75000 0.64170 0.13100
C 	C 	0.69540 0.75000 0.69800 -0.02200
C 	C 	0.13910 0.25000 0.14170 0.09300
C 	C 	0.19540 0.25000 0.19800 -0.00500
C 	C 	0.63910 0.25000 0.35830 0.10100
C 	C 	0.69540 0.25000 0.30200 0.00500
C 	C 	0.13910 0.75000 0.85830 0.13000
C 	C 	0.19540 0.75000 0.80200 -0.01600
C 	C 	0.36090 0.25000 0.35830 0.09900
C 	C 	0.30460 0.25000 0.30200 0.00600
C 	C 	0.86090 0.75000 0.85830 0.13700
C 	C 	0.80460 0.75000 0.80200 -0.00800
