data_crystal

_cell_length_a 14.06360
_cell_length_b 15.91520
_cell_length_c 16.58580
_cell_angle_alpha 90.00000
_cell_angle_beta  90.00000
_cell_angle_gamma 90.00000

_symmetry_space_group_name_	'P 1'
_symmetry_space_group_name_H-M	'P 1'

loop_
_symmetry_equiv_pos_as_xyz
  x,y,z

loop_
_atom_site_label
_atom_site_type_symbol
_atom_site_fract_x
_atom_site_fract_y
_atom_site_fract_z
_atom_site_charge
Ni	Ni	0.47904 0.81749 0.39336 1.13200
C 	C 	0.25700 0.99550 0.34118 -0.02000
C 	C 	0.22100 0.07275 0.36604 -0.06600
H 	H 	0.24590 0.09860 0.41310 0.06300
C 	C 	0.14900 0.11270 0.32273 -0.04900
C 	C 	0.11380 0.07383 0.25408 -0.04600
H 	H 	0.06820 0.10230 0.22180 0.04900
C 	C 	0.14400 0.99350 0.23144 -0.04400
C 	C 	0.21600 0.95491 0.27540 0.00100
H 	H 	0.23740 0.90050 0.26040 0.05800
C 	C 	0.34340 0.95928 0.38255 0.34300
C 	C 	0.10730 0.19382 0.34970 0.27800
C 	C 	0.09620 0.95317 0.15954 0.41200
O 	O 	0.36893 0.99442 0.44679 -0.37000
O 	O 	0.38201 0.89734 0.34818 -0.40100
O 	O 	0.13047 0.22470 0.41659 -0.35100
O 	O 	0.04497 0.22877 0.30538 -0.38800
O 	O 	0.06409 0.00261 0.10890 -0.49100
O 	O 	0.09141 0.87368 0.15982 -0.44100
C 	C 	0.58150 0.80240 0.61450 -0.97700
H 	H 	0.64940 0.78870 0.61650 0.33700
H 	H 	0.54520 0.75880 0.64250 0.34000
H 	H 	0.57060 0.85670 0.64070 0.34000
C 	C 	0.54990 0.80715 0.52810 0.61300
O 	O 	0.56826 0.75021 0.47981 -0.42700
O 	O 	0.49763 0.86860 0.50511 -0.55700
Ni	Ni	0.02096 0.18251 0.89336 1.11800
C 	C 	0.24300 0.00450 0.84118 -0.20700
C 	C 	0.27900 0.92725 0.86604 0.15000
H 	H 	0.25410 0.90140 0.91310 0.02300
C 	C 	0.35100 0.88730 0.82273 -0.15500
C 	C 	0.38620 0.92617 0.75408 0.15700
H 	H 	0.43180 0.89770 0.72180 0.01100
C 	C 	0.35600 0.00650 0.73144 -0.19600
C 	C 	0.28400 0.04509 0.77540 0.11900
H 	H 	0.26260 0.09950 0.76040 0.01800
C 	C 	0.15660 0.04072 0.88255 0.39100
C 	C 	0.39270 0.80618 0.84970 0.32200
C 	C 	0.40380 0.04683 0.65954 0.34900
O 	O 	0.13107 0.00558 0.94679 -0.40700
O 	O 	0.11799 0.10266 0.84818 -0.42900
O 	O 	0.36953 0.77530 0.91659 -0.32800
O 	O 	0.45503 0.77123 0.80538 -0.36700
O 	O 	0.43591 0.99739 0.60890 -0.36900
O 	O 	0.40859 0.12632 0.65982 -0.40200
C 	C 	0.91850 0.19760 0.11450 -0.95400
H 	H 	0.85060 0.21130 0.11650 0.31900
H 	H 	0.95480 0.24120 0.14250 0.34000
H 	H 	0.92940 0.14330 0.14070 0.33500
C 	C 	0.95010 0.19285 0.02810 0.57400
O 	O 	0.93174 0.24979 0.97981 -0.33600
O 	O 	0.00237 0.13140 0.00511 -0.64000
Ni	Ni	0.52096 0.31749 0.10664 1.11900
C 	C 	0.74300 0.49550 0.15882 -0.11500
C 	C 	0.77900 0.57275 0.13396 0.04200
H 	H 	0.75410 0.59860 0.08690 0.03500
C 	C 	0.85100 0.61270 0.17727 -0.09400
C 	C 	0.88620 0.57383 0.24592 0.05000
H 	H 	0.93180 0.60230 0.27820 0.05200
C 	C 	0.85600 0.49350 0.26856 -0.10500
C 	C 	0.78400 0.45491 0.22460 0.05700
H 	H 	0.76260 0.40050 0.23960 0.04300
C 	C 	0.65660 0.45928 0.11745 0.37000
C 	C 	0.89270 0.69382 0.15030 0.30000
C 	C 	0.90380 0.45317 0.34046 0.37900
O 	O 	0.63107 0.49442 0.05321 -0.42000
O 	O 	0.61799 0.39734 0.15182 -0.41600
O 	O 	0.86953 0.72470 0.08341 -0.35100
O 	O 	0.95503 0.72877 0.19462 -0.34300
O 	O 	0.93591 0.50261 0.39110 -0.38900
O 	O 	0.90859 0.37368 0.34018 -0.38200
C 	C 	0.41850 0.30240 0.88550 -1.05300
H 	H 	0.35060 0.28870 0.88350 0.36100
H 	H 	0.45480 0.25880 0.85750 0.36600
H 	H 	0.42940 0.35670 0.85930 0.35300
C 	C 	0.45010 0.30715 0.97190 0.71400
O 	O 	0.43174 0.25021 0.02019 -0.51800
O 	O 	0.50237 0.36860 0.99489 -0.54800
Ni	Ni	0.97904 0.68251 0.60664 1.14900
C 	C 	0.75700 0.50450 0.65882 -0.10600
C 	C 	0.72100 0.42725 0.63396 0.04100
H 	H 	0.74590 0.40140 0.58690 0.04100
C 	C 	0.64900 0.38730 0.67727 -0.09600
C 	C 	0.61380 0.42617 0.74592 0.05400
H 	H 	0.56820 0.39770 0.77820 0.03800
C 	C 	0.64400 0.50650 0.76856 -0.10600
C 	C 	0.71600 0.54509 0.72460 0.05900
H 	H 	0.73740 0.59950 0.73960 0.04900
C 	C 	0.84340 0.54072 0.61745 0.36800
C 	C 	0.60730 0.30618 0.65030 0.30000
C 	C 	0.59620 0.54683 0.84046 0.38200
O 	O 	0.86893 0.50558 0.55321 -0.38400
O 	O 	0.88201 0.60266 0.65182 -0.39400
O 	O 	0.63047 0.27530 0.58341 -0.34200
O 	O 	0.54497 0.27123 0.69462 -0.36500
O 	O 	0.56409 0.49739 0.89110 -0.39200
O 	O 	0.59141 0.62632 0.84018 -0.39200
C 	C 	0.08150 0.69760 0.38550 -0.86500
H 	H 	0.14940 0.71130 0.38350 0.29800
H 	H 	0.04520 0.74120 0.35750 0.29000
H 	H 	0.07060 0.64330 0.35930 0.28000
C 	C 	0.04990 0.69285 0.47190 0.50500
O 	O 	0.06826 0.74979 0.52019 -0.42200
O 	O 	0.99763 0.63140 0.49489 -0.48700
Ni	Ni	0.52096 0.18251 0.60664 1.12800
C 	C 	0.74300 0.00450 0.65882 -0.20200
C 	C 	0.77900 0.92725 0.63396 0.14800
H 	H 	0.75410 0.90140 0.58690 0.01900
C 	C 	0.85100 0.88730 0.67727 -0.14500
C 	C 	0.88620 0.92617 0.74592 0.15000
H 	H 	0.93180 0.89770 0.77820 0.02900
C 	C 	0.85600 0.00650 0.76856 -0.17800
C 	C 	0.78400 0.04509 0.72460 0.11600
H 	H 	0.76260 0.09950 0.73960 0.02700
C 	C 	0.65660 0.04072 0.61745 0.39400
C 	C 	0.89270 0.80618 0.65030 0.32100
C 	C 	0.90380 0.04683 0.84046 0.34600
O 	O 	0.63107 0.00558 0.55321 -0.42500
O 	O 	0.61799 0.10266 0.65182 -0.42000
O 	O 	0.86953 0.77530 0.58341 -0.33400
O 	O 	0.95503 0.77123 0.69462 -0.34100
O 	O 	0.93591 0.99739 0.89110 -0.31700
O 	O 	0.90859 0.12632 0.84018 -0.36300
C 	C 	0.41850 0.19760 0.38550 -0.95600
H 	H 	0.35060 0.21130 0.38350 0.32300
H 	H 	0.45480 0.24120 0.35750 0.33100
H 	H 	0.42940 0.14330 0.35930 0.31600
C 	C 	0.45010 0.19285 0.47190 0.60000
O 	O 	0.43174 0.24979 0.52019 -0.43000
O 	O 	0.50237 0.13140 0.49489 -0.57100
Ni	Ni	0.97904 0.81749 0.10664 1.13800
C 	C 	0.75700 0.99550 0.15882 -0.01800
C 	C 	0.72100 0.07275 0.13396 -0.06700
H 	H 	0.74590 0.09860 0.08690 0.05700
C 	C 	0.64900 0.11270 0.17727 -0.04200
C 	C 	0.61380 0.07383 0.24592 -0.04800
H 	H 	0.56820 0.10230 0.27820 0.06300
C 	C 	0.64400 0.99350 0.26856 -0.03100
C 	C 	0.71600 0.95491 0.22460 -0.00000
H 	H 	0.73740 0.90050 0.23960 0.06500
C 	C 	0.84340 0.95928 0.11745 0.34300
C 	C 	0.60730 0.19382 0.15030 0.27800
C 	C 	0.59620 0.95317 0.34046 0.41400
O 	O 	0.86893 0.99442 0.05321 -0.37500
O 	O 	0.88201 0.89734 0.15182 -0.39100
O 	O 	0.63047 0.22470 0.08341 -0.35800
O 	O 	0.54497 0.22877 0.19462 -0.36500
O 	O 	0.56409 0.00261 0.39110 -0.46000
O 	O 	0.59141 0.87368 0.34018 -0.40800
C 	C 	0.08150 0.80240 0.88550 -0.94500
H 	H 	0.14940 0.78870 0.88350 0.33100
H 	H 	0.04520 0.75880 0.85750 0.31900
H 	H 	0.07060 0.85670 0.85930 0.31100
C 	C 	0.04990 0.80715 0.97190 0.60100
O 	O 	0.06826 0.75021 0.02019 -0.50000
O 	O 	0.99763 0.86860 0.99489 -0.45300
Ni	Ni	0.47904 0.68251 0.89336 1.14000
C 	C 	0.25700 0.50450 0.84118 -0.11100
C 	C 	0.22100 0.42725 0.86604 0.04300
H 	H 	0.24590 0.40140 0.91310 0.04500
C 	C 	0.14900 0.38730 0.82273 -0.10500
C 	C 	0.11380 0.42617 0.75408 0.05900
H 	H 	0.06820 0.39770 0.72180 0.02100
C 	C 	0.14400 0.50650 0.73144 -0.12300
C 	C 	0.21600 0.54509 0.77540 0.06200
H 	H 	0.23740 0.59950 0.76040 0.04100
C 	C 	0.34340 0.54072 0.88255 0.36700
C 	C 	0.10730 0.30618 0.84970 0.30100
C 	C 	0.09620 0.54683 0.65954 0.38300
O 	O 	0.36893 0.50558 0.94679 -0.37300
O 	O 	0.38201 0.60266 0.84818 -0.40500
O 	O 	0.13047 0.27530 0.91659 -0.33700
O 	O 	0.04497 0.27123 0.80538 -0.39200
O 	O 	0.06409 0.49739 0.60890 -0.43800
O 	O 	0.09141 0.62632 0.65982 -0.42900
C 	C 	0.58150 0.69760 0.11450 -0.87700
H 	H 	0.64940 0.71130 0.11650 0.29800
H 	H 	0.54520 0.74120 0.14250 0.30400
H 	H 	0.57060 0.64330 0.14070 0.30300
C 	C 	0.54990 0.69285 0.02810 0.49600
O 	O 	0.56826 0.74979 0.97981 -0.33700
O 	O 	0.49763 0.63140 0.00511 -0.57400
Ni	Ni	0.02096 0.31749 0.39336 1.11100
C 	C 	0.24300 0.49550 0.34118 -0.11900
C 	C 	0.27900 0.57275 0.36604 0.04300
H 	H 	0.25410 0.59860 0.41310 0.04000
C 	C 	0.35100 0.61270 0.32273 -0.10200
C 	C 	0.38620 0.57383 0.25408 0.05500
H 	H 	0.43180 0.60230 0.22180 0.03600
C 	C 	0.35600 0.49350 0.23144 -0.12000
C 	C 	0.28400 0.45491 0.27540 0.06000
H 	H 	0.26260 0.40050 0.26040 0.03500
C 	C 	0.15660 0.45928 0.38255 0.36900
C 	C 	0.39270 0.69382 0.34970 0.30000
C 	C 	0.40380 0.45317 0.15954 0.38000
O 	O 	0.13107 0.49442 0.44679 -0.40800
O 	O 	0.11799 0.39734 0.34818 -0.42500
O 	O 	0.36953 0.72470 0.41659 -0.34300
O 	O 	0.45503 0.72877 0.30538 -0.36700
O 	O 	0.43591 0.50261 0.10890 -0.43200
O 	O 	0.40859 0.37368 0.15982 -0.41700
C 	C 	0.91850 0.30240 0.61450 -1.07200
H 	H 	0.85060 0.28870 0.61650 0.36300
H 	H 	0.95480 0.25880 0.64250 0.38300
H 	H 	0.92940 0.35670 0.64070 0.37800
C 	C 	0.95010 0.30715 0.52810 0.71000
O 	O 	0.93174 0.25021 0.47981 -0.43500
O 	O 	0.00237 0.36860 0.50511 -0.63900
Ni	Ni	0.50000 0.00000 0.50000 1.12900
Ni	Ni	-0.00000 0.00000 -0.00000 1.07600
Ni	Ni	0.50000 0.50000 -0.00000 1.11800
Ni	Ni	0.00000 0.50000 0.50000 1.12200
