data_crystal

_cell_length_a 19.37170
_cell_length_b 19.37170
_cell_length_c 52.61600
_cell_angle_alpha 90.00000
_cell_angle_beta  90.00000
_cell_angle_gamma 120.00000

_symmetry_space_group_name_	'P 1'
_symmetry_space_group_name_H-M	'P 1'

loop_
_symmetry_equiv_pos_as_xyz
  x,y,z

loop_
_atom_site_label
_atom_site_type_symbol
_atom_site_fract_x
_atom_site_fract_y
_atom_site_fract_z
_atom_site_charge
Mn	Mn	0.96505 0.89032 0.78083 1.31200
O 	O 	0.92619 0.78065 0.78235 -0.46500
O 	O 	0.84528 0.93066 0.76896 -0.39900
N 	N 	0.99550 0.90190 0.82113 -0.31300
N 	N 	0.00920 0.85290 0.83018 -0.05500
N 	N 	0.02220 0.80580 0.83893 -0.09000
N 	N 	0.85340 0.86930 0.77937 -0.26100
N 	N 	0.09210 0.98720 0.86882 -0.25000
C 	C 	0.85920 0.72750 0.79343 0.29400
C 	C 	0.85560 0.65750 0.80275 -0.26100
H 	H 	0.90110 0.65130 0.80140 0.12600
C 	C 	0.78670 0.59770 0.81380 0.13500
H 	H 	0.78500 0.55060 0.81970 -0.02200
C 	C 	0.72020 0.60660 0.81626 -0.20200
H 	H 	0.67340 0.56600 0.82420 0.09500
C 	C 	0.72200 0.67380 0.80721 0.12900
H 	H 	0.67600 0.67900 0.80890 -0.01600
C 	C 	0.79040 0.73550 0.79536 -0.25900
C 	C 	0.78750 0.80450 0.78525 0.27100
C 	C 	0.70930 0.80160 0.78088 -0.63300
H 	H 	0.70290 0.83540 0.79340 0.22300
H 	H 	0.66560 0.74650 0.78260 0.21500
H 	H 	0.70860 0.82090 0.76370 0.22400
C 	C 	0.15980 0.00360 0.85702 0.08900
H 	H 	0.16890 0.02570 0.84040 -0.02800
C 	C 	0.21790 0.99030 0.86783 -0.18600
H 	H 	0.26520 0.00330 0.85870 0.08800
C 	C 	0.20590 0.95800 0.89179 0.18600
C 	C 	0.13560 0.93910 0.90400 -0.21900
H 	H 	0.12500 0.91630 0.92050 0.10100
C 	C 	0.08040 0.95360 0.89192 0.11700
H 	H 	0.03180 0.93910 0.90040 -0.02700
C 	C 	0.26950 0.94600 0.90416 -0.31700
H 	H 	0.29460 0.92860 0.89110 0.12800
H 	H 	0.24480 0.90350 0.91710 0.12800
H 	H 	0.35830 0.06540 0.90360 -0.00800
Mn	Mn	0.10968 0.07473 0.78083 1.30700
O 	O 	0.21935 0.14554 0.78235 -0.46900
O 	O 	0.06934 0.91462 0.76896 -0.40400
N 	N 	0.09810 0.09360 0.82113 -0.32200
N 	N 	0.14710 0.15630 0.83018 -0.05400
N 	N 	0.19420 0.21640 0.83893 -0.09100
N 	N 	0.13070 0.98410 0.77937 -0.26200
N 	N 	0.01280 0.10490 0.86882 -0.27300
C 	C 	0.27250 0.13170 0.79343 0.29200
C 	C 	0.34250 0.19810 0.80275 -0.26000
H 	H 	0.34870 0.24980 0.80140 0.12200
C 	C 	0.40230 0.18900 0.81380 0.12900
H 	H 	0.44940 0.23440 0.81970 -0.02200
C 	C 	0.39340 0.11360 0.81626 -0.19500
H 	H 	0.43400 0.10740 0.82420 0.09100
C 	C 	0.32620 0.04820 0.80721 0.11400
H 	H 	0.32100 0.99700 0.80890 -0.00800
C 	C 	0.26450 0.05490 0.79536 -0.26200
C 	C 	0.19550 0.98300 0.78525 0.27900
C 	C 	0.19840 0.90770 0.78088 -0.63900
H 	H 	0.16460 0.86750 0.79340 0.22400
H 	H 	0.25350 0.91910 0.78260 0.21800
H 	H 	0.17910 0.88770 0.76370 0.22600
C 	C 	0.99640 0.15620 0.85702 0.15300
H 	H 	0.97430 0.14320 0.84040 -0.04600
C 	C 	0.00970 0.22760 0.86783 -0.26500
H 	H 	0.99670 0.26190 0.85870 0.12400
C 	C 	0.04200 0.24790 0.89179 0.22200
C 	C 	0.06090 0.19650 0.90400 -0.24600
H 	H 	0.08370 0.20870 0.92050 0.10800
C 	C 	0.04640 0.12680 0.89192 0.13000
H 	H 	0.06090 0.09270 0.90040 -0.03400
C 	C 	0.05400 0.32350 0.90416 -0.34700
H 	H 	0.07140 0.36600 0.89110 0.13400
H 	H 	0.09650 0.34130 0.91710 0.13500
H 	H 	0.93460 0.29290 0.90360 -0.00700
Mn	Mn	0.92527 0.03495 0.78083 1.30900
O 	O 	0.85446 0.07381 0.78235 -0.47000
O 	O 	0.08538 0.15472 0.76896 -0.40400
N 	N 	0.90640 0.00450 0.82113 -0.32200
N 	N 	0.84370 0.99080 0.83018 -0.04900
N 	N 	0.78360 0.97780 0.83893 -0.08900
N 	N 	0.01590 0.14660 0.77937 -0.26400
N 	N 	0.89510 0.90790 0.86882 -0.25900
C 	C 	0.86830 0.14080 0.79343 0.29400
C 	C 	0.80190 0.14440 0.80275 -0.26600
H 	H 	0.75020 0.09890 0.80140 0.12300
C 	C 	0.81100 0.21330 0.81380 0.13900
H 	H 	0.76560 0.21500 0.81970 -0.02600
C 	C 	0.88640 0.27980 0.81626 -0.21100
H 	H 	0.89260 0.32660 0.82420 0.09800
C 	C 	0.95180 0.27800 0.80721 0.14200
H 	H 	0.00300 0.32400 0.80890 -0.02700
C 	C 	0.94510 0.20960 0.79536 -0.25700
C 	C 	0.01700 0.21250 0.78525 0.26400
C 	C 	0.09230 0.29070 0.78088 -0.62700
H 	H 	0.13250 0.29710 0.79340 0.22000
H 	H 	0.08090 0.33440 0.78260 0.21300
H 	H 	0.11230 0.29140 0.76370 0.22100
C 	C 	0.84380 0.84020 0.85702 0.12200
H 	H 	0.85680 0.83110 0.84040 -0.03600
C 	C 	0.77240 0.78210 0.86783 -0.22500
H 	H 	0.73810 0.73480 0.85870 0.10600
C 	C 	0.75210 0.79410 0.89179 0.20400
C 	C 	0.80350 0.86440 0.90400 -0.23100
H 	H 	0.79130 0.87500 0.92050 0.10500
C 	C 	0.87320 0.91960 0.89192 0.12400
H 	H 	0.90730 0.96820 0.90040 -0.02500
C 	C 	0.67650 0.73050 0.90416 -0.33100
H 	H 	0.63400 0.70540 0.89110 0.13100
H 	H 	0.65870 0.75520 0.91710 0.13100
H 	H 	0.70710 0.64170 0.90360 -0.00700
Mn	Mn	0.55699 0.29838 0.05251 1.30800
O 	O 	0.44732 0.25952 0.05098 -0.46900
O 	O 	0.59733 0.17861 0.06437 -0.40300
N 	N 	0.56857 0.32883 0.01220 -0.32000
N 	N 	0.51957 0.34253 0.00315 -0.05300
N 	N 	0.47247 0.35553 0.99440 -0.09000
N 	N 	0.53597 0.18673 0.05396 -0.26500
N 	N 	0.65387 0.42543 0.96451 -0.26200
C 	C 	0.39417 0.19253 0.03990 0.29500
C 	C 	0.32417 0.18893 0.03058 -0.26500
H 	H 	0.31797 0.23443 0.03193 0.12300
C 	C 	0.26437 0.12003 0.01953 0.13500
H 	H 	0.21727 0.11833 0.01363 -0.02500
C 	C 	0.27327 0.05353 0.01707 -0.20600
H 	H 	0.23267 0.00673 0.00913 0.09200
C 	C 	0.34047 0.05533 0.02612 0.13100
H 	H 	0.34567 0.00933 0.02443 -0.02100
C 	C 	0.40217 0.12373 0.03797 -0.26400
C 	C 	0.47117 0.12083 0.04808 0.27800
C 	C 	0.46827 0.04263 0.05245 -0.65900
H 	H 	0.50207 0.03623 0.03993 0.22800
H 	H 	0.41317 0.99893 0.05073 0.22800
H 	H 	0.48757 0.04193 0.06963 0.23000
C 	C 	0.67027 0.49313 0.97631 0.12200
H 	H 	0.69237 0.50223 0.99293 -0.03700
C 	C 	0.65697 0.55123 0.96550 -0.22500
H 	H 	0.66997 0.59853 0.97463 0.10600
C 	C 	0.62467 0.53923 0.94154 0.20400
C 	C 	0.60577 0.46893 0.92933 -0.23200
H 	H 	0.58297 0.45833 0.91283 0.10500
C 	C 	0.62027 0.41373 0.94141 0.12400
H 	H 	0.60577 0.36513 0.93293 -0.02900
C 	C 	0.61267 0.60283 0.92917 -0.33100
H 	H 	0.59527 0.62793 0.94223 0.13100
H 	H 	0.57017 0.57813 0.91623 0.13100
H 	H 	0.73207 0.69163 0.92973 -0.00600
Mn	Mn	0.74140 0.44301 0.05251 1.30800
O 	O 	0.81221 0.55268 0.05098 -0.46900
O 	O 	0.58129 0.40267 0.06437 -0.40300
N 	N 	0.76027 0.43143 0.01220 -0.32000
N 	N 	0.82297 0.48043 0.00315 -0.05300
N 	N 	0.88307 0.52753 0.99440 -0.08900
N 	N 	0.65077 0.46403 0.05396 -0.26300
N 	N 	0.77157 0.34613 0.96451 -0.26100
C 	C 	0.79837 0.60583 0.03990 0.29300
C 	C 	0.86477 0.67583 0.03058 -0.26300
H 	H 	0.91647 0.68203 0.03193 0.12500
C 	C 	0.85567 0.73563 0.01953 0.13400
H 	H 	0.90107 0.78273 0.01363 -0.02200
C 	C 	0.78027 0.72673 0.01707 -0.20200
H 	H 	0.77407 0.76733 0.00913 0.09500
C 	C 	0.71487 0.65953 0.02612 0.12800
H 	H 	0.66367 0.65433 0.02443 -0.01700
C 	C 	0.72157 0.59783 0.03797 -0.26000
C 	C 	0.64967 0.52883 0.04808 0.27100
C 	C 	0.57437 0.53173 0.05245 -0.63300
H 	H 	0.53417 0.49793 0.03993 0.22200
H 	H 	0.58577 0.58683 0.05073 0.21500
H 	H 	0.55437 0.51243 0.06963 0.22300
C 	C 	0.82287 0.32973 0.97631 0.11900
H 	H 	0.80987 0.30763 0.99293 -0.03600
C 	C 	0.89427 0.34303 0.96550 -0.21900
H 	H 	0.92857 0.33003 0.97463 0.10500
C 	C 	0.91457 0.37533 0.94154 0.19500
C 	C 	0.86317 0.39423 0.92933 -0.22600
H 	H 	0.87537 0.41703 0.91283 0.10300
C 	C 	0.79347 0.37973 0.94141 0.12100
H 	H 	0.75937 0.39423 0.93293 -0.02700
C 	C 	0.99017 0.38733 0.92917 -0.30400
H 	H 	0.03267 0.40473 0.94223 0.11900
H 	H 	0.00797 0.42983 0.91623 0.11900
H 	H 	0.95957 0.26793 0.92973 -0.00600
Mn	Mn	0.70162 0.25860 0.05251 1.30800
O 	O 	0.74048 0.18779 0.05098 -0.46800
O 	O 	0.82139 0.41871 0.06437 -0.40400
N 	N 	0.67117 0.23973 0.01220 -0.32000
N 	N 	0.65747 0.17703 0.00315 -0.05300
N 	N 	0.64447 0.11693 0.99440 -0.09200
N 	N 	0.81327 0.34923 0.05396 -0.26200
N 	N 	0.57457 0.22843 0.96451 -0.26300
C 	C 	0.80747 0.20163 0.03990 0.29100
C 	C 	0.81107 0.13523 0.03058 -0.26100
H 	H 	0.76557 0.08353 0.03193 0.12100
C 	C 	0.87997 0.14433 0.01953 0.13200
H 	H 	0.88167 0.09893 0.01363 -0.02400
C 	C 	0.94647 0.21973 0.01707 -0.20100
H 	H 	0.99327 0.22593 0.00913 0.09600
C 	C 	0.94467 0.28513 0.02612 0.12600
H 	H 	0.99067 0.33633 0.02443 -0.01400
C 	C 	0.87627 0.27843 0.03797 -0.25600
C 	C 	0.87917 0.35033 0.04808 0.26400
C 	C 	0.95737 0.42563 0.05245 -0.60700
H 	H 	0.96377 0.46583 0.03993 0.21600
H 	H 	0.00107 0.41423 0.05073 0.20200
H 	H 	0.95807 0.44563 0.06963 0.21700
C 	C 	0.50687 0.17713 0.97631 0.12400
H 	H 	0.49777 0.19013 0.99293 -0.03800
C 	C 	0.44877 0.10573 0.96550 -0.23200
H 	H 	0.40147 0.07143 0.97463 0.10700
C 	C 	0.46077 0.08543 0.94154 0.21400
C 	C 	0.53107 0.13683 0.92933 -0.23900
H 	H 	0.54167 0.12463 0.91283 0.10600
C 	C 	0.58627 0.20653 0.94141 0.12700
H 	H 	0.63487 0.24063 0.93293 -0.03000
C 	C 	0.39717 0.00983 0.92917 -0.36000
H 	H 	0.37207 0.96733 0.94223 0.14300
H 	H 	0.42187 0.99203 0.91623 0.14400
H 	H 	0.30837 0.04043 0.92973 -0.00900
Mn	Mn	-0.00000 0.00000 0.84502 1.22300
O 	O 	-0.00000 0.00000 0.77841 -0.86300
Mn	Mn	0.66667 0.33333 0.98831 1.22800
O 	O 	0.66667 0.33333 0.05492 -0.85500
C 	C 	0.33333 0.02302 0.91667 0.12400
C 	C 	0.97698 0.31032 0.91667 0.12600
C 	C 	0.68968 0.66667 0.91667 0.12400
Mn	Mn	0.63172 0.22365 0.11416 1.30800
O 	O 	0.59286 0.11398 0.11568 -0.46600
O 	O 	0.51195 0.26399 0.10229 -0.40300
N 	N 	0.66217 0.23523 0.15446 -0.32000
N 	N 	0.67587 0.18623 0.16351 -0.05300
N 	N 	0.68887 0.13913 0.17226 -0.09100
N 	N 	0.52007 0.20263 0.11270 -0.26200
N 	N 	0.75877 0.32053 0.20215 -0.26100
C 	C 	0.52587 0.06083 0.12676 0.27700
C 	C 	0.52227 0.99083 0.13608 -0.24000
H 	H 	0.56777 0.98463 0.13473 0.11700
C 	C 	0.45337 0.93103 0.14713 0.11400
H 	H 	0.45167 0.88393 0.15303 -0.01700
C 	C 	0.38687 0.93993 0.14959 -0.17600
H 	H 	0.34007 0.89933 0.15753 0.08600
C 	C 	0.38867 0.00713 0.14054 0.10400
H 	H 	0.34267 0.01233 0.14223 -0.01100
C 	C 	0.45707 0.06883 0.12869 -0.24800
C 	C 	0.45417 0.13783 0.11858 0.26600
C 	C 	0.37597 0.13493 0.11421 -0.62700
H 	H 	0.36957 0.16873 0.12673 0.22000
H 	H 	0.33227 0.07983 0.11593 0.21300
H 	H 	0.37527 0.15423 0.09703 0.22100
C 	C 	0.82647 0.33693 0.19035 0.11900
H 	H 	0.83557 0.35903 0.17373 -0.03600
C 	C 	0.88457 0.32363 0.20116 -0.22000
H 	H 	0.93187 0.33663 0.19203 0.10600
C 	C 	0.87257 0.29133 0.22512 0.19600
C 	C 	0.80227 0.27243 0.23733 -0.22700
H 	H 	0.79167 0.24963 0.25383 0.10300
C 	C 	0.74707 0.28693 0.22525 0.12100
H 	H 	0.69847 0.27243 0.23373 -0.02800
C 	C 	0.93617 0.27933 0.23749 -0.31000
H 	H 	0.96127 0.26193 0.22443 0.12700
H 	H 	0.91147 0.23683 0.25043 0.12600
H 	H 	0.02497 0.39873 0.23693 0.00000
Mn	Mn	0.77635 0.40806 0.11416 1.30800
O 	O 	0.88602 0.47887 0.11568 -0.47200
O 	O 	0.73601 0.24795 0.10229 -0.40400
N 	N 	0.76477 0.42693 0.15446 -0.32000
N 	N 	0.81377 0.48963 0.16351 -0.05300
N 	N 	0.86087 0.54973 0.17226 -0.09000
N 	N 	0.79737 0.31743 0.11270 -0.26400
N 	N 	0.67947 0.43823 0.20215 -0.26200
C 	C 	0.93917 0.46503 0.12676 0.31000
C 	C 	0.00917 0.53143 0.13608 -0.28600
H 	H 	0.01537 0.58313 0.13473 0.12900
C 	C 	0.06897 0.52233 0.14713 0.15400
H 	H 	0.11607 0.56773 0.15303 -0.03100
C 	C 	0.06007 0.44693 0.14959 -0.23000
H 	H 	0.10067 0.44073 0.15753 0.10200
C 	C 	0.99287 0.38153 0.14054 0.15300
H 	H 	0.98767 0.33033 0.14223 -0.02400
C 	C 	0.93117 0.38823 0.12869 -0.27200
C 	C 	0.86217 0.31633 0.11858 0.27700
C 	C 	0.86507 0.24103 0.11421 -0.63800
H 	H 	0.83127 0.20083 0.12673 0.22400
H 	H 	0.92017 0.25243 0.11593 0.21800
H 	H 	0.84577 0.22103 0.09703 0.22500
C 	C 	0.66307 0.48953 0.19035 0.12100
H 	H 	0.64097 0.47653 0.17373 -0.03700
C 	C 	0.67637 0.56093 0.20116 -0.22500
H 	H 	0.66337 0.59523 0.19203 0.10600
C 	C 	0.70867 0.58123 0.22512 0.20400
C 	C 	0.72757 0.52983 0.23733 -0.23200
H 	H 	0.75037 0.54203 0.25383 0.10500
C 	C 	0.71307 0.46013 0.22525 0.12400
H 	H 	0.72757 0.42603 0.23373 -0.02800
C 	C 	0.72067 0.65683 0.23749 -0.33200
H 	H 	0.73807 0.69933 0.22443 0.13100
H 	H 	0.76317 0.67463 0.25043 0.13100
H 	H 	0.60127 0.62623 0.23693 -0.00700
Mn	Mn	0.59194 0.36828 0.11416 1.30800
O 	O 	0.52113 0.40714 0.11568 -0.46900
O 	O 	0.75205 0.48805 0.10229 -0.40300
N 	N 	0.57307 0.33783 0.15446 -0.32000
N 	N 	0.51037 0.32413 0.16351 -0.05300
N 	N 	0.45027 0.31113 0.17226 -0.09000
N 	N 	0.68257 0.47993 0.11270 -0.26300
N 	N 	0.56177 0.24123 0.20215 -0.26100
C 	C 	0.53497 0.47413 0.12676 0.29300
C 	C 	0.46857 0.47773 0.13608 -0.26300
H 	H 	0.41687 0.43223 0.13473 0.12300
C 	C 	0.47767 0.54663 0.14713 0.13400
H 	H 	0.43227 0.54833 0.15303 -0.02400
C 	C 	0.55307 0.61313 0.14959 -0.20300
H 	H 	0.55927 0.65993 0.15753 0.09400
C 	C 	0.61847 0.61133 0.14054 0.12800
H 	H 	0.66967 0.65733 0.14223 -0.01700
C 	C 	0.61177 0.54293 0.12869 -0.26000
C 	C 	0.68367 0.54583 0.11858 0.27200
C 	C 	0.75897 0.62403 0.11421 -0.63400
H 	H 	0.79917 0.63043 0.12673 0.22300
H 	H 	0.74757 0.66773 0.11593 0.21600
H 	H 	0.77897 0.62473 0.09703 0.22400
C 	C 	0.51047 0.17353 0.19035 0.11900
H 	H 	0.52347 0.16443 0.17373 -0.03600
C 	C 	0.43907 0.11543 0.20116 -0.22100
H 	H 	0.40477 0.06813 0.19203 0.10300
C 	C 	0.41877 0.12743 0.22512 0.19600
C 	C 	0.47017 0.19773 0.23733 -0.22800
H 	H 	0.45797 0.20833 0.25383 0.10300
C 	C 	0.53987 0.25293 0.22525 0.12100
H 	H 	0.57397 0.30153 0.23373 -0.02800
C 	C 	0.34317 0.06383 0.23749 -0.31500
H 	H 	0.30067 0.03873 0.22443 0.12400
H 	H 	0.32537 0.08853 0.25043 0.12600
H 	H 	0.37377 0.97503 0.23693 0.00700
Mn	Mn	0.22365 0.63172 0.38584 1.30800
O 	O 	0.11398 0.59286 0.38432 -0.46600
O 	O 	0.26399 0.51195 0.39771 -0.40300
N 	N 	0.23523 0.66217 0.34554 -0.32000
N 	N 	0.18623 0.67587 0.33649 -0.05300
N 	N 	0.13913 0.68887 0.32774 -0.09100
N 	N 	0.20263 0.52007 0.38730 -0.26200
N 	N 	0.32053 0.75877 0.29785 -0.26100
C 	C 	0.06083 0.52587 0.37324 0.27700
C 	C 	0.99083 0.52227 0.36392 -0.24000
H 	H 	0.98463 0.56777 0.36527 0.11700
C 	C 	0.93103 0.45337 0.35287 0.11400
H 	H 	0.88393 0.45167 0.34697 -0.01700
C 	C 	0.93993 0.38687 0.35041 -0.17600
H 	H 	0.89933 0.34007 0.34247 0.08600
C 	C 	0.00713 0.38867 0.35946 0.10400
H 	H 	0.01233 0.34267 0.35777 -0.01100
C 	C 	0.06883 0.45707 0.37131 -0.24800
C 	C 	0.13783 0.45417 0.38142 0.26600
C 	C 	0.13493 0.37597 0.38579 -0.62700
H 	H 	0.16873 0.36957 0.37327 0.22000
H 	H 	0.07983 0.33227 0.38407 0.21300
H 	H 	0.15423 0.37527 0.40297 0.22100
C 	C 	0.33693 0.82647 0.30965 0.11900
H 	H 	0.35903 0.83557 0.32627 -0.03600
C 	C 	0.32363 0.88457 0.29884 -0.22000
H 	H 	0.33663 0.93187 0.30797 0.10600
C 	C 	0.29133 0.87257 0.27488 0.19600
C 	C 	0.27243 0.80227 0.26267 -0.22700
H 	H 	0.24963 0.79167 0.24617 0.10300
C 	C 	0.28693 0.74707 0.27475 0.12100
H 	H 	0.27243 0.69847 0.26627 -0.02800
C 	C 	0.27933 0.93617 0.26251 -0.31000
H 	H 	0.26193 0.96127 0.27557 0.12700
H 	H 	0.23683 0.91147 0.24957 0.12600
H 	H 	0.39873 0.02497 0.26307 0.00000
Mn	Mn	0.40806 0.77635 0.38584 1.30800
O 	O 	0.47887 0.88602 0.38432 -0.47200
O 	O 	0.24795 0.73601 0.39771 -0.40400
N 	N 	0.42693 0.76477 0.34554 -0.32000
N 	N 	0.48963 0.81377 0.33649 -0.05300
N 	N 	0.54973 0.86087 0.32774 -0.09000
N 	N 	0.31743 0.79737 0.38730 -0.26400
N 	N 	0.43823 0.67947 0.29785 -0.26200
C 	C 	0.46503 0.93917 0.37324 0.31000
C 	C 	0.53143 0.00917 0.36392 -0.28600
H 	H 	0.58313 0.01537 0.36527 0.12900
C 	C 	0.52233 0.06897 0.35287 0.15400
H 	H 	0.56773 0.11607 0.34697 -0.03100
C 	C 	0.44693 0.06007 0.35041 -0.23000
H 	H 	0.44073 0.10067 0.34247 0.10200
C 	C 	0.38153 0.99287 0.35946 0.15300
H 	H 	0.33033 0.98767 0.35777 -0.02400
C 	C 	0.38823 0.93117 0.37131 -0.27200
C 	C 	0.31633 0.86217 0.38142 0.27700
C 	C 	0.24103 0.86507 0.38579 -0.63800
H 	H 	0.20083 0.83127 0.37327 0.22400
H 	H 	0.25243 0.92017 0.38407 0.21800
H 	H 	0.22103 0.84577 0.40297 0.22500
C 	C 	0.48953 0.66307 0.30965 0.12100
H 	H 	0.47653 0.64097 0.32627 -0.03700
C 	C 	0.56093 0.67637 0.29884 -0.22500
H 	H 	0.59523 0.66337 0.30797 0.10600
C 	C 	0.58123 0.70867 0.27488 0.20400
C 	C 	0.52983 0.72757 0.26267 -0.23200
H 	H 	0.54203 0.75037 0.24617 0.10500
C 	C 	0.46013 0.71307 0.27475 0.12400
H 	H 	0.42603 0.72757 0.26627 -0.02800
C 	C 	0.65683 0.72067 0.26251 -0.33200
H 	H 	0.69933 0.73807 0.27557 0.13100
H 	H 	0.67463 0.76317 0.24957 0.13100
H 	H 	0.62623 0.60127 0.26307 -0.00700
Mn	Mn	0.36828 0.59194 0.38584 1.30800
O 	O 	0.40714 0.52113 0.38432 -0.46900
O 	O 	0.48805 0.75205 0.39771 -0.40300
N 	N 	0.33783 0.57307 0.34554 -0.32000
N 	N 	0.32413 0.51037 0.33649 -0.05300
N 	N 	0.31113 0.45027 0.32774 -0.09000
N 	N 	0.47993 0.68257 0.38730 -0.26300
N 	N 	0.24123 0.56177 0.29785 -0.26100
C 	C 	0.47413 0.53497 0.37324 0.29300
C 	C 	0.47773 0.46857 0.36392 -0.26300
H 	H 	0.43223 0.41687 0.36527 0.12300
C 	C 	0.54663 0.47767 0.35287 0.13400
H 	H 	0.54833 0.43227 0.34697 -0.02400
C 	C 	0.61313 0.55307 0.35041 -0.20300
H 	H 	0.65993 0.55927 0.34247 0.09400
C 	C 	0.61133 0.61847 0.35946 0.12800
H 	H 	0.65733 0.66967 0.35777 -0.01700
C 	C 	0.54293 0.61177 0.37131 -0.26000
C 	C 	0.54583 0.68367 0.38142 0.27200
C 	C 	0.62403 0.75897 0.38579 -0.63400
H 	H 	0.63043 0.79917 0.37327 0.22300
H 	H 	0.66773 0.74757 0.38407 0.21600
H 	H 	0.62473 0.77897 0.40297 0.22400
C 	C 	0.17353 0.51047 0.30965 0.11900
H 	H 	0.16443 0.52347 0.32627 -0.03600
C 	C 	0.11543 0.43907 0.29884 -0.22100
H 	H 	0.06813 0.40477 0.30797 0.10300
C 	C 	0.12743 0.41877 0.27488 0.19600
C 	C 	0.19773 0.47017 0.26267 -0.22800
H 	H 	0.20833 0.45797 0.24617 0.10300
C 	C 	0.25293 0.53987 0.27475 0.12100
H 	H 	0.30153 0.57397 0.26627 -0.02800
C 	C 	0.06383 0.34317 0.26251 -0.31500
H 	H 	0.03873 0.30067 0.27557 0.12400
H 	H 	0.08853 0.32537 0.24957 0.12600
H 	H 	0.97503 0.37377 0.26307 0.00700
Mn	Mn	0.66667 0.33333 0.17835 1.22800
O 	O 	0.66667 0.33333 0.11174 -0.85500
Mn	Mn	0.33333 0.66667 0.32165 1.22800
O 	O 	0.33333 0.66667 0.38826 -0.85500
C 	C 	-0.00000 0.35635 0.25000 0.09200
C 	C 	0.64365 0.64365 0.25000 0.12400
C 	C 	0.35635 0.00000 0.25000 0.09200
Mn	Mn	0.29838 0.55699 0.44749 1.30800
O 	O 	0.25952 0.44732 0.44902 -0.46900
O 	O 	0.17861 0.59733 0.43563 -0.40300
N 	N 	0.32883 0.56857 0.48780 -0.32000
N 	N 	0.34253 0.51957 0.49685 -0.05300
N 	N 	0.35553 0.47247 0.50560 -0.09000
N 	N 	0.18673 0.53597 0.44604 -0.26500
N 	N 	0.42543 0.65387 0.53549 -0.26200
C 	C 	0.19253 0.39417 0.46010 0.29500
C 	C 	0.18893 0.32417 0.46942 -0.26500
H 	H 	0.23443 0.31797 0.46807 0.12300
C 	C 	0.12003 0.26437 0.48047 0.13500
H 	H 	0.11833 0.21727 0.48637 -0.02500
C 	C 	0.05353 0.27327 0.48293 -0.20600
H 	H 	0.00673 0.23267 0.49087 0.09200
C 	C 	0.05533 0.34047 0.47388 0.13100
H 	H 	0.00933 0.34567 0.47557 -0.02100
C 	C 	0.12373 0.40217 0.46203 -0.26400
C 	C 	0.12083 0.47117 0.45192 0.27800
C 	C 	0.04263 0.46827 0.44755 -0.65900
H 	H 	0.03623 0.50207 0.46007 0.22800
H 	H 	0.99893 0.41317 0.44927 0.22800
H 	H 	0.04193 0.48757 0.43037 0.23000
C 	C 	0.49313 0.67027 0.52369 0.12200
H 	H 	0.50223 0.69237 0.50707 -0.03700
C 	C 	0.55123 0.65697 0.53450 -0.22500
H 	H 	0.59853 0.66997 0.52537 0.10600
C 	C 	0.53923 0.62467 0.55846 0.20400
C 	C 	0.46893 0.60577 0.57067 -0.23200
H 	H 	0.45833 0.58297 0.58717 0.10500
C 	C 	0.41373 0.62027 0.55859 0.12400
H 	H 	0.36513 0.60577 0.56707 -0.02900
C 	C 	0.60283 0.61267 0.57083 -0.33100
H 	H 	0.62793 0.59527 0.55777 0.13100
H 	H 	0.57813 0.57017 0.58377 0.13100
H 	H 	0.69163 0.73207 0.57027 -0.00600
Mn	Mn	0.44301 0.74140 0.44749 1.30800
O 	O 	0.55268 0.81221 0.44902 -0.46900
O 	O 	0.40267 0.58129 0.43563 -0.40300
N 	N 	0.43143 0.76027 0.48780 -0.32000
N 	N 	0.48043 0.82297 0.49685 -0.05300
N 	N 	0.52753 0.88307 0.50560 -0.08900
N 	N 	0.46403 0.65077 0.44604 -0.26300
N 	N 	0.34613 0.77157 0.53549 -0.26100
C 	C 	0.60583 0.79837 0.46010 0.29300
C 	C 	0.67583 0.86477 0.46942 -0.26300
H 	H 	0.68203 0.91647 0.46807 0.12500
C 	C 	0.73563 0.85567 0.48047 0.13400
H 	H 	0.78273 0.90107 0.48637 -0.02200
C 	C 	0.72673 0.78027 0.48293 -0.20200
H 	H 	0.76733 0.77407 0.49087 0.09500
C 	C 	0.65953 0.71487 0.47388 0.12800
H 	H 	0.65433 0.66367 0.47557 -0.01700
C 	C 	0.59783 0.72157 0.46203 -0.26000
C 	C 	0.52883 0.64967 0.45192 0.27100
C 	C 	0.53173 0.57437 0.44755 -0.63300
H 	H 	0.49793 0.53417 0.46007 0.22200
H 	H 	0.58683 0.58577 0.44927 0.21500
H 	H 	0.51243 0.55437 0.43037 0.22300
C 	C 	0.32973 0.82287 0.52369 0.11900
H 	H 	0.30763 0.80987 0.50707 -0.03600
C 	C 	0.34303 0.89427 0.53450 -0.21900
H 	H 	0.33003 0.92857 0.52537 0.10500
C 	C 	0.37533 0.91457 0.55846 0.19500
C 	C 	0.39423 0.86317 0.57067 -0.22600
H 	H 	0.41703 0.87537 0.58717 0.10300
C 	C 	0.37973 0.79347 0.55859 0.12100
H 	H 	0.39423 0.75937 0.56707 -0.02700
C 	C 	0.38733 0.99017 0.57083 -0.30400
H 	H 	0.40473 0.03267 0.55777 0.11900
H 	H 	0.42983 0.00797 0.58377 0.11900
H 	H 	0.26793 0.95957 0.57027 -0.00600
Mn	Mn	0.25860 0.70162 0.44749 1.30800
O 	O 	0.18779 0.74048 0.44902 -0.46800
O 	O 	0.41871 0.82139 0.43563 -0.40400
N 	N 	0.23973 0.67117 0.48780 -0.32000
N 	N 	0.17703 0.65747 0.49685 -0.05300
N 	N 	0.11693 0.64447 0.50560 -0.09200
N 	N 	0.34923 0.81327 0.44604 -0.26200
N 	N 	0.22843 0.57457 0.53549 -0.26300
C 	C 	0.20163 0.80747 0.46010 0.29100
C 	C 	0.13523 0.81107 0.46942 -0.26100
H 	H 	0.08353 0.76557 0.46807 0.12100
C 	C 	0.14433 0.87997 0.48047 0.13200
H 	H 	0.09893 0.88167 0.48637 -0.02400
C 	C 	0.21973 0.94647 0.48293 -0.20100
H 	H 	0.22593 0.99327 0.49087 0.09600
C 	C 	0.28513 0.94467 0.47388 0.12600
H 	H 	0.33633 0.99067 0.47557 -0.01400
C 	C 	0.27843 0.87627 0.46203 -0.25600
C 	C 	0.35033 0.87917 0.45192 0.26400
C 	C 	0.42563 0.95737 0.44755 -0.60700
H 	H 	0.46583 0.96377 0.46007 0.21600
H 	H 	0.41423 0.00107 0.44927 0.20200
H 	H 	0.44563 0.95807 0.43037 0.21700
C 	C 	0.17713 0.50687 0.52369 0.12400
H 	H 	0.19013 0.49777 0.50707 -0.03800
C 	C 	0.10573 0.44877 0.53450 -0.23200
H 	H 	0.07143 0.40147 0.52537 0.10700
C 	C 	0.08543 0.46077 0.55846 0.21300
C 	C 	0.13683 0.53107 0.57067 -0.23900
H 	H 	0.12463 0.54167 0.58717 0.10600
C 	C 	0.20653 0.58627 0.55859 0.12700
H 	H 	0.24063 0.63487 0.56707 -0.03000
C 	C 	0.00983 0.39717 0.57083 -0.36000
H 	H 	0.96733 0.37207 0.55777 0.14300
H 	H 	0.99203 0.42187 0.58377 0.14400
H 	H 	0.04043 0.30837 0.57027 -0.00900
Mn	Mn	0.89032 0.96505 0.71917 1.31100
O 	O 	0.78065 0.92619 0.71765 -0.46600
O 	O 	0.93066 0.84528 0.73104 -0.40000
N 	N 	0.90190 0.99550 0.67887 -0.31400
N 	N 	0.85290 0.00920 0.66982 -0.05600
N 	N 	0.80580 0.02220 0.66107 -0.09100
N 	N 	0.86930 0.85340 0.72063 -0.26200
N 	N 	0.98720 0.09210 0.63118 -0.25100
C 	C 	0.72750 0.85920 0.70657 0.29300
C 	C 	0.65750 0.85560 0.69725 -0.26200
H 	H 	0.65130 0.90110 0.69860 0.12500
C 	C 	0.59770 0.78670 0.68620 0.13400
H 	H 	0.55060 0.78500 0.68030 -0.02300
C 	C 	0.60660 0.72020 0.68374 -0.20300
H 	H 	0.56600 0.67340 0.67580 0.09400
C 	C 	0.67380 0.72200 0.69279 0.12800
H 	H 	0.67900 0.67600 0.69110 -0.01700
C 	C 	0.73550 0.79040 0.70464 -0.26000
C 	C 	0.80450 0.78750 0.71475 0.27100
C 	C 	0.80160 0.70930 0.71912 -0.63300
H 	H 	0.83540 0.70290 0.70660 0.22300
H 	H 	0.74650 0.66560 0.71740 0.21500
H 	H 	0.82090 0.70860 0.73630 0.22400
C 	C 	0.00360 0.15980 0.64298 0.08900
H 	H 	0.02570 0.16890 0.65960 -0.02800
C 	C 	0.99030 0.21790 0.63217 -0.18600
H 	H 	0.00330 0.26520 0.64130 0.08800
C 	C 	0.95800 0.20590 0.60821 0.18600
C 	C 	0.93910 0.13560 0.59600 -0.21900
H 	H 	0.91630 0.12500 0.57950 0.10100
C 	C 	0.95360 0.08040 0.60808 0.11700
H 	H 	0.93910 0.03180 0.59960 -0.02700
C 	C 	0.94600 0.26950 0.59584 -0.31700
H 	H 	0.92860 0.29460 0.60890 0.12800
H 	H 	0.90350 0.24480 0.58290 0.12800
H 	H 	0.06540 0.35830 0.59640 -0.00800
Mn	Mn	0.07473 0.10968 0.71917 1.30700
O 	O 	0.14554 0.21935 0.71765 -0.46900
O 	O 	0.91462 0.06934 0.73104 -0.40400
N 	N 	0.09360 0.09810 0.67887 -0.32200
N 	N 	0.15630 0.14710 0.66982 -0.05400
N 	N 	0.21640 0.19420 0.66107 -0.09100
N 	N 	0.98410 0.13070 0.72063 -0.26200
N 	N 	0.10490 0.01280 0.63118 -0.27300
C 	C 	0.13170 0.27250 0.70657 0.29200
C 	C 	0.19810 0.34250 0.69725 -0.26000
H 	H 	0.24980 0.34870 0.69860 0.12200
C 	C 	0.18900 0.40230 0.68620 0.12900
H 	H 	0.23440 0.44940 0.68030 -0.02200
C 	C 	0.11360 0.39340 0.68374 -0.19500
H 	H 	0.10740 0.43400 0.67580 0.09100
C 	C 	0.04820 0.32620 0.69279 0.11400
H 	H 	0.99700 0.32100 0.69110 -0.00800
C 	C 	0.05490 0.26450 0.70464 -0.26200
C 	C 	0.98300 0.19550 0.71475 0.27900
C 	C 	0.90770 0.19840 0.71912 -0.63900
H 	H 	0.86750 0.16460 0.70660 0.22400
H 	H 	0.91910 0.25350 0.71740 0.21800
H 	H 	0.88770 0.17910 0.73630 0.22600
C 	C 	0.15620 0.99640 0.64298 0.15300
H 	H 	0.14320 0.97430 0.65960 -0.04600
C 	C 	0.22760 0.00970 0.63217 -0.26500
H 	H 	0.26190 0.99670 0.64130 0.12400
C 	C 	0.24790 0.04200 0.60821 0.22200
C 	C 	0.19650 0.06090 0.59600 -0.24600
H 	H 	0.20870 0.08370 0.57950 0.10800
C 	C 	0.12680 0.04640 0.60808 0.13000
H 	H 	0.09270 0.06090 0.59960 -0.03400
C 	C 	0.32350 0.05400 0.59584 -0.34700
H 	H 	0.36600 0.07140 0.60890 0.13400
H 	H 	0.34130 0.09650 0.58290 0.13500
H 	H 	0.29290 0.93460 0.59640 -0.00700
Mn	Mn	0.03495 0.92527 0.71917 1.30900
O 	O 	0.07381 0.85446 0.71765 -0.47000
O 	O 	0.15472 0.08538 0.73104 -0.40400
N 	N 	0.00450 0.90640 0.67887 -0.32200
N 	N 	0.99080 0.84370 0.66982 -0.04900
N 	N 	0.97780 0.78360 0.66107 -0.08900
N 	N 	0.14660 0.01590 0.72063 -0.26400
N 	N 	0.90790 0.89510 0.63118 -0.25900
C 	C 	0.14080 0.86830 0.70657 0.29400
C 	C 	0.14440 0.80190 0.69725 -0.26600
H 	H 	0.09890 0.75020 0.69860 0.12300
C 	C 	0.21330 0.81100 0.68620 0.13900
H 	H 	0.21500 0.76560 0.68030 -0.02600
C 	C 	0.27980 0.88640 0.68374 -0.21100
H 	H 	0.32660 0.89260 0.67580 0.09800
C 	C 	0.27800 0.95180 0.69279 0.14200
H 	H 	0.32400 0.00300 0.69110 -0.02700
C 	C 	0.20960 0.94510 0.70464 -0.25700
C 	C 	0.21250 0.01700 0.71475 0.26400
C 	C 	0.29070 0.09230 0.71912 -0.62700
H 	H 	0.29710 0.13250 0.70660 0.22000
H 	H 	0.33440 0.08090 0.71740 0.21300
H 	H 	0.29140 0.11230 0.73630 0.22100
C 	C 	0.84020 0.84380 0.64298 0.12200
H 	H 	0.83110 0.85680 0.65960 -0.03600
C 	C 	0.78210 0.77240 0.63217 -0.22500
H 	H 	0.73480 0.73810 0.64130 0.10600
C 	C 	0.79410 0.75210 0.60821 0.20400
C 	C 	0.86440 0.80350 0.59600 -0.23100
H 	H 	0.87500 0.79130 0.57950 0.10500
C 	C 	0.91960 0.87320 0.60808 0.12400
H 	H 	0.96820 0.90730 0.59960 -0.02500
C 	C 	0.73050 0.67650 0.59584 -0.33100
H 	H 	0.70540 0.63400 0.60890 0.13100
H 	H 	0.75520 0.65870 0.58290 0.13100
H 	H 	0.64170 0.70710 0.59640 -0.00700
Mn	Mn	0.33333 0.66667 0.51169 1.22800
O 	O 	0.33333 0.66667 0.44508 -0.85500
Mn	Mn	0.00000 0.00000 0.65498 1.22300
O 	O 	0.00000 0.00000 0.72159 -0.86300
C 	C 	0.02302 0.33333 0.58333 0.12400
C 	C 	0.31032 0.97698 0.58333 0.12600
C 	C 	0.66667 0.68968 0.58333 0.12400
Mn	Mn	0.03495 0.10968 0.21917 1.30700
O 	O 	0.07381 0.21935 0.21765 -0.47100
O 	O 	0.15472 0.06934 0.23104 -0.40600
N 	N 	0.00450 0.09810 0.17887 -0.32500
N 	N 	0.99080 0.14710 0.16982 -0.04900
N 	N 	0.97780 0.19420 0.16107 -0.08900
N 	N 	0.14660 0.13070 0.22063 -0.26300
N 	N 	0.90790 0.01280 0.13118 -0.26900
C 	C 	0.14080 0.27250 0.20657 0.29300
C 	C 	0.14440 0.34250 0.19725 -0.26300
H 	H 	0.09890 0.34870 0.19860 0.12200
C 	C 	0.21330 0.40230 0.18620 0.13400
H 	H 	0.21500 0.44940 0.18030 -0.02400
C 	C 	0.27980 0.39340 0.18374 -0.20300
H 	H 	0.32660 0.43400 0.17580 0.09400
C 	C 	0.27800 0.32620 0.19279 0.12800
H 	H 	0.32400 0.32100 0.19110 -0.01700
C 	C 	0.20960 0.26450 0.20464 -0.26000
C 	C 	0.21250 0.19550 0.21475 0.27100
C 	C 	0.29070 0.19840 0.21912 -0.63300
H 	H 	0.29710 0.16460 0.20660 0.22200
H 	H 	0.33440 0.25350 0.21740 0.21500
H 	H 	0.29140 0.17910 0.23630 0.22400
C 	C 	0.84020 0.99640 0.14298 0.14800
H 	H 	0.83110 0.97430 0.15960 -0.04300
C 	C 	0.78210 0.00970 0.13217 -0.25800
H 	H 	0.73480 0.99670 0.14130 0.12100
C 	C 	0.79410 0.04200 0.10821 0.21900
C 	C 	0.86440 0.06090 0.09600 -0.24300
H 	H 	0.87500 0.08370 0.07950 0.10800
C 	C 	0.91960 0.04640 0.10808 0.12900
H 	H 	0.96820 0.06090 0.09960 -0.02900
C 	C 	0.73050 0.05400 0.09584 -0.34300
H 	H 	0.70540 0.07140 0.10890 0.13300
H 	H 	0.75520 0.09650 0.08290 0.13400
H 	H 	0.64170 0.93460 0.09640 -0.00600
Mn	Mn	0.89032 0.92527 0.21917 1.31100
O 	O 	0.78065 0.85446 0.21765 -0.46800
O 	O 	0.93066 0.08538 0.23104 -0.40000
N 	N 	0.90190 0.90640 0.17887 -0.31700
N 	N 	0.85290 0.84370 0.16982 -0.05300
N 	N 	0.80580 0.78360 0.16107 -0.09000
N 	N 	0.86930 0.01590 0.22063 -0.26300
N 	N 	0.98720 0.89510 0.13118 -0.25100
C 	C 	0.72750 0.86830 0.20657 0.29400
C 	C 	0.65750 0.80190 0.19725 -0.26600
H 	H 	0.65130 0.75020 0.19860 0.12400
C 	C 	0.59770 0.81100 0.18620 0.13900
H 	H 	0.55060 0.76560 0.18030 -0.02500
C 	C 	0.60660 0.88640 0.18374 -0.21100
H 	H 	0.56600 0.89260 0.17580 0.09800
C 	C 	0.67380 0.95180 0.19279 0.14100
H 	H 	0.67900 0.00300 0.19110 -0.02600
C 	C 	0.73550 0.94510 0.20464 -0.25800
C 	C 	0.80450 0.01700 0.21475 0.26500
C 	C 	0.80160 0.09230 0.21912 -0.62800
H 	H 	0.83540 0.13250 0.20660 0.22100
H 	H 	0.74650 0.08090 0.21740 0.21300
H 	H 	0.82090 0.11230 0.23630 0.22200
C 	C 	0.00360 0.84380 0.14298 0.09500
H 	H 	0.02570 0.85680 0.15960 -0.02900
C 	C 	0.99030 0.77240 0.13217 -0.19200
H 	H 	0.00330 0.73810 0.14130 0.09100
C 	C 	0.95800 0.75210 0.10821 0.18900
C 	C 	0.93910 0.80350 0.09600 -0.22000
H 	H 	0.91630 0.79130 0.07950 0.10200
C 	C 	0.95360 0.87320 0.10808 0.11900
H 	H 	0.93910 0.90730 0.09960 -0.02400
C 	C 	0.94600 0.67650 0.09584 -0.31900
H 	H 	0.92860 0.63400 0.10890 0.12900
H 	H 	0.90350 0.65870 0.08290 0.12800
H 	H 	0.06540 0.70710 0.09640 -0.00800
Mn	Mn	0.07473 0.96505 0.21917 1.31000
O 	O 	0.14554 0.92619 0.21765 -0.46600
O 	O 	0.91462 0.84528 0.23104 -0.40100
N 	N 	0.09360 0.99550 0.17887 -0.31500
N 	N 	0.15630 0.00920 0.16982 -0.05800
N 	N 	0.21640 0.02220 0.16107 -0.09200
N 	N 	0.98410 0.85340 0.22063 -0.26100
N 	N 	0.10490 0.09210 0.13118 -0.26400
C 	C 	0.13170 0.85920 0.20657 0.29200
C 	C 	0.19810 0.85560 0.19725 -0.26000
H 	H 	0.24980 0.90110 0.19860 0.12400
C 	C 	0.18900 0.78670 0.18620 0.12900
H 	H 	0.23440 0.78500 0.18030 -0.02200
C 	C 	0.11360 0.72020 0.18374 -0.19500
H 	H 	0.10740 0.67340 0.17580 0.09100
C 	C 	0.04820 0.72200 0.19279 0.11500
H 	H 	0.99700 0.67600 0.19110 -0.00900
C 	C 	0.05490 0.79040 0.20464 -0.26100
C 	C 	0.98300 0.78750 0.21475 0.27700
C 	C 	0.90770 0.70930 0.21912 -0.63800
H 	H 	0.86750 0.70290 0.20660 0.22400
H 	H 	0.91910 0.66560 0.21740 0.21800
H 	H 	0.88770 0.70860 0.23630 0.22500
C 	C 	0.15620 0.15980 0.14298 0.12100
H 	H 	0.14320 0.16890 0.15960 -0.03800
C 	C 	0.22760 0.21790 0.13217 -0.22600
H 	H 	0.26190 0.26520 0.14130 0.10600
C 	C 	0.24790 0.20590 0.10821 0.20400
C 	C 	0.19650 0.13560 0.09600 -0.23300
H 	H 	0.20870 0.12500 0.07950 0.10400
C 	C 	0.12680 0.08040 0.10808 0.12300
H 	H 	0.09270 0.03180 0.09960 -0.03200
C 	C 	0.32350 0.26950 0.09584 -0.33200
H 	H 	0.36600 0.29460 0.10890 0.13100
H 	H 	0.34130 0.24480 0.08290 0.13100
H 	H 	0.29290 0.35830 0.09640 -0.00800
Mn	Mn	0.44301 0.70162 0.94749 1.30800
O 	O 	0.55268 0.74048 0.94902 -0.46800
O 	O 	0.40267 0.82139 0.93563 -0.40400
N 	N 	0.43143 0.67117 0.98780 -0.32000
N 	N 	0.48043 0.65747 0.99685 -0.05300
N 	N 	0.52753 0.64447 0.00560 -0.09000
N 	N 	0.46403 0.81327 0.94604 -0.26200
N 	N 	0.34613 0.57457 0.03549 -0.26200
C 	C 	0.60583 0.80747 0.96010 0.29100
C 	C 	0.67583 0.81107 0.96942 -0.26100
H 	H 	0.68203 0.76557 0.96807 0.12300
C 	C 	0.73563 0.87997 0.98047 0.13300
H 	H 	0.78273 0.88167 0.98637 -0.02200
C 	C 	0.72673 0.94647 0.98293 -0.20000
H 	H 	0.76733 0.99327 0.99087 0.09600
C 	C 	0.65953 0.94467 0.97388 0.12600
H 	H 	0.65433 0.99067 0.97557 -0.01400
C 	C 	0.59783 0.87627 0.96203 -0.25600
C 	C 	0.52883 0.87917 0.95192 0.26500
C 	C 	0.53173 0.95737 0.94755 -0.60900
H 	H 	0.49793 0.96377 0.96007 0.21700
H 	H 	0.58683 0.00107 0.94927 0.20300
H 	H 	0.51243 0.95807 0.93037 0.21800
C 	C 	0.32973 0.50687 0.02369 0.12100
H 	H 	0.30763 0.49777 0.00707 -0.03700
C 	C 	0.34303 0.44877 0.03450 -0.22600
H 	H 	0.33003 0.40147 0.02537 0.10600
C 	C 	0.37533 0.46077 0.05846 0.20400
C 	C 	0.39423 0.53107 0.07067 -0.23200
H 	H 	0.41703 0.54167 0.08717 0.10500
C 	C 	0.37973 0.58627 0.05859 0.12400
H 	H 	0.39423 0.63487 0.06707 -0.02900
C 	C 	0.38733 0.39717 0.07083 -0.33200
H 	H 	0.40473 0.37207 0.05777 0.13100
H 	H 	0.42983 0.42187 0.08377 0.13100
H 	H 	0.26793 0.30837 0.07027 -0.00800
Mn	Mn	0.25860 0.55699 0.94749 1.30800
O 	O 	0.18779 0.44732 0.94902 -0.46900
O 	O 	0.41871 0.59733 0.93563 -0.40300
N 	N 	0.23973 0.56857 0.98780 -0.32000
N 	N 	0.17703 0.51957 0.99685 -0.05300
N 	N 	0.11693 0.47247 0.00560 -0.09200
N 	N 	0.34923 0.53597 0.94604 -0.26300
N 	N 	0.22843 0.65387 0.03549 -0.26300
C 	C 	0.20163 0.39417 0.96010 0.29300
C 	C 	0.13523 0.32417 0.96942 -0.26300
H 	H 	0.08353 0.31797 0.96807 0.12100
C 	C 	0.14433 0.26437 0.98047 0.13300
H 	H 	0.09893 0.21727 0.98637 -0.02600
C 	C 	0.21973 0.27327 0.98293 -0.20300
H 	H 	0.22593 0.23267 0.99087 0.09400
C 	C 	0.28513 0.34047 0.97388 0.12800
H 	H 	0.33633 0.34567 0.97557 -0.01700
C 	C 	0.27843 0.40217 0.96203 -0.26000
C 	C 	0.35033 0.47117 0.95192 0.27100
C 	C 	0.42563 0.46827 0.94755 -0.63300
H 	H 	0.46583 0.50207 0.96007 0.22200
H 	H 	0.41423 0.41317 0.94927 0.21500
H 	H 	0.44563 0.48757 0.93037 0.22300
C 	C 	0.17713 0.67027 0.02369 0.12400
H 	H 	0.19013 0.69237 0.00707 -0.03800
C 	C 	0.10573 0.65697 0.03450 -0.23200
H 	H 	0.07143 0.66997 0.02537 0.10700
C 	C 	0.08543 0.62467 0.05846 0.21300
C 	C 	0.13683 0.60577 0.07067 -0.23900
H 	H 	0.12463 0.58297 0.08717 0.10600
C 	C 	0.20653 0.62027 0.05859 0.12600
H 	H 	0.24063 0.60577 0.06707 -0.03000
C 	C 	0.00983 0.61267 0.07083 -0.35900
H 	H 	0.96733 0.59527 0.05777 0.14200
H 	H 	0.99203 0.57017 0.08377 0.14300
H 	H 	0.04043 0.73207 0.07027 -0.00800
Mn	Mn	0.29838 0.74140 0.94749 1.30800
O 	O 	0.25952 0.81221 0.94902 -0.46900
O 	O 	0.17861 0.58129 0.93563 -0.40300
N 	N 	0.32883 0.76027 0.98780 -0.32000
N 	N 	0.34253 0.82297 0.99685 -0.05300
N 	N 	0.35553 0.88307 0.00560 -0.08900
N 	N 	0.18673 0.65077 0.94604 -0.26400
N 	N 	0.42543 0.77157 0.03549 -0.26100
C 	C 	0.19253 0.79837 0.96010 0.29500
C 	C 	0.18893 0.86477 0.96942 -0.26400
H 	H 	0.23443 0.91647 0.96807 0.12500
C 	C 	0.12003 0.85567 0.98047 0.13600
H 	H 	0.11833 0.90107 0.98637 -0.02300
C 	C 	0.05353 0.78027 0.98293 -0.20500
H 	H 	0.00673 0.77407 0.99087 0.09300
C 	C 	0.05533 0.71487 0.97388 0.13100
H 	H 	0.00933 0.66367 0.97557 -0.02100
C 	C 	0.12373 0.72157 0.96203 -0.26400
C 	C 	0.12083 0.64967 0.95192 0.27800
C 	C 	0.04263 0.57437 0.94755 -0.65700
H 	H 	0.03623 0.53417 0.96007 0.22800
H 	H 	0.99893 0.58577 0.94927 0.22800
H 	H 	0.04193 0.55437 0.93037 0.22900
C 	C 	0.49313 0.82287 0.02369 0.11900
H 	H 	0.50223 0.80987 0.00707 -0.03600
C 	C 	0.55123 0.89427 0.03450 -0.21900
H 	H 	0.59853 0.92857 0.02537 0.10500
C 	C 	0.53923 0.91457 0.05846 0.19500
C 	C 	0.46893 0.86317 0.07067 -0.22600
H 	H 	0.45833 0.87537 0.08717 0.10400
C 	C 	0.41373 0.79347 0.05859 0.12100
H 	H 	0.36513 0.75937 0.06707 -0.02700
C 	C 	0.60283 0.99017 0.07083 -0.30400
H 	H 	0.62793 0.03267 0.05777 0.11900
H 	H 	0.57813 0.00797 0.08377 0.11900
H 	H 	0.69163 0.95957 0.07027 -0.00500
Mn	Mn	0.00000 0.00000 0.15498 1.22300
O 	O 	-0.00000 0.00000 0.22159 -0.86300
Mn	Mn	0.33333 0.66667 0.01169 1.22800
O 	O 	0.33333 0.66667 0.94508 -0.85500
C 	C 	0.66667 0.97698 0.08333 0.12400
C 	C 	0.02302 0.68968 0.08333 0.12500
C 	C 	0.31032 0.33333 0.08333 0.12600
Mn	Mn	0.70162 0.44301 0.55251 1.30800
O 	O 	0.74048 0.55268 0.55098 -0.46800
O 	O 	0.82139 0.40267 0.56437 -0.40400
N 	N 	0.67117 0.43143 0.51220 -0.32000
N 	N 	0.65747 0.48043 0.50315 -0.05300
N 	N 	0.64447 0.52753 0.49440 -0.09000
N 	N 	0.81327 0.46403 0.55396 -0.26200
N 	N 	0.57457 0.34613 0.46451 -0.26200
C 	C 	0.80747 0.60583 0.53990 0.29100
C 	C 	0.81107 0.67583 0.53058 -0.26100
H 	H 	0.76557 0.68203 0.53193 0.12300
C 	C 	0.87997 0.73563 0.51953 0.13300
H 	H 	0.88167 0.78273 0.51363 -0.02200
C 	C 	0.94647 0.72673 0.51707 -0.20000
H 	H 	0.99327 0.76733 0.50913 0.09600
C 	C 	0.94467 0.65953 0.52612 0.12600
H 	H 	0.99067 0.65433 0.52443 -0.01400
C 	C 	0.87627 0.59783 0.53797 -0.25600
C 	C 	0.87917 0.52883 0.54808 0.26500
C 	C 	0.95737 0.53173 0.55245 -0.60900
H 	H 	0.96377 0.49793 0.53993 0.21700
H 	H 	0.00107 0.58683 0.55073 0.20300
H 	H 	0.95807 0.51243 0.56963 0.21800
C 	C 	0.50687 0.32973 0.47631 0.12100
H 	H 	0.49777 0.30763 0.49293 -0.03700
C 	C 	0.44877 0.34303 0.46550 -0.22600
H 	H 	0.40147 0.33003 0.47463 0.10600
C 	C 	0.46077 0.37533 0.44154 0.20400
C 	C 	0.53107 0.39423 0.42933 -0.23200
H 	H 	0.54167 0.41703 0.41283 0.10500
C 	C 	0.58627 0.37973 0.44141 0.12400
H 	H 	0.63487 0.39423 0.43293 -0.02900
C 	C 	0.39717 0.38733 0.42917 -0.33200
H 	H 	0.37207 0.40473 0.44223 0.13100
H 	H 	0.42187 0.42983 0.41623 0.13100
H 	H 	0.30837 0.26793 0.42973 -0.00800
Mn	Mn	0.55699 0.25860 0.55251 1.30800
O 	O 	0.44732 0.18779 0.55098 -0.46900
O 	O 	0.59733 0.41871 0.56437 -0.40300
N 	N 	0.56857 0.23973 0.51220 -0.32000
N 	N 	0.51957 0.17703 0.50315 -0.05300
N 	N 	0.47247 0.11693 0.49440 -0.09200
N 	N 	0.53597 0.34923 0.55396 -0.26300
N 	N 	0.65387 0.22843 0.46451 -0.26300
C 	C 	0.39417 0.20163 0.53990 0.29300
C 	C 	0.32417 0.13523 0.53058 -0.26300
H 	H 	0.31797 0.08353 0.53193 0.12100
C 	C 	0.26437 0.14433 0.51953 0.13300
H 	H 	0.21727 0.09893 0.51363 -0.02600
C 	C 	0.27327 0.21973 0.51707 -0.20300
H 	H 	0.23267 0.22593 0.50913 0.09400
C 	C 	0.34047 0.28513 0.52612 0.12800
H 	H 	0.34567 0.33633 0.52443 -0.01700
C 	C 	0.40217 0.27843 0.53797 -0.26000
C 	C 	0.47117 0.35033 0.54808 0.27100
C 	C 	0.46827 0.42563 0.55245 -0.63300
H 	H 	0.50207 0.46583 0.53993 0.22200
H 	H 	0.41317 0.41423 0.55073 0.21500
H 	H 	0.48757 0.44563 0.56963 0.22300
C 	C 	0.67027 0.17713 0.47631 0.12400
H 	H 	0.69237 0.19013 0.49293 -0.03800
C 	C 	0.65697 0.10573 0.46550 -0.23200
H 	H 	0.66997 0.07143 0.47463 0.10700
C 	C 	0.62467 0.08543 0.44154 0.21300
C 	C 	0.60577 0.13683 0.42933 -0.23900
H 	H 	0.58297 0.12463 0.41283 0.10600
C 	C 	0.62027 0.20653 0.44141 0.12600
H 	H 	0.60577 0.24063 0.43293 -0.03000
C 	C 	0.61267 0.00983 0.42917 -0.35900
H 	H 	0.59527 0.96733 0.44223 0.14200
H 	H 	0.57017 0.99203 0.41623 0.14300
H 	H 	0.73207 0.04043 0.42973 -0.00800
Mn	Mn	0.74140 0.29838 0.55251 1.30800
O 	O 	0.81221 0.25952 0.55098 -0.46900
O 	O 	0.58129 0.17861 0.56437 -0.40300
N 	N 	0.76027 0.32883 0.51220 -0.32000
N 	N 	0.82297 0.34253 0.50315 -0.05300
N 	N 	0.88307 0.35553 0.49440 -0.08900
N 	N 	0.65077 0.18673 0.55396 -0.26400
N 	N 	0.77157 0.42543 0.46451 -0.26100
C 	C 	0.79837 0.19253 0.53990 0.29500
C 	C 	0.86477 0.18893 0.53058 -0.26400
H 	H 	0.91647 0.23443 0.53193 0.12500
C 	C 	0.85567 0.12003 0.51953 0.13600
H 	H 	0.90107 0.11833 0.51363 -0.02300
C 	C 	0.78027 0.05353 0.51707 -0.20500
H 	H 	0.77407 0.00673 0.50913 0.09300
C 	C 	0.71487 0.05533 0.52612 0.13100
H 	H 	0.66367 0.00933 0.52443 -0.02100
C 	C 	0.72157 0.12373 0.53797 -0.26400
C 	C 	0.64967 0.12083 0.54808 0.27800
C 	C 	0.57437 0.04263 0.55245 -0.65700
H 	H 	0.53417 0.03623 0.53993 0.22800
H 	H 	0.58577 0.99893 0.55073 0.22800
H 	H 	0.55437 0.04193 0.56963 0.22900
C 	C 	0.82287 0.49313 0.47631 0.11900
H 	H 	0.80987 0.50223 0.49293 -0.03600
C 	C 	0.89427 0.55123 0.46550 -0.21900
H 	H 	0.92857 0.59853 0.47463 0.10500
C 	C 	0.91457 0.53923 0.44154 0.19500
C 	C 	0.86317 0.46893 0.42933 -0.22600
H 	H 	0.87537 0.45833 0.41283 0.10400
C 	C 	0.79347 0.41373 0.44141 0.12100
H 	H 	0.75937 0.36513 0.43293 -0.02700
C 	C 	0.99017 0.60283 0.42917 -0.30400
H 	H 	0.03267 0.62793 0.44223 0.11900
H 	H 	0.00797 0.57813 0.41623 0.11900
H 	H 	0.95957 0.69163 0.42973 -0.00500
Mn	Mn	0.10968 0.03495 0.28083 1.30700
O 	O 	0.21935 0.07381 0.28235 -0.47100
O 	O 	0.06934 0.15472 0.26896 -0.40600
N 	N 	0.09810 0.00450 0.32113 -0.32500
N 	N 	0.14710 0.99080 0.33018 -0.04900
N 	N 	0.19420 0.97780 0.33893 -0.08900
N 	N 	0.13070 0.14660 0.27937 -0.26300
N 	N 	0.01280 0.90790 0.36882 -0.26900
C 	C 	0.27250 0.14080 0.29343 0.29300
C 	C 	0.34250 0.14440 0.30275 -0.26300
H 	H 	0.34870 0.09890 0.30140 0.12200
C 	C 	0.40230 0.21330 0.31380 0.13400
H 	H 	0.44940 0.21500 0.31970 -0.02400
C 	C 	0.39340 0.27980 0.31626 -0.20300
H 	H 	0.43400 0.32660 0.32420 0.09400
C 	C 	0.32620 0.27800 0.30721 0.12800
H 	H 	0.32100 0.32400 0.30890 -0.01700
C 	C 	0.26450 0.20960 0.29536 -0.26000
C 	C 	0.19550 0.21250 0.28525 0.27100
C 	C 	0.19840 0.29070 0.28088 -0.63300
H 	H 	0.16460 0.29710 0.29340 0.22200
H 	H 	0.25350 0.33440 0.28260 0.21500
H 	H 	0.17910 0.29140 0.26370 0.22400
C 	C 	0.99640 0.84020 0.35702 0.14800
H 	H 	0.97430 0.83110 0.34040 -0.04300
C 	C 	0.00970 0.78210 0.36783 -0.25800
H 	H 	0.99670 0.73480 0.35870 0.12100
C 	C 	0.04200 0.79410 0.39179 0.21900
C 	C 	0.06090 0.86440 0.40400 -0.24300
H 	H 	0.08370 0.87500 0.42050 0.10800
C 	C 	0.04640 0.91960 0.39192 0.12900
H 	H 	0.06090 0.96820 0.40040 -0.02900
C 	C 	0.05400 0.73050 0.40416 -0.34300
H 	H 	0.07140 0.70540 0.39110 0.13300
H 	H 	0.09650 0.75520 0.41710 0.13400
H 	H 	0.93460 0.64170 0.40360 -0.00600
Mn	Mn	0.92527 0.89032 0.28083 1.31100
O 	O 	0.85446 0.78065 0.28235 -0.46800
O 	O 	0.08538 0.93066 0.26896 -0.40000
N 	N 	0.90640 0.90190 0.32113 -0.31700
N 	N 	0.84370 0.85290 0.33018 -0.05300
N 	N 	0.78360 0.80580 0.33893 -0.09000
N 	N 	0.01590 0.86930 0.27937 -0.26300
N 	N 	0.89510 0.98720 0.36882 -0.25100
C 	C 	0.86830 0.72750 0.29343 0.29400
C 	C 	0.80190 0.65750 0.30275 -0.26600
H 	H 	0.75020 0.65130 0.30140 0.12400
C 	C 	0.81100 0.59770 0.31380 0.13900
H 	H 	0.76560 0.55060 0.31970 -0.02500
C 	C 	0.88640 0.60660 0.31626 -0.21100
H 	H 	0.89260 0.56600 0.32420 0.09800
C 	C 	0.95180 0.67380 0.30721 0.14100
H 	H 	0.00300 0.67900 0.30890 -0.02600
C 	C 	0.94510 0.73550 0.29536 -0.25800
C 	C 	0.01700 0.80450 0.28525 0.26500
C 	C 	0.09230 0.80160 0.28088 -0.62800
H 	H 	0.13250 0.83540 0.29340 0.22100
H 	H 	0.08090 0.74650 0.28260 0.21300
H 	H 	0.11230 0.82090 0.26370 0.22200
C 	C 	0.84380 0.00360 0.35702 0.09500
H 	H 	0.85680 0.02570 0.34040 -0.02900
C 	C 	0.77240 0.99030 0.36783 -0.19200
H 	H 	0.73810 0.00330 0.35870 0.09100
C 	C 	0.75210 0.95800 0.39179 0.18900
C 	C 	0.80350 0.93910 0.40400 -0.22000
H 	H 	0.79130 0.91630 0.42050 0.10200
C 	C 	0.87320 0.95360 0.39192 0.11900
H 	H 	0.90730 0.93910 0.40040 -0.02400
C 	C 	0.67650 0.94600 0.40416 -0.31900
H 	H 	0.63400 0.92860 0.39110 0.12900
H 	H 	0.65870 0.90350 0.41710 0.12800
H 	H 	0.70710 0.06540 0.40360 -0.00800
Mn	Mn	0.96505 0.07473 0.28083 1.31000
O 	O 	0.92619 0.14554 0.28235 -0.46600
O 	O 	0.84528 0.91462 0.26896 -0.40100
N 	N 	0.99550 0.09360 0.32113 -0.31500
N 	N 	0.00920 0.15630 0.33018 -0.05800
N 	N 	0.02220 0.21640 0.33893 -0.09200
N 	N 	0.85340 0.98410 0.27937 -0.26100
N 	N 	0.09210 0.10490 0.36882 -0.26400
C 	C 	0.85920 0.13170 0.29343 0.29200
C 	C 	0.85560 0.19810 0.30275 -0.26000
H 	H 	0.90110 0.24980 0.30140 0.12400
C 	C 	0.78670 0.18900 0.31380 0.12900
H 	H 	0.78500 0.23440 0.31970 -0.02200
C 	C 	0.72020 0.11360 0.31626 -0.19500
H 	H 	0.67340 0.10740 0.32420 0.09100
C 	C 	0.72200 0.04820 0.30721 0.11500
H 	H 	0.67600 0.99700 0.30890 -0.00900
C 	C 	0.79040 0.05490 0.29536 -0.26100
C 	C 	0.78750 0.98300 0.28525 0.27700
C 	C 	0.70930 0.90770 0.28088 -0.63800
H 	H 	0.70290 0.86750 0.29340 0.22400
H 	H 	0.66560 0.91910 0.28260 0.21800
H 	H 	0.70860 0.88770 0.26370 0.22500
C 	C 	0.15980 0.15620 0.35702 0.12100
H 	H 	0.16890 0.14320 0.34040 -0.03800
C 	C 	0.21790 0.22760 0.36783 -0.22600
H 	H 	0.26520 0.26190 0.35870 0.10600
C 	C 	0.20590 0.24790 0.39179 0.20400
C 	C 	0.13560 0.19650 0.40400 -0.23300
H 	H 	0.12500 0.20870 0.42050 0.10400
C 	C 	0.08040 0.12680 0.39192 0.12300
H 	H 	0.03180 0.09270 0.40040 -0.03200
C 	C 	0.26950 0.32350 0.40416 -0.33200
H 	H 	0.29460 0.36600 0.39110 0.13100
H 	H 	0.24480 0.34130 0.41710 0.13100
H 	H 	0.35830 0.29290 0.40360 -0.00800
Mn	Mn	0.66667 0.33333 0.48831 1.22800
O 	O 	0.66667 0.33333 0.55492 -0.85500
Mn	Mn	0.00000 0.00000 0.34502 1.22300
O 	O 	0.00000 0.00000 0.27841 -0.86300
C 	C 	0.97698 0.66667 0.41667 0.12400
C 	C 	0.68968 0.02302 0.41667 0.12500
C 	C 	0.33333 0.31032 0.41667 0.12600
Mn	Mn	0.36828 0.77635 0.88584 1.30800
O 	O 	0.40714 0.88602 0.88432 -0.47200
O 	O 	0.48805 0.73601 0.89771 -0.40300
N 	N 	0.33783 0.76477 0.84554 -0.32000
N 	N 	0.32413 0.81377 0.83649 -0.05300
N 	N 	0.31113 0.86087 0.82774 -0.08900
N 	N 	0.47993 0.79737 0.88730 -0.26400
N 	N 	0.24123 0.67947 0.79785 -0.26100
C 	C 	0.47413 0.93917 0.87324 0.31000
C 	C 	0.47773 0.00917 0.86392 -0.28500
H 	H 	0.43223 0.01537 0.86527 0.12900
C 	C 	0.54663 0.06897 0.85287 0.15300
H 	H 	0.54833 0.11607 0.84697 -0.03000
C 	C 	0.61313 0.06007 0.85041 -0.22900
H 	H 	0.65993 0.10067 0.84247 0.10200
C 	C 	0.61133 0.99287 0.85946 0.15200
H 	H 	0.65733 0.98767 0.85777 -0.02400
C 	C 	0.54293 0.93117 0.87131 -0.27200
C 	C 	0.54583 0.86217 0.88142 0.27700
C 	C 	0.62403 0.86507 0.88579 -0.63900
H 	H 	0.63043 0.83127 0.87327 0.22400
H 	H 	0.66773 0.92017 0.88407 0.21800
H 	H 	0.62473 0.84577 0.90297 0.22500
C 	C 	0.17353 0.66307 0.80965 0.11900
H 	H 	0.16443 0.64097 0.82627 -0.03600
C 	C 	0.11543 0.67637 0.79884 -0.22100
H 	H 	0.06813 0.66337 0.80797 0.10300
C 	C 	0.12743 0.70867 0.77488 0.19700
C 	C 	0.19773 0.72757 0.76267 -0.22800
H 	H 	0.20833 0.75037 0.74617 0.10300
C 	C 	0.25293 0.71307 0.77475 0.12100
H 	H 	0.30153 0.72757 0.76627 -0.02800
C 	C 	0.06383 0.72067 0.76251 -0.31600
H 	H 	0.03873 0.73807 0.77557 0.12500
H 	H 	0.08853 0.76317 0.74957 0.12600
H 	H 	0.97503 0.60127 0.76307 0.00600
Mn	Mn	0.22365 0.59194 0.88584 1.30800
O 	O 	0.11398 0.52113 0.88432 -0.46600
O 	O 	0.26399 0.75205 0.89771 -0.40300
N 	N 	0.23523 0.57307 0.84554 -0.32000
N 	N 	0.18623 0.51037 0.83649 -0.05300
N 	N 	0.13913 0.45027 0.82774 -0.09100
N 	N 	0.20263 0.68257 0.88730 -0.26200
N 	N 	0.32053 0.56177 0.79785 -0.26200
C 	C 	0.06083 0.53497 0.87324 0.27700
C 	C 	0.99083 0.46857 0.86392 -0.24000
H 	H 	0.98463 0.41687 0.86527 0.11800
C 	C 	0.93103 0.47767 0.85287 0.11500
H 	H 	0.88393 0.43227 0.84697 -0.01700
C 	C 	0.93993 0.55307 0.85041 -0.17700
H 	H 	0.89933 0.55927 0.84247 0.08700
C 	C 	0.00713 0.61847 0.85946 0.10500
H 	H 	0.01233 0.66967 0.85777 -0.01100
C 	C 	0.06883 0.61177 0.87131 -0.24800
C 	C 	0.13783 0.68367 0.88142 0.26600
C 	C 	0.13493 0.75897 0.88579 -0.62800
H 	H 	0.16873 0.79917 0.87327 0.22100
H 	H 	0.07983 0.74757 0.88407 0.21300
H 	H 	0.15423 0.77897 0.90297 0.22200
C 	C 	0.33693 0.51047 0.80965 0.12100
H 	H 	0.35903 0.52347 0.82627 -0.03700
C 	C 	0.32363 0.43907 0.79884 -0.22500
H 	H 	0.33663 0.40477 0.80797 0.10600
C 	C 	0.29133 0.41877 0.77488 0.20400
C 	C 	0.27243 0.47017 0.76267 -0.23200
H 	H 	0.24963 0.45797 0.74617 0.10500
C 	C 	0.28693 0.53987 0.77475 0.12300
H 	H 	0.27243 0.57397 0.76627 -0.02900
C 	C 	0.27933 0.34317 0.76251 -0.33200
H 	H 	0.26193 0.30067 0.77557 0.13100
H 	H 	0.23683 0.32537 0.74957 0.13100
H 	H 	0.39873 0.37377 0.76307 -0.00700
Mn	Mn	0.40806 0.63172 0.88584 1.30800
O 	O 	0.47887 0.59286 0.88432 -0.46900
O 	O 	0.24795 0.51195 0.89771 -0.40400
N 	N 	0.42693 0.66217 0.84554 -0.32000
N 	N 	0.48963 0.67587 0.83649 -0.05300
N 	N 	0.54973 0.68887 0.82774 -0.09000
N 	N 	0.31743 0.52007 0.88730 -0.26300
N 	N 	0.43823 0.75877 0.79785 -0.26100
C 	C 	0.46503 0.52587 0.87324 0.29300
C 	C 	0.53143 0.52227 0.86392 -0.26300
H 	H 	0.58313 0.56777 0.86527 0.12300
C 	C 	0.52233 0.45337 0.85287 0.13400
H 	H 	0.56773 0.45167 0.84697 -0.02400
C 	C 	0.44693 0.38687 0.85041 -0.20300
H 	H 	0.44073 0.34007 0.84247 0.09400
C 	C 	0.38153 0.38867 0.85946 0.12800
H 	H 	0.33033 0.34267 0.85777 -0.01700
C 	C 	0.38823 0.45707 0.87131 -0.26000
C 	C 	0.31633 0.45417 0.88142 0.27100
C 	C 	0.24103 0.37597 0.88579 -0.63200
H 	H 	0.20083 0.36957 0.87327 0.22200
H 	H 	0.25243 0.33227 0.88407 0.21500
H 	H 	0.22103 0.37527 0.90297 0.22300
C 	C 	0.48953 0.82647 0.80965 0.12000
H 	H 	0.47653 0.83557 0.82627 -0.03600
C 	C 	0.56093 0.88457 0.79884 -0.22000
H 	H 	0.59523 0.93187 0.80797 0.10600
C 	C 	0.58123 0.87257 0.77488 0.19700
C 	C 	0.52983 0.80227 0.76267 -0.22800
H 	H 	0.54203 0.79167 0.74617 0.10300
C 	C 	0.46013 0.74707 0.77475 0.12100
H 	H 	0.42603 0.69847 0.76627 -0.02800
C 	C 	0.65683 0.93617 0.76251 -0.31100
H 	H 	0.69933 0.96127 0.77557 0.12700
H 	H 	0.67463 0.91147 0.74957 0.12600
H 	H 	0.62623 0.02497 0.76307 -0.00100
Mn	Mn	0.77635 0.36828 0.61416 1.30800
O 	O 	0.88602 0.40714 0.61568 -0.47200
O 	O 	0.73601 0.48805 0.60229 -0.40300
N 	N 	0.76477 0.33783 0.65446 -0.32000
N 	N 	0.81377 0.32413 0.66351 -0.05300
N 	N 	0.86087 0.31113 0.67226 -0.08900
N 	N 	0.79737 0.47993 0.61270 -0.26400
N 	N 	0.67947 0.24123 0.70215 -0.26100
C 	C 	0.93917 0.47413 0.62676 0.31000
C 	C 	0.00917 0.47773 0.63608 -0.28500
H 	H 	0.01537 0.43223 0.63473 0.12900
C 	C 	0.06897 0.54663 0.64713 0.15300
H 	H 	0.11607 0.54833 0.65303 -0.03000
C 	C 	0.06007 0.61313 0.64959 -0.22900
H 	H 	0.10067 0.65993 0.65753 0.10200
C 	C 	0.99287 0.61133 0.64054 0.15200
H 	H 	0.98767 0.65733 0.64223 -0.02400
C 	C 	0.93117 0.54293 0.62869 -0.27200
C 	C 	0.86217 0.54583 0.61858 0.27700
C 	C 	0.86507 0.62403 0.61421 -0.63900
H 	H 	0.83127 0.63043 0.62673 0.22400
H 	H 	0.92017 0.66773 0.61593 0.21800
H 	H 	0.84577 0.62473 0.59703 0.22500
C 	C 	0.66307 0.17353 0.69035 0.11900
H 	H 	0.64097 0.16443 0.67373 -0.03600
C 	C 	0.67637 0.11543 0.70116 -0.22100
H 	H 	0.66337 0.06813 0.69203 0.10300
C 	C 	0.70867 0.12743 0.72512 0.19700
C 	C 	0.72757 0.19773 0.73733 -0.22800
H 	H 	0.75037 0.20833 0.75383 0.10300
C 	C 	0.71307 0.25293 0.72525 0.12100
H 	H 	0.72757 0.30153 0.73373 -0.02800
C 	C 	0.72067 0.06383 0.73749 -0.31600
H 	H 	0.73807 0.03873 0.72443 0.12500
H 	H 	0.76317 0.08853 0.75043 0.12600
H 	H 	0.60127 0.97503 0.73693 0.00600
Mn	Mn	0.59194 0.22365 0.61416 1.30800
O 	O 	0.52113 0.11398 0.61568 -0.46600
O 	O 	0.75205 0.26399 0.60229 -0.40300
N 	N 	0.57307 0.23523 0.65446 -0.32000
N 	N 	0.51037 0.18623 0.66351 -0.05300
N 	N 	0.45027 0.13913 0.67226 -0.09100
N 	N 	0.68257 0.20263 0.61270 -0.26200
N 	N 	0.56177 0.32053 0.70215 -0.26200
C 	C 	0.53497 0.06083 0.62676 0.27700
C 	C 	0.46857 0.99083 0.63608 -0.24000
H 	H 	0.41687 0.98463 0.63473 0.11800
C 	C 	0.47767 0.93103 0.64713 0.11500
H 	H 	0.43227 0.88393 0.65303 -0.01700
C 	C 	0.55307 0.93993 0.64959 -0.17700
H 	H 	0.55927 0.89933 0.65753 0.08700
C 	C 	0.61847 0.00713 0.64054 0.10500
H 	H 	0.66967 0.01233 0.64223 -0.01100
C 	C 	0.61177 0.06883 0.62869 -0.24800
C 	C 	0.68367 0.13783 0.61858 0.26600
C 	C 	0.75897 0.13493 0.61421 -0.62800
H 	H 	0.79917 0.16873 0.62673 0.22100
H 	H 	0.74757 0.07983 0.61593 0.21300
H 	H 	0.77897 0.15423 0.59703 0.22200
C 	C 	0.51047 0.33693 0.69035 0.12100
H 	H 	0.52347 0.35903 0.67373 -0.03700
C 	C 	0.43907 0.32363 0.70116 -0.22500
H 	H 	0.40477 0.33663 0.69203 0.10600
C 	C 	0.41877 0.29133 0.72512 0.20400
C 	C 	0.47017 0.27243 0.73733 -0.23200
H 	H 	0.45797 0.24963 0.75383 0.10500
C 	C 	0.53987 0.28693 0.72525 0.12300
H 	H 	0.57397 0.27243 0.73373 -0.02900
C 	C 	0.34317 0.27933 0.73749 -0.33200
H 	H 	0.30067 0.26193 0.72443 0.13100
H 	H 	0.32537 0.23683 0.75043 0.13100
H 	H 	0.37377 0.39873 0.73693 -0.00700
Mn	Mn	0.63172 0.40806 0.61416 1.30800
O 	O 	0.59286 0.47887 0.61568 -0.46900
O 	O 	0.51195 0.24795 0.60229 -0.40400
N 	N 	0.66217 0.42693 0.65446 -0.32000
N 	N 	0.67587 0.48963 0.66351 -0.05300
N 	N 	0.68887 0.54973 0.67226 -0.09000
N 	N 	0.52007 0.31743 0.61270 -0.26300
N 	N 	0.75877 0.43823 0.70215 -0.26100
C 	C 	0.52587 0.46503 0.62676 0.29300
C 	C 	0.52227 0.53143 0.63608 -0.26300
H 	H 	0.56777 0.58313 0.63473 0.12300
C 	C 	0.45337 0.52233 0.64713 0.13400
H 	H 	0.45167 0.56773 0.65303 -0.02400
C 	C 	0.38687 0.44693 0.64959 -0.20300
H 	H 	0.34007 0.44073 0.65753 0.09400
C 	C 	0.38867 0.38153 0.64054 0.12800
H 	H 	0.34267 0.33033 0.64223 -0.01700
C 	C 	0.45707 0.38823 0.62869 -0.26000
C 	C 	0.45417 0.31633 0.61858 0.27100
C 	C 	0.37597 0.24103 0.61421 -0.63200
H 	H 	0.36957 0.20083 0.62673 0.22200
H 	H 	0.33227 0.25243 0.61593 0.21500
H 	H 	0.37527 0.22103 0.59703 0.22300
C 	C 	0.82647 0.48953 0.69035 0.12000
H 	H 	0.83557 0.47653 0.67373 -0.03600
C 	C 	0.88457 0.56093 0.70116 -0.22100
H 	H 	0.93187 0.59523 0.69203 0.10600
C 	C 	0.87257 0.58123 0.72512 0.19700
C 	C 	0.80227 0.52983 0.73733 -0.22800
H 	H 	0.79167 0.54203 0.75383 0.10300
C 	C 	0.74707 0.46013 0.72525 0.12100
H 	H 	0.69847 0.42603 0.73373 -0.02800
C 	C 	0.93617 0.65683 0.73749 -0.31100
H 	H 	0.96127 0.69933 0.72443 0.12700
H 	H 	0.91147 0.67463 0.75043 0.12600
H 	H 	0.02497 0.62623 0.73693 -0.00100
Mn	Mn	0.33333 0.66667 0.82165 1.22800
O 	O 	0.33333 0.66667 0.88826 -0.85500
Mn	Mn	0.66667 0.33333 0.67835 1.22800
O 	O 	0.66667 0.33333 0.61174 -0.85500
C 	C 	0.64365 -0.00000 0.75000 0.09400
C 	C 	0.35635 0.35635 0.75000 0.12400
C 	C 	-0.00000 0.64365 0.75000 0.09400
