data_crystal

_cell_length_a 7.81210
_cell_length_b 7.96120
_cell_length_c 13.17280
_cell_angle_alpha 90.00000
_cell_angle_beta  90.00000
_cell_angle_gamma 90.00000

_symmetry_space_group_name_	'P 1'
_symmetry_space_group_name_H-M	'P 1'

loop_
_symmetry_equiv_pos_as_xyz
  x,y,z

loop_
_atom_site_label
_atom_site_type_symbol
_atom_site_fract_x
_atom_site_fract_y
_atom_site_fract_z
_atom_site_charge
Mn	Mn	0.55335 0.49461 0.08543 1.32800
C 	C 	0.41580 0.22490 0.23529 0.43800
H 	H 	0.52020 0.17360 0.22150 -0.10400
C 	C 	0.29310 0.77220 0.03257 0.50600
H 	H 	0.35690 0.77910 0.97310 -0.12300
C 	C 	0.31190 0.27680 0.95870 0.46600
H 	H 	0.23900 0.29520 0.01340 -0.11300
O 	O 	0.38550 0.36010 0.19145 -0.38500
O 	O 	0.31790 0.15170 0.29651 -0.36900
O 	O 	0.34230 0.67000 0.09459 -0.42400
O 	O 	0.16880 0.86830 0.03839 -0.41500
O 	O 	0.45110 0.35050 0.96043 -0.40000
O 	O 	0.25930 0.18000 0.89068 -0.40100
Mn	Mn	0.94665 0.50539 0.58543 1.32800
C 	C 	0.08420 0.77510 0.73529 0.44800
H 	H 	0.97980 0.82640 0.72150 -0.11100
C 	C 	0.20690 0.22780 0.53257 0.51200
H 	H 	0.14310 0.22090 0.47310 -0.12700
C 	C 	0.18810 0.72320 0.45870 0.47000
H 	H 	0.26100 0.70480 0.51340 -0.11600
O 	O 	0.11450 0.63990 0.69145 -0.38700
O 	O 	0.18210 0.84830 0.79651 -0.37100
O 	O 	0.15770 0.33000 0.59459 -0.42600
O 	O 	0.33120 0.13170 0.53839 -0.41700
O 	O 	0.04890 0.64950 0.46043 -0.39900
O 	O 	0.24070 0.82000 0.39068 -0.40100
Mn	Mn	0.44665 0.99461 0.41457 1.32800
C 	C 	0.58420 0.72490 0.26471 0.43900
H 	H 	0.47980 0.67360 0.27850 -0.10500
C 	C 	0.70690 0.27220 0.46743 0.51300
H 	H 	0.64310 0.27910 0.52690 -0.12700
C 	C 	0.68810 0.77680 0.54130 0.47100
H 	H 	0.76100 0.79520 0.48660 -0.11800
O 	O 	0.61450 0.86010 0.30855 -0.38800
O 	O 	0.68210 0.65170 0.20349 -0.37200
O 	O 	0.65770 0.17000 0.40541 -0.42400
O 	O 	0.83120 0.36830 0.46161 -0.41800
O 	O 	0.54890 0.85050 0.53957 -0.40200
O 	O 	0.74070 0.68000 0.60932 -0.40200
Mn	Mn	0.05335 0.00539 0.91457 1.32700
C 	C 	0.91580 0.27510 0.76471 0.44000
H 	H 	0.02020 0.32640 0.77850 -0.10700
C 	C 	0.79310 0.72780 0.96743 0.52700
H 	H 	0.85690 0.72090 0.02690 -0.13700
C 	C 	0.81190 0.22320 0.04130 0.46900
H 	H 	0.73900 0.20480 0.98660 -0.11600
O 	O 	0.88550 0.13990 0.80855 -0.38300
O 	O 	0.81790 0.34830 0.70349 -0.37100
O 	O 	0.84230 0.83000 0.90541 -0.43000
O 	O 	0.66880 0.63170 0.96161 -0.42000
O 	O 	0.95110 0.14950 0.03957 -0.40000
O 	O 	0.75930 0.32000 0.10932 -0.40100
