data_crystal

_cell_length_a 7.68920
_cell_length_b 7.73850
_cell_length_c 13.02050
_cell_angle_alpha 90.00000
_cell_angle_beta  90.00000
_cell_angle_gamma 90.00000

_symmetry_space_group_name_	'P 1'
_symmetry_space_group_name_H-M	'P 1'

loop_
_symmetry_equiv_pos_as_xyz
  x,y,z

loop_
_atom_site_label
_atom_site_type_symbol
_atom_site_fract_x
_atom_site_fract_y
_atom_site_fract_z
_atom_site_charge
Zn	Zn	0.55141 0.49392 0.08401 1.25100
C 	C 	0.42510 0.22610 0.23711 0.43500
H 	H 	0.53290 0.17550 0.22510 -0.09200
C 	C 	0.29400 0.77090 0.02716 0.48500
H 	H 	0.35730 0.77660 0.96640 -0.10600
C 	C 	0.31300 0.26850 0.96370 0.45200
H 	H 	0.24610 0.27730 0.02300 -0.10100
O 	O 	0.39013 0.36258 0.19000 -0.37600
O 	O 	0.32545 0.15285 0.29924 -0.35900
O 	O 	0.34330 0.66620 0.09153 -0.40800
O 	O 	0.16726 0.87029 0.03528 -0.40100
O 	O 	0.45045 0.35080 0.96080 -0.38700
O 	O 	0.25623 0.17330 0.89259 -0.39100
Zn	Zn	0.94859 0.50608 0.58401 1.25200
C 	C 	0.07490 0.77390 0.73711 0.44500
H 	H 	0.96710 0.82450 0.72510 -0.09900
C 	C 	0.20600 0.22910 0.52716 0.49100
H 	H 	0.14270 0.22340 0.46640 -0.10900
C 	C 	0.18700 0.73150 0.46370 0.45700
H 	H 	0.25390 0.72270 0.52300 -0.10400
O 	O 	0.10987 0.63742 0.69000 -0.37800
O 	O 	0.17455 0.84715 0.79924 -0.36100
O 	O 	0.15670 0.33380 0.59153 -0.41000
O 	O 	0.33274 0.12971 0.53528 -0.40300
O 	O 	0.04955 0.64920 0.46080 -0.38700
O 	O 	0.24377 0.82670 0.39259 -0.39100
Zn	Zn	0.44859 0.99392 0.41599 1.25200
C 	C 	0.57490 0.72610 0.26289 0.43700
H 	H 	0.46710 0.67550 0.27490 -0.09300
C 	C 	0.70600 0.27090 0.47284 0.49200
H 	H 	0.64270 0.27660 0.53360 -0.10900
C 	C 	0.68700 0.76850 0.53630 0.45700
H 	H 	0.75390 0.77730 0.47700 -0.10600
O 	O 	0.60987 0.86258 0.31000 -0.37900
O 	O 	0.67455 0.65285 0.20076 -0.36200
O 	O 	0.65670 0.16620 0.40847 -0.40800
O 	O 	0.83274 0.37029 0.46472 -0.40400
O 	O 	0.54955 0.85080 0.53920 -0.38900
O 	O 	0.74377 0.67330 0.60741 -0.39200
Zn	Zn	0.05141 0.00608 0.91599 1.25100
C 	C 	0.92510 0.27390 0.76289 0.43900
H 	H 	0.03290 0.32450 0.77490 -0.09400
C 	C 	0.79400 0.72910 0.97284 0.50500
H 	H 	0.85730 0.72340 0.03360 -0.11900
C 	C 	0.81300 0.23150 0.03630 0.45500
H 	H 	0.74610 0.22270 0.97700 -0.10300
O 	O 	0.89013 0.13742 0.81000 -0.37500
O 	O 	0.82545 0.34715 0.70076 -0.36100
O 	O 	0.84330 0.83380 0.90847 -0.41400
O 	O 	0.66726 0.62971 0.96472 -0.40700
O 	O 	0.95045 0.14920 0.03920 -0.38700
O 	O 	0.75623 0.32670 0.10741 -0.39100
