data_crystal

_cell_length_a 7.68830
_cell_length_b 7.78750
_cell_length_c 12.85580
_cell_angle_alpha 90.00000
_cell_angle_beta  90.00000
_cell_angle_gamma 90.00000

_symmetry_space_group_name_	'P 1'
_symmetry_space_group_name_H-M	'P 1'

loop_
_symmetry_equiv_pos_as_xyz
  x,y,z

loop_
_atom_site_label
_atom_site_type_symbol
_atom_site_fract_x
_atom_site_fract_y
_atom_site_fract_z
_atom_site_charge
Mg	Mg	0.55363 0.49437 0.08445 1.48100
C 	C 	0.42750 0.22340 0.23615 0.48100
H 	H 	0.53340 0.17060 0.22190 -0.11400
C 	C 	0.30280 0.77880 0.02788 0.54400
H 	H 	0.37600 0.79890 0.97160 -0.12800
C 	C 	0.31010 0.27600 0.96274 0.51500
H 	H 	0.23520 0.29810 0.01790 -0.12400
O 	O 	0.39602 0.36228 0.19084 -0.42500
O 	O 	0.32831 0.14995 0.29880 -0.41200
O 	O 	0.34694 0.66409 0.08794 -0.46300
O 	O 	0.17129 0.87066 0.03392 -0.45800
O 	O 	0.45163 0.35039 0.96352 -0.44500
O 	O 	0.25786 0.17326 0.89438 -0.44600
Mg	Mg	0.94637 0.50563 0.58445 1.48000
C 	C 	0.07250 0.77660 0.73615 0.49100
H 	H 	0.96660 0.82940 0.72190 -0.12200
C 	C 	0.19720 0.22120 0.52788 0.55200
H 	H 	0.12400 0.20110 0.47160 -0.13300
C 	C 	0.18990 0.72400 0.46274 0.52100
H 	H 	0.26480 0.70190 0.51790 -0.12800
O 	O 	0.10398 0.63772 0.69084 -0.42800
O 	O 	0.17169 0.85005 0.79880 -0.41400
O 	O 	0.15306 0.33591 0.58794 -0.46500
O 	O 	0.32871 0.12934 0.53392 -0.46100
O 	O 	0.04837 0.64961 0.46352 -0.44500
O 	O 	0.24214 0.82674 0.39438 -0.44500
Mg	Mg	0.44637 0.99437 0.41555 1.48000
C 	C 	0.57250 0.72340 0.26385 0.48100
H 	H 	0.46660 0.67060 0.27810 -0.11500
C 	C 	0.69720 0.27880 0.47212 0.55300
H 	H 	0.62400 0.29890 0.52840 -0.13300
C 	C 	0.68990 0.77600 0.53726 0.52100
H 	H 	0.76480 0.79810 0.48210 -0.13000
O 	O 	0.60398 0.86228 0.30916 -0.42900
O 	O 	0.67169 0.64995 0.20120 -0.41500
O 	O 	0.65306 0.16409 0.41206 -0.46400
O 	O 	0.82871 0.37066 0.46608 -0.46200
O 	O 	0.54837 0.85039 0.53648 -0.44800
O 	O 	0.74214 0.67326 0.60562 -0.44700
Mg	Mg	0.05363 0.00563 0.91555 1.48000
C 	C 	0.92750 0.27660 0.76385 0.48300
H 	H 	0.03340 0.32940 0.77810 -0.11700
C 	C 	0.80280 0.72120 0.97212 0.56800
H 	H 	0.87600 0.70110 0.02840 -0.14400
C 	C 	0.81010 0.22400 0.03726 0.52000
H 	H 	0.73520 0.20190 0.98210 -0.12700
O 	O 	0.89602 0.13772 0.80916 -0.42400
O 	O 	0.82831 0.35005 0.70120 -0.41400
O 	O 	0.84694 0.83591 0.91206 -0.47000
O 	O 	0.67129 0.62934 0.96608 -0.46500
O 	O 	0.95163 0.14961 0.03648 -0.44500
O 	O 	0.75786 0.32674 0.10562 -0.44600
