data_crystal

_cell_length_a 20.46300
_cell_length_b 43.25200
_cell_length_c 43.25200
_cell_angle_alpha 120.00000
_cell_angle_beta  90.00000
_cell_angle_gamma 90.00000

_symmetry_space_group_name_	'P 1'
_symmetry_space_group_name_H-M	'P 1'

loop_
_symmetry_equiv_pos_as_xyz
  x,y,z

loop_
_atom_site_label
_atom_site_type_symbol
_atom_site_fract_x
_atom_site_fract_y
_atom_site_fract_z
_atom_site_charge
Cu	Cu	0.95130 0.68087 0.02737 0.90000
Cu	Cu	0.95130 0.34650 0.31913 0.90000
Cu	Cu	0.95130 0.97263 0.65350 0.90000
Cu	Cu	0.45130 0.31913 0.97263 0.90000
Cu	Cu	0.45130 0.65350 0.68087 0.90000
Cu	Cu	0.45130 0.02737 0.34650 0.90000
Cu	Cu	0.04870 0.65350 0.97263 0.90000
Cu	Cu	0.04870 0.02737 0.68087 0.90000
Cu	Cu	0.04870 0.31913 0.34650 0.90000
Cu	Cu	0.54870 0.34650 0.02737 0.90000
Cu	Cu	0.54870 0.97263 0.31913 0.89900
Cu	Cu	0.54870 0.68087 0.65350 0.89900
H 	H 	0.95240 0.54920 0.91250 0.06300
H 	H 	0.74780 0.55080 0.95950 0.06800
H 	H 	0.81310 0.60140 0.98590 0.05300
H 	H 	0.93210 0.48880 0.86440 0.03200
H 	H 	0.85350 0.43660 0.84500 0.10900
H 	H 	0.78740 0.36150 0.80970 0.07600
H 	H 	0.76390 0.33160 0.75160 0.02600
H 	H 	0.23110 0.79050 0.01130 0.04200
H 	H 	0.16630 0.75170 0.01100 0.06900
H 	H 	0.03010 0.77550 0.08660 0.05800
H 	H 	0.06780 0.83390 0.11750 0.06300
H 	H 	0.27800 0.84890 0.03470 0.07300
H 	H 	0.71280 0.49360 0.91110 0.10100
H 	H 	0.15000 0.88410 0.12010 0.08700
H 	H 	0.33840 0.98350 0.06650 0.04100
H 	H 	0.34290 0.94530 0.09390 0.07400
H 	H 	0.95240 0.36330 0.45080 0.06300
H 	H 	0.74780 0.40870 0.44920 0.06800
H 	H 	0.81310 0.38450 0.39860 0.05300
H 	H 	0.93210 0.37560 0.51120 0.03200
H 	H 	0.85350 0.40840 0.56340 0.10900
H 	H 	0.78740 0.44820 0.63850 0.07600
H 	H 	0.76390 0.42000 0.66840 0.02600
H 	H 	0.23110 0.22080 0.20950 0.04200
H 	H 	0.16630 0.25930 0.24830 0.06900
H 	H 	0.03010 0.31110 0.22450 0.05800
H 	H 	0.06780 0.28360 0.16610 0.06300
H 	H 	0.27800 0.18580 0.15110 0.07300
H 	H 	0.71280 0.41750 0.50640 0.10100
H 	H 	0.15000 0.23600 0.11590 0.08700
H 	H 	0.33840 0.08300 0.01650 0.04100
H 	H 	0.34290 0.14860 0.05470 0.07400
H 	H 	0.95240 0.08750 0.63670 0.06300
H 	H 	0.74780 0.04050 0.59130 0.06800
H 	H 	0.81310 0.01410 0.61550 0.05300
H 	H 	0.93210 0.13560 0.62440 0.03200
H 	H 	0.85350 0.15500 0.59160 0.10900
H 	H 	0.78740 0.19030 0.55180 0.07600
H 	H 	0.76390 0.24840 0.58000 0.02600
H 	H 	0.23110 0.98870 0.77920 0.04200
H 	H 	0.16630 0.98900 0.74070 0.06900
H 	H 	0.03010 0.91340 0.68890 0.05800
H 	H 	0.06780 0.88250 0.71640 0.06300
H 	H 	0.27800 0.96530 0.81420 0.07300
H 	H 	0.71280 0.08890 0.58250 0.10100
H 	H 	0.15000 0.87990 0.76400 0.08700
H 	H 	0.33840 0.93350 0.91700 0.04100
H 	H 	0.34290 0.90610 0.85140 0.07400
H 	H 	0.45240 0.45080 0.08750 0.06300
H 	H 	0.24780 0.44920 0.04050 0.06800
H 	H 	0.31310 0.39860 0.01410 0.05300
H 	H 	0.43210 0.51120 0.13560 0.03200
H 	H 	0.35350 0.56340 0.15500 0.10900
H 	H 	0.28740 0.63850 0.19030 0.07600
H 	H 	0.26390 0.66840 0.24840 0.02600
H 	H 	0.73110 0.20950 0.98870 0.04200
H 	H 	0.66630 0.24830 0.98900 0.06900
H 	H 	0.53010 0.22450 0.91340 0.05800
H 	H 	0.56780 0.16610 0.88250 0.06300
H 	H 	0.77800 0.15110 0.96530 0.07300
H 	H 	0.21280 0.50640 0.08890 0.10100
H 	H 	0.65000 0.11590 0.87990 0.08700
H 	H 	0.83840 0.01650 0.93350 0.04100
H 	H 	0.84290 0.05470 0.90610 0.07400
H 	H 	0.45240 0.63670 0.54920 0.06300
H 	H 	0.24780 0.59130 0.55080 0.06800
H 	H 	0.31310 0.61550 0.60140 0.05300
H 	H 	0.43210 0.62440 0.48880 0.03200
H 	H 	0.35350 0.59160 0.43660 0.10900
H 	H 	0.28740 0.55180 0.36150 0.07600
H 	H 	0.26390 0.58000 0.33160 0.02600
H 	H 	0.73110 0.77920 0.79050 0.04200
H 	H 	0.66630 0.74070 0.75170 0.06900
H 	H 	0.53010 0.68890 0.77550 0.05800
H 	H 	0.56780 0.71640 0.83390 0.06300
H 	H 	0.77800 0.81420 0.84890 0.07300
H 	H 	0.21280 0.58250 0.49360 0.10100
H 	H 	0.65000 0.76400 0.88410 0.08700
H 	H 	0.83840 0.91700 0.98350 0.04100
H 	H 	0.84290 0.85140 0.94530 0.07400
H 	H 	0.45240 0.91250 0.36330 0.06300
H 	H 	0.24780 0.95950 0.40870 0.06800
H 	H 	0.31310 0.98590 0.38450 0.05300
H 	H 	0.43210 0.86440 0.37560 0.03200
H 	H 	0.35350 0.84500 0.40840 0.10900
H 	H 	0.28740 0.80970 0.44820 0.07600
H 	H 	0.26390 0.75160 0.42000 0.02600
H 	H 	0.73110 0.01130 0.22080 0.04200
H 	H 	0.66630 0.01100 0.25930 0.06900
H 	H 	0.53010 0.08660 0.31110 0.05800
H 	H 	0.56780 0.11750 0.28360 0.06300
H 	H 	0.77800 0.03470 0.18580 0.07300
H 	H 	0.21280 0.91110 0.41750 0.10100
H 	H 	0.65000 0.12010 0.23600 0.08700
H 	H 	0.83840 0.06650 0.08300 0.04100
H 	H 	0.84290 0.09390 0.14860 0.07400
H 	H 	0.04760 0.63670 0.08750 0.06300
H 	H 	0.25220 0.59130 0.04050 0.06800
H 	H 	0.18690 0.61550 0.01410 0.05300
H 	H 	0.06790 0.62440 0.13560 0.03200
H 	H 	0.14650 0.59160 0.15500 0.10900
H 	H 	0.21260 0.55180 0.19030 0.07600
H 	H 	0.23610 0.58000 0.24840 0.02600
H 	H 	0.76890 0.77920 0.98870 0.04200
H 	H 	0.83370 0.74070 0.98900 0.06900
H 	H 	0.96990 0.68890 0.91340 0.05800
H 	H 	0.93220 0.71640 0.88250 0.06300
H 	H 	0.72200 0.81420 0.96530 0.07300
H 	H 	0.28720 0.58250 0.08890 0.10100
H 	H 	0.85000 0.76400 0.87990 0.08700
H 	H 	0.66160 0.91700 0.93350 0.04100
H 	H 	0.65710 0.85140 0.90610 0.07400
H 	H 	0.04760 0.91250 0.54920 0.06300
H 	H 	0.25220 0.95950 0.55080 0.06800
H 	H 	0.18690 0.98590 0.60140 0.05300
H 	H 	0.06790 0.86440 0.48880 0.03200
H 	H 	0.14650 0.84500 0.43660 0.10900
H 	H 	0.21260 0.80970 0.36150 0.07600
H 	H 	0.23610 0.75160 0.33160 0.02600
H 	H 	0.76890 0.01130 0.79050 0.04200
H 	H 	0.83370 0.01100 0.75170 0.06900
H 	H 	0.96990 0.08660 0.77550 0.05800
H 	H 	0.93220 0.11750 0.83390 0.06300
H 	H 	0.72200 0.03470 0.84890 0.07300
H 	H 	0.28720 0.91110 0.49360 0.10100
H 	H 	0.85000 0.12010 0.88410 0.08700
H 	H 	0.66160 0.06650 0.98350 0.04100
H 	H 	0.65710 0.09390 0.94530 0.07400
H 	H 	0.04760 0.45080 0.36330 0.06300
H 	H 	0.25220 0.44920 0.40870 0.06800
H 	H 	0.18690 0.39860 0.38450 0.05300
H 	H 	0.06790 0.51120 0.37560 0.03200
H 	H 	0.14650 0.56340 0.40840 0.10900
H 	H 	0.21260 0.63850 0.44820 0.07600
H 	H 	0.23610 0.66840 0.42000 0.02600
H 	H 	0.76890 0.20950 0.22080 0.04200
H 	H 	0.83370 0.24830 0.25930 0.06900
H 	H 	0.96990 0.22450 0.31110 0.05800
H 	H 	0.93220 0.16610 0.28360 0.06300
H 	H 	0.72200 0.15110 0.18580 0.07300
H 	H 	0.28720 0.50640 0.41750 0.10100
H 	H 	0.85000 0.11590 0.23600 0.08700
H 	H 	0.66160 0.01650 0.08300 0.04100
H 	H 	0.65710 0.05470 0.14860 0.07400
H 	H 	0.54760 0.36330 0.91250 0.06300
H 	H 	0.75220 0.40870 0.95950 0.06800
H 	H 	0.68690 0.38450 0.98590 0.05300
H 	H 	0.56790 0.37560 0.86440 0.03200
H 	H 	0.64650 0.40840 0.84500 0.10900
H 	H 	0.71260 0.44820 0.80970 0.07600
H 	H 	0.73610 0.42000 0.75160 0.02600
H 	H 	0.26890 0.22080 0.01130 0.04200
H 	H 	0.33370 0.25930 0.01100 0.06900
H 	H 	0.46990 0.31110 0.08660 0.05800
H 	H 	0.43220 0.28360 0.11750 0.06300
H 	H 	0.22200 0.18580 0.03470 0.07300
H 	H 	0.78720 0.41750 0.91110 0.10100
H 	H 	0.35000 0.23600 0.12010 0.08700
H 	H 	0.16160 0.08300 0.06650 0.04100
H 	H 	0.15710 0.14860 0.09390 0.07400
H 	H 	0.54760 0.08750 0.45080 0.06300
H 	H 	0.75220 0.04050 0.44920 0.06800
H 	H 	0.68690 0.01410 0.39860 0.05300
H 	H 	0.56790 0.13560 0.51120 0.03200
H 	H 	0.64650 0.15500 0.56340 0.10900
H 	H 	0.71260 0.19030 0.63850 0.07600
H 	H 	0.73610 0.24840 0.66840 0.02600
H 	H 	0.26890 0.98870 0.20950 0.04200
H 	H 	0.33370 0.98900 0.24830 0.06900
H 	H 	0.46990 0.91340 0.22450 0.05800
H 	H 	0.43220 0.88250 0.16610 0.06300
H 	H 	0.22200 0.96530 0.15110 0.07300
H 	H 	0.78720 0.08890 0.50640 0.10100
H 	H 	0.35000 0.87990 0.11590 0.08700
H 	H 	0.16160 0.93350 0.01650 0.04100
H 	H 	0.15710 0.90610 0.05470 0.07400
H 	H 	0.54760 0.54920 0.63670 0.06300
H 	H 	0.75220 0.55080 0.59130 0.06800
H 	H 	0.68690 0.60140 0.61550 0.05300
H 	H 	0.56790 0.48880 0.62440 0.03200
H 	H 	0.64650 0.43660 0.59160 0.10900
H 	H 	0.71260 0.36150 0.55180 0.07600
H 	H 	0.73610 0.33160 0.58000 0.02600
H 	H 	0.26890 0.79050 0.77920 0.04200
H 	H 	0.33370 0.75170 0.74070 0.06900
H 	H 	0.46990 0.77550 0.68890 0.05800
H 	H 	0.43220 0.83390 0.71640 0.06300
H 	H 	0.22200 0.84890 0.81420 0.07300
H 	H 	0.78720 0.49360 0.58250 0.10100
H 	H 	0.35000 0.88410 0.76400 0.08700
H 	H 	0.16160 0.98350 0.91700 0.04100
H 	H 	0.15710 0.94530 0.85140 0.07400
H 	H 	0.75000 0.29990 0.70010 0.08100
H 	H 	0.75000 0.40020 0.70010 0.08100
H 	H 	0.75000 0.29990 0.59980 0.08100
H 	H 	0.25000 0.70010 0.29990 0.08100
H 	H 	0.25000 0.59980 0.29990 0.08100
H 	H 	0.25000 0.70010 0.40020 0.08100
H 	H 	0.25000 0.03160 0.06320 0.07300
H 	H 	0.25000 0.03160 0.96840 0.07300
H 	H 	0.25000 0.93680 0.96840 0.07300
H 	H 	0.75000 0.96840 0.93680 0.07300
H 	H 	0.75000 0.96840 0.03160 0.07300
H 	H 	0.75000 0.06320 0.03160 0.07300
C 	C 	0.88930 0.58030 0.95180 -0.01700
C 	C 	0.91140 0.54950 0.92190 -0.05300
C 	C 	0.87230 0.51920 0.90610 -0.01500
C 	C 	0.81100 0.51970 0.92020 0.07600
C 	C 	0.78890 0.55050 0.95010 -0.10000
C 	C 	0.82800 0.58080 0.96590 -0.00700
C 	C 	0.89300 0.49020 0.87600 0.00100
C 	C 	0.84200 0.45920 0.86320 -0.20600
C 	C 	0.76920 0.37380 0.79930 -0.12600
C 	C 	0.76130 0.35640 0.76300 0.00900
C 	C 	0.06950 0.71960 0.02540 0.21300
C 	C 	0.21680 0.80920 0.03300 -0.03100
C 	C 	0.21810 0.86860 0.08070 0.10900
C 	C 	0.16910 0.80320 0.05090 0.00600
C 	C 	0.14660 0.76820 0.03230 -0.06400
C 	C 	0.09450 0.75780 0.04570 -0.00700
C 	C 	0.06500 0.78250 0.07770 -0.01700
C 	C 	0.08750 0.81740 0.09610 -0.09000
C 	C 	0.13960 0.82780 0.08270 0.05800
C 	C 	0.93830 0.61080 0.96530 0.20700
C 	C 	0.24570 0.84340 0.04640 -0.10700
C 	C 	0.75630 0.49210 0.90420 -0.18400
C 	C 	0.79020 0.46360 0.87590 0.18700
C 	C 	0.16660 0.86510 0.09920 -0.14800
C 	C 	0.30620 0.96690 0.06310 -0.02700
C 	C 	0.30770 0.94560 0.08060 -0.10500
C 	C 	0.88930 0.37150 0.41970 -0.01700
C 	C 	0.91140 0.37240 0.45050 -0.05300
C 	C 	0.87230 0.38690 0.48080 -0.01500
C 	C 	0.81100 0.40050 0.48030 0.07600
C 	C 	0.78890 0.39960 0.44950 -0.10000
C 	C 	0.82800 0.38510 0.41920 -0.00700
C 	C 	0.89300 0.38580 0.50980 0.00100
C 	C 	0.84200 0.40400 0.54080 -0.20600
C 	C 	0.76920 0.42550 0.62620 -0.12600
C 	C 	0.76130 0.40660 0.64360 0.00900
C 	C 	0.06950 0.30580 0.28040 0.21300
C 	C 	0.21680 0.22380 0.19080 -0.03100
C 	C 	0.21810 0.21210 0.13140 0.10900
C 	C 	0.16910 0.24770 0.19680 0.00600
C 	C 	0.14660 0.26410 0.23180 -0.06400
C 	C 	0.09450 0.28790 0.24220 -0.00700
C 	C 	0.06500 0.29520 0.21750 -0.01700
C 	C 	0.08750 0.27870 0.18260 -0.09000
C 	C 	0.13960 0.25490 0.17220 0.05800
C 	C 	0.93830 0.35450 0.38920 0.20700
C 	C 	0.24570 0.20300 0.15660 -0.10700
C 	C 	0.75630 0.41210 0.50790 -0.18400
C 	C 	0.79020 0.41230 0.53640 0.18700
C 	C 	0.16660 0.23410 0.13490 -0.14800
C 	C 	0.30620 0.09620 0.03310 -0.02700
C 	C 	0.30770 0.13500 0.05440 -0.10500
C 	C 	0.88930 0.04820 0.62850 -0.01700
C 	C 	0.91140 0.07810 0.62760 -0.05300
C 	C 	0.87230 0.09390 0.61310 -0.01500
C 	C 	0.81100 0.07980 0.59950 0.07600
C 	C 	0.78890 0.04990 0.60040 -0.10000
C 	C 	0.82800 0.03410 0.61490 -0.00700
C 	C 	0.89300 0.12400 0.61420 0.00100
C 	C 	0.84200 0.13680 0.59600 -0.20600
C 	C 	0.76920 0.20070 0.57450 -0.12600
C 	C 	0.76130 0.23700 0.59340 0.00900
C 	C 	0.06950 0.97460 0.69420 0.21300
C 	C 	0.21680 0.96700 0.77620 -0.03100
C 	C 	0.21810 0.91930 0.78790 0.10900
C 	C 	0.16910 0.94910 0.75230 0.00600
C 	C 	0.14660 0.96770 0.73590 -0.06400
C 	C 	0.09450 0.95430 0.71210 -0.00700
C 	C 	0.06500 0.92230 0.70480 -0.01700
C 	C 	0.08750 0.90390 0.72130 -0.09100
C 	C 	0.13960 0.91730 0.74510 0.05800
C 	C 	0.93830 0.03470 0.64550 0.20700
C 	C 	0.24570 0.95360 0.79700 -0.10700
C 	C 	0.75630 0.09580 0.58790 -0.18400
C 	C 	0.79020 0.12410 0.58770 0.18700
C 	C 	0.16660 0.90080 0.76590 -0.14800
C 	C 	0.30620 0.93690 0.90380 -0.02700
C 	C 	0.30770 0.91940 0.86500 -0.10500
C 	C 	0.38930 0.41970 0.04820 -0.01700
C 	C 	0.41140 0.45050 0.07810 -0.05300
C 	C 	0.37230 0.48080 0.09390 -0.01500
C 	C 	0.31100 0.48030 0.07980 0.07600
C 	C 	0.28890 0.44950 0.04990 -0.10000
C 	C 	0.32800 0.41920 0.03410 -0.00700
C 	C 	0.39300 0.50980 0.12400 0.00100
C 	C 	0.34200 0.54080 0.13680 -0.20600
C 	C 	0.26920 0.62620 0.20070 -0.12600
C 	C 	0.26130 0.64360 0.23700 0.00900
C 	C 	0.56950 0.28040 0.97460 0.21300
C 	C 	0.71680 0.19080 0.96700 -0.03100
C 	C 	0.71810 0.13140 0.91930 0.10900
C 	C 	0.66910 0.19680 0.94910 0.00600
C 	C 	0.64660 0.23180 0.96770 -0.06400
C 	C 	0.59450 0.24220 0.95430 -0.00700
C 	C 	0.56500 0.21750 0.92230 -0.01700
C 	C 	0.58750 0.18260 0.90390 -0.09000
C 	C 	0.63960 0.17220 0.91730 0.05800
C 	C 	0.43830 0.38920 0.03470 0.20700
C 	C 	0.74570 0.15660 0.95360 -0.10700
C 	C 	0.25630 0.50790 0.09580 -0.18400
C 	C 	0.29020 0.53640 0.12410 0.18700
C 	C 	0.66660 0.13490 0.90080 -0.14800
C 	C 	0.80620 0.03310 0.93690 -0.02700
C 	C 	0.80770 0.05440 0.91940 -0.10500
C 	C 	0.38930 0.62850 0.58030 -0.01700
C 	C 	0.41140 0.62760 0.54950 -0.05300
C 	C 	0.37230 0.61310 0.51920 -0.01500
C 	C 	0.31100 0.59950 0.51970 0.07600
C 	C 	0.28890 0.60040 0.55050 -0.10000
C 	C 	0.32800 0.61490 0.58080 -0.00700
C 	C 	0.39300 0.61420 0.49020 0.00100
C 	C 	0.34200 0.59600 0.45920 -0.20600
C 	C 	0.26920 0.57450 0.37380 -0.12600
C 	C 	0.26130 0.59340 0.35640 0.00900
C 	C 	0.56950 0.69420 0.71960 0.21300
C 	C 	0.71680 0.77620 0.80920 -0.03100
C 	C 	0.71810 0.78790 0.86860 0.10800
C 	C 	0.66910 0.75230 0.80320 0.00600
C 	C 	0.64660 0.73590 0.76820 -0.06400
C 	C 	0.59450 0.71210 0.75780 -0.00700
C 	C 	0.56500 0.70480 0.78250 -0.01700
C 	C 	0.58750 0.72130 0.81740 -0.09000
C 	C 	0.63960 0.74510 0.82780 0.05800
C 	C 	0.43830 0.64550 0.61080 0.20700
C 	C 	0.74570 0.79700 0.84340 -0.10700
C 	C 	0.25630 0.58790 0.49210 -0.18400
C 	C 	0.29020 0.58770 0.46360 0.18700
C 	C 	0.66660 0.76590 0.86510 -0.14800
C 	C 	0.80620 0.90380 0.96690 -0.02700
C 	C 	0.80770 0.86500 0.94560 -0.10500
C 	C 	0.38930 0.95180 0.37150 -0.01700
C 	C 	0.41140 0.92190 0.37240 -0.05300
C 	C 	0.37230 0.90610 0.38690 -0.01500
C 	C 	0.31100 0.92020 0.40050 0.07600
C 	C 	0.28890 0.95010 0.39960 -0.10000
C 	C 	0.32800 0.96590 0.38510 -0.00700
C 	C 	0.39300 0.87600 0.38580 0.00100
C 	C 	0.34200 0.86320 0.40400 -0.20600
C 	C 	0.26920 0.79930 0.42550 -0.12600
C 	C 	0.26130 0.76300 0.40660 0.00900
C 	C 	0.56950 0.02540 0.30580 0.21300
C 	C 	0.71680 0.03300 0.22380 -0.03100
C 	C 	0.71810 0.08070 0.21210 0.10900
C 	C 	0.66910 0.05090 0.24770 0.00600
C 	C 	0.64660 0.03230 0.26410 -0.06400
C 	C 	0.59450 0.04570 0.28790 -0.00700
C 	C 	0.56500 0.07770 0.29520 -0.01700
C 	C 	0.58750 0.09610 0.27870 -0.09000
C 	C 	0.63960 0.08270 0.25490 0.05800
C 	C 	0.43830 0.96530 0.35450 0.20700
C 	C 	0.74570 0.04640 0.20300 -0.10700
C 	C 	0.25630 0.90420 0.41210 -0.18400
C 	C 	0.29020 0.87590 0.41230 0.18700
C 	C 	0.66660 0.09920 0.23410 -0.14800
C 	C 	0.80620 0.06310 0.09620 -0.02700
C 	C 	0.80770 0.08060 0.13500 -0.10500
C 	C 	0.11070 0.62850 0.04820 -0.01700
C 	C 	0.08860 0.62760 0.07810 -0.05300
C 	C 	0.12770 0.61310 0.09390 -0.01500
C 	C 	0.18900 0.59950 0.07980 0.07600
C 	C 	0.21110 0.60040 0.04990 -0.10000
C 	C 	0.17200 0.61490 0.03410 -0.00700
C 	C 	0.10700 0.61420 0.12400 0.00100
C 	C 	0.15800 0.59600 0.13680 -0.20600
C 	C 	0.23080 0.57450 0.20070 -0.12600
C 	C 	0.23870 0.59340 0.23700 0.00900
C 	C 	0.93050 0.69420 0.97460 0.21300
C 	C 	0.78320 0.77620 0.96700 -0.03100
C 	C 	0.78190 0.78790 0.91930 0.10900
C 	C 	0.83090 0.75230 0.94910 0.00600
C 	C 	0.85340 0.73590 0.96770 -0.06400
C 	C 	0.90550 0.71210 0.95430 -0.00700
C 	C 	0.93500 0.70480 0.92230 -0.01700
C 	C 	0.91250 0.72130 0.90390 -0.09100
C 	C 	0.86040 0.74510 0.91730 0.05800
C 	C 	0.06170 0.64550 0.03470 0.20700
C 	C 	0.75430 0.79700 0.95360 -0.10700
C 	C 	0.24370 0.58790 0.09580 -0.18400
C 	C 	0.20980 0.58770 0.12410 0.18700
C 	C 	0.83340 0.76590 0.90080 -0.14800
C 	C 	0.69380 0.90380 0.93690 -0.02700
C 	C 	0.69230 0.86500 0.91940 -0.10500
C 	C 	0.11070 0.95180 0.58030 -0.01700
C 	C 	0.08860 0.92190 0.54950 -0.05300
C 	C 	0.12770 0.90610 0.51920 -0.01500
C 	C 	0.18900 0.92020 0.51970 0.07600
C 	C 	0.21110 0.95010 0.55050 -0.10000
C 	C 	0.17200 0.96590 0.58080 -0.00700
C 	C 	0.10700 0.87600 0.49020 0.00100
C 	C 	0.15800 0.86320 0.45920 -0.20600
C 	C 	0.23080 0.79930 0.37380 -0.12600
C 	C 	0.23870 0.76300 0.35640 0.00900
C 	C 	0.93050 0.02540 0.71960 0.21300
C 	C 	0.78320 0.03300 0.80920 -0.03100
C 	C 	0.78190 0.08070 0.86860 0.10900
C 	C 	0.83090 0.05090 0.80320 0.00600
C 	C 	0.85340 0.03230 0.76820 -0.06400
C 	C 	0.90550 0.04570 0.75780 -0.00700
C 	C 	0.93500 0.07770 0.78250 -0.01700
C 	C 	0.91250 0.09610 0.81740 -0.09000
C 	C 	0.86040 0.08270 0.82780 0.05800
C 	C 	0.06170 0.96530 0.61080 0.20700
C 	C 	0.75430 0.04640 0.84340 -0.10700
C 	C 	0.24370 0.90420 0.49210 -0.18400
C 	C 	0.20980 0.87590 0.46360 0.18700
C 	C 	0.83340 0.09920 0.86510 -0.14800
C 	C 	0.69380 0.06310 0.96690 -0.02700
C 	C 	0.69230 0.08060 0.94560 -0.10500
C 	C 	0.11070 0.41970 0.37150 -0.01700
C 	C 	0.08860 0.45050 0.37240 -0.05300
C 	C 	0.12770 0.48080 0.38690 -0.01500
C 	C 	0.18900 0.48030 0.40050 0.07600
C 	C 	0.21110 0.44950 0.39960 -0.10000
C 	C 	0.17200 0.41920 0.38510 -0.00700
C 	C 	0.10700 0.50980 0.38580 0.00100
C 	C 	0.15800 0.54080 0.40400 -0.20600
C 	C 	0.23080 0.62620 0.42550 -0.12600
C 	C 	0.23870 0.64360 0.40660 0.00900
C 	C 	0.93050 0.28040 0.30580 0.21300
C 	C 	0.78320 0.19080 0.22380 -0.03100
C 	C 	0.78190 0.13140 0.21210 0.10900
C 	C 	0.83090 0.19680 0.24770 0.00600
C 	C 	0.85340 0.23180 0.26410 -0.06400
C 	C 	0.90550 0.24220 0.28790 -0.00700
C 	C 	0.93500 0.21750 0.29520 -0.01700
C 	C 	0.91250 0.18260 0.27870 -0.09000
C 	C 	0.86040 0.17220 0.25490 0.05800
C 	C 	0.06170 0.38920 0.35450 0.20700
C 	C 	0.75430 0.15660 0.20300 -0.10700
C 	C 	0.24370 0.50790 0.41210 -0.18400
C 	C 	0.20980 0.53640 0.41230 0.18700
C 	C 	0.83340 0.13490 0.23410 -0.14800
C 	C 	0.69380 0.03310 0.09620 -0.02700
C 	C 	0.69230 0.05440 0.13500 -0.10500
C 	C 	0.61070 0.37150 0.95180 -0.01700
C 	C 	0.58860 0.37240 0.92190 -0.05300
C 	C 	0.62770 0.38690 0.90610 -0.01500
C 	C 	0.68900 0.40050 0.92020 0.07600
C 	C 	0.71110 0.39960 0.95010 -0.10000
C 	C 	0.67200 0.38510 0.96590 -0.00700
C 	C 	0.60700 0.38580 0.87600 0.00100
C 	C 	0.65800 0.40400 0.86320 -0.20600
C 	C 	0.73080 0.42550 0.79930 -0.12600
C 	C 	0.73870 0.40660 0.76300 0.00900
C 	C 	0.43050 0.30580 0.02540 0.21300
C 	C 	0.28320 0.22380 0.03300 -0.03100
C 	C 	0.28190 0.21210 0.08070 0.10900
C 	C 	0.33090 0.24770 0.05090 0.00600
C 	C 	0.35340 0.26410 0.03230 -0.06400
C 	C 	0.40550 0.28790 0.04570 -0.00700
C 	C 	0.43500 0.29520 0.07770 -0.01700
C 	C 	0.41250 0.27870 0.09610 -0.09000
C 	C 	0.36040 0.25490 0.08270 0.05800
C 	C 	0.56170 0.35450 0.96530 0.20700
C 	C 	0.25430 0.20300 0.04640 -0.10700
C 	C 	0.74370 0.41210 0.90420 -0.18400
C 	C 	0.70980 0.41230 0.87590 0.18700
C 	C 	0.33340 0.23410 0.09920 -0.14800
C 	C 	0.19380 0.09620 0.06310 -0.02700
C 	C 	0.19230 0.13500 0.08060 -0.10500
C 	C 	0.61070 0.04820 0.41970 -0.01700
C 	C 	0.58860 0.07810 0.45050 -0.05300
C 	C 	0.62770 0.09390 0.48080 -0.01500
C 	C 	0.68900 0.07980 0.48030 0.07600
C 	C 	0.71110 0.04990 0.44950 -0.10000
C 	C 	0.67200 0.03410 0.41920 -0.00700
C 	C 	0.60700 0.12400 0.50980 0.00100
C 	C 	0.65800 0.13680 0.54080 -0.20600
C 	C 	0.73080 0.20070 0.62620 -0.12600
C 	C 	0.73870 0.23700 0.64360 0.00900
C 	C 	0.43050 0.97460 0.28040 0.21300
C 	C 	0.28320 0.96700 0.19080 -0.03100
C 	C 	0.28190 0.91930 0.13140 0.10900
C 	C 	0.33090 0.94910 0.19680 0.00600
C 	C 	0.35340 0.96770 0.23180 -0.06400
C 	C 	0.40550 0.95430 0.24220 -0.00700
C 	C 	0.43500 0.92230 0.21750 -0.01700
C 	C 	0.41250 0.90390 0.18260 -0.09000
C 	C 	0.36040 0.91730 0.17220 0.05800
C 	C 	0.56170 0.03470 0.38920 0.20700
C 	C 	0.25430 0.95360 0.15660 -0.10700
C 	C 	0.74370 0.09580 0.50790 -0.18400
C 	C 	0.70980 0.12410 0.53640 0.18700
C 	C 	0.33340 0.90080 0.13490 -0.14800
C 	C 	0.19380 0.93690 0.03310 -0.02700
C 	C 	0.19230 0.91940 0.05440 -0.10500
C 	C 	0.61070 0.58030 0.62850 -0.01700
C 	C 	0.58860 0.54950 0.62760 -0.05300
C 	C 	0.62770 0.51920 0.61310 -0.01500
C 	C 	0.68900 0.51970 0.59950 0.07600
C 	C 	0.71110 0.55050 0.60040 -0.10000
C 	C 	0.67200 0.58080 0.61490 -0.00700
C 	C 	0.60700 0.49020 0.61420 0.00100
C 	C 	0.65800 0.45920 0.59600 -0.20600
C 	C 	0.73080 0.37380 0.57450 -0.12600
C 	C 	0.73870 0.35640 0.59340 0.00900
C 	C 	0.43050 0.71960 0.69420 0.21300
C 	C 	0.28320 0.80920 0.77620 -0.03100
C 	C 	0.28190 0.86860 0.78790 0.10800
C 	C 	0.33090 0.80320 0.75230 0.00600
C 	C 	0.35340 0.76820 0.73590 -0.06400
C 	C 	0.40550 0.75780 0.71210 -0.00700
C 	C 	0.43500 0.78250 0.70480 -0.01700
C 	C 	0.41250 0.81740 0.72130 -0.09000
C 	C 	0.36040 0.82780 0.74510 0.05800
C 	C 	0.56170 0.61080 0.64550 0.20700
C 	C 	0.25430 0.84340 0.79700 -0.10700
C 	C 	0.74370 0.49210 0.58790 -0.18400
C 	C 	0.70980 0.46360 0.58770 0.18700
C 	C 	0.33340 0.86510 0.76590 -0.14800
C 	C 	0.19380 0.96690 0.90380 -0.02700
C 	C 	0.19230 0.94560 0.86500 -0.10500
C 	C 	0.75000 0.41120 0.82240 0.11100
C 	C 	0.75000 0.37040 0.74080 -0.04200
C 	C 	0.75000 0.35020 0.70040 0.07800
C 	C 	0.75000 0.41120 0.58880 0.11100
C 	C 	0.75000 0.37040 0.62960 -0.04200
C 	C 	0.75000 0.35020 0.64980 0.07800
C 	C 	0.75000 0.17760 0.58880 0.11100
C 	C 	0.75000 0.25920 0.62960 -0.04200
C 	C 	0.75000 0.29960 0.64980 0.07800
C 	C 	0.25000 0.58880 0.17760 0.11100
C 	C 	0.25000 0.62960 0.25920 -0.04200
C 	C 	0.25000 0.64980 0.29960 0.07800
C 	C 	0.25000 0.58880 0.41120 0.11100
C 	C 	0.25000 0.62960 0.37040 -0.04200
C 	C 	0.25000 0.64980 0.35020 0.07800
C 	C 	0.25000 0.82240 0.41120 0.11100
C 	C 	0.25000 0.74080 0.37040 -0.04200
C 	C 	0.25000 0.70040 0.35020 0.07800
C 	C 	0.75000 0.31230 0.68770 -0.14400
C 	C 	0.75000 0.37540 0.68770 -0.14400
C 	C 	0.75000 0.31230 0.62460 -0.14400
C 	C 	0.25000 0.68770 0.31230 -0.14400
C 	C 	0.25000 0.62460 0.31230 -0.14400
C 	C 	0.25000 0.68770 0.37540 -0.14400
C 	C 	0.25000 0.96010 0.03990 -0.01500
C 	C 	0.25000 0.98015 0.01985 0.05200
C 	C 	0.25000 0.92500 0.07500 0.09500
C 	C 	0.25000 0.07980 0.03990 -0.01500
C 	C 	0.25000 0.03970 0.01985 0.05200
C 	C 	0.25000 0.15000 0.07500 0.09500
C 	C 	0.25000 0.96010 0.92020 -0.01500
C 	C 	0.25000 0.98015 0.96030 0.05200
C 	C 	0.25000 0.92500 0.85000 0.09500
C 	C 	0.75000 0.03990 0.96010 -0.01500
C 	C 	0.75000 0.01985 0.98015 0.05200
C 	C 	0.75000 0.07500 0.92500 0.09500
C 	C 	0.75000 0.92020 0.96010 -0.01500
C 	C 	0.75000 0.96030 0.98015 0.05200
C 	C 	0.75000 0.85000 0.92500 0.09500
C 	C 	0.75000 0.03990 0.07980 -0.01500
C 	C 	0.75000 0.01985 0.03970 0.05200
C 	C 	0.75000 0.07500 0.15000 0.09500
C 	C 	0.25000 0.01920 0.03840 -0.11400
C 	C 	0.25000 0.01920 0.98080 -0.11400
C 	C 	0.25000 0.96160 0.98080 -0.11400
C 	C 	0.75000 0.98080 0.96160 -0.11400
C 	C 	0.75000 0.98080 0.01920 -0.11400
C 	C 	0.75000 0.03840 0.01920 -0.11400
N 	N 	0.75000 0.42920 0.85840 -0.17600
N 	N 	0.75000 0.42920 0.57080 -0.17600
N 	N 	0.75000 0.14160 0.57080 -0.17600
N 	N 	0.25000 0.57080 0.14160 -0.17600
N 	N 	0.25000 0.57080 0.42920 -0.17600
N 	N 	0.25000 0.85840 0.42920 -0.17600
N 	N 	0.25000 0.90490 0.09510 -0.14600
N 	N 	0.25000 0.19020 0.09510 -0.14600
N 	N 	0.25000 0.90490 0.80980 -0.14600
N 	N 	0.75000 0.09510 0.90490 -0.14600
N 	N 	0.75000 0.80980 0.90490 -0.14600
N 	N 	0.75000 0.09510 0.19020 -0.14600
O 	O 	0.01530 0.72300 0.04600 -0.34900
O 	O 	0.09840 0.69730 0.99500 -0.36100
O 	O 	0.90450 0.63630 0.99780 -0.33800
O 	O 	0.99920 0.61160 0.95400 -0.37500
O 	O 	0.01530 0.32300 0.27700 -0.34900
O 	O 	0.09840 0.29770 0.30270 -0.36100
O 	O 	0.90450 0.36150 0.36370 -0.33800
O 	O 	0.99920 0.34240 0.38840 -0.37500
O 	O 	0.01530 0.95400 0.67700 -0.34900
O 	O 	0.09840 0.00500 0.70230 -0.36100
O 	O 	0.90450 0.00220 0.63850 -0.33800
O 	O 	0.99920 0.04600 0.65760 -0.37500
O 	O 	0.51530 0.27700 0.95400 -0.34900
O 	O 	0.59840 0.30270 0.00500 -0.36100
O 	O 	0.40450 0.36370 0.00220 -0.33800
O 	O 	0.49920 0.38840 0.04600 -0.37500
O 	O 	0.51530 0.67700 0.72300 -0.34900
O 	O 	0.59840 0.70230 0.69730 -0.36100
O 	O 	0.40450 0.63850 0.63630 -0.33800
O 	O 	0.49920 0.65760 0.61160 -0.37500
O 	O 	0.51530 0.04600 0.32300 -0.34900
O 	O 	0.59840 0.99500 0.29770 -0.36100
O 	O 	0.40450 0.99780 0.36150 -0.33800
O 	O 	0.49920 0.95400 0.34240 -0.37500
O 	O 	0.98470 0.67700 0.95400 -0.34900
O 	O 	0.90160 0.70230 0.00500 -0.36100
O 	O 	0.09550 0.63850 0.00220 -0.33800
O 	O 	0.00080 0.65760 0.04600 -0.37500
O 	O 	0.98470 0.04600 0.72300 -0.34900
O 	O 	0.90160 0.99500 0.69730 -0.36100
O 	O 	0.09550 0.99780 0.63630 -0.33800
O 	O 	0.00080 0.95400 0.61160 -0.37500
O 	O 	0.98470 0.27700 0.32300 -0.34900
O 	O 	0.90160 0.30270 0.29770 -0.36100
O 	O 	0.09550 0.36370 0.36150 -0.33800
O 	O 	0.00080 0.38840 0.34240 -0.37500
O 	O 	0.48470 0.32300 0.04600 -0.34900
O 	O 	0.40160 0.29770 0.99500 -0.36100
O 	O 	0.59550 0.36150 0.99780 -0.33800
O 	O 	0.50080 0.34240 0.95400 -0.37500
O 	O 	0.48470 0.95400 0.27700 -0.34900
O 	O 	0.40160 0.00500 0.30270 -0.36100
O 	O 	0.59550 0.00220 0.36370 -0.33800
O 	O 	0.50080 0.04600 0.38840 -0.37500
O 	O 	0.48470 0.72300 0.67700 -0.34900
O 	O 	0.40160 0.69730 0.70230 -0.36100
O 	O 	0.59550 0.63630 0.63850 -0.33800
O 	O 	0.50080 0.61160 0.65760 -0.37500
