data_crystal

_cell_length_a 16.15120
_cell_length_b 16.15300
_cell_length_c 31.29910
_cell_angle_alpha 99.87700
_cell_angle_beta  99.84200
_cell_angle_gamma 96.67240

_symmetry_space_group_name_	'P 1'
_symmetry_space_group_name_H-M	'P 1'

loop_
_symmetry_equiv_pos_as_xyz
  x,y,z

loop_
_atom_site_label
_atom_site_type_symbol
_atom_site_fract_x
_atom_site_fract_y
_atom_site_fract_z
_atom_site_charge
Nd	Nd	0.85714 0.81431 0.80029 2.17600
Nd	Nd	0.68577 0.64315 0.69973 2.19200
Nd	Nd	0.52034 0.64122 0.58638 1.95600
Nd	Nd	0.85885 0.97965 0.91363 1.96900
Nd	Nd	0.14286 0.18569 0.19971 2.17600
Nd	Nd	0.31423 0.35685 0.30027 2.19300
Nd	Nd	0.47966 0.35878 0.41362 1.95600
Nd	Nd	0.14115 0.02035 0.08637 1.97800
H 	H 	0.51630 0.28150 0.83740 0.06300
H 	H 	0.45240 0.36570 0.78440 0.06300
H 	H 	0.30140 0.64750 0.80700 0.06100
H 	H 	0.21080 0.70110 0.86010 0.05600
H 	H 	0.13390 0.61020 0.00730 0.05800
H 	H 	0.19810 0.52400 0.05880 0.06100
H 	H 	0.47630 0.37300 0.06950 0.06600
H 	H 	0.56480 0.31980 0.01640 0.05900
H 	H 	0.39590 0.45020 0.90260 0.14300
H 	H 	0.31920 0.50430 0.95640 0.14200
H 	H 	0.32460 0.41870 0.74110 0.10200
H 	H 	0.35770 0.45220 0.67540 0.00300
H 	H 	0.50760 0.66700 0.74380 -0.01500
H 	H 	0.46560 0.63990 0.80780 0.09300
H 	H 	0.22020 0.77610 0.97010 0.09600
H 	H 	0.12210 0.86870 0.95890 0.00100
H 	H 	0.95220 0.67830 0.87830 -0.02000
H 	H 	0.05200 0.58320 0.88810 0.09200
H 	H 	0.42130 0.51700 0.11490 0.10700
H 	H 	0.40640 0.48120 0.18290 -0.00200
H 	H 	0.20870 0.29880 0.12160 -0.03200
H 	H 	0.22370 0.33510 0.05390 0.10500
H 	H 	0.64890 0.34270 0.90100 0.08400
H 	H 	0.74340 0.24690 0.89660 0.01900
H 	H 	0.59420 0.08890 0.95010 0.02200
H 	H 	0.49750 0.18800 0.95180 0.08200
H 	H 	0.45060 0.04130 0.83600 0.06000
H 	H 	0.36040 0.09800 0.88620 0.06300
H 	H 	0.13670 0.31300 0.88540 0.06300
H 	H 	0.08430 0.40710 0.83560 0.05900
H 	H 	0.09680 0.41700 0.66470 0.06000
H 	H 	0.18390 0.35970 0.61340 0.06300
H 	H 	0.40420 0.14030 0.61410 0.06000
H 	H 	0.46320 0.05180 0.66610 0.06000
H 	H 	0.30540 0.18780 0.77530 0.14200
H 	H 	0.23700 0.26410 0.72370 0.13800
H 	H 	0.14440 0.08340 0.86840 0.09600
H 	H 	0.12040 0.04310 0.93290 0.00100
H 	H 	0.29250 0.24150 0.00540 0.00300
H 	H 	0.31810 0.28230 0.93890 0.10400
H 	H 	0.97270 0.36360 0.70100 0.10500
H 	H 	0.87390 0.45630 0.70260 -0.02100
H 	H 	0.04330 0.62360 0.79810 -0.02300
H 	H 	0.13430 0.52340 0.79950 0.10700
H 	H 	0.41800 0.35110 0.63150 0.08400
H 	H 	0.45640 0.38270 0.56740 0.01600
H 	H 	0.25870 0.21330 0.49520 0.01400
H 	H 	0.21710 0.17680 0.55970 0.09700
H 	H 	0.49170 0.82200 0.71190 0.00000
H 	H 	0.39500 0.92050 0.71420 0.09000
H 	H 	0.67830 0.01040 0.78590 0.00400
H 	H 	0.57880 0.10400 0.78800 0.09200
H 	H 	0.22120 0.98640 0.66460 0.05800
H 	H 	0.13320 0.04930 0.71530 0.06400
H 	H 	0.85330 0.20120 0.69420 0.05800
H 	H 	0.79940 0.29070 0.64020 0.05700
H 	H 	0.89070 0.36510 0.49320 0.05900
H 	H 	0.97690 0.30310 0.44190 0.06100
H 	H 	0.12990 0.02250 0.43120 0.06400
H 	H 	0.18040 0.93510 0.48490 0.06200
H 	H 	0.05100 0.10500 0.59700 0.14300
H 	H 	0.99690 0.18390 0.54380 0.14400
H 	H 	0.86020 0.03240 0.69120 0.09400
H 	H 	0.83450 0.99270 0.75720 -0.01600
H 	H 	0.05060 0.14150 0.82460 0.00100
H 	H 	0.07980 0.17950 0.75940 0.10300
H 	H 	0.72470 0.27840 0.53020 0.09000
H 	H 	0.62870 0.37560 0.54130 0.01100
H 	H 	0.81920 0.54800 0.62130 -0.00900
H 	H 	0.91580 0.44910 0.61150 0.08600
H 	H 	0.98530 0.07670 0.38580 0.11500
H 	H 	0.01790 0.09120 0.31650 -0.00600
H 	H 	0.20070 0.28980 0.38010 -0.03800
H 	H 	0.16440 0.27450 0.44650 0.11000
H 	H 	0.15710 0.85430 0.59960 0.08400
H 	H 	0.25320 0.76130 0.60530 0.02100
H 	H 	0.41270 0.90470 0.55060 0.02800
H 	H 	0.31370 0.00470 0.54840 0.08100
H 	H 	0.48370 0.71850 0.16260 0.06200
H 	H 	0.54760 0.63430 0.21560 0.06200
H 	H 	0.69860 0.35250 0.19300 0.06000
H 	H 	0.78920 0.29890 0.13990 0.05600
H 	H 	0.86610 0.38980 0.99270 0.05800
H 	H 	0.80190 0.47600 0.94120 0.06100
H 	H 	0.52370 0.62700 0.93050 0.06600
H 	H 	0.43520 0.68020 0.98360 0.05800
H 	H 	0.60410 0.54980 0.09740 0.14300
H 	H 	0.68080 0.49570 0.04360 0.14200
H 	H 	0.67540 0.58130 0.25890 0.10200
H 	H 	0.64230 0.54780 0.32460 0.00300
H 	H 	0.49240 0.33300 0.25620 -0.01500
H 	H 	0.53440 0.36010 0.19220 0.09400
H 	H 	0.77980 0.22390 0.02990 0.09600
H 	H 	0.87790 0.13130 0.04110 0.00200
H 	H 	0.04780 0.32170 0.12170 -0.02000
H 	H 	0.94800 0.41680 0.11190 0.09200
H 	H 	0.57870 0.48300 0.88510 0.10700
H 	H 	0.59360 0.51880 0.81710 -0.00200
H 	H 	0.79130 0.70120 0.87840 -0.03200
H 	H 	0.77630 0.66490 0.94610 0.10500
H 	H 	0.35110 0.65730 0.09900 0.08400
H 	H 	0.25660 0.75310 0.10340 0.01900
H 	H 	0.40580 0.91110 0.04990 0.02100
H 	H 	0.50250 0.81200 0.04820 0.08200
H 	H 	0.54940 0.95870 0.16400 0.05900
H 	H 	0.63960 0.90200 0.11380 0.06300
H 	H 	0.86330 0.68700 0.11460 0.06300
H 	H 	0.91570 0.59290 0.16440 0.05900
H 	H 	0.90320 0.58300 0.33530 0.06000
H 	H 	0.81610 0.64030 0.38660 0.06300
H 	H 	0.59580 0.85970 0.38590 0.06000
H 	H 	0.53680 0.94820 0.33390 0.05900
H 	H 	0.69460 0.81220 0.22470 0.14200
H 	H 	0.76300 0.73590 0.27630 0.13800
H 	H 	0.85560 0.91660 0.13160 0.09600
H 	H 	0.87960 0.95690 0.06710 0.00000
H 	H 	0.70750 0.75850 0.99460 0.00300
H 	H 	0.68190 0.71770 0.06110 0.10400
H 	H 	0.02730 0.63640 0.29900 0.10600
H 	H 	0.12610 0.54370 0.29740 -0.02100
H 	H 	0.95670 0.37640 0.20190 -0.02300
H 	H 	0.86570 0.47660 0.20050 0.10700
H 	H 	0.58200 0.64890 0.36850 0.08400
H 	H 	0.54360 0.61730 0.43260 0.01600
H 	H 	0.74130 0.78670 0.50480 0.01400
H 	H 	0.78290 0.82320 0.44030 0.09700
H 	H 	0.50830 0.17800 0.28810 -0.00100
H 	H 	0.60500 0.07950 0.28580 0.09100
H 	H 	0.32170 0.98960 0.21410 -0.00500
H 	H 	0.42120 0.89600 0.21200 0.09600
H 	H 	0.77880 0.01360 0.33540 0.06300
H 	H 	0.86680 0.95070 0.28470 0.06200
H 	H 	0.14670 0.79880 0.30580 0.05800
H 	H 	0.20060 0.70930 0.35980 0.05700
H 	H 	0.10930 0.63490 0.50680 0.05900
H 	H 	0.02310 0.69690 0.55810 0.06100
H 	H 	0.87010 0.97750 0.56880 0.06800
H 	H 	0.81960 0.06490 0.51510 0.05600
H 	H 	0.94900 0.89500 0.40300 0.14200
H 	H 	0.00310 0.81610 0.45620 0.14400
H 	H 	0.13980 0.96760 0.30880 0.09000
H 	H 	0.16550 0.00730 0.24280 -0.00800
H 	H 	0.94940 0.85850 0.17540 0.00300
H 	H 	0.92020 0.82050 0.24060 0.10200
H 	H 	0.27530 0.72160 0.46980 0.09000
H 	H 	0.37130 0.62440 0.45870 0.01100
H 	H 	0.18080 0.45200 0.37870 -0.00900
H 	H 	0.08420 0.55090 0.38850 0.08600
H 	H 	0.01470 0.92330 0.61420 0.11400
H 	H 	0.98210 0.90880 0.68350 -0.00700
H 	H 	0.79930 0.71020 0.61990 -0.03800
H 	H 	0.83560 0.72550 0.55350 0.11000
H 	H 	0.84290 0.14570 0.40040 0.08200
H 	H 	0.74680 0.23870 0.39470 0.02300
H 	H 	0.58730 0.09530 0.44940 0.03100
H 	H 	0.68630 0.99530 0.45160 0.07300
C 	C 	0.46670 0.35670 0.88620 0.11800
C 	C 	0.48500 0.32670 0.84420 -0.08200
C 	C 	0.45040 0.37300 0.81500 -0.08600
C 	C 	0.41060 0.43500 0.83960 0.13100
C 	C 	0.37780 0.50520 0.82500 -0.12900
C 	C 	0.33260 0.55800 0.84830 0.10600
C 	C 	0.29390 0.62670 0.83290 -0.08600
C 	C 	0.24450 0.65690 0.86180 -0.07900
C 	C 	0.25560 0.60480 0.89610 0.10600
C 	C 	0.21060 0.61350 0.93180 -0.13000
C 	C 	0.22290 0.57320 0.96690 0.12300
C 	C 	0.17930 0.57890 0.00350 -0.07900
C 	C 	0.21470 0.53130 0.03180 -0.09000
C 	C 	0.28120 0.49400 0.01410 0.13400
C 	C 	0.33760 0.44930 0.03420 -0.14100
C 	C 	0.40450 0.41600 0.01670 0.11600
C 	C 	0.46840 0.37720 0.03920 -0.08900
C 	C 	0.51640 0.34720 0.01020 -0.06500
C 	C 	0.47870 0.36530 0.96690 0.09600
C 	C 	0.49940 0.33440 0.92600 -0.11800
C 	C 	0.39460 0.52440 0.78140 0.14100
C 	C 	0.36140 0.46960 0.74190 -0.18800
C 	C 	0.38210 0.48910 0.70290 0.10400
C 	C 	0.43790 0.56180 0.70390 -0.20100
C 	C 	0.46960 0.61700 0.74290 0.12700
C 	C 	0.44610 0.59950 0.78100 -0.19000
C 	C 	0.46670 0.57550 0.66220 0.42100
C 	C 	0.14640 0.67110 0.92950 0.13500
C 	C 	0.16670 0.75610 0.95090 -0.18800
C 	C 	0.10860 0.81100 0.94400 0.10000
C 	C 	0.02930 0.78260 0.91500 -0.21100
C 	C 	0.00720 0.69850 0.89590 0.11100
C 	C 	0.06640 0.64130 0.90220 -0.18700
C 	C 	0.97350 0.84870 0.90720 0.45000
C 	C 	0.32560 0.42820 0.07780 0.15500
C 	C 	0.37870 0.47210 0.11600 -0.20800
C 	C 	0.36980 0.45050 0.15650 0.13000
C 	C 	0.30870 0.38510 0.15860 -0.23200
C 	C 	0.25260 0.34230 0.12030 0.14300
C 	C 	0.26170 0.36420 0.08020 -0.20700
C 	C 	0.30370 0.36240 0.20240 0.48900
C 	C 	0.56280 0.27320 0.92450 0.11800
C 	C 	0.63640 0.28990 0.90980 -0.15600
C 	C 	0.69280 0.23360 0.90730 0.06100
C 	C 	0.67570 0.15580 0.92060 -0.12000
C 	C 	0.60430 0.13920 0.93880 0.05100
C 	C 	0.54730 0.19890 0.94010 -0.14700
C 	C 	0.73850 0.09470 0.91790 0.32000
C 	C 	0.38510 0.10530 0.78940 0.12500
C 	C 	0.40870 0.07660 0.82980 -0.08200
C 	C 	0.36050 0.10870 0.85730 -0.08900
C 	C 	0.30950 0.16120 0.83630 0.13200
C 	C 	0.25390 0.20920 0.85450 -0.13100
C 	C 	0.20960 0.26890 0.83740 0.11100
C 	C 	0.15120 0.31620 0.85750 -0.07900
C 	C 	0.12060 0.36590 0.82990 -0.07700
C 	C 	0.15310 0.34470 0.79040 0.10700
C 	C 	0.12750 0.37320 0.75070 -0.13700
C 	C 	0.15480 0.34740 0.71020 0.12100
C 	C 	0.13630 0.37910 0.67020 -0.08000
C 	C 	0.18290 0.34730 0.64190 -0.08000
C 	C 	0.23140 0.29070 0.66260 0.12400
C 	C 	0.29070 0.24500 0.64450 -0.12000
C 	C 	0.33850 0.19030 0.66470 0.10800
C 	C 	0.39330 0.14000 0.64300 -0.07800
C 	C 	0.42630 0.09260 0.67130 -0.08100
C 	C 	0.39420 0.11620 0.71100 0.10900
C 	C 	0.41690 0.08410 0.74970 -0.12800
C 	C 	0.23510 0.18610 0.89790 0.14000
C 	C 	0.17490 0.11520 0.89610 -0.19400
C 	C 	0.16040 0.09200 0.93440 0.13700
C 	C 	0.20180 0.13720 0.97450 -0.22100
C 	C 	0.26280 0.20980 0.97740 0.10900
C 	C 	0.27810 0.23360 0.93790 -0.18700
C 	C 	0.18930 0.11220 0.01610 0.50100
C 	C 	0.06660 0.43270 0.74980 0.16300
C 	C 	0.98700 0.41620 0.72150 -0.21200
C 	C 	0.92820 0.47180 0.72150 0.14600
C 	C 	0.94980 0.55130 0.74980 -0.25400
C 	C 	0.02760 0.57010 0.77850 0.15300
C 	C 	0.08240 0.51020 0.77840 -0.21800
C 	C 	0.88660 0.61010 0.74940 0.53200
C 	C 	0.31220 0.26480 0.60200 0.11800
C 	C 	0.38490 0.32310 0.60360 -0.16100
C 	C 	0.40910 0.34050 0.56580 0.09200
C 	C 	0.36390 0.29570 0.52500 -0.16800
C 	C 	0.29190 0.23960 0.52340 0.07900
C 	C 	0.26450 0.21890 0.56150 -0.16300
C 	C 	0.38520 0.31120 0.48140 0.45200
C 	C 	0.47950 0.02360 0.75060 0.13400
C 	C 	0.50960 0.87880 0.72760 0.09400
C 	C 	0.45270 0.93810 0.72860 -0.17500
C 	C 	0.59450 0.90590 0.75050 -0.20200
C 	C 	0.62070 0.99110 0.77180 0.09100
C 	C 	0.56130 0.04730 0.77210 -0.17900
C 	C 	0.65680 0.84310 0.75040 0.49400
C 	C 	0.14090 0.03330 0.61360 0.11400
C 	C 	0.17480 0.01590 0.65720 -0.07200
C 	C 	0.12650 0.05040 0.68470 -0.08900
C 	C 	0.06350 0.08890 0.66020 0.12600
C 	C 	0.99530 0.12220 0.67540 -0.12500
C 	C 	0.94170 0.16640 0.65090 0.10100
C 	C 	0.87310 0.20760 0.66780 -0.07900
C 	C 	0.84340 0.25670 0.63850 -0.08300
C 	C 	0.89500 0.24490 0.60360 0.11000
C 	C 	0.88560 0.28700 0.56850 -0.12900
C 	C 	0.92720 0.27450 0.53220 0.13100
C 	C 	0.92200 0.31950 0.49660 -0.08300
C 	C 	0.96950 0.28560 0.46860 -0.08700
C 	C 	0.00680 0.21910 0.48570 0.13200
C 	C 	0.04990 0.16120 0.46520 -0.14400
C 	C 	0.08400 0.09370 0.48400 0.11300
C 	C 	0.12440 0.03010 0.46130 -0.08200
C 	C 	0.15280 0.98360 0.49050 -0.07300
C 	C 	0.13370 0.02130 0.53210 0.10200
C 	C 	0.16380 0.00000 0.57310 -0.11300
C 	C 	0.97540 0.10610 0.71880 0.13900
C 	C 	0.90010 0.05300 0.71810 -0.18300
C 	C 	0.88430 0.03060 0.75760 0.12300
C 	C 	0.94030 0.06300 0.79710 -0.20400
C 	C 	0.01250 0.11840 0.79740 0.10600
C 	C 	0.03040 0.14070 0.75860 -0.19100
C 	C 	0.92340 0.03400 0.83770 0.42600
C 	C 	0.82980 0.35400 0.57090 0.12000
C 	C 	0.74380 0.33210 0.54920 -0.16500
C 	C 	0.68650 0.39000 0.55590 0.07600
C 	C 	0.71480 0.46840 0.58390 -0.17400
C 	C 	0.79990 0.49280 0.60380 0.07900
C 	C 	0.85770 0.43380 0.59750 -0.16800
C 	C 	0.65060 0.52840 0.59310 0.41000
C 	C 	0.06940 0.17360 0.42190 0.17200
C 	C 	0.02870 0.12060 0.38440 -0.22500
C 	C 	0.04850 0.12820 0.34280 0.14000
C 	C 	0.11430 0.19150 0.34120 -0.25100
C 	C 	0.15650 0.24610 0.38080 0.16100
C 	C 	0.13490 0.23720 0.42010 -0.22600
C 	C 	0.13870 0.19910 0.29910 0.50000
C 	C 	0.22700 0.93770 0.57450 0.11200
C 	C 	0.20960 0.86590 0.59040 -0.15300
C 	C 	0.26640 0.81030 0.59330 0.05600
C 	C 	0.34190 0.82260 0.57950 -0.10300
C 	C 	0.36150 0.89540 0.56130 0.03500
C 	C 	0.30190 0.95450 0.55960 -0.14000
C 	C 	0.40560 0.76030 0.58230 0.29700
C 	C 	0.53330 0.64330 0.11380 0.11800
C 	C 	0.51500 0.67330 0.15580 -0.08200
C 	C 	0.54960 0.62700 0.18500 -0.08600
C 	C 	0.58940 0.56500 0.16040 0.13100
C 	C 	0.62220 0.49480 0.17500 -0.12900
C 	C 	0.66740 0.44200 0.15170 0.10600
C 	C 	0.70610 0.37330 0.16710 -0.08500
C 	C 	0.75550 0.34310 0.13820 -0.07900
C 	C 	0.74440 0.39520 0.10390 0.10600
C 	C 	0.78940 0.38650 0.06820 -0.13000
C 	C 	0.77710 0.42680 0.03310 0.12300
C 	C 	0.82070 0.42110 0.99650 -0.07900
C 	C 	0.78530 0.46870 0.96820 -0.09000
C 	C 	0.71880 0.50600 0.98590 0.13400
C 	C 	0.66240 0.55070 0.96580 -0.14100
C 	C 	0.59550 0.58400 0.98330 0.11600
C 	C 	0.53160 0.62280 0.96080 -0.08900
C 	C 	0.48360 0.65280 0.98980 -0.06500
C 	C 	0.52130 0.63470 0.03310 0.09600
C 	C 	0.50060 0.66560 0.07400 -0.11800
C 	C 	0.60540 0.47560 0.21860 0.14100
C 	C 	0.63860 0.53040 0.25810 -0.18800
C 	C 	0.61790 0.51090 0.29710 0.10400
C 	C 	0.56210 0.43820 0.29610 -0.20100
C 	C 	0.53040 0.38300 0.25710 0.12700
C 	C 	0.55390 0.40050 0.21900 -0.19000
C 	C 	0.53330 0.42450 0.33780 0.42100
C 	C 	0.85360 0.32890 0.07050 0.13500
C 	C 	0.83330 0.24390 0.04910 -0.18700
C 	C 	0.89140 0.18900 0.05600 0.10000
C 	C 	0.97070 0.21740 0.08500 -0.21000
C 	C 	0.99280 0.30150 0.10410 0.11200
C 	C 	0.93360 0.35870 0.09780 -0.18600
C 	C 	0.02650 0.15130 0.09280 0.45000
C 	C 	0.67440 0.57180 0.92220 0.15500
C 	C 	0.62130 0.52790 0.88400 -0.20800
C 	C 	0.63020 0.54950 0.84350 0.13000
C 	C 	0.69130 0.61490 0.84140 -0.23200
C 	C 	0.74740 0.65770 0.87970 0.14300
C 	C 	0.73830 0.63580 0.91980 -0.20700
C 	C 	0.69630 0.63760 0.79760 0.48900
C 	C 	0.43720 0.72680 0.07550 0.11800
C 	C 	0.36360 0.71010 0.09020 -0.15700
C 	C 	0.30720 0.76640 0.09270 0.06100
C 	C 	0.32430 0.84420 0.07940 -0.12100
C 	C 	0.39570 0.86080 0.06120 0.05200
C 	C 	0.45270 0.80110 0.05990 -0.14700
C 	C 	0.26150 0.90530 0.08210 0.32000
C 	C 	0.61490 0.89470 0.21060 0.12500
C 	C 	0.59130 0.92340 0.17020 -0.08200
C 	C 	0.63950 0.89130 0.14270 -0.09000
C 	C 	0.69050 0.83880 0.16370 0.13200
C 	C 	0.74610 0.79080 0.14550 -0.13100
C 	C 	0.79040 0.73110 0.16260 0.11100
C 	C 	0.84880 0.68380 0.14250 -0.07900
C 	C 	0.87940 0.63410 0.17010 -0.07700
C 	C 	0.84690 0.65530 0.20960 0.10700
C 	C 	0.87250 0.62680 0.24930 -0.13800
C 	C 	0.84520 0.65260 0.28980 0.12100
C 	C 	0.86370 0.62090 0.32980 -0.08000
C 	C 	0.81710 0.65270 0.35810 -0.08000
C 	C 	0.76860 0.70930 0.33740 0.12400
C 	C 	0.70930 0.75500 0.35550 -0.12000
C 	C 	0.66150 0.80970 0.33530 0.10800
C 	C 	0.60670 0.86000 0.35700 -0.07900
C 	C 	0.57370 0.90740 0.32870 -0.08100
C 	C 	0.60580 0.88380 0.28900 0.10800
C 	C 	0.58310 0.91590 0.25030 -0.12900
C 	C 	0.76490 0.81390 0.10210 0.14000
C 	C 	0.82510 0.88480 0.10390 -0.19500
C 	C 	0.83960 0.90800 0.06560 0.13800
C 	C 	0.79820 0.86280 0.02550 -0.22100
C 	C 	0.73720 0.79020 0.02260 0.10900
C 	C 	0.72190 0.76640 0.06210 -0.18800
C 	C 	0.81070 0.88780 0.98390 0.50100
C 	C 	0.93340 0.56730 0.25020 0.16400
C 	C 	0.01300 0.58380 0.27850 -0.21300
C 	C 	0.07180 0.52820 0.27850 0.14700
C 	C 	0.05020 0.44870 0.25020 -0.25500
C 	C 	0.97240 0.42990 0.22150 0.15400
C 	C 	0.91760 0.48980 0.22160 -0.21900
C 	C 	0.11340 0.38990 0.25060 0.53200
C 	C 	0.68780 0.73520 0.39800 0.11800
C 	C 	0.61510 0.67690 0.39640 -0.16100
C 	C 	0.59090 0.65950 0.43420 0.09200
C 	C 	0.63610 0.70430 0.47500 -0.16900
C 	C 	0.70810 0.76040 0.47660 0.07900
C 	C 	0.73550 0.78110 0.43850 -0.16300
C 	C 	0.61480 0.68880 0.51860 0.45200
C 	C 	0.52050 0.97640 0.24940 0.13500
C 	C 	0.49040 0.12120 0.27240 0.09700
C 	C 	0.54730 0.06190 0.27140 -0.17400
C 	C 	0.40550 0.09410 0.24950 -0.20800
C 	C 	0.37930 0.00890 0.22820 0.10900
C 	C 	0.43870 0.95270 0.22790 -0.19100
C 	C 	0.34320 0.15690 0.24960 0.49600
C 	C 	0.85910 0.96670 0.38640 0.10900
C 	C 	0.82520 0.98410 0.34280 -0.07900
C 	C 	0.87350 0.94960 0.31530 -0.08600
C 	C 	0.93650 0.91110 0.33980 0.12400
C 	C 	0.00470 0.87780 0.32460 -0.12300
C 	C 	0.05830 0.83360 0.34910 0.10000
C 	C 	0.12690 0.79240 0.33220 -0.07800
C 	C 	0.15660 0.74330 0.36150 -0.08300
C 	C 	0.10500 0.75510 0.39640 0.11000
C 	C 	0.11440 0.71300 0.43150 -0.12900
C 	C 	0.07280 0.72550 0.46780 0.13000
C 	C 	0.07800 0.68050 0.50340 -0.08300
C 	C 	0.03050 0.71440 0.53140 -0.08800
C 	C 	0.99320 0.78090 0.51430 0.13300
C 	C 	0.95010 0.83880 0.53480 -0.14600
C 	C 	0.91600 0.90630 0.51600 0.11600
C 	C 	0.87560 0.96990 0.53870 -0.09600
C 	C 	0.84720 0.01640 0.50950 -0.05400
C 	C 	0.86630 0.97870 0.46790 0.08700
C 	C 	0.83620 0.00000 0.42690 -0.10100
C 	C 	0.02460 0.89390 0.28120 0.13400
C 	C 	0.09990 0.94700 0.28190 -0.17600
C 	C 	0.11570 0.96940 0.24240 0.11000
C 	C 	0.05970 0.93700 0.20290 -0.19700
C 	C 	0.98750 0.88160 0.20260 0.10100
C 	C 	0.96960 0.85930 0.24140 -0.18600
C 	C 	0.07660 0.96600 0.16230 0.41900
C 	C 	0.17020 0.64600 0.42910 0.12000
C 	C 	0.25620 0.66790 0.45080 -0.16500
C 	C 	0.31350 0.61000 0.44410 0.07600
C 	C 	0.28520 0.53160 0.41610 -0.17400
C 	C 	0.20010 0.50720 0.39620 0.07900
C 	C 	0.14230 0.56620 0.40250 -0.16800
C 	C 	0.34940 0.47160 0.40690 0.41000
C 	C 	0.93060 0.82640 0.57810 0.17300
C 	C 	0.97130 0.87940 0.61560 -0.22500
C 	C 	0.95150 0.87180 0.65720 0.13900
C 	C 	0.88570 0.80850 0.65880 -0.25200
C 	C 	0.84350 0.75390 0.61920 0.16100
C 	C 	0.86510 0.76280 0.57990 -0.22600
C 	C 	0.86130 0.80090 0.70090 0.50000
C 	C 	0.77300 0.06230 0.42550 0.10400
C 	C 	0.79040 0.13410 0.40960 -0.14600
C 	C 	0.73360 0.18970 0.40670 0.05000
C 	C 	0.65810 0.17740 0.42050 -0.09800
C 	C 	0.63850 0.10460 0.43870 0.02700
C 	C 	0.69810 0.04550 0.44040 -0.12600
C 	C 	0.59440 0.23970 0.41770 0.29500
N 	N 	0.41790 0.42220 0.88170 -0.22100
N 	N 	0.30990 0.54870 0.88880 -0.14300
N 	N 	0.28450 0.51940 0.97420 -0.21800
N 	N 	0.41440 0.41470 0.97350 -0.14200
N 	N 	0.32730 0.15930 0.79480 -0.22400
N 	N 	0.20940 0.28650 0.79570 -0.14500
N 	N 	0.21440 0.29250 0.70420 -0.21900
N 	N 	0.33930 0.17400 0.70590 -0.14500
N 	N 	0.07780 0.08210 0.61780 -0.22100
N 	N 	0.95170 0.19150 0.61140 -0.14400
N 	N 	0.98080 0.21730 0.52550 -0.22300
N 	N 	0.08550 0.08520 0.52710 -0.14500
N 	N 	0.58210 0.57780 0.11830 -0.22100
N 	N 	0.69010 0.45130 0.11120 -0.14300
N 	N 	0.71550 0.48060 0.02580 -0.21800
N 	N 	0.58560 0.58530 0.02650 -0.14200
N 	N 	0.67270 0.84070 0.20520 -0.22400
N 	N 	0.79060 0.71350 0.20430 -0.14500
N 	N 	0.78560 0.70750 0.29580 -0.21900
N 	N 	0.66070 0.82600 0.29410 -0.14500
N 	N 	0.92220 0.91790 0.38220 -0.22000
N 	N 	0.04830 0.80850 0.38860 -0.14400
N 	N 	0.01920 0.78270 0.47450 -0.22300
N 	N 	0.91450 0.91480 0.47290 -0.14400
O 	O 	0.53600 0.62750 0.66680 -0.66800
O 	O 	0.42550 0.53980 0.62520 -0.42500
O 	O 	0.90530 0.82420 0.87950 -0.63900
O 	O 	0.99530 0.92290 0.92610 -0.49900
O 	O 	0.24980 0.29690 0.20250 -0.63200
O 	O 	0.35070 0.40700 0.23580 -0.54000
O 	O 	0.78770 0.09630 0.89190 -0.45300
O 	O 	0.74110 0.03980 0.94350 -0.43000
O 	O 	0.22270 0.14200 0.05050 -0.48000
O 	O 	0.12830 0.05150 0.01200 -0.48400
O 	O 	0.91080 0.68460 0.77470 -0.54800
O 	O 	0.81570 0.58940 0.72570 -0.57100
O 	O 	0.44770 0.36950 0.48660 -0.48800
O 	O 	0.35580 0.27120 0.44750 -0.45200
O 	O 	0.63070 0.76870 0.72990 -0.55600
O 	O 	0.73170 0.87100 0.77090 -0.55000
O 	O 	0.87350 0.96480 0.83360 -0.67400
O 	O 	0.96120 0.07540 0.87540 -0.41500
O 	O 	0.67700 0.59670 0.62140 -0.63600
O 	O 	0.57730 0.50390 0.57320 -0.48300
O 	O 	0.20250 0.25020 0.29710 -0.64400
O 	O 	0.09380 0.14980 0.26420 -0.52800
O 	O 	0.45930 0.75910 0.55550 -0.41500
O 	O 	0.40430 0.71280 0.60890 -0.44700
O 	O 	0.46400 0.37250 0.33320 -0.66800
O 	O 	0.57450 0.46020 0.37480 -0.42500
O 	O 	0.09470 0.17580 0.12050 -0.64000
O 	O 	0.00470 0.07710 0.07390 -0.49800
O 	O 	0.75020 0.70310 0.79750 -0.63200
O 	O 	0.64930 0.59300 0.76420 -0.54000
O 	O 	0.21230 0.90370 0.10810 -0.45500
O 	O 	0.25890 0.96020 0.05650 -0.43300
O 	O 	0.77730 0.85800 0.94950 -0.48000
O 	O 	0.87170 0.94850 0.98800 -0.48500
O 	O 	0.08920 0.31540 0.22530 -0.54800
O 	O 	0.18430 0.41060 0.27430 -0.57100
O 	O 	0.55230 0.63050 0.51340 -0.48800
O 	O 	0.64420 0.72880 0.55250 -0.45200
O 	O 	0.36930 0.23130 0.27010 -0.55700
O 	O 	0.26830 0.12900 0.22910 -0.55000
O 	O 	0.12650 0.03520 0.16640 -0.67100
O 	O 	0.03880 0.92460 0.12460 -0.41500
O 	O 	0.32300 0.40330 0.37860 -0.63600
O 	O 	0.42270 0.49610 0.42680 -0.48300
O 	O 	0.79750 0.74980 0.70290 -0.64500
O 	O 	0.90620 0.85020 0.73580 -0.52900
O 	O 	0.54070 0.24090 0.44450 -0.41500
O 	O 	0.59570 0.28720 0.39110 -0.44600
