data_crystal

_cell_length_a 20.73080
_cell_length_b 34.37440
_cell_length_c 19.37720
_cell_angle_alpha 90.00000
_cell_angle_beta  115.43200
_cell_angle_gamma 90.00000

_symmetry_space_group_name_	'P 1'
_symmetry_space_group_name_H-M	'P 1'

loop_
_symmetry_equiv_pos_as_xyz
  x,y,z

loop_
_atom_site_label
_atom_site_type_symbol
_atom_site_fract_x
_atom_site_fract_y
_atom_site_fract_z
_atom_site_charge
Co	Co	0.33956 0.57047 0.71608 1.10700
Co	Co	0.19140 0.44364 0.85774 1.10300
Co	Co	0.27923 0.48386 0.75011 1.10600
Co	Co	0.28715 0.57638 0.52931 1.09400
Co	Co	0.23564 0.59125 0.35004 1.06000
C 	C 	0.82140 0.18430 0.18230 0.00000
C 	C 	0.78670 0.20600 0.22000 -0.02900
C 	C 	0.86200 0.20360 0.15120 -0.02900
C 	C 	0.00670 0.37800 0.05680 0.03100
C 	C 	0.07420 0.39320 0.11100 -0.06400
C 	C 	0.12040 0.40920 0.07720 0.02100
C 	C 	0.04610 0.38340 0.62790 0.01000
C 	C 	0.08930 0.41450 0.62070 -0.09800
C 	C 	0.08880 0.42520 0.55090 0.02500
C 	C 	0.99280 0.37980 0.48660 0.02800
C 	C 	0.03930 0.40880 0.48450 -0.06700
C 	C 	0.99670 0.36770 0.55690 -0.05600
C 	C 	0.14430 0.43270 0.69820 0.42400
C 	C 	0.89260 0.30240 0.33400 -0.04600
C 	C 	0.85890 0.32700 0.26940 0.02000
C 	C 	0.94060 0.36140 0.41330 -0.00600
C 	C 	0.86300 0.36920 0.27880 -0.04400
C 	C 	0.93350 0.31970 0.40680 -0.03100
C 	C 	0.90600 0.38490 0.35040 -0.03000
C 	C 	0.82610 0.30960 0.18920 -0.03900
C 	C 	0.70470 0.34130 0.17630 -0.04800
C 	C 	0.74180 0.32270 0.14240 0.02300
C 	C 	0.71040 0.30870 0.06910 -0.04600
C 	C 	0.63350 0.35240 0.13170 -0.03200
C 	C 	0.39480 0.39210 0.91580 -0.08100
C 	C 	0.51200 0.36810 0.93350 -0.06300
C 	C 	0.63690 0.32050 0.02140 -0.03200
C 	C 	0.40870 0.37730 0.98720 -0.01000
C 	C 	0.60030 0.34190 0.05720 0.00300
C 	C 	0.44390 0.38680 0.88410 0.00400
C 	C 	0.47650 0.36020 0.03590 -0.01000
C 	C 	0.52830 0.35600 0.00730 0.01700
C 	C 	0.87020 0.32730 0.15120 0.01800
C 	C 	0.99090 0.33900 0.15940 -0.03100
C 	C 	0.84350 0.35280 0.08360 -0.04300
C 	C 	0.96170 0.36180 0.09190 -0.00200
C 	C 	0.94560 0.32350 0.18870 -0.04300
C 	C 	0.88940 0.36970 0.05440 -0.03100
C 	C 	0.03260 0.39380 0.94630 0.00700
C 	C 	0.10050 0.40720 0.99670 -0.09400
C 	C 	0.14470 0.42280 0.95050 0.40800
C 	C 	0.40240 0.54050 0.84570 0.34800
C 	C 	0.65360 0.45270 0.29950 0.02900
C 	C 	0.57630 0.48420 0.15290 -0.00400
C 	C 	0.56320 0.49800 0.21360 -0.03100
C 	C 	0.60510 0.48360 0.29070 -0.05100
C 	C 	0.66930 0.44090 0.24390 -0.05300
C 	C 	0.63160 0.45470 0.16480 -0.03200
C 	C 	0.77250 0.45440 0.41210 0.01900
C 	C 	0.86760 0.49740 0.40380 -0.03200
C 	C 	0.79830 0.47960 0.37050 -0.04600
C 	C 	0.91480 0.48690 0.48140 -0.00900
C 	C 	0.89290 0.46050 0.52840 -0.03000
C 	C 	0.82230 0.44590 0.49240 -0.04500
C 	C 	0.69900 0.39450 0.37400 0.02300
C 	C 	0.75250 0.32850 0.40140 -0.03300
C 	C 	0.68990 0.31140 0.35910 -0.00100
C 	C 	0.63480 0.37580 0.32420 -0.04800
C 	C 	0.75880 0.36990 0.40970 -0.04600
C 	C 	0.62860 0.33470 0.32040 -0.03300
C 	C 	0.69600 0.43760 0.37840 -0.04300
C 	C 	0.09340 0.52560 0.50600 0.02900
C 	C 	0.12380 0.53290 0.58620 -0.13200
C 	C 	0.09270 0.52720 0.63240 0.03300
C 	C 	0.98850 0.50500 0.51780 0.04300
C 	C 	0.02420 0.50970 0.47280 -0.07500
C 	C 	0.02210 0.51190 0.59630 -0.07600
C 	C 	0.66310 0.44840 0.43410 0.02200
C 	C 	0.59770 0.47810 0.52290 -0.00600
C 	C 	0.64490 0.50100 0.51160 -0.03100
C 	C 	0.67720 0.48850 0.46610 -0.04700
C 	C 	0.61910 0.42580 0.45090 -0.04700
C 	C 	0.58620 0.43790 0.49530 -0.03100
C 	C 	0.47170 0.52630 0.62810 -0.10800
C 	C 	0.43760 0.50180 0.57020 0.02200
C 	C 	0.55180 0.49380 0.56340 0.02300
C 	C 	0.54410 0.53500 0.65710 0.02200
C 	C 	0.47750 0.48740 0.53540 -0.06600
C 	C 	0.59020 0.51830 0.62980 -0.06400
C 	C 	0.67690 0.18890 0.36050 -0.04700
C 	C 	0.65060 0.20750 0.28810 -0.00400
C 	C 	0.68190 0.26860 0.35470 0.01600
C 	C 	0.70300 0.20590 0.43000 -0.00400
C 	C 	0.65140 0.24830 0.28700 -0.05100
C 	C 	0.45030 0.52490 0.92370 -0.10900
C 	C 	0.46610 0.48590 0.93700 -0.00200
C 	C 	0.53280 0.49860 0.07160 0.02000
C 	C 	0.51270 0.47500 0.01300 -0.04500
C 	C 	0.47180 0.55200 0.98440 -0.00400
C 	C 	0.51300 0.53740 0.06120 -0.04700
C 	C 	0.42800 0.54650 0.66280 0.31000
C 	C 	0.67580 0.14270 0.35990 0.27700
C 	C 	0.32740 0.41780 0.86830 0.37600
C 	C 	0.78810 0.24610 0.21890 -0.04600
C 	C 	0.82790 0.26500 0.18770 0.02500
C 	C 	0.86430 0.24700 0.15070 -0.04800
C 	C 	0.80130 0.01630 0.15650 0.29500
C 	C 	0.81790 0.14080 0.17790 0.02400
C 	C 	0.87200 0.07720 0.17860 0.01000
C 	C 	0.88030 0.11920 0.18730 -0.04900
C 	C 	0.75120 0.08090 0.15870 0.01500
C 	C 	0.80910 0.06150 0.16660 -0.06100
C 	C 	0.20040 0.54980 0.61860 0.37000
C 	C 	0.98760 0.37810 0.98050 -0.06500
C 	C 	0.75460 0.12340 0.16660 -0.04500
C 	C 	0.70710 0.24840 0.42510 -0.04600
C 	C 	0.13520 0.62770 0.12850 -0.02500
C 	C 	0.09000 0.65930 0.12940 -0.04000
C 	C 	0.14210 0.61490 0.06550 -0.03100
C 	C 	0.36980 0.60570 0.44440 0.40300
C 	C 	0.13890 0.60270 0.40900 0.32600
C 	C 	0.98290 0.67810 0.55860 0.00400
C 	C 	0.91040 0.67350 0.52430 -0.03600
C 	C 	0.90900 0.70910 0.63890 0.01400
C 	C 	0.02060 0.69870 0.62910 -0.04100
C 	C 	0.98570 0.71270 0.66580 -0.03700
C 	C 	0.87540 0.68700 0.56610 -0.03900
C 	C 	0.02590 0.65660 0.51570 0.02000
C 	C 	0.13110 0.64600 0.49880 0.03400
C 	C 	0.02670 0.60900 0.41800 0.01400
C 	C 	0.09440 0.67020 0.53870 -0.07200
C 	C 	0.10040 0.62130 0.44790 -0.12300
C 	C 	0.79180 0.70700 0.65060 0.02100
C 	C 	0.67240 0.70660 0.54620 -0.03000
C 	C 	0.74200 0.72280 0.57810 -0.04500
C 	C 	0.65350 0.67900 0.58410 -0.00300
C 	C 	0.69580 0.66790 0.65480 -0.03000
C 	C 	0.76680 0.68090 0.68630 -0.04700
C 	C 	0.86990 0.72330 0.68260 -0.03800
C 	C 	0.57570 0.66430 0.54990 0.02600
C 	C 	0.52920 0.67443 0.47550 -0.06700
C 	C 	0.46270 0.65670 0.44010 0.02600
C 	C 	0.44270 0.62870 0.47900 -0.11700
C 	C 	0.48910 0.61850 0.55330 0.01800
C 	C 	0.55560 0.63630 0.58870 -0.06500
C 	C 	0.83650 0.84830 0.65290 0.00200
C 	C 	0.89360 0.79080 0.63780 -0.04600
C 	C 	0.86480 0.76870 0.67690 0.02200
C 	C 	0.87890 0.83300 0.62850 -0.03200
C 	C 	0.80240 0.82420 0.69170 -0.03000
C 	C 	0.81780 0.78490 0.70600 -0.04500
C 	C 	0.79290 0.94860 0.55700 0.01200
C 	C 	0.77670 0.97070 0.60910 -0.07300
C 	C 	0.77930 0.95480 0.67640 0.01300
C 	C 	0.81360 0.89060 0.63620 0.01900
C 	C 	0.81240 0.90790 0.56960 -0.05000
C 	C 	0.79770 0.91420 0.68880 -0.04900
C 	C 	0.91410 0.70950 0.76380 0.02100
C 	C 	0.92930 0.67000 0.77440 -0.04700
C 	C 	0.97090 0.65480 0.85110 -0.04000
C 	C 	0.99610 0.67940 0.91080 0.01000
C 	C 	0.98290 0.71760 0.90180 -0.03900
C 	C 	0.94060 0.73610 0.82730 -0.04600
C 	C 	0.04820 0.66440 0.99180 -0.00400
C 	C 	0.09160 0.63430 0.98910 -0.05300
C 	C 	0.76140 0.01270 0.59210 0.31700
C 	C 	0.99370 0.62980 0.45960 -0.04900
C 	C 	0.03670 0.68020 0.05260 -0.03100
O 	O 	0.67170 0.12711 0.30010 -0.22100
O 	O 	0.24250 0.54128 0.68940 -0.57000
O 	O 	0.21830 0.57035 0.57710 -0.53000
O 	O 	0.67730 0.12760 0.42080 -0.20300
O 	O 	0.39730 0.57480 0.83310 -0.45500
O 	O 	0.35920 0.54206 0.63050 -0.54200
O 	O 	0.45490 0.56830 0.71970 -0.36700
O 	O 	0.28790 0.41850 0.90360 -0.47300
O 	O 	0.37490 0.51450 0.79280 -0.51600
O 	O 	0.32660 0.43404 0.81290 -0.48800
O 	O 	0.74980 0.00180 0.16280 -0.22000
O 	O 	0.13640 0.42390 0.75050 -0.52000
O 	O 	0.12780 0.41340 0.89250 -0.50500
O 	O 	0.18870 0.45400 0.68330 -0.48900
O 	O 	0.19590 0.44110 0.00050 -0.35300
O 	O 	0.84630 0.99770 0.14200 -0.21700
O 	O 	0.74710 0.02302 0.52600 -0.21900
O 	O 	0.76000 0.03147 0.64540 -0.23000
O 	O 	0.20640 0.60816 0.43140 -0.58500
O 	O 	0.35960 0.58252 0.48490 -0.55500
O 	O 	0.32930 0.61680 0.37870 -0.50700
O 	O 	0.10610 0.57950 0.35380 -0.36100
H 	H 	0.75823 0.19009 0.25059 0.04400
H 	H 	0.89362 0.18622 0.12601 0.04000
H 	H 	0.08853 0.39230 0.17474 0.03700
H 	H 	0.17336 0.42358 0.11539 0.03200
H 	H 	0.05332 0.37350 0.68693 0.04300
H 	H 	0.12915 0.44731 0.54938 0.02800
H 	H 	0.03583 0.41881 0.42692 0.03800
H 	H 	0.95774 0.34402 0.55572 0.04000
H 	H 	0.88669 0.26948 0.32710 0.04400
H 	H 	0.83134 0.38885 0.22805 0.03900
H 	H 	0.96041 0.30055 0.45955 0.03600
H 	H 	0.91223 0.41785 0.35628 0.03600
H 	H 	0.73151 0.34769 0.24021 0.04300
H 	H 	0.74161 0.28865 0.04756 0.04400
H 	H 	0.60359 0.37027 0.15822 0.03800
H 	H 	0.55419 0.36299 0.91144 0.03700
H 	H 	0.61075 0.31263 -0.04188 0.04000
H 	H 	0.36577 0.37842 1.00915 0.04500
H 	H 	0.42980 0.39683 0.82322 0.03500
H 	H 	1.05090 0.33348 0.18921 0.03600
H 	H 	0.78404 0.35965 0.05261 0.04100
H 	H 	0.96885 0.30693 0.24513 0.04200
H 	H 	0.86626 0.38909 0.00161 0.03700
H 	H 	0.01493 0.39548 0.88196 0.03900
H 	H 	0.51962 0.52058 0.20272 0.03100
H 	H 	0.60031 0.49603 0.34285 0.04200
H 	H 	0.71407 0.41892 0.25610 0.04100
H 	H 	0.64615 0.44255 0.11857 0.03600
H 	H 	0.88357 0.51894 0.36914 0.03300
H 	H 	0.76318 0.48634 0.30781 0.04200
H 	H 	0.93220 0.45319 0.58948 0.03500
H 	H 	0.80443 0.42661 0.52882 0.03900
H 	H 	0.80248 0.31004 0.43190 0.03700
H 	H 	0.58655 0.39389 0.28595 0.04100
H 	H 	0.81359 0.38291 0.44608 0.04200
H 	H 	0.57436 0.32056 0.28625 0.03700
H 	H 	0.12505 0.53263 0.47185 0.00600
H 	H 	0.12249 0.53446 0.69575 -0.01700
H 	H 	-0.00234 0.50078 0.41008 0.04000
H 	H 	-0.00840 0.50497 0.63171 0.03400
H 	H 	0.65855 0.53092 0.53956 0.03400
H 	H 	0.71420 0.50887 0.45347 0.04100
H 	H 	0.60739 0.39480 0.42794 0.04200
H 	H 	0.55081 0.41773 0.51085 0.03300
H 	H 	0.37915 0.49429 0.55307 0.00100
H 	H 	0.56885 0.55681 0.70578 0.03300
H 	H 	0.45102 0.46927 0.48114 0.03300
H 	H 	0.65056 0.52180 0.65293 0.04000
H 	H 	0.62986 0.18932 0.23363 0.04500
H 	H 	0.71878 0.18729 0.48350 0.05300
H 	H 	0.62693 0.26465 0.23036 0.04300
H 	H 	0.44209 0.46411 0.88817 0.03400
H 	H 	0.53276 0.44369 0.02143 0.04500
H 	H 	0.45667 0.58398 0.97200 0.03200
H 	H 	0.52908 0.55752 0.11270 0.03700
H 	H 	0.75634 0.26356 0.24380 0.04300
H 	H 	0.89272 0.26533 0.12314 0.04500
H 	H 	0.91862 0.05842 0.18207 0.04800
H 	H 	0.93267 0.13504 0.20083 0.04500
H 	H 	0.69942 0.06459 0.14590 0.05600
H 	H 	0.93391 0.36547 0.93946 0.04000
H 	H 	0.70785 0.14188 0.16375 0.05300
H 	H 	0.73188 0.26517 0.48124 0.04200
H 	H 	0.16873 0.61132 0.18350 -0.03200
H 	H 	0.09183 0.66991 0.18595 0.02200
H 	H 	0.18299 0.59144 0.07131 0.01800
H 	H 	0.88344 0.65938 0.46549 0.03300
H 	H 	0.08089 0.70279 0.65290 0.02800
H 	H 	1.01559 0.72876 0.72214 0.03800
H 	H 	0.81593 0.67995 0.54052 0.04000
H 	H 	0.19049 0.65006 0.51528 -0.00100
H 	H 	0.00521 0.58662 0.37000 0.03800
H 	H 	0.11448 0.69546 0.58073 0.03500
H 	H 	0.63129 0.71674 0.48781 0.03300
H 	H 	0.75610 0.74697 0.54667 0.04300
H 	H 	0.67403 0.64850 0.68763 0.03000
H 	H 	0.80420 0.66862 0.74448 0.04000
H 	H 	0.54565 0.69730 0.44352 0.04000
H 	H 	0.42456 0.66510 0.37921 0.02900
H 	H 	0.47262 0.59557 0.58513 0.02500
H 	H 	0.59375 0.62795 0.64962 0.03800
H 	H 	0.92853 0.77651 0.61286 0.04300
H 	H 	0.90534 0.85190 0.59960 0.03800
H 	H 	0.76248 0.83791 0.71054 0.03600
H 	H 	0.79551 0.76571 0.73864 0.04100
H 	H 	0.79084 0.96278 0.50291 0.05200
H 	H 	0.76723 0.97378 0.71766 0.04900
H 	H 	0.82594 0.89127 0.52663 0.04500
H 	H 	0.80031 0.89906 0.74228 0.04300
H 	H 	0.90925 0.64952 0.72316 0.03900
H 	H 	0.98186 0.62226 0.86014 0.03000
H 	H 	1.00484 0.73775 0.95352 0.03500
H 	H 	0.93138 0.76888 0.82372 0.04100
H 	H 	0.09094 0.62373 0.93304 0.02700
H 	H 	0.93531 0.62425 0.44626 0.03800
H 	H 	-0.00157 0.70353 0.05451 0.03700
