data_crystal

_cell_length_a 26.96680
_cell_length_b 26.96680
_cell_length_c 26.96680
_cell_angle_alpha 64.43200
_cell_angle_beta  82.13520
_cell_angle_gamma 115.56800

_symmetry_space_group_name_	'P 1'
_symmetry_space_group_name_H-M	'P 1'

loop_
_symmetry_equiv_pos_as_xyz
  x,y,z

loop_
_atom_site_label
_atom_site_type_symbol
_atom_site_fract_x
_atom_site_fract_y
_atom_site_fract_z
_atom_site_charge
Cu	Cu	0.00757 0.05120 0.26711 0.90400
Cu	Cu	0.00342 0.06381 0.35939 0.89500
Cu	Cu	0.68169 0.94880 0.04363 0.90300
Cu	Cu	0.57680 0.93619 0.06039 0.89400
Cu	Cu	0.95637 0.27468 0.99243 0.90100
Cu	Cu	0.93961 0.36281 0.99658 0.89300
Cu	Cu	0.73289 0.72532 0.31831 0.90300
Cu	Cu	0.64061 0.63719 0.42320 0.89500
Cu	Cu	0.99243 0.94880 0.73289 0.90300
Cu	Cu	0.99658 0.93619 0.64061 0.89400
Cu	Cu	0.31831 0.05120 0.95637 0.90200
Cu	Cu	0.42320 0.06381 0.93961 0.89300
Cu	Cu	0.04363 0.72532 0.00757 0.90000
Cu	Cu	0.06039 0.63719 0.00342 0.89200
Cu	Cu	0.26711 0.27468 0.68169 0.90300
Cu	Cu	0.35939 0.36281 0.57680 0.89500
Cu	Cu	0.27498 0.31452 0.96046 0.90300
Cu	Cu	0.36523 0.42327 0.94196 0.90700
Cu	Cu	0.72502 0.68548 0.03954 0.90300
Cu	Cu	0.63477 0.57673 0.05804 0.90700
Cu	Cu	0.96046 0.23544 0.72502 0.90300
Cu	Cu	0.94196 0.30719 0.63477 0.90700
Cu	Cu	0.03954 0.76456 0.27498 0.90300
Cu	Cu	0.05804 0.69281 0.36523 0.90700
Si	Si	0.88944 0.60797 0.85921 2.10400
Si	Si	0.53282 0.39203 0.71853 2.10900
Si	Si	0.28147 0.74865 0.11056 2.10500
Si	Si	0.14079 0.25135 0.46718 2.10800
Si	Si	0.11056 0.39203 0.14079 2.10400
Si	Si	0.46718 0.60797 0.28147 2.10900
Si	Si	0.71853 0.25135 0.88944 2.10500
Si	Si	0.85921 0.74865 0.53282 2.10800
Si	Si	0.60929 0.75826 0.85103 0.86800
Si	Si	0.39071 0.24174 0.14897 0.86800
Si	Si	0.85103 0.46032 0.39071 0.86800
Si	Si	0.14897 0.53968 0.60929 0.86800
H 	H 	0.52800 0.24680 0.93360 0.01900
H 	H 	0.50090 0.38050 0.93580 0.04200
H 	H 	0.36300 0.21420 0.96720 0.04500
H 	H 	0.82950 0.86930 0.35180 0.03900
H 	H 	0.67980 0.75830 0.50070 0.05400
H 	H 	0.82150 0.91880 0.47170 0.03700
H 	H 	0.04040 0.92230 0.45810 0.01800
H 	H 	0.05370 0.77830 0.46320 0.04600
H 	H 	0.05510 0.90840 0.31530 0.04700
H 	H 	0.94750 0.78960 0.66110 0.20200
H 	H 	0.90110 0.72340 0.76310 -0.20900
H 	H 	0.96960 0.61760 0.76500 -0.22000
H 	H 	0.01670 0.68350 0.66280 0.22700
H 	H 	0.93120 0.54440 0.87040 0.64900
H 	H 	0.90250 0.53140 0.93290 0.63900
H 	H 	0.96530 0.59570 0.88620 0.64300
H 	H 	0.92570 0.68720 0.88470 0.65100
H 	H 	0.86100 0.62770 0.93270 0.65800
H 	H 	0.86970 0.68110 0.87040 0.66500
H 	H 	0.83650 0.51300 0.82790 -0.21500
H 	H 	0.74330 0.43730 0.84240 0.21900
H 	H 	0.67130 0.48920 0.93630 0.22500
H 	H 	0.76510 0.56730 0.91680 -0.21400
H 	H 	0.59910 0.83220 0.73710 -0.04100
H 	H 	0.62190 0.83880 0.64450 0.12600
H 	H 	0.72330 0.77410 0.68480 0.14500
H 	H 	0.69630 0.76130 0.77720 -0.08300
H 	H 	0.81960 0.75320 0.71880 0.01900
H 	H 	0.68370 0.61950 0.87960 0.04200
H 	H 	0.81860 0.78580 0.85120 0.04500
H 	H 	0.77890 0.13070 0.03980 0.04100
H 	H 	0.74100 0.24170 0.07850 0.05500
H 	H 	0.60950 0.08120 0.09730 0.03800
H 	H 	0.61960 0.07770 0.88190 0.01700
H 	H 	0.75850 0.22170 0.72460 0.04600
H 	H 	0.77630 0.09160 0.85330 0.04700
H 	H 	0.54930 0.21040 0.84210 0.20300
H 	H 	0.51350 0.27660 0.82230 -0.20900
H 	H 	0.61740 0.38240 0.64800 -0.21900
H 	H 	0.65370 0.31650 0.66680 0.22300
H 	H 	0.58520 0.45560 0.61320 0.65100
H 	H 	0.53570 0.46860 0.62890 0.64200
H 	H 	0.51810 0.40430 0.63040 0.64600
H 	H 	0.42810 0.31280 0.76150 0.65400
H 	H 	0.43960 0.37230 0.76670 0.66100
H 	H 	0.44850 0.31890 0.81140 0.66700
H 	H 	0.65910 0.48700 0.67650 -0.21600
H 	H 	0.72030 0.56270 0.69400 0.21900
H 	H 	0.57450 0.51080 0.81790 0.22600
H 	H 	0.51590 0.43270 0.80220 -0.21500
H 	H 	0.43070 0.16780 0.23310 -0.04100
H 	H 	0.51670 0.16120 0.21690 0.12600
H 	H 	0.54110 0.22590 0.05080 0.14600
H 	H 	0.46150 0.23870 0.06500 -0.08200
H 	H 	0.28120 0.46160 0.47200 0.01900
H 	H 	0.12040 0.43670 0.49910 0.04200
H 	H 	0.14880 0.33020 0.63700 0.04500
H 	H 	0.96020 0.18130 0.17050 0.04100
H 	H 	0.92150 0.18050 0.32020 0.05500
H 	H 	0.90270 0.29320 0.17850 0.03800
H 	H 	0.11810 0.49850 0.95960 0.01900
H 	H 	0.27540 0.51690 0.94630 0.04600
H 	H 	0.14670 0.37040 0.94490 0.04800
H 	H 	0.15790 0.60860 0.05250 0.20200
H 	H 	0.17770 0.66420 0.09890 -0.20900
H 	H 	0.35200 0.73460 0.03040 -0.22100
H 	H 	0.33320 0.67950 0.98330 0.22800
H 	H 	0.38680 0.80160 0.06880 0.64900
H 	H 	0.37110 0.83540 0.09750 0.64000
H 	H 	0.36960 0.85150 0.03470 0.64300
H 	H 	0.23850 0.81040 0.07430 0.65100
H 	H 	0.23330 0.79370 0.13900 0.65900
H 	H 	0.18860 0.74010 0.13030 0.66500
H 	H 	0.32350 0.66440 0.16350 -0.21600
H 	H 	0.30600 0.58570 0.25670 0.21900
H 	H 	0.18210 0.60760 0.32870 0.22500
H 	H 	0.19780 0.68190 0.23490 -0.21400
H 	H 	0.76690 0.33620 0.40090 -0.04100
H 	H 	0.78310 0.26640 0.37810 0.12600
H 	H 	0.94920 0.40810 0.27670 0.14600
H 	H 	0.93500 0.47350 0.30370 -0.08200
H 	H 	0.06640 0.53840 0.18040 0.01900
H 	H 	0.06420 0.56330 0.31630 0.04200
H 	H 	0.03280 0.66980 0.18140 0.04500
H 	H 	0.64820 0.81870 0.22110 0.03900
H 	H 	0.49930 0.81950 0.25900 0.05400
H 	H 	0.52830 0.70680 0.39050 0.03700
H 	H 	0.54190 0.50150 0.38040 0.01800
H 	H 	0.53680 0.48310 0.24150 0.04500
H 	H 	0.68470 0.62960 0.22370 0.04800
H 	H 	0.33890 0.39140 0.45070 0.20300
H 	H 	0.23690 0.33580 0.48650 -0.20900
H 	H 	0.23500 0.26540 0.38260 -0.21900
H 	H 	0.33720 0.32050 0.34630 0.22300
H 	H 	0.12960 0.19840 0.41480 0.65000
H 	H 	0.06710 0.16460 0.46430 0.64100
H 	H 	0.11380 0.14850 0.48190 0.64500
H 	H 	0.11530 0.18960 0.57190 0.65400
H 	H 	0.06730 0.20630 0.56040 0.66000
H 	H 	0.12960 0.25990 0.55150 0.66600
H 	H 	0.17210 0.33560 0.34090 -0.21600
H 	H 	0.15760 0.41430 0.27970 0.21900
H 	H 	0.06370 0.39240 0.42550 0.22600
H 	H 	0.08320 0.31810 0.48410 -0.21400
H 	H 	0.26290 0.66380 0.56930 -0.04100
H 	H 	0.35550 0.73360 0.48330 0.12600
H 	H 	0.31520 0.59190 0.45890 0.14500
H 	H 	0.22280 0.52650 0.53850 -0.08300
H 	H 	0.47200 0.75320 0.06640 0.01900
H 	H 	0.49910 0.61950 0.06420 0.04200
H 	H 	0.63700 0.78580 0.03280 0.04500
H 	H 	0.17050 0.13070 0.64820 0.03900
H 	H 	0.32020 0.24170 0.49930 0.05400
H 	H 	0.17850 0.08120 0.52830 0.03700
H 	H 	0.95960 0.07770 0.54190 0.01800
H 	H 	0.94630 0.22170 0.53680 0.04600
H 	H 	0.94490 0.09160 0.68470 0.04700
H 	H 	0.05250 0.21040 0.33890 0.20200
H 	H 	0.09890 0.27660 0.23690 -0.20900
H 	H 	0.03040 0.38240 0.23500 -0.22000
H 	H 	0.98330 0.31650 0.33720 0.22700
H 	H 	0.06880 0.45560 0.12960 0.64900
H 	H 	0.09750 0.46860 0.06710 0.63900
H 	H 	0.03470 0.40430 0.11380 0.64300
H 	H 	0.07430 0.31280 0.11530 0.65100
H 	H 	0.13900 0.37230 0.06730 0.65800
H 	H 	0.13030 0.31890 0.12960 0.66500
H 	H 	0.16350 0.48700 0.17210 -0.21500
H 	H 	0.25670 0.56270 0.15760 0.21900
H 	H 	0.32870 0.51080 0.06370 0.22500
H 	H 	0.23490 0.43270 0.08320 -0.21400
H 	H 	0.40090 0.16780 0.26290 -0.04100
H 	H 	0.37810 0.16120 0.35550 0.12600
H 	H 	0.27670 0.22590 0.31520 0.14500
H 	H 	0.30370 0.23870 0.22280 -0.08300
H 	H 	0.18040 0.24680 0.28120 0.01900
H 	H 	0.31630 0.38050 0.12040 0.04200
H 	H 	0.18140 0.21420 0.14880 0.04500
H 	H 	0.22110 0.86930 0.96020 0.04100
H 	H 	0.25900 0.75830 0.92150 0.05500
H 	H 	0.39050 0.91880 0.90270 0.03800
H 	H 	0.38040 0.92230 0.11810 0.01700
H 	H 	0.24150 0.77830 0.27540 0.04600
H 	H 	0.22370 0.90840 0.14670 0.04700
H 	H 	0.45070 0.78960 0.15790 0.20300
H 	H 	0.48650 0.72340 0.17770 -0.20900
H 	H 	0.38260 0.61760 0.35200 -0.21900
H 	H 	0.34630 0.68350 0.33320 0.22300
H 	H 	0.41480 0.54440 0.38680 0.65100
H 	H 	0.46430 0.53140 0.37110 0.64200
H 	H 	0.48190 0.59570 0.36960 0.64600
H 	H 	0.57190 0.68720 0.23850 0.65400
H 	H 	0.56040 0.62770 0.23330 0.66100
H 	H 	0.55150 0.68110 0.18860 0.66700
H 	H 	0.34090 0.51300 0.32350 -0.21600
H 	H 	0.27970 0.43730 0.30600 0.21900
H 	H 	0.42550 0.48920 0.18210 0.22600
H 	H 	0.48410 0.56730 0.19780 -0.21500
H 	H 	0.56930 0.83220 0.76690 -0.04100
H 	H 	0.48330 0.83880 0.78310 0.12600
H 	H 	0.45890 0.77410 0.94920 0.14600
H 	H 	0.53850 0.76130 0.93500 -0.08200
H 	H 	0.71880 0.53840 0.52800 0.01900
H 	H 	0.87960 0.56330 0.50090 0.04200
H 	H 	0.85120 0.66980 0.36300 0.04500
H 	H 	0.03980 0.81870 0.82950 0.04100
H 	H 	0.07850 0.81950 0.67980 0.05500
H 	H 	0.09730 0.70680 0.82150 0.03800
H 	H 	0.88190 0.50150 0.04040 0.01900
H 	H 	0.72460 0.48310 0.05370 0.04600
H 	H 	0.85330 0.62960 0.05510 0.04800
H 	H 	0.84210 0.39140 0.94750 0.20200
H 	H 	0.82230 0.33580 0.90110 -0.20900
H 	H 	0.64800 0.26540 0.96960 -0.22100
H 	H 	0.66680 0.32050 0.01670 0.22800
H 	H 	0.61320 0.19840 0.93120 0.64900
H 	H 	0.62890 0.16460 0.90250 0.64000
H 	H 	0.63040 0.14850 0.96530 0.64300
H 	H 	0.76150 0.18960 0.92570 0.65100
H 	H 	0.76670 0.20630 0.86100 0.65900
H 	H 	0.81140 0.25990 0.86970 0.66500
H 	H 	0.67650 0.33560 0.83650 -0.21600
H 	H 	0.69400 0.41430 0.74330 0.21900
H 	H 	0.81790 0.39240 0.67130 0.22500
H 	H 	0.80220 0.31810 0.76510 -0.21400
H 	H 	0.23310 0.66380 0.59910 -0.04100
H 	H 	0.21690 0.73360 0.62190 0.12600
H 	H 	0.05080 0.59190 0.72330 0.14600
H 	H 	0.06500 0.52650 0.69630 -0.08200
H 	H 	0.93360 0.46160 0.81960 0.01900
H 	H 	0.93580 0.43670 0.68370 0.04200
H 	H 	0.96720 0.33020 0.81860 0.04500
H 	H 	0.35180 0.18130 0.77890 0.03900
H 	H 	0.50070 0.18050 0.74100 0.05400
H 	H 	0.47170 0.29320 0.60950 0.03700
H 	H 	0.45810 0.49850 0.61960 0.01800
H 	H 	0.46320 0.51690 0.75850 0.04500
H 	H 	0.31530 0.37040 0.77630 0.04800
H 	H 	0.66110 0.60860 0.54930 0.20300
H 	H 	0.76310 0.66420 0.51350 -0.20900
H 	H 	0.76500 0.73460 0.61740 -0.21900
H 	H 	0.66280 0.67950 0.65370 0.22300
H 	H 	0.87040 0.80160 0.58520 0.65000
H 	H 	0.93290 0.83540 0.53570 0.64100
H 	H 	0.88620 0.85150 0.51810 0.64500
H 	H 	0.88470 0.81040 0.42810 0.65400
H 	H 	0.93270 0.79370 0.43960 0.66000
H 	H 	0.87040 0.74010 0.44850 0.66600
H 	H 	0.82790 0.66440 0.65910 -0.21600
H 	H 	0.84240 0.58570 0.72030 0.21900
H 	H 	0.93630 0.60760 0.57450 0.22600
H 	H 	0.91680 0.68190 0.51590 -0.21400
H 	H 	0.73710 0.33620 0.43070 -0.04100
H 	H 	0.64450 0.26640 0.51670 0.12600
H 	H 	0.68480 0.40810 0.54110 0.14500
H 	H 	0.77720 0.47350 0.46150 -0.08300
C 	C 	0.41703 0.15706 0.95291 0.37300
C 	C 	0.44132 0.22056 0.95064 -0.11400
C 	C 	0.50244 0.26060 0.93816 0.00800
C 	C 	0.52409 0.31940 0.93291 -0.05600
C 	C 	0.48589 0.34010 0.94001 0.00100
C 	C 	0.42519 0.30023 0.95346 -0.10800
C 	C 	0.40340 0.24075 0.95849 0.02600
C 	C 	0.38543 0.32476 0.95653 0.35900
C 	C 	0.89873 0.95960 0.37027 0.34600
C 	C 	0.83585 0.90280 0.40595 -0.11900
C 	C 	0.80862 0.86063 0.38795 0.01500
C 	C 	0.75111 0.80610 0.42299 -0.09700
C 	C 	0.71884 0.79480 0.47676 -0.01200
C 	C 	0.74531 0.83800 0.49369 -0.02500
C 	C 	0.80342 0.89070 0.45928 -0.02000
C 	C 	0.71600 0.82710 0.54950 0.04200
C 	C 	0.03878 0.98010 0.35112 0.36200
C 	C 	0.04818 0.92580 0.38082 -0.11700
C 	C 	0.04377 0.90100 0.43963 -0.01600
C 	C 	0.04440 0.84580 0.47040 -0.06500
C 	C 	0.05238 0.81540 0.44242 -0.00900
C 	C 	0.05404 0.89371 0.35387 0.01700
C 	C 	0.03160 0.81380 0.53360 0.05800
C 	C 	0.01400 0.78280 0.58660 -0.19400
C 	C 	0.98723 0.74350 0.65007 0.38500
C 	C 	0.95198 0.75500 0.68182 -0.52800
C 	C 	0.92463 0.71550 0.74287 0.58300
C 	C 	0.93104 0.66380 0.77576 -0.89200
C 	C 	0.96539 0.65240 0.74421 0.59500
C 	C 	0.99340 0.69170 0.68270 -0.54300
C 	C 	0.92660 0.56460 0.89100 -2.17200
C 	C 	0.88600 0.65700 0.89060 -2.18400
C 	C 	0.81124 0.54580 0.87376 -0.90000
C 	C 	0.80300 0.50760 0.85040 0.59500
C 	C 	0.74720 0.46190 0.85910 -0.55300
C 	C 	0.70460 0.49370 0.91450 -0.55400
C 	C 	0.76060 0.53940 0.90380 0.60800
C 	C 	0.58660 0.36270 0.91870 0.07300
C 	C 	0.63680 0.40330 0.90590 -0.18300
C 	C 	0.69722 0.45310 0.89288 0.39700
C 	C 	0.05751 0.80100 0.35809 0.35900
C 	C 	0.05837 0.84040 0.38383 -0.11200
C 	C 	0.69671 0.81890 0.59679 -0.12900
C 	C 	0.67533 0.80600 0.65507 0.24600
C 	C 	0.63570 0.77730 0.77300 -0.41600
C 	C 	0.61950 0.81440 0.72910 0.19400
C 	C 	0.63730 0.82210 0.67140 -0.26700
C 	C 	0.69550 0.78350 0.69460 -0.34000
C 	C 	0.67660 0.77260 0.75300 0.31500
C 	C 	0.72517 0.75830 0.40553 0.35000
C 	C 	0.89003 0.84294 0.74003 0.37300
C 	C 	0.82880 0.77944 0.77924 -0.11400
C 	C 	0.80124 0.73940 0.75816 0.00900
C 	C 	0.74769 0.68060 0.79531 -0.05600
C 	C 	0.71989 0.65990 0.85421 0.00200
C 	C 	0.74631 0.69977 0.87504 -0.10800
C 	C 	0.80076 0.75925 0.83735 0.02600
C 	C 	0.71871 0.67524 0.93933 0.35900
C 	C 	0.67013 0.04040 0.06087 0.34600
C 	C 	0.69125 0.09720 0.06695 -0.11600
C 	C 	0.75142 0.13937 0.05201 0.01400
C 	C 	0.77091 0.19390 0.05499 -0.09500
C 	C 	0.72844 0.20520 0.07596 -0.01300
C 	C 	0.66831 0.16200 0.09269 -0.02400
C 	C 	0.65002 0.10930 0.08728 -0.02100
C 	C 	0.62340 0.17290 0.11110 0.04300
C 	C 	0.66878 0.01990 0.94132 0.35400
C 	C 	0.69338 0.07420 0.87762 -0.11600
C 	C 	0.65937 0.09900 0.85723 -0.01700
C 	C 	0.68380 0.15420 0.80140 -0.06600
C 	C 	0.74218 0.18460 0.76302 -0.00900
C 	C 	0.75242 0.10629 0.83967 0.01600
C 	C 	0.65260 0.18620 0.78220 0.05900
C 	C 	0.63060 0.21720 0.76880 -0.19700
C 	C 	0.60643 0.25650 0.75627 0.38700
C 	C 	0.56318 0.24500 0.80302 -0.52900
C 	C 	0.54163 0.28450 0.79087 0.58400
C 	C 	0.56044 0.33620 0.73276 -0.89300
C 	C 	0.60339 0.34760 0.68701 0.59300
C 	C 	0.62560 0.30830 0.69830 -0.53800
C 	C 	0.54440 0.43540 0.63800 -2.17900
C 	C 	0.45240 0.34300 0.77100 -2.19000
C 	C 	0.58044 0.45420 0.73456 -0.90200
C 	C 	0.64200 0.49240 0.70460 0.59700
C 	C 	0.67900 0.53810 0.71470 -0.55400
C 	C 	0.59180 0.50630 0.78910 -0.55500
C 	C 	0.55680 0.46060 0.77880 0.60900
C 	C 	0.71860 0.63730 0.77610 0.07300
C 	C 	0.69080 0.59670 0.76650 -0.18300
C 	C 	0.65402 0.54690 0.75588 0.39800
C 	C 	0.84091 0.19900 0.74349 0.35900
C 	C 	0.77577 0.15960 0.78203 -0.11200
C 	C 	0.58431 0.18110 0.12219 -0.12800
C 	C 	0.53893 0.19400 0.13067 0.24600
C 	C 	0.44970 0.22270 0.14160 -0.41600
C 	C 	0.45650 0.18560 0.19490 0.19400
C 	C 	0.50650 0.17790 0.18480 -0.26700
C 	C 	0.52190 0.21650 0.08800 -0.34000
C 	C 	0.47440 0.22740 0.09600 0.31600
C 	C 	0.83617 0.24170 0.03313 0.35000
C 	C 	0.25997 0.36994 0.58297 0.37300
C 	C 	0.22076 0.39196 0.55868 -0.11300
C 	C 	0.24184 0.44060 0.49756 0.00800
C 	C 	0.20469 0.45700 0.47591 -0.05600
C 	C 	0.14579 0.42590 0.51411 0.00100
C 	C 	0.12496 0.37865 0.57481 -0.10800
C 	C 	0.16265 0.36189 0.59660 0.02600
C 	C 	0.06067 0.34196 0.61457 0.35900
C 	C 	0.93913 0.26900 0.10127 0.34500
C 	C 	0.93305 0.24180 0.16415 -0.11600
C 	C 	0.94799 0.19657 0.19138 0.01400
C 	C 	0.94501 0.17410 0.24889 -0.09500
C 	C 	0.92404 0.19560 0.28116 -0.01200
C 	C 	0.90731 0.23900 0.25469 -0.02400
C 	C 	0.91272 0.26270 0.19658 -0.02100
C 	C 	0.88890 0.26550 0.28400 0.04300
C 	C 	0.05868 0.38990 0.96122 0.35900
C 	C 	0.12238 0.42900 0.95182 -0.11500
C 	C 	0.14277 0.48340 0.95623 -0.01700
C 	C 	0.19860 0.51480 0.95560 -0.06400
C 	C 	0.23698 0.49480 0.94762 -0.01000
C 	C 	0.16033 0.40791 0.94596 0.01700
C 	C 	0.21780 0.56520 0.96840 0.05800
C 	C 	0.23120 0.60060 0.98600 -0.19200
C 	C 	0.24373 0.63730 0.01277 0.38400
C 	C 	0.19698 0.63380 0.04802 -0.52800
C 	C 	0.20913 0.66750 0.07537 0.58300
C 	C 	0.26724 0.70680 0.06896 -0.89300
C 	C 	0.31299 0.70960 0.03461 0.59600
C 	C 	0.30170 0.67610 0.00660 -0.54500
C 	C 	0.36200 0.81760 0.07340 -2.17400
C 	C 	0.22900 0.77660 0.11400 -2.18600
C 	C 	0.26544 0.68500 0.18876 -0.90000
C 	C 	0.29540 0.65340 0.19700 0.59600
C 	C 	0.28530 0.60630 0.25280 -0.55300
C 	C 	0.21090 0.61910 0.29540 -0.55400
C 	C 	0.22120 0.66440 0.23940 0.60800
C 	C 	0.22390 0.50530 0.41340 0.07300
C 	C 	0.23350 0.54270 0.36320 -0.18300
C 	C 	0.24412 0.59010 0.30278 0.39800
C 	C 	0.25651 0.41560 0.94249 0.35900
C 	C 	0.21797 0.44220 0.94163 -0.11100
C 	C 	0.87781 0.29350 0.30329 -0.12900
C 	C 	0.86933 0.33040 0.32467 0.24600
C 	C 	0.85840 0.40870 0.36430 -0.41600
C 	C 	0.80510 0.34860 0.38050 0.19400
C 	C 	0.81520 0.30870 0.36270 -0.26700
C 	C 	0.91200 0.39010 0.30450 -0.34000
C 	C 	0.90400 0.42960 0.32340 0.31600
C 	C 	0.96687 0.13070 0.27483 0.35000
C 	C 	0.04709 0.63006 0.10997 0.37300
C 	C 	0.04936 0.60804 0.17120 -0.11400
C 	C 	0.06184 0.55940 0.19876 0.00800
C 	C 	0.06709 0.54300 0.25231 -0.05600
C 	C 	0.05999 0.57410 0.28011 0.00200
C 	C 	0.04654 0.62135 0.25369 -0.10800
C 	C 	0.04151 0.63811 0.19924 0.02600
C 	C 	0.04347 0.65804 0.28129 0.35900
C 	C 	0.62973 0.73100 0.32987 0.34600
C 	C 	0.59405 0.75820 0.30875 -0.11800
C 	C 	0.61205 0.80343 0.24858 0.01500
C 	C 	0.57701 0.82590 0.22909 -0.09700
C 	C 	0.52324 0.80440 0.27156 -0.01200
C 	C 	0.50631 0.76100 0.33169 -0.02500
C 	C 	0.54072 0.73730 0.34998 -0.02000
C 	C 	0.45050 0.73450 0.37660 0.04200
C 	C 	0.64888 0.61010 0.33122 0.36000
C 	C 	0.61918 0.57100 0.30662 -0.11700
C 	C 	0.56037 0.51660 0.34063 -0.01600
C 	C 	0.52960 0.48520 0.31620 -0.06600
C 	C 	0.55758 0.50520 0.25782 -0.00900
C 	C 	0.64613 0.59209 0.24758 0.01700
C 	C 	0.46640 0.43480 0.34740 0.05900
C 	C 	0.41340 0.39940 0.36940 -0.19700
C 	C 	0.34993 0.36270 0.39357 0.38700
C 	C 	0.31818 0.36620 0.43682 -0.52900
C 	C 	0.25713 0.33250 0.45837 0.58400
C 	C 	0.22424 0.29320 0.43956 -0.89200
C 	C 	0.25579 0.29040 0.39661 0.59300
C 	C 	0.31730 0.32390 0.37440 -0.53800
C 	C 	0.10900 0.18240 0.45560 -2.17700
C 	C 	0.10940 0.22340 0.54760 -2.18900
C 	C 	0.12624 0.31500 0.41956 -0.90100
C 	C 	0.14960 0.34660 0.35800 0.59600
C 	C 	0.14090 0.39370 0.32100 -0.55300
C 	C 	0.08550 0.38090 0.40820 -0.55500
C 	C 	0.09620 0.33560 0.44320 0.60900
C 	C 	0.08130 0.49470 0.28140 0.07300
C 	C 	0.09410 0.45730 0.30920 -0.18300
C 	C 	0.10712 0.40990 0.34598 0.39800
C 	C 	0.64191 0.58440 0.15909 0.35900
C 	C 	0.61617 0.55780 0.22423 -0.11200
C 	C 	0.40321 0.70650 0.41569 -0.12900
C 	C 	0.34493 0.66960 0.46107 0.24600
C 	C 	0.22700 0.59130 0.55030 -0.41600
C 	C 	0.27090 0.65140 0.54350 0.19400
C 	C 	0.32860 0.69130 0.49350 -0.26700
C 	C 	0.30540 0.60990 0.47810 -0.34000
C 	C 	0.24700 0.57040 0.52560 0.31500
C 	C 	0.59447 0.86930 0.16383 0.35000
C 	C 	0.58297 0.84294 0.04709 0.37300
C 	C 	0.55868 0.77944 0.04936 -0.11400
C 	C 	0.49756 0.73940 0.06184 0.00800
C 	C 	0.47591 0.68060 0.06709 -0.05600
C 	C 	0.51411 0.65990 0.05999 0.00100
C 	C 	0.57481 0.69977 0.04654 -0.10800
C 	C 	0.59660 0.75925 0.04151 0.02600
C 	C 	0.61457 0.67524 0.04347 0.35900
C 	C 	0.10127 0.04040 0.62973 0.34600
C 	C 	0.16415 0.09720 0.59405 -0.11900
C 	C 	0.19138 0.13937 0.61205 0.01500
C 	C 	0.24889 0.19390 0.57701 -0.09700
C 	C 	0.28116 0.20520 0.52324 -0.01200
C 	C 	0.25469 0.16200 0.50631 -0.02500
C 	C 	0.19658 0.10930 0.54072 -0.02000
C 	C 	0.28400 0.17290 0.45050 0.04200
C 	C 	0.96122 0.01990 0.64888 0.36200
C 	C 	0.95182 0.07420 0.61918 -0.11700
C 	C 	0.95623 0.09900 0.56037 -0.01600
C 	C 	0.95560 0.15420 0.52960 -0.06500
C 	C 	0.94762 0.18460 0.55758 -0.00900
C 	C 	0.94596 0.10629 0.64613 0.01700
C 	C 	0.96840 0.18620 0.46640 0.05800
C 	C 	0.98600 0.21720 0.41340 -0.19400
C 	C 	0.01277 0.25650 0.34993 0.38500
C 	C 	0.04802 0.24500 0.31818 -0.52800
C 	C 	0.07537 0.28450 0.25713 0.58300
C 	C 	0.06896 0.33620 0.22424 -0.89200
C 	C 	0.03461 0.34760 0.25579 0.59500
C 	C 	0.00660 0.30830 0.31730 -0.54300
C 	C 	0.07340 0.43540 0.10900 -2.17200
C 	C 	0.11400 0.34300 0.10940 -2.18400
C 	C 	0.18876 0.45420 0.12624 -0.90000
C 	C 	0.19700 0.49240 0.14960 0.59500
C 	C 	0.25280 0.53810 0.14090 -0.55300
C 	C 	0.29540 0.50630 0.08550 -0.55400
C 	C 	0.23940 0.46060 0.09620 0.60800
C 	C 	0.41340 0.63730 0.08130 0.07300
C 	C 	0.36320 0.59670 0.09410 -0.18300
C 	C 	0.30278 0.54690 0.10712 0.39700
C 	C 	0.94249 0.19900 0.64191 0.35900
C 	C 	0.94163 0.15960 0.61617 -0.11200
C 	C 	0.30329 0.18110 0.40321 -0.12900
C 	C 	0.32467 0.19400 0.34493 0.24600
C 	C 	0.36430 0.22270 0.22700 -0.41600
C 	C 	0.38050 0.18560 0.27090 0.19400
C 	C 	0.36270 0.17790 0.32860 -0.26700
C 	C 	0.30450 0.21650 0.30540 -0.34000
C 	C 	0.32340 0.22740 0.24700 0.31500
C 	C 	0.27483 0.24170 0.59447 0.35000
C 	C 	0.10997 0.15706 0.25997 0.37300
C 	C 	0.17120 0.22056 0.22076 -0.11400
C 	C 	0.19876 0.26060 0.24184 0.00900
C 	C 	0.25231 0.31940 0.20469 -0.05600
C 	C 	0.28011 0.34010 0.14579 0.00200
C 	C 	0.25369 0.30023 0.12496 -0.10800
C 	C 	0.19924 0.24075 0.16265 0.02600
C 	C 	0.28129 0.32476 0.06067 0.35900
C 	C 	0.32987 0.95960 0.93913 0.34600
C 	C 	0.30875 0.90280 0.93305 -0.11600
C 	C 	0.24858 0.86063 0.94799 0.01400
C 	C 	0.22909 0.80610 0.94501 -0.09500
C 	C 	0.27156 0.79480 0.92404 -0.01300
C 	C 	0.33169 0.83800 0.90731 -0.02400
C 	C 	0.34998 0.89070 0.91272 -0.02100
C 	C 	0.37660 0.82710 0.88890 0.04300
C 	C 	0.33122 0.98010 0.05868 0.35400
C 	C 	0.30662 0.92580 0.12238 -0.11600
C 	C 	0.34063 0.90100 0.14277 -0.01700
C 	C 	0.31620 0.84580 0.19860 -0.06600
C 	C 	0.25782 0.81540 0.23698 -0.00900
C 	C 	0.24758 0.89371 0.16033 0.01600
C 	C 	0.34740 0.81380 0.21780 0.05900
C 	C 	0.36940 0.78280 0.23120 -0.19700
C 	C 	0.39357 0.74350 0.24373 0.38700
C 	C 	0.43682 0.75500 0.19698 -0.52900
C 	C 	0.45837 0.71550 0.20913 0.58400
C 	C 	0.43956 0.66380 0.26724 -0.89300
C 	C 	0.39661 0.65240 0.31299 0.59300
C 	C 	0.37440 0.69170 0.30170 -0.53800
C 	C 	0.45560 0.56460 0.36200 -2.17900
C 	C 	0.54760 0.65700 0.22900 -2.19000
C 	C 	0.41956 0.54580 0.26544 -0.90200
C 	C 	0.35800 0.50760 0.29540 0.59700
C 	C 	0.32100 0.46190 0.28530 -0.55400
C 	C 	0.40820 0.49370 0.21090 -0.55500
C 	C 	0.44320 0.53940 0.22120 0.60900
C 	C 	0.28140 0.36270 0.22390 0.07300
C 	C 	0.30920 0.40330 0.23350 -0.18300
C 	C 	0.34598 0.45310 0.24412 0.39800
C 	C 	0.15909 0.80100 0.25651 0.35900
C 	C 	0.22423 0.84040 0.21797 -0.11200
C 	C 	0.41569 0.81890 0.87781 -0.12800
C 	C 	0.46107 0.80600 0.86933 0.24600
C 	C 	0.55030 0.77730 0.85840 -0.41600
C 	C 	0.54350 0.81440 0.80510 0.19400
C 	C 	0.49350 0.82210 0.81520 -0.26700
C 	C 	0.47810 0.78350 0.91200 -0.34000
C 	C 	0.52560 0.77260 0.90400 0.31600
C 	C 	0.16383 0.75830 0.96687 0.35000
C 	C 	0.74003 0.63006 0.41703 0.37300
C 	C 	0.77924 0.60804 0.44132 -0.11300
C 	C 	0.75816 0.55940 0.50244 0.00800
C 	C 	0.79531 0.54300 0.52409 -0.05600
C 	C 	0.85421 0.57410 0.48589 0.00100
C 	C 	0.87504 0.62135 0.42519 -0.10800
C 	C 	0.83735 0.63811 0.40340 0.02600
C 	C 	0.93933 0.65804 0.38543 0.35900
C 	C 	0.06087 0.73100 0.89873 0.34500
C 	C 	0.06695 0.75820 0.83585 -0.11600
C 	C 	0.05201 0.80343 0.80862 0.01400
C 	C 	0.05499 0.82590 0.75111 -0.09500
C 	C 	0.07596 0.80440 0.71884 -0.01200
C 	C 	0.09269 0.76100 0.74531 -0.02400
C 	C 	0.08728 0.73730 0.80342 -0.02100
C 	C 	0.11110 0.73450 0.71600 0.04300
C 	C 	0.94132 0.61010 0.03878 0.35900
C 	C 	0.87762 0.57100 0.04818 -0.11500
C 	C 	0.85723 0.51660 0.04377 -0.01700
C 	C 	0.80140 0.48520 0.04440 -0.06400
C 	C 	0.76302 0.50520 0.05238 -0.01000
C 	C 	0.83967 0.59209 0.05404 0.01700
C 	C 	0.78220 0.43480 0.03160 0.05800
C 	C 	0.76880 0.39940 0.01400 -0.19200
C 	C 	0.75627 0.36270 0.98723 0.38400
C 	C 	0.80302 0.36620 0.95198 -0.52800
C 	C 	0.79087 0.33250 0.92463 0.58300
C 	C 	0.73276 0.29320 0.93104 -0.89300
C 	C 	0.68701 0.29040 0.96539 0.59600
C 	C 	0.69830 0.32390 0.99340 -0.54500
C 	C 	0.63800 0.18240 0.92660 -2.17400
C 	C 	0.77100 0.22340 0.88600 -2.18600
C 	C 	0.73456 0.31500 0.81124 -0.90000
C 	C 	0.70460 0.34660 0.80300 0.59600
C 	C 	0.71470 0.39370 0.74720 -0.55300
C 	C 	0.78910 0.38090 0.70460 -0.55400
C 	C 	0.77880 0.33560 0.76060 0.60800
C 	C 	0.77610 0.49470 0.58660 0.07300
C 	C 	0.76650 0.45730 0.63680 -0.18300
C 	C 	0.75588 0.40990 0.69722 0.39800
C 	C 	0.74349 0.58440 0.05751 0.35900
C 	C 	0.78203 0.55780 0.05837 -0.11100
C 	C 	0.12219 0.70650 0.69671 -0.12900
C 	C 	0.13067 0.66960 0.67533 0.24600
C 	C 	0.14160 0.59130 0.63570 -0.41600
C 	C 	0.19490 0.65140 0.61950 0.19400
C 	C 	0.18480 0.69130 0.63730 -0.26700
C 	C 	0.08800 0.60990 0.69550 -0.34000
C 	C 	0.09600 0.57040 0.67660 0.31600
C 	C 	0.03313 0.86930 0.72517 0.35000
C 	C 	0.95291 0.36994 0.89003 0.37300
C 	C 	0.95064 0.39196 0.82880 -0.11400
C 	C 	0.93816 0.44060 0.80124 0.00800
C 	C 	0.93291 0.45700 0.74769 -0.05600
C 	C 	0.94001 0.42590 0.71989 0.00200
C 	C 	0.95346 0.37865 0.74631 -0.10800
C 	C 	0.95849 0.36189 0.80076 0.02600
C 	C 	0.95653 0.34196 0.71871 0.35900
C 	C 	0.37027 0.26900 0.67013 0.34600
C 	C 	0.40595 0.24180 0.69125 -0.11800
C 	C 	0.38795 0.19657 0.75142 0.01500
C 	C 	0.42299 0.17410 0.77091 -0.09700
C 	C 	0.47676 0.19560 0.72844 -0.01200
C 	C 	0.49369 0.23900 0.66831 -0.02500
C 	C 	0.45928 0.26270 0.65002 -0.02000
C 	C 	0.54950 0.26550 0.62340 0.04200
C 	C 	0.35112 0.38990 0.66878 0.36000
C 	C 	0.38082 0.42900 0.69338 -0.11700
C 	C 	0.43963 0.48340 0.65937 -0.01600
C 	C 	0.47040 0.51480 0.68380 -0.06600
C 	C 	0.44242 0.49480 0.74218 -0.00900
C 	C 	0.35387 0.40791 0.75242 0.01700
C 	C 	0.53360 0.56520 0.65260 0.05900
C 	C 	0.58660 0.60060 0.63060 -0.19700
C 	C 	0.65007 0.63730 0.60643 0.38700
C 	C 	0.68182 0.63380 0.56318 -0.52900
C 	C 	0.74287 0.66750 0.54163 0.58400
C 	C 	0.77576 0.70680 0.56044 -0.89200
C 	C 	0.74421 0.70960 0.60339 0.59300
C 	C 	0.68270 0.67610 0.62560 -0.53800
C 	C 	0.89100 0.81760 0.54440 -2.17700
C 	C 	0.89060 0.77660 0.45240 -2.18900
C 	C 	0.87376 0.68500 0.58044 -0.90100
C 	C 	0.85040 0.65340 0.64200 0.59600
C 	C 	0.85910 0.60630 0.67900 -0.55300
C 	C 	0.91450 0.61910 0.59180 -0.55500
C 	C 	0.90380 0.66440 0.55680 0.60900
C 	C 	0.91870 0.50530 0.71860 0.07300
C 	C 	0.90590 0.54270 0.69080 -0.18300
C 	C 	0.89288 0.59010 0.65402 0.39800
C 	C 	0.35809 0.41560 0.84091 0.35900
C 	C 	0.38383 0.44220 0.77577 -0.11200
C 	C 	0.59679 0.29350 0.58431 -0.12900
C 	C 	0.65507 0.33040 0.53893 0.24600
C 	C 	0.77300 0.40870 0.44970 -0.41600
C 	C 	0.72910 0.34860 0.45650 0.19400
C 	C 	0.67140 0.30870 0.50650 -0.26700
C 	C 	0.69460 0.39010 0.52190 -0.34000
C 	C 	0.75300 0.42960 0.47440 0.31500
C 	C 	0.40553 0.13070 0.83617 0.35000
C 	C 	0.57630 0.67050 0.90580 -0.22200
C 	C 	0.67180 0.80570 0.86610 -0.21200
C 	C 	0.42370 0.32950 0.09420 -0.22200
C 	C 	0.32820 0.19430 0.13390 -0.21200
C 	C 	0.90580 0.48210 0.42370 -0.22200
C 	C 	0.86610 0.53790 0.32820 -0.21200
C 	C 	0.09420 0.51790 0.57630 -0.22200
C 	C 	0.13390 0.46210 0.67180 -0.21200
O 	O 	0.36259 0.12705 0.96294 -0.42200
O 	O 	0.45289 0.14169 0.94276 -0.43900
O 	O 	0.92288 0.98603 0.39615 -0.43900
O 	O 	0.92399 0.97631 0.31742 -0.41000
O 	O 	0.33191 0.28749 0.96574 -0.41300
O 	O 	0.40810 0.37978 0.94998 -0.41300
O 	O 	0.06470 0.75512 0.38678 -0.41100
O 	O 	0.04959 0.81640 0.31037 -0.41500
O 	O 	0.03479 0.00671 0.37820 -0.43300
O 	O 	0.03305 0.99217 0.30234 -0.41800
O 	O 	0.67539 0.70574 0.44105 -0.40900
O 	O 	0.75673 0.77645 0.35402 -0.41400
O 	O 	0.91001 0.87295 0.76446 -0.42300
O 	O 	0.91555 0.85831 0.68880 -0.43900
O 	O 	0.61782 0.01397 0.06315 -0.43500
O 	O 	0.70627 0.02369 0.05232 -0.40400
O 	O 	0.74677 0.71251 0.95558 -0.41300
O 	O 	0.67024 0.62022 0.97168 -0.41300
O 	O 	0.85810 0.24488 0.69042 -0.41100
O 	O 	0.87323 0.18360 0.76681 -0.41500
O 	O 	0.61509 0.99329 0.97192 -0.42700
O 	O 	0.70549 0.00783 0.95912 -0.41800
O 	O 	0.85321 0.29426 0.03035 -0.40600
O 	O 	0.86953 0.22355 0.01972 -0.41000
O 	O 	0.23554 0.32553 0.63741 -0.42200
O 	O 	0.31120 0.39565 0.54711 -0.43900
O 	O 	0.93685 0.31903 0.07712 -0.43500
O 	O 	0.94768 0.24141 0.07601 -0.40500
O 	O 	0.04442 0.29765 0.66809 -0.41200
O 	O 	0.02832 0.35808 0.59190 -0.41300
O 	O 	0.30958 0.45148 0.93530 -0.41100
O 	O 	0.23319 0.35996 0.95041 -0.41400
O 	O 	0.02808 0.41299 0.96521 -0.43000
O 	O 	0.04088 0.33539 0.96695 -0.41600
O 	O 	0.96965 0.11644 0.32461 -0.40600
O 	O 	0.98028 0.11075 0.24327 -0.41100
O 	O 	0.03706 0.67447 0.08999 -0.42400
O 	O 	0.05724 0.60435 0.08445 -0.44000
O 	O 	0.60385 0.68097 0.38218 -0.43800
O 	O 	0.68258 0.75859 0.29373 -0.40900
O 	O 	0.03426 0.70235 0.25323 -0.41300
O 	O 	0.05002 0.64192 0.32976 -0.41300
O 	O 	0.61322 0.54852 0.14190 -0.41100
O 	O 	0.68963 0.64004 0.12677 -0.41500
O 	O 	0.62180 0.58701 0.38491 -0.43200
O 	O 	0.69766 0.66461 0.29451 -0.41700
O 	O 	0.55895 0.88356 0.14679 -0.41000
O 	O 	0.64598 0.88925 0.13047 -0.41500
O 	O 	0.63741 0.87295 0.03706 -0.42200
O 	O 	0.54711 0.85831 0.05724 -0.43900
O 	O 	0.07712 0.01397 0.60385 -0.43900
O 	O 	0.07601 0.02369 0.68258 -0.41000
O 	O 	0.66809 0.71251 0.03426 -0.41300
O 	O 	0.59190 0.62022 0.05002 -0.41300
O 	O 	0.93530 0.24488 0.61322 -0.41100
O 	O 	0.95041 0.18360 0.68963 -0.41500
O 	O 	0.96521 0.99329 0.62180 -0.43300
O 	O 	0.96695 0.00783 0.69766 -0.41800
O 	O 	0.32461 0.29426 0.55895 -0.40900
O 	O 	0.24327 0.22355 0.64598 -0.41400
O 	O 	0.08999 0.12705 0.23554 -0.42300
O 	O 	0.08445 0.14169 0.31120 -0.43900
O 	O 	0.38218 0.98603 0.93685 -0.43500
O 	O 	0.29373 0.97631 0.94768 -0.40400
O 	O 	0.25323 0.28749 0.04442 -0.41300
O 	O 	0.32976 0.37978 0.02832 -0.41300
O 	O 	0.14190 0.75512 0.30958 -0.41100
O 	O 	0.12677 0.81640 0.23319 -0.41500
O 	O 	0.38491 0.00671 0.02808 -0.42700
O 	O 	0.29451 0.99217 0.04088 -0.41800
O 	O 	0.14679 0.70574 0.96965 -0.40600
O 	O 	0.13047 0.77645 0.98028 -0.41000
O 	O 	0.76446 0.67447 0.36259 -0.42200
O 	O 	0.68880 0.60435 0.45289 -0.43900
O 	O 	0.06315 0.68097 0.92288 -0.43500
O 	O 	0.05232 0.75859 0.92399 -0.40500
O 	O 	0.95558 0.70235 0.33191 -0.41200
O 	O 	0.97168 0.64192 0.40810 -0.41300
O 	O 	0.69042 0.54852 0.06470 -0.41100
O 	O 	0.76681 0.64004 0.04959 -0.41400
O 	O 	0.97192 0.58701 0.03479 -0.43000
O 	O 	0.95912 0.66461 0.03305 -0.41600
O 	O 	0.03035 0.88356 0.67539 -0.40600
O 	O 	0.01972 0.88925 0.75673 -0.41100
O 	O 	0.96294 0.32553 0.91001 -0.42400
O 	O 	0.94276 0.39565 0.91555 -0.44000
O 	O 	0.39615 0.31903 0.61782 -0.43800
O 	O 	0.31742 0.24141 0.70627 -0.40900
O 	O 	0.96574 0.29765 0.74677 -0.41300
O 	O 	0.94998 0.35808 0.67024 -0.41300
O 	O 	0.38678 0.45148 0.85810 -0.41100
O 	O 	0.31037 0.35996 0.87323 -0.41500
O 	O 	0.37820 0.41299 0.61509 -0.43200
O 	O 	0.30234 0.33539 0.70549 -0.41700
O 	O 	0.44105 0.11644 0.85321 -0.41000
O 	O 	0.35402 0.11075 0.86953 -0.41500
