data_crystal

_cell_length_a 37.85600
_cell_length_b 14.15620
_cell_length_c 28.44000
_cell_angle_alpha 90.00000
_cell_angle_beta  131.39900
_cell_angle_gamma 90.00000

_symmetry_space_group_name_	'P 1'
_symmetry_space_group_name_H-M	'P 1'

loop_
_symmetry_equiv_pos_as_xyz
  x,y,z

loop_
_atom_site_label
_atom_site_type_symbol
_atom_site_fract_x
_atom_site_fract_y
_atom_site_fract_z
_atom_site_charge
Ru	Ru	0.78980 0.24479 0.03286 0.93300
Ru	Ru	0.00837 0.00326 0.04631 0.92400
Mo	Mo	0.97962 0.31585 0.15155 1.16200
Mo	Mo	0.90104 0.13523 0.08624 1.16700
Mo	Mo	0.90789 0.29405 0.18345 1.16200
Mo	Mo	0.90915 0.96139 0.19087 1.15800
Mo	Mo	0.98801 0.93924 0.15685 1.16400
Mo	Mo	0.06359 0.11991 0.19868 1.15900
O 	O 	0.79240 0.22990 0.10520 -0.38900
O 	O 	0.78360 0.10310 0.02050 -0.38500
O 	O 	0.70550 0.11310 0.95650 -0.40100
O 	O 	0.71420 0.23850 0.04100 -0.38400
O 	O 	0.01830 0.86160 0.05540 -0.40100
O 	O 	0.07630 0.02690 0.09030 -0.40500
O 	O 	0.00230 0.85650 0.96470 -0.40600
O 	O 	0.06020 0.02110 -0.00000 -0.39500
O 	O 	0.96300 0.18940 0.19340 -0.42800
O 	O 	0.97590 0.06500 0.26570 -0.42600
O 	O 	0.92800 0.23740 0.08010 -0.50300
O 	O 	0.87120 0.23110 0.10500 -0.52400
O 	O 	0.93680 0.36630 0.15500 -0.50300
O 	O 	0.88940 0.04980 0.13160 -0.49900
O 	O 	0.95280 0.91880 0.17900 -0.51100
O 	O 	0.94240 0.04560 0.10470 -0.49700
O 	O 	0.89480 0.02560 0.23320 -0.50300
O 	O 	0.95700 0.88920 0.27300 -0.50200
O 	O 	0.02620 0.01810 0.14460 -0.52900
O 	O 	0.01790 0.21020 0.15740 -0.50900
O 	O 	0.09470 0.20370 0.27390 -0.51000
O 	O 	0.03310 0.33550 0.23400 -0.51900
C 	C 	0.75390 0.22870 0.09490 0.16900
C 	C 	0.75750 0.21310 0.15130 0.40600
C 	C 	0.77600 0.10990 0.17330 -0.67800
H 	H 	0.75410 0.06610 0.13880 0.20300
H 	H 	0.77840 0.09450 0.20890 0.19400
H 	H 	0.80710 0.10450 0.18600 0.21500
C 	C 	0.70990 0.22200 0.13130 -0.72500
H 	H 	0.69840 0.28680 0.11720 0.21500
H 	H 	0.71200 0.20730 0.16680 0.20600
H 	H 	0.68810 0.17790 0.09690 0.22500
C 	C 	0.79470 0.27780 0.20320 -0.69000
H 	H 	0.79940 0.26470 0.24090 0.19000
H 	H 	0.78470 0.34360 0.19040 0.19400
H 	H 	0.82430 0.26750 0.21220 0.20000
C 	C 	0.74310 0.06550 0.98360 0.21100
C 	C 	0.74040 0.95920 0.98330 0.11000
C 	C 	0.74840 0.92500 0.03980 -0.37900
H 	H 	0.77970 0.89640 0.06970 0.09800
H 	H 	0.72440 0.87790 0.02670 0.09800
H 	H 	0.74620 0.97840 0.05970 0.12000
C 	C 	0.69550 0.92200 0.93490 -0.25500
H 	H 	0.67200 0.95630 0.93270 -0.06000
H 	H 	0.69500 0.85490 0.94320 0.04800
H 	H 	0.68830 0.92830 0.89500 0.15500
C 	C 	0.77540 0.92300 0.98130 -0.15100
H 	H 	0.80700 0.93970 0.02020 0.15200
H 	H 	0.77010 0.95050 0.94550 0.11500
H 	H 	0.77270 0.85390 0.97690 0.07100
C 	C 	0.01220 0.81650 0.01230 0.20500
C 	C 	0.01610 0.70880 0.01620 0.35700
C 	C 	0.01740 0.67420 0.06810 -0.65500
H 	H 	0.98840 0.69350 0.05870 0.19500
H 	H 	0.04460 0.70170 0.10820 0.19700
H 	H 	0.01990 0.60510 0.07070 0.17900
C 	C 	0.97370 0.66760 0.95290 -0.63400
H 	H 	0.97340 0.69050 0.92020 0.18200
H 	H 	0.94460 0.68730 0.94320 0.17800
H 	H 	0.97570 0.59850 0.95480 0.16900
C 	C 	0.06050 0.68270 0.02930 -0.61900
H 	H 	0.08770 0.71120 0.06900 0.18600
H 	H 	0.05870 0.70610 0.99530 0.18000
H 	H 	0.06400 0.61390 0.03200 0.17500
C 	C 	0.08820 0.03650 0.05800 0.22200
C 	C 	0.13770 0.07210 0.08980 0.31500
C 	C 	0.16470 0.95800 0.11520 -0.49200
H 	H 	0.15160 0.91880 0.07860 0.14300
H 	H 	0.15870 0.92870 0.14040 0.12200
H 	H 	0.19880 0.96510 0.14060 0.08700
C 	C 	0.14010 0.10000 0.04260 -0.14900
H 	H 	0.12390 0.05260 0.00900 -0.02200
H 	H 	0.17310 0.10400 0.06200 -0.09600
H 	H 	0.12490 0.16140 0.02510 0.01000
C 	C 	0.15870 0.12500 0.14470 -0.20000
H 	H 	0.15340 0.09280 0.17020 0.03900
H 	H 	0.14480 0.18790 0.13350 0.26900
H 	H 	0.19260 0.12990 0.16880 0.00500
C 	C 	0.78270 0.90700 0.00780 -0.33200
H 	H 	0.80710 0.94890 0.04230 0.01000
H 	H 	0.79440 0.87840 0.98900 0.04500
H 	H 	0.77500 0.85800 0.02380 0.10500
C 	C 	0.68740 0.93400 0.91980 -0.21500
H 	H 	0.68350 0.87030 0.90300 0.03400
H 	H 	0.66620 0.97770 0.88500 0.04400
H 	H 	0.68000 0.93240 0.94680 0.21600
C 	C 	0.73820 0.96590 0.95770 0.11200
C 	C 	0.73620 0.98120 0.90080 -0.49300
H 	H 	0.76310 0.94960 0.90970 0.09000
H 	H 	0.73740 0.04900 0.89480 0.14500
H 	H 	0.70690 0.95460 0.86260 0.12500
C 	C 	0.15060 0.07700 0.05340 -0.27100
H 	H 	0.12310 0.09450 0.01030 0.17000
H 	H 	0.16220 0.01500 0.05340 0.09900
H 	H 	0.17540 0.12410 0.07120 0.20600
C 	C 	0.17500 0.04500 0.15750 -0.31800
H 	H 	0.16170 0.04610 0.17760 0.08400
H 	H 	0.20110 0.09010 0.17870 0.09900
H 	H 	0.18650 0.98140 0.16060 0.18400
C 	C 	0.12800 0.19300 0.09290 -0.71100
H 	H 	0.11890 0.20130 0.11780 0.08200
H 	H 	0.10280 0.21660 0.05030 0.21800
H 	H 	0.15700 0.22850 0.11220 0.15500
Ru	Ru	0.28980 0.74479 0.03286 0.93300
Ru	Ru	0.50837 0.50326 0.04631 0.92900
Mo	Mo	0.47962 0.81585 0.15155 1.15900
Mo	Mo	0.40104 0.63523 0.08624 1.16800
Mo	Mo	0.40789 0.79405 0.18345 1.16300
Mo	Mo	0.40915 0.46139 0.19087 1.16100
Mo	Mo	0.48801 0.43924 0.15685 1.16200
Mo	Mo	0.56359 0.61991 0.19868 1.16100
O 	O 	0.29240 0.72990 0.10520 -0.38800
O 	O 	0.28360 0.60310 0.02050 -0.38800
O 	O 	0.20550 0.61310 0.95650 -0.40100
O 	O 	0.21420 0.73850 0.04100 -0.38500
O 	O 	0.51830 0.36160 0.05540 -0.39700
O 	O 	0.57630 0.52690 0.09030 -0.40300
O 	O 	0.50230 0.35650 0.96470 -0.40300
O 	O 	0.56020 0.52110 -0.00000 -0.39200
O 	O 	0.46300 0.68940 0.19340 -0.43400
O 	O 	0.47590 0.56500 0.26570 -0.43400
O 	O 	0.42800 0.73740 0.08010 -0.50500
O 	O 	0.37120 0.73110 0.10500 -0.52400
O 	O 	0.43680 0.86630 0.15500 -0.50500
O 	O 	0.38940 0.54980 0.13160 -0.50000
O 	O 	0.45280 0.41880 0.17900 -0.51200
O 	O 	0.44240 0.54560 0.10470 -0.50100
O 	O 	0.39480 0.52560 0.23320 -0.50400
O 	O 	0.45700 0.38920 0.27300 -0.50500
O 	O 	0.52620 0.51810 0.14460 -0.52700
O 	O 	0.51790 0.71020 0.15740 -0.50500
O 	O 	0.59470 0.70370 0.27390 -0.51000
O 	O 	0.53310 0.83550 0.23400 -0.51500
C 	C 	0.25390 0.72870 0.09490 0.16900
C 	C 	0.25750 0.71310 0.15130 0.40400
C 	C 	0.27600 0.60990 0.17330 -0.67500
H 	H 	0.25410 0.56610 0.13880 0.20200
H 	H 	0.27840 0.59450 0.20890 0.19300
H 	H 	0.30710 0.60450 0.18600 0.21400
C 	C 	0.20990 0.72200 0.13130 -0.72300
H 	H 	0.19840 0.78680 0.11720 0.21400
H 	H 	0.21200 0.70730 0.16680 0.20500
H 	H 	0.18810 0.67790 0.09690 0.22400
C 	C 	0.29470 0.77780 0.20320 -0.68800
H 	H 	0.29940 0.76470 0.24090 0.18900
H 	H 	0.28470 0.84360 0.19040 0.19300
H 	H 	0.32430 0.76750 0.21220 0.19900
C 	C 	0.24310 0.56550 0.98360 0.21800
C 	C 	0.24040 0.45920 0.98330 0.11000
C 	C 	0.24840 0.42500 0.03980 -0.37700
H 	H 	0.27970 0.39640 0.06970 0.09700
H 	H 	0.22440 0.37790 0.02670 0.09900
H 	H 	0.24620 0.47840 0.05970 0.12000
C 	C 	0.19550 0.42200 0.93490 -0.25100
H 	H 	0.17200 0.45630 0.93270 -0.05700
H 	H 	0.19500 0.35490 0.94320 0.04700
H 	H 	0.18830 0.42830 0.89500 0.15300
C 	C 	0.27540 0.42300 0.98130 -0.13900
H 	H 	0.30700 0.43970 0.02020 0.15100
H 	H 	0.27010 0.45050 0.94550 0.11200
H 	H 	0.27270 0.35390 0.97690 0.06900
C 	C 	0.51220 0.31650 0.01230 0.20900
C 	C 	0.51610 0.20880 0.01620 0.36000
C 	C 	0.51740 0.17420 0.06810 -0.63500
H 	H 	0.48840 0.19350 0.05870 0.18400
H 	H 	0.54460 0.20170 0.10820 0.19200
H 	H 	0.51990 0.10510 0.07070 0.17600
C 	C 	0.47370 0.16760 0.95290 -0.64600
H 	H 	0.47340 0.19050 0.92020 0.18300
H 	H 	0.44460 0.18730 0.94320 0.17900
H 	H 	0.47570 0.09850 0.95480 0.16800
C 	C 	0.56050 0.18270 0.02930 -0.61400
H 	H 	0.58770 0.21120 0.06900 0.18500
H 	H 	0.55870 0.20610 0.99530 0.17800
H 	H 	0.56400 0.11390 0.03200 0.17500
C 	C 	0.58820 0.53650 0.05800 0.22100
C 	C 	0.63770 0.57210 0.08980 0.31500
C 	C 	0.66470 0.45800 0.11520 -0.49200
H 	H 	0.65160 0.41880 0.07860 0.14300
H 	H 	0.65870 0.42870 0.14040 0.12200
H 	H 	0.69880 0.46510 0.14060 0.08800
C 	C 	0.64010 0.60000 0.04260 -0.14900
H 	H 	0.62390 0.55260 0.00900 -0.02200
H 	H 	0.67310 0.60400 0.06200 -0.09700
H 	H 	0.62490 0.66140 0.02510 0.01000
C 	C 	0.65870 0.62500 0.14470 -0.20400
H 	H 	0.65340 0.59280 0.17020 0.04100
H 	H 	0.64480 0.68790 0.13350 0.27000
H 	H 	0.69260 0.62990 0.16880 0.00700
C 	C 	0.28270 0.40700 0.00780 -0.33300
H 	H 	0.30710 0.44890 0.04230 0.01200
H 	H 	0.29440 0.37840 0.98900 0.04100
H 	H 	0.27500 0.35800 0.02380 0.10700
C 	C 	0.18740 0.43400 0.91980 -0.21000
H 	H 	0.18350 0.37030 0.90300 0.03300
H 	H 	0.16620 0.47770 0.88500 0.04100
H 	H 	0.18000 0.43240 0.94680 0.20900
C 	C 	0.23820 0.46590 0.95770 0.10200
C 	C 	0.23620 0.48120 0.90080 -0.49000
H 	H 	0.26310 0.44960 0.90970 0.09000
H 	H 	0.23740 0.54900 0.89480 0.14500
H 	H 	0.20690 0.45460 0.86260 0.12400
C 	C 	0.65060 0.57700 0.05340 -0.27100
H 	H 	0.62310 0.59450 0.01030 0.17000
H 	H 	0.66220 0.51500 0.05340 0.09900
H 	H 	0.67540 0.62410 0.07120 0.20600
C 	C 	0.67500 0.54500 0.15750 -0.31800
H 	H 	0.66170 0.54610 0.17760 0.08300
H 	H 	0.70110 0.59010 0.17870 0.09800
H 	H 	0.68650 0.48140 0.16060 0.18500
C 	C 	0.62800 0.69300 0.09290 -0.71000
H 	H 	0.61890 0.70130 0.11780 0.08100
H 	H 	0.60280 0.71660 0.05030 0.21800
H 	H 	0.65700 0.72850 0.11220 0.15500
Ru	Ru	0.21020 0.24479 0.46714 0.92500
Ru	Ru	0.99163 0.00326 0.45369 0.93200
Mo	Mo	0.02038 0.31585 0.34845 1.15400
Mo	Mo	0.09896 0.13523 0.41376 1.16600
Mo	Mo	0.09211 0.29405 0.31655 1.16300
Mo	Mo	0.09085 0.96139 0.30913 1.15900
Mo	Mo	0.01199 0.93924 0.34315 1.15700
Mo	Mo	0.93641 0.11991 0.30132 1.16100
O 	O 	0.20760 0.22990 0.39480 -0.38900
O 	O 	0.21640 0.10310 0.47950 -0.40100
O 	O 	0.29450 0.11310 0.54350 -0.39900
O 	O 	0.28580 0.23850 0.45900 -0.39300
O 	O 	0.98170 0.86160 0.44460 -0.39100
O 	O 	0.92370 0.02690 0.40970 -0.40400
O 	O 	0.99770 0.85650 0.53530 -0.38000
O 	O 	0.93980 0.02110 0.50000 -0.40000
O 	O 	0.03700 0.18940 0.30660 -0.43500
O 	O 	0.02410 0.06500 0.23430 -0.43400
O 	O 	0.07200 0.23740 0.41990 -0.50800
O 	O 	0.12880 0.23110 0.39500 -0.52600
O 	O 	0.06320 0.36630 0.34500 -0.50700
O 	O 	0.11060 0.04980 0.36840 -0.50100
O 	O 	0.04720 0.91880 0.32100 -0.51600
O 	O 	0.05760 0.04560 0.39530 -0.50500
O 	O 	0.10520 0.02560 0.26680 -0.50300
O 	O 	0.04300 0.88920 0.22700 -0.50900
O 	O 	0.97380 0.01810 0.35540 -0.52300
O 	O 	0.98210 0.21020 0.34260 -0.50000
O 	O 	0.90530 0.20370 0.22610 -0.51000
O 	O 	0.96690 0.33550 0.26600 -0.51100
C 	C 	0.24610 0.22870 0.40510 0.17200
C 	C 	0.24250 0.21310 0.34870 0.39900
C 	C 	0.22400 0.10990 0.32670 -0.67100
H 	H 	0.24590 0.06610 0.36120 0.20000
H 	H 	0.22160 0.09450 0.29110 0.19200
H 	H 	0.19290 0.10450 0.31400 0.21200
C 	C 	0.29010 0.22200 0.36870 -0.71600
H 	H 	0.30160 0.28680 0.38280 0.21200
H 	H 	0.28800 0.20730 0.33320 0.20300
H 	H 	0.31190 0.17790 0.40310 0.21900
C 	C 	0.20530 0.27780 0.29680 -0.68400
H 	H 	0.20060 0.26470 0.25910 0.18800
H 	H 	0.21530 0.34360 0.30960 0.19200
H 	H 	0.17570 0.26750 0.28780 0.19800
C 	C 	0.25690 0.06550 0.51640 0.23000
C 	C 	0.25960 0.95920 0.51670 0.11300
C 	C 	0.25160 0.92500 0.46020 -0.39600
H 	H 	0.22030 0.89640 0.43030 0.10300
H 	H 	0.27560 0.87790 0.47330 0.09800
H 	H 	0.25380 0.97840 0.44030 0.12200
C 	C 	0.30450 0.92200 0.56510 -0.26200
H 	H 	0.32800 0.95630 0.56730 -0.07700
H 	H 	0.30500 0.85490 0.55680 0.05200
H 	H 	0.31170 0.92830 0.60500 0.16000
C 	C 	0.22460 0.92300 0.51870 -0.19600
H 	H 	0.19300 0.93970 0.47980 0.15100
H 	H 	0.22990 0.95050 0.55450 0.13300
H 	H 	0.22730 0.85390 0.52310 0.07800
C 	C 	0.98780 0.81650 0.48770 0.18500
C 	C 	0.98390 0.70880 0.48380 0.36800
C 	C 	0.98260 0.67420 0.43190 -0.61500
H 	H 	0.01160 0.69350 0.44130 0.16800
H 	H 	0.95540 0.70170 0.39180 0.18700
H 	H 	0.98010 0.60510 0.42930 0.17000
C 	C 	0.02630 0.66760 0.54710 -0.64400
H 	H 	0.02660 0.69050 0.57980 0.18100
H 	H 	0.05540 0.68730 0.55680 0.18100
H 	H 	0.02430 0.59850 0.54520 0.17100
C 	C 	0.93950 0.68270 0.47070 -0.67600
H 	H 	0.91230 0.71120 0.43100 0.20100
H 	H 	0.94130 0.70610 0.50470 0.20900
H 	H 	0.93600 0.61390 0.46800 0.18900
C 	C 	0.91180 0.03650 0.44200 0.22400
C 	C 	0.86230 0.07210 0.41020 0.30900
C 	C 	0.83530 0.95800 0.38480 -0.48700
H 	H 	0.84840 0.91880 0.42140 0.14000
H 	H 	0.84130 0.92870 0.35960 0.12000
H 	H 	0.80120 0.96510 0.35940 0.08600
C 	C 	0.85990 0.10000 0.45740 -0.14600
H 	H 	0.87610 0.05260 0.49100 -0.02600
H 	H 	0.82690 0.10400 0.43800 -0.09500
H 	H 	0.87510 0.16140 0.47490 0.00800
C 	C 	0.84130 0.12500 0.35530 -0.20100
H 	H 	0.84660 0.09280 0.32980 0.04000
H 	H 	0.85520 0.18790 0.36650 0.26700
H 	H 	0.80740 0.12990 0.33120 0.00600
C 	C 	0.21730 0.90700 0.49220 -0.31000
H 	H 	0.19290 0.94890 0.45770 0.00600
H 	H 	0.20560 0.87840 0.51100 0.05800
H 	H 	0.22500 0.85800 0.47620 0.09400
C 	C 	0.31260 0.93400 0.58020 -0.22900
H 	H 	0.31650 0.87030 0.59700 0.03700
H 	H 	0.33380 0.97770 0.61500 0.04800
H 	H 	0.32000 0.93240 0.55320 0.24200
C 	C 	0.26180 0.96590 0.54230 0.13000
C 	C 	0.26380 0.98120 0.59920 -0.51500
H 	H 	0.23690 0.94960 0.59030 0.09100
H 	H 	0.26260 0.04900 0.60520 0.15300
H 	H 	0.29310 0.95460 0.63740 0.13000
C 	C 	0.84940 0.07700 0.44660 -0.26700
H 	H 	0.87690 0.09450 0.48970 0.16800
H 	H 	0.83780 0.01500 0.44660 0.09600
H 	H 	0.82460 0.12410 0.42880 0.20200
C 	C 	0.82500 0.04500 0.34250 -0.31500
H 	H 	0.83830 0.04610 0.32240 0.08200
H 	H 	0.79890 0.09010 0.32130 0.09700
H 	H 	0.81350 0.98140 0.33940 0.18300
C 	C 	0.87200 0.19300 0.40710 -0.70300
H 	H 	0.88110 0.20130 0.38220 0.08100
H 	H 	0.89720 0.21660 0.44970 0.21400
H 	H 	0.84300 0.22850 0.38780 0.15300
Ru	Ru	0.71020 0.74479 0.46714 0.92500
Ru	Ru	0.49163 0.50326 0.45369 0.92500
Mo	Mo	0.52038 0.81585 0.34845 1.15800
Mo	Mo	0.59896 0.63523 0.41376 1.16600
Mo	Mo	0.59211 0.79405 0.31655 1.16300
Mo	Mo	0.59085 0.46139 0.30913 1.16000
Mo	Mo	0.51199 0.43924 0.34315 1.16100
Mo	Mo	0.43641 0.61991 0.30132 1.16100
O 	O 	0.70760 0.72990 0.39480 -0.38900
O 	O 	0.71640 0.60310 0.47950 -0.40100
O 	O 	0.79450 0.61310 0.54350 -0.39900
O 	O 	0.78580 0.73850 0.45900 -0.39300
O 	O 	0.48170 0.36160 0.44460 -0.39300
O 	O 	0.42370 0.52690 0.40970 -0.40500
O 	O 	0.49770 0.35650 0.53530 -0.38600
O 	O 	0.43980 0.52110 0.50000 -0.40300
O 	O 	0.53700 0.68940 0.30660 -0.43400
O 	O 	0.52410 0.56500 0.23430 -0.43400
O 	O 	0.57200 0.73740 0.41990 -0.50700
O 	O 	0.62880 0.73110 0.39500 -0.52600
O 	O 	0.56320 0.86630 0.34500 -0.50600
O 	O 	0.61060 0.54980 0.36840 -0.50100
O 	O 	0.54720 0.41880 0.32100 -0.51400
O 	O 	0.55760 0.54560 0.39530 -0.50300
O 	O 	0.60520 0.52560 0.26680 -0.50400
O 	O 	0.54300 0.38920 0.22700 -0.50500
O 	O 	0.47380 0.51810 0.35540 -0.52700
O 	O 	0.48210 0.71020 0.34260 -0.50500
O 	O 	0.40530 0.70370 0.22610 -0.51000
O 	O 	0.46690 0.83550 0.26600 -0.51500
C 	C 	0.74610 0.72870 0.40510 0.17200
C 	C 	0.74250 0.71310 0.34870 0.39900
C 	C 	0.72400 0.60990 0.32670 -0.67100
H 	H 	0.74590 0.56610 0.36120 0.20000
H 	H 	0.72160 0.59450 0.29110 0.19100
H 	H 	0.69290 0.60450 0.31400 0.21200
C 	C 	0.79010 0.72200 0.36870 -0.71600
H 	H 	0.80160 0.78680 0.38280 0.21100
H 	H 	0.78800 0.70730 0.33320 0.20300
H 	H 	0.81190 0.67790 0.40310 0.21900
C 	C 	0.70530 0.77780 0.29680 -0.68400
H 	H 	0.70060 0.76470 0.25910 0.18800
H 	H 	0.71530 0.84360 0.30960 0.19200
H 	H 	0.67570 0.76750 0.28780 0.19800
C 	C 	0.75690 0.56550 0.51640 0.23000
C 	C 	0.75960 0.45920 0.51670 0.11400
C 	C 	0.75160 0.42500 0.46020 -0.39700
H 	H 	0.72030 0.39640 0.43030 0.10300
H 	H 	0.77560 0.37790 0.47330 0.09800
H 	H 	0.75380 0.47840 0.44030 0.12300
C 	C 	0.80450 0.42200 0.56510 -0.26200
H 	H 	0.82800 0.45630 0.56730 -0.07600
H 	H 	0.80500 0.35490 0.55680 0.05300
H 	H 	0.81170 0.42830 0.60500 0.16100
C 	C 	0.72460 0.42300 0.51870 -0.19600
H 	H 	0.69300 0.43970 0.47980 0.15100
H 	H 	0.72990 0.45050 0.55450 0.13400
H 	H 	0.72730 0.35390 0.52310 0.07800
C 	C 	0.48780 0.31650 0.48770 0.18400
C 	C 	0.48390 0.20880 0.48380 0.36500
C 	C 	0.48260 0.17420 0.43190 -0.63800
H 	H 	0.51160 0.19350 0.44130 0.18100
H 	H 	0.45540 0.20170 0.39180 0.19300
H 	H 	0.48010 0.10510 0.42930 0.17400
C 	C 	0.52630 0.16760 0.54710 -0.63400
H 	H 	0.52660 0.19050 0.57980 0.18100
H 	H 	0.55540 0.18730 0.55680 0.18000
H 	H 	0.52430 0.09850 0.54520 0.17100
C 	C 	0.43950 0.18270 0.47070 -0.67300
H 	H 	0.41230 0.21120 0.43100 0.20100
H 	H 	0.44130 0.20610 0.50470 0.20700
H 	H 	0.43600 0.11390 0.46800 0.18700
C 	C 	0.41180 0.53650 0.44200 0.22400
C 	C 	0.36230 0.57210 0.41020 0.30900
C 	C 	0.33530 0.45800 0.38480 -0.48700
H 	H 	0.34840 0.41880 0.42140 0.14000
H 	H 	0.34130 0.42870 0.35960 0.12000
H 	H 	0.30120 0.46510 0.35940 0.08600
C 	C 	0.35990 0.60000 0.45740 -0.14600
H 	H 	0.37610 0.55260 0.49100 -0.02600
H 	H 	0.32690 0.60400 0.43800 -0.09500
H 	H 	0.37510 0.66140 0.47490 0.00700
C 	C 	0.34130 0.62500 0.35530 -0.20200
H 	H 	0.34660 0.59280 0.32980 0.04000
H 	H 	0.35520 0.68790 0.36650 0.26700
H 	H 	0.30740 0.62990 0.33120 0.00700
C 	C 	0.71730 0.40700 0.49220 -0.31100
H 	H 	0.69290 0.44890 0.45770 0.00600
H 	H 	0.70560 0.37840 0.51100 0.05800
H 	H 	0.72500 0.35800 0.47620 0.09400
C 	C 	0.81260 0.43400 0.58020 -0.22900
H 	H 	0.81650 0.37030 0.59700 0.03700
H 	H 	0.83380 0.47770 0.61500 0.04800
H 	H 	0.82000 0.43240 0.55320 0.24200
C 	C 	0.76180 0.46590 0.54230 0.13100
C 	C 	0.76380 0.48120 0.59920 -0.51600
H 	H 	0.73690 0.44960 0.59030 0.09100
H 	H 	0.76260 0.54900 0.60520 0.15300
H 	H 	0.79310 0.45460 0.63740 0.13100
C 	C 	0.34940 0.57700 0.44660 -0.26600
H 	H 	0.37690 0.59450 0.48970 0.16700
H 	H 	0.33780 0.51500 0.44660 0.09500
H 	H 	0.32460 0.62410 0.42880 0.20200
C 	C 	0.32500 0.54500 0.34250 -0.31500
H 	H 	0.33830 0.54610 0.32240 0.08200
H 	H 	0.29890 0.59010 0.32130 0.09700
H 	H 	0.31350 0.48140 0.33940 0.18300
C 	C 	0.37200 0.69300 0.40710 -0.70200
H 	H 	0.38110 0.70130 0.38220 0.08000
H 	H 	0.39720 0.71660 0.44970 0.21300
H 	H 	0.34300 0.72850 0.38780 0.15200
Ru	Ru	0.21020 0.75521 0.96714 0.91800
Ru	Ru	0.99163 0.99674 0.95369 0.92400
Mo	Mo	0.02038 0.68415 0.84845 1.15400
Mo	Mo	0.09896 0.86477 0.91376 1.16400
Mo	Mo	0.09211 0.70595 0.81655 1.16300
Mo	Mo	0.09085 0.03861 0.80913 1.15800
Mo	Mo	0.01199 0.06076 0.84315 1.15400
Mo	Mo	0.93641 0.88009 0.80132 1.16100
O 	O 	0.20760 0.77010 0.89480 -0.39000
O 	O 	0.21640 0.89690 0.97950 -0.41200
O 	O 	0.29450 0.88690 0.04350 -0.39700
O 	O 	0.28580 0.76150 0.95900 -0.40200
O 	O 	0.98170 0.13840 0.94460 -0.39000
O 	O 	0.92370 0.97310 0.90970 -0.40100
O 	O 	0.99770 0.14350 0.03530 -0.36400
O 	O 	0.93980 0.97890 -0.00000 -0.38700
O 	O 	0.03700 0.81060 0.80660 -0.43400
O 	O 	0.02410 0.93500 0.73430 -0.43400
O 	O 	0.07200 0.76260 0.91990 -0.51100
O 	O 	0.12880 0.76890 0.89500 -0.52700
O 	O 	0.06320 0.63370 0.84500 -0.50900
O 	O 	0.11060 0.95020 0.86840 -0.50100
O 	O 	0.04720 0.08120 0.82100 -0.51900
O 	O 	0.05760 0.95440 0.89530 -0.50800
O 	O 	0.10520 0.97440 0.76680 -0.50300
O 	O 	0.04300 0.11080 0.72700 -0.51100
O 	O 	0.97380 0.98190 0.85540 -0.52300
O 	O 	0.98210 0.78980 0.84260 -0.50000
O 	O 	0.90530 0.79630 0.72610 -0.51000
O 	O 	0.96690 0.66450 0.76600 -0.51100
C 	C 	0.24610 0.77130 0.90510 0.17400
C 	C 	0.24250 0.78690 0.84870 0.39500
C 	C 	0.22400 0.89010 0.82670 -0.66800
H 	H 	0.24590 0.93390 0.86120 0.19800
H 	H 	0.22160 0.90550 0.79110 0.19100
H 	H 	0.19290 0.89550 0.81400 0.21100
C 	C 	0.29010 0.77800 0.86870 -0.70900
H 	H 	0.30160 0.71320 0.88280 0.20800
H 	H 	0.28800 0.79270 0.83320 0.20100
H 	H 	0.31190 0.82210 0.90310 0.21500
C 	C 	0.20530 0.72220 0.79680 -0.68100
H 	H 	0.20060 0.73530 0.75910 0.18700
H 	H 	0.21530 0.65640 0.80960 0.19100
H 	H 	0.17570 0.73250 0.78780 0.19700
C 	C 	0.25690 0.93450 0.01640 0.23700
C 	C 	0.25960 0.04080 0.01670 0.11700
C 	C 	0.25160 0.07500 0.96020 -0.41600
H 	H 	0.22030 0.10360 0.93030 0.10800
H 	H 	0.27560 0.12210 0.97330 0.09700
H 	H 	0.25380 0.02160 0.94030 0.12400
C 	C 	0.30450 0.07800 0.06510 -0.27500
H 	H 	0.32800 0.04370 0.06730 -0.09700
H 	H 	0.30500 0.14510 0.05680 0.05900
H 	H 	0.31170 0.07170 0.10500 0.16900
C 	C 	0.22460 0.07700 0.01870 -0.25800
H 	H 	0.19300 0.06030 0.97980 0.15000
H 	H 	0.22990 0.04950 0.05450 0.15700
H 	H 	0.22730 0.14610 0.02310 0.08700
C 	C 	0.98780 0.18350 0.98770 0.16000
C 	C 	0.98390 0.29120 0.98380 0.37100
C 	C 	0.98260 0.32580 0.93190 -0.61500
H 	H 	0.01160 0.30650 0.94130 0.16300
H 	H 	0.95540 0.29830 0.89180 0.18700
H 	H 	0.98010 0.39490 0.92930 0.16700
C 	C 	0.02630 0.33240 0.04710 -0.63000
H 	H 	0.02660 0.30950 0.07980 0.17900
H 	H 	0.05540 0.31270 0.05680 0.18100
H 	H 	0.02430 0.40150 0.04520 0.17200
C 	C 	0.93950 0.31730 0.97070 -0.73100
H 	H 	0.91230 0.28880 0.93100 0.21500
H 	H 	0.94130 0.29390 0.00470 0.23700
H 	H 	0.93600 0.38610 0.96800 0.20000
C 	C 	0.91180 0.96350 0.94200 0.20900
C 	C 	0.86230 0.92790 0.91020 0.31100
C 	C 	0.83530 0.04200 0.88480 -0.48500
H 	H 	0.84840 0.08120 0.92140 0.13600
H 	H 	0.84130 0.07130 0.85960 0.11900
H 	H 	0.80120 0.03490 0.85940 0.08500
C 	C 	0.85990 0.90000 0.95740 -0.14500
H 	H 	0.87610 0.94740 0.99100 -0.03100
H 	H 	0.82690 0.89600 0.93800 -0.09500
H 	H 	0.87510 0.83860 0.97490 0.00400
C 	C 	0.84130 0.87500 0.85530 -0.19900
H 	H 	0.84660 0.90720 0.82980 0.03900
H 	H 	0.85520 0.81210 0.86650 0.26600
H 	H 	0.80740 0.87010 0.83120 0.00500
C 	C 	0.21730 0.09300 0.99220 -0.28600
H 	H 	0.19290 0.05110 0.95770 -0.00200
H 	H 	0.20560 0.12160 0.01100 0.07600
H 	H 	0.22500 0.14200 0.97620 0.08000
C 	C 	0.31260 0.06600 0.08020 -0.25000
H 	H 	0.31650 0.12970 0.09700 0.04200
H 	H 	0.33380 0.02230 0.11500 0.05500
H 	H 	0.32000 0.06760 0.05320 0.27700
C 	C 	0.26180 0.03410 0.04230 0.16500
C 	C 	0.26380 0.01880 0.09920 -0.54100
H 	H 	0.23690 0.05040 0.09030 0.09100
H 	H 	0.26260 0.95100 0.10520 0.16000
H 	H 	0.29310 0.04540 0.13740 0.13800
C 	C 	0.84940 0.92300 0.94660 -0.26500
H 	H 	0.87690 0.90550 0.98970 0.16700
H 	H 	0.83780 0.98500 0.94660 0.09400
H 	H 	0.82460 0.87590 0.92880 0.20100
C 	C 	0.82500 0.95500 0.84250 -0.31700
H 	H 	0.83830 0.95390 0.82240 0.08400
H 	H 	0.79890 0.90990 0.82130 0.09900
H 	H 	0.81350 0.01860 0.83940 0.18300
C 	C 	0.87200 0.80700 0.90710 -0.70000
H 	H 	0.88110 0.79870 0.88220 0.08000
H 	H 	0.89720 0.78340 0.94970 0.21000
H 	H 	0.84300 0.77150 0.88780 0.15100
Ru	Ru	0.71020 0.25521 0.96714 0.91700
Ru	Ru	0.49163 0.49674 0.95369 0.91700
Mo	Mo	0.52038 0.18415 0.84845 1.15800
Mo	Mo	0.59896 0.36477 0.91376 1.16400
Mo	Mo	0.59211 0.20595 0.81655 1.16300
Mo	Mo	0.59085 0.53861 0.80913 1.16000
Mo	Mo	0.51199 0.56076 0.84315 1.16000
Mo	Mo	0.43641 0.38009 0.80132 1.16100
O 	O 	0.70760 0.27010 0.89480 -0.39100
O 	O 	0.71640 0.39690 0.97950 -0.41600
O 	O 	0.79450 0.38690 0.04350 -0.39800
O 	O 	0.78580 0.26150 0.95900 -0.40300
O 	O 	0.48170 0.63840 0.94460 -0.39200
O 	O 	0.42370 0.47310 0.90970 -0.40200
O 	O 	0.49770 0.64350 0.03530 -0.37200
O 	O 	0.43980 0.47890 -0.00000 -0.38500
O 	O 	0.53700 0.31060 0.80660 -0.43400
O 	O 	0.52410 0.43500 0.73430 -0.43400
O 	O 	0.57200 0.26260 0.91990 -0.51000
O 	O 	0.62880 0.26890 0.89500 -0.52700
O 	O 	0.56320 0.13370 0.84500 -0.50800
O 	O 	0.61060 0.45020 0.86840 -0.50200
O 	O 	0.54720 0.58120 0.82100 -0.51500
O 	O 	0.55760 0.45440 0.89530 -0.50700
O 	O 	0.60520 0.47440 0.76680 -0.50400
O 	O 	0.54300 0.61080 0.72700 -0.50600
O 	O 	0.47380 0.48190 0.85540 -0.52800
O 	O 	0.48210 0.28980 0.84260 -0.50500
O 	O 	0.40530 0.29630 0.72610 -0.51000
O 	O 	0.46690 0.16450 0.76600 -0.51600
C 	C 	0.74610 0.27130 0.90510 0.17500
C 	C 	0.74250 0.28690 0.84870 0.39300
C 	C 	0.72400 0.39010 0.82670 -0.66500
H 	H 	0.74590 0.43390 0.86120 0.19700
H 	H 	0.72160 0.40550 0.79110 0.19000
H 	H 	0.69290 0.39550 0.81400 0.21000
C 	C 	0.79010 0.27800 0.86870 -0.70700
H 	H 	0.80160 0.21320 0.88280 0.20700
H 	H 	0.78800 0.29270 0.83320 0.20000
H 	H 	0.81190 0.32210 0.90310 0.21400
C 	C 	0.70530 0.22220 0.79680 -0.67900
H 	H 	0.70060 0.23530 0.75910 0.18600
H 	H 	0.71530 0.15640 0.80960 0.19000
H 	H 	0.67570 0.23250 0.78780 0.19700
C 	C 	0.75690 0.43450 0.01640 0.24300
C 	C 	0.75960 0.54080 0.01670 0.11700
C 	C 	0.75160 0.57500 0.96020 -0.41500
H 	H 	0.72030 0.60360 0.93030 0.10800
H 	H 	0.77560 0.62210 0.97330 0.09800
H 	H 	0.75380 0.52160 0.94030 0.12400
C 	C 	0.80450 0.57800 0.06510 -0.27200
H 	H 	0.82800 0.54370 0.06730 -0.09400
H 	H 	0.80500 0.64510 0.05680 0.05700
H 	H 	0.81170 0.57170 0.10500 0.16700
C 	C 	0.72460 0.57700 0.01870 -0.24800
H 	H 	0.69300 0.56030 0.97980 0.14900
H 	H 	0.72990 0.54950 0.05450 0.15400
H 	H 	0.72730 0.64610 0.02310 0.08500
C 	C 	0.48780 0.68350 0.98770 0.16300
C 	C 	0.48390 0.79120 0.98380 0.37000
C 	C 	0.48260 0.82580 0.93190 -0.64200
H 	H 	0.51160 0.80650 0.94130 0.17800
H 	H 	0.45540 0.79830 0.89180 0.19400
H 	H 	0.48010 0.89490 0.92930 0.17300
C 	C 	0.52630 0.83240 0.04710 -0.62400
H 	H 	0.52660 0.80950 0.07980 0.18000
H 	H 	0.55540 0.81270 0.05680 0.18000
H 	H 	0.52430 0.90150 0.04520 0.17200
C 	C 	0.43950 0.81730 0.97070 -0.72200
H 	H 	0.41230 0.78880 0.93100 0.21300
H 	H 	0.44130 0.79390 0.00470 0.23100
H 	H 	0.43600 0.88610 0.96800 0.19700
C 	C 	0.41180 0.46350 0.94200 0.20400
C 	C 	0.36230 0.42790 0.91020 0.31100
C 	C 	0.33530 0.54200 0.88480 -0.48400
H 	H 	0.34840 0.58120 0.92140 0.13700
H 	H 	0.34130 0.57130 0.85960 0.11900
H 	H 	0.30120 0.53490 0.85940 0.08600
C 	C 	0.35990 0.40000 0.95740 -0.14500
H 	H 	0.37610 0.44740 0.99100 -0.03200
H 	H 	0.32690 0.39600 0.93800 -0.09500
H 	H 	0.37510 0.33860 0.97490 0.00300
C 	C 	0.34130 0.37500 0.85530 -0.20300
H 	H 	0.34660 0.40720 0.82980 0.04100
H 	H 	0.35520 0.31210 0.86650 0.26700
H 	H 	0.30740 0.37010 0.83120 0.00700
C 	C 	0.71730 0.59300 0.99220 -0.28800
H 	H 	0.69290 0.55110 0.95770 0.00000
H 	H 	0.70560 0.62160 0.01100 0.07300
H 	H 	0.72500 0.64200 0.97620 0.08200
C 	C 	0.81260 0.56600 0.08020 -0.24600
H 	H 	0.81650 0.62970 0.09700 0.04100
H 	H 	0.83380 0.52230 0.11500 0.05400
H 	H 	0.82000 0.56760 0.05320 0.27100
C 	C 	0.76180 0.53410 0.04230 0.15700
C 	C 	0.76380 0.51880 0.09920 -0.53900
H 	H 	0.73690 0.55040 0.09030 0.09100
H 	H 	0.76260 0.45100 0.10520 0.16100
H 	H 	0.79310 0.54540 0.13740 0.13700
C 	C 	0.34940 0.42300 0.94660 -0.26500
H 	H 	0.37690 0.40550 0.98970 0.16700
H 	H 	0.33780 0.48500 0.94660 0.09300
H 	H 	0.32460 0.37590 0.92880 0.20100
C 	C 	0.32500 0.45500 0.84250 -0.31700
H 	H 	0.33830 0.45390 0.82240 0.08300
H 	H 	0.29890 0.40990 0.82130 0.09700
H 	H 	0.31350 0.51860 0.83940 0.18300
C 	C 	0.37200 0.30700 0.90710 -0.69700
H 	H 	0.38110 0.29870 0.88220 0.07800
H 	H 	0.39720 0.28340 0.94970 0.20700
H 	H 	0.34300 0.27150 0.88780 0.15000
Ru	Ru	0.78980 0.75521 0.53286 0.92500
Ru	Ru	0.00837 0.99674 0.54631 0.92000
Mo	Mo	0.97962 0.68415 0.65155 1.16300
Mo	Mo	0.90104 0.86477 0.58624 1.16600
Mo	Mo	0.90789 0.70595 0.68345 1.16300
Mo	Mo	0.90915 0.03861 0.69087 1.15900
Mo	Mo	0.98801 0.06076 0.65685 1.16600
Mo	Mo	0.06359 0.88009 0.69868 1.16100
O 	O 	0.79240 0.77010 0.60520 -0.38900
O 	O 	0.78360 0.89690 0.52050 -0.40100
O 	O 	0.70550 0.88690 0.45650 -0.39900
O 	O 	0.71420 0.76150 0.54100 -0.39300
O 	O 	0.01830 0.13840 0.55540 -0.39600
O 	O 	0.07630 0.97310 0.59030 -0.40600
O 	O 	0.00230 0.14350 0.46470 -0.39100
O 	O 	0.06020 0.97890 0.50000 -0.40700
O 	O 	0.96300 0.81060 0.69340 -0.42800
O 	O 	0.97590 0.93500 0.76570 -0.42600
O 	O 	0.92800 0.76260 0.58010 -0.50600
O 	O 	0.87120 0.76890 0.60500 -0.52600
O 	O 	0.93680 0.63370 0.65500 -0.50400
O 	O 	0.88940 0.95020 0.63160 -0.50000
O 	O 	0.95280 0.08120 0.67900 -0.51200
O 	O 	0.94240 0.95440 0.60470 -0.50000
O 	O 	0.89480 0.97440 0.73320 -0.50300
O 	O 	0.95700 0.11080 0.77300 -0.50300
O 	O 	0.02620 0.98190 0.64460 -0.53000
O 	O 	0.01790 0.78980 0.65740 -0.51000
O 	O 	0.09470 0.79630 0.77390 -0.51000
O 	O 	0.03310 0.66450 0.73400 -0.51900
C 	C 	0.75390 0.77130 0.59490 0.17200
C 	C 	0.75750 0.78690 0.65130 0.40000
C 	C 	0.77600 0.89010 0.67330 -0.67200
H 	H 	0.75410 0.93390 0.63880 0.20000
H 	H 	0.77840 0.90550 0.70890 0.19200
H 	H 	0.80710 0.89550 0.68600 0.21300
C 	C 	0.70990 0.77800 0.63130 -0.71600
H 	H 	0.69840 0.71320 0.61720 0.21200
H 	H 	0.71200 0.79270 0.66680 0.20300
H 	H 	0.68810 0.82210 0.59690 0.22000
C 	C 	0.79470 0.72220 0.70320 -0.68400
H 	H 	0.79940 0.73530 0.74090 0.18800
H 	H 	0.78470 0.65640 0.69040 0.19200
H 	H 	0.82430 0.73250 0.71220 0.19800
C 	C 	0.74310 0.93450 0.48360 0.23000
C 	C 	0.74040 0.04080 0.48330 0.11400
C 	C 	0.74840 0.07500 0.53980 -0.39600
H 	H 	0.77970 0.10360 0.56970 0.10300
H 	H 	0.72440 0.12210 0.52670 0.09800
H 	H 	0.74620 0.02160 0.55970 0.12200
C 	C 	0.69550 0.07800 0.43490 -0.26200
H 	H 	0.67200 0.04370 0.43270 -0.07700
H 	H 	0.69500 0.14510 0.44320 0.05200
H 	H 	0.68830 0.07170 0.39500 0.16100
C 	C 	0.77540 0.07700 0.48130 -0.19600
H 	H 	0.80700 0.06030 0.52020 0.15100
H 	H 	0.77010 0.04950 0.44550 0.13400
H 	H 	0.77270 0.14610 0.47690 0.07800
C 	C 	0.01220 0.18350 0.51230 0.18400
C 	C 	0.01610 0.29120 0.51620 0.36200
C 	C 	0.01740 0.32580 0.56810 -0.66200
H 	H 	0.98840 0.30650 0.55870 0.19400
H 	H 	0.04460 0.29830 0.60820 0.19800
H 	H 	0.01990 0.39490 0.57070 0.17800
C 	C 	0.97370 0.33240 0.45290 -0.62400
H 	H 	0.97340 0.30950 0.42020 0.18100
H 	H 	0.94460 0.31270 0.44320 0.17800
H 	H 	0.97570 0.40150 0.45480 0.17100
C 	C 	0.06050 0.31730 0.52930 -0.67100
H 	H 	0.08770 0.28880 0.56900 0.20000
H 	H 	0.05870 0.29390 0.49530 0.20500
H 	H 	0.06400 0.38610 0.53200 0.18500
C 	C 	0.08820 0.96350 0.55800 0.22500
C 	C 	0.13770 0.92790 0.58980 0.30700
C 	C 	0.16470 0.04200 0.61520 -0.48500
H 	H 	0.15160 0.08120 0.57860 0.13900
H 	H 	0.15870 0.07130 0.64040 0.12000
H 	H 	0.19880 0.03490 0.64060 0.08600
C 	C 	0.14010 0.90000 0.54260 -0.14600
H 	H 	0.12390 0.94740 0.50900 -0.02600
H 	H 	0.17310 0.89600 0.56200 -0.09400
H 	H 	0.12490 0.83860 0.52510 0.00700
C 	C 	0.15870 0.87500 0.64470 -0.19900
H 	H 	0.15340 0.90720 0.67020 0.03900
H 	H 	0.14480 0.81210 0.63350 0.26600
H 	H 	0.19260 0.87010 0.66880 0.00500
C 	C 	0.78270 0.09300 0.50780 -0.31000
H 	H 	0.80710 0.05110 0.54230 0.00500
H 	H 	0.79440 0.12160 0.48900 0.05800
H 	H 	0.77500 0.14200 0.52380 0.09400
C 	C 	0.68740 0.06600 0.41980 -0.22900
H 	H 	0.68350 0.12970 0.40300 0.03700
H 	H 	0.66620 0.02230 0.38500 0.04800
H 	H 	0.68000 0.06760 0.44680 0.24200
C 	C 	0.73820 0.03410 0.45770 0.13000
C 	C 	0.73620 0.01880 0.40080 -0.51600
H 	H 	0.76310 0.05040 0.40970 0.09100
H 	H 	0.73740 0.95100 0.39480 0.15300
H 	H 	0.70690 0.04540 0.36260 0.13100
C 	C 	0.15060 0.92300 0.55340 -0.26500
H 	H 	0.12310 0.90550 0.51030 0.16700
H 	H 	0.16220 0.98500 0.55340 0.09500
H 	H 	0.17540 0.87590 0.57120 0.20100
C 	C 	0.17500 0.95500 0.65750 -0.31500
H 	H 	0.16170 0.95390 0.67760 0.08300
H 	H 	0.20110 0.90990 0.67870 0.09800
H 	H 	0.18650 0.01860 0.66060 0.18200
C 	C 	0.12800 0.80700 0.59290 -0.70100
H 	H 	0.11890 0.79870 0.61780 0.07900
H 	H 	0.10280 0.78340 0.55030 0.21200
H 	H 	0.15700 0.77150 0.61220 0.15200
Ru	Ru	0.28980 0.25521 0.53286 0.92500
Ru	Ru	0.50837 0.49674 0.54631 0.92500
Mo	Mo	0.47962 0.18415 0.65155 1.15800
Mo	Mo	0.40104 0.36477 0.58624 1.16600
Mo	Mo	0.40789 0.20595 0.68345 1.16300
Mo	Mo	0.40915 0.53861 0.69087 1.16000
Mo	Mo	0.48801 0.56076 0.65685 1.16100
Mo	Mo	0.56359 0.38009 0.69868 1.16100
O 	O 	0.29240 0.27010 0.60520 -0.39000
O 	O 	0.28360 0.39690 0.52050 -0.40100
O 	O 	0.20550 0.38690 0.45650 -0.39900
O 	O 	0.21420 0.26150 0.54100 -0.39300
O 	O 	0.51830 0.63840 0.55540 -0.39300
O 	O 	0.57630 0.47310 0.59030 -0.40500
O 	O 	0.50230 0.64350 0.46470 -0.38600
O 	O 	0.56020 0.47890 0.50000 -0.40300
O 	O 	0.46300 0.31060 0.69340 -0.43400
O 	O 	0.47590 0.43500 0.76570 -0.43400
O 	O 	0.42800 0.26260 0.58010 -0.50700
O 	O 	0.37120 0.26890 0.60500 -0.52600
O 	O 	0.43680 0.13370 0.65500 -0.50600
O 	O 	0.38940 0.45020 0.63160 -0.50100
O 	O 	0.45280 0.58120 0.67900 -0.51400
O 	O 	0.44240 0.45440 0.60470 -0.50300
O 	O 	0.39480 0.47440 0.73320 -0.50400
O 	O 	0.45700 0.61080 0.77300 -0.50600
O 	O 	0.52620 0.48190 0.64460 -0.52700
O 	O 	0.51790 0.28980 0.65740 -0.50500
O 	O 	0.59470 0.29630 0.77390 -0.51000
O 	O 	0.53310 0.16450 0.73400 -0.51500
C 	C 	0.25390 0.27130 0.59490 0.17200
C 	C 	0.25750 0.28690 0.65130 0.39800
C 	C 	0.27600 0.39010 0.67330 -0.67000
H 	H 	0.25410 0.43390 0.63880 0.19900
H 	H 	0.27840 0.40550 0.70890 0.19100
H 	H 	0.30710 0.39550 0.68600 0.21200
C 	C 	0.20990 0.27800 0.63130 -0.71500
H 	H 	0.19840 0.21320 0.61720 0.21100
H 	H 	0.21200 0.29270 0.66680 0.20200
H 	H 	0.18810 0.32210 0.59690 0.21900
C 	C 	0.29470 0.22220 0.70320 -0.68300
H 	H 	0.29940 0.23530 0.74090 0.18700
H 	H 	0.28470 0.15640 0.69040 0.19100
H 	H 	0.32430 0.23250 0.71220 0.19800
C 	C 	0.24310 0.43450 0.48360 0.23000
C 	C 	0.24040 0.54080 0.48330 0.11400
C 	C 	0.24840 0.57500 0.53980 -0.39600
H 	H 	0.27970 0.60360 0.56970 0.10300
H 	H 	0.22440 0.62210 0.52670 0.09800
H 	H 	0.24620 0.52160 0.55970 0.12300
C 	C 	0.19550 0.57800 0.43490 -0.26200
H 	H 	0.17200 0.54370 0.43270 -0.07700
H 	H 	0.19500 0.64510 0.44320 0.05200
H 	H 	0.18830 0.57170 0.39500 0.16000
C 	C 	0.27540 0.57700 0.48130 -0.19600
H 	H 	0.30700 0.56030 0.52020 0.15100
H 	H 	0.27010 0.54950 0.44550 0.13400
H 	H 	0.27270 0.64610 0.47690 0.07800
C 	C 	0.51220 0.68350 0.51230 0.18400
C 	C 	0.51610 0.79120 0.51620 0.36500
C 	C 	0.51740 0.82580 0.56810 -0.63800
H 	H 	0.48840 0.80650 0.55870 0.18100
H 	H 	0.54460 0.79830 0.60820 0.19300
H 	H 	0.51990 0.89490 0.57070 0.17400
C 	C 	0.47370 0.83240 0.45290 -0.63400
H 	H 	0.47340 0.80950 0.42020 0.18100
H 	H 	0.44460 0.81270 0.44320 0.18000
H 	H 	0.47570 0.90150 0.45480 0.17100
C 	C 	0.56050 0.81730 0.52930 -0.67300
H 	H 	0.58770 0.78880 0.56900 0.20100
H 	H 	0.55870 0.79390 0.49530 0.20700
H 	H 	0.56400 0.88610 0.53200 0.18700
C 	C 	0.58820 0.46350 0.55800 0.22400
C 	C 	0.63770 0.42790 0.58980 0.30900
C 	C 	0.66470 0.54200 0.61520 -0.48600
H 	H 	0.65160 0.58120 0.57860 0.14000
H 	H 	0.65870 0.57130 0.64040 0.12000
H 	H 	0.69880 0.53490 0.64060 0.08600
C 	C 	0.64010 0.40000 0.54260 -0.14600
H 	H 	0.62390 0.44740 0.50900 -0.02600
H 	H 	0.67310 0.39600 0.56200 -0.09500
H 	H 	0.62490 0.33860 0.52510 0.00700
C 	C 	0.65870 0.37500 0.64470 -0.20200
H 	H 	0.65340 0.40720 0.67020 0.04100
H 	H 	0.64480 0.31210 0.63350 0.26700
H 	H 	0.69260 0.37010 0.66880 0.00700
C 	C 	0.28270 0.59300 0.50780 -0.31100
H 	H 	0.30710 0.55110 0.54230 0.00600
H 	H 	0.29440 0.62160 0.48900 0.05800
H 	H 	0.27500 0.64200 0.52380 0.09400
C 	C 	0.18740 0.56600 0.41980 -0.22900
H 	H 	0.18350 0.62970 0.40300 0.03700
H 	H 	0.16620 0.52230 0.38500 0.04800
H 	H 	0.18000 0.56760 0.44680 0.24200
C 	C 	0.23820 0.53410 0.45770 0.13000
C 	C 	0.23620 0.51880 0.40080 -0.51600
H 	H 	0.26310 0.55040 0.40970 0.09100
H 	H 	0.23740 0.45100 0.39480 0.15300
H 	H 	0.20690 0.54540 0.36260 0.13100
C 	C 	0.65060 0.42300 0.55340 -0.26600
H 	H 	0.62310 0.40550 0.51030 0.16700
H 	H 	0.66220 0.48500 0.55340 0.09500
H 	H 	0.67540 0.37590 0.57120 0.20200
C 	C 	0.67500 0.45500 0.65750 -0.31500
H 	H 	0.66170 0.45390 0.67760 0.08200
H 	H 	0.70110 0.40990 0.67870 0.09700
H 	H 	0.68650 0.51860 0.66060 0.18300
C 	C 	0.62800 0.30700 0.59290 -0.70200
H 	H 	0.61890 0.29870 0.61780 0.08000
H 	H 	0.60280 0.28340 0.55030 0.21300
H 	H 	0.65700 0.27150 0.61220 0.15200
P 	P 	0.00000 0.12740 0.25000 0.52600
P 	P 	0.50000 0.62740 0.25000 0.53800
P 	P 	0.00000 0.87260 0.75000 0.52600
P 	P 	0.50000 0.37260 0.75000 0.53800
