data_crystal

_cell_length_a 20.59090
_cell_length_b 20.59090
_cell_length_c 28.30820
_cell_angle_alpha 90.00000
_cell_angle_beta  90.00000
_cell_angle_gamma 120.00000

_symmetry_space_group_name_	'P 1'
_symmetry_space_group_name_H-M	'P 1'

loop_
_symmetry_equiv_pos_as_xyz
  x,y,z

loop_
_atom_site_label
_atom_site_type_symbol
_atom_site_fract_x
_atom_site_fract_y
_atom_site_fract_z
_atom_site_charge
K 	K 	0.15045 0.39599 0.02815 0.65500
K 	K 	0.92559 0.72803 0.11036 0.65000
K 	K 	0.57481 0.05749 0.11394 0.65100
K 	K 	0.24554 0.84955 0.36148 0.64900
K 	K 	0.80244 0.07441 0.44369 0.64900
K 	K 	0.48268 0.42519 0.44727 0.65000
K 	K 	0.60401 0.75446 0.69482 0.64900
K 	K 	0.27197 0.19756 0.77703 0.64900
K 	K 	0.94251 0.51732 0.78061 0.65000
K 	K 	0.84955 0.60401 0.52815 0.64900
K 	K 	0.07441 0.27197 0.61036 0.64900
K 	K 	0.42519 0.94251 0.61394 0.65000
K 	K 	0.75446 0.15045 0.86148 0.64800
K 	K 	0.19756 0.92559 0.94369 0.64200
K 	K 	0.51732 0.57481 0.94727 0.64400
K 	K 	0.39599 0.24554 0.19482 0.64800
K 	K 	0.72803 0.80244 0.27703 0.64800
K 	K 	0.05749 0.48268 0.28061 0.64900
Cd	Cd	0.11200 0.44325 0.15560 1.23500
Cd	Cd	0.00301 0.77051 0.98199 1.22200
Cd	Cd	0.42354 0.08737 0.15646 1.23600
Cd	Cd	0.33125 0.88800 0.48893 1.23500
Cd	Cd	0.76750 0.99699 0.31532 1.23600
Cd	Cd	0.66383 0.57646 0.48979 1.23500
Cd	Cd	0.55675 0.66875 0.82226 1.23500
Cd	Cd	0.22949 0.23250 0.64866 1.23600
Cd	Cd	0.91264 0.33618 0.82313 1.23500
Cd	Cd	0.88800 0.55675 0.65560 1.23500
Cd	Cd	0.99699 0.22949 0.48199 1.23600
Cd	Cd	0.57646 0.91263 0.65646 1.23500
Cd	Cd	0.66875 0.11200 0.98893 1.22100
Cd	Cd	0.23250 0.00301 0.81532 1.23600
Cd	Cd	0.33617 0.42353 0.98979 1.22100
Cd	Cd	0.44325 0.33125 0.32226 1.23500
Cd	Cd	0.77051 0.76750 0.14866 1.23600
Cd	Cd	0.08737 0.66383 0.32313 1.23500
H 	H 	0.31410 0.43960 0.25020 0.04800
H 	H 	0.37450 0.53070 0.37900 0.02800
H 	H 	0.30800 0.59210 0.36820 0.06800
H 	H 	0.23890 0.57300 0.30010 0.02400
H 	H 	0.96670 0.20060 0.22070 0.05400
H 	H 	0.88780 0.99350 0.16790 0.05100
H 	H 	0.96360 0.04530 0.10170 0.06400
H 	H 	0.03610 0.17320 0.09370 0.03700
H 	H 	0.11970 0.65550 0.06570 0.06500
H 	H 	0.25870 0.58510 0.02040 0.02500
H 	H 	0.28560 0.66000 0.95420 0.06600
H 	H 	0.23140 0.73470 0.94430 0.05600
H 	H 	0.62490 0.09830 0.24490 0.03200
H 	H 	0.69730 0.18560 0.37360 0.02900
H 	H 	0.63390 0.25160 0.36660 0.06900
H 	H 	0.55700 0.23190 0.30220 0.03700
H 	H 	0.44440 0.29210 0.07140 0.02300
H 	H 	0.58860 0.23400 0.01800 0.01900
H 	H 	0.61750 0.32150 0.95780 0.08600
H 	H 	0.55460 0.38800 0.95250 0.02800
H 	H 	0.18800 0.97740 0.06590 0.03000
H 	H 	0.17390 0.06390 0.18780 0.02600
H 	H 	0.04510 0.00030 0.17890 0.07300
H 	H 	0.99000 0.92270 0.11440 0.02200
H 	H 	0.12550 0.68590 0.58353 0.04700
H 	H 	0.15620 0.62550 0.71233 0.02800
H 	H 	0.28410 0.69200 0.70153 0.06800
H 	H 	0.33410 0.76110 0.63343 0.02400
H 	H 	0.23390 0.03330 0.55403 0.05400
H 	H 	0.10570 0.11220 0.50123 0.05300
H 	H 	0.08170 0.03640 0.43503 0.06000
H 	H 	0.13710 0.96390 0.42703 0.03500
H 	H 	0.53580 0.88030 0.39903 0.04400
H 	H 	0.32640 0.74130 0.35373 0.02700
H 	H 	0.37440 0.71440 0.28753 0.06700
H 	H 	0.50330 0.76860 0.27763 0.03000
H 	H 	0.47340 0.37510 0.57823 0.03200
H 	H 	0.48830 0.30270 0.70693 0.02900
H 	H 	0.61770 0.36610 0.69993 0.06900
H 	H 	0.67490 0.44300 0.63553 0.03700
H 	H 	0.84770 0.55560 0.40473 0.02400
H 	H 	0.64540 0.41140 0.35133 0.03300
H 	H 	0.70400 0.38250 0.29113 0.07000
H 	H 	0.83340 0.44540 0.28583 0.02700
H 	H 	0.78940 0.81200 0.39923 0.02100
H 	H 	0.89000 0.82610 0.52113 0.02500
H 	H 	0.95520 0.95490 0.51223 0.07200
H 	H 	0.93270 0.01000 0.44773 0.02100
H 	H 	0.56040 0.87450 0.91687 0.05000
H 	H 	0.46930 0.84380 0.04567 0.02700
H 	H 	0.40790 0.71590 0.03487 0.05000
H 	H 	0.42700 0.66590 0.96677 0.04000
H 	H 	0.79940 0.76610 0.88737 0.05000
H 	H 	0.00650 0.89430 0.83457 0.05300
H 	H 	0.95470 0.91830 0.76837 0.06100
H 	H 	0.82680 0.86290 0.76037 0.03400
H 	H 	0.34450 0.46420 0.73237 0.04400
H 	H 	0.41490 0.67360 0.68707 0.02700
H 	H 	0.34000 0.62560 0.62087 0.06700
H 	H 	0.26530 0.49670 0.61097 0.03000
H 	H 	0.90170 0.52660 0.91157 0.03500
H 	H 	0.81440 0.51170 0.04027 0.02900
H 	H 	0.74840 0.38230 0.03327 0.05100
H 	H 	0.76810 0.32510 0.96887 0.05300
H 	H 	0.70790 0.15230 0.73807 0.02400
H 	H 	0.76600 0.35460 0.68467 0.03300
H 	H 	0.67850 0.29600 0.62447 0.07000
H 	H 	0.61200 0.16660 0.61917 0.02700
H 	H 	0.02260 0.21060 0.73257 0.02000
H 	H 	0.93610 0.11000 0.85447 0.02200
H 	H 	0.99970 0.04480 0.84557 0.07400
H 	H 	0.07730 0.06730 0.78107 0.01900
H 	H 	0.68590 0.56040 0.75020 0.04700
H 	H 	0.62550 0.46930 0.87900 0.02500
H 	H 	0.69200 0.40790 0.86820 0.06700
H 	H 	0.76110 0.42700 0.80010 0.02400
H 	H 	0.03330 0.79940 0.72070 0.05500
H 	H 	0.11220 0.00650 0.66790 0.05400
H 	H 	0.03640 0.95470 0.60170 0.06000
H 	H 	0.96390 0.82680 0.59370 0.03500
H 	H 	0.88030 0.34450 0.56570 0.04400
H 	H 	0.74130 0.41490 0.52040 0.02700
H 	H 	0.71440 0.34000 0.45420 0.06700
H 	H 	0.76860 0.26530 0.44430 0.03000
H 	H 	0.37510 0.90170 0.74490 0.03200
H 	H 	0.30270 0.81440 0.87360 0.02600
H 	H 	0.36610 0.74840 0.86660 0.06900
H 	H 	0.44300 0.76810 0.80220 0.03600
H 	H 	0.55560 0.70790 0.57140 0.02400
H 	H 	0.41140 0.76600 0.51800 0.03300
H 	H 	0.38250 0.67850 0.45780 0.07000
H 	H 	0.44540 0.61200 0.45250 0.02700
H 	H 	0.81200 0.02260 0.56590 0.02100
H 	H 	0.82610 0.93610 0.68780 0.02600
H 	H 	0.95490 0.99970 0.67890 0.07100
H 	H 	0.01000 0.07730 0.61440 0.02100
H 	H 	0.87450 0.31410 0.08353 0.05300
H 	H 	0.84380 0.37450 0.21233 0.02900
H 	H 	0.71590 0.30800 0.20153 0.06700
H 	H 	0.66590 0.23890 0.13343 0.02600
H 	H 	0.76610 0.96670 0.05403 0.06600
H 	H 	0.89430 0.88780 0.00123 0.15800
H 	H 	0.91830 0.96360 0.93503 0.01400
H 	H 	0.86290 0.03610 0.92703 0.05900
H 	H 	0.46420 0.11970 0.89903 0.03900
H 	H 	0.67360 0.25870 0.85373 0.02500
H 	H 	0.62560 0.28560 0.78753 0.06800
H 	H 	0.49670 0.23140 0.77763 0.02900
H 	H 	0.52660 0.62490 0.07823 0.03900
H 	H 	0.51170 0.69730 0.20693 0.03100
H 	H 	0.38230 0.63390 0.19993 0.06700
H 	H 	0.32510 0.55700 0.13553 0.03900
H 	H 	0.15230 0.44440 0.90473 0.01800
H 	H 	0.35460 0.58860 0.85133 0.03100
H 	H 	0.29600 0.61750 0.79113 0.07100
H 	H 	0.16660 0.55460 0.78583 0.02500
H 	H 	0.21060 0.18800 0.89923 0.02600
H 	H 	0.11000 0.17390 0.02113 0.07300
H 	H 	0.04480 0.04510 0.01223 0.12100
H 	H 	0.06730 0.99000 0.94773 0.00300
H 	H 	0.43960 0.12550 0.41687 0.04800
H 	H 	0.53070 0.15620 0.54567 0.02800
H 	H 	0.59210 0.28410 0.53487 0.06800
H 	H 	0.57300 0.33410 0.46677 0.02400
H 	H 	0.20060 0.23390 0.38737 0.05500
H 	H 	0.99350 0.10570 0.33457 0.05400
H 	H 	0.04530 0.08170 0.26837 0.06100
H 	H 	0.17320 0.13710 0.26037 0.03500
H 	H 	0.65550 0.53580 0.23237 0.04400
H 	H 	0.58510 0.32640 0.18707 0.02700
H 	H 	0.66000 0.37440 0.12087 0.06800
H 	H 	0.73470 0.50330 0.11097 0.03300
H 	H 	0.09830 0.47340 0.41157 0.03200
H 	H 	0.18560 0.48830 0.54027 0.02900
H 	H 	0.25160 0.61770 0.53327 0.06900
H 	H 	0.23190 0.67490 0.46887 0.03700
H 	H 	0.29210 0.84770 0.23807 0.02400
H 	H 	0.23400 0.64540 0.18467 0.03300
H 	H 	0.32150 0.70400 0.12447 0.07100
H 	H 	0.38800 0.83340 0.11917 0.02900
H 	H 	0.97740 0.78940 0.23257 0.02000
H 	H 	0.06390 0.89000 0.35447 0.02500
H 	H 	0.00030 0.95520 0.34557 0.07300
H 	H 	0.92270 0.93270 0.28107 0.01900
C 	C 	0.31127 0.46878 0.27437 0.03800
C 	C 	0.35035 0.47755 0.31651 -0.10300
C 	C 	0.34820 0.52380 0.35104 0.03300
C 	C 	0.30780 0.56030 0.34477 -0.10000
C 	C 	0.26710 0.54950 0.30393 0.02300
C 	C 	0.26839 0.50273 0.26798 -0.10500
C 	C 	0.39272 0.43626 0.32312 0.33900
C 	C 	0.22031 0.48551 0.22486 0.31100
C 	C 	0.96487 0.16953 0.19627 0.02100
C 	C 	0.91952 0.09265 0.20062 -0.07400
C 	C 	0.91820 0.04520 0.16511 0.00700
C 	C 	0.96310 0.07640 0.12534 -0.07700
C 	C 	0.00690 0.15320 0.12063 0.01700
C 	C 	0.00772 0.20105 0.15587 -0.08700
C 	C 	0.86794 0.06046 0.24294 0.29900
C 	C 	0.05327 0.28489 0.15007 0.33100
C 	C 	0.15212 0.65562 0.04277 -0.01200
C 	C 	0.18472 0.61092 0.04890 -0.09000
C 	C 	0.23570 0.61370 0.01607 0.06000
C 	C 	0.25210 0.65890 0.97666 -0.11700
C 	C 	0.21890 0.70320 0.97036 -0.06400
C 	C 	0.16730 0.70000 0.00307 0.02200
C 	C 	0.16138 0.55788 0.09016 0.31000
C 	C 	0.12470 0.74140 0.99359 0.22100
C 	C 	0.62500 0.12722 0.27018 0.04300
C 	C 	0.66772 0.13436 0.30992 -0.10200
C 	C 	0.66950 0.18040 0.34649 0.03300
C 	C 	0.63010 0.21870 0.34282 -0.10000
C 	C 	0.58530 0.20820 0.30377 0.03600
C 	C 	0.58231 0.16246 0.26726 -0.11000
C 	C 	0.70730 0.09030 0.31359 0.32600
C 	C 	0.53023 0.14403 0.22622 0.33100
C 	C 	0.47758 0.29637 0.04767 0.06100
C 	C 	0.51320 0.25411 0.05075 -0.13100
C 	C 	0.56500 0.26240 0.01660 0.11700
C 	C 	0.58130 0.31400 0.98011 -0.17300
C 	C 	0.54370 0.35410 0.97707 0.01100
C 	C 	0.49030 0.34429 0.01031 -0.08200
C 	C 	0.49062 0.19764 0.08953 0.34000
C 	C 	0.44320 0.38105 0.00483 0.37400
C 	C 	0.16390 0.98320 0.08810 0.04800
C 	C 	0.19760 0.02709 0.12795 -0.10600
C 	C 	0.15230 0.03360 0.16151 0.03900
C 	C 	0.07500 0.99520 0.15623 -0.11200
C 	C 	0.04190 0.94930 0.11733 0.04000
C 	C 	0.08655 0.94323 0.08284 -0.13000
C 	C 	0.28010 0.05780 0.13597 0.32100
C 	C 	0.05470 0.88869 0.04265 0.35700
C 	C 	0.15751 0.68873 0.60770 0.03800
C 	C 	0.12720 0.64965 0.64984 -0.10300
C 	C 	0.17560 0.65180 0.68437 0.03300
C 	C 	0.25250 0.69220 0.67810 -0.10000
C 	C 	0.28240 0.73290 0.63726 0.02300
C 	C 	0.23434 0.73161 0.60131 -0.10600
C 	C 	0.04354 0.60728 0.65645 0.33900
C 	C 	0.26520 0.77969 0.55819 0.31100
C 	C 	0.20466 0.03513 0.52960 0.02000
C 	C 	0.17313 0.08048 0.53395 -0.07200
C 	C 	0.12700 0.08180 0.49844 0.00300
C 	C 	0.11330 0.03690 0.45867 -0.07400
C 	C 	0.14630 0.99310 0.45396 0.01300
C 	C 	0.19333 0.99228 0.48920 -0.08700
C 	C 	0.19252 0.13206 0.57627 0.29700
C 	C 	0.23162 0.94673 0.48340 0.33100
C 	C 	0.50350 0.84788 0.37610 0.03800
C 	C 	0.42620 0.81528 0.38223 -0.10500
C 	C 	0.37800 0.76430 0.34940 0.02200
C 	C 	0.40680 0.74790 0.30999 -0.09600
C 	C 	0.48430 0.78110 0.30369 0.02600
C 	C 	0.53270 0.83270 0.33640 -0.10300
C 	C 	0.39650 0.83862 0.42349 0.31300
C 	C 	0.61670 0.87530 0.32692 0.33800
C 	C 	0.50222 0.37500 0.60351 0.04400
C 	C 	0.46664 0.33228 0.64325 -0.10200
C 	C 	0.51090 0.33050 0.67982 0.03300
C 	C 	0.58860 0.36990 0.67615 -0.10000
C 	C 	0.62290 0.41470 0.63710 0.03700
C 	C 	0.58015 0.41769 0.60059 -0.11000
C 	C 	0.38300 0.29270 0.64692 0.32600
C 	C 	0.61380 0.46977 0.55955 0.33200
C 	C 	0.81879 0.52242 0.38100 0.05000
C 	C 	0.74091 0.48680 0.38408 -0.11200
C 	C 	0.69740 0.43500 0.34993 0.03900
C 	C 	0.73270 0.41870 0.31344 -0.10400
C 	C 	0.81040 0.45630 0.31040 0.03700
C 	C 	0.85399 0.50970 0.34364 -0.11000
C 	C 	0.70702 0.50938 0.42286 0.33100
C 	C 	0.93785 0.55680 0.33816 0.32700
C 	C 	0.81930 0.83610 0.42143 0.05600
C 	C 	0.82949 0.80240 0.46128 -0.11300
C 	C 	0.88130 0.84770 0.49484 0.04000
C 	C 	0.92020 0.92500 0.48956 -0.11200
C 	C 	0.90740 0.95810 0.45066 0.04200
C 	C 	0.85668 0.91345 0.41617 -0.13800
C 	C 	0.77770 0.71990 0.46930 0.32300
C 	C 	0.83399 0.94530 0.37598 0.36100
C 	C 	0.53122 0.84249 0.94104 0.02600
C 	C 	0.52245 0.87280 0.98318 -0.12800
C 	C 	0.47620 0.82440 0.01771 0.05500
C 	C 	0.43970 0.74750 0.01144 -0.02600
C 	C 	0.45050 0.71760 0.97060 -0.05800
C 	C 	0.49727 0.76566 0.93465 -0.08400
C 	C 	0.56374 0.95646 0.98979 0.29100
C 	C 	0.51449 0.73480 0.89153 0.30100
C 	C 	0.83047 0.79534 0.86294 0.02200
C 	C 	0.90735 0.82687 0.86729 -0.07700
C 	C 	0.95480 0.87300 0.83178 0.00500
C 	C 	0.92360 0.88670 0.79201 -0.07700
C 	C 	0.84680 0.85370 0.78730 0.01700
C 	C 	0.79895 0.80667 0.82254 -0.09000
C 	C 	0.93954 0.80748 0.90961 0.30000
C 	C 	0.71511 0.76838 0.81674 0.33300
C 	C 	0.34438 0.49650 0.70944 0.03800
C 	C 	0.38908 0.57380 0.71557 -0.10500
C 	C 	0.38630 0.62200 0.68274 0.02200
C 	C 	0.34110 0.59320 0.64333 -0.09500
C 	C 	0.29680 0.51570 0.63703 0.02600
C 	C 	0.30000 0.46730 0.66974 -0.10300
C 	C 	0.44212 0.60350 0.75683 0.31300
C 	C 	0.25860 0.38330 0.66026 0.33800
C 	C 	0.87278 0.49778 0.93685 0.03000
C 	C 	0.86564 0.53336 0.97659 -0.12600
C 	C 	0.81960 0.48910 0.01316 0.05400
C 	C 	0.78130 0.41140 0.00949 -0.02600
C 	C 	0.79180 0.37710 0.97044 -0.04600
C 	C 	0.83754 0.41985 0.93393 -0.08700
C 	C 	0.90970 0.61700 0.98026 0.27700
C 	C 	0.85597 0.38620 0.89289 0.32100
C 	C 	0.70363 0.18121 0.71434 0.05000
C 	C 	0.74589 0.25909 0.71742 -0.11200
C 	C 	0.73760 0.30260 0.68327 0.03900
C 	C 	0.68600 0.26730 0.64678 -0.10400
C 	C 	0.64590 0.18960 0.64374 0.03700
C 	C 	0.65571 0.14601 0.67698 -0.11000
C 	C 	0.80236 0.29298 0.75620 0.33100
C 	C 	0.61895 0.06215 0.67150 0.32700
C 	C 	0.01680 0.18070 0.75477 0.05900
C 	C 	0.97291 0.17051 0.79462 -0.11600
C 	C 	0.96640 0.11870 0.82818 0.04400
C 	C 	0.00480 0.07980 0.82290 -0.11600
C 	C 	0.05070 0.09260 0.78400 0.04800
C 	C 	0.05677 0.14332 0.74951 -0.14100
C 	C 	0.94220 0.22230 0.80264 0.32400
C 	C 	0.11131 0.16601 0.70932 0.36300
C 	C 	0.68873 0.53122 0.77437 0.03900
C 	C 	0.64965 0.52245 0.81651 -0.10500
C 	C 	0.65180 0.47620 0.85104 0.03400
C 	C 	0.69220 0.43970 0.84477 -0.10100
C 	C 	0.73290 0.45050 0.80393 0.02300
C 	C 	0.73161 0.49727 0.76798 -0.10600
C 	C 	0.60728 0.56374 0.82312 0.33900
C 	C 	0.77969 0.51449 0.72486 0.31100
C 	C 	0.03513 0.83047 0.69627 0.01900
C 	C 	0.08048 0.90735 0.70062 -0.07100
C 	C 	0.08180 0.95480 0.66511 0.00100
C 	C 	0.03690 0.92360 0.62534 -0.07400
C 	C 	0.99310 0.84680 0.62063 0.01300
C 	C 	0.99228 0.79895 0.65587 -0.08700
C 	C 	0.13206 0.93954 0.74294 0.29600
C 	C 	0.94673 0.71511 0.65007 0.33100
C 	C 	0.84788 0.34438 0.54277 0.03800
C 	C 	0.81528 0.38908 0.54890 -0.10500
C 	C 	0.76430 0.38630 0.51607 0.02100
C 	C 	0.74790 0.34110 0.47666 -0.09500
C 	C 	0.78110 0.29680 0.47036 0.02600
C 	C 	0.83270 0.30000 0.50307 -0.10300
C 	C 	0.83862 0.44212 0.59016 0.31300
C 	C 	0.87530 0.25860 0.49359 0.33800
C 	C 	0.37500 0.87278 0.77018 0.04500
C 	C 	0.33228 0.86564 0.80992 -0.10400
C 	C 	0.33050 0.81960 0.84649 0.03400
C 	C 	0.36990 0.78130 0.84282 -0.10300
C 	C 	0.41470 0.79180 0.80377 0.03800
C 	C 	0.41769 0.83754 0.76726 -0.11100
C 	C 	0.29270 0.90970 0.81359 0.32700
C 	C 	0.46977 0.85597 0.72622 0.33200
C 	C 	0.52242 0.70363 0.54767 0.05000
C 	C 	0.48680 0.74589 0.55075 -0.11200
C 	C 	0.43500 0.73760 0.51660 0.03900
C 	C 	0.41870 0.68600 0.48011 -0.10400
C 	C 	0.45630 0.64590 0.47707 0.03700
C 	C 	0.50970 0.65571 0.51031 -0.11000
C 	C 	0.50938 0.80236 0.58953 0.33100
C 	C 	0.55680 0.61895 0.50483 0.32700
C 	C 	0.83610 0.01680 0.58810 0.05700
C 	C 	0.80240 0.97291 0.62795 -0.11400
C 	C 	0.84770 0.96640 0.66151 0.03800
C 	C 	0.92500 0.00480 0.65623 -0.10900
C 	C 	0.95810 0.05070 0.61733 0.04300
C 	C 	0.91345 0.05677 0.58284 -0.13900
C 	C 	0.71990 0.94220 0.63597 0.32300
C 	C 	0.94530 0.11131 0.54265 0.36300
C 	C 	0.84249 0.31127 0.10770 0.03400
C 	C 	0.87280 0.35035 0.14984 -0.09900
C 	C 	0.82440 0.34820 0.18437 0.03000
C 	C 	0.74750 0.30780 0.17810 -0.09600
C 	C 	0.71760 0.26710 0.13726 0.01900
C 	C 	0.76566 0.26839 0.10131 -0.09900
C 	C 	0.95646 0.39272 0.15645 0.33700
C 	C 	0.73480 0.22031 0.05819 0.30800
C 	C 	0.79534 0.96487 0.02960 0.00200
C 	C 	0.82687 0.91952 0.03395 0.04200
C 	C 	0.87300 0.91820 0.99844 -0.21400
C 	C 	0.88670 0.96310 0.95867 0.04400
C 	C 	0.85370 0.00690 0.95396 -0.06000
C 	C 	0.80667 0.00772 0.98920 -0.07400
C 	C 	0.80748 0.86794 0.07627 0.26100
C 	C 	0.76838 0.05327 0.98340 0.27300
C 	C 	0.49650 0.15212 0.87610 0.04200
C 	C 	0.57380 0.18472 0.88223 -0.11200
C 	C 	0.62200 0.23570 0.84940 0.02500
C 	C 	0.59320 0.25210 0.80999 -0.09900
C 	C 	0.51570 0.21890 0.80369 0.02900
C 	C 	0.46730 0.16730 0.83640 -0.10700
C 	C 	0.60350 0.16138 0.92349 0.31600
C 	C 	0.38330 0.12470 0.82692 0.33900
C 	C 	0.49778 0.62500 0.10351 0.03900
C 	C 	0.53336 0.66772 0.14325 -0.09700
C 	C 	0.48910 0.66950 0.17982 0.02900
C 	C 	0.41140 0.63010 0.17615 -0.09600
C 	C 	0.37710 0.58530 0.13710 0.03200
C 	C 	0.41985 0.58231 0.10059 -0.10200
C 	C 	0.61700 0.70730 0.14692 0.32400
C 	C 	0.38620 0.53023 0.05955 0.32700
C 	C 	0.18121 0.47758 0.88100 0.05500
C 	C 	0.25909 0.51320 0.88408 -0.11900
C 	C 	0.30260 0.56500 0.84993 0.04300
C 	C 	0.26730 0.58130 0.81344 -0.10800
C 	C 	0.18960 0.54370 0.81040 0.04100
C 	C 	0.14601 0.49030 0.84364 -0.11500
C 	C 	0.29298 0.49062 0.92286 0.33500
C 	C 	0.06215 0.44320 0.83816 0.32800
C 	C 	0.18070 0.16390 0.92143 0.03900
C 	C 	0.17051 0.19760 0.96128 -0.08300
C 	C 	0.11870 0.15230 0.99484 -0.02500
C 	C 	0.07980 0.07500 0.98956 -0.17100
C 	C 	0.09260 0.04190 0.95066 0.06900
C 	C 	0.14332 0.08655 0.91617 -0.14500
C 	C 	0.22230 0.28010 0.96930 0.25900
C 	C 	0.16601 0.05470 0.87598 0.36400
C 	C 	0.46878 0.15751 0.44104 0.03800
C 	C 	0.47755 0.12720 0.48318 -0.10300
C 	C 	0.52380 0.17560 0.51771 0.03300
C 	C 	0.56030 0.25250 0.51144 -0.10000
C 	C 	0.54950 0.28240 0.47060 0.02300
C 	C 	0.50273 0.23434 0.43465 -0.10500
C 	C 	0.43626 0.04354 0.48979 0.33900
C 	C 	0.48551 0.26520 0.39153 0.31100
C 	C 	0.16953 0.20466 0.36294 0.01900
C 	C 	0.09265 0.17313 0.36729 -0.07200
C 	C 	0.04520 0.12700 0.33178 0.00300
C 	C 	0.07640 0.11330 0.29201 -0.07500
C 	C 	0.15320 0.14630 0.28730 0.01400
C 	C 	0.20105 0.19333 0.32254 -0.08600
C 	C 	0.06046 0.19252 0.40961 0.29700
C 	C 	0.28489 0.23162 0.31674 0.33100
C 	C 	0.65562 0.50350 0.20944 0.03800
C 	C 	0.61092 0.42620 0.21557 -0.10500
C 	C 	0.61370 0.37800 0.18274 0.02100
C 	C 	0.65890 0.40680 0.14333 -0.09400
C 	C 	0.70320 0.48430 0.13703 0.02700
C 	C 	0.70000 0.53270 0.16974 -0.10200
C 	C 	0.55788 0.39650 0.25683 0.31300
C 	C 	0.74140 0.61670 0.16026 0.33700
C 	C 	0.12722 0.50222 0.43685 0.04400
C 	C 	0.13436 0.46664 0.47659 -0.10200
C 	C 	0.18040 0.51090 0.51316 0.03300
C 	C 	0.21870 0.58860 0.50949 -0.10000
C 	C 	0.20820 0.62290 0.47044 0.03700
C 	C 	0.16246 0.58015 0.43393 -0.11000
C 	C 	0.09030 0.38300 0.48026 0.32600
C 	C 	0.14403 0.61380 0.39289 0.33200
C 	C 	0.29637 0.81879 0.21434 0.05000
C 	C 	0.25411 0.74091 0.21742 -0.11200
C 	C 	0.26240 0.69740 0.18327 0.03900
C 	C 	0.31400 0.73270 0.14678 -0.10300
C 	C 	0.35410 0.81040 0.14374 0.03700
C 	C 	0.34429 0.85399 0.17698 -0.10900
C 	C 	0.19764 0.70702 0.25620 0.33100
C 	C 	0.38105 0.93785 0.17150 0.32700
C 	C 	0.98320 0.81930 0.25477 0.05800
C 	C 	0.02709 0.82949 0.29462 -0.11500
C 	C 	0.03360 0.88130 0.32818 0.04100
C 	C 	0.99520 0.92020 0.32290 -0.11400
C 	C 	0.94930 0.90740 0.28400 0.04600
C 	C 	0.94323 0.85668 0.24951 -0.14000
C 	C 	0.05780 0.77770 0.30264 0.32300
C 	C 	0.88869 0.83399 0.20932 0.36300
O 	O 	0.42060 0.43717 0.36255 -0.37600
O 	O 	0.39679 0.40012 0.28823 -0.38800
O 	O 	0.17049 0.50477 0.22448 -0.43200
O 	O 	0.22721 0.44988 0.19114 -0.34000
O 	O 	0.81296 0.99389 0.24020 -0.37100
O 	O 	0.88021 0.10031 0.27876 -0.34300
O 	O 	0.08427 0.31280 0.11149 -0.36500
O 	O 	0.05804 0.32445 0.18562 -0.38300
O 	O 	0.18022 0.50799 0.09014 -0.42900
O 	O 	0.12248 0.56213 0.12265 -0.33800
O 	O 	0.13530 0.77672 0.95624 -0.35900
O 	O 	0.07647 0.73443 0.02330 -0.34200
O 	O 	0.74569 0.09696 0.34956 -0.37900
O 	O 	0.69921 0.04670 0.28005 -0.36600
O 	O 	0.47079 0.14772 0.23126 -0.37900
O 	O 	0.54462 0.12286 0.18819 -0.42400
O 	O 	0.49208 0.13766 0.08295 -0.37900
O 	O 	0.46754 0.21074 0.12773 -0.42700
O 	O 	0.45694 0.42658 0.97152 -0.44000
O 	O 	0.38914 0.36263 0.03242 -0.37100
O 	O 	0.31009 0.09819 0.17194 -0.39700
O 	O 	0.31580 0.03957 0.10836 -0.36500
O 	O 	0.09370 0.89666 0.00771 -0.41700
O 	O 	0.98950 0.83384 0.04713 -0.43300
O 	O 	0.01657 0.57940 0.69588 -0.37600
O 	O 	0.00333 0.60321 0.62156 -0.38800
O 	O 	0.33428 0.82951 0.55781 -0.43200
O 	O 	0.22267 0.77279 0.52447 -0.34100
O 	O 	0.18093 0.18704 0.57353 -0.36900
O 	O 	0.22010 0.11979 0.61209 -0.34300
O 	O 	0.22853 0.91573 0.44482 -0.36800
O 	O 	0.26641 0.94196 0.51895 -0.38400
O 	O 	0.32777 0.81978 0.42347 -0.43300
O 	O 	0.43965 0.87752 0.45598 -0.34000
O 	O 	0.64142 0.86470 0.28957 -0.37800
O 	O 	0.65796 0.92353 0.35663 -0.40000
O 	O 	0.35127 0.25431 0.68289 -0.37900
O 	O 	0.34749 0.30079 0.61338 -0.36700
O 	O 	0.67693 0.52921 0.56459 -0.37900
O 	O 	0.57824 0.45538 0.52152 -0.42400
O 	O 	0.64558 0.50792 0.41628 -0.38300
O 	O 	0.74320 0.53246 0.46106 -0.42600
O 	O 	0.96964 0.54306 0.30485 -0.39800
O 	O 	0.97349 0.61086 0.36575 -0.37200
O 	O 	0.78810 0.68991 0.50527 -0.39800
O 	O 	0.72377 0.68420 0.44169 -0.37200
O 	O 	0.80296 0.90630 0.34104 -0.44000
O 	O 	0.84434 0.01050 0.38046 -0.44100
O 	O 	0.56283 0.98343 0.02922 -0.33500
O 	O 	0.59988 0.99667 0.95490 -0.38400
O 	O 	0.49523 0.66572 0.89115 -0.43200
O 	O 	0.55012 0.77733 0.85781 -0.33900
O 	O 	0.00611 0.81907 0.90687 -0.37600
O 	O 	0.89969 0.77990 0.94543 -0.36100
O 	O 	0.68720 0.77147 0.77816 -0.36900
O 	O 	0.67555 0.73359 0.85229 -0.38700
O 	O 	0.49201 0.67223 0.75681 -0.43300
O 	O 	0.43787 0.56035 0.78932 -0.34000
O 	O 	0.22328 0.35858 0.62291 -0.37800
O 	O 	0.26557 0.34204 0.68997 -0.40000
O 	O 	0.90304 0.64873 0.01623 -0.33700
O 	O 	0.95330 0.65251 0.94672 -0.36300
O 	O 	0.85228 0.32307 0.89793 -0.38200
O 	O 	0.87714 0.42176 0.85486 -0.42300
O 	O 	0.86234 0.35442 0.74962 -0.38300
O 	O 	0.78926 0.25680 0.79440 -0.42600
O 	O 	0.57342 0.03036 0.63819 -0.39700
O 	O 	0.63737 0.02651 0.69909 -0.37100
O 	O 	0.90181 0.21190 0.83861 -0.40100
O 	O 	0.96043 0.27623 0.77503 -0.37200
O 	O 	0.10334 0.19704 0.67438 -0.44000
O 	O 	0.16616 0.15566 0.71380 -0.44200
O 	O 	0.57940 0.56283 0.86255 -0.37900
O 	O 	0.60321 0.59988 0.78823 -0.38800
O 	O 	0.82951 0.49523 0.72448 -0.43200
O 	O 	0.77279 0.55012 0.69114 -0.34100
O 	O 	0.18704 0.00611 0.74020 -0.36900
O 	O 	0.11979 0.89969 0.77876 -0.34300
O 	O 	0.91573 0.68720 0.61149 -0.36800
O 	O 	0.94196 0.67555 0.68562 -0.38400
O 	O 	0.81978 0.49201 0.59014 -0.43300
O 	O 	0.87752 0.43787 0.62265 -0.34000
O 	O 	0.86470 0.22328 0.45624 -0.37800
O 	O 	0.92353 0.26557 0.52330 -0.40000
O 	O 	0.25431 0.90304 0.84956 -0.38300
O 	O 	0.30079 0.95330 0.78005 -0.36700
O 	O 	0.52921 0.85228 0.73126 -0.37900
O 	O 	0.45538 0.87714 0.68819 -0.42400
O 	O 	0.50792 0.86234 0.58295 -0.38300
O 	O 	0.53246 0.78926 0.62773 -0.42600
O 	O 	0.54306 0.57342 0.47152 -0.39800
O 	O 	0.61086 0.63737 0.53242 -0.37200
O 	O 	0.68991 0.90181 0.67194 -0.39800
O 	O 	0.68420 0.96043 0.60836 -0.37200
O 	O 	0.90630 0.10334 0.50771 -0.44000
O 	O 	0.01050 0.16616 0.54713 -0.44200
O 	O 	0.98343 0.42060 0.19588 -0.37500
O 	O 	0.99667 0.39679 0.12156 -0.38400
O 	O 	0.66572 0.17049 0.05781 -0.42000
O 	O 	0.77733 0.22721 0.02447 -0.32000
O 	O 	0.81907 0.81296 0.07353 -0.35400
O 	O 	0.77990 0.88021 0.11209 -0.33300
O 	O 	0.77147 0.08427 0.94482 -0.36000
O 	O 	0.73359 0.05804 0.01895 -0.33600
O 	O 	0.67223 0.18022 0.92347 -0.44100
O 	O 	0.56035 0.12248 0.95598 -0.35600
O 	O 	0.35858 0.13530 0.78957 -0.37800
O 	O 	0.34204 0.07647 0.85663 -0.40400
O 	O 	0.64873 0.74569 0.18289 -0.37900
O 	O 	0.65251 0.69921 0.11338 -0.36200
O 	O 	0.32307 0.47079 0.06459 -0.36900
O 	O 	0.42176 0.54462 0.02152 -0.40100
O 	O 	0.35442 0.49208 0.91628 -0.39000
O 	O 	0.25680 0.46754 0.96106 -0.44600
O 	O 	0.03036 0.45694 0.80485 -0.39900
O 	O 	0.02651 0.38914 0.86575 -0.37600
O 	O 	0.21190 0.31009 0.00527 -0.34800
O 	O 	0.27623 0.31580 0.94169 -0.36400
O 	O 	0.19704 0.09370 0.84104 -0.44100
O 	O 	0.15566 0.98950 0.88046 -0.44600
O 	O 	0.43717 0.01657 0.52922 -0.37500
O 	O 	0.40012 0.00333 0.45490 -0.38700
O 	O 	0.50477 0.33428 0.39115 -0.43200
O 	O 	0.44988 0.22267 0.35781 -0.34100
O 	O 	0.99389 0.18093 0.40687 -0.36900
O 	O 	0.10031 0.22010 0.44543 -0.34300
O 	O 	0.31280 0.22853 0.27816 -0.36800
O 	O 	0.32445 0.26641 0.35229 -0.38300
O 	O 	0.50799 0.32777 0.25681 -0.43300
O 	O 	0.56213 0.43965 0.28932 -0.34000
O 	O 	0.77672 0.64142 0.12291 -0.37500
O 	O 	0.73443 0.65796 0.18997 -0.40000
O 	O 	0.09696 0.35127 0.51623 -0.37900
O 	O 	0.04670 0.34749 0.44672 -0.36700
O 	O 	0.14772 0.67693 0.39793 -0.37900
O 	O 	0.12286 0.57824 0.35486 -0.42400
O 	O 	0.13766 0.64558 0.24962 -0.38300
O 	O 	0.21074 0.74320 0.29440 -0.42600
O 	O 	0.42658 0.96964 0.13819 -0.39600
O 	O 	0.36263 0.97349 0.19909 -0.37200
O 	O 	0.09819 0.78810 0.33861 -0.39800
O 	O 	0.03957 0.72377 0.27503 -0.37200
O 	O 	0.89666 0.80296 0.17438 -0.44000
O 	O 	0.83384 0.84434 0.21380 -0.44200
