data_crystal

_cell_length_a 20.60900
_cell_length_b 20.60900
_cell_length_c 28.31400
_cell_angle_alpha 90.00000
_cell_angle_beta  90.00000
_cell_angle_gamma 120.00000

_symmetry_space_group_name_	'P 1'
_symmetry_space_group_name_H-M	'P 1'

loop_
_symmetry_equiv_pos_as_xyz
  x,y,z

loop_
_atom_site_label
_atom_site_type_symbol
_atom_site_fract_x
_atom_site_fract_y
_atom_site_fract_z
_atom_site_charge
K 	K 	0.75283 0.14799 0.95217 0.64200
K 	K 	0.19305 0.92219 0.87002 0.64700
K 	K 	0.51722 0.57620 0.86686 0.64800
K 	K 	0.39516 0.24717 0.61884 0.64700
K 	K 	0.72914 0.80695 0.53669 0.64800
K 	K 	0.05898 0.48278 0.53353 0.64800
K 	K 	0.85201 0.60484 0.28550 0.64700
K 	K 	0.07781 0.27086 0.20335 0.64800
K 	K 	0.42380 0.94102 0.20019 0.64800
K 	K 	0.24717 0.85201 0.45217 0.64800
K 	K 	0.80695 0.07781 0.37002 0.64900
K 	K 	0.48278 0.42380 0.36686 0.64900
K 	K 	0.60484 0.75283 0.11884 0.64800
K 	K 	0.27086 0.19305 0.03669 0.65500
K 	K 	0.94102 0.51722 0.03353 0.65400
K 	K 	0.14799 0.39516 0.78550 0.64700
K 	K 	0.92219 0.72914 0.70335 0.64900
K 	K 	0.57620 0.05898 0.70019 0.64900
Cd	Cd	0.66700 0.11066 0.82489 1.23600
Cd	Cd	0.23198 0.00113 0.99828 1.22300
Cd	Cd	0.33411 0.42424 0.82477 1.23600
Cd	Cd	0.44366 0.33300 0.49156 1.23600
Cd	Cd	0.76915 0.76802 0.66494 1.23600
Cd	Cd	0.09013 0.66589 0.49144 1.23600
Cd	Cd	0.88934 0.55634 0.15822 1.23700
Cd	Cd	0.99887 0.23085 0.33161 1.23600
Cd	Cd	0.57576 0.90987 0.15810 1.23600
Cd	Cd	0.33300 0.88934 0.32489 1.23600
Cd	Cd	0.76802 0.99887 0.49828 1.23600
Cd	Cd	0.66589 0.57576 0.32477 1.23600
Cd	Cd	0.55634 0.66700 0.99156 1.22400
Cd	Cd	0.23085 0.23198 0.16494 1.23600
Cd	Cd	0.90987 0.33411 0.99144 1.22400
Cd	Cd	0.11066 0.44366 0.65822 1.23600
Cd	Cd	0.00113 0.76915 0.83161 1.23500
Cd	Cd	0.42424 0.09013 0.65810 1.23600
H 	H 	0.87260 0.31120 0.73000 0.05000
H 	H 	0.84320 0.37310 0.60040 0.03200
H 	H 	0.71560 0.30960 0.61240 0.06300
H 	H 	0.66290 0.23650 0.67990 0.02900
H 	H 	0.76580 0.96600 0.75750 0.05600
H 	H 	0.89680 0.89140 0.81110 0.05200
H 	H 	0.91780 0.96260 0.87710 0.05900
H 	H 	0.86430 0.03820 0.88500 0.03400
H 	H 	0.46390 0.12010 0.91230 0.04800
H 	H 	0.67280 0.25990 0.95920 0.04400
H 	H 	0.62360 0.28230 0.02740 0.04800
H 	H 	0.49280 0.23030 0.03420 0.03200
H 	H 	0.52540 0.62630 0.73600 0.03100
H 	H 	0.51250 0.69670 0.60660 0.03100
H 	H 	0.38240 0.63870 0.61510 0.06800
H 	H 	0.32510 0.55560 0.67750 0.03900
H 	H 	0.14850 0.44410 0.90970 0.02900
H 	H 	0.35070 0.58570 0.96320 0.04800
H 	H 	0.29270 0.61890 0.02180 0.05500
H 	H 	0.16230 0.55080 0.02880 0.02600
H 	H 	0.21600 0.19100 0.91000 0.01600
H 	H 	0.10920 0.17020 0.79050 0.02400
H 	H 	0.04660 0.04430 0.80000 0.07300
H 	H 	0.06960 0.98740 0.86390 0.02000
H 	H 	0.43860 0.12740 0.39667 0.05000
H 	H 	0.52990 0.15680 0.26707 0.03200
H 	H 	0.59400 0.28440 0.27907 0.06300
H 	H 	0.57360 0.33710 0.34657 0.02900
H 	H 	0.20020 0.23420 0.42417 0.05600
H 	H 	0.99460 0.10320 0.47777 0.05300
H 	H 	0.04480 0.08220 0.54377 0.06000
H 	H 	0.17390 0.13570 0.55167 0.03600
H 	H 	0.65620 0.53610 0.57897 0.04700
H 	H 	0.58710 0.32720 0.62587 0.02900
H 	H 	0.65870 0.37640 0.69407 0.06400
H 	H 	0.73750 0.50720 0.70087 0.03300
H 	H 	0.10090 0.47460 0.40267 0.03100
H 	H 	0.18420 0.48750 0.27327 0.03100
H 	H 	0.25630 0.61760 0.28177 0.06800
H 	H 	0.23050 0.67490 0.34417 0.03900
H 	H 	0.29560 0.85150 0.57637 0.02900
H 	H 	0.23500 0.64930 0.62987 0.03600
H 	H 	0.32620 0.70730 0.68847 0.06800
H 	H 	0.38850 0.83770 0.69547 0.02900
H 	H 	0.97500 0.78400 0.57667 0.02300
H 	H 	0.06100 0.89080 0.45717 0.02500
H 	H 	0.99770 0.95340 0.46667 0.07200
H 	H 	0.91780 0.93040 0.53057 0.02100
H 	H 	0.68880 0.56140 0.06333 0.02000
H 	H 	0.62690 0.47010 0.93373 0.00100
H 	H 	0.69040 0.40600 0.94573 0.10300
H 	H 	0.76350 0.42640 0.01323 -0.00200
H 	H 	0.03400 0.79980 0.09083 0.06200
H 	H 	0.10860 0.00540 0.14443 0.05700
H 	H 	0.03740 0.95520 0.21043 0.05700
H 	H 	0.96180 0.82610 0.21833 0.03800
H 	H 	0.87990 0.34380 0.24563 0.04700
H 	H 	0.74010 0.41290 0.29253 0.02900
H 	H 	0.71770 0.34130 0.36073 0.06400
H 	H 	0.76970 0.26250 0.36753 0.03300
H 	H 	0.37370 0.89910 0.06933 0.04900
H 	H 	0.30330 0.81580 0.93993 0.05600
H 	H 	0.36130 0.74370 0.94843 0.06500
H 	H 	0.44440 0.76950 0.01083 0.04000
H 	H 	0.55590 0.70440 0.24303 0.02900
H 	H 	0.41430 0.76500 0.29653 0.03600
H 	H 	0.38110 0.67380 0.35513 0.06800
H 	H 	0.44920 0.61150 0.36213 0.02900
H 	H 	0.80900 0.02500 0.24333 0.02300
H 	H 	0.82980 0.93900 0.12383 0.02800
H 	H 	0.95570 0.00230 0.13333 0.07200
H 	H 	0.01260 0.08220 0.19723 0.02200
H 	H 	0.12740 0.68880 0.23000 0.05000
H 	H 	0.15680 0.62690 0.10040 0.03500
H 	H 	0.28440 0.69040 0.11240 0.06400
H 	H 	0.33710 0.76350 0.17990 0.02900
H 	H 	0.23420 0.03400 0.25750 0.05600
H 	H 	0.10320 0.10860 0.31110 0.05300
H 	H 	0.08220 0.03740 0.37710 0.06000
H 	H 	0.13570 0.96180 0.38500 0.03600
H 	H 	0.53610 0.87990 0.41230 0.04600
H 	H 	0.32720 0.74010 0.45920 0.02900
H 	H 	0.37640 0.71770 0.52740 0.06400
H 	H 	0.50720 0.76970 0.53420 0.03300
H 	H 	0.47460 0.37370 0.23600 0.03100
H 	H 	0.48750 0.30330 0.10660 0.03400
H 	H 	0.61760 0.36130 0.11510 0.06900
H 	H 	0.67490 0.44440 0.17750 0.03900
H 	H 	0.85150 0.55590 0.40970 0.02900
H 	H 	0.64930 0.41430 0.46320 0.03600
H 	H 	0.70730 0.38110 0.52180 0.06800
H 	H 	0.83770 0.44920 0.52880 0.02900
H 	H 	0.78400 0.80900 0.41000 0.02400
H 	H 	0.89080 0.82980 0.29050 0.02500
H 	H 	0.95340 0.95570 0.30000 0.07100
H 	H 	0.93040 0.01260 0.36390 0.02200
H 	H 	0.56140 0.87260 0.89667 0.04600
H 	H 	0.47010 0.84320 0.76707 0.03100
H 	H 	0.40600 0.71560 0.77907 0.06400
H 	H 	0.42640 0.66290 0.84657 0.02800
H 	H 	0.79980 0.76580 0.92417 0.05900
H 	H 	0.00540 0.89680 0.97777 0.06600
H 	H 	0.95520 0.91780 0.04377 0.04300
H 	H 	0.82610 0.86430 0.05167 0.03700
H 	H 	0.34380 0.46390 0.07897 0.05300
H 	H 	0.41290 0.67280 0.12587 0.03100
H 	H 	0.34130 0.62360 0.19407 0.06200
H 	H 	0.26250 0.49280 0.20087 0.03400
H 	H 	0.89910 0.52540 0.90267 0.02500
H 	H 	0.81580 0.51250 0.77327 0.03000
H 	H 	0.74370 0.38240 0.78177 0.06900
H 	H 	0.76950 0.32510 0.84417 0.03700
H 	H 	0.70440 0.14850 0.07637 0.03500
H 	H 	0.76500 0.35070 0.12987 0.03800
H 	H 	0.67380 0.29270 0.18847 0.06600
H 	H 	0.61150 0.16230 0.19547 0.03000
H 	H 	0.02500 0.21600 0.07667 0.01700
H 	H 	0.93900 0.10920 0.95717 0.02200
H 	H 	0.00230 0.04660 0.96667 0.09000
H 	H 	0.08220 0.06960 0.03057 0.00600
H 	H 	0.31120 0.43860 0.56333 0.05000
H 	H 	0.37310 0.52990 0.43373 0.03200
H 	H 	0.30960 0.59400 0.44573 0.06300
H 	H 	0.23650 0.57360 0.51323 0.02900
H 	H 	0.96600 0.20020 0.59083 0.05600
H 	H 	0.89140 0.99460 0.64443 0.05300
H 	H 	0.96260 0.04480 0.71043 0.06000
H 	H 	0.03820 0.17390 0.71833 0.03600
H 	H 	0.12010 0.65620 0.74563 0.04600
H 	H 	0.25990 0.58710 0.79253 0.02900
H 	H 	0.28230 0.65870 0.86073 0.06300
H 	H 	0.23030 0.73750 0.86753 0.03000
H 	H 	0.62630 0.10090 0.56933 0.03100
H 	H 	0.69670 0.18420 0.43993 0.03100
H 	H 	0.63870 0.25630 0.44843 0.06800
H 	H 	0.55560 0.23050 0.51083 0.03900
H 	H 	0.44410 0.29560 0.74303 0.02900
H 	H 	0.58570 0.23500 0.79653 0.03600
H 	H 	0.61890 0.32620 0.85513 0.06600
H 	H 	0.55080 0.38850 0.86213 0.02800
H 	H 	0.19100 0.97500 0.74333 0.02300
H 	H 	0.17020 0.06100 0.62383 0.02500
H 	H 	0.04430 0.99770 0.63333 0.07100
H 	H 	0.98740 0.91780 0.69723 0.02300
C 	C 	0.84100 0.31020 0.70630 0.02900
C 	C 	0.87280 0.35100 0.66430 -0.09600
C 	C 	0.82380 0.34800 0.62880 0.02100
C 	C 	0.74670 0.30810 0.63560 -0.08400
C 	C 	0.71460 0.26580 0.67640 0.00500
C 	C 	0.76530 0.26940 0.71300 -0.09100
C 	C 	0.95490 0.39470 0.65830 0.32800
C 	C 	0.73430 0.22000 0.75620 0.29700
C 	C 	0.79540 0.96510 0.78200 0.01600
C 	C 	0.82870 0.92150 0.77810 -0.06800
C 	C 	0.87460 0.92100 0.81400 0.00400
C 	C 	0.88710 0.96340 0.85330 -0.07400
C 	C 	0.85430 0.00830 0.85830 0.01100
C 	C 	0.80620 0.00830 0.82290 -0.08600
C 	C 	0.80930 0.86870 0.73590 0.29500
C 	C 	0.76560 0.05200 0.82860 0.33900
C 	C 	0.49550 0.15050 0.93610 0.02400
C 	C 	0.57290 0.18380 0.93170 -0.08100
C 	C 	0.62130 0.23550 0.96410 -0.05800
C 	C 	0.59180 0.25040 0.00410 -0.02100
C 	C 	0.51320 0.21700 0.00930 0.04000
C 	C 	0.46720 0.16380 0.97620 -0.12000
C 	C 	0.60220 0.16030 0.89110 0.29000
C 	C 	0.38090 0.11990 0.98580 0.30800
C 	C 	0.49650 0.62630 0.71070 0.04600
C 	C 	0.53280 0.67000 0.67120 -0.09900
C 	C 	0.48960 0.67080 0.63420 0.02900
C 	C 	0.41120 0.63270 0.63810 -0.09700
C 	C 	0.37700 0.58570 0.67670 0.03400
C 	C 	0.41960 0.58330 0.71380 -0.11400
C 	C 	0.61590 0.71090 0.66650 0.31500
C 	C 	0.38490 0.53080 0.75420 0.33400
C 	C 	0.17770 0.47700 0.93350 0.03500
C 	C 	0.25660 0.51290 0.93010 -0.08600
C 	C 	0.29870 0.56320 0.96410 -0.03400
C 	C 	0.26410 0.58120 0.00030 -0.03900
C 	C 	0.18560 0.54140 0.00370 0.05800
C 	C 	0.14330 0.48940 0.97060 -0.13000
C 	C 	0.28950 0.49110 0.89110 0.29700
C 	C 	0.05890 0.44130 0.97710 0.27700
C 	C 	0.18290 0.16240 0.89090 0.05900
C 	C 	0.17160 0.19640 0.84960 -0.11300
C 	C 	0.11910 0.14960 0.81680 0.04400
C 	C 	0.08170 0.07390 0.82260 -0.11400
C 	C 	0.09400 0.03920 0.86100 0.04100
C 	C 	0.14610 0.08760 0.89580 -0.14800
C 	C 	0.22080 0.27950 0.84420 0.31600
C 	C 	0.16870 0.05440 0.93640 0.40200
C 	C 	0.46920 0.15900 0.37297 0.02800
C 	C 	0.47820 0.12720 0.33097 -0.09600
C 	C 	0.52420 0.17620 0.29547 0.02100
C 	C 	0.56140 0.25330 0.30227 -0.08400
C 	C 	0.55120 0.28540 0.34307 0.00500
C 	C 	0.50410 0.23470 0.37967 -0.09100
C 	C 	0.43980 0.04510 0.32497 0.32800
C 	C 	0.48570 0.26570 0.42287 0.29600
C 	C 	0.16970 0.20460 0.44867 0.01500
C 	C 	0.09280 0.17130 0.44477 -0.06800
C 	C 	0.04640 0.12540 0.48067 0.00200
C 	C 	0.07630 0.11290 0.51997 -0.07300
C 	C 	0.15400 0.14570 0.52497 0.01100
C 	C 	0.20210 0.19380 0.48957 -0.08400
C 	C 	0.05940 0.19070 0.40257 0.29400
C 	C 	0.28640 0.23440 0.49527 0.33800
C 	C 	0.65500 0.50450 0.60277 0.03300
C 	C 	0.61090 0.42710 0.59837 -0.10000
C 	C 	0.61420 0.37870 0.63077 0.01400
C 	C 	0.65860 0.40820 0.67077 -0.08600
C 	C 	0.70380 0.48680 0.67597 0.01700
C 	C 	0.69660 0.53280 0.64287 -0.09600
C 	C 	0.55810 0.39780 0.55777 0.30000
C 	C 	0.73900 0.61910 0.65247 0.35400
C 	C 	0.12980 0.50350 0.37737 0.04600
C 	C 	0.13720 0.46720 0.33787 -0.09900
C 	C 	0.18120 0.51040 0.30087 0.02900
C 	C 	0.22150 0.58880 0.30477 -0.09700
C 	C 	0.20870 0.62300 0.34337 0.03400
C 	C 	0.16370 0.58040 0.38047 -0.11400
C 	C 	0.09500 0.38410 0.33317 0.31500
C 	C 	0.14590 0.61510 0.42087 0.33400
C 	C 	0.29930 0.82230 0.60017 0.04200
C 	C 	0.25630 0.74340 0.59677 -0.10300
C 	C 	0.26450 0.70130 0.63077 0.03300
C 	C 	0.31710 0.73590 0.66697 -0.09800
C 	C 	0.35580 0.81440 0.67037 0.03000
C 	C 	0.34610 0.85670 0.63727 -0.10300
C 	C 	0.20160 0.71050 0.55777 0.30500
C 	C 	0.38240 0.94110 0.64377 0.31900
C 	C 	0.97950 0.81710 0.55757 0.05400
C 	C 	0.02480 0.82840 0.51627 -0.10800
C 	C 	0.03050 0.88090 0.48347 0.04000
C 	C 	0.99220 0.91830 0.48927 -0.10900
C 	C 	0.94520 0.90600 0.52767 0.03800
C 	C 	0.94150 0.85390 0.56247 -0.14000
C 	C 	0.05870 0.77920 0.51087 0.31400
C 	C 	0.88570 0.83130 0.60307 0.39800
C 	C 	0.68980 0.53080 0.03963 0.13400
C 	C 	0.64900 0.52180 0.99763 -0.18400
C 	C 	0.65200 0.47580 0.96213 0.10500
C 	C 	0.69190 0.43860 0.96893 -0.21700
C 	C 	0.73420 0.44880 0.00973 0.12800
C 	C 	0.73060 0.49590 0.04633 -0.15600
C 	C 	0.60530 0.56020 0.99163 0.31200
C 	C 	0.78000 0.51430 0.08953 0.32100
C 	C 	0.03490 0.83030 0.11533 0.00900
C 	C 	0.07850 0.90720 0.11143 -0.06000
C 	C 	0.07900 0.95360 0.14733 -0.00600
C 	C 	0.03660 0.92370 0.18663 -0.06800
C 	C 	0.99170 0.84600 0.19163 0.00700
C 	C 	0.99170 0.79790 0.15623 -0.08000
C 	C 	0.13130 0.94060 0.06923 0.28900
C 	C 	0.94800 0.71360 0.16193 0.33700
C 	C 	0.84950 0.34500 0.26943 0.03300
C 	C 	0.81620 0.38910 0.26503 -0.10000
C 	C 	0.76450 0.38580 0.29743 0.01400
C 	C 	0.74960 0.34140 0.33743 -0.08600
C 	C 	0.78300 0.29620 0.34263 0.01600
C 	C 	0.83620 0.30340 0.30953 -0.09600
C 	C 	0.83970 0.44190 0.22443 0.29900
C 	C 	0.88010 0.26100 0.31913 0.35400
C 	C 	0.37370 0.87020 0.04403 -0.00000
C 	C 	0.33000 0.86280 0.00453 0.01500
C 	C 	0.32920 0.81880 0.96753 -0.05600
C 	C 	0.36730 0.77850 0.97143 -0.11100
C 	C 	0.41430 0.79130 0.01003 0.06400
C 	C 	0.41670 0.83630 0.04713 -0.09700
C 	C 	0.28910 0.90500 0.99983 0.21200
C 	C 	0.46920 0.85410 0.08753 0.33000
C 	C 	0.52300 0.70070 0.26683 0.04200
C 	C 	0.48710 0.74370 0.26343 -0.10300
C 	C 	0.43680 0.73550 0.29743 0.03300
C 	C 	0.41880 0.68290 0.33363 -0.09800
C 	C 	0.45860 0.64420 0.33703 0.03000
C 	C 	0.51060 0.65390 0.30393 -0.10200
C 	C 	0.50890 0.79840 0.22443 0.30500
C 	C 	0.55870 0.61760 0.31043 0.31900
C 	C 	0.83760 0.02050 0.22423 0.05400
C 	C 	0.80360 0.97520 0.18293 -0.10700
C 	C 	0.85040 0.96950 0.15013 0.03900
C 	C 	0.92610 0.00780 0.15593 -0.10700
C 	C 	0.96080 0.05480 0.19433 0.03700
C 	C 	0.91240 0.05850 0.22913 -0.13900
C 	C 	0.72050 0.94130 0.17753 0.31400
C 	C 	0.94560 0.11430 0.26973 0.39800
C 	C 	0.15900 0.68980 0.20630 0.02800
C 	C 	0.12720 0.64900 0.16430 -0.09500
C 	C 	0.17620 0.65200 0.12880 0.02000
C 	C 	0.25330 0.69190 0.13560 -0.08300
C 	C 	0.28540 0.73420 0.17640 0.00400
C 	C 	0.23470 0.73060 0.21300 -0.09100
C 	C 	0.04510 0.60530 0.15830 0.32700
C 	C 	0.26570 0.78000 0.25620 0.29600
C 	C 	0.20460 0.03490 0.28200 0.01700
C 	C 	0.17130 0.07850 0.27810 -0.06800
C 	C 	0.12540 0.07900 0.31400 0.00300
C 	C 	0.11290 0.03660 0.35330 -0.07300
C 	C 	0.14570 0.99170 0.35830 0.01000
C 	C 	0.19380 0.99170 0.32290 -0.08600
C 	C 	0.19070 0.13130 0.23590 0.29500
C 	C 	0.23440 0.94800 0.32860 0.33800
C 	C 	0.50450 0.84950 0.43610 0.03300
C 	C 	0.42710 0.81620 0.43170 -0.10000
C 	C 	0.37870 0.76450 0.46410 0.01400
C 	C 	0.40820 0.74960 0.50410 -0.08600
C 	C 	0.48680 0.78300 0.50930 0.01700
C 	C 	0.53280 0.83620 0.47620 -0.09600
C 	C 	0.39780 0.83970 0.39110 0.30000
C 	C 	0.61910 0.88010 0.48580 0.35400
C 	C 	0.50350 0.37370 0.21070 0.04600
C 	C 	0.46720 0.33000 0.17120 -0.09800
C 	C 	0.51040 0.32920 0.13420 0.02900
C 	C 	0.58880 0.36730 0.13810 -0.09500
C 	C 	0.62300 0.41430 0.17670 0.03400
C 	C 	0.58040 0.41670 0.21380 -0.11300
C 	C 	0.38410 0.28910 0.16650 0.31500
C 	C 	0.61510 0.46920 0.25420 0.33300
C 	C 	0.82230 0.52300 0.43350 0.04200
C 	C 	0.74340 0.48710 0.43010 -0.10300
C 	C 	0.70130 0.43680 0.46410 0.03300
C 	C 	0.73590 0.41880 0.50030 -0.09800
C 	C 	0.81440 0.45860 0.50370 0.03000
C 	C 	0.85670 0.51060 0.47060 -0.10300
C 	C 	0.71050 0.50890 0.39110 0.30500
C 	C 	0.94110 0.55870 0.47710 0.31900
C 	C 	0.81710 0.83760 0.39090 0.05200
C 	C 	0.82840 0.80360 0.34960 -0.10700
C 	C 	0.88090 0.85040 0.31680 0.04000
C 	C 	0.91830 0.92610 0.32260 -0.10800
C 	C 	0.90600 0.96080 0.36100 0.03600
C 	C 	0.85390 0.91240 0.39580 -0.13900
C 	C 	0.77920 0.72050 0.34420 0.31400
C 	C 	0.83130 0.94560 0.43640 0.39700
C 	C 	0.53080 0.84100 0.87297 0.03200
C 	C 	0.52180 0.87280 0.83097 -0.09900
C 	C 	0.47580 0.82380 0.79547 0.02300
C 	C 	0.43860 0.74670 0.80227 -0.08600
C 	C 	0.44880 0.71460 0.84307 0.00700
C 	C 	0.49590 0.76530 0.87967 -0.09600
C 	C 	0.56020 0.95490 0.82497 0.32900
C 	C 	0.51430 0.73430 0.92287 0.29900
C 	C 	0.83030 0.79540 0.94867 0.00300
C 	C 	0.90720 0.82870 0.94477 -0.04800
C 	C 	0.95360 0.87460 0.98067 -0.06900
C 	C 	0.92370 0.88710 0.01997 -0.00600
C 	C 	0.84600 0.85430 0.02497 0.02700
C 	C 	0.79790 0.80620 0.98957 -0.10300
C 	C 	0.94060 0.80930 0.90257 0.28700
C 	C 	0.71360 0.76560 0.99527 0.29700
C 	C 	0.34500 0.49550 0.10277 0.02900
C 	C 	0.38910 0.57290 0.09837 -0.09400
C 	C 	0.38580 0.62130 0.13077 0.01000
C 	C 	0.34140 0.59180 0.17077 -0.08300
C 	C 	0.29620 0.51320 0.17597 0.01400
C 	C 	0.30340 0.46720 0.14287 -0.09100
C 	C 	0.44190 0.60220 0.05777 0.29600
C 	C 	0.26100 0.38090 0.15247 0.35300
C 	C 	0.87020 0.49650 0.87737 0.05100
C 	C 	0.86280 0.53280 0.83787 -0.10300
C 	C 	0.81880 0.48960 0.80087 0.03200
C 	C 	0.77850 0.41120 0.80477 -0.10000
C 	C 	0.79130 0.37700 0.84337 0.03700
C 	C 	0.83630 0.41960 0.88047 -0.12000
C 	C 	0.90500 0.61590 0.83317 0.31700
C 	C 	0.85410 0.38490 0.92087 0.33700
C 	C 	0.70070 0.17770 0.10017 0.03800
C 	C 	0.74370 0.25660 0.09677 -0.09600
C 	C 	0.73550 0.29870 0.13077 0.02900
C 	C 	0.68290 0.26410 0.16697 -0.09400
C 	C 	0.64420 0.18560 0.17037 0.02700
C 	C 	0.65390 0.14330 0.13727 -0.09700
C 	C 	0.79840 0.28950 0.05777 0.30200
C 	C 	0.61760 0.05890 0.14377 0.31700
C 	C 	0.02050 0.18290 0.05757 0.07300
C 	C 	0.97520 0.17160 0.01627 -0.09100
C 	C 	0.96950 0.11910 0.98347 0.03100
C 	C 	0.00780 0.08170 0.98927 -0.18400
C 	C 	0.05480 0.09400 0.02767 0.11500
C 	C 	0.05850 0.14610 0.06247 -0.16300
C 	C 	0.94130 0.22080 0.01087 0.35600
C 	C 	0.11430 0.16870 0.10307 0.40800
C 	C 	0.31020 0.46920 0.53963 0.02900
C 	C 	0.35100 0.47820 0.49763 -0.09600
C 	C 	0.34800 0.52420 0.46213 0.02100
C 	C 	0.30810 0.56140 0.46893 -0.08400
C 	C 	0.26580 0.55120 0.50973 0.00500
C 	C 	0.26940 0.50410 0.54633 -0.09100
C 	C 	0.39470 0.43980 0.49163 0.32800
C 	C 	0.22000 0.48570 0.58953 0.29600
C 	C 	0.96510 0.16970 0.61533 0.01600
C 	C 	0.92150 0.09280 0.61143 -0.06800
C 	C 	0.92100 0.04640 0.64733 0.00300
C 	C 	0.96340 0.07630 0.68663 -0.07300
C 	C 	0.00830 0.15400 0.69163 0.01000
C 	C 	0.00830 0.20210 0.65623 -0.08500
C 	C 	0.86870 0.05940 0.56923 0.29500
C 	C 	0.05200 0.28640 0.66193 0.33800
C 	C 	0.15050 0.65500 0.76943 0.03400
C 	C 	0.18380 0.61090 0.76503 -0.10100
C 	C 	0.23550 0.61420 0.79743 0.01500
C 	C 	0.25040 0.65860 0.83743 -0.08800
C 	C 	0.21700 0.70380 0.84263 0.01700
C 	C 	0.16380 0.69660 0.80953 -0.09800
C 	C 	0.16030 0.55810 0.72443 0.30000
C 	C 	0.11990 0.73900 0.81913 0.35500
C 	C 	0.62630 0.12980 0.54403 0.04600
C 	C 	0.67000 0.13720 0.50453 -0.09900
C 	C 	0.67080 0.18120 0.46753 0.02900
C 	C 	0.63270 0.22150 0.47143 -0.09700
C 	C 	0.58570 0.20870 0.51003 0.03400
C 	C 	0.58330 0.16370 0.54713 -0.11400
C 	C 	0.71090 0.09500 0.49983 0.31500
C 	C 	0.53080 0.14590 0.58753 0.33400
C 	C 	0.47700 0.29930 0.76683 0.04200
C 	C 	0.51290 0.25630 0.76343 -0.10300
C 	C 	0.56320 0.26450 0.79743 0.03200
C 	C 	0.58120 0.31710 0.83363 -0.09700
C 	C 	0.54140 0.35580 0.83703 0.02900
C 	C 	0.48940 0.34610 0.80393 -0.10300
C 	C 	0.49110 0.20160 0.72443 0.30500
C 	C 	0.44130 0.38240 0.81043 0.31900
C 	C 	0.16240 0.97950 0.72423 0.05200
C 	C 	0.19640 0.02480 0.68293 -0.10700
C 	C 	0.14960 0.03050 0.65013 0.04000
C 	C 	0.07390 0.99220 0.65593 -0.10800
C 	C 	0.03920 0.94520 0.69433 0.03600
C 	C 	0.08760 0.94150 0.72913 -0.13900
C 	C 	0.27950 0.05870 0.67753 0.31400
C 	C 	0.05440 0.88570 0.76973 0.39700
O 	O 	0.98260 0.42210 0.61850 -0.37000
O 	O 	0.99540 0.39740 0.69310 -0.38100
O 	O 	0.66440 0.16910 0.75610 -0.42800
O 	O 	0.77580 0.22600 0.79030 -0.33600
O 	O 	0.81940 0.81400 0.73930 -0.37700
O 	O 	0.78150 0.88280 0.70030 -0.34000
O 	O 	0.77020 0.08440 0.86780 -0.36900
O 	O 	0.73060 0.05660 0.79470 -0.39600
O 	O 	0.67160 0.17850 0.89000 -0.42800
O 	O 	0.55900 0.12220 0.85800 -0.33200
O 	O 	0.35630 0.12900 0.02380 -0.34600
O 	O 	0.34150 0.07340 0.95700 -0.40900
O 	O 	0.64700 0.74770 0.63050 -0.37700
O 	O 	0.65100 0.70160 0.70110 -0.35700
O 	O 	0.32160 0.47180 0.75010 -0.38000
O 	O 	0.41930 0.54410 0.79300 -0.42400
O 	O 	0.35230 0.49160 0.89770 -0.37400
O 	O 	0.25160 0.46580 0.85340 -0.41500
O 	O 	0.02690 0.45320 0.01110 -0.35500
O 	O 	0.02340 0.38810 0.94870 -0.36600
O 	O 	0.21000 0.30890 0.80770 -0.39100
O 	O 	0.27510 0.31530 0.87160 -0.37300
O 	O 	0.19740 0.09210 0.97110 -0.47400
O 	O 	0.15690 0.99020 0.93210 -0.46700
O 	O 	0.43950 0.01740 0.28517 -0.36900
O 	O 	0.40200 0.00460 0.35977 -0.38100
O 	O 	0.50470 0.33560 0.42277 -0.42800
O 	O 	0.45020 0.22420 0.45697 -0.33600
O 	O 	0.99460 0.18060 0.40597 -0.37600
O 	O 	0.10130 0.21850 0.36697 -0.34000
O 	O 	0.31420 0.22980 0.53447 -0.36600
O 	O 	0.32600 0.26940 0.46137 -0.39500
O 	O 	0.50690 0.32840 0.55667 -0.42700
O 	O 	0.56320 0.44100 0.52467 -0.33300
O 	O 	0.77270 0.64370 0.69047 -0.38600
O 	O 	0.73190 0.65850 0.62367 -0.41400
O 	O 	0.10070 0.35300 0.29717 -0.37700
O 	O 	0.05060 0.34900 0.36777 -0.35700
O 	O 	0.15020 0.67840 0.41677 -0.38000
O 	O 	0.12480 0.58070 0.45967 -0.42400
O 	O 	0.13930 0.64770 0.56437 -0.37100
O 	O 	0.21420 0.74840 0.52007 -0.41600
O 	O 	0.42630 0.97310 0.67777 -0.39500
O 	O 	0.36470 0.97660 0.61537 -0.36800
O 	O 	0.09890 0.79000 0.47437 -0.39000
O 	O 	0.04020 0.72490 0.53827 -0.36900
O 	O 	0.89470 0.80260 0.63777 -0.45600
O 	O 	0.83330 0.84310 0.59877 -0.46000
O 	O 	0.57790 0.56050 0.95183 -0.37300
O 	O 	0.60260 0.59800 0.02643 -0.34800
O 	O 	0.83090 0.49530 0.08943 -0.43100
O 	O 	0.77400 0.54980 0.12363 -0.34100
O 	O 	0.18600 0.00540 0.07263 -0.36600
O 	O 	0.11720 0.89870 0.03363 -0.32200
O 	O 	0.91560 0.68580 0.20113 -0.36500
O 	O 	0.94340 0.67400 0.12803 -0.39100
O 	O 	0.82150 0.49310 0.22333 -0.42700
O 	O 	0.87780 0.43680 0.19133 -0.33300
O 	O 	0.87100 0.22730 0.35713 -0.38600
O 	O 	0.92660 0.26810 0.29033 -0.41400
O 	O 	0.25230 0.89930 0.96383 -0.36000
O 	O 	0.29840 0.94940 0.03443 -0.30900
O 	O 	0.52820 0.84980 0.08343 -0.37400
O 	O 	0.45590 0.87520 0.12633 -0.42200
O 	O 	0.50840 0.86070 0.23103 -0.37100
O 	O 	0.53420 0.78580 0.18673 -0.41600
O 	O 	0.54680 0.57370 0.34443 -0.39500
O 	O 	0.61190 0.63530 0.28203 -0.36700
O 	O 	0.69110 0.90110 0.14103 -0.38800
O 	O 	0.68470 0.95980 0.20493 -0.36900
O 	O 	0.90790 0.10530 0.30443 -0.45600
O 	O 	0.00980 0.16670 0.26543 -0.46000
O 	O 	0.01740 0.57790 0.11850 -0.36700
O 	O 	0.00460 0.60260 0.19310 -0.38100
O 	O 	0.33560 0.83090 0.25610 -0.42800
O 	O 	0.22420 0.77400 0.29030 -0.33600
O 	O 	0.18060 0.18600 0.23930 -0.37700
O 	O 	0.21850 0.11720 0.20030 -0.34000
O 	O 	0.22980 0.91560 0.36780 -0.36600
O 	O 	0.26940 0.94340 0.29470 -0.39600
O 	O 	0.32840 0.82150 0.39000 -0.42700
O 	O 	0.44100 0.87780 0.35800 -0.33300
O 	O 	0.64370 0.87100 0.52380 -0.38600
O 	O 	0.65850 0.92660 0.45700 -0.41400
O 	O 	0.35300 0.25230 0.13050 -0.37400
O 	O 	0.34900 0.29840 0.20110 -0.35700
O 	O 	0.67840 0.52820 0.25010 -0.38000
O 	O 	0.58070 0.45590 0.29300 -0.42400
O 	O 	0.64770 0.50840 0.39770 -0.37100
O 	O 	0.74840 0.53420 0.35340 -0.41600
O 	O 	0.97310 0.54680 0.51110 -0.39500
O 	O 	0.97660 0.61190 0.44870 -0.36800
O 	O 	0.79000 0.69110 0.30770 -0.39000
O 	O 	0.72490 0.68470 0.37160 -0.36800
O 	O 	0.80260 0.90790 0.47110 -0.45500
O 	O 	0.84310 0.00980 0.43210 -0.45900
O 	O 	0.56050 0.98260 0.78517 -0.37000
O 	O 	0.59800 0.99540 0.85977 -0.38400
O 	O 	0.49530 0.66440 0.92277 -0.43500
O 	O 	0.54980 0.77580 0.95697 -0.35100
O 	O 	0.00540 0.81940 0.90597 -0.38000
O 	O 	0.89870 0.78150 0.86697 -0.34000
O 	O 	0.68580 0.77020 0.03447 -0.33000
O 	O 	0.67400 0.73060 0.96137 -0.39100
O 	O 	0.49310 0.67160 0.05667 -0.41700
O 	O 	0.43680 0.55900 0.02467 -0.31500
O 	O 	0.22730 0.35630 0.19047 -0.38600
O 	O 	0.26810 0.34150 0.12367 -0.41000
O 	O 	0.89930 0.64700 0.79717 -0.37700
O 	O 	0.94940 0.65100 0.86777 -0.36000
O 	O 	0.84980 0.32160 0.91677 -0.38600
O 	O 	0.87520 0.41930 0.95967 -0.44000
O 	O 	0.86070 0.35230 0.06437 -0.36200
O 	O 	0.78580 0.25160 0.02007 -0.39500
O 	O 	0.57370 0.02690 0.17777 -0.39400
O 	O 	0.63530 0.02340 0.11537 -0.36300
O 	O 	0.90110 0.21000 0.97437 -0.42600
O 	O 	0.95980 0.27510 0.03827 -0.36800
O 	O 	0.10530 0.19740 0.13777 -0.45700
O 	O 	0.16670 0.15690 0.09877 -0.45900
O 	O 	0.42210 0.43950 0.45183 -0.37000
O 	O 	0.39740 0.40200 0.52643 -0.38100
O 	O 	0.16910 0.50470 0.58943 -0.42800
O 	O 	0.22600 0.45020 0.62363 -0.33600
O 	O 	0.81400 0.99460 0.57263 -0.37700
O 	O 	0.88280 0.10130 0.53363 -0.34000
O 	O 	0.08440 0.31420 0.70113 -0.36600
O 	O 	0.05660 0.32600 0.62803 -0.39600
O 	O 	0.17850 0.50690 0.72333 -0.42700
O 	O 	0.12220 0.56320 0.69133 -0.33300
O 	O 	0.12900 0.77270 0.85713 -0.39000
O 	O 	0.07340 0.73190 0.79033 -0.41500
O 	O 	0.74770 0.10070 0.46383 -0.37700
O 	O 	0.70160 0.05060 0.53443 -0.35700
O 	O 	0.47180 0.15020 0.58343 -0.38000
O 	O 	0.54410 0.12480 0.62633 -0.42400
O 	O 	0.49160 0.13930 0.73103 -0.37100
O 	O 	0.46580 0.21420 0.68673 -0.41600
O 	O 	0.45320 0.42630 0.84443 -0.39700
O 	O 	0.38810 0.36470 0.78203 -0.36800
O 	O 	0.30890 0.09890 0.64103 -0.39000
O 	O 	0.31530 0.04020 0.70493 -0.36900
O 	O 	0.09210 0.89470 0.80443 -0.45600
O 	O 	0.99020 0.83330 0.76543 -0.45900
