data_crystal

_cell_length_a 71.00800
_cell_length_b 13.74440
_cell_length_c 14.32210
_cell_angle_alpha 90.00000
_cell_angle_beta  90.00000
_cell_angle_gamma 90.00000

_symmetry_space_group_name_	'P 1'
_symmetry_space_group_name_H-M	'P 1'

loop_
_symmetry_equiv_pos_as_xyz
  x,y,z

loop_
_atom_site_label
_atom_site_type_symbol
_atom_site_fract_x
_atom_site_fract_y
_atom_site_fract_z
_atom_site_charge
Al	Al	0.29291 0.48140 0.33770 2.39500
Al	Al	0.11218 0.73470 0.86960 2.39500
Co	Co	0.07444 0.50479 0.14527 1.20000
Co	Co	0.02880 0.26675 0.88311 1.21500
Al	Al	0.22120 0.51675 0.13311 2.38300
Co	Co	0.14860 0.48384 0.32219 1.19200
Al	Al	0.18107 0.75596 0.10110 2.39000
Co	Co	0.06893 0.00596 0.35110 1.22900
P 	P 	0.07683 0.67200 0.99210 0.57800
P 	P 	0.03751 0.59468 0.23380 0.62300
P 	P 	0.18479 0.58520 0.24610 0.69700
P 	P 	0.14603 0.81900 0.97710 0.67900
P 	P 	0.21569 0.68348 0.98210 0.67500
P 	P 	0.11186 0.40510 0.22040 0.65300
P 	P 	0.25748 0.41820 0.21440 0.74200
O 	O 	0.09663 0.48420 0.22030 -0.42100
O 	O 	0.16139 0.76390 0.02940 -0.71900
O 	O 	0.13040 0.45250 0.22970 -0.45000
O 	O 	0.27602 0.45700 0.25640 -0.79000
O 	O 	0.09256 0.72430 0.94460 -0.74700
O 	O 	0.05598 0.53490 0.23880 -0.42300
O 	O 	0.02049 0.52950 0.22810 -0.41400
O 	O 	0.20471 0.54340 0.22870 -0.71800
O 	O 	0.17179 0.49830 0.25470 -0.44700
O 	O 	0.24424 0.49830 0.19360 -0.71600
O 	O 	0.20225 0.75300 0.02530 -0.63800
O 	O 	0.11206 0.34780 0.13020 -0.46300
O 	O 	0.22885 0.74590 0.92500 -0.78000
O 	O 	0.08398 0.60970 0.07190 -0.42200
O 	O 	0.17891 0.64940 0.16910 -0.82600
O 	O 	0.06503 0.61210 0.92570 -0.52700
O 	O 	0.31431 0.49270 0.28160 -0.73300
O 	O 	0.13266 0.74540 0.93200 -0.79400
O 	O 	0.06396 0.39710 0.08540 -0.40800
O 	O 	0.22481 0.62160 0.05430 -0.75000
O 	O 	0.11401 0.63330 0.79740 -0.81500
O 	O 	0.29647 0.38310 0.41700 -0.79300
O 	O 	0.24710 0.35850 0.29200 -0.79300
O 	O 	0.01171 0.39290 0.38050 -0.48800
O 	O 	0.03715 0.66240 0.14620 -0.76300
O 	O 	0.10794 0.34220 0.30510 -0.77000
O 	O 	0.15576 0.37890 0.40620 -0.52300
O 	O 	0.03622 0.65580 0.32160 -0.49900
Al	Al	0.29291 0.98140 0.83770 2.39700
Al	Al	0.11218 0.23470 0.36960 2.39500
Co	Co	0.07444 0.00479 0.64527 1.16800
Co	Co	0.02880 0.76675 0.38311 1.22400
Al	Al	0.22120 0.01675 0.63311 2.37900
Co	Co	0.14860 0.98384 0.82219 1.20200
Al	Al	0.18107 0.25596 0.60110 2.38900
Co	Co	0.06893 0.50596 0.85110 1.24000
P 	P 	0.07683 0.17200 0.49210 0.69100
P 	P 	0.03751 0.09468 0.73380 0.62100
P 	P 	0.18479 0.08520 0.74610 0.65500
P 	P 	0.14603 0.31900 0.47710 0.79300
P 	P 	0.21569 0.18348 0.48210 0.79800
P 	P 	0.11186 0.90510 0.72040 0.65200
P 	P 	0.25748 0.91820 0.71440 0.74100
O 	O 	0.09663 0.98420 0.72030 -0.39500
O 	O 	0.16139 0.26390 0.52940 -0.79600
O 	O 	0.13040 0.95250 0.72970 -0.44500
O 	O 	0.27602 0.95700 0.75640 -0.78100
O 	O 	0.09256 0.22430 0.44460 -0.74200
O 	O 	0.05598 0.03490 0.73880 -0.45900
O 	O 	0.02049 0.02950 0.72810 -0.45100
O 	O 	0.20471 0.04340 0.72870 -0.75200
O 	O 	0.17179 0.99830 0.75470 -0.41400
O 	O 	0.24424 0.99830 0.69360 -0.69700
O 	O 	0.20225 0.25300 0.52530 -0.72100
O 	O 	0.11206 0.84780 0.63020 -0.47600
O 	O 	0.22885 0.24590 0.42500 -0.78000
O 	O 	0.08398 0.10970 0.57190 -0.50700
O 	O 	0.17891 0.14940 0.66910 -0.84200
O 	O 	0.06503 0.11210 0.42570 -0.52700
O 	O 	0.31431 0.99270 0.78160 -0.69900
O 	O 	0.13266 0.24540 0.43200 -0.79100
O 	O 	0.06396 0.89710 0.58540 -0.44200
O 	O 	0.22481 0.12160 0.55430 -0.84200
O 	O 	0.11401 0.13330 0.29740 -0.81200
O 	O 	0.29647 0.88310 0.91700 -0.79200
O 	O 	0.24710 0.85850 0.79200 -0.79400
O 	O 	0.01171 0.89290 0.88050 -0.46500
O 	O 	0.03715 0.16240 0.64620 -0.78300
O 	O 	0.10794 0.84220 0.80510 -0.77300
O 	O 	0.15576 0.87890 0.90620 -0.52000
O 	O 	0.03622 0.15580 0.82160 -0.51700
Al	Al	0.79291 0.48140 0.83770 2.39500
Al	Al	0.61218 0.73470 0.36960 2.39600
Co	Co	0.57444 0.50479 0.64527 1.19600
Co	Co	0.52880 0.26675 0.38311 1.22100
Al	Al	0.72120 0.51675 0.63311 2.38300
Co	Co	0.64860 0.48384 0.82219 1.18500
Al	Al	0.68107 0.75596 0.60110 2.39000
Co	Co	0.56893 0.00596 0.85110 1.22300
P 	P 	0.57683 0.67200 0.49210 0.69100
P 	P 	0.53751 0.59468 0.73380 0.62100
P 	P 	0.68479 0.58520 0.74610 0.69600
P 	P 	0.64603 0.81900 0.47710 0.79400
P 	P 	0.71569 0.68348 0.48210 0.79700
P 	P 	0.61186 0.40510 0.72040 0.65300
P 	P 	0.75748 0.41820 0.71440 0.74200
O 	O 	0.59663 0.48420 0.72030 -0.43200
O 	O 	0.66139 0.76390 0.52940 -0.78800
O 	O 	0.63040 0.45250 0.72970 -0.46300
O 	O 	0.77602 0.45700 0.75640 -0.80000
O 	O 	0.59256 0.72430 0.44460 -0.73400
O 	O 	0.55598 0.53490 0.73880 -0.43600
O 	O 	0.52049 0.52950 0.72810 -0.42800
O 	O 	0.70471 0.54340 0.72870 -0.72800
O 	O 	0.67179 0.49830 0.75470 -0.46100
O 	O 	0.74424 0.49830 0.69360 -0.72600
O 	O 	0.70225 0.75300 0.52530 -0.71100
O 	O 	0.61206 0.34780 0.63020 -0.48500
O 	O 	0.72885 0.74590 0.42500 -0.77200
O 	O 	0.58398 0.60970 0.57190 -0.48900
O 	O 	0.67891 0.64940 0.66910 -0.83600
O 	O 	0.56503 0.61210 0.42570 -0.51600
O 	O 	0.81431 0.49270 0.78160 -0.74500
O 	O 	0.63266 0.74540 0.43200 -0.78300
O 	O 	0.56396 0.39710 0.58540 -0.47300
O 	O 	0.72481 0.62160 0.55430 -0.82200
O 	O 	0.61401 0.63330 0.29740 -0.80600
O 	O 	0.79647 0.38310 0.91700 -0.80600
O 	O 	0.74710 0.35850 0.79200 -0.80300
O 	O 	0.51171 0.39290 0.88050 -0.49400
O 	O 	0.53715 0.66240 0.64620 -0.77600
O 	O 	0.60794 0.34220 0.80510 -0.78100
O 	O 	0.65576 0.37890 0.90620 -0.53100
O 	O 	0.53622 0.65580 0.82160 -0.51000
Al	Al	0.79291 0.98140 0.33770 2.39800
Al	Al	0.61218 0.23470 0.86960 2.39500
Co	Co	0.57444 0.00479 0.14527 1.17200
Co	Co	0.52880 0.76675 0.88311 1.21800
Al	Al	0.72120 0.01675 0.13311 2.38000
Co	Co	0.64860 0.98384 0.32219 1.20900
Al	Al	0.68107 0.25596 0.10110 2.38900
Co	Co	0.56893 0.50596 0.35110 1.24600
P 	P 	0.57683 0.17200 0.99210 0.57900
P 	P 	0.53751 0.09468 0.23380 0.62300
P 	P 	0.68479 0.08520 0.24610 0.65600
P 	P 	0.64603 0.31900 0.97710 0.67800
P 	P 	0.71569 0.18348 0.98210 0.67700
P 	P 	0.61186 0.90510 0.22040 0.65100
P 	P 	0.75748 0.91820 0.21440 0.74100
O 	O 	0.59663 0.98420 0.22030 -0.38500
O 	O 	0.66139 0.26390 0.02940 -0.72700
O 	O 	0.63040 0.95250 0.22970 -0.43300
O 	O 	0.77602 0.95700 0.25640 -0.77200
O 	O 	0.59256 0.22430 0.94460 -0.75500
O 	O 	0.55598 0.03490 0.23880 -0.44700
O 	O 	0.52049 0.02950 0.22810 -0.43800
O 	O 	0.70471 0.04340 0.22870 -0.74200
O 	O 	0.67179 0.99830 0.25470 -0.40100
O 	O 	0.74424 0.99830 0.19360 -0.68700
O 	O 	0.70225 0.25300 0.02530 -0.64700
O 	O 	0.61206 0.84780 0.13020 -0.45400
O 	O 	0.72885 0.24590 0.92500 -0.78900
O 	O 	0.58398 0.10970 0.07190 -0.44000
O 	O 	0.67891 0.14940 0.16910 -0.83200
O 	O 	0.56503 0.11210 0.92570 -0.53700
O 	O 	0.81431 0.99270 0.28160 -0.68700
O 	O 	0.63266 0.24540 0.93200 -0.80200
O 	O 	0.56396 0.89710 0.08540 -0.37700
O 	O 	0.72481 0.12160 0.05430 -0.77100
O 	O 	0.61401 0.13330 0.79740 -0.82100
O 	O 	0.79647 0.88310 0.41700 -0.77900
O 	O 	0.74710 0.85850 0.29200 -0.78400
O 	O 	0.51171 0.89290 0.38050 -0.45800
O 	O 	0.53715 0.16240 0.14620 -0.77000
O 	O 	0.60794 0.84220 0.30510 -0.76300
O 	O 	0.65576 0.87890 0.40620 -0.51100
O 	O 	0.53622 0.15580 0.32160 -0.50600
Al	Al	0.70709 0.51860 0.33770 2.39600
Al	Al	0.88782 0.26530 0.86960 2.39500
Co	Co	0.92556 0.49521 0.14527 1.20000
Co	Co	0.97120 0.73325 0.88311 1.21700
Al	Al	0.77880 0.48325 0.13311 2.38300
Co	Co	0.85140 0.51616 0.32219 1.19200
Al	Al	0.81893 0.24404 0.10110 2.38900
Co	Co	0.93107 0.99404 0.35110 1.26200
P 	P 	0.92317 0.32800 0.99210 0.57900
P 	P 	0.96249 0.40532 0.23380 0.62200
P 	P 	0.81521 0.41480 0.24610 0.69700
P 	P 	0.85397 0.18100 0.97710 0.67900
P 	P 	0.78431 0.31652 0.98210 0.67600
P 	P 	0.88814 0.59490 0.22040 0.65300
P 	P 	0.74252 0.58180 0.21440 0.74200
O 	O 	0.90337 0.51580 0.22030 -0.42200
O 	O 	0.83861 0.23610 0.02940 -0.72300
O 	O 	0.86960 0.54750 0.22970 -0.45000
O 	O 	0.72398 0.54300 0.25640 -0.79000
O 	O 	0.90744 0.27570 0.94460 -0.75500
O 	O 	0.94402 0.46510 0.23880 -0.42400
O 	O 	0.97951 0.47050 0.22810 -0.41400
O 	O 	0.79529 0.45660 0.22870 -0.71900
O 	O 	0.82821 0.50170 0.25470 -0.44600
O 	O 	0.75576 0.50170 0.19360 -0.71800
O 	O 	0.79775 0.24700 0.02530 -0.65100
O 	O 	0.88794 0.65220 0.13020 -0.46200
O 	O 	0.77115 0.25410 0.92500 -0.79200
O 	O 	0.91602 0.39030 0.07190 -0.42400
O 	O 	0.82109 0.35060 0.16910 -0.82700
O 	O 	0.93497 0.38790 0.92570 -0.52900
O 	O 	0.68569 0.50730 0.28160 -0.73200
O 	O 	0.86734 0.25460 0.93200 -0.79700
O 	O 	0.93604 0.60290 0.08540 -0.40600
O 	O 	0.77519 0.37840 0.05430 -0.75400
O 	O 	0.88599 0.36670 0.79740 -0.81600
O 	O 	0.70353 0.61690 0.41700 -0.79200
O 	O 	0.75290 0.64150 0.29200 -0.79200
O 	O 	0.98829 0.60710 0.38050 -0.48600
O 	O 	0.96285 0.33760 0.14620 -0.76400
O 	O 	0.89206 0.65780 0.30510 -0.76900
O 	O 	0.84424 0.62110 0.40620 -0.52000
O 	O 	0.96378 0.34420 0.32160 -0.50000
Al	Al	0.70709 0.01860 0.83770 2.39300
Al	Al	0.88782 0.76530 0.36960 2.39600
Co	Co	0.92556 0.99521 0.64527 1.22200
Co	Co	0.97120 0.23325 0.38311 1.22000
Al	Al	0.77880 0.98325 0.63311 2.38700
Co	Co	0.85140 0.01616 0.82219 1.17100
Al	Al	0.81893 0.74404 0.60110 2.39000
Co	Co	0.93107 0.49404 0.85110 1.24000
P 	P 	0.92317 0.82800 0.49210 0.69200
P 	P 	0.96249 0.90532 0.73380 0.62000
P 	P 	0.81521 0.91480 0.74610 0.73400
P 	P 	0.85397 0.68100 0.47710 0.79400
P 	P 	0.78431 0.81652 0.48210 0.79700
P 	P 	0.88814 0.09490 0.72040 0.65500
P 	P 	0.74252 0.08180 0.71440 0.74400
O 	O 	0.90337 0.01580 0.72030 -0.46600
O 	O 	0.83861 0.73610 0.52940 -0.78400
O 	O 	0.86960 0.04750 0.72970 -0.47700
O 	O 	0.72398 0.04300 0.75640 -0.81800
O 	O 	0.90744 0.77570 0.44460 -0.73600
O 	O 	0.94402 0.96510 0.73880 -0.41200
O 	O 	0.97951 0.97050 0.72810 -0.39300
O 	O 	0.79529 0.95660 0.72870 -0.70500
O 	O 	0.82821 0.00170 0.75470 -0.50200
O 	O 	0.75576 0.00170 0.69360 -0.75500
O 	O 	0.79775 0.74700 0.52530 -0.71600
O 	O 	0.88794 0.15220 0.63020 -0.49200
O 	O 	0.77115 0.75410 0.42500 -0.77500
O 	O 	0.91602 0.89030 0.57190 -0.47400
O 	O 	0.82109 0.85060 0.66910 -0.83100
O 	O 	0.93497 0.88790 0.42570 -0.50700
O 	O 	0.68569 0.00730 0.78160 -0.79000
O 	O 	0.86734 0.75460 0.43200 -0.77700
O 	O 	0.93604 0.10290 0.58540 -0.50000
O 	O 	0.77519 0.87840 0.55430 -0.80500
O 	O 	0.88599 0.86670 0.29740 -0.80100
O 	O 	0.70353 0.11690 0.91700 -0.81800
O 	O 	0.75290 0.14150 0.79200 -0.81000
O 	O 	0.98829 0.10710 0.88050 -0.51000
O 	O 	0.96285 0.83760 0.64620 -0.77000
O 	O 	0.89206 0.15780 0.80510 -0.78700
O 	O 	0.84424 0.12110 0.90620 -0.53900
O 	O 	0.96378 0.84420 0.82160 -0.50200
Al	Al	0.20709 0.51860 0.83770 2.39500
Al	Al	0.38782 0.26530 0.36960 2.39600
Co	Co	0.42556 0.49521 0.64527 1.19600
Co	Co	0.47120 0.73325 0.38311 1.22300
Al	Al	0.27880 0.48325 0.63311 2.38300
Co	Co	0.35140 0.51616 0.82219 1.18600
Al	Al	0.31893 0.24404 0.60110 2.38900
Co	Co	0.43107 0.99404 0.85110 1.25600
P 	P 	0.42317 0.32800 0.49210 0.69100
P 	P 	0.46249 0.40532 0.73380 0.62100
P 	P 	0.31521 0.41480 0.74610 0.69500
P 	P 	0.35397 0.18100 0.47710 0.79300
P 	P 	0.28431 0.31652 0.48210 0.79700
P 	P 	0.38814 0.59490 0.72040 0.65400
P 	P 	0.24252 0.58180 0.71440 0.74300
O 	O 	0.40337 0.51580 0.72030 -0.43300
O 	O 	0.33861 0.23610 0.52940 -0.79200
O 	O 	0.36960 0.54750 0.72970 -0.46200
O 	O 	0.22398 0.54300 0.75640 -0.80100
O 	O 	0.40744 0.27570 0.44460 -0.74300
O 	O 	0.44402 0.46510 0.73880 -0.43600
O 	O 	0.47951 0.47050 0.72810 -0.42800
O 	O 	0.29529 0.45660 0.72870 -0.72900
O 	O 	0.32821 0.50170 0.75470 -0.46000
O 	O 	0.25576 0.50170 0.69360 -0.72800
O 	O 	0.29775 0.24700 0.52530 -0.72500
O 	O 	0.38794 0.65220 0.63020 -0.48400
O 	O 	0.27115 0.25410 0.42500 -0.78300
O 	O 	0.41602 0.39030 0.57190 -0.49100
O 	O 	0.32109 0.35060 0.66910 -0.83700
O 	O 	0.43497 0.38790 0.42570 -0.51800
O 	O 	0.18569 0.50730 0.78160 -0.74400
O 	O 	0.36734 0.25460 0.43200 -0.78500
O 	O 	0.43604 0.60290 0.58540 -0.47100
O 	O 	0.27519 0.37840 0.55430 -0.82500
O 	O 	0.38599 0.36670 0.29740 -0.80700
O 	O 	0.20353 0.61690 0.91700 -0.80400
O 	O 	0.25290 0.64150 0.79200 -0.80200
O 	O 	0.48829 0.60710 0.88050 -0.49200
O 	O 	0.46285 0.33760 0.64620 -0.77700
O 	O 	0.39206 0.65780 0.80510 -0.78000
O 	O 	0.34424 0.62110 0.90620 -0.52900
O 	O 	0.46378 0.34420 0.82160 -0.51100
Al	Al	0.20709 0.01860 0.33770 2.39400
Al	Al	0.38782 0.76530 0.86960 2.39500
Co	Co	0.42556 0.99521 0.14527 1.22600
Co	Co	0.47120 0.23325 0.88311 1.21400
Al	Al	0.27880 0.98325 0.13311 2.38700
Co	Co	0.35140 0.01616 0.32219 1.17700
Al	Al	0.31893 0.74404 0.10110 2.39000
Co	Co	0.43107 0.49404 0.35110 1.24600
P 	P 	0.42317 0.82800 0.99210 0.57900
P 	P 	0.46249 0.90532 0.23380 0.62200
P 	P 	0.31521 0.91480 0.24610 0.73600
P 	P 	0.35397 0.68100 0.97710 0.67800
P 	P 	0.28431 0.81652 0.98210 0.67500
P 	P 	0.38814 0.09490 0.22040 0.65400
P 	P 	0.24252 0.08180 0.21440 0.74300
O 	O 	0.40337 0.01580 0.22030 -0.45600
O 	O 	0.33861 0.73610 0.02940 -0.71500
O 	O 	0.36960 0.04750 0.22970 -0.46600
O 	O 	0.22398 0.04300 0.25640 -0.80900
O 	O 	0.40744 0.77570 0.94460 -0.74800
O 	O 	0.44402 0.96510 0.23880 -0.40000
O 	O 	0.47951 0.97050 0.22810 -0.37900
O 	O 	0.29529 0.95660 0.22870 -0.69500
O 	O 	0.32821 0.00170 0.25470 -0.49000
O 	O 	0.25576 0.00170 0.19360 -0.74600
O 	O 	0.29775 0.74700 0.02530 -0.64200
O 	O 	0.38794 0.15220 0.13020 -0.47100
O 	O 	0.27115 0.75410 0.92500 -0.78400
O 	O 	0.41602 0.89030 0.07190 -0.40700
O 	O 	0.32109 0.85060 0.16910 -0.82200
O 	O 	0.43497 0.88790 0.92570 -0.51800
O 	O 	0.18569 0.00730 0.28160 -0.78000
O 	O 	0.36734 0.75460 0.93200 -0.78800
O 	O 	0.43604 0.10290 0.08540 -0.43600
O 	O 	0.27519 0.87840 0.05430 -0.73300
O 	O 	0.38599 0.86670 0.79740 -0.81000
O 	O 	0.20353 0.11690 0.41700 -0.80600
O 	O 	0.25290 0.14150 0.29200 -0.80000
O 	O 	0.48829 0.10710 0.38050 -0.50400
O 	O 	0.46285 0.83760 0.14620 -0.75700
O 	O 	0.39206 0.15780 0.30510 -0.77700
O 	O 	0.34424 0.12110 0.40620 -0.53100
O 	O 	0.46378 0.84420 0.32160 -0.49100
Al	Al	0.54291 0.76860 0.58770 2.39600
Al	Al	0.36218 0.51530 0.11960 2.39500
Co	Co	0.32444 0.74521 0.39527 1.19500
Co	Co	0.39860 0.76616 0.57219 1.19300
P 	P 	0.32683 0.57800 0.24210 0.73100
P 	P 	0.28751 0.65532 0.48380 0.66900
P 	P 	0.43479 0.66480 0.49610 0.59500
P 	P 	0.39603 0.43100 0.22710 0.73600
P 	P 	0.46569 0.56652 0.23210 0.70400
P 	P 	0.36186 0.84490 0.47040 0.65100
P 	P 	0.50748 0.83180 0.46440 0.69800
O 	O 	0.34663 0.76580 0.47030 -0.42400
O 	O 	0.41139 0.48610 0.27940 -0.48900
O 	O 	0.38040 0.79750 0.47970 -0.45000
O 	O 	0.52602 0.79300 0.50640 -0.78000
O 	O 	0.34256 0.52570 0.19460 -0.75300
O 	O 	0.30598 0.71510 0.48880 -0.43500
O 	O 	0.27049 0.72050 0.47810 -0.44300
O 	O 	0.45471 0.70660 0.47870 -0.42900
O 	O 	0.42179 0.75170 0.50470 -0.42300
O 	O 	0.49424 0.75170 0.44360 -0.45500
O 	O 	0.45225 0.49700 0.27530 -0.44000
O 	O 	0.36206 0.90220 0.38020 -0.45600
O 	O 	0.47885 0.50410 0.17500 -0.75300
O 	O 	0.33398 0.64030 0.32190 -0.51100
O 	O 	0.42891 0.60060 0.41910 -0.51700
O 	O 	0.31503 0.63790 0.17570 -0.77400
O 	O 	0.56431 0.75730 0.53160 -0.72300
O 	O 	0.38266 0.50460 0.18200 -0.76800
O 	O 	0.31396 0.85290 0.33540 -0.49500
O 	O 	0.47481 0.62840 0.30430 -0.52500
O 	O 	0.36401 0.61670 0.04740 -0.75800
O 	O 	0.54647 0.86690 0.66700 -0.73600
O 	O 	0.49710 0.89150 0.54200 -0.74700
O 	O 	0.26171 0.85710 0.63050 -0.51200
O 	O 	0.28715 0.58760 0.39620 -0.80400
O 	O 	0.35794 0.90780 0.55510 -0.74600
O 	O 	0.40576 0.87110 0.65620 -0.49700
O 	O 	0.28622 0.59420 0.57160 -0.77700
Al	Al	0.54291 0.26860 0.08770 2.39600
Al	Al	0.36218 0.01530 0.61960 2.39300
Co	Co	0.32444 0.24521 0.89527 1.18700
Co	Co	0.39860 0.26616 0.07219 1.20800
P 	P 	0.32683 0.07800 0.74210 0.69500
P 	P 	0.28751 0.15532 0.98380 0.61300
P 	P 	0.43479 0.16480 0.99610 0.48200
P 	P 	0.39603 0.93100 0.72710 0.77400
P 	P 	0.46569 0.06652 0.73210 0.66100
P 	P 	0.36186 0.34490 0.97040 0.59700
P 	P 	0.50748 0.33180 0.96440 0.58900
O 	O 	0.34663 0.26580 0.97030 -0.45200
O 	O 	0.41139 0.98610 0.77940 -0.48000
O 	O 	0.38040 0.29750 0.97970 -0.50000
O 	O 	0.52602 0.29300 0.00640 -0.71800
O 	O 	0.34256 0.02570 0.69460 -0.78200
O 	O 	0.30598 0.21510 0.98880 -0.46500
O 	O 	0.27049 0.22050 0.97810 -0.48300
O 	O 	0.45471 0.20660 0.97870 -0.45900
O 	O 	0.42179 0.25170 0.00470 -0.35200
O 	O 	0.49424 0.25170 0.94360 -0.47600
O 	O 	0.45225 0.99700 0.77530 -0.39900
O 	O 	0.36206 0.40220 0.88020 -0.49200
O 	O 	0.47885 0.00410 0.67500 -0.79100
O 	O 	0.33398 0.14030 0.82190 -0.52400
O 	O 	0.42891 0.10060 0.91910 -0.55200
O 	O 	0.31503 0.13790 0.67570 -0.79000
O 	O 	0.56431 0.25730 0.03160 -0.66700
O 	O 	0.38266 0.00460 0.68200 -0.82800
O 	O 	0.31396 0.35290 0.83540 -0.51000
O 	O 	0.47481 0.12840 0.80430 -0.54000
O 	O 	0.36401 0.11670 0.54740 -0.84000
O 	O 	0.54647 0.36690 0.16700 -0.73800
O 	O 	0.49710 0.39150 0.04200 -0.70400
O 	O 	0.26171 0.35710 0.13050 -0.49700
O 	O 	0.28715 0.08760 0.89620 -0.83900
O 	O 	0.35794 0.40780 0.05510 -0.71100
O 	O 	0.40576 0.37110 0.15620 -0.49000
O 	O 	0.28622 0.09420 0.07160 -0.73600
Al	Al	0.04291 0.76860 0.08770 2.39600
Al	Al	0.86218 0.51530 0.61960 2.39500
Co	Co	0.82444 0.74521 0.89527 1.19100
Co	Co	0.89860 0.76616 0.07219 1.21200
P 	P 	0.82683 0.57800 0.74210 0.73000
P 	P 	0.78751 0.65532 0.98380 0.61100
P 	P 	0.93479 0.66480 0.99610 0.47700
P 	P 	0.89603 0.43100 0.72710 0.73500
P 	P 	0.96569 0.56652 0.73210 0.70300
P 	P 	0.86186 0.84490 0.97040 0.59500
P 	P 	0.00748 0.83180 0.96440 0.58700
O 	O 	0.84663 0.76580 0.97030 -0.44400
O 	O 	0.91139 0.48610 0.77940 -0.49700
O 	O 	0.88040 0.79750 0.97970 -0.49000
O 	O 	0.02602 0.79300 0.00640 -0.70900
O 	O 	0.84256 0.52570 0.69460 -0.76300
O 	O 	0.80598 0.71510 0.98880 -0.45700
O 	O 	0.77049 0.72050 0.97810 -0.47500
O 	O 	0.95471 0.70660 0.97870 -0.44800
O 	O 	0.92179 0.75170 0.00470 -0.34200
O 	O 	0.99424 0.75170 0.94360 -0.46700
O 	O 	0.95225 0.49700 0.77530 -0.45000
O 	O 	0.86206 0.90220 0.88020 -0.46300
O 	O 	0.97885 0.50410 0.67500 -0.76300
O 	O 	0.83398 0.64030 0.82190 -0.51800
O 	O 	0.92891 0.60060 0.91910 -0.52100
O 	O 	0.81503 0.63790 0.67570 -0.78200
O 	O 	0.06431 0.75730 0.03160 -0.65700
O 	O 	0.88266 0.50460 0.68200 -0.77900
O 	O 	0.81396 0.85290 0.83540 -0.50400
O 	O 	0.97481 0.62840 0.80430 -0.53300
O 	O 	0.86401 0.61670 0.54740 -0.82700
O 	O 	0.04647 0.86690 0.16700 -0.72900
O 	O 	0.99710 0.89150 0.04200 -0.68000
O 	O 	0.76171 0.85710 0.13050 -0.48900
O 	O 	0.78715 0.58760 0.89620 -0.81100
O 	O 	0.85794 0.90780 0.05510 -0.68400
O 	O 	0.90576 0.87110 0.15620 -0.48500
O 	O 	0.78622 0.59420 0.07160 -0.71500
Al	Al	0.04291 0.26860 0.58770 2.39600
Al	Al	0.86218 0.01530 0.11960 2.39400
Co	Co	0.82444 0.24521 0.39527 1.19100
Co	Co	0.89860 0.26616 0.57219 1.19000
P 	P 	0.82683 0.07800 0.24210 0.69700
P 	P 	0.78751 0.15532 0.48380 0.67000
P 	P 	0.93479 0.16480 0.49610 0.59900
P 	P 	0.89603 0.93100 0.22710 0.77500
P 	P 	0.96569 0.06652 0.23210 0.66200
P 	P 	0.86186 0.34490 0.47040 0.65300
P 	P 	0.00748 0.33180 0.46440 0.69900
O 	O 	0.84663 0.26580 0.47030 -0.43200
O 	O 	0.91139 0.98610 0.27940 -0.47100
O 	O 	0.88040 0.29750 0.47970 -0.46100
O 	O 	0.02602 0.29300 0.50640 -0.78800
O 	O 	0.84256 0.02570 0.19460 -0.77300
O 	O 	0.80598 0.21510 0.48880 -0.44400
O 	O 	0.77049 0.22050 0.47810 -0.45100
O 	O 	0.95471 0.20660 0.47870 -0.44000
O 	O 	0.92179 0.25170 0.50470 -0.43300
O 	O 	0.99424 0.25170 0.44360 -0.46400
O 	O 	0.95225 0.99700 0.27530 -0.39000
O 	O 	0.86206 0.40220 0.38020 -0.48500
O 	O 	0.97885 0.00410 0.17500 -0.78100
O 	O 	0.83398 0.14030 0.32190 -0.51700
O 	O 	0.92891 0.10060 0.41910 -0.54800
O 	O 	0.81503 0.13790 0.17570 -0.78200
O 	O 	0.06431 0.25730 0.53160 -0.73200
O 	O 	0.88266 0.00460 0.18200 -0.81700
O 	O 	0.81396 0.35290 0.33540 -0.50100
O 	O 	0.97481 0.12840 0.30430 -0.53200
O 	O 	0.86401 0.11670 0.04740 -0.77200
O 	O 	0.04647 0.36690 0.66700 -0.74600
O 	O 	0.99710 0.39150 0.54200 -0.77000
O 	O 	0.76171 0.35710 0.63050 -0.52000
O 	O 	0.78715 0.08760 0.39620 -0.83200
O 	O 	0.85794 0.40780 0.55510 -0.77500
O 	O 	0.90576 0.37110 0.65620 -0.50200
O 	O 	0.78622 0.09420 0.57160 -0.79700
Al	Al	0.95709 0.73140 0.58770 2.39600
Al	Al	0.13782 0.98470 0.11960 2.39700
Co	Co	0.17556 0.75479 0.39527 1.19500
Co	Co	0.10140 0.73384 0.57219 1.19200
P 	P 	0.17317 0.92200 0.24210 0.76600
P 	P 	0.21249 0.84468 0.48380 0.66800
P 	P 	0.06521 0.83520 0.49610 0.59200
P 	P 	0.10397 0.06900 0.22710 0.69300
P 	P 	0.03431 0.93348 0.23210 0.74600
P 	P 	0.13814 0.65510 0.47040 0.65300
P 	P 	0.99252 0.66820 0.46440 0.70000
O 	O 	0.15337 0.73420 0.47030 -0.42400
O 	O 	0.08861 0.01390 0.27940 -0.50700
O 	O 	0.11960 0.70250 0.47970 -0.45400
O 	O 	0.97398 0.70700 0.50640 -0.78200
O 	O 	0.15744 0.97430 0.19460 -0.73200
O 	O 	0.19402 0.78490 0.48880 -0.43400
O 	O 	0.22951 0.77950 0.47810 -0.44300
O 	O 	0.04529 0.79340 0.47870 -0.42400
O 	O 	0.07821 0.74830 0.50470 -0.42600
O 	O 	0.00576 0.74830 0.44360 -0.45200
O 	O 	0.04775 0.00300 0.27530 -0.49000
O 	O 	0.13794 0.59780 0.38020 -0.48400
O 	O 	0.02115 0.99590 0.17500 -0.72100
O 	O 	0.16602 0.85970 0.32190 -0.50700
O 	O 	0.07109 0.89940 0.41910 -0.48600
O 	O 	0.18497 0.86210 0.17570 -0.76700
O 	O 	0.93569 0.74270 0.53160 -0.72900
O 	O 	0.11734 0.99540 0.18200 -0.71700
O 	O 	0.18604 0.64710 0.33540 -0.50000
O 	O 	0.02519 0.87160 0.30430 -0.51900
O 	O 	0.13599 0.88330 0.04740 -0.74700
O 	O 	0.95353 0.63310 0.66700 -0.74400
O 	O 	0.00290 0.60850 0.54200 -0.76800
O 	O 	0.23829 0.64290 0.63050 -0.51900
O 	O 	0.21285 0.91240 0.39620 -0.77700
O 	O 	0.14206 0.59220 0.55510 -0.77400
O 	O 	0.09424 0.62890 0.65620 -0.50100
O 	O 	0.21378 0.90580 0.57160 -0.75700
Al	Al	0.95709 0.23140 0.08770 2.39600
Al	Al	0.13782 0.48470 0.61960 2.39500
Co	Co	0.17556 0.25479 0.89527 1.18700
Co	Co	0.10140 0.23384 0.07219 1.20700
P 	P 	0.17317 0.42200 0.74210 0.72900
P 	P 	0.21249 0.34468 0.98380 0.61100
P 	P 	0.06521 0.33520 0.99610 0.47800
P 	P 	0.10397 0.56900 0.72710 0.73500
P 	P 	0.03431 0.43348 0.73210 0.70300
P 	P 	0.13814 0.15510 0.97040 0.59900
P 	P 	0.99252 0.16820 0.96440 0.59100
O 	O 	0.15337 0.23420 0.97030 -0.45200
O 	O 	0.08861 0.51390 0.77940 -0.49800
O 	O 	0.11960 0.20250 0.97970 -0.50400
O 	O 	0.97398 0.20700 0.00640 -0.72000
O 	O 	0.15744 0.47430 0.69460 -0.76400
O 	O 	0.19402 0.28490 0.98880 -0.46500
O 	O 	0.22951 0.27950 0.97810 -0.48300
O 	O 	0.04529 0.29340 0.97870 -0.45500
O 	O 	0.07821 0.24830 0.00470 -0.35500
O 	O 	0.00576 0.24830 0.94360 -0.47200
O 	O 	0.04775 0.50300 0.77530 -0.44800
O 	O 	0.13794 0.09780 0.88020 -0.52100
O 	O 	0.02115 0.49590 0.67500 -0.76200
O 	O 	0.16602 0.35970 0.82190 -0.52100
O 	O 	0.07109 0.39940 0.91910 -0.52300
O 	O 	0.18497 0.36210 0.67570 -0.78300
O 	O 	0.93569 0.24270 0.03160 -0.67200
O 	O 	0.11734 0.49540 0.68200 -0.78100
O 	O 	0.18604 0.14710 0.83540 -0.51500
O 	O 	0.02519 0.37160 0.80430 -0.53400
O 	O 	0.13599 0.38330 0.54740 -0.83000
O 	O 	0.95353 0.13310 0.16700 -0.74600
O 	O 	0.00290 0.10850 0.04200 -0.72200
O 	O 	0.23829 0.14290 0.13050 -0.50300
O 	O 	0.21285 0.41240 0.89620 -0.81300
O 	O 	0.14206 0.09220 0.05510 -0.74000
O 	O 	0.09424 0.12890 0.15620 -0.49400
O 	O 	0.21378 0.40580 0.07160 -0.71700
Al	Al	0.45709 0.73140 0.08770 2.39600
Al	Al	0.63782 0.98470 0.61960 2.39700
Co	Co	0.67556 0.75479 0.89527 1.19100
Co	Co	0.60140 0.73384 0.07219 1.21100
P 	P 	0.67317 0.92200 0.74210 0.76400
P 	P 	0.71249 0.84468 0.98380 0.61000
P 	P 	0.56521 0.83520 0.99610 0.47400
P 	P 	0.60397 0.06900 0.72710 0.69300
P 	P 	0.53431 0.93348 0.73210 0.74500
P 	P 	0.63814 0.65510 0.97040 0.59600
P 	P 	0.49252 0.66820 0.96440 0.58800
O 	O 	0.65337 0.73420 0.97030 -0.44400
O 	O 	0.58861 0.01390 0.77940 -0.51500
O 	O 	0.61960 0.70250 0.97970 -0.49400
O 	O 	0.47398 0.70700 0.00640 -0.71100
O 	O 	0.65744 0.97430 0.69460 -0.74200
O 	O 	0.69402 0.78490 0.98880 -0.45600
O 	O 	0.72951 0.77950 0.97810 -0.47500
O 	O 	0.54529 0.79340 0.97870 -0.44300
O 	O 	0.57821 0.74830 0.00470 -0.34500
O 	O 	0.50576 0.74830 0.94360 -0.46400
O 	O 	0.54775 0.00300 0.77530 -0.49900
O 	O 	0.63794 0.59780 0.88020 -0.49000
O 	O 	0.52115 0.99590 0.67500 -0.73100
O 	O 	0.66602 0.85970 0.82190 -0.51400
O 	O 	0.57109 0.89940 0.91910 -0.49000
O 	O 	0.68497 0.86210 0.67570 -0.77500
O 	O 	0.43569 0.74270 0.03160 -0.66400
O 	O 	0.61734 0.99540 0.68200 -0.72800
O 	O 	0.68604 0.64710 0.83540 -0.50900
O 	O 	0.52519 0.87160 0.80430 -0.52600
O 	O 	0.63599 0.88330 0.54740 -0.81600
O 	O 	0.45353 0.63310 0.16700 -0.73700
O 	O 	0.50290 0.60850 0.04200 -0.70100
O 	O 	0.73829 0.64290 0.13050 -0.49600
O 	O 	0.71285 0.91240 0.89620 -0.78400
O 	O 	0.64206 0.59220 0.05510 -0.71000
O 	O 	0.59424 0.62890 0.15620 -0.48900
O 	O 	0.71378 0.90580 0.07160 -0.69600
Al	Al	0.45709 0.23140 0.58770 2.39600
Al	Al	0.63782 0.48470 0.11960 2.39500
Co	Co	0.67556 0.25479 0.39527 1.19100
Co	Co	0.60140 0.23384 0.57219 1.18900
P 	P 	0.67317 0.42200 0.24210 0.73000
P 	P 	0.71249 0.34468 0.48380 0.66900
P 	P 	0.56521 0.33520 0.49610 0.59600
P 	P 	0.60397 0.56900 0.22710 0.73600
P 	P 	0.53431 0.43348 0.23210 0.70300
P 	P 	0.63814 0.15510 0.47040 0.65500
P 	P 	0.49252 0.16820 0.46440 0.70000
O 	O 	0.65337 0.23420 0.47030 -0.43200
O 	O 	0.58861 0.51390 0.27940 -0.48900
O 	O 	0.61960 0.20250 0.47970 -0.46500
O 	O 	0.47398 0.20700 0.50640 -0.79000
O 	O 	0.65744 0.47430 0.19460 -0.75400
O 	O 	0.69402 0.28490 0.48880 -0.44300
O 	O 	0.72951 0.27950 0.47810 -0.45100
O 	O 	0.54529 0.29340 0.47870 -0.43600
O 	O 	0.57821 0.24830 0.50470 -0.43600
O 	O 	0.50576 0.24830 0.44360 -0.46000
O 	O 	0.54775 0.50300 0.27530 -0.43900
O 	O 	0.63794 0.09780 0.38020 -0.51500
O 	O 	0.52115 0.49590 0.17500 -0.75200
O 	O 	0.66602 0.35970 0.32190 -0.51300
O 	O 	0.57109 0.39940 0.41910 -0.51900
O 	O 	0.68497 0.36210 0.17570 -0.77600
O 	O 	0.43569 0.24270 0.53160 -0.73800
O 	O 	0.61734 0.49540 0.18200 -0.77000
O 	O 	0.68604 0.14710 0.33540 -0.50600
O 	O 	0.52519 0.37160 0.30430 -0.52600
O 	O 	0.63599 0.38330 0.04740 -0.76100
O 	O 	0.45353 0.13310 0.66700 -0.75300
O 	O 	0.50290 0.10850 0.54200 -0.78800
O 	O 	0.73829 0.14290 0.63050 -0.52600
O 	O 	0.71285 0.41240 0.39620 -0.80600
O 	O 	0.64206 0.09220 0.55510 -0.80300
O 	O 	0.59424 0.12890 0.65620 -0.50500
O 	O 	0.71378 0.40580 0.57160 -0.77900
Co	Co	0.00000 0.50000 0.31404 1.18600
Co	Co	-0.00000 -0.00000 0.81404 1.15200
Co	Co	0.50000 0.50000 0.81404 1.17800
Co	Co	0.50000 0.00000 0.31404 1.15900
Co	Co	0.25000 0.75000 0.56404 1.17800
Co	Co	0.25000 0.25000 0.06404 1.20700
Co	Co	0.75000 0.75000 0.06404 1.21000
Co	Co	0.75000 0.25000 0.56404 1.17600
Al	Al	0.25000 0.75000 0.85910 2.39000
Al	Al	0.25000 0.25000 0.35910 2.39000
Al	Al	0.75000 0.25000 0.85910 2.38900
Al	Al	0.75000 0.75000 0.35910 2.39100
Al	Al	0.50000 0.50000 0.10910 2.39000
Al	Al	0.50000 0.00000 0.60910 2.38600
Al	Al	-0.00000 0.00000 0.10910 2.38600
Al	Al	-0.00000 0.50000 0.60910 2.39000
