data_crystal

_cell_length_a 11.85500
_cell_length_b 23.23500
_cell_length_c 36.74900
_cell_angle_alpha 95.26000
_cell_angle_beta  90.00000
_cell_angle_gamma 90.00000

_symmetry_space_group_name_	'P 1'
_symmetry_space_group_name_H-M	'P 1'

loop_
_symmetry_equiv_pos_as_xyz
  x,y,z

loop_
_atom_site_label
_atom_site_type_symbol
_atom_site_fract_x
_atom_site_fract_y
_atom_site_fract_z
_atom_site_charge
Cd	Cd	0.33870 0.75843 0.25319 1.22300
Cd	Cd	0.01621 0.86517 0.28335 1.19200
Cd	Cd	0.36817 0.59584 0.22548 1.20800
Cd	Cd	0.78162 0.94343 0.22977 1.20700
Cd	Cd	0.83870 0.24157 0.74681 1.22300
Cd	Cd	0.51621 0.13483 0.71665 1.20200
Cd	Cd	0.86817 0.40416 0.77452 1.21000
Cd	Cd	0.28162 0.05657 0.77023 1.20300
Ni	Ni	0.50220 0.58410 0.48633 1.09500
Ni	Ni	0.95881 0.91395 0.48199 1.11300
Ni	Ni	0.29172 0.57815 0.02446 1.09600
Ni	Ni	0.81345 0.91997 0.02515 1.10500
Ni	Ni	0.00220 0.41590 0.51367 1.07600
Ni	Ni	0.45881 0.08605 0.51801 1.10200
Ni	Ni	0.79172 0.42185 0.97554 1.10100
Ni	Ni	0.31345 0.08003 0.97485 1.10200
H 	H 	0.31330 0.61120 0.12280 0.02000
H 	H 	0.48350 0.46910 0.05150 0.00300
H 	H 	0.19920 0.68070 0.15050 0.00800
H 	H 	0.53540 0.46150 0.92860 -0.05700
H 	H 	0.39160 0.56660 0.86230 -0.18700
H 	H 	0.39990 0.52640 0.10640 0.03800
H 	H 	0.80840 0.81520 0.36080 -0.00600
H 	H 	0.70630 0.48110 0.44800 0.01500
H 	H 	0.73560 0.49300 0.50940 -0.01800
H 	H 	0.78870 0.92670 0.12270 -0.00100
H 	H 	0.91440 0.99210 0.10980 0.05600
H 	H 	0.05810 0.95090 0.39500 0.03000
H 	H 	0.14440 0.01760 0.44640 0.01600
H 	H 	0.14620 0.03470 0.50660 -0.05400
H 	H 	0.01240 0.02830 0.05340 -0.06500
H 	H 	0.60320 0.52960 0.39790 0.04500
H 	H 	0.14180 0.74880 0.44400 -0.10000
H 	H 	0.58470 0.75160 0.42810 -0.12100
H 	H 	0.47790 0.75410 0.08280 -0.12500
H 	H 	0.35250 0.66940 0.37220 -0.00400
H 	H 	0.12550 0.77120 0.38520 -0.02900
H 	H 	0.09810 0.75790 0.18120 -0.01700
H 	H 	0.48270 0.46320 0.98910 -0.05400
H 	H 	0.75880 0.47800 0.57010 -0.00700
H 	H 	0.55310 0.73770 0.36150 -0.01700
H 	H 	0.03120 0.01150 0.99430 -0.07600
H 	H 	0.61310 0.46290 0.86810 -0.04400
H 	H 	0.47240 0.69750 0.12730 0.18200
H 	H 	0.84490 0.74250 0.04760 0.49200
H 	H 	0.86460 0.76340 0.00880 0.44900
H 	H 	0.92720 0.79410 0.04280 0.48900
H 	H 	0.65170 0.82450 0.32570 0.14200
H 	H 	0.10800 0.58470 0.89940 0.78000
H 	H 	0.08640 0.65040 0.91090 0.74700
H 	H 	0.12990 0.61000 0.93980 0.79700
H 	H 	0.94580 0.81800 0.14480 0.16100
H 	H 	0.56790 0.78200 0.17380 -0.05100
H 	H 	0.68910 0.85030 0.14760 -0.02100
H 	H 	0.89940 0.64380 0.02090 0.50300
H 	H 	0.01300 0.63490 0.99930 0.45900
H 	H 	0.91530 0.67090 0.98370 0.47100
H 	H 	0.80480 0.46210 0.62980 -0.00700
H 	H 	0.24590 0.71650 0.92410 0.71900
H 	H 	0.36970 0.69290 0.92110 0.72200
H 	H 	0.29200 0.67730 0.95330 0.73900
H 	H 	0.89160 0.50370 0.43830 0.06600
H 	H 	0.89740 0.89990 0.86140 -0.10600
H 	H 	0.08170 0.95110 0.64190 -0.20100
H 	H 	0.28190 0.73320 0.33200 0.15900
H 	H 	0.90470 0.77890 0.91940 0.60200
H 	H 	0.78330 0.75240 0.92030 0.59500
H 	H 	0.82280 0.79840 0.95160 0.60700
H 	H 	0.97130 0.76110 0.09320 -0.02500
H 	H 	0.68870 0.48880 0.75560 0.31700
H 	H 	0.68880 0.51620 0.68670 0.14800
H 	H 	0.26820 0.06460 0.62640 -0.09000
H 	H 	0.20410 0.04610 0.56730 -0.08000
H 	H 	0.22680 0.44860 0.01330 0.03900
H 	H 	0.99570 0.94250 0.81690 0.16400
H 	H 	0.29040 0.76880 0.52370 0.44300
H 	H 	0.33260 0.70870 0.53440 0.44500
H 	H 	0.23040 0.73930 0.55510 0.42200
H 	H 	0.37820 0.42980 0.10990 0.01700
H 	H 	0.85910 0.80510 0.85710 0.64400
H 	H 	0.75260 0.84280 0.85060 0.64400
H 	H 	0.73800 0.77930 0.86100 0.62700
H 	H 	0.09800 0.62440 0.50240 0.45100
H 	H 	0.11480 0.65280 0.54250 0.43400
H 	H 	0.21570 0.62100 0.52160 0.46400
H 	H 	0.77540 0.71610 0.50010 0.63200
H 	H 	0.73010 0.74430 0.53770 0.60100
H 	H 	0.82210 0.77620 0.51630 0.62900
H 	H 	0.31910 0.58540 0.60980 0.42300
H 	H 	0.33730 0.61380 0.57310 0.42500
H 	H 	0.28920 0.65070 0.60750 0.39300
H 	H 	0.08820 0.02040 0.86980 0.01800
H 	H 	0.21470 0.00130 0.68060 0.19900
H 	H 	0.61740 0.72800 0.99970 0.57400
H 	H 	0.65320 0.78800 0.98710 0.56400
H 	H 	0.55390 0.75320 0.96730 0.53900
H 	H 	0.50990 0.69100 0.57100 0.34500
H 	H 	0.57600 0.70520 0.60760 0.34300
H 	H 	0.45090 0.72600 0.60420 0.33700
H 	H 	0.09330 0.38210 0.02820 -0.01300
H 	H 	0.75860 0.86880 0.60580 0.62900
H 	H 	0.79640 0.90310 0.57300 0.66800
H 	H 	0.78850 0.93470 0.61250 0.66900
H 	H 	0.58330 0.70660 0.47830 0.62200
H 	H 	0.50460 0.76070 0.47740 0.64600
H 	H 	0.53530 0.73730 0.51480 0.61000
H 	H 	0.60110 0.83280 0.53840 0.61600
H 	H 	0.56920 0.85660 0.50120 0.64600
H 	H 	0.69150 0.86540 0.51690 0.64300
H 	H 	0.54180 0.44610 0.36490 0.04500
H 	H 	0.50480 0.52860 0.81980 0.16800
H 	H 	0.40830 0.86540 0.02000 0.66100
H 	H 	0.42620 0.83730 0.98000 0.62800
H 	H 	0.52360 0.87310 0.00020 0.66300
H 	H 	0.88690 0.04430 0.48090 0.04400
H 	H 	0.59390 0.57190 0.64840 -0.06900
H 	H 	0.04890 0.05120 0.38680 -0.04400
H 	H 	0.14640 0.71660 0.99370 0.42500
H 	H 	0.11130 0.77860 0.01030 0.43500
H 	H 	0.04630 0.74880 0.97650 0.39700
H 	H 	0.51280 0.61850 0.04360 0.00100
H 	H 	0.58040 0.53080 0.12960 0.02200
H 	H 	0.09340 0.77550 0.49540 0.41900
H 	H 	0.04780 0.74470 0.52860 0.38400
H 	H 	0.02140 0.71900 0.48860 0.42100
H 	H 	0.23940 0.94490 0.37170 0.02000
H 	H 	0.00680 0.65800 0.41460 0.00400
H 	H 	0.18120 0.87380 0.46510 0.00500
H 	H 	0.04120 0.81970 0.59040 0.63200
H 	H 	0.95510 0.83120 0.55950 0.67600
H 	H 	0.91650 0.79780 0.59250 0.65200
H 	H 	0.45270 0.46860 0.46970 0.01800
H 	H 	0.92770 0.12050 0.37000 0.01800
H 	H 	0.41940 0.90670 0.37120 0.01400
H 	H 	0.09920 0.34010 0.08220 -0.02100
H 	H 	0.68170 0.63540 0.43820 0.00700
H 	H 	0.42690 0.61640 0.66400 0.38500
H 	H 	0.40610 0.68210 0.65960 0.36200
H 	H 	0.52950 0.65880 0.66260 0.38000
H 	H 	0.75590 0.57410 0.13380 0.01900
H 	H 	0.22640 0.61090 0.85120 0.78000
H 	H 	0.32980 0.65220 0.85920 0.78000
H 	H 	0.20670 0.67660 0.86330 0.75800
H 	H 	0.82610 0.69380 0.42560 0.04700
H 	H 	0.05990 0.01410 0.93250 0.01900
H 	H 	0.81720 0.63320 0.09050 0.05800
H 	H 	0.65820 0.86390 0.93930 0.68600
H 	H 	0.61710 0.81530 0.90990 0.64000
H 	H 	0.63540 0.87840 0.89920 0.67000
H 	H 	0.36210 0.83670 0.46400 -0.02400
H 	H 	0.78310 0.04830 0.03100 0.03600
H 	H 	0.69040 0.65680 0.04690 -0.02700
H 	H 	0.67350 0.13170 0.03500 -0.00300
H 	H 	0.48930 0.85860 0.41850 0.05400
H 	H 	0.82450 0.06750 0.13930 0.04300
H 	H 	0.02430 0.86440 0.64860 0.64300
H 	H 	0.89860 0.84420 0.65090 0.65700
H 	H 	0.92900 0.90970 0.65910 0.69000
H 	H 	0.24130 0.36420 0.12380 -0.02100
H 	H 	0.03910 0.56550 0.43230 -0.02000
H 	H 	0.01620 0.87630 0.05360 -0.07600
H 	H 	0.43650 0.36100 0.35800 -0.00800
H 	H 	0.96490 0.86770 0.38460 0.03900
H 	H 	0.46760 0.59370 0.38830 0.01500
H 	H 	0.76000 0.11200 0.46360 0.00600
H 	H 	0.77300 0.14720 0.40680 -0.02400
H 	H 	0.35830 0.37980 0.46480 0.00100
H 	H 	0.35030 0.33050 0.40840 -0.01800
H 	H 	0.66000 0.18810 0.09020 -0.03100
H 	H 	0.72350 0.15380 0.14430 -0.01100
H 	H 	0.32030 0.86060 0.10060 0.00200
H 	H 	0.15630 0.82420 0.07250 0.04100
H 	H 	0.30620 0.96230 0.11090 0.05800
H 	H 	0.35110 0.77380 0.03740 0.62700
H 	H 	0.42860 0.71930 0.02990 0.61500
H 	H 	0.37090 0.74680 0.99730 0.58200
H 	H 	0.19940 0.01130 0.07260 -0.00100
H 	H 	0.81330 0.38880 0.87720 0.01500
H 	H 	0.98350 0.53090 0.94850 0.03100
H 	H 	0.69920 0.31930 0.84950 -0.00900
H 	H 	0.03540 0.53850 0.07140 -0.11200
H 	H 	0.89160 0.43340 0.13770 -0.18700
H 	H 	0.89990 0.47360 0.89360 0.02300
H 	H 	0.30840 0.18480 0.63920 -0.00500
H 	H 	0.20630 0.51890 0.55200 0.01600
H 	H 	0.23560 0.50700 0.49060 -0.01900
H 	H 	0.28870 0.07330 0.87730 0.01400
H 	H 	0.41440 0.00790 0.89020 0.03000
H 	H 	0.55810 0.04910 0.60500 0.03800
H 	H 	0.64440 0.98240 0.55360 0.01400
H 	H 	0.64620 0.96530 0.49340 -0.06200
H 	H 	0.51240 0.97170 0.94660 0.00800
H 	H 	0.10320 0.47040 0.60210 0.03400
H 	H 	0.64180 0.25120 0.55600 -0.10400
H 	H 	0.08470 0.24840 0.57190 -0.11200
H 	H 	0.97790 0.24590 0.91720 0.02000
H 	H 	0.85250 0.33060 0.62780 -0.00700
H 	H 	0.62550 0.22880 0.61480 -0.02300
H 	H 	0.59810 0.24210 0.81880 -0.05500
H 	H 	0.98270 0.53680 0.01090 -0.04400
H 	H 	0.25880 0.52200 0.42990 -0.01600
H 	H 	0.05310 0.26230 0.63850 -0.01600
H 	H 	0.53120 0.98850 0.00570 -0.04400
H 	H 	0.11310 0.53710 0.13190 -0.03000
H 	H 	0.97240 0.30250 0.87270 0.13100
H 	H 	0.34490 0.25750 0.95240 0.49100
H 	H 	0.36460 0.23660 0.99120 0.44700
H 	H 	0.42720 0.20590 0.95720 0.47600
H 	H 	0.15170 0.17550 0.67430 0.11300
H 	H 	0.60800 0.41530 0.10060 0.85100
H 	H 	0.58640 0.34960 0.08910 0.81900
H 	H 	0.62990 0.39000 0.06020 0.86500
H 	H 	0.44580 0.18200 0.85520 0.19200
H 	H 	0.06790 0.21800 0.82620 0.00600
H 	H 	0.18910 0.14970 0.85240 0.02300
H 	H 	0.39940 0.35620 0.97910 0.55100
H 	H 	0.51300 0.36510 0.00070 0.54200
H 	H 	0.41530 0.32910 0.01630 0.51700
H 	H 	0.30480 0.53790 0.37020 -0.01600
H 	H 	0.74590 0.28350 0.07590 0.79100
H 	H 	0.86970 0.30710 0.07890 0.80500
H 	H 	0.79200 0.32270 0.04670 0.81800
H 	H 	0.39160 0.49630 0.56170 0.05100
H 	H 	0.39740 0.10010 0.13860 -0.13800
H 	H 	0.58170 0.04890 0.35810 -0.23100
H 	H 	0.78190 0.26680 0.66800 0.16000
H 	H 	0.40470 0.22110 0.08060 0.58400
H 	H 	0.28330 0.24760 0.07970 0.58700
H 	H 	0.32280 0.20160 0.04840 0.60300
H 	H 	0.47130 0.23890 0.90680 -0.09300
H 	H 	0.18870 0.51120 0.24440 0.31600
H 	H 	0.18880 0.48380 0.31330 0.14800
H 	H 	0.76820 0.93540 0.37360 -0.10100
H 	H 	0.70410 0.95390 0.43270 -0.09500
H 	H 	0.72680 0.55140 0.98670 0.04700
H 	H 	0.49570 0.05750 0.18310 0.11900
H 	H 	0.79040 0.23120 0.47630 0.47000
H 	H 	0.83260 0.29130 0.46560 0.47200
H 	H 	0.73040 0.26070 0.44490 0.44100
H 	H 	0.87820 0.57020 0.89010 0.03600
H 	H 	0.35910 0.19490 0.14290 0.62600
H 	H 	0.25260 0.15720 0.14940 0.62800
H 	H 	0.23800 0.22070 0.13900 0.61100
H 	H 	0.59800 0.37560 0.49760 0.48500
H 	H 	0.61480 0.34720 0.45750 0.46400
H 	H 	0.71570 0.37900 0.47840 0.48700
H 	H 	0.27540 0.28390 0.49990 0.57000
H 	H 	0.23010 0.25570 0.46230 0.53600
H 	H 	0.32210 0.22380 0.48370 0.56000
H 	H 	0.81910 0.41460 0.39020 0.48600
H 	H 	0.83730 0.38620 0.42690 0.48800
H 	H 	0.78920 0.34930 0.39250 0.45300
H 	H 	0.58820 0.97960 0.13020 -0.00800
H 	H 	0.71470 0.99870 0.31940 0.20900
H 	H 	0.11740 0.27200 0.00030 0.38500
H 	H 	0.15320 0.21200 0.01290 0.37900
H 	H 	0.05390 0.24680 0.03270 0.34500
H 	H 	0.00990 0.30900 0.42900 0.44500
H 	H 	0.07600 0.29480 0.39240 0.44400
H 	H 	0.95090 0.27400 0.39580 0.47400
H 	H 	0.59330 0.61790 0.97180 -0.01600
H 	H 	0.25860 0.13120 0.39420 0.72300
H 	H 	0.29640 0.09690 0.42700 0.76800
H 	H 	0.28850 0.06530 0.38750 0.76300
H 	H 	0.08330 0.29340 0.52170 0.55200
H 	H 	0.00460 0.23930 0.52260 0.56800
H 	H 	0.03530 0.26270 0.48520 0.53200
H 	H 	0.10110 0.16720 0.46160 0.54600
H 	H 	0.06920 0.14340 0.49880 0.57700
H 	H 	0.19150 0.13460 0.48310 0.57800
H 	H 	0.04180 0.55390 0.63510 0.05600
H 	H 	0.00480 0.47140 0.18020 0.14500
H 	H 	0.90830 0.13460 0.98000 0.41000
H 	H 	0.92620 0.16270 0.02000 0.38300
H 	H 	0.02360 0.12690 0.99980 0.37600
H 	H 	0.38690 0.95570 0.51910 0.04400
H 	H 	0.09390 0.42810 0.35160 -0.09800
H 	H 	0.54890 0.94880 0.61320 0.03100
H 	H 	0.64640 0.28340 0.00630 0.41800
H 	H 	0.61130 0.22140 0.98970 0.43300
H 	H 	0.54630 0.25120 0.02350 0.39800
H 	H 	0.01280 0.38150 0.95640 -0.03900
H 	H 	0.08040 0.46920 0.87040 -0.01800
H 	H 	0.59340 0.22450 0.50460 0.45200
H 	H 	0.54780 0.25530 0.47140 0.41900
H 	H 	0.52140 0.28100 0.51140 0.46300
H 	H 	0.73940 0.05510 0.62830 0.02800
H 	H 	0.50680 0.34200 0.58540 0.05800
H 	H 	0.68120 0.12620 0.53490 0.00800
H 	H 	0.54120 0.18030 0.40960 0.81900
H 	H 	0.45510 0.16880 0.44050 0.82700
H 	H 	0.41650 0.20220 0.40750 0.80400
H 	H 	0.95270 0.53140 0.53030 0.01500
H 	H 	0.42770 0.87950 0.63000 -0.01700
H 	H 	0.91940 0.09330 0.62880 0.02800
H 	H 	0.59920 0.65990 0.91780 -0.00900
H 	H 	0.18170 0.36460 0.56180 0.01300
H 	H 	0.92690 0.38360 0.33600 0.40400
H 	H 	0.90610 0.31790 0.34040 0.37400
H 	H 	0.02950 0.34120 0.33740 0.35600
H 	H 	0.25590 0.42590 0.86620 0.03800
H 	H 	0.72640 0.38910 0.14880 0.84900
H 	H 	0.82980 0.34780 0.14080 0.85000
H 	H 	0.70670 0.32340 0.13670 0.82600
H 	H 	0.32610 0.30620 0.57440 0.02400
H 	H 	0.55990 0.98590 0.06750 -0.03400
H 	H 	0.31720 0.36680 0.90950 0.02100
H 	H 	0.15820 0.13610 0.06070 0.69200
H 	H 	0.11710 0.18470 0.09010 0.63600
H 	H 	0.13540 0.12160 0.10080 0.66400
H 	H 	0.86210 0.16330 0.53600 -0.01200
H 	H 	0.28310 0.95170 0.96900 0.02300
H 	H 	0.19040 0.34320 0.95310 0.00700
H 	H 	0.17350 0.86830 0.96500 -0.00600
H 	H 	0.98930 0.14140 0.58150 0.07200
H 	H 	0.32450 0.93250 0.86070 0.03100
H 	H 	0.52430 0.13560 0.35140 0.82900
H 	H 	0.39860 0.15580 0.34910 0.80200
H 	H 	0.42900 0.09030 0.34090 0.83400
H 	H 	0.74130 0.63580 0.87620 -0.02100
H 	H 	0.53910 0.43450 0.56770 0.02200
H 	H 	0.51620 0.12370 0.94640 -0.00400
H 	H 	0.93650 0.63900 0.64200 -0.02100
H 	H 	0.46490 0.13230 0.61540 0.02700
H 	H 	0.96760 0.40630 0.61170 0.00800
H 	H 	0.26000 0.88800 0.53640 -0.00900
H 	H 	0.27300 0.85280 0.59320 0.00300
H 	H 	0.85830 0.62020 0.53520 0.00400
H 	H 	0.85030 0.66950 0.59160 0.00300
H 	H 	0.16000 0.81190 0.90980 -0.04100
H 	H 	0.22350 0.84620 0.85570 -0.01100
H 	H 	0.82030 0.13940 0.89940 0.06700
H 	H 	0.65630 0.17580 0.92750 -0.00100
H 	H 	0.80620 0.03770 0.88910 0.02000
H 	H 	0.85110 0.22620 0.96260 0.42000
H 	H 	0.92860 0.28070 0.97010 0.41700
H 	H 	0.87090 0.25320 0.00270 0.38000
H 	H 	0.69940 0.98870 0.92740 0.05000
C 	C 	0.14710 0.66160 0.06170 0.35300
C 	C 	0.08080 0.72900 0.12810 -0.15700
C 	C 	0.28280 0.61310 0.09960 0.09000
C 	C 	0.41080 0.48930 0.05280 -0.03800
C 	C 	0.16410 0.68670 0.12860 0.08000
C 	C 	0.05880 0.70460 0.06050 -0.53200
C 	C 	0.42040 0.51550 0.95430 -0.31600
C 	C 	0.33970 0.56050 0.94880 0.47400
C 	C 	0.48640 0.49150 0.92460 0.22100
C 	C 	0.99850 0.71480 0.02550 1.17600
C 	C 	0.39970 0.55450 0.88560 0.46900
C 	C 	0.33310 0.58020 0.91210 -0.83200
C 	C 	0.41650 0.54090 0.08280 -0.04500
C 	C 	0.19670 0.65240 0.09630 -0.20900
C 	C 	0.84230 0.83530 0.41580 -0.23800
C 	C 	0.80330 0.82910 0.45140 0.43300
C 	C 	0.70710 0.79380 0.45640 -0.67800
C 	C 	0.78130 0.81150 0.38420 0.14400
C 	C 	0.68060 0.78260 0.38960 -0.23300
C 	C 	0.67580 0.52040 0.44870 -0.03600
C 	C 	0.67580 0.51860 0.51380 0.08500
C 	C 	0.16140 0.79290 0.31940 0.43900
C 	C 	0.54260 0.59060 0.59880 -0.45100
C 	C 	0.56230 0.57470 0.56160 0.34200
C 	C 	0.64530 0.53330 0.55070 -0.22300
C 	C 	0.86920 0.91420 0.95040 0.39700
C 	C 	0.77090 0.91470 0.09860 0.12500
C 	C 	0.88380 0.99490 0.08520 -0.09800
C 	C 	0.07730 0.94170 0.41980 -0.05800
C 	C 	0.01100 0.94490 0.55650 0.42600
C 	C 	0.07090 0.99830 0.44620 -0.07000
C 	C 	0.09870 0.00420 0.51080 0.14700
C 	C 	0.65270 0.85120 0.05780 0.43300
C 	C 	0.98350 0.98940 0.05620 0.14600
C 	C 	0.08400 0.99110 0.54740 -0.32800
C 	C 	0.36940 0.64450 0.42330 -0.24100
C 	C 	0.76850 0.56250 0.44090 0.02800
C 	C 	0.57480 0.52180 0.42210 -0.04900
C 	C 	0.19940 0.72200 0.43910 0.28900
C 	C 	0.56490 0.81010 0.05460 -0.66700
C 	C 	0.64940 0.77330 0.42510 0.34600
C 	C 	0.24020 0.71460 0.40300 -0.22400
C 	C 	0.53320 0.78260 0.08530 0.33900
C 	C 	0.33280 0.65430 0.45960 0.36700
C 	C 	0.32420 0.67560 0.39590 0.14000
C 	C 	0.18810 0.74970 0.37700 0.19000
C 	C 	0.05840 0.76620 0.16050 0.12300
C 	C 	0.43560 0.49500 0.98800 0.15300
C 	C 	0.70530 0.50600 0.57750 0.10700
C 	C 	0.31530 0.44600 0.06060 0.01500
C 	C 	0.60330 0.76800 0.35940 0.17600
C 	C 	0.97680 0.98260 0.99190 0.17300
C 	C 	0.50550 0.79350 0.01780 1.53700
C 	C 	0.55910 0.48950 0.86210 0.26300
C 	C 	0.78210 0.83530 0.90430 1.62900
C 	C 	0.49160 0.71610 0.14990 -0.41900
C 	C 	0.15380 0.00650 0.60950 -0.42400
C 	C 	0.46030 0.63720 0.61120 0.90700
C 	C 	0.51180 0.46460 0.41850 0.02900
C 	C 	0.85530 0.89000 0.91300 -0.64400
C 	C 	0.89940 0.75780 0.03180 -1.58600
C 	C 	0.59960 0.79540 0.32860 -0.32200
C 	C 	0.13360 0.61790 0.91460 -2.62700
C 	C 	0.98910 0.81060 0.16490 -0.34100
C 	C 	0.54780 0.76530 0.15070 0.23500
C 	C 	0.07500 0.95490 0.06700 -0.15100
C 	C 	0.93150 0.88320 0.60560 1.79000
C 	C 	0.01010 0.93190 0.59400 -0.81100
C 	C 	0.66000 0.83930 0.12450 0.16300
C 	C 	0.95240 0.66140 0.00560 -1.58800
C 	C 	0.25280 0.63120 0.90490 2.02200
C 	C 	0.75180 0.48830 0.64000 0.17200
C 	C 	0.45870 0.69010 0.18220 0.48200
C 	C 	0.29380 0.68430 0.92800 -2.52100
C 	C 	0.87710 0.54280 0.43690 -0.12500
C 	C 	0.91060 0.91490 0.88540 0.27100
C 	C 	0.58240 0.79650 0.11990 -0.26400
C 	C 	0.08100 0.96130 0.61800 0.49700
C 	C 	0.22090 0.75460 0.34170 -0.35800
C 	C 	0.51680 0.78120 0.29950 0.40500
C 	C 	0.82750 0.78670 0.92590 -2.06700
C 	C 	0.03000 0.73460 0.09360 0.16100
C 	C 	0.34330 0.05810 0.68940 0.57700
C 	C 	0.74440 0.49270 0.67530 -0.33600
C 	C 	0.22910 0.03450 0.63570 0.41500
C 	C 	0.12580 0.99920 0.80280 0.40300
C 	C 	0.15410 0.01820 0.57420 0.28400
C 	C 	0.82100 0.46200 0.69770 0.41700
C 	C 	0.23040 0.43200 0.03540 -0.12200
C 	C 	0.65250 0.48370 0.80400 0.49700
C 	C 	0.04500 0.97110 0.82660 -0.35700
C 	C 	0.26750 0.73260 0.53190 -1.49100
C 	C 	0.32000 0.42030 0.09340 -0.10700
C 	C 	0.78300 0.81370 0.86470 -2.17800
C 	C 	0.15020 0.64460 0.51910 -1.47300
C 	C 	0.75650 0.75190 0.51390 -2.09100
C 	C 	0.81410 0.04870 0.08510 0.05700
C 	C 	0.34030 0.62020 0.59930 -1.37300
C 	C 	0.04500 0.98790 0.86250 0.07500
C 	C 	0.25610 0.02810 0.66880 -0.59300
C 	C 	0.59060 0.76270 0.99040 -1.92400
C 	C 	0.50350 0.69560 0.59710 -1.21400
C 	C 	0.15120 0.39220 0.04470 -0.01500
C 	C 	0.80690 0.89900 0.59860 -2.20400
C 	C 	0.56270 0.74320 0.49090 -2.10500
C 	C 	0.62820 0.83960 0.51460 -2.09900
C 	C 	0.18580 0.70200 0.50390 1.06700
C 	C 	0.50460 0.43320 0.38490 -0.10200
C 	C 	0.56070 0.50490 0.82800 -0.40900
C 	C 	0.46200 0.84710 0.00320 -2.14500
C 	C 	0.48230 0.51000 0.89020 -0.32400
C 	C 	0.66430 0.78220 0.49410 1.57200
C 	C 	0.89490 0.05870 0.45830 -0.09400
C 	C 	0.98250 0.03960 0.43580 0.02400
C 	C 	0.52920 0.56880 0.08500 0.03800
C 	C 	0.68660 0.51960 0.61410 -0.17700
C 	C 	0.60620 0.56190 0.62370 0.20900
C 	C 	0.19220 0.91420 0.41910 0.03700
C 	C 	0.99060 0.06350 0.40260 0.00500
C 	C 	0.08410 0.74240 0.99890 -1.49300
C 	C 	0.56260 0.60780 0.06140 -0.10100
C 	C 	0.60210 0.55610 0.11270 -0.10600
C 	C 	0.07670 0.73880 0.50410 -1.43100
C 	C 	0.26340 0.92380 0.39060 -0.10900
C 	C 	0.94910 0.63530 0.42280 -0.01900
C 	C 	0.22970 0.88140 0.44620 -0.09600
C 	C 	0.96390 0.82820 0.58530 -2.25900
C 	C 	0.45290 0.44580 0.44750 -0.09000
C 	C 	0.91690 0.10440 0.39200 -0.09400
C 	C 	0.37240 0.90110 0.39080 0.01200
C 	C 	0.15420 0.36670 0.07710 -0.10000
C 	C 	0.75380 0.61980 0.43590 -0.07800
C 	C 	0.45520 0.64980 0.65340 -1.27500
C 	C 	0.70800 0.58180 0.11480 0.01500
C 	C 	0.25400 0.64380 0.86630 -2.66000
C 	C 	0.84100 0.65500 0.42780 -0.06500
C 	C 	0.00770 0.98440 0.92780 -0.01800
C 	C 	0.69800 0.86800 0.09290 -0.26800
C 	C 	0.95040 0.96210 0.95680 -0.18800
C 	C 	0.98640 0.96200 0.89140 -0.08100
C 	C 	0.74440 0.61810 0.08970 -0.10700
C 	C 	0.66250 0.84950 0.91410 -2.24900
C 	C 	0.33920 0.85940 0.44570 0.00800
C 	C 	0.77040 0.06880 0.05360 -0.11400
C 	C 	0.66900 0.63120 0.06370 0.01200
C 	C 	0.70750 0.11960 0.05580 -0.02300
C 	C 	0.41460 0.87070 0.41830 -0.10300
C 	C 	0.79550 0.08120 0.11820 -0.10900
C 	C 	0.94720 0.87470 0.64440 -2.27100
C 	C 	0.23870 0.38090 0.10180 -0.03200
C 	C 	0.96570 0.57930 0.43080 0.04900
C 	C 	0.07770 0.89610 0.06430 0.05700
C 	C 	0.44260 0.38230 0.38060 -0.03200
C 	C 	0.93760 0.87020 0.40840 0.10200
C 	C 	0.45050 0.60140 0.41300 0.09400
C 	C 	0.81810 0.09950 0.44770 -0.04400
C 	C 	0.82660 0.12150 0.41420 -0.04200
C 	C 	0.39360 0.39380 0.44480 -0.04100
C 	C 	0.39070 0.36490 0.41110 -0.07300
C 	C 	0.69570 0.15240 0.08940 -0.08200
C 	C 	0.73570 0.13320 0.12170 -0.02300
C 	C 	0.97360 0.84780 0.19660 0.51400
C 	C 	0.26160 0.88300 0.09280 0.00900
C 	C 	0.16470 0.86410 0.07620 -0.15200
C 	C 	0.23680 0.69360 0.46710 -0.54300
C 	C 	0.25470 0.94200 0.09550 -0.11800
C 	C 	0.40500 0.75490 0.02090 -2.06700
C 	C 	0.17850 0.97430 0.07760 0.02100
C 	C 	0.64710 0.33840 0.93830 0.37300
C 	C 	0.58080 0.27100 0.87190 -0.23900
C 	C 	0.78280 0.38690 0.90040 0.11400
C 	C 	0.91080 0.51070 0.94720 -0.06600
C 	C 	0.66410 0.31330 0.87140 0.13500
C 	C 	0.55880 0.29540 0.93950 -0.54400
C 	C 	0.92040 0.48450 0.04570 -0.34400
C 	C 	0.83970 0.43950 0.05120 0.50700
C 	C 	0.98640 0.50850 0.07540 0.30300
C 	C 	0.49850 0.28520 0.97450 1.16700
C 	C 	0.89970 0.44550 0.11440 0.49700
C 	C 	0.83310 0.41980 0.08790 -0.88800
C 	C 	0.91650 0.45910 0.91720 0.03700
C 	C 	0.69670 0.34760 0.90370 -0.23500
C 	C 	0.34230 0.16470 0.58420 -0.22900
C 	C 	0.30330 0.17090 0.54860 0.40500
C 	C 	0.20710 0.20620 0.54360 -0.61900
C 	C 	0.28130 0.18850 0.61580 0.12100
C 	C 	0.18060 0.21740 0.61040 -0.20600
C 	C 	0.17580 0.47960 0.55130 -0.04200
C 	C 	0.17580 0.48140 0.48620 0.08100
C 	C 	0.66140 0.20710 0.68060 0.43700
C 	C 	0.04260 0.40940 0.40120 -0.54900
C 	C 	0.06230 0.42530 0.43840 0.33100
C 	C 	0.14530 0.46670 0.44930 -0.23100
C 	C 	0.36920 0.08580 0.04960 0.42700
C 	C 	0.27090 0.08530 0.90140 0.07300
C 	C 	0.38380 0.00510 0.91480 -0.04300
C 	C 	0.57730 0.05830 0.58020 -0.03400
C 	C 	0.51100 0.05510 0.44350 0.52300
C 	C 	0.57090 0.00170 0.55380 -0.04500
C 	C 	0.59870 0.99580 0.48920 0.17600
C 	C 	0.15270 0.14880 0.94220 0.29800
C 	C 	0.48350 0.01060 0.94380 -0.03300
C 	C 	0.58400 0.00890 0.45260 -0.36800
C 	C 	0.86940 0.35550 0.57670 -0.26100
C 	C 	0.26850 0.43750 0.55910 0.03100
C 	C 	0.07480 0.47820 0.57790 -0.04100
C 	C 	0.69940 0.27800 0.56090 0.31100
C 	C 	0.06490 0.18990 0.94540 -0.38500
C 	C 	0.14940 0.22670 0.57490 0.30000
C 	C 	0.74020 0.28540 0.59700 -0.23300
C 	C 	0.03320 0.21740 0.91470 0.04300
C 	C 	0.83280 0.34570 0.54040 0.39200
C 	C 	0.82420 0.32440 0.60410 0.16100
C 	C 	0.68810 0.25030 0.62300 0.19500
C 	C 	0.55840 0.23380 0.83950 0.26100
C 	C 	0.93560 0.50500 0.01200 0.17700
C 	C 	0.20530 0.49400 0.42250 0.12500
C 	C 	0.81530 0.55400 0.93940 0.03800
C 	C 	0.10330 0.23200 0.64060 0.12400
C 	C 	0.47680 0.01740 0.00810 0.12800
C 	C 	0.00550 0.20650 0.98220 0.91100
C 	C 	0.05910 0.51050 0.13790 0.20600
C 	C 	0.28210 0.16470 0.09570 1.62200
C 	C 	0.99160 0.28390 0.85010 -0.23400
C 	C 	0.65380 0.99350 0.39050 -0.47700
C 	C 	0.96030 0.36280 0.38880 1.09900
C 	C 	0.01180 0.53540 0.58150 -0.00500
C 	C 	0.35530 0.11000 0.08700 -0.68100
C 	C 	0.39940 0.24220 0.96820 -1.58200
C 	C 	0.09960 0.20460 0.67140 -0.26500
C 	C 	0.63360 0.38210 0.08540 -2.83700
C 	C 	0.48910 0.18940 0.83510 -0.45800
C 	C 	0.04780 0.23470 0.84930 0.01500
C 	C 	0.57500 0.04510 0.93300 0.03600
C 	C 	0.43150 0.11680 0.39440 2.13400
C 	C 	0.51010 0.06810 0.40600 -0.92400
C 	C 	0.16000 0.16070 0.87550 0.02100
C 	C 	0.45240 0.33860 0.99440 -1.76600
C 	C 	0.75280 0.36880 0.09510 2.19000
C 	C 	0.25180 0.51170 0.36000 0.18900
C 	C 	0.95870 0.30990 0.81780 0.41700
C 	C 	0.79380 0.31570 0.07200 -2.73800
C 	C 	0.37710 0.45720 0.56310 -0.11000
C 	C 	0.41060 0.08510 0.11460 0.34100
C 	C 	0.08240 0.20350 0.88010 -0.07300
C 	C 	0.58100 0.03870 0.38200 0.58600
C 	C 	0.72090 0.24540 0.65830 -0.35300
C 	C 	0.01680 0.21880 0.70050 0.27200
C 	C 	0.32750 0.21330 0.07410 -2.04600
C 	C 	0.53000 0.26540 0.90640 0.28000
C 	C 	0.84330 0.94190 0.31060 0.58600
C 	C 	0.24440 0.50730 0.32470 -0.35300
C 	C 	0.72910 0.96550 0.36430 0.45500
C 	C 	0.62580 0.00080 0.19720 0.39600
C 	C 	0.65410 0.98180 0.42580 0.33500
C 	C 	0.32100 0.53800 0.30230 0.42100
C 	C 	0.73040 0.56800 0.96460 -0.13600
C 	C 	0.15250 0.51630 0.19600 0.48300
C 	C 	0.54500 0.02890 0.17340 -0.31900
C 	C 	0.76750 0.26740 0.46810 -1.56400
C 	C 	0.82000 0.57970 0.90660 -0.12300
C 	C 	0.28300 0.18630 0.13530 -2.14700
C 	C 	0.65020 0.35540 0.48090 -1.55100
C 	C 	0.25650 0.24810 0.48610 -1.90100
C 	C 	0.31410 0.95130 0.91490 0.01900
C 	C 	0.84030 0.37980 0.40070 -1.57000
C 	C 	0.54500 0.01210 0.13750 0.16200
C 	C 	0.75610 0.97190 0.33120 -0.61500
C 	C 	0.09060 0.23730 0.00960 -1.30300
C 	C 	0.00350 0.30440 0.40290 -1.59300
C 	C 	0.65120 0.60780 0.95530 0.00500
C 	C 	0.30690 0.10100 0.40140 -2.54700
C 	C 	0.06270 0.25680 0.50910 -1.89800
C 	C 	0.12820 0.16040 0.48540 -1.90700
C 	C 	0.68580 0.29800 0.49610 1.13000
C 	C 	0.00460 0.56680 0.61510 -0.17200
C 	C 	0.06070 0.49510 0.17200 -0.38200
C 	C 	0.96200 0.15290 0.99680 -1.26100
C 	C 	0.98230 0.49000 0.10980 -0.30400
C 	C 	0.16430 0.21780 0.50590 1.41800
C 	C 	0.39490 0.94130 0.54170 -0.12600
C 	C 	0.48250 0.96040 0.56420 0.03100
C 	C 	0.02920 0.43120 0.91500 -0.07500
C 	C 	0.18660 0.48040 0.38590 -0.21100
C 	C 	0.10620 0.43810 0.37630 0.26100
C 	C 	0.69220 0.08580 0.58090 0.03600
C 	C 	0.49060 0.93650 0.59740 -0.12000
C 	C 	0.58410 0.25760 0.00110 -1.44700
C 	C 	0.06260 0.39220 0.93860 -0.01400
C 	C 	0.10210 0.44390 0.88730 -0.02700
C 	C 	0.57670 0.26120 0.49590 -1.52300
C 	C 	0.76340 0.07620 0.60940 -0.10200
C 	C 	0.44910 0.36470 0.57720 -0.10000
C 	C 	0.72970 0.11860 0.55380 -0.08900
C 	C 	0.46390 0.17180 0.41470 -2.81100
C 	C 	0.95290 0.55420 0.55250 -0.03500
C 	C 	0.41690 0.89560 0.60800 -0.01100
C 	C 	0.87240 0.09890 0.60920 0.01400
C 	C 	0.65420 0.63330 0.92290 -0.11500
C 	C 	0.25380 0.38020 0.56410 -0.10300
C 	C 	0.95520 0.35020 0.34660 -1.29600
C 	C 	0.20800 0.41820 0.88520 -0.06700
C 	C 	0.75400 0.35620 0.13370 -2.87100
C 	C 	0.34100 0.34500 0.57220 -0.02100
C 	C 	0.50770 0.01560 0.07220 0.15000
C 	C 	0.19800 0.13200 0.90710 -0.17400
C 	C 	0.45040 0.03790 0.04320 -0.26900
C 	C 	0.48640 0.03800 0.10860 -0.23200
C 	C 	0.24440 0.38190 0.91030 -0.02800
C 	C 	0.16250 0.15050 0.08590 -2.23900
C 	C 	0.83920 0.14060 0.55430 0.00800
C 	C 	0.27040 0.93120 0.94640 -0.10000
C 	C 	0.16900 0.36880 0.93630 -0.07700
C 	C 	0.20750 0.88040 0.94420 -0.05100
C 	C 	0.91460 0.12930 0.58170 -0.09400
C 	C 	0.29550 0.91880 0.88180 -0.09000
C 	C 	0.44720 0.12530 0.35560 -2.81400
C 	C 	0.73870 0.61910 0.89820 -0.01000
C 	C 	0.46570 0.42070 0.56920 -0.00200
C 	C 	0.57770 0.10390 0.93570 -0.09600
C 	C 	0.94260 0.61770 0.61940 0.05500
C 	C 	0.43760 0.12980 0.59160 0.09400
C 	C 	0.95050 0.39860 0.58700 0.15500
C 	C 	0.31810 0.90050 0.55230 -0.00300
C 	C 	0.32660 0.87850 0.58580 -0.10500
C 	C 	0.89360 0.60620 0.55520 -0.03200
C 	C 	0.89070 0.63510 0.58890 -0.10000
C 	C 	0.19570 0.84760 0.91060 -0.07400
C 	C 	0.23570 0.86680 0.87830 -0.04700
C 	C 	0.47360 0.15220 0.80340 0.51100
C 	C 	0.76160 0.11700 0.90720 -0.12300
C 	C 	0.66470 0.13590 0.92380 0.00200
C 	C 	0.73680 0.30640 0.53290 -0.57000
C 	C 	0.75470 0.05800 0.90450 0.02600
C 	C 	0.90500 0.24510 0.97910 -1.35600
C 	C 	0.67850 0.02570 0.92240 -0.12500
N 	N 	0.32470 0.57900 0.07380 -0.26600
N 	N 	0.39040 0.51590 0.01810 -0.28300
N 	N 	0.05100 0.97670 0.48327 -0.30000
N 	N 	0.98910 0.90530 0.43290 -0.24500
N 	N 	0.50290 0.57170 0.43690 -0.27200
N 	N 	0.62730 0.53800 0.48530 -0.27700
N 	N 	0.81610 0.94300 0.07420 -0.26800
N 	N 	0.93610 0.96710 0.02190 -0.30700
N 	N 	0.82470 0.42100 0.92620 -0.27500
N 	N 	0.89040 0.48410 0.98190 -0.27900
N 	N 	0.55100 0.02330 0.51673 -0.29200
N 	N 	0.48910 0.09470 0.56710 -0.26700
N 	N 	0.00290 0.42830 0.56310 -0.30700
N 	N 	0.12730 0.46200 0.51470 -0.28100
N 	N 	0.31610 0.05700 0.92580 -0.26600
N 	N 	0.43610 0.03290 0.97810 -0.28600
Cl	Cl	0.21170 0.67174 0.24357 -0.63900
Cl	Cl	0.71170 0.32826 0.75643 -0.63200
O 	O 	0.18460 0.63540 0.03118 -0.52200
O 	O 	0.27410 0.58290 0.97453 -0.57300
O 	O 	0.85400 0.85360 0.48036 -0.53500
O 	O 	0.19860 0.80070 0.28760 -0.53100
O 	O 	0.80070 0.46180 0.73210 -0.46400
O 	O 	0.46360 0.71650 0.21334 -0.50800
O 	O 	0.72920 0.45340 0.81090 -0.45600
O 	O 	0.94480 0.91770 0.53154 -0.52400
O 	O 	0.41970 0.63870 0.17730 -0.47500
O 	O 	0.06610 0.81430 0.32860 -0.45600
O 	O 	0.45960 0.73510 0.29929 -0.41700
O 	O 	0.37540 0.62920 0.48642 -0.51600
O 	O 	0.49990 0.59830 0.53712 -0.49900
O 	O 	0.49300 0.81700 0.27740 -0.42800
O 	O 	0.04460 0.84900 0.22373 -0.53900
O 	O 	0.13570 0.98430 0.77100 -0.47700
O 	O 	0.88470 0.87770 0.19890 -0.51400
O 	O 	0.69200 0.87380 0.02879 -0.55100
O 	O 	0.81250 0.89470 0.97621 -0.55000
O 	O 	0.37480 0.04930 0.72021 -0.65700
O 	O 	0.90010 0.43290 0.68260 -0.30600
O 	O 	0.63600 0.50040 0.76870 -0.53300
O 	O 	0.39820 0.09490 0.67440 -0.49300
O 	O 	0.18060 0.04480 0.81670 -0.45800
O 	O 	0.68460 0.36460 0.96882 -0.52100
O 	O 	0.77410 0.41710 0.02547 -0.57900
O 	O 	0.35400 0.14640 0.51964 -0.53300
O 	O 	0.69860 0.19930 0.71240 -0.52400
O 	O 	0.30070 0.53820 0.26790 -0.47100
O 	O 	0.96360 0.28350 0.78666 -0.47800
O 	O 	0.22920 0.54660 0.18910 -0.45700
O 	O 	0.44480 0.08230 0.46846 -0.58600
O 	O 	0.91970 0.36130 0.82270 -0.44900
O 	O 	0.56610 0.18570 0.67140 -0.43900
O 	O 	0.95960 0.26490 0.70071 -0.35500
O 	O 	0.87540 0.37080 0.51358 -0.50800
O 	O 	0.99990 0.40170 0.46288 -0.46000
O 	O 	0.99300 0.18300 0.72260 -0.35700
O 	O 	0.54460 0.15100 0.77627 -0.50800
O 	O 	0.63570 0.01570 0.22900 -0.46400
O 	O 	0.38470 0.12230 0.80110 -0.52600
O 	O 	0.19200 0.12620 0.97121 -0.50100
O 	O 	0.31250 0.10530 0.02379 -0.55400
O 	O 	0.87480 0.95070 0.27979 -0.64800
O 	O 	0.40010 0.56710 0.31740 -0.31800
O 	O 	0.13600 0.49960 0.23130 -0.53900
O 	O 	0.89820 0.90510 0.32560 -0.48000
O 	O 	0.68060 0.95520 0.18330 -0.45000
