data_crystal

_cell_length_a 9.79700
_cell_length_b 14.14590
_cell_length_c 15.78200
_cell_angle_alpha 106.27300
_cell_angle_beta  100.85500
_cell_angle_gamma 105.96800

_symmetry_space_group_name_	'P 1'
_symmetry_space_group_name_H-M	'P 1'

loop_
_symmetry_equiv_pos_as_xyz
  x,y,z

loop_
_atom_site_label
_atom_site_type_symbol
_atom_site_fract_x
_atom_site_fract_y
_atom_site_fract_z
_atom_site_charge
Cu	Cu	0.80477 0.89383 0.92725 0.92100
S 	S 	0.97812 0.48261 0.70475 0.46400
O 	O 	0.94370 0.85018 0.86639 -0.40700
O 	O 	0.16640 0.95440 0.96457 -0.37900
O 	O 	0.59440 0.84864 0.92721 -0.36800
O 	O 	0.56810 0.70540 0.81173 -0.27700
O 	O 	0.87170 0.45680 0.75497 -0.25800
O 	O 	0.06490 0.41491 0.69197 -0.25600
O 	O 	0.90690 0.49310 0.61876 -0.22800
N 	N 	0.74550 0.01320 0.71910 -0.09000
N 	N 	0.66350 0.05710 0.76760 -0.09700
N 	N 	0.75850 0.96100 0.83620 -0.21500
N 	N 	0.94850 0.75530 0.10750 -0.09000
N 	N 	0.90060 0.82180 0.16430 -0.09600
N 	N 	0.86210 0.83690 0.02513 -0.22300
C 	C 	0.62800 0.01710 0.56670 -0.06900
C 	C 	0.53380 0.91500 0.51470 0.09700
C 	C 	0.40440 0.89640 0.44670 0.09700
C 	C 	0.77050 0.03500 0.63680 -0.03900
H 	H 	0.82110 0.98970 0.60790 0.04300
H 	H 	0.83590 0.10800 0.65530 0.04700
C 	C 	0.56620 0.82230 0.53260 -0.54500
H 	H 	0.67220 0.84120 0.55790 0.19900
H 	H 	0.53110 0.76300 0.47520 0.19300
H 	H 	0.51600 0.80350 0.57600 0.20200
C 	C 	0.30730 0.78410 0.38810 -0.55300
H 	H 	0.35720 0.75390 0.34600 0.19900
H 	H 	0.21390 0.78310 0.35320 0.20700
H 	H 	0.28890 0.74330 0.42760 0.20700
C 	C 	0.67410 0.02300 0.83710 0.09400
H 	H 	0.62750 0.03990 0.88320 0.01200
C 	C 	0.80130 0.95750 0.76120 0.09300
H 	H 	0.86260 0.92090 0.74070 0.01000
C 	C 	0.01050 0.59280 0.06570 -0.05600
C 	C 	0.13530 0.58640 0.03750 0.09700
C 	C 	0.12520 0.49210 0.97220 0.09700
C 	C 	0.01990 0.68900 0.14270 -0.06700
H 	H 	0.97160 0.66660 0.18630 0.07200
H 	H 	0.12420 0.73050 0.17590 0.06100
C 	C 	0.27850 0.67890 0.07630 -0.53500
H 	H 	0.25690 0.74350 0.08900 0.19600
H 	H 	0.33490 0.67520 0.03190 0.18400
H 	H 	0.33570 0.67750 0.13290 0.19100
C 	C 	0.26090 0.48220 0.94350 -0.52500
H 	H 	0.32580 0.47050 0.99100 0.18300
H 	H 	0.31310 0.54620 0.93490 0.17900
H 	H 	0.23090 0.42340 0.88610 0.19700
C 	C 	0.84900 0.86830 0.11110 0.09300
H 	H 	0.80640 0.91920 0.13130 0.01100
C 	C 	0.92610 0.76580 0.02580 0.09600
H 	H 	0.95170 0.72830 0.97570 0.00500
C 	C 	0.14250 0.78990 0.86040 -0.11200
C 	C 	0.29550 0.81280 0.87930 0.03600
H 	H 	0.36060 0.88090 0.91660 0.04700
C 	C 	0.35170 0.73570 0.84340 -0.09500
C 	C 	0.25590 0.63420 0.78970 0.02600
H 	H 	0.29390 0.58180 0.76510 0.04600
C 	C 	0.10390 0.61090 0.77260 -0.08800
C 	C 	0.04780 0.68880 0.80640 0.04400
H 	H 	0.94460 0.67310 0.79250 0.04500
C 	C 	0.08210 0.87380 0.90130 0.36900
C 	C 	0.51750 0.76430 0.86170 0.30800
Cu	Cu	0.19523 0.10617 0.07275 0.92100
S 	S 	0.02188 0.51739 0.29525 0.46400
O 	O 	0.05630 0.14982 0.13361 -0.40700
O 	O 	0.83360 0.04560 0.03543 -0.37900
O 	O 	0.40560 0.15136 0.07279 -0.36800
O 	O 	0.43190 0.29460 0.18827 -0.27700
O 	O 	0.12830 0.54320 0.24503 -0.25800
O 	O 	0.93510 0.58509 0.30803 -0.25600
O 	O 	0.09310 0.50690 0.38124 -0.22800
N 	N 	0.25450 0.98680 0.28090 -0.09000
N 	N 	0.33650 0.94290 0.23240 -0.09700
N 	N 	0.24150 0.03900 0.16380 -0.21500
N 	N 	0.05150 0.24470 0.89250 -0.09000
N 	N 	0.09940 0.17820 0.83570 -0.09600
N 	N 	0.13790 0.16310 0.97487 -0.22300
C 	C 	0.37200 0.98290 0.43330 -0.06900
C 	C 	0.46620 0.08500 0.48530 0.09700
C 	C 	0.59560 0.10360 0.55330 0.09700
C 	C 	0.22950 0.96500 0.36320 -0.03900
H 	H 	0.17890 0.01030 0.39210 0.04300
H 	H 	0.16410 0.89200 0.34470 0.04700
C 	C 	0.43380 0.17770 0.46740 -0.54500
H 	H 	0.32780 0.15880 0.44210 0.19900
H 	H 	0.46890 0.23700 0.52480 0.19300
H 	H 	0.48400 0.19650 0.42400 0.20200
C 	C 	0.69270 0.21590 0.61190 -0.55300
H 	H 	0.64280 0.24610 0.65400 0.19900
H 	H 	0.78610 0.21690 0.64680 0.20700
H 	H 	0.71110 0.25670 0.57240 0.20700
C 	C 	0.32590 0.97700 0.16290 0.09400
H 	H 	0.37250 0.96010 0.11680 0.01200
C 	C 	0.19870 0.04250 0.23880 0.09300
H 	H 	0.13740 0.07910 0.25930 0.01000
C 	C 	0.98950 0.40720 0.93430 -0.05600
C 	C 	0.86470 0.41360 0.96250 0.09700
C 	C 	0.87480 0.50790 0.02780 0.09700
C 	C 	0.98010 0.31100 0.85730 -0.06700
H 	H 	0.02840 0.33340 0.81370 0.07200
H 	H 	0.87580 0.26950 0.82410 0.06100
C 	C 	0.72150 0.32110 0.92370 -0.53500
H 	H 	0.74310 0.25650 0.91100 0.19600
H 	H 	0.66510 0.32480 0.96810 0.18400
H 	H 	0.66430 0.32250 0.86710 0.19100
C 	C 	0.73910 0.51780 0.05650 -0.52500
H 	H 	0.67420 0.52950 0.00900 0.18300
H 	H 	0.68690 0.45380 0.06510 0.17900
H 	H 	0.76910 0.57660 0.11390 0.19700
C 	C 	0.15100 0.13170 0.88890 0.09300
H 	H 	0.19360 0.08080 0.86870 0.01100
C 	C 	0.07390 0.23420 0.97420 0.09600
H 	H 	0.04830 0.27170 0.02430 0.00500
C 	C 	0.85750 0.21010 0.13960 -0.11200
C 	C 	0.70450 0.18720 0.12070 0.03600
H 	H 	0.63940 0.11910 0.08340 0.04700
C 	C 	0.64830 0.26430 0.15660 -0.09500
C 	C 	0.74410 0.36580 0.21030 0.02600
H 	H 	0.70610 0.41820 0.23490 0.04600
C 	C 	0.89610 0.38910 0.22740 -0.08800
C 	C 	0.95220 0.31120 0.19360 0.04400
H 	H 	0.05540 0.32690 0.20750 0.04500
C 	C 	0.91790 0.12620 0.09870 0.36900
C 	C 	0.48250 0.23570 0.13830 0.30800
