data_crystal

_cell_length_a 16.82900
_cell_length_b 14.35800
_cell_length_c 11.97700
_cell_angle_alpha 90.00000
_cell_angle_beta  118.15000
_cell_angle_gamma 90.00000

_symmetry_space_group_name_	'P 1'
_symmetry_space_group_name_H-M	'P 1'

loop_
_symmetry_equiv_pos_as_xyz
  x,y,z

loop_
_atom_site_label
_atom_site_type_symbol
_atom_site_fract_x
_atom_site_fract_y
_atom_site_fract_z
_atom_site_charge
Mg	Mg	0.09742 0.17680 0.90281 1.46600
C 	C 	0.41943 0.79240 0.81640 0.48600
C 	C 	0.39392 0.86510 0.88550 -0.15600
C 	C 	0.31118 0.91170 0.83110 0.08200
H 	H 	0.26840 0.89910 0.74800 0.00500
C 	C 	0.29331 0.97693 0.90180 -0.11100
C 	C 	0.35764 0.99690 0.02630 -0.02200
H 	H 	0.34570 0.04120 0.07310 0.05300
C 	C 	0.44000 0.94990 0.07990 0.02400
C 	C 	0.45685 0.88460 0.00910 0.03700
H 	H 	0.51160 0.85320 0.04520 0.04300
C 	C 	0.20363 0.02616 0.84920 0.38600
C 	C 	0.51430 0.99180 0.20530 1.09400
H 	H 	0.57410 0.98100 0.21470 -0.20800
H 	H 	0.50560 0.05800 0.21120 -0.31200
O 	O 	0.49527 0.75735 0.87980 -0.58300
O 	O 	0.36655 0.77172 0.70396 -0.51000
O 	O 	0.14021 0.00020 0.74690 -0.34500
O 	O 	0.19804 0.09178 0.91540 -0.52100
H 	H 	0.03410 0.04930 0.73920 0.36300
O 	O 	0.50000 0.94141 0.20721 -0.72700
Mg	Mg	0.59742 0.67680 0.90281 1.46300
C 	C 	0.91943 0.29240 0.81640 0.44600
C 	C 	0.89392 0.36510 0.88550 -0.06500
C 	C 	0.81118 0.41170 0.83110 0.02200
H 	H 	0.76840 0.39910 0.74800 0.01800
C 	C 	0.79331 0.47693 0.90180 -0.09000
C 	C 	0.85764 0.49690 0.02630 -0.05500
H 	H 	0.84570 0.54120 0.07310 0.04700
C 	C 	0.94000 0.44990 0.07990 0.03600
C 	C 	0.95685 0.38460 0.00910 -0.22000
H 	H 	0.01160 0.35320 0.04520 0.18400
C 	C 	0.70363 0.52616 0.84920 0.37900
C 	C 	0.01430 0.49180 0.20530 0.20300
H 	H 	0.07410 0.48100 0.21470 0.01400
H 	H 	0.00560 0.55800 0.21120 0.03400
O 	O 	0.99527 0.25735 0.87980 -0.64200
O 	O 	0.86655 0.27172 0.70396 -0.52600
O 	O 	0.64021 0.50020 0.74690 -0.36400
O 	O 	0.69804 0.59178 0.91540 -0.52800
H 	H 	0.53410 0.54930 0.73920 0.39500
O 	O 	0.00000 0.44141 0.20721 -0.16900
Mg	Mg	0.90258 0.17680 0.59719 1.45600
C 	C 	0.58057 0.79240 0.68360 0.49100
C 	C 	0.60608 0.86510 0.61450 -0.17100
C 	C 	0.68882 0.91170 0.66890 0.09700
H 	H 	0.73160 0.89910 0.75200 -0.01000
C 	C 	0.70669 0.97693 0.59820 -0.13700
C 	C 	0.64236 0.99690 0.47370 -0.00100
H 	H 	0.65430 0.04120 0.42690 0.04100
C 	C 	0.56000 0.94990 0.42010 0.01100
C 	C 	0.54315 0.88460 0.49090 0.05200
H 	H 	0.48840 0.85320 0.45480 0.03900
C 	C 	0.79637 0.02616 0.65080 0.39900
C 	C 	0.48570 0.99180 0.29470 1.09600
H 	H 	0.42590 0.98100 0.28530 -0.20800
H 	H 	0.49440 0.05800 0.28880 -0.31300
O 	O 	0.50473 0.75735 0.62020 -0.58500
O 	O 	0.63345 0.77172 0.79604 -0.51500
O 	O 	0.85979 0.00020 0.75310 -0.38300
O 	O 	0.80196 0.09178 0.58460 -0.54400
H 	H 	0.96590 0.04930 0.76080 0.27200
O 	O 	0.50000 0.94141 0.29279 -0.72200
Mg	Mg	0.40258 0.67680 0.59719 1.46400
C 	C 	0.08057 0.29240 0.68360 0.50700
C 	C 	0.10608 0.36510 0.61450 -0.24100
C 	C 	0.18882 0.41170 0.66890 0.13100
H 	H 	0.23160 0.39910 0.75200 -0.01700
C 	C 	0.20669 0.47693 0.59820 -0.15600
C 	C 	0.14236 0.49690 0.47370 0.01800
H 	H 	0.15430 0.54120 0.42690 0.04200
C 	C 	0.06000 0.44990 0.42010 -0.00300
C 	C 	0.04315 0.38460 0.49090 0.24500
H 	H 	0.98840 0.35320 0.45480 -0.11100
C 	C 	0.29637 0.52616 0.65080 0.40400
C 	C 	0.98570 0.49180 0.29470 0.58300
H 	H 	0.92590 0.48100 0.28530 -0.11200
H 	H 	0.99440 0.55800 0.28880 -0.23400
O 	O 	0.00473 0.25735 0.62020 -0.54500
O 	O 	0.13345 0.27172 0.79604 -0.50800
O 	O 	0.35979 0.50020 0.75310 -0.36900
O 	O 	0.30196 0.59178 0.58460 -0.53000
H 	H 	0.46590 0.54930 0.76080 0.39500
O 	O 	0.00000 0.44141 0.29279 -0.43600
O 	O 	0.00000 0.08758 0.75000 -0.92200
O 	O 	0.50000 0.58758 0.75000 -1.09400
Mg	Mg	0.90258 0.82320 0.09719 1.45600
C 	C 	0.58057 0.20760 0.18360 0.48900
C 	C 	0.60608 0.13490 0.11450 -0.16400
C 	C 	0.68882 0.08830 0.16890 0.09000
H 	H 	0.73160 0.10090 0.25200 -0.00800
C 	C 	0.70669 0.02307 0.09820 -0.12800
C 	C 	0.64236 0.00310 0.97370 -0.01400
H 	H 	0.65430 0.95880 0.92690 0.04800
C 	C 	0.56000 0.05010 0.92010 0.01800
C 	C 	0.54315 0.11540 0.99090 0.04400
H 	H 	0.48840 0.14680 0.95480 0.04100
C 	C 	0.79637 0.97384 0.15080 0.39400
C 	C 	0.48570 0.00820 0.79470 1.09300
H 	H 	0.42590 0.01900 0.78530 -0.20700
H 	H 	0.49440 0.94200 0.78880 -0.31100
O 	O 	0.50473 0.24265 0.12020 -0.58400
O 	O 	0.63345 0.22828 0.29604 -0.51500
O 	O 	0.85979 0.99980 0.25310 -0.38300
O 	O 	0.80196 0.90822 0.08460 -0.54500
H 	H 	0.96590 0.95070 0.26080 0.26600
O 	O 	0.50000 0.05859 0.79279 -0.72500
Mg	Mg	0.40258 0.32320 0.09719 1.46400
C 	C 	0.08057 0.70760 0.18360 0.50300
C 	C 	0.10608 0.63490 0.11450 -0.23100
C 	C 	0.18882 0.58830 0.16890 0.12400
H 	H 	0.23160 0.60090 0.25200 -0.01400
C 	C 	0.20669 0.52307 0.09820 -0.14900
C 	C 	0.14236 0.50310 0.97370 0.01000
H 	H 	0.15430 0.45880 0.92690 0.04400
C 	C 	0.06000 0.55010 0.92010 0.00400
C 	C 	0.04315 0.61540 0.99090 0.22800
H 	H 	0.98840 0.64680 0.95480 -0.10100
C 	C 	0.29637 0.47384 0.15080 0.40200
C 	C 	0.98570 0.50820 0.79470 0.60300
H 	H 	0.92590 0.51900 0.78530 -0.11500
H 	H 	0.99440 0.44200 0.78880 -0.23600
O 	O 	0.00473 0.74265 0.12020 -0.54400
O 	O 	0.13345 0.72828 0.29604 -0.50600
O 	O 	0.35979 0.49980 0.25310 -0.36900
O 	O 	0.30196 0.40822 0.08460 -0.52800
H 	H 	0.46590 0.45070 0.26080 0.39500
O 	O 	0.00000 0.55859 0.79279 -0.44900
Mg	Mg	0.09742 0.82320 0.40281 1.46700
C 	C 	0.41943 0.20760 0.31640 0.48900
C 	C 	0.39392 0.13490 0.38550 -0.16400
C 	C 	0.31118 0.08830 0.33110 0.09000
H 	H 	0.26840 0.10090 0.24800 0.00200
C 	C 	0.29331 0.02307 0.40180 -0.12300
C 	C 	0.35764 0.00310 0.52630 -0.00800
H 	H 	0.34570 0.95880 0.57310 0.04600
C 	C 	0.44000 0.05010 0.57990 0.01600
C 	C 	0.45685 0.11540 0.50910 0.04700
H 	H 	0.51160 0.14680 0.54520 0.04000
C 	C 	0.20363 0.97384 0.34920 0.39200
C 	C 	0.51430 0.00820 0.70530 1.09200
H 	H 	0.57410 0.01900 0.71470 -0.20800
H 	H 	0.50560 0.94200 0.71120 -0.31100
O 	O 	0.49527 0.24265 0.37980 -0.58500
O 	O 	0.36655 0.22828 0.20396 -0.51000
O 	O 	0.14021 0.99980 0.24690 -0.34600
O 	O 	0.19804 0.90822 0.41540 -0.52000
H 	H 	0.03410 0.95070 0.23920 0.36100
O 	O 	0.50000 0.05859 0.70721 -0.72200
Mg	Mg	0.59742 0.32320 0.40281 1.46300
C 	C 	0.91943 0.70760 0.31640 0.45000
C 	C 	0.89392 0.63490 0.38550 -0.07600
C 	C 	0.81118 0.58830 0.33110 0.02900
H 	H 	0.76840 0.60090 0.24800 0.01500
C 	C 	0.79331 0.52307 0.40180 -0.09800
C 	C 	0.85764 0.50310 0.52630 -0.04600
H 	H 	0.84570 0.45880 0.57310 0.04400
C 	C 	0.94000 0.55010 0.57990 0.03100
C 	C 	0.95685 0.61540 0.50910 -0.20500
H 	H 	0.01160 0.64680 0.54520 0.17900
C 	C 	0.70363 0.47384 0.34920 0.38200
C 	C 	0.01430 0.50820 0.70530 0.24100
H 	H 	0.07410 0.51900 0.71470 0.00400
H 	H 	0.00560 0.44200 0.71120 0.02000
O 	O 	0.99527 0.74265 0.37980 -0.64600
O 	O 	0.86655 0.72828 0.20396 -0.52800
O 	O 	0.64021 0.49980 0.24690 -0.36500
O 	O 	0.69804 0.40822 0.41540 -0.53000
H 	H 	0.53410 0.45070 0.23920 0.39500
O 	O 	0.00000 0.55859 0.70721 -0.19000
O 	O 	0.00000 0.91242 0.25000 -0.91200
O 	O 	0.50000 0.41242 0.25000 -1.09400
