data_crystal

_cell_length_a 11.28740
_cell_length_b 11.89170
_cell_length_c 17.53520
_cell_angle_alpha 90.00000
_cell_angle_beta  90.00000
_cell_angle_gamma 106.72300

_symmetry_space_group_name_	'P 1'
_symmetry_space_group_name_H-M	'P 1'

loop_
_symmetry_equiv_pos_as_xyz
  x,y,z

loop_
_atom_site_label
_atom_site_type_symbol
_atom_site_fract_x
_atom_site_fract_y
_atom_site_fract_z
_atom_site_charge
Tm	Tm	0.76145 0.64343 0.00175 1.55200
Tm	Tm	0.20569 0.83216 0.98720 1.42900
Tm	Tm	0.23855 0.35657 0.50175 1.55500
Tm	Tm	0.79431 0.16784 0.48720 1.43400
Tm	Tm	0.23855 0.35657 0.99825 1.55100
Tm	Tm	0.79431 0.16784 0.01280 1.42800
Tm	Tm	0.76145 0.64343 0.49825 1.55400
Tm	Tm	0.20569 0.83216 0.51280 1.43300
H 	H 	0.05430 0.32200 0.75000 0.01800
H 	H 	0.61430 0.81360 0.75000 0.05000
H 	H 	0.99740 0.80250 0.75000 0.01300
H 	H 	0.76610 0.53060 0.75000 0.07600
H 	H 	0.35800 0.43080 0.75000 0.05700
H 	H 	0.94570 0.67800 0.25000 0.01800
H 	H 	0.38570 0.18640 0.25000 0.05000
H 	H 	0.00260 0.19750 0.25000 0.01300
H 	H 	0.23390 0.46940 0.25000 0.07600
H 	H 	0.64200 0.56920 0.25000 0.05700
C 	C 	0.95450 0.39460 0.81910 -0.09700
C 	C 	0.86700 0.45810 0.81960 -0.01800
C 	C 	0.00690 0.35630 0.89120 0.39300
C 	C 	0.92490 0.90060 0.81870 -0.09900
C 	C 	0.85840 0.98330 0.81900 -0.06000
C 	C 	0.82460 0.50520 0.89000 0.26400
C 	C 	0.44620 0.56480 0.81980 -0.04200
C 	C 	0.57100 0.74750 0.89250 0.34500
C 	C 	0.96680 0.84940 0.88860 0.44000
C 	C 	0.52420 0.68020 0.81950 -0.06900
C 	C 	0.83040 0.03900 0.88980 0.30300
C 	C 	0.39070 0.49890 0.88960 0.30700
C 	C 	0.04550 0.60540 0.31910 -0.10500
C 	C 	0.13300 0.54190 0.31960 -0.01700
C 	C 	0.99310 0.64370 0.39120 0.40800
C 	C 	0.07510 0.09940 0.31870 -0.09800
C 	C 	0.14160 0.01670 0.31900 -0.06000
C 	C 	0.17540 0.49480 0.39000 0.26400
C 	C 	0.55380 0.43520 0.31980 -0.04200
C 	C 	0.42900 0.25250 0.39250 0.34600
C 	C 	0.03320 0.15060 0.38860 0.43300
C 	C 	0.47580 0.31980 0.31950 -0.06900
C 	C 	0.16960 0.96100 0.38980 0.30300
C 	C 	0.60930 0.50110 0.38960 0.30700
C 	C 	0.04550 0.60540 0.18090 -0.09700
C 	C 	0.13300 0.54190 0.18040 -0.01800
C 	C 	0.99310 0.64370 0.10880 0.39300
C 	C 	0.07510 0.09940 0.18130 -0.09900
C 	C 	0.14160 0.01670 0.18100 -0.06000
C 	C 	0.17540 0.49480 0.11000 0.26400
C 	C 	0.55380 0.43520 0.18020 -0.04200
C 	C 	0.42900 0.25250 0.10750 0.34500
C 	C 	0.03320 0.15060 0.11140 0.44000
C 	C 	0.47580 0.31980 0.18050 -0.06900
C 	C 	0.16960 0.96100 0.11020 0.30300
C 	C 	0.60930 0.50110 0.11040 0.30700
C 	C 	0.95450 0.39460 0.68090 -0.10500
C 	C 	0.86700 0.45810 0.68040 -0.01700
C 	C 	0.00690 0.35630 0.60880 0.40800
C 	C 	0.92490 0.90060 0.68130 -0.09800
C 	C 	0.85840 0.98330 0.68100 -0.06000
C 	C 	0.82460 0.50520 0.61000 0.26400
C 	C 	0.44620 0.56480 0.68020 -0.04200
C 	C 	0.57100 0.74750 0.60750 0.34600
C 	C 	0.96680 0.84940 0.61140 0.43300
C 	C 	0.52420 0.68020 0.68050 -0.06900
C 	C 	0.83040 0.03900 0.61020 0.30300
C 	C 	0.39070 0.49890 0.61040 0.30700
C 	C 	0.99650 0.36410 0.75000 0.05600
C 	C 	0.56260 0.73700 0.75000 -0.00100
C 	C 	0.95540 0.85930 0.75000 0.03600
C 	C 	0.82420 0.48880 0.75000 -0.04600
C 	C 	0.82500 0.02290 0.75000 0.06600
C 	C 	0.40870 0.50790 0.75000 -0.01300
C 	C 	0.00350 0.63590 0.25000 0.05600
C 	C 	0.43740 0.26300 0.25000 -0.00100
C 	C 	0.04460 0.14070 0.25000 0.03600
C 	C 	0.17580 0.51120 0.25000 -0.04600
C 	C 	0.17500 0.97710 0.25000 0.06600
C 	C 	0.59130 0.49210 0.25000 -0.01300
O 	O 	0.37980 0.39110 0.89460 -0.37800
O 	O 	0.88950 0.03590 0.95000 -0.36700
O 	O 	0.71990 0.52460 0.88990 -0.34800
O 	O 	0.89300 0.53160 0.94810 -0.35100
O 	O 	0.34610 0.54790 0.94260 -0.37500
O 	O 	0.74770 0.09310 0.88780 -0.38500
O 	O 	0.56950 0.85110 0.89640 -0.31400
O 	O 	0.88960 0.77480 0.92650 -0.47700
O 	O 	0.08140 0.87810 0.90000 -0.49000
O 	O 	0.12130 0.38580 0.89700 -0.43400
O 	O 	0.60750 0.69340 0.94580 -0.42100
O 	O 	0.93310 0.29320 0.93820 -0.45600
O 	O 	0.62020 0.60890 0.39460 -0.37800
O 	O 	0.11050 0.96410 0.45000 -0.37400
O 	O 	0.28010 0.47540 0.38990 -0.35000
O 	O 	0.10700 0.46840 0.44810 -0.35600
O 	O 	0.65390 0.45210 0.44260 -0.37400
O 	O 	0.25230 0.90690 0.38780 -0.38800
O 	O 	0.43050 0.14890 0.39640 -0.31400
O 	O 	0.11040 0.22520 0.42650 -0.47800
O 	O 	0.91860 0.12190 0.40000 -0.48200
O 	O 	0.87870 0.61420 0.39700 -0.43700
O 	O 	0.39250 0.30660 0.44580 -0.42300
O 	O 	0.06690 0.70680 0.43820 -0.46700
O 	O 	0.62020 0.60890 0.10540 -0.37800
O 	O 	0.11050 0.96410 0.05000 -0.36700
O 	O 	0.28010 0.47540 0.11010 -0.34800
O 	O 	0.10700 0.46840 0.05190 -0.35100
O 	O 	0.65390 0.45210 0.05740 -0.37500
O 	O 	0.25230 0.90690 0.11220 -0.38500
O 	O 	0.43050 0.14890 0.10360 -0.31400
O 	O 	0.11040 0.22520 0.07350 -0.47700
O 	O 	0.91860 0.12190 0.10000 -0.49000
O 	O 	0.87870 0.61420 0.10300 -0.43400
O 	O 	0.39250 0.30660 0.05420 -0.42100
O 	O 	0.06690 0.70680 0.06180 -0.45600
O 	O 	0.37980 0.39110 0.60540 -0.37800
O 	O 	0.88950 0.03590 0.55000 -0.37400
O 	O 	0.71990 0.52460 0.61010 -0.35000
O 	O 	0.89300 0.53160 0.55190 -0.35600
O 	O 	0.34610 0.54790 0.55740 -0.37400
O 	O 	0.74770 0.09310 0.61220 -0.38800
O 	O 	0.56950 0.85110 0.60360 -0.31400
O 	O 	0.88960 0.77480 0.57350 -0.47800
O 	O 	0.08140 0.87810 0.60000 -0.48200
O 	O 	0.12130 0.38580 0.60300 -0.43700
O 	O 	0.60750 0.69340 0.55420 -0.42300
O 	O 	0.93310 0.29320 0.56180 -0.46700
