data_crystal

_cell_length_a 20.17530
_cell_length_b 20.17530
_cell_length_c 25.03290
_cell_angle_alpha 90.00000
_cell_angle_beta  90.00000
_cell_angle_gamma 120.00000

_symmetry_space_group_name_	'P 1'
_symmetry_space_group_name_H-M	'P 1'

loop_
_symmetry_equiv_pos_as_xyz
  x,y,z

loop_
_atom_site_label
_atom_site_type_symbol
_atom_site_fract_x
_atom_site_fract_y
_atom_site_fract_z
_atom_site_charge
O 	O 	0.43650 0.23500 0.40010 -0.17000
O 	O 	0.14270 0.12780 0.43200 -0.57400
C 	C 	0.30190 0.18000 0.39950 0.10900
H 	H 	0.30480 0.20130 0.43350 0.01500
C 	C 	0.36440 0.21120 0.36600 -0.07700
C 	C 	0.29920 0.11600 0.30340 -0.08500
H 	H 	0.29800 0.09120 0.27130 0.04600
C 	C 	0.23530 0.08550 0.33580 0.11400
H 	H 	0.19040 0.04130 0.32490 0.01400
O 	O 	0.64990 0.46050 0.39910 -0.38200
H 	H 	0.60950 0.58750 0.48840 0.21400
C 	C 	0.52890 0.59160 0.53270 0.22400
H 	H 	0.56010 0.64250 0.54400 -0.10500
N 	N 	0.56720 0.36700 0.40670 -0.21200
C 	C 	0.51650 0.37500 0.43330 -0.07600
H 	H 	0.46600 0.33620 0.44010 0.10900
H 	H 	0.40930 0.25500 0.37750 0.12800
O 	O 	0.76500 0.20150 0.40010 -0.17100
O 	O 	0.87220 0.01490 0.43200 -0.57600
C 	C 	0.82000 0.12190 0.39950 0.11000
H 	H 	0.79870 0.10350 0.43350 0.01400
C 	C 	0.78880 0.15320 0.36600 -0.07700
C 	C 	0.88400 0.18320 0.30340 -0.08800
H 	H 	0.90880 0.20680 0.27130 0.04600
C 	C 	0.91450 0.14980 0.33580 0.11600
H 	H 	0.95870 0.14910 0.32490 0.01000
O 	O 	0.53950 0.18940 0.39910 -0.37800
H 	H 	0.41250 0.02200 0.48840 0.20700
C 	C 	0.40840 0.93730 0.53270 0.21700
H 	H 	0.35750 0.91760 0.54400 -0.10100
N 	N 	0.63300 0.20020 0.40670 -0.21500
C 	C 	0.62500 0.14150 0.43330 -0.08100
H 	H 	0.66380 0.12980 0.44010 0.10900
H 	H 	0.74500 0.15430 0.37750 0.12800
O 	O 	0.79850 0.56350 0.40010 -0.17400
O 	O 	0.98510 0.85730 0.43200 -0.58500
C 	C 	0.87810 0.69810 0.39950 0.10800
H 	H 	0.89650 0.69520 0.43350 0.01300
C 	C 	0.84680 0.63560 0.36600 -0.07700
C 	C 	0.81680 0.70080 0.30340 -0.08500
H 	H 	0.79320 0.70200 0.27130 0.04500
C 	C 	0.85020 0.76470 0.33580 0.11500
H 	H 	0.85090 0.80960 0.32490 0.01000
O 	O 	0.81060 0.35010 0.39910 -0.37700
H 	H 	0.97800 0.39050 0.48840 0.16400
C 	C 	0.06270 0.47110 0.53270 0.16500
H 	H 	0.08240 0.43990 0.54400 -0.07700
N 	N 	0.79980 0.43280 0.40670 -0.20800
C 	C 	0.85850 0.48350 0.43330 -0.09700
H 	H 	0.87020 0.53400 0.44010 0.11300
H 	H 	0.84570 0.59070 0.37750 0.12800
O 	O 	0.56350 0.76500 0.90010 -0.17300
O 	O 	0.85730 0.87220 0.93200 -0.59100
C 	C 	0.69810 0.82000 0.89950 0.11200
H 	H 	0.69520 0.79870 0.93350 0.00900
C 	C 	0.63560 0.78880 0.86600 -0.07800
C 	C 	0.70080 0.88400 0.80340 -0.08700
H 	H 	0.70200 0.90880 0.77130 0.04500
C 	C 	0.76470 0.91450 0.83580 0.11800
H 	H 	0.80960 0.95870 0.82490 0.00700
O 	O 	0.35010 0.53950 0.89910 -0.36600
H 	H 	0.39050 0.41250 0.98840 0.03900
C 	C 	0.47110 0.40840 0.03270 0.01900
H 	H 	0.43990 0.35750 0.04400 -0.01100
N 	N 	0.43280 0.63300 0.90670 -0.19600
C 	C 	0.48350 0.62500 0.93330 -0.14700
H 	H 	0.53400 0.66380 0.94010 0.12100
H 	H 	0.59070 0.74500 0.87750 0.12700
O 	O 	0.23500 0.79850 0.90010 -0.17300
O 	O 	0.12780 0.98510 0.93200 -0.58500
C 	C 	0.18000 0.87810 0.89950 0.11000
H 	H 	0.20130 0.89650 0.93350 0.01000
C 	C 	0.21120 0.84680 0.86600 -0.07900
C 	C 	0.11600 0.81680 0.80340 -0.08600
H 	H 	0.09120 0.79320 0.77130 0.04600
C 	C 	0.08550 0.85020 0.83580 0.11600
H 	H 	0.04130 0.85090 0.82490 0.01200
O 	O 	0.46050 0.81060 0.89910 -0.36400
H 	H 	0.58750 0.97800 0.98840 0.02700
C 	C 	0.59160 0.06270 0.03270 0.00400
H 	H 	0.64250 0.08240 0.04400 -0.00400
N 	N 	0.36700 0.79980 0.90670 -0.19500
C 	C 	0.37500 0.85850 0.93330 -0.15100
H 	H 	0.33620 0.87020 0.94010 0.12200
H 	H 	0.25500 0.84570 0.87750 0.12700
O 	O 	0.20150 0.43650 0.90010 -0.17400
O 	O 	0.01490 0.14270 0.93200 -0.58200
C 	C 	0.12190 0.30190 0.89950 0.11000
H 	H 	0.10350 0.30480 0.93350 0.01100
C 	C 	0.15320 0.36440 0.86600 -0.07700
C 	C 	0.18320 0.29920 0.80340 -0.08700
H 	H 	0.20680 0.29800 0.77130 0.04500
C 	C 	0.14980 0.23530 0.83580 0.11600
H 	H 	0.14910 0.19040 0.82490 0.01000
O 	O 	0.18940 0.64990 0.89910 -0.35600
H 	H 	0.02200 0.60950 0.98840 0.03800
C 	C 	0.93730 0.52890 0.03270 0.02000
H 	H 	0.91760 0.56010 0.04400 -0.01100
N 	N 	0.20020 0.56720 0.90670 -0.20400
C 	C 	0.14150 0.51650 0.93330 -0.15200
H 	H 	0.12980 0.46600 0.94010 0.11900
H 	H 	0.15430 0.40930 0.87750 0.12700
O 	O 	0.23500 0.43650 0.59990 -0.17000
O 	O 	0.12780 0.14270 0.56800 -0.57700
C 	C 	0.18000 0.30190 0.60050 0.10800
H 	H 	0.20130 0.30480 0.56650 0.01400
C 	C 	0.21120 0.36440 0.63400 -0.07900
C 	C 	0.11600 0.29920 0.69660 -0.08600
H 	H 	0.09120 0.29800 0.72870 0.04600
C 	C 	0.08550 0.23530 0.66420 0.11400
H 	H 	0.04130 0.19040 0.67510 0.01300
O 	O 	0.46050 0.64990 0.60090 -0.38200
H 	H 	0.58750 0.60950 0.51160 0.21400
C 	C 	0.59160 0.52890 0.46730 0.22300
H 	H 	0.64250 0.56010 0.45600 -0.10400
N 	N 	0.36700 0.56720 0.59330 -0.21300
C 	C 	0.37500 0.51650 0.56670 -0.07800
H 	H 	0.33620 0.46600 0.55990 0.11000
H 	H 	0.25500 0.40930 0.62250 0.12700
O 	O 	0.20150 0.76500 0.59990 -0.17400
O 	O 	0.01490 0.87220 0.56800 -0.57100
C 	C 	0.12190 0.82000 0.60050 0.10700
H 	H 	0.10350 0.79870 0.56650 0.01600
C 	C 	0.15320 0.78880 0.63400 -0.07600
C 	C 	0.18320 0.88400 0.69660 -0.08600
H 	H 	0.20680 0.90880 0.72870 0.04500
C 	C 	0.14980 0.91450 0.66420 0.11300
H 	H 	0.14910 0.95870 0.67510 0.01200
O 	O 	0.18940 0.53950 0.60090 -0.36500
H 	H 	0.02200 0.41250 0.51160 0.18700
C 	C 	0.93730 0.40840 0.46730 0.19500
H 	H 	0.91760 0.35750 0.45600 -0.09000
N 	N 	0.20020 0.63300 0.59330 -0.22100
C 	C 	0.14150 0.62500 0.56670 -0.09400
H 	H 	0.12980 0.66380 0.55990 0.11000
H 	H 	0.15430 0.74500 0.62250 0.12800
O 	O 	0.56350 0.79850 0.59990 -0.17200
O 	O 	0.85730 0.98510 0.56800 -0.58200
C 	C 	0.69810 0.87810 0.60050 0.10800
H 	H 	0.69520 0.89650 0.56650 0.01300
C 	C 	0.63560 0.84680 0.63400 -0.07700
C 	C 	0.70080 0.81680 0.69660 -0.08600
H 	H 	0.70200 0.79320 0.72870 0.04500
C 	C 	0.76470 0.85020 0.66420 0.11500
H 	H 	0.80960 0.85090 0.67510 0.00900
O 	O 	0.35010 0.81060 0.60090 -0.38000
H 	H 	0.39050 0.97800 0.51160 0.20100
C 	C 	0.47110 0.06270 0.46730 0.20700
H 	H 	0.43990 0.08240 0.45600 -0.09600
N 	N 	0.43280 0.79980 0.59330 -0.21200
C 	C 	0.48350 0.85850 0.56670 -0.08300
H 	H 	0.53400 0.87020 0.55990 0.11000
H 	H 	0.59070 0.84570 0.62250 0.12700
O 	O 	0.76500 0.56350 0.09990 -0.17200
O 	O 	0.87220 0.85730 0.06800 -0.57100
C 	C 	0.82000 0.69810 0.10050 0.10600
H 	H 	0.79870 0.69520 0.06650 0.02100
C 	C 	0.78880 0.63560 0.13400 -0.07600
C 	C 	0.88400 0.70080 0.19660 -0.08700
H 	H 	0.90880 0.70200 0.22870 0.04500
C 	C 	0.91450 0.76470 0.16420 0.11300
H 	H 	0.95870 0.80960 0.17510 0.01000
O 	O 	0.53950 0.35010 0.10090 -0.32000
H 	H 	0.41250 0.39050 0.01160 0.11800
C 	C 	0.40840 0.47110 0.96730 0.12200
H 	H 	0.35750 0.43990 0.95600 -0.05400
N 	N 	0.63300 0.43280 0.09330 -0.24500
C 	C 	0.62500 0.48350 0.06670 -0.14100
H 	H 	0.66380 0.53400 0.05990 0.11400
H 	H 	0.74500 0.59070 0.12250 0.12600
O 	O 	0.79850 0.23500 0.09990 -0.17200
O 	O 	0.98510 0.12780 0.06800 -0.57100
C 	C 	0.87810 0.18000 0.10050 0.10400
H 	H 	0.89650 0.20130 0.06650 0.02100
C 	C 	0.84680 0.21120 0.13400 -0.07700
C 	C 	0.81680 0.11600 0.19660 -0.08500
H 	H 	0.79320 0.09120 0.22870 0.04600
C 	C 	0.85020 0.08550 0.16420 0.11200
H 	H 	0.85090 0.04130 0.17510 0.01400
O 	O 	0.81060 0.46050 0.10090 -0.32300
H 	H 	0.97800 0.58750 0.01160 0.09000
C 	C 	0.06270 0.59160 0.96730 0.08900
H 	H 	0.08240 0.64250 0.95600 -0.03900
N 	N 	0.79980 0.36700 0.09330 -0.24000
C 	C 	0.85850 0.37500 0.06670 -0.15000
H 	H 	0.87020 0.33620 0.05990 0.11700
H 	H 	0.84570 0.25500 0.12250 0.12600
O 	O 	0.43650 0.20150 0.09990 -0.17200
O 	O 	0.14270 0.01490 0.06800 -0.56300
C 	C 	0.30190 0.12190 0.10050 0.10300
H 	H 	0.30480 0.10350 0.06650 0.02300
C 	C 	0.36440 0.15320 0.13400 -0.07500
C 	C 	0.29920 0.18320 0.19660 -0.08500
H 	H 	0.29800 0.20680 0.22870 0.04600
C 	C 	0.23530 0.14980 0.16420 0.11100
H 	H 	0.19040 0.14910 0.17510 0.01500
O 	O 	0.64990 0.18940 0.10090 -0.31600
H 	H 	0.60950 0.02200 0.01160 0.11100
C 	C 	0.52890 0.93730 0.96730 0.11400
H 	H 	0.56010 0.91760 0.95600 -0.05000
N 	N 	0.56720 0.20020 0.09330 -0.24600
C 	C 	0.51650 0.14150 0.06670 -0.14500
H 	H 	0.46600 0.12980 0.05990 0.11500
H 	H 	0.40930 0.15430 0.12250 0.12600
O 	O 	0.56350 0.76500 0.59990 -0.17100
O 	O 	0.85730 0.87220 0.56800 -0.58100
C 	C 	0.69810 0.82000 0.60050 0.10900
H 	H 	0.69520 0.79870 0.56650 0.01400
C 	C 	0.63560 0.78880 0.63400 -0.07800
C 	C 	0.70080 0.88400 0.69660 -0.08700
H 	H 	0.70200 0.90880 0.72870 0.04500
C 	C 	0.76470 0.91450 0.66420 0.11600
H 	H 	0.80960 0.95870 0.67510 0.00800
O 	O 	0.35010 0.53950 0.60090 -0.38100
H 	H 	0.39050 0.41250 0.51160 0.21400
C 	C 	0.47110 0.40840 0.46730 0.22300
H 	H 	0.43990 0.35750 0.45600 -0.10400
N 	N 	0.43280 0.63300 0.59330 -0.21300
C 	C 	0.48350 0.62500 0.56670 -0.07800
H 	H 	0.53400 0.66380 0.55990 0.10900
H 	H 	0.59070 0.74500 0.62250 0.12700
O 	O 	0.23500 0.79850 0.59990 -0.17000
O 	O 	0.12780 0.98510 0.56800 -0.57800
C 	C 	0.18000 0.87810 0.60050 0.10800
H 	H 	0.20130 0.89650 0.56650 0.01400
C 	C 	0.21120 0.84680 0.63400 -0.07800
C 	C 	0.11600 0.81680 0.69660 -0.08600
H 	H 	0.09120 0.79320 0.72870 0.04600
C 	C 	0.08550 0.85020 0.66420 0.11400
H 	H 	0.04130 0.85090 0.67510 0.01300
O 	O 	0.46050 0.81060 0.60090 -0.38000
H 	H 	0.58750 0.97800 0.51160 0.20000
C 	C 	0.59160 0.06270 0.46730 0.20600
H 	H 	0.64250 0.08240 0.45600 -0.09600
N 	N 	0.36700 0.79980 0.59330 -0.21200
C 	C 	0.37500 0.85850 0.56670 -0.08300
H 	H 	0.33620 0.87020 0.55990 0.11100
H 	H 	0.25500 0.84570 0.62250 0.12700
O 	O 	0.20150 0.43650 0.59990 -0.17400
O 	O 	0.01490 0.14270 0.56800 -0.57200
C 	C 	0.12190 0.30190 0.60050 0.10600
H 	H 	0.10350 0.30480 0.56650 0.01600
C 	C 	0.15320 0.36440 0.63400 -0.07600
C 	C 	0.18320 0.29920 0.69660 -0.08600
H 	H 	0.20680 0.29800 0.72870 0.04500
C 	C 	0.14980 0.23530 0.66420 0.11300
H 	H 	0.14910 0.19040 0.67510 0.01200
O 	O 	0.18940 0.64990 0.60090 -0.36400
H 	H 	0.02200 0.60950 0.51160 0.18700
C 	C 	0.93730 0.52890 0.46730 0.19400
H 	H 	0.91760 0.56010 0.45600 -0.09000
N 	N 	0.20020 0.56720 0.59330 -0.22100
C 	C 	0.14150 0.51650 0.56670 -0.09500
H 	H 	0.12980 0.46600 0.55990 0.11000
H 	H 	0.15430 0.40930 0.62250 0.12700
O 	O 	0.43650 0.23500 0.09990 -0.17200
O 	O 	0.14270 0.12780 0.06800 -0.56500
C 	C 	0.30190 0.18000 0.10050 0.10400
H 	H 	0.30480 0.20130 0.06650 0.02200
C 	C 	0.36440 0.21120 0.13400 -0.07700
C 	C 	0.29920 0.11600 0.19660 -0.08500
H 	H 	0.29800 0.09120 0.22870 0.04700
C 	C 	0.23530 0.08550 0.16420 0.11100
H 	H 	0.19040 0.04130 0.17510 0.01600
O 	O 	0.64990 0.46050 0.10090 -0.32100
H 	H 	0.60950 0.58750 0.01160 0.11800
C 	C 	0.52890 0.59160 0.96730 0.12300
H 	H 	0.56010 0.64250 0.95600 -0.05500
N 	N 	0.56720 0.36700 0.09330 -0.24600
C 	C 	0.51650 0.37500 0.06670 -0.14100
H 	H 	0.46600 0.33620 0.05990 0.11400
H 	H 	0.40930 0.25500 0.12250 0.12600
O 	O 	0.76500 0.20150 0.09990 -0.17200
O 	O 	0.87220 0.01490 0.06800 -0.56400
C 	C 	0.82000 0.12190 0.10050 0.10400
H 	H 	0.79870 0.10350 0.06650 0.02300
C 	C 	0.78880 0.15320 0.13400 -0.07500
C 	C 	0.88400 0.18320 0.19660 -0.08700
H 	H 	0.90880 0.20680 0.22870 0.04600
C 	C 	0.91450 0.14980 0.16420 0.11200
H 	H 	0.95870 0.14910 0.17510 0.01200
O 	O 	0.53950 0.18940 0.10090 -0.31700
H 	H 	0.41250 0.02200 0.01160 0.11100
C 	C 	0.40840 0.93730 0.96730 0.11500
H 	H 	0.35750 0.91760 0.95600 -0.05100
N 	N 	0.63300 0.20020 0.09330 -0.24800
C 	C 	0.62500 0.14150 0.06670 -0.14500
H 	H 	0.66380 0.12980 0.05990 0.11400
H 	H 	0.74500 0.15430 0.12250 0.12600
O 	O 	0.79850 0.56350 0.09990 -0.17200
O 	O 	0.98510 0.85730 0.06800 -0.57500
C 	C 	0.87810 0.69810 0.10050 0.10500
H 	H 	0.89650 0.69520 0.06650 0.02000
C 	C 	0.84680 0.63560 0.13400 -0.07600
C 	C 	0.81680 0.70080 0.19660 -0.08600
H 	H 	0.79320 0.70200 0.22870 0.04600
C 	C 	0.85020 0.76470 0.16420 0.11300
H 	H 	0.85090 0.80960 0.17510 0.01200
O 	O 	0.81060 0.35010 0.10090 -0.32100
H 	H 	0.97800 0.39050 0.01160 0.09100
C 	C 	0.06270 0.47110 0.96730 0.08700
H 	H 	0.08240 0.43990 0.95600 -0.03900
N 	N 	0.79980 0.43280 0.09330 -0.23900
C 	C 	0.85850 0.48350 0.06670 -0.15100
H 	H 	0.87020 0.53400 0.05990 0.11700
H 	H 	0.84570 0.59070 0.12250 0.12600
O 	O 	0.76500 0.56350 0.40010 -0.17100
O 	O 	0.87220 0.85730 0.43200 -0.58000
C 	C 	0.82000 0.69810 0.39950 0.11100
H 	H 	0.79870 0.69520 0.43350 0.01300
C 	C 	0.78880 0.63560 0.36600 -0.07800
C 	C 	0.88400 0.70080 0.30340 -0.08800
H 	H 	0.90880 0.70200 0.27130 0.04600
C 	C 	0.91450 0.76470 0.33580 0.11700
H 	H 	0.95870 0.80960 0.32490 0.00800
O 	O 	0.53950 0.35010 0.39910 -0.38300
H 	H 	0.41250 0.39050 0.48840 0.21400
C 	C 	0.40840 0.47110 0.53270 0.22400
H 	H 	0.35750 0.43990 0.54400 -0.10400
N 	N 	0.63300 0.43280 0.40670 -0.21200
C 	C 	0.62500 0.48350 0.43330 -0.07600
H 	H 	0.66380 0.53400 0.44010 0.10900
H 	H 	0.74500 0.59070 0.37750 0.12800
O 	O 	0.79850 0.23500 0.40010 -0.17300
O 	O 	0.98510 0.12780 0.43200 -0.58200
C 	C 	0.87810 0.18000 0.39950 0.10800
H 	H 	0.89650 0.20130 0.43350 0.01300
C 	C 	0.84680 0.21120 0.36600 -0.07800
C 	C 	0.81680 0.11600 0.30340 -0.08500
H 	H 	0.79320 0.09120 0.27130 0.04600
C 	C 	0.85020 0.08550 0.33580 0.11400
H 	H 	0.85090 0.04130 0.32490 0.01200
O 	O 	0.81060 0.46050 0.39910 -0.37700
H 	H 	0.97800 0.58750 0.48840 0.16400
C 	C 	0.06270 0.59160 0.53270 0.16400
H 	H 	0.08240 0.64250 0.54400 -0.07700
N 	N 	0.79980 0.36700 0.40670 -0.20800
C 	C 	0.85850 0.37500 0.43330 -0.09700
H 	H 	0.87020 0.33620 0.44010 0.11300
H 	H 	0.84570 0.25500 0.37750 0.12800
O 	O 	0.43650 0.20150 0.40010 -0.17200
O 	O 	0.14270 0.01490 0.43200 -0.57400
C 	C 	0.30190 0.12190 0.39950 0.10700
H 	H 	0.30480 0.10350 0.43350 0.01500
C 	C 	0.36440 0.15320 0.36600 -0.07700
C 	C 	0.29920 0.18320 0.30340 -0.08600
H 	H 	0.29800 0.20680 0.27130 0.04600
C 	C 	0.23530 0.14980 0.33580 0.11400
H 	H 	0.19040 0.14910 0.32490 0.01400
O 	O 	0.64990 0.18940 0.39910 -0.37700
H 	H 	0.60950 0.02200 0.48840 0.20700
C 	C 	0.52890 0.93730 0.53270 0.21600
H 	H 	0.56010 0.91760 0.54400 -0.10100
N 	N 	0.56720 0.20020 0.40670 -0.21400
C 	C 	0.51650 0.14150 0.43330 -0.08100
H 	H 	0.46600 0.12980 0.44010 0.10900
H 	H 	0.40930 0.15430 0.37750 0.12800
O 	O 	0.23500 0.43650 0.90010 -0.17300
O 	O 	0.12780 0.14270 0.93200 -0.58700
C 	C 	0.18000 0.30190 0.89950 0.11100
H 	H 	0.20130 0.30480 0.93350 0.00900
C 	C 	0.21120 0.36440 0.86600 -0.07900
C 	C 	0.11600 0.29920 0.80340 -0.08600
H 	H 	0.09120 0.29800 0.77130 0.04600
C 	C 	0.08550 0.23530 0.83580 0.11600
H 	H 	0.04130 0.19040 0.82490 0.01200
O 	O 	0.46050 0.64990 0.89910 -0.36600
H 	H 	0.58750 0.60950 0.98840 0.04000
C 	C 	0.59160 0.52890 0.03270 0.02000
H 	H 	0.64250 0.56010 0.04400 -0.01200
N 	N 	0.36700 0.56720 0.90670 -0.19700
C 	C 	0.37500 0.51650 0.93330 -0.14600
H 	H 	0.33620 0.46600 0.94010 0.12000
H 	H 	0.25500 0.40930 0.87750 0.12700
O 	O 	0.20150 0.76500 0.90010 -0.17400
O 	O 	0.01490 0.87220 0.93200 -0.57900
C 	C 	0.12190 0.82000 0.89950 0.10900
H 	H 	0.10350 0.79870 0.93350 0.01200
C 	C 	0.15320 0.78880 0.86600 -0.07700
C 	C 	0.18320 0.88400 0.80340 -0.08700
H 	H 	0.20680 0.90880 0.77130 0.04500
C 	C 	0.14980 0.91450 0.83580 0.11600
H 	H 	0.14910 0.95870 0.82490 0.01100
O 	O 	0.18940 0.53950 0.89910 -0.35500
H 	H 	0.02200 0.41250 0.98840 0.03500
C 	C 	0.93730 0.40840 0.03270 0.01700
H 	H 	0.91760 0.35750 0.04400 -0.00900
N 	N 	0.20020 0.63300 0.90670 -0.20300
C 	C 	0.14150 0.62500 0.93330 -0.15200
H 	H 	0.12980 0.66380 0.94010 0.12000
H 	H 	0.15430 0.74500 0.87750 0.12700
O 	O 	0.56350 0.79850 0.90010 -0.17400
O 	O 	0.85730 0.98510 0.93200 -0.59100
C 	C 	0.69810 0.87810 0.89950 0.11100
H 	H 	0.69520 0.89650 0.93350 0.00900
C 	C 	0.63560 0.84680 0.86600 -0.07800
C 	C 	0.70080 0.81680 0.80340 -0.08700
H 	H 	0.70200 0.79320 0.77130 0.04500
C 	C 	0.76470 0.85020 0.83580 0.11800
H 	H 	0.80960 0.85090 0.82490 0.00700
O 	O 	0.35010 0.81060 0.89910 -0.36500
H 	H 	0.39050 0.97800 0.98840 0.02900
C 	C 	0.47110 0.06270 0.03270 0.00600
H 	H 	0.43990 0.08240 0.04400 -0.00500
N 	N 	0.43280 0.79980 0.90670 -0.19600
C 	C 	0.48350 0.85850 0.93330 -0.15100
H 	H 	0.53400 0.87020 0.94010 0.12100
H 	H 	0.59070 0.84570 0.87750 0.12700
Zn	Zn	0.66667 0.33333 0.25000 1.15000
Zn	Zn	0.33333 0.66667 0.75000 1.15100
Zn	Zn	0.56222 0.28111 0.36305 1.20400
O 	O 	0.17400 0.08700 0.46800 -0.59300
O 	O 	0.10190 0.05095 0.39460 -0.59100
C 	C 	0.16650 0.08325 0.41880 1.08900
C 	C 	0.23640 0.11820 0.38290 -0.40400
C 	C 	0.36450 0.18225 0.31770 -0.01100
C 	C 	0.43030 0.21515 0.27760 -0.00700
N 	N 	0.50339 0.25169 0.29352 -0.22700
H 	H 	0.38760 0.19380 0.29980 0.06000
Zn	Zn	0.71889 0.28111 0.36305 1.20400
O 	O 	0.91300 0.08700 0.46800 -0.59500
O 	O 	0.94905 0.05095 0.39460 -0.59700
C 	C 	0.91675 0.08325 0.41880 1.09500
C 	C 	0.88180 0.11820 0.38290 -0.40900
C 	C 	0.81775 0.18225 0.31770 -0.01300
C 	C 	0.78485 0.21515 0.27760 -0.00800
N 	N 	0.74831 0.25170 0.29352 -0.22700
H 	H 	0.80620 0.19380 0.29980 0.06100
Zn	Zn	0.71889 0.43778 0.36305 1.20400
O 	O 	0.91300 0.82600 0.46800 -0.59700
O 	O 	0.94905 0.89810 0.39460 -0.60200
C 	C 	0.91675 0.83350 0.41880 1.10000
C 	C 	0.88180 0.76360 0.38290 -0.41200
C 	C 	0.81775 0.63550 0.31770 -0.01400
C 	C 	0.78485 0.56970 0.27760 -0.00800
N 	N 	0.74830 0.49661 0.29352 -0.22700
H 	H 	0.80620 0.61240 0.29980 0.06200
Zn	Zn	0.43778 0.71889 0.86305 1.20100
O 	O 	0.82600 0.91300 0.96800 -0.61300
O 	O 	0.89810 0.94905 0.89460 -0.60600
C 	C 	0.83350 0.91675 0.91880 1.11400
C 	C 	0.76360 0.88180 0.88290 -0.42000
C 	C 	0.63550 0.81775 0.81770 -0.01700
C 	C 	0.56970 0.78485 0.77760 -0.01000
N 	N 	0.49661 0.74831 0.79352 -0.22800
H 	H 	0.61240 0.80620 0.79980 0.06500
Zn	Zn	0.28111 0.71889 0.86305 1.20100
O 	O 	0.08700 0.91300 0.96800 -0.60700
O 	O 	0.05095 0.94905 0.89460 -0.59400
C 	C 	0.08325 0.91675 0.91880 1.10000
C 	C 	0.11820 0.88180 0.88290 -0.41200
C 	C 	0.18225 0.81775 0.81770 -0.01400
C 	C 	0.21515 0.78485 0.77760 -0.00800
N 	N 	0.25169 0.74830 0.79352 -0.22800
H 	H 	0.19380 0.80620 0.79980 0.06200
Zn	Zn	0.28111 0.56222 0.86305 1.20100
O 	O 	0.08700 0.17400 0.96800 -0.61000
O 	O 	0.05095 0.10190 0.89460 -0.59700
C 	C 	0.08325 0.16650 0.91880 1.10500
C 	C 	0.11820 0.23640 0.88290 -0.41400
C 	C 	0.18225 0.36450 0.81770 -0.01500
C 	C 	0.21515 0.43030 0.77760 -0.00900
N 	N 	0.25170 0.50339 0.79352 -0.22800
H 	H 	0.19380 0.38760 0.79980 0.06300
Zn	Zn	0.28111 0.56222 0.63695 1.20400
O 	O 	0.08700 0.17400 0.53200 -0.59100
O 	O 	0.05095 0.10190 0.60540 -0.59200
C 	C 	0.08325 0.16650 0.58120 1.08800
C 	C 	0.11820 0.23640 0.61710 -0.40400
C 	C 	0.18225 0.36450 0.68230 -0.01200
C 	C 	0.21515 0.43030 0.72240 -0.00500
N 	N 	0.25169 0.50339 0.70648 -0.22800
H 	H 	0.19380 0.38760 0.70020 0.06000
Zn	Zn	0.28111 0.71889 0.63695 1.20400
O 	O 	0.08700 0.91300 0.53200 -0.59100
O 	O 	0.05095 0.94905 0.60540 -0.59200
C 	C 	0.08325 0.91675 0.58120 1.08900
C 	C 	0.11820 0.88180 0.61710 -0.40400
C 	C 	0.18225 0.81775 0.68230 -0.01200
C 	C 	0.21515 0.78485 0.72240 -0.00600
N 	N 	0.25170 0.74831 0.70648 -0.22800
H 	H 	0.19380 0.80620 0.70020 0.06000
Zn	Zn	0.43778 0.71889 0.63695 1.20400
O 	O 	0.82600 0.91300 0.53200 -0.59600
O 	O 	0.89810 0.94905 0.60540 -0.60200
C 	C 	0.83350 0.91675 0.58120 1.09900
C 	C 	0.76360 0.88180 0.61710 -0.41100
C 	C 	0.63550 0.81775 0.68230 -0.01500
C 	C 	0.56970 0.78485 0.72240 -0.00700
N 	N 	0.49661 0.74830 0.70648 -0.22800
H 	H 	0.61240 0.80620 0.70020 0.06200
Zn	Zn	0.71889 0.43778 0.13695 1.20100
O 	O 	0.91300 0.82600 0.03200 -0.57900
O 	O 	0.94905 0.89810 0.10540 -0.60000
C 	C 	0.91675 0.83350 0.08120 1.08500
C 	C 	0.88180 0.76360 0.11710 -0.40100
C 	C 	0.81775 0.63550 0.18230 -0.01000
C 	C 	0.78485 0.56970 0.22240 -0.00500
N 	N 	0.74831 0.49661 0.20648 -0.23000
H 	H 	0.80620 0.61240 0.20020 0.05800
Zn	Zn	0.71889 0.28111 0.13695 1.20100
O 	O 	0.91300 0.08700 0.03200 -0.57400
O 	O 	0.94905 0.05095 0.10540 -0.59300
C 	C 	0.91675 0.08325 0.08120 1.07600
C 	C 	0.88180 0.11820 0.11710 -0.39600
C 	C 	0.81775 0.18225 0.18230 -0.00800
C 	C 	0.78485 0.21515 0.22240 -0.00400
N 	N 	0.74830 0.25169 0.20648 -0.23000
H 	H 	0.80620 0.19380 0.20020 0.05600
Zn	Zn	0.56222 0.28111 0.13695 1.20100
O 	O 	0.17400 0.08700 0.03200 -0.57300
O 	O 	0.10190 0.05095 0.10540 -0.58800
C 	C 	0.16650 0.08325 0.08120 1.07200
C 	C 	0.23640 0.11820 0.11710 -0.39300
C 	C 	0.36450 0.18225 0.18230 -0.00700
C 	C 	0.43030 0.21515 0.22240 -0.00300
N 	N 	0.50339 0.25170 0.20648 -0.23000
H 	H 	0.38760 0.19380 0.20020 0.05500
Zn	Zn	0.00000 0.00000 0.42536 1.12700
Zn	Zn	-0.00000 0.00000 0.92536 1.12100
Zn	Zn	0.00000 0.00000 0.57464 1.12600
Zn	Zn	0.00000 -0.00000 0.07464 1.12700
Zn	Zn	0.05241 0.10482 0.47210 1.14300
Zn	Zn	0.89518 0.94759 0.47210 1.13900
Zn	Zn	0.05241 0.94759 0.47210 1.14300
Zn	Zn	0.94759 0.89518 0.97210 1.12600
Zn	Zn	0.10482 0.05241 0.97210 1.12900
Zn	Zn	0.94759 0.05241 0.97210 1.12500
Zn	Zn	0.10482 0.05241 0.52790 1.14100
Zn	Zn	0.94759 0.89518 0.52790 1.13700
Zn	Zn	0.94759 0.05241 0.52790 1.13900
Zn	Zn	0.89518 0.94759 0.02790 1.14500
Zn	Zn	0.05241 0.10482 0.02790 1.15000
Zn	Zn	0.05241 0.94759 0.02790 1.14700
O 	O 	-0.00000 0.00000 0.50000 -1.55400
O 	O 	-0.00000 0.00000 -0.00000 -1.52600
O 	O 	0.66667 0.33333 0.33326 -0.92600
O 	O 	0.33333 0.66667 0.83326 -0.92900
O 	O 	0.33333 0.66667 0.66674 -0.92600
O 	O 	0.66667 0.33333 0.16674 -0.92700
N 	N 	0.54690 0.27345 0.25000 -0.23900
N 	N 	0.72655 0.27345 0.25000 -0.23900
N 	N 	0.72655 0.45310 0.25000 -0.23900
N 	N 	0.45310 0.72655 0.75000 -0.23900
N 	N 	0.27345 0.72655 0.75000 -0.23900
N 	N 	0.27345 0.54690 0.75000 -0.23900
C 	C 	0.54940 0.45060 0.44990 -0.44500
C 	C 	0.51570 0.48430 0.48370 0.41500
C 	C 	0.58200 0.41800 0.41330 0.77300
C 	C 	0.54940 0.09880 0.44990 -0.42700
C 	C 	0.51570 0.03140 0.48370 0.40100
C 	C 	0.58200 0.16400 0.41330 0.77200
C 	C 	0.90120 0.45060 0.44990 -0.37900
C 	C 	0.96860 0.48430 0.48370 0.30400
C 	C 	0.83600 0.41800 0.41330 0.75900
C 	C 	0.45060 0.54940 0.94990 -0.21600
C 	C 	0.48430 0.51570 0.98370 0.03000
C 	C 	0.41800 0.58200 0.91330 0.72000
C 	C 	0.45060 0.90120 0.94990 -0.20000
C 	C 	0.48430 0.96860 0.98370 0.00400
C 	C 	0.41800 0.83600 0.91330 0.71600
C 	C 	0.09880 0.54940 0.94990 -0.19000
C 	C 	0.03140 0.51570 0.98370 0.03000
C 	C 	0.16400 0.58200 0.91330 0.72000
C 	C 	0.45060 0.54940 0.55010 -0.44500
C 	C 	0.48430 0.51570 0.51630 0.41400
C 	C 	0.41800 0.58200 0.58670 0.77500
C 	C 	0.09880 0.54940 0.55010 -0.37900
C 	C 	0.03140 0.51570 0.51630 0.36300
C 	C 	0.16400 0.58200 0.58670 0.77000
C 	C 	0.45060 0.90120 0.55010 -0.42600
C 	C 	0.48430 0.96860 0.51630 0.38300
C 	C 	0.41800 0.83600 0.58670 0.77100
C 	C 	0.54940 0.45060 0.05010 -0.21600
C 	C 	0.51570 0.48430 0.01630 0.23500
C 	C 	0.58200 0.41800 0.08670 0.76400
C 	C 	0.90120 0.45060 0.05010 -0.19000
C 	C 	0.96860 0.48430 0.01630 0.17100
C 	C 	0.83600 0.41800 0.08670 0.75500
C 	C 	0.54940 0.09880 0.05010 -0.19900
C 	C 	0.51570 0.03140 0.01630 0.22200
C 	C 	0.58200 0.16400 0.08670 0.76300
C 	C 	0.55840 0.55840 0.50000 -0.83900
C 	C 	0.44160 0.00000 0.50000 -0.79400
C 	C 	-0.00000 0.44160 0.50000 -0.67300
C 	C 	0.44160 0.44160 -0.00000 -0.25800
C 	C 	0.55840 0.00000 -0.00000 -0.21500
C 	C 	-0.00000 0.55840 -0.00000 -0.19600
C 	C 	0.44160 0.44160 0.50000 -0.83900
C 	C 	0.55840 0.00000 0.50000 -0.79200
C 	C 	0.00000 0.55840 0.50000 -0.67200
C 	C 	0.55840 0.55840 -0.00000 -0.26100
C 	C 	0.44160 0.00000 -0.00000 -0.22000
C 	C 	-0.00000 0.44160 -0.00000 -0.19100
