data_crystal

_cell_length_a 24.12670
_cell_length_b 24.12670
_cell_length_c 11.30770
_cell_angle_alpha 90.00000
_cell_angle_beta  90.00000
_cell_angle_gamma 90.00000

_symmetry_space_group_name_	'P 1'
_symmetry_space_group_name_H-M	'P 1'

loop_
_symmetry_equiv_pos_as_xyz
  x,y,z

loop_
_atom_site_label
_atom_site_type_symbol
_atom_site_fract_x
_atom_site_fract_y
_atom_site_fract_z
_atom_site_charge
Cu	Cu	0.46246 0.50850 0.10150 0.95700
Cu	Cu	0.59865 0.54413 0.14732 0.92900
O 	O 	0.55293 0.56115 0.28400 -0.42100
O 	O 	0.46950 0.52079 0.26780 -0.39400
O 	O 	0.48147 0.88395 0.87690 -0.38800
O 	O 	0.53538 0.84798 0.01740 -0.40800
O 	O 	0.33321 0.52630 0.57890 -0.26000
O 	O 	0.36639 0.54173 0.77660 -0.32500
O 	O 	0.33050 0.61720 0.66600 -0.22600
O 	O 	0.46971 0.60707 0.04140 -0.30600
O 	O 	0.56161 0.64842 0.06420 -0.29500
O 	O 	0.54199 0.59180 0.89500 -0.33500
O 	O 	0.54234 0.49747 0.07290 -0.73600
H 	H 	0.54610 0.46720 0.10480 0.31800
O 	O 	0.44732 0.62987 0.77380 -0.28500
S 	S 	0.35846 0.56456 0.66016 0.56700
S 	S 	0.51978 0.62974 0.98420 0.52600
C 	C 	0.49113 0.56937 0.44390 -0.19100
C 	C 	0.44013 0.55782 0.49230 0.15000
H 	H 	0.41530 0.53560 0.45090 0.02000
C 	C 	0.42530 0.57869 0.60160 -0.22200
C 	C 	0.46270 0.61095 0.66150 0.30200
C 	C 	0.51340 0.62120 0.61650 -0.29200
H 	H 	0.53860 0.64220 0.65990 0.15600
C 	C 	0.52850 0.60100 0.50640 0.17900
H 	H 	0.56340 0.60870 0.47520 -0.00500
C 	C 	0.46580 0.68249 0.80590 0.30100
C 	C 	0.49618 0.68848 0.90670 -0.20300
C 	C 	0.50922 0.74128 0.94650 0.14000
H 	H 	0.52940 0.74560 0.01600 0.02300
C 	C 	0.49230 0.78792 0.88340 -0.18600
C 	C 	0.46270 0.78017 0.78020 0.17900
H 	H 	0.45140 0.81080 0.73640 0.00800
C 	C 	0.44980 0.72790 0.74150 -0.28300
H 	H 	0.43010 0.72330 0.67150 0.16500
C 	C 	0.50639 0.54816 0.32190 0.41500
C 	C 	0.50408 0.84490 0.93030 0.42800
Cu	Cu	0.03754 0.99150 0.10150 0.95600
Cu	Cu	0.90135 0.95587 0.14732 0.92800
O 	O 	0.94707 0.93885 0.28400 -0.42100
O 	O 	0.03050 0.97921 0.26780 -0.39200
O 	O 	0.01853 0.61605 0.87690 -0.38400
O 	O 	0.96462 0.65202 0.01740 -0.40600
O 	O 	0.16679 0.97370 0.57890 -0.25900
O 	O 	0.13361 0.95827 0.77660 -0.32500
O 	O 	0.16950 0.88280 0.66600 -0.22500
O 	O 	0.03029 0.89293 0.04140 -0.30200
O 	O 	0.93839 0.85158 0.06420 -0.29100
O 	O 	0.95801 0.90820 0.89500 -0.33400
O 	O 	0.95766 0.00253 0.07290 -0.73400
H 	H 	0.95390 0.03280 0.10480 0.31800
O 	O 	0.05268 0.87013 0.77380 -0.28200
S 	S 	0.14154 0.93544 0.66016 0.56700
S 	S 	0.98022 0.87026 0.98420 0.51100
C 	C 	0.00887 0.93063 0.44390 -0.18400
C 	C 	0.05987 0.94218 0.49230 0.14600
H 	H 	0.08470 0.96440 0.45090 0.02100
C 	C 	0.07470 0.92131 0.60160 -0.22100
C 	C 	0.03730 0.88905 0.66150 0.30300
C 	C 	0.98660 0.87880 0.61650 -0.29300
H 	H 	0.96140 0.85780 0.65990 0.15500
C 	C 	0.97150 0.89900 0.50640 0.17300
H 	H 	0.93660 0.89130 0.47520 -0.00300
C 	C 	0.03420 0.81751 0.80590 0.29200
C 	C 	0.00382 0.81152 0.90670 -0.18500
C 	C 	0.99078 0.75872 0.94650 0.11600
H 	H 	0.97060 0.75440 0.01600 0.03200
C 	C 	0.00770 0.71208 0.88340 -0.16700
C 	C 	0.03730 0.71983 0.78020 0.16500
H 	H 	0.04860 0.68920 0.73640 0.01300
C 	C 	0.05020 0.77210 0.74150 -0.27100
H 	H 	0.06990 0.77670 0.67150 0.16100
C 	C 	0.99361 0.95184 0.32190 0.40800
C 	C 	0.99592 0.65510 0.93030 0.41600
Cu	Cu	0.99150 0.46246 0.10150 0.95600
Cu	Cu	0.95587 0.59865 0.14732 0.92800
O 	O 	0.93885 0.55293 0.28400 -0.42200
O 	O 	0.97921 0.46950 0.26780 -0.39500
O 	O 	0.61605 0.48147 0.87690 -0.38900
O 	O 	0.65202 0.53538 0.01740 -0.41000
O 	O 	0.97370 0.33321 0.57890 -0.25900
O 	O 	0.95827 0.36639 0.77660 -0.32500
O 	O 	0.88280 0.33050 0.66600 -0.22600
O 	O 	0.89293 0.46971 0.04140 -0.30500
O 	O 	0.85158 0.56161 0.06420 -0.29400
O 	O 	0.90820 0.54199 0.89500 -0.33500
O 	O 	0.00253 0.54234 0.07290 -0.73700
H 	H 	0.03280 0.54610 0.10480 0.31800
O 	O 	0.87013 0.44732 0.77380 -0.28500
S 	S 	0.93544 0.35846 0.66016 0.56700
S 	S 	0.87026 0.51978 0.98420 0.52400
C 	C 	0.93063 0.49113 0.44390 -0.19100
C 	C 	0.94218 0.44013 0.49230 0.14900
H 	H 	0.96440 0.41530 0.45090 0.02000
C 	C 	0.92131 0.42530 0.60160 -0.22200
C 	C 	0.88905 0.46270 0.66150 0.30200
C 	C 	0.87880 0.51340 0.61650 -0.29200
H 	H 	0.85780 0.53860 0.65990 0.15600
C 	C 	0.89900 0.52850 0.50640 0.17900
H 	H 	0.89130 0.56340 0.47520 -0.00500
C 	C 	0.81751 0.46580 0.80590 0.30100
C 	C 	0.81152 0.49618 0.90670 -0.20200
C 	C 	0.75872 0.50922 0.94650 0.14000
H 	H 	0.75440 0.52940 0.01600 0.02400
C 	C 	0.71208 0.49230 0.88340 -0.18600
C 	C 	0.71983 0.46270 0.78020 0.17900
H 	H 	0.68920 0.45140 0.73640 0.00800
C 	C 	0.77210 0.44980 0.74150 -0.28300
H 	H 	0.77670 0.43010 0.67150 0.16500
C 	C 	0.95184 0.50639 0.32190 0.41500
C 	C 	0.65510 0.50408 0.93030 0.42900
Cu	Cu	0.50850 0.03754 0.10150 0.95500
Cu	Cu	0.54413 0.90135 0.14732 0.92900
O 	O 	0.56115 0.94707 0.28400 -0.42200
O 	O 	0.52079 0.03050 0.26780 -0.39500
O 	O 	0.88395 0.01853 0.87690 -0.38200
O 	O 	0.84798 0.96462 0.01740 -0.40500
O 	O 	0.52630 0.16679 0.57890 -0.26000
O 	O 	0.54173 0.13361 0.77660 -0.32500
O 	O 	0.61720 0.16950 0.66600 -0.22600
O 	O 	0.60707 0.03029 0.04140 -0.30400
O 	O 	0.64842 0.93839 0.06420 -0.29200
O 	O 	0.59180 0.95801 0.89500 -0.33300
O 	O 	0.49747 0.95766 0.07290 -0.73500
H 	H 	0.46720 0.95390 0.10480 0.31800
O 	O 	0.62987 0.05268 0.77380 -0.28300
S 	S 	0.56456 0.14154 0.66016 0.56700
S 	S 	0.62974 0.98022 0.98420 0.51600
C 	C 	0.56937 0.00887 0.44390 -0.19100
C 	C 	0.55782 0.05987 0.49230 0.15000
H 	H 	0.53560 0.08470 0.45090 0.02000
C 	C 	0.57869 0.07470 0.60160 -0.22200
C 	C 	0.61095 0.03730 0.66150 0.30300
C 	C 	0.62120 0.98660 0.61650 -0.29400
H 	H 	0.64220 0.96140 0.65990 0.15600
C 	C 	0.60100 0.97150 0.50640 0.17900
H 	H 	0.60870 0.93660 0.47520 -0.00500
C 	C 	0.68249 0.03420 0.80590 0.29200
C 	C 	0.68848 0.00382 0.90670 -0.18700
C 	C 	0.74128 0.99078 0.94650 0.11600
H 	H 	0.74560 0.97060 0.01600 0.03200
C 	C 	0.78792 0.00770 0.88340 -0.16600
C 	C 	0.78017 0.03730 0.78020 0.16500
H 	H 	0.81080 0.04860 0.73640 0.01300
C 	C 	0.72790 0.05020 0.74150 -0.27000
H 	H 	0.72330 0.06990 0.67150 0.16000
C 	C 	0.54816 0.99361 0.32190 0.41600
C 	C 	0.84490 0.99592 0.93030 0.41200
Cu	Cu	0.53754 0.49150 0.89850 0.95600
Cu	Cu	0.40135 0.45587 0.85268 0.92800
O 	O 	0.44707 0.43885 0.71600 -0.42200
O 	O 	0.53050 0.47921 0.73220 -0.39500
O 	O 	0.51853 0.11605 0.12310 -0.38900
O 	O 	0.46462 0.15202 0.98260 -0.40900
O 	O 	0.66679 0.47370 0.42110 -0.26000
O 	O 	0.63361 0.45827 0.22340 -0.32500
O 	O 	0.66950 0.38280 0.33400 -0.22600
O 	O 	0.53029 0.39293 0.95860 -0.30600
O 	O 	0.43839 0.35158 0.93580 -0.29500
O 	O 	0.45801 0.40820 0.10500 -0.33500
O 	O 	0.45766 0.50253 0.92710 -0.73600
H 	H 	0.45390 0.53280 0.89520 0.31800
O 	O 	0.55268 0.37013 0.22620 -0.28500
S 	S 	0.64154 0.43544 0.33984 0.56700
S 	S 	0.48022 0.37026 0.01580 0.52600
C 	C 	0.50887 0.43063 0.55610 -0.19100
C 	C 	0.55987 0.44218 0.50770 0.15000
H 	H 	0.58470 0.46440 0.54910 0.02000
C 	C 	0.57470 0.42131 0.39840 -0.22200
C 	C 	0.53730 0.38905 0.33850 0.30200
C 	C 	0.48660 0.37880 0.38350 -0.29200
H 	H 	0.46140 0.35780 0.34010 0.15600
C 	C 	0.47150 0.39900 0.49360 0.17900
H 	H 	0.43660 0.39130 0.52480 -0.00500
C 	C 	0.53420 0.31751 0.19410 0.30100
C 	C 	0.50382 0.31152 0.09330 -0.20300
C 	C 	0.49078 0.25872 0.05350 0.14000
H 	H 	0.47060 0.25440 0.98400 0.02300
C 	C 	0.50770 0.21208 0.11660 -0.18600
C 	C 	0.53730 0.21983 0.21980 0.17900
H 	H 	0.54860 0.18920 0.26360 0.00800
C 	C 	0.55020 0.27210 0.25850 -0.28300
H 	H 	0.56990 0.27670 0.32850 0.16500
C 	C 	0.49361 0.45184 0.67810 0.41500
C 	C 	0.49592 0.15510 0.06970 0.42800
Cu	Cu	0.96246 0.00850 0.89850 0.95600
Cu	Cu	0.09865 0.04413 0.85268 0.92800
O 	O 	0.05293 0.06115 0.71600 -0.42100
O 	O 	0.96950 0.02079 0.73220 -0.39200
O 	O 	0.98147 0.38395 0.12310 -0.38400
O 	O 	0.03538 0.34798 0.98260 -0.40600
O 	O 	0.83321 0.02630 0.42110 -0.25900
O 	O 	0.86639 0.04173 0.22340 -0.32500
O 	O 	0.83050 0.11720 0.33400 -0.22500
O 	O 	0.96971 0.10707 0.95860 -0.30200
O 	O 	0.06161 0.14842 0.93580 -0.29100
O 	O 	0.04199 0.09180 0.10500 -0.33400
O 	O 	0.04234 0.99747 0.92710 -0.73400
H 	H 	0.04610 0.96720 0.89520 0.31800
O 	O 	0.94732 0.12987 0.22620 -0.28200
S 	S 	0.85846 0.06456 0.33984 0.56700
S 	S 	0.01978 0.12974 0.01580 0.51100
C 	C 	0.99113 0.06937 0.55610 -0.18400
C 	C 	0.94013 0.05782 0.50770 0.14600
H 	H 	0.91530 0.03560 0.54910 0.02100
C 	C 	0.92530 0.07869 0.39840 -0.22100
C 	C 	0.96270 0.11095 0.33850 0.30300
C 	C 	0.01340 0.12120 0.38350 -0.29300
H 	H 	0.03860 0.14220 0.34010 0.15500
C 	C 	0.02850 0.10100 0.49360 0.17300
H 	H 	0.06340 0.10870 0.52480 -0.00300
C 	C 	0.96580 0.18249 0.19410 0.29200
C 	C 	0.99618 0.18848 0.09330 -0.18500
C 	C 	0.00922 0.24128 0.05350 0.11600
H 	H 	0.02940 0.24560 0.98400 0.03200
C 	C 	0.99230 0.28792 0.11660 -0.16700
C 	C 	0.96270 0.28017 0.21980 0.16500
H 	H 	0.95140 0.31080 0.26360 0.01300
C 	C 	0.94980 0.22790 0.25850 -0.27100
H 	H 	0.93010 0.22330 0.32850 0.16100
C 	C 	0.00639 0.04816 0.67810 0.40800
C 	C 	0.00408 0.34490 0.06970 0.41600
Cu	Cu	0.00850 0.53754 0.89850 0.95600
Cu	Cu	0.04413 0.40135 0.85268 0.92800
O 	O 	0.06115 0.44707 0.71600 -0.42200
O 	O 	0.02079 0.53050 0.73220 -0.39500
O 	O 	0.38395 0.51853 0.12310 -0.38900
O 	O 	0.34798 0.46462 0.98260 -0.41000
O 	O 	0.02630 0.66679 0.42110 -0.25900
O 	O 	0.04173 0.63361 0.22340 -0.32500
O 	O 	0.11720 0.66950 0.33400 -0.22600
O 	O 	0.10707 0.53029 0.95860 -0.30500
O 	O 	0.14842 0.43839 0.93580 -0.29400
O 	O 	0.09180 0.45801 0.10500 -0.33500
O 	O 	0.99747 0.45766 0.92710 -0.73700
H 	H 	0.96720 0.45390 0.89520 0.31800
O 	O 	0.12987 0.55268 0.22620 -0.28500
S 	S 	0.06456 0.64154 0.33984 0.56700
S 	S 	0.12974 0.48022 0.01580 0.52400
C 	C 	0.06937 0.50887 0.55610 -0.19100
C 	C 	0.05782 0.55987 0.50770 0.14900
H 	H 	0.03560 0.58470 0.54910 0.02000
C 	C 	0.07869 0.57470 0.39840 -0.22200
C 	C 	0.11095 0.53730 0.33850 0.30200
C 	C 	0.12120 0.48660 0.38350 -0.29200
H 	H 	0.14220 0.46140 0.34010 0.15600
C 	C 	0.10100 0.47150 0.49360 0.17900
H 	H 	0.10870 0.43660 0.52480 -0.00500
C 	C 	0.18249 0.53420 0.19410 0.30100
C 	C 	0.18848 0.50382 0.09330 -0.20200
C 	C 	0.24128 0.49078 0.05350 0.14000
H 	H 	0.24560 0.47060 0.98400 0.02400
C 	C 	0.28792 0.50770 0.11660 -0.18600
C 	C 	0.28017 0.53730 0.21980 0.17900
H 	H 	0.31080 0.54860 0.26360 0.00800
C 	C 	0.22790 0.55020 0.25850 -0.28300
H 	H 	0.22330 0.56990 0.32850 0.16500
C 	C 	0.04816 0.49361 0.67810 0.41500
C 	C 	0.34490 0.49592 0.06970 0.42900
Cu	Cu	0.49150 0.96246 0.89850 0.95500
Cu	Cu	0.45587 0.09865 0.85268 0.92900
O 	O 	0.43885 0.05293 0.71600 -0.42200
O 	O 	0.47921 0.96950 0.73220 -0.39500
O 	O 	0.11605 0.98147 0.12310 -0.38200
O 	O 	0.15202 0.03538 0.98260 -0.40500
O 	O 	0.47370 0.83321 0.42110 -0.26000
O 	O 	0.45827 0.86639 0.22340 -0.32500
O 	O 	0.38280 0.83050 0.33400 -0.22600
O 	O 	0.39293 0.96971 0.95860 -0.30400
O 	O 	0.35158 0.06161 0.93580 -0.29200
O 	O 	0.40820 0.04199 0.10500 -0.33300
O 	O 	0.50253 0.04234 0.92710 -0.73500
H 	H 	0.53280 0.04610 0.89520 0.31800
O 	O 	0.37013 0.94732 0.22620 -0.28300
S 	S 	0.43544 0.85846 0.33984 0.56700
S 	S 	0.37026 0.01978 0.01580 0.51600
C 	C 	0.43063 0.99113 0.55610 -0.19100
C 	C 	0.44218 0.94013 0.50770 0.15000
H 	H 	0.46440 0.91530 0.54910 0.02000
C 	C 	0.42131 0.92530 0.39840 -0.22200
C 	C 	0.38905 0.96270 0.33850 0.30300
C 	C 	0.37880 0.01340 0.38350 -0.29400
H 	H 	0.35780 0.03860 0.34010 0.15600
C 	C 	0.39900 0.02850 0.49360 0.17900
H 	H 	0.39130 0.06340 0.52480 -0.00500
C 	C 	0.31751 0.96580 0.19410 0.29200
C 	C 	0.31152 0.99618 0.09330 -0.18700
C 	C 	0.25872 0.00922 0.05350 0.11600
H 	H 	0.25440 0.02940 0.98400 0.03200
C 	C 	0.21208 0.99230 0.11660 -0.16600
C 	C 	0.21983 0.96270 0.21980 0.16500
H 	H 	0.18920 0.95140 0.26360 0.01300
C 	C 	0.27210 0.94980 0.25850 -0.27000
H 	H 	0.27670 0.93010 0.32850 0.16000
C 	C 	0.45184 0.00639 0.67810 0.41600
C 	C 	0.15510 0.00408 0.06970 0.41200
