data_crystal

_cell_length_a 7.83000
_cell_length_b 8.04100
_cell_length_c 9.65200
_cell_angle_alpha 76.29000
_cell_angle_beta  78.47000
_cell_angle_gamma 86.36000

_symmetry_space_group_name_	'P 1'
_symmetry_space_group_name_H-M	'P 1'

loop_
_symmetry_equiv_pos_as_xyz
  x,y,z

loop_
_atom_site_label
_atom_site_type_symbol
_atom_site_fract_x
_atom_site_fract_y
_atom_site_fract_z
_atom_site_charge
Mn	Mn	0.19076 0.31033 0.61460 1.28800
Mn	Mn	0.84283 0.03389 0.74818 1.30000
P 	P 	0.07780 0.73290 0.59030 0.58100
O 	O 	0.41570 0.36010 0.70390 -0.34900
O 	O 	0.34440 0.06160 0.64930 -0.38700
O 	O 	0.03110 0.15850 0.83820 -0.44900
O 	O 	0.07440 0.54050 0.63500 -0.44400
O 	O 	0.18620 0.09850 0.01640 -0.32700
O 	O 	0.59040 0.94690 0.71690 -0.34700
O 	O 	0.65380 0.23900 0.78300 -0.35400
O 	O 	0.27480 0.78590 0.56500 -0.53900
O 	O 	0.97170 0.81070 0.70990 -0.41900
O 	O 	0.01660 0.80150 0.44580 -0.58700
C 	C 	0.51960 0.23800 0.73080 0.22900
C 	C 	0.48170 0.06700 0.69510 0.23400
C 	C 	0.06390 0.07350 0.95890 0.23300
H 	H 	0.28400 0.87400 0.58500 0.33700
Mn	Mn	0.80924 0.68967 0.38540 1.28800
Mn	Mn	0.15717 0.96611 0.25182 1.30000
P 	P 	0.92220 0.26710 0.40970 0.58100
O 	O 	0.58430 0.63990 0.29610 -0.34900
O 	O 	0.65560 0.93840 0.35070 -0.38700
O 	O 	0.96890 0.84150 0.16180 -0.44900
O 	O 	0.92560 0.45950 0.36500 -0.44400
O 	O 	0.81380 0.90150 0.98360 -0.32700
O 	O 	0.40960 0.05310 0.28310 -0.34700
O 	O 	0.34620 0.76100 0.21700 -0.35400
O 	O 	0.72520 0.21410 0.43500 -0.53900
O 	O 	0.02830 0.18930 0.29010 -0.41900
O 	O 	0.98340 0.19850 0.55420 -0.58700
C 	C 	0.48040 0.76200 0.26920 0.22900
C 	C 	0.51830 0.93300 0.30490 0.23400
C 	C 	0.93610 0.92650 0.04110 0.23300
H 	H 	0.71600 0.12600 0.41500 0.33700
