data_crystal

_cell_length_a 11.66000
_cell_length_b 12.24500
_cell_length_c 13.56800
_cell_angle_alpha 64.88000
_cell_angle_beta  68.25000
_cell_angle_gamma 88.14000

_symmetry_space_group_name_	'P 1'
_symmetry_space_group_name_H-M	'P 1'

loop_
_symmetry_equiv_pos_as_xyz
  x,y,z

loop_
_atom_site_label
_atom_site_type_symbol
_atom_site_fract_x
_atom_site_fract_y
_atom_site_fract_z
_atom_site_charge
Eu	Eu	0.07117 0.17060 0.17231 1.71900
O 	O 	0.21000 0.19360 0.97990 -0.38800
O 	O 	0.02810 0.97010 0.18630 -0.53200
O 	O 	0.93430 0.15730 0.05590 -0.49100
O 	O 	0.94070 0.87130 0.62860 -0.38200
O 	O 	0.76600 0.94450 0.79170 -0.41700
O 	O 	0.00130 0.69960 0.72340 -0.43300
O 	O 	0.97670 0.33130 0.05490 -0.37500
O 	O 	0.76280 0.67640 0.90240 -0.42800
O 	O 	0.95900 0.81110 0.18040 -0.37500
O 	O 	0.21480 0.04650 0.92490 -0.42900
O 	O 	0.64340 0.67230 0.80860 -0.21700
C 	C 	0.99320 0.85600 0.23370 0.42100
C 	C 	0.99380 0.77360 0.35180 -0.07900
C 	C 	0.71080 0.62300 0.86550 0.36800
C 	C 	0.26770 0.12640 0.93560 0.38900
C 	C 	0.40810 0.13870 0.89330 -0.04200
C 	C 	0.46710 0.05170 0.85800 -0.09000
H 	H 	0.42150 0.99590 0.85160 0.14200
C 	C 	0.59170 0.04950 0.83320 -0.08300
C 	C 	0.66000 0.13310 0.84180 -0.02100
H 	H 	0.74520 0.13200 0.82230 0.05100
C 	C 	0.60390 0.21930 0.87910 0.01900
C 	C 	0.47540 0.22120 0.90330 -0.03200
H 	H 	0.43570 0.27880 0.92620 0.09000
C 	C 	0.97660 0.77070 0.63640 0.32500
C 	C 	0.92110 0.26860 0.02920 0.29000
C 	C 	0.65330 0.94810 0.80870 0.40000
C 	C 	0.99020 0.81560 0.43300 0.02200
H 	H 	0.98930 0.89770 0.41500 0.05600
O 	O 	0.58130 0.86960 0.80890 -0.20900
C 	C 	0.99610 0.65020 0.37980 -0.05500
H 	H 	0.99680 0.62400 0.32450 0.08600
C 	C 	0.99730 0.56520 0.48650 0.09900
C 	C 	0.99170 0.60880 0.56790 -0.07400
H 	H 	0.99050 0.55430 0.64140 0.09400
C 	C 	0.98800 0.73080 0.54240 -0.03000
C 	C 	0.81620 0.44380 0.94010 -0.00800
H 	H 	0.86340 0.49240 0.95280 0.08700
C 	C 	0.83310 0.32310 0.96980 0.01400
C 	C 	0.76350 0.25110 0.94880 -0.04500
H 	H 	0.77460 0.17000 0.96850 0.08000
C 	C 	0.67700 0.29960 0.89840 0.03900
C 	C 	0.65900 0.42150 0.87120 -0.03400
H 	H 	0.60030 0.45410 0.83980 0.07600
C 	C 	0.72940 0.49320 0.89160 -0.04900
Eu	Eu	0.92883 0.82940 0.82769 2.10700
O 	O 	0.79000 0.80640 0.02010 -0.49900
O 	O 	0.97190 0.02990 0.81370 -0.52000
O 	O 	0.06570 0.84270 0.94410 -0.49600
O 	O 	0.05930 0.12870 0.37140 -0.40000
O 	O 	0.23400 0.05550 0.20830 -0.44200
O 	O 	0.99870 0.30040 0.27660 -0.30500
O 	O 	0.02330 0.66870 0.94510 -0.43600
O 	O 	0.23720 0.32360 0.09760 -0.45400
O 	O 	0.04100 0.18890 0.81960 -0.37600
O 	O 	0.78520 0.95350 0.07510 -0.42000
O 	O 	0.35660 0.32770 0.19140 -0.25000
C 	C 	0.00680 0.14400 0.76630 0.34400
C 	C 	0.00620 0.22640 0.64820 -0.14500
C 	C 	0.28920 0.37700 0.13450 0.37500
C 	C 	0.73230 0.87360 0.06440 0.44600
C 	C 	0.59190 0.86130 0.10670 -0.17200
C 	C 	0.53290 0.94830 0.14200 0.18600
H 	H 	0.57850 0.00410 0.14840 -0.07000
C 	C 	0.40830 0.95050 0.16680 -0.07500
C 	C 	0.34000 0.86690 0.15820 -0.01300
H 	H 	0.25480 0.86800 0.17770 0.05000
C 	C 	0.39610 0.78070 0.12090 -0.01000
C 	C 	0.52460 0.77880 0.09670 0.02100
H 	H 	0.56430 0.72120 0.07380 0.03600
C 	C 	0.02340 0.22930 0.36360 0.23300
C 	C 	0.07890 0.73140 0.97080 0.48600
C 	C 	0.34670 0.05190 0.19130 0.28600
C 	C 	0.00980 0.18440 0.56700 0.05500
H 	H 	0.01070 0.10230 0.58500 -0.02400
O 	O 	0.41870 0.13040 0.19110 -0.24100
C 	C 	0.00390 0.34980 0.62020 0.02800
H 	H 	0.00320 0.37600 0.67550 0.02700
C 	C 	0.00270 0.43480 0.51350 -0.08100
C 	C 	0.00830 0.39120 0.43210 0.00500
H 	H 	0.00950 0.44570 0.35860 0.02700
C 	C 	0.01200 0.26920 0.45760 -0.08800
C 	C 	0.18380 0.55620 0.05990 0.10300
H 	H 	0.13660 0.50760 0.04720 -0.00700
C 	C 	0.16690 0.67690 0.03020 -0.23100
C 	C 	0.23650 0.74890 0.05120 0.04800
H 	H 	0.22540 0.83000 0.03150 0.00600
C 	C 	0.32300 0.70040 0.10160 -0.03300
C 	C 	0.34100 0.57850 0.12880 0.01100
H 	H 	0.39970 0.54590 0.16020 0.04300
C 	C 	0.27060 0.50680 0.10840 -0.13900
Eu	Eu	-0.00000 0.00000 -0.00000 1.45500
