data_crystal

_cell_length_a 11.64700
_cell_length_b 12.24700
_cell_length_c 13.60400
_cell_angle_alpha 65.01000
_cell_angle_beta  67.88000
_cell_angle_gamma 88.32000

_symmetry_space_group_name_	'P 1'
_symmetry_space_group_name_H-M	'P 1'

loop_
_symmetry_equiv_pos_as_xyz
  x,y,z

loop_
_atom_site_label
_atom_site_type_symbol
_atom_site_fract_x
_atom_site_fract_y
_atom_site_fract_z
_atom_site_charge
O 	O 	0.47510 0.03070 0.31170 -0.66900
O 	O 	0.54030 0.19000 0.31970 -0.45200
O 	O 	0.28240 0.95220 0.58040 -0.45900
O 	O 	0.56730 0.84230 0.44210 -0.55900
C 	C 	0.49100 0.85570 0.73500 0.39800
Sm	Sm	0.57053 0.17117 0.67186 1.99900
C 	C 	0.76910 0.12750 0.43220 0.42400
C 	C 	0.49230 0.77270 0.85240 -0.10000
O 	O 	0.73970 0.32550 0.59360 -0.44800
O 	O 	0.70930 0.19200 0.47790 -0.49100
O 	O 	0.50040 0.30230 0.77600 -0.40600
O 	O 	0.56000 0.12920 0.87130 -0.42600
O 	O 	0.47480 0.33190 0.55560 -0.43900
O 	O 	0.73520 0.05660 0.70510 -0.46900
C 	C 	0.90820 0.13730 0.39280 -0.08600
C 	C 	0.48910 0.81480 0.93380 0.04200
C 	C 	0.49620 0.65000 0.87950 -0.03100
C 	C 	0.97600 0.22100 0.40330 -0.01500
C 	C 	0.96830 0.05140 0.35750 -0.09800
C 	C 	0.48590 0.73110 0.04220 -0.05200
H 	H 	0.48910 0.89700 0.91570 0.03800
C 	C 	0.49770 0.56450 0.98640 0.04500
H 	H 	0.49790 0.62400 0.82390 0.06000
C 	C 	0.10280 0.21920 0.37960 -0.00900
H 	H 	0.93600 0.27830 0.42640 0.06300
H 	H 	0.92350 0.99620 0.34960 0.15400
C 	C 	0.09280 0.04860 0.33450 -0.15500
C 	C 	0.49090 0.60900 0.06850 -0.06100
C 	C 	0.47520 0.77050 0.13640 0.28900
C 	C 	0.16080 0.13190 0.34380 0.00000
C 	C 	0.17520 0.29810 0.40050 -0.01200
C 	C 	0.15550 0.94820 0.30880 0.46000
H 	H 	0.48980 0.55530 0.14180 0.07300
H 	H 	0.24590 0.13030 0.32620 0.01900
C 	C 	0.15850 0.41970 0.37450 -0.00200
C 	C 	0.26050 0.25120 0.45080 0.02300
O 	O 	0.08260 0.86890 0.31030 -0.24100
C 	C 	0.22740 0.48990 0.39690 -0.10600
H 	H 	0.10090 0.45330 0.34210 0.05300
C 	C 	0.33000 0.32230 0.47250 -0.13100
H 	H 	0.27150 0.17020 0.47050 0.01100
C 	C 	0.20830 0.62160 0.37000 0.38900
C 	C 	0.31340 0.44330 0.44390 0.06400
C 	C 	0.41980 0.26800 0.52990 0.42000
O 	O 	0.14200 0.67020 0.31320 -0.24200
H 	H 	0.36030 0.49230 0.45660 0.03600
O 	O 	0.52490 0.96930 0.68830 -0.54500
O 	O 	0.45970 0.81000 0.68030 -0.42400
O 	O 	0.71760 0.04780 0.41960 -0.54000
O 	O 	0.43270 0.15770 0.55790 -0.60800
C 	C 	0.50900 0.14430 0.26500 0.43100
Sm	Sm	0.42948 0.82883 0.32814 2.17200
C 	C 	0.23090 0.87250 0.56780 0.47800
C 	C 	0.50770 0.22730 0.14760 -0.15900
O 	O 	0.26030 0.67450 0.40640 -0.46800
O 	O 	0.29070 0.80800 0.52210 -0.50200
O 	O 	0.49960 0.69770 0.22400 -0.40600
O 	O 	0.44000 0.87080 0.12870 -0.38700
O 	O 	0.52520 0.66810 0.44440 -0.44300
O 	O 	0.26480 0.94340 0.29490 -0.45100
C 	C 	0.09180 0.86270 0.60720 -0.18100
C 	C 	0.51090 0.18520 0.06620 0.06500
C 	C 	0.50380 0.35000 0.12050 0.02500
C 	C 	0.02400 0.77900 0.59670 0.03200
C 	C 	0.03170 0.94860 0.64250 0.22200
C 	C 	0.51410 0.26890 0.95780 -0.08900
H 	H 	0.51090 0.10300 0.08430 -0.02200
C 	C 	0.50230 0.43550 0.01360 -0.04100
H 	H 	0.50210 0.37600 0.17610 0.03900
C 	C 	0.89720 0.78080 0.62040 -0.01100
H 	H 	0.06400 0.72170 0.57360 0.04400
H 	H 	0.07650 0.00380 0.65040 -0.08000
C 	C 	0.90720 0.95140 0.66550 -0.07800
C 	C 	0.50910 0.39100 0.93150 0.00500
C 	C 	0.52480 0.22950 0.86360 0.30100
C 	C 	0.83920 0.86810 0.65620 0.01100
C 	C 	0.82480 0.70190 0.59950 0.01300
C 	C 	0.84450 0.05180 0.69120 0.32800
H 	H 	0.51020 0.44470 0.85820 0.04900
H 	H 	0.75410 0.86970 0.67380 0.05100
C 	C 	0.84150 0.58030 0.62550 -0.01600
C 	C 	0.73950 0.74880 0.54920 -0.00200
O 	O 	0.91740 0.13110 0.68970 -0.23500
C 	C 	0.77260 0.51010 0.60310 -0.08900
H 	H 	0.89910 0.54670 0.65790 0.06100
C 	C 	0.67000 0.67770 0.52750 -0.10300
H 	H 	0.72850 0.82980 0.52950 0.04800
C 	C 	0.79170 0.37840 0.63000 0.38000
C 	C 	0.68660 0.55670 0.55610 0.04700
C 	C 	0.58020 0.73200 0.47010 0.40500
O 	O 	0.85800 0.32980 0.68680 -0.24200
H 	H 	0.63970 0.50770 0.54340 0.04500
Sm	Sm	0.50000 -0.00000 0.50000 1.96900
