data_crystal

_cell_length_a 11.00600
_cell_length_b 19.84700
_cell_length_c 23.22800
_cell_angle_alpha 90.00000
_cell_angle_beta  90.00000
_cell_angle_gamma 99.91000

_symmetry_space_group_name_	'P 1'
_symmetry_space_group_name_H-M	'P 1'

loop_
_symmetry_equiv_pos_as_xyz
  x,y,z

loop_
_atom_site_label
_atom_site_type_symbol
_atom_site_fract_x
_atom_site_fract_y
_atom_site_fract_z
_atom_site_charge
La	La	0.46193 0.60177 0.85561 1.51500
La	La	0.53807 0.39823 0.14439 1.51500
La	La	0.14886 0.85527 0.85631 1.37600
La	La	0.85114 0.14473 0.14369 1.37600
La	La	0.03807 0.89823 0.35561 1.51300
La	La	0.64886 0.35527 0.64369 1.38000
La	La	0.96193 0.10177 0.64439 1.51300
La	La	0.35114 0.64473 0.35631 1.38000
Cu	Cu	0.90985 0.10248 0.82038 0.88200
Cu	Cu	0.40985 0.60248 0.67962 0.88200
Cu	Cu	0.19867 0.84996 0.67992 0.89600
Cu	Cu	0.59015 0.39752 0.32038 0.88200
Cu	Cu	0.09015 0.89752 0.17962 0.88200
Cu	Cu	0.80133 0.15004 0.32008 0.89600
Cu	Cu	0.30133 0.65004 0.17992 0.89700
Cu	Cu	0.69867 0.34996 0.82008 0.89700
H 	H 	0.27180 0.24100 0.20590 0.03200
H 	H 	0.41950 0.04090 0.58160 0.06000
H 	H 	0.37920 0.05650 0.30340 0.05400
H 	H 	0.58050 0.95910 0.41840 0.06000
H 	H 	0.48420 0.00970 0.80330 0.02200
H 	H 	0.77180 0.74100 0.29410 0.03100
H 	H 	0.01580 0.49030 0.30330 0.02100
H 	H 	0.87920 0.55650 0.19660 0.05500
H 	H 	0.60860 0.80640 0.29970 0.03900
H 	H 	0.39140 0.19360 0.70030 0.03900
H 	H 	0.89140 0.69360 0.79970 0.03900
H 	H 	0.98420 0.50970 0.69670 0.02100
H 	H 	0.10860 0.30640 0.20030 0.03900
H 	H 	0.72820 0.75900 0.79410 0.03200
H 	H 	0.91950 0.54090 0.91840 0.06000
H 	H 	0.22820 0.25900 0.70590 0.03100
H 	H 	0.08050 0.45910 0.08160 0.06000
H 	H 	0.62080 0.94350 0.69660 0.05400
H 	H 	0.12080 0.44350 0.80340 0.05500
H 	H 	0.51580 0.99030 0.19670 0.02200
C 	C 	0.72060 0.64110 0.27980 -0.05900
C 	C 	0.83490 0.59350 0.78420 -0.03400
C 	C 	0.27940 0.35890 0.72020 -0.05900
C 	C 	0.16510 0.40650 0.21580 -0.03400
C 	C 	0.42300 0.97650 0.45430 -0.06400
C 	C 	0.99120 0.33290 0.25930 -0.07500
C 	C 	0.45560 0.83660 0.67460 0.32400
C 	C 	0.37290 0.00200 0.50360 -0.03600
C 	C 	0.22060 0.14110 0.22020 -0.05800
C 	C 	0.40890 0.15690 0.72180 -0.00800
C 	C 	0.53580 0.71500 0.72980 0.37300
C 	C 	0.10410 0.28590 0.76160 -0.09700
C 	C 	0.60410 0.78590 0.73840 -0.09600
C 	C 	0.79240 0.70400 0.27400 0.00000
C 	C 	0.57700 0.02350 0.54570 -0.06400
C 	C 	0.29240 0.20400 0.22600 -0.00100
C 	C 	0.92300 0.47650 0.04570 -0.06400
C 	C 	0.42820 0.15840 0.29120 -0.03900
C 	C 	0.60140 0.63490 0.31170 0.30200
C 	C 	0.23940 0.00820 0.51000 0.30300
C 	C 	0.65910 0.05390 0.59430 0.35400
C 	C 	0.73940 0.50820 0.99000 0.30000
C 	C 	0.28520 0.41150 0.18310 0.29700
C 	C 	0.49120 0.83290 0.24070 -0.07400
C 	C 	0.20760 0.29600 0.72600 0.00000
C 	C 	0.53800 0.11100 0.79000 -0.05500
C 	C 	0.59110 0.84310 0.27820 -0.00800
C 	C 	0.25190 0.08380 0.24970 -0.07500
C 	C 	0.21480 0.08850 0.68310 0.29700
C 	C 	0.96420 0.78500 0.22980 0.37600
C 	C 	0.65150 0.11490 0.82680 0.34100
C 	C 	0.89860 0.86510 0.81170 0.30100
C 	C 	0.03800 0.61100 0.71000 -0.05500
C 	C 	0.96490 0.54690 0.71690 0.01000
C 	C 	0.07180 0.34160 0.79120 -0.03700
C 	C 	0.81670 0.98710 0.75950 0.38900
C 	C 	0.39860 0.36510 0.68830 0.30200
C 	C 	0.68330 0.51290 0.25950 0.38500
C 	C 	0.70760 0.79600 0.77400 -0.00100
C 	C 	0.07700 0.52350 0.95430 -0.06400
C 	C 	0.50880 0.16710 0.75930 -0.07400
C 	C 	0.71480 0.58850 0.81690 0.29700
C 	C 	0.85660 0.59370 0.21560 -0.01200
C 	C 	0.00880 0.66710 0.74070 -0.07500
C 	C 	0.39590 0.21410 0.26160 -0.09600
C 	C 	0.70720 0.03350 0.26070 0.37900
C 	C 	0.31670 0.48710 0.74050 0.38500
C 	C 	0.29280 0.96650 0.73930 0.37900
C 	C 	0.15150 0.61490 0.67320 0.34100
C 	C 	0.57790 0.23820 0.76820 0.36800
C 	C 	0.54440 0.16340 0.32540 0.32400
C 	C 	0.76060 0.99180 0.49000 0.30300
C 	C 	0.45160 0.02450 0.54840 -0.00500
C 	C 	0.57180 0.84160 0.70880 -0.03900
C 	C 	0.86370 0.53790 0.75330 -0.08200
C 	C 	0.64340 0.90630 0.71560 -0.01000
C 	C 	0.33490 0.09350 0.71580 -0.03400
C 	C 	0.46200 0.88900 0.21000 -0.05500
C 	C 	0.46420 0.28500 0.27020 0.37300
C 	C 	0.09110 0.34310 0.22180 -0.00700
C 	C 	0.10140 0.13490 0.18830 0.30100
C 	C 	0.15910 0.55390 0.90570 0.35400
C 	C 	0.34850 0.88510 0.17320 0.34100
C 	C 	0.36370 0.03790 0.74670 -0.08000
C 	C 	0.78520 0.91150 0.31690 0.29700
C 	C 	0.53510 0.95310 0.21690 0.00800
C 	C 	0.04440 0.66340 0.17460 0.32200
C 	C 	0.89590 0.71410 0.23840 -0.09700
C 	C 	0.90890 0.65690 0.77820 -0.00700
C 	C 	0.54840 0.97550 0.45160 -0.00500
C 	C 	0.63630 0.96210 0.25330 -0.08000
C 	C 	0.62710 0.99800 0.49640 -0.03600
C 	C 	0.95560 0.33660 0.82540 0.32200
C 	C 	0.77940 0.85890 0.77980 -0.05800
C 	C 	0.35660 0.09370 0.28440 -0.01000
C 	C 	0.26060 0.49180 0.01000 0.30000
C 	C 	0.75190 0.58380 0.25030 -0.07300
C 	C 	0.46490 0.04690 0.78310 0.00800
C 	C 	0.24810 0.41620 0.74970 -0.07300
C 	C 	0.96200 0.38900 0.29000 -0.05500
C 	C 	0.04840 0.47550 0.04840 -0.00500
C 	C 	0.12710 0.49800 0.00360 -0.03500
C 	C 	0.84090 0.44610 0.09430 0.35400
C 	C 	0.03580 0.21500 0.77020 0.37600
C 	C 	0.79280 0.46650 0.76070 0.38100
C 	C 	0.18330 0.01290 0.24050 0.38900
C 	C 	0.20720 0.53350 0.23930 0.38100
C 	C 	0.14340 0.40630 0.78440 -0.01200
C 	C 	0.42210 0.76180 0.23180 0.36800
C 	C 	0.92820 0.65840 0.20880 -0.03700
C 	C 	0.92210 0.26180 0.26820 0.36800
C 	C 	0.13630 0.46210 0.24670 -0.08200
C 	C 	0.66510 0.90650 0.28420 -0.03400
C 	C 	0.07790 0.73820 0.73180 0.36800
C 	C 	0.03510 0.45310 0.28310 0.01000
C 	C 	0.84850 0.38510 0.32680 0.34100
C 	C 	0.87290 0.50200 0.99640 -0.03500
C 	C 	0.74810 0.91620 0.75030 -0.07500
C 	C 	0.95160 0.52450 0.95160 -0.00500
C 	C 	0.34090 0.94610 0.40570 0.35400
O 	O 	0.59270 0.67070 0.35540 -0.40200
O 	O 	0.09020 0.77900 0.77300 -0.47000
O 	O 	0.79700 0.94190 0.51290 -0.26100
O 	O 	0.96190 0.34880 0.87740 -0.26900
O 	O 	0.14120 0.59530 0.62310 -0.31300
O 	O 	0.52620 0.67470 0.77160 -0.48400
O 	O 	0.60490 0.07130 0.63780 -0.29300
O 	O 	0.50660 0.59540 0.29170 -0.37400
O 	O 	0.32670 0.50800 0.68880 -0.42900
O 	O 	0.87880 0.95020 0.29600 -0.36600
O 	O 	0.38460 0.74530 0.18170 -0.41100
O 	O 	0.64120 0.09530 0.87690 -0.31300
O 	O 	0.53810 0.15120 0.37740 -0.26900
O 	O 	0.74640 0.36570 0.30130 -0.38300
O 	O 	0.76090 0.43160 0.71640 -0.47600
O 	O 	0.97380 0.82530 0.27160 -0.48300
O 	O 	0.47380 0.32530 0.22840 -0.48400
O 	O 	0.37880 0.45020 0.20400 -0.36800
O 	O 	0.77100 0.05980 0.58900 -0.44400
O 	O 	0.99340 0.90460 0.79170 -0.37200
O 	O 	0.17330 0.99200 0.18880 -0.43100
O 	O 	0.35630 0.82240 0.70380 -0.38100
O 	O 	0.20300 0.05810 0.48710 -0.26100
O 	O 	0.24640 0.86570 0.19870 -0.38300
O 	O 	0.32810 0.53570 0.03970 -0.28000
O 	O 	0.03810 0.65120 0.12260 -0.26900
O 	O 	0.40730 0.32930 0.64460 -0.40200
O 	O 	0.50700 0.30200 0.31930 -0.41700
O 	O 	0.75360 0.13430 0.80130 -0.38300
O 	O 	0.09270 0.17070 0.14460 -0.40100
O 	O 	0.89510 0.42870 0.13780 -0.29400
O 	O 	0.79220 0.87650 0.36140 -0.37100
O 	O 	0.25360 0.63430 0.69870 -0.38300
O 	O 	0.62120 0.54980 0.79600 -0.36800
O 	O 	0.00700 0.80200 0.18070 -0.42000
O 	O 	0.88460 0.24530 0.31830 -0.41100
O 	O 	0.17190 0.96430 0.53970 -0.28200
O 	O 	0.70300 0.55810 0.01290 -0.26100
O 	O 	0.02620 0.17470 0.72840 -0.48300
O 	O 	0.10490 0.57130 0.86220 -0.29400
O 	O 	0.40980 0.72100 0.27300 -0.46900
O 	O 	0.39510 0.92870 0.36220 -0.29300
O 	O 	0.26090 0.93160 0.78360 -0.47600
O 	O 	0.22900 0.94020 0.41100 -0.44400
O 	O 	0.85880 0.40470 0.37690 -0.31300
O 	O 	0.14560 0.97800 0.28310 -0.45100
O 	O 	0.11540 0.75470 0.68170 -0.41100
O 	O 	0.72900 0.44020 0.08900 -0.44300
O 	O 	0.77710 0.44480 0.81170 -0.40200
O 	O 	0.99300 0.19800 0.81930 -0.42000
O 	O 	0.85440 0.02200 0.71690 -0.45100
O 	O 	0.90980 0.22100 0.22700 -0.47000
O 	O 	0.61540 0.25470 0.81830 -0.41100
O 	O 	0.64370 0.17760 0.29620 -0.38100
O 	O 	0.82670 0.00800 0.81120 -0.43100
O 	O 	0.00660 0.09540 0.20830 -0.37200
O 	O 	0.59020 0.27900 0.72700 -0.46900
O 	O 	0.85630 0.32240 0.79620 -0.38100
O 	O 	0.29700 0.44190 0.98710 -0.26100
O 	O 	0.23910 0.56840 0.28360 -0.47600
O 	O 	0.49300 0.69800 0.68070 -0.41700
O 	O 	0.12120 0.04980 0.70400 -0.36600
O 	O 	0.46190 0.84880 0.62260 -0.26900
O 	O 	0.49340 0.40460 0.70830 -0.37400
O 	O 	0.67330 0.49200 0.31120 -0.42900
O 	O 	0.72290 0.05520 0.31170 -0.40300
O 	O 	0.20780 0.12350 0.63860 -0.37100
O 	O 	0.29220 0.37650 0.13860 -0.37200
O 	O 	0.90730 0.82930 0.85540 -0.40100
O 	O 	0.14370 0.67760 0.20380 -0.38100
O 	O 	0.35880 0.90470 0.12310 -0.31300
O 	O 	0.27710 0.94480 0.68830 -0.40300
O 	O 	0.70780 0.62350 0.86140 -0.37200
O 	O 	0.64560 0.47800 0.21690 -0.44800
O 	O 	0.73910 0.06840 0.21640 -0.47600
O 	O 	0.35440 0.52200 0.78310 -0.44800
O 	O 	0.22290 0.55520 0.18830 -0.40200
O 	O 	0.27100 0.55980 0.91100 -0.44300
O 	O 	0.82810 0.03570 0.46030 -0.28200
O 	O 	0.67190 0.46430 0.96030 -0.28000
