data_crystal

_cell_length_a 25.70400
_cell_length_b 25.70400
_cell_length_c 25.70400
_cell_angle_alpha 90.00000
_cell_angle_beta  90.00000
_cell_angle_gamma 90.00000

_symmetry_space_group_name_	'P 1'
_symmetry_space_group_name_H-M	'P 1'

loop_
_symmetry_equiv_pos_as_xyz
  x,y,z

loop_
_atom_site_label
_atom_site_type_symbol
_atom_site_fract_x
_atom_site_fract_y
_atom_site_fract_z
_atom_site_charge
N 	N 	0.19710 0.80350 0.39170 -0.29100
C 	C 	0.23590 0.81230 0.42350 0.08500
H 	H 	0.27030 0.81480 0.41250 -0.06800
N 	N 	0.22120 0.81750 0.47450 -0.13100
C 	C 	0.15520 0.80300 0.42330 0.01400
H 	H 	0.12120 0.79990 0.41120 0.00100
C 	C 	0.16670 0.80700 0.47090 -0.02800
H 	H 	0.14380 0.80370 0.49870 0.03700
C 	C 	0.25200 0.82540 0.52140 0.07400
C 	C 	0.31190 0.83980 0.60730 0.11000
C 	C 	0.33410 0.82740 0.56600 -0.12000
H 	H 	0.37010 0.82400 0.56510 0.07100
C 	C 	0.22910 0.83420 0.56920 -0.05600
H 	H 	0.19310 0.83410 0.57270 0.04900
C 	C 	0.25980 0.84280 0.61060 -0.10400
H 	H 	0.24460 0.85110 0.64240 0.06900
C 	C 	0.30240 0.81790 0.51760 -0.06600
H 	H 	0.31780 0.80720 0.48660 0.04700
N 	N 	0.30290 0.19650 0.89170 -0.29100
C 	C 	0.26410 0.18770 0.92350 0.08500
H 	H 	0.22970 0.18520 0.91250 -0.06800
N 	N 	0.27880 0.18250 0.97450 -0.13100
C 	C 	0.34480 0.19700 0.92330 0.01400
H 	H 	0.37880 0.20010 0.91120 0.00100
C 	C 	0.33330 0.19300 0.97090 -0.02800
H 	H 	0.35620 0.19630 0.99870 0.03700
C 	C 	0.24800 0.17460 0.02140 0.07400
C 	C 	0.18810 0.16020 0.10730 0.11000
C 	C 	0.16590 0.17260 0.06600 -0.12000
H 	H 	0.12990 0.17600 0.06510 0.07000
C 	C 	0.27090 0.16580 0.06920 -0.05600
H 	H 	0.30690 0.16590 0.07270 0.04900
C 	C 	0.24020 0.15720 0.11060 -0.10400
H 	H 	0.25540 0.14890 0.14240 0.06900
C 	C 	0.19760 0.18210 0.01760 -0.06600
H 	H 	0.18220 0.19280 0.98660 0.04700
N 	N 	0.80290 0.30350 0.10830 -0.29100
C 	C 	0.76410 0.31230 0.07650 0.08500
H 	H 	0.72970 0.31480 0.08750 -0.06800
N 	N 	0.77880 0.31750 0.02550 -0.13100
C 	C 	0.84480 0.30300 0.07670 0.01400
H 	H 	0.87880 0.29990 0.08880 0.00100
C 	C 	0.83330 0.30700 0.02910 -0.02800
H 	H 	0.85620 0.30370 0.00130 0.03700
C 	C 	0.74800 0.32540 0.97860 0.07400
C 	C 	0.68810 0.33980 0.89270 0.11000
C 	C 	0.66590 0.32740 0.93400 -0.12000
H 	H 	0.62990 0.32400 0.93490 0.07100
C 	C 	0.77090 0.33420 0.93080 -0.05600
H 	H 	0.80690 0.33410 0.92730 0.04900
C 	C 	0.74020 0.34280 0.88940 -0.10400
H 	H 	0.75540 0.35110 0.85760 0.06900
C 	C 	0.69760 0.31790 0.98240 -0.06600
H 	H 	0.68220 0.30720 0.01340 0.04700
N 	N 	0.69710 0.69650 0.60830 -0.29100
C 	C 	0.73590 0.68770 0.57650 0.08500
H 	H 	0.77030 0.68520 0.58750 -0.06800
N 	N 	0.72120 0.68250 0.52550 -0.13100
C 	C 	0.65520 0.69700 0.57670 0.01400
H 	H 	0.62120 0.70010 0.58880 0.00100
C 	C 	0.66670 0.69300 0.52910 -0.02800
H 	H 	0.64380 0.69630 0.50130 0.03700
C 	C 	0.75200 0.67460 0.47860 0.07400
C 	C 	0.81190 0.66020 0.39270 0.11000
C 	C 	0.83410 0.67260 0.43400 -0.12000
H 	H 	0.87010 0.67600 0.43490 0.07100
C 	C 	0.72910 0.66580 0.43080 -0.05600
H 	H 	0.69310 0.66590 0.42730 0.04900
C 	C 	0.75980 0.65720 0.38940 -0.10400
H 	H 	0.74460 0.64890 0.35760 0.06900
C 	C 	0.80240 0.68210 0.48240 -0.06600
H 	H 	0.81780 0.69280 0.51340 0.04700
N 	N 	0.39170 0.19710 0.80350 -0.29100
C 	C 	0.42350 0.23590 0.81230 0.08500
H 	H 	0.41250 0.27030 0.81480 -0.06800
N 	N 	0.47450 0.22120 0.81750 -0.13100
C 	C 	0.42330 0.15520 0.80300 0.01400
H 	H 	0.41120 0.12120 0.79990 0.00100
C 	C 	0.47090 0.16670 0.80700 -0.02800
H 	H 	0.49870 0.14380 0.80370 0.03700
C 	C 	0.52140 0.25200 0.82540 0.07400
C 	C 	0.60730 0.31190 0.83980 0.11000
C 	C 	0.56600 0.33410 0.82740 -0.12000
H 	H 	0.56510 0.37010 0.82400 0.07100
C 	C 	0.56920 0.22910 0.83420 -0.05600
H 	H 	0.57270 0.19310 0.83410 0.04900
C 	C 	0.61060 0.25980 0.84280 -0.10400
H 	H 	0.64240 0.24460 0.85110 0.06900
C 	C 	0.51760 0.30240 0.81790 -0.06600
H 	H 	0.48660 0.31780 0.80720 0.04700
N 	N 	0.89170 0.30290 0.19650 -0.29100
C 	C 	0.92350 0.26410 0.18770 0.08500
H 	H 	0.91250 0.22970 0.18520 -0.06800
N 	N 	0.97450 0.27880 0.18250 -0.13100
C 	C 	0.92330 0.34480 0.19700 0.01400
H 	H 	0.91120 0.37880 0.20010 0.00100
C 	C 	0.97090 0.33330 0.19300 -0.02800
H 	H 	0.99870 0.35620 0.19630 0.03700
C 	C 	0.02140 0.24800 0.17460 0.07400
C 	C 	0.10730 0.18810 0.16020 0.11000
C 	C 	0.06600 0.16590 0.17260 -0.12000
H 	H 	0.06510 0.12990 0.17600 0.07000
C 	C 	0.06920 0.27090 0.16580 -0.05600
H 	H 	0.07270 0.30690 0.16590 0.04900
C 	C 	0.11060 0.24020 0.15720 -0.10400
H 	H 	0.14240 0.25540 0.14890 0.06900
C 	C 	0.01760 0.19760 0.18210 -0.06600
H 	H 	0.98660 0.18220 0.19280 0.04700
N 	N 	0.10830 0.80290 0.30350 -0.29100
C 	C 	0.07650 0.76410 0.31230 0.08500
H 	H 	0.08750 0.72970 0.31480 -0.06800
N 	N 	0.02550 0.77880 0.31750 -0.13100
C 	C 	0.07670 0.84480 0.30300 0.01400
H 	H 	0.08880 0.87880 0.29990 0.00100
C 	C 	0.02910 0.83330 0.30700 -0.02800
H 	H 	0.00130 0.85620 0.30370 0.03700
C 	C 	0.97860 0.74800 0.32540 0.07500
C 	C 	0.89270 0.68810 0.33980 0.11100
C 	C 	0.93400 0.66590 0.32740 -0.11900
H 	H 	0.93490 0.62990 0.32400 0.07200
C 	C 	0.93080 0.77090 0.33420 -0.05500
H 	H 	0.92730 0.80690 0.33410 0.05000
C 	C 	0.88940 0.74020 0.34280 -0.10300
H 	H 	0.85760 0.75540 0.35110 0.07000
C 	C 	0.98240 0.69760 0.31790 -0.06500
H 	H 	0.01340 0.68220 0.30720 0.04800
N 	N 	0.60830 0.69710 0.69650 -0.29000
C 	C 	0.57650 0.73590 0.68770 0.08600
H 	H 	0.58750 0.77030 0.68520 -0.06700
N 	N 	0.52550 0.72120 0.68250 -0.13000
C 	C 	0.57670 0.65520 0.69700 0.01500
H 	H 	0.58880 0.62120 0.70010 0.00200
C 	C 	0.52910 0.66670 0.69300 -0.02700
H 	H 	0.50130 0.64380 0.69630 0.03800
C 	C 	0.47860 0.75200 0.67460 0.07500
C 	C 	0.39270 0.81190 0.66020 0.11100
C 	C 	0.43400 0.83410 0.67260 -0.11900
H 	H 	0.43490 0.87010 0.67600 0.07200
C 	C 	0.43080 0.72910 0.66580 -0.05500
H 	H 	0.42730 0.69310 0.66590 0.05000
C 	C 	0.38940 0.75980 0.65720 -0.10300
H 	H 	0.35760 0.74460 0.64890 0.07000
C 	C 	0.48240 0.80240 0.68210 -0.06500
H 	H 	0.51340 0.81780 0.69280 0.04800
N 	N 	0.80350 0.39170 0.19710 -0.29000
C 	C 	0.81230 0.42350 0.23590 0.08600
H 	H 	0.81480 0.41250 0.27030 -0.06700
N 	N 	0.81750 0.47450 0.22120 -0.13000
C 	C 	0.80300 0.42330 0.15520 0.01500
H 	H 	0.79990 0.41120 0.12120 0.00200
C 	C 	0.80700 0.47090 0.16670 -0.02700
H 	H 	0.80370 0.49870 0.14380 0.03800
C 	C 	0.82540 0.52140 0.25200 0.07500
C 	C 	0.83980 0.60730 0.31190 0.11100
C 	C 	0.82740 0.56600 0.33410 -0.11900
H 	H 	0.82400 0.56510 0.37010 0.07200
C 	C 	0.83420 0.56920 0.22910 -0.05500
H 	H 	0.83410 0.57270 0.19310 0.05000
C 	C 	0.84280 0.61060 0.25980 -0.10300
H 	H 	0.85110 0.64240 0.24460 0.07000
C 	C 	0.81790 0.51760 0.30240 -0.06500
H 	H 	0.80720 0.48660 0.31780 0.04800
N 	N 	0.19650 0.89170 0.30290 -0.29000
C 	C 	0.18770 0.92350 0.26410 0.08600
H 	H 	0.18520 0.91250 0.22970 -0.06700
N 	N 	0.18250 0.97450 0.27880 -0.13000
C 	C 	0.19700 0.92330 0.34480 0.01500
H 	H 	0.20010 0.91120 0.37880 0.00200
C 	C 	0.19300 0.97090 0.33330 -0.02700
H 	H 	0.19630 0.99870 0.35620 0.03800
C 	C 	0.17460 0.02140 0.24800 0.07500
C 	C 	0.16020 0.10730 0.18810 0.11100
C 	C 	0.17260 0.06600 0.16590 -0.11900
H 	H 	0.17600 0.06510 0.12990 0.07100
C 	C 	0.16580 0.06920 0.27090 -0.05500
H 	H 	0.16590 0.07270 0.30690 0.05000
C 	C 	0.15720 0.11060 0.24020 -0.10300
H 	H 	0.14890 0.14240 0.25540 0.07000
C 	C 	0.18210 0.01760 0.19760 -0.06500
H 	H 	0.19280 0.98660 0.18220 0.04800
N 	N 	0.30350 0.10830 0.80290 -0.29000
C 	C 	0.31230 0.07650 0.76410 0.08600
H 	H 	0.31480 0.08750 0.72970 -0.06700
N 	N 	0.31750 0.02550 0.77880 -0.13000
C 	C 	0.30300 0.07670 0.84480 0.01500
H 	H 	0.29990 0.08880 0.87880 0.00200
C 	C 	0.30700 0.02910 0.83330 -0.02700
H 	H 	0.30370 0.00130 0.85620 0.03800
C 	C 	0.32540 0.97860 0.74800 0.07500
C 	C 	0.33980 0.89270 0.68810 0.11100
C 	C 	0.32740 0.93400 0.66590 -0.11900
H 	H 	0.32400 0.93490 0.62990 0.07200
C 	C 	0.33420 0.93080 0.77090 -0.05500
H 	H 	0.33410 0.92730 0.80690 0.05000
C 	C 	0.34280 0.88940 0.74020 -0.10300
H 	H 	0.35110 0.85760 0.75540 0.07000
C 	C 	0.31790 0.98240 0.69760 -0.06500
H 	H 	0.30720 0.01340 0.68220 0.04800
N 	N 	0.69650 0.60830 0.69710 -0.29000
C 	C 	0.68770 0.57650 0.73590 0.08600
H 	H 	0.68520 0.58750 0.77030 -0.06700
N 	N 	0.68250 0.52550 0.72120 -0.13000
C 	C 	0.69700 0.57670 0.65520 0.01500
H 	H 	0.70010 0.58880 0.62120 0.00200
C 	C 	0.69300 0.52910 0.66670 -0.02700
H 	H 	0.69630 0.50130 0.64380 0.03800
C 	C 	0.67460 0.47860 0.75200 0.07500
C 	C 	0.66020 0.39270 0.81190 0.11100
C 	C 	0.67260 0.43400 0.83410 -0.11900
H 	H 	0.67600 0.43490 0.87010 0.07200
C 	C 	0.66580 0.43080 0.72910 -0.05500
H 	H 	0.66590 0.42730 0.69310 0.05000
C 	C 	0.65720 0.38940 0.75980 -0.10300
H 	H 	0.64890 0.35760 0.74460 0.07000
C 	C 	0.68210 0.48240 0.80240 -0.06500
H 	H 	0.69280 0.51340 0.81780 0.04800
Cd	Cd	0.19949 0.80051 0.30051 1.02900
Cd	Cd	0.30051 0.19949 0.80051 1.02900
Cd	Cd	0.69949 0.69949 0.69949 1.02900
Cd	Cd	0.80051 0.30051 0.19949 1.02900
N 	N 	0.34320 0.84320 0.65680 -0.15400
N 	N 	0.65680 0.34320 0.84320 -0.15400
N 	N 	0.84320 0.65680 0.34320 -0.15400
N 	N 	0.15680 0.15680 0.15680 -0.15400
N 	N 	0.19710 0.30350 0.89170 -0.29000
C 	C 	0.23590 0.31230 0.92350 0.08600
H 	H 	0.27030 0.31480 0.91250 -0.06700
N 	N 	0.22120 0.31750 0.97450 -0.13000
C 	C 	0.15520 0.30300 0.92330 0.01500
H 	H 	0.12120 0.29990 0.91120 0.00200
C 	C 	0.16670 0.30700 0.97090 -0.02700
H 	H 	0.14380 0.30370 0.99870 0.03800
C 	C 	0.25200 0.32540 0.02140 0.07500
C 	C 	0.31190 0.33980 0.10730 0.11100
C 	C 	0.33410 0.32740 0.06600 -0.11900
H 	H 	0.37010 0.32400 0.06510 0.07200
C 	C 	0.22910 0.33420 0.06920 -0.05500
H 	H 	0.19310 0.33410 0.07270 0.05000
C 	C 	0.25980 0.34280 0.11060 -0.10300
H 	H 	0.24460 0.35110 0.14240 0.07000
C 	C 	0.30240 0.31790 0.01760 -0.06500
H 	H 	0.31780 0.30720 0.98660 0.04800
N 	N 	0.30290 0.69650 0.39170 -0.29000
C 	C 	0.26410 0.68770 0.42350 0.08600
H 	H 	0.22970 0.68520 0.41250 -0.06700
N 	N 	0.27880 0.68250 0.47450 -0.13000
C 	C 	0.34480 0.69700 0.42330 0.01500
H 	H 	0.37880 0.70010 0.41120 0.00200
C 	C 	0.33330 0.69300 0.47090 -0.02700
H 	H 	0.35620 0.69630 0.49870 0.03800
C 	C 	0.24800 0.67460 0.52140 0.07500
C 	C 	0.18810 0.66020 0.60730 0.11100
C 	C 	0.16590 0.67260 0.56600 -0.11900
H 	H 	0.12990 0.67600 0.56510 0.07200
C 	C 	0.27090 0.66580 0.56920 -0.05500
H 	H 	0.30690 0.66590 0.57270 0.05000
C 	C 	0.24020 0.65720 0.61060 -0.10300
H 	H 	0.25540 0.64890 0.64240 0.07000
C 	C 	0.19760 0.68210 0.51760 -0.06500
H 	H 	0.18220 0.69280 0.48660 0.04800
N 	N 	0.80290 0.80350 0.60830 -0.29000
C 	C 	0.76410 0.81230 0.57650 0.08600
H 	H 	0.72970 0.81480 0.58750 -0.06700
N 	N 	0.77880 0.81750 0.52550 -0.13000
C 	C 	0.84480 0.80300 0.57670 0.01500
H 	H 	0.87880 0.79990 0.58880 0.00200
C 	C 	0.83330 0.80700 0.52910 -0.02700
H 	H 	0.85620 0.80370 0.50130 0.03800
C 	C 	0.74800 0.82540 0.47860 0.07500
C 	C 	0.68810 0.83980 0.39270 0.11100
C 	C 	0.66590 0.82740 0.43400 -0.11900
H 	H 	0.62990 0.82400 0.43490 0.07200
C 	C 	0.77090 0.83420 0.43080 -0.05500
H 	H 	0.80690 0.83410 0.42730 0.05000
C 	C 	0.74020 0.84280 0.38940 -0.10300
H 	H 	0.75540 0.85110 0.35760 0.07000
C 	C 	0.69760 0.81790 0.48240 -0.06500
H 	H 	0.68220 0.80720 0.51340 0.04800
N 	N 	0.69710 0.19650 0.10830 -0.29000
C 	C 	0.73590 0.18770 0.07650 0.08600
H 	H 	0.77030 0.18520 0.08750 -0.06700
N 	N 	0.72120 0.18250 0.02550 -0.13000
C 	C 	0.65520 0.19700 0.07670 0.01500
H 	H 	0.62120 0.20010 0.08880 0.00200
C 	C 	0.66670 0.19300 0.02910 -0.02700
H 	H 	0.64380 0.19630 0.00130 0.03800
C 	C 	0.75200 0.17460 0.97860 0.07500
C 	C 	0.81190 0.16020 0.89270 0.11100
C 	C 	0.83410 0.17260 0.93400 -0.11900
H 	H 	0.87010 0.17600 0.93490 0.07100
C 	C 	0.72910 0.16580 0.93080 -0.05500
H 	H 	0.69310 0.16590 0.92730 0.05000
C 	C 	0.75980 0.15720 0.88940 -0.10300
H 	H 	0.74460 0.14890 0.85760 0.07000
C 	C 	0.80240 0.18210 0.98240 -0.06500
H 	H 	0.81780 0.19280 0.01340 0.04800
N 	N 	0.39170 0.69710 0.30350 -0.29000
C 	C 	0.42350 0.73590 0.31230 0.08600
H 	H 	0.41250 0.77030 0.31480 -0.06700
N 	N 	0.47450 0.72120 0.31750 -0.13000
C 	C 	0.42330 0.65520 0.30300 0.01500
H 	H 	0.41120 0.62120 0.29990 0.00200
C 	C 	0.47090 0.66670 0.30700 -0.02700
H 	H 	0.49870 0.64380 0.30370 0.03800
C 	C 	0.52140 0.75200 0.32540 0.07500
C 	C 	0.60730 0.81190 0.33980 0.11100
C 	C 	0.56600 0.83410 0.32740 -0.11900
H 	H 	0.56510 0.87010 0.32400 0.07200
C 	C 	0.56920 0.72910 0.33420 -0.05500
H 	H 	0.57270 0.69310 0.33410 0.05000
C 	C 	0.61060 0.75980 0.34280 -0.10300
H 	H 	0.64240 0.74460 0.35110 0.07000
C 	C 	0.51760 0.80240 0.31790 -0.06500
H 	H 	0.48660 0.81780 0.30720 0.04800
N 	N 	0.89170 0.80290 0.69650 -0.29000
C 	C 	0.92350 0.76410 0.68770 0.08600
H 	H 	0.91250 0.72970 0.68520 -0.06700
N 	N 	0.97450 0.77880 0.68250 -0.13000
C 	C 	0.92330 0.84480 0.69700 0.01500
H 	H 	0.91120 0.87880 0.70010 0.00200
C 	C 	0.97090 0.83330 0.69300 -0.02700
H 	H 	0.99870 0.85620 0.69630 0.03800
C 	C 	0.02140 0.74800 0.67460 0.07500
C 	C 	0.10730 0.68810 0.66020 0.11100
C 	C 	0.06600 0.66590 0.67260 -0.11900
H 	H 	0.06510 0.62990 0.67600 0.07200
C 	C 	0.06920 0.77090 0.66580 -0.05500
H 	H 	0.07270 0.80690 0.66590 0.05000
C 	C 	0.11060 0.74020 0.65720 -0.10300
H 	H 	0.14240 0.75540 0.64890 0.07000
C 	C 	0.01760 0.69760 0.68210 -0.06500
H 	H 	0.98660 0.68220 0.69280 0.04800
N 	N 	0.10830 0.30290 0.80350 -0.29000
C 	C 	0.07650 0.26410 0.81230 0.08600
H 	H 	0.08750 0.22970 0.81480 -0.06700
N 	N 	0.02550 0.27880 0.81750 -0.13000
C 	C 	0.07670 0.34480 0.80300 0.01500
H 	H 	0.08880 0.37880 0.79990 0.00200
C 	C 	0.02910 0.33330 0.80700 -0.02700
H 	H 	0.00130 0.35620 0.80370 0.03800
C 	C 	0.97860 0.24800 0.82540 0.07500
C 	C 	0.89270 0.18810 0.83980 0.11100
C 	C 	0.93400 0.16590 0.82740 -0.11900
H 	H 	0.93490 0.12990 0.82400 0.07100
C 	C 	0.93080 0.27090 0.83420 -0.05500
H 	H 	0.92730 0.30690 0.83410 0.05000
C 	C 	0.88940 0.24020 0.84280 -0.10300
H 	H 	0.85760 0.25540 0.85110 0.07000
C 	C 	0.98240 0.19760 0.81790 -0.06500
H 	H 	0.01340 0.18220 0.80720 0.04800
N 	N 	0.60830 0.19710 0.19650 -0.29000
C 	C 	0.57650 0.23590 0.18770 0.08600
H 	H 	0.58750 0.27030 0.18520 -0.06700
N 	N 	0.52550 0.22120 0.18250 -0.13000
C 	C 	0.57670 0.15520 0.19700 0.01500
H 	H 	0.58880 0.12120 0.20010 0.00200
C 	C 	0.52910 0.16670 0.19300 -0.02700
H 	H 	0.50130 0.14380 0.19630 0.03800
C 	C 	0.47860 0.25200 0.17460 0.07500
C 	C 	0.39270 0.31190 0.16020 0.11100
C 	C 	0.43400 0.33410 0.17260 -0.11900
H 	H 	0.43490 0.37010 0.17600 0.07200
C 	C 	0.43080 0.22910 0.16580 -0.05500
H 	H 	0.42730 0.19310 0.16590 0.05000
C 	C 	0.38940 0.25980 0.15720 -0.10300
H 	H 	0.35760 0.24460 0.14890 0.07000
C 	C 	0.48240 0.30240 0.18210 -0.06500
H 	H 	0.51340 0.31780 0.19280 0.04800
N 	N 	0.80350 0.89170 0.69710 -0.29000
C 	C 	0.81230 0.92350 0.73590 0.08600
H 	H 	0.81480 0.91250 0.77030 -0.06700
N 	N 	0.81750 0.97450 0.72120 -0.13000
C 	C 	0.80300 0.92330 0.65520 0.01500
H 	H 	0.79990 0.91120 0.62120 0.00200
C 	C 	0.80700 0.97090 0.66670 -0.02700
H 	H 	0.80370 0.99870 0.64380 0.03800
C 	C 	0.82540 0.02140 0.75200 0.07500
C 	C 	0.83980 0.10730 0.81190 0.11100
C 	C 	0.82740 0.06600 0.83410 -0.11900
H 	H 	0.82400 0.06510 0.87010 0.07100
C 	C 	0.83420 0.06920 0.72910 -0.05500
H 	H 	0.83410 0.07270 0.69310 0.05000
C 	C 	0.84280 0.11060 0.75980 -0.10300
H 	H 	0.85110 0.14240 0.74460 0.07000
C 	C 	0.81790 0.01760 0.80240 -0.06500
H 	H 	0.80720 0.98660 0.81780 0.04800
N 	N 	0.19650 0.39170 0.80290 -0.29000
C 	C 	0.18770 0.42350 0.76410 0.08600
H 	H 	0.18520 0.41250 0.72970 -0.06700
N 	N 	0.18250 0.47450 0.77880 -0.13000
C 	C 	0.19700 0.42330 0.84480 0.01500
H 	H 	0.20010 0.41120 0.87880 0.00200
C 	C 	0.19300 0.47090 0.83330 -0.02700
H 	H 	0.19630 0.49870 0.85620 0.03800
C 	C 	0.17460 0.52140 0.74800 0.07500
C 	C 	0.16020 0.60730 0.68810 0.11100
C 	C 	0.17260 0.56600 0.66590 -0.11900
H 	H 	0.17600 0.56510 0.62990 0.07200
C 	C 	0.16580 0.56920 0.77090 -0.05500
H 	H 	0.16590 0.57270 0.80690 0.05000
C 	C 	0.15720 0.61060 0.74020 -0.10300
H 	H 	0.14890 0.64240 0.75540 0.07000
C 	C 	0.18210 0.51760 0.69760 -0.06500
H 	H 	0.19280 0.48660 0.68220 0.04800
N 	N 	0.30350 0.60830 0.30290 -0.29000
C 	C 	0.31230 0.57650 0.26410 0.08600
H 	H 	0.31480 0.58750 0.22970 -0.06700
N 	N 	0.31750 0.52550 0.27880 -0.13000
C 	C 	0.30300 0.57670 0.34480 0.01500
H 	H 	0.29990 0.58880 0.37880 0.00200
C 	C 	0.30700 0.52910 0.33330 -0.02700
H 	H 	0.30370 0.50130 0.35620 0.03800
C 	C 	0.32540 0.47860 0.24800 0.07500
C 	C 	0.33980 0.39270 0.18810 0.11100
C 	C 	0.32740 0.43400 0.16590 -0.11900
H 	H 	0.32400 0.43490 0.12990 0.07200
C 	C 	0.33420 0.43080 0.27090 -0.05500
H 	H 	0.33410 0.42730 0.30690 0.05000
C 	C 	0.34280 0.38940 0.24020 -0.10300
H 	H 	0.35110 0.35760 0.25540 0.07000
C 	C 	0.31790 0.48240 0.19760 -0.06500
H 	H 	0.30720 0.51340 0.18220 0.04800
N 	N 	0.69650 0.10830 0.19710 -0.29000
C 	C 	0.68770 0.07650 0.23590 0.08600
H 	H 	0.68520 0.08750 0.27030 -0.06700
N 	N 	0.68250 0.02550 0.22120 -0.13000
C 	C 	0.69700 0.07670 0.15520 0.01500
H 	H 	0.70010 0.08880 0.12120 0.00200
C 	C 	0.69300 0.02910 0.16670 -0.02700
H 	H 	0.69630 0.00130 0.14380 0.03800
C 	C 	0.67460 0.97860 0.25200 0.07500
C 	C 	0.66020 0.89270 0.31190 0.11100
C 	C 	0.67260 0.93400 0.33410 -0.11900
H 	H 	0.67600 0.93490 0.37010 0.07200
C 	C 	0.66580 0.93080 0.22910 -0.05500
H 	H 	0.66590 0.92730 0.19310 0.05000
C 	C 	0.65720 0.88940 0.25980 -0.10300
H 	H 	0.64890 0.85760 0.24460 0.07000
C 	C 	0.68210 0.98240 0.30240 -0.06500
H 	H 	0.69280 0.01340 0.31780 0.04800
Cd	Cd	0.80051 0.80051 0.69949 1.02900
Cd	Cd	0.30051 0.69949 0.30051 1.02900
Cd	Cd	0.69949 0.19949 0.19949 1.02900
Cd	Cd	0.19949 0.30051 0.80051 1.02900
N 	N 	0.65680 0.84320 0.34320 -0.15400
N 	N 	0.34320 0.34320 0.15680 -0.15400
N 	N 	0.84320 0.15680 0.84320 -0.15400
N 	N 	0.15680 0.65680 0.65680 -0.15400
N 	N 	0.69710 0.80350 0.89170 -0.29000
C 	C 	0.73590 0.81230 0.92350 0.08600
H 	H 	0.77030 0.81480 0.91250 -0.06700
N 	N 	0.72120 0.81750 0.97450 -0.13000
C 	C 	0.65520 0.80300 0.92330 0.01500
H 	H 	0.62120 0.79990 0.91120 0.00200
C 	C 	0.66670 0.80700 0.97090 -0.02700
H 	H 	0.64380 0.80370 0.99870 0.03800
C 	C 	0.75200 0.82540 0.02140 0.07500
C 	C 	0.81190 0.83980 0.10730 0.11100
C 	C 	0.83410 0.82740 0.06600 -0.11900
H 	H 	0.87010 0.82400 0.06510 0.07100
C 	C 	0.72910 0.83420 0.06920 -0.05500
H 	H 	0.69310 0.83410 0.07270 0.05000
C 	C 	0.75980 0.84280 0.11060 -0.10300
H 	H 	0.74460 0.85110 0.14240 0.07000
C 	C 	0.80240 0.81790 0.01760 -0.06500
H 	H 	0.81780 0.80720 0.98660 0.04800
N 	N 	0.80290 0.19650 0.39170 -0.29000
C 	C 	0.76410 0.18770 0.42350 0.08600
H 	H 	0.72970 0.18520 0.41250 -0.06700
N 	N 	0.77880 0.18250 0.47450 -0.13000
C 	C 	0.84480 0.19700 0.42330 0.01500
H 	H 	0.87880 0.20010 0.41120 0.00200
C 	C 	0.83330 0.19300 0.47090 -0.02700
H 	H 	0.85620 0.19630 0.49870 0.03800
C 	C 	0.74800 0.17460 0.52140 0.07500
C 	C 	0.68810 0.16020 0.60730 0.11100
C 	C 	0.66590 0.17260 0.56600 -0.11900
H 	H 	0.62990 0.17600 0.56510 0.07200
C 	C 	0.77090 0.16580 0.56920 -0.05500
H 	H 	0.80690 0.16590 0.57270 0.05000
C 	C 	0.74020 0.15720 0.61060 -0.10300
H 	H 	0.75540 0.14890 0.64240 0.07000
C 	C 	0.69760 0.18210 0.51760 -0.06500
H 	H 	0.68220 0.19280 0.48660 0.04800
N 	N 	0.30290 0.30350 0.60830 -0.29000
C 	C 	0.26410 0.31230 0.57650 0.08600
H 	H 	0.22970 0.31480 0.58750 -0.06700
N 	N 	0.27880 0.31750 0.52550 -0.13000
C 	C 	0.34480 0.30300 0.57670 0.01500
H 	H 	0.37880 0.29990 0.58880 0.00200
C 	C 	0.33330 0.30700 0.52910 -0.02700
H 	H 	0.35620 0.30370 0.50130 0.03800
C 	C 	0.24800 0.32540 0.47860 0.07500
C 	C 	0.18810 0.33980 0.39270 0.11100
C 	C 	0.16590 0.32740 0.43400 -0.11900
H 	H 	0.12990 0.32400 0.43490 0.07200
C 	C 	0.27090 0.33420 0.43080 -0.05500
H 	H 	0.30690 0.33410 0.42730 0.05000
C 	C 	0.24020 0.34280 0.38940 -0.10300
H 	H 	0.25540 0.35110 0.35760 0.07000
C 	C 	0.19760 0.31790 0.48240 -0.06500
H 	H 	0.18220 0.30720 0.51340 0.04800
N 	N 	0.19710 0.69650 0.10830 -0.29000
C 	C 	0.23590 0.68770 0.07650 0.08600
H 	H 	0.27030 0.68520 0.08750 -0.06700
N 	N 	0.22120 0.68250 0.02550 -0.13000
C 	C 	0.15520 0.69700 0.07670 0.01500
H 	H 	0.12120 0.70010 0.08880 0.00200
C 	C 	0.16670 0.69300 0.02910 -0.02700
H 	H 	0.14380 0.69630 0.00130 0.03800
C 	C 	0.25200 0.67460 0.97860 0.07500
C 	C 	0.31190 0.66020 0.89270 0.11100
C 	C 	0.33410 0.67260 0.93400 -0.11900
H 	H 	0.37010 0.67600 0.93490 0.07200
C 	C 	0.22910 0.66580 0.93080 -0.05500
H 	H 	0.19310 0.66590 0.92730 0.05000
C 	C 	0.25980 0.65720 0.88940 -0.10300
H 	H 	0.24460 0.64890 0.85760 0.07000
C 	C 	0.30240 0.68210 0.98240 -0.06500
H 	H 	0.31780 0.69280 0.01340 0.04800
N 	N 	0.89170 0.19710 0.30350 -0.29000
C 	C 	0.92350 0.23590 0.31230 0.08600
H 	H 	0.91250 0.27030 0.31480 -0.06700
N 	N 	0.97450 0.22120 0.31750 -0.13000
C 	C 	0.92330 0.15520 0.30300 0.01500
H 	H 	0.91120 0.12120 0.29990 0.00200
C 	C 	0.97090 0.16670 0.30700 -0.02700
H 	H 	0.99870 0.14380 0.30370 0.03800
C 	C 	0.02140 0.25200 0.32540 0.07500
C 	C 	0.10730 0.31190 0.33980 0.11100
C 	C 	0.06600 0.33410 0.32740 -0.11900
H 	H 	0.06510 0.37010 0.32400 0.07200
C 	C 	0.06920 0.22910 0.33420 -0.05500
H 	H 	0.07270 0.19310 0.33410 0.05000
C 	C 	0.11060 0.25980 0.34280 -0.10300
H 	H 	0.14240 0.24460 0.35110 0.07000
C 	C 	0.01760 0.30240 0.31790 -0.06500
H 	H 	0.98660 0.31780 0.30720 0.04800
N 	N 	0.39170 0.30290 0.69650 -0.29000
C 	C 	0.42350 0.26410 0.68770 0.08600
H 	H 	0.41250 0.22970 0.68520 -0.06700
N 	N 	0.47450 0.27880 0.68250 -0.13000
C 	C 	0.42330 0.34480 0.69700 0.01500
H 	H 	0.41120 0.37880 0.70010 0.00200
C 	C 	0.47090 0.33330 0.69300 -0.02700
H 	H 	0.49870 0.35620 0.69630 0.03800
C 	C 	0.52140 0.24800 0.67460 0.07500
C 	C 	0.60730 0.18810 0.66020 0.11100
C 	C 	0.56600 0.16590 0.67260 -0.11900
H 	H 	0.56510 0.12990 0.67600 0.07200
C 	C 	0.56920 0.27090 0.66580 -0.05500
H 	H 	0.57270 0.30690 0.66590 0.05000
C 	C 	0.61060 0.24020 0.65720 -0.10300
H 	H 	0.64240 0.25540 0.64890 0.07000
C 	C 	0.51760 0.19760 0.68210 -0.06500
H 	H 	0.48660 0.18220 0.69280 0.04800
N 	N 	0.60830 0.80290 0.80350 -0.29000
C 	C 	0.57650 0.76410 0.81230 0.08600
H 	H 	0.58750 0.72970 0.81480 -0.06700
N 	N 	0.52550 0.77880 0.81750 -0.13000
C 	C 	0.57670 0.84480 0.80300 0.01500
H 	H 	0.58880 0.87880 0.79990 0.00200
C 	C 	0.52910 0.83330 0.80700 -0.02700
H 	H 	0.50130 0.85620 0.80370 0.03800
C 	C 	0.47860 0.74800 0.82540 0.07500
C 	C 	0.39270 0.68810 0.83980 0.11100
C 	C 	0.43400 0.66590 0.82740 -0.11900
H 	H 	0.43490 0.62990 0.82400 0.07200
C 	C 	0.43080 0.77090 0.83420 -0.05500
H 	H 	0.42730 0.80690 0.83410 0.05000
C 	C 	0.38940 0.74020 0.84280 -0.10300
H 	H 	0.35760 0.75540 0.85110 0.07000
C 	C 	0.48240 0.69760 0.81790 -0.06500
H 	H 	0.51340 0.68220 0.80720 0.04800
N 	N 	0.10830 0.69710 0.19650 -0.29000
C 	C 	0.07650 0.73590 0.18770 0.08600
H 	H 	0.08750 0.77030 0.18520 -0.06700
N 	N 	0.02550 0.72120 0.18250 -0.13000
C 	C 	0.07670 0.65520 0.19700 0.01500
H 	H 	0.08880 0.62120 0.20010 0.00200
C 	C 	0.02910 0.66670 0.19300 -0.02700
H 	H 	0.00130 0.64380 0.19630 0.03800
C 	C 	0.97860 0.75200 0.17460 0.07500
C 	C 	0.89270 0.81190 0.16020 0.11100
C 	C 	0.93400 0.83410 0.17260 -0.11900
H 	H 	0.93490 0.87010 0.17600 0.07100
C 	C 	0.93080 0.72910 0.16580 -0.05500
H 	H 	0.92730 0.69310 0.16590 0.05000
C 	C 	0.88940 0.75980 0.15720 -0.10300
H 	H 	0.85760 0.74460 0.14890 0.07000
C 	C 	0.98240 0.80240 0.18210 -0.06500
H 	H 	0.01340 0.81780 0.19280 0.04800
N 	N 	0.30350 0.39170 0.69710 -0.29000
C 	C 	0.31230 0.42350 0.73590 0.08600
H 	H 	0.31480 0.41250 0.77030 -0.06700
N 	N 	0.31750 0.47450 0.72120 -0.13000
C 	C 	0.30300 0.42330 0.65520 0.01500
H 	H 	0.29990 0.41120 0.62120 0.00200
C 	C 	0.30700 0.47090 0.66670 -0.02700
H 	H 	0.30370 0.49870 0.64380 0.03800
C 	C 	0.32540 0.52140 0.75200 0.07500
C 	C 	0.33980 0.60730 0.81190 0.11100
C 	C 	0.32740 0.56600 0.83410 -0.11900
H 	H 	0.32400 0.56510 0.87010 0.07200
C 	C 	0.33420 0.56920 0.72910 -0.05500
H 	H 	0.33410 0.57270 0.69310 0.05000
C 	C 	0.34280 0.61060 0.75980 -0.10300
H 	H 	0.35110 0.64240 0.74460 0.07000
C 	C 	0.31790 0.51760 0.80240 -0.06500
H 	H 	0.30720 0.48660 0.81780 0.04800
N 	N 	0.69650 0.89170 0.80290 -0.29000
C 	C 	0.68770 0.92350 0.76410 0.08600
H 	H 	0.68520 0.91250 0.72970 -0.06700
N 	N 	0.68250 0.97450 0.77880 -0.13000
C 	C 	0.69700 0.92330 0.84480 0.01500
H 	H 	0.70010 0.91120 0.87880 0.00200
C 	C 	0.69300 0.97090 0.83330 -0.02700
H 	H 	0.69630 0.99870 0.85620 0.03800
C 	C 	0.67460 0.02140 0.74800 0.07500
C 	C 	0.66020 0.10730 0.68810 0.11100
C 	C 	0.67260 0.06600 0.66590 -0.11900
H 	H 	0.67600 0.06510 0.62990 0.07200
C 	C 	0.66580 0.06920 0.77090 -0.05500
H 	H 	0.66590 0.07270 0.80690 0.05000
C 	C 	0.65720 0.11060 0.74020 -0.10300
H 	H 	0.64890 0.14240 0.75540 0.07000
C 	C 	0.68210 0.01760 0.69760 -0.06500
H 	H 	0.69280 0.98660 0.68220 0.04800
N 	N 	0.80350 0.10830 0.30290 -0.29000
C 	C 	0.81230 0.07650 0.26410 0.08600
H 	H 	0.81480 0.08750 0.22970 -0.06700
N 	N 	0.81750 0.02550 0.27880 -0.13000
C 	C 	0.80300 0.07670 0.34480 0.01500
H 	H 	0.79990 0.08880 0.37880 0.00200
C 	C 	0.80700 0.02910 0.33330 -0.02700
H 	H 	0.80370 0.00130 0.35620 0.03800
C 	C 	0.82540 0.97860 0.24800 0.07500
C 	C 	0.83980 0.89270 0.18810 0.11100
C 	C 	0.82740 0.93400 0.16590 -0.11900
H 	H 	0.82400 0.93490 0.12990 0.07100
C 	C 	0.83420 0.93080 0.27090 -0.05500
H 	H 	0.83410 0.92730 0.30690 0.05000
C 	C 	0.84280 0.88940 0.24020 -0.10300
H 	H 	0.85110 0.85760 0.25540 0.07000
C 	C 	0.81790 0.98240 0.19760 -0.06500
H 	H 	0.80720 0.01340 0.18220 0.04800
N 	N 	0.19650 0.60830 0.19710 -0.29000
C 	C 	0.18770 0.57650 0.23590 0.08600
H 	H 	0.18520 0.58750 0.27030 -0.06700
N 	N 	0.18250 0.52550 0.22120 -0.13000
C 	C 	0.19700 0.57670 0.15520 0.01500
H 	H 	0.20010 0.58880 0.12120 0.00200
C 	C 	0.19300 0.52910 0.16670 -0.02700
H 	H 	0.19630 0.50130 0.14380 0.03800
C 	C 	0.17460 0.47860 0.25200 0.07500
C 	C 	0.16020 0.39270 0.31190 0.11100
C 	C 	0.17260 0.43400 0.33410 -0.11900
H 	H 	0.17600 0.43490 0.37010 0.07200
C 	C 	0.16580 0.43080 0.22910 -0.05500
H 	H 	0.16590 0.42730 0.19310 0.05000
C 	C 	0.15720 0.38940 0.25980 -0.10300
H 	H 	0.14890 0.35760 0.24460 0.07000
C 	C 	0.18210 0.48240 0.30240 -0.06500
H 	H 	0.19280 0.51340 0.31780 0.04800
Cd	Cd	0.80051 0.19949 0.30051 1.02900
Cd	Cd	0.30051 0.30051 0.69949 1.02900
Cd	Cd	0.69949 0.80051 0.80051 1.02900
Cd	Cd	0.19949 0.69949 0.19949 1.02900
N 	N 	0.65680 0.15680 0.65680 -0.15400
N 	N 	0.34320 0.65680 0.84320 -0.15400
N 	N 	0.84320 0.84320 0.15680 -0.15400
N 	N 	0.15680 0.34320 0.34320 -0.15400
N 	N 	0.69710 0.30350 0.39170 -0.29000
C 	C 	0.73590 0.31230 0.42350 0.08600
H 	H 	0.77030 0.31480 0.41250 -0.06700
N 	N 	0.72120 0.31750 0.47450 -0.13000
C 	C 	0.65520 0.30300 0.42330 0.01500
H 	H 	0.62120 0.29990 0.41120 0.00200
C 	C 	0.66670 0.30700 0.47090 -0.02700
H 	H 	0.64380 0.30370 0.49870 0.03800
C 	C 	0.75200 0.32540 0.52140 0.07500
C 	C 	0.81190 0.33980 0.60730 0.11100
C 	C 	0.83410 0.32740 0.56600 -0.11900
H 	H 	0.87010 0.32400 0.56510 0.07200
C 	C 	0.72910 0.33420 0.56920 -0.05500
H 	H 	0.69310 0.33410 0.57270 0.05000
C 	C 	0.75980 0.34280 0.61060 -0.10300
H 	H 	0.74460 0.35110 0.64240 0.07000
C 	C 	0.80240 0.31790 0.51760 -0.06500
H 	H 	0.81780 0.30720 0.48660 0.04800
N 	N 	0.80290 0.69650 0.89170 -0.29000
C 	C 	0.76410 0.68770 0.92350 0.08600
H 	H 	0.72970 0.68520 0.91250 -0.06700
N 	N 	0.77880 0.68250 0.97450 -0.13000
C 	C 	0.84480 0.69700 0.92330 0.01500
H 	H 	0.87880 0.70010 0.91120 0.00200
C 	C 	0.83330 0.69300 0.97090 -0.02700
H 	H 	0.85620 0.69630 0.99870 0.03800
C 	C 	0.74800 0.67460 0.02140 0.07500
C 	C 	0.68810 0.66020 0.10730 0.11100
C 	C 	0.66590 0.67260 0.06600 -0.11900
H 	H 	0.62990 0.67600 0.06510 0.07200
C 	C 	0.77090 0.66580 0.06920 -0.05500
H 	H 	0.80690 0.66590 0.07270 0.05000
C 	C 	0.74020 0.65720 0.11060 -0.10300
H 	H 	0.75540 0.64890 0.14240 0.07000
C 	C 	0.69760 0.68210 0.01760 -0.06500
H 	H 	0.68220 0.69280 0.98660 0.04800
N 	N 	0.30290 0.80350 0.10830 -0.29000
C 	C 	0.26410 0.81230 0.07650 0.08600
H 	H 	0.22970 0.81480 0.08750 -0.06700
N 	N 	0.27880 0.81750 0.02550 -0.13000
C 	C 	0.34480 0.80300 0.07670 0.01500
H 	H 	0.37880 0.79990 0.08880 0.00200
C 	C 	0.33330 0.80700 0.02910 -0.02700
H 	H 	0.35620 0.80370 0.00130 0.03800
C 	C 	0.24800 0.82540 0.97860 0.07500
C 	C 	0.18810 0.83980 0.89270 0.11100
C 	C 	0.16590 0.82740 0.93400 -0.11900
H 	H 	0.12990 0.82400 0.93490 0.07100
C 	C 	0.27090 0.83420 0.93080 -0.05500
H 	H 	0.30690 0.83410 0.92730 0.05000
C 	C 	0.24020 0.84280 0.88940 -0.10300
H 	H 	0.25540 0.85110 0.85760 0.07000
C 	C 	0.19760 0.81790 0.98240 -0.06500
H 	H 	0.18220 0.80720 0.01340 0.04800
N 	N 	0.19710 0.19650 0.60830 -0.29000
C 	C 	0.23590 0.18770 0.57650 0.08600
H 	H 	0.27030 0.18520 0.58750 -0.06700
N 	N 	0.22120 0.18250 0.52550 -0.13000
C 	C 	0.15520 0.19700 0.57670 0.01500
H 	H 	0.12120 0.20010 0.58880 0.00200
C 	C 	0.16670 0.19300 0.52910 -0.02700
H 	H 	0.14380 0.19630 0.50130 0.03800
C 	C 	0.25200 0.17460 0.47860 0.07500
C 	C 	0.31190 0.16020 0.39270 0.11100
C 	C 	0.33410 0.17260 0.43400 -0.11900
H 	H 	0.37010 0.17600 0.43490 0.07200
C 	C 	0.22910 0.16580 0.43080 -0.05500
H 	H 	0.19310 0.16590 0.42730 0.05000
C 	C 	0.25980 0.15720 0.38940 -0.10300
H 	H 	0.24460 0.14890 0.35760 0.07000
C 	C 	0.30240 0.18210 0.48240 -0.06500
H 	H 	0.31780 0.19280 0.51340 0.04800
N 	N 	0.89170 0.69710 0.80350 -0.29000
C 	C 	0.92350 0.73590 0.81230 0.08600
H 	H 	0.91250 0.77030 0.81480 -0.06700
N 	N 	0.97450 0.72120 0.81750 -0.13000
C 	C 	0.92330 0.65520 0.80300 0.01500
H 	H 	0.91120 0.62120 0.79990 0.00200
C 	C 	0.97090 0.66670 0.80700 -0.02700
H 	H 	0.99870 0.64380 0.80370 0.03800
C 	C 	0.02140 0.75200 0.82540 0.07500
C 	C 	0.10730 0.81190 0.83980 0.11100
C 	C 	0.06600 0.83410 0.82740 -0.11900
H 	H 	0.06510 0.87010 0.82400 0.07100
C 	C 	0.06920 0.72910 0.83420 -0.05500
H 	H 	0.07270 0.69310 0.83410 0.05000
C 	C 	0.11060 0.75980 0.84280 -0.10300
H 	H 	0.14240 0.74460 0.85110 0.07000
C 	C 	0.01760 0.80240 0.81790 -0.06500
H 	H 	0.98660 0.81780 0.80720 0.04800
N 	N 	0.39170 0.80290 0.19650 -0.29000
C 	C 	0.42350 0.76410 0.18770 0.08600
H 	H 	0.41250 0.72970 0.18520 -0.06700
N 	N 	0.47450 0.77880 0.18250 -0.13000
C 	C 	0.42330 0.84480 0.19700 0.01500
H 	H 	0.41120 0.87880 0.20010 0.00200
C 	C 	0.47090 0.83330 0.19300 -0.02700
H 	H 	0.49870 0.85620 0.19630 0.03800
C 	C 	0.52140 0.74800 0.17460 0.07500
C 	C 	0.60730 0.68810 0.16020 0.11100
C 	C 	0.56600 0.66590 0.17260 -0.11900
H 	H 	0.56510 0.62990 0.17600 0.07200
C 	C 	0.56920 0.77090 0.16580 -0.05500
H 	H 	0.57270 0.80690 0.16590 0.05000
C 	C 	0.61060 0.74020 0.15720 -0.10300
H 	H 	0.64240 0.75540 0.14890 0.07000
C 	C 	0.51760 0.69760 0.18210 -0.06500
H 	H 	0.48660 0.68220 0.19280 0.04800
N 	N 	0.60830 0.30290 0.30350 -0.29000
C 	C 	0.57650 0.26410 0.31230 0.08600
H 	H 	0.58750 0.22970 0.31480 -0.06700
N 	N 	0.52550 0.27880 0.31750 -0.13000
C 	C 	0.57670 0.34480 0.30300 0.01500
H 	H 	0.58880 0.37880 0.29990 0.00200
C 	C 	0.52910 0.33330 0.30700 -0.02700
H 	H 	0.50130 0.35620 0.30370 0.03800
C 	C 	0.47860 0.24800 0.32540 0.07500
C 	C 	0.39270 0.18810 0.33980 0.11100
C 	C 	0.43400 0.16590 0.32740 -0.11900
H 	H 	0.43490 0.12990 0.32400 0.07200
C 	C 	0.43080 0.27090 0.33420 -0.05500
H 	H 	0.42730 0.30690 0.33410 0.05000
C 	C 	0.38940 0.24020 0.34280 -0.10300
H 	H 	0.35760 0.25540 0.35110 0.07000
C 	C 	0.48240 0.19760 0.31790 -0.06500
H 	H 	0.51340 0.18220 0.30720 0.04800
N 	N 	0.10830 0.19710 0.69650 -0.29000
C 	C 	0.07650 0.23590 0.68770 0.08600
H 	H 	0.08750 0.27030 0.68520 -0.06700
N 	N 	0.02550 0.22120 0.68250 -0.13000
C 	C 	0.07670 0.15520 0.69700 0.01500
H 	H 	0.08880 0.12120 0.70010 0.00200
C 	C 	0.02910 0.16670 0.69300 -0.02700
H 	H 	0.00130 0.14380 0.69630 0.03800
C 	C 	0.97860 0.25200 0.67460 0.07500
C 	C 	0.89270 0.31190 0.66020 0.11100
C 	C 	0.93400 0.33410 0.67260 -0.11900
H 	H 	0.93490 0.37010 0.67600 0.07200
C 	C 	0.93080 0.22910 0.66580 -0.05500
H 	H 	0.92730 0.19310 0.66590 0.05000
C 	C 	0.88940 0.25980 0.65720 -0.10300
H 	H 	0.85760 0.24460 0.64890 0.07000
C 	C 	0.98240 0.30240 0.68210 -0.06500
H 	H 	0.01340 0.31780 0.69280 0.04800
N 	N 	0.30350 0.89170 0.19710 -0.29000
C 	C 	0.31230 0.92350 0.23590 0.08600
H 	H 	0.31480 0.91250 0.27030 -0.06700
N 	N 	0.31750 0.97450 0.22120 -0.13000
C 	C 	0.30300 0.92330 0.15520 0.01500
H 	H 	0.29990 0.91120 0.12120 0.00200
C 	C 	0.30700 0.97090 0.16670 -0.02700
H 	H 	0.30370 0.99870 0.14380 0.03800
C 	C 	0.32540 0.02140 0.25200 0.07500
C 	C 	0.33980 0.10730 0.31190 0.11100
C 	C 	0.32740 0.06600 0.33410 -0.11900
H 	H 	0.32400 0.06510 0.37010 0.07200
C 	C 	0.33420 0.06920 0.22910 -0.05500
H 	H 	0.33410 0.07270 0.19310 0.05000
C 	C 	0.34280 0.11060 0.25980 -0.10300
H 	H 	0.35110 0.14240 0.24460 0.07000
C 	C 	0.31790 0.01760 0.30240 -0.06500
H 	H 	0.30720 0.98660 0.31780 0.04800
N 	N 	0.69650 0.39170 0.30290 -0.29000
C 	C 	0.68770 0.42350 0.26410 0.08600
H 	H 	0.68520 0.41250 0.22970 -0.06700
N 	N 	0.68250 0.47450 0.27880 -0.13000
C 	C 	0.69700 0.42330 0.34480 0.01500
H 	H 	0.70010 0.41120 0.37880 0.00200
C 	C 	0.69300 0.47090 0.33330 -0.02700
H 	H 	0.69630 0.49870 0.35620 0.03800
C 	C 	0.67460 0.52140 0.24800 0.07500
C 	C 	0.66020 0.60730 0.18810 0.11100
C 	C 	0.67260 0.56600 0.16590 -0.11900
H 	H 	0.67600 0.56510 0.12990 0.07200
C 	C 	0.66580 0.56920 0.27090 -0.05500
H 	H 	0.66590 0.57270 0.30690 0.05000
C 	C 	0.65720 0.61060 0.24020 -0.10300
H 	H 	0.64890 0.64240 0.25540 0.07000
C 	C 	0.68210 0.51760 0.19760 -0.06500
H 	H 	0.69280 0.48660 0.18220 0.04800
N 	N 	0.80350 0.60830 0.80290 -0.29000
C 	C 	0.81230 0.57650 0.76410 0.08600
H 	H 	0.81480 0.58750 0.72970 -0.06700
N 	N 	0.81750 0.52550 0.77880 -0.13000
C 	C 	0.80300 0.57670 0.84480 0.01500
H 	H 	0.79990 0.58880 0.87880 0.00200
C 	C 	0.80700 0.52910 0.83330 -0.02700
H 	H 	0.80370 0.50130 0.85620 0.03800
C 	C 	0.82540 0.47860 0.74800 0.07500
C 	C 	0.83980 0.39270 0.68810 0.11100
C 	C 	0.82740 0.43400 0.66590 -0.11900
H 	H 	0.82400 0.43490 0.62990 0.07200
C 	C 	0.83420 0.43080 0.77090 -0.05500
H 	H 	0.83410 0.42730 0.80690 0.05000
C 	C 	0.84280 0.38940 0.74020 -0.10300
H 	H 	0.85110 0.35760 0.75540 0.07000
C 	C 	0.81790 0.48240 0.69760 -0.06500
H 	H 	0.80720 0.51340 0.68220 0.04800
N 	N 	0.19650 0.10830 0.69710 -0.29000
C 	C 	0.18770 0.07650 0.73590 0.08600
H 	H 	0.18520 0.08750 0.77030 -0.06700
N 	N 	0.18250 0.02550 0.72120 -0.13000
C 	C 	0.19700 0.07670 0.65520 0.01500
H 	H 	0.20010 0.08880 0.62120 0.00200
C 	C 	0.19300 0.02910 0.66670 -0.02700
H 	H 	0.19630 0.00130 0.64380 0.03800
C 	C 	0.17460 0.97860 0.75200 0.07500
C 	C 	0.16020 0.89270 0.81190 0.11100
C 	C 	0.17260 0.93400 0.83410 -0.11900
H 	H 	0.17600 0.93490 0.87010 0.07100
C 	C 	0.16580 0.93080 0.72910 -0.05500
H 	H 	0.16590 0.92730 0.69310 0.05000
C 	C 	0.15720 0.88940 0.75980 -0.10300
H 	H 	0.14890 0.85760 0.74460 0.07000
C 	C 	0.18210 0.98240 0.80240 -0.06500
H 	H 	0.19280 0.01340 0.81780 0.04800
Cd	Cd	0.19949 0.19949 0.69949 1.02900
Cd	Cd	0.30051 0.80051 0.19949 1.02900
Cd	Cd	0.69949 0.30051 0.30051 1.02900
Cd	Cd	0.80051 0.69949 0.80051 1.02900
N 	N 	0.34320 0.15680 0.34320 -0.15400
N 	N 	0.65680 0.65680 0.15680 -0.15400
N 	N 	0.84320 0.34320 0.65680 -0.15400
N 	N 	0.15680 0.84320 0.84320 -0.15400
