data_crystal

_cell_length_a 25.39610
_cell_length_b 25.39610
_cell_length_c 25.39610
_cell_angle_alpha 90.00000
_cell_angle_beta  90.00000
_cell_angle_gamma 90.00000

_symmetry_space_group_name_	'P 1'
_symmetry_space_group_name_H-M	'P 1'

loop_
_symmetry_equiv_pos_as_xyz
  x,y,z

loop_
_atom_site_label
_atom_site_type_symbol
_atom_site_fract_x
_atom_site_fract_y
_atom_site_fract_z
_atom_site_charge
C 	C 	0.18900 0.42340 0.23790 0.08300
H 	H 	0.18640 0.41260 0.27370 -0.06100
C 	C 	0.19600 0.42430 0.15740 -0.00400
H 	H 	0.20100 0.41420 0.12170 0.01100
C 	C 	0.18660 0.47230 0.17150 0.00900
H 	H 	0.18240 0.50160 0.14870 0.02400
C 	C 	0.17700 0.51820 0.25360 0.08700
C 	C 	0.16590 0.56590 0.22920 -0.07300
H 	H 	0.16520 0.56810 0.19180 0.05500
C 	C 	0.15590 0.61050 0.25930 -0.07200
H 	H 	0.14830 0.64310 0.24260 0.05900
C 	C 	0.15690 0.60730 0.31400 0.08000
C 	C 	0.16800 0.55960 0.33840 -0.07500
H 	H 	0.16870 0.55740 0.37580 0.05500
C 	C 	0.17800 0.51500 0.30820 -0.07300
H 	H 	0.18550 0.48240 0.32490 0.04800
N 	N 	0.19800 0.38930 0.19820 -0.29300
N 	N 	0.18410 0.47300 0.22290 -0.14100
C 	C 	0.31100 0.57660 0.73790 0.08300
H 	H 	0.31360 0.58740 0.77370 -0.06100
C 	C 	0.30400 0.57570 0.65740 -0.00400
H 	H 	0.29900 0.58580 0.62170 0.01100
C 	C 	0.31340 0.52770 0.67150 0.00900
H 	H 	0.31760 0.49840 0.64870 0.02400
C 	C 	0.32300 0.48180 0.75360 0.08700
C 	C 	0.33410 0.43410 0.72920 -0.07300
H 	H 	0.33480 0.43190 0.69180 0.05500
C 	C 	0.34410 0.38950 0.75930 -0.07200
H 	H 	0.35170 0.35690 0.74260 0.05900
C 	C 	0.34310 0.39270 0.81400 0.08000
C 	C 	0.33200 0.44040 0.83840 -0.07500
H 	H 	0.33130 0.44260 0.87580 0.05500
C 	C 	0.32200 0.48500 0.80820 -0.07300
H 	H 	0.31450 0.51760 0.82490 0.04800
N 	N 	0.30200 0.61070 0.69820 -0.29300
N 	N 	0.31590 0.52700 0.72290 -0.14100
C 	C 	0.81100 0.92340 0.26210 0.08300
H 	H 	0.81360 0.91260 0.22630 -0.06100
C 	C 	0.80400 0.92430 0.34260 -0.00400
H 	H 	0.79900 0.91420 0.37830 0.01100
C 	C 	0.81340 0.97230 0.32850 0.00900
H 	H 	0.81760 0.00160 0.35130 0.02400
C 	C 	0.82300 0.01820 0.24640 0.08700
C 	C 	0.83410 0.06590 0.27080 -0.07300
H 	H 	0.83480 0.06810 0.30820 0.05500
C 	C 	0.84410 0.11050 0.24070 -0.07200
H 	H 	0.85170 0.14310 0.25740 0.05900
C 	C 	0.84310 0.10730 0.18600 0.08000
C 	C 	0.83200 0.05960 0.16160 -0.07500
H 	H 	0.83130 0.05740 0.12420 0.05500
C 	C 	0.82200 0.01500 0.19180 -0.07300
H 	H 	0.81450 0.98240 0.17510 0.04800
N 	N 	0.80200 0.88930 0.30180 -0.29300
N 	N 	0.81590 0.97300 0.27710 -0.14100
C 	C 	0.68900 0.07660 0.76210 0.08300
H 	H 	0.68640 0.08740 0.72630 -0.06100
C 	C 	0.69600 0.07570 0.84260 -0.00400
H 	H 	0.70100 0.08580 0.87830 0.01100
C 	C 	0.68660 0.02770 0.82850 0.00900
H 	H 	0.68240 0.99840 0.85130 0.02400
C 	C 	0.67700 0.98180 0.74640 0.08700
C 	C 	0.66590 0.93410 0.77080 -0.07300
H 	H 	0.66520 0.93190 0.80820 0.05500
C 	C 	0.65590 0.88950 0.74070 -0.07200
H 	H 	0.64830 0.85690 0.75740 0.05900
C 	C 	0.65690 0.89270 0.68600 0.08000
C 	C 	0.66800 0.94040 0.66160 -0.07500
H 	H 	0.66870 0.94260 0.62420 0.05500
C 	C 	0.67800 0.98500 0.69180 -0.07300
H 	H 	0.68550 0.01760 0.67510 0.04800
N 	N 	0.69800 0.11070 0.80180 -0.29300
N 	N 	0.68410 0.02700 0.77710 -0.14100
C 	C 	0.73790 0.18900 0.92340 0.08300
H 	H 	0.77370 0.18640 0.91260 -0.06100
C 	C 	0.65740 0.19600 0.92430 -0.00400
H 	H 	0.62170 0.20100 0.91420 0.01100
C 	C 	0.67150 0.18660 0.97230 0.00900
H 	H 	0.64870 0.18240 0.00160 0.02400
C 	C 	0.75360 0.17700 0.01820 0.08700
C 	C 	0.72920 0.16590 0.06590 -0.07300
H 	H 	0.69180 0.16520 0.06810 0.05500
C 	C 	0.75930 0.15590 0.11050 -0.07200
H 	H 	0.74260 0.14830 0.14310 0.05900
C 	C 	0.81400 0.15690 0.10730 0.08000
C 	C 	0.83840 0.16800 0.05960 -0.07500
H 	H 	0.87580 0.16870 0.05740 0.05500
C 	C 	0.80820 0.17800 0.01500 -0.07300
H 	H 	0.82490 0.18550 0.98240 0.04800
N 	N 	0.69820 0.19800 0.88930 -0.29300
N 	N 	0.72290 0.18410 0.97300 -0.14100
C 	C 	0.23790 0.31100 0.07660 0.08300
H 	H 	0.27370 0.31360 0.08740 -0.06100
C 	C 	0.15740 0.30400 0.07570 -0.00400
H 	H 	0.12170 0.29900 0.08580 0.01100
C 	C 	0.17150 0.31340 0.02770 0.00900
H 	H 	0.14870 0.31760 0.99840 0.02400
C 	C 	0.25360 0.32300 0.98180 0.08700
C 	C 	0.22920 0.33410 0.93410 -0.07300
H 	H 	0.19180 0.33480 0.93190 0.05500
C 	C 	0.25930 0.34410 0.88950 -0.07200
H 	H 	0.24260 0.35170 0.85690 0.05900
C 	C 	0.31400 0.34310 0.89270 0.08000
C 	C 	0.33840 0.33200 0.94040 -0.07500
H 	H 	0.37580 0.33130 0.94260 0.05500
C 	C 	0.30820 0.32200 0.98500 -0.07300
H 	H 	0.32490 0.31450 0.01760 0.04800
N 	N 	0.19820 0.30200 0.11070 -0.29300
N 	N 	0.22290 0.31590 0.02700 -0.14100
C 	C 	0.76210 0.81100 0.42340 0.08300
H 	H 	0.72630 0.81360 0.41260 -0.06100
C 	C 	0.84260 0.80400 0.42430 -0.00400
H 	H 	0.87830 0.79900 0.41420 0.01100
C 	C 	0.82850 0.81340 0.47230 0.00900
H 	H 	0.85130 0.81760 0.50160 0.02400
C 	C 	0.74640 0.82300 0.51820 0.08700
C 	C 	0.77080 0.83410 0.56590 -0.07300
H 	H 	0.80820 0.83480 0.56810 0.05500
C 	C 	0.74070 0.84410 0.61050 -0.07200
H 	H 	0.75740 0.85170 0.64310 0.05900
C 	C 	0.68600 0.84310 0.60730 0.08000
C 	C 	0.66160 0.83200 0.55960 -0.07500
H 	H 	0.62420 0.83130 0.55740 0.05500
C 	C 	0.69180 0.82200 0.51500 -0.07300
H 	H 	0.67510 0.81450 0.48240 0.04800
N 	N 	0.80180 0.80200 0.38930 -0.29300
N 	N 	0.77710 0.81590 0.47300 -0.14100
C 	C 	0.26210 0.68900 0.57660 0.08300
H 	H 	0.22630 0.68640 0.58740 -0.06100
C 	C 	0.34260 0.69600 0.57570 -0.00500
H 	H 	0.37830 0.70100 0.58580 0.01000
C 	C 	0.32850 0.68660 0.52770 0.00800
H 	H 	0.35130 0.68240 0.49840 0.02300
C 	C 	0.24640 0.67700 0.48180 0.08600
C 	C 	0.27080 0.66590 0.43410 -0.07400
H 	H 	0.30820 0.66520 0.43190 0.05400
C 	C 	0.24070 0.65590 0.38950 -0.07300
H 	H 	0.25740 0.64830 0.35690 0.05800
C 	C 	0.18600 0.65690 0.39270 0.07900
C 	C 	0.16160 0.66800 0.44040 -0.07600
H 	H 	0.12420 0.66870 0.44260 0.05400
C 	C 	0.19180 0.67800 0.48500 -0.07400
H 	H 	0.17510 0.68550 0.51760 0.04700
N 	N 	0.30180 0.69800 0.61070 -0.29400
N 	N 	0.27710 0.68410 0.52700 -0.14200
C 	C 	0.42340 0.73790 0.68900 0.08200
H 	H 	0.41260 0.77370 0.68640 -0.06200
C 	C 	0.42430 0.65740 0.69600 -0.00500
H 	H 	0.41420 0.62170 0.70100 0.01000
C 	C 	0.47230 0.67150 0.68660 0.00800
H 	H 	0.50160 0.64870 0.68240 0.02300
C 	C 	0.51820 0.75360 0.67700 0.08600
C 	C 	0.56590 0.72920 0.66590 -0.07400
H 	H 	0.56810 0.69180 0.66520 0.05400
C 	C 	0.61050 0.75930 0.65590 -0.07300
H 	H 	0.64310 0.74260 0.64830 0.05800
C 	C 	0.60730 0.81400 0.65690 0.07900
C 	C 	0.55960 0.83840 0.66800 -0.07600
H 	H 	0.55740 0.87580 0.66870 0.05400
C 	C 	0.51500 0.80820 0.67800 -0.07400
H 	H 	0.48240 0.82490 0.68550 0.04700
N 	N 	0.38930 0.69820 0.69800 -0.29400
N 	N 	0.47300 0.72290 0.68410 -0.14200
C 	C 	0.57660 0.23790 0.81100 0.08200
H 	H 	0.58740 0.27370 0.81360 -0.06200
C 	C 	0.57570 0.15740 0.80400 -0.00500
H 	H 	0.58580 0.12170 0.79900 0.01000
C 	C 	0.52770 0.17150 0.81340 0.00800
H 	H 	0.49840 0.14870 0.81760 0.02300
C 	C 	0.48180 0.25360 0.82300 0.08600
C 	C 	0.43410 0.22920 0.83410 -0.07400
H 	H 	0.43190 0.19180 0.83480 0.05400
C 	C 	0.38950 0.25930 0.84410 -0.07300
H 	H 	0.35690 0.24260 0.85170 0.05800
C 	C 	0.39270 0.31400 0.84310 0.07900
C 	C 	0.44040 0.33840 0.83200 -0.07600
H 	H 	0.44260 0.37580 0.83130 0.05400
C 	C 	0.48500 0.30820 0.82200 -0.07400
H 	H 	0.51760 0.32490 0.81450 0.04700
N 	N 	0.61070 0.19820 0.80200 -0.29400
N 	N 	0.52700 0.22290 0.81590 -0.14200
C 	C 	0.92340 0.76210 0.31100 0.08200
H 	H 	0.91260 0.72630 0.31360 -0.06200
C 	C 	0.92430 0.84260 0.30400 -0.00500
H 	H 	0.91420 0.87830 0.29900 0.01000
C 	C 	0.97230 0.82850 0.31340 0.00800
H 	H 	0.00160 0.85130 0.31760 0.02300
C 	C 	0.01820 0.74640 0.32300 0.08600
C 	C 	0.06590 0.77080 0.33410 -0.07400
H 	H 	0.06810 0.80820 0.33480 0.05400
C 	C 	0.11050 0.74070 0.34410 -0.07300
H 	H 	0.14310 0.75740 0.35170 0.05800
C 	C 	0.10730 0.68600 0.34310 0.07900
C 	C 	0.05960 0.66160 0.33200 -0.07600
H 	H 	0.05740 0.62420 0.33130 0.05400
C 	C 	0.01500 0.69180 0.32200 -0.07400
H 	H 	0.98240 0.67510 0.31450 0.04700
N 	N 	0.88930 0.80180 0.30200 -0.29400
N 	N 	0.97300 0.77710 0.31590 -0.14200
C 	C 	0.07660 0.26210 0.18900 0.08200
H 	H 	0.08740 0.22630 0.18640 -0.06200
C 	C 	0.07570 0.34260 0.19600 -0.00500
H 	H 	0.08580 0.37830 0.20100 0.01000
C 	C 	0.02770 0.32850 0.18660 0.00800
H 	H 	0.99840 0.35130 0.18240 0.02300
C 	C 	0.98180 0.24640 0.17700 0.08600
C 	C 	0.93410 0.27080 0.16590 -0.07400
H 	H 	0.93190 0.30820 0.16520 0.05400
C 	C 	0.88950 0.24070 0.15590 -0.07300
H 	H 	0.85690 0.25740 0.14830 0.05800
C 	C 	0.89270 0.18600 0.15690 0.07900
C 	C 	0.94040 0.16160 0.16800 -0.07600
H 	H 	0.94260 0.12420 0.16870 0.05400
C 	C 	0.98500 0.19180 0.17800 -0.07400
H 	H 	0.01760 0.17510 0.18550 0.04700
N 	N 	0.11070 0.30180 0.19800 -0.29400
N 	N 	0.02700 0.27710 0.18410 -0.14200
Cd	Cd	0.20011 0.29989 0.20011 1.03400
Cd	Cd	0.79989 0.79989 0.29989 1.03400
Cd	Cd	0.29989 0.70011 0.70011 1.03400
Cd	Cd	0.70011 0.20011 0.79989 1.03400
N 	N 	0.15530 0.65530 0.34470 -0.14500
N 	N 	0.84470 0.15530 0.15530 -0.14500
N 	N 	0.65530 0.84470 0.65530 -0.14500
N 	N 	0.34470 0.34470 0.84470 -0.14500
C 	C 	0.18900 0.92340 0.73790 0.08200
H 	H 	0.18640 0.91260 0.77370 -0.06200
C 	C 	0.19600 0.92430 0.65740 -0.00500
H 	H 	0.20100 0.91420 0.62170 0.01000
C 	C 	0.18660 0.97230 0.67150 0.00800
H 	H 	0.18240 0.00160 0.64870 0.02300
C 	C 	0.17700 0.01820 0.75360 0.08600
C 	C 	0.16590 0.06590 0.72920 -0.07400
H 	H 	0.16520 0.06810 0.69180 0.05400
C 	C 	0.15590 0.11050 0.75930 -0.07300
H 	H 	0.14830 0.14310 0.74260 0.05800
C 	C 	0.15690 0.10730 0.81400 0.07900
C 	C 	0.16800 0.05960 0.83840 -0.07600
H 	H 	0.16870 0.05740 0.87580 0.05400
C 	C 	0.17800 0.01500 0.80820 -0.07400
H 	H 	0.18550 0.98240 0.82490 0.04700
N 	N 	0.19800 0.88930 0.69820 -0.29400
N 	N 	0.18410 0.97300 0.72290 -0.14200
C 	C 	0.31100 0.07660 0.23790 0.08200
H 	H 	0.31360 0.08740 0.27370 -0.06200
C 	C 	0.30400 0.07570 0.15740 -0.00500
H 	H 	0.29900 0.08580 0.12170 0.01000
C 	C 	0.31340 0.02770 0.17150 0.00800
H 	H 	0.31760 0.99840 0.14870 0.02300
C 	C 	0.32300 0.98180 0.25360 0.08600
C 	C 	0.33410 0.93410 0.22920 -0.07400
H 	H 	0.33480 0.93190 0.19180 0.05400
C 	C 	0.34410 0.88950 0.25930 -0.07300
H 	H 	0.35170 0.85690 0.24260 0.05800
C 	C 	0.34310 0.89270 0.31400 0.07900
C 	C 	0.33200 0.94040 0.33840 -0.07600
H 	H 	0.33130 0.94260 0.37580 0.05400
C 	C 	0.32200 0.98500 0.30820 -0.07400
H 	H 	0.31450 0.01760 0.32490 0.04700
N 	N 	0.30200 0.11070 0.19820 -0.29400
N 	N 	0.31590 0.02700 0.22290 -0.14200
C 	C 	0.81100 0.42340 0.76210 0.08200
H 	H 	0.81360 0.41260 0.72630 -0.06200
C 	C 	0.80400 0.42430 0.84260 -0.00500
H 	H 	0.79900 0.41420 0.87830 0.01000
C 	C 	0.81340 0.47230 0.82850 0.00800
H 	H 	0.81760 0.50160 0.85130 0.02300
C 	C 	0.82300 0.51820 0.74640 0.08600
C 	C 	0.83410 0.56590 0.77080 -0.07400
H 	H 	0.83480 0.56810 0.80820 0.05400
C 	C 	0.84410 0.61050 0.74070 -0.07300
H 	H 	0.85170 0.64310 0.75740 0.05800
C 	C 	0.84310 0.60730 0.68600 0.07900
C 	C 	0.83200 0.55960 0.66160 -0.07600
H 	H 	0.83130 0.55740 0.62420 0.05400
C 	C 	0.82200 0.51500 0.69180 -0.07400
H 	H 	0.81450 0.48240 0.67510 0.04700
N 	N 	0.80200 0.38930 0.80180 -0.29400
N 	N 	0.81590 0.47300 0.77710 -0.14200
C 	C 	0.68900 0.57660 0.26210 0.08200
H 	H 	0.68640 0.58740 0.22630 -0.06200
C 	C 	0.69600 0.57570 0.34260 -0.00500
H 	H 	0.70100 0.58580 0.37830 0.01000
C 	C 	0.68660 0.52770 0.32850 0.00800
H 	H 	0.68240 0.49840 0.35130 0.02300
C 	C 	0.67700 0.48180 0.24640 0.08600
C 	C 	0.66590 0.43410 0.27080 -0.07400
H 	H 	0.66520 0.43190 0.30820 0.05400
C 	C 	0.65590 0.38950 0.24070 -0.07300
H 	H 	0.64830 0.35690 0.25740 0.05800
C 	C 	0.65690 0.39270 0.18600 0.07900
C 	C 	0.66800 0.44040 0.16160 -0.07600
H 	H 	0.66870 0.44260 0.12420 0.05400
C 	C 	0.67800 0.48500 0.19180 -0.07400
H 	H 	0.68550 0.51760 0.17510 0.04700
N 	N 	0.69800 0.61070 0.30180 -0.29400
N 	N 	0.68410 0.52700 0.27710 -0.14200
C 	C 	0.73790 0.68900 0.42340 0.08200
H 	H 	0.77370 0.68640 0.41260 -0.06200
C 	C 	0.65740 0.69600 0.42430 -0.00500
H 	H 	0.62170 0.70100 0.41420 0.01000
C 	C 	0.67150 0.68660 0.47230 0.00800
H 	H 	0.64870 0.68240 0.50160 0.02300
C 	C 	0.75360 0.67700 0.51820 0.08600
C 	C 	0.72920 0.66590 0.56590 -0.07400
H 	H 	0.69180 0.66520 0.56810 0.05400
C 	C 	0.75930 0.65590 0.61050 -0.07300
H 	H 	0.74260 0.64830 0.64310 0.05800
C 	C 	0.81400 0.65690 0.60730 0.07900
C 	C 	0.83840 0.66800 0.55960 -0.07600
H 	H 	0.87580 0.66870 0.55740 0.05400
C 	C 	0.80820 0.67800 0.51500 -0.07400
H 	H 	0.82490 0.68550 0.48240 0.04700
N 	N 	0.69820 0.69800 0.38930 -0.29400
N 	N 	0.72290 0.68410 0.47300 -0.14200
C 	C 	0.23790 0.81100 0.57660 0.08200
H 	H 	0.27370 0.81360 0.58740 -0.06200
C 	C 	0.15740 0.80400 0.57570 -0.00500
H 	H 	0.12170 0.79900 0.58580 0.01000
C 	C 	0.17150 0.81340 0.52770 0.00800
H 	H 	0.14870 0.81760 0.49840 0.02300
C 	C 	0.25360 0.82300 0.48180 0.08600
C 	C 	0.22920 0.83410 0.43410 -0.07400
H 	H 	0.19180 0.83480 0.43190 0.05400
C 	C 	0.25930 0.84410 0.38950 -0.07300
H 	H 	0.24260 0.85170 0.35690 0.05800
C 	C 	0.31400 0.84310 0.39270 0.07900
C 	C 	0.33840 0.83200 0.44040 -0.07600
H 	H 	0.37580 0.83130 0.44260 0.05400
C 	C 	0.30820 0.82200 0.48500 -0.07400
H 	H 	0.32490 0.81450 0.51760 0.04700
N 	N 	0.19820 0.80200 0.61070 -0.29400
N 	N 	0.22290 0.81590 0.52700 -0.14200
C 	C 	0.76210 0.31100 0.92340 0.08200
H 	H 	0.72630 0.31360 0.91260 -0.06200
C 	C 	0.84260 0.30400 0.92430 -0.00500
H 	H 	0.87830 0.29900 0.91420 0.01000
C 	C 	0.82850 0.31340 0.97230 0.00800
H 	H 	0.85130 0.31760 0.00160 0.02300
C 	C 	0.74640 0.32300 0.01820 0.08600
C 	C 	0.77080 0.33410 0.06590 -0.07400
H 	H 	0.80820 0.33480 0.06810 0.05400
C 	C 	0.74070 0.34410 0.11050 -0.07300
H 	H 	0.75740 0.35170 0.14310 0.05800
C 	C 	0.68600 0.34310 0.10730 0.07900
C 	C 	0.66160 0.33200 0.05960 -0.07600
H 	H 	0.62420 0.33130 0.05740 0.05400
C 	C 	0.69180 0.32200 0.01500 -0.07400
H 	H 	0.67510 0.31450 0.98240 0.04700
N 	N 	0.80180 0.30200 0.88930 -0.29400
N 	N 	0.77710 0.31590 0.97300 -0.14200
C 	C 	0.26210 0.18900 0.07660 0.08200
H 	H 	0.22630 0.18640 0.08740 -0.06200
C 	C 	0.34260 0.19600 0.07570 -0.00500
H 	H 	0.37830 0.20100 0.08580 0.01000
C 	C 	0.32850 0.18660 0.02770 0.00800
H 	H 	0.35130 0.18240 0.99840 0.02300
C 	C 	0.24640 0.17700 0.98180 0.08600
C 	C 	0.27080 0.16590 0.93410 -0.07400
H 	H 	0.30820 0.16520 0.93190 0.05400
C 	C 	0.24070 0.15590 0.88950 -0.07300
H 	H 	0.25740 0.14830 0.85690 0.05800
C 	C 	0.18600 0.15690 0.89270 0.07900
C 	C 	0.16160 0.16800 0.94040 -0.07600
H 	H 	0.12420 0.16870 0.94260 0.05400
C 	C 	0.19180 0.17800 0.98500 -0.07400
H 	H 	0.17510 0.18550 0.01760 0.04700
N 	N 	0.30180 0.19800 0.11070 -0.29400
N 	N 	0.27710 0.18410 0.02700 -0.14200
C 	C 	0.42340 0.23790 0.18900 0.08200
H 	H 	0.41260 0.27370 0.18640 -0.06200
C 	C 	0.42430 0.15740 0.19600 -0.00500
H 	H 	0.41420 0.12170 0.20100 0.01000
C 	C 	0.47230 0.17150 0.18660 0.00800
H 	H 	0.50160 0.14870 0.18240 0.02300
C 	C 	0.51820 0.25360 0.17700 0.08600
C 	C 	0.56590 0.22920 0.16590 -0.07400
H 	H 	0.56810 0.19180 0.16520 0.05400
C 	C 	0.61050 0.25930 0.15590 -0.07300
H 	H 	0.64310 0.24260 0.14830 0.05800
C 	C 	0.60730 0.31400 0.15690 0.07900
C 	C 	0.55960 0.33840 0.16800 -0.07600
H 	H 	0.55740 0.37580 0.16870 0.05400
C 	C 	0.51500 0.30820 0.17800 -0.07400
H 	H 	0.48240 0.32490 0.18550 0.04700
N 	N 	0.38930 0.19820 0.19800 -0.29400
N 	N 	0.47300 0.22290 0.18410 -0.14200
C 	C 	0.57660 0.73790 0.31100 0.08200
H 	H 	0.58740 0.77370 0.31360 -0.06200
C 	C 	0.57570 0.65740 0.30400 -0.00500
H 	H 	0.58580 0.62170 0.29900 0.01000
C 	C 	0.52770 0.67150 0.31340 0.00800
H 	H 	0.49840 0.64870 0.31760 0.02300
C 	C 	0.48180 0.75360 0.32300 0.08600
C 	C 	0.43410 0.72920 0.33410 -0.07400
H 	H 	0.43190 0.69180 0.33480 0.05400
C 	C 	0.38950 0.75930 0.34410 -0.07300
H 	H 	0.35690 0.74260 0.35170 0.05800
C 	C 	0.39270 0.81400 0.34310 0.07900
C 	C 	0.44040 0.83840 0.33200 -0.07600
H 	H 	0.44260 0.87580 0.33130 0.05400
C 	C 	0.48500 0.80820 0.32200 -0.07400
H 	H 	0.51760 0.82490 0.31450 0.04700
N 	N 	0.61070 0.69820 0.30200 -0.29400
N 	N 	0.52700 0.72290 0.31590 -0.14200
C 	C 	0.92340 0.26210 0.81100 0.08200
H 	H 	0.91260 0.22630 0.81360 -0.06200
C 	C 	0.92430 0.34260 0.80400 -0.00500
H 	H 	0.91420 0.37830 0.79900 0.01000
C 	C 	0.97230 0.32850 0.81340 0.00800
H 	H 	0.00160 0.35130 0.81760 0.02300
C 	C 	0.01820 0.24640 0.82300 0.08600
C 	C 	0.06590 0.27080 0.83410 -0.07400
H 	H 	0.06810 0.30820 0.83480 0.05400
C 	C 	0.11050 0.24070 0.84410 -0.07300
H 	H 	0.14310 0.25740 0.85170 0.05800
C 	C 	0.10730 0.18600 0.84310 0.07900
C 	C 	0.05960 0.16160 0.83200 -0.07600
H 	H 	0.05740 0.12420 0.83130 0.05400
C 	C 	0.01500 0.19180 0.82200 -0.07400
H 	H 	0.98240 0.17510 0.81450 0.04700
N 	N 	0.88930 0.30180 0.80200 -0.29400
N 	N 	0.97300 0.27710 0.81590 -0.14200
C 	C 	0.07660 0.76210 0.68900 0.08200
H 	H 	0.08740 0.72630 0.68640 -0.06200
C 	C 	0.07570 0.84260 0.69600 -0.00500
H 	H 	0.08580 0.87830 0.70100 0.01000
C 	C 	0.02770 0.82850 0.68660 0.00800
H 	H 	0.99840 0.85130 0.68240 0.02300
C 	C 	0.98180 0.74640 0.67700 0.08600
C 	C 	0.93410 0.77080 0.66590 -0.07400
H 	H 	0.93190 0.80820 0.66520 0.05400
C 	C 	0.88950 0.74070 0.65590 -0.07300
H 	H 	0.85690 0.75740 0.64830 0.05800
C 	C 	0.89270 0.68600 0.65690 0.07900
C 	C 	0.94040 0.66160 0.66800 -0.07600
H 	H 	0.94260 0.62420 0.66870 0.05400
C 	C 	0.98500 0.69180 0.67800 -0.07400
H 	H 	0.01760 0.67510 0.68550 0.04700
N 	N 	0.11070 0.80180 0.69800 -0.29400
N 	N 	0.02700 0.77710 0.68410 -0.14200
Cd	Cd	0.29989 0.20011 0.20011 1.03400
Cd	Cd	0.79989 0.29989 0.79989 1.03400
Cd	Cd	0.20011 0.79989 0.70011 1.03400
Cd	Cd	0.70011 0.70011 0.29989 1.03400
N 	N 	0.15530 0.15530 0.84470 -0.14500
N 	N 	0.84470 0.65530 0.65530 -0.14500
N 	N 	0.34470 0.84470 0.34470 -0.14500
N 	N 	0.65530 0.34470 0.15530 -0.14500
C 	C 	0.68900 0.42340 0.73790 0.08200
H 	H 	0.68640 0.41260 0.77370 -0.06200
C 	C 	0.69600 0.42430 0.65740 -0.00500
H 	H 	0.70100 0.41420 0.62170 0.01000
C 	C 	0.68660 0.47230 0.67150 0.00800
H 	H 	0.68240 0.50160 0.64870 0.02300
C 	C 	0.67700 0.51820 0.75360 0.08600
C 	C 	0.66590 0.56590 0.72920 -0.07400
H 	H 	0.66520 0.56810 0.69180 0.05400
C 	C 	0.65590 0.61050 0.75930 -0.07300
H 	H 	0.64830 0.64310 0.74260 0.05800
C 	C 	0.65690 0.60730 0.81400 0.07900
C 	C 	0.66800 0.55960 0.83840 -0.07600
H 	H 	0.66870 0.55740 0.87580 0.05400
C 	C 	0.67800 0.51500 0.80820 -0.07400
H 	H 	0.68550 0.48240 0.82490 0.04700
N 	N 	0.69800 0.38930 0.69820 -0.29400
N 	N 	0.68410 0.47300 0.72290 -0.14200
C 	C 	0.81100 0.57660 0.23790 0.08200
H 	H 	0.81360 0.58740 0.27370 -0.06200
C 	C 	0.80400 0.57570 0.15740 -0.00500
H 	H 	0.79900 0.58580 0.12170 0.01000
C 	C 	0.81340 0.52770 0.17150 0.00800
H 	H 	0.81760 0.49840 0.14870 0.02300
C 	C 	0.82300 0.48180 0.25360 0.08600
C 	C 	0.83410 0.43410 0.22920 -0.07400
H 	H 	0.83480 0.43190 0.19180 0.05400
C 	C 	0.84410 0.38950 0.25930 -0.07300
H 	H 	0.85170 0.35690 0.24260 0.05800
C 	C 	0.84310 0.39270 0.31400 0.07900
C 	C 	0.83200 0.44040 0.33840 -0.07600
H 	H 	0.83130 0.44260 0.37580 0.05400
C 	C 	0.82200 0.48500 0.30820 -0.07400
H 	H 	0.81450 0.51760 0.32490 0.04700
N 	N 	0.80200 0.61070 0.19820 -0.29400
N 	N 	0.81590 0.52700 0.22290 -0.14200
C 	C 	0.31100 0.92340 0.76210 0.08200
H 	H 	0.31360 0.91260 0.72630 -0.06200
C 	C 	0.30400 0.92430 0.84260 -0.00500
H 	H 	0.29900 0.91420 0.87830 0.01000
C 	C 	0.31340 0.97230 0.82850 0.00800
H 	H 	0.31760 0.00160 0.85130 0.02300
C 	C 	0.32300 0.01820 0.74640 0.08600
C 	C 	0.33410 0.06590 0.77080 -0.07400
H 	H 	0.33480 0.06810 0.80820 0.05400
C 	C 	0.34410 0.11050 0.74070 -0.07300
H 	H 	0.35170 0.14310 0.75740 0.05800
C 	C 	0.34310 0.10730 0.68600 0.07900
C 	C 	0.33200 0.05960 0.66160 -0.07600
H 	H 	0.33130 0.05740 0.62420 0.05400
C 	C 	0.32200 0.01500 0.69180 -0.07400
H 	H 	0.31450 0.98240 0.67510 0.04700
N 	N 	0.30200 0.88930 0.80180 -0.29400
N 	N 	0.31590 0.97300 0.77710 -0.14200
C 	C 	0.18900 0.07660 0.26210 0.08200
H 	H 	0.18640 0.08740 0.22630 -0.06200
C 	C 	0.19600 0.07570 0.34260 -0.00500
H 	H 	0.20100 0.08580 0.37830 0.01000
C 	C 	0.18660 0.02770 0.32850 0.00800
H 	H 	0.18240 0.99840 0.35130 0.02300
C 	C 	0.17700 0.98180 0.24640 0.08600
C 	C 	0.16590 0.93410 0.27080 -0.07400
H 	H 	0.16520 0.93190 0.30820 0.05400
C 	C 	0.15590 0.88950 0.24070 -0.07300
H 	H 	0.14830 0.85690 0.25740 0.05800
C 	C 	0.15690 0.89270 0.18600 0.07900
C 	C 	0.16800 0.94040 0.16160 -0.07600
H 	H 	0.16870 0.94260 0.12420 0.05400
C 	C 	0.17800 0.98500 0.19180 -0.07400
H 	H 	0.18550 0.01760 0.17510 0.04700
N 	N 	0.19800 0.11070 0.30180 -0.29400
N 	N 	0.18410 0.02700 0.27710 -0.14200
C 	C 	0.23790 0.18900 0.42340 0.08200
H 	H 	0.27370 0.18640 0.41260 -0.06200
C 	C 	0.15740 0.19600 0.42430 -0.00500
H 	H 	0.12170 0.20100 0.41420 0.01000
C 	C 	0.17150 0.18660 0.47230 0.00800
H 	H 	0.14870 0.18240 0.50160 0.02300
C 	C 	0.25360 0.17700 0.51820 0.08600
C 	C 	0.22920 0.16590 0.56590 -0.07400
H 	H 	0.19180 0.16520 0.56810 0.05400
C 	C 	0.25930 0.15590 0.61050 -0.07300
H 	H 	0.24260 0.14830 0.64310 0.05800
C 	C 	0.31400 0.15690 0.60730 0.07900
C 	C 	0.33840 0.16800 0.55960 -0.07600
H 	H 	0.37580 0.16870 0.55740 0.05400
C 	C 	0.30820 0.17800 0.51500 -0.07400
H 	H 	0.32490 0.18550 0.48240 0.04700
N 	N 	0.19820 0.19800 0.38930 -0.29400
N 	N 	0.22290 0.18410 0.47300 -0.14200
C 	C 	0.73790 0.31100 0.57660 0.08200
H 	H 	0.77370 0.31360 0.58740 -0.06200
C 	C 	0.65740 0.30400 0.57570 -0.00500
H 	H 	0.62170 0.29900 0.58580 0.01000
C 	C 	0.67150 0.31340 0.52770 0.00800
H 	H 	0.64870 0.31760 0.49840 0.02300
C 	C 	0.75360 0.32300 0.48180 0.08600
C 	C 	0.72920 0.33410 0.43410 -0.07400
H 	H 	0.69180 0.33480 0.43190 0.05400
C 	C 	0.75930 0.34410 0.38950 -0.07300
H 	H 	0.74260 0.35170 0.35690 0.05800
C 	C 	0.81400 0.34310 0.39270 0.07900
C 	C 	0.83840 0.33200 0.44040 -0.07600
H 	H 	0.87580 0.33130 0.44260 0.05400
C 	C 	0.80820 0.32200 0.48500 -0.07400
H 	H 	0.82490 0.31450 0.51760 0.04700
N 	N 	0.69820 0.30200 0.61070 -0.29400
N 	N 	0.72290 0.31590 0.52700 -0.14200
C 	C 	0.26210 0.81100 0.92340 0.08200
H 	H 	0.22630 0.81360 0.91260 -0.06200
C 	C 	0.34260 0.80400 0.92430 -0.00500
H 	H 	0.37830 0.79900 0.91420 0.01000
C 	C 	0.32850 0.81340 0.97230 0.00800
H 	H 	0.35130 0.81760 0.00160 0.02300
C 	C 	0.24640 0.82300 0.01820 0.08600
C 	C 	0.27080 0.83410 0.06590 -0.07400
H 	H 	0.30820 0.83480 0.06810 0.05400
C 	C 	0.24070 0.84410 0.11050 -0.07300
H 	H 	0.25740 0.85170 0.14310 0.05800
C 	C 	0.18600 0.84310 0.10730 0.07900
C 	C 	0.16160 0.83200 0.05960 -0.07600
H 	H 	0.12420 0.83130 0.05740 0.05400
C 	C 	0.19180 0.82200 0.01500 -0.07400
H 	H 	0.17510 0.81450 0.98240 0.04700
N 	N 	0.30180 0.80200 0.88930 -0.29400
N 	N 	0.27710 0.81590 0.97300 -0.14200
C 	C 	0.76210 0.68900 0.07660 0.08200
H 	H 	0.72630 0.68640 0.08740 -0.06200
C 	C 	0.84260 0.69600 0.07570 -0.00500
H 	H 	0.87830 0.70100 0.08580 0.01000
C 	C 	0.82850 0.68660 0.02770 0.00800
H 	H 	0.85130 0.68240 0.99840 0.02300
C 	C 	0.74640 0.67700 0.98180 0.08600
C 	C 	0.77080 0.66590 0.93410 -0.07400
H 	H 	0.80820 0.66520 0.93190 0.05400
C 	C 	0.74070 0.65590 0.88950 -0.07300
H 	H 	0.75740 0.64830 0.85690 0.05800
C 	C 	0.68600 0.65690 0.89270 0.07900
C 	C 	0.66160 0.66800 0.94040 -0.07600
H 	H 	0.62420 0.66870 0.94260 0.05400
C 	C 	0.69180 0.67800 0.98500 -0.07400
H 	H 	0.67510 0.68550 0.01760 0.04700
N 	N 	0.80180 0.69800 0.11070 -0.29400
N 	N 	0.77710 0.68410 0.02700 -0.14200
C 	C 	0.92340 0.73790 0.18900 0.08200
H 	H 	0.91260 0.77370 0.18640 -0.06200
C 	C 	0.92430 0.65740 0.19600 -0.00500
H 	H 	0.91420 0.62170 0.20100 0.01000
C 	C 	0.97230 0.67150 0.18660 0.00800
H 	H 	0.00160 0.64870 0.18240 0.02300
C 	C 	0.01820 0.75360 0.17700 0.08600
C 	C 	0.06590 0.72920 0.16590 -0.07400
H 	H 	0.06810 0.69180 0.16520 0.05400
C 	C 	0.11050 0.75930 0.15590 -0.07300
H 	H 	0.14310 0.74260 0.14830 0.05800
C 	C 	0.10730 0.81400 0.15690 0.07900
C 	C 	0.05960 0.83840 0.16800 -0.07600
H 	H 	0.05740 0.87580 0.16870 0.05400
C 	C 	0.01500 0.80820 0.17800 -0.07400
H 	H 	0.98240 0.82490 0.18550 0.04700
N 	N 	0.88930 0.69820 0.19800 -0.29400
N 	N 	0.97300 0.72290 0.18410 -0.14200
C 	C 	0.07660 0.23790 0.31100 0.08200
H 	H 	0.08740 0.27370 0.31360 -0.06200
C 	C 	0.07570 0.15740 0.30400 -0.00500
H 	H 	0.08580 0.12170 0.29900 0.01000
C 	C 	0.02770 0.17150 0.31340 0.00800
H 	H 	0.99840 0.14870 0.31760 0.02300
C 	C 	0.98180 0.25360 0.32300 0.08600
C 	C 	0.93410 0.22920 0.33410 -0.07400
H 	H 	0.93190 0.19180 0.33480 0.05400
C 	C 	0.88950 0.25930 0.34410 -0.07300
H 	H 	0.85690 0.24260 0.35170 0.05800
C 	C 	0.89270 0.31400 0.34310 0.07900
C 	C 	0.94040 0.33840 0.33200 -0.07600
H 	H 	0.94260 0.37580 0.33130 0.05400
C 	C 	0.98500 0.30820 0.32200 -0.07400
H 	H 	0.01760 0.32490 0.31450 0.04700
N 	N 	0.11070 0.19820 0.30200 -0.29400
N 	N 	0.02700 0.22290 0.31590 -0.14200
C 	C 	0.42340 0.76210 0.81100 0.08200
H 	H 	0.41260 0.72630 0.81360 -0.06200
C 	C 	0.42430 0.84260 0.80400 -0.00500
H 	H 	0.41420 0.87830 0.79900 0.01000
C 	C 	0.47230 0.82850 0.81340 0.00800
H 	H 	0.50160 0.85130 0.81760 0.02300
C 	C 	0.51820 0.74640 0.82300 0.08600
C 	C 	0.56590 0.77080 0.83410 -0.07400
H 	H 	0.56810 0.80820 0.83480 0.05400
C 	C 	0.61050 0.74070 0.84410 -0.07300
H 	H 	0.64310 0.75740 0.85170 0.05800
C 	C 	0.60730 0.68600 0.84310 0.07900
C 	C 	0.55960 0.66160 0.83200 -0.07600
H 	H 	0.55740 0.62420 0.83130 0.05400
C 	C 	0.51500 0.69180 0.82200 -0.07400
H 	H 	0.48240 0.67510 0.81450 0.04700
N 	N 	0.38930 0.80180 0.80200 -0.29400
N 	N 	0.47300 0.77710 0.81590 -0.14200
C 	C 	0.57660 0.26210 0.68900 0.08200
H 	H 	0.58740 0.22630 0.68640 -0.06200
C 	C 	0.57570 0.34260 0.69600 -0.00500
H 	H 	0.58580 0.37830 0.70100 0.01000
C 	C 	0.52770 0.32850 0.68660 0.00800
H 	H 	0.49840 0.35130 0.68240 0.02300
C 	C 	0.48180 0.24640 0.67700 0.08600
C 	C 	0.43410 0.27080 0.66590 -0.07400
H 	H 	0.43190 0.30820 0.66520 0.05400
C 	C 	0.38950 0.24070 0.65590 -0.07300
H 	H 	0.35690 0.25740 0.64830 0.05800
C 	C 	0.39270 0.18600 0.65690 0.07900
C 	C 	0.44040 0.16160 0.66800 -0.07600
H 	H 	0.44260 0.12420 0.66870 0.05400
C 	C 	0.48500 0.19180 0.67800 -0.07400
H 	H 	0.51760 0.17510 0.68550 0.04700
N 	N 	0.61070 0.30180 0.69800 -0.29400
N 	N 	0.52700 0.27710 0.68410 -0.14200
Cd	Cd	0.79989 0.70011 0.20011 1.03400
Cd	Cd	0.20011 0.20011 0.29989 1.03400
Cd	Cd	0.29989 0.79989 0.79989 1.03400
Cd	Cd	0.70011 0.29989 0.70011 1.03400
N 	N 	0.84470 0.34470 0.34470 -0.14500
N 	N 	0.15530 0.84470 0.15530 -0.14500
N 	N 	0.34470 0.15530 0.65530 -0.14500
N 	N 	0.65530 0.65530 0.84470 -0.14500
C 	C 	0.68900 0.92340 0.23790 0.08200
H 	H 	0.68640 0.91260 0.27370 -0.06200
C 	C 	0.69600 0.92430 0.15740 -0.00500
H 	H 	0.70100 0.91420 0.12170 0.01000
C 	C 	0.68660 0.97230 0.17150 0.00800
H 	H 	0.68240 0.00160 0.14870 0.02300
C 	C 	0.67700 0.01820 0.25360 0.08600
C 	C 	0.66590 0.06590 0.22920 -0.07400
H 	H 	0.66520 0.06810 0.19180 0.05400
C 	C 	0.65590 0.11050 0.25930 -0.07300
H 	H 	0.64830 0.14310 0.24260 0.05800
C 	C 	0.65690 0.10730 0.31400 0.07900
C 	C 	0.66800 0.05960 0.33840 -0.07600
H 	H 	0.66870 0.05740 0.37580 0.05400
C 	C 	0.67800 0.01500 0.30820 -0.07400
H 	H 	0.68550 0.98240 0.32490 0.04700
N 	N 	0.69800 0.88930 0.19820 -0.29400
N 	N 	0.68410 0.97300 0.22290 -0.14200
C 	C 	0.81100 0.07660 0.73790 0.08200
H 	H 	0.81360 0.08740 0.77370 -0.06200
C 	C 	0.80400 0.07570 0.65740 -0.00500
H 	H 	0.79900 0.08580 0.62170 0.01000
C 	C 	0.81340 0.02770 0.67150 0.00800
H 	H 	0.81760 0.99840 0.64870 0.02300
C 	C 	0.82300 0.98180 0.75360 0.08600
C 	C 	0.83410 0.93410 0.72920 -0.07400
H 	H 	0.83480 0.93190 0.69180 0.05400
C 	C 	0.84410 0.88950 0.75930 -0.07300
H 	H 	0.85170 0.85690 0.74260 0.05800
C 	C 	0.84310 0.89270 0.81400 0.07900
C 	C 	0.83200 0.94040 0.83840 -0.07600
H 	H 	0.83130 0.94260 0.87580 0.05400
C 	C 	0.82200 0.98500 0.80820 -0.07400
H 	H 	0.81450 0.01760 0.82490 0.04700
N 	N 	0.80200 0.11070 0.69820 -0.29400
N 	N 	0.81590 0.02700 0.72290 -0.14200
C 	C 	0.31100 0.42340 0.26210 0.08200
H 	H 	0.31360 0.41260 0.22630 -0.06200
C 	C 	0.30400 0.42430 0.34260 -0.00500
H 	H 	0.29900 0.41420 0.37830 0.01000
C 	C 	0.31340 0.47230 0.32850 0.00800
H 	H 	0.31760 0.50160 0.35130 0.02300
C 	C 	0.32300 0.51820 0.24640 0.08600
C 	C 	0.33410 0.56590 0.27080 -0.07400
H 	H 	0.33480 0.56810 0.30820 0.05400
C 	C 	0.34410 0.61050 0.24070 -0.07300
H 	H 	0.35170 0.64310 0.25740 0.05800
C 	C 	0.34310 0.60730 0.18600 0.07900
C 	C 	0.33200 0.55960 0.16160 -0.07600
H 	H 	0.33130 0.55740 0.12420 0.05400
C 	C 	0.32200 0.51500 0.19180 -0.07400
H 	H 	0.31450 0.48240 0.17510 0.04700
N 	N 	0.30200 0.38930 0.30180 -0.29400
N 	N 	0.31590 0.47300 0.27710 -0.14200
C 	C 	0.18900 0.57660 0.76210 0.08200
H 	H 	0.18640 0.58740 0.72630 -0.06200
C 	C 	0.19600 0.57570 0.84260 -0.00500
H 	H 	0.20100 0.58580 0.87830 0.01000
C 	C 	0.18660 0.52770 0.82850 0.00800
H 	H 	0.18240 0.49840 0.85130 0.02300
C 	C 	0.17700 0.48180 0.74640 0.08600
C 	C 	0.16590 0.43410 0.77080 -0.07400
H 	H 	0.16520 0.43190 0.80820 0.05400
C 	C 	0.15590 0.38950 0.74070 -0.07300
H 	H 	0.14830 0.35690 0.75740 0.05800
C 	C 	0.15690 0.39270 0.68600 0.07900
C 	C 	0.16800 0.44040 0.66160 -0.07600
H 	H 	0.16870 0.44260 0.62420 0.05400
C 	C 	0.17800 0.48500 0.69180 -0.07400
H 	H 	0.18550 0.51760 0.67510 0.04700
N 	N 	0.19800 0.61070 0.80180 -0.29400
N 	N 	0.18410 0.52700 0.77710 -0.14200
C 	C 	0.23790 0.68900 0.92340 0.08200
H 	H 	0.27370 0.68640 0.91260 -0.06200
C 	C 	0.15740 0.69600 0.92430 -0.00500
H 	H 	0.12170 0.70100 0.91420 0.01000
C 	C 	0.17150 0.68660 0.97230 0.00800
H 	H 	0.14870 0.68240 0.00160 0.02300
C 	C 	0.25360 0.67700 0.01820 0.08600
C 	C 	0.22920 0.66590 0.06590 -0.07400
H 	H 	0.19180 0.66520 0.06810 0.05400
C 	C 	0.25930 0.65590 0.11050 -0.07300
H 	H 	0.24260 0.64830 0.14310 0.05800
C 	C 	0.31400 0.65690 0.10730 0.07900
C 	C 	0.33840 0.66800 0.05960 -0.07600
H 	H 	0.37580 0.66870 0.05740 0.05400
C 	C 	0.30820 0.67800 0.01500 -0.07400
H 	H 	0.32490 0.68550 0.98240 0.04700
N 	N 	0.19820 0.69800 0.88930 -0.29400
N 	N 	0.22290 0.68410 0.97300 -0.14200
C 	C 	0.73790 0.81100 0.07660 0.08200
H 	H 	0.77370 0.81360 0.08740 -0.06200
C 	C 	0.65740 0.80400 0.07570 -0.00500
H 	H 	0.62170 0.79900 0.08580 0.01000
C 	C 	0.67150 0.81340 0.02770 0.00800
H 	H 	0.64870 0.81760 0.99840 0.02300
C 	C 	0.75360 0.82300 0.98180 0.08600
C 	C 	0.72920 0.83410 0.93410 -0.07400
H 	H 	0.69180 0.83480 0.93190 0.05400
C 	C 	0.75930 0.84410 0.88950 -0.07300
H 	H 	0.74260 0.85170 0.85690 0.05800
C 	C 	0.81400 0.84310 0.89270 0.07900
C 	C 	0.83840 0.83200 0.94040 -0.07600
H 	H 	0.87580 0.83130 0.94260 0.05400
C 	C 	0.80820 0.82200 0.98500 -0.07400
H 	H 	0.82490 0.81450 0.01760 0.04700
N 	N 	0.69820 0.80200 0.11070 -0.29400
N 	N 	0.72290 0.81590 0.02700 -0.14200
C 	C 	0.26210 0.31100 0.42340 0.08200
H 	H 	0.22630 0.31360 0.41260 -0.06200
C 	C 	0.34260 0.30400 0.42430 -0.00500
H 	H 	0.37830 0.29900 0.41420 0.01000
C 	C 	0.32850 0.31340 0.47230 0.00800
H 	H 	0.35130 0.31760 0.50160 0.02300
C 	C 	0.24640 0.32300 0.51820 0.08600
C 	C 	0.27080 0.33410 0.56590 -0.07400
H 	H 	0.30820 0.33480 0.56810 0.05400
C 	C 	0.24070 0.34410 0.61050 -0.07300
H 	H 	0.25740 0.35170 0.64310 0.05800
C 	C 	0.18600 0.34310 0.60730 0.07900
C 	C 	0.16160 0.33200 0.55960 -0.07600
H 	H 	0.12420 0.33130 0.55740 0.05400
C 	C 	0.19180 0.32200 0.51500 -0.07400
H 	H 	0.17510 0.31450 0.48240 0.04700
N 	N 	0.30180 0.30200 0.38930 -0.29400
N 	N 	0.27710 0.31590 0.47300 -0.14200
C 	C 	0.76210 0.18900 0.57660 0.08200
H 	H 	0.72630 0.18640 0.58740 -0.06200
C 	C 	0.84260 0.19600 0.57570 -0.00500
H 	H 	0.87830 0.20100 0.58580 0.01000
C 	C 	0.82850 0.18660 0.52770 0.00800
H 	H 	0.85130 0.18240 0.49840 0.02300
C 	C 	0.74640 0.17700 0.48180 0.08600
C 	C 	0.77080 0.16590 0.43410 -0.07400
H 	H 	0.80820 0.16520 0.43190 0.05400
C 	C 	0.74070 0.15590 0.38950 -0.07300
H 	H 	0.75740 0.14830 0.35690 0.05800
C 	C 	0.68600 0.15690 0.39270 0.07900
C 	C 	0.66160 0.16800 0.44040 -0.07600
H 	H 	0.62420 0.16870 0.44260 0.05400
C 	C 	0.69180 0.17800 0.48500 -0.07400
H 	H 	0.67510 0.18550 0.51760 0.04700
N 	N 	0.80180 0.19800 0.61070 -0.29400
N 	N 	0.77710 0.18410 0.52700 -0.14200
C 	C 	0.92340 0.23790 0.68900 0.08200
H 	H 	0.91260 0.27370 0.68640 -0.06200
C 	C 	0.92430 0.15740 0.69600 -0.00500
H 	H 	0.91420 0.12170 0.70100 0.01000
C 	C 	0.97230 0.17150 0.68660 0.00800
H 	H 	0.00160 0.14870 0.68240 0.02300
C 	C 	0.01820 0.25360 0.67700 0.08600
C 	C 	0.06590 0.22920 0.66590 -0.07400
H 	H 	0.06810 0.19180 0.66520 0.05400
C 	C 	0.11050 0.25930 0.65590 -0.07300
H 	H 	0.14310 0.24260 0.64830 0.05800
C 	C 	0.10730 0.31400 0.65690 0.07900
C 	C 	0.05960 0.33840 0.66800 -0.07600
H 	H 	0.05740 0.37580 0.66870 0.05400
C 	C 	0.01500 0.30820 0.67800 -0.07400
H 	H 	0.98240 0.32490 0.68550 0.04700
N 	N 	0.88930 0.19820 0.69800 -0.29400
N 	N 	0.97300 0.22290 0.68410 -0.14200
C 	C 	0.07660 0.73790 0.81100 0.08200
H 	H 	0.08740 0.77370 0.81360 -0.06200
C 	C 	0.07570 0.65740 0.80400 -0.00500
H 	H 	0.08580 0.62170 0.79900 0.01000
C 	C 	0.02770 0.67150 0.81340 0.00800
H 	H 	0.99840 0.64870 0.81760 0.02300
C 	C 	0.98180 0.75360 0.82300 0.08600
C 	C 	0.93410 0.72920 0.83410 -0.07400
H 	H 	0.93190 0.69180 0.83480 0.05400
C 	C 	0.88950 0.75930 0.84410 -0.07300
H 	H 	0.85690 0.74260 0.85170 0.05800
C 	C 	0.89270 0.81400 0.84310 0.07900
C 	C 	0.94040 0.83840 0.83200 -0.07600
H 	H 	0.94260 0.87580 0.83130 0.05400
C 	C 	0.98500 0.80820 0.82200 -0.07400
H 	H 	0.01760 0.82490 0.81450 0.04700
N 	N 	0.11070 0.69820 0.80200 -0.29400
N 	N 	0.02700 0.72290 0.81590 -0.14200
C 	C 	0.42340 0.26210 0.31100 0.08200
H 	H 	0.41260 0.22630 0.31360 -0.06200
C 	C 	0.42430 0.34260 0.30400 -0.00500
H 	H 	0.41420 0.37830 0.29900 0.01000
C 	C 	0.47230 0.32850 0.31340 0.00800
H 	H 	0.50160 0.35130 0.31760 0.02300
C 	C 	0.51820 0.24640 0.32300 0.08600
C 	C 	0.56590 0.27080 0.33410 -0.07400
H 	H 	0.56810 0.30820 0.33480 0.05400
C 	C 	0.61050 0.24070 0.34410 -0.07300
H 	H 	0.64310 0.25740 0.35170 0.05800
C 	C 	0.60730 0.18600 0.34310 0.07900
C 	C 	0.55960 0.16160 0.33200 -0.07600
H 	H 	0.55740 0.12420 0.33130 0.05400
C 	C 	0.51500 0.19180 0.32200 -0.07400
H 	H 	0.48240 0.17510 0.31450 0.04700
N 	N 	0.38930 0.30180 0.30200 -0.29400
N 	N 	0.47300 0.27710 0.31590 -0.14200
C 	C 	0.57660 0.76210 0.18900 0.08200
H 	H 	0.58740 0.72630 0.18640 -0.06200
C 	C 	0.57570 0.84260 0.19600 -0.00500
H 	H 	0.58580 0.87830 0.20100 0.01000
C 	C 	0.52770 0.82850 0.18660 0.00800
H 	H 	0.49840 0.85130 0.18240 0.02300
C 	C 	0.48180 0.74640 0.17700 0.08600
C 	C 	0.43410 0.77080 0.16590 -0.07400
H 	H 	0.43190 0.80820 0.16520 0.05400
C 	C 	0.38950 0.74070 0.15590 -0.07300
H 	H 	0.35690 0.75740 0.14830 0.05800
C 	C 	0.39270 0.68600 0.15690 0.07900
C 	C 	0.44040 0.66160 0.16800 -0.07600
H 	H 	0.44260 0.62420 0.16870 0.05400
C 	C 	0.48500 0.69180 0.17800 -0.07400
H 	H 	0.51760 0.67510 0.18550 0.04700
N 	N 	0.61070 0.80180 0.19800 -0.29400
N 	N 	0.52700 0.77710 0.18410 -0.14200
Cd	Cd	0.29989 0.29989 0.29989 1.03400
Cd	Cd	0.20011 0.70011 0.79989 1.03400
Cd	Cd	0.79989 0.20011 0.70011 1.03400
Cd	Cd	0.70011 0.79989 0.20011 1.03400
N 	N 	0.84470 0.84470 0.84470 -0.14500
N 	N 	0.15530 0.34470 0.65530 -0.14500
N 	N 	0.65530 0.15530 0.34470 -0.14500
N 	N 	0.34470 0.65530 0.15530 -0.14500
