data_crystal

_cell_length_a 18.35590
_cell_length_b 26.31400
_cell_length_c 42.40600
_cell_angle_alpha 90.00000
_cell_angle_beta  90.00000
_cell_angle_gamma 90.00000

_symmetry_space_group_name_	'P 1'
_symmetry_space_group_name_H-M	'P 1'

loop_
_symmetry_equiv_pos_as_xyz
  x,y,z

loop_
_atom_site_label
_atom_site_type_symbol
_atom_site_fract_x
_atom_site_fract_y
_atom_site_fract_z
_atom_site_charge
C 	C 	0.75240 0.12260 0.30290 0.31300
C 	C 	0.75110 0.17480 0.28730 -0.11400
C 	C 	0.68490 0.19800 0.28040 0.08300
C 	C 	0.74900 0.27200 0.26150 0.04600
C 	C 	0.81600 0.20030 0.28130 0.08300
O 	O 	0.81640 0.10950 0.31640 -0.43700
C 	C 	0.75680 0.41350 0.21670 -0.08900
C 	C 	0.68940 0.39150 0.22280 0.06700
C 	C 	0.74900 0.31890 0.24570 0.02100
C 	C 	0.82040 0.38810 0.22510 0.07200
C 	C 	0.52600 0.04330 0.30880 0.20200
C 	C 	0.43880 0.04650 0.30750 -0.05500
C 	C 	0.39810 0.04120 0.33490 0.05100
C 	C 	0.32260 0.03750 0.33330 -0.07200
C 	C 	0.28790 0.03920 0.30420 0.01700
C 	C 	0.32860 0.04450 0.27670 -0.01600
C 	C 	0.40410 0.04810 0.27840 0.05900
O 	O 	0.56020 0.05150 0.28090 -0.25000
C 	C 	0.97260 0.04170 0.31600 0.19000
C 	C 	0.05770 0.03550 0.31160 -0.05500
C 	C 	0.10180 0.03140 0.33810 0.05500
C 	C 	0.17720 0.03290 0.33490 -0.08300
C 	C 	0.20840 0.03850 0.30530 0.02300
C 	C 	0.16420 0.04270 0.27880 -0.01400
C 	C 	0.08890 0.04120 0.28190 0.05500
O 	O 	0.95340 0.04930 0.34560 -0.32200
O 	O 	0.93360 0.03860 0.28960 -0.29600
C 	C 	0.74950 0.03000 0.38310 0.28100
C 	C 	0.75150 0.01990 0.41860 -0.08200
C 	C 	0.81390 0.03020 0.43600 0.04600
C 	C 	0.81500 0.02090 0.46830 -0.01400
C 	C 	0.75360 0.00130 0.48310 0.00900
C 	C 	0.69110 0.99110 0.46570 -0.01500
C 	C 	0.69010 0.00040 0.43340 0.04900
Zn	Zn	0.84400 0.04120 0.32649 1.22300
C 	C 	0.24880 0.08900 0.37710 -0.13100
C 	C 	0.19840 0.09530 0.40120 0.01400
C 	C 	0.18430 0.14350 0.41310 -0.00500
C 	C 	0.22100 0.18550 0.40080 0.00900
C 	C 	0.27100 0.17920 0.37670 -0.01700
C 	C 	0.28510 0.13090 0.36480 0.04600
O 	O 	0.68460 0.02060 0.36990 -0.40100
N 	N 	0.17250 0.00430 0.40590 -0.14500
C 	C 	0.15990 0.05330 0.41690 0.03900
C 	C 	0.10800 0.06170 0.44010 -0.01200
C 	C 	0.06790 0.02100 0.45210 0.01700
C 	C 	0.08000 0.97220 0.44110 -0.02200
C 	C 	0.13300 0.96380 0.41800 0.06200
O 	O 	0.81160 0.04640 0.36960 -0.43400
N 	N 	0.27900 0.95280 0.38020 -0.15100
C 	C 	0.33300 0.94940 0.40300 0.05700
C 	C 	0.36800 0.90300 0.40860 -0.01900
C 	C 	0.34800 0.86040 0.39130 0.01700
C 	C 	0.29400 0.86380 0.36850 -0.02400
C 	C 	0.25900 0.91000 0.36300 0.05400
C 	C 	0.32700 0.04200 0.41080 -0.04600
C 	C 	0.36100 0.99640 0.41790 -0.00600
C 	C 	0.41600 0.99500 0.44030 0.00400
C 	C 	0.43700 0.03900 0.45560 0.00300
C 	C 	0.40300 0.08500 0.44860 -0.00600
C 	C 	0.34800 0.08640 0.42620 0.01600
Ir	Ir	0.24830 0.02460 0.37348 0.37200
Zn	Zn	0.65490 0.04096 0.32607 1.23300
C 	C 	0.75840 0.46470 0.19940 0.26900
O 	O 	0.69160 0.09630 0.30150 -0.46500
O 	O 	0.69290 0.48710 0.20300 -0.41900
O 	O 	0.82100 0.47650 0.18440 -0.44800
O 	O 	0.55200 0.03280 0.33720 -0.37100
C 	C 	0.68360 0.24650 0.26750 -0.11700
C 	C 	0.81470 0.24880 0.26840 -0.11400
C 	C 	0.68560 0.34420 0.23730 -0.07900
C 	C 	0.81660 0.34080 0.23960 -0.09900
Ir	Ir	0.60340 0.28900 0.25250 0.35100
Ir	Ir	0.89600 0.29380 0.25380 0.37200
C 	C 	0.97300 0.24040 0.26580 -0.03400
C 	C 	0.00900 0.26360 0.29090 -0.05500
C 	C 	0.06500 0.23800 0.30650 0.00700
C 	C 	0.08500 0.19000 0.29700 0.01300
C 	C 	0.05000 0.16680 0.27180 -0.00000
C 	C 	0.99400 0.19200 0.25620 0.00600
N 	N 	0.93500 0.34300 0.28670 -0.14300
C 	C 	0.99100 0.31570 0.30090 0.02000
C 	C 	0.02700 0.33600 0.32680 -0.02900
C 	C 	0.00800 0.38300 0.33840 0.02400
C 	C 	0.95200 0.41100 0.32410 -0.02400
C 	C 	0.91500 0.39000 0.29820 0.04500
C 	C 	0.10400 0.23900 0.27920 -0.09000
C 	C 	0.05500 0.26050 0.30060 0.04200
C 	C 	0.04200 0.23600 0.32900 -0.01600
C 	C 	0.07600 0.19100 0.33610 0.01400
C 	C 	0.12500 0.17000 0.31500 -0.01600
C 	C 	0.13900 0.19400 0.28620 0.02600
N 	N 	0.02600 0.33300 0.26480 -0.13900
C 	C 	0.01600 0.30780 0.29330 0.04700
C 	C 	0.97100 0.32900 0.31630 0.01700
C 	C 	0.93600 0.37500 0.31080 0.03200
C 	C 	0.94600 0.40000 0.28220 -0.02100
C 	C 	0.99100 0.37900 0.25920 0.07000
C 	C 	0.58000 0.34180 0.29170 -0.06100
C 	C 	0.53400 0.38100 0.28230 0.01900
C 	C 	0.51400 0.41900 0.30350 -0.00900
C 	C 	0.54100 0.41800 0.33410 0.00200
C 	C 	0.58800 0.37900 0.34350 -0.01000
C 	C 	0.60700 0.34100 0.32230 0.01200
N 	N 	0.52700 0.34090 0.23110 -0.14200
C 	C 	0.50400 0.38000 0.24980 0.04600
C 	C 	0.46300 0.41900 0.24050 -0.01900
C 	C 	0.43700 0.41800 0.20960 0.01700
C 	C 	0.45700 0.37900 0.18950 -0.01200
C 	C 	0.50200 0.34000 0.20030 0.05300
N 	N 	0.51900 0.24700 0.27170 -0.14900
C 	C 	0.44900 0.17260 0.25830 -0.03000
C 	C 	0.41000 0.17700 0.28620 0.02400
C 	C 	0.42600 0.21700 0.30690 0.00100
C 	C 	0.48000 0.25200 0.29970 0.04800
C 	C 	0.60000 0.23940 0.21670 -0.08800
C 	C 	0.54600 0.20300 0.22160 0.02100
C 	C 	0.53500 0.16500 0.19940 -0.01000
C 	C 	0.57700 0.16300 0.17220 0.00100
C 	C 	0.63100 0.20000 0.16730 -0.01300
C 	C 	0.64200 0.23800 0.18950 0.01900
N 	N 	0.32260 0.96250 0.66670 -0.14200
N 	N 	0.17720 0.96710 0.66510 -0.14700
C 	C 	0.25240 0.62260 0.30290 0.31200
C 	C 	0.25110 0.67480 0.28730 -0.11500
C 	C 	0.18490 0.69800 0.28040 0.08300
C 	C 	0.24900 0.77200 0.26150 0.04600
C 	C 	0.31600 0.70030 0.28130 0.08300
O 	O 	0.31640 0.60950 0.31640 -0.43700
C 	C 	0.25680 0.91350 0.21670 -0.08900
C 	C 	0.18940 0.89150 0.22280 0.06700
C 	C 	0.24900 0.81890 0.24570 0.02100
C 	C 	0.32040 0.88810 0.22510 0.07200
C 	C 	0.02600 0.54330 0.30880 0.20100
C 	C 	0.93880 0.54650 0.30750 -0.05400
C 	C 	0.89810 0.54120 0.33490 0.05100
C 	C 	0.82260 0.53750 0.33330 -0.07100
C 	C 	0.78790 0.53920 0.30420 0.01700
C 	C 	0.82860 0.54450 0.27670 -0.01600
C 	C 	0.90410 0.54810 0.27840 0.05900
O 	O 	0.06020 0.55150 0.28090 -0.25000
C 	C 	0.47260 0.54170 0.31600 0.18900
C 	C 	0.55770 0.53550 0.31160 -0.05400
C 	C 	0.60180 0.53140 0.33810 0.05500
C 	C 	0.67720 0.53290 0.33490 -0.08300
C 	C 	0.70840 0.53850 0.30530 0.02300
C 	C 	0.66420 0.54270 0.27880 -0.01400
C 	C 	0.58890 0.54120 0.28190 0.05500
O 	O 	0.45340 0.54930 0.34560 -0.32200
O 	O 	0.43360 0.53860 0.28960 -0.29700
C 	C 	0.24950 0.53000 0.38310 0.28100
C 	C 	0.25150 0.51990 0.41860 -0.08200
C 	C 	0.31390 0.53020 0.43600 0.04600
C 	C 	0.31500 0.52090 0.46830 -0.01400
C 	C 	0.25360 0.50130 0.48310 0.00900
C 	C 	0.19110 0.49110 0.46570 -0.01500
C 	C 	0.19010 0.50040 0.43340 0.04800
Zn	Zn	0.34400 0.54120 0.32649 1.22300
C 	C 	0.74880 0.58900 0.37710 -0.13100
C 	C 	0.69840 0.59530 0.40120 0.01400
C 	C 	0.68430 0.64350 0.41310 -0.00500
C 	C 	0.72100 0.68550 0.40080 0.00900
C 	C 	0.77100 0.67920 0.37670 -0.01700
C 	C 	0.78510 0.63090 0.36480 0.04600
O 	O 	0.18460 0.52060 0.36990 -0.40200
N 	N 	0.67250 0.50430 0.40590 -0.14500
C 	C 	0.65990 0.55330 0.41690 0.03900
C 	C 	0.60800 0.56170 0.44010 -0.01100
C 	C 	0.56790 0.52100 0.45210 0.01700
C 	C 	0.58000 0.47220 0.44110 -0.02100
C 	C 	0.63300 0.46380 0.41800 0.06200
O 	O 	0.31160 0.54640 0.36960 -0.43400
N 	N 	0.77900 0.45280 0.38020 -0.15100
C 	C 	0.83300 0.44940 0.40300 0.05700
C 	C 	0.86800 0.40300 0.40860 -0.01900
C 	C 	0.84800 0.36040 0.39130 0.01700
C 	C 	0.79400 0.36380 0.36850 -0.02400
C 	C 	0.75900 0.41000 0.36300 0.05400
C 	C 	0.82700 0.54200 0.41080 -0.04600
C 	C 	0.86100 0.49640 0.41790 -0.00600
C 	C 	0.91600 0.49500 0.44030 0.00400
C 	C 	0.93700 0.53900 0.45560 0.00400
C 	C 	0.90300 0.58500 0.44860 -0.00500
C 	C 	0.84800 0.58640 0.42620 0.01600
Ir	Ir	0.74830 0.52460 0.37348 0.37200
Zn	Zn	0.15490 0.54096 0.32607 1.23300
C 	C 	0.25840 0.96470 0.19940 0.26900
O 	O 	0.19160 0.59630 0.30150 -0.46600
O 	O 	0.19290 0.98710 0.20300 -0.41900
O 	O 	0.32100 0.97650 0.18440 -0.44800
O 	O 	0.05200 0.53280 0.33720 -0.37100
C 	C 	0.18360 0.74650 0.26750 -0.11700
C 	C 	0.31470 0.74880 0.26840 -0.11400
C 	C 	0.18560 0.84420 0.23730 -0.07900
C 	C 	0.31660 0.84080 0.23960 -0.10000
Ir	Ir	0.10340 0.78900 0.25250 0.35100
Ir	Ir	0.39600 0.79380 0.25380 0.37300
C 	C 	0.47300 0.74040 0.26580 -0.04000
C 	C 	0.50900 0.76360 0.29090 -0.05000
C 	C 	0.56500 0.73800 0.30650 0.00400
C 	C 	0.58500 0.69000 0.29700 0.01500
C 	C 	0.55000 0.66680 0.27180 -0.00100
C 	C 	0.49400 0.69200 0.25620 0.01300
N 	N 	0.43500 0.84300 0.28670 -0.14200
C 	C 	0.49100 0.81570 0.30090 0.02300
C 	C 	0.52700 0.83600 0.32680 -0.02800
C 	C 	0.50800 0.88300 0.33840 0.02700
C 	C 	0.45200 0.91100 0.32410 -0.02400
C 	C 	0.41500 0.89000 0.29820 0.05400
C 	C 	0.60400 0.73900 0.27920 -0.09000
C 	C 	0.55500 0.76050 0.30060 0.04200
C 	C 	0.54200 0.73600 0.32900 -0.01400
C 	C 	0.57600 0.69100 0.33610 0.01400
C 	C 	0.62500 0.67000 0.31500 -0.01700
C 	C 	0.63900 0.69400 0.28620 0.02600
N 	N 	0.52600 0.83300 0.26480 -0.13600
C 	C 	0.51600 0.80780 0.29330 0.04300
C 	C 	0.47100 0.82900 0.31630 0.01500
C 	C 	0.43600 0.87500 0.31080 0.02300
C 	C 	0.44600 0.90000 0.28220 -0.02300
C 	C 	0.49100 0.87900 0.25920 0.06100
C 	C 	0.08000 0.84180 0.29170 -0.06200
C 	C 	0.03400 0.88100 0.28230 0.01800
C 	C 	0.01400 0.91900 0.30350 -0.01000
C 	C 	0.04100 0.91800 0.33410 0.00200
C 	C 	0.08800 0.87900 0.34350 -0.01100
C 	C 	0.10700 0.84100 0.32230 0.01100
N 	N 	0.02700 0.84090 0.23110 -0.14300
C 	C 	0.00400 0.88000 0.24980 0.05000
C 	C 	0.96300 0.91900 0.24050 -0.01700
C 	C 	0.93700 0.91800 0.20960 0.01500
C 	C 	0.95700 0.87900 0.18950 -0.01100
C 	C 	0.00200 0.84000 0.20030 0.05100
N 	N 	0.01900 0.74700 0.27170 -0.14900
C 	C 	0.94900 0.67260 0.25830 -0.02800
C 	C 	0.91000 0.67700 0.28620 0.02300
C 	C 	0.92600 0.71700 0.30690 0.00100
C 	C 	0.98000 0.75200 0.29970 0.04900
C 	C 	0.10000 0.73940 0.21670 -0.08800
C 	C 	0.04600 0.70300 0.22160 0.02200
C 	C 	0.03500 0.66500 0.19940 -0.01100
C 	C 	0.07700 0.66300 0.17220 0.00100
C 	C 	0.13100 0.70000 0.16730 -0.01400
C 	C 	0.14200 0.73800 0.18950 0.01900
N 	N 	0.82260 0.46250 0.66670 -0.14200
N 	N 	0.67720 0.46710 0.66510 -0.14700
C 	C 	0.24760 0.87740 0.80290 0.31200
C 	C 	0.24890 0.82520 0.78730 -0.11500
C 	C 	0.31510 0.80200 0.78040 0.08300
C 	C 	0.25100 0.72800 0.76150 0.04600
C 	C 	0.18400 0.79970 0.78130 0.08300
O 	O 	0.18360 0.89050 0.81640 -0.43700
C 	C 	0.24320 0.58650 0.71670 -0.08900
C 	C 	0.31060 0.60850 0.72280 0.06700
C 	C 	0.25100 0.68110 0.74570 0.02100
C 	C 	0.17960 0.61190 0.72510 0.07200
C 	C 	0.47400 0.95670 0.80880 0.20200
C 	C 	0.56120 0.95350 0.80750 -0.05500
C 	C 	0.60190 0.95880 0.83490 0.05100
C 	C 	0.67740 0.96250 0.83330 -0.07200
C 	C 	0.71210 0.96080 0.80420 0.01700
C 	C 	0.67140 0.95550 0.77670 -0.01600
C 	C 	0.59590 0.95190 0.77840 0.05900
O 	O 	0.43980 0.94850 0.78090 -0.25000
C 	C 	0.02740 0.95830 0.81600 0.18700
C 	C 	0.94230 0.96450 0.81160 -0.05200
C 	C 	0.89820 0.96860 0.83810 0.05500
C 	C 	0.82280 0.96710 0.83490 -0.08300
C 	C 	0.79160 0.96150 0.80530 0.02300
C 	C 	0.83580 0.95730 0.77880 -0.01400
C 	C 	0.91110 0.95880 0.78190 0.05500
O 	O 	0.04660 0.95070 0.84560 -0.32200
O 	O 	0.06640 0.96140 0.78960 -0.29700
C 	C 	0.25050 0.97000 0.88310 0.28100
C 	C 	0.24850 0.98010 0.91860 -0.08200
C 	C 	0.18610 0.96980 0.93600 0.04500
C 	C 	0.18500 0.97910 0.96830 -0.01500
C 	C 	0.24640 0.99870 0.98310 0.00900
C 	C 	0.30890 0.00890 0.96570 -0.01400
C 	C 	0.30990 0.99960 0.93340 0.04800
Zn	Zn	0.15600 0.95880 0.82649 1.22300
C 	C 	0.75120 0.91100 0.87710 -0.13100
C 	C 	0.80160 0.90470 0.90120 0.01400
C 	C 	0.81570 0.85650 0.91310 -0.00400
C 	C 	0.77900 0.81450 0.90080 0.00900
C 	C 	0.72900 0.82080 0.87670 -0.01700
C 	C 	0.71490 0.86910 0.86480 0.04600
O 	O 	0.31540 0.97940 0.86990 -0.40100
N 	N 	0.82750 0.99570 0.90590 -0.14500
C 	C 	0.84010 0.94670 0.91690 0.03900
C 	C 	0.89200 0.93830 0.94010 -0.01100
C 	C 	0.93210 0.97900 0.95210 0.01700
C 	C 	0.92000 0.02780 0.94110 -0.02100
C 	C 	0.86700 0.03620 0.91800 0.06200
O 	O 	0.18840 0.95360 0.86960 -0.43400
N 	N 	0.72100 0.04720 0.88020 -0.15100
C 	C 	0.66700 0.05060 0.90300 0.05700
C 	C 	0.63200 0.09700 0.90860 -0.01900
C 	C 	0.65200 0.13960 0.89130 0.01700
C 	C 	0.70600 0.13620 0.86850 -0.02400
C 	C 	0.74100 0.09000 0.86300 0.05400
C 	C 	0.67300 0.95800 0.91080 -0.04600
C 	C 	0.63900 0.00360 0.91790 -0.00600
C 	C 	0.58400 0.00500 0.94030 0.00400
C 	C 	0.56300 0.96100 0.95560 0.00300
C 	C 	0.59700 0.91500 0.94860 -0.00600
C 	C 	0.65200 0.91360 0.92620 0.01600
Ir	Ir	0.75170 0.97540 0.87348 0.37200
Zn	Zn	0.34510 0.95904 0.82607 1.23300
C 	C 	0.24160 0.53530 0.69940 0.26900
O 	O 	0.30840 0.90370 0.80150 -0.46500
O 	O 	0.30710 0.51290 0.70300 -0.41900
O 	O 	0.17900 0.52350 0.68440 -0.44900
O 	O 	0.44800 0.96720 0.83720 -0.37100
C 	C 	0.31640 0.75350 0.76750 -0.11700
C 	C 	0.18530 0.75120 0.76840 -0.11400
C 	C 	0.31440 0.65580 0.73730 -0.08000
C 	C 	0.18340 0.65920 0.73960 -0.10000
Ir	Ir	0.39660 0.71100 0.75250 0.35100
Ir	Ir	0.10400 0.70620 0.75380 0.37300
C 	C 	0.02700 0.75960 0.76580 -0.04500
C 	C 	0.99100 0.73640 0.79090 -0.04400
C 	C 	0.93500 0.76200 0.80650 0.00100
C 	C 	0.91500 0.81000 0.79700 0.01600
C 	C 	0.95000 0.83320 0.77180 -0.00100
C 	C 	0.00600 0.80800 0.75620 0.01900
N 	N 	0.06500 0.65700 0.78670 -0.14200
C 	C 	0.00900 0.68430 0.80090 0.02600
C 	C 	0.97300 0.66400 0.82680 -0.02600
C 	C 	0.99200 0.61700 0.83840 0.02900
C 	C 	0.04800 0.58900 0.82410 -0.02400
C 	C 	0.08500 0.61000 0.79820 0.06300
C 	C 	0.89600 0.76100 0.77920 -0.08900
C 	C 	0.94500 0.73950 0.80060 0.04100
C 	C 	0.95800 0.76400 0.82900 -0.01300
C 	C 	0.92400 0.80900 0.83610 0.01400
C 	C 	0.87500 0.83000 0.81500 -0.01700
C 	C 	0.86100 0.80600 0.78620 0.02500
N 	N 	0.97400 0.66700 0.76480 -0.13400
C 	C 	0.98400 0.69220 0.79330 0.03800
C 	C 	0.02900 0.67100 0.81630 0.01400
C 	C 	0.06400 0.62500 0.81080 0.01500
C 	C 	0.05400 0.60000 0.78220 -0.02500
C 	C 	0.00900 0.62100 0.75920 0.05300
C 	C 	0.42000 0.65820 0.79170 -0.06100
C 	C 	0.46600 0.61900 0.78230 0.01900
C 	C 	0.48600 0.58100 0.80350 -0.00900
C 	C 	0.45900 0.58200 0.83410 0.00200
C 	C 	0.41200 0.62100 0.84350 -0.01000
C 	C 	0.39300 0.65900 0.82230 0.01100
N 	N 	0.47300 0.65910 0.73110 -0.14200
C 	C 	0.49600 0.62000 0.74980 0.04600
C 	C 	0.53700 0.58100 0.74050 -0.01900
C 	C 	0.56300 0.58200 0.70960 0.01700
C 	C 	0.54300 0.62100 0.68950 -0.01200
C 	C 	0.49800 0.66000 0.70030 0.05300
N 	N 	0.48100 0.75300 0.77170 -0.14900
C 	C 	0.55100 0.82740 0.75830 -0.03000
C 	C 	0.59000 0.82300 0.78620 0.02400
C 	C 	0.57400 0.78300 0.80690 0.00100
C 	C 	0.52000 0.74800 0.79970 0.04800
C 	C 	0.40000 0.76060 0.71670 -0.08800
C 	C 	0.45400 0.79700 0.72160 0.02100
C 	C 	0.46500 0.83500 0.69940 -0.01000
C 	C 	0.42300 0.83700 0.67220 0.00100
C 	C 	0.36900 0.80000 0.66730 -0.01300
C 	C 	0.35800 0.76200 0.68950 0.01900
N 	N 	0.67740 0.03750 0.16670 -0.14200
N 	N 	0.82280 0.03290 0.16510 -0.14600
C 	C 	0.74760 0.37740 0.80290 0.31200
C 	C 	0.74890 0.32520 0.78730 -0.11500
C 	C 	0.81510 0.30200 0.78040 0.08300
C 	C 	0.75100 0.22800 0.76150 0.04600
C 	C 	0.68400 0.29970 0.78130 0.08300
O 	O 	0.68360 0.39050 0.81640 -0.43700
C 	C 	0.74320 0.08650 0.71670 -0.08900
C 	C 	0.81060 0.10850 0.72280 0.06700
C 	C 	0.75100 0.18110 0.74570 0.02100
C 	C 	0.67960 0.11190 0.72510 0.07200
C 	C 	0.97400 0.45670 0.80880 0.20400
C 	C 	0.06120 0.45350 0.80750 -0.05600
C 	C 	0.10190 0.45880 0.83490 0.05100
C 	C 	0.17740 0.46250 0.83330 -0.07200
C 	C 	0.21210 0.46080 0.80420 0.01700
C 	C 	0.17140 0.45550 0.77670 -0.01600
C 	C 	0.09590 0.45190 0.77840 0.05900
O 	O 	0.93980 0.44850 0.78090 -0.25000
C 	C 	0.52740 0.45830 0.81600 0.18900
C 	C 	0.44230 0.46450 0.81160 -0.05400
C 	C 	0.39820 0.46860 0.83810 0.05500
C 	C 	0.32280 0.46710 0.83490 -0.08300
C 	C 	0.29160 0.46150 0.80530 0.02300
C 	C 	0.33580 0.45730 0.77880 -0.01400
C 	C 	0.41110 0.45880 0.78190 0.05500
O 	O 	0.54660 0.45070 0.84560 -0.32200
O 	O 	0.56640 0.46140 0.78960 -0.29700
C 	C 	0.75050 0.47000 0.88310 0.28100
C 	C 	0.74850 0.48010 0.91860 -0.08200
C 	C 	0.68610 0.46980 0.93600 0.04600
C 	C 	0.68500 0.47910 0.96830 -0.01400
C 	C 	0.74640 0.49870 0.98310 0.01000
C 	C 	0.80890 0.50890 0.96570 -0.01400
C 	C 	0.80990 0.49960 0.93340 0.04900
Zn	Zn	0.65600 0.45880 0.82649 1.22300
C 	C 	0.25120 0.41100 0.87710 -0.13100
C 	C 	0.30160 0.40470 0.90120 0.01400
C 	C 	0.31570 0.35650 0.91310 -0.00500
C 	C 	0.27900 0.31450 0.90080 0.00900
C 	C 	0.22900 0.32080 0.87670 -0.01700
C 	C 	0.21490 0.36910 0.86480 0.04600
O 	O 	0.81540 0.47940 0.86990 -0.40100
N 	N 	0.32750 0.49570 0.90590 -0.14500
C 	C 	0.34010 0.44670 0.91690 0.03900
C 	C 	0.39200 0.43830 0.94010 -0.01100
C 	C 	0.43210 0.47900 0.95210 0.01700
C 	C 	0.42000 0.52780 0.94110 -0.02100
C 	C 	0.36700 0.53620 0.91800 0.06200
O 	O 	0.68840 0.45360 0.86960 -0.43400
N 	N 	0.22100 0.54720 0.88020 -0.15100
C 	C 	0.16700 0.55060 0.90300 0.05700
C 	C 	0.13200 0.59700 0.90860 -0.01900
C 	C 	0.15200 0.63960 0.89130 0.01700
C 	C 	0.20600 0.63620 0.86850 -0.02400
C 	C 	0.24100 0.59000 0.86300 0.05400
C 	C 	0.17300 0.45800 0.91080 -0.04600
C 	C 	0.13900 0.50360 0.91790 -0.00600
C 	C 	0.08400 0.50500 0.94030 0.00400
C 	C 	0.06300 0.46100 0.95560 0.00300
C 	C 	0.09700 0.41500 0.94860 -0.00600
C 	C 	0.15200 0.41360 0.92620 0.01600
Ir	Ir	0.25170 0.47540 0.87348 0.37200
Zn	Zn	0.84510 0.45904 0.82607 1.23300
C 	C 	0.74160 0.03530 0.69940 0.26900
O 	O 	0.80840 0.40370 0.80150 -0.46500
O 	O 	0.80710 0.01290 0.70300 -0.41900
O 	O 	0.67900 0.02350 0.68440 -0.44800
O 	O 	0.94800 0.46720 0.83720 -0.37100
C 	C 	0.81640 0.25350 0.76750 -0.11700
C 	C 	0.68530 0.25120 0.76840 -0.11400
C 	C 	0.81440 0.15580 0.73730 -0.08000
C 	C 	0.68340 0.15920 0.73960 -0.10000
Ir	Ir	0.89660 0.21100 0.75250 0.35200
Ir	Ir	0.60400 0.20620 0.75380 0.37300
C 	C 	0.52700 0.25960 0.76580 -0.04000
C 	C 	0.49100 0.23640 0.79090 -0.05000
C 	C 	0.43500 0.26200 0.80650 0.00400
C 	C 	0.41500 0.31000 0.79700 0.01500
C 	C 	0.45000 0.33320 0.77180 -0.00100
C 	C 	0.50600 0.30800 0.75620 0.01300
N 	N 	0.56500 0.15700 0.78670 -0.14200
C 	C 	0.50900 0.18430 0.80090 0.02300
C 	C 	0.47300 0.16400 0.82680 -0.02800
C 	C 	0.49200 0.11700 0.83840 0.02700
C 	C 	0.54800 0.08900 0.82410 -0.02400
C 	C 	0.58500 0.11000 0.79820 0.05400
C 	C 	0.39600 0.26100 0.77920 -0.09000
C 	C 	0.44500 0.23950 0.80060 0.04100
C 	C 	0.45800 0.26400 0.82900 -0.01400
C 	C 	0.42400 0.30900 0.83610 0.01400
C 	C 	0.37500 0.33000 0.81500 -0.01600
C 	C 	0.36100 0.30600 0.78620 0.02600
N 	N 	0.47400 0.16700 0.76480 -0.13600
C 	C 	0.48400 0.19220 0.79330 0.04200
C 	C 	0.52900 0.17100 0.81630 0.01600
C 	C 	0.56400 0.12500 0.81080 0.02300
C 	C 	0.55400 0.10000 0.78220 -0.02300
C 	C 	0.50900 0.12100 0.75920 0.06100
C 	C 	0.92000 0.15820 0.79170 -0.06100
C 	C 	0.96600 0.11900 0.78230 0.02000
C 	C 	0.98600 0.08100 0.80350 -0.00800
C 	C 	0.95900 0.08200 0.83410 0.00200
C 	C 	0.91200 0.12100 0.84350 -0.01000
C 	C 	0.89300 0.15900 0.82230 0.01200
N 	N 	0.97300 0.15910 0.73110 -0.14200
C 	C 	0.99600 0.12000 0.74980 0.04200
C 	C 	0.03700 0.08100 0.74050 -0.02100
C 	C 	0.06300 0.08200 0.70960 0.01900
C 	C 	0.04300 0.12100 0.68950 -0.01300
C 	C 	0.99800 0.16000 0.70030 0.05500
N 	N 	0.98100 0.25300 0.77170 -0.14700
C 	C 	0.05100 0.32740 0.75830 -0.03000
C 	C 	0.09000 0.32300 0.78620 0.02400
C 	C 	0.07400 0.28300 0.80690 0.00200
C 	C 	0.02000 0.24800 0.79970 0.04700
C 	C 	0.90000 0.26060 0.71670 -0.08800
C 	C 	0.95400 0.29700 0.72160 0.02300
C 	C 	0.96500 0.33500 0.69940 -0.01000
C 	C 	0.92300 0.33700 0.67220 0.00100
C 	C 	0.86900 0.30000 0.66730 -0.01300
C 	C 	0.85800 0.26200 0.68950 0.02000
N 	N 	0.17740 0.53750 0.16670 -0.14200
N 	N 	0.32280 0.53290 0.16510 -0.14700
C 	C 	0.24760 0.12260 0.19710 0.31200
C 	C 	0.24890 0.17480 0.21270 -0.11500
C 	C 	0.31510 0.19800 0.21960 0.08300
C 	C 	0.25100 0.27200 0.23850 0.04600
C 	C 	0.18400 0.20030 0.21870 0.08300
O 	O 	0.18360 0.10950 0.18360 -0.43700
C 	C 	0.24320 0.41350 0.28330 -0.08900
C 	C 	0.31060 0.39150 0.27720 0.06700
C 	C 	0.25100 0.31890 0.25430 0.02100
C 	C 	0.17960 0.38810 0.27490 0.07200
C 	C 	0.47400 0.04330 0.19120 0.20600
C 	C 	0.56120 0.04650 0.19250 -0.06800
C 	C 	0.60190 0.04120 0.16510 0.08600
C 	C 	0.71210 0.03920 0.19580 0.04900
C 	C 	0.67140 0.04450 0.22330 -0.02700
C 	C 	0.59590 0.04810 0.22160 0.06900
O 	O 	0.43980 0.05150 0.21910 -0.25100
C 	C 	0.02740 0.04170 0.18400 0.19000
C 	C 	0.94230 0.03550 0.18840 -0.06400
C 	C 	0.89820 0.03140 0.16190 0.08700
C 	C 	0.79160 0.03850 0.19470 0.05000
C 	C 	0.83580 0.04270 0.22120 -0.02300
C 	C 	0.91110 0.04120 0.21810 0.06400
O 	O 	0.04660 0.04930 0.15440 -0.32400
O 	O 	0.06640 0.03860 0.21040 -0.29800
C 	C 	0.25050 0.03000 0.11690 0.28100
C 	C 	0.24850 0.01990 0.08140 -0.08200
C 	C 	0.18610 0.03020 0.06400 0.04500
C 	C 	0.18500 0.02090 0.03170 -0.01500
C 	C 	0.24640 0.00130 0.01690 0.00900
C 	C 	0.30890 0.99110 0.03430 -0.01400
C 	C 	0.30990 0.00040 0.06660 0.04800
Zn	Zn	0.15600 0.04120 0.17351 1.22300
C 	C 	0.75120 0.08900 0.12290 -0.13000
C 	C 	0.80160 0.09530 0.09880 0.01400
C 	C 	0.81570 0.14350 0.08690 -0.00500
C 	C 	0.77900 0.18550 0.09920 0.01000
C 	C 	0.72900 0.17920 0.12330 -0.01900
C 	C 	0.71490 0.13090 0.13520 0.05200
O 	O 	0.31540 0.02060 0.13010 -0.40100
N 	N 	0.82750 0.00430 0.09410 -0.14600
C 	C 	0.84010 0.05330 0.08310 0.03900
C 	C 	0.89200 0.06170 0.05990 -0.01100
C 	C 	0.93210 0.02100 0.04790 0.01700
C 	C 	0.92000 0.97220 0.05890 -0.02100
C 	C 	0.86700 0.96380 0.08200 0.06200
O 	O 	0.18840 0.04640 0.13040 -0.43400
N 	N 	0.72100 0.95280 0.11980 -0.15200
C 	C 	0.66700 0.94940 0.09700 0.05700
C 	C 	0.63200 0.90300 0.09140 -0.01900
C 	C 	0.65200 0.86040 0.10870 0.01700
C 	C 	0.70600 0.86380 0.13150 -0.02400
C 	C 	0.74100 0.91000 0.13700 0.05600
C 	C 	0.67300 0.04200 0.08920 -0.04800
C 	C 	0.63900 0.99640 0.08210 -0.00600
C 	C 	0.58400 0.99500 0.05970 0.00400
C 	C 	0.56300 0.03900 0.04440 0.00300
C 	C 	0.59700 0.08500 0.05140 -0.00600
C 	C 	0.65200 0.08640 0.07380 0.01700
Ir	Ir	0.75170 0.02460 0.12652 0.40100
Zn	Zn	0.34510 0.04096 0.17393 1.23300
C 	C 	0.24160 0.46470 0.30060 0.26900
O 	O 	0.30840 0.09630 0.19850 -0.46600
O 	O 	0.30710 0.48710 0.29700 -0.41900
O 	O 	0.17900 0.47650 0.31560 -0.44800
O 	O 	0.44800 0.03280 0.16280 -0.37300
C 	C 	0.31640 0.24650 0.23250 -0.11700
C 	C 	0.18530 0.24880 0.23160 -0.11400
C 	C 	0.31440 0.34420 0.26270 -0.07900
C 	C 	0.18340 0.34080 0.26040 -0.10000
Ir	Ir	0.39660 0.28900 0.24750 0.35100
Ir	Ir	0.10400 0.29380 0.24620 0.37300
C 	C 	0.02700 0.24040 0.23420 -0.04500
C 	C 	0.99100 0.26360 0.20910 -0.04500
C 	C 	0.93500 0.23800 0.19350 0.00000
C 	C 	0.91500 0.19000 0.20300 0.01500
C 	C 	0.95000 0.16680 0.22820 -0.00100
C 	C 	0.00600 0.19200 0.24380 0.02000
N 	N 	0.06500 0.34300 0.21330 -0.14200
C 	C 	0.00900 0.31570 0.19910 0.02600
C 	C 	0.97300 0.33600 0.17320 -0.02600
C 	C 	0.99200 0.38300 0.16160 0.02800
C 	C 	0.04800 0.41100 0.17590 -0.02400
C 	C 	0.08500 0.39000 0.20180 0.06300
C 	C 	0.89600 0.23900 0.22080 -0.08900
C 	C 	0.94500 0.26050 0.19940 0.04200
C 	C 	0.95800 0.23600 0.17100 -0.01200
C 	C 	0.92400 0.19100 0.16390 0.01400
C 	C 	0.87500 0.17000 0.18500 -0.01500
C 	C 	0.86100 0.19400 0.21380 0.02500
N 	N 	0.97400 0.33300 0.23520 -0.13400
C 	C 	0.98400 0.30780 0.20670 0.03800
C 	C 	0.02900 0.32900 0.18370 0.01400
C 	C 	0.06400 0.37500 0.18920 0.01500
C 	C 	0.05400 0.40000 0.21780 -0.02400
C 	C 	0.00900 0.37900 0.24080 0.05000
C 	C 	0.42000 0.34180 0.20830 -0.06100
C 	C 	0.46600 0.38100 0.21770 0.01900
C 	C 	0.48600 0.41900 0.19650 -0.00900
C 	C 	0.45900 0.41800 0.16590 0.00200
C 	C 	0.41200 0.37900 0.15650 -0.01000
C 	C 	0.39300 0.34100 0.17770 0.01100
N 	N 	0.47300 0.34090 0.26890 -0.14200
C 	C 	0.49600 0.38000 0.25020 0.04600
C 	C 	0.53700 0.41900 0.25950 -0.01900
C 	C 	0.56300 0.41800 0.29040 0.01600
C 	C 	0.54300 0.37900 0.31050 -0.01200
C 	C 	0.49800 0.34000 0.29970 0.05300
N 	N 	0.48100 0.24700 0.22830 -0.14900
C 	C 	0.55100 0.17260 0.24170 -0.03000
C 	C 	0.59000 0.17700 0.21380 0.02500
C 	C 	0.57400 0.21700 0.19310 0.00100
C 	C 	0.52000 0.25200 0.20030 0.04800
C 	C 	0.40000 0.23940 0.28330 -0.08800
C 	C 	0.45400 0.20300 0.27840 0.02100
C 	C 	0.46500 0.16500 0.30060 -0.01000
C 	C 	0.42300 0.16300 0.32780 0.00000
C 	C 	0.36900 0.20000 0.33270 -0.01300
C 	C 	0.35800 0.23800 0.31050 0.01900
C 	C 	0.74760 0.62260 0.19710 0.31200
C 	C 	0.74890 0.67480 0.21270 -0.11500
C 	C 	0.81510 0.69800 0.21960 0.08300
C 	C 	0.75100 0.77200 0.23850 0.04600
C 	C 	0.68400 0.70030 0.21870 0.08300
O 	O 	0.68360 0.60950 0.18360 -0.43700
C 	C 	0.74320 0.91350 0.28330 -0.08900
C 	C 	0.81060 0.89150 0.27720 0.06700
C 	C 	0.75100 0.81890 0.25430 0.02100
C 	C 	0.67960 0.88810 0.27490 0.07200
C 	C 	0.97400 0.54330 0.19120 0.20700
C 	C 	0.06120 0.54650 0.19250 -0.06900
C 	C 	0.10190 0.54120 0.16510 0.08600
C 	C 	0.21210 0.53920 0.19580 0.04900
C 	C 	0.17140 0.54450 0.22330 -0.02700
C 	C 	0.09590 0.54810 0.22160 0.06900
O 	O 	0.93980 0.55150 0.21910 -0.25000
C 	C 	0.52740 0.54170 0.18400 0.19200
C 	C 	0.44230 0.53550 0.18840 -0.06500
C 	C 	0.39820 0.53140 0.16190 0.08700
C 	C 	0.29160 0.53850 0.19470 0.05000
C 	C 	0.33580 0.54270 0.22120 -0.02300
C 	C 	0.41110 0.54120 0.21810 0.06400
O 	O 	0.54660 0.54930 0.15440 -0.32300
O 	O 	0.56640 0.53860 0.21040 -0.29700
C 	C 	0.75050 0.53000 0.11690 0.28100
C 	C 	0.74850 0.51990 0.08140 -0.08200
C 	C 	0.68610 0.53020 0.06400 0.04600
C 	C 	0.68500 0.52090 0.03170 -0.01400
C 	C 	0.74640 0.50130 0.01690 0.01000
C 	C 	0.80890 0.49110 0.03430 -0.01400
C 	C 	0.80990 0.50040 0.06660 0.04900
Zn	Zn	0.65600 0.54120 0.17351 1.22300
C 	C 	0.25120 0.58900 0.12290 -0.13000
C 	C 	0.30160 0.59530 0.09880 0.01400
C 	C 	0.31570 0.64350 0.08690 -0.00500
C 	C 	0.27900 0.68550 0.09920 0.01000
C 	C 	0.22900 0.67920 0.12330 -0.01900
C 	C 	0.21490 0.63090 0.13520 0.05200
O 	O 	0.81540 0.52060 0.13010 -0.40100
N 	N 	0.32750 0.50430 0.09410 -0.14600
C 	C 	0.34010 0.55330 0.08310 0.03800
C 	C 	0.39200 0.56170 0.05990 -0.01100
C 	C 	0.43210 0.52100 0.04790 0.01700
C 	C 	0.42000 0.47220 0.05890 -0.02200
C 	C 	0.36700 0.46380 0.08200 0.06200
O 	O 	0.68840 0.54640 0.13040 -0.43400
N 	N 	0.22100 0.45280 0.11980 -0.15200
C 	C 	0.16700 0.44940 0.09700 0.05700
C 	C 	0.13200 0.40300 0.09140 -0.01900
C 	C 	0.15200 0.36040 0.10870 0.01700
C 	C 	0.20600 0.36380 0.13150 -0.02500
C 	C 	0.24100 0.41000 0.13700 0.05600
C 	C 	0.17300 0.54200 0.08920 -0.04800
C 	C 	0.13900 0.49640 0.08210 -0.00600
C 	C 	0.08400 0.49500 0.05970 0.00300
C 	C 	0.06300 0.53900 0.04440 0.00300
C 	C 	0.09700 0.58500 0.05140 -0.00600
C 	C 	0.15200 0.58640 0.07380 0.01700
Ir	Ir	0.25170 0.52460 0.12652 0.40100
Zn	Zn	0.84510 0.54096 0.17393 1.23300
C 	C 	0.74160 0.96470 0.30060 0.26900
O 	O 	0.80840 0.59630 0.19850 -0.46500
O 	O 	0.80710 0.98710 0.29700 -0.41900
O 	O 	0.67900 0.97650 0.31560 -0.44800
O 	O 	0.94800 0.53280 0.16280 -0.37200
C 	C 	0.81640 0.74650 0.23250 -0.11700
C 	C 	0.68530 0.74880 0.23160 -0.11400
C 	C 	0.81440 0.84420 0.26270 -0.08000
C 	C 	0.68340 0.84080 0.26040 -0.10000
Ir	Ir	0.89660 0.78900 0.24750 0.35200
Ir	Ir	0.60400 0.79380 0.24620 0.37300
C 	C 	0.52700 0.74040 0.23420 -0.04000
C 	C 	0.49100 0.76360 0.20910 -0.05000
C 	C 	0.43500 0.73800 0.19350 0.00300
C 	C 	0.41500 0.69000 0.20300 0.01400
C 	C 	0.45000 0.66680 0.22820 -0.00100
C 	C 	0.50600 0.69200 0.24380 0.01300
N 	N 	0.56500 0.84300 0.21330 -0.14200
C 	C 	0.50900 0.81570 0.19910 0.02300
C 	C 	0.47300 0.83600 0.17320 -0.02800
C 	C 	0.49200 0.88300 0.16160 0.02600
C 	C 	0.54800 0.91100 0.17590 -0.02400
C 	C 	0.58500 0.89000 0.20180 0.05400
C 	C 	0.39600 0.73900 0.22080 -0.09000
C 	C 	0.44500 0.76050 0.19940 0.04200
C 	C 	0.45800 0.73600 0.17100 -0.01400
C 	C 	0.42400 0.69100 0.16390 0.01400
C 	C 	0.37500 0.67000 0.18500 -0.01500
C 	C 	0.36100 0.69400 0.21380 0.02600
N 	N 	0.47400 0.83300 0.23520 -0.13600
C 	C 	0.48400 0.80780 0.20670 0.04200
C 	C 	0.52900 0.82900 0.18370 0.01600
C 	C 	0.56400 0.87500 0.18920 0.02300
C 	C 	0.55400 0.90000 0.21780 -0.02200
C 	C 	0.50900 0.87900 0.24080 0.05800
C 	C 	0.92000 0.84180 0.20830 -0.06100
C 	C 	0.96600 0.88100 0.21770 0.02000
C 	C 	0.98600 0.91900 0.19650 -0.00800
C 	C 	0.95900 0.91800 0.16590 0.00200
C 	C 	0.91200 0.87900 0.15650 -0.01000
C 	C 	0.89300 0.84100 0.17770 0.01200
N 	N 	0.97300 0.84090 0.26890 -0.14200
C 	C 	0.99600 0.88000 0.25020 0.04200
C 	C 	0.03700 0.91900 0.25950 -0.02100
C 	C 	0.06300 0.91800 0.29040 0.01800
C 	C 	0.04300 0.87900 0.31050 -0.01300
C 	C 	0.99800 0.84000 0.29970 0.05500
N 	N 	0.98100 0.74700 0.22830 -0.14700
C 	C 	0.05100 0.67260 0.24170 -0.03000
C 	C 	0.09000 0.67700 0.21380 0.02400
C 	C 	0.07400 0.71700 0.19310 0.00100
C 	C 	0.02000 0.75200 0.20030 0.04700
C 	C 	0.90000 0.73940 0.28330 -0.08800
C 	C 	0.95400 0.70300 0.27840 0.02300
C 	C 	0.96500 0.66500 0.30060 -0.01000
C 	C 	0.92300 0.66300 0.32780 0.00100
C 	C 	0.86900 0.70000 0.33270 -0.01300
C 	C 	0.85800 0.73800 0.31050 0.02000
C 	C 	0.75240 0.87740 0.69710 0.31200
C 	C 	0.75110 0.82520 0.71270 -0.11500
C 	C 	0.68490 0.80200 0.71960 0.08300
C 	C 	0.74900 0.72800 0.73850 0.04600
C 	C 	0.81600 0.79970 0.71870 0.08300
O 	O 	0.81640 0.89050 0.68360 -0.43700
C 	C 	0.75680 0.58650 0.78330 -0.08900
C 	C 	0.68940 0.60850 0.77720 0.06700
C 	C 	0.74900 0.68110 0.75430 0.02100
C 	C 	0.82040 0.61190 0.77490 0.07200
C 	C 	0.52600 0.95670 0.69120 0.20600
C 	C 	0.43880 0.95350 0.69250 -0.06800
C 	C 	0.39810 0.95880 0.66510 0.08600
C 	C 	0.28790 0.96080 0.69580 0.04900
C 	C 	0.32860 0.95550 0.72330 -0.02700
C 	C 	0.40410 0.95190 0.72160 0.06900
O 	O 	0.56020 0.94850 0.71910 -0.25100
C 	C 	0.97260 0.95830 0.68400 0.19300
C 	C 	0.05770 0.96450 0.68840 -0.06600
C 	C 	0.10180 0.96860 0.66190 0.08700
C 	C 	0.20840 0.96150 0.69470 0.05000
C 	C 	0.16420 0.95730 0.72120 -0.02300
C 	C 	0.08890 0.95880 0.71810 0.06400
O 	O 	0.95340 0.95070 0.65440 -0.32300
O 	O 	0.93360 0.96140 0.71040 -0.29700
C 	C 	0.74950 0.97000 0.61690 0.28100
C 	C 	0.75150 0.98010 0.58140 -0.08200
C 	C 	0.81390 0.96980 0.56400 0.04600
C 	C 	0.81500 0.97910 0.53170 -0.01400
C 	C 	0.75360 0.99870 0.51690 0.00900
C 	C 	0.69110 0.00890 0.53430 -0.01500
C 	C 	0.69010 0.99960 0.56660 0.04900
Zn	Zn	0.84400 0.95880 0.67351 1.22300
C 	C 	0.24880 0.91100 0.62290 -0.13000
C 	C 	0.19840 0.90470 0.59880 0.01400
C 	C 	0.18430 0.85650 0.58690 -0.00500
C 	C 	0.22100 0.81450 0.59920 0.01000
C 	C 	0.27100 0.82080 0.62330 -0.01900
C 	C 	0.28510 0.86910 0.63520 0.05200
O 	O 	0.68460 0.97940 0.63010 -0.40100
N 	N 	0.17250 0.99570 0.59410 -0.14600
C 	C 	0.15990 0.94670 0.58310 0.03800
C 	C 	0.10800 0.93830 0.55990 -0.01200
C 	C 	0.06790 0.97900 0.54790 0.01700
C 	C 	0.08000 0.02780 0.55890 -0.02200
C 	C 	0.13300 0.03620 0.58200 0.06200
O 	O 	0.81160 0.95360 0.63040 -0.43400
N 	N 	0.27900 0.04720 0.61980 -0.15200
C 	C 	0.33300 0.05060 0.59700 0.05700
C 	C 	0.36800 0.09700 0.59140 -0.01900
C 	C 	0.34800 0.13960 0.60870 0.01700
C 	C 	0.29400 0.13620 0.63150 -0.02500
C 	C 	0.25900 0.09000 0.63700 0.05600
C 	C 	0.32700 0.95800 0.58920 -0.04800
C 	C 	0.36100 0.00360 0.58210 -0.00600
C 	C 	0.41600 0.00500 0.55970 0.00400
C 	C 	0.43700 0.96100 0.54440 0.00400
C 	C 	0.40300 0.91500 0.55140 -0.00600
C 	C 	0.34800 0.91360 0.57380 0.01700
Ir	Ir	0.24830 0.97540 0.62652 0.40100
Zn	Zn	0.65490 0.95904 0.67393 1.23300
C 	C 	0.75840 0.53530 0.80060 0.26900
O 	O 	0.69160 0.90370 0.69850 -0.46600
O 	O 	0.69290 0.51290 0.79700 -0.41900
O 	O 	0.82100 0.52350 0.81560 -0.44800
O 	O 	0.55200 0.96720 0.66280 -0.37300
C 	C 	0.68360 0.75350 0.73250 -0.11700
C 	C 	0.81470 0.75120 0.73160 -0.11400
C 	C 	0.68560 0.65580 0.76270 -0.07900
C 	C 	0.81660 0.65920 0.76040 -0.09900
Ir	Ir	0.60340 0.71100 0.74750 0.35100
Ir	Ir	0.89600 0.70620 0.74620 0.37200
C 	C 	0.97300 0.75960 0.73420 -0.03400
C 	C 	0.00900 0.73640 0.70910 -0.05500
C 	C 	0.06500 0.76200 0.69350 0.00600
C 	C 	0.08500 0.81000 0.70300 0.01200
C 	C 	0.05000 0.83320 0.72820 -0.00000
C 	C 	0.99400 0.80800 0.74380 0.00600
N 	N 	0.93500 0.65700 0.71330 -0.14200
C 	C 	0.99100 0.68430 0.69910 0.02000
C 	C 	0.02700 0.66400 0.67320 -0.02900
C 	C 	0.00800 0.61700 0.66160 0.02400
C 	C 	0.95200 0.58900 0.67590 -0.02400
C 	C 	0.91500 0.61000 0.70180 0.04500
C 	C 	0.10400 0.76100 0.72080 -0.09000
C 	C 	0.05500 0.73950 0.69940 0.04200
C 	C 	0.04200 0.76400 0.67100 -0.01600
C 	C 	0.07600 0.80900 0.66390 0.01400
C 	C 	0.12500 0.83000 0.68500 -0.01500
C 	C 	0.13900 0.80600 0.71380 0.02600
N 	N 	0.02600 0.66700 0.73520 -0.13800
C 	C 	0.01600 0.69220 0.70670 0.04700
C 	C 	0.97100 0.67100 0.68370 0.01700
C 	C 	0.93600 0.62500 0.68920 0.03100
C 	C 	0.94600 0.60000 0.71780 -0.02000
C 	C 	0.99100 0.62100 0.74080 0.06700
C 	C 	0.58000 0.65820 0.70830 -0.06100
C 	C 	0.53400 0.61900 0.71770 0.01900
C 	C 	0.51400 0.58100 0.69650 -0.00900
C 	C 	0.54100 0.58200 0.66590 0.00200
C 	C 	0.58800 0.62100 0.65650 -0.01000
C 	C 	0.60700 0.65900 0.67770 0.01200
N 	N 	0.52700 0.65910 0.76890 -0.14200
C 	C 	0.50400 0.62000 0.75020 0.04600
C 	C 	0.46300 0.58100 0.75950 -0.01900
C 	C 	0.43700 0.58200 0.79040 0.01600
C 	C 	0.45700 0.62100 0.81050 -0.01200
C 	C 	0.50200 0.66000 0.79970 0.05300
N 	N 	0.51900 0.75300 0.72830 -0.14900
C 	C 	0.44900 0.82740 0.74170 -0.03000
C 	C 	0.41000 0.82300 0.71380 0.02500
C 	C 	0.42600 0.78300 0.69310 0.00100
C 	C 	0.48000 0.74800 0.70030 0.04800
C 	C 	0.60000 0.76060 0.78330 -0.08800
C 	C 	0.54600 0.79700 0.77840 0.02100
C 	C 	0.53500 0.83500 0.80060 -0.01000
C 	C 	0.57700 0.83700 0.82780 0.00000
C 	C 	0.63100 0.80000 0.83270 -0.01300
C 	C 	0.64200 0.76200 0.81050 0.01900
C 	C 	0.25240 0.37740 0.69710 0.31200
C 	C 	0.25110 0.32520 0.71270 -0.11500
C 	C 	0.18490 0.30200 0.71960 0.08300
C 	C 	0.24900 0.22800 0.73850 0.04600
C 	C 	0.31600 0.29970 0.71870 0.08300
O 	O 	0.31640 0.39050 0.68360 -0.43700
C 	C 	0.25680 0.08650 0.78330 -0.08900
C 	C 	0.18940 0.10850 0.77720 0.06700
C 	C 	0.24900 0.18110 0.75430 0.02100
C 	C 	0.32040 0.11190 0.77490 0.07200
C 	C 	0.02600 0.45670 0.69120 0.20400
C 	C 	0.93880 0.45350 0.69250 -0.06700
C 	C 	0.89810 0.45880 0.66510 0.08600
C 	C 	0.78790 0.46080 0.69580 0.04900
C 	C 	0.82860 0.45550 0.72330 -0.02600
C 	C 	0.90410 0.45190 0.72160 0.06900
O 	O 	0.06020 0.44850 0.71910 -0.25100
C 	C 	0.47260 0.45830 0.68400 0.19200
C 	C 	0.55770 0.46450 0.68840 -0.06500
C 	C 	0.60180 0.46860 0.66190 0.08700
C 	C 	0.70840 0.46150 0.69470 0.05000
C 	C 	0.66420 0.45730 0.72120 -0.02300
C 	C 	0.58890 0.45880 0.71810 0.06400
O 	O 	0.45340 0.45070 0.65440 -0.32300
O 	O 	0.43360 0.46140 0.71040 -0.29700
C 	C 	0.24950 0.47000 0.61690 0.28100
C 	C 	0.25150 0.48010 0.58140 -0.08200
C 	C 	0.31390 0.46980 0.56400 0.04600
C 	C 	0.31500 0.47910 0.53170 -0.01400
C 	C 	0.25360 0.49870 0.51690 0.00900
C 	C 	0.19110 0.50890 0.53430 -0.01500
C 	C 	0.19010 0.49960 0.56660 0.04800
Zn	Zn	0.34400 0.45880 0.67351 1.22300
C 	C 	0.74880 0.41100 0.62290 -0.13000
C 	C 	0.69840 0.40470 0.59880 0.01400
C 	C 	0.68430 0.35650 0.58690 -0.00500
C 	C 	0.72100 0.31450 0.59920 0.01000
C 	C 	0.77100 0.32080 0.62330 -0.01900
C 	C 	0.78510 0.36910 0.63520 0.05200
O 	O 	0.18460 0.47940 0.63010 -0.40200
N 	N 	0.67250 0.49570 0.59410 -0.14600
C 	C 	0.65990 0.44670 0.58310 0.03800
C 	C 	0.60800 0.43830 0.55990 -0.01100
C 	C 	0.56790 0.47900 0.54790 0.01700
C 	C 	0.58000 0.52780 0.55890 -0.02200
C 	C 	0.63300 0.53620 0.58200 0.06200
O 	O 	0.31160 0.45360 0.63040 -0.43400
N 	N 	0.77900 0.54720 0.61980 -0.15200
C 	C 	0.83300 0.55060 0.59700 0.05700
C 	C 	0.86800 0.59700 0.59140 -0.01900
C 	C 	0.84800 0.63960 0.60870 0.01700
C 	C 	0.79400 0.63620 0.63150 -0.02400
C 	C 	0.75900 0.59000 0.63700 0.05600
C 	C 	0.82700 0.45800 0.58920 -0.04800
C 	C 	0.86100 0.50360 0.58210 -0.00600
C 	C 	0.91600 0.50500 0.55970 0.00400
C 	C 	0.93700 0.46100 0.54440 0.00400
C 	C 	0.90300 0.41500 0.55140 -0.00600
C 	C 	0.84800 0.41360 0.57380 0.01700
Ir	Ir	0.74830 0.47540 0.62652 0.40100
Zn	Zn	0.15490 0.45904 0.67393 1.23300
C 	C 	0.25840 0.03530 0.80060 0.26900
O 	O 	0.19160 0.40370 0.69850 -0.46600
O 	O 	0.19290 0.01290 0.79700 -0.41900
O 	O 	0.32100 0.02350 0.81560 -0.44800
O 	O 	0.05200 0.46720 0.66280 -0.37300
C 	C 	0.18360 0.25350 0.73250 -0.11700
C 	C 	0.31470 0.25120 0.73160 -0.11400
C 	C 	0.18560 0.15580 0.76270 -0.07900
C 	C 	0.31660 0.15920 0.76040 -0.10000
Ir	Ir	0.10340 0.21100 0.74750 0.35100
Ir	Ir	0.39600 0.20620 0.74620 0.37300
C 	C 	0.47300 0.25960 0.73420 -0.04000
C 	C 	0.50900 0.23640 0.70910 -0.05000
C 	C 	0.56500 0.26200 0.69350 0.00300
C 	C 	0.58500 0.31000 0.70300 0.01400
C 	C 	0.55000 0.33320 0.72820 -0.00100
C 	C 	0.49400 0.30800 0.74380 0.01300
N 	N 	0.43500 0.15700 0.71330 -0.14200
C 	C 	0.49100 0.18430 0.69910 0.02300
C 	C 	0.52700 0.16400 0.67320 -0.02800
C 	C 	0.50800 0.11700 0.66160 0.02600
C 	C 	0.45200 0.08900 0.67590 -0.02400
C 	C 	0.41500 0.11000 0.70180 0.05400
C 	C 	0.60400 0.26100 0.72080 -0.09000
C 	C 	0.55500 0.23950 0.69940 0.04200
C 	C 	0.54200 0.26400 0.67100 -0.01400
C 	C 	0.57600 0.30900 0.66390 0.01400
C 	C 	0.62500 0.33000 0.68500 -0.01500
C 	C 	0.63900 0.30600 0.71380 0.02600
N 	N 	0.52600 0.16700 0.73520 -0.13600
C 	C 	0.51600 0.19220 0.70670 0.04200
C 	C 	0.47100 0.17100 0.68370 0.01600
C 	C 	0.43600 0.12500 0.68920 0.02300
C 	C 	0.44600 0.10000 0.71780 -0.02200
C 	C 	0.49100 0.12100 0.74080 0.05900
C 	C 	0.08000 0.15820 0.70830 -0.06200
C 	C 	0.03400 0.11900 0.71770 0.01800
C 	C 	0.01400 0.08100 0.69650 -0.01100
C 	C 	0.04100 0.08200 0.66590 0.00200
C 	C 	0.08800 0.12100 0.65650 -0.01000
C 	C 	0.10700 0.15900 0.67770 0.01100
N 	N 	0.02700 0.15910 0.76890 -0.14300
C 	C 	0.00400 0.12000 0.75020 0.05000
C 	C 	0.96300 0.08100 0.75950 -0.01700
C 	C 	0.93700 0.08200 0.79040 0.01400
C 	C 	0.95700 0.12100 0.81050 -0.01100
C 	C 	0.00200 0.16000 0.79970 0.05100
N 	N 	0.01900 0.25300 0.72830 -0.14900
C 	C 	0.94900 0.32740 0.74170 -0.02800
C 	C 	0.91000 0.32300 0.71380 0.02300
C 	C 	0.92600 0.28300 0.69310 0.00100
C 	C 	0.98000 0.24800 0.70030 0.04900
C 	C 	0.10000 0.26060 0.78330 -0.08800
C 	C 	0.04600 0.29700 0.77840 0.02200
C 	C 	0.03500 0.33500 0.80060 -0.01100
C 	C 	0.07700 0.33700 0.82780 0.00000
C 	C 	0.13100 0.30000 0.83270 -0.01400
C 	C 	0.14200 0.26200 0.81050 0.01900
C 	C 	0.50000 0.20740 0.25000 0.10600
C 	C 	0.00000 0.70740 0.25000 0.10200
C 	C 	0.50000 0.79260 0.75000 0.10600
C 	C 	0.00000 0.29260 0.75000 0.10200
