data_crystal

_cell_length_a 34.02390
_cell_length_b 34.02390
_cell_length_c 34.02390
_cell_angle_alpha 90.00000
_cell_angle_beta  90.00000
_cell_angle_gamma 90.00000

_symmetry_space_group_name_	'P 1'
_symmetry_space_group_name_H-M	'P 1'

loop_
_symmetry_equiv_pos_as_xyz
  x,y,z

loop_
_atom_site_label
_atom_site_type_symbol
_atom_site_fract_x
_atom_site_fract_y
_atom_site_fract_z
_atom_site_charge
C 	C 	0.28290 0.76400 0.41880 0.07100
N 	N 	0.28300 0.76420 0.46020 -0.12300
N 	N 	0.30030 0.85790 0.54240 -0.08100
C 	C 	0.28290 0.26400 0.91880 0.07100
N 	N 	0.28300 0.26420 0.96020 -0.12100
N 	N 	0.30030 0.35790 0.04240 -0.08400
C 	C 	0.78290 0.76400 0.91880 0.07200
N 	N 	0.78300 0.76420 0.96020 -0.12100
N 	N 	0.80030 0.85790 0.04240 -0.08200
C 	C 	0.78290 0.26400 0.41880 0.07100
N 	N 	0.78300 0.26420 0.46020 -0.12400
N 	N 	0.80030 0.35790 0.54240 -0.08200
C 	C 	0.71710 0.23600 0.41880 0.07000
N 	N 	0.71700 0.23580 0.46020 -0.12400
N 	N 	0.69970 0.14210 0.54240 -0.08300
C 	C 	0.71710 0.73600 0.91880 0.07200
N 	N 	0.71700 0.73580 0.96020 -0.12100
N 	N 	0.69970 0.64210 0.04240 -0.08400
C 	C 	0.21710 0.23600 0.91880 0.07100
N 	N 	0.21700 0.23580 0.96020 -0.12100
N 	N 	0.19970 0.14210 0.04240 -0.08500
C 	C 	0.21710 0.73600 0.41880 0.07000
N 	N 	0.21700 0.73580 0.46020 -0.12400
N 	N 	0.19970 0.64210 0.54240 -0.08300
C 	C 	0.71710 0.76400 0.58120 0.07000
N 	N 	0.71700 0.76420 0.53980 -0.12400
N 	N 	0.69970 0.85790 0.45760 -0.08100
C 	C 	0.71710 0.26400 0.08120 0.06900
N 	N 	0.71700 0.26420 0.03980 -0.12200
N 	N 	0.69970 0.35790 0.95760 -0.07600
C 	C 	0.21710 0.76400 0.08120 0.06900
N 	N 	0.21700 0.76420 0.03980 -0.12200
N 	N 	0.19970 0.85790 0.95760 -0.07600
C 	C 	0.21710 0.26400 0.58120 0.06900
N 	N 	0.21700 0.26420 0.53980 -0.12400
N 	N 	0.19970 0.35790 0.45760 -0.08300
C 	C 	0.28290 0.23600 0.58120 0.07100
N 	N 	0.28300 0.23580 0.53980 -0.12400
N 	N 	0.30030 0.14210 0.45760 -0.08300
C 	C 	0.28290 0.73600 0.08120 0.07000
N 	N 	0.28300 0.73580 0.03980 -0.12200
N 	N 	0.30030 0.64210 0.95760 -0.07700
C 	C 	0.78290 0.23600 0.08120 0.07100
N 	N 	0.78300 0.23580 0.03980 -0.12200
N 	N 	0.80030 0.14210 0.95760 -0.07700
C 	C 	0.78290 0.73600 0.58120 0.07200
N 	N 	0.78300 0.73580 0.53980 -0.12400
N 	N 	0.80030 0.64210 0.45760 -0.08200
C 	C 	0.41880 0.28290 0.76400 0.07000
N 	N 	0.46020 0.28300 0.76420 -0.12400
N 	N 	0.54240 0.30030 0.85790 -0.08100
C 	C 	0.41880 0.78290 0.26400 0.07100
N 	N 	0.46020 0.78300 0.26420 -0.12400
N 	N 	0.54240 0.80030 0.35790 -0.08200
C 	C 	0.91880 0.28290 0.26400 0.07100
N 	N 	0.96020 0.28300 0.26420 -0.12100
N 	N 	0.04240 0.30030 0.35790 -0.08400
C 	C 	0.91880 0.78290 0.76400 0.07200
N 	N 	0.96020 0.78300 0.76420 -0.12100
N 	N 	0.04240 0.80030 0.85790 -0.08200
C 	C 	0.41880 0.71710 0.23600 0.07000
N 	N 	0.46020 0.71700 0.23580 -0.12400
N 	N 	0.54240 0.69970 0.14210 -0.08300
C 	C 	0.41880 0.21710 0.73600 0.07000
N 	N 	0.46020 0.21700 0.73580 -0.12400
N 	N 	0.54240 0.19970 0.64210 -0.08300
C 	C 	0.91880 0.71710 0.73600 0.07200
N 	N 	0.96020 0.71700 0.73580 -0.12100
N 	N 	0.04240 0.69970 0.64210 -0.08400
C 	C 	0.91880 0.21710 0.23600 0.07100
N 	N 	0.96020 0.21700 0.23580 -0.12100
N 	N 	0.04240 0.19970 0.14210 -0.08500
C 	C 	0.58120 0.71710 0.76400 0.07000
N 	N 	0.53980 0.71700 0.76420 -0.12400
N 	N 	0.45760 0.69970 0.85790 -0.08100
C 	C 	0.58120 0.21710 0.26400 0.06900
N 	N 	0.53980 0.21700 0.26420 -0.12400
N 	N 	0.45760 0.19970 0.35790 -0.08300
C 	C 	0.08120 0.71710 0.26400 0.06900
N 	N 	0.03980 0.71700 0.26420 -0.12200
N 	N 	0.95760 0.69970 0.35790 -0.07600
C 	C 	0.08120 0.21710 0.76400 0.06900
N 	N 	0.03980 0.21700 0.76420 -0.12200
N 	N 	0.95760 0.19970 0.85790 -0.07600
C 	C 	0.58120 0.28290 0.23600 0.07100
N 	N 	0.53980 0.28300 0.23580 -0.12400
N 	N 	0.45760 0.30030 0.14210 -0.08300
C 	C 	0.58120 0.78290 0.73600 0.07200
N 	N 	0.53980 0.78300 0.73580 -0.12400
N 	N 	0.45760 0.80030 0.64210 -0.08200
C 	C 	0.08120 0.28290 0.73600 0.07000
N 	N 	0.03980 0.28300 0.73580 -0.12200
N 	N 	0.95760 0.30030 0.64210 -0.07700
C 	C 	0.08120 0.78290 0.23600 0.07100
N 	N 	0.03980 0.78300 0.23580 -0.12200
N 	N 	0.95760 0.80030 0.14210 -0.07700
C 	C 	0.76400 0.41880 0.28290 0.07000
N 	N 	0.76420 0.46020 0.28300 -0.12400
N 	N 	0.85790 0.54240 0.30030 -0.08100
C 	C 	0.76400 0.91880 0.78290 0.07200
N 	N 	0.76420 0.96020 0.78300 -0.12100
N 	N 	0.85790 0.04240 0.80030 -0.08200
C 	C 	0.26400 0.41880 0.78290 0.07100
N 	N 	0.26420 0.46020 0.78300 -0.12400
N 	N 	0.35790 0.54240 0.80030 -0.08200
C 	C 	0.26400 0.91880 0.28290 0.07100
N 	N 	0.26420 0.96020 0.28300 -0.12100
N 	N 	0.35790 0.04240 0.30030 -0.08400
C 	C 	0.23600 0.41880 0.71710 0.07000
N 	N 	0.23580 0.46020 0.71700 -0.12400
N 	N 	0.14210 0.54240 0.69970 -0.08300
C 	C 	0.23600 0.91880 0.21710 0.07100
N 	N 	0.23580 0.96020 0.21700 -0.12100
N 	N 	0.14210 0.04240 0.19970 -0.08500
C 	C 	0.73600 0.41880 0.21710 0.07000
N 	N 	0.73580 0.46020 0.21700 -0.12400
N 	N 	0.64210 0.54240 0.19970 -0.08300
C 	C 	0.73600 0.91880 0.71710 0.07200
N 	N 	0.73580 0.96020 0.71700 -0.12100
N 	N 	0.64210 0.04240 0.69970 -0.08400
C 	C 	0.76400 0.58120 0.71710 0.07000
N 	N 	0.76420 0.53980 0.71700 -0.12400
N 	N 	0.85790 0.45760 0.69970 -0.08100
C 	C 	0.76400 0.08120 0.21710 0.06900
N 	N 	0.76420 0.03980 0.21700 -0.12200
N 	N 	0.85790 0.95760 0.19970 -0.07600
C 	C 	0.26400 0.58120 0.21710 0.06900
N 	N 	0.26420 0.53980 0.21700 -0.12400
N 	N 	0.35790 0.45760 0.19970 -0.08300
C 	C 	0.26400 0.08120 0.71710 0.06900
N 	N 	0.26420 0.03980 0.71700 -0.12200
N 	N 	0.35790 0.95760 0.69970 -0.07600
C 	C 	0.23600 0.58120 0.28290 0.07100
N 	N 	0.23580 0.53980 0.28300 -0.12400
N 	N 	0.14210 0.45760 0.30030 -0.08300
C 	C 	0.23600 0.08120 0.78290 0.07100
N 	N 	0.23580 0.03980 0.78300 -0.12200
N 	N 	0.14210 0.95760 0.80030 -0.07700
C 	C 	0.73600 0.58120 0.78290 0.07200
N 	N 	0.73580 0.53980 0.78300 -0.12400
N 	N 	0.64210 0.45760 0.80030 -0.08200
C 	C 	0.73600 0.08120 0.28290 0.07000
N 	N 	0.73580 0.03980 0.28300 -0.12200
N 	N 	0.64210 0.95760 0.30030 -0.07700
C 	C 	0.76400 0.28290 0.58120 0.07000
N 	N 	0.76420 0.28300 0.53980 -0.12400
N 	N 	0.85790 0.30030 0.45760 -0.08100
C 	C 	0.76400 0.78290 0.08120 0.07000
N 	N 	0.76420 0.78300 0.03980 -0.12200
N 	N 	0.85790 0.80030 0.95760 -0.07500
C 	C 	0.26400 0.28290 0.08120 0.07000
N 	N 	0.26420 0.28300 0.03980 -0.12200
N 	N 	0.35790 0.30030 0.95760 -0.07700
C 	C 	0.26400 0.78290 0.58120 0.07100
N 	N 	0.26420 0.78300 0.53980 -0.12400
N 	N 	0.35790 0.80030 0.45760 -0.08200
C 	C 	0.23600 0.71710 0.58120 0.07000
N 	N 	0.23580 0.71700 0.53980 -0.12400
N 	N 	0.14210 0.69970 0.45760 -0.08300
C 	C 	0.23600 0.21710 0.08120 0.06900
N 	N 	0.23580 0.21700 0.03980 -0.12200
N 	N 	0.14210 0.19970 0.95760 -0.07800
C 	C 	0.73600 0.71710 0.08120 0.07000
N 	N 	0.73580 0.71700 0.03980 -0.12200
N 	N 	0.64210 0.69970 0.95760 -0.07600
C 	C 	0.73600 0.21710 0.58120 0.07000
N 	N 	0.73580 0.21700 0.53980 -0.12400
N 	N 	0.64210 0.19970 0.45760 -0.08300
C 	C 	0.76400 0.71710 0.41880 0.07000
N 	N 	0.76420 0.71700 0.46020 -0.12400
N 	N 	0.85790 0.69970 0.54240 -0.08100
C 	C 	0.76400 0.21710 0.91880 0.07000
N 	N 	0.76420 0.21700 0.96020 -0.12100
N 	N 	0.85790 0.19970 0.04240 -0.08300
C 	C 	0.26400 0.71710 0.91880 0.07100
N 	N 	0.26420 0.71700 0.96020 -0.12100
N 	N 	0.35790 0.69970 0.04240 -0.08400
C 	C 	0.26400 0.21710 0.41880 0.06900
N 	N 	0.26420 0.21700 0.46020 -0.12400
N 	N 	0.35790 0.19970 0.54240 -0.08300
C 	C 	0.23600 0.28290 0.41880 0.07100
N 	N 	0.23580 0.28300 0.46020 -0.12400
N 	N 	0.14210 0.30030 0.54240 -0.08300
C 	C 	0.23600 0.78290 0.91880 0.07300
N 	N 	0.23580 0.78300 0.96020 -0.12100
N 	N 	0.14210 0.80030 0.04240 -0.08400
C 	C 	0.73600 0.28290 0.91880 0.07200
N 	N 	0.73580 0.28300 0.96020 -0.12100
N 	N 	0.64210 0.30030 0.04240 -0.08400
C 	C 	0.73600 0.78290 0.41880 0.07200
N 	N 	0.73580 0.78300 0.46020 -0.12400
N 	N 	0.64210 0.80030 0.54240 -0.08200
C 	C 	0.28290 0.41880 0.23600 0.07100
N 	N 	0.28300 0.46020 0.23580 -0.12400
N 	N 	0.30030 0.54240 0.14210 -0.08300
C 	C 	0.28290 0.91880 0.73600 0.07200
N 	N 	0.28300 0.96020 0.73580 -0.12100
N 	N 	0.30030 0.04240 0.64210 -0.08400
C 	C 	0.78290 0.41880 0.73600 0.07200
N 	N 	0.78300 0.46020 0.73580 -0.12400
N 	N 	0.80030 0.54240 0.64210 -0.08200
C 	C 	0.78290 0.91880 0.23600 0.07300
N 	N 	0.78300 0.96020 0.23580 -0.12100
N 	N 	0.80030 0.04240 0.14210 -0.08400
C 	C 	0.71710 0.41880 0.76400 0.07000
N 	N 	0.71700 0.46020 0.76420 -0.12400
N 	N 	0.69970 0.54240 0.85790 -0.08100
C 	C 	0.71710 0.91880 0.26400 0.07100
N 	N 	0.71700 0.96020 0.26420 -0.12100
N 	N 	0.69970 0.04240 0.35790 -0.08400
C 	C 	0.21710 0.41880 0.26400 0.06900
N 	N 	0.21700 0.46020 0.26420 -0.12400
N 	N 	0.19970 0.54240 0.35790 -0.08300
C 	C 	0.21710 0.91880 0.76400 0.07000
N 	N 	0.21700 0.96020 0.76420 -0.12100
N 	N 	0.19970 0.04240 0.85790 -0.08300
C 	C 	0.71710 0.58120 0.23600 0.07000
N 	N 	0.71700 0.53980 0.23580 -0.12400
N 	N 	0.69970 0.45760 0.14210 -0.08300
C 	C 	0.71710 0.08120 0.73600 0.07000
N 	N 	0.71700 0.03980 0.73580 -0.12200
N 	N 	0.69970 0.95760 0.64210 -0.07600
C 	C 	0.21710 0.58120 0.73600 0.07000
N 	N 	0.21700 0.53980 0.73580 -0.12400
N 	N 	0.19970 0.45760 0.64210 -0.08300
C 	C 	0.21710 0.08120 0.23600 0.06900
N 	N 	0.21700 0.03980 0.23580 -0.12200
N 	N 	0.19970 0.95760 0.14210 -0.07800
C 	C 	0.28290 0.58120 0.76400 0.07000
N 	N 	0.28300 0.53980 0.76420 -0.12400
N 	N 	0.30030 0.45760 0.85790 -0.08100
C 	C 	0.28290 0.08120 0.26400 0.07000
N 	N 	0.28300 0.03980 0.26420 -0.12200
N 	N 	0.30030 0.95760 0.35790 -0.07700
C 	C 	0.78290 0.58120 0.26400 0.07100
N 	N 	0.78300 0.53980 0.26420 -0.12400
N 	N 	0.80030 0.45760 0.35790 -0.08200
C 	C 	0.78290 0.08120 0.76400 0.07000
N 	N 	0.78300 0.03980 0.76420 -0.12200
N 	N 	0.80030 0.95760 0.85790 -0.07500
C 	C 	0.41880 0.76400 0.71710 0.07000
N 	N 	0.46020 0.76420 0.71700 -0.12400
N 	N 	0.54240 0.85790 0.69970 -0.08100
C 	C 	0.41880 0.26400 0.21710 0.06900
N 	N 	0.46020 0.26420 0.21700 -0.12400
N 	N 	0.54240 0.35790 0.19970 -0.08300
C 	C 	0.91880 0.76400 0.21710 0.07000
N 	N 	0.96020 0.76420 0.21700 -0.12100
N 	N 	0.04240 0.85790 0.19970 -0.08300
C 	C 	0.91880 0.26400 0.71710 0.07100
N 	N 	0.96020 0.26420 0.71700 -0.12100
N 	N 	0.04240 0.35790 0.69970 -0.08400
C 	C 	0.41880 0.23600 0.28290 0.07100
N 	N 	0.46020 0.23580 0.28300 -0.12400
N 	N 	0.54240 0.14210 0.30030 -0.08300
C 	C 	0.41880 0.73600 0.78290 0.07200
N 	N 	0.46020 0.73580 0.78300 -0.12400
N 	N 	0.54240 0.64210 0.80030 -0.08200
C 	C 	0.91880 0.23600 0.78290 0.07300
N 	N 	0.96020 0.23580 0.78300 -0.12100
N 	N 	0.04240 0.14210 0.80030 -0.08400
C 	C 	0.91880 0.73600 0.28290 0.07200
N 	N 	0.96020 0.73580 0.28300 -0.12100
N 	N 	0.04240 0.64210 0.30030 -0.08400
C 	C 	0.58120 0.76400 0.28290 0.07000
N 	N 	0.53980 0.76420 0.28300 -0.12400
N 	N 	0.45760 0.85790 0.30030 -0.08100
C 	C 	0.58120 0.26400 0.78290 0.07100
N 	N 	0.53980 0.26420 0.78300 -0.12400
N 	N 	0.45760 0.35790 0.80030 -0.08200
C 	C 	0.08120 0.76400 0.78290 0.07000
N 	N 	0.03980 0.76420 0.78300 -0.12200
N 	N 	0.95760 0.85790 0.80030 -0.07500
C 	C 	0.08120 0.26400 0.28290 0.07000
N 	N 	0.03980 0.26420 0.28300 -0.12200
N 	N 	0.95760 0.35790 0.30030 -0.07700
C 	C 	0.58120 0.23600 0.71710 0.07000
N 	N 	0.53980 0.23580 0.71700 -0.12400
N 	N 	0.45760 0.14210 0.69970 -0.08300
C 	C 	0.58120 0.73600 0.21710 0.07000
N 	N 	0.53980 0.73580 0.21700 -0.12400
N 	N 	0.45760 0.64210 0.19970 -0.08300
C 	C 	0.08120 0.23600 0.21710 0.06900
N 	N 	0.03980 0.23580 0.21700 -0.12200
N 	N 	0.95760 0.14210 0.19970 -0.07800
C 	C 	0.08120 0.73600 0.71710 0.07000
N 	N 	0.03980 0.73580 0.71700 -0.12200
N 	N 	0.95760 0.64210 0.69970 -0.07600
C 	C 	0.71710 0.23600 0.58120 0.07000
N 	N 	0.71700 0.23580 0.53980 -0.12400
N 	N 	0.69970 0.14210 0.45760 -0.08300
C 	C 	0.71710 0.73600 0.08120 0.07000
N 	N 	0.71700 0.73580 0.03980 -0.12200
N 	N 	0.69970 0.64210 0.95760 -0.07600
C 	C 	0.21710 0.23600 0.08120 0.06900
N 	N 	0.21700 0.23580 0.03980 -0.12200
N 	N 	0.19970 0.14210 0.95760 -0.07800
C 	C 	0.21710 0.73600 0.58120 0.07000
N 	N 	0.21700 0.73580 0.53980 -0.12400
N 	N 	0.19970 0.64210 0.45760 -0.08300
C 	C 	0.28290 0.76400 0.58120 0.07000
N 	N 	0.28300 0.76420 0.53980 -0.12400
N 	N 	0.30030 0.85790 0.45760 -0.08100
C 	C 	0.28290 0.26400 0.08120 0.07000
N 	N 	0.28300 0.26420 0.03980 -0.12200
N 	N 	0.30030 0.35790 0.95760 -0.07700
C 	C 	0.78290 0.76400 0.08120 0.07000
N 	N 	0.78300 0.76420 0.03980 -0.12200
N 	N 	0.80030 0.85790 0.95760 -0.07500
C 	C 	0.78290 0.26400 0.58120 0.07100
N 	N 	0.78300 0.26420 0.53980 -0.12400
N 	N 	0.80030 0.35790 0.45760 -0.08200
C 	C 	0.28290 0.23600 0.41880 0.07100
N 	N 	0.28300 0.23580 0.46020 -0.12400
N 	N 	0.30030 0.14210 0.54240 -0.08300
C 	C 	0.28290 0.73600 0.91880 0.07200
N 	N 	0.28300 0.73580 0.96020 -0.12100
N 	N 	0.30030 0.64210 0.04240 -0.08400
C 	C 	0.78290 0.23600 0.91880 0.07300
N 	N 	0.78300 0.23580 0.96020 -0.12100
N 	N 	0.80030 0.14210 0.04240 -0.08400
C 	C 	0.78290 0.73600 0.41880 0.07200
N 	N 	0.78300 0.73580 0.46020 -0.12400
N 	N 	0.80030 0.64210 0.54240 -0.08200
C 	C 	0.71710 0.76400 0.41880 0.07000
N 	N 	0.71700 0.76420 0.46020 -0.12400
N 	N 	0.69970 0.85790 0.54240 -0.08100
C 	C 	0.71710 0.26400 0.91880 0.07100
N 	N 	0.71700 0.26420 0.96020 -0.12100
N 	N 	0.69970 0.35790 0.04240 -0.08400
C 	C 	0.21710 0.76400 0.91880 0.07000
N 	N 	0.21700 0.76420 0.96020 -0.12100
N 	N 	0.19970 0.85790 0.04240 -0.08300
C 	C 	0.21710 0.26400 0.41880 0.06900
N 	N 	0.21700 0.26420 0.46020 -0.12400
N 	N 	0.19970 0.35790 0.54240 -0.08300
C 	C 	0.58120 0.71710 0.23600 0.07000
N 	N 	0.53980 0.71700 0.23580 -0.12400
N 	N 	0.45760 0.69970 0.14210 -0.08300
C 	C 	0.58120 0.21710 0.73600 0.07000
N 	N 	0.53980 0.21700 0.73580 -0.12400
N 	N 	0.45760 0.19970 0.64210 -0.08300
C 	C 	0.08120 0.71710 0.73600 0.07000
N 	N 	0.03980 0.71700 0.73580 -0.12200
N 	N 	0.95760 0.69970 0.64210 -0.07600
C 	C 	0.08120 0.21710 0.23600 0.06900
N 	N 	0.03980 0.21700 0.23580 -0.12200
N 	N 	0.95760 0.19970 0.14210 -0.07800
C 	C 	0.58120 0.28290 0.76400 0.07000
N 	N 	0.53980 0.28300 0.76420 -0.12400
N 	N 	0.45760 0.30030 0.85790 -0.08100
C 	C 	0.58120 0.78290 0.26400 0.07100
N 	N 	0.53980 0.78300 0.26420 -0.12400
N 	N 	0.45760 0.80030 0.35790 -0.08200
C 	C 	0.08120 0.28290 0.26400 0.07000
N 	N 	0.03980 0.28300 0.26420 -0.12200
N 	N 	0.95760 0.30030 0.35790 -0.07700
C 	C 	0.08120 0.78290 0.76400 0.07000
N 	N 	0.03980 0.78300 0.76420 -0.12200
N 	N 	0.95760 0.80030 0.85790 -0.07500
C 	C 	0.41880 0.28290 0.23600 0.07100
N 	N 	0.46020 0.28300 0.23580 -0.12400
N 	N 	0.54240 0.30030 0.14210 -0.08300
C 	C 	0.41880 0.78290 0.73600 0.07200
N 	N 	0.46020 0.78300 0.73580 -0.12400
N 	N 	0.54240 0.80030 0.64210 -0.08200
C 	C 	0.91880 0.28290 0.73600 0.07200
N 	N 	0.96020 0.28300 0.73580 -0.12100
N 	N 	0.04240 0.30030 0.64210 -0.08400
C 	C 	0.91880 0.78290 0.23600 0.07300
N 	N 	0.96020 0.78300 0.23580 -0.12100
N 	N 	0.04240 0.80030 0.14210 -0.08400
C 	C 	0.41880 0.71710 0.76400 0.07000
N 	N 	0.46020 0.71700 0.76420 -0.12400
N 	N 	0.54240 0.69970 0.85790 -0.08100
C 	C 	0.41880 0.21710 0.26400 0.06900
N 	N 	0.46020 0.21700 0.26420 -0.12400
N 	N 	0.54240 0.19970 0.35790 -0.08300
C 	C 	0.91880 0.71710 0.26400 0.07100
N 	N 	0.96020 0.71700 0.26420 -0.12100
N 	N 	0.04240 0.69970 0.35790 -0.08400
C 	C 	0.91880 0.21710 0.76400 0.07000
N 	N 	0.96020 0.21700 0.76420 -0.12100
N 	N 	0.04240 0.19970 0.85790 -0.08300
C 	C 	0.23600 0.58120 0.71710 0.07000
N 	N 	0.23580 0.53980 0.71700 -0.12400
N 	N 	0.14210 0.45760 0.69970 -0.08300
C 	C 	0.23600 0.08120 0.21710 0.06900
N 	N 	0.23580 0.03980 0.21700 -0.12200
N 	N 	0.14210 0.95760 0.19970 -0.07800
C 	C 	0.73600 0.58120 0.21710 0.07000
N 	N 	0.73580 0.53980 0.21700 -0.12400
N 	N 	0.64210 0.45760 0.19970 -0.08300
C 	C 	0.73600 0.08120 0.71710 0.07000
N 	N 	0.73580 0.03980 0.71700 -0.12200
N 	N 	0.64210 0.95760 0.69970 -0.07600
C 	C 	0.76400 0.58120 0.28290 0.07000
N 	N 	0.76420 0.53980 0.28300 -0.12400
N 	N 	0.85790 0.45760 0.30030 -0.08100
C 	C 	0.76400 0.08120 0.78290 0.07000
N 	N 	0.76420 0.03980 0.78300 -0.12200
N 	N 	0.85790 0.95760 0.80030 -0.07500
C 	C 	0.26400 0.58120 0.78290 0.07100
N 	N 	0.26420 0.53980 0.78300 -0.12400
N 	N 	0.35790 0.45760 0.80030 -0.08200
C 	C 	0.26400 0.08120 0.28290 0.07000
N 	N 	0.26420 0.03980 0.28300 -0.12200
N 	N 	0.35790 0.95760 0.30030 -0.07700
C 	C 	0.23600 0.41880 0.28290 0.07100
N 	N 	0.23580 0.46020 0.28300 -0.12400
N 	N 	0.14210 0.54240 0.30030 -0.08300
C 	C 	0.23600 0.91880 0.78290 0.07300
N 	N 	0.23580 0.96020 0.78300 -0.12100
N 	N 	0.14210 0.04240 0.80030 -0.08400
C 	C 	0.73600 0.41880 0.78290 0.07200
N 	N 	0.73580 0.46020 0.78300 -0.12400
N 	N 	0.64210 0.54240 0.80030 -0.08200
C 	C 	0.73600 0.91880 0.28290 0.07200
N 	N 	0.73580 0.96020 0.28300 -0.12100
N 	N 	0.64210 0.04240 0.30030 -0.08400
C 	C 	0.76400 0.41880 0.71710 0.07000
N 	N 	0.76420 0.46020 0.71700 -0.12400
N 	N 	0.85790 0.54240 0.69970 -0.08100
C 	C 	0.76400 0.91880 0.21710 0.07000
N 	N 	0.76420 0.96020 0.21700 -0.12100
N 	N 	0.85790 0.04240 0.19970 -0.08300
C 	C 	0.26400 0.41880 0.21710 0.06900
N 	N 	0.26420 0.46020 0.21700 -0.12400
N 	N 	0.35790 0.54240 0.19970 -0.08300
C 	C 	0.26400 0.91880 0.71710 0.07100
N 	N 	0.26420 0.96020 0.71700 -0.12100
N 	N 	0.35790 0.04240 0.69970 -0.08400
C 	C 	0.23600 0.71710 0.41880 0.07000
N 	N 	0.23580 0.71700 0.46020 -0.12400
N 	N 	0.14210 0.69970 0.54240 -0.08300
C 	C 	0.23600 0.21710 0.91880 0.07100
N 	N 	0.23580 0.21700 0.96020 -0.12100
N 	N 	0.14210 0.19970 0.04240 -0.08500
C 	C 	0.73600 0.71710 0.91880 0.07200
N 	N 	0.73580 0.71700 0.96020 -0.12100
N 	N 	0.64210 0.69970 0.04240 -0.08400
C 	C 	0.73600 0.21710 0.41880 0.07000
N 	N 	0.73580 0.21700 0.46020 -0.12400
N 	N 	0.64210 0.19970 0.54240 -0.08300
C 	C 	0.76400 0.28290 0.41880 0.07000
N 	N 	0.76420 0.28300 0.46020 -0.12400
N 	N 	0.85790 0.30030 0.54240 -0.08100
C 	C 	0.76400 0.78290 0.91880 0.07200
N 	N 	0.76420 0.78300 0.96020 -0.12100
N 	N 	0.85790 0.80030 0.04240 -0.08200
C 	C 	0.26400 0.28290 0.91880 0.07100
N 	N 	0.26420 0.28300 0.96020 -0.12100
N 	N 	0.35790 0.30030 0.04240 -0.08400
C 	C 	0.26400 0.78290 0.41880 0.07100
N 	N 	0.26420 0.78300 0.46020 -0.12400
N 	N 	0.35790 0.80030 0.54240 -0.08200
C 	C 	0.23600 0.28290 0.58120 0.07100
N 	N 	0.23580 0.28300 0.53980 -0.12400
N 	N 	0.14210 0.30030 0.45760 -0.08300
C 	C 	0.23600 0.78290 0.08120 0.07100
N 	N 	0.23580 0.78300 0.03980 -0.12200
N 	N 	0.14210 0.80030 0.95760 -0.07700
C 	C 	0.73600 0.28290 0.08120 0.07000
N 	N 	0.73580 0.28300 0.03980 -0.12200
N 	N 	0.64210 0.30030 0.95760 -0.07700
C 	C 	0.73600 0.78290 0.58120 0.07200
N 	N 	0.73580 0.78300 0.53980 -0.12400
N 	N 	0.64210 0.80030 0.45760 -0.08200
C 	C 	0.76400 0.71710 0.58120 0.07000
N 	N 	0.76420 0.71700 0.53980 -0.12400
N 	N 	0.85790 0.69970 0.45760 -0.08100
C 	C 	0.76400 0.21710 0.08120 0.06900
N 	N 	0.76420 0.21700 0.03980 -0.12200
N 	N 	0.85790 0.19970 0.95760 -0.07600
C 	C 	0.26400 0.71710 0.08120 0.06900
N 	N 	0.26420 0.71700 0.03980 -0.12200
N 	N 	0.35790 0.69970 0.95760 -0.07600
C 	C 	0.26400 0.21710 0.58120 0.06900
N 	N 	0.26420 0.21700 0.53980 -0.12400
N 	N 	0.35790 0.19970 0.45760 -0.08300
C 	C 	0.71710 0.58120 0.76400 0.07000
N 	N 	0.71700 0.53980 0.76420 -0.12400
N 	N 	0.69970 0.45760 0.85790 -0.08100
C 	C 	0.71710 0.08120 0.26400 0.06900
N 	N 	0.71700 0.03980 0.26420 -0.12200
N 	N 	0.69970 0.95760 0.35790 -0.07600
C 	C 	0.21710 0.58120 0.26400 0.06900
N 	N 	0.21700 0.53980 0.26420 -0.12400
N 	N 	0.19970 0.45760 0.35790 -0.08300
C 	C 	0.21710 0.08120 0.76400 0.06900
N 	N 	0.21700 0.03980 0.76420 -0.12200
N 	N 	0.19970 0.95760 0.85790 -0.07600
C 	C 	0.28290 0.58120 0.23600 0.07100
N 	N 	0.28300 0.53980 0.23580 -0.12400
N 	N 	0.30030 0.45760 0.14210 -0.08300
C 	C 	0.28290 0.08120 0.73600 0.07000
N 	N 	0.28300 0.03980 0.73580 -0.12200
N 	N 	0.30030 0.95760 0.64210 -0.07700
C 	C 	0.78290 0.58120 0.73600 0.07200
N 	N 	0.78300 0.53980 0.73580 -0.12400
N 	N 	0.80030 0.45760 0.64210 -0.08200
C 	C 	0.78290 0.08120 0.23600 0.07100
N 	N 	0.78300 0.03980 0.23580 -0.12200
N 	N 	0.80030 0.95760 0.14210 -0.07700
C 	C 	0.28290 0.41880 0.76400 0.07000
N 	N 	0.28300 0.46020 0.76420 -0.12400
N 	N 	0.30030 0.54240 0.85790 -0.08100
C 	C 	0.28290 0.91880 0.26400 0.07100
N 	N 	0.28300 0.96020 0.26420 -0.12100
N 	N 	0.30030 0.04240 0.35790 -0.08400
C 	C 	0.78290 0.41880 0.26400 0.07100
N 	N 	0.78300 0.46020 0.26420 -0.12400
N 	N 	0.80030 0.54240 0.35790 -0.08200
C 	C 	0.78290 0.91880 0.76400 0.07200
N 	N 	0.78300 0.96020 0.76420 -0.12100
N 	N 	0.80030 0.04240 0.85790 -0.08200
C 	C 	0.71710 0.41880 0.23600 0.07000
N 	N 	0.71700 0.46020 0.23580 -0.12400
N 	N 	0.69970 0.54240 0.14210 -0.08300
C 	C 	0.71710 0.91880 0.73600 0.07200
N 	N 	0.71700 0.96020 0.73580 -0.12100
N 	N 	0.69970 0.04240 0.64210 -0.08400
C 	C 	0.21710 0.41880 0.73600 0.07000
N 	N 	0.21700 0.46020 0.73580 -0.12400
N 	N 	0.19970 0.54240 0.64210 -0.08300
C 	C 	0.21710 0.91880 0.23600 0.07100
N 	N 	0.21700 0.96020 0.23580 -0.12100
N 	N 	0.19970 0.04240 0.14210 -0.08500
C 	C 	0.58120 0.23600 0.28290 0.07100
N 	N 	0.53980 0.23580 0.28300 -0.12400
N 	N 	0.45760 0.14210 0.30030 -0.08300
C 	C 	0.58120 0.73600 0.78290 0.07200
N 	N 	0.53980 0.73580 0.78300 -0.12400
N 	N 	0.45760 0.64210 0.80030 -0.08200
C 	C 	0.08120 0.23600 0.78290 0.07100
N 	N 	0.03980 0.23580 0.78300 -0.12200
N 	N 	0.95760 0.14210 0.80030 -0.07700
C 	C 	0.08120 0.73600 0.28290 0.07000
N 	N 	0.03980 0.73580 0.28300 -0.12200
N 	N 	0.95760 0.64210 0.30030 -0.07700
C 	C 	0.58120 0.76400 0.71710 0.07000
N 	N 	0.53980 0.76420 0.71700 -0.12400
N 	N 	0.45760 0.85790 0.69970 -0.08100
C 	C 	0.58120 0.26400 0.21710 0.06900
N 	N 	0.53980 0.26420 0.21700 -0.12400
N 	N 	0.45760 0.35790 0.19970 -0.08300
C 	C 	0.08120 0.76400 0.21710 0.06900
N 	N 	0.03980 0.76420 0.21700 -0.12200
N 	N 	0.95760 0.85790 0.19970 -0.07600
C 	C 	0.08120 0.26400 0.71710 0.06900
N 	N 	0.03980 0.26420 0.71700 -0.12200
N 	N 	0.95760 0.35790 0.69970 -0.07600
C 	C 	0.41880 0.23600 0.71710 0.07000
N 	N 	0.46020 0.23580 0.71700 -0.12400
N 	N 	0.54240 0.14210 0.69970 -0.08300
C 	C 	0.41880 0.73600 0.21710 0.07000
N 	N 	0.46020 0.73580 0.21700 -0.12400
N 	N 	0.54240 0.64210 0.19970 -0.08300
C 	C 	0.91880 0.23600 0.21710 0.07100
N 	N 	0.96020 0.23580 0.21700 -0.12100
N 	N 	0.04240 0.14210 0.19970 -0.08500
C 	C 	0.91880 0.73600 0.71710 0.07200
N 	N 	0.96020 0.73580 0.71700 -0.12100
N 	N 	0.04240 0.64210 0.69970 -0.08400
C 	C 	0.41880 0.76400 0.28290 0.07000
N 	N 	0.46020 0.76420 0.28300 -0.12400
N 	N 	0.54240 0.85790 0.30030 -0.08100
C 	C 	0.41880 0.26400 0.78290 0.07100
N 	N 	0.46020 0.26420 0.78300 -0.12400
N 	N 	0.54240 0.35790 0.80030 -0.08200
C 	C 	0.91880 0.76400 0.78290 0.07200
N 	N 	0.96020 0.76420 0.78300 -0.12100
N 	N 	0.04240 0.85790 0.80030 -0.08200
C 	C 	0.91880 0.26400 0.28290 0.07100
N 	N 	0.96020 0.26420 0.28300 -0.12100
N 	N 	0.04240 0.35790 0.30030 -0.08400
C 	C 	0.25000 0.75000 0.35680 0.16800
C 	C 	0.25000 0.75000 0.40100 -0.11300
C 	C 	0.25000 0.75000 0.47840 0.08200
C 	C 	0.25000 0.25000 0.85680 0.16800
C 	C 	0.25000 0.25000 0.90100 -0.11400
C 	C 	0.25000 0.25000 0.97840 0.09700
C 	C 	0.75000 0.25000 0.35680 0.16800
C 	C 	0.75000 0.25000 0.40100 -0.11300
C 	C 	0.75000 0.25000 0.47840 0.08200
C 	C 	0.75000 0.75000 0.85680 0.16900
C 	C 	0.75000 0.75000 0.90100 -0.11400
C 	C 	0.75000 0.75000 0.97840 0.09700
C 	C 	0.75000 0.75000 0.64320 0.16800
C 	C 	0.75000 0.75000 0.59900 -0.11300
C 	C 	0.75000 0.75000 0.52160 0.08200
C 	C 	0.75000 0.25000 0.14320 0.16700
C 	C 	0.75000 0.25000 0.09900 -0.11200
C 	C 	0.75000 0.25000 0.02160 0.07200
C 	C 	0.25000 0.25000 0.64320 0.16700
C 	C 	0.25000 0.25000 0.59900 -0.11300
C 	C 	0.25000 0.25000 0.52160 0.08200
C 	C 	0.25000 0.75000 0.14320 0.16700
C 	C 	0.25000 0.75000 0.09900 -0.11200
C 	C 	0.25000 0.75000 0.02160 0.07200
C 	C 	0.35680 0.25000 0.75000 0.16800
C 	C 	0.40100 0.25000 0.75000 -0.11300
C 	C 	0.47840 0.25000 0.75000 0.08200
C 	C 	0.85680 0.25000 0.25000 0.16800
C 	C 	0.90100 0.25000 0.25000 -0.11400
C 	C 	0.97840 0.25000 0.25000 0.09700
C 	C 	0.35680 0.75000 0.25000 0.16800
C 	C 	0.40100 0.75000 0.25000 -0.11300
C 	C 	0.47840 0.75000 0.25000 0.08200
C 	C 	0.85680 0.75000 0.75000 0.16900
C 	C 	0.90100 0.75000 0.75000 -0.11400
C 	C 	0.97840 0.75000 0.75000 0.09700
C 	C 	0.64320 0.75000 0.75000 0.16800
C 	C 	0.59900 0.75000 0.75000 -0.11300
C 	C 	0.52160 0.75000 0.75000 0.08200
C 	C 	0.14320 0.75000 0.25000 0.16700
C 	C 	0.09900 0.75000 0.25000 -0.11200
C 	C 	0.02160 0.75000 0.25000 0.07200
C 	C 	0.64320 0.25000 0.25000 0.16700
C 	C 	0.59900 0.25000 0.25000 -0.11300
C 	C 	0.52160 0.25000 0.25000 0.08200
C 	C 	0.14320 0.25000 0.75000 0.16700
C 	C 	0.09900 0.25000 0.75000 -0.11200
C 	C 	0.02160 0.25000 0.75000 0.07200
C 	C 	0.75000 0.35680 0.25000 0.16800
C 	C 	0.75000 0.40100 0.25000 -0.11300
C 	C 	0.75000 0.47840 0.25000 0.08200
C 	C 	0.75000 0.85680 0.75000 0.16900
C 	C 	0.75000 0.90100 0.75000 -0.11400
C 	C 	0.75000 0.97840 0.75000 0.09700
C 	C 	0.25000 0.35680 0.75000 0.16800
C 	C 	0.25000 0.40100 0.75000 -0.11300
C 	C 	0.25000 0.47840 0.75000 0.08200
C 	C 	0.25000 0.85680 0.25000 0.16800
C 	C 	0.25000 0.90100 0.25000 -0.11400
C 	C 	0.25000 0.97840 0.25000 0.09700
C 	C 	0.75000 0.64320 0.75000 0.16800
C 	C 	0.75000 0.59900 0.75000 -0.11300
C 	C 	0.75000 0.52160 0.75000 0.08200
C 	C 	0.75000 0.14320 0.25000 0.16700
C 	C 	0.75000 0.09900 0.25000 -0.11200
C 	C 	0.75000 0.02160 0.25000 0.07200
C 	C 	0.25000 0.64320 0.25000 0.16700
C 	C 	0.25000 0.59900 0.25000 -0.11300
C 	C 	0.25000 0.52160 0.25000 0.08200
C 	C 	0.25000 0.14320 0.75000 0.16700
C 	C 	0.25000 0.09900 0.75000 -0.11200
C 	C 	0.25000 0.02160 0.75000 0.07200
C 	C 	0.75000 0.25000 0.64320 0.16800
C 	C 	0.75000 0.25000 0.59900 -0.11300
C 	C 	0.75000 0.25000 0.52160 0.08200
C 	C 	0.75000 0.75000 0.14320 0.16800
C 	C 	0.75000 0.75000 0.09900 -0.11200
C 	C 	0.75000 0.75000 0.02160 0.07300
C 	C 	0.25000 0.75000 0.64320 0.16800
C 	C 	0.25000 0.75000 0.59900 -0.11300
C 	C 	0.25000 0.75000 0.52160 0.08200
C 	C 	0.25000 0.25000 0.14320 0.16700
C 	C 	0.25000 0.25000 0.09900 -0.11200
C 	C 	0.25000 0.25000 0.02160 0.07200
C 	C 	0.75000 0.75000 0.35680 0.16800
C 	C 	0.75000 0.75000 0.40100 -0.11300
C 	C 	0.75000 0.75000 0.47840 0.08200
C 	C 	0.75000 0.25000 0.85680 0.16900
C 	C 	0.75000 0.25000 0.90100 -0.11400
C 	C 	0.75000 0.25000 0.97840 0.09700
C 	C 	0.25000 0.25000 0.35680 0.16700
C 	C 	0.25000 0.25000 0.40100 -0.11300
C 	C 	0.25000 0.25000 0.47840 0.08200
C 	C 	0.25000 0.75000 0.85680 0.16900
C 	C 	0.25000 0.75000 0.90100 -0.11400
C 	C 	0.25000 0.75000 0.97840 0.09700
C 	C 	0.25000 0.35680 0.25000 0.16700
C 	C 	0.25000 0.40100 0.25000 -0.11300
C 	C 	0.25000 0.47840 0.25000 0.08200
C 	C 	0.25000 0.85680 0.75000 0.16900
C 	C 	0.25000 0.90100 0.75000 -0.11400
C 	C 	0.25000 0.97840 0.75000 0.09700
C 	C 	0.75000 0.35680 0.75000 0.16800
C 	C 	0.75000 0.40100 0.75000 -0.11300
C 	C 	0.75000 0.47840 0.75000 0.08200
C 	C 	0.75000 0.85680 0.25000 0.16900
C 	C 	0.75000 0.90100 0.25000 -0.11400
C 	C 	0.75000 0.97840 0.25000 0.09700
C 	C 	0.75000 0.64320 0.25000 0.16800
C 	C 	0.75000 0.59900 0.25000 -0.11300
C 	C 	0.75000 0.52160 0.25000 0.08200
C 	C 	0.75000 0.14320 0.75000 0.16800
C 	C 	0.75000 0.09900 0.75000 -0.11200
C 	C 	0.75000 0.02160 0.75000 0.07300
C 	C 	0.25000 0.64320 0.75000 0.16800
C 	C 	0.25000 0.59900 0.75000 -0.11300
C 	C 	0.25000 0.52160 0.75000 0.08200
C 	C 	0.25000 0.14320 0.25000 0.16700
C 	C 	0.25000 0.09900 0.25000 -0.11200
C 	C 	0.25000 0.02160 0.25000 0.07200
C 	C 	0.35680 0.75000 0.75000 0.16800
C 	C 	0.40100 0.75000 0.75000 -0.11300
C 	C 	0.47840 0.75000 0.75000 0.08200
C 	C 	0.85680 0.75000 0.25000 0.16900
C 	C 	0.90100 0.75000 0.25000 -0.11400
C 	C 	0.97840 0.75000 0.25000 0.09700
C 	C 	0.35680 0.25000 0.25000 0.16700
C 	C 	0.40100 0.25000 0.25000 -0.11300
C 	C 	0.47840 0.25000 0.25000 0.08200
C 	C 	0.85680 0.25000 0.75000 0.16900
C 	C 	0.90100 0.25000 0.75000 -0.11400
C 	C 	0.97840 0.25000 0.75000 0.09700
C 	C 	0.64320 0.75000 0.25000 0.16800
C 	C 	0.59900 0.75000 0.25000 -0.11300
C 	C 	0.52160 0.75000 0.25000 0.08200
C 	C 	0.14320 0.75000 0.75000 0.16800
C 	C 	0.09900 0.75000 0.75000 -0.11200
C 	C 	0.02160 0.75000 0.75000 0.07300
C 	C 	0.64320 0.25000 0.75000 0.16800
C 	C 	0.59900 0.25000 0.75000 -0.11300
C 	C 	0.52160 0.25000 0.75000 0.08200
C 	C 	0.14320 0.25000 0.25000 0.16700
C 	C 	0.09900 0.25000 0.25000 -0.11200
C 	C 	0.02160 0.25000 0.25000 0.07200
O 	O 	0.22170 0.72170 0.33320 -0.42700
O 	O 	0.22170 0.22170 0.83320 -0.42700
O 	O 	0.72170 0.72170 0.83320 -0.42700
O 	O 	0.77830 0.27830 0.33320 -0.42700
O 	O 	0.77830 0.77830 0.83320 -0.42600
O 	O 	0.77830 0.72170 0.66680 -0.42700
O 	O 	0.77830 0.22170 0.16680 -0.42700
O 	O 	0.22170 0.27830 0.66680 -0.42700
O 	O 	0.22170 0.77830 0.16680 -0.42700
O 	O 	0.72170 0.77830 0.66680 -0.42700
O 	O 	0.33320 0.22170 0.72170 -0.42700
O 	O 	0.83320 0.22170 0.22170 -0.42700
O 	O 	0.83320 0.72170 0.72170 -0.42700
O 	O 	0.33320 0.77830 0.27830 -0.42700
O 	O 	0.83320 0.77830 0.77830 -0.42600
O 	O 	0.66680 0.77830 0.72170 -0.42700
O 	O 	0.16680 0.77830 0.22170 -0.42700
O 	O 	0.66680 0.22170 0.27830 -0.42700
O 	O 	0.66680 0.72170 0.77830 -0.42700
O 	O 	0.16680 0.22170 0.77830 -0.42700
O 	O 	0.72170 0.33320 0.22170 -0.42700
O 	O 	0.72170 0.83320 0.72170 -0.42700
O 	O 	0.27830 0.33320 0.77830 -0.42700
O 	O 	0.27830 0.83320 0.27830 -0.42700
O 	O 	0.77830 0.83320 0.77830 -0.42600
O 	O 	0.72170 0.66680 0.77830 -0.42700
O 	O 	0.72170 0.16680 0.27830 -0.42700
O 	O 	0.27830 0.66680 0.22170 -0.42700
O 	O 	0.27830 0.16680 0.72170 -0.42700
O 	O 	0.77830 0.66680 0.72170 -0.42700
O 	O 	0.72170 0.22170 0.66680 -0.42700
O 	O 	0.72170 0.72170 0.16680 -0.42700
O 	O 	0.27830 0.77830 0.66680 -0.42700
O 	O 	0.27830 0.27830 0.16680 -0.42800
O 	O 	0.77830 0.77830 0.16680 -0.42700
O 	O 	0.72170 0.77830 0.33320 -0.42700
O 	O 	0.72170 0.27830 0.83320 -0.42700
O 	O 	0.27830 0.22170 0.33320 -0.42700
O 	O 	0.27830 0.72170 0.83320 -0.42700
O 	O 	0.77830 0.72170 0.33320 -0.42700
O 	O 	0.22170 0.33320 0.27830 -0.42700
O 	O 	0.22170 0.83320 0.77830 -0.42700
O 	O 	0.72170 0.33320 0.77830 -0.42700
O 	O 	0.77830 0.33320 0.72170 -0.42700
O 	O 	0.77830 0.83320 0.22170 -0.42700
O 	O 	0.77830 0.66680 0.27830 -0.42700
O 	O 	0.77830 0.16680 0.77830 -0.42700
O 	O 	0.22170 0.66680 0.72170 -0.42700
O 	O 	0.22170 0.16680 0.22170 -0.42800
O 	O 	0.72170 0.16680 0.72170 -0.42700
O 	O 	0.33320 0.72170 0.77830 -0.42700
O 	O 	0.83320 0.72170 0.27830 -0.42700
O 	O 	0.33320 0.27830 0.22170 -0.42700
O 	O 	0.33320 0.77830 0.72170 -0.42700
O 	O 	0.83320 0.27830 0.72170 -0.42700
O 	O 	0.66680 0.72170 0.22170 -0.42700
O 	O 	0.16680 0.72170 0.72170 -0.42700
O 	O 	0.66680 0.27830 0.77830 -0.42700
O 	O 	0.16680 0.27830 0.27830 -0.42800
O 	O 	0.16680 0.77830 0.77830 -0.42700
O 	O 	0.77830 0.27830 0.66680 -0.42700
O 	O 	0.22170 0.72170 0.66680 -0.42700
O 	O 	0.22170 0.22170 0.16680 -0.42800
O 	O 	0.22170 0.27830 0.33320 -0.42700
O 	O 	0.22170 0.77830 0.83320 -0.42700
O 	O 	0.77830 0.22170 0.83320 -0.42700
O 	O 	0.66680 0.77830 0.27830 -0.42700
O 	O 	0.66680 0.22170 0.72170 -0.42700
O 	O 	0.16680 0.22170 0.22170 -0.42800
O 	O 	0.33320 0.22170 0.27830 -0.42700
O 	O 	0.83320 0.22170 0.77830 -0.42700
O 	O 	0.83320 0.77830 0.22170 -0.42700
O 	O 	0.27830 0.66680 0.77830 -0.42700
O 	O 	0.27830 0.16680 0.27830 -0.42800
O 	O 	0.72170 0.66680 0.22170 -0.42700
O 	O 	0.27830 0.33320 0.22170 -0.42700
O 	O 	0.27830 0.83320 0.72170 -0.42700
O 	O 	0.72170 0.83320 0.27830 -0.42700
O 	O 	0.27830 0.77830 0.33320 -0.42700
O 	O 	0.27830 0.27830 0.83320 -0.42700
O 	O 	0.72170 0.22170 0.33320 -0.42700
O 	O 	0.27830 0.22170 0.66680 -0.42700
O 	O 	0.27830 0.72170 0.16680 -0.42700
O 	O 	0.72170 0.27830 0.16680 -0.42700
O 	O 	0.77830 0.16680 0.22170 -0.42700
O 	O 	0.22170 0.66680 0.27830 -0.42700
O 	O 	0.22170 0.16680 0.77830 -0.42700
O 	O 	0.22170 0.33320 0.72170 -0.42700
O 	O 	0.22170 0.83320 0.22170 -0.42700
O 	O 	0.77830 0.33320 0.27830 -0.42700
O 	O 	0.66680 0.27830 0.22170 -0.42700
O 	O 	0.16680 0.27830 0.72170 -0.42700
O 	O 	0.16680 0.72170 0.27830 -0.42700
O 	O 	0.33320 0.27830 0.77830 -0.42700
O 	O 	0.83320 0.27830 0.27830 -0.42700
O 	O 	0.33320 0.72170 0.22170 -0.42700
Zn	Zn	0.21710 0.71710 0.28290 1.24700
Zn	Zn	0.21710 0.21710 0.78290 1.24700
Zn	Zn	0.78290 0.28290 0.28290 1.24700
Zn	Zn	0.78290 0.78290 0.78290 1.24700
Zn	Zn	0.78290 0.71710 0.71710 1.24700
Zn	Zn	0.78290 0.21710 0.21710 1.24700
Zn	Zn	0.21710 0.28290 0.71710 1.24700
Zn	Zn	0.21710 0.78290 0.21710 1.24700
Zn	Zn	0.28290 0.21710 0.71710 1.24700
Zn	Zn	0.28290 0.78290 0.28290 1.24700
Zn	Zn	0.71710 0.78290 0.71710 1.24700
Zn	Zn	0.71710 0.21710 0.28290 1.24700
Zn	Zn	0.71710 0.28290 0.21710 1.24700
Zn	Zn	0.28290 0.28290 0.78290 1.24700
Zn	Zn	0.71710 0.71710 0.78290 1.24700
Zn	Zn	0.28290 0.71710 0.21710 1.24700
Zn	Zn	0.71710 0.21710 0.71710 1.24700
Zn	Zn	0.28290 0.78290 0.71710 1.24700
Zn	Zn	0.71710 0.78290 0.28290 1.24700
Zn	Zn	0.28290 0.21710 0.28290 1.24700
Zn	Zn	0.21710 0.28290 0.28290 1.24700
Zn	Zn	0.21710 0.78290 0.78290 1.24700
Zn	Zn	0.78290 0.28290 0.71710 1.24700
Zn	Zn	0.78290 0.78290 0.21710 1.24700
Zn	Zn	0.78290 0.71710 0.28290 1.24700
Zn	Zn	0.78290 0.21710 0.78290 1.24700
Zn	Zn	0.21710 0.71710 0.71710 1.24700
Zn	Zn	0.21710 0.21710 0.21710 1.24700
Zn	Zn	0.28290 0.71710 0.78290 1.24700
Zn	Zn	0.28290 0.28290 0.21710 1.24700
Zn	Zn	0.71710 0.71710 0.21710 1.24700
Zn	Zn	0.71710 0.28290 0.78290 1.24700
O 	O 	0.25000 0.75000 0.25000 -0.94500
O 	O 	0.75000 0.25000 0.25000 -0.94500
O 	O 	0.75000 0.75000 0.75000 -0.94500
O 	O 	0.25000 0.25000 0.75000 -0.94500
O 	O 	0.75000 0.25000 0.75000 -0.94500
O 	O 	0.25000 0.75000 0.75000 -0.94500
O 	O 	0.25000 0.25000 0.25000 -0.94500
O 	O 	0.75000 0.75000 0.25000 -0.94500
Ir	Ir	0.27300 0.81390 0.50000 0.29500
Ir	Ir	0.27300 0.31390 -0.00000 0.28100
Ir	Ir	0.77300 0.81390 -0.00000 0.28300
Ir	Ir	0.77300 0.31390 0.50000 0.29400
Ir	Ir	0.72700 0.18610 0.50000 0.29300
Ir	Ir	0.72700 0.68610 -0.00000 0.28200
Ir	Ir	0.22700 0.18610 -0.00000 0.28100
Ir	Ir	0.22700 0.68610 0.50000 0.29400
Ir	Ir	0.72700 0.81390 0.50000 0.29600
Ir	Ir	0.72700 0.31390 -0.00000 0.28300
Ir	Ir	0.22700 0.81390 -0.00000 0.28300
Ir	Ir	0.22700 0.31390 0.50000 0.29400
Ir	Ir	0.27300 0.18610 0.50000 0.29200
Ir	Ir	0.27300 0.68610 -0.00000 0.28100
Ir	Ir	0.77300 0.18610 -0.00000 0.28100
Ir	Ir	0.77300 0.68610 0.50000 0.29300
Ir	Ir	0.50000 0.27300 0.81390 0.29500
Ir	Ir	0.50000 0.77300 0.31390 0.29400
Ir	Ir	0.00000 0.27300 0.31390 0.28100
Ir	Ir	0.00000 0.77300 0.81390 0.28300
Ir	Ir	0.50000 0.72700 0.18610 0.29300
Ir	Ir	0.50000 0.22700 0.68610 0.29400
Ir	Ir	-0.00000 0.72700 0.68610 0.28200
Ir	Ir	0.00000 0.22700 0.18610 0.28100
Ir	Ir	0.50000 0.72700 0.81390 0.29600
Ir	Ir	0.50000 0.22700 0.31390 0.29400
Ir	Ir	0.00000 0.72700 0.31390 0.28300
Ir	Ir	0.00000 0.22700 0.81390 0.28300
Ir	Ir	0.50000 0.27300 0.18610 0.29200
Ir	Ir	0.50000 0.77300 0.68610 0.29300
Ir	Ir	-0.00000 0.27300 0.68610 0.28100
Ir	Ir	-0.00000 0.77300 0.18610 0.28100
Ir	Ir	0.81390 0.50000 0.27300 0.29500
Ir	Ir	0.81390 0.00000 0.77300 0.28300
Ir	Ir	0.31390 0.50000 0.77300 0.29400
Ir	Ir	0.31390 0.00000 0.27300 0.28100
Ir	Ir	0.18610 0.50000 0.72700 0.29300
Ir	Ir	0.18610 0.00000 0.22700 0.28100
Ir	Ir	0.68610 0.50000 0.22700 0.29400
Ir	Ir	0.68610 -0.00000 0.72700 0.28200
Ir	Ir	0.81390 0.50000 0.72700 0.29600
Ir	Ir	0.81390 0.00000 0.22700 0.28300
Ir	Ir	0.31390 0.50000 0.22700 0.29400
Ir	Ir	0.31390 -0.00000 0.72700 0.28300
Ir	Ir	0.18610 0.50000 0.27300 0.29200
Ir	Ir	0.18610 0.00000 0.77300 0.28100
Ir	Ir	0.68610 0.50000 0.77300 0.29300
Ir	Ir	0.68610 0.00000 0.27300 0.28100
Ir	Ir	0.81390 0.27300 0.50000 0.29500
Ir	Ir	0.81390 0.77300 -0.00000 0.28300
Ir	Ir	0.31390 0.27300 -0.00000 0.28100
Ir	Ir	0.31390 0.77300 0.50000 0.29400
Ir	Ir	0.18610 0.72700 0.50000 0.29300
Ir	Ir	0.18610 0.22700 -0.00000 0.28100
Ir	Ir	0.68610 0.72700 -0.00000 0.28200
Ir	Ir	0.68610 0.22700 0.50000 0.29400
Ir	Ir	0.81390 0.72700 0.50000 0.29600
Ir	Ir	0.81390 0.22700 -0.00000 0.28300
Ir	Ir	0.31390 0.72700 -0.00000 0.28300
Ir	Ir	0.31390 0.22700 0.50000 0.29400
Ir	Ir	0.18610 0.27300 0.50000 0.29200
Ir	Ir	0.18610 0.77300 -0.00000 0.28100
Ir	Ir	0.68610 0.27300 -0.00000 0.28100
Ir	Ir	0.68610 0.77300 0.50000 0.29300
Ir	Ir	0.27300 0.50000 0.18610 0.29200
Ir	Ir	0.27300 0.00000 0.68610 0.28100
Ir	Ir	0.77300 0.50000 0.68610 0.29300
Ir	Ir	0.77300 -0.00000 0.18610 0.28100
Ir	Ir	0.72700 0.50000 0.81390 0.29600
Ir	Ir	0.72700 0.00000 0.31390 0.28300
Ir	Ir	0.22700 0.50000 0.31390 0.29400
Ir	Ir	0.22700 0.00000 0.81390 0.28300
Ir	Ir	0.72700 0.50000 0.18610 0.29300
Ir	Ir	0.72700 0.00000 0.68610 0.28200
Ir	Ir	0.22700 0.50000 0.68610 0.29400
Ir	Ir	0.22700 -0.00000 0.18610 0.28100
Ir	Ir	0.27300 0.50000 0.81390 0.29500
Ir	Ir	0.27300 0.00000 0.31390 0.28100
Ir	Ir	0.77300 0.50000 0.31390 0.29400
Ir	Ir	0.77300 0.00000 0.81390 0.28300
Ir	Ir	0.50000 0.81390 0.72700 0.29600
Ir	Ir	0.50000 0.31390 0.22700 0.29400
Ir	Ir	0.00000 0.81390 0.22700 0.28300
Ir	Ir	0.00000 0.31390 0.72700 0.28300
Ir	Ir	0.50000 0.18610 0.27300 0.29200
Ir	Ir	0.50000 0.68610 0.77300 0.29300
Ir	Ir	-0.00000 0.18610 0.77300 0.28100
Ir	Ir	-0.00000 0.68610 0.27300 0.28100
Ir	Ir	0.50000 0.81390 0.27300 0.29500
Ir	Ir	0.50000 0.31390 0.77300 0.29400
Ir	Ir	0.00000 0.81390 0.77300 0.28300
Ir	Ir	0.00000 0.31390 0.27300 0.28100
Ir	Ir	0.50000 0.18610 0.72700 0.29300
Ir	Ir	0.50000 0.68610 0.22700 0.29400
Ir	Ir	-0.00000 0.18610 0.22700 0.28100
Ir	Ir	-0.00000 0.68610 0.72700 0.28200
