data_crystal

_cell_length_a 28.09560
_cell_length_b 28.09560
_cell_length_c 64.09220
_cell_angle_alpha 90.00000
_cell_angle_beta  90.00000
_cell_angle_gamma 120.00000

_symmetry_space_group_name_	'P 1'
_symmetry_space_group_name_H-M	'P 1'

loop_
_symmetry_equiv_pos_as_xyz
  x,y,z

loop_
_atom_site_label
_atom_site_type_symbol
_atom_site_fract_x
_atom_site_fract_y
_atom_site_fract_z
_atom_site_charge
Rb	Rb	0.78724 0.90110 0.14256 0.69000
O 	O 	0.72650 0.18650 0.10710 -0.30600
C 	C 	0.57870 0.02590 0.06864 0.03200
Rb	Rb	0.58794 0.78872 0.20662 0.67900
O 	O 	0.68310 0.21800 0.09320 -0.25800
C 	C 	0.61340 0.02930 0.08470 0.03800
Rb	Rb	0.54490 0.08557 0.11973 0.68700
O 	O 	0.54610 0.97610 0.05788 -0.19100
C 	C 	0.64560 0.07650 0.09300 -0.07900
H 	H 	0.66900 0.07780 0.10360 0.03000
Rb	Rb	0.43666 0.87523 0.06157 0.66800
O 	O 	0.38550 0.92090 0.00050 -0.35400
C 	C 	0.64810 0.12800 0.08720 -0.10700
Rb	Rb	0.77240 0.14490 0.13378 0.42400
O 	O 	0.31050 0.88290 0.02060 -0.26200
C 	C 	0.61140 0.12260 0.07131 -0.06700
H 	H 	0.60970 0.15340 0.06700 0.06900
O 	O 	0.47820 0.06390 0.08209 -0.18400
C 	C 	0.57670 0.07100 0.06142 0.04500
O 	O 	0.42650 0.10300 0.15760 -0.21100
C 	C 	0.68620 0.18010 0.09650 0.35500
O 	O 	0.45850 0.05380 0.17710 -0.20700
C 	C 	0.57450 0.96760 0.04070 -0.23800
H 	H 	0.59550 0.95170 0.04590 0.10700
H 	H 	0.54820 0.94330 0.03070 0.10200
H 	H 	0.59870 0.00210 0.03420 0.10800
O 	O 	0.39470 0.90310 0.09930 -0.18600
C 	C 	0.53670 0.06960 0.04500 -0.21400
H 	H 	0.54810 0.06330 0.03150 0.10700
H 	H 	0.53960 0.10540 0.04450 0.09900
O 	O 	0.44350 0.73710 0.09710 -0.24700
C 	C 	0.47750 0.02720 0.04820 0.05900
O 	O 	0.51150 0.76740 0.07580 -0.25900
C 	C 	0.44900 0.99320 0.03310 -0.12000
H 	H 	0.46660 0.99470 0.02070 0.07400
O 	O 	0.55060 0.98680 0.12384 -0.20700
C 	C 	0.39180 0.95380 0.03520 -0.04000
C 	C 	0.36650 0.95220 0.05430 -0.11000
H 	H 	0.32940 0.92710 0.05630 0.07700
C 	C 	0.39690 0.98790 0.07010 0.05400
C 	C 	0.45110 0.02730 0.06750 0.04200
C 	C 	0.36030 0.91540 0.01570 0.31800
C 	C 	0.47170 0.11080 0.07800 -0.27400
H 	H 	0.43900 0.10580 0.08470 0.13000
H 	H 	0.50300 0.14340 0.08320 0.13100
H 	H 	0.46860 0.11430 0.06320 0.11900
O 	O 	0.57000 0.19200 0.11320 -0.13500
C 	C 	0.36790 0.98770 0.09120 -0.23200
H 	H 	0.33060 0.95700 0.09060 0.10300
H 	H 	0.36530 0.02090 0.09140 0.10900
O 	O 	0.86300 0.02200 0.29730 -0.12600
C 	C 	0.39190 0.98440 0.11140 0.10700
C 	C 	0.40310 0.02220 0.12560 -0.18400
H 	H 	0.39710 0.05120 0.12270 0.11300
C 	C 	0.42330 0.01940 0.14440 0.03300
C 	C 	0.43710 0.97430 0.14470 -0.19000
H 	H 	0.45380 0.97330 0.15710 0.10500
O 	O 	0.83370 0.23260 0.12740 -0.21700
C 	C 	0.43120 0.93740 0.13200 0.14000
O 	O 	0.84340 0.11000 0.15550 -0.17800
C 	C 	0.40350 0.93930 0.11390 0.00800
O 	O 	0.85500 0.13110 0.15720 -0.00700
C 	C 	0.43350 0.06360 0.16030 0.20000
O 	O 	0.76920 0.04610 0.11022 -0.29200
C 	C 	0.34170 0.85610 0.10410 -0.26300
H 	H 	0.31510 0.85340 0.09410 0.11400
H 	H 	0.34420 0.82320 0.10370 0.11500
H 	H 	0.33050 0.86030 0.11780 0.12000
O 	O 	0.74200 0.97170 0.09020 -0.20600
C 	C 	0.44850 0.89970 0.13790 -0.29100
H 	H 	0.47020 0.91290 0.15050 0.12500
H 	H 	0.41640 0.86460 0.14100 0.13500
O 	O 	0.77000 0.96500 0.08970 -0.01600
C 	C 	0.48340 0.89100 0.12080 0.07600
O 	O 	0.59900 0.85930 0.17148 -0.19700
C 	C 	0.47150 0.83860 0.11130 -0.16400
H 	H 	0.43940 0.80690 0.11520 0.10000
O 	O 	0.43930 0.64770 0.16910 -0.24000
C 	C 	0.50240 0.83420 0.09810 0.03700
O 	O 	0.46380 0.60900 0.19110 -0.29900
C 	C 	0.54280 0.87390 0.09240 -0.15500
H 	H 	0.56400 0.86910 0.08230 0.08600
O 	O 	0.48280 0.61000 0.18890 0.09600
C 	C 	0.56280 0.93170 0.10000 0.05800
O 	O 	0.68390 0.79480 0.14028 -0.19100
C 	C 	0.53290 0.93690 0.11490 0.03100
O 	O 	0.88910 0.81500 0.14800 -0.20400
C 	C 	0.48640 0.77380 0.08960 0.26200
O 	O 	0.93240 0.88890 0.17120 -0.19700
C 	C 	0.58490 0.99260 0.14060 -0.16800
H 	H 	0.61010 0.98070 0.13650 0.08200
H 	H 	0.60510 0.03050 0.14470 0.06400
H 	H 	0.56310 0.97070 0.15210 0.08000
O 	O 	0.68670 0.78220 0.20338 -0.18400
C 	C 	0.61550 0.97820 0.09180 -0.20600
H 	H 	0.64330 0.98920 0.10260 0.09400
H 	H 	0.62730 0.96490 0.08000 0.09800
O 	O 	0.65170 0.88110 0.27170 -0.23500
C 	C 	0.67730 0.94650 0.16100 0.06200
O 	O 	0.59320 0.90040 0.25520 -0.22700
C 	C 	0.71080 0.97910 0.14500 -0.10800
H 	H 	0.73600 0.01580 0.14760 0.05900
O 	O 	0.76340 0.93950 0.18313 -0.17600
C 	C 	0.70780 0.95830 0.12490 -0.03200
C 	C 	0.66850 0.90160 0.12080 -0.12200
H 	H 	0.66660 0.88730 0.10760 0.08100
C 	C 	0.63360 0.86810 0.13619 0.06600
O 	O 	0.52780 0.67560 0.22480 -0.06700
C 	C 	0.63720 0.89240 0.15620 0.02500
O 	O 	0.55150 0.67390 0.22170 -0.11100
C 	C 	0.74270 0.99580 0.10710 0.27500
C 	C 	0.54980 0.86130 0.17080 -0.20100
H 	H 	0.55750 0.89780 0.17400 0.09100
H 	H 	0.52440 0.83610 0.18090 0.08000
H 	H 	0.53400 0.85110 0.15710 0.09700
O 	O 	0.90550 0.97150 0.15620 0.45100
C 	C 	0.59010 0.80880 0.13180 -0.22300
H 	H 	0.55430 0.80600 0.13240 0.10300
H 	H 	0.59520 0.79990 0.11760 0.09900
O 	O 	0.90420 0.95720 0.15000 -0.58400
C 	C 	0.59000 0.76650 0.14626 0.06400
O 	O 	0.85130 0.01460 0.12680 -0.16800
C 	C 	0.54020 0.72920 0.15510 -0.12700
H 	H 	0.50910 0.73170 0.15210 0.08500
O 	O 	0.84630 0.02570 0.13330 0.02400
C 	C 	0.53560 0.68700 0.16886 -0.02200
C 	C 	0.58320 0.68510 0.17320 -0.12700
H 	H 	0.58110 0.65810 0.18210 0.08700
C 	C 	0.63230 0.72140 0.16470 0.06900
C 	C 	0.63680 0.76110 0.15045 0.03000
C 	C 	0.47650 0.64710 0.17680 0.26800
C 	C 	0.68740 0.77090 0.12060 -0.24300
H 	H 	0.67980 0.73400 0.12300 0.11300
H 	H 	0.72360 0.79250 0.11490 0.10200
H 	H 	0.66090 0.77040 0.11100 0.10400
C 	C 	0.68240 0.71620 0.16960 -0.23100
H 	H 	0.69110 0.70200 0.15720 0.10800
H 	H 	0.67240 0.68880 0.18050 0.10300
C 	C 	0.73520 0.76850 0.17650 0.08200
C 	C 	0.78640 0.78630 0.16760 -0.16900
H 	H 	0.78800 0.76650 0.15630 0.10400
C 	C 	0.83420 0.83000 0.17390 0.05100
C 	C 	0.83240 0.86140 0.18870 -0.15600
H 	H 	0.86450 0.89330 0.19250 0.10200
C 	C 	0.78020 0.84720 0.19950 0.08500
C 	C 	0.73470 0.80030 0.19290 0.01500
C 	C 	0.89110 0.84460 0.16140 0.24300
C 	C 	0.68010 0.74760 0.22140 -0.27400
H 	H 	0.69960 0.72820 0.21900 0.12100
H 	H 	0.64180 0.72170 0.22340 0.12000
H 	H 	0.69440 0.77020 0.23360 0.11000
C 	C 	0.78030 0.88060 0.21740 -0.24900
H 	H 	0.81630 0.91330 0.21820 0.11700
H 	H 	0.77520 0.85970 0.23010 0.11600
C 	C 	0.73770 0.89830 0.21696 0.07700
C 	C 	0.70540 0.88920 0.23437 -0.12800
H 	H 	0.71090 0.87210 0.24580 0.07800
C 	C 	0.66500 0.90420 0.23600 -0.03400
Rb	Rb	0.78358 0.14122 0.12838 0.42200
C 	C 	0.65830 0.92980 0.21859 -0.12000
H 	H 	0.63120 0.93960 0.21880 0.07600
C 	C 	0.69070 0.94140 0.20075 0.06400
C 	C 	0.72760 0.92520 0.20040 0.00900
C 	C 	0.63660 0.89350 0.25520 0.23800
C 	C 	0.81380 0.99390 0.18430 -0.26100
H 	H 	0.80440 0.02220 0.18300 0.12000
H 	H 	0.83830 0.99720 0.17320 0.11100
H 	H 	0.83150 0.99750 0.19750 0.11300
C 	C 	0.68180 0.97010 0.18190 -0.21700
H 	H 	0.64860 0.97160 0.18440 0.09800
H 	H 	0.71210 0.00770 0.18160 0.09700
Rb	Rb	0.45391 0.23443 0.47589 0.68800
O 	O 	0.39317 0.51983 0.44043 -0.30700
C 	C 	0.24537 0.35923 0.40197 0.03100
Rb	Rb	0.25461 0.12205 0.53995 0.67800
O 	O 	0.34977 0.55133 0.42653 -0.25900
C 	C 	0.28007 0.36263 0.41803 0.04100
Rb	Rb	0.21157 0.41890 0.45306 0.68700
O 	O 	0.21277 0.30943 0.39121 -0.19100
C 	C 	0.31227 0.40983 0.42633 -0.08200
H 	H 	0.33567 0.41113 0.43693 0.03000
Rb	Rb	0.10333 0.20856 0.39490 0.66700
O 	O 	0.05217 0.25423 0.33383 -0.35600
C 	C 	0.31477 0.46133 0.42053 -0.10700
Rb	Rb	0.43907 0.47823 0.46711 0.42300
O 	O 	0.97717 0.21623 0.35393 -0.26600
C 	C 	0.27807 0.45593 0.40464 -0.06900
H 	H 	0.27637 0.48673 0.40033 0.06800
O 	O 	0.14487 0.39723 0.41542 -0.18500
C 	C 	0.24337 0.40433 0.39475 0.04400
O 	O 	0.09317 0.43633 0.49093 -0.21100
C 	C 	0.35287 0.51343 0.42983 0.35400
O 	O 	0.12517 0.38713 0.51043 -0.20600
C 	C 	0.24117 0.30093 0.37403 -0.25000
H 	H 	0.26217 0.28503 0.37923 0.10900
H 	H 	0.21487 0.27663 0.36403 0.10400
H 	H 	0.26537 0.33543 0.36753 0.11200
O 	O 	0.06137 0.23643 0.43263 -0.19100
C 	C 	0.20337 0.40293 0.37833 -0.21600
H 	H 	0.21477 0.39663 0.36483 0.10600
H 	H 	0.20627 0.43873 0.37783 0.09800
O 	O 	0.11017 0.07043 0.43043 -0.24800
C 	C 	0.14417 0.36053 0.38153 0.06100
O 	O 	0.17817 0.10073 0.40913 -0.26000
C 	C 	0.11567 0.32653 0.36643 -0.12300
H 	H 	0.13327 0.32803 0.35403 0.07300
O 	O 	0.21727 0.32013 0.45717 -0.20600
C 	C 	0.05847 0.28713 0.36853 -0.04400
C 	C 	0.03317 0.28553 0.38763 -0.10300
H 	H 	0.99607 0.26043 0.38963 0.07100
C 	C 	0.06357 0.32123 0.40343 0.04600
C 	C 	0.11777 0.36063 0.40083 0.04500
C 	C 	0.02697 0.24873 0.34903 0.32200
C 	C 	0.13837 0.44413 0.41133 -0.27500
H 	H 	0.10567 0.43913 0.41803 0.13000
H 	H 	0.16967 0.47673 0.41653 0.13000
H 	H 	0.13527 0.44763 0.39653 0.11800
O 	O 	0.23667 0.52533 0.44653 -0.13600
C 	C 	0.03457 0.32103 0.42453 -0.22800
H 	H 	0.99727 0.29033 0.42393 0.09900
H 	H 	0.03197 0.35423 0.42473 0.10900
O 	O 	0.52967 0.35533 0.63063 -0.12600
C 	C 	0.05857 0.31773 0.44473 0.10000
C 	C 	0.06977 0.35553 0.45893 -0.17900
H 	H 	0.06377 0.38453 0.45603 0.11100
C 	C 	0.08997 0.35273 0.47773 0.03300
C 	C 	0.10377 0.30763 0.47803 -0.19300
H 	H 	0.12047 0.30663 0.49043 0.10400
O 	O 	0.50037 0.56593 0.46073 -0.21800
C 	C 	0.09787 0.27073 0.46533 0.13800
O 	O 	0.51007 0.44333 0.48883 -0.17900
C 	C 	0.07017 0.27263 0.44723 0.01000
O 	O 	0.52167 0.46443 0.49053 -0.00700
C 	C 	0.10017 0.39693 0.49363 0.19900
O 	O 	0.43587 0.37943 0.44355 -0.28900
C 	C 	0.00837 0.18943 0.43743 -0.23900
H 	H 	0.98177 0.18673 0.42743 0.10400
H 	H 	0.01087 0.15653 0.43703 0.10800
H 	H 	0.99717 0.19363 0.45113 0.11000
O 	O 	0.40867 0.30503 0.42353 -0.20500
C 	C 	0.11517 0.23303 0.47123 -0.29200
H 	H 	0.13687 0.24623 0.48383 0.12300
H 	H 	0.08307 0.19793 0.47433 0.13500
O 	O 	0.43667 0.29833 0.42303 -0.01900
C 	C 	0.15007 0.22433 0.45413 0.07600
O 	O 	0.26567 0.19263 0.50481 -0.19700
C 	C 	0.13817 0.17193 0.44463 -0.16400
H 	H 	0.10607 0.14023 0.44853 0.10100
O 	O 	0.10597 0.98103 0.50243 -0.23900
C 	C 	0.16907 0.16753 0.43143 0.03800
O 	O 	0.13047 0.94233 0.52443 -0.29800
C 	C 	0.20947 0.20723 0.42573 -0.15700
H 	H 	0.23067 0.20243 0.41563 0.08700
O 	O 	0.14947 0.94333 0.52223 0.09600
C 	C 	0.22947 0.26503 0.43333 0.05900
O 	O 	0.35057 0.12813 0.47361 -0.19100
C 	C 	0.19957 0.27023 0.44823 0.02900
O 	O 	0.55577 0.14833 0.48133 -0.20400
C 	C 	0.15307 0.10713 0.42293 0.26100
O 	O 	0.59907 0.22223 0.50453 -0.19700
C 	C 	0.25157 0.32593 0.47393 -0.18000
H 	H 	0.27677 0.31403 0.46983 0.08500
H 	H 	0.27177 0.36383 0.47803 0.07000
H 	H 	0.22977 0.30403 0.48543 0.08300
O 	O 	0.35337 0.11553 0.53671 -0.18400
C 	C 	0.28217 0.31153 0.42513 -0.21000
H 	H 	0.30997 0.32253 0.43593 0.09400
H 	H 	0.29397 0.29823 0.41333 0.09900
O 	O 	0.31837 0.21443 0.60503 -0.23500
C 	C 	0.34397 0.27983 0.49433 0.06800
O 	O 	0.25987 0.23373 0.58853 -0.22700
C 	C 	0.37747 0.31243 0.47833 -0.11700
H 	H 	0.40267 0.34913 0.48093 0.06400
O 	O 	0.43007 0.27283 0.51646 -0.17400
C 	C 	0.37447 0.29163 0.45823 -0.02800
C 	C 	0.33517 0.23493 0.45413 -0.12500
H 	H 	0.33327 0.22063 0.44093 0.08200
C 	C 	0.30027 0.20143 0.46952 0.06800
O 	O 	0.19447 0.00893 0.55813 -0.06800
C 	C 	0.30387 0.22573 0.48953 0.02200
O 	O 	0.21817 0.00723 0.55503 -0.11100
C 	C 	0.40937 0.32913 0.44043 0.26900
C 	C 	0.21647 0.19463 0.50413 -0.20000
H 	H 	0.22417 0.23113 0.50733 0.09100
H 	H 	0.19107 0.16943 0.51423 0.07900
H 	H 	0.20067 0.18443 0.49043 0.09700
O 	O 	0.57217 0.30483 0.48953 0.43800
C 	C 	0.25677 0.14213 0.46513 -0.22500
H 	H 	0.22097 0.13933 0.46573 0.10300
H 	H 	0.26187 0.13323 0.45093 0.09900
O 	O 	0.57087 0.29053 0.48333 -0.57200
C 	C 	0.25667 0.09983 0.47959 0.06500
O 	O 	0.51797 0.34793 0.46013 -0.16300
C 	C 	0.20687 0.06253 0.48843 -0.12800
H 	H 	0.17577 0.06503 0.48543 0.08500
O 	O 	0.51297 0.35903 0.46663 0.02100
C 	C 	0.20227 0.02033 0.50219 -0.02200
C 	C 	0.24987 0.01843 0.50653 -0.13200
H 	H 	0.24777 0.99143 0.51543 0.09100
C 	C 	0.29897 0.05473 0.49803 0.07100
C 	C 	0.30347 0.09443 0.48378 0.02900
C 	C 	0.14317 0.98043 0.51013 0.27000
C 	C 	0.35407 0.10423 0.45393 -0.24300
H 	H 	0.34647 0.06733 0.45633 0.11300
H 	H 	0.39027 0.12583 0.44823 0.10100
H 	H 	0.32757 0.10373 0.44433 0.10400
C 	C 	0.34907 0.04953 0.50293 -0.23200
H 	H 	0.35777 0.03533 0.49053 0.10700
H 	H 	0.33907 0.02213 0.51383 0.10300
C 	C 	0.40187 0.10183 0.50983 0.08200
C 	C 	0.45307 0.11963 0.50093 -0.16900
H 	H 	0.45467 0.09983 0.48963 0.10400
C 	C 	0.50087 0.16333 0.50723 0.05100
C 	C 	0.49907 0.19473 0.52203 -0.15700
H 	H 	0.53117 0.22663 0.52583 0.10200
C 	C 	0.44687 0.18053 0.53283 0.08500
C 	C 	0.40137 0.13363 0.52623 0.01500
C 	C 	0.55777 0.17793 0.49473 0.24300
C 	C 	0.34677 0.08093 0.55473 -0.27400
H 	H 	0.36627 0.06153 0.55233 0.12000
H 	H 	0.30847 0.05503 0.55673 0.12000
H 	H 	0.36107 0.10353 0.56693 0.11000
C 	C 	0.44697 0.21393 0.55073 -0.25000
H 	H 	0.48297 0.24663 0.55153 0.11700
H 	H 	0.44187 0.19303 0.56343 0.11600
C 	C 	0.40437 0.23163 0.55029 0.07800
C 	C 	0.37207 0.22253 0.56770 -0.12900
H 	H 	0.37757 0.20543 0.57913 0.07800
C 	C 	0.33167 0.23753 0.56933 -0.03300
Rb	Rb	0.45025 0.47455 0.46171 0.42200
C 	C 	0.32497 0.26313 0.55192 -0.12300
H 	H 	0.29787 0.27293 0.55213 0.07700
C 	C 	0.35737 0.27473 0.53408 0.06700
C 	C 	0.39427 0.25853 0.53373 0.00700
C 	C 	0.30327 0.22683 0.58853 0.23700
C 	C 	0.48047 0.32723 0.51763 -0.27200
H 	H 	0.47107 0.35553 0.51633 0.12500
H 	H 	0.50497 0.33053 0.50653 0.11400
H 	H 	0.49817 0.33083 0.53083 0.11500
C 	C 	0.34847 0.30343 0.51523 -0.22700
H 	H 	0.31527 0.30493 0.51773 0.10000
H 	H 	0.37877 0.34103 0.51493 0.10100
Rb	Rb	0.12057 0.56777 0.80923 0.68800
O 	O 	0.05983 0.85317 0.77377 -0.30700
C 	C 	0.91203 0.69257 0.73531 0.03100
Rb	Rb	0.92127 0.45539 0.87329 0.67800
O 	O 	0.01643 0.88467 0.75987 -0.25800
C 	C 	0.94673 0.69597 0.75137 0.04300
Rb	Rb	0.87823 0.75224 0.78640 0.68700
O 	O 	0.87943 0.64277 0.72455 -0.19200
C 	C 	0.97893 0.74317 0.75967 -0.08700
H 	H 	0.00233 0.74447 0.77027 0.03400
Rb	Rb	0.76999 0.54190 0.72824 0.66700
O 	O 	0.71883 0.58757 0.66717 -0.35500
C 	C 	0.98143 0.79467 0.75387 -0.10800
Rb	Rb	0.10573 0.81157 0.80045 0.42300
O 	O 	0.64383 0.54957 0.68727 -0.26300
C 	C 	0.94473 0.78927 0.73798 -0.06900
H 	H 	0.94303 0.82007 0.73367 0.06800
O 	O 	0.81153 0.73057 0.74876 -0.18400
C 	C 	0.91003 0.73767 0.72809 0.04500
O 	O 	0.75983 0.76967 0.82427 -0.21100
C 	C 	0.01953 0.84677 0.76317 0.35600
O 	O 	0.79183 0.72047 0.84377 -0.20700
C 	C 	0.90783 0.63427 0.70737 -0.24800
H 	H 	0.92883 0.61837 0.71257 0.10800
H 	H 	0.88153 0.60997 0.69737 0.10300
H 	H 	0.93203 0.66877 0.70087 0.11100
O 	O 	0.72803 0.56977 0.76597 -0.18700
C 	C 	0.87003 0.73627 0.71167 -0.21700
H 	H 	0.88143 0.72997 0.69817 0.10700
H 	H 	0.87293 0.77207 0.71117 0.09900
O 	O 	0.77683 0.40377 0.76377 -0.24800
C 	C 	0.81083 0.69387 0.71487 0.06300
O 	O 	0.84483 0.43407 0.74247 -0.26000
C 	C 	0.78233 0.65987 0.69977 -0.12600
H 	H 	0.79993 0.66137 0.68737 0.07400
O 	O 	0.88393 0.65347 0.79051 -0.20700
C 	C 	0.72513 0.62047 0.70187 -0.04000
C 	C 	0.69983 0.61887 0.72097 -0.11200
H 	H 	0.66273 0.59377 0.72297 0.07600
C 	C 	0.73023 0.65457 0.73677 0.05100
C 	C 	0.78443 0.69397 0.73417 0.04200
C 	C 	0.69363 0.58207 0.68237 0.31700
C 	C 	0.80503 0.77747 0.74467 -0.27500
H 	H 	0.77233 0.77247 0.75137 0.13000
H 	H 	0.83633 0.81007 0.74987 0.13000
H 	H 	0.80193 0.78097 0.72987 0.11800
O 	O 	0.90333 0.85867 0.77987 -0.13600
C 	C 	0.70123 0.65437 0.75787 -0.23700
H 	H 	0.66393 0.62367 0.75727 0.10300
H 	H 	0.69863 0.68757 0.75807 0.11100
O 	O 	0.19633 0.68867 0.96397 -0.12600
C 	C 	0.72523 0.65107 0.77807 0.10400
C 	C 	0.73643 0.68887 0.79227 -0.18200
H 	H 	0.73043 0.71787 0.78937 0.11100
C 	C 	0.75663 0.68607 0.81107 0.03400
C 	C 	0.77043 0.64097 0.81137 -0.19400
H 	H 	0.78713 0.63997 0.82377 0.10500
O 	O 	0.16703 0.89927 0.79407 -0.21700
C 	C 	0.76453 0.60407 0.79867 0.14000
O 	O 	0.17673 0.77667 0.82217 -0.17900
C 	C 	0.73683 0.60597 0.78057 0.00700
O 	O 	0.18833 0.79777 0.82387 -0.00800
C 	C 	0.76683 0.73027 0.82697 0.19900
O 	O 	0.10253 0.71277 0.77689 -0.29000
C 	C 	0.67503 0.52277 0.77077 -0.26300
H 	H 	0.64843 0.52007 0.76077 0.11200
H 	H 	0.67753 0.48987 0.77037 0.11400
H 	H 	0.66383 0.52697 0.78447 0.11900
O 	O 	0.07533 0.63837 0.75687 -0.20500
C 	C 	0.78183 0.56637 0.80457 -0.29300
H 	H 	0.80353 0.57957 0.81717 0.12400
H 	H 	0.74973 0.53127 0.80767 0.13400
O 	O 	0.10333 0.63167 0.75637 -0.01900
C 	C 	0.81673 0.55767 0.78747 0.07600
O 	O 	0.93233 0.52597 0.83815 -0.19700
C 	C 	0.80483 0.50527 0.77797 -0.16500
H 	H 	0.77273 0.47357 0.78187 0.10000
O 	O 	0.77263 0.31437 0.83577 -0.24000
C 	C 	0.83573 0.50087 0.76477 0.03800
O 	O 	0.79713 0.27567 0.85777 -0.29900
C 	C 	0.87613 0.54057 0.75907 -0.15700
H 	H 	0.89733 0.53577 0.74897 0.08600
O 	O 	0.81613 0.27667 0.85557 0.09600
C 	C 	0.89613 0.59837 0.76667 0.05900
O 	O 	0.01723 0.46147 0.80695 -0.19100
C 	C 	0.86623 0.60357 0.78157 0.02900
O 	O 	0.22243 0.48167 0.81467 -0.20400
C 	C 	0.81973 0.44047 0.75627 0.26100
O 	O 	0.26573 0.55557 0.83787 -0.19700
C 	C 	0.91823 0.65927 0.80727 -0.17800
H 	H 	0.94343 0.64737 0.80317 0.08400
H 	H 	0.93843 0.69717 0.81137 0.06900
H 	H 	0.89643 0.63737 0.81877 0.08300
O 	O 	0.02003 0.44887 0.87005 -0.18500
C 	C 	0.94883 0.64487 0.75847 -0.21100
H 	H 	0.97663 0.65587 0.76927 0.09300
H 	H 	0.96063 0.63157 0.74667 0.09800
O 	O 	0.98503 0.54777 0.93837 -0.23700
C 	C 	0.01063 0.61317 0.82767 0.06800
O 	O 	0.92653 0.56707 0.92187 -0.22800
C 	C 	0.04413 0.64577 0.81167 -0.11500
H 	H 	0.06933 0.68247 0.81427 0.06300
O 	O 	0.09673 0.60617 0.84980 -0.17400
C 	C 	0.04113 0.62497 0.79157 -0.03200
C 	C 	0.00183 0.56827 0.78747 -0.11400
H 	H 	0.99993 0.55397 0.77427 0.07600
C 	C 	0.96693 0.53477 0.80286 0.06100
O 	O 	0.86113 0.34227 0.89147 -0.06700
C 	C 	0.97053 0.55907 0.82287 0.02200
O 	O 	0.88483 0.34057 0.88837 -0.11100
C 	C 	0.07603 0.66247 0.77377 0.27100
C 	C 	0.88313 0.52797 0.83747 -0.20000
H 	H 	0.89083 0.56447 0.84067 0.09100
H 	H 	0.85773 0.50277 0.84757 0.07900
H 	H 	0.86733 0.51777 0.82377 0.09700
O 	O 	0.23883 0.63817 0.82287 0.43700
C 	C 	0.92343 0.47547 0.79847 -0.22100
H 	H 	0.88763 0.47267 0.79907 0.10200
H 	H 	0.92853 0.46657 0.78427 0.09800
O 	O 	0.23753 0.62387 0.81667 -0.57200
C 	C 	0.92333 0.43317 0.81293 0.06300
O 	O 	0.18463 0.68127 0.79347 -0.16300
C 	C 	0.87353 0.39587 0.82177 -0.12700
H 	H 	0.84243 0.39837 0.81877 0.08500
O 	O 	0.17963 0.69237 0.79997 0.02100
C 	C 	0.86893 0.35367 0.83553 -0.02300
C 	C 	0.91653 0.35177 0.83987 -0.12500
H 	H 	0.91443 0.32477 0.84877 0.08600
C 	C 	0.96563 0.38807 0.83137 0.06600
C 	C 	0.97013 0.42777 0.81712 0.02900
C 	C 	0.80983 0.31377 0.84347 0.26900
C 	C 	0.02073 0.43757 0.78727 -0.23300
H 	H 	0.01313 0.40067 0.78967 0.11100
H 	H 	0.05693 0.45917 0.78157 0.09900
H 	H 	0.99423 0.43707 0.77767 0.10000
C 	C 	0.01573 0.38287 0.83627 -0.22700
H 	H 	0.02443 0.36867 0.82387 0.10700
H 	H 	0.00573 0.35547 0.84717 0.10300
C 	C 	0.06853 0.43517 0.84317 0.08100
C 	C 	0.11973 0.45297 0.83427 -0.16800
H 	H 	0.12133 0.43317 0.82297 0.10400
C 	C 	0.16753 0.49667 0.84057 0.05000
C 	C 	0.16573 0.52807 0.85537 -0.15600
H 	H 	0.19783 0.55997 0.85917 0.10200
C 	C 	0.11353 0.51387 0.86617 0.08400
C 	C 	0.06803 0.46697 0.85957 0.01700
C 	C 	0.22443 0.51127 0.82807 0.24300
C 	C 	0.01343 0.41427 0.88807 -0.26300
H 	H 	0.03293 0.39487 0.88567 0.11800
H 	H 	0.97513 0.38837 0.89007 0.11500
H 	H 	0.02773 0.43687 0.90027 0.10700
C 	C 	0.11363 0.54727 0.88407 -0.24900
H 	H 	0.14963 0.57997 0.88487 0.11600
H 	H 	0.10853 0.52637 0.89677 0.11600
C 	C 	0.07103 0.56497 0.88363 0.07600
C 	C 	0.03873 0.55587 0.90104 -0.12400
H 	H 	0.04423 0.53877 0.91247 0.07700
C 	C 	0.99833 0.57087 0.90267 -0.03700
Rb	Rb	0.11691 0.80789 0.79505 0.42200
C 	C 	0.99163 0.59647 0.88526 -0.12500
H 	H 	0.96453 0.60627 0.88547 0.07700
C 	C 	0.02403 0.60807 0.86742 0.06800
C 	C 	0.06093 0.59187 0.86707 0.00800
C 	C 	0.96993 0.56017 0.92187 0.23800
C 	C 	0.14713 0.66057 0.85097 -0.27200
H 	H 	0.13773 0.68887 0.84967 0.12500
H 	H 	0.17163 0.66387 0.83987 0.11400
H 	H 	0.16483 0.66417 0.86417 0.11500
C 	C 	0.01513 0.63677 0.84857 -0.22200
H 	H 	0.98193 0.63827 0.85107 0.09700
H 	H 	0.04543 0.67437 0.84827 0.10000
Rb	Rb	0.09890 0.88614 0.14256 0.68900
O 	O 	0.81350 0.54000 0.10710 -0.30700
C 	C 	0.97410 0.55280 0.06864 0.03100
Rb	Rb	0.21128 0.79922 0.20662 0.67800
O 	O 	0.78200 0.46510 0.09320 -0.25900
C 	C 	0.97070 0.58410 0.08470 0.03700
Rb	Rb	0.91443 0.45933 0.11973 0.68600
O 	O 	0.02390 0.57000 0.05788 -0.19200
C 	C 	0.92350 0.56910 0.09300 -0.08000
H 	H 	0.92220 0.59120 0.10360 0.02900
Rb	Rb	0.12477 0.56143 0.06157 0.66700
O 	O 	0.07910 0.46460 0.00050 -0.35500
C 	C 	0.87200 0.52010 0.08720 -0.10800
Rb	Rb	0.85510 0.62750 0.13378 0.42300
O 	O 	0.11710 0.42760 0.02060 -0.26300
C 	C 	0.87740 0.48880 0.07131 -0.06800
H 	H 	0.84660 0.45630 0.06700 0.06800
O 	O 	0.93610 0.41430 0.08209 -0.18500
C 	C 	0.92900 0.50570 0.06142 0.04400
O 	O 	0.89700 0.32350 0.15760 -0.21200
C 	C 	0.81990 0.50610 0.09650 0.35400
O 	O 	0.94620 0.40470 0.17710 -0.20800
C 	C 	0.03240 0.60690 0.04070 -0.23900
H 	H 	0.04830 0.64380 0.04590 0.10600
H 	H 	0.05670 0.60490 0.03070 0.10100
H 	H 	0.99790 0.59660 0.03420 0.10700
O 	O 	0.09690 0.49160 0.09930 -0.18700
C 	C 	0.93040 0.46710 0.04500 -0.21500
H 	H 	0.93670 0.48480 0.03150 0.10600
H 	H 	0.89460 0.43420 0.04450 0.09800
O 	O 	0.26290 0.70640 0.09710 -0.24800
C 	C 	0.97280 0.45030 0.04820 0.05800
O 	O 	0.23260 0.74410 0.07580 -0.26000
C 	C 	0.00680 0.45580 0.03310 -0.12100
H 	H 	0.00530 0.47190 0.02070 0.07300
O 	O 	0.01320 0.56380 0.12384 -0.20800
C 	C 	0.04620 0.43800 0.03520 -0.04100
C 	C 	0.04780 0.41430 0.05430 -0.11100
H 	H 	0.07290 0.40230 0.05630 0.07600
C 	C 	0.01210 0.40900 0.07010 0.05300
C 	C 	0.97270 0.42380 0.06750 0.04100
C 	C 	0.08460 0.44490 0.01570 0.31700
C 	C 	0.88920 0.36090 0.07800 -0.27500
H 	H 	0.89420 0.33320 0.08470 0.12900
H 	H 	0.85660 0.35960 0.08320 0.13000
H 	H 	0.88570 0.35430 0.06320 0.11800
O 	O 	0.80800 0.37800 0.11320 -0.13600
C 	C 	0.01230 0.38020 0.09120 -0.23300
H 	H 	0.04300 0.37360 0.09060 0.10200
H 	H 	0.97910 0.34440 0.09140 0.10800
O 	O 	0.97800 0.84100 0.29730 -0.12700
C 	C 	0.01560 0.40750 0.11140 0.10600
C 	C 	0.97780 0.38090 0.12560 -0.18500
H 	H 	0.94880 0.34590 0.12270 0.11200
C 	C 	0.98060 0.40390 0.14440 0.03200
C 	C 	0.02570 0.46280 0.14470 -0.19100
H 	H 	0.02670 0.48050 0.15710 0.10400
O 	O 	0.76740 0.60110 0.12740 -0.21800
C 	C 	0.06260 0.49380 0.13200 0.13800
O 	O 	0.89000 0.73340 0.15550 -0.17800
C 	C 	0.06070 0.46420 0.11390 0.00700
O 	O 	0.86890 0.72390 0.15720 -0.00800
C 	C 	0.93640 0.36990 0.16030 0.19900
O 	O 	0.95390 0.72310 0.11022 -0.29200
C 	C 	0.14390 0.48560 0.10410 -0.26400
H 	H 	0.14660 0.46170 0.09410 0.11200
H 	H 	0.17680 0.52100 0.10370 0.11400
H 	H 	0.13970 0.47020 0.11780 0.11900
O 	O 	0.02830 0.77030 0.09020 -0.20700
C 	C 	0.10030 0.54880 0.13790 -0.29200
H 	H 	0.08710 0.55730 0.15050 0.12400
H 	H 	0.13540 0.55180 0.14100 0.13400
O 	O 	0.03500 0.80500 0.08970 -0.01700
C 	C 	0.10900 0.59240 0.12080 0.07500
O 	O 	0.14070 0.73970 0.17148 -0.19700
C 	C 	0.16140 0.63290 0.11130 -0.16400
H 	H 	0.19310 0.63250 0.11520 0.10000
O 	O 	0.35230 0.79160 0.16910 -0.24000
C 	C 	0.16580 0.66820 0.09810 0.03700
O 	O 	0.39100 0.85480 0.19110 -0.29600
C 	C 	0.12610 0.66890 0.09240 -0.15500
H 	H 	0.13090 0.69490 0.08230 0.08600
O 	O 	0.39000 0.87280 0.18890 0.09300
C 	C 	0.06830 0.63110 0.10000 0.05800
O 	O 	0.20520 0.88910 0.14028 -0.19000
C 	C 	0.06310 0.59600 0.11490 0.03100
O 	O 	0.18500 0.07410 0.14800 -0.20400
C 	C 	0.22620 0.71260 0.08960 0.26200
O 	O 	0.11110 0.04350 0.17120 -0.19700
C 	C 	0.00740 0.59230 0.14060 -0.16800
H 	H 	0.01930 0.62940 0.13650 0.08200
H 	H 	0.96950 0.57460 0.14470 0.06400
H 	H 	0.02930 0.59240 0.15210 0.08000
O 	O 	0.21780 0.90450 0.20338 -0.18300
C 	C 	0.02180 0.63730 0.09180 -0.20600
H 	H 	0.01080 0.65410 0.10260 0.09400
H 	H 	0.03510 0.66240 0.08000 0.09800
O 	O 	0.11890 0.77060 0.27170 -0.23500
C 	C 	0.05350 0.73080 0.16100 0.06300
O 	O 	0.09960 0.69280 0.25520 -0.22700
C 	C 	0.02090 0.73170 0.14500 -0.10800
H 	H 	0.98420 0.72020 0.14760 0.05900
O 	O 	0.06050 0.82390 0.18313 -0.17500
C 	C 	0.04170 0.74950 0.12490 -0.03200
C 	C 	0.09840 0.76690 0.12080 -0.12200
H 	H 	0.11270 0.77930 0.10760 0.08100
C 	C 	0.13190 0.76550 0.13619 0.06600
O 	O 	0.32440 0.85220 0.22480 -0.06700
C 	C 	0.10760 0.74480 0.15620 0.02400
O 	O 	0.32610 0.87760 0.22170 -0.11000
C 	C 	0.00420 0.74690 0.10710 0.27400
C 	C 	0.13870 0.68850 0.17080 -0.20100
H 	H 	0.10220 0.65970 0.17400 0.09100
H 	H 	0.16390 0.68830 0.18090 0.08000
H 	H 	0.14890 0.68290 0.15710 0.09700
O 	O 	0.02850 0.93400 0.15620 0.43700
C 	C 	0.19120 0.78130 0.13180 -0.22300
H 	H 	0.19400 0.74830 0.13240 0.10300
H 	H 	0.20010 0.79530 0.11760 0.09900
O 	O 	0.04280 0.94700 0.15000 -0.57000
C 	C 	0.23350 0.82350 0.14626 0.06500
O 	O 	0.98540 0.83670 0.12680 -0.16600
C 	C 	0.27080 0.81100 0.15510 -0.12800
H 	H 	0.26830 0.77740 0.15210 0.08500
O 	O 	0.97430 0.82060 0.13330 0.02200
C 	C 	0.31300 0.84860 0.16886 -0.02100
C 	C 	0.31490 0.89810 0.17320 -0.12800
H 	H 	0.34190 0.92300 0.18210 0.08800
C 	C 	0.27860 0.91090 0.16470 0.07100
C 	C 	0.23890 0.87570 0.15045 0.02900
C 	C 	0.35290 0.82940 0.17680 0.26800
C 	C 	0.22910 0.91650 0.12060 -0.24500
H 	H 	0.26600 0.94580 0.12300 0.11400
H 	H 	0.20750 0.93110 0.11490 0.10300
H 	H 	0.22960 0.89050 0.11100 0.10500
C 	C 	0.28380 0.96620 0.16960 -0.23400
H 	H 	0.29800 0.98910 0.15720 0.10900
H 	H 	0.31120 0.98360 0.18050 0.10500
C 	C 	0.23150 0.96670 0.17650 0.08600
C 	C 	0.21370 0.00010 0.16760 -0.17300
H 	H 	0.23350 0.02150 0.15630 0.10500
C 	C 	0.17000 0.00420 0.17390 0.04900
C 	C 	0.13860 0.97100 0.18870 -0.15300
H 	H 	0.10670 0.97120 0.19250 0.10200
C 	C 	0.15280 0.93300 0.19950 0.08500
C 	C 	0.19970 0.93440 0.19290 0.01400
C 	C 	0.15540 0.04650 0.16140 0.24300
C 	C 	0.25240 0.93250 0.22140 -0.27600
H 	H 	0.27180 0.97140 0.21900 0.12200
H 	H 	0.27830 0.92010 0.22340 0.12100
H 	H 	0.22980 0.92420 0.23360 0.11100
C 	C 	0.11940 0.89970 0.21740 -0.25000
H 	H 	0.08670 0.90300 0.21820 0.11700
H 	H 	0.14030 0.91550 0.23010 0.11700
C 	C 	0.10170 0.83940 0.21696 0.07700
C 	C 	0.11080 0.81620 0.23437 -0.12800
H 	H 	0.12790 0.83880 0.24580 0.07800
C 	C 	0.09580 0.76080 0.23600 -0.03400
Rb	Rb	0.85878 0.64236 0.12838 0.42200
C 	C 	0.07020 0.72850 0.21859 -0.12100
H 	H 	0.06040 0.69160 0.21880 0.07700
C 	C 	0.05860 0.74930 0.20075 0.06400
C 	C 	0.07480 0.80240 0.20040 0.00900
C 	C 	0.10650 0.74310 0.25520 0.23800
C 	C 	0.00610 0.81990 0.18430 -0.26200
H 	H 	0.97780 0.78220 0.18300 0.12100
H 	H 	0.00280 0.84110 0.17320 0.11200
H 	H 	0.00250 0.83400 0.19750 0.11300
C 	C 	0.02990 0.71170 0.18190 -0.21800
H 	H 	0.02840 0.67700 0.18440 0.09800
H 	H 	0.99230 0.70440 0.18160 0.09700
Rb	Rb	0.76557 0.21947 0.47589 0.68800
O 	O 	0.48017 0.87333 0.44043 -0.30700
C 	C 	0.64077 0.88613 0.40197 0.03100
Rb	Rb	0.87795 0.13255 0.53995 0.67800
O 	O 	0.44867 0.79843 0.42653 -0.25900
C 	C 	0.63737 0.91743 0.41803 0.04200
Rb	Rb	0.58110 0.79266 0.45306 0.68700
O 	O 	0.69057 0.90333 0.39121 -0.19100
C 	C 	0.59017 0.90243 0.42633 -0.08300
H 	H 	0.58887 0.92453 0.43693 0.03100
Rb	Rb	0.79144 0.89476 0.39490 0.66700
O 	O 	0.74577 0.79793 0.33383 -0.35500
C 	C 	0.53867 0.85343 0.42053 -0.10600
Rb	Rb	0.52177 0.96083 0.46711 0.42300
O 	O 	0.78377 0.76093 0.35393 -0.26300
C 	C 	0.54407 0.82213 0.40464 -0.07000
H 	H 	0.51327 0.78963 0.40033 0.06900
O 	O 	0.60277 0.74763 0.41542 -0.18400
C 	C 	0.59567 0.83903 0.39475 0.04500
O 	O 	0.56367 0.65683 0.49093 -0.21100
C 	C 	0.48657 0.83943 0.42983 0.35300
O 	O 	0.61287 0.73803 0.51043 -0.20700
C 	C 	0.69907 0.94023 0.37403 -0.25100
H 	H 	0.71497 0.97713 0.37923 0.11000
H 	H 	0.72337 0.93823 0.36403 0.10500
H 	H 	0.66457 0.92993 0.36753 0.11200
O 	O 	0.76357 0.82493 0.43263 -0.18700
C 	C 	0.59707 0.80043 0.37833 -0.21800
H 	H 	0.60337 0.81813 0.36483 0.10700
H 	H 	0.56127 0.76753 0.37783 0.09900
O 	O 	0.92957 0.03973 0.43043 -0.25000
C 	C 	0.63947 0.78363 0.38153 0.06300
O 	O 	0.89927 0.07743 0.40913 -0.26100
C 	C 	0.67347 0.78913 0.36643 -0.12600
H 	H 	0.67197 0.80523 0.35403 0.07400
O 	O 	0.67987 0.89713 0.45717 -0.20600
C 	C 	0.71287 0.77133 0.36853 -0.04000
C 	C 	0.71447 0.74763 0.38763 -0.11200
H 	H 	0.73957 0.73563 0.38963 0.07600
C 	C 	0.67877 0.74233 0.40343 0.05100
C 	C 	0.63937 0.75713 0.40083 0.04200
C 	C 	0.75127 0.77823 0.34903 0.31700
C 	C 	0.55587 0.69423 0.41133 -0.27500
H 	H 	0.56087 0.66653 0.41803 0.13000
H 	H 	0.52327 0.69293 0.41653 0.13000
H 	H 	0.55237 0.68763 0.39653 0.11800
O 	O 	0.47467 0.71133 0.44653 -0.13600
C 	C 	0.67897 0.71353 0.42453 -0.23600
H 	H 	0.70967 0.70693 0.42393 0.10300
H 	H 	0.64577 0.67773 0.42473 0.11100
O 	O 	0.64467 0.17433 0.63063 -0.12600
C 	C 	0.68227 0.74083 0.44473 0.10300
C 	C 	0.64447 0.71423 0.45893 -0.18100
H 	H 	0.61547 0.67923 0.45603 0.11100
C 	C 	0.64727 0.73723 0.47773 0.03400
C 	C 	0.69237 0.79613 0.47803 -0.19400
H 	H 	0.69337 0.81383 0.49043 0.10500
O 	O 	0.43407 0.93443 0.46073 -0.21700
C 	C 	0.72927 0.82713 0.46533 0.13900
O 	O 	0.55667 0.06673 0.48883 -0.18300
C 	C 	0.72737 0.79753 0.44723 0.00700
O 	O 	0.53557 0.05723 0.49053 -0.00500
C 	C 	0.60307 0.70323 0.49363 0.19900
O 	O 	0.62057 0.05643 0.44355 -0.29000
C 	C 	0.81057 0.81893 0.43743 -0.26400
H 	H 	0.81327 0.79503 0.42743 0.11200
H 	H 	0.84347 0.85433 0.43703 0.11400
H 	H 	0.80637 0.80353 0.45113 0.11900
O 	O 	0.69497 0.10363 0.42353 -0.20600
C 	C 	0.76697 0.88213 0.47123 -0.29300
H 	H 	0.75377 0.89063 0.48383 0.12300
H 	H 	0.80207 0.88513 0.47433 0.13400
O 	O 	0.70167 0.13833 0.42303 -0.01900
C 	C 	0.77567 0.92573 0.45413 0.07400
O 	O 	0.80737 0.07303 0.50481 -0.19500
C 	C 	0.82807 0.96623 0.44463 -0.15900
H 	H 	0.85977 0.96583 0.44853 0.09900
O 	O 	0.01897 0.12493 0.50243 -0.24000
C 	C 	0.83247 0.00153 0.43143 0.03300
O 	O 	0.05767 0.18813 0.52443 -0.28400
C 	C 	0.79277 0.00223 0.42573 -0.15800
H 	H 	0.79757 0.02823 0.41563 0.08600
O 	O 	0.05667 0.20613 0.52223 0.08100
C 	C 	0.73497 0.96443 0.43333 0.06100
O 	O 	0.87187 0.22243 0.47361 -0.19100
C 	C 	0.72977 0.92933 0.44823 0.02900
O 	O 	0.85167 0.40743 0.48133 -0.20400
C 	C 	0.89287 0.04593 0.42293 0.26300
O 	O 	0.77777 0.37683 0.50453 -0.19700
C 	C 	0.67407 0.92563 0.47393 -0.18100
H 	H 	0.68597 0.96273 0.46983 0.08700
H 	H 	0.63617 0.90793 0.47803 0.07000
H 	H 	0.69597 0.92573 0.48543 0.08400
O 	O 	0.88447 0.23783 0.53671 -0.18400
C 	C 	0.68847 0.97063 0.42513 -0.21200
H 	H 	0.67747 0.98743 0.43593 0.09600
H 	H 	0.70177 0.99573 0.41333 0.10000
O 	O 	0.78557 0.10393 0.60503 -0.23600
C 	C 	0.72017 0.06413 0.49433 0.06700
O 	O 	0.76627 0.02613 0.58853 -0.22900
C 	C 	0.68757 0.06503 0.47833 -0.11700
H 	H 	0.65087 0.05353 0.48093 0.06400
O 	O 	0.72717 0.15723 0.51646 -0.17400
C 	C 	0.70837 0.08283 0.45823 -0.02900
C 	C 	0.76507 0.10023 0.45413 -0.12600
H 	H 	0.77937 0.11263 0.44093 0.08200
C 	C 	0.79857 0.09883 0.46952 0.06800
O 	O 	0.99107 0.18553 0.55813 -0.06900
C 	C 	0.77427 0.07813 0.48953 0.02100
O 	O 	0.99277 0.21093 0.55503 -0.11100
C 	C 	0.67087 0.08023 0.44043 0.26900
C 	C 	0.80537 0.02183 0.50413 -0.21200
H 	H 	0.76887 0.99303 0.50733 0.09600
H 	H 	0.83057 0.02163 0.51423 0.08200
H 	H 	0.81557 0.01623 0.49043 0.09900
O 	O 	0.69517 0.26733 0.48953 0.43800
C 	C 	0.85787 0.11463 0.46513 -0.22500
H 	H 	0.86067 0.08163 0.46573 0.10300
H 	H 	0.86677 0.12863 0.45093 0.09900
O 	O 	0.70947 0.28033 0.48333 -0.57200
C 	C 	0.90017 0.15683 0.47959 0.06500
O 	O 	0.65207 0.17003 0.46013 -0.16400
C 	C 	0.93747 0.14433 0.48843 -0.12800
H 	H 	0.93497 0.11073 0.48543 0.08500
O 	O 	0.64097 0.15393 0.46663 0.02100
C 	C 	0.97967 0.18193 0.50219 -0.02100
C 	C 	0.98157 0.23143 0.50653 -0.13300
H 	H 	0.00857 0.25633 0.51543 0.09200
C 	C 	0.94527 0.24423 0.49803 0.07200
C 	C 	0.90557 0.20903 0.48378 0.02900
C 	C 	0.01957 0.16273 0.51013 0.26900
C 	C 	0.89577 0.24983 0.45393 -0.24300
H 	H 	0.93267 0.27913 0.45633 0.11300
H 	H 	0.87417 0.26443 0.44823 0.10100
H 	H 	0.89627 0.22383 0.44433 0.10400
C 	C 	0.95047 0.29953 0.50293 -0.23200
H 	H 	0.96467 0.32243 0.49053 0.10700
H 	H 	0.97787 0.31693 0.51383 0.10300
C 	C 	0.89817 0.30003 0.50983 0.08200
C 	C 	0.88037 0.33343 0.50093 -0.16900
H 	H 	0.90017 0.35483 0.48963 0.10400
C 	C 	0.83667 0.33753 0.50723 0.05100
C 	C 	0.80527 0.30433 0.52203 -0.15700
H 	H 	0.77337 0.30453 0.52583 0.10200
C 	C 	0.81947 0.26633 0.53283 0.08500
C 	C 	0.86637 0.26773 0.52623 0.01500
C 	C 	0.82207 0.37983 0.49473 0.24300
C 	C 	0.91907 0.26583 0.55473 -0.27300
H 	H 	0.93847 0.30473 0.55233 0.12000
H 	H 	0.94497 0.25343 0.55673 0.11900
H 	H 	0.89647 0.25753 0.56693 0.11000
C 	C 	0.78607 0.23303 0.55073 -0.25000
H 	H 	0.75337 0.23633 0.55153 0.11700
H 	H 	0.80697 0.24883 0.56343 0.11600
C 	C 	0.76837 0.17273 0.55029 0.07700
C 	C 	0.77747 0.14953 0.56770 -0.12800
H 	H 	0.79457 0.17213 0.57913 0.07800
C 	C 	0.76247 0.09413 0.56933 -0.03400
Rb	Rb	0.52545 0.97569 0.46171 0.42200
C 	C 	0.73687 0.06183 0.55192 -0.12200
H 	H 	0.72707 0.02493 0.55213 0.07600
C 	C 	0.72527 0.08263 0.53408 0.06600
C 	C 	0.74147 0.13573 0.53373 0.00700
C 	C 	0.77317 0.07643 0.58853 0.23800
C 	C 	0.67277 0.15323 0.51763 -0.27200
H 	H 	0.64447 0.11553 0.51633 0.12500
H 	H 	0.66947 0.17443 0.50653 0.11400
H 	H 	0.66917 0.16733 0.53083 0.11500
C 	C 	0.69657 0.04503 0.51523 -0.22600
H 	H 	0.69507 0.01033 0.51773 0.09900
H 	H 	0.65897 0.03773 0.51493 0.10000
Rb	Rb	0.43223 0.55281 0.80923 0.68800
O 	O 	0.14683 0.20667 0.77377 -0.30700
C 	C 	0.30743 0.21947 0.73531 0.03100
Rb	Rb	0.54461 0.46589 0.87329 0.67800
O 	O 	0.11533 0.13177 0.75987 -0.25900
C 	C 	0.30403 0.25077 0.75137 0.04100
Rb	Rb	0.24776 0.12600 0.78640 0.68700
O 	O 	0.35723 0.23667 0.72455 -0.19100
C 	C 	0.25683 0.23577 0.75967 -0.08200
H 	H 	0.25553 0.25787 0.77027 0.03000
Rb	Rb	0.45810 0.22810 0.72824 0.66700
O 	O 	0.41243 0.13127 0.66717 -0.35500
C 	C 	0.20533 0.18677 0.75387 -0.10700
Rb	Rb	0.18843 0.29417 0.80045 0.42300
O 	O 	0.45043 0.09427 0.68727 -0.26300
C 	C 	0.21073 0.15547 0.73798 -0.06900
H 	H 	0.17993 0.12297 0.73367 0.06800
O 	O 	0.26943 0.08097 0.74876 -0.18200
C 	C 	0.26233 0.17237 0.72809 0.04500
O 	O 	0.23033 0.99017 0.82427 -0.20800
C 	C 	0.15323 0.17277 0.76317 0.35300
O 	O 	0.27953 0.07137 0.84377 -0.20700
C 	C 	0.36573 0.27357 0.70737 -0.24900
H 	H 	0.38163 0.31047 0.71257 0.10900
H 	H 	0.39003 0.27157 0.69737 0.10400
H 	H 	0.33123 0.26327 0.70087 0.11200
O 	O 	0.43023 0.15827 0.76597 -0.18700
C 	C 	0.26373 0.13377 0.71167 -0.21700
H 	H 	0.27003 0.15147 0.69817 0.10700
H 	H 	0.22793 0.10087 0.71117 0.09900
O 	O 	0.59623 0.37307 0.76377 -0.24800
C 	C 	0.30613 0.11697 0.71487 0.06300
O 	O 	0.56593 0.41077 0.74247 -0.26000
C 	C 	0.34013 0.12247 0.69977 -0.12600
H 	H 	0.33863 0.13857 0.68737 0.07400
O 	O 	0.34653 0.23047 0.79051 -0.20600
C 	C 	0.37953 0.10467 0.70187 -0.04000
C 	C 	0.38113 0.08097 0.72097 -0.11200
H 	H 	0.40623 0.06897 0.72297 0.07500
C 	C 	0.34543 0.07567 0.73677 0.05100
C 	C 	0.30603 0.09047 0.73417 0.04100
C 	C 	0.41793 0.11157 0.68237 0.31700
C 	C 	0.22253 0.02757 0.74467 -0.28600
H 	H 	0.22753 0.99987 0.75137 0.13500
H 	H 	0.18993 0.02627 0.74987 0.13300
H 	H 	0.21903 0.02097 0.72987 0.12100
O 	O 	0.14133 0.04467 0.77987 -0.13600
C 	C 	0.34563 0.04687 0.75787 -0.23600
H 	H 	0.37633 0.04027 0.75727 0.10200
H 	H 	0.31243 0.01107 0.75807 0.11000
O 	O 	0.31133 0.50767 0.96397 -0.12600
C 	C 	0.34893 0.07417 0.77807 0.10300
C 	C 	0.31113 0.04757 0.79227 -0.18200
H 	H 	0.28213 0.01257 0.78937 0.11100
C 	C 	0.31393 0.07057 0.81107 0.03500
C 	C 	0.35903 0.12947 0.81137 -0.19500
H 	H 	0.36003 0.14717 0.82377 0.10500
O 	O 	0.10073 0.26777 0.79407 -0.21800
C 	C 	0.39593 0.16047 0.79867 0.14000
O 	O 	0.22333 0.40007 0.82217 -0.17900
C 	C 	0.39403 0.13087 0.78057 0.00700
O 	O 	0.20223 0.39057 0.82387 -0.00800
C 	C 	0.26973 0.03657 0.82697 0.19500
O 	O 	0.28723 0.38977 0.77689 -0.28900
C 	C 	0.47723 0.15227 0.77077 -0.26300
H 	H 	0.47993 0.12837 0.76077 0.11200
H 	H 	0.51013 0.18767 0.77037 0.11400
H 	H 	0.47303 0.13687 0.78447 0.11900
O 	O 	0.36163 0.43697 0.75687 -0.20500
C 	C 	0.43363 0.21547 0.80457 -0.29400
H 	H 	0.42043 0.22397 0.81717 0.12400
H 	H 	0.46873 0.21847 0.80767 0.13400
O 	O 	0.36833 0.47167 0.75637 -0.01900
C 	C 	0.44233 0.25907 0.78747 0.07600
O 	O 	0.47403 0.40637 0.83815 -0.19700
C 	C 	0.49473 0.29957 0.77797 -0.16500
H 	H 	0.52643 0.29917 0.78187 0.10000
O 	O 	0.68563 0.45827 0.83577 -0.24000
C 	C 	0.49913 0.33487 0.76477 0.03800
O 	O 	0.72433 0.52147 0.85777 -0.30000
C 	C 	0.45943 0.33557 0.75907 -0.15700
H 	H 	0.46423 0.36157 0.74897 0.08700
O 	O 	0.72333 0.53947 0.85557 0.09700
C 	C 	0.40163 0.29777 0.76667 0.05900
O 	O 	0.53853 0.55577 0.80695 -0.19100
C 	C 	0.39643 0.26267 0.78157 0.02900
O 	O 	0.51833 0.74077 0.81467 -0.20400
C 	C 	0.55953 0.37927 0.75627 0.26100
O 	O 	0.44443 0.71017 0.83787 -0.19700
C 	C 	0.34073 0.25897 0.80727 -0.18000
H 	H 	0.35263 0.29607 0.80317 0.08500
H 	H 	0.30283 0.24127 0.81137 0.07000
H 	H 	0.36263 0.25907 0.81877 0.08300
O 	O 	0.55113 0.57117 0.87005 -0.18400
C 	C 	0.35513 0.30397 0.75847 -0.21000
H 	H 	0.34413 0.32077 0.76927 0.09400
H 	H 	0.36843 0.32907 0.74667 0.09900
O 	O 	0.45223 0.43727 0.93837 -0.23500
C 	C 	0.38683 0.39747 0.82767 0.06800
O 	O 	0.43293 0.35947 0.92187 -0.22700
C 	C 	0.35423 0.39837 0.81167 -0.11700
H 	H 	0.31753 0.38687 0.81427 0.06400
O 	O 	0.39383 0.49057 0.84980 -0.17400
C 	C 	0.37503 0.41617 0.79157 -0.02800
C 	C 	0.43173 0.43357 0.78747 -0.12500
H 	H 	0.44603 0.44597 0.77427 0.08200
C 	C 	0.46523 0.43217 0.80286 0.06800
O 	O 	0.65773 0.51887 0.89147 -0.06700
C 	C 	0.44093 0.41147 0.82287 0.02200
O 	O 	0.65943 0.54427 0.88837 -0.11100
C 	C 	0.33753 0.41357 0.77377 0.26900
C 	C 	0.47203 0.35517 0.83747 -0.20100
H 	H 	0.43553 0.32637 0.84067 0.09100
H 	H 	0.49723 0.35497 0.84757 0.08000
H 	H 	0.48223 0.34957 0.82377 0.09700
O 	O 	0.36183 0.60067 0.82287 0.43800
C 	C 	0.52453 0.44797 0.79847 -0.22400
H 	H 	0.52733 0.41497 0.79907 0.10300
H 	H 	0.53343 0.46197 0.78427 0.09900
O 	O 	0.37613 0.61367 0.81667 -0.57200
C 	C 	0.56683 0.49017 0.81293 0.06500
O 	O 	0.31873 0.50337 0.79347 -0.16300
C 	C 	0.60413 0.47767 0.82177 -0.12800
H 	H 	0.60163 0.44407 0.81877 0.08500
O 	O 	0.30763 0.48727 0.79997 0.02100
C 	C 	0.64633 0.51527 0.83553 -0.02200
C 	C 	0.64823 0.56477 0.83987 -0.12700
H 	H 	0.67523 0.58967 0.84877 0.08700
C 	C 	0.61193 0.57757 0.83137 0.07000
C 	C 	0.57223 0.54237 0.81712 0.03000
C 	C 	0.68623 0.49607 0.84347 0.26800
C 	C 	0.56243 0.58317 0.78727 -0.24300
H 	H 	0.59933 0.61247 0.78967 0.11300
H 	H 	0.54083 0.59777 0.78157 0.10100
H 	H 	0.56293 0.55717 0.77767 0.10400
C 	C 	0.61713 0.63287 0.83627 -0.23100
H 	H 	0.63133 0.65577 0.82387 0.10800
H 	H 	0.64453 0.65027 0.84717 0.10400
C 	C 	0.56483 0.63337 0.84317 0.08200
C 	C 	0.54703 0.66677 0.83427 -0.16900
H 	H 	0.56683 0.68817 0.82297 0.10400
C 	C 	0.50333 0.67087 0.84057 0.05100
C 	C 	0.47193 0.63767 0.85537 -0.15700
H 	H 	0.44003 0.63787 0.85917 0.10200
C 	C 	0.48613 0.59967 0.86617 0.08500
C 	C 	0.53303 0.60107 0.85957 0.01500
C 	C 	0.48873 0.71317 0.82807 0.24300
C 	C 	0.58573 0.59917 0.88807 -0.27400
H 	H 	0.60513 0.63807 0.88567 0.12100
H 	H 	0.61163 0.58677 0.89007 0.12000
H 	H 	0.56313 0.59087 0.90027 0.11000
C 	C 	0.45273 0.56637 0.88407 -0.25000
H 	H 	0.42003 0.56967 0.88487 0.11700
H 	H 	0.47363 0.58217 0.89677 0.11600
C 	C 	0.43503 0.50607 0.88363 0.07800
C 	C 	0.44413 0.48287 0.90104 -0.12900
H 	H 	0.46123 0.50547 0.91247 0.07800
C 	C 	0.42913 0.42747 0.90267 -0.03300
Rb	Rb	0.19211 0.30903 0.79505 0.42200
C 	C 	0.40353 0.39517 0.88526 -0.12300
H 	H 	0.39373 0.35827 0.88547 0.07700
C 	C 	0.39193 0.41597 0.86742 0.06700
C 	C 	0.40813 0.46907 0.86707 0.00700
C 	C 	0.43983 0.40977 0.92187 0.23700
C 	C 	0.33943 0.48657 0.85097 -0.27200
H 	H 	0.31113 0.44887 0.84967 0.12500
H 	H 	0.33613 0.50777 0.83987 0.11400
H 	H 	0.33583 0.50067 0.86417 0.11500
C 	C 	0.36323 0.37837 0.84857 -0.22700
H 	H 	0.36173 0.34367 0.85107 0.10000
H 	H 	0.32563 0.37107 0.84827 0.10100
Rb	Rb	0.11386 0.21276 0.14256 0.68800
O 	O 	0.46000 0.27350 0.10710 -0.30700
C 	C 	0.44720 0.42130 0.06864 0.03100
Rb	Rb	0.20078 0.41206 0.20662 0.67800
O 	O 	0.53490 0.31690 0.09320 -0.25900
C 	C 	0.41590 0.38660 0.08470 0.04100
Rb	Rb	0.54067 0.45510 0.11973 0.68700
O 	O 	0.43000 0.45390 0.05788 -0.19100
C 	C 	0.43090 0.35440 0.09300 -0.08200
H 	H 	0.40880 0.33100 0.10360 0.03000
Rb	Rb	0.43857 0.56334 0.06157 0.66700
O 	O 	0.53540 0.61450 0.00050 -0.35500
C 	C 	0.47990 0.35190 0.08720 -0.10700
Rb	Rb	0.37250 0.22760 0.13378 0.42300
O 	O 	0.57240 0.68950 0.02060 -0.26300
C 	C 	0.51120 0.38860 0.07131 -0.06900
H 	H 	0.54370 0.39030 0.06700 0.06800
O 	O 	0.58570 0.52180 0.08209 -0.18400
C 	C 	0.49430 0.42330 0.06142 0.04500
O 	O 	0.67650 0.57350 0.15760 -0.21100
C 	C 	0.49390 0.31380 0.09650 0.35300
O 	O 	0.59530 0.54150 0.17710 -0.20700
C 	C 	0.39310 0.42550 0.04070 -0.25000
H 	H 	0.35620 0.40450 0.04590 0.10900
H 	H 	0.39510 0.45180 0.03070 0.10400
H 	H 	0.40340 0.40130 0.03420 0.11200
O 	O 	0.50840 0.60530 0.09930 -0.18700
C 	C 	0.53290 0.46330 0.04500 -0.21700
H 	H 	0.51520 0.45190 0.03150 0.10700
H 	H 	0.56580 0.46040 0.04450 0.09900
O 	O 	0.29360 0.55650 0.09710 -0.24800
C 	C 	0.54970 0.52250 0.04820 0.06300
O 	O 	0.25590 0.48850 0.07580 -0.26000
C 	C 	0.54420 0.55100 0.03310 -0.12600
H 	H 	0.52810 0.53340 0.02070 0.07400
O 	O 	0.43620 0.44940 0.12384 -0.20600
C 	C 	0.56200 0.60820 0.03520 -0.04000
C 	C 	0.58570 0.63350 0.05430 -0.11200
H 	H 	0.59770 0.67060 0.05630 0.07600
C 	C 	0.59100 0.60310 0.07010 0.05100
C 	C 	0.57620 0.54890 0.06750 0.04200
C 	C 	0.55510 0.63970 0.01570 0.31700
C 	C 	0.63910 0.52830 0.07800 -0.27500
H 	H 	0.66680 0.56100 0.08470 0.13000
H 	H 	0.64040 0.49700 0.08320 0.13000
H 	H 	0.64570 0.53140 0.06320 0.11800
O 	O 	0.62200 0.43000 0.11320 -0.13600
C 	C 	0.61980 0.63210 0.09120 -0.23700
H 	H 	0.62640 0.66940 0.09060 0.10300
H 	H 	0.65560 0.63470 0.09140 0.11100
O 	O 	0.15900 0.13700 0.29730 -0.12600
C 	C 	0.59250 0.60810 0.11140 0.10400
C 	C 	0.61910 0.59690 0.12560 -0.18200
H 	H 	0.65410 0.60290 0.12270 0.11100
C 	C 	0.59610 0.57670 0.14440 0.03400
C 	C 	0.53720 0.56290 0.14470 -0.19400
H 	H 	0.51950 0.54620 0.15710 0.10500
O 	O 	0.39890 0.16630 0.12740 -0.21800
C 	C 	0.50620 0.56880 0.13200 0.14000
O 	O 	0.26660 0.15660 0.15550 -0.18000
C 	C 	0.53580 0.59650 0.11390 0.00700
O 	O 	0.27610 0.14500 0.15720 -0.00700
C 	C 	0.63010 0.56650 0.16030 0.19900
O 	O 	0.27690 0.23080 0.11022 -0.29000
C 	C 	0.51440 0.65830 0.10410 -0.26400
H 	H 	0.53830 0.68490 0.09410 0.11200
H 	H 	0.47900 0.65580 0.10370 0.11400
H 	H 	0.52980 0.66950 0.11780 0.11900
O 	O 	0.22970 0.25800 0.09020 -0.20500
C 	C 	0.45120 0.55150 0.13790 -0.29400
H 	H 	0.44270 0.52980 0.15050 0.12400
H 	H 	0.44820 0.58360 0.14100 0.13400
O 	O 	0.19500 0.23000 0.08970 -0.01900
C 	C 	0.40760 0.51660 0.12080 0.07600
O 	O 	0.26030 0.40100 0.17148 -0.19700
C 	C 	0.36710 0.52850 0.11130 -0.16500
H 	H 	0.36750 0.56060 0.11520 0.10000
O 	O 	0.20840 0.56070 0.16910 -0.24000
C 	C 	0.33180 0.49760 0.09810 0.03800
O 	O 	0.14520 0.53620 0.19110 -0.29600
C 	C 	0.33110 0.45720 0.09240 -0.15700
H 	H 	0.30510 0.43600 0.08230 0.08700
O 	O 	0.12720 0.51720 0.18890 0.09300
C 	C 	0.36890 0.43720 0.10000 0.05900
O 	O 	0.11090 0.31610 0.14028 -0.19000
C 	C 	0.40400 0.46710 0.11490 0.02900
O 	O 	0.92590 0.11090 0.14800 -0.20500
C 	C 	0.28740 0.51360 0.08960 0.26100
O 	O 	0.95650 0.06760 0.17120 -0.20000
C 	C 	0.40770 0.41510 0.14060 -0.18000
H 	H 	0.37060 0.38990 0.13650 0.08500
H 	H 	0.42540 0.39490 0.14470 0.07000
H 	H 	0.40760 0.43690 0.15210 0.08300
O 	O 	0.09550 0.31330 0.20338 -0.18300
C 	C 	0.36270 0.38450 0.09180 -0.21000
H 	H 	0.34590 0.35670 0.10260 0.09400
H 	H 	0.33760 0.37270 0.08000 0.09900
O 	O 	0.22940 0.34830 0.27170 -0.23500
C 	C 	0.26920 0.32270 0.16100 0.06800
O 	O 	0.30720 0.40680 0.25520 -0.22700
C 	C 	0.26830 0.28920 0.14500 -0.11700
H 	H 	0.27980 0.26400 0.14760 0.06400
O 	O 	0.17610 0.23660 0.18313 -0.17300
C 	C 	0.25050 0.29220 0.12490 -0.02800
C 	C 	0.23310 0.33150 0.12080 -0.12500
H 	H 	0.22070 0.33340 0.10760 0.08200
C 	C 	0.23450 0.36640 0.13619 0.06800
O 	O 	0.14780 0.47220 0.22480 -0.06700
C 	C 	0.25520 0.36280 0.15620 0.02200
O 	O 	0.12240 0.44850 0.22170 -0.11000
C 	C 	0.25310 0.25730 0.10710 0.26900
C 	C 	0.31150 0.45020 0.17080 -0.20100
H 	H 	0.34030 0.44250 0.17400 0.09100
H 	H 	0.31170 0.47560 0.18090 0.08000
H 	H 	0.31710 0.46600 0.15710 0.09700
O 	O 	0.06600 0.09450 0.15620 0.42800
C 	C 	0.21870 0.40990 0.13180 -0.22500
H 	H 	0.25170 0.44570 0.13240 0.10300
H 	H 	0.20470 0.40480 0.11760 0.09900
O 	O 	0.05300 0.09580 0.15000 -0.56200
C 	C 	0.17650 0.41000 0.14626 0.06500
O 	O 	0.16330 0.14870 0.12680 -0.16400
C 	C 	0.18900 0.45980 0.15510 -0.12800
H 	H 	0.22260 0.49090 0.15210 0.08600
O 	O 	0.17940 0.15370 0.13330 0.02100
C 	C 	0.15140 0.46440 0.16886 -0.02100
C 	C 	0.10190 0.41680 0.17320 -0.12800
H 	H 	0.07700 0.41890 0.18210 0.08800
C 	C 	0.08910 0.36770 0.16470 0.07100
C 	C 	0.12430 0.36320 0.15045 0.02900
C 	C 	0.17060 0.52350 0.17680 0.26800
C 	C 	0.08350 0.31260 0.12060 -0.24500
H 	H 	0.05420 0.32020 0.12300 0.11400
H 	H 	0.06890 0.27640 0.11490 0.10200
H 	H 	0.10950 0.33910 0.11100 0.10500
C 	C 	0.03380 0.31760 0.16960 -0.23400
H 	H 	0.01090 0.30890 0.15720 0.10900
H 	H 	0.01640 0.32760 0.18050 0.10500
C 	C 	0.03330 0.26480 0.17650 0.08600
C 	C 	0.99990 0.21360 0.16760 -0.17300
H 	H 	0.97850 0.21200 0.15630 0.10500
C 	C 	0.99580 0.16580 0.17390 0.04800
C 	C 	0.02900 0.16760 0.18870 -0.15300
H 	H 	0.02880 0.13550 0.19250 0.10100
C 	C 	0.06700 0.21980 0.19950 0.08500
C 	C 	0.06560 0.26530 0.19290 0.01400
C 	C 	0.95350 0.10890 0.16140 0.24300
C 	C 	0.06750 0.31990 0.22140 -0.27600
H 	H 	0.02860 0.30040 0.21900 0.12200
H 	H 	0.07990 0.35820 0.22340 0.12100
H 	H 	0.07580 0.30560 0.23360 0.11100
C 	C 	0.10030 0.21970 0.21740 -0.25000
H 	H 	0.09700 0.18370 0.21820 0.11700
H 	H 	0.08450 0.22480 0.23010 0.11700
C 	C 	0.16060 0.26230 0.21696 0.07800
C 	C 	0.18380 0.29460 0.23437 -0.12900
H 	H 	0.16120 0.28910 0.24580 0.07800
C 	C 	0.23920 0.33500 0.23600 -0.03300
Rb	Rb	0.35764 0.21642 0.12838 0.42200
C 	C 	0.27150 0.34170 0.21859 -0.12300
H 	H 	0.30840 0.36880 0.21880 0.07700
C 	C 	0.25070 0.30930 0.20075 0.06700
C 	C 	0.19760 0.27240 0.20040 0.00700
C 	C 	0.25690 0.36340 0.25520 0.23700
C 	C 	0.18010 0.18620 0.18430 -0.27200
H 	H 	0.21780 0.19560 0.18300 0.12600
H 	H 	0.15890 0.16170 0.17320 0.11500
H 	H 	0.16600 0.16850 0.19750 0.11600
C 	C 	0.28830 0.31820 0.18190 -0.22700
H 	H 	0.32300 0.35140 0.18440 0.10000
H 	H 	0.29560 0.28790 0.18160 0.10100
Rb	Rb	0.78053 0.54609 0.47589 0.68800
O 	O 	0.12667 0.60683 0.44043 -0.30700
C 	C 	0.11387 0.75463 0.40197 0.03100
Rb	Rb	0.86745 0.74539 0.53995 0.67800
O 	O 	0.20157 0.65023 0.42653 -0.25900
C 	C 	0.08257 0.71993 0.41803 0.04200
Rb	Rb	0.20734 0.78843 0.45306 0.68700
O 	O 	0.09667 0.78723 0.39121 -0.19100
C 	C 	0.09757 0.68773 0.42633 -0.08200
H 	H 	0.07547 0.66433 0.43693 0.03100
Rb	Rb	0.10524 0.89667 0.39490 0.66800
O 	O 	0.20207 0.94783 0.33383 -0.35600
C 	C 	0.14657 0.68523 0.42053 -0.10600
Rb	Rb	0.03917 0.56093 0.46711 0.42300
O 	O 	0.23907 0.02283 0.35393 -0.26600
C 	C 	0.17787 0.72193 0.40464 -0.06900
H 	H 	0.21037 0.72363 0.40033 0.06800
O 	O 	0.25237 0.85513 0.41542 -0.18500
C 	C 	0.16097 0.75663 0.39475 0.04500
O 	O 	0.34317 0.90683 0.49093 -0.21100
C 	C 	0.16057 0.64713 0.42983 0.35300
O 	O 	0.26197 0.87483 0.51043 -0.20600
C 	C 	0.05977 0.75883 0.37403 -0.25100
H 	H 	0.02287 0.73783 0.37923 0.11000
H 	H 	0.06177 0.78513 0.36403 0.10500
H 	H 	0.07007 0.73463 0.36753 0.11200
O 	O 	0.17507 0.93863 0.43263 -0.19100
C 	C 	0.19957 0.79663 0.37833 -0.21600
H 	H 	0.18187 0.78523 0.36483 0.10700
H 	H 	0.23247 0.79373 0.37783 0.09800
O 	O 	0.96027 0.88983 0.43043 -0.24900
C 	C 	0.21637 0.85583 0.38153 0.06100
O 	O 	0.92257 0.82183 0.40913 -0.26100
C 	C 	0.21087 0.88433 0.36643 -0.12300
H 	H 	0.19477 0.86673 0.35403 0.07300
O 	O 	0.10287 0.78273 0.45717 -0.20600
C 	C 	0.22867 0.94153 0.36853 -0.04400
C 	C 	0.25237 0.96683 0.38763 -0.10300
H 	H 	0.26437 0.00393 0.38963 0.07100
C 	C 	0.25767 0.93643 0.40343 0.04600
C 	C 	0.24287 0.88223 0.40083 0.04400
C 	C 	0.22177 0.97303 0.34903 0.32100
C 	C 	0.30577 0.86163 0.41133 -0.27500
H 	H 	0.33347 0.89433 0.41803 0.13000
H 	H 	0.30707 0.83033 0.41653 0.13000
H 	H 	0.31237 0.86473 0.39653 0.11800
O 	O 	0.28867 0.76333 0.44653 -0.13600
C 	C 	0.28647 0.96543 0.42453 -0.22800
H 	H 	0.29307 0.00273 0.42393 0.09900
H 	H 	0.32227 0.96803 0.42473 0.10900
O 	O 	0.82567 0.47033 0.63063 -0.12600
C 	C 	0.25917 0.94143 0.44473 0.10000
C 	C 	0.28577 0.93023 0.45893 -0.17900
H 	H 	0.32077 0.93623 0.45603 0.11100
C 	C 	0.26277 0.91003 0.47773 0.03300
C 	C 	0.20387 0.89623 0.47803 -0.19300
H 	H 	0.18617 0.87953 0.49043 0.10400
O 	O 	0.06557 0.49963 0.46073 -0.21700
C 	C 	0.17287 0.90213 0.46533 0.13800
O 	O 	0.93327 0.48993 0.48883 -0.18300
C 	C 	0.20247 0.92983 0.44723 0.01000
O 	O 	0.94277 0.47833 0.49053 -0.00500
C 	C 	0.29677 0.89983 0.49363 0.19900
O 	O 	0.94357 0.56413 0.44355 -0.29000
C 	C 	0.18107 0.99163 0.43743 -0.24100
H 	H 	0.20497 0.01823 0.42743 0.10400
H 	H 	0.14567 0.98913 0.43703 0.10800
H 	H 	0.19647 0.00283 0.45113 0.11100
O 	O 	0.89637 0.59133 0.42353 -0.20600
C 	C 	0.11787 0.88483 0.47123 -0.29200
H 	H 	0.10937 0.86313 0.48383 0.12300
H 	H 	0.11487 0.91693 0.47433 0.13400
O 	O 	0.86167 0.56333 0.42303 -0.01900
C 	C 	0.07427 0.84993 0.45413 0.07500
O 	O 	0.92697 0.73433 0.50481 -0.19500
C 	C 	0.03377 0.86183 0.44463 -0.16000
H 	H 	0.03417 0.89393 0.44853 0.10000
O 	O 	0.87507 0.89403 0.50243 -0.24000
C 	C 	0.99847 0.83093 0.43143 0.03400
O 	O 	0.81187 0.86953 0.52443 -0.30300
C 	C 	0.99777 0.79053 0.42573 -0.15800
H 	H 	0.97177 0.76933 0.41563 0.08600
O 	O 	0.79387 0.85053 0.52223 0.10000
C 	C 	0.03557 0.77053 0.43333 0.06200
O 	O 	0.77757 0.64943 0.47361 -0.19100
C 	C 	0.07067 0.80043 0.44823 0.02900
O 	O 	0.59257 0.44423 0.48133 -0.20400
C 	C 	0.95407 0.84693 0.42293 0.26200
O 	O 	0.62317 0.40093 0.50453 -0.19700
C 	C 	0.07437 0.74843 0.47393 -0.18100
H 	H 	0.03727 0.72323 0.46983 0.08700
H 	H 	0.09207 0.72823 0.47803 0.07000
H 	H 	0.07427 0.77023 0.48543 0.08400
O 	O 	0.76217 0.64663 0.53671 -0.18400
C 	C 	0.02937 0.71783 0.42513 -0.21200
H 	H 	0.01257 0.69003 0.43593 0.09600
H 	H 	0.00427 0.70603 0.41333 0.10000
O 	O 	0.89607 0.68163 0.60503 -0.23600
C 	C 	0.93587 0.65603 0.49433 0.06700
O 	O 	0.97387 0.74013 0.58853 -0.22900
C 	C 	0.93497 0.62253 0.47833 -0.11700
H 	H 	0.94647 0.59733 0.48093 0.06400
O 	O 	0.84277 0.56993 0.51646 -0.17400
C 	C 	0.91717 0.62553 0.45823 -0.02900
C 	C 	0.89977 0.66483 0.45413 -0.12500
H 	H 	0.88737 0.66673 0.44093 0.08100
C 	C 	0.90117 0.69973 0.46952 0.06800
O 	O 	0.81447 0.80553 0.55813 -0.06700
C 	C 	0.92187 0.69613 0.48953 0.02100
O 	O 	0.78907 0.78183 0.55503 -0.11100
C 	C 	0.91977 0.59063 0.44043 0.26900
C 	C 	0.97817 0.78353 0.50413 -0.21200
H 	H 	0.00697 0.77583 0.50733 0.09600
H 	H 	0.97837 0.80893 0.51423 0.08200
H 	H 	0.98377 0.79933 0.49043 0.09900
O 	O 	0.73267 0.42783 0.48953 0.43800
C 	C 	0.88537 0.74323 0.46513 -0.22400
H 	H 	0.91837 0.77903 0.46573 0.10300
H 	H 	0.87137 0.73813 0.45093 0.09900
O 	O 	0.71967 0.42913 0.48333 -0.57200
C 	C 	0.84317 0.74333 0.47959 0.06400
O 	O 	0.82997 0.48203 0.46013 -0.16400
C 	C 	0.85567 0.79313 0.48843 -0.12700
H 	H 	0.88927 0.82423 0.48543 0.08500
O 	O 	0.84607 0.48703 0.46663 0.02100
C 	C 	0.81807 0.79773 0.50219 -0.02200
C 	C 	0.76857 0.75013 0.50653 -0.12700
H 	H 	0.74367 0.75223 0.51543 0.08700
C 	C 	0.75577 0.70103 0.49803 0.06900
C 	C 	0.79097 0.69653 0.48378 0.03000
C 	C 	0.83727 0.85683 0.51013 0.26800
C 	C 	0.75017 0.64593 0.45393 -0.24300
H 	H 	0.72087 0.65353 0.45633 0.11300
H 	H 	0.73557 0.60973 0.44823 0.10100
H 	H 	0.77617 0.67243 0.44433 0.10400
C 	C 	0.70047 0.65093 0.50293 -0.23100
H 	H 	0.67757 0.64223 0.49053 0.10800
H 	H 	0.68307 0.66093 0.51383 0.10300
C 	C 	0.69997 0.59813 0.50983 0.08200
C 	C 	0.66657 0.54693 0.50093 -0.16900
H 	H 	0.64517 0.54533 0.48963 0.10400
C 	C 	0.66247 0.49913 0.50723 0.05100
C 	C 	0.69567 0.50093 0.52203 -0.15700
H 	H 	0.69547 0.46883 0.52583 0.10200
C 	C 	0.73367 0.55313 0.53283 0.08500
C 	C 	0.73227 0.59863 0.52623 0.01500
C 	C 	0.62017 0.44223 0.49473 0.24300
C 	C 	0.73417 0.65323 0.55473 -0.27400
H 	H 	0.69527 0.63373 0.55233 0.12100
H 	H 	0.74657 0.69153 0.55673 0.12000
H 	H 	0.74247 0.63893 0.56693 0.11000
C 	C 	0.76697 0.55303 0.55073 -0.25000
H 	H 	0.76367 0.51703 0.55153 0.11700
H 	H 	0.75117 0.55813 0.56343 0.11600
C 	C 	0.82727 0.59563 0.55029 0.07700
C 	C 	0.85047 0.62793 0.56770 -0.12800
H 	H 	0.82787 0.62243 0.57913 0.07800
C 	C 	0.90587 0.66833 0.56933 -0.03400
Rb	Rb	0.02431 0.54975 0.46171 0.42200
C 	C 	0.93817 0.67503 0.55192 -0.12200
H 	H 	0.97507 0.70213 0.55213 0.07600
C 	C 	0.91737 0.64263 0.53408 0.06600
C 	C 	0.86427 0.60573 0.53373 0.00700
C 	C 	0.92357 0.69673 0.58853 0.23800
C 	C 	0.84677 0.51953 0.51763 -0.27200
H 	H 	0.88447 0.52893 0.51633 0.12500
H 	H 	0.82557 0.49503 0.50653 0.11400
H 	H 	0.83267 0.50183 0.53083 0.11500
C 	C 	0.95497 0.65153 0.51523 -0.22600
H 	H 	0.98967 0.68473 0.51773 0.09900
H 	H 	0.96227 0.62123 0.51493 0.10000
Rb	Rb	0.44719 0.87943 0.80923 0.68800
O 	O 	0.79333 0.94017 0.77377 -0.30700
C 	C 	0.78053 0.08797 0.73531 0.03100
Rb	Rb	0.53411 0.07873 0.87329 0.67800
O 	O 	0.86823 0.98357 0.75987 -0.25900
C 	C 	0.74923 0.05327 0.75137 0.04300
Rb	Rb	0.87400 0.12177 0.78640 0.68600
O 	O 	0.76333 0.12057 0.72455 -0.19200
C 	C 	0.76423 0.02107 0.75967 -0.08700
H 	H 	0.74213 0.99767 0.77027 0.03400
Rb	Rb	0.77190 0.23001 0.72824 0.66700
O 	O 	0.86873 0.28117 0.66717 -0.35500
C 	C 	0.81323 0.01857 0.75387 -0.10900
Rb	Rb	0.70583 0.89427 0.80045 0.42300
O 	O 	0.90573 0.35617 0.68727 -0.26300
C 	C 	0.84453 0.05527 0.73798 -0.06900
H 	H 	0.87703 0.05697 0.73367 0.06700
O 	O 	0.91903 0.18847 0.74876 -0.18200
C 	C 	0.82763 0.08997 0.72809 0.04500
O 	O 	0.00983 0.24017 0.82427 -0.20800
C 	C 	0.82723 0.98047 0.76317 0.35600
O 	O 	0.92863 0.20817 0.84377 -0.20700
C 	C 	0.72643 0.09217 0.70737 -0.24800
H 	H 	0.68953 0.07117 0.71257 0.10800
H 	H 	0.72843 0.11847 0.69737 0.10300
H 	H 	0.73673 0.06797 0.70087 0.11000
O 	O 	0.84173 0.27197 0.76597 -0.18700
C 	C 	0.86623 0.12997 0.71167 -0.21700
H 	H 	0.84853 0.11857 0.69817 0.10700
H 	H 	0.89913 0.12707 0.71117 0.09800
O 	O 	0.62693 0.22317 0.76377 -0.24800
C 	C 	0.88303 0.18917 0.71487 0.06300
O 	O 	0.58923 0.15517 0.74247 -0.26000
C 	C 	0.87753 0.21767 0.69977 -0.12600
H 	H 	0.86143 0.20007 0.68737 0.07400
O 	O 	0.76953 0.11607 0.79051 -0.20700
C 	C 	0.89533 0.27487 0.70187 -0.04100
C 	C 	0.91903 0.30017 0.72097 -0.11200
H 	H 	0.93103 0.33727 0.72297 0.07500
C 	C 	0.92433 0.26977 0.73677 0.05100
C 	C 	0.90953 0.21557 0.73417 0.04100
C 	C 	0.88843 0.30637 0.68237 0.31700
C 	C 	0.97243 0.19497 0.74467 -0.28600
H 	H 	0.00013 0.22767 0.75137 0.13500
H 	H 	0.97373 0.16367 0.74987 0.13200
H 	H 	0.97903 0.19807 0.72987 0.12100
O 	O 	0.95533 0.09667 0.77987 -0.13700
C 	C 	0.95313 0.29877 0.75787 -0.23600
H 	H 	0.95973 0.33607 0.75727 0.10200
H 	H 	0.98893 0.30137 0.75807 0.10900
O 	O 	0.49233 0.80367 0.96397 -0.12600
C 	C 	0.92583 0.27477 0.77807 0.10300
C 	C 	0.95243 0.26357 0.79227 -0.18200
H 	H 	0.98743 0.26957 0.78937 0.11000
C 	C 	0.92943 0.24337 0.81107 0.03500
C 	C 	0.87053 0.22957 0.81137 -0.19500
H 	H 	0.85283 0.21287 0.82377 0.10500
O 	O 	0.73223 0.83297 0.79407 -0.21800
C 	C 	0.83953 0.23547 0.79867 0.14000
O 	O 	0.59993 0.82327 0.82217 -0.17900
C 	C 	0.86913 0.26317 0.78057 0.00700
O 	O 	0.60943 0.81167 0.82387 -0.00700
C 	C 	0.96343 0.23317 0.82697 0.19500
O 	O 	0.61023 0.89747 0.77689 -0.29000
C 	C 	0.84773 0.32497 0.77077 -0.26300
H 	H 	0.87163 0.35157 0.76077 0.11200
H 	H 	0.81233 0.32247 0.77037 0.11400
H 	H 	0.86313 0.33617 0.78447 0.11900
O 	O 	0.56303 0.92467 0.75687 -0.20500
C 	C 	0.78453 0.21817 0.80457 -0.29400
H 	H 	0.77603 0.19647 0.81717 0.12400
H 	H 	0.78153 0.25027 0.80767 0.13400
O 	O 	0.52833 0.89667 0.75637 -0.01900
C 	C 	0.74093 0.18327 0.78747 0.07600
O 	O 	0.59363 0.06767 0.83815 -0.19700
C 	C 	0.70043 0.19517 0.77797 -0.16500
H 	H 	0.70083 0.22727 0.78187 0.10000
O 	O 	0.54173 0.22737 0.83577 -0.24000
C 	C 	0.66513 0.16427 0.76477 0.03800
O 	O 	0.47853 0.20287 0.85777 -0.29900
C 	C 	0.66443 0.12387 0.75907 -0.15700
H 	H 	0.63843 0.10267 0.74897 0.08600
O 	O 	0.46053 0.18387 0.85557 0.09600
C 	C 	0.70223 0.10387 0.76667 0.05900
O 	O 	0.44423 0.98277 0.80695 -0.19100
C 	C 	0.73733 0.13377 0.78157 0.02900
O 	O 	0.25923 0.77757 0.81467 -0.20400
C 	C 	0.62073 0.18027 0.75627 0.26100
O 	O 	0.28983 0.73427 0.83787 -0.19700
C 	C 	0.74103 0.08177 0.80727 -0.17800
H 	H 	0.70393 0.05657 0.80317 0.08400
H 	H 	0.75873 0.06157 0.81137 0.06800
H 	H 	0.74093 0.10357 0.81877 0.08300
O 	O 	0.42883 0.97997 0.87005 -0.18500
C 	C 	0.69603 0.05117 0.75847 -0.21100
H 	H 	0.67923 0.02337 0.76927 0.09300
H 	H 	0.67093 0.03937 0.74667 0.09800
O 	O 	0.56273 0.01497 0.93837 -0.23700
C 	C 	0.60253 0.98937 0.82767 0.06800
O 	O 	0.64053 0.07347 0.92187 -0.22800
C 	C 	0.60163 0.95587 0.81167 -0.11500
H 	H 	0.61313 0.93067 0.81427 0.06300
O 	O 	0.50943 0.90327 0.84980 -0.17400
C 	C 	0.58383 0.95887 0.79157 -0.03200
C 	C 	0.56643 0.99817 0.78747 -0.11400
H 	H 	0.55403 0.00007 0.77427 0.07600
C 	C 	0.56783 0.03307 0.80286 0.06100
O 	O 	0.48113 0.13887 0.89147 -0.06700
C 	C 	0.58853 0.02947 0.82287 0.02200
O 	O 	0.45573 0.11517 0.88837 -0.11100
C 	C 	0.58643 0.92397 0.77377 0.27100
C 	C 	0.64483 0.11687 0.83747 -0.20000
H 	H 	0.67363 0.10917 0.84067 0.09100
H 	H 	0.64503 0.14227 0.84757 0.07900
H 	H 	0.65043 0.13267 0.82377 0.09700
O 	O 	0.39933 0.76117 0.82287 0.43700
C 	C 	0.55203 0.07657 0.79847 -0.22100
H 	H 	0.58503 0.11237 0.79907 0.10200
H 	H 	0.53803 0.07147 0.78427 0.09800
O 	O 	0.38633 0.76247 0.81667 -0.57200
C 	C 	0.50983 0.07667 0.81293 0.06300
O 	O 	0.49663 0.81537 0.79347 -0.16300
C 	C 	0.52233 0.12647 0.82177 -0.12700
H 	H 	0.55593 0.15757 0.81877 0.08500
O 	O 	0.51273 0.82037 0.79997 0.02100
C 	C 	0.48473 0.13107 0.83553 -0.02300
C 	C 	0.43523 0.08347 0.83987 -0.12500
H 	H 	0.41033 0.08557 0.84877 0.08600
C 	C 	0.42243 0.03437 0.83137 0.06600
C 	C 	0.45763 0.02987 0.81712 0.02900
C 	C 	0.50393 0.19017 0.84347 0.26800
C 	C 	0.41683 0.97927 0.78727 -0.23300
H 	H 	0.38753 0.98687 0.78967 0.11100
H 	H 	0.40223 0.94307 0.78157 0.09900
H 	H 	0.44283 0.00577 0.77767 0.10000
C 	C 	0.36713 0.98427 0.83627 -0.22700
H 	H 	0.34423 0.97557 0.82387 0.10700
H 	H 	0.34973 0.99427 0.84717 0.10300
C 	C 	0.36663 0.93147 0.84317 0.08100
C 	C 	0.33323 0.88027 0.83427 -0.16800
H 	H 	0.31183 0.87867 0.82297 0.10400
C 	C 	0.32913 0.83247 0.84057 0.05000
C 	C 	0.36233 0.83427 0.85537 -0.15600
H 	H 	0.36213 0.80217 0.85917 0.10200
C 	C 	0.40033 0.88647 0.86617 0.08400
C 	C 	0.39893 0.93197 0.85957 0.01700
C 	C 	0.28683 0.77557 0.82807 0.24300
C 	C 	0.40083 0.98657 0.88807 -0.26300
H 	H 	0.36193 0.96707 0.88567 0.11800
H 	H 	0.41323 0.02487 0.89007 0.11500
H 	H 	0.40913 0.97227 0.90027 0.10700
C 	C 	0.43363 0.88637 0.88407 -0.24900
H 	H 	0.43033 0.85037 0.88487 0.11600
H 	H 	0.41783 0.89147 0.89677 0.11600
C 	C 	0.49393 0.92897 0.88363 0.07600
C 	C 	0.51713 0.96127 0.90104 -0.12400
H 	H 	0.49453 0.95577 0.91247 0.07700
C 	C 	0.57253 0.00167 0.90267 -0.03700
Rb	Rb	0.69097 0.88309 0.79505 0.42200
C 	C 	0.60483 0.00837 0.88526 -0.12500
H 	H 	0.64173 0.03547 0.88547 0.07700
C 	C 	0.58403 0.97597 0.86742 0.06800
C 	C 	0.53093 0.93907 0.86707 0.00800
C 	C 	0.59023 0.03007 0.92187 0.23800
C 	C 	0.51343 0.85287 0.85097 -0.27200
H 	H 	0.55113 0.86227 0.84967 0.12500
H 	H 	0.49223 0.82837 0.83987 0.11400
H 	H 	0.49933 0.83517 0.86417 0.11500
C 	C 	0.62163 0.98487 0.84857 -0.22200
H 	H 	0.65633 0.01807 0.85107 0.09700
H 	H 	0.62893 0.95457 0.84827 0.10000
Rb	Rb	0.09890 0.21276 0.64256 0.68900
O 	O 	0.81350 0.27350 0.60710 -0.30700
C 	C 	0.97410 0.42130 0.56864 0.03100
Rb	Rb	0.21128 0.41206 0.70662 0.67800
O 	O 	0.78200 0.31690 0.59320 -0.25900
C 	C 	0.97070 0.38660 0.58470 0.03700
Rb	Rb	0.91443 0.45510 0.61973 0.68600
O 	O 	0.02390 0.45390 0.55788 -0.19200
C 	C 	0.92350 0.35440 0.59300 -0.07900
H 	H 	0.92220 0.33100 0.60360 0.02900
Rb	Rb	0.12477 0.56334 0.56157 0.66700
O 	O 	0.07910 0.61450 0.50050 -0.35500
C 	C 	0.87200 0.35190 0.58720 -0.10800
Rb	Rb	0.85510 0.22760 0.63378 0.42300
O 	O 	0.11710 0.68950 0.52060 -0.26300
C 	C 	0.87740 0.38860 0.57131 -0.06800
H 	H 	0.84660 0.39030 0.56700 0.06800
O 	O 	0.93610 0.52180 0.58209 -0.18500
C 	C 	0.92900 0.42330 0.56142 0.04400
O 	O 	0.89700 0.57350 0.65760 -0.21200
C 	C 	0.81990 0.31380 0.59650 0.35400
O 	O 	0.94620 0.54150 0.67710 -0.20800
C 	C 	0.03240 0.42550 0.54070 -0.23900
H 	H 	0.04830 0.40450 0.54590 0.10600
H 	H 	0.05670 0.45180 0.53070 0.10100
H 	H 	0.99790 0.40130 0.53420 0.10700
O 	O 	0.09690 0.60530 0.59930 -0.18700
C 	C 	0.93040 0.46330 0.54500 -0.21500
H 	H 	0.93670 0.45190 0.53150 0.10600
H 	H 	0.89460 0.46040 0.54450 0.09800
O 	O 	0.26290 0.55650 0.59710 -0.24800
C 	C 	0.97280 0.52250 0.54820 0.05800
O 	O 	0.23260 0.48850 0.57580 -0.26000
C 	C 	0.00680 0.55100 0.53310 -0.12100
H 	H 	0.00530 0.53340 0.52070 0.07300
O 	O 	0.01320 0.44940 0.62384 -0.20800
C 	C 	0.04620 0.60820 0.53520 -0.04100
C 	C 	0.04780 0.63350 0.55430 -0.11100
H 	H 	0.07290 0.67060 0.55630 0.07600
C 	C 	0.01210 0.60310 0.57010 0.05300
C 	C 	0.97270 0.54890 0.56750 0.04100
C 	C 	0.08460 0.63970 0.51570 0.31700
C 	C 	0.88920 0.52830 0.57800 -0.27500
H 	H 	0.89420 0.56100 0.58470 0.12900
H 	H 	0.85660 0.49700 0.58320 0.13000
H 	H 	0.88570 0.53140 0.56320 0.11800
O 	O 	0.80800 0.43000 0.61320 -0.13600
C 	C 	0.01230 0.63210 0.59120 -0.23300
H 	H 	0.04300 0.66940 0.59060 0.10200
H 	H 	0.97910 0.63470 0.59140 0.10800
O 	O 	0.97800 0.13700 0.79730 -0.12700
C 	C 	0.01560 0.60810 0.61140 0.10600
C 	C 	0.97780 0.59690 0.62560 -0.18500
H 	H 	0.94880 0.60290 0.62270 0.11200
C 	C 	0.98060 0.57670 0.64440 0.03200
C 	C 	0.02570 0.56290 0.64470 -0.19100
H 	H 	0.02670 0.54620 0.65710 0.10400
O 	O 	0.76740 0.16630 0.62740 -0.21800
C 	C 	0.06260 0.56880 0.63200 0.13900
O 	O 	0.89000 0.15660 0.65550 -0.17900
C 	C 	0.06070 0.59650 0.61390 0.00700
O 	O 	0.86890 0.14500 0.65720 -0.00800
C 	C 	0.93640 0.56650 0.66030 0.19900
O 	O 	0.95390 0.23080 0.61022 -0.29300
C 	C 	0.14390 0.65830 0.60410 -0.26400
H 	H 	0.14660 0.68490 0.59410 0.11300
H 	H 	0.17680 0.65580 0.60370 0.11400
H 	H 	0.13970 0.66950 0.61780 0.11900
O 	O 	0.02830 0.25800 0.59020 -0.20700
C 	C 	0.10030 0.55150 0.63790 -0.29200
H 	H 	0.08710 0.52980 0.65050 0.12400
H 	H 	0.13540 0.58360 0.64100 0.13400
O 	O 	0.03500 0.23000 0.58970 -0.01700
C 	C 	0.10900 0.51660 0.62080 0.07500
O 	O 	0.14070 0.40100 0.67148 -0.19700
C 	C 	0.16140 0.52850 0.61130 -0.16400
H 	H 	0.19310 0.56060 0.61520 0.10000
O 	O 	0.35230 0.56070 0.66910 -0.24000
C 	C 	0.16580 0.49760 0.59810 0.03700
O 	O 	0.39100 0.53620 0.69110 -0.29900
C 	C 	0.12610 0.45720 0.59240 -0.15500
H 	H 	0.13090 0.43600 0.58230 0.08600
O 	O 	0.39000 0.51720 0.68890 0.09600
C 	C 	0.06830 0.43720 0.60000 0.05800
O 	O 	0.20520 0.31610 0.64028 -0.19100
C 	C 	0.06310 0.46710 0.61490 0.03100
O 	O 	0.18500 0.11090 0.64800 -0.20400
C 	C 	0.22620 0.51360 0.58960 0.26200
O 	O 	0.11110 0.06760 0.67120 -0.19700
C 	C 	0.00740 0.41510 0.64060 -0.16800
H 	H 	0.01930 0.38990 0.63650 0.08200
H 	H 	0.96950 0.39490 0.64470 0.06400
H 	H 	0.02930 0.43690 0.65210 0.08000
O 	O 	0.21780 0.31330 0.70338 -0.18400
C 	C 	0.02180 0.38450 0.59180 -0.20600
H 	H 	0.01080 0.35670 0.60260 0.09400
H 	H 	0.03510 0.37270 0.58000 0.09800
O 	O 	0.11890 0.34830 0.77170 -0.23500
C 	C 	0.05350 0.32270 0.66100 0.06200
O 	O 	0.09960 0.40680 0.75520 -0.22700
C 	C 	0.02090 0.28920 0.64500 -0.10800
H 	H 	0.98420 0.26400 0.64760 0.05900
O 	O 	0.06050 0.23660 0.68313 -0.17600
C 	C 	0.04170 0.29220 0.62490 -0.03200
C 	C 	0.09840 0.33150 0.62080 -0.12200
H 	H 	0.11270 0.33340 0.60760 0.08100
C 	C 	0.13190 0.36640 0.63619 0.06600
O 	O 	0.32440 0.47220 0.72480 -0.06700
C 	C 	0.10760 0.36280 0.65620 0.02500
O 	O 	0.32610 0.44850 0.72170 -0.11100
C 	C 	0.00420 0.25730 0.60710 0.27500
C 	C 	0.13870 0.45020 0.67080 -0.20100
H 	H 	0.10220 0.44250 0.67400 0.09100
H 	H 	0.16390 0.47560 0.68090 0.08000
H 	H 	0.14890 0.46600 0.65710 0.09700
O 	O 	0.02850 0.09450 0.65620 0.45100
C 	C 	0.19120 0.40990 0.63180 -0.22300
H 	H 	0.19400 0.44570 0.63240 0.10300
H 	H 	0.20010 0.40480 0.61760 0.09900
O 	O 	0.04280 0.09580 0.65000 -0.58400
C 	C 	0.23350 0.41000 0.64626 0.06400
O 	O 	0.98540 0.14870 0.62680 -0.16800
C 	C 	0.27080 0.45980 0.65510 -0.12700
H 	H 	0.26830 0.49090 0.65210 0.08500
O 	O 	0.97430 0.15370 0.63330 0.02400
C 	C 	0.31300 0.46440 0.66886 -0.02200
C 	C 	0.31490 0.41680 0.67320 -0.12700
H 	H 	0.34190 0.41890 0.68210 0.08700
C 	C 	0.27860 0.36770 0.66470 0.06900
C 	C 	0.23890 0.36320 0.65045 0.03000
C 	C 	0.35290 0.52350 0.67680 0.26800
C 	C 	0.22910 0.31260 0.62060 -0.24300
H 	H 	0.26600 0.32020 0.62300 0.11300
H 	H 	0.20750 0.27640 0.61490 0.10200
H 	H 	0.22960 0.33910 0.61100 0.10400
C 	C 	0.28380 0.31760 0.66960 -0.23100
H 	H 	0.29800 0.30890 0.65720 0.10800
H 	H 	0.31120 0.32760 0.68050 0.10300
C 	C 	0.23150 0.26480 0.67650 0.08200
C 	C 	0.21370 0.21360 0.66760 -0.16900
H 	H 	0.23350 0.21200 0.65630 0.10400
C 	C 	0.17000 0.16580 0.67390 0.05100
C 	C 	0.13860 0.16760 0.68870 -0.15600
H 	H 	0.10670 0.13550 0.69250 0.10200
C 	C 	0.15280 0.21980 0.69950 0.08500
C 	C 	0.19970 0.26530 0.69290 0.01500
C 	C 	0.15540 0.10890 0.66140 0.24300
C 	C 	0.25240 0.31990 0.72140 -0.27400
H 	H 	0.27180 0.30040 0.71900 0.12100
H 	H 	0.27830 0.35820 0.72340 0.12000
H 	H 	0.22980 0.30560 0.73360 0.11000
C 	C 	0.11940 0.21970 0.71740 -0.24900
H 	H 	0.08670 0.18370 0.71820 0.11700
H 	H 	0.14030 0.22480 0.73010 0.11600
C 	C 	0.10170 0.26230 0.71696 0.07700
C 	C 	0.11080 0.29460 0.73437 -0.12800
H 	H 	0.12790 0.28910 0.74580 0.07800
C 	C 	0.09580 0.33500 0.73600 -0.03400
Rb	Rb	0.85878 0.21642 0.62838 0.42200
C 	C 	0.07020 0.34170 0.71859 -0.12000
H 	H 	0.06040 0.36880 0.71880 0.07600
C 	C 	0.05860 0.30930 0.70075 0.06400
C 	C 	0.07480 0.27240 0.70040 0.00900
C 	C 	0.10650 0.36340 0.75520 0.23800
C 	C 	0.00610 0.18620 0.68430 -0.26100
H 	H 	0.97780 0.19560 0.68300 0.12000
H 	H 	0.00280 0.16170 0.67320 0.11100
H 	H 	0.00250 0.16850 0.69750 0.11300
C 	C 	0.02990 0.31820 0.68190 -0.21700
H 	H 	0.02840 0.35140 0.68440 0.09800
H 	H 	0.99230 0.28790 0.68160 0.09700
Rb	Rb	0.76557 0.54609 0.97589 0.68800
O 	O 	0.48017 0.60683 0.94043 -0.30700
C 	C 	0.64077 0.75463 0.90197 0.03100
Rb	Rb	0.87795 0.74539 0.03995 0.67800
O 	O 	0.44867 0.65023 0.92653 -0.25900
C 	C 	0.63737 0.71993 0.91803 0.04100
Rb	Rb	0.58110 0.78843 0.95306 0.68700
O 	O 	0.69057 0.78723 0.89121 -0.19100
C 	C 	0.59017 0.68773 0.92633 -0.08200
H 	H 	0.58887 0.66433 0.93693 0.03000
Rb	Rb	0.79144 0.89667 0.89490 0.66700
O 	O 	0.74577 0.94783 0.83383 -0.35600
C 	C 	0.53867 0.68523 0.92053 -0.10700
Rb	Rb	0.52177 0.56093 0.96711 0.42300
O 	O 	0.78377 0.02283 0.85393 -0.26600
C 	C 	0.54407 0.72193 0.90464 -0.06900
H 	H 	0.51327 0.72363 0.90033 0.06800
O 	O 	0.60277 0.85513 0.91542 -0.18500
C 	C 	0.59567 0.75663 0.89475 0.04400
O 	O 	0.56367 0.90683 0.99093 -0.21100
C 	C 	0.48657 0.64713 0.92983 0.35400
O 	O 	0.61287 0.87483 0.01043 -0.20600
C 	C 	0.69907 0.75883 0.87403 -0.25000
H 	H 	0.71497 0.73783 0.87923 0.10900
H 	H 	0.72337 0.78513 0.86403 0.10400
H 	H 	0.66457 0.73463 0.86753 0.11200
O 	O 	0.76357 0.93863 0.93263 -0.19100
C 	C 	0.59707 0.79663 0.87833 -0.21600
H 	H 	0.60337 0.78523 0.86483 0.10600
H 	H 	0.56127 0.79373 0.87783 0.09800
O 	O 	0.92957 0.88983 0.93043 -0.24800
C 	C 	0.63947 0.85583 0.88153 0.06100
O 	O 	0.89927 0.82183 0.90913 -0.26000
C 	C 	0.67347 0.88433 0.86643 -0.12300
H 	H 	0.67197 0.86673 0.85403 0.07300
O 	O 	0.67987 0.78273 0.95717 -0.20600
C 	C 	0.71287 0.94153 0.86853 -0.04400
C 	C 	0.71447 0.96683 0.88763 -0.10300
H 	H 	0.73957 0.00393 0.88963 0.07100
C 	C 	0.67877 0.93643 0.90343 0.04600
C 	C 	0.63937 0.88223 0.90083 0.04500
C 	C 	0.75127 0.97303 0.84903 0.32200
C 	C 	0.55587 0.86163 0.91133 -0.27500
H 	H 	0.56087 0.89433 0.91803 0.13000
H 	H 	0.52327 0.83033 0.91653 0.13000
H 	H 	0.55237 0.86473 0.89653 0.11800
O 	O 	0.47467 0.76333 0.94653 -0.13600
C 	C 	0.67897 0.96543 0.92453 -0.22800
H 	H 	0.70967 0.00273 0.92393 0.09900
H 	H 	0.64577 0.96803 0.92473 0.10900
O 	O 	0.64467 0.47033 0.13063 -0.12600
C 	C 	0.68227 0.94143 0.94473 0.10000
C 	C 	0.64447 0.93023 0.95893 -0.17900
H 	H 	0.61547 0.93623 0.95603 0.11100
C 	C 	0.64727 0.91003 0.97773 0.03300
C 	C 	0.69237 0.89623 0.97803 -0.19300
H 	H 	0.69337 0.87953 0.99043 0.10400
O 	O 	0.43407 0.49963 0.96073 -0.21800
C 	C 	0.72927 0.90213 0.96533 0.13800
O 	O 	0.55667 0.48993 0.98883 -0.17900
C 	C 	0.72737 0.92983 0.94723 0.01000
O 	O 	0.53557 0.47833 0.99053 -0.00700
C 	C 	0.60307 0.89983 0.99363 0.19900
O 	O 	0.62057 0.56413 0.94355 -0.28900
C 	C 	0.81057 0.99163 0.93743 -0.23900
H 	H 	0.81327 0.01823 0.92743 0.10400
H 	H 	0.84347 0.98913 0.93703 0.10800
H 	H 	0.80637 0.00283 0.95113 0.11000
O 	O 	0.69497 0.59133 0.92353 -0.20500
C 	C 	0.76697 0.88483 0.97123 -0.29200
H 	H 	0.75377 0.86313 0.98383 0.12300
H 	H 	0.80207 0.91693 0.97433 0.13400
O 	O 	0.70167 0.56333 0.92303 -0.01900
C 	C 	0.77567 0.84993 0.95413 0.07600
O 	O 	0.80737 0.73433 0.00481 -0.19700
C 	C 	0.82807 0.86183 0.94463 -0.16400
H 	H 	0.85977 0.89393 0.94853 0.10100
O 	O 	0.01897 0.89403 0.00243 -0.23900
C 	C 	0.83247 0.83093 0.93143 0.03800
O 	O 	0.05767 0.86953 0.02443 -0.29800
C 	C 	0.79277 0.79053 0.92573 -0.15700
H 	H 	0.79757 0.76933 0.91563 0.08700
O 	O 	0.05667 0.85053 0.02223 0.09600
C 	C 	0.73497 0.77053 0.93333 0.05900
O 	O 	0.87187 0.64943 0.97361 -0.19100
C 	C 	0.72977 0.80043 0.94823 0.02900
O 	O 	0.85167 0.44423 0.98133 -0.20400
C 	C 	0.89287 0.84693 0.92293 0.26100
O 	O 	0.77777 0.40093 0.00453 -0.19700
C 	C 	0.67407 0.74843 0.97393 -0.18000
H 	H 	0.68597 0.72323 0.96983 0.08500
H 	H 	0.63617 0.72823 0.97803 0.07000
H 	H 	0.69597 0.77023 0.98543 0.08300
O 	O 	0.88447 0.64663 0.03671 -0.18400
C 	C 	0.68847 0.71783 0.92513 -0.21000
H 	H 	0.67747 0.69003 0.93593 0.09400
H 	H 	0.70177 0.70603 0.91333 0.09900
O 	O 	0.78557 0.68163 0.10503 -0.23500
C 	C 	0.72017 0.65603 0.99433 0.06800
O 	O 	0.76627 0.74013 0.08853 -0.22700
C 	C 	0.68757 0.62253 0.97833 -0.11700
H 	H 	0.65087 0.59733 0.98093 0.06400
O 	O 	0.72717 0.56993 0.01646 -0.17300
C 	C 	0.70837 0.62553 0.95823 -0.02800
C 	C 	0.76507 0.66483 0.95413 -0.12500
H 	H 	0.77937 0.66673 0.94093 0.08200
C 	C 	0.79857 0.69973 0.96952 0.06800
O 	O 	0.99107 0.80553 0.05813 -0.06800
C 	C 	0.77427 0.69613 0.98953 0.02200
O 	O 	0.99277 0.78183 0.05503 -0.11100
C 	C 	0.67087 0.59063 0.94043 0.26900
C 	C 	0.80537 0.78353 0.00413 -0.20000
H 	H 	0.76887 0.77583 0.00733 0.09100
H 	H 	0.83057 0.80893 0.01423 0.07900
H 	H 	0.81557 0.79933 0.99043 0.09700
O 	O 	0.69517 0.42783 0.98953 0.43700
C 	C 	0.85787 0.74323 0.96513 -0.22500
H 	H 	0.86067 0.77903 0.96573 0.10300
H 	H 	0.86677 0.73813 0.95093 0.09900
O 	O 	0.70947 0.42913 0.98333 -0.57200
C 	C 	0.90017 0.74333 0.97959 0.06500
O 	O 	0.65207 0.48203 0.96013 -0.16300
C 	C 	0.93747 0.79313 0.98843 -0.12800
H 	H 	0.93497 0.82423 0.98543 0.08500
O 	O 	0.64097 0.48703 0.96663 0.02100
C 	C 	0.97967 0.79773 0.00219 -0.02200
C 	C 	0.98157 0.75013 0.00653 -0.13200
H 	H 	0.00857 0.75223 0.01543 0.09100
C 	C 	0.94527 0.70103 0.99803 0.07100
C 	C 	0.90557 0.69653 0.98378 0.02900
C 	C 	0.01957 0.85683 0.01013 0.27000
C 	C 	0.89577 0.64593 0.95393 -0.24300
H 	H 	0.93267 0.65353 0.95633 0.11300
H 	H 	0.87417 0.60973 0.94823 0.10100
H 	H 	0.89627 0.67243 0.94433 0.10400
C 	C 	0.95047 0.65093 0.00293 -0.23100
H 	H 	0.96467 0.64223 0.99053 0.10700
H 	H 	0.97787 0.66093 0.01383 0.10300
C 	C 	0.89817 0.59813 0.00983 0.08200
C 	C 	0.88037 0.54693 0.00093 -0.16900
H 	H 	0.90017 0.54533 0.98963 0.10400
C 	C 	0.83667 0.49913 0.00723 0.05100
C 	C 	0.80527 0.50093 0.02203 -0.15700
H 	H 	0.77337 0.46883 0.02583 0.10200
C 	C 	0.81947 0.55313 0.03283 0.08500
C 	C 	0.86637 0.59863 0.02623 0.01500
C 	C 	0.82207 0.44223 0.99473 0.24300
C 	C 	0.91907 0.65323 0.05473 -0.27400
H 	H 	0.93847 0.63373 0.05233 0.12000
H 	H 	0.94497 0.69153 0.05673 0.12000
H 	H 	0.89647 0.63893 0.06693 0.11000
C 	C 	0.78607 0.55303 0.05073 -0.25000
H 	H 	0.75337 0.51703 0.05153 0.11700
H 	H 	0.80697 0.55813 0.06343 0.11600
C 	C 	0.76837 0.59563 0.05029 0.07800
C 	C 	0.77747 0.62793 0.06770 -0.12900
H 	H 	0.79457 0.62243 0.07913 0.07800
C 	C 	0.76247 0.66833 0.06933 -0.03300
Rb	Rb	0.52545 0.54975 0.96171 0.42200
C 	C 	0.73687 0.67503 0.05192 -0.12300
H 	H 	0.72707 0.70213 0.05213 0.07700
C 	C 	0.72527 0.64263 0.03408 0.06700
C 	C 	0.74147 0.60573 0.03373 0.00700
C 	C 	0.77317 0.69673 0.08853 0.23700
C 	C 	0.67277 0.51953 0.01763 -0.27200
H 	H 	0.64447 0.52893 0.01633 0.12500
H 	H 	0.66947 0.49503 0.00653 0.11400
H 	H 	0.66917 0.50183 0.03083 0.11500
C 	C 	0.69657 0.65153 0.01523 -0.22700
H 	H 	0.69507 0.68473 0.01773 0.10000
H 	H 	0.65897 0.62123 0.01493 0.10100
Rb	Rb	0.43223 0.87943 0.30923 0.68800
O 	O 	0.14683 0.94017 0.27377 -0.30700
C 	C 	0.30743 0.08797 0.23531 0.03100
Rb	Rb	0.54461 0.07873 0.37329 0.67800
O 	O 	0.11533 0.98357 0.25987 -0.25800
C 	C 	0.30403 0.05327 0.25137 0.04300
Rb	Rb	0.24776 0.12177 0.28640 0.68700
O 	O 	0.35723 0.12057 0.22455 -0.19200
C 	C 	0.25683 0.02107 0.25967 -0.08700
H 	H 	0.25553 0.99767 0.27027 0.03400
Rb	Rb	0.45810 0.23001 0.22824 0.66700
O 	O 	0.41243 0.28117 0.16717 -0.35500
C 	C 	0.20533 0.01857 0.25387 -0.10800
Rb	Rb	0.18843 0.89427 0.30045 0.42300
O 	O 	0.45043 0.35617 0.18727 -0.26300
C 	C 	0.21073 0.05527 0.23798 -0.06900
H 	H 	0.17993 0.05697 0.23367 0.06800
O 	O 	0.26943 0.18847 0.24876 -0.18400
C 	C 	0.26233 0.08997 0.22809 0.04500
O 	O 	0.23033 0.24017 0.32427 -0.21100
C 	C 	0.15323 0.98047 0.26317 0.35600
O 	O 	0.27953 0.20817 0.34377 -0.20700
C 	C 	0.36573 0.09217 0.20737 -0.24800
H 	H 	0.38163 0.07117 0.21257 0.10800
H 	H 	0.39003 0.11847 0.19737 0.10300
H 	H 	0.33123 0.06797 0.20087 0.11100
O 	O 	0.43023 0.27197 0.26597 -0.18700
C 	C 	0.26373 0.12997 0.21167 -0.21700
H 	H 	0.27003 0.11857 0.19817 0.10700
H 	H 	0.22793 0.12707 0.21117 0.09900
O 	O 	0.59623 0.22317 0.26377 -0.24800
C 	C 	0.30613 0.18917 0.21487 0.06300
O 	O 	0.56593 0.15517 0.24247 -0.26000
C 	C 	0.34013 0.21767 0.19977 -0.12600
H 	H 	0.33863 0.20007 0.18737 0.07400
O 	O 	0.34653 0.11607 0.29051 -0.20700
C 	C 	0.37953 0.27487 0.20187 -0.04000
C 	C 	0.38113 0.30017 0.22097 -0.11200
H 	H 	0.40623 0.33727 0.22297 0.07600
C 	C 	0.34543 0.26977 0.23677 0.05100
C 	C 	0.30603 0.21557 0.23417 0.04200
C 	C 	0.41793 0.30637 0.18237 0.31700
C 	C 	0.22253 0.19497 0.24467 -0.27500
H 	H 	0.22753 0.22767 0.25137 0.13000
H 	H 	0.18993 0.16367 0.24987 0.13000
H 	H 	0.21903 0.19807 0.22987 0.11800
O 	O 	0.14133 0.09667 0.27987 -0.13600
C 	C 	0.34563 0.29877 0.25787 -0.23700
H 	H 	0.37633 0.33607 0.25727 0.10300
H 	H 	0.31243 0.30137 0.25807 0.11100
O 	O 	0.31133 0.80367 0.46397 -0.12600
C 	C 	0.34893 0.27477 0.27807 0.10400
C 	C 	0.31113 0.26357 0.29227 -0.18200
H 	H 	0.28213 0.26957 0.28937 0.11100
C 	C 	0.31393 0.24337 0.31107 0.03400
C 	C 	0.35903 0.22957 0.31137 -0.19400
H 	H 	0.36003 0.21287 0.32377 0.10500
O 	O 	0.10073 0.83297 0.29407 -0.21700
C 	C 	0.39593 0.23547 0.29867 0.14000
O 	O 	0.22333 0.82327 0.32217 -0.17900
C 	C 	0.39403 0.26317 0.28057 0.00700
O 	O 	0.20223 0.81167 0.32387 -0.00800
C 	C 	0.26973 0.23317 0.32697 0.19900
O 	O 	0.28723 0.89747 0.27689 -0.29000
C 	C 	0.47723 0.32497 0.27077 -0.26300
H 	H 	0.47993 0.35157 0.26077 0.11200
H 	H 	0.51013 0.32247 0.27037 0.11400
H 	H 	0.47303 0.33617 0.28447 0.11900
O 	O 	0.36163 0.92467 0.25687 -0.20500
C 	C 	0.43363 0.21817 0.30457 -0.29300
H 	H 	0.42043 0.19647 0.31717 0.12400
H 	H 	0.46873 0.25027 0.30767 0.13400
O 	O 	0.36833 0.89667 0.25637 -0.01900
C 	C 	0.44233 0.18327 0.28747 0.07600
O 	O 	0.47403 0.06767 0.33815 -0.19700
C 	C 	0.49473 0.19517 0.27797 -0.16500
H 	H 	0.52643 0.22727 0.28187 0.10000
O 	O 	0.68563 0.22737 0.33577 -0.24000
C 	C 	0.49913 0.16427 0.26477 0.03800
O 	O 	0.72433 0.20287 0.35777 -0.29900
C 	C 	0.45943 0.12387 0.25907 -0.15700
H 	H 	0.46423 0.10267 0.24897 0.08600
O 	O 	0.72333 0.18387 0.35557 0.09600
C 	C 	0.40163 0.10387 0.26667 0.05900
O 	O 	0.53853 0.98277 0.30695 -0.19100
C 	C 	0.39643 0.13377 0.28157 0.02900
O 	O 	0.51833 0.77757 0.31467 -0.20400
C 	C 	0.55953 0.18027 0.25627 0.26100
O 	O 	0.44443 0.73427 0.33787 -0.19700
C 	C 	0.34073 0.08177 0.30727 -0.17800
H 	H 	0.35263 0.05657 0.30317 0.08400
H 	H 	0.30283 0.06157 0.31137 0.06900
H 	H 	0.36263 0.10357 0.31877 0.08300
O 	O 	0.55113 0.97997 0.37005 -0.18500
C 	C 	0.35513 0.05117 0.25847 -0.21100
H 	H 	0.34413 0.02337 0.26927 0.09300
H 	H 	0.36843 0.03937 0.24667 0.09800
O 	O 	0.45223 0.01497 0.43837 -0.23700
C 	C 	0.38683 0.98937 0.32767 0.06800
O 	O 	0.43293 0.07347 0.42187 -0.22800
C 	C 	0.35423 0.95587 0.31167 -0.11500
H 	H 	0.31753 0.93067 0.31427 0.06300
O 	O 	0.39383 0.90327 0.34980 -0.17400
C 	C 	0.37503 0.95887 0.29157 -0.03200
C 	C 	0.43173 0.99817 0.28747 -0.11400
H 	H 	0.44603 0.00007 0.27427 0.07600
C 	C 	0.46523 0.03307 0.30286 0.06100
O 	O 	0.65773 0.13887 0.39147 -0.06700
C 	C 	0.44093 0.02947 0.32287 0.02200
O 	O 	0.65943 0.11517 0.38837 -0.11100
C 	C 	0.33753 0.92397 0.27377 0.27100
C 	C 	0.47203 0.11687 0.33747 -0.20000
H 	H 	0.43553 0.10917 0.34067 0.09100
H 	H 	0.49723 0.14227 0.34757 0.07900
H 	H 	0.48223 0.13267 0.32377 0.09700
O 	O 	0.36183 0.76117 0.32287 0.43700
C 	C 	0.52453 0.07657 0.29847 -0.22100
H 	H 	0.52733 0.11237 0.29907 0.10200
H 	H 	0.53343 0.07147 0.28427 0.09800
O 	O 	0.37613 0.76247 0.31667 -0.57200
C 	C 	0.56683 0.07667 0.31293 0.06300
O 	O 	0.31873 0.81537 0.29347 -0.16300
C 	C 	0.60413 0.12647 0.32177 -0.12700
H 	H 	0.60163 0.15757 0.31877 0.08500
O 	O 	0.30763 0.82037 0.29997 0.02100
C 	C 	0.64633 0.13107 0.33553 -0.02300
C 	C 	0.64823 0.08347 0.33987 -0.12500
H 	H 	0.67523 0.08557 0.34877 0.08600
C 	C 	0.61193 0.03437 0.33137 0.06600
C 	C 	0.57223 0.02987 0.31712 0.02900
C 	C 	0.68623 0.19017 0.34347 0.26900
C 	C 	0.56243 0.97927 0.28727 -0.23300
H 	H 	0.59933 0.98687 0.28967 0.11100
H 	H 	0.54083 0.94307 0.28157 0.09900
H 	H 	0.56293 0.00577 0.27767 0.10000
C 	C 	0.61713 0.98427 0.33627 -0.22700
H 	H 	0.63133 0.97557 0.32387 0.10700
H 	H 	0.64453 0.99427 0.34717 0.10300
C 	C 	0.56483 0.93147 0.34317 0.08100
C 	C 	0.54703 0.88027 0.33427 -0.16800
H 	H 	0.56683 0.87867 0.32297 0.10400
C 	C 	0.50333 0.83247 0.34057 0.05000
C 	C 	0.47193 0.83427 0.35537 -0.15600
H 	H 	0.44003 0.80217 0.35917 0.10200
C 	C 	0.48613 0.88647 0.36617 0.08400
C 	C 	0.53303 0.93197 0.35957 0.01700
C 	C 	0.48873 0.77557 0.32807 0.24300
C 	C 	0.58573 0.98657 0.38807 -0.26300
H 	H 	0.60513 0.96707 0.38567 0.11800
H 	H 	0.61163 0.02487 0.39007 0.11500
H 	H 	0.56313 0.97227 0.40027 0.10700
C 	C 	0.45273 0.88637 0.38407 -0.24900
H 	H 	0.42003 0.85037 0.38487 0.11600
H 	H 	0.47363 0.89147 0.39677 0.11600
C 	C 	0.43503 0.92897 0.38363 0.07600
C 	C 	0.44413 0.96127 0.40104 -0.12400
H 	H 	0.46123 0.95577 0.41247 0.07700
C 	C 	0.42913 0.00167 0.40267 -0.03700
Rb	Rb	0.19211 0.88309 0.29505 0.42200
C 	C 	0.40353 0.00837 0.38526 -0.12500
H 	H 	0.39373 0.03547 0.38547 0.07700
C 	C 	0.39193 0.97597 0.36742 0.06800
C 	C 	0.40813 0.93907 0.36707 0.00800
C 	C 	0.43983 0.03007 0.42187 0.23800
C 	C 	0.33943 0.85287 0.35097 -0.27200
H 	H 	0.31113 0.86227 0.34967 0.12500
H 	H 	0.33613 0.82837 0.33987 0.11400
H 	H 	0.33583 0.83517 0.36417 0.11500
C 	C 	0.36323 0.98487 0.34857 -0.22200
H 	H 	0.36173 0.01807 0.35107 0.09700
H 	H 	0.32563 0.95457 0.34827 0.10000
Rb	Rb	0.11386 0.90110 0.64256 0.68900
O 	O 	0.46000 0.18650 0.60710 -0.30700
C 	C 	0.44720 0.02590 0.56864 0.03100
Rb	Rb	0.20078 0.78872 0.70662 0.67800
O 	O 	0.53490 0.21800 0.59320 -0.25900
C 	C 	0.41590 0.02930 0.58470 0.03700
Rb	Rb	0.54067 0.08557 0.61973 0.68600
O 	O 	0.43000 0.97610 0.55788 -0.19200
C 	C 	0.43090 0.07650 0.59300 -0.08000
H 	H 	0.40880 0.07780 0.60360 0.02900
Rb	Rb	0.43857 0.87523 0.56157 0.66700
O 	O 	0.53540 0.92090 0.50050 -0.35500
C 	C 	0.47990 0.12800 0.58720 -0.10800
Rb	Rb	0.37250 0.14490 0.63378 0.42300
O 	O 	0.57240 0.88290 0.52060 -0.26300
C 	C 	0.51120 0.12260 0.57131 -0.06800
H 	H 	0.54370 0.15340 0.56700 0.06800
O 	O 	0.58570 0.06390 0.58209 -0.18500
C 	C 	0.49430 0.07100 0.56142 0.04400
O 	O 	0.67650 0.10300 0.65760 -0.21200
C 	C 	0.49390 0.18010 0.59650 0.35400
O 	O 	0.59530 0.05380 0.67710 -0.20800
C 	C 	0.39310 0.96760 0.54070 -0.23900
H 	H 	0.35620 0.95170 0.54590 0.10600
H 	H 	0.39510 0.94330 0.53070 0.10100
H 	H 	0.40340 0.00210 0.53420 0.10700
O 	O 	0.50840 0.90310 0.59930 -0.18700
C 	C 	0.53290 0.06960 0.54500 -0.21500
H 	H 	0.51520 0.06330 0.53150 0.10600
H 	H 	0.56580 0.10540 0.54450 0.09800
O 	O 	0.29360 0.73710 0.59710 -0.24800
C 	C 	0.54970 0.02720 0.54820 0.05800
O 	O 	0.25590 0.76740 0.57580 -0.26000
C 	C 	0.54420 0.99320 0.53310 -0.12100
H 	H 	0.52810 0.99470 0.52070 0.07300
O 	O 	0.43620 0.98680 0.62384 -0.20800
C 	C 	0.56200 0.95380 0.53520 -0.04100
C 	C 	0.58570 0.95220 0.55430 -0.11100
H 	H 	0.59770 0.92710 0.55630 0.07600
C 	C 	0.59100 0.98790 0.57010 0.05300
C 	C 	0.57620 0.02730 0.56750 0.04100
C 	C 	0.55510 0.91540 0.51570 0.31700
C 	C 	0.63910 0.11080 0.57800 -0.27500
H 	H 	0.66680 0.10580 0.58470 0.12900
H 	H 	0.64040 0.14340 0.58320 0.13000
H 	H 	0.64570 0.11430 0.56320 0.11800
O 	O 	0.62200 0.19200 0.61320 -0.13600
C 	C 	0.61980 0.98770 0.59120 -0.23300
H 	H 	0.62640 0.95700 0.59060 0.10200
H 	H 	0.65560 0.02090 0.59140 0.10800
O 	O 	0.15900 0.02200 0.79730 -0.12700
C 	C 	0.59250 0.98440 0.61140 0.10600
C 	C 	0.61910 0.02220 0.62560 -0.18500
H 	H 	0.65410 0.05120 0.62270 0.11200
C 	C 	0.59610 0.01940 0.64440 0.03200
C 	C 	0.53720 0.97430 0.64470 -0.19100
H 	H 	0.51950 0.97330 0.65710 0.10400
O 	O 	0.39890 0.23260 0.62740 -0.21800
C 	C 	0.50620 0.93740 0.63200 0.13800
O 	O 	0.26660 0.11000 0.65550 -0.17800
C 	C 	0.53580 0.93930 0.61390 0.00700
O 	O 	0.27610 0.13110 0.65720 -0.00800
C 	C 	0.63010 0.06360 0.66030 0.19900
O 	O 	0.27690 0.04610 0.61022 -0.29200
C 	C 	0.51440 0.85610 0.60410 -0.26400
H 	H 	0.53830 0.85340 0.59410 0.11200
H 	H 	0.47900 0.82320 0.60370 0.11400
H 	H 	0.52980 0.86030 0.61780 0.11900
O 	O 	0.22970 0.97170 0.59020 -0.20700
C 	C 	0.45120 0.89970 0.63790 -0.29200
H 	H 	0.44270 0.91290 0.65050 0.12400
H 	H 	0.44820 0.86460 0.64100 0.13400
O 	O 	0.19500 0.96500 0.58970 -0.01700
C 	C 	0.40760 0.89100 0.62080 0.07500
O 	O 	0.26030 0.85930 0.67148 -0.19700
C 	C 	0.36710 0.83860 0.61130 -0.16400
H 	H 	0.36750 0.80690 0.61520 0.10000
O 	O 	0.20840 0.64770 0.66910 -0.24000
C 	C 	0.33180 0.83420 0.59810 0.03700
O 	O 	0.14520 0.60900 0.69110 -0.29600
C 	C 	0.33110 0.87390 0.59240 -0.15500
H 	H 	0.30510 0.86910 0.58230 0.08600
O 	O 	0.12720 0.61000 0.68890 0.09300
C 	C 	0.36890 0.93170 0.60000 0.05800
O 	O 	0.11090 0.79480 0.64028 -0.19000
C 	C 	0.40400 0.93690 0.61490 0.03100
O 	O 	0.92590 0.81500 0.64800 -0.20400
C 	C 	0.28740 0.77380 0.58960 0.26200
O 	O 	0.95650 0.88890 0.67120 -0.19700
C 	C 	0.40770 0.99260 0.64060 -0.16800
H 	H 	0.37060 0.98070 0.63650 0.08200
H 	H 	0.42540 0.03050 0.64470 0.06400
H 	H 	0.40760 0.97070 0.65210 0.08000
O 	O 	0.09550 0.78220 0.70338 -0.18300
C 	C 	0.36270 0.97820 0.59180 -0.20600
H 	H 	0.34590 0.98920 0.60260 0.09400
H 	H 	0.33760 0.96490 0.58000 0.09800
O 	O 	0.22940 0.88110 0.77170 -0.23500
C 	C 	0.26920 0.94650 0.66100 0.06300
O 	O 	0.30720 0.90040 0.75520 -0.22700
C 	C 	0.26830 0.97910 0.64500 -0.10800
H 	H 	0.27980 0.01580 0.64760 0.05900
O 	O 	0.17610 0.93950 0.68313 -0.17500
C 	C 	0.25050 0.95830 0.62490 -0.03200
C 	C 	0.23310 0.90160 0.62080 -0.12200
H 	H 	0.22070 0.88730 0.60760 0.08100
C 	C 	0.23450 0.86810 0.63619 0.06600
O 	O 	0.14780 0.67560 0.72480 -0.06700
C 	C 	0.25520 0.89240 0.65620 0.02400
O 	O 	0.12240 0.67390 0.72170 -0.11000
C 	C 	0.25310 0.99580 0.60710 0.27400
C 	C 	0.31150 0.86130 0.67080 -0.20100
H 	H 	0.34030 0.89780 0.67400 0.09100
H 	H 	0.31170 0.83610 0.68090 0.08000
H 	H 	0.31710 0.85110 0.65710 0.09700
O 	O 	0.06600 0.97150 0.65620 0.43700
C 	C 	0.21870 0.80880 0.63180 -0.22300
H 	H 	0.25170 0.80600 0.63240 0.10300
H 	H 	0.20470 0.79990 0.61760 0.09900
O 	O 	0.05300 0.95720 0.65000 -0.57000
C 	C 	0.17650 0.76650 0.64626 0.06500
O 	O 	0.16330 0.01460 0.62680 -0.16600
C 	C 	0.18900 0.72920 0.65510 -0.12800
H 	H 	0.22260 0.73170 0.65210 0.08500
O 	O 	0.17940 0.02570 0.63330 0.02200
C 	C 	0.15140 0.68700 0.66886 -0.02100
C 	C 	0.10190 0.68510 0.67320 -0.12800
H 	H 	0.07700 0.65810 0.68210 0.08800
C 	C 	0.08910 0.72140 0.66470 0.07100
C 	C 	0.12430 0.76110 0.65045 0.02900
C 	C 	0.17060 0.64710 0.67680 0.26800
C 	C 	0.08350 0.77090 0.62060 -0.24500
H 	H 	0.05420 0.73400 0.62300 0.11400
H 	H 	0.06890 0.79250 0.61490 0.10300
H 	H 	0.10950 0.77040 0.61100 0.10500
C 	C 	0.03380 0.71620 0.66960 -0.23400
H 	H 	0.01090 0.70200 0.65720 0.10900
H 	H 	0.01640 0.68880 0.68050 0.10500
C 	C 	0.03330 0.76850 0.67650 0.08600
C 	C 	0.99990 0.78630 0.66760 -0.17300
H 	H 	0.97850 0.76650 0.65630 0.10500
C 	C 	0.99580 0.83000 0.67390 0.04900
C 	C 	0.02900 0.86140 0.68870 -0.15300
H 	H 	0.02880 0.89330 0.69250 0.10200
C 	C 	0.06700 0.84720 0.69950 0.08500
C 	C 	0.06560 0.80030 0.69290 0.01400
C 	C 	0.95350 0.84460 0.66140 0.24300
C 	C 	0.06750 0.74760 0.72140 -0.27600
H 	H 	0.02860 0.72820 0.71900 0.12200
H 	H 	0.07990 0.72170 0.72340 0.12100
H 	H 	0.07580 0.77020 0.73360 0.11100
C 	C 	0.10030 0.88060 0.71740 -0.25000
H 	H 	0.09700 0.91330 0.71820 0.11700
H 	H 	0.08450 0.85970 0.73010 0.11700
C 	C 	0.16060 0.89830 0.71696 0.07700
C 	C 	0.18380 0.88920 0.73437 -0.12800
H 	H 	0.16120 0.87210 0.74580 0.07800
C 	C 	0.23920 0.90420 0.73600 -0.03400
Rb	Rb	0.35764 0.14122 0.62838 0.42200
C 	C 	0.27150 0.92980 0.71859 -0.12100
H 	H 	0.30840 0.93960 0.71880 0.07700
C 	C 	0.25070 0.94140 0.70075 0.06400
C 	C 	0.19760 0.92520 0.70040 0.00900
C 	C 	0.25690 0.89350 0.75520 0.23800
C 	C 	0.18010 0.99390 0.68430 -0.26200
H 	H 	0.21780 0.02220 0.68300 0.12100
H 	H 	0.15890 0.99720 0.67320 0.11200
H 	H 	0.16600 0.99750 0.69750 0.11300
C 	C 	0.28830 0.97010 0.68190 -0.21800
H 	H 	0.32300 0.97160 0.68440 0.09800
H 	H 	0.29560 0.00770 0.68160 0.09700
Rb	Rb	0.78053 0.23443 0.97589 0.68800
O 	O 	0.12667 0.51983 0.94043 -0.30700
C 	C 	0.11387 0.35923 0.90197 0.03100
Rb	Rb	0.86745 0.12205 0.03995 0.67800
O 	O 	0.20157 0.55133 0.92653 -0.25900
C 	C 	0.08257 0.36263 0.91803 0.04200
Rb	Rb	0.20734 0.41890 0.95306 0.68700
O 	O 	0.09667 0.30943 0.89121 -0.19100
C 	C 	0.09757 0.40983 0.92633 -0.08300
H 	H 	0.07547 0.41113 0.93693 0.03100
Rb	Rb	0.10524 0.20856 0.89490 0.66700
O 	O 	0.20207 0.25423 0.83383 -0.35500
C 	C 	0.14657 0.46133 0.92053 -0.10600
Rb	Rb	0.03917 0.47823 0.96711 0.42300
O 	O 	0.23907 0.21623 0.85393 -0.26300
C 	C 	0.17787 0.45593 0.90464 -0.07000
H 	H 	0.21037 0.48673 0.90033 0.06900
O 	O 	0.25237 0.39723 0.91542 -0.18400
C 	C 	0.16097 0.40433 0.89475 0.04500
O 	O 	0.34317 0.43633 0.99093 -0.21100
C 	C 	0.16057 0.51343 0.92983 0.35300
O 	O 	0.26197 0.38713 0.01043 -0.20700
C 	C 	0.05977 0.30093 0.87403 -0.25100
H 	H 	0.02287 0.28503 0.87923 0.11000
H 	H 	0.06177 0.27663 0.86403 0.10500
H 	H 	0.07007 0.33543 0.86753 0.11200
O 	O 	0.17507 0.23643 0.93263 -0.18700
C 	C 	0.19957 0.40293 0.87833 -0.21800
H 	H 	0.18187 0.39663 0.86483 0.10700
H 	H 	0.23247 0.43873 0.87783 0.09900
O 	O 	0.96027 0.07043 0.93043 -0.25000
C 	C 	0.21637 0.36053 0.88153 0.06300
O 	O 	0.92257 0.10073 0.90913 -0.26100
C 	C 	0.21087 0.32653 0.86643 -0.12600
H 	H 	0.19477 0.32803 0.85403 0.07400
O 	O 	0.10287 0.32013 0.95717 -0.20600
C 	C 	0.22867 0.28713 0.86853 -0.04000
C 	C 	0.25237 0.28553 0.88763 -0.11200
H 	H 	0.26437 0.26043 0.88963 0.07600
C 	C 	0.25767 0.32123 0.90343 0.05100
C 	C 	0.24287 0.36063 0.90083 0.04200
C 	C 	0.22177 0.24873 0.84903 0.31700
C 	C 	0.30577 0.44413 0.91133 -0.27500
H 	H 	0.33347 0.43913 0.91803 0.13000
H 	H 	0.30707 0.47673 0.91653 0.13000
H 	H 	0.31237 0.44763 0.89653 0.11800
O 	O 	0.28867 0.52533 0.94653 -0.13600
C 	C 	0.28647 0.32103 0.92453 -0.23600
H 	H 	0.29307 0.29033 0.92393 0.10300
H 	H 	0.32227 0.35423 0.92473 0.11100
O 	O 	0.82567 0.35533 0.13063 -0.12600
C 	C 	0.25917 0.31773 0.94473 0.10300
C 	C 	0.28577 0.35553 0.95893 -0.18100
H 	H 	0.32077 0.38453 0.95603 0.11100
C 	C 	0.26277 0.35273 0.97773 0.03400
C 	C 	0.20387 0.30763 0.97803 -0.19400
H 	H 	0.18617 0.30663 0.99043 0.10400
O 	O 	0.06557 0.56593 0.96073 -0.21700
C 	C 	0.17287 0.27073 0.96533 0.13900
O 	O 	0.93327 0.44333 0.98883 -0.18300
C 	C 	0.20247 0.27263 0.94723 0.00700
O 	O 	0.94277 0.46443 0.99053 -0.00500
C 	C 	0.29677 0.39693 0.99363 0.19900
O 	O 	0.94357 0.37943 0.94355 -0.29000
C 	C 	0.18107 0.18943 0.93743 -0.26400
H 	H 	0.20497 0.18673 0.92743 0.11200
H 	H 	0.14567 0.15653 0.93703 0.11400
H 	H 	0.19647 0.19363 0.95113 0.11900
O 	O 	0.89637 0.30503 0.92353 -0.20600
C 	C 	0.11787 0.23303 0.97123 -0.29200
H 	H 	0.10937 0.24623 0.98383 0.12300
H 	H 	0.11487 0.19793 0.97433 0.13400
O 	O 	0.86167 0.29833 0.92303 -0.01900
C 	C 	0.07427 0.22433 0.95413 0.07400
O 	O 	0.92697 0.19263 0.00481 -0.19500
C 	C 	0.03377 0.17193 0.94463 -0.15900
H 	H 	0.03417 0.14023 0.94853 0.09900
O 	O 	0.87507 0.98103 0.00243 -0.24000
C 	C 	0.99847 0.16753 0.93143 0.03300
O 	O 	0.81187 0.94233 0.02443 -0.28400
C 	C 	0.99777 0.20723 0.92573 -0.15800
H 	H 	0.97177 0.20243 0.91563 0.08600
O 	O 	0.79387 0.94333 0.02223 0.08100
C 	C 	0.03557 0.26503 0.93333 0.06100
O 	O 	0.77757 0.12813 0.97361 -0.19100
C 	C 	0.07067 0.27023 0.94823 0.02900
O 	O 	0.59257 0.14833 0.98133 -0.20400
C 	C 	0.95407 0.10713 0.92293 0.26300
O 	O 	0.62317 0.22223 0.00453 -0.19700
C 	C 	0.07437 0.32593 0.97393 -0.18100
H 	H 	0.03727 0.31403 0.96983 0.08700
H 	H 	0.09207 0.36383 0.97803 0.07000
H 	H 	0.07427 0.30403 0.98543 0.08400
O 	O 	0.76217 0.11553 0.03671 -0.18400
C 	C 	0.02937 0.31153 0.92513 -0.21200
H 	H 	0.01257 0.32253 0.93593 0.09600
H 	H 	0.00427 0.29823 0.91333 0.10000
O 	O 	0.89607 0.21443 0.10503 -0.23600
C 	C 	0.93587 0.27983 0.99433 0.06700
O 	O 	0.97387 0.23373 0.08853 -0.22900
C 	C 	0.93497 0.31243 0.97833 -0.11700
H 	H 	0.94647 0.34913 0.98093 0.06400
O 	O 	0.84277 0.27283 0.01646 -0.17400
C 	C 	0.91717 0.29163 0.95823 -0.02900
C 	C 	0.89977 0.23493 0.95413 -0.12600
H 	H 	0.88737 0.22063 0.94093 0.08200
C 	C 	0.90117 0.20143 0.96952 0.06800
O 	O 	0.81447 0.00893 0.05813 -0.06900
C 	C 	0.92187 0.22573 0.98953 0.02100
O 	O 	0.78907 0.00723 0.05503 -0.11100
C 	C 	0.91977 0.32913 0.94043 0.26900
C 	C 	0.97817 0.19463 0.00413 -0.21100
H 	H 	0.00697 0.23113 0.00733 0.09600
H 	H 	0.97837 0.16943 0.01423 0.08200
H 	H 	0.98377 0.18443 0.99043 0.09900
O 	O 	0.73267 0.30483 0.98953 0.43700
C 	C 	0.88537 0.14213 0.96513 -0.22500
H 	H 	0.91837 0.13933 0.96573 0.10300
H 	H 	0.87137 0.13323 0.95093 0.09900
O 	O 	0.71967 0.29053 0.98333 -0.57200
C 	C 	0.84317 0.09983 0.97959 0.06500
O 	O 	0.82997 0.34793 0.96013 -0.16400
C 	C 	0.85567 0.06253 0.98843 -0.12900
H 	H 	0.88927 0.06503 0.98543 0.08500
O 	O 	0.84607 0.35903 0.96663 0.02100
C 	C 	0.81807 0.02033 0.00219 -0.02100
C 	C 	0.76857 0.01843 0.00653 -0.13300
H 	H 	0.74367 0.99143 0.01543 0.09200
C 	C 	0.75577 0.05473 0.99803 0.07100
C 	C 	0.79097 0.09443 0.98378 0.02900
C 	C 	0.83727 0.98043 0.01013 0.26900
C 	C 	0.75017 0.10423 0.95393 -0.24300
H 	H 	0.72087 0.06733 0.95633 0.11300
H 	H 	0.73557 0.12583 0.94823 0.10100
H 	H 	0.77617 0.10373 0.94433 0.10400
C 	C 	0.70047 0.04953 0.00293 -0.23200
H 	H 	0.67757 0.03533 0.99053 0.10700
H 	H 	0.68307 0.02213 0.01383 0.10300
C 	C 	0.69997 0.10183 0.00983 0.08200
C 	C 	0.66657 0.11963 0.00093 -0.16900
H 	H 	0.64517 0.09983 0.98963 0.10400
C 	C 	0.66247 0.16333 0.00723 0.05100
C 	C 	0.69567 0.19473 0.02203 -0.15700
H 	H 	0.69547 0.22663 0.02583 0.10200
C 	C 	0.73367 0.18053 0.03283 0.08500
C 	C 	0.73227 0.13363 0.02623 0.01500
C 	C 	0.62017 0.17793 0.99473 0.24300
C 	C 	0.73417 0.08093 0.05473 -0.27300
H 	H 	0.69527 0.06153 0.05233 0.12000
H 	H 	0.74657 0.05503 0.05673 0.11900
H 	H 	0.74247 0.10353 0.06693 0.11000
C 	C 	0.76697 0.21393 0.05073 -0.25000
H 	H 	0.76367 0.24663 0.05153 0.11700
H 	H 	0.75117 0.19303 0.06343 0.11600
C 	C 	0.82727 0.23163 0.05029 0.07700
C 	C 	0.85047 0.22253 0.06770 -0.12800
H 	H 	0.82787 0.20543 0.07913 0.07800
C 	C 	0.90587 0.23753 0.06933 -0.03400
Rb	Rb	0.02431 0.47455 0.96171 0.42200
C 	C 	0.93817 0.26313 0.05192 -0.12200
H 	H 	0.97507 0.27293 0.05213 0.07600
C 	C 	0.91737 0.27473 0.03408 0.06600
C 	C 	0.86427 0.25853 0.03373 0.00700
C 	C 	0.92357 0.22683 0.08853 0.23800
C 	C 	0.84677 0.32723 0.01763 -0.27200
H 	H 	0.88447 0.35553 0.01633 0.12500
H 	H 	0.82557 0.33053 0.00653 0.11400
H 	H 	0.83267 0.33083 0.03083 0.11500
C 	C 	0.95497 0.30343 0.01523 -0.22600
H 	H 	0.98967 0.30493 0.01773 0.09900
H 	H 	0.96227 0.34103 0.01493 0.10000
Rb	Rb	0.44719 0.56777 0.30923 0.68800
O 	O 	0.79333 0.85317 0.27377 -0.30700
C 	C 	0.78053 0.69257 0.23531 0.03100
Rb	Rb	0.53411 0.45539 0.37329 0.67800
O 	O 	0.86823 0.88467 0.25987 -0.25900
C 	C 	0.74923 0.69597 0.25137 0.04100
Rb	Rb	0.87400 0.75224 0.28640 0.68700
O 	O 	0.76333 0.64277 0.22455 -0.19100
C 	C 	0.76423 0.74317 0.25967 -0.08200
H 	H 	0.74213 0.74447 0.27027 0.03000
Rb	Rb	0.77190 0.54190 0.22824 0.66700
O 	O 	0.86873 0.58757 0.16717 -0.35500
C 	C 	0.81323 0.79467 0.25387 -0.10700
Rb	Rb	0.70583 0.81157 0.30045 0.42300
O 	O 	0.90573 0.54957 0.18727 -0.26300
C 	C 	0.84453 0.78927 0.23798 -0.06900
H 	H 	0.87703 0.82007 0.23367 0.06800
O 	O 	0.91903 0.73057 0.24876 -0.18200
C 	C 	0.82763 0.73767 0.22809 0.04500
O 	O 	0.00983 0.76967 0.32427 -0.20800
C 	C 	0.82723 0.84677 0.26317 0.35300
O 	O 	0.92863 0.72047 0.34377 -0.20700
C 	C 	0.72643 0.63427 0.20737 -0.24900
H 	H 	0.68953 0.61837 0.21257 0.10900
H 	H 	0.72843 0.60997 0.19737 0.10400
H 	H 	0.73673 0.66877 0.20087 0.11200
O 	O 	0.84173 0.56977 0.26597 -0.18700
C 	C 	0.86623 0.73627 0.21167 -0.21700
H 	H 	0.84853 0.72997 0.19817 0.10700
H 	H 	0.89913 0.77207 0.21117 0.09900
O 	O 	0.62693 0.40377 0.26377 -0.24800
C 	C 	0.88303 0.69387 0.21487 0.06300
O 	O 	0.58923 0.43407 0.24247 -0.26000
C 	C 	0.87753 0.65987 0.19977 -0.12600
H 	H 	0.86143 0.66137 0.18737 0.07400
O 	O 	0.76953 0.65347 0.29051 -0.20600
C 	C 	0.89533 0.62047 0.20187 -0.04000
C 	C 	0.91903 0.61887 0.22097 -0.11200
H 	H 	0.93103 0.59377 0.22297 0.07500
C 	C 	0.92433 0.65457 0.23677 0.05100
C 	C 	0.90953 0.69397 0.23417 0.04100
C 	C 	0.88843 0.58207 0.18237 0.31700
C 	C 	0.97243 0.77747 0.24467 -0.28600
H 	H 	0.00013 0.77247 0.25137 0.13500
H 	H 	0.97373 0.81007 0.24987 0.13300
H 	H 	0.97903 0.78097 0.22987 0.12100
O 	O 	0.95533 0.85867 0.27987 -0.13600
C 	C 	0.95313 0.65437 0.25787 -0.23600
H 	H 	0.95973 0.62367 0.25727 0.10200
H 	H 	0.98893 0.68757 0.25807 0.11000
O 	O 	0.49233 0.68867 0.46397 -0.12600
C 	C 	0.92583 0.65107 0.27807 0.10300
C 	C 	0.95243 0.68887 0.29227 -0.18200
H 	H 	0.98743 0.71787 0.28937 0.11100
C 	C 	0.92943 0.68607 0.31107 0.03500
C 	C 	0.87053 0.64097 0.31137 -0.19500
H 	H 	0.85283 0.63997 0.32377 0.10500
O 	O 	0.73223 0.89927 0.29407 -0.21800
C 	C 	0.83953 0.60407 0.29867 0.14000
O 	O 	0.59993 0.77667 0.32217 -0.17900
C 	C 	0.86913 0.60597 0.28057 0.00700
O 	O 	0.60943 0.79777 0.32387 -0.00800
C 	C 	0.96343 0.73027 0.32697 0.19500
O 	O 	0.61023 0.71277 0.27689 -0.28900
C 	C 	0.84773 0.52277 0.27077 -0.26300
H 	H 	0.87163 0.52007 0.26077 0.11200
H 	H 	0.81233 0.48987 0.27037 0.11400
H 	H 	0.86313 0.52697 0.28447 0.11900
O 	O 	0.56303 0.63837 0.25687 -0.20500
C 	C 	0.78453 0.56637 0.30457 -0.29400
H 	H 	0.77603 0.57957 0.31717 0.12400
H 	H 	0.78153 0.53127 0.30767 0.13400
O 	O 	0.52833 0.63167 0.25637 -0.01900
C 	C 	0.74093 0.55767 0.28747 0.07600
O 	O 	0.59363 0.52597 0.33815 -0.19700
C 	C 	0.70043 0.50527 0.27797 -0.16500
H 	H 	0.70083 0.47357 0.28187 0.10000
O 	O 	0.54173 0.31437 0.33577 -0.24000
C 	C 	0.66513 0.50087 0.26477 0.03800
O 	O 	0.47853 0.27567 0.35777 -0.30000
C 	C 	0.66443 0.54057 0.25907 -0.15700
H 	H 	0.63843 0.53577 0.24897 0.08700
O 	O 	0.46053 0.27667 0.35557 0.09700
C 	C 	0.70223 0.59837 0.26667 0.05900
O 	O 	0.44423 0.46147 0.30695 -0.19100
C 	C 	0.73733 0.60357 0.28157 0.02900
O 	O 	0.25923 0.48167 0.31467 -0.20400
C 	C 	0.62073 0.44047 0.25627 0.26100
O 	O 	0.28983 0.55557 0.33787 -0.19700
C 	C 	0.74103 0.65927 0.30727 -0.18000
H 	H 	0.70393 0.64737 0.30317 0.08500
H 	H 	0.75873 0.69717 0.31137 0.07000
H 	H 	0.74093 0.63737 0.31877 0.08300
O 	O 	0.42883 0.44887 0.37005 -0.18400
C 	C 	0.69603 0.64487 0.25847 -0.21000
H 	H 	0.67923 0.65587 0.26927 0.09400
H 	H 	0.67093 0.63157 0.24667 0.09900
O 	O 	0.56273 0.54777 0.43837 -0.23500
C 	C 	0.60253 0.61317 0.32767 0.06800
O 	O 	0.64053 0.56707 0.42187 -0.22700
C 	C 	0.60163 0.64577 0.31167 -0.11700
H 	H 	0.61313 0.68247 0.31427 0.06400
O 	O 	0.50943 0.60617 0.34980 -0.17400
C 	C 	0.58383 0.62497 0.29157 -0.02800
C 	C 	0.56643 0.56827 0.28747 -0.12500
H 	H 	0.55403 0.55397 0.27427 0.08200
C 	C 	0.56783 0.53477 0.30286 0.06800
O 	O 	0.48113 0.34227 0.39147 -0.06700
C 	C 	0.58853 0.55907 0.32287 0.02200
O 	O 	0.45573 0.34057 0.38837 -0.11100
C 	C 	0.58643 0.66247 0.27377 0.26900
C 	C 	0.64483 0.52797 0.33747 -0.20100
H 	H 	0.67363 0.56447 0.34067 0.09100
H 	H 	0.64503 0.50277 0.34757 0.08000
H 	H 	0.65043 0.51777 0.32377 0.09700
O 	O 	0.39933 0.63817 0.32287 0.43800
C 	C 	0.55203 0.47547 0.29847 -0.22400
H 	H 	0.58503 0.47267 0.29907 0.10300
H 	H 	0.53803 0.46657 0.28427 0.09900
O 	O 	0.38633 0.62387 0.31667 -0.57200
C 	C 	0.50983 0.43317 0.31293 0.06500
O 	O 	0.49663 0.68127 0.29347 -0.16300
C 	C 	0.52233 0.39587 0.32177 -0.12800
H 	H 	0.55593 0.39837 0.31877 0.08500
O 	O 	0.51273 0.69237 0.29997 0.02100
C 	C 	0.48473 0.35367 0.33553 -0.02200
C 	C 	0.43523 0.35177 0.33987 -0.12700
H 	H 	0.41033 0.32477 0.34877 0.08700
C 	C 	0.42243 0.38807 0.33137 0.07000
C 	C 	0.45763 0.42777 0.31712 0.03000
C 	C 	0.50393 0.31377 0.34347 0.26800
C 	C 	0.41683 0.43757 0.28727 -0.24300
H 	H 	0.38753 0.40067 0.28967 0.11300
H 	H 	0.40223 0.45917 0.28157 0.10100
H 	H 	0.44283 0.43707 0.27767 0.10400
C 	C 	0.36713 0.38287 0.33627 -0.23100
H 	H 	0.34423 0.36867 0.32387 0.10800
H 	H 	0.34973 0.35547 0.34717 0.10400
C 	C 	0.36663 0.43517 0.34317 0.08200
C 	C 	0.33323 0.45297 0.33427 -0.16900
H 	H 	0.31183 0.43317 0.32297 0.10400
C 	C 	0.32913 0.49667 0.34057 0.05100
C 	C 	0.36233 0.52807 0.35537 -0.15700
H 	H 	0.36213 0.55997 0.35917 0.10200
C 	C 	0.40033 0.51387 0.36617 0.08500
C 	C 	0.39893 0.46697 0.35957 0.01500
C 	C 	0.28683 0.51127 0.32807 0.24300
C 	C 	0.40083 0.41427 0.38807 -0.27400
H 	H 	0.36193 0.39487 0.38567 0.12100
H 	H 	0.41323 0.38837 0.39007 0.12000
H 	H 	0.40913 0.43687 0.40027 0.11000
C 	C 	0.43363 0.54727 0.38407 -0.25000
H 	H 	0.43033 0.57997 0.38487 0.11700
H 	H 	0.41783 0.52637 0.39677 0.11600
C 	C 	0.49393 0.56497 0.38363 0.07800
C 	C 	0.51713 0.55587 0.40104 -0.12900
H 	H 	0.49453 0.53877 0.41247 0.07800
C 	C 	0.57253 0.57087 0.40267 -0.03300
Rb	Rb	0.69097 0.80789 0.29505 0.42200
C 	C 	0.60483 0.59647 0.38526 -0.12300
H 	H 	0.64173 0.60627 0.38547 0.07700
C 	C 	0.58403 0.60807 0.36742 0.06700
C 	C 	0.53093 0.59187 0.36707 0.00700
C 	C 	0.59023 0.56017 0.42187 0.23700
C 	C 	0.51343 0.66057 0.35097 -0.27200
H 	H 	0.55113 0.68887 0.34967 0.12500
H 	H 	0.49223 0.66387 0.33987 0.11400
H 	H 	0.49933 0.66417 0.36417 0.11500
C 	C 	0.62163 0.63677 0.34857 -0.22700
H 	H 	0.65633 0.63827 0.35107 0.10000
H 	H 	0.62893 0.67437 0.34827 0.10100
Rb	Rb	0.78724 0.88614 0.64256 0.68800
O 	O 	0.72650 0.54000 0.60710 -0.30700
C 	C 	0.57870 0.55280 0.56864 0.03100
Rb	Rb	0.58794 0.79922 0.70662 0.67800
O 	O 	0.68310 0.46510 0.59320 -0.25900
C 	C 	0.61340 0.58410 0.58470 0.04100
Rb	Rb	0.54490 0.45933 0.61973 0.68700
O 	O 	0.54610 0.57000 0.55788 -0.19100
C 	C 	0.64560 0.56910 0.59300 -0.08200
H 	H 	0.66900 0.59120 0.60360 0.03000
Rb	Rb	0.43666 0.56143 0.56157 0.66700
O 	O 	0.38550 0.46460 0.50050 -0.35500
C 	C 	0.64810 0.52010 0.58720 -0.10700
Rb	Rb	0.77240 0.62750 0.63378 0.42300
O 	O 	0.31050 0.42760 0.52060 -0.26300
C 	C 	0.61140 0.48880 0.57131 -0.06900
H 	H 	0.60970 0.45630 0.56700 0.06800
O 	O 	0.47820 0.41430 0.58209 -0.18400
C 	C 	0.57670 0.50570 0.56142 0.04500
O 	O 	0.42650 0.32350 0.65760 -0.21100
C 	C 	0.68620 0.50610 0.59650 0.35300
O 	O 	0.45850 0.40470 0.67710 -0.20700
C 	C 	0.57450 0.60690 0.54070 -0.24900
H 	H 	0.59550 0.64380 0.54590 0.10900
H 	H 	0.54820 0.60490 0.53070 0.10400
H 	H 	0.59870 0.59660 0.53420 0.11200
O 	O 	0.39470 0.49160 0.59930 -0.18700
C 	C 	0.53670 0.46710 0.54500 -0.21700
H 	H 	0.54810 0.48480 0.53150 0.10700
H 	H 	0.53960 0.43420 0.54450 0.09900
O 	O 	0.44350 0.70640 0.59710 -0.24800
C 	C 	0.47750 0.45030 0.54820 0.06300
O 	O 	0.51150 0.74410 0.57580 -0.26000
C 	C 	0.44900 0.45580 0.53310 -0.12600
H 	H 	0.46660 0.47190 0.52070 0.07400
O 	O 	0.55060 0.56380 0.62384 -0.20600
C 	C 	0.39180 0.43800 0.53520 -0.04000
C 	C 	0.36650 0.41430 0.55430 -0.11200
H 	H 	0.32940 0.40230 0.55630 0.07600
C 	C 	0.39690 0.40900 0.57010 0.05100
C 	C 	0.45110 0.42380 0.56750 0.04200
C 	C 	0.36030 0.44490 0.51570 0.31700
C 	C 	0.47170 0.36090 0.57800 -0.27500
H 	H 	0.43900 0.33320 0.58470 0.13000
H 	H 	0.50300 0.35960 0.58320 0.13000
H 	H 	0.46860 0.35430 0.56320 0.11800
O 	O 	0.57000 0.37800 0.61320 -0.13600
C 	C 	0.36790 0.38020 0.59120 -0.23700
H 	H 	0.33060 0.37360 0.59060 0.10300
H 	H 	0.36530 0.34440 0.59140 0.11100
O 	O 	0.86300 0.84100 0.79730 -0.12600
C 	C 	0.39190 0.40750 0.61140 0.10400
C 	C 	0.40310 0.38090 0.62560 -0.18200
H 	H 	0.39710 0.34590 0.62270 0.11100
C 	C 	0.42330 0.40390 0.64440 0.03400
C 	C 	0.43710 0.46280 0.64470 -0.19400
H 	H 	0.45380 0.48050 0.65710 0.10500
O 	O 	0.83370 0.60110 0.62740 -0.21800
C 	C 	0.43120 0.49380 0.63200 0.14000
O 	O 	0.84340 0.73340 0.65550 -0.18000
C 	C 	0.40350 0.46420 0.61390 0.00700
O 	O 	0.85500 0.72390 0.65720 -0.00700
C 	C 	0.43350 0.36990 0.66030 0.19900
O 	O 	0.76920 0.72310 0.61022 -0.29000
C 	C 	0.34170 0.48560 0.60410 -0.26400
H 	H 	0.31510 0.46170 0.59410 0.11200
H 	H 	0.34420 0.52100 0.60370 0.11400
H 	H 	0.33050 0.47020 0.61780 0.11900
O 	O 	0.74200 0.77030 0.59020 -0.20500
C 	C 	0.44850 0.54880 0.63790 -0.29400
H 	H 	0.47020 0.55730 0.65050 0.12400
H 	H 	0.41640 0.55180 0.64100 0.13400
O 	O 	0.77000 0.80500 0.58970 -0.01900
C 	C 	0.48340 0.59240 0.62080 0.07600
O 	O 	0.59900 0.73970 0.67148 -0.19700
C 	C 	0.47150 0.63290 0.61130 -0.16500
H 	H 	0.43940 0.63250 0.61520 0.10000
O 	O 	0.43930 0.79160 0.66910 -0.24000
C 	C 	0.50240 0.66820 0.59810 0.03800
O 	O 	0.46380 0.85480 0.69110 -0.29600
C 	C 	0.54280 0.66890 0.59240 -0.15700
H 	H 	0.56400 0.69490 0.58230 0.08700
O 	O 	0.48280 0.87280 0.68890 0.09300
C 	C 	0.56280 0.63110 0.60000 0.05900
O 	O 	0.68390 0.88910 0.64028 -0.19000
C 	C 	0.53290 0.59600 0.61490 0.02900
O 	O 	0.88910 0.07410 0.64800 -0.20500
C 	C 	0.48640 0.71260 0.58960 0.26100
O 	O 	0.93240 0.04350 0.67120 -0.20000
C 	C 	0.58490 0.59230 0.64060 -0.18000
H 	H 	0.61010 0.62940 0.63650 0.08500
H 	H 	0.60510 0.57460 0.64470 0.07000
H 	H 	0.56310 0.59240 0.65210 0.08300
O 	O 	0.68670 0.90450 0.70338 -0.18300
C 	C 	0.61550 0.63730 0.59180 -0.21000
H 	H 	0.64330 0.65410 0.60260 0.09400
H 	H 	0.62730 0.66240 0.58000 0.09900
O 	O 	0.65170 0.77060 0.77170 -0.23500
C 	C 	0.67730 0.73080 0.66100 0.06800
O 	O 	0.59320 0.69280 0.75520 -0.22700
C 	C 	0.71080 0.73170 0.64500 -0.11700
H 	H 	0.73600 0.72020 0.64760 0.06400
O 	O 	0.76340 0.82390 0.68313 -0.17300
C 	C 	0.70780 0.74950 0.62490 -0.02800
C 	C 	0.66850 0.76690 0.62080 -0.12500
H 	H 	0.66660 0.77930 0.60760 0.08200
C 	C 	0.63360 0.76550 0.63619 0.06800
O 	O 	0.52780 0.85220 0.72480 -0.06700
C 	C 	0.63720 0.74480 0.65620 0.02200
O 	O 	0.55150 0.87760 0.72170 -0.11000
C 	C 	0.74270 0.74690 0.60710 0.26900
C 	C 	0.54980 0.68850 0.67080 -0.20100
H 	H 	0.55750 0.65970 0.67400 0.09100
H 	H 	0.52440 0.68830 0.68090 0.08000
H 	H 	0.53400 0.68290 0.65710 0.09700
O 	O 	0.90550 0.93400 0.65620 0.42800
C 	C 	0.59010 0.78130 0.63180 -0.22500
H 	H 	0.55430 0.74830 0.63240 0.10300
H 	H 	0.59520 0.79530 0.61760 0.09900
O 	O 	0.90420 0.94700 0.65000 -0.56200
C 	C 	0.59000 0.82350 0.64626 0.06500
O 	O 	0.85130 0.83670 0.62680 -0.16400
C 	C 	0.54020 0.81100 0.65510 -0.12800
H 	H 	0.50910 0.77740 0.65210 0.08600
O 	O 	0.84630 0.82060 0.63330 0.02100
C 	C 	0.53560 0.84860 0.66886 -0.02100
C 	C 	0.58320 0.89810 0.67320 -0.12800
H 	H 	0.58110 0.92300 0.68210 0.08800
C 	C 	0.63230 0.91090 0.66470 0.07100
C 	C 	0.63680 0.87570 0.65045 0.02900
C 	C 	0.47650 0.82940 0.67680 0.26800
C 	C 	0.68740 0.91650 0.62060 -0.24500
H 	H 	0.67980 0.94580 0.62300 0.11400
H 	H 	0.72360 0.93110 0.61490 0.10200
H 	H 	0.66090 0.89050 0.61100 0.10500
C 	C 	0.68240 0.96620 0.66960 -0.23400
H 	H 	0.69110 0.98910 0.65720 0.10900
H 	H 	0.67240 0.98360 0.68050 0.10500
C 	C 	0.73520 0.96670 0.67650 0.08600
C 	C 	0.78640 0.00010 0.66760 -0.17300
H 	H 	0.78800 0.02150 0.65630 0.10500
C 	C 	0.83420 0.00420 0.67390 0.04800
C 	C 	0.83240 0.97100 0.68870 -0.15300
H 	H 	0.86450 0.97120 0.69250 0.10100
C 	C 	0.78020 0.93300 0.69950 0.08500
C 	C 	0.73470 0.93440 0.69290 0.01400
C 	C 	0.89110 0.04650 0.66140 0.24300
C 	C 	0.68010 0.93250 0.72140 -0.27600
H 	H 	0.69960 0.97140 0.71900 0.12200
H 	H 	0.64180 0.92010 0.72340 0.12100
H 	H 	0.69440 0.92420 0.73360 0.11100
C 	C 	0.78030 0.89970 0.71740 -0.25000
H 	H 	0.81630 0.90300 0.71820 0.11700
H 	H 	0.77520 0.91550 0.73010 0.11700
C 	C 	0.73770 0.83940 0.71696 0.07800
C 	C 	0.70540 0.81620 0.73437 -0.12900
H 	H 	0.71090 0.83880 0.74580 0.07800
C 	C 	0.66500 0.76080 0.73600 -0.03300
Rb	Rb	0.78358 0.64236 0.62838 0.42200
C 	C 	0.65830 0.72850 0.71859 -0.12300
H 	H 	0.63120 0.69160 0.71880 0.07700
C 	C 	0.69070 0.74930 0.70075 0.06700
C 	C 	0.72760 0.80240 0.70040 0.00700
C 	C 	0.63660 0.74310 0.75520 0.23700
C 	C 	0.81380 0.81990 0.68430 -0.27200
H 	H 	0.80440 0.78220 0.68300 0.12600
H 	H 	0.83830 0.84110 0.67320 0.11500
H 	H 	0.83150 0.83400 0.69750 0.11600
C 	C 	0.68180 0.71170 0.68190 -0.22700
H 	H 	0.64860 0.67700 0.68440 0.10000
H 	H 	0.71210 0.70440 0.68160 0.10100
Rb	Rb	0.45391 0.21947 0.97589 0.68800
O 	O 	0.39317 0.87333 0.94043 -0.30700
C 	C 	0.24537 0.88613 0.90197 0.03100
Rb	Rb	0.25461 0.13255 0.03995 0.67800
O 	O 	0.34977 0.79843 0.92653 -0.25900
C 	C 	0.28007 0.91743 0.91803 0.04200
Rb	Rb	0.21157 0.79266 0.95306 0.68700
O 	O 	0.21277 0.90333 0.89121 -0.19100
C 	C 	0.31227 0.90243 0.92633 -0.08200
H 	H 	0.33567 0.92453 0.93693 0.03100
Rb	Rb	0.10333 0.89476 0.89490 0.66800
O 	O 	0.05217 0.79793 0.83383 -0.35600
C 	C 	0.31477 0.85343 0.92053 -0.10600
Rb	Rb	0.43907 0.96083 0.96711 0.42300
O 	O 	0.97717 0.76093 0.85393 -0.26600
C 	C 	0.27807 0.82213 0.90464 -0.06900
H 	H 	0.27637 0.78963 0.90033 0.06800
O 	O 	0.14487 0.74763 0.91542 -0.18500
C 	C 	0.24337 0.83903 0.89475 0.04500
O 	O 	0.09317 0.65683 0.99093 -0.21100
C 	C 	0.35287 0.83943 0.92983 0.35300
O 	O 	0.12517 0.73803 0.01043 -0.20600
C 	C 	0.24117 0.94023 0.87403 -0.25100
H 	H 	0.26217 0.97713 0.87923 0.11000
H 	H 	0.21487 0.93823 0.86403 0.10500
H 	H 	0.26537 0.92993 0.86753 0.11200
O 	O 	0.06137 0.82493 0.93263 -0.19100
C 	C 	0.20337 0.80043 0.87833 -0.21600
H 	H 	0.21477 0.81813 0.86483 0.10700
H 	H 	0.20627 0.76753 0.87783 0.09800
O 	O 	0.11017 0.03973 0.93043 -0.24900
C 	C 	0.14417 0.78363 0.88153 0.06100
O 	O 	0.17817 0.07743 0.90913 -0.26100
C 	C 	0.11567 0.78913 0.86643 -0.12300
H 	H 	0.13327 0.80523 0.85403 0.07300
O 	O 	0.21727 0.89713 0.95717 -0.20600
C 	C 	0.05847 0.77133 0.86853 -0.04400
C 	C 	0.03317 0.74763 0.88763 -0.10300
H 	H 	0.99607 0.73563 0.88963 0.07100
C 	C 	0.06357 0.74233 0.90343 0.04600
C 	C 	0.11777 0.75713 0.90083 0.04400
C 	C 	0.02697 0.77823 0.84903 0.32100
C 	C 	0.13837 0.69423 0.91133 -0.27500
H 	H 	0.10567 0.66653 0.91803 0.13000
H 	H 	0.16967 0.69293 0.91653 0.13000
H 	H 	0.13527 0.68763 0.89653 0.11800
O 	O 	0.23667 0.71133 0.94653 -0.13600
C 	C 	0.03457 0.71353 0.92453 -0.22800
H 	H 	0.99727 0.70693 0.92393 0.09900
H 	H 	0.03197 0.67773 0.92473 0.10900
O 	O 	0.52967 0.17433 0.13063 -0.12600
C 	C 	0.05857 0.74083 0.94473 0.10000
C 	C 	0.06977 0.71423 0.95893 -0.17900
H 	H 	0.06377 0.67923 0.95603 0.11100
C 	C 	0.08997 0.73723 0.97773 0.03300
C 	C 	0.10377 0.79613 0.97803 -0.19300
H 	H 	0.12047 0.81383 0.99043 0.10400
O 	O 	0.50037 0.93443 0.96073 -0.21700
C 	C 	0.09787 0.82713 0.96533 0.13800
O 	O 	0.51007 0.06673 0.98883 -0.18300
C 	C 	0.07017 0.79753 0.94723 0.01000
O 	O 	0.52167 0.05723 0.99053 -0.00500
C 	C 	0.10017 0.70323 0.99363 0.19900
O 	O 	0.43587 0.05643 0.94355 -0.29000
C 	C 	0.00837 0.81893 0.93743 -0.24100
H 	H 	0.98177 0.79503 0.92743 0.10400
H 	H 	0.01087 0.85433 0.93703 0.10800
H 	H 	0.99717 0.80353 0.95113 0.11100
O 	O 	0.40867 0.10363 0.92353 -0.20600
C 	C 	0.11517 0.88213 0.97123 -0.29200
H 	H 	0.13687 0.89063 0.98383 0.12300
H 	H 	0.08307 0.88513 0.97433 0.13400
O 	O 	0.43667 0.13833 0.92303 -0.01900
C 	C 	0.15007 0.92573 0.95413 0.07500
O 	O 	0.26567 0.07303 0.00481 -0.19500
C 	C 	0.13817 0.96623 0.94463 -0.15900
H 	H 	0.10607 0.96583 0.94853 0.10000
O 	O 	0.10597 0.12493 0.00243 -0.24000
C 	C 	0.16907 0.00153 0.93143 0.03400
O 	O 	0.13047 0.18813 0.02443 -0.30300
C 	C 	0.20947 0.00223 0.92573 -0.15800
H 	H 	0.23067 0.02823 0.91563 0.08600
O 	O 	0.14947 0.20613 0.02223 0.10000
C 	C 	0.22947 0.96443 0.93333 0.06200
O 	O 	0.35057 0.22243 0.97361 -0.19100
C 	C 	0.19957 0.92933 0.94823 0.02900
O 	O 	0.55577 0.40743 0.98133 -0.20400
C 	C 	0.15307 0.04593 0.92293 0.26200
O 	O 	0.59907 0.37683 0.00453 -0.19700
C 	C 	0.25157 0.92563 0.97393 -0.18100
H 	H 	0.27677 0.96273 0.96983 0.08700
H 	H 	0.27177 0.90793 0.97803 0.07000
H 	H 	0.22977 0.92573 0.98543 0.08400
O 	O 	0.35337 0.23783 0.03671 -0.18400
C 	C 	0.28217 0.97063 0.92513 -0.21200
H 	H 	0.30997 0.98743 0.93593 0.09600
H 	H 	0.29397 0.99573 0.91333 0.10000
O 	O 	0.31837 0.10393 0.10503 -0.23600
C 	C 	0.34397 0.06413 0.99433 0.06700
O 	O 	0.25987 0.02613 0.08853 -0.22900
C 	C 	0.37747 0.06503 0.97833 -0.11700
H 	H 	0.40267 0.05353 0.98093 0.06400
O 	O 	0.43007 0.15723 0.01646 -0.17400
C 	C 	0.37447 0.08283 0.95823 -0.02900
C 	C 	0.33517 0.10023 0.95413 -0.12500
H 	H 	0.33327 0.11263 0.94093 0.08100
C 	C 	0.30027 0.09883 0.96952 0.06800
O 	O 	0.19447 0.18553 0.05813 -0.06700
C 	C 	0.30387 0.07813 0.98953 0.02100
O 	O 	0.21817 0.21093 0.05503 -0.11100
C 	C 	0.40937 0.08023 0.94043 0.26900
C 	C 	0.21647 0.02183 0.00413 -0.21200
H 	H 	0.22417 0.99303 0.00733 0.09600
H 	H 	0.19107 0.02163 0.01423 0.08200
H 	H 	0.20067 0.01623 0.99043 0.09900
O 	O 	0.57217 0.26733 0.98953 0.43700
C 	C 	0.25677 0.11463 0.96513 -0.22400
H 	H 	0.22097 0.08163 0.96573 0.10300
H 	H 	0.26187 0.12863 0.95093 0.09900
O 	O 	0.57087 0.28033 0.98333 -0.57200
C 	C 	0.25667 0.15683 0.97959 0.06400
O 	O 	0.51797 0.17003 0.96013 -0.16400
C 	C 	0.20687 0.14433 0.98843 -0.12800
H 	H 	0.17577 0.11073 0.98543 0.08500
O 	O 	0.51297 0.15393 0.96663 0.02100
C 	C 	0.20227 0.18193 0.00219 -0.02200
C 	C 	0.24987 0.23143 0.00653 -0.12600
H 	H 	0.24777 0.25633 0.01543 0.08700
C 	C 	0.29897 0.24423 0.99803 0.06900
C 	C 	0.30347 0.20903 0.98378 0.03000
C 	C 	0.14317 0.16273 0.01013 0.26800
C 	C 	0.35407 0.24983 0.95393 -0.24300
H 	H 	0.34647 0.27913 0.95633 0.11300
H 	H 	0.39027 0.26443 0.94823 0.10100
H 	H 	0.32757 0.22383 0.94433 0.10400
C 	C 	0.34907 0.29953 0.00293 -0.23000
H 	H 	0.35777 0.32243 0.99053 0.10700
H 	H 	0.33907 0.31693 0.01383 0.10300
C 	C 	0.40187 0.30003 0.00983 0.08200
C 	C 	0.45307 0.33343 0.00093 -0.16900
H 	H 	0.45467 0.35483 0.98963 0.10400
C 	C 	0.50087 0.33753 0.00723 0.05100
C 	C 	0.49907 0.30433 0.02203 -0.15700
H 	H 	0.53117 0.30453 0.02583 0.10200
C 	C 	0.44687 0.26633 0.03283 0.08500
C 	C 	0.40137 0.26773 0.02623 0.01500
C 	C 	0.55777 0.37983 0.99473 0.24300
C 	C 	0.34677 0.26583 0.05473 -0.27400
H 	H 	0.36627 0.30473 0.05233 0.12100
H 	H 	0.30847 0.25343 0.05673 0.12000
H 	H 	0.36107 0.25753 0.06693 0.11000
C 	C 	0.44697 0.23303 0.05073 -0.25000
H 	H 	0.48297 0.23633 0.05153 0.11700
H 	H 	0.44187 0.24883 0.06343 0.11600
C 	C 	0.40437 0.17273 0.05029 0.07700
C 	C 	0.37207 0.14953 0.06770 -0.12800
H 	H 	0.37757 0.17213 0.07913 0.07800
C 	C 	0.33167 0.09413 0.06933 -0.03400
Rb	Rb	0.45025 0.97569 0.96171 0.42200
C 	C 	0.32497 0.06183 0.05192 -0.12200
H 	H 	0.29787 0.02493 0.05213 0.07600
C 	C 	0.35737 0.08263 0.03408 0.06600
C 	C 	0.39427 0.13573 0.03373 0.00700
C 	C 	0.30327 0.07643 0.08853 0.23800
C 	C 	0.48047 0.15323 0.01763 -0.27200
H 	H 	0.47107 0.11553 0.01633 0.12500
H 	H 	0.50497 0.17443 0.00653 0.11400
H 	H 	0.49817 0.16733 0.03083 0.11500
C 	C 	0.34847 0.04503 0.01523 -0.22600
H 	H 	0.31527 0.01033 0.01773 0.09900
H 	H 	0.37877 0.03773 0.01493 0.10000
Rb	Rb	0.12057 0.55281 0.30923 0.68800
O 	O 	0.05983 0.20667 0.27377 -0.30700
C 	C 	0.91203 0.21947 0.23531 0.03100
Rb	Rb	0.92127 0.46589 0.37329 0.67800
O 	O 	0.01643 0.13177 0.25987 -0.25900
C 	C 	0.94673 0.25077 0.25137 0.04300
Rb	Rb	0.87823 0.12600 0.28640 0.68600
O 	O 	0.87943 0.23667 0.22455 -0.19200
C 	C 	0.97893 0.23577 0.25967 -0.08700
H 	H 	0.00233 0.25787 0.27027 0.03400
Rb	Rb	0.76999 0.22810 0.22824 0.66700
O 	O 	0.71883 0.13127 0.16717 -0.35500
C 	C 	0.98143 0.18677 0.25387 -0.10900
Rb	Rb	0.10573 0.29417 0.30045 0.42300
O 	O 	0.64383 0.09427 0.18727 -0.26300
C 	C 	0.94473 0.15547 0.23798 -0.06900
H 	H 	0.94303 0.12297 0.23367 0.06700
O 	O 	0.81153 0.08097 0.24876 -0.18200
C 	C 	0.91003 0.17237 0.22809 0.04500
O 	O 	0.75983 0.99017 0.32427 -0.20800
C 	C 	0.01953 0.17277 0.26317 0.35600
O 	O 	0.79183 0.07137 0.34377 -0.20700
C 	C 	0.90783 0.27357 0.20737 -0.24800
H 	H 	0.92883 0.31047 0.21257 0.10800
H 	H 	0.88153 0.27157 0.19737 0.10300
H 	H 	0.93203 0.26327 0.20087 0.11000
O 	O 	0.72803 0.15827 0.26597 -0.18700
C 	C 	0.87003 0.13377 0.21167 -0.21700
H 	H 	0.88143 0.15147 0.19817 0.10700
H 	H 	0.87293 0.10087 0.21117 0.09800
O 	O 	0.77683 0.37307 0.26377 -0.24800
C 	C 	0.81083 0.11697 0.21487 0.06300
O 	O 	0.84483 0.41077 0.24247 -0.26000
C 	C 	0.78233 0.12247 0.19977 -0.12600
H 	H 	0.79993 0.13857 0.18737 0.07400
O 	O 	0.88393 0.23047 0.29051 -0.20700
C 	C 	0.72513 0.10467 0.20187 -0.04100
C 	C 	0.69983 0.08097 0.22097 -0.11200
H 	H 	0.66273 0.06897 0.22297 0.07500
C 	C 	0.73023 0.07567 0.23677 0.05100
C 	C 	0.78443 0.09047 0.23417 0.04100
C 	C 	0.69363 0.11157 0.18237 0.31700
C 	C 	0.80503 0.02757 0.24467 -0.28600
H 	H 	0.77233 0.99987 0.25137 0.13500
H 	H 	0.83633 0.02627 0.24987 0.13200
H 	H 	0.80193 0.02097 0.22987 0.12100
O 	O 	0.90333 0.04467 0.27987 -0.13700
C 	C 	0.70123 0.04687 0.25787 -0.23600
H 	H 	0.66393 0.04027 0.25727 0.10200
H 	H 	0.69863 0.01107 0.25807 0.10900
O 	O 	0.19633 0.50767 0.46397 -0.12600
C 	C 	0.72523 0.07417 0.27807 0.10300
C 	C 	0.73643 0.04757 0.29227 -0.18200
H 	H 	0.73043 0.01257 0.28937 0.11000
C 	C 	0.75663 0.07057 0.31107 0.03500
C 	C 	0.77043 0.12947 0.31137 -0.19500
H 	H 	0.78713 0.14717 0.32377 0.10500
O 	O 	0.16703 0.26777 0.29407 -0.21800
C 	C 	0.76453 0.16047 0.29867 0.14000
O 	O 	0.17673 0.40007 0.32217 -0.17900
C 	C 	0.73683 0.13087 0.28057 0.00700
O 	O 	0.18833 0.39057 0.32387 -0.00700
C 	C 	0.76683 0.03657 0.32697 0.19500
O 	O 	0.10253 0.38977 0.27689 -0.29000
C 	C 	0.67503 0.15227 0.27077 -0.26300
H 	H 	0.64843 0.12837 0.26077 0.11200
H 	H 	0.67753 0.18767 0.27037 0.11400
H 	H 	0.66383 0.13687 0.28447 0.11900
O 	O 	0.07533 0.43697 0.25687 -0.20500
C 	C 	0.78183 0.21547 0.30457 -0.29400
H 	H 	0.80353 0.22397 0.31717 0.12400
H 	H 	0.74973 0.21847 0.30767 0.13400
O 	O 	0.10333 0.47167 0.25637 -0.01900
C 	C 	0.81673 0.25907 0.28747 0.07600
O 	O 	0.93233 0.40637 0.33815 -0.19700
C 	C 	0.80483 0.29957 0.27797 -0.16500
H 	H 	0.77273 0.29917 0.28187 0.10000
O 	O 	0.77263 0.45827 0.33577 -0.24000
C 	C 	0.83573 0.33487 0.26477 0.03800
O 	O 	0.79713 0.52147 0.35777 -0.29900
C 	C 	0.87613 0.33557 0.25907 -0.15700
H 	H 	0.89733 0.36157 0.24897 0.08600
O 	O 	0.81613 0.53947 0.35557 0.09600
C 	C 	0.89613 0.29777 0.26667 0.05900
O 	O 	0.01723 0.55577 0.30695 -0.19100
C 	C 	0.86623 0.26267 0.28157 0.02900
O 	O 	0.22243 0.74077 0.31467 -0.20400
C 	C 	0.81973 0.37927 0.25627 0.26100
O 	O 	0.26573 0.71017 0.33787 -0.19700
C 	C 	0.91823 0.25897 0.30727 -0.17800
H 	H 	0.94343 0.29607 0.30317 0.08400
H 	H 	0.93843 0.24127 0.31137 0.06800
H 	H 	0.89643 0.25907 0.31877 0.08300
O 	O 	0.02003 0.57117 0.37005 -0.18500
C 	C 	0.94883 0.30397 0.25847 -0.21100
H 	H 	0.97663 0.32077 0.26927 0.09300
H 	H 	0.96063 0.32907 0.24667 0.09800
O 	O 	0.98503 0.43727 0.43837 -0.23700
C 	C 	0.01063 0.39747 0.32767 0.06800
O 	O 	0.92653 0.35947 0.42187 -0.22800
C 	C 	0.04413 0.39837 0.31167 -0.11500
H 	H 	0.06933 0.38687 0.31427 0.06300
O 	O 	0.09673 0.49057 0.34980 -0.17400
C 	C 	0.04113 0.41617 0.29157 -0.03200
C 	C 	0.00183 0.43357 0.28747 -0.11400
H 	H 	0.99993 0.44597 0.27427 0.07600
C 	C 	0.96693 0.43217 0.30286 0.06100
O 	O 	0.86113 0.51887 0.39147 -0.06700
C 	C 	0.97053 0.41147 0.32287 0.02200
O 	O 	0.88483 0.54427 0.38837 -0.11100
C 	C 	0.07603 0.41357 0.27377 0.27100
C 	C 	0.88313 0.35517 0.33747 -0.20000
H 	H 	0.89083 0.32637 0.34067 0.09100
H 	H 	0.85773 0.35497 0.34757 0.07900
H 	H 	0.86733 0.34957 0.32377 0.09700
O 	O 	0.23883 0.60067 0.32287 0.43700
C 	C 	0.92343 0.44797 0.29847 -0.22100
H 	H 	0.88763 0.41497 0.29907 0.10200
H 	H 	0.92853 0.46197 0.28427 0.09800
O 	O 	0.23753 0.61367 0.31667 -0.57200
C 	C 	0.92333 0.49017 0.31293 0.06300
O 	O 	0.18463 0.50337 0.29347 -0.16300
C 	C 	0.87353 0.47767 0.32177 -0.12700
H 	H 	0.84243 0.44407 0.31877 0.08500
O 	O 	0.17963 0.48727 0.29997 0.02100
C 	C 	0.86893 0.51527 0.33553 -0.02300
C 	C 	0.91653 0.56477 0.33987 -0.12500
H 	H 	0.91443 0.58967 0.34877 0.08600
C 	C 	0.96563 0.57757 0.33137 0.06600
C 	C 	0.97013 0.54237 0.31712 0.02900
C 	C 	0.80983 0.49607 0.34347 0.26800
C 	C 	0.02073 0.58317 0.28727 -0.23300
H 	H 	0.01313 0.61247 0.28967 0.11100
H 	H 	0.05693 0.59777 0.28157 0.09900
H 	H 	0.99423 0.55717 0.27767 0.10000
C 	C 	0.01573 0.63287 0.33627 -0.22700
H 	H 	0.02443 0.65577 0.32387 0.10700
H 	H 	0.00573 0.65027 0.34717 0.10300
C 	C 	0.06853 0.63337 0.34317 0.08100
C 	C 	0.11973 0.66677 0.33427 -0.16800
H 	H 	0.12133 0.68817 0.32297 0.10400
C 	C 	0.16753 0.67087 0.34057 0.05000
C 	C 	0.16573 0.63767 0.35537 -0.15600
H 	H 	0.19783 0.63787 0.35917 0.10200
C 	C 	0.11353 0.59967 0.36617 0.08400
C 	C 	0.06803 0.60107 0.35957 0.01700
C 	C 	0.22443 0.71317 0.32807 0.24300
C 	C 	0.01343 0.59917 0.38807 -0.26300
H 	H 	0.03293 0.63807 0.38567 0.11800
H 	H 	0.97513 0.58677 0.39007 0.11500
H 	H 	0.02773 0.59087 0.40027 0.10700
C 	C 	0.11363 0.56637 0.38407 -0.24900
H 	H 	0.14963 0.56967 0.38487 0.11600
H 	H 	0.10853 0.58217 0.39677 0.11600
C 	C 	0.07103 0.50607 0.38363 0.07600
C 	C 	0.03873 0.48287 0.40104 -0.12400
H 	H 	0.04423 0.50547 0.41247 0.07700
C 	C 	0.99833 0.42747 0.40267 -0.03700
Rb	Rb	0.11691 0.30903 0.29505 0.42200
C 	C 	0.99163 0.39517 0.38526 -0.12500
H 	H 	0.96453 0.35827 0.38547 0.07700
C 	C 	0.02403 0.41597 0.36742 0.06800
C 	C 	0.06093 0.46907 0.36707 0.00800
C 	C 	0.96993 0.40977 0.42187 0.23800
C 	C 	0.14713 0.48657 0.35097 -0.27200
H 	H 	0.13773 0.44887 0.34967 0.12500
H 	H 	0.17163 0.50777 0.33987 0.11400
H 	H 	0.16483 0.50067 0.36417 0.11500
C 	C 	0.01513 0.37837 0.34857 -0.22200
H 	H 	0.98193 0.34367 0.35107 0.09700
H 	H 	0.04543 0.37107 0.34827 0.10000
