data_crystal

_cell_length_a 31.34000
_cell_length_b 31.34000
_cell_length_c 31.34000
_cell_angle_alpha 90.00000
_cell_angle_beta  90.00000
_cell_angle_gamma 90.00000

_symmetry_space_group_name_	'P 1'
_symmetry_space_group_name_H-M	'P 1'

loop_
_symmetry_equiv_pos_as_xyz
  x,y,z

loop_
_atom_site_label
_atom_site_type_symbol
_atom_site_fract_x
_atom_site_fract_y
_atom_site_fract_z
_atom_site_charge
Ni	Ni	0.21610 0.03600 0.03420 0.82000
Ni	Ni	0.21610 0.53600 0.53420 0.80800
Ni	Ni	0.71610 0.03600 0.53420 0.81300
Ni	Ni	0.71610 0.53600 0.03420 0.81200
Ni	Ni	0.78390 0.96400 0.03420 0.79000
Ni	Ni	0.78390 0.46400 0.53420 0.80400
Ni	Ni	0.28390 0.96400 0.53420 0.78800
Ni	Ni	0.28390 0.46400 0.03420 0.81300
Ni	Ni	0.78390 0.03600 0.96580 0.78800
Ni	Ni	0.78390 0.53600 0.46580 0.80500
Ni	Ni	0.28390 0.03600 0.46580 0.81400
Ni	Ni	0.28390 0.53600 0.96580 0.78400
Ni	Ni	0.21610 0.96400 0.96580 0.76600
Ni	Ni	0.21610 0.46400 0.46580 0.80900
Ni	Ni	0.71610 0.96400 0.46580 0.78800
Ni	Ni	0.71610 0.46400 0.96580 0.78400
Ni	Ni	0.03420 0.21610 0.03600 0.82100
Ni	Ni	0.03420 0.71610 0.53600 0.81300
Ni	Ni	0.53420 0.21610 0.53600 0.80900
Ni	Ni	0.53420 0.71610 0.03600 0.81400
Ni	Ni	0.03420 0.78390 0.96400 0.79100
Ni	Ni	0.03420 0.28390 0.46400 0.81300
Ni	Ni	0.53420 0.78390 0.46400 0.80500
Ni	Ni	0.53420 0.28390 0.96400 0.78800
Ni	Ni	0.96580 0.78390 0.03600 0.78800
Ni	Ni	0.96580 0.28390 0.53600 0.78400
Ni	Ni	0.46580 0.78390 0.53600 0.80500
Ni	Ni	0.46580 0.28390 0.03600 0.81400
Ni	Ni	0.96580 0.21610 0.96400 0.76600
Ni	Ni	0.96580 0.71610 0.46400 0.78400
Ni	Ni	0.46580 0.21610 0.46400 0.80900
Ni	Ni	0.46580 0.71610 0.96400 0.78800
Ni	Ni	0.03600 0.03420 0.21610 0.82100
Ni	Ni	0.03600 0.53420 0.71610 0.81400
Ni	Ni	0.53600 0.03420 0.71610 0.81300
Ni	Ni	0.53600 0.53420 0.21610 0.80900
Ni	Ni	0.96400 0.03420 0.78390 0.79100
Ni	Ni	0.96400 0.53420 0.28390 0.78800
Ni	Ni	0.46400 0.03420 0.28390 0.81300
Ni	Ni	0.46400 0.53420 0.78390 0.80500
Ni	Ni	0.03600 0.96580 0.78390 0.78800
Ni	Ni	0.03600 0.46580 0.28390 0.81400
Ni	Ni	0.53600 0.96580 0.28390 0.78400
Ni	Ni	0.53600 0.46580 0.78390 0.80500
Ni	Ni	0.96400 0.96580 0.21610 0.76600
Ni	Ni	0.96400 0.46580 0.71610 0.78800
Ni	Ni	0.46400 0.96580 0.71610 0.78400
Ni	Ni	0.46400 0.46580 0.21610 0.80900
Ni	Ni	0.78390 0.96400 0.96580 0.76200
Ni	Ni	0.78390 0.46400 0.46580 0.80500
Ni	Ni	0.28390 0.96400 0.46580 0.78800
Ni	Ni	0.28390 0.46400 0.96580 0.78400
Ni	Ni	0.21610 0.03600 0.96580 0.79200
Ni	Ni	0.21610 0.53600 0.46580 0.80900
Ni	Ni	0.71610 0.03600 0.46580 0.81400
Ni	Ni	0.71610 0.53600 0.96580 0.78400
Ni	Ni	0.21610 0.96400 0.03420 0.79500
Ni	Ni	0.21610 0.46400 0.53420 0.80900
Ni	Ni	0.71610 0.96400 0.53420 0.78800
Ni	Ni	0.71610 0.46400 0.03420 0.81300
Ni	Ni	0.78390 0.03600 0.03420 0.81700
Ni	Ni	0.78390 0.53600 0.53420 0.80500
Ni	Ni	0.28390 0.03600 0.53420 0.81400
Ni	Ni	0.28390 0.53600 0.03420 0.81300
Ni	Ni	0.96580 0.78390 0.96400 0.76200
Ni	Ni	0.96580 0.28390 0.46400 0.78400
Ni	Ni	0.46580 0.78390 0.46400 0.80500
Ni	Ni	0.46580 0.28390 0.96400 0.78800
Ni	Ni	0.96580 0.21610 0.03600 0.79200
Ni	Ni	0.96580 0.71610 0.53600 0.78400
Ni	Ni	0.46580 0.21610 0.53600 0.80900
Ni	Ni	0.46580 0.71610 0.03600 0.81400
Ni	Ni	0.03420 0.21610 0.96400 0.79500
Ni	Ni	0.03420 0.71610 0.46400 0.81300
Ni	Ni	0.53420 0.21610 0.46400 0.80900
Ni	Ni	0.53420 0.71610 0.96400 0.78800
Ni	Ni	0.03420 0.78390 0.03600 0.81700
Ni	Ni	0.03420 0.28390 0.53600 0.81300
Ni	Ni	0.53420 0.78390 0.53600 0.80500
Ni	Ni	0.53420 0.28390 0.03600 0.81400
Ni	Ni	0.96400 0.96580 0.78390 0.76200
Ni	Ni	0.96400 0.46580 0.28390 0.78800
Ni	Ni	0.46400 0.96580 0.28390 0.78400
Ni	Ni	0.46400 0.46580 0.78390 0.80500
Ni	Ni	0.03600 0.96580 0.21610 0.79200
Ni	Ni	0.03600 0.46580 0.71610 0.81400
Ni	Ni	0.53600 0.96580 0.71610 0.78400
Ni	Ni	0.53600 0.46580 0.21610 0.80900
Ni	Ni	0.96400 0.03420 0.21610 0.79500
Ni	Ni	0.96400 0.53420 0.71610 0.78800
Ni	Ni	0.46400 0.03420 0.71610 0.81300
Ni	Ni	0.46400 0.53420 0.21610 0.80900
Ni	Ni	0.03600 0.03420 0.78390 0.81700
Ni	Ni	0.03600 0.53420 0.28390 0.81400
Ni	Ni	0.53600 0.03420 0.28390 0.81300
Ni	Ni	0.53600 0.53420 0.78390 0.80500
Ni	Ni	0.32147 0.00000 -0.00000 1.13800
O 	O 	0.25500 0.00000 -0.00000 -0.71800
Ni	Ni	0.32147 0.50000 0.50000 1.12100
O 	O 	0.25500 0.50000 0.50000 -0.75800
Ni	Ni	0.82147 0.00000 0.50000 1.12900
O 	O 	0.75500 0.00000 0.50000 -0.73400
Ni	Ni	0.82147 0.50000 -0.00000 1.12700
O 	O 	0.75500 0.50000 -0.00000 -0.74100
Ni	Ni	0.67853 0.00000 -0.00000 1.13800
O 	O 	0.74500 0.00000 -0.00000 -0.71800
Ni	Ni	0.67853 0.50000 0.50000 1.12100
O 	O 	0.74500 0.50000 0.50000 -0.75800
Ni	Ni	0.17853 0.00000 0.50000 1.13100
O 	O 	0.24500 0.00000 0.50000 -0.73400
Ni	Ni	0.17853 0.50000 -0.00000 1.12900
O 	O 	0.24500 0.50000 -0.00000 -0.74100
Ni	Ni	-0.00000 0.32147 -0.00000 1.13800
O 	O 	-0.00000 0.25500 -0.00000 -0.71800
Ni	Ni	0.00000 0.82147 0.50000 1.12700
O 	O 	0.00000 0.75500 0.50000 -0.74100
Ni	Ni	0.50000 0.32147 0.50000 1.12100
O 	O 	0.50000 0.25500 0.50000 -0.75800
Ni	Ni	0.50000 0.82147 -0.00000 1.12900
O 	O 	0.50000 0.75500 -0.00000 -0.73400
Ni	Ni	-0.00000 0.67853 -0.00000 1.13800
O 	O 	0.00000 0.74500 -0.00000 -0.71800
Ni	Ni	0.00000 0.17853 0.50000 1.12900
O 	O 	0.00000 0.24500 0.50000 -0.74100
Ni	Ni	0.50000 0.67853 0.50000 1.12100
O 	O 	0.50000 0.74500 0.50000 -0.75800
Ni	Ni	0.50000 0.17853 -0.00000 1.13100
O 	O 	0.50000 0.24500 -0.00000 -0.73400
Ni	Ni	0.00000 0.00000 0.32147 1.13800
O 	O 	0.00000 0.00000 0.25500 -0.71800
Ni	Ni	0.00000 0.50000 0.82147 1.12900
O 	O 	-0.00000 0.50000 0.75500 -0.73400
Ni	Ni	0.50000 0.00000 0.82147 1.12700
O 	O 	0.50000 0.00000 0.75500 -0.74100
Ni	Ni	0.50000 0.50000 0.32147 1.12100
O 	O 	0.50000 0.50000 0.25500 -0.75800
Ni	Ni	0.00000 0.00000 0.67853 1.13800
O 	O 	0.00000 0.00000 0.74500 -0.71800
Ni	Ni	0.00000 0.50000 0.17853 1.13100
O 	O 	0.00000 0.50000 0.24500 -0.73400
Ni	Ni	0.50000 0.00000 0.17853 1.12900
O 	O 	0.50000 0.00000 0.24500 -0.74100
Ni	Ni	0.50000 0.50000 0.67853 1.12100
O 	O 	0.50000 0.50000 0.74500 -0.75800
O 	O 	0.32550 0.06440 -0.00000 -0.36500
O 	O 	0.43230 0.17730 -0.00000 -0.42400
O 	O 	0.40840 0.24410 -0.00000 -0.54300
C 	C 	0.35860 0.18520 -0.00000 -0.12700
C 	C 	0.34680 0.14240 -0.00000 0.04000
H 	H 	0.36800 0.12080 -0.00000 0.04100
C 	C 	0.30380 0.13130 -0.00000 -0.10800
C 	C 	0.27270 0.16290 -0.00000 -0.04400
H 	H 	0.24340 0.15530 -0.00000 -0.02600
C 	C 	0.28450 0.20570 -0.00000 0.01900
C 	C 	0.32750 0.21680 -0.00000 -0.03200
H 	H 	0.33560 0.24600 -0.00000 0.00900
C 	C 	0.40340 0.20360 -0.00000 0.39500
C 	C 	0.28570 0.08490 -0.00000 0.29000
N 	N 	0.24390 0.23130 -0.00000 -0.11100
O 	O 	0.25260 0.05980 -0.00000 -0.71900
O 	O 	0.32550 0.56440 0.50000 -0.37600
O 	O 	0.43230 0.67730 0.50000 -0.43700
O 	O 	0.40840 0.74410 0.50000 -0.55800
C 	C 	0.35860 0.68520 0.50000 -0.13800
C 	C 	0.34680 0.64240 0.50000 0.04400
H 	H 	0.36800 0.62080 0.50000 0.03300
C 	C 	0.30380 0.63130 0.50000 -0.11900
C 	C 	0.27270 0.66290 0.50000 -0.04100
H 	H 	0.24340 0.65530 0.50000 -0.03400
C 	C 	0.28450 0.70570 0.50000 0.00900
C 	C 	0.32750 0.71680 0.50000 -0.02900
H 	H 	0.33560 0.74600 0.50000 0.00100
C 	C 	0.40340 0.70360 0.50000 0.39700
C 	C 	0.28570 0.58490 0.50000 0.28900
N 	N 	0.24390 0.73130 0.50000 -0.11500
O 	O 	0.25260 0.55980 0.50000 -0.73400
O 	O 	0.82550 0.06440 0.50000 -0.37900
O 	O 	0.93230 0.17730 0.50000 -0.46200
O 	O 	0.90840 0.24410 0.50000 -0.57000
C 	C 	0.85860 0.18520 0.50000 -0.14600
C 	C 	0.84680 0.14240 0.50000 0.04600
H 	H 	0.86800 0.12080 0.50000 0.02700
C 	C 	0.80380 0.13130 0.50000 -0.12200
C 	C 	0.77270 0.16290 0.50000 -0.04000
H 	H 	0.74340 0.15530 0.50000 -0.03500
C 	C 	0.78450 0.20570 0.50000 0.00700
C 	C 	0.82750 0.21680 0.50000 -0.02700
H 	H 	0.83560 0.24600 0.50000 -0.00100
C 	C 	0.90340 0.20360 0.50000 0.39800
C 	C 	0.78570 0.08490 0.50000 0.28900
N 	N 	0.74390 0.23130 0.50000 -0.11400
O 	O 	0.75260 0.05980 0.50000 -0.73500
O 	O 	0.82550 0.56440 -0.00000 -0.37100
O 	O 	0.93230 0.67730 -0.00000 -0.45200
O 	O 	0.90840 0.74410 -0.00000 -0.56000
C 	C 	0.85860 0.68520 -0.00000 -0.13900
C 	C 	0.84680 0.64240 -0.00000 0.04400
H 	H 	0.86800 0.62080 -0.00000 0.03200
C 	C 	0.80380 0.63130 -0.00000 -0.11500
C 	C 	0.77270 0.66290 -0.00000 -0.04100
H 	H 	0.74340 0.65530 -0.00000 -0.03000
C 	C 	0.78450 0.70570 -0.00000 0.01200
C 	C 	0.82750 0.71680 -0.00000 -0.02800
H 	H 	0.83560 0.74600 -0.00000 0.00200
C 	C 	0.90340 0.70360 -0.00000 0.39800
C 	C 	0.78570 0.58490 -0.00000 0.29100
N 	N 	0.74390 0.73130 -0.00000 -0.11200
O 	O 	0.75260 0.55980 -0.00000 -0.72000
O 	O 	0.67450 0.93560 -0.00000 -0.39100
O 	O 	0.56770 0.82270 -0.00000 -0.42900
O 	O 	0.59160 0.75590 -0.00000 -0.54400
C 	C 	0.64140 0.81480 -0.00000 -0.13400
C 	C 	0.65320 0.85760 -0.00000 0.04300
H 	H 	0.63200 0.87920 -0.00000 0.03200
C 	C 	0.69620 0.86870 -0.00000 -0.11800
C 	C 	0.72730 0.83710 -0.00000 -0.04200
H 	H 	0.75660 0.84470 -0.00000 -0.03500
C 	C 	0.71550 0.79430 -0.00000 0.01300
C 	C 	0.67250 0.78320 -0.00000 -0.03000
H 	H 	0.66440 0.75400 -0.00000 0.00700
C 	C 	0.59660 0.79640 -0.00000 0.39600
C 	C 	0.71430 0.91510 -0.00000 0.28700
N 	N 	0.75610 0.76870 -0.00000 -0.11400
O 	O 	0.74740 0.94020 -0.00000 -0.74000
O 	O 	0.67450 0.43560 0.50000 -0.37600
O 	O 	0.56770 0.32270 0.50000 -0.43600
O 	O 	0.59160 0.25590 0.50000 -0.55500
C 	C 	0.64140 0.31480 0.50000 -0.13800
C 	C 	0.65320 0.35760 0.50000 0.04400
H 	H 	0.63200 0.37920 0.50000 0.03300
C 	C 	0.69620 0.36870 0.50000 -0.11900
C 	C 	0.72730 0.33710 0.50000 -0.04100
H 	H 	0.75660 0.34470 0.50000 -0.03700
C 	C 	0.71550 0.29430 0.50000 0.00900
C 	C 	0.67250 0.28320 0.50000 -0.02900
H 	H 	0.66440 0.25400 0.50000 0.00300
C 	C 	0.59660 0.29640 0.50000 0.39600
C 	C 	0.71430 0.41510 0.50000 0.28800
N 	N 	0.75610 0.26870 0.50000 -0.11600
O 	O 	0.74740 0.44020 0.50000 -0.73500
O 	O 	0.17450 0.93560 0.50000 -0.40000
O 	O 	0.06770 0.82270 0.50000 -0.44000
O 	O 	0.09160 0.75590 0.50000 -0.55600
C 	C 	0.14140 0.81480 0.50000 -0.14100
C 	C 	0.15320 0.85760 0.50000 0.04500
H 	H 	0.13200 0.87920 0.50000 0.02700
C 	C 	0.19620 0.86870 0.50000 -0.12500
C 	C 	0.22730 0.83710 0.50000 -0.04100
H 	H 	0.25660 0.84470 0.50000 -0.03900
C 	C 	0.21550 0.79430 0.50000 0.00700
C 	C 	0.17250 0.78320 0.50000 -0.02800
H 	H 	0.16440 0.75400 0.50000 0.00200
C 	C 	0.09660 0.79640 0.50000 0.39600
C 	C 	0.21430 0.91510 0.50000 0.28600
N 	N 	0.25610 0.76870 0.50000 -0.11600
O 	O 	0.24740 0.94020 0.50000 -0.75300
O 	O 	0.17450 0.43560 -0.00000 -0.36600
O 	O 	0.06770 0.32270 -0.00000 -0.42400
O 	O 	0.09160 0.25590 -0.00000 -0.54100
C 	C 	0.14140 0.31480 -0.00000 -0.12600
C 	C 	0.15320 0.35760 -0.00000 0.04000
H 	H 	0.13200 0.37920 -0.00000 0.04100
C 	C 	0.19620 0.36870 -0.00000 -0.10800
C 	C 	0.22730 0.33710 -0.00000 -0.04400
H 	H 	0.25660 0.34470 -0.00000 -0.02800
C 	C 	0.21550 0.29430 -0.00000 0.01900
C 	C 	0.17250 0.28320 -0.00000 -0.03300
H 	H 	0.16440 0.25400 -0.00000 0.01000
C 	C 	0.09660 0.29640 -0.00000 0.39400
C 	C 	0.21430 0.41510 -0.00000 0.29000
N 	N 	0.25610 0.26870 -0.00000 -0.11100
O 	O 	0.24740 0.44020 -0.00000 -0.71900
O 	O 	0.67450 0.06440 -0.00000 -0.36500
O 	O 	0.56770 0.17730 -0.00000 -0.42400
O 	O 	0.59160 0.24410 -0.00000 -0.54300
C 	C 	0.64140 0.18520 -0.00000 -0.12800
C 	C 	0.65320 0.14240 -0.00000 0.04100
H 	H 	0.63200 0.12080 -0.00000 0.04100
C 	C 	0.69620 0.13130 -0.00000 -0.11000
C 	C 	0.72730 0.16290 -0.00000 -0.04400
H 	H 	0.75660 0.15530 -0.00000 -0.02900
C 	C 	0.71550 0.20570 -0.00000 0.01700
C 	C 	0.67250 0.21680 -0.00000 -0.03200
H 	H 	0.66440 0.24600 -0.00000 0.00800
C 	C 	0.59660 0.20360 -0.00000 0.39500
C 	C 	0.71430 0.08490 -0.00000 0.28900
N 	N 	0.75610 0.23130 -0.00000 -0.11300
O 	O 	0.74740 0.05980 -0.00000 -0.72100
O 	O 	0.67450 0.56440 0.50000 -0.37600
O 	O 	0.56770 0.67730 0.50000 -0.43700
O 	O 	0.59160 0.74410 0.50000 -0.55900
C 	C 	0.64140 0.68520 0.50000 -0.13900
C 	C 	0.65320 0.64240 0.50000 0.04400
H 	H 	0.63200 0.62080 0.50000 0.03300
C 	C 	0.69620 0.63130 0.50000 -0.12000
C 	C 	0.72730 0.66290 0.50000 -0.04100
H 	H 	0.75660 0.65530 0.50000 -0.03800
C 	C 	0.71550 0.70570 0.50000 0.00700
C 	C 	0.67250 0.71680 0.50000 -0.02800
H 	H 	0.66440 0.74600 0.50000 -0.00000
C 	C 	0.59660 0.70360 0.50000 0.39700
C 	C 	0.71430 0.58490 0.50000 0.28800
N 	N 	0.75610 0.73130 0.50000 -0.11600
O 	O 	0.74740 0.55980 0.50000 -0.73500
O 	O 	0.17450 0.06440 0.50000 -0.37400
O 	O 	0.06770 0.17730 0.50000 -0.43400
O 	O 	0.09160 0.24410 0.50000 -0.55500
C 	C 	0.14140 0.18520 0.50000 -0.13500
C 	C 	0.15320 0.14240 0.50000 0.04200
H 	H 	0.13200 0.12080 0.50000 0.03600
C 	C 	0.19620 0.13130 0.50000 -0.11600
C 	C 	0.22730 0.16290 0.50000 -0.04300
H 	H 	0.25660 0.15530 0.50000 -0.03300
C 	C 	0.21550 0.20570 0.50000 0.01200
C 	C 	0.17250 0.21680 0.50000 -0.03000
H 	H 	0.16440 0.24600 0.50000 0.00400
C 	C 	0.09660 0.20360 0.50000 0.39500
C 	C 	0.21430 0.08490 0.50000 0.28800
N 	N 	0.25610 0.23130 0.50000 -0.11400
O 	O 	0.24740 0.05980 0.50000 -0.73400
O 	O 	0.17450 0.56440 -0.00000 -0.36600
O 	O 	0.06770 0.67730 -0.00000 -0.42400
O 	O 	0.09160 0.74410 -0.00000 -0.54400
C 	C 	0.14140 0.68520 -0.00000 -0.12800
C 	C 	0.15320 0.64240 -0.00000 0.04100
H 	H 	0.13200 0.62080 -0.00000 0.04100
C 	C 	0.19620 0.63130 -0.00000 -0.10900
C 	C 	0.22730 0.66290 -0.00000 -0.04400
H 	H 	0.25660 0.65530 -0.00000 -0.02800
C 	C 	0.21550 0.70570 -0.00000 0.01700
C 	C 	0.17250 0.71680 -0.00000 -0.03200
H 	H 	0.16440 0.74600 -0.00000 0.00700
C 	C 	0.09660 0.70360 -0.00000 0.39400
C 	C 	0.21430 0.58490 -0.00000 0.29000
N 	N 	0.25610 0.73130 -0.00000 -0.11200
O 	O 	0.24740 0.55980 -0.00000 -0.71900
O 	O 	0.32550 0.93560 -0.00000 -0.39100
O 	O 	0.43230 0.82270 -0.00000 -0.42900
O 	O 	0.40840 0.75590 -0.00000 -0.54400
C 	C 	0.35860 0.81480 -0.00000 -0.13300
C 	C 	0.34680 0.85760 -0.00000 0.04300
H 	H 	0.36800 0.87920 -0.00000 0.03300
C 	C 	0.30380 0.86870 -0.00000 -0.11700
C 	C 	0.27270 0.83710 -0.00000 -0.04300
H 	H 	0.24340 0.84470 -0.00000 -0.03200
C 	C 	0.28450 0.79430 -0.00000 0.01500
C 	C 	0.32750 0.78320 -0.00000 -0.03000
H 	H 	0.33560 0.75400 -0.00000 0.00700
C 	C 	0.40340 0.79640 -0.00000 0.39600
C 	C 	0.28570 0.91510 -0.00000 0.28800
N 	N 	0.24390 0.76870 -0.00000 -0.11300
O 	O 	0.25260 0.94020 -0.00000 -0.73800
O 	O 	0.32550 0.43560 0.50000 -0.37600
O 	O 	0.43230 0.32270 0.50000 -0.43600
O 	O 	0.40840 0.25590 0.50000 -0.55500
C 	C 	0.35860 0.31480 0.50000 -0.13700
C 	C 	0.34680 0.35760 0.50000 0.04300
H 	H 	0.36800 0.37920 0.50000 0.03300
C 	C 	0.30380 0.36870 0.50000 -0.11800
C 	C 	0.27270 0.33710 0.50000 -0.04200
H 	H 	0.24340 0.34470 0.50000 -0.03400
C 	C 	0.28450 0.29430 0.50000 0.01100
C 	C 	0.32750 0.28320 0.50000 -0.02900
H 	H 	0.33560 0.25400 0.50000 0.00400
C 	C 	0.40340 0.29640 0.50000 0.39600
C 	C 	0.28570 0.41510 0.50000 0.28900
N 	N 	0.24390 0.26870 0.50000 -0.11400
O 	O 	0.25260 0.44020 0.50000 -0.73300
O 	O 	0.82550 0.93560 0.50000 -0.40500
O 	O 	0.93230 0.82270 0.50000 -0.46800
O 	O 	0.90840 0.75590 0.50000 -0.57200
C 	C 	0.85860 0.81480 0.50000 -0.15200
C 	C 	0.84680 0.85760 0.50000 0.04800
H 	H 	0.86800 0.87920 0.50000 0.01900
C 	C 	0.80380 0.86870 0.50000 -0.13100
C 	C 	0.77270 0.83710 0.50000 -0.03900
H 	H 	0.74340 0.84470 0.50000 -0.04100
C 	C 	0.78450 0.79430 0.50000 0.00200
C 	C 	0.82750 0.78320 0.50000 -0.02500
H 	H 	0.83560 0.75400 0.50000 -0.00300
C 	C 	0.90340 0.79640 0.50000 0.40000
C 	C 	0.78570 0.91510 0.50000 0.28700
N 	N 	0.74390 0.76870 0.50000 -0.11600
O 	O 	0.75260 0.94020 0.50000 -0.75400
O 	O 	0.82550 0.43560 -0.00000 -0.37100
O 	O 	0.93230 0.32270 -0.00000 -0.45100
O 	O 	0.90840 0.25590 -0.00000 -0.55600
C 	C 	0.85860 0.31480 -0.00000 -0.13700
C 	C 	0.84680 0.35760 -0.00000 0.04400
H 	H 	0.86800 0.37920 -0.00000 0.03300
C 	C 	0.80380 0.36870 -0.00000 -0.11400
C 	C 	0.77270 0.33710 -0.00000 -0.04200
H 	H 	0.74340 0.34470 -0.00000 -0.02900
C 	C 	0.78450 0.29430 -0.00000 0.01400
C 	C 	0.82750 0.28320 -0.00000 -0.02900
H 	H 	0.83560 0.25400 -0.00000 0.00500
C 	C 	0.90340 0.29640 -0.00000 0.39700
C 	C 	0.78570 0.41510 -0.00000 0.29100
N 	N 	0.74390 0.26870 -0.00000 -0.11200
O 	O 	0.75260 0.44020 -0.00000 -0.72000
O 	O 	-0.00000 0.32550 0.06440 -0.36500
O 	O 	-0.00000 0.43230 0.17730 -0.42400
O 	O 	0.00000 0.40840 0.24410 -0.54300
C 	C 	-0.00000 0.35860 0.18520 -0.12700
C 	C 	-0.00000 0.34680 0.14240 0.04000
H 	H 	-0.00000 0.36800 0.12080 0.04100
C 	C 	0.00000 0.30380 0.13130 -0.10800
C 	C 	0.00000 0.27270 0.16290 -0.04400
H 	H 	0.00000 0.24340 0.15530 -0.02600
C 	C 	-0.00000 0.28450 0.20570 0.01900
C 	C 	0.00000 0.32750 0.21680 -0.03200
H 	H 	0.00000 0.33560 0.24600 0.00900
C 	C 	0.00000 0.40340 0.20360 0.39500
C 	C 	-0.00000 0.28570 0.08490 0.29000
N 	N 	0.00000 0.24390 0.23130 -0.11100
O 	O 	0.00000 0.25260 0.05980 -0.71900
O 	O 	0.00000 0.82550 0.56440 -0.37100
O 	O 	0.00000 0.93230 0.67730 -0.45200
O 	O 	0.00000 0.90840 0.74410 -0.56000
C 	C 	0.00000 0.85860 0.68520 -0.13900
C 	C 	0.00000 0.84680 0.64240 0.04400
H 	H 	-0.00000 0.86800 0.62080 0.03200
C 	C 	0.00000 0.80380 0.63130 -0.11500
C 	C 	0.00000 0.77270 0.66290 -0.04100
H 	H 	0.00000 0.74340 0.65530 -0.03000
C 	C 	0.00000 0.78450 0.70570 0.01200
C 	C 	0.00000 0.82750 0.71680 -0.02800
H 	H 	0.00000 0.83560 0.74600 0.00200
C 	C 	0.00000 0.90340 0.70360 0.39800
C 	C 	-0.00000 0.78570 0.58490 0.29100
N 	N 	0.00000 0.74390 0.73130 -0.11200
O 	O 	-0.00000 0.75260 0.55980 -0.72000
O 	O 	0.50000 0.32550 0.56440 -0.37600
O 	O 	0.50000 0.43230 0.67730 -0.43700
O 	O 	0.50000 0.40840 0.74410 -0.55800
C 	C 	0.50000 0.35860 0.68520 -0.13800
C 	C 	0.50000 0.34680 0.64240 0.04400
H 	H 	0.50000 0.36800 0.62080 0.03300
C 	C 	0.50000 0.30380 0.63130 -0.11900
C 	C 	0.50000 0.27270 0.66290 -0.04100
H 	H 	0.50000 0.24340 0.65530 -0.03400
C 	C 	0.50000 0.28450 0.70570 0.00900
C 	C 	0.50000 0.32750 0.71680 -0.02900
H 	H 	0.50000 0.33560 0.74600 0.00100
C 	C 	0.50000 0.40340 0.70360 0.39700
C 	C 	0.50000 0.28570 0.58490 0.28900
N 	N 	0.50000 0.24390 0.73130 -0.11500
O 	O 	0.50000 0.25260 0.55980 -0.73400
O 	O 	0.50000 0.82550 0.06440 -0.37900
O 	O 	0.50000 0.93230 0.17730 -0.46200
O 	O 	0.50000 0.90840 0.24410 -0.57000
C 	C 	0.50000 0.85860 0.18520 -0.14600
C 	C 	0.50000 0.84680 0.14240 0.04600
H 	H 	0.50000 0.86800 0.12080 0.02700
C 	C 	0.50000 0.80380 0.13130 -0.12200
C 	C 	0.50000 0.77270 0.16290 -0.04000
H 	H 	0.50000 0.74340 0.15530 -0.03500
C 	C 	0.50000 0.78450 0.20570 0.00700
C 	C 	0.50000 0.82750 0.21680 -0.02700
H 	H 	0.50000 0.83560 0.24600 -0.00100
C 	C 	0.50000 0.90340 0.20360 0.39800
C 	C 	0.50000 0.78570 0.08490 0.28900
N 	N 	0.50000 0.74390 0.23130 -0.11400
O 	O 	0.50000 0.75260 0.05980 -0.73500
O 	O 	0.00000 0.67450 0.93560 -0.39100
O 	O 	0.00000 0.56770 0.82270 -0.42900
O 	O 	0.00000 0.59160 0.75590 -0.54400
C 	C 	-0.00000 0.64140 0.81480 -0.13400
C 	C 	-0.00000 0.65320 0.85760 0.04300
H 	H 	0.00000 0.63200 0.87920 0.03200
C 	C 	0.00000 0.69620 0.86870 -0.11800
C 	C 	0.00000 0.72730 0.83710 -0.04200
H 	H 	0.00000 0.75660 0.84470 -0.03500
C 	C 	0.00000 0.71550 0.79430 0.01300
C 	C 	0.00000 0.67250 0.78320 -0.03000
H 	H 	0.00000 0.66440 0.75400 0.00700
C 	C 	-0.00000 0.59660 0.79640 0.39600
C 	C 	0.00000 0.71430 0.91510 0.28700
N 	N 	-0.00000 0.75610 0.76870 -0.11400
O 	O 	-0.00000 0.74740 0.94020 -0.74000
O 	O 	0.00000 0.17450 0.43560 -0.36600
O 	O 	0.00000 0.06770 0.32270 -0.42400
O 	O 	-0.00000 0.09160 0.25590 -0.54100
C 	C 	0.00000 0.14140 0.31480 -0.12600
C 	C 	-0.00000 0.15320 0.35760 0.04000
H 	H 	-0.00000 0.13200 0.37920 0.04100
C 	C 	0.00000 0.19620 0.36870 -0.10800
C 	C 	-0.00000 0.22730 0.33710 -0.04400
H 	H 	-0.00000 0.25660 0.34470 -0.02800
C 	C 	0.00000 0.21550 0.29430 0.01900
C 	C 	0.00000 0.17250 0.28320 -0.03300
H 	H 	0.00000 0.16440 0.25400 0.01000
C 	C 	0.00000 0.09660 0.29640 0.39400
C 	C 	0.00000 0.21430 0.41510 0.29000
N 	N 	0.00000 0.25610 0.26870 -0.11100
O 	O 	0.00000 0.24740 0.44020 -0.71900
O 	O 	0.50000 0.67450 0.43560 -0.37600
O 	O 	0.50000 0.56770 0.32270 -0.43600
O 	O 	0.50000 0.59160 0.25590 -0.55500
C 	C 	0.50000 0.64140 0.31480 -0.13800
C 	C 	0.50000 0.65320 0.35760 0.04400
H 	H 	0.50000 0.63200 0.37920 0.03300
C 	C 	0.50000 0.69620 0.36870 -0.11900
C 	C 	0.50000 0.72730 0.33710 -0.04100
H 	H 	0.50000 0.75660 0.34470 -0.03700
C 	C 	0.50000 0.71550 0.29430 0.00900
C 	C 	0.50000 0.67250 0.28320 -0.02900
H 	H 	0.50000 0.66440 0.25400 0.00300
C 	C 	0.50000 0.59660 0.29640 0.39600
C 	C 	0.50000 0.71430 0.41510 0.28800
N 	N 	0.50000 0.75610 0.26870 -0.11600
O 	O 	0.50000 0.74740 0.44020 -0.73500
O 	O 	0.50000 0.17450 0.93560 -0.40000
O 	O 	0.50000 0.06770 0.82270 -0.44000
O 	O 	0.50000 0.09160 0.75590 -0.55600
C 	C 	0.50000 0.14140 0.81480 -0.14100
C 	C 	0.50000 0.15320 0.85760 0.04500
H 	H 	0.50000 0.13200 0.87920 0.02700
C 	C 	0.50000 0.19620 0.86870 -0.12500
C 	C 	0.50000 0.22730 0.83710 -0.04100
H 	H 	0.50000 0.25660 0.84470 -0.03900
C 	C 	0.50000 0.21550 0.79430 0.00700
C 	C 	0.50000 0.17250 0.78320 -0.02800
H 	H 	0.50000 0.16440 0.75400 0.00200
C 	C 	0.50000 0.09660 0.79640 0.39600
C 	C 	0.50000 0.21430 0.91510 0.28600
N 	N 	0.50000 0.25610 0.76870 -0.11600
O 	O 	0.50000 0.24740 0.94020 -0.75300
O 	O 	-0.00000 0.67450 0.06440 -0.36500
O 	O 	0.00000 0.56770 0.17730 -0.42400
O 	O 	0.00000 0.59160 0.24410 -0.54300
C 	C 	0.00000 0.64140 0.18520 -0.12800
C 	C 	-0.00000 0.65320 0.14240 0.04100
H 	H 	0.00000 0.63200 0.12080 0.04100
C 	C 	0.00000 0.69620 0.13130 -0.11000
C 	C 	0.00000 0.72730 0.16290 -0.04400
H 	H 	-0.00000 0.75660 0.15530 -0.02900
C 	C 	-0.00000 0.71550 0.20570 0.01700
C 	C 	0.00000 0.67250 0.21680 -0.03200
H 	H 	0.00000 0.66440 0.24600 0.00800
C 	C 	0.00000 0.59660 0.20360 0.39500
C 	C 	-0.00000 0.71430 0.08490 0.28900
N 	N 	-0.00000 0.75610 0.23130 -0.11300
O 	O 	-0.00000 0.74740 0.05980 -0.72100
O 	O 	-0.00000 0.17450 0.56440 -0.36600
O 	O 	-0.00000 0.06770 0.67730 -0.42400
O 	O 	0.00000 0.09160 0.74410 -0.54400
C 	C 	0.00000 0.14140 0.68520 -0.12800
C 	C 	0.00000 0.15320 0.64240 0.04100
H 	H 	0.00000 0.13200 0.62080 0.04100
C 	C 	0.00000 0.19620 0.63130 -0.10900
C 	C 	0.00000 0.22730 0.66290 -0.04400
H 	H 	0.00000 0.25660 0.65530 -0.02800
C 	C 	0.00000 0.21550 0.70570 0.01700
C 	C 	0.00000 0.17250 0.71680 -0.03200
H 	H 	0.00000 0.16440 0.74600 0.00700
C 	C 	0.00000 0.09660 0.70360 0.39400
C 	C 	-0.00000 0.21430 0.58490 0.29000
N 	N 	-0.00000 0.25610 0.73130 -0.11200
O 	O 	0.00000 0.24740 0.55980 -0.71900
O 	O 	0.50000 0.67450 0.56440 -0.37600
O 	O 	0.50000 0.56770 0.67730 -0.43700
O 	O 	0.50000 0.59160 0.74410 -0.55900
C 	C 	0.50000 0.64140 0.68520 -0.13900
C 	C 	0.50000 0.65320 0.64240 0.04400
H 	H 	0.50000 0.63200 0.62080 0.03300
C 	C 	0.50000 0.69620 0.63130 -0.12000
C 	C 	0.50000 0.72730 0.66290 -0.04100
H 	H 	0.50000 0.75660 0.65530 -0.03800
C 	C 	0.50000 0.71550 0.70570 0.00700
C 	C 	0.50000 0.67250 0.71680 -0.02800
H 	H 	0.50000 0.66440 0.74600 -0.00000
C 	C 	0.50000 0.59660 0.70360 0.39700
C 	C 	0.50000 0.71430 0.58490 0.28800
N 	N 	0.50000 0.75610 0.73130 -0.11600
O 	O 	0.50000 0.74740 0.55980 -0.73500
O 	O 	0.50000 0.17450 0.06440 -0.37400
O 	O 	0.50000 0.06770 0.17730 -0.43400
O 	O 	0.50000 0.09160 0.24410 -0.55500
C 	C 	0.50000 0.14140 0.18520 -0.13500
C 	C 	0.50000 0.15320 0.14240 0.04200
H 	H 	0.50000 0.13200 0.12080 0.03600
C 	C 	0.50000 0.19620 0.13130 -0.11600
C 	C 	0.50000 0.22730 0.16290 -0.04300
H 	H 	0.50000 0.25660 0.15530 -0.03300
C 	C 	0.50000 0.21550 0.20570 0.01200
C 	C 	0.50000 0.17250 0.21680 -0.03000
H 	H 	0.50000 0.16440 0.24600 0.00400
C 	C 	0.50000 0.09660 0.20360 0.39500
C 	C 	0.50000 0.21430 0.08490 0.28800
N 	N 	0.50000 0.25610 0.23130 -0.11400
O 	O 	0.50000 0.24740 0.05980 -0.73400
O 	O 	-0.00000 0.32550 0.93560 -0.39100
O 	O 	-0.00000 0.43230 0.82270 -0.42900
O 	O 	-0.00000 0.40840 0.75590 -0.54400
C 	C 	0.00000 0.35860 0.81480 -0.13300
C 	C 	0.00000 0.34680 0.85760 0.04300
H 	H 	0.00000 0.36800 0.87920 0.03300
C 	C 	-0.00000 0.30380 0.86870 -0.11700
C 	C 	0.00000 0.27270 0.83710 -0.04300
H 	H 	0.00000 0.24340 0.84470 -0.03200
C 	C 	0.00000 0.28450 0.79430 0.01500
C 	C 	0.00000 0.32750 0.78320 -0.03000
H 	H 	0.00000 0.33560 0.75400 0.00700
C 	C 	-0.00000 0.40340 0.79640 0.39600
C 	C 	0.00000 0.28570 0.91510 0.28800
N 	N 	0.00000 0.24390 0.76870 -0.11300
O 	O 	0.00000 0.25260 0.94020 -0.73800
O 	O 	0.00000 0.82550 0.43560 -0.37100
O 	O 	-0.00000 0.93230 0.32270 -0.45100
O 	O 	-0.00000 0.90840 0.25590 -0.55600
C 	C 	0.00000 0.85860 0.31480 -0.13700
C 	C 	0.00000 0.84680 0.35760 0.04400
H 	H 	-0.00000 0.86800 0.37920 0.03300
C 	C 	0.00000 0.80380 0.36870 -0.11400
C 	C 	-0.00000 0.77270 0.33710 -0.04200
H 	H 	0.00000 0.74340 0.34470 -0.02900
C 	C 	0.00000 0.78450 0.29430 0.01400
C 	C 	0.00000 0.82750 0.28320 -0.02900
H 	H 	-0.00000 0.83560 0.25400 0.00500
C 	C 	-0.00000 0.90340 0.29640 0.39700
C 	C 	0.00000 0.78570 0.41510 0.29100
N 	N 	0.00000 0.74390 0.26870 -0.11200
O 	O 	-0.00000 0.75260 0.44020 -0.72000
O 	O 	0.50000 0.32550 0.43560 -0.37600
O 	O 	0.50000 0.43230 0.32270 -0.43600
O 	O 	0.50000 0.40840 0.25590 -0.55500
C 	C 	0.50000 0.35860 0.31480 -0.13700
C 	C 	0.50000 0.34680 0.35760 0.04300
H 	H 	0.50000 0.36800 0.37920 0.03300
C 	C 	0.50000 0.30380 0.36870 -0.11800
C 	C 	0.50000 0.27270 0.33710 -0.04200
H 	H 	0.50000 0.24340 0.34470 -0.03400
C 	C 	0.50000 0.28450 0.29430 0.01100
C 	C 	0.50000 0.32750 0.28320 -0.02900
H 	H 	0.50000 0.33560 0.25400 0.00400
C 	C 	0.50000 0.40340 0.29640 0.39600
C 	C 	0.50000 0.28570 0.41510 0.28900
N 	N 	0.50000 0.24390 0.26870 -0.11400
O 	O 	0.50000 0.25260 0.44020 -0.73300
O 	O 	0.50000 0.82550 0.93560 -0.40500
O 	O 	0.50000 0.93230 0.82270 -0.46800
O 	O 	0.50000 0.90840 0.75590 -0.57200
C 	C 	0.50000 0.85860 0.81480 -0.15200
C 	C 	0.50000 0.84680 0.85760 0.04800
H 	H 	0.50000 0.86800 0.87920 0.01900
C 	C 	0.50000 0.80380 0.86870 -0.13100
C 	C 	0.50000 0.77270 0.83710 -0.03900
H 	H 	0.50000 0.74340 0.84470 -0.04100
C 	C 	0.50000 0.78450 0.79430 0.00200
C 	C 	0.50000 0.82750 0.78320 -0.02500
H 	H 	0.50000 0.83560 0.75400 -0.00300
C 	C 	0.50000 0.90340 0.79640 0.40000
C 	C 	0.50000 0.78570 0.91510 0.28700
N 	N 	0.50000 0.74390 0.76870 -0.11600
O 	O 	0.50000 0.75260 0.94020 -0.75400
O 	O 	0.06440 -0.00000 0.32550 -0.36500
O 	O 	0.17730 0.00000 0.43230 -0.42400
O 	O 	0.24410 0.00000 0.40840 -0.54300
C 	C 	0.18520 -0.00000 0.35860 -0.12700
C 	C 	0.14240 0.00000 0.34680 0.04000
H 	H 	0.12080 0.00000 0.36800 0.04100
C 	C 	0.13130 -0.00000 0.30380 -0.10800
C 	C 	0.16290 0.00000 0.27270 -0.04400
H 	H 	0.15530 0.00000 0.24340 -0.02600
C 	C 	0.20570 0.00000 0.28450 0.01900
C 	C 	0.21680 0.00000 0.32750 -0.03200
H 	H 	0.24600 0.00000 0.33560 0.00900
C 	C 	0.20360 0.00000 0.40340 0.39500
C 	C 	0.08490 0.00000 0.28570 0.29000
N 	N 	0.23130 0.00000 0.24390 -0.11100
O 	O 	0.05980 0.00000 0.25260 -0.71900
O 	O 	0.06440 0.50000 0.82550 -0.37900
O 	O 	0.17730 0.50000 0.93230 -0.46200
O 	O 	0.24410 0.50000 0.90840 -0.57000
C 	C 	0.18520 0.50000 0.85860 -0.14600
C 	C 	0.14240 0.50000 0.84680 0.04600
H 	H 	0.12080 0.50000 0.86800 0.02700
C 	C 	0.13130 0.50000 0.80380 -0.12200
C 	C 	0.16290 0.50000 0.77270 -0.04000
H 	H 	0.15530 0.50000 0.74340 -0.03500
C 	C 	0.20570 0.50000 0.78450 0.00700
C 	C 	0.21680 0.50000 0.82750 -0.02700
H 	H 	0.24600 0.50000 0.83560 -0.00100
C 	C 	0.20360 0.50000 0.90340 0.39800
C 	C 	0.08490 0.50000 0.78570 0.28900
N 	N 	0.23130 0.50000 0.74390 -0.11400
O 	O 	0.05980 0.50000 0.75260 -0.73500
O 	O 	0.56440 0.00000 0.82550 -0.37100
O 	O 	0.67730 0.00000 0.93230 -0.45200
O 	O 	0.74410 0.00000 0.90840 -0.56000
C 	C 	0.68520 0.00000 0.85860 -0.13900
C 	C 	0.64240 0.00000 0.84680 0.04400
H 	H 	0.62080 0.00000 0.86800 0.03200
C 	C 	0.63130 0.00000 0.80380 -0.11500
C 	C 	0.66290 0.00000 0.77270 -0.04100
H 	H 	0.65530 0.00000 0.74340 -0.03000
C 	C 	0.70570 -0.00000 0.78450 0.01200
C 	C 	0.71680 0.00000 0.82750 -0.02800
H 	H 	0.74600 0.00000 0.83560 0.00200
C 	C 	0.70360 0.00000 0.90340 0.39800
C 	C 	0.58490 0.00000 0.78570 0.29100
N 	N 	0.73130 0.00000 0.74390 -0.11200
O 	O 	0.55980 0.00000 0.75260 -0.72000
O 	O 	0.56440 0.50000 0.32550 -0.37600
O 	O 	0.67730 0.50000 0.43230 -0.43700
O 	O 	0.74410 0.50000 0.40840 -0.55800
C 	C 	0.68520 0.50000 0.35860 -0.13800
C 	C 	0.64240 0.50000 0.34680 0.04400
H 	H 	0.62080 0.50000 0.36800 0.03300
C 	C 	0.63130 0.50000 0.30380 -0.11900
C 	C 	0.66290 0.50000 0.27270 -0.04100
H 	H 	0.65530 0.50000 0.24340 -0.03400
C 	C 	0.70570 0.50000 0.28450 0.00900
C 	C 	0.71680 0.50000 0.32750 -0.02900
H 	H 	0.74600 0.50000 0.33560 0.00100
C 	C 	0.70360 0.50000 0.40340 0.39700
C 	C 	0.58490 0.50000 0.28570 0.28900
N 	N 	0.73130 0.50000 0.24390 -0.11500
O 	O 	0.55980 0.50000 0.25260 -0.73400
O 	O 	0.93560 0.00000 0.67450 -0.39100
O 	O 	0.82270 0.00000 0.56770 -0.42900
O 	O 	0.75590 0.00000 0.59160 -0.54400
C 	C 	0.81480 0.00000 0.64140 -0.13400
C 	C 	0.85760 0.00000 0.65320 0.04300
H 	H 	0.87920 0.00000 0.63200 0.03200
C 	C 	0.86870 0.00000 0.69620 -0.11800
C 	C 	0.83710 0.00000 0.72730 -0.04200
H 	H 	0.84470 0.00000 0.75660 -0.03500
C 	C 	0.79430 -0.00000 0.71550 0.01300
C 	C 	0.78320 0.00000 0.67250 -0.03000
H 	H 	0.75400 0.00000 0.66440 0.00700
C 	C 	0.79640 0.00000 0.59660 0.39600
C 	C 	0.91510 0.00000 0.71430 0.28700
N 	N 	0.76870 -0.00000 0.75610 -0.11400
O 	O 	0.94020 0.00000 0.74740 -0.74000
O 	O 	0.93560 0.50000 0.17450 -0.40000
O 	O 	0.82270 0.50000 0.06770 -0.44000
O 	O 	0.75590 0.50000 0.09160 -0.55600
C 	C 	0.81480 0.50000 0.14140 -0.14100
C 	C 	0.85760 0.50000 0.15320 0.04500
H 	H 	0.87920 0.50000 0.13200 0.02700
C 	C 	0.86870 0.50000 0.19620 -0.12500
C 	C 	0.83710 0.50000 0.22730 -0.04100
H 	H 	0.84470 0.50000 0.25660 -0.03900
C 	C 	0.79430 0.50000 0.21550 0.00700
C 	C 	0.78320 0.50000 0.17250 -0.02800
H 	H 	0.75400 0.50000 0.16440 0.00200
C 	C 	0.79640 0.50000 0.09660 0.39600
C 	C 	0.91510 0.50000 0.21430 0.28600
N 	N 	0.76870 0.50000 0.25610 -0.11600
O 	O 	0.94020 0.50000 0.24740 -0.75300
O 	O 	0.43560 0.00000 0.17450 -0.36600
O 	O 	0.32270 -0.00000 0.06770 -0.42400
O 	O 	0.25590 0.00000 0.09160 -0.54100
C 	C 	0.31480 0.00000 0.14140 -0.12600
C 	C 	0.35760 0.00000 0.15320 0.04000
H 	H 	0.37920 -0.00000 0.13200 0.04100
C 	C 	0.36870 -0.00000 0.19620 -0.10800
C 	C 	0.33710 0.00000 0.22730 -0.04400
H 	H 	0.34470 0.00000 0.25660 -0.02800
C 	C 	0.29430 0.00000 0.21550 0.01900
C 	C 	0.28320 0.00000 0.17250 -0.03300
H 	H 	0.25400 0.00000 0.16440 0.01000
C 	C 	0.29640 0.00000 0.09660 0.39400
C 	C 	0.41510 0.00000 0.21430 0.29000
N 	N 	0.26870 0.00000 0.25610 -0.11100
O 	O 	0.44020 0.00000 0.24740 -0.71900
O 	O 	0.43560 0.50000 0.67450 -0.37600
O 	O 	0.32270 0.50000 0.56770 -0.43600
O 	O 	0.25590 0.50000 0.59160 -0.55500
C 	C 	0.31480 0.50000 0.64140 -0.13800
C 	C 	0.35760 0.50000 0.65320 0.04400
H 	H 	0.37920 0.50000 0.63200 0.03300
C 	C 	0.36870 0.50000 0.69620 -0.11900
C 	C 	0.33710 0.50000 0.72730 -0.04100
H 	H 	0.34470 0.50000 0.75660 -0.03700
C 	C 	0.29430 0.50000 0.71550 0.00900
C 	C 	0.28320 0.50000 0.67250 -0.02900
H 	H 	0.25400 0.50000 0.66440 0.00300
C 	C 	0.29640 0.50000 0.59660 0.39600
C 	C 	0.41510 0.50000 0.71430 0.28800
N 	N 	0.26870 0.50000 0.75610 -0.11600
O 	O 	0.44020 0.50000 0.74740 -0.73500
O 	O 	0.06440 0.00000 0.67450 -0.36500
O 	O 	0.17730 0.00000 0.56770 -0.42400
O 	O 	0.24410 0.00000 0.59160 -0.54300
C 	C 	0.18520 0.00000 0.64140 -0.12800
C 	C 	0.14240 0.00000 0.65320 0.04100
H 	H 	0.12080 0.00000 0.63200 0.04100
C 	C 	0.13130 0.00000 0.69620 -0.11000
C 	C 	0.16290 0.00000 0.72730 -0.04400
H 	H 	0.15530 0.00000 0.75660 -0.02900
C 	C 	0.20570 -0.00000 0.71550 0.01700
C 	C 	0.21680 0.00000 0.67250 -0.03200
H 	H 	0.24600 0.00000 0.66440 0.00800
C 	C 	0.20360 0.00000 0.59660 0.39500
C 	C 	0.08490 0.00000 0.71430 0.28900
N 	N 	0.23130 -0.00000 0.75610 -0.11300
O 	O 	0.05980 0.00000 0.74740 -0.72100
O 	O 	0.06440 0.50000 0.17450 -0.37400
O 	O 	0.17730 0.50000 0.06770 -0.43400
O 	O 	0.24410 0.50000 0.09160 -0.55500
C 	C 	0.18520 0.50000 0.14140 -0.13500
C 	C 	0.14240 0.50000 0.15320 0.04200
H 	H 	0.12080 0.50000 0.13200 0.03600
C 	C 	0.13130 0.50000 0.19620 -0.11600
C 	C 	0.16290 0.50000 0.22730 -0.04300
H 	H 	0.15530 0.50000 0.25660 -0.03300
C 	C 	0.20570 0.50000 0.21550 0.01200
C 	C 	0.21680 0.50000 0.17250 -0.03000
H 	H 	0.24600 0.50000 0.16440 0.00400
C 	C 	0.20360 0.50000 0.09660 0.39500
C 	C 	0.08490 0.50000 0.21430 0.28800
N 	N 	0.23130 0.50000 0.25610 -0.11400
O 	O 	0.05980 0.50000 0.24740 -0.73400
O 	O 	0.56440 0.00000 0.17450 -0.36600
O 	O 	0.67730 -0.00000 0.06770 -0.42400
O 	O 	0.74410 0.00000 0.09160 -0.54400
C 	C 	0.68520 0.00000 0.14140 -0.12800
C 	C 	0.64240 0.00000 0.15320 0.04100
H 	H 	0.62080 -0.00000 0.13200 0.04100
C 	C 	0.63130 -0.00000 0.19620 -0.10900
C 	C 	0.66290 0.00000 0.22730 -0.04400
H 	H 	0.65530 0.00000 0.25660 -0.02800
C 	C 	0.70570 0.00000 0.21550 0.01700
C 	C 	0.71680 0.00000 0.17250 -0.03200
H 	H 	0.74600 0.00000 0.16440 0.00700
C 	C 	0.70360 0.00000 0.09660 0.39400
C 	C 	0.58490 0.00000 0.21430 0.29000
N 	N 	0.73130 0.00000 0.25610 -0.11200
O 	O 	0.55980 0.00000 0.24740 -0.71900
O 	O 	0.56440 0.50000 0.67450 -0.37600
O 	O 	0.67730 0.50000 0.56770 -0.43700
O 	O 	0.74410 0.50000 0.59160 -0.55900
C 	C 	0.68520 0.50000 0.64140 -0.13900
C 	C 	0.64240 0.50000 0.65320 0.04400
H 	H 	0.62080 0.50000 0.63200 0.03300
C 	C 	0.63130 0.50000 0.69620 -0.12000
C 	C 	0.66290 0.50000 0.72730 -0.04100
H 	H 	0.65530 0.50000 0.75660 -0.03800
C 	C 	0.70570 0.50000 0.71550 0.00700
C 	C 	0.71680 0.50000 0.67250 -0.02800
H 	H 	0.74600 0.50000 0.66440 -0.00000
C 	C 	0.70360 0.50000 0.59660 0.39700
C 	C 	0.58490 0.50000 0.71430 0.28800
N 	N 	0.73130 0.50000 0.75610 -0.11600
O 	O 	0.55980 0.50000 0.74740 -0.73500
O 	O 	0.93560 -0.00000 0.32550 -0.39100
O 	O 	0.82270 0.00000 0.43230 -0.42900
O 	O 	0.75590 0.00000 0.40840 -0.54400
C 	C 	0.81480 -0.00000 0.35860 -0.13300
C 	C 	0.85760 0.00000 0.34680 0.04300
H 	H 	0.87920 0.00000 0.36800 0.03300
C 	C 	0.86870 -0.00000 0.30380 -0.11700
C 	C 	0.83710 0.00000 0.27270 -0.04300
H 	H 	0.84470 0.00000 0.24340 -0.03200
C 	C 	0.79430 0.00000 0.28450 0.01500
C 	C 	0.78320 0.00000 0.32750 -0.03000
H 	H 	0.75400 0.00000 0.33560 0.00700
C 	C 	0.79640 0.00000 0.40340 0.39600
C 	C 	0.91510 0.00000 0.28570 0.28800
N 	N 	0.76870 0.00000 0.24390 -0.11300
O 	O 	0.94020 0.00000 0.25260 -0.73800
O 	O 	0.93560 0.50000 0.82550 -0.40500
O 	O 	0.82270 0.50000 0.93230 -0.46800
O 	O 	0.75590 0.50000 0.90840 -0.57200
C 	C 	0.81480 0.50000 0.85860 -0.15200
C 	C 	0.85760 0.50000 0.84680 0.04800
H 	H 	0.87920 0.50000 0.86800 0.01900
C 	C 	0.86870 0.50000 0.80380 -0.13100
C 	C 	0.83710 0.50000 0.77270 -0.03900
H 	H 	0.84470 0.50000 0.74340 -0.04100
C 	C 	0.79430 0.50000 0.78450 0.00200
C 	C 	0.78320 0.50000 0.82750 -0.02500
H 	H 	0.75400 0.50000 0.83560 -0.00300
C 	C 	0.79640 0.50000 0.90340 0.40000
C 	C 	0.91510 0.50000 0.78570 0.28700
N 	N 	0.76870 0.50000 0.74390 -0.11600
O 	O 	0.94020 0.50000 0.75260 -0.75400
O 	O 	0.43560 0.00000 0.82550 -0.37100
O 	O 	0.32270 0.00000 0.93230 -0.45100
O 	O 	0.25590 0.00000 0.90840 -0.55600
C 	C 	0.31480 0.00000 0.85860 -0.13700
C 	C 	0.35760 0.00000 0.84680 0.04400
H 	H 	0.37920 0.00000 0.86800 0.03300
C 	C 	0.36870 0.00000 0.80380 -0.11400
C 	C 	0.33710 0.00000 0.77270 -0.04200
H 	H 	0.34470 0.00000 0.74340 -0.02900
C 	C 	0.29430 -0.00000 0.78450 0.01400
C 	C 	0.28320 0.00000 0.82750 -0.02900
H 	H 	0.25400 0.00000 0.83560 0.00500
C 	C 	0.29640 0.00000 0.90340 0.39700
C 	C 	0.41510 0.00000 0.78570 0.29100
N 	N 	0.26870 0.00000 0.74390 -0.11200
O 	O 	0.44020 0.00000 0.75260 -0.72000
O 	O 	0.43560 0.50000 0.32550 -0.37600
O 	O 	0.32270 0.50000 0.43230 -0.43600
O 	O 	0.25590 0.50000 0.40840 -0.55500
C 	C 	0.31480 0.50000 0.35860 -0.13700
C 	C 	0.35760 0.50000 0.34680 0.04300
H 	H 	0.37920 0.50000 0.36800 0.03300
C 	C 	0.36870 0.50000 0.30380 -0.11800
C 	C 	0.33710 0.50000 0.27270 -0.04200
H 	H 	0.34470 0.50000 0.24340 -0.03400
C 	C 	0.29430 0.50000 0.28450 0.01100
C 	C 	0.28320 0.50000 0.32750 -0.02900
H 	H 	0.25400 0.50000 0.33560 0.00400
C 	C 	0.29640 0.50000 0.40340 0.39600
C 	C 	0.41510 0.50000 0.28570 0.28900
N 	N 	0.26870 0.50000 0.24390 -0.11400
O 	O 	0.44020 0.50000 0.25260 -0.73300
