data_crystal

_cell_length_a 8.43580
_cell_length_b 10.07400
_cell_length_c 15.07900
_cell_angle_alpha 71.07100
_cell_angle_beta  87.93100
_cell_angle_gamma 67.63100

_symmetry_space_group_name_	'P 1'
_symmetry_space_group_name_H-M	'P 1'

loop_
_symmetry_equiv_pos_as_xyz
  x,y,z

loop_
_atom_site_label
_atom_site_type_symbol
_atom_site_fract_x
_atom_site_fract_y
_atom_site_fract_z
_atom_site_charge
N 	N 	0.78080 0.91250 0.60630 -0.23800
H 	H 	0.71710 0.00820 0.58430 0.13300
O 	O 	0.57530 0.32920 0.12420 -0.52100
O 	O 	0.76850 0.13130 0.09050 -0.52200
O 	O 	0.83220 0.39400 0.84580 -0.40200
O 	O 	0.76520 0.44860 0.97440 -0.47800
O 	O 	0.80270 0.09130 0.87990 -0.46100
O 	O 	0.92340 0.87490 0.00150 -0.52400
O 	O 	0.94990 0.70740 0.56750 -0.21900
C 	C 	0.72350 0.10370 0.24950 -0.11800
C 	C 	0.84920 0.95710 0.28020 0.02700
H 	H 	0.90840 0.91330 0.23690 0.04200
C 	C 	0.88590 0.87650 0.37580 -0.07200
H 	H 	0.96990 0.77790 0.39600 0.07600
C 	C 	0.80200 0.93760 0.44170 -0.01100
C 	C 	0.67540 0.08130 0.40960 -0.07200
H 	H 	0.61410 0.12400 0.45280 0.05500
C 	C 	0.63690 0.16400 0.31470 0.03200
H 	H 	0.55120 0.26180 0.29480 0.03500
C 	C 	0.80420 0.84050 0.70650 0.13400
C 	C 	0.80690 0.69590 0.74820 -0.10000
H 	H 	0.80170 0.63930 0.71120 0.10000
C 	C 	0.81740 0.63470 0.84620 -0.03500
C 	C 	0.83530 0.71530 0.90210 -0.01100
H 	H 	0.84740 0.67290 0.96750 0.07300
C 	C 	0.83460 0.86090 0.85840 -0.06600
C 	C 	0.81570 0.92340 0.76140 -0.08900
H 	H 	0.81070 0.02200 0.73280 0.07900
C 	C 	0.68550 0.19550 0.14590 0.41700
C 	C 	0.80390 0.48440 0.89060 0.31000
C 	C 	0.85720 0.94680 0.91830 0.42600
C 	C 	0.85100 0.84190 0.54340 0.20500
Zn	Zn	0.81853 0.21036 0.95824 1.22900
N 	N 	0.21920 0.08750 0.39370 -0.23700
H 	H 	0.28290 0.99180 0.41570 0.13100
O 	O 	0.42470 0.67080 0.87580 -0.48000
O 	O 	0.23150 0.86870 0.90950 -0.46200
O 	O 	0.16780 0.60600 0.15420 -0.41400
O 	O 	0.23480 0.55140 0.02560 -0.54600
O 	O 	0.19730 0.90870 0.12010 -0.44200
O 	O 	0.07660 0.12510 0.99850 -0.35600
O 	O 	0.05010 0.29260 0.43250 -0.21800
C 	C 	0.27650 0.89630 0.75050 -0.11200
C 	C 	0.15080 0.04290 0.71980 0.03000
H 	H 	0.09160 0.08670 0.76310 0.04700
C 	C 	0.11410 0.12350 0.62420 -0.07200
H 	H 	0.03010 0.22210 0.60400 0.08000
C 	C 	0.19800 0.06240 0.55830 -0.00600
C 	C 	0.32460 0.91870 0.59040 -0.07500
H 	H 	0.38590 0.87600 0.54720 0.05600
C 	C 	0.36310 0.83600 0.68530 0.03300
H 	H 	0.44880 0.73820 0.70520 0.03700
C 	C 	0.19580 0.15950 0.29350 0.14100
C 	C 	0.19310 0.30410 0.25180 -0.10500
H 	H 	0.19830 0.36070 0.28880 0.10000
C 	C 	0.18260 0.36530 0.15380 -0.04300
C 	C 	0.16470 0.28470 0.09790 -0.04100
H 	H 	0.15260 0.32710 0.03250 0.03300
C 	C 	0.16540 0.13910 0.14160 -0.02800
C 	C 	0.18430 0.07660 0.23860 -0.11100
H 	H 	0.18930 0.97800 0.26720 0.08600
C 	C 	0.31450 0.80450 0.85410 0.41100
C 	C 	0.19610 0.51560 0.10940 0.31400
C 	C 	0.14280 0.05320 0.08170 0.24800
C 	C 	0.14900 0.15810 0.45660 0.20500
Zn	Zn	0.18147 0.78964 0.04176 1.20200
Zn	Zn	0.50000 0.50000 -0.00000 1.16000
