data_crystal

_cell_length_a 19.88900
_cell_length_b 19.88900
_cell_length_c 19.78800
_cell_angle_alpha 90.00000
_cell_angle_beta  90.00000
_cell_angle_gamma 120.00000

_symmetry_space_group_name_	'P 1'
_symmetry_space_group_name_H-M	'P 1'

loop_
_symmetry_equiv_pos_as_xyz
  x,y,z

loop_
_atom_site_label
_atom_site_type_symbol
_atom_site_fract_x
_atom_site_fract_y
_atom_site_fract_z
_atom_site_charge
C 	C 	0.16700 0.30090 0.10840 0.06600
H 	H 	0.14510 0.32300 0.01280 0.04800
C 	C 	0.22640 0.42460 0.05640 0.07100
C 	C 	0.26240 0.45940 0.11360 -0.07800
H 	H 	0.29700 0.51460 0.11370 0.04600
C 	C 	0.25210 0.41730 0.17190 0.00300
H 	H 	0.27600 0.44170 0.21390 0.02600
C 	C 	0.20650 0.33290 0.16520 -0.08300
H 	H 	0.20650 0.29980 0.20050 0.05800
C 	C 	0.83367 0.63423 0.44173 0.08300
H 	H 	0.81177 0.65633 0.34613 0.06000
C 	C 	0.89307 0.75793 0.38973 0.08400
C 	C 	0.92907 0.79273 0.44693 -0.07500
H 	H 	0.96367 0.84793 0.44703 0.06600
C 	C 	0.91877 0.75063 0.50523 0.01400
H 	H 	0.94267 0.77503 0.54723 0.03900
C 	C 	0.87317 0.66623 0.49853 -0.08800
H 	H 	0.87317 0.63313 0.53383 0.06800
C 	C 	0.50033 0.96757 0.77507 0.12800
H 	H 	0.47843 0.98967 0.67947 0.12400
C 	C 	0.55973 0.09127 0.72307 0.11200
C 	C 	0.59573 0.12607 0.78027 -0.09700
H 	H 	0.63033 0.18127 0.78037 0.05400
C 	C 	0.58543 0.08397 0.83857 -0.01900
H 	H 	0.60933 0.10837 0.88057 0.02800
C 	C 	0.53983 0.99957 0.83187 -0.06700
H 	H 	0.53983 0.96647 0.86717 0.06800
C 	C 	0.69910 0.86610 0.10840 0.07300
H 	H 	0.67700 0.82210 0.01280 0.05500
C 	C 	0.57540 0.80180 0.05640 0.07700
C 	C 	0.54060 0.80300 0.11360 -0.07800
H 	H 	0.48540 0.78240 0.11370 0.04700
C 	C 	0.58270 0.83480 0.17190 0.00800
H 	H 	0.55830 0.83430 0.21390 0.02800
C 	C 	0.66710 0.87360 0.16520 -0.08400
H 	H 	0.70020 0.90670 0.20050 0.07000
C 	C 	0.36577 0.19943 0.44173 0.08000
H 	H 	0.34367 0.15543 0.34613 0.05600
C 	C 	0.24207 0.13513 0.38973 0.07600
C 	C 	0.20727 0.13633 0.44693 -0.07100
H 	H 	0.15207 0.11573 0.44703 0.03800
C 	C 	0.24937 0.16813 0.50523 0.00300
H 	H 	0.22497 0.16763 0.54723 0.02300
C 	C 	0.33377 0.20693 0.49853 -0.08800
H 	H 	0.36687 0.24003 0.53383 0.06100
C 	C 	0.03243 0.53277 0.77507 0.03900
H 	H 	0.01033 0.48877 0.67947 0.00200
C 	C 	0.90873 0.46847 0.72307 0.05400
C 	C 	0.87393 0.46967 0.78027 -0.08100
H 	H 	0.81873 0.44907 0.78037 0.04900
C 	C 	0.91603 0.50147 0.83857 0.04800
H 	H 	0.89163 0.50097 0.88057 0.02100
C 	C 	0.00043 0.54027 0.83187 -0.12600
H 	H 	0.03353 0.57337 0.86717 0.06500
C 	C 	0.13390 0.83300 0.10840 0.10300
H 	H 	0.17790 0.85490 0.01280 0.06900
C 	C 	0.19820 0.77360 0.05640 0.07500
C 	C 	0.19700 0.73760 0.11360 -0.10500
H 	H 	0.21760 0.70300 0.11370 0.05400
C 	C 	0.16520 0.74790 0.17190 0.02600
H 	H 	0.16570 0.72400 0.21390 0.01600
C 	C 	0.12640 0.79350 0.16520 -0.11900
H 	H 	0.09330 0.79350 0.20050 0.06300
C 	C 	0.80057 0.16633 0.44173 0.08700
H 	H 	0.84457 0.18823 0.34613 0.07100
C 	C 	0.86487 0.10693 0.38973 0.08800
C 	C 	0.86367 0.07093 0.44693 -0.12300
H 	H 	0.88427 0.03633 0.44703 0.05000
C 	C 	0.83187 0.08123 0.50523 0.02700
H 	H 	0.83237 0.05733 0.54723 0.00400
C 	C 	0.79307 0.12683 0.49853 -0.11500
H 	H 	0.75997 0.12683 0.53383 0.06400
C 	C 	0.46723 0.49967 0.77507 0.08400
H 	H 	0.51123 0.52157 0.67947 0.06300
C 	C 	0.53153 0.44027 0.72307 0.08300
C 	C 	0.53033 0.40427 0.78027 -0.09100
H 	H 	0.55093 0.36967 0.78037 0.05200
C 	C 	0.49853 0.41457 0.83857 0.01600
H 	H 	0.49903 0.39067 0.88057 0.02400
C 	C 	0.45973 0.46017 0.83187 -0.09700
H 	H 	0.42663 0.46017 0.86717 0.06600
C 	C 	0.30090 0.16700 0.89160 0.07200
H 	H 	0.32300 0.14510 0.98720 0.06000
C 	C 	0.42460 0.22640 0.94360 0.09000
C 	C 	0.45940 0.26240 0.88640 -0.08400
H 	H 	0.51460 0.29700 0.88630 0.05100
C 	C 	0.41730 0.25210 0.82810 0.00900
H 	H 	0.44170 0.27600 0.78610 0.02400
C 	C 	0.33290 0.20650 0.83480 -0.08700
H 	H 	0.29980 0.20650 0.79950 0.06000
C 	C 	0.96757 0.50033 0.22493 0.12800
H 	H 	0.98967 0.47843 0.32053 0.12400
C 	C 	0.09127 0.55973 0.27693 0.11200
C 	C 	0.12607 0.59573 0.21973 -0.09700
H 	H 	0.18127 0.63033 0.21963 0.05400
C 	C 	0.08397 0.58543 0.16143 -0.02000
H 	H 	0.10837 0.60933 0.11943 0.02400
C 	C 	0.99957 0.53983 0.16813 -0.06700
H 	H 	0.96647 0.53983 0.13283 0.06400
C 	C 	0.63423 0.83367 0.55827 0.08300
H 	H 	0.65633 0.81177 0.65387 0.06000
C 	C 	0.75793 0.89307 0.61027 0.08400
C 	C 	0.79273 0.92907 0.55307 -0.07500
H 	H 	0.84793 0.96367 0.55297 0.06700
C 	C 	0.75063 0.91877 0.49477 0.01400
H 	H 	0.77503 0.94267 0.45277 0.04000
C 	C 	0.66623 0.87317 0.50147 -0.08700
H 	H 	0.63313 0.87317 0.46617 0.06800
C 	C 	0.86610 0.69910 0.89160 0.07900
H 	H 	0.82210 0.67700 0.98720 0.06500
C 	C 	0.80180 0.57540 0.94360 0.09200
C 	C 	0.80300 0.54060 0.88640 -0.08500
H 	H 	0.78240 0.48540 0.88630 0.05200
C 	C 	0.83480 0.58270 0.82810 0.01400
H 	H 	0.83430 0.55830 0.78610 0.02600
C 	C 	0.87360 0.66710 0.83480 -0.08700
H 	H 	0.90670 0.70020 0.79950 0.07100
C 	C 	0.53277 0.03243 0.22493 0.03700
H 	H 	0.48877 0.01033 0.32053 -0.00000
C 	C 	0.46847 0.90873 0.27693 0.05300
C 	C 	0.46967 0.87393 0.21973 -0.08200
H 	H 	0.44907 0.81873 0.21963 0.04900
C 	C 	0.50147 0.91603 0.16143 0.05000
H 	H 	0.50097 0.89163 0.11943 0.01600
C 	C 	0.54027 0.00043 0.16813 -0.12800
H 	H 	0.57337 0.03353 0.13283 0.06100
C 	C 	0.19943 0.36577 0.55827 0.08000
H 	H 	0.15543 0.34367 0.65387 0.05600
C 	C 	0.13513 0.24207 0.61027 0.07600
C 	C 	0.13633 0.20727 0.55307 -0.07200
H 	H 	0.11573 0.15207 0.55297 0.03800
C 	C 	0.16813 0.24937 0.49477 0.00300
H 	H 	0.16763 0.22497 0.45277 0.02300
C 	C 	0.20693 0.33377 0.50147 -0.08800
H 	H 	0.24003 0.36687 0.46617 0.06100
C 	C 	0.83300 0.13390 0.89160 0.10800
H 	H 	0.85490 0.17790 0.98720 0.07900
C 	C 	0.77360 0.19820 0.94360 0.09100
C 	C 	0.73760 0.19700 0.88640 -0.11100
H 	H 	0.70300 0.21760 0.88630 0.05900
C 	C 	0.74790 0.16520 0.82810 0.03000
H 	H 	0.72400 0.16570 0.78610 0.01500
C 	C 	0.79350 0.12640 0.83480 -0.12200
H 	H 	0.79350 0.09330 0.79950 0.06400
C 	C 	0.49967 0.46723 0.22493 0.08400
H 	H 	0.52157 0.51123 0.32053 0.06300
C 	C 	0.44027 0.53153 0.27693 0.08300
C 	C 	0.40427 0.53033 0.21973 -0.09100
H 	H 	0.36967 0.55093 0.21963 0.05200
C 	C 	0.41457 0.49853 0.16143 0.01600
H 	H 	0.39067 0.49903 0.11943 0.02000
C 	C 	0.46017 0.45973 0.16813 -0.09800
H 	H 	0.46017 0.42663 0.13283 0.06300
C 	C 	0.16633 0.80057 0.55827 0.08700
H 	H 	0.18823 0.84457 0.65387 0.07100
C 	C 	0.10693 0.86487 0.61027 0.08800
C 	C 	0.07093 0.86367 0.55307 -0.12300
H 	H 	0.03633 0.88427 0.55297 0.05000
C 	C 	0.08123 0.83187 0.49477 0.02700
H 	H 	0.05733 0.83237 0.45277 0.00500
C 	C 	0.12683 0.79307 0.50147 -0.11500
H 	H 	0.12683 0.75997 0.46617 0.06400
C 	C 	0.83300 0.69910 0.89160 0.09900
H 	H 	0.85490 0.67700 0.98720 0.07500
C 	C 	0.77360 0.57540 0.94360 0.09200
C 	C 	0.73760 0.54060 0.88640 -0.10200
H 	H 	0.70300 0.48540 0.88630 0.05700
C 	C 	0.74790 0.58270 0.82810 0.02600
H 	H 	0.72400 0.55830 0.78610 0.01900
C 	C 	0.79350 0.66710 0.83480 -0.10900
H 	H 	0.79350 0.70020 0.79950 0.07000
C 	C 	0.49967 0.03243 0.22493 0.03700
H 	H 	0.52157 0.01033 0.32053 0.00000
C 	C 	0.44027 0.90873 0.27693 0.05100
C 	C 	0.40427 0.87393 0.21973 -0.08200
H 	H 	0.36967 0.81873 0.21963 0.04900
C 	C 	0.41457 0.91603 0.16143 0.05200
H 	H 	0.39067 0.89163 0.11943 0.01600
C 	C 	0.46017 0.00043 0.16813 -0.13000
H 	H 	0.46017 0.03353 0.13283 0.06100
C 	C 	0.16633 0.36577 0.55827 0.08300
H 	H 	0.18823 0.34367 0.65387 0.06500
C 	C 	0.10693 0.24207 0.61027 0.08100
C 	C 	0.07093 0.20727 0.55307 -0.10600
H 	H 	0.03633 0.15207 0.55297 0.03500
C 	C 	0.08123 0.24937 0.49477 0.01500
H 	H 	0.05733 0.22497 0.45277 0.00400
C 	C 	0.12683 0.33377 0.50147 -0.10700
H 	H 	0.12683 0.36687 0.46617 0.06100
C 	C 	0.30090 0.13390 0.89160 0.09400
H 	H 	0.32300 0.17790 0.98720 0.07100
C 	C 	0.42460 0.19820 0.94360 0.08900
C 	C 	0.45940 0.19700 0.88640 -0.10200
H 	H 	0.51460 0.21760 0.88630 0.05600
C 	C 	0.41730 0.16520 0.82810 0.02200
H 	H 	0.44170 0.16570 0.78610 0.01700
C 	C 	0.33290 0.12640 0.83480 -0.11000
H 	H 	0.29980 0.09330 0.79950 0.05900
C 	C 	0.96757 0.46723 0.22493 0.12900
H 	H 	0.98967 0.51123 0.32053 0.12300
C 	C 	0.09127 0.53153 0.27693 0.11300
C 	C 	0.12607 0.53033 0.21973 -0.09900
H 	H 	0.18127 0.55093 0.21963 0.05400
C 	C 	0.08397 0.49853 0.16143 -0.02000
H 	H 	0.10837 0.49903 0.11943 0.02400
C 	C 	0.99957 0.45973 0.16813 -0.06600
H 	H 	0.96647 0.42663 0.13283 0.06400
C 	C 	0.63423 0.80057 0.55827 0.08700
H 	H 	0.65633 0.84457 0.65387 0.06900
C 	C 	0.75793 0.86487 0.61027 0.08900
C 	C 	0.79273 0.86367 0.55307 -0.10700
H 	H 	0.84793 0.88427 0.55297 0.06400
C 	C 	0.75063 0.83187 0.49477 0.02600
H 	H 	0.77503 0.83237 0.45277 0.02200
C 	C 	0.66623 0.79307 0.50147 -0.10500
H 	H 	0.63313 0.75997 0.46617 0.06800
C 	C 	0.86610 0.16700 0.89160 0.06500
H 	H 	0.82210 0.14510 0.98720 0.05800
C 	C 	0.80180 0.22640 0.94360 0.09100
C 	C 	0.80300 0.26240 0.88640 -0.07500
H 	H 	0.78240 0.29700 0.88630 0.04900
C 	C 	0.83480 0.25210 0.82810 0.00500
H 	H 	0.83430 0.27600 0.78610 0.02800
C 	C 	0.87360 0.20650 0.83480 -0.07500
H 	H 	0.90670 0.20650 0.79950 0.06700
C 	C 	0.53277 0.50033 0.22493 0.08300
H 	H 	0.48877 0.47843 0.32053 0.06200
C 	C 	0.46847 0.55973 0.27693 0.08300
C 	C 	0.46967 0.59573 0.21973 -0.08900
H 	H 	0.44907 0.63033 0.21963 0.05100
C 	C 	0.50147 0.58543 0.16143 0.01400
H 	H 	0.50097 0.60933 0.11943 0.02100
C 	C 	0.54027 0.53983 0.16813 -0.09600
H 	H 	0.57337 0.53983 0.13283 0.06300
C 	C 	0.19943 0.83367 0.55827 0.08000
H 	H 	0.15543 0.81177 0.65387 0.05400
C 	C 	0.13513 0.89307 0.61027 0.07800
C 	C 	0.13633 0.92907 0.55307 -0.05600
H 	H 	0.11573 0.96367 0.55297 0.05600
C 	C 	0.16813 0.91877 0.49477 0.00300
H 	H 	0.16763 0.94267 0.45277 0.04200
C 	C 	0.20693 0.87317 0.50147 -0.07900
H 	H 	0.24003 0.87317 0.46617 0.06500
C 	C 	0.69910 0.83300 0.10840 0.09400
H 	H 	0.67700 0.85490 0.01280 0.06500
C 	C 	0.57540 0.77360 0.05640 0.07700
C 	C 	0.54060 0.73760 0.11360 -0.09600
H 	H 	0.48540 0.70300 0.11370 0.05200
C 	C 	0.58270 0.74790 0.17190 0.02100
H 	H 	0.55830 0.72400 0.21390 0.02100
C 	C 	0.66710 0.79350 0.16520 -0.10700
H 	H 	0.70020 0.79350 0.20050 0.06800
C 	C 	0.36577 0.16633 0.44173 0.08300
H 	H 	0.34367 0.18823 0.34613 0.06500
C 	C 	0.24207 0.10693 0.38973 0.08100
C 	C 	0.20727 0.07093 0.44693 -0.10600
H 	H 	0.15207 0.03633 0.44703 0.03500
C 	C 	0.24937 0.08123 0.50523 0.01600
H 	H 	0.22497 0.05733 0.54723 0.00300
C 	C 	0.33377 0.12683 0.49853 -0.10700
H 	H 	0.36687 0.12683 0.53383 0.06000
C 	C 	0.03243 0.49967 0.77507 0.03900
H 	H 	0.01033 0.52157 0.67947 0.00300
C 	C 	0.90873 0.44027 0.72307 0.05300
C 	C 	0.87393 0.40427 0.78027 -0.08200
H 	H 	0.81873 0.36967 0.78037 0.04900
C 	C 	0.91603 0.41457 0.83857 0.05000
H 	H 	0.89163 0.39067 0.88057 0.02000
C 	C 	0.00043 0.46017 0.83187 -0.12700
H 	H 	0.03353 0.46017 0.86717 0.06500
C 	C 	0.13390 0.30090 0.10840 0.08800
H 	H 	0.17790 0.32300 0.01280 0.06000
C 	C 	0.19820 0.42460 0.05640 0.07200
C 	C 	0.19700 0.45940 0.11360 -0.09500
H 	H 	0.21760 0.51460 0.11370 0.05100
C 	C 	0.16520 0.41730 0.17190 0.01600
H 	H 	0.16570 0.44170 0.21390 0.01900
C 	C 	0.12640 0.33290 0.16520 -0.10700
H 	H 	0.09330 0.29980 0.20050 0.05700
C 	C 	0.80057 0.63423 0.44173 0.08700
H 	H 	0.84457 0.65633 0.34613 0.06800
C 	C 	0.86487 0.75793 0.38973 0.08900
C 	C 	0.86367 0.79273 0.44693 -0.10700
H 	H 	0.88427 0.84793 0.44703 0.06400
C 	C 	0.83187 0.75063 0.50523 0.02600
H 	H 	0.83237 0.77503 0.54723 0.02200
C 	C 	0.79307 0.66623 0.49853 -0.10500
H 	H 	0.75997 0.63313 0.53383 0.06800
C 	C 	0.46723 0.96757 0.77507 0.12900
H 	H 	0.51123 0.98967 0.67947 0.12400
C 	C 	0.53153 0.09127 0.72307 0.11300
C 	C 	0.53033 0.12607 0.78027 -0.09900
H 	H 	0.55093 0.18127 0.78037 0.05400
C 	C 	0.49853 0.08397 0.83857 -0.02000
H 	H 	0.49903 0.10837 0.88057 0.02800
C 	C 	0.45973 0.99957 0.83187 -0.06600
H 	H 	0.42663 0.96647 0.86717 0.06800
C 	C 	0.16700 0.86610 0.10840 0.05900
H 	H 	0.14510 0.82210 0.01280 0.04700
C 	C 	0.22640 0.80180 0.05640 0.07500
C 	C 	0.26240 0.80300 0.11360 -0.06800
H 	H 	0.29700 0.78240 0.11370 0.04400
C 	C 	0.25210 0.83480 0.17190 -0.00100
H 	H 	0.27600 0.83430 0.21390 0.03000
C 	C 	0.20650 0.87360 0.16520 -0.07200
H 	H 	0.20650 0.90670 0.20050 0.06600
C 	C 	0.83367 0.19943 0.44173 0.08000
H 	H 	0.81177 0.15543 0.34613 0.05400
C 	C 	0.89307 0.13513 0.38973 0.07800
C 	C 	0.92907 0.13633 0.44693 -0.05600
H 	H 	0.96367 0.11573 0.44703 0.05500
C 	C 	0.91877 0.16813 0.50523 0.00300
H 	H 	0.94267 0.16763 0.54723 0.04200
C 	C 	0.87317 0.20693 0.49853 -0.07900
H 	H 	0.87317 0.24003 0.53383 0.06500
C 	C 	0.50033 0.53277 0.77507 0.08300
H 	H 	0.47843 0.48877 0.67947 0.06200
C 	C 	0.55973 0.46847 0.72307 0.08200
C 	C 	0.59573 0.46967 0.78027 -0.08900
H 	H 	0.63033 0.44907 0.78037 0.05100
C 	C 	0.58543 0.50147 0.83857 0.01400
H 	H 	0.60933 0.50097 0.88057 0.02500
C 	C 	0.53983 0.54027 0.83187 -0.09600
H 	H 	0.53983 0.57337 0.86717 0.06600
Zn	Zn	-0.00000 0.00000 -0.00000 1.13500
Zn	Zn	0.66667 0.33333 0.33333 1.17300
Zn	Zn	0.33333 0.66667 0.66667 1.17300
Zn	Zn	-0.00000 0.00000 0.19904 1.15600
Zn	Zn	0.66667 0.33333 0.53237 1.18900
Zn	Zn	0.33333 0.66667 0.86571 1.19000
Zn	Zn	-0.00000 0.00000 0.80096 1.15700
Zn	Zn	0.66667 0.33333 0.13429 1.18800
Zn	Zn	0.33333 0.66667 0.46763 1.18900
C 	C 	0.17355 0.34710 0.05350 -0.21200
N 	N 	0.11090 0.22180 0.10440 -0.16700
C 	C 	0.08535 0.17070 0.15650 0.10300
H 	H 	0.09250 0.18500 0.20290 -0.02400
N 	N 	0.04970 0.09940 0.13480 -0.23900
N 	N 	0.05065 0.10130 0.06459 -0.24600
C 	C 	0.08735 0.17470 0.04850 0.09500
H 	H 	0.09670 0.19340 0.00340 -0.03100
N 	N 	0.23470 0.46940 0.99930 -0.17500
C 	C 	0.21915 0.43830 0.93520 0.07900
H 	H 	0.19210 0.38420 0.92570 0.00700
N 	N 	0.24750 0.49500 0.88720 -0.11100
N 	N 	0.28270 0.56540 0.92580 -0.25900
C 	C 	0.27175 0.54350 0.98290 0.21000
H 	H 	0.29050 0.58100 0.01800 -0.06700
C 	C 	0.84022 0.68043 0.38683 -0.22300
N 	N 	0.77757 0.55513 0.43773 -0.16600
C 	C 	0.75202 0.50403 0.48983 0.11300
H 	H 	0.75917 0.51833 0.53623 -0.01600
N 	N 	0.71637 0.43273 0.46813 -0.22100
N 	N 	0.71732 0.43463 0.39792 -0.22500
C 	C 	0.75402 0.50803 0.38183 0.10700
H 	H 	0.76337 0.52673 0.33673 -0.01700
N 	N 	0.90137 0.80273 0.33263 -0.17900
C 	C 	0.88582 0.77163 0.26853 0.08700
H 	H 	0.85877 0.71753 0.25903 0.00700
N 	N 	0.91417 0.82833 0.22053 -0.10300
N 	N 	0.94937 0.89873 0.25913 -0.22800
C 	C 	0.93842 0.87683 0.31623 0.17900
H 	H 	0.95717 0.91433 0.35133 -0.02000
C 	C 	0.50688 0.01377 0.72017 -0.43500
N 	N 	0.44423 0.88847 0.77107 -0.18000
C 	C 	0.41868 0.83737 0.82317 0.11600
H 	H 	0.42583 0.85167 0.86957 -0.01600
N 	N 	0.38303 0.76607 0.80147 -0.22100
N 	N 	0.38398 0.76797 0.73126 -0.22600
C 	C 	0.42068 0.84137 0.71517 0.11300
H 	H 	0.43003 0.86007 0.67007 -0.01800
N 	N 	0.56803 0.13607 0.66597 -0.19600
C 	C 	0.55248 0.10497 0.60187 0.08100
H 	H 	0.52543 0.05087 0.59237 -0.01700
N 	N 	0.58083 0.16167 0.55387 -0.11500
N 	N 	0.61603 0.23207 0.59247 -0.25500
C 	C 	0.60508 0.21017 0.64957 0.18000
H 	H 	0.62383 0.24767 0.68467 -0.04700
C 	C 	0.65290 0.82645 0.05350 -0.21600
N 	N 	0.77820 0.88910 0.10440 -0.16500
C 	C 	0.82930 0.91465 0.15650 0.11600
H 	H 	0.81500 0.90750 0.20290 -0.00900
N 	N 	0.90060 0.95030 0.13480 -0.19700
N 	N 	0.89870 0.94935 0.06459 -0.20400
C 	C 	0.82530 0.91265 0.04850 0.10900
H 	H 	0.80660 0.90330 0.00340 -0.01600
N 	N 	0.53060 0.76530 0.99930 -0.17600
C 	C 	0.56170 0.78085 0.93520 0.08300
H 	H 	0.61580 0.80790 0.92570 0.01300
N 	N 	0.50500 0.75250 0.88720 -0.10900
N 	N 	0.43460 0.71730 0.92580 -0.25900
C 	C 	0.45650 0.72825 0.98290 0.21200
H 	H 	0.41900 0.70950 0.01800 -0.06600
C 	C 	0.31957 0.15978 0.38683 -0.22100
N 	N 	0.44487 0.22243 0.43773 -0.16600
C 	C 	0.49597 0.24798 0.48983 0.11000
H 	H 	0.48167 0.24083 0.53623 -0.01800
N 	N 	0.56727 0.28363 0.46813 -0.22100
N 	N 	0.56537 0.28268 0.39792 -0.22600
C 	C 	0.49197 0.24598 0.38183 0.10400
H 	H 	0.47327 0.23663 0.33673 -0.02000
N 	N 	0.19727 0.09863 0.33263 -0.18300
C 	C 	0.22837 0.11418 0.26853 0.07200
H 	H 	0.28247 0.14123 0.25903 0.00200
N 	N 	0.17167 0.08583 0.22053 -0.12000
N 	N 	0.10127 0.05063 0.25913 -0.27300
C 	C 	0.12317 0.06158 0.31623 0.17200
H 	H 	0.08567 0.04283 0.35133 -0.07000
C 	C 	0.98623 0.49312 0.72017 -0.01200
N 	N 	0.11153 0.55577 0.77107 -0.15200
C 	C 	0.16263 0.58132 0.82317 0.10600
H 	H 	0.14833 0.57417 0.86957 -0.01500
N 	N 	0.23393 0.61697 0.80147 -0.22000
N 	N 	0.23203 0.61602 0.73126 -0.22500
C 	C 	0.15863 0.57932 0.71517 0.09800
H 	H 	0.13993 0.56997 0.67007 -0.01800
N 	N 	0.86393 0.43197 0.66597 -0.16700
C 	C 	0.89503 0.44752 0.60187 0.08000
H 	H 	0.94913 0.47457 0.59237 0.02700
N 	N 	0.83833 0.41917 0.55387 -0.10700
N 	N 	0.76793 0.38397 0.59247 -0.25300
C 	C 	0.78983 0.39492 0.64957 0.17400
H 	H 	0.75233 0.37617 0.68467 -0.04300
C 	C 	0.17355 0.82645 0.05350 -0.21500
N 	N 	0.11090 0.88910 0.10440 -0.16600
C 	C 	0.08535 0.91465 0.15650 0.11100
H 	H 	0.09250 0.90750 0.20290 -0.01500
N 	N 	0.04970 0.95030 0.13480 -0.21500
N 	N 	0.05065 0.94935 0.06459 -0.22200
C 	C 	0.08735 0.91265 0.04850 0.10300
H 	H 	0.09670 0.90330 0.00340 -0.02200
N 	N 	0.23470 0.76530 0.99930 -0.17600
C 	C 	0.21915 0.78085 0.93520 0.08100
H 	H 	0.19210 0.80790 0.92570 0.01000
N 	N 	0.24750 0.75250 0.88720 -0.11000
N 	N 	0.28270 0.71730 0.92580 -0.25900
C 	C 	0.27175 0.72825 0.98290 0.21000
H 	H 	0.29050 0.70950 0.01800 -0.06600
C 	C 	0.84022 0.15978 0.38683 -0.22200
N 	N 	0.77757 0.22243 0.43773 -0.16600
C 	C 	0.75202 0.24798 0.48983 0.11100
H 	H 	0.75917 0.24083 0.53623 -0.01700
N 	N 	0.71637 0.28363 0.46813 -0.22100
N 	N 	0.71732 0.28268 0.39792 -0.22500
C 	C 	0.75402 0.24598 0.38183 0.10600
H 	H 	0.76337 0.23663 0.33673 -0.01800
N 	N 	0.90137 0.09863 0.33263 -0.18100
C 	C 	0.88582 0.11418 0.26853 0.08100
H 	H 	0.85877 0.14123 0.25903 0.00500
N 	N 	0.91417 0.08583 0.22053 -0.11000
N 	N 	0.94937 0.05063 0.25913 -0.24800
C 	C 	0.93842 0.06158 0.31623 0.17600
H 	H 	0.95717 0.04283 0.35133 -0.04300
C 	C 	0.50688 0.49312 0.72017 -0.22200
N 	N 	0.44423 0.55577 0.77107 -0.16600
C 	C 	0.41868 0.58132 0.82317 0.11100
H 	H 	0.42583 0.57417 0.86957 -0.01500
N 	N 	0.38303 0.61697 0.80147 -0.22100
N 	N 	0.38398 0.61602 0.73126 -0.22500
C 	C 	0.42068 0.57932 0.71517 0.10600
H 	H 	0.43003 0.56997 0.67007 -0.01800
N 	N 	0.56803 0.43197 0.66597 -0.18100
C 	C 	0.55248 0.44752 0.60187 0.08000
H 	H 	0.52543 0.47457 0.59237 0.00500
N 	N 	0.58083 0.41917 0.55387 -0.11100
N 	N 	0.61603 0.38397 0.59247 -0.25400
C 	C 	0.60508 0.39492 0.64957 0.17700
H 	H 	0.62383 0.37617 0.68467 -0.04500
C 	C 	0.34710 0.17355 0.94650 -0.22900
N 	N 	0.22180 0.11090 0.89560 -0.16800
C 	C 	0.17070 0.08535 0.84350 0.10600
H 	H 	0.18500 0.09250 0.79710 -0.02400
N 	N 	0.09940 0.04970 0.86520 -0.23700
N 	N 	0.10130 0.05065 0.93541 -0.23700
C 	C 	0.17470 0.08735 0.95150 0.10100
H 	H 	0.19340 0.09670 0.99660 -0.01800
N 	N 	0.46940 0.23470 0.00070 -0.18800
C 	C 	0.43830 0.21915 0.06480 0.07800
H 	H 	0.38420 0.19210 0.07430 -0.00400
N 	N 	0.49500 0.24750 0.11280 -0.11300
N 	N 	0.56540 0.28270 0.07420 -0.24900
C 	C 	0.54350 0.27175 0.01710 0.14000
H 	H 	0.58100 0.29050 0.98200 -0.02200
C 	C 	0.01377 0.50688 0.27983 -0.43400
N 	N 	0.88847 0.44423 0.22893 -0.18000
C 	C 	0.83737 0.41868 0.17683 0.11600
H 	H 	0.85167 0.42583 0.13043 -0.01900
N 	N 	0.76607 0.38303 0.19853 -0.22200
N 	N 	0.76797 0.38398 0.26874 -0.22600
C 	C 	0.84137 0.42068 0.28483 0.11300
H 	H 	0.86007 0.43003 0.32993 -0.01800
N 	N 	0.13607 0.56803 0.33403 -0.19600
C 	C 	0.10497 0.55248 0.39813 0.08100
H 	H 	0.05087 0.52543 0.40763 -0.01600
N 	N 	0.16167 0.58083 0.44613 -0.11500
N 	N 	0.23207 0.61603 0.40753 -0.25500
C 	C 	0.21017 0.60508 0.35043 0.18000
H 	H 	0.24767 0.62383 0.31533 -0.04700
C 	C 	0.68043 0.84022 0.61317 -0.22300
N 	N 	0.55513 0.77757 0.56227 -0.16600
C 	C 	0.50403 0.75202 0.51017 0.11300
H 	H 	0.51833 0.75917 0.46377 -0.01600
N 	N 	0.43273 0.71637 0.53187 -0.22100
N 	N 	0.43463 0.71732 0.60208 -0.22500
C 	C 	0.50803 0.75402 0.61817 0.10700
H 	H 	0.52673 0.76337 0.66327 -0.01700
N 	N 	0.80273 0.90137 0.66737 -0.17900
C 	C 	0.77163 0.88582 0.73147 0.08800
H 	H 	0.71753 0.85877 0.74097 0.00800
N 	N 	0.82833 0.91417 0.77947 -0.10100
N 	N 	0.89873 0.94937 0.74087 -0.22900
C 	C 	0.87683 0.93842 0.68377 0.17900
H 	H 	0.91433 0.95717 0.64867 -0.02000
C 	C 	0.82645 0.65290 0.94650 -0.23100
N 	N 	0.88910 0.77820 0.89560 -0.16500
C 	C 	0.91465 0.82930 0.84350 0.11900
H 	H 	0.90750 0.81500 0.79710 -0.01000
N 	N 	0.95030 0.90060 0.86520 -0.19600
N 	N 	0.94935 0.89870 0.93541 -0.19700
C 	C 	0.91265 0.82530 0.95150 0.11400
H 	H 	0.90330 0.80660 0.99660 -0.00600
N 	N 	0.76530 0.53060 0.00070 -0.18700
C 	C 	0.78085 0.56170 0.06480 0.08200
H 	H 	0.80790 0.61580 0.07430 0.00300
N 	N 	0.75250 0.50500 0.11280 -0.11000
N 	N 	0.71730 0.43460 0.07420 -0.24900
C 	C 	0.72825 0.45650 0.01710 0.14500
H 	H 	0.70950 0.41900 0.98200 -0.02300
C 	C 	0.49312 0.98623 0.27983 -0.00400
N 	N 	0.55577 0.11153 0.22893 -0.15200
C 	C 	0.58132 0.16263 0.17683 0.10600
H 	H 	0.57417 0.14833 0.13043 -0.01900
N 	N 	0.61697 0.23393 0.19853 -0.22100
N 	N 	0.61602 0.23203 0.26874 -0.22500
C 	C 	0.57932 0.15863 0.28483 0.09800
H 	H 	0.56997 0.13993 0.32993 -0.01800
N 	N 	0.43197 0.86393 0.33403 -0.16600
C 	C 	0.44752 0.89503 0.39813 0.08000
H 	H 	0.47457 0.94913 0.40763 0.02700
N 	N 	0.41917 0.83833 0.44613 -0.10600
N 	N 	0.38397 0.76793 0.40753 -0.25300
C 	C 	0.39492 0.78983 0.35043 0.17400
H 	H 	0.37617 0.75233 0.31533 -0.04300
C 	C 	0.15978 0.31957 0.61317 -0.22100
N 	N 	0.22243 0.44487 0.56227 -0.16600
C 	C 	0.24798 0.49597 0.51017 0.11000
H 	H 	0.24083 0.48167 0.46377 -0.01800
N 	N 	0.28363 0.56727 0.53187 -0.22100
N 	N 	0.28268 0.56537 0.60208 -0.22600
C 	C 	0.24598 0.49197 0.61817 0.10400
H 	H 	0.23663 0.47327 0.66327 -0.01900
N 	N 	0.09863 0.19727 0.66737 -0.18300
C 	C 	0.11418 0.22837 0.73147 0.07300
H 	H 	0.14123 0.28247 0.74097 0.00400
N 	N 	0.08583 0.17167 0.77947 -0.11800
N 	N 	0.05063 0.10127 0.74087 -0.27200
C 	C 	0.06158 0.12317 0.68377 0.17200
H 	H 	0.04283 0.08567 0.64867 -0.07000
C 	C 	0.82645 0.17355 0.94650 -0.23100
N 	N 	0.88910 0.11090 0.89560 -0.16600
C 	C 	0.91465 0.08535 0.84350 0.11300
H 	H 	0.90750 0.09250 0.79710 -0.01600
N 	N 	0.95030 0.04970 0.86520 -0.21500
N 	N 	0.94935 0.05065 0.93541 -0.21500
C 	C 	0.91265 0.08735 0.95150 0.10900
H 	H 	0.90330 0.09670 0.99660 -0.01100
N 	N 	0.76530 0.23470 0.00070 -0.18700
C 	C 	0.78085 0.21915 0.06480 0.08000
H 	H 	0.80790 0.19210 0.07430 0.00000
N 	N 	0.75250 0.24750 0.11280 -0.11200
N 	N 	0.71730 0.28270 0.07420 -0.24900
C 	C 	0.72825 0.27175 0.01710 0.14300
H 	H 	0.70950 0.29050 0.98200 -0.02300
C 	C 	0.49312 0.50688 0.27983 -0.22200
N 	N 	0.55577 0.44423 0.22893 -0.16600
C 	C 	0.58132 0.41868 0.17683 0.11100
H 	H 	0.57417 0.42583 0.13043 -0.01900
N 	N 	0.61697 0.38303 0.19853 -0.22100
N 	N 	0.61602 0.38398 0.26874 -0.22500
C 	C 	0.57932 0.42068 0.28483 0.10500
H 	H 	0.56997 0.43003 0.32993 -0.01800
N 	N 	0.43197 0.56803 0.33403 -0.18100
C 	C 	0.44752 0.55248 0.39813 0.08000
H 	H 	0.47457 0.52543 0.40763 0.00500
N 	N 	0.41917 0.58083 0.44613 -0.11100
N 	N 	0.38397 0.61603 0.40753 -0.25400
C 	C 	0.39492 0.60508 0.35043 0.17700
H 	H 	0.37617 0.62383 0.31533 -0.04500
C 	C 	0.15978 0.84022 0.61317 -0.22200
N 	N 	0.22243 0.77757 0.56227 -0.16600
C 	C 	0.24798 0.75202 0.51017 0.11100
H 	H 	0.24083 0.75917 0.46377 -0.01700
N 	N 	0.28363 0.71637 0.53187 -0.22100
N 	N 	0.28268 0.71732 0.60208 -0.22500
C 	C 	0.24598 0.75402 0.61817 0.10600
H 	H 	0.23663 0.76337 0.66327 -0.01800
N 	N 	0.09863 0.90137 0.66737 -0.18100
C 	C 	0.11418 0.88582 0.73147 0.08100
H 	H 	0.14123 0.85877 0.74097 0.00600
N 	N 	0.08583 0.91417 0.77947 -0.10800
N 	N 	0.05063 0.94937 0.74087 -0.24800
C 	C 	0.06158 0.93842 0.68377 0.17600
H 	H 	0.04283 0.95717 0.64867 -0.04200
