data_crystal

_cell_length_a 35.83200
_cell_length_b 14.83800
_cell_length_c 30.78300
_cell_angle_alpha 90.00000
_cell_angle_beta  102.06600
_cell_angle_gamma 90.00000

_symmetry_space_group_name_	'P 1'
_symmetry_space_group_name_H-M	'P 1'

loop_
_symmetry_equiv_pos_as_xyz
  x,y,z

loop_
_atom_site_label
_atom_site_type_symbol
_atom_site_fract_x
_atom_site_fract_y
_atom_site_fract_z
_atom_site_charge
I 	I 	0.64069 0.10819 0.99282 -0.37400
I 	I 	0.60013 0.23298 0.10689 -0.38200
I 	I 	0.26576 0.77190 0.19928 -0.38000
I 	I 	0.36935 0.84132 0.30205 -0.40200
I 	I 	0.39132 0.25287 0.94409 -0.38200
I 	I 	0.47613 0.35607 0.86820 -0.35200
Zn	Zn	0.62165 0.09905 0.06687 1.16500
Zn	Zn	0.41957 0.37608 0.90531 1.16400
Zn	Zn	0.32654 0.86217 0.22560 1.16300
N 	N 	0.81676 0.82760 0.25080 -0.13600
N 	N 	0.77757 0.95520 0.22870 -0.14200
N 	N 	0.76362 0.81630 0.19010 -0.14100
N 	N 	0.87876 0.05800 0.35810 -0.27300
N 	N 	0.66541 0.03590 0.11007 -0.27300
N 	N 	0.81449 0.49870 0.21960 -0.27200
C 	C 	0.80710 0.91380 0.25410 0.09900
C 	C 	0.83170 0.96520 0.29070 0.06400
C 	C 	0.86190 0.92340 0.31700 -0.12900
H 	H 	0.86740 0.86200 0.31230 0.09700
C 	C 	0.88450 0.97190 0.35080 0.07800
H 	H 	0.90510 0.94200 0.36980 -0.00600
C 	C 	0.84940 0.09920 0.33250 0.07200
H 	H 	0.84490 0.16100 0.33770 -0.01100
C 	C 	0.82490 0.05420 0.29830 -0.13000
H 	H 	0.80380 0.08460 0.28050 0.08000
C 	C 	0.75750 0.90400 0.19630 0.08900
C 	C 	0.72520 0.94930 0.16590 0.04800
C 	C 	0.71580 0.03720 0.17400 -0.12300
H 	H 	0.72990 0.06910 0.19890 0.09100
C 	C 	0.68580 0.07810 0.14570 0.07000
H 	H 	0.67920 0.13820 0.15170 -0.00400
C 	C 	0.67470 0.95140 0.10220 0.07200
H 	H 	0.66040 0.92160 0.07680 -0.00100
C 	C 	0.70410 0.90490 0.12930 -0.11600
H 	H 	0.70960 0.84430 0.12300 0.08300
C 	C 	0.79330 0.78170 0.21880 0.10500
C 	C 	0.80060 0.68320 0.21710 0.05400
C 	C 	0.77410 0.62400 0.19370 -0.11700
H 	H 	0.75080 0.64580 0.17620 0.07700
C 	C 	0.78180 0.53300 0.19580 0.06700
H 	H 	0.76330 0.49290 0.17980 -0.00800
C 	C 	0.84020 0.55600 0.24250 0.06100
H 	H 	0.86330 0.53240 0.25950 -0.01300
C 	C 	0.83440 0.64790 0.24240 -0.11400
H 	H 	0.85310 0.68670 0.25920 0.08200
N 	N 	0.42618 0.72080 0.06380 -0.13400
N 	N 	0.47613 0.77000 0.02982 -0.14800
N 	N 	0.46289 0.84960 0.09170 -0.13400
N 	N 	0.43094 0.48270 0.94970 -0.27100
N 	N 	0.57836 0.00670 0.06290 -0.26800
N 	N 	0.36050 0.84170 0.18010 -0.27500
C 	C 	0.44820 0.71310 0.03470 0.09500
C 	C 	0.44200 0.63320 0.00470 0.05100
C 	C 	0.40990 0.58140 0.00040 -0.12100
H 	H 	0.39070 0.59670 0.01620 0.08100
C 	C 	0.40550 0.50640 0.97300 0.07500
H 	H 	0.38320 0.47060 0.97080 -0.01700
C 	C 	0.46240 0.53450 0.95300 0.06100
H 	H 	0.48090 0.51860 0.93630 -0.00400
C 	C 	0.46880 0.61010 0.98010 -0.11200
H 	H 	0.49120 0.64540 0.98170 0.07100
C 	C 	0.48280 0.83460 0.06040 0.09700
C 	C 	0.51560 0.89460 0.06060 0.04300
C 	C 	0.52890 0.91310 0.02260 -0.10700
H 	H 	0.51660 0.88720 0.99510 0.07500
C 	C 	0.56030 0.96970 0.02420 0.06300
H 	H 	0.56910 0.98220 0.99780 -0.00100
C 	C 	0.56590 0.98630 0.10000 0.07100
H 	H 	0.57920 0.01090 0.12740 -0.01000
C 	C 	0.53520 0.93220 0.10030 -0.11400
H 	H 	0.52730 0.92020 0.12740 0.08400
C 	C 	0.43400 0.79180 0.09100 0.10700
C 	C 	0.40890 0.80800 0.12230 0.06900
C 	C 	0.41910 0.86740 0.15690 -0.12100
H 	H 	0.44270 0.89870 0.16110 0.08500
C 	C 	0.39470 0.88110 0.18560 0.07500
H 	H 	0.40260 0.92020 0.21020 -0.01600
C 	C 	0.35080 0.78400 0.14590 0.06900
H 	H 	0.32700 0.75370 0.14180 -0.00800
C 	C 	0.37430 0.76710 0.11660 -0.11700
H 	H 	0.36630 0.72690 0.09240 0.08700
I 	I 	0.14069 0.60819 0.99282 -0.37300
I 	I 	0.10013 0.73298 0.10689 -0.38100
I 	I 	0.76576 0.27190 0.19928 -0.37900
I 	I 	0.86935 0.34132 0.30205 -0.40100
I 	I 	0.89132 0.75287 0.94409 -0.38100
I 	I 	0.97613 0.85607 0.86820 -0.35100
Zn	Zn	0.12165 0.59905 0.06687 1.16600
Zn	Zn	0.91957 0.87608 0.90531 1.16500
Zn	Zn	0.82654 0.36217 0.22560 1.16400
N 	N 	0.31676 0.32760 0.25080 -0.13500
N 	N 	0.27757 0.45520 0.22870 -0.14100
N 	N 	0.26362 0.31630 0.19010 -0.14000
N 	N 	0.37876 0.55800 0.35810 -0.27200
N 	N 	0.16541 0.53590 0.11007 -0.27200
N 	N 	0.31449 0.99870 0.21960 -0.27000
C 	C 	0.30710 0.41380 0.25410 0.10000
C 	C 	0.33170 0.46520 0.29070 0.06500
C 	C 	0.36190 0.42340 0.31700 -0.12800
H 	H 	0.36740 0.36200 0.31230 0.09700
C 	C 	0.38450 0.47190 0.35080 0.07800
H 	H 	0.40510 0.44200 0.36980 -0.00600
C 	C 	0.34940 0.59920 0.33250 0.07200
H 	H 	0.34490 0.66100 0.33770 -0.01100
C 	C 	0.32490 0.55420 0.29830 -0.13000
H 	H 	0.30380 0.58460 0.28050 0.08000
C 	C 	0.25750 0.40400 0.19630 0.08900
C 	C 	0.22520 0.44930 0.16590 0.04700
C 	C 	0.21580 0.53720 0.17400 -0.12300
H 	H 	0.22990 0.56910 0.19890 0.09100
C 	C 	0.18580 0.57810 0.14570 0.07000
H 	H 	0.17920 0.63820 0.15170 -0.00400
C 	C 	0.17470 0.45140 0.10220 0.07200
H 	H 	0.16040 0.42160 0.07680 -0.00100
C 	C 	0.20410 0.40490 0.12930 -0.11500
H 	H 	0.20960 0.34430 0.12300 0.08300
C 	C 	0.29330 0.28170 0.21880 0.10500
C 	C 	0.30060 0.18320 0.21710 0.05400
C 	C 	0.27410 0.12400 0.19370 -0.11700
H 	H 	0.25080 0.14580 0.17620 0.07700
C 	C 	0.28180 0.03300 0.19580 0.06700
H 	H 	0.26330 0.99290 0.17980 -0.00800
C 	C 	0.34020 0.05600 0.24250 0.06100
H 	H 	0.36330 0.03240 0.25950 -0.01300
C 	C 	0.33440 0.14790 0.24240 -0.11400
H 	H 	0.35310 0.18670 0.25920 0.08200
N 	N 	0.92618 0.22080 0.06380 -0.13400
N 	N 	0.97613 0.27000 0.02982 -0.14800
N 	N 	0.96289 0.34960 0.09170 -0.13400
N 	N 	0.93094 0.98270 0.94970 -0.27100
N 	N 	0.07836 0.50670 0.06290 -0.26800
N 	N 	0.86050 0.34170 0.18010 -0.27500
C 	C 	0.94820 0.21310 0.03470 0.09500
C 	C 	0.94200 0.13320 0.00470 0.05100
C 	C 	0.90990 0.08140 0.00040 -0.12100
H 	H 	0.89070 0.09670 0.01620 0.08100
C 	C 	0.90550 0.00640 0.97300 0.07600
H 	H 	0.88320 0.97060 0.97080 -0.01700
C 	C 	0.96240 0.03450 0.95300 0.06100
H 	H 	0.98090 0.01860 0.93630 -0.00400
C 	C 	0.96880 0.11010 0.98010 -0.11200
H 	H 	0.99120 0.14540 0.98170 0.07100
C 	C 	0.98280 0.33460 0.06040 0.09800
C 	C 	0.01560 0.39460 0.06060 0.04300
C 	C 	0.02890 0.41310 0.02260 -0.10700
H 	H 	0.01660 0.38720 0.99510 0.07500
C 	C 	0.06030 0.46970 0.02420 0.06300
H 	H 	0.06910 0.48220 0.99780 -0.00000
C 	C 	0.06590 0.48630 0.10000 0.07100
H 	H 	0.07920 0.51090 0.12740 -0.01000
C 	C 	0.03520 0.43220 0.10030 -0.11400
H 	H 	0.02730 0.42020 0.12740 0.08300
C 	C 	0.93400 0.29180 0.09100 0.10700
C 	C 	0.90890 0.30800 0.12230 0.06900
C 	C 	0.91910 0.36740 0.15690 -0.12100
H 	H 	0.94270 0.39870 0.16110 0.08500
C 	C 	0.89470 0.38110 0.18560 0.07500
H 	H 	0.90260 0.42020 0.21020 -0.01600
C 	C 	0.85080 0.28400 0.14590 0.06900
H 	H 	0.82700 0.25370 0.14180 -0.00800
C 	C 	0.87430 0.26710 0.11660 -0.11700
H 	H 	0.86630 0.22690 0.09240 0.08700
I 	I 	0.64069 0.89181 0.49282 -0.37300
I 	I 	0.60013 0.76702 0.60689 -0.38100
I 	I 	0.26576 0.22810 0.69928 -0.37900
I 	I 	0.36935 0.15868 0.80205 -0.40100
I 	I 	0.39132 0.74713 0.44409 -0.38100
I 	I 	0.47613 0.64393 0.36820 -0.35100
Zn	Zn	0.62165 0.90095 0.56687 1.16600
Zn	Zn	0.41957 0.62392 0.40531 1.16500
Zn	Zn	0.32654 0.13783 0.72560 1.16400
N 	N 	0.81676 0.17240 0.75080 -0.13500
N 	N 	0.77757 0.04480 0.72870 -0.14100
N 	N 	0.76362 0.18370 0.69010 -0.14000
N 	N 	0.87876 0.94200 0.85810 -0.27200
N 	N 	0.66541 0.96410 0.61007 -0.27200
N 	N 	0.81449 0.50130 0.71960 -0.27100
C 	C 	0.80710 0.08620 0.75410 0.10000
C 	C 	0.83170 0.03480 0.79070 0.06600
C 	C 	0.86190 0.07660 0.81700 -0.12800
H 	H 	0.86740 0.13800 0.81230 0.09700
C 	C 	0.88450 0.02810 0.85080 0.07800
H 	H 	0.90510 0.05800 0.86980 -0.00600
C 	C 	0.84940 0.90080 0.83250 0.07200
H 	H 	0.84490 0.83900 0.83770 -0.01100
C 	C 	0.82490 0.94580 0.79830 -0.13000
H 	H 	0.80380 0.91540 0.78050 0.08000
C 	C 	0.75750 0.09600 0.69630 0.08900
C 	C 	0.72520 0.05070 0.66590 0.04700
C 	C 	0.71580 0.96280 0.67400 -0.12300
H 	H 	0.72990 0.93090 0.69890 0.09100
C 	C 	0.68580 0.92190 0.64570 0.07000
H 	H 	0.67920 0.86180 0.65170 -0.00400
C 	C 	0.67470 0.04860 0.60220 0.07200
H 	H 	0.66040 0.07840 0.57680 -0.00100
C 	C 	0.70410 0.09510 0.62930 -0.11500
H 	H 	0.70960 0.15570 0.62300 0.08300
C 	C 	0.79330 0.21830 0.71880 0.10500
C 	C 	0.80060 0.31680 0.71710 0.05400
C 	C 	0.77410 0.37600 0.69370 -0.11700
H 	H 	0.75080 0.35420 0.67620 0.07700
C 	C 	0.78180 0.46700 0.69580 0.06700
H 	H 	0.76330 0.50710 0.67980 -0.00800
C 	C 	0.84020 0.44400 0.74250 0.06100
H 	H 	0.86330 0.46760 0.75950 -0.01300
C 	C 	0.83440 0.35210 0.74240 -0.11400
H 	H 	0.85310 0.31330 0.75920 0.08200
N 	N 	0.42618 0.27920 0.56380 -0.13400
N 	N 	0.47613 0.23000 0.52982 -0.14800
N 	N 	0.46289 0.15040 0.59170 -0.13400
N 	N 	0.43094 0.51730 0.44970 -0.27100
N 	N 	0.57836 0.99330 0.56290 -0.26800
N 	N 	0.36050 0.15830 0.68010 -0.27500
C 	C 	0.44820 0.28690 0.53470 0.09600
C 	C 	0.44200 0.36680 0.50470 0.05100
C 	C 	0.40990 0.41860 0.50040 -0.12100
H 	H 	0.39070 0.40330 0.51620 0.08100
C 	C 	0.40550 0.49360 0.47300 0.07500
H 	H 	0.38320 0.52940 0.47080 -0.01600
C 	C 	0.46240 0.46550 0.45300 0.06100
H 	H 	0.48090 0.48140 0.43630 -0.00400
C 	C 	0.46880 0.38990 0.48010 -0.11100
H 	H 	0.49120 0.35460 0.48170 0.07100
C 	C 	0.48280 0.16540 0.56040 0.09700
C 	C 	0.51560 0.10540 0.56060 0.04300
C 	C 	0.52890 0.08690 0.52260 -0.10700
H 	H 	0.51660 0.11280 0.49510 0.07500
C 	C 	0.56030 0.03030 0.52420 0.06300
H 	H 	0.56910 0.01780 0.49780 -0.00000
C 	C 	0.56590 0.01370 0.60000 0.07100
H 	H 	0.57920 0.98910 0.62740 -0.01000
C 	C 	0.53520 0.06780 0.60030 -0.11400
H 	H 	0.52730 0.07980 0.62740 0.08400
C 	C 	0.43400 0.20820 0.59100 0.10700
C 	C 	0.40890 0.19200 0.62230 0.06900
C 	C 	0.41910 0.13260 0.65690 -0.12100
H 	H 	0.44270 0.10130 0.66110 0.08500
C 	C 	0.39470 0.11890 0.68560 0.07500
H 	H 	0.40260 0.07980 0.71020 -0.01600
C 	C 	0.35080 0.21600 0.64590 0.06900
H 	H 	0.32700 0.24630 0.64180 -0.00800
C 	C 	0.37430 0.23290 0.61660 -0.11700
H 	H 	0.36630 0.27310 0.59240 0.08700
I 	I 	0.14069 0.39181 0.49282 -0.37200
I 	I 	0.10013 0.26702 0.60689 -0.38100
I 	I 	0.76576 0.72810 0.69928 -0.37900
I 	I 	0.86935 0.65868 0.80205 -0.40100
I 	I 	0.89132 0.24713 0.44409 -0.38100
I 	I 	0.97613 0.14393 0.36820 -0.35100
Zn	Zn	0.12165 0.40095 0.56687 1.16600
Zn	Zn	0.91957 0.12392 0.40531 1.16500
Zn	Zn	0.82654 0.63783 0.72560 1.16400
N 	N 	0.31676 0.67240 0.75080 -0.13500
N 	N 	0.27757 0.54480 0.72870 -0.14100
N 	N 	0.26362 0.68370 0.69010 -0.14000
N 	N 	0.37876 0.44200 0.85810 -0.27200
N 	N 	0.16541 0.46410 0.61007 -0.27200
N 	N 	0.31449 0.00130 0.71960 -0.27000
C 	C 	0.30710 0.58620 0.75410 0.10000
C 	C 	0.33170 0.53480 0.79070 0.06500
C 	C 	0.36190 0.57660 0.81700 -0.12800
H 	H 	0.36740 0.63800 0.81230 0.09700
C 	C 	0.38450 0.52810 0.85080 0.07800
H 	H 	0.40510 0.55800 0.86980 -0.00600
C 	C 	0.34940 0.40080 0.83250 0.07200
H 	H 	0.34490 0.33900 0.83770 -0.01100
C 	C 	0.32490 0.44580 0.79830 -0.13000
H 	H 	0.30380 0.41540 0.78050 0.08000
C 	C 	0.25750 0.59600 0.69630 0.08900
C 	C 	0.22520 0.55070 0.66590 0.04700
C 	C 	0.21580 0.46280 0.67400 -0.12300
H 	H 	0.22990 0.43090 0.69890 0.09100
C 	C 	0.18580 0.42190 0.64570 0.07000
H 	H 	0.17920 0.36180 0.65170 -0.00400
C 	C 	0.17470 0.54860 0.60220 0.07200
H 	H 	0.16040 0.57840 0.57680 -0.00100
C 	C 	0.20410 0.59510 0.62930 -0.11500
H 	H 	0.20960 0.65570 0.62300 0.08300
C 	C 	0.29330 0.71830 0.71880 0.10500
C 	C 	0.30060 0.81680 0.71710 0.05400
C 	C 	0.27410 0.87600 0.69370 -0.11700
H 	H 	0.25080 0.85420 0.67620 0.07700
C 	C 	0.28180 0.96700 0.69580 0.06700
H 	H 	0.26330 0.00710 0.67980 -0.00800
C 	C 	0.34020 0.94400 0.74250 0.06100
H 	H 	0.36330 0.96760 0.75950 -0.01300
C 	C 	0.33440 0.85210 0.74240 -0.11400
H 	H 	0.35310 0.81330 0.75920 0.08200
N 	N 	0.92618 0.77920 0.56380 -0.13400
N 	N 	0.97613 0.73000 0.52982 -0.14800
N 	N 	0.96289 0.65040 0.59170 -0.13400
N 	N 	0.93094 0.01730 0.44970 -0.27100
N 	N 	0.07836 0.49330 0.56290 -0.26800
N 	N 	0.86050 0.65830 0.68010 -0.27500
C 	C 	0.94820 0.78690 0.53470 0.09500
C 	C 	0.94200 0.86680 0.50470 0.05100
C 	C 	0.90990 0.91860 0.50040 -0.12100
H 	H 	0.89070 0.90330 0.51620 0.08100
C 	C 	0.90550 0.99360 0.47300 0.07500
H 	H 	0.88320 0.02940 0.47080 -0.01600
C 	C 	0.96240 0.96550 0.45300 0.06100
H 	H 	0.98090 0.98140 0.43630 -0.00400
C 	C 	0.96880 0.88990 0.48010 -0.11100
H 	H 	0.99120 0.85460 0.48170 0.07100
C 	C 	0.98280 0.66540 0.56040 0.09700
C 	C 	0.01560 0.60540 0.56060 0.04300
C 	C 	0.02890 0.58690 0.52260 -0.10700
H 	H 	0.01660 0.61280 0.49510 0.07500
C 	C 	0.06030 0.53030 0.52420 0.06300
H 	H 	0.06910 0.51780 0.49780 -0.00000
C 	C 	0.06590 0.51370 0.60000 0.07100
H 	H 	0.07920 0.48910 0.62740 -0.01000
C 	C 	0.03520 0.56780 0.60030 -0.11400
H 	H 	0.02730 0.57980 0.62740 0.08400
C 	C 	0.93400 0.70820 0.59100 0.10700
C 	C 	0.90890 0.69200 0.62230 0.06900
C 	C 	0.91910 0.63260 0.65690 -0.12100
H 	H 	0.94270 0.60130 0.66110 0.08500
C 	C 	0.89470 0.61890 0.68560 0.07500
H 	H 	0.90260 0.57980 0.71020 -0.01600
C 	C 	0.85080 0.71600 0.64590 0.06900
H 	H 	0.82700 0.74630 0.64180 -0.00800
C 	C 	0.87430 0.73290 0.61660 -0.11700
H 	H 	0.86630 0.77310 0.59240 0.08700
I 	I 	0.35931 0.10819 0.50718 -0.37300
I 	I 	0.39987 0.23298 0.39311 -0.38100
I 	I 	0.73424 0.77190 0.30072 -0.37900
I 	I 	0.63065 0.84132 0.19795 -0.40100
I 	I 	0.60868 0.25287 0.55591 -0.38100
I 	I 	0.52387 0.35607 0.63180 -0.35100
Zn	Zn	0.37835 0.09905 0.43313 1.16600
Zn	Zn	0.58043 0.37608 0.59469 1.16500
Zn	Zn	0.67346 0.86217 0.27440 1.16400
N 	N 	0.18324 0.82760 0.24920 -0.13500
N 	N 	0.22243 0.95520 0.27130 -0.14100
N 	N 	0.23638 0.81630 0.30990 -0.14000
N 	N 	0.12124 0.05800 0.14190 -0.27200
N 	N 	0.33459 0.03590 0.38993 -0.27200
N 	N 	0.18551 0.49870 0.28040 -0.27100
C 	C 	0.19290 0.91380 0.24590 0.10000
C 	C 	0.16830 0.96520 0.20930 0.06600
C 	C 	0.13810 0.92340 0.18300 -0.12800
H 	H 	0.13260 0.86200 0.18770 0.09700
C 	C 	0.11550 0.97190 0.14920 0.07800
H 	H 	0.09490 0.94200 0.13020 -0.00600
C 	C 	0.15060 0.09920 0.16750 0.07200
H 	H 	0.15510 0.16100 0.16230 -0.01100
C 	C 	0.17510 0.05420 0.20170 -0.13000
H 	H 	0.19620 0.08460 0.21950 0.08000
C 	C 	0.24250 0.90400 0.30370 0.08900
C 	C 	0.27480 0.94930 0.33410 0.04700
C 	C 	0.28420 0.03720 0.32600 -0.12300
H 	H 	0.27010 0.06910 0.30110 0.09100
C 	C 	0.31420 0.07810 0.35430 0.07000
H 	H 	0.32080 0.13820 0.34830 -0.00400
C 	C 	0.32530 0.95140 0.39780 0.07200
H 	H 	0.33960 0.92160 0.42320 -0.00100
C 	C 	0.29590 0.90490 0.37070 -0.11500
H 	H 	0.29040 0.84430 0.37700 0.08300
C 	C 	0.20670 0.78170 0.28120 0.10500
C 	C 	0.19940 0.68320 0.28290 0.05400
C 	C 	0.22590 0.62400 0.30630 -0.11700
H 	H 	0.24920 0.64580 0.32380 0.07700
C 	C 	0.21820 0.53300 0.30420 0.06700
H 	H 	0.23670 0.49290 0.32020 -0.00800
C 	C 	0.15980 0.55600 0.25750 0.06100
H 	H 	0.13670 0.53240 0.24050 -0.01300
C 	C 	0.16560 0.64790 0.25760 -0.11400
H 	H 	0.14690 0.68670 0.24080 0.08200
N 	N 	0.57382 0.72080 0.43620 -0.13400
N 	N 	0.52387 0.77000 0.47018 -0.14800
N 	N 	0.53711 0.84960 0.40830 -0.13400
N 	N 	0.56906 0.48270 0.55030 -0.27100
N 	N 	0.42164 0.00670 0.43710 -0.26800
N 	N 	0.63950 0.84170 0.31990 -0.27500
C 	C 	0.55180 0.71310 0.46530 0.09600
C 	C 	0.55800 0.63320 0.49530 0.05100
C 	C 	0.59010 0.58140 0.49960 -0.12100
H 	H 	0.60930 0.59670 0.48380 0.08100
C 	C 	0.59450 0.50640 0.52700 0.07500
H 	H 	0.61680 0.47060 0.52920 -0.01600
C 	C 	0.53760 0.53450 0.54700 0.06100
H 	H 	0.51910 0.51860 0.56370 -0.00400
C 	C 	0.53120 0.61010 0.51990 -0.11100
H 	H 	0.50880 0.64540 0.51830 0.07100
C 	C 	0.51720 0.83460 0.43960 0.09700
C 	C 	0.48440 0.89460 0.43940 0.04300
C 	C 	0.47110 0.91310 0.47740 -0.10700
H 	H 	0.48340 0.88720 0.50490 0.07500
C 	C 	0.43970 0.96970 0.47580 0.06300
H 	H 	0.43090 0.98220 0.50220 -0.00000
C 	C 	0.43410 0.98630 0.40000 0.07100
H 	H 	0.42080 0.01090 0.37260 -0.01000
C 	C 	0.46480 0.93220 0.39970 -0.11400
H 	H 	0.47270 0.92020 0.37260 0.08400
C 	C 	0.56600 0.79180 0.40900 0.10700
C 	C 	0.59110 0.80800 0.37770 0.06900
C 	C 	0.58090 0.86740 0.34310 -0.12100
H 	H 	0.55730 0.89870 0.33890 0.08500
C 	C 	0.60530 0.88110 0.31440 0.07500
H 	H 	0.59740 0.92020 0.28980 -0.01600
C 	C 	0.64920 0.78400 0.35410 0.06900
H 	H 	0.67300 0.75370 0.35820 -0.00800
C 	C 	0.62570 0.76710 0.38340 -0.11700
H 	H 	0.63370 0.72690 0.40760 0.08700
I 	I 	0.85931 0.60819 0.50718 -0.37200
I 	I 	0.89987 0.73298 0.39311 -0.38100
I 	I 	0.23424 0.27190 0.30072 -0.37900
I 	I 	0.13065 0.34132 0.19795 -0.40100
I 	I 	0.10868 0.75287 0.55591 -0.38100
I 	I 	0.02387 0.85607 0.63180 -0.35100
Zn	Zn	0.87835 0.59905 0.43313 1.16600
Zn	Zn	0.08043 0.87608 0.59469 1.16500
Zn	Zn	0.17346 0.36217 0.27440 1.16400
N 	N 	0.68324 0.32760 0.24920 -0.13500
N 	N 	0.72243 0.45520 0.27130 -0.14100
N 	N 	0.73638 0.31630 0.30990 -0.14000
N 	N 	0.62124 0.55800 0.14190 -0.27200
N 	N 	0.83459 0.53590 0.38993 -0.27200
N 	N 	0.68551 0.99870 0.28040 -0.27000
C 	C 	0.69290 0.41380 0.24590 0.10000
C 	C 	0.66830 0.46520 0.20930 0.06500
C 	C 	0.63810 0.42340 0.18300 -0.12800
H 	H 	0.63260 0.36200 0.18770 0.09700
C 	C 	0.61550 0.47190 0.14920 0.07800
H 	H 	0.59490 0.44200 0.13020 -0.00600
C 	C 	0.65060 0.59920 0.16750 0.07200
H 	H 	0.65510 0.66100 0.16230 -0.01100
C 	C 	0.67510 0.55420 0.20170 -0.13000
H 	H 	0.69620 0.58460 0.21950 0.08000
C 	C 	0.74250 0.40400 0.30370 0.08900
C 	C 	0.77480 0.44930 0.33410 0.04700
C 	C 	0.78420 0.53720 0.32600 -0.12300
H 	H 	0.77010 0.56910 0.30110 0.09100
C 	C 	0.81420 0.57810 0.35430 0.07000
H 	H 	0.82080 0.63820 0.34830 -0.00400
C 	C 	0.82530 0.45140 0.39780 0.07200
H 	H 	0.83960 0.42160 0.42320 -0.00100
C 	C 	0.79590 0.40490 0.37070 -0.11500
H 	H 	0.79040 0.34430 0.37700 0.08300
C 	C 	0.70670 0.28170 0.28120 0.10500
C 	C 	0.69940 0.18320 0.28290 0.05400
C 	C 	0.72590 0.12400 0.30630 -0.11700
H 	H 	0.74920 0.14580 0.32380 0.07700
C 	C 	0.71820 0.03300 0.30420 0.06700
H 	H 	0.73670 0.99290 0.32020 -0.00800
C 	C 	0.65980 0.05600 0.25750 0.06100
H 	H 	0.63670 0.03240 0.24050 -0.01300
C 	C 	0.66560 0.14790 0.25760 -0.11400
H 	H 	0.64690 0.18670 0.24080 0.08200
N 	N 	0.07382 0.22080 0.43620 -0.13400
N 	N 	0.02387 0.27000 0.47018 -0.14800
N 	N 	0.03711 0.34960 0.40830 -0.13400
N 	N 	0.06906 0.98270 0.55030 -0.27100
N 	N 	0.92164 0.50670 0.43710 -0.26800
N 	N 	0.13950 0.34170 0.31990 -0.27500
C 	C 	0.05180 0.21310 0.46530 0.09500
C 	C 	0.05800 0.13320 0.49530 0.05100
C 	C 	0.09010 0.08140 0.49960 -0.12100
H 	H 	0.10930 0.09670 0.48380 0.08100
C 	C 	0.09450 0.00640 0.52700 0.07500
H 	H 	0.11680 0.97060 0.52920 -0.01600
C 	C 	0.03760 0.03450 0.54700 0.06100
H 	H 	0.01910 0.01860 0.56370 -0.00400
C 	C 	0.03120 0.11010 0.51990 -0.11100
H 	H 	0.00880 0.14540 0.51830 0.07100
C 	C 	0.01720 0.33460 0.43960 0.09700
C 	C 	0.98440 0.39460 0.43940 0.04300
C 	C 	0.97110 0.41310 0.47740 -0.10700
H 	H 	0.98340 0.38720 0.50490 0.07500
C 	C 	0.93970 0.46970 0.47580 0.06300
H 	H 	0.93090 0.48220 0.50220 -0.00000
C 	C 	0.93410 0.48630 0.40000 0.07100
H 	H 	0.92080 0.51090 0.37260 -0.01000
C 	C 	0.96480 0.43220 0.39970 -0.11400
H 	H 	0.97270 0.42020 0.37260 0.08400
C 	C 	0.06600 0.29180 0.40900 0.10700
C 	C 	0.09110 0.30800 0.37770 0.06900
C 	C 	0.08090 0.36740 0.34310 -0.12100
H 	H 	0.05730 0.39870 0.33890 0.08500
C 	C 	0.10530 0.38110 0.31440 0.07500
H 	H 	0.09740 0.42020 0.28980 -0.01600
C 	C 	0.14920 0.28400 0.35410 0.06900
H 	H 	0.17300 0.25370 0.35820 -0.00800
C 	C 	0.12570 0.26710 0.38340 -0.11700
H 	H 	0.13370 0.22690 0.40760 0.08700
I 	I 	0.35931 0.89181 0.00718 -0.37300
I 	I 	0.39987 0.76702 0.89311 -0.38100
I 	I 	0.73424 0.22810 0.80072 -0.37900
I 	I 	0.63065 0.15868 0.69795 -0.40100
I 	I 	0.60868 0.74713 0.05591 -0.38100
I 	I 	0.52387 0.64393 0.13180 -0.35100
Zn	Zn	0.37835 0.90095 0.93313 1.16600
Zn	Zn	0.58043 0.62392 0.09469 1.16500
Zn	Zn	0.67346 0.13783 0.77440 1.16400
N 	N 	0.18324 0.17240 0.74920 -0.13500
N 	N 	0.22243 0.04480 0.77130 -0.14100
N 	N 	0.23638 0.18370 0.80990 -0.14000
N 	N 	0.12124 0.94200 0.64190 -0.27200
N 	N 	0.33459 0.96410 0.88993 -0.27200
N 	N 	0.18551 0.50130 0.78040 -0.27100
C 	C 	0.19290 0.08620 0.74590 0.10000
C 	C 	0.16830 0.03480 0.70930 0.06500
C 	C 	0.13810 0.07660 0.68300 -0.12800
H 	H 	0.13260 0.13800 0.68770 0.09700
C 	C 	0.11550 0.02810 0.64920 0.07800
H 	H 	0.09490 0.05800 0.63020 -0.00600
C 	C 	0.15060 0.90080 0.66750 0.07200
H 	H 	0.15510 0.83900 0.66230 -0.01100
C 	C 	0.17510 0.94580 0.70170 -0.13000
H 	H 	0.19620 0.91540 0.71950 0.08000
C 	C 	0.24250 0.09600 0.80370 0.08900
C 	C 	0.27480 0.05070 0.83410 0.04800
C 	C 	0.28420 0.96280 0.82600 -0.12300
H 	H 	0.27010 0.93090 0.80110 0.09100
C 	C 	0.31420 0.92190 0.85430 0.07000
H 	H 	0.32080 0.86180 0.84830 -0.00400
C 	C 	0.32530 0.04860 0.89780 0.07200
H 	H 	0.33960 0.07840 0.92320 -0.00100
C 	C 	0.29590 0.09510 0.87070 -0.11600
H 	H 	0.29040 0.15570 0.87700 0.08300
C 	C 	0.20670 0.21830 0.78120 0.10500
C 	C 	0.19940 0.31680 0.78290 0.05400
C 	C 	0.22590 0.37600 0.80630 -0.11700
H 	H 	0.24920 0.35420 0.82380 0.07700
C 	C 	0.21820 0.46700 0.80420 0.06700
H 	H 	0.23670 0.50710 0.82020 -0.00800
C 	C 	0.15980 0.44400 0.75750 0.06100
H 	H 	0.13670 0.46760 0.74050 -0.01300
C 	C 	0.16560 0.35210 0.75760 -0.11400
H 	H 	0.14690 0.31330 0.74080 0.08200
N 	N 	0.57382 0.27920 0.93620 -0.13400
N 	N 	0.52387 0.23000 0.97018 -0.14800
N 	N 	0.53711 0.15040 0.90830 -0.13400
N 	N 	0.56906 0.51730 0.05030 -0.27100
N 	N 	0.42164 0.99330 0.93710 -0.26800
N 	N 	0.63950 0.15830 0.81990 -0.27500
C 	C 	0.55180 0.28690 0.96530 0.09500
C 	C 	0.55800 0.36680 0.99530 0.05100
C 	C 	0.59010 0.41860 0.99960 -0.12100
H 	H 	0.60930 0.40330 0.98380 0.08100
C 	C 	0.59450 0.49360 0.02700 0.07500
H 	H 	0.61680 0.52940 0.02920 -0.01700
C 	C 	0.53760 0.46550 0.04700 0.06100
H 	H 	0.51910 0.48140 0.06370 -0.00400
C 	C 	0.53120 0.38990 0.01990 -0.11200
H 	H 	0.50880 0.35460 0.01830 0.07100
C 	C 	0.51720 0.16540 0.93960 0.09700
C 	C 	0.48440 0.10540 0.93940 0.04300
C 	C 	0.47110 0.08690 0.97740 -0.10700
H 	H 	0.48340 0.11280 0.00490 0.07500
C 	C 	0.43970 0.03030 0.97580 0.06300
H 	H 	0.43090 0.01780 0.00220 -0.00100
C 	C 	0.43410 0.01370 0.90000 0.07100
H 	H 	0.42080 0.98910 0.87260 -0.01000
C 	C 	0.46480 0.06780 0.89970 -0.11400
H 	H 	0.47270 0.07980 0.87260 0.08400
C 	C 	0.56600 0.20820 0.90900 0.10700
C 	C 	0.59110 0.19200 0.87770 0.06900
C 	C 	0.58090 0.13260 0.84310 -0.12100
H 	H 	0.55730 0.10130 0.83890 0.08500
C 	C 	0.60530 0.11890 0.81440 0.07500
H 	H 	0.59740 0.07980 0.78980 -0.01600
C 	C 	0.64920 0.21600 0.85410 0.06900
H 	H 	0.67300 0.24630 0.85820 -0.00800
C 	C 	0.62570 0.23290 0.88340 -0.11700
H 	H 	0.63370 0.27310 0.90760 0.08700
I 	I 	0.85931 0.39181 0.00718 -0.37300
I 	I 	0.89987 0.26702 0.89311 -0.38100
I 	I 	0.23424 0.72810 0.80072 -0.37900
I 	I 	0.13065 0.65868 0.69795 -0.40100
I 	I 	0.10868 0.24713 0.05591 -0.38100
I 	I 	0.02387 0.14393 0.13180 -0.35100
Zn	Zn	0.87835 0.40095 0.93313 1.16600
Zn	Zn	0.08043 0.12392 0.09469 1.16500
Zn	Zn	0.17346 0.63783 0.77440 1.16400
N 	N 	0.68324 0.67240 0.74920 -0.13500
N 	N 	0.72243 0.54480 0.77130 -0.14100
N 	N 	0.73638 0.68370 0.80990 -0.14000
N 	N 	0.62124 0.44200 0.64190 -0.27200
N 	N 	0.83459 0.46410 0.88993 -0.27200
N 	N 	0.68551 0.00130 0.78040 -0.27000
C 	C 	0.69290 0.58620 0.74590 0.10000
C 	C 	0.66830 0.53480 0.70930 0.06500
C 	C 	0.63810 0.57660 0.68300 -0.12800
H 	H 	0.63260 0.63800 0.68770 0.09700
C 	C 	0.61550 0.52810 0.64920 0.07800
H 	H 	0.59490 0.55800 0.63020 -0.00600
C 	C 	0.65060 0.40080 0.66750 0.07200
H 	H 	0.65510 0.33900 0.66230 -0.01100
C 	C 	0.67510 0.44580 0.70170 -0.13000
H 	H 	0.69620 0.41540 0.71950 0.08000
C 	C 	0.74250 0.59600 0.80370 0.08900
C 	C 	0.77480 0.55070 0.83410 0.04700
C 	C 	0.78420 0.46280 0.82600 -0.12300
H 	H 	0.77010 0.43090 0.80110 0.09100
C 	C 	0.81420 0.42190 0.85430 0.07000
H 	H 	0.82080 0.36180 0.84830 -0.00400
C 	C 	0.82530 0.54860 0.89780 0.07200
H 	H 	0.83960 0.57840 0.92320 -0.00100
C 	C 	0.79590 0.59510 0.87070 -0.11500
H 	H 	0.79040 0.65570 0.87700 0.08300
C 	C 	0.70670 0.71830 0.78120 0.10500
C 	C 	0.69940 0.81680 0.78290 0.05400
C 	C 	0.72590 0.87600 0.80630 -0.11700
H 	H 	0.74920 0.85420 0.82380 0.07700
C 	C 	0.71820 0.96700 0.80420 0.06700
H 	H 	0.73670 0.00710 0.82020 -0.00800
C 	C 	0.65980 0.94400 0.75750 0.06100
H 	H 	0.63670 0.96760 0.74050 -0.01300
C 	C 	0.66560 0.85210 0.75760 -0.11400
H 	H 	0.64690 0.81330 0.74080 0.08200
N 	N 	0.07382 0.77920 0.93620 -0.13400
N 	N 	0.02387 0.73000 0.97018 -0.14800
N 	N 	0.03711 0.65040 0.90830 -0.13400
N 	N 	0.06906 0.01730 0.05030 -0.27100
N 	N 	0.92164 0.49330 0.93710 -0.26800
N 	N 	0.13950 0.65830 0.81990 -0.27500
C 	C 	0.05180 0.78690 0.96530 0.09500
C 	C 	0.05800 0.86680 0.99530 0.05100
C 	C 	0.09010 0.91860 0.99960 -0.12100
H 	H 	0.10930 0.90330 0.98380 0.08100
C 	C 	0.09450 0.99360 0.02700 0.07600
H 	H 	0.11680 0.02940 0.02920 -0.01700
C 	C 	0.03760 0.96550 0.04700 0.06100
H 	H 	0.01910 0.98140 0.06370 -0.00400
C 	C 	0.03120 0.88990 0.01990 -0.11200
H 	H 	0.00880 0.85460 0.01830 0.07100
C 	C 	0.01720 0.66540 0.93960 0.09800
C 	C 	0.98440 0.60540 0.93940 0.04300
C 	C 	0.97110 0.58690 0.97740 -0.10700
H 	H 	0.98340 0.61280 0.00490 0.07500
C 	C 	0.93970 0.53030 0.97580 0.06300
H 	H 	0.93090 0.51780 0.00220 -0.00000
C 	C 	0.93410 0.51370 0.90000 0.07100
H 	H 	0.92080 0.48910 0.87260 -0.01000
C 	C 	0.96480 0.56780 0.89970 -0.11400
H 	H 	0.97270 0.57980 0.87260 0.08300
C 	C 	0.06600 0.70820 0.90900 0.10700
C 	C 	0.09110 0.69200 0.87770 0.06900
C 	C 	0.08090 0.63260 0.84310 -0.12100
H 	H 	0.05730 0.60130 0.83890 0.08500
C 	C 	0.10530 0.61890 0.81440 0.07500
H 	H 	0.09740 0.57980 0.78980 -0.01600
C 	C 	0.14920 0.71600 0.85410 0.06900
H 	H 	0.17300 0.74630 0.85820 -0.00800
C 	C 	0.12570 0.73290 0.88340 -0.11700
H 	H 	0.13370 0.77310 0.90760 0.08700
