data_crystal

_cell_length_a 10.53440
_cell_length_b 11.90730
_cell_length_c 14.04610
_cell_angle_alpha 106.64500
_cell_angle_beta  101.97700
_cell_angle_gamma 112.07800

_symmetry_space_group_name_	'P 1'
_symmetry_space_group_name_H-M	'P 1'

loop_
_symmetry_equiv_pos_as_xyz
  x,y,z

loop_
_atom_site_label
_atom_site_type_symbol
_atom_site_fract_x
_atom_site_fract_y
_atom_site_fract_z
_atom_site_charge
Co	Co	0.80851 0.00864 0.78720 1.18600
Co	Co	0.44871 0.72920 0.68837 1.18700
Co	Co	0.19149 0.99136 0.21280 1.18500
Co	Co	0.55129 0.27080 0.31163 1.18600
H 	H 	0.56400 0.97500 0.79000 0.54700
H 	H 	0.52400 0.95500 0.68900 0.37500
H 	H 	0.84580 0.85060 0.46990 0.02000
H 	H 	0.86120 0.72310 0.31510 0.08300
H 	H 	0.74490 0.49600 0.25360 -0.00200
H 	H 	0.61420 0.51230 0.49640 0.02000
H 	H 	0.86180 0.43040 0.63880 0.02400
H 	H 	0.00630 0.48160 0.81170 0.08300
H 	H 	0.98270 0.31250 0.86680 0.00200
H 	H 	0.69440 0.04430 0.58560 0.02400
H 	H 	0.56040 0.81940 0.03890 0.03200
H 	H 	0.67680 0.89410 0.22390 0.08000
H 	H 	0.92320 0.95620 0.29250 0.00500
H 	H 	0.95270 0.89280 0.01020 0.02000
H 	H 	0.00670 0.22620 0.13840 0.03700
H 	H 	0.05940 0.30740 0.32320 0.08100
H 	H 	0.88210 0.32540 0.38930 0.00600
H 	H 	0.59290 0.16580 0.10040 0.02800
H 	H 	0.43600 0.02500 0.21000 0.54700
H 	H 	0.47600 0.04500 0.31100 0.37500
H 	H 	0.15420 0.14940 0.53010 0.02000
H 	H 	0.13880 0.27690 0.68490 0.08300
H 	H 	0.25510 0.50400 0.74640 -0.00200
H 	H 	0.38580 0.48770 0.50360 0.02000
H 	H 	0.13820 0.56960 0.36120 0.02400
H 	H 	0.99370 0.51840 0.18830 0.08300
H 	H 	0.01730 0.68750 0.13320 0.00200
H 	H 	0.30560 0.95570 0.41440 0.02400
H 	H 	0.43960 0.18060 0.96110 0.03200
H 	H 	0.32320 0.10590 0.77610 0.08000
H 	H 	0.07680 0.04380 0.70750 0.00500
H 	H 	0.04730 0.10720 0.98980 0.02000
H 	H 	0.99330 0.77380 0.86160 0.03700
H 	H 	0.94060 0.69260 0.67680 0.08100
H 	H 	0.11790 0.67460 0.61070 0.00600
H 	H 	0.40710 0.83420 0.89960 0.02800
C 	C 	0.70040 0.76670 0.59390 0.39700
C 	C 	0.72420 0.69240 0.49810 -0.14600
C 	C 	0.80040 0.75680 0.44440 0.07700
C 	C 	0.80890 0.68160 0.35320 -0.14200
C 	C 	0.74110 0.54640 0.31800 0.09200
C 	C 	0.66380 0.55640 0.45840 0.09100
C 	C 	0.66690 0.19060 0.48130 0.36400
C 	C 	0.76290 0.23000 0.59390 -0.12500
C 	C 	0.85610 0.36190 0.66220 0.06200
C 	C 	0.94020 0.39240 0.76440 -0.13500
C 	C 	0.92600 0.29100 0.79600 0.07300
C 	C 	0.75720 0.13450 0.63210 0.07700
C 	C 	0.69080 0.81700 0.88820 0.37400
C 	C 	0.74740 0.85030 0.00560 -0.13600
C 	C 	0.66250 0.84870 0.06890 0.06500
C 	C 	0.73120 0.89120 0.17790 -0.12800
C 	C 	0.87820 0.92880 0.21820 0.08200
C 	C 	0.89460 0.89110 0.05370 0.08400
C 	C 	0.74310 0.13070 0.98040 0.35300
C 	C 	0.79240 0.18920 0.10010 -0.11500
C 	C 	0.93350 0.23100 0.16670 0.04700
C 	C 	0.96460 0.28010 0.27570 -0.12500
C 	C 	0.85800 0.28910 0.31450 0.07200
C 	C 	0.69030 0.19780 0.14600 0.06700
C 	C 	0.29960 0.23330 0.40610 0.39700
C 	C 	0.27580 0.30760 0.50190 -0.14600
C 	C 	0.19960 0.24320 0.55560 0.07700
C 	C 	0.19110 0.31840 0.64680 -0.14200
C 	C 	0.25890 0.45360 0.68200 0.09200
C 	C 	0.33620 0.44360 0.54160 0.09100
C 	C 	0.33310 0.80940 0.51870 0.36400
C 	C 	0.23710 0.77000 0.40610 -0.12500
C 	C 	0.14390 0.63810 0.33780 0.06200
C 	C 	0.05980 0.60760 0.23560 -0.13500
C 	C 	0.07400 0.70900 0.20400 0.07300
C 	C 	0.24280 0.86550 0.36790 0.07700
C 	C 	0.30920 0.18300 0.11180 0.37400
C 	C 	0.25260 0.14970 0.99440 -0.13600
C 	C 	0.33750 0.15130 0.93110 0.06500
C 	C 	0.26880 0.10880 0.82210 -0.12800
C 	C 	0.12180 0.07120 0.78180 0.08200
C 	C 	0.10540 0.10890 0.94630 0.08400
C 	C 	0.25690 0.86930 0.01960 0.35300
C 	C 	0.20760 0.81080 0.89990 -0.11500
C 	C 	0.06650 0.76900 0.83330 0.04700
C 	C 	0.03540 0.71990 0.72430 -0.12500
C 	C 	0.14200 0.71090 0.68550 0.07200
C 	C 	0.30970 0.80220 0.85400 0.06700
N 	N 	0.67070 0.48230 0.36900 -0.22700
N 	N 	0.83600 0.16240 0.73210 -0.22800
N 	N 	0.96050 0.92860 0.15810 -0.22300
N 	N 	0.72140 0.24890 0.25160 -0.22200
N 	N 	0.32930 0.51770 0.63100 -0.22700
N 	N 	0.16400 0.83760 0.26790 -0.22800
N 	N 	0.03950 0.07140 0.84190 -0.22300
N 	N 	0.27860 0.75110 0.74840 -0.22200
O 	O 	0.59880 0.69950 0.61820 -0.41200
O 	O 	0.78480 0.88880 0.63980 -0.42400
O 	O 	0.59730 0.07050 0.42370 -0.33100
O 	O 	0.66650 0.28430 0.45650 -0.41200
O 	O 	0.78410 0.86420 0.84920 -0.41200
O 	O 	0.55340 0.74590 0.83770 -0.41400
O 	O 	0.83900 0.13360 0.94020 -0.41400
O 	O 	0.60820 0.08050 0.93080 -0.33400
O 	O 	0.57480 0.93980 0.74160 -1.10900
O 	O 	0.40120 0.30050 0.38180 -0.41200
O 	O 	0.21520 0.11120 0.36020 -0.42400
O 	O 	0.40270 0.92950 0.57630 -0.33100
O 	O 	0.33350 0.71570 0.54350 -0.41200
O 	O 	0.21590 0.13580 0.15080 -0.41200
O 	O 	0.44660 0.25410 0.16230 -0.41400
O 	O 	0.16100 0.86640 0.05980 -0.41400
O 	O 	0.39180 0.91950 0.06920 -0.33400
O 	O 	0.42520 0.06020 0.25840 -1.10900
