data_crystal

_cell_length_a 14.01560
_cell_length_b 20.08900
_cell_length_c 20.08900
_cell_angle_alpha 90.00000
_cell_angle_beta  90.00000
_cell_angle_gamma 90.00000

_symmetry_space_group_name_	'P 1'
_symmetry_space_group_name_H-M	'P 1'

loop_
_symmetry_equiv_pos_as_xyz
  x,y,z

loop_
_atom_site_label
_atom_site_type_symbol
_atom_site_fract_x
_atom_site_fract_y
_atom_site_fract_z
_atom_site_charge
Ni	Ni	0.84138 0.38171 0.96651 1.11600
Ni	Ni	0.84138 0.11829 0.53349 1.11600
Ni	Ni	0.84138 0.53349 0.38171 1.11500
Ni	Ni	0.84138 0.96651 0.11829 1.11500
Ni	Ni	0.65862 0.61829 0.46651 1.11500
Ni	Ni	0.65862 0.88171 0.03349 1.11500
Ni	Ni	0.65862 0.46651 0.88171 1.11500
Ni	Ni	0.65862 0.03349 0.61829 1.11500
Ni	Ni	0.15862 0.61829 0.03349 1.11500
Ni	Ni	0.15862 0.88171 0.46651 1.11500
Ni	Ni	0.15862 0.46651 0.61829 1.11500
Ni	Ni	0.15862 0.03349 0.88171 1.11500
Ni	Ni	0.34138 0.38171 0.53349 1.11500
Ni	Ni	0.34138 0.11829 0.96651 1.11500
Ni	Ni	0.34138 0.53349 0.11829 1.11500
Ni	Ni	0.34138 0.96651 0.38171 1.11500
H 	H 	0.12300 0.45190 0.90670 0.03000
H 	H 	0.26240 0.49170 0.85950 0.08600
H 	H 	0.27650 0.49860 0.74460 0.01700
H 	H 	0.01920 0.42600 0.72250 0.02400
H 	H 	0.88470 0.61160 0.81710 0.02100
H 	H 	0.02180 0.67780 0.80740 0.06800
H 	H 	0.13590 0.67710 0.89020 0.00400
H 	H 	0.98120 0.55340 0.99610 0.02200
H 	H 	0.12300 0.04810 0.59330 0.02900
H 	H 	0.26240 0.00830 0.64050 0.08600
H 	H 	0.27650 0.00140 0.75540 0.01700
H 	H 	0.01920 0.07400 0.77750 0.02400
H 	H 	0.88470 0.88840 0.68290 0.02100
H 	H 	0.02180 0.82220 0.69260 0.06800
H 	H 	0.13590 0.82290 0.60980 0.00400
H 	H 	0.98120 0.94660 0.50390 0.02100
H 	H 	0.12300 0.59330 0.45190 0.03000
H 	H 	0.26240 0.64050 0.49170 0.08600
H 	H 	0.27650 0.75540 0.49860 0.01700
H 	H 	0.01920 0.77750 0.42600 0.02400
H 	H 	0.88470 0.68290 0.61160 0.02000
H 	H 	0.02180 0.69260 0.67780 0.06900
H 	H 	0.13590 0.60980 0.67710 0.00400
H 	H 	0.98120 0.50390 0.55340 0.02100
H 	H 	0.12300 0.90670 0.04810 0.02900
H 	H 	0.26240 0.85950 0.00830 0.08600
H 	H 	0.27650 0.74460 0.00140 0.01700
H 	H 	0.01920 0.72250 0.07400 0.02400
H 	H 	0.88470 0.81710 0.88840 0.02200
H 	H 	0.02180 0.80740 0.82220 0.06800
H 	H 	0.13590 0.89020 0.82290 0.00500
H 	H 	0.98120 0.99610 0.94660 0.02200
H 	H 	0.37700 0.54810 0.40670 0.02900
H 	H 	0.23760 0.50830 0.35950 0.08600
H 	H 	0.22350 0.50140 0.24460 0.01700
H 	H 	0.48080 0.57400 0.22250 0.02400
H 	H 	0.61530 0.38840 0.31710 0.02000
H 	H 	0.47820 0.32220 0.30740 0.07000
H 	H 	0.36410 0.32290 0.39020 0.00300
H 	H 	0.51880 0.44660 0.49610 0.02100
H 	H 	0.37700 0.95190 0.09330 0.02900
H 	H 	0.23760 0.99170 0.14050 0.08600
H 	H 	0.22350 0.99860 0.25540 0.01700
H 	H 	0.48080 0.92600 0.27750 0.02400
H 	H 	0.61530 0.11160 0.18290 0.02000
H 	H 	0.47820 0.17780 0.19260 0.07000
H 	H 	0.36410 0.17710 0.10980 0.00300
H 	H 	0.51880 0.05340 0.00390 0.02200
H 	H 	0.37700 0.40670 0.95190 0.03000
H 	H 	0.23760 0.35950 0.99170 0.08600
H 	H 	0.22350 0.24460 0.99860 0.01700
H 	H 	0.48080 0.22250 0.92600 0.02400
H 	H 	0.61530 0.31710 0.11160 0.02000
H 	H 	0.47820 0.30740 0.17780 0.07000
H 	H 	0.36410 0.39020 0.17710 0.00300
H 	H 	0.51880 0.49610 0.05340 0.02100
H 	H 	0.37700 0.09330 0.54810 0.02900
H 	H 	0.23760 0.14050 0.50830 0.08600
H 	H 	0.22350 0.25540 0.50140 0.01700
H 	H 	0.48080 0.27750 0.57400 0.02400
H 	H 	0.61530 0.18290 0.38840 0.02000
H 	H 	0.47820 0.19260 0.32220 0.07000
H 	H 	0.36410 0.10980 0.32290 0.00300
H 	H 	0.51880 0.00390 0.44660 0.02100
H 	H 	0.87700 0.54810 0.09330 0.03000
H 	H 	0.73760 0.50830 0.14050 0.08600
H 	H 	0.72350 0.50140 0.25540 0.01700
H 	H 	0.98080 0.57400 0.27750 0.02400
H 	H 	0.11530 0.38840 0.18290 0.02100
H 	H 	0.97820 0.32220 0.19260 0.06800
H 	H 	0.86410 0.32290 0.10980 0.00400
H 	H 	0.01880 0.44660 0.00390 0.02200
H 	H 	0.87700 0.95190 0.40670 0.02900
H 	H 	0.73760 0.99170 0.35950 0.08600
H 	H 	0.72350 0.99860 0.24460 0.01700
H 	H 	0.98080 0.92600 0.22250 0.02400
H 	H 	0.11530 0.11160 0.31710 0.02100
H 	H 	0.97820 0.17780 0.30740 0.06800
H 	H 	0.86410 0.17710 0.39020 0.00400
H 	H 	0.01880 0.05340 0.49610 0.02100
H 	H 	0.87700 0.40670 0.54810 0.03000
H 	H 	0.73760 0.35950 0.50830 0.08600
H 	H 	0.72350 0.24460 0.50140 0.01700
H 	H 	0.98080 0.22250 0.57400 0.02400
H 	H 	0.11530 0.31710 0.38840 0.02000
H 	H 	0.97820 0.30740 0.32220 0.06900
H 	H 	0.86410 0.39020 0.32290 0.00400
H 	H 	0.01880 0.49610 0.44660 0.02100
H 	H 	0.87700 0.09330 0.95190 0.02900
H 	H 	0.73760 0.14050 0.99170 0.08600
H 	H 	0.72350 0.25540 0.99860 0.01700
H 	H 	0.98080 0.27750 0.92600 0.02400
H 	H 	0.11530 0.18290 0.11160 0.02200
H 	H 	0.97820 0.19260 0.17780 0.06800
H 	H 	0.86410 0.10980 0.17710 0.00500
H 	H 	0.01880 0.00390 0.05340 0.02200
H 	H 	0.62300 0.45190 0.59330 0.02900
H 	H 	0.76240 0.49170 0.64050 0.08600
H 	H 	0.77650 0.49860 0.75540 0.01700
H 	H 	0.51920 0.42600 0.77750 0.02400
H 	H 	0.38470 0.61160 0.68290 0.02000
H 	H 	0.52180 0.67780 0.69260 0.07000
H 	H 	0.63590 0.67710 0.60980 0.00300
H 	H 	0.48120 0.55340 0.50390 0.02100
H 	H 	0.62300 0.04810 0.90670 0.02900
H 	H 	0.76240 0.00830 0.85950 0.08600
H 	H 	0.77650 0.00140 0.74460 0.01700
H 	H 	0.51920 0.07400 0.72250 0.02400
H 	H 	0.38470 0.88840 0.81710 0.02000
H 	H 	0.52180 0.82220 0.80740 0.07000
H 	H 	0.63590 0.82290 0.89020 0.00300
H 	H 	0.48120 0.94660 0.99610 0.02200
H 	H 	0.62300 0.59330 0.04810 0.03000
H 	H 	0.76240 0.64050 0.00830 0.08600
H 	H 	0.77650 0.75540 0.00140 0.01700
H 	H 	0.51920 0.77750 0.07400 0.02400
H 	H 	0.38470 0.68290 0.88840 0.02000
H 	H 	0.52180 0.69260 0.82220 0.07000
H 	H 	0.63590 0.60980 0.82290 0.00300
H 	H 	0.48120 0.50390 0.94660 0.02100
H 	H 	0.62300 0.90670 0.45190 0.02900
H 	H 	0.76240 0.85950 0.49170 0.08600
H 	H 	0.77650 0.74460 0.49860 0.01700
H 	H 	0.51920 0.72250 0.42600 0.02400
H 	H 	0.38470 0.81710 0.61160 0.02000
H 	H 	0.52180 0.80740 0.67780 0.07000
H 	H 	0.63590 0.89020 0.67710 0.00300
H 	H 	0.48120 0.99610 0.55340 0.02100
C 	C 	0.96490 0.40380 0.84570 0.35800
C 	C 	0.05770 0.43210 0.81830 -0.12000
C 	C 	0.13000 0.45370 0.85970 0.06900
C 	C 	0.21120 0.47760 0.83200 -0.12700
C 	C 	0.21930 0.48150 0.76320 0.09100
C 	C 	0.07020 0.43870 0.75090 0.08500
C 	C 	0.84050 0.52519 0.91794 0.37500
C 	C 	0.92070 0.57441 0.90800 -0.13700
C 	C 	0.93140 0.61220 0.85140 0.06400
C 	C 	0.01240 0.65120 0.84600 -0.12700
C 	C 	0.07920 0.65180 0.89590 0.07800
C 	C 	0.98940 0.57915 0.95689 0.08700
C 	C 	0.96490 0.09620 0.65430 0.36000
C 	C 	0.05770 0.06790 0.68170 -0.12300
C 	C 	0.13000 0.04630 0.64030 0.07100
C 	C 	0.21120 0.02240 0.66800 -0.12900
C 	C 	0.21930 0.01850 0.73680 0.09100
C 	C 	0.07020 0.06130 0.74910 0.08600
C 	C 	0.84050 0.97481 0.58206 0.37300
C 	C 	0.92070 0.92559 0.59200 -0.13600
C 	C 	0.93140 0.88780 0.64860 0.06400
C 	C 	0.01240 0.84880 0.65400 -0.12700
C 	C 	0.07920 0.84820 0.60410 0.07800
C 	C 	0.98940 0.92085 0.54311 0.08700
C 	C 	0.96490 0.65430 0.40380 0.35800
C 	C 	0.05770 0.68170 0.43210 -0.12100
C 	C 	0.13000 0.64030 0.45370 0.07000
C 	C 	0.21120 0.66800 0.47760 -0.12800
C 	C 	0.21930 0.73680 0.48150 0.09100
C 	C 	0.07020 0.74910 0.43870 0.08600
C 	C 	0.84050 0.58206 0.52519 0.37500
C 	C 	0.92070 0.59200 0.57441 -0.13800
C 	C 	0.93140 0.64860 0.61220 0.06600
C 	C 	0.01240 0.65400 0.65120 -0.13000
C 	C 	0.07920 0.60410 0.65180 0.07900
C 	C 	0.98940 0.54311 0.57915 0.08900
C 	C 	0.96490 0.84570 0.09620 0.35900
C 	C 	0.05770 0.81830 0.06790 -0.12200
C 	C 	0.13000 0.85970 0.04630 0.07000
C 	C 	0.21120 0.83200 0.02240 -0.12800
C 	C 	0.21930 0.76320 0.01850 0.09100
C 	C 	0.07020 0.75090 0.06130 0.08600
C 	C 	0.84050 0.91794 0.97481 0.37500
C 	C 	0.92070 0.90800 0.92559 -0.13600
C 	C 	0.93140 0.85140 0.88780 0.06200
C 	C 	0.01240 0.84600 0.84880 -0.12500
C 	C 	0.07920 0.89590 0.84820 0.07700
C 	C 	0.98940 0.95689 0.92085 0.08500
C 	C 	0.53510 0.59620 0.34570 0.35900
C 	C 	0.44230 0.56790 0.31830 -0.12100
C 	C 	0.37000 0.54630 0.35970 0.07000
C 	C 	0.28880 0.52240 0.33200 -0.12800
C 	C 	0.28070 0.51850 0.26320 0.09100
C 	C 	0.42980 0.56130 0.25090 0.08600
C 	C 	0.65950 0.47481 0.41794 0.37600
C 	C 	0.57930 0.42559 0.40800 -0.13900
C 	C 	0.56860 0.38780 0.35140 0.06900
C 	C 	0.48760 0.34880 0.34600 -0.13200
C 	C 	0.42080 0.34820 0.39590 0.08000
C 	C 	0.51060 0.42085 0.45689 0.09000
C 	C 	0.53510 0.90380 0.15430 0.35900
C 	C 	0.44230 0.93210 0.18170 -0.12200
C 	C 	0.37000 0.95370 0.14030 0.07000
C 	C 	0.28880 0.97760 0.16800 -0.12800
C 	C 	0.28070 0.98150 0.23680 0.09100
C 	C 	0.42980 0.93870 0.24910 0.08600
C 	C 	0.65950 0.02519 0.08206 0.37900
C 	C 	0.57930 0.07441 0.09200 -0.14000
C 	C 	0.56860 0.11220 0.14860 0.07000
C 	C 	0.48760 0.15120 0.15400 -0.13200
C 	C 	0.42080 0.15180 0.10410 0.08000
C 	C 	0.51060 0.07915 0.04311 0.09100
C 	C 	0.53510 0.34570 0.90380 0.35900
C 	C 	0.44230 0.31830 0.93210 -0.12100
C 	C 	0.37000 0.35970 0.95370 0.07000
C 	C 	0.28880 0.33200 0.97760 -0.12800
C 	C 	0.28070 0.26320 0.98150 0.09100
C 	C 	0.42980 0.25090 0.93870 0.08600
C 	C 	0.65950 0.41794 0.02519 0.37700
C 	C 	0.57930 0.40800 0.07441 -0.13900
C 	C 	0.56860 0.35140 0.11220 0.06900
C 	C 	0.48760 0.34600 0.15120 -0.13200
C 	C 	0.42080 0.39590 0.15180 0.08000
C 	C 	0.51060 0.45689 0.07915 0.09000
C 	C 	0.53510 0.15430 0.59620 0.35900
C 	C 	0.44230 0.18170 0.56790 -0.12100
C 	C 	0.37000 0.14030 0.54630 0.07000
C 	C 	0.28880 0.16800 0.52240 -0.12800
C 	C 	0.28070 0.23680 0.51850 0.09100
C 	C 	0.42980 0.24910 0.56130 0.08600
C 	C 	0.65950 0.08206 0.47481 0.37600
C 	C 	0.57930 0.09200 0.42559 -0.13900
C 	C 	0.56860 0.14860 0.38780 0.06900
C 	C 	0.48760 0.15400 0.34880 -0.13200
C 	C 	0.42080 0.10410 0.34820 0.08000
C 	C 	0.51060 0.04311 0.42085 0.09000
C 	C 	0.03510 0.59620 0.15430 0.35800
C 	C 	0.94230 0.56790 0.18170 -0.12000
C 	C 	0.87000 0.54630 0.14030 0.06900
C 	C 	0.78880 0.52240 0.16800 -0.12700
C 	C 	0.78070 0.51850 0.23680 0.09100
C 	C 	0.92980 0.56130 0.24910 0.08500
C 	C 	0.15950 0.47481 0.08206 0.37500
C 	C 	0.07930 0.42559 0.09200 -0.13700
C 	C 	0.06860 0.38780 0.14860 0.06400
C 	C 	0.98760 0.34880 0.15400 -0.12700
C 	C 	0.92080 0.34820 0.10410 0.07800
C 	C 	0.01060 0.42085 0.04311 0.08700
C 	C 	0.03510 0.90380 0.34570 0.36000
C 	C 	0.94230 0.93210 0.31830 -0.12300
C 	C 	0.87000 0.95370 0.35970 0.07100
C 	C 	0.78880 0.97760 0.33200 -0.12900
C 	C 	0.78070 0.98150 0.26320 0.09100
C 	C 	0.92980 0.93870 0.25090 0.08600
C 	C 	0.15950 0.02519 0.41794 0.37300
C 	C 	0.07930 0.07441 0.40800 -0.13600
C 	C 	0.06860 0.11220 0.35140 0.06400
C 	C 	0.98760 0.15120 0.34600 -0.12700
C 	C 	0.92080 0.15180 0.39590 0.07800
C 	C 	0.01060 0.07915 0.45689 0.08700
C 	C 	0.03510 0.34570 0.59620 0.35800
C 	C 	0.94230 0.31830 0.56790 -0.12100
C 	C 	0.87000 0.35970 0.54630 0.07000
C 	C 	0.78880 0.33200 0.52240 -0.12800
C 	C 	0.78070 0.26320 0.51850 0.09100
C 	C 	0.92980 0.25090 0.56130 0.08600
C 	C 	0.15950 0.41794 0.47481 0.37500
C 	C 	0.07930 0.40800 0.42559 -0.13800
C 	C 	0.06860 0.35140 0.38780 0.06600
C 	C 	0.98760 0.34600 0.34880 -0.13000
C 	C 	0.92080 0.39590 0.34820 0.07900
C 	C 	0.01060 0.45689 0.42085 0.08900
C 	C 	0.03510 0.15430 0.90380 0.35900
C 	C 	0.94230 0.18170 0.93210 -0.12200
C 	C 	0.87000 0.14030 0.95370 0.07000
C 	C 	0.78880 0.16800 0.97760 -0.12800
C 	C 	0.78070 0.23680 0.98150 0.09100
C 	C 	0.92980 0.24910 0.93870 0.08600
C 	C 	0.15950 0.08206 0.02519 0.37500
C 	C 	0.07930 0.09200 0.07441 -0.13600
C 	C 	0.06860 0.14860 0.11220 0.06200
C 	C 	0.98760 0.15400 0.15120 -0.12500
C 	C 	0.92080 0.10410 0.15180 0.07700
C 	C 	0.01060 0.04311 0.07915 0.08500
C 	C 	0.46490 0.40380 0.65430 0.35900
C 	C 	0.55770 0.43210 0.68170 -0.12100
C 	C 	0.63000 0.45370 0.64030 0.07000
C 	C 	0.71120 0.47760 0.66800 -0.12800
C 	C 	0.71930 0.48150 0.73680 0.09100
C 	C 	0.57020 0.43870 0.74910 0.08600
C 	C 	0.34050 0.52519 0.58206 0.37600
C 	C 	0.42070 0.57441 0.59200 -0.13900
C 	C 	0.43140 0.61220 0.64860 0.06900
C 	C 	0.51240 0.65120 0.65400 -0.13200
C 	C 	0.57920 0.65180 0.60410 0.08000
C 	C 	0.48940 0.57915 0.54311 0.09000
C 	C 	0.46490 0.09620 0.84570 0.35900
C 	C 	0.55770 0.06790 0.81830 -0.12200
C 	C 	0.63000 0.04630 0.85970 0.07000
C 	C 	0.71120 0.02240 0.83200 -0.12800
C 	C 	0.71930 0.01850 0.76320 0.09100
C 	C 	0.57020 0.06130 0.75090 0.08600
C 	C 	0.34050 0.97481 0.91794 0.37900
C 	C 	0.42070 0.92559 0.90800 -0.14000
C 	C 	0.43140 0.88780 0.85140 0.07000
C 	C 	0.51240 0.84880 0.84600 -0.13200
C 	C 	0.57920 0.84820 0.89590 0.08000
C 	C 	0.48940 0.92085 0.95689 0.09100
C 	C 	0.46490 0.65430 0.09620 0.35900
C 	C 	0.55770 0.68170 0.06790 -0.12100
C 	C 	0.63000 0.64030 0.04630 0.07000
C 	C 	0.71120 0.66800 0.02240 -0.12800
C 	C 	0.71930 0.73680 0.01850 0.09100
C 	C 	0.57020 0.74910 0.06130 0.08600
C 	C 	0.34050 0.58206 0.97481 0.37700
C 	C 	0.42070 0.59200 0.92559 -0.13900
C 	C 	0.43140 0.64860 0.88780 0.06900
C 	C 	0.51240 0.65400 0.84880 -0.13200
C 	C 	0.57920 0.60410 0.84820 0.08000
C 	C 	0.48940 0.54311 0.92085 0.09000
C 	C 	0.46490 0.84570 0.40380 0.35900
C 	C 	0.55770 0.81830 0.43210 -0.12100
C 	C 	0.63000 0.85970 0.45370 0.07000
C 	C 	0.71120 0.83200 0.47760 -0.12800
C 	C 	0.71930 0.76320 0.48150 0.09100
C 	C 	0.57020 0.75090 0.43870 0.08600
C 	C 	0.34050 0.91794 0.52519 0.37600
C 	C 	0.42070 0.90800 0.57441 -0.13900
C 	C 	0.43140 0.85140 0.61220 0.06900
C 	C 	0.51240 0.84600 0.65120 -0.13200
C 	C 	0.57920 0.89590 0.65180 0.08000
C 	C 	0.48940 0.95689 0.57915 0.09000
N 	N 	0.15010 0.46205 0.72270 -0.21900
N 	N 	0.06650 0.61753 0.95266 -0.22200
N 	N 	0.15010 0.03795 0.77730 -0.21900
N 	N 	0.06650 0.88247 0.54734 -0.22200
N 	N 	0.15010 0.77730 0.46205 -0.21900
N 	N 	0.06650 0.54734 0.61753 -0.22300
N 	N 	0.15010 0.72270 0.03795 -0.21900
N 	N 	0.06650 0.95266 0.88247 -0.22000
N 	N 	0.34990 0.53795 0.22270 -0.21900
N 	N 	0.43350 0.38247 0.45266 -0.22400
N 	N 	0.34990 0.96205 0.27730 -0.21900
N 	N 	0.43350 0.11753 0.04734 -0.22400
N 	N 	0.34990 0.22270 0.96205 -0.21900
N 	N 	0.43350 0.45266 0.11753 -0.22400
N 	N 	0.34990 0.27730 0.53795 -0.21900
N 	N 	0.43350 0.04734 0.38247 -0.22400
N 	N 	0.84990 0.53795 0.27730 -0.21900
N 	N 	0.93350 0.38247 0.04734 -0.22200
N 	N 	0.84990 0.96205 0.22270 -0.21900
N 	N 	0.93350 0.11753 0.45266 -0.22200
N 	N 	0.84990 0.22270 0.53795 -0.21900
N 	N 	0.93350 0.45266 0.38247 -0.22300
N 	N 	0.84990 0.27730 0.96205 -0.21900
N 	N 	0.93350 0.04734 0.11753 -0.22000
N 	N 	0.65010 0.46205 0.77730 -0.21900
N 	N 	0.56650 0.61753 0.54734 -0.22400
N 	N 	0.65010 0.03795 0.72270 -0.21900
N 	N 	0.56650 0.88247 0.95266 -0.22400
N 	N 	0.65010 0.77730 0.03795 -0.21900
N 	N 	0.56650 0.54734 0.88247 -0.22400
N 	N 	0.65010 0.72270 0.46205 -0.21900
N 	N 	0.56650 0.95266 0.61753 -0.22400
O 	O 	0.96006 0.39260 0.90527 -0.39600
O 	O 	0.89660 0.39490 0.80480 -0.24500
O 	O 	0.84892 0.48540 0.96585 -0.40900
O 	O 	0.77324 0.52708 0.87601 -0.41800
O 	O 	0.96006 0.10740 0.59473 -0.39500
O 	O 	0.89660 0.10510 0.69520 -0.24500
O 	O 	0.84892 0.01460 0.53415 -0.40700
O 	O 	0.77324 0.97292 0.62399 -0.41700
O 	O 	0.96006 0.59473 0.39260 -0.39500
O 	O 	0.89660 0.69520 0.39490 -0.24500
O 	O 	0.84892 0.53415 0.48540 -0.40800
O 	O 	0.77324 0.62399 0.52708 -0.41800
O 	O 	0.96006 0.90527 0.10740 -0.39600
O 	O 	0.89660 0.80480 0.10510 -0.24500
O 	O 	0.84892 0.96585 0.01460 -0.40900
O 	O 	0.77324 0.87601 0.97292 -0.41700
O 	O 	0.53994 0.60740 0.40527 -0.39600
O 	O 	0.60340 0.60510 0.30480 -0.24500
O 	O 	0.65108 0.51460 0.46585 -0.40800
O 	O 	0.72676 0.47292 0.37601 -0.41800
O 	O 	0.53994 0.89260 0.09473 -0.39600
O 	O 	0.60340 0.89490 0.19520 -0.24600
O 	O 	0.65108 0.98540 0.03415 -0.41100
O 	O 	0.72676 0.02708 0.12399 -0.41700
O 	O 	0.53994 0.40527 0.89260 -0.39600
O 	O 	0.60340 0.30480 0.89490 -0.24500
O 	O 	0.65108 0.46585 0.98540 -0.40900
O 	O 	0.72676 0.37601 0.02708 -0.41700
O 	O 	0.53994 0.09473 0.60740 -0.39600
O 	O 	0.60340 0.19520 0.60510 -0.24500
O 	O 	0.65108 0.03415 0.51460 -0.40800
O 	O 	0.72676 0.12399 0.47292 -0.41800
O 	O 	0.03994 0.60740 0.09473 -0.39600
O 	O 	0.10340 0.60510 0.19520 -0.24500
O 	O 	0.15108 0.51460 0.03415 -0.40900
O 	O 	0.22676 0.47292 0.12399 -0.41800
O 	O 	0.03994 0.89260 0.40527 -0.39500
O 	O 	0.10340 0.89490 0.30480 -0.24500
O 	O 	0.15108 0.98540 0.46585 -0.40700
O 	O 	0.22676 0.02708 0.37601 -0.41700
O 	O 	0.03994 0.40527 0.60740 -0.39500
O 	O 	0.10340 0.30480 0.60510 -0.24500
O 	O 	0.15108 0.46585 0.51460 -0.40800
O 	O 	0.22676 0.37601 0.47292 -0.41800
O 	O 	0.03994 0.09473 0.89260 -0.39600
O 	O 	0.10340 0.19520 0.89490 -0.24500
O 	O 	0.15108 0.03415 0.98540 -0.40900
O 	O 	0.22676 0.12399 0.02708 -0.41700
O 	O 	0.46006 0.39260 0.59473 -0.39600
O 	O 	0.39660 0.39490 0.69520 -0.24500
O 	O 	0.34892 0.48540 0.53415 -0.40800
O 	O 	0.27324 0.52708 0.62399 -0.41800
O 	O 	0.46006 0.10740 0.90527 -0.39600
O 	O 	0.39660 0.10510 0.80480 -0.24600
O 	O 	0.34892 0.01460 0.96585 -0.41100
O 	O 	0.27324 0.97292 0.87601 -0.41700
O 	O 	0.46006 0.59473 0.10740 -0.39600
O 	O 	0.39660 0.69520 0.10510 -0.24500
O 	O 	0.34892 0.53415 0.01460 -0.40900
O 	O 	0.27324 0.62399 0.97292 -0.41700
O 	O 	0.46006 0.90527 0.39260 -0.39600
O 	O 	0.39660 0.80480 0.39490 -0.24500
O 	O 	0.34892 0.96585 0.48540 -0.40800
O 	O 	0.27324 0.87601 0.52708 -0.41800
O 	O 	0.75000 0.38260 0.88260 -0.35200
O 	O 	0.75000 0.11740 0.61740 -0.35200
O 	O 	0.75000 0.61740 0.38260 -0.35200
O 	O 	0.75000 0.88260 0.11740 -0.35200
O 	O 	0.25000 0.61740 0.11740 -0.35200
O 	O 	0.25000 0.88260 0.38260 -0.35200
O 	O 	0.25000 0.38260 0.61740 -0.35200
O 	O 	0.25000 0.11740 0.88260 -0.35200
