data_crystal

_cell_length_a 14.08210
_cell_length_b 15.24980
_cell_length_c 18.60580
_cell_angle_alpha 90.00000
_cell_angle_beta  106.74700
_cell_angle_gamma 90.00000

_symmetry_space_group_name_	'P 1'
_symmetry_space_group_name_H-M	'P 1'

loop_
_symmetry_equiv_pos_as_xyz
  x,y,z

loop_
_atom_site_label
_atom_site_type_symbol
_atom_site_fract_x
_atom_site_fract_y
_atom_site_fract_z
_atom_site_charge
Ni	Ni	0.36665 0.61992 0.21659 1.11600
O 	O 	0.32640 0.55400 0.11356 -0.40200
O 	O 	0.43510 0.71110 0.16466 -0.41800
C 	C 	0.38320 0.51230 0.08490 0.38300
C 	C 	0.51070 0.70310 0.14270 0.40900
O 	O 	0.46420 0.47770 0.12080 -0.29400
N 	N 	0.28800 0.47390 0.76240 -0.20400
C 	C 	0.17850 0.58740 0.82490 -0.00800
H 	H 	0.14080 0.62630 0.84580 0.04800
C 	C 	0.25270 0.53600 0.87120 -0.03500
C 	C 	0.27890 0.53990 0.95400 0.07200
H 	H 	0.23530 0.57200 0.97480 0.02200
C 	C 	0.30520 0.48050 0.83670 0.03600
H 	H 	0.35620 0.44530 0.86790 0.03000
C 	C 	0.35590 0.50380 0.00140 -0.24000
H 	H 	0.39810 0.46920 0.98110 0.12500
C 	C 	0.16030 0.58120 0.74800 -0.08100
H 	H 	0.11030 0.61620 0.71540 0.07000
C 	C 	0.21530 0.52370 0.71900 0.04900
H 	H 	0.20100 0.51920 0.66610 0.02000
O 	O 	0.59730 0.68240 0.18221 -0.42400
N 	N 	0.26310 0.80670 0.82260 -0.20600
C 	C 	0.38400 0.74740 0.93120 -0.03100
C 	C 	0.30030 0.79510 0.89690 0.02700
H 	H 	0.26610 0.82190 0.92840 0.02900
C 	C 	0.41280 0.73980 0.01350 0.05800
H 	H 	0.36290 0.75470 0.03650 0.02400
C 	C 	0.49910 0.71490 0.06020 -0.23700
H 	H 	0.55400 0.70450 0.04140 0.12200
C 	C 	0.31000 0.76740 0.77910 0.05200
H 	H 	0.28540 0.77480 0.72620 0.01800
C 	C 	0.39430 0.71570 0.80800 -0.07500
H 	H 	0.42550 0.68780 0.77510 0.06100
C 	C 	0.43200 0.70540 0.88480 -0.01300
H 	H 	0.48930 0.67050 0.90550 0.05200
Ni	Ni	0.86665 0.11992 0.21659 1.11600
O 	O 	0.82640 0.05400 0.11356 -0.40100
O 	O 	0.93510 0.21110 0.16466 -0.42800
C 	C 	0.88320 0.01230 0.08490 0.38000
C 	C 	0.01070 0.20310 0.14270 0.43600
O 	O 	0.96420 0.97770 0.12080 -0.29700
N 	N 	0.78800 0.97390 0.76240 -0.20500
C 	C 	0.67850 0.08740 0.82490 -0.01200
H 	H 	0.64080 0.12630 0.84580 0.04800
C 	C 	0.75270 0.03600 0.87120 -0.03100
C 	C 	0.77890 0.03990 0.95400 0.06200
H 	H 	0.73530 0.07200 0.97480 0.02400
C 	C 	0.80520 0.98050 0.83670 0.03200
H 	H 	0.85620 0.94530 0.86790 0.02900
C 	C 	0.85590 0.00380 0.00140 -0.22900
H 	H 	0.89810 0.96920 0.98110 0.11800
C 	C 	0.66030 0.08120 0.74800 -0.08000
H 	H 	0.61030 0.11620 0.71540 0.06700
C 	C 	0.71530 0.02370 0.71900 0.04800
H 	H 	0.70100 0.01920 0.66610 0.01900
O 	O 	0.09730 0.18240 0.18221 -0.42900
N 	N 	0.76310 0.30670 0.82260 -0.20800
C 	C 	0.88400 0.24740 0.93120 -0.04600
C 	C 	0.80030 0.29510 0.89690 0.03300
H 	H 	0.76610 0.32190 0.92840 0.02600
C 	C 	0.91280 0.23980 0.01350 0.08100
H 	H 	0.86290 0.25470 0.03650 0.01700
C 	C 	0.99910 0.21490 0.06020 -0.27300
H 	H 	0.05400 0.20450 0.04140 0.13800
C 	C 	0.81000 0.26740 0.77910 0.05400
H 	H 	0.78540 0.27480 0.72620 0.01600
C 	C 	0.89430 0.21570 0.80800 -0.08100
H 	H 	0.92550 0.18780 0.77510 0.06000
C 	C 	0.93200 0.20540 0.88480 -0.00500
H 	H 	0.98930 0.17050 0.90550 0.04500
Ni	Ni	0.63335 0.61992 0.28341 1.11700
O 	O 	0.67360 0.55400 0.38644 -0.40100
O 	O 	0.56490 0.71110 0.33534 -0.41700
C 	C 	0.61680 0.51230 0.41510 0.38100
C 	C 	0.48930 0.70310 0.35730 0.41100
O 	O 	0.53580 0.47770 0.37920 -0.29300
N 	N 	0.71200 0.47390 0.73760 -0.20400
C 	C 	0.82150 0.58740 0.67510 -0.01100
H 	H 	0.85920 0.62630 0.65420 0.04700
C 	C 	0.74730 0.53600 0.62880 -0.03300
C 	C 	0.72110 0.53990 0.54600 0.06600
H 	H 	0.76470 0.57200 0.52520 0.02200
C 	C 	0.69480 0.48050 0.66330 0.03400
H 	H 	0.64380 0.44530 0.63210 0.03000
C 	C 	0.64410 0.50380 0.49860 -0.23300
H 	H 	0.60190 0.46920 0.51890 0.12200
C 	C 	0.83970 0.58120 0.75200 -0.08100
H 	H 	0.88970 0.61620 0.78460 0.06500
C 	C 	0.78470 0.52370 0.78100 0.04800
H 	H 	0.79900 0.51920 0.83390 0.01800
O 	O 	0.40270 0.68240 0.31779 -0.42400
N 	N 	0.73690 0.80670 0.67740 -0.20700
C 	C 	0.61600 0.74740 0.56880 -0.03300
C 	C 	0.69970 0.79510 0.60310 0.02800
H 	H 	0.73390 0.82190 0.57160 0.02900
C 	C 	0.58720 0.73980 0.48650 0.06100
H 	H 	0.63710 0.75470 0.46350 0.02400
C 	C 	0.50090 0.71490 0.43980 -0.23900
H 	H 	0.44600 0.70450 0.45860 0.12300
C 	C 	0.69000 0.76740 0.72090 0.05200
H 	H 	0.71460 0.77480 0.77380 0.01700
C 	C 	0.60570 0.71570 0.69200 -0.07600
H 	H 	0.57450 0.68780 0.72490 0.06100
C 	C 	0.56800 0.70540 0.61520 -0.01200
H 	H 	0.51070 0.67050 0.59450 0.05200
Ni	Ni	0.13335 0.11992 0.28341 1.11700
O 	O 	0.17360 0.05400 0.38644 -0.40000
O 	O 	0.06490 0.21110 0.33534 -0.40500
C 	C 	0.11680 0.01230 0.41510 0.38100
C 	C 	0.98930 0.20310 0.35730 0.38100
O 	O 	0.03580 0.97770 0.37920 -0.28900
N 	N 	0.21200 0.97390 0.73760 -0.20400
C 	C 	0.32150 0.08740 0.67510 -0.01100
H 	H 	0.35920 0.12630 0.65420 0.04800
C 	C 	0.24730 0.03600 0.62880 -0.03200
C 	C 	0.22110 0.03990 0.54600 0.06600
H 	H 	0.26470 0.07200 0.52520 0.02300
C 	C 	0.19480 0.98050 0.66330 0.03400
H 	H 	0.14380 0.94530 0.63210 0.03100
C 	C 	0.14410 0.00380 0.49860 -0.23200
H 	H 	0.10190 0.96920 0.51890 0.12300
C 	C 	0.33970 0.08120 0.75200 -0.08100
H 	H 	0.38970 0.11620 0.78460 0.06700
C 	C 	0.28470 0.02370 0.78100 0.04900
H 	H 	0.29900 0.01920 0.83390 0.01900
O 	O 	0.90270 0.18240 0.31779 -0.41800
N 	N 	0.23690 0.30670 0.67740 -0.20500
C 	C 	0.11600 0.24740 0.56880 -0.02000
C 	C 	0.19970 0.29510 0.60310 0.02200
H 	H 	0.23390 0.32190 0.57160 0.03100
C 	C 	0.08720 0.23980 0.48650 0.03800
H 	H 	0.13710 0.25470 0.46350 0.03100
C 	C 	0.00090 0.21490 0.43980 -0.19700
H 	H 	0.94600 0.20450 0.45860 0.10300
C 	C 	0.19000 0.26740 0.72090 0.05000
H 	H 	0.21460 0.27480 0.77380 0.01900
C 	C 	0.10570 0.21570 0.69200 -0.07000
H 	H 	0.07450 0.18780 0.72490 0.06100
C 	C 	0.06800 0.20540 0.61520 -0.01900
H 	H 	0.01070 0.17050 0.59450 0.05800
Ni	Ni	0.63335 0.38008 0.78341 1.11700
O 	O 	0.67360 0.44600 0.88644 -0.40100
O 	O 	0.56490 0.28890 0.83534 -0.41700
C 	C 	0.61680 0.48770 0.91510 0.38200
C 	C 	0.48930 0.29690 0.85730 0.41100
O 	O 	0.53580 0.52230 0.87920 -0.29300
N 	N 	0.71200 0.52610 0.23760 -0.20400
C 	C 	0.82150 0.41260 0.17510 -0.01100
H 	H 	0.85920 0.37370 0.15420 0.04700
C 	C 	0.74730 0.46400 0.12880 -0.03300
C 	C 	0.72110 0.46010 0.04600 0.06600
H 	H 	0.76470 0.42800 0.02520 0.02200
C 	C 	0.69480 0.51950 0.16330 0.03400
H 	H 	0.64380 0.55470 0.13210 0.03000
C 	C 	0.64410 0.49620 0.99860 -0.23300
H 	H 	0.60190 0.53080 0.01890 0.12200
C 	C 	0.83970 0.41880 0.25200 -0.08100
H 	H 	0.88970 0.38380 0.28460 0.06600
C 	C 	0.78470 0.47630 0.28100 0.04800
H 	H 	0.79900 0.48080 0.33390 0.01800
O 	O 	0.40270 0.31760 0.81779 -0.42400
N 	N 	0.73690 0.19330 0.17740 -0.20700
C 	C 	0.61600 0.25260 0.06880 -0.03400
C 	C 	0.69970 0.20490 0.10310 0.02800
H 	H 	0.73390 0.17810 0.07160 0.02900
C 	C 	0.58720 0.26020 0.98650 0.06200
H 	H 	0.63710 0.24530 0.96350 0.02300
C 	C 	0.50090 0.28510 0.93980 -0.23900
H 	H 	0.44600 0.29550 0.95860 0.12300
C 	C 	0.69000 0.23260 0.22090 0.05200
H 	H 	0.71460 0.22520 0.27380 0.01700
C 	C 	0.60570 0.28430 0.19200 -0.07600
H 	H 	0.57450 0.31220 0.22490 0.06100
C 	C 	0.56800 0.29460 0.11520 -0.01100
H 	H 	0.51070 0.32950 0.09450 0.05100
Ni	Ni	0.13335 0.88008 0.78341 1.11700
O 	O 	0.17360 0.94600 0.88644 -0.39900
O 	O 	0.06490 0.78890 0.83534 -0.40200
C 	C 	0.11680 0.98770 0.91510 0.37700
C 	C 	0.98930 0.79690 0.85730 0.37400
O 	O 	0.03580 0.02230 0.87920 -0.28600
N 	N 	0.21200 0.02610 0.23760 -0.20300
C 	C 	0.32150 0.91260 0.17510 -0.01300
H 	H 	0.35920 0.87370 0.15420 0.04800
C 	C 	0.24730 0.96400 0.12880 -0.02900
C 	C 	0.22110 0.96010 0.04600 0.05700
H 	H 	0.26470 0.92800 0.02520 0.02500
C 	C 	0.19480 0.01950 0.16330 0.03200
H 	H 	0.14380 0.05470 0.13210 0.03200
C 	C 	0.14410 0.99620 0.99860 -0.22100
H 	H 	0.10190 0.03080 0.01890 0.11900
C 	C 	0.33970 0.91880 0.25200 -0.07900
H 	H 	0.38970 0.88380 0.28460 0.06700
C 	C 	0.28470 0.97630 0.28100 0.04700
H 	H 	0.29900 0.98080 0.33390 0.02000
O 	O 	0.90270 0.81760 0.81779 -0.41700
N 	N 	0.23690 0.69330 0.17740 -0.20500
C 	C 	0.11600 0.75260 0.06880 -0.02200
C 	C 	0.19970 0.70490 0.10310 0.02300
H 	H 	0.23390 0.67810 0.07160 0.03000
C 	C 	0.08720 0.76020 0.98650 0.03800
H 	H 	0.13710 0.74530 0.96350 0.03200
C 	C 	0.00090 0.78510 0.93980 -0.18900
H 	H 	0.94600 0.79550 0.95860 0.09900
C 	C 	0.19000 0.73260 0.22090 0.05100
H 	H 	0.21460 0.72520 0.27380 0.01800
C 	C 	0.10570 0.78430 0.19200 -0.07100
H 	H 	0.07450 0.81220 0.22490 0.06100
C 	C 	0.06800 0.79460 0.11520 -0.01800
H 	H 	0.01070 0.82950 0.09450 0.05700
Ni	Ni	0.36665 0.38008 0.71659 1.11700
O 	O 	0.32640 0.44600 0.61356 -0.40000
O 	O 	0.43510 0.28890 0.66466 -0.41700
C 	C 	0.38320 0.48770 0.58490 0.38200
C 	C 	0.51070 0.29690 0.64270 0.41100
O 	O 	0.46420 0.52230 0.62080 -0.29300
N 	N 	0.28800 0.52610 0.26240 -0.20400
C 	C 	0.17850 0.41260 0.32490 -0.01000
H 	H 	0.14080 0.37370 0.34580 0.04800
C 	C 	0.25270 0.46400 0.37120 -0.03300
C 	C 	0.27890 0.46010 0.45400 0.06600
H 	H 	0.23530 0.42800 0.47480 0.02300
C 	C 	0.30520 0.51950 0.33670 0.03400
H 	H 	0.35620 0.55470 0.36790 0.03000
C 	C 	0.35590 0.49620 0.50140 -0.23300
H 	H 	0.39810 0.53080 0.48110 0.12200
C 	C 	0.16030 0.41880 0.24800 -0.08100
H 	H 	0.11030 0.38380 0.21540 0.06900
C 	C 	0.21530 0.47630 0.21900 0.04900
H 	H 	0.20100 0.48080 0.16610 0.02000
O 	O 	0.59730 0.31760 0.68221 -0.42400
N 	N 	0.26310 0.19330 0.32260 -0.20700
C 	C 	0.38400 0.25260 0.43120 -0.03300
C 	C 	0.30030 0.20490 0.39690 0.02800
H 	H 	0.26610 0.17810 0.42840 0.02800
C 	C 	0.41280 0.26020 0.51350 0.06100
H 	H 	0.36290 0.24530 0.53650 0.02300
C 	C 	0.49910 0.28510 0.56020 -0.23800
H 	H 	0.55400 0.29550 0.54140 0.12200
C 	C 	0.31000 0.23260 0.27910 0.05200
H 	H 	0.28540 0.22520 0.22620 0.01700
C 	C 	0.39430 0.28430 0.30800 -0.07600
H 	H 	0.42550 0.31220 0.27510 0.06100
C 	C 	0.43200 0.29460 0.38480 -0.01200
H 	H 	0.48930 0.32950 0.40550 0.05100
Ni	Ni	0.86665 0.88008 0.71659 1.11500
O 	O 	0.82640 0.94600 0.61356 -0.40100
O 	O 	0.93510 0.78890 0.66466 -0.43200
C 	C 	0.88320 0.98770 0.58490 0.38200
C 	C 	0.01070 0.79690 0.64270 0.44300
O 	O 	0.96420 0.02230 0.62080 -0.30000
N 	N 	0.78800 0.02610 0.26240 -0.20500
C 	C 	0.67850 0.91260 0.32490 -0.01100
H 	H 	0.64080 0.87370 0.34580 0.04700
C 	C 	0.75270 0.96400 0.37120 -0.03300
C 	C 	0.77890 0.96010 0.45400 0.06600
H 	H 	0.73530 0.92800 0.47480 0.02300
C 	C 	0.80520 0.01950 0.33670 0.03400
H 	H 	0.85620 0.05470 0.36790 0.02900
C 	C 	0.85590 0.99620 0.50140 -0.23400
H 	H 	0.89810 0.03080 0.48110 0.12100
C 	C 	0.66030 0.91880 0.24800 -0.08100
H 	H 	0.61030 0.88380 0.21540 0.06700
C 	C 	0.71530 0.97630 0.21900 0.04800
H 	H 	0.70100 0.98080 0.16610 0.01900
O 	O 	0.09730 0.81760 0.68221 -0.43100
N 	N 	0.76310 0.69330 0.32260 -0.20800
C 	C 	0.88400 0.75260 0.43120 -0.04700
C 	C 	0.80030 0.70490 0.39690 0.03400
H 	H 	0.76610 0.67810 0.42840 0.02600
C 	C 	0.91280 0.76020 0.51350 0.08500
H 	H 	0.86290 0.74530 0.53650 0.01500
C 	C 	0.99910 0.78510 0.56020 -0.28300
H 	H 	0.05400 0.79550 0.54140 0.14300
C 	C 	0.81000 0.73260 0.27910 0.05400
H 	H 	0.78540 0.72520 0.22620 0.01600
C 	C 	0.89430 0.78430 0.30800 -0.08100
H 	H 	0.92550 0.81220 0.27510 0.06000
C 	C 	0.93200 0.79460 0.38480 -0.00400
H 	H 	0.98930 0.82950 0.40550 0.04500
O 	O 	0.50000 0.54860 0.25000 -0.51500
H 	H 	0.50000 0.48630 0.25000 0.21700
O 	O 	0.00000 0.04860 0.25000 -0.51100
H 	H 	0.00000 0.98630 0.25000 0.21800
O 	O 	0.50000 0.45140 0.75000 -0.51500
H 	H 	0.50000 0.51370 0.75000 0.21700
O 	O 	0.00000 0.95140 0.75000 -0.51100
H 	H 	0.00000 0.01370 0.75000 0.21900
