data_crystal

_cell_length_a 6.72400
_cell_length_b 14.09600
_cell_length_c 23.98400
_cell_angle_alpha 90.00000
_cell_angle_beta  90.00000
_cell_angle_gamma 90.00000

_symmetry_space_group_name_	'P 1'
_symmetry_space_group_name_H-M	'P 1'

loop_
_symmetry_equiv_pos_as_xyz
  x,y,z

loop_
_atom_site_label
_atom_site_type_symbol
_atom_site_fract_x
_atom_site_fract_y
_atom_site_fract_z
_atom_site_charge
La	La	0.88231 0.20589 0.63399 1.49500
La	La	0.38231 0.29411 0.86601 1.50300
La	La	0.61769 0.20589 0.36601 1.50400
La	La	0.11769 0.29411 0.13399 1.49600
La	La	0.11769 0.79411 0.36601 1.49600
La	La	0.61769 0.70589 0.13399 1.50400
La	La	0.38231 0.79411 0.63399 1.50400
La	La	0.88231 0.70589 0.86601 1.49600
C 	C 	0.02450 0.39110 0.73250 0.10700
C 	C 	0.05660 0.43360 0.78760 0.04500
C 	C 	0.01520 0.52690 0.76620 0.11600
C 	C 	0.98940 0.48710 0.70950 0.01800
C 	C 	0.85960 0.20350 0.49140 0.21400
C 	C 	0.52450 0.10890 0.76750 0.09200
C 	C 	0.55660 0.06640 0.71240 0.04900
C 	C 	0.51520 0.97310 0.73380 0.10100
C 	C 	0.48940 0.01290 0.79050 0.04100
C 	C 	0.35960 0.29650 0.00860 0.21300
C 	C 	0.47550 0.39110 0.26750 0.09200
C 	C 	0.44340 0.43360 0.21240 0.04900
C 	C 	0.48480 0.52690 0.23380 0.10100
C 	C 	0.51060 0.48710 0.29050 0.04100
C 	C 	0.64040 0.20350 0.50860 0.21400
C 	C 	0.97550 0.10890 0.23250 0.10800
C 	C 	0.94340 0.06640 0.28760 0.04500
C 	C 	0.98480 0.97310 0.26620 0.11600
C 	C 	0.01060 0.01290 0.20950 0.01700
C 	C 	0.14040 0.29650 0.99140 0.21500
C 	C 	0.97550 0.60890 0.26750 0.10700
C 	C 	0.94340 0.56640 0.21240 0.04500
C 	C 	0.98480 0.47310 0.23380 0.11600
C 	C 	0.01060 0.51290 0.29050 0.01800
C 	C 	0.14040 0.79650 0.50860 0.21400
C 	C 	0.47550 0.89110 0.23250 0.09200
C 	C 	0.44340 0.93360 0.28760 0.04900
C 	C 	0.48480 0.02690 0.26620 0.10100
C 	C 	0.51060 0.98710 0.20950 0.04100
C 	C 	0.64040 0.70350 0.99140 0.21300
C 	C 	0.52450 0.60890 0.73250 0.09200
C 	C 	0.55660 0.56640 0.78760 0.04900
C 	C 	0.51520 0.47310 0.76620 0.10100
C 	C 	0.48940 0.51290 0.70950 0.04100
C 	C 	0.35960 0.79650 0.49140 0.21400
C 	C 	0.02450 0.89110 0.76750 0.10800
C 	C 	0.05660 0.93360 0.71240 0.04500
C 	C 	0.01520 0.02690 0.73380 0.11600
C 	C 	0.98940 0.98710 0.79050 0.01700
C 	C 	0.85960 0.70350 0.00860 0.21500
O 	O 	0.02480 0.30860 0.71340 -0.34500
O 	O 	0.10480 0.40350 0.83530 -0.33700
O 	O 	0.00590 0.60940 0.78580 -0.34400
O 	O 	0.95510 0.52060 0.66260 -0.20900
O 	O 	0.98760 0.20590 0.52920 -0.38100
O 	O 	0.89430 0.19940 0.43975 -0.37700
O 	O 	0.52480 0.19140 0.78660 -0.34700
O 	O 	0.60480 0.09650 0.66470 -0.34100
O 	O 	0.50590 0.89060 0.71420 -0.34700
O 	O 	0.45510 0.97940 0.83740 -0.21000
O 	O 	0.48760 0.29410 0.97080 -0.38000
O 	O 	0.39430 0.30060 0.06025 -0.37800
O 	O 	0.47520 0.30860 0.28660 -0.34700
O 	O 	0.39520 0.40350 0.16470 -0.34100
O 	O 	0.49410 0.60940 0.21420 -0.34700
O 	O 	0.54490 0.52060 0.33740 -0.21000
O 	O 	0.51240 0.20590 0.47080 -0.38000
O 	O 	0.60570 0.19940 0.56025 -0.37800
O 	O 	0.97520 0.19140 0.21340 -0.34500
O 	O 	0.89520 0.09650 0.33530 -0.33700
O 	O 	0.99410 0.89060 0.28580 -0.34400
O 	O 	0.04490 0.97940 0.16260 -0.20800
O 	O 	0.01240 0.29410 0.02920 -0.38200
O 	O 	0.10570 0.30060 0.93975 -0.37800
O 	O 	0.97520 0.69140 0.28660 -0.34500
O 	O 	0.89520 0.59650 0.16470 -0.33700
O 	O 	0.99410 0.39060 0.21420 -0.34400
O 	O 	0.04490 0.47940 0.33740 -0.20900
O 	O 	0.01240 0.79410 0.47080 -0.38100
O 	O 	0.10570 0.80060 0.56025 -0.37700
O 	O 	0.47520 0.80860 0.21340 -0.34700
O 	O 	0.39520 0.90350 0.33530 -0.34100
O 	O 	0.49410 0.10940 0.28580 -0.34700
O 	O 	0.54490 0.02060 0.16260 -0.21000
O 	O 	0.51240 0.70590 0.02920 -0.38000
O 	O 	0.60570 0.69940 0.93975 -0.37800
O 	O 	0.52480 0.69140 0.71340 -0.34700
O 	O 	0.60480 0.59650 0.83530 -0.34100
O 	O 	0.50590 0.39060 0.78580 -0.34700
O 	O 	0.45510 0.47940 0.66260 -0.21000
O 	O 	0.48760 0.79410 0.52920 -0.38000
O 	O 	0.39430 0.80060 0.43975 -0.37800
O 	O 	0.02480 0.80860 0.78660 -0.34500
O 	O 	0.10480 0.90350 0.66470 -0.33700
O 	O 	0.00590 0.10940 0.71420 -0.34400
O 	O 	0.95510 0.02060 0.83740 -0.20800
O 	O 	0.98760 0.70590 0.97080 -0.38200
O 	O 	0.89430 0.69940 0.06025 -0.37800
