data_crystal

_cell_length_a 30.80200
_cell_length_b 15.94500
_cell_length_c 16.47380
_cell_angle_alpha 90.00000
_cell_angle_beta  90.00000
_cell_angle_gamma 90.00000

_symmetry_space_group_name_	'P 1'
_symmetry_space_group_name_H-M	'P 1'

loop_
_symmetry_equiv_pos_as_xyz
  x,y,z

loop_
_atom_site_label
_atom_site_type_symbol
_atom_site_fract_x
_atom_site_fract_y
_atom_site_fract_z
_atom_site_charge
S 	S 	0.33263 0.68268 0.51054 0.50300
O 	O 	0.28887 0.96190 0.24780 -0.34400
O 	O 	0.25092 0.84500 0.27420 -0.28200
O 	O 	0.42533 0.01520 0.38750 -0.39700
O 	O 	0.44179 0.94570 0.50050 -0.37900
O 	O 	0.37482 0.64420 0.51310 -0.28200
O 	O 	0.30156 0.63240 0.46570 -0.33600
O 	O 	0.31670 0.70810 0.58970 -0.26200
N 	N 	0.28470 0.55530 0.06430 -0.37600
N 	N 	0.28920 0.54900 0.89310 -0.22600
N 	N 	0.28776 0.94500 0.08020 -0.22300
N 	N 	0.48210 0.92130 0.08720 -0.39200
C 	C 	0.30910 0.79960 0.39680 0.01400
H 	H 	0.28520 0.76360 0.38670 0.02700
C 	C 	0.33940 0.77850 0.45480 -0.12800
C 	C 	0.37440 0.82990 0.47020 0.05400
H 	H 	0.39530 0.81390 0.50960 0.02900
C 	C 	0.37930 0.90490 0.42860 -0.14400
C 	C 	0.34890 0.92640 0.36940 0.05500
H 	H 	0.35220 0.97730 0.34010 0.05900
C 	C 	0.31370 0.87400 0.35280 -0.10100
C 	C 	0.28150 0.89410 0.28670 0.33000
C 	C 	0.41770 0.96030 0.43890 0.42100
C 	C 	0.33150 0.94200 0.08970 0.13600
H 	H 	0.34410 0.97140 0.13400 0.00900
C 	C 	0.27060 0.90280 0.01540 0.10300
C 	C 	0.34160 0.85580 0.97280 0.22600
C 	C 	0.29750 0.86060 0.96260 -0.19100
H 	H 	0.28490 0.83350 0.91700 0.11900
C 	C 	0.35830 0.89880 0.03870 -0.22800
H 	H 	0.38870 0.89830 0.04850 0.12100
C 	C 	0.37060 0.80330 0.91980 -0.29400
H 	H 	0.36760 0.74390 0.93620 0.12700
H 	H 	0.40110 0.82010 0.92970 0.12700
C 	C 	0.36140 0.81020 0.82850 0.06600
H 	H 	0.33030 0.82340 0.82080 0.03400
H 	H 	0.37840 0.85750 0.80620 0.03300
C 	C 	0.37220 0.73110 0.78040 -0.26600
H 	H 	0.36640 0.74030 0.72190 0.12600
H 	H 	0.40330 0.71690 0.78700 0.10900
C 	C 	0.34460 0.66120 0.81160 0.14300
C 	C 	0.30030 0.65990 0.79690 -0.19000
H 	H 	0.28800 0.69750 0.75840 0.12000
C 	C 	0.27410 0.60490 0.83750 0.10200
H 	H 	0.24380 0.60580 0.82640 -0.01200
C 	C 	0.33240 0.54500 0.90100 0.04300
H 	H 	0.34420 0.50350 0.93610 0.02200
C 	C 	0.36130 0.59850 0.86060 -0.09500
C 	C 	0.30600 0.51260 0.12080 0.47800
H 	H 	0.30380 0.45320 0.11930 -0.12400
C 	C 	0.28670 0.63900 0.07030 0.44700
H 	H 	0.27200 0.67250 0.03130 -0.12100
C 	C 	0.30930 0.67740 0.13140 -0.83500
H 	H 	0.30920 0.73690 0.13460 0.34000
C 	C 	0.33060 0.54690 0.18040 -0.88400
H 	H 	0.34640 0.51200 0.21650 0.32500
C 	C 	0.33230 0.63220 0.18810 1.18200
C 	C 	0.35960 0.67420 0.24960 -2.37500
H 	H 	0.34030 0.70110 0.29000 0.70300
H 	H 	0.37670 0.63090 0.27840 0.67200
C 	C 	0.38520 0.72860 0.22270 2.19400
H 	H 	0.36840 0.78120 0.21740 -0.59200
H 	H 	0.39310 0.71110 0.16700 -0.58500
C 	C 	0.42650 0.75090 0.26460 -1.53900
H 	H 	0.44600 0.70160 0.26770 0.44100
H 	H 	0.42070 0.77120 0.32030 0.46400
C 	C 	0.44830 0.82430 0.21010 0.83200
C 	C 	0.44490 0.90340 0.20700 -1.02100
H 	H 	0.42900 0.93170 0.24810 0.40500
C 	C 	0.46660 0.78520 0.13980 -0.51900
H 	H 	0.46470 0.72630 0.13180 0.20200
C 	C 	0.46210 0.94580 0.15040 0.78600
H 	H 	0.45970 0.00490 0.15620 -0.28100
C 	C 	0.48800 0.83840 0.08140 0.25200
H 	H 	0.50580 0.81520 0.04000 -0.06900
S 	S 	0.16737 0.31732 0.51054 0.49900
O 	O 	0.21113 0.03810 0.24780 -0.40400
O 	O 	0.24908 0.15500 0.27420 -0.30000
O 	O 	0.07467 0.98480 0.38750 -0.21700
O 	O 	0.05821 0.05430 0.50050 -0.38600
O 	O 	0.12518 0.35580 0.51310 -0.28200
O 	O 	0.19844 0.36760 0.46570 -0.33400
O 	O 	0.18330 0.29190 0.58970 -0.26800
N 	N 	0.21530 0.44470 0.06430 -0.34900
N 	N 	0.21080 0.45100 0.89310 -0.22600
N 	N 	0.21224 0.05500 0.08020 -0.24800
N 	N 	0.01790 0.07870 0.08720 -0.29000
C 	C 	0.19090 0.20040 0.39680 0.00800
H 	H 	0.21480 0.23640 0.38670 0.03100
C 	C 	0.16060 0.22150 0.45480 -0.11600
C 	C 	0.12560 0.17010 0.47020 0.02000
H 	H 	0.10470 0.18610 0.50960 0.03600
C 	C 	0.12070 0.09510 0.42860 -0.09900
C 	C 	0.15110 0.07360 0.36940 0.02000
H 	H 	0.14780 0.02270 0.34010 0.02500
C 	C 	0.18630 0.12600 0.35280 -0.10500
C 	C 	0.21850 0.10590 0.28670 0.32800
C 	C 	0.08230 0.03970 0.43890 0.22200
C 	C 	0.16850 0.05800 0.08970 0.12100
H 	H 	0.15590 0.02860 0.13400 -0.02200
C 	C 	0.22940 0.09720 0.01540 0.05500
C 	C 	0.15840 0.14420 0.97280 0.21500
C 	C 	0.20250 0.13940 0.96260 -0.18400
H 	H 	0.21510 0.16650 0.91700 0.10900
C 	C 	0.14170 0.10120 0.03870 -0.24800
H 	H 	0.11130 0.10170 0.04850 0.10900
C 	C 	0.12940 0.19670 0.91980 -0.30300
H 	H 	0.13240 0.25610 0.93620 0.12900
H 	H 	0.09890 0.17990 0.92970 0.12300
C 	C 	0.13860 0.18980 0.82850 0.08000
H 	H 	0.16970 0.17660 0.82080 0.01600
H 	H 	0.12160 0.14250 0.80620 0.00700
C 	C 	0.12780 0.26890 0.78040 -0.27300
H 	H 	0.13360 0.25970 0.72190 0.12100
H 	H 	0.09670 0.28310 0.78700 0.10600
C 	C 	0.15540 0.33880 0.81160 0.14500
C 	C 	0.19970 0.34010 0.79690 -0.19000
H 	H 	0.21200 0.30250 0.75840 0.11900
C 	C 	0.22590 0.39510 0.83750 0.10200
H 	H 	0.25620 0.39420 0.82640 -0.01000
C 	C 	0.16760 0.45500 0.90100 0.04300
H 	H 	0.15580 0.49650 0.93610 0.01900
C 	C 	0.13870 0.40150 0.86060 -0.10100
C 	C 	0.19400 0.48740 0.12080 0.40400
H 	H 	0.19620 0.54680 0.11930 -0.10000
C 	C 	0.21330 0.36100 0.07030 0.37700
H 	H 	0.22800 0.32750 0.03130 -0.09800
C 	C 	0.19070 0.32260 0.13140 -0.70200
H 	H 	0.19080 0.26310 0.13460 0.29000
C 	C 	0.16940 0.45310 0.18040 -0.74300
H 	H 	0.15360 0.48800 0.21650 0.27900
C 	C 	0.16770 0.36780 0.18810 0.96800
C 	C 	0.14040 0.32580 0.24960 -1.91400
H 	H 	0.15970 0.29890 0.29000 0.57400
H 	H 	0.12330 0.36910 0.27840 0.54800
C 	C 	0.11480 0.27140 0.22270 1.70700
H 	H 	0.13160 0.21880 0.21740 -0.45300
H 	H 	0.10690 0.28890 0.16700 -0.44800
C 	C 	0.07350 0.24910 0.26460 -1.17800
H 	H 	0.05400 0.29840 0.26770 0.34200
H 	H 	0.07930 0.22880 0.32030 0.36200
C 	C 	0.05170 0.17570 0.21010 0.51400
C 	C 	0.05510 0.09660 0.20700 -0.52700
H 	H 	0.07100 0.06830 0.24810 0.20100
C 	C 	0.03340 0.21480 0.13980 -0.33300
H 	H 	0.03530 0.27370 0.13180 0.13600
C 	C 	0.03790 0.05420 0.15040 0.22300
H 	H 	0.04030 0.99510 0.15620 0.00100
C 	C 	0.01200 0.16160 0.08140 0.12000
H 	H 	0.99420 0.18480 0.04000 -0.01700
S 	S 	0.66737 0.68268 0.98946 0.53600
O 	O 	0.71113 0.96190 0.25220 -0.34500
O 	O 	0.74908 0.84500 0.22580 -0.28200
O 	O 	0.57467 0.01520 0.11250 -0.39300
O 	O 	0.55821 0.94570 0.99950 -0.35900
O 	O 	0.62518 0.64420 0.98690 -0.28100
O 	O 	0.69844 0.63240 0.03430 -0.35600
O 	O 	0.68330 0.70810 0.91030 -0.26600
N 	N 	0.71530 0.55530 0.43570 -0.36900
N 	N 	0.71080 0.54900 0.60690 -0.22700
N 	N 	0.71224 0.94500 0.41980 -0.22300
N 	N 	0.51790 0.92130 0.41280 -0.38800
C 	C 	0.69090 0.79960 0.10320 0.01200
H 	H 	0.71480 0.76360 0.11330 0.02600
C 	C 	0.66060 0.77850 0.04520 -0.13400
C 	C 	0.62560 0.82990 0.02980 0.01800
H 	H 	0.60470 0.81390 0.99040 0.05200
C 	C 	0.62070 0.90490 0.07140 -0.12700
C 	C 	0.65110 0.92640 0.13060 0.04500
H 	H 	0.64780 0.97730 0.15990 0.06200
C 	C 	0.68630 0.87400 0.14720 -0.09900
C 	C 	0.71850 0.89410 0.21330 0.32800
C 	C 	0.58230 0.96030 0.06110 0.39400
C 	C 	0.66850 0.94200 0.41030 0.12800
H 	H 	0.65590 0.97140 0.36600 0.01200
C 	C 	0.72940 0.90280 0.48460 0.12300
C 	C 	0.65840 0.85580 0.52720 0.20500
C 	C 	0.70250 0.86060 0.53740 -0.20800
H 	H 	0.71510 0.83350 0.58300 0.12200
C 	C 	0.64170 0.89880 0.46130 -0.19900
H 	H 	0.61130 0.89830 0.45150 0.11600
C 	C 	0.62940 0.80330 0.58020 -0.28000
H 	H 	0.63240 0.74390 0.56380 0.12000
H 	H 	0.59890 0.82010 0.57030 0.11800
C 	C 	0.63860 0.81020 0.67150 0.05800
H 	H 	0.66970 0.82340 0.67920 0.03600
H 	H 	0.62160 0.85750 0.69380 0.03500
C 	C 	0.62780 0.73110 0.71960 -0.26300
H 	H 	0.63360 0.74030 0.77810 0.12500
H 	H 	0.59670 0.71690 0.71300 0.10800
C 	C 	0.65540 0.66120 0.68840 0.14300
C 	C 	0.69970 0.65990 0.70310 -0.19000
H 	H 	0.71200 0.69750 0.74160 0.12000
C 	C 	0.72590 0.60490 0.66250 0.10100
H 	H 	0.75620 0.60580 0.67360 -0.01200
C 	C 	0.66760 0.54500 0.59900 0.04200
H 	H 	0.65580 0.50350 0.56390 0.01700
C 	C 	0.63870 0.59850 0.63940 -0.09700
C 	C 	0.69400 0.51260 0.37920 0.47500
H 	H 	0.69620 0.45320 0.38070 -0.12100
C 	C 	0.71330 0.63900 0.42970 0.44300
H 	H 	0.72800 0.67250 0.46870 -0.11300
C 	C 	0.69070 0.67740 0.36860 -0.82400
H 	H 	0.69080 0.73690 0.36540 0.33800
C 	C 	0.66940 0.54690 0.31960 -0.87300
H 	H 	0.65360 0.51200 0.28350 0.32200
C 	C 	0.66770 0.63220 0.31190 1.16700
C 	C 	0.64040 0.67420 0.25040 -2.34300
H 	H 	0.65970 0.70110 0.21000 0.69300
H 	H 	0.62330 0.63090 0.22160 0.66300
C 	C 	0.61480 0.72860 0.27730 2.16200
H 	H 	0.63160 0.78120 0.28260 -0.58200
H 	H 	0.60690 0.71110 0.33300 -0.57400
C 	C 	0.57350 0.75090 0.23540 -1.51900
H 	H 	0.55400 0.70160 0.23230 0.43500
H 	H 	0.57930 0.77120 0.17970 0.45700
C 	C 	0.55170 0.82430 0.28990 0.82300
C 	C 	0.55510 0.90340 0.29300 -1.01200
H 	H 	0.57100 0.93170 0.25190 0.40200
C 	C 	0.53340 0.78520 0.36020 -0.51400
H 	H 	0.53530 0.72630 0.36820 0.20200
C 	C 	0.53790 0.94580 0.34960 0.78000
H 	H 	0.54030 0.00490 0.34380 -0.27800
C 	C 	0.51200 0.83840 0.41860 0.25100
H 	H 	0.49420 0.81520 0.46000 -0.06300
S 	S 	0.83263 0.31732 0.98946 0.53500
O 	O 	0.78887 0.03810 0.25220 -0.40300
O 	O 	0.75092 0.15500 0.22580 -0.30000
O 	O 	0.92533 0.98480 0.11250 -0.20600
O 	O 	0.94179 0.05430 0.99950 -0.35100
O 	O 	0.87482 0.35580 0.98690 -0.27600
O 	O 	0.80156 0.36760 0.03430 -0.35500
O 	O 	0.81670 0.29190 0.91030 -0.27100
N 	N 	0.78470 0.44470 0.43570 -0.34800
N 	N 	0.78920 0.45100 0.60690 -0.22700
N 	N 	0.78776 0.05500 0.41980 -0.24800
N 	N 	0.98210 0.07870 0.41280 -0.30000
C 	C 	0.80910 0.20040 0.10320 0.00300
H 	H 	0.78520 0.23640 0.11330 0.03000
C 	C 	0.83940 0.22150 0.04520 -0.12000
C 	C 	0.87440 0.17010 0.02980 -0.02500
H 	H 	0.89530 0.18610 0.99040 0.06500
C 	C 	0.87930 0.09510 0.07140 -0.07800
C 	C 	0.84890 0.07360 0.13060 0.00600
H 	H 	0.85220 0.02270 0.15990 0.02900
C 	C 	0.81370 0.12600 0.14720 -0.10000
C 	C 	0.78150 0.10590 0.21330 0.32500
C 	C 	0.91770 0.03970 0.06110 0.18900
C 	C 	0.83150 0.05800 0.41030 0.11200
H 	H 	0.84410 0.02860 0.36600 -0.01800
C 	C 	0.77060 0.09720 0.48460 0.07800
C 	C 	0.84160 0.14420 0.52720 0.19300
C 	C 	0.79750 0.13940 0.53740 -0.20600
H 	H 	0.78490 0.16650 0.58300 0.11300
C 	C 	0.85830 0.10120 0.46130 -0.21500
H 	H 	0.88870 0.10170 0.45150 0.10300
C 	C 	0.87060 0.19670 0.58020 -0.29100
H 	H 	0.86760 0.25610 0.56380 0.12300
H 	H 	0.90110 0.17990 0.57030 0.11800
C 	C 	0.86140 0.18980 0.67150 0.07500
H 	H 	0.83030 0.17660 0.67920 0.01800
H 	H 	0.87840 0.14250 0.69380 0.01000
C 	C 	0.87220 0.26890 0.71960 -0.27200
H 	H 	0.86640 0.25970 0.77810 0.12300
H 	H 	0.90330 0.28310 0.71300 0.10900
C 	C 	0.84460 0.33880 0.68840 0.14500
C 	C 	0.80030 0.34010 0.70310 -0.19100
H 	H 	0.78800 0.30250 0.74160 0.11900
C 	C 	0.77410 0.39510 0.66250 0.10100
H 	H 	0.74380 0.39420 0.67360 -0.00900
C 	C 	0.83240 0.45500 0.59900 0.04100
H 	H 	0.84420 0.49650 0.56390 0.01600
C 	C 	0.86130 0.40150 0.63940 -0.10100
C 	C 	0.80600 0.48740 0.37920 0.41600
H 	H 	0.80380 0.54680 0.38070 -0.10200
C 	C 	0.78670 0.36100 0.42970 0.38800
H 	H 	0.77200 0.32750 0.46870 -0.09500
C 	C 	0.80930 0.32260 0.36860 -0.71800
H 	H 	0.80920 0.26310 0.36540 0.29800
C 	C 	0.83060 0.45310 0.31960 -0.76000
H 	H 	0.84640 0.48800 0.28350 0.28600
C 	C 	0.83230 0.36780 0.31190 0.99700
C 	C 	0.85960 0.32580 0.25040 -1.97400
H 	H 	0.84030 0.29890 0.21000 0.59100
H 	H 	0.87670 0.36910 0.22160 0.56500
C 	C 	0.88520 0.27140 0.27730 1.77100
H 	H 	0.86840 0.21880 0.28260 -0.47100
H 	H 	0.89310 0.28890 0.33300 -0.46300
C 	C 	0.92650 0.24910 0.23540 -1.22700
H 	H 	0.94600 0.29840 0.23230 0.36200
H 	H 	0.92070 0.22880 0.17970 0.37800
C 	C 	0.94830 0.17570 0.28990 0.56200
C 	C 	0.94490 0.09660 0.29300 -0.56900
H 	H 	0.92900 0.06830 0.25190 0.21800
C 	C 	0.96660 0.21480 0.36020 -0.37600
H 	H 	0.96470 0.27370 0.36820 0.16200
C 	C 	0.96210 0.05420 0.34960 0.25900
H 	H 	0.95970 0.99510 0.34380 -0.00500
C 	C 	0.98800 0.16160 0.41860 0.20600
H 	H 	0.00580 0.18480 0.46000 -0.06300
S 	S 	0.66737 0.31732 0.48946 0.49900
O 	O 	0.71113 0.03810 0.75220 -0.40300
O 	O 	0.74908 0.15500 0.72580 -0.29900
O 	O 	0.57467 0.98480 0.61250 -0.21600
O 	O 	0.55821 0.05430 0.49950 -0.38300
O 	O 	0.62518 0.35580 0.48690 -0.28000
O 	O 	0.69844 0.36760 0.53430 -0.33400
O 	O 	0.68330 0.29190 0.41030 -0.26700
N 	N 	0.71530 0.44470 0.93570 -0.34000
N 	N 	0.71080 0.45100 0.10690 -0.22900
N 	N 	0.71224 0.05500 0.91980 -0.24700
N 	N 	0.51790 0.07870 0.91280 -0.29100
C 	C 	0.69090 0.20040 0.60320 0.00800
H 	H 	0.71480 0.23640 0.61330 0.03200
C 	C 	0.66060 0.22150 0.54520 -0.11500
C 	C 	0.62560 0.17010 0.52980 0.01900
H 	H 	0.60470 0.18610 0.49040 0.03700
C 	C 	0.62070 0.09510 0.57140 -0.09900
C 	C 	0.65110 0.07360 0.63060 0.02000
H 	H 	0.64780 0.02270 0.65990 0.02600
C 	C 	0.68630 0.12600 0.64720 -0.10500
C 	C 	0.71850 0.10590 0.71330 0.32700
C 	C 	0.58230 0.03970 0.56110 0.22300
C 	C 	0.66850 0.05800 0.91030 0.10200
H 	H 	0.65590 0.02860 0.86600 -0.01300
C 	C 	0.72940 0.09720 0.98460 0.10300
C 	C 	0.65840 0.14420 0.02720 0.16700
C 	C 	0.70250 0.13940 0.03740 -0.22700
H 	H 	0.71510 0.16650 0.08300 0.11600
C 	C 	0.64170 0.10120 0.96130 -0.18000
H 	H 	0.61130 0.10170 0.95150 0.09700
C 	C 	0.62940 0.19670 0.08020 -0.27200
H 	H 	0.63240 0.25610 0.06380 0.11300
H 	H 	0.59890 0.17990 0.07030 0.10600
C 	C 	0.63860 0.18980 0.17150 0.06300
H 	H 	0.66970 0.17660 0.17920 0.02100
H 	H 	0.62160 0.14250 0.19380 0.01100
C 	C 	0.62780 0.26890 0.21960 -0.26500
H 	H 	0.63360 0.25970 0.27810 0.11900
H 	H 	0.59670 0.28310 0.21300 0.10300
C 	C 	0.65540 0.33880 0.18840 0.14300
C 	C 	0.69970 0.34010 0.20310 -0.19000
H 	H 	0.71200 0.30250 0.24160 0.11800
C 	C 	0.72590 0.39510 0.16250 0.09900
H 	H 	0.75620 0.39420 0.17360 -0.00900
C 	C 	0.66760 0.45500 0.09900 0.04100
H 	H 	0.65580 0.49650 0.06390 0.01100
C 	C 	0.63870 0.40150 0.13940 -0.10600
C 	C 	0.69400 0.48740 0.87920 0.41100
H 	H 	0.69620 0.54680 0.88070 -0.09800
C 	C 	0.71330 0.36100 0.92970 0.38400
H 	H 	0.72800 0.32750 0.96870 -0.08600
C 	C 	0.69070 0.32260 0.86860 -0.70500
H 	H 	0.69080 0.26310 0.86540 0.29500
C 	C 	0.66940 0.45310 0.81960 -0.74800
H 	H 	0.65360 0.48800 0.78350 0.28200
C 	C 	0.66770 0.36780 0.81190 0.97900
C 	C 	0.64040 0.32580 0.75040 -1.93600
H 	H 	0.65970 0.29890 0.71000 0.58000
H 	H 	0.62330 0.36910 0.72160 0.55500
C 	C 	0.61480 0.27140 0.77730 1.73100
H 	H 	0.63160 0.21880 0.78260 -0.45900
H 	H 	0.60690 0.28890 0.83300 -0.45000
C 	C 	0.57350 0.24910 0.73540 -1.19900
H 	H 	0.55400 0.29840 0.73230 0.35200
H 	H 	0.57930 0.22880 0.67970 0.37000
C 	C 	0.55170 0.17570 0.78990 0.53800
C 	C 	0.55510 0.09660 0.79300 -0.55000
H 	H 	0.57100 0.06830 0.75190 0.21100
C 	C 	0.53340 0.21480 0.86020 -0.35300
H 	H 	0.53530 0.27370 0.86820 0.15200
C 	C 	0.53790 0.05420 0.84960 0.24700
H 	H 	0.54030 0.99510 0.84380 -0.00400
C 	C 	0.51200 0.16160 0.91860 0.16600
H 	H 	0.49420 0.18480 0.96000 -0.03100
S 	S 	0.83263 0.68268 0.48946 0.50100
O 	O 	0.78887 0.96190 0.75220 -0.34600
O 	O 	0.75092 0.84500 0.72580 -0.28200
O 	O 	0.92533 0.01520 0.61250 -0.39100
O 	O 	0.94179 0.94570 0.49950 -0.37400
O 	O 	0.87482 0.64420 0.48690 -0.28100
O 	O 	0.80156 0.63240 0.53430 -0.33600
O 	O 	0.81670 0.70810 0.41030 -0.26200
N 	N 	0.78470 0.55530 0.93570 -0.36600
N 	N 	0.78920 0.54900 0.10690 -0.22800
N 	N 	0.78776 0.94500 0.91980 -0.22300
N 	N 	0.98210 0.92130 0.91280 -0.38700
C 	C 	0.80910 0.79960 0.60320 0.01300
H 	H 	0.78520 0.76360 0.61330 0.02800
C 	C 	0.83940 0.77850 0.54520 -0.12700
C 	C 	0.87440 0.82990 0.52980 0.05300
H 	H 	0.89530 0.81390 0.49040 0.03100
C 	C 	0.87930 0.90490 0.57140 -0.14200
C 	C 	0.84890 0.92640 0.63060 0.05400
H 	H 	0.85220 0.97730 0.65990 0.05900
C 	C 	0.81370 0.87400 0.64720 -0.10100
C 	C 	0.78150 0.89410 0.71330 0.33000
C 	C 	0.91770 0.96030 0.56110 0.41800
C 	C 	0.83150 0.94200 0.91030 0.12000
H 	H 	0.84410 0.97140 0.86600 0.01600
C 	C 	0.77060 0.90280 0.98460 0.14200
C 	C 	0.84160 0.85580 0.02720 0.18500
C 	C 	0.79750 0.86060 0.03740 -0.22600
H 	H 	0.78490 0.83350 0.08300 0.12500
C 	C 	0.85830 0.89880 0.96130 -0.17000
H 	H 	0.88870 0.89830 0.95150 0.11100
C 	C 	0.87060 0.80330 0.08020 -0.26700
H 	H 	0.86760 0.74390 0.06380 0.11300
H 	H 	0.90110 0.82010 0.07030 0.11200
C 	C 	0.86140 0.81020 0.17150 0.05100
H 	H 	0.83030 0.82340 0.17920 0.03800
H 	H 	0.87840 0.85750 0.19380 0.03700
C 	C 	0.87220 0.73110 0.21960 -0.26000
H 	H 	0.86640 0.74030 0.27810 0.12400
H 	H 	0.90330 0.71690 0.21300 0.10700
C 	C 	0.84460 0.66120 0.18840 0.14200
C 	C 	0.80030 0.65990 0.20310 -0.19000
H 	H 	0.78800 0.69750 0.24160 0.11900
C 	C 	0.77410 0.60490 0.16250 0.10000
H 	H 	0.74380 0.60580 0.17360 -0.01100
C 	C 	0.83240 0.54500 0.09900 0.04100
H 	H 	0.84420 0.50350 0.06390 0.01300
C 	C 	0.86130 0.59850 0.13940 -0.09900
C 	C 	0.80600 0.51260 0.87920 0.48200
H 	H 	0.80380 0.45320 0.88070 -0.12100
C 	C 	0.78670 0.63900 0.92970 0.45000
H 	H 	0.77200 0.67250 0.96870 -0.10800
C 	C 	0.80930 0.67740 0.86860 -0.83300
H 	H 	0.80920 0.73690 0.86540 0.34300
C 	C 	0.83060 0.54690 0.81960 -0.88300
H 	H 	0.84640 0.51200 0.78350 0.32700
C 	C 	0.83230 0.63220 0.81190 1.18500
C 	C 	0.85960 0.67420 0.75040 -2.37900
H 	H 	0.84030 0.70110 0.71000 0.70400
H 	H 	0.87670 0.63090 0.72160 0.67500
C 	C 	0.88520 0.72860 0.77730 2.19900
H 	H 	0.86840 0.78120 0.78260 -0.59300
H 	H 	0.89310 0.71110 0.83300 -0.58200
C 	C 	0.92650 0.75090 0.73540 -1.54500
H 	H 	0.94600 0.70160 0.73230 0.44800
H 	H 	0.92070 0.77120 0.67970 0.46700
C 	C 	0.94830 0.82430 0.78990 0.84200
C 	C 	0.94490 0.90340 0.79300 -1.02100
H 	H 	0.92900 0.93170 0.75190 0.40600
C 	C 	0.96660 0.78520 0.86020 -0.53100
H 	H 	0.96470 0.72630 0.86820 0.21500
C 	C 	0.96210 0.94580 0.84960 0.78300
H 	H 	0.95970 0.00490 0.84380 -0.27200
C 	C 	0.98800 0.83840 0.91860 0.29200
H 	H 	0.00580 0.81520 0.96000 -0.08100
S 	S 	0.33263 0.31732 0.01054 0.46200
O 	O 	0.28887 0.03810 0.74780 -0.40300
O 	O 	0.25092 0.15500 0.77420 -0.30000
O 	O 	0.42533 0.98480 0.88750 -0.22300
O 	O 	0.44179 0.05430 0.00050 -0.40600
O 	O 	0.37482 0.35580 0.01310 -0.28200
O 	O 	0.30156 0.36760 0.96570 -0.31300
O 	O 	0.31670 0.29190 0.08970 -0.26300
N 	N 	0.28470 0.44470 0.56430 -0.34700
N 	N 	0.28920 0.45100 0.39310 -0.22700
N 	N 	0.28776 0.05500 0.58020 -0.24700
N 	N 	0.48210 0.07870 0.58720 -0.29700
C 	C 	0.30910 0.20040 0.89680 0.01100
H 	H 	0.28520 0.23640 0.88670 0.03300
C 	C 	0.33940 0.22150 0.95480 -0.11000
C 	C 	0.37440 0.17010 0.97020 0.06200
H 	H 	0.39530 0.18610 0.00960 0.01100
C 	C 	0.37930 0.09510 0.92860 -0.11900
C 	C 	0.34890 0.07360 0.86940 0.03300
H 	H 	0.35220 0.02270 0.84010 0.02200
C 	C 	0.31370 0.12600 0.85280 -0.10800
C 	C 	0.28150 0.10590 0.78670 0.33000
C 	C 	0.41770 0.03970 0.93890 0.25800
C 	C 	0.33150 0.05800 0.58970 0.11100
H 	H 	0.34410 0.02860 0.63400 -0.01700
C 	C 	0.27060 0.09720 0.51540 0.07800
C 	C 	0.34160 0.14420 0.47280 0.19100
C 	C 	0.29750 0.13940 0.46260 -0.20500
H 	H 	0.28490 0.16650 0.41700 0.11200
C 	C 	0.35830 0.10120 0.53870 -0.21400
H 	H 	0.38870 0.10170 0.54850 0.10300
C 	C 	0.37060 0.19670 0.41980 -0.28800
H 	H 	0.36760 0.25610 0.43620 0.12200
H 	H 	0.40110 0.17990 0.42970 0.11500
C 	C 	0.36140 0.18980 0.32850 0.07200
H 	H 	0.33030 0.17660 0.32080 0.01800
H 	H 	0.37840 0.14250 0.30620 0.00900
C 	C 	0.37220 0.26890 0.28040 -0.26900
H 	H 	0.36640 0.25970 0.22190 0.12000
H 	H 	0.40330 0.28310 0.28700 0.10500
C 	C 	0.34460 0.33880 0.31160 0.14400
C 	C 	0.30030 0.34010 0.29690 -0.19000
H 	H 	0.28800 0.30250 0.25840 0.11800
C 	C 	0.27410 0.39510 0.33750 0.10000
H 	H 	0.24380 0.39420 0.32640 -0.00900
C 	C 	0.33240 0.45500 0.40100 0.04200
H 	H 	0.34420 0.49650 0.43610 0.01500
C 	C 	0.36130 0.40150 0.36060 -0.10300
C 	C 	0.30600 0.48740 0.62080 0.41500
H 	H 	0.30380 0.54680 0.61930 -0.10100
C 	C 	0.28670 0.36100 0.57030 0.38700
H 	H 	0.27200 0.32750 0.53130 -0.09400
C 	C 	0.30930 0.32260 0.63140 -0.71600
H 	H 	0.30920 0.26310 0.63460 0.29700
C 	C 	0.33060 0.45310 0.68040 -0.75800
H 	H 	0.34640 0.48800 0.71650 0.28500
C 	C 	0.33230 0.36780 0.68810 0.99300
C 	C 	0.35960 0.32580 0.74960 -1.96700
H 	H 	0.34030 0.29890 0.79000 0.58900
H 	H 	0.37670 0.36910 0.77840 0.56500
C 	C 	0.38520 0.27140 0.72270 1.76300
H 	H 	0.36840 0.21880 0.71740 -0.46900
H 	H 	0.39310 0.28890 0.66700 -0.46100
C 	C 	0.42650 0.24910 0.76460 -1.21700
H 	H 	0.44600 0.29840 0.76770 0.35800
H 	H 	0.42070 0.22880 0.82030 0.37600
C 	C 	0.44830 0.17570 0.71010 0.54500
C 	C 	0.44490 0.09660 0.70700 -0.55600
H 	H 	0.42900 0.06830 0.74810 0.21300
C 	C 	0.46660 0.21480 0.63980 -0.35700
H 	H 	0.46470 0.27370 0.63180 0.15100
C 	C 	0.46210 0.05420 0.65040 0.24800
H 	H 	0.45970 0.99510 0.65620 -0.00500
C 	C 	0.48800 0.16160 0.58140 0.16500
H 	H 	0.50580 0.18480 0.54000 -0.03800
S 	S 	0.16737 0.68268 0.01054 0.46800
O 	O 	0.21113 0.96190 0.74780 -0.34500
O 	O 	0.24908 0.84500 0.77420 -0.28200
O 	O 	0.07467 0.01520 0.88750 -0.40100
O 	O 	0.05821 0.94570 0.00050 -0.40100
O 	O 	0.12518 0.64420 0.01310 -0.28600
O 	O 	0.19844 0.63240 0.96570 -0.31700
O 	O 	0.18330 0.70810 0.08970 -0.25800
N 	N 	0.21530 0.55530 0.56430 -0.36900
N 	N 	0.21080 0.54900 0.39310 -0.22700
N 	N 	0.21224 0.94500 0.58020 -0.22300
N 	N 	0.01790 0.92130 0.58720 -0.38200
C 	C 	0.19090 0.79960 0.89680 0.01600
H 	H 	0.21480 0.76360 0.88670 0.02900
C 	C 	0.16060 0.77850 0.95480 -0.12200
C 	C 	0.12560 0.82990 0.97020 0.09000
H 	H 	0.10470 0.81390 0.00960 0.00600
C 	C 	0.12070 0.90490 0.92860 -0.16000
C 	C 	0.15110 0.92640 0.86940 0.06500
H 	H 	0.14780 0.97730 0.84010 0.05600
C 	C 	0.18630 0.87400 0.85280 -0.10400
C 	C 	0.21850 0.89410 0.78670 0.33200
C 	C 	0.08230 0.96030 0.93890 0.44400
C 	C 	0.16850 0.94200 0.58970 0.12800
H 	H 	0.15590 0.97140 0.63400 0.01200
C 	C 	0.22940 0.90280 0.51540 0.12300
C 	C 	0.15840 0.85580 0.47280 0.20500
C 	C 	0.20250 0.86060 0.46260 -0.20800
H 	H 	0.21510 0.83350 0.41700 0.12200
C 	C 	0.14170 0.89880 0.53870 -0.19800
H 	H 	0.11130 0.89830 0.54850 0.11600
C 	C 	0.12940 0.80330 0.41980 -0.27700
H 	H 	0.13240 0.74390 0.43620 0.11800
H 	H 	0.09890 0.82010 0.42970 0.11600
C 	C 	0.13860 0.81020 0.32850 0.05500
H 	H 	0.16970 0.82340 0.32080 0.03700
H 	H 	0.12160 0.85750 0.30620 0.03500
C 	C 	0.12780 0.73110 0.28040 -0.26000
H 	H 	0.13360 0.74030 0.22190 0.12200
H 	H 	0.09670 0.71690 0.28700 0.10400
C 	C 	0.15540 0.66120 0.31160 0.14100
C 	C 	0.19970 0.65990 0.29690 -0.19000
H 	H 	0.21200 0.69750 0.25840 0.11900
C 	C 	0.22590 0.60490 0.33750 0.10100
H 	H 	0.25620 0.60580 0.32640 -0.01100
C 	C 	0.16760 0.54500 0.40100 0.04300
H 	H 	0.15580 0.50350 0.43610 0.01600
C 	C 	0.13870 0.59850 0.36060 -0.09900
C 	C 	0.19400 0.51260 0.62080 0.47300
H 	H 	0.19620 0.45320 0.61930 -0.12000
C 	C 	0.21330 0.63900 0.57030 0.44200
H 	H 	0.22800 0.67250 0.53130 -0.11200
C 	C 	0.19070 0.67740 0.63140 -0.82100
H 	H 	0.19080 0.73690 0.63460 0.33700
C 	C 	0.16940 0.54690 0.68040 -0.87000
H 	H 	0.15360 0.51200 0.71650 0.32100
C 	C 	0.16770 0.63220 0.68810 1.16200
C 	C 	0.14040 0.67420 0.74960 -2.33300
H 	H 	0.15970 0.70110 0.79000 0.69100
H 	H 	0.12330 0.63090 0.77840 0.66200
C 	C 	0.11480 0.72860 0.72270 2.15000
H 	H 	0.13160 0.78120 0.71740 -0.57900
H 	H 	0.10690 0.71110 0.66700 -0.57100
C 	C 	0.07350 0.75090 0.76460 -1.50800
H 	H 	0.05400 0.70160 0.76770 0.43100
H 	H 	0.07930 0.77120 0.82030 0.45400
C 	C 	0.05170 0.82430 0.71010 0.80500
C 	C 	0.05510 0.90340 0.70700 -0.99500
H 	H 	0.07100 0.93170 0.74810 0.39500
C 	C 	0.03340 0.78520 0.63980 -0.49400
H 	H 	0.03530 0.72630 0.63180 0.19200
C 	C 	0.03790 0.94580 0.65040 0.76500
H 	H 	0.04030 0.00490 0.65620 -0.27500
C 	C 	0.01200 0.83840 0.58140 0.21200
H 	H 	0.99420 0.81520 0.54000 -0.03800
Cu	Cu	0.25000 0.00000 0.16274 0.87200
Cu	Cu	0.75000 0.00000 0.33726 0.87300
Cu	Cu	0.75000 0.00000 0.83726 0.87400
Cu	Cu	0.25000 0.00000 0.66274 0.87300
Cu	Cu	0.25000 0.50000 0.97636 0.89800
Cu	Cu	0.75000 0.50000 0.52364 0.89200
Cu	Cu	0.75000 0.50000 0.02364 0.88500
Cu	Cu	0.25000 0.50000 0.47636 0.89200
Cu	Cu	0.50000 0.00000 0.50000 0.87000
Cu	Cu	0.00000 0.00000 0.50000 0.86200
Cu	Cu	0.50000 0.00000 -0.00000 0.86200
Cu	Cu	-0.00000 0.00000 -0.00000 0.85400
