data_crystal

_cell_length_a 24.83190
_cell_length_b 33.53200
_cell_length_c 18.70990
_cell_angle_alpha 90.00000
_cell_angle_beta  90.00000
_cell_angle_gamma 90.00000

_symmetry_space_group_name_	'P 1'
_symmetry_space_group_name_H-M	'P 1'

loop_
_symmetry_equiv_pos_as_xyz
  x,y,z

loop_
_atom_site_label
_atom_site_type_symbol
_atom_site_fract_x
_atom_site_fract_y
_atom_site_fract_z
_atom_site_charge
Cu	Cu	0.79021 0.73236 0.53475 0.90800
O 	O 	0.82202 0.72896 0.43980 -0.39800
O 	O 	0.75336 0.75792 0.38040 -0.40200
O 	O 	0.95800 0.57060 0.37070 -0.16400
O 	O 	0.81847 0.78646 0.54530 -0.39900
O 	O 	0.75082 0.81641 0.48620 -0.39500
O 	O 	0.94509 0.86501 0.67760 -0.38100
O 	O 	0.94378 0.93168 0.67640 -0.38200
O 	O 	0.61140 0.97040 0.51570 -0.20200
C 	C 	0.79840 0.74111 0.38380 0.35400
C 	C 	0.82580 0.73223 0.31410 -0.08600
C 	C 	0.87560 0.71164 0.31180 0.00800
H 	H 	0.89200 0.70520 0.35500 0.05600
C 	C 	0.95130 0.64240 0.30090 -0.02500
H 	H 	0.91870 0.63270 0.31800 0.07200
C 	C 	0.79430 0.81635 0.52230 0.35100
C 	C 	0.81650 0.85672 0.54120 -0.07200
C 	C 	0.79090 0.89130 0.51860 -0.01300
H 	H 	0.76110 0.88930 0.48860 0.06000
C 	C 	0.80840 0.92850 0.53970 -0.01300
C 	C 	0.85330 0.93011 0.58300 -0.01300
H 	H 	0.86600 0.95490 0.59750 0.05900
C 	C 	0.88000 0.89637 0.60580 -0.07100
C 	C 	0.86080 0.85943 0.58400 0.02200
H 	H 	0.87830 0.83630 0.59870 0.06300
C 	C 	0.92680 0.89856 0.65680 0.35200
C 	C 	0.77840 0.96498 0.51870 0.07300
C 	C 	0.72210 0.96637 0.51940 -0.08100
H 	H 	0.70270 0.94400 0.53340 0.08700
Cu	Cu	0.29021 0.23236 0.53475 0.90800
O 	O 	0.32202 0.22896 0.43980 -0.40100
O 	O 	0.25336 0.25792 0.38040 -0.40400
O 	O 	0.45800 0.07060 0.37070 -0.22000
O 	O 	0.31847 0.28646 0.54530 -0.40300
O 	O 	0.25082 0.31641 0.48620 -0.39700
O 	O 	0.44509 0.36501 0.67760 -0.40200
O 	O 	0.44378 0.43168 0.67640 -0.40400
O 	O 	0.11140 0.47040 0.51570 -0.21700
C 	C 	0.29840 0.24111 0.38380 0.35300
C 	C 	0.32580 0.23223 0.31410 -0.08300
C 	C 	0.37560 0.21164 0.31180 -0.00600
H 	H 	0.39200 0.20520 0.35500 0.05500
C 	C 	0.45130 0.14240 0.30090 -0.06000
H 	H 	0.41870 0.13270 0.31800 0.07800
C 	C 	0.29430 0.31635 0.52230 0.35300
C 	C 	0.31650 0.35672 0.54120 -0.07900
C 	C 	0.29090 0.39130 0.51860 -0.01100
H 	H 	0.26110 0.38930 0.48860 0.05700
C 	C 	0.30840 0.42850 0.53970 -0.01800
C 	C 	0.35330 0.43011 0.58300 -0.00900
H 	H 	0.36600 0.45490 0.59750 0.05300
C 	C 	0.38000 0.39637 0.60580 -0.08100
C 	C 	0.36080 0.35943 0.58400 0.02600
H 	H 	0.37830 0.33630 0.59870 0.05700
C 	C 	0.42680 0.39856 0.65680 0.35700
C 	C 	0.27840 0.46498 0.51870 0.06600
C 	C 	0.22210 0.46637 0.51940 -0.08600
H 	H 	0.20270 0.44400 0.53340 0.08600
Cu	Cu	0.20979 0.26764 0.03475 0.90400
O 	O 	0.17798 0.27104 0.93980 -0.40100
O 	O 	0.24664 0.24208 0.88040 -0.40200
O 	O 	0.04200 0.42940 0.87070 -0.20900
O 	O 	0.18153 0.21354 0.04530 -0.40500
O 	O 	0.24918 0.18359 0.98620 -0.38700
O 	O 	0.05491 0.13499 0.17760 -0.41400
O 	O 	0.05622 0.06832 0.17640 -0.41600
O 	O 	0.38860 0.02960 0.01570 -0.20700
C 	C 	0.20160 0.25889 0.88380 0.35500
C 	C 	0.17420 0.26777 0.81410 -0.09100
C 	C 	0.12440 0.28836 0.81180 0.00800
H 	H 	0.10800 0.29480 0.85500 0.04800
C 	C 	0.04870 0.35760 0.80090 -0.06900
H 	H 	0.08130 0.36730 0.81800 0.08100
C 	C 	0.20570 0.18365 0.02230 0.34000
C 	C 	0.18350 0.14328 0.04120 -0.07200
C 	C 	0.20910 0.10870 0.01860 -0.03100
H 	H 	0.23890 0.11070 0.98860 0.07000
C 	C 	0.19160 0.07150 0.03970 -0.01400
C 	C 	0.14670 0.06989 0.08300 -0.01200
H 	H 	0.13400 0.04510 0.09750 0.04900
C 	C 	0.12000 0.10363 0.10580 -0.08400
C 	C 	0.13920 0.14057 0.08400 0.02100
H 	H 	0.12170 0.16370 0.09870 0.05400
C 	C 	0.07320 0.10144 0.15680 0.35600
C 	C 	0.22160 0.03502 0.01870 0.06700
C 	C 	0.27790 0.03363 0.01940 -0.08700
H 	H 	0.29730 0.05600 0.03340 0.08600
Cu	Cu	0.70979 0.76764 0.03475 0.90600
O 	O 	0.67798 0.77104 0.93980 -0.39700
O 	O 	0.74664 0.74208 0.88040 -0.39900
O 	O 	0.54200 0.92940 0.87070 -0.21700
O 	O 	0.68153 0.71354 0.04530 -0.40100
O 	O 	0.74918 0.68359 0.98620 -0.38400
O 	O 	0.55491 0.63499 0.17760 -0.40200
O 	O 	0.55622 0.56832 0.17640 -0.40400
O 	O 	0.88860 0.52960 0.01570 -0.19700
C 	C 	0.70160 0.75889 0.88380 0.35100
C 	C 	0.67420 0.76777 0.81410 -0.07900
C 	C 	0.62440 0.78836 0.81180 -0.00800
H 	H 	0.60800 0.79480 0.85500 0.05700
C 	C 	0.54870 0.85760 0.80090 -0.06000
H 	H 	0.58130 0.86730 0.81800 0.07900
C 	C 	0.70570 0.68365 0.02230 0.33800
C 	C 	0.68350 0.64328 0.04120 -0.06600
C 	C 	0.70910 0.60870 0.01860 -0.03400
H 	H 	0.73890 0.61070 0.98860 0.07400
C 	C 	0.69160 0.57150 0.03970 -0.00900
C 	C 	0.64670 0.56989 0.08300 -0.01600
H 	H 	0.63400 0.54510 0.09750 0.05500
C 	C 	0.62000 0.60363 0.10580 -0.07500
C 	C 	0.63920 0.64057 0.08400 0.01700
H 	H 	0.62170 0.66370 0.09870 0.05900
C 	C 	0.57320 0.60144 0.15680 0.35500
C 	C 	0.72160 0.53502 0.01870 0.06700
C 	C 	0.77790 0.53363 0.01940 -0.08800
H 	H 	0.79730 0.55600 0.03340 0.08900
Cu	Cu	0.20979 0.73236 0.96525 0.90900
O 	O 	0.17798 0.72896 0.06020 -0.40900
O 	O 	0.24664 0.75792 0.11960 -0.40400
O 	O 	0.04200 0.57060 0.12930 -0.21100
O 	O 	0.18153 0.78646 0.95470 -0.40800
O 	O 	0.24918 0.81641 0.01380 -0.40600
O 	O 	0.05491 0.86501 0.82240 -0.41400
O 	O 	0.05622 0.93168 0.82360 -0.41400
O 	O 	0.38860 0.97040 0.98430 -0.19200
C 	C 	0.20160 0.74111 0.11620 0.35600
C 	C 	0.17420 0.73223 0.18590 -0.09300
C 	C 	0.12440 0.71164 0.18820 0.00900
H 	H 	0.10800 0.70520 0.14500 0.04600
C 	C 	0.04870 0.64240 0.19910 -0.07000
H 	H 	0.08130 0.63270 0.18200 0.08000
C 	C 	0.20570 0.81635 0.97770 0.36800
C 	C 	0.18350 0.85672 0.95880 -0.09600
C 	C 	0.20910 0.89130 0.98140 0.01800
H 	H 	0.23890 0.88930 0.01140 0.04200
C 	C 	0.19160 0.92850 0.96030 -0.03500
C 	C 	0.14670 0.93011 0.91700 0.00400
H 	H 	0.13400 0.95490 0.90250 0.04800
C 	C 	0.12000 0.89637 0.89420 -0.09400
C 	C 	0.13920 0.85943 0.91600 0.03900
H 	H 	0.12170 0.83630 0.90130 0.04900
C 	C 	0.07320 0.89856 0.84320 0.36000
C 	C 	0.22160 0.96498 0.98130 0.08600
C 	C 	0.27790 0.96637 0.98060 -0.07700
H 	H 	0.29730 0.94400 0.96660 0.08700
Cu	Cu	0.70979 0.23236 0.96525 0.91000
O 	O 	0.67798 0.22896 0.06020 -0.40500
O 	O 	0.74664 0.25792 0.11960 -0.40100
O 	O 	0.54200 0.07060 0.12930 -0.22100
O 	O 	0.68153 0.28646 0.95470 -0.40400
O 	O 	0.74918 0.31641 0.01380 -0.40300
O 	O 	0.55491 0.36501 0.82240 -0.40200
O 	O 	0.55622 0.43168 0.82360 -0.40300
O 	O 	0.88860 0.47040 0.98430 -0.18900
C 	C 	0.70160 0.24111 0.11620 0.35200
C 	C 	0.67420 0.23223 0.18590 -0.08100
C 	C 	0.62440 0.21164 0.18820 -0.00700
H 	H 	0.60800 0.20520 0.14500 0.05500
C 	C 	0.54870 0.14240 0.19910 -0.06000
H 	H 	0.58130 0.13270 0.18200 0.07800
C 	C 	0.70570 0.31635 0.97770 0.36600
C 	C 	0.68350 0.35672 0.95880 -0.09000
C 	C 	0.70910 0.39130 0.98140 0.01400
H 	H 	0.73890 0.38930 0.01140 0.04500
C 	C 	0.69160 0.42850 0.96030 -0.03000
C 	C 	0.64670 0.43011 0.91700 0.00100
H 	H 	0.63400 0.45490 0.90250 0.05100
C 	C 	0.62000 0.39637 0.89420 -0.08700
C 	C 	0.63920 0.35943 0.91600 0.03600
H 	H 	0.62170 0.33630 0.90130 0.05400
C 	C 	0.57320 0.39856 0.84320 0.35900
C 	C 	0.72160 0.46498 0.98130 0.08200
C 	C 	0.77790 0.46637 0.98060 -0.08400
H 	H 	0.79730 0.44400 0.96660 0.09000
Cu	Cu	0.79021 0.26764 0.46525 0.90900
O 	O 	0.82202 0.27104 0.56020 -0.39700
O 	O 	0.75336 0.24208 0.61960 -0.40100
O 	O 	0.95800 0.42940 0.62930 -0.16300
O 	O 	0.81847 0.21354 0.45470 -0.39800
O 	O 	0.75082 0.18359 0.51380 -0.39500
O 	O 	0.94509 0.13499 0.32240 -0.38000
O 	O 	0.94378 0.06832 0.32360 -0.38300
O 	O 	0.61140 0.02960 0.48430 -0.20700
C 	C 	0.79840 0.25889 0.61620 0.35500
C 	C 	0.82580 0.26777 0.68590 -0.08500
C 	C 	0.87560 0.28836 0.68820 0.00800
H 	H 	0.89200 0.29480 0.64500 0.05700
C 	C 	0.95130 0.35760 0.69910 -0.02500
H 	H 	0.91870 0.36730 0.68200 0.07200
C 	C 	0.79430 0.18365 0.47770 0.35200
C 	C 	0.81650 0.14328 0.45880 -0.07300
C 	C 	0.79090 0.10870 0.48140 -0.01300
H 	H 	0.76110 0.11070 0.51140 0.06000
C 	C 	0.80840 0.07150 0.46030 -0.01400
C 	C 	0.85330 0.06989 0.41700 -0.01200
H 	H 	0.86600 0.04510 0.40250 0.05700
C 	C 	0.88000 0.10363 0.39420 -0.07200
C 	C 	0.86080 0.14057 0.41600 0.02200
H 	H 	0.87830 0.16370 0.40130 0.06300
C 	C 	0.92680 0.10144 0.34320 0.35200
C 	C 	0.77840 0.03502 0.48130 0.06900
C 	C 	0.72210 0.03363 0.48060 -0.08700
H 	H 	0.70270 0.05600 0.46660 0.08800
Cu	Cu	0.29021 0.76764 0.46525 0.90800
O 	O 	0.32202 0.77104 0.56020 -0.40100
O 	O 	0.25336 0.74208 0.61960 -0.40300
O 	O 	0.45800 0.92940 0.62930 -0.21800
O 	O 	0.31847 0.71354 0.45470 -0.40300
O 	O 	0.25082 0.68359 0.51380 -0.39700
O 	O 	0.44509 0.63499 0.32240 -0.40200
O 	O 	0.44378 0.56832 0.32360 -0.40400
O 	O 	0.11140 0.52960 0.48430 -0.21700
C 	C 	0.29840 0.75889 0.61620 0.35300
C 	C 	0.32580 0.76777 0.68590 -0.08200
C 	C 	0.37560 0.78836 0.68820 -0.00600
H 	H 	0.39200 0.79480 0.64500 0.05600
C 	C 	0.45130 0.85760 0.69910 -0.06000
H 	H 	0.41870 0.86730 0.68200 0.07900
C 	C 	0.29430 0.68365 0.47770 0.35300
C 	C 	0.31650 0.64328 0.45880 -0.07900
C 	C 	0.29090 0.60870 0.48140 -0.01100
H 	H 	0.26110 0.61070 0.51140 0.05700
C 	C 	0.30840 0.57150 0.46030 -0.01800
C 	C 	0.35330 0.56989 0.41700 -0.00900
H 	H 	0.36600 0.54510 0.40250 0.05300
C 	C 	0.38000 0.60363 0.39420 -0.08100
C 	C 	0.36080 0.64057 0.41600 0.02600
H 	H 	0.37830 0.66370 0.40130 0.05600
C 	C 	0.42680 0.60144 0.34320 0.35700
C 	C 	0.27840 0.53502 0.48130 0.06700
C 	C 	0.22210 0.53363 0.48060 -0.08600
H 	H 	0.20270 0.55600 0.46660 0.08600
Cu	Cu	0.20979 0.26764 0.46525 0.90700
O 	O 	0.17798 0.27104 0.56020 -0.40500
O 	O 	0.24664 0.24208 0.61960 -0.40300
O 	O 	0.04200 0.42940 0.62930 -0.21000
O 	O 	0.18153 0.21354 0.45470 -0.40600
O 	O 	0.24918 0.18359 0.51380 -0.39700
O 	O 	0.05491 0.13499 0.32240 -0.41400
O 	O 	0.05622 0.06832 0.32360 -0.41600
O 	O 	0.38860 0.02960 0.48430 -0.20700
C 	C 	0.20160 0.25889 0.61620 0.35600
C 	C 	0.17420 0.26777 0.68590 -0.09200
C 	C 	0.12440 0.28836 0.68820 0.00800
H 	H 	0.10800 0.29480 0.64500 0.04700
C 	C 	0.04870 0.35760 0.69910 -0.07000
H 	H 	0.08130 0.36730 0.68200 0.08100
C 	C 	0.20570 0.18365 0.47770 0.35400
C 	C 	0.18350 0.14328 0.45880 -0.08400
C 	C 	0.20910 0.10870 0.48140 -0.00800
H 	H 	0.23890 0.11070 0.51140 0.05600
C 	C 	0.19160 0.07150 0.46030 -0.02300
C 	C 	0.14670 0.06989 0.41700 -0.00500
H 	H 	0.13400 0.04510 0.40250 0.04700
C 	C 	0.12000 0.10363 0.39420 -0.08900
C 	C 	0.13920 0.14057 0.41600 0.03000
H 	H 	0.12170 0.16370 0.40130 0.05100
C 	C 	0.07320 0.10144 0.34320 0.35800
C 	C 	0.22160 0.03502 0.48130 0.07000
C 	C 	0.27790 0.03363 0.48060 -0.08800
H 	H 	0.29730 0.05600 0.46660 0.08800
Cu	Cu	0.70979 0.76764 0.46525 0.90800
O 	O 	0.67798 0.77104 0.56020 -0.40100
O 	O 	0.74664 0.74208 0.61960 -0.39900
O 	O 	0.54200 0.92940 0.62930 -0.21800
O 	O 	0.68153 0.71354 0.45470 -0.40200
O 	O 	0.74918 0.68359 0.51380 -0.39400
O 	O 	0.55491 0.63499 0.32240 -0.40200
O 	O 	0.55622 0.56832 0.32360 -0.40400
O 	O 	0.88860 0.52960 0.48430 -0.19700
C 	C 	0.70160 0.75889 0.61620 0.35200
C 	C 	0.67420 0.76777 0.68590 -0.07900
C 	C 	0.62440 0.78836 0.68820 -0.00800
H 	H 	0.60800 0.79480 0.64500 0.05600
C 	C 	0.54870 0.85760 0.69910 -0.06000
H 	H 	0.58130 0.86730 0.68200 0.07900
C 	C 	0.70570 0.68365 0.47770 0.35200
C 	C 	0.68350 0.64328 0.45880 -0.07700
C 	C 	0.70910 0.60870 0.48140 -0.01100
H 	H 	0.73890 0.61070 0.51140 0.06000
C 	C 	0.69160 0.57150 0.46030 -0.01800
C 	C 	0.64670 0.56989 0.41700 -0.00900
H 	H 	0.63400 0.54510 0.40250 0.05300
C 	C 	0.62000 0.60363 0.39420 -0.08100
C 	C 	0.63920 0.64057 0.41600 0.02600
H 	H 	0.62170 0.66370 0.40130 0.05700
C 	C 	0.57320 0.60144 0.34320 0.35700
C 	C 	0.72160 0.53502 0.48130 0.07000
C 	C 	0.77790 0.53363 0.48060 -0.08900
H 	H 	0.79730 0.55600 0.46660 0.09000
Cu	Cu	0.79021 0.73236 0.96525 0.91200
O 	O 	0.82202 0.72896 0.06020 -0.40100
O 	O 	0.75336 0.75792 0.11960 -0.40200
O 	O 	0.95800 0.57060 0.12930 -0.16500
O 	O 	0.81847 0.78646 0.95470 -0.40000
O 	O 	0.75082 0.81641 0.01380 -0.40400
O 	O 	0.94509 0.86501 0.82240 -0.38000
O 	O 	0.94378 0.93168 0.82360 -0.38100
O 	O 	0.61140 0.97040 0.98430 -0.19200
C 	C 	0.79840 0.74111 0.11620 0.35500
C 	C 	0.82580 0.73223 0.18590 -0.08600
C 	C 	0.87560 0.71164 0.18820 0.00900
H 	H 	0.89200 0.70520 0.14500 0.05600
C 	C 	0.95130 0.64240 0.19910 -0.02500
H 	H 	0.91870 0.63270 0.18200 0.07100
C 	C 	0.79430 0.81635 0.97770 0.36500
C 	C 	0.81650 0.85672 0.95880 -0.08500
C 	C 	0.79090 0.89130 0.98140 0.01200
H 	H 	0.76110 0.88930 0.01140 0.04600
C 	C 	0.80840 0.92850 0.96030 -0.02600
C 	C 	0.85330 0.93011 0.91700 -0.00300
H 	H 	0.86600 0.95490 0.90250 0.05700
C 	C 	0.88000 0.89637 0.89420 -0.07700
C 	C 	0.86080 0.85943 0.91600 0.03200
H 	H 	0.87830 0.83630 0.90130 0.06000
C 	C 	0.92680 0.89856 0.84320 0.35400
C 	C 	0.77840 0.96498 0.98130 0.08500
C 	C 	0.72210 0.96637 0.98060 -0.07500
H 	H 	0.70270 0.94400 0.96660 0.08700
Cu	Cu	0.29021 0.23236 0.96525 0.91000
O 	O 	0.32202 0.22896 0.06020 -0.40500
O 	O 	0.25336 0.25792 0.11960 -0.40500
O 	O 	0.45800 0.07060 0.12930 -0.22100
O 	O 	0.31847 0.28646 0.95470 -0.40400
O 	O 	0.25082 0.31641 0.01380 -0.40700
O 	O 	0.44509 0.36501 0.82240 -0.40200
O 	O 	0.44378 0.43168 0.82360 -0.40400
O 	O 	0.11140 0.47040 0.98430 -0.20800
C 	C 	0.29840 0.24111 0.11620 0.35400
C 	C 	0.32580 0.23223 0.18590 -0.08300
C 	C 	0.37560 0.21164 0.18820 -0.00500
H 	H 	0.39200 0.20520 0.14500 0.05400
C 	C 	0.45130 0.14240 0.19910 -0.06000
H 	H 	0.41870 0.13270 0.18200 0.07800
C 	C 	0.29430 0.31635 0.97770 0.36700
C 	C 	0.31650 0.35672 0.95880 -0.09200
C 	C 	0.29090 0.39130 0.98140 0.01500
H 	H 	0.26110 0.38930 0.01140 0.04200
C 	C 	0.30840 0.42850 0.96030 -0.03000
C 	C 	0.35330 0.43011 0.91700 0.00100
H 	H 	0.36600 0.45490 0.90250 0.05100
C 	C 	0.38000 0.39637 0.89420 -0.08700
C 	C 	0.36080 0.35943 0.91600 0.03600
H 	H 	0.37830 0.33630 0.90130 0.05400
C 	C 	0.42680 0.39856 0.84320 0.35900
C 	C 	0.27840 0.46498 0.98130 0.07900
C 	C 	0.22210 0.46637 0.98060 -0.08000
H 	H 	0.20270 0.44400 0.96660 0.08600
Cu	Cu	0.79021 0.26764 0.03475 0.90700
O 	O 	0.82202 0.27104 0.93980 -0.39300
O 	O 	0.75336 0.24208 0.88040 -0.40000
O 	O 	0.95800 0.42940 0.87070 -0.16200
O 	O 	0.81847 0.21354 0.04530 -0.39700
O 	O 	0.75082 0.18359 0.98620 -0.38500
O 	O 	0.94509 0.13499 0.17760 -0.38000
O 	O 	0.94378 0.06832 0.17640 -0.38300
O 	O 	0.61140 0.02960 0.01570 -0.20600
C 	C 	0.79840 0.25889 0.88380 0.35400
C 	C 	0.82580 0.26777 0.81410 -0.08400
C 	C 	0.87560 0.28836 0.81180 0.00800
H 	H 	0.89200 0.29480 0.85500 0.05800
C 	C 	0.95130 0.35760 0.80090 -0.02500
H 	H 	0.91870 0.36730 0.81800 0.07200
C 	C 	0.79430 0.18365 0.02230 0.33800
C 	C 	0.81650 0.14328 0.04120 -0.06100
C 	C 	0.79090 0.10870 0.01860 -0.03600
H 	H 	0.76110 0.11070 0.98860 0.07300
C 	C 	0.80840 0.07150 0.03970 -0.00500
C 	C 	0.85330 0.06989 0.08300 -0.01900
H 	H 	0.86600 0.04510 0.09750 0.05900
C 	C 	0.88000 0.10363 0.10580 -0.06700
C 	C 	0.86080 0.14057 0.08400 0.01300
H 	H 	0.87830 0.16370 0.09870 0.06500
C 	C 	0.92680 0.10144 0.15680 0.35000
C 	C 	0.77840 0.03502 0.01870 0.06700
C 	C 	0.72210 0.03363 0.01940 -0.08500
H 	H 	0.70270 0.05600 0.03340 0.08600
Cu	Cu	0.29021 0.76764 0.03475 0.90600
O 	O 	0.32202 0.77104 0.93980 -0.39700
O 	O 	0.25336 0.74208 0.88040 -0.40200
O 	O 	0.45800 0.92940 0.87070 -0.21700
O 	O 	0.31847 0.71354 0.04530 -0.40100
O 	O 	0.25082 0.68359 0.98620 -0.38800
O 	O 	0.44509 0.63499 0.17760 -0.40200
O 	O 	0.44378 0.56832 0.17640 -0.40400
O 	O 	0.11140 0.52960 0.01570 -0.21700
C 	C 	0.29840 0.75889 0.88380 0.35300
C 	C 	0.32580 0.76777 0.81410 -0.08100
C 	C 	0.37560 0.78836 0.81180 -0.00600
H 	H 	0.39200 0.79480 0.85500 0.05600
C 	C 	0.45130 0.85760 0.80090 -0.06000
H 	H 	0.41870 0.86730 0.81800 0.07900
C 	C 	0.29430 0.68365 0.02230 0.34000
C 	C 	0.31650 0.64328 0.04120 -0.06700
C 	C 	0.29090 0.60870 0.01860 -0.03400
H 	H 	0.26110 0.61070 0.98860 0.07100
C 	C 	0.30840 0.57150 0.03970 -0.00900
C 	C 	0.35330 0.56989 0.08300 -0.01600
H 	H 	0.36600 0.54510 0.09750 0.05400
C 	C 	0.38000 0.60363 0.10580 -0.07600
C 	C 	0.36080 0.64057 0.08400 0.01800
H 	H 	0.37830 0.66370 0.09870 0.05900
C 	C 	0.42680 0.60144 0.15680 0.35500
C 	C 	0.27840 0.53502 0.01870 0.06400
C 	C 	0.22210 0.53363 0.01940 -0.08400
H 	H 	0.20270 0.55600 0.03340 0.08400
Cu	Cu	0.20979 0.73236 0.53475 0.90700
O 	O 	0.17798 0.72896 0.43980 -0.40500
O 	O 	0.24664 0.75792 0.38040 -0.40300
O 	O 	0.04200 0.57060 0.37070 -0.21000
O 	O 	0.18153 0.78646 0.54530 -0.40600
O 	O 	0.24918 0.81641 0.48620 -0.39700
O 	O 	0.05491 0.86501 0.67760 -0.41300
O 	O 	0.05622 0.93168 0.67640 -0.41400
O 	O 	0.38860 0.97040 0.51570 -0.20100
C 	C 	0.20160 0.74111 0.38380 0.35600
C 	C 	0.17420 0.73223 0.31410 -0.09300
C 	C 	0.12440 0.71164 0.31180 0.00900
H 	H 	0.10800 0.70520 0.35500 0.04600
C 	C 	0.04870 0.64240 0.30090 -0.07000
H 	H 	0.08130 0.63270 0.31800 0.08100
C 	C 	0.20570 0.81635 0.52230 0.35400
C 	C 	0.18350 0.85672 0.54120 -0.08300
C 	C 	0.20910 0.89130 0.51860 -0.00800
H 	H 	0.23890 0.88930 0.48860 0.05700
C 	C 	0.19160 0.92850 0.53970 -0.02200
C 	C 	0.14670 0.93011 0.58300 -0.00500
H 	H 	0.13400 0.95490 0.59750 0.05000
C 	C 	0.12000 0.89637 0.60580 -0.08800
C 	C 	0.13920 0.85943 0.58400 0.02900
H 	H 	0.12170 0.83630 0.59870 0.05200
C 	C 	0.07320 0.89856 0.65680 0.35800
C 	C 	0.22160 0.96498 0.51870 0.07400
C 	C 	0.27790 0.96637 0.51940 -0.08300
H 	H 	0.29730 0.94400 0.53340 0.08700
Cu	Cu	0.70979 0.23236 0.53475 0.90800
O 	O 	0.67798 0.22896 0.43980 -0.40100
O 	O 	0.74664 0.25792 0.38040 -0.40000
O 	O 	0.54200 0.07060 0.37070 -0.22000
O 	O 	0.68153 0.28646 0.54530 -0.40200
O 	O 	0.74918 0.31641 0.48620 -0.39400
O 	O 	0.55491 0.36501 0.67760 -0.40200
O 	O 	0.55622 0.43168 0.67640 -0.40300
O 	O 	0.88860 0.47040 0.51570 -0.19700
C 	C 	0.70160 0.24111 0.38380 0.35200
C 	C 	0.67420 0.23223 0.31410 -0.08100
C 	C 	0.62440 0.21164 0.31180 -0.00700
H 	H 	0.60800 0.20520 0.35500 0.05600
C 	C 	0.54870 0.14240 0.30090 -0.06000
H 	H 	0.58130 0.13270 0.31800 0.07800
C 	C 	0.70570 0.31635 0.52230 0.35200
C 	C 	0.68350 0.35672 0.54120 -0.07700
C 	C 	0.70910 0.39130 0.51860 -0.01100
H 	H 	0.73890 0.38930 0.48860 0.06000
C 	C 	0.69160 0.42850 0.53970 -0.01800
C 	C 	0.64670 0.43011 0.58300 -0.00900
H 	H 	0.63400 0.45490 0.59750 0.05300
C 	C 	0.62000 0.39637 0.60580 -0.08000
C 	C 	0.63920 0.35943 0.58400 0.02600
H 	H 	0.62170 0.33630 0.59870 0.05700
C 	C 	0.57320 0.39856 0.65680 0.35600
C 	C 	0.72160 0.46498 0.51870 0.07000
C 	C 	0.77790 0.46637 0.51940 -0.08900
H 	H 	0.79730 0.44400 0.53340 0.09000
Cu	Cu	0.00000 0.85895 0.75000 0.89200
Cu	Cu	0.00000 0.93796 0.75000 0.88500
Cu	Cu	0.50000 0.35895 0.75000 0.91200
Cu	Cu	0.50000 0.43796 0.75000 0.90400
Cu	Cu	-0.00000 0.14105 0.25000 0.89200
Cu	Cu	-0.00000 0.06204 0.25000 0.88300
Cu	Cu	0.50000 0.64105 0.25000 0.91200
Cu	Cu	0.50000 0.56204 0.25000 0.90400
C 	C 	0.80240 0.74170 0.25000 0.03600
H 	H 	0.76950 0.75500 0.25000 0.05400
C 	C 	0.90100 0.70070 0.25000 -0.05000
C 	C 	0.95150 0.67910 0.25000 0.14400
C 	C 	0.30240 0.24170 0.25000 0.03100
H 	H 	0.26950 0.25500 0.25000 0.05300
C 	C 	0.40100 0.20070 0.25000 -0.03200
C 	C 	0.45150 0.17910 0.25000 0.08400
C 	C 	0.19760 0.25830 0.75000 0.03800
H 	H 	0.23050 0.24500 0.75000 0.05200
C 	C 	0.09900 0.29930 0.75000 -0.05600
C 	C 	0.04850 0.32090 0.75000 0.12100
C 	C 	0.69760 0.75830 0.75000 0.02800
H 	H 	0.73050 0.74500 0.75000 0.05800
C 	C 	0.59900 0.79930 0.75000 -0.03000
C 	C 	0.54850 0.82090 0.75000 0.08400
C 	C 	0.19760 0.74170 0.25000 0.03900
H 	H 	0.23050 0.75500 0.25000 0.05200
C 	C 	0.09900 0.70070 0.25000 -0.05700
C 	C 	0.04850 0.67910 0.25000 0.12100
C 	C 	0.69760 0.24170 0.25000 0.02900
H 	H 	0.73050 0.25500 0.25000 0.05700
C 	C 	0.59900 0.20070 0.25000 -0.03100
C 	C 	0.54850 0.17910 0.25000 0.08400
C 	C 	0.80240 0.25830 0.75000 0.03500
H 	H 	0.76950 0.24500 0.75000 0.05500
C 	C 	0.90100 0.29930 0.75000 -0.04900
C 	C 	0.95150 0.32090 0.75000 0.14400
C 	C 	0.30240 0.75830 0.75000 0.03000
H 	H 	0.26950 0.74500 0.75000 0.05400
C 	C 	0.40100 0.79930 0.75000 -0.03100
C 	C 	0.45150 0.82090 0.75000 0.08400
C 	C 	-0.00000 0.69580 0.25000 -0.24300
H 	H 	-0.00000 0.72350 0.25000 0.10900
C 	C 	0.50000 0.19580 0.25000 -0.14800
H 	H 	0.50000 0.22350 0.25000 0.09300
C 	C 	-0.00000 0.30420 0.75000 -0.24200
H 	H 	0.00000 0.27650 0.75000 0.11000
C 	C 	0.50000 0.80420 0.75000 -0.14800
H 	H 	0.50000 0.77650 0.75000 0.09300
C 	C 	-0.00000 0.62350 0.32200 -0.05000
C 	C 	-0.00000 0.58650 0.36600 0.28400
C 	C 	0.50000 0.12350 0.32200 -0.02400
C 	C 	0.50000 0.08650 0.36600 0.35000
C 	C 	0.00000 0.37650 0.82200 -0.04900
C 	C 	-0.00000 0.41350 0.86600 0.28400
C 	C 	0.50000 0.87650 0.82200 -0.02200
C 	C 	0.50000 0.91350 0.86600 0.35000
C 	C 	0.00000 0.62350 0.17800 -0.05000
C 	C 	-0.00000 0.58650 0.13400 0.28400
C 	C 	0.50000 0.12350 0.17800 -0.02400
C 	C 	0.50000 0.08650 0.13400 0.35000
C 	C 	-0.00000 0.37650 0.67800 -0.05000
C 	C 	-0.00000 0.41350 0.63400 0.28400
C 	C 	0.50000 0.87650 0.67800 -0.02300
C 	C 	0.50000 0.91350 0.63400 0.34900
C 	C 	0.80550 0.00000 0.50000 -0.13100
H 	H 	0.84300 0.00000 0.50000 0.08600
C 	C 	0.69540 0.00000 0.50000 -0.00600
C 	C 	0.63480 0.00000 0.50000 0.31500
C 	C 	0.30550 0.50000 0.50000 -0.12400
H 	H 	0.34300 0.50000 0.50000 0.08100
C 	C 	0.19540 0.50000 0.50000 -0.00600
C 	C 	0.13480 0.50000 0.50000 0.32500
C 	C 	0.19450 0.00000 -0.00000 -0.14400
H 	H 	0.15700 0.00000 -0.00000 0.08100
C 	C 	0.30460 0.00000 -0.00000 -0.01100
C 	C 	0.36520 0.00000 -0.00000 0.30500
C 	C 	0.69450 0.50000 -0.00000 -0.13600
H 	H 	0.65700 0.50000 -0.00000 0.08400
C 	C 	0.80460 0.50000 -0.00000 -0.00300
C 	C 	0.86520 0.50000 -0.00000 0.30900
C 	C 	0.19450 0.00000 0.50000 -0.13300
H 	H 	0.15700 0.00000 0.50000 0.07900
C 	C 	0.30460 0.00000 0.50000 -0.00500
C 	C 	0.36520 0.00000 0.50000 0.31500
C 	C 	0.69450 0.50000 0.50000 -0.12500
H 	H 	0.65700 0.50000 0.50000 0.08200
C 	C 	0.80460 0.50000 0.50000 0.00400
C 	C 	0.86520 0.50000 0.50000 0.31800
C 	C 	0.80550 0.00000 -0.00000 -0.14200
H 	H 	0.84300 0.00000 -0.00000 0.08800
C 	C 	0.69540 0.00000 -0.00000 -0.01200
C 	C 	0.63480 0.00000 -0.00000 0.30600
C 	C 	0.30550 0.50000 -0.00000 -0.13500
H 	H 	0.34300 0.50000 -0.00000 0.08300
C 	C 	0.19540 0.50000 -0.00000 -0.01200
C 	C 	0.13480 0.50000 -0.00000 0.31500
