data_crystal

_cell_length_a 11.87700
_cell_length_b 13.85500
_cell_length_c 13.92100
_cell_angle_alpha 90.00000
_cell_angle_beta  114.40300
_cell_angle_gamma 90.00000

_symmetry_space_group_name_	'P 1'
_symmetry_space_group_name_H-M	'P 1'

loop_
_symmetry_equiv_pos_as_xyz
  x,y,z

loop_
_atom_site_label
_atom_site_type_symbol
_atom_site_fract_x
_atom_site_fract_y
_atom_site_fract_z
_atom_site_charge
C 	C 	0.42820 0.89565 0.11732 0.39100
C 	C 	0.35970 0.83893 0.16884 -0.10900
C 	C 	0.41640 0.76581 0.24037 0.05600
H 	H 	0.50010 0.75320 0.26090 0.04000
C 	C 	0.34890 0.71144 0.28141 -0.11000
C 	C 	0.22400 0.73120 0.25240 0.02100
H 	H 	0.17830 0.69310 0.27820 0.03600
C 	C 	0.16760 0.80781 0.18492 -0.05600
C 	C 	0.23630 0.86013 0.14282 0.01900
H 	H 	0.19890 0.91040 0.09620 0.03800
C 	C 	0.41000 0.63242 0.35957 0.39300
C 	C 	0.03690 0.83539 0.15771 0.11800
C 	C 	0.94550 0.76882 0.14580 -0.18100
H 	H 	0.96500 0.70360 0.15660 0.09800
C 	C 	0.82590 0.79872 0.11797 0.11200
H 	H 	0.76600 0.75240 0.10990 -0.01200
C 	C 	0.88080 0.95654 0.11550 0.08000
H 	H 	0.85920 0.02150 0.10590 0.00400
C 	C 	0.00140 0.93176 0.14270 -0.16100
H 	H 	0.05990 0.97940 0.15130 0.09100
N 	N 	0.79181 0.89106 0.10203 -0.25800
O 	O 	0.37033 0.96393 0.05868 -0.47000
O 	O 	0.53649 0.87016 0.13481 -0.44800
O 	O 	0.51896 0.64698 0.42483 -0.45500
O 	O 	0.34662 0.55809 0.35318 -0.45800
Zn	Zn	0.61518 0.94025 0.04962 1.21600
C 	C 	0.57180 0.39565 0.38268 0.39000
C 	C 	0.64030 0.33893 0.33116 -0.11000
C 	C 	0.58360 0.26581 0.25963 0.05600
H 	H 	0.49990 0.25320 0.23910 0.04100
C 	C 	0.65110 0.21144 0.21859 -0.11000
C 	C 	0.77600 0.23120 0.24760 0.02200
H 	H 	0.82170 0.19310 0.22180 0.03600
C 	C 	0.83240 0.30781 0.31508 -0.05800
C 	C 	0.76370 0.36013 0.35718 0.02000
H 	H 	0.80110 0.41040 0.40380 0.03800
C 	C 	0.59000 0.13242 0.14043 0.39300
C 	C 	0.96310 0.33539 0.34229 0.12300
C 	C 	0.05450 0.26882 0.35420 -0.18200
H 	H 	0.03500 0.20360 0.34340 0.09900
C 	C 	0.17410 0.29872 0.38203 0.11400
H 	H 	0.23400 0.25240 0.39010 -0.01300
C 	C 	0.11920 0.45654 0.38450 0.10200
H 	H 	0.14080 0.52150 0.39410 -0.00800
C 	C 	0.99860 0.43176 0.35730 -0.17700
H 	H 	0.94010 0.47940 0.34870 0.09600
N 	N 	0.20819 0.39106 0.39797 -0.26100
O 	O 	0.62967 0.46393 0.44132 -0.46900
O 	O 	0.46351 0.37016 0.36519 -0.44600
O 	O 	0.48104 0.14698 0.07517 -0.45200
O 	O 	0.65338 0.05809 0.14682 -0.45500
Zn	Zn	0.38482 0.44025 0.45038 1.21700
C 	C 	0.57180 0.10435 0.88268 0.39000
C 	C 	0.64030 0.16107 0.83116 -0.11000
C 	C 	0.58360 0.23419 0.75963 0.05600
H 	H 	0.49990 0.24680 0.73910 0.04000
C 	C 	0.65110 0.28856 0.71859 -0.11000
C 	C 	0.77600 0.26880 0.74760 0.02100
H 	H 	0.82170 0.30690 0.72180 0.03600
C 	C 	0.83240 0.19219 0.81508 -0.05600
C 	C 	0.76370 0.13987 0.85718 0.01900
H 	H 	0.80110 0.08960 0.90380 0.03800
C 	C 	0.59000 0.36758 0.64043 0.39300
C 	C 	0.96310 0.16461 0.84229 0.11800
C 	C 	0.05450 0.23118 0.85420 -0.18100
H 	H 	0.03500 0.29640 0.84340 0.09800
C 	C 	0.17410 0.20128 0.88203 0.11200
H 	H 	0.23400 0.24760 0.89010 -0.01200
C 	C 	0.11920 0.04346 0.88450 0.08000
H 	H 	0.14080 0.97850 0.89410 0.00400
C 	C 	0.99860 0.06824 0.85730 -0.16100
H 	H 	0.94010 0.02060 0.84870 0.09100
N 	N 	0.20819 0.10894 0.89797 -0.25800
O 	O 	0.62967 0.03607 0.94132 -0.47000
O 	O 	0.46351 0.12984 0.86519 -0.44800
O 	O 	0.48104 0.35302 0.57517 -0.45500
O 	O 	0.65338 0.44191 0.64682 -0.45800
Zn	Zn	0.38482 0.05975 0.95038 1.21600
C 	C 	0.42820 0.60435 0.61732 0.39000
C 	C 	0.35970 0.66107 0.66884 -0.11000
C 	C 	0.41640 0.73419 0.74037 0.05600
H 	H 	0.50010 0.74680 0.76090 0.04100
C 	C 	0.34890 0.78856 0.78141 -0.11000
C 	C 	0.22400 0.76880 0.75240 0.02200
H 	H 	0.17830 0.80690 0.77820 0.03600
C 	C 	0.16760 0.69219 0.68492 -0.05800
C 	C 	0.23630 0.63987 0.64282 0.02000
H 	H 	0.19890 0.58960 0.59620 0.03800
C 	C 	0.41000 0.86758 0.85957 0.39300
C 	C 	0.03690 0.66461 0.65771 0.12300
C 	C 	0.94550 0.73118 0.64580 -0.18200
H 	H 	0.96500 0.79640 0.65660 0.09900
C 	C 	0.82590 0.70128 0.61797 0.11400
H 	H 	0.76600 0.74760 0.60990 -0.01300
C 	C 	0.88080 0.54346 0.61550 0.10200
H 	H 	0.85920 0.47850 0.60590 -0.00800
C 	C 	0.00140 0.56824 0.64270 -0.17700
H 	H 	0.05990 0.52060 0.65130 0.09600
N 	N 	0.79181 0.60894 0.60203 -0.26100
O 	O 	0.37033 0.53607 0.55868 -0.46900
O 	O 	0.53649 0.62984 0.63481 -0.44600
O 	O 	0.51896 0.85302 0.92483 -0.45200
O 	O 	0.34662 0.94191 0.85318 -0.45500
Zn	Zn	0.61518 0.55975 0.54962 1.21700
