data_crystal

_cell_length_a 33.12720
_cell_length_b 65.11580
_cell_length_c 19.18040
_cell_angle_alpha 90.00000
_cell_angle_beta  90.00000
_cell_angle_gamma 90.00000

_symmetry_space_group_name_	'P 1'
_symmetry_space_group_name_H-M	'P 1'

loop_
_symmetry_equiv_pos_as_xyz
  x,y,z

loop_
_atom_site_label
_atom_site_type_symbol
_atom_site_fract_x
_atom_site_fract_y
_atom_site_fract_z
_atom_site_charge
Zn	Zn	0.50213 0.05793 0.31253 1.19200
Zn	Zn	0.26950 0.99077 0.00879 1.24800
Zn	Zn	0.24480 0.04157 0.98625 1.19300
S 	S 	0.39099 0.02133 0.12970 0.10200
S 	S 	0.12930 0.02666 0.12400 0.04200
S 	S 	0.62920 0.03565 0.13240 0.04700
S 	S 	0.51530 0.99506 0.47200 0.13000
S 	S 	0.27110 0.99370 0.76800 0.26400
O 	O 	0.31530 0.00870 0.04830 -0.42800
O 	O 	0.29260 0.04179 0.04030 -0.51700
O 	O 	0.54760 0.06144 0.24880 -0.51200
O 	O 	0.55970 0.02846 0.22030 -0.45600
O 	O 	0.45590 0.05427 0.24920 -0.52600
O 	O 	0.47030 0.02358 0.20610 -0.43400
O 	O 	0.46960 0.04210 0.40690 -0.42100
O 	O 	0.52120 0.02981 0.35500 -0.53800
O 	O 	0.26920 0.01042 0.92060 -0.51000
O 	O 	0.22570 0.03260 0.88540 -0.45300
O 	O 	0.22340 0.00292 0.06230 -0.51400
O 	O 	0.19720 0.03206 0.03630 -0.53100
C 	C 	0.56650 0.04749 0.21730 0.41800
C 	C 	0.19530 0.01492 0.06350 0.49700
C 	C 	0.31800 0.02750 0.06050 0.39100
C 	C 	0.35160 0.03520 0.10300 -0.12800
C 	C 	0.59730 0.05373 0.16550 -0.12400
C 	C 	0.44900 0.04000 0.21230 0.45200
C 	C 	0.15720 0.00963 0.09540 -0.17000
C 	C 	0.35690 0.05460 0.12590 0.02000
C 	C 	0.41190 0.04160 0.17200 -0.14600
C 	C 	0.14480 0.99030 0.10490 0.06000
C 	C 	0.61020 0.07330 0.15020 0.02100
C 	C 	0.38740 0.05850 0.16630 0.03000
C 	C 	0.24840 0.01700 0.87400 0.45100
C 	C 	0.24390 0.01400 0.80140 -0.05300
C 	C 	0.25240 0.00180 0.81210 -0.20900
C 	C 	0.49580 0.02960 0.40340 0.41400
C 	C 	0.54880 0.00070 0.45850 -0.03600
C 	C 	0.44870 0.01460 0.49650 0.02700
C 	C 	0.51520 0.01390 0.46080 -0.08400
C 	C 	0.48210 0.01300 0.45330 -0.10900
C 	C 	0.22040 0.02380 0.76020 -0.05600
C 	C 	0.27830 0.98480 0.81460 -0.05100
Zn	Zn	0.00213 0.05793 0.81253 1.19300
Zn	Zn	0.76950 0.99077 0.50879 1.24900
Zn	Zn	0.74480 0.04157 0.48625 1.19400
S 	S 	0.89099 0.02133 0.62970 0.10300
S 	S 	0.62930 0.02666 0.62400 0.04300
S 	S 	0.12920 0.03565 0.63240 0.04800
S 	S 	0.01530 0.99506 0.97200 0.13100
S 	S 	0.77110 0.99370 0.26800 0.26500
O 	O 	0.81530 0.00870 0.54830 -0.42800
O 	O 	0.79260 0.04179 0.54030 -0.51700
O 	O 	0.04760 0.06144 0.74880 -0.51200
O 	O 	0.05970 0.02846 0.72030 -0.45600
O 	O 	0.95590 0.05427 0.74920 -0.52600
O 	O 	0.97030 0.02358 0.70610 -0.43300
O 	O 	0.96960 0.04210 0.90690 -0.42100
O 	O 	0.02120 0.02981 0.85500 -0.53800
O 	O 	0.76920 0.01042 0.42060 -0.51000
O 	O 	0.72570 0.03260 0.38540 -0.45300
O 	O 	0.72340 0.00292 0.56230 -0.51400
O 	O 	0.69720 0.03206 0.53630 -0.53200
C 	C 	0.06650 0.04749 0.71730 0.41800
C 	C 	0.69530 0.01492 0.56350 0.49700
C 	C 	0.81800 0.02750 0.56050 0.39100
C 	C 	0.85160 0.03520 0.60300 -0.12800
C 	C 	0.09730 0.05373 0.66550 -0.12400
C 	C 	0.94900 0.04000 0.71230 0.45200
C 	C 	0.65720 0.00963 0.59540 -0.17000
C 	C 	0.85690 0.05460 0.62590 0.02000
C 	C 	0.91190 0.04160 0.67200 -0.14600
C 	C 	0.64480 0.99030 0.60490 0.06000
C 	C 	0.11020 0.07330 0.65020 0.02100
C 	C 	0.88740 0.05850 0.66630 0.03000
C 	C 	0.74840 0.01700 0.37400 0.45100
C 	C 	0.74390 0.01400 0.30140 -0.05300
C 	C 	0.75240 0.00180 0.31210 -0.20900
C 	C 	0.99580 0.02960 0.90340 0.41500
C 	C 	0.04880 0.00070 0.95850 -0.03600
C 	C 	0.94870 0.01460 0.99650 0.02800
C 	C 	0.01520 0.01390 0.96080 -0.08500
C 	C 	0.98210 0.01300 0.95330 -0.10800
C 	C 	0.72040 0.02380 0.26020 -0.05600
C 	C 	0.77830 0.98480 0.31460 -0.05100
Zn	Zn	0.24787 0.05793 0.43747 1.19300
Zn	Zn	0.48050 0.99077 0.74121 1.24900
Zn	Zn	0.50520 0.04157 0.76375 1.19400
S 	S 	0.35901 0.02133 0.62030 0.10300
S 	S 	0.62070 0.02666 0.62600 0.04300
S 	S 	0.12080 0.03565 0.61760 0.04800
S 	S 	0.23470 0.99506 0.27800 0.13100
S 	S 	0.47890 0.99370 0.98200 0.26500
O 	O 	0.43470 0.00870 0.70170 -0.42800
O 	O 	0.45740 0.04179 0.70970 -0.51700
O 	O 	0.20240 0.06144 0.50120 -0.51200
O 	O 	0.19030 0.02846 0.52970 -0.45600
O 	O 	0.29410 0.05427 0.50080 -0.52600
O 	O 	0.27970 0.02358 0.54390 -0.43400
O 	O 	0.28040 0.04210 0.34310 -0.42100
O 	O 	0.22880 0.02981 0.39500 -0.53800
O 	O 	0.48080 0.01042 0.82940 -0.51000
O 	O 	0.52430 0.03260 0.86460 -0.45300
O 	O 	0.52660 0.00292 0.68770 -0.51400
O 	O 	0.55280 0.03206 0.71370 -0.53200
C 	C 	0.18350 0.04749 0.53270 0.41800
C 	C 	0.55470 0.01492 0.68650 0.49700
C 	C 	0.43200 0.02750 0.68950 0.39100
C 	C 	0.39840 0.03520 0.64700 -0.12800
C 	C 	0.15270 0.05373 0.58450 -0.12400
C 	C 	0.30100 0.04000 0.53770 0.45200
C 	C 	0.59280 0.00963 0.65460 -0.17000
C 	C 	0.39310 0.05460 0.62410 0.02000
C 	C 	0.33810 0.04160 0.57800 -0.14600
C 	C 	0.60520 0.99030 0.64510 0.06000
C 	C 	0.13980 0.07330 0.59980 0.02100
C 	C 	0.36260 0.05850 0.58370 0.03000
C 	C 	0.50160 0.01700 0.87600 0.45100
C 	C 	0.50610 0.01400 0.94860 -0.05300
C 	C 	0.49760 0.00180 0.93790 -0.20900
C 	C 	0.25420 0.02960 0.34660 0.41400
C 	C 	0.20120 0.00070 0.29150 -0.03600
C 	C 	0.30130 0.01460 0.25350 0.02700
C 	C 	0.23480 0.01390 0.28920 -0.08400
C 	C 	0.26790 0.01300 0.29670 -0.10900
C 	C 	0.52960 0.02380 0.98980 -0.05600
C 	C 	0.47170 0.98480 0.93540 -0.05100
Zn	Zn	0.74787 0.05793 0.93747 1.19300
Zn	Zn	0.98050 0.99077 0.24121 1.24900
Zn	Zn	0.00520 0.04157 0.26375 1.19400
S 	S 	0.85901 0.02133 0.12030 0.10300
S 	S 	0.12070 0.02666 0.12600 0.04300
S 	S 	0.62080 0.03565 0.11760 0.04800
S 	S 	0.73470 0.99506 0.77800 0.13100
S 	S 	0.97890 0.99370 0.48200 0.26400
O 	O 	0.93470 0.00870 0.20170 -0.42800
O 	O 	0.95740 0.04179 0.20970 -0.51700
O 	O 	0.70240 0.06144 0.00120 -0.51200
O 	O 	0.69030 0.02846 0.02970 -0.45600
O 	O 	0.79410 0.05427 0.00080 -0.52600
O 	O 	0.77970 0.02358 0.04390 -0.43400
O 	O 	0.78040 0.04210 0.84310 -0.42100
O 	O 	0.72880 0.02981 0.89500 -0.53800
O 	O 	0.98080 0.01042 0.32940 -0.51000
O 	O 	0.02430 0.03260 0.36460 -0.45300
O 	O 	0.02660 0.00292 0.18770 -0.51300
O 	O 	0.05280 0.03206 0.21370 -0.53100
C 	C 	0.68350 0.04749 0.03270 0.41800
C 	C 	0.05470 0.01492 0.18650 0.49700
C 	C 	0.93200 0.02750 0.18950 0.39100
C 	C 	0.89840 0.03520 0.14700 -0.12800
C 	C 	0.65270 0.05373 0.08450 -0.12400
C 	C 	0.80100 0.04000 0.03770 0.45200
C 	C 	0.09280 0.00963 0.15460 -0.17000
C 	C 	0.89310 0.05460 0.12410 0.02000
C 	C 	0.83810 0.04160 0.07800 -0.14600
C 	C 	0.10520 0.99030 0.14510 0.06000
C 	C 	0.63980 0.07330 0.09980 0.02100
C 	C 	0.86260 0.05850 0.08370 0.03000
C 	C 	0.00160 0.01700 0.37600 0.45100
C 	C 	0.00610 0.01400 0.44860 -0.05500
C 	C 	0.99760 0.00180 0.43790 -0.20700
C 	C 	0.75420 0.02960 0.84660 0.41400
C 	C 	0.70120 0.00070 0.79150 -0.03600
C 	C 	0.80130 0.01460 0.75350 0.02700
C 	C 	0.73480 0.01390 0.78920 -0.08400
C 	C 	0.76790 0.01300 0.79670 -0.10900
C 	C 	0.02960 0.02380 0.48980 -0.05500
C 	C 	0.97170 0.98480 0.43540 -0.05100
Zn	Zn	0.49787 0.94207 0.68747 1.19300
Zn	Zn	0.73050 0.00923 0.99121 1.24900
Zn	Zn	0.75520 0.95843 0.01375 1.19400
S 	S 	0.60901 0.97867 0.87030 0.10300
S 	S 	0.87070 0.97334 0.87600 0.04300
S 	S 	0.37080 0.96435 0.86760 0.04800
S 	S 	0.48470 0.00494 0.52800 0.13100
S 	S 	0.72890 0.00630 0.23200 0.26500
O 	O 	0.68470 0.99130 0.95170 -0.42800
O 	O 	0.70740 0.95821 0.95970 -0.51700
O 	O 	0.45240 0.93856 0.75120 -0.51200
O 	O 	0.44030 0.97154 0.77970 -0.45600
O 	O 	0.54410 0.94573 0.75080 -0.52600
O 	O 	0.52970 0.97642 0.79390 -0.43400
O 	O 	0.53040 0.95790 0.59310 -0.42100
O 	O 	0.47880 0.97019 0.64500 -0.53800
O 	O 	0.73080 0.98958 0.07940 -0.51000
O 	O 	0.77430 0.96740 0.11460 -0.45300
O 	O 	0.77660 0.99708 0.93770 -0.51400
O 	O 	0.80280 0.96794 0.96370 -0.53100
C 	C 	0.43350 0.95251 0.78270 0.41800
C 	C 	0.80470 0.98508 0.93650 0.49700
C 	C 	0.68200 0.97250 0.93950 0.39100
C 	C 	0.64840 0.96480 0.89700 -0.12800
C 	C 	0.40270 0.94627 0.83450 -0.12400
C 	C 	0.55100 0.96000 0.78770 0.45200
C 	C 	0.84280 0.99037 0.90460 -0.17000
C 	C 	0.64310 0.94540 0.87410 0.02000
C 	C 	0.58810 0.95840 0.82800 -0.14600
C 	C 	0.85520 0.00970 0.89510 0.06000
C 	C 	0.38980 0.92670 0.84980 0.02100
C 	C 	0.61260 0.94150 0.83370 0.03000
C 	C 	0.75160 0.98300 0.12600 0.45100
C 	C 	0.75610 0.98600 0.19860 -0.05300
C 	C 	0.74760 0.99820 0.18790 -0.20900
C 	C 	0.50420 0.97040 0.59660 0.41400
C 	C 	0.45120 0.99930 0.54150 -0.03600
C 	C 	0.55130 0.98540 0.50350 0.02700
C 	C 	0.48480 0.98610 0.53920 -0.08400
C 	C 	0.51790 0.98700 0.54670 -0.10900
C 	C 	0.77960 0.97620 0.23980 -0.05600
C 	C 	0.72170 0.01520 0.18540 -0.05100
Zn	Zn	0.99787 0.94207 0.18747 1.19300
Zn	Zn	0.23050 0.00923 0.49121 1.24900
Zn	Zn	0.25520 0.95843 0.51375 1.19400
S 	S 	0.10901 0.97867 0.37030 0.10300
S 	S 	0.37070 0.97334 0.37600 0.04300
S 	S 	0.87080 0.96435 0.36760 0.04800
S 	S 	0.98470 0.00494 0.02800 0.13100
S 	S 	0.22890 0.00630 0.73200 0.26500
O 	O 	0.18470 0.99130 0.45170 -0.42800
O 	O 	0.20740 0.95821 0.45970 -0.51700
O 	O 	0.95240 0.93856 0.25120 -0.51200
O 	O 	0.94030 0.97154 0.27970 -0.45600
O 	O 	0.04410 0.94573 0.25080 -0.52600
O 	O 	0.02970 0.97642 0.29390 -0.43300
O 	O 	0.03040 0.95790 0.09310 -0.42100
O 	O 	0.97880 0.97019 0.14500 -0.53800
O 	O 	0.23080 0.98958 0.57940 -0.51000
O 	O 	0.27430 0.96740 0.61460 -0.45300
O 	O 	0.27660 0.99708 0.43770 -0.51400
O 	O 	0.30280 0.96794 0.46370 -0.53200
C 	C 	0.93350 0.95251 0.28270 0.41800
C 	C 	0.30470 0.98508 0.43650 0.49700
C 	C 	0.18200 0.97250 0.43950 0.39100
C 	C 	0.14840 0.96480 0.39700 -0.12800
C 	C 	0.90270 0.94627 0.33450 -0.12400
C 	C 	0.05100 0.96000 0.28770 0.45200
C 	C 	0.34280 0.99037 0.40460 -0.17000
C 	C 	0.14310 0.94540 0.37410 0.02000
C 	C 	0.08810 0.95840 0.32800 -0.14600
C 	C 	0.35520 0.00970 0.39510 0.06000
C 	C 	0.88980 0.92670 0.34980 0.02100
C 	C 	0.11260 0.94150 0.33370 0.03000
C 	C 	0.25160 0.98300 0.62600 0.45100
C 	C 	0.25610 0.98600 0.69860 -0.05300
C 	C 	0.24760 0.99820 0.68790 -0.20900
C 	C 	0.00420 0.97040 0.09660 0.41500
C 	C 	0.95120 0.99930 0.04150 -0.03600
C 	C 	0.05130 0.98540 0.00350 0.02800
C 	C 	0.98480 0.98610 0.03920 -0.08500
C 	C 	0.01790 0.98700 0.04670 -0.10800
C 	C 	0.27960 0.97620 0.73980 -0.05600
C 	C 	0.22170 0.01520 0.68540 -0.05100
Zn	Zn	0.75213 0.94207 0.56253 1.19300
Zn	Zn	0.51950 0.00923 0.25879 1.24900
Zn	Zn	0.49480 0.95843 0.23625 1.19400
S 	S 	0.64099 0.97867 0.37970 0.10300
S 	S 	0.37930 0.97334 0.37400 0.04300
S 	S 	0.87920 0.96435 0.38240 0.04800
S 	S 	0.76530 0.00494 0.72200 0.13100
S 	S 	0.52110 0.00630 0.01800 0.26500
O 	O 	0.56530 0.99130 0.29830 -0.42800
O 	O 	0.54260 0.95821 0.29030 -0.51700
O 	O 	0.79760 0.93856 0.49880 -0.51200
O 	O 	0.80970 0.97154 0.47030 -0.45600
O 	O 	0.70590 0.94573 0.49920 -0.52600
O 	O 	0.72030 0.97642 0.45610 -0.43400
O 	O 	0.71960 0.95790 0.65690 -0.42100
O 	O 	0.77120 0.97019 0.60500 -0.53800
O 	O 	0.51920 0.98958 0.17060 -0.51000
O 	O 	0.47570 0.96740 0.13540 -0.45300
O 	O 	0.47340 0.99708 0.31230 -0.51400
O 	O 	0.44720 0.96794 0.28630 -0.53200
C 	C 	0.81650 0.95251 0.46730 0.41800
C 	C 	0.44530 0.98508 0.31350 0.49700
C 	C 	0.56800 0.97250 0.31050 0.39100
C 	C 	0.60160 0.96480 0.35300 -0.12800
C 	C 	0.84730 0.94627 0.41550 -0.12400
C 	C 	0.69900 0.96000 0.46230 0.45200
C 	C 	0.40720 0.99037 0.34540 -0.17000
C 	C 	0.60690 0.94540 0.37590 0.02000
C 	C 	0.66190 0.95840 0.42200 -0.14600
C 	C 	0.39480 0.00970 0.35490 0.06000
C 	C 	0.86020 0.92670 0.40020 0.02100
C 	C 	0.63740 0.94150 0.41630 0.03000
C 	C 	0.49840 0.98300 0.12400 0.45100
C 	C 	0.49390 0.98600 0.05140 -0.05300
C 	C 	0.50240 0.99820 0.06210 -0.20900
C 	C 	0.74580 0.97040 0.65340 0.41400
C 	C 	0.79880 0.99930 0.70850 -0.03600
C 	C 	0.69870 0.98540 0.74650 0.02700
C 	C 	0.76520 0.98610 0.71080 -0.08400
C 	C 	0.73210 0.98700 0.70330 -0.10900
C 	C 	0.47040 0.97620 0.01020 -0.05600
C 	C 	0.52830 0.01520 0.06460 -0.05100
Zn	Zn	0.25213 0.94207 0.06253 1.19300
Zn	Zn	0.01950 0.00923 0.75879 1.24900
Zn	Zn	0.99480 0.95843 0.73625 1.19400
S 	S 	0.14099 0.97867 0.87970 0.10300
S 	S 	0.87930 0.97334 0.87400 0.04300
S 	S 	0.37920 0.96435 0.88240 0.04800
S 	S 	0.26530 0.00494 0.22200 0.13100
S 	S 	0.02110 0.00630 0.51800 0.26400
O 	O 	0.06530 0.99130 0.79830 -0.42800
O 	O 	0.04260 0.95821 0.79030 -0.51700
O 	O 	0.29760 0.93856 0.99880 -0.51200
O 	O 	0.30970 0.97154 0.97030 -0.45600
O 	O 	0.20590 0.94573 0.99920 -0.52600
O 	O 	0.22030 0.97642 0.95610 -0.43400
O 	O 	0.21960 0.95790 0.15690 -0.42100
O 	O 	0.27120 0.97019 0.10500 -0.53800
O 	O 	0.01920 0.98958 0.67060 -0.51000
O 	O 	0.97570 0.96740 0.63540 -0.45300
O 	O 	0.97340 0.99708 0.81230 -0.51300
O 	O 	0.94720 0.96794 0.78630 -0.53100
C 	C 	0.31650 0.95251 0.96730 0.41800
C 	C 	0.94530 0.98508 0.81350 0.49700
C 	C 	0.06800 0.97250 0.81050 0.39100
C 	C 	0.10160 0.96480 0.85300 -0.12800
C 	C 	0.34730 0.94627 0.91550 -0.12400
C 	C 	0.19900 0.96000 0.96230 0.45200
C 	C 	0.90720 0.99037 0.84540 -0.17000
C 	C 	0.10690 0.94540 0.87590 0.02000
C 	C 	0.16190 0.95840 0.92200 -0.14600
C 	C 	0.89480 0.00970 0.85490 0.06000
C 	C 	0.36020 0.92670 0.90020 0.02100
C 	C 	0.13740 0.94150 0.91630 0.03000
C 	C 	0.99840 0.98300 0.62400 0.45100
C 	C 	0.99390 0.98600 0.55140 -0.05500
C 	C 	0.00240 0.99820 0.56210 -0.20700
C 	C 	0.24580 0.97040 0.15340 0.41400
C 	C 	0.29880 0.99930 0.20850 -0.03600
C 	C 	0.19870 0.98540 0.24650 0.02700
C 	C 	0.26520 0.98610 0.21080 -0.08400
C 	C 	0.23210 0.98700 0.20330 -0.10900
C 	C 	0.97040 0.97620 0.51020 -0.05500
C 	C 	0.02830 0.01520 0.56460 -0.05100
Zn	Zn	0.24787 0.19207 0.81253 1.19300
Zn	Zn	0.48050 0.25923 0.50879 1.24900
Zn	Zn	0.50520 0.20843 0.48625 1.19400
S 	S 	0.35901 0.22867 0.62970 0.10300
S 	S 	0.62070 0.22334 0.62400 0.04300
S 	S 	0.12080 0.21435 0.63240 0.04800
S 	S 	0.23470 0.25494 0.97200 0.13000
S 	S 	0.47890 0.25630 0.26800 0.26500
O 	O 	0.43470 0.24130 0.54830 -0.42800
O 	O 	0.45740 0.20821 0.54030 -0.51700
O 	O 	0.20240 0.18856 0.74880 -0.51200
O 	O 	0.19030 0.22154 0.72030 -0.45600
O 	O 	0.29410 0.19573 0.74920 -0.52600
O 	O 	0.27970 0.22642 0.70610 -0.43400
O 	O 	0.28040 0.20790 0.90690 -0.42100
O 	O 	0.22880 0.22019 0.85500 -0.53800
O 	O 	0.48080 0.23958 0.42060 -0.51000
O 	O 	0.52430 0.21740 0.38540 -0.45300
O 	O 	0.52660 0.24708 0.56230 -0.51400
O 	O 	0.55280 0.21794 0.53630 -0.53200
C 	C 	0.18350 0.20251 0.71730 0.41800
C 	C 	0.55470 0.23508 0.56350 0.49700
C 	C 	0.43200 0.22250 0.56050 0.39100
C 	C 	0.39840 0.21480 0.60300 -0.12800
C 	C 	0.15270 0.19627 0.66550 -0.12400
C 	C 	0.30100 0.21000 0.71230 0.45200
C 	C 	0.59280 0.24037 0.59540 -0.17000
C 	C 	0.39310 0.19540 0.62590 0.02000
C 	C 	0.33810 0.20840 0.67200 -0.14600
C 	C 	0.60520 0.25970 0.60490 0.06000
C 	C 	0.13980 0.17670 0.65020 0.02100
C 	C 	0.36260 0.19150 0.66630 0.03000
C 	C 	0.50160 0.23300 0.37400 0.45100
C 	C 	0.50610 0.23600 0.30140 -0.05300
C 	C 	0.49760 0.24820 0.31210 -0.20900
C 	C 	0.25420 0.22040 0.90340 0.41400
C 	C 	0.20120 0.24930 0.95850 -0.03600
C 	C 	0.30130 0.23540 0.99650 0.02700
C 	C 	0.23480 0.23610 0.96080 -0.08400
C 	C 	0.26790 0.23700 0.95330 -0.10900
C 	C 	0.52960 0.22620 0.26020 -0.05600
C 	C 	0.47170 0.26520 0.31460 -0.05100
Zn	Zn	0.74787 0.19207 0.31253 1.19300
Zn	Zn	0.98050 0.25923 0.00879 1.24800
Zn	Zn	0.00520 0.20843 0.98625 1.19400
S 	S 	0.85901 0.22867 0.12970 0.10300
S 	S 	0.12070 0.22334 0.12400 0.04300
S 	S 	0.62080 0.21435 0.13240 0.04800
S 	S 	0.73470 0.25494 0.47200 0.13100
S 	S 	0.97890 0.25630 0.76800 0.28000
O 	O 	0.93470 0.24130 0.04830 -0.42800
O 	O 	0.95740 0.20821 0.04030 -0.51700
O 	O 	0.70240 0.18856 0.24880 -0.51200
O 	O 	0.69030 0.22154 0.22030 -0.45600
O 	O 	0.79410 0.19573 0.24920 -0.52600
O 	O 	0.77970 0.22642 0.20610 -0.43300
O 	O 	0.78040 0.20790 0.40690 -0.42100
O 	O 	0.72880 0.22019 0.35500 -0.53800
O 	O 	0.98080 0.23958 0.92060 -0.50800
O 	O 	0.02430 0.21740 0.88540 -0.45300
O 	O 	0.02660 0.24708 0.06230 -0.51300
O 	O 	0.05280 0.21794 0.03630 -0.53100
C 	C 	0.68350 0.20251 0.21730 0.41800
C 	C 	0.05470 0.23508 0.06350 0.49700
C 	C 	0.93200 0.22250 0.06050 0.39100
C 	C 	0.89840 0.21480 0.10300 -0.12800
C 	C 	0.65270 0.19627 0.16550 -0.12400
C 	C 	0.80100 0.21000 0.21230 0.45200
C 	C 	0.09280 0.24037 0.09540 -0.17000
C 	C 	0.89310 0.19540 0.12590 0.02000
C 	C 	0.83810 0.20840 0.17200 -0.14600
C 	C 	0.10520 0.25970 0.10490 0.06000
C 	C 	0.63980 0.17670 0.15020 0.02100
C 	C 	0.86260 0.19150 0.16630 0.03000
C 	C 	0.00160 0.23300 0.87400 0.44900
C 	C 	0.00610 0.23600 0.80140 -0.04000
C 	C 	0.99760 0.24820 0.81210 -0.22400
C 	C 	0.75420 0.22040 0.40340 0.41400
C 	C 	0.70120 0.24930 0.45850 -0.03600
C 	C 	0.80130 0.23540 0.49650 0.02700
C 	C 	0.73480 0.23610 0.46080 -0.08400
C 	C 	0.76790 0.23700 0.45330 -0.10900
C 	C 	0.02960 0.22620 0.76020 -0.05800
C 	C 	0.97170 0.26520 0.81460 -0.05300
Zn	Zn	0.50213 0.19207 0.93747 1.19200
Zn	Zn	0.26950 0.25923 0.24121 1.24900
Zn	Zn	0.24480 0.20843 0.26375 1.19400
S 	S 	0.39099 0.22867 0.12030 0.10300
S 	S 	0.12930 0.22334 0.12600 0.04300
S 	S 	0.62920 0.21435 0.11760 0.04800
S 	S 	0.51530 0.25494 0.77800 0.13100
S 	S 	0.27110 0.25630 0.48200 0.26500
O 	O 	0.31530 0.24130 0.20170 -0.42800
O 	O 	0.29260 0.20821 0.20970 -0.51700
O 	O 	0.54760 0.18856 0.00120 -0.51200
O 	O 	0.55970 0.22154 0.02970 -0.45600
O 	O 	0.45590 0.19573 0.00080 -0.52600
O 	O 	0.47030 0.22642 0.04390 -0.43400
O 	O 	0.46960 0.20790 0.84310 -0.42100
O 	O 	0.52120 0.22019 0.89500 -0.53800
O 	O 	0.26920 0.23958 0.32940 -0.51000
O 	O 	0.22570 0.21740 0.36460 -0.45300
O 	O 	0.22340 0.24708 0.18770 -0.51400
O 	O 	0.19720 0.21794 0.21370 -0.53100
C 	C 	0.56650 0.20251 0.03270 0.41800
C 	C 	0.19530 0.23508 0.18650 0.49700
C 	C 	0.31800 0.22250 0.18950 0.39100
C 	C 	0.35160 0.21480 0.14700 -0.12800
C 	C 	0.59730 0.19627 0.08450 -0.12400
C 	C 	0.44900 0.21000 0.03770 0.45200
C 	C 	0.15720 0.24037 0.15460 -0.17000
C 	C 	0.35690 0.19540 0.12410 0.02000
C 	C 	0.41190 0.20840 0.07800 -0.14600
C 	C 	0.14480 0.25970 0.14510 0.06000
C 	C 	0.61020 0.17670 0.09980 0.02100
C 	C 	0.38740 0.19150 0.08370 0.03000
C 	C 	0.24840 0.23300 0.37600 0.45100
C 	C 	0.24390 0.23600 0.44860 -0.05300
C 	C 	0.25240 0.24820 0.43790 -0.20900
C 	C 	0.49580 0.22040 0.84660 0.41400
C 	C 	0.54880 0.24930 0.79150 -0.03600
C 	C 	0.44870 0.23540 0.75350 0.02700
C 	C 	0.51520 0.23610 0.78920 -0.08400
C 	C 	0.48210 0.23700 0.79670 -0.10900
C 	C 	0.22040 0.22620 0.48980 -0.05600
C 	C 	0.27830 0.26520 0.43540 -0.05100
Zn	Zn	0.00213 0.19207 0.43747 1.19300
Zn	Zn	0.76950 0.25923 0.74121 1.24900
Zn	Zn	0.74480 0.20843 0.76375 1.19400
S 	S 	0.89099 0.22867 0.62030 0.10300
S 	S 	0.62930 0.22334 0.62600 0.04300
S 	S 	0.12920 0.21435 0.61760 0.04800
S 	S 	0.01530 0.25494 0.27800 0.13200
S 	S 	0.77110 0.25630 0.98200 0.25500
O 	O 	0.81530 0.24130 0.70170 -0.42800
O 	O 	0.79260 0.20821 0.70970 -0.51700
O 	O 	0.04760 0.18856 0.50120 -0.51200
O 	O 	0.05970 0.22154 0.52970 -0.45600
O 	O 	0.95590 0.19573 0.50080 -0.52600
O 	O 	0.97030 0.22642 0.54390 -0.43400
O 	O 	0.96960 0.20790 0.34310 -0.42100
O 	O 	0.02120 0.22019 0.39500 -0.53800
O 	O 	0.76920 0.23958 0.82940 -0.51100
O 	O 	0.72570 0.21740 0.86460 -0.45300
O 	O 	0.72340 0.24708 0.68770 -0.51400
O 	O 	0.69720 0.21794 0.71370 -0.53200
C 	C 	0.06650 0.20251 0.53270 0.41800
C 	C 	0.69530 0.23508 0.68650 0.49700
C 	C 	0.81800 0.22250 0.68950 0.39100
C 	C 	0.85160 0.21480 0.64700 -0.12800
C 	C 	0.09730 0.19627 0.58450 -0.12400
C 	C 	0.94900 0.21000 0.53770 0.45200
C 	C 	0.65720 0.24037 0.65460 -0.17000
C 	C 	0.85690 0.19540 0.62410 0.02000
C 	C 	0.91190 0.20840 0.57800 -0.14600
C 	C 	0.64480 0.25970 0.64510 0.06000
C 	C 	0.11020 0.17670 0.59980 0.02100
C 	C 	0.88740 0.19150 0.58370 0.03000
C 	C 	0.74840 0.23300 0.87600 0.45200
C 	C 	0.74390 0.23600 0.94860 -0.06400
C 	C 	0.75240 0.24820 0.93790 -0.19800
C 	C 	0.99580 0.22040 0.34660 0.41400
C 	C 	0.04880 0.24930 0.29150 -0.03700
C 	C 	0.94870 0.23540 0.25350 0.02700
C 	C 	0.01520 0.23610 0.28920 -0.08400
C 	C 	0.98210 0.23700 0.29670 -0.11000
C 	C 	0.72040 0.22620 0.98980 -0.05400
C 	C 	0.77830 0.26520 0.93540 -0.04900
Zn	Zn	0.75213 0.30793 0.68747 1.19300
Zn	Zn	0.51950 0.24077 0.99121 1.24900
Zn	Zn	0.49480 0.29157 0.01375 1.19400
S 	S 	0.64099 0.27133 0.87030 0.10300
S 	S 	0.37930 0.27666 0.87600 0.04300
S 	S 	0.87920 0.28565 0.86760 0.04800
S 	S 	0.76530 0.24506 0.52800 0.13100
S 	S 	0.52110 0.24370 0.23200 0.26500
O 	O 	0.56530 0.25870 0.95170 -0.42800
O 	O 	0.54260 0.29179 0.95970 -0.51700
O 	O 	0.79760 0.31144 0.75120 -0.51200
O 	O 	0.80970 0.27846 0.77970 -0.45600
O 	O 	0.70590 0.30427 0.75080 -0.52600
O 	O 	0.72030 0.27358 0.79390 -0.43400
O 	O 	0.71960 0.29210 0.59310 -0.42100
O 	O 	0.77120 0.27981 0.64500 -0.53800
O 	O 	0.51920 0.26042 0.07940 -0.51000
O 	O 	0.47570 0.28260 0.11460 -0.45300
O 	O 	0.47340 0.25292 0.93770 -0.51400
O 	O 	0.44720 0.28206 0.96370 -0.53100
C 	C 	0.81650 0.29749 0.78270 0.41800
C 	C 	0.44530 0.26492 0.93650 0.49700
C 	C 	0.56800 0.27750 0.93950 0.39100
C 	C 	0.60160 0.28520 0.89700 -0.12800
C 	C 	0.84730 0.30373 0.83450 -0.12400
C 	C 	0.69900 0.29000 0.78770 0.45200
C 	C 	0.40720 0.25963 0.90460 -0.17000
C 	C 	0.60690 0.30460 0.87410 0.02000
C 	C 	0.66190 0.29160 0.82800 -0.14600
C 	C 	0.39480 0.24030 0.89510 0.05900
C 	C 	0.86020 0.32330 0.84980 0.02100
C 	C 	0.63740 0.30850 0.83370 0.03000
C 	C 	0.49840 0.26700 0.12600 0.45100
C 	C 	0.49390 0.26400 0.19860 -0.05300
C 	C 	0.50240 0.25180 0.18790 -0.21000
C 	C 	0.74580 0.27960 0.59660 0.41400
C 	C 	0.79880 0.25070 0.54150 -0.03600
C 	C 	0.69870 0.26460 0.50350 0.02700
C 	C 	0.76520 0.26390 0.53920 -0.08400
C 	C 	0.73210 0.26300 0.54670 -0.10900
C 	C 	0.47040 0.27380 0.23980 -0.05600
C 	C 	0.52830 0.23480 0.18540 -0.05100
Zn	Zn	0.25213 0.30793 0.18747 1.19300
Zn	Zn	0.01950 0.24077 0.49121 1.24900
Zn	Zn	0.99480 0.29157 0.51375 1.19400
S 	S 	0.14099 0.27133 0.37030 0.10300
S 	S 	0.87930 0.27666 0.37600 0.04300
S 	S 	0.37920 0.28565 0.36760 0.04800
S 	S 	0.26530 0.24506 0.02800 0.13200
S 	S 	0.02110 0.24370 0.73200 0.25400
O 	O 	0.06530 0.25870 0.45170 -0.42800
O 	O 	0.04260 0.29179 0.45970 -0.51700
O 	O 	0.29760 0.31144 0.25120 -0.51200
O 	O 	0.30970 0.27846 0.27970 -0.45600
O 	O 	0.20590 0.30427 0.25080 -0.52600
O 	O 	0.22030 0.27358 0.29390 -0.43400
O 	O 	0.21960 0.29210 0.09310 -0.42100
O 	O 	0.27120 0.27981 0.14500 -0.53800
O 	O 	0.01920 0.26042 0.57940 -0.51100
O 	O 	0.97570 0.28260 0.61460 -0.45300
O 	O 	0.97340 0.25292 0.43770 -0.51400
O 	O 	0.94720 0.28206 0.46370 -0.53100
C 	C 	0.31650 0.29749 0.28270 0.41800
C 	C 	0.94530 0.26492 0.43650 0.49700
C 	C 	0.06800 0.27750 0.43950 0.39100
C 	C 	0.10160 0.28520 0.39700 -0.12800
C 	C 	0.34730 0.30373 0.33450 -0.12400
C 	C 	0.19900 0.29000 0.28770 0.45200
C 	C 	0.90720 0.25963 0.40460 -0.17000
C 	C 	0.10690 0.30460 0.37410 0.02000
C 	C 	0.16190 0.29160 0.32800 -0.14600
C 	C 	0.89480 0.24030 0.39510 0.06000
C 	C 	0.36020 0.32330 0.34980 0.02100
C 	C 	0.13740 0.30850 0.33370 0.03000
C 	C 	0.99840 0.26700 0.62600 0.45200
C 	C 	0.99390 0.26400 0.69860 -0.05600
C 	C 	0.00240 0.25180 0.68790 -0.20700
C 	C 	0.24580 0.27960 0.09660 0.41400
C 	C 	0.29880 0.25070 0.04150 -0.03600
C 	C 	0.19870 0.26460 0.00350 0.02800
C 	C 	0.26520 0.26390 0.03920 -0.08400
C 	C 	0.23210 0.26300 0.04670 -0.10900
C 	C 	0.97040 0.27380 0.73980 -0.06000
C 	C 	0.02830 0.23480 0.68540 -0.04600
Zn	Zn	0.49787 0.30793 0.56253 1.19300
Zn	Zn	0.73050 0.24077 0.25879 1.24900
Zn	Zn	0.75520 0.29157 0.23625 1.19400
S 	S 	0.60901 0.27133 0.37970 0.10300
S 	S 	0.87070 0.27666 0.37400 0.04300
S 	S 	0.37080 0.28565 0.38240 0.04800
S 	S 	0.48470 0.24506 0.72200 0.13100
S 	S 	0.72890 0.24370 0.01800 0.27300
O 	O 	0.68470 0.25870 0.29830 -0.42800
O 	O 	0.70740 0.29179 0.29030 -0.51700
O 	O 	0.45240 0.31144 0.49880 -0.51200
O 	O 	0.44030 0.27846 0.47030 -0.45600
O 	O 	0.54410 0.30427 0.49920 -0.52600
O 	O 	0.52970 0.27358 0.45610 -0.43400
O 	O 	0.53040 0.29210 0.65690 -0.42100
O 	O 	0.47880 0.27981 0.60500 -0.53800
O 	O 	0.73080 0.26042 0.17060 -0.51000
O 	O 	0.77430 0.28260 0.13540 -0.45300
O 	O 	0.77660 0.25292 0.31230 -0.51400
O 	O 	0.80280 0.28206 0.28630 -0.53200
C 	C 	0.43350 0.29749 0.46730 0.41800
C 	C 	0.80470 0.26492 0.31350 0.49700
C 	C 	0.68200 0.27750 0.31050 0.39100
C 	C 	0.64840 0.28520 0.35300 -0.12800
C 	C 	0.40270 0.30373 0.41550 -0.12400
C 	C 	0.55100 0.29000 0.46230 0.45200
C 	C 	0.84280 0.25963 0.34540 -0.17000
C 	C 	0.64310 0.30460 0.37590 0.02000
C 	C 	0.58810 0.29160 0.42200 -0.14600
C 	C 	0.85520 0.24030 0.35490 0.06000
C 	C 	0.38980 0.32330 0.40020 0.02100
C 	C 	0.61260 0.30850 0.41630 0.03000
C 	C 	0.75160 0.26700 0.12400 0.45000
C 	C 	0.75610 0.26400 0.05140 -0.04700
C 	C 	0.74760 0.25180 0.06210 -0.21600
C 	C 	0.50420 0.27960 0.65340 0.41400
C 	C 	0.45120 0.25070 0.70850 -0.03600
C 	C 	0.55130 0.26460 0.74650 0.02700
C 	C 	0.48480 0.26390 0.71080 -0.08400
C 	C 	0.51790 0.26300 0.70330 -0.10900
C 	C 	0.77960 0.27380 0.01020 -0.05500
C 	C 	0.72170 0.23480 0.06460 -0.05400
Zn	Zn	0.99787 0.30793 0.06253 1.19200
Zn	Zn	0.23050 0.24077 0.75879 1.24900
Zn	Zn	0.25520 0.29157 0.73625 1.19400
S 	S 	0.10901 0.27133 0.87970 0.10300
S 	S 	0.37070 0.27666 0.87400 0.04300
S 	S 	0.87080 0.28565 0.88240 0.04800
S 	S 	0.98470 0.24506 0.22200 0.13100
S 	S 	0.22890 0.24370 0.51800 0.26500
O 	O 	0.18470 0.25870 0.79830 -0.42800
O 	O 	0.20740 0.29179 0.79030 -0.51700
O 	O 	0.95240 0.31144 0.99880 -0.51100
O 	O 	0.94030 0.27846 0.97030 -0.45500
O 	O 	0.04410 0.30427 0.99920 -0.52600
O 	O 	0.02970 0.27358 0.95610 -0.43300
O 	O 	0.03040 0.29210 0.15690 -0.42100
O 	O 	0.97880 0.27981 0.10500 -0.53900
O 	O 	0.23080 0.26042 0.67060 -0.51000
O 	O 	0.27430 0.28260 0.63540 -0.45300
O 	O 	0.27660 0.25292 0.81230 -0.51400
O 	O 	0.30280 0.28206 0.78630 -0.53200
C 	C 	0.93350 0.29749 0.96730 0.41800
C 	C 	0.30470 0.26492 0.81350 0.49700
C 	C 	0.18200 0.27750 0.81050 0.39100
C 	C 	0.14840 0.28520 0.85300 -0.12800
C 	C 	0.90270 0.30373 0.91550 -0.12400
C 	C 	0.05100 0.29000 0.96230 0.45200
C 	C 	0.34280 0.25963 0.84540 -0.17000
C 	C 	0.14310 0.30460 0.87590 0.02000
C 	C 	0.08810 0.29160 0.92200 -0.14600
C 	C 	0.35520 0.24030 0.85490 0.06000
C 	C 	0.88980 0.32330 0.90020 0.02100
C 	C 	0.11260 0.30850 0.91630 0.03000
C 	C 	0.25160 0.26700 0.62400 0.45100
C 	C 	0.25610 0.26400 0.55140 -0.05300
C 	C 	0.24760 0.25180 0.56210 -0.20900
C 	C 	0.00420 0.27960 0.15340 0.41600
C 	C 	0.95120 0.25070 0.20850 -0.03600
C 	C 	0.05130 0.26460 0.24650 0.02700
C 	C 	0.98480 0.26390 0.21080 -0.08500
C 	C 	0.01790 0.26300 0.20330 -0.10900
C 	C 	0.27960 0.27380 0.51020 -0.05600
C 	C 	0.22170 0.23480 0.56460 -0.05100
Zn	Zn	0.50213 0.55793 0.81253 1.19300
Zn	Zn	0.26950 0.49077 0.50879 1.24900
Zn	Zn	0.24480 0.54157 0.48625 1.19400
S 	S 	0.39099 0.52133 0.62970 0.10300
S 	S 	0.12930 0.52666 0.62400 0.04300
S 	S 	0.62920 0.53565 0.63240 0.04800
S 	S 	0.51530 0.49506 0.97200 0.13100
S 	S 	0.27110 0.49370 0.26800 0.26500
O 	O 	0.31530 0.50870 0.54830 -0.42800
O 	O 	0.29260 0.54179 0.54030 -0.51700
O 	O 	0.54760 0.56144 0.74880 -0.51200
O 	O 	0.55970 0.52846 0.72030 -0.45600
O 	O 	0.45590 0.55427 0.74920 -0.52600
O 	O 	0.47030 0.52358 0.70610 -0.43400
O 	O 	0.46960 0.54210 0.90690 -0.42100
O 	O 	0.52120 0.52981 0.85500 -0.53800
O 	O 	0.26920 0.51042 0.42060 -0.51000
O 	O 	0.22570 0.53260 0.38540 -0.45300
O 	O 	0.22340 0.50292 0.56230 -0.51400
O 	O 	0.19720 0.53206 0.53630 -0.53200
C 	C 	0.56650 0.54749 0.71730 0.41800
C 	C 	0.19530 0.51492 0.56350 0.49700
C 	C 	0.31800 0.52750 0.56050 0.39100
C 	C 	0.35160 0.53520 0.60300 -0.12800
C 	C 	0.59730 0.55373 0.66550 -0.12400
C 	C 	0.44900 0.54000 0.71230 0.45200
C 	C 	0.15720 0.50963 0.59540 -0.17000
C 	C 	0.35690 0.55460 0.62590 0.02000
C 	C 	0.41190 0.54160 0.67200 -0.14600
C 	C 	0.14480 0.49030 0.60490 0.06000
C 	C 	0.61020 0.57330 0.65020 0.02100
C 	C 	0.38740 0.55850 0.66630 0.03000
C 	C 	0.24840 0.51700 0.37400 0.45100
C 	C 	0.24390 0.51400 0.30140 -0.05300
C 	C 	0.25240 0.50180 0.31210 -0.21000
C 	C 	0.49580 0.52960 0.90340 0.41400
C 	C 	0.54880 0.50070 0.95850 -0.03600
C 	C 	0.44870 0.51460 0.99650 0.02700
C 	C 	0.51520 0.51390 0.96080 -0.08400
C 	C 	0.48210 0.51300 0.95330 -0.10900
C 	C 	0.22040 0.52380 0.26020 -0.05600
C 	C 	0.27830 0.48480 0.31460 -0.05100
Zn	Zn	0.00213 0.55793 0.31253 1.19300
Zn	Zn	0.76950 0.49077 0.00879 1.24800
Zn	Zn	0.74480 0.54157 0.98625 1.19400
S 	S 	0.89099 0.52133 0.12970 0.10300
S 	S 	0.62930 0.52666 0.12400 0.04300
S 	S 	0.12920 0.53565 0.13240 0.04800
S 	S 	0.01530 0.49506 0.47200 0.13100
S 	S 	0.77110 0.49370 0.76800 0.26400
O 	O 	0.81530 0.50870 0.04830 -0.42800
O 	O 	0.79260 0.54179 0.04030 -0.51700
O 	O 	0.04760 0.56144 0.24880 -0.51100
O 	O 	0.05970 0.52846 0.22030 -0.45500
O 	O 	0.95590 0.55427 0.24920 -0.52600
O 	O 	0.97030 0.52358 0.20610 -0.43400
O 	O 	0.96960 0.54210 0.40690 -0.42100
O 	O 	0.02120 0.52981 0.35500 -0.53800
O 	O 	0.76920 0.51042 0.92060 -0.51000
O 	O 	0.72570 0.53260 0.88540 -0.45300
O 	O 	0.72340 0.50292 0.06230 -0.51400
O 	O 	0.69720 0.53206 0.03630 -0.53200
C 	C 	0.06650 0.54749 0.21730 0.41800
C 	C 	0.69530 0.51492 0.06350 0.49700
C 	C 	0.81800 0.52750 0.06050 0.39100
C 	C 	0.85160 0.53520 0.10300 -0.12800
C 	C 	0.09730 0.55373 0.16550 -0.12400
C 	C 	0.94900 0.54000 0.21230 0.45200
C 	C 	0.65720 0.50963 0.09540 -0.17000
C 	C 	0.85690 0.55460 0.12590 0.02000
C 	C 	0.91190 0.54160 0.17200 -0.14600
C 	C 	0.64480 0.49030 0.10490 0.05900
C 	C 	0.11020 0.57330 0.15020 0.02100
C 	C 	0.88740 0.55850 0.16630 0.03000
C 	C 	0.74840 0.51700 0.87400 0.45100
C 	C 	0.74390 0.51400 0.80140 -0.05300
C 	C 	0.75240 0.50180 0.81210 -0.20900
C 	C 	0.99580 0.52960 0.40340 0.41400
C 	C 	0.04880 0.50070 0.45850 -0.03600
C 	C 	0.94870 0.51460 0.49650 0.02700
C 	C 	0.01520 0.51390 0.46080 -0.08400
C 	C 	0.98210 0.51300 0.45330 -0.11000
C 	C 	0.72040 0.52380 0.76020 -0.05600
C 	C 	0.77830 0.48480 0.81460 -0.05100
Zn	Zn	0.24787 0.55793 0.93747 1.19200
Zn	Zn	0.48050 0.49077 0.24121 1.24900
Zn	Zn	0.50520 0.54157 0.26375 1.19400
S 	S 	0.35901 0.52133 0.12030 0.10300
S 	S 	0.62070 0.52666 0.12600 0.04300
S 	S 	0.12080 0.53565 0.11760 0.04800
S 	S 	0.23470 0.49506 0.77800 0.13100
S 	S 	0.47890 0.49370 0.48200 0.26500
O 	O 	0.43470 0.50870 0.20170 -0.42800
O 	O 	0.45740 0.54179 0.20970 -0.51700
O 	O 	0.20240 0.56144 0.00120 -0.51100
O 	O 	0.19030 0.52846 0.02970 -0.45500
O 	O 	0.29410 0.55427 0.00080 -0.52600
O 	O 	0.27970 0.52358 0.04390 -0.43400
O 	O 	0.28040 0.54210 0.84310 -0.42100
O 	O 	0.22880 0.52981 0.89500 -0.53800
O 	O 	0.48080 0.51042 0.32940 -0.51000
O 	O 	0.52430 0.53260 0.36460 -0.45300
O 	O 	0.52660 0.50292 0.18770 -0.51400
O 	O 	0.55280 0.53206 0.21370 -0.53200
C 	C 	0.18350 0.54749 0.03270 0.41800
C 	C 	0.55470 0.51492 0.18650 0.49700
C 	C 	0.43200 0.52750 0.18950 0.39100
C 	C 	0.39840 0.53520 0.14700 -0.12800
C 	C 	0.15270 0.55373 0.08450 -0.12400
C 	C 	0.30100 0.54000 0.03770 0.45200
C 	C 	0.59280 0.50963 0.15460 -0.17000
C 	C 	0.39310 0.55460 0.12410 0.02000
C 	C 	0.33810 0.54160 0.07800 -0.14600
C 	C 	0.60520 0.49030 0.14510 0.06000
C 	C 	0.13980 0.57330 0.09980 0.02100
C 	C 	0.36260 0.55850 0.08370 0.03000
C 	C 	0.50160 0.51700 0.37600 0.45100
C 	C 	0.50610 0.51400 0.44860 -0.05300
C 	C 	0.49760 0.50180 0.43790 -0.20900
C 	C 	0.25420 0.52960 0.84660 0.41400
C 	C 	0.20120 0.50070 0.79150 -0.03600
C 	C 	0.30130 0.51460 0.75350 0.02700
C 	C 	0.23480 0.51390 0.78920 -0.08400
C 	C 	0.26790 0.51300 0.79670 -0.10900
C 	C 	0.52960 0.52380 0.48980 -0.05600
C 	C 	0.47170 0.48480 0.43540 -0.05100
Zn	Zn	0.74787 0.55793 0.43747 1.19300
Zn	Zn	0.98050 0.49077 0.74121 1.24900
Zn	Zn	0.00520 0.54157 0.76375 1.19400
S 	S 	0.85901 0.52133 0.62030 0.10300
S 	S 	0.12070 0.52666 0.62600 0.04300
S 	S 	0.62080 0.53565 0.61760 0.04800
S 	S 	0.73470 0.49506 0.27800 0.13100
S 	S 	0.97890 0.49370 0.98200 0.27400
O 	O 	0.93470 0.50870 0.70170 -0.42800
O 	O 	0.95740 0.54179 0.70970 -0.51700
O 	O 	0.70240 0.56144 0.50120 -0.51200
O 	O 	0.69030 0.52846 0.52970 -0.45600
O 	O 	0.79410 0.55427 0.50080 -0.52600
O 	O 	0.77970 0.52358 0.54390 -0.43400
O 	O 	0.78040 0.54210 0.34310 -0.42100
O 	O 	0.72880 0.52981 0.39500 -0.53800
O 	O 	0.98080 0.51042 0.82940 -0.50900
O 	O 	0.02430 0.53260 0.86460 -0.45300
O 	O 	0.02660 0.50292 0.68770 -0.51400
O 	O 	0.05280 0.53206 0.71370 -0.53100
C 	C 	0.68350 0.54749 0.53270 0.41800
C 	C 	0.05470 0.51492 0.68650 0.49700
C 	C 	0.93200 0.52750 0.68950 0.39100
C 	C 	0.89840 0.53520 0.64700 -0.12800
C 	C 	0.65270 0.55373 0.58450 -0.12400
C 	C 	0.80100 0.54000 0.53770 0.45200
C 	C 	0.09280 0.50963 0.65460 -0.17000
C 	C 	0.89310 0.55460 0.62410 0.02000
C 	C 	0.83810 0.54160 0.57800 -0.14600
C 	C 	0.10520 0.49030 0.64510 0.06000
C 	C 	0.63980 0.57330 0.59980 0.02100
C 	C 	0.86260 0.55850 0.58370 0.03000
C 	C 	0.00160 0.51700 0.87600 0.45000
C 	C 	0.00610 0.51400 0.94860 -0.04100
C 	C 	0.99760 0.50180 0.93790 -0.22500
C 	C 	0.75420 0.52960 0.34660 0.41400
C 	C 	0.70120 0.50070 0.29150 -0.03600
C 	C 	0.80130 0.51460 0.25350 0.02700
C 	C 	0.73480 0.51390 0.28920 -0.08400
C 	C 	0.76790 0.51300 0.29670 -0.10900
C 	C 	0.02960 0.52380 0.98980 -0.06500
C 	C 	0.97170 0.48480 0.93540 -0.04800
Zn	Zn	0.49787 0.44207 0.18747 1.19300
Zn	Zn	0.73050 0.50923 0.49121 1.24900
Zn	Zn	0.75520 0.45843 0.51375 1.19400
S 	S 	0.60901 0.47867 0.37030 0.10300
S 	S 	0.87070 0.47334 0.37600 0.04300
S 	S 	0.37080 0.46435 0.36760 0.04800
S 	S 	0.48470 0.50494 0.02800 0.13100
S 	S 	0.72890 0.50630 0.73200 0.26500
O 	O 	0.68470 0.49130 0.45170 -0.42800
O 	O 	0.70740 0.45821 0.45970 -0.51700
O 	O 	0.45240 0.43856 0.25120 -0.51200
O 	O 	0.44030 0.47154 0.27970 -0.45600
O 	O 	0.54410 0.44573 0.25080 -0.52600
O 	O 	0.52970 0.47642 0.29390 -0.43400
O 	O 	0.53040 0.45790 0.09310 -0.42100
O 	O 	0.47880 0.47019 0.14500 -0.53800
O 	O 	0.73080 0.48958 0.57940 -0.51000
O 	O 	0.77430 0.46740 0.61460 -0.45300
O 	O 	0.77660 0.49708 0.43770 -0.51400
O 	O 	0.80280 0.46794 0.46370 -0.53200
C 	C 	0.43350 0.45251 0.28270 0.41800
C 	C 	0.80470 0.48508 0.43650 0.49700
C 	C 	0.68200 0.47250 0.43950 0.39100
C 	C 	0.64840 0.46480 0.39700 -0.12800
C 	C 	0.40270 0.44627 0.33450 -0.12400
C 	C 	0.55100 0.46000 0.28770 0.45200
C 	C 	0.84280 0.49037 0.40460 -0.17000
C 	C 	0.64310 0.44540 0.37410 0.02000
C 	C 	0.58810 0.45840 0.32800 -0.14600
C 	C 	0.85520 0.50970 0.39510 0.06000
C 	C 	0.38980 0.42670 0.34980 0.02100
C 	C 	0.61260 0.44150 0.33370 0.03000
C 	C 	0.75160 0.48300 0.62600 0.45100
C 	C 	0.75610 0.48600 0.69860 -0.05300
C 	C 	0.74760 0.49820 0.68790 -0.21000
C 	C 	0.50420 0.47040 0.09660 0.41400
C 	C 	0.45120 0.49930 0.04150 -0.03600
C 	C 	0.55130 0.48540 0.00350 0.02700
C 	C 	0.48480 0.48610 0.03920 -0.08400
C 	C 	0.51790 0.48700 0.04670 -0.10900
C 	C 	0.77960 0.47620 0.73980 -0.05600
C 	C 	0.72170 0.51520 0.68540 -0.05100
Zn	Zn	0.99787 0.44207 0.68747 1.19300
Zn	Zn	0.23050 0.50923 0.99121 1.24800
Zn	Zn	0.25520 0.45843 0.01375 1.19400
S 	S 	0.10901 0.47867 0.87030 0.10300
S 	S 	0.37070 0.47334 0.87600 0.04300
S 	S 	0.87080 0.46435 0.86760 0.04800
S 	S 	0.98470 0.50494 0.52800 0.13100
S 	S 	0.22890 0.50630 0.23200 0.26400
O 	O 	0.18470 0.49130 0.95170 -0.42800
O 	O 	0.20740 0.45821 0.95970 -0.51700
O 	O 	0.95240 0.43856 0.75120 -0.51100
O 	O 	0.94030 0.47154 0.77970 -0.45500
O 	O 	0.04410 0.44573 0.75080 -0.52600
O 	O 	0.02970 0.47642 0.79390 -0.43400
O 	O 	0.03040 0.45790 0.59310 -0.42100
O 	O 	0.97880 0.47019 0.64500 -0.53800
O 	O 	0.23080 0.48958 0.07940 -0.51000
O 	O 	0.27430 0.46740 0.11460 -0.45300
O 	O 	0.27660 0.49708 0.93770 -0.51400
O 	O 	0.30280 0.46794 0.96370 -0.53200
C 	C 	0.93350 0.45251 0.78270 0.41800
C 	C 	0.30470 0.48508 0.93650 0.49700
C 	C 	0.18200 0.47250 0.93950 0.39100
C 	C 	0.14840 0.46480 0.89700 -0.12800
C 	C 	0.90270 0.44627 0.83450 -0.12400
C 	C 	0.05100 0.46000 0.78770 0.45200
C 	C 	0.34280 0.49037 0.90460 -0.17000
C 	C 	0.14310 0.44540 0.87410 0.02000
C 	C 	0.08810 0.45840 0.82800 -0.14600
C 	C 	0.35520 0.50970 0.89510 0.05900
C 	C 	0.88980 0.42670 0.84980 0.02100
C 	C 	0.11260 0.44150 0.83370 0.03000
C 	C 	0.25160 0.48300 0.12600 0.45100
C 	C 	0.25610 0.48600 0.19860 -0.05300
C 	C 	0.24760 0.49820 0.18790 -0.20900
C 	C 	0.00420 0.47040 0.59660 0.41400
C 	C 	0.95120 0.49930 0.54150 -0.03600
C 	C 	0.05130 0.48540 0.50350 0.02700
C 	C 	0.98480 0.48610 0.53920 -0.08400
C 	C 	0.01790 0.48700 0.54670 -0.11000
C 	C 	0.27960 0.47620 0.23980 -0.05600
C 	C 	0.22170 0.51520 0.18540 -0.05100
Zn	Zn	0.75213 0.44207 0.06253 1.19200
Zn	Zn	0.51950 0.50923 0.75879 1.24900
Zn	Zn	0.49480 0.45843 0.73625 1.19400
S 	S 	0.64099 0.47867 0.87970 0.10300
S 	S 	0.37930 0.47334 0.87400 0.04300
S 	S 	0.87920 0.46435 0.88240 0.04800
S 	S 	0.76530 0.50494 0.22200 0.13100
S 	S 	0.52110 0.50630 0.51800 0.26500
O 	O 	0.56530 0.49130 0.79830 -0.42800
O 	O 	0.54260 0.45821 0.79030 -0.51700
O 	O 	0.79760 0.43856 0.99880 -0.51100
O 	O 	0.80970 0.47154 0.97030 -0.45500
O 	O 	0.70590 0.44573 0.99920 -0.52600
O 	O 	0.72030 0.47642 0.95610 -0.43400
O 	O 	0.71960 0.45790 0.15690 -0.42100
O 	O 	0.77120 0.47019 0.10500 -0.53800
O 	O 	0.51920 0.48958 0.67060 -0.51000
O 	O 	0.47570 0.46740 0.63540 -0.45300
O 	O 	0.47340 0.49708 0.81230 -0.51400
O 	O 	0.44720 0.46794 0.78630 -0.53200
C 	C 	0.81650 0.45251 0.96730 0.41800
C 	C 	0.44530 0.48508 0.81350 0.49700
C 	C 	0.56800 0.47250 0.81050 0.39100
C 	C 	0.60160 0.46480 0.85300 -0.12800
C 	C 	0.84730 0.44627 0.91550 -0.12400
C 	C 	0.69900 0.46000 0.96230 0.45200
C 	C 	0.40720 0.49037 0.84540 -0.17000
C 	C 	0.60690 0.44540 0.87590 0.02000
C 	C 	0.66190 0.45840 0.92200 -0.14600
C 	C 	0.39480 0.50970 0.85490 0.06000
C 	C 	0.86020 0.42670 0.90020 0.02100
C 	C 	0.63740 0.44150 0.91630 0.03000
C 	C 	0.49840 0.48300 0.62400 0.45100
C 	C 	0.49390 0.48600 0.55140 -0.05300
C 	C 	0.50240 0.49820 0.56210 -0.20900
C 	C 	0.74580 0.47040 0.15340 0.41400
C 	C 	0.79880 0.49930 0.20850 -0.03600
C 	C 	0.69870 0.48540 0.24650 0.02700
C 	C 	0.76520 0.48610 0.21080 -0.08400
C 	C 	0.73210 0.48700 0.20330 -0.10900
C 	C 	0.47040 0.47620 0.51020 -0.05600
C 	C 	0.52830 0.51520 0.56460 -0.05100
Zn	Zn	0.25213 0.44207 0.56253 1.19300
Zn	Zn	0.01950 0.50923 0.25879 1.24900
Zn	Zn	0.99480 0.45843 0.23625 1.19400
S 	S 	0.14099 0.47867 0.37970 0.10300
S 	S 	0.87930 0.47334 0.37400 0.04300
S 	S 	0.37920 0.46435 0.38240 0.04800
S 	S 	0.26530 0.50494 0.72200 0.13100
S 	S 	0.02110 0.50630 0.01800 0.27400
O 	O 	0.06530 0.49130 0.29830 -0.42800
O 	O 	0.04260 0.45821 0.29030 -0.51700
O 	O 	0.29760 0.43856 0.49880 -0.51200
O 	O 	0.30970 0.47154 0.47030 -0.45600
O 	O 	0.20590 0.44573 0.49920 -0.52600
O 	O 	0.22030 0.47642 0.45610 -0.43400
O 	O 	0.21960 0.45790 0.65690 -0.42100
O 	O 	0.27120 0.47019 0.60500 -0.53800
O 	O 	0.01920 0.48958 0.17060 -0.50900
O 	O 	0.97570 0.46740 0.13540 -0.45300
O 	O 	0.97340 0.49708 0.31230 -0.51400
O 	O 	0.94720 0.46794 0.28630 -0.53100
C 	C 	0.31650 0.45251 0.46730 0.41800
C 	C 	0.94530 0.48508 0.31350 0.49700
C 	C 	0.06800 0.47250 0.31050 0.39100
C 	C 	0.10160 0.46480 0.35300 -0.12800
C 	C 	0.34730 0.44627 0.41550 -0.12400
C 	C 	0.19900 0.46000 0.46230 0.45200
C 	C 	0.90720 0.49037 0.34540 -0.17000
C 	C 	0.10690 0.44540 0.37590 0.02000
C 	C 	0.16190 0.45840 0.42200 -0.14600
C 	C 	0.89480 0.50970 0.35490 0.06000
C 	C 	0.36020 0.42670 0.40020 0.02100
C 	C 	0.13740 0.44150 0.41630 0.03000
C 	C 	0.99840 0.48300 0.12400 0.45000
C 	C 	0.99390 0.48600 0.05140 -0.04100
C 	C 	0.00240 0.49820 0.06210 -0.22500
C 	C 	0.24580 0.47040 0.65340 0.41400
C 	C 	0.29880 0.49930 0.70850 -0.03600
C 	C 	0.19870 0.48540 0.74650 0.02700
C 	C 	0.26520 0.48610 0.71080 -0.08400
C 	C 	0.23210 0.48700 0.70330 -0.10900
C 	C 	0.97040 0.47620 0.01020 -0.06500
C 	C 	0.02830 0.51520 0.06460 -0.04800
Zn	Zn	0.24787 0.69207 0.31253 1.19300
Zn	Zn	0.48050 0.75923 0.00879 1.24900
Zn	Zn	0.50520 0.70843 0.98625 1.19400
S 	S 	0.35901 0.72867 0.12970 0.10300
S 	S 	0.62070 0.72334 0.12400 0.04300
S 	S 	0.12080 0.71435 0.13240 0.04800
S 	S 	0.23470 0.75494 0.47200 0.13100
S 	S 	0.47890 0.75630 0.76800 0.26500
O 	O 	0.43470 0.74130 0.04830 -0.42800
O 	O 	0.45740 0.70821 0.04030 -0.51700
O 	O 	0.20240 0.68856 0.24880 -0.51200
O 	O 	0.19030 0.72154 0.22030 -0.45600
O 	O 	0.29410 0.69573 0.24920 -0.52600
O 	O 	0.27970 0.72642 0.20610 -0.43400
O 	O 	0.28040 0.70790 0.40690 -0.42100
O 	O 	0.22880 0.72019 0.35500 -0.53800
O 	O 	0.48080 0.73958 0.92060 -0.51000
O 	O 	0.52430 0.71740 0.88540 -0.45300
O 	O 	0.52660 0.74708 0.06230 -0.51400
O 	O 	0.55280 0.71794 0.03630 -0.53100
C 	C 	0.18350 0.70251 0.21730 0.41800
C 	C 	0.55470 0.73508 0.06350 0.49700
C 	C 	0.43200 0.72250 0.06050 0.39100
C 	C 	0.39840 0.71480 0.10300 -0.12800
C 	C 	0.15270 0.69627 0.16550 -0.12400
C 	C 	0.30100 0.71000 0.21230 0.45200
C 	C 	0.59280 0.74037 0.09540 -0.17000
C 	C 	0.39310 0.69540 0.12590 0.02000
C 	C 	0.33810 0.70840 0.17200 -0.14600
C 	C 	0.60520 0.75970 0.10490 0.05900
C 	C 	0.13980 0.67670 0.15020 0.02100
C 	C 	0.36260 0.69150 0.16630 0.03000
C 	C 	0.50160 0.73300 0.87400 0.45100
C 	C 	0.50610 0.73600 0.80140 -0.05300
C 	C 	0.49760 0.74820 0.81210 -0.21000
C 	C 	0.25420 0.72040 0.40340 0.41400
C 	C 	0.20120 0.74930 0.45850 -0.03600
C 	C 	0.30130 0.73540 0.49650 0.02700
C 	C 	0.23480 0.73610 0.46080 -0.08400
C 	C 	0.26790 0.73700 0.45330 -0.10900
C 	C 	0.52960 0.72620 0.76020 -0.05600
C 	C 	0.47170 0.76520 0.81460 -0.05100
Zn	Zn	0.74787 0.69207 0.81253 1.19300
Zn	Zn	0.98050 0.75923 0.50879 1.24900
Zn	Zn	0.00520 0.70843 0.48625 1.19400
S 	S 	0.85901 0.72867 0.62970 0.10300
S 	S 	0.12070 0.72334 0.62400 0.04300
S 	S 	0.62080 0.71435 0.63240 0.04800
S 	S 	0.73470 0.75494 0.97200 0.13200
S 	S 	0.97890 0.75630 0.26800 0.25400
O 	O 	0.93470 0.74130 0.54830 -0.42800
O 	O 	0.95740 0.70821 0.54030 -0.51700
O 	O 	0.70240 0.68856 0.74880 -0.51200
O 	O 	0.69030 0.72154 0.72030 -0.45600
O 	O 	0.79410 0.69573 0.74920 -0.52600
O 	O 	0.77970 0.72642 0.70610 -0.43400
O 	O 	0.78040 0.70790 0.90690 -0.42100
O 	O 	0.72880 0.72019 0.85500 -0.53800
O 	O 	0.98080 0.73958 0.42060 -0.51100
O 	O 	0.02430 0.71740 0.38540 -0.45300
O 	O 	0.02660 0.74708 0.56230 -0.51400
O 	O 	0.05280 0.71794 0.53630 -0.53100
C 	C 	0.68350 0.70251 0.71730 0.41800
C 	C 	0.05470 0.73508 0.56350 0.49700
C 	C 	0.93200 0.72250 0.56050 0.39100
C 	C 	0.89840 0.71480 0.60300 -0.12800
C 	C 	0.65270 0.69627 0.66550 -0.12400
C 	C 	0.80100 0.71000 0.71230 0.45200
C 	C 	0.09280 0.74037 0.59540 -0.17000
C 	C 	0.89310 0.69540 0.62590 0.02000
C 	C 	0.83810 0.70840 0.67200 -0.14600
C 	C 	0.10520 0.75970 0.60490 0.06000
C 	C 	0.63980 0.67670 0.65020 0.02100
C 	C 	0.86260 0.69150 0.66630 0.03000
C 	C 	0.00160 0.73300 0.37400 0.45200
C 	C 	0.00610 0.73600 0.30140 -0.05600
C 	C 	0.99760 0.74820 0.31210 -0.20700
C 	C 	0.75420 0.72040 0.90340 0.41400
C 	C 	0.70120 0.74930 0.95850 -0.03600
C 	C 	0.80130 0.73540 0.99650 0.02800
C 	C 	0.73480 0.73610 0.96080 -0.08400
C 	C 	0.76790 0.73700 0.95330 -0.10900
C 	C 	0.02960 0.72620 0.26020 -0.06000
C 	C 	0.97170 0.76520 0.31460 -0.04600
Zn	Zn	0.50213 0.69207 0.43747 1.19300
Zn	Zn	0.26950 0.75923 0.74121 1.24900
Zn	Zn	0.24480 0.70843 0.76375 1.19400
S 	S 	0.39099 0.72867 0.62030 0.10300
S 	S 	0.12930 0.72334 0.62600 0.04300
S 	S 	0.62920 0.71435 0.61760 0.04800
S 	S 	0.51530 0.75494 0.27800 0.13100
S 	S 	0.27110 0.75630 0.98200 0.27300
O 	O 	0.31530 0.74130 0.70170 -0.42800
O 	O 	0.29260 0.70821 0.70970 -0.51700
O 	O 	0.54760 0.68856 0.50120 -0.51200
O 	O 	0.55970 0.72154 0.52970 -0.45600
O 	O 	0.45590 0.69573 0.50080 -0.52600
O 	O 	0.47030 0.72642 0.54390 -0.43400
O 	O 	0.46960 0.70790 0.34310 -0.42100
O 	O 	0.52120 0.72019 0.39500 -0.53800
O 	O 	0.26920 0.73958 0.82940 -0.51000
O 	O 	0.22570 0.71740 0.86460 -0.45300
O 	O 	0.22340 0.74708 0.68770 -0.51400
O 	O 	0.19720 0.71794 0.71370 -0.53200
C 	C 	0.56650 0.70251 0.53270 0.41800
C 	C 	0.19530 0.73508 0.68650 0.49700
C 	C 	0.31800 0.72250 0.68950 0.39100
C 	C 	0.35160 0.71480 0.64700 -0.12800
C 	C 	0.59730 0.69627 0.58450 -0.12400
C 	C 	0.44900 0.71000 0.53770 0.45200
C 	C 	0.15720 0.74037 0.65460 -0.17000
C 	C 	0.35690 0.69540 0.62410 0.02000
C 	C 	0.41190 0.70840 0.57800 -0.14600
C 	C 	0.14480 0.75970 0.64510 0.06000
C 	C 	0.61020 0.67670 0.59980 0.02100
C 	C 	0.38740 0.69150 0.58370 0.03000
C 	C 	0.24840 0.73300 0.87600 0.45000
C 	C 	0.24390 0.73600 0.94860 -0.04700
C 	C 	0.25240 0.74820 0.93790 -0.21600
C 	C 	0.49580 0.72040 0.34660 0.41400
C 	C 	0.54880 0.74930 0.29150 -0.03600
C 	C 	0.44870 0.73540 0.25350 0.02700
C 	C 	0.51520 0.73610 0.28920 -0.08400
C 	C 	0.48210 0.73700 0.29670 -0.10900
C 	C 	0.22040 0.72620 0.98980 -0.05500
C 	C 	0.27830 0.76520 0.93540 -0.05400
Zn	Zn	0.00213 0.69207 0.93747 1.19200
Zn	Zn	0.76950 0.75923 0.24121 1.24900
Zn	Zn	0.74480 0.70843 0.26375 1.19400
S 	S 	0.89099 0.72867 0.12030 0.10300
S 	S 	0.62930 0.72334 0.12600 0.04300
S 	S 	0.12920 0.71435 0.11760 0.04800
S 	S 	0.01530 0.75494 0.77800 0.13100
S 	S 	0.77110 0.75630 0.48200 0.26500
O 	O 	0.81530 0.74130 0.20170 -0.42800
O 	O 	0.79260 0.70821 0.20970 -0.51700
O 	O 	0.04760 0.68856 0.00120 -0.51100
O 	O 	0.05970 0.72154 0.02970 -0.45500
O 	O 	0.95590 0.69573 0.00080 -0.52600
O 	O 	0.97030 0.72642 0.04390 -0.43300
O 	O 	0.96960 0.70790 0.84310 -0.42100
O 	O 	0.02120 0.72019 0.89500 -0.53900
O 	O 	0.76920 0.73958 0.32940 -0.51000
O 	O 	0.72570 0.71740 0.36460 -0.45300
O 	O 	0.72340 0.74708 0.18770 -0.51400
O 	O 	0.69720 0.71794 0.21370 -0.53200
C 	C 	0.06650 0.70251 0.03270 0.41800
C 	C 	0.69530 0.73508 0.18650 0.49700
C 	C 	0.81800 0.72250 0.18950 0.39100
C 	C 	0.85160 0.71480 0.14700 -0.12800
C 	C 	0.09730 0.69627 0.08450 -0.12400
C 	C 	0.94900 0.71000 0.03770 0.45200
C 	C 	0.65720 0.74037 0.15460 -0.17000
C 	C 	0.85690 0.69540 0.12410 0.02000
C 	C 	0.91190 0.70840 0.07800 -0.14600
C 	C 	0.64480 0.75970 0.14510 0.06000
C 	C 	0.11020 0.67670 0.09980 0.02100
C 	C 	0.88740 0.69150 0.08370 0.03000
C 	C 	0.74840 0.73300 0.37600 0.45100
C 	C 	0.74390 0.73600 0.44860 -0.05300
C 	C 	0.75240 0.74820 0.43790 -0.20900
C 	C 	0.99580 0.72040 0.84660 0.41600
C 	C 	0.04880 0.74930 0.79150 -0.03600
C 	C 	0.94870 0.73540 0.75350 0.02700
C 	C 	0.01520 0.73610 0.78920 -0.08500
C 	C 	0.98210 0.73700 0.79670 -0.10900
C 	C 	0.72040 0.72620 0.48980 -0.05600
C 	C 	0.77830 0.76520 0.43540 -0.05100
Zn	Zn	0.75213 0.80793 0.18747 1.19300
Zn	Zn	0.51950 0.74077 0.49121 1.24900
Zn	Zn	0.49480 0.79157 0.51375 1.19400
S 	S 	0.64099 0.77133 0.37030 0.10300
S 	S 	0.37930 0.77666 0.37600 0.04300
S 	S 	0.87920 0.78565 0.36760 0.04800
S 	S 	0.76530 0.74506 0.02800 0.13000
S 	S 	0.52110 0.74370 0.73200 0.26500
O 	O 	0.56530 0.75870 0.45170 -0.42800
O 	O 	0.54260 0.79179 0.45970 -0.51700
O 	O 	0.79760 0.81144 0.25120 -0.51200
O 	O 	0.80970 0.77846 0.27970 -0.45600
O 	O 	0.70590 0.80427 0.25080 -0.52600
O 	O 	0.72030 0.77358 0.29390 -0.43400
O 	O 	0.71960 0.79210 0.09310 -0.42100
O 	O 	0.77120 0.77981 0.14500 -0.53800
O 	O 	0.51920 0.76042 0.57940 -0.51000
O 	O 	0.47570 0.78260 0.61460 -0.45300
O 	O 	0.47340 0.75292 0.43770 -0.51400
O 	O 	0.44720 0.78206 0.46370 -0.53200
C 	C 	0.81650 0.79749 0.28270 0.41800
C 	C 	0.44530 0.76492 0.43650 0.49700
C 	C 	0.56800 0.77750 0.43950 0.39100
C 	C 	0.60160 0.78520 0.39700 -0.12800
C 	C 	0.84730 0.80373 0.33450 -0.12400
C 	C 	0.69900 0.79000 0.28770 0.45200
C 	C 	0.40720 0.75963 0.40460 -0.17000
C 	C 	0.60690 0.80460 0.37410 0.02000
C 	C 	0.66190 0.79160 0.32800 -0.14600
C 	C 	0.39480 0.74030 0.39510 0.06000
C 	C 	0.86020 0.82330 0.34980 0.02100
C 	C 	0.63740 0.80850 0.33370 0.03000
C 	C 	0.49840 0.76700 0.62600 0.45100
C 	C 	0.49390 0.76400 0.69860 -0.05300
C 	C 	0.50240 0.75180 0.68790 -0.20900
C 	C 	0.74580 0.77960 0.09660 0.41400
C 	C 	0.79880 0.75070 0.04150 -0.03600
C 	C 	0.69870 0.76460 0.00350 0.02700
C 	C 	0.76520 0.76390 0.03920 -0.08400
C 	C 	0.73210 0.76300 0.04670 -0.10900
C 	C 	0.47040 0.77380 0.73980 -0.05600
C 	C 	0.52830 0.73480 0.68540 -0.05100
Zn	Zn	0.25213 0.80793 0.68747 1.19300
Zn	Zn	0.01950 0.74077 0.99121 1.24800
Zn	Zn	0.99480 0.79157 0.01375 1.19400
S 	S 	0.14099 0.77133 0.87030 0.10300
S 	S 	0.87930 0.77666 0.87600 0.04300
S 	S 	0.37920 0.78565 0.86760 0.04800
S 	S 	0.26530 0.74506 0.52800 0.13100
S 	S 	0.02110 0.74370 0.23200 0.28000
O 	O 	0.06530 0.75870 0.95170 -0.42800
O 	O 	0.04260 0.79179 0.95970 -0.51700
O 	O 	0.29760 0.81144 0.75120 -0.51200
O 	O 	0.30970 0.77846 0.77970 -0.45600
O 	O 	0.20590 0.80427 0.75080 -0.52600
O 	O 	0.22030 0.77358 0.79390 -0.43300
O 	O 	0.21960 0.79210 0.59310 -0.42100
O 	O 	0.27120 0.77981 0.64500 -0.53800
O 	O 	0.01920 0.76042 0.07940 -0.50800
O 	O 	0.97570 0.78260 0.11460 -0.45300
O 	O 	0.97340 0.75292 0.93770 -0.51300
O 	O 	0.94720 0.78206 0.96370 -0.53100
C 	C 	0.31650 0.79749 0.78270 0.41800
C 	C 	0.94530 0.76492 0.93650 0.49700
C 	C 	0.06800 0.77750 0.93950 0.39100
C 	C 	0.10160 0.78520 0.89700 -0.12800
C 	C 	0.34730 0.80373 0.83450 -0.12400
C 	C 	0.19900 0.79000 0.78770 0.45200
C 	C 	0.90720 0.75963 0.90460 -0.17000
C 	C 	0.10690 0.80460 0.87410 0.02000
C 	C 	0.16190 0.79160 0.82800 -0.14600
C 	C 	0.89480 0.74030 0.89510 0.06000
C 	C 	0.36020 0.82330 0.84980 0.02100
C 	C 	0.13740 0.80850 0.83370 0.03000
C 	C 	0.99840 0.76700 0.12600 0.44900
C 	C 	0.99390 0.76400 0.19860 -0.04000
C 	C 	0.00240 0.75180 0.18790 -0.22400
C 	C 	0.24580 0.77960 0.59660 0.41400
C 	C 	0.29880 0.75070 0.54150 -0.03600
C 	C 	0.19870 0.76460 0.50350 0.02700
C 	C 	0.26520 0.76390 0.53920 -0.08400
C 	C 	0.23210 0.76300 0.54670 -0.10900
C 	C 	0.97040 0.77380 0.23980 -0.05800
C 	C 	0.02830 0.73480 0.18540 -0.05300
Zn	Zn	0.49787 0.80793 0.06253 1.19200
Zn	Zn	0.73050 0.74077 0.75879 1.24900
Zn	Zn	0.75520 0.79157 0.73625 1.19400
S 	S 	0.60901 0.77133 0.87970 0.10300
S 	S 	0.87070 0.77666 0.87400 0.04300
S 	S 	0.37080 0.78565 0.88240 0.04800
S 	S 	0.48470 0.74506 0.22200 0.13100
S 	S 	0.72890 0.74370 0.51800 0.26500
O 	O 	0.68470 0.75870 0.79830 -0.42800
O 	O 	0.70740 0.79179 0.79030 -0.51700
O 	O 	0.45240 0.81144 0.99880 -0.51200
O 	O 	0.44030 0.77846 0.97030 -0.45600
O 	O 	0.54410 0.80427 0.99920 -0.52600
O 	O 	0.52970 0.77358 0.95610 -0.43400
O 	O 	0.53040 0.79210 0.15690 -0.42100
O 	O 	0.47880 0.77981 0.10500 -0.53800
O 	O 	0.73080 0.76042 0.67060 -0.51000
O 	O 	0.77430 0.78260 0.63540 -0.45300
O 	O 	0.77660 0.75292 0.81230 -0.51400
O 	O 	0.80280 0.78206 0.78630 -0.53100
C 	C 	0.43350 0.79749 0.96730 0.41800
C 	C 	0.80470 0.76492 0.81350 0.49700
C 	C 	0.68200 0.77750 0.81050 0.39100
C 	C 	0.64840 0.78520 0.85300 -0.12800
C 	C 	0.40270 0.80373 0.91550 -0.12400
C 	C 	0.55100 0.79000 0.96230 0.45200
C 	C 	0.84280 0.75963 0.84540 -0.17000
C 	C 	0.64310 0.80460 0.87590 0.02000
C 	C 	0.58810 0.79160 0.92200 -0.14600
C 	C 	0.85520 0.74030 0.85490 0.06000
C 	C 	0.38980 0.82330 0.90020 0.02100
C 	C 	0.61260 0.80850 0.91630 0.03000
C 	C 	0.75160 0.76700 0.62400 0.45100
C 	C 	0.75610 0.76400 0.55140 -0.05300
C 	C 	0.74760 0.75180 0.56210 -0.20900
C 	C 	0.50420 0.77960 0.15340 0.41400
C 	C 	0.45120 0.75070 0.20850 -0.03600
C 	C 	0.55130 0.76460 0.24650 0.02700
C 	C 	0.48480 0.76390 0.21080 -0.08400
C 	C 	0.51790 0.76300 0.20330 -0.10900
C 	C 	0.77960 0.77380 0.51020 -0.05600
C 	C 	0.72170 0.73480 0.56460 -0.05100
Zn	Zn	0.99787 0.80793 0.56253 1.19300
Zn	Zn	0.23050 0.74077 0.25879 1.24900
Zn	Zn	0.25520 0.79157 0.23625 1.19400
S 	S 	0.10901 0.77133 0.37970 0.10300
S 	S 	0.37070 0.77666 0.37400 0.04300
S 	S 	0.87080 0.78565 0.38240 0.04800
S 	S 	0.98470 0.74506 0.72200 0.13200
S 	S 	0.22890 0.74370 0.01800 0.25500
O 	O 	0.18470 0.75870 0.29830 -0.42800
O 	O 	0.20740 0.79179 0.29030 -0.51700
O 	O 	0.95240 0.81144 0.49880 -0.51200
O 	O 	0.94030 0.77846 0.47030 -0.45600
O 	O 	0.04410 0.80427 0.49920 -0.52600
O 	O 	0.02970 0.77358 0.45610 -0.43400
O 	O 	0.03040 0.79210 0.65690 -0.42100
O 	O 	0.97880 0.77981 0.60500 -0.53800
O 	O 	0.23080 0.76042 0.17060 -0.51100
O 	O 	0.27430 0.78260 0.13540 -0.45300
O 	O 	0.27660 0.75292 0.31230 -0.51400
O 	O 	0.30280 0.78206 0.28630 -0.53200
C 	C 	0.93350 0.79749 0.46730 0.41800
C 	C 	0.30470 0.76492 0.31350 0.49700
C 	C 	0.18200 0.77750 0.31050 0.39100
C 	C 	0.14840 0.78520 0.35300 -0.12800
C 	C 	0.90270 0.80373 0.41550 -0.12400
C 	C 	0.05100 0.79000 0.46230 0.45200
C 	C 	0.34280 0.75963 0.34540 -0.17000
C 	C 	0.14310 0.80460 0.37590 0.02000
C 	C 	0.08810 0.79160 0.42200 -0.14600
C 	C 	0.35520 0.74030 0.35490 0.06000
C 	C 	0.88980 0.82330 0.40020 0.02100
C 	C 	0.11260 0.80850 0.41630 0.03000
C 	C 	0.25160 0.76700 0.12400 0.45200
C 	C 	0.25610 0.76400 0.05140 -0.06400
C 	C 	0.24760 0.75180 0.06210 -0.19800
C 	C 	0.00420 0.77960 0.65340 0.41400
C 	C 	0.95120 0.75070 0.70850 -0.03700
C 	C 	0.05130 0.76460 0.74650 0.02700
C 	C 	0.98480 0.76390 0.71080 -0.08400
C 	C 	0.01790 0.76300 0.70330 -0.11000
C 	C 	0.27960 0.77380 0.01020 -0.05400
C 	C 	0.22170 0.73480 0.06460 -0.04900
