data_crystal

_cell_length_a 19.37760
_cell_length_b 19.37760
_cell_length_c 31.61390
_cell_angle_alpha 105.79600
_cell_angle_beta  105.79600
_cell_angle_gamma 94.18290

_symmetry_space_group_name_	'P 1'
_symmetry_space_group_name_H-M	'P 1'

loop_
_symmetry_equiv_pos_as_xyz
  x,y,z

loop_
_atom_site_label
_atom_site_type_symbol
_atom_site_fract_x
_atom_site_fract_y
_atom_site_fract_z
_atom_site_charge
Zn	Zn	0.75496 0.53136 0.65020 1.21300
Zn	Zn	0.60879 0.44621 0.57314 1.21100
Zn	Zn	0.68387 0.37943 0.65215 1.21400
Zn	Zn	0.75593 0.38811 0.57351 1.21100
Zn	Zn	0.53136 0.75496 0.15020 1.21300
Zn	Zn	0.44621 0.60879 0.07314 1.21100
Zn	Zn	0.37943 0.68387 0.15215 1.21400
Zn	Zn	0.38811 0.75593 0.07351 1.21100
H 	H 	0.50980 0.38320 0.70340 0.03000
H 	H 	0.42400 0.42500 0.74040 0.06500
H 	H 	0.32770 0.50150 0.63590 0.06900
H 	H 	0.41360 0.46180 0.59970 0.02600
H 	H 	0.38860 0.52340 0.78310 0.06700
H 	H 	0.18510 0.56130 0.78090 0.06500
H 	H 	0.22620 0.47540 0.65970 0.06400
H 	H 	0.37680 0.49380 0.85000 0.06800
H 	H 	0.40770 0.53090 0.92970 0.03300
H 	H 	0.29470 0.69750 0.92750 0.02300
H 	H 	0.26030 0.66010 0.84940 0.06700
H 	H 	0.10520 0.41900 0.63970 0.06100
H 	H 	0.98100 0.40840 0.60360 0.03500
H 	H 	0.97870 0.59690 0.69870 0.03400
H 	H 	0.10120 0.60700 0.73480 0.06000
H 	H 	0.55310 0.60970 0.52580 0.03300
H 	H 	0.54210 0.69730 0.48800 0.05900
H 	H 	0.73160 0.81580 0.58330 0.06100
H 	H 	0.73720 0.72940 0.62150 0.03200
H 	H 	0.58670 0.75210 0.44280 0.07200
H 	H 	0.62660 0.95900 0.44290 0.06600
H 	H 	0.67290 0.90910 0.56270 0.06600
H 	H 	0.73440 0.05260 0.49250 0.06700
H 	H 	0.75710 0.17650 0.52830 0.02500
H 	H 	0.65620 0.14660 0.61960 0.01600
H 	H 	0.63320 0.02560 0.58540 0.07400
H 	H 	0.47790 0.77430 0.37810 0.07000
H 	H 	0.43420 0.73660 0.29760 0.02800
H 	H 	0.61760 0.83660 0.29090 0.03200
H 	H 	0.66270 0.88010 0.37330 0.06500
H 	H 	0.38320 0.50980 0.20340 0.03000
H 	H 	0.42500 0.42400 0.24040 0.06500
H 	H 	0.50150 0.32770 0.13590 0.06900
H 	H 	0.46180 0.41360 0.09970 0.02600
H 	H 	0.52340 0.38860 0.28310 0.06700
H 	H 	0.56130 0.18510 0.28090 0.06500
H 	H 	0.47540 0.22620 0.15970 0.06400
H 	H 	0.49380 0.37680 0.35000 0.06800
H 	H 	0.53090 0.40770 0.42970 0.03300
H 	H 	0.69750 0.29470 0.42750 0.02300
H 	H 	0.66010 0.26030 0.34940 0.06700
H 	H 	0.41900 0.10520 0.13970 0.06100
H 	H 	0.40840 0.98100 0.10360 0.03500
H 	H 	0.59690 0.97870 0.19870 0.03400
H 	H 	0.60700 0.10120 0.23480 0.06000
H 	H 	0.60970 0.55310 0.02580 0.03200
H 	H 	0.69730 0.54210 0.98800 0.06000
H 	H 	0.81580 0.73160 0.08330 0.06100
H 	H 	0.72940 0.73720 0.12150 0.03200
H 	H 	0.75210 0.58670 0.94280 0.07200
H 	H 	0.95900 0.62660 0.94290 0.06600
H 	H 	0.90910 0.67290 0.06270 0.06600
H 	H 	0.05260 0.73440 0.99250 0.06600
H 	H 	0.17650 0.75710 0.02830 0.02500
H 	H 	0.14660 0.65620 0.11960 0.01600
H 	H 	0.02560 0.63320 0.08540 0.07400
H 	H 	0.77430 0.47790 0.87810 0.07000
H 	H 	0.73660 0.43420 0.79760 0.02800
H 	H 	0.83660 0.61760 0.79090 0.03100
H 	H 	0.88010 0.66270 0.87330 0.06500
C 	C 	0.53150 0.40210 0.63060 0.37100
C 	C 	0.47060 0.42100 0.64970 -0.13100
C 	C 	0.47380 0.40840 0.69020 0.04300
C 	C 	0.42260 0.43320 0.71190 -0.10500
C 	C 	0.36930 0.46970 0.69250 0.04500
C 	C 	0.36530 0.47890 0.65010 -0.11200
C 	C 	0.41590 0.45510 0.62870 0.04500
C 	C 	0.31540 0.49600 0.71740 0.03600
C 	C 	0.33960 0.52260 0.76630 -0.10300
C 	C 	0.28980 0.54720 0.78910 0.04100
C 	C 	0.21860 0.54480 0.76470 -0.10500
C 	C 	0.19440 0.51860 0.71650 0.04200
C 	C 	0.24230 0.49370 0.69250 -0.10200
C 	C 	0.31410 0.57370 0.84060 0.04200
C 	C 	0.35980 0.53500 0.86560 -0.10600
C 	C 	0.37900 0.55820 0.91310 0.05000
C 	C 	0.35840 0.61880 0.93730 -0.13700
C 	C 	0.31160 0.65640 0.91180 0.05200
C 	C 	0.29140 0.63400 0.86570 -0.11300
C 	C 	0.11630 0.51430 0.69170 0.03100
C 	C 	0.07880 0.45480 0.65180 -0.09200
C 	C 	0.00490 0.44790 0.63040 0.02600
C 	C 	0.96740 0.49820 0.64810 -0.10400
C 	C 	0.00480 0.56020 0.68740 0.02500
C 	C 	0.07740 0.56660 0.70850 -0.09500
C 	C 	0.65690 0.60310 0.60000 0.37300
C 	C 	0.64710 0.66170 0.57740 -0.12100
C 	C 	0.58860 0.65220 0.53730 0.03200
C 	C 	0.58230 0.70410 0.51470 -0.08900
C 	C 	0.63500 0.76720 0.53050 0.02500
C 	C 	0.69460 0.77440 0.57170 -0.09300
C 	C 	0.69850 0.72270 0.59410 0.03600
C 	C 	0.63070 0.82230 0.50660 0.05000
C 	C 	0.60420 0.80200 0.45930 -0.11200
C 	C 	0.60220 0.85240 0.43470 0.04300
C 	C 	0.62740 0.92400 0.45900 -0.10400
C 	C 	0.65480 0.94660 0.50800 0.03800
C 	C 	0.65510 0.89450 0.52990 -0.10800
C 	C 	0.67770 0.02550 0.53320 0.04900
C 	C 	0.71750 0.07230 0.51810 -0.11300
C 	C 	0.73220 0.14480 0.53940 0.05000
C 	C 	0.70910 0.17210 0.57890 -0.14800
C 	C 	0.67210 0.12690 0.59370 0.07700
C 	C 	0.65750 0.05610 0.57320 -0.12900
C 	C 	0.57650 0.83070 0.38350 0.04100
C 	C 	0.50660 0.78760 0.36070 -0.10500
C 	C 	0.48090 0.76510 0.31270 0.05300
C 	C 	0.52090 0.78310 0.28690 -0.12900
C 	C 	0.58890 0.82470 0.30880 0.03700
C 	C 	0.61670 0.85010 0.35840 -0.10200
C 	C 	0.49960 0.75920 0.23540 0.39400
C 	C 	0.72230 0.25150 0.59680 0.37500
C 	C 	0.88480 0.48440 0.62670 0.36500
C 	C 	0.37860 0.63940 0.98850 0.39700
C 	C 	0.40210 0.53150 0.13060 0.37100
C 	C 	0.42100 0.47060 0.14970 -0.13100
C 	C 	0.40840 0.47380 0.19020 0.04300
C 	C 	0.43320 0.42260 0.21190 -0.10500
C 	C 	0.46970 0.36930 0.19250 0.04500
C 	C 	0.47890 0.36530 0.15010 -0.11200
C 	C 	0.45510 0.41590 0.12870 0.04500
C 	C 	0.49600 0.31540 0.21740 0.03600
C 	C 	0.52260 0.33960 0.26630 -0.10300
C 	C 	0.54720 0.28980 0.28910 0.04100
C 	C 	0.54480 0.21860 0.26470 -0.10500
C 	C 	0.51860 0.19440 0.21650 0.04200
C 	C 	0.49370 0.24230 0.19250 -0.10200
C 	C 	0.57370 0.31410 0.34060 0.04200
C 	C 	0.53500 0.35980 0.36560 -0.10600
C 	C 	0.55820 0.37900 0.41310 0.05000
C 	C 	0.61880 0.35840 0.43730 -0.13700
C 	C 	0.65640 0.31160 0.41180 0.05200
C 	C 	0.63400 0.29140 0.36570 -0.11300
C 	C 	0.51430 0.11630 0.19170 0.03100
C 	C 	0.45480 0.07880 0.15180 -0.09100
C 	C 	0.44790 0.00490 0.13040 0.02600
C 	C 	0.49820 0.96740 0.14810 -0.10300
C 	C 	0.56020 0.00480 0.18740 0.02500
C 	C 	0.56660 0.07740 0.20850 -0.09500
C 	C 	0.60310 0.65690 0.10000 0.37400
C 	C 	0.66170 0.64710 0.07740 -0.12100
C 	C 	0.65220 0.58860 0.03730 0.03200
C 	C 	0.70410 0.58230 0.01470 -0.09000
C 	C 	0.76720 0.63500 0.03050 0.02500
C 	C 	0.77440 0.69460 0.07170 -0.09400
C 	C 	0.72270 0.69850 0.09410 0.03600
C 	C 	0.82230 0.63070 0.00660 0.04900
C 	C 	0.80200 0.60420 0.95930 -0.11100
C 	C 	0.85240 0.60220 0.93470 0.04200
C 	C 	0.92400 0.62740 0.95900 -0.10300
C 	C 	0.94660 0.65480 0.00800 0.03700
C 	C 	0.89450 0.65510 0.02990 -0.10800
C 	C 	0.02550 0.67770 0.03320 0.04900
C 	C 	0.07230 0.71750 0.01810 -0.11200
C 	C 	0.14480 0.73220 0.03940 0.05000
C 	C 	0.17210 0.70910 0.07890 -0.14800
C 	C 	0.12690 0.67210 0.09370 0.07700
C 	C 	0.05610 0.65750 0.07320 -0.12900
C 	C 	0.83070 0.57650 0.88350 0.04100
C 	C 	0.78760 0.50660 0.86070 -0.10600
C 	C 	0.76510 0.48090 0.81270 0.05300
C 	C 	0.78310 0.52090 0.78690 -0.12900
C 	C 	0.82470 0.58890 0.80880 0.03700
C 	C 	0.85010 0.61670 0.85840 -0.10300
C 	C 	0.75920 0.49960 0.73540 0.39400
C 	C 	0.25150 0.72230 0.09680 0.37500
C 	C 	0.48440 0.88480 0.12670 0.36500
C 	C 	0.63940 0.37860 0.48850 0.39800
O 	O 	0.70013 0.43595 0.61230 -0.96300
O 	O 	0.71487 0.60993 0.63154 -0.50700
O 	O 	0.60483 0.54917 0.58394 -0.50200
O 	O 	0.52574 0.41280 0.59091 -0.48400
O 	O 	0.58395 0.37925 0.65241 -0.50600
O 	O 	0.43085 0.73335 0.21723 -0.49400
O 	O 	0.54433 0.76587 0.21528 -0.51500
O 	O 	0.69581 0.28061 0.63007 -0.49800
O 	O 	0.75809 0.29011 0.58082 -0.49200
O 	O 	0.85617 0.42983 0.59365 -0.51500
O 	O 	0.85334 0.53454 0.64792 -0.49800
O 	O 	0.40513 0.59657 0.00806 -0.52500
O 	O 	0.36705 0.70395 0.00877 -0.50600
O 	O 	0.43595 0.70013 0.11230 -0.96300
O 	O 	0.60993 0.71487 0.13154 -0.50700
O 	O 	0.54917 0.60483 0.08394 -0.50200
O 	O 	0.41280 0.52574 0.09091 -0.48400
O 	O 	0.37925 0.58395 0.15241 -0.50600
O 	O 	0.73335 0.43085 0.71723 -0.49400
O 	O 	0.76587 0.54433 0.71528 -0.51500
O 	O 	0.28061 0.69581 0.13007 -0.49800
O 	O 	0.29011 0.75809 0.08082 -0.49200
O 	O 	0.42983 0.85617 0.09365 -0.51500
O 	O 	0.53454 0.85334 0.14792 -0.49800
O 	O 	0.59657 0.40513 0.50806 -0.52500
O 	O 	0.70395 0.36705 0.50877 -0.50600
Zn	Zn	0.46864 0.24504 0.84980 1.21200
Zn	Zn	0.55379 0.39121 0.92686 1.21000
Zn	Zn	0.62057 0.31613 0.84785 1.21300
Zn	Zn	0.61189 0.24407 0.92649 1.21000
Zn	Zn	0.24504 0.46864 0.34980 1.21200
Zn	Zn	0.39121 0.55379 0.42686 1.21000
Zn	Zn	0.31613 0.62057 0.34785 1.21300
Zn	Zn	0.24407 0.61189 0.42649 1.21000
H 	H 	0.61680 0.49020 0.79660 0.03000
H 	H 	0.57500 0.57600 0.75960 0.06500
H 	H 	0.49850 0.67230 0.86410 0.06900
H 	H 	0.53820 0.58640 0.90030 0.02600
H 	H 	0.47660 0.61140 0.71690 0.06700
H 	H 	0.43870 0.81490 0.71910 0.06500
H 	H 	0.52460 0.77380 0.84030 0.06400
H 	H 	0.50620 0.62320 0.65000 0.06800
H 	H 	0.46910 0.59230 0.57030 0.03300
H 	H 	0.30250 0.70530 0.57250 0.02300
H 	H 	0.33990 0.73970 0.65060 0.06700
H 	H 	0.58100 0.89480 0.86030 0.06100
H 	H 	0.59160 0.01900 0.89640 0.03500
H 	H 	0.40310 0.02130 0.80130 0.03400
H 	H 	0.39300 0.89880 0.76520 0.06000
H 	H 	0.39030 0.44690 0.97420 0.03200
H 	H 	0.30270 0.45790 0.01200 0.06000
H 	H 	0.18420 0.26840 0.91670 0.06100
H 	H 	0.27060 0.26280 0.87850 0.03200
H 	H 	0.24790 0.41330 0.05720 0.07200
H 	H 	0.04100 0.37340 0.05710 0.06600
H 	H 	0.09090 0.32710 0.93730 0.06600
H 	H 	0.94740 0.26560 0.00750 0.06600
H 	H 	0.82350 0.24290 0.97170 0.02500
H 	H 	0.85340 0.34380 0.88040 0.01600
H 	H 	0.97440 0.36680 0.91460 0.07400
H 	H 	0.22570 0.52210 0.12190 0.07000
H 	H 	0.26340 0.56580 0.20240 0.02800
H 	H 	0.16340 0.38240 0.20910 0.03100
H 	H 	0.11990 0.33730 0.12670 0.06500
H 	H 	0.49020 0.61680 0.29660 0.03000
H 	H 	0.57600 0.57500 0.25960 0.06500
H 	H 	0.67230 0.49850 0.36410 0.06900
H 	H 	0.58640 0.53820 0.40030 0.02600
H 	H 	0.61140 0.47660 0.21690 0.06700
H 	H 	0.81490 0.43870 0.21910 0.06500
H 	H 	0.77380 0.52460 0.34030 0.06400
H 	H 	0.62320 0.50620 0.15000 0.06800
H 	H 	0.59230 0.46910 0.07030 0.03300
H 	H 	0.70530 0.30250 0.07250 0.02300
H 	H 	0.73970 0.33990 0.15060 0.06700
H 	H 	0.89480 0.58100 0.36030 0.06100
H 	H 	0.01900 0.59160 0.39640 0.03500
H 	H 	0.02130 0.40310 0.30130 0.03400
H 	H 	0.89880 0.39300 0.26520 0.06000
H 	H 	0.44690 0.39030 0.47420 0.03300
H 	H 	0.45790 0.30270 0.51200 0.05900
H 	H 	0.26840 0.18420 0.41670 0.06100
H 	H 	0.26280 0.27060 0.37850 0.03200
H 	H 	0.41330 0.24790 0.55720 0.07200
H 	H 	0.37340 0.04100 0.55710 0.06600
H 	H 	0.32710 0.09090 0.43730 0.06600
H 	H 	0.26560 0.94740 0.50750 0.06700
H 	H 	0.24290 0.82350 0.47170 0.02500
H 	H 	0.34380 0.85340 0.38040 0.01600
H 	H 	0.36680 0.97440 0.41460 0.07400
H 	H 	0.52210 0.22570 0.62190 0.07000
H 	H 	0.56580 0.26340 0.70240 0.02800
H 	H 	0.38240 0.16340 0.70910 0.03200
H 	H 	0.33730 0.11990 0.62670 0.06500
C 	C 	0.59790 0.46850 0.86940 0.37100
C 	C 	0.57900 0.52940 0.85030 -0.13100
C 	C 	0.59160 0.52620 0.80980 0.04300
C 	C 	0.56680 0.57740 0.78810 -0.10500
C 	C 	0.53030 0.63070 0.80750 0.04500
C 	C 	0.52110 0.63470 0.84990 -0.11200
C 	C 	0.54490 0.58410 0.87130 0.04500
C 	C 	0.50400 0.68460 0.78260 0.03600
C 	C 	0.47740 0.66040 0.73370 -0.10300
C 	C 	0.45280 0.71020 0.71090 0.04100
C 	C 	0.45520 0.78140 0.73530 -0.10500
C 	C 	0.48140 0.80560 0.78350 0.04200
C 	C 	0.50630 0.75770 0.80750 -0.10200
C 	C 	0.42630 0.68590 0.65940 0.04200
C 	C 	0.46500 0.64020 0.63440 -0.10600
C 	C 	0.44180 0.62100 0.58690 0.05000
C 	C 	0.38120 0.64160 0.56270 -0.13700
C 	C 	0.34360 0.68840 0.58820 0.05200
C 	C 	0.36600 0.70860 0.63430 -0.11300
C 	C 	0.48570 0.88370 0.80830 0.03100
C 	C 	0.54520 0.92120 0.84820 -0.09100
C 	C 	0.55210 0.99510 0.86960 0.02600
C 	C 	0.50180 0.03260 0.85190 -0.10300
C 	C 	0.43980 0.99520 0.81260 0.02500
C 	C 	0.43340 0.92260 0.79150 -0.09500
C 	C 	0.39690 0.34310 0.90000 0.37400
C 	C 	0.33830 0.35290 0.92260 -0.12100
C 	C 	0.34780 0.41140 0.96270 0.03200
C 	C 	0.29590 0.41770 0.98530 -0.09000
C 	C 	0.23280 0.36500 0.96950 0.02500
C 	C 	0.22560 0.30540 0.92830 -0.09400
C 	C 	0.27730 0.30150 0.90590 0.03600
C 	C 	0.17770 0.36930 0.99340 0.04900
C 	C 	0.19800 0.39580 0.04070 -0.11100
C 	C 	0.14760 0.39780 0.06530 0.04200
C 	C 	0.07600 0.37260 0.04100 -0.10300
C 	C 	0.05340 0.34520 0.99200 0.03700
C 	C 	0.10550 0.34490 0.97010 -0.10800
C 	C 	0.97450 0.32230 0.96680 0.04900
C 	C 	0.92770 0.28250 0.98190 -0.11200
C 	C 	0.85520 0.26780 0.96060 0.05000
C 	C 	0.82790 0.29090 0.92110 -0.14800
C 	C 	0.87310 0.32790 0.90630 0.07700
C 	C 	0.94390 0.34250 0.92680 -0.12900
C 	C 	0.16930 0.42350 0.11650 0.04100
C 	C 	0.21240 0.49340 0.13930 -0.10600
C 	C 	0.23490 0.51910 0.18730 0.05300
C 	C 	0.21690 0.47910 0.21310 -0.12900
C 	C 	0.17530 0.41110 0.19120 0.03700
C 	C 	0.14990 0.38330 0.14160 -0.10300
C 	C 	0.24080 0.50040 0.26460 0.39400
C 	C 	0.74850 0.27770 0.90320 0.37500
C 	C 	0.51560 0.11520 0.87330 0.36500
C 	C 	0.36060 0.62140 0.51150 0.39800
C 	C 	0.46850 0.59790 0.36940 0.37100
C 	C 	0.52940 0.57900 0.35030 -0.13100
C 	C 	0.52620 0.59160 0.30980 0.04300
C 	C 	0.57740 0.56680 0.28810 -0.10500
C 	C 	0.63070 0.53030 0.30750 0.04500
C 	C 	0.63470 0.52110 0.34990 -0.11200
C 	C 	0.58410 0.54490 0.37130 0.04500
C 	C 	0.68460 0.50400 0.28260 0.03600
C 	C 	0.66040 0.47740 0.23370 -0.10300
C 	C 	0.71020 0.45280 0.21090 0.04100
C 	C 	0.78140 0.45520 0.23530 -0.10500
C 	C 	0.80560 0.48140 0.28350 0.04200
C 	C 	0.75770 0.50630 0.30750 -0.10200
C 	C 	0.68590 0.42630 0.15940 0.04200
C 	C 	0.64020 0.46500 0.13440 -0.10600
C 	C 	0.62100 0.44180 0.08690 0.05000
C 	C 	0.64160 0.38120 0.06270 -0.13700
C 	C 	0.68840 0.34360 0.08820 0.05200
C 	C 	0.70860 0.36600 0.13430 -0.11300
C 	C 	0.88370 0.48570 0.30830 0.03100
C 	C 	0.92120 0.54520 0.34820 -0.09200
C 	C 	0.99510 0.55210 0.36960 0.02600
C 	C 	0.03260 0.50180 0.35190 -0.10400
C 	C 	0.99520 0.43980 0.31260 0.02500
C 	C 	0.92260 0.43340 0.29150 -0.09500
C 	C 	0.34310 0.39690 0.40000 0.37300
C 	C 	0.35290 0.33830 0.42260 -0.12100
C 	C 	0.41140 0.34780 0.46270 0.03200
C 	C 	0.41770 0.29590 0.48530 -0.08900
C 	C 	0.36500 0.23280 0.46950 0.02500
C 	C 	0.30540 0.22560 0.42830 -0.09300
C 	C 	0.30150 0.27730 0.40590 0.03600
C 	C 	0.36930 0.17770 0.49340 0.05000
C 	C 	0.39580 0.19800 0.54070 -0.11200
C 	C 	0.39780 0.14760 0.56530 0.04300
C 	C 	0.37260 0.07600 0.54100 -0.10400
C 	C 	0.34520 0.05340 0.49200 0.03800
C 	C 	0.34490 0.10550 0.47010 -0.10800
C 	C 	0.32230 0.97450 0.46680 0.04900
C 	C 	0.28250 0.92770 0.48190 -0.11300
C 	C 	0.26780 0.85520 0.46060 0.05000
C 	C 	0.29090 0.82790 0.42110 -0.14800
C 	C 	0.32790 0.87310 0.40630 0.07700
C 	C 	0.34250 0.94390 0.42680 -0.12900
C 	C 	0.42350 0.16930 0.61650 0.04100
C 	C 	0.49340 0.21240 0.63930 -0.10500
C 	C 	0.51910 0.23490 0.68730 0.05300
C 	C 	0.47910 0.21690 0.71310 -0.12900
C 	C 	0.41110 0.17530 0.69120 0.03700
C 	C 	0.38330 0.14990 0.64160 -0.10200
C 	C 	0.50040 0.24080 0.76460 0.39400
C 	C 	0.27770 0.74850 0.40320 0.37500
C 	C 	0.11520 0.51560 0.37330 0.36500
C 	C 	0.62140 0.36060 0.01150 0.39700
O 	O 	0.56405 0.29987 0.88770 -0.96300
O 	O 	0.39007 0.28513 0.86846 -0.50700
O 	O 	0.45083 0.39517 0.91606 -0.50200
O 	O 	0.58720 0.47426 0.90909 -0.48400
O 	O 	0.62075 0.41605 0.84759 -0.50600
O 	O 	0.26665 0.56915 0.28277 -0.49400
O 	O 	0.23413 0.45567 0.28472 -0.51500
O 	O 	0.71939 0.30419 0.86993 -0.49800
O 	O 	0.70989 0.24191 0.91918 -0.49200
O 	O 	0.57017 0.14383 0.90635 -0.51500
O 	O 	0.46546 0.14666 0.85208 -0.49800
O 	O 	0.40343 0.59487 0.49194 -0.52500
O 	O 	0.29605 0.63295 0.49123 -0.50600
O 	O 	0.29987 0.56405 0.38770 -0.96300
O 	O 	0.28513 0.39007 0.36846 -0.50700
O 	O 	0.39517 0.45083 0.41606 -0.50200
O 	O 	0.47426 0.58720 0.40909 -0.48400
O 	O 	0.41605 0.62075 0.34759 -0.50600
O 	O 	0.56915 0.26665 0.78277 -0.49400
O 	O 	0.45567 0.23413 0.78472 -0.51500
O 	O 	0.30419 0.71939 0.36993 -0.49800
O 	O 	0.24191 0.70989 0.41918 -0.49200
O 	O 	0.14383 0.57017 0.40635 -0.51500
O 	O 	0.14666 0.46546 0.35208 -0.49800
O 	O 	0.59487 0.40343 0.99194 -0.52500
O 	O 	0.63295 0.29605 0.99123 -0.50600
