data_crystal

_cell_length_a 37.02300
_cell_length_b 37.02300
_cell_length_c 29.89600
_cell_angle_alpha 90.00000
_cell_angle_beta  90.00000
_cell_angle_gamma 120.00000

_symmetry_space_group_name_	'P 1'
_symmetry_space_group_name_H-M	'P 1'

loop_
_symmetry_equiv_pos_as_xyz
  x,y,z

loop_
_atom_site_label
_atom_site_type_symbol
_atom_site_fract_x
_atom_site_fract_y
_atom_site_fract_z
_atom_site_charge
Zn	Zn	0.37547 0.65418 0.72335 1.10600
Zn	Zn	0.16291 0.37182 0.29486 1.19900
Zn	Zn	0.18905 0.30356 0.27877 1.08900
O 	O 	0.23140 0.35570 0.32660 -0.64300
O 	O 	0.18360 0.36580 0.34890 -0.70700
O 	O 	0.18130 0.32530 0.36130 -0.49000
O 	O 	0.20290 0.31930 0.34250 -0.29700
O 	O 	0.41140 0.66210 0.77080 -0.26500
O 	O 	0.35810 0.60290 0.70400 -0.95000
O 	O 	0.32460 0.61580 0.66140 -0.76600
O 	O 	0.29600 0.57900 0.69000 -0.54600
O 	O 	0.12300 0.36580 0.26270 -1.19200
O 	O 	0.10760 0.35320 0.30810 -0.35200
O 	O 	0.08720 0.30220 0.32070 -0.40200
O 	O 	0.23710 0.30510 0.24660 -0.49100
O 	O 	0.12850 0.23400 0.21880 -0.82200
O 	O 	0.14420 0.24090 0.27320 -0.64900
O 	O 	0.18060 0.42330 0.24920 -0.31700
O 	O 	0.19390 0.42870 0.27720 -0.39000
C 	C 	0.27090 0.38610 0.54130 -0.00500
C 	C 	0.27930 0.42570 0.55570 0.01400
C 	C 	0.29620 0.42920 0.60160 -0.01000
C 	C 	0.29940 0.40320 0.62950 0.01500
C 	C 	0.29200 0.36360 0.60930 -0.00300
C 	C 	0.27560 0.35280 0.56380 0.01200
C 	C 	0.29990 0.46600 0.62310 0.02900
C 	C 	0.28020 0.48990 0.61020 -0.02900
C 	C 	0.29260 0.52860 0.63430 0.12400
C 	C 	0.32030 0.55100 0.67110 -0.20100
C 	C 	0.33770 0.52440 0.67870 0.12400
C 	C 	0.32970 0.48510 0.65930 -0.03000
C 	C 	0.28430 0.32210 0.67890 -0.01500
C 	C 	0.32160 0.28230 0.63720 0.09800
C 	C 	0.29810 0.29760 0.61300 -0.01500
C 	C 	0.30590 0.33510 0.63620 0.01800
C 	C 	0.24620 0.36990 0.49580 0.02400
C 	C 	0.23140 0.32990 0.47400 -0.02600
C 	C 	0.21650 0.32200 0.42820 0.12800
C 	C 	0.22600 0.36000 0.40460 -0.23400
C 	C 	0.21650 0.38690 0.43150 0.09200
C 	C 	0.24830 0.40170 0.46590 -0.01300
C 	C 	0.20870 0.35590 0.35720 1.03900
C 	C 	0.33430 0.59580 0.68450 1.29700
C 	C 	0.07860 0.32840 0.29070 0.65100
C 	C 	0.24980 0.55320 0.27200 -0.03100
C 	C 	0.22560 0.51020 0.26020 0.12100
C 	C 	0.29610 0.29680 0.70570 0.09000
C 	C 	0.31530 0.27510 0.68470 -0.14900
Zn	Zn	0.15468 0.29069 0.19846 1.11900
Zn	Zn	0.22195 0.36196 0.26189 1.35800
Zn	Zn	0.34582 0.72129 0.72335 1.10500
Zn	Zn	0.62818 0.79109 0.29486 1.19800
Zn	Zn	0.69644 0.88549 0.27877 1.08800
O 	O 	0.64430 0.87570 0.32660 -0.64400
O 	O 	0.63420 0.81780 0.34890 -0.70800
O 	O 	0.67470 0.85600 0.36130 -0.49100
O 	O 	0.68070 0.88360 0.34250 -0.29700
O 	O 	0.33790 0.74930 0.77080 -0.26500
O 	O 	0.39710 0.75520 0.70400 -0.95000
O 	O 	0.38420 0.70880 0.66140 -0.76600
O 	O 	0.42100 0.71700 0.69000 -0.54600
O 	O 	0.63420 0.75720 0.26270 -1.19200
O 	O 	0.64680 0.75440 0.30810 -0.35200
O 	O 	0.69780 0.78500 0.32070 -0.40200
O 	O 	0.69490 0.93200 0.24660 -0.49100
O 	O 	0.76600 0.89450 0.21880 -0.82200
O 	O 	0.75910 0.90330 0.27320 -0.64900
O 	O 	0.57670 0.75730 0.24920 -0.31700
O 	O 	0.57130 0.76520 0.27720 -0.39000
C 	C 	0.61390 0.88480 0.54130 -0.00500
C 	C 	0.57430 0.85360 0.55570 0.01400
C 	C 	0.57080 0.86700 0.60160 -0.01000
C 	C 	0.59680 0.89620 0.62950 0.01500
C 	C 	0.63640 0.92840 0.60930 -0.00300
C 	C 	0.64720 0.92280 0.56380 0.01200
C 	C 	0.53400 0.83390 0.62310 0.02900
C 	C 	0.51010 0.79030 0.61020 -0.02900
C 	C 	0.47140 0.76400 0.63430 0.12400
C 	C 	0.44900 0.76930 0.67110 -0.20100
C 	C 	0.47560 0.81330 0.67870 0.12400
C 	C 	0.51490 0.84460 0.65930 -0.03000
C 	C 	0.67790 0.96220 0.67890 -0.01500
C 	C 	0.71770 0.03930 0.63720 0.09800
C 	C 	0.70240 0.00050 0.61300 -0.01500
C 	C 	0.66490 0.97080 0.63620 0.01800
C 	C 	0.63010 0.87630 0.49580 0.02400
C 	C 	0.67010 0.90150 0.47400 -0.02600
C 	C 	0.67800 0.89450 0.42820 0.12800
C 	C 	0.64000 0.86600 0.40460 -0.23400
C 	C 	0.61310 0.82960 0.43150 0.09200
C 	C 	0.59830 0.84660 0.46590 -0.01300
C 	C 	0.64410 0.85280 0.35720 1.03900
C 	C 	0.40420 0.73850 0.68450 1.29700
C 	C 	0.67160 0.75020 0.29070 0.65100
C 	C 	0.44680 0.69660 0.27200 -0.03100
C 	C 	0.48980 0.71540 0.26020 0.12100
C 	C 	0.70320 0.99930 0.70570 0.08900
C 	C 	0.72490 0.04020 0.68470 -0.14900
Zn	Zn	0.70931 0.86399 0.19846 1.11900
Zn	Zn	0.63804 0.85999 0.26189 1.35800
Zn	Zn	0.27871 0.62453 0.72335 1.10500
Zn	Zn	0.20891 0.83709 0.29486 1.19800
Zn	Zn	0.11451 0.81095 0.27877 1.08800
O 	O 	0.12430 0.76860 0.32660 -0.64400
O 	O 	0.18220 0.81640 0.34890 -0.70800
O 	O 	0.14400 0.81870 0.36130 -0.49100
O 	O 	0.11640 0.79710 0.34250 -0.29700
O 	O 	0.25070 0.58860 0.77080 -0.26500
O 	O 	0.24480 0.64190 0.70400 -0.95000
O 	O 	0.29120 0.67540 0.66140 -0.76600
O 	O 	0.28300 0.70400 0.69000 -0.54600
O 	O 	0.24280 0.87700 0.26270 -1.19200
O 	O 	0.24560 0.89240 0.30810 -0.35200
O 	O 	0.21500 0.91280 0.32070 -0.40200
O 	O 	0.06800 0.76290 0.24660 -0.49100
O 	O 	0.10550 0.87150 0.21880 -0.82200
O 	O 	0.09670 0.85580 0.27320 -0.64900
O 	O 	0.24270 0.81940 0.24920 -0.31700
O 	O 	0.23480 0.80610 0.27720 -0.39000
C 	C 	0.11520 0.72910 0.54130 -0.00500
C 	C 	0.14640 0.72070 0.55570 0.01400
C 	C 	0.13300 0.70380 0.60160 -0.01000
C 	C 	0.10380 0.70060 0.62950 0.01500
C 	C 	0.07160 0.70800 0.60930 -0.00300
C 	C 	0.07720 0.72440 0.56380 0.01200
C 	C 	0.16610 0.70010 0.62310 0.02900
C 	C 	0.20970 0.71980 0.61020 -0.02900
C 	C 	0.23600 0.70740 0.63430 0.12400
C 	C 	0.23070 0.67970 0.67110 -0.20100
C 	C 	0.18670 0.66230 0.67870 0.12400
C 	C 	0.15540 0.67030 0.65930 -0.03000
C 	C 	0.03780 0.71570 0.67890 -0.01500
C 	C 	0.96070 0.67840 0.63720 0.09800
C 	C 	0.99950 0.70190 0.61300 -0.01500
C 	C 	0.02920 0.69410 0.63620 0.01800
C 	C 	0.12370 0.75380 0.49580 0.02400
C 	C 	0.09850 0.76860 0.47400 -0.02600
C 	C 	0.10550 0.78350 0.42820 0.12800
C 	C 	0.13400 0.77400 0.40460 -0.23400
C 	C 	0.17040 0.78350 0.43150 0.09200
C 	C 	0.15340 0.75170 0.46590 -0.01300
C 	C 	0.14720 0.79130 0.35720 1.03900
C 	C 	0.26150 0.66570 0.68450 1.29700
C 	C 	0.24980 0.92140 0.29070 0.65100
C 	C 	0.30340 0.75020 0.27200 -0.03100
C 	C 	0.28460 0.77440 0.26020 0.12100
C 	C 	0.00070 0.70390 0.70570 0.08900
C 	C 	0.95980 0.68470 0.68470 -0.14900
Zn	Zn	0.13601 0.84532 0.19846 1.11900
Zn	Zn	0.14001 0.77805 0.26189 1.35800
Zn	Zn	0.34582 0.62453 0.77665 1.10500
Zn	Zn	0.62818 0.83709 0.20514 1.19800
Zn	Zn	0.69644 0.81095 0.22123 1.08800
O 	O 	0.64430 0.76860 0.17340 -0.64400
O 	O 	0.63420 0.81640 0.15110 -0.70800
O 	O 	0.67470 0.81870 0.13870 -0.49100
O 	O 	0.68070 0.79710 0.15750 -0.29700
O 	O 	0.33790 0.58860 0.72920 -0.26500
O 	O 	0.39710 0.64190 0.79600 -0.95000
O 	O 	0.38420 0.67540 0.83860 -0.76600
O 	O 	0.42100 0.70400 0.81000 -0.54600
O 	O 	0.63420 0.87700 0.23730 -1.19200
O 	O 	0.64680 0.89240 0.19190 -0.35200
O 	O 	0.69780 0.91280 0.17930 -0.40200
O 	O 	0.69490 0.76290 0.25340 -0.49100
O 	O 	0.76600 0.87150 0.28120 -0.82200
O 	O 	0.75910 0.85580 0.22680 -0.64900
O 	O 	0.57670 0.81940 0.25080 -0.31700
O 	O 	0.57130 0.80610 0.22280 -0.39000
C 	C 	0.61390 0.72910 0.95870 -0.00500
C 	C 	0.57430 0.72070 0.94430 0.01400
C 	C 	0.57080 0.70380 0.89840 -0.01000
C 	C 	0.59680 0.70060 0.87050 0.01500
C 	C 	0.63640 0.70800 0.89070 -0.00300
C 	C 	0.64720 0.72440 0.93620 0.01200
C 	C 	0.53400 0.70010 0.87690 0.02900
C 	C 	0.51010 0.71980 0.88980 -0.02900
C 	C 	0.47140 0.70740 0.86570 0.12400
C 	C 	0.44900 0.67970 0.82890 -0.20100
C 	C 	0.47560 0.66230 0.82130 0.12400
C 	C 	0.51490 0.67030 0.84070 -0.03000
C 	C 	0.67790 0.71570 0.82110 -0.01500
C 	C 	0.71770 0.67840 0.86280 0.09800
C 	C 	0.70240 0.70190 0.88700 -0.01500
C 	C 	0.66490 0.69410 0.86380 0.01800
C 	C 	0.63010 0.75380 0.00420 0.02400
C 	C 	0.67010 0.76860 0.02600 -0.02600
C 	C 	0.67800 0.78350 0.07180 0.12800
C 	C 	0.64000 0.77400 0.09540 -0.23400
C 	C 	0.61310 0.78350 0.06850 0.09200
C 	C 	0.59830 0.75170 0.03410 -0.01300
C 	C 	0.64410 0.79130 0.14280 1.03900
C 	C 	0.40420 0.66570 0.81550 1.29700
C 	C 	0.67160 0.92140 0.20930 0.65100
C 	C 	0.44680 0.75020 0.22800 -0.03100
C 	C 	0.48980 0.77440 0.23980 0.12100
C 	C 	0.70320 0.70390 0.79430 0.09000
C 	C 	0.72490 0.68470 0.81530 -0.14900
Zn	Zn	0.70931 0.84532 0.30154 1.11900
Zn	Zn	0.63804 0.77805 0.23811 1.35800
Zn	Zn	0.27871 0.65418 0.77665 1.10500
Zn	Zn	0.20891 0.37182 0.20514 1.19800
Zn	Zn	0.11451 0.30356 0.22123 1.08800
O 	O 	0.12430 0.35570 0.17340 -0.64400
O 	O 	0.18220 0.36580 0.15110 -0.70800
O 	O 	0.14400 0.32530 0.13870 -0.49100
O 	O 	0.11640 0.31930 0.15750 -0.29700
O 	O 	0.25070 0.66210 0.72920 -0.26500
O 	O 	0.24480 0.60290 0.79600 -0.95000
O 	O 	0.29120 0.61580 0.83860 -0.76600
O 	O 	0.28300 0.57900 0.81000 -0.54600
O 	O 	0.24280 0.36580 0.23730 -1.19200
O 	O 	0.24560 0.35320 0.19190 -0.35200
O 	O 	0.21500 0.30220 0.17930 -0.40200
O 	O 	0.06800 0.30510 0.25340 -0.49100
O 	O 	0.10550 0.23400 0.28120 -0.82200
O 	O 	0.09670 0.24090 0.22680 -0.64900
O 	O 	0.24270 0.42330 0.25080 -0.31700
O 	O 	0.23480 0.42870 0.22280 -0.39000
C 	C 	0.11520 0.38610 0.95870 -0.00500
C 	C 	0.14640 0.42570 0.94430 0.01400
C 	C 	0.13300 0.42920 0.89840 -0.01000
C 	C 	0.10380 0.40320 0.87050 0.01500
C 	C 	0.07160 0.36360 0.89070 -0.00300
C 	C 	0.07720 0.35280 0.93620 0.01200
C 	C 	0.16610 0.46600 0.87690 0.02900
C 	C 	0.20970 0.48990 0.88980 -0.02900
C 	C 	0.23600 0.52860 0.86570 0.12400
C 	C 	0.23070 0.55100 0.82890 -0.20100
C 	C 	0.18670 0.52440 0.82130 0.12400
C 	C 	0.15540 0.48510 0.84070 -0.03000
C 	C 	0.03780 0.32210 0.82110 -0.01500
C 	C 	0.96070 0.28230 0.86280 0.09800
C 	C 	0.99950 0.29760 0.88700 -0.01500
C 	C 	0.02920 0.33510 0.86380 0.01800
C 	C 	0.12370 0.36990 0.00420 0.02400
C 	C 	0.09850 0.32990 0.02600 -0.02600
C 	C 	0.10550 0.32200 0.07180 0.12800
C 	C 	0.13400 0.36000 0.09540 -0.23400
C 	C 	0.17040 0.38690 0.06850 0.09200
C 	C 	0.15340 0.40170 0.03410 -0.01300
C 	C 	0.14720 0.35590 0.14280 1.03900
C 	C 	0.26150 0.59580 0.81550 1.29700
C 	C 	0.24980 0.32840 0.20930 0.65100
C 	C 	0.30340 0.55320 0.22800 -0.03100
C 	C 	0.28460 0.51020 0.23980 0.12100
C 	C 	0.00070 0.29680 0.79430 0.08900
C 	C 	0.95980 0.27510 0.81530 -0.14900
Zn	Zn	0.13601 0.29069 0.30154 1.11900
Zn	Zn	0.14001 0.36196 0.23811 1.35800
Zn	Zn	0.37547 0.72129 0.77665 1.10500
Zn	Zn	0.16291 0.79109 0.20514 1.19800
Zn	Zn	0.18905 0.88549 0.22123 1.08800
O 	O 	0.23140 0.87570 0.17340 -0.64400
O 	O 	0.18360 0.81780 0.15110 -0.70800
O 	O 	0.18130 0.85600 0.13870 -0.49100
O 	O 	0.20290 0.88360 0.15750 -0.29700
O 	O 	0.41140 0.74930 0.72920 -0.26500
O 	O 	0.35810 0.75520 0.79600 -0.95000
O 	O 	0.32460 0.70880 0.83860 -0.76600
O 	O 	0.29600 0.71700 0.81000 -0.54600
O 	O 	0.12300 0.75720 0.23730 -1.19200
O 	O 	0.10760 0.75440 0.19190 -0.35200
O 	O 	0.08720 0.78500 0.17930 -0.40200
O 	O 	0.23710 0.93200 0.25340 -0.49100
O 	O 	0.12850 0.89450 0.28120 -0.82200
O 	O 	0.14420 0.90330 0.22680 -0.64900
O 	O 	0.18060 0.75730 0.25080 -0.31700
O 	O 	0.19390 0.76520 0.22280 -0.39000
C 	C 	0.27090 0.88480 0.95870 -0.00500
C 	C 	0.27930 0.85360 0.94430 0.01400
C 	C 	0.29620 0.86700 0.89840 -0.01000
C 	C 	0.29940 0.89620 0.87050 0.01500
C 	C 	0.29200 0.92840 0.89070 -0.00300
C 	C 	0.27560 0.92280 0.93620 0.01200
C 	C 	0.29990 0.83390 0.87690 0.02900
C 	C 	0.28020 0.79030 0.88980 -0.02900
C 	C 	0.29260 0.76400 0.86570 0.12400
C 	C 	0.32030 0.76930 0.82890 -0.20100
C 	C 	0.33770 0.81330 0.82130 0.12400
C 	C 	0.32970 0.84460 0.84070 -0.03000
C 	C 	0.28430 0.96220 0.82110 -0.01500
C 	C 	0.32160 0.03930 0.86280 0.09800
C 	C 	0.29810 0.00050 0.88700 -0.01500
C 	C 	0.30590 0.97080 0.86380 0.01800
C 	C 	0.24620 0.87630 0.00420 0.02400
C 	C 	0.23140 0.90150 0.02600 -0.02600
C 	C 	0.21650 0.89450 0.07180 0.12800
C 	C 	0.22600 0.86600 0.09540 -0.23400
C 	C 	0.21650 0.82960 0.06850 0.09200
C 	C 	0.24830 0.84660 0.03410 -0.01300
C 	C 	0.20870 0.85280 0.14280 1.03900
C 	C 	0.33430 0.73850 0.81550 1.29700
C 	C 	0.07860 0.75020 0.20930 0.65100
C 	C 	0.24980 0.69660 0.22800 -0.03100
C 	C 	0.22560 0.71540 0.23980 0.12100
C 	C 	0.29610 0.99930 0.79430 0.08900
C 	C 	0.31530 0.04020 0.81530 -0.14900
Zn	Zn	0.15468 0.86399 0.30154 1.11900
Zn	Zn	0.22195 0.85999 0.23811 1.35800
Zn	Zn	0.62453 0.34582 0.27665 1.10500
Zn	Zn	0.83709 0.62818 0.70514 1.19800
Zn	Zn	0.81095 0.69644 0.72123 1.08800
O 	O 	0.76860 0.64430 0.67340 -0.64400
O 	O 	0.81640 0.63420 0.65110 -0.70800
O 	O 	0.81870 0.67470 0.63870 -0.49100
O 	O 	0.79710 0.68070 0.65750 -0.29700
O 	O 	0.58860 0.33790 0.22920 -0.26500
O 	O 	0.64190 0.39710 0.29600 -0.95000
O 	O 	0.67540 0.38420 0.33860 -0.76600
O 	O 	0.70400 0.42100 0.31000 -0.54600
O 	O 	0.87700 0.63420 0.73730 -1.19200
O 	O 	0.89240 0.64680 0.69190 -0.35200
O 	O 	0.91280 0.69780 0.67930 -0.40200
O 	O 	0.76290 0.69490 0.75340 -0.49100
O 	O 	0.87150 0.76600 0.78120 -0.82200
O 	O 	0.85580 0.75910 0.72680 -0.64900
O 	O 	0.81940 0.57670 0.75080 -0.31700
O 	O 	0.80610 0.57130 0.72280 -0.39000
C 	C 	0.72910 0.61390 0.45870 -0.00500
C 	C 	0.72070 0.57430 0.44430 0.01400
C 	C 	0.70380 0.57080 0.39840 -0.01000
C 	C 	0.70060 0.59680 0.37050 0.01500
C 	C 	0.70800 0.63640 0.39070 -0.00300
C 	C 	0.72440 0.64720 0.43620 0.01200
C 	C 	0.70010 0.53400 0.37690 0.02900
C 	C 	0.71980 0.51010 0.38980 -0.02900
C 	C 	0.70740 0.47140 0.36570 0.12400
C 	C 	0.67970 0.44900 0.32890 -0.20100
C 	C 	0.66230 0.47560 0.32130 0.12400
C 	C 	0.67030 0.51490 0.34070 -0.03000
C 	C 	0.71570 0.67790 0.32110 -0.01500
C 	C 	0.67840 0.71770 0.36280 0.09800
C 	C 	0.70190 0.70240 0.38700 -0.01500
C 	C 	0.69410 0.66490 0.36380 0.01800
C 	C 	0.75380 0.63010 0.50420 0.02400
C 	C 	0.76860 0.67010 0.52600 -0.02600
C 	C 	0.78350 0.67800 0.57180 0.12800
C 	C 	0.77400 0.64000 0.59540 -0.23400
C 	C 	0.78350 0.61310 0.56850 0.09200
C 	C 	0.75170 0.59830 0.53410 -0.01300
C 	C 	0.79130 0.64410 0.64280 1.03900
C 	C 	0.66570 0.40420 0.31550 1.29700
C 	C 	0.92140 0.67160 0.70930 0.65100
C 	C 	0.75020 0.44680 0.72800 -0.03100
C 	C 	0.77440 0.48980 0.73980 0.12100
C 	C 	0.70390 0.70320 0.29430 0.09000
C 	C 	0.68470 0.72490 0.31530 -0.14900
Zn	Zn	0.84532 0.70931 0.80154 1.11900
Zn	Zn	0.77805 0.63804 0.73811 1.35800
Zn	Zn	0.65418 0.27871 0.27665 1.10500
Zn	Zn	0.37182 0.20891 0.70514 1.19800
Zn	Zn	0.30356 0.11451 0.72123 1.08800
O 	O 	0.35570 0.12430 0.67340 -0.64400
O 	O 	0.36580 0.18220 0.65110 -0.70800
O 	O 	0.32530 0.14400 0.63870 -0.49100
O 	O 	0.31930 0.11640 0.65750 -0.29700
O 	O 	0.66210 0.25070 0.22920 -0.26500
O 	O 	0.60290 0.24480 0.29600 -0.95000
O 	O 	0.61580 0.29120 0.33860 -0.76600
O 	O 	0.57900 0.28300 0.31000 -0.54600
O 	O 	0.36580 0.24280 0.73730 -1.19200
O 	O 	0.35320 0.24560 0.69190 -0.35200
O 	O 	0.30220 0.21500 0.67930 -0.40200
O 	O 	0.30510 0.06800 0.75340 -0.49100
O 	O 	0.23400 0.10550 0.78120 -0.82200
O 	O 	0.24090 0.09670 0.72680 -0.64900
O 	O 	0.42330 0.24270 0.75080 -0.31700
O 	O 	0.42870 0.23480 0.72280 -0.39000
C 	C 	0.38610 0.11520 0.45870 -0.00500
C 	C 	0.42570 0.14640 0.44430 0.01400
C 	C 	0.42920 0.13300 0.39840 -0.01000
C 	C 	0.40320 0.10380 0.37050 0.01500
C 	C 	0.36360 0.07160 0.39070 -0.00300
C 	C 	0.35280 0.07720 0.43620 0.01200
C 	C 	0.46600 0.16610 0.37690 0.02900
C 	C 	0.48990 0.20970 0.38980 -0.02900
C 	C 	0.52860 0.23600 0.36570 0.12400
C 	C 	0.55100 0.23070 0.32890 -0.20100
C 	C 	0.52440 0.18670 0.32130 0.12400
C 	C 	0.48510 0.15540 0.34070 -0.03000
C 	C 	0.32210 0.03780 0.32110 -0.01500
C 	C 	0.28230 0.96070 0.36280 0.09800
C 	C 	0.29760 0.99950 0.38700 -0.01500
C 	C 	0.33510 0.02920 0.36380 0.01800
C 	C 	0.36990 0.12370 0.50420 0.02400
C 	C 	0.32990 0.09850 0.52600 -0.02600
C 	C 	0.32200 0.10550 0.57180 0.12800
C 	C 	0.36000 0.13400 0.59540 -0.23400
C 	C 	0.38690 0.17040 0.56850 0.09200
C 	C 	0.40170 0.15340 0.53410 -0.01300
C 	C 	0.35590 0.14720 0.64280 1.03900
C 	C 	0.59580 0.26150 0.31550 1.29700
C 	C 	0.32840 0.24980 0.70930 0.65100
C 	C 	0.55320 0.30340 0.72800 -0.03100
C 	C 	0.51020 0.28460 0.73980 0.12100
C 	C 	0.29680 0.00070 0.29430 0.08900
C 	C 	0.27510 0.95980 0.31530 -0.14900
Zn	Zn	0.29069 0.13601 0.80154 1.11900
Zn	Zn	0.36196 0.14001 0.73811 1.35800
Zn	Zn	0.72129 0.37547 0.27665 1.10500
Zn	Zn	0.79109 0.16291 0.70514 1.19800
Zn	Zn	0.88549 0.18905 0.72123 1.08800
O 	O 	0.87570 0.23140 0.67340 -0.64400
O 	O 	0.81780 0.18360 0.65110 -0.70800
O 	O 	0.85600 0.18130 0.63870 -0.49100
O 	O 	0.88360 0.20290 0.65750 -0.29700
O 	O 	0.74930 0.41140 0.22920 -0.26500
O 	O 	0.75520 0.35810 0.29600 -0.95000
O 	O 	0.70880 0.32460 0.33860 -0.76600
O 	O 	0.71700 0.29600 0.31000 -0.54600
O 	O 	0.75720 0.12300 0.73730 -1.19200
O 	O 	0.75440 0.10760 0.69190 -0.35200
O 	O 	0.78500 0.08720 0.67930 -0.40200
O 	O 	0.93200 0.23710 0.75340 -0.49100
O 	O 	0.89450 0.12850 0.78120 -0.82200
O 	O 	0.90330 0.14420 0.72680 -0.64900
O 	O 	0.75730 0.18060 0.75080 -0.31700
O 	O 	0.76520 0.19390 0.72280 -0.39000
C 	C 	0.88480 0.27090 0.45870 -0.00500
C 	C 	0.85360 0.27930 0.44430 0.01400
C 	C 	0.86700 0.29620 0.39840 -0.01000
C 	C 	0.89620 0.29940 0.37050 0.01500
C 	C 	0.92840 0.29200 0.39070 -0.00300
C 	C 	0.92280 0.27560 0.43620 0.01200
C 	C 	0.83390 0.29990 0.37690 0.02900
C 	C 	0.79030 0.28020 0.38980 -0.02900
C 	C 	0.76400 0.29260 0.36570 0.12400
C 	C 	0.76930 0.32030 0.32890 -0.20100
C 	C 	0.81330 0.33770 0.32130 0.12400
C 	C 	0.84460 0.32970 0.34070 -0.03000
C 	C 	0.96220 0.28430 0.32110 -0.01500
C 	C 	0.03930 0.32160 0.36280 0.09800
C 	C 	0.00050 0.29810 0.38700 -0.01500
C 	C 	0.97080 0.30590 0.36380 0.01800
C 	C 	0.87630 0.24620 0.50420 0.02400
C 	C 	0.90150 0.23140 0.52600 -0.02600
C 	C 	0.89450 0.21650 0.57180 0.12800
C 	C 	0.86600 0.22600 0.59540 -0.23400
C 	C 	0.82960 0.21650 0.56850 0.09200
C 	C 	0.84660 0.24830 0.53410 -0.01300
C 	C 	0.85280 0.20870 0.64280 1.03900
C 	C 	0.73850 0.33430 0.31550 1.29700
C 	C 	0.75020 0.07860 0.70930 0.65100
C 	C 	0.69660 0.24980 0.72800 -0.03100
C 	C 	0.71540 0.22560 0.73980 0.12100
C 	C 	0.99930 0.29610 0.29430 0.08900
C 	C 	0.04020 0.31530 0.31530 -0.14900
Zn	Zn	0.86399 0.15468 0.80154 1.11900
Zn	Zn	0.85999 0.22195 0.73811 1.35800
Zn	Zn	0.65418 0.37547 0.22335 1.10500
Zn	Zn	0.37182 0.16291 0.79486 1.19800
Zn	Zn	0.30356 0.18905 0.77877 1.08800
O 	O 	0.35570 0.23140 0.82660 -0.64400
O 	O 	0.36580 0.18360 0.84890 -0.70800
O 	O 	0.32530 0.18130 0.86130 -0.49100
O 	O 	0.31930 0.20290 0.84250 -0.29700
O 	O 	0.66210 0.41140 0.27080 -0.26500
O 	O 	0.60290 0.35810 0.20400 -0.95000
O 	O 	0.61580 0.32460 0.16140 -0.76600
O 	O 	0.57900 0.29600 0.19000 -0.54600
O 	O 	0.36580 0.12300 0.76270 -1.19200
O 	O 	0.35320 0.10760 0.80810 -0.35200
O 	O 	0.30220 0.08720 0.82070 -0.40200
O 	O 	0.30510 0.23710 0.74660 -0.49100
O 	O 	0.23400 0.12850 0.71880 -0.82200
O 	O 	0.24090 0.14420 0.77320 -0.64900
O 	O 	0.42330 0.18060 0.74920 -0.31700
O 	O 	0.42870 0.19390 0.77720 -0.39000
C 	C 	0.38610 0.27090 0.04130 -0.00500
C 	C 	0.42570 0.27930 0.05570 0.01400
C 	C 	0.42920 0.29620 0.10160 -0.01000
C 	C 	0.40320 0.29940 0.12950 0.01500
C 	C 	0.36360 0.29200 0.10930 -0.00300
C 	C 	0.35280 0.27560 0.06380 0.01200
C 	C 	0.46600 0.29990 0.12310 0.02900
C 	C 	0.48990 0.28020 0.11020 -0.02900
C 	C 	0.52860 0.29260 0.13430 0.12400
C 	C 	0.55100 0.32030 0.17110 -0.20100
C 	C 	0.52440 0.33770 0.17870 0.12400
C 	C 	0.48510 0.32970 0.15930 -0.03000
C 	C 	0.32210 0.28430 0.17890 -0.01500
C 	C 	0.28230 0.32160 0.13720 0.09800
C 	C 	0.29760 0.29810 0.11300 -0.01500
C 	C 	0.33510 0.30590 0.13620 0.01800
C 	C 	0.36990 0.24620 0.99580 0.02400
C 	C 	0.32990 0.23140 0.97400 -0.02600
C 	C 	0.32200 0.21650 0.92820 0.12800
C 	C 	0.36000 0.22600 0.90460 -0.23400
C 	C 	0.38690 0.21650 0.93150 0.09200
C 	C 	0.40170 0.24830 0.96590 -0.01300
C 	C 	0.35590 0.20870 0.85720 1.03900
C 	C 	0.59580 0.33430 0.18450 1.29700
C 	C 	0.32840 0.07860 0.79070 0.65100
C 	C 	0.55320 0.24980 0.77200 -0.03100
C 	C 	0.51020 0.22560 0.76020 0.12100
C 	C 	0.29680 0.29610 0.20570 0.09000
C 	C 	0.27510 0.31530 0.18470 -0.14900
Zn	Zn	0.29069 0.15468 0.69846 1.11900
Zn	Zn	0.36196 0.22195 0.76189 1.35800
Zn	Zn	0.72129 0.34582 0.22335 1.10500
Zn	Zn	0.79109 0.62818 0.79486 1.19800
Zn	Zn	0.88549 0.69644 0.77877 1.08800
O 	O 	0.87570 0.64430 0.82660 -0.64400
O 	O 	0.81780 0.63420 0.84890 -0.70800
O 	O 	0.85600 0.67470 0.86130 -0.49100
O 	O 	0.88360 0.68070 0.84250 -0.29700
O 	O 	0.74930 0.33790 0.27080 -0.26500
O 	O 	0.75520 0.39710 0.20400 -0.95000
O 	O 	0.70880 0.38420 0.16140 -0.76600
O 	O 	0.71700 0.42100 0.19000 -0.54600
O 	O 	0.75720 0.63420 0.76270 -1.19200
O 	O 	0.75440 0.64680 0.80810 -0.35200
O 	O 	0.78500 0.69780 0.82070 -0.40200
O 	O 	0.93200 0.69490 0.74660 -0.49100
O 	O 	0.89450 0.76600 0.71880 -0.82200
O 	O 	0.90330 0.75910 0.77320 -0.64900
O 	O 	0.75730 0.57670 0.74920 -0.31700
O 	O 	0.76520 0.57130 0.77720 -0.39000
C 	C 	0.88480 0.61390 0.04130 -0.00500
C 	C 	0.85360 0.57430 0.05570 0.01400
C 	C 	0.86700 0.57080 0.10160 -0.01000
C 	C 	0.89620 0.59680 0.12950 0.01500
C 	C 	0.92840 0.63640 0.10930 -0.00300
C 	C 	0.92280 0.64720 0.06380 0.01200
C 	C 	0.83390 0.53400 0.12310 0.02900
C 	C 	0.79030 0.51010 0.11020 -0.02900
C 	C 	0.76400 0.47140 0.13430 0.12400
C 	C 	0.76930 0.44900 0.17110 -0.20100
C 	C 	0.81330 0.47560 0.17870 0.12400
C 	C 	0.84460 0.51490 0.15930 -0.03000
C 	C 	0.96220 0.67790 0.17890 -0.01500
C 	C 	0.03930 0.71770 0.13720 0.09800
C 	C 	0.00050 0.70240 0.11300 -0.01500
C 	C 	0.97080 0.66490 0.13620 0.01800
C 	C 	0.87630 0.63010 0.99580 0.02400
C 	C 	0.90150 0.67010 0.97400 -0.02600
C 	C 	0.89450 0.67800 0.92820 0.12800
C 	C 	0.86600 0.64000 0.90460 -0.23400
C 	C 	0.82960 0.61310 0.93150 0.09200
C 	C 	0.84660 0.59830 0.96590 -0.01300
C 	C 	0.85280 0.64410 0.85720 1.03900
C 	C 	0.73850 0.40420 0.18450 1.29700
C 	C 	0.75020 0.67160 0.79070 0.65100
C 	C 	0.69660 0.44680 0.77200 -0.03100
C 	C 	0.71540 0.48980 0.76020 0.12100
C 	C 	0.99930 0.70320 0.20570 0.08900
C 	C 	0.04020 0.72490 0.18470 -0.14900
Zn	Zn	0.86399 0.70931 0.69846 1.11900
Zn	Zn	0.85999 0.63804 0.76189 1.35800
Zn	Zn	0.62453 0.27871 0.22335 1.10500
Zn	Zn	0.83709 0.20891 0.79486 1.19800
Zn	Zn	0.81095 0.11451 0.77877 1.08800
O 	O 	0.76860 0.12430 0.82660 -0.64400
O 	O 	0.81640 0.18220 0.84890 -0.70800
O 	O 	0.81870 0.14400 0.86130 -0.49100
O 	O 	0.79710 0.11640 0.84250 -0.29700
O 	O 	0.58860 0.25070 0.27080 -0.26500
O 	O 	0.64190 0.24480 0.20400 -0.95000
O 	O 	0.67540 0.29120 0.16140 -0.76600
O 	O 	0.70400 0.28300 0.19000 -0.54600
O 	O 	0.87700 0.24280 0.76270 -1.19200
O 	O 	0.89240 0.24560 0.80810 -0.35200
O 	O 	0.91280 0.21500 0.82070 -0.40200
O 	O 	0.76290 0.06800 0.74660 -0.49100
O 	O 	0.87150 0.10550 0.71880 -0.82200
O 	O 	0.85580 0.09670 0.77320 -0.64900
O 	O 	0.81940 0.24270 0.74920 -0.31700
O 	O 	0.80610 0.23480 0.77720 -0.39000
C 	C 	0.72910 0.11520 0.04130 -0.00500
C 	C 	0.72070 0.14640 0.05570 0.01400
C 	C 	0.70380 0.13300 0.10160 -0.01000
C 	C 	0.70060 0.10380 0.12950 0.01500
C 	C 	0.70800 0.07160 0.10930 -0.00300
C 	C 	0.72440 0.07720 0.06380 0.01200
C 	C 	0.70010 0.16610 0.12310 0.02900
C 	C 	0.71980 0.20970 0.11020 -0.02900
C 	C 	0.70740 0.23600 0.13430 0.12400
C 	C 	0.67970 0.23070 0.17110 -0.20100
C 	C 	0.66230 0.18670 0.17870 0.12400
C 	C 	0.67030 0.15540 0.15930 -0.03000
C 	C 	0.71570 0.03780 0.17890 -0.01500
C 	C 	0.67840 0.96070 0.13720 0.09800
C 	C 	0.70190 0.99950 0.11300 -0.01500
C 	C 	0.69410 0.02920 0.13620 0.01800
C 	C 	0.75380 0.12370 0.99580 0.02400
C 	C 	0.76860 0.09850 0.97400 -0.02600
C 	C 	0.78350 0.10550 0.92820 0.12800
C 	C 	0.77400 0.13400 0.90460 -0.23400
C 	C 	0.78350 0.17040 0.93150 0.09200
C 	C 	0.75170 0.15340 0.96590 -0.01300
C 	C 	0.79130 0.14720 0.85720 1.03900
C 	C 	0.66570 0.26150 0.18450 1.29700
C 	C 	0.92140 0.24980 0.79070 0.65100
C 	C 	0.75020 0.30340 0.77200 -0.03100
C 	C 	0.77440 0.28460 0.76020 0.12100
C 	C 	0.70390 0.00070 0.20570 0.08900
C 	C 	0.68470 0.95980 0.18470 -0.14900
Zn	Zn	0.84532 0.13601 0.69846 1.11900
Zn	Zn	0.77805 0.14001 0.76189 1.35800
Zn	Zn	0.33333 0.66667 0.69103 1.09000
Zn	Zn	0.33333 0.66667 0.80897 1.09000
Zn	Zn	0.66667 0.33333 0.30897 1.09000
Zn	Zn	0.66667 0.33333 0.19103 1.09000
O 	O 	0.16635 0.33270 0.25000 -1.53100
C 	C 	0.11195 0.22390 0.25000 1.52600
C 	C 	0.31210 0.62420 0.25000 -0.00900
C 	C 	0.28725 0.57450 0.25000 0.03100
C 	C 	0.24540 0.49080 0.25000 -0.20700
C 	C 	0.22175 0.44350 0.25000 0.58200
O 	O 	0.66730 0.83365 0.25000 -1.53100
C 	C 	0.77610 0.88805 0.25000 1.52600
C 	C 	0.37580 0.68790 0.25000 -0.00900
C 	C 	0.42550 0.71275 0.25000 0.03100
C 	C 	0.50920 0.75460 0.25000 -0.20700
C 	C 	0.55650 0.77825 0.25000 0.58200
O 	O 	0.16635 0.83365 0.25000 -1.53100
C 	C 	0.11195 0.88805 0.25000 1.52600
C 	C 	0.31210 0.68790 0.25000 -0.00900
C 	C 	0.28725 0.71275 0.25000 0.03100
C 	C 	0.24540 0.75460 0.25000 -0.20700
C 	C 	0.22175 0.77825 0.25000 0.58200
O 	O 	0.83365 0.66730 0.75000 -1.53100
C 	C 	0.88805 0.77610 0.75000 1.52600
C 	C 	0.68790 0.37580 0.75000 -0.00900
C 	C 	0.71275 0.42550 0.75000 0.03100
C 	C 	0.75460 0.50920 0.75000 -0.20700
C 	C 	0.77825 0.55650 0.75000 0.58200
O 	O 	0.33270 0.16635 0.75000 -1.53100
C 	C 	0.22390 0.11195 0.75000 1.52600
C 	C 	0.62420 0.31210 0.75000 -0.00900
C 	C 	0.57450 0.28725 0.75000 0.03100
C 	C 	0.49080 0.24540 0.75000 -0.20700
C 	C 	0.44350 0.22175 0.75000 0.58200
O 	O 	0.83365 0.16635 0.75000 -1.53100
C 	C 	0.88805 0.11195 0.75000 1.52600
C 	C 	0.68790 0.31210 0.75000 -0.00900
C 	C 	0.71275 0.28725 0.75000 0.03100
C 	C 	0.75460 0.24540 0.75000 -0.20700
C 	C 	0.77825 0.22175 0.75000 0.58200
O 	O 	0.33333 0.66667 0.75000 -1.60600
O 	O 	0.66667 0.33333 0.25000 -1.60600
C 	C 	0.28880 0.64440 0.25000 0.01500
C 	C 	0.35560 0.64440 0.25000 0.01500
C 	C 	0.35560 0.71120 0.25000 0.01500
C 	C 	0.71120 0.35560 0.75000 0.01500
C 	C 	0.64440 0.35560 0.75000 0.01500
C 	C 	0.64440 0.28880 0.75000 0.01500
