data_crystal

_cell_length_a 41.70200
_cell_length_b 9.89880
_cell_length_c 18.44400
_cell_angle_alpha 90.00000
_cell_angle_beta  103.42200
_cell_angle_gamma 90.00000

_symmetry_space_group_name_	'P 1'
_symmetry_space_group_name_H-M	'P 1'

loop_
_symmetry_equiv_pos_as_xyz
  x,y,z

loop_
_atom_site_label
_atom_site_type_symbol
_atom_site_fract_x
_atom_site_fract_y
_atom_site_fract_z
_atom_site_charge
Cd	Cd	0.66146 0.32227 0.45308 1.22200
O 	O 	0.66430 0.16520 0.37040 -0.45900
O 	O 	0.71597 0.11130 0.42080 -0.44700
O 	O 	0.67050 0.81070 0.05250 -0.44000
O 	O 	0.72510 0.78660 0.09350 -0.43800
O 	O 	0.71262 0.41750 0.45390 -0.50100
O 	O 	0.68049 0.53060 0.51230 -0.37700
C 	C 	0.69100 0.11220 0.36950 0.40500
C 	C 	0.69350 0.03780 0.30050 -0.10000
C 	C 	0.72230 0.98340 0.29160 0.00100
H 	H 	0.74170 0.99150 0.33040 0.04400
C 	C 	0.72370 0.91560 0.22570 -0.02400
H 	H 	0.74400 0.87860 0.22030 0.05100
C 	C 	0.69630 0.90180 0.16920 -0.07600
C 	C 	0.66670 0.95530 0.17830 -0.02700
H 	H 	0.64740 0.94540 0.13980 0.05000
C 	C 	0.66530 0.02250 0.24250 -0.00400
H 	H 	0.64490 0.05900 0.24780 0.04000
C 	C 	0.69770 0.82660 0.09960 0.36900
C 	C 	0.70680 0.52390 0.48870 0.30300
C 	C 	0.72910 0.64000 0.49490 -0.07400
C 	C 	0.72600 0.74910 0.54140 -0.01600
H 	H 	0.70980 0.74750 0.57020 0.05000
C 	C 	0.74670 0.85880 0.54480 -0.01600
H 	H 	0.74430 0.93430 0.57490 0.04400
N 	N 	0.60740 0.38760 0.45930 -0.08800
C 	C 	0.59310 0.49890 0.41840 -0.05900
H 	H 	0.60330 0.53860 0.38260 0.02400
C 	C 	0.56380 0.55190 0.42980 -0.14300
H 	H 	0.55400 0.62800 0.40180 0.10100
C 	C 	0.54880 0.49370 0.48220 0.03100
C 	C 	0.56320 0.38250 0.52310 -0.44800
H 	H 	0.55300 0.34270 0.55890 0.20400
C 	C 	0.59250 0.32940 0.51170 0.22400
H 	H 	0.60230 0.25330 0.53970 -0.02600
N 	N 	0.38870 0.68750 0.53340 -0.21100
C 	C 	0.40690 0.57160 0.52870 -0.04600
H 	H 	0.39660 0.48550 0.52520 0.07100
C 	C 	0.44020 0.58170 0.52920 0.24500
H 	H 	0.45270 0.50240 0.52600 0.01200
C 	C 	0.45530 0.70770 0.53430 0.09000
C 	C 	0.43710 0.82360 0.53900 -0.11800
H 	H 	0.44740 0.90970 0.54250 0.10900
C 	C 	0.40380 0.81350 0.53850 -0.00700
H 	H 	0.39130 0.89280 0.54170 0.02900
F 	F 	0.47330 0.92200 0.40900 -0.58700
C 	C 	0.51540 0.55700 0.49370 -0.25300
H 	H 	0.49690 0.49300 0.47340 0.14600
C 	C 	0.50480 0.70200 0.46510 0.18900
H 	H 	0.52450 0.76080 0.46610 0.00800
C 	C 	0.49130 0.72400 0.53480 -0.15000
H 	H 	0.50020 0.80920 0.56060 0.13100
C 	C 	0.51380 0.59700 0.57040 0.06200
H 	H 	0.50050 0.53070 0.59180 0.02800
C 	C 	0.48190 0.70100 0.38920 -0.33500
C 	C 	0.46720 0.82700 0.37000 0.65800
C 	C 	0.44240 0.84000 0.30500 -0.47000
H 	H 	0.43240 0.92570 0.29230 0.22000
C 	C 	0.43230 0.72900 0.26020 0.27900
H 	H 	0.41530 0.73790 0.21610 -0.06400
C 	C 	0.44690 0.60400 0.27940 -0.27700
H 	H 	0.44000 0.52730 0.24850 0.15400
C 	C 	0.47170 0.59000 0.34390 0.23600
H 	H 	0.48170 0.50440 0.35710 0.00100
F 	F 	0.51960 0.57400 0.73110 -0.44400
C 	C 	0.54180 0.65300 0.63110 -0.17000
C 	C 	0.54320 0.63100 0.70620 0.41700
C 	C 	0.56840 0.68800 0.76020 -0.31100
H 	H 	0.56930 0.67260 0.81150 0.15700
C 	C 	0.59230 0.76600 0.73910 0.14200
H 	H 	0.60960 0.80530 0.77600 -0.02000
C 	C 	0.59090 0.78800 0.66400 -0.17700
H 	H 	0.60720 0.84220 0.64950 0.09300
C 	C 	0.56570 0.73100 0.61000 0.10400
H 	H 	0.56470 0.74630 0.55860 0.01400
Cd	Cd	0.16146 0.82227 0.45308 1.22100
O 	O 	0.16430 0.66520 0.37040 -0.45900
O 	O 	0.21597 0.61130 0.42080 -0.44700
O 	O 	0.17050 0.31070 0.05250 -0.44000
O 	O 	0.22510 0.28660 0.09350 -0.43800
O 	O 	0.21262 0.91750 0.45390 -0.50100
O 	O 	0.18049 0.03060 0.51230 -0.37700
C 	C 	0.19100 0.61220 0.36950 0.40500
C 	C 	0.19350 0.53780 0.30050 -0.10000
C 	C 	0.22230 0.48340 0.29160 0.00100
H 	H 	0.24170 0.49150 0.33040 0.04400
C 	C 	0.22370 0.41560 0.22570 -0.02400
H 	H 	0.24400 0.37860 0.22030 0.05100
C 	C 	0.19630 0.40180 0.16920 -0.07600
C 	C 	0.16670 0.45530 0.17830 -0.02700
H 	H 	0.14740 0.44540 0.13980 0.05000
C 	C 	0.16530 0.52250 0.24250 -0.00400
H 	H 	0.14490 0.55900 0.24780 0.04000
C 	C 	0.19770 0.32660 0.09960 0.36900
C 	C 	0.20680 0.02390 0.48870 0.30300
C 	C 	0.22910 0.14000 0.49490 -0.07400
C 	C 	0.22600 0.24910 0.54140 -0.01500
H 	H 	0.20980 0.24750 0.57020 0.05000
C 	C 	0.24670 0.35880 0.54480 -0.01600
H 	H 	0.24430 0.43430 0.57490 0.04400
N 	N 	0.10740 0.88760 0.45930 -0.08800
C 	C 	0.09310 0.99890 0.41840 -0.06100
H 	H 	0.10330 0.03860 0.38260 0.02500
C 	C 	0.06380 0.05190 0.42980 -0.14200
H 	H 	0.05400 0.12800 0.40180 0.10100
C 	C 	0.04880 0.99370 0.48220 0.03100
C 	C 	0.06320 0.88250 0.52310 -0.44800
H 	H 	0.05300 0.84270 0.55890 0.20300
C 	C 	0.09250 0.82940 0.51170 0.22400
H 	H 	0.10230 0.75330 0.53970 -0.02600
N 	N 	0.88870 0.18750 0.53340 -0.21100
C 	C 	0.90690 0.07160 0.52870 -0.04600
H 	H 	0.89660 0.98550 0.52520 0.07000
C 	C 	0.94020 0.08170 0.52920 0.24500
H 	H 	0.95270 0.00240 0.52600 0.01300
C 	C 	0.95530 0.20770 0.53430 0.09000
C 	C 	0.93710 0.32360 0.53900 -0.11800
H 	H 	0.94740 0.40970 0.54250 0.10900
C 	C 	0.90380 0.31350 0.53850 -0.00700
H 	H 	0.89130 0.39280 0.54170 0.02900
F 	F 	0.97330 0.42200 0.40900 -0.58700
C 	C 	0.01540 0.05700 0.49370 -0.25200
H 	H 	0.99690 0.99300 0.47340 0.14600
C 	C 	0.00480 0.20200 0.46510 0.18800
H 	H 	0.02450 0.26080 0.46610 0.00800
C 	C 	0.99130 0.22400 0.53480 -0.14900
H 	H 	0.00020 0.30920 0.56060 0.13100
C 	C 	0.01380 0.09700 0.57040 0.06100
H 	H 	0.00050 0.03070 0.59180 0.02800
C 	C 	0.98190 0.20100 0.38920 -0.33500
C 	C 	0.96720 0.32700 0.37000 0.65800
C 	C 	0.94240 0.34000 0.30500 -0.47000
H 	H 	0.93240 0.42570 0.29230 0.22000
C 	C 	0.93230 0.22900 0.26020 0.27900
H 	H 	0.91530 0.23790 0.21610 -0.06400
C 	C 	0.94690 0.10400 0.27940 -0.27600
H 	H 	0.94000 0.02730 0.24850 0.15400
C 	C 	0.97170 0.09000 0.34390 0.23600
H 	H 	0.98170 0.00440 0.35710 0.00100
F 	F 	0.01960 0.07400 0.73110 -0.44400
C 	C 	0.04180 0.15300 0.63110 -0.16900
C 	C 	0.04320 0.13100 0.70620 0.41700
C 	C 	0.06840 0.18800 0.76020 -0.31100
H 	H 	0.06930 0.17260 0.81150 0.15700
C 	C 	0.09230 0.26600 0.73910 0.14200
H 	H 	0.10960 0.30530 0.77600 -0.02000
C 	C 	0.09090 0.28800 0.66400 -0.17700
H 	H 	0.10720 0.34220 0.64950 0.09300
C 	C 	0.06570 0.23100 0.61000 0.10400
H 	H 	0.06470 0.24630 0.55860 0.01400
Cd	Cd	0.33854 0.32227 0.04692 1.21600
O 	O 	0.33570 0.16520 0.12960 -0.46200
O 	O 	0.28403 0.11130 0.07920 -0.45600
O 	O 	0.32950 0.81070 0.44750 -0.42900
O 	O 	0.27490 0.78660 0.40650 -0.43300
O 	O 	0.28738 0.41750 0.04610 -0.50300
O 	O 	0.31951 0.53060 0.98770 -0.35500
C 	C 	0.30900 0.11220 0.13050 0.40700
C 	C 	0.30650 0.03780 0.19950 -0.10400
C 	C 	0.27770 0.98340 0.20840 0.00400
H 	H 	0.25830 0.99150 0.16960 0.04100
C 	C 	0.27630 0.91560 0.27430 -0.02800
H 	H 	0.25600 0.87860 0.27970 0.05200
C 	C 	0.30370 0.90180 0.33080 -0.07300
C 	C 	0.33330 0.95530 0.32170 -0.03000
H 	H 	0.35260 0.94540 0.36020 0.05400
C 	C 	0.33470 0.02250 0.25750 -0.00100
H 	H 	0.35510 0.05900 0.25220 0.03900
C 	C 	0.30230 0.82660 0.40040 0.36700
C 	C 	0.29320 0.52390 0.01130 0.29000
C 	C 	0.27090 0.64000 0.00510 -0.12200
C 	C 	0.27400 0.74910 0.95860 0.04400
H 	H 	0.29020 0.74750 0.92980 0.03400
C 	C 	0.25330 0.85880 0.95520 -0.05700
H 	H 	0.25570 0.93430 0.92510 0.05900
N 	N 	0.39260 0.38760 0.04070 -0.06900
C 	C 	0.40690 0.49890 0.08160 -0.04100
H 	H 	0.39670 0.53860 0.11740 0.01500
C 	C 	0.43620 0.55190 0.07020 -0.12700
H 	H 	0.44600 0.62800 0.09820 0.09400
C 	C 	0.45120 0.49370 0.01780 0.04800
C 	C 	0.43680 0.38250 0.97690 -0.35100
H 	H 	0.44700 0.34270 0.94110 0.17300
C 	C 	0.40750 0.32940 0.98830 0.26200
H 	H 	0.39770 0.25330 0.96030 -0.03100
N 	N 	0.61130 0.68750 0.96660 -0.19100
C 	C 	0.59310 0.57160 0.97130 -0.00800
H 	H 	0.60340 0.48550 0.97480 0.07400
C 	C 	0.55980 0.58170 0.97080 0.33800
H 	H 	0.54730 0.50240 0.97400 0.00700
C 	C 	0.54470 0.70770 0.96570 0.08800
C 	C 	0.56290 0.82360 0.96100 -0.10700
H 	H 	0.55260 0.90970 0.95750 0.11000
C 	C 	0.59620 0.81350 0.96150 -0.00300
H 	H 	0.60870 0.89280 0.95830 0.03300
F 	F 	0.52670 0.92200 0.09100 -0.59200
C 	C 	0.48460 0.55700 0.00630 -0.28700
H 	H 	0.50310 0.49300 0.02660 0.13600
C 	C 	0.49520 0.70200 0.03490 0.18000
H 	H 	0.47550 0.76080 0.03390 0.00500
C 	C 	0.50870 0.72400 0.96520 -0.13400
H 	H 	0.49980 0.80920 0.93940 0.13000
C 	C 	0.48620 0.59700 0.92960 0.07800
H 	H 	0.49950 0.53070 0.90820 0.01900
C 	C 	0.51810 0.70100 0.11080 -0.33600
C 	C 	0.53280 0.82700 0.13000 0.65600
C 	C 	0.55760 0.84000 0.19500 -0.47000
H 	H 	0.56760 0.92570 0.20770 0.21900
C 	C 	0.56770 0.72900 0.23980 0.27900
H 	H 	0.58470 0.73790 0.28390 -0.06300
C 	C 	0.55310 0.60400 0.22060 -0.27600
H 	H 	0.56000 0.52730 0.25150 0.15400
C 	C 	0.52830 0.59000 0.15610 0.23500
H 	H 	0.51830 0.50440 0.14290 0.00100
F 	F 	0.48040 0.57400 0.76890 -0.44400
C 	C 	0.45820 0.65300 0.86890 -0.17400
C 	C 	0.45680 0.63100 0.79380 0.41900
C 	C 	0.43160 0.68800 0.73980 -0.31400
H 	H 	0.43070 0.67260 0.68850 0.15900
C 	C 	0.40770 0.76600 0.76090 0.14400
H 	H 	0.39040 0.80530 0.72400 -0.02100
C 	C 	0.40910 0.78800 0.83600 -0.17800
H 	H 	0.39280 0.84220 0.85050 0.09500
C 	C 	0.43430 0.73100 0.89000 0.10700
H 	H 	0.43530 0.74630 0.94140 0.02000
Cd	Cd	0.83854 0.82227 0.04692 1.21600
O 	O 	0.83570 0.66520 0.12960 -0.46200
O 	O 	0.78403 0.61130 0.07920 -0.45600
O 	O 	0.82950 0.31070 0.44750 -0.42900
O 	O 	0.77490 0.28660 0.40650 -0.43300
O 	O 	0.78738 0.91750 0.04610 -0.50300
O 	O 	0.81951 0.03060 0.98770 -0.35500
C 	C 	0.80900 0.61220 0.13050 0.40700
C 	C 	0.80650 0.53780 0.19950 -0.10400
C 	C 	0.77770 0.48340 0.20840 0.00400
H 	H 	0.75830 0.49150 0.16960 0.04100
C 	C 	0.77630 0.41560 0.27430 -0.02800
H 	H 	0.75600 0.37860 0.27970 0.05200
C 	C 	0.80370 0.40180 0.33080 -0.07300
C 	C 	0.83330 0.45530 0.32170 -0.03000
H 	H 	0.85260 0.44540 0.36020 0.05400
C 	C 	0.83470 0.52250 0.25750 -0.00100
H 	H 	0.85510 0.55900 0.25220 0.03900
C 	C 	0.80230 0.32660 0.40040 0.36700
C 	C 	0.79320 0.02390 0.01130 0.29000
C 	C 	0.77090 0.14000 0.00510 -0.12400
C 	C 	0.77400 0.24910 0.95860 0.04600
H 	H 	0.79020 0.24750 0.92980 0.03400
C 	C 	0.75330 0.35880 0.95520 -0.05700
H 	H 	0.75570 0.43430 0.92510 0.06000
N 	N 	0.89260 0.88760 0.04070 -0.07000
C 	C 	0.90690 0.99890 0.08160 -0.04000
H 	H 	0.89670 0.03860 0.11740 0.01500
C 	C 	0.93620 0.05190 0.07020 -0.13000
H 	H 	0.94600 0.12800 0.09820 0.09400
C 	C 	0.95120 0.99370 0.01780 0.04700
C 	C 	0.93680 0.88250 0.97690 -0.35500
H 	H 	0.94700 0.84270 0.94110 0.17500
C 	C 	0.90750 0.82940 0.98830 0.26100
H 	H 	0.89770 0.75330 0.96030 -0.03100
N 	N 	0.11130 0.18750 0.96660 -0.19000
C 	C 	0.09310 0.07160 0.97130 -0.00800
H 	H 	0.10340 0.98550 0.97480 0.07200
C 	C 	0.05980 0.08170 0.97080 0.34100
H 	H 	0.04730 0.00240 0.97400 0.00900
C 	C 	0.04470 0.20770 0.96570 0.08800
C 	C 	0.06290 0.32360 0.96100 -0.10600
H 	H 	0.05260 0.40970 0.95750 0.11000
C 	C 	0.09620 0.31350 0.96150 -0.00400
H 	H 	0.10870 0.39280 0.95830 0.03300
F 	F 	0.02670 0.42200 0.09100 -0.59200
C 	C 	0.98460 0.05700 0.00630 -0.28900
H 	H 	0.00310 0.99300 0.02660 0.13800
C 	C 	0.99520 0.20200 0.03490 0.18100
H 	H 	0.97550 0.26080 0.03390 0.00400
C 	C 	0.00870 0.22400 0.96520 -0.13400
H 	H 	0.99980 0.30920 0.93940 0.13000
C 	C 	0.98620 0.09700 0.92960 0.07900
H 	H 	0.99950 0.03070 0.90820 0.01900
C 	C 	0.01810 0.20100 0.11080 -0.33700
C 	C 	0.03280 0.32700 0.13000 0.65600
C 	C 	0.05760 0.34000 0.19500 -0.47000
H 	H 	0.06760 0.42570 0.20770 0.22000
C 	C 	0.06770 0.22900 0.23980 0.27900
H 	H 	0.08470 0.23790 0.28390 -0.06300
C 	C 	0.05310 0.10400 0.22060 -0.27600
H 	H 	0.06000 0.02730 0.25150 0.15400
C 	C 	0.02830 0.09000 0.15610 0.23600
H 	H 	0.01830 0.00440 0.14290 0.00000
F 	F 	0.98040 0.07400 0.76890 -0.44400
C 	C 	0.95820 0.15300 0.86890 -0.17400
C 	C 	0.95680 0.13100 0.79380 0.41900
C 	C 	0.93160 0.18800 0.73980 -0.31400
H 	H 	0.93070 0.17260 0.68850 0.15900
C 	C 	0.90770 0.26600 0.76090 0.14400
H 	H 	0.89040 0.30530 0.72400 -0.02100
C 	C 	0.90910 0.28800 0.83600 -0.17800
H 	H 	0.89280 0.34220 0.85050 0.09500
C 	C 	0.93430 0.23100 0.89000 0.10700
H 	H 	0.93530 0.24630 0.94140 0.02000
Cd	Cd	0.33854 0.67773 0.54692 1.22100
O 	O 	0.33570 0.83480 0.62960 -0.45900
O 	O 	0.28403 0.88870 0.57920 -0.44800
O 	O 	0.32950 0.18930 0.94750 -0.41700
O 	O 	0.27490 0.21340 0.90650 -0.42600
O 	O 	0.28738 0.58250 0.54610 -0.50100
O 	O 	0.31951 0.46940 0.48770 -0.37700
C 	C 	0.30900 0.88780 0.63050 0.40600
C 	C 	0.30650 0.96220 0.69950 -0.10300
C 	C 	0.27770 0.01660 0.70840 0.00500
H 	H 	0.25830 0.00850 0.66960 0.04300
C 	C 	0.27630 0.08440 0.77430 -0.02800
H 	H 	0.25600 0.12140 0.77970 0.05300
C 	C 	0.30370 0.09820 0.83080 -0.07000
C 	C 	0.33330 0.04470 0.82170 -0.02900
H 	H 	0.35260 0.05460 0.86020 0.05600
C 	C 	0.33470 0.97750 0.75750 -0.00100
H 	H 	0.35510 0.94100 0.75220 0.03900
C 	C 	0.30230 0.17340 0.90040 0.36500
C 	C 	0.29320 0.47610 0.51130 0.30300
C 	C 	0.27090 0.36000 0.50510 -0.07400
C 	C 	0.27400 0.25090 0.45860 -0.01600
H 	H 	0.29020 0.25250 0.42980 0.05000
C 	C 	0.25330 0.14120 0.45520 -0.01600
H 	H 	0.25570 0.06570 0.42510 0.04400
N 	N 	0.39260 0.61240 0.54070 -0.08800
C 	C 	0.40690 0.50110 0.58160 -0.05900
H 	H 	0.39670 0.46140 0.61740 0.02500
C 	C 	0.43620 0.44810 0.57020 -0.14300
H 	H 	0.44600 0.37200 0.59820 0.10100
C 	C 	0.45120 0.50630 0.51780 0.03100
C 	C 	0.43680 0.61750 0.47690 -0.44800
H 	H 	0.44700 0.65730 0.44110 0.20300
C 	C 	0.40750 0.67060 0.48830 0.22400
H 	H 	0.39770 0.74670 0.46030 -0.02600
N 	N 	0.61130 0.31250 0.46660 -0.21100
C 	C 	0.59310 0.42840 0.47130 -0.04600
H 	H 	0.60340 0.51450 0.47480 0.07100
C 	C 	0.55980 0.41830 0.47080 0.24500
H 	H 	0.54730 0.49760 0.47400 0.01200
C 	C 	0.54470 0.29230 0.46570 0.09000
C 	C 	0.56290 0.17640 0.46100 -0.11800
H 	H 	0.55260 0.09030 0.45750 0.10900
C 	C 	0.59620 0.18650 0.46150 -0.00700
H 	H 	0.60870 0.10720 0.45830 0.02900
F 	F 	0.52670 0.07800 0.59100 -0.58700
C 	C 	0.48460 0.44300 0.50630 -0.25300
H 	H 	0.50310 0.50700 0.52660 0.14600
C 	C 	0.49520 0.29800 0.53490 0.18900
H 	H 	0.47550 0.23920 0.53390 0.00800
C 	C 	0.50870 0.27600 0.46520 -0.15000
H 	H 	0.49980 0.19080 0.43940 0.13100
C 	C 	0.48620 0.40300 0.42960 0.06200
H 	H 	0.49950 0.46930 0.40820 0.02700
C 	C 	0.51810 0.29900 0.61080 -0.33500
C 	C 	0.53280 0.17300 0.63000 0.65700
C 	C 	0.55760 0.16000 0.69500 -0.46900
H 	H 	0.56760 0.07430 0.70770 0.22000
C 	C 	0.56770 0.27100 0.73980 0.27800
H 	H 	0.58470 0.26210 0.78390 -0.06200
C 	C 	0.55310 0.39600 0.72060 -0.27500
H 	H 	0.56000 0.47270 0.75150 0.15400
C 	C 	0.52830 0.41000 0.65610 0.23500
H 	H 	0.51830 0.49560 0.64290 0.00100
F 	F 	0.48040 0.42600 0.26890 -0.44300
C 	C 	0.45820 0.34700 0.36890 -0.17100
C 	C 	0.45680 0.36900 0.29380 0.41800
C 	C 	0.43160 0.31200 0.23980 -0.31400
H 	H 	0.43070 0.32740 0.18850 0.16000
C 	C 	0.40770 0.23400 0.26090 0.14400
H 	H 	0.39040 0.19470 0.22400 -0.02100
C 	C 	0.40910 0.21200 0.33600 -0.17800
H 	H 	0.39280 0.15780 0.35050 0.09300
C 	C 	0.43430 0.26900 0.39000 0.10500
H 	H 	0.43530 0.25370 0.44140 0.01400
Cd	Cd	0.83854 0.17773 0.54692 1.22100
O 	O 	0.83570 0.33480 0.62960 -0.45900
O 	O 	0.78403 0.38870 0.57920 -0.44800
O 	O 	0.82950 0.68930 0.94750 -0.41800
O 	O 	0.77490 0.71340 0.90650 -0.42700
O 	O 	0.78738 0.08250 0.54610 -0.50100
O 	O 	0.81951 0.96940 0.48770 -0.37700
C 	C 	0.80900 0.38780 0.63050 0.40600
C 	C 	0.80650 0.46220 0.69950 -0.10200
C 	C 	0.77770 0.51660 0.70840 0.00400
H 	H 	0.75830 0.50850 0.66960 0.04300
C 	C 	0.77630 0.58440 0.77430 -0.02800
H 	H 	0.75600 0.62140 0.77970 0.05300
C 	C 	0.80370 0.59820 0.83080 -0.07000
C 	C 	0.83330 0.54470 0.82170 -0.03100
H 	H 	0.85260 0.55460 0.86020 0.05700
C 	C 	0.83470 0.47750 0.75750 0.00000
H 	H 	0.85510 0.44100 0.75220 0.03900
C 	C 	0.80230 0.67340 0.90040 0.36500
C 	C 	0.79320 0.97610 0.51130 0.30200
C 	C 	0.77090 0.86000 0.50510 -0.07400
C 	C 	0.77400 0.75090 0.45860 -0.01600
H 	H 	0.79020 0.75250 0.42980 0.05000
C 	C 	0.75330 0.64120 0.45520 -0.01600
H 	H 	0.75570 0.56570 0.42510 0.04400
N 	N 	0.89260 0.11240 0.54070 -0.08900
C 	C 	0.90690 0.00110 0.58160 -0.05500
H 	H 	0.89670 0.96140 0.61740 0.02300
C 	C 	0.93620 0.94810 0.57020 -0.14600
H 	H 	0.94600 0.87200 0.59820 0.10200
C 	C 	0.95120 0.00630 0.51780 0.03100
C 	C 	0.93680 0.11750 0.47690 -0.44800
H 	H 	0.94700 0.15730 0.44110 0.20400
C 	C 	0.90750 0.17060 0.48830 0.22400
H 	H 	0.89770 0.24670 0.46030 -0.02600
N 	N 	0.11130 0.81250 0.46660 -0.21100
C 	C 	0.09310 0.92840 0.47130 -0.04600
H 	H 	0.10340 0.01450 0.47480 0.07200
C 	C 	0.05980 0.91830 0.47080 0.24400
H 	H 	0.04730 0.99760 0.47400 0.01200
C 	C 	0.04470 0.79230 0.46570 0.09100
C 	C 	0.06290 0.67640 0.46100 -0.11800
H 	H 	0.05260 0.59030 0.45750 0.11000
C 	C 	0.09620 0.68650 0.46150 -0.00700
H 	H 	0.10870 0.60720 0.45830 0.02900
F 	F 	0.02670 0.57800 0.59100 -0.58700
C 	C 	0.98460 0.94300 0.50630 -0.25400
H 	H 	0.00310 0.00700 0.52660 0.14600
C 	C 	0.99520 0.79800 0.53490 0.19000
H 	H 	0.97550 0.73920 0.53390 0.00800
C 	C 	0.00870 0.77600 0.46520 -0.15000
H 	H 	0.99980 0.69080 0.43940 0.13100
C 	C 	0.98620 0.90300 0.42960 0.06300
H 	H 	0.99950 0.96930 0.40820 0.02700
C 	C 	0.01810 0.79900 0.61080 -0.33500
C 	C 	0.03280 0.67300 0.63000 0.65800
C 	C 	0.05760 0.66000 0.69500 -0.46900
H 	H 	0.06760 0.57430 0.70770 0.22000
C 	C 	0.06770 0.77100 0.73980 0.27800
H 	H 	0.08470 0.76210 0.78390 -0.06200
C 	C 	0.05310 0.89600 0.72060 -0.27600
H 	H 	0.06000 0.97270 0.75150 0.15400
C 	C 	0.02830 0.91000 0.65610 0.23500
H 	H 	0.01830 0.99560 0.64290 0.00000
F 	F 	0.98040 0.92600 0.26890 -0.44300
C 	C 	0.95820 0.84700 0.36890 -0.17100
C 	C 	0.95680 0.86900 0.29380 0.41800
C 	C 	0.93160 0.81200 0.23980 -0.31400
H 	H 	0.93070 0.82740 0.18850 0.16000
C 	C 	0.90770 0.73400 0.26090 0.14400
H 	H 	0.89040 0.69470 0.22400 -0.02100
C 	C 	0.90910 0.71200 0.33600 -0.17800
H 	H 	0.89280 0.65780 0.35050 0.09300
C 	C 	0.93430 0.76900 0.39000 0.10500
H 	H 	0.93530 0.75370 0.44140 0.01400
Cd	Cd	0.66146 0.67773 0.95308 1.22600
O 	O 	0.66430 0.83480 0.87040 -0.45500
O 	O 	0.71597 0.88870 0.92080 -0.43700
O 	O 	0.67050 0.18930 0.55250 -0.42900
O 	O 	0.72510 0.21340 0.59350 -0.43300
O 	O 	0.71262 0.58250 0.95390 -0.49700
O 	O 	0.68049 0.46940 0.01230 -0.39900
C 	C 	0.69100 0.88780 0.86950 0.40300
C 	C 	0.69350 0.96220 0.80050 -0.09900
C 	C 	0.72230 0.01660 0.79160 0.00200
H 	H 	0.74170 0.00850 0.83040 0.04600
C 	C 	0.72370 0.08440 0.72570 -0.02500
H 	H 	0.74400 0.12140 0.72030 0.05200
C 	C 	0.69630 0.09820 0.66920 -0.07500
C 	C 	0.66670 0.04470 0.67830 -0.02600
H 	H 	0.64740 0.05460 0.63980 0.05300
C 	C 	0.66530 0.97750 0.74250 -0.00500
H 	H 	0.64490 0.94100 0.74780 0.04100
C 	C 	0.69770 0.17340 0.59960 0.36800
C 	C 	0.70680 0.47610 0.98870 0.31500
C 	C 	0.72910 0.36000 0.99490 -0.02400
C 	C 	0.72600 0.25090 0.04140 -0.07700
H 	H 	0.70980 0.25250 0.07020 0.06700
C 	C 	0.74670 0.14120 0.04480 0.02500
H 	H 	0.74430 0.06570 0.07490 0.02900
N 	N 	0.60740 0.61240 0.95930 -0.10800
C 	C 	0.59310 0.50110 0.91840 -0.07700
H 	H 	0.60330 0.46140 0.88260 0.03400
C 	C 	0.56380 0.44810 0.92980 -0.15800
H 	H 	0.55400 0.37200 0.90180 0.10900
C 	C 	0.54880 0.50630 0.98220 0.01400
C 	C 	0.56320 0.61750 0.02310 -0.54300
H 	H 	0.55300 0.65730 0.05890 0.23300
C 	C 	0.59250 0.67060 0.01170 0.18700
H 	H 	0.60230 0.74670 0.03970 -0.02100
N 	N 	0.38870 0.31250 0.03340 -0.23200
C 	C 	0.40690 0.42840 0.02870 -0.08400
H 	H 	0.39660 0.51450 0.02520 0.06800
C 	C 	0.44020 0.41830 0.02920 0.15000
H 	H 	0.45270 0.49760 0.02600 0.01700
C 	C 	0.45530 0.29230 0.03430 0.09200
C 	C 	0.43710 0.17640 0.03900 -0.12900
H 	H 	0.44740 0.09030 0.04250 0.10900
C 	C 	0.40380 0.18650 0.03850 -0.01100
H 	H 	0.39130 0.10720 0.04170 0.02500
F 	F 	0.47330 0.07800 0.90900 -0.58200
C 	C 	0.51540 0.44300 0.99370 -0.21800
H 	H 	0.49690 0.50700 0.97340 0.15600
C 	C 	0.50480 0.29800 0.96510 0.19800
H 	H 	0.52450 0.23920 0.96610 0.01200
C 	C 	0.49130 0.27600 0.03480 -0.16500
H 	H 	0.50020 0.19080 0.06060 0.13200
C 	C 	0.51380 0.40300 0.07040 0.04500
H 	H 	0.50050 0.46930 0.09180 0.03700
C 	C 	0.48190 0.29900 0.88920 -0.33400
C 	C 	0.46720 0.17300 0.87000 0.65900
C 	C 	0.44240 0.16000 0.80500 -0.46900
H 	H 	0.43240 0.07430 0.79230 0.22000
C 	C 	0.43230 0.27100 0.76020 0.27900
H 	H 	0.41530 0.26210 0.71610 -0.06300
C 	C 	0.44690 0.39600 0.77940 -0.27600
H 	H 	0.44000 0.47270 0.74850 0.15400
C 	C 	0.47170 0.41000 0.84390 0.23600
H 	H 	0.48170 0.49560 0.85710 0.00100
F 	F 	0.51960 0.42600 0.23110 -0.44300
C 	C 	0.54180 0.34700 0.13110 -0.16600
C 	C 	0.54320 0.36900 0.20620 0.41600
C 	C 	0.56840 0.31200 0.26020 -0.31100
H 	H 	0.56930 0.32740 0.31150 0.15800
C 	C 	0.59230 0.23400 0.23910 0.14200
H 	H 	0.60960 0.19470 0.27600 -0.02000
C 	C 	0.59090 0.21200 0.16400 -0.17700
H 	H 	0.60720 0.15780 0.14950 0.09100
C 	C 	0.56570 0.26900 0.11000 0.10200
H 	H 	0.56470 0.25370 0.05860 0.00800
Cd	Cd	0.16146 0.17773 0.95308 1.22600
O 	O 	0.16430 0.33480 0.87040 -0.45500
O 	O 	0.21597 0.38870 0.92080 -0.43700
O 	O 	0.17050 0.68930 0.55250 -0.42900
O 	O 	0.22510 0.71340 0.59350 -0.43300
O 	O 	0.21262 0.08250 0.95390 -0.49500
O 	O 	0.18049 0.96940 0.01230 -0.39800
C 	C 	0.19100 0.38780 0.86950 0.40300
C 	C 	0.19350 0.46220 0.80050 -0.09800
C 	C 	0.22230 0.51660 0.79160 0.00000
H 	H 	0.24170 0.50850 0.83040 0.04600
C 	C 	0.22370 0.58440 0.72570 -0.02400
H 	H 	0.24400 0.62140 0.72030 0.05200
C 	C 	0.19630 0.59820 0.66920 -0.07400
C 	C 	0.16670 0.54470 0.67830 -0.02700
H 	H 	0.14740 0.55460 0.63980 0.05300
C 	C 	0.16530 0.47750 0.74250 -0.00400
H 	H 	0.14490 0.44100 0.74780 0.04000
C 	C 	0.19770 0.67340 0.59960 0.36800
C 	C 	0.20680 0.97610 0.98870 0.31200
C 	C 	0.22910 0.86000 0.99490 -0.02500
C 	C 	0.22600 0.75090 0.04140 -0.07500
H 	H 	0.20980 0.75250 0.07020 0.06600
C 	C 	0.24670 0.64120 0.04480 0.02400
H 	H 	0.24430 0.56570 0.07490 0.02900
N 	N 	0.10740 0.11240 0.95930 -0.10900
C 	C 	0.09310 0.00110 0.91840 -0.06900
H 	H 	0.10330 0.96140 0.88260 0.03100
C 	C 	0.06380 0.94810 0.92980 -0.16400
H 	H 	0.05400 0.87200 0.90180 0.11100
C 	C 	0.04880 0.00630 0.98220 0.01300
C 	C 	0.06320 0.11750 0.02310 -0.54700
H 	H 	0.05300 0.15730 0.05890 0.23400
C 	C 	0.09250 0.17060 0.01170 0.18800
H 	H 	0.10230 0.24670 0.03970 -0.02100
N 	N 	0.88870 0.81250 0.03340 -0.23100
C 	C 	0.90690 0.92840 0.02870 -0.08300
H 	H 	0.89660 0.01450 0.02520 0.06800
C 	C 	0.94020 0.91830 0.02920 0.15400
H 	H 	0.95270 0.99760 0.02600 0.01800
C 	C 	0.95530 0.79230 0.03430 0.09300
C 	C 	0.93710 0.67640 0.03900 -0.12900
H 	H 	0.94740 0.59030 0.04250 0.10900
C 	C 	0.90380 0.68650 0.03850 -0.01100
H 	H 	0.89130 0.60720 0.04170 0.02500
F 	F 	0.97330 0.57800 0.90900 -0.58200
C 	C 	0.01540 0.94300 0.99370 -0.22300
H 	H 	0.99690 0.00700 0.97340 0.15800
C 	C 	0.00480 0.79800 0.96510 0.19900
H 	H 	0.02450 0.73920 0.96610 0.01200
C 	C 	0.99130 0.77600 0.03480 -0.16500
H 	H 	0.00020 0.69080 0.06060 0.13200
C 	C 	0.01380 0.90300 0.07040 0.04700
H 	H 	0.00050 0.96930 0.09180 0.03600
C 	C 	0.98190 0.79900 0.88920 -0.33400
C 	C 	0.96720 0.67300 0.87000 0.66000
C 	C 	0.94240 0.66000 0.80500 -0.46900
H 	H 	0.93240 0.57430 0.79230 0.22000
C 	C 	0.93230 0.77100 0.76020 0.27900
H 	H 	0.91530 0.76210 0.71610 -0.06300
C 	C 	0.94690 0.89600 0.77940 -0.27600
H 	H 	0.94000 0.97270 0.74850 0.15400
C 	C 	0.97170 0.91000 0.84390 0.23600
H 	H 	0.98170 0.99560 0.85710 -0.00000
F 	F 	0.01960 0.92600 0.23110 -0.44300
C 	C 	0.04180 0.84700 0.13110 -0.16700
C 	C 	0.04320 0.86900 0.20620 0.41600
C 	C 	0.06840 0.81200 0.26020 -0.31200
H 	H 	0.06930 0.82740 0.31150 0.15800
C 	C 	0.09230 0.73400 0.23910 0.14200
H 	H 	0.10960 0.69470 0.27600 -0.02000
C 	C 	0.09090 0.71200 0.16400 -0.17700
H 	H 	0.10720 0.65780 0.14950 0.09100
C 	C 	0.06570 0.76900 0.11000 0.10200
H 	H 	0.06470 0.75370 0.05860 0.00800
Cd	Cd	0.75000 0.25000 0.50000 1.24800
Cd	Cd	0.25000 0.25000 -0.00000 1.24100
Cd	Cd	0.25000 0.75000 0.50000 1.24800
Cd	Cd	0.75000 0.75000 -0.00000 1.24100
