data_crystal

_cell_length_a 29.62700
_cell_length_b 29.62700
_cell_length_c 29.62700
_cell_angle_alpha 90.00000
_cell_angle_beta  90.00000
_cell_angle_gamma 90.00000

_symmetry_space_group_name_	'P 1'
_symmetry_space_group_name_H-M	'P 1'

loop_
_symmetry_equiv_pos_as_xyz
  x,y,z

loop_
_atom_site_label
_atom_site_type_symbol
_atom_site_fract_x
_atom_site_fract_y
_atom_site_fract_z
_atom_site_charge
O 	O 	0.28020 0.06090 0.39610 -0.27300
O 	O 	0.27060 0.04690 0.04640 -0.45200
O 	O 	0.34660 0.04620 0.04580 -0.46200
O 	O 	0.22920 0.16370 0.21810 -0.42900
O 	O 	0.18980 0.12450 0.16700 -0.54300
O 	O 	0.18690 0.12060 0.28810 -0.40600
O 	O 	0.14770 0.08110 0.23560 -0.54300
O 	O 	0.43820 0.15120 0.12360 -0.64600
N 	N 	0.39120 0.15370 0.17030 -0.85000
H 	H 	0.23660 0.97430 0.41150 -0.01200
C 	C 	0.30860 0.05880 0.06030 0.22200
C 	C 	0.30890 0.09280 0.09880 -0.06800
C 	C 	0.26840 0.10270 0.12070 -0.41000
H 	H 	0.24130 0.09110 0.11000 -0.00900
C 	C 	0.26950 0.13050 0.15890 -0.12300
C 	C 	0.30960 0.14720 0.17480 -0.36000
H 	H 	0.30980 0.16580 0.20000 0.15600
C 	C 	0.34970 0.13650 0.15350 0.36500
C 	C 	0.42990 0.15670 0.16340 1.54600
C 	C 	0.46080 0.19450 0.24180 6.44600
H 	H 	0.43320 0.20070 0.25550 -2.07600
C 	C 	0.46220 0.17050 0.20110 -4.60600
C 	C 	0.22640 0.14030 0.18350 0.16600
C 	C 	0.17150 0.08390 0.27060 0.26900
C 	C 	0.18230 0.04040 0.29410 -0.20800
C 	C 	0.20600 0.04090 0.33490 -0.12900
H 	H 	0.21420 0.06810 0.34830 0.12300
C 	C 	0.34960 0.10850 0.11580 -0.32600
H 	H 	0.37660 0.10040 0.10210 0.10200
C 	C 	0.27000 0.02620 0.41820 0.41800
H 	H 	0.46950 0.24150 0.31230 -2.83900
H 	H 	0.51620 0.26270 0.29930 -2.80500
H 	H 	0.51440 0.21770 0.32700 -2.84000
H 	H 	0.41720 0.02680 0.48530 -0.85600
O 	O 	0.38340 0.13850 0.23370 -0.42300
C 	C 	0.40530 0.15520 0.20210 0.90900
O 	O 	0.78020 0.56090 0.89610 -0.18300
O 	O 	0.77060 0.54690 0.54640 -0.32200
O 	O 	0.84660 0.54620 0.54580 -0.35700
O 	O 	0.72920 0.66370 0.71810 -0.39300
O 	O 	0.68980 0.62450 0.66700 -0.28600
O 	O 	0.68690 0.62060 0.78810 -0.36500
O 	O 	0.64770 0.58110 0.73560 -0.27800
O 	O 	0.93820 0.65120 0.62360 0.26400
N 	N 	0.89120 0.65370 0.67030 0.69600
H 	H 	0.73660 0.47430 0.91150 0.08800
C 	C 	0.80860 0.55880 0.56030 0.43400
C 	C 	0.80890 0.59280 0.59880 -0.04300
C 	C 	0.76840 0.60270 0.62070 0.26100
H 	H 	0.74130 0.59110 0.61000 0.12700
C 	C 	0.76950 0.63050 0.65890 -0.01600
C 	C 	0.80960 0.64720 0.67480 0.16000
H 	H 	0.80980 0.66580 0.70000 0.02200
C 	C 	0.84970 0.63650 0.65350 -0.15300
C 	C 	0.92990 0.65670 0.66340 -1.89300
C 	C 	0.96080 0.69450 0.74180 -10.95200
H 	H 	0.93320 0.70070 0.75550 3.63600
C 	C 	0.96220 0.67050 0.70110 6.86400
C 	C 	0.72640 0.64030 0.68350 0.45900
C 	C 	0.67150 0.58390 0.77060 0.36400
C 	C 	0.68230 0.54040 0.79410 0.07400
C 	C 	0.70600 0.54090 0.83490 -0.15300
H 	H 	0.71420 0.56810 0.84830 0.12200
C 	C 	0.84960 0.60850 0.61580 0.14600
H 	H 	0.87660 0.60040 0.60210 0.03800
C 	C 	0.77000 0.52620 0.91820 0.22300
H 	H 	0.96950 0.74150 0.81230 4.83400
H 	H 	0.01620 0.76270 0.79930 4.92600
H 	H 	0.01440 0.71770 0.82700 5.04100
H 	H 	0.91720 0.52680 0.98530 -0.50300
O 	O 	0.88340 0.63850 0.73370 0.12200
C 	C 	0.90530 0.65520 0.70210 -0.80400
O 	O 	0.71980 0.93910 0.39610 -0.19500
O 	O 	0.72940 0.95310 0.04640 -0.66100
O 	O 	0.65340 0.95380 0.04580 -0.57700
O 	O 	0.77080 0.83630 0.21810 -0.43300
O 	O 	0.81020 0.87550 0.16700 -0.61400
O 	O 	0.81310 0.87940 0.28810 -0.44800
O 	O 	0.85230 0.91890 0.23560 -0.71400
O 	O 	0.56180 0.84880 0.12360 -0.55000
N 	N 	0.60880 0.84630 0.17030 -0.86200
H 	H 	0.76340 0.02570 0.41150 -0.00800
C 	C 	0.69140 0.94120 0.06030 0.22000
C 	C 	0.69110 0.90720 0.09880 -0.10500
C 	C 	0.73160 0.89730 0.12070 -0.39600
H 	H 	0.75870 0.90890 0.11000 -0.08400
C 	C 	0.73050 0.86950 0.15890 -0.16000
C 	C 	0.69040 0.85280 0.17480 -0.35400
H 	H 	0.69020 0.83420 0.20000 0.15500
C 	C 	0.65030 0.86350 0.15350 0.36200
C 	C 	0.57010 0.84330 0.16340 1.55700
C 	C 	0.53920 0.80550 0.24180 6.75100
H 	H 	0.56680 0.79930 0.25550 -2.17800
C 	C 	0.53780 0.82950 0.20110 -4.78900
C 	C 	0.77360 0.85970 0.18350 0.18100
C 	C 	0.82850 0.91610 0.27060 0.31100
C 	C 	0.81770 0.95960 0.29410 -0.49400
C 	C 	0.79400 0.95910 0.33490 -0.40500
H 	H 	0.78580 0.93190 0.34830 0.15800
C 	C 	0.65040 0.89150 0.11580 -0.35100
H 	H 	0.62340 0.89960 0.10210 0.13800
C 	C 	0.73000 0.97380 0.41820 -0.20600
H 	H 	0.53050 0.75850 0.31230 -3.00500
H 	H 	0.48380 0.73730 0.29930 -2.96800
H 	H 	0.48560 0.78230 0.32700 -3.01100
H 	H 	0.58280 0.97320 0.48530 -1.13900
O 	O 	0.61660 0.86150 0.23370 -0.45100
C 	C 	0.59470 0.84480 0.20210 0.93000
O 	O 	0.21980 0.43910 0.89610 0.04700
O 	O 	0.22940 0.45310 0.54640 -0.32300
O 	O 	0.15340 0.45380 0.54580 -0.32600
O 	O 	0.27080 0.33630 0.71810 -0.39500
O 	O 	0.31020 0.37550 0.66700 -0.29200
O 	O 	0.31310 0.37940 0.78810 -0.37500
O 	O 	0.35230 0.41890 0.73560 -0.28800
O 	O 	0.06180 0.34880 0.62360 0.39300
N 	N 	0.10880 0.34630 0.67030 0.68500
H 	H 	0.26340 0.52570 0.91150 0.26000
C 	C 	0.19140 0.44120 0.56030 0.42100
C 	C 	0.19110 0.40720 0.59880 -0.02300
C 	C 	0.23160 0.39730 0.62070 0.23800
H 	H 	0.25870 0.40890 0.61000 0.12700
C 	C 	0.23050 0.36950 0.65890 -0.01000
C 	C 	0.19040 0.35280 0.67480 0.14300
H 	H 	0.19020 0.33420 0.70000 0.02700
C 	C 	0.15030 0.36350 0.65350 -0.12300
C 	C 	0.07010 0.34330 0.66340 -1.84200
C 	C 	0.03920 0.30550 0.74180 -10.44500
H 	H 	0.06680 0.29930 0.75550 3.49700
C 	C 	0.03780 0.32950 0.70110 6.95500
C 	C 	0.27360 0.35970 0.68350 0.45100
C 	C 	0.32850 0.41610 0.77060 0.37100
C 	C 	0.31770 0.45960 0.79410 0.03700
C 	C 	0.29400 0.45910 0.83490 -0.10000
H 	H 	0.28580 0.43190 0.84830 0.08800
C 	C 	0.15040 0.39150 0.61580 0.12600
H 	H 	0.12340 0.39960 0.60210 0.07700
C 	C 	0.23000 0.47380 0.91820 -0.59600
H 	H 	0.03050 0.25850 0.81230 4.51900
H 	H 	0.98380 0.23730 0.79930 4.30200
H 	H 	0.98560 0.28230 0.82700 4.32600
H 	H 	0.08280 0.47320 0.98530 2.47500
O 	O 	0.11660 0.36150 0.73370 0.14700
C 	C 	0.09470 0.34480 0.70210 -0.79400
O 	O 	0.93910 0.28020 0.39610 -0.18000
O 	O 	0.95310 0.27060 0.04640 -0.64300
O 	O 	0.95380 0.34660 0.04580 -0.57500
O 	O 	0.83630 0.22920 0.21810 -0.43200
O 	O 	0.87550 0.18980 0.16700 -0.58800
O 	O 	0.87940 0.18690 0.28810 -0.43300
O 	O 	0.91890 0.14770 0.23560 -0.66300
O 	O 	0.84880 0.43820 0.12360 -0.55100
N 	N 	0.84630 0.39120 0.17030 -0.86300
H 	H 	0.02570 0.23660 0.41150 0.01600
C 	C 	0.94120 0.30860 0.06030 0.21600
C 	C 	0.90720 0.30890 0.09880 -0.09300
C 	C 	0.89730 0.26840 0.12070 -0.40100
H 	H 	0.90890 0.24130 0.11000 -0.06300
C 	C 	0.86950 0.26950 0.15890 -0.14500
C 	C 	0.85280 0.30960 0.17480 -0.36000
H 	H 	0.83420 0.30980 0.20000 0.15700
C 	C 	0.86350 0.34970 0.15350 0.36700
C 	C 	0.84330 0.42990 0.16340 1.55800
C 	C 	0.80550 0.46080 0.24180 6.75100
H 	H 	0.79930 0.43320 0.25550 -2.17900
C 	C 	0.82950 0.46220 0.20110 -4.79000
C 	C 	0.85970 0.22640 0.18350 0.17400
C 	C 	0.91610 0.17150 0.27060 0.30600
C 	C 	0.95960 0.18230 0.29410 -0.44800
C 	C 	0.95910 0.20600 0.33490 -0.41600
H 	H 	0.93190 0.21420 0.34830 0.17400
C 	C 	0.89150 0.34960 0.11580 -0.35600
H 	H 	0.89960 0.37660 0.10210 0.14000
C 	C 	0.97380 0.27000 0.41820 -0.24100
H 	H 	0.75850 0.46950 0.31230 -3.00500
H 	H 	0.73730 0.51620 0.29930 -2.96800
H 	H 	0.78230 0.51440 0.32700 -3.01100
H 	H 	0.97320 0.41720 0.48530 -1.03500
O 	O 	0.86150 0.38340 0.23370 -0.44900
C 	C 	0.84480 0.40530 0.20210 0.92900
O 	O 	0.43910 0.78020 0.89610 -0.18400
O 	O 	0.45310 0.77060 0.54640 -0.32200
O 	O 	0.45380 0.84660 0.54580 -0.36000
O 	O 	0.33630 0.72920 0.71810 -0.39400
O 	O 	0.37550 0.68980 0.66700 -0.28600
O 	O 	0.37940 0.68690 0.78810 -0.36700
O 	O 	0.41890 0.64770 0.73560 -0.27900
O 	O 	0.34880 0.93820 0.62360 0.24800
N 	N 	0.34630 0.89120 0.67030 0.67700
H 	H 	0.52570 0.73660 0.91150 0.08900
C 	C 	0.44120 0.80860 0.56030 0.43400
C 	C 	0.40720 0.80890 0.59880 -0.04100
C 	C 	0.39730 0.76840 0.62070 0.26000
H 	H 	0.40890 0.74130 0.61000 0.12800
C 	C 	0.36950 0.76950 0.65890 -0.01400
C 	C 	0.35280 0.80960 0.67480 0.15600
H 	H 	0.33420 0.80980 0.70000 0.02400
C 	C 	0.36350 0.84970 0.65350 -0.14600
C 	C 	0.34330 0.92990 0.66340 -1.84800
C 	C 	0.30550 0.96080 0.74180 -10.73700
H 	H 	0.29930 0.93320 0.75550 3.56500
C 	C 	0.32950 0.96220 0.70110 6.71200
C 	C 	0.35970 0.72640 0.68350 0.45900
C 	C 	0.41610 0.67150 0.77060 0.36400
C 	C 	0.45960 0.68230 0.79410 0.07300
C 	C 	0.45910 0.70600 0.83490 -0.15300
H 	H 	0.43190 0.71420 0.84830 0.12000
C 	C 	0.39150 0.84960 0.61580 0.14300
H 	H 	0.39960 0.87660 0.60210 0.03700
C 	C 	0.47380 0.77000 0.91820 0.22300
H 	H 	0.25850 0.96950 0.81230 4.74000
H 	H 	0.23730 0.01620 0.79930 4.83500
H 	H 	0.28230 0.01440 0.82700 4.94700
H 	H 	0.47320 0.91720 0.98530 -0.50400
O 	O 	0.36150 0.88340 0.73370 0.11700
C 	C 	0.34480 0.90530 0.70210 -0.78400
O 	O 	0.06090 0.71980 0.39610 -0.28800
O 	O 	0.04690 0.72940 0.04640 -0.47000
O 	O 	0.04620 0.65340 0.04580 -0.46300
O 	O 	0.16370 0.77080 0.21810 -0.43000
O 	O 	0.12450 0.81020 0.16700 -0.56800
O 	O 	0.12060 0.81310 0.28810 -0.42100
O 	O 	0.08110 0.85230 0.23560 -0.59400
O 	O 	0.15120 0.56180 0.12360 -0.64500
N 	N 	0.15370 0.60880 0.17030 -0.84900
H 	H 	0.97430 0.76340 0.41150 -0.03700
C 	C 	0.05880 0.69140 0.06030 0.22600
C 	C 	0.09280 0.69110 0.09880 -0.08000
C 	C 	0.10270 0.73160 0.12070 -0.40400
H 	H 	0.09110 0.75870 0.11000 -0.02900
C 	C 	0.13050 0.73050 0.15890 -0.13800
C 	C 	0.14720 0.69040 0.17480 -0.35400
H 	H 	0.16580 0.69020 0.20000 0.15400
C 	C 	0.13650 0.65030 0.15350 0.36000
C 	C 	0.15670 0.57010 0.16340 1.54500
C 	C 	0.19450 0.53920 0.24180 6.44600
H 	H 	0.20070 0.56680 0.25550 -2.07500
C 	C 	0.17050 0.53780 0.20110 -4.60600
C 	C 	0.14030 0.77360 0.18350 0.17200
C 	C 	0.08390 0.82850 0.27060 0.27300
C 	C 	0.04040 0.81770 0.29410 -0.25400
C 	C 	0.04090 0.79400 0.33490 -0.11800
H 	H 	0.06810 0.78580 0.34830 0.10700
C 	C 	0.10850 0.65040 0.11580 -0.32100
H 	H 	0.10040 0.62340 0.10210 0.10000
C 	C 	0.02620 0.73000 0.41820 0.45400
H 	H 	0.24150 0.53050 0.31230 -2.83900
H 	H 	0.26270 0.48380 0.29930 -2.80500
H 	H 	0.21770 0.48560 0.32700 -2.84000
H 	H 	0.02680 0.58280 0.48530 -0.96000
O 	O 	0.13850 0.61660 0.23370 -0.42500
C 	C 	0.15520 0.59470 0.20210 0.91000
O 	O 	0.56090 0.21980 0.89610 0.04800
O 	O 	0.54690 0.22940 0.54640 -0.32300
O 	O 	0.54620 0.15340 0.54580 -0.32400
O 	O 	0.66370 0.27080 0.71810 -0.39500
O 	O 	0.62450 0.31020 0.66700 -0.29200
O 	O 	0.62060 0.31310 0.78810 -0.37300
O 	O 	0.58110 0.35230 0.73560 -0.28800
O 	O 	0.65120 0.06180 0.62360 0.40900
N 	N 	0.65370 0.10880 0.67030 0.70400
H 	H 	0.47430 0.26340 0.91150 0.26000
C 	C 	0.55880 0.19140 0.56030 0.42000
C 	C 	0.59280 0.19110 0.59880 -0.02400
C 	C 	0.60270 0.23160 0.62070 0.23900
H 	H 	0.59110 0.25870 0.61000 0.12700
C 	C 	0.63050 0.23050 0.65890 -0.01200
C 	C 	0.64720 0.19040 0.67480 0.14600
H 	H 	0.66580 0.19020 0.70000 0.02600
C 	C 	0.63650 0.15030 0.65350 -0.13000
C 	C 	0.65670 0.07010 0.66340 -1.88700
C 	C 	0.69450 0.03920 0.74180 -10.66000
H 	H 	0.70070 0.06680 0.75550 3.56800
C 	C 	0.67050 0.03780 0.70110 7.10700
C 	C 	0.64030 0.27360 0.68350 0.45100
C 	C 	0.58390 0.32850 0.77060 0.37100
C 	C 	0.54040 0.31770 0.79410 0.03800
C 	C 	0.54090 0.29400 0.83490 -0.10000
H 	H 	0.56810 0.28580 0.84830 0.09000
C 	C 	0.60850 0.15040 0.61580 0.12800
H 	H 	0.60040 0.12340 0.60210 0.07800
C 	C 	0.52620 0.23000 0.91820 -0.59600
H 	H 	0.74150 0.03050 0.81230 4.61300
H 	H 	0.76270 0.98380 0.79930 4.39200
H 	H 	0.71770 0.98560 0.82700 4.42000
H 	H 	0.52680 0.08280 0.98530 2.47600
O 	O 	0.63850 0.11660 0.73370 0.15200
C 	C 	0.65520 0.09470 0.70210 -0.81500
O 	O 	0.71980 0.06090 0.60390 -0.28800
O 	O 	0.72940 0.04690 0.95360 -0.50500
O 	O 	0.65340 0.04620 0.95420 -0.49700
O 	O 	0.77080 0.16370 0.78190 -0.43100
O 	O 	0.81020 0.12450 0.83300 -0.57400
O 	O 	0.81310 0.12060 0.71190 -0.42100
O 	O 	0.85230 0.08110 0.76440 -0.59600
O 	O 	0.56180 0.15120 0.87640 -0.65100
N 	N 	0.60880 0.15370 0.82970 -0.84900
H 	H 	0.76340 0.97430 0.58850 -0.03700
C 	C 	0.69140 0.05880 0.93970 0.23200
C 	C 	0.69110 0.09280 0.90120 -0.09600
C 	C 	0.73160 0.10270 0.87930 -0.39700
H 	H 	0.75870 0.09110 0.89000 -0.03800
C 	C 	0.73050 0.13050 0.84110 -0.14700
C 	C 	0.69040 0.14720 0.82520 -0.34900
H 	H 	0.69020 0.16580 0.80000 0.15100
C 	C 	0.65030 0.13650 0.84650 0.35300
C 	C 	0.57010 0.15670 0.83660 1.54500
C 	C 	0.53920 0.19450 0.75820 6.44200
H 	H 	0.56680 0.20070 0.74450 -2.07400
C 	C 	0.53780 0.17050 0.79890 -4.60300
C 	C 	0.77360 0.14030 0.81650 0.17400
C 	C 	0.82850 0.08390 0.72940 0.27400
C 	C 	0.81770 0.04040 0.70590 -0.25500
C 	C 	0.79400 0.04090 0.66510 -0.11700
H 	H 	0.78580 0.06810 0.65170 0.10600
C 	C 	0.65040 0.10850 0.88420 -0.31500
H 	H 	0.62340 0.10040 0.89790 0.09100
C 	C 	0.73000 0.02620 0.58180 0.45400
H 	H 	0.53050 0.24150 0.68770 -2.83700
H 	H 	0.48380 0.26270 0.70070 -2.80200
H 	H 	0.48560 0.21770 0.67300 -2.83700
H 	H 	0.58280 0.02680 0.51470 -0.96000
O 	O 	0.61660 0.13850 0.76630 -0.42400
C 	C 	0.59470 0.15520 0.79790 0.90800
O 	O 	0.21980 0.56090 0.10390 0.05900
O 	O 	0.22940 0.54690 0.45360 -0.32300
O 	O 	0.15340 0.54620 0.45420 -0.32400
O 	O 	0.27080 0.66370 0.28190 -0.39400
O 	O 	0.31020 0.62450 0.33300 -0.29200
O 	O 	0.31310 0.62060 0.21190 -0.36900
O 	O 	0.35230 0.58110 0.26440 -0.28600
O 	O 	0.06180 0.65120 0.37640 0.41000
N 	N 	0.10880 0.65370 0.32970 0.70700
H 	H 	0.26340 0.47430 0.08850 0.27200
C 	C 	0.19140 0.55880 0.43970 0.42100
C 	C 	0.19110 0.59280 0.40120 -0.02400
C 	C 	0.23160 0.60270 0.37930 0.23900
H 	H 	0.25870 0.59110 0.39000 0.12700
C 	C 	0.23050 0.63050 0.34110 -0.01200
C 	C 	0.19040 0.64720 0.32520 0.14700
H 	H 	0.19020 0.66580 0.30000 0.02600
C 	C 	0.15030 0.63650 0.34650 -0.13100
C 	C 	0.07010 0.65670 0.33660 -1.89400
C 	C 	0.03920 0.69450 0.25820 -10.69400
H 	H 	0.06680 0.70070 0.24450 3.57900
C 	C 	0.03780 0.67050 0.29890 7.13000
C 	C 	0.27360 0.64030 0.31650 0.45100
C 	C 	0.32850 0.58390 0.22940 0.37000
C 	C 	0.31770 0.54040 0.20590 0.04400
C 	C 	0.29400 0.54090 0.16510 -0.10400
H 	H 	0.28580 0.56810 0.15170 0.09600
C 	C 	0.15040 0.60850 0.38420 0.12900
H 	H 	0.12340 0.60040 0.39790 0.07800
C 	C 	0.23000 0.52620 0.08180 -0.60100
H 	H 	0.03050 0.74150 0.18770 4.62700
H 	H 	0.98380 0.76270 0.20070 4.40700
H 	H 	0.98560 0.71770 0.17300 4.43400
H 	H 	0.08280 0.52680 0.01470 2.57500
O 	O 	0.11660 0.63850 0.26630 0.15300
C 	C 	0.09470 0.65520 0.29790 -0.81800
O 	O 	0.28020 0.93910 0.60390 -0.18000
O 	O 	0.27060 0.95310 0.95360 -0.67600
O 	O 	0.34660 0.95380 0.95420 -0.60700
O 	O 	0.22920 0.83630 0.78190 -0.43300
O 	O 	0.18980 0.87550 0.83300 -0.59400
O 	O 	0.18690 0.87940 0.71190 -0.43300
O 	O 	0.14770 0.91890 0.76440 -0.66500
O 	O 	0.43820 0.84880 0.87640 -0.55600
N 	N 	0.39120 0.84630 0.82970 -0.86300
H 	H 	0.23660 0.02570 0.58850 0.01700
C 	C 	0.30860 0.94120 0.93970 0.22100
C 	C 	0.30890 0.90720 0.90120 -0.10800
C 	C 	0.26840 0.89730 0.87930 -0.39400
H 	H 	0.24130 0.90890 0.89000 -0.07300
C 	C 	0.26950 0.86950 0.84110 -0.15300
C 	C 	0.30960 0.85280 0.82520 -0.35600
H 	H 	0.30980 0.83420 0.80000 0.15500
C 	C 	0.34970 0.86350 0.84650 0.36000
C 	C 	0.42990 0.84330 0.83660 1.55800
C 	C 	0.46080 0.80550 0.75820 6.74700
H 	H 	0.43320 0.79930 0.74450 -2.17800
C 	C 	0.46220 0.82950 0.79890 -4.78800
C 	C 	0.22640 0.85970 0.81650 0.17700
C 	C 	0.17150 0.91610 0.72940 0.30700
C 	C 	0.18230 0.95960 0.70590 -0.44800
C 	C 	0.20600 0.95910 0.66510 -0.41400
H 	H 	0.21420 0.93190 0.65170 0.17300
C 	C 	0.34960 0.89150 0.88420 -0.35000
H 	H 	0.37660 0.89960 0.89790 0.13200
C 	C 	0.27000 0.97380 0.58180 -0.24000
H 	H 	0.46950 0.75850 0.68770 -3.00300
H 	H 	0.51620 0.73730 0.70070 -2.96600
H 	H 	0.51440 0.78230 0.67300 -3.00900
H 	H 	0.41720 0.97320 0.51470 -1.03500
O 	O 	0.38340 0.86150 0.76630 -0.44800
C 	C 	0.40530 0.84480 0.79790 0.92700
O 	O 	0.78020 0.43910 0.10390 -0.17400
O 	O 	0.77060 0.45310 0.45360 -0.32200
O 	O 	0.84660 0.45380 0.45420 -0.36000
O 	O 	0.72920 0.33630 0.28190 -0.39300
O 	O 	0.68980 0.37550 0.33300 -0.28600
O 	O 	0.68690 0.37940 0.21190 -0.36300
O 	O 	0.64770 0.41890 0.26440 -0.27700
O 	O 	0.93820 0.34880 0.37640 0.24900
N 	N 	0.89120 0.34630 0.32970 0.67900
H 	H 	0.73660 0.52570 0.08850 0.10200
C 	C 	0.80860 0.44120 0.43970 0.43400
C 	C 	0.80890 0.40720 0.40120 -0.04200
C 	C 	0.76840 0.39730 0.37930 0.26000
H 	H 	0.74130 0.40890 0.39000 0.12800
C 	C 	0.76950 0.36950 0.34110 -0.01400
C 	C 	0.80960 0.35280 0.32520 0.15700
H 	H 	0.80980 0.33420 0.30000 0.02400
C 	C 	0.84970 0.36350 0.34650 -0.14700
C 	C 	0.92990 0.34330 0.33660 -1.85500
C 	C 	0.96080 0.30550 0.25820 -10.77000
H 	H 	0.93320 0.29930 0.24450 3.57500
C 	C 	0.96220 0.32950 0.29890 6.73300
C 	C 	0.72640 0.35970 0.31650 0.45900
C 	C 	0.67150 0.41610 0.22940 0.36300
C 	C 	0.68230 0.45960 0.20590 0.07900
C 	C 	0.70600 0.45910 0.16510 -0.15600
H 	H 	0.71420 0.43190 0.15170 0.12600
C 	C 	0.84960 0.39150 0.38420 0.14400
H 	H 	0.87660 0.39960 0.39790 0.03600
C 	C 	0.77000 0.47380 0.08180 0.21800
H 	H 	0.96950 0.25850 0.18770 4.75500
H 	H 	0.01620 0.23730 0.20070 4.85100
H 	H 	0.01440 0.28230 0.17300 4.96200
H 	H 	0.91720 0.47320 0.01470 -0.40700
O 	O 	0.88340 0.36150 0.26630 0.11700
C 	C 	0.90530 0.34480 0.29790 -0.78700
O 	O 	0.06090 0.28020 0.60390 -0.27200
O 	O 	0.04690 0.27060 0.95360 -0.48700
O 	O 	0.04620 0.34660 0.95420 -0.49500
O 	O 	0.16370 0.22920 0.78190 -0.42900
O 	O 	0.12450 0.18980 0.83300 -0.54900
O 	O 	0.12060 0.18690 0.71190 -0.40600
O 	O 	0.08110 0.14770 0.76440 -0.54500
O 	O 	0.15120 0.43820 0.87640 -0.65100
N 	N 	0.15370 0.39120 0.82970 -0.85000
H 	H 	0.97430 0.23660 0.58850 -0.01200
C 	C 	0.05880 0.30860 0.93970 0.22800
C 	C 	0.09280 0.30890 0.90120 -0.08400
C 	C 	0.10270 0.26840 0.87930 -0.40200
H 	H 	0.09110 0.24130 0.89000 -0.01800
C 	C 	0.13050 0.26950 0.84110 -0.13200
C 	C 	0.14720 0.30960 0.82520 -0.35600
H 	H 	0.16580 0.30980 0.80000 0.15400
C 	C 	0.13650 0.34970 0.84650 0.35800
C 	C 	0.15670 0.42990 0.83660 1.54600
C 	C 	0.19450 0.46080 0.75820 6.44200
H 	H 	0.20070 0.43320 0.74450 -2.07400
C 	C 	0.17050 0.46220 0.79890 -4.60400
C 	C 	0.14030 0.22640 0.81650 0.16800
C 	C 	0.08390 0.17150 0.72940 0.27000
C 	C 	0.04040 0.18230 0.70590 -0.20900
C 	C 	0.04090 0.20600 0.66510 -0.12800
H 	H 	0.06810 0.21420 0.65170 0.12300
C 	C 	0.10850 0.34960 0.88420 -0.32100
H 	H 	0.10040 0.37660 0.89790 0.09300
C 	C 	0.02620 0.27000 0.58180 0.41800
H 	H 	0.24150 0.46950 0.68770 -2.83700
H 	H 	0.26270 0.51620 0.70070 -2.80200
H 	H 	0.21770 0.51440 0.67300 -2.83700
H 	H 	0.02680 0.41720 0.51470 -0.85600
O 	O 	0.13850 0.38340 0.76630 -0.42200
C 	C 	0.15520 0.40530 0.79790 0.90700
O 	O 	0.56090 0.78020 0.10390 -0.17200
O 	O 	0.54690 0.77060 0.45360 -0.32200
O 	O 	0.54620 0.84660 0.45420 -0.35700
O 	O 	0.66370 0.72920 0.28190 -0.39300
O 	O 	0.62450 0.68980 0.33300 -0.28600
O 	O 	0.62060 0.68690 0.21190 -0.36100
O 	O 	0.58110 0.64770 0.26440 -0.27700
O 	O 	0.65120 0.93820 0.37640 0.26500
N 	N 	0.65370 0.89120 0.32970 0.69900
H 	H 	0.47430 0.73660 0.08850 0.10100
C 	C 	0.55880 0.80860 0.43970 0.43400
C 	C 	0.59280 0.80890 0.40120 -0.04300
C 	C 	0.60270 0.76840 0.37930 0.26100
H 	H 	0.59110 0.74130 0.39000 0.12700
C 	C 	0.63050 0.76950 0.34110 -0.01700
C 	C 	0.64720 0.80960 0.32520 0.16000
H 	H 	0.66580 0.80980 0.30000 0.02200
C 	C 	0.63650 0.84970 0.34650 -0.15400
C 	C 	0.65670 0.92990 0.33660 -1.90000
C 	C 	0.69450 0.96080 0.25820 -10.98700
H 	H 	0.70070 0.93320 0.24450 3.64700
C 	C 	0.67050 0.96220 0.29890 6.88600
C 	C 	0.64030 0.72640 0.31650 0.45900
C 	C 	0.58390 0.67150 0.22940 0.36300
C 	C 	0.54040 0.68230 0.20590 0.08000
C 	C 	0.54090 0.70600 0.16510 -0.15600
H 	H 	0.56810 0.71420 0.15170 0.12800
C 	C 	0.60850 0.84960 0.38420 0.14600
H 	H 	0.60040 0.87660 0.39790 0.03700
C 	C 	0.52620 0.77000 0.08180 0.21800
H 	H 	0.74150 0.96950 0.18770 4.84900
H 	H 	0.76270 0.01620 0.20070 4.94200
H 	H 	0.71770 0.01440 0.17300 5.05700
H 	H 	0.52680 0.91720 0.01470 -0.40700
O 	O 	0.63850 0.88340 0.26630 0.12300
C 	C 	0.65520 0.90530 0.29790 -0.80800
O 	O 	0.93910 0.71980 0.60390 -0.19500
O 	O 	0.95310 0.72940 0.95360 -0.69400
O 	O 	0.95380 0.65340 0.95420 -0.60800
O 	O 	0.83630 0.77080 0.78190 -0.43500
O 	O 	0.87550 0.81020 0.83300 -0.62000
O 	O 	0.87940 0.81310 0.71190 -0.44800
O 	O 	0.91890 0.85230 0.76440 -0.71600
O 	O 	0.84880 0.56180 0.87640 -0.55600
N 	N 	0.84630 0.60880 0.82970 -0.86200
H 	H 	0.02570 0.76340 0.58850 -0.00800
C 	C 	0.94120 0.69140 0.93970 0.22500
C 	C 	0.90720 0.69110 0.90120 -0.12000
C 	C 	0.89730 0.73160 0.87930 -0.38900
H 	H 	0.90890 0.75870 0.89000 -0.09300
C 	C 	0.86950 0.73050 0.84110 -0.16800
C 	C 	0.85280 0.69040 0.82520 -0.35000
H 	H 	0.83420 0.69020 0.80000 0.15300
C 	C 	0.86350 0.65030 0.84650 0.35500
C 	C 	0.84330 0.57010 0.83660 1.55800
C 	C 	0.80550 0.53920 0.75820 6.74700
H 	H 	0.79930 0.56680 0.74450 -2.17700
C 	C 	0.82950 0.53780 0.79890 -4.78700
C 	C 	0.85970 0.77360 0.81650 0.18300
C 	C 	0.91610 0.82850 0.72940 0.31200
C 	C 	0.95960 0.81770 0.70590 -0.49400
C 	C 	0.95910 0.79400 0.66510 -0.40400
H 	H 	0.93190 0.78580 0.65170 0.15700
C 	C 	0.89150 0.65040 0.88420 -0.34500
H 	H 	0.89960 0.62340 0.89790 0.13000
C 	C 	0.97380 0.73000 0.58180 -0.20500
H 	H 	0.75850 0.53050 0.68770 -3.00300
H 	H 	0.73730 0.48380 0.70070 -2.96600
H 	H 	0.78230 0.48560 0.67300 -3.00900
H 	H 	0.97320 0.58280 0.51470 -1.13900
O 	O 	0.86150 0.61660 0.76630 -0.45000
C 	C 	0.84480 0.59470 0.79790 0.92900
O 	O 	0.43910 0.21980 0.10390 0.05800
O 	O 	0.45310 0.22940 0.45360 -0.32300
O 	O 	0.45380 0.15340 0.45420 -0.32600
O 	O 	0.33630 0.27080 0.28190 -0.39400
O 	O 	0.37550 0.31020 0.33300 -0.29200
O 	O 	0.37940 0.31310 0.21190 -0.37100
O 	O 	0.41890 0.35230 0.26440 -0.28700
O 	O 	0.34880 0.06180 0.37640 0.39500
N 	N 	0.34630 0.10880 0.32970 0.68800
H 	H 	0.52570 0.26340 0.08850 0.27300
C 	C 	0.44120 0.19140 0.43970 0.42100
C 	C 	0.40720 0.19110 0.40120 -0.02300
C 	C 	0.39730 0.23160 0.37930 0.23800
H 	H 	0.40890 0.25870 0.39000 0.12700
C 	C 	0.36950 0.23050 0.34110 -0.01000
C 	C 	0.35280 0.19040 0.32520 0.14300
H 	H 	0.33420 0.19020 0.30000 0.02700
C 	C 	0.36350 0.15030 0.34650 -0.12400
C 	C 	0.34330 0.07010 0.33660 -1.84900
C 	C 	0.30550 0.03920 0.25820 -10.47700
H 	H 	0.29930 0.06680 0.24450 3.50700
C 	C 	0.32950 0.03780 0.29890 6.97700
C 	C 	0.35970 0.27360 0.31650 0.45100
C 	C 	0.41610 0.32850 0.22940 0.37000
C 	C 	0.45960 0.31770 0.20590 0.04300
C 	C 	0.45910 0.29400 0.16510 -0.10400
H 	H 	0.43190 0.28580 0.15170 0.09400
C 	C 	0.39150 0.15040 0.38420 0.12700
H 	H 	0.39960 0.12340 0.39790 0.07700
C 	C 	0.47380 0.23000 0.08180 -0.60100
H 	H 	0.25850 0.03050 0.18770 4.53300
H 	H 	0.23730 0.98380 0.20070 4.31600
H 	H 	0.28230 0.98560 0.17300 4.33900
H 	H 	0.47320 0.08280 0.01470 2.57500
O 	O 	0.36150 0.11660 0.26630 0.14700
C 	C 	0.34480 0.09470 0.29790 -0.79700
O 	O 	0.71980 0.93910 0.60390 -0.19500
O 	O 	0.72940 0.95310 0.95360 -0.69400
O 	O 	0.65340 0.95380 0.95420 -0.60800
O 	O 	0.77080 0.83630 0.78190 -0.43500
O 	O 	0.81020 0.87550 0.83300 -0.62000
O 	O 	0.81310 0.87940 0.71190 -0.44800
O 	O 	0.85230 0.91890 0.76440 -0.71600
O 	O 	0.56180 0.84880 0.87640 -0.55600
N 	N 	0.60880 0.84630 0.82970 -0.86200
H 	H 	0.76340 0.02570 0.58850 -0.00800
C 	C 	0.69140 0.94120 0.93970 0.22500
C 	C 	0.69110 0.90720 0.90120 -0.12000
C 	C 	0.73160 0.89730 0.87930 -0.38900
H 	H 	0.75870 0.90890 0.89000 -0.09300
C 	C 	0.73050 0.86950 0.84110 -0.16800
C 	C 	0.69040 0.85280 0.82520 -0.35000
H 	H 	0.69020 0.83420 0.80000 0.15300
C 	C 	0.65030 0.86350 0.84650 0.35500
C 	C 	0.57010 0.84330 0.83660 1.55800
C 	C 	0.53920 0.80550 0.75820 6.74700
H 	H 	0.56680 0.79930 0.74450 -2.17700
C 	C 	0.53780 0.82950 0.79890 -4.78700
C 	C 	0.77360 0.85970 0.81650 0.18300
C 	C 	0.82850 0.91610 0.72940 0.31200
C 	C 	0.81770 0.95960 0.70590 -0.49400
C 	C 	0.79400 0.95910 0.66510 -0.40400
H 	H 	0.78580 0.93190 0.65170 0.15700
C 	C 	0.65040 0.89150 0.88420 -0.34500
H 	H 	0.62340 0.89960 0.89790 0.13000
C 	C 	0.73000 0.97380 0.58180 -0.20500
H 	H 	0.53050 0.75850 0.68770 -3.00300
H 	H 	0.48380 0.73730 0.70070 -2.96600
H 	H 	0.48560 0.78230 0.67300 -3.00900
H 	H 	0.58280 0.97320 0.51470 -1.13900
O 	O 	0.61660 0.86150 0.76630 -0.45000
C 	C 	0.59470 0.84480 0.79790 0.92900
O 	O 	0.21980 0.43910 0.10390 0.05800
O 	O 	0.22940 0.45310 0.45360 -0.32300
O 	O 	0.15340 0.45380 0.45420 -0.32600
O 	O 	0.27080 0.33630 0.28190 -0.39400
O 	O 	0.31020 0.37550 0.33300 -0.29200
O 	O 	0.31310 0.37940 0.21190 -0.37100
O 	O 	0.35230 0.41890 0.26440 -0.28700
O 	O 	0.06180 0.34880 0.37640 0.39500
N 	N 	0.10880 0.34630 0.32970 0.68800
H 	H 	0.26340 0.52570 0.08850 0.27300
C 	C 	0.19140 0.44120 0.43970 0.42100
C 	C 	0.19110 0.40720 0.40120 -0.02300
C 	C 	0.23160 0.39730 0.37930 0.23800
H 	H 	0.25870 0.40890 0.39000 0.12700
C 	C 	0.23050 0.36950 0.34110 -0.01000
C 	C 	0.19040 0.35280 0.32520 0.14300
H 	H 	0.19020 0.33420 0.30000 0.02700
C 	C 	0.15030 0.36350 0.34650 -0.12400
C 	C 	0.07010 0.34330 0.33660 -1.84900
C 	C 	0.03920 0.30550 0.25820 -10.47700
H 	H 	0.06680 0.29930 0.24450 3.50700
C 	C 	0.03780 0.32950 0.29890 6.97700
C 	C 	0.27360 0.35970 0.31650 0.45100
C 	C 	0.32850 0.41610 0.22940 0.37000
C 	C 	0.31770 0.45960 0.20590 0.04300
C 	C 	0.29400 0.45910 0.16510 -0.10400
H 	H 	0.28580 0.43190 0.15170 0.09400
C 	C 	0.15040 0.39150 0.38420 0.12700
H 	H 	0.12340 0.39960 0.39790 0.07700
C 	C 	0.23000 0.47380 0.08180 -0.60100
H 	H 	0.03050 0.25850 0.18770 4.53300
H 	H 	0.98380 0.23730 0.20070 4.31600
H 	H 	0.98560 0.28230 0.17300 4.33900
H 	H 	0.08280 0.47320 0.01470 2.57500
O 	O 	0.11660 0.36150 0.26630 0.14700
C 	C 	0.09470 0.34480 0.29790 -0.79700
O 	O 	0.28020 0.06090 0.60390 -0.27200
O 	O 	0.27060 0.04690 0.95360 -0.48700
O 	O 	0.34660 0.04620 0.95420 -0.49500
O 	O 	0.22920 0.16370 0.78190 -0.42900
O 	O 	0.18980 0.12450 0.83300 -0.54900
O 	O 	0.18690 0.12060 0.71190 -0.40600
O 	O 	0.14770 0.08110 0.76440 -0.54500
O 	O 	0.43820 0.15120 0.87640 -0.65100
N 	N 	0.39120 0.15370 0.82970 -0.85000
H 	H 	0.23660 0.97430 0.58850 -0.01200
C 	C 	0.30860 0.05880 0.93970 0.22800
C 	C 	0.30890 0.09280 0.90120 -0.08400
C 	C 	0.26840 0.10270 0.87930 -0.40200
H 	H 	0.24130 0.09110 0.89000 -0.01800
C 	C 	0.26950 0.13050 0.84110 -0.13200
C 	C 	0.30960 0.14720 0.82520 -0.35600
H 	H 	0.30980 0.16580 0.80000 0.15400
C 	C 	0.34970 0.13650 0.84650 0.35800
C 	C 	0.42990 0.15670 0.83660 1.54600
C 	C 	0.46080 0.19450 0.75820 6.44200
H 	H 	0.43320 0.20070 0.74450 -2.07400
C 	C 	0.46220 0.17050 0.79890 -4.60400
C 	C 	0.22640 0.14030 0.81650 0.16800
C 	C 	0.17150 0.08390 0.72940 0.27000
C 	C 	0.18230 0.04040 0.70590 -0.20900
C 	C 	0.20600 0.04090 0.66510 -0.12800
H 	H 	0.21420 0.06810 0.65170 0.12300
C 	C 	0.34960 0.10850 0.88420 -0.32100
H 	H 	0.37660 0.10040 0.89790 0.09300
C 	C 	0.27000 0.02620 0.58180 0.41800
H 	H 	0.46950 0.24150 0.68770 -2.83700
H 	H 	0.51620 0.26270 0.70070 -2.80200
H 	H 	0.51440 0.21770 0.67300 -2.83700
H 	H 	0.41720 0.02680 0.51470 -0.85600
O 	O 	0.38340 0.13850 0.76630 -0.42200
C 	C 	0.40530 0.15520 0.79790 0.90700
O 	O 	0.78020 0.56090 0.10390 -0.17200
O 	O 	0.77060 0.54690 0.45360 -0.32200
O 	O 	0.84660 0.54620 0.45420 -0.35700
O 	O 	0.72920 0.66370 0.28190 -0.39300
O 	O 	0.68980 0.62450 0.33300 -0.28600
O 	O 	0.68690 0.62060 0.21190 -0.36100
O 	O 	0.64770 0.58110 0.26440 -0.27700
O 	O 	0.93820 0.65120 0.37640 0.26500
N 	N 	0.89120 0.65370 0.32970 0.69900
H 	H 	0.73660 0.47430 0.08850 0.10100
C 	C 	0.80860 0.55880 0.43970 0.43400
C 	C 	0.80890 0.59280 0.40120 -0.04300
C 	C 	0.76840 0.60270 0.37930 0.26100
H 	H 	0.74130 0.59110 0.39000 0.12700
C 	C 	0.76950 0.63050 0.34110 -0.01700
C 	C 	0.80960 0.64720 0.32520 0.16000
H 	H 	0.80980 0.66580 0.30000 0.02200
C 	C 	0.84970 0.63650 0.34650 -0.15400
C 	C 	0.92990 0.65670 0.33660 -1.90000
C 	C 	0.96080 0.69450 0.25820 -10.98700
H 	H 	0.93320 0.70070 0.24450 3.64700
C 	C 	0.96220 0.67050 0.29890 6.88600
C 	C 	0.72640 0.64030 0.31650 0.45900
C 	C 	0.67150 0.58390 0.22940 0.36300
C 	C 	0.68230 0.54040 0.20590 0.08000
C 	C 	0.70600 0.54090 0.16510 -0.15600
H 	H 	0.71420 0.56810 0.15170 0.12800
C 	C 	0.84960 0.60850 0.38420 0.14600
H 	H 	0.87660 0.60040 0.39790 0.03700
C 	C 	0.77000 0.52620 0.08180 0.21800
H 	H 	0.96950 0.74150 0.18770 4.84900
H 	H 	0.01620 0.76270 0.20070 4.94200
H 	H 	0.01440 0.71770 0.17300 5.05700
H 	H 	0.91720 0.52680 0.01470 -0.40700
O 	O 	0.88340 0.63850 0.26630 0.12300
C 	C 	0.90530 0.65520 0.29790 -0.80800
O 	O 	0.06090 0.71980 0.60390 -0.28800
O 	O 	0.04690 0.72940 0.95360 -0.50500
O 	O 	0.04620 0.65340 0.95420 -0.49700
O 	O 	0.16370 0.77080 0.78190 -0.43100
O 	O 	0.12450 0.81020 0.83300 -0.57400
O 	O 	0.12060 0.81310 0.71190 -0.42100
O 	O 	0.08110 0.85230 0.76440 -0.59600
O 	O 	0.15120 0.56180 0.87640 -0.65100
N 	N 	0.15370 0.60880 0.82970 -0.84900
H 	H 	0.97430 0.76340 0.58850 -0.03700
C 	C 	0.05880 0.69140 0.93970 0.23200
C 	C 	0.09280 0.69110 0.90120 -0.09600
C 	C 	0.10270 0.73160 0.87930 -0.39700
H 	H 	0.09110 0.75870 0.89000 -0.03800
C 	C 	0.13050 0.73050 0.84110 -0.14700
C 	C 	0.14720 0.69040 0.82520 -0.34900
H 	H 	0.16580 0.69020 0.80000 0.15100
C 	C 	0.13650 0.65030 0.84650 0.35300
C 	C 	0.15670 0.57010 0.83660 1.54500
C 	C 	0.19450 0.53920 0.75820 6.44200
H 	H 	0.20070 0.56680 0.74450 -2.07400
C 	C 	0.17050 0.53780 0.79890 -4.60300
C 	C 	0.14030 0.77360 0.81650 0.17400
C 	C 	0.08390 0.82850 0.72940 0.27400
C 	C 	0.04040 0.81770 0.70590 -0.25500
C 	C 	0.04090 0.79400 0.66510 -0.11700
H 	H 	0.06810 0.78580 0.65170 0.10600
C 	C 	0.10850 0.65040 0.88420 -0.31500
H 	H 	0.10040 0.62340 0.89790 0.09100
C 	C 	0.02620 0.73000 0.58180 0.45400
H 	H 	0.24150 0.53050 0.68770 -2.83700
H 	H 	0.26270 0.48380 0.70070 -2.80200
H 	H 	0.21770 0.48560 0.67300 -2.83700
H 	H 	0.02680 0.58280 0.51470 -0.96000
O 	O 	0.13850 0.61660 0.76630 -0.42400
C 	C 	0.15520 0.59470 0.79790 0.90800
O 	O 	0.56090 0.21980 0.10390 0.05900
O 	O 	0.54690 0.22940 0.45360 -0.32300
O 	O 	0.54620 0.15340 0.45420 -0.32400
O 	O 	0.66370 0.27080 0.28190 -0.39400
O 	O 	0.62450 0.31020 0.33300 -0.29200
O 	O 	0.62060 0.31310 0.21190 -0.36900
O 	O 	0.58110 0.35230 0.26440 -0.28600
O 	O 	0.65120 0.06180 0.37640 0.41000
N 	N 	0.65370 0.10880 0.32970 0.70700
H 	H 	0.47430 0.26340 0.08850 0.27200
C 	C 	0.55880 0.19140 0.43970 0.42100
C 	C 	0.59280 0.19110 0.40120 -0.02400
C 	C 	0.60270 0.23160 0.37930 0.23900
H 	H 	0.59110 0.25870 0.39000 0.12700
C 	C 	0.63050 0.23050 0.34110 -0.01200
C 	C 	0.64720 0.19040 0.32520 0.14700
H 	H 	0.66580 0.19020 0.30000 0.02600
C 	C 	0.63650 0.15030 0.34650 -0.13100
C 	C 	0.65670 0.07010 0.33660 -1.89400
C 	C 	0.69450 0.03920 0.25820 -10.69400
H 	H 	0.70070 0.06680 0.24450 3.57900
C 	C 	0.67050 0.03780 0.29890 7.13000
C 	C 	0.64030 0.27360 0.31650 0.45100
C 	C 	0.58390 0.32850 0.22940 0.37000
C 	C 	0.54040 0.31770 0.20590 0.04400
C 	C 	0.54090 0.29400 0.16510 -0.10400
H 	H 	0.56810 0.28580 0.15170 0.09600
C 	C 	0.60850 0.15040 0.38420 0.12900
H 	H 	0.60040 0.12340 0.39790 0.07800
C 	C 	0.52620 0.23000 0.08180 -0.60100
H 	H 	0.74150 0.03050 0.18770 4.62700
H 	H 	0.76270 0.98380 0.20070 4.40700
H 	H 	0.71770 0.98560 0.17300 4.43400
H 	H 	0.52680 0.08280 0.01470 2.57500
O 	O 	0.63850 0.11660 0.26630 0.15300
C 	C 	0.65520 0.09470 0.29790 -0.81800
O 	O 	0.93910 0.28020 0.60390 -0.18000
O 	O 	0.95310 0.27060 0.95360 -0.67600
O 	O 	0.95380 0.34660 0.95420 -0.60700
O 	O 	0.83630 0.22920 0.78190 -0.43300
O 	O 	0.87550 0.18980 0.83300 -0.59400
O 	O 	0.87940 0.18690 0.71190 -0.43300
O 	O 	0.91890 0.14770 0.76440 -0.66500
O 	O 	0.84880 0.43820 0.87640 -0.55600
N 	N 	0.84630 0.39120 0.82970 -0.86300
H 	H 	0.02570 0.23660 0.58850 0.01700
C 	C 	0.94120 0.30860 0.93970 0.22100
C 	C 	0.90720 0.30890 0.90120 -0.10800
C 	C 	0.89730 0.26840 0.87930 -0.39400
H 	H 	0.90890 0.24130 0.89000 -0.07300
C 	C 	0.86950 0.26950 0.84110 -0.15300
C 	C 	0.85280 0.30960 0.82520 -0.35600
H 	H 	0.83420 0.30980 0.80000 0.15500
C 	C 	0.86350 0.34970 0.84650 0.36000
C 	C 	0.84330 0.42990 0.83660 1.55800
C 	C 	0.80550 0.46080 0.75820 6.74700
H 	H 	0.79930 0.43320 0.74450 -2.17800
C 	C 	0.82950 0.46220 0.79890 -4.78800
C 	C 	0.85970 0.22640 0.81650 0.17700
C 	C 	0.91610 0.17150 0.72940 0.30700
C 	C 	0.95960 0.18230 0.70590 -0.44800
C 	C 	0.95910 0.20600 0.66510 -0.41400
H 	H 	0.93190 0.21420 0.65170 0.17300
C 	C 	0.89150 0.34960 0.88420 -0.35000
H 	H 	0.89960 0.37660 0.89790 0.13200
C 	C 	0.97380 0.27000 0.58180 -0.24000
H 	H 	0.75850 0.46950 0.68770 -3.00300
H 	H 	0.73730 0.51620 0.70070 -2.96600
H 	H 	0.78230 0.51440 0.67300 -3.00900
H 	H 	0.97320 0.41720 0.51470 -1.03500
O 	O 	0.86150 0.38340 0.76630 -0.44800
C 	C 	0.84480 0.40530 0.79790 0.92700
O 	O 	0.43910 0.78020 0.10390 -0.17400
O 	O 	0.45310 0.77060 0.45360 -0.32200
O 	O 	0.45380 0.84660 0.45420 -0.36000
O 	O 	0.33630 0.72920 0.28190 -0.39300
O 	O 	0.37550 0.68980 0.33300 -0.28600
O 	O 	0.37940 0.68690 0.21190 -0.36300
O 	O 	0.41890 0.64770 0.26440 -0.27700
O 	O 	0.34880 0.93820 0.37640 0.24900
N 	N 	0.34630 0.89120 0.32970 0.67900
H 	H 	0.52570 0.73660 0.08850 0.10200
C 	C 	0.44120 0.80860 0.43970 0.43400
C 	C 	0.40720 0.80890 0.40120 -0.04200
C 	C 	0.39730 0.76840 0.37930 0.26000
H 	H 	0.40890 0.74130 0.39000 0.12800
C 	C 	0.36950 0.76950 0.34110 -0.01400
C 	C 	0.35280 0.80960 0.32520 0.15700
H 	H 	0.33420 0.80980 0.30000 0.02400
C 	C 	0.36350 0.84970 0.34650 -0.14700
C 	C 	0.34330 0.92990 0.33660 -1.85500
C 	C 	0.30550 0.96080 0.25820 -10.77000
H 	H 	0.29930 0.93320 0.24450 3.57500
C 	C 	0.32950 0.96220 0.29890 6.73300
C 	C 	0.35970 0.72640 0.31650 0.45900
C 	C 	0.41610 0.67150 0.22940 0.36300
C 	C 	0.45960 0.68230 0.20590 0.07900
C 	C 	0.45910 0.70600 0.16510 -0.15600
H 	H 	0.43190 0.71420 0.15170 0.12600
C 	C 	0.39150 0.84960 0.38420 0.14400
H 	H 	0.39960 0.87660 0.39790 0.03600
C 	C 	0.47380 0.77000 0.08180 0.21800
H 	H 	0.25850 0.96950 0.18770 4.75500
H 	H 	0.23730 0.01620 0.20070 4.85100
H 	H 	0.28230 0.01440 0.17300 4.96200
H 	H 	0.47320 0.91720 0.01470 -0.40700
O 	O 	0.36150 0.88340 0.26630 0.11700
C 	C 	0.34480 0.90530 0.29790 -0.78700
O 	O 	0.28020 0.93910 0.39610 -0.18000
O 	O 	0.27060 0.95310 0.04640 -0.64300
O 	O 	0.34660 0.95380 0.04580 -0.57500
O 	O 	0.22920 0.83630 0.21810 -0.43200
O 	O 	0.18980 0.87550 0.16700 -0.58800
O 	O 	0.18690 0.87940 0.28810 -0.43300
O 	O 	0.14770 0.91890 0.23560 -0.66300
O 	O 	0.43820 0.84880 0.12360 -0.55100
N 	N 	0.39120 0.84630 0.17030 -0.86300
H 	H 	0.23660 0.02570 0.41150 0.01600
C 	C 	0.30860 0.94120 0.06030 0.21600
C 	C 	0.30890 0.90720 0.09880 -0.09300
C 	C 	0.26840 0.89730 0.12070 -0.40100
H 	H 	0.24130 0.90890 0.11000 -0.06300
C 	C 	0.26950 0.86950 0.15890 -0.14500
C 	C 	0.30960 0.85280 0.17480 -0.36000
H 	H 	0.30980 0.83420 0.20000 0.15700
C 	C 	0.34970 0.86350 0.15350 0.36700
C 	C 	0.42990 0.84330 0.16340 1.55800
C 	C 	0.46080 0.80550 0.24180 6.75100
H 	H 	0.43320 0.79930 0.25550 -2.17900
C 	C 	0.46220 0.82950 0.20110 -4.79000
C 	C 	0.22640 0.85970 0.18350 0.17400
C 	C 	0.17150 0.91610 0.27060 0.30600
C 	C 	0.18230 0.95960 0.29410 -0.44800
C 	C 	0.20600 0.95910 0.33490 -0.41600
H 	H 	0.21420 0.93190 0.34830 0.17400
C 	C 	0.34960 0.89150 0.11580 -0.35600
H 	H 	0.37660 0.89960 0.10210 0.14000
C 	C 	0.27000 0.97380 0.41820 -0.24100
H 	H 	0.46950 0.75850 0.31230 -3.00500
H 	H 	0.51620 0.73730 0.29930 -2.96800
H 	H 	0.51440 0.78230 0.32700 -3.01100
H 	H 	0.41720 0.97320 0.48530 -1.03500
O 	O 	0.38340 0.86150 0.23370 -0.44900
C 	C 	0.40530 0.84480 0.20210 0.92900
O 	O 	0.78020 0.43910 0.89610 -0.18400
O 	O 	0.77060 0.45310 0.54640 -0.32200
O 	O 	0.84660 0.45380 0.54580 -0.36000
O 	O 	0.72920 0.33630 0.71810 -0.39400
O 	O 	0.68980 0.37550 0.66700 -0.28600
O 	O 	0.68690 0.37940 0.78810 -0.36700
O 	O 	0.64770 0.41890 0.73560 -0.27900
O 	O 	0.93820 0.34880 0.62360 0.24800
N 	N 	0.89120 0.34630 0.67030 0.67700
H 	H 	0.73660 0.52570 0.91150 0.08900
C 	C 	0.80860 0.44120 0.56030 0.43400
C 	C 	0.80890 0.40720 0.59880 -0.04100
C 	C 	0.76840 0.39730 0.62070 0.26000
H 	H 	0.74130 0.40890 0.61000 0.12800
C 	C 	0.76950 0.36950 0.65890 -0.01400
C 	C 	0.80960 0.35280 0.67480 0.15600
H 	H 	0.80980 0.33420 0.70000 0.02400
C 	C 	0.84970 0.36350 0.65350 -0.14600
C 	C 	0.92990 0.34330 0.66340 -1.84800
C 	C 	0.96080 0.30550 0.74180 -10.73700
H 	H 	0.93320 0.29930 0.75550 3.56500
C 	C 	0.96220 0.32950 0.70110 6.71200
C 	C 	0.72640 0.35970 0.68350 0.45900
C 	C 	0.67150 0.41610 0.77060 0.36400
C 	C 	0.68230 0.45960 0.79410 0.07300
C 	C 	0.70600 0.45910 0.83490 -0.15300
H 	H 	0.71420 0.43190 0.84830 0.12000
C 	C 	0.84960 0.39150 0.61580 0.14300
H 	H 	0.87660 0.39960 0.60210 0.03700
C 	C 	0.77000 0.47380 0.91820 0.22300
H 	H 	0.96950 0.25850 0.81230 4.74000
H 	H 	0.01620 0.23730 0.79930 4.83500
H 	H 	0.01440 0.28230 0.82700 4.94700
H 	H 	0.91720 0.47320 0.98530 -0.50400
O 	O 	0.88340 0.36150 0.73370 0.11700
C 	C 	0.90530 0.34480 0.70210 -0.78400
O 	O 	0.71980 0.06090 0.39610 -0.28800
O 	O 	0.72940 0.04690 0.04640 -0.47000
O 	O 	0.65340 0.04620 0.04580 -0.46300
O 	O 	0.77080 0.16370 0.21810 -0.43000
O 	O 	0.81020 0.12450 0.16700 -0.56800
O 	O 	0.81310 0.12060 0.28810 -0.42100
O 	O 	0.85230 0.08110 0.23560 -0.59400
O 	O 	0.56180 0.15120 0.12360 -0.64500
N 	N 	0.60880 0.15370 0.17030 -0.84900
H 	H 	0.76340 0.97430 0.41150 -0.03700
C 	C 	0.69140 0.05880 0.06030 0.22600
C 	C 	0.69110 0.09280 0.09880 -0.08000
C 	C 	0.73160 0.10270 0.12070 -0.40400
H 	H 	0.75870 0.09110 0.11000 -0.02900
C 	C 	0.73050 0.13050 0.15890 -0.13800
C 	C 	0.69040 0.14720 0.17480 -0.35400
H 	H 	0.69020 0.16580 0.20000 0.15400
C 	C 	0.65030 0.13650 0.15350 0.36000
C 	C 	0.57010 0.15670 0.16340 1.54500
C 	C 	0.53920 0.19450 0.24180 6.44600
H 	H 	0.56680 0.20070 0.25550 -2.07500
C 	C 	0.53780 0.17050 0.20110 -4.60600
C 	C 	0.77360 0.14030 0.18350 0.17200
C 	C 	0.82850 0.08390 0.27060 0.27300
C 	C 	0.81770 0.04040 0.29410 -0.25400
C 	C 	0.79400 0.04090 0.33490 -0.11800
H 	H 	0.78580 0.06810 0.34830 0.10700
C 	C 	0.65040 0.10850 0.11580 -0.32100
H 	H 	0.62340 0.10040 0.10210 0.10000
C 	C 	0.73000 0.02620 0.41820 0.45400
H 	H 	0.53050 0.24150 0.31230 -2.83900
H 	H 	0.48380 0.26270 0.29930 -2.80500
H 	H 	0.48560 0.21770 0.32700 -2.84000
H 	H 	0.58280 0.02680 0.48530 -0.96000
O 	O 	0.61660 0.13850 0.23370 -0.42500
C 	C 	0.59470 0.15520 0.20210 0.91000
O 	O 	0.21980 0.56090 0.89610 0.04800
O 	O 	0.22940 0.54690 0.54640 -0.32300
O 	O 	0.15340 0.54620 0.54580 -0.32400
O 	O 	0.27080 0.66370 0.71810 -0.39500
O 	O 	0.31020 0.62450 0.66700 -0.29200
O 	O 	0.31310 0.62060 0.78810 -0.37300
O 	O 	0.35230 0.58110 0.73560 -0.28800
O 	O 	0.06180 0.65120 0.62360 0.40900
N 	N 	0.10880 0.65370 0.67030 0.70400
H 	H 	0.26340 0.47430 0.91150 0.26000
C 	C 	0.19140 0.55880 0.56030 0.42000
C 	C 	0.19110 0.59280 0.59880 -0.02400
C 	C 	0.23160 0.60270 0.62070 0.23900
H 	H 	0.25870 0.59110 0.61000 0.12700
C 	C 	0.23050 0.63050 0.65890 -0.01200
C 	C 	0.19040 0.64720 0.67480 0.14600
H 	H 	0.19020 0.66580 0.70000 0.02600
C 	C 	0.15030 0.63650 0.65350 -0.13000
C 	C 	0.07010 0.65670 0.66340 -1.88700
C 	C 	0.03920 0.69450 0.74180 -10.66000
H 	H 	0.06680 0.70070 0.75550 3.56800
C 	C 	0.03780 0.67050 0.70110 7.10700
C 	C 	0.27360 0.64030 0.68350 0.45100
C 	C 	0.32850 0.58390 0.77060 0.37100
C 	C 	0.31770 0.54040 0.79410 0.03800
C 	C 	0.29400 0.54090 0.83490 -0.10000
H 	H 	0.28580 0.56810 0.84830 0.09000
C 	C 	0.15040 0.60850 0.61580 0.12800
H 	H 	0.12340 0.60040 0.60210 0.07800
C 	C 	0.23000 0.52620 0.91820 -0.59600
H 	H 	0.03050 0.74150 0.81230 4.61300
H 	H 	0.98380 0.76270 0.79930 4.39200
H 	H 	0.98560 0.71770 0.82700 4.42000
H 	H 	0.08280 0.52680 0.98530 2.47600
O 	O 	0.11660 0.63850 0.73370 0.15200
C 	C 	0.09470 0.65520 0.70210 -0.81500
O 	O 	0.93910 0.71980 0.39610 -0.19500
O 	O 	0.95310 0.72940 0.04640 -0.66100
O 	O 	0.95380 0.65340 0.04580 -0.57700
O 	O 	0.83630 0.77080 0.21810 -0.43300
O 	O 	0.87550 0.81020 0.16700 -0.61400
O 	O 	0.87940 0.81310 0.28810 -0.44800
O 	O 	0.91890 0.85230 0.23560 -0.71400
O 	O 	0.84880 0.56180 0.12360 -0.55000
N 	N 	0.84630 0.60880 0.17030 -0.86200
H 	H 	0.02570 0.76340 0.41150 -0.00800
C 	C 	0.94120 0.69140 0.06030 0.22000
C 	C 	0.90720 0.69110 0.09880 -0.10500
C 	C 	0.89730 0.73160 0.12070 -0.39600
H 	H 	0.90890 0.75870 0.11000 -0.08400
C 	C 	0.86950 0.73050 0.15890 -0.16000
C 	C 	0.85280 0.69040 0.17480 -0.35400
H 	H 	0.83420 0.69020 0.20000 0.15500
C 	C 	0.86350 0.65030 0.15350 0.36200
C 	C 	0.84330 0.57010 0.16340 1.55700
C 	C 	0.80550 0.53920 0.24180 6.75100
H 	H 	0.79930 0.56680 0.25550 -2.17800
C 	C 	0.82950 0.53780 0.20110 -4.78900
C 	C 	0.85970 0.77360 0.18350 0.18100
C 	C 	0.91610 0.82850 0.27060 0.31100
C 	C 	0.95960 0.81770 0.29410 -0.49400
C 	C 	0.95910 0.79400 0.33490 -0.40500
H 	H 	0.93190 0.78580 0.34830 0.15800
C 	C 	0.89150 0.65040 0.11580 -0.35100
H 	H 	0.89960 0.62340 0.10210 0.13800
C 	C 	0.97380 0.73000 0.41820 -0.20600
H 	H 	0.75850 0.53050 0.31230 -3.00500
H 	H 	0.73730 0.48380 0.29930 -2.96800
H 	H 	0.78230 0.48560 0.32700 -3.01100
H 	H 	0.97320 0.58280 0.48530 -1.13900
O 	O 	0.86150 0.61660 0.23370 -0.45100
C 	C 	0.84480 0.59470 0.20210 0.93000
O 	O 	0.43910 0.21980 0.89610 0.04700
O 	O 	0.45310 0.22940 0.54640 -0.32300
O 	O 	0.45380 0.15340 0.54580 -0.32600
O 	O 	0.33630 0.27080 0.71810 -0.39500
O 	O 	0.37550 0.31020 0.66700 -0.29200
O 	O 	0.37940 0.31310 0.78810 -0.37500
O 	O 	0.41890 0.35230 0.73560 -0.28800
O 	O 	0.34880 0.06180 0.62360 0.39300
N 	N 	0.34630 0.10880 0.67030 0.68500
H 	H 	0.52570 0.26340 0.91150 0.26000
C 	C 	0.44120 0.19140 0.56030 0.42100
C 	C 	0.40720 0.19110 0.59880 -0.02300
C 	C 	0.39730 0.23160 0.62070 0.23800
H 	H 	0.40890 0.25870 0.61000 0.12700
C 	C 	0.36950 0.23050 0.65890 -0.01000
C 	C 	0.35280 0.19040 0.67480 0.14300
H 	H 	0.33420 0.19020 0.70000 0.02700
C 	C 	0.36350 0.15030 0.65350 -0.12300
C 	C 	0.34330 0.07010 0.66340 -1.84200
C 	C 	0.30550 0.03920 0.74180 -10.44500
H 	H 	0.29930 0.06680 0.75550 3.49700
C 	C 	0.32950 0.03780 0.70110 6.95500
C 	C 	0.35970 0.27360 0.68350 0.45100
C 	C 	0.41610 0.32850 0.77060 0.37100
C 	C 	0.45960 0.31770 0.79410 0.03700
C 	C 	0.45910 0.29400 0.83490 -0.10000
H 	H 	0.43190 0.28580 0.84830 0.08800
C 	C 	0.39150 0.15040 0.61580 0.12600
H 	H 	0.39960 0.12340 0.60210 0.07700
C 	C 	0.47380 0.23000 0.91820 -0.59600
H 	H 	0.25850 0.03050 0.81230 4.51900
H 	H 	0.23730 0.98380 0.79930 4.30200
H 	H 	0.28230 0.98560 0.82700 4.32600
H 	H 	0.47320 0.08280 0.98530 2.47500
O 	O 	0.36150 0.11660 0.73370 0.14700
C 	C 	0.34480 0.09470 0.70210 -0.79400
O 	O 	0.06090 0.28020 0.39610 -0.27200
O 	O 	0.04690 0.27060 0.04640 -0.45100
O 	O 	0.04620 0.34660 0.04580 -0.46100
O 	O 	0.16370 0.22920 0.21810 -0.42800
O 	O 	0.12450 0.18980 0.16700 -0.54200
O 	O 	0.12060 0.18690 0.28810 -0.40600
O 	O 	0.08110 0.14770 0.23560 -0.54300
O 	O 	0.15120 0.43820 0.12360 -0.64600
N 	N 	0.15370 0.39120 0.17030 -0.85000
H 	H 	0.97430 0.23660 0.41150 -0.01200
C 	C 	0.05880 0.30860 0.06030 0.22200
C 	C 	0.09280 0.30890 0.09880 -0.06800
C 	C 	0.10270 0.26840 0.12070 -0.41000
H 	H 	0.09110 0.24130 0.11000 -0.00900
C 	C 	0.13050 0.26950 0.15890 -0.12300
C 	C 	0.14720 0.30960 0.17480 -0.36000
H 	H 	0.16580 0.30980 0.20000 0.15600
C 	C 	0.13650 0.34970 0.15350 0.36500
C 	C 	0.15670 0.42990 0.16340 1.54600
C 	C 	0.19450 0.46080 0.24180 6.44600
H 	H 	0.20070 0.43320 0.25550 -2.07600
C 	C 	0.17050 0.46220 0.20110 -4.60600
C 	C 	0.14030 0.22640 0.18350 0.16600
C 	C 	0.08390 0.17150 0.27060 0.26900
C 	C 	0.04040 0.18230 0.29410 -0.20800
C 	C 	0.04090 0.20600 0.33490 -0.12900
H 	H 	0.06810 0.21420 0.34830 0.12300
C 	C 	0.10850 0.34960 0.11580 -0.32600
H 	H 	0.10040 0.37660 0.10210 0.10200
C 	C 	0.02620 0.27000 0.41820 0.41800
H 	H 	0.24150 0.46950 0.31230 -2.83900
H 	H 	0.26270 0.51620 0.29930 -2.80500
H 	H 	0.21770 0.51440 0.32700 -2.84000
H 	H 	0.02680 0.41720 0.48530 -0.85600
O 	O 	0.13850 0.38340 0.23370 -0.42300
C 	C 	0.15520 0.40530 0.20210 0.90900
O 	O 	0.56090 0.78020 0.89610 -0.18300
O 	O 	0.54690 0.77060 0.54640 -0.32200
O 	O 	0.54620 0.84660 0.54580 -0.35700
O 	O 	0.66370 0.72920 0.71810 -0.39300
O 	O 	0.62450 0.68980 0.66700 -0.28600
O 	O 	0.62060 0.68690 0.78810 -0.36500
O 	O 	0.58110 0.64770 0.73560 -0.27800
O 	O 	0.65120 0.93820 0.62360 0.26400
N 	N 	0.65370 0.89120 0.67030 0.69600
H 	H 	0.47430 0.73660 0.91150 0.08800
C 	C 	0.55880 0.80860 0.56030 0.43400
C 	C 	0.59280 0.80890 0.59880 -0.04300
C 	C 	0.60270 0.76840 0.62070 0.26100
H 	H 	0.59110 0.74130 0.61000 0.12700
C 	C 	0.63050 0.76950 0.65890 -0.01600
C 	C 	0.64720 0.80960 0.67480 0.16000
H 	H 	0.66580 0.80980 0.70000 0.02200
C 	C 	0.63650 0.84970 0.65350 -0.15300
C 	C 	0.65670 0.92990 0.66340 -1.89300
C 	C 	0.69450 0.96080 0.74180 -10.95200
H 	H 	0.70070 0.93320 0.75550 3.63600
C 	C 	0.67050 0.96220 0.70110 6.86400
C 	C 	0.64030 0.72640 0.68350 0.45900
C 	C 	0.58390 0.67150 0.77060 0.36400
C 	C 	0.54040 0.68230 0.79410 0.07400
C 	C 	0.54090 0.70600 0.83490 -0.15300
H 	H 	0.56810 0.71420 0.84830 0.12200
C 	C 	0.60850 0.84960 0.61580 0.14600
H 	H 	0.60040 0.87660 0.60210 0.03800
C 	C 	0.52620 0.77000 0.91820 0.22300
H 	H 	0.74150 0.96950 0.81230 4.83400
H 	H 	0.76270 0.01620 0.79930 4.92600
H 	H 	0.71770 0.01440 0.82700 5.04100
H 	H 	0.52680 0.91720 0.98530 -0.50300
O 	O 	0.63850 0.88340 0.73370 0.12200
C 	C 	0.65520 0.90530 0.70210 -0.80400
Cu	Cu	0.17844 0.17844 0.25768 0.89500
Cu	Cu	0.13220 0.13220 0.19742 0.87200
Cu	Cu	0.67844 0.67844 0.75768 0.91400
Cu	Cu	0.63220 0.63220 0.69742 0.94200
Cu	Cu	0.82156 0.82156 0.25768 0.89600
Cu	Cu	0.86780 0.86780 0.19742 0.82700
Cu	Cu	0.32156 0.32156 0.75768 0.91100
Cu	Cu	0.36780 0.36780 0.69742 0.94000
Cu	Cu	0.82156 0.17844 0.25768 0.89600
Cu	Cu	0.86780 0.13220 0.19742 0.85000
Cu	Cu	0.32156 0.67844 0.75768 0.91300
Cu	Cu	0.36780 0.63220 0.69742 0.94100
Cu	Cu	0.17844 0.82156 0.25768 0.89600
Cu	Cu	0.13220 0.86780 0.19742 0.85000
Cu	Cu	0.67844 0.32156 0.75768 0.91300
Cu	Cu	0.63220 0.36780 0.69742 0.94100
Cu	Cu	0.82156 0.17844 0.74232 0.89600
Cu	Cu	0.86780 0.13220 0.80258 0.84800
Cu	Cu	0.32156 0.67844 0.24232 0.91400
Cu	Cu	0.36780 0.63220 0.30258 0.94100
Cu	Cu	0.17844 0.82156 0.74232 0.89600
Cu	Cu	0.13220 0.86780 0.80258 0.84800
Cu	Cu	0.67844 0.32156 0.24232 0.91400
Cu	Cu	0.63220 0.36780 0.30258 0.94100
Cu	Cu	0.17844 0.17844 0.74232 0.89600
Cu	Cu	0.13220 0.13220 0.80258 0.87000
Cu	Cu	0.67844 0.67844 0.24232 0.91500
Cu	Cu	0.63220 0.63220 0.30258 0.94200
Cu	Cu	0.82156 0.82156 0.74232 0.89600
Cu	Cu	0.86780 0.86780 0.80258 0.82500
Cu	Cu	0.32156 0.32156 0.24232 0.91200
Cu	Cu	0.36780 0.36780 0.30258 0.94000
Cu	Cu	0.35308 0.00000 -0.00000 1.00600
Cu	Cu	0.26384 0.00000 -0.00000 1.01000
Cu	Cu	0.85308 0.50000 0.50000 0.93900
Cu	Cu	0.76384 0.50000 0.50000 0.93400
Cu	Cu	0.64692 0.00000 -0.00000 1.00700
Cu	Cu	0.73616 0.00000 -0.00000 1.00000
Cu	Cu	0.14692 0.50000 0.50000 0.95600
Cu	Cu	0.23616 0.50000 0.50000 0.93100
Cu	Cu	-0.00000 0.35308 -0.00000 1.00600
Cu	Cu	-0.00000 0.26384 -0.00000 1.01000
Cu	Cu	0.50000 0.85308 0.50000 0.93900
Cu	Cu	0.50000 0.76384 0.50000 0.93400
Cu	Cu	-0.00000 0.64692 -0.00000 1.00700
Cu	Cu	-0.00000 0.73616 -0.00000 1.00000
Cu	Cu	0.50000 0.14692 0.50000 0.95600
Cu	Cu	0.50000 0.23616 0.50000 0.93100
N 	N 	0.24160 0.00000 0.39610 -0.06200
C 	C 	0.17000 0.00000 0.27520 0.25200
H 	H 	0.15300 0.00000 0.24890 -0.16100
C 	C 	0.21730 0.00000 0.35520 0.47700
C 	C 	0.33210 0.00000 0.45960 1.25100
H 	H 	0.34740 0.00000 0.43220 -0.33700
C 	C 	0.28560 0.00000 0.45960 -0.43900
H 	H 	0.41720 0.00000 0.53050 -0.72600
N 	N 	0.74160 0.50000 0.89610 -0.30000
C 	C 	0.67000 0.50000 0.77520 0.06000
H 	H 	0.65300 0.50000 0.74890 0.20300
C 	C 	0.71730 0.50000 0.85520 0.20100
C 	C 	0.83210 0.50000 0.95960 0.57800
H 	H 	0.84740 0.50000 0.93220 -0.08100
C 	C 	0.78560 0.50000 0.95960 -0.45100
H 	H 	0.91720 0.50000 0.03050 -0.51200
N 	N 	0.75840 0.00000 0.39610 -0.05600
C 	C 	0.83000 0.00000 0.27520 0.26700
H 	H 	0.84700 0.00000 0.24890 -0.20900
C 	C 	0.78270 0.00000 0.35520 0.44900
C 	C 	0.66790 0.00000 0.45960 1.44800
H 	H 	0.65260 0.00000 0.43220 -0.40500
C 	C 	0.71440 0.00000 0.45960 -0.56900
H 	H 	0.58280 0.00000 0.53050 -0.83900
N 	N 	0.25840 0.50000 0.89610 -0.17000
C 	C 	0.33000 0.50000 0.77520 0.08300
H 	H 	0.34700 0.50000 0.74890 0.18600
C 	C 	0.28270 0.50000 0.85520 0.10200
C 	C 	0.16790 0.50000 0.95960 -4.68000
H 	H 	0.15260 0.50000 0.93220 1.67100
C 	C 	0.21440 0.50000 0.95960 2.65000
H 	H 	0.08280 0.50000 0.03050 2.74400
N 	N 	0.00000 0.24160 0.39610 -0.06200
C 	C 	0.00000 0.17000 0.27520 0.25200
H 	H 	0.00000 0.15300 0.24890 -0.16100
C 	C 	0.00000 0.21730 0.35520 0.47700
C 	C 	0.00000 0.33210 0.45960 1.25100
H 	H 	-0.00000 0.34740 0.43220 -0.33700
C 	C 	0.00000 0.28560 0.45960 -0.43900
H 	H 	-0.00000 0.41720 0.53050 -0.72600
N 	N 	0.50000 0.74160 0.89610 -0.30000
C 	C 	0.50000 0.67000 0.77520 0.06000
H 	H 	0.50000 0.65300 0.74890 0.20300
C 	C 	0.50000 0.71730 0.85520 0.20100
C 	C 	0.50000 0.83210 0.95960 0.57800
H 	H 	0.50000 0.84740 0.93220 -0.08100
C 	C 	0.50000 0.78560 0.95960 -0.45100
H 	H 	0.50000 0.91720 0.03050 -0.51200
N 	N 	-0.00000 0.75840 0.39610 -0.05600
C 	C 	0.00000 0.83000 0.27520 0.26700
H 	H 	-0.00000 0.84700 0.24890 -0.20900
C 	C 	0.00000 0.78270 0.35520 0.44900
C 	C 	-0.00000 0.66790 0.45960 1.44800
H 	H 	-0.00000 0.65260 0.43220 -0.40500
C 	C 	0.00000 0.71440 0.45960 -0.56900
H 	H 	0.00000 0.58280 0.53050 -0.83900
N 	N 	0.50000 0.25840 0.89610 -0.17000
C 	C 	0.50000 0.33000 0.77520 0.08300
H 	H 	0.50000 0.34700 0.74890 0.18600
C 	C 	0.50000 0.28270 0.85520 0.10200
C 	C 	0.50000 0.16790 0.95960 -4.68000
H 	H 	0.50000 0.15260 0.93220 1.67100
C 	C 	0.50000 0.21440 0.95960 2.65000
H 	H 	0.50000 0.08280 0.03050 2.74400
N 	N 	0.75840 -0.00000 0.60390 -0.05600
C 	C 	0.83000 0.00000 0.72480 0.26800
H 	H 	0.84700 -0.00000 0.75110 -0.21000
C 	C 	0.78270 0.00000 0.64480 0.44800
C 	C 	0.66790 0.00000 0.54040 1.44800
H 	H 	0.65260 0.00000 0.56780 -0.40400
C 	C 	0.71440 0.00000 0.54040 -0.56900
H 	H 	0.58280 -0.00000 0.46950 -0.83900
N 	N 	0.25840 0.50000 0.10390 -0.17700
C 	C 	0.33000 0.50000 0.22480 0.08000
H 	H 	0.34700 0.50000 0.25110 0.18800
C 	C 	0.28270 0.50000 0.14480 0.11100
C 	C 	0.16790 0.50000 0.04040 -4.63400
H 	H 	0.15260 0.50000 0.06780 1.66100
C 	C 	0.21440 0.50000 0.04040 2.69000
H 	H 	0.08280 0.50000 0.96950 2.77900
N 	N 	0.24160 -0.00000 0.60390 -0.06200
C 	C 	0.17000 0.00000 0.72480 0.25300
H 	H 	0.15300 -0.00000 0.75110 -0.16200
C 	C 	0.21730 0.00000 0.64480 0.47600
C 	C 	0.33210 0.00000 0.54040 1.25100
H 	H 	0.34740 0.00000 0.56780 -0.33700
C 	C 	0.28560 0.00000 0.54040 -0.44000
H 	H 	0.41720 -0.00000 0.46950 -0.72600
N 	N 	0.74160 0.50000 0.10390 -0.30700
C 	C 	0.67000 0.50000 0.22480 0.05700
H 	H 	0.65300 0.50000 0.25110 0.20500
C 	C 	0.71730 0.50000 0.14480 0.21000
C 	C 	0.83210 0.50000 0.04040 0.62200
H 	H 	0.84740 0.50000 0.06780 -0.09100
C 	C 	0.78560 0.50000 0.04040 -0.41100
H 	H 	0.91720 0.50000 0.96950 -0.47800
N 	N 	-0.00000 0.24160 0.60390 -0.06200
C 	C 	0.00000 0.17000 0.72480 0.25300
H 	H 	-0.00000 0.15300 0.75110 -0.16200
C 	C 	-0.00000 0.21730 0.64480 0.47600
C 	C 	-0.00000 0.33210 0.54040 1.25100
H 	H 	-0.00000 0.34740 0.56780 -0.33700
C 	C 	-0.00000 0.28560 0.54040 -0.44000
H 	H 	0.00000 0.41720 0.46950 -0.72600
N 	N 	0.50000 0.74160 0.10390 -0.30700
C 	C 	0.50000 0.67000 0.22480 0.05700
H 	H 	0.50000 0.65300 0.25110 0.20500
C 	C 	0.50000 0.71730 0.14480 0.21000
C 	C 	0.50000 0.83210 0.04040 0.62200
H 	H 	0.50000 0.84740 0.06780 -0.09100
C 	C 	0.50000 0.78560 0.04040 -0.41100
H 	H 	0.50000 0.91720 0.96950 -0.47800
N 	N 	0.00000 0.75840 0.60390 -0.05600
C 	C 	0.00000 0.83000 0.72480 0.26800
H 	H 	-0.00000 0.84700 0.75110 -0.21000
C 	C 	-0.00000 0.78270 0.64480 0.44800
C 	C 	-0.00000 0.66790 0.54040 1.44800
H 	H 	-0.00000 0.65260 0.56780 -0.40400
C 	C 	-0.00000 0.71440 0.54040 -0.56900
H 	H 	0.00000 0.58280 0.46950 -0.83900
N 	N 	0.50000 0.25840 0.10390 -0.17700
C 	C 	0.50000 0.33000 0.22480 0.08000
H 	H 	0.50000 0.34700 0.25110 0.18800
C 	C 	0.50000 0.28270 0.14480 0.11100
C 	C 	0.50000 0.16790 0.04040 -4.63400
H 	H 	0.50000 0.15260 0.06780 1.66100
C 	C 	0.50000 0.21440 0.04040 2.69000
H 	H 	0.50000 0.08280 0.96950 2.77900
C 	C 	0.50000 0.15870 0.18380 5.20800
H 	H 	0.50000 0.14110 0.15780 -1.78100
C 	C 	0.50000 0.20880 0.26130 -8.49900
C 	C 	0.50000 0.23490 0.30370 17.40100
C 	C 	-0.00000 0.65870 0.68380 -7.70800
H 	H 	-0.00000 0.64110 0.65780 2.83800
C 	C 	-0.00000 0.70880 0.76130 14.42400
C 	C 	-0.00000 0.73490 0.80370 -28.83800
C 	C 	0.50000 0.84130 0.18380 5.37100
H 	H 	0.50000 0.85890 0.15780 -1.80500
C 	C 	0.50000 0.79120 0.26130 -8.95600
C 	C 	0.50000 0.76510 0.30370 18.40700
C 	C 	0.00000 0.34130 0.68380 -7.53700
H 	H 	0.00000 0.35890 0.65780 2.77600
C 	C 	-0.00000 0.29120 0.76130 14.13800
C 	C 	-0.00000 0.26510 0.80370 -28.25900
C 	C 	0.84130 0.50000 0.18380 5.37100
H 	H 	0.85890 0.50000 0.15780 -1.80500
C 	C 	0.79120 0.50000 0.26130 -8.95600
C 	C 	0.76510 0.50000 0.30370 18.40700
C 	C 	0.34130 0.00000 0.68380 -7.53700
H 	H 	0.35890 0.00000 0.65780 2.77600
C 	C 	0.29120 0.00000 0.76130 14.13800
C 	C 	0.26510 0.00000 0.80370 -28.25900
C 	C 	0.15870 0.50000 0.18380 5.20800
H 	H 	0.14110 0.50000 0.15780 -1.78100
C 	C 	0.20880 0.50000 0.26130 -8.49900
C 	C 	0.23490 0.50000 0.30370 17.40100
C 	C 	0.65870 0.00000 0.68380 -7.70800
H 	H 	0.64110 0.00000 0.65780 2.83800
C 	C 	0.70880 0.00000 0.76130 14.42400
C 	C 	0.73490 0.00000 0.80370 -28.83800
C 	C 	0.50000 0.15870 0.81620 5.20600
H 	H 	0.50000 0.14110 0.84220 -1.78100
C 	C 	0.50000 0.20880 0.73870 -8.49200
C 	C 	0.50000 0.23490 0.69630 17.38500
C 	C 	0.00000 0.65870 0.31620 -7.73300
H 	H 	-0.00000 0.64110 0.34220 2.84600
C 	C 	-0.00000 0.70880 0.23870 14.46900
C 	C 	0.00000 0.73490 0.19630 -28.92800
C 	C 	0.50000 0.84130 0.81620 5.36900
H 	H 	0.50000 0.85890 0.84220 -1.80500
C 	C 	0.50000 0.79120 0.73870 -8.94900
C 	C 	0.50000 0.76510 0.69630 18.39300
C 	C 	0.00000 0.34130 0.31620 -7.56100
H 	H 	-0.00000 0.35890 0.34220 2.78400
C 	C 	-0.00000 0.29120 0.23870 14.18100
C 	C 	0.00000 0.26510 0.19630 -28.34500
C 	C 	0.15870 0.50000 0.81620 5.20600
H 	H 	0.14110 0.50000 0.84220 -1.78100
C 	C 	0.20880 0.50000 0.73870 -8.49200
C 	C 	0.23490 0.50000 0.69630 17.38500
C 	C 	0.65870 0.00000 0.31620 -7.73300
H 	H 	0.64110 0.00000 0.34220 2.84600
C 	C 	0.70880 0.00000 0.23870 14.46900
C 	C 	0.73490 0.00000 0.19630 -28.92800
C 	C 	0.84130 0.50000 0.81620 5.36900
H 	H 	0.85890 0.50000 0.84220 -1.80500
C 	C 	0.79120 0.50000 0.73870 -8.94900
C 	C 	0.76510 0.50000 0.69630 18.39300
C 	C 	0.34130 0.00000 0.31620 -7.56100
H 	H 	0.35890 0.00000 0.34220 2.78400
C 	C 	0.29120 0.00000 0.23870 14.18100
C 	C 	0.26510 0.00000 0.19630 -28.34500
C 	C 	0.26120 0.00000 0.50000 0.45200
H 	H 	0.22980 0.00000 0.50000 -0.01500
C 	C 	0.40640 0.00000 0.50000 5.41000
C 	C 	0.35700 0.00000 0.50000 -1.99100
C 	C 	0.76120 0.50000 -0.00000 0.39900
H 	H 	0.72980 0.50000 -0.00000 -0.08700
C 	C 	0.90640 0.50000 -0.00000 2.58000
C 	C 	0.85700 0.50000 -0.00000 -0.94200
C 	C 	0.73880 0.00000 0.50000 0.57200
H 	H 	0.77020 0.00000 0.50000 -0.08100
C 	C 	0.59360 0.00000 0.50000 6.05500
C 	C 	0.64300 0.00000 0.50000 -2.27000
C 	C 	0.23880 0.50000 -0.00000 -2.53400
H 	H 	0.27020 0.50000 -0.00000 0.88900
C 	C 	0.09360 0.50000 -0.00000 -15.76100
C 	C 	0.14300 0.50000 -0.00000 6.73600
C 	C 	0.00000 0.26120 0.50000 0.45200
H 	H 	0.00000 0.22980 0.50000 -0.01500
C 	C 	0.00000 0.40640 0.50000 5.41000
C 	C 	-0.00000 0.35700 0.50000 -1.99100
C 	C 	0.50000 0.76120 -0.00000 0.39900
H 	H 	0.50000 0.72980 -0.00000 -0.08700
C 	C 	0.50000 0.90640 -0.00000 2.58000
C 	C 	0.50000 0.85700 -0.00000 -0.94200
C 	C 	-0.00000 0.73880 0.50000 0.57200
H 	H 	0.00000 0.77020 0.50000 -0.08100
C 	C 	-0.00000 0.59360 0.50000 6.05500
C 	C 	0.00000 0.64300 0.50000 -2.27000
C 	C 	0.50000 0.23880 -0.00000 -2.53400
H 	H 	0.50000 0.27020 -0.00000 0.88900
C 	C 	0.50000 0.09360 -0.00000 -15.76100
C 	C 	0.50000 0.14300 -0.00000 6.73600
