data_crystal

_cell_length_a 22.80970
_cell_length_b 36.69500
_cell_length_c 14.41830
_cell_angle_alpha 90.00000
_cell_angle_beta  106.31300
_cell_angle_gamma 90.00000

_symmetry_space_group_name_	'P 1'
_symmetry_space_group_name_H-M	'P 1'

loop_
_symmetry_equiv_pos_as_xyz
  x,y,z

loop_
_atom_site_label
_atom_site_type_symbol
_atom_site_fract_x
_atom_site_fract_y
_atom_site_fract_z
_atom_site_charge
Co	Co	0.85690 0.25883 0.03723 1.16000
N 	N 	0.87644 0.20741 0.97266 -0.20900
O 	O 	0.80542 0.27162 0.90603 -0.48500
O 	O 	0.70689 0.26933 0.90876 -0.44200
C 	C 	0.92290 0.18640 0.03330 0.05500
C 	C 	0.84450 0.19290 0.88480 0.09000
C 	C 	0.75071 0.27599 0.87189 0.47800
H 	H 	0.94470 0.19620 0.09520 0.02400
C 	C 	0.93730 0.15210 0.00640 -0.12400
C 	C 	0.85950 0.16030 0.85340 -0.14900
H 	H 	0.81240 0.20690 0.84220 0.03200
C 	C 	0.72429 0.28462 0.76690 -0.26200
H 	H 	0.96940 0.13820 0.04910 0.08400
C 	C 	0.90830 0.13940 0.91300 0.09400
H 	H 	0.83770 0.15060 0.79150 0.13900
C 	C 	0.76533 0.30051 0.72390 0.25800
C 	C 	0.66253 0.28298 0.71729 0.26400
H 	H 	0.80660 0.30200 0.75730 -0.02900
C 	C 	0.74433 0.31428 0.63020 -0.35600
C 	C 	0.64183 0.29680 0.62370 -0.34900
H 	H 	0.63500 0.27260 0.74660 -0.03400
H 	H 	0.77170 0.32490 0.60110 0.25800
C 	C 	0.68267 0.31223 0.58020 0.43200
H 	H 	0.60050 0.29560 0.59050 0.23700
N 	N 	0.33454 0.80626 0.10307 -0.22800
C 	C 	0.37969 0.82628 0.16610 0.07400
C 	C 	0.27412 0.81772 0.08070 0.08000
H 	H 	0.42000 0.81830 0.18170 0.00800
C 	C 	0.36520 0.85850 0.20680 -0.13900
C 	C 	0.25958 0.84994 0.12010 -0.14000
H 	H 	0.24350 0.80390 0.03950 0.00200
C 	C 	0.30527 0.87024 0.18399 0.11100
H 	H 	0.39580 0.87200 0.24900 0.09100
H 	H 	0.21930 0.85800 0.10380 0.09300
O 	O 	0.43405 0.25307 0.16219 -0.40100
C 	C 	0.48844 0.24119 0.19320 0.37500
O 	O 	0.51235 0.21844 0.15030 -0.28300
C 	C 	0.93020 0.10220 0.89000 -0.04600
C 	C 	0.96930 0.08310 0.95050 0.03600
C 	C 	0.89600 0.08840 0.79900 0.00500
C 	C 	0.99150 0.04860 0.91440 -0.14600
C 	C 	0.91320 0.05380 0.77100 -0.10700
H 	H 	0.86150 0.10080 0.75750 0.09500
H 	H 	0.02610 0.03620 0.95580 0.08300
C 	C 	0.96114 0.03600 0.83270 0.13100
H 	H 	0.89130 0.04310 0.71000 0.09600
C 	C 	0.07430 0.97900 0.76460 -0.06500
C 	C 	0.00520 0.01912 0.65320 -0.07300
H 	H 	0.08410 0.96480 0.82290 0.06500
C 	C 	0.11330 0.97912 0.70590 -0.01900
C 	C 	0.04320 0.01795 0.59320 -0.01200
H 	H 	0.96750 0.03240 0.63380 0.08600
H 	H 	0.14980 0.96460 0.72250 0.06000
H 	H 	0.03160 0.03080 0.53280 0.05900
C 	C 	0.29251 0.90463 0.23130 -0.03700
C 	C 	0.33240 0.91600 0.31730 0.03100
C 	C 	0.23966 0.92431 0.19010 0.02300
C 	C 	0.31950 0.94780 0.36190 -0.12100
H 	H 	0.36760 0.90270 0.34540 0.03700
H 	H 	0.21260 0.91630 0.13270 0.02800
C 	C 	0.22707 0.95571 0.23370 -0.12300
C 	C 	0.26728 0.96748 0.32046 0.13000
H 	H 	0.34630 0.95560 0.41970 0.09100
H 	H 	0.19190 0.96900 0.20540 0.07900
C 	C 	0.21750 0.03028 0.50010 -0.07600
C 	C 	0.17700 0.03101 0.55660 -0.01500
H 	H 	0.24290 0.05100 0.49900 0.11300
H 	H 	0.17490 0.05200 0.59540 0.10200
C 	C 	0.65325 0.33029 0.48360 -0.54500
C 	C 	0.61435 0.30255 0.41230 0.41900
C 	C 	0.63060 0.26811 0.39200 -0.34000
C 	C 	0.55718 0.31663 0.36328 -0.32300
H 	H 	0.66880 0.25890 0.42460 0.18800
C 	C 	0.59000 0.24675 0.32247 0.22100
C 	C 	0.51705 0.29530 0.29380 0.21200
H 	H 	0.54600 0.34000 0.37690 0.24000
H 	H 	0.60110 0.22340 0.30890 -0.02000
C 	C 	0.53365 0.26036 0.27440 -0.22200
H 	H 	0.47900 0.30450 0.26030 -0.00700
C 	C 	0.69956 0.34683 0.43620 1.00900
F 	F 	0.70619 0.32274 0.37058 -0.54700
F 	F 	0.67423 0.37785 0.39396 -0.49300
F 	F 	0.75331 0.35419 0.49981 -0.53800
C 	C 	0.61995 0.35912 0.52845 0.99200
F 	F 	0.60359 0.38666 0.46707 -0.48900
F 	F 	0.66030 0.37281 0.60787 -0.49700
F 	F 	0.57687 0.34188 0.55787 -0.53700
Co	Co	0.35690 0.75883 0.03723 1.16000
N 	N 	0.37644 0.70741 0.97266 -0.21100
O 	O 	0.30542 0.77162 0.90603 -0.48700
O 	O 	0.20689 0.76933 0.90876 -0.44300
C 	C 	0.42290 0.68640 0.03330 0.05500
C 	C 	0.34450 0.69290 0.88480 0.08900
C 	C 	0.25071 0.77599 0.87189 0.47800
H 	H 	0.44470 0.69620 0.09520 0.02300
C 	C 	0.43730 0.65210 0.00640 -0.12200
C 	C 	0.35950 0.66030 0.85340 -0.14900
H 	H 	0.31240 0.70690 0.84220 0.03200
C 	C 	0.22429 0.78462 0.76690 -0.26300
H 	H 	0.46940 0.63820 0.04910 0.08300
C 	C 	0.40830 0.63940 0.91300 0.09000
H 	H 	0.33770 0.65060 0.79150 0.13800
C 	C 	0.26533 0.80051 0.72390 0.25700
C 	C 	0.16253 0.78298 0.71729 0.26300
H 	H 	0.30660 0.80200 0.75730 -0.03000
C 	C 	0.24433 0.81428 0.63020 -0.35700
C 	C 	0.14183 0.79680 0.62370 -0.35000
H 	H 	0.13500 0.77260 0.74660 -0.03400
H 	H 	0.27170 0.82490 0.60110 0.25800
C 	C 	0.18267 0.81223 0.58020 0.43300
H 	H 	0.10050 0.79560 0.59050 0.23700
N 	N 	0.83454 0.30626 0.10307 -0.22800
C 	C 	0.87969 0.32628 0.16610 0.07400
C 	C 	0.77412 0.31772 0.08070 0.08000
H 	H 	0.92000 0.31830 0.18170 0.00800
C 	C 	0.86520 0.35850 0.20680 -0.13900
C 	C 	0.75958 0.34994 0.12010 -0.14000
H 	H 	0.74350 0.30390 0.03950 0.00200
C 	C 	0.80527 0.37024 0.18399 0.11100
H 	H 	0.89580 0.37200 0.24900 0.09100
H 	H 	0.71930 0.35800 0.10380 0.09300
O 	O 	0.93405 0.75307 0.16219 -0.40100
C 	C 	0.98844 0.74119 0.19320 0.37100
O 	O 	0.01235 0.71844 0.15030 -0.28000
C 	C 	0.43020 0.60220 0.89000 -0.04600
C 	C 	0.46930 0.58310 0.95050 0.03600
C 	C 	0.39600 0.58840 0.79900 0.00500
C 	C 	0.49150 0.54860 0.91440 -0.15100
C 	C 	0.41320 0.55380 0.77100 -0.10800
H 	H 	0.36150 0.60080 0.75750 0.09500
H 	H 	0.52610 0.53620 0.95580 0.08600
C 	C 	0.46114 0.53600 0.83270 0.13300
H 	H 	0.39130 0.54310 0.71000 0.09700
C 	C 	0.57430 0.47900 0.76460 -0.06500
C 	C 	0.50520 0.51912 0.65320 -0.07200
H 	H 	0.58410 0.46480 0.82290 0.06600
C 	C 	0.61330 0.47912 0.70590 -0.01900
C 	C 	0.54320 0.51795 0.59320 -0.01300
H 	H 	0.46750 0.53240 0.63380 0.08600
H 	H 	0.64980 0.46460 0.72250 0.06000
H 	H 	0.53160 0.53080 0.53280 0.06000
C 	C 	0.79251 0.40463 0.23130 -0.03800
C 	C 	0.83240 0.41600 0.31730 0.03200
C 	C 	0.73966 0.42431 0.19010 0.02300
C 	C 	0.81950 0.44780 0.36190 -0.12100
H 	H 	0.86760 0.40270 0.34540 0.03700
H 	H 	0.71260 0.41630 0.13270 0.02700
C 	C 	0.72707 0.45571 0.23370 -0.12400
C 	C 	0.76728 0.46748 0.32046 0.13000
H 	H 	0.84630 0.45560 0.41970 0.09200
H 	H 	0.69190 0.46900 0.20540 0.07900
C 	C 	0.71750 0.53028 0.50010 -0.07600
C 	C 	0.67700 0.53101 0.55660 -0.01500
H 	H 	0.74290 0.55100 0.49900 0.11300
H 	H 	0.67490 0.55200 0.59540 0.10200
C 	C 	0.15325 0.83029 0.48360 -0.54500
C 	C 	0.11435 0.80255 0.41230 0.41900
C 	C 	0.13060 0.76811 0.39200 -0.34000
C 	C 	0.05718 0.81663 0.36328 -0.32300
H 	H 	0.16880 0.75890 0.42460 0.18800
C 	C 	0.09000 0.74675 0.32247 0.22000
C 	C 	0.01705 0.79530 0.29380 0.21400
H 	H 	0.04600 0.84000 0.37690 0.24000
H 	H 	0.10110 0.72340 0.30890 -0.01900
C 	C 	0.03365 0.76036 0.27440 -0.22000
H 	H 	0.97900 0.80450 0.26030 -0.00800
C 	C 	0.19956 0.84683 0.43620 1.00900
F 	F 	0.20619 0.82274 0.37058 -0.54700
F 	F 	0.17423 0.87785 0.39396 -0.49300
F 	F 	0.25331 0.85419 0.49981 -0.53800
C 	C 	0.11995 0.85912 0.52845 0.99200
F 	F 	0.10359 0.88666 0.46707 -0.48900
F 	F 	0.16030 0.87281 0.60787 -0.49800
F 	F 	0.07687 0.84188 0.55787 -0.53700
Co	Co	0.14310 0.25883 0.96277 1.15900
N 	N 	0.12356 0.20741 0.02734 -0.21000
O 	O 	0.19458 0.27162 0.09397 -0.48600
O 	O 	0.29311 0.26933 0.09124 -0.44300
C 	C 	0.07710 0.18640 0.96670 0.05400
C 	C 	0.15550 0.19290 0.11520 0.08900
C 	C 	0.24929 0.27599 0.12811 0.47700
H 	H 	0.05530 0.19620 0.90480 0.02300
C 	C 	0.06270 0.15210 0.99360 -0.12500
C 	C 	0.14050 0.16030 0.14660 -0.15000
H 	H 	0.18760 0.20690 0.15780 0.03100
C 	C 	0.27571 0.28462 0.23310 -0.26300
H 	H 	0.03060 0.13820 0.95090 0.08300
C 	C 	0.09170 0.13940 0.08700 0.09300
H 	H 	0.16230 0.15060 0.20850 0.13800
C 	C 	0.23467 0.30051 0.27610 0.25700
C 	C 	0.33747 0.28298 0.28271 0.26300
H 	H 	0.19340 0.30200 0.24270 -0.03000
C 	C 	0.25567 0.31428 0.36980 -0.35700
C 	C 	0.35817 0.29680 0.37630 -0.35000
H 	H 	0.36500 0.27260 0.25340 -0.03400
H 	H 	0.22830 0.32490 0.39890 0.25800
C 	C 	0.31733 0.31223 0.41980 0.43200
H 	H 	0.39950 0.29560 0.40950 0.23700
N 	N 	0.66546 0.80626 0.89693 -0.22800
C 	C 	0.62031 0.82628 0.83390 0.07400
C 	C 	0.72588 0.81772 0.91930 0.08000
H 	H 	0.58000 0.81830 0.81830 0.00800
C 	C 	0.63480 0.85850 0.79320 -0.13900
C 	C 	0.74042 0.84994 0.87990 -0.14000
H 	H 	0.75650 0.80390 0.96050 0.00200
C 	C 	0.69473 0.87024 0.81601 0.11100
H 	H 	0.60420 0.87200 0.75100 0.09100
H 	H 	0.78070 0.85800 0.89620 0.09300
O 	O 	0.56595 0.25307 0.83781 -0.40100
C 	C 	0.51156 0.24119 0.80680 0.37500
O 	O 	0.48765 0.21844 0.84970 -0.28300
C 	C 	0.06980 0.10220 0.11000 -0.04600
C 	C 	0.03070 0.08310 0.04950 0.03600
C 	C 	0.10400 0.08840 0.20100 0.00500
C 	C 	0.00850 0.04860 0.08560 -0.14600
C 	C 	0.08680 0.05380 0.22900 -0.10700
H 	H 	0.13850 0.10080 0.24250 0.09500
H 	H 	0.97390 0.03620 0.04420 0.08300
C 	C 	0.03886 0.03600 0.16730 0.13100
H 	H 	0.10870 0.04310 0.29000 0.09600
C 	C 	0.92570 0.97900 0.23540 -0.06500
C 	C 	0.99480 0.01912 0.34680 -0.07300
H 	H 	0.91590 0.96480 0.17710 0.06500
C 	C 	0.88670 0.97912 0.29410 -0.01900
C 	C 	0.95680 0.01795 0.40680 -0.01200
H 	H 	0.03250 0.03240 0.36620 0.08600
H 	H 	0.85020 0.96460 0.27750 0.06000
H 	H 	0.96840 0.03080 0.46720 0.05900
C 	C 	0.70749 0.90463 0.76870 -0.03700
C 	C 	0.66760 0.91600 0.68270 0.03100
C 	C 	0.76034 0.92431 0.80990 0.02300
C 	C 	0.68050 0.94780 0.63810 -0.12100
H 	H 	0.63240 0.90270 0.65460 0.03700
H 	H 	0.78740 0.91630 0.86730 0.02800
C 	C 	0.77293 0.95571 0.76630 -0.12300
C 	C 	0.73272 0.96748 0.67954 0.13000
H 	H 	0.65370 0.95560 0.58030 0.09100
H 	H 	0.80810 0.96900 0.79460 0.07900
C 	C 	0.78250 0.03028 0.49990 -0.07600
C 	C 	0.82300 0.03101 0.44340 -0.01500
H 	H 	0.75710 0.05100 0.50100 0.11300
H 	H 	0.82510 0.05200 0.40460 0.10200
C 	C 	0.34675 0.33029 0.51640 -0.54500
C 	C 	0.38565 0.30255 0.58770 0.41900
C 	C 	0.36940 0.26811 0.60800 -0.34000
C 	C 	0.44282 0.31663 0.63672 -0.32300
H 	H 	0.33120 0.25890 0.57540 0.18800
C 	C 	0.41000 0.24675 0.67753 0.22100
C 	C 	0.48295 0.29530 0.70620 0.21200
H 	H 	0.45400 0.34000 0.62310 0.24000
H 	H 	0.39890 0.22340 0.69110 -0.02000
C 	C 	0.46635 0.26036 0.72560 -0.22200
H 	H 	0.52100 0.30450 0.73970 -0.00700
C 	C 	0.30044 0.34683 0.56380 1.00900
F 	F 	0.29381 0.32274 0.62942 -0.54700
F 	F 	0.32577 0.37785 0.60604 -0.49300
F 	F 	0.24669 0.35419 0.50019 -0.53800
C 	C 	0.38005 0.35912 0.47155 0.99200
F 	F 	0.39641 0.38666 0.53293 -0.48900
F 	F 	0.33970 0.37281 0.39213 -0.49700
F 	F 	0.42313 0.34188 0.44213 -0.53700
Co	Co	0.64310 0.75883 0.96277 1.16000
N 	N 	0.62356 0.70741 0.02734 -0.21100
O 	O 	0.69458 0.77162 0.09397 -0.48700
O 	O 	0.79311 0.76933 0.09124 -0.44300
C 	C 	0.57710 0.68640 0.96670 0.05500
C 	C 	0.65550 0.69290 0.11520 0.08900
C 	C 	0.74929 0.77599 0.12811 0.47800
H 	H 	0.55530 0.69620 0.90480 0.02300
C 	C 	0.56270 0.65210 0.99360 -0.12200
C 	C 	0.64050 0.66030 0.14660 -0.14900
H 	H 	0.68760 0.70690 0.15780 0.03200
C 	C 	0.77571 0.78462 0.23310 -0.26300
H 	H 	0.53060 0.63820 0.95090 0.08300
C 	C 	0.59170 0.63940 0.08700 0.09000
H 	H 	0.66230 0.65060 0.20850 0.13800
C 	C 	0.73467 0.80051 0.27610 0.25700
C 	C 	0.83747 0.78298 0.28271 0.26300
H 	H 	0.69340 0.80200 0.24270 -0.03000
C 	C 	0.75567 0.81428 0.36980 -0.35700
C 	C 	0.85817 0.79680 0.37630 -0.35000
H 	H 	0.86500 0.77260 0.25340 -0.03400
H 	H 	0.72830 0.82490 0.39890 0.25800
C 	C 	0.81733 0.81223 0.41980 0.43300
H 	H 	0.89950 0.79560 0.40950 0.23700
N 	N 	0.16546 0.30626 0.89693 -0.22800
C 	C 	0.12031 0.32628 0.83390 0.07400
C 	C 	0.22588 0.31772 0.91930 0.08000
H 	H 	0.08000 0.31830 0.81830 0.00800
C 	C 	0.13480 0.35850 0.79320 -0.13900
C 	C 	0.24042 0.34994 0.87990 -0.14000
H 	H 	0.25650 0.30390 0.96050 0.00200
C 	C 	0.19473 0.37024 0.81601 0.11100
H 	H 	0.10420 0.37200 0.75100 0.09100
H 	H 	0.28070 0.35800 0.89620 0.09300
O 	O 	0.06595 0.75307 0.83781 -0.40100
C 	C 	0.01156 0.74119 0.80680 0.37100
O 	O 	0.98765 0.71844 0.84970 -0.28000
C 	C 	0.56980 0.60220 0.11000 -0.04600
C 	C 	0.53070 0.58310 0.04950 0.03600
C 	C 	0.60400 0.58840 0.20100 0.00500
C 	C 	0.50850 0.54860 0.08560 -0.15100
C 	C 	0.58680 0.55380 0.22900 -0.10800
H 	H 	0.63850 0.60080 0.24250 0.09500
H 	H 	0.47390 0.53620 0.04420 0.08600
C 	C 	0.53886 0.53600 0.16730 0.13300
H 	H 	0.60870 0.54310 0.29000 0.09700
C 	C 	0.42570 0.47900 0.23540 -0.06500
C 	C 	0.49480 0.51912 0.34680 -0.07200
H 	H 	0.41590 0.46480 0.17710 0.06600
C 	C 	0.38670 0.47912 0.29410 -0.01900
C 	C 	0.45680 0.51795 0.40680 -0.01300
H 	H 	0.53250 0.53240 0.36620 0.08600
H 	H 	0.35020 0.46460 0.27750 0.06000
H 	H 	0.46840 0.53080 0.46720 0.06000
C 	C 	0.20749 0.40463 0.76870 -0.03800
C 	C 	0.16760 0.41600 0.68270 0.03200
C 	C 	0.26034 0.42431 0.80990 0.02300
C 	C 	0.18050 0.44780 0.63810 -0.12100
H 	H 	0.13240 0.40270 0.65460 0.03700
H 	H 	0.28740 0.41630 0.86730 0.02700
C 	C 	0.27293 0.45571 0.76630 -0.12400
C 	C 	0.23272 0.46748 0.67954 0.13000
H 	H 	0.15370 0.45560 0.58030 0.09200
H 	H 	0.30810 0.46900 0.79460 0.07900
C 	C 	0.28250 0.53028 0.49990 -0.07600
C 	C 	0.32300 0.53101 0.44340 -0.01500
H 	H 	0.25710 0.55100 0.50100 0.11300
H 	H 	0.32510 0.55200 0.40460 0.10200
C 	C 	0.84675 0.83029 0.51640 -0.54500
C 	C 	0.88565 0.80255 0.58770 0.41900
C 	C 	0.86940 0.76811 0.60800 -0.34000
C 	C 	0.94282 0.81663 0.63672 -0.32300
H 	H 	0.83120 0.75890 0.57540 0.18800
C 	C 	0.91000 0.74675 0.67753 0.22000
C 	C 	0.98295 0.79530 0.70620 0.21400
H 	H 	0.95400 0.84000 0.62310 0.24000
H 	H 	0.89890 0.72340 0.69110 -0.01900
C 	C 	0.96635 0.76036 0.72560 -0.22000
H 	H 	0.02100 0.80450 0.73970 -0.00800
C 	C 	0.80044 0.84683 0.56380 1.00900
F 	F 	0.79381 0.82274 0.62942 -0.54700
F 	F 	0.82577 0.87785 0.60604 -0.49300
F 	F 	0.74669 0.85419 0.50019 -0.53800
C 	C 	0.88005 0.85912 0.47155 0.99200
F 	F 	0.89641 0.88666 0.53293 -0.48900
F 	F 	0.83970 0.87281 0.39213 -0.49800
F 	F 	0.92313 0.84188 0.44213 -0.53700
Co	Co	0.14310 0.74117 0.96277 1.15900
N 	N 	0.12356 0.79259 0.02734 -0.21000
O 	O 	0.19458 0.72838 0.09397 -0.48600
O 	O 	0.29311 0.73067 0.09124 -0.44300
C 	C 	0.07710 0.81360 0.96670 0.05400
C 	C 	0.15550 0.80710 0.11520 0.08900
C 	C 	0.24929 0.72401 0.12811 0.47700
H 	H 	0.05530 0.80380 0.90480 0.02300
C 	C 	0.06270 0.84790 0.99360 -0.12500
C 	C 	0.14050 0.83970 0.14660 -0.15000
H 	H 	0.18760 0.79310 0.15780 0.03100
C 	C 	0.27571 0.71538 0.23310 -0.26300
H 	H 	0.03060 0.86180 0.95090 0.08300
C 	C 	0.09170 0.86060 0.08700 0.09300
H 	H 	0.16230 0.84940 0.20850 0.13800
C 	C 	0.23467 0.69949 0.27610 0.25700
C 	C 	0.33747 0.71702 0.28271 0.26300
H 	H 	0.19340 0.69800 0.24270 -0.03000
C 	C 	0.25567 0.68572 0.36980 -0.35700
C 	C 	0.35817 0.70320 0.37630 -0.35000
H 	H 	0.36500 0.72740 0.25340 -0.03400
H 	H 	0.22830 0.67510 0.39890 0.25800
C 	C 	0.31733 0.68777 0.41980 0.43200
H 	H 	0.39950 0.70440 0.40950 0.23700
N 	N 	0.66546 0.19374 0.89693 -0.22800
C 	C 	0.62031 0.17372 0.83390 0.07500
C 	C 	0.72588 0.18228 0.91930 0.08000
H 	H 	0.58000 0.18170 0.81830 0.00800
C 	C 	0.63480 0.14150 0.79320 -0.13900
C 	C 	0.74042 0.15006 0.87990 -0.14000
H 	H 	0.75650 0.19610 0.96050 0.00200
C 	C 	0.69473 0.12976 0.81601 0.11100
H 	H 	0.60420 0.12800 0.75100 0.09100
H 	H 	0.78070 0.14200 0.89620 0.09300
O 	O 	0.56595 0.74693 0.83781 -0.40100
C 	C 	0.51156 0.75881 0.80680 0.37500
O 	O 	0.48765 0.78156 0.84970 -0.28300
C 	C 	0.06980 0.89780 0.11000 -0.04600
C 	C 	0.03070 0.91690 0.04950 0.03600
C 	C 	0.10400 0.91160 0.20100 0.00500
C 	C 	0.00850 0.95140 0.08560 -0.14500
C 	C 	0.08680 0.94620 0.22900 -0.10700
H 	H 	0.13850 0.89920 0.24250 0.09500
H 	H 	0.97390 0.96380 0.04420 0.08200
C 	C 	0.03886 0.96400 0.16730 0.13100
H 	H 	0.10870 0.95690 0.29000 0.09600
C 	C 	0.92570 0.02100 0.23540 -0.06500
C 	C 	0.99480 0.98088 0.34680 -0.07300
H 	H 	0.91590 0.03520 0.17710 0.06500
C 	C 	0.88670 0.02088 0.29410 -0.01900
C 	C 	0.95680 0.98205 0.40680 -0.01400
H 	H 	0.03250 0.96760 0.36620 0.08600
H 	H 	0.85020 0.03540 0.27750 0.06000
H 	H 	0.96840 0.96920 0.46720 0.06000
C 	C 	0.70749 0.09537 0.76870 -0.03800
C 	C 	0.66760 0.08400 0.68270 0.03200
C 	C 	0.76034 0.07569 0.80990 0.02300
C 	C 	0.68050 0.05220 0.63810 -0.12100
H 	H 	0.63240 0.09730 0.65460 0.03700
H 	H 	0.78740 0.08370 0.86730 0.02800
C 	C 	0.77293 0.04429 0.76630 -0.12300
C 	C 	0.73272 0.03252 0.67954 0.13000
H 	H 	0.65370 0.04440 0.58030 0.09200
H 	H 	0.80810 0.03100 0.79460 0.07900
C 	C 	0.78250 0.96972 0.49990 -0.07600
C 	C 	0.82300 0.96899 0.44340 -0.01600
H 	H 	0.75710 0.94900 0.50100 0.11300
H 	H 	0.82510 0.94800 0.40460 0.10200
C 	C 	0.34675 0.66971 0.51640 -0.54500
C 	C 	0.38565 0.69745 0.58770 0.41900
C 	C 	0.36940 0.73189 0.60800 -0.34000
C 	C 	0.44282 0.68337 0.63672 -0.32300
H 	H 	0.33120 0.74110 0.57540 0.18800
C 	C 	0.41000 0.75325 0.67753 0.22100
C 	C 	0.48295 0.70470 0.70620 0.21200
H 	H 	0.45400 0.66000 0.62310 0.24000
H 	H 	0.39890 0.77660 0.69110 -0.02000
C 	C 	0.46635 0.73964 0.72560 -0.22200
H 	H 	0.52100 0.69550 0.73970 -0.00700
C 	C 	0.30044 0.65317 0.56380 1.00900
F 	F 	0.29381 0.67726 0.62942 -0.54700
F 	F 	0.32577 0.62215 0.60604 -0.49300
F 	F 	0.24669 0.64581 0.50019 -0.53800
C 	C 	0.38005 0.64088 0.47155 0.99200
F 	F 	0.39641 0.61334 0.53293 -0.48900
F 	F 	0.33970 0.62719 0.39213 -0.49700
F 	F 	0.42313 0.65812 0.44213 -0.53700
Co	Co	0.64310 0.24117 0.96277 1.16000
N 	N 	0.62356 0.29259 0.02734 -0.21100
O 	O 	0.69458 0.22838 0.09397 -0.48700
O 	O 	0.79311 0.23067 0.09124 -0.44300
C 	C 	0.57710 0.31360 0.96670 0.05500
C 	C 	0.65550 0.30710 0.11520 0.08900
C 	C 	0.74929 0.22401 0.12811 0.47800
H 	H 	0.55530 0.30380 0.90480 0.02300
C 	C 	0.56270 0.34790 0.99360 -0.12200
C 	C 	0.64050 0.33970 0.14660 -0.14900
H 	H 	0.68760 0.29310 0.15780 0.03200
C 	C 	0.77571 0.21538 0.23310 -0.26300
H 	H 	0.53060 0.36180 0.95090 0.08300
C 	C 	0.59170 0.36060 0.08700 0.09000
H 	H 	0.66230 0.34940 0.20850 0.13800
C 	C 	0.73467 0.19949 0.27610 0.25700
C 	C 	0.83747 0.21702 0.28271 0.26300
H 	H 	0.69340 0.19800 0.24270 -0.03000
C 	C 	0.75567 0.18572 0.36980 -0.35700
C 	C 	0.85817 0.20320 0.37630 -0.35000
H 	H 	0.86500 0.22740 0.25340 -0.03400
H 	H 	0.72830 0.17510 0.39890 0.25800
C 	C 	0.81733 0.18777 0.41980 0.43300
H 	H 	0.89950 0.20440 0.40950 0.23700
N 	N 	0.16546 0.69374 0.89693 -0.22800
C 	C 	0.12031 0.67372 0.83390 0.07400
C 	C 	0.22588 0.68228 0.91930 0.08000
H 	H 	0.08000 0.68170 0.81830 0.00800
C 	C 	0.13480 0.64150 0.79320 -0.13900
C 	C 	0.24042 0.65006 0.87990 -0.14000
H 	H 	0.25650 0.69610 0.96050 0.00200
C 	C 	0.19473 0.62976 0.81601 0.11100
H 	H 	0.10420 0.62800 0.75100 0.09100
H 	H 	0.28070 0.64200 0.89620 0.09300
O 	O 	0.06595 0.24693 0.83781 -0.40100
C 	C 	0.01156 0.25881 0.80680 0.37100
O 	O 	0.98765 0.28156 0.84970 -0.28000
C 	C 	0.56980 0.39780 0.11000 -0.04600
C 	C 	0.53070 0.41690 0.04950 0.03600
C 	C 	0.60400 0.41160 0.20100 0.00500
C 	C 	0.50850 0.45140 0.08560 -0.15100
C 	C 	0.58680 0.44620 0.22900 -0.10800
H 	H 	0.63850 0.39920 0.24250 0.09500
H 	H 	0.47390 0.46380 0.04420 0.08600
C 	C 	0.53886 0.46400 0.16730 0.13300
H 	H 	0.60870 0.45690 0.29000 0.09700
C 	C 	0.42570 0.52100 0.23540 -0.06500
C 	C 	0.49480 0.48088 0.34680 -0.07200
H 	H 	0.41590 0.53520 0.17710 0.06600
C 	C 	0.38670 0.52088 0.29410 -0.01900
C 	C 	0.45680 0.48205 0.40680 -0.01300
H 	H 	0.53250 0.46760 0.36620 0.08600
H 	H 	0.35020 0.53540 0.27750 0.06000
H 	H 	0.46840 0.46920 0.46720 0.06000
C 	C 	0.20749 0.59537 0.76870 -0.03800
C 	C 	0.16760 0.58400 0.68270 0.03200
C 	C 	0.26034 0.57569 0.80990 0.02300
C 	C 	0.18050 0.55220 0.63810 -0.12100
H 	H 	0.13240 0.59730 0.65460 0.03700
H 	H 	0.28740 0.58370 0.86730 0.02700
C 	C 	0.27293 0.54429 0.76630 -0.12400
C 	C 	0.23272 0.53252 0.67954 0.13000
H 	H 	0.15370 0.54440 0.58030 0.09200
H 	H 	0.30810 0.53100 0.79460 0.07900
C 	C 	0.28250 0.46972 0.49990 -0.07600
C 	C 	0.32300 0.46899 0.44340 -0.01500
H 	H 	0.25710 0.44900 0.50100 0.11300
H 	H 	0.32510 0.44800 0.40460 0.10200
C 	C 	0.84675 0.16971 0.51640 -0.54500
C 	C 	0.88565 0.19745 0.58770 0.41900
C 	C 	0.86940 0.23189 0.60800 -0.34000
C 	C 	0.94282 0.18337 0.63672 -0.32300
H 	H 	0.83120 0.24110 0.57540 0.18800
C 	C 	0.91000 0.25325 0.67753 0.22000
C 	C 	0.98295 0.20470 0.70620 0.21400
H 	H 	0.95400 0.16000 0.62310 0.24000
H 	H 	0.89890 0.27660 0.69110 -0.01900
C 	C 	0.96635 0.23964 0.72560 -0.22000
H 	H 	0.02100 0.19550 0.73970 -0.00800
C 	C 	0.80044 0.15317 0.56380 1.00900
F 	F 	0.79381 0.17726 0.62942 -0.54700
F 	F 	0.82577 0.12215 0.60604 -0.49300
F 	F 	0.74669 0.14581 0.50019 -0.53800
C 	C 	0.88005 0.14088 0.47155 0.99200
F 	F 	0.89641 0.11334 0.53293 -0.48900
F 	F 	0.83970 0.12719 0.39213 -0.49800
F 	F 	0.92313 0.15812 0.44213 -0.53700
Co	Co	0.85690 0.74117 0.03723 1.15900
N 	N 	0.87644 0.79259 0.97266 -0.21000
O 	O 	0.80542 0.72838 0.90603 -0.48600
O 	O 	0.70689 0.73067 0.90876 -0.44300
C 	C 	0.92290 0.81360 0.03330 0.05400
C 	C 	0.84450 0.80710 0.88480 0.08900
C 	C 	0.75071 0.72401 0.87189 0.47700
H 	H 	0.94470 0.80380 0.09520 0.02300
C 	C 	0.93730 0.84790 0.00640 -0.12500
C 	C 	0.85950 0.83970 0.85340 -0.15000
H 	H 	0.81240 0.79310 0.84220 0.03100
C 	C 	0.72429 0.71538 0.76690 -0.26300
H 	H 	0.96940 0.86180 0.04910 0.08300
C 	C 	0.90830 0.86060 0.91300 0.09300
H 	H 	0.83770 0.84940 0.79150 0.13800
C 	C 	0.76533 0.69949 0.72390 0.25700
C 	C 	0.66253 0.71702 0.71729 0.26300
H 	H 	0.80660 0.69800 0.75730 -0.03000
C 	C 	0.74433 0.68572 0.63020 -0.35700
C 	C 	0.64183 0.70320 0.62370 -0.35000
H 	H 	0.63500 0.72740 0.74660 -0.03400
H 	H 	0.77170 0.67510 0.60110 0.25800
C 	C 	0.68267 0.68777 0.58020 0.43200
H 	H 	0.60050 0.70440 0.59050 0.23700
N 	N 	0.33454 0.19374 0.10307 -0.22800
C 	C 	0.37969 0.17372 0.16610 0.07500
C 	C 	0.27412 0.18228 0.08070 0.08000
H 	H 	0.42000 0.18170 0.18170 0.00800
C 	C 	0.36520 0.14150 0.20680 -0.13900
C 	C 	0.25958 0.15006 0.12010 -0.14000
H 	H 	0.24350 0.19610 0.03950 0.00200
C 	C 	0.30527 0.12976 0.18399 0.11100
H 	H 	0.39580 0.12800 0.24900 0.09100
H 	H 	0.21930 0.14200 0.10380 0.09300
O 	O 	0.43405 0.74693 0.16219 -0.40100
C 	C 	0.48844 0.75881 0.19320 0.37500
O 	O 	0.51235 0.78156 0.15030 -0.28300
C 	C 	0.93020 0.89780 0.89000 -0.04600
C 	C 	0.96930 0.91690 0.95050 0.03600
C 	C 	0.89600 0.91160 0.79900 0.00500
C 	C 	0.99150 0.95140 0.91440 -0.14500
C 	C 	0.91320 0.94620 0.77100 -0.10700
H 	H 	0.86150 0.89920 0.75750 0.09500
H 	H 	0.02610 0.96380 0.95580 0.08200
C 	C 	0.96114 0.96400 0.83270 0.13100
H 	H 	0.89130 0.95690 0.71000 0.09600
C 	C 	0.07430 0.02100 0.76460 -0.06500
C 	C 	0.00520 0.98088 0.65320 -0.07300
H 	H 	0.08410 0.03520 0.82290 0.06500
C 	C 	0.11330 0.02088 0.70590 -0.01900
C 	C 	0.04320 0.98205 0.59320 -0.01400
H 	H 	0.96750 0.96760 0.63380 0.08600
H 	H 	0.14980 0.03540 0.72250 0.06000
H 	H 	0.03160 0.96920 0.53280 0.06000
C 	C 	0.29251 0.09537 0.23130 -0.03800
C 	C 	0.33240 0.08400 0.31730 0.03200
C 	C 	0.23966 0.07569 0.19010 0.02300
C 	C 	0.31950 0.05220 0.36190 -0.12100
H 	H 	0.36760 0.09730 0.34540 0.03700
H 	H 	0.21260 0.08370 0.13270 0.02800
C 	C 	0.22707 0.04429 0.23370 -0.12300
C 	C 	0.26728 0.03252 0.32046 0.13000
H 	H 	0.34630 0.04440 0.41970 0.09200
H 	H 	0.19190 0.03100 0.20540 0.07900
C 	C 	0.21750 0.96972 0.50010 -0.07600
C 	C 	0.17700 0.96899 0.55660 -0.01600
H 	H 	0.24290 0.94900 0.49900 0.11300
H 	H 	0.17490 0.94800 0.59540 0.10200
C 	C 	0.65325 0.66971 0.48360 -0.54500
C 	C 	0.61435 0.69745 0.41230 0.41900
C 	C 	0.63060 0.73189 0.39200 -0.34000
C 	C 	0.55718 0.68337 0.36328 -0.32300
H 	H 	0.66880 0.74110 0.42460 0.18800
C 	C 	0.59000 0.75325 0.32247 0.22100
C 	C 	0.51705 0.70470 0.29380 0.21200
H 	H 	0.54600 0.66000 0.37690 0.24000
H 	H 	0.60110 0.77660 0.30890 -0.02000
C 	C 	0.53365 0.73964 0.27440 -0.22200
H 	H 	0.47900 0.69550 0.26030 -0.00700
C 	C 	0.69956 0.65317 0.43620 1.00900
F 	F 	0.70619 0.67726 0.37058 -0.54700
F 	F 	0.67423 0.62215 0.39396 -0.49300
F 	F 	0.75331 0.64581 0.49981 -0.53800
C 	C 	0.61995 0.64088 0.52845 0.99200
F 	F 	0.60359 0.61334 0.46707 -0.48900
F 	F 	0.66030 0.62719 0.60787 -0.49700
F 	F 	0.57687 0.65812 0.55787 -0.53700
Co	Co	0.35690 0.24117 0.03723 1.16000
N 	N 	0.37644 0.29259 0.97266 -0.21100
O 	O 	0.30542 0.22838 0.90603 -0.48700
O 	O 	0.20689 0.23067 0.90876 -0.44300
C 	C 	0.42290 0.31360 0.03330 0.05500
C 	C 	0.34450 0.30710 0.88480 0.08900
C 	C 	0.25071 0.22401 0.87189 0.47800
H 	H 	0.44470 0.30380 0.09520 0.02300
C 	C 	0.43730 0.34790 0.00640 -0.12200
C 	C 	0.35950 0.33970 0.85340 -0.14900
H 	H 	0.31240 0.29310 0.84220 0.03200
C 	C 	0.22429 0.21538 0.76690 -0.26300
H 	H 	0.46940 0.36180 0.04910 0.08300
C 	C 	0.40830 0.36060 0.91300 0.09000
H 	H 	0.33770 0.34940 0.79150 0.13800
C 	C 	0.26533 0.19949 0.72390 0.25700
C 	C 	0.16253 0.21702 0.71729 0.26300
H 	H 	0.30660 0.19800 0.75730 -0.03000
C 	C 	0.24433 0.18572 0.63020 -0.35700
C 	C 	0.14183 0.20320 0.62370 -0.35000
H 	H 	0.13500 0.22740 0.74660 -0.03400
H 	H 	0.27170 0.17510 0.60110 0.25800
C 	C 	0.18267 0.18777 0.58020 0.43300
H 	H 	0.10050 0.20440 0.59050 0.23700
N 	N 	0.83454 0.69374 0.10307 -0.22800
C 	C 	0.87969 0.67372 0.16610 0.07400
C 	C 	0.77412 0.68228 0.08070 0.08000
H 	H 	0.92000 0.68170 0.18170 0.00800
C 	C 	0.86520 0.64150 0.20680 -0.13900
C 	C 	0.75958 0.65006 0.12010 -0.14000
H 	H 	0.74350 0.69610 0.03950 0.00200
C 	C 	0.80527 0.62976 0.18399 0.11100
H 	H 	0.89580 0.62800 0.24900 0.09100
H 	H 	0.71930 0.64200 0.10380 0.09300
O 	O 	0.93405 0.24693 0.16219 -0.40100
C 	C 	0.98844 0.25881 0.19320 0.37100
O 	O 	0.01235 0.28156 0.15030 -0.28000
C 	C 	0.43020 0.39780 0.89000 -0.04600
C 	C 	0.46930 0.41690 0.95050 0.03600
C 	C 	0.39600 0.41160 0.79900 0.00500
C 	C 	0.49150 0.45140 0.91440 -0.15100
C 	C 	0.41320 0.44620 0.77100 -0.10800
H 	H 	0.36150 0.39920 0.75750 0.09500
H 	H 	0.52610 0.46380 0.95580 0.08600
C 	C 	0.46114 0.46400 0.83270 0.13300
H 	H 	0.39130 0.45690 0.71000 0.09700
C 	C 	0.57430 0.52100 0.76460 -0.06500
C 	C 	0.50520 0.48088 0.65320 -0.07200
H 	H 	0.58410 0.53520 0.82290 0.06600
C 	C 	0.61330 0.52088 0.70590 -0.01900
C 	C 	0.54320 0.48205 0.59320 -0.01300
H 	H 	0.46750 0.46760 0.63380 0.08600
H 	H 	0.64980 0.53540 0.72250 0.06000
H 	H 	0.53160 0.46920 0.53280 0.06000
C 	C 	0.79251 0.59537 0.23130 -0.03800
C 	C 	0.83240 0.58400 0.31730 0.03200
C 	C 	0.73966 0.57569 0.19010 0.02300
C 	C 	0.81950 0.55220 0.36190 -0.12100
H 	H 	0.86760 0.59730 0.34540 0.03700
H 	H 	0.71260 0.58370 0.13270 0.02700
C 	C 	0.72707 0.54429 0.23370 -0.12400
C 	C 	0.76728 0.53252 0.32046 0.13000
H 	H 	0.84630 0.54440 0.41970 0.09200
H 	H 	0.69190 0.53100 0.20540 0.07900
C 	C 	0.71750 0.46972 0.50010 -0.07600
C 	C 	0.67700 0.46899 0.55660 -0.01500
H 	H 	0.74290 0.44900 0.49900 0.11300
H 	H 	0.67490 0.44800 0.59540 0.10200
C 	C 	0.15325 0.16971 0.48360 -0.54500
C 	C 	0.11435 0.19745 0.41230 0.41900
C 	C 	0.13060 0.23189 0.39200 -0.34000
C 	C 	0.05718 0.18337 0.36328 -0.32300
H 	H 	0.16880 0.24110 0.42460 0.18800
C 	C 	0.09000 0.25325 0.32247 0.22000
C 	C 	0.01705 0.20470 0.29380 0.21400
H 	H 	0.04600 0.16000 0.37690 0.24000
H 	H 	0.10110 0.27660 0.30890 -0.01900
C 	C 	0.03365 0.23964 0.27440 -0.22000
H 	H 	0.97900 0.19550 0.26030 -0.00800
C 	C 	0.19956 0.15317 0.43620 1.00900
F 	F 	0.20619 0.17726 0.37058 -0.54700
F 	F 	0.17423 0.12215 0.39396 -0.49300
F 	F 	0.25331 0.14581 0.49981 -0.53800
C 	C 	0.11995 0.14088 0.52845 0.99200
F 	F 	0.10359 0.11334 0.46707 -0.48900
F 	F 	0.16030 0.12719 0.60787 -0.49800
F 	F 	0.07687 0.15812 0.55787 -0.53700
N 	N 	0.98145 -0.00000 0.80380 -0.16300
C 	C 	0.01988 0.00000 0.73870 0.13100
C 	C 	0.09738 0.00000 0.62030 0.01900
N 	N 	0.25710 0.00000 0.37360 -0.15300
C 	C 	0.21919 0.00000 0.44190 0.10300
C 	C 	0.14121 0.00000 0.55900 0.01000
N 	N 	0.48145 0.50000 0.80380 -0.16500
C 	C 	0.51988 0.50000 0.73870 0.13200
C 	C 	0.59738 0.50000 0.62030 0.01800
N 	N 	0.75710 0.50000 0.37360 -0.15400
C 	C 	0.71919 0.50000 0.44190 0.10200
C 	C 	0.64121 0.50000 0.55900 0.01000
N 	N 	0.01855 0.00000 0.19620 -0.16300
C 	C 	0.98012 0.00000 0.26130 0.13100
C 	C 	0.90262 0.00000 0.37970 0.01900
N 	N 	0.74290 0.00000 0.62640 -0.15300
C 	C 	0.78081 0.00000 0.55810 0.10300
C 	C 	0.85879 0.00000 0.44100 0.01000
N 	N 	0.51855 0.50000 0.19620 -0.16500
C 	C 	0.48012 0.50000 0.26130 0.13200
C 	C 	0.40262 0.50000 0.37970 0.01800
N 	N 	0.24290 0.50000 0.62640 -0.15400
C 	C 	0.28081 0.50000 0.55810 0.10200
C 	C 	0.35879 0.50000 0.44100 0.01000
