data_crystal

_cell_length_a 14.69580
_cell_length_b 11.64510
_cell_length_c 20.59120
_cell_angle_alpha 90.00000
_cell_angle_beta  93.81100
_cell_angle_gamma 90.00000

_symmetry_space_group_name_	'P 1'
_symmetry_space_group_name_H-M	'P 1'

loop_
_symmetry_equiv_pos_as_xyz
  x,y,z

loop_
_atom_site_label
_atom_site_type_symbol
_atom_site_fract_x
_atom_site_fract_y
_atom_site_fract_z
_atom_site_charge
Be	Be	0.60060 0.67320 0.23520 1.48000
Be	Be	0.65510 0.71830 0.50640 1.48000
Be	Be	0.41450 0.93090 0.63780 1.48100
Be	Be	0.34720 0.61430 0.59610 1.48100
Be	Be	0.38150 0.27440 0.61700 1.48000
P 	P 	0.63580 0.75094 0.36466 0.68100
P 	P 	0.47546 0.77014 0.54238 0.72400
P 	P 	0.28683 0.77268 0.69556 0.68600
P 	P 	0.44169 0.46336 0.69596 0.69100
P 	P 	0.28540 0.41309 0.52246 0.68200
P 	P 	0.26498 0.08341 0.59238 0.65800
P 	P 	0.52723 0.13046 0.66128 0.66700
O 	O 	0.61640 0.66080 0.31310 -0.53900
O 	O 	0.62710 0.70240 0.42943 -0.54500
O 	O 	0.56220 0.84390 0.35660 -0.47400
H 	H 	0.54540 0.85020 0.31800 0.31900
O 	O 	0.72700 0.80630 0.35770 -0.30300
O 	O 	0.56360 0.70340 0.54467 -0.53700
O 	O 	0.48000 0.85920 0.59486 -0.56200
O 	O 	0.39390 0.69270 0.54522 -0.56300
O 	O 	0.46230 0.83270 0.47564 -0.42600
H 	H 	0.50150 0.81120 0.45180 0.30200
O 	O 	0.36430 0.85530 0.69057 -0.55600
O 	O 	0.27450 0.69180 0.63801 -0.55700
O 	O 	0.19800 0.83910 0.70187 -0.57300
O 	O 	0.30780 0.69890 0.75794 -0.49100
H 	H 	0.26990 0.71270 0.78440 0.32700
O 	O 	0.42580 0.55710 0.64651 -0.55300
O 	O 	0.38400 0.35730 0.68020 -0.56200
O 	O 	0.41110 0.50910 0.76397 -0.41400
H 	H 	0.37990 0.56700 0.75810 0.32900
O 	O 	0.54100 0.43280 0.70654 -0.53800
O 	O 	0.27920 0.52460 0.55874 -0.53800
O 	O 	0.36770 0.34270 0.54827 -0.55700
O 	O 	0.30390 0.44570 0.44947 -0.41200
H 	H 	0.27810 0.39940 0.42450 0.31200
O 	O 	0.19770 0.34570 0.52157 -0.55500
O 	O 	0.29810 0.18920 0.63098 -0.55400
O 	O 	0.18620 0.03290 0.63090 -0.43300
H 	H 	0.20350 0.97370 0.64930 0.30700
O 	O 	0.22550 0.11640 0.52525 -0.53000
O 	O 	0.33970 0.99550 0.58553 -0.52400
O 	O 	0.47740 0.20550 0.61024 -0.55200
O 	O 	0.47140 0.02900 0.68074 -0.51900
O 	O 	0.61300 0.08120 0.63022 -0.43200
H 	H 	0.65600 0.12550 0.63700 0.30700
O 	O 	0.55510 0.20040 0.72194 -0.58000
Be	Be	0.10060 0.17320 0.23520 1.48100
Be	Be	0.15510 0.21830 0.50640 1.48100
Be	Be	0.91450 0.43090 0.63780 1.48100
Be	Be	0.84720 0.11430 0.59610 1.48100
Be	Be	0.88150 0.77440 0.61700 1.48000
P 	P 	0.13580 0.25094 0.36466 0.68100
P 	P 	0.97546 0.27014 0.54238 0.73900
P 	P 	0.78683 0.27268 0.69556 0.68600
P 	P 	0.94169 0.96336 0.69596 0.71100
P 	P 	0.78540 0.91309 0.52246 0.68300
P 	P 	0.76498 0.58341 0.59238 0.65900
P 	P 	0.02723 0.63046 0.66128 0.62800
O 	O 	0.11640 0.16080 0.31310 -0.54500
O 	O 	0.12710 0.20240 0.42943 -0.54800
O 	O 	0.06220 0.34390 0.35660 -0.47800
H 	H 	0.04540 0.35020 0.31800 0.31500
O 	O 	0.22700 0.30630 0.35770 -0.30600
O 	O 	0.06360 0.20340 0.54467 -0.55600
O 	O 	0.98000 0.35920 0.59486 -0.55500
O 	O 	0.89390 0.19270 0.54522 -0.56000
O 	O 	0.96230 0.33270 0.47564 -0.38900
H 	H 	0.00150 0.31120 0.45180 0.26900
O 	O 	0.86430 0.35530 0.69057 -0.55300
O 	O 	0.77450 0.19180 0.63801 -0.55500
O 	O 	0.69800 0.33910 0.70187 -0.57100
O 	O 	0.80780 0.19890 0.75794 -0.48900
H 	H 	0.76990 0.21270 0.78440 0.32700
O 	O 	0.92580 0.05710 0.64651 -0.54900
O 	O 	0.88400 0.85730 0.68020 -0.55800
O 	O 	0.91110 0.00910 0.76397 -0.40800
H 	H 	0.87990 0.06700 0.75810 0.32900
O 	O 	0.04100 0.93280 0.70654 -0.55900
O 	O 	0.77920 0.02460 0.55874 -0.53600
O 	O 	0.86770 0.84270 0.54827 -0.55400
O 	O 	0.80390 0.94570 0.44947 -0.40600
H 	H 	0.77810 0.89940 0.42450 0.31200
O 	O 	0.69770 0.84570 0.52157 -0.55200
O 	O 	0.79810 0.68920 0.63098 -0.55100
O 	O 	0.68620 0.53290 0.63090 -0.42700
H 	H 	0.70350 0.47370 0.64930 0.30700
O 	O 	0.72550 0.61640 0.52525 -0.52700
O 	O 	0.83970 0.49550 0.58553 -0.52300
O 	O 	0.97740 0.70550 0.61024 -0.52800
O 	O 	0.97140 0.52900 0.68074 -0.49600
O 	O 	0.11300 0.58120 0.63022 -0.43400
H 	H 	0.15600 0.62550 0.63700 0.30600
O 	O 	0.05510 0.70040 0.72194 -0.58200
Be	Be	0.60060 0.32680 0.73520 1.48100
Be	Be	0.65510 0.28170 0.00640 1.47900
Be	Be	0.41450 0.06910 0.13780 1.48100
Be	Be	0.34720 0.38570 0.09610 1.48100
Be	Be	0.38150 0.72560 0.11700 1.48000
P 	P 	0.63580 0.24906 0.86466 0.67800
P 	P 	0.47546 0.22986 0.04238 0.65900
P 	P 	0.28683 0.22732 0.19556 0.68600
P 	P 	0.44169 0.53664 0.19596 0.69100
P 	P 	0.28540 0.58691 0.02246 0.62200
P 	P 	0.26498 0.91659 0.09238 0.66300
P 	P 	0.52723 0.86954 0.16128 0.66700
O 	O 	0.61640 0.33920 0.81310 -0.53000
O 	O 	0.62710 0.29760 0.92943 -0.49400
O 	O 	0.56220 0.15610 0.85660 -0.45700
H 	H 	0.54540 0.14980 0.81800 0.31700
O 	O 	0.72700 0.19370 0.85770 -0.28500
O 	O 	0.56360 0.29660 0.04467 -0.55300
O 	O 	0.48000 0.14080 0.09486 -0.56400
O 	O 	0.39390 0.30730 0.04522 -0.58000
O 	O 	0.46230 0.16730 0.97564 -0.33600
H 	H 	0.50150 0.18880 0.95180 0.29500
O 	O 	0.36430 0.14470 0.19057 -0.56100
O 	O 	0.27450 0.30820 0.13801 -0.56200
O 	O 	0.19800 0.16090 0.20187 -0.57600
O 	O 	0.30780 0.30110 0.25794 -0.49600
H 	H 	0.26990 0.28730 0.28440 0.32600
O 	O 	0.42580 0.44290 0.14651 -0.55500
O 	O 	0.38400 0.64270 0.18020 -0.56400
O 	O 	0.41110 0.49090 0.26397 -0.42200
H 	H 	0.37990 0.43300 0.25810 0.32900
O 	O 	0.54100 0.56720 0.20654 -0.54200
O 	O 	0.27920 0.47540 0.05874 -0.54600
O 	O 	0.36770 0.65730 0.04827 -0.56900
O 	O 	0.30390 0.55430 0.94947 -0.33100
H 	H 	0.27810 0.60060 0.92450 0.30400
O 	O 	0.19770 0.65430 0.02157 -0.57900
O 	O 	0.29810 0.81080 0.13098 -0.55700
O 	O 	0.18620 0.96710 0.13090 -0.43300
H 	H 	0.20350 0.02630 0.14930 0.30200
O 	O 	0.22550 0.88360 0.02525 -0.56200
O 	O 	0.33970 0.00450 0.08553 -0.54300
O 	O 	0.47740 0.79450 0.11024 -0.56200
O 	O 	0.47140 0.97100 0.18074 -0.52200
O 	O 	0.61300 0.91880 0.13022 -0.43800
H 	H 	0.65600 0.87450 0.13700 0.30600
O 	O 	0.55510 0.79960 0.22194 -0.58200
Be	Be	0.10060 0.82680 0.73520 1.48100
Be	Be	0.15510 0.78170 0.00640 1.47900
Be	Be	0.91450 0.56910 0.13780 1.48100
Be	Be	0.84720 0.88570 0.09610 1.48100
Be	Be	0.88150 0.22560 0.11700 1.48000
P 	P 	0.13580 0.74906 0.86466 0.67800
P 	P 	0.97546 0.72986 0.04238 0.67500
P 	P 	0.78683 0.72732 0.19556 0.68600
P 	P 	0.94169 0.03664 0.19596 0.70600
P 	P 	0.78540 0.08691 0.02246 0.61800
P 	P 	0.76498 0.41659 0.09238 0.66100
P 	P 	0.02723 0.36954 0.16128 0.62900
O 	O 	0.11640 0.83920 0.81310 -0.53600
O 	O 	0.12710 0.79760 0.92943 -0.50000
O 	O 	0.06220 0.65610 0.85660 -0.46200
H 	H 	0.04540 0.64980 0.81800 0.31300
O 	O 	0.22700 0.69370 0.85770 -0.28800
O 	O 	0.06360 0.79660 0.04467 -0.56900
O 	O 	0.98000 0.64080 0.09486 -0.55700
O 	O 	0.89390 0.80730 0.04522 -0.57700
O 	O 	0.96230 0.66730 0.97564 -0.30000
H 	H 	0.00150 0.68880 0.95180 0.26100
O 	O 	0.86430 0.64470 0.19057 -0.55700
O 	O 	0.77450 0.80820 0.13801 -0.56000
O 	O 	0.69800 0.66090 0.20187 -0.57400
O 	O 	0.80780 0.80110 0.25794 -0.49300
H 	H 	0.76990 0.78730 0.28440 0.32600
O 	O 	0.92580 0.94290 0.14651 -0.54900
O 	O 	0.88400 0.14270 0.18020 -0.56100
O 	O 	0.91110 0.99090 0.26397 -0.41300
H 	H 	0.87990 0.93300 0.25810 0.32800
O 	O 	0.04100 0.06720 0.20654 -0.56200
O 	O 	0.77920 0.97540 0.05874 -0.54000
O 	O 	0.86770 0.15730 0.04827 -0.56600
O 	O 	0.80390 0.05430 0.94947 -0.32500
H 	H 	0.77810 0.10060 0.92450 0.30500
O 	O 	0.69770 0.15430 0.02157 -0.57700
O 	O 	0.79810 0.31080 0.13098 -0.55400
O 	O 	0.68620 0.46710 0.13090 -0.43300
H 	H 	0.70350 0.52630 0.14930 0.30600
O 	O 	0.72550 0.38360 0.02525 -0.56200
O 	O 	0.83970 0.50450 0.08553 -0.53900
O 	O 	0.97740 0.29450 0.11024 -0.54000
O 	O 	0.97140 0.47100 0.18074 -0.50100
O 	O 	0.11300 0.41880 0.13022 -0.44300
H 	H 	0.15600 0.37450 0.13700 0.30600
O 	O 	0.05510 0.29960 0.22194 -0.58400
