data_crystal

_cell_length_a 21.68540
_cell_length_b 29.72760
_cell_length_c 34.82860
_cell_angle_alpha 90.00000
_cell_angle_beta  96.34200
_cell_angle_gamma 90.00000

_symmetry_space_group_name_	'P 1'
_symmetry_space_group_name_H-M	'P 1'

loop_
_symmetry_equiv_pos_as_xyz
  x,y,z

loop_
_atom_site_label
_atom_site_type_symbol
_atom_site_fract_x
_atom_site_fract_y
_atom_site_fract_z
_atom_site_charge
Mo	Mo	0.07166 0.91720 0.03051 1.04000
Mo	Mo	0.98584 0.92903 0.93985 1.03800
Mo	Mo	0.22927 0.04081 0.98665 1.10300
Mo	Mo	0.14997 0.05207 0.90438 1.10400
Mo	Mo	0.01962 0.98603 0.88904 1.04200
Mo	Mo	0.17295 0.96412 0.04786 1.04200
Mo	Mo	0.30894 0.94157 0.00033 1.05300
Mo	Mo	0.06175 0.83074 0.96494 1.10500
Mo	Mo	0.18108 0.81127 0.92153 1.10400
Mo	Mo	0.30746 0.87758 0.94893 1.05300
Mo	Mo	0.21815 0.89054 0.85620 1.05600
Mo	Mo	0.15478 0.96407 0.84097 1.05300
Zn	Zn	0.06743 0.02877 0.98320 1.19600
Zn	Zn	0.06030 0.86935 0.86955 1.22200
Zn	Zn	0.20399 0.84881 0.01832 1.22000
Zn	Zn	0.28811 0.99119 0.90655 1.21900
O 	O 	0.00928 0.07116 0.00228 -0.72500
O 	O 	0.09197 0.98026 0.02131 -0.77600
O 	O 	0.01820 0.99019 0.94474 -0.78000
O 	O 	0.14250 0.04847 0.96142 -0.72700
O 	O 	0.01600 0.92047 0.88942 -0.73200
O 	O 	0.99400 0.86128 0.94300 -0.59700
O 	O 	0.15370 0.82198 0.97424 -0.71100
O 	O 	0.09280 0.83044 0.91217 -0.70800
O 	O 	0.23410 0.03336 0.92956 -0.71200
O 	O 	0.06180 0.85231 0.01343 -0.60300
O 	O 	0.19870 0.02522 0.03094 -0.62300
O 	O 	0.26120 0.81951 0.94261 -0.59300
O 	O 	0.31340 0.94336 0.94460 -0.72300
O 	O 	0.27490 0.88075 0.99876 -0.72500
O 	O 	0.06650 0.04389 0.89509 -0.62200
O 	O 	0.12890 0.90185 0.84800 -0.72100
O 	O 	0.26640 0.94696 0.05023 -0.48400
O 	O 	0.23760 0.95363 0.86700 -0.71700
O 	O 	0.30150 0.00835 0.99521 -0.59700
O 	O 	0.30100 0.87913 0.88961 -0.48100
O 	O 	0.06010 0.97665 0.83794 -0.48300
O 	O 	0.15954 0.89989 0.03889 -0.72800
O 	O 	0.16940 0.02699 0.85932 -0.59400
O 	O 	0.19300 0.82957 0.87259 -0.58900
C 	C 	0.48960 0.63580 0.30010 0.33700
C 	C 	0.45470 0.66220 0.26720 -0.12400
C 	C 	0.45630 0.70750 0.26730 0.03100
H 	H 	0.47830 0.72250 0.28790 0.01500
C 	C 	0.42540 0.73250 0.23710 -0.11400
H 	H 	0.42620 0.76370 0.23840 0.05300
C 	C 	0.39400 0.71200 0.20560 0.02400
C 	C 	0.39210 0.66630 0.20600 -0.11200
H 	H 	0.37060 0.65120 0.18530 0.03600
C 	C 	0.42190 0.64180 0.23670 0.02500
H 	H 	0.41930 0.61060 0.23620 0.00800
C 	C 	0.36260 0.74040 0.17370 0.05000
C 	C 	0.37470 0.78470 0.17260 -0.13500
H 	H 	0.40330 0.79710 0.19150 0.06100
C 	C 	0.34570 0.81270 0.14370 0.04400
H 	H 	0.35510 0.84320 0.14370 0.01100
C 	C 	0.30400 0.79560 0.11570 -0.14400
C 	C 	0.29320 0.75070 0.11590 0.04700
H 	H 	0.26630 0.73790 0.09630 -0.00300
C 	C 	0.32230 0.72370 0.14530 -0.13700
H 	H 	0.31350 0.69300 0.14520 0.04700
C 	C 	0.27240 0.82710 0.08530 0.35400
O 	O 	0.49670 0.59541 0.29683 -0.33700
O 	O 	0.50940 0.66042 0.32916 -0.49000
O 	O 	0.23750 0.80832 0.05839 -0.50000
O 	O 	0.28160 0.86720 0.08878 -0.34600
C 	C 	0.61810 0.04590 0.63480 0.32600
C 	C 	0.58240 0.03630 0.66840 -0.12900
C 	C 	0.59870 0.00170 0.69340 0.03900
H 	H 	0.63150 0.98290 0.68900 0.00800
C 	C 	0.56700 0.99440 0.72530 -0.12400
H 	H 	0.57940 0.97110 0.74220 0.05800
C 	C 	0.51790 0.02070 0.73250 0.04300
C 	C 	0.50220 0.05540 0.70730 -0.12400
H 	H 	0.46870 0.07370 0.71130 0.05600
C 	C 	0.53430 0.06390 0.67630 0.03900
H 	H 	0.52350 0.08850 0.66040 0.00700
C 	C 	0.48270 0.01130 0.76590 0.03200
C 	C 	0.47900 0.96840 0.78030 -0.11100
H 	H 	0.49960 0.94510 0.76910 0.05500
C 	C 	0.44530 0.95870 0.81100 0.02300
H 	H 	0.44200 0.92920 0.81950 0.02000
C 	C 	0.41710 0.99270 0.82870 -0.11900
C 	C 	0.42040 0.03510 0.81540 0.03000
H 	H 	0.40100 0.05840 0.82730 0.01100
C 	C 	0.45280 0.04390 0.78410 -0.11700
H 	H 	0.45410 0.07330 0.77520 0.05500
C 	C 	0.38050 0.98050 0.86210 0.32100
O 	O 	0.61750 0.08430 0.62169 -0.32600
O 	O 	0.35300 0.01300 0.87736 -0.48300
O 	O 	0.64750 0.01172 0.62242 -0.47900
O 	O 	0.37940 0.94060 0.87150 -0.33000
Mo	Mo	0.92250 0.07002 0.45573 1.04100
Mo	Mo	0.00845 0.08406 0.54601 1.03800
Mo	Mo	0.97789 0.04146 0.60666 1.04200
Mo	Mo	0.82519 0.01709 0.44754 1.04100
Mo	Mo	0.85336 0.96974 0.60553 1.10600
Mo	Mo	0.92633 0.17198 0.50277 1.10300
Mo	Mo	0.80347 0.19942 0.53982 1.10500
Mo	Mo	0.77443 0.95796 0.52310 1.10300
Mo	Mo	0.68684 0.04881 0.48992 1.05000
Mo	Mo	0.83997 0.07241 0.64873 1.05800
Mo	Mo	0.77169 0.13875 0.61886 1.05700
Mo	Mo	0.68166 0.12503 0.52673 1.05000
Zn	Zn	0.93444 0.97418 0.52336 1.19700
Zn	Zn	0.92808 0.15945 0.60283 1.22000
Zn	Zn	0.78634 0.13614 0.45497 1.22200
Zn	Zn	0.71119 0.02648 0.59029 1.22000
O 	O 	0.90728 0.01068 0.47678 -0.77700
O 	O 	0.83354 0.08222 0.44384 -0.73000
O 	O 	0.99616 0.93048 0.51047 -0.72300
O 	O 	0.92770 0.13775 0.45967 -0.59900
O 	O 	0.98002 0.02263 0.55319 -0.78000
O 	O 	0.97700 0.10534 0.59337 -0.73000
O 	O 	0.99570 0.14905 0.52966 -0.60100
O 	O 	0.93580 0.98205 0.61260 -0.61500
O 	O 	0.93410 0.06208 0.65335 -0.48500
O 	O 	0.80430 0.96202 0.47673 -0.62500
O 	O 	0.73090 0.03113 0.44225 -0.48500
O 	O 	0.83080 0.00596 0.64406 -0.58900
O 	O 	0.86150 0.95885 0.54912 -0.72500
O 	O 	0.76780 0.97950 0.57736 -0.70800
O 	O 	0.71650 0.10904 0.47929 -0.72500
O 	O 	0.68020 0.06213 0.54428 -0.72600
O 	O 	0.69980 0.98548 0.50861 -0.59800
O 	O 	0.75700 0.07416 0.62144 -0.72100
O 	O 	0.86110 0.13156 0.62921 -0.71900
O 	O 	0.79280 0.19461 0.59090 -0.59200
O 	O 	0.68720 0.13981 0.58486 -0.48300
O 	O 	0.89320 0.18533 0.55386 -0.71100
O 	O 	0.83330 0.17547 0.49167 -0.71700
O 	O 	0.72450 0.18375 0.52141 -0.59900
C 	C 	0.98780 0.17790 0.67360 0.35000
C 	C 	0.01560 0.20730 0.70610 -0.14200
C 	C 	0.06160 0.19070 0.73100 0.05000
H 	H 	0.07520 0.16130 0.72820 0.00100
C 	C 	0.08910 0.21760 0.76090 -0.13500
H 	H 	0.12170 0.20580 0.77750 0.05600
C 	C 	0.07030 0.26000 0.76650 0.04800
C 	C 	0.02340 0.27690 0.74130 -0.13200
H 	H 	0.00950 0.30620 0.74450 0.06200
C 	C 	0.99600 0.25090 0.71060 0.04800
H 	H 	0.96460 0.26300 0.69320 0.00400
C 	C 	0.10210 0.28800 0.79810 0.03500
C 	C 	0.12530 0.26740 0.83230 -0.12600
H 	H 	0.11830 0.23690 0.83590 0.04700
C 	C 	0.15910 0.29220 0.86130 0.04300
H 	H 	0.17250 0.27860 0.88480 -0.00200
C 	C 	0.17260 0.33600 0.85570 -0.13800
C 	C 	0.14860 0.35700 0.82250 0.04300
H 	H 	0.15550 0.38760 0.81920 0.00900
C 	C 	0.11420 0.33270 0.79400 -0.12500
H 	H 	0.09880 0.34720 0.77120 0.06000
C 	C 	0.21290 0.36100 0.88680 0.35000
O 	O 	0.98820 0.13750 0.67881 -0.34300
O 	O 	0.96770 0.19827 0.64245 -0.49100
O 	O 	0.21000 0.40200 0.88827 -0.33700
O 	O 	0.24820 0.33600 0.90917 -0.49800
Mo	Mo	0.42834 0.41720 0.46949 1.03900
Mo	Mo	0.51416 0.42903 0.56015 1.03700
Mo	Mo	0.27073 0.54081 0.51335 1.10200
Mo	Mo	0.35003 0.55207 0.59562 1.10300
Mo	Mo	0.48038 0.48603 0.61096 1.04100
Mo	Mo	0.32705 0.46412 0.45214 1.04100
Mo	Mo	0.19106 0.44157 0.49967 1.05200
Mo	Mo	0.43825 0.33074 0.53506 1.10500
Mo	Mo	0.31892 0.31127 0.57847 1.10400
Mo	Mo	0.19254 0.37758 0.55107 1.05300
Mo	Mo	0.28185 0.39054 0.64380 1.05600
Mo	Mo	0.34522 0.46407 0.65903 1.05300
Zn	Zn	0.43257 0.52877 0.51680 1.19600
Zn	Zn	0.43970 0.36935 0.63045 1.22200
Zn	Zn	0.29601 0.34881 0.48168 1.22000
Zn	Zn	0.21189 0.49119 0.59345 1.21900
O 	O 	0.49072 0.57116 0.49772 -0.72500
O 	O 	0.40803 0.48026 0.47869 -0.77600
O 	O 	0.48180 0.49019 0.55526 -0.78000
O 	O 	0.35750 0.54847 0.53858 -0.72700
O 	O 	0.48400 0.42047 0.61058 -0.73200
O 	O 	0.50600 0.36128 0.55700 -0.59700
O 	O 	0.34630 0.32198 0.52576 -0.71100
O 	O 	0.40720 0.33044 0.58783 -0.70800
O 	O 	0.26590 0.53336 0.57044 -0.71200
O 	O 	0.43820 0.35231 0.48657 -0.60300
O 	O 	0.30130 0.52522 0.46906 -0.62300
O 	O 	0.23880 0.31951 0.55739 -0.59300
O 	O 	0.18660 0.44336 0.55540 -0.72400
O 	O 	0.22510 0.38075 0.50124 -0.72500
O 	O 	0.43350 0.54389 0.60491 -0.62100
O 	O 	0.37110 0.40185 0.65200 -0.72100
O 	O 	0.23360 0.44696 0.44977 -0.48400
O 	O 	0.26240 0.45363 0.63300 -0.71700
O 	O 	0.19850 0.50835 0.50479 -0.59700
O 	O 	0.19900 0.37913 0.61039 -0.48100
O 	O 	0.43990 0.47665 0.66206 -0.48300
O 	O 	0.34046 0.39989 0.46111 -0.72800
O 	O 	0.33060 0.52699 0.64068 -0.59400
O 	O 	0.30700 0.32957 0.62741 -0.58900
C 	C 	0.01040 0.13580 0.19990 0.33800
C 	C 	0.04530 0.16220 0.23280 -0.12500
C 	C 	0.04370 0.20750 0.23270 0.03100
H 	H 	0.02170 0.22250 0.21210 0.01500
C 	C 	0.07460 0.23250 0.26290 -0.11500
H 	H 	0.07380 0.26370 0.26160 0.05300
C 	C 	0.10600 0.21200 0.29440 0.02400
C 	C 	0.10790 0.16630 0.29400 -0.11200
H 	H 	0.12940 0.15120 0.31470 0.03600
C 	C 	0.07810 0.14180 0.26330 0.02600
H 	H 	0.08070 0.11060 0.26380 0.00800
C 	C 	0.13740 0.24040 0.32630 0.05000
C 	C 	0.12530 0.28470 0.32740 -0.13500
H 	H 	0.09670 0.29710 0.30850 0.06100
C 	C 	0.15430 0.31270 0.35630 0.04400
H 	H 	0.14490 0.34320 0.35630 0.01100
C 	C 	0.19600 0.29560 0.38430 -0.14400
C 	C 	0.20680 0.25070 0.38410 0.04700
H 	H 	0.23370 0.23790 0.40370 -0.00300
C 	C 	0.17770 0.22370 0.35470 -0.13700
H 	H 	0.18650 0.19300 0.35480 0.04700
C 	C 	0.22760 0.32710 0.41470 0.35400
O 	O 	0.00330 0.09541 0.20317 -0.33800
O 	O 	0.99060 0.16042 0.17084 -0.49000
O 	O 	0.26250 0.30832 0.44161 -0.50000
O 	O 	0.21840 0.36720 0.41122 -0.34600
C 	C 	0.88190 0.54590 0.86520 0.32600
C 	C 	0.91760 0.53630 0.83160 -0.12900
C 	C 	0.90130 0.50170 0.80660 0.04000
H 	H 	0.86850 0.48290 0.81100 0.00700
C 	C 	0.93300 0.49440 0.77470 -0.12500
H 	H 	0.92060 0.47110 0.75780 0.05800
C 	C 	0.98210 0.52070 0.76750 0.04300
C 	C 	0.99780 0.55540 0.79270 -0.12500
H 	H 	0.03130 0.57370 0.78870 0.05600
C 	C 	0.96570 0.56390 0.82370 0.03900
H 	H 	0.97650 0.58850 0.83960 0.00700
C 	C 	0.01730 0.51130 0.73410 0.03200
C 	C 	0.02100 0.46840 0.71970 -0.11100
H 	H 	0.00040 0.44510 0.73090 0.05500
C 	C 	0.05470 0.45870 0.68900 0.02300
H 	H 	0.05800 0.42920 0.68050 0.01900
C 	C 	0.08290 0.49270 0.67130 -0.11900
C 	C 	0.07960 0.53510 0.68460 0.03100
H 	H 	0.09900 0.55840 0.67270 0.01100
C 	C 	0.04720 0.54390 0.71590 -0.11700
H 	H 	0.04590 0.57330 0.72480 0.05500
C 	C 	0.11950 0.48050 0.63790 0.32100
O 	O 	0.88250 0.58430 0.87831 -0.32700
O 	O 	0.14700 0.51300 0.62264 -0.48300
O 	O 	0.85250 0.51172 0.87758 -0.47900
O 	O 	0.12060 0.44060 0.62850 -0.33000
Mo	Mo	0.57750 0.57002 0.04427 1.04100
Mo	Mo	0.49155 0.58406 0.95399 1.03800
Mo	Mo	0.52211 0.54146 0.89334 1.04200
Mo	Mo	0.67481 0.51709 0.05246 1.04100
Mo	Mo	0.64664 0.46974 0.89447 1.10600
Mo	Mo	0.57367 0.67198 0.99723 1.10300
Mo	Mo	0.69653 0.69942 0.96018 1.10500
Mo	Mo	0.72557 0.45796 0.97690 1.10300
Mo	Mo	0.81316 0.54881 0.01008 1.05000
Mo	Mo	0.66003 0.57241 0.85127 1.05800
Mo	Mo	0.72831 0.63875 0.88114 1.05700
Mo	Mo	0.81834 0.62503 0.97327 1.05000
Zn	Zn	0.56556 0.47418 0.97664 1.19700
Zn	Zn	0.57192 0.65945 0.89717 1.22100
Zn	Zn	0.71366 0.63614 0.04503 1.22200
Zn	Zn	0.78881 0.52648 0.90971 1.22000
O 	O 	0.59272 0.51068 0.02322 -0.77700
O 	O 	0.66646 0.58222 0.05616 -0.73000
O 	O 	0.50384 0.43048 0.98953 -0.72300
O 	O 	0.57230 0.63775 0.04033 -0.59900
O 	O 	0.51998 0.52263 0.94681 -0.78000
O 	O 	0.52300 0.60534 0.90663 -0.73000
O 	O 	0.50430 0.64905 0.97034 -0.60100
O 	O 	0.56420 0.48205 0.88740 -0.61500
O 	O 	0.56590 0.56208 0.84665 -0.48500
O 	O 	0.69570 0.46202 0.02327 -0.62400
O 	O 	0.76910 0.53113 0.05775 -0.48500
O 	O 	0.66920 0.50596 0.85594 -0.58900
O 	O 	0.63850 0.45885 0.95088 -0.72500
O 	O 	0.73220 0.47950 0.92264 -0.70800
O 	O 	0.78350 0.60904 0.02071 -0.72500
O 	O 	0.81980 0.56213 0.95572 -0.72600
O 	O 	0.80020 0.48548 0.99139 -0.59800
O 	O 	0.74300 0.57416 0.87856 -0.72100
O 	O 	0.63890 0.63156 0.87079 -0.71900
O 	O 	0.70720 0.69461 0.90910 -0.59200
O 	O 	0.81280 0.63981 0.91514 -0.48300
O 	O 	0.60680 0.68533 0.94614 -0.71100
O 	O 	0.66670 0.67547 0.00833 -0.71600
O 	O 	0.77550 0.68375 0.97859 -0.59900
C 	C 	0.51220 0.67790 0.82640 0.35100
C 	C 	0.48440 0.70730 0.79390 -0.14300
C 	C 	0.43840 0.69070 0.76900 0.05000
H 	H 	0.42480 0.66130 0.77180 0.00100
C 	C 	0.41090 0.71760 0.73910 -0.13600
H 	H 	0.37830 0.70580 0.72250 0.05600
C 	C 	0.42970 0.76000 0.73350 0.04800
C 	C 	0.47660 0.77690 0.75870 -0.13300
H 	H 	0.49050 0.80620 0.75550 0.06200
C 	C 	0.50400 0.75090 0.78940 0.04800
H 	H 	0.53540 0.76300 0.80680 0.00400
C 	C 	0.39790 0.78800 0.70190 0.03400
C 	C 	0.37470 0.76740 0.66770 -0.12600
H 	H 	0.38170 0.73690 0.66410 0.04700
C 	C 	0.34090 0.79220 0.63870 0.04300
H 	H 	0.32750 0.77860 0.61520 -0.00200
C 	C 	0.32740 0.83600 0.64430 -0.13800
C 	C 	0.35140 0.85700 0.67750 0.04200
H 	H 	0.34450 0.88760 0.68080 0.00900
C 	C 	0.38580 0.83270 0.70600 -0.12500
H 	H 	0.40120 0.84720 0.72880 0.06000
C 	C 	0.28710 0.86100 0.61320 0.35000
O 	O 	0.51180 0.63750 0.82119 -0.34300
O 	O 	0.53230 0.69827 0.85755 -0.49100
O 	O 	0.29000 0.90200 0.61173 -0.33700
O 	O 	0.25180 0.83600 0.59083 -0.49800
Mo	Mo	0.92834 0.08280 0.96949 1.03900
Mo	Mo	0.01416 0.07097 0.06015 1.03700
Mo	Mo	0.77073 0.95919 0.01335 1.10200
Mo	Mo	0.85003 0.94793 0.09562 1.10300
Mo	Mo	0.98038 0.01397 0.11096 1.04100
Mo	Mo	0.82705 0.03588 0.95214 1.04100
Mo	Mo	0.69106 0.05843 0.99967 1.05200
Mo	Mo	0.93825 0.16926 0.03506 1.10500
Mo	Mo	0.81892 0.18873 0.07847 1.10400
Mo	Mo	0.69254 0.12242 0.05108 1.05300
Mo	Mo	0.78185 0.10946 0.14380 1.05600
Mo	Mo	0.84522 0.03593 0.15903 1.05300
Zn	Zn	0.93257 0.97123 0.01680 1.19600
Zn	Zn	0.93970 0.13065 0.13045 1.22200
Zn	Zn	0.79601 0.15119 0.98168 1.22000
Zn	Zn	0.71189 0.00881 0.09345 1.21900
O 	O 	0.99072 0.92884 0.99772 -0.72500
O 	O 	0.90803 0.01974 0.97869 -0.77600
O 	O 	0.98180 0.00981 0.05526 -0.78000
O 	O 	0.85750 0.95153 0.03858 -0.72700
O 	O 	0.98400 0.07953 0.11058 -0.73200
O 	O 	0.00600 0.13872 0.05700 -0.59700
O 	O 	0.84630 0.17802 0.02576 -0.71100
O 	O 	0.90720 0.16956 0.08783 -0.70800
O 	O 	0.76590 0.96664 0.07044 -0.71200
O 	O 	0.93820 0.14769 0.98657 -0.60300
O 	O 	0.80130 0.97478 0.96906 -0.62300
O 	O 	0.73880 0.18049 0.05739 -0.59300
O 	O 	0.68660 0.05664 0.05540 -0.72300
O 	O 	0.72510 0.11925 0.00124 -0.72500
O 	O 	0.93350 0.95611 0.10491 -0.62200
O 	O 	0.87110 0.09815 0.15200 -0.72100
O 	O 	0.73360 0.05304 0.94977 -0.48400
O 	O 	0.76240 0.04637 0.13300 -0.71700
O 	O 	0.69850 0.99165 0.00479 -0.59700
O 	O 	0.69900 0.12087 0.11039 -0.48100
O 	O 	0.93990 0.02335 0.16206 -0.48300
O 	O 	0.84046 0.10011 0.96111 -0.72800
O 	O 	0.83060 0.97301 0.14068 -0.59400
O 	O 	0.80700 0.17043 0.12741 -0.58900
C 	C 	0.51040 0.36420 0.69990 0.33700
C 	C 	0.54530 0.33780 0.73280 -0.12400
C 	C 	0.54370 0.29250 0.73270 0.03100
H 	H 	0.52170 0.27750 0.71210 0.01500
C 	C 	0.57460 0.26750 0.76290 -0.11400
H 	H 	0.57380 0.23630 0.76160 0.05300
C 	C 	0.60600 0.28800 0.79440 0.02400
C 	C 	0.60790 0.33370 0.79400 -0.11200
H 	H 	0.62940 0.34880 0.81470 0.03600
C 	C 	0.57810 0.35820 0.76330 0.02500
H 	H 	0.58070 0.38940 0.76380 0.00800
C 	C 	0.63740 0.25960 0.82630 0.05000
C 	C 	0.62530 0.21530 0.82740 -0.13500
H 	H 	0.59670 0.20290 0.80850 0.06100
C 	C 	0.65430 0.18730 0.85630 0.04400
H 	H 	0.64490 0.15680 0.85630 0.01100
C 	C 	0.69600 0.20440 0.88430 -0.14400
C 	C 	0.70680 0.24930 0.88410 0.04700
H 	H 	0.73370 0.26210 0.90370 -0.00300
C 	C 	0.67770 0.27630 0.85470 -0.13700
H 	H 	0.68650 0.30700 0.85480 0.04700
C 	C 	0.72760 0.17290 0.91470 0.35400
O 	O 	0.50330 0.40459 0.70317 -0.33700
O 	O 	0.49060 0.33958 0.67084 -0.49000
O 	O 	0.76250 0.19168 0.94161 -0.50000
O 	O 	0.71840 0.13280 0.91122 -0.34600
C 	C 	0.38190 0.95410 0.36520 0.32600
C 	C 	0.41760 0.96370 0.33160 -0.12900
C 	C 	0.40130 0.99830 0.30660 0.03900
H 	H 	0.36850 0.01710 0.31100 0.00800
C 	C 	0.43300 0.00560 0.27470 -0.12400
H 	H 	0.42060 0.02890 0.25780 0.05800
C 	C 	0.48210 0.97930 0.26750 0.04300
C 	C 	0.49780 0.94460 0.29270 -0.12400
H 	H 	0.53130 0.92630 0.28870 0.05600
C 	C 	0.46570 0.93610 0.32370 0.03900
H 	H 	0.47650 0.91150 0.33960 0.00700
C 	C 	0.51730 0.98870 0.23410 0.03200
C 	C 	0.52100 0.03160 0.21970 -0.11100
H 	H 	0.50040 0.05490 0.23090 0.05500
C 	C 	0.55470 0.04130 0.18900 0.02300
H 	H 	0.55800 0.07080 0.18050 0.02000
C 	C 	0.58290 0.00730 0.17130 -0.11900
C 	C 	0.57960 0.96490 0.18460 0.03000
H 	H 	0.59900 0.94160 0.17270 0.01100
C 	C 	0.54720 0.95610 0.21590 -0.11700
H 	H 	0.54590 0.92670 0.22480 0.05500
C 	C 	0.61950 0.01950 0.13790 0.32100
O 	O 	0.38250 0.91570 0.37831 -0.32600
O 	O 	0.64700 0.98700 0.12264 -0.48300
O 	O 	0.35250 0.98828 0.37758 -0.47900
O 	O 	0.62060 0.05940 0.12850 -0.33000
Mo	Mo	0.07750 0.92998 0.54427 1.04100
Mo	Mo	0.99155 0.91594 0.45399 1.03800
Mo	Mo	0.02211 0.95854 0.39334 1.04200
Mo	Mo	0.17481 0.98291 0.55246 1.04100
Mo	Mo	0.14664 0.03026 0.39447 1.10600
Mo	Mo	0.07367 0.82802 0.49724 1.10300
Mo	Mo	0.19653 0.80058 0.46018 1.10500
Mo	Mo	0.22557 0.04204 0.47690 1.10300
Mo	Mo	0.31316 0.95119 0.51008 1.05000
Mo	Mo	0.16003 0.92759 0.35127 1.05800
Mo	Mo	0.22831 0.86125 0.38114 1.05700
Mo	Mo	0.31834 0.87497 0.47327 1.05000
Zn	Zn	0.06556 0.02582 0.47664 1.19700
Zn	Zn	0.07192 0.84055 0.39717 1.22000
Zn	Zn	0.21366 0.86386 0.54503 1.22200
Zn	Zn	0.28881 0.97352 0.40971 1.22000
O 	O 	0.09272 0.98932 0.52322 -0.77700
O 	O 	0.16646 0.91778 0.55616 -0.73000
O 	O 	0.00384 0.06952 0.48953 -0.72300
O 	O 	0.07230 0.86225 0.54033 -0.59900
O 	O 	0.01998 0.97737 0.44681 -0.78000
O 	O 	0.02300 0.89466 0.40663 -0.73000
O 	O 	0.00430 0.85095 0.47034 -0.60100
O 	O 	0.06420 0.01795 0.38740 -0.61500
O 	O 	0.06590 0.93792 0.34665 -0.48500
O 	O 	0.19570 0.03798 0.52327 -0.62500
O 	O 	0.26910 0.96887 0.55775 -0.48500
O 	O 	0.16920 0.99404 0.35594 -0.58900
O 	O 	0.13850 0.04115 0.45088 -0.72500
O 	O 	0.23220 0.02050 0.42264 -0.70800
O 	O 	0.28350 0.89096 0.52071 -0.72500
O 	O 	0.31980 0.93787 0.45572 -0.72600
O 	O 	0.30020 0.01452 0.49139 -0.59800
O 	O 	0.24300 0.92584 0.37856 -0.72100
O 	O 	0.13890 0.86844 0.37079 -0.71900
O 	O 	0.20720 0.80539 0.40910 -0.59200
O 	O 	0.31280 0.86019 0.41514 -0.48300
O 	O 	0.10680 0.81467 0.44614 -0.71100
O 	O 	0.16670 0.82453 0.50833 -0.71700
O 	O 	0.27550 0.81625 0.47859 -0.59900
C 	C 	0.01220 0.82210 0.32640 0.35000
C 	C 	0.98440 0.79270 0.29390 -0.14200
C 	C 	0.93840 0.80930 0.26900 0.05000
H 	H 	0.92480 0.83870 0.27180 0.00100
C 	C 	0.91090 0.78240 0.23910 -0.13500
H 	H 	0.87830 0.79420 0.22250 0.05600
C 	C 	0.92970 0.74000 0.23350 0.04700
C 	C 	0.97660 0.72310 0.25870 -0.13200
H 	H 	0.99050 0.69380 0.25550 0.06200
C 	C 	0.00400 0.74910 0.28940 0.04800
H 	H 	0.03540 0.73700 0.30680 0.00400
C 	C 	0.89790 0.71200 0.20190 0.03500
C 	C 	0.87470 0.73260 0.16770 -0.12600
H 	H 	0.88170 0.76310 0.16410 0.04700
C 	C 	0.84090 0.70780 0.13870 0.04300
H 	H 	0.82750 0.72140 0.11520 -0.00200
C 	C 	0.82740 0.66400 0.14430 -0.13800
C 	C 	0.85140 0.64300 0.17750 0.04300
H 	H 	0.84450 0.61240 0.18080 0.00900
C 	C 	0.88580 0.66730 0.20600 -0.12500
H 	H 	0.90120 0.65280 0.22880 0.06000
C 	C 	0.78710 0.63900 0.11320 0.35000
O 	O 	0.01180 0.86250 0.32119 -0.34300
O 	O 	0.03230 0.80173 0.35755 -0.49100
O 	O 	0.79000 0.59800 0.11173 -0.33700
O 	O 	0.75180 0.66400 0.09083 -0.49800
Mo	Mo	0.57166 0.58280 0.53051 1.03900
Mo	Mo	0.48584 0.57097 0.43985 1.03700
Mo	Mo	0.72927 0.45919 0.48665 1.10200
Mo	Mo	0.64997 0.44793 0.40438 1.10300
Mo	Mo	0.51962 0.51397 0.38904 1.04100
Mo	Mo	0.67295 0.53588 0.54786 1.04100
Mo	Mo	0.80894 0.55843 0.50033 1.05200
Mo	Mo	0.56175 0.66926 0.46494 1.10500
Mo	Mo	0.68108 0.68873 0.42153 1.10400
Mo	Mo	0.80746 0.62242 0.44892 1.05300
Mo	Mo	0.71815 0.60946 0.35620 1.05600
Mo	Mo	0.65478 0.53593 0.34097 1.05300
Zn	Zn	0.56743 0.47123 0.48320 1.19600
Zn	Zn	0.56030 0.63065 0.36955 1.22200
Zn	Zn	0.70399 0.65119 0.51832 1.22000
Zn	Zn	0.78811 0.50881 0.40655 1.21900
O 	O 	0.50928 0.42884 0.50228 -0.72500
O 	O 	0.59197 0.51974 0.52131 -0.77600
O 	O 	0.51820 0.50981 0.44474 -0.78000
O 	O 	0.64250 0.45153 0.46142 -0.72700
O 	O 	0.51600 0.57953 0.38942 -0.73200
O 	O 	0.49400 0.63872 0.44300 -0.59700
O 	O 	0.65370 0.67802 0.47424 -0.71100
O 	O 	0.59280 0.66956 0.41217 -0.70800
O 	O 	0.73410 0.46664 0.42956 -0.71200
O 	O 	0.56180 0.64769 0.51343 -0.60300
O 	O 	0.69870 0.47478 0.53094 -0.62300
O 	O 	0.76120 0.68049 0.44261 -0.59300
O 	O 	0.81340 0.55664 0.44460 -0.72400
O 	O 	0.77490 0.61925 0.49876 -0.72500
O 	O 	0.56650 0.45611 0.39509 -0.62100
O 	O 	0.62890 0.59815 0.34800 -0.72100
O 	O 	0.76640 0.55304 0.55023 -0.48400
O 	O 	0.73760 0.54637 0.36700 -0.71700
O 	O 	0.80150 0.49165 0.49521 -0.59700
O 	O 	0.80100 0.62087 0.38961 -0.48100
O 	O 	0.56010 0.52335 0.33794 -0.48300
O 	O 	0.65954 0.60011 0.53889 -0.72800
O 	O 	0.66940 0.47301 0.35932 -0.59400
O 	O 	0.69300 0.67043 0.37259 -0.58900
C 	C 	0.98960 0.86420 0.80010 0.33800
C 	C 	0.95470 0.83780 0.76720 -0.12500
C 	C 	0.95630 0.79250 0.76730 0.03100
H 	H 	0.97830 0.77750 0.78790 0.01500
C 	C 	0.92540 0.76750 0.73710 -0.11500
H 	H 	0.92620 0.73630 0.73840 0.05300
C 	C 	0.89400 0.78800 0.70560 0.02400
C 	C 	0.89210 0.83370 0.70600 -0.11200
H 	H 	0.87060 0.84880 0.68530 0.03600
C 	C 	0.92190 0.85820 0.73670 0.02600
H 	H 	0.91930 0.88940 0.73620 0.00800
C 	C 	0.86260 0.75960 0.67370 0.05000
C 	C 	0.87470 0.71530 0.67260 -0.13500
H 	H 	0.90330 0.70290 0.69150 0.06100
C 	C 	0.84570 0.68730 0.64370 0.04400
H 	H 	0.85510 0.65680 0.64370 0.01100
C 	C 	0.80400 0.70440 0.61570 -0.14400
C 	C 	0.79320 0.74930 0.61590 0.04700
H 	H 	0.76630 0.76210 0.59630 -0.00300
C 	C 	0.82230 0.77630 0.64530 -0.13700
H 	H 	0.81350 0.80700 0.64520 0.04700
C 	C 	0.77240 0.67290 0.58530 0.35400
O 	O 	0.99670 0.90459 0.79683 -0.33800
O 	O 	0.00940 0.83958 0.82916 -0.49000
O 	O 	0.73750 0.69168 0.55839 -0.50000
O 	O 	0.78160 0.63280 0.58878 -0.34600
C 	C 	0.11810 0.45410 0.13480 0.32600
C 	C 	0.08240 0.46370 0.16840 -0.12900
C 	C 	0.09870 0.49830 0.19340 0.04000
H 	H 	0.13150 0.51710 0.18900 0.00700
C 	C 	0.06700 0.50560 0.22530 -0.12500
H 	H 	0.07940 0.52890 0.24220 0.05800
C 	C 	0.01790 0.47930 0.23250 0.04300
C 	C 	0.00220 0.44460 0.20730 -0.12500
H 	H 	0.96870 0.42630 0.21130 0.05600
C 	C 	0.03430 0.43610 0.17630 0.03900
H 	H 	0.02350 0.41150 0.16040 0.00700
C 	C 	0.98270 0.48870 0.26590 0.03200
C 	C 	0.97900 0.53160 0.28030 -0.11100
H 	H 	0.99960 0.55490 0.26910 0.05500
C 	C 	0.94530 0.54130 0.31100 0.02300
H 	H 	0.94200 0.57080 0.31950 0.01900
C 	C 	0.91710 0.50730 0.32870 -0.11900
C 	C 	0.92040 0.46490 0.31540 0.03100
H 	H 	0.90100 0.44160 0.32730 0.01100
C 	C 	0.95280 0.45610 0.28410 -0.11700
H 	H 	0.95410 0.42670 0.27520 0.05500
C 	C 	0.88050 0.51950 0.36210 0.32100
O 	O 	0.11750 0.41570 0.12169 -0.32700
O 	O 	0.85300 0.48700 0.37736 -0.48300
O 	O 	0.14750 0.48828 0.12242 -0.47900
O 	O 	0.87940 0.55940 0.37150 -0.33000
Mo	Mo	0.42250 0.42998 0.95573 1.04100
Mo	Mo	0.50845 0.41594 0.04601 1.03800
Mo	Mo	0.47789 0.45854 0.10666 1.04200
Mo	Mo	0.32519 0.48291 0.94754 1.04100
Mo	Mo	0.35336 0.53026 0.10553 1.10600
Mo	Mo	0.42633 0.32802 0.00277 1.10300
Mo	Mo	0.30347 0.30058 0.03982 1.10500
Mo	Mo	0.27443 0.54204 0.02310 1.10300
Mo	Mo	0.18684 0.45119 0.98992 1.05000
Mo	Mo	0.33997 0.42759 0.14873 1.05800
Mo	Mo	0.27169 0.36125 0.11886 1.05700
Mo	Mo	0.18166 0.37497 0.02673 1.05000
Zn	Zn	0.43444 0.52582 0.02336 1.19700
Zn	Zn	0.42808 0.34055 0.10283 1.22100
Zn	Zn	0.28634 0.36386 0.95497 1.22200
Zn	Zn	0.21119 0.47352 0.09029 1.22000
O 	O 	0.40728 0.48932 0.97678 -0.77700
O 	O 	0.33354 0.41778 0.94384 -0.73000
O 	O 	0.49616 0.56952 0.01047 -0.72300
O 	O 	0.42770 0.36225 0.95967 -0.59900
O 	O 	0.48002 0.47737 0.05319 -0.78000
O 	O 	0.47700 0.39466 0.09337 -0.73000
O 	O 	0.49570 0.35095 0.02966 -0.60100
O 	O 	0.43580 0.51795 0.11260 -0.61500
O 	O 	0.43410 0.43792 0.15335 -0.48500
O 	O 	0.30430 0.53798 0.97673 -0.62400
O 	O 	0.23090 0.46887 0.94225 -0.48500
O 	O 	0.33080 0.49404 0.14406 -0.58900
O 	O 	0.36150 0.54115 0.04912 -0.72500
O 	O 	0.26780 0.52050 0.07736 -0.70800
O 	O 	0.21650 0.39096 0.97929 -0.72500
O 	O 	0.18020 0.43787 0.04428 -0.72600
O 	O 	0.19980 0.51452 0.00861 -0.59800
O 	O 	0.25700 0.42584 0.12144 -0.72100
O 	O 	0.36110 0.36844 0.12921 -0.71900
O 	O 	0.29280 0.30539 0.09090 -0.59200
O 	O 	0.18720 0.36019 0.08486 -0.48300
O 	O 	0.39320 0.31467 0.05386 -0.71100
O 	O 	0.33330 0.32453 0.99167 -0.71600
O 	O 	0.22450 0.31625 0.02141 -0.59900
C 	C 	0.48780 0.32210 0.17360 0.35100
C 	C 	0.51560 0.29270 0.20610 -0.14300
C 	C 	0.56160 0.30930 0.23100 0.05000
H 	H 	0.57520 0.33870 0.22820 0.00100
C 	C 	0.58910 0.28240 0.26090 -0.13600
H 	H 	0.62170 0.29420 0.27750 0.05600
C 	C 	0.57030 0.24000 0.26650 0.04800
C 	C 	0.52340 0.22310 0.24130 -0.13300
H 	H 	0.50950 0.19380 0.24450 0.06200
C 	C 	0.49600 0.24910 0.21060 0.04800
H 	H 	0.46460 0.23700 0.19320 0.00400
C 	C 	0.60210 0.21200 0.29810 0.03400
C 	C 	0.62530 0.23260 0.33230 -0.12600
H 	H 	0.61830 0.26310 0.33590 0.04700
C 	C 	0.65910 0.20780 0.36130 0.04300
H 	H 	0.67250 0.22140 0.38480 -0.00200
C 	C 	0.67260 0.16400 0.35570 -0.13800
C 	C 	0.64860 0.14300 0.32250 0.04200
H 	H 	0.65550 0.11240 0.31920 0.00900
C 	C 	0.61420 0.16730 0.29400 -0.12500
H 	H 	0.59880 0.15280 0.27120 0.06000
C 	C 	0.71290 0.13900 0.38680 0.35000
O 	O 	0.48820 0.36250 0.17881 -0.34300
O 	O 	0.46770 0.30173 0.14245 -0.49100
O 	O 	0.71000 0.09800 0.38827 -0.33700
O 	O 	0.74820 0.16400 0.40917 -0.49800
