data_crystal

_cell_length_a 24.11900
_cell_length_b 20.49200
_cell_length_c 25.63700
_cell_angle_alpha 90.00000
_cell_angle_beta  110.96900
_cell_angle_gamma 90.00000

_symmetry_space_group_name_	'P 1'
_symmetry_space_group_name_H-M	'P 1'

loop_
_symmetry_equiv_pos_as_xyz
  x,y,z

loop_
_atom_site_label
_atom_site_type_symbol
_atom_site_fract_x
_atom_site_fract_y
_atom_site_fract_z
_atom_site_charge
Cd	Cd	0.01493 0.21803 0.21832 1.22300
Cd	Cd	0.20929 0.24412 0.30846 1.13200
Cd	Cd	0.16100 0.78520 0.47852 1.22300
Cd	Cd	0.12750 0.78363 0.31837 1.17300
Cd	Cd	0.84263 0.21079 0.18705 1.22800
Cd	Cd	0.75657 0.71640 0.17467 1.19100
O 	O 	0.10100 0.23400 0.30010 -0.51000
O 	O 	0.16950 0.18570 0.37130 -0.42400
O 	O 	0.94000 0.22500 0.25730 -0.48000
O 	O 	0.86960 0.29520 0.25570 -0.38400
O 	O 	0.91990 0.20860 0.14650 -0.49400
O 	O 	0.84960 0.15230 0.08490 -0.31900
O 	O 	0.08170 0.21940 0.17460 -0.42500
O 	O 	0.13290 0.29150 0.14340 -0.31000
O 	O 	0.20590 0.78750 0.40710 -0.51200
O 	O 	0.21870 0.71540 0.35030 -0.41900
O 	O 	0.24250 0.78550 0.56260 -0.47500
O 	O 	0.30540 0.84510 0.62920 -0.39900
O 	O 	0.08540 0.77190 0.39290 -0.49400
O 	O 	0.04730 0.84620 0.32860 -0.41300
O 	O 	0.10320 0.78090 0.53250 -0.40400
O 	O 	0.09450 0.69740 0.58520 -0.28000
O 	O 	0.82020 0.10770 0.18930 -0.40100
O 	O 	0.85660 0.12270 0.28110 -0.32700
O 	O 	0.75080 0.21630 0.21880 -0.42800
O 	O 	0.70030 0.14940 0.25290 -0.41200
N 	N 	0.01380 0.10870 0.22750 -0.25400
N 	N 	0.97970 0.90840 0.20460 -0.23900
H 	H 	0.00940 0.88600 0.20120 0.09300
N 	N 	0.83200 0.79090 0.18630 -0.25600
N 	N 	0.00470 0.32810 0.20990 -0.26100
N 	N 	0.97090 0.52680 0.21680 -0.25800
H 	H 	0.93280 0.53630 0.20240 0.13200
N 	N 	0.07690 0.68950 0.28590 -0.27100
N 	N 	0.21310 0.33510 0.36210 -0.28500
N 	N 	0.21960 0.48030 0.48010 -0.25500
H 	H 	0.23810 0.46600 0.51430 0.13300
N 	N 	0.17020 0.67560 0.47930 -0.25500
N 	N 	0.79100 0.28060 0.11860 -0.25300
N 	N 	0.70560 0.40420 0.98350 -0.25400
H 	H 	0.69480 0.38450 0.95090 0.13900
N 	N 	0.66510 0.60370 0.97600 -0.25600
C 	C 	0.11570 0.19900 0.34340 0.34700
C 	C 	0.87250 0.89750 0.18760 -0.20800
H 	H 	0.86550 0.94320 0.18340 0.10500
C 	C 	0.06950 0.17120 0.36200 -0.16900
C 	C 	0.07230 0.10460 0.37490 0.06900
H 	H 	0.10420 0.07950 0.37210 0.00100
C 	C 	0.03070 0.07430 0.39130 -0.13100
H 	H 	0.03380 0.02910 0.40010 0.07300
C 	C 	0.98420 0.11070 0.39490 0.05700
H 	H 	0.95440 0.09020 0.40530 0.01400
C 	C 	0.98050 0.17580 0.38350 -0.11800
H 	H 	0.94860 0.20010 0.38730 0.09000
C 	C 	0.02220 0.20800 0.36650 0.07000
C 	C 	0.01820 0.28040 0.36050 0.03000
C 	C 	0.96740 0.31190 0.32250 -0.10800
C 	C 	0.96120 0.37870 0.32510 0.03400
H 	H 	0.92670 0.39970 0.30020 0.03000
C 	C 	0.00540 0.41530 0.36410 -0.08300
H 	H 	0.00040 0.46110 0.36620 0.05600
C 	C 	0.05600 0.38650 0.39950 0.00800
H 	H 	0.08670 0.41210 0.42500 0.02600
C 	C 	0.06190 0.31970 0.39750 -0.07900
H 	H 	0.09690 0.29970 0.42240 0.05700
C 	C 	0.92280 0.27470 0.27660 0.32400
C 	C 	0.90260 0.16990 0.10570 0.35200
C 	C 	0.94670 0.14080 0.08380 -0.14900
C 	C 	0.98880 0.17950 0.07230 0.04800
C 	C 	0.03160 0.14800 0.05740 -0.11100
H 	H 	0.06040 0.17350 0.04930 0.07300
C 	C 	0.03410 0.08290 0.05400 0.02400
H 	H 	0.06550 0.06330 0.04530 0.01400
C 	C 	0.99210 0.04400 0.06300 -0.10400
H 	H 	0.99260 0.99810 0.05850 0.05600
C 	C 	0.94820 0.07400 0.07900 0.04300
H 	H 	0.91940 0.04800 0.08660 0.02200
C 	C 	0.98410 0.25260 0.07010 0.03900
C 	C 	0.03070 0.29090 0.09730 -0.13800
C 	C 	0.02770 0.36000 0.08890 0.03000
H 	H 	0.06060 0.38760 0.10730 0.01900
C 	C 	0.97550 0.38430 0.05330 -0.09100
H 	H 	0.97260 0.43010 0.04760 0.05400
C 	C 	0.92580 0.34650 0.02460 0.00800
H 	H 	0.89020 0.36590 0.00020 0.01100
C 	C 	0.93030 0.28050 0.03280 -0.09400
H 	H 	0.89750 0.25310 0.01360 0.05500
C 	C 	0.08540 0.26740 0.14010 0.31300
C 	C 	0.04740 0.06840 0.20970 0.10300
H 	H 	0.07980 0.08620 0.20150 -0.03300
C 	C 	0.03670 0.00300 0.20290 -0.21000
H 	H 	0.06140 0.97660 0.18990 0.07500
C 	C 	0.99040 0.97420 0.21480 0.17800
C 	C 	0.95840 0.01530 0.23690 -0.18800
H 	H 	0.92750 0.99820 0.24770 0.09900
C 	C 	0.97150 0.08050 0.24300 0.09300
H 	H 	0.94970 0.10730 0.25910 -0.00200
C 	C 	0.92960 0.87270 0.19900 0.18200
C 	C 	0.93470 0.80440 0.20080 -0.19200
H 	H 	0.97190 0.78440 0.20620 0.07000
C 	C 	0.88630 0.76670 0.19500 0.10000
H 	H 	0.89130 0.72060 0.19710 -0.01200
C 	C 	0.82650 0.85540 0.18270 0.11500
H 	H 	0.78840 0.87360 0.17620 -0.03200
C 	C 	0.04720 0.36840 0.24160 0.13100
H 	H 	0.08440 0.35020 0.26400 -0.04300
C 	C 	0.03970 0.43430 0.24330 -0.23500
H 	H 	0.07160 0.46110 0.26540 0.10300
C 	C 	0.98530 0.46180 0.21270 0.21500
C 	C 	0.94240 0.42150 0.17960 -0.23700
H 	H 	0.90490 0.43860 0.15680 0.10700
C 	C 	0.95360 0.35580 0.17940 0.13300
H 	H 	0.92290 0.32850 0.15600 -0.03100
C 	C 	0.00810 0.57840 0.24040 0.20300
C 	C 	0.06490 0.58430 0.24270 -0.22700
H 	H 	0.08190 0.55040 0.22800 0.09100
C 	C 	0.09900 0.63940 0.26630 0.10200
H 	H 	0.13910 0.64120 0.26840 -0.04800
C 	C 	0.02050 0.68430 0.28270 0.10700
H 	H 	0.00400 0.71940 0.29650 -0.02000
C 	C 	0.98490 0.63110 0.26050 -0.21800
H 	H 	0.94500 0.63040 0.25890 0.10700
C 	C 	0.19680 0.39600 0.34580 0.11400
H 	H 	0.18450 0.40510 0.30690 -0.05200
C 	C 	0.19630 0.44690 0.38060 -0.21700
H 	H 	0.18350 0.48920 0.36590 0.09300
C 	C 	0.21510 0.43530 0.43860 0.19100
C 	C 	0.23660 0.37240 0.45630 -0.21700
H 	H 	0.25240 0.36230 0.49500 0.11300
C 	C 	0.23480 0.32530 0.41700 0.10700
H 	H 	0.25010 0.28320 0.43010 -0.04700
C 	C 	0.19990 0.54350 0.47680 0.19900
C 	C 	0.15770 0.57330 0.43130 -0.21700
H 	H 	0.13800 0.54910 0.39820 0.10000
C 	C 	0.14460 0.63800 0.43450 0.11800
H 	H 	0.11540 0.65730 0.40290 -0.01900
C 	C 	0.20760 0.64510 0.52480 0.12600
H 	H 	0.22440 0.66980 0.55810 -0.03400
C 	C 	0.22260 0.58130 0.52580 -0.21900
H 	H 	0.24840 0.56210 0.55950 0.10200
C 	C 	0.23510 0.74060 0.39800 0.35100
C 	C 	0.28500 0.71160 0.44430 -0.14000
C 	C 	0.31620 0.74820 0.49320 0.03500
C 	C 	0.35350 0.71440 0.53950 -0.09000
H 	H 	0.37290 0.73760 0.57330 0.06200
C 	C 	0.36310 0.64750 0.53790 0.01000
H 	H 	0.38790 0.62490 0.57020 0.02300
C 	C 	0.33540 0.61440 0.48730 -0.10000
H 	H 	0.34350 0.56940 0.48450 0.06000
C 	C 	0.29710 0.64630 0.44250 0.04900
H 	H 	0.27810 0.62280 0.40890 0.01800
C 	C 	0.31690 0.82070 0.49480 0.05700
C 	C 	0.30870 0.85680 0.53830 -0.14800
C 	C 	0.32090 0.92340 0.54290 0.05700
H 	H 	0.31700 0.94730 0.57320 0.01500
C 	C 	0.33870 0.95500 0.50410 -0.12200
H 	H 	0.34610 0.00070 0.50710 0.06300
C 	C 	0.34560 0.92040 0.46160 0.04400
H 	H 	0.35710 0.94230 0.43440 0.00300
C 	C 	0.33610 0.85460 0.45740 -0.12600
H 	H 	0.34270 0.83130 0.42820 0.09000
C 	C 	0.28440 0.82700 0.57860 0.33700
C 	C 	0.04770 0.81710 0.37130 0.33400
C 	C 	0.00570 0.83550 0.40010 -0.13100
C 	C 	0.99070 0.79250 0.43600 0.04800
C 	C 	0.95620 0.81510 0.46510 -0.09300
H 	H 	0.94570 0.78620 0.48910 0.06700
C 	C 	0.93640 0.87930 0.45990 0.01200
H 	H 	0.91400 0.89450 0.48130 0.02900
C 	C 	0.94970 0.92130 0.42330 -0.09500
H 	H 	0.93600 0.96510 0.41900 0.05700
C 	C 	0.98310 0.89840 0.39330 0.03200
H 	H 	0.99080 0.92650 0.36730 0.02600
C 	C 	0.00450 0.72070 0.43960 0.03800
C 	C 	0.04020 0.68960 0.48850 -0.11200
C 	C 	0.04100 0.62090 0.49130 0.02300
H 	H 	0.06360 0.60000 0.52540 0.03300
C 	C 	0.01020 0.58380 0.44610 -0.08400
H 	H 	0.01220 0.53750 0.44820 0.05600
C 	C 	0.97530 0.61490 0.39630 0.00900
H 	H 	0.95370 0.58980 0.36440 0.03000
C 	C 	0.97270 0.68130 0.39420 -0.08400
H 	H 	0.94830 0.70160 0.36050 0.06300
C 	C 	0.08220 0.72520 0.53960 0.30700
C 	C 	0.82500 0.09310 0.23880 0.31000
C 	C 	0.78980 0.03440 0.24550 -0.09200
C 	C 	0.73240 0.02020 0.20860 0.04200
C 	C 	0.70560 0.96250 0.21810 -0.09000
H 	H 	0.66650 0.95140 0.19420 0.06200
C 	C 	0.73610 0.92190 0.26200 0.00100
H 	H 	0.71800 0.88230 0.26680 0.03000
C 	C 	0.79030 0.93690 0.29820 -0.08000
H 	H 	0.80930 0.90880 0.32890 0.05500
C 	C 	0.81890 0.99340 0.29090 0.00300
H 	H 	0.85740 0.00400 0.31630 0.03300
C 	C 	0.69880 0.06070 0.15960 0.06000
C 	C 	0.69510 0.12840 0.16120 -0.11400
C 	C 	0.66660 0.16340 0.11190 0.01500
H 	H 	0.66500 0.20970 0.11290 0.02500
C 	C 	0.64050 0.13050 0.06090 -0.08400
H 	H 	0.62140 0.15400 0.02730 0.05800
C 	C 	0.64310 0.06240 0.06050 0.01300
H 	H 	0.62470 0.03940 0.02650 0.02500
C 	C 	0.67200 0.02870 0.10870 -0.10000
H 	H 	0.67390 0.98240 0.10750 0.06200
C 	C 	0.71760 0.16800 0.21480 0.33300
C 	C 	0.75730 0.25890 0.06700 0.11700
H 	H 	0.75370 0.21310 0.06130 -0.01700
C 	C 	0.72840 0.29800 0.02310 -0.21900
H 	H 	0.70510 0.27950 0.98810 0.10600
C 	C 	0.73310 0.36600 0.02970 0.19700
C 	C 	0.76500 0.38910 0.08300 -0.21700
H 	H 	0.76790 0.43460 0.09050 0.10100
C 	C 	0.79250 0.34470 0.12520 0.11500
H 	H 	0.81390 0.36150 0.16140 -0.01900
C 	C 	0.69290 0.47110 0.98270 0.18400
C 	C 	0.69080 0.50760 0.93590 -0.20900
H 	H 	0.69840 0.48760 0.90570 0.08400
C 	C 	0.67760 0.57300 0.93470 0.11500
H 	H 	0.67730 0.59800 0.90340 -0.05300
C 	C 	0.66520 0.56800 0.01950 0.11400
H 	H 	0.65540 0.58880 0.04810 -0.03100
C 	C 	0.67860 0.50280 0.02500 -0.21100
H 	H 	0.67840 0.47940 0.05680 0.09900
Cd	Cd	0.48507 0.71803 0.28168 1.22400
Cd	Cd	0.29071 0.74412 0.19154 1.13300
Cd	Cd	0.33900 0.28520 0.02148 1.22400
Cd	Cd	0.37250 0.28363 0.18163 1.17400
Cd	Cd	0.65737 0.71079 0.31295 1.22900
Cd	Cd	0.74343 0.21640 0.32533 1.19200
O 	O 	0.39900 0.73400 0.19990 -0.50900
O 	O 	0.33050 0.68570 0.12870 -0.42300
O 	O 	0.56000 0.72500 0.24270 -0.48100
O 	O 	0.63040 0.79520 0.24430 -0.38400
O 	O 	0.58010 0.70860 0.35350 -0.49400
O 	O 	0.65040 0.65230 0.41510 -0.32000
O 	O 	0.41830 0.71940 0.32540 -0.42400
O 	O 	0.36710 0.79150 0.35660 -0.31000
O 	O 	0.29410 0.28750 0.09290 -0.51200
O 	O 	0.28130 0.21540 0.14970 -0.41900
O 	O 	0.25750 0.28550 0.93740 -0.47500
O 	O 	0.19460 0.34510 0.87080 -0.39900
O 	O 	0.41460 0.27190 0.10710 -0.49400
O 	O 	0.45270 0.34620 0.17140 -0.41400
O 	O 	0.39680 0.28090 0.96750 -0.40400
O 	O 	0.40550 0.19740 0.91480 -0.28000
O 	O 	0.67980 0.60770 0.31070 -0.40200
O 	O 	0.64340 0.62270 0.21890 -0.32800
O 	O 	0.74920 0.71630 0.28120 -0.42800
O 	O 	0.79970 0.64940 0.24710 -0.41300
N 	N 	0.48620 0.60870 0.27250 -0.25300
N 	N 	0.52030 0.40840 0.29540 -0.23900
H 	H 	0.49060 0.38600 0.29880 0.09200
N 	N 	0.66800 0.29090 0.31370 -0.25600
N 	N 	0.49530 0.82810 0.29010 -0.26000
N 	N 	0.52910 0.02680 0.28320 -0.25800
H 	H 	0.56720 0.03630 0.29760 0.13200
N 	N 	0.42310 0.18950 0.21410 -0.27200
N 	N 	0.28690 0.83510 0.13790 -0.28500
N 	N 	0.28040 0.98030 0.01990 -0.25500
H 	H 	0.26190 0.96600 0.98570 0.13400
N 	N 	0.32980 0.17560 0.02070 -0.25500
N 	N 	0.70900 0.78060 0.38140 -0.25300
N 	N 	0.79440 0.90420 0.51650 -0.25300
H 	H 	0.80520 0.88450 0.54910 0.13900
N 	N 	0.83490 0.10370 0.52400 -0.25500
C 	C 	0.38430 0.69900 0.15660 0.34700
C 	C 	0.62750 0.39750 0.31240 -0.20800
H 	H 	0.63450 0.44320 0.31660 0.10500
C 	C 	0.43050 0.67120 0.13800 -0.16800
C 	C 	0.42770 0.60460 0.12510 0.06800
H 	H 	0.39580 0.57950 0.12790 0.00200
C 	C 	0.46930 0.57430 0.10870 -0.12800
H 	H 	0.46620 0.52910 0.09990 0.07300
C 	C 	0.51580 0.61070 0.10510 0.05400
H 	H 	0.54560 0.59020 0.09470 0.01500
C 	C 	0.51950 0.67580 0.11650 -0.11800
H 	H 	0.55140 0.70010 0.11270 0.09000
C 	C 	0.47780 0.70800 0.13350 0.07100
C 	C 	0.48180 0.78040 0.13950 0.03000
C 	C 	0.53260 0.81190 0.17750 -0.10900
C 	C 	0.53880 0.87870 0.17490 0.03300
H 	H 	0.57330 0.89970 0.19980 0.03000
C 	C 	0.49460 0.91530 0.13590 -0.08200
H 	H 	0.49960 0.96110 0.13380 0.05600
C 	C 	0.44400 0.88650 0.10050 0.00700
H 	H 	0.41330 0.91210 0.07500 0.02600
C 	C 	0.43810 0.81970 0.10250 -0.07900
H 	H 	0.40310 0.79970 0.07760 0.05700
C 	C 	0.57720 0.77470 0.22340 0.32500
C 	C 	0.59740 0.66990 0.39430 0.35300
C 	C 	0.55330 0.64080 0.41620 -0.15100
C 	C 	0.51120 0.67950 0.42770 0.04800
C 	C 	0.46840 0.64800 0.44260 -0.11300
H 	H 	0.43960 0.67350 0.45070 0.07400
C 	C 	0.46590 0.58290 0.44600 0.03200
H 	H 	0.43450 0.56330 0.45470 0.01100
C 	C 	0.50790 0.54400 0.43700 -0.11500
H 	H 	0.50740 0.49810 0.44150 0.06100
C 	C 	0.55180 0.57400 0.42100 0.04800
H 	H 	0.58060 0.54800 0.41340 0.02000
C 	C 	0.51590 0.75260 0.42990 0.03700
C 	C 	0.46930 0.79090 0.40270 -0.13600
C 	C 	0.47230 0.86000 0.41110 0.03200
H 	H 	0.43940 0.88760 0.39270 0.01800
C 	C 	0.52450 0.88430 0.44670 -0.09300
H 	H 	0.52740 0.93010 0.45240 0.05500
C 	C 	0.57420 0.84650 0.47540 0.00900
H 	H 	0.60980 0.86590 0.49980 0.01100
C 	C 	0.56970 0.78050 0.46720 -0.09400
H 	H 	0.60250 0.75310 0.48640 0.05400
C 	C 	0.41460 0.76740 0.35990 0.31300
C 	C 	0.45260 0.56840 0.29030 0.10200
H 	H 	0.42020 0.58620 0.29850 -0.03200
C 	C 	0.46330 0.50300 0.29710 -0.20700
H 	H 	0.43860 0.47660 0.31010 0.07300
C 	C 	0.50960 0.47420 0.28520 0.17800
C 	C 	0.54160 0.51530 0.26310 -0.19200
H 	H 	0.57250 0.49820 0.25230 0.10100
C 	C 	0.52850 0.58050 0.25700 0.09300
H 	H 	0.55030 0.60730 0.24090 -0.00200
C 	C 	0.57040 0.37270 0.30100 0.18200
C 	C 	0.56530 0.30440 0.29920 -0.19200
H 	H 	0.52810 0.28440 0.29380 0.07000
C 	C 	0.61370 0.26670 0.30500 0.10000
H 	H 	0.60870 0.22060 0.30290 -0.01200
C 	C 	0.67350 0.35540 0.31730 0.11500
H 	H 	0.71160 0.37360 0.32380 -0.03200
C 	C 	0.45280 0.86840 0.25840 0.13000
H 	H 	0.41560 0.85020 0.23600 -0.04300
C 	C 	0.46030 0.93430 0.25670 -0.23200
H 	H 	0.42840 0.96110 0.23460 0.10300
C 	C 	0.51470 0.96180 0.28730 0.21300
C 	C 	0.55760 0.92150 0.32040 -0.23500
H 	H 	0.59510 0.93860 0.34320 0.10600
C 	C 	0.54640 0.85580 0.32060 0.13100
H 	H 	0.57710 0.82850 0.34400 -0.03000
C 	C 	0.49190 0.07840 0.25960 0.20500
C 	C 	0.43510 0.08430 0.25730 -0.22700
H 	H 	0.41810 0.05040 0.27200 0.09200
C 	C 	0.40100 0.13940 0.23370 0.10200
H 	H 	0.36090 0.14120 0.23160 -0.04800
C 	C 	0.47950 0.18430 0.21730 0.10800
H 	H 	0.49600 0.21940 0.20350 -0.02100
C 	C 	0.51510 0.13110 0.23950 -0.21900
H 	H 	0.55500 0.13040 0.24110 0.10800
C 	C 	0.30320 0.89600 0.15420 0.11400
H 	H 	0.31550 0.90510 0.19310 -0.05200
C 	C 	0.30370 0.94690 0.11940 -0.21700
H 	H 	0.31650 0.98920 0.13410 0.09400
C 	C 	0.28490 0.93530 0.06140 0.19100
C 	C 	0.26340 0.87240 0.04370 -0.21700
H 	H 	0.24760 0.86230 0.00500 0.11300
C 	C 	0.26520 0.82530 0.08300 0.10700
H 	H 	0.24990 0.78320 0.06990 -0.04800
C 	C 	0.30010 0.04350 0.02320 0.19700
C 	C 	0.34230 0.07330 0.06870 -0.21600
H 	H 	0.36200 0.04910 0.10180 0.10000
C 	C 	0.35540 0.13800 0.06550 0.11800
H 	H 	0.38460 0.15730 0.09710 -0.01900
C 	C 	0.29240 0.14510 0.97520 0.12600
H 	H 	0.27560 0.16980 0.94190 -0.03400
C 	C 	0.27740 0.08130 0.97420 -0.21800
H 	H 	0.25160 0.06210 0.94050 0.10200
C 	C 	0.26490 0.24060 0.10200 0.35100
C 	C 	0.21500 0.21160 0.05570 -0.14100
C 	C 	0.18380 0.24820 0.00680 0.03500
C 	C 	0.14650 0.21440 0.96050 -0.09000
H 	H 	0.12710 0.23760 0.92670 0.06200
C 	C 	0.13690 0.14750 0.96210 0.01200
H 	H 	0.11210 0.12490 0.92980 0.02300
C 	C 	0.16460 0.11440 0.01270 -0.10200
H 	H 	0.15650 0.06940 0.01550 0.06000
C 	C 	0.20290 0.14630 0.05750 0.05000
H 	H 	0.22190 0.12280 0.09110 0.01700
C 	C 	0.18310 0.32070 0.00520 0.05500
C 	C 	0.19130 0.35680 0.96170 -0.14700
C 	C 	0.17910 0.42340 0.95710 0.05500
H 	H 	0.18300 0.44730 0.92680 0.01600
C 	C 	0.16130 0.45500 0.99590 -0.11900
H 	H 	0.15390 0.50070 0.99290 0.06200
C 	C 	0.15440 0.42040 0.03840 0.04200
H 	H 	0.14290 0.44230 0.06560 0.00400
C 	C 	0.16390 0.35460 0.04260 -0.12400
H 	H 	0.15730 0.33130 0.07180 0.09000
C 	C 	0.21560 0.32700 0.92140 0.33600
C 	C 	0.45230 0.31710 0.12870 0.33500
C 	C 	0.49430 0.33550 0.09990 -0.13400
C 	C 	0.50930 0.29250 0.06400 0.05100
C 	C 	0.54380 0.31510 0.03490 -0.09400
H 	H 	0.55430 0.28620 0.01090 0.06800
C 	C 	0.56360 0.37930 0.04010 0.01400
H 	H 	0.58600 0.39450 0.01870 0.02800
C 	C 	0.55030 0.42130 0.07670 -0.09700
H 	H 	0.56400 0.46510 0.08100 0.05800
C 	C 	0.51690 0.39840 0.10670 0.03500
H 	H 	0.50920 0.42650 0.13270 0.02600
C 	C 	0.49550 0.22070 0.06040 0.03600
C 	C 	0.45980 0.18960 0.01150 -0.11100
C 	C 	0.45900 0.12090 0.00870 0.02200
H 	H 	0.43640 0.10000 0.97460 0.03300
C 	C 	0.48980 0.08380 0.05390 -0.08300
H 	H 	0.48780 0.03750 0.05180 0.05500
C 	C 	0.52470 0.11490 0.10370 0.00800
H 	H 	0.54630 0.08980 0.13560 0.03100
C 	C 	0.52730 0.18130 0.10580 -0.08200
H 	H 	0.55170 0.20160 0.13950 0.06300
C 	C 	0.41780 0.22520 0.96040 0.30700
C 	C 	0.67500 0.59310 0.26120 0.31000
C 	C 	0.71020 0.53440 0.25450 -0.09400
C 	C 	0.76760 0.52020 0.29140 0.04200
C 	C 	0.79440 0.46250 0.28190 -0.09000
H 	H 	0.83350 0.45140 0.30580 0.06200
C 	C 	0.76390 0.42190 0.23800 0.00300
H 	H 	0.78200 0.38230 0.23320 0.03000
C 	C 	0.70970 0.43690 0.20180 -0.08300
H 	H 	0.69070 0.40880 0.17110 0.05600
C 	C 	0.68110 0.49340 0.20910 0.00800
H 	H 	0.64260 0.50400 0.18370 0.03100
C 	C 	0.80120 0.56070 0.34040 0.06100
C 	C 	0.80490 0.62840 0.33880 -0.11400
C 	C 	0.83340 0.66340 0.38810 0.01600
H 	H 	0.83500 0.70970 0.38710 0.02500
C 	C 	0.85950 0.63050 0.43910 -0.08500
H 	H 	0.87860 0.65400 0.47270 0.05800
C 	C 	0.85690 0.56240 0.43950 0.01400
H 	H 	0.87530 0.53940 0.47350 0.02400
C 	C 	0.82800 0.52870 0.39130 -0.10200
H 	H 	0.82610 0.48240 0.39250 0.06300
C 	C 	0.78240 0.66800 0.28520 0.33300
C 	C 	0.74270 0.75890 0.43300 0.11700
H 	H 	0.74630 0.71310 0.43870 -0.01700
C 	C 	0.77160 0.79800 0.47690 -0.22000
H 	H 	0.79490 0.77950 0.51190 0.10600
C 	C 	0.76690 0.86600 0.47030 0.19700
C 	C 	0.73500 0.88910 0.41700 -0.21700
H 	H 	0.73210 0.93460 0.40950 0.10100
C 	C 	0.70750 0.84470 0.37480 0.11400
H 	H 	0.68610 0.86150 0.33860 -0.01900
C 	C 	0.80710 0.97110 0.51730 0.18100
C 	C 	0.80920 0.00760 0.56410 -0.20500
H 	H 	0.80160 0.98760 0.59430 0.08200
C 	C 	0.82240 0.07300 0.56530 0.11400
H 	H 	0.82270 0.09800 0.59660 -0.05200
C 	C 	0.83480 0.06800 0.48050 0.11200
H 	H 	0.84460 0.08880 0.45190 -0.03000
C 	C 	0.82140 0.00280 0.47500 -0.20700
H 	H 	0.82160 0.97940 0.44320 0.09700
Cd	Cd	0.98507 0.78197 0.78168 1.22400
Cd	Cd	0.79071 0.75588 0.69154 1.13300
Cd	Cd	0.83900 0.21480 0.52148 1.22400
Cd	Cd	0.87250 0.21637 0.68163 1.17400
Cd	Cd	0.15737 0.78921 0.81295 1.22900
Cd	Cd	0.24343 0.28360 0.82533 1.19200
O 	O 	0.89900 0.76600 0.69990 -0.50900
O 	O 	0.83050 0.81430 0.62870 -0.42300
O 	O 	0.06000 0.77500 0.74270 -0.48000
O 	O 	0.13040 0.70480 0.74430 -0.38400
O 	O 	0.08010 0.79140 0.85350 -0.49400
O 	O 	0.15040 0.84770 0.91510 -0.31900
O 	O 	0.91830 0.78060 0.82540 -0.42500
O 	O 	0.86710 0.70850 0.85660 -0.31000
O 	O 	0.79410 0.21250 0.59290 -0.51200
O 	O 	0.78130 0.28460 0.64970 -0.41900
O 	O 	0.75750 0.21450 0.43740 -0.47500
O 	O 	0.69460 0.15490 0.37080 -0.39900
O 	O 	0.91460 0.22810 0.60710 -0.49400
O 	O 	0.95270 0.15380 0.67140 -0.41300
O 	O 	0.89680 0.21910 0.46750 -0.40400
O 	O 	0.90550 0.30260 0.41480 -0.28000
O 	O 	0.17980 0.89230 0.81070 -0.40100
O 	O 	0.14340 0.87730 0.71890 -0.32700
O 	O 	0.24920 0.78370 0.78120 -0.42800
O 	O 	0.29970 0.85060 0.74710 -0.41200
N 	N 	0.98620 0.89130 0.77250 -0.25400
N 	N 	0.02030 0.09160 0.79540 -0.23900
H 	H 	0.99060 0.11400 0.79880 0.09300
N 	N 	0.16800 0.20910 0.81370 -0.25600
N 	N 	0.99530 0.67190 0.79010 -0.26100
N 	N 	0.02910 0.47320 0.78320 -0.25800
H 	H 	0.06720 0.46370 0.79760 0.13200
N 	N 	0.92310 0.31050 0.71410 -0.27100
N 	N 	0.78690 0.66490 0.63790 -0.28500
N 	N 	0.78040 0.51970 0.51990 -0.25500
H 	H 	0.76190 0.53400 0.48570 0.13300
N 	N 	0.82980 0.32440 0.52070 -0.25500
N 	N 	0.20900 0.71940 0.88140 -0.25300
N 	N 	0.29440 0.59580 0.01650 -0.25400
H 	H 	0.30520 0.61550 0.04910 0.13900
N 	N 	0.33490 0.39630 0.02400 -0.25600
C 	C 	0.88430 0.80100 0.65660 0.34700
C 	C 	0.12750 0.10250 0.81240 -0.20800
H 	H 	0.13450 0.05680 0.81660 0.10500
C 	C 	0.93050 0.82880 0.63800 -0.16900
C 	C 	0.92770 0.89540 0.62510 0.06900
H 	H 	0.89580 0.92050 0.62790 0.00100
C 	C 	0.96930 0.92570 0.60870 -0.13100
H 	H 	0.96620 0.97090 0.59990 0.07300
C 	C 	0.01580 0.88930 0.60510 0.05700
H 	H 	0.04560 0.90980 0.59470 0.01400
C 	C 	0.01950 0.82420 0.61650 -0.11800
H 	H 	0.05140 0.79990 0.61270 0.09000
C 	C 	0.97780 0.79200 0.63350 0.07000
C 	C 	0.98180 0.71960 0.63950 0.03000
C 	C 	0.03260 0.68810 0.67750 -0.10800
C 	C 	0.03880 0.62130 0.67490 0.03400
H 	H 	0.07330 0.60030 0.69980 0.03000
C 	C 	0.99460 0.58470 0.63590 -0.08300
H 	H 	0.99960 0.53890 0.63380 0.05600
C 	C 	0.94400 0.61350 0.60050 0.00800
H 	H 	0.91330 0.58790 0.57500 0.02600
C 	C 	0.93810 0.68030 0.60250 -0.07900
H 	H 	0.90310 0.70030 0.57760 0.05700
C 	C 	0.07720 0.72530 0.72340 0.32400
C 	C 	0.09740 0.83010 0.89430 0.35200
C 	C 	0.05330 0.85920 0.91620 -0.14900
C 	C 	0.01120 0.82050 0.92770 0.04800
C 	C 	0.96840 0.85200 0.94260 -0.11100
H 	H 	0.93960 0.82650 0.95070 0.07300
C 	C 	0.96590 0.91710 0.94600 0.02400
H 	H 	0.93450 0.93670 0.95470 0.01400
C 	C 	0.00790 0.95600 0.93700 -0.10400
H 	H 	0.00740 0.00190 0.94150 0.05600
C 	C 	0.05180 0.92600 0.92100 0.04300
H 	H 	0.08060 0.95200 0.91340 0.02200
C 	C 	0.01590 0.74740 0.92990 0.03900
C 	C 	0.96930 0.70910 0.90270 -0.13800
C 	C 	0.97230 0.64000 0.91110 0.03000
H 	H 	0.93940 0.61240 0.89270 0.01900
C 	C 	0.02450 0.61570 0.94670 -0.09100
H 	H 	0.02740 0.56990 0.95240 0.05400
C 	C 	0.07420 0.65350 0.97540 0.00800
H 	H 	0.10980 0.63410 0.99980 0.01100
C 	C 	0.06970 0.71950 0.96720 -0.09400
H 	H 	0.10250 0.74690 0.98640 0.05500
C 	C 	0.91460 0.73260 0.85990 0.31300
C 	C 	0.95260 0.93160 0.79030 0.10300
H 	H 	0.92020 0.91380 0.79850 -0.03300
C 	C 	0.96330 0.99700 0.79710 -0.21000
H 	H 	0.93860 0.02340 0.81010 0.07500
C 	C 	0.00960 0.02580 0.78520 0.17800
C 	C 	0.04160 0.98470 0.76310 -0.18800
H 	H 	0.07250 0.00180 0.75230 0.09900
C 	C 	0.02850 0.91950 0.75700 0.09300
H 	H 	0.05030 0.89270 0.74090 -0.00200
C 	C 	0.07040 0.12730 0.80100 0.18200
C 	C 	0.06530 0.19560 0.79920 -0.19200
H 	H 	0.02810 0.21560 0.79380 0.07000
C 	C 	0.11370 0.23330 0.80500 0.10000
H 	H 	0.10870 0.27940 0.80290 -0.01200
C 	C 	0.17350 0.14460 0.81730 0.11500
H 	H 	0.21160 0.12640 0.82380 -0.03200
C 	C 	0.95280 0.63160 0.75840 0.13100
H 	H 	0.91560 0.64980 0.73600 -0.04300
C 	C 	0.96030 0.56570 0.75670 -0.23500
H 	H 	0.92840 0.53890 0.73460 0.10300
C 	C 	0.01470 0.53820 0.78730 0.21500
C 	C 	0.05760 0.57850 0.82040 -0.23700
H 	H 	0.09510 0.56140 0.84320 0.10700
C 	C 	0.04640 0.64420 0.82060 0.13300
H 	H 	0.07710 0.67150 0.84400 -0.03100
C 	C 	0.99190 0.42160 0.75960 0.20300
C 	C 	0.93510 0.41570 0.75730 -0.22700
H 	H 	0.91810 0.44960 0.77200 0.09100
C 	C 	0.90100 0.36060 0.73370 0.10200
H 	H 	0.86090 0.35880 0.73160 -0.04800
C 	C 	0.97950 0.31570 0.71730 0.10700
H 	H 	0.99600 0.28060 0.70350 -0.02000
C 	C 	0.01510 0.36890 0.73950 -0.21800
H 	H 	0.05500 0.36960 0.74110 0.10700
C 	C 	0.80320 0.60400 0.65420 0.11400
H 	H 	0.81550 0.59490 0.69310 -0.05200
C 	C 	0.80370 0.55310 0.61940 -0.21700
H 	H 	0.81650 0.51080 0.63410 0.09300
C 	C 	0.78490 0.56470 0.56140 0.19100
C 	C 	0.76340 0.62760 0.54370 -0.21700
H 	H 	0.74760 0.63770 0.50500 0.11300
C 	C 	0.76520 0.67470 0.58300 0.10700
H 	H 	0.74990 0.71680 0.56990 -0.04700
C 	C 	0.80010 0.45650 0.52320 0.19900
C 	C 	0.84230 0.42670 0.56870 -0.21700
H 	H 	0.86200 0.45090 0.60180 0.10000
C 	C 	0.85540 0.36200 0.56550 0.11800
H 	H 	0.88460 0.34270 0.59710 -0.01900
C 	C 	0.79240 0.35490 0.47520 0.12600
H 	H 	0.77560 0.33020 0.44190 -0.03400
C 	C 	0.77740 0.41870 0.47420 -0.21900
H 	H 	0.75160 0.43790 0.44050 0.10200
C 	C 	0.76490 0.25940 0.60200 0.35100
C 	C 	0.71500 0.28840 0.55570 -0.14000
C 	C 	0.68380 0.25180 0.50680 0.03500
C 	C 	0.64650 0.28560 0.46050 -0.09000
H 	H 	0.62710 0.26240 0.42670 0.06200
C 	C 	0.63690 0.35250 0.46210 0.01000
H 	H 	0.61210 0.37510 0.42980 0.02300
C 	C 	0.66460 0.38560 0.51270 -0.10000
H 	H 	0.65650 0.43060 0.51550 0.06000
C 	C 	0.70290 0.35370 0.55750 0.04900
H 	H 	0.72190 0.37720 0.59110 0.01800
C 	C 	0.68310 0.17930 0.50520 0.05700
C 	C 	0.69130 0.14320 0.46170 -0.14800
C 	C 	0.67910 0.07660 0.45710 0.05700
H 	H 	0.68300 0.05270 0.42680 0.01500
C 	C 	0.66130 0.04500 0.49590 -0.12200
H 	H 	0.65390 0.99930 0.49290 0.06300
C 	C 	0.65440 0.07960 0.53840 0.04400
H 	H 	0.64290 0.05770 0.56560 0.00300
C 	C 	0.66390 0.14540 0.54260 -0.12600
H 	H 	0.65730 0.16870 0.57180 0.09000
C 	C 	0.71560 0.17300 0.42140 0.33700
C 	C 	0.95230 0.18290 0.62870 0.33400
C 	C 	0.99430 0.16450 0.59990 -0.13100
C 	C 	0.00930 0.20750 0.56400 0.04800
C 	C 	0.04380 0.18490 0.53490 -0.09300
H 	H 	0.05430 0.21380 0.51090 0.06700
C 	C 	0.06360 0.12070 0.54010 0.01200
H 	H 	0.08600 0.10550 0.51870 0.02900
C 	C 	0.05030 0.07870 0.57670 -0.09500
H 	H 	0.06400 0.03490 0.58100 0.05700
C 	C 	0.01690 0.10160 0.60670 0.03200
H 	H 	0.00920 0.07350 0.63270 0.02600
C 	C 	0.99550 0.27930 0.56040 0.03800
C 	C 	0.95980 0.31040 0.51150 -0.11200
C 	C 	0.95900 0.37910 0.50870 0.02300
H 	H 	0.93640 0.40000 0.47460 0.03300
C 	C 	0.98980 0.41620 0.55390 -0.08400
H 	H 	0.98780 0.46250 0.55180 0.05600
C 	C 	0.02470 0.38510 0.60370 0.00900
H 	H 	0.04630 0.41020 0.63560 0.03000
C 	C 	0.02730 0.31870 0.60580 -0.08400
H 	H 	0.05170 0.29840 0.63950 0.06300
C 	C 	0.91780 0.27480 0.46040 0.30700
C 	C 	0.17500 0.90690 0.76120 0.31000
C 	C 	0.21020 0.96560 0.75450 -0.09200
C 	C 	0.26760 0.97980 0.79140 0.04200
C 	C 	0.29440 0.03750 0.78190 -0.09000
H 	H 	0.33350 0.04860 0.80580 0.06200
C 	C 	0.26390 0.07810 0.73800 0.00100
H 	H 	0.28200 0.11770 0.73320 0.03000
C 	C 	0.20970 0.06310 0.70180 -0.08000
H 	H 	0.19070 0.09120 0.67110 0.05500
C 	C 	0.18110 0.00660 0.70910 0.00300
H 	H 	0.14260 0.99600 0.68370 0.03300
C 	C 	0.30120 0.93930 0.84040 0.06000
C 	C 	0.30490 0.87160 0.83880 -0.11400
C 	C 	0.33340 0.83660 0.88810 0.01500
H 	H 	0.33500 0.79030 0.88710 0.02500
C 	C 	0.35950 0.86950 0.93910 -0.08400
H 	H 	0.37860 0.84600 0.97270 0.05800
C 	C 	0.35690 0.93760 0.93950 0.01300
H 	H 	0.37530 0.96060 0.97350 0.02500
C 	C 	0.32800 0.97130 0.89130 -0.10000
H 	H 	0.32610 0.01760 0.89250 0.06200
C 	C 	0.28240 0.83200 0.78520 0.33300
C 	C 	0.24270 0.74110 0.93300 0.11700
H 	H 	0.24630 0.78690 0.93870 -0.01700
C 	C 	0.27160 0.70200 0.97690 -0.21900
H 	H 	0.29490 0.72050 0.01190 0.10600
C 	C 	0.26690 0.63400 0.97030 0.19700
C 	C 	0.23500 0.61090 0.91700 -0.21700
H 	H 	0.23210 0.56540 0.90950 0.10100
C 	C 	0.20750 0.65530 0.87480 0.11500
H 	H 	0.18610 0.63850 0.83860 -0.01900
C 	C 	0.30710 0.52890 0.01730 0.18400
C 	C 	0.30920 0.49240 0.06410 -0.20900
H 	H 	0.30160 0.51240 0.09430 0.08400
C 	C 	0.32240 0.42700 0.06530 0.11500
H 	H 	0.32270 0.40200 0.09660 -0.05300
C 	C 	0.33480 0.43200 0.98050 0.11400
H 	H 	0.34460 0.41120 0.95190 -0.03100
C 	C 	0.32140 0.49720 0.97500 -0.21100
H 	H 	0.32160 0.52060 0.94320 0.09900
Cd	Cd	0.51493 0.28197 0.71832 1.22400
Cd	Cd	0.70929 0.25588 0.80846 1.13300
Cd	Cd	0.66100 0.71480 0.97852 1.22400
Cd	Cd	0.62750 0.71637 0.81837 1.17400
Cd	Cd	0.34263 0.28921 0.68705 1.22900
Cd	Cd	0.25657 0.78360 0.67467 1.19200
O 	O 	0.60100 0.26600 0.80010 -0.50900
O 	O 	0.66950 0.31430 0.87130 -0.42300
O 	O 	0.44000 0.27500 0.75730 -0.48100
O 	O 	0.36960 0.20480 0.75570 -0.38400
O 	O 	0.41990 0.29140 0.64650 -0.49400
O 	O 	0.34960 0.34770 0.58490 -0.32000
O 	O 	0.58170 0.28060 0.67460 -0.42400
O 	O 	0.63290 0.20850 0.64340 -0.31000
O 	O 	0.70590 0.71250 0.90710 -0.51200
O 	O 	0.71870 0.78460 0.85030 -0.41900
O 	O 	0.74250 0.71450 0.06260 -0.47500
O 	O 	0.80540 0.65490 0.12920 -0.39900
O 	O 	0.58540 0.72810 0.89290 -0.49400
O 	O 	0.54730 0.65380 0.82860 -0.41400
O 	O 	0.60320 0.71910 0.03250 -0.40400
O 	O 	0.59450 0.80260 0.08520 -0.28000
O 	O 	0.32020 0.39230 0.68930 -0.40200
O 	O 	0.35660 0.37730 0.78110 -0.32800
O 	O 	0.25080 0.28370 0.71880 -0.42800
O 	O 	0.20030 0.35060 0.75290 -0.41300
N 	N 	0.51380 0.39130 0.72750 -0.25300
N 	N 	0.47970 0.59160 0.70460 -0.23900
H 	H 	0.50940 0.61400 0.70120 0.09200
N 	N 	0.33200 0.70910 0.68630 -0.25600
N 	N 	0.50470 0.17190 0.70990 -0.26000
N 	N 	0.47090 0.97320 0.71680 -0.25800
H 	H 	0.43280 0.96370 0.70240 0.13200
N 	N 	0.57690 0.81050 0.78590 -0.27200
N 	N 	0.71310 0.16490 0.86210 -0.28500
N 	N 	0.71960 0.01970 0.98010 -0.25500
H 	H 	0.73810 0.03400 0.01430 0.13400
N 	N 	0.67020 0.82440 0.97930 -0.25500
N 	N 	0.29100 0.21940 0.61860 -0.25300
N 	N 	0.20560 0.09580 0.48350 -0.25300
H 	H 	0.19480 0.11550 0.45090 0.13900
N 	N 	0.16510 0.89630 0.47600 -0.25500
C 	C 	0.61570 0.30100 0.84340 0.34700
C 	C 	0.37250 0.60250 0.68760 -0.20800
H 	H 	0.36550 0.55680 0.68340 0.10500
C 	C 	0.56950 0.32880 0.86200 -0.16800
C 	C 	0.57230 0.39540 0.87490 0.06800
H 	H 	0.60420 0.42050 0.87210 0.00200
C 	C 	0.53070 0.42570 0.89130 -0.12800
H 	H 	0.53380 0.47090 0.90010 0.07300
C 	C 	0.48420 0.38930 0.89490 0.05400
H 	H 	0.45440 0.40980 0.90530 0.01500
C 	C 	0.48050 0.32420 0.88350 -0.11800
H 	H 	0.44860 0.29990 0.88730 0.09000
C 	C 	0.52220 0.29200 0.86650 0.07100
C 	C 	0.51820 0.21960 0.86050 0.03000
C 	C 	0.46740 0.18810 0.82250 -0.10900
C 	C 	0.46120 0.12130 0.82510 0.03300
H 	H 	0.42670 0.10030 0.80020 0.03000
C 	C 	0.50540 0.08470 0.86410 -0.08200
H 	H 	0.50040 0.03890 0.86620 0.05600
C 	C 	0.55600 0.11350 0.89950 0.00700
H 	H 	0.58670 0.08790 0.92500 0.02600
C 	C 	0.56190 0.18030 0.89750 -0.07900
H 	H 	0.59690 0.20030 0.92240 0.05700
C 	C 	0.42280 0.22530 0.77660 0.32500
C 	C 	0.40260 0.33010 0.60570 0.35300
C 	C 	0.44670 0.35920 0.58380 -0.15100
C 	C 	0.48880 0.32050 0.57230 0.04800
C 	C 	0.53160 0.35200 0.55740 -0.11300
H 	H 	0.56040 0.32650 0.54930 0.07400
C 	C 	0.53410 0.41710 0.55400 0.03200
H 	H 	0.56550 0.43670 0.54530 0.01100
C 	C 	0.49210 0.45600 0.56300 -0.11500
H 	H 	0.49260 0.50190 0.55850 0.06100
C 	C 	0.44820 0.42600 0.57900 0.04800
H 	H 	0.41940 0.45200 0.58660 0.02000
C 	C 	0.48410 0.24740 0.57010 0.03700
C 	C 	0.53070 0.20910 0.59730 -0.13600
C 	C 	0.52770 0.14000 0.58890 0.03200
H 	H 	0.56060 0.11240 0.60730 0.01800
C 	C 	0.47550 0.11570 0.55330 -0.09300
H 	H 	0.47260 0.06990 0.54760 0.05500
C 	C 	0.42580 0.15350 0.52460 0.00900
H 	H 	0.39020 0.13410 0.50020 0.01100
C 	C 	0.43030 0.21950 0.53280 -0.09400
H 	H 	0.39750 0.24690 0.51360 0.05400
C 	C 	0.58540 0.23260 0.64010 0.31300
C 	C 	0.54740 0.43160 0.70970 0.10200
H 	H 	0.57980 0.41380 0.70150 -0.03200
C 	C 	0.53670 0.49700 0.70290 -0.20700
H 	H 	0.56140 0.52340 0.68990 0.07300
C 	C 	0.49040 0.52580 0.71480 0.17800
C 	C 	0.45840 0.48470 0.73690 -0.19200
H 	H 	0.42750 0.50180 0.74770 0.10100
C 	C 	0.47150 0.41950 0.74300 0.09300
H 	H 	0.44970 0.39270 0.75910 -0.00200
C 	C 	0.42960 0.62730 0.69900 0.18200
C 	C 	0.43470 0.69560 0.70080 -0.19200
H 	H 	0.47190 0.71560 0.70620 0.07000
C 	C 	0.38630 0.73330 0.69500 0.10000
H 	H 	0.39130 0.77940 0.69710 -0.01200
C 	C 	0.32650 0.64460 0.68270 0.11500
H 	H 	0.28840 0.62640 0.67620 -0.03200
C 	C 	0.54720 0.13160 0.74160 0.13000
H 	H 	0.58440 0.14980 0.76400 -0.04300
C 	C 	0.53970 0.06570 0.74330 -0.23200
H 	H 	0.57160 0.03890 0.76540 0.10300
C 	C 	0.48530 0.03820 0.71270 0.21300
C 	C 	0.44240 0.07850 0.67960 -0.23500
H 	H 	0.40490 0.06140 0.65680 0.10600
C 	C 	0.45360 0.14420 0.67940 0.13100
H 	H 	0.42290 0.17150 0.65600 -0.03000
C 	C 	0.50810 0.92160 0.74040 0.20500
C 	C 	0.56490 0.91570 0.74270 -0.22700
H 	H 	0.58190 0.94960 0.72800 0.09200
C 	C 	0.59900 0.86060 0.76630 0.10200
H 	H 	0.63910 0.85880 0.76840 -0.04800
C 	C 	0.52050 0.81570 0.78270 0.10800
H 	H 	0.50400 0.78060 0.79650 -0.02100
C 	C 	0.48490 0.86890 0.76050 -0.21900
H 	H 	0.44500 0.86960 0.75890 0.10800
C 	C 	0.69680 0.10400 0.84580 0.11400
H 	H 	0.68450 0.09490 0.80690 -0.05200
C 	C 	0.69630 0.05310 0.88060 -0.21700
H 	H 	0.68350 0.01080 0.86590 0.09400
C 	C 	0.71510 0.06470 0.93860 0.19100
C 	C 	0.73660 0.12760 0.95630 -0.21700
H 	H 	0.75240 0.13770 0.99500 0.11300
C 	C 	0.73480 0.17470 0.91700 0.10700
H 	H 	0.75010 0.21680 0.93010 -0.04800
C 	C 	0.69990 0.95650 0.97680 0.19700
C 	C 	0.65770 0.92670 0.93130 -0.21600
H 	H 	0.63800 0.95090 0.89820 0.10000
C 	C 	0.64460 0.86200 0.93450 0.11800
H 	H 	0.61540 0.84270 0.90290 -0.01900
C 	C 	0.70760 0.85490 0.02480 0.12600
H 	H 	0.72440 0.83020 0.05810 -0.03400
C 	C 	0.72260 0.91870 0.02580 -0.21800
H 	H 	0.74840 0.93790 0.05950 0.10200
C 	C 	0.73510 0.75940 0.89800 0.35100
C 	C 	0.78500 0.78840 0.94430 -0.14100
C 	C 	0.81620 0.75180 0.99320 0.03500
C 	C 	0.85350 0.78560 0.03950 -0.09000
H 	H 	0.87290 0.76240 0.07330 0.06200
C 	C 	0.86310 0.85250 0.03790 0.01200
H 	H 	0.88790 0.87510 0.07020 0.02300
C 	C 	0.83540 0.88560 0.98730 -0.10200
H 	H 	0.84350 0.93060 0.98450 0.06000
C 	C 	0.79710 0.85370 0.94250 0.05000
H 	H 	0.77810 0.87720 0.90890 0.01700
C 	C 	0.81690 0.67930 0.99480 0.05500
C 	C 	0.80870 0.64320 0.03830 -0.14700
C 	C 	0.82090 0.57660 0.04290 0.05500
H 	H 	0.81700 0.55270 0.07320 0.01600
C 	C 	0.83870 0.54500 0.00410 -0.11900
H 	H 	0.84610 0.49930 0.00710 0.06200
C 	C 	0.84560 0.57960 0.96160 0.04200
H 	H 	0.85710 0.55770 0.93440 0.00400
C 	C 	0.83610 0.64540 0.95740 -0.12400
H 	H 	0.84270 0.66870 0.92820 0.09000
C 	C 	0.78440 0.67300 0.07860 0.33600
C 	C 	0.54770 0.68290 0.87130 0.33500
C 	C 	0.50570 0.66450 0.90010 -0.13400
C 	C 	0.49070 0.70750 0.93600 0.05100
C 	C 	0.45620 0.68490 0.96510 -0.09400
H 	H 	0.44570 0.71380 0.98910 0.06800
C 	C 	0.43640 0.62070 0.95990 0.01400
H 	H 	0.41400 0.60550 0.98130 0.02800
C 	C 	0.44970 0.57870 0.92330 -0.09700
H 	H 	0.43600 0.53490 0.91900 0.05800
C 	C 	0.48310 0.60160 0.89330 0.03500
H 	H 	0.49080 0.57350 0.86730 0.02600
C 	C 	0.50450 0.77930 0.93960 0.03600
C 	C 	0.54020 0.81040 0.98850 -0.11100
C 	C 	0.54100 0.87910 0.99130 0.02200
H 	H 	0.56360 0.90000 0.02540 0.03300
C 	C 	0.51020 0.91620 0.94610 -0.08300
H 	H 	0.51220 0.96250 0.94820 0.05500
C 	C 	0.47530 0.88510 0.89630 0.00800
H 	H 	0.45370 0.91020 0.86440 0.03100
C 	C 	0.47270 0.81870 0.89420 -0.08200
H 	H 	0.44830 0.79840 0.86050 0.06300
C 	C 	0.58220 0.77480 0.03960 0.30700
C 	C 	0.32500 0.40690 0.73880 0.31000
C 	C 	0.28980 0.46560 0.74550 -0.09400
C 	C 	0.23240 0.47980 0.70860 0.04200
C 	C 	0.20560 0.53750 0.71810 -0.09000
H 	H 	0.16650 0.54860 0.69420 0.06200
C 	C 	0.23610 0.57810 0.76200 0.00300
H 	H 	0.21800 0.61770 0.76680 0.03000
C 	C 	0.29030 0.56310 0.79820 -0.08300
H 	H 	0.30930 0.59120 0.82890 0.05600
C 	C 	0.31890 0.50660 0.79090 0.00800
H 	H 	0.35740 0.49600 0.81630 0.03100
C 	C 	0.19880 0.43930 0.65960 0.06100
C 	C 	0.19510 0.37160 0.66120 -0.11400
C 	C 	0.16660 0.33660 0.61190 0.01600
H 	H 	0.16500 0.29030 0.61290 0.02500
C 	C 	0.14050 0.36950 0.56090 -0.08500
H 	H 	0.12140 0.34600 0.52730 0.05800
C 	C 	0.14310 0.43760 0.56050 0.01400
H 	H 	0.12470 0.46060 0.52650 0.02400
C 	C 	0.17200 0.47130 0.60870 -0.10200
H 	H 	0.17390 0.51760 0.60750 0.06300
C 	C 	0.21760 0.33200 0.71480 0.33300
C 	C 	0.25730 0.24110 0.56700 0.11700
H 	H 	0.25370 0.28690 0.56130 -0.01700
C 	C 	0.22840 0.20200 0.52310 -0.22000
H 	H 	0.20510 0.22050 0.48810 0.10600
C 	C 	0.23310 0.13400 0.52970 0.19700
C 	C 	0.26500 0.11090 0.58300 -0.21700
H 	H 	0.26790 0.06540 0.59050 0.10100
C 	C 	0.29250 0.15530 0.62520 0.11400
H 	H 	0.31390 0.13850 0.66140 -0.01900
C 	C 	0.19290 0.02890 0.48270 0.18100
C 	C 	0.19080 0.99240 0.43590 -0.20500
H 	H 	0.19840 0.01240 0.40570 0.08200
C 	C 	0.17760 0.92700 0.43470 0.11400
H 	H 	0.17730 0.90200 0.40340 -0.05200
C 	C 	0.16520 0.93200 0.51950 0.11200
H 	H 	0.15540 0.91120 0.54810 -0.03000
C 	C 	0.17860 0.99720 0.52500 -0.20700
H 	H 	0.17840 0.02060 0.55680 0.09700
