data_crystal

_cell_length_a 32.98300
_cell_length_b 14.99690
_cell_length_c 31.03300
_cell_angle_alpha 90.00000
_cell_angle_beta  100.55300
_cell_angle_gamma 90.00000

_symmetry_space_group_name_	'P 1'
_symmetry_space_group_name_H-M	'P 1'

loop_
_symmetry_equiv_pos_as_xyz
  x,y,z

loop_
_atom_site_label
_atom_site_type_symbol
_atom_site_fract_x
_atom_site_fract_y
_atom_site_fract_z
_atom_site_charge
N 	N 	0.18710 0.49010 0.27900 -0.32700
C 	C 	0.21150 0.52830 0.31240 0.08900
H 	H 	0.22510 0.49120 0.33530 -0.03400
C 	C 	0.21840 0.61990 0.31580 -0.13800
H 	H 	0.23650 0.64470 0.34020 0.10600
C 	C 	0.19780 0.67340 0.28250 0.09800
C 	C 	0.17280 0.63270 0.24690 -0.18700
H 	H 	0.15970 0.66740 0.22270 0.09400
C 	C 	0.16740 0.54250 0.24720 0.14600
H 	H 	0.14880 0.51590 0.22370 -0.15900
C 	C 	0.20370 0.77180 0.28240 0.11400
N 	N 	0.23180 0.80900 0.31330 -0.10400
C 	C 	0.23720 0.89540 0.30880 0.12200
N 	N 	0.21790 0.94480 0.27490 -0.13800
C 	C 	0.19020 0.90160 0.24650 0.11500
N 	N 	0.18050 0.81580 0.24930 -0.13800
N 	N 	0.32220 0.03240 0.40640 -0.28700
C 	C 	0.29770 0.07600 0.37370 0.06400
H 	H 	0.29980 0.13910 0.37270 0.00100
C 	C 	0.27010 0.03460 0.34210 -0.14700
H 	H 	0.25310 0.06840 0.31990 0.11200
C 	C 	0.26720 0.94310 0.34260 0.08600
C 	C 	0.29240 0.89670 0.37550 -0.14700
H 	H 	0.29150 0.83340 0.37670 0.12500
C 	C 	0.31900 0.94500 0.40690 0.05700
H 	H 	0.33590 0.91310 0.42990 -0.01700
N 	N 	0.12290 0.04560 0.13830 -0.26400
C 	C 	0.11730 0.95870 0.14370 0.07200
H 	H 	0.09690 0.92890 0.12320 -0.00300
C 	C 	0.13950 0.90990 0.17740 -0.10900
H 	H 	0.13520 0.84740 0.17910 0.08400
C 	C 	0.16750 0.95180 0.20810 0.04700
C 	C 	0.17420 0.04270 0.20280 -0.07400
H 	H 	0.19410 0.07390 0.22330 0.14300
C 	C 	0.15150 0.08630 0.16730 0.03600
H 	H 	0.15650 0.14790 0.16350 0.11300
Zn	Zn	0.08071 0.11981 0.09426 1.14800
I 	I 	0.02415 0.15460 0.13444 -0.07700
I 	I 	0.11998 0.23370 0.05727 -0.29900
N 	N 	0.06321 0.01980 0.04816 -0.26800
C 	C 	0.08650 0.00330 0.01770 0.06300
H 	H 	0.10720 0.04510 0.01380 -0.00900
C 	C 	0.08140 0.92800 0.99230 -0.11300
H 	H 	0.09890 0.91710 0.97170 0.08100
C 	C 	0.05080 0.86880 0.99680 0.05300
C 	C 	0.02490 0.88750 0.02620 -0.11500
H 	H 	0.00290 0.84850 0.02910 0.06900
C 	C 	0.03190 0.96420 0.05130 0.06200
H 	H 	0.01410 0.97800 0.07120 -0.00700
C 	C 	0.04610 0.78500 0.97050 0.08400
N 	N 	0.01611 0.72760 0.97720 -0.14900
C 	C 	0.01230 0.65740 0.95040 0.07200
N 	N 	0.03575 0.63930 0.92070 -0.15100
C 	C 	0.06460 0.69920 0.91850 0.09000
N 	N 	0.07149 0.77310 0.94260 -0.13800
N 	N 	0.91320 0.48000 0.95740 -0.27700
C 	C 	0.92810 0.53290 0.99130 0.06500
H 	H 	0.91610 0.53060 0.01690 -0.00600
C 	C 	0.96040 0.59040 0.99030 -0.12000
H 	H 	0.97010 0.62780 0.01470 0.07700
C 	C 	0.97860 0.59370 0.95370 0.03800
C 	C 	0.96310 0.53840 0.91880 -0.15300
H 	H 	0.97450 0.53890 0.89280 0.02300
C 	C 	0.93100 0.48280 0.92300 0.05200
H 	H 	0.92100 0.44380 0.89930 -0.05700
Zn	Zn	0.86105 0.40234 0.95540 1.16400
I 	I 	0.87455 0.25322 0.92465 -0.39500
I 	I 	0.83253 0.42909 0.02504 -0.37500
N 	N 	0.14170 0.66030 0.82390 -0.30300
C 	C 	0.10750 0.61090 0.82240 0.06600
H 	H 	0.10030 0.56880 0.79940 -0.08900
C 	C 	0.08250 0.61960 0.85360 -0.13000
H 	H 	0.05950 0.58120 0.85320 0.05300
C 	C 	0.09170 0.68600 0.88560 0.05300
C 	C 	0.12620 0.73750 0.88650 -0.11100
H 	H 	0.13350 0.78200 0.90830 0.08000
C 	C 	0.15050 0.72300 0.85460 0.06700
H 	H 	0.17410 0.75930 0.85490 -0.00600
Zn	Zn	0.17319 0.64355 0.77303 0.89500
I 	I 	0.12868 0.66846 0.69848 4.75200
I 	I 	0.23799 0.73141 0.80011 -0.00800
I 	I 	0.15180 0.69970 0.71190 -5.35200
I 	I 	0.25110 0.72360 0.81720 -0.30500
Zn	Zn	0.18960 0.65170 0.78770 0.79800
I 	I 	0.01500 0.13610 0.13180 -0.34000
I 	I 	0.11540 0.24070 0.06480 -0.11700
N 	N 	0.68710 0.99010 0.27900 -0.32700
C 	C 	0.71150 0.02830 0.31240 0.09000
H 	H 	0.72510 0.99120 0.33530 -0.03400
C 	C 	0.71840 0.11990 0.31580 -0.13700
H 	H 	0.73650 0.14470 0.34020 0.10700
C 	C 	0.69780 0.17340 0.28250 0.10000
C 	C 	0.67280 0.13270 0.24690 -0.18600
H 	H 	0.65970 0.16740 0.22270 0.09500
C 	C 	0.66740 0.04250 0.24720 0.14700
H 	H 	0.64880 0.01590 0.22370 -0.15800
C 	C 	0.70370 0.27180 0.28240 0.11500
N 	N 	0.73180 0.30900 0.31330 -0.10300
C 	C 	0.73720 0.39540 0.30880 0.12300
N 	N 	0.71790 0.44480 0.27490 -0.13700
C 	C 	0.69020 0.40160 0.24650 0.11600
N 	N 	0.68050 0.31580 0.24930 -0.13700
N 	N 	0.82220 0.53240 0.40640 -0.28700
C 	C 	0.79770 0.57600 0.37370 0.06500
H 	H 	0.79980 0.63910 0.37270 0.00100
C 	C 	0.77010 0.53460 0.34210 -0.14700
H 	H 	0.75310 0.56840 0.31990 0.11200
C 	C 	0.76720 0.44310 0.34260 0.08700
C 	C 	0.79240 0.39670 0.37550 -0.14800
H 	H 	0.79150 0.33340 0.37670 0.12500
C 	C 	0.81900 0.44500 0.40690 0.05700
H 	H 	0.83590 0.41310 0.42990 -0.01700
N 	N 	0.62290 0.54560 0.13830 -0.26400
C 	C 	0.61730 0.45870 0.14370 0.07200
H 	H 	0.59690 0.42890 0.12320 -0.00400
C 	C 	0.63950 0.40990 0.17740 -0.10900
H 	H 	0.63520 0.34740 0.17910 0.08400
C 	C 	0.66750 0.45180 0.20810 0.04800
C 	C 	0.67420 0.54270 0.20280 -0.07500
H 	H 	0.69410 0.57390 0.22330 0.14300
C 	C 	0.65150 0.58630 0.16730 0.03700
H 	H 	0.65650 0.64790 0.16350 0.11300
Zn	Zn	0.58071 0.61981 0.09426 1.14800
I 	I 	0.52415 0.65460 0.13444 -0.07700
I 	I 	0.61998 0.73370 0.05727 -0.29900
N 	N 	0.56321 0.51980 0.04816 -0.26800
C 	C 	0.58650 0.50330 0.01770 0.06400
H 	H 	0.60720 0.54510 0.01380 -0.00900
C 	C 	0.58140 0.42800 0.99230 -0.11300
H 	H 	0.59890 0.41710 0.97170 0.08100
C 	C 	0.55080 0.36880 0.99680 0.05300
C 	C 	0.52490 0.38750 0.02620 -0.11500
H 	H 	0.50290 0.34850 0.02910 0.06900
C 	C 	0.53190 0.46420 0.05130 0.06200
H 	H 	0.51410 0.47800 0.07120 -0.00700
C 	C 	0.54610 0.28500 0.97050 0.08400
N 	N 	0.51611 0.22760 0.97720 -0.14900
C 	C 	0.51230 0.15740 0.95040 0.07200
N 	N 	0.53575 0.13930 0.92070 -0.15100
C 	C 	0.56460 0.19920 0.91850 0.09000
N 	N 	0.57149 0.27310 0.94260 -0.13800
N 	N 	0.41320 0.98000 0.95740 -0.27700
C 	C 	0.42810 0.03290 0.99130 0.06500
H 	H 	0.41610 0.03060 0.01690 -0.00600
C 	C 	0.46040 0.09040 0.99030 -0.12000
H 	H 	0.47010 0.12780 0.01470 0.07600
C 	C 	0.47860 0.09370 0.95370 0.03800
C 	C 	0.46310 0.03840 0.91880 -0.15300
H 	H 	0.47450 0.03890 0.89280 0.02300
C 	C 	0.43100 0.98280 0.92300 0.05200
H 	H 	0.42100 0.94380 0.89930 -0.05700
Zn	Zn	0.36105 0.90234 0.95540 1.16400
I 	I 	0.37455 0.75322 0.92465 -0.39500
I 	I 	0.33253 0.92909 0.02504 -0.37500
N 	N 	0.64170 0.16030 0.82390 -0.30300
C 	C 	0.60750 0.11090 0.82240 0.06600
H 	H 	0.60030 0.06880 0.79940 -0.08900
C 	C 	0.58250 0.11960 0.85360 -0.13000
H 	H 	0.55950 0.08120 0.85320 0.05300
C 	C 	0.59170 0.18600 0.88560 0.05300
C 	C 	0.62620 0.23750 0.88650 -0.11100
H 	H 	0.63350 0.28200 0.90830 0.08000
C 	C 	0.65050 0.22300 0.85460 0.06700
H 	H 	0.67410 0.25930 0.85490 -0.00600
Zn	Zn	0.67319 0.14355 0.77303 0.89500
I 	I 	0.62868 0.16846 0.69848 4.75100
I 	I 	0.73799 0.23141 0.80011 -0.00800
I 	I 	0.65180 0.19970 0.71190 -5.35100
I 	I 	0.75110 0.22360 0.81720 -0.30500
Zn	Zn	0.68960 0.15170 0.78770 0.79800
I 	I 	0.51500 0.63610 0.13180 -0.34000
I 	I 	0.61540 0.74070 0.06480 -0.11700
N 	N 	0.18710 0.50990 0.77900 -0.32600
C 	C 	0.21150 0.47170 0.81240 0.09000
H 	H 	0.22510 0.50880 0.83530 -0.03300
C 	C 	0.21840 0.38010 0.81580 -0.13700
H 	H 	0.23650 0.35530 0.84020 0.10700
C 	C 	0.19780 0.32660 0.78250 0.09900
C 	C 	0.17280 0.36730 0.74690 -0.18600
H 	H 	0.15970 0.33260 0.72270 0.09500
C 	C 	0.16740 0.45750 0.74720 0.14700
H 	H 	0.14880 0.48410 0.72370 -0.15800
C 	C 	0.20370 0.22820 0.78240 0.11500
N 	N 	0.23180 0.19100 0.81330 -0.10300
C 	C 	0.23720 0.10460 0.80880 0.12300
N 	N 	0.21790 0.05520 0.77490 -0.13700
C 	C 	0.19020 0.09840 0.74650 0.11600
N 	N 	0.18050 0.18420 0.74930 -0.13700
N 	N 	0.32220 0.96760 0.90640 -0.28600
C 	C 	0.29770 0.92400 0.87370 0.06500
H 	H 	0.29980 0.86090 0.87270 0.00100
C 	C 	0.27010 0.96540 0.84210 -0.14700
H 	H 	0.25310 0.93160 0.81990 0.11200
C 	C 	0.26720 0.05690 0.84260 0.08600
C 	C 	0.29240 0.10330 0.87550 -0.14700
H 	H 	0.29150 0.16660 0.87670 0.12500
C 	C 	0.31900 0.05500 0.90690 0.05700
H 	H 	0.33590 0.08690 0.92990 -0.01700
N 	N 	0.12290 0.95440 0.63830 -0.26400
C 	C 	0.11730 0.04130 0.64370 0.07200
H 	H 	0.09690 0.07110 0.62320 -0.00300
C 	C 	0.13950 0.09010 0.67740 -0.10900
H 	H 	0.13520 0.15260 0.67910 0.08400
C 	C 	0.16750 0.04820 0.70810 0.04700
C 	C 	0.17420 0.95730 0.70280 -0.07400
H 	H 	0.19410 0.92610 0.72330 0.14300
C 	C 	0.15150 0.91370 0.66730 0.03600
H 	H 	0.15650 0.85210 0.66350 0.11300
Zn	Zn	0.08071 0.88019 0.59426 1.14800
I 	I 	0.02415 0.84540 0.63444 -0.07700
I 	I 	0.11998 0.76630 0.55727 -0.29900
N 	N 	0.06321 0.98020 0.54816 -0.26800
C 	C 	0.08650 0.99670 0.51770 0.06300
H 	H 	0.10720 0.95490 0.51380 -0.00900
C 	C 	0.08140 0.07200 0.49230 -0.11300
H 	H 	0.09890 0.08290 0.47170 0.08100
C 	C 	0.05080 0.13120 0.49680 0.05300
C 	C 	0.02490 0.11250 0.52620 -0.11500
H 	H 	0.00290 0.15150 0.52910 0.06900
C 	C 	0.03190 0.03580 0.55130 0.06200
H 	H 	0.01410 0.02200 0.57120 -0.00700
C 	C 	0.04610 0.21500 0.47050 0.08400
N 	N 	0.01611 0.27240 0.47720 -0.14900
C 	C 	0.01230 0.34260 0.45040 0.07200
N 	N 	0.03575 0.36070 0.42070 -0.15100
C 	C 	0.06460 0.30080 0.41850 0.09000
N 	N 	0.07149 0.22690 0.44260 -0.13800
N 	N 	0.91320 0.52000 0.45740 -0.27700
C 	C 	0.92810 0.46710 0.49130 0.06500
H 	H 	0.91610 0.46940 0.51690 -0.00600
C 	C 	0.96040 0.40960 0.49030 -0.12000
H 	H 	0.97010 0.37220 0.51470 0.07600
C 	C 	0.97860 0.40630 0.45370 0.03800
C 	C 	0.96310 0.46160 0.41880 -0.15300
H 	H 	0.97450 0.46110 0.39280 0.02300
C 	C 	0.93100 0.51720 0.42300 0.05200
H 	H 	0.92100 0.55620 0.39930 -0.05700
Zn	Zn	0.86105 0.59766 0.45540 1.16400
I 	I 	0.87455 0.74678 0.42465 -0.39500
I 	I 	0.83253 0.57091 0.52504 -0.37500
N 	N 	0.14170 0.33970 0.32390 -0.30300
C 	C 	0.10750 0.38910 0.32240 0.06600
H 	H 	0.10030 0.43120 0.29940 -0.08900
C 	C 	0.08250 0.38040 0.35360 -0.13000
H 	H 	0.05950 0.41880 0.35320 0.05300
C 	C 	0.09170 0.31400 0.38560 0.05300
C 	C 	0.12620 0.26250 0.38650 -0.11100
H 	H 	0.13350 0.21800 0.40830 0.08000
C 	C 	0.15050 0.27700 0.35460 0.06700
H 	H 	0.17410 0.24070 0.35490 -0.00600
Zn	Zn	0.17319 0.35645 0.27303 0.89500
I 	I 	0.12868 0.33154 0.19848 4.75200
I 	I 	0.23799 0.26859 0.30011 -0.00800
I 	I 	0.15180 0.30030 0.21190 -5.35200
I 	I 	0.25110 0.27640 0.31720 -0.30500
Zn	Zn	0.18960 0.34830 0.28770 0.79800
I 	I 	0.01500 0.86390 0.63180 -0.34000
I 	I 	0.11540 0.75930 0.56480 -0.11700
N 	N 	0.68710 0.00990 0.77900 -0.32700
C 	C 	0.71150 0.97170 0.81240 0.09000
H 	H 	0.72510 0.00880 0.83530 -0.03400
C 	C 	0.71840 0.88010 0.81580 -0.13700
H 	H 	0.73650 0.85530 0.84020 0.10700
C 	C 	0.69780 0.82660 0.78250 0.10000
C 	C 	0.67280 0.86730 0.74690 -0.18600
H 	H 	0.65970 0.83260 0.72270 0.09500
C 	C 	0.66740 0.95750 0.74720 0.14700
H 	H 	0.64880 0.98410 0.72370 -0.15800
C 	C 	0.70370 0.72820 0.78240 0.11500
N 	N 	0.73180 0.69100 0.81330 -0.10300
C 	C 	0.73720 0.60460 0.80880 0.12300
N 	N 	0.71790 0.55520 0.77490 -0.13700
C 	C 	0.69020 0.59840 0.74650 0.11600
N 	N 	0.68050 0.68420 0.74930 -0.13700
N 	N 	0.82220 0.46760 0.90640 -0.28700
C 	C 	0.79770 0.42400 0.87370 0.06500
H 	H 	0.79980 0.36090 0.87270 0.00100
C 	C 	0.77010 0.46540 0.84210 -0.14700
H 	H 	0.75310 0.43160 0.81990 0.11200
C 	C 	0.76720 0.55690 0.84260 0.08700
C 	C 	0.79240 0.60330 0.87550 -0.14800
H 	H 	0.79150 0.66660 0.87670 0.12500
C 	C 	0.81900 0.55500 0.90690 0.05700
H 	H 	0.83590 0.58690 0.92990 -0.01700
N 	N 	0.62290 0.45440 0.63830 -0.26400
C 	C 	0.61730 0.54130 0.64370 0.07200
H 	H 	0.59690 0.57110 0.62320 -0.00400
C 	C 	0.63950 0.59010 0.67740 -0.10900
H 	H 	0.63520 0.65260 0.67910 0.08400
C 	C 	0.66750 0.54820 0.70810 0.04800
C 	C 	0.67420 0.45730 0.70280 -0.07500
H 	H 	0.69410 0.42610 0.72330 0.14300
C 	C 	0.65150 0.41370 0.66730 0.03700
H 	H 	0.65650 0.35210 0.66350 0.11300
Zn	Zn	0.58071 0.38019 0.59426 1.14800
I 	I 	0.52415 0.34540 0.63444 -0.07700
I 	I 	0.61998 0.26630 0.55727 -0.29900
N 	N 	0.56321 0.48020 0.54816 -0.26800
C 	C 	0.58650 0.49670 0.51770 0.06400
H 	H 	0.60720 0.45490 0.51380 -0.00900
C 	C 	0.58140 0.57200 0.49230 -0.11300
H 	H 	0.59890 0.58290 0.47170 0.08100
C 	C 	0.55080 0.63120 0.49680 0.05300
C 	C 	0.52490 0.61250 0.52620 -0.11500
H 	H 	0.50290 0.65150 0.52910 0.06900
C 	C 	0.53190 0.53580 0.55130 0.06200
H 	H 	0.51410 0.52200 0.57120 -0.00700
C 	C 	0.54610 0.71500 0.47050 0.08400
N 	N 	0.51611 0.77240 0.47720 -0.14900
C 	C 	0.51230 0.84260 0.45040 0.07200
N 	N 	0.53575 0.86070 0.42070 -0.15100
C 	C 	0.56460 0.80080 0.41850 0.09000
N 	N 	0.57149 0.72690 0.44260 -0.13800
N 	N 	0.41320 0.02000 0.45740 -0.27700
C 	C 	0.42810 0.96710 0.49130 0.06500
H 	H 	0.41610 0.96940 0.51690 -0.00600
C 	C 	0.46040 0.90960 0.49030 -0.12000
H 	H 	0.47010 0.87220 0.51470 0.07600
C 	C 	0.47860 0.90630 0.45370 0.03800
C 	C 	0.46310 0.96160 0.41880 -0.15400
H 	H 	0.47450 0.96110 0.39280 0.02300
C 	C 	0.43100 0.01720 0.42300 0.05200
H 	H 	0.42100 0.05620 0.39930 -0.05700
Zn	Zn	0.36105 0.09766 0.45540 1.16400
I 	I 	0.37455 0.24678 0.42465 -0.39500
I 	I 	0.33253 0.07091 0.52504 -0.37500
N 	N 	0.64170 0.83970 0.32390 -0.30300
C 	C 	0.60750 0.88910 0.32240 0.06600
H 	H 	0.60030 0.93120 0.29940 -0.08900
C 	C 	0.58250 0.88040 0.35360 -0.13000
H 	H 	0.55950 0.91880 0.35320 0.05300
C 	C 	0.59170 0.81400 0.38560 0.05300
C 	C 	0.62620 0.76250 0.38650 -0.11100
H 	H 	0.63350 0.71800 0.40830 0.08000
C 	C 	0.65050 0.77700 0.35460 0.06700
H 	H 	0.67410 0.74070 0.35490 -0.00600
Zn	Zn	0.67319 0.85645 0.27303 0.89500
I 	I 	0.62868 0.83154 0.19848 4.75100
I 	I 	0.73799 0.76859 0.30011 -0.00800
I 	I 	0.65180 0.80030 0.21190 -5.35200
I 	I 	0.75110 0.77640 0.31720 -0.30500
Zn	Zn	0.68960 0.84830 0.28770 0.79800
I 	I 	0.51500 0.36390 0.63180 -0.34000
I 	I 	0.61540 0.25930 0.56480 -0.11700
N 	N 	0.81290 0.49010 0.22100 -0.32600
C 	C 	0.78850 0.52830 0.18760 0.09000
H 	H 	0.77490 0.49120 0.16470 -0.03300
C 	C 	0.78160 0.61990 0.18420 -0.13700
H 	H 	0.76350 0.64470 0.15980 0.10700
C 	C 	0.80220 0.67340 0.21750 0.09900
C 	C 	0.82720 0.63270 0.25310 -0.18600
H 	H 	0.84030 0.66740 0.27730 0.09500
C 	C 	0.83260 0.54250 0.25280 0.14700
H 	H 	0.85120 0.51590 0.27630 -0.15800
C 	C 	0.79630 0.77180 0.21760 0.11500
N 	N 	0.76820 0.80900 0.18670 -0.10300
C 	C 	0.76280 0.89540 0.19120 0.12300
N 	N 	0.78210 0.94480 0.22510 -0.13700
C 	C 	0.80980 0.90160 0.25350 0.11600
N 	N 	0.81950 0.81580 0.25070 -0.13700
N 	N 	0.67780 0.03240 0.09360 -0.28600
C 	C 	0.70230 0.07600 0.12630 0.06500
H 	H 	0.70020 0.13910 0.12730 0.00100
C 	C 	0.72990 0.03460 0.15790 -0.14700
H 	H 	0.74690 0.06840 0.18010 0.11200
C 	C 	0.73280 0.94310 0.15740 0.08600
C 	C 	0.70760 0.89670 0.12450 -0.14700
H 	H 	0.70850 0.83340 0.12330 0.12500
C 	C 	0.68100 0.94500 0.09310 0.05700
H 	H 	0.66410 0.91310 0.07010 -0.01700
N 	N 	0.87710 0.04560 0.36170 -0.26400
C 	C 	0.88270 0.95870 0.35630 0.07200
H 	H 	0.90310 0.92890 0.37680 -0.00300
C 	C 	0.86050 0.90990 0.32260 -0.10900
H 	H 	0.86480 0.84740 0.32090 0.08400
C 	C 	0.83250 0.95180 0.29190 0.04700
C 	C 	0.82580 0.04270 0.29720 -0.07400
H 	H 	0.80590 0.07390 0.27670 0.14300
C 	C 	0.84850 0.08630 0.33270 0.03600
H 	H 	0.84350 0.14790 0.33650 0.11300
Zn	Zn	0.91929 0.11981 0.40574 1.14800
I 	I 	0.97585 0.15460 0.36556 -0.07700
I 	I 	0.88002 0.23370 0.44273 -0.29900
N 	N 	0.93679 0.01980 0.45184 -0.26800
C 	C 	0.91350 0.00330 0.48230 0.06300
H 	H 	0.89280 0.04510 0.48620 -0.00900
C 	C 	0.91860 0.92800 0.50770 -0.11300
H 	H 	0.90110 0.91710 0.52830 0.08100
C 	C 	0.94920 0.86880 0.50320 0.05300
C 	C 	0.97510 0.88750 0.47380 -0.11500
H 	H 	0.99710 0.84850 0.47090 0.06900
C 	C 	0.96810 0.96420 0.44870 0.06200
H 	H 	0.98590 0.97800 0.42880 -0.00700
C 	C 	0.95390 0.78500 0.52950 0.08400
N 	N 	0.98389 0.72760 0.52280 -0.14900
C 	C 	0.98770 0.65740 0.54960 0.07200
N 	N 	0.96425 0.63930 0.57930 -0.15100
C 	C 	0.93540 0.69920 0.58150 0.09000
N 	N 	0.92851 0.77310 0.55740 -0.13800
N 	N 	0.08680 0.48000 0.54260 -0.27700
C 	C 	0.07190 0.53290 0.50870 0.06500
H 	H 	0.08390 0.53060 0.48310 -0.00600
C 	C 	0.03960 0.59040 0.50970 -0.12000
H 	H 	0.02990 0.62780 0.48530 0.07600
C 	C 	0.02140 0.59370 0.54630 0.03800
C 	C 	0.03690 0.53840 0.58120 -0.15300
H 	H 	0.02550 0.53890 0.60720 0.02300
C 	C 	0.06900 0.48280 0.57700 0.05200
H 	H 	0.07900 0.44380 0.60070 -0.05700
Zn	Zn	0.13895 0.40234 0.54460 1.16400
I 	I 	0.12545 0.25322 0.57535 -0.39500
I 	I 	0.16747 0.42909 0.47496 -0.37500
N 	N 	0.85830 0.66030 0.67610 -0.30300
C 	C 	0.89250 0.61090 0.67760 0.06600
H 	H 	0.89970 0.56880 0.70060 -0.08900
C 	C 	0.91750 0.61960 0.64640 -0.13000
H 	H 	0.94050 0.58120 0.64680 0.05300
C 	C 	0.90830 0.68600 0.61440 0.05300
C 	C 	0.87380 0.73750 0.61350 -0.11100
H 	H 	0.86650 0.78200 0.59170 0.08000
C 	C 	0.84950 0.72300 0.64540 0.06700
H 	H 	0.82590 0.75930 0.64510 -0.00600
Zn	Zn	0.82681 0.64355 0.72697 0.89500
I 	I 	0.87132 0.66846 0.80152 4.75200
I 	I 	0.76201 0.73141 0.69989 -0.00800
I 	I 	0.84820 0.69970 0.78810 -5.35200
I 	I 	0.74890 0.72360 0.68280 -0.30500
Zn	Zn	0.81040 0.65170 0.71230 0.79800
I 	I 	0.98500 0.13610 0.36820 -0.34000
I 	I 	0.88460 0.24070 0.43520 -0.11700
N 	N 	0.31290 0.99010 0.22100 -0.32700
C 	C 	0.28850 0.02830 0.18760 0.09000
H 	H 	0.27490 0.99120 0.16470 -0.03400
C 	C 	0.28160 0.11990 0.18420 -0.13700
H 	H 	0.26350 0.14470 0.15980 0.10700
C 	C 	0.30220 0.17340 0.21750 0.10000
C 	C 	0.32720 0.13270 0.25310 -0.18600
H 	H 	0.34030 0.16740 0.27730 0.09500
C 	C 	0.33260 0.04250 0.25280 0.14700
H 	H 	0.35120 0.01590 0.27630 -0.15800
C 	C 	0.29630 0.27180 0.21760 0.11500
N 	N 	0.26820 0.30900 0.18670 -0.10300
C 	C 	0.26280 0.39540 0.19120 0.12300
N 	N 	0.28210 0.44480 0.22510 -0.13700
C 	C 	0.30980 0.40160 0.25350 0.11600
N 	N 	0.31950 0.31580 0.25070 -0.13700
N 	N 	0.17780 0.53240 0.09360 -0.28700
C 	C 	0.20230 0.57600 0.12630 0.06500
H 	H 	0.20020 0.63910 0.12730 0.00100
C 	C 	0.22990 0.53460 0.15790 -0.14700
H 	H 	0.24690 0.56840 0.18010 0.11200
C 	C 	0.23280 0.44310 0.15740 0.08700
C 	C 	0.20760 0.39670 0.12450 -0.14800
H 	H 	0.20850 0.33340 0.12330 0.12500
C 	C 	0.18100 0.44500 0.09310 0.05700
H 	H 	0.16410 0.41310 0.07010 -0.01700
N 	N 	0.37710 0.54560 0.36170 -0.26400
C 	C 	0.38270 0.45870 0.35630 0.07200
H 	H 	0.40310 0.42890 0.37680 -0.00400
C 	C 	0.36050 0.40990 0.32260 -0.10900
H 	H 	0.36480 0.34740 0.32090 0.08400
C 	C 	0.33250 0.45180 0.29190 0.04800
C 	C 	0.32580 0.54270 0.29720 -0.07500
H 	H 	0.30590 0.57390 0.27670 0.14300
C 	C 	0.34850 0.58630 0.33270 0.03700
H 	H 	0.34350 0.64790 0.33650 0.11300
Zn	Zn	0.41929 0.61981 0.40574 1.14800
I 	I 	0.47585 0.65460 0.36556 -0.07700
I 	I 	0.38002 0.73370 0.44273 -0.29900
N 	N 	0.43679 0.51980 0.45184 -0.26800
C 	C 	0.41350 0.50330 0.48230 0.06400
H 	H 	0.39280 0.54510 0.48620 -0.00900
C 	C 	0.41860 0.42800 0.50770 -0.11300
H 	H 	0.40110 0.41710 0.52830 0.08100
C 	C 	0.44920 0.36880 0.50320 0.05300
C 	C 	0.47510 0.38750 0.47380 -0.11500
H 	H 	0.49710 0.34850 0.47090 0.06900
C 	C 	0.46810 0.46420 0.44870 0.06200
H 	H 	0.48590 0.47800 0.42880 -0.00700
C 	C 	0.45390 0.28500 0.52950 0.08400
N 	N 	0.48389 0.22760 0.52280 -0.14900
C 	C 	0.48770 0.15740 0.54960 0.07200
N 	N 	0.46425 0.13930 0.57930 -0.15100
C 	C 	0.43540 0.19920 0.58150 0.09000
N 	N 	0.42851 0.27310 0.55740 -0.13800
N 	N 	0.58680 0.98000 0.54260 -0.27700
C 	C 	0.57190 0.03290 0.50870 0.06500
H 	H 	0.58390 0.03060 0.48310 -0.00600
C 	C 	0.53960 0.09040 0.50970 -0.12000
H 	H 	0.52990 0.12780 0.48530 0.07600
C 	C 	0.52140 0.09370 0.54630 0.03800
C 	C 	0.53690 0.03840 0.58120 -0.15400
H 	H 	0.52550 0.03890 0.60720 0.02300
C 	C 	0.56900 0.98280 0.57700 0.05200
H 	H 	0.57900 0.94380 0.60070 -0.05700
Zn	Zn	0.63895 0.90234 0.54460 1.16400
I 	I 	0.62545 0.75322 0.57535 -0.39500
I 	I 	0.66747 0.92909 0.47496 -0.37500
N 	N 	0.35830 0.16030 0.67610 -0.30300
C 	C 	0.39250 0.11090 0.67760 0.06600
H 	H 	0.39970 0.06880 0.70060 -0.08900
C 	C 	0.41750 0.11960 0.64640 -0.13000
H 	H 	0.44050 0.08120 0.64680 0.05300
C 	C 	0.40830 0.18600 0.61440 0.05300
C 	C 	0.37380 0.23750 0.61350 -0.11100
H 	H 	0.36650 0.28200 0.59170 0.08000
C 	C 	0.34950 0.22300 0.64540 0.06700
H 	H 	0.32590 0.25930 0.64510 -0.00600
Zn	Zn	0.32681 0.14355 0.72697 0.89500
I 	I 	0.37132 0.16846 0.80152 4.75100
I 	I 	0.26201 0.23141 0.69989 -0.00800
I 	I 	0.34820 0.19970 0.78810 -5.35200
I 	I 	0.24890 0.22360 0.68280 -0.30500
Zn	Zn	0.31040 0.15170 0.71230 0.79800
I 	I 	0.48500 0.63610 0.36820 -0.34000
I 	I 	0.38460 0.74070 0.43520 -0.11700
N 	N 	0.81290 0.50990 0.72100 -0.32600
C 	C 	0.78850 0.47170 0.68760 0.09000
H 	H 	0.77490 0.50880 0.66470 -0.03300
C 	C 	0.78160 0.38010 0.68420 -0.13700
H 	H 	0.76350 0.35530 0.65980 0.10700
C 	C 	0.80220 0.32660 0.71750 0.09900
C 	C 	0.82720 0.36730 0.75310 -0.18600
H 	H 	0.84030 0.33260 0.77730 0.09500
C 	C 	0.83260 0.45750 0.75280 0.14700
H 	H 	0.85120 0.48410 0.77630 -0.15800
C 	C 	0.79630 0.22820 0.71760 0.11500
N 	N 	0.76820 0.19100 0.68670 -0.10300
C 	C 	0.76280 0.10460 0.69120 0.12300
N 	N 	0.78210 0.05520 0.72510 -0.13700
C 	C 	0.80980 0.09840 0.75350 0.11600
N 	N 	0.81950 0.18420 0.75070 -0.13700
N 	N 	0.67780 0.96760 0.59360 -0.28600
C 	C 	0.70230 0.92400 0.62630 0.06500
H 	H 	0.70020 0.86090 0.62730 0.00100
C 	C 	0.72990 0.96540 0.65790 -0.14700
H 	H 	0.74690 0.93160 0.68010 0.11200
C 	C 	0.73280 0.05690 0.65740 0.08600
C 	C 	0.70760 0.10330 0.62450 -0.14700
H 	H 	0.70850 0.16660 0.62330 0.12500
C 	C 	0.68100 0.05500 0.59310 0.05700
H 	H 	0.66410 0.08690 0.57010 -0.01700
N 	N 	0.87710 0.95440 0.86170 -0.26400
C 	C 	0.88270 0.04130 0.85630 0.07200
H 	H 	0.90310 0.07110 0.87680 -0.00300
C 	C 	0.86050 0.09010 0.82260 -0.10900
H 	H 	0.86480 0.15260 0.82090 0.08400
C 	C 	0.83250 0.04820 0.79190 0.04700
C 	C 	0.82580 0.95730 0.79720 -0.07400
H 	H 	0.80590 0.92610 0.77670 0.14300
C 	C 	0.84850 0.91370 0.83270 0.03600
H 	H 	0.84350 0.85210 0.83650 0.11300
Zn	Zn	0.91929 0.88019 0.90574 1.14800
I 	I 	0.97585 0.84540 0.86556 -0.07700
I 	I 	0.88002 0.76630 0.94273 -0.29900
N 	N 	0.93679 0.98020 0.95184 -0.26800
C 	C 	0.91350 0.99670 0.98230 0.06300
H 	H 	0.89280 0.95490 0.98620 -0.00900
C 	C 	0.91860 0.07200 0.00770 -0.11300
H 	H 	0.90110 0.08290 0.02830 0.08100
C 	C 	0.94920 0.13120 0.00320 0.05300
C 	C 	0.97510 0.11250 0.97380 -0.11500
H 	H 	0.99710 0.15150 0.97090 0.06900
C 	C 	0.96810 0.03580 0.94870 0.06200
H 	H 	0.98590 0.02200 0.92880 -0.00700
C 	C 	0.95390 0.21500 0.02950 0.08400
N 	N 	0.98389 0.27240 0.02280 -0.14900
C 	C 	0.98770 0.34260 0.04960 0.07200
N 	N 	0.96425 0.36070 0.07930 -0.15100
C 	C 	0.93540 0.30080 0.08150 0.09000
N 	N 	0.92851 0.22690 0.05740 -0.13800
N 	N 	0.08680 0.52000 0.04260 -0.27700
C 	C 	0.07190 0.46710 0.00870 0.06500
H 	H 	0.08390 0.46940 0.98310 -0.00600
C 	C 	0.03960 0.40960 0.00970 -0.12000
H 	H 	0.02990 0.37220 0.98530 0.07700
C 	C 	0.02140 0.40630 0.04630 0.03800
C 	C 	0.03690 0.46160 0.08120 -0.15300
H 	H 	0.02550 0.46110 0.10720 0.02300
C 	C 	0.06900 0.51720 0.07700 0.05200
H 	H 	0.07900 0.55620 0.10070 -0.05700
Zn	Zn	0.13895 0.59766 0.04460 1.16400
I 	I 	0.12545 0.74678 0.07535 -0.39500
I 	I 	0.16747 0.57091 0.97496 -0.37500
N 	N 	0.85830 0.33970 0.17610 -0.30300
C 	C 	0.89250 0.38910 0.17760 0.06600
H 	H 	0.89970 0.43120 0.20060 -0.08900
C 	C 	0.91750 0.38040 0.14640 -0.13000
H 	H 	0.94050 0.41880 0.14680 0.05300
C 	C 	0.90830 0.31400 0.11440 0.05300
C 	C 	0.87380 0.26250 0.11350 -0.11100
H 	H 	0.86650 0.21800 0.09170 0.08000
C 	C 	0.84950 0.27700 0.14540 0.06700
H 	H 	0.82590 0.24070 0.14510 -0.00600
Zn	Zn	0.82681 0.35645 0.22697 0.89500
I 	I 	0.87132 0.33154 0.30152 4.75200
I 	I 	0.76201 0.26859 0.19989 -0.00800
I 	I 	0.84820 0.30030 0.28810 -5.35200
I 	I 	0.74890 0.27640 0.18280 -0.30500
Zn	Zn	0.81040 0.34830 0.21230 0.79800
I 	I 	0.98500 0.86390 0.86820 -0.34000
I 	I 	0.88460 0.75930 0.93520 -0.11700
N 	N 	0.31290 0.00990 0.72100 -0.32700
C 	C 	0.28850 0.97170 0.68760 0.09000
H 	H 	0.27490 0.00880 0.66470 -0.03400
C 	C 	0.28160 0.88010 0.68420 -0.13700
H 	H 	0.26350 0.85530 0.65980 0.10700
C 	C 	0.30220 0.82660 0.71750 0.10000
C 	C 	0.32720 0.86730 0.75310 -0.18600
H 	H 	0.34030 0.83260 0.77730 0.09500
C 	C 	0.33260 0.95750 0.75280 0.14700
H 	H 	0.35120 0.98410 0.77630 -0.15800
C 	C 	0.29630 0.72820 0.71760 0.11500
N 	N 	0.26820 0.69100 0.68670 -0.10300
C 	C 	0.26280 0.60460 0.69120 0.12300
N 	N 	0.28210 0.55520 0.72510 -0.13700
C 	C 	0.30980 0.59840 0.75350 0.11600
N 	N 	0.31950 0.68420 0.75070 -0.13700
N 	N 	0.17780 0.46760 0.59360 -0.28700
C 	C 	0.20230 0.42400 0.62630 0.06500
H 	H 	0.20020 0.36090 0.62730 0.00100
C 	C 	0.22990 0.46540 0.65790 -0.14700
H 	H 	0.24690 0.43160 0.68010 0.11200
C 	C 	0.23280 0.55690 0.65740 0.08700
C 	C 	0.20760 0.60330 0.62450 -0.14800
H 	H 	0.20850 0.66660 0.62330 0.12500
C 	C 	0.18100 0.55500 0.59310 0.05700
H 	H 	0.16410 0.58690 0.57010 -0.01700
N 	N 	0.37710 0.45440 0.86170 -0.26400
C 	C 	0.38270 0.54130 0.85630 0.07200
H 	H 	0.40310 0.57110 0.87680 -0.00400
C 	C 	0.36050 0.59010 0.82260 -0.10900
H 	H 	0.36480 0.65260 0.82090 0.08400
C 	C 	0.33250 0.54820 0.79190 0.04800
C 	C 	0.32580 0.45730 0.79720 -0.07500
H 	H 	0.30590 0.42610 0.77670 0.14300
C 	C 	0.34850 0.41370 0.83270 0.03700
H 	H 	0.34350 0.35210 0.83650 0.11300
Zn	Zn	0.41929 0.38019 0.90574 1.14800
I 	I 	0.47585 0.34540 0.86556 -0.07700
I 	I 	0.38002 0.26630 0.94273 -0.29900
N 	N 	0.43679 0.48020 0.95184 -0.26800
C 	C 	0.41350 0.49670 0.98230 0.06400
H 	H 	0.39280 0.45490 0.98620 -0.00900
C 	C 	0.41860 0.57200 0.00770 -0.11300
H 	H 	0.40110 0.58290 0.02830 0.08100
C 	C 	0.44920 0.63120 0.00320 0.05300
C 	C 	0.47510 0.61250 0.97380 -0.11500
H 	H 	0.49710 0.65150 0.97090 0.06900
C 	C 	0.46810 0.53580 0.94870 0.06200
H 	H 	0.48590 0.52200 0.92880 -0.00700
C 	C 	0.45390 0.71500 0.02950 0.08400
N 	N 	0.48389 0.77240 0.02280 -0.14900
C 	C 	0.48770 0.84260 0.04960 0.07200
N 	N 	0.46425 0.86070 0.07930 -0.15100
C 	C 	0.43540 0.80080 0.08150 0.09000
N 	N 	0.42851 0.72690 0.05740 -0.13800
N 	N 	0.58680 0.02000 0.04260 -0.27700
C 	C 	0.57190 0.96710 0.00870 0.06500
H 	H 	0.58390 0.96940 0.98310 -0.00600
C 	C 	0.53960 0.90960 0.00970 -0.12000
H 	H 	0.52990 0.87220 0.98530 0.07600
C 	C 	0.52140 0.90630 0.04630 0.03800
C 	C 	0.53690 0.96160 0.08120 -0.15300
H 	H 	0.52550 0.96110 0.10720 0.02300
C 	C 	0.56900 0.01720 0.07700 0.05200
H 	H 	0.57900 0.05620 0.10070 -0.05700
Zn	Zn	0.63895 0.09766 0.04460 1.16400
I 	I 	0.62545 0.24678 0.07535 -0.39500
I 	I 	0.66747 0.07091 0.97496 -0.37500
N 	N 	0.35830 0.83970 0.17610 -0.30300
C 	C 	0.39250 0.88910 0.17760 0.06600
H 	H 	0.39970 0.93120 0.20060 -0.08900
C 	C 	0.41750 0.88040 0.14640 -0.13000
H 	H 	0.44050 0.91880 0.14680 0.05300
C 	C 	0.40830 0.81400 0.11440 0.05300
C 	C 	0.37380 0.76250 0.11350 -0.11100
H 	H 	0.36650 0.71800 0.09170 0.08000
C 	C 	0.34950 0.77700 0.14540 0.06700
H 	H 	0.32590 0.74070 0.14510 -0.00600
Zn	Zn	0.32681 0.85645 0.22697 0.89500
I 	I 	0.37132 0.83154 0.30152 4.75100
I 	I 	0.26201 0.76859 0.19989 -0.00800
I 	I 	0.34820 0.80030 0.28810 -5.35100
I 	I 	0.24890 0.77640 0.18280 -0.30500
Zn	Zn	0.31040 0.84830 0.21230 0.79800
I 	I 	0.48500 0.36390 0.86820 -0.34000
I 	I 	0.38460 0.25930 0.93520 -0.11700
