data_crystal

_cell_length_a 31.89500
_cell_length_b 15.13300
_cell_length_c 31.16800
_cell_angle_alpha 90.00000
_cell_angle_beta  98.08200
_cell_angle_gamma 90.00000

_symmetry_space_group_name_	'P 1'
_symmetry_space_group_name_H-M	'P 1'

loop_
_symmetry_equiv_pos_as_xyz
  x,y,z

loop_
_atom_site_label
_atom_site_type_symbol
_atom_site_fract_x
_atom_site_fract_y
_atom_site_fract_z
_atom_site_charge
Zn	Zn	0.80835 0.34970 0.21446 1.16800
I 	I 	0.74170 0.28594 0.18134 -0.40000
I 	I 	0.84533 0.30444 0.28802 -0.38900
N 	N 	0.84940 0.32670 0.17030 -0.27500
C 	C 	0.83740 0.28140 0.13370 0.07000
H 	H 	0.80950 0.25790 0.12850 -0.00600
C 	C 	0.86410 0.26770 0.10330 -0.11600
H 	H 	0.85450 0.23680 0.07720 0.08100
C 	C 	0.90510 0.29940 0.11110 0.06200
C 	C 	0.91770 0.34500 0.14900 -0.12000
H 	H 	0.94550 0.36860 0.15510 0.08200
C 	C 	0.88870 0.35560 0.17820 0.07700
H 	H 	0.89760 0.38490 0.20480 -0.02000
C 	C 	0.93390 0.28820 0.07810 0.09500
N 	N 	0.92800 0.21830 0.05260 -0.13900
C 	C 	0.95670 0.20890 0.02550 0.08200
N 	N 	0.98770 0.26660 0.02120 -0.14700
C 	C 	0.98960 0.33460 0.04820 0.09300
N 	N 	0.96480 0.34850 0.07780 -0.14100
N 	N 	0.94490 0.98370 0.94320 -0.27400
C 	C 	0.97620 0.04130 0.94230 0.07600
H 	H 	0.99530 0.03210 0.92200 -0.01200
C 	C 	0.98220 0.11370 0.96940 -0.12100
H 	H 	0.00520 0.15290 0.96790 0.07700
C 	C 	0.95440 0.12830 0.99860 0.05200
C 	C 	0.92220 0.06680 0.00120 -0.11200
H 	H 	0.90320 0.07360 0.02190 0.08000
C 	C 	0.91860 0.99580 0.97300 0.06300
H 	H 	0.89670 0.95380 0.97480 -0.00900
Zn	Zn	0.93004 0.89095 0.89542 1.16500
I 	I 	0.88765 0.76836 0.92363 -0.37200
I 	I 	0.99502 0.86681 0.85715 -0.35400
N 	N 	0.08820 0.52210 0.04370 -0.27500
C 	C 	0.06560 0.52190 0.07500 0.08800
H 	H 	0.07230 0.56400 0.09760 -0.02500
C 	C 	0.03250 0.46500 0.07790 -0.12400
H 	H 	0.01640 0.46900 0.10130 0.08100
C 	C 	0.02310 0.40110 0.04560 0.05200
C 	C 	0.04630 0.40290 0.01110 -0.10700
H 	H 	0.04000 0.36220 0.98780 0.07700
C 	C 	0.07850 0.46420 0.01050 0.06300
H 	H 	0.09390 0.46570 0.98650 -0.00300
Zn	Zn	0.14187 0.59933 0.05017 1.16500
I 	I 	0.12312 0.74705 0.08122 -0.36800
I 	I 	0.17739 0.58340 0.98238 -0.37300
N 	N 	0.17980 0.53100 0.09770 -0.26900
C 	C 	0.18620 0.44370 0.09360 0.06900
H 	H 	0.17130 0.41340 0.06940 -0.00100
C 	C 	0.21340 0.39700 0.12310 -0.10900
H 	H 	0.21670 0.33510 0.11970 0.08900
C 	C 	0.23620 0.44070 0.15810 0.04800
C 	C 	0.23040 0.53110 0.16160 -0.11000
H 	H 	0.24650 0.56360 0.18430 0.07900
C 	C 	0.20120 0.57310 0.13210 0.05500
H 	H 	0.19580 0.63410 0.13600 0.00800
C 	C 	0.26730 0.39220 0.19020 0.09100
N 	N 	0.27140 0.30540 0.18470 -0.14100
C 	C 	0.30010 0.26780 0.21340 0.09700
N 	N 	0.32500 0.30960 0.24490 -0.13500
C 	C 	0.31730 0.39460 0.24780 0.10100
N 	N 	0.28800 0.43970 0.22220 -0.14800
N 	N 	0.30590 0.98660 0.21500 -0.27800
C 	C 	0.32920 0.03250 0.24300 0.09900
H 	H 	0.34780 0.00220 0.26460 -0.02200
C 	C 	0.32920 0.12360 0.24400 -0.14000
H 	H 	0.34720 0.15460 0.26580 0.09100
C 	C 	0.30280 0.16870 0.21290 0.06500
C 	C 	0.27720 0.12010 0.18170 -0.12500
H 	H 	0.25820 0.14870 0.15990 0.08400
C 	C 	0.28000 0.02940 0.18350 0.06600
H 	H 	0.26330 0.99550 0.16180 -0.00800
N 	N 	0.38940 0.53330 0.35220 -0.26800
C 	C 	0.35840 0.57320 0.32650 0.06300
H 	H 	0.35310 0.63400 0.33120 -0.00000
C 	C 	0.33350 0.53030 0.29320 -0.11600
H 	H 	0.31090 0.56050 0.27620 0.07600
C 	C 	0.34170 0.44320 0.28500 0.05800
C 	C 	0.37340 0.40090 0.31230 -0.11500
H 	H 	0.37930 0.34020 0.30830 0.09000
C 	C 	0.39630 0.44740 0.34500 0.07800
H 	H 	0.41800 0.41770 0.36360 -0.00300
Zn	Zn	0.30835 0.84970 0.21446 1.16900
I 	I 	0.24170 0.78594 0.18134 -0.39900
I 	I 	0.34533 0.80444 0.28802 -0.38800
N 	N 	0.34940 0.82670 0.17030 -0.27400
C 	C 	0.33740 0.78140 0.13370 0.07100
H 	H 	0.30950 0.75790 0.12850 -0.00500
C 	C 	0.36410 0.76770 0.10330 -0.11500
H 	H 	0.35450 0.73680 0.07720 0.08200
C 	C 	0.40510 0.79940 0.11110 0.06300
C 	C 	0.41770 0.84500 0.14900 -0.11900
H 	H 	0.44550 0.86860 0.15510 0.08300
C 	C 	0.38870 0.85560 0.17820 0.07800
H 	H 	0.39760 0.88490 0.20480 -0.01900
C 	C 	0.43390 0.78820 0.07810 0.09600
N 	N 	0.42800 0.71830 0.05260 -0.13900
C 	C 	0.45670 0.70890 0.02550 0.08400
N 	N 	0.48770 0.76660 0.02120 -0.14700
C 	C 	0.48960 0.83460 0.04820 0.09300
N 	N 	0.46480 0.84850 0.07780 -0.14100
N 	N 	0.44490 0.48370 0.94320 -0.27400
C 	C 	0.47620 0.54130 0.94230 0.07500
H 	H 	0.49530 0.53210 0.92200 -0.01200
C 	C 	0.48220 0.61370 0.96940 -0.12000
H 	H 	0.50520 0.65290 0.96790 0.07700
C 	C 	0.45440 0.62830 0.99860 0.05100
C 	C 	0.42220 0.56680 0.00120 -0.11100
H 	H 	0.40320 0.57360 0.02190 0.08000
C 	C 	0.41860 0.49580 0.97300 0.06300
H 	H 	0.39670 0.45380 0.97480 -0.00900
Zn	Zn	0.43004 0.39095 0.89542 1.16500
I 	I 	0.38765 0.26836 0.92363 -0.37200
I 	I 	0.49502 0.36681 0.85715 -0.35300
N 	N 	0.58820 0.02210 0.04370 -0.27500
C 	C 	0.56560 0.02190 0.07500 0.08700
H 	H 	0.57230 0.06400 0.09760 -0.02500
C 	C 	0.53250 0.96500 0.07790 -0.12400
H 	H 	0.51640 0.96900 0.10130 0.08100
C 	C 	0.52310 0.90110 0.04560 0.05200
C 	C 	0.54630 0.90290 0.01110 -0.10700
H 	H 	0.54000 0.86220 0.98780 0.07700
C 	C 	0.57850 0.96420 0.01050 0.06400
H 	H 	0.59390 0.96570 0.98650 -0.00300
Zn	Zn	0.64187 0.09933 0.05017 1.16500
I 	I 	0.62312 0.24705 0.08122 -0.36800
I 	I 	0.67739 0.08340 0.98238 -0.37300
N 	N 	0.67980 0.03100 0.09770 -0.27000
C 	C 	0.68620 0.94370 0.09360 0.07000
H 	H 	0.67130 0.91340 0.06940 -0.00100
C 	C 	0.71340 0.89700 0.12310 -0.11000
H 	H 	0.71670 0.83510 0.11970 0.08900
C 	C 	0.73620 0.94070 0.15810 0.04800
C 	C 	0.73040 0.03110 0.16160 -0.11100
H 	H 	0.74650 0.06360 0.18430 0.07900
C 	C 	0.70120 0.07310 0.13210 0.05600
H 	H 	0.69580 0.13410 0.13600 0.00800
C 	C 	0.76730 0.89220 0.19020 0.09100
N 	N 	0.77140 0.80540 0.18470 -0.14100
C 	C 	0.80010 0.76780 0.21340 0.09700
N 	N 	0.82500 0.80960 0.24490 -0.13500
C 	C 	0.81730 0.89460 0.24780 0.10100
N 	N 	0.78800 0.93970 0.22220 -0.14800
N 	N 	0.80590 0.48660 0.21500 -0.27900
C 	C 	0.82920 0.53250 0.24300 0.09900
H 	H 	0.84780 0.50220 0.26460 -0.02200
C 	C 	0.82920 0.62360 0.24400 -0.14100
H 	H 	0.84720 0.65460 0.26580 0.09100
C 	C 	0.80280 0.66870 0.21290 0.06500
C 	C 	0.77720 0.62010 0.18170 -0.12600
H 	H 	0.75820 0.64870 0.15990 0.08500
C 	C 	0.78000 0.52940 0.18350 0.06700
H 	H 	0.76330 0.49550 0.16180 -0.00800
N 	N 	0.88940 0.03330 0.35220 -0.26800
C 	C 	0.85840 0.07320 0.32650 0.06300
H 	H 	0.85310 0.13400 0.33120 -0.00000
C 	C 	0.83350 0.03030 0.29320 -0.11600
H 	H 	0.81090 0.06050 0.27620 0.07600
C 	C 	0.84170 0.94320 0.28500 0.05800
C 	C 	0.87340 0.90090 0.31230 -0.11500
H 	H 	0.87930 0.84020 0.30830 0.09000
C 	C 	0.89630 0.94740 0.34500 0.07800
H 	H 	0.91800 0.91770 0.36360 -0.00300
Zn	Zn	0.80835 0.65030 0.71446 1.16900
I 	I 	0.74170 0.71406 0.68134 -0.39900
I 	I 	0.84533 0.69556 0.78802 -0.38800
N 	N 	0.84940 0.67330 0.67030 -0.27400
C 	C 	0.83740 0.71860 0.63370 0.07100
H 	H 	0.80950 0.74210 0.62850 -0.00500
C 	C 	0.86410 0.73230 0.60330 -0.11500
H 	H 	0.85450 0.76320 0.57720 0.08200
C 	C 	0.90510 0.70060 0.61110 0.06300
C 	C 	0.91770 0.65500 0.64900 -0.11900
H 	H 	0.94550 0.63140 0.65510 0.08300
C 	C 	0.88870 0.64440 0.67820 0.07800
H 	H 	0.89760 0.61510 0.70480 -0.01900
C 	C 	0.93390 0.71180 0.57810 0.09600
N 	N 	0.92800 0.78170 0.55260 -0.13900
C 	C 	0.95670 0.79110 0.52550 0.08400
N 	N 	0.98770 0.73340 0.52120 -0.14700
C 	C 	0.98960 0.66540 0.54820 0.09300
N 	N 	0.96480 0.65150 0.57780 -0.14100
N 	N 	0.94490 0.01630 0.44320 -0.27400
C 	C 	0.97620 0.95870 0.44230 0.07600
H 	H 	0.99530 0.96790 0.42200 -0.01200
C 	C 	0.98220 0.88630 0.46940 -0.12100
H 	H 	0.00520 0.84710 0.46790 0.07700
C 	C 	0.95440 0.87170 0.49860 0.05200
C 	C 	0.92220 0.93320 0.50120 -0.11100
H 	H 	0.90320 0.92640 0.52190 0.08000
C 	C 	0.91860 0.00420 0.47300 0.06300
H 	H 	0.89670 0.04620 0.47480 -0.00900
Zn	Zn	0.93004 0.10905 0.39542 1.16500
I 	I 	0.88765 0.23164 0.42363 -0.37200
I 	I 	0.99502 0.13319 0.35715 -0.35400
N 	N 	0.08820 0.47790 0.54370 -0.27500
C 	C 	0.06560 0.47810 0.57500 0.08800
H 	H 	0.07230 0.43600 0.59760 -0.02500
C 	C 	0.03250 0.53500 0.57790 -0.12400
H 	H 	0.01640 0.53100 0.60130 0.08100
C 	C 	0.02310 0.59890 0.54560 0.05200
C 	C 	0.04630 0.59710 0.51110 -0.10700
H 	H 	0.04000 0.63780 0.48780 0.07700
C 	C 	0.07850 0.53580 0.51050 0.06300
H 	H 	0.09390 0.53430 0.48650 -0.00300
Zn	Zn	0.14187 0.40067 0.55017 1.16500
I 	I 	0.12312 0.25295 0.58122 -0.36800
I 	I 	0.17739 0.41660 0.48238 -0.37300
N 	N 	0.17980 0.46900 0.59770 -0.26900
C 	C 	0.18620 0.55630 0.59360 0.06900
H 	H 	0.17130 0.58660 0.56940 -0.00100
C 	C 	0.21340 0.60300 0.62310 -0.10900
H 	H 	0.21670 0.66490 0.61970 0.08900
C 	C 	0.23620 0.55930 0.65810 0.04800
C 	C 	0.23040 0.46890 0.66160 -0.11000
H 	H 	0.24650 0.43640 0.68430 0.07900
C 	C 	0.20120 0.42690 0.63210 0.05500
H 	H 	0.19580 0.36590 0.63600 0.00800
C 	C 	0.26730 0.60780 0.69020 0.09100
N 	N 	0.27140 0.69460 0.68470 -0.14100
C 	C 	0.30010 0.73220 0.71340 0.09700
N 	N 	0.32500 0.69040 0.74490 -0.13500
C 	C 	0.31730 0.60540 0.74780 0.10100
N 	N 	0.28800 0.56030 0.72220 -0.14800
N 	N 	0.30590 0.01340 0.71500 -0.27800
C 	C 	0.32920 0.96750 0.74300 0.09900
H 	H 	0.34780 0.99780 0.76460 -0.02200
C 	C 	0.32920 0.87640 0.74400 -0.14000
H 	H 	0.34720 0.84540 0.76580 0.09100
C 	C 	0.30280 0.83130 0.71290 0.06500
C 	C 	0.27720 0.87990 0.68170 -0.12500
H 	H 	0.25820 0.85130 0.65990 0.08500
C 	C 	0.28000 0.97060 0.68350 0.06600
H 	H 	0.26330 0.00450 0.66180 -0.00800
N 	N 	0.38940 0.46670 0.85220 -0.26800
C 	C 	0.35840 0.42680 0.82650 0.06300
H 	H 	0.35310 0.36600 0.83120 -0.00000
C 	C 	0.33350 0.46970 0.79320 -0.11600
H 	H 	0.31090 0.43950 0.77620 0.07600
C 	C 	0.34170 0.55680 0.78500 0.05800
C 	C 	0.37340 0.59910 0.81230 -0.11500
H 	H 	0.37930 0.65980 0.80830 0.09000
C 	C 	0.39630 0.55260 0.84500 0.07800
H 	H 	0.41800 0.58230 0.86360 -0.00300
Zn	Zn	0.30835 0.15030 0.71446 1.16900
I 	I 	0.24170 0.21406 0.68134 -0.39900
I 	I 	0.34533 0.19556 0.78802 -0.38800
N 	N 	0.34940 0.17330 0.67030 -0.27400
C 	C 	0.33740 0.21860 0.63370 0.07100
H 	H 	0.30950 0.24210 0.62850 -0.00500
C 	C 	0.36410 0.23230 0.60330 -0.11500
H 	H 	0.35450 0.26320 0.57720 0.08200
C 	C 	0.40510 0.20060 0.61110 0.06300
C 	C 	0.41770 0.15500 0.64900 -0.11900
H 	H 	0.44550 0.13140 0.65510 0.08300
C 	C 	0.38870 0.14440 0.67820 0.07800
H 	H 	0.39760 0.11510 0.70480 -0.01900
C 	C 	0.43390 0.21180 0.57810 0.09600
N 	N 	0.42800 0.28170 0.55260 -0.13900
C 	C 	0.45670 0.29110 0.52550 0.08400
N 	N 	0.48770 0.23340 0.52120 -0.14700
C 	C 	0.48960 0.16540 0.54820 0.09300
N 	N 	0.46480 0.15150 0.57780 -0.14100
N 	N 	0.44490 0.51630 0.44320 -0.27400
C 	C 	0.47620 0.45870 0.44230 0.07600
H 	H 	0.49530 0.46790 0.42200 -0.01200
C 	C 	0.48220 0.38630 0.46940 -0.12100
H 	H 	0.50520 0.34710 0.46790 0.07700
C 	C 	0.45440 0.37170 0.49860 0.05200
C 	C 	0.42220 0.43320 0.50120 -0.11100
H 	H 	0.40320 0.42640 0.52190 0.08000
C 	C 	0.41860 0.50420 0.47300 0.06300
H 	H 	0.39670 0.54620 0.47480 -0.00900
Zn	Zn	0.43004 0.60905 0.39542 1.16500
I 	I 	0.38765 0.73164 0.42363 -0.37200
I 	I 	0.49502 0.63319 0.35715 -0.35300
N 	N 	0.58820 0.97790 0.54370 -0.27500
C 	C 	0.56560 0.97810 0.57500 0.08800
H 	H 	0.57230 0.93600 0.59760 -0.02500
C 	C 	0.53250 0.03500 0.57790 -0.12400
H 	H 	0.51640 0.03100 0.60130 0.08100
C 	C 	0.52310 0.09890 0.54560 0.05200
C 	C 	0.54630 0.09710 0.51110 -0.10700
H 	H 	0.54000 0.13780 0.48780 0.07700
C 	C 	0.57850 0.03580 0.51050 0.06300
H 	H 	0.59390 0.03430 0.48650 -0.00300
Zn	Zn	0.64187 0.90067 0.55017 1.16500
I 	I 	0.62312 0.75295 0.58122 -0.36800
I 	I 	0.67739 0.91660 0.48238 -0.37300
N 	N 	0.67980 0.96900 0.59770 -0.27000
C 	C 	0.68620 0.05630 0.59360 0.06900
H 	H 	0.67130 0.08660 0.56940 -0.00100
C 	C 	0.71340 0.10300 0.62310 -0.10900
H 	H 	0.71670 0.16490 0.61970 0.08900
C 	C 	0.73620 0.05930 0.65810 0.04800
C 	C 	0.73040 0.96890 0.66160 -0.11100
H 	H 	0.74650 0.93640 0.68430 0.07900
C 	C 	0.70120 0.92690 0.63210 0.05600
H 	H 	0.69580 0.86590 0.63600 0.00800
C 	C 	0.76730 0.10780 0.69020 0.09100
N 	N 	0.77140 0.19460 0.68470 -0.14100
C 	C 	0.80010 0.23220 0.71340 0.09700
N 	N 	0.82500 0.19040 0.74490 -0.13500
C 	C 	0.81730 0.10540 0.74780 0.10100
N 	N 	0.78800 0.06030 0.72220 -0.14800
N 	N 	0.80590 0.51340 0.71500 -0.27900
C 	C 	0.82920 0.46750 0.74300 0.09900
H 	H 	0.84780 0.49780 0.76460 -0.02200
C 	C 	0.82920 0.37640 0.74400 -0.14100
H 	H 	0.84720 0.34540 0.76580 0.09100
C 	C 	0.80280 0.33130 0.71290 0.06500
C 	C 	0.77720 0.37990 0.68170 -0.12600
H 	H 	0.75820 0.35130 0.65990 0.08500
C 	C 	0.78000 0.47060 0.68350 0.06700
H 	H 	0.76330 0.50450 0.66180 -0.00800
N 	N 	0.88940 0.96670 0.85220 -0.26800
C 	C 	0.85840 0.92680 0.82650 0.06300
H 	H 	0.85310 0.86600 0.83120 -0.00000
C 	C 	0.83350 0.96970 0.79320 -0.11600
H 	H 	0.81090 0.93950 0.77620 0.07600
C 	C 	0.84170 0.05680 0.78500 0.05800
C 	C 	0.87340 0.09910 0.81230 -0.11600
H 	H 	0.87930 0.15980 0.80830 0.09000
C 	C 	0.89630 0.05260 0.84500 0.07800
H 	H 	0.91800 0.08230 0.86360 -0.00300
Zn	Zn	0.19165 0.34970 0.28554 1.16900
I 	I 	0.25830 0.28594 0.31866 -0.39900
I 	I 	0.15467 0.30444 0.21198 -0.38800
N 	N 	0.15060 0.32670 0.32970 -0.27400
C 	C 	0.16260 0.28140 0.36630 0.07100
H 	H 	0.19050 0.25790 0.37150 -0.00500
C 	C 	0.13590 0.26770 0.39670 -0.11500
H 	H 	0.14550 0.23680 0.42280 0.08200
C 	C 	0.09490 0.29940 0.38890 0.06300
C 	C 	0.08230 0.34500 0.35100 -0.11900
H 	H 	0.05450 0.36860 0.34490 0.08300
C 	C 	0.11130 0.35560 0.32180 0.07800
H 	H 	0.10240 0.38490 0.29520 -0.01900
C 	C 	0.06610 0.28820 0.42190 0.09600
N 	N 	0.07200 0.21830 0.44740 -0.13900
C 	C 	0.04330 0.20890 0.47450 0.08400
N 	N 	0.01230 0.26660 0.47880 -0.14700
C 	C 	0.01040 0.33460 0.45180 0.09300
N 	N 	0.03520 0.34850 0.42220 -0.14100
N 	N 	0.05510 0.98370 0.55680 -0.27400
C 	C 	0.02380 0.04130 0.55770 0.07600
H 	H 	0.00470 0.03210 0.57800 -0.01200
C 	C 	0.01780 0.11370 0.53060 -0.12100
H 	H 	0.99480 0.15290 0.53210 0.07700
C 	C 	0.04560 0.12830 0.50140 0.05200
C 	C 	0.07780 0.06680 0.49880 -0.11100
H 	H 	0.09680 0.07360 0.47810 0.08000
C 	C 	0.08140 0.99580 0.52700 0.06300
H 	H 	0.10330 0.95380 0.52520 -0.00900
Zn	Zn	0.06996 0.89095 0.60458 1.16500
I 	I 	0.11235 0.76836 0.57637 -0.37200
I 	I 	0.00498 0.86681 0.64285 -0.35400
N 	N 	0.91180 0.52210 0.45630 -0.27500
C 	C 	0.93440 0.52190 0.42500 0.08800
H 	H 	0.92770 0.56400 0.40240 -0.02500
C 	C 	0.96750 0.46500 0.42210 -0.12400
H 	H 	0.98360 0.46900 0.39870 0.08100
C 	C 	0.97690 0.40110 0.45440 0.05200
C 	C 	0.95370 0.40290 0.48890 -0.10700
H 	H 	0.96000 0.36220 0.51220 0.07700
C 	C 	0.92150 0.46420 0.48950 0.06300
H 	H 	0.90610 0.46570 0.51350 -0.00300
Zn	Zn	0.85813 0.59933 0.44983 1.16500
I 	I 	0.87688 0.74705 0.41878 -0.36800
I 	I 	0.82261 0.58340 0.51762 -0.37300
N 	N 	0.82020 0.53100 0.40230 -0.26900
C 	C 	0.81380 0.44370 0.40640 0.06900
H 	H 	0.82870 0.41340 0.43060 -0.00100
C 	C 	0.78660 0.39700 0.37690 -0.10900
H 	H 	0.78330 0.33510 0.38030 0.08900
C 	C 	0.76380 0.44070 0.34190 0.04800
C 	C 	0.76960 0.53110 0.33840 -0.11000
H 	H 	0.75350 0.56360 0.31570 0.07900
C 	C 	0.79880 0.57310 0.36790 0.05500
H 	H 	0.80420 0.63410 0.36400 0.00800
C 	C 	0.73270 0.39220 0.30980 0.09100
N 	N 	0.72860 0.30540 0.31530 -0.14100
C 	C 	0.69990 0.26780 0.28660 0.09700
N 	N 	0.67500 0.30960 0.25510 -0.13500
C 	C 	0.68270 0.39460 0.25220 0.10100
N 	N 	0.71200 0.43970 0.27780 -0.14800
N 	N 	0.69410 0.98660 0.28500 -0.27800
C 	C 	0.67080 0.03250 0.25700 0.09900
H 	H 	0.65220 0.00220 0.23540 -0.02200
C 	C 	0.67080 0.12360 0.25600 -0.14000
H 	H 	0.65280 0.15460 0.23420 0.09100
C 	C 	0.69720 0.16870 0.28710 0.06500
C 	C 	0.72280 0.12010 0.31830 -0.12500
H 	H 	0.74180 0.14870 0.34010 0.08500
C 	C 	0.72000 0.02940 0.31650 0.06600
H 	H 	0.73670 0.99550 0.33820 -0.00800
N 	N 	0.61060 0.53330 0.14780 -0.26800
C 	C 	0.64160 0.57320 0.17350 0.06300
H 	H 	0.64690 0.63400 0.16880 -0.00000
C 	C 	0.66650 0.53030 0.20680 -0.11600
H 	H 	0.68910 0.56050 0.22380 0.07600
C 	C 	0.65830 0.44320 0.21500 0.05800
C 	C 	0.62660 0.40090 0.18770 -0.11500
H 	H 	0.62070 0.34020 0.19170 0.09000
C 	C 	0.60370 0.44740 0.15500 0.07800
H 	H 	0.58200 0.41770 0.13640 -0.00300
Zn	Zn	0.69165 0.84970 0.28554 1.16900
I 	I 	0.75830 0.78594 0.31866 -0.39900
I 	I 	0.65467 0.80444 0.21198 -0.38800
N 	N 	0.65060 0.82670 0.32970 -0.27400
C 	C 	0.66260 0.78140 0.36630 0.07100
H 	H 	0.69050 0.75790 0.37150 -0.00500
C 	C 	0.63590 0.76770 0.39670 -0.11500
H 	H 	0.64550 0.73680 0.42280 0.08200
C 	C 	0.59490 0.79940 0.38890 0.06300
C 	C 	0.58230 0.84500 0.35100 -0.11900
H 	H 	0.55450 0.86860 0.34490 0.08300
C 	C 	0.61130 0.85560 0.32180 0.07800
H 	H 	0.60240 0.88490 0.29520 -0.01900
C 	C 	0.56610 0.78820 0.42190 0.09600
N 	N 	0.57200 0.71830 0.44740 -0.13900
C 	C 	0.54330 0.70890 0.47450 0.08400
N 	N 	0.51230 0.76660 0.47880 -0.14700
C 	C 	0.51040 0.83460 0.45180 0.09300
N 	N 	0.53520 0.84850 0.42220 -0.14100
N 	N 	0.55510 0.48370 0.55680 -0.27400
C 	C 	0.52380 0.54130 0.55770 0.07600
H 	H 	0.50470 0.53210 0.57800 -0.01200
C 	C 	0.51780 0.61370 0.53060 -0.12100
H 	H 	0.49480 0.65290 0.53210 0.07700
C 	C 	0.54560 0.62830 0.50140 0.05200
C 	C 	0.57780 0.56680 0.49880 -0.11100
H 	H 	0.59680 0.57360 0.47810 0.08000
C 	C 	0.58140 0.49580 0.52700 0.06300
H 	H 	0.60330 0.45380 0.52520 -0.00900
Zn	Zn	0.56996 0.39095 0.60458 1.16500
I 	I 	0.61235 0.26836 0.57637 -0.37200
I 	I 	0.50498 0.36681 0.64285 -0.35300
N 	N 	0.41180 0.02210 0.45630 -0.27500
C 	C 	0.43440 0.02190 0.42500 0.08800
H 	H 	0.42770 0.06400 0.40240 -0.02500
C 	C 	0.46750 0.96500 0.42210 -0.12400
H 	H 	0.48360 0.96900 0.39870 0.08100
C 	C 	0.47690 0.90110 0.45440 0.05200
C 	C 	0.45370 0.90290 0.48890 -0.10700
H 	H 	0.46000 0.86220 0.51220 0.07700
C 	C 	0.42150 0.96420 0.48950 0.06300
H 	H 	0.40610 0.96570 0.51350 -0.00300
Zn	Zn	0.35813 0.09933 0.44983 1.16500
I 	I 	0.37688 0.24705 0.41878 -0.36800
I 	I 	0.32261 0.08340 0.51762 -0.37300
N 	N 	0.32020 0.03100 0.40230 -0.27000
C 	C 	0.31380 0.94370 0.40640 0.06900
H 	H 	0.32870 0.91340 0.43060 -0.00100
C 	C 	0.28660 0.89700 0.37690 -0.10900
H 	H 	0.28330 0.83510 0.38030 0.08900
C 	C 	0.26380 0.94070 0.34190 0.04800
C 	C 	0.26960 0.03110 0.33840 -0.11100
H 	H 	0.25350 0.06360 0.31570 0.07900
C 	C 	0.29880 0.07310 0.36790 0.05600
H 	H 	0.30420 0.13410 0.36400 0.00800
C 	C 	0.23270 0.89220 0.30980 0.09100
N 	N 	0.22860 0.80540 0.31530 -0.14100
C 	C 	0.19990 0.76780 0.28660 0.09700
N 	N 	0.17500 0.80960 0.25510 -0.13500
C 	C 	0.18270 0.89460 0.25220 0.10100
N 	N 	0.21200 0.93970 0.27780 -0.14800
N 	N 	0.19410 0.48660 0.28500 -0.27900
C 	C 	0.17080 0.53250 0.25700 0.09900
H 	H 	0.15220 0.50220 0.23540 -0.02200
C 	C 	0.17080 0.62360 0.25600 -0.14100
H 	H 	0.15280 0.65460 0.23420 0.09100
C 	C 	0.19720 0.66870 0.28710 0.06500
C 	C 	0.22280 0.62010 0.31830 -0.12600
H 	H 	0.24180 0.64870 0.34010 0.08500
C 	C 	0.22000 0.52940 0.31650 0.06700
H 	H 	0.23670 0.49550 0.33820 -0.00800
N 	N 	0.11060 0.03330 0.14780 -0.26800
C 	C 	0.14160 0.07320 0.17350 0.06300
H 	H 	0.14690 0.13400 0.16880 -0.00000
C 	C 	0.16650 0.03030 0.20680 -0.11600
H 	H 	0.18910 0.06050 0.22380 0.07600
C 	C 	0.15830 0.94320 0.21500 0.05800
C 	C 	0.12660 0.90090 0.18770 -0.11600
H 	H 	0.12070 0.84020 0.19170 0.09000
C 	C 	0.10370 0.94740 0.15500 0.07800
H 	H 	0.08200 0.91770 0.13640 -0.00300
Zn	Zn	0.19165 0.65030 0.78554 1.16900
I 	I 	0.25830 0.71406 0.81866 -0.39900
I 	I 	0.15467 0.69556 0.71198 -0.38800
N 	N 	0.15060 0.67330 0.82970 -0.27400
C 	C 	0.16260 0.71860 0.86630 0.07100
H 	H 	0.19050 0.74210 0.87150 -0.00500
C 	C 	0.13590 0.73230 0.89670 -0.11500
H 	H 	0.14550 0.76320 0.92280 0.08200
C 	C 	0.09490 0.70060 0.88890 0.06300
C 	C 	0.08230 0.65500 0.85100 -0.11900
H 	H 	0.05450 0.63140 0.84490 0.08300
C 	C 	0.11130 0.64440 0.82180 0.07800
H 	H 	0.10240 0.61510 0.79520 -0.01900
C 	C 	0.06610 0.71180 0.92190 0.09600
N 	N 	0.07200 0.78170 0.94740 -0.13800
C 	C 	0.04330 0.79110 0.97450 0.08300
N 	N 	0.01230 0.73340 0.97880 -0.14700
C 	C 	0.01040 0.66540 0.95180 0.09300
N 	N 	0.03520 0.65150 0.92220 -0.14100
N 	N 	0.05510 0.01630 0.05680 -0.27400
C 	C 	0.02380 0.95870 0.05770 0.07600
H 	H 	0.00470 0.96790 0.07800 -0.01200
C 	C 	0.01780 0.88630 0.03060 -0.12100
H 	H 	0.99480 0.84710 0.03210 0.07700
C 	C 	0.04560 0.87170 0.00140 0.05200
C 	C 	0.07780 0.93320 0.99880 -0.11200
H 	H 	0.09680 0.92640 0.97810 0.08000
C 	C 	0.08140 0.00420 0.02700 0.06300
H 	H 	0.10330 0.04620 0.02520 -0.00900
Zn	Zn	0.06996 0.10905 0.10458 1.16500
I 	I 	0.11235 0.23164 0.07637 -0.37200
I 	I 	0.00498 0.13319 0.14285 -0.35400
N 	N 	0.91180 0.47790 0.95630 -0.27500
C 	C 	0.93440 0.47810 0.92500 0.08800
H 	H 	0.92770 0.43600 0.90240 -0.02500
C 	C 	0.96750 0.53500 0.92210 -0.12400
H 	H 	0.98360 0.53100 0.89870 0.08100
C 	C 	0.97690 0.59890 0.95440 0.05200
C 	C 	0.95370 0.59710 0.98890 -0.10700
H 	H 	0.96000 0.63780 0.01220 0.07700
C 	C 	0.92150 0.53580 0.98950 0.06300
H 	H 	0.90610 0.53430 0.01350 -0.00300
Zn	Zn	0.85813 0.40067 0.94983 1.16500
I 	I 	0.87688 0.25295 0.91878 -0.36800
I 	I 	0.82261 0.41660 0.01762 -0.37300
N 	N 	0.82020 0.46900 0.90230 -0.26900
C 	C 	0.81380 0.55630 0.90640 0.06900
H 	H 	0.82870 0.58660 0.93060 -0.00100
C 	C 	0.78660 0.60300 0.87690 -0.10900
H 	H 	0.78330 0.66490 0.88030 0.08900
C 	C 	0.76380 0.55930 0.84190 0.04800
C 	C 	0.76960 0.46890 0.83840 -0.11000
H 	H 	0.75350 0.43640 0.81570 0.07900
C 	C 	0.79880 0.42690 0.86790 0.05500
H 	H 	0.80420 0.36590 0.86400 0.00800
C 	C 	0.73270 0.60780 0.80980 0.09100
N 	N 	0.72860 0.69460 0.81530 -0.14100
C 	C 	0.69990 0.73220 0.78660 0.09700
N 	N 	0.67500 0.69040 0.75510 -0.13500
C 	C 	0.68270 0.60540 0.75220 0.10100
N 	N 	0.71200 0.56030 0.77780 -0.14800
N 	N 	0.69410 0.01340 0.78500 -0.27800
C 	C 	0.67080 0.96750 0.75700 0.09900
H 	H 	0.65220 0.99780 0.73540 -0.02200
C 	C 	0.67080 0.87640 0.75600 -0.14000
H 	H 	0.65280 0.84540 0.73420 0.09100
C 	C 	0.69720 0.83130 0.78710 0.06500
C 	C 	0.72280 0.87990 0.81830 -0.12500
H 	H 	0.74180 0.85130 0.84010 0.08400
C 	C 	0.72000 0.97060 0.81650 0.06600
H 	H 	0.73670 0.00450 0.83820 -0.00800
N 	N 	0.61060 0.46670 0.64780 -0.26800
C 	C 	0.64160 0.42680 0.67350 0.06300
H 	H 	0.64690 0.36600 0.66880 -0.00000
C 	C 	0.66650 0.46970 0.70680 -0.11600
H 	H 	0.68910 0.43950 0.72380 0.07600
C 	C 	0.65830 0.55680 0.71500 0.05800
C 	C 	0.62660 0.59910 0.68770 -0.11500
H 	H 	0.62070 0.65980 0.69170 0.09000
C 	C 	0.60370 0.55260 0.65500 0.07800
H 	H 	0.58200 0.58230 0.63640 -0.00300
Zn	Zn	0.69165 0.15030 0.78554 1.16900
I 	I 	0.75830 0.21406 0.81866 -0.39900
I 	I 	0.65467 0.19556 0.71198 -0.38800
N 	N 	0.65060 0.17330 0.82970 -0.27400
C 	C 	0.66260 0.21860 0.86630 0.07100
H 	H 	0.69050 0.24210 0.87150 -0.00500
C 	C 	0.63590 0.23230 0.89670 -0.11500
H 	H 	0.64550 0.26320 0.92280 0.08200
C 	C 	0.59490 0.20060 0.88890 0.06300
C 	C 	0.58230 0.15500 0.85100 -0.11900
H 	H 	0.55450 0.13140 0.84490 0.08300
C 	C 	0.61130 0.14440 0.82180 0.07800
H 	H 	0.60240 0.11510 0.79520 -0.01900
C 	C 	0.56610 0.21180 0.92190 0.09600
N 	N 	0.57200 0.28170 0.94740 -0.13900
C 	C 	0.54330 0.29110 0.97450 0.08400
N 	N 	0.51230 0.23340 0.97880 -0.14700
C 	C 	0.51040 0.16540 0.95180 0.09300
N 	N 	0.53520 0.15150 0.92220 -0.14100
N 	N 	0.55510 0.51630 0.05680 -0.27400
C 	C 	0.52380 0.45870 0.05770 0.07500
H 	H 	0.50470 0.46790 0.07800 -0.01200
C 	C 	0.51780 0.38630 0.03060 -0.12000
H 	H 	0.49480 0.34710 0.03210 0.07700
C 	C 	0.54560 0.37170 0.00140 0.05100
C 	C 	0.57780 0.43320 0.99880 -0.11100
H 	H 	0.59680 0.42640 0.97810 0.08000
C 	C 	0.58140 0.50420 0.02700 0.06300
H 	H 	0.60330 0.54620 0.02520 -0.00900
Zn	Zn	0.56996 0.60905 0.10458 1.16500
I 	I 	0.61235 0.73164 0.07637 -0.37200
I 	I 	0.50498 0.63319 0.14285 -0.35300
N 	N 	0.41180 0.97790 0.95630 -0.27500
C 	C 	0.43440 0.97810 0.92500 0.08700
H 	H 	0.42770 0.93600 0.90240 -0.02500
C 	C 	0.46750 0.03500 0.92210 -0.12400
H 	H 	0.48360 0.03100 0.89870 0.08100
C 	C 	0.47690 0.09890 0.95440 0.05200
C 	C 	0.45370 0.09710 0.98890 -0.10700
H 	H 	0.46000 0.13780 0.01220 0.07700
C 	C 	0.42150 0.03580 0.98950 0.06400
H 	H 	0.40610 0.03430 0.01350 -0.00300
Zn	Zn	0.35813 0.90067 0.94983 1.16500
I 	I 	0.37688 0.75295 0.91878 -0.36800
I 	I 	0.32261 0.91660 0.01762 -0.37300
N 	N 	0.32020 0.96900 0.90230 -0.27000
C 	C 	0.31380 0.05630 0.90640 0.07000
H 	H 	0.32870 0.08660 0.93060 -0.00100
C 	C 	0.28660 0.10300 0.87690 -0.11000
H 	H 	0.28330 0.16490 0.88030 0.08900
C 	C 	0.26380 0.05930 0.84190 0.04800
C 	C 	0.26960 0.96890 0.83840 -0.11100
H 	H 	0.25350 0.93640 0.81570 0.07900
C 	C 	0.29880 0.92690 0.86790 0.05600
H 	H 	0.30420 0.86590 0.86400 0.00800
C 	C 	0.23270 0.10780 0.80980 0.09100
N 	N 	0.22860 0.19460 0.81530 -0.14100
C 	C 	0.19990 0.23220 0.78660 0.09700
N 	N 	0.17500 0.19040 0.75510 -0.13500
C 	C 	0.18270 0.10540 0.75220 0.10100
N 	N 	0.21200 0.06030 0.77780 -0.14800
N 	N 	0.19410 0.51340 0.78500 -0.27900
C 	C 	0.17080 0.46750 0.75700 0.09900
H 	H 	0.15220 0.49780 0.73540 -0.02200
C 	C 	0.17080 0.37640 0.75600 -0.14100
H 	H 	0.15280 0.34540 0.73420 0.09100
C 	C 	0.19720 0.33130 0.78710 0.06500
C 	C 	0.22280 0.37990 0.81830 -0.12600
H 	H 	0.24180 0.35130 0.84010 0.08500
C 	C 	0.22000 0.47060 0.81650 0.06700
H 	H 	0.23670 0.50450 0.83820 -0.00800
N 	N 	0.11060 0.96670 0.64780 -0.26800
C 	C 	0.14160 0.92680 0.67350 0.06300
H 	H 	0.14690 0.86600 0.66880 -0.00000
C 	C 	0.16650 0.96970 0.70680 -0.11600
H 	H 	0.18910 0.93950 0.72380 0.07600
C 	C 	0.15830 0.05680 0.71500 0.05800
C 	C 	0.12660 0.09910 0.68770 -0.11500
H 	H 	0.12070 0.15980 0.69170 0.09000
C 	C 	0.10370 0.05260 0.65500 0.07800
H 	H 	0.08200 0.08230 0.63640 -0.00300
