data_crystal

_cell_length_a 34.81400
_cell_length_b 14.91030
_cell_length_c 30.05700
_cell_angle_alpha 90.00000
_cell_angle_beta  101.50000
_cell_angle_gamma 90.00000

_symmetry_space_group_name_	'P 1'
_symmetry_space_group_name_H-M	'P 1'

loop_
_symmetry_equiv_pos_as_xyz
  x,y,z

loop_
_atom_site_label
_atom_site_type_symbol
_atom_site_fract_x
_atom_site_fract_y
_atom_site_fract_z
_atom_site_charge
Zn	Zn	0.12962 0.10469 0.80386 1.15300
Zn	Zn	0.91995 0.83147 0.65813 1.16200
Zn	Zn	0.82627 0.06432 0.47708 1.14900
Zn	Zn	0.62889 0.80550 0.30203 1.16700
Zn	Zn	0.42184 0.07343 0.16046 1.15700
I 	I 	0.61520 0.95102 0.33630 -0.35400
I 	I 	0.65229 0.78309 0.22902 -0.37100
I 	I 	0.38533 0.96113 0.19928 -0.33600
I 	I 	0.47535 0.04686 0.11605 -0.40000
Zn	Zn	0.32900 0.84110 0.98140 0.61300
I 	I 	0.37311 0.86520 0.05787 -0.22000
I 	I 	0.26750 0.93090 0.95280 -0.06200
I 	I 	0.11079 0.96276 0.84079 -0.34900
I 	I 	0.15283 0.11270 0.72990 -0.14300
I 	I 	0.97386 0.85740 0.61373 -0.20700
I 	I 	0.88320 0.94360 0.69760 -0.17200
I 	I 	0.87154 0.04750 0.55780 -0.36700
I 	I 	0.76680 0.97260 0.45180 -0.02500
N 	N 	0.31740 0.70560 0.97680 -0.28000
C 	C 	0.28570 0.67020 0.94640 0.03600
H 	H 	0.26800 0.70970 0.92760 -0.00800
C 	C 	0.27930 0.57840 0.94270 -0.09400
H 	H 	0.25850 0.55580 0.92000 0.06900
C 	C 	0.30320 0.51850 0.97210 0.03800
C 	C 	0.33560 0.55840 0.00250 -0.11300
H 	H 	0.35370 0.52150 0.02220 0.08000
C 	C 	0.34050 0.64940 0.00330 0.07600
H 	H 	0.36200 0.67360 0.02440 -0.01600
N 	N 	0.17140 0.16910 0.85180 -0.26900
C 	C 	0.17920 0.25860 0.84690 0.05000
H 	H 	0.16470 0.29020 0.82160 0.00900
C 	C 	0.20700 0.30340 0.87690 -0.10200
H 	H 	0.21020 0.36630 0.87400 0.07700
C 	C 	0.23120 0.25580 0.91240 0.02700
C 	C 	0.22250 0.16360 0.91620 -0.11000
H 	H 	0.23740 0.12920 0.94020 0.07600
C 	C 	0.19280 0.12300 0.88600 0.05400
H 	H 	0.18740 0.06130 0.88950 -0.01400
N 	N 	0.38120 0.14670 0.11490 -0.28100
C 	C 	0.38730 0.22880 0.10690 0.10100
H 	H 	0.40770 0.25960 0.12690 -0.01400
C 	C 	0.36550 0.27600 0.06990 -0.14800
H 	H 	0.37320 0.33500 0.06350 0.10000
C 	C 	0.33510 0.24000 0.04460 0.07800
C 	C 	0.32760 0.15230 0.05210 -0.13400
H 	H 	0.30740 0.12170 0.03180 0.06800
C 	C 	0.34940 0.10690 0.08950 0.05800
H 	H 	0.34180 0.04850 0.09710 -0.02400
C 	C 	0.29820 0.42060 0.97270 0.11600
N 	N 	0.26770 0.38880 0.93950 -0.14200
C 	C 	0.26170 0.30080 0.94470 0.08700
N 	N 	0.28200 0.25020 0.97800 -0.14400
C 	C 	0.31120 0.29140 0.00650 0.09100
N 	N 	0.32090 0.37680 0.00170 -0.14200
N 	N 	0.08230 0.19010 0.80050 -0.27700
C 	C 	0.06500 0.23470 0.76410 0.09400
H 	H 	0.07450 0.22710 0.73680 -0.01100
C 	C 	0.03450 0.29090 0.76380 -0.14000
H 	H 	0.02430 0.32610 0.73780 0.08700
C 	C 	0.01860 0.29580 0.80230 0.06700
C 	C 	0.03290 0.24840 0.84010 -0.13000
H 	H 	0.02120 0.24960 0.86610 0.08300
C 	C 	0.06630 0.19710 0.83800 0.06500
H 	H 	0.07850 0.16540 0.86450 -0.02000
N 	N 	0.93800 0.72900 0.70400 -0.26400
C 	C 	0.91420 0.71050 0.73480 0.04000
H 	H 	0.89410 0.75200 0.73760 -0.00300
C 	C 	0.91840 0.63410 0.76160 -0.09100
H 	H 	0.90200 0.62390 0.78280 0.07400
C 	C 	0.94820 0.57070 0.75640 0.03700
C 	C 	0.97340 0.59370 0.72680 -0.10200
H 	H 	0.99470 0.55560 0.72440 0.06600
C 	C 	0.96700 0.67280 0.70080 0.06200
H 	H 	0.98390 0.68640 0.68040 -0.00500
N 	N 	0.86240 0.35690 0.93130 -0.29600
C 	C 	0.85350 0.41520 0.89820 0.09900
H 	H 	0.82970 0.44760 0.89580 -0.03100
C 	C 	0.87520 0.43220 0.86790 -0.14200
H 	H 	0.86670 0.47440 0.84440 0.09200
C 	C 	0.91160 0.38670 0.87080 0.08400
C 	C 	0.91900 0.32400 0.90280 -0.15100
H 	H 	0.94190 0.28820 0.90560 0.09100
C 	C 	0.89360 0.31040 0.93220 0.11100
H 	H 	0.89960 0.26410 0.95420 -0.03300
C 	C 	0.98480 0.36240 0.80570 0.08300
N 	N 	0.98170 0.43180 0.77670 -0.15000
C 	C 	0.95310 0.48450 0.78340 0.09300
N 	N 	0.92900 0.47750 0.81320 -0.13400
C 	C 	0.93590 0.40220 0.83900 0.09000
N 	N 	0.96280 0.34140 0.83620 -0.13600
N 	N 	0.87880 0.76130 0.61220 -0.27400
C 	C 	0.85050 0.79910 0.58390 0.08400
H 	H 	0.84710 0.86200 0.58680 -0.01200
C 	C 	0.82490 0.75550 0.55030 -0.12700
H 	H 	0.80280 0.78610 0.53340 0.07700
C 	C 	0.83150 0.66570 0.54120 0.05400
C 	C 	0.86100 0.62420 0.57300 -0.11600
H 	H 	0.86520 0.56140 0.57100 0.09200
C 	C 	0.88320 0.67090 0.60560 0.06900
H 	H 	0.90340 0.64020 0.62570 0.00300
N 	N 	0.66930 0.73910 0.35030 -0.27800
C 	C 	0.69050 0.77880 0.38690 0.08300
H 	H 	0.68560 0.84040 0.39160 -0.00200
C 	C 	0.71870 0.73750 0.41780 -0.14000
H 	H 	0.73300 0.76960 0.44310 0.09300
C 	C 	0.72620 0.64990 0.41180 0.06300
C 	C 	0.70460 0.60840 0.37470 -0.13800
H 	H 	0.70940 0.54700 0.36920 0.08900
C 	C 	0.67660 0.65330 0.34590 0.09200
H 	H 	0.66140 0.62160 0.32110 -0.00900
N 	N 	0.81440 0.20150 0.47060 -0.28600
C 	C 	0.83890 0.25550 0.49790 0.06900
H 	H 	0.86070 0.23180 0.51880 -0.01700
C 	C 	0.83190 0.34840 0.49520 -0.13900
H 	H 	0.84910 0.38720 0.51500 0.08900
C 	C 	0.80290 0.38290 0.46680 0.08400
C 	C 	0.77730 0.32650 0.43940 -0.15400
H 	H 	0.75530 0.34880 0.41850 0.08700
C 	C 	0.78530 0.23450 0.44370 0.10900
H 	H 	0.76770 0.19450 0.42530 -0.03200
C 	C 	0.80800 0.61490 0.50490 0.10100
N 	N 	0.77860 0.65610 0.47770 -0.14300
C 	C 	0.75880 0.60530 0.44430 0.08000
N 	N 	0.76530 0.51850 0.43750 -0.14000
C 	C 	0.79450 0.48320 0.46680 0.09000
N 	N 	0.81720 0.52850 0.50220 -0.13200
N 	N 	0.58020 0.72650 0.30010 -0.27200
C 	C 	0.56630 0.67030 0.26500 0.06100
H 	H 	0.57830 0.67160 0.23920 0.00000
C 	C 	0.53560 0.61120 0.26480 -0.10500
H 	H 	0.52680 0.57380 0.23920 0.07200
C 	C 	0.51790 0.60680 0.30160 0.03200
C 	C 	0.53470 0.66500 0.33730 -0.11100
H 	H 	0.52510 0.66170 0.36460 0.08100
C 	C 	0.56400 0.72500 0.33530 0.07800
H 	H 	0.57220 0.76620 0.35960 -0.01600
N 	N 	0.43930 0.17500 0.20760 -0.28300
C 	C 	0.46530 0.23950 0.20020 0.07900
H 	H 	0.47970 0.22900 0.17700 -0.01200
C 	C 	0.47170 0.31600 0.22330 -0.13900
H 	H 	0.48930 0.35990 0.21610 0.08100
C 	C 	0.45220 0.32860 0.25760 0.06700
C 	C 	0.42760 0.26310 0.26780 -0.15200
H 	H 	0.41470 0.26970 0.29260 0.08800
C 	C 	0.42230 0.18990 0.24170 0.10000
H 	H 	0.40470 0.14540 0.24850 -0.03100
N 	N 	0.36020 0.54580 0.43020 -0.27800
C 	C 	0.39260 0.59540 0.43180 0.07600
H 	H 	0.39810 0.64100 0.45430 -0.01800
C 	C 	0.41780 0.58510 0.40390 -0.11400
H 	H 	0.44010 0.62280 0.40630 0.08200
C 	C 	0.41030 0.51470 0.36950 0.05300
C 	C 	0.37920 0.46220 0.36810 -0.10100
H 	H 	0.37470 0.41280 0.34780 0.07300
C 	C 	0.35160 0.48190 0.39880 0.05000
H 	H 	0.32790 0.44890 0.39600 -0.00700
C 	C 	0.48680 0.54650 0.30420 0.10500
N 	N 	0.48170 0.47750 0.27740 -0.15200
C 	C 	0.45480 0.41280 0.28360 0.08400
N 	N 	0.43300 0.42730 0.31250 -0.14300
C 	C 	0.43740 0.50120 0.33640 0.10400
N 	N 	0.46620 0.56170 0.33460 -0.14100
Zn	Zn	0.31960 0.84400 0.97240 0.61200
I 	I 	0.36460 0.87140 0.05700 -0.11800
I 	I 	0.25920 0.92500 0.94460 -0.28700
I 	I 	0.12040 0.97530 0.83560 0.00800
I 	I 	0.15110 0.14200 0.72990 -0.21800
I 	I 	0.86430 0.03190 0.54790 -0.05200
I 	I 	0.88660 0.94720 0.69580 -0.12800
I 	I 	0.97260 0.85000 0.61780 -0.09500
I 	I 	0.75850 0.98370 0.43820 -0.27100
Zn	Zn	0.62962 0.60469 0.80386 1.16200
Zn	Zn	0.41995 0.33147 0.65813 1.16100
Zn	Zn	0.32627 0.56432 0.47708 1.15700
Zn	Zn	0.12889 0.30550 0.30203 1.16700
Zn	Zn	0.92184 0.57343 0.16046 1.16500
I 	I 	0.11520 0.45102 0.33630 -0.39100
I 	I 	0.15229 0.28309 0.22902 -0.38500
I 	I 	0.88533 0.46113 0.19928 -0.38000
I 	I 	0.97535 0.54686 0.11605 -0.35300
Zn	Zn	0.82900 0.34110 0.98140 0.61100
I 	I 	0.87311 0.36520 0.05787 -0.23100
I 	I 	0.76750 0.43090 0.95280 -0.07600
I 	I 	0.61079 0.46276 0.84079 -0.38000
I 	I 	0.65283 0.61270 0.72990 -0.14000
I 	I 	0.47386 0.35740 0.61373 -0.21900
I 	I 	0.38320 0.44360 0.69760 -0.19300
I 	I 	0.37154 0.54750 0.55780 -0.34400
I 	I 	0.26680 0.47260 0.45180 -0.04700
N 	N 	0.81740 0.20560 0.97680 -0.27400
C 	C 	0.78570 0.17020 0.94640 0.01800
H 	H 	0.76800 0.20970 0.92760 -0.00400
C 	C 	0.77930 0.07840 0.94270 -0.06500
H 	H 	0.75850 0.05580 0.92000 0.04700
C 	C 	0.80320 0.01850 0.97210 -0.02800
C 	C 	0.83560 0.05840 0.00250 -0.08400
H 	H 	0.85370 0.02150 0.02220 0.05600
C 	C 	0.84050 0.14940 0.00330 0.05600
H 	H 	0.86200 0.17360 0.02440 -0.01300
N 	N 	0.67140 0.66910 0.85180 -0.26500
C 	C 	0.67920 0.75860 0.84690 0.05500
H 	H 	0.66470 0.79020 0.82160 0.01000
C 	C 	0.70700 0.80340 0.87690 -0.10300
H 	H 	0.71020 0.86630 0.87400 0.08500
C 	C 	0.73120 0.75580 0.91240 0.03300
C 	C 	0.72250 0.66360 0.91620 -0.10900
H 	H 	0.73740 0.62920 0.94020 0.08400
C 	C 	0.69280 0.62300 0.88600 0.05800
H 	H 	0.68740 0.56130 0.88950 -0.00100
N 	N 	0.88120 0.64670 0.11490 -0.27700
C 	C 	0.88730 0.72880 0.10690 0.10600
H 	H 	0.90770 0.75960 0.12690 -0.01300
C 	C 	0.86550 0.77600 0.06990 -0.14900
H 	H 	0.87320 0.83500 0.06350 0.10800
C 	C 	0.83510 0.74000 0.04460 0.08300
C 	C 	0.82760 0.65230 0.05210 -0.13200
H 	H 	0.80740 0.62170 0.03180 0.07500
C 	C 	0.84940 0.60690 0.08950 0.06300
H 	H 	0.84180 0.54850 0.09710 -0.01000
C 	C 	0.79820 0.92060 0.97270 0.16800
N 	N 	0.76770 0.88880 0.93950 -0.14000
C 	C 	0.76170 0.80080 0.94470 0.08900
N 	N 	0.78200 0.75020 0.97800 -0.14300
C 	C 	0.81120 0.79140 0.00650 0.09500
N 	N 	0.82090 0.87680 0.00170 -0.14400
N 	N 	0.58230 0.69010 0.80050 -0.27500
C 	C 	0.56500 0.73470 0.76410 0.09700
H 	H 	0.57450 0.72710 0.73680 -0.01000
C 	C 	0.53450 0.79090 0.76380 -0.14200
H 	H 	0.52430 0.82610 0.73780 0.09200
C 	C 	0.51860 0.79580 0.80230 0.07100
C 	C 	0.53290 0.74840 0.84010 -0.12900
H 	H 	0.52120 0.74960 0.86610 0.08800
C 	C 	0.56630 0.69710 0.83800 0.06900
H 	H 	0.57850 0.66540 0.86450 -0.01400
N 	N 	0.43800 0.22900 0.70400 -0.26000
C 	C 	0.41420 0.21050 0.73480 0.02300
H 	H 	0.39410 0.25200 0.73760 -0.00300
C 	C 	0.41840 0.13410 0.76160 -0.06900
H 	H 	0.40200 0.12390 0.78280 0.05200
C 	C 	0.44820 0.07070 0.75640 -0.02300
C 	C 	0.47340 0.09370 0.72680 -0.07800
H 	H 	0.49470 0.05560 0.72440 0.04400
C 	C 	0.46700 0.17280 0.70080 0.04400
H 	H 	0.48390 0.18640 0.68040 -0.00400
N 	N 	0.36240 0.85690 0.93130 -0.29500
C 	C 	0.35350 0.91520 0.89820 0.10500
H 	H 	0.32970 0.94760 0.89580 -0.02500
C 	C 	0.37520 0.93220 0.86790 -0.14200
H 	H 	0.36670 0.97440 0.84440 0.10100
C 	C 	0.41160 0.88670 0.87080 0.09100
C 	C 	0.41900 0.82400 0.90280 -0.15100
H 	H 	0.44190 0.78820 0.90560 0.09600
C 	C 	0.39360 0.81040 0.93220 0.11600
H 	H 	0.39960 0.76410 0.95420 -0.03000
C 	C 	0.48480 0.86240 0.80570 0.08700
N 	N 	0.48170 0.93180 0.77670 -0.14900
C 	C 	0.45310 0.98450 0.78340 0.14200
N 	N 	0.42900 0.97750 0.81320 -0.13100
C 	C 	0.43590 0.90220 0.83900 0.09400
N 	N 	0.46280 0.84140 0.83620 -0.13400
N 	N 	0.37880 0.26130 0.61220 -0.27600
C 	C 	0.35050 0.29910 0.58390 0.08200
H 	H 	0.34710 0.36200 0.58680 -0.02200
C 	C 	0.32490 0.25550 0.55030 -0.13100
H 	H 	0.30280 0.28610 0.53340 0.07400
C 	C 	0.33150 0.16570 0.54120 0.04800
C 	C 	0.36100 0.12420 0.57300 -0.11700
H 	H 	0.36520 0.06140 0.57100 0.07900
C 	C 	0.38320 0.17090 0.60560 0.06300
H 	H 	0.40340 0.14020 0.62570 -0.00400
N 	N 	0.16930 0.23910 0.35030 -0.27900
C 	C 	0.19050 0.27880 0.38690 0.08100
H 	H 	0.18560 0.34040 0.39160 -0.00400
C 	C 	0.21870 0.23750 0.41780 -0.14000
H 	H 	0.23300 0.26960 0.44310 0.09100
C 	C 	0.22620 0.14990 0.41180 0.05800
C 	C 	0.20460 0.10840 0.37470 -0.13900
H 	H 	0.20940 0.04700 0.36920 0.07800
C 	C 	0.17660 0.15330 0.34590 0.08900
H 	H 	0.16140 0.12160 0.32110 -0.01600
N 	N 	0.31440 0.70150 0.47060 -0.28000
C 	C 	0.33890 0.75550 0.49790 0.06400
H 	H 	0.36070 0.73180 0.51880 -0.01300
C 	C 	0.33190 0.84840 0.49520 -0.12300
H 	H 	0.34910 0.88720 0.51500 0.09200
C 	C 	0.30290 0.88290 0.46680 0.06500
C 	C 	0.27730 0.82650 0.43940 -0.13800
H 	H 	0.25530 0.84880 0.41850 0.09000
C 	C 	0.28530 0.73450 0.44370 0.10300
H 	H 	0.26770 0.69450 0.42530 -0.02200
C 	C 	0.30800 0.11490 0.50490 0.09600
N 	N 	0.27860 0.15610 0.47770 -0.14700
C 	C 	0.25880 0.10530 0.44430 0.07600
N 	N 	0.26530 0.01850 0.43750 -0.17700
C 	C 	0.29450 0.98320 0.46680 0.16300
N 	N 	0.31720 0.02850 0.50220 -0.16800
N 	N 	0.08020 0.22650 0.30010 -0.27400
C 	C 	0.06630 0.17030 0.26500 0.06100
H 	H 	0.07830 0.17160 0.23920 -0.00500
C 	C 	0.03560 0.11120 0.26480 -0.11800
H 	H 	0.02680 0.07380 0.23920 0.06500
C 	C 	0.01790 0.10680 0.30160 0.04300
C 	C 	0.03470 0.16500 0.33730 -0.12200
H 	H 	0.02510 0.16170 0.36460 0.08000
C 	C 	0.06400 0.22500 0.33530 0.08000
H 	H 	0.07220 0.26620 0.35960 -0.01900
N 	N 	0.93930 0.67500 0.20760 -0.27900
C 	C 	0.96530 0.73950 0.20020 0.08100
H 	H 	0.97970 0.72900 0.17700 -0.01000
C 	C 	0.97170 0.81600 0.22330 -0.14100
H 	H 	0.98930 0.85990 0.21610 0.08800
C 	C 	0.95220 0.82860 0.25760 0.07100
C 	C 	0.92760 0.76310 0.26780 -0.15100
H 	H 	0.91470 0.76970 0.29260 0.09300
C 	C 	0.92230 0.68990 0.24170 0.10100
H 	H 	0.90470 0.64540 0.24850 -0.02000
N 	N 	0.86020 0.04580 0.43020 -0.30000
C 	C 	0.89260 0.09540 0.43180 0.05900
H 	H 	0.89810 0.14100 0.45430 -0.01700
C 	C 	0.91780 0.08510 0.40390 -0.09900
H 	H 	0.94010 0.12280 0.40630 0.07300
C 	C 	0.91030 0.01470 0.36950 -0.00200
C 	C 	0.87920 0.96220 0.36810 -0.03900
H 	H 	0.87470 0.91280 0.34780 0.06200
C 	C 	0.85160 0.98190 0.39880 0.08000
H 	H 	0.82790 0.94890 0.39600 -0.00800
C 	C 	0.98680 0.04650 0.30420 0.05900
N 	N 	0.98170 0.97750 0.27740 -0.12000
C 	C 	0.95480 0.91280 0.28360 0.08700
N 	N 	0.93300 0.92730 0.31250 -0.11800
C 	C 	0.93740 0.00120 0.33640 0.07400
N 	N 	0.96620 0.06170 0.33460 -0.13300
Zn	Zn	0.81960 0.34400 0.97240 0.61300
I 	I 	0.86460 0.37140 0.05700 -0.12900
I 	I 	0.75920 0.42500 0.94460 -0.30200
I 	I 	0.62040 0.47530 0.83560 -0.00500
I 	I 	0.65110 0.64200 0.72990 -0.19400
I 	I 	0.36430 0.53190 0.54790 -0.04200
I 	I 	0.38660 0.44720 0.69580 -0.14700
I 	I 	0.47260 0.35000 0.61780 -0.11300
I 	I 	0.25850 0.48370 0.43820 -0.29100
Zn	Zn	0.87038 0.10469 0.19614 1.15400
Zn	Zn	0.08005 0.83147 0.34187 1.16300
Zn	Zn	0.17373 0.06432 0.52292 1.14900
Zn	Zn	0.37111 0.80550 0.69797 1.16700
Zn	Zn	0.57816 0.07343 0.83954 1.15700
I 	I 	0.38480 0.95102 0.66370 -0.35400
I 	I 	0.34771 0.78309 0.77098 -0.37100
I 	I 	0.61467 0.96113 0.80072 -0.33600
I 	I 	0.52465 0.04686 0.88395 -0.40000
Zn	Zn	0.67100 0.84110 0.01860 0.61300
I 	I 	0.62689 0.86520 0.94213 -0.22000
I 	I 	0.73250 0.93090 0.04720 -0.06200
I 	I 	0.88921 0.96276 0.15921 -0.34900
I 	I 	0.84717 0.11270 0.27010 -0.14300
I 	I 	0.02614 0.85740 0.38627 -0.20700
I 	I 	0.11680 0.94360 0.30240 -0.17200
I 	I 	0.12846 0.04750 0.44220 -0.36700
I 	I 	0.23320 0.97260 0.54820 -0.02500
N 	N 	0.68260 0.70560 0.02320 -0.28000
C 	C 	0.71430 0.67020 0.05360 0.03600
H 	H 	0.73200 0.70970 0.07240 -0.00800
C 	C 	0.72070 0.57840 0.05730 -0.09400
H 	H 	0.74150 0.55580 0.08000 0.06900
C 	C 	0.69680 0.51850 0.02790 0.03800
C 	C 	0.66440 0.55840 0.99750 -0.11300
H 	H 	0.64630 0.52150 0.97780 0.08000
C 	C 	0.65950 0.64940 0.99670 0.07600
H 	H 	0.63800 0.67360 0.97560 -0.01600
N 	N 	0.82860 0.16910 0.14820 -0.26900
C 	C 	0.82080 0.25860 0.15310 0.05000
H 	H 	0.83530 0.29020 0.17840 0.00900
C 	C 	0.79300 0.30340 0.12310 -0.10200
H 	H 	0.78980 0.36630 0.12600 0.07700
C 	C 	0.76880 0.25580 0.08760 0.02700
C 	C 	0.77750 0.16360 0.08380 -0.11000
H 	H 	0.76260 0.12920 0.05980 0.07600
C 	C 	0.80720 0.12300 0.11400 0.05400
H 	H 	0.81260 0.06130 0.11050 -0.01400
N 	N 	0.61880 0.14670 0.88510 -0.28100
C 	C 	0.61270 0.22880 0.89310 0.10100
H 	H 	0.59230 0.25960 0.87310 -0.01400
C 	C 	0.63450 0.27600 0.93010 -0.14800
H 	H 	0.62680 0.33500 0.93650 0.10000
C 	C 	0.66490 0.24000 0.95540 0.07800
C 	C 	0.67240 0.15230 0.94790 -0.13400
H 	H 	0.69260 0.12170 0.96820 0.06800
C 	C 	0.65060 0.10690 0.91050 0.05800
H 	H 	0.65820 0.04850 0.90290 -0.02400
C 	C 	0.70180 0.42060 0.02730 0.11600
N 	N 	0.73230 0.38880 0.06050 -0.14200
C 	C 	0.73830 0.30080 0.05530 0.08700
N 	N 	0.71800 0.25020 0.02200 -0.14400
C 	C 	0.68880 0.29140 0.99350 0.09100
N 	N 	0.67910 0.37680 0.99830 -0.14200
N 	N 	0.91770 0.19010 0.19950 -0.27700
C 	C 	0.93500 0.23470 0.23590 0.09400
H 	H 	0.92550 0.22710 0.26320 -0.01100
C 	C 	0.96550 0.29090 0.23620 -0.14000
H 	H 	0.97570 0.32610 0.26220 0.08700
C 	C 	0.98140 0.29580 0.19770 0.06700
C 	C 	0.96710 0.24840 0.15990 -0.13000
H 	H 	0.97880 0.24960 0.13390 0.08300
C 	C 	0.93370 0.19710 0.16200 0.06500
H 	H 	0.92150 0.16540 0.13550 -0.02000
N 	N 	0.06200 0.72900 0.29600 -0.26400
C 	C 	0.08580 0.71050 0.26520 0.04000
H 	H 	0.10590 0.75200 0.26240 -0.00300
C 	C 	0.08160 0.63410 0.23840 -0.09100
H 	H 	0.09800 0.62390 0.21720 0.07400
C 	C 	0.05180 0.57070 0.24360 0.03700
C 	C 	0.02660 0.59370 0.27320 -0.10200
H 	H 	0.00530 0.55560 0.27560 0.06600
C 	C 	0.03300 0.67280 0.29920 0.06200
H 	H 	0.01610 0.68640 0.31960 -0.00500
N 	N 	0.13760 0.35690 0.06870 -0.29600
C 	C 	0.14650 0.41520 0.10180 0.09900
H 	H 	0.17030 0.44760 0.10420 -0.03100
C 	C 	0.12480 0.43220 0.13210 -0.14200
H 	H 	0.13330 0.47440 0.15560 0.09200
C 	C 	0.08840 0.38670 0.12920 0.08400
C 	C 	0.08100 0.32400 0.09720 -0.15100
H 	H 	0.05810 0.28820 0.09440 0.09100
C 	C 	0.10640 0.31040 0.06780 0.11100
H 	H 	0.10040 0.26410 0.04580 -0.03300
C 	C 	0.01520 0.36240 0.19430 0.08300
N 	N 	0.01830 0.43180 0.22330 -0.15000
C 	C 	0.04690 0.48450 0.21660 0.09300
N 	N 	0.07100 0.47750 0.18680 -0.13400
C 	C 	0.06410 0.40220 0.16100 0.09000
N 	N 	0.03720 0.34140 0.16380 -0.13600
N 	N 	0.12120 0.76130 0.38780 -0.27400
C 	C 	0.14950 0.79910 0.41610 0.08400
H 	H 	0.15290 0.86200 0.41320 -0.01200
C 	C 	0.17510 0.75550 0.44970 -0.12700
H 	H 	0.19720 0.78610 0.46660 0.07700
C 	C 	0.16850 0.66570 0.45880 0.05400
C 	C 	0.13900 0.62420 0.42700 -0.11600
H 	H 	0.13480 0.56140 0.42900 0.09200
C 	C 	0.11680 0.67090 0.39440 0.06900
H 	H 	0.09660 0.64020 0.37430 0.00300
N 	N 	0.33070 0.73910 0.64970 -0.27800
C 	C 	0.30950 0.77880 0.61310 0.08300
H 	H 	0.31440 0.84040 0.60840 -0.00200
C 	C 	0.28130 0.73750 0.58220 -0.14000
H 	H 	0.26700 0.76960 0.55690 0.09300
C 	C 	0.27380 0.64990 0.58820 0.06300
C 	C 	0.29540 0.60840 0.62530 -0.13800
H 	H 	0.29060 0.54700 0.63080 0.08900
C 	C 	0.32340 0.65330 0.65410 0.09200
H 	H 	0.33860 0.62160 0.67890 -0.00900
N 	N 	0.18560 0.20150 0.52940 -0.28600
C 	C 	0.16110 0.25550 0.50210 0.06900
H 	H 	0.13930 0.23180 0.48120 -0.01700
C 	C 	0.16810 0.34840 0.50480 -0.13900
H 	H 	0.15090 0.38720 0.48500 0.08900
C 	C 	0.19710 0.38290 0.53320 0.08400
C 	C 	0.22270 0.32650 0.56060 -0.15400
H 	H 	0.24470 0.34880 0.58150 0.08700
C 	C 	0.21470 0.23450 0.55630 0.10900
H 	H 	0.23230 0.19450 0.57470 -0.03200
C 	C 	0.19200 0.61490 0.49510 0.10100
N 	N 	0.22140 0.65610 0.52230 -0.14300
C 	C 	0.24120 0.60530 0.55570 0.08000
N 	N 	0.23470 0.51850 0.56250 -0.14000
C 	C 	0.20550 0.48320 0.53320 0.09000
N 	N 	0.18280 0.52850 0.49780 -0.13200
N 	N 	0.41980 0.72650 0.69990 -0.27200
C 	C 	0.43370 0.67030 0.73500 0.06100
H 	H 	0.42170 0.67160 0.76080 0.00000
C 	C 	0.46440 0.61120 0.73520 -0.10500
H 	H 	0.47320 0.57380 0.76080 0.07200
C 	C 	0.48210 0.60680 0.69840 0.03200
C 	C 	0.46530 0.66500 0.66270 -0.11100
H 	H 	0.47490 0.66170 0.63540 0.08100
C 	C 	0.43600 0.72500 0.66470 0.07800
H 	H 	0.42780 0.76620 0.64040 -0.01600
N 	N 	0.56070 0.17500 0.79240 -0.28300
C 	C 	0.53470 0.23950 0.79980 0.07900
H 	H 	0.52030 0.22900 0.82300 -0.01200
C 	C 	0.52830 0.31600 0.77670 -0.13900
H 	H 	0.51070 0.35990 0.78390 0.08100
C 	C 	0.54780 0.32860 0.74240 0.06700
C 	C 	0.57240 0.26310 0.73220 -0.15200
H 	H 	0.58530 0.26970 0.70740 0.08800
C 	C 	0.57770 0.18990 0.75830 0.10000
H 	H 	0.59530 0.14540 0.75150 -0.03100
N 	N 	0.63980 0.54580 0.56980 -0.27800
C 	C 	0.60740 0.59540 0.56820 0.07600
H 	H 	0.60190 0.64100 0.54570 -0.01800
C 	C 	0.58220 0.58510 0.59610 -0.11400
H 	H 	0.55990 0.62280 0.59370 0.08200
C 	C 	0.58970 0.51470 0.63050 0.05300
C 	C 	0.62080 0.46220 0.63190 -0.10100
H 	H 	0.62530 0.41280 0.65220 0.07300
C 	C 	0.64840 0.48190 0.60120 0.05000
H 	H 	0.67210 0.44890 0.60400 -0.00700
C 	C 	0.51320 0.54650 0.69580 0.10500
N 	N 	0.51830 0.47750 0.72260 -0.15200
C 	C 	0.54520 0.41280 0.71640 0.08400
N 	N 	0.56700 0.42730 0.68750 -0.14300
C 	C 	0.56260 0.50120 0.66360 0.10400
N 	N 	0.53380 0.56170 0.66540 -0.14100
Zn	Zn	0.68040 0.84400 0.02760 0.61200
I 	I 	0.63540 0.87140 0.94300 -0.11800
I 	I 	0.74080 0.92500 0.05540 -0.28700
I 	I 	0.87960 0.97530 0.16440 0.00800
I 	I 	0.84890 0.14200 0.27010 -0.21800
I 	I 	0.13570 0.03190 0.45210 -0.05200
I 	I 	0.11340 0.94720 0.30420 -0.12800
I 	I 	0.02740 0.85000 0.38220 -0.09500
I 	I 	0.24150 0.98370 0.56180 -0.27100
Zn	Zn	0.37038 0.60469 0.19614 1.16200
Zn	Zn	0.58005 0.33147 0.34187 1.16100
Zn	Zn	0.67373 0.56432 0.52292 1.15700
Zn	Zn	0.87111 0.30550 0.69797 1.16700
Zn	Zn	0.07816 0.57343 0.83954 1.16500
I 	I 	0.88480 0.45102 0.66370 -0.39100
I 	I 	0.84771 0.28309 0.77098 -0.38500
I 	I 	0.11467 0.46113 0.80072 -0.38000
I 	I 	0.02465 0.54686 0.88395 -0.35300
Zn	Zn	0.17100 0.34110 0.01860 0.61100
I 	I 	0.12689 0.36520 0.94213 -0.23100
I 	I 	0.23250 0.43090 0.04720 -0.07600
I 	I 	0.38921 0.46276 0.15921 -0.38000
I 	I 	0.34717 0.61270 0.27010 -0.14000
I 	I 	0.52614 0.35740 0.38627 -0.21900
I 	I 	0.61680 0.44360 0.30240 -0.19300
I 	I 	0.62846 0.54750 0.44220 -0.34400
I 	I 	0.73320 0.47260 0.54820 -0.04700
N 	N 	0.18260 0.20560 0.02320 -0.27400
C 	C 	0.21430 0.17020 0.05360 0.01800
H 	H 	0.23200 0.20970 0.07240 -0.00400
C 	C 	0.22070 0.07840 0.05730 -0.06500
H 	H 	0.24150 0.05580 0.08000 0.04700
C 	C 	0.19680 0.01850 0.02790 -0.02800
C 	C 	0.16440 0.05840 0.99750 -0.08400
H 	H 	0.14630 0.02150 0.97780 0.05600
C 	C 	0.15950 0.14940 0.99670 0.05600
H 	H 	0.13800 0.17360 0.97560 -0.01300
N 	N 	0.32860 0.66910 0.14820 -0.26500
C 	C 	0.32080 0.75860 0.15310 0.05500
H 	H 	0.33530 0.79020 0.17840 0.01000
C 	C 	0.29300 0.80340 0.12310 -0.10300
H 	H 	0.28980 0.86630 0.12600 0.08500
C 	C 	0.26880 0.75580 0.08760 0.03300
C 	C 	0.27750 0.66360 0.08380 -0.10900
H 	H 	0.26260 0.62920 0.05980 0.08400
C 	C 	0.30720 0.62300 0.11400 0.05800
H 	H 	0.31260 0.56130 0.11050 -0.00100
N 	N 	0.11880 0.64670 0.88510 -0.27700
C 	C 	0.11270 0.72880 0.89310 0.10600
H 	H 	0.09230 0.75960 0.87310 -0.01300
C 	C 	0.13450 0.77600 0.93010 -0.14900
H 	H 	0.12680 0.83500 0.93650 0.10800
C 	C 	0.16490 0.74000 0.95540 0.08300
C 	C 	0.17240 0.65230 0.94790 -0.13200
H 	H 	0.19260 0.62170 0.96820 0.07500
C 	C 	0.15060 0.60690 0.91050 0.06300
H 	H 	0.15820 0.54850 0.90290 -0.01000
C 	C 	0.20180 0.92060 0.02730 0.16800
N 	N 	0.23230 0.88880 0.06050 -0.14000
C 	C 	0.23830 0.80080 0.05530 0.08900
N 	N 	0.21800 0.75020 0.02200 -0.14300
C 	C 	0.18880 0.79140 0.99350 0.09500
N 	N 	0.17910 0.87680 0.99830 -0.14400
N 	N 	0.41770 0.69010 0.19950 -0.27500
C 	C 	0.43500 0.73470 0.23590 0.09700
H 	H 	0.42550 0.72710 0.26320 -0.01000
C 	C 	0.46550 0.79090 0.23620 -0.14200
H 	H 	0.47570 0.82610 0.26220 0.09200
C 	C 	0.48140 0.79580 0.19770 0.07100
C 	C 	0.46710 0.74840 0.15990 -0.12900
H 	H 	0.47880 0.74960 0.13390 0.08800
C 	C 	0.43370 0.69710 0.16200 0.06900
H 	H 	0.42150 0.66540 0.13550 -0.01400
N 	N 	0.56200 0.22900 0.29600 -0.26000
C 	C 	0.58580 0.21050 0.26520 0.02300
H 	H 	0.60590 0.25200 0.26240 -0.00300
C 	C 	0.58160 0.13410 0.23840 -0.06900
H 	H 	0.59800 0.12390 0.21720 0.05200
C 	C 	0.55180 0.07070 0.24360 -0.02300
C 	C 	0.52660 0.09370 0.27320 -0.07800
H 	H 	0.50530 0.05560 0.27560 0.04400
C 	C 	0.53300 0.17280 0.29920 0.04400
H 	H 	0.51610 0.18640 0.31960 -0.00400
N 	N 	0.63760 0.85690 0.06870 -0.29500
C 	C 	0.64650 0.91520 0.10180 0.10500
H 	H 	0.67030 0.94760 0.10420 -0.02500
C 	C 	0.62480 0.93220 0.13210 -0.14200
H 	H 	0.63330 0.97440 0.15560 0.10100
C 	C 	0.58840 0.88670 0.12920 0.09100
C 	C 	0.58100 0.82400 0.09720 -0.15100
H 	H 	0.55810 0.78820 0.09440 0.09600
C 	C 	0.60640 0.81040 0.06780 0.11600
H 	H 	0.60040 0.76410 0.04580 -0.03000
C 	C 	0.51520 0.86240 0.19430 0.08700
N 	N 	0.51830 0.93180 0.22330 -0.14900
C 	C 	0.54690 0.98450 0.21660 0.14200
N 	N 	0.57100 0.97750 0.18680 -0.13100
C 	C 	0.56410 0.90220 0.16100 0.09400
N 	N 	0.53720 0.84140 0.16380 -0.13400
N 	N 	0.62120 0.26130 0.38780 -0.27600
C 	C 	0.64950 0.29910 0.41610 0.08200
H 	H 	0.65290 0.36200 0.41320 -0.02200
C 	C 	0.67510 0.25550 0.44970 -0.13100
H 	H 	0.69720 0.28610 0.46660 0.07400
C 	C 	0.66850 0.16570 0.45880 0.04800
C 	C 	0.63900 0.12420 0.42700 -0.11700
H 	H 	0.63480 0.06140 0.42900 0.07900
C 	C 	0.61680 0.17090 0.39440 0.06300
H 	H 	0.59660 0.14020 0.37430 -0.00400
N 	N 	0.83070 0.23910 0.64970 -0.27900
C 	C 	0.80950 0.27880 0.61310 0.08100
H 	H 	0.81440 0.34040 0.60840 -0.00400
C 	C 	0.78130 0.23750 0.58220 -0.14000
H 	H 	0.76700 0.26960 0.55690 0.09100
C 	C 	0.77380 0.14990 0.58820 0.05800
C 	C 	0.79540 0.10840 0.62530 -0.13900
H 	H 	0.79060 0.04700 0.63080 0.07800
C 	C 	0.82340 0.15330 0.65410 0.08900
H 	H 	0.83860 0.12160 0.67890 -0.01600
N 	N 	0.68560 0.70150 0.52940 -0.28000
C 	C 	0.66110 0.75550 0.50210 0.06400
H 	H 	0.63930 0.73180 0.48120 -0.01300
C 	C 	0.66810 0.84840 0.50480 -0.12300
H 	H 	0.65090 0.88720 0.48500 0.09200
C 	C 	0.69710 0.88290 0.53320 0.06500
C 	C 	0.72270 0.82650 0.56060 -0.13800
H 	H 	0.74470 0.84880 0.58150 0.09000
C 	C 	0.71470 0.73450 0.55630 0.10300
H 	H 	0.73230 0.69450 0.57470 -0.02200
C 	C 	0.69200 0.11490 0.49510 0.09600
N 	N 	0.72140 0.15610 0.52230 -0.14700
C 	C 	0.74120 0.10530 0.55570 0.07600
N 	N 	0.73470 0.01850 0.56250 -0.17700
C 	C 	0.70550 0.98320 0.53320 0.16300
N 	N 	0.68280 0.02850 0.49780 -0.16800
N 	N 	0.91980 0.22650 0.69990 -0.27400
C 	C 	0.93370 0.17030 0.73500 0.06100
H 	H 	0.92170 0.17160 0.76080 -0.00500
C 	C 	0.96440 0.11120 0.73520 -0.11800
H 	H 	0.97320 0.07380 0.76080 0.06500
C 	C 	0.98210 0.10680 0.69840 0.04300
C 	C 	0.96530 0.16500 0.66270 -0.12200
H 	H 	0.97490 0.16170 0.63540 0.08000
C 	C 	0.93600 0.22500 0.66470 0.08000
H 	H 	0.92780 0.26620 0.64040 -0.01900
N 	N 	0.06070 0.67500 0.79240 -0.27900
C 	C 	0.03470 0.73950 0.79980 0.08100
H 	H 	0.02030 0.72900 0.82300 -0.01000
C 	C 	0.02830 0.81600 0.77670 -0.14100
H 	H 	0.01070 0.85990 0.78390 0.08800
C 	C 	0.04780 0.82860 0.74240 0.07100
C 	C 	0.07240 0.76310 0.73220 -0.15100
H 	H 	0.08530 0.76970 0.70740 0.09300
C 	C 	0.07770 0.68990 0.75830 0.10100
H 	H 	0.09530 0.64540 0.75150 -0.02000
N 	N 	0.13980 0.04580 0.56980 -0.30000
C 	C 	0.10740 0.09540 0.56820 0.05900
H 	H 	0.10190 0.14100 0.54570 -0.01700
C 	C 	0.08220 0.08510 0.59610 -0.09900
H 	H 	0.05990 0.12280 0.59370 0.07300
C 	C 	0.08970 0.01470 0.63050 -0.00200
C 	C 	0.12080 0.96220 0.63190 -0.03900
H 	H 	0.12530 0.91280 0.65220 0.06200
C 	C 	0.14840 0.98190 0.60120 0.08000
H 	H 	0.17210 0.94890 0.60400 -0.00800
C 	C 	0.01320 0.04650 0.69580 0.05900
N 	N 	0.01830 0.97750 0.72260 -0.12000
C 	C 	0.04520 0.91280 0.71640 0.08700
N 	N 	0.06700 0.92730 0.68750 -0.11800
C 	C 	0.06260 0.00120 0.66360 0.07400
N 	N 	0.03380 0.06170 0.66540 -0.13300
Zn	Zn	0.18040 0.34400 0.02760 0.61300
I 	I 	0.13540 0.37140 0.94300 -0.12900
I 	I 	0.24080 0.42500 0.05540 -0.30200
I 	I 	0.37960 0.47530 0.16440 -0.00500
I 	I 	0.34890 0.64200 0.27010 -0.19400
I 	I 	0.63570 0.53190 0.45210 -0.04200
I 	I 	0.61340 0.44720 0.30420 -0.14700
I 	I 	0.52740 0.35000 0.38220 -0.11300
I 	I 	0.74150 0.48370 0.56180 -0.29100
