data_crystal

_cell_length_a 34.70760
_cell_length_b 15.01360
_cell_length_c 29.94750
_cell_angle_alpha 90.00000
_cell_angle_beta  100.78300
_cell_angle_gamma 90.00000

_symmetry_space_group_name_	'P 1'
_symmetry_space_group_name_H-M	'P 1'

loop_
_symmetry_equiv_pos_as_xyz
  x,y,z

loop_
_atom_site_label
_atom_site_type_symbol
_atom_site_fract_x
_atom_site_fract_y
_atom_site_fract_z
_atom_site_charge
Zn	Zn	0.63196 0.40599 0.54837 0.57100
I 	I 	0.61987 0.26016 0.57576 -3.78400
I 	I 	0.66107 0.43660 0.47095 -0.05200
Zn	Zn	0.42080 0.12734 0.40668 -1.18300
I 	I 	0.38406 0.23940 0.44604 -18.10800
I 	I 	0.47529 0.15633 0.36301 -20.71900
Zn	Zn	0.33040 0.36200 0.23390 1634.32600
I 	I 	0.37629 0.34680 0.30833 944.86800
I 	I 	0.26977 0.26672 0.20845 -20.48000
N 	N 	0.58348 0.48690 0.54715 -1.67800
C 	C 	0.56917 0.49690 0.58460 -7.94100
H 	H 	0.58130 0.46530 0.61100 -14.52900
C 	C 	0.53780 0.55030 0.58760 -7.91500
H 	H 	0.52800 0.55440 0.61510 -14.72100
C 	C 	0.52066 0.59840 0.54949 -3.25800
C 	C 	0.53573 0.59060 0.51090 -0.41700
H 	H 	0.52480 0.62370 0.48450 -0.39200
C 	C 	0.56729 0.53360 0.51029 -2.43300
H 	H 	0.57760 0.52780 0.48320 0.25400
N 	N 	0.43937 0.02590 0.45311 -0.12500
C 	C 	0.41881 0.01020 0.48572 -0.24000
H 	H 	0.39980 0.05260 0.49080 0.44900
C 	C 	0.42409 0.93460 0.51231 0.15400
H 	H 	0.40900 0.92550 0.53540 0.27200
C 	C 	0.45160 0.87200 0.50504 -0.01500
C 	C 	0.47408 0.89020 0.47267 0.05300
H 	H 	0.49390 0.84990 0.46770 -0.41900
C 	C 	0.46733 0.96770 0.44760 -0.33300
H 	H 	0.48310 0.98020 0.42560 0.28100
N 	N 	0.36182 0.65320 0.67845 10.49000
C 	C 	0.35250 0.71410 0.64570 -6.41900
H 	H 	0.32850 0.74600 0.64330 0.99100
C 	C 	0.37680 0.73180 0.61510 5.67100
H 	H 	0.36990 0.77620 0.59250 -1.33300
C 	C 	0.41128 0.68440 0.61790 -4.04000
C 	C 	0.41962 0.62040 0.65080 2.70300
H 	H 	0.44300 0.58620 0.65360 -6.17300
C 	C 	0.39390 0.60610 0.67970 -5.67400
H 	H 	0.39960 0.56000 0.70170 -7.47300
C 	C 	0.48794 0.65980 0.55249 -2.60500
N 	N 	0.48406 0.73130 0.52489 -0.52700
C 	C 	0.45594 0.78750 0.53151 -0.20300
N 	N 	0.43151 0.77560 0.56050 -0.01700
C 	C 	0.43755 0.70070 0.58491 0.01500
N 	N 	0.46578 0.64150 0.58306 -2.04100
N 	N 	0.37952 0.05510 0.36122 0.62300
C 	C 	0.35157 0.09590 0.33205 -4.33600
H 	H 	0.34780 0.15800 0.33550 20.12100
C 	C 	0.32770 0.05160 0.29686 8.61700
H 	H 	0.30820 0.08300 0.27640 10.75000
C 	C 	0.33261 0.96160 0.29187 -1.91700
C 	C 	0.36098 0.91910 0.32290 2.12700
H 	H 	0.36480 0.85660 0.32100 -1.11300
C 	C 	0.38356 0.96830 0.35660 -0.35300
H 	H 	0.40310 0.93840 0.37770 -0.02800
N 	N 	0.31544 0.49870 0.22227 -13.64000
C 	C 	0.28726 0.53300 0.19190 1.55000
H 	H 	0.27140 0.49390 0.17130 -10.54600
C 	C 	0.27941 0.62470 0.18830 -2.42500
H 	H 	0.25860 0.64700 0.16590 4.40800
C 	C 	0.30236 0.68100 0.21757 5.63100
C 	C 	0.33238 0.64440 0.24900 -7.54000
H 	H 	0.34900 0.68140 0.27000 0.30700
C 	C 	0.33800 0.55340 0.24960 7.02800
H 	H 	0.35920 0.52920 0.27080 -27.41100
N 	N 	0.17236 0.03230 0.09780 -3.15100
C 	C 	0.19427 0.07650 0.13210 -2.10600
H 	H 	0.18970 0.13840 0.13520 0.68400
C 	C 	0.22315 0.03620 0.16300 -4.02400
H 	H 	0.23830 0.07000 0.18680 4.19900
C 	C 	0.22996 0.94660 0.15933 4.33300
C 	C 	0.20697 0.89960 0.12425 -2.53100
H 	H 	0.21040 0.83730 0.12110 4.91900
C 	C 	0.17910 0.94540 0.09417 -6.74400
H 	H 	0.16390 0.91350 0.06960 -2.78100
C 	C 	0.30910 0.90940 0.25390 1.59800
N 	N 	0.31850 0.82420 0.25106 -0.00300
C 	C 	0.29561 0.77910 0.21778 1.32600
N 	N 	0.26686 0.81440 0.18657 4.88800
C 	C 	0.26099 0.90100 0.19240 2.90600
N 	N 	0.28047 0.95183 0.22610 0.28200
I 	I 	0.61026 0.25610 0.58850 0.93300
I 	I 	0.64979 0.42080 0.47920 -1.91700
Zn	Zn	0.32600 0.36480 0.22260 -1847.55700
I 	I 	0.36680 0.33730 0.30220 69.25400
I 	I 	0.26310 0.28000 0.19410 9.10200
Zn	Zn	0.31320 0.36340 0.20610 627.83700
I 	I 	0.35280 0.32190 0.28510 -1271.31100
I 	I 	0.25020 0.28590 0.17210 -27.88100
Zn	Zn	0.13196 0.90599 0.54837 0.57400
I 	I 	0.11987 0.76016 0.57576 -3.75600
I 	I 	0.16107 0.93660 0.47095 -0.05400
Zn	Zn	0.92080 0.62734 0.40668 -1.17900
I 	I 	0.88406 0.73940 0.44604 -18.05800
I 	I 	0.97529 0.65633 0.36301 -20.67400
Zn	Zn	0.83040 0.86200 0.23390 1629.38700
I 	I 	0.87629 0.84680 0.30833 942.00400
I 	I 	0.76977 0.76672 0.20845 -20.41700
N 	N 	0.08348 0.98690 0.54715 -1.67800
C 	C 	0.06917 0.99690 0.58460 -7.82900
H 	H 	0.08130 0.96530 0.61100 -14.49200
C 	C 	0.03780 0.05030 0.58760 -7.96800
H 	H 	0.02800 0.05440 0.61510 -14.65400
C 	C 	0.02066 0.09840 0.54949 -3.21600
C 	C 	0.03573 0.09060 0.51090 -0.43000
H 	H 	0.02480 0.12370 0.48450 -0.37700
C 	C 	0.06729 0.03360 0.51029 -2.42700
H 	H 	0.07760 0.02780 0.48320 0.26600
N 	N 	0.93937 0.52590 0.45311 -0.13900
C 	C 	0.91881 0.51020 0.48572 -0.24400
H 	H 	0.89980 0.55260 0.49080 0.44900
C 	C 	0.92409 0.43460 0.51231 0.15600
H 	H 	0.90900 0.42550 0.53540 0.26400
C 	C 	0.95160 0.37200 0.50504 -0.01300
C 	C 	0.97408 0.39020 0.47267 0.04600
H 	H 	0.99390 0.34990 0.46770 -0.40800
C 	C 	0.96733 0.46770 0.44760 -0.31300
H 	H 	0.98310 0.48020 0.42560 0.28800
N 	N 	0.86182 0.15320 0.67845 10.41700
C 	C 	0.85250 0.21410 0.64570 -6.38200
H 	H 	0.82850 0.24600 0.64330 0.98100
C 	C 	0.87680 0.23180 0.61510 5.63400
H 	H 	0.86990 0.27620 0.59250 -1.32800
C 	C 	0.91128 0.18440 0.61790 -4.01900
C 	C 	0.91962 0.12040 0.65080 2.68300
H 	H 	0.94300 0.08620 0.65360 -6.14600
C 	C 	0.89390 0.10610 0.67970 -5.64200
H 	H 	0.89960 0.06000 0.70170 -7.43800
C 	C 	0.98794 0.15980 0.55249 -2.60200
N 	N 	0.98406 0.23130 0.52489 -0.52200
C 	C 	0.95594 0.28750 0.53151 -0.20200
N 	N 	0.93151 0.27560 0.56050 -0.01800
C 	C 	0.93755 0.20070 0.58491 0.01200
N 	N 	0.96578 0.14150 0.58306 -2.03200
N 	N 	0.87952 0.55510 0.36122 0.56600
C 	C 	0.85157 0.59590 0.33205 -4.26100
H 	H 	0.84780 0.65800 0.33550 20.03700
C 	C 	0.82770 0.55160 0.29686 8.42600
H 	H 	0.80820 0.58300 0.27640 10.75100
C 	C 	0.83261 0.46160 0.29187 -1.77400
C 	C 	0.86098 0.41910 0.32290 2.02800
H 	H 	0.86480 0.35660 0.32100 -1.07100
C 	C 	0.88356 0.46830 0.35660 -0.24500
H 	H 	0.90310 0.43840 0.37770 -0.05400
N 	N 	0.81544 0.99870 0.22227 -13.75300
C 	C 	0.78726 0.03300 0.19190 1.90200
H 	H 	0.77140 0.99390 0.17130 -10.68100
C 	C 	0.77941 0.12470 0.18830 -2.60400
H 	H 	0.75860 0.14700 0.16590 4.51100
C 	C 	0.80236 0.18100 0.21757 5.76600
C 	C 	0.83238 0.14440 0.24900 -7.64400
H 	H 	0.84900 0.18140 0.27000 0.36100
C 	C 	0.83800 0.05340 0.24960 7.18300
H 	H 	0.85920 0.02920 0.27080 -27.34800
N 	N 	0.67236 0.53230 0.09780 -3.26500
C 	C 	0.69427 0.57650 0.13210 -2.04600
H 	H 	0.68970 0.63840 0.13520 0.64300
C 	C 	0.72315 0.53620 0.16300 -4.26700
H 	H 	0.73830 0.57000 0.18680 4.24400
C 	C 	0.72996 0.44660 0.15933 4.54200
C 	C 	0.70697 0.39960 0.12425 -2.67700
H 	H 	0.71040 0.33730 0.12110 5.00200
C 	C 	0.67910 0.44540 0.09417 -6.62300
H 	H 	0.66390 0.41350 0.06960 -2.83700
C 	C 	0.80910 0.40940 0.25390 1.56600
N 	N 	0.81850 0.32420 0.25106 0.01600
C 	C 	0.79561 0.27910 0.21778 1.31400
N 	N 	0.76686 0.31440 0.18657 4.93800
C 	C 	0.76099 0.40100 0.19240 2.88200
N 	N 	0.78047 0.45183 0.22610 0.30900
I 	I 	0.11026 0.75610 0.58850 0.92500
I 	I 	0.14979 0.92080 0.47920 -1.89600
Zn	Zn	0.82600 0.86480 0.22260 -1841.97400
I 	I 	0.86680 0.83730 0.30220 69.03400
I 	I 	0.76310 0.78000 0.19410 9.05900
Zn	Zn	0.81320 0.86340 0.20610 625.94100
I 	I 	0.85280 0.82190 0.28510 -1267.47000
I 	I 	0.75020 0.78590 0.17210 -27.80700
Zn	Zn	0.63196 0.59401 0.04837 0.56500
I 	I 	0.61987 0.73984 0.07576 -3.78400
I 	I 	0.66107 0.56340 0.97095 -0.05100
Zn	Zn	0.42080 0.87266 0.90668 -1.18100
I 	I 	0.38406 0.76060 0.94604 -18.10400
I 	I 	0.47529 0.84367 0.86301 -20.70700
Zn	Zn	0.33040 0.63800 0.73390 1634.74400
I 	I 	0.37629 0.65320 0.80833 945.11000
I 	I 	0.26977 0.73328 0.70845 -20.48400
N 	N 	0.58348 0.51310 0.04715 -1.67600
C 	C 	0.56917 0.50310 0.08460 -7.95400
H 	H 	0.58130 0.53470 0.11100 -14.53000
C 	C 	0.53780 0.44970 0.08760 -7.90400
H 	H 	0.52800 0.44560 0.11510 -14.73000
C 	C 	0.52066 0.40160 0.04949 -3.28100
C 	C 	0.53573 0.40940 0.01090 -0.37100
H 	H 	0.52480 0.37630 0.98450 -0.43000
C 	C 	0.56729 0.46640 0.01029 -2.45800
H 	H 	0.57760 0.47220 0.98320 0.25200
N 	N 	0.43937 0.97410 0.95311 -0.09600
C 	C 	0.41881 0.98980 0.98572 -0.18600
H 	H 	0.39980 0.94740 0.99080 0.44300
C 	C 	0.42409 0.06540 0.01231 0.11500
H 	H 	0.40900 0.07450 0.03540 0.29300
C 	C 	0.45160 0.12800 0.00504 0.08400
C 	C 	0.47408 0.10980 0.97267 -0.05200
H 	H 	0.49390 0.15010 0.96770 -0.40800
C 	C 	0.46733 0.03230 0.94760 -0.37500
H 	H 	0.48310 0.01980 0.92560 0.27100
N 	N 	0.36182 0.34680 0.17845 10.48700
C 	C 	0.35250 0.28590 0.14570 -6.41700
H 	H 	0.32850 0.25400 0.14330 0.99300
C 	C 	0.37680 0.26820 0.11510 5.67000
H 	H 	0.36990 0.22380 0.09250 -1.32900
C 	C 	0.41128 0.31560 0.11790 -4.03900
C 	C 	0.41962 0.37960 0.15080 2.70200
H 	H 	0.44300 0.41380 0.15360 -6.17400
C 	C 	0.39390 0.39390 0.17970 -5.67400
H 	H 	0.39960 0.44000 0.20170 -7.47200
C 	C 	0.48794 0.34020 0.05249 -2.59800
N 	N 	0.48406 0.26870 0.02489 -0.51800
C 	C 	0.45594 0.21250 0.03151 -0.22300
N 	N 	0.43151 0.22440 0.06050 -0.01100
C 	C 	0.43755 0.29930 0.08491 0.01600
N 	N 	0.46578 0.35850 0.08306 -2.04300
N 	N 	0.37952 0.94490 0.86122 0.65600
C 	C 	0.35157 0.90410 0.83205 -4.35700
H 	H 	0.34780 0.84200 0.83550 20.13400
C 	C 	0.32770 0.94840 0.79686 8.67000
H 	H 	0.30820 0.91700 0.77640 10.73600
C 	C 	0.33261 0.03840 0.79187 -1.96500
C 	C 	0.36098 0.08090 0.82290 2.17000
H 	H 	0.36480 0.14340 0.82100 -1.12700
C 	C 	0.38356 0.03170 0.85660 -0.42200
H 	H 	0.40310 0.06160 0.87770 -0.02000
N 	N 	0.31544 0.50130 0.72227 -13.64400
C 	C 	0.28726 0.46700 0.69190 1.55500
H 	H 	0.27140 0.50610 0.67130 -10.54800
C 	C 	0.27941 0.37530 0.68830 -2.42500
H 	H 	0.25860 0.35300 0.66590 4.42200
C 	C 	0.30236 0.31900 0.71757 5.64400
C 	C 	0.33238 0.35560 0.74900 -7.54400
H 	H 	0.34900 0.31860 0.77000 0.31000
C 	C 	0.33800 0.44660 0.74960 7.03300
H 	H 	0.35920 0.47080 0.77080 -27.41900
N 	N 	0.17236 0.96770 0.59780 -3.20900
C 	C 	0.19427 0.92350 0.63210 -2.08400
H 	H 	0.18970 0.86160 0.63520 0.66900
C 	C 	0.22315 0.96380 0.66300 -4.11600
H 	H 	0.23830 0.93000 0.68680 4.22500
C 	C 	0.22996 0.05340 0.65933 4.41800
C 	C 	0.20697 0.10040 0.62425 -2.59500
H 	H 	0.21040 0.16270 0.62110 4.95900
C 	C 	0.17910 0.05460 0.59417 -6.67800
H 	H 	0.16390 0.08650 0.56960 -2.80200
C 	C 	0.30910 0.09060 0.75390 1.61200
N 	N 	0.31850 0.17580 0.75106 -0.00300
C 	C 	0.29561 0.22090 0.71778 1.33500
N 	N 	0.26686 0.18560 0.68657 4.90900
C 	C 	0.26099 0.09900 0.69240 2.89900
N 	N 	0.28047 0.04817 0.72610 0.28200
I 	I 	0.61026 0.74390 0.08850 0.89700
I 	I 	0.64979 0.57920 0.97920 -1.93100
Zn	Zn	0.32600 0.63520 0.72260 -1848.03100
I 	I 	0.36680 0.66270 0.80220 69.27200
I 	I 	0.26310 0.72000 0.69410 9.10200
Zn	Zn	0.31320 0.63660 0.70610 627.99800
I 	I 	0.35280 0.67810 0.78510 -1271.63900
I 	I 	0.25020 0.71410 0.67210 -27.89100
Zn	Zn	0.13196 0.09401 0.04837 0.59000
I 	I 	0.11987 0.23984 0.07576 -3.74500
I 	I 	0.16107 0.06340 0.97095 -0.11300
Zn	Zn	0.92080 0.37266 0.90668 -1.17100
I 	I 	0.88406 0.26060 0.94604 -18.03500
I 	I 	0.97529 0.34367 0.86301 -20.61500
Zn	Zn	0.83040 0.13800 0.73390 1624.20700
I 	I 	0.87629 0.15320 0.80833 938.98000
I 	I 	0.76977 0.23328 0.70845 -20.37200
N 	N 	0.08348 0.01310 0.04715 -1.62100
C 	C 	0.06917 0.00310 0.08460 -7.68600
H 	H 	0.08130 0.03470 0.11100 -14.47500
C 	C 	0.03780 0.94970 0.08760 -8.06300
H 	H 	0.02800 0.94560 0.11510 -14.57900
C 	C 	0.02066 0.90160 0.04949 -3.15200
C 	C 	0.03573 0.90940 0.01090 -0.51400
H 	H 	0.02480 0.87630 0.98450 -0.29700
C 	C 	0.06729 0.96640 0.01029 -2.60400
H 	H 	0.07760 0.97220 0.98320 0.38900
N 	N 	0.93937 0.47410 0.95311 -0.13600
C 	C 	0.91881 0.48980 0.98572 -0.24800
H 	H 	0.89980 0.44740 0.99080 0.44100
C 	C 	0.92409 0.56540 0.01231 0.16500
H 	H 	0.90900 0.57450 0.03540 0.26000
C 	C 	0.95160 0.62800 0.00504 -0.05600
C 	C 	0.97408 0.60980 0.97267 0.08600
H 	H 	0.99390 0.65010 0.96770 -0.41300
C 	C 	0.96733 0.53230 0.94760 -0.33100
H 	H 	0.98310 0.51980 0.92560 0.29300
N 	N 	0.86182 0.84680 0.17845 10.45000
C 	C 	0.85250 0.78590 0.14570 -6.40100
H 	H 	0.82850 0.75400 0.14330 0.98200
C 	C 	0.87680 0.76820 0.11510 5.64900
H 	H 	0.86990 0.72380 0.09250 -1.33500
C 	C 	0.91128 0.81560 0.11790 -4.02700
C 	C 	0.91962 0.87960 0.15080 2.68800
H 	H 	0.94300 0.91380 0.15360 -6.14900
C 	C 	0.89390 0.89390 0.17970 -5.65500
H 	H 	0.89960 0.94000 0.20170 -7.45900
C 	C 	0.98794 0.84020 0.05249 -2.62600
N 	N 	0.98406 0.76870 0.02489 -0.53200
C 	C 	0.95594 0.71250 0.03151 -0.20200
N 	N 	0.93151 0.72440 0.06050 -0.02100
C 	C 	0.93755 0.79930 0.08491 0.01200
N 	N 	0.96578 0.85850 0.08306 -2.02900
N 	N 	0.87952 0.44490 0.86122 0.56300
C 	C 	0.85157 0.40410 0.83205 -4.24900
H 	H 	0.84780 0.34200 0.83550 19.97300
C 	C 	0.82770 0.44840 0.79686 8.39800
H 	H 	0.80820 0.41700 0.77640 10.71600
C 	C 	0.83261 0.53840 0.79187 -1.77000
C 	C 	0.86098 0.58090 0.82290 2.02200
H 	H 	0.86480 0.64340 0.82100 -1.06700
C 	C 	0.88356 0.53170 0.85660 -0.24500
H 	H 	0.90310 0.56160 0.87770 -0.05300
N 	N 	0.81544 0.00130 0.72227 -13.68200
C 	C 	0.78726 0.96700 0.69190 1.81400
H 	H 	0.77140 0.00610 0.67130 -10.60000
C 	C 	0.77941 0.87530 0.68830 -2.55100
H 	H 	0.75860 0.85300 0.66590 4.48600
C 	C 	0.80236 0.81900 0.71757 5.72900
C 	C 	0.83238 0.85560 0.74900 -7.59700
H 	H 	0.84900 0.81860 0.77000 0.35300
C 	C 	0.83800 0.94660 0.74960 7.13400
H 	H 	0.85920 0.97080 0.77080 -27.25200
N 	N 	0.67236 0.46770 0.59780 -3.26200
C 	C 	0.69427 0.42350 0.63210 -2.04700
H 	H 	0.68970 0.36160 0.63520 0.64100
C 	C 	0.72315 0.46380 0.66300 -4.26300
H 	H 	0.73830 0.43000 0.68680 4.23200
C 	C 	0.72996 0.55340 0.65933 4.53700
C 	C 	0.70697 0.60040 0.62425 -2.67400
H 	H 	0.71040 0.66270 0.62110 4.99900
C 	C 	0.67910 0.55460 0.59417 -6.62100
H 	H 	0.66390 0.58650 0.56960 -2.83400
C 	C 	0.80910 0.59060 0.75390 1.56000
N 	N 	0.81850 0.67580 0.75106 0.01500
C 	C 	0.79561 0.72090 0.71778 1.32300
N 	N 	0.76686 0.68560 0.68657 4.93400
C 	C 	0.76099 0.59900 0.69240 2.88100
N 	N 	0.78047 0.54817 0.72610 0.30600
I 	I 	0.11026 0.24390 0.08850 0.94000
I 	I 	0.14979 0.07920 0.97920 -1.93400
Zn	Zn	0.82600 0.13520 0.72260 -1836.11800
I 	I 	0.86680 0.16270 0.80220 68.80000
I 	I 	0.76310 0.22000 0.69410 9.03000
Zn	Zn	0.81320 0.13660 0.70610 623.95500
I 	I 	0.85280 0.17810 0.78510 -1263.40900
I 	I 	0.75020 0.21410 0.67210 -27.69300
Zn	Zn	0.36804 0.40599 0.95163 0.56500
I 	I 	0.38013 0.26016 0.92424 -3.78400
I 	I 	0.33893 0.43660 0.02905 -0.05100
Zn	Zn	0.57920 0.12734 0.09332 -1.18100
I 	I 	0.61594 0.23940 0.05396 -18.10400
I 	I 	0.52471 0.15633 0.13699 -20.70700
Zn	Zn	0.66960 0.36200 0.26610 1634.74400
I 	I 	0.62371 0.34680 0.19167 945.11000
I 	I 	0.73023 0.26672 0.29155 -20.48400
N 	N 	0.41652 0.48690 0.95285 -1.67600
C 	C 	0.43083 0.49690 0.91540 -7.95400
H 	H 	0.41870 0.46530 0.88900 -14.53000
C 	C 	0.46220 0.55030 0.91240 -7.90400
H 	H 	0.47200 0.55440 0.88490 -14.73000
C 	C 	0.47934 0.59840 0.95051 -3.28100
C 	C 	0.46427 0.59060 0.98910 -0.37100
H 	H 	0.47520 0.62370 0.01550 -0.43000
C 	C 	0.43271 0.53360 0.98971 -2.45800
H 	H 	0.42240 0.52780 0.01680 0.25200
N 	N 	0.56063 0.02590 0.04689 -0.09600
C 	C 	0.58119 0.01020 0.01428 -0.18600
H 	H 	0.60020 0.05260 0.00920 0.44300
C 	C 	0.57591 0.93460 0.98769 0.11500
H 	H 	0.59100 0.92550 0.96460 0.29300
C 	C 	0.54840 0.87200 0.99496 0.08400
C 	C 	0.52592 0.89020 0.02733 -0.05200
H 	H 	0.50610 0.84990 0.03230 -0.40800
C 	C 	0.53267 0.96770 0.05240 -0.37500
H 	H 	0.51690 0.98020 0.07440 0.27100
N 	N 	0.63818 0.65320 0.82155 10.48700
C 	C 	0.64750 0.71410 0.85430 -6.41700
H 	H 	0.67150 0.74600 0.85670 0.99300
C 	C 	0.62320 0.73180 0.88490 5.67000
H 	H 	0.63010 0.77620 0.90750 -1.32900
C 	C 	0.58872 0.68440 0.88210 -4.03900
C 	C 	0.58038 0.62040 0.84920 2.70200
H 	H 	0.55700 0.58620 0.84640 -6.17400
C 	C 	0.60610 0.60610 0.82030 -5.67400
H 	H 	0.60040 0.56000 0.79830 -7.47200
C 	C 	0.51206 0.65980 0.94751 -2.59800
N 	N 	0.51594 0.73130 0.97511 -0.51800
C 	C 	0.54406 0.78750 0.96849 -0.22300
N 	N 	0.56849 0.77560 0.93950 -0.01100
C 	C 	0.56245 0.70070 0.91509 0.01600
N 	N 	0.53422 0.64150 0.91694 -2.04300
N 	N 	0.62048 0.05510 0.13878 0.65600
C 	C 	0.64843 0.09590 0.16795 -4.35700
H 	H 	0.65220 0.15800 0.16450 20.13400
C 	C 	0.67230 0.05160 0.20314 8.67000
H 	H 	0.69180 0.08300 0.22360 10.73600
C 	C 	0.66739 0.96160 0.20813 -1.96500
C 	C 	0.63902 0.91910 0.17710 2.17000
H 	H 	0.63520 0.85660 0.17900 -1.12700
C 	C 	0.61644 0.96830 0.14340 -0.42200
H 	H 	0.59690 0.93840 0.12230 -0.02000
N 	N 	0.68456 0.49870 0.27773 -13.64400
C 	C 	0.71274 0.53300 0.30810 1.55500
H 	H 	0.72860 0.49390 0.32870 -10.54800
C 	C 	0.72059 0.62470 0.31170 -2.42500
H 	H 	0.74140 0.64700 0.33410 4.42200
C 	C 	0.69764 0.68100 0.28243 5.64400
C 	C 	0.66762 0.64440 0.25100 -7.54400
H 	H 	0.65100 0.68140 0.23000 0.31000
C 	C 	0.66200 0.55340 0.25040 7.03300
H 	H 	0.64080 0.52920 0.22920 -27.41900
N 	N 	0.82764 0.03230 0.40220 -3.20900
C 	C 	0.80573 0.07650 0.36790 -2.08400
H 	H 	0.81030 0.13840 0.36480 0.66900
C 	C 	0.77685 0.03620 0.33700 -4.11600
H 	H 	0.76170 0.07000 0.31320 4.22500
C 	C 	0.77004 0.94660 0.34067 4.41800
C 	C 	0.79303 0.89960 0.37575 -2.59500
H 	H 	0.78960 0.83730 0.37890 4.95900
C 	C 	0.82090 0.94540 0.40583 -6.67800
H 	H 	0.83610 0.91350 0.43040 -2.80200
C 	C 	0.69090 0.90940 0.24610 1.61200
N 	N 	0.68150 0.82420 0.24894 -0.00300
C 	C 	0.70439 0.77910 0.28222 1.33500
N 	N 	0.73314 0.81440 0.31343 4.90900
C 	C 	0.73901 0.90100 0.30760 2.89900
N 	N 	0.71953 0.95183 0.27390 0.28200
I 	I 	0.38974 0.25610 0.91150 0.89700
I 	I 	0.35021 0.42080 0.02080 -1.93100
Zn	Zn	0.67400 0.36480 0.27740 -1848.03100
I 	I 	0.63320 0.33730 0.19780 69.27200
I 	I 	0.73690 0.28000 0.30590 9.10200
Zn	Zn	0.68680 0.36340 0.29390 627.99800
I 	I 	0.64720 0.32190 0.21490 -1271.63900
I 	I 	0.74980 0.28590 0.32790 -27.89100
Zn	Zn	0.86804 0.90599 0.95163 0.59000
I 	I 	0.88013 0.76016 0.92424 -3.74500
I 	I 	0.83893 0.93660 0.02905 -0.11300
Zn	Zn	0.07920 0.62734 0.09332 -1.17100
I 	I 	0.11594 0.73940 0.05396 -18.03500
I 	I 	0.02471 0.65633 0.13699 -20.61500
Zn	Zn	0.16960 0.86200 0.26610 1624.20700
I 	I 	0.12371 0.84680 0.19167 938.98000
I 	I 	0.23023 0.76672 0.29155 -20.37200
N 	N 	0.91652 0.98690 0.95285 -1.62100
C 	C 	0.93083 0.99690 0.91540 -7.68600
H 	H 	0.91870 0.96530 0.88900 -14.47500
C 	C 	0.96220 0.05030 0.91240 -8.06300
H 	H 	0.97200 0.05440 0.88490 -14.57900
C 	C 	0.97934 0.09840 0.95051 -3.15200
C 	C 	0.96427 0.09060 0.98910 -0.51400
H 	H 	0.97520 0.12370 0.01550 -0.29700
C 	C 	0.93271 0.03360 0.98971 -2.60400
H 	H 	0.92240 0.02780 0.01680 0.38900
N 	N 	0.06063 0.52590 0.04689 -0.13600
C 	C 	0.08119 0.51020 0.01428 -0.24800
H 	H 	0.10020 0.55260 0.00920 0.44100
C 	C 	0.07591 0.43460 0.98769 0.16500
H 	H 	0.09100 0.42550 0.96460 0.26000
C 	C 	0.04840 0.37200 0.99496 -0.05600
C 	C 	0.02592 0.39020 0.02733 0.08600
H 	H 	0.00610 0.34990 0.03230 -0.41300
C 	C 	0.03267 0.46770 0.05240 -0.33100
H 	H 	0.01690 0.48020 0.07440 0.29300
N 	N 	0.13818 0.15320 0.82155 10.45000
C 	C 	0.14750 0.21410 0.85430 -6.40100
H 	H 	0.17150 0.24600 0.85670 0.98200
C 	C 	0.12320 0.23180 0.88490 5.64900
H 	H 	0.13010 0.27620 0.90750 -1.33500
C 	C 	0.08872 0.18440 0.88210 -4.02700
C 	C 	0.08038 0.12040 0.84920 2.68800
H 	H 	0.05700 0.08620 0.84640 -6.14900
C 	C 	0.10610 0.10610 0.82030 -5.65500
H 	H 	0.10040 0.06000 0.79830 -7.45900
C 	C 	0.01206 0.15980 0.94751 -2.62600
N 	N 	0.01594 0.23130 0.97511 -0.53200
C 	C 	0.04406 0.28750 0.96849 -0.20200
N 	N 	0.06849 0.27560 0.93950 -0.02100
C 	C 	0.06245 0.20070 0.91509 0.01200
N 	N 	0.03422 0.14150 0.91694 -2.02900
N 	N 	0.12048 0.55510 0.13878 0.56300
C 	C 	0.14843 0.59590 0.16795 -4.24900
H 	H 	0.15220 0.65800 0.16450 19.97300
C 	C 	0.17230 0.55160 0.20314 8.39800
H 	H 	0.19180 0.58300 0.22360 10.71600
C 	C 	0.16739 0.46160 0.20813 -1.77000
C 	C 	0.13902 0.41910 0.17710 2.02200
H 	H 	0.13520 0.35660 0.17900 -1.06700
C 	C 	0.11644 0.46830 0.14340 -0.24500
H 	H 	0.09690 0.43840 0.12230 -0.05300
N 	N 	0.18456 0.99870 0.27773 -13.68200
C 	C 	0.21274 0.03300 0.30810 1.81400
H 	H 	0.22860 0.99390 0.32870 -10.60000
C 	C 	0.22059 0.12470 0.31170 -2.55100
H 	H 	0.24140 0.14700 0.33410 4.48600
C 	C 	0.19764 0.18100 0.28243 5.72900
C 	C 	0.16762 0.14440 0.25100 -7.59700
H 	H 	0.15100 0.18140 0.23000 0.35300
C 	C 	0.16200 0.05340 0.25040 7.13400
H 	H 	0.14080 0.02920 0.22920 -27.25200
N 	N 	0.32764 0.53230 0.40220 -3.26200
C 	C 	0.30573 0.57650 0.36790 -2.04700
H 	H 	0.31030 0.63840 0.36480 0.64100
C 	C 	0.27685 0.53620 0.33700 -4.26300
H 	H 	0.26170 0.57000 0.31320 4.23200
C 	C 	0.27004 0.44660 0.34067 4.53700
C 	C 	0.29303 0.39960 0.37575 -2.67400
H 	H 	0.28960 0.33730 0.37890 4.99900
C 	C 	0.32090 0.44540 0.40583 -6.62100
H 	H 	0.33610 0.41350 0.43040 -2.83400
C 	C 	0.19090 0.40940 0.24610 1.56000
N 	N 	0.18150 0.32420 0.24894 0.01500
C 	C 	0.20439 0.27910 0.28222 1.32300
N 	N 	0.23314 0.31440 0.31343 4.93400
C 	C 	0.23901 0.40100 0.30760 2.88100
N 	N 	0.21953 0.45183 0.27390 0.30600
I 	I 	0.88974 0.75610 0.91150 0.94000
I 	I 	0.85021 0.92080 0.02080 -1.93400
Zn	Zn	0.17400 0.86480 0.27740 -1836.11800
I 	I 	0.13320 0.83730 0.19780 68.80000
I 	I 	0.23690 0.78000 0.30590 9.03000
Zn	Zn	0.18680 0.86340 0.29390 623.95500
I 	I 	0.14720 0.82190 0.21490 -1263.40900
I 	I 	0.24980 0.78590 0.32790 -27.69300
Zn	Zn	0.36804 0.59401 0.45163 0.57000
I 	I 	0.38013 0.73984 0.42424 -3.78500
I 	I 	0.33893 0.56340 0.52905 -0.05300
Zn	Zn	0.57920 0.87266 0.59332 -1.18400
I 	I 	0.61594 0.76060 0.55396 -18.10900
I 	I 	0.52471 0.84367 0.63699 -20.72000
Zn	Zn	0.66960 0.63800 0.76610 1634.32500
I 	I 	0.62371 0.65320 0.69167 944.86700
I 	I 	0.73023 0.73328 0.79155 -20.48000
N 	N 	0.41652 0.51310 0.45285 -1.67800
C 	C 	0.43083 0.50310 0.41540 -7.94100
H 	H 	0.41870 0.53470 0.38900 -14.52900
C 	C 	0.46220 0.44970 0.41240 -7.91500
H 	H 	0.47200 0.44560 0.38490 -14.72100
C 	C 	0.47934 0.40160 0.45051 -3.25800
C 	C 	0.46427 0.40940 0.48910 -0.41700
H 	H 	0.47520 0.37630 0.51550 -0.39200
C 	C 	0.43271 0.46640 0.48971 -2.43300
H 	H 	0.42240 0.47220 0.51680 0.25400
N 	N 	0.56063 0.97410 0.54689 -0.12500
C 	C 	0.58119 0.98980 0.51428 -0.24000
H 	H 	0.60020 0.94740 0.50920 0.44900
C 	C 	0.57591 0.06540 0.48769 0.15400
H 	H 	0.59100 0.07450 0.46460 0.27200
C 	C 	0.54840 0.12800 0.49496 -0.01500
C 	C 	0.52592 0.10980 0.52733 0.05300
H 	H 	0.50610 0.15010 0.53230 -0.41900
C 	C 	0.53267 0.03230 0.55240 -0.33300
H 	H 	0.51690 0.01980 0.57440 0.28100
N 	N 	0.63818 0.34680 0.32155 10.49000
C 	C 	0.64750 0.28590 0.35430 -6.41900
H 	H 	0.67150 0.25400 0.35670 0.99100
C 	C 	0.62320 0.26820 0.38490 5.67100
H 	H 	0.63010 0.22380 0.40750 -1.33300
C 	C 	0.58872 0.31560 0.38210 -4.04000
C 	C 	0.58038 0.37960 0.34920 2.70300
H 	H 	0.55700 0.41380 0.34640 -6.17300
C 	C 	0.60610 0.39390 0.32030 -5.67400
H 	H 	0.60040 0.44000 0.29830 -7.47300
C 	C 	0.51206 0.34020 0.44751 -2.60500
N 	N 	0.51594 0.26870 0.47511 -0.52700
C 	C 	0.54406 0.21250 0.46849 -0.20300
N 	N 	0.56849 0.22440 0.43950 -0.01700
C 	C 	0.56245 0.29930 0.41509 0.01500
N 	N 	0.53422 0.35850 0.41694 -2.04100
N 	N 	0.62048 0.94490 0.63878 0.62300
C 	C 	0.64843 0.90410 0.66795 -4.33600
H 	H 	0.65220 0.84200 0.66450 20.12100
C 	C 	0.67230 0.94840 0.70314 8.61700
H 	H 	0.69180 0.91700 0.72360 10.75000
C 	C 	0.66739 0.03840 0.70813 -1.91700
C 	C 	0.63902 0.08090 0.67710 2.12700
H 	H 	0.63520 0.14340 0.67900 -1.11300
C 	C 	0.61644 0.03170 0.64340 -0.35300
H 	H 	0.59690 0.06160 0.62230 -0.02800
N 	N 	0.68456 0.50130 0.77773 -13.64000
C 	C 	0.71274 0.46700 0.80810 1.55000
H 	H 	0.72860 0.50610 0.82870 -10.54600
C 	C 	0.72059 0.37530 0.81170 -2.42500
H 	H 	0.74140 0.35300 0.83410 4.40800
C 	C 	0.69764 0.31900 0.78243 5.63100
C 	C 	0.66762 0.35560 0.75100 -7.54000
H 	H 	0.65100 0.31860 0.73000 0.30700
C 	C 	0.66200 0.44660 0.75040 7.02800
H 	H 	0.64080 0.47080 0.72920 -27.41100
N 	N 	0.82764 0.96770 0.90220 -3.15100
C 	C 	0.80573 0.92350 0.86790 -2.10600
H 	H 	0.81030 0.86160 0.86480 0.68400
C 	C 	0.77685 0.96380 0.83700 -4.02400
H 	H 	0.76170 0.93000 0.81320 4.19900
C 	C 	0.77004 0.05340 0.84067 4.33300
C 	C 	0.79303 0.10040 0.87575 -2.53100
H 	H 	0.78960 0.16270 0.87890 4.91900
C 	C 	0.82090 0.05460 0.90583 -6.74400
H 	H 	0.83610 0.08650 0.93040 -2.78100
C 	C 	0.69090 0.09060 0.74610 1.59800
N 	N 	0.68150 0.17580 0.74894 -0.00300
C 	C 	0.70439 0.22090 0.78222 1.32600
N 	N 	0.73314 0.18560 0.81343 4.88800
C 	C 	0.73901 0.09900 0.80760 2.90600
N 	N 	0.71953 0.04817 0.77390 0.28200
I 	I 	0.38974 0.74390 0.41150 0.93300
I 	I 	0.35021 0.57920 0.52080 -1.91700
Zn	Zn	0.67400 0.63520 0.77740 -1847.55700
I 	I 	0.63320 0.66270 0.69780 69.25400
I 	I 	0.73690 0.72000 0.80590 9.10200
Zn	Zn	0.68680 0.63660 0.79390 627.83700
I 	I 	0.64720 0.67810 0.71490 -1271.31100
I 	I 	0.74980 0.71410 0.82790 -27.88100
Zn	Zn	0.86804 0.09401 0.45163 0.57400
I 	I 	0.88013 0.23984 0.42424 -3.75600
I 	I 	0.83893 0.06340 0.52905 -0.05400
Zn	Zn	0.07920 0.37266 0.59332 -1.17900
I 	I 	0.11594 0.26060 0.55396 -18.05800
I 	I 	0.02471 0.34367 0.63699 -20.67400
Zn	Zn	0.16960 0.13800 0.76610 1629.38700
I 	I 	0.12371 0.15320 0.69167 942.00400
I 	I 	0.23023 0.23328 0.79155 -20.41700
N 	N 	0.91652 0.01310 0.45285 -1.67800
C 	C 	0.93083 0.00310 0.41540 -7.82900
H 	H 	0.91870 0.03470 0.38900 -14.49200
C 	C 	0.96220 0.94970 0.41240 -7.96800
H 	H 	0.97200 0.94560 0.38490 -14.65400
C 	C 	0.97934 0.90160 0.45051 -3.21600
C 	C 	0.96427 0.90940 0.48910 -0.43000
H 	H 	0.97520 0.87630 0.51550 -0.37700
C 	C 	0.93271 0.96640 0.48971 -2.42700
H 	H 	0.92240 0.97220 0.51680 0.26600
N 	N 	0.06063 0.47410 0.54689 -0.13900
C 	C 	0.08119 0.48980 0.51428 -0.24400
H 	H 	0.10020 0.44740 0.50920 0.44900
C 	C 	0.07591 0.56540 0.48769 0.15600
H 	H 	0.09100 0.57450 0.46460 0.26400
C 	C 	0.04840 0.62800 0.49496 -0.01300
C 	C 	0.02592 0.60980 0.52733 0.04600
H 	H 	0.00610 0.65010 0.53230 -0.40800
C 	C 	0.03267 0.53230 0.55240 -0.31300
H 	H 	0.01690 0.51980 0.57440 0.28800
N 	N 	0.13818 0.84680 0.32155 10.41700
C 	C 	0.14750 0.78590 0.35430 -6.38200
H 	H 	0.17150 0.75400 0.35670 0.98100
C 	C 	0.12320 0.76820 0.38490 5.63400
H 	H 	0.13010 0.72380 0.40750 -1.32800
C 	C 	0.08872 0.81560 0.38210 -4.01900
C 	C 	0.08038 0.87960 0.34920 2.68300
H 	H 	0.05700 0.91380 0.34640 -6.14600
C 	C 	0.10610 0.89390 0.32030 -5.64200
H 	H 	0.10040 0.94000 0.29830 -7.43800
C 	C 	0.01206 0.84020 0.44751 -2.60200
N 	N 	0.01594 0.76870 0.47511 -0.52200
C 	C 	0.04406 0.71250 0.46849 -0.20200
N 	N 	0.06849 0.72440 0.43950 -0.01800
C 	C 	0.06245 0.79930 0.41509 0.01200
N 	N 	0.03422 0.85850 0.41694 -2.03200
N 	N 	0.12048 0.44490 0.63878 0.56600
C 	C 	0.14843 0.40410 0.66795 -4.26100
H 	H 	0.15220 0.34200 0.66450 20.03700
C 	C 	0.17230 0.44840 0.70314 8.42600
H 	H 	0.19180 0.41700 0.72360 10.75100
C 	C 	0.16739 0.53840 0.70813 -1.77400
C 	C 	0.13902 0.58090 0.67710 2.02800
H 	H 	0.13520 0.64340 0.67900 -1.07100
C 	C 	0.11644 0.53170 0.64340 -0.24500
H 	H 	0.09690 0.56160 0.62230 -0.05400
N 	N 	0.18456 0.00130 0.77773 -13.75300
C 	C 	0.21274 0.96700 0.80810 1.90200
H 	H 	0.22860 0.00610 0.82870 -10.68100
C 	C 	0.22059 0.87530 0.81170 -2.60400
H 	H 	0.24140 0.85300 0.83410 4.51100
C 	C 	0.19764 0.81900 0.78243 5.76600
C 	C 	0.16762 0.85560 0.75100 -7.64400
H 	H 	0.15100 0.81860 0.73000 0.36100
C 	C 	0.16200 0.94660 0.75040 7.18300
H 	H 	0.14080 0.97080 0.72920 -27.34800
N 	N 	0.32764 0.46770 0.90220 -3.26500
C 	C 	0.30573 0.42350 0.86790 -2.04600
H 	H 	0.31030 0.36160 0.86480 0.64300
C 	C 	0.27685 0.46380 0.83700 -4.26700
H 	H 	0.26170 0.43000 0.81320 4.24400
C 	C 	0.27004 0.55340 0.84067 4.54200
C 	C 	0.29303 0.60040 0.87575 -2.67700
H 	H 	0.28960 0.66270 0.87890 5.00200
C 	C 	0.32090 0.55460 0.90583 -6.62300
H 	H 	0.33610 0.58650 0.93040 -2.83700
C 	C 	0.19090 0.59060 0.74610 1.56600
N 	N 	0.18150 0.67580 0.74894 0.01600
C 	C 	0.20439 0.72090 0.78222 1.31400
N 	N 	0.23314 0.68560 0.81343 4.93800
C 	C 	0.23901 0.59900 0.80760 2.88200
N 	N 	0.21953 0.54817 0.77390 0.30900
I 	I 	0.88974 0.24390 0.41150 0.92500
I 	I 	0.85021 0.07920 0.52080 -1.89600
Zn	Zn	0.17400 0.13520 0.77740 -1841.97400
I 	I 	0.13320 0.16270 0.69780 69.03400
I 	I 	0.23690 0.22000 0.80590 9.05900
Zn	Zn	0.18680 0.13660 0.79390 625.94100
I 	I 	0.14720 0.17810 0.71490 -1267.47000
I 	I 	0.24980 0.21410 0.82790 -27.80700
