data_crystal

_cell_length_a 34.30700
_cell_length_b 14.39200
_cell_length_c 34.93100
_cell_angle_alpha 90.00000
_cell_angle_beta  106.22000
_cell_angle_gamma 90.00000

_symmetry_space_group_name_	'P 1'
_symmetry_space_group_name_H-M	'P 1'

loop_
_symmetry_equiv_pos_as_xyz
  x,y,z

loop_
_atom_site_label
_atom_site_type_symbol
_atom_site_fract_x
_atom_site_fract_y
_atom_site_fract_z
_atom_site_charge
Zn	Zn	0.14103 0.61617 0.07496 1.16400
Zn	Zn	0.16182 0.84280 0.26128 1.16400
Zn	Zn	0.88447 0.08701 0.43744 1.16500
I 	I 	0.08110 0.71761 0.07318 -0.36900
I 	I 	0.20740 0.67616 0.06510 -0.36700
I 	I 	0.22696 0.75118 0.28872 -0.37900
I 	I 	0.11660 0.81707 0.19128 -0.38300
I 	I 	0.86412 0.07452 0.50127 -0.36700
I 	I 	0.90123 0.23623 0.40662 -0.38300
N 	N 	0.15740 0.54970 0.12980 -0.26800
C 	C 	0.17230 0.59770 0.16360 0.06800
H 	H 	0.17290 0.66360 0.16260 -0.01300
C 	C 	0.18680 0.55390 0.19990 -0.12000
H 	H 	0.19860 0.58970 0.22310 0.08000
C 	C 	0.18440 0.45830 0.20290 0.05300
C 	C 	0.16740 0.40840 0.16760 -0.11400
H 	H 	0.16500 0.34270 0.16810 0.09000
C 	C 	0.15450 0.45630 0.13270 0.06500
H 	H 	0.14270 0.42210 0.10900 0.00000
N 	N 	0.17630 0.98370 0.26840 -0.26700
C 	C 	0.20500 0.01780 0.29970 0.07400
H 	H 	0.21890 0.97570 0.31980 -0.01100
C 	C 	0.21550 0.10940 0.30410 -0.11800
H 	H 	0.23580 0.13070 0.32680 0.08100
C 	C 	0.19520 0.17180 0.27380 0.05400
C 	C 	0.16570 0.13730 0.24160 -0.11100
H 	H 	0.15190 0.17790 0.22080 0.08200
C 	C 	0.15630 0.04390 0.23960 0.05300
H 	H 	0.13540 0.02120 0.21760 -0.00900
N 	N 	0.33960 0.52300 0.39350 -0.27200
C 	C 	0.33000 0.43240 0.39560 0.07500
H 	H 	0.34460 0.39740 0.41800 -0.01700
C 	C 	0.30010 0.38830 0.36660 -0.12300
H 	H 	0.29450 0.32440 0.36940 0.07700
C 	C 	0.27830 0.43720 0.33380 0.05500
C 	C 	0.28760 0.53120 0.33080 -0.12500
H 	H 	0.27370 0.56700 0.30830 0.09600
C 	C 	0.31790 0.57070 0.36180 0.06900
H 	H 	0.32350 0.63500 0.36030 -0.00800
C 	C 	0.20110 0.40700 0.24030 0.10100
N 	N 	0.18800 0.32000 0.24230 -0.13600
C 	C 	0.20710 0.27290 0.27420 0.10800
N 	N 	0.23650 0.30390 0.30550 -0.13700
C 	C 	0.24620 0.39440 0.30110 0.08400
N 	N 	0.23000 0.44820 0.26900 -0.13800
N 	N 	0.13190 0.82420 0.30410 -0.27700
C 	C 	0.10990 0.89230 0.31380 0.07200
H 	H 	0.10650 0.94840 0.29890 -0.01700
C 	C 	0.09170 0.88520 0.34450 -0.12000
H 	H 	0.07670 0.93560 0.35090 0.08300
C 	C 	0.09580 0.80360 0.36540 0.05800
C 	C 	0.11710 0.73000 0.35460 -0.12000
H 	H 	0.11980 0.67220 0.36820 0.08300
C 	C 	0.13390 0.74370 0.32350 0.07100
H 	H 	0.14770 0.69330 0.31550 -0.01400
N 	N 	0.93310 0.00290 0.43810 -0.27400
C 	C 	0.95270 0.95130 0.46930 0.07300
H 	H 	0.94380 0.95290 0.49270 -0.01000
C 	C 	0.98560 0.89540 0.46890 -0.11500
H 	H 	0.99880 0.85910 0.49150 0.07500
C 	C 	0.99860 0.89350 0.43550 0.06100
C 	C 	0.97830 0.94750 0.40230 -0.11300
H 	H 	0.98660 0.94720 0.37850 0.08600
C 	C 	0.94630 0.00010 0.40560 0.07800
H 	H 	0.93270 0.03720 0.38350 -0.01400
N 	N 	0.12050 0.49260 0.53600 -0.27100
C 	C 	0.08320 0.52560 0.53060 0.06800
H 	H 	0.06610 0.49680 0.54440 -0.01000
C 	C 	0.06800 0.60090 0.50560 -0.11300
H 	H 	0.04170 0.62500 0.50360 0.08200
C 	C 	0.09150 0.63910 0.48400 0.04300
C 	C 	0.13150 0.60410 0.48920 -0.10700
H 	H 	0.14870 0.62990 0.47490 0.07900
C 	C 	0.14480 0.53130 0.51580 0.05300
H 	H 	0.17150 0.50820 0.51990 -0.00500
C 	C 	0.07880 0.79170 0.40000 0.11000
N 	N 	0.04900 0.84960 0.40200 -0.13600
C 	C 	0.03350 0.83310 0.43240 0.10500
N 	N 	0.04540 0.76580 0.45970 -0.14300
C 	C 	0.07620 0.71580 0.45470 0.10600
N 	N 	0.09400 0.72490 0.42580 -0.13800
Zn	Zn	0.64103 0.11617 0.07496 1.16300
Zn	Zn	0.66182 0.34280 0.26128 1.16300
Zn	Zn	0.38447 0.58701 0.43744 1.16400
I 	I 	0.58110 0.21761 0.07318 -0.37000
I 	I 	0.70740 0.17616 0.06510 -0.36800
I 	I 	0.72696 0.25118 0.28872 -0.38000
I 	I 	0.61660 0.31707 0.19128 -0.38400
I 	I 	0.36412 0.57452 0.50127 -0.36800
I 	I 	0.40123 0.73623 0.40662 -0.38400
N 	N 	0.65740 0.04970 0.12980 -0.26900
C 	C 	0.67230 0.09770 0.16360 0.06700
H 	H 	0.67290 0.16360 0.16260 -0.01400
C 	C 	0.68680 0.05390 0.19990 -0.12100
H 	H 	0.69860 0.08970 0.22310 0.08000
C 	C 	0.68440 0.95830 0.20290 0.05300
C 	C 	0.66740 0.90840 0.16760 -0.11500
H 	H 	0.66500 0.84270 0.16810 0.09100
C 	C 	0.65450 0.95630 0.13270 0.06600
H 	H 	0.64270 0.92210 0.10900 0.00000
N 	N 	0.67630 0.48370 0.26840 -0.26700
C 	C 	0.70500 0.51780 0.29970 0.07400
H 	H 	0.71890 0.47570 0.31980 -0.01100
C 	C 	0.71550 0.60940 0.30410 -0.11800
H 	H 	0.73580 0.63070 0.32680 0.08100
C 	C 	0.69520 0.67180 0.27380 0.05400
C 	C 	0.66570 0.63730 0.24160 -0.11100
H 	H 	0.65190 0.67790 0.22080 0.08200
C 	C 	0.65630 0.54390 0.23960 0.05300
H 	H 	0.63540 0.52120 0.21760 -0.00900
N 	N 	0.83960 0.02300 0.39350 -0.27300
C 	C 	0.83000 0.93240 0.39560 0.07500
H 	H 	0.84460 0.89740 0.41800 -0.01700
C 	C 	0.80010 0.88830 0.36660 -0.12300
H 	H 	0.79450 0.82440 0.36940 0.07700
C 	C 	0.77830 0.93720 0.33380 0.05500
C 	C 	0.78760 0.03120 0.33080 -0.12500
H 	H 	0.77370 0.06700 0.30830 0.09600
C 	C 	0.81790 0.07070 0.36180 0.06900
H 	H 	0.82350 0.13500 0.36030 -0.00800
C 	C 	0.70110 0.90700 0.24030 0.10100
N 	N 	0.68800 0.82000 0.24230 -0.13600
C 	C 	0.70710 0.77290 0.27420 0.10800
N 	N 	0.73650 0.80390 0.30550 -0.13700
C 	C 	0.74620 0.89440 0.30110 0.08400
N 	N 	0.73000 0.94820 0.26900 -0.13800
N 	N 	0.63190 0.32420 0.30410 -0.27700
C 	C 	0.60990 0.39230 0.31380 0.07200
H 	H 	0.60650 0.44840 0.29890 -0.01700
C 	C 	0.59170 0.38520 0.34450 -0.12000
H 	H 	0.57670 0.43560 0.35090 0.08300
C 	C 	0.59580 0.30360 0.36540 0.05800
C 	C 	0.61710 0.23000 0.35460 -0.12000
H 	H 	0.61980 0.17220 0.36820 0.08300
C 	C 	0.63390 0.24370 0.32350 0.07100
H 	H 	0.64770 0.19330 0.31550 -0.01400
N 	N 	0.43310 0.50290 0.43810 -0.27400
C 	C 	0.45270 0.45130 0.46930 0.07300
H 	H 	0.44380 0.45290 0.49270 -0.01000
C 	C 	0.48560 0.39540 0.46890 -0.11500
H 	H 	0.49880 0.35910 0.49150 0.07500
C 	C 	0.49860 0.39350 0.43550 0.06100
C 	C 	0.47830 0.44750 0.40230 -0.11300
H 	H 	0.48660 0.44720 0.37850 0.08600
C 	C 	0.44630 0.50010 0.40560 0.07800
H 	H 	0.43270 0.53720 0.38350 -0.01400
N 	N 	0.62050 0.99260 0.53600 -0.27100
C 	C 	0.58320 0.02560 0.53060 0.06800
H 	H 	0.56610 0.99680 0.54440 -0.01000
C 	C 	0.56800 0.10090 0.50560 -0.11300
H 	H 	0.54170 0.12500 0.50360 0.08300
C 	C 	0.59150 0.13910 0.48400 0.04300
C 	C 	0.63150 0.10410 0.48920 -0.10700
H 	H 	0.64870 0.12990 0.47490 0.07900
C 	C 	0.64480 0.03130 0.51580 0.05300
H 	H 	0.67150 0.00820 0.51990 -0.00500
C 	C 	0.57880 0.29170 0.40000 0.11000
N 	N 	0.54900 0.34960 0.40200 -0.13600
C 	C 	0.53350 0.33310 0.43240 0.10500
N 	N 	0.54540 0.26580 0.45970 -0.14300
C 	C 	0.57620 0.21580 0.45470 0.10600
N 	N 	0.59400 0.22490 0.42580 -0.13800
Zn	Zn	0.14103 0.38383 0.57496 1.16300
Zn	Zn	0.16182 0.15720 0.76128 1.16300
Zn	Zn	0.88447 0.91299 0.93744 1.16400
I 	I 	0.08110 0.28239 0.57318 -0.37000
I 	I 	0.20740 0.32384 0.56510 -0.36800
I 	I 	0.22696 0.24882 0.78872 -0.38000
I 	I 	0.11660 0.18293 0.69128 -0.38400
I 	I 	0.86412 0.92548 0.00127 -0.36800
I 	I 	0.90123 0.76377 0.90662 -0.38400
N 	N 	0.15740 0.45030 0.62980 -0.26900
C 	C 	0.17230 0.40230 0.66360 0.06700
H 	H 	0.17290 0.33640 0.66260 -0.01400
C 	C 	0.18680 0.44610 0.69990 -0.12100
H 	H 	0.19860 0.41030 0.72310 0.07900
C 	C 	0.18440 0.54170 0.70290 0.05300
C 	C 	0.16740 0.59160 0.66760 -0.11400
H 	H 	0.16500 0.65730 0.66810 0.09000
C 	C 	0.15450 0.54370 0.63270 0.06500
H 	H 	0.14270 0.57790 0.60900 0.00000
N 	N 	0.17630 0.01630 0.76840 -0.26700
C 	C 	0.20500 0.98220 0.79970 0.07400
H 	H 	0.21890 0.02430 0.81980 -0.01100
C 	C 	0.21550 0.89060 0.80410 -0.11800
H 	H 	0.23580 0.86930 0.82680 0.08100
C 	C 	0.19520 0.82820 0.77380 0.05400
C 	C 	0.16570 0.86270 0.74160 -0.11100
H 	H 	0.15190 0.82210 0.72080 0.08200
C 	C 	0.15630 0.95610 0.73960 0.05300
H 	H 	0.13540 0.97880 0.71760 -0.00900
N 	N 	0.33960 0.47700 0.89350 -0.27200
C 	C 	0.33000 0.56760 0.89560 0.07500
H 	H 	0.34460 0.60260 0.91800 -0.01700
C 	C 	0.30010 0.61170 0.86660 -0.12300
H 	H 	0.29450 0.67560 0.86940 0.07700
C 	C 	0.27830 0.56280 0.83380 0.05500
C 	C 	0.28760 0.46880 0.83080 -0.12500
H 	H 	0.27370 0.43300 0.80830 0.09600
C 	C 	0.31790 0.42930 0.86180 0.06900
H 	H 	0.32350 0.36500 0.86030 -0.00800
C 	C 	0.20110 0.59300 0.74030 0.10100
N 	N 	0.18800 0.68000 0.74230 -0.13600
C 	C 	0.20710 0.72710 0.77420 0.10800
N 	N 	0.23650 0.69610 0.80550 -0.13700
C 	C 	0.24620 0.60560 0.80110 0.08400
N 	N 	0.23000 0.55180 0.76900 -0.13800
N 	N 	0.13190 0.17580 0.80410 -0.27700
C 	C 	0.10990 0.10770 0.81380 0.07200
H 	H 	0.10650 0.05160 0.79890 -0.01700
C 	C 	0.09170 0.11480 0.84450 -0.12000
H 	H 	0.07670 0.06440 0.85090 0.08300
C 	C 	0.09580 0.19640 0.86540 0.05800
C 	C 	0.11710 0.27000 0.85460 -0.12000
H 	H 	0.11980 0.32780 0.86820 0.08300
C 	C 	0.13390 0.25630 0.82350 0.07100
H 	H 	0.14770 0.30670 0.81550 -0.01400
N 	N 	0.93310 0.99710 0.93810 -0.27500
C 	C 	0.95270 0.04870 0.96930 0.07300
H 	H 	0.94380 0.04710 0.99270 -0.01000
C 	C 	0.98560 0.10460 0.96890 -0.11500
H 	H 	0.99880 0.14090 0.99150 0.07400
C 	C 	0.99860 0.10650 0.93550 0.06100
C 	C 	0.97830 0.05250 0.90230 -0.11300
H 	H 	0.98660 0.05280 0.87850 0.08500
C 	C 	0.94630 0.99990 0.90560 0.07800
H 	H 	0.93270 0.96280 0.88350 -0.01400
N 	N 	0.12050 0.50740 0.03600 -0.27100
C 	C 	0.08320 0.47440 0.03060 0.06800
H 	H 	0.06610 0.50320 0.04440 -0.01000
C 	C 	0.06800 0.39910 0.00560 -0.11300
H 	H 	0.04170 0.37500 0.00360 0.08200
C 	C 	0.09150 0.36090 0.98400 0.04300
C 	C 	0.13150 0.39590 0.98920 -0.10700
H 	H 	0.14870 0.37010 0.97490 0.07900
C 	C 	0.14480 0.46870 0.01580 0.05300
H 	H 	0.17150 0.49180 0.01990 -0.00500
C 	C 	0.07880 0.20830 0.90000 0.11000
N 	N 	0.04900 0.15040 0.90200 -0.13600
C 	C 	0.03350 0.16690 0.93240 0.10500
N 	N 	0.04540 0.23420 0.95970 -0.14300
C 	C 	0.07620 0.28420 0.95470 0.10600
N 	N 	0.09400 0.27510 0.92580 -0.13800
Zn	Zn	0.64103 0.88383 0.57496 1.16300
Zn	Zn	0.66182 0.65720 0.76128 1.16300
Zn	Zn	0.38447 0.41299 0.93744 1.16400
I 	I 	0.58110 0.78239 0.57318 -0.37000
I 	I 	0.70740 0.82384 0.56510 -0.36800
I 	I 	0.72696 0.74882 0.78872 -0.38000
I 	I 	0.61660 0.68293 0.69128 -0.38400
I 	I 	0.36412 0.42548 0.00127 -0.36800
I 	I 	0.40123 0.26377 0.90662 -0.38400
N 	N 	0.65740 0.95030 0.62980 -0.26900
C 	C 	0.67230 0.90230 0.66360 0.06700
H 	H 	0.67290 0.83640 0.66260 -0.01400
C 	C 	0.68680 0.94610 0.69990 -0.12100
H 	H 	0.69860 0.91030 0.72310 0.08000
C 	C 	0.68440 0.04170 0.70290 0.05300
C 	C 	0.66740 0.09160 0.66760 -0.11400
H 	H 	0.66500 0.15730 0.66810 0.09100
C 	C 	0.65450 0.04370 0.63270 0.06500
H 	H 	0.64270 0.07790 0.60900 0.00000
N 	N 	0.67630 0.51630 0.76840 -0.26700
C 	C 	0.70500 0.48220 0.79970 0.07400
H 	H 	0.71890 0.52430 0.81980 -0.01100
C 	C 	0.71550 0.39060 0.80410 -0.11800
H 	H 	0.73580 0.36930 0.82680 0.08100
C 	C 	0.69520 0.32820 0.77380 0.05400
C 	C 	0.66570 0.36270 0.74160 -0.11100
H 	H 	0.65190 0.32210 0.72080 0.08200
C 	C 	0.65630 0.45610 0.73960 0.05300
H 	H 	0.63540 0.47880 0.71760 -0.00900
N 	N 	0.83960 0.97700 0.89350 -0.27300
C 	C 	0.83000 0.06760 0.89560 0.07500
H 	H 	0.84460 0.10260 0.91800 -0.01700
C 	C 	0.80010 0.11170 0.86660 -0.12300
H 	H 	0.79450 0.17560 0.86940 0.07700
C 	C 	0.77830 0.06280 0.83380 0.05500
C 	C 	0.78760 0.96880 0.83080 -0.12500
H 	H 	0.77370 0.93300 0.80830 0.09600
C 	C 	0.81790 0.92930 0.86180 0.06900
H 	H 	0.82350 0.86500 0.86030 -0.00800
C 	C 	0.70110 0.09300 0.74030 0.10100
N 	N 	0.68800 0.18000 0.74230 -0.13600
C 	C 	0.70710 0.22710 0.77420 0.10800
N 	N 	0.73650 0.19610 0.80550 -0.13700
C 	C 	0.74620 0.10560 0.80110 0.08400
N 	N 	0.73000 0.05180 0.76900 -0.13800
N 	N 	0.63190 0.67580 0.80410 -0.27700
C 	C 	0.60990 0.60770 0.81380 0.07200
H 	H 	0.60650 0.55160 0.79890 -0.01700
C 	C 	0.59170 0.61480 0.84450 -0.12000
H 	H 	0.57670 0.56440 0.85090 0.08300
C 	C 	0.59580 0.69640 0.86540 0.05800
C 	C 	0.61710 0.77000 0.85460 -0.12000
H 	H 	0.61980 0.82780 0.86820 0.08300
C 	C 	0.63390 0.75630 0.82350 0.07100
H 	H 	0.64770 0.80670 0.81550 -0.01400
N 	N 	0.43310 0.49710 0.93810 -0.27400
C 	C 	0.45270 0.54870 0.96930 0.07300
H 	H 	0.44380 0.54710 0.99270 -0.01000
C 	C 	0.48560 0.60460 0.96890 -0.11500
H 	H 	0.49880 0.64090 0.99150 0.07500
C 	C 	0.49860 0.60650 0.93550 0.06100
C 	C 	0.47830 0.55250 0.90230 -0.11300
H 	H 	0.48660 0.55280 0.87850 0.08600
C 	C 	0.44630 0.49990 0.90560 0.07800
H 	H 	0.43270 0.46280 0.88350 -0.01400
N 	N 	0.62050 0.00740 0.03600 -0.27100
C 	C 	0.58320 0.97440 0.03060 0.06900
H 	H 	0.56610 0.00320 0.04440 -0.01000
C 	C 	0.56800 0.89910 0.00560 -0.11300
H 	H 	0.54170 0.87500 0.00360 0.08300
C 	C 	0.59150 0.86090 0.98400 0.04300
C 	C 	0.63150 0.89590 0.98920 -0.10800
H 	H 	0.64870 0.87010 0.97490 0.07900
C 	C 	0.64480 0.96870 0.01580 0.05300
H 	H 	0.67150 0.99180 0.01990 -0.00500
C 	C 	0.57880 0.70830 0.90000 0.11000
N 	N 	0.54900 0.65040 0.90200 -0.13600
C 	C 	0.53350 0.66690 0.93240 0.10500
N 	N 	0.54540 0.73420 0.95970 -0.14300
C 	C 	0.57620 0.78420 0.95470 0.10600
N 	N 	0.59400 0.77510 0.92580 -0.13800
Zn	Zn	0.85897 0.61617 0.42504 1.16300
Zn	Zn	0.83818 0.84280 0.23872 1.16300
Zn	Zn	0.11553 0.08701 0.06256 1.16400
I 	I 	0.91890 0.71761 0.42682 -0.37000
I 	I 	0.79260 0.67616 0.43490 -0.36800
I 	I 	0.77304 0.75118 0.21128 -0.38000
I 	I 	0.88340 0.81707 0.30872 -0.38400
I 	I 	0.13588 0.07452 0.99873 -0.36800
I 	I 	0.09877 0.23623 0.09338 -0.38400
N 	N 	0.84260 0.54970 0.37020 -0.26900
C 	C 	0.82770 0.59770 0.33640 0.06700
H 	H 	0.82710 0.66360 0.33740 -0.01400
C 	C 	0.81320 0.55390 0.30010 -0.12100
H 	H 	0.80140 0.58970 0.27690 0.07900
C 	C 	0.81560 0.45830 0.29710 0.05300
C 	C 	0.83260 0.40840 0.33240 -0.11400
H 	H 	0.83500 0.34270 0.33190 0.09000
C 	C 	0.84550 0.45630 0.36730 0.06500
H 	H 	0.85730 0.42210 0.39100 0.00000
N 	N 	0.82370 0.98370 0.23160 -0.26700
C 	C 	0.79500 0.01780 0.20030 0.07400
H 	H 	0.78110 0.97570 0.18020 -0.01100
C 	C 	0.78450 0.10940 0.19590 -0.11800
H 	H 	0.76420 0.13070 0.17320 0.08100
C 	C 	0.80480 0.17180 0.22620 0.05400
C 	C 	0.83430 0.13730 0.25840 -0.11100
H 	H 	0.84810 0.17790 0.27920 0.08200
C 	C 	0.84370 0.04390 0.26040 0.05300
H 	H 	0.86460 0.02120 0.28240 -0.00900
N 	N 	0.66040 0.52300 0.10650 -0.27200
C 	C 	0.67000 0.43240 0.10440 0.07500
H 	H 	0.65540 0.39740 0.08200 -0.01700
C 	C 	0.69990 0.38830 0.13340 -0.12300
H 	H 	0.70550 0.32440 0.13060 0.07700
C 	C 	0.72170 0.43720 0.16620 0.05500
C 	C 	0.71240 0.53120 0.16920 -0.12500
H 	H 	0.72630 0.56700 0.19170 0.09600
C 	C 	0.68210 0.57070 0.13820 0.06900
H 	H 	0.67650 0.63500 0.13970 -0.00800
C 	C 	0.79890 0.40700 0.25970 0.10100
N 	N 	0.81200 0.32000 0.25770 -0.13600
C 	C 	0.79290 0.27290 0.22580 0.10800
N 	N 	0.76350 0.30390 0.19450 -0.13700
C 	C 	0.75380 0.39440 0.19890 0.08400
N 	N 	0.77000 0.44820 0.23100 -0.13800
N 	N 	0.86810 0.82420 0.19590 -0.27700
C 	C 	0.89010 0.89230 0.18620 0.07200
H 	H 	0.89350 0.94840 0.20110 -0.01700
C 	C 	0.90830 0.88520 0.15550 -0.12000
H 	H 	0.92330 0.93560 0.14910 0.08300
C 	C 	0.90420 0.80360 0.13460 0.05800
C 	C 	0.88290 0.73000 0.14540 -0.12000
H 	H 	0.88020 0.67220 0.13180 0.08300
C 	C 	0.86610 0.74370 0.17650 0.07100
H 	H 	0.85230 0.69330 0.18450 -0.01400
N 	N 	0.06690 0.00290 0.06190 -0.27500
C 	C 	0.04730 0.95130 0.03070 0.07300
H 	H 	0.05620 0.95290 0.00730 -0.01000
C 	C 	0.01440 0.89540 0.03110 -0.11500
H 	H 	0.00120 0.85910 0.00850 0.07400
C 	C 	0.00140 0.89350 0.06450 0.06100
C 	C 	0.02170 0.94750 0.09770 -0.11300
H 	H 	0.01340 0.94720 0.12150 0.08500
C 	C 	0.05370 0.00010 0.09440 0.07800
H 	H 	0.06730 0.03720 0.11650 -0.01400
N 	N 	0.87950 0.49260 0.96400 -0.27100
C 	C 	0.91680 0.52560 0.96940 0.06800
H 	H 	0.93390 0.49680 0.95560 -0.01000
C 	C 	0.93200 0.60090 0.99440 -0.11300
H 	H 	0.95830 0.62500 0.99640 0.08200
C 	C 	0.90850 0.63910 0.01600 0.04300
C 	C 	0.86850 0.60410 0.01080 -0.10700
H 	H 	0.85130 0.62990 0.02510 0.07900
C 	C 	0.85520 0.53130 0.98420 0.05300
H 	H 	0.82850 0.50820 0.98010 -0.00500
C 	C 	0.92120 0.79170 0.10000 0.11000
N 	N 	0.95100 0.84960 0.09800 -0.13600
C 	C 	0.96650 0.83310 0.06760 0.10500
N 	N 	0.95460 0.76580 0.04030 -0.14300
C 	C 	0.92380 0.71580 0.04530 0.10600
N 	N 	0.90600 0.72490 0.07420 -0.13800
Zn	Zn	0.35897 0.11617 0.42504 1.16300
Zn	Zn	0.33818 0.34280 0.23872 1.16300
Zn	Zn	0.61553 0.58701 0.06256 1.16400
I 	I 	0.41890 0.21761 0.42682 -0.37000
I 	I 	0.29260 0.17616 0.43490 -0.36800
I 	I 	0.27304 0.25118 0.21128 -0.38000
I 	I 	0.38340 0.31707 0.30872 -0.38400
I 	I 	0.63588 0.57452 0.99873 -0.36800
I 	I 	0.59877 0.73623 0.09338 -0.38400
N 	N 	0.34260 0.04970 0.37020 -0.26900
C 	C 	0.32770 0.09770 0.33640 0.06700
H 	H 	0.32710 0.16360 0.33740 -0.01400
C 	C 	0.31320 0.05390 0.30010 -0.12100
H 	H 	0.30140 0.08970 0.27690 0.08000
C 	C 	0.31560 0.95830 0.29710 0.05300
C 	C 	0.33260 0.90840 0.33240 -0.11400
H 	H 	0.33500 0.84270 0.33190 0.09100
C 	C 	0.34550 0.95630 0.36730 0.06500
H 	H 	0.35730 0.92210 0.39100 0.00000
N 	N 	0.32370 0.48370 0.23160 -0.26700
C 	C 	0.29500 0.51780 0.20030 0.07400
H 	H 	0.28110 0.47570 0.18020 -0.01100
C 	C 	0.28450 0.60940 0.19590 -0.11800
H 	H 	0.26420 0.63070 0.17320 0.08100
C 	C 	0.30480 0.67180 0.22620 0.05400
C 	C 	0.33430 0.63730 0.25840 -0.11100
H 	H 	0.34810 0.67790 0.27920 0.08200
C 	C 	0.34370 0.54390 0.26040 0.05300
H 	H 	0.36460 0.52120 0.28240 -0.00900
N 	N 	0.16040 0.02300 0.10650 -0.27300
C 	C 	0.17000 0.93240 0.10440 0.07500
H 	H 	0.15540 0.89740 0.08200 -0.01700
C 	C 	0.19990 0.88830 0.13340 -0.12300
H 	H 	0.20550 0.82440 0.13060 0.07700
C 	C 	0.22170 0.93720 0.16620 0.05500
C 	C 	0.21240 0.03120 0.16920 -0.12500
H 	H 	0.22630 0.06700 0.19170 0.09600
C 	C 	0.18210 0.07070 0.13820 0.06900
H 	H 	0.17650 0.13500 0.13970 -0.00800
C 	C 	0.29890 0.90700 0.25970 0.10100
N 	N 	0.31200 0.82000 0.25770 -0.13600
C 	C 	0.29290 0.77290 0.22580 0.10800
N 	N 	0.26350 0.80390 0.19450 -0.13700
C 	C 	0.25380 0.89440 0.19890 0.08400
N 	N 	0.27000 0.94820 0.23100 -0.13800
N 	N 	0.36810 0.32420 0.19590 -0.27700
C 	C 	0.39010 0.39230 0.18620 0.07200
H 	H 	0.39350 0.44840 0.20110 -0.01700
C 	C 	0.40830 0.38520 0.15550 -0.12000
H 	H 	0.42330 0.43560 0.14910 0.08300
C 	C 	0.40420 0.30360 0.13460 0.05800
C 	C 	0.38290 0.23000 0.14540 -0.12000
H 	H 	0.38020 0.17220 0.13180 0.08300
C 	C 	0.36610 0.24370 0.17650 0.07100
H 	H 	0.35230 0.19330 0.18450 -0.01400
N 	N 	0.56690 0.50290 0.06190 -0.27400
C 	C 	0.54730 0.45130 0.03070 0.07300
H 	H 	0.55620 0.45290 0.00730 -0.01000
C 	C 	0.51440 0.39540 0.03110 -0.11500
H 	H 	0.50120 0.35910 0.00850 0.07500
C 	C 	0.50140 0.39350 0.06450 0.06100
C 	C 	0.52170 0.44750 0.09770 -0.11300
H 	H 	0.51340 0.44720 0.12150 0.08600
C 	C 	0.55370 0.50010 0.09440 0.07800
H 	H 	0.56730 0.53720 0.11650 -0.01400
N 	N 	0.37950 0.99260 0.96400 -0.27100
C 	C 	0.41680 0.02560 0.96940 0.06900
H 	H 	0.43390 0.99680 0.95560 -0.01000
C 	C 	0.43200 0.10090 0.99440 -0.11300
H 	H 	0.45830 0.12500 0.99640 0.08300
C 	C 	0.40850 0.13910 0.01600 0.04300
C 	C 	0.36850 0.10410 0.01080 -0.10800
H 	H 	0.35130 0.12990 0.02510 0.07900
C 	C 	0.35520 0.03130 0.98420 0.05300
H 	H 	0.32850 0.00820 0.98010 -0.00500
C 	C 	0.42120 0.29170 0.10000 0.11000
N 	N 	0.45100 0.34960 0.09800 -0.13600
C 	C 	0.46650 0.33310 0.06760 0.10500
N 	N 	0.45460 0.26580 0.04030 -0.14300
C 	C 	0.42380 0.21580 0.04530 0.10600
N 	N 	0.40600 0.22490 0.07420 -0.13800
Zn	Zn	0.85897 0.38383 0.92504 1.16300
Zn	Zn	0.83818 0.15720 0.73872 1.16300
Zn	Zn	0.11553 0.91299 0.56256 1.16400
I 	I 	0.91890 0.28239 0.92682 -0.37000
I 	I 	0.79260 0.32384 0.93490 -0.36800
I 	I 	0.77304 0.24882 0.71128 -0.38000
I 	I 	0.88340 0.18293 0.80872 -0.38400
I 	I 	0.13588 0.92548 0.49873 -0.36800
I 	I 	0.09877 0.76377 0.59338 -0.38400
N 	N 	0.84260 0.45030 0.87020 -0.26900
C 	C 	0.82770 0.40230 0.83640 0.06700
H 	H 	0.82710 0.33640 0.83740 -0.01400
C 	C 	0.81320 0.44610 0.80010 -0.12100
H 	H 	0.80140 0.41030 0.77690 0.07900
C 	C 	0.81560 0.54170 0.79710 0.05300
C 	C 	0.83260 0.59160 0.83240 -0.11400
H 	H 	0.83500 0.65730 0.83190 0.09000
C 	C 	0.84550 0.54370 0.86730 0.06500
H 	H 	0.85730 0.57790 0.89100 0.00000
N 	N 	0.82370 0.01630 0.73160 -0.26700
C 	C 	0.79500 0.98220 0.70030 0.07400
H 	H 	0.78110 0.02430 0.68020 -0.01100
C 	C 	0.78450 0.89060 0.69590 -0.11800
H 	H 	0.76420 0.86930 0.67320 0.08100
C 	C 	0.80480 0.82820 0.72620 0.05400
C 	C 	0.83430 0.86270 0.75840 -0.11100
H 	H 	0.84810 0.82210 0.77920 0.08200
C 	C 	0.84370 0.95610 0.76040 0.05300
H 	H 	0.86460 0.97880 0.78240 -0.00900
N 	N 	0.66040 0.47700 0.60650 -0.27200
C 	C 	0.67000 0.56760 0.60440 0.07500
H 	H 	0.65540 0.60260 0.58200 -0.01700
C 	C 	0.69990 0.61170 0.63340 -0.12300
H 	H 	0.70550 0.67560 0.63060 0.07700
C 	C 	0.72170 0.56280 0.66620 0.05500
C 	C 	0.71240 0.46880 0.66920 -0.12500
H 	H 	0.72630 0.43300 0.69170 0.09600
C 	C 	0.68210 0.42930 0.63820 0.06900
H 	H 	0.67650 0.36500 0.63970 -0.00800
C 	C 	0.79890 0.59300 0.75970 0.10100
N 	N 	0.81200 0.68000 0.75770 -0.13600
C 	C 	0.79290 0.72710 0.72580 0.10800
N 	N 	0.76350 0.69610 0.69450 -0.13700
C 	C 	0.75380 0.60560 0.69890 0.08400
N 	N 	0.77000 0.55180 0.73100 -0.13800
N 	N 	0.86810 0.17580 0.69590 -0.27700
C 	C 	0.89010 0.10770 0.68620 0.07200
H 	H 	0.89350 0.05160 0.70110 -0.01700
C 	C 	0.90830 0.11480 0.65550 -0.12000
H 	H 	0.92330 0.06440 0.64910 0.08300
C 	C 	0.90420 0.19640 0.63460 0.05800
C 	C 	0.88290 0.27000 0.64540 -0.12000
H 	H 	0.88020 0.32780 0.63180 0.08300
C 	C 	0.86610 0.25630 0.67650 0.07100
H 	H 	0.85230 0.30670 0.68450 -0.01400
N 	N 	0.06690 0.99710 0.56190 -0.27400
C 	C 	0.04730 0.04870 0.53070 0.07300
H 	H 	0.05620 0.04710 0.50730 -0.01000
C 	C 	0.01440 0.10460 0.53110 -0.11500
H 	H 	0.00120 0.14090 0.50850 0.07500
C 	C 	0.00140 0.10650 0.56450 0.06100
C 	C 	0.02170 0.05250 0.59770 -0.11300
H 	H 	0.01340 0.05280 0.62150 0.08600
C 	C 	0.05370 0.99990 0.59440 0.07800
H 	H 	0.06730 0.96280 0.61650 -0.01400
N 	N 	0.87950 0.50740 0.46400 -0.27100
C 	C 	0.91680 0.47440 0.46940 0.06800
H 	H 	0.93390 0.50320 0.45560 -0.01000
C 	C 	0.93200 0.39910 0.49440 -0.11300
H 	H 	0.95830 0.37500 0.49640 0.08200
C 	C 	0.90850 0.36090 0.51600 0.04300
C 	C 	0.86850 0.39590 0.51080 -0.10700
H 	H 	0.85130 0.37010 0.52510 0.07900
C 	C 	0.85520 0.46870 0.48420 0.05300
H 	H 	0.82850 0.49180 0.48010 -0.00500
C 	C 	0.92120 0.20830 0.60000 0.11000
N 	N 	0.95100 0.15040 0.59800 -0.13600
C 	C 	0.96650 0.16690 0.56760 0.10500
N 	N 	0.95460 0.23420 0.54030 -0.14300
C 	C 	0.92380 0.28420 0.54530 0.10600
N 	N 	0.90600 0.27510 0.57420 -0.13800
Zn	Zn	0.35897 0.88383 0.92504 1.16300
Zn	Zn	0.33818 0.65720 0.73872 1.16300
Zn	Zn	0.61553 0.41299 0.56256 1.16400
I 	I 	0.41890 0.78239 0.92682 -0.37000
I 	I 	0.29260 0.82384 0.93490 -0.36800
I 	I 	0.27304 0.74882 0.71128 -0.38000
I 	I 	0.38340 0.68293 0.80872 -0.38400
I 	I 	0.63588 0.42548 0.49873 -0.36800
I 	I 	0.59877 0.26377 0.59338 -0.38400
N 	N 	0.34260 0.95030 0.87020 -0.26900
C 	C 	0.32770 0.90230 0.83640 0.06700
H 	H 	0.32710 0.83640 0.83740 -0.01400
C 	C 	0.31320 0.94610 0.80010 -0.12100
H 	H 	0.30140 0.91030 0.77690 0.08000
C 	C 	0.31560 0.04170 0.79710 0.05300
C 	C 	0.33260 0.09160 0.83240 -0.11500
H 	H 	0.33500 0.15730 0.83190 0.09100
C 	C 	0.34550 0.04370 0.86730 0.06600
H 	H 	0.35730 0.07790 0.89100 0.00000
N 	N 	0.32370 0.51630 0.73160 -0.26700
C 	C 	0.29500 0.48220 0.70030 0.07400
H 	H 	0.28110 0.52430 0.68020 -0.01100
C 	C 	0.28450 0.39060 0.69590 -0.11800
H 	H 	0.26420 0.36930 0.67320 0.08100
C 	C 	0.30480 0.32820 0.72620 0.05400
C 	C 	0.33430 0.36270 0.75840 -0.11100
H 	H 	0.34810 0.32210 0.77920 0.08200
C 	C 	0.34370 0.45610 0.76040 0.05300
H 	H 	0.36460 0.47880 0.78240 -0.00900
N 	N 	0.16040 0.97700 0.60650 -0.27300
C 	C 	0.17000 0.06760 0.60440 0.07500
H 	H 	0.15540 0.10260 0.58200 -0.01700
C 	C 	0.19990 0.11170 0.63340 -0.12300
H 	H 	0.20550 0.17560 0.63060 0.07700
C 	C 	0.22170 0.06280 0.66620 0.05500
C 	C 	0.21240 0.96880 0.66920 -0.12500
H 	H 	0.22630 0.93300 0.69170 0.09600
C 	C 	0.18210 0.92930 0.63820 0.06900
H 	H 	0.17650 0.86500 0.63970 -0.00800
C 	C 	0.29890 0.09300 0.75970 0.10100
N 	N 	0.31200 0.18000 0.75770 -0.13600
C 	C 	0.29290 0.22710 0.72580 0.10800
N 	N 	0.26350 0.19610 0.69450 -0.13700
C 	C 	0.25380 0.10560 0.69890 0.08400
N 	N 	0.27000 0.05180 0.73100 -0.13800
N 	N 	0.36810 0.67580 0.69590 -0.27700
C 	C 	0.39010 0.60770 0.68620 0.07200
H 	H 	0.39350 0.55160 0.70110 -0.01700
C 	C 	0.40830 0.61480 0.65550 -0.12000
H 	H 	0.42330 0.56440 0.64910 0.08300
C 	C 	0.40420 0.69640 0.63460 0.05800
C 	C 	0.38290 0.77000 0.64540 -0.12000
H 	H 	0.38020 0.82780 0.63180 0.08300
C 	C 	0.36610 0.75630 0.67650 0.07100
H 	H 	0.35230 0.80670 0.68450 -0.01400
N 	N 	0.56690 0.49710 0.56190 -0.27400
C 	C 	0.54730 0.54870 0.53070 0.07300
H 	H 	0.55620 0.54710 0.50730 -0.01000
C 	C 	0.51440 0.60460 0.53110 -0.11500
H 	H 	0.50120 0.64090 0.50850 0.07500
C 	C 	0.50140 0.60650 0.56450 0.06100
C 	C 	0.52170 0.55250 0.59770 -0.11300
H 	H 	0.51340 0.55280 0.62150 0.08600
C 	C 	0.55370 0.49990 0.59440 0.07800
H 	H 	0.56730 0.46280 0.61650 -0.01400
N 	N 	0.37950 0.00740 0.46400 -0.27100
C 	C 	0.41680 0.97440 0.46940 0.06800
H 	H 	0.43390 0.00320 0.45560 -0.01000
C 	C 	0.43200 0.89910 0.49440 -0.11300
H 	H 	0.45830 0.87500 0.49640 0.08300
C 	C 	0.40850 0.86090 0.51600 0.04300
C 	C 	0.36850 0.89590 0.51080 -0.10700
H 	H 	0.35130 0.87010 0.52510 0.07900
C 	C 	0.35520 0.96870 0.48420 0.05300
H 	H 	0.32850 0.99180 0.48010 -0.00500
C 	C 	0.42120 0.70830 0.60000 0.11000
N 	N 	0.45100 0.65040 0.59800 -0.13600
C 	C 	0.46650 0.66690 0.56760 0.10500
N 	N 	0.45460 0.73420 0.54030 -0.14300
C 	C 	0.42380 0.78420 0.54530 0.10600
N 	N 	0.40600 0.77510 0.57420 -0.13800
