data_crystal

_cell_length_a 34.92450
_cell_length_b 14.92630
_cell_length_c 29.78390
_cell_angle_alpha 90.00000
_cell_angle_beta  101.22800
_cell_angle_gamma 90.00000

_symmetry_space_group_name_	'P 1'
_symmetry_space_group_name_H-M	'P 1'

loop_
_symmetry_equiv_pos_as_xyz
  x,y,z

loop_
_atom_site_label
_atom_site_type_symbol
_atom_site_fract_x
_atom_site_fract_y
_atom_site_fract_z
_atom_site_charge
Zn	Zn	0.92093 0.63095 0.90887 1.16600
I 	I 	0.88566 0.74368 0.94919 -0.37800
I 	I 	0.97514 0.65440 0.86524 -0.35700
N 	N 	0.88023 0.55950 0.86222 -0.27400
C 	C 	0.85079 0.59800 0.83500 0.07900
H 	H 	0.84530 0.65910 0.84030 -0.01600
C 	C 	0.82747 0.55430 0.79930 -0.13200
H 	H 	0.80680 0.58510 0.78000 0.07600
C 	C 	0.83439 0.46510 0.79160 0.06300
C 	C 	0.86400 0.42350 0.82190 -0.12800
H 	H 	0.86880 0.36130 0.81930 0.09500
C 	C 	0.88620 0.47290 0.85550 0.08100
H 	H 	0.90710 0.44400 0.87540 -0.00700
N 	N 	0.66997 0.53590 0.60208 -0.26500
C 	C 	0.69018 0.57800 0.63850 0.07000
H 	H 	0.68370 0.63820 0.64410 -0.00200
C 	C 	0.71998 0.53780 0.66830 -0.12100
H 	H 	0.73430 0.57030 0.69350 0.08600
C 	C 	0.72910 0.44850 0.66140 0.04100
C 	C 	0.70817 0.40440 0.62370 -0.11000
H 	H 	0.71370 0.34370 0.61780 0.08200
C 	C 	0.67893 0.45060 0.59460 0.06200
H 	H 	0.66470 0.42060 0.56850 0.00200
N 	N 	0.81447 0.99930 0.72257 -0.26800
C 	C 	0.84050 0.05490 0.74740 0.06300
H 	H 	0.86260 0.03030 0.76730 -0.01100
C 	C 	0.83610 0.14750 0.74490 -0.11700
H 	H 	0.85530 0.18570 0.76200 0.08200
C 	C 	0.80346 0.18290 0.71710 0.05800
C 	C 	0.77735 0.12550 0.69120 -0.12300
H 	H 	0.75510 0.14820 0.67080 0.07900
C 	C 	0.78378 0.03390 0.69530 0.07300
H 	H 	0.76530 0.99460 0.67770 -0.01300
C 	C 	0.81071 0.41330 0.75385 0.09800
N 	N 	0.78123 0.45450 0.72688 -0.14400
C 	C 	0.76141 0.40360 0.69362 0.08900
N 	N 	0.76738 0.31660 0.68708 -0.14200
C 	C 	0.79682 0.28160 0.71770 0.10200
N 	N 	0.82037 0.32680 0.75010 -0.13500
N 	N 	0.58103 0.51350 0.55293 -0.26000
C 	C 	0.56740 0.50140 0.59110 0.07500
H 	H 	0.57990 0.53140 0.61820 -0.01200
C 	C 	0.53580 0.44670 0.59310 -0.11900
H 	H 	0.52610 0.44040 0.62070 0.08300
C 	C 	0.51859 0.40130 0.55360 0.04800
C 	C 	0.53331 0.41180 0.51480 -0.11300
H 	H 	0.52190 0.38060 0.48760 0.07700
C 	C 	0.56502 0.46820 0.51490 0.06500
H 	H 	0.57540 0.47470 0.48790 -0.00300
N 	N 	0.35999 0.34390 0.68139 -0.27300
C 	C 	0.39290 0.39020 0.68460 0.08000
H 	H 	0.39900 0.43410 0.70810 -0.01700
C 	C 	0.41860 0.37730 0.65540 -0.12100
H 	H 	0.44200 0.41130 0.65880 0.08400
C 	C 	0.40981 0.31420 0.62120 0.06400
C 	C 	0.37500 0.26660 0.61720 -0.11700
H 	H 	0.36780 0.22280 0.59390 0.08000
C 	C 	0.35110 0.28480 0.64800 0.07500
H 	H 	0.32720 0.25320 0.64510 -0.01600
N 	N 	0.43837 0.97290 0.45486 -0.26700
C 	C 	0.46636 0.03140 0.45064 0.07200
H 	H 	0.48280 0.01840 0.42950 -0.00600
C 	C 	0.47257 0.10940 0.47538 -0.11800
H 	H 	0.49270 0.14960 0.47120 0.07300
C 	C 	0.44901 0.12830 0.50644 0.04800
C 	C 	0.42110 0.06670 0.51280 -0.10900
H 	H 	0.40520 0.07750 0.53470 0.07800
C 	C 	0.41650 0.98960 0.48720 0.05200
H 	H 	0.39770 0.94680 0.49210 -0.00600
C 	C 	0.48563 0.33980 0.55579 0.09000
N 	N 	0.46410 0.35660 0.58718 -0.13700
C 	C 	0.43576 0.29820 0.58850 0.09900
N 	N 	0.42955 0.22340 0.56277 -0.13800
C 	C 	0.45327 0.21320 0.53343 0.09000
Zn	Zn	0.62718 0.60060 0.55617 0.54500
N 	N 	0.48094 0.27080 0.52677 -0.14900
Zn	Zn	0.82640 0.86350 0.73010 0.55800
I 	I 	0.60689 0.73858 0.59365 -0.27200
I 	I 	0.65064 0.58931 0.48145 -0.05500
I 	I 	0.76497 0.77170 0.70192 -0.08000
I 	I 	0.86745 0.84268 0.80924 -0.30200
Zn	Zn	0.63010 0.59610 0.55090 0.55400
I 	I 	0.61610 0.74240 0.58380 -0.07400
I 	I 	0.65270 0.57320 0.47440 -0.26700
Zn	Zn	0.82020 0.86100 0.72440 0.56400
I 	I 	0.75690 0.78690 0.69090 -0.26400
I 	I 	0.86390 0.83210 0.79840 -0.06200
Zn	Zn	0.42093 0.13095 0.90887 1.16500
I 	I 	0.38566 0.24368 0.94919 -0.37900
I 	I 	0.47514 0.15440 0.86524 -0.35700
N 	N 	0.38023 0.05950 0.86222 -0.27400
C 	C 	0.35079 0.09800 0.83500 0.07900
H 	H 	0.34530 0.15910 0.84030 -0.01600
C 	C 	0.32747 0.05430 0.79930 -0.13300
H 	H 	0.30680 0.08510 0.78000 0.07600
C 	C 	0.33439 0.96510 0.79160 0.06400
C 	C 	0.36400 0.92350 0.82190 -0.12800
H 	H 	0.36880 0.86130 0.81930 0.09500
C 	C 	0.38620 0.97290 0.85550 0.08100
H 	H 	0.40710 0.94400 0.87540 -0.00700
N 	N 	0.16997 0.03590 0.60208 -0.26500
C 	C 	0.19018 0.07800 0.63850 0.07000
H 	H 	0.18370 0.13820 0.64410 -0.00300
C 	C 	0.21998 0.03780 0.66830 -0.12200
H 	H 	0.23430 0.07030 0.69350 0.08600
C 	C 	0.22910 0.94850 0.66140 0.04200
C 	C 	0.20817 0.90440 0.62370 -0.11000
H 	H 	0.21370 0.84370 0.61780 0.08200
C 	C 	0.17893 0.95060 0.59460 0.06200
H 	H 	0.16470 0.92060 0.56850 0.00200
N 	N 	0.31447 0.49930 0.72257 -0.26800
C 	C 	0.34050 0.55490 0.74740 0.06300
H 	H 	0.36260 0.53030 0.76730 -0.01100
C 	C 	0.33610 0.64750 0.74490 -0.11700
H 	H 	0.35530 0.68570 0.76200 0.08200
C 	C 	0.30346 0.68290 0.71710 0.05800
C 	C 	0.27735 0.62550 0.69120 -0.12300
H 	H 	0.25510 0.64820 0.67080 0.07900
C 	C 	0.28378 0.53390 0.69530 0.07400
H 	H 	0.26530 0.49460 0.67770 -0.01300
C 	C 	0.31071 0.91330 0.75385 0.09800
N 	N 	0.28123 0.95450 0.72688 -0.14400
C 	C 	0.26141 0.90360 0.69362 0.08900
N 	N 	0.26738 0.81660 0.68708 -0.14200
C 	C 	0.29682 0.78160 0.71770 0.10200
N 	N 	0.32037 0.82680 0.75010 -0.13500
N 	N 	0.08103 0.01350 0.55293 -0.26000
C 	C 	0.06740 0.00140 0.59110 0.07500
H 	H 	0.07990 0.03140 0.61820 -0.01200
C 	C 	0.03580 0.94670 0.59310 -0.11800
H 	H 	0.02610 0.94040 0.62070 0.08300
C 	C 	0.01859 0.90130 0.55360 0.04800
C 	C 	0.03331 0.91180 0.51480 -0.11300
H 	H 	0.02190 0.88060 0.48760 0.07700
C 	C 	0.06502 0.96820 0.51490 0.06500
H 	H 	0.07540 0.97470 0.48790 -0.00300
N 	N 	0.85999 0.84390 0.68139 -0.27300
C 	C 	0.89290 0.89020 0.68460 0.08000
H 	H 	0.89900 0.93410 0.70810 -0.01700
C 	C 	0.91860 0.87730 0.65540 -0.12100
H 	H 	0.94200 0.91130 0.65880 0.08400
C 	C 	0.90981 0.81420 0.62120 0.06400
C 	C 	0.87500 0.76660 0.61720 -0.11700
H 	H 	0.86780 0.72280 0.59390 0.08000
C 	C 	0.85110 0.78480 0.64800 0.07500
H 	H 	0.82720 0.75320 0.64510 -0.01600
N 	N 	0.93837 0.47290 0.45486 -0.26600
C 	C 	0.96636 0.53140 0.45064 0.07200
H 	H 	0.98280 0.51840 0.42950 -0.00600
C 	C 	0.97257 0.60940 0.47538 -0.11800
H 	H 	0.99270 0.64960 0.47120 0.07300
C 	C 	0.94901 0.62830 0.50644 0.04800
C 	C 	0.92110 0.56670 0.51280 -0.10900
H 	H 	0.90520 0.57750 0.53470 0.07800
C 	C 	0.91650 0.48960 0.48720 0.05200
H 	H 	0.89770 0.44680 0.49210 -0.00600
C 	C 	0.98563 0.83980 0.55579 0.09000
N 	N 	0.96410 0.85660 0.58718 -0.13700
C 	C 	0.93576 0.79820 0.58850 0.09900
N 	N 	0.92955 0.72340 0.56277 -0.13800
C 	C 	0.95327 0.71320 0.53343 0.09000
Zn	Zn	0.12718 0.10060 0.55617 0.54500
N 	N 	0.98094 0.77080 0.52677 -0.14900
Zn	Zn	0.32640 0.36350 0.73010 0.55800
I 	I 	0.10689 0.23858 0.59365 -0.27200
I 	I 	0.15064 0.08931 0.48145 -0.05500
I 	I 	0.26497 0.27170 0.70192 -0.08000
I 	I 	0.36745 0.34268 0.80924 -0.30200
Zn	Zn	0.13010 0.09610 0.55090 0.55400
I 	I 	0.11610 0.24240 0.58380 -0.07400
I 	I 	0.15270 0.07320 0.47440 -0.26700
Zn	Zn	0.32020 0.36100 0.72440 0.56400
I 	I 	0.25690 0.28690 0.69090 -0.26400
I 	I 	0.36390 0.33210 0.79840 -0.06200
Zn	Zn	0.92093 0.36905 0.40887 1.16500
I 	I 	0.88566 0.25632 0.44919 -0.37900
I 	I 	0.97514 0.34560 0.36524 -0.35700
N 	N 	0.88023 0.44050 0.36222 -0.27400
C 	C 	0.85079 0.40200 0.33500 0.07900
H 	H 	0.84530 0.34090 0.34030 -0.01600
C 	C 	0.82747 0.44570 0.29930 -0.13200
H 	H 	0.80680 0.41490 0.28000 0.07600
C 	C 	0.83439 0.53490 0.29160 0.06300
C 	C 	0.86400 0.57650 0.32190 -0.12800
H 	H 	0.86880 0.63870 0.31930 0.09500
C 	C 	0.88620 0.52710 0.35550 0.08100
H 	H 	0.90710 0.55600 0.37540 -0.00700
N 	N 	0.66997 0.46410 0.10208 -0.26500
C 	C 	0.69018 0.42200 0.13850 0.07000
H 	H 	0.68370 0.36180 0.14410 -0.00200
C 	C 	0.71998 0.46220 0.16830 -0.12100
H 	H 	0.73430 0.42970 0.19350 0.08600
C 	C 	0.72910 0.55150 0.16140 0.04100
C 	C 	0.70817 0.59560 0.12370 -0.11000
H 	H 	0.71370 0.65630 0.11780 0.08200
C 	C 	0.67893 0.54940 0.09460 0.06200
H 	H 	0.66470 0.57940 0.06850 0.00200
N 	N 	0.81447 0.00070 0.22257 -0.26800
C 	C 	0.84050 0.94510 0.24740 0.06300
H 	H 	0.86260 0.96970 0.26730 -0.01100
C 	C 	0.83610 0.85250 0.24490 -0.11700
H 	H 	0.85530 0.81430 0.26200 0.08200
C 	C 	0.80346 0.81710 0.21710 0.05800
C 	C 	0.77735 0.87450 0.19120 -0.12300
H 	H 	0.75510 0.85180 0.17080 0.07800
C 	C 	0.78378 0.96610 0.19530 0.07300
H 	H 	0.76530 0.00540 0.17770 -0.01300
C 	C 	0.81071 0.58670 0.25385 0.09800
N 	N 	0.78123 0.54550 0.22688 -0.14400
C 	C 	0.76141 0.59640 0.19362 0.08900
N 	N 	0.76738 0.68340 0.18708 -0.14200
C 	C 	0.79682 0.71840 0.21770 0.10200
N 	N 	0.82037 0.67320 0.25010 -0.13500
N 	N 	0.58103 0.48650 0.05293 -0.26000
C 	C 	0.56740 0.49860 0.09110 0.07500
H 	H 	0.57990 0.46860 0.11820 -0.01200
C 	C 	0.53580 0.55330 0.09310 -0.11900
H 	H 	0.52610 0.55960 0.12070 0.08300
C 	C 	0.51859 0.59870 0.05360 0.04800
C 	C 	0.53331 0.58820 0.01480 -0.11300
H 	H 	0.52190 0.61940 0.98760 0.07700
C 	C 	0.56502 0.53180 0.01490 0.06500
H 	H 	0.57540 0.52530 0.98790 -0.00300
N 	N 	0.35999 0.65610 0.18139 -0.27300
C 	C 	0.39290 0.60980 0.18460 0.08000
H 	H 	0.39900 0.56590 0.20810 -0.01700
C 	C 	0.41860 0.62270 0.15540 -0.12100
H 	H 	0.44200 0.58870 0.15880 0.08400
C 	C 	0.40981 0.68580 0.12120 0.06400
C 	C 	0.37500 0.73340 0.11720 -0.11700
H 	H 	0.36780 0.77720 0.09390 0.08000
C 	C 	0.35110 0.71520 0.14800 0.07500
H 	H 	0.32720 0.74680 0.14510 -0.01600
N 	N 	0.43837 0.02710 0.95486 -0.26700
C 	C 	0.46636 0.96860 0.95064 0.07200
H 	H 	0.48280 0.98160 0.92950 -0.00600
C 	C 	0.47257 0.89060 0.97538 -0.11800
H 	H 	0.49270 0.85040 0.97120 0.07300
C 	C 	0.44901 0.87170 0.00644 0.04800
C 	C 	0.42110 0.93330 0.01280 -0.10900
H 	H 	0.40520 0.92250 0.03470 0.07700
C 	C 	0.41650 0.01040 0.98720 0.05200
H 	H 	0.39770 0.05320 0.99210 -0.00600
C 	C 	0.48563 0.66020 0.05579 0.09000
N 	N 	0.46410 0.64340 0.08718 -0.13700
C 	C 	0.43576 0.70180 0.08850 0.09900
N 	N 	0.42955 0.77660 0.06277 -0.13800
C 	C 	0.45327 0.78680 0.03343 0.09000
Zn	Zn	0.62718 0.39940 0.05617 0.54500
N 	N 	0.48094 0.72920 0.02677 -0.14900
Zn	Zn	0.82640 0.13650 0.23010 0.55800
I 	I 	0.60689 0.26142 0.09365 -0.27200
I 	I 	0.65064 0.41069 0.98145 -0.05500
I 	I 	0.76497 0.22830 0.20192 -0.08000
I 	I 	0.86745 0.15732 0.30924 -0.30200
Zn	Zn	0.63010 0.40390 0.05090 0.55400
I 	I 	0.61610 0.25760 0.08380 -0.07400
I 	I 	0.65270 0.42680 0.97440 -0.26700
Zn	Zn	0.82020 0.13900 0.22440 0.56400
I 	I 	0.75690 0.21310 0.19090 -0.26400
I 	I 	0.86390 0.16790 0.29840 -0.06200
Zn	Zn	0.42093 0.86905 0.40887 1.16500
I 	I 	0.38566 0.75632 0.44919 -0.37900
I 	I 	0.47514 0.84560 0.36524 -0.35700
N 	N 	0.38023 0.94050 0.36222 -0.27400
C 	C 	0.35079 0.90200 0.33500 0.07900
H 	H 	0.34530 0.84090 0.34030 -0.01600
C 	C 	0.32747 0.94570 0.29930 -0.13300
H 	H 	0.30680 0.91490 0.28000 0.07600
C 	C 	0.33439 0.03490 0.29160 0.06400
C 	C 	0.36400 0.07650 0.32190 -0.12800
H 	H 	0.36880 0.13870 0.31930 0.09500
C 	C 	0.38620 0.02710 0.35550 0.08100
H 	H 	0.40710 0.05600 0.37540 -0.00700
N 	N 	0.16997 0.96410 0.10208 -0.26500
C 	C 	0.19018 0.92200 0.13850 0.07000
H 	H 	0.18370 0.86180 0.14410 -0.00300
C 	C 	0.21998 0.96220 0.16830 -0.12200
H 	H 	0.23430 0.92970 0.19350 0.08600
C 	C 	0.22910 0.05150 0.16140 0.04200
C 	C 	0.20817 0.09560 0.12370 -0.11000
H 	H 	0.21370 0.15630 0.11780 0.08200
C 	C 	0.17893 0.04940 0.09460 0.06300
H 	H 	0.16470 0.07940 0.06850 0.00200
N 	N 	0.31447 0.50070 0.22257 -0.26800
C 	C 	0.34050 0.44510 0.24740 0.06300
H 	H 	0.36260 0.46970 0.26730 -0.01100
C 	C 	0.33610 0.35250 0.24490 -0.11700
H 	H 	0.35530 0.31430 0.26200 0.08200
C 	C 	0.30346 0.31710 0.21710 0.05800
C 	C 	0.27735 0.37450 0.19120 -0.12300
H 	H 	0.25510 0.35180 0.17080 0.07900
C 	C 	0.28378 0.46610 0.19530 0.07400
H 	H 	0.26530 0.50540 0.17770 -0.01300
C 	C 	0.31071 0.08670 0.25385 0.09800
N 	N 	0.28123 0.04550 0.22688 -0.14400
C 	C 	0.26141 0.09640 0.19362 0.08900
N 	N 	0.26738 0.18340 0.18708 -0.14200
C 	C 	0.29682 0.21840 0.21770 0.10200
N 	N 	0.32037 0.17320 0.25010 -0.13500
N 	N 	0.08103 0.98650 0.05293 -0.26000
C 	C 	0.06740 0.99860 0.09110 0.07400
H 	H 	0.07990 0.96860 0.11820 -0.01100
C 	C 	0.03580 0.05330 0.09310 -0.11800
H 	H 	0.02610 0.05960 0.12070 0.08300
C 	C 	0.01859 0.09870 0.05360 0.04800
C 	C 	0.03331 0.08820 0.01480 -0.11300
H 	H 	0.02190 0.11940 0.98760 0.07700
C 	C 	0.06502 0.03180 0.01490 0.06600
H 	H 	0.07540 0.02530 0.98790 -0.00300
N 	N 	0.85999 0.15610 0.18139 -0.27300
C 	C 	0.89290 0.10980 0.18460 0.08000
H 	H 	0.89900 0.06590 0.20810 -0.01700
C 	C 	0.91860 0.12270 0.15540 -0.12100
H 	H 	0.94200 0.08870 0.15880 0.08400
C 	C 	0.90981 0.18580 0.12120 0.06400
C 	C 	0.87500 0.23340 0.11720 -0.11700
H 	H 	0.86780 0.27720 0.09390 0.08000
C 	C 	0.85110 0.21520 0.14800 0.07500
H 	H 	0.82720 0.24680 0.14510 -0.01600
N 	N 	0.93837 0.52710 0.95486 -0.26700
C 	C 	0.96636 0.46860 0.95064 0.07200
H 	H 	0.98280 0.48160 0.92950 -0.00600
C 	C 	0.97257 0.39060 0.97538 -0.11800
H 	H 	0.99270 0.35040 0.97120 0.07300
C 	C 	0.94901 0.37170 0.00644 0.04900
C 	C 	0.92110 0.43330 0.01280 -0.10900
H 	H 	0.90520 0.42250 0.03470 0.07800
C 	C 	0.91650 0.51040 0.98720 0.05200
H 	H 	0.89770 0.55320 0.99210 -0.00600
C 	C 	0.98563 0.16020 0.05579 0.09000
N 	N 	0.96410 0.14340 0.08718 -0.13700
C 	C 	0.93576 0.20180 0.08850 0.09900
N 	N 	0.92955 0.27660 0.06277 -0.13800
C 	C 	0.95327 0.28680 0.03343 0.09000
Zn	Zn	0.12718 0.89940 0.05617 0.54400
N 	N 	0.98094 0.22920 0.02677 -0.14900
Zn	Zn	0.32640 0.63650 0.23010 0.55800
I 	I 	0.10689 0.76142 0.09365 -0.27200
I 	I 	0.15064 0.91069 0.98145 -0.05500
I 	I 	0.26497 0.72830 0.20192 -0.08000
I 	I 	0.36745 0.65732 0.30924 -0.30200
Zn	Zn	0.13010 0.90390 0.05090 0.55400
I 	I 	0.11610 0.75760 0.08380 -0.07400
I 	I 	0.15270 0.92680 0.97440 -0.26700
Zn	Zn	0.32020 0.63900 0.22440 0.56400
I 	I 	0.25690 0.71310 0.19090 -0.26400
I 	I 	0.36390 0.66790 0.29840 -0.06200
Zn	Zn	0.07907 0.63095 0.59113 1.16500
I 	I 	0.11434 0.74368 0.55081 -0.37900
I 	I 	0.02486 0.65440 0.63476 -0.35700
N 	N 	0.11977 0.55950 0.63778 -0.27400
C 	C 	0.14921 0.59800 0.66500 0.07900
H 	H 	0.15470 0.65910 0.65970 -0.01600
C 	C 	0.17253 0.55430 0.70070 -0.13200
H 	H 	0.19320 0.58510 0.72000 0.07600
C 	C 	0.16561 0.46510 0.70840 0.06300
C 	C 	0.13600 0.42350 0.67810 -0.12800
H 	H 	0.13120 0.36130 0.68070 0.09500
C 	C 	0.11380 0.47290 0.64450 0.08100
H 	H 	0.09290 0.44400 0.62460 -0.00700
N 	N 	0.33003 0.53590 0.89792 -0.26500
C 	C 	0.30982 0.57800 0.86150 0.07000
H 	H 	0.31630 0.63820 0.85590 -0.00200
C 	C 	0.28002 0.53780 0.83170 -0.12100
H 	H 	0.26570 0.57030 0.80650 0.08600
C 	C 	0.27090 0.44850 0.83860 0.04100
C 	C 	0.29183 0.40440 0.87630 -0.11000
H 	H 	0.28630 0.34370 0.88220 0.08200
C 	C 	0.32107 0.45060 0.90540 0.06200
H 	H 	0.33530 0.42060 0.93150 0.00200
N 	N 	0.18553 0.99930 0.77743 -0.26800
C 	C 	0.15950 0.05490 0.75260 0.06300
H 	H 	0.13740 0.03030 0.73270 -0.01100
C 	C 	0.16390 0.14750 0.75510 -0.11700
H 	H 	0.14470 0.18570 0.73800 0.08200
C 	C 	0.19654 0.18290 0.78290 0.05800
C 	C 	0.22265 0.12550 0.80880 -0.12300
H 	H 	0.24490 0.14820 0.82920 0.07800
C 	C 	0.21622 0.03390 0.80470 0.07300
H 	H 	0.23470 0.99460 0.82230 -0.01300
C 	C 	0.18929 0.41330 0.74615 0.09800
N 	N 	0.21877 0.45450 0.77312 -0.14400
C 	C 	0.23859 0.40360 0.80638 0.08900
N 	N 	0.23262 0.31660 0.81292 -0.14200
C 	C 	0.20318 0.28160 0.78230 0.10200
N 	N 	0.17963 0.32680 0.74990 -0.13500
N 	N 	0.41897 0.51350 0.94707 -0.26000
C 	C 	0.43260 0.50140 0.90890 0.07500
H 	H 	0.42010 0.53140 0.88180 -0.01200
C 	C 	0.46420 0.44670 0.90690 -0.11900
H 	H 	0.47390 0.44040 0.87930 0.08300
C 	C 	0.48141 0.40130 0.94640 0.04800
C 	C 	0.46669 0.41180 0.98520 -0.11300
H 	H 	0.47810 0.38060 0.01240 0.07700
C 	C 	0.43498 0.46820 0.98510 0.06500
H 	H 	0.42460 0.47470 0.01210 -0.00300
N 	N 	0.64001 0.34390 0.81861 -0.27300
C 	C 	0.60710 0.39020 0.81540 0.08000
H 	H 	0.60100 0.43410 0.79190 -0.01700
C 	C 	0.58140 0.37730 0.84460 -0.12100
H 	H 	0.55800 0.41130 0.84120 0.08400
C 	C 	0.59019 0.31420 0.87880 0.06400
C 	C 	0.62500 0.26660 0.88280 -0.11700
H 	H 	0.63220 0.22280 0.90610 0.08000
C 	C 	0.64890 0.28480 0.85200 0.07500
H 	H 	0.67280 0.25320 0.85490 -0.01600
N 	N 	0.56163 0.97290 0.04514 -0.26700
C 	C 	0.53364 0.03140 0.04936 0.07200
H 	H 	0.51720 0.01840 0.07050 -0.00600
C 	C 	0.52743 0.10940 0.02462 -0.11800
H 	H 	0.50730 0.14960 0.02880 0.07300
C 	C 	0.55099 0.12830 0.99356 0.04800
C 	C 	0.57890 0.06670 0.98720 -0.10900
H 	H 	0.59480 0.07750 0.96530 0.07700
C 	C 	0.58350 0.98960 0.01280 0.05200
H 	H 	0.60230 0.94680 0.00790 -0.00600
C 	C 	0.51437 0.33980 0.94421 0.09000
N 	N 	0.53590 0.35660 0.91282 -0.13700
C 	C 	0.56424 0.29820 0.91150 0.09900
N 	N 	0.57045 0.22340 0.93723 -0.13800
C 	C 	0.54673 0.21320 0.96657 0.09000
Zn	Zn	0.37282 0.60060 0.94383 0.54500
N 	N 	0.51906 0.27080 0.97323 -0.14900
Zn	Zn	0.17360 0.86350 0.76990 0.55800
I 	I 	0.39311 0.73858 0.90635 -0.27200
I 	I 	0.34936 0.58931 0.01855 -0.05500
I 	I 	0.23503 0.77170 0.79808 -0.08000
I 	I 	0.13255 0.84268 0.69076 -0.30200
Zn	Zn	0.36990 0.59610 0.94910 0.55400
I 	I 	0.38390 0.74240 0.91620 -0.07400
I 	I 	0.34730 0.57320 0.02560 -0.26700
Zn	Zn	0.17980 0.86100 0.77560 0.56400
I 	I 	0.24310 0.78690 0.80910 -0.26400
I 	I 	0.13610 0.83210 0.70160 -0.06200
Zn	Zn	0.57907 0.13095 0.59113 1.16500
I 	I 	0.61434 0.24368 0.55081 -0.37900
I 	I 	0.52486 0.15440 0.63476 -0.35700
N 	N 	0.61977 0.05950 0.63778 -0.27400
C 	C 	0.64921 0.09800 0.66500 0.07900
H 	H 	0.65470 0.15910 0.65970 -0.01600
C 	C 	0.67253 0.05430 0.70070 -0.13300
H 	H 	0.69320 0.08510 0.72000 0.07600
C 	C 	0.66561 0.96510 0.70840 0.06400
C 	C 	0.63600 0.92350 0.67810 -0.12800
H 	H 	0.63120 0.86130 0.68070 0.09500
C 	C 	0.61380 0.97290 0.64450 0.08100
H 	H 	0.59290 0.94400 0.62460 -0.00700
N 	N 	0.83003 0.03590 0.89792 -0.26500
C 	C 	0.80982 0.07800 0.86150 0.07000
H 	H 	0.81630 0.13820 0.85590 -0.00300
C 	C 	0.78002 0.03780 0.83170 -0.12200
H 	H 	0.76570 0.07030 0.80650 0.08600
C 	C 	0.77090 0.94850 0.83860 0.04200
C 	C 	0.79183 0.90440 0.87630 -0.11000
H 	H 	0.78630 0.84370 0.88220 0.08200
C 	C 	0.82107 0.95060 0.90540 0.06300
H 	H 	0.83530 0.92060 0.93150 0.00200
N 	N 	0.68553 0.49930 0.77743 -0.26800
C 	C 	0.65950 0.55490 0.75260 0.06300
H 	H 	0.63740 0.53030 0.73270 -0.01100
C 	C 	0.66390 0.64750 0.75510 -0.11700
H 	H 	0.64470 0.68570 0.73800 0.08200
C 	C 	0.69654 0.68290 0.78290 0.05800
C 	C 	0.72265 0.62550 0.80880 -0.12300
H 	H 	0.74490 0.64820 0.82920 0.07900
C 	C 	0.71622 0.53390 0.80470 0.07400
H 	H 	0.73470 0.49460 0.82230 -0.01300
C 	C 	0.68929 0.91330 0.74615 0.09800
N 	N 	0.71877 0.95450 0.77312 -0.14400
C 	C 	0.73859 0.90360 0.80638 0.08900
N 	N 	0.73262 0.81660 0.81292 -0.14200
C 	C 	0.70318 0.78160 0.78230 0.10200
N 	N 	0.67963 0.82680 0.74990 -0.13500
N 	N 	0.91897 0.01350 0.94707 -0.26000
C 	C 	0.93260 0.00140 0.90890 0.07400
H 	H 	0.92010 0.03140 0.88180 -0.01100
C 	C 	0.96420 0.94670 0.90690 -0.11800
H 	H 	0.97390 0.94040 0.87930 0.08300
C 	C 	0.98141 0.90130 0.94640 0.04800
C 	C 	0.96669 0.91180 0.98520 -0.11300
H 	H 	0.97810 0.88060 0.01240 0.07700
C 	C 	0.93498 0.96820 0.98510 0.06600
H 	H 	0.92460 0.97470 0.01210 -0.00300
N 	N 	0.14001 0.84390 0.81861 -0.27300
C 	C 	0.10710 0.89020 0.81540 0.08000
H 	H 	0.10100 0.93410 0.79190 -0.01700
C 	C 	0.08140 0.87730 0.84460 -0.12100
H 	H 	0.05800 0.91130 0.84120 0.08400
C 	C 	0.09019 0.81420 0.87880 0.06400
C 	C 	0.12500 0.76660 0.88280 -0.11700
H 	H 	0.13220 0.72280 0.90610 0.08000
C 	C 	0.14890 0.78480 0.85200 0.07500
H 	H 	0.17280 0.75320 0.85490 -0.01600
N 	N 	0.06163 0.47290 0.04514 -0.26700
C 	C 	0.03364 0.53140 0.04936 0.07200
H 	H 	0.01720 0.51840 0.07050 -0.00600
C 	C 	0.02743 0.60940 0.02462 -0.11800
H 	H 	0.00730 0.64960 0.02880 0.07300
C 	C 	0.05099 0.62830 0.99356 0.04900
C 	C 	0.07890 0.56670 0.98720 -0.10900
H 	H 	0.09480 0.57750 0.96530 0.07800
C 	C 	0.08350 0.48960 0.01280 0.05200
H 	H 	0.10230 0.44680 0.00790 -0.00600
C 	C 	0.01437 0.83980 0.94421 0.09000
N 	N 	0.03590 0.85660 0.91282 -0.13700
C 	C 	0.06424 0.79820 0.91150 0.09900
N 	N 	0.07045 0.72340 0.93723 -0.13800
C 	C 	0.04673 0.71320 0.96657 0.09000
Zn	Zn	0.87282 0.10060 0.94383 0.54400
N 	N 	0.01906 0.77080 0.97323 -0.14900
Zn	Zn	0.67360 0.36350 0.76990 0.55800
I 	I 	0.89311 0.23858 0.90635 -0.27200
I 	I 	0.84936 0.08931 0.01855 -0.05500
I 	I 	0.73503 0.27170 0.79808 -0.08000
I 	I 	0.63255 0.34268 0.69076 -0.30200
Zn	Zn	0.86990 0.09610 0.94910 0.55400
I 	I 	0.88390 0.24240 0.91620 -0.07400
I 	I 	0.84730 0.07320 0.02560 -0.26700
Zn	Zn	0.67980 0.36100 0.77560 0.56400
I 	I 	0.74310 0.28690 0.80910 -0.26400
I 	I 	0.63610 0.33210 0.70160 -0.06200
Zn	Zn	0.07907 0.36905 0.09113 1.16500
I 	I 	0.11434 0.25632 0.05081 -0.37900
I 	I 	0.02486 0.34560 0.13476 -0.35700
N 	N 	0.11977 0.44050 0.13778 -0.27400
C 	C 	0.14921 0.40200 0.16500 0.07900
H 	H 	0.15470 0.34090 0.15970 -0.01600
C 	C 	0.17253 0.44570 0.20070 -0.13200
H 	H 	0.19320 0.41490 0.22000 0.07600
C 	C 	0.16561 0.53490 0.20840 0.06300
C 	C 	0.13600 0.57650 0.17810 -0.12800
H 	H 	0.13120 0.63870 0.18070 0.09500
C 	C 	0.11380 0.52710 0.14450 0.08100
H 	H 	0.09290 0.55600 0.12460 -0.00700
N 	N 	0.33003 0.46410 0.39792 -0.26500
C 	C 	0.30982 0.42200 0.36150 0.07000
H 	H 	0.31630 0.36180 0.35590 -0.00200
C 	C 	0.28002 0.46220 0.33170 -0.12100
H 	H 	0.26570 0.42970 0.30650 0.08600
C 	C 	0.27090 0.55150 0.33860 0.04100
C 	C 	0.29183 0.59560 0.37630 -0.11000
H 	H 	0.28630 0.65630 0.38220 0.08200
C 	C 	0.32107 0.54940 0.40540 0.06200
H 	H 	0.33530 0.57940 0.43150 0.00200
N 	N 	0.18553 0.00070 0.27743 -0.26800
C 	C 	0.15950 0.94510 0.25260 0.06300
H 	H 	0.13740 0.96970 0.23270 -0.01100
C 	C 	0.16390 0.85250 0.25510 -0.11700
H 	H 	0.14470 0.81430 0.23800 0.08200
C 	C 	0.19654 0.81710 0.28290 0.05800
C 	C 	0.22265 0.87450 0.30880 -0.12300
H 	H 	0.24490 0.85180 0.32920 0.07900
C 	C 	0.21622 0.96610 0.30470 0.07300
H 	H 	0.23470 0.00540 0.32230 -0.01300
C 	C 	0.18929 0.58670 0.24615 0.09800
N 	N 	0.21877 0.54550 0.27312 -0.14400
C 	C 	0.23859 0.59640 0.30638 0.08900
N 	N 	0.23262 0.68340 0.31292 -0.14200
C 	C 	0.20318 0.71840 0.28230 0.10200
N 	N 	0.17963 0.67320 0.24990 -0.13500
N 	N 	0.41897 0.48650 0.44707 -0.26000
C 	C 	0.43260 0.49860 0.40890 0.07500
H 	H 	0.42010 0.46860 0.38180 -0.01200
C 	C 	0.46420 0.55330 0.40690 -0.11900
H 	H 	0.47390 0.55960 0.37930 0.08300
C 	C 	0.48141 0.59870 0.44640 0.04800
C 	C 	0.46669 0.58820 0.48520 -0.11300
H 	H 	0.47810 0.61940 0.51240 0.07700
C 	C 	0.43498 0.53180 0.48510 0.06500
H 	H 	0.42460 0.52530 0.51210 -0.00300
N 	N 	0.64001 0.65610 0.31861 -0.27300
C 	C 	0.60710 0.60980 0.31540 0.08000
H 	H 	0.60100 0.56590 0.29190 -0.01700
C 	C 	0.58140 0.62270 0.34460 -0.12100
H 	H 	0.55800 0.58870 0.34120 0.08400
C 	C 	0.59019 0.68580 0.37880 0.06400
C 	C 	0.62500 0.73340 0.38280 -0.11700
H 	H 	0.63220 0.77720 0.40610 0.08000
C 	C 	0.64890 0.71520 0.35200 0.07500
H 	H 	0.67280 0.74680 0.35490 -0.01600
N 	N 	0.56163 0.02710 0.54514 -0.26700
C 	C 	0.53364 0.96860 0.54936 0.07200
H 	H 	0.51720 0.98160 0.57050 -0.00600
C 	C 	0.52743 0.89060 0.52462 -0.11800
H 	H 	0.50730 0.85040 0.52880 0.07300
C 	C 	0.55099 0.87170 0.49356 0.04800
C 	C 	0.57890 0.93330 0.48720 -0.10900
H 	H 	0.59480 0.92250 0.46530 0.07800
C 	C 	0.58350 0.01040 0.51280 0.05200
H 	H 	0.60230 0.05320 0.50790 -0.00600
C 	C 	0.51437 0.66020 0.44421 0.09000
N 	N 	0.53590 0.64340 0.41282 -0.13700
C 	C 	0.56424 0.70180 0.41150 0.09900
N 	N 	0.57045 0.77660 0.43723 -0.13800
C 	C 	0.54673 0.78680 0.46657 0.09000
Zn	Zn	0.37282 0.39940 0.44383 0.54500
N 	N 	0.51906 0.72920 0.47323 -0.14900
Zn	Zn	0.17360 0.13650 0.26990 0.55800
I 	I 	0.39311 0.26142 0.40635 -0.27200
I 	I 	0.34936 0.41069 0.51855 -0.05500
I 	I 	0.23503 0.22830 0.29808 -0.08000
I 	I 	0.13255 0.15732 0.19076 -0.30200
Zn	Zn	0.36990 0.40390 0.44910 0.55400
I 	I 	0.38390 0.25760 0.41620 -0.07400
I 	I 	0.34730 0.42680 0.52560 -0.26700
Zn	Zn	0.17980 0.13900 0.27560 0.56400
I 	I 	0.24310 0.21310 0.30910 -0.26400
I 	I 	0.13610 0.16790 0.20160 -0.06200
Zn	Zn	0.57907 0.86905 0.09113 1.16500
I 	I 	0.61434 0.75632 0.05081 -0.37900
I 	I 	0.52486 0.84560 0.13476 -0.35700
N 	N 	0.61977 0.94050 0.13778 -0.27400
C 	C 	0.64921 0.90200 0.16500 0.07900
H 	H 	0.65470 0.84090 0.15970 -0.01600
C 	C 	0.67253 0.94570 0.20070 -0.13300
H 	H 	0.69320 0.91490 0.22000 0.07600
C 	C 	0.66561 0.03490 0.20840 0.06400
C 	C 	0.63600 0.07650 0.17810 -0.12800
H 	H 	0.63120 0.13870 0.18070 0.09500
C 	C 	0.61380 0.02710 0.14450 0.08100
H 	H 	0.59290 0.05600 0.12460 -0.00700
N 	N 	0.83003 0.96410 0.39792 -0.26500
C 	C 	0.80982 0.92200 0.36150 0.07000
H 	H 	0.81630 0.86180 0.35590 -0.00300
C 	C 	0.78002 0.96220 0.33170 -0.12200
H 	H 	0.76570 0.92970 0.30650 0.08600
C 	C 	0.77090 0.05150 0.33860 0.04200
C 	C 	0.79183 0.09560 0.37630 -0.11000
H 	H 	0.78630 0.15630 0.38220 0.08200
C 	C 	0.82107 0.04940 0.40540 0.06200
H 	H 	0.83530 0.07940 0.43150 0.00200
N 	N 	0.68553 0.50070 0.27743 -0.26800
C 	C 	0.65950 0.44510 0.25260 0.06300
H 	H 	0.63740 0.46970 0.23270 -0.01100
C 	C 	0.66390 0.35250 0.25510 -0.11700
H 	H 	0.64470 0.31430 0.23800 0.08200
C 	C 	0.69654 0.31710 0.28290 0.05800
C 	C 	0.72265 0.37450 0.30880 -0.12300
H 	H 	0.74490 0.35180 0.32920 0.07900
C 	C 	0.71622 0.46610 0.30470 0.07400
H 	H 	0.73470 0.50540 0.32230 -0.01300
C 	C 	0.68929 0.08670 0.24615 0.09800
N 	N 	0.71877 0.04550 0.27312 -0.14400
C 	C 	0.73859 0.09640 0.30638 0.08900
N 	N 	0.73262 0.18340 0.31292 -0.14200
C 	C 	0.70318 0.21840 0.28230 0.10200
N 	N 	0.67963 0.17320 0.24990 -0.13500
N 	N 	0.91897 0.98650 0.44707 -0.26000
C 	C 	0.93260 0.99860 0.40890 0.07500
H 	H 	0.92010 0.96860 0.38180 -0.01200
C 	C 	0.96420 0.05330 0.40690 -0.11800
H 	H 	0.97390 0.05960 0.37930 0.08300
C 	C 	0.98141 0.09870 0.44640 0.04800
C 	C 	0.96669 0.08820 0.48520 -0.11300
H 	H 	0.97810 0.11940 0.51240 0.07700
C 	C 	0.93498 0.03180 0.48510 0.06500
H 	H 	0.92460 0.02530 0.51210 -0.00300
N 	N 	0.14001 0.15610 0.31861 -0.27300
C 	C 	0.10710 0.10980 0.31540 0.08000
H 	H 	0.10100 0.06590 0.29190 -0.01700
C 	C 	0.08140 0.12270 0.34460 -0.12100
H 	H 	0.05800 0.08870 0.34120 0.08400
C 	C 	0.09019 0.18580 0.37880 0.06400
C 	C 	0.12500 0.23340 0.38280 -0.11700
H 	H 	0.13220 0.27720 0.40610 0.08000
C 	C 	0.14890 0.21520 0.35200 0.07500
H 	H 	0.17280 0.24680 0.35490 -0.01600
N 	N 	0.06163 0.52710 0.54514 -0.26600
C 	C 	0.03364 0.46860 0.54936 0.07200
H 	H 	0.01720 0.48160 0.57050 -0.00600
C 	C 	0.02743 0.39060 0.52462 -0.11800
H 	H 	0.00730 0.35040 0.52880 0.07300
C 	C 	0.05099 0.37170 0.49356 0.04800
C 	C 	0.07890 0.43330 0.48720 -0.10900
H 	H 	0.09480 0.42250 0.46530 0.07800
C 	C 	0.08350 0.51040 0.51280 0.05200
H 	H 	0.10230 0.55320 0.50790 -0.00600
C 	C 	0.01437 0.16020 0.44421 0.09000
N 	N 	0.03590 0.14340 0.41282 -0.13700
C 	C 	0.06424 0.20180 0.41150 0.09900
N 	N 	0.07045 0.27660 0.43723 -0.13800
C 	C 	0.04673 0.28680 0.46657 0.09000
Zn	Zn	0.87282 0.89940 0.44383 0.54500
N 	N 	0.01906 0.22920 0.47323 -0.14900
Zn	Zn	0.67360 0.63650 0.26990 0.55800
I 	I 	0.89311 0.76142 0.40635 -0.27200
I 	I 	0.84936 0.91069 0.51855 -0.05500
I 	I 	0.73503 0.72830 0.29808 -0.08000
I 	I 	0.63255 0.65732 0.19076 -0.30200
Zn	Zn	0.86990 0.90390 0.44910 0.55400
I 	I 	0.88390 0.75760 0.41620 -0.07400
I 	I 	0.84730 0.92680 0.52560 -0.26700
Zn	Zn	0.67980 0.63900 0.27560 0.56400
I 	I 	0.74310 0.71310 0.30910 -0.26400
I 	I 	0.63610 0.66790 0.20160 -0.06200
