data_crystal

_cell_length_a 34.57930
_cell_length_b 14.92920
_cell_length_c 30.62030
_cell_angle_alpha 90.00000
_cell_angle_beta  101.17900
_cell_angle_gamma 90.00000

_symmetry_space_group_name_	'P 1'
_symmetry_space_group_name_H-M	'P 1'

loop_
_symmetry_equiv_pos_as_xyz
  x,y,z

loop_
_atom_site_label
_atom_site_type_symbol
_atom_site_fract_x
_atom_site_fract_y
_atom_site_fract_z
_atom_site_charge
Zn	Zn	0.62891 0.39949 0.80643 1.16600
Zn	Zn	0.42061 0.12881 0.65791 1.16600
Zn	Zn	0.12882 0.10479 0.30784 1.16900
I 	I 	0.61281 0.25847 0.84368 -0.40100
I 	I 	0.65234 0.41064 0.73422 -0.38300
I 	I 	0.38329 0.24107 0.69567 -0.36500
I 	I 	0.47731 0.15613 0.61849 -0.34800
I 	I 	0.15276 0.09392 0.23605 -0.38000
I 	I 	0.11261 0.24681 0.34417 -0.37600
Zn	Zn	0.42233 0.87590 0.15758 -0.22000
Zn	Zn	0.32642 0.63884 0.97708 0.84000
Zn	Zn	0.32761 0.36290 0.47970 0.68400
I 	I 	0.38309 0.76383 0.19407 -0.03400
I 	I 	0.47938 0.84865 0.11990 -2.83000
I 	I 	0.37207 0.66254 0.05211 0.34600
I 	I 	0.26226 0.72342 0.94946 -1.27200
I 	I 	0.37283 0.34375 0.55565 -0.74100
I 	I 	0.26500 0.27454 0.45391 0.27100
N 	N 	0.38310 0.94270 0.10900 -0.29800
C 	C 	0.35400 0.89970 0.08050 0.07800
H 	H 	0.35060 0.83710 0.08380 0.01300
C 	C 	0.32940 0.94480 0.04680 -0.12700
H 	H 	0.30750 0.91610 0.02850 0.11000
C 	C 	0.33860 0.03880 0.04050 0.09400
C 	C 	0.36510 0.07840 0.06960 -0.17500
H 	H 	0.36820 0.14160 0.06930 0.11400
C 	C 	0.38790 0.02870 0.09980 0.13600
H 	H 	0.41020 0.05760 0.11700 -0.00900
N 	N 	0.31450 0.50590 0.97270 -0.31300
C 	C 	0.28340 0.46790 0.94300 0.04700
H 	H 	0.26520 0.50580 0.92420 -0.04100
C 	C 	0.27810 0.37500 0.94010 -0.10600
H 	H 	0.25720 0.35110 0.91860 0.08300
C 	C 	0.30230 0.31870 0.96720 0.06500
C 	C 	0.33250 0.36120 0.99980 -0.13000
H 	H 	0.35010 0.32470 0.02000 0.09100
C 	C 	0.33670 0.45060 0.00250 0.09200
H 	H 	0.35570 0.47570 0.02590 -0.02800
N 	N 	0.17060 0.96300 0.85330 -0.28600
C 	C 	0.19320 0.92010 0.88630 0.10600
H 	H 	0.18880 0.85780 0.88930 -0.03400
C 	C 	0.22180 0.95870 0.91570 -0.16100
H 	H 	0.23720 0.92470 0.93900 0.11700
C 	C 	0.22900 0.05280 0.91160 0.07500
C 	C 	0.20490 0.09690 0.87920 -0.12900
H 	H 	0.20720 0.16000 0.87670 0.10200
C 	C 	0.17630 0.05100 0.84910 0.07200
H 	H 	0.16060 0.08280 0.82520 -0.00800
C 	C 	0.31210 0.08980 0.00150 0.09900
N 	N 	0.31950 0.17550 -0.00000 -0.13200
C 	C 	0.29730 0.22220 0.96880 0.11700
N 	N 	0.26680 0.18270 0.93880 -0.13200
C 	C 	0.26340 0.10150 0.94230 0.11600
N 	N 	0.28190 0.04500 0.97380 -0.13600
N 	N 	0.35810 0.65150 0.92900 -0.30800
C 	C 	0.35060 0.72210 0.89620 0.04200
H 	H 	0.32730 0.75710 0.89410 -0.00700
C 	C 	0.37560 0.74010 0.86820 -0.09500
H 	H 	0.37090 0.79020 0.84880 0.09000
C 	C 	0.40750 0.68700 0.86780 0.08900
C 	C 	0.41350 0.61420 0.89730 -0.13200
H 	H 	0.43420 0.57270 0.89660 0.09800
C 	C 	0.38940 0.60430 0.92690 0.12000
H 	H 	0.39590 0.55800 0.94840 -0.03000
N 	N 	0.58000 0.48260 0.80230 -0.28500
C 	C 	0.56550 0.49730 0.83720 0.09800
H 	H 	0.57830 0.47060 0.86430 -0.03300
C 	C 	0.53320 0.54820 0.83810 -0.15500
H 	H 	0.52140 0.54780 0.86370 0.09100
C 	C 	0.51760 0.60030 0.80220 0.03800
C 	C 	0.53630 0.59080 0.76660 -0.14300
H 	H 	0.52730 0.62460 0.74030 0.07300
C 	C 	0.56800 0.53270 0.76830 0.08500
H 	H 	0.58110 0.53020 0.74380 -0.01400
N 	N 	0.43520 0.02500 0.70330 -0.27200
C 	C 	0.41090 0.99950 0.72940 0.10200
H 	H 	0.38810 0.03540 0.72900 -0.01800
C 	C 	0.41500 0.93220 0.75470 -0.13900
H 	H 	0.39770 0.92260 0.77480 0.09800
C 	C 	0.44650 0.86980 0.75260 0.04900
C 	C 	0.47280 0.88810 0.72530 -0.12100
H 	H 	0.49370 0.84850 0.72250 0.05000
C 	C 	0.46680 0.96810 0.70220 0.05100
H 	H 	0.48530 0.98520 0.68460 -0.00300
C 	C 	0.43190 0.70130 0.83560 0.11200
N 	N 	0.46230 0.64160 0.83290 -0.12800
C 	C 	0.48380 0.66200 0.80300 0.07300
N 	N 	0.48020 0.72490 0.77470 -0.18400
C 	C 	0.45060 0.78320 0.78190 0.07500
N 	N 	0.42720 0.77430 0.80900 -0.12200
N 	N 	0.38080 0.05760 0.61040 -0.26200
C 	C 	0.38720 0.97050 0.60730 0.04400
H 	H 	0.40470 0.93900 0.62990 0.01100
C 	C 	0.36560 0.92490 0.56690 -0.08400
H 	H 	0.37320 0.86630 0.55990 0.08200
C 	C 	0.33400 0.96720 0.53880 0.04100
C 	C 	0.33050 0.05320 0.54550 -0.11200
H 	H 	0.31240 0.08720 0.52460 0.05500
C 	C 	0.35310 0.09680 0.58320 0.07000
H 	H 	0.34740 0.15760 0.58850 -0.01900
N 	N 	0.31450 0.50250 0.47320 -0.31800
C 	C 	0.34040 0.55630 0.49700 0.08300
H 	H 	0.36340 0.53160 0.51510 -0.01600
C 	C 	0.33490 0.64970 0.49640 -0.14000
H 	H 	0.35340 0.68770 0.51460 0.09300
C 	C 	0.30320 0.68420 0.46960 0.08000
C 	C 	0.27810 0.62600 0.44200 -0.16000
H 	H 	0.25630 0.64700 0.42070 0.08900
C 	C 	0.28710 0.53280 0.44750 0.12800
H 	H 	0.27010 0.49180 0.42940 -0.05200
N 	N 	0.17020 0.03600 0.35390 -0.26300
C 	C 	0.17840 0.95170 0.34930 0.08600
H 	H 	0.16270 0.92000 0.32540 -0.00000
C 	C 	0.20780 0.90520 0.37630 -0.12400
H 	H 	0.21270 0.84410 0.37060 0.08500
C 	C 	0.23050 0.95010 0.41230 0.04100
C 	C 	0.22260 0.03860 0.41890 -0.10600
H 	H 	0.23760 0.07050 0.44330 0.07800
C 	C 	0.19290 0.08040 0.39010 0.04400
H 	H 	0.18760 0.14170 0.39490 0.02000
C 	C 	0.31120 0.91480 0.50460 0.11000
N 	N 	0.32210 0.82920 0.50050 -0.13000
C 	C 	0.29590 0.78350 0.46820 0.08600
N 	N 	0.26740 0.81540 0.43790 -0.13900
C 	C 	0.26000 0.90740 0.44470 0.06100
N 	N 	0.28300 0.95400 0.47800 -0.14700
N 	N 	0.08190 0.02010 0.30560 -0.26700
C 	C 	0.06570 0.97210 0.26760 0.05300
H 	H 	0.07680 0.97880 0.24170 0.00500
C 	C 	0.03390 0.91450 0.26620 -0.10600
H 	H 	0.02390 0.87980 0.24050 0.07800
C 	C 	0.01750 0.91000 0.30420 0.04600
C 	C 	0.03320 0.95600 0.34400 -0.11300
H 	H 	0.02420 0.94700 0.37100 0.08800
C 	C 	0.06370 0.01700 0.33970 0.07600
H 	H 	0.07170 0.05850 0.36320 -0.01200
N 	N 	0.85970 0.84040 0.42960 -0.32000
C 	C 	0.89440 0.88610 0.43350 0.06800
H 	H 	0.90150 0.92750 0.45730 -0.01700
C 	C 	0.91970 0.87430 0.40390 -0.11700
H 	H 	0.94410 0.90510 0.40810 0.08400
C 	C 	0.90860 0.81660 0.36820 0.06600
C 	C 	0.87220 0.77300 0.36470 -0.13100
H 	H 	0.86330 0.73140 0.34140 0.08800
C 	C 	0.84900 0.79330 0.39740 0.11300
H 	H 	0.82330 0.76790 0.39360 -0.04700
N 	N 	0.93750 0.48360 0.20200 -0.31700
C 	C 	0.96540 0.53740 0.20040 0.09900
H 	H 	0.98220 0.52640 0.17980 -0.00600
C 	C 	0.97220 0.61160 0.22750 -0.12800
H 	H 	0.99480 0.64760 0.22720 0.08000
C 	C 	0.94620 0.63500 0.25580 0.05000
C 	C 	0.91840 0.57850 0.25920 -0.09800
H 	H 	0.90120 0.59020 0.27920 0.07300
C 	C 	0.91340 0.49510 0.23190 0.01600
H 	H 	0.89410 0.45170 0.23520 -0.02500
C 	C 	0.98430 0.84680 0.30520 0.08600
N 	N 	0.96200 0.85970 0.33560 -0.13900
C 	C 	0.93520 0.80230 0.33630 0.10900
N 	N 	0.92670 0.72640 0.31110 -0.13500
C 	C 	0.95110 0.71550 0.28140 0.08600
N 	N 	0.97900 0.77240 0.27650 -0.14300
Zn	Zn	0.41480 0.88000 0.16200 1.28700
Zn	Zn	0.30760 0.64700 0.96360 0.84700
Zn	Zn	0.31460 0.35780 0.46630 0.68900
I 	I 	0.36820 0.77750 0.19300 -0.41600
I 	I 	0.46900 0.83600 0.14220 2.57500
I 	I 	0.24400 0.70990 0.91820 0.75800
I 	I 	0.34060 0.69240 0.03280 -0.89500
I 	I 	0.35690 0.32790 0.54290 0.29900
I 	I 	0.25240 0.28590 0.43450 -0.71600
Zn	Zn	0.12891 0.89949 0.80643 1.16500
Zn	Zn	0.92061 0.62881 0.65791 1.16500
Zn	Zn	0.62882 0.60479 0.30784 1.16800
I 	I 	0.11281 0.75847 0.84368 -0.40300
I 	I 	0.15234 0.91064 0.73422 -0.38400
I 	I 	0.88329 0.74107 0.69567 -0.36700
I 	I 	0.97731 0.65613 0.61849 -0.35000
I 	I 	0.65276 0.59392 0.23605 -0.38200
I 	I 	0.61261 0.74681 0.34417 -0.37800
Zn	Zn	0.92233 0.37590 0.15758 -0.22200
Zn	Zn	0.82642 0.13884 0.97708 0.83900
Zn	Zn	0.82761 0.86290 0.47970 0.68300
I 	I 	0.88309 0.26383 0.19407 -0.03400
I 	I 	0.97938 0.34865 0.11990 -2.83100
I 	I 	0.87207 0.16254 0.05211 0.34600
I 	I 	0.76226 0.22342 0.94946 -1.27200
I 	I 	0.87283 0.84375 0.55565 -0.74100
I 	I 	0.76500 0.77454 0.45391 0.27100
N 	N 	0.88310 0.44270 0.10900 -0.29700
C 	C 	0.85400 0.39970 0.08050 0.07700
H 	H 	0.85060 0.33710 0.08380 0.01300
C 	C 	0.82940 0.44480 0.04680 -0.12400
H 	H 	0.80750 0.41610 0.02850 0.11000
C 	C 	0.83860 0.53880 0.04050 0.09200
C 	C 	0.86510 0.57840 0.06960 -0.17300
H 	H 	0.86820 0.64160 0.06930 0.11300
C 	C 	0.88790 0.52870 0.09980 0.13400
H 	H 	0.91020 0.55760 0.11700 -0.00800
N 	N 	0.81450 0.00590 0.97270 -0.31200
C 	C 	0.78340 0.96790 0.94300 0.04300
H 	H 	0.76520 0.00580 0.92420 -0.03900
C 	C 	0.77810 0.87500 0.94010 -0.10300
H 	H 	0.75720 0.85110 0.91860 0.08200
C 	C 	0.80230 0.81870 0.96720 0.06400
C 	C 	0.83250 0.86120 0.99980 -0.12900
H 	H 	0.85010 0.82470 0.02000 0.09000
C 	C 	0.83670 0.95060 0.00250 0.09000
H 	H 	0.85570 0.97570 0.02590 -0.02800
N 	N 	0.67060 0.46300 0.85330 -0.28500
C 	C 	0.69320 0.42010 0.88630 0.10400
H 	H 	0.68880 0.35780 0.88930 -0.03300
C 	C 	0.72180 0.45870 0.91570 -0.15800
H 	H 	0.73720 0.42470 0.93900 0.11700
C 	C 	0.72900 0.55280 0.91160 0.07200
C 	C 	0.70490 0.59690 0.87920 -0.12800
H 	H 	0.70720 0.66000 0.87670 0.10100
C 	C 	0.67630 0.55100 0.84910 0.07000
H 	H 	0.66060 0.58280 0.82520 -0.00700
C 	C 	0.81210 0.58980 0.00150 0.10000
N 	N 	0.81950 0.67550 -0.00000 -0.13200
C 	C 	0.79730 0.72220 0.96880 0.11800
N 	N 	0.76680 0.68270 0.93880 -0.13200
C 	C 	0.76340 0.60150 0.94230 0.11600
N 	N 	0.78190 0.54500 0.97380 -0.13600
N 	N 	0.85810 0.15150 0.92900 -0.30800
C 	C 	0.85060 0.22210 0.89620 0.04200
H 	H 	0.82730 0.25710 0.89410 -0.00700
C 	C 	0.87560 0.24010 0.86820 -0.09500
H 	H 	0.87090 0.29020 0.84880 0.09000
C 	C 	0.90750 0.18700 0.86780 0.08900
C 	C 	0.91350 0.11420 0.89730 -0.13200
H 	H 	0.93420 0.07270 0.89660 0.09800
C 	C 	0.88940 0.10430 0.92690 0.12000
H 	H 	0.89590 0.05800 0.94840 -0.03000
N 	N 	0.08000 0.98260 0.80230 -0.28500
C 	C 	0.06550 0.99730 0.83720 0.09600
H 	H 	0.07830 0.97060 0.86430 -0.03300
C 	C 	0.03320 0.04820 0.83810 -0.15300
H 	H 	0.02140 0.04780 0.86370 0.09000
C 	C 	0.01760 0.10030 0.80220 0.03700
C 	C 	0.03630 0.09080 0.76660 -0.14300
H 	H 	0.02730 0.12460 0.74030 0.07300
C 	C 	0.06800 0.03270 0.76830 0.08600
H 	H 	0.08110 0.03020 0.74380 -0.01400
N 	N 	0.93520 0.52500 0.70330 -0.27400
C 	C 	0.91090 0.49950 0.72940 0.10800
H 	H 	0.88810 0.53540 0.72900 -0.02100
C 	C 	0.91500 0.43220 0.75470 -0.14200
H 	H 	0.89770 0.42260 0.77480 0.10000
C 	C 	0.94650 0.36980 0.75260 0.05100
C 	C 	0.97280 0.38810 0.72530 -0.12300
H 	H 	0.99370 0.34850 0.72250 0.05000
C 	C 	0.96680 0.46810 0.70220 0.05300
H 	H 	0.98530 0.48520 0.68460 -0.00400
C 	C 	0.93190 0.20130 0.83560 0.11200
N 	N 	0.96230 0.14160 0.83290 -0.12800
C 	C 	0.98380 0.16200 0.80300 0.07300
N 	N 	0.98020 0.22490 0.77470 -0.18400
C 	C 	0.95060 0.28320 0.78190 0.07400
N 	N 	0.92720 0.27430 0.80900 -0.12100
N 	N 	0.88080 0.55760 0.61040 -0.26400
C 	C 	0.88720 0.47050 0.60730 0.04700
H 	H 	0.90470 0.43900 0.62990 0.01100
C 	C 	0.86560 0.42490 0.56690 -0.08500
H 	H 	0.87320 0.36630 0.55990 0.08300
C 	C 	0.83400 0.46720 0.53880 0.04400
C 	C 	0.83050 0.55320 0.54550 -0.11600
H 	H 	0.81240 0.58720 0.52460 0.05600
C 	C 	0.85310 0.59680 0.58320 0.07200
H 	H 	0.84740 0.65760 0.58850 -0.02000
N 	N 	0.81450 0.00250 0.47320 -0.31800
C 	C 	0.84040 0.05630 0.49700 0.08400
H 	H 	0.86340 0.03160 0.51510 -0.01600
C 	C 	0.83490 0.14970 0.49640 -0.14100
H 	H 	0.85340 0.18770 0.51460 0.09300
C 	C 	0.80320 0.18420 0.46960 0.08100
C 	C 	0.77810 0.12600 0.44200 -0.16100
H 	H 	0.75630 0.14700 0.42070 0.09000
C 	C 	0.78710 0.03280 0.44750 0.13100
H 	H 	0.77010 0.99180 0.42940 -0.05400
N 	N 	0.67020 0.53600 0.35390 -0.26500
C 	C 	0.67840 0.45170 0.34930 0.08900
H 	H 	0.66270 0.42000 0.32540 -0.00100
C 	C 	0.70780 0.40520 0.37630 -0.12600
H 	H 	0.71270 0.34410 0.37060 0.08600
C 	C 	0.73050 0.45010 0.41230 0.04400
C 	C 	0.72260 0.53860 0.41890 -0.10900
H 	H 	0.73760 0.57050 0.44330 0.07900
C 	C 	0.69290 0.58040 0.39010 0.04500
H 	H 	0.68760 0.64170 0.39490 0.02000
C 	C 	0.81120 0.41480 0.50460 0.10900
N 	N 	0.82210 0.32920 0.50050 -0.13000
C 	C 	0.79590 0.28350 0.46820 0.08500
N 	N 	0.76740 0.31540 0.43790 -0.13900
C 	C 	0.76000 0.40740 0.44470 0.06100
N 	N 	0.78300 0.45400 0.47800 -0.14600
N 	N 	0.58190 0.52010 0.30560 -0.26800
C 	C 	0.56570 0.47210 0.26760 0.05500
H 	H 	0.57680 0.47880 0.24170 0.00500
C 	C 	0.53390 0.41450 0.26620 -0.10600
H 	H 	0.52390 0.37980 0.24050 0.07800
C 	C 	0.51750 0.41000 0.30420 0.04600
C 	C 	0.53320 0.45600 0.34400 -0.11100
H 	H 	0.52420 0.44700 0.37100 0.08700
C 	C 	0.56370 0.51700 0.33970 0.07400
H 	H 	0.57170 0.55850 0.36320 -0.01100
N 	N 	0.35970 0.34040 0.42960 -0.32000
C 	C 	0.39440 0.38610 0.43350 0.06800
H 	H 	0.40150 0.42750 0.45730 -0.01600
C 	C 	0.41970 0.37430 0.40390 -0.11700
H 	H 	0.44410 0.40510 0.40810 0.08500
C 	C 	0.40860 0.31660 0.36820 0.06600
C 	C 	0.37220 0.27300 0.36470 -0.13100
H 	H 	0.36330 0.23140 0.34140 0.08800
C 	C 	0.34900 0.29330 0.39740 0.11300
H 	H 	0.32330 0.26790 0.39360 -0.04700
N 	N 	0.43750 0.98360 0.20200 -0.31800
C 	C 	0.46540 0.03740 0.20040 0.10000
H 	H 	0.48220 0.02640 0.17980 -0.00600
C 	C 	0.47220 0.11160 0.22750 -0.12800
H 	H 	0.49480 0.14760 0.22720 0.08000
C 	C 	0.44620 0.13500 0.25580 0.04900
C 	C 	0.41840 0.07850 0.25920 -0.09600
H 	H 	0.40120 0.09020 0.27920 0.07300
C 	C 	0.41340 0.99510 0.23190 0.01500
H 	H 	0.39410 0.95170 0.23520 -0.02400
C 	C 	0.48430 0.34680 0.30520 0.08600
N 	N 	0.46200 0.35970 0.33560 -0.13900
C 	C 	0.43520 0.30230 0.33630 0.10900
N 	N 	0.42670 0.22640 0.31110 -0.13500
C 	C 	0.45110 0.21550 0.28140 0.08700
N 	N 	0.47900 0.27240 0.27650 -0.14300
Zn	Zn	0.91480 0.38000 0.16200 1.28800
Zn	Zn	0.80760 0.14700 0.96360 0.84700
Zn	Zn	0.81460 0.85780 0.46630 0.68900
I 	I 	0.86820 0.27750 0.19300 -0.41600
I 	I 	0.96900 0.33600 0.14220 2.57600
I 	I 	0.74400 0.20990 0.91820 0.75800
I 	I 	0.84060 0.19240 0.03280 -0.89500
I 	I 	0.85690 0.82790 0.54290 0.29900
I 	I 	0.75240 0.78590 0.43450 -0.71600
Zn	Zn	0.37109 0.39949 0.19357 1.16500
Zn	Zn	0.57939 0.12881 0.34209 1.16500
Zn	Zn	0.87118 0.10479 0.69216 1.16800
I 	I 	0.38719 0.25847 0.15632 -0.40200
I 	I 	0.34766 0.41064 0.26578 -0.38300
I 	I 	0.61671 0.24107 0.30433 -0.36600
I 	I 	0.52269 0.15613 0.38151 -0.34900
I 	I 	0.84724 0.09392 0.76395 -0.38100
I 	I 	0.88739 0.24681 0.65583 -0.37700
Zn	Zn	0.57767 0.87590 0.84242 -0.21900
Zn	Zn	0.67358 0.63884 0.02292 0.84000
Zn	Zn	0.67239 0.36290 0.52030 0.68300
I 	I 	0.61691 0.76383 0.80593 -0.03500
I 	I 	0.52062 0.84865 0.88010 -2.82400
I 	I 	0.62793 0.66254 0.94789 0.34600
I 	I 	0.73774 0.72342 0.05054 -1.26000
I 	I 	0.62717 0.34375 0.44435 -0.74100
I 	I 	0.73500 0.27454 0.54609 0.27100
N 	N 	0.61690 0.94270 0.89100 -0.29800
C 	C 	0.64600 0.89970 0.91950 0.07700
H 	H 	0.64940 0.83710 0.91620 0.01300
C 	C 	0.67060 0.94480 0.95320 -0.12800
H 	H 	0.69250 0.91610 0.97150 0.10900
C 	C 	0.66140 0.03880 0.95950 0.09500
C 	C 	0.63490 0.07840 0.93040 -0.17700
H 	H 	0.63180 0.14160 0.93070 0.11400
C 	C 	0.61210 0.02870 0.90020 0.13600
H 	H 	0.58980 0.05760 0.88300 -0.00900
N 	N 	0.68550 0.50590 0.02730 -0.30600
C 	C 	0.71660 0.46790 0.05700 0.04200
H 	H 	0.73480 0.50580 0.07580 -0.03900
C 	C 	0.72190 0.37500 0.05990 -0.09600
H 	H 	0.74280 0.35110 0.08140 0.08000
C 	C 	0.69770 0.31870 0.03280 0.05300
C 	C 	0.66750 0.36120 0.00020 -0.09900
H 	H 	0.64990 0.32470 0.98000 0.07700
C 	C 	0.66330 0.45060 0.99750 0.06600
H 	H 	0.64430 0.47570 0.97410 -0.02100
N 	N 	0.82940 0.96300 0.14670 -0.28600
C 	C 	0.80680 0.92010 0.11370 0.10600
H 	H 	0.81120 0.85780 0.11070 -0.03300
C 	C 	0.77820 0.95870 0.08430 -0.16100
H 	H 	0.76280 0.92470 0.06100 0.11800
C 	C 	0.77100 0.05280 0.08840 0.07500
C 	C 	0.79510 0.09690 0.12080 -0.13000
H 	H 	0.79280 0.16000 0.12330 0.10200
C 	C 	0.82370 0.05100 0.15090 0.07300
H 	H 	0.83940 0.08280 0.17480 -0.00800
C 	C 	0.68790 0.08980 0.99850 0.09200
N 	N 	0.68050 0.17550 -0.00000 -0.13100
C 	C 	0.70270 0.22220 0.03120 0.12500
N 	N 	0.73320 0.18270 0.06120 -0.13300
C 	C 	0.73660 0.10150 0.05770 0.11700
N 	N 	0.71810 0.04500 0.02620 -0.13200
N 	N 	0.64190 0.65150 0.07100 -0.30700
C 	C 	0.64940 0.72210 0.10380 0.04200
H 	H 	0.67270 0.75710 0.10590 -0.00700
C 	C 	0.62440 0.74010 0.13180 -0.09500
H 	H 	0.62910 0.79020 0.15120 0.09000
C 	C 	0.59250 0.68700 0.13220 0.08900
C 	C 	0.58650 0.61420 0.10270 -0.13200
H 	H 	0.56580 0.57270 0.10340 0.09800
C 	C 	0.61060 0.60430 0.07310 0.12000
H 	H 	0.60410 0.55800 0.05160 -0.02900
N 	N 	0.42000 0.48260 0.19770 -0.28500
C 	C 	0.43450 0.49730 0.16280 0.09800
H 	H 	0.42170 0.47060 0.13570 -0.03300
C 	C 	0.46680 0.54820 0.16190 -0.15500
H 	H 	0.47860 0.54780 0.13630 0.09100
C 	C 	0.48240 0.60030 0.19780 0.03800
C 	C 	0.46370 0.59080 0.23340 -0.14300
H 	H 	0.47270 0.62460 0.25970 0.07300
C 	C 	0.43200 0.53270 0.23170 0.08500
H 	H 	0.41890 0.53020 0.25620 -0.01400
N 	N 	0.56480 0.02500 0.29670 -0.27200
C 	C 	0.58910 0.99950 0.27060 0.10200
H 	H 	0.61190 0.03540 0.27100 -0.01800
C 	C 	0.58500 0.93220 0.24530 -0.13900
H 	H 	0.60230 0.92260 0.22520 0.09800
C 	C 	0.55350 0.86980 0.24740 0.04900
C 	C 	0.52720 0.88810 0.27470 -0.12100
H 	H 	0.50630 0.84850 0.27750 0.05000
C 	C 	0.53320 0.96810 0.29780 0.05100
H 	H 	0.51470 0.98520 0.31540 -0.00300
C 	C 	0.56810 0.70130 0.16440 0.11200
N 	N 	0.53770 0.64160 0.16710 -0.12800
C 	C 	0.51620 0.66200 0.19700 0.07300
N 	N 	0.51980 0.72490 0.22530 -0.18400
C 	C 	0.54940 0.78320 0.21810 0.07500
N 	N 	0.57280 0.77430 0.19100 -0.12100
N 	N 	0.61920 0.05760 0.38960 -0.26200
C 	C 	0.61280 0.97050 0.39270 0.04400
H 	H 	0.59530 0.93900 0.37010 0.01100
C 	C 	0.63440 0.92490 0.43310 -0.08400
H 	H 	0.62680 0.86630 0.44010 0.08200
C 	C 	0.66600 0.96720 0.46120 0.04100
C 	C 	0.66950 0.05320 0.45450 -0.11200
H 	H 	0.68760 0.08720 0.47540 0.05500
C 	C 	0.64690 0.09680 0.41680 0.07000
H 	H 	0.65260 0.15760 0.41150 -0.01900
N 	N 	0.68550 0.50250 0.52680 -0.31800
C 	C 	0.65960 0.55630 0.50300 0.08300
H 	H 	0.63660 0.53160 0.48490 -0.01600
C 	C 	0.66510 0.64970 0.50360 -0.14000
H 	H 	0.64660 0.68770 0.48540 0.09300
C 	C 	0.69680 0.68420 0.53040 0.08000
C 	C 	0.72190 0.62600 0.55800 -0.16000
H 	H 	0.74370 0.64700 0.57930 0.08900
C 	C 	0.71290 0.53280 0.55250 0.12800
H 	H 	0.72990 0.49180 0.57060 -0.05200
N 	N 	0.82980 0.03600 0.64610 -0.26300
C 	C 	0.82160 0.95170 0.65070 0.08600
H 	H 	0.83730 0.92000 0.67460 -0.00000
C 	C 	0.79220 0.90520 0.62370 -0.12400
H 	H 	0.78730 0.84410 0.62940 0.08500
C 	C 	0.76950 0.95010 0.58770 0.04100
C 	C 	0.77740 0.03860 0.58110 -0.10600
H 	H 	0.76240 0.07050 0.55670 0.07800
C 	C 	0.80710 0.08040 0.60990 0.04400
H 	H 	0.81240 0.14170 0.60510 0.02000
C 	C 	0.68880 0.91480 0.49540 0.11000
N 	N 	0.67790 0.82920 0.49950 -0.13000
C 	C 	0.70410 0.78350 0.53180 0.08600
N 	N 	0.73260 0.81540 0.56210 -0.13900
C 	C 	0.74000 0.90740 0.55530 0.06100
N 	N 	0.71700 0.95400 0.52200 -0.14700
N 	N 	0.91810 0.02010 0.69440 -0.26700
C 	C 	0.93430 0.97210 0.73240 0.05300
H 	H 	0.92320 0.97880 0.75830 0.00500
C 	C 	0.96610 0.91450 0.73380 -0.10600
H 	H 	0.97610 0.87980 0.75950 0.07800
C 	C 	0.98250 0.91000 0.69580 0.04600
C 	C 	0.96680 0.95600 0.65600 -0.11300
H 	H 	0.97580 0.94700 0.62900 0.08800
C 	C 	0.93630 0.01700 0.66030 0.07600
H 	H 	0.92830 0.05850 0.63680 -0.01200
N 	N 	0.14030 0.84040 0.57040 -0.32000
C 	C 	0.10560 0.88610 0.56650 0.06800
H 	H 	0.09850 0.92750 0.54270 -0.01700
C 	C 	0.08030 0.87430 0.59610 -0.11700
H 	H 	0.05590 0.90510 0.59190 0.08400
C 	C 	0.09140 0.81660 0.63180 0.06600
C 	C 	0.12780 0.77300 0.63530 -0.13100
H 	H 	0.13670 0.73140 0.65860 0.08800
C 	C 	0.15100 0.79330 0.60260 0.11300
H 	H 	0.17670 0.76790 0.60640 -0.04700
N 	N 	0.06250 0.48360 0.79800 -0.31700
C 	C 	0.03460 0.53740 0.79960 0.09900
H 	H 	0.01780 0.52640 0.82020 -0.00600
C 	C 	0.02780 0.61160 0.77250 -0.12800
H 	H 	0.00520 0.64760 0.77280 0.08000
C 	C 	0.05380 0.63500 0.74420 0.05000
C 	C 	0.08160 0.57850 0.74080 -0.09800
H 	H 	0.09880 0.59020 0.72080 0.07300
C 	C 	0.08660 0.49510 0.76810 0.01600
H 	H 	0.10590 0.45170 0.76480 -0.02500
C 	C 	0.01570 0.84680 0.69480 0.08600
N 	N 	0.03800 0.85970 0.66440 -0.13900
C 	C 	0.06480 0.80230 0.66370 0.10900
N 	N 	0.07330 0.72640 0.68890 -0.13500
C 	C 	0.04890 0.71550 0.71860 0.08600
N 	N 	0.02100 0.77240 0.72350 -0.14300
Zn	Zn	0.58520 0.88000 0.83800 1.28500
Zn	Zn	0.69240 0.64700 0.03640 0.84700
Zn	Zn	0.68540 0.35780 0.53370 0.68900
I 	I 	0.63180 0.77750 0.80700 -0.41500
I 	I 	0.53100 0.83600 0.85780 2.56700
I 	I 	0.75600 0.70990 0.08180 0.74900
I 	I 	0.65940 0.69240 0.96720 -0.90200
I 	I 	0.64310 0.32790 0.45710 0.29900
I 	I 	0.74760 0.28590 0.56550 -0.71600
Zn	Zn	0.87109 0.89949 0.19357 1.16500
Zn	Zn	0.07939 0.62881 0.34209 1.16500
Zn	Zn	0.37118 0.60479 0.69216 1.16800
I 	I 	0.88719 0.75847 0.15632 -0.40200
I 	I 	0.84766 0.91064 0.26578 -0.38400
I 	I 	0.11671 0.74107 0.30433 -0.36600
I 	I 	0.02269 0.65613 0.38151 -0.35000
I 	I 	0.34724 0.59392 0.76395 -0.38200
I 	I 	0.38739 0.74681 0.65583 -0.37800
Zn	Zn	0.07767 0.37590 0.84242 -0.21900
Zn	Zn	0.17358 0.13884 0.02292 0.84000
Zn	Zn	0.17239 0.86290 0.52030 0.68300
I 	I 	0.11691 0.26383 0.80593 -0.03400
I 	I 	0.02062 0.34865 0.88010 -2.82500
I 	I 	0.12793 0.16254 0.94789 0.34700
I 	I 	0.23774 0.22342 0.05054 -1.26000
I 	I 	0.12717 0.84375 0.44435 -0.74100
I 	I 	0.23500 0.77454 0.54609 0.27100
N 	N 	0.11690 0.44270 0.89100 -0.29700
C 	C 	0.14600 0.39970 0.91950 0.07700
H 	H 	0.14940 0.33710 0.91620 0.01300
C 	C 	0.17060 0.44480 0.95320 -0.12500
H 	H 	0.19250 0.41610 0.97150 0.10900
C 	C 	0.16140 0.53880 0.95950 0.09300
C 	C 	0.13490 0.57840 0.93040 -0.17500
H 	H 	0.13180 0.64160 0.93070 0.11300
C 	C 	0.11210 0.52870 0.90020 0.13400
H 	H 	0.08980 0.55760 0.88300 -0.00900
N 	N 	0.18550 0.00590 0.02730 -0.30400
C 	C 	0.21660 0.96790 0.05700 0.03900
H 	H 	0.23480 0.00580 0.07580 -0.03700
C 	C 	0.22190 0.87500 0.05990 -0.09400
H 	H 	0.24280 0.85110 0.08140 0.07900
C 	C 	0.19770 0.81870 0.03280 0.05200
C 	C 	0.16750 0.86120 0.00020 -0.09900
H 	H 	0.14990 0.82470 0.98000 0.07700
C 	C 	0.16330 0.95060 0.99750 0.06400
H 	H 	0.14430 0.97570 0.97410 -0.02100
N 	N 	0.32940 0.46300 0.14670 -0.28500
C 	C 	0.30680 0.42010 0.11370 0.10500
H 	H 	0.31120 0.35780 0.11070 -0.03300
C 	C 	0.27820 0.45870 0.08430 -0.15800
H 	H 	0.26280 0.42470 0.06100 0.11800
C 	C 	0.27100 0.55280 0.08840 0.07300
C 	C 	0.29510 0.59690 0.12080 -0.12800
H 	H 	0.29280 0.66000 0.12330 0.10100
C 	C 	0.32370 0.55100 0.15090 0.07000
H 	H 	0.33940 0.58280 0.17480 -0.00700
C 	C 	0.18790 0.58980 0.99850 0.09300
N 	N 	0.18050 0.67550 -0.00000 -0.13100
C 	C 	0.20270 0.72220 0.03120 0.12500
N 	N 	0.23320 0.68270 0.06120 -0.13300
C 	C 	0.23660 0.60150 0.05770 0.11700
N 	N 	0.21810 0.54500 0.02620 -0.13200
N 	N 	0.14190 0.15150 0.07100 -0.30700
C 	C 	0.14940 0.22210 0.10380 0.04200
H 	H 	0.17270 0.25710 0.10590 -0.00600
C 	C 	0.12440 0.24010 0.13180 -0.09500
H 	H 	0.12910 0.29020 0.15120 0.09000
C 	C 	0.09250 0.18700 0.13220 0.09000
C 	C 	0.08650 0.11420 0.10270 -0.13200
H 	H 	0.06580 0.07270 0.10340 0.09900
C 	C 	0.11060 0.10430 0.07310 0.12000
H 	H 	0.10410 0.05800 0.05160 -0.02900
N 	N 	0.92000 0.98260 0.19770 -0.28500
C 	C 	0.93450 0.99730 0.16280 0.09600
H 	H 	0.92170 0.97060 0.13570 -0.03200
C 	C 	0.96680 0.04820 0.16190 -0.15300
H 	H 	0.97860 0.04780 0.13630 0.09100
C 	C 	0.98240 0.10030 0.19780 0.03700
C 	C 	0.96370 0.09080 0.23340 -0.14300
H 	H 	0.97270 0.12460 0.25970 0.07300
C 	C 	0.93200 0.03270 0.23170 0.08600
H 	H 	0.91890 0.03020 0.25620 -0.01400
N 	N 	0.06480 0.52500 0.29670 -0.27400
C 	C 	0.08910 0.49950 0.27060 0.10800
H 	H 	0.11190 0.53540 0.27100 -0.02100
C 	C 	0.08500 0.43220 0.24530 -0.14200
H 	H 	0.10230 0.42260 0.22520 0.10000
C 	C 	0.05350 0.36980 0.24740 0.05100
C 	C 	0.02720 0.38810 0.27470 -0.12300
H 	H 	0.00630 0.34850 0.27750 0.05000
C 	C 	0.03320 0.46810 0.29780 0.05300
H 	H 	0.01470 0.48520 0.31540 -0.00400
C 	C 	0.06810 0.20130 0.16440 0.11200
N 	N 	0.03770 0.14160 0.16710 -0.12800
C 	C 	0.01620 0.16200 0.19700 0.07300
N 	N 	0.01980 0.22490 0.22530 -0.18400
C 	C 	0.04940 0.28320 0.21810 0.07400
N 	N 	0.07280 0.27430 0.19100 -0.12100
N 	N 	0.11920 0.55760 0.38960 -0.26400
C 	C 	0.11280 0.47050 0.39270 0.04700
H 	H 	0.09530 0.43900 0.37010 0.01100
C 	C 	0.13440 0.42490 0.43310 -0.08500
H 	H 	0.12680 0.36630 0.44010 0.08300
C 	C 	0.16600 0.46720 0.46120 0.04400
C 	C 	0.16950 0.55320 0.45450 -0.11600
H 	H 	0.18760 0.58720 0.47540 0.05600
C 	C 	0.14690 0.59680 0.41680 0.07200
H 	H 	0.15260 0.65760 0.41150 -0.02000
N 	N 	0.18550 0.00250 0.52680 -0.31800
C 	C 	0.15960 0.05630 0.50300 0.08400
H 	H 	0.13660 0.03160 0.48490 -0.01600
C 	C 	0.16510 0.14970 0.50360 -0.14100
H 	H 	0.14660 0.18770 0.48540 0.09300
C 	C 	0.19680 0.18420 0.53040 0.08100
C 	C 	0.22190 0.12600 0.55800 -0.16100
H 	H 	0.24370 0.14700 0.57930 0.09000
C 	C 	0.21290 0.03280 0.55250 0.13100
H 	H 	0.22990 0.99180 0.57060 -0.05400
N 	N 	0.32980 0.53600 0.64610 -0.26500
C 	C 	0.32160 0.45170 0.65070 0.08900
H 	H 	0.33730 0.42000 0.67460 -0.00100
C 	C 	0.29220 0.40520 0.62370 -0.12600
H 	H 	0.28730 0.34410 0.62940 0.08600
C 	C 	0.26950 0.45010 0.58770 0.04400
C 	C 	0.27740 0.53860 0.58110 -0.10900
H 	H 	0.26240 0.57050 0.55670 0.07900
C 	C 	0.30710 0.58040 0.60990 0.04500
H 	H 	0.31240 0.64170 0.60510 0.02000
C 	C 	0.18880 0.41480 0.49540 0.10900
N 	N 	0.17790 0.32920 0.49950 -0.13000
C 	C 	0.20410 0.28350 0.53180 0.08500
N 	N 	0.23260 0.31540 0.56210 -0.13900
C 	C 	0.24000 0.40740 0.55530 0.06100
N 	N 	0.21700 0.45400 0.52200 -0.14600
N 	N 	0.41810 0.52010 0.69440 -0.26800
C 	C 	0.43430 0.47210 0.73240 0.05500
H 	H 	0.42320 0.47880 0.75830 0.00500
C 	C 	0.46610 0.41450 0.73380 -0.10600
H 	H 	0.47610 0.37980 0.75950 0.07800
C 	C 	0.48250 0.41000 0.69580 0.04600
C 	C 	0.46680 0.45600 0.65600 -0.11100
H 	H 	0.47580 0.44700 0.62900 0.08700
C 	C 	0.43630 0.51700 0.66030 0.07400
H 	H 	0.42830 0.55850 0.63680 -0.01100
N 	N 	0.64030 0.34040 0.57040 -0.32000
C 	C 	0.60560 0.38610 0.56650 0.06800
H 	H 	0.59850 0.42750 0.54270 -0.01600
C 	C 	0.58030 0.37430 0.59610 -0.11700
H 	H 	0.55590 0.40510 0.59190 0.08500
C 	C 	0.59140 0.31660 0.63180 0.06600
C 	C 	0.62780 0.27300 0.63530 -0.13100
H 	H 	0.63670 0.23140 0.65860 0.08800
C 	C 	0.65100 0.29330 0.60260 0.11300
H 	H 	0.67670 0.26790 0.60640 -0.04700
N 	N 	0.56250 0.98360 0.79800 -0.31800
C 	C 	0.53460 0.03740 0.79960 0.10000
H 	H 	0.51780 0.02640 0.82020 -0.00600
C 	C 	0.52780 0.11160 0.77250 -0.12800
H 	H 	0.50520 0.14760 0.77280 0.08000
C 	C 	0.55380 0.13500 0.74420 0.04900
C 	C 	0.58160 0.07850 0.74080 -0.09600
H 	H 	0.59880 0.09020 0.72080 0.07300
C 	C 	0.58660 0.99510 0.76810 0.01500
H 	H 	0.60590 0.95170 0.76480 -0.02400
C 	C 	0.51570 0.34680 0.69480 0.08600
N 	N 	0.53800 0.35970 0.66440 -0.13900
C 	C 	0.56480 0.30230 0.66370 0.10900
N 	N 	0.57330 0.22640 0.68890 -0.13500
C 	C 	0.54890 0.21550 0.71860 0.08700
N 	N 	0.52100 0.27240 0.72350 -0.14300
Zn	Zn	0.08520 0.38000 0.83800 1.28500
Zn	Zn	0.19240 0.14700 0.03640 0.84700
Zn	Zn	0.18540 0.85780 0.53370 0.68900
I 	I 	0.13180 0.27750 0.80700 -0.41500
I 	I 	0.03100 0.33600 0.85780 2.56800
I 	I 	0.25600 0.20990 0.08180 0.74900
I 	I 	0.15940 0.19240 0.96720 -0.90200
I 	I 	0.14310 0.82790 0.45710 0.29900
I 	I 	0.24760 0.78590 0.56550 -0.71600
