data_crystal

_cell_length_a 34.85310
_cell_length_b 14.78380
_cell_length_c 31.03390
_cell_angle_alpha 90.00000
_cell_angle_beta  101.29600
_cell_angle_gamma 90.00000

_symmetry_space_group_name_	'P 1'
_symmetry_space_group_name_H-M	'P 1'

loop_
_symmetry_equiv_pos_as_xyz
  x,y,z

loop_
_atom_site_label
_atom_site_type_symbol
_atom_site_fract_x
_atom_site_fract_y
_atom_site_fract_z
_atom_site_charge
Zn	Zn	0.62606 0.60176 0.56149 1.16300
Zn	Zn	0.41578 0.87258 0.41168 1.15900
I 	I 	0.60849 0.74183 0.59733 -0.39800
I 	I 	0.47258 0.84239 0.37446 -0.36300
N 	N 	0.57947 0.51540 0.55797 -0.28000
C 	C 	0.56522 0.46620 0.52290 0.07600
H 	H 	0.57720 0.47040 0.49800 -0.01100
C 	C 	0.53354 0.40870 0.52110 -0.13100
H 	H 	0.52440 0.37360 0.49550 0.07700
C 	C 	0.51564 0.40290 0.55620 0.05100
C 	C 	0.53220 0.44880 0.59420 -0.12500
H 	H 	0.52200 0.44270 0.62030 0.08600
C 	C 	0.56430 0.50400 0.59320 0.07700
H 	H 	0.57580 0.53510 0.61940 -0.01600
N 	N 	0.42946 0.98040 0.45500 -0.27100
C 	C 	0.46132 0.03080 0.45590 0.06500
H 	H 	0.47970 0.01320 0.43860 -0.00800
C 	C 	0.46829 0.10800 0.48130 -0.11100
H 	H 	0.49120 0.14290 0.48140 0.06600
C 	C 	0.44171 0.13410 0.50660 0.04700
C 	C 	0.40900 0.08120 0.50640 -0.11300
H 	H 	0.39030 0.09700 0.52360 0.07800
C 	C 	0.40430 0.00410 0.48020 0.06400
H 	H 	0.38220 0.96660 0.48040 -0.01200
N 	N 	0.36030 0.34580 0.68190 -0.29600
C 	C 	0.39120 0.39420 0.68150 0.09800
H 	H 	0.39720 0.44150 0.70250 -0.02900
C 	C 	0.41600 0.38090 0.65250 -0.13700
H 	H 	0.43890 0.41680 0.65440 0.08900
C 	C 	0.40730 0.31560 0.62090 0.07300
C 	C 	0.37320 0.26910 0.61810 -0.12200
H 	H 	0.36520 0.22600 0.59540 0.08500
C 	C 	0.35020 0.28620 0.64920 0.06900
H 	H 	0.32630 0.25390 0.64720 -0.01700
C 	C 	0.48196 0.34180 0.55680 0.09500
N 	N 	0.47591 0.27470 0.52822 -0.15000
C 	C 	0.44785 0.21740 0.53416 0.09400
N 	N 	0.42530 0.22610 0.56364 -0.13700
C 	C 	0.43207 0.29980 0.58860 0.10000
N 	N 	0.46117 0.35890 0.58746 -0.13500
N 	N 	0.37662 0.93900 0.36262 -0.27100
C 	C 	0.38130 0.02670 0.35700 0.07700
H 	H 	0.40030 0.05820 0.37790 -0.00200
C 	C 	0.36020 0.07430 0.32250 -0.12400
H 	H 	0.36440 0.13740 0.31980 0.09700
C 	C 	0.33294 0.03000 0.29190 0.06200
C 	C 	0.32727 0.93920 0.29780 -0.12700
H 	H 	0.30840 0.90640 0.27750 0.07100
C 	C 	0.34960 0.89620 0.33410 0.07200
H 	H 	0.34520 0.83370 0.33850 -0.01600
N 	N 	0.31523 0.49780 0.22480 -0.29300
C 	C 	0.28510 0.46480 0.19770 0.07600
H 	H 	0.26760 0.50540 0.18000 -0.02100
C 	C 	0.27760 0.37170 0.19360 -0.12600
H 	H 	0.25560 0.34920 0.17340 0.08000
C 	C 	0.30297 0.31390 0.22000 0.06200
C 	C 	0.33450 0.34930 0.24850 -0.12400
H 	H 	0.35260 0.31080 0.26680 0.08600
C 	C 	0.33940 0.44320 0.25020 0.07400
H 	H 	0.36080 0.46820 0.27040 -0.02000
N 	N 	0.16876 0.96160 0.10691 -0.27400
C 	C 	0.17700 0.04860 0.10210 0.07300
H 	H 	0.16160 0.08080 0.07830 -0.00600
C 	C 	0.20630 0.09440 0.12950 -0.12200
H 	H 	0.21110 0.15660 0.12490 0.08400
C 	C 	0.22885 0.04680 0.16407 0.04600
C 	C 	0.22000 0.95750 0.16980 -0.12500
H 	H 	0.23440 0.92390 0.19370 0.08900
C 	C 	0.19011 0.91720 0.14060 0.06900
H 	H 	0.18450 0.85520 0.14460 -0.00100
C 	C 	0.30991 0.08150 0.25455 0.09800
N 	N 	0.31926 0.16850 0.25180 -0.13300
C 	C 	0.29605 0.21490 0.22004 0.09900
N 	N 	0.26688 0.17930 0.19006 -0.14200
C 	C 	0.26083 0.09190 0.19566 0.08500
N 	N 	0.28065 0.03940 0.22766 -0.14300
I 	I 	0.37879 0.76010 0.44888 -0.10600
I 	I 	0.64640 0.60310 0.49029 -0.10700
Zn	Zn	0.33036 0.63880 0.23200 0.62400
I 	I 	0.26821 0.72800 0.20672 -0.01600
I 	I 	0.37419 0.65370 0.30548 -0.32900
Zn	Zn	0.32010 0.63170 0.22330 0.63200
I 	I 	0.25740 0.71320 0.19410 -0.36400
I 	I 	0.36620 0.77510 0.44610 -0.23500
I 	I 	0.65119 0.58460 0.48886 -0.22700
I 	I 	0.36630 0.66780 0.29790 -0.06000
Zn	Zn	0.12606 0.10176 0.56149 1.16400
Zn	Zn	0.91578 0.37258 0.41168 1.16000
I 	I 	0.10849 0.24183 0.59733 -0.39700
I 	I 	0.97258 0.34239 0.37446 -0.36200
N 	N 	0.07947 0.01540 0.55797 -0.27900
C 	C 	0.06522 0.96620 0.52290 0.07700
H 	H 	0.07720 0.97040 0.49800 -0.01000
C 	C 	0.03354 0.90870 0.52110 -0.13000
H 	H 	0.02440 0.87360 0.49550 0.07800
C 	C 	0.01564 0.90290 0.55620 0.05200
C 	C 	0.03220 0.94880 0.59420 -0.12500
H 	H 	0.02200 0.94270 0.62030 0.08600
C 	C 	0.06430 0.00400 0.59320 0.07700
H 	H 	0.07580 0.03510 0.61940 -0.01600
N 	N 	0.92946 0.48040 0.45500 -0.27100
C 	C 	0.96132 0.53080 0.45590 0.06500
H 	H 	0.97970 0.51320 0.43860 -0.00800
C 	C 	0.96829 0.60800 0.48130 -0.11100
H 	H 	0.99120 0.64290 0.48140 0.06600
C 	C 	0.94171 0.63410 0.50660 0.04700
C 	C 	0.90900 0.58120 0.50640 -0.11300
H 	H 	0.89030 0.59700 0.52360 0.07800
C 	C 	0.90430 0.50410 0.48020 0.06500
H 	H 	0.88220 0.46660 0.48040 -0.01200
N 	N 	0.86030 0.84580 0.68190 -0.29600
C 	C 	0.89120 0.89420 0.68150 0.09800
H 	H 	0.89720 0.94150 0.70250 -0.02900
C 	C 	0.91600 0.88090 0.65250 -0.13700
H 	H 	0.93890 0.91680 0.65440 0.08900
C 	C 	0.90730 0.81560 0.62090 0.07300
C 	C 	0.87320 0.76910 0.61810 -0.12200
H 	H 	0.86520 0.72600 0.59540 0.08500
C 	C 	0.85020 0.78620 0.64920 0.06900
H 	H 	0.82630 0.75390 0.64720 -0.01700
C 	C 	0.98196 0.84180 0.55680 0.09500
N 	N 	0.97591 0.77470 0.52822 -0.15000
C 	C 	0.94785 0.71740 0.53416 0.09400
N 	N 	0.92530 0.72610 0.56364 -0.13700
C 	C 	0.93207 0.79980 0.58860 0.10000
N 	N 	0.96117 0.85890 0.58746 -0.13500
N 	N 	0.87662 0.43900 0.36262 -0.27100
C 	C 	0.88130 0.52670 0.35700 0.07800
H 	H 	0.90030 0.55820 0.37790 -0.00200
C 	C 	0.86020 0.57430 0.32250 -0.12500
H 	H 	0.86440 0.63740 0.31980 0.09700
C 	C 	0.83294 0.53000 0.29190 0.06300
C 	C 	0.82727 0.43920 0.29780 -0.12800
H 	H 	0.80840 0.40640 0.27750 0.07100
C 	C 	0.84960 0.39620 0.33410 0.07200
H 	H 	0.84520 0.33370 0.33850 -0.01600
N 	N 	0.81523 0.99780 0.22480 -0.29300
C 	C 	0.78510 0.96480 0.19770 0.07700
H 	H 	0.76760 0.00540 0.18000 -0.02100
C 	C 	0.77760 0.87170 0.19360 -0.12700
H 	H 	0.75560 0.84920 0.17340 0.08000
C 	C 	0.80297 0.81390 0.22000 0.06200
C 	C 	0.83450 0.84930 0.24850 -0.12500
H 	H 	0.85260 0.81080 0.26680 0.08600
C 	C 	0.83940 0.94320 0.25020 0.07400
H 	H 	0.86080 0.96820 0.27040 -0.02000
N 	N 	0.66876 0.46160 0.10691 -0.27400
C 	C 	0.67700 0.54860 0.10210 0.07300
H 	H 	0.66160 0.58080 0.07830 -0.00600
C 	C 	0.70630 0.59440 0.12950 -0.12300
H 	H 	0.71110 0.65660 0.12490 0.08400
C 	C 	0.72885 0.54680 0.16407 0.04600
C 	C 	0.72000 0.45750 0.16980 -0.12500
H 	H 	0.73440 0.42390 0.19370 0.08900
C 	C 	0.69011 0.41720 0.14060 0.07000
H 	H 	0.68450 0.35520 0.14460 -0.00100
C 	C 	0.80991 0.58150 0.25455 0.09800
N 	N 	0.81926 0.66850 0.25180 -0.13300
C 	C 	0.79605 0.71490 0.22004 0.09900
N 	N 	0.76688 0.67930 0.19006 -0.14200
C 	C 	0.76083 0.59190 0.19566 0.08500
N 	N 	0.78065 0.53940 0.22766 -0.14300
I 	I 	0.87879 0.26010 0.44888 -0.10600
I 	I 	0.14640 0.10310 0.49029 -0.10700
Zn	Zn	0.83036 0.13880 0.23200 0.62400
I 	I 	0.76821 0.22800 0.20672 -0.01600
I 	I 	0.87419 0.15370 0.30548 -0.32900
Zn	Zn	0.82010 0.13170 0.22330 0.63200
I 	I 	0.75740 0.21320 0.19410 -0.36400
I 	I 	0.86620 0.27510 0.44610 -0.23500
I 	I 	0.15119 0.08460 0.48886 -0.22700
I 	I 	0.86630 0.16780 0.29790 -0.06000
Zn	Zn	0.62606 0.39824 0.06149 1.16400
Zn	Zn	0.41578 0.12742 0.91168 1.16000
I 	I 	0.60849 0.25817 0.09733 -0.39700
I 	I 	0.47258 0.15761 0.87446 -0.36200
N 	N 	0.57947 0.48460 0.05797 -0.27900
C 	C 	0.56522 0.53380 0.02290 0.07700
H 	H 	0.57720 0.52960 0.99800 -0.01000
C 	C 	0.53354 0.59130 0.02110 -0.13000
H 	H 	0.52440 0.62640 0.99550 0.07800
C 	C 	0.51564 0.59710 0.05620 0.05200
C 	C 	0.53220 0.55120 0.09420 -0.12500
H 	H 	0.52200 0.55730 0.12030 0.08600
C 	C 	0.56430 0.49600 0.09320 0.07700
H 	H 	0.57580 0.46490 0.11940 -0.01600
N 	N 	0.42946 0.01960 0.95500 -0.27100
C 	C 	0.46132 0.96920 0.95590 0.06500
H 	H 	0.47970 0.98680 0.93860 -0.00800
C 	C 	0.46829 0.89200 0.98130 -0.11100
H 	H 	0.49120 0.85710 0.98140 0.06600
C 	C 	0.44171 0.86590 0.00660 0.04700
C 	C 	0.40900 0.91880 0.00640 -0.11300
H 	H 	0.39030 0.90300 0.02360 0.07800
C 	C 	0.40430 0.99590 0.98020 0.06400
H 	H 	0.38220 0.03340 0.98040 -0.01200
N 	N 	0.36030 0.65420 0.18190 -0.29600
C 	C 	0.39120 0.60580 0.18150 0.09800
H 	H 	0.39720 0.55850 0.20250 -0.02900
C 	C 	0.41600 0.61910 0.15250 -0.13700
H 	H 	0.43890 0.58320 0.15440 0.08900
C 	C 	0.40730 0.68440 0.12090 0.07300
C 	C 	0.37320 0.73090 0.11810 -0.12200
H 	H 	0.36520 0.77400 0.09540 0.08500
C 	C 	0.35020 0.71380 0.14920 0.06900
H 	H 	0.32630 0.74610 0.14720 -0.01700
C 	C 	0.48196 0.65820 0.05680 0.09500
N 	N 	0.47591 0.72530 0.02822 -0.15000
C 	C 	0.44785 0.78260 0.03416 0.09500
N 	N 	0.42530 0.77390 0.06364 -0.13700
C 	C 	0.43207 0.70020 0.08860 0.10000
N 	N 	0.46117 0.64110 0.08746 -0.13500
N 	N 	0.37662 0.06100 0.86262 -0.27100
C 	C 	0.38130 0.97330 0.85700 0.07700
H 	H 	0.40030 0.94180 0.87790 -0.00200
C 	C 	0.36020 0.92570 0.82250 -0.12400
H 	H 	0.36440 0.86260 0.81980 0.09700
C 	C 	0.33294 0.97000 0.79190 0.06200
C 	C 	0.32727 0.06080 0.79780 -0.12700
H 	H 	0.30840 0.09360 0.77750 0.07100
C 	C 	0.34960 0.10380 0.83410 0.07200
H 	H 	0.34520 0.16630 0.83850 -0.01600
N 	N 	0.31523 0.50220 0.72480 -0.29300
C 	C 	0.28510 0.53520 0.69770 0.07600
H 	H 	0.26760 0.49460 0.68000 -0.02100
C 	C 	0.27760 0.62830 0.69360 -0.12600
H 	H 	0.25560 0.65080 0.67340 0.08000
C 	C 	0.30297 0.68610 0.72000 0.06200
C 	C 	0.33450 0.65070 0.74850 -0.12400
H 	H 	0.35260 0.68920 0.76680 0.08600
C 	C 	0.33940 0.55680 0.75020 0.07400
H 	H 	0.36080 0.53180 0.77040 -0.02000
N 	N 	0.16876 0.03840 0.60691 -0.27400
C 	C 	0.17700 0.95140 0.60210 0.07300
H 	H 	0.16160 0.91920 0.57830 -0.00600
C 	C 	0.20630 0.90560 0.62950 -0.12200
H 	H 	0.21110 0.84340 0.62490 0.08400
C 	C 	0.22885 0.95320 0.66407 0.04600
C 	C 	0.22000 0.04250 0.66980 -0.12500
H 	H 	0.23440 0.07610 0.69370 0.08900
C 	C 	0.19011 0.08280 0.64060 0.06900
H 	H 	0.18450 0.14480 0.64460 -0.00100
C 	C 	0.30991 0.91850 0.75455 0.09800
N 	N 	0.31926 0.83150 0.75180 -0.13300
C 	C 	0.29605 0.78510 0.72004 0.09900
N 	N 	0.26688 0.82070 0.69006 -0.14200
C 	C 	0.26083 0.90810 0.69566 0.08500
N 	N 	0.28065 0.96060 0.72766 -0.14300
I 	I 	0.37879 0.23990 0.94888 -0.10600
I 	I 	0.64640 0.39690 0.99029 -0.10700
Zn	Zn	0.33036 0.36120 0.73200 0.62400
I 	I 	0.26821 0.27200 0.70672 -0.01600
I 	I 	0.37419 0.34630 0.80548 -0.32900
Zn	Zn	0.32010 0.36830 0.72330 0.63200
I 	I 	0.25740 0.28680 0.69410 -0.36400
I 	I 	0.36620 0.22490 0.94610 -0.23500
I 	I 	0.65119 0.41540 0.98886 -0.22700
I 	I 	0.36630 0.33220 0.79790 -0.06000
Zn	Zn	0.12606 0.89824 0.06149 1.16400
Zn	Zn	0.91578 0.62742 0.91168 1.16000
I 	I 	0.10849 0.75817 0.09733 -0.39700
I 	I 	0.97258 0.65761 0.87446 -0.36200
N 	N 	0.07947 0.98460 0.05797 -0.27900
C 	C 	0.06522 0.03380 0.02290 0.07600
H 	H 	0.07720 0.02960 0.99800 -0.01000
C 	C 	0.03354 0.09130 0.02110 -0.13100
H 	H 	0.02440 0.12640 0.99550 0.07800
C 	C 	0.01564 0.09710 0.05620 0.05200
C 	C 	0.03220 0.05120 0.09420 -0.12500
H 	H 	0.02200 0.05730 0.12030 0.08600
C 	C 	0.06430 0.99600 0.09320 0.07700
H 	H 	0.07580 0.96490 0.11940 -0.01700
N 	N 	0.92946 0.51960 0.95500 -0.27100
C 	C 	0.96132 0.46920 0.95590 0.06500
H 	H 	0.97970 0.48680 0.93860 -0.00800
C 	C 	0.96829 0.39200 0.98130 -0.11100
H 	H 	0.99120 0.35710 0.98140 0.06600
C 	C 	0.94171 0.36590 0.00660 0.04700
C 	C 	0.90900 0.41880 0.00640 -0.11300
H 	H 	0.89030 0.40300 0.02360 0.07800
C 	C 	0.90430 0.49590 0.98020 0.06500
H 	H 	0.88220 0.53340 0.98040 -0.01200
N 	N 	0.86030 0.15420 0.18190 -0.29600
C 	C 	0.89120 0.10580 0.18150 0.09800
H 	H 	0.89720 0.05850 0.20250 -0.02900
C 	C 	0.91600 0.11910 0.15250 -0.13700
H 	H 	0.93890 0.08320 0.15440 0.08900
C 	C 	0.90730 0.18440 0.12090 0.07300
C 	C 	0.87320 0.23090 0.11810 -0.12200
H 	H 	0.86520 0.27400 0.09540 0.08500
C 	C 	0.85020 0.21380 0.14920 0.06900
H 	H 	0.82630 0.24610 0.14720 -0.01700
C 	C 	0.98196 0.15820 0.05680 0.09500
N 	N 	0.97591 0.22530 0.02822 -0.15000
C 	C 	0.94785 0.28260 0.03416 0.09400
N 	N 	0.92530 0.27390 0.06364 -0.13700
C 	C 	0.93207 0.20020 0.08860 0.10000
N 	N 	0.96117 0.14110 0.08746 -0.13500
N 	N 	0.87662 0.56100 0.86262 -0.27100
C 	C 	0.88130 0.47330 0.85700 0.07800
H 	H 	0.90030 0.44180 0.87790 -0.00200
C 	C 	0.86020 0.42570 0.82250 -0.12500
H 	H 	0.86440 0.36260 0.81980 0.09700
C 	C 	0.83294 0.47000 0.79190 0.06300
C 	C 	0.82727 0.56080 0.79780 -0.12800
H 	H 	0.80840 0.59360 0.77750 0.07100
C 	C 	0.84960 0.60380 0.83410 0.07200
H 	H 	0.84520 0.66630 0.83850 -0.01600
N 	N 	0.81523 0.00220 0.72480 -0.29300
C 	C 	0.78510 0.03520 0.69770 0.07700
H 	H 	0.76760 0.99460 0.68000 -0.02100
C 	C 	0.77760 0.12830 0.69360 -0.12700
H 	H 	0.75560 0.15080 0.67340 0.08000
C 	C 	0.80297 0.18610 0.72000 0.06200
C 	C 	0.83450 0.15070 0.74850 -0.12500
H 	H 	0.85260 0.18920 0.76680 0.08600
C 	C 	0.83940 0.05680 0.75020 0.07400
H 	H 	0.86080 0.03180 0.77040 -0.02000
N 	N 	0.66876 0.53840 0.60691 -0.27400
C 	C 	0.67700 0.45140 0.60210 0.07300
H 	H 	0.66160 0.41920 0.57830 -0.00600
C 	C 	0.70630 0.40560 0.62950 -0.12300
H 	H 	0.71110 0.34340 0.62490 0.08400
C 	C 	0.72885 0.45320 0.66407 0.04600
C 	C 	0.72000 0.54250 0.66980 -0.12500
H 	H 	0.73440 0.57610 0.69370 0.08900
C 	C 	0.69011 0.58280 0.64060 0.07000
H 	H 	0.68450 0.64480 0.64460 -0.00100
C 	C 	0.80991 0.41850 0.75455 0.09800
N 	N 	0.81926 0.33150 0.75180 -0.13300
C 	C 	0.79605 0.28510 0.72004 0.09900
N 	N 	0.76688 0.32070 0.69006 -0.14200
C 	C 	0.76083 0.40810 0.69566 0.08500
N 	N 	0.78065 0.46060 0.72766 -0.14300
I 	I 	0.87879 0.73990 0.94888 -0.10600
I 	I 	0.14640 0.89690 0.99029 -0.10700
Zn	Zn	0.83036 0.86120 0.73200 0.62400
I 	I 	0.76821 0.77200 0.70672 -0.01600
I 	I 	0.87419 0.84630 0.80548 -0.32900
Zn	Zn	0.82010 0.86830 0.72330 0.63200
I 	I 	0.75740 0.78680 0.69410 -0.36400
I 	I 	0.86620 0.72490 0.94610 -0.23600
I 	I 	0.15119 0.91540 0.98886 -0.22700
I 	I 	0.86630 0.83220 0.79790 -0.06000
Zn	Zn	0.37394 0.60176 0.93851 1.16400
Zn	Zn	0.58422 0.87258 0.08832 1.16000
I 	I 	0.39151 0.74183 0.90267 -0.39700
I 	I 	0.52742 0.84239 0.12554 -0.36200
N 	N 	0.42053 0.51540 0.94203 -0.27900
C 	C 	0.43478 0.46620 0.97710 0.07700
H 	H 	0.42280 0.47040 0.00200 -0.01000
C 	C 	0.46646 0.40870 0.97890 -0.13000
H 	H 	0.47560 0.37360 0.00450 0.07800
C 	C 	0.48436 0.40290 0.94380 0.05200
C 	C 	0.46780 0.44880 0.90580 -0.12500
H 	H 	0.47800 0.44270 0.87970 0.08600
C 	C 	0.43570 0.50400 0.90680 0.07700
H 	H 	0.42420 0.53510 0.88060 -0.01600
N 	N 	0.57054 0.98040 0.04500 -0.27100
C 	C 	0.53868 0.03080 0.04410 0.06500
H 	H 	0.52030 0.01320 0.06140 -0.00800
C 	C 	0.53171 0.10800 0.01870 -0.11100
H 	H 	0.50880 0.14290 0.01860 0.06600
C 	C 	0.55829 0.13410 0.99340 0.04700
C 	C 	0.59100 0.08120 0.99360 -0.11300
H 	H 	0.60970 0.09700 0.97640 0.07800
C 	C 	0.59570 0.00410 0.01980 0.06400
H 	H 	0.61780 0.96660 0.01960 -0.01200
N 	N 	0.63970 0.34580 0.81810 -0.29600
C 	C 	0.60880 0.39420 0.81850 0.09800
H 	H 	0.60280 0.44150 0.79750 -0.02900
C 	C 	0.58400 0.38090 0.84750 -0.13700
H 	H 	0.56110 0.41680 0.84560 0.08900
C 	C 	0.59270 0.31560 0.87910 0.07300
C 	C 	0.62680 0.26910 0.88190 -0.12200
H 	H 	0.63480 0.22600 0.90460 0.08500
C 	C 	0.64980 0.28620 0.85080 0.06900
H 	H 	0.67370 0.25390 0.85280 -0.01700
C 	C 	0.51804 0.34180 0.94320 0.09500
N 	N 	0.52409 0.27470 0.97178 -0.15000
C 	C 	0.55215 0.21740 0.96584 0.09500
N 	N 	0.57470 0.22610 0.93636 -0.13700
C 	C 	0.56793 0.29980 0.91140 0.10000
N 	N 	0.53883 0.35890 0.91254 -0.13500
N 	N 	0.62338 0.93900 0.13738 -0.27100
C 	C 	0.61870 0.02670 0.14300 0.07700
H 	H 	0.59970 0.05820 0.12210 -0.00200
C 	C 	0.63980 0.07430 0.17750 -0.12400
H 	H 	0.63560 0.13740 0.18020 0.09700
C 	C 	0.66706 0.03000 0.20810 0.06200
C 	C 	0.67273 0.93920 0.20220 -0.12700
H 	H 	0.69160 0.90640 0.22250 0.07100
C 	C 	0.65040 0.89620 0.16590 0.07200
H 	H 	0.65480 0.83370 0.16150 -0.01600
N 	N 	0.68477 0.49780 0.27520 -0.29300
C 	C 	0.71490 0.46480 0.30230 0.07600
H 	H 	0.73240 0.50540 0.32000 -0.02100
C 	C 	0.72240 0.37170 0.30640 -0.12600
H 	H 	0.74440 0.34920 0.32660 0.08000
C 	C 	0.69703 0.31390 0.28000 0.06200
C 	C 	0.66550 0.34930 0.25150 -0.12400
H 	H 	0.64740 0.31080 0.23320 0.08600
C 	C 	0.66060 0.44320 0.24980 0.07400
H 	H 	0.63920 0.46820 0.22960 -0.02000
N 	N 	0.83124 0.96160 0.39309 -0.27400
C 	C 	0.82300 0.04860 0.39790 0.07300
H 	H 	0.83840 0.08080 0.42170 -0.00600
C 	C 	0.79370 0.09440 0.37050 -0.12200
H 	H 	0.78890 0.15660 0.37510 0.08400
C 	C 	0.77115 0.04680 0.33593 0.04600
C 	C 	0.78000 0.95750 0.33020 -0.12500
H 	H 	0.76560 0.92390 0.30630 0.08900
C 	C 	0.80989 0.91720 0.35940 0.06900
H 	H 	0.81550 0.85520 0.35540 -0.00100
C 	C 	0.69009 0.08150 0.24545 0.09800
N 	N 	0.68074 0.16850 0.24820 -0.13300
C 	C 	0.70395 0.21490 0.27996 0.09900
N 	N 	0.73312 0.17930 0.30994 -0.14200
C 	C 	0.73917 0.09190 0.30434 0.08500
N 	N 	0.71935 0.03940 0.27234 -0.14300
I 	I 	0.62121 0.76010 0.05112 -0.10600
I 	I 	0.35360 0.60310 0.00971 -0.10700
Zn	Zn	0.66964 0.63880 0.26800 0.62400
I 	I 	0.73179 0.72800 0.29328 -0.01600
I 	I 	0.62581 0.65370 0.19452 -0.32900
Zn	Zn	0.67990 0.63170 0.27670 0.63200
I 	I 	0.74260 0.71320 0.30590 -0.36400
I 	I 	0.63380 0.77510 0.05390 -0.23500
I 	I 	0.34881 0.58460 0.01114 -0.22700
I 	I 	0.63370 0.66780 0.20210 -0.06000
Zn	Zn	0.87394 0.10176 0.93851 1.16400
Zn	Zn	0.08422 0.37258 0.08832 1.16000
I 	I 	0.89151 0.24183 0.90267 -0.39700
I 	I 	0.02742 0.34239 0.12554 -0.36200
N 	N 	0.92053 0.01540 0.94203 -0.27900
C 	C 	0.93478 0.96620 0.97710 0.07600
H 	H 	0.92280 0.97040 0.00200 -0.01000
C 	C 	0.96646 0.90870 0.97890 -0.13100
H 	H 	0.97560 0.87360 0.00450 0.07800
C 	C 	0.98436 0.90290 0.94380 0.05200
C 	C 	0.96780 0.94880 0.90580 -0.12500
H 	H 	0.97800 0.94270 0.87970 0.08600
C 	C 	0.93570 0.00400 0.90680 0.07700
H 	H 	0.92420 0.03510 0.88060 -0.01700
N 	N 	0.07054 0.48040 0.04500 -0.27100
C 	C 	0.03868 0.53080 0.04410 0.06500
H 	H 	0.02030 0.51320 0.06140 -0.00800
C 	C 	0.03171 0.60800 0.01870 -0.11100
H 	H 	0.00880 0.64290 0.01860 0.06600
C 	C 	0.05829 0.63410 0.99340 0.04700
C 	C 	0.09100 0.58120 0.99360 -0.11300
H 	H 	0.10970 0.59700 0.97640 0.07800
C 	C 	0.09570 0.50410 0.01980 0.06500
H 	H 	0.11780 0.46660 0.01960 -0.01200
N 	N 	0.13970 0.84580 0.81810 -0.29600
C 	C 	0.10880 0.89420 0.81850 0.09800
H 	H 	0.10280 0.94150 0.79750 -0.02900
C 	C 	0.08400 0.88090 0.84750 -0.13700
H 	H 	0.06110 0.91680 0.84560 0.08900
C 	C 	0.09270 0.81560 0.87910 0.07300
C 	C 	0.12680 0.76910 0.88190 -0.12200
H 	H 	0.13480 0.72600 0.90460 0.08500
C 	C 	0.14980 0.78620 0.85080 0.06900
H 	H 	0.17370 0.75390 0.85280 -0.01700
C 	C 	0.01804 0.84180 0.94320 0.09500
N 	N 	0.02409 0.77470 0.97178 -0.15000
C 	C 	0.05215 0.71740 0.96584 0.09400
N 	N 	0.07470 0.72610 0.93636 -0.13700
C 	C 	0.06793 0.79980 0.91140 0.10000
N 	N 	0.03883 0.85890 0.91254 -0.13500
N 	N 	0.12338 0.43900 0.13738 -0.27100
C 	C 	0.11870 0.52670 0.14300 0.07800
H 	H 	0.09970 0.55820 0.12210 -0.00200
C 	C 	0.13980 0.57430 0.17750 -0.12500
H 	H 	0.13560 0.63740 0.18020 0.09700
C 	C 	0.16706 0.53000 0.20810 0.06300
C 	C 	0.17273 0.43920 0.20220 -0.12800
H 	H 	0.19160 0.40640 0.22250 0.07100
C 	C 	0.15040 0.39620 0.16590 0.07200
H 	H 	0.15480 0.33370 0.16150 -0.01600
N 	N 	0.18477 0.99780 0.27520 -0.29300
C 	C 	0.21490 0.96480 0.30230 0.07700
H 	H 	0.23240 0.00540 0.32000 -0.02100
C 	C 	0.22240 0.87170 0.30640 -0.12700
H 	H 	0.24440 0.84920 0.32660 0.08000
C 	C 	0.19703 0.81390 0.28000 0.06200
C 	C 	0.16550 0.84930 0.25150 -0.12500
H 	H 	0.14740 0.81080 0.23320 0.08600
C 	C 	0.16060 0.94320 0.24980 0.07400
H 	H 	0.13920 0.96820 0.22960 -0.02000
N 	N 	0.33124 0.46160 0.39309 -0.27400
C 	C 	0.32300 0.54860 0.39790 0.07300
H 	H 	0.33840 0.58080 0.42170 -0.00600
C 	C 	0.29370 0.59440 0.37050 -0.12300
H 	H 	0.28890 0.65660 0.37510 0.08400
C 	C 	0.27115 0.54680 0.33593 0.04600
C 	C 	0.28000 0.45750 0.33020 -0.12500
H 	H 	0.26560 0.42390 0.30630 0.08900
C 	C 	0.30989 0.41720 0.35940 0.07000
H 	H 	0.31550 0.35520 0.35540 -0.00100
C 	C 	0.19009 0.58150 0.24545 0.09800
N 	N 	0.18074 0.66850 0.24820 -0.13300
C 	C 	0.20395 0.71490 0.27996 0.09900
N 	N 	0.23312 0.67930 0.30994 -0.14200
C 	C 	0.23917 0.59190 0.30434 0.08500
N 	N 	0.21935 0.53940 0.27234 -0.14300
I 	I 	0.12121 0.26010 0.05112 -0.10600
I 	I 	0.85360 0.10310 0.00971 -0.10700
Zn	Zn	0.16964 0.13880 0.26800 0.62400
I 	I 	0.23179 0.22800 0.29328 -0.01600
I 	I 	0.12581 0.15370 0.19452 -0.32900
Zn	Zn	0.17990 0.13170 0.27670 0.63200
I 	I 	0.24260 0.21320 0.30590 -0.36400
I 	I 	0.13380 0.27510 0.05390 -0.23600
I 	I 	0.84881 0.08460 0.01114 -0.22700
I 	I 	0.13370 0.16780 0.20210 -0.06000
Zn	Zn	0.37394 0.39824 0.43851 1.16400
Zn	Zn	0.58422 0.12742 0.58832 1.16000
I 	I 	0.39151 0.25817 0.40267 -0.39700
I 	I 	0.52742 0.15761 0.62554 -0.36200
N 	N 	0.42053 0.48460 0.44203 -0.27900
C 	C 	0.43478 0.53380 0.47710 0.07700
H 	H 	0.42280 0.52960 0.50200 -0.01000
C 	C 	0.46646 0.59130 0.47890 -0.13000
H 	H 	0.47560 0.62640 0.50450 0.07800
C 	C 	0.48436 0.59710 0.44380 0.05200
C 	C 	0.46780 0.55120 0.40580 -0.12500
H 	H 	0.47800 0.55730 0.37970 0.08600
C 	C 	0.43570 0.49600 0.40680 0.07700
H 	H 	0.42420 0.46490 0.38060 -0.01600
N 	N 	0.57054 0.01960 0.54500 -0.27100
C 	C 	0.53868 0.96920 0.54410 0.06500
H 	H 	0.52030 0.98680 0.56140 -0.00800
C 	C 	0.53171 0.89200 0.51870 -0.11100
H 	H 	0.50880 0.85710 0.51860 0.06600
C 	C 	0.55829 0.86590 0.49340 0.04700
C 	C 	0.59100 0.91880 0.49360 -0.11300
H 	H 	0.60970 0.90300 0.47640 0.07800
C 	C 	0.59570 0.99590 0.51980 0.06400
H 	H 	0.61780 0.03340 0.51960 -0.01200
N 	N 	0.63970 0.65420 0.31810 -0.29600
C 	C 	0.60880 0.60580 0.31850 0.09800
H 	H 	0.60280 0.55850 0.29750 -0.02900
C 	C 	0.58400 0.61910 0.34750 -0.13700
H 	H 	0.56110 0.58320 0.34560 0.08900
C 	C 	0.59270 0.68440 0.37910 0.07300
C 	C 	0.62680 0.73090 0.38190 -0.12200
H 	H 	0.63480 0.77400 0.40460 0.08500
C 	C 	0.64980 0.71380 0.35080 0.06900
H 	H 	0.67370 0.74610 0.35280 -0.01700
C 	C 	0.51804 0.65820 0.44320 0.09500
N 	N 	0.52409 0.72530 0.47178 -0.15000
C 	C 	0.55215 0.78260 0.46584 0.09400
N 	N 	0.57470 0.77390 0.43636 -0.13700
C 	C 	0.56793 0.70020 0.41140 0.10000
N 	N 	0.53883 0.64110 0.41254 -0.13500
N 	N 	0.62338 0.06100 0.63738 -0.27100
C 	C 	0.61870 0.97330 0.64300 0.07700
H 	H 	0.59970 0.94180 0.62210 -0.00200
C 	C 	0.63980 0.92570 0.67750 -0.12400
H 	H 	0.63560 0.86260 0.68020 0.09700
C 	C 	0.66706 0.97000 0.70810 0.06200
C 	C 	0.67273 0.06080 0.70220 -0.12700
H 	H 	0.69160 0.09360 0.72250 0.07100
C 	C 	0.65040 0.10380 0.66590 0.07200
H 	H 	0.65480 0.16630 0.66150 -0.01600
N 	N 	0.68477 0.50220 0.77520 -0.29300
C 	C 	0.71490 0.53520 0.80230 0.07600
H 	H 	0.73240 0.49460 0.82000 -0.02100
C 	C 	0.72240 0.62830 0.80640 -0.12600
H 	H 	0.74440 0.65080 0.82660 0.08000
C 	C 	0.69703 0.68610 0.78000 0.06200
C 	C 	0.66550 0.65070 0.75150 -0.12400
H 	H 	0.64740 0.68920 0.73320 0.08600
C 	C 	0.66060 0.55680 0.74980 0.07400
H 	H 	0.63920 0.53180 0.72960 -0.02000
N 	N 	0.83124 0.03840 0.89309 -0.27400
C 	C 	0.82300 0.95140 0.89790 0.07300
H 	H 	0.83840 0.91920 0.92170 -0.00600
C 	C 	0.79370 0.90560 0.87050 -0.12200
H 	H 	0.78890 0.84340 0.87510 0.08400
C 	C 	0.77115 0.95320 0.83593 0.04600
C 	C 	0.78000 0.04250 0.83020 -0.12500
H 	H 	0.76560 0.07610 0.80630 0.08900
C 	C 	0.80989 0.08280 0.85940 0.06900
H 	H 	0.81550 0.14480 0.85540 -0.00100
C 	C 	0.69009 0.91850 0.74545 0.09800
N 	N 	0.68074 0.83150 0.74820 -0.13300
C 	C 	0.70395 0.78510 0.77996 0.09900
N 	N 	0.73312 0.82070 0.80994 -0.14200
C 	C 	0.73917 0.90810 0.80434 0.08500
N 	N 	0.71935 0.96060 0.77234 -0.14300
I 	I 	0.62121 0.23990 0.55112 -0.10600
I 	I 	0.35360 0.39690 0.50971 -0.10700
Zn	Zn	0.66964 0.36120 0.76800 0.62400
I 	I 	0.73179 0.27200 0.79328 -0.01600
I 	I 	0.62581 0.34630 0.69452 -0.32900
Zn	Zn	0.67990 0.36830 0.77670 0.63200
I 	I 	0.74260 0.28680 0.80590 -0.36400
I 	I 	0.63380 0.22490 0.55390 -0.23500
I 	I 	0.34881 0.41540 0.51114 -0.22700
I 	I 	0.63370 0.33220 0.70210 -0.06000
Zn	Zn	0.87394 0.89824 0.43851 1.16400
Zn	Zn	0.08422 0.62742 0.58832 1.16000
I 	I 	0.89151 0.75817 0.40267 -0.39700
I 	I 	0.02742 0.65761 0.62554 -0.36200
N 	N 	0.92053 0.98460 0.44203 -0.27900
C 	C 	0.93478 0.03380 0.47710 0.07700
H 	H 	0.92280 0.02960 0.50200 -0.01000
C 	C 	0.96646 0.09130 0.47890 -0.13000
H 	H 	0.97560 0.12640 0.50450 0.07800
C 	C 	0.98436 0.09710 0.44380 0.05200
C 	C 	0.96780 0.05120 0.40580 -0.12500
H 	H 	0.97800 0.05730 0.37970 0.08600
C 	C 	0.93570 0.99600 0.40680 0.07700
H 	H 	0.92420 0.96490 0.38060 -0.01600
N 	N 	0.07054 0.51960 0.54500 -0.27100
C 	C 	0.03868 0.46920 0.54410 0.06500
H 	H 	0.02030 0.48680 0.56140 -0.00800
C 	C 	0.03171 0.39200 0.51870 -0.11100
H 	H 	0.00880 0.35710 0.51860 0.06600
C 	C 	0.05829 0.36590 0.49340 0.04700
C 	C 	0.09100 0.41880 0.49360 -0.11300
H 	H 	0.10970 0.40300 0.47640 0.07800
C 	C 	0.09570 0.49590 0.51980 0.06500
H 	H 	0.11780 0.53340 0.51960 -0.01200
N 	N 	0.13970 0.15420 0.31810 -0.29600
C 	C 	0.10880 0.10580 0.31850 0.09800
H 	H 	0.10280 0.05850 0.29750 -0.02900
C 	C 	0.08400 0.11910 0.34750 -0.13700
H 	H 	0.06110 0.08320 0.34560 0.08900
C 	C 	0.09270 0.18440 0.37910 0.07300
C 	C 	0.12680 0.23090 0.38190 -0.12200
H 	H 	0.13480 0.27400 0.40460 0.08500
C 	C 	0.14980 0.21380 0.35080 0.06900
H 	H 	0.17370 0.24610 0.35280 -0.01700
C 	C 	0.01804 0.15820 0.44320 0.09500
N 	N 	0.02409 0.22530 0.47178 -0.15000
C 	C 	0.05215 0.28260 0.46584 0.09400
N 	N 	0.07470 0.27390 0.43636 -0.13700
C 	C 	0.06793 0.20020 0.41140 0.10000
N 	N 	0.03883 0.14110 0.41254 -0.13500
N 	N 	0.12338 0.56100 0.63738 -0.27100
C 	C 	0.11870 0.47330 0.64300 0.07800
H 	H 	0.09970 0.44180 0.62210 -0.00200
C 	C 	0.13980 0.42570 0.67750 -0.12500
H 	H 	0.13560 0.36260 0.68020 0.09700
C 	C 	0.16706 0.47000 0.70810 0.06300
C 	C 	0.17273 0.56080 0.70220 -0.12800
H 	H 	0.19160 0.59360 0.72250 0.07100
C 	C 	0.15040 0.60380 0.66590 0.07200
H 	H 	0.15480 0.66630 0.66150 -0.01600
N 	N 	0.18477 0.00220 0.77520 -0.29300
C 	C 	0.21490 0.03520 0.80230 0.07700
H 	H 	0.23240 0.99460 0.82000 -0.02100
C 	C 	0.22240 0.12830 0.80640 -0.12700
H 	H 	0.24440 0.15080 0.82660 0.08000
C 	C 	0.19703 0.18610 0.78000 0.06200
C 	C 	0.16550 0.15070 0.75150 -0.12500
H 	H 	0.14740 0.18920 0.73320 0.08600
C 	C 	0.16060 0.05680 0.74980 0.07400
H 	H 	0.13920 0.03180 0.72960 -0.02000
N 	N 	0.33124 0.53840 0.89309 -0.27400
C 	C 	0.32300 0.45140 0.89790 0.07300
H 	H 	0.33840 0.41920 0.92170 -0.00600
C 	C 	0.29370 0.40560 0.87050 -0.12300
H 	H 	0.28890 0.34340 0.87510 0.08400
C 	C 	0.27115 0.45320 0.83593 0.04600
C 	C 	0.28000 0.54250 0.83020 -0.12500
H 	H 	0.26560 0.57610 0.80630 0.08900
C 	C 	0.30989 0.58280 0.85940 0.07000
H 	H 	0.31550 0.64480 0.85540 -0.00100
C 	C 	0.19009 0.41850 0.74545 0.09800
N 	N 	0.18074 0.33150 0.74820 -0.13300
C 	C 	0.20395 0.28510 0.77996 0.09900
N 	N 	0.23312 0.32070 0.80994 -0.14200
C 	C 	0.23917 0.40810 0.80434 0.08500
N 	N 	0.21935 0.46060 0.77234 -0.14300
I 	I 	0.12121 0.73990 0.55112 -0.10600
I 	I 	0.85360 0.89690 0.50971 -0.10700
Zn	Zn	0.16964 0.86120 0.76800 0.62400
I 	I 	0.23179 0.77200 0.79328 -0.01600
I 	I 	0.12581 0.84630 0.69452 -0.32900
Zn	Zn	0.17990 0.86830 0.77670 0.63200
I 	I 	0.24260 0.78680 0.80590 -0.36400
I 	I 	0.13380 0.72490 0.55390 -0.23500
I 	I 	0.84881 0.91540 0.51114 -0.22700
I 	I 	0.13370 0.83220 0.70210 -0.06000
