data_crystal

_cell_length_a 34.74080
_cell_length_b 14.90180
_cell_length_c 31.05840
_cell_angle_alpha 90.00000
_cell_angle_beta  101.43700
_cell_angle_gamma 90.00000

_symmetry_space_group_name_	'P 1'
_symmetry_space_group_name_H-M	'P 1'

loop_
_symmetry_equiv_pos_as_xyz
  x,y,z

loop_
_atom_site_label
_atom_site_type_symbol
_atom_site_fract_x
_atom_site_fract_y
_atom_site_fract_z
_atom_site_charge
N 	N 	0.81437 0.00270 0.72248 -0.28900
C 	C 	0.78460 0.96860 0.69440 0.08200
H 	H 	0.76730 0.00790 0.67580 -0.02000
C 	C 	0.77784 0.87660 0.69110 -0.12900
H 	H 	0.75640 0.85390 0.67010 0.08000
C 	C 	0.80193 0.81900 0.71797 0.06000
C 	C 	0.83350 0.85620 0.74770 -0.12200
H 	H 	0.85110 0.81870 0.76700 0.08500
C 	C 	0.83860 0.94830 0.74840 0.07200
H 	H 	0.86030 0.97330 0.76830 -0.02000
N 	N 	0.66907 0.46580 0.60560 -0.28200
C 	C 	0.67669 0.55210 0.60017 0.06900
H 	H 	0.66140 0.58340 0.57610 -0.00600
C 	C 	0.70609 0.59840 0.62824 -0.11700
H 	H 	0.71070 0.66010 0.62350 0.08300
C 	C 	0.72848 0.55290 0.66316 0.04400
C 	C 	0.72030 0.46270 0.66860 -0.12300
H 	H 	0.73510 0.42960 0.69230 0.08700
C 	C 	0.69084 0.42220 0.63964 0.06700
H 	H 	0.68550 0.36060 0.64380 -0.00400
N 	N 	0.87956 0.44460 0.85882 -0.28700
C 	C 	0.88600 0.53070 0.85150 0.07600
H 	H 	0.90720 0.55990 0.87020 -0.01100
C 	C 	0.86370 0.57970 0.81840 -0.12400
H 	H 	0.86860 0.64190 0.81530 0.09500
C 	C 	0.83401 0.53700 0.78937 0.06100
C 	C 	0.82748 0.44760 0.79636 -0.13000
H 	H 	0.80720 0.41600 0.77730 0.07200
C 	C 	0.85076 0.40420 0.83150 0.07300
H 	H 	0.84580 0.34260 0.83620 -0.01900
C 	C 	0.79557 0.72020 0.71855 0.10100
N 	N 	0.76622 0.68560 0.68886 -0.14300
C 	C 	0.76051 0.59830 0.69414 0.08500
N 	N 	0.78101 0.54670 0.72619 -0.14300
C 	C 	0.81026 0.58850 0.75254 0.09800
N 	N 	0.81945 0.67590 0.74974 -0.13400
N 	N 	0.57937 0.48820 0.55729 -0.28800
C 	C 	0.56470 0.53520 0.52190 0.08300
H 	H 	0.57620 0.52980 0.49670 -0.01500
C 	C 	0.53320 0.59190 0.52023 -0.13500
H 	H 	0.52360 0.62560 0.49440 0.08000
C 	C 	0.51585 0.59970 0.55565 0.05800
C 	C 	0.53330 0.55480 0.59380 -0.13500
H 	H 	0.52370 0.56220 0.62010 0.08900
C 	C 	0.56450 0.50000 0.59250 0.08800
H 	H 	0.57600 0.46870 0.61850 -0.02300
N 	N 	0.43205 0.01750 0.45224 -0.28700
C 	C 	0.46304 0.96480 0.45289 0.07700
H 	H 	0.48140 0.98000 0.43520 -0.01200
C 	C 	0.46923 0.88850 0.47872 -0.12500
H 	H 	0.49140 0.85150 0.47840 0.07200
C 	C 	0.44315 0.86690 0.50479 0.05500
C 	C 	0.41170 0.92300 0.50520 -0.12500
H 	H 	0.39350 0.91070 0.52350 0.08100
C 	C 	0.40730 0.99800 0.47800 0.07500
H 	H 	0.38570 0.03680 0.47810 -0.02400
N 	N 	0.35842 0.65720 0.67880 -0.29900
C 	C 	0.38980 0.60900 0.67850 0.09800
H 	H 	0.39630 0.56290 0.69980 -0.03100
C 	C 	0.41370 0.62090 0.64930 -0.14300
H 	H 	0.43590 0.58300 0.65050 0.08900
C 	C 	0.40613 0.68670 0.61840 0.07700
C 	C 	0.37190 0.73380 0.61660 -0.13200
H 	H 	0.36430 0.77800 0.59460 0.08700
C 	C 	0.34890 0.71660 0.64660 0.08000
H 	H 	0.32500 0.74870 0.64430 -0.02100
C 	C 	0.48181 0.65980 0.55616 0.08900
N 	N 	0.47654 0.72730 0.52714 -0.14900
C 	C 	0.44802 0.78430 0.53264 0.08800
N 	N 	0.42480 0.77520 0.56107 -0.13600
C 	C 	0.43134 0.70220 0.58672 0.09600
N 	N 	0.46061 0.64380 0.58603 -0.13500
Zn	Zn	0.42022 0.12770 0.40714 0.56100
I 	I 	0.38307 0.23886 0.44160 -0.09200
I 	I 	0.47671 0.15072 0.37206 -0.22900
Zn	Zn	0.82100 0.13820 0.72090 0.63300
I 	I 	0.75667 0.21900 0.69290 -0.41800
I 	I 	0.86570 0.16870 0.79520 -0.01000
Zn	Zn	0.62190 0.39610 0.56200 0.60600
I 	I 	0.60490 0.26450 0.60180 -0.27800
I 	I 	0.64440 0.40490 0.48840 -0.13000
Zn	Zn	0.82944 0.14250 0.73213 0.61600
I 	I 	0.76842 0.23401 0.70818 0.03200
I 	I 	0.87405 0.15885 0.80605 -0.39200
Zn	Zn	0.63074 0.40710 0.55930 0.61300
I 	I 	0.61375 0.25830 0.59246 -0.09300
I 	I 	0.65145 0.41230 0.48880 -0.22200
Zn	Zn	0.41330 0.11230 0.40860 0.63100
I 	I 	0.37170 0.22790 0.44357 -0.25800
I 	I 	0.47570 0.15390 0.37970 -0.10000
N 	N 	0.31437 0.50270 0.72248 -0.28700
C 	C 	0.28460 0.46860 0.69440 0.07400
H 	H 	0.26730 0.50790 0.67580 -0.01700
C 	C 	0.27784 0.37660 0.69110 -0.12500
H 	H 	0.25640 0.35390 0.67010 0.07800
C 	C 	0.30193 0.31900 0.71797 0.05800
C 	C 	0.33350 0.35620 0.74770 -0.12000
H 	H 	0.35110 0.31870 0.76700 0.08400
C 	C 	0.33860 0.44830 0.74840 0.06900
H 	H 	0.36030 0.47330 0.76830 -0.01900
N 	N 	0.16907 0.96580 0.60560 -0.28000
C 	C 	0.17669 0.05210 0.60017 0.06500
H 	H 	0.16140 0.08340 0.57610 -0.00500
C 	C 	0.20609 0.09840 0.62824 -0.11500
H 	H 	0.21070 0.16010 0.62350 0.08200
C 	C 	0.22848 0.05290 0.66316 0.04000
C 	C 	0.22030 0.96270 0.66860 -0.11900
H 	H 	0.23510 0.92960 0.69230 0.08600
C 	C 	0.19084 0.92220 0.63964 0.06600
H 	H 	0.18550 0.86060 0.64380 -0.00300
N 	N 	0.37956 0.94460 0.85882 -0.28600
C 	C 	0.38600 0.03070 0.85150 0.07300
H 	H 	0.40720 0.05990 0.87020 -0.01000
C 	C 	0.36370 0.07970 0.81840 -0.12200
H 	H 	0.36860 0.14190 0.81530 0.09300
C 	C 	0.33401 0.03700 0.78937 0.05700
C 	C 	0.32748 0.94760 0.79636 -0.12600
H 	H 	0.30720 0.91600 0.77730 0.07100
C 	C 	0.35076 0.90420 0.83150 0.07200
H 	H 	0.34580 0.84260 0.83620 -0.01900
C 	C 	0.29557 0.22020 0.71855 0.10200
N 	N 	0.26622 0.18560 0.68886 -0.14300
C 	C 	0.26051 0.09830 0.69414 0.08500
N 	N 	0.28101 0.04670 0.72619 -0.14400
C 	C 	0.31026 0.08850 0.75254 0.09900
N 	N 	0.31945 0.17590 0.74974 -0.13400
N 	N 	0.07937 0.98820 0.55729 -0.28500
C 	C 	0.06470 0.03520 0.52190 0.07900
H 	H 	0.07620 0.02980 0.49670 -0.01400
C 	C 	0.03320 0.09190 0.52023 -0.13200
H 	H 	0.02360 0.12560 0.49440 0.07800
C 	C 	0.01585 0.09970 0.55565 0.05500
C 	C 	0.03330 0.05480 0.59380 -0.13000
H 	H 	0.02370 0.06220 0.62010 0.08700
C 	C 	0.06450 -0.00000 0.59250 0.08000
H 	H 	0.07600 0.96870 0.61850 -0.02000
N 	N 	0.93205 0.51750 0.45224 -0.28300
C 	C 	0.96304 0.46480 0.45289 0.07300
H 	H 	0.98140 0.48000 0.43520 -0.01200
C 	C 	0.96923 0.38850 0.47872 -0.12300
H 	H 	0.99140 0.35150 0.47840 0.07100
C 	C 	0.94315 0.36690 0.50479 0.05300
C 	C 	0.91170 0.42300 0.50520 -0.12100
H 	H 	0.89350 0.41070 0.52350 0.07900
C 	C 	0.90730 0.49800 0.47800 0.06800
H 	H 	0.88570 0.53680 0.47810 -0.02100
N 	N 	0.85842 0.15720 0.67880 -0.29900
C 	C 	0.88980 0.10900 0.67850 0.09800
H 	H 	0.89630 0.06290 0.69980 -0.03100
C 	C 	0.91370 0.12090 0.64930 -0.14300
H 	H 	0.93590 0.08300 0.65050 0.08900
C 	C 	0.90613 0.18670 0.61840 0.07700
C 	C 	0.87190 0.23380 0.61660 -0.13200
H 	H 	0.86430 0.27800 0.59460 0.08700
C 	C 	0.84890 0.21660 0.64660 0.08000
H 	H 	0.82500 0.24870 0.64430 -0.02100
C 	C 	0.98181 0.15980 0.55616 0.09000
N 	N 	0.97654 0.22730 0.52714 -0.14900
C 	C 	0.94802 0.28430 0.53264 0.08900
N 	N 	0.92480 0.27520 0.56107 -0.13700
C 	C 	0.93134 0.20220 0.58672 0.09500
N 	N 	0.96061 0.14380 0.58603 -0.13600
Zn	Zn	0.92022 0.62770 0.40714 0.56100
I 	I 	0.88307 0.73886 0.44160 -0.09100
I 	I 	0.97671 0.65072 0.37206 -0.22900
Zn	Zn	0.32100 0.63820 0.72090 0.63300
I 	I 	0.25667 0.71900 0.69290 -0.41800
I 	I 	0.36570 0.66870 0.79520 -0.00900
Zn	Zn	0.12190 0.89610 0.56200 0.60600
I 	I 	0.10490 0.76450 0.60180 -0.27700
I 	I 	0.14440 0.90490 0.48840 -0.13000
Zn	Zn	0.32944 0.64250 0.73213 0.61600
I 	I 	0.26842 0.73401 0.70818 0.03200
I 	I 	0.37405 0.65885 0.80605 -0.39200
Zn	Zn	0.13074 0.90710 0.55930 0.61300
I 	I 	0.11375 0.75830 0.59246 -0.09300
I 	I 	0.15145 0.91230 0.48880 -0.22100
Zn	Zn	0.91330 0.61230 0.40860 0.63200
I 	I 	0.87170 0.72790 0.44357 -0.25800
I 	I 	0.97570 0.65390 0.37970 -0.10000
N 	N 	0.81437 0.99730 0.22248 -0.28300
C 	C 	0.78460 0.03140 0.19440 0.06600
H 	H 	0.76730 0.99210 0.17580 -0.01400
C 	C 	0.77784 0.12340 0.19110 -0.12100
H 	H 	0.75640 0.14610 0.17010 0.07700
C 	C 	0.80193 0.18100 0.21797 0.05500
C 	C 	0.83350 0.14380 0.24770 -0.11700
H 	H 	0.85110 0.18130 0.26700 0.08300
C 	C 	0.83860 0.05170 0.24840 0.06500
H 	H 	0.86030 0.02670 0.26830 -0.01900
N 	N 	0.66907 0.53420 0.10560 -0.28200
C 	C 	0.67669 0.44790 0.10017 0.06900
H 	H 	0.66140 0.41660 0.07610 -0.00600
C 	C 	0.70609 0.40160 0.12824 -0.11700
H 	H 	0.71070 0.33990 0.12350 0.08300
C 	C 	0.72848 0.44710 0.16316 0.04300
C 	C 	0.72030 0.53730 0.16860 -0.12300
H 	H 	0.73510 0.57040 0.19230 0.08700
C 	C 	0.69084 0.57780 0.13964 0.06700
H 	H 	0.68550 0.63940 0.14380 -0.00400
N 	N 	0.87956 0.55540 0.35882 -0.28700
C 	C 	0.88600 0.46930 0.35150 0.07600
H 	H 	0.90720 0.44010 0.37020 -0.01100
C 	C 	0.86370 0.42030 0.31840 -0.12400
H 	H 	0.86860 0.35810 0.31530 0.09400
C 	C 	0.83401 0.46300 0.28937 0.06100
C 	C 	0.82748 0.55240 0.29636 -0.13000
H 	H 	0.80720 0.58400 0.27730 0.07200
C 	C 	0.85076 0.59580 0.33150 0.07300
H 	H 	0.84580 0.65740 0.33620 -0.01900
C 	C 	0.79557 0.27980 0.21855 0.10300
N 	N 	0.76622 0.31440 0.18886 -0.14300
C 	C 	0.76051 0.40170 0.19414 0.08500
N 	N 	0.78101 0.45330 0.22619 -0.14300
C 	C 	0.81026 0.41150 0.25254 0.09800
N 	N 	0.81945 0.32410 0.24974 -0.13400
N 	N 	0.57937 0.51180 0.05729 -0.28800
C 	C 	0.56470 0.46480 0.02190 0.08300
H 	H 	0.57620 0.47020 0.99670 -0.01500
C 	C 	0.53320 0.40810 0.02023 -0.13500
H 	H 	0.52360 0.37440 0.99440 0.08000
C 	C 	0.51585 0.40030 0.05565 0.05800
C 	C 	0.53330 0.44520 0.09380 -0.13500
H 	H 	0.52370 0.43780 0.12010 0.08900
C 	C 	0.56450 0.50000 0.09250 0.08800
H 	H 	0.57600 0.53130 0.11850 -0.02300
N 	N 	0.43205 0.98250 0.95224 -0.28000
C 	C 	0.46304 0.03520 0.95289 0.07000
H 	H 	0.48140 0.02000 0.93520 -0.01200
C 	C 	0.46923 0.11150 0.97872 -0.12000
H 	H 	0.49140 0.14850 0.97840 0.07000
C 	C 	0.44315 0.13310 0.00479 0.05000
C 	C 	0.41170 0.07700 0.00520 -0.11800
H 	H 	0.39350 0.08930 0.02350 0.07800
C 	C 	0.40730 0.00200 0.97800 0.06200
H 	H 	0.38570 0.96320 0.97810 -0.01800
N 	N 	0.35842 0.34280 0.17880 -0.29900
C 	C 	0.38980 0.39100 0.17850 0.09800
H 	H 	0.39630 0.43710 0.19980 -0.03100
C 	C 	0.41370 0.37910 0.14930 -0.14300
H 	H 	0.43590 0.41700 0.15050 0.09000
C 	C 	0.40613 0.31330 0.11840 0.07700
C 	C 	0.37190 0.26620 0.11660 -0.13200
H 	H 	0.36430 0.22200 0.09460 0.08600
C 	C 	0.34890 0.28340 0.14660 0.08000
H 	H 	0.32500 0.25130 0.14430 -0.02100
C 	C 	0.48181 0.34020 0.05616 0.08900
N 	N 	0.47654 0.27270 0.02714 -0.14900
C 	C 	0.44802 0.21570 0.03264 0.08900
N 	N 	0.42480 0.22480 0.06107 -0.13700
C 	C 	0.43134 0.29780 0.08672 0.09500
N 	N 	0.46061 0.35620 0.08603 -0.13500
Zn	Zn	0.42022 0.87230 0.90714 0.56100
I 	I 	0.38307 0.76114 0.94160 -0.09100
I 	I 	0.47671 0.84928 0.87206 -0.22900
Zn	Zn	0.82100 0.86180 0.22090 0.63400
I 	I 	0.75667 0.78100 0.19290 -0.41800
I 	I 	0.86570 0.83130 0.29520 -0.00900
Zn	Zn	0.62190 0.60390 0.06200 0.60600
I 	I 	0.60490 0.73550 0.10180 -0.27700
I 	I 	0.64440 0.59510 0.98840 -0.13000
Zn	Zn	0.82944 0.85750 0.23213 0.61600
I 	I 	0.76842 0.76599 0.20818 0.03200
I 	I 	0.87405 0.84115 0.30605 -0.39200
Zn	Zn	0.63074 0.59290 0.05930 0.61300
I 	I 	0.61375 0.74170 0.09246 -0.09300
I 	I 	0.65145 0.58770 0.98880 -0.22200
Zn	Zn	0.41330 0.88770 0.90860 0.63200
I 	I 	0.37170 0.77210 0.94357 -0.25800
I 	I 	0.47570 0.84610 0.87970 -0.09900
N 	N 	0.31437 0.49730 0.22248 -0.28700
C 	C 	0.28460 0.53140 0.19440 0.07400
H 	H 	0.26730 0.49210 0.17580 -0.01700
C 	C 	0.27784 0.62340 0.19110 -0.12500
H 	H 	0.25640 0.64610 0.17010 0.07800
C 	C 	0.30193 0.68100 0.21797 0.05800
C 	C 	0.33350 0.64380 0.24770 -0.12000
H 	H 	0.35110 0.68130 0.26700 0.08400
C 	C 	0.33860 0.55170 0.24840 0.06900
H 	H 	0.36030 0.52670 0.26830 -0.01900
N 	N 	0.16907 0.03420 0.10560 -0.28400
C 	C 	0.17669 0.94790 0.10017 0.07300
H 	H 	0.16140 0.91660 0.07610 -0.00700
C 	C 	0.20609 0.90160 0.12824 -0.12000
H 	H 	0.21070 0.83990 0.12350 0.08400
C 	C 	0.22848 0.94710 0.16316 0.04800
C 	C 	0.22030 0.03730 0.16860 -0.12800
H 	H 	0.23510 0.07040 0.19230 0.08900
C 	C 	0.19084 0.07780 0.13964 0.06900
H 	H 	0.18550 0.13940 0.14380 -0.00500
N 	N 	0.37956 0.05540 0.35882 -0.28900
C 	C 	0.38600 0.96930 0.35150 0.08000
H 	H 	0.40720 0.94010 0.37020 -0.01200
C 	C 	0.36370 0.92030 0.31840 -0.12700
H 	H 	0.36860 0.85810 0.31530 0.09600
C 	C 	0.33401 0.96300 0.28937 0.06600
C 	C 	0.32748 0.05240 0.29636 -0.13500
H 	H 	0.30720 0.08400 0.27730 0.07300
C 	C 	0.35076 0.09580 0.33150 0.07500
H 	H 	0.34580 0.15740 0.33620 -0.02000
C 	C 	0.29557 0.77980 0.21855 0.10200
N 	N 	0.26622 0.81440 0.18886 -0.14300
C 	C 	0.26051 0.90170 0.19414 0.08400
N 	N 	0.28101 0.95330 0.22619 -0.14200
C 	C 	0.31026 0.91150 0.25254 0.09700
N 	N 	0.31945 0.82410 0.24974 -0.13400
N 	N 	0.07937 0.01180 0.05729 -0.28900
C 	C 	0.06470 0.96480 0.02190 0.08500
H 	H 	0.07620 0.97020 0.99670 -0.01500
C 	C 	0.03320 0.90810 0.02023 -0.13500
H 	H 	0.02360 0.87440 0.99440 0.08000
C 	C 	0.01585 0.90030 0.05565 0.05700
C 	C 	0.03330 0.94520 0.09380 -0.13000
H 	H 	0.02370 0.93780 0.12010 0.08800
C 	C 	0.06450 0.00000 0.09250 0.08300
H 	H 	0.07600 0.03130 0.11850 -0.02300
N 	N 	0.93205 0.48250 0.95224 -0.28300
C 	C 	0.96304 0.53520 0.95289 0.07300
H 	H 	0.98140 0.52000 0.93520 -0.01200
C 	C 	0.96923 0.61150 0.97872 -0.12300
H 	H 	0.99140 0.64850 0.97840 0.07100
C 	C 	0.94315 0.63310 0.00479 0.05300
C 	C 	0.91170 0.57700 0.00520 -0.12100
H 	H 	0.89350 0.58930 0.02350 0.07900
C 	C 	0.90730 0.50200 0.97800 0.06800
H 	H 	0.88570 0.46320 0.97810 -0.02100
N 	N 	0.85842 0.84280 0.17880 -0.29900
C 	C 	0.88980 0.89100 0.17850 0.09800
H 	H 	0.89630 0.93710 0.19980 -0.03100
C 	C 	0.91370 0.87910 0.14930 -0.14300
H 	H 	0.93590 0.91700 0.15050 0.09000
C 	C 	0.90613 0.81330 0.11840 0.07700
C 	C 	0.87190 0.76620 0.11660 -0.13200
H 	H 	0.86430 0.72200 0.09460 0.08700
C 	C 	0.84890 0.78340 0.14660 0.08000
H 	H 	0.82500 0.75130 0.14430 -0.02100
C 	C 	0.98181 0.84020 0.05616 0.09000
N 	N 	0.97654 0.77270 0.02714 -0.14900
C 	C 	0.94802 0.71570 0.03264 0.08900
N 	N 	0.92480 0.72480 0.06107 -0.13700
C 	C 	0.93134 0.79780 0.08672 0.09600
N 	N 	0.96061 0.85620 0.08603 -0.13500
Zn	Zn	0.92022 0.37230 0.90714 0.56100
I 	I 	0.88307 0.26114 0.94160 -0.09100
I 	I 	0.97671 0.34928 0.87206 -0.22900
Zn	Zn	0.32100 0.36180 0.22090 0.63300
I 	I 	0.25667 0.28100 0.19290 -0.41800
I 	I 	0.36570 0.33130 0.29520 -0.00900
Zn	Zn	0.12190 0.10390 0.06200 0.60600
I 	I 	0.10490 0.23550 0.10180 -0.27700
I 	I 	0.14440 0.09510 0.98840 -0.13100
Zn	Zn	0.32944 0.35750 0.23213 0.61600
I 	I 	0.26842 0.26599 0.20818 0.03200
I 	I 	0.37405 0.34115 0.30605 -0.39200
Zn	Zn	0.13074 0.09290 0.05930 0.61200
I 	I 	0.11375 0.24170 0.09246 -0.09300
I 	I 	0.15145 0.08770 0.98880 -0.22200
Zn	Zn	0.91330 0.38770 0.90860 0.63200
I 	I 	0.87170 0.27210 0.94357 -0.25800
I 	I 	0.97570 0.34610 0.87970 -0.10000
N 	N 	0.18563 0.00270 0.77752 -0.29000
C 	C 	0.21540 0.96860 0.80560 0.08100
H 	H 	0.23270 0.00790 0.82420 -0.02100
C 	C 	0.22216 0.87660 0.80890 -0.12900
H 	H 	0.24360 0.85390 0.82990 0.08000
C 	C 	0.19807 0.81900 0.78203 0.06000
C 	C 	0.16650 0.85620 0.75230 -0.12200
H 	H 	0.14890 0.81870 0.73300 0.08500
C 	C 	0.16140 0.94830 0.75160 0.07200
H 	H 	0.13970 0.97330 0.73170 -0.02000
N 	N 	0.33093 0.46580 0.89440 -0.28200
C 	C 	0.32331 0.55210 0.89983 0.06900
H 	H 	0.33860 0.58340 0.92390 -0.00600
C 	C 	0.29391 0.59840 0.87176 -0.11700
H 	H 	0.28930 0.66010 0.87650 0.08300
C 	C 	0.27152 0.55290 0.83684 0.04400
C 	C 	0.27970 0.46270 0.83140 -0.12300
H 	H 	0.26490 0.42960 0.80770 0.08700
C 	C 	0.30916 0.42220 0.86036 0.06700
H 	H 	0.31450 0.36060 0.85620 -0.00400
N 	N 	0.12044 0.44460 0.64118 -0.28700
C 	C 	0.11400 0.53070 0.64850 0.07600
H 	H 	0.09280 0.55990 0.62980 -0.01100
C 	C 	0.13630 0.57970 0.68160 -0.12400
H 	H 	0.13140 0.64190 0.68470 0.09500
C 	C 	0.16599 0.53700 0.71063 0.06100
C 	C 	0.17252 0.44760 0.70364 -0.13000
H 	H 	0.19280 0.41600 0.72270 0.07200
C 	C 	0.14924 0.40420 0.66850 0.07300
H 	H 	0.15420 0.34260 0.66380 -0.01900
C 	C 	0.20443 0.72020 0.78145 0.10100
N 	N 	0.23378 0.68560 0.81114 -0.14300
C 	C 	0.23949 0.59830 0.80586 0.08500
N 	N 	0.21899 0.54670 0.77381 -0.14300
C 	C 	0.18974 0.58850 0.74746 0.09800
N 	N 	0.18055 0.67590 0.75026 -0.13400
N 	N 	0.42063 0.48820 0.94271 -0.28800
C 	C 	0.43530 0.53520 0.97810 0.08300
H 	H 	0.42380 0.52980 0.00330 -0.01500
C 	C 	0.46680 0.59190 0.97977 -0.13500
H 	H 	0.47640 0.62560 0.00560 0.08000
C 	C 	0.48415 0.59970 0.94435 0.05800
C 	C 	0.46670 0.55480 0.90620 -0.13500
H 	H 	0.47630 0.56220 0.87990 0.08900
C 	C 	0.43550 0.50000 0.90750 0.08800
H 	H 	0.42400 0.46870 0.88150 -0.02300
N 	N 	0.56795 0.01750 0.04776 -0.28700
C 	C 	0.53696 0.96480 0.04711 0.07700
H 	H 	0.51860 0.98000 0.06480 -0.01200
C 	C 	0.53077 0.88850 0.02128 -0.12500
H 	H 	0.50860 0.85150 0.02160 0.07200
C 	C 	0.55685 0.86690 0.99521 0.05500
C 	C 	0.58830 0.92300 0.99480 -0.12600
H 	H 	0.60650 0.91070 0.97650 0.08100
C 	C 	0.59270 0.99800 0.02200 0.07600
H 	H 	0.61430 0.03680 0.02190 -0.02500
N 	N 	0.64158 0.65720 0.82120 -0.29900
C 	C 	0.61020 0.60900 0.82150 0.09800
H 	H 	0.60370 0.56290 0.80020 -0.03100
C 	C 	0.58630 0.62090 0.85070 -0.14300
H 	H 	0.56410 0.58300 0.84950 0.08900
C 	C 	0.59387 0.68670 0.88160 0.07700
C 	C 	0.62810 0.73380 0.88340 -0.13200
H 	H 	0.63570 0.77800 0.90540 0.08700
C 	C 	0.65110 0.71660 0.85340 0.08000
H 	H 	0.67500 0.74870 0.85570 -0.02100
C 	C 	0.51819 0.65980 0.94384 0.08900
N 	N 	0.52346 0.72730 0.97286 -0.14900
C 	C 	0.55198 0.78430 0.96736 0.08800
N 	N 	0.57520 0.77520 0.93893 -0.13600
C 	C 	0.56866 0.70220 0.91328 0.09600
N 	N 	0.53939 0.64380 0.91397 -0.13500
Zn	Zn	0.57978 0.12770 0.09286 0.56100
I 	I 	0.61693 0.23886 0.05840 -0.09200
I 	I 	0.52329 0.15072 0.12794 -0.22900
Zn	Zn	0.17900 0.13820 0.77910 0.63300
I 	I 	0.24333 0.21900 0.80710 -0.41800
I 	I 	0.13430 0.16870 0.70480 -0.01000
Zn	Zn	0.37810 0.39610 0.93800 0.60600
I 	I 	0.39510 0.26450 0.89820 -0.27700
I 	I 	0.35560 0.40490 0.01160 -0.13000
Zn	Zn	0.17056 0.14250 0.76787 0.61600
I 	I 	0.23158 0.23401 0.79182 0.03200
I 	I 	0.12595 0.15885 0.69395 -0.39200
Zn	Zn	0.36926 0.40710 0.94070 0.61300
I 	I 	0.38625 0.25830 0.90754 -0.09300
I 	I 	0.34855 0.41230 0.01120 -0.22200
Zn	Zn	0.58670 0.11230 0.09140 0.63100
I 	I 	0.62830 0.22790 0.05643 -0.25800
I 	I 	0.52430 0.15390 0.12030 -0.10000
N 	N 	0.68563 0.50270 0.77752 -0.28700
C 	C 	0.71540 0.46860 0.80560 0.07400
H 	H 	0.73270 0.50790 0.82420 -0.01700
C 	C 	0.72216 0.37660 0.80890 -0.12500
H 	H 	0.74360 0.35390 0.82990 0.07800
C 	C 	0.69807 0.31900 0.78203 0.05800
C 	C 	0.66650 0.35620 0.75230 -0.12000
H 	H 	0.64890 0.31870 0.73300 0.08400
C 	C 	0.66140 0.44830 0.75160 0.06900
H 	H 	0.63970 0.47330 0.73170 -0.01900
N 	N 	0.83093 0.96580 0.89440 -0.28000
C 	C 	0.82331 0.05210 0.89983 0.06500
H 	H 	0.83860 0.08340 0.92390 -0.00500
C 	C 	0.79391 0.09840 0.87176 -0.11500
H 	H 	0.78930 0.16010 0.87650 0.08200
C 	C 	0.77152 0.05290 0.83684 0.04000
C 	C 	0.77970 0.96270 0.83140 -0.11900
H 	H 	0.76490 0.92960 0.80770 0.08600
C 	C 	0.80916 0.92220 0.86036 0.06600
H 	H 	0.81450 0.86060 0.85620 -0.00300
N 	N 	0.62044 0.94460 0.64118 -0.28500
C 	C 	0.61400 0.03070 0.64850 0.07300
H 	H 	0.59280 0.05990 0.62980 -0.01000
C 	C 	0.63630 0.07970 0.68160 -0.12100
H 	H 	0.63140 0.14190 0.68470 0.09300
C 	C 	0.66599 0.03700 0.71063 0.05700
C 	C 	0.67252 0.94760 0.70364 -0.12600
H 	H 	0.69280 0.91600 0.72270 0.07100
C 	C 	0.64924 0.90420 0.66850 0.07200
H 	H 	0.65420 0.84260 0.66380 -0.01900
C 	C 	0.70443 0.22020 0.78145 0.10200
N 	N 	0.73378 0.18560 0.81114 -0.14300
C 	C 	0.73949 0.09830 0.80586 0.08500
N 	N 	0.71899 0.04670 0.77381 -0.14400
C 	C 	0.68974 0.08850 0.74746 0.09900
N 	N 	0.68055 0.17590 0.75026 -0.13400
N 	N 	0.92063 0.98820 0.94271 -0.28500
C 	C 	0.93530 0.03520 0.97810 0.08000
H 	H 	0.92380 0.02980 0.00330 -0.01400
C 	C 	0.96680 0.09190 0.97977 -0.13200
H 	H 	0.97640 0.12560 0.00560 0.07800
C 	C 	0.98415 0.09970 0.94435 0.05500
C 	C 	0.96670 0.05480 0.90620 -0.13000
H 	H 	0.97630 0.06220 0.87990 0.08700
C 	C 	0.93550 -0.00000 0.90750 0.08000
H 	H 	0.92400 0.96870 0.88150 -0.02000
N 	N 	0.06795 0.51750 0.04776 -0.28300
C 	C 	0.03696 0.46480 0.04711 0.07300
H 	H 	0.01860 0.48000 0.06480 -0.01200
C 	C 	0.03077 0.38850 0.02128 -0.12300
H 	H 	0.00860 0.35150 0.02160 0.07100
C 	C 	0.05685 0.36690 0.99521 0.05300
C 	C 	0.08830 0.42300 0.99480 -0.12100
H 	H 	0.10650 0.41070 0.97650 0.07900
C 	C 	0.09270 0.49800 0.02200 0.06800
H 	H 	0.11430 0.53680 0.02190 -0.02100
N 	N 	0.14158 0.15720 0.82120 -0.29900
C 	C 	0.11020 0.10900 0.82150 0.09800
H 	H 	0.10370 0.06290 0.80020 -0.03100
C 	C 	0.08630 0.12090 0.85070 -0.14300
H 	H 	0.06410 0.08300 0.84950 0.08900
C 	C 	0.09387 0.18670 0.88160 0.07700
C 	C 	0.12810 0.23380 0.88340 -0.13200
H 	H 	0.13570 0.27800 0.90540 0.08700
C 	C 	0.15110 0.21660 0.85340 0.08000
H 	H 	0.17500 0.24870 0.85570 -0.02100
C 	C 	0.01819 0.15980 0.94384 0.09000
N 	N 	0.02346 0.22730 0.97286 -0.14900
C 	C 	0.05198 0.28430 0.96736 0.08900
N 	N 	0.07520 0.27520 0.93893 -0.13700
C 	C 	0.06866 0.20220 0.91328 0.09500
N 	N 	0.03939 0.14380 0.91397 -0.13600
Zn	Zn	0.07978 0.62770 0.09286 0.56100
I 	I 	0.11693 0.73886 0.05840 -0.09100
I 	I 	0.02329 0.65072 0.12794 -0.22900
Zn	Zn	0.67900 0.63820 0.77910 0.63300
I 	I 	0.74333 0.71900 0.80710 -0.41800
I 	I 	0.63430 0.66870 0.70480 -0.00900
Zn	Zn	0.87810 0.89610 0.93800 0.60600
I 	I 	0.89510 0.76450 0.89820 -0.27700
I 	I 	0.85560 0.90490 0.01160 -0.12900
Zn	Zn	0.67056 0.64250 0.76787 0.61600
I 	I 	0.73158 0.73401 0.79182 0.03200
I 	I 	0.62595 0.65885 0.69395 -0.39200
Zn	Zn	0.86926 0.90710 0.94070 0.61300
I 	I 	0.88625 0.75830 0.90754 -0.09300
I 	I 	0.84855 0.91230 0.01120 -0.22100
Zn	Zn	0.08670 0.61230 0.09140 0.63200
I 	I 	0.12830 0.72790 0.05643 -0.25800
I 	I 	0.02430 0.65390 0.12030 -0.10000
N 	N 	0.18563 0.99730 0.27752 -0.28300
C 	C 	0.21540 0.03140 0.30560 0.06700
H 	H 	0.23270 0.99210 0.32420 -0.01400
C 	C 	0.22216 0.12340 0.30890 -0.12100
H 	H 	0.24360 0.14610 0.32990 0.07700
C 	C 	0.19807 0.18100 0.28203 0.05500
C 	C 	0.16650 0.14380 0.25230 -0.11700
H 	H 	0.14890 0.18130 0.23300 0.08300
C 	C 	0.16140 0.05170 0.25160 0.06500
H 	H 	0.13970 0.02670 0.23170 -0.01900
N 	N 	0.33093 0.53420 0.39440 -0.28200
C 	C 	0.32331 0.44790 0.39983 0.06900
H 	H 	0.33860 0.41660 0.42390 -0.00600
C 	C 	0.29391 0.40160 0.37176 -0.11700
H 	H 	0.28930 0.33990 0.37650 0.08300
C 	C 	0.27152 0.44710 0.33684 0.04300
C 	C 	0.27970 0.53730 0.33140 -0.12300
H 	H 	0.26490 0.57040 0.30770 0.08700
C 	C 	0.30916 0.57780 0.36036 0.06700
H 	H 	0.31450 0.63940 0.35620 -0.00400
N 	N 	0.12044 0.55540 0.14118 -0.28700
C 	C 	0.11400 0.46930 0.14850 0.07600
H 	H 	0.09280 0.44010 0.12980 -0.01100
C 	C 	0.13630 0.42030 0.18160 -0.12400
H 	H 	0.13140 0.35810 0.18470 0.09400
C 	C 	0.16599 0.46300 0.21063 0.06100
C 	C 	0.17252 0.55240 0.20364 -0.13000
H 	H 	0.19280 0.58400 0.22270 0.07200
C 	C 	0.14924 0.59580 0.16850 0.07300
H 	H 	0.15420 0.65740 0.16380 -0.01900
C 	C 	0.20443 0.27980 0.28145 0.10300
N 	N 	0.23378 0.31440 0.31114 -0.14300
C 	C 	0.23949 0.40170 0.30586 0.08500
N 	N 	0.21899 0.45330 0.27381 -0.14300
C 	C 	0.18974 0.41150 0.24746 0.09800
N 	N 	0.18055 0.32410 0.25026 -0.13400
N 	N 	0.42063 0.51180 0.44271 -0.28800
C 	C 	0.43530 0.46480 0.47810 0.08300
H 	H 	0.42380 0.47020 0.50330 -0.01500
C 	C 	0.46680 0.40810 0.47977 -0.13500
H 	H 	0.47640 0.37440 0.50560 0.08000
C 	C 	0.48415 0.40030 0.44435 0.05800
C 	C 	0.46670 0.44520 0.40620 -0.13500
H 	H 	0.47630 0.43780 0.37990 0.08900
C 	C 	0.43550 0.50000 0.40750 0.08800
H 	H 	0.42400 0.53130 0.38150 -0.02300
N 	N 	0.56795 0.98250 0.54776 -0.28000
C 	C 	0.53696 0.03520 0.54711 0.07000
H 	H 	0.51860 0.02000 0.56480 -0.01100
C 	C 	0.53077 0.11150 0.52128 -0.12000
H 	H 	0.50860 0.14850 0.52160 0.07000
C 	C 	0.55685 0.13310 0.49521 0.05000
C 	C 	0.58830 0.07700 0.49480 -0.11700
H 	H 	0.60650 0.08930 0.47650 0.07800
C 	C 	0.59270 0.00200 0.52200 0.06100
H 	H 	0.61430 0.96320 0.52190 -0.01700
N 	N 	0.64158 0.34280 0.32120 -0.29900
C 	C 	0.61020 0.39100 0.32150 0.09800
H 	H 	0.60370 0.43710 0.30020 -0.03100
C 	C 	0.58630 0.37910 0.35070 -0.14300
H 	H 	0.56410 0.41700 0.34950 0.09000
C 	C 	0.59387 0.31330 0.38160 0.07700
C 	C 	0.62810 0.26620 0.38340 -0.13200
H 	H 	0.63570 0.22200 0.40540 0.08600
C 	C 	0.65110 0.28340 0.35340 0.08000
H 	H 	0.67500 0.25130 0.35570 -0.02100
C 	C 	0.51819 0.34020 0.44384 0.08900
N 	N 	0.52346 0.27270 0.47286 -0.14900
C 	C 	0.55198 0.21570 0.46736 0.08900
N 	N 	0.57520 0.22480 0.43893 -0.13700
C 	C 	0.56866 0.29780 0.41328 0.09500
N 	N 	0.53939 0.35620 0.41397 -0.13500
Zn	Zn	0.57978 0.87230 0.59286 0.56100
I 	I 	0.61693 0.76114 0.55840 -0.09100
I 	I 	0.52329 0.84928 0.62794 -0.22900
Zn	Zn	0.17900 0.86180 0.27910 0.63400
I 	I 	0.24333 0.78100 0.30710 -0.41800
I 	I 	0.13430 0.83130 0.20480 -0.00900
Zn	Zn	0.37810 0.60390 0.43800 0.60600
I 	I 	0.39510 0.73550 0.39820 -0.27700
I 	I 	0.35560 0.59510 0.51160 -0.13000
Zn	Zn	0.17056 0.85750 0.26787 0.61600
I 	I 	0.23158 0.76599 0.29182 0.03200
I 	I 	0.12595 0.84115 0.19395 -0.39200
Zn	Zn	0.36926 0.59290 0.44070 0.61300
I 	I 	0.38625 0.74170 0.40754 -0.09300
I 	I 	0.34855 0.58770 0.51120 -0.22200
Zn	Zn	0.58670 0.88770 0.59140 0.63200
I 	I 	0.62830 0.77210 0.55643 -0.25800
I 	I 	0.52430 0.84610 0.62030 -0.09900
N 	N 	0.68563 0.49730 0.27752 -0.28700
C 	C 	0.71540 0.53140 0.30560 0.07400
H 	H 	0.73270 0.49210 0.32420 -0.01700
C 	C 	0.72216 0.62340 0.30890 -0.12500
H 	H 	0.74360 0.64610 0.32990 0.07800
C 	C 	0.69807 0.68100 0.28203 0.05800
C 	C 	0.66650 0.64380 0.25230 -0.12000
H 	H 	0.64890 0.68130 0.23300 0.08400
C 	C 	0.66140 0.55170 0.25160 0.06900
H 	H 	0.63970 0.52670 0.23170 -0.01900
N 	N 	0.83093 0.03420 0.39440 -0.28400
C 	C 	0.82331 0.94790 0.39983 0.07300
H 	H 	0.83860 0.91660 0.42390 -0.00600
C 	C 	0.79391 0.90160 0.37176 -0.12000
H 	H 	0.78930 0.83990 0.37650 0.08400
C 	C 	0.77152 0.94710 0.33684 0.04800
C 	C 	0.77970 0.03730 0.33140 -0.12800
H 	H 	0.76490 0.07040 0.30770 0.08900
C 	C 	0.80916 0.07780 0.36036 0.06900
H 	H 	0.81450 0.13940 0.35620 -0.00500
N 	N 	0.62044 0.05540 0.14118 -0.28900
C 	C 	0.61400 0.96930 0.14850 0.08000
H 	H 	0.59280 0.94010 0.12980 -0.01200
C 	C 	0.63630 0.92030 0.18160 -0.12700
H 	H 	0.63140 0.85810 0.18470 0.09600
C 	C 	0.66599 0.96300 0.21063 0.06600
C 	C 	0.67252 0.05240 0.20364 -0.13500
H 	H 	0.69280 0.08400 0.22270 0.07300
C 	C 	0.64924 0.09580 0.16850 0.07500
H 	H 	0.65420 0.15740 0.16380 -0.02000
C 	C 	0.70443 0.77980 0.28145 0.10200
N 	N 	0.73378 0.81440 0.31114 -0.14300
C 	C 	0.73949 0.90170 0.30586 0.08400
N 	N 	0.71899 0.95330 0.27381 -0.14200
C 	C 	0.68974 0.91150 0.24746 0.09700
N 	N 	0.68055 0.82410 0.25026 -0.13400
N 	N 	0.92063 0.01180 0.44271 -0.28900
C 	C 	0.93530 0.96480 0.47810 0.08500
H 	H 	0.92380 0.97020 0.50330 -0.01400
C 	C 	0.96680 0.90810 0.47977 -0.13500
H 	H 	0.97640 0.87440 0.50560 0.08000
C 	C 	0.98415 0.90030 0.44435 0.05700
C 	C 	0.96670 0.94520 0.40620 -0.13100
H 	H 	0.97630 0.93780 0.37990 0.08800
C 	C 	0.93550 0.00000 0.40750 0.08400
H 	H 	0.92400 0.03130 0.38150 -0.02300
N 	N 	0.06795 0.48250 0.54776 -0.28300
C 	C 	0.03696 0.53520 0.54711 0.07300
H 	H 	0.01860 0.52000 0.56480 -0.01200
C 	C 	0.03077 0.61150 0.52128 -0.12300
H 	H 	0.00860 0.64850 0.52160 0.07100
C 	C 	0.05685 0.63310 0.49521 0.05300
C 	C 	0.08830 0.57700 0.49480 -0.12100
H 	H 	0.10650 0.58930 0.47650 0.07900
C 	C 	0.09270 0.50200 0.52200 0.06800
H 	H 	0.11430 0.46320 0.52190 -0.02100
N 	N 	0.14158 0.84280 0.32120 -0.29900
C 	C 	0.11020 0.89100 0.32150 0.09800
H 	H 	0.10370 0.93710 0.30020 -0.03100
C 	C 	0.08630 0.87910 0.35070 -0.14300
H 	H 	0.06410 0.91700 0.34950 0.09000
C 	C 	0.09387 0.81330 0.38160 0.07700
C 	C 	0.12810 0.76620 0.38340 -0.13200
H 	H 	0.13570 0.72200 0.40540 0.08700
C 	C 	0.15110 0.78340 0.35340 0.08000
H 	H 	0.17500 0.75130 0.35570 -0.02100
C 	C 	0.01819 0.84020 0.44384 0.09000
N 	N 	0.02346 0.77270 0.47286 -0.14900
C 	C 	0.05198 0.71570 0.46736 0.08900
N 	N 	0.07520 0.72480 0.43893 -0.13700
C 	C 	0.06866 0.79780 0.41328 0.09600
N 	N 	0.03939 0.85620 0.41397 -0.13500
Zn	Zn	0.07978 0.37230 0.59286 0.56100
I 	I 	0.11693 0.26114 0.55840 -0.09100
I 	I 	0.02329 0.34928 0.62794 -0.22900
Zn	Zn	0.67900 0.36180 0.27910 0.63300
I 	I 	0.74333 0.28100 0.30710 -0.41800
I 	I 	0.63430 0.33130 0.20480 -0.00900
Zn	Zn	0.87810 0.10390 0.43800 0.60600
I 	I 	0.89510 0.23550 0.39820 -0.27700
I 	I 	0.85560 0.09510 0.51160 -0.13100
Zn	Zn	0.67056 0.35750 0.26787 0.61600
I 	I 	0.73158 0.26599 0.29182 0.03200
I 	I 	0.62595 0.34115 0.19395 -0.39200
Zn	Zn	0.86926 0.09290 0.44070 0.61200
I 	I 	0.88625 0.24170 0.40754 -0.09300
I 	I 	0.84855 0.08770 0.51120 -0.22200
Zn	Zn	0.08670 0.38770 0.59140 0.63200
I 	I 	0.12830 0.27210 0.55643 -0.25800
I 	I 	0.02430 0.34610 0.62030 -0.10000
