data_crystal

_cell_length_a 34.65100
_cell_length_b 14.98880
_cell_length_c 30.11300
_cell_angle_alpha 90.00000
_cell_angle_beta  100.73500
_cell_angle_gamma 90.00000

_symmetry_space_group_name_	'P 1'
_symmetry_space_group_name_H-M	'P 1'

loop_
_symmetry_equiv_pos_as_xyz
  x,y,z

loop_
_atom_site_label
_atom_site_type_symbol
_atom_site_fract_x
_atom_site_fract_y
_atom_site_fract_z
_atom_site_charge
Zn	Zn	0.16838 0.36350 0.76855 1.37600
I 	I 	0.12346 0.34561 0.69263 0.54200
I 	I 	0.23033 0.27220 0.79546 -0.17000
Zn	Zn	0.86789 0.59983 0.94978 0.67100
I 	I 	0.84213 0.57410 0.02138 2.04600
I 	I 	0.88230 0.74384 0.91713 -1.04900
Zn	Zn	0.07813 0.87215 0.09215 1.15600
I 	I 	0.02395 0.84306 0.13660 -0.18300
I 	I 	0.11705 0.76130 0.05500 -0.14400
N 	N 	0.13750 0.35030 0.82120 -0.34000
C 	C 	0.14810 0.29550 0.85600 0.05800
H 	H 	0.17300 0.26750 0.85960 -0.05700
C 	C 	0.12440 0.27730 0.88730 -0.11900
H 	H 	0.13270 0.23640 0.91130 0.03900
C 	C 	0.08888 0.31970 0.88300 0.04400
C 	C 	0.07770 0.37660 0.84590 -0.11900
H 	H 	0.05290 0.40580 0.84130 0.08200
C 	C 	0.10260 0.38970 0.81670 0.09600
H 	H 	0.09470 0.42890 0.79190 -0.03700
N 	N 	0.91567 0.51650 0.95261 -0.30300
C 	C 	0.93178 0.46990 0.98930 0.06400
H 	H 	0.92130 0.47600 0.01610 -0.01700
C 	C 	0.96349 0.41290 0.98929 -0.11700
H 	H 	0.97430 0.37990 0.01560 0.08300
C 	C 	0.97890 0.40490 0.95057 0.05100
C 	C 	0.96160 0.45180 0.91230 -0.13400
H 	H 	0.97120 0.44650 0.88490 0.07600
C 	C 	0.93000 0.50640 0.91520 0.07900
H 	H 	0.91800 0.53830 0.88890 -0.02100
N 	N 	0.06027 0.97540 0.04634 -0.26800
C 	C 	0.03234 0.03400 0.05170 0.07300
H 	H 	0.01620 0.02100 0.07320 -0.00700
C 	C 	0.02585 0.11210 0.02756 -0.11200
H 	H 	0.00590 0.15220 0.03270 0.07700
C 	C 	0.04874 0.13160 0.99567 0.04600
C 	C 	0.07704 0.06870 0.98852 -0.11300
H 	H 	0.09280 0.07870 0.96630 0.07100
C 	C 	0.08150 0.99240 0.01422 0.06000
H 	H 	0.10040 0.94970 0.00910 -0.00700
C 	C 	0.06281 0.30300 0.91593 0.06400
N 	N 	0.03404 0.36170 0.91736 -0.13900
C 	C 	0.01196 0.34260 0.94813 0.07400
N 	N 	0.01609 0.27240 0.97582 -0.14700
C 	C 	0.04455 0.21590 0.96961 0.07200
N 	N 	0.06917 0.22860 0.94057 -0.15500
N 	N 	0.18438 0.50030 0.77569 -0.35100
C 	C 	0.16400 0.55410 0.74730 0.13000
H 	H 	0.14400 0.52980 0.72470 -0.04900
C 	C 	0.16980 0.64550 0.74790 -0.16100
H 	H 	0.15440 0.68230 0.72570 0.10600
C 	C 	0.19794 0.68230 0.78076 0.09700
C 	C 	0.21970 0.62570 0.81070 -0.13600
H 	H 	0.24010 0.64750 0.83360 0.10600
C 	C 	0.21120 0.53360 0.80690 0.09600
H 	H 	0.22590 0.49420 0.82830 -0.08000
N 	N 	0.32698 0.03490 0.90126 -0.31200
C 	C 	0.30380 0.08010 0.86860 0.07100
H 	H 	0.30720 0.14280 0.86700 -0.01000
C 	C 	0.27522 0.04010 0.83730 -0.13300
H 	H 	0.25950 0.07460 0.81440 0.10200
C 	C 	0.26951 0.94880 0.83946 0.06400
C 	C 	0.29334 0.90120 0.87319 -0.11000
H 	H 	0.29020 0.83860 0.87590 0.10300
C 	C 	0.32184 0.94630 0.90290 0.06300
H 	H 	0.33860 0.91320 0.92560 0.00100
N 	N 	0.11928 0.05700 0.63789 -0.27000
C 	C 	0.14752 0.09800 0.66691 0.06500
H 	H 	0.15140 0.16010 0.66310 0.02100
C 	C 	0.17150 0.05430 0.70242 -0.11400
H 	H 	0.19090 0.08620 0.72280 0.10100
C 	C 	0.16649 0.96360 0.70757 0.06000
C 	C 	0.13820 0.92090 0.67670 -0.11900
H 	H 	0.13460 0.85830 0.67860 0.10800
C 	C 	0.11530 0.96950 0.64290 0.07700
H 	H 	0.09570 0.93910 0.62210 0.00900
C 	C 	0.20448 0.78080 0.78056 0.10600
N 	N 	0.23306 0.81610 0.81139 -0.12200
C 	C 	0.23870 0.90380 0.80609 0.10000
N 	N 	0.21865 0.95460 0.77347 -0.14000
C 	C 	0.19033 0.91230 0.74503 0.10200
N 	N 	0.18135 0.82560 0.74766 -0.12900
Zn	Zn	0.17770 0.36510 0.77870 -0.31000
I 	I 	0.13340 0.33440 0.70290 -0.26700
I 	I 	0.24100 0.28380 0.80850 -0.37700
Zn	Zn	0.19560 0.36360 0.80180 1.07200
I 	I 	0.16230 0.31150 0.72570 -1.17400
I 	I 	0.25970 0.30670 0.84540 -0.01900
Zn	Zn	0.86070 0.58170 0.96010 0.58500
I 	I 	0.83370 0.52830 0.03210 -2.45000
I 	I 	0.87280 0.73740 0.93710 0.55900
I 	I 	0.02230 0.84410 0.13150 -0.14600
I 	I 	0.11260 0.76090 0.04840 -0.16800
Zn	Zn	0.66838 0.86350 0.76855 1.37600
I 	I 	0.62346 0.84561 0.69263 0.54200
I 	I 	0.73033 0.77220 0.79546 -0.17000
Zn	Zn	0.36789 0.09983 0.94978 0.67100
I 	I 	0.34213 0.07410 0.02138 2.04300
I 	I 	0.38230 0.24384 0.91713 -1.04900
Zn	Zn	0.57813 0.37215 0.09215 1.15600
I 	I 	0.52395 0.34306 0.13660 -0.18200
I 	I 	0.61705 0.26130 0.05500 -0.14400
N 	N 	0.63750 0.85030 0.82120 -0.34000
C 	C 	0.64810 0.79550 0.85600 0.05800
H 	H 	0.67300 0.76750 0.85960 -0.05700
C 	C 	0.62440 0.77730 0.88730 -0.11900
H 	H 	0.63270 0.73640 0.91130 0.03900
C 	C 	0.58888 0.81970 0.88300 0.04400
C 	C 	0.57770 0.87660 0.84590 -0.11900
H 	H 	0.55290 0.90580 0.84130 0.08200
C 	C 	0.60260 0.88970 0.81670 0.09600
H 	H 	0.59470 0.92890 0.79190 -0.03700
N 	N 	0.41567 0.01650 0.95261 -0.30300
C 	C 	0.43178 0.96990 0.98930 0.06400
H 	H 	0.42130 0.97600 0.01610 -0.01700
C 	C 	0.46349 0.91290 0.98929 -0.11700
H 	H 	0.47430 0.87990 0.01560 0.08300
C 	C 	0.47890 0.90490 0.95057 0.05100
C 	C 	0.46160 0.95180 0.91230 -0.13400
H 	H 	0.47120 0.94650 0.88490 0.07600
C 	C 	0.43000 0.00640 0.91520 0.07800
H 	H 	0.41800 0.03830 0.88890 -0.02100
N 	N 	0.56027 0.47540 0.04634 -0.26800
C 	C 	0.53234 0.53400 0.05170 0.07300
H 	H 	0.51620 0.52100 0.07320 -0.00700
C 	C 	0.52585 0.61210 0.02756 -0.11200
H 	H 	0.50590 0.65220 0.03270 0.07700
C 	C 	0.54874 0.63160 0.99567 0.04600
C 	C 	0.57704 0.56870 0.98852 -0.11300
H 	H 	0.59280 0.57870 0.96630 0.07100
C 	C 	0.58150 0.49240 0.01422 0.06100
H 	H 	0.60040 0.44970 0.00910 -0.00700
C 	C 	0.56281 0.80300 0.91593 0.06400
N 	N 	0.53404 0.86170 0.91736 -0.13900
C 	C 	0.51196 0.84260 0.94813 0.07400
N 	N 	0.51609 0.77240 0.97582 -0.14700
C 	C 	0.54455 0.71590 0.96961 0.07200
N 	N 	0.56917 0.72860 0.94057 -0.15500
N 	N 	0.68438 0.00030 0.77569 -0.35100
C 	C 	0.66400 0.05410 0.74730 0.13000
H 	H 	0.64400 0.02980 0.72470 -0.04900
C 	C 	0.66980 0.14550 0.74790 -0.16100
H 	H 	0.65440 0.18230 0.72570 0.10600
C 	C 	0.69794 0.18230 0.78076 0.09700
C 	C 	0.71970 0.12570 0.81070 -0.13600
H 	H 	0.74010 0.14750 0.83360 0.10600
C 	C 	0.71120 0.03360 0.80690 0.09600
H 	H 	0.72590 0.99420 0.82830 -0.08000
N 	N 	0.82698 0.53490 0.90126 -0.31200
C 	C 	0.80380 0.58010 0.86860 0.07100
H 	H 	0.80720 0.64280 0.86700 -0.01000
C 	C 	0.77522 0.54010 0.83730 -0.13300
H 	H 	0.75950 0.57460 0.81440 0.10200
C 	C 	0.76951 0.44880 0.83946 0.06400
C 	C 	0.79334 0.40120 0.87319 -0.11000
H 	H 	0.79020 0.33860 0.87590 0.10300
C 	C 	0.82184 0.44630 0.90290 0.06300
H 	H 	0.83860 0.41320 0.92560 0.00100
N 	N 	0.61928 0.55700 0.63789 -0.27000
C 	C 	0.64752 0.59800 0.66691 0.06600
H 	H 	0.65140 0.66010 0.66310 0.02100
C 	C 	0.67150 0.55430 0.70242 -0.11400
H 	H 	0.69090 0.58620 0.72280 0.10100
C 	C 	0.66649 0.46360 0.70757 0.06000
C 	C 	0.63820 0.42090 0.67670 -0.11900
H 	H 	0.63460 0.35830 0.67860 0.10800
C 	C 	0.61530 0.46950 0.64290 0.07700
H 	H 	0.59570 0.43910 0.62210 0.00900
C 	C 	0.70448 0.28080 0.78056 0.10600
N 	N 	0.73306 0.31610 0.81139 -0.12200
C 	C 	0.73870 0.40380 0.80609 0.10000
N 	N 	0.71865 0.45460 0.77347 -0.14000
C 	C 	0.69033 0.41230 0.74503 0.10200
N 	N 	0.68135 0.32560 0.74766 -0.12900
Zn	Zn	0.67770 0.86510 0.77870 -0.31000
I 	I 	0.63340 0.83440 0.70290 -0.26700
I 	I 	0.74100 0.78380 0.80850 -0.37700
Zn	Zn	0.69560 0.86360 0.80180 1.07200
I 	I 	0.66230 0.81150 0.72570 -1.17400
I 	I 	0.75970 0.80670 0.84540 -0.01900
Zn	Zn	0.36070 0.08170 0.96010 0.58600
I 	I 	0.33370 0.02830 0.03210 -2.44800
I 	I 	0.37280 0.23740 0.93710 0.55900
I 	I 	0.52230 0.34410 0.13150 -0.14600
I 	I 	0.61260 0.26090 0.04840 -0.16800
Zn	Zn	0.16838 0.63650 0.26855 1.37600
I 	I 	0.12346 0.65439 0.19263 0.54200
I 	I 	0.23033 0.72780 0.29546 -0.17000
Zn	Zn	0.86789 0.40017 0.44978 0.67100
I 	I 	0.84213 0.42590 0.52138 2.04600
I 	I 	0.88230 0.25616 0.41713 -1.05000
Zn	Zn	0.07813 0.12785 0.59215 1.15600
I 	I 	0.02395 0.15694 0.63660 -0.18300
I 	I 	0.11705 0.23870 0.55500 -0.14400
N 	N 	0.13750 0.64970 0.32120 -0.34000
C 	C 	0.14810 0.70450 0.35600 0.05800
H 	H 	0.17300 0.73250 0.35960 -0.05700
C 	C 	0.12440 0.72270 0.38730 -0.11900
H 	H 	0.13270 0.76360 0.41130 0.03900
C 	C 	0.08888 0.68030 0.38300 0.04400
C 	C 	0.07770 0.62340 0.34590 -0.11900
H 	H 	0.05290 0.59420 0.34130 0.08200
C 	C 	0.10260 0.61030 0.31670 0.09600
H 	H 	0.09470 0.57110 0.29190 -0.03700
N 	N 	0.91567 0.48350 0.45261 -0.30300
C 	C 	0.93178 0.53010 0.48930 0.06400
H 	H 	0.92130 0.52400 0.51610 -0.01700
C 	C 	0.96349 0.58710 0.48929 -0.11700
H 	H 	0.97430 0.62010 0.51560 0.08300
C 	C 	0.97890 0.59510 0.45057 0.05100
C 	C 	0.96160 0.54820 0.41230 -0.13400
H 	H 	0.97120 0.55350 0.38490 0.07600
C 	C 	0.93000 0.49360 0.41520 0.07900
H 	H 	0.91800 0.46170 0.38890 -0.02100
N 	N 	0.06027 0.02460 0.54634 -0.26800
C 	C 	0.03234 0.96600 0.55170 0.07200
H 	H 	0.01620 0.97900 0.57320 -0.00700
C 	C 	0.02585 0.88790 0.52756 -0.11200
H 	H 	0.00590 0.84780 0.53270 0.07700
C 	C 	0.04874 0.86840 0.49567 0.04600
C 	C 	0.07704 0.93130 0.48852 -0.11300
H 	H 	0.09280 0.92130 0.46630 0.07100
C 	C 	0.08150 0.00760 0.51422 0.06000
H 	H 	0.10040 0.05030 0.50910 -0.00700
C 	C 	0.06281 0.69700 0.41593 0.06400
N 	N 	0.03404 0.63830 0.41736 -0.13900
C 	C 	0.01196 0.65740 0.44813 0.07400
N 	N 	0.01609 0.72760 0.47582 -0.14700
C 	C 	0.04455 0.78410 0.46961 0.07200
N 	N 	0.06917 0.77140 0.44057 -0.15500
N 	N 	0.18438 0.49970 0.27569 -0.35100
C 	C 	0.16400 0.44590 0.24730 0.13000
H 	H 	0.14400 0.47020 0.22470 -0.04900
C 	C 	0.16980 0.35450 0.24790 -0.16100
H 	H 	0.15440 0.31770 0.22570 0.10600
C 	C 	0.19794 0.31770 0.28076 0.09700
C 	C 	0.21970 0.37430 0.31070 -0.13600
H 	H 	0.24010 0.35250 0.33360 0.10600
C 	C 	0.21120 0.46640 0.30690 0.09600
H 	H 	0.22590 0.50580 0.32830 -0.08000
N 	N 	0.32698 0.96510 0.40126 -0.31200
C 	C 	0.30380 0.91990 0.36860 0.07100
H 	H 	0.30720 0.85720 0.36700 -0.01000
C 	C 	0.27522 0.95990 0.33730 -0.13200
H 	H 	0.25950 0.92540 0.31440 0.10200
C 	C 	0.26951 0.05120 0.33946 0.06400
C 	C 	0.29334 0.09880 0.37319 -0.11000
H 	H 	0.29020 0.16140 0.37590 0.10300
C 	C 	0.32184 0.05370 0.40290 0.06300
H 	H 	0.33860 0.08680 0.42560 0.00100
N 	N 	0.11928 0.94300 0.13789 -0.27000
C 	C 	0.14752 0.90200 0.16691 0.06600
H 	H 	0.15140 0.83990 0.16310 0.02100
C 	C 	0.17150 0.94570 0.20242 -0.11400
H 	H 	0.19090 0.91380 0.22280 0.10100
C 	C 	0.16649 0.03640 0.20757 0.06000
C 	C 	0.13820 0.07910 0.17670 -0.11900
H 	H 	0.13460 0.14170 0.17860 0.10800
C 	C 	0.11530 0.03050 0.14290 0.07700
H 	H 	0.09570 0.06090 0.12210 0.00900
C 	C 	0.20448 0.21920 0.28056 0.10600
N 	N 	0.23306 0.18390 0.31139 -0.12200
C 	C 	0.23870 0.09620 0.30609 0.10000
N 	N 	0.21865 0.04540 0.27347 -0.14000
C 	C 	0.19033 0.08770 0.24503 0.10200
N 	N 	0.18135 0.17440 0.24766 -0.12900
Zn	Zn	0.17770 0.63490 0.27870 -0.31000
I 	I 	0.13340 0.66560 0.20290 -0.26700
I 	I 	0.24100 0.71620 0.30850 -0.37700
Zn	Zn	0.19560 0.63640 0.30180 1.07200
I 	I 	0.16230 0.68850 0.22570 -1.17400
I 	I 	0.25970 0.69330 0.34540 -0.01900
Zn	Zn	0.86070 0.41830 0.46010 0.58500
I 	I 	0.83370 0.47170 0.53210 -2.45000
I 	I 	0.87280 0.26260 0.43710 0.55900
I 	I 	0.02230 0.15590 0.63150 -0.14600
I 	I 	0.11260 0.23910 0.54840 -0.16800
Zn	Zn	0.66838 0.13650 0.26855 1.37600
I 	I 	0.62346 0.15439 0.19263 0.54200
I 	I 	0.73033 0.22780 0.29546 -0.17000
Zn	Zn	0.36789 0.90017 0.44978 0.67100
I 	I 	0.34213 0.92590 0.52138 2.04300
I 	I 	0.38230 0.75616 0.41713 -1.04900
Zn	Zn	0.57813 0.62785 0.59215 1.15600
I 	I 	0.52395 0.65694 0.63660 -0.18200
I 	I 	0.61705 0.73870 0.55500 -0.14400
N 	N 	0.63750 0.14970 0.32120 -0.34000
C 	C 	0.64810 0.20450 0.35600 0.05800
H 	H 	0.67300 0.23250 0.35960 -0.05700
C 	C 	0.62440 0.22270 0.38730 -0.11900
H 	H 	0.63270 0.26360 0.41130 0.03900
C 	C 	0.58888 0.18030 0.38300 0.04400
C 	C 	0.57770 0.12340 0.34590 -0.11900
H 	H 	0.55290 0.09420 0.34130 0.08200
C 	C 	0.60260 0.11030 0.31670 0.09600
H 	H 	0.59470 0.07110 0.29190 -0.03700
N 	N 	0.41567 0.98350 0.45261 -0.30300
C 	C 	0.43178 0.03010 0.48930 0.06300
H 	H 	0.42130 0.02400 0.51610 -0.01700
C 	C 	0.46349 0.08710 0.48929 -0.11700
H 	H 	0.47430 0.12010 0.51560 0.08300
C 	C 	0.47890 0.09510 0.45057 0.05100
C 	C 	0.46160 0.04820 0.41230 -0.13400
H 	H 	0.47120 0.05350 0.38490 0.07600
C 	C 	0.43000 0.99360 0.41520 0.07900
H 	H 	0.41800 0.96170 0.38890 -0.02100
N 	N 	0.56027 0.52460 0.54634 -0.26800
C 	C 	0.53234 0.46600 0.55170 0.07300
H 	H 	0.51620 0.47900 0.57320 -0.00700
C 	C 	0.52585 0.38790 0.52756 -0.11200
H 	H 	0.50590 0.34780 0.53270 0.07700
C 	C 	0.54874 0.36840 0.49567 0.04600
C 	C 	0.57704 0.43130 0.48852 -0.11300
H 	H 	0.59280 0.42130 0.46630 0.07100
C 	C 	0.58150 0.50760 0.51422 0.06100
H 	H 	0.60040 0.55030 0.50910 -0.00700
C 	C 	0.56281 0.19700 0.41593 0.06400
N 	N 	0.53404 0.13830 0.41736 -0.13900
C 	C 	0.51196 0.15740 0.44813 0.07400
N 	N 	0.51609 0.22760 0.47582 -0.14700
C 	C 	0.54455 0.28410 0.46961 0.07200
N 	N 	0.56917 0.27140 0.44057 -0.15500
N 	N 	0.68438 0.99970 0.27569 -0.35100
C 	C 	0.66400 0.94590 0.24730 0.13000
H 	H 	0.64400 0.97020 0.22470 -0.04900
C 	C 	0.66980 0.85450 0.24790 -0.16100
H 	H 	0.65440 0.81770 0.22570 0.10600
C 	C 	0.69794 0.81770 0.28076 0.09700
C 	C 	0.71970 0.87430 0.31070 -0.13600
H 	H 	0.74010 0.85250 0.33360 0.10600
C 	C 	0.71120 0.96640 0.30690 0.09700
H 	H 	0.72590 0.00580 0.32830 -0.08000
N 	N 	0.82698 0.46510 0.40126 -0.31200
C 	C 	0.80380 0.41990 0.36860 0.07100
H 	H 	0.80720 0.35720 0.36700 -0.01000
C 	C 	0.77522 0.45990 0.33730 -0.13300
H 	H 	0.75950 0.42540 0.31440 0.10200
C 	C 	0.76951 0.55120 0.33946 0.06400
C 	C 	0.79334 0.59880 0.37319 -0.11000
H 	H 	0.79020 0.66140 0.37590 0.10300
C 	C 	0.82184 0.55370 0.40290 0.06300
H 	H 	0.83860 0.58680 0.42560 0.00100
N 	N 	0.61928 0.44300 0.13789 -0.27000
C 	C 	0.64752 0.40200 0.16691 0.06600
H 	H 	0.65140 0.33990 0.16310 0.02100
C 	C 	0.67150 0.44570 0.20242 -0.11400
H 	H 	0.69090 0.41380 0.22280 0.10100
C 	C 	0.66649 0.53640 0.20757 0.06000
C 	C 	0.63820 0.57910 0.17670 -0.11900
H 	H 	0.63460 0.64170 0.17860 0.10800
C 	C 	0.61530 0.53050 0.14290 0.07700
H 	H 	0.59570 0.56090 0.12210 0.00900
C 	C 	0.70448 0.71920 0.28056 0.10600
N 	N 	0.73306 0.68390 0.31139 -0.12200
C 	C 	0.73870 0.59620 0.30609 0.10000
N 	N 	0.71865 0.54540 0.27347 -0.14000
C 	C 	0.69033 0.58770 0.24503 0.10200
N 	N 	0.68135 0.67440 0.24766 -0.12900
Zn	Zn	0.67770 0.13490 0.27870 -0.31000
I 	I 	0.63340 0.16560 0.20290 -0.26700
I 	I 	0.74100 0.21620 0.30850 -0.37700
Zn	Zn	0.69560 0.13640 0.30180 1.07200
I 	I 	0.66230 0.18850 0.22570 -1.17400
I 	I 	0.75970 0.19330 0.34540 -0.01900
Zn	Zn	0.36070 0.91830 0.46010 0.58600
I 	I 	0.33370 0.97170 0.53210 -2.44900
I 	I 	0.37280 0.76260 0.43710 0.55900
I 	I 	0.52230 0.65590 0.63150 -0.14600
I 	I 	0.61260 0.73910 0.54840 -0.16800
Zn	Zn	0.83162 0.36350 0.73145 1.37600
I 	I 	0.87654 0.34561 0.80737 0.54200
I 	I 	0.76967 0.27220 0.70454 -0.17000
Zn	Zn	0.13211 0.59983 0.55022 0.67100
I 	I 	0.15787 0.57410 0.47862 2.04600
I 	I 	0.11770 0.74384 0.58287 -1.05000
Zn	Zn	0.92187 0.87215 0.40785 1.15600
I 	I 	0.97605 0.84306 0.36340 -0.18300
I 	I 	0.88295 0.76130 0.44500 -0.14400
N 	N 	0.86250 0.35030 0.67880 -0.34000
C 	C 	0.85190 0.29550 0.64400 0.05800
H 	H 	0.82700 0.26750 0.64040 -0.05700
C 	C 	0.87560 0.27730 0.61270 -0.11900
H 	H 	0.86730 0.23640 0.58870 0.03900
C 	C 	0.91112 0.31970 0.61700 0.04400
C 	C 	0.92230 0.37660 0.65410 -0.11900
H 	H 	0.94710 0.40580 0.65870 0.08200
C 	C 	0.89740 0.38970 0.68330 0.09600
H 	H 	0.90530 0.42890 0.70810 -0.03700
N 	N 	0.08433 0.51650 0.54739 -0.30300
C 	C 	0.06822 0.46990 0.51070 0.06400
H 	H 	0.07870 0.47600 0.48390 -0.01700
C 	C 	0.03651 0.41290 0.51071 -0.11700
H 	H 	0.02570 0.37990 0.48440 0.08300
C 	C 	0.02110 0.40490 0.54943 0.05100
C 	C 	0.03840 0.45180 0.58770 -0.13400
H 	H 	0.02880 0.44650 0.61510 0.07600
C 	C 	0.07000 0.50640 0.58480 0.07900
H 	H 	0.08200 0.53830 0.61110 -0.02100
N 	N 	0.93973 0.97540 0.45366 -0.26800
C 	C 	0.96766 0.03400 0.44830 0.07200
H 	H 	0.98380 0.02100 0.42680 -0.00700
C 	C 	0.97415 0.11210 0.47244 -0.11200
H 	H 	0.99410 0.15220 0.46730 0.07700
C 	C 	0.95126 0.13160 0.50433 0.04600
C 	C 	0.92296 0.06870 0.51148 -0.11300
H 	H 	0.90720 0.07870 0.53370 0.07100
C 	C 	0.91850 0.99240 0.48578 0.06000
H 	H 	0.89960 0.94970 0.49090 -0.00700
C 	C 	0.93719 0.30300 0.58407 0.06400
N 	N 	0.96596 0.36170 0.58264 -0.13900
C 	C 	0.98804 0.34260 0.55187 0.07400
N 	N 	0.98391 0.27240 0.52418 -0.14700
C 	C 	0.95545 0.21590 0.53039 0.07200
N 	N 	0.93083 0.22860 0.55943 -0.15500
N 	N 	0.81562 0.50030 0.72431 -0.35100
C 	C 	0.83600 0.55410 0.75270 0.13000
H 	H 	0.85600 0.52980 0.77530 -0.04900
C 	C 	0.83020 0.64550 0.75210 -0.16100
H 	H 	0.84560 0.68230 0.77430 0.10600
C 	C 	0.80206 0.68230 0.71924 0.09700
C 	C 	0.78030 0.62570 0.68930 -0.13600
H 	H 	0.75990 0.64750 0.66640 0.10600
C 	C 	0.78880 0.53360 0.69310 0.09600
H 	H 	0.77410 0.49420 0.67170 -0.08000
N 	N 	0.67302 0.03490 0.59874 -0.31200
C 	C 	0.69620 0.08010 0.63140 0.07100
H 	H 	0.69280 0.14280 0.63300 -0.01000
C 	C 	0.72478 0.04010 0.66270 -0.13200
H 	H 	0.74050 0.07460 0.68560 0.10200
C 	C 	0.73049 0.94880 0.66054 0.06400
C 	C 	0.70666 0.90120 0.62681 -0.11000
H 	H 	0.70980 0.83860 0.62410 0.10300
C 	C 	0.67816 0.94630 0.59710 0.06300
H 	H 	0.66140 0.91320 0.57440 0.00100
N 	N 	0.88072 0.05700 0.86211 -0.27000
C 	C 	0.85248 0.09800 0.83309 0.06600
H 	H 	0.84860 0.16010 0.83690 0.02100
C 	C 	0.82850 0.05430 0.79758 -0.11400
H 	H 	0.80910 0.08620 0.77720 0.10100
C 	C 	0.83351 0.96360 0.79243 0.06000
C 	C 	0.86180 0.92090 0.82330 -0.11900
H 	H 	0.86540 0.85830 0.82140 0.10800
C 	C 	0.88470 0.96950 0.85710 0.07700
H 	H 	0.90430 0.93910 0.87790 0.00900
C 	C 	0.79552 0.78080 0.71944 0.10600
N 	N 	0.76694 0.81610 0.68861 -0.12200
C 	C 	0.76130 0.90380 0.69391 0.10000
N 	N 	0.78135 0.95460 0.72653 -0.14000
C 	C 	0.80967 0.91230 0.75497 0.10200
N 	N 	0.81865 0.82560 0.75234 -0.12900
Zn	Zn	0.82230 0.36510 0.72130 -0.31000
I 	I 	0.86660 0.33440 0.79710 -0.26700
I 	I 	0.75900 0.28380 0.69150 -0.37700
Zn	Zn	0.80440 0.36360 0.69820 1.07200
I 	I 	0.83770 0.31150 0.77430 -1.17400
I 	I 	0.74030 0.30670 0.65460 -0.01900
Zn	Zn	0.13930 0.58170 0.53990 0.58500
I 	I 	0.16630 0.52830 0.46790 -2.45000
I 	I 	0.12720 0.73740 0.56290 0.55900
I 	I 	0.97770 0.84410 0.36850 -0.14600
I 	I 	0.88740 0.76090 0.45160 -0.16800
Zn	Zn	0.33162 0.86350 0.73145 1.37600
I 	I 	0.37654 0.84561 0.80737 0.54200
I 	I 	0.26967 0.77220 0.70454 -0.17000
Zn	Zn	0.63211 0.09983 0.55022 0.67100
I 	I 	0.65787 0.07410 0.47862 2.04300
I 	I 	0.61770 0.24384 0.58287 -1.04900
Zn	Zn	0.42187 0.37215 0.40785 1.15600
I 	I 	0.47605 0.34306 0.36340 -0.18200
I 	I 	0.38295 0.26130 0.44500 -0.14400
N 	N 	0.36250 0.85030 0.67880 -0.34000
C 	C 	0.35190 0.79550 0.64400 0.05800
H 	H 	0.32700 0.76750 0.64040 -0.05700
C 	C 	0.37560 0.77730 0.61270 -0.11900
H 	H 	0.36730 0.73640 0.58870 0.03900
C 	C 	0.41112 0.81970 0.61700 0.04400
C 	C 	0.42230 0.87660 0.65410 -0.11900
H 	H 	0.44710 0.90580 0.65870 0.08200
C 	C 	0.39740 0.88970 0.68330 0.09600
H 	H 	0.40530 0.92890 0.70810 -0.03700
N 	N 	0.58433 0.01650 0.54739 -0.30300
C 	C 	0.56822 0.96990 0.51070 0.06300
H 	H 	0.57870 0.97600 0.48390 -0.01700
C 	C 	0.53651 0.91290 0.51071 -0.11700
H 	H 	0.52570 0.87990 0.48440 0.08300
C 	C 	0.52110 0.90490 0.54943 0.05100
C 	C 	0.53840 0.95180 0.58770 -0.13400
H 	H 	0.52880 0.94650 0.61510 0.07600
C 	C 	0.57000 0.00640 0.58480 0.07900
H 	H 	0.58200 0.03830 0.61110 -0.02100
N 	N 	0.43973 0.47540 0.45366 -0.26800
C 	C 	0.46766 0.53400 0.44830 0.07300
H 	H 	0.48380 0.52100 0.42680 -0.00700
C 	C 	0.47415 0.61210 0.47244 -0.11200
H 	H 	0.49410 0.65220 0.46730 0.07700
C 	C 	0.45126 0.63160 0.50433 0.04600
C 	C 	0.42296 0.56870 0.51148 -0.11300
H 	H 	0.40720 0.57870 0.53370 0.07100
C 	C 	0.41850 0.49240 0.48578 0.06100
H 	H 	0.39960 0.44970 0.49090 -0.00700
C 	C 	0.43719 0.80300 0.58407 0.06400
N 	N 	0.46596 0.86170 0.58264 -0.13900
C 	C 	0.48804 0.84260 0.55187 0.07400
N 	N 	0.48391 0.77240 0.52418 -0.14700
C 	C 	0.45545 0.71590 0.53039 0.07200
N 	N 	0.43083 0.72860 0.55943 -0.15500
N 	N 	0.31562 0.00030 0.72431 -0.35100
C 	C 	0.33600 0.05410 0.75270 0.13000
H 	H 	0.35600 0.02980 0.77530 -0.04900
C 	C 	0.33020 0.14550 0.75210 -0.16100
H 	H 	0.34560 0.18230 0.77430 0.10600
C 	C 	0.30206 0.18230 0.71924 0.09700
C 	C 	0.28030 0.12570 0.68930 -0.13600
H 	H 	0.25990 0.14750 0.66640 0.10600
C 	C 	0.28880 0.03360 0.69310 0.09700
H 	H 	0.27410 0.99420 0.67170 -0.08000
N 	N 	0.17302 0.53490 0.59874 -0.31200
C 	C 	0.19620 0.58010 0.63140 0.07100
H 	H 	0.19280 0.64280 0.63300 -0.01000
C 	C 	0.22478 0.54010 0.66270 -0.13300
H 	H 	0.24050 0.57460 0.68560 0.10200
C 	C 	0.23049 0.44880 0.66054 0.06400
C 	C 	0.20666 0.40120 0.62681 -0.11000
H 	H 	0.20980 0.33860 0.62410 0.10300
C 	C 	0.17816 0.44630 0.59710 0.06300
H 	H 	0.16140 0.41320 0.57440 0.00100
N 	N 	0.38072 0.55700 0.86211 -0.27000
C 	C 	0.35248 0.59800 0.83309 0.06600
H 	H 	0.34860 0.66010 0.83690 0.02100
C 	C 	0.32850 0.55430 0.79758 -0.11400
H 	H 	0.30910 0.58620 0.77720 0.10100
C 	C 	0.33351 0.46360 0.79243 0.06000
C 	C 	0.36180 0.42090 0.82330 -0.11900
H 	H 	0.36540 0.35830 0.82140 0.10800
C 	C 	0.38470 0.46950 0.85710 0.07700
H 	H 	0.40430 0.43910 0.87790 0.00900
C 	C 	0.29552 0.28080 0.71944 0.10600
N 	N 	0.26694 0.31610 0.68861 -0.12200
C 	C 	0.26130 0.40380 0.69391 0.10000
N 	N 	0.28135 0.45460 0.72653 -0.14000
C 	C 	0.30967 0.41230 0.75497 0.10200
N 	N 	0.31865 0.32560 0.75234 -0.12900
Zn	Zn	0.32230 0.86510 0.72130 -0.31000
I 	I 	0.36660 0.83440 0.79710 -0.26700
I 	I 	0.25900 0.78380 0.69150 -0.37700
Zn	Zn	0.30440 0.86360 0.69820 1.07200
I 	I 	0.33770 0.81150 0.77430 -1.17400
I 	I 	0.24030 0.80670 0.65460 -0.01900
Zn	Zn	0.63930 0.08170 0.53990 0.58600
I 	I 	0.66630 0.02830 0.46790 -2.44900
I 	I 	0.62720 0.23740 0.56290 0.55900
I 	I 	0.47770 0.34410 0.36850 -0.14600
I 	I 	0.38740 0.26090 0.45160 -0.16800
Zn	Zn	0.83162 0.63650 0.23145 1.37600
I 	I 	0.87654 0.65439 0.30737 0.54200
I 	I 	0.76967 0.72780 0.20454 -0.17000
Zn	Zn	0.13211 0.40017 0.05022 0.67100
I 	I 	0.15787 0.42590 0.97862 2.04600
I 	I 	0.11770 0.25616 0.08287 -1.04900
Zn	Zn	0.92187 0.12785 0.90785 1.15600
I 	I 	0.97605 0.15694 0.86340 -0.18300
I 	I 	0.88295 0.23870 0.94500 -0.14400
N 	N 	0.86250 0.64970 0.17880 -0.34000
C 	C 	0.85190 0.70450 0.14400 0.05800
H 	H 	0.82700 0.73250 0.14040 -0.05700
C 	C 	0.87560 0.72270 0.11270 -0.11900
H 	H 	0.86730 0.76360 0.08870 0.03900
C 	C 	0.91112 0.68030 0.11700 0.04400
C 	C 	0.92230 0.62340 0.15410 -0.11900
H 	H 	0.94710 0.59420 0.15870 0.08200
C 	C 	0.89740 0.61030 0.18330 0.09600
H 	H 	0.90530 0.57110 0.20810 -0.03700
N 	N 	0.08433 0.48350 0.04739 -0.30300
C 	C 	0.06822 0.53010 0.01070 0.06400
H 	H 	0.07870 0.52400 0.98390 -0.01700
C 	C 	0.03651 0.58710 0.01071 -0.11700
H 	H 	0.02570 0.62010 0.98440 0.08300
C 	C 	0.02110 0.59510 0.04943 0.05100
C 	C 	0.03840 0.54820 0.08770 -0.13400
H 	H 	0.02880 0.55350 0.11510 0.07600
C 	C 	0.07000 0.49360 0.08480 0.07900
H 	H 	0.08200 0.46170 0.11110 -0.02100
N 	N 	0.93973 0.02460 0.95366 -0.26800
C 	C 	0.96766 0.96600 0.94830 0.07300
H 	H 	0.98380 0.97900 0.92680 -0.00700
C 	C 	0.97415 0.88790 0.97244 -0.11200
H 	H 	0.99410 0.84780 0.96730 0.07700
C 	C 	0.95126 0.86840 0.00433 0.04600
C 	C 	0.92296 0.93130 0.01148 -0.11300
H 	H 	0.90720 0.92130 0.03370 0.07100
C 	C 	0.91850 0.00760 0.98578 0.06000
H 	H 	0.89960 0.05030 0.99090 -0.00700
C 	C 	0.93719 0.69700 0.08407 0.06400
N 	N 	0.96596 0.63830 0.08264 -0.13900
C 	C 	0.98804 0.65740 0.05187 0.07400
N 	N 	0.98391 0.72760 0.02418 -0.14700
C 	C 	0.95545 0.78410 0.03039 0.07200
N 	N 	0.93083 0.77140 0.05943 -0.15500
N 	N 	0.81562 0.49970 0.22431 -0.35100
C 	C 	0.83600 0.44590 0.25270 0.13000
H 	H 	0.85600 0.47020 0.27530 -0.04900
C 	C 	0.83020 0.35450 0.25210 -0.16100
H 	H 	0.84560 0.31770 0.27430 0.10600
C 	C 	0.80206 0.31770 0.21924 0.09700
C 	C 	0.78030 0.37430 0.18930 -0.13600
H 	H 	0.75990 0.35250 0.16640 0.10600
C 	C 	0.78880 0.46640 0.19310 0.09600
H 	H 	0.77410 0.50580 0.17170 -0.08000
N 	N 	0.67302 0.96510 0.09874 -0.31200
C 	C 	0.69620 0.91990 0.13140 0.07100
H 	H 	0.69280 0.85720 0.13300 -0.01000
C 	C 	0.72478 0.95990 0.16270 -0.13300
H 	H 	0.74050 0.92540 0.18560 0.10200
C 	C 	0.73049 0.05120 0.16054 0.06400
C 	C 	0.70666 0.09880 0.12681 -0.11000
H 	H 	0.70980 0.16140 0.12410 0.10300
C 	C 	0.67816 0.05370 0.09710 0.06300
H 	H 	0.66140 0.08680 0.07440 0.00100
N 	N 	0.88072 0.94300 0.36211 -0.27000
C 	C 	0.85248 0.90200 0.33309 0.06500
H 	H 	0.84860 0.83990 0.33690 0.02100
C 	C 	0.82850 0.94570 0.29758 -0.11400
H 	H 	0.80910 0.91380 0.27720 0.10100
C 	C 	0.83351 0.03640 0.29243 0.06000
C 	C 	0.86180 0.07910 0.32330 -0.11900
H 	H 	0.86540 0.14170 0.32140 0.10800
C 	C 	0.88470 0.03050 0.35710 0.07700
H 	H 	0.90430 0.06090 0.37790 0.00900
C 	C 	0.79552 0.21920 0.21944 0.10600
N 	N 	0.76694 0.18390 0.18861 -0.12200
C 	C 	0.76130 0.09620 0.19391 0.10000
N 	N 	0.78135 0.04540 0.22653 -0.14000
C 	C 	0.80967 0.08770 0.25497 0.10200
N 	N 	0.81865 0.17440 0.25234 -0.12900
Zn	Zn	0.82230 0.63490 0.22130 -0.31000
I 	I 	0.86660 0.66560 0.29710 -0.26700
I 	I 	0.75900 0.71620 0.19150 -0.37700
Zn	Zn	0.80440 0.63640 0.19820 1.07200
I 	I 	0.83770 0.68850 0.27430 -1.17400
I 	I 	0.74030 0.69330 0.15460 -0.01900
Zn	Zn	0.13930 0.41830 0.03990 0.58500
I 	I 	0.16630 0.47170 0.96790 -2.45000
I 	I 	0.12720 0.26260 0.06290 0.55900
I 	I 	0.97770 0.15590 0.86850 -0.14600
I 	I 	0.88740 0.23910 0.95160 -0.16800
Zn	Zn	0.33162 0.13650 0.23145 1.37600
I 	I 	0.37654 0.15439 0.30737 0.54200
I 	I 	0.26967 0.22780 0.20454 -0.17000
Zn	Zn	0.63211 0.90017 0.05022 0.67100
I 	I 	0.65787 0.92590 0.97862 2.04300
I 	I 	0.61770 0.75616 0.08287 -1.04900
Zn	Zn	0.42187 0.62785 0.90785 1.15600
I 	I 	0.47605 0.65694 0.86340 -0.18200
I 	I 	0.38295 0.73870 0.94500 -0.14400
N 	N 	0.36250 0.14970 0.17880 -0.34000
C 	C 	0.35190 0.20450 0.14400 0.05800
H 	H 	0.32700 0.23250 0.14040 -0.05700
C 	C 	0.37560 0.22270 0.11270 -0.11900
H 	H 	0.36730 0.26360 0.08870 0.03900
C 	C 	0.41112 0.18030 0.11700 0.04400
C 	C 	0.42230 0.12340 0.15410 -0.11900
H 	H 	0.44710 0.09420 0.15870 0.08200
C 	C 	0.39740 0.11030 0.18330 0.09600
H 	H 	0.40530 0.07110 0.20810 -0.03700
N 	N 	0.58433 0.98350 0.04739 -0.30300
C 	C 	0.56822 0.03010 0.01070 0.06400
H 	H 	0.57870 0.02400 0.98390 -0.01700
C 	C 	0.53651 0.08710 0.01071 -0.11700
H 	H 	0.52570 0.12010 0.98440 0.08300
C 	C 	0.52110 0.09510 0.04943 0.05100
C 	C 	0.53840 0.04820 0.08770 -0.13400
H 	H 	0.52880 0.05350 0.11510 0.07600
C 	C 	0.57000 0.99360 0.08480 0.07800
H 	H 	0.58200 0.96170 0.11110 -0.02100
N 	N 	0.43973 0.52460 0.95366 -0.26800
C 	C 	0.46766 0.46600 0.94830 0.07300
H 	H 	0.48380 0.47900 0.92680 -0.00700
C 	C 	0.47415 0.38790 0.97244 -0.11200
H 	H 	0.49410 0.34780 0.96730 0.07700
C 	C 	0.45126 0.36840 0.00433 0.04600
C 	C 	0.42296 0.43130 0.01148 -0.11300
H 	H 	0.40720 0.42130 0.03370 0.07100
C 	C 	0.41850 0.50760 0.98578 0.06100
H 	H 	0.39960 0.55030 0.99090 -0.00700
C 	C 	0.43719 0.19700 0.08407 0.06400
N 	N 	0.46596 0.13830 0.08264 -0.13900
C 	C 	0.48804 0.15740 0.05187 0.07400
N 	N 	0.48391 0.22760 0.02418 -0.14700
C 	C 	0.45545 0.28410 0.03039 0.07200
N 	N 	0.43083 0.27140 0.05943 -0.15500
N 	N 	0.31562 0.99970 0.22431 -0.35100
C 	C 	0.33600 0.94590 0.25270 0.13000
H 	H 	0.35600 0.97020 0.27530 -0.04900
C 	C 	0.33020 0.85450 0.25210 -0.16100
H 	H 	0.34560 0.81770 0.27430 0.10600
C 	C 	0.30206 0.81770 0.21924 0.09700
C 	C 	0.28030 0.87430 0.18930 -0.13600
H 	H 	0.25990 0.85250 0.16640 0.10600
C 	C 	0.28880 0.96640 0.19310 0.09600
H 	H 	0.27410 0.00580 0.17170 -0.08000
N 	N 	0.17302 0.46510 0.09874 -0.31200
C 	C 	0.19620 0.41990 0.13140 0.07100
H 	H 	0.19280 0.35720 0.13300 -0.01000
C 	C 	0.22478 0.45990 0.16270 -0.13300
H 	H 	0.24050 0.42540 0.18560 0.10200
C 	C 	0.23049 0.55120 0.16054 0.06400
C 	C 	0.20666 0.59880 0.12681 -0.11000
H 	H 	0.20980 0.66140 0.12410 0.10300
C 	C 	0.17816 0.55370 0.09710 0.06300
H 	H 	0.16140 0.58680 0.07440 0.00100
N 	N 	0.38072 0.44300 0.36211 -0.27000
C 	C 	0.35248 0.40200 0.33309 0.06600
H 	H 	0.34860 0.33990 0.33690 0.02100
C 	C 	0.32850 0.44570 0.29758 -0.11400
H 	H 	0.30910 0.41380 0.27720 0.10100
C 	C 	0.33351 0.53640 0.29243 0.06000
C 	C 	0.36180 0.57910 0.32330 -0.11900
H 	H 	0.36540 0.64170 0.32140 0.10800
C 	C 	0.38470 0.53050 0.35710 0.07700
H 	H 	0.40430 0.56090 0.37790 0.00900
C 	C 	0.29552 0.71920 0.21944 0.10600
N 	N 	0.26694 0.68390 0.18861 -0.12200
C 	C 	0.26130 0.59620 0.19391 0.10000
N 	N 	0.28135 0.54540 0.22653 -0.14000
C 	C 	0.30967 0.58770 0.25497 0.10200
N 	N 	0.31865 0.67440 0.25234 -0.12900
Zn	Zn	0.32230 0.13490 0.22130 -0.31000
I 	I 	0.36660 0.16560 0.29710 -0.26700
I 	I 	0.25900 0.21620 0.19150 -0.37700
Zn	Zn	0.30440 0.13640 0.19820 1.07200
I 	I 	0.33770 0.18850 0.27430 -1.17400
I 	I 	0.24030 0.19330 0.15460 -0.01900
Zn	Zn	0.63930 0.91830 0.03990 0.58600
I 	I 	0.66630 0.97170 0.96790 -2.44800
I 	I 	0.62720 0.76260 0.06290 0.55900
I 	I 	0.47770 0.65590 0.86850 -0.14600
I 	I 	0.38740 0.73910 0.95160 -0.16800
