data_crystal

_cell_length_a 34.90320
_cell_length_b 14.80110
_cell_length_c 31.08110
_cell_angle_alpha 90.00000
_cell_angle_beta  101.56400
_cell_angle_gamma 90.00000

_symmetry_space_group_name_	'P 1'
_symmetry_space_group_name_H-M	'P 1'

loop_
_symmetry_equiv_pos_as_xyz
  x,y,z

loop_
_atom_site_label
_atom_site_type_symbol
_atom_site_fract_x
_atom_site_fract_y
_atom_site_fract_z
_atom_site_charge
Zn	Zn	0.37390 0.90015 0.43819 1.16300
Zn	Zn	0.16900 0.35850 0.76610 0.59300
I 	I 	0.22939 0.26360 0.78940 -0.02200
I 	I 	0.12268 0.34160 0.69375 -0.32300
Zn	Zn	0.08014 0.86970 0.09210 0.57000
I 	I 	0.02446 0.84796 0.12888 -0.24600
I 	I 	0.11672 0.75690 0.05498 -0.13900
I 	I 	0.39537 0.76420 0.39886 -0.24700
I 	I 	0.35571 0.91340 0.51258 -0.19600
N 	N 	0.13898 0.34070 0.81800 -0.28500
C 	C 	0.10680 0.38800 0.81670 0.08200
H 	H 	0.10000 0.43330 0.79480 -0.02200
C 	C 	0.08240 0.37400 0.84630 -0.12600
H 	H 	0.05860 0.40690 0.84340 0.08400
C 	C 	0.09236 0.31320 0.87940 0.06800
C 	C 	0.12710 0.26630 0.88120 -0.12300
H 	H 	0.13530 0.22300 0.90370 0.08400
C 	C 	0.14930 0.28210 0.85080 0.07400
H 	H 	0.17330 0.25010 0.85300 -0.01600
N 	N 	0.06851 0.98160 0.04747 -0.28300
C 	C 	0.03721 0.03350 0.04607 0.07300
H 	H 	0.01860 0.01690 0.06310 -0.01100
C 	C 	0.03083 0.11080 0.02070 -0.11900
H 	H 	0.00850 0.14730 0.02090 0.07000
C 	C 	0.05727 0.13430 0.99497 0.04800
C 	C 	0.09010 0.07990 0.99570 -0.11600
H 	H 	0.10910 0.09430 0.97890 0.07800
C 	C 	0.09360 0.00280 0.02260 0.06600
H 	H 	0.11520 0.96390 0.02290 -0.02200
N 	N 	0.92049 0.51250 0.94153 -0.28000
C 	C 	0.93390 0.49890 0.90610 0.08600
H 	H 	0.92130 0.52760 0.87970 -0.02200
C 	C 	0.96610 0.44350 0.90530 -0.13300
H 	H 	0.97550 0.43500 0.87890 0.08800
C 	C 	0.98378 0.40180 0.94311 0.05800
C 	C 	0.96748 0.41020 0.97940 -0.13100
H 	H 	0.97780 0.37760 0.00550 0.07900
C 	C 	0.93561 0.46680 0.97750 0.07900
H 	H 	0.92430 0.47310 0.00270 -0.01000
C 	C 	0.06766 0.29700 0.91174 0.10100
N 	N 	0.07468 0.22490 0.93756 -0.13600
C 	C 	0.05198 0.21620 0.96687 0.08900
N 	N 	0.02340 0.27400 0.97197 -0.14900
C 	C 	0.01773 0.34090 0.94272 0.09100
N 	N 	0.03828 0.35620 0.91212 -0.13500
N 	N 	0.12194 0.94190 0.13974 -0.28800
C 	C 	0.11590 0.02760 0.14650 0.08500
H 	H 	0.09510 0.05730 0.12720 -0.01400
C 	C 	0.13810 0.07690 0.18030 -0.13400
H 	H 	0.13330 0.13950 0.18340 0.09700
C 	C 	0.16705 0.03440 0.20886 0.07100
C 	C 	0.17317 0.94490 0.20230 -0.14000
H 	H 	0.19290 0.91300 0.22190 0.07700
C 	C 	0.15060 0.90100 0.16710 0.07900
H 	H 	0.15580 0.83920 0.16230 -0.02300
N 	N 	0.33098 0.96530 0.39343 -0.27500
C 	C 	0.32340 0.05110 0.39870 0.07400
H 	H 	0.33870 0.08260 0.42280 -0.00700
C 	C 	0.29409 0.09820 0.37050 -0.12200
H 	H 	0.28960 0.16050 0.37500 0.08200
C 	C 	0.27174 0.05200 0.33584 0.04500
C 	C 	0.27980 0.96100 0.33020 -0.12400
H 	H 	0.26520 0.92760 0.30640 0.08900
C 	C 	0.30920 0.92070 0.35970 0.06700
H 	H 	0.31430 0.85850 0.35610 -0.00400
N 	N 	0.18378 0.50300 0.27560 -0.28400
C 	C 	0.21350 0.46960 0.30310 0.08100
H 	H 	0.23060 0.51010 0.32140 -0.01900
C 	C 	0.22140 0.37740 0.30710 -0.12800
H 	H 	0.24320 0.35580 0.32810 0.07900
C 	C 	0.19749 0.31870 0.28040 0.06000
C 	C 	0.16540 0.35410 0.25170 -0.12200
H 	H 	0.14760 0.31520 0.23330 0.08300
C 	C 	0.15950 0.44630 0.25030 0.06800
H 	H 	0.13750 0.47010 0.23070 -0.01700
C 	C 	0.19064 0.08660 0.24567 0.09600
N 	N 	0.21967 0.04460 0.27261 -0.14200
C 	C 	0.23968 0.09700 0.30461 0.08600
N 	N 	0.23353 0.18480 0.30981 -0.14300
C 	C 	0.20463 0.21940 0.27990 0.10300
N 	N 	0.18138 0.17370 0.24832 -0.13500
Zn	Zn	0.17620 0.36020 0.77620 0.61300
I 	I 	0.23950 0.27880 0.80430 -0.35000
I 	I 	0.13220 0.33300 0.70030 -0.06100
Zn	Zn	0.08740 0.88340 0.08950 0.62700
I 	I 	0.02640 0.84660 0.12120 -0.08100
I 	I 	0.12450 0.77020 0.05240 -0.21200
I 	I 	0.38580 0.75610 0.40650 -0.11400
I 	I 	0.34952 0.89130 0.50789 -0.14500
Zn	Zn	0.87390 0.40015 0.43819 1.16200
Zn	Zn	0.66900 0.85850 0.76610 0.59200
I 	I 	0.72939 0.76360 0.78940 -0.02300
I 	I 	0.62268 0.84160 0.69375 -0.32400
Zn	Zn	0.58014 0.36970 0.09210 0.56900
I 	I 	0.52446 0.34796 0.12888 -0.24700
I 	I 	0.61672 0.25690 0.05498 -0.14000
I 	I 	0.89537 0.26420 0.39886 -0.24800
I 	I 	0.85571 0.41340 0.51258 -0.19700
N 	N 	0.63898 0.84070 0.81800 -0.28600
C 	C 	0.60680 0.88800 0.81670 0.08100
H 	H 	0.60000 0.93330 0.79480 -0.02300
C 	C 	0.58240 0.87400 0.84630 -0.12600
H 	H 	0.55860 0.90690 0.84340 0.08400
C 	C 	0.59236 0.81320 0.87940 0.06800
C 	C 	0.62710 0.76630 0.88120 -0.12300
H 	H 	0.63530 0.72300 0.90370 0.08400
C 	C 	0.64930 0.78210 0.85080 0.07400
H 	H 	0.67330 0.75010 0.85300 -0.01600
N 	N 	0.56851 0.48160 0.04747 -0.28300
C 	C 	0.53721 0.53350 0.04607 0.07300
H 	H 	0.51860 0.51690 0.06310 -0.01100
C 	C 	0.53083 0.61080 0.02070 -0.11900
H 	H 	0.50850 0.64730 0.02090 0.07000
C 	C 	0.55727 0.63430 0.99497 0.04800
C 	C 	0.59010 0.57990 0.99570 -0.11600
H 	H 	0.60910 0.59430 0.97890 0.07800
C 	C 	0.59360 0.50280 0.02260 0.06600
H 	H 	0.61520 0.46390 0.02290 -0.02200
N 	N 	0.42049 0.01250 0.94153 -0.28000
C 	C 	0.43390 0.99890 0.90610 0.08700
H 	H 	0.42130 0.02760 0.87970 -0.02200
C 	C 	0.46610 0.94350 0.90530 -0.13300
H 	H 	0.47550 0.93500 0.87890 0.08800
C 	C 	0.48378 0.90180 0.94311 0.05800
C 	C 	0.46748 0.91020 0.97940 -0.13100
H 	H 	0.47780 0.87760 0.00550 0.07900
C 	C 	0.43561 0.96680 0.97750 0.07900
H 	H 	0.42430 0.97310 0.00270 -0.01100
C 	C 	0.56766 0.79700 0.91174 0.10100
N 	N 	0.57468 0.72490 0.93756 -0.13600
C 	C 	0.55198 0.71620 0.96687 0.08900
N 	N 	0.52340 0.77400 0.97197 -0.14900
C 	C 	0.51773 0.84090 0.94272 0.09100
N 	N 	0.53828 0.85620 0.91212 -0.13500
N 	N 	0.62194 0.44190 0.13974 -0.28800
C 	C 	0.61590 0.52760 0.14650 0.08500
H 	H 	0.59510 0.55730 0.12720 -0.01400
C 	C 	0.63810 0.57690 0.18030 -0.13400
H 	H 	0.63330 0.63950 0.18340 0.09700
C 	C 	0.66705 0.53440 0.20886 0.07100
C 	C 	0.67317 0.44490 0.20230 -0.14000
H 	H 	0.69290 0.41300 0.22190 0.07700
C 	C 	0.65060 0.40100 0.16710 0.07900
H 	H 	0.65580 0.33920 0.16230 -0.02300
N 	N 	0.83098 0.46530 0.39343 -0.27500
C 	C 	0.82340 0.55110 0.39870 0.07400
H 	H 	0.83870 0.58260 0.42280 -0.00700
C 	C 	0.79409 0.59820 0.37050 -0.12200
H 	H 	0.78960 0.66050 0.37500 0.08200
C 	C 	0.77174 0.55200 0.33584 0.04500
C 	C 	0.77980 0.46100 0.33020 -0.12400
H 	H 	0.76520 0.42760 0.30640 0.08900
C 	C 	0.80920 0.42070 0.35970 0.06700
H 	H 	0.81430 0.35850 0.35610 -0.00400
N 	N 	0.68378 0.00300 0.27560 -0.28400
C 	C 	0.71350 0.96960 0.30310 0.08100
H 	H 	0.73060 0.01010 0.32140 -0.01900
C 	C 	0.72140 0.87740 0.30710 -0.12800
H 	H 	0.74320 0.85580 0.32810 0.07900
C 	C 	0.69749 0.81870 0.28040 0.06000
C 	C 	0.66540 0.85410 0.25170 -0.12100
H 	H 	0.64760 0.81520 0.23330 0.08300
C 	C 	0.65950 0.94630 0.25030 0.06800
H 	H 	0.63750 0.97010 0.23070 -0.01700
C 	C 	0.69064 0.58660 0.24567 0.09600
N 	N 	0.71967 0.54460 0.27261 -0.14200
C 	C 	0.73968 0.59700 0.30461 0.08600
N 	N 	0.73353 0.68480 0.30981 -0.14300
C 	C 	0.70463 0.71940 0.27990 0.10300
N 	N 	0.68138 0.67370 0.24832 -0.13500
Zn	Zn	0.67620 0.86020 0.77620 0.61300
I 	I 	0.73950 0.77880 0.80430 -0.35000
I 	I 	0.63220 0.83300 0.70030 -0.06100
Zn	Zn	0.58740 0.38340 0.08950 0.62700
I 	I 	0.52640 0.34660 0.12120 -0.08100
I 	I 	0.62450 0.27020 0.05240 -0.21200
I 	I 	0.88580 0.25610 0.40650 -0.11400
I 	I 	0.84952 0.39130 0.50789 -0.14500
Zn	Zn	0.37390 0.09985 0.93819 1.16200
Zn	Zn	0.16900 0.64150 0.26610 0.59200
I 	I 	0.22939 0.73640 0.28940 -0.02300
I 	I 	0.12268 0.65840 0.19375 -0.32400
Zn	Zn	0.08014 0.13030 0.59210 0.56900
I 	I 	0.02446 0.15204 0.62888 -0.24700
I 	I 	0.11672 0.24310 0.55498 -0.14000
I 	I 	0.39537 0.23580 0.89886 -0.24800
I 	I 	0.35571 0.08660 0.01258 -0.19700
N 	N 	0.13898 0.65930 0.31800 -0.28600
C 	C 	0.10680 0.61200 0.31670 0.08100
H 	H 	0.10000 0.56670 0.29480 -0.02300
C 	C 	0.08240 0.62600 0.34630 -0.12600
H 	H 	0.05860 0.59310 0.34340 0.08400
C 	C 	0.09236 0.68680 0.37940 0.06800
C 	C 	0.12710 0.73370 0.38120 -0.12300
H 	H 	0.13530 0.77700 0.40370 0.08400
C 	C 	0.14930 0.71790 0.35080 0.07400
H 	H 	0.17330 0.74990 0.35300 -0.01600
N 	N 	0.06851 0.01840 0.54747 -0.28300
C 	C 	0.03721 0.96650 0.54607 0.07300
H 	H 	0.01860 0.98310 0.56310 -0.01100
C 	C 	0.03083 0.88920 0.52070 -0.11900
H 	H 	0.00850 0.85270 0.52090 0.07000
C 	C 	0.05727 0.86570 0.49497 0.04800
C 	C 	0.09010 0.92010 0.49570 -0.11600
H 	H 	0.10910 0.90570 0.47890 0.07800
C 	C 	0.09360 0.99720 0.52260 0.06600
H 	H 	0.11520 0.03610 0.52290 -0.02200
N 	N 	0.92049 0.48750 0.44153 -0.28000
C 	C 	0.93390 0.50110 0.40610 0.08600
H 	H 	0.92130 0.47240 0.37970 -0.02200
C 	C 	0.96610 0.55650 0.40530 -0.13300
H 	H 	0.97550 0.56500 0.37890 0.08800
C 	C 	0.98378 0.59820 0.44311 0.05800
C 	C 	0.96748 0.58980 0.47940 -0.13100
H 	H 	0.97780 0.62240 0.50550 0.07900
C 	C 	0.93561 0.53320 0.47750 0.07900
H 	H 	0.92430 0.52690 0.50270 -0.01000
C 	C 	0.06766 0.70300 0.41174 0.10100
N 	N 	0.07468 0.77510 0.43756 -0.13600
C 	C 	0.05198 0.78380 0.46687 0.08900
N 	N 	0.02340 0.72600 0.47197 -0.14900
C 	C 	0.01773 0.65910 0.44272 0.09100
N 	N 	0.03828 0.64380 0.41212 -0.13500
N 	N 	0.12194 0.05810 0.63974 -0.28800
C 	C 	0.11590 0.97240 0.64650 0.08500
H 	H 	0.09510 0.94270 0.62720 -0.01400
C 	C 	0.13810 0.92310 0.68030 -0.13400
H 	H 	0.13330 0.86050 0.68340 0.09700
C 	C 	0.16705 0.96560 0.70886 0.07100
C 	C 	0.17317 0.05510 0.70230 -0.14000
H 	H 	0.19290 0.08700 0.72190 0.07700
C 	C 	0.15060 0.09900 0.66710 0.07900
H 	H 	0.15580 0.16080 0.66230 -0.02300
N 	N 	0.33098 0.03470 0.89343 -0.27500
C 	C 	0.32340 0.94890 0.89870 0.07400
H 	H 	0.33870 0.91740 0.92280 -0.00700
C 	C 	0.29409 0.90180 0.87050 -0.12200
H 	H 	0.28960 0.83950 0.87500 0.08200
C 	C 	0.27174 0.94800 0.83584 0.04500
C 	C 	0.27980 0.03900 0.83020 -0.12400
H 	H 	0.26520 0.07240 0.80640 0.08900
C 	C 	0.30920 0.07930 0.85970 0.06700
H 	H 	0.31430 0.14150 0.85610 -0.00400
N 	N 	0.18378 0.49700 0.77560 -0.28400
C 	C 	0.21350 0.53040 0.80310 0.08100
H 	H 	0.23060 0.48990 0.82140 -0.01900
C 	C 	0.22140 0.62260 0.80710 -0.12800
H 	H 	0.24320 0.64420 0.82810 0.07900
C 	C 	0.19749 0.68130 0.78040 0.06000
C 	C 	0.16540 0.64590 0.75170 -0.12200
H 	H 	0.14760 0.68480 0.73330 0.08300
C 	C 	0.15950 0.55370 0.75030 0.06800
H 	H 	0.13750 0.52990 0.73070 -0.01700
C 	C 	0.19064 0.91340 0.74567 0.09600
N 	N 	0.21967 0.95540 0.77261 -0.14200
C 	C 	0.23968 0.90300 0.80461 0.08600
N 	N 	0.23353 0.81520 0.80981 -0.14300
C 	C 	0.20463 0.78060 0.77990 0.10300
N 	N 	0.18138 0.82630 0.74832 -0.13500
Zn	Zn	0.17620 0.63980 0.27620 0.61300
I 	I 	0.23950 0.72120 0.30430 -0.35000
I 	I 	0.13220 0.66700 0.20030 -0.06100
Zn	Zn	0.08740 0.11660 0.58950 0.62700
I 	I 	0.02640 0.15340 0.62120 -0.08100
I 	I 	0.12450 0.22980 0.55240 -0.21200
I 	I 	0.38580 0.24390 0.90650 -0.11400
I 	I 	0.34952 0.10870 0.00789 -0.14500
Zn	Zn	0.87390 0.59985 0.93819 1.16200
Zn	Zn	0.66900 0.14150 0.26610 0.59200
I 	I 	0.72939 0.23640 0.28940 -0.02300
I 	I 	0.62268 0.15840 0.19375 -0.32400
Zn	Zn	0.58014 0.63030 0.59210 0.56900
I 	I 	0.52446 0.65204 0.62888 -0.24700
I 	I 	0.61672 0.74310 0.55498 -0.14000
I 	I 	0.89537 0.73580 0.89886 -0.24800
I 	I 	0.85571 0.58660 0.01258 -0.19700
N 	N 	0.63898 0.15930 0.31800 -0.28600
C 	C 	0.60680 0.11200 0.31670 0.08100
H 	H 	0.60000 0.06670 0.29480 -0.02300
C 	C 	0.58240 0.12600 0.34630 -0.12600
H 	H 	0.55860 0.09310 0.34340 0.08400
C 	C 	0.59236 0.18680 0.37940 0.06800
C 	C 	0.62710 0.23370 0.38120 -0.12300
H 	H 	0.63530 0.27700 0.40370 0.08400
C 	C 	0.64930 0.21790 0.35080 0.07400
H 	H 	0.67330 0.24990 0.35300 -0.01600
N 	N 	0.56851 0.51840 0.54747 -0.28300
C 	C 	0.53721 0.46650 0.54607 0.07300
H 	H 	0.51860 0.48310 0.56310 -0.01100
C 	C 	0.53083 0.38920 0.52070 -0.11900
H 	H 	0.50850 0.35270 0.52090 0.07000
C 	C 	0.55727 0.36570 0.49497 0.04800
C 	C 	0.59010 0.42010 0.49570 -0.11600
H 	H 	0.60910 0.40570 0.47890 0.07800
C 	C 	0.59360 0.49720 0.52260 0.06600
H 	H 	0.61520 0.53610 0.52290 -0.02200
N 	N 	0.42049 0.98750 0.44153 -0.28000
C 	C 	0.43390 0.00110 0.40610 0.08600
H 	H 	0.42130 0.97240 0.37970 -0.02200
C 	C 	0.46610 0.05650 0.40530 -0.13300
H 	H 	0.47550 0.06500 0.37890 0.08800
C 	C 	0.48378 0.09820 0.44311 0.05800
C 	C 	0.46748 0.08980 0.47940 -0.13100
H 	H 	0.47780 0.12240 0.50550 0.07900
C 	C 	0.43561 0.03320 0.47750 0.07900
H 	H 	0.42430 0.02690 0.50270 -0.01000
C 	C 	0.56766 0.20300 0.41174 0.10100
N 	N 	0.57468 0.27510 0.43756 -0.13600
C 	C 	0.55198 0.28380 0.46687 0.08900
N 	N 	0.52340 0.22600 0.47197 -0.14900
C 	C 	0.51773 0.15910 0.44272 0.09100
N 	N 	0.53828 0.14380 0.41212 -0.13500
N 	N 	0.62194 0.55810 0.63974 -0.28800
C 	C 	0.61590 0.47240 0.64650 0.08500
H 	H 	0.59510 0.44270 0.62720 -0.01400
C 	C 	0.63810 0.42310 0.68030 -0.13400
H 	H 	0.63330 0.36050 0.68340 0.09700
C 	C 	0.66705 0.46560 0.70886 0.07100
C 	C 	0.67317 0.55510 0.70230 -0.14000
H 	H 	0.69290 0.58700 0.72190 0.07700
C 	C 	0.65060 0.59900 0.66710 0.07900
H 	H 	0.65580 0.66080 0.66230 -0.02300
N 	N 	0.83098 0.53470 0.89343 -0.27500
C 	C 	0.82340 0.44890 0.89870 0.07400
H 	H 	0.83870 0.41740 0.92280 -0.00700
C 	C 	0.79409 0.40180 0.87050 -0.12200
H 	H 	0.78960 0.33950 0.87500 0.08200
C 	C 	0.77174 0.44800 0.83584 0.04500
C 	C 	0.77980 0.53900 0.83020 -0.12400
H 	H 	0.76520 0.57240 0.80640 0.08900
C 	C 	0.80920 0.57930 0.85970 0.06700
H 	H 	0.81430 0.64150 0.85610 -0.00400
N 	N 	0.68378 0.99700 0.77560 -0.28400
C 	C 	0.71350 0.03040 0.80310 0.08100
H 	H 	0.73060 0.98990 0.82140 -0.01900
C 	C 	0.72140 0.12260 0.80710 -0.12800
H 	H 	0.74320 0.14420 0.82810 0.07900
C 	C 	0.69749 0.18130 0.78040 0.06000
C 	C 	0.66540 0.14590 0.75170 -0.12100
H 	H 	0.64760 0.18480 0.73330 0.08300
C 	C 	0.65950 0.05370 0.75030 0.06800
H 	H 	0.63750 0.02990 0.73070 -0.01700
C 	C 	0.69064 0.41340 0.74567 0.09600
N 	N 	0.71967 0.45540 0.77261 -0.14200
C 	C 	0.73968 0.40300 0.80461 0.08600
N 	N 	0.73353 0.31520 0.80981 -0.14300
C 	C 	0.70463 0.28060 0.77990 0.10300
N 	N 	0.68138 0.32630 0.74832 -0.13500
Zn	Zn	0.67620 0.13980 0.27620 0.61300
I 	I 	0.73950 0.22120 0.30430 -0.35000
I 	I 	0.63220 0.16700 0.20030 -0.06100
Zn	Zn	0.58740 0.61660 0.58950 0.62700
I 	I 	0.52640 0.65340 0.62120 -0.08100
I 	I 	0.62450 0.72980 0.55240 -0.21200
I 	I 	0.88580 0.74390 0.90650 -0.11400
I 	I 	0.84952 0.60870 0.00789 -0.14500
Zn	Zn	0.62610 0.90015 0.06181 1.16200
Zn	Zn	0.83100 0.35850 0.73390 0.59200
I 	I 	0.77061 0.26360 0.71060 -0.02300
I 	I 	0.87732 0.34160 0.80625 -0.32400
Zn	Zn	0.91986 0.86970 0.40790 0.56900
I 	I 	0.97554 0.84796 0.37112 -0.24700
I 	I 	0.88328 0.75690 0.44502 -0.14000
I 	I 	0.60463 0.76420 0.10114 -0.24800
I 	I 	0.64429 0.91340 0.98742 -0.19700
N 	N 	0.86102 0.34070 0.68200 -0.28600
C 	C 	0.89320 0.38800 0.68330 0.08100
H 	H 	0.90000 0.43330 0.70520 -0.02300
C 	C 	0.91760 0.37400 0.65370 -0.12600
H 	H 	0.94140 0.40690 0.65660 0.08400
C 	C 	0.90764 0.31320 0.62060 0.06800
C 	C 	0.87290 0.26630 0.61880 -0.12300
H 	H 	0.86470 0.22300 0.59630 0.08400
C 	C 	0.85070 0.28210 0.64920 0.07400
H 	H 	0.82670 0.25010 0.64700 -0.01600
N 	N 	0.93149 0.98160 0.45253 -0.28300
C 	C 	0.96279 0.03350 0.45393 0.07300
H 	H 	0.98140 0.01690 0.43690 -0.01100
C 	C 	0.96917 0.11080 0.47930 -0.11900
H 	H 	0.99150 0.14730 0.47910 0.07000
C 	C 	0.94273 0.13430 0.50503 0.04800
C 	C 	0.90990 0.07990 0.50430 -0.11600
H 	H 	0.89090 0.09430 0.52110 0.07800
C 	C 	0.90640 0.00280 0.47740 0.06600
H 	H 	0.88480 0.96390 0.47710 -0.02200
N 	N 	0.07951 0.51250 0.55847 -0.28000
C 	C 	0.06610 0.49890 0.59390 0.08600
H 	H 	0.07870 0.52760 0.62030 -0.02200
C 	C 	0.03390 0.44350 0.59470 -0.13300
H 	H 	0.02450 0.43500 0.62110 0.08800
C 	C 	0.01622 0.40180 0.55689 0.05800
C 	C 	0.03252 0.41020 0.52060 -0.13100
H 	H 	0.02220 0.37760 0.49450 0.07900
C 	C 	0.06439 0.46680 0.52250 0.07900
H 	H 	0.07570 0.47310 0.49730 -0.01000
C 	C 	0.93234 0.29700 0.58826 0.10100
N 	N 	0.92532 0.22490 0.56244 -0.13600
C 	C 	0.94802 0.21620 0.53313 0.08900
N 	N 	0.97660 0.27400 0.52803 -0.14900
C 	C 	0.98227 0.34090 0.55728 0.09100
N 	N 	0.96172 0.35620 0.58788 -0.13500
N 	N 	0.87806 0.94190 0.36026 -0.28800
C 	C 	0.88410 0.02760 0.35350 0.08500
H 	H 	0.90490 0.05730 0.37280 -0.01400
C 	C 	0.86190 0.07690 0.31970 -0.13400
H 	H 	0.86670 0.13950 0.31660 0.09700
C 	C 	0.83295 0.03440 0.29114 0.07100
C 	C 	0.82683 0.94490 0.29770 -0.14000
H 	H 	0.80710 0.91300 0.27810 0.07700
C 	C 	0.84940 0.90100 0.33290 0.07900
H 	H 	0.84420 0.83920 0.33770 -0.02300
N 	N 	0.66902 0.96530 0.10657 -0.27500
C 	C 	0.67660 0.05110 0.10130 0.07400
H 	H 	0.66130 0.08260 0.07720 -0.00700
C 	C 	0.70591 0.09820 0.12950 -0.12200
H 	H 	0.71040 0.16050 0.12500 0.08200
C 	C 	0.72826 0.05200 0.16416 0.04500
C 	C 	0.72020 0.96100 0.16980 -0.12400
H 	H 	0.73480 0.92760 0.19360 0.08900
C 	C 	0.69080 0.92070 0.14030 0.06700
H 	H 	0.68570 0.85850 0.14390 -0.00400
N 	N 	0.81622 0.50300 0.22440 -0.28400
C 	C 	0.78650 0.46960 0.19690 0.08100
H 	H 	0.76940 0.51010 0.17860 -0.01900
C 	C 	0.77860 0.37740 0.19290 -0.12800
H 	H 	0.75680 0.35580 0.17190 0.07900
C 	C 	0.80251 0.31870 0.21960 0.06000
C 	C 	0.83460 0.35410 0.24830 -0.12200
H 	H 	0.85240 0.31520 0.26670 0.08300
C 	C 	0.84050 0.44630 0.24970 0.06800
H 	H 	0.86250 0.47010 0.26930 -0.01700
C 	C 	0.80936 0.08660 0.25433 0.09600
N 	N 	0.78033 0.04460 0.22739 -0.14200
C 	C 	0.76032 0.09700 0.19539 0.08600
N 	N 	0.76647 0.18480 0.19019 -0.14300
C 	C 	0.79537 0.21940 0.22010 0.10300
N 	N 	0.81862 0.17370 0.25168 -0.13500
Zn	Zn	0.82380 0.36020 0.72380 0.61300
I 	I 	0.76050 0.27880 0.69570 -0.35000
I 	I 	0.86780 0.33300 0.79970 -0.06100
Zn	Zn	0.91260 0.88340 0.41050 0.62700
I 	I 	0.97360 0.84660 0.37880 -0.08100
I 	I 	0.87550 0.77020 0.44760 -0.21200
I 	I 	0.61420 0.75610 0.09350 -0.11400
I 	I 	0.65048 0.89130 0.99211 -0.14500
Zn	Zn	0.12610 0.40015 0.06181 1.16200
Zn	Zn	0.33100 0.85850 0.73390 0.59200
I 	I 	0.27061 0.76360 0.71060 -0.02300
I 	I 	0.37732 0.84160 0.80625 -0.32400
Zn	Zn	0.41986 0.36970 0.40790 0.56900
I 	I 	0.47554 0.34796 0.37112 -0.24700
I 	I 	0.38328 0.25690 0.44502 -0.14000
I 	I 	0.10463 0.26420 0.10114 -0.24800
I 	I 	0.14429 0.41340 0.98742 -0.19700
N 	N 	0.36102 0.84070 0.68200 -0.28600
C 	C 	0.39320 0.88800 0.68330 0.08100
H 	H 	0.40000 0.93330 0.70520 -0.02300
C 	C 	0.41760 0.87400 0.65370 -0.12600
H 	H 	0.44140 0.90690 0.65660 0.08400
C 	C 	0.40764 0.81320 0.62060 0.06800
C 	C 	0.37290 0.76630 0.61880 -0.12300
H 	H 	0.36470 0.72300 0.59630 0.08400
C 	C 	0.35070 0.78210 0.64920 0.07400
H 	H 	0.32670 0.75010 0.64700 -0.01600
N 	N 	0.43149 0.48160 0.45253 -0.28300
C 	C 	0.46279 0.53350 0.45393 0.07300
H 	H 	0.48140 0.51690 0.43690 -0.01100
C 	C 	0.46917 0.61080 0.47930 -0.11900
H 	H 	0.49150 0.64730 0.47910 0.07000
C 	C 	0.44273 0.63430 0.50503 0.04800
C 	C 	0.40990 0.57990 0.50430 -0.11600
H 	H 	0.39090 0.59430 0.52110 0.07800
C 	C 	0.40640 0.50280 0.47740 0.06600
H 	H 	0.38480 0.46390 0.47710 -0.02200
N 	N 	0.57951 0.01250 0.55847 -0.28000
C 	C 	0.56610 0.99890 0.59390 0.08600
H 	H 	0.57870 0.02760 0.62030 -0.02200
C 	C 	0.53390 0.94350 0.59470 -0.13300
H 	H 	0.52450 0.93500 0.62110 0.08800
C 	C 	0.51622 0.90180 0.55689 0.05800
C 	C 	0.53252 0.91020 0.52060 -0.13100
H 	H 	0.52220 0.87760 0.49450 0.07900
C 	C 	0.56439 0.96680 0.52250 0.07900
H 	H 	0.57570 0.97310 0.49730 -0.01000
C 	C 	0.43234 0.79700 0.58826 0.10100
N 	N 	0.42532 0.72490 0.56244 -0.13600
C 	C 	0.44802 0.71620 0.53313 0.08900
N 	N 	0.47660 0.77400 0.52803 -0.14900
C 	C 	0.48227 0.84090 0.55728 0.09100
N 	N 	0.46172 0.85620 0.58788 -0.13500
N 	N 	0.37806 0.44190 0.36026 -0.28800
C 	C 	0.38410 0.52760 0.35350 0.08500
H 	H 	0.40490 0.55730 0.37280 -0.01400
C 	C 	0.36190 0.57690 0.31970 -0.13400
H 	H 	0.36670 0.63950 0.31660 0.09700
C 	C 	0.33295 0.53440 0.29114 0.07100
C 	C 	0.32683 0.44490 0.29770 -0.14000
H 	H 	0.30710 0.41300 0.27810 0.07700
C 	C 	0.34940 0.40100 0.33290 0.07900
H 	H 	0.34420 0.33920 0.33770 -0.02300
N 	N 	0.16902 0.46530 0.10657 -0.27500
C 	C 	0.17660 0.55110 0.10130 0.07400
H 	H 	0.16130 0.58260 0.07720 -0.00700
C 	C 	0.20591 0.59820 0.12950 -0.12200
H 	H 	0.21040 0.66050 0.12500 0.08200
C 	C 	0.22826 0.55200 0.16416 0.04500
C 	C 	0.22020 0.46100 0.16980 -0.12400
H 	H 	0.23480 0.42760 0.19360 0.08900
C 	C 	0.19080 0.42070 0.14030 0.06700
H 	H 	0.18570 0.35850 0.14390 -0.00400
N 	N 	0.31622 0.00300 0.22440 -0.28400
C 	C 	0.28650 0.96960 0.19690 0.08100
H 	H 	0.26940 0.01010 0.17860 -0.01900
C 	C 	0.27860 0.87740 0.19290 -0.12800
H 	H 	0.25680 0.85580 0.17190 0.07900
C 	C 	0.30251 0.81870 0.21960 0.06000
C 	C 	0.33460 0.85410 0.24830 -0.12100
H 	H 	0.35240 0.81520 0.26670 0.08300
C 	C 	0.34050 0.94630 0.24970 0.06800
H 	H 	0.36250 0.97010 0.26930 -0.01700
C 	C 	0.30936 0.58660 0.25433 0.09600
N 	N 	0.28033 0.54460 0.22739 -0.14200
C 	C 	0.26032 0.59700 0.19539 0.08600
N 	N 	0.26647 0.68480 0.19019 -0.14300
C 	C 	0.29537 0.71940 0.22010 0.10300
N 	N 	0.31862 0.67370 0.25168 -0.13500
Zn	Zn	0.32380 0.86020 0.72380 0.61300
I 	I 	0.26050 0.77880 0.69570 -0.35000
I 	I 	0.36780 0.83300 0.79970 -0.06100
Zn	Zn	0.41260 0.38340 0.41050 0.62700
I 	I 	0.47360 0.34660 0.37880 -0.08100
I 	I 	0.37550 0.27020 0.44760 -0.21200
I 	I 	0.11420 0.25610 0.09350 -0.11400
I 	I 	0.15048 0.39130 0.99211 -0.14500
Zn	Zn	0.62610 0.09985 0.56181 1.16200
Zn	Zn	0.83100 0.64150 0.23390 0.59200
I 	I 	0.77061 0.73640 0.21060 -0.02300
I 	I 	0.87732 0.65840 0.30625 -0.32400
Zn	Zn	0.91986 0.13030 0.90790 0.56900
I 	I 	0.97554 0.15204 0.87112 -0.24700
I 	I 	0.88328 0.24310 0.94502 -0.14000
I 	I 	0.60463 0.23580 0.60114 -0.24800
I 	I 	0.64429 0.08660 0.48742 -0.19700
N 	N 	0.86102 0.65930 0.18200 -0.28600
C 	C 	0.89320 0.61200 0.18330 0.08100
H 	H 	0.90000 0.56670 0.20520 -0.02300
C 	C 	0.91760 0.62600 0.15370 -0.12600
H 	H 	0.94140 0.59310 0.15660 0.08400
C 	C 	0.90764 0.68680 0.12060 0.06800
C 	C 	0.87290 0.73370 0.11880 -0.12300
H 	H 	0.86470 0.77700 0.09630 0.08400
C 	C 	0.85070 0.71790 0.14920 0.07400
H 	H 	0.82670 0.74990 0.14700 -0.01600
N 	N 	0.93149 0.01840 0.95253 -0.28300
C 	C 	0.96279 0.96650 0.95393 0.07300
H 	H 	0.98140 0.98310 0.93690 -0.01100
C 	C 	0.96917 0.88920 0.97930 -0.11900
H 	H 	0.99150 0.85270 0.97910 0.07000
C 	C 	0.94273 0.86570 0.00503 0.04800
C 	C 	0.90990 0.92010 0.00430 -0.11600
H 	H 	0.89090 0.90570 0.02110 0.07800
C 	C 	0.90640 0.99720 0.97740 0.06600
H 	H 	0.88480 0.03610 0.97710 -0.02200
N 	N 	0.07951 0.48750 0.05847 -0.28000
C 	C 	0.06610 0.50110 0.09390 0.08600
H 	H 	0.07870 0.47240 0.12030 -0.02200
C 	C 	0.03390 0.55650 0.09470 -0.13300
H 	H 	0.02450 0.56500 0.12110 0.08800
C 	C 	0.01622 0.59820 0.05689 0.05800
C 	C 	0.03252 0.58980 0.02060 -0.13100
H 	H 	0.02220 0.62240 0.99450 0.07900
C 	C 	0.06439 0.53320 0.02250 0.07900
H 	H 	0.07570 0.52690 0.99730 -0.01000
C 	C 	0.93234 0.70300 0.08826 0.10100
N 	N 	0.92532 0.77510 0.06244 -0.13600
C 	C 	0.94802 0.78380 0.03313 0.08900
N 	N 	0.97660 0.72600 0.02803 -0.14900
C 	C 	0.98227 0.65910 0.05728 0.09100
N 	N 	0.96172 0.64380 0.08788 -0.13500
N 	N 	0.87806 0.05810 0.86026 -0.28800
C 	C 	0.88410 0.97240 0.85350 0.08500
H 	H 	0.90490 0.94270 0.87280 -0.01400
C 	C 	0.86190 0.92310 0.81970 -0.13400
H 	H 	0.86670 0.86050 0.81660 0.09700
C 	C 	0.83295 0.96560 0.79114 0.07100
C 	C 	0.82683 0.05510 0.79770 -0.14000
H 	H 	0.80710 0.08700 0.77810 0.07700
C 	C 	0.84940 0.09900 0.83290 0.07900
H 	H 	0.84420 0.16080 0.83770 -0.02300
N 	N 	0.66902 0.03470 0.60657 -0.27500
C 	C 	0.67660 0.94890 0.60130 0.07400
H 	H 	0.66130 0.91740 0.57720 -0.00700
C 	C 	0.70591 0.90180 0.62950 -0.12200
H 	H 	0.71040 0.83950 0.62500 0.08200
C 	C 	0.72826 0.94800 0.66416 0.04500
C 	C 	0.72020 0.03900 0.66980 -0.12400
H 	H 	0.73480 0.07240 0.69360 0.08900
C 	C 	0.69080 0.07930 0.64030 0.06700
H 	H 	0.68570 0.14150 0.64390 -0.00400
N 	N 	0.81622 0.49700 0.72440 -0.28400
C 	C 	0.78650 0.53040 0.69690 0.08100
H 	H 	0.76940 0.48990 0.67860 -0.01900
C 	C 	0.77860 0.62260 0.69290 -0.12800
H 	H 	0.75680 0.64420 0.67190 0.07900
C 	C 	0.80251 0.68130 0.71960 0.06000
C 	C 	0.83460 0.64590 0.74830 -0.12200
H 	H 	0.85240 0.68480 0.76670 0.08300
C 	C 	0.84050 0.55370 0.74970 0.06800
H 	H 	0.86250 0.52990 0.76930 -0.01700
C 	C 	0.80936 0.91340 0.75433 0.09600
N 	N 	0.78033 0.95540 0.72739 -0.14200
C 	C 	0.76032 0.90300 0.69539 0.08600
N 	N 	0.76647 0.81520 0.69019 -0.14300
C 	C 	0.79537 0.78060 0.72010 0.10300
N 	N 	0.81862 0.82630 0.75168 -0.13500
Zn	Zn	0.82380 0.63980 0.22380 0.61300
I 	I 	0.76050 0.72120 0.19570 -0.35000
I 	I 	0.86780 0.66700 0.29970 -0.06100
Zn	Zn	0.91260 0.11660 0.91050 0.62700
I 	I 	0.97360 0.15340 0.87880 -0.08100
I 	I 	0.87550 0.22980 0.94760 -0.21200
I 	I 	0.61420 0.24390 0.59350 -0.11400
I 	I 	0.65048 0.10870 0.49211 -0.14500
Zn	Zn	0.12610 0.59985 0.56181 1.16200
Zn	Zn	0.33100 0.14150 0.23390 0.59200
I 	I 	0.27061 0.23640 0.21060 -0.02300
I 	I 	0.37732 0.15840 0.30625 -0.32400
Zn	Zn	0.41986 0.63030 0.90790 0.56900
I 	I 	0.47554 0.65204 0.87112 -0.24700
I 	I 	0.38328 0.74310 0.94502 -0.14000
I 	I 	0.10463 0.73580 0.60114 -0.24800
I 	I 	0.14429 0.58660 0.48742 -0.19700
N 	N 	0.36102 0.15930 0.18200 -0.28600
C 	C 	0.39320 0.11200 0.18330 0.08100
H 	H 	0.40000 0.06670 0.20520 -0.02300
C 	C 	0.41760 0.12600 0.15370 -0.12600
H 	H 	0.44140 0.09310 0.15660 0.08400
C 	C 	0.40764 0.18680 0.12060 0.06800
C 	C 	0.37290 0.23370 0.11880 -0.12300
H 	H 	0.36470 0.27700 0.09630 0.08400
C 	C 	0.35070 0.21790 0.14920 0.07400
H 	H 	0.32670 0.24990 0.14700 -0.01600
N 	N 	0.43149 0.51840 0.95253 -0.28300
C 	C 	0.46279 0.46650 0.95393 0.07300
H 	H 	0.48140 0.48310 0.93690 -0.01100
C 	C 	0.46917 0.38920 0.97930 -0.11900
H 	H 	0.49150 0.35270 0.97910 0.07000
C 	C 	0.44273 0.36570 0.00503 0.04800
C 	C 	0.40990 0.42010 0.00430 -0.11600
H 	H 	0.39090 0.40570 0.02110 0.07800
C 	C 	0.40640 0.49720 0.97740 0.06600
H 	H 	0.38480 0.53610 0.97710 -0.02200
N 	N 	0.57951 0.98750 0.05847 -0.28000
C 	C 	0.56610 0.00110 0.09390 0.08700
H 	H 	0.57870 0.97240 0.12030 -0.02200
C 	C 	0.53390 0.05650 0.09470 -0.13300
H 	H 	0.52450 0.06500 0.12110 0.08800
C 	C 	0.51622 0.09820 0.05689 0.05800
C 	C 	0.53252 0.08980 0.02060 -0.13100
H 	H 	0.52220 0.12240 0.99450 0.07900
C 	C 	0.56439 0.03320 0.02250 0.07900
H 	H 	0.57570 0.02690 0.99730 -0.01100
C 	C 	0.43234 0.20300 0.08826 0.10100
N 	N 	0.42532 0.27510 0.06244 -0.13600
C 	C 	0.44802 0.28380 0.03313 0.08900
N 	N 	0.47660 0.22600 0.02803 -0.14900
C 	C 	0.48227 0.15910 0.05728 0.09100
N 	N 	0.46172 0.14380 0.08788 -0.13500
N 	N 	0.37806 0.55810 0.86026 -0.28800
C 	C 	0.38410 0.47240 0.85350 0.08500
H 	H 	0.40490 0.44270 0.87280 -0.01400
C 	C 	0.36190 0.42310 0.81970 -0.13400
H 	H 	0.36670 0.36050 0.81660 0.09700
C 	C 	0.33295 0.46560 0.79114 0.07100
C 	C 	0.32683 0.55510 0.79770 -0.14000
H 	H 	0.30710 0.58700 0.77810 0.07700
C 	C 	0.34940 0.59900 0.83290 0.07900
H 	H 	0.34420 0.66080 0.83770 -0.02300
N 	N 	0.16902 0.53470 0.60657 -0.27500
C 	C 	0.17660 0.44890 0.60130 0.07400
H 	H 	0.16130 0.41740 0.57720 -0.00700
C 	C 	0.20591 0.40180 0.62950 -0.12200
H 	H 	0.21040 0.33950 0.62500 0.08200
C 	C 	0.22826 0.44800 0.66416 0.04500
C 	C 	0.22020 0.53900 0.66980 -0.12400
H 	H 	0.23480 0.57240 0.69360 0.08900
C 	C 	0.19080 0.57930 0.64030 0.06700
H 	H 	0.18570 0.64150 0.64390 -0.00400
N 	N 	0.31622 0.99700 0.72440 -0.28400
C 	C 	0.28650 0.03040 0.69690 0.08100
H 	H 	0.26940 0.98990 0.67860 -0.01900
C 	C 	0.27860 0.12260 0.69290 -0.12800
H 	H 	0.25680 0.14420 0.67190 0.07900
C 	C 	0.30251 0.18130 0.71960 0.06000
C 	C 	0.33460 0.14590 0.74830 -0.12100
H 	H 	0.35240 0.18480 0.76670 0.08300
C 	C 	0.34050 0.05370 0.74970 0.06800
H 	H 	0.36250 0.02990 0.76930 -0.01700
C 	C 	0.30936 0.41340 0.75433 0.09600
N 	N 	0.28033 0.45540 0.72739 -0.14200
C 	C 	0.26032 0.40300 0.69539 0.08600
N 	N 	0.26647 0.31520 0.69019 -0.14300
C 	C 	0.29537 0.28060 0.72010 0.10300
N 	N 	0.31862 0.32630 0.75168 -0.13500
Zn	Zn	0.32380 0.13980 0.22380 0.61300
I 	I 	0.26050 0.22120 0.19570 -0.35000
I 	I 	0.36780 0.16700 0.29970 -0.06100
Zn	Zn	0.41260 0.61660 0.91050 0.62700
I 	I 	0.47360 0.65340 0.87880 -0.08100
I 	I 	0.37550 0.72980 0.94760 -0.21200
I 	I 	0.11420 0.74390 0.59350 -0.11400
I 	I 	0.15048 0.60870 0.49211 -0.14500
