data_crystal

_cell_length_a 49.11200
_cell_length_b 49.11200
_cell_length_c 49.11200
_cell_angle_alpha 90.00000
_cell_angle_beta  90.00000
_cell_angle_gamma 90.00000

_symmetry_space_group_name_	'P 1'
_symmetry_space_group_name_H-M	'P 1'

loop_
_symmetry_equiv_pos_as_xyz
  x,y,z

loop_
_atom_site_label
_atom_site_type_symbol
_atom_site_fract_x
_atom_site_fract_y
_atom_site_fract_z
_atom_site_charge
O 	O 	0.13383 0.40325 0.97304 -0.39900
O 	O 	0.16941 0.36868 0.97214 -0.36200
C 	C 	0.15494 0.39357 0.96534 0.27100
C 	C 	0.17339 0.40730 0.94429 -0.01900
C 	C 	0.19807 0.39941 0.93518 -0.05000
H 	H 	0.20800 0.38600 0.94510 0.06700
C 	C 	0.27747 0.37491 0.85153 -0.04300
H 	H 	0.26150 0.37920 0.84120 0.04700
C 	C 	0.30113 0.36359 0.84070 -0.06700
H 	H 	0.30240 0.35910 0.82170 0.04900
C 	C 	0.32690 0.36291 0.88760 -0.06700
H 	H 	0.34310 0.35840 0.89770 0.04700
C 	C 	0.30190 0.37484 0.89780 -0.04300
H 	H 	0.30030 0.37920 0.91680 0.04800
O 	O 	0.13383 0.90325 0.47304 -0.39900
O 	O 	0.16941 0.86868 0.47214 -0.36300
C 	C 	0.15494 0.89357 0.46534 0.27100
C 	C 	0.17339 0.90730 0.44429 -0.01900
C 	C 	0.19807 0.89941 0.43518 -0.05000
H 	H 	0.20800 0.88600 0.44510 0.06700
C 	C 	0.27747 0.87491 0.35153 -0.04300
H 	H 	0.26150 0.87920 0.34120 0.04700
C 	C 	0.30113 0.86359 0.34070 -0.06700
H 	H 	0.30240 0.85910 0.32170 0.04900
C 	C 	0.32690 0.86291 0.38760 -0.06700
H 	H 	0.34310 0.85840 0.39770 0.04700
C 	C 	0.30190 0.87484 0.39780 -0.04300
H 	H 	0.30030 0.87920 0.41680 0.04800
O 	O 	0.63383 0.40325 0.47304 -0.39900
O 	O 	0.66941 0.36868 0.47214 -0.36300
C 	C 	0.65494 0.39357 0.46534 0.27100
C 	C 	0.67339 0.40730 0.44429 -0.01900
C 	C 	0.69807 0.39941 0.43518 -0.05000
H 	H 	0.70800 0.38600 0.44510 0.06700
C 	C 	0.77747 0.37491 0.35153 -0.04300
H 	H 	0.76150 0.37920 0.34120 0.04700
C 	C 	0.80113 0.36359 0.34070 -0.06700
H 	H 	0.80240 0.35910 0.32170 0.04900
C 	C 	0.82690 0.36291 0.38760 -0.06700
H 	H 	0.84310 0.35840 0.39770 0.04600
C 	C 	0.80190 0.37484 0.39780 -0.04400
H 	H 	0.80030 0.37920 0.41680 0.04700
O 	O 	0.63383 0.90325 0.97304 -0.39900
O 	O 	0.66941 0.86868 0.97214 -0.36300
C 	C 	0.65494 0.89357 0.96534 0.27000
C 	C 	0.67339 0.90730 0.94429 -0.02000
C 	C 	0.69807 0.89941 0.93518 -0.05100
H 	H 	0.70800 0.88600 0.94510 0.06600
C 	C 	0.77747 0.87491 0.85153 -0.04400
H 	H 	0.76150 0.87920 0.84120 0.04600
C 	C 	0.80113 0.86359 0.84070 -0.06800
H 	H 	0.80240 0.85910 0.82170 0.04800
C 	C 	0.82690 0.86291 0.88760 -0.06800
H 	H 	0.84310 0.85840 0.89770 0.04600
C 	C 	0.80190 0.87484 0.89780 -0.04400
H 	H 	0.80030 0.87920 0.91680 0.04700
O 	O 	0.86617 0.59675 0.97304 -0.39900
O 	O 	0.83059 0.63132 0.97214 -0.36300
C 	C 	0.84506 0.60643 0.96534 0.27000
C 	C 	0.82661 0.59270 0.94429 -0.02000
C 	C 	0.80193 0.60059 0.93518 -0.05100
H 	H 	0.79200 0.61400 0.94510 0.06600
C 	C 	0.72253 0.62509 0.85153 -0.04400
H 	H 	0.73850 0.62080 0.84120 0.04600
C 	C 	0.69887 0.63641 0.84070 -0.06800
H 	H 	0.69760 0.64090 0.82170 0.04800
C 	C 	0.67310 0.63709 0.88760 -0.06800
H 	H 	0.65690 0.64160 0.89770 0.04600
C 	C 	0.69810 0.62516 0.89780 -0.04400
H 	H 	0.69970 0.62080 0.91680 0.04700
O 	O 	0.86617 0.09675 0.47304 -0.40000
O 	O 	0.83059 0.13132 0.47214 -0.36400
C 	C 	0.84506 0.10643 0.46534 0.27000
C 	C 	0.82661 0.09270 0.44429 -0.02000
C 	C 	0.80193 0.10059 0.43518 -0.05100
H 	H 	0.79200 0.11400 0.44510 0.06600
C 	C 	0.72253 0.12509 0.35153 -0.04400
H 	H 	0.73850 0.12080 0.34120 0.04600
C 	C 	0.69887 0.13641 0.34070 -0.06800
H 	H 	0.69760 0.14090 0.32170 0.04800
C 	C 	0.67310 0.13709 0.38760 -0.06800
H 	H 	0.65690 0.14160 0.39770 0.04600
C 	C 	0.69810 0.12516 0.39780 -0.04400
H 	H 	0.69970 0.12080 0.41680 0.04600
O 	O 	0.36617 0.59675 0.47304 -0.40000
O 	O 	0.33059 0.63132 0.47214 -0.36400
C 	C 	0.34506 0.60643 0.46534 0.27000
C 	C 	0.32661 0.59270 0.44429 -0.02000
C 	C 	0.30193 0.60059 0.43518 -0.05100
H 	H 	0.29200 0.61400 0.44510 0.06600
C 	C 	0.22253 0.62509 0.35153 -0.04400
H 	H 	0.23850 0.62080 0.34120 0.04600
C 	C 	0.19887 0.63641 0.34070 -0.06800
H 	H 	0.19760 0.64090 0.32170 0.04800
C 	C 	0.17310 0.63709 0.38760 -0.06800
H 	H 	0.15690 0.64160 0.39770 0.04600
C 	C 	0.19810 0.62516 0.39780 -0.04400
H 	H 	0.19970 0.62080 0.41680 0.04700
O 	O 	0.36617 0.09675 0.97304 -0.40000
O 	O 	0.33059 0.13132 0.97214 -0.36300
C 	C 	0.34506 0.10643 0.96534 0.27000
C 	C 	0.32661 0.09270 0.94429 -0.02000
C 	C 	0.30193 0.10059 0.93518 -0.05100
H 	H 	0.29200 0.11400 0.94510 0.06600
C 	C 	0.22253 0.12509 0.85153 -0.04400
H 	H 	0.23850 0.12080 0.84120 0.04600
C 	C 	0.19887 0.13641 0.84070 -0.06800
H 	H 	0.19760 0.14090 0.82170 0.04800
C 	C 	0.17310 0.13709 0.88760 -0.06800
H 	H 	0.15690 0.14160 0.89770 0.04600
C 	C 	0.19810 0.12516 0.89780 -0.04400
H 	H 	0.19970 0.12080 0.91680 0.04700
O 	O 	0.86617 0.40325 0.02696 -0.40100
O 	O 	0.83059 0.36868 0.02786 -0.36400
C 	C 	0.84506 0.39357 0.03466 0.27000
C 	C 	0.82661 0.40730 0.05571 -0.02100
C 	C 	0.80193 0.39941 0.06482 -0.05100
H 	H 	0.79200 0.38600 0.05490 0.06500
C 	C 	0.72253 0.37491 0.14847 -0.04400
H 	H 	0.73850 0.37920 0.15880 0.04600
C 	C 	0.69887 0.36359 0.15930 -0.06800
H 	H 	0.69760 0.35910 0.17830 0.04800
C 	C 	0.67310 0.36291 0.11240 -0.06800
H 	H 	0.65690 0.35840 0.10230 0.04600
C 	C 	0.69810 0.37484 0.10220 -0.04400
H 	H 	0.69970 0.37920 0.08320 0.04600
O 	O 	0.86617 0.90325 0.52696 -0.40000
O 	O 	0.83059 0.86868 0.52786 -0.36400
C 	C 	0.84506 0.89357 0.53466 0.27000
C 	C 	0.82661 0.90730 0.55571 -0.02000
C 	C 	0.80193 0.89941 0.56482 -0.05100
H 	H 	0.79200 0.88600 0.55490 0.06600
C 	C 	0.72253 0.87491 0.64847 -0.04400
H 	H 	0.73850 0.87920 0.65880 0.04600
C 	C 	0.69887 0.86359 0.65930 -0.06800
H 	H 	0.69760 0.85910 0.67830 0.04800
C 	C 	0.67310 0.86291 0.61240 -0.06800
H 	H 	0.65690 0.85840 0.60230 0.04600
C 	C 	0.69810 0.87484 0.60220 -0.04400
H 	H 	0.69970 0.87920 0.58320 0.04700
O 	O 	0.36617 0.40325 0.52696 -0.40000
O 	O 	0.33059 0.36868 0.52786 -0.36400
C 	C 	0.34506 0.39357 0.53466 0.27000
C 	C 	0.32661 0.40730 0.55571 -0.02000
C 	C 	0.30193 0.39941 0.56482 -0.05100
H 	H 	0.29200 0.38600 0.55490 0.06600
C 	C 	0.22253 0.37491 0.64847 -0.04400
H 	H 	0.23850 0.37920 0.65880 0.04600
C 	C 	0.19887 0.36359 0.65930 -0.06800
H 	H 	0.19760 0.35910 0.67830 0.04800
C 	C 	0.17310 0.36291 0.61240 -0.06800
H 	H 	0.15690 0.35840 0.60230 0.04600
C 	C 	0.19810 0.37484 0.60220 -0.04400
H 	H 	0.19970 0.37920 0.58320 0.04700
O 	O 	0.36617 0.90325 0.02696 -0.40100
O 	O 	0.33059 0.86868 0.02786 -0.36400
C 	C 	0.34506 0.89357 0.03466 0.27000
C 	C 	0.32661 0.90730 0.05571 -0.02000
C 	C 	0.30193 0.89941 0.06482 -0.05100
H 	H 	0.29200 0.88600 0.05490 0.06600
C 	C 	0.22253 0.87491 0.14847 -0.04400
H 	H 	0.23850 0.87920 0.15880 0.04600
C 	C 	0.19887 0.86359 0.15930 -0.06800
H 	H 	0.19760 0.85910 0.17830 0.04800
C 	C 	0.17310 0.86291 0.11240 -0.06800
H 	H 	0.15690 0.85840 0.10230 0.04600
C 	C 	0.19810 0.87484 0.10220 -0.04400
H 	H 	0.19970 0.87920 0.08320 0.04600
O 	O 	0.13383 0.59675 0.02696 -0.40100
O 	O 	0.16941 0.63132 0.02786 -0.36400
C 	C 	0.15494 0.60643 0.03466 0.27000
C 	C 	0.17339 0.59270 0.05571 -0.02100
C 	C 	0.19807 0.60059 0.06482 -0.05100
H 	H 	0.20800 0.61400 0.05490 0.06500
C 	C 	0.27747 0.62509 0.14847 -0.04400
H 	H 	0.26150 0.62080 0.15880 0.04600
C 	C 	0.30113 0.63641 0.15930 -0.06800
H 	H 	0.30240 0.64090 0.17830 0.04800
C 	C 	0.32690 0.63709 0.11240 -0.06800
H 	H 	0.34310 0.64160 0.10230 0.04600
C 	C 	0.30190 0.62516 0.10220 -0.04400
H 	H 	0.30030 0.62080 0.08320 0.04600
O 	O 	0.13383 0.09675 0.52696 -0.40000
O 	O 	0.16941 0.13132 0.52786 -0.36400
C 	C 	0.15494 0.10643 0.53466 0.27000
C 	C 	0.17339 0.09270 0.55571 -0.02000
C 	C 	0.19807 0.10059 0.56482 -0.05100
H 	H 	0.20800 0.11400 0.55490 0.06600
C 	C 	0.27747 0.12509 0.64847 -0.04400
H 	H 	0.26150 0.12080 0.65880 0.04600
C 	C 	0.30113 0.13641 0.65930 -0.06800
H 	H 	0.30240 0.14090 0.67830 0.04800
C 	C 	0.32690 0.13709 0.61240 -0.06800
H 	H 	0.34310 0.14160 0.60230 0.04600
C 	C 	0.30190 0.12516 0.60220 -0.04400
H 	H 	0.30030 0.12080 0.58320 0.04700
O 	O 	0.63383 0.59675 0.52696 -0.40000
O 	O 	0.66941 0.63132 0.52786 -0.36400
C 	C 	0.65494 0.60643 0.53466 0.27000
C 	C 	0.67339 0.59270 0.55571 -0.02000
C 	C 	0.69807 0.60059 0.56482 -0.05100
H 	H 	0.70800 0.61400 0.55490 0.06600
C 	C 	0.77747 0.62509 0.64847 -0.04400
H 	H 	0.76150 0.62080 0.65880 0.04600
C 	C 	0.80113 0.63641 0.65930 -0.06800
H 	H 	0.80240 0.64090 0.67830 0.04800
C 	C 	0.82690 0.63709 0.61240 -0.06800
H 	H 	0.84310 0.64160 0.60230 0.04600
C 	C 	0.80190 0.62516 0.60220 -0.04400
H 	H 	0.80030 0.62080 0.58320 0.04700
O 	O 	0.63383 0.09675 0.02696 -0.40100
O 	O 	0.66941 0.13132 0.02786 -0.36400
C 	C 	0.65494 0.10643 0.03466 0.27000
C 	C 	0.67339 0.09270 0.05571 -0.02100
C 	C 	0.69807 0.10059 0.06482 -0.05100
H 	H 	0.70800 0.11400 0.05490 0.06500
C 	C 	0.77747 0.12509 0.14847 -0.04400
H 	H 	0.76150 0.12080 0.15880 0.04600
C 	C 	0.80113 0.13641 0.15930 -0.06800
H 	H 	0.80240 0.14090 0.17830 0.04800
C 	C 	0.82690 0.13709 0.11240 -0.06800
H 	H 	0.84310 0.14160 0.10230 0.04600
C 	C 	0.80190 0.12516 0.10220 -0.04400
H 	H 	0.80030 0.12080 0.08320 0.04600
O 	O 	0.97304 0.13383 0.40325 -0.40000
O 	O 	0.97214 0.16941 0.36868 -0.36300
C 	C 	0.96534 0.15494 0.39357 0.27000
C 	C 	0.94429 0.17339 0.40730 -0.02000
C 	C 	0.93518 0.19807 0.39941 -0.05100
H 	H 	0.94510 0.20800 0.38600 0.06600
C 	C 	0.85153 0.27747 0.37491 -0.04400
H 	H 	0.84120 0.26150 0.37920 0.04600
C 	C 	0.84070 0.30113 0.36359 -0.06800
H 	H 	0.82170 0.30240 0.35910 0.04800
C 	C 	0.88760 0.32690 0.36291 -0.06800
H 	H 	0.89770 0.34310 0.35840 0.04600
C 	C 	0.89780 0.30190 0.37484 -0.04400
H 	H 	0.91680 0.30030 0.37920 0.04700
O 	O 	0.97304 0.63383 0.90325 -0.39900
O 	O 	0.97214 0.66941 0.86868 -0.36300
C 	C 	0.96534 0.65494 0.89357 0.27000
C 	C 	0.94429 0.67339 0.90730 -0.02000
C 	C 	0.93518 0.69807 0.89941 -0.05100
H 	H 	0.94510 0.70800 0.88600 0.06600
C 	C 	0.85153 0.77747 0.87491 -0.04400
H 	H 	0.84120 0.76150 0.87920 0.04600
C 	C 	0.84070 0.80113 0.86359 -0.06800
H 	H 	0.82170 0.80240 0.85910 0.04800
C 	C 	0.88760 0.82690 0.86291 -0.06800
H 	H 	0.89770 0.84310 0.85840 0.04600
C 	C 	0.89780 0.80190 0.87484 -0.04400
H 	H 	0.91680 0.80030 0.87920 0.04700
O 	O 	0.47304 0.13383 0.90325 -0.40000
O 	O 	0.47214 0.16941 0.86868 -0.36400
C 	C 	0.46534 0.15494 0.89357 0.27000
C 	C 	0.44429 0.17339 0.90730 -0.02000
C 	C 	0.43518 0.19807 0.89941 -0.05100
H 	H 	0.44510 0.20800 0.88600 0.06600
C 	C 	0.35153 0.27747 0.87491 -0.04400
H 	H 	0.34120 0.26150 0.87920 0.04600
C 	C 	0.34070 0.30113 0.86359 -0.06800
H 	H 	0.32170 0.30240 0.85910 0.04800
C 	C 	0.38760 0.32690 0.86291 -0.06800
H 	H 	0.39770 0.34310 0.85840 0.04600
C 	C 	0.39780 0.30190 0.87484 -0.04400
H 	H 	0.41680 0.30030 0.87920 0.04700
O 	O 	0.47304 0.63383 0.40325 -0.40000
O 	O 	0.47214 0.66941 0.36868 -0.36400
C 	C 	0.46534 0.65494 0.39357 0.27000
C 	C 	0.44429 0.67339 0.40730 -0.02000
C 	C 	0.43518 0.69807 0.39941 -0.05100
H 	H 	0.44510 0.70800 0.38600 0.06600
C 	C 	0.35153 0.77747 0.37491 -0.04400
H 	H 	0.34120 0.76150 0.37920 0.04600
C 	C 	0.34070 0.80113 0.36359 -0.06800
H 	H 	0.32170 0.80240 0.35910 0.04800
C 	C 	0.38760 0.82690 0.36291 -0.06800
H 	H 	0.39770 0.84310 0.35840 0.04600
C 	C 	0.39780 0.80190 0.37484 -0.04400
H 	H 	0.41680 0.80030 0.37920 0.04700
O 	O 	0.97304 0.86617 0.59675 -0.39900
O 	O 	0.97214 0.83059 0.63132 -0.36300
C 	C 	0.96534 0.84506 0.60643 0.27000
C 	C 	0.94429 0.82661 0.59270 -0.02000
C 	C 	0.93518 0.80193 0.60059 -0.05100
H 	H 	0.94510 0.79200 0.61400 0.06600
C 	C 	0.85153 0.72253 0.62509 -0.04400
H 	H 	0.84120 0.73850 0.62080 0.04600
C 	C 	0.84070 0.69887 0.63641 -0.06800
H 	H 	0.82170 0.69760 0.64090 0.04800
C 	C 	0.88760 0.67310 0.63709 -0.06800
H 	H 	0.89770 0.65690 0.64160 0.04600
C 	C 	0.89780 0.69810 0.62516 -0.04400
H 	H 	0.91680 0.69970 0.62080 0.04700
O 	O 	0.97304 0.36617 0.09675 -0.40000
O 	O 	0.97214 0.33059 0.13132 -0.36300
C 	C 	0.96534 0.34506 0.10643 0.27000
C 	C 	0.94429 0.32661 0.09270 -0.02000
C 	C 	0.93518 0.30193 0.10059 -0.05100
H 	H 	0.94510 0.29200 0.11400 0.06600
C 	C 	0.85153 0.22253 0.12509 -0.04400
H 	H 	0.84120 0.23850 0.12080 0.04600
C 	C 	0.84070 0.19887 0.13641 -0.06800
H 	H 	0.82170 0.19760 0.14090 0.04800
C 	C 	0.88760 0.17310 0.13709 -0.06800
H 	H 	0.89770 0.15690 0.14160 0.04600
C 	C 	0.89780 0.19810 0.12516 -0.04400
H 	H 	0.91680 0.19970 0.12080 0.04700
O 	O 	0.47304 0.86617 0.09675 -0.40000
O 	O 	0.47214 0.83059 0.13132 -0.36400
C 	C 	0.46534 0.84506 0.10643 0.27000
C 	C 	0.44429 0.82661 0.09270 -0.02000
C 	C 	0.43518 0.80193 0.10059 -0.05100
H 	H 	0.44510 0.79200 0.11400 0.06600
C 	C 	0.35153 0.72253 0.12509 -0.04400
H 	H 	0.34120 0.73850 0.12080 0.04600
C 	C 	0.34070 0.69887 0.13641 -0.06800
H 	H 	0.32170 0.69760 0.14090 0.04800
C 	C 	0.38760 0.67310 0.13709 -0.06800
H 	H 	0.39770 0.65690 0.14160 0.04600
C 	C 	0.39780 0.69810 0.12516 -0.04400
H 	H 	0.41680 0.69970 0.12080 0.04600
O 	O 	0.47304 0.36617 0.59675 -0.40000
O 	O 	0.47214 0.33059 0.63132 -0.36400
C 	C 	0.46534 0.34506 0.60643 0.27000
C 	C 	0.44429 0.32661 0.59270 -0.02000
C 	C 	0.43518 0.30193 0.60059 -0.05100
H 	H 	0.44510 0.29200 0.61400 0.06600
C 	C 	0.35153 0.22253 0.62509 -0.04400
H 	H 	0.34120 0.23850 0.62080 0.04600
C 	C 	0.34070 0.19887 0.63641 -0.06800
H 	H 	0.32170 0.19760 0.64090 0.04800
C 	C 	0.38760 0.17310 0.63709 -0.06800
H 	H 	0.39770 0.15690 0.64160 0.04600
C 	C 	0.39780 0.19810 0.62516 -0.04400
H 	H 	0.41680 0.19970 0.62080 0.04700
O 	O 	0.02696 0.86617 0.40325 -0.40100
O 	O 	0.02786 0.83059 0.36868 -0.36400
C 	C 	0.03466 0.84506 0.39357 0.27000
C 	C 	0.05571 0.82661 0.40730 -0.02100
C 	C 	0.06482 0.80193 0.39941 -0.05100
H 	H 	0.05490 0.79200 0.38600 0.06500
C 	C 	0.14847 0.72253 0.37491 -0.04400
H 	H 	0.15880 0.73850 0.37920 0.04600
C 	C 	0.15930 0.69887 0.36359 -0.06800
H 	H 	0.17830 0.69760 0.35910 0.04800
C 	C 	0.11240 0.67310 0.36291 -0.06800
H 	H 	0.10230 0.65690 0.35840 0.04600
C 	C 	0.10220 0.69810 0.37484 -0.04400
H 	H 	0.08320 0.69970 0.37920 0.04600
O 	O 	0.02696 0.36617 0.90325 -0.40100
O 	O 	0.02786 0.33059 0.86868 -0.36400
C 	C 	0.03466 0.34506 0.89357 0.27000
C 	C 	0.05571 0.32661 0.90730 -0.02000
C 	C 	0.06482 0.30193 0.89941 -0.05100
H 	H 	0.05490 0.29200 0.88600 0.06600
C 	C 	0.14847 0.22253 0.87491 -0.04400
H 	H 	0.15880 0.23850 0.87920 0.04600
C 	C 	0.15930 0.19887 0.86359 -0.06800
H 	H 	0.17830 0.19760 0.85910 0.04800
C 	C 	0.11240 0.17310 0.86291 -0.06800
H 	H 	0.10230 0.15690 0.85840 0.04600
C 	C 	0.10220 0.19810 0.87484 -0.04400
H 	H 	0.08320 0.19970 0.87920 0.04600
O 	O 	0.52696 0.86617 0.90325 -0.40000
O 	O 	0.52786 0.83059 0.86868 -0.36400
C 	C 	0.53466 0.84506 0.89357 0.27000
C 	C 	0.55571 0.82661 0.90730 -0.02000
C 	C 	0.56482 0.80193 0.89941 -0.05100
H 	H 	0.55490 0.79200 0.88600 0.06600
C 	C 	0.64847 0.72253 0.87491 -0.04400
H 	H 	0.65880 0.73850 0.87920 0.04600
C 	C 	0.65930 0.69887 0.86359 -0.06800
H 	H 	0.67830 0.69760 0.85910 0.04800
C 	C 	0.61240 0.67310 0.86291 -0.06800
H 	H 	0.60230 0.65690 0.85840 0.04600
C 	C 	0.60220 0.69810 0.87484 -0.04400
H 	H 	0.58320 0.69970 0.87920 0.04700
O 	O 	0.52696 0.36617 0.40325 -0.40000
O 	O 	0.52786 0.33059 0.36868 -0.36400
C 	C 	0.53466 0.34506 0.39357 0.27000
C 	C 	0.55571 0.32661 0.40730 -0.02000
C 	C 	0.56482 0.30193 0.39941 -0.05100
H 	H 	0.55490 0.29200 0.38600 0.06600
C 	C 	0.64847 0.22253 0.37491 -0.04400
H 	H 	0.65880 0.23850 0.37920 0.04600
C 	C 	0.65930 0.19887 0.36359 -0.06800
H 	H 	0.67830 0.19760 0.35910 0.04800
C 	C 	0.61240 0.17310 0.36291 -0.06800
H 	H 	0.60230 0.15690 0.35840 0.04600
C 	C 	0.60220 0.19810 0.37484 -0.04400
H 	H 	0.58320 0.19970 0.37920 0.04700
O 	O 	0.02696 0.13383 0.59675 -0.40100
O 	O 	0.02786 0.16941 0.63132 -0.36400
C 	C 	0.03466 0.15494 0.60643 0.27000
C 	C 	0.05571 0.17339 0.59270 -0.02100
C 	C 	0.06482 0.19807 0.60059 -0.05100
H 	H 	0.05490 0.20800 0.61400 0.06500
C 	C 	0.14847 0.27747 0.62509 -0.04400
H 	H 	0.15880 0.26150 0.62080 0.04600
C 	C 	0.15930 0.30113 0.63641 -0.06800
H 	H 	0.17830 0.30240 0.64090 0.04800
C 	C 	0.11240 0.32690 0.63709 -0.06800
H 	H 	0.10230 0.34310 0.64160 0.04600
C 	C 	0.10220 0.30190 0.62516 -0.04400
H 	H 	0.08320 0.30030 0.62080 0.04600
O 	O 	0.02696 0.63383 0.09675 -0.40100
O 	O 	0.02786 0.66941 0.13132 -0.36400
C 	C 	0.03466 0.65494 0.10643 0.27000
C 	C 	0.05571 0.67339 0.09270 -0.02100
C 	C 	0.06482 0.69807 0.10059 -0.05100
H 	H 	0.05490 0.70800 0.11400 0.06500
C 	C 	0.14847 0.77747 0.12509 -0.04400
H 	H 	0.15880 0.76150 0.12080 0.04600
C 	C 	0.15930 0.80113 0.13641 -0.06800
H 	H 	0.17830 0.80240 0.14090 0.04800
C 	C 	0.11240 0.82690 0.13709 -0.06800
H 	H 	0.10230 0.84310 0.14160 0.04600
C 	C 	0.10220 0.80190 0.12516 -0.04400
H 	H 	0.08320 0.80030 0.12080 0.04600
O 	O 	0.52696 0.13383 0.09675 -0.40000
O 	O 	0.52786 0.16941 0.13132 -0.36400
C 	C 	0.53466 0.15494 0.10643 0.27000
C 	C 	0.55571 0.17339 0.09270 -0.02000
C 	C 	0.56482 0.19807 0.10059 -0.05100
H 	H 	0.55490 0.20800 0.11400 0.06600
C 	C 	0.64847 0.27747 0.12509 -0.04400
H 	H 	0.65880 0.26150 0.12080 0.04600
C 	C 	0.65930 0.30113 0.13641 -0.06800
H 	H 	0.67830 0.30240 0.14090 0.04800
C 	C 	0.61240 0.32690 0.13709 -0.06800
H 	H 	0.60230 0.34310 0.14160 0.04600
C 	C 	0.60220 0.30190 0.12516 -0.04400
H 	H 	0.58320 0.30030 0.12080 0.04700
O 	O 	0.52696 0.63383 0.59675 -0.40000
O 	O 	0.52786 0.66941 0.63132 -0.36400
C 	C 	0.53466 0.65494 0.60643 0.27000
C 	C 	0.55571 0.67339 0.59270 -0.02000
C 	C 	0.56482 0.69807 0.60059 -0.05100
H 	H 	0.55490 0.70800 0.61400 0.06600
C 	C 	0.64847 0.77747 0.62509 -0.04400
H 	H 	0.65880 0.76150 0.62080 0.04600
C 	C 	0.65930 0.80113 0.63641 -0.06800
H 	H 	0.67830 0.80240 0.64090 0.04800
C 	C 	0.61240 0.82690 0.63709 -0.06800
H 	H 	0.60230 0.84310 0.64160 0.04600
C 	C 	0.60220 0.80190 0.62516 -0.04400
H 	H 	0.58320 0.80030 0.62080 0.04700
O 	O 	0.40325 0.97304 0.13383 -0.40000
O 	O 	0.36868 0.97214 0.16941 -0.36300
C 	C 	0.39357 0.96534 0.15494 0.27000
C 	C 	0.40730 0.94429 0.17339 -0.02000
C 	C 	0.39941 0.93518 0.19807 -0.05100
H 	H 	0.38600 0.94510 0.20800 0.06600
C 	C 	0.37491 0.85153 0.27747 -0.04400
H 	H 	0.37920 0.84120 0.26150 0.04600
C 	C 	0.36359 0.84070 0.30113 -0.06800
H 	H 	0.35910 0.82170 0.30240 0.04800
C 	C 	0.36291 0.88760 0.32690 -0.06800
H 	H 	0.35840 0.89770 0.34310 0.04600
C 	C 	0.37484 0.89780 0.30190 -0.04400
H 	H 	0.37920 0.91680 0.30030 0.04700
O 	O 	0.40325 0.47304 0.63383 -0.40000
O 	O 	0.36868 0.47214 0.66941 -0.36400
C 	C 	0.39357 0.46534 0.65494 0.27000
C 	C 	0.40730 0.44429 0.67339 -0.02000
C 	C 	0.39941 0.43518 0.69807 -0.05100
H 	H 	0.38600 0.44510 0.70800 0.06600
C 	C 	0.37491 0.35153 0.77747 -0.04400
H 	H 	0.37920 0.34120 0.76150 0.04600
C 	C 	0.36359 0.34070 0.80113 -0.06800
H 	H 	0.35910 0.32170 0.80240 0.04800
C 	C 	0.36291 0.38760 0.82690 -0.06800
H 	H 	0.35840 0.39770 0.84310 0.04600
C 	C 	0.37484 0.39780 0.80190 -0.04400
H 	H 	0.37920 0.41680 0.80030 0.04700
O 	O 	0.90325 0.97304 0.63383 -0.39900
O 	O 	0.86868 0.97214 0.66941 -0.36300
C 	C 	0.89357 0.96534 0.65494 0.27000
C 	C 	0.90730 0.94429 0.67339 -0.02000
C 	C 	0.89941 0.93518 0.69807 -0.05100
H 	H 	0.88600 0.94510 0.70800 0.06600
C 	C 	0.87491 0.85153 0.77747 -0.04400
H 	H 	0.87920 0.84120 0.76150 0.04600
C 	C 	0.86359 0.84070 0.80113 -0.06800
H 	H 	0.85910 0.82170 0.80240 0.04800
C 	C 	0.86291 0.88760 0.82690 -0.06800
H 	H 	0.85840 0.89770 0.84310 0.04600
C 	C 	0.87484 0.89780 0.80190 -0.04400
H 	H 	0.87920 0.91680 0.80030 0.04700
O 	O 	0.90325 0.47304 0.13383 -0.40000
O 	O 	0.86868 0.47214 0.16941 -0.36400
C 	C 	0.89357 0.46534 0.15494 0.27000
C 	C 	0.90730 0.44429 0.17339 -0.02000
C 	C 	0.89941 0.43518 0.19807 -0.05100
H 	H 	0.88600 0.44510 0.20800 0.06600
C 	C 	0.87491 0.35153 0.27747 -0.04400
H 	H 	0.87920 0.34120 0.26150 0.04600
C 	C 	0.86359 0.34070 0.30113 -0.06800
H 	H 	0.85910 0.32170 0.30240 0.04800
C 	C 	0.86291 0.38760 0.32690 -0.06800
H 	H 	0.85840 0.39770 0.34310 0.04600
C 	C 	0.87484 0.39780 0.30190 -0.04400
H 	H 	0.87920 0.41680 0.30030 0.04700
O 	O 	0.59675 0.97304 0.86617 -0.39900
O 	O 	0.63132 0.97214 0.83059 -0.36300
C 	C 	0.60643 0.96534 0.84506 0.27000
C 	C 	0.59270 0.94429 0.82661 -0.02000
C 	C 	0.60059 0.93518 0.80193 -0.05100
H 	H 	0.61400 0.94510 0.79200 0.06600
C 	C 	0.62509 0.85153 0.72253 -0.04400
H 	H 	0.62080 0.84120 0.73850 0.04600
C 	C 	0.63641 0.84070 0.69887 -0.06800
H 	H 	0.64090 0.82170 0.69760 0.04800
C 	C 	0.63709 0.88760 0.67310 -0.06800
H 	H 	0.64160 0.89770 0.65690 0.04600
C 	C 	0.62516 0.89780 0.69810 -0.04400
H 	H 	0.62080 0.91680 0.69970 0.04700
O 	O 	0.59675 0.47304 0.36617 -0.40000
O 	O 	0.63132 0.47214 0.33059 -0.36400
C 	C 	0.60643 0.46534 0.34506 0.27000
C 	C 	0.59270 0.44429 0.32661 -0.02000
C 	C 	0.60059 0.43518 0.30193 -0.05100
H 	H 	0.61400 0.44510 0.29200 0.06600
C 	C 	0.62509 0.35153 0.22253 -0.04400
H 	H 	0.62080 0.34120 0.23850 0.04600
C 	C 	0.63641 0.34070 0.19887 -0.06800
H 	H 	0.64090 0.32170 0.19760 0.04800
C 	C 	0.63709 0.38760 0.17310 -0.06800
H 	H 	0.64160 0.39770 0.15690 0.04600
C 	C 	0.62516 0.39780 0.19810 -0.04400
H 	H 	0.62080 0.41680 0.19970 0.04700
O 	O 	0.09675 0.97304 0.36617 -0.40000
O 	O 	0.13132 0.97214 0.33059 -0.36300
C 	C 	0.10643 0.96534 0.34506 0.27000
C 	C 	0.09270 0.94429 0.32661 -0.02000
C 	C 	0.10059 0.93518 0.30193 -0.05100
H 	H 	0.11400 0.94510 0.29200 0.06600
C 	C 	0.12509 0.85153 0.22253 -0.04400
H 	H 	0.12080 0.84120 0.23850 0.04600
C 	C 	0.13641 0.84070 0.19887 -0.06800
H 	H 	0.14090 0.82170 0.19760 0.04800
C 	C 	0.13709 0.88760 0.17310 -0.06800
H 	H 	0.14160 0.89770 0.15690 0.04600
C 	C 	0.12516 0.89780 0.19810 -0.04400
H 	H 	0.12080 0.91680 0.19970 0.04700
O 	O 	0.09675 0.47304 0.86617 -0.40000
O 	O 	0.13132 0.47214 0.83059 -0.36400
C 	C 	0.10643 0.46534 0.84506 0.27000
C 	C 	0.09270 0.44429 0.82661 -0.02000
C 	C 	0.10059 0.43518 0.80193 -0.05100
H 	H 	0.11400 0.44510 0.79200 0.06600
C 	C 	0.12509 0.35153 0.72253 -0.04400
H 	H 	0.12080 0.34120 0.73850 0.04600
C 	C 	0.13641 0.34070 0.69887 -0.06800
H 	H 	0.14090 0.32170 0.69760 0.04800
C 	C 	0.13709 0.38760 0.67310 -0.06800
H 	H 	0.14160 0.39770 0.65690 0.04600
C 	C 	0.12516 0.39780 0.69810 -0.04400
H 	H 	0.12080 0.41680 0.69970 0.04600
O 	O 	0.40325 0.02696 0.86617 -0.40100
O 	O 	0.36868 0.02786 0.83059 -0.36400
C 	C 	0.39357 0.03466 0.84506 0.27000
C 	C 	0.40730 0.05571 0.82661 -0.02100
C 	C 	0.39941 0.06482 0.80193 -0.05100
H 	H 	0.38600 0.05490 0.79200 0.06500
C 	C 	0.37491 0.14847 0.72253 -0.04400
H 	H 	0.37920 0.15880 0.73850 0.04600
C 	C 	0.36359 0.15930 0.69887 -0.06800
H 	H 	0.35910 0.17830 0.69760 0.04800
C 	C 	0.36291 0.11240 0.67310 -0.06800
H 	H 	0.35840 0.10230 0.65690 0.04600
C 	C 	0.37484 0.10220 0.69810 -0.04400
H 	H 	0.37920 0.08320 0.69970 0.04600
O 	O 	0.40325 0.52696 0.36617 -0.40000
O 	O 	0.36868 0.52786 0.33059 -0.36400
C 	C 	0.39357 0.53466 0.34506 0.27000
C 	C 	0.40730 0.55571 0.32661 -0.02000
C 	C 	0.39941 0.56482 0.30193 -0.05100
H 	H 	0.38600 0.55490 0.29200 0.06600
C 	C 	0.37491 0.64847 0.22253 -0.04400
H 	H 	0.37920 0.65880 0.23850 0.04600
C 	C 	0.36359 0.65930 0.19887 -0.06800
H 	H 	0.35910 0.67830 0.19760 0.04800
C 	C 	0.36291 0.61240 0.17310 -0.06800
H 	H 	0.35840 0.60230 0.15690 0.04600
C 	C 	0.37484 0.60220 0.19810 -0.04400
H 	H 	0.37920 0.58320 0.19970 0.04700
O 	O 	0.90325 0.02696 0.36617 -0.40100
O 	O 	0.86868 0.02786 0.33059 -0.36400
C 	C 	0.89357 0.03466 0.34506 0.27000
C 	C 	0.90730 0.05571 0.32661 -0.02000
C 	C 	0.89941 0.06482 0.30193 -0.05100
H 	H 	0.88600 0.05490 0.29200 0.06600
C 	C 	0.87491 0.14847 0.22253 -0.04400
H 	H 	0.87920 0.15880 0.23850 0.04600
C 	C 	0.86359 0.15930 0.19887 -0.06800
H 	H 	0.85910 0.17830 0.19760 0.04800
C 	C 	0.86291 0.11240 0.17310 -0.06800
H 	H 	0.85840 0.10230 0.15690 0.04600
C 	C 	0.87484 0.10220 0.19810 -0.04400
H 	H 	0.87920 0.08320 0.19970 0.04600
O 	O 	0.90325 0.52696 0.86617 -0.40000
O 	O 	0.86868 0.52786 0.83059 -0.36400
C 	C 	0.89357 0.53466 0.84506 0.27000
C 	C 	0.90730 0.55571 0.82661 -0.02000
C 	C 	0.89941 0.56482 0.80193 -0.05100
H 	H 	0.88600 0.55490 0.79200 0.06600
C 	C 	0.87491 0.64847 0.72253 -0.04400
H 	H 	0.87920 0.65880 0.73850 0.04600
C 	C 	0.86359 0.65930 0.69887 -0.06800
H 	H 	0.85910 0.67830 0.69760 0.04800
C 	C 	0.86291 0.61240 0.67310 -0.06800
H 	H 	0.85840 0.60230 0.65690 0.04600
C 	C 	0.87484 0.60220 0.69810 -0.04400
H 	H 	0.87920 0.58320 0.69970 0.04700
O 	O 	0.59675 0.02696 0.13383 -0.40100
O 	O 	0.63132 0.02786 0.16941 -0.36400
C 	C 	0.60643 0.03466 0.15494 0.27000
C 	C 	0.59270 0.05571 0.17339 -0.02100
C 	C 	0.60059 0.06482 0.19807 -0.05100
H 	H 	0.61400 0.05490 0.20800 0.06500
C 	C 	0.62509 0.14847 0.27747 -0.04400
H 	H 	0.62080 0.15880 0.26150 0.04600
C 	C 	0.63641 0.15930 0.30113 -0.06800
H 	H 	0.64090 0.17830 0.30240 0.04800
C 	C 	0.63709 0.11240 0.32690 -0.06800
H 	H 	0.64160 0.10230 0.34310 0.04600
C 	C 	0.62516 0.10220 0.30190 -0.04400
H 	H 	0.62080 0.08320 0.30030 0.04600
O 	O 	0.59675 0.52696 0.63383 -0.40000
O 	O 	0.63132 0.52786 0.66941 -0.36400
C 	C 	0.60643 0.53466 0.65494 0.27000
C 	C 	0.59270 0.55571 0.67339 -0.02000
C 	C 	0.60059 0.56482 0.69807 -0.05100
H 	H 	0.61400 0.55490 0.70800 0.06600
C 	C 	0.62509 0.64847 0.77747 -0.04400
H 	H 	0.62080 0.65880 0.76150 0.04600
C 	C 	0.63641 0.65930 0.80113 -0.06800
H 	H 	0.64090 0.67830 0.80240 0.04800
C 	C 	0.63709 0.61240 0.82690 -0.06800
H 	H 	0.64160 0.60230 0.84310 0.04600
C 	C 	0.62516 0.60220 0.80190 -0.04400
H 	H 	0.62080 0.58320 0.80030 0.04700
O 	O 	0.09675 0.02696 0.63383 -0.40100
O 	O 	0.13132 0.02786 0.66941 -0.36400
C 	C 	0.10643 0.03466 0.65494 0.27000
C 	C 	0.09270 0.05571 0.67339 -0.02100
C 	C 	0.10059 0.06482 0.69807 -0.05100
H 	H 	0.11400 0.05490 0.70800 0.06500
C 	C 	0.12509 0.14847 0.77747 -0.04400
H 	H 	0.12080 0.15880 0.76150 0.04600
C 	C 	0.13641 0.15930 0.80113 -0.06800
H 	H 	0.14090 0.17830 0.80240 0.04800
C 	C 	0.13709 0.11240 0.82690 -0.06800
H 	H 	0.14160 0.10230 0.84310 0.04600
C 	C 	0.12516 0.10220 0.80190 -0.04400
H 	H 	0.12080 0.08320 0.80030 0.04600
O 	O 	0.09675 0.52696 0.13383 -0.40000
O 	O 	0.13132 0.52786 0.16941 -0.36400
C 	C 	0.10643 0.53466 0.15494 0.27000
C 	C 	0.09270 0.55571 0.17339 -0.02000
C 	C 	0.10059 0.56482 0.19807 -0.05100
H 	H 	0.11400 0.55490 0.20800 0.06600
C 	C 	0.12509 0.64847 0.27747 -0.04400
H 	H 	0.12080 0.65880 0.26150 0.04600
C 	C 	0.13641 0.65930 0.30113 -0.06800
H 	H 	0.14090 0.67830 0.30240 0.04800
C 	C 	0.13709 0.61240 0.32690 -0.06800
H 	H 	0.14160 0.60230 0.34310 0.04600
C 	C 	0.12516 0.60220 0.30190 -0.04400
H 	H 	0.12080 0.58320 0.30030 0.04700
O 	O 	0.40325 0.13383 0.02696 -0.40100
O 	O 	0.36868 0.16941 0.02786 -0.36400
C 	C 	0.39357 0.15494 0.03466 0.27000
C 	C 	0.40730 0.17339 0.05571 -0.02100
C 	C 	0.39941 0.19807 0.06482 -0.05100
H 	H 	0.38600 0.20800 0.05490 0.06500
C 	C 	0.37491 0.27747 0.14847 -0.04400
H 	H 	0.37920 0.26150 0.15880 0.04600
C 	C 	0.36359 0.30113 0.15930 -0.06800
H 	H 	0.35910 0.30240 0.17830 0.04800
C 	C 	0.36291 0.32690 0.11240 -0.06800
H 	H 	0.35840 0.34310 0.10230 0.04600
C 	C 	0.37484 0.30190 0.10220 -0.04400
H 	H 	0.37920 0.30030 0.08320 0.04600
O 	O 	0.40325 0.63383 0.52696 -0.40000
O 	O 	0.36868 0.66941 0.52786 -0.36400
C 	C 	0.39357 0.65494 0.53466 0.27000
C 	C 	0.40730 0.67339 0.55571 -0.02000
C 	C 	0.39941 0.69807 0.56482 -0.05100
H 	H 	0.38600 0.70800 0.55490 0.06600
C 	C 	0.37491 0.77747 0.64847 -0.04400
H 	H 	0.37920 0.76150 0.65880 0.04600
C 	C 	0.36359 0.80113 0.65930 -0.06800
H 	H 	0.35910 0.80240 0.67830 0.04800
C 	C 	0.36291 0.82690 0.61240 -0.06800
H 	H 	0.35840 0.84310 0.60230 0.04600
C 	C 	0.37484 0.80190 0.60220 -0.04400
H 	H 	0.37920 0.80030 0.58320 0.04700
O 	O 	0.90325 0.13383 0.52696 -0.40000
O 	O 	0.86868 0.16941 0.52786 -0.36400
C 	C 	0.89357 0.15494 0.53466 0.27000
C 	C 	0.90730 0.17339 0.55571 -0.02000
C 	C 	0.89941 0.19807 0.56482 -0.05100
H 	H 	0.88600 0.20800 0.55490 0.06600
C 	C 	0.87491 0.27747 0.64847 -0.04400
H 	H 	0.87920 0.26150 0.65880 0.04600
C 	C 	0.86359 0.30113 0.65930 -0.06800
H 	H 	0.85910 0.30240 0.67830 0.04800
C 	C 	0.86291 0.32690 0.61240 -0.06800
H 	H 	0.85840 0.34310 0.60230 0.04600
C 	C 	0.87484 0.30190 0.60220 -0.04400
H 	H 	0.87920 0.30030 0.58320 0.04700
O 	O 	0.90325 0.63383 0.02696 -0.40100
O 	O 	0.86868 0.66941 0.02786 -0.36400
C 	C 	0.89357 0.65494 0.03466 0.27000
C 	C 	0.90730 0.67339 0.05571 -0.02000
C 	C 	0.89941 0.69807 0.06482 -0.05100
H 	H 	0.88600 0.70800 0.05490 0.06600
C 	C 	0.87491 0.77747 0.14847 -0.04400
H 	H 	0.87920 0.76150 0.15880 0.04600
C 	C 	0.86359 0.80113 0.15930 -0.06800
H 	H 	0.85910 0.80240 0.17830 0.04800
C 	C 	0.86291 0.82690 0.11240 -0.06800
H 	H 	0.85840 0.84310 0.10230 0.04600
C 	C 	0.87484 0.80190 0.10220 -0.04400
H 	H 	0.87920 0.80030 0.08320 0.04700
O 	O 	0.59675 0.86617 0.02696 -0.40100
O 	O 	0.63132 0.83059 0.02786 -0.36400
C 	C 	0.60643 0.84506 0.03466 0.27000
C 	C 	0.59270 0.82661 0.05571 -0.02100
C 	C 	0.60059 0.80193 0.06482 -0.05100
H 	H 	0.61400 0.79200 0.05490 0.06500
C 	C 	0.62509 0.72253 0.14847 -0.04400
H 	H 	0.62080 0.73850 0.15880 0.04600
C 	C 	0.63641 0.69887 0.15930 -0.06800
H 	H 	0.64090 0.69760 0.17830 0.04800
C 	C 	0.63709 0.67310 0.11240 -0.06800
H 	H 	0.64160 0.65690 0.10230 0.04600
C 	C 	0.62516 0.69810 0.10220 -0.04400
H 	H 	0.62080 0.69970 0.08320 0.04600
O 	O 	0.59675 0.36617 0.52696 -0.40000
O 	O 	0.63132 0.33059 0.52786 -0.36400
C 	C 	0.60643 0.34506 0.53466 0.27000
C 	C 	0.59270 0.32661 0.55571 -0.02000
C 	C 	0.60059 0.30193 0.56482 -0.05100
H 	H 	0.61400 0.29200 0.55490 0.06600
C 	C 	0.62509 0.22253 0.64847 -0.04400
H 	H 	0.62080 0.23850 0.65880 0.04600
C 	C 	0.63641 0.19887 0.65930 -0.06800
H 	H 	0.64090 0.19760 0.67830 0.04800
C 	C 	0.63709 0.17310 0.61240 -0.06800
H 	H 	0.64160 0.15690 0.60230 0.04600
C 	C 	0.62516 0.19810 0.60220 -0.04400
H 	H 	0.62080 0.19970 0.58320 0.04700
O 	O 	0.09675 0.86617 0.52696 -0.40000
O 	O 	0.13132 0.83059 0.52786 -0.36400
C 	C 	0.10643 0.84506 0.53466 0.27000
C 	C 	0.09270 0.82661 0.55571 -0.02000
C 	C 	0.10059 0.80193 0.56482 -0.05100
H 	H 	0.11400 0.79200 0.55490 0.06600
C 	C 	0.12509 0.72253 0.64847 -0.04400
H 	H 	0.12080 0.73850 0.65880 0.04600
C 	C 	0.13641 0.69887 0.65930 -0.06800
H 	H 	0.14090 0.69760 0.67830 0.04800
C 	C 	0.13709 0.67310 0.61240 -0.06800
H 	H 	0.14160 0.65690 0.60230 0.04600
C 	C 	0.12516 0.69810 0.60220 -0.04400
H 	H 	0.12080 0.69970 0.58320 0.04600
O 	O 	0.09675 0.36617 0.02696 -0.40100
O 	O 	0.13132 0.33059 0.02786 -0.36400
C 	C 	0.10643 0.34506 0.03466 0.27000
C 	C 	0.09270 0.32661 0.05571 -0.02100
C 	C 	0.10059 0.30193 0.06482 -0.05100
H 	H 	0.11400 0.29200 0.05490 0.06500
C 	C 	0.12509 0.22253 0.14847 -0.04400
H 	H 	0.12080 0.23850 0.15880 0.04600
C 	C 	0.13641 0.19887 0.15930 -0.06800
H 	H 	0.14090 0.19760 0.17830 0.04800
C 	C 	0.13709 0.17310 0.11240 -0.06800
H 	H 	0.14160 0.15690 0.10230 0.04600
C 	C 	0.12516 0.19810 0.10220 -0.04400
H 	H 	0.12080 0.19970 0.08320 0.04600
O 	O 	0.40325 0.86617 0.97304 -0.39900
O 	O 	0.36868 0.83059 0.97214 -0.36300
C 	C 	0.39357 0.84506 0.96534 0.27000
C 	C 	0.40730 0.82661 0.94429 -0.02000
C 	C 	0.39941 0.80193 0.93518 -0.05100
H 	H 	0.38600 0.79200 0.94510 0.06600
C 	C 	0.37491 0.72253 0.85153 -0.04400
H 	H 	0.37920 0.73850 0.84120 0.04600
C 	C 	0.36359 0.69887 0.84070 -0.06800
H 	H 	0.35910 0.69760 0.82170 0.04800
C 	C 	0.36291 0.67310 0.88760 -0.06800
H 	H 	0.35840 0.65690 0.89770 0.04600
C 	C 	0.37484 0.69810 0.89780 -0.04400
H 	H 	0.37920 0.69970 0.91680 0.04700
O 	O 	0.40325 0.36617 0.47304 -0.40000
O 	O 	0.36868 0.33059 0.47214 -0.36400
C 	C 	0.39357 0.34506 0.46534 0.27000
C 	C 	0.40730 0.32661 0.44429 -0.02000
C 	C 	0.39941 0.30193 0.43518 -0.05100
H 	H 	0.38600 0.29200 0.44510 0.06600
C 	C 	0.37491 0.22253 0.35153 -0.04400
H 	H 	0.37920 0.23850 0.34120 0.04600
C 	C 	0.36359 0.19887 0.34070 -0.06800
H 	H 	0.35910 0.19760 0.32170 0.04800
C 	C 	0.36291 0.17310 0.38760 -0.06800
H 	H 	0.35840 0.15690 0.39770 0.04600
C 	C 	0.37484 0.19810 0.39780 -0.04400
H 	H 	0.37920 0.19970 0.41680 0.04700
O 	O 	0.90325 0.86617 0.47304 -0.40000
O 	O 	0.86868 0.83059 0.47214 -0.36400
C 	C 	0.89357 0.84506 0.46534 0.27000
C 	C 	0.90730 0.82661 0.44429 -0.02000
C 	C 	0.89941 0.80193 0.43518 -0.05100
H 	H 	0.88600 0.79200 0.44510 0.06600
C 	C 	0.87491 0.72253 0.35153 -0.04400
H 	H 	0.87920 0.73850 0.34120 0.04600
C 	C 	0.86359 0.69887 0.34070 -0.06800
H 	H 	0.85910 0.69760 0.32170 0.04800
C 	C 	0.86291 0.67310 0.38760 -0.06800
H 	H 	0.85840 0.65690 0.39770 0.04600
C 	C 	0.87484 0.69810 0.39780 -0.04400
H 	H 	0.87920 0.69970 0.41680 0.04700
O 	O 	0.90325 0.36617 0.97304 -0.39900
O 	O 	0.86868 0.33059 0.97214 -0.36300
C 	C 	0.89357 0.34506 0.96534 0.27000
C 	C 	0.90730 0.32661 0.94429 -0.02000
C 	C 	0.89941 0.30193 0.93518 -0.05100
H 	H 	0.88600 0.29200 0.94510 0.06600
C 	C 	0.87491 0.22253 0.85153 -0.04400
H 	H 	0.87920 0.23850 0.84120 0.04600
C 	C 	0.86359 0.19887 0.84070 -0.06800
H 	H 	0.85910 0.19760 0.82170 0.04800
C 	C 	0.86291 0.17310 0.88760 -0.06800
H 	H 	0.85840 0.15690 0.89770 0.04600
C 	C 	0.87484 0.19810 0.89780 -0.04400
H 	H 	0.87920 0.19970 0.91680 0.04700
O 	O 	0.59675 0.13383 0.97304 -0.40000
O 	O 	0.63132 0.16941 0.97214 -0.36300
C 	C 	0.60643 0.15494 0.96534 0.27000
C 	C 	0.59270 0.17339 0.94429 -0.02000
C 	C 	0.60059 0.19807 0.93518 -0.05100
H 	H 	0.61400 0.20800 0.94510 0.06600
C 	C 	0.62509 0.27747 0.85153 -0.04400
H 	H 	0.62080 0.26150 0.84120 0.04600
C 	C 	0.63641 0.30113 0.84070 -0.06800
H 	H 	0.64090 0.30240 0.82170 0.04800
C 	C 	0.63709 0.32690 0.88760 -0.06800
H 	H 	0.64160 0.34310 0.89770 0.04600
C 	C 	0.62516 0.30190 0.89780 -0.04400
H 	H 	0.62080 0.30030 0.91680 0.04700
O 	O 	0.59675 0.63383 0.47304 -0.40000
O 	O 	0.63132 0.66941 0.47214 -0.36400
C 	C 	0.60643 0.65494 0.46534 0.27000
C 	C 	0.59270 0.67339 0.44429 -0.02000
C 	C 	0.60059 0.69807 0.43518 -0.05100
H 	H 	0.61400 0.70800 0.44510 0.06600
C 	C 	0.62509 0.77747 0.35153 -0.04400
H 	H 	0.62080 0.76150 0.34120 0.04600
C 	C 	0.63641 0.80113 0.34070 -0.06800
H 	H 	0.64090 0.80240 0.32170 0.04800
C 	C 	0.63709 0.82690 0.38760 -0.06800
H 	H 	0.64160 0.84310 0.39770 0.04600
C 	C 	0.62516 0.80190 0.39780 -0.04400
H 	H 	0.62080 0.80030 0.41680 0.04700
O 	O 	0.09675 0.13383 0.47304 -0.40000
O 	O 	0.13132 0.16941 0.47214 -0.36400
C 	C 	0.10643 0.15494 0.46534 0.27000
C 	C 	0.09270 0.17339 0.44429 -0.02000
C 	C 	0.10059 0.19807 0.43518 -0.05100
H 	H 	0.11400 0.20800 0.44510 0.06600
C 	C 	0.12509 0.27747 0.35153 -0.04400
H 	H 	0.12080 0.26150 0.34120 0.04600
C 	C 	0.13641 0.30113 0.34070 -0.06800
H 	H 	0.14090 0.30240 0.32170 0.04800
C 	C 	0.13709 0.32690 0.38760 -0.06800
H 	H 	0.14160 0.34310 0.39770 0.04600
C 	C 	0.12516 0.30190 0.39780 -0.04400
H 	H 	0.12080 0.30030 0.41680 0.04700
O 	O 	0.09675 0.63383 0.97304 -0.40000
O 	O 	0.13132 0.66941 0.97214 -0.36300
C 	C 	0.10643 0.65494 0.96534 0.27000
C 	C 	0.09270 0.67339 0.94429 -0.02000
C 	C 	0.10059 0.69807 0.93518 -0.05100
H 	H 	0.11400 0.70800 0.94510 0.06600
C 	C 	0.12509 0.77747 0.85153 -0.04400
H 	H 	0.12080 0.76150 0.84120 0.04600
C 	C 	0.13641 0.80113 0.84070 -0.06800
H 	H 	0.14090 0.80240 0.82170 0.04800
C 	C 	0.13709 0.82690 0.88760 -0.06800
H 	H 	0.14160 0.84310 0.89770 0.04600
C 	C 	0.12516 0.80190 0.89780 -0.04400
H 	H 	0.12080 0.80030 0.91680 0.04700
O 	O 	0.13383 0.97304 0.59675 -0.40000
O 	O 	0.16941 0.97214 0.63132 -0.36300
C 	C 	0.15494 0.96534 0.60643 0.27000
C 	C 	0.17339 0.94429 0.59270 -0.02000
C 	C 	0.19807 0.93518 0.60059 -0.05100
H 	H 	0.20800 0.94510 0.61400 0.06600
C 	C 	0.27747 0.85153 0.62509 -0.04400
H 	H 	0.26150 0.84120 0.62080 0.04600
C 	C 	0.30113 0.84070 0.63641 -0.06800
H 	H 	0.30240 0.82170 0.64090 0.04800
C 	C 	0.32690 0.88760 0.63709 -0.06800
H 	H 	0.34310 0.89770 0.64160 0.04600
C 	C 	0.30190 0.89780 0.62516 -0.04400
H 	H 	0.30030 0.91680 0.62080 0.04700
O 	O 	0.13383 0.47304 0.09675 -0.40000
O 	O 	0.16941 0.47214 0.13132 -0.36400
C 	C 	0.15494 0.46534 0.10643 0.27000
C 	C 	0.17339 0.44429 0.09270 -0.02000
C 	C 	0.19807 0.43518 0.10059 -0.05100
H 	H 	0.20800 0.44510 0.11400 0.06600
C 	C 	0.27747 0.35153 0.12509 -0.04400
H 	H 	0.26150 0.34120 0.12080 0.04600
C 	C 	0.30113 0.34070 0.13641 -0.06800
H 	H 	0.30240 0.32170 0.14090 0.04800
C 	C 	0.32690 0.38760 0.13709 -0.06800
H 	H 	0.34310 0.39770 0.14160 0.04600
C 	C 	0.30190 0.39780 0.12516 -0.04400
H 	H 	0.30030 0.41680 0.12080 0.04700
O 	O 	0.63383 0.97304 0.09675 -0.40000
O 	O 	0.66941 0.97214 0.13132 -0.36300
C 	C 	0.65494 0.96534 0.10643 0.27000
C 	C 	0.67339 0.94429 0.09270 -0.02000
C 	C 	0.69807 0.93518 0.10059 -0.05100
H 	H 	0.70800 0.94510 0.11400 0.06600
C 	C 	0.77747 0.85153 0.12509 -0.04400
H 	H 	0.76150 0.84120 0.12080 0.04600
C 	C 	0.80113 0.84070 0.13641 -0.06800
H 	H 	0.80240 0.82170 0.14090 0.04800
C 	C 	0.82690 0.88760 0.13709 -0.06800
H 	H 	0.84310 0.89770 0.14160 0.04600
C 	C 	0.80190 0.89780 0.12516 -0.04400
H 	H 	0.80030 0.91680 0.12080 0.04700
O 	O 	0.63383 0.47304 0.59675 -0.40000
O 	O 	0.66941 0.47214 0.63132 -0.36400
C 	C 	0.65494 0.46534 0.60643 0.27000
C 	C 	0.67339 0.44429 0.59270 -0.02000
C 	C 	0.69807 0.43518 0.60059 -0.05100
H 	H 	0.70800 0.44510 0.61400 0.06600
C 	C 	0.77747 0.35153 0.62509 -0.04400
H 	H 	0.76150 0.34120 0.62080 0.04600
C 	C 	0.80113 0.34070 0.63641 -0.06800
H 	H 	0.80240 0.32170 0.64090 0.04800
C 	C 	0.82690 0.38760 0.63709 -0.06800
H 	H 	0.84310 0.39770 0.64160 0.04600
C 	C 	0.80190 0.39780 0.62516 -0.04400
H 	H 	0.80030 0.41680 0.62080 0.04700
O 	O 	0.86617 0.97304 0.40325 -0.39900
O 	O 	0.83059 0.97214 0.36868 -0.36300
C 	C 	0.84506 0.96534 0.39357 0.27000
C 	C 	0.82661 0.94429 0.40730 -0.02000
C 	C 	0.80193 0.93518 0.39941 -0.05100
H 	H 	0.79200 0.94510 0.38600 0.06600
C 	C 	0.72253 0.85153 0.37491 -0.04400
H 	H 	0.73850 0.84120 0.37920 0.04600
C 	C 	0.69887 0.84070 0.36359 -0.06800
H 	H 	0.69760 0.82170 0.35910 0.04800
C 	C 	0.67310 0.88760 0.36291 -0.06800
H 	H 	0.65690 0.89770 0.35840 0.04600
C 	C 	0.69810 0.89780 0.37484 -0.04400
H 	H 	0.69970 0.91680 0.37920 0.04700
O 	O 	0.86617 0.47304 0.90325 -0.40000
O 	O 	0.83059 0.47214 0.86868 -0.36400
C 	C 	0.84506 0.46534 0.89357 0.27000
C 	C 	0.82661 0.44429 0.90730 -0.02000
C 	C 	0.80193 0.43518 0.89941 -0.05100
H 	H 	0.79200 0.44510 0.88600 0.06600
C 	C 	0.72253 0.35153 0.87491 -0.04400
H 	H 	0.73850 0.34120 0.87920 0.04600
C 	C 	0.69887 0.34070 0.86359 -0.06800
H 	H 	0.69760 0.32170 0.85910 0.04800
C 	C 	0.67310 0.38760 0.86291 -0.06800
H 	H 	0.65690 0.39770 0.85840 0.04600
C 	C 	0.69810 0.39780 0.87484 -0.04400
H 	H 	0.69970 0.41680 0.87920 0.04700
O 	O 	0.36617 0.97304 0.90325 -0.39900
O 	O 	0.33059 0.97214 0.86868 -0.36300
C 	C 	0.34506 0.96534 0.89357 0.27000
C 	C 	0.32661 0.94429 0.90730 -0.02000
C 	C 	0.30193 0.93518 0.89941 -0.05100
H 	H 	0.29200 0.94510 0.88600 0.06600
C 	C 	0.22253 0.85153 0.87491 -0.04400
H 	H 	0.23850 0.84120 0.87920 0.04600
C 	C 	0.19887 0.84070 0.86359 -0.06800
H 	H 	0.19760 0.82170 0.85910 0.04800
C 	C 	0.17310 0.88760 0.86291 -0.06800
H 	H 	0.15690 0.89770 0.85840 0.04600
C 	C 	0.19810 0.89780 0.87484 -0.04400
H 	H 	0.19970 0.91680 0.87920 0.04700
O 	O 	0.36617 0.47304 0.40325 -0.40000
O 	O 	0.33059 0.47214 0.36868 -0.36400
C 	C 	0.34506 0.46534 0.39357 0.27000
C 	C 	0.32661 0.44429 0.40730 -0.02000
C 	C 	0.30193 0.43518 0.39941 -0.05100
H 	H 	0.29200 0.44510 0.38600 0.06600
C 	C 	0.22253 0.35153 0.37491 -0.04400
H 	H 	0.23850 0.34120 0.37920 0.04600
C 	C 	0.19887 0.34070 0.36359 -0.06800
H 	H 	0.19760 0.32170 0.35910 0.04800
C 	C 	0.17310 0.38760 0.36291 -0.06800
H 	H 	0.15690 0.39770 0.35840 0.04600
C 	C 	0.19810 0.39780 0.37484 -0.04400
H 	H 	0.19970 0.41680 0.37920 0.04700
O 	O 	0.86617 0.02696 0.59675 -0.40100
O 	O 	0.83059 0.02786 0.63132 -0.36400
C 	C 	0.84506 0.03466 0.60643 0.27000
C 	C 	0.82661 0.05571 0.59270 -0.02100
C 	C 	0.80193 0.06482 0.60059 -0.05100
H 	H 	0.79200 0.05490 0.61400 0.06500
C 	C 	0.72253 0.14847 0.62509 -0.04400
H 	H 	0.73850 0.15880 0.62080 0.04600
C 	C 	0.69887 0.15930 0.63641 -0.06800
H 	H 	0.69760 0.17830 0.64090 0.04800
C 	C 	0.67310 0.11240 0.63709 -0.06800
H 	H 	0.65690 0.10230 0.64160 0.04600
C 	C 	0.69810 0.10220 0.62516 -0.04400
H 	H 	0.69970 0.08320 0.62080 0.04600
O 	O 	0.86617 0.52696 0.09675 -0.40000
O 	O 	0.83059 0.52786 0.13132 -0.36400
C 	C 	0.84506 0.53466 0.10643 0.27000
C 	C 	0.82661 0.55571 0.09270 -0.02000
C 	C 	0.80193 0.56482 0.10059 -0.05100
H 	H 	0.79200 0.55490 0.11400 0.06600
C 	C 	0.72253 0.64847 0.12509 -0.04400
H 	H 	0.73850 0.65880 0.12080 0.04600
C 	C 	0.69887 0.65930 0.13641 -0.06800
H 	H 	0.69760 0.67830 0.14090 0.04800
C 	C 	0.67310 0.61240 0.13709 -0.06800
H 	H 	0.65690 0.60230 0.14160 0.04600
C 	C 	0.69810 0.60220 0.12516 -0.04400
H 	H 	0.69970 0.58320 0.12080 0.04600
O 	O 	0.36617 0.02696 0.09675 -0.40100
O 	O 	0.33059 0.02786 0.13132 -0.36400
C 	C 	0.34506 0.03466 0.10643 0.27000
C 	C 	0.32661 0.05571 0.09270 -0.02100
C 	C 	0.30193 0.06482 0.10059 -0.05100
H 	H 	0.29200 0.05490 0.11400 0.06500
C 	C 	0.22253 0.14847 0.12509 -0.04400
H 	H 	0.23850 0.15880 0.12080 0.04600
C 	C 	0.19887 0.15930 0.13641 -0.06800
H 	H 	0.19760 0.17830 0.14090 0.04800
C 	C 	0.17310 0.11240 0.13709 -0.06800
H 	H 	0.15690 0.10230 0.14160 0.04600
C 	C 	0.19810 0.10220 0.12516 -0.04400
H 	H 	0.19970 0.08320 0.12080 0.04600
O 	O 	0.36617 0.52696 0.59675 -0.40000
O 	O 	0.33059 0.52786 0.63132 -0.36400
C 	C 	0.34506 0.53466 0.60643 0.27000
C 	C 	0.32661 0.55571 0.59270 -0.02000
C 	C 	0.30193 0.56482 0.60059 -0.05100
H 	H 	0.29200 0.55490 0.61400 0.06600
C 	C 	0.22253 0.64847 0.62509 -0.04400
H 	H 	0.23850 0.65880 0.62080 0.04600
C 	C 	0.19887 0.65930 0.63641 -0.06800
H 	H 	0.19760 0.67830 0.64090 0.04800
C 	C 	0.17310 0.61240 0.63709 -0.06800
H 	H 	0.15690 0.60230 0.64160 0.04600
C 	C 	0.19810 0.60220 0.62516 -0.04400
H 	H 	0.19970 0.58320 0.62080 0.04700
O 	O 	0.13383 0.02696 0.40325 -0.40100
O 	O 	0.16941 0.02786 0.36868 -0.36400
C 	C 	0.15494 0.03466 0.39357 0.27000
C 	C 	0.17339 0.05571 0.40730 -0.02100
C 	C 	0.19807 0.06482 0.39941 -0.05100
H 	H 	0.20800 0.05490 0.38600 0.06500
C 	C 	0.27747 0.14847 0.37491 -0.04400
H 	H 	0.26150 0.15880 0.37920 0.04600
C 	C 	0.30113 0.15930 0.36359 -0.06800
H 	H 	0.30240 0.17830 0.35910 0.04800
C 	C 	0.32690 0.11240 0.36291 -0.06800
H 	H 	0.34310 0.10230 0.35840 0.04600
C 	C 	0.30190 0.10220 0.37484 -0.04400
H 	H 	0.30030 0.08320 0.37920 0.04600
O 	O 	0.13383 0.52696 0.90325 -0.40000
O 	O 	0.16941 0.52786 0.86868 -0.36400
C 	C 	0.15494 0.53466 0.89357 0.27000
C 	C 	0.17339 0.55571 0.90730 -0.02000
C 	C 	0.19807 0.56482 0.89941 -0.05100
H 	H 	0.20800 0.55490 0.88600 0.06600
C 	C 	0.27747 0.64847 0.87491 -0.04400
H 	H 	0.26150 0.65880 0.87920 0.04600
C 	C 	0.30113 0.65930 0.86359 -0.06800
H 	H 	0.30240 0.67830 0.85910 0.04800
C 	C 	0.32690 0.61240 0.86291 -0.06800
H 	H 	0.34310 0.60230 0.85840 0.04600
C 	C 	0.30190 0.60220 0.87484 -0.04400
H 	H 	0.30030 0.58320 0.87920 0.04700
O 	O 	0.63383 0.02696 0.90325 -0.40100
O 	O 	0.66941 0.02786 0.86868 -0.36400
C 	C 	0.65494 0.03466 0.89357 0.27000
C 	C 	0.67339 0.05571 0.90730 -0.02000
C 	C 	0.69807 0.06482 0.89941 -0.05100
H 	H 	0.70800 0.05490 0.88600 0.06600
C 	C 	0.77747 0.14847 0.87491 -0.04400
H 	H 	0.76150 0.15880 0.87920 0.04600
C 	C 	0.80113 0.15930 0.86359 -0.06800
H 	H 	0.80240 0.17830 0.85910 0.04800
C 	C 	0.82690 0.11240 0.86291 -0.06800
H 	H 	0.84310 0.10230 0.85840 0.04600
C 	C 	0.80190 0.10220 0.87484 -0.04400
H 	H 	0.80030 0.08320 0.87920 0.04700
O 	O 	0.63383 0.52696 0.40325 -0.40000
O 	O 	0.66941 0.52786 0.36868 -0.36400
C 	C 	0.65494 0.53466 0.39357 0.27000
C 	C 	0.67339 0.55571 0.40730 -0.02000
C 	C 	0.69807 0.56482 0.39941 -0.05100
H 	H 	0.70800 0.55490 0.38600 0.06600
C 	C 	0.77747 0.64847 0.37491 -0.04400
H 	H 	0.76150 0.65880 0.37920 0.04600
C 	C 	0.80113 0.65930 0.36359 -0.06800
H 	H 	0.80240 0.67830 0.35910 0.04800
C 	C 	0.82690 0.61240 0.36291 -0.06800
H 	H 	0.84310 0.60230 0.35840 0.04600
C 	C 	0.80190 0.60220 0.37484 -0.04400
H 	H 	0.80030 0.58320 0.37920 0.04700
O 	O 	0.97304 0.40325 0.86617 -0.39900
O 	O 	0.97214 0.36868 0.83059 -0.36300
C 	C 	0.96534 0.39357 0.84506 0.27000
C 	C 	0.94429 0.40730 0.82661 -0.02000
C 	C 	0.93518 0.39941 0.80193 -0.05100
H 	H 	0.94510 0.38600 0.79200 0.06600
C 	C 	0.85153 0.37491 0.72253 -0.04400
H 	H 	0.84120 0.37920 0.73850 0.04600
C 	C 	0.84070 0.36359 0.69887 -0.06800
H 	H 	0.82170 0.35910 0.69760 0.04800
C 	C 	0.88760 0.36291 0.67310 -0.06800
H 	H 	0.89770 0.35840 0.65690 0.04600
C 	C 	0.89780 0.37484 0.69810 -0.04400
H 	H 	0.91680 0.37920 0.69970 0.04700
O 	O 	0.97304 0.90325 0.36617 -0.39900
O 	O 	0.97214 0.86868 0.33059 -0.36300
C 	C 	0.96534 0.89357 0.34506 0.27000
C 	C 	0.94429 0.90730 0.32661 -0.02000
C 	C 	0.93518 0.89941 0.30193 -0.05100
H 	H 	0.94510 0.88600 0.29200 0.06600
C 	C 	0.85153 0.87491 0.22253 -0.04400
H 	H 	0.84120 0.87920 0.23850 0.04600
C 	C 	0.84070 0.86359 0.19887 -0.06800
H 	H 	0.82170 0.85910 0.19760 0.04800
C 	C 	0.88760 0.86291 0.17310 -0.06800
H 	H 	0.89770 0.85840 0.15690 0.04600
C 	C 	0.89780 0.87484 0.19810 -0.04400
H 	H 	0.91680 0.87920 0.19970 0.04700
O 	O 	0.47304 0.40325 0.36617 -0.40000
O 	O 	0.47214 0.36868 0.33059 -0.36400
C 	C 	0.46534 0.39357 0.34506 0.27000
C 	C 	0.44429 0.40730 0.32661 -0.02000
C 	C 	0.43518 0.39941 0.30193 -0.05100
H 	H 	0.44510 0.38600 0.29200 0.06600
C 	C 	0.35153 0.37491 0.22253 -0.04400
H 	H 	0.34120 0.37920 0.23850 0.04600
C 	C 	0.34070 0.36359 0.19887 -0.06800
H 	H 	0.32170 0.35910 0.19760 0.04800
C 	C 	0.38760 0.36291 0.17310 -0.06800
H 	H 	0.39770 0.35840 0.15690 0.04600
C 	C 	0.39780 0.37484 0.19810 -0.04400
H 	H 	0.41680 0.37920 0.19970 0.04700
O 	O 	0.47304 0.90325 0.86617 -0.40000
O 	O 	0.47214 0.86868 0.83059 -0.36400
C 	C 	0.46534 0.89357 0.84506 0.27000
C 	C 	0.44429 0.90730 0.82661 -0.02000
C 	C 	0.43518 0.89941 0.80193 -0.05100
H 	H 	0.44510 0.88600 0.79200 0.06600
C 	C 	0.35153 0.87491 0.72253 -0.04400
H 	H 	0.34120 0.87920 0.73850 0.04600
C 	C 	0.34070 0.86359 0.69887 -0.06800
H 	H 	0.32170 0.85910 0.69760 0.04800
C 	C 	0.38760 0.86291 0.67310 -0.06800
H 	H 	0.39770 0.85840 0.65690 0.04600
C 	C 	0.39780 0.87484 0.69810 -0.04400
H 	H 	0.41680 0.87920 0.69970 0.04700
O 	O 	0.97304 0.59675 0.13383 -0.40000
O 	O 	0.97214 0.63132 0.16941 -0.36300
C 	C 	0.96534 0.60643 0.15494 0.27000
C 	C 	0.94429 0.59270 0.17339 -0.02000
C 	C 	0.93518 0.60059 0.19807 -0.05100
H 	H 	0.94510 0.61400 0.20800 0.06600
C 	C 	0.85153 0.62509 0.27747 -0.04400
H 	H 	0.84120 0.62080 0.26150 0.04600
C 	C 	0.84070 0.63641 0.30113 -0.06800
H 	H 	0.82170 0.64090 0.30240 0.04800
C 	C 	0.88760 0.63709 0.32690 -0.06800
H 	H 	0.89770 0.64160 0.34310 0.04600
C 	C 	0.89780 0.62516 0.30190 -0.04400
H 	H 	0.91680 0.62080 0.30030 0.04700
O 	O 	0.97304 0.09675 0.63383 -0.40000
O 	O 	0.97214 0.13132 0.66941 -0.36300
C 	C 	0.96534 0.10643 0.65494 0.27000
C 	C 	0.94429 0.09270 0.67339 -0.02000
C 	C 	0.93518 0.10059 0.69807 -0.05100
H 	H 	0.94510 0.11400 0.70800 0.06600
C 	C 	0.85153 0.12509 0.77747 -0.04400
H 	H 	0.84120 0.12080 0.76150 0.04600
C 	C 	0.84070 0.13641 0.80113 -0.06800
H 	H 	0.82170 0.14090 0.80240 0.04800
C 	C 	0.88760 0.13709 0.82690 -0.06800
H 	H 	0.89770 0.14160 0.84310 0.04600
C 	C 	0.89780 0.12516 0.80190 -0.04400
H 	H 	0.91680 0.12080 0.80030 0.04700
O 	O 	0.47304 0.59675 0.63383 -0.40000
O 	O 	0.47214 0.63132 0.66941 -0.36400
C 	C 	0.46534 0.60643 0.65494 0.27000
C 	C 	0.44429 0.59270 0.67339 -0.02000
C 	C 	0.43518 0.60059 0.69807 -0.05100
H 	H 	0.44510 0.61400 0.70800 0.06600
C 	C 	0.35153 0.62509 0.77747 -0.04400
H 	H 	0.34120 0.62080 0.76150 0.04600
C 	C 	0.34070 0.63641 0.80113 -0.06800
H 	H 	0.32170 0.64090 0.80240 0.04800
C 	C 	0.38760 0.63709 0.82690 -0.06800
H 	H 	0.39770 0.64160 0.84310 0.04600
C 	C 	0.39780 0.62516 0.80190 -0.04400
H 	H 	0.41680 0.62080 0.80030 0.04700
O 	O 	0.47304 0.09675 0.13383 -0.40000
O 	O 	0.47214 0.13132 0.16941 -0.36400
C 	C 	0.46534 0.10643 0.15494 0.27000
C 	C 	0.44429 0.09270 0.17339 -0.02000
C 	C 	0.43518 0.10059 0.19807 -0.05100
H 	H 	0.44510 0.11400 0.20800 0.06600
C 	C 	0.35153 0.12509 0.27747 -0.04400
H 	H 	0.34120 0.12080 0.26150 0.04600
C 	C 	0.34070 0.13641 0.30113 -0.06800
H 	H 	0.32170 0.14090 0.30240 0.04800
C 	C 	0.38760 0.13709 0.32690 -0.06800
H 	H 	0.39770 0.14160 0.34310 0.04600
C 	C 	0.39780 0.12516 0.30190 -0.04400
H 	H 	0.41680 0.12080 0.30030 0.04700
O 	O 	0.02696 0.40325 0.13383 -0.40100
O 	O 	0.02786 0.36868 0.16941 -0.36400
C 	C 	0.03466 0.39357 0.15494 0.27000
C 	C 	0.05571 0.40730 0.17339 -0.02100
C 	C 	0.06482 0.39941 0.19807 -0.05100
H 	H 	0.05490 0.38600 0.20800 0.06500
C 	C 	0.14847 0.37491 0.27747 -0.04400
H 	H 	0.15880 0.37920 0.26150 0.04600
C 	C 	0.15930 0.36359 0.30113 -0.06800
H 	H 	0.17830 0.35910 0.30240 0.04800
C 	C 	0.11240 0.36291 0.32690 -0.06800
H 	H 	0.10230 0.35840 0.34310 0.04600
C 	C 	0.10220 0.37484 0.30190 -0.04400
H 	H 	0.08320 0.37920 0.30030 0.04600
O 	O 	0.02696 0.90325 0.63383 -0.40100
O 	O 	0.02786 0.86868 0.66941 -0.36400
C 	C 	0.03466 0.89357 0.65494 0.27000
C 	C 	0.05571 0.90730 0.67339 -0.02000
C 	C 	0.06482 0.89941 0.69807 -0.05100
H 	H 	0.05490 0.88600 0.70800 0.06600
C 	C 	0.14847 0.87491 0.77747 -0.04400
H 	H 	0.15880 0.87920 0.76150 0.04600
C 	C 	0.15930 0.86359 0.80113 -0.06800
H 	H 	0.17830 0.85910 0.80240 0.04800
C 	C 	0.11240 0.86291 0.82690 -0.06800
H 	H 	0.10230 0.85840 0.84310 0.04600
C 	C 	0.10220 0.87484 0.80190 -0.04400
H 	H 	0.08320 0.87920 0.80030 0.04700
O 	O 	0.52696 0.40325 0.63383 -0.40000
O 	O 	0.52786 0.36868 0.66941 -0.36400
C 	C 	0.53466 0.39357 0.65494 0.27000
C 	C 	0.55571 0.40730 0.67339 -0.02000
C 	C 	0.56482 0.39941 0.69807 -0.05100
H 	H 	0.55490 0.38600 0.70800 0.06600
C 	C 	0.64847 0.37491 0.77747 -0.04400
H 	H 	0.65880 0.37920 0.76150 0.04600
C 	C 	0.65930 0.36359 0.80113 -0.06800
H 	H 	0.67830 0.35910 0.80240 0.04800
C 	C 	0.61240 0.36291 0.82690 -0.06800
H 	H 	0.60230 0.35840 0.84310 0.04600
C 	C 	0.60220 0.37484 0.80190 -0.04400
H 	H 	0.58320 0.37920 0.80030 0.04700
O 	O 	0.52696 0.90325 0.13383 -0.40000
O 	O 	0.52786 0.86868 0.16941 -0.36400
C 	C 	0.53466 0.89357 0.15494 0.27000
C 	C 	0.55571 0.90730 0.17339 -0.02000
C 	C 	0.56482 0.89941 0.19807 -0.05100
H 	H 	0.55490 0.88600 0.20800 0.06600
C 	C 	0.64847 0.87491 0.27747 -0.04400
H 	H 	0.65880 0.87920 0.26150 0.04600
C 	C 	0.65930 0.86359 0.30113 -0.06800
H 	H 	0.67830 0.85910 0.30240 0.04800
C 	C 	0.61240 0.86291 0.32690 -0.06800
H 	H 	0.60230 0.85840 0.34310 0.04600
C 	C 	0.60220 0.87484 0.30190 -0.04400
H 	H 	0.58320 0.87920 0.30030 0.04700
O 	O 	0.02696 0.59675 0.86617 -0.40100
O 	O 	0.02786 0.63132 0.83059 -0.36400
C 	C 	0.03466 0.60643 0.84506 0.27000
C 	C 	0.05571 0.59270 0.82661 -0.02100
C 	C 	0.06482 0.60059 0.80193 -0.05100
H 	H 	0.05490 0.61400 0.79200 0.06500
C 	C 	0.14847 0.62509 0.72253 -0.04400
H 	H 	0.15880 0.62080 0.73850 0.04600
C 	C 	0.15930 0.63641 0.69887 -0.06800
H 	H 	0.17830 0.64090 0.69760 0.04800
C 	C 	0.11240 0.63709 0.67310 -0.06800
H 	H 	0.10230 0.64160 0.65690 0.04600
C 	C 	0.10220 0.62516 0.69810 -0.04400
H 	H 	0.08320 0.62080 0.69970 0.04600
O 	O 	0.02696 0.09675 0.36617 -0.40100
O 	O 	0.02786 0.13132 0.33059 -0.36400
C 	C 	0.03466 0.10643 0.34506 0.27000
C 	C 	0.05571 0.09270 0.32661 -0.02100
C 	C 	0.06482 0.10059 0.30193 -0.05100
H 	H 	0.05490 0.11400 0.29200 0.06500
C 	C 	0.14847 0.12509 0.22253 -0.04400
H 	H 	0.15880 0.12080 0.23850 0.04600
C 	C 	0.15930 0.13641 0.19887 -0.06800
H 	H 	0.17830 0.14090 0.19760 0.04800
C 	C 	0.11240 0.13709 0.17310 -0.06800
H 	H 	0.10230 0.14160 0.15690 0.04600
C 	C 	0.10220 0.12516 0.19810 -0.04400
H 	H 	0.08320 0.12080 0.19970 0.04600
O 	O 	0.52696 0.59675 0.36617 -0.40000
O 	O 	0.52786 0.63132 0.33059 -0.36400
C 	C 	0.53466 0.60643 0.34506 0.27000
C 	C 	0.55571 0.59270 0.32661 -0.02000
C 	C 	0.56482 0.60059 0.30193 -0.05100
H 	H 	0.55490 0.61400 0.29200 0.06600
C 	C 	0.64847 0.62509 0.22253 -0.04400
H 	H 	0.65880 0.62080 0.23850 0.04600
C 	C 	0.65930 0.63641 0.19887 -0.06800
H 	H 	0.67830 0.64090 0.19760 0.04800
C 	C 	0.61240 0.63709 0.17310 -0.06800
H 	H 	0.60230 0.64160 0.15690 0.04600
C 	C 	0.60220 0.62516 0.19810 -0.04400
H 	H 	0.58320 0.62080 0.19970 0.04700
O 	O 	0.52696 0.09675 0.86617 -0.40000
O 	O 	0.52786 0.13132 0.83059 -0.36400
C 	C 	0.53466 0.10643 0.84506 0.27000
C 	C 	0.55571 0.09270 0.82661 -0.02000
C 	C 	0.56482 0.10059 0.80193 -0.05100
H 	H 	0.55490 0.11400 0.79200 0.06600
C 	C 	0.64847 0.12509 0.72253 -0.04400
H 	H 	0.65880 0.12080 0.73850 0.04600
C 	C 	0.65930 0.13641 0.69887 -0.06800
H 	H 	0.67830 0.14090 0.69760 0.04800
C 	C 	0.61240 0.13709 0.67310 -0.06800
H 	H 	0.60230 0.14160 0.65690 0.04600
C 	C 	0.60220 0.12516 0.69810 -0.04400
H 	H 	0.58320 0.12080 0.69970 0.04600
O 	O 	0.86617 0.59675 0.02696 -0.40100
O 	O 	0.83059 0.63132 0.02786 -0.36400
C 	C 	0.84506 0.60643 0.03466 0.27000
C 	C 	0.82661 0.59270 0.05571 -0.02100
C 	C 	0.80193 0.60059 0.06482 -0.05100
H 	H 	0.79200 0.61400 0.05490 0.06500
C 	C 	0.72253 0.62509 0.14847 -0.04400
H 	H 	0.73850 0.62080 0.15880 0.04600
C 	C 	0.69887 0.63641 0.15930 -0.06800
H 	H 	0.69760 0.64090 0.17830 0.04800
C 	C 	0.67310 0.63709 0.11240 -0.06800
H 	H 	0.65690 0.64160 0.10230 0.04600
C 	C 	0.69810 0.62516 0.10220 -0.04400
H 	H 	0.69970 0.62080 0.08320 0.04600
O 	O 	0.86617 0.09675 0.52696 -0.40000
O 	O 	0.83059 0.13132 0.52786 -0.36400
C 	C 	0.84506 0.10643 0.53466 0.27000
C 	C 	0.82661 0.09270 0.55571 -0.02000
C 	C 	0.80193 0.10059 0.56482 -0.05100
H 	H 	0.79200 0.11400 0.55490 0.06600
C 	C 	0.72253 0.12509 0.64847 -0.04400
H 	H 	0.73850 0.12080 0.65880 0.04600
C 	C 	0.69887 0.13641 0.65930 -0.06800
H 	H 	0.69760 0.14090 0.67830 0.04800
C 	C 	0.67310 0.13709 0.61240 -0.06800
H 	H 	0.65690 0.14160 0.60230 0.04600
C 	C 	0.69810 0.12516 0.60220 -0.04400
H 	H 	0.69970 0.12080 0.58320 0.04600
O 	O 	0.36617 0.59675 0.52696 -0.40000
O 	O 	0.33059 0.63132 0.52786 -0.36400
C 	C 	0.34506 0.60643 0.53466 0.27000
C 	C 	0.32661 0.59270 0.55571 -0.02000
C 	C 	0.30193 0.60059 0.56482 -0.05100
H 	H 	0.29200 0.61400 0.55490 0.06600
C 	C 	0.22253 0.62509 0.64847 -0.04400
H 	H 	0.23850 0.62080 0.65880 0.04600
C 	C 	0.19887 0.63641 0.65930 -0.06800
H 	H 	0.19760 0.64090 0.67830 0.04800
C 	C 	0.17310 0.63709 0.61240 -0.06800
H 	H 	0.15690 0.64160 0.60230 0.04600
C 	C 	0.19810 0.62516 0.60220 -0.04400
H 	H 	0.19970 0.62080 0.58320 0.04700
O 	O 	0.36617 0.09675 0.02696 -0.40100
O 	O 	0.33059 0.13132 0.02786 -0.36400
C 	C 	0.34506 0.10643 0.03466 0.27000
C 	C 	0.32661 0.09270 0.05571 -0.02100
C 	C 	0.30193 0.10059 0.06482 -0.05100
H 	H 	0.29200 0.11400 0.05490 0.06500
C 	C 	0.22253 0.12509 0.14847 -0.04400
H 	H 	0.23850 0.12080 0.15880 0.04600
C 	C 	0.19887 0.13641 0.15930 -0.06800
H 	H 	0.19760 0.14090 0.17830 0.04800
C 	C 	0.17310 0.13709 0.11240 -0.06800
H 	H 	0.15690 0.14160 0.10230 0.04600
C 	C 	0.19810 0.12516 0.10220 -0.04400
H 	H 	0.19970 0.12080 0.08320 0.04600
O 	O 	0.13383 0.40325 0.02696 -0.40100
O 	O 	0.16941 0.36868 0.02786 -0.36400
C 	C 	0.15494 0.39357 0.03466 0.27000
C 	C 	0.17339 0.40730 0.05571 -0.02100
C 	C 	0.19807 0.39941 0.06482 -0.05100
H 	H 	0.20800 0.38600 0.05490 0.06500
C 	C 	0.27747 0.37491 0.14847 -0.04400
H 	H 	0.26150 0.37920 0.15880 0.04600
C 	C 	0.30113 0.36359 0.15930 -0.06800
H 	H 	0.30240 0.35910 0.17830 0.04800
C 	C 	0.32690 0.36291 0.11240 -0.06800
H 	H 	0.34310 0.35840 0.10230 0.04600
C 	C 	0.30190 0.37484 0.10220 -0.04400
H 	H 	0.30030 0.37920 0.08320 0.04600
O 	O 	0.13383 0.90325 0.52696 -0.40000
O 	O 	0.16941 0.86868 0.52786 -0.36400
C 	C 	0.15494 0.89357 0.53466 0.27000
C 	C 	0.17339 0.90730 0.55571 -0.02000
C 	C 	0.19807 0.89941 0.56482 -0.05100
H 	H 	0.20800 0.88600 0.55490 0.06600
C 	C 	0.27747 0.87491 0.64847 -0.04400
H 	H 	0.26150 0.87920 0.65880 0.04600
C 	C 	0.30113 0.86359 0.65930 -0.06800
H 	H 	0.30240 0.85910 0.67830 0.04800
C 	C 	0.32690 0.86291 0.61240 -0.06800
H 	H 	0.34310 0.85840 0.60230 0.04600
C 	C 	0.30190 0.87484 0.60220 -0.04400
H 	H 	0.30030 0.87920 0.58320 0.04700
O 	O 	0.63383 0.40325 0.52696 -0.40000
O 	O 	0.66941 0.36868 0.52786 -0.36400
C 	C 	0.65494 0.39357 0.53466 0.27000
C 	C 	0.67339 0.40730 0.55571 -0.02000
C 	C 	0.69807 0.39941 0.56482 -0.05100
H 	H 	0.70800 0.38600 0.55490 0.06600
C 	C 	0.77747 0.37491 0.64847 -0.04400
H 	H 	0.76150 0.37920 0.65880 0.04600
C 	C 	0.80113 0.36359 0.65930 -0.06800
H 	H 	0.80240 0.35910 0.67830 0.04800
C 	C 	0.82690 0.36291 0.61240 -0.06800
H 	H 	0.84310 0.35840 0.60230 0.04600
C 	C 	0.80190 0.37484 0.60220 -0.04400
H 	H 	0.80030 0.37920 0.58320 0.04700
O 	O 	0.63383 0.90325 0.02696 -0.40100
O 	O 	0.66941 0.86868 0.02786 -0.36400
C 	C 	0.65494 0.89357 0.03466 0.27000
C 	C 	0.67339 0.90730 0.05571 -0.02000
C 	C 	0.69807 0.89941 0.06482 -0.05100
H 	H 	0.70800 0.88600 0.05490 0.06600
C 	C 	0.77747 0.87491 0.14847 -0.04400
H 	H 	0.76150 0.87920 0.15880 0.04600
C 	C 	0.80113 0.86359 0.15930 -0.06800
H 	H 	0.80240 0.85910 0.17830 0.04800
C 	C 	0.82690 0.86291 0.11240 -0.06800
H 	H 	0.84310 0.85840 0.10230 0.04600
C 	C 	0.80190 0.87484 0.10220 -0.04400
H 	H 	0.80030 0.87920 0.08320 0.04700
O 	O 	0.13383 0.59675 0.97304 -0.40000
O 	O 	0.16941 0.63132 0.97214 -0.36300
C 	C 	0.15494 0.60643 0.96534 0.27000
C 	C 	0.17339 0.59270 0.94429 -0.02000
C 	C 	0.19807 0.60059 0.93518 -0.05100
H 	H 	0.20800 0.61400 0.94510 0.06600
C 	C 	0.27747 0.62509 0.85153 -0.04400
H 	H 	0.26150 0.62080 0.84120 0.04600
C 	C 	0.30113 0.63641 0.84070 -0.06800
H 	H 	0.30240 0.64090 0.82170 0.04800
C 	C 	0.32690 0.63709 0.88760 -0.06800
H 	H 	0.34310 0.64160 0.89770 0.04600
C 	C 	0.30190 0.62516 0.89780 -0.04400
H 	H 	0.30030 0.62080 0.91680 0.04700
O 	O 	0.13383 0.09675 0.47304 -0.40000
O 	O 	0.16941 0.13132 0.47214 -0.36400
C 	C 	0.15494 0.10643 0.46534 0.27000
C 	C 	0.17339 0.09270 0.44429 -0.02000
C 	C 	0.19807 0.10059 0.43518 -0.05100
H 	H 	0.20800 0.11400 0.44510 0.06600
C 	C 	0.27747 0.12509 0.35153 -0.04400
H 	H 	0.26150 0.12080 0.34120 0.04600
C 	C 	0.30113 0.13641 0.34070 -0.06800
H 	H 	0.30240 0.14090 0.32170 0.04800
C 	C 	0.32690 0.13709 0.38760 -0.06800
H 	H 	0.34310 0.14160 0.39770 0.04600
C 	C 	0.30190 0.12516 0.39780 -0.04400
H 	H 	0.30030 0.12080 0.41680 0.04700
O 	O 	0.63383 0.59675 0.47304 -0.40000
O 	O 	0.66941 0.63132 0.47214 -0.36400
C 	C 	0.65494 0.60643 0.46534 0.27000
C 	C 	0.67339 0.59270 0.44429 -0.02000
C 	C 	0.69807 0.60059 0.43518 -0.05100
H 	H 	0.70800 0.61400 0.44510 0.06600
C 	C 	0.77747 0.62509 0.35153 -0.04400
H 	H 	0.76150 0.62080 0.34120 0.04600
C 	C 	0.80113 0.63641 0.34070 -0.06800
H 	H 	0.80240 0.64090 0.32170 0.04800
C 	C 	0.82690 0.63709 0.38760 -0.06800
H 	H 	0.84310 0.64160 0.39770 0.04600
C 	C 	0.80190 0.62516 0.39780 -0.04400
H 	H 	0.80030 0.62080 0.41680 0.04700
O 	O 	0.63383 0.09675 0.97304 -0.40000
O 	O 	0.66941 0.13132 0.97214 -0.36300
C 	C 	0.65494 0.10643 0.96534 0.27000
C 	C 	0.67339 0.09270 0.94429 -0.02000
C 	C 	0.69807 0.10059 0.93518 -0.05100
H 	H 	0.70800 0.11400 0.94510 0.06600
C 	C 	0.77747 0.12509 0.85153 -0.04400
H 	H 	0.76150 0.12080 0.84120 0.04600
C 	C 	0.80113 0.13641 0.84070 -0.06800
H 	H 	0.80240 0.14090 0.82170 0.04800
C 	C 	0.82690 0.13709 0.88760 -0.06800
H 	H 	0.84310 0.14160 0.89770 0.04600
C 	C 	0.80190 0.12516 0.89780 -0.04400
H 	H 	0.80030 0.12080 0.91680 0.04700
O 	O 	0.86617 0.40325 0.97304 -0.39900
O 	O 	0.83059 0.36868 0.97214 -0.36300
C 	C 	0.84506 0.39357 0.96534 0.27000
C 	C 	0.82661 0.40730 0.94429 -0.02000
C 	C 	0.80193 0.39941 0.93518 -0.05100
H 	H 	0.79200 0.38600 0.94510 0.06600
C 	C 	0.72253 0.37491 0.85153 -0.04400
H 	H 	0.73850 0.37920 0.84120 0.04600
C 	C 	0.69887 0.36359 0.84070 -0.06800
H 	H 	0.69760 0.35910 0.82170 0.04800
C 	C 	0.67310 0.36291 0.88760 -0.06800
H 	H 	0.65690 0.35840 0.89770 0.04600
C 	C 	0.69810 0.37484 0.89780 -0.04400
H 	H 	0.69970 0.37920 0.91680 0.04700
O 	O 	0.86617 0.90325 0.47304 -0.40000
O 	O 	0.83059 0.86868 0.47214 -0.36400
C 	C 	0.84506 0.89357 0.46534 0.27000
C 	C 	0.82661 0.90730 0.44429 -0.02000
C 	C 	0.80193 0.89941 0.43518 -0.05100
H 	H 	0.79200 0.88600 0.44510 0.06600
C 	C 	0.72253 0.87491 0.35153 -0.04400
H 	H 	0.73850 0.87920 0.34120 0.04600
C 	C 	0.69887 0.86359 0.34070 -0.06800
H 	H 	0.69760 0.85910 0.32170 0.04800
C 	C 	0.67310 0.86291 0.38760 -0.06800
H 	H 	0.65690 0.85840 0.39770 0.04600
C 	C 	0.69810 0.87484 0.39780 -0.04400
H 	H 	0.69970 0.87920 0.41680 0.04700
O 	O 	0.36617 0.40325 0.47304 -0.40000
O 	O 	0.33059 0.36868 0.47214 -0.36400
C 	C 	0.34506 0.39357 0.46534 0.27000
C 	C 	0.32661 0.40730 0.44429 -0.02000
C 	C 	0.30193 0.39941 0.43518 -0.05100
H 	H 	0.29200 0.38600 0.44510 0.06600
C 	C 	0.22253 0.37491 0.35153 -0.04400
H 	H 	0.23850 0.37920 0.34120 0.04600
C 	C 	0.19887 0.36359 0.34070 -0.06800
H 	H 	0.19760 0.35910 0.32170 0.04800
C 	C 	0.17310 0.36291 0.38760 -0.06800
H 	H 	0.15690 0.35840 0.39770 0.04600
C 	C 	0.19810 0.37484 0.39780 -0.04400
H 	H 	0.19970 0.37920 0.41680 0.04700
O 	O 	0.36617 0.90325 0.97304 -0.39900
O 	O 	0.33059 0.86868 0.97214 -0.36300
C 	C 	0.34506 0.89357 0.96534 0.27000
C 	C 	0.32661 0.90730 0.94429 -0.02000
C 	C 	0.30193 0.89941 0.93518 -0.05100
H 	H 	0.29200 0.88600 0.94510 0.06600
C 	C 	0.22253 0.87491 0.85153 -0.04400
H 	H 	0.23850 0.87920 0.84120 0.04600
C 	C 	0.19887 0.86359 0.84070 -0.06800
H 	H 	0.19760 0.85910 0.82170 0.04800
C 	C 	0.17310 0.86291 0.88760 -0.06800
H 	H 	0.15690 0.85840 0.89770 0.04600
C 	C 	0.19810 0.87484 0.89780 -0.04400
H 	H 	0.19970 0.87920 0.91680 0.04700
O 	O 	0.02696 0.86617 0.59675 -0.40100
O 	O 	0.02786 0.83059 0.63132 -0.36400
C 	C 	0.03466 0.84506 0.60643 0.27000
C 	C 	0.05571 0.82661 0.59270 -0.02100
C 	C 	0.06482 0.80193 0.60059 -0.05100
H 	H 	0.05490 0.79200 0.61400 0.06500
C 	C 	0.14847 0.72253 0.62509 -0.04400
H 	H 	0.15880 0.73850 0.62080 0.04600
C 	C 	0.15930 0.69887 0.63641 -0.06800
H 	H 	0.17830 0.69760 0.64090 0.04800
C 	C 	0.11240 0.67310 0.63709 -0.06800
H 	H 	0.10230 0.65690 0.64160 0.04600
C 	C 	0.10220 0.69810 0.62516 -0.04400
H 	H 	0.08320 0.69970 0.62080 0.04600
O 	O 	0.02696 0.36617 0.09675 -0.40100
O 	O 	0.02786 0.33059 0.13132 -0.36400
C 	C 	0.03466 0.34506 0.10643 0.27000
C 	C 	0.05571 0.32661 0.09270 -0.02100
C 	C 	0.06482 0.30193 0.10059 -0.05100
H 	H 	0.05490 0.29200 0.11400 0.06500
C 	C 	0.14847 0.22253 0.12509 -0.04400
H 	H 	0.15880 0.23850 0.12080 0.04600
C 	C 	0.15930 0.19887 0.13641 -0.06800
H 	H 	0.17830 0.19760 0.14090 0.04800
C 	C 	0.11240 0.17310 0.13709 -0.06800
H 	H 	0.10230 0.15690 0.14160 0.04600
C 	C 	0.10220 0.19810 0.12516 -0.04400
H 	H 	0.08320 0.19970 0.12080 0.04600
O 	O 	0.52696 0.86617 0.09675 -0.40000
O 	O 	0.52786 0.83059 0.13132 -0.36400
C 	C 	0.53466 0.84506 0.10643 0.27000
C 	C 	0.55571 0.82661 0.09270 -0.02000
C 	C 	0.56482 0.80193 0.10059 -0.05100
H 	H 	0.55490 0.79200 0.11400 0.06600
C 	C 	0.64847 0.72253 0.12509 -0.04400
H 	H 	0.65880 0.73850 0.12080 0.04600
C 	C 	0.65930 0.69887 0.13641 -0.06800
H 	H 	0.67830 0.69760 0.14090 0.04800
C 	C 	0.61240 0.67310 0.13709 -0.06800
H 	H 	0.60230 0.65690 0.14160 0.04600
C 	C 	0.60220 0.69810 0.12516 -0.04400
H 	H 	0.58320 0.69970 0.12080 0.04600
O 	O 	0.52696 0.36617 0.59675 -0.40000
O 	O 	0.52786 0.33059 0.63132 -0.36400
C 	C 	0.53466 0.34506 0.60643 0.27000
C 	C 	0.55571 0.32661 0.59270 -0.02000
C 	C 	0.56482 0.30193 0.60059 -0.05100
H 	H 	0.55490 0.29200 0.61400 0.06600
C 	C 	0.64847 0.22253 0.62509 -0.04400
H 	H 	0.65880 0.23850 0.62080 0.04600
C 	C 	0.65930 0.19887 0.63641 -0.06800
H 	H 	0.67830 0.19760 0.64090 0.04800
C 	C 	0.61240 0.17310 0.63709 -0.06800
H 	H 	0.60230 0.15690 0.64160 0.04600
C 	C 	0.60220 0.19810 0.62516 -0.04400
H 	H 	0.58320 0.19970 0.62080 0.04700
O 	O 	0.02696 0.13383 0.40325 -0.40100
O 	O 	0.02786 0.16941 0.36868 -0.36400
C 	C 	0.03466 0.15494 0.39357 0.27000
C 	C 	0.05571 0.17339 0.40730 -0.02100
C 	C 	0.06482 0.19807 0.39941 -0.05100
H 	H 	0.05490 0.20800 0.38600 0.06500
C 	C 	0.14847 0.27747 0.37491 -0.04400
H 	H 	0.15880 0.26150 0.37920 0.04600
C 	C 	0.15930 0.30113 0.36359 -0.06800
H 	H 	0.17830 0.30240 0.35910 0.04800
C 	C 	0.11240 0.32690 0.36291 -0.06800
H 	H 	0.10230 0.34310 0.35840 0.04600
C 	C 	0.10220 0.30190 0.37484 -0.04400
H 	H 	0.08320 0.30030 0.37920 0.04600
O 	O 	0.02696 0.63383 0.90325 -0.40100
O 	O 	0.02786 0.66941 0.86868 -0.36400
C 	C 	0.03466 0.65494 0.89357 0.27000
C 	C 	0.05571 0.67339 0.90730 -0.02000
C 	C 	0.06482 0.69807 0.89941 -0.05100
H 	H 	0.05490 0.70800 0.88600 0.06600
C 	C 	0.14847 0.77747 0.87491 -0.04400
H 	H 	0.15880 0.76150 0.87920 0.04600
C 	C 	0.15930 0.80113 0.86359 -0.06800
H 	H 	0.17830 0.80240 0.85910 0.04800
C 	C 	0.11240 0.82690 0.86291 -0.06800
H 	H 	0.10230 0.84310 0.85840 0.04600
C 	C 	0.10220 0.80190 0.87484 -0.04400
H 	H 	0.08320 0.80030 0.87920 0.04700
O 	O 	0.52696 0.13383 0.90325 -0.40000
O 	O 	0.52786 0.16941 0.86868 -0.36400
C 	C 	0.53466 0.15494 0.89357 0.27000
C 	C 	0.55571 0.17339 0.90730 -0.02000
C 	C 	0.56482 0.19807 0.89941 -0.05100
H 	H 	0.55490 0.20800 0.88600 0.06600
C 	C 	0.64847 0.27747 0.87491 -0.04400
H 	H 	0.65880 0.26150 0.87920 0.04600
C 	C 	0.65930 0.30113 0.86359 -0.06800
H 	H 	0.67830 0.30240 0.85910 0.04800
C 	C 	0.61240 0.32690 0.86291 -0.06800
H 	H 	0.60230 0.34310 0.85840 0.04600
C 	C 	0.60220 0.30190 0.87484 -0.04400
H 	H 	0.58320 0.30030 0.87920 0.04700
O 	O 	0.52696 0.63383 0.40325 -0.40000
O 	O 	0.52786 0.66941 0.36868 -0.36400
C 	C 	0.53466 0.65494 0.39357 0.27000
C 	C 	0.55571 0.67339 0.40730 -0.02000
C 	C 	0.56482 0.69807 0.39941 -0.05100
H 	H 	0.55490 0.70800 0.38600 0.06600
C 	C 	0.64847 0.77747 0.37491 -0.04400
H 	H 	0.65880 0.76150 0.37920 0.04600
C 	C 	0.65930 0.80113 0.36359 -0.06800
H 	H 	0.67830 0.80240 0.35910 0.04800
C 	C 	0.61240 0.82690 0.36291 -0.06800
H 	H 	0.60230 0.84310 0.35840 0.04600
C 	C 	0.60220 0.80190 0.37484 -0.04400
H 	H 	0.58320 0.80030 0.37920 0.04700
O 	O 	0.97304 0.13383 0.59675 -0.40000
O 	O 	0.97214 0.16941 0.63132 -0.36300
C 	C 	0.96534 0.15494 0.60643 0.27000
C 	C 	0.94429 0.17339 0.59270 -0.02000
C 	C 	0.93518 0.19807 0.60059 -0.05100
H 	H 	0.94510 0.20800 0.61400 0.06600
C 	C 	0.85153 0.27747 0.62509 -0.04400
H 	H 	0.84120 0.26150 0.62080 0.04600
C 	C 	0.84070 0.30113 0.63641 -0.06800
H 	H 	0.82170 0.30240 0.64090 0.04800
C 	C 	0.88760 0.32690 0.63709 -0.06800
H 	H 	0.89770 0.34310 0.64160 0.04600
C 	C 	0.89780 0.30190 0.62516 -0.04400
H 	H 	0.91680 0.30030 0.62080 0.04700
O 	O 	0.97304 0.63383 0.09675 -0.40000
O 	O 	0.97214 0.66941 0.13132 -0.36300
C 	C 	0.96534 0.65494 0.10643 0.27000
C 	C 	0.94429 0.67339 0.09270 -0.02000
C 	C 	0.93518 0.69807 0.10059 -0.05100
H 	H 	0.94510 0.70800 0.11400 0.06600
C 	C 	0.85153 0.77747 0.12509 -0.04400
H 	H 	0.84120 0.76150 0.12080 0.04600
C 	C 	0.84070 0.80113 0.13641 -0.06800
H 	H 	0.82170 0.80240 0.14090 0.04800
C 	C 	0.88760 0.82690 0.13709 -0.06800
H 	H 	0.89770 0.84310 0.14160 0.04600
C 	C 	0.89780 0.80190 0.12516 -0.04400
H 	H 	0.91680 0.80030 0.12080 0.04700
O 	O 	0.47304 0.13383 0.09675 -0.40000
O 	O 	0.47214 0.16941 0.13132 -0.36400
C 	C 	0.46534 0.15494 0.10643 0.27000
C 	C 	0.44429 0.17339 0.09270 -0.02000
C 	C 	0.43518 0.19807 0.10059 -0.05100
H 	H 	0.44510 0.20800 0.11400 0.06600
C 	C 	0.35153 0.27747 0.12509 -0.04400
H 	H 	0.34120 0.26150 0.12080 0.04600
C 	C 	0.34070 0.30113 0.13641 -0.06800
H 	H 	0.32170 0.30240 0.14090 0.04800
C 	C 	0.38760 0.32690 0.13709 -0.06800
H 	H 	0.39770 0.34310 0.14160 0.04600
C 	C 	0.39780 0.30190 0.12516 -0.04400
H 	H 	0.41680 0.30030 0.12080 0.04700
O 	O 	0.47304 0.63383 0.59675 -0.40000
O 	O 	0.47214 0.66941 0.63132 -0.36400
C 	C 	0.46534 0.65494 0.60643 0.27000
C 	C 	0.44429 0.67339 0.59270 -0.02000
C 	C 	0.43518 0.69807 0.60059 -0.05100
H 	H 	0.44510 0.70800 0.61400 0.06600
C 	C 	0.35153 0.77747 0.62509 -0.04400
H 	H 	0.34120 0.76150 0.62080 0.04600
C 	C 	0.34070 0.80113 0.63641 -0.06800
H 	H 	0.32170 0.80240 0.64090 0.04800
C 	C 	0.38760 0.82690 0.63709 -0.06800
H 	H 	0.39770 0.84310 0.64160 0.04600
C 	C 	0.39780 0.80190 0.62516 -0.04400
H 	H 	0.41680 0.80030 0.62080 0.04700
O 	O 	0.97304 0.86617 0.40325 -0.39900
O 	O 	0.97214 0.83059 0.36868 -0.36300
C 	C 	0.96534 0.84506 0.39357 0.27000
C 	C 	0.94429 0.82661 0.40730 -0.02000
C 	C 	0.93518 0.80193 0.39941 -0.05100
H 	H 	0.94510 0.79200 0.38600 0.06600
C 	C 	0.85153 0.72253 0.37491 -0.04400
H 	H 	0.84120 0.73850 0.37920 0.04600
C 	C 	0.84070 0.69887 0.36359 -0.06800
H 	H 	0.82170 0.69760 0.35910 0.04800
C 	C 	0.88760 0.67310 0.36291 -0.06800
H 	H 	0.89770 0.65690 0.35840 0.04600
C 	C 	0.89780 0.69810 0.37484 -0.04400
H 	H 	0.91680 0.69970 0.37920 0.04700
O 	O 	0.97304 0.36617 0.90325 -0.39900
O 	O 	0.97214 0.33059 0.86868 -0.36300
C 	C 	0.96534 0.34506 0.89357 0.27000
C 	C 	0.94429 0.32661 0.90730 -0.02000
C 	C 	0.93518 0.30193 0.89941 -0.05100
H 	H 	0.94510 0.29200 0.88600 0.06600
C 	C 	0.85153 0.22253 0.87491 -0.04400
H 	H 	0.84120 0.23850 0.87920 0.04600
C 	C 	0.84070 0.19887 0.86359 -0.06800
H 	H 	0.82170 0.19760 0.85910 0.04800
C 	C 	0.88760 0.17310 0.86291 -0.06800
H 	H 	0.89770 0.15690 0.85840 0.04600
C 	C 	0.89780 0.19810 0.87484 -0.04400
H 	H 	0.91680 0.19970 0.87920 0.04700
O 	O 	0.47304 0.86617 0.90325 -0.40000
O 	O 	0.47214 0.83059 0.86868 -0.36400
C 	C 	0.46534 0.84506 0.89357 0.27000
C 	C 	0.44429 0.82661 0.90730 -0.02000
C 	C 	0.43518 0.80193 0.89941 -0.05100
H 	H 	0.44510 0.79200 0.88600 0.06600
C 	C 	0.35153 0.72253 0.87491 -0.04400
H 	H 	0.34120 0.73850 0.87920 0.04600
C 	C 	0.34070 0.69887 0.86359 -0.06800
H 	H 	0.32170 0.69760 0.85910 0.04800
C 	C 	0.38760 0.67310 0.86291 -0.06800
H 	H 	0.39770 0.65690 0.85840 0.04600
C 	C 	0.39780 0.69810 0.87484 -0.04400
H 	H 	0.41680 0.69970 0.87920 0.04700
O 	O 	0.47304 0.36617 0.40325 -0.40000
O 	O 	0.47214 0.33059 0.36868 -0.36400
C 	C 	0.46534 0.34506 0.39357 0.27000
C 	C 	0.44429 0.32661 0.40730 -0.02000
C 	C 	0.43518 0.30193 0.39941 -0.05100
H 	H 	0.44510 0.29200 0.38600 0.06600
C 	C 	0.35153 0.22253 0.37491 -0.04400
H 	H 	0.34120 0.23850 0.37920 0.04600
C 	C 	0.34070 0.19887 0.36359 -0.06800
H 	H 	0.32170 0.19760 0.35910 0.04800
C 	C 	0.38760 0.17310 0.36291 -0.06800
H 	H 	0.39770 0.15690 0.35840 0.04600
C 	C 	0.39780 0.19810 0.37484 -0.04400
H 	H 	0.41680 0.19970 0.37920 0.04700
O 	O 	0.59675 0.02696 0.86617 -0.40100
O 	O 	0.63132 0.02786 0.83059 -0.36400
C 	C 	0.60643 0.03466 0.84506 0.27000
C 	C 	0.59270 0.05571 0.82661 -0.02100
C 	C 	0.60059 0.06482 0.80193 -0.05100
H 	H 	0.61400 0.05490 0.79200 0.06500
C 	C 	0.62509 0.14847 0.72253 -0.04400
H 	H 	0.62080 0.15880 0.73850 0.04600
C 	C 	0.63641 0.15930 0.69887 -0.06800
H 	H 	0.64090 0.17830 0.69760 0.04800
C 	C 	0.63709 0.11240 0.67310 -0.06800
H 	H 	0.64160 0.10230 0.65690 0.04600
C 	C 	0.62516 0.10220 0.69810 -0.04400
H 	H 	0.62080 0.08320 0.69970 0.04600
O 	O 	0.59675 0.52696 0.36617 -0.40000
O 	O 	0.63132 0.52786 0.33059 -0.36400
C 	C 	0.60643 0.53466 0.34506 0.27000
C 	C 	0.59270 0.55571 0.32661 -0.02000
C 	C 	0.60059 0.56482 0.30193 -0.05100
H 	H 	0.61400 0.55490 0.29200 0.06600
C 	C 	0.62509 0.64847 0.22253 -0.04400
H 	H 	0.62080 0.65880 0.23850 0.04600
C 	C 	0.63641 0.65930 0.19887 -0.06800
H 	H 	0.64090 0.67830 0.19760 0.04800
C 	C 	0.63709 0.61240 0.17310 -0.06800
H 	H 	0.64160 0.60230 0.15690 0.04600
C 	C 	0.62516 0.60220 0.19810 -0.04400
H 	H 	0.62080 0.58320 0.19970 0.04700
O 	O 	0.09675 0.02696 0.36617 -0.40100
O 	O 	0.13132 0.02786 0.33059 -0.36400
C 	C 	0.10643 0.03466 0.34506 0.27000
C 	C 	0.09270 0.05571 0.32661 -0.02100
C 	C 	0.10059 0.06482 0.30193 -0.05100
H 	H 	0.11400 0.05490 0.29200 0.06500
C 	C 	0.12509 0.14847 0.22253 -0.04400
H 	H 	0.12080 0.15880 0.23850 0.04600
C 	C 	0.13641 0.15930 0.19887 -0.06800
H 	H 	0.14090 0.17830 0.19760 0.04800
C 	C 	0.13709 0.11240 0.17310 -0.06800
H 	H 	0.14160 0.10230 0.15690 0.04600
C 	C 	0.12516 0.10220 0.19810 -0.04400
H 	H 	0.12080 0.08320 0.19970 0.04600
O 	O 	0.09675 0.52696 0.86617 -0.40000
O 	O 	0.13132 0.52786 0.83059 -0.36400
C 	C 	0.10643 0.53466 0.84506 0.27000
C 	C 	0.09270 0.55571 0.82661 -0.02000
C 	C 	0.10059 0.56482 0.80193 -0.05100
H 	H 	0.11400 0.55490 0.79200 0.06600
C 	C 	0.12509 0.64847 0.72253 -0.04400
H 	H 	0.12080 0.65880 0.73850 0.04600
C 	C 	0.13641 0.65930 0.69887 -0.06800
H 	H 	0.14090 0.67830 0.69760 0.04800
C 	C 	0.13709 0.61240 0.67310 -0.06800
H 	H 	0.14160 0.60230 0.65690 0.04600
C 	C 	0.12516 0.60220 0.69810 -0.04400
H 	H 	0.12080 0.58320 0.69970 0.04600
O 	O 	0.40325 0.02696 0.13383 -0.40100
O 	O 	0.36868 0.02786 0.16941 -0.36400
C 	C 	0.39357 0.03466 0.15494 0.27000
C 	C 	0.40730 0.05571 0.17339 -0.02100
C 	C 	0.39941 0.06482 0.19807 -0.05100
H 	H 	0.38600 0.05490 0.20800 0.06500
C 	C 	0.37491 0.14847 0.27747 -0.04400
H 	H 	0.37920 0.15880 0.26150 0.04600
C 	C 	0.36359 0.15930 0.30113 -0.06800
H 	H 	0.35910 0.17830 0.30240 0.04800
C 	C 	0.36291 0.11240 0.32690 -0.06800
H 	H 	0.35840 0.10230 0.34310 0.04600
C 	C 	0.37484 0.10220 0.30190 -0.04400
H 	H 	0.37920 0.08320 0.30030 0.04600
O 	O 	0.40325 0.52696 0.63383 -0.40000
O 	O 	0.36868 0.52786 0.66941 -0.36400
C 	C 	0.39357 0.53466 0.65494 0.27000
C 	C 	0.40730 0.55571 0.67339 -0.02000
C 	C 	0.39941 0.56482 0.69807 -0.05100
H 	H 	0.38600 0.55490 0.70800 0.06600
C 	C 	0.37491 0.64847 0.77747 -0.04400
H 	H 	0.37920 0.65880 0.76150 0.04600
C 	C 	0.36359 0.65930 0.80113 -0.06800
H 	H 	0.35910 0.67830 0.80240 0.04800
C 	C 	0.36291 0.61240 0.82690 -0.06800
H 	H 	0.35840 0.60230 0.84310 0.04600
C 	C 	0.37484 0.60220 0.80190 -0.04400
H 	H 	0.37920 0.58320 0.80030 0.04700
O 	O 	0.90325 0.02696 0.63383 -0.40100
O 	O 	0.86868 0.02786 0.66941 -0.36400
C 	C 	0.89357 0.03466 0.65494 0.27000
C 	C 	0.90730 0.05571 0.67339 -0.02000
C 	C 	0.89941 0.06482 0.69807 -0.05100
H 	H 	0.88600 0.05490 0.70800 0.06600
C 	C 	0.87491 0.14847 0.77747 -0.04400
H 	H 	0.87920 0.15880 0.76150 0.04600
C 	C 	0.86359 0.15930 0.80113 -0.06800
H 	H 	0.85910 0.17830 0.80240 0.04800
C 	C 	0.86291 0.11240 0.82690 -0.06800
H 	H 	0.85840 0.10230 0.84310 0.04600
C 	C 	0.87484 0.10220 0.80190 -0.04400
H 	H 	0.87920 0.08320 0.80030 0.04700
O 	O 	0.90325 0.52696 0.13383 -0.40000
O 	O 	0.86868 0.52786 0.16941 -0.36400
C 	C 	0.89357 0.53466 0.15494 0.27000
C 	C 	0.90730 0.55571 0.17339 -0.02000
C 	C 	0.89941 0.56482 0.19807 -0.05100
H 	H 	0.88600 0.55490 0.20800 0.06600
C 	C 	0.87491 0.64847 0.27747 -0.04400
H 	H 	0.87920 0.65880 0.26150 0.04600
C 	C 	0.86359 0.65930 0.30113 -0.06800
H 	H 	0.85910 0.67830 0.30240 0.04800
C 	C 	0.86291 0.61240 0.32690 -0.06800
H 	H 	0.85840 0.60230 0.34310 0.04600
C 	C 	0.87484 0.60220 0.30190 -0.04400
H 	H 	0.87920 0.58320 0.30030 0.04700
O 	O 	0.59675 0.97304 0.13383 -0.40000
O 	O 	0.63132 0.97214 0.16941 -0.36300
C 	C 	0.60643 0.96534 0.15494 0.27000
C 	C 	0.59270 0.94429 0.17339 -0.02000
C 	C 	0.60059 0.93518 0.19807 -0.05100
H 	H 	0.61400 0.94510 0.20800 0.06600
C 	C 	0.62509 0.85153 0.27747 -0.04400
H 	H 	0.62080 0.84120 0.26150 0.04600
C 	C 	0.63641 0.84070 0.30113 -0.06800
H 	H 	0.64090 0.82170 0.30240 0.04800
C 	C 	0.63709 0.88760 0.32690 -0.06800
H 	H 	0.64160 0.89770 0.34310 0.04600
C 	C 	0.62516 0.89780 0.30190 -0.04400
H 	H 	0.62080 0.91680 0.30030 0.04700
O 	O 	0.59675 0.47304 0.63383 -0.40000
O 	O 	0.63132 0.47214 0.66941 -0.36400
C 	C 	0.60643 0.46534 0.65494 0.27000
C 	C 	0.59270 0.44429 0.67339 -0.02000
C 	C 	0.60059 0.43518 0.69807 -0.05100
H 	H 	0.61400 0.44510 0.70800 0.06600
C 	C 	0.62509 0.35153 0.77747 -0.04400
H 	H 	0.62080 0.34120 0.76150 0.04600
C 	C 	0.63641 0.34070 0.80113 -0.06800
H 	H 	0.64090 0.32170 0.80240 0.04800
C 	C 	0.63709 0.38760 0.82690 -0.06800
H 	H 	0.64160 0.39770 0.84310 0.04600
C 	C 	0.62516 0.39780 0.80190 -0.04400
H 	H 	0.62080 0.41680 0.80030 0.04700
O 	O 	0.09675 0.97304 0.63383 -0.40000
O 	O 	0.13132 0.97214 0.66941 -0.36300
C 	C 	0.10643 0.96534 0.65494 0.27000
C 	C 	0.09270 0.94429 0.67339 -0.02000
C 	C 	0.10059 0.93518 0.69807 -0.05100
H 	H 	0.11400 0.94510 0.70800 0.06600
C 	C 	0.12509 0.85153 0.77747 -0.04400
H 	H 	0.12080 0.84120 0.76150 0.04600
C 	C 	0.13641 0.84070 0.80113 -0.06800
H 	H 	0.14090 0.82170 0.80240 0.04800
C 	C 	0.13709 0.88760 0.82690 -0.06800
H 	H 	0.14160 0.89770 0.84310 0.04600
C 	C 	0.12516 0.89780 0.80190 -0.04400
H 	H 	0.12080 0.91680 0.80030 0.04700
O 	O 	0.09675 0.47304 0.13383 -0.40000
O 	O 	0.13132 0.47214 0.16941 -0.36400
C 	C 	0.10643 0.46534 0.15494 0.27000
C 	C 	0.09270 0.44429 0.17339 -0.02000
C 	C 	0.10059 0.43518 0.19807 -0.05100
H 	H 	0.11400 0.44510 0.20800 0.06600
C 	C 	0.12509 0.35153 0.27747 -0.04400
H 	H 	0.12080 0.34120 0.26150 0.04600
C 	C 	0.13641 0.34070 0.30113 -0.06800
H 	H 	0.14090 0.32170 0.30240 0.04800
C 	C 	0.13709 0.38760 0.32690 -0.06800
H 	H 	0.14160 0.39770 0.34310 0.04600
C 	C 	0.12516 0.39780 0.30190 -0.04400
H 	H 	0.12080 0.41680 0.30030 0.04700
O 	O 	0.40325 0.97304 0.86617 -0.39900
O 	O 	0.36868 0.97214 0.83059 -0.36300
C 	C 	0.39357 0.96534 0.84506 0.27000
C 	C 	0.40730 0.94429 0.82661 -0.02000
C 	C 	0.39941 0.93518 0.80193 -0.05100
H 	H 	0.38600 0.94510 0.79200 0.06600
C 	C 	0.37491 0.85153 0.72253 -0.04400
H 	H 	0.37920 0.84120 0.73850 0.04600
C 	C 	0.36359 0.84070 0.69887 -0.06800
H 	H 	0.35910 0.82170 0.69760 0.04800
C 	C 	0.36291 0.88760 0.67310 -0.06800
H 	H 	0.35840 0.89770 0.65690 0.04600
C 	C 	0.37484 0.89780 0.69810 -0.04400
H 	H 	0.37920 0.91680 0.69970 0.04700
O 	O 	0.40325 0.47304 0.36617 -0.40000
O 	O 	0.36868 0.47214 0.33059 -0.36400
C 	C 	0.39357 0.46534 0.34506 0.27000
C 	C 	0.40730 0.44429 0.32661 -0.02000
C 	C 	0.39941 0.43518 0.30193 -0.05100
H 	H 	0.38600 0.44510 0.29200 0.06600
C 	C 	0.37491 0.35153 0.22253 -0.04400
H 	H 	0.37920 0.34120 0.23850 0.04600
C 	C 	0.36359 0.34070 0.19887 -0.06800
H 	H 	0.35910 0.32170 0.19760 0.04800
C 	C 	0.36291 0.38760 0.17310 -0.06800
H 	H 	0.35840 0.39770 0.15690 0.04600
C 	C 	0.37484 0.39780 0.19810 -0.04400
H 	H 	0.37920 0.41680 0.19970 0.04700
O 	O 	0.90325 0.97304 0.36617 -0.39900
O 	O 	0.86868 0.97214 0.33059 -0.36300
C 	C 	0.89357 0.96534 0.34506 0.27000
C 	C 	0.90730 0.94429 0.32661 -0.02000
C 	C 	0.89941 0.93518 0.30193 -0.05100
H 	H 	0.88600 0.94510 0.29200 0.06600
C 	C 	0.87491 0.85153 0.22253 -0.04400
H 	H 	0.87920 0.84120 0.23850 0.04600
C 	C 	0.86359 0.84070 0.19887 -0.06800
H 	H 	0.85910 0.82170 0.19760 0.04800
C 	C 	0.86291 0.88760 0.17310 -0.06800
H 	H 	0.85840 0.89770 0.15690 0.04600
C 	C 	0.87484 0.89780 0.19810 -0.04400
H 	H 	0.87920 0.91680 0.19970 0.04700
O 	O 	0.90325 0.47304 0.86617 -0.40000
O 	O 	0.86868 0.47214 0.83059 -0.36400
C 	C 	0.89357 0.46534 0.84506 0.27000
C 	C 	0.90730 0.44429 0.82661 -0.02000
C 	C 	0.89941 0.43518 0.80193 -0.05100
H 	H 	0.88600 0.44510 0.79200 0.06600
C 	C 	0.87491 0.35153 0.72253 -0.04400
H 	H 	0.87920 0.34120 0.73850 0.04600
C 	C 	0.86359 0.34070 0.69887 -0.06800
H 	H 	0.85910 0.32170 0.69760 0.04800
C 	C 	0.86291 0.38760 0.67310 -0.06800
H 	H 	0.85840 0.39770 0.65690 0.04600
C 	C 	0.87484 0.39780 0.69810 -0.04400
H 	H 	0.87920 0.41680 0.69970 0.04700
O 	O 	0.59675 0.86617 0.97304 -0.39900
O 	O 	0.63132 0.83059 0.97214 -0.36300
C 	C 	0.60643 0.84506 0.96534 0.27000
C 	C 	0.59270 0.82661 0.94429 -0.02000
C 	C 	0.60059 0.80193 0.93518 -0.05100
H 	H 	0.61400 0.79200 0.94510 0.06600
C 	C 	0.62509 0.72253 0.85153 -0.04400
H 	H 	0.62080 0.73850 0.84120 0.04600
C 	C 	0.63641 0.69887 0.84070 -0.06800
H 	H 	0.64090 0.69760 0.82170 0.04800
C 	C 	0.63709 0.67310 0.88760 -0.06800
H 	H 	0.64160 0.65690 0.89770 0.04600
C 	C 	0.62516 0.69810 0.89780 -0.04400
H 	H 	0.62080 0.69970 0.91680 0.04700
O 	O 	0.59675 0.36617 0.47304 -0.40000
O 	O 	0.63132 0.33059 0.47214 -0.36400
C 	C 	0.60643 0.34506 0.46534 0.27000
C 	C 	0.59270 0.32661 0.44429 -0.02000
C 	C 	0.60059 0.30193 0.43518 -0.05100
H 	H 	0.61400 0.29200 0.44510 0.06600
C 	C 	0.62509 0.22253 0.35153 -0.04400
H 	H 	0.62080 0.23850 0.34120 0.04600
C 	C 	0.63641 0.19887 0.34070 -0.06800
H 	H 	0.64090 0.19760 0.32170 0.04800
C 	C 	0.63709 0.17310 0.38760 -0.06800
H 	H 	0.64160 0.15690 0.39770 0.04600
C 	C 	0.62516 0.19810 0.39780 -0.04400
H 	H 	0.62080 0.19970 0.41680 0.04700
O 	O 	0.09675 0.86617 0.47304 -0.40000
O 	O 	0.13132 0.83059 0.47214 -0.36400
C 	C 	0.10643 0.84506 0.46534 0.27000
C 	C 	0.09270 0.82661 0.44429 -0.02000
C 	C 	0.10059 0.80193 0.43518 -0.05100
H 	H 	0.11400 0.79200 0.44510 0.06600
C 	C 	0.12509 0.72253 0.35153 -0.04400
H 	H 	0.12080 0.73850 0.34120 0.04600
C 	C 	0.13641 0.69887 0.34070 -0.06800
H 	H 	0.14090 0.69760 0.32170 0.04800
C 	C 	0.13709 0.67310 0.38760 -0.06800
H 	H 	0.14160 0.65690 0.39770 0.04600
C 	C 	0.12516 0.69810 0.39780 -0.04400
H 	H 	0.12080 0.69970 0.41680 0.04600
O 	O 	0.09675 0.36617 0.97304 -0.40000
O 	O 	0.13132 0.33059 0.97214 -0.36300
C 	C 	0.10643 0.34506 0.96534 0.27000
C 	C 	0.09270 0.32661 0.94429 -0.02000
C 	C 	0.10059 0.30193 0.93518 -0.05100
H 	H 	0.11400 0.29200 0.94510 0.06600
C 	C 	0.12509 0.22253 0.85153 -0.04400
H 	H 	0.12080 0.23850 0.84120 0.04600
C 	C 	0.13641 0.19887 0.84070 -0.06800
H 	H 	0.14090 0.19760 0.82170 0.04800
C 	C 	0.13709 0.17310 0.88760 -0.06800
H 	H 	0.14160 0.15690 0.89770 0.04600
C 	C 	0.12516 0.19810 0.89780 -0.04400
H 	H 	0.12080 0.19970 0.91680 0.04700
O 	O 	0.40325 0.13383 0.97304 -0.40000
O 	O 	0.36868 0.16941 0.97214 -0.36300
C 	C 	0.39357 0.15494 0.96534 0.27000
C 	C 	0.40730 0.17339 0.94429 -0.02000
C 	C 	0.39941 0.19807 0.93518 -0.05100
H 	H 	0.38600 0.20800 0.94510 0.06600
C 	C 	0.37491 0.27747 0.85153 -0.04400
H 	H 	0.37920 0.26150 0.84120 0.04600
C 	C 	0.36359 0.30113 0.84070 -0.06800
H 	H 	0.35910 0.30240 0.82170 0.04800
C 	C 	0.36291 0.32690 0.88760 -0.06800
H 	H 	0.35840 0.34310 0.89770 0.04600
C 	C 	0.37484 0.30190 0.89780 -0.04400
H 	H 	0.37920 0.30030 0.91680 0.04700
O 	O 	0.40325 0.63383 0.47304 -0.40000
O 	O 	0.36868 0.66941 0.47214 -0.36400
C 	C 	0.39357 0.65494 0.46534 0.27000
C 	C 	0.40730 0.67339 0.44429 -0.02000
C 	C 	0.39941 0.69807 0.43518 -0.05100
H 	H 	0.38600 0.70800 0.44510 0.06600
C 	C 	0.37491 0.77747 0.35153 -0.04400
H 	H 	0.37920 0.76150 0.34120 0.04600
C 	C 	0.36359 0.80113 0.34070 -0.06800
H 	H 	0.35910 0.80240 0.32170 0.04800
C 	C 	0.36291 0.82690 0.38760 -0.06800
H 	H 	0.35840 0.84310 0.39770 0.04600
C 	C 	0.37484 0.80190 0.39780 -0.04400
H 	H 	0.37920 0.80030 0.41680 0.04700
O 	O 	0.90325 0.13383 0.47304 -0.40000
O 	O 	0.86868 0.16941 0.47214 -0.36400
C 	C 	0.89357 0.15494 0.46534 0.27000
C 	C 	0.90730 0.17339 0.44429 -0.02000
C 	C 	0.89941 0.19807 0.43518 -0.05100
H 	H 	0.88600 0.20800 0.44510 0.06600
C 	C 	0.87491 0.27747 0.35153 -0.04400
H 	H 	0.87920 0.26150 0.34120 0.04600
C 	C 	0.86359 0.30113 0.34070 -0.06800
H 	H 	0.85910 0.30240 0.32170 0.04800
C 	C 	0.86291 0.32690 0.38760 -0.06800
H 	H 	0.85840 0.34310 0.39770 0.04600
C 	C 	0.87484 0.30190 0.39780 -0.04400
H 	H 	0.87920 0.30030 0.41680 0.04700
O 	O 	0.90325 0.63383 0.97304 -0.39900
O 	O 	0.86868 0.66941 0.97214 -0.36300
C 	C 	0.89357 0.65494 0.96534 0.27000
C 	C 	0.90730 0.67339 0.94429 -0.02000
C 	C 	0.89941 0.69807 0.93518 -0.05100
H 	H 	0.88600 0.70800 0.94510 0.06600
C 	C 	0.87491 0.77747 0.85153 -0.04400
H 	H 	0.87920 0.76150 0.84120 0.04600
C 	C 	0.86359 0.80113 0.84070 -0.06800
H 	H 	0.85910 0.80240 0.82170 0.04800
C 	C 	0.86291 0.82690 0.88760 -0.06800
H 	H 	0.85840 0.84310 0.89770 0.04600
C 	C 	0.87484 0.80190 0.89780 -0.04400
H 	H 	0.87920 0.80030 0.91680 0.04700
O 	O 	0.59675 0.13383 0.02696 -0.40100
O 	O 	0.63132 0.16941 0.02786 -0.36400
C 	C 	0.60643 0.15494 0.03466 0.27000
C 	C 	0.59270 0.17339 0.05571 -0.02100
C 	C 	0.60059 0.19807 0.06482 -0.05100
H 	H 	0.61400 0.20800 0.05490 0.06500
C 	C 	0.62509 0.27747 0.14847 -0.04400
H 	H 	0.62080 0.26150 0.15880 0.04600
C 	C 	0.63641 0.30113 0.15930 -0.06800
H 	H 	0.64090 0.30240 0.17830 0.04800
C 	C 	0.63709 0.32690 0.11240 -0.06800
H 	H 	0.64160 0.34310 0.10230 0.04600
C 	C 	0.62516 0.30190 0.10220 -0.04400
H 	H 	0.62080 0.30030 0.08320 0.04600
O 	O 	0.59675 0.63383 0.52696 -0.40000
O 	O 	0.63132 0.66941 0.52786 -0.36400
C 	C 	0.60643 0.65494 0.53466 0.27000
C 	C 	0.59270 0.67339 0.55571 -0.02000
C 	C 	0.60059 0.69807 0.56482 -0.05100
H 	H 	0.61400 0.70800 0.55490 0.06600
C 	C 	0.62509 0.77747 0.64847 -0.04400
H 	H 	0.62080 0.76150 0.65880 0.04600
C 	C 	0.63641 0.80113 0.65930 -0.06800
H 	H 	0.64090 0.80240 0.67830 0.04800
C 	C 	0.63709 0.82690 0.61240 -0.06800
H 	H 	0.64160 0.84310 0.60230 0.04600
C 	C 	0.62516 0.80190 0.60220 -0.04400
H 	H 	0.62080 0.80030 0.58320 0.04700
O 	O 	0.09675 0.13383 0.52696 -0.40000
O 	O 	0.13132 0.16941 0.52786 -0.36400
C 	C 	0.10643 0.15494 0.53466 0.27000
C 	C 	0.09270 0.17339 0.55571 -0.02000
C 	C 	0.10059 0.19807 0.56482 -0.05100
H 	H 	0.11400 0.20800 0.55490 0.06600
C 	C 	0.12509 0.27747 0.64847 -0.04400
H 	H 	0.12080 0.26150 0.65880 0.04600
C 	C 	0.13641 0.30113 0.65930 -0.06800
H 	H 	0.14090 0.30240 0.67830 0.04800
C 	C 	0.13709 0.32690 0.61240 -0.06800
H 	H 	0.14160 0.34310 0.60230 0.04600
C 	C 	0.12516 0.30190 0.60220 -0.04400
H 	H 	0.12080 0.30030 0.58320 0.04700
O 	O 	0.09675 0.63383 0.02696 -0.40100
O 	O 	0.13132 0.66941 0.02786 -0.36400
C 	C 	0.10643 0.65494 0.03466 0.27000
C 	C 	0.09270 0.67339 0.05571 -0.02100
C 	C 	0.10059 0.69807 0.06482 -0.05100
H 	H 	0.11400 0.70800 0.05490 0.06500
C 	C 	0.12509 0.77747 0.14847 -0.04400
H 	H 	0.12080 0.76150 0.15880 0.04600
C 	C 	0.13641 0.80113 0.15930 -0.06800
H 	H 	0.14090 0.80240 0.17830 0.04800
C 	C 	0.13709 0.82690 0.11240 -0.06800
H 	H 	0.14160 0.84310 0.10230 0.04600
C 	C 	0.12516 0.80190 0.10220 -0.04400
H 	H 	0.12080 0.80030 0.08320 0.04600
O 	O 	0.40325 0.86617 0.02696 -0.40100
O 	O 	0.36868 0.83059 0.02786 -0.36400
C 	C 	0.39357 0.84506 0.03466 0.27000
C 	C 	0.40730 0.82661 0.05571 -0.02100
C 	C 	0.39941 0.80193 0.06482 -0.05100
H 	H 	0.38600 0.79200 0.05490 0.06500
C 	C 	0.37491 0.72253 0.14847 -0.04400
H 	H 	0.37920 0.73850 0.15880 0.04600
C 	C 	0.36359 0.69887 0.15930 -0.06800
H 	H 	0.35910 0.69760 0.17830 0.04800
C 	C 	0.36291 0.67310 0.11240 -0.06800
H 	H 	0.35840 0.65690 0.10230 0.04600
C 	C 	0.37484 0.69810 0.10220 -0.04400
H 	H 	0.37920 0.69970 0.08320 0.04600
O 	O 	0.40325 0.36617 0.52696 -0.40000
O 	O 	0.36868 0.33059 0.52786 -0.36400
C 	C 	0.39357 0.34506 0.53466 0.27000
C 	C 	0.40730 0.32661 0.55571 -0.02000
C 	C 	0.39941 0.30193 0.56482 -0.05100
H 	H 	0.38600 0.29200 0.55490 0.06600
C 	C 	0.37491 0.22253 0.64847 -0.04400
H 	H 	0.37920 0.23850 0.65880 0.04600
C 	C 	0.36359 0.19887 0.65930 -0.06800
H 	H 	0.35910 0.19760 0.67830 0.04800
C 	C 	0.36291 0.17310 0.61240 -0.06800
H 	H 	0.35840 0.15690 0.60230 0.04600
C 	C 	0.37484 0.19810 0.60220 -0.04400
H 	H 	0.37920 0.19970 0.58320 0.04700
O 	O 	0.90325 0.86617 0.52696 -0.40000
O 	O 	0.86868 0.83059 0.52786 -0.36400
C 	C 	0.89357 0.84506 0.53466 0.27000
C 	C 	0.90730 0.82661 0.55571 -0.02000
C 	C 	0.89941 0.80193 0.56482 -0.05100
H 	H 	0.88600 0.79200 0.55490 0.06600
C 	C 	0.87491 0.72253 0.64847 -0.04400
H 	H 	0.87920 0.73850 0.65880 0.04600
C 	C 	0.86359 0.69887 0.65930 -0.06800
H 	H 	0.85910 0.69760 0.67830 0.04800
C 	C 	0.86291 0.67310 0.61240 -0.06800
H 	H 	0.85840 0.65690 0.60230 0.04600
C 	C 	0.87484 0.69810 0.60220 -0.04400
H 	H 	0.87920 0.69970 0.58320 0.04700
O 	O 	0.90325 0.36617 0.02696 -0.40100
O 	O 	0.86868 0.33059 0.02786 -0.36400
C 	C 	0.89357 0.34506 0.03466 0.27000
C 	C 	0.90730 0.32661 0.05571 -0.02000
C 	C 	0.89941 0.30193 0.06482 -0.05100
H 	H 	0.88600 0.29200 0.05490 0.06600
C 	C 	0.87491 0.22253 0.14847 -0.04400
H 	H 	0.87920 0.23850 0.15880 0.04600
C 	C 	0.86359 0.19887 0.15930 -0.06800
H 	H 	0.85910 0.19760 0.17830 0.04800
C 	C 	0.86291 0.17310 0.11240 -0.06800
H 	H 	0.85840 0.15690 0.10230 0.04600
C 	C 	0.87484 0.19810 0.10220 -0.04400
H 	H 	0.87920 0.19970 0.08320 0.04600
O 	O 	0.86617 0.02696 0.40325 -0.40100
O 	O 	0.83059 0.02786 0.36868 -0.36400
C 	C 	0.84506 0.03466 0.39357 0.27000
C 	C 	0.82661 0.05571 0.40730 -0.02100
C 	C 	0.80193 0.06482 0.39941 -0.05100
H 	H 	0.79200 0.05490 0.38600 0.06500
C 	C 	0.72253 0.14847 0.37491 -0.04400
H 	H 	0.73850 0.15880 0.37920 0.04600
C 	C 	0.69887 0.15930 0.36359 -0.06800
H 	H 	0.69760 0.17830 0.35910 0.04800
C 	C 	0.67310 0.11240 0.36291 -0.06800
H 	H 	0.65690 0.10230 0.35840 0.04600
C 	C 	0.69810 0.10220 0.37484 -0.04400
H 	H 	0.69970 0.08320 0.37920 0.04600
O 	O 	0.86617 0.52696 0.90325 -0.40000
O 	O 	0.83059 0.52786 0.86868 -0.36400
C 	C 	0.84506 0.53466 0.89357 0.27000
C 	C 	0.82661 0.55571 0.90730 -0.02000
C 	C 	0.80193 0.56482 0.89941 -0.05100
H 	H 	0.79200 0.55490 0.88600 0.06600
C 	C 	0.72253 0.64847 0.87491 -0.04400
H 	H 	0.73850 0.65880 0.87920 0.04600
C 	C 	0.69887 0.65930 0.86359 -0.06800
H 	H 	0.69760 0.67830 0.85910 0.04800
C 	C 	0.67310 0.61240 0.86291 -0.06800
H 	H 	0.65690 0.60230 0.85840 0.04600
C 	C 	0.69810 0.60220 0.87484 -0.04400
H 	H 	0.69970 0.58320 0.87920 0.04700
O 	O 	0.36617 0.02696 0.90325 -0.40100
O 	O 	0.33059 0.02786 0.86868 -0.36400
C 	C 	0.34506 0.03466 0.89357 0.27000
C 	C 	0.32661 0.05571 0.90730 -0.02000
C 	C 	0.30193 0.06482 0.89941 -0.05100
H 	H 	0.29200 0.05490 0.88600 0.06600
C 	C 	0.22253 0.14847 0.87491 -0.04400
H 	H 	0.23850 0.15880 0.87920 0.04600
C 	C 	0.19887 0.15930 0.86359 -0.06800
H 	H 	0.19760 0.17830 0.85910 0.04800
C 	C 	0.17310 0.11240 0.86291 -0.06800
H 	H 	0.15690 0.10230 0.85840 0.04600
C 	C 	0.19810 0.10220 0.87484 -0.04400
H 	H 	0.19970 0.08320 0.87920 0.04600
O 	O 	0.36617 0.52696 0.40325 -0.40000
O 	O 	0.33059 0.52786 0.36868 -0.36400
C 	C 	0.34506 0.53466 0.39357 0.27000
C 	C 	0.32661 0.55571 0.40730 -0.02000
C 	C 	0.30193 0.56482 0.39941 -0.05100
H 	H 	0.29200 0.55490 0.38600 0.06600
C 	C 	0.22253 0.64847 0.37491 -0.04400
H 	H 	0.23850 0.65880 0.37920 0.04600
C 	C 	0.19887 0.65930 0.36359 -0.06800
H 	H 	0.19760 0.67830 0.35910 0.04800
C 	C 	0.17310 0.61240 0.36291 -0.06800
H 	H 	0.15690 0.60230 0.35840 0.04600
C 	C 	0.19810 0.60220 0.37484 -0.04400
H 	H 	0.19970 0.58320 0.37920 0.04700
O 	O 	0.13383 0.02696 0.59675 -0.40100
O 	O 	0.16941 0.02786 0.63132 -0.36400
C 	C 	0.15494 0.03466 0.60643 0.27000
C 	C 	0.17339 0.05571 0.59270 -0.02100
C 	C 	0.19807 0.06482 0.60059 -0.05100
H 	H 	0.20800 0.05490 0.61400 0.06500
C 	C 	0.27747 0.14847 0.62509 -0.04400
H 	H 	0.26150 0.15880 0.62080 0.04600
C 	C 	0.30113 0.15930 0.63641 -0.06800
H 	H 	0.30240 0.17830 0.64090 0.04800
C 	C 	0.32690 0.11240 0.63709 -0.06800
H 	H 	0.34310 0.10230 0.64160 0.04600
C 	C 	0.30190 0.10220 0.62516 -0.04400
H 	H 	0.30030 0.08320 0.62080 0.04600
O 	O 	0.13383 0.52696 0.09675 -0.40000
O 	O 	0.16941 0.52786 0.13132 -0.36400
C 	C 	0.15494 0.53466 0.10643 0.27000
C 	C 	0.17339 0.55571 0.09270 -0.02000
C 	C 	0.19807 0.56482 0.10059 -0.05100
H 	H 	0.20800 0.55490 0.11400 0.06600
C 	C 	0.27747 0.64847 0.12509 -0.04400
H 	H 	0.26150 0.65880 0.12080 0.04600
C 	C 	0.30113 0.65930 0.13641 -0.06800
H 	H 	0.30240 0.67830 0.14090 0.04800
C 	C 	0.32690 0.61240 0.13709 -0.06800
H 	H 	0.34310 0.60230 0.14160 0.04600
C 	C 	0.30190 0.60220 0.12516 -0.04400
H 	H 	0.30030 0.58320 0.12080 0.04700
O 	O 	0.63383 0.02696 0.09675 -0.40100
O 	O 	0.66941 0.02786 0.13132 -0.36400
C 	C 	0.65494 0.03466 0.10643 0.27000
C 	C 	0.67339 0.05571 0.09270 -0.02100
C 	C 	0.69807 0.06482 0.10059 -0.05100
H 	H 	0.70800 0.05490 0.11400 0.06500
C 	C 	0.77747 0.14847 0.12509 -0.04400
H 	H 	0.76150 0.15880 0.12080 0.04600
C 	C 	0.80113 0.15930 0.13641 -0.06800
H 	H 	0.80240 0.17830 0.14090 0.04800
C 	C 	0.82690 0.11240 0.13709 -0.06800
H 	H 	0.84310 0.10230 0.14160 0.04600
C 	C 	0.80190 0.10220 0.12516 -0.04400
H 	H 	0.80030 0.08320 0.12080 0.04600
O 	O 	0.63383 0.52696 0.59675 -0.40000
O 	O 	0.66941 0.52786 0.63132 -0.36400
C 	C 	0.65494 0.53466 0.60643 0.27000
C 	C 	0.67339 0.55571 0.59270 -0.02000
C 	C 	0.69807 0.56482 0.60059 -0.05100
H 	H 	0.70800 0.55490 0.61400 0.06600
C 	C 	0.77747 0.64847 0.62509 -0.04400
H 	H 	0.76150 0.65880 0.62080 0.04600
C 	C 	0.80113 0.65930 0.63641 -0.06800
H 	H 	0.80240 0.67830 0.64090 0.04800
C 	C 	0.82690 0.61240 0.63709 -0.06800
H 	H 	0.84310 0.60230 0.64160 0.04600
C 	C 	0.80190 0.60220 0.62516 -0.04400
H 	H 	0.80030 0.58320 0.62080 0.04700
O 	O 	0.13383 0.97304 0.40325 -0.40000
O 	O 	0.16941 0.97214 0.36868 -0.36300
C 	C 	0.15494 0.96534 0.39357 0.27000
C 	C 	0.17339 0.94429 0.40730 -0.02000
C 	C 	0.19807 0.93518 0.39941 -0.05100
H 	H 	0.20800 0.94510 0.38600 0.06600
C 	C 	0.27747 0.85153 0.37491 -0.04400
H 	H 	0.26150 0.84120 0.37920 0.04600
C 	C 	0.30113 0.84070 0.36359 -0.06800
H 	H 	0.30240 0.82170 0.35910 0.04800
C 	C 	0.32690 0.88760 0.36291 -0.06800
H 	H 	0.34310 0.89770 0.35840 0.04600
C 	C 	0.30190 0.89780 0.37484 -0.04400
H 	H 	0.30030 0.91680 0.37920 0.04700
O 	O 	0.13383 0.47304 0.90325 -0.40000
O 	O 	0.16941 0.47214 0.86868 -0.36400
C 	C 	0.15494 0.46534 0.89357 0.27000
C 	C 	0.17339 0.44429 0.90730 -0.02000
C 	C 	0.19807 0.43518 0.89941 -0.05100
H 	H 	0.20800 0.44510 0.88600 0.06600
C 	C 	0.27747 0.35153 0.87491 -0.04400
H 	H 	0.26150 0.34120 0.87920 0.04600
C 	C 	0.30113 0.34070 0.86359 -0.06800
H 	H 	0.30240 0.32170 0.85910 0.04800
C 	C 	0.32690 0.38760 0.86291 -0.06800
H 	H 	0.34310 0.39770 0.85840 0.04600
C 	C 	0.30190 0.39780 0.87484 -0.04400
H 	H 	0.30030 0.41680 0.87920 0.04700
O 	O 	0.63383 0.97304 0.90325 -0.39900
O 	O 	0.66941 0.97214 0.86868 -0.36300
C 	C 	0.65494 0.96534 0.89357 0.27000
C 	C 	0.67339 0.94429 0.90730 -0.02000
C 	C 	0.69807 0.93518 0.89941 -0.05100
H 	H 	0.70800 0.94510 0.88600 0.06600
C 	C 	0.77747 0.85153 0.87491 -0.04400
H 	H 	0.76150 0.84120 0.87920 0.04600
C 	C 	0.80113 0.84070 0.86359 -0.06800
H 	H 	0.80240 0.82170 0.85910 0.04800
C 	C 	0.82690 0.88760 0.86291 -0.06800
H 	H 	0.84310 0.89770 0.85840 0.04600
C 	C 	0.80190 0.89780 0.87484 -0.04400
H 	H 	0.80030 0.91680 0.87920 0.04700
O 	O 	0.63383 0.47304 0.40325 -0.40000
O 	O 	0.66941 0.47214 0.36868 -0.36400
C 	C 	0.65494 0.46534 0.39357 0.27000
C 	C 	0.67339 0.44429 0.40730 -0.02000
C 	C 	0.69807 0.43518 0.39941 -0.05100
H 	H 	0.70800 0.44510 0.38600 0.06600
C 	C 	0.77747 0.35153 0.37491 -0.04400
H 	H 	0.76150 0.34120 0.37920 0.04600
C 	C 	0.80113 0.34070 0.36359 -0.06800
H 	H 	0.80240 0.32170 0.35910 0.04800
C 	C 	0.82690 0.38760 0.36291 -0.06800
H 	H 	0.84310 0.39770 0.35840 0.04600
C 	C 	0.80190 0.39780 0.37484 -0.04400
H 	H 	0.80030 0.41680 0.37920 0.04700
O 	O 	0.86617 0.97304 0.59675 -0.39900
O 	O 	0.83059 0.97214 0.63132 -0.36300
C 	C 	0.84506 0.96534 0.60643 0.27000
C 	C 	0.82661 0.94429 0.59270 -0.02000
C 	C 	0.80193 0.93518 0.60059 -0.05100
H 	H 	0.79200 0.94510 0.61400 0.06600
C 	C 	0.72253 0.85153 0.62509 -0.04400
H 	H 	0.73850 0.84120 0.62080 0.04600
C 	C 	0.69887 0.84070 0.63641 -0.06800
H 	H 	0.69760 0.82170 0.64090 0.04800
C 	C 	0.67310 0.88760 0.63709 -0.06800
H 	H 	0.65690 0.89770 0.64160 0.04600
C 	C 	0.69810 0.89780 0.62516 -0.04400
H 	H 	0.69970 0.91680 0.62080 0.04700
O 	O 	0.86617 0.47304 0.09675 -0.40000
O 	O 	0.83059 0.47214 0.13132 -0.36400
C 	C 	0.84506 0.46534 0.10643 0.27000
C 	C 	0.82661 0.44429 0.09270 -0.02000
C 	C 	0.80193 0.43518 0.10059 -0.05100
H 	H 	0.79200 0.44510 0.11400 0.06600
C 	C 	0.72253 0.35153 0.12509 -0.04400
H 	H 	0.73850 0.34120 0.12080 0.04600
C 	C 	0.69887 0.34070 0.13641 -0.06800
H 	H 	0.69760 0.32170 0.14090 0.04800
C 	C 	0.67310 0.38760 0.13709 -0.06800
H 	H 	0.65690 0.39770 0.14160 0.04600
C 	C 	0.69810 0.39780 0.12516 -0.04400
H 	H 	0.69970 0.41680 0.12080 0.04600
O 	O 	0.36617 0.97304 0.09675 -0.40000
O 	O 	0.33059 0.97214 0.13132 -0.36300
C 	C 	0.34506 0.96534 0.10643 0.27000
C 	C 	0.32661 0.94429 0.09270 -0.02000
C 	C 	0.30193 0.93518 0.10059 -0.05100
H 	H 	0.29200 0.94510 0.11400 0.06600
C 	C 	0.22253 0.85153 0.12509 -0.04400
H 	H 	0.23850 0.84120 0.12080 0.04600
C 	C 	0.19887 0.84070 0.13641 -0.06800
H 	H 	0.19760 0.82170 0.14090 0.04800
C 	C 	0.17310 0.88760 0.13709 -0.06800
H 	H 	0.15690 0.89770 0.14160 0.04600
C 	C 	0.19810 0.89780 0.12516 -0.04400
H 	H 	0.19970 0.91680 0.12080 0.04700
O 	O 	0.36617 0.47304 0.59675 -0.40000
O 	O 	0.33059 0.47214 0.63132 -0.36400
C 	C 	0.34506 0.46534 0.60643 0.27000
C 	C 	0.32661 0.44429 0.59270 -0.02000
C 	C 	0.30193 0.43518 0.60059 -0.05100
H 	H 	0.29200 0.44510 0.61400 0.06600
C 	C 	0.22253 0.35153 0.62509 -0.04400
H 	H 	0.23850 0.34120 0.62080 0.04600
C 	C 	0.19887 0.34070 0.63641 -0.06800
H 	H 	0.19760 0.32170 0.64090 0.04800
C 	C 	0.17310 0.38760 0.63709 -0.06800
H 	H 	0.15690 0.39770 0.64160 0.04600
C 	C 	0.19810 0.39780 0.62516 -0.04400
H 	H 	0.19970 0.41680 0.62080 0.04700
O 	O 	0.02696 0.59675 0.13383 -0.40100
O 	O 	0.02786 0.63132 0.16941 -0.36400
C 	C 	0.03466 0.60643 0.15494 0.27000
C 	C 	0.05571 0.59270 0.17339 -0.02100
C 	C 	0.06482 0.60059 0.19807 -0.05100
H 	H 	0.05490 0.61400 0.20800 0.06500
C 	C 	0.14847 0.62509 0.27747 -0.04400
H 	H 	0.15880 0.62080 0.26150 0.04600
C 	C 	0.15930 0.63641 0.30113 -0.06800
H 	H 	0.17830 0.64090 0.30240 0.04800
C 	C 	0.11240 0.63709 0.32690 -0.06800
H 	H 	0.10230 0.64160 0.34310 0.04600
C 	C 	0.10220 0.62516 0.30190 -0.04400
H 	H 	0.08320 0.62080 0.30030 0.04600
O 	O 	0.02696 0.09675 0.63383 -0.40100
O 	O 	0.02786 0.13132 0.66941 -0.36400
C 	C 	0.03466 0.10643 0.65494 0.27000
C 	C 	0.05571 0.09270 0.67339 -0.02100
C 	C 	0.06482 0.10059 0.69807 -0.05100
H 	H 	0.05490 0.11400 0.70800 0.06500
C 	C 	0.14847 0.12509 0.77747 -0.04400
H 	H 	0.15880 0.12080 0.76150 0.04600
C 	C 	0.15930 0.13641 0.80113 -0.06800
H 	H 	0.17830 0.14090 0.80240 0.04800
C 	C 	0.11240 0.13709 0.82690 -0.06800
H 	H 	0.10230 0.14160 0.84310 0.04600
C 	C 	0.10220 0.12516 0.80190 -0.04400
H 	H 	0.08320 0.12080 0.80030 0.04600
O 	O 	0.52696 0.59675 0.63383 -0.40000
O 	O 	0.52786 0.63132 0.66941 -0.36400
C 	C 	0.53466 0.60643 0.65494 0.27000
C 	C 	0.55571 0.59270 0.67339 -0.02000
C 	C 	0.56482 0.60059 0.69807 -0.05100
H 	H 	0.55490 0.61400 0.70800 0.06600
C 	C 	0.64847 0.62509 0.77747 -0.04400
H 	H 	0.65880 0.62080 0.76150 0.04600
C 	C 	0.65930 0.63641 0.80113 -0.06800
H 	H 	0.67830 0.64090 0.80240 0.04800
C 	C 	0.61240 0.63709 0.82690 -0.06800
H 	H 	0.60230 0.64160 0.84310 0.04600
C 	C 	0.60220 0.62516 0.80190 -0.04400
H 	H 	0.58320 0.62080 0.80030 0.04700
O 	O 	0.52696 0.09675 0.13383 -0.40000
O 	O 	0.52786 0.13132 0.16941 -0.36400
C 	C 	0.53466 0.10643 0.15494 0.27000
C 	C 	0.55571 0.09270 0.17339 -0.02000
C 	C 	0.56482 0.10059 0.19807 -0.05100
H 	H 	0.55490 0.11400 0.20800 0.06600
C 	C 	0.64847 0.12509 0.27747 -0.04400
H 	H 	0.65880 0.12080 0.26150 0.04600
C 	C 	0.65930 0.13641 0.30113 -0.06800
H 	H 	0.67830 0.14090 0.30240 0.04800
C 	C 	0.61240 0.13709 0.32690 -0.06800
H 	H 	0.60230 0.14160 0.34310 0.04600
C 	C 	0.60220 0.12516 0.30190 -0.04400
H 	H 	0.58320 0.12080 0.30030 0.04700
O 	O 	0.02696 0.40325 0.86617 -0.40100
O 	O 	0.02786 0.36868 0.83059 -0.36400
C 	C 	0.03466 0.39357 0.84506 0.27000
C 	C 	0.05571 0.40730 0.82661 -0.02100
C 	C 	0.06482 0.39941 0.80193 -0.05100
H 	H 	0.05490 0.38600 0.79200 0.06500
C 	C 	0.14847 0.37491 0.72253 -0.04400
H 	H 	0.15880 0.37920 0.73850 0.04600
C 	C 	0.15930 0.36359 0.69887 -0.06800
H 	H 	0.17830 0.35910 0.69760 0.04800
C 	C 	0.11240 0.36291 0.67310 -0.06800
H 	H 	0.10230 0.35840 0.65690 0.04600
C 	C 	0.10220 0.37484 0.69810 -0.04400
H 	H 	0.08320 0.37920 0.69970 0.04600
O 	O 	0.02696 0.90325 0.36617 -0.40100
O 	O 	0.02786 0.86868 0.33059 -0.36400
C 	C 	0.03466 0.89357 0.34506 0.27000
C 	C 	0.05571 0.90730 0.32661 -0.02000
C 	C 	0.06482 0.89941 0.30193 -0.05100
H 	H 	0.05490 0.88600 0.29200 0.06600
C 	C 	0.14847 0.87491 0.22253 -0.04400
H 	H 	0.15880 0.87920 0.23850 0.04600
C 	C 	0.15930 0.86359 0.19887 -0.06800
H 	H 	0.17830 0.85910 0.19760 0.04800
C 	C 	0.11240 0.86291 0.17310 -0.06800
H 	H 	0.10230 0.85840 0.15690 0.04600
C 	C 	0.10220 0.87484 0.19810 -0.04400
H 	H 	0.08320 0.87920 0.19970 0.04600
O 	O 	0.52696 0.40325 0.36617 -0.40000
O 	O 	0.52786 0.36868 0.33059 -0.36400
C 	C 	0.53466 0.39357 0.34506 0.27000
C 	C 	0.55571 0.40730 0.32661 -0.02000
C 	C 	0.56482 0.39941 0.30193 -0.05100
H 	H 	0.55490 0.38600 0.29200 0.06600
C 	C 	0.64847 0.37491 0.22253 -0.04400
H 	H 	0.65880 0.37920 0.23850 0.04600
C 	C 	0.65930 0.36359 0.19887 -0.06800
H 	H 	0.67830 0.35910 0.19760 0.04800
C 	C 	0.61240 0.36291 0.17310 -0.06800
H 	H 	0.60230 0.35840 0.15690 0.04600
C 	C 	0.60220 0.37484 0.19810 -0.04400
H 	H 	0.58320 0.37920 0.19970 0.04700
O 	O 	0.52696 0.90325 0.86617 -0.40000
O 	O 	0.52786 0.86868 0.83059 -0.36400
C 	C 	0.53466 0.89357 0.84506 0.27000
C 	C 	0.55571 0.90730 0.82661 -0.02000
C 	C 	0.56482 0.89941 0.80193 -0.05100
H 	H 	0.55490 0.88600 0.79200 0.06600
C 	C 	0.64847 0.87491 0.72253 -0.04400
H 	H 	0.65880 0.87920 0.73850 0.04600
C 	C 	0.65930 0.86359 0.69887 -0.06800
H 	H 	0.67830 0.85910 0.69760 0.04800
C 	C 	0.61240 0.86291 0.67310 -0.06800
H 	H 	0.60230 0.85840 0.65690 0.04600
C 	C 	0.60220 0.87484 0.69810 -0.04400
H 	H 	0.58320 0.87920 0.69970 0.04700
O 	O 	0.97304 0.59675 0.86617 -0.39900
O 	O 	0.97214 0.63132 0.83059 -0.36300
C 	C 	0.96534 0.60643 0.84506 0.27000
C 	C 	0.94429 0.59270 0.82661 -0.02000
C 	C 	0.93518 0.60059 0.80193 -0.05100
H 	H 	0.94510 0.61400 0.79200 0.06600
C 	C 	0.85153 0.62509 0.72253 -0.04400
H 	H 	0.84120 0.62080 0.73850 0.04600
C 	C 	0.84070 0.63641 0.69887 -0.06800
H 	H 	0.82170 0.64090 0.69760 0.04800
C 	C 	0.88760 0.63709 0.67310 -0.06800
H 	H 	0.89770 0.64160 0.65690 0.04600
C 	C 	0.89780 0.62516 0.69810 -0.04400
H 	H 	0.91680 0.62080 0.69970 0.04700
O 	O 	0.97304 0.09675 0.36617 -0.40000
O 	O 	0.97214 0.13132 0.33059 -0.36300
C 	C 	0.96534 0.10643 0.34506 0.27000
C 	C 	0.94429 0.09270 0.32661 -0.02000
C 	C 	0.93518 0.10059 0.30193 -0.05100
H 	H 	0.94510 0.11400 0.29200 0.06600
C 	C 	0.85153 0.12509 0.22253 -0.04400
H 	H 	0.84120 0.12080 0.23850 0.04600
C 	C 	0.84070 0.13641 0.19887 -0.06800
H 	H 	0.82170 0.14090 0.19760 0.04800
C 	C 	0.88760 0.13709 0.17310 -0.06800
H 	H 	0.89770 0.14160 0.15690 0.04600
C 	C 	0.89780 0.12516 0.19810 -0.04400
H 	H 	0.91680 0.12080 0.19970 0.04700
O 	O 	0.47304 0.59675 0.36617 -0.40000
O 	O 	0.47214 0.63132 0.33059 -0.36400
C 	C 	0.46534 0.60643 0.34506 0.27000
C 	C 	0.44429 0.59270 0.32661 -0.02000
C 	C 	0.43518 0.60059 0.30193 -0.05100
H 	H 	0.44510 0.61400 0.29200 0.06600
C 	C 	0.35153 0.62509 0.22253 -0.04400
H 	H 	0.34120 0.62080 0.23850 0.04600
C 	C 	0.34070 0.63641 0.19887 -0.06800
H 	H 	0.32170 0.64090 0.19760 0.04800
C 	C 	0.38760 0.63709 0.17310 -0.06800
H 	H 	0.39770 0.64160 0.15690 0.04600
C 	C 	0.39780 0.62516 0.19810 -0.04400
H 	H 	0.41680 0.62080 0.19970 0.04700
O 	O 	0.47304 0.09675 0.86617 -0.40000
O 	O 	0.47214 0.13132 0.83059 -0.36400
C 	C 	0.46534 0.10643 0.84506 0.27000
C 	C 	0.44429 0.09270 0.82661 -0.02000
C 	C 	0.43518 0.10059 0.80193 -0.05100
H 	H 	0.44510 0.11400 0.79200 0.06600
C 	C 	0.35153 0.12509 0.72253 -0.04400
H 	H 	0.34120 0.12080 0.73850 0.04600
C 	C 	0.34070 0.13641 0.69887 -0.06800
H 	H 	0.32170 0.14090 0.69760 0.04800
C 	C 	0.38760 0.13709 0.67310 -0.06800
H 	H 	0.39770 0.14160 0.65690 0.04600
C 	C 	0.39780 0.12516 0.69810 -0.04400
H 	H 	0.41680 0.12080 0.69970 0.04600
O 	O 	0.97304 0.40325 0.13383 -0.40000
O 	O 	0.97214 0.36868 0.16941 -0.36300
C 	C 	0.96534 0.39357 0.15494 0.27000
C 	C 	0.94429 0.40730 0.17339 -0.02000
C 	C 	0.93518 0.39941 0.19807 -0.05100
H 	H 	0.94510 0.38600 0.20800 0.06600
C 	C 	0.85153 0.37491 0.27747 -0.04400
H 	H 	0.84120 0.37920 0.26150 0.04600
C 	C 	0.84070 0.36359 0.30113 -0.06800
H 	H 	0.82170 0.35910 0.30240 0.04800
C 	C 	0.88760 0.36291 0.32690 -0.06800
H 	H 	0.89770 0.35840 0.34310 0.04600
C 	C 	0.89780 0.37484 0.30190 -0.04400
H 	H 	0.91680 0.37920 0.30030 0.04700
O 	O 	0.97304 0.90325 0.63383 -0.39900
O 	O 	0.97214 0.86868 0.66941 -0.36300
C 	C 	0.96534 0.89357 0.65494 0.27000
C 	C 	0.94429 0.90730 0.67339 -0.02000
C 	C 	0.93518 0.89941 0.69807 -0.05100
H 	H 	0.94510 0.88600 0.70800 0.06600
C 	C 	0.85153 0.87491 0.77747 -0.04400
H 	H 	0.84120 0.87920 0.76150 0.04600
C 	C 	0.84070 0.86359 0.80113 -0.06800
H 	H 	0.82170 0.85910 0.80240 0.04800
C 	C 	0.88760 0.86291 0.82690 -0.06800
H 	H 	0.89770 0.85840 0.84310 0.04600
C 	C 	0.89780 0.87484 0.80190 -0.04400
H 	H 	0.91680 0.87920 0.80030 0.04700
O 	O 	0.47304 0.40325 0.63383 -0.40000
O 	O 	0.47214 0.36868 0.66941 -0.36400
C 	C 	0.46534 0.39357 0.65494 0.27000
C 	C 	0.44429 0.40730 0.67339 -0.02000
C 	C 	0.43518 0.39941 0.69807 -0.05100
H 	H 	0.44510 0.38600 0.70800 0.06600
C 	C 	0.35153 0.37491 0.77747 -0.04400
H 	H 	0.34120 0.37920 0.76150 0.04600
C 	C 	0.34070 0.36359 0.80113 -0.06800
H 	H 	0.32170 0.35910 0.80240 0.04800
C 	C 	0.38760 0.36291 0.82690 -0.06800
H 	H 	0.39770 0.35840 0.84310 0.04600
C 	C 	0.39780 0.37484 0.80190 -0.04400
H 	H 	0.41680 0.37920 0.80030 0.04700
O 	O 	0.47304 0.90325 0.13383 -0.40000
O 	O 	0.47214 0.86868 0.16941 -0.36400
C 	C 	0.46534 0.89357 0.15494 0.27000
C 	C 	0.44429 0.90730 0.17339 -0.02000
C 	C 	0.43518 0.89941 0.19807 -0.05100
H 	H 	0.44510 0.88600 0.20800 0.06600
C 	C 	0.35153 0.87491 0.27747 -0.04400
H 	H 	0.34120 0.87920 0.26150 0.04600
C 	C 	0.34070 0.86359 0.30113 -0.06800
H 	H 	0.32170 0.85910 0.30240 0.04800
C 	C 	0.38760 0.86291 0.32690 -0.06800
H 	H 	0.39770 0.85840 0.34310 0.04600
C 	C 	0.39780 0.87484 0.30190 -0.04400
H 	H 	0.41680 0.87920 0.30030 0.04700
Cu	Cu	0.15331 0.34669 -0.00000 0.90300
Cu	Cu	0.11439 0.38561 -0.00000 0.93200
Cu	Cu	0.15331 0.84669 0.50000 0.90300
Cu	Cu	0.11439 0.88561 0.50000 0.93300
Cu	Cu	0.84669 0.65331 -0.00000 0.90300
Cu	Cu	0.88561 0.61439 -0.00000 0.93300
Cu	Cu	0.84669 0.15331 0.50000 0.90300
Cu	Cu	0.88561 0.11439 0.50000 0.93300
Cu	Cu	0.34669 0.15331 -0.00000 0.90300
Cu	Cu	0.38561 0.11439 -0.00000 0.93200
Cu	Cu	0.84669 0.34669 -0.00000 0.90300
Cu	Cu	0.88561 0.38561 -0.00000 0.93300
Cu	Cu	0.84669 0.84669 0.50000 0.90300
Cu	Cu	0.88561 0.88561 0.50000 0.93300
Cu	Cu	0.34669 0.34669 0.50000 0.90300
Cu	Cu	0.38561 0.38561 0.50000 0.93300
Cu	Cu	0.15331 0.65331 -0.00000 0.90300
Cu	Cu	0.11439 0.61439 -0.00000 0.93200
Cu	Cu	0.15331 0.15331 0.50000 0.90300
Cu	Cu	0.11439 0.11439 0.50000 0.93300
Cu	Cu	0.00000 0.15331 0.34669 0.90300
Cu	Cu	0.00000 0.11439 0.38561 0.93200
Cu	Cu	0.50000 0.15331 0.84669 0.90300
Cu	Cu	0.50000 0.11439 0.88561 0.93300
Cu	Cu	0.00000 0.84669 0.65331 0.90300
Cu	Cu	0.00000 0.88561 0.61439 0.93300
Cu	Cu	0.00000 0.34669 0.15331 0.90300
Cu	Cu	0.00000 0.38561 0.11439 0.93200
Cu	Cu	0.50000 0.84669 0.15331 0.90300
Cu	Cu	0.50000 0.88561 0.11439 0.93300
Cu	Cu	0.00000 0.84669 0.34669 0.90300
Cu	Cu	0.00000 0.88561 0.38561 0.93300
Cu	Cu	0.50000 0.84669 0.84669 0.90300
Cu	Cu	0.50000 0.88561 0.88561 0.93300
Cu	Cu	0.50000 0.34669 0.34669 0.90300
Cu	Cu	0.50000 0.38561 0.38561 0.93300
Cu	Cu	0.00000 0.15331 0.65331 0.90300
Cu	Cu	0.00000 0.11439 0.61439 0.93200
Cu	Cu	0.50000 0.15331 0.15331 0.90300
Cu	Cu	0.50000 0.11439 0.11439 0.93300
Cu	Cu	0.34669 0.00000 0.15331 0.90300
Cu	Cu	0.38561 0.00000 0.11439 0.93200
Cu	Cu	0.34669 0.50000 0.65331 0.90300
Cu	Cu	0.38561 0.50000 0.61439 0.93300
Cu	Cu	0.65331 0.00000 0.84669 0.90300
Cu	Cu	0.61439 0.00000 0.88561 0.93300
Cu	Cu	0.65331 0.50000 0.34669 0.90300
Cu	Cu	0.61439 0.50000 0.38561 0.93300
Cu	Cu	0.15331 0.00000 0.34669 0.90300
Cu	Cu	0.11439 0.00000 0.38561 0.93200
Cu	Cu	0.34669 0.00000 0.84669 0.90300
Cu	Cu	0.38561 0.00000 0.88561 0.93300
Cu	Cu	0.34669 0.50000 0.34669 0.90300
Cu	Cu	0.38561 0.50000 0.38561 0.93300
Cu	Cu	0.65331 0.00000 0.15331 0.90300
Cu	Cu	0.61439 0.00000 0.11439 0.93200
Cu	Cu	0.65331 0.50000 0.65331 0.90300
Cu	Cu	0.61439 0.50000 0.61439 0.93300
Cu	Cu	0.15331 0.50000 0.15331 0.90300
Cu	Cu	0.11439 0.50000 0.11439 0.93300
Cu	Cu	0.34669 0.65331 0.50000 0.90300
Cu	Cu	0.38561 0.61439 0.50000 0.93300
Cu	Cu	0.65331 0.84669 -0.00000 0.90300
Cu	Cu	0.61439 0.88561 -0.00000 0.93300
Cu	Cu	0.65331 0.34669 0.50000 0.90300
Cu	Cu	0.61439 0.38561 0.50000 0.93300
Cu	Cu	0.34669 0.84669 -0.00000 0.90300
Cu	Cu	0.38561 0.88561 -0.00000 0.93300
Cu	Cu	0.65331 0.15331 -0.00000 0.90300
Cu	Cu	0.61439 0.11439 -0.00000 0.93200
Cu	Cu	0.65331 0.65331 0.50000 0.90300
Cu	Cu	0.61439 0.61439 0.50000 0.93300
Cu	Cu	0.15331 0.00000 0.65331 0.90300
Cu	Cu	0.11439 0.00000 0.61439 0.93200
Cu	Cu	0.84669 0.00000 0.34669 0.90300
Cu	Cu	0.88561 0.00000 0.38561 0.93300
Cu	Cu	0.84669 0.50000 0.84669 0.90300
Cu	Cu	0.88561 0.50000 0.88561 0.93300
Cu	Cu	0.84669 0.00000 0.65331 0.90300
Cu	Cu	0.88561 0.00000 0.61439 0.93300
Cu	Cu	0.84669 0.50000 0.15331 0.90300
Cu	Cu	0.88561 0.50000 0.11439 0.93300
Cu	Cu	0.15331 0.50000 0.84669 0.90300
Cu	Cu	0.11439 0.50000 0.88561 0.93300
Cu	Cu	0.00000 0.34669 0.84669 0.90300
Cu	Cu	0.00000 0.38561 0.88561 0.93300
Cu	Cu	0.00000 0.65331 0.15331 0.90300
Cu	Cu	0.00000 0.61439 0.11439 0.93200
Cu	Cu	0.50000 0.65331 0.65331 0.90300
Cu	Cu	0.50000 0.61439 0.61439 0.93300
Cu	Cu	0.50000 0.34669 0.65331 0.90300
Cu	Cu	0.50000 0.38561 0.61439 0.93300
Cu	Cu	0.00000 0.65331 0.84669 0.90300
Cu	Cu	0.00000 0.61439 0.88561 0.93300
Cu	Cu	0.50000 0.65331 0.34669 0.90300
Cu	Cu	0.50000 0.61439 0.38561 0.93300
C 	C 	0.16138 0.42953 0.92953 -0.03300
H 	H 	0.14370 0.43500 0.93500 0.07900
C 	C 	0.20980 0.41080 0.91080 0.02500
C 	C 	0.23653 0.40056 0.90056 -0.00900
C 	C 	0.25548 0.39144 0.89144 -0.03500
C 	C 	0.28034 0.37940 0.87940 0.05400
C 	C 	0.32200 0.35943 0.85943 0.12600
C 	C 	0.66138 0.42953 0.42953 -0.03300
H 	H 	0.64370 0.43500 0.43500 0.07900
C 	C 	0.70980 0.41080 0.41080 0.02500
C 	C 	0.73653 0.40056 0.40056 -0.00900
C 	C 	0.75548 0.39144 0.39144 -0.03500
C 	C 	0.78034 0.37940 0.37940 0.05400
C 	C 	0.82200 0.35943 0.35943 0.12600
C 	C 	0.83862 0.57047 0.92953 -0.03300
H 	H 	0.85630 0.56500 0.93500 0.07900
C 	C 	0.79020 0.58920 0.91080 0.02500
C 	C 	0.76347 0.59944 0.90056 -0.00900
C 	C 	0.74452 0.60856 0.89144 -0.03500
C 	C 	0.71966 0.62060 0.87940 0.05400
C 	C 	0.67800 0.64057 0.85943 0.12600
C 	C 	0.83862 0.07047 0.42953 -0.03300
H 	H 	0.85630 0.06500 0.43500 0.07800
C 	C 	0.79020 0.08920 0.41080 0.02500
C 	C 	0.76347 0.09944 0.40056 -0.01000
C 	C 	0.74452 0.10856 0.39144 -0.03500
C 	C 	0.71966 0.12060 0.37940 0.05400
C 	C 	0.67800 0.14057 0.35943 0.12700
C 	C 	0.33862 0.57047 0.42953 -0.03300
H 	H 	0.35630 0.56500 0.43500 0.07900
C 	C 	0.29020 0.58920 0.41080 0.02500
C 	C 	0.26347 0.59944 0.40056 -0.00900
C 	C 	0.24452 0.60856 0.39144 -0.03500
C 	C 	0.21966 0.62060 0.37940 0.05400
C 	C 	0.17800 0.64057 0.35943 0.12700
C 	C 	0.83862 0.42953 0.07047 -0.03300
H 	H 	0.85630 0.43500 0.06500 0.07800
C 	C 	0.79020 0.41080 0.08920 0.02500
C 	C 	0.76347 0.40056 0.09944 -0.01000
C 	C 	0.74452 0.39144 0.10856 -0.03500
C 	C 	0.71966 0.37940 0.12060 0.05400
C 	C 	0.67800 0.35943 0.14057 0.12700
C 	C 	0.33862 0.42953 0.57047 -0.03300
H 	H 	0.35630 0.43500 0.56500 0.07900
C 	C 	0.29020 0.41080 0.58920 0.02500
C 	C 	0.26347 0.40056 0.59944 -0.00900
C 	C 	0.24452 0.39144 0.60856 -0.03500
C 	C 	0.21966 0.37940 0.62060 0.05400
C 	C 	0.17800 0.35943 0.64057 0.12700
C 	C 	0.16138 0.57047 0.07047 -0.03300
H 	H 	0.14370 0.56500 0.06500 0.07800
C 	C 	0.20980 0.58920 0.08920 0.02500
C 	C 	0.23653 0.59944 0.09944 -0.01000
C 	C 	0.25548 0.60856 0.10856 -0.03500
C 	C 	0.28034 0.62060 0.12060 0.05400
C 	C 	0.32200 0.64057 0.14057 0.12700
C 	C 	0.66138 0.57047 0.57047 -0.03300
H 	H 	0.64370 0.56500 0.56500 0.07900
C 	C 	0.70980 0.58920 0.58920 0.02500
C 	C 	0.73653 0.59944 0.59944 -0.00900
C 	C 	0.75548 0.60856 0.60856 -0.03500
C 	C 	0.78034 0.62060 0.62060 0.05400
C 	C 	0.82200 0.64057 0.64057 0.12600
C 	C 	0.66138 0.07047 0.07047 -0.03300
H 	H 	0.64370 0.06500 0.06500 0.07800
C 	C 	0.70980 0.08920 0.08920 0.02500
C 	C 	0.73653 0.09944 0.09944 -0.01000
C 	C 	0.75548 0.10856 0.10856 -0.03500
C 	C 	0.78034 0.12060 0.12060 0.05400
C 	C 	0.82200 0.14057 0.14057 0.12700
C 	C 	0.92953 0.16138 0.42953 -0.03300
H 	H 	0.93500 0.14370 0.43500 0.07900
C 	C 	0.91080 0.20980 0.41080 0.02500
C 	C 	0.90056 0.23653 0.40056 -0.00900
C 	C 	0.89144 0.25548 0.39144 -0.03500
C 	C 	0.87940 0.28034 0.37940 0.05400
C 	C 	0.85943 0.32200 0.35943 0.12600
C 	C 	0.92953 0.66138 0.92953 -0.03300
H 	H 	0.93500 0.64370 0.93500 0.07900
C 	C 	0.91080 0.70980 0.91080 0.02500
C 	C 	0.90056 0.73653 0.90056 -0.00900
C 	C 	0.89144 0.75548 0.89144 -0.03500
C 	C 	0.87940 0.78034 0.87940 0.05400
C 	C 	0.85943 0.82200 0.85943 0.12600
C 	C 	0.42953 0.66138 0.42953 -0.03300
H 	H 	0.43500 0.64370 0.43500 0.07900
C 	C 	0.41080 0.70980 0.41080 0.02500
C 	C 	0.40056 0.73653 0.40056 -0.00900
C 	C 	0.39144 0.75548 0.39144 -0.03500
C 	C 	0.37940 0.78034 0.37940 0.05400
C 	C 	0.35943 0.82200 0.35943 0.12600
C 	C 	0.92953 0.83862 0.57047 -0.03300
H 	H 	0.93500 0.85630 0.56500 0.07900
C 	C 	0.91080 0.79020 0.58920 0.02500
C 	C 	0.90056 0.76347 0.59944 -0.00900
C 	C 	0.89144 0.74452 0.60856 -0.03500
C 	C 	0.87940 0.71966 0.62060 0.05400
C 	C 	0.85943 0.67800 0.64057 0.12600
C 	C 	0.92953 0.33862 0.07047 -0.03300
H 	H 	0.93500 0.35630 0.06500 0.07900
C 	C 	0.91080 0.29020 0.08920 0.02500
C 	C 	0.90056 0.26347 0.09944 -0.00900
C 	C 	0.89144 0.24452 0.10856 -0.03500
C 	C 	0.87940 0.21966 0.12060 0.05400
C 	C 	0.85943 0.17800 0.14057 0.12600
C 	C 	0.42953 0.83862 0.07047 -0.03300
H 	H 	0.43500 0.85630 0.06500 0.07800
C 	C 	0.41080 0.79020 0.08920 0.02500
C 	C 	0.40056 0.76347 0.09944 -0.01000
C 	C 	0.39144 0.74452 0.10856 -0.03500
C 	C 	0.37940 0.71966 0.12060 0.05400
C 	C 	0.35943 0.67800 0.14057 0.12700
C 	C 	0.07047 0.83862 0.42953 -0.03300
H 	H 	0.06500 0.85630 0.43500 0.07800
C 	C 	0.08920 0.79020 0.41080 0.02500
C 	C 	0.09944 0.76347 0.40056 -0.01000
C 	C 	0.10856 0.74452 0.39144 -0.03500
C 	C 	0.12060 0.71966 0.37940 0.05400
C 	C 	0.14057 0.67800 0.35943 0.12700
C 	C 	0.07047 0.33862 0.92953 -0.03300
H 	H 	0.06500 0.35630 0.93500 0.07900
C 	C 	0.08920 0.29020 0.91080 0.02500
C 	C 	0.09944 0.26347 0.90056 -0.00900
C 	C 	0.10856 0.24452 0.89144 -0.03500
C 	C 	0.12060 0.21966 0.87940 0.05400
C 	C 	0.14057 0.17800 0.85943 0.12600
C 	C 	0.07047 0.16138 0.57047 -0.03300
H 	H 	0.06500 0.14370 0.56500 0.07800
C 	C 	0.08920 0.20980 0.58920 0.02500
C 	C 	0.09944 0.23653 0.59944 -0.01000
C 	C 	0.10856 0.25548 0.60856 -0.03500
C 	C 	0.12060 0.28034 0.62060 0.05400
C 	C 	0.14057 0.32200 0.64057 0.12700
C 	C 	0.07047 0.66138 0.07047 -0.03300
H 	H 	0.06500 0.64370 0.06500 0.07800
C 	C 	0.08920 0.70980 0.08920 0.02500
C 	C 	0.09944 0.73653 0.09944 -0.01000
C 	C 	0.10856 0.75548 0.10856 -0.03500
C 	C 	0.12060 0.78034 0.12060 0.05400
C 	C 	0.14057 0.82200 0.14057 0.12700
C 	C 	0.42953 0.92953 0.16138 -0.03300
H 	H 	0.43500 0.93500 0.14370 0.07900
C 	C 	0.41080 0.91080 0.20980 0.02500
C 	C 	0.40056 0.90056 0.23653 -0.00900
C 	C 	0.39144 0.89144 0.25548 -0.03500
C 	C 	0.37940 0.87940 0.28034 0.05400
C 	C 	0.35943 0.85943 0.32200 0.12600
C 	C 	0.42953 0.42953 0.66138 -0.03300
H 	H 	0.43500 0.43500 0.64370 0.07900
C 	C 	0.41080 0.41080 0.70980 0.02500
C 	C 	0.40056 0.40056 0.73653 -0.00900
C 	C 	0.39144 0.39144 0.75548 -0.03500
C 	C 	0.37940 0.37940 0.78034 0.05400
C 	C 	0.35943 0.35943 0.82200 0.12600
C 	C 	0.57047 0.92953 0.83862 -0.03300
H 	H 	0.56500 0.93500 0.85630 0.07900
C 	C 	0.58920 0.91080 0.79020 0.02500
C 	C 	0.59944 0.90056 0.76347 -0.00900
C 	C 	0.60856 0.89144 0.74452 -0.03500
C 	C 	0.62060 0.87940 0.71966 0.05400
C 	C 	0.64057 0.85943 0.67800 0.12600
C 	C 	0.57047 0.42953 0.33862 -0.03300
H 	H 	0.56500 0.43500 0.35630 0.07900
C 	C 	0.58920 0.41080 0.29020 0.02500
C 	C 	0.59944 0.40056 0.26347 -0.00900
C 	C 	0.60856 0.39144 0.24452 -0.03500
C 	C 	0.62060 0.37940 0.21966 0.05400
C 	C 	0.64057 0.35943 0.17800 0.12700
C 	C 	0.07047 0.42953 0.83862 -0.03300
H 	H 	0.06500 0.43500 0.85630 0.07800
C 	C 	0.08920 0.41080 0.79020 0.02500
C 	C 	0.09944 0.40056 0.76347 -0.01000
C 	C 	0.10856 0.39144 0.74452 -0.03500
C 	C 	0.12060 0.37940 0.71966 0.05400
C 	C 	0.14057 0.35943 0.67800 0.12700
C 	C 	0.42953 0.07047 0.83862 -0.03300
H 	H 	0.43500 0.06500 0.85630 0.07800
C 	C 	0.41080 0.08920 0.79020 0.02500
C 	C 	0.40056 0.09944 0.76347 -0.01000
C 	C 	0.39144 0.10856 0.74452 -0.03500
C 	C 	0.37940 0.12060 0.71966 0.05400
C 	C 	0.35943 0.14057 0.67800 0.12700
C 	C 	0.42953 0.57047 0.33862 -0.03300
H 	H 	0.43500 0.56500 0.35630 0.07900
C 	C 	0.41080 0.58920 0.29020 0.02500
C 	C 	0.40056 0.59944 0.26347 -0.00900
C 	C 	0.39144 0.60856 0.24452 -0.03500
C 	C 	0.37940 0.62060 0.21966 0.05400
C 	C 	0.35943 0.64057 0.17800 0.12700
C 	C 	0.57047 0.07047 0.16138 -0.03300
H 	H 	0.56500 0.06500 0.14370 0.07800
C 	C 	0.58920 0.08920 0.20980 0.02500
C 	C 	0.59944 0.09944 0.23653 -0.01000
C 	C 	0.60856 0.10856 0.25548 -0.03500
C 	C 	0.62060 0.12060 0.28034 0.05400
C 	C 	0.64057 0.14057 0.32200 0.12700
C 	C 	0.57047 0.57047 0.66138 -0.03300
H 	H 	0.56500 0.56500 0.64370 0.07900
C 	C 	0.58920 0.58920 0.70980 0.02500
C 	C 	0.59944 0.59944 0.73653 -0.00900
C 	C 	0.60856 0.60856 0.75548 -0.03500
C 	C 	0.62060 0.62060 0.78034 0.05400
C 	C 	0.64057 0.64057 0.82200 0.12600
C 	C 	0.07047 0.07047 0.66138 -0.03300
H 	H 	0.06500 0.06500 0.64370 0.07800
C 	C 	0.08920 0.08920 0.70980 0.02500
C 	C 	0.09944 0.09944 0.73653 -0.01000
C 	C 	0.10856 0.10856 0.75548 -0.03500
C 	C 	0.12060 0.12060 0.78034 0.05400
C 	C 	0.14057 0.14057 0.82200 0.12700
C 	C 	0.42953 0.16138 0.07047 -0.03300
H 	H 	0.43500 0.14370 0.06500 0.07800
C 	C 	0.41080 0.20980 0.08920 0.02500
C 	C 	0.40056 0.23653 0.09944 -0.01000
C 	C 	0.39144 0.25548 0.10856 -0.03500
C 	C 	0.37940 0.28034 0.12060 0.05400
C 	C 	0.35943 0.32200 0.14057 0.12700
C 	C 	0.42953 0.66138 0.57047 -0.03300
H 	H 	0.43500 0.64370 0.56500 0.07900
C 	C 	0.41080 0.70980 0.58920 0.02500
C 	C 	0.40056 0.73653 0.59944 -0.00900
C 	C 	0.39144 0.75548 0.60856 -0.03500
C 	C 	0.37940 0.78034 0.62060 0.05400
C 	C 	0.35943 0.82200 0.64057 0.12600
C 	C 	0.57047 0.83862 0.07047 -0.03300
H 	H 	0.56500 0.85630 0.06500 0.07800
C 	C 	0.58920 0.79020 0.08920 0.02500
C 	C 	0.59944 0.76347 0.09944 -0.01000
C 	C 	0.60856 0.74452 0.10856 -0.03500
C 	C 	0.62060 0.71966 0.12060 0.05400
C 	C 	0.64057 0.67800 0.14057 0.12700
C 	C 	0.57047 0.33862 0.57047 -0.03300
H 	H 	0.56500 0.35630 0.56500 0.07900
C 	C 	0.58920 0.29020 0.58920 0.02500
C 	C 	0.59944 0.26347 0.59944 -0.00900
C 	C 	0.60856 0.24452 0.60856 -0.03500
C 	C 	0.62060 0.21966 0.62060 0.05400
C 	C 	0.64057 0.17800 0.64057 0.12700
C 	C 	0.07047 0.33862 0.07047 -0.03300
H 	H 	0.06500 0.35630 0.06500 0.07800
C 	C 	0.08920 0.29020 0.08920 0.02500
C 	C 	0.09944 0.26347 0.09944 -0.01000
C 	C 	0.10856 0.24452 0.10856 -0.03500
C 	C 	0.12060 0.21966 0.12060 0.05400
C 	C 	0.14057 0.17800 0.14057 0.12700
C 	C 	0.42953 0.83862 0.92953 -0.03300
H 	H 	0.43500 0.85630 0.93500 0.07900
C 	C 	0.41080 0.79020 0.91080 0.02500
C 	C 	0.40056 0.76347 0.90056 -0.00900
C 	C 	0.39144 0.74452 0.89144 -0.03500
C 	C 	0.37940 0.71966 0.87940 0.05400
C 	C 	0.35943 0.67800 0.85943 0.12600
C 	C 	0.42953 0.33862 0.42953 -0.03300
H 	H 	0.43500 0.35630 0.43500 0.07900
C 	C 	0.41080 0.29020 0.41080 0.02500
C 	C 	0.40056 0.26347 0.40056 -0.00900
C 	C 	0.39144 0.24452 0.39144 -0.03500
C 	C 	0.37940 0.21966 0.37940 0.05400
C 	C 	0.35943 0.17800 0.35943 0.12600
C 	C 	0.57047 0.16138 0.92953 -0.03300
H 	H 	0.56500 0.14370 0.93500 0.07900
C 	C 	0.58920 0.20980 0.91080 0.02500
C 	C 	0.59944 0.23653 0.90056 -0.00900
C 	C 	0.60856 0.25548 0.89144 -0.03500
C 	C 	0.62060 0.28034 0.87940 0.05400
C 	C 	0.64057 0.32200 0.85943 0.12600
C 	C 	0.57047 0.66138 0.42953 -0.03300
H 	H 	0.56500 0.64370 0.43500 0.07900
C 	C 	0.58920 0.70980 0.41080 0.02500
C 	C 	0.59944 0.73653 0.40056 -0.00900
C 	C 	0.60856 0.75548 0.39144 -0.03500
C 	C 	0.62060 0.78034 0.37940 0.05400
C 	C 	0.64057 0.82200 0.35943 0.12600
C 	C 	0.07047 0.16138 0.42953 -0.03300
H 	H 	0.06500 0.14370 0.43500 0.07800
C 	C 	0.08920 0.20980 0.41080 0.02500
C 	C 	0.09944 0.23653 0.40056 -0.01000
C 	C 	0.10856 0.25548 0.39144 -0.03500
C 	C 	0.12060 0.28034 0.37940 0.05400
C 	C 	0.14057 0.32200 0.35943 0.12700
C 	C 	0.16138 0.92953 0.57047 -0.03300
H 	H 	0.14370 0.93500 0.56500 0.07900
C 	C 	0.20980 0.91080 0.58920 0.02500
C 	C 	0.23653 0.90056 0.59944 -0.00900
C 	C 	0.25548 0.89144 0.60856 -0.03500
C 	C 	0.28034 0.87940 0.62060 0.05400
C 	C 	0.32200 0.85943 0.64057 0.12600
C 	C 	0.16138 0.42953 0.07047 -0.03300
H 	H 	0.14370 0.43500 0.06500 0.07800
C 	C 	0.20980 0.41080 0.08920 0.02500
C 	C 	0.23653 0.40056 0.09944 -0.01000
C 	C 	0.25548 0.39144 0.10856 -0.03500
C 	C 	0.28034 0.37940 0.12060 0.05400
C 	C 	0.32200 0.35943 0.14057 0.12700
C 	C 	0.66138 0.92953 0.07047 -0.03300
H 	H 	0.64370 0.93500 0.06500 0.07900
C 	C 	0.70980 0.91080 0.08920 0.02500
C 	C 	0.73653 0.90056 0.09944 -0.00900
C 	C 	0.75548 0.89144 0.10856 -0.03500
C 	C 	0.78034 0.87940 0.12060 0.05400
C 	C 	0.82200 0.85943 0.14057 0.12600
C 	C 	0.83862 0.92953 0.42953 -0.03300
H 	H 	0.85630 0.93500 0.43500 0.07900
C 	C 	0.79020 0.91080 0.41080 0.02500
C 	C 	0.76347 0.90056 0.40056 -0.00900
C 	C 	0.74452 0.89144 0.39144 -0.03500
C 	C 	0.71966 0.87940 0.37940 0.05400
C 	C 	0.67800 0.85943 0.35943 0.12600
C 	C 	0.33862 0.92953 0.92953 -0.03300
H 	H 	0.35630 0.93500 0.93500 0.07900
C 	C 	0.29020 0.91080 0.91080 0.02500
C 	C 	0.26347 0.90056 0.90056 -0.00900
C 	C 	0.24452 0.89144 0.89144 -0.03500
C 	C 	0.21966 0.87940 0.87940 0.05400
C 	C 	0.17800 0.85943 0.85943 0.12600
C 	C 	0.33862 0.42953 0.42953 -0.03300
H 	H 	0.35630 0.43500 0.43500 0.07900
C 	C 	0.29020 0.41080 0.41080 0.02500
C 	C 	0.26347 0.40056 0.40056 -0.00900
C 	C 	0.24452 0.39144 0.39144 -0.03500
C 	C 	0.21966 0.37940 0.37940 0.05400
C 	C 	0.17800 0.35943 0.35943 0.12600
C 	C 	0.83862 0.07047 0.57047 -0.03300
H 	H 	0.85630 0.06500 0.56500 0.07800
C 	C 	0.79020 0.08920 0.58920 0.02500
C 	C 	0.76347 0.09944 0.59944 -0.01000
C 	C 	0.74452 0.10856 0.60856 -0.03500
C 	C 	0.71966 0.12060 0.62060 0.05400
C 	C 	0.67800 0.14057 0.64057 0.12700
C 	C 	0.33862 0.07047 0.07047 -0.03300
H 	H 	0.35630 0.06500 0.06500 0.07800
C 	C 	0.29020 0.08920 0.08920 0.02500
C 	C 	0.26347 0.09944 0.09944 -0.01000
C 	C 	0.24452 0.10856 0.10856 -0.03500
C 	C 	0.21966 0.12060 0.12060 0.05400
C 	C 	0.17800 0.14057 0.14057 0.12700
C 	C 	0.16138 0.07047 0.42953 -0.03300
H 	H 	0.14370 0.06500 0.43500 0.07800
C 	C 	0.20980 0.08920 0.41080 0.02500
C 	C 	0.23653 0.09944 0.40056 -0.01000
C 	C 	0.25548 0.10856 0.39144 -0.03500
C 	C 	0.28034 0.12060 0.37940 0.05400
C 	C 	0.32200 0.14057 0.35943 0.12700
C 	C 	0.66138 0.07047 0.92953 -0.03300
H 	H 	0.64370 0.06500 0.93500 0.07900
C 	C 	0.70980 0.08920 0.91080 0.02500
C 	C 	0.73653 0.09944 0.90056 -0.00900
C 	C 	0.75548 0.10856 0.89144 -0.03500
C 	C 	0.78034 0.12060 0.87940 0.05400
C 	C 	0.82200 0.14057 0.85943 0.12600
C 	C 	0.92953 0.42953 0.83862 -0.03300
H 	H 	0.93500 0.43500 0.85630 0.07900
C 	C 	0.91080 0.41080 0.79020 0.02500
C 	C 	0.90056 0.40056 0.76347 -0.00900
C 	C 	0.89144 0.39144 0.74452 -0.03500
C 	C 	0.87940 0.37940 0.71966 0.05400
C 	C 	0.85943 0.35943 0.67800 0.12600
C 	C 	0.92953 0.92953 0.33862 -0.03300
H 	H 	0.93500 0.93500 0.35630 0.07900
C 	C 	0.91080 0.91080 0.29020 0.02500
C 	C 	0.90056 0.90056 0.26347 -0.00900
C 	C 	0.89144 0.89144 0.24452 -0.03500
C 	C 	0.87940 0.87940 0.21966 0.05400
C 	C 	0.85943 0.85943 0.17800 0.12600
C 	C 	0.42953 0.42953 0.33862 -0.03300
H 	H 	0.43500 0.43500 0.35630 0.07900
C 	C 	0.41080 0.41080 0.29020 0.02500
C 	C 	0.40056 0.40056 0.26347 -0.00900
C 	C 	0.39144 0.39144 0.24452 -0.03500
C 	C 	0.37940 0.37940 0.21966 0.05400
C 	C 	0.35943 0.35943 0.17800 0.12600
C 	C 	0.92953 0.57047 0.16138 -0.03300
H 	H 	0.93500 0.56500 0.14370 0.07900
C 	C 	0.91080 0.58920 0.20980 0.02500
C 	C 	0.90056 0.59944 0.23653 -0.00900
C 	C 	0.89144 0.60856 0.25548 -0.03500
C 	C 	0.87940 0.62060 0.28034 0.05400
C 	C 	0.85943 0.64057 0.32200 0.12600
C 	C 	0.92953 0.07047 0.66138 -0.03300
H 	H 	0.93500 0.06500 0.64370 0.07900
C 	C 	0.91080 0.08920 0.70980 0.02500
C 	C 	0.90056 0.09944 0.73653 -0.00900
C 	C 	0.89144 0.10856 0.75548 -0.03500
C 	C 	0.87940 0.12060 0.78034 0.05400
C 	C 	0.85943 0.14057 0.82200 0.12600
C 	C 	0.42953 0.07047 0.16138 -0.03300
H 	H 	0.43500 0.06500 0.14370 0.07800
C 	C 	0.41080 0.08920 0.20980 0.02500
C 	C 	0.40056 0.09944 0.23653 -0.01000
C 	C 	0.39144 0.10856 0.25548 -0.03500
C 	C 	0.37940 0.12060 0.28034 0.05400
C 	C 	0.35943 0.14057 0.32200 0.12700
C 	C 	0.07047 0.42953 0.16138 -0.03300
H 	H 	0.06500 0.43500 0.14370 0.07800
C 	C 	0.08920 0.41080 0.20980 0.02500
C 	C 	0.09944 0.40056 0.23653 -0.01000
C 	C 	0.10856 0.39144 0.25548 -0.03500
C 	C 	0.12060 0.37940 0.28034 0.05400
C 	C 	0.14057 0.35943 0.32200 0.12700
C 	C 	0.07047 0.92953 0.66138 -0.03300
H 	H 	0.06500 0.93500 0.64370 0.07900
C 	C 	0.08920 0.91080 0.70980 0.02500
C 	C 	0.09944 0.90056 0.73653 -0.00900
C 	C 	0.10856 0.89144 0.75548 -0.03500
C 	C 	0.12060 0.87940 0.78034 0.05400
C 	C 	0.14057 0.85943 0.82200 0.12600
C 	C 	0.07047 0.57047 0.83862 -0.03300
H 	H 	0.06500 0.56500 0.85630 0.07800
C 	C 	0.08920 0.58920 0.79020 0.02500
C 	C 	0.09944 0.59944 0.76347 -0.01000
C 	C 	0.10856 0.60856 0.74452 -0.03500
C 	C 	0.12060 0.62060 0.71966 0.05400
C 	C 	0.14057 0.64057 0.67800 0.12700
C 	C 	0.07047 0.07047 0.33862 -0.03300
H 	H 	0.06500 0.06500 0.35630 0.07800
C 	C 	0.08920 0.08920 0.29020 0.02500
C 	C 	0.09944 0.09944 0.26347 -0.01000
C 	C 	0.10856 0.10856 0.24452 -0.03500
C 	C 	0.12060 0.12060 0.21966 0.05400
C 	C 	0.14057 0.14057 0.17800 0.12700
C 	C 	0.83862 0.57047 0.07047 -0.03300
H 	H 	0.85630 0.56500 0.06500 0.07800
C 	C 	0.79020 0.58920 0.08920 0.02500
C 	C 	0.76347 0.59944 0.09944 -0.01000
C 	C 	0.74452 0.60856 0.10856 -0.03500
C 	C 	0.71966 0.62060 0.12060 0.05400
C 	C 	0.67800 0.64057 0.14057 0.12700
C 	C 	0.33862 0.57047 0.57047 -0.03300
H 	H 	0.35630 0.56500 0.56500 0.07900
C 	C 	0.29020 0.58920 0.58920 0.02500
C 	C 	0.26347 0.59944 0.59944 -0.00900
C 	C 	0.24452 0.60856 0.60856 -0.03500
C 	C 	0.21966 0.62060 0.62060 0.05400
C 	C 	0.17800 0.64057 0.64057 0.12700
C 	C 	0.66138 0.42953 0.57047 -0.03300
H 	H 	0.64370 0.43500 0.56500 0.07900
C 	C 	0.70980 0.41080 0.58920 0.02500
C 	C 	0.73653 0.40056 0.59944 -0.00900
C 	C 	0.75548 0.39144 0.60856 -0.03500
C 	C 	0.78034 0.37940 0.62060 0.05400
C 	C 	0.82200 0.35943 0.64057 0.12600
C 	C 	0.16138 0.57047 0.92953 -0.03300
H 	H 	0.14370 0.56500 0.93500 0.07900
C 	C 	0.20980 0.58920 0.91080 0.02500
C 	C 	0.23653 0.59944 0.90056 -0.00900
C 	C 	0.25548 0.60856 0.89144 -0.03500
C 	C 	0.28034 0.62060 0.87940 0.05400
C 	C 	0.32200 0.64057 0.85943 0.12600
C 	C 	0.66138 0.57047 0.42953 -0.03300
H 	H 	0.64370 0.56500 0.43500 0.07900
C 	C 	0.70980 0.58920 0.41080 0.02500
C 	C 	0.73653 0.59944 0.40056 -0.00900
C 	C 	0.75548 0.60856 0.39144 -0.03500
C 	C 	0.78034 0.62060 0.37940 0.05400
C 	C 	0.82200 0.64057 0.35943 0.12600
C 	C 	0.83862 0.42953 0.92953 -0.03300
H 	H 	0.85630 0.43500 0.93500 0.07900
C 	C 	0.79020 0.41080 0.91080 0.02500
C 	C 	0.76347 0.40056 0.90056 -0.00900
C 	C 	0.74452 0.39144 0.89144 -0.03500
C 	C 	0.71966 0.37940 0.87940 0.05400
C 	C 	0.67800 0.35943 0.85943 0.12600
C 	C 	0.07047 0.83862 0.57047 -0.03300
H 	H 	0.06500 0.85630 0.56500 0.07800
C 	C 	0.08920 0.79020 0.58920 0.02500
C 	C 	0.09944 0.76347 0.59944 -0.01000
C 	C 	0.10856 0.74452 0.60856 -0.03500
C 	C 	0.12060 0.71966 0.62060 0.05400
C 	C 	0.14057 0.67800 0.64057 0.12700
C 	C 	0.07047 0.66138 0.92953 -0.03300
H 	H 	0.06500 0.64370 0.93500 0.07900
C 	C 	0.08920 0.70980 0.91080 0.02500
C 	C 	0.09944 0.73653 0.90056 -0.00900
C 	C 	0.10856 0.75548 0.89144 -0.03500
C 	C 	0.12060 0.78034 0.87940 0.05400
C 	C 	0.14057 0.82200 0.85943 0.12600
C 	C 	0.92953 0.16138 0.57047 -0.03300
H 	H 	0.93500 0.14370 0.56500 0.07900
C 	C 	0.91080 0.20980 0.58920 0.02500
C 	C 	0.90056 0.23653 0.59944 -0.00900
C 	C 	0.89144 0.25548 0.60856 -0.03500
C 	C 	0.87940 0.28034 0.62060 0.05400
C 	C 	0.85943 0.32200 0.64057 0.12600
C 	C 	0.92953 0.66138 0.07047 -0.03300
H 	H 	0.93500 0.64370 0.06500 0.07900
C 	C 	0.91080 0.70980 0.08920 0.02500
C 	C 	0.90056 0.73653 0.09944 -0.00900
C 	C 	0.89144 0.75548 0.10856 -0.03500
C 	C 	0.87940 0.78034 0.12060 0.05400
C 	C 	0.85943 0.82200 0.14057 0.12600
C 	C 	0.92953 0.83862 0.42953 -0.03300
H 	H 	0.93500 0.85630 0.43500 0.07900
C 	C 	0.91080 0.79020 0.41080 0.02500
C 	C 	0.90056 0.76347 0.40056 -0.00900
C 	C 	0.89144 0.74452 0.39144 -0.03500
C 	C 	0.87940 0.71966 0.37940 0.05400
C 	C 	0.85943 0.67800 0.35943 0.12600
C 	C 	0.92953 0.33862 0.92953 -0.03300
H 	H 	0.93500 0.35630 0.93500 0.07900
C 	C 	0.91080 0.29020 0.91080 0.02500
C 	C 	0.90056 0.26347 0.90056 -0.00900
C 	C 	0.89144 0.24452 0.89144 -0.03500
C 	C 	0.87940 0.21966 0.87940 0.05400
C 	C 	0.85943 0.17800 0.85943 0.12600
C 	C 	0.57047 0.07047 0.83862 -0.03300
H 	H 	0.56500 0.06500 0.85630 0.07800
C 	C 	0.58920 0.08920 0.79020 0.02500
C 	C 	0.59944 0.09944 0.76347 -0.01000
C 	C 	0.60856 0.10856 0.74452 -0.03500
C 	C 	0.62060 0.12060 0.71966 0.05400
C 	C 	0.64057 0.14057 0.67800 0.12700
C 	C 	0.57047 0.57047 0.33862 -0.03300
H 	H 	0.56500 0.56500 0.35630 0.07900
C 	C 	0.58920 0.58920 0.29020 0.02500
C 	C 	0.59944 0.59944 0.26347 -0.00900
C 	C 	0.60856 0.60856 0.24452 -0.03500
C 	C 	0.62060 0.62060 0.21966 0.05400
C 	C 	0.64057 0.64057 0.17800 0.12700
C 	C 	0.42953 0.57047 0.66138 -0.03300
H 	H 	0.43500 0.56500 0.64370 0.07900
C 	C 	0.41080 0.58920 0.70980 0.02500
C 	C 	0.40056 0.59944 0.73653 -0.00900
C 	C 	0.39144 0.60856 0.75548 -0.03500
C 	C 	0.37940 0.62060 0.78034 0.05400
C 	C 	0.35943 0.64057 0.82200 0.12600
C 	C 	0.57047 0.92953 0.16138 -0.03300
H 	H 	0.56500 0.93500 0.14370 0.07900
C 	C 	0.58920 0.91080 0.20980 0.02500
C 	C 	0.59944 0.90056 0.23653 -0.00900
C 	C 	0.60856 0.89144 0.25548 -0.03500
C 	C 	0.62060 0.87940 0.28034 0.05400
C 	C 	0.64057 0.85943 0.32200 0.12600
C 	C 	0.57047 0.42953 0.66138 -0.03300
H 	H 	0.56500 0.43500 0.64370 0.07900
C 	C 	0.58920 0.41080 0.70980 0.02500
C 	C 	0.59944 0.40056 0.73653 -0.00900
C 	C 	0.60856 0.39144 0.75548 -0.03500
C 	C 	0.62060 0.37940 0.78034 0.05400
C 	C 	0.64057 0.35943 0.82200 0.12600
C 	C 	0.42953 0.92953 0.83862 -0.03300
H 	H 	0.43500 0.93500 0.85630 0.07900
C 	C 	0.41080 0.91080 0.79020 0.02500
C 	C 	0.40056 0.90056 0.76347 -0.00900
C 	C 	0.39144 0.89144 0.74452 -0.03500
C 	C 	0.37940 0.87940 0.71966 0.05400
C 	C 	0.35943 0.85943 0.67800 0.12600
C 	C 	0.57047 0.83862 0.92953 -0.03300
H 	H 	0.56500 0.85630 0.93500 0.07900
C 	C 	0.58920 0.79020 0.91080 0.02500
C 	C 	0.59944 0.76347 0.90056 -0.00900
C 	C 	0.60856 0.74452 0.89144 -0.03500
C 	C 	0.62060 0.71966 0.87940 0.05400
C 	C 	0.64057 0.67800 0.85943 0.12600
C 	C 	0.57047 0.33862 0.42953 -0.03300
H 	H 	0.56500 0.35630 0.43500 0.07900
C 	C 	0.58920 0.29020 0.41080 0.02500
C 	C 	0.59944 0.26347 0.40056 -0.00900
C 	C 	0.60856 0.24452 0.39144 -0.03500
C 	C 	0.62060 0.21966 0.37940 0.05400
C 	C 	0.64057 0.17800 0.35943 0.12700
C 	C 	0.42953 0.16138 0.92953 -0.03300
H 	H 	0.43500 0.14370 0.93500 0.07900
C 	C 	0.41080 0.20980 0.91080 0.02500
C 	C 	0.40056 0.23653 0.90056 -0.00900
C 	C 	0.39144 0.25548 0.89144 -0.03500
C 	C 	0.37940 0.28034 0.87940 0.05400
C 	C 	0.35943 0.32200 0.85943 0.12600
C 	C 	0.57047 0.16138 0.07047 -0.03300
H 	H 	0.56500 0.14370 0.06500 0.07800
C 	C 	0.58920 0.20980 0.08920 0.02500
C 	C 	0.59944 0.23653 0.09944 -0.01000
C 	C 	0.60856 0.25548 0.10856 -0.03500
C 	C 	0.62060 0.28034 0.12060 0.05400
C 	C 	0.64057 0.32200 0.14057 0.12700
C 	C 	0.57047 0.66138 0.57047 -0.03300
H 	H 	0.56500 0.64370 0.56500 0.07900
C 	C 	0.58920 0.70980 0.58920 0.02500
C 	C 	0.59944 0.73653 0.59944 -0.00900
C 	C 	0.60856 0.75548 0.60856 -0.03500
C 	C 	0.62060 0.78034 0.62060 0.05400
C 	C 	0.64057 0.82200 0.64057 0.12600
C 	C 	0.42953 0.33862 0.57047 -0.03300
H 	H 	0.43500 0.35630 0.56500 0.07900
C 	C 	0.41080 0.29020 0.58920 0.02500
C 	C 	0.40056 0.26347 0.59944 -0.00900
C 	C 	0.39144 0.24452 0.60856 -0.03500
C 	C 	0.37940 0.21966 0.62060 0.05400
C 	C 	0.35943 0.17800 0.64057 0.12700
C 	C 	0.33862 0.07047 0.92953 -0.03300
H 	H 	0.35630 0.06500 0.93500 0.07900
C 	C 	0.29020 0.08920 0.91080 0.02500
C 	C 	0.26347 0.09944 0.90056 -0.00900
C 	C 	0.24452 0.10856 0.89144 -0.03500
C 	C 	0.21966 0.12060 0.87940 0.05400
C 	C 	0.17800 0.14057 0.85943 0.12600
C 	C 	0.16138 0.07047 0.57047 -0.03300
H 	H 	0.14370 0.06500 0.56500 0.07800
C 	C 	0.20980 0.08920 0.58920 0.02500
C 	C 	0.23653 0.09944 0.59944 -0.01000
C 	C 	0.25548 0.10856 0.60856 -0.03500
C 	C 	0.28034 0.12060 0.62060 0.05400
C 	C 	0.32200 0.14057 0.64057 0.12700
C 	C 	0.16138 0.92953 0.42953 -0.03300
H 	H 	0.14370 0.93500 0.43500 0.07900
C 	C 	0.20980 0.91080 0.41080 0.02500
C 	C 	0.23653 0.90056 0.40056 -0.00900
C 	C 	0.25548 0.89144 0.39144 -0.03500
C 	C 	0.28034 0.87940 0.37940 0.05400
C 	C 	0.32200 0.85943 0.35943 0.12600
C 	C 	0.66138 0.92953 0.92953 -0.03300
H 	H 	0.64370 0.93500 0.93500 0.07900
C 	C 	0.70980 0.91080 0.91080 0.02500
C 	C 	0.73653 0.90056 0.90056 -0.00900
C 	C 	0.75548 0.89144 0.89144 -0.03500
C 	C 	0.78034 0.87940 0.87940 0.05400
C 	C 	0.82200 0.85943 0.85943 0.12600
C 	C 	0.83862 0.92953 0.57047 -0.03300
H 	H 	0.85630 0.93500 0.56500 0.07900
C 	C 	0.79020 0.91080 0.58920 0.02500
C 	C 	0.76347 0.90056 0.59944 -0.00900
C 	C 	0.74452 0.89144 0.60856 -0.03500
C 	C 	0.71966 0.87940 0.62060 0.05400
C 	C 	0.67800 0.85943 0.64057 0.12600
C 	C 	0.33862 0.92953 0.07047 -0.03300
H 	H 	0.35630 0.93500 0.06500 0.07900
C 	C 	0.29020 0.91080 0.08920 0.02500
C 	C 	0.26347 0.90056 0.09944 -0.00900
C 	C 	0.24452 0.89144 0.10856 -0.03500
C 	C 	0.21966 0.87940 0.12060 0.05400
C 	C 	0.17800 0.85943 0.14057 0.12600
C 	C 	0.07047 0.57047 0.16138 -0.03300
H 	H 	0.06500 0.56500 0.14370 0.07800
C 	C 	0.08920 0.58920 0.20980 0.02500
C 	C 	0.09944 0.59944 0.23653 -0.01000
C 	C 	0.10856 0.60856 0.25548 -0.03500
C 	C 	0.12060 0.62060 0.28034 0.05400
C 	C 	0.14057 0.64057 0.32200 0.12700
C 	C 	0.07047 0.92953 0.33862 -0.03300
H 	H 	0.06500 0.93500 0.35630 0.07900
C 	C 	0.08920 0.91080 0.29020 0.02500
C 	C 	0.09944 0.90056 0.26347 -0.00900
C 	C 	0.10856 0.89144 0.24452 -0.03500
C 	C 	0.12060 0.87940 0.21966 0.05400
C 	C 	0.14057 0.85943 0.17800 0.12600
C 	C 	0.92953 0.57047 0.83862 -0.03300
H 	H 	0.93500 0.56500 0.85630 0.07900
C 	C 	0.91080 0.58920 0.79020 0.02500
C 	C 	0.90056 0.59944 0.76347 -0.00900
C 	C 	0.89144 0.60856 0.74452 -0.03500
C 	C 	0.87940 0.62060 0.71966 0.05400
C 	C 	0.85943 0.64057 0.67800 0.12600
C 	C 	0.92953 0.07047 0.33862 -0.03300
H 	H 	0.93500 0.06500 0.35630 0.07900
C 	C 	0.91080 0.08920 0.29020 0.02500
C 	C 	0.90056 0.09944 0.26347 -0.00900
C 	C 	0.89144 0.10856 0.24452 -0.03500
C 	C 	0.87940 0.12060 0.21966 0.05400
C 	C 	0.85943 0.14057 0.17800 0.12600
C 	C 	0.92953 0.42953 0.16138 -0.03300
H 	H 	0.93500 0.43500 0.14370 0.07900
C 	C 	0.91080 0.41080 0.20980 0.02500
C 	C 	0.90056 0.40056 0.23653 -0.00900
C 	C 	0.89144 0.39144 0.25548 -0.03500
C 	C 	0.87940 0.37940 0.28034 0.05400
C 	C 	0.85943 0.35943 0.32200 0.12600
C 	C 	0.92953 0.92953 0.66138 -0.03300
H 	H 	0.93500 0.93500 0.64370 0.07900
C 	C 	0.91080 0.91080 0.70980 0.02500
C 	C 	0.90056 0.90056 0.73653 -0.00900
C 	C 	0.89144 0.89144 0.75548 -0.03500
C 	C 	0.87940 0.87940 0.78034 0.05400
C 	C 	0.85943 0.85943 0.82200 0.12600
N 	N 	0.34700 0.34700 0.84700 -0.15600
N 	N 	0.65300 0.65300 0.84700 -0.15600
N 	N 	0.65300 0.15300 0.34700 -0.15600
N 	N 	0.15300 0.65300 0.34700 -0.15600
N 	N 	0.65300 0.34700 0.15300 -0.15600
N 	N 	0.15300 0.84700 0.15300 -0.15600
N 	N 	0.34700 0.65300 0.15300 -0.15600
N 	N 	0.84700 0.34700 0.34700 -0.15600
N 	N 	0.84700 0.84700 0.84700 -0.15600
N 	N 	0.84700 0.65300 0.65300 -0.15600
N 	N 	0.84700 0.15300 0.15300 -0.15600
N 	N 	0.34700 0.15300 0.65300 -0.15600
N 	N 	0.15300 0.15300 0.84700 -0.15600
N 	N 	0.15300 0.34700 0.65300 -0.15600
N 	N 	0.34700 0.84700 0.34700 -0.15600
N 	N 	0.65300 0.84700 0.65300 -0.15600
N 	N 	0.34700 0.34700 0.15300 -0.15600
N 	N 	0.65300 0.65300 0.15300 -0.15600
N 	N 	0.15300 0.15300 0.15300 -0.15600
N 	N 	0.34700 0.65300 0.84700 -0.15600
N 	N 	0.34700 0.15300 0.34700 -0.15600
N 	N 	0.65300 0.34700 0.84700 -0.15600
N 	N 	0.15300 0.34700 0.34700 -0.15600
N 	N 	0.34700 0.84700 0.65300 -0.15600
N 	N 	0.65300 0.84700 0.34700 -0.15600
N 	N 	0.65300 0.15300 0.65300 -0.15600
N 	N 	0.84700 0.34700 0.65300 -0.15600
N 	N 	0.84700 0.84700 0.15300 -0.15600
N 	N 	0.84700 0.65300 0.34700 -0.15600
N 	N 	0.84700 0.15300 0.84700 -0.15600
N 	N 	0.15300 0.84700 0.84700 -0.15600
N 	N 	0.15300 0.65300 0.65300 -0.15600
