data_crystal

_cell_length_a 15.97000
_cell_length_b 28.16600
_cell_length_c 23.58300
_cell_angle_alpha 90.00000
_cell_angle_beta  108.09200
_cell_angle_gamma 90.00000

_symmetry_space_group_name_	'P 1'
_symmetry_space_group_name_H-M	'P 1'

loop_
_symmetry_equiv_pos_as_xyz
  x,y,z

loop_
_atom_site_label
_atom_site_type_symbol
_atom_site_fract_x
_atom_site_fract_y
_atom_site_fract_z
_atom_site_charge
C 	C 	0.33180 0.03100 0.76900 0.46800
C 	C 	0.36920 0.99270 0.73990 -0.31200
C 	C 	0.38040 0.94670 0.76310 0.27400
H 	H 	0.36880 0.94020 0.79860 -0.04600
C 	C 	0.38910 0.00100 0.68930 0.29500
H 	H 	0.38460 0.03180 0.67460 -0.06300
C 	C 	0.40840 0.91110 0.73380 -0.40800
H 	H 	0.41810 0.88070 0.75000 0.18900
C 	C 	0.41580 0.96550 0.65850 -0.40700
H 	H 	0.42920 0.97210 0.62360 0.18500
C 	C 	0.42210 0.92070 0.68040 0.40000
C 	C 	0.43660 0.83810 0.65850 0.43900
C 	C 	0.35470 0.82000 0.65180 -0.46500
H 	H 	0.30520 0.83930 0.63960 0.19900
C 	C 	0.50910 0.80920 0.67490 -0.45600
H 	H 	0.56460 0.82150 0.67860 0.20900
C 	C 	0.34680 0.77300 0.66330 0.35200
H 	H 	0.29120 0.76050 0.65860 -0.08000
C 	C 	0.49930 0.76210 0.68600 0.35600
H 	H 	0.54840 0.74230 0.69670 -0.07800
C 	C 	0.41880 0.74390 0.68150 -0.39600
C 	C 	0.40880 0.69340 0.69860 0.58600
C 	C 	0.29610 0.20630 0.73880 0.46600
C 	C 	0.22950 0.24300 0.71070 -0.28600
C 	C 	0.25600 0.29010 0.71480 0.22000
H 	H 	0.31450 0.29790 0.73420 -0.03000
C 	C 	0.14290 0.23110 0.68060 0.25800
H 	H 	0.12540 0.19950 0.67780 -0.07300
C 	C 	0.19480 0.32590 0.68960 -0.34600
H 	H 	0.21110 0.35770 0.69230 0.16600
C 	C 	0.08280 0.26600 0.65500 -0.38700
H 	H 	0.02490 0.25810 0.63410 0.16100
C 	C 	0.10890 0.31190 0.66040 0.36400
C 	C 	0.00750 0.35500 0.58090 0.36900
C 	C 	0.93950 0.38760 0.56820 -0.35200
H 	H 	0.92650 0.40410 0.59860 0.16800
C 	C 	0.03150 0.33340 0.53530 -0.36700
H 	H 	0.07930 0.31280 0.54420 0.16500
C 	C 	0.89190 0.39510 0.51000 0.23600
H 	H 	0.84400 0.41560 0.50090 -0.03200
C 	C 	0.98380 0.34270 0.47680 0.25100
H 	H 	0.99980 0.32840 0.44620 -0.03800
C 	C 	0.91390 0.37250 0.46360 -0.27900
C 	C 	0.85430 0.37960 0.40170 0.45900
C 	C 	0.41350 0.11670 0.63570 0.47600
C 	C 	0.32640 0.10610 0.59090 -0.29500
C 	C 	0.25050 0.12190 0.60060 0.24000
H 	H 	0.25430 0.13820 0.63560 -0.04000
C 	C 	0.31940 0.08140 0.53950 0.24700
H 	H 	0.37010 0.07040 0.53250 -0.04300
C 	C 	0.16790 0.11400 0.55890 -0.34900
H 	H 	0.11720 0.12520 0.56570 0.16700
C 	C 	0.23790 0.07260 0.49770 -0.37500
H 	H 	0.23450 0.05560 0.46330 0.17000
C 	C 	0.16260 0.08910 0.50730 0.36800
C 	C 	0.04860 0.04480 0.43640 0.40600
C 	C 	0.97930 0.05140 0.38410 -0.40400
H 	H 	0.96020 0.08170 0.37070 0.18500
C 	C 	0.07970 0.00110 0.45480 -0.42300
H 	H 	0.12620 0.99700 0.48980 0.18300
C 	C 	0.93950 0.01180 0.35250 0.30200
H 	H 	0.89110 0.01580 0.31860 -0.06500
C 	C 	0.04000 0.96160 0.41970 0.31400
H 	H 	0.06250 0.93150 0.43120 -0.08900
C 	C 	0.96970 0.96660 0.36970 -0.37600
C 	C 	0.92950 0.92570 0.33240 0.56900
C 	C 	0.77230 0.21980 0.68410 0.56300
C 	C 	0.75760 0.27110 0.66790 -0.35000
C 	C 	0.67270 0.28790 0.63930 0.28600
H 	H 	0.62540 0.26690 0.63050 -0.08100
C 	C 	0.82670 0.30270 0.67870 0.28300
H 	H 	0.88410 0.29180 0.69530 -0.05900
C 	C 	0.65770 0.33480 0.62380 -0.39200
H 	H 	0.60080 0.34530 0.60410 0.18800
C 	C 	0.81220 0.35010 0.66520 -0.39800
H 	H 	0.85940 0.37110 0.67470 0.17400
C 	C 	0.72770 0.36690 0.63750 0.37900
C 	C 	0.76330 0.44940 0.63830 0.36500
C 	C 	0.77570 0.47860 0.59540 -0.34700
H 	H 	0.74850 0.47200 0.55520 0.16500
C 	C 	0.79810 0.45980 0.69740 -0.36200
H 	H 	0.78640 0.44050 0.72600 0.16400
C 	C 	0.82940 0.51810 0.61230 0.21300
H 	H 	0.83970 0.53740 0.58310 -0.02800
C 	C 	0.85120 0.49950 0.71440 0.22200
H 	H 	0.87610 0.50640 0.75470 -0.03600
C 	C 	0.86780 0.52930 0.67190 -0.25200
C 	C 	0.92880 0.57090 0.68890 0.43300
C 	C 	0.73960 0.05780 0.66330 0.59000
C 	C 	0.72850 0.00580 0.65410 -0.36400
C 	C 	0.64470 0.98660 0.63650 0.30800
H 	H 	0.59580 0.00610 0.63070 -0.06700
C 	C 	0.80110 0.97610 0.66360 0.30300
H 	H 	0.85740 0.98910 0.67470 -0.06400
C 	C 	0.63430 0.93860 0.62770 -0.42000
H 	H 	0.57790 0.92580 0.61470 0.20100
C 	C 	0.79090 0.92800 0.65690 -0.42100
H 	H 	0.83980 0.90820 0.66490 0.18200
C 	C 	0.70600 0.90920 0.63780 0.40400
C 	C 	0.75260 0.82690 0.64050 0.43000
C 	C 	0.78100 0.81270 0.69780 -0.43500
H 	H 	0.76410 0.82860 0.72700 0.18800
C 	C 	0.78110 0.80680 0.59820 -0.43500
H 	H 	0.76360 0.81870 0.55950 0.19700
C 	C 	0.83680 0.77290 0.71210 0.30500
H 	H 	0.85590 0.76200 0.75130 -0.08000
C 	C 	0.83680 0.76820 0.61330 0.30400
H 	H 	0.85680 0.75410 0.58420 -0.05800
C 	C 	0.86350 0.75010 0.66990 -0.33800
C 	C 	0.92320 0.70850 0.68550 0.49000
C 	C 	0.79620 0.12960 0.80850 0.59300
C 	C 	0.83460 0.12420 0.87520 -0.33000
C 	C 	0.78100 0.13260 0.91230 0.26600
H 	H 	0.72240 0.14150 0.89580 -0.04800
C 	C 	0.91950 0.11010 0.90080 0.29200
H 	H 	0.95540 0.10390 0.87720 -0.06100
C 	C 	0.95310 0.10480 0.96420 -0.42900
H 	H 	0.01050 0.09420 0.98150 0.19600
C 	C 	0.81830 0.12710 0.97470 -0.41000
H 	H 	0.78390 0.13200 0.99950 0.18500
C 	C 	0.90410 0.11480 0.99830 0.44000
C 	C 	0.94750 0.07070 0.09060 0.40700
C 	C 	0.88670 0.03500 0.07060 -0.42100
H 	H 	0.84340 0.03740 0.03370 0.18200
C 	C 	0.01060 0.06770 0.14490 -0.41200
H 	H 	0.04830 0.09310 0.15950 0.19100
C 	C 	0.01790 0.02690 0.17770 0.31400
H 	H 	0.06460 0.02340 0.21270 -0.06700
C 	C 	0.89120 0.99590 0.10610 0.31700
H 	H 	0.84900 0.97210 0.09380 -0.06200
C 	C 	0.95700 0.99130 0.15930 -0.36500
C 	C 	0.96030 0.94950 0.19860 0.57700
Dy	Dy	0.22134 0.10491 0.79003 1.99800
Dy	Dy	0.44000 0.14055 0.78160 1.92800
Dy	Dy	0.60670 0.14227 0.69583 1.84900
Dy	Dy	0.91402 0.13029 0.70754 1.99400
O 	O 	0.28260 0.02235 0.79960 -0.42900
O 	O 	0.34740 0.07418 0.75810 -0.59700
O 	O 	0.44810 0.88562 0.64730 -0.37200
O 	O 	0.47670 0.67167 0.72700 -0.56900
O 	O 	0.33220 0.67560 0.68520 -0.52900
O 	O 	0.27490 0.16224 0.73780 -0.57500
O 	O 	0.37510 0.21765 0.76100 -0.45400
O 	O 	0.05040 0.34940 0.64000 -0.35400
O 	O 	0.87220 0.36181 0.35700 -0.57300
O 	O 	0.78540 0.40427 0.39350 -0.46100
O 	O 	0.41540 0.14127 0.68110 -0.55700
O 	O 	0.48320 0.10283 0.62640 -0.47700
O 	O 	0.07960 0.08640 0.46690 -0.35700
O 	O 	0.97600 0.88970 0.33400 -0.57000
O 	O 	0.85080 0.92850 0.30020 -0.53800
O 	O 	0.70610 0.19470 0.68070 -0.57700
O 	O 	0.85020 0.20454 0.69970 -0.54800
O 	O 	0.70550 0.41215 0.61740 -0.35200
O 	O 	0.94800 0.58809 0.74160 -0.54600
O 	O 	0.96150 0.58662 0.65150 -0.45300
O 	O 	0.67680 0.07979 0.67320 -0.56000
O 	O 	0.80850 0.07741 0.66020 -0.57900
O 	O 	0.68770 0.86223 0.62380 -0.37000
O 	O 	0.94310 0.69098 0.73763 -0.59500
O 	O 	0.95740 0.69285 0.64840 -0.44400
O 	O 	0.84820 0.12690 0.77950 -0.56000
O 	O 	0.71600 0.13739 0.78830 -0.52100
O 	O 	0.94430 0.11330 0.05870 -0.37400
O 	O 	0.89190 0.92464 0.18680 -0.57000
O 	O 	0.02840 0.94085 0.24070 -0.50900
C 	C 	0.16820 0.53100 0.73100 0.46600
C 	C 	0.13080 0.49270 0.76010 -0.31300
C 	C 	0.11960 0.44670 0.73690 0.27200
H 	H 	0.13120 0.44020 0.70140 -0.04700
C 	C 	0.11090 0.50100 0.81070 0.29300
H 	H 	0.11540 0.53180 0.82540 -0.06300
C 	C 	0.09160 0.41110 0.76620 -0.40800
H 	H 	0.08190 0.38070 0.75000 0.18900
C 	C 	0.08420 0.46550 0.84150 -0.40700
H 	H 	0.07080 0.47210 0.87640 0.18500
C 	C 	0.07790 0.42070 0.81960 0.40000
C 	C 	0.06340 0.33810 0.84150 0.43900
C 	C 	0.14530 0.32000 0.84820 -0.46500
H 	H 	0.19480 0.33930 0.86040 0.19900
C 	C 	0.99090 0.30920 0.82510 -0.45600
H 	H 	0.93540 0.32150 0.82140 0.20900
C 	C 	0.15320 0.27300 0.83670 0.35200
H 	H 	0.20880 0.26050 0.84140 -0.08000
C 	C 	0.00070 0.26210 0.81400 0.35500
H 	H 	0.95160 0.24230 0.80330 -0.07800
C 	C 	0.08120 0.24390 0.81850 -0.39600
C 	C 	0.09120 0.19340 0.80140 0.58600
C 	C 	0.20390 0.70630 0.76120 0.46600
C 	C 	0.27050 0.74300 0.78930 -0.28600
C 	C 	0.24400 0.79010 0.78520 0.22000
H 	H 	0.18550 0.79790 0.76580 -0.03100
C 	C 	0.35710 0.73110 0.81940 0.25800
H 	H 	0.37460 0.69950 0.82220 -0.07300
C 	C 	0.30520 0.82590 0.81040 -0.34600
H 	H 	0.28890 0.85770 0.80770 0.16600
C 	C 	0.41720 0.76600 0.84500 -0.38700
H 	H 	0.47510 0.75810 0.86590 0.16100
C 	C 	0.39110 0.81190 0.83960 0.36400
C 	C 	0.49250 0.85500 0.91910 0.36900
C 	C 	0.56050 0.88760 0.93180 -0.35200
H 	H 	0.57350 0.90410 0.90140 0.16900
C 	C 	0.46850 0.83340 0.96470 -0.36700
H 	H 	0.42070 0.81280 0.95580 0.16500
C 	C 	0.60810 0.89510 0.99000 0.23600
H 	H 	0.65600 0.91560 0.99910 -0.03200
C 	C 	0.51620 0.84270 0.02320 0.25100
H 	H 	0.50020 0.82840 0.05380 -0.03800
C 	C 	0.58610 0.87250 0.03640 -0.28000
C 	C 	0.64570 0.87960 0.09830 0.45900
C 	C 	0.08650 0.61670 0.86430 0.47600
C 	C 	0.17360 0.60610 0.90910 -0.29400
C 	C 	0.24950 0.62190 0.89940 0.24000
H 	H 	0.24570 0.63820 0.86440 -0.04000
C 	C 	0.18060 0.58140 0.96050 0.24600
H 	H 	0.12990 0.57040 0.96750 -0.04300
C 	C 	0.33210 0.61400 0.94110 -0.34800
H 	H 	0.38280 0.62520 0.93430 0.16700
C 	C 	0.26210 0.57260 0.00230 -0.37400
H 	H 	0.26550 0.55560 0.03670 0.17000
C 	C 	0.33740 0.58910 0.99270 0.36700
C 	C 	0.45140 0.54480 0.06360 0.40700
C 	C 	0.52070 0.55140 0.11590 -0.40400
H 	H 	0.53980 0.58170 0.12930 0.18500
C 	C 	0.42030 0.50110 0.04520 -0.42600
H 	H 	0.37380 0.49700 0.01020 0.18500
C 	C 	0.56050 0.51180 0.14750 0.30500
H 	H 	0.60890 0.51580 0.18140 -0.06500
C 	C 	0.46000 0.46160 0.08030 0.31800
H 	H 	0.43750 0.43150 0.06880 -0.09000
C 	C 	0.53030 0.46660 0.13030 -0.37900
C 	C 	0.57050 0.42570 0.16760 0.57000
C 	C 	0.72770 0.71980 0.81590 0.56300
C 	C 	0.74240 0.77110 0.83210 -0.35000
C 	C 	0.82730 0.78790 0.86070 0.28600
H 	H 	0.87460 0.76690 0.86950 -0.08100
C 	C 	0.67330 0.80270 0.82130 0.28300
H 	H 	0.61590 0.79180 0.80470 -0.05900
C 	C 	0.84230 0.83480 0.87620 -0.39200
H 	H 	0.89920 0.84530 0.89590 0.18900
C 	C 	0.68780 0.85010 0.83480 -0.39800
H 	H 	0.64060 0.87110 0.82530 0.17400
C 	C 	0.77230 0.86690 0.86250 0.37900
C 	C 	0.73670 0.94940 0.86170 0.36500
C 	C 	0.72430 0.97860 0.90460 -0.34700
H 	H 	0.75150 0.97200 0.94480 0.16500
C 	C 	0.70190 0.95980 0.80260 -0.36200
H 	H 	0.71360 0.94050 0.77400 0.16400
C 	C 	0.67060 0.01810 0.88770 0.21300
H 	H 	0.66030 0.03740 0.91690 -0.02800
C 	C 	0.64880 0.99950 0.78560 0.22300
H 	H 	0.62390 0.00640 0.74530 -0.03600
C 	C 	0.63220 0.02930 0.82810 -0.25200
C 	C 	0.57120 0.07090 0.81110 0.43400
C 	C 	0.76040 0.55780 0.83670 0.58900
C 	C 	0.77150 0.50580 0.84590 -0.36300
C 	C 	0.85530 0.48660 0.86350 0.30700
H 	H 	0.90420 0.50610 0.86930 -0.06600
C 	C 	0.69890 0.47610 0.83640 0.30100
H 	H 	0.64260 0.48910 0.82530 -0.06400
C 	C 	0.86570 0.43860 0.87230 -0.41900
H 	H 	0.92210 0.42580 0.88530 0.20100
C 	C 	0.70910 0.42800 0.84310 -0.42000
H 	H 	0.66020 0.40820 0.83510 0.18200
C 	C 	0.79400 0.40920 0.86220 0.40300
C 	C 	0.74740 0.32690 0.85950 0.43000
C 	C 	0.71900 0.31270 0.80220 -0.43500
H 	H 	0.73590 0.32860 0.77300 0.18800
C 	C 	0.71890 0.30680 0.90180 -0.43500
H 	H 	0.73640 0.31870 0.94050 0.19700
C 	C 	0.66320 0.27290 0.78790 0.30400
H 	H 	0.64410 0.26200 0.74870 -0.08000
C 	C 	0.66320 0.26820 0.88670 0.30400
H 	H 	0.64320 0.25410 0.91580 -0.05800
C 	C 	0.63650 0.25010 0.83010 -0.33800
C 	C 	0.57680 0.20850 0.81450 0.49000
C 	C 	0.70380 0.62960 0.69150 0.59300
C 	C 	0.66540 0.62420 0.62480 -0.33000
C 	C 	0.71900 0.63260 0.58770 0.26600
H 	H 	0.77760 0.64150 0.60420 -0.04800
C 	C 	0.58050 0.61010 0.59920 0.29100
H 	H 	0.54460 0.60390 0.62280 -0.06100
C 	C 	0.54690 0.60480 0.53580 -0.42800
H 	H 	0.48950 0.59420 0.51850 0.19600
C 	C 	0.68170 0.62710 0.52530 -0.41000
H 	H 	0.71610 0.63200 0.50050 0.18400
C 	C 	0.59590 0.61480 0.50170 0.43900
C 	C 	0.55250 0.57070 0.40940 0.40800
C 	C 	0.61330 0.53500 0.42940 -0.42000
H 	H 	0.65660 0.53740 0.46630 0.18200
C 	C 	0.48940 0.56770 0.35510 -0.41300
H 	H 	0.45170 0.59310 0.34050 0.19100
C 	C 	0.48210 0.52690 0.32230 0.31300
H 	H 	0.43540 0.52340 0.28730 -0.06700
C 	C 	0.60880 0.49590 0.39390 0.31600
H 	H 	0.65100 0.47210 0.40620 -0.06200
C 	C 	0.54300 0.49130 0.34070 -0.36400
C 	C 	0.53970 0.44950 0.30140 0.57700
Dy	Dy	0.27866 0.60491 0.70997 1.99800
Dy	Dy	0.06000 0.64055 0.71840 1.92700
Dy	Dy	0.89330 0.64227 0.80417 1.84900
Dy	Dy	0.58598 0.63029 0.79246 1.99400
O 	O 	0.21740 0.52235 0.70040 -0.42900
O 	O 	0.15260 0.57418 0.74190 -0.59700
O 	O 	0.05190 0.38562 0.85270 -0.37200
O 	O 	0.02330 0.17167 0.77300 -0.56800
O 	O 	0.16780 0.17560 0.81480 -0.52900
O 	O 	0.22510 0.66224 0.76220 -0.57500
O 	O 	0.12490 0.71765 0.73900 -0.45500
O 	O 	0.44960 0.84940 0.86000 -0.35400
O 	O 	0.62780 0.86181 0.14300 -0.57400
O 	O 	0.71460 0.90427 0.10650 -0.46100
O 	O 	0.08460 0.64127 0.81890 -0.55700
O 	O 	0.01680 0.60283 0.87360 -0.47700
O 	O 	0.42040 0.58640 0.03310 -0.35800
O 	O 	0.52400 0.38970 0.16600 -0.57100
O 	O 	0.64920 0.42850 0.19980 -0.53800
O 	O 	0.79390 0.69470 0.81930 -0.57700
O 	O 	0.64980 0.70454 0.80030 -0.54800
O 	O 	0.79450 0.91215 0.88260 -0.35200
O 	O 	0.55200 0.08809 0.75840 -0.54600
O 	O 	0.53850 0.08662 0.84850 -0.45300
O 	O 	0.82320 0.57979 0.82680 -0.56000
O 	O 	0.69150 0.57741 0.83980 -0.57800
O 	O 	0.81230 0.36223 0.87620 -0.36900
O 	O 	0.55690 0.19098 0.76237 -0.59600
O 	O 	0.54260 0.19285 0.85160 -0.44400
O 	O 	0.65180 0.62690 0.72050 -0.56000
O 	O 	0.78400 0.63739 0.71170 -0.52100
O 	O 	0.55570 0.61330 0.44130 -0.37400
O 	O 	0.60810 0.42464 0.31320 -0.57000
O 	O 	0.47160 0.44085 0.25930 -0.50900
C 	C 	0.66820 0.96900 0.23100 0.46700
C 	C 	0.63080 0.00730 0.26010 -0.31300
C 	C 	0.61960 0.05330 0.23690 0.27300
H 	H 	0.63120 0.05980 0.20140 -0.04700
C 	C 	0.61090 0.99900 0.31070 0.29400
H 	H 	0.61540 0.96820 0.32540 -0.06400
C 	C 	0.59160 0.08890 0.26620 -0.40800
H 	H 	0.58190 0.11930 0.25000 0.18900
C 	C 	0.58420 0.03450 0.34150 -0.40700
H 	H 	0.57080 0.02790 0.37640 0.18500
C 	C 	0.57790 0.07930 0.31960 0.40000
C 	C 	0.56340 0.16190 0.34150 0.43900
C 	C 	0.64530 0.18000 0.34820 -0.46500
H 	H 	0.69480 0.16070 0.36040 0.19900
C 	C 	0.49090 0.19080 0.32510 -0.45600
H 	H 	0.43540 0.17850 0.32140 0.20900
C 	C 	0.65320 0.22700 0.33670 0.35200
H 	H 	0.70880 0.23950 0.34140 -0.08000
C 	C 	0.50070 0.23790 0.31400 0.35600
H 	H 	0.45160 0.25770 0.30330 -0.07800
C 	C 	0.58120 0.25610 0.31850 -0.39600
C 	C 	0.59120 0.30660 0.30140 0.58600
C 	C 	0.70390 0.79370 0.26120 0.46600
C 	C 	0.77050 0.75700 0.28930 -0.28600
C 	C 	0.74400 0.70990 0.28520 0.22000
H 	H 	0.68550 0.70210 0.26580 -0.03000
C 	C 	0.85710 0.76890 0.31940 0.25800
H 	H 	0.87460 0.80050 0.32220 -0.07300
C 	C 	0.80520 0.67410 0.31040 -0.34600
H 	H 	0.78890 0.64230 0.30770 0.16600
C 	C 	0.91720 0.73400 0.34500 -0.38700
H 	H 	0.97510 0.74190 0.36590 0.16100
C 	C 	0.89110 0.68810 0.33960 0.36400
C 	C 	0.99250 0.64500 0.41910 0.36900
C 	C 	0.06050 0.61240 0.43180 -0.35200
H 	H 	0.07350 0.59590 0.40140 0.16800
C 	C 	0.96850 0.66660 0.46470 -0.36700
H 	H 	0.92070 0.68720 0.45580 0.16500
C 	C 	0.10810 0.60490 0.49000 0.23600
H 	H 	0.15600 0.58440 0.49910 -0.03200
C 	C 	0.01620 0.65730 0.52320 0.25100
H 	H 	0.00020 0.67160 0.55380 -0.03800
C 	C 	0.08610 0.62750 0.53640 -0.27900
C 	C 	0.14570 0.62040 0.59830 0.45900
C 	C 	0.58650 0.88330 0.36430 0.47600
C 	C 	0.67360 0.89390 0.40910 -0.29500
C 	C 	0.74950 0.87810 0.39940 0.24000
H 	H 	0.74570 0.86180 0.36440 -0.04000
C 	C 	0.68060 0.91860 0.46050 0.24700
H 	H 	0.62990 0.92960 0.46750 -0.04300
C 	C 	0.83210 0.88600 0.44110 -0.34900
H 	H 	0.88280 0.87480 0.43430 0.16700
C 	C 	0.76210 0.92740 0.50230 -0.37500
H 	H 	0.76550 0.94440 0.53670 0.17000
C 	C 	0.83740 0.91090 0.49270 0.36800
C 	C 	0.95140 0.95520 0.56360 0.40600
C 	C 	0.02070 0.94860 0.61590 -0.40400
H 	H 	0.03980 0.91830 0.62930 0.18500
C 	C 	0.92030 0.99890 0.54520 -0.42300
H 	H 	0.87380 0.00300 0.51020 0.18300
C 	C 	0.06050 0.98820 0.64750 0.30200
H 	H 	0.10890 0.98420 0.68140 -0.06500
C 	C 	0.96000 0.03840 0.58030 0.31400
H 	H 	0.93750 0.06850 0.56880 -0.08900
C 	C 	0.03030 0.03340 0.63030 -0.37600
C 	C 	0.07050 0.07430 0.66760 0.56900
C 	C 	0.22770 0.78020 0.31590 0.56300
C 	C 	0.24240 0.72890 0.33210 -0.35000
C 	C 	0.32730 0.71210 0.36070 0.28600
H 	H 	0.37460 0.73310 0.36950 -0.08100
C 	C 	0.17330 0.69730 0.32130 0.28300
H 	H 	0.11590 0.70820 0.30470 -0.05900
C 	C 	0.34230 0.66520 0.37620 -0.39200
H 	H 	0.39920 0.65470 0.39590 0.18800
C 	C 	0.18780 0.64990 0.33480 -0.39800
H 	H 	0.14060 0.62890 0.32530 0.17400
C 	C 	0.27230 0.63310 0.36250 0.37900
C 	C 	0.23670 0.55060 0.36170 0.36500
C 	C 	0.22430 0.52140 0.40460 -0.34700
H 	H 	0.25150 0.52800 0.44480 0.16500
C 	C 	0.20190 0.54020 0.30260 -0.36200
H 	H 	0.21360 0.55950 0.27400 0.16400
C 	C 	0.17060 0.48190 0.38770 0.21300
H 	H 	0.16030 0.46260 0.41690 -0.02800
C 	C 	0.14880 0.50050 0.28560 0.22200
H 	H 	0.12390 0.49360 0.24530 -0.03600
C 	C 	0.13220 0.47070 0.32810 -0.25200
C 	C 	0.07120 0.42910 0.31110 0.43300
C 	C 	0.26040 0.94220 0.33670 0.59000
C 	C 	0.27150 0.99420 0.34590 -0.36400
C 	C 	0.35530 0.01340 0.36350 0.30800
H 	H 	0.40420 0.99390 0.36930 -0.06700
C 	C 	0.19890 0.02390 0.33640 0.30300
H 	H 	0.14260 0.01090 0.32530 -0.06400
C 	C 	0.36570 0.06140 0.37230 -0.42000
H 	H 	0.42210 0.07420 0.38530 0.20100
C 	C 	0.20910 0.07200 0.34310 -0.42100
H 	H 	0.16020 0.09180 0.33510 0.18200
C 	C 	0.29400 0.09080 0.36220 0.40400
C 	C 	0.24740 0.17310 0.35950 0.43000
C 	C 	0.21900 0.18730 0.30220 -0.43500
H 	H 	0.23590 0.17140 0.27300 0.18800
C 	C 	0.21890 0.19320 0.40180 -0.43500
H 	H 	0.23640 0.18130 0.44050 0.19700
C 	C 	0.16320 0.22710 0.28790 0.30500
H 	H 	0.14410 0.23800 0.24870 -0.08000
C 	C 	0.16320 0.23180 0.38670 0.30400
H 	H 	0.14320 0.24590 0.41580 -0.05800
C 	C 	0.13650 0.24990 0.33010 -0.33800
C 	C 	0.07680 0.29150 0.31450 0.49000
C 	C 	0.20380 0.87040 0.19150 0.59300
C 	C 	0.16540 0.87580 0.12480 -0.33000
C 	C 	0.21900 0.86740 0.08770 0.26600
H 	H 	0.27760 0.85850 0.10420 -0.04800
C 	C 	0.08050 0.88990 0.09920 0.29200
H 	H 	0.04460 0.89610 0.12280 -0.06100
C 	C 	0.04690 0.89520 0.03580 -0.42900
H 	H 	0.98950 0.90580 0.01850 0.19600
C 	C 	0.18170 0.87290 0.02530 -0.41000
H 	H 	0.21610 0.86800 0.00050 0.18500
C 	C 	0.09590 0.88520 0.00170 0.44000
C 	C 	0.05250 0.92930 0.90940 0.40700
C 	C 	0.11330 0.96500 0.92940 -0.42100
H 	H 	0.15660 0.96260 0.96630 0.18200
C 	C 	0.98940 0.93230 0.85510 -0.41200
H 	H 	0.95170 0.90690 0.84050 0.19100
C 	C 	0.98210 0.97310 0.82230 0.31400
H 	H 	0.93540 0.97660 0.78730 -0.06700
C 	C 	0.10880 0.00410 0.89390 0.31700
H 	H 	0.15100 0.02790 0.90620 -0.06200
C 	C 	0.04300 0.00870 0.84070 -0.36500
C 	C 	0.03970 0.05050 0.80140 0.57700
Dy	Dy	0.77866 0.89509 0.20997 1.99800
Dy	Dy	0.56000 0.85945 0.21840 1.92800
Dy	Dy	0.39330 0.85773 0.30417 1.84900
Dy	Dy	0.08598 0.86971 0.29246 1.99400
O 	O 	0.71740 0.97765 0.20040 -0.42900
O 	O 	0.65260 0.92582 0.24190 -0.59700
O 	O 	0.55190 0.11438 0.35270 -0.37200
O 	O 	0.52330 0.32833 0.27300 -0.56900
O 	O 	0.66780 0.32440 0.31480 -0.52900
O 	O 	0.72510 0.83776 0.26220 -0.57500
O 	O 	0.62490 0.78235 0.23900 -0.45400
O 	O 	0.94960 0.65060 0.36000 -0.35400
O 	O 	0.12780 0.63819 0.64300 -0.57300
O 	O 	0.21460 0.59573 0.60650 -0.46100
O 	O 	0.58460 0.85873 0.31890 -0.55700
O 	O 	0.51680 0.89717 0.37360 -0.47700
O 	O 	0.92040 0.91360 0.53310 -0.35700
O 	O 	0.02400 0.11030 0.66600 -0.57000
O 	O 	0.14920 0.07150 0.69980 -0.53800
O 	O 	0.29390 0.80530 0.31930 -0.57700
O 	O 	0.14980 0.79546 0.30030 -0.54800
O 	O 	0.29450 0.58785 0.38260 -0.35200
O 	O 	0.05200 0.41191 0.25840 -0.54600
O 	O 	0.03850 0.41338 0.34850 -0.45300
O 	O 	0.32320 0.92021 0.32680 -0.56000
O 	O 	0.19150 0.92259 0.33980 -0.57900
O 	O 	0.31230 0.13777 0.37620 -0.37000
O 	O 	0.05690 0.30902 0.26237 -0.59500
O 	O 	0.04260 0.30715 0.35160 -0.44400
O 	O 	0.15180 0.87310 0.22050 -0.56000
O 	O 	0.28400 0.86261 0.21170 -0.52100
O 	O 	0.05570 0.88670 0.94130 -0.37400
O 	O 	0.10810 0.07536 0.81320 -0.57000
O 	O 	0.97160 0.05915 0.75930 -0.50900
C 	C 	0.83180 0.46900 0.26900 0.46600
C 	C 	0.86920 0.50730 0.23990 -0.31300
C 	C 	0.88040 0.55330 0.26310 0.27200
H 	H 	0.86880 0.55980 0.29860 -0.04700
C 	C 	0.88910 0.49900 0.18930 0.29300
H 	H 	0.88460 0.46820 0.17460 -0.06300
C 	C 	0.90840 0.58890 0.23380 -0.40800
H 	H 	0.91810 0.61930 0.25000 0.18900
C 	C 	0.91580 0.53450 0.15850 -0.40700
H 	H 	0.92920 0.52790 0.12360 0.18500
C 	C 	0.92210 0.57930 0.18040 0.40000
C 	C 	0.93660 0.66190 0.15850 0.43900
C 	C 	0.85470 0.68000 0.15180 -0.46500
H 	H 	0.80520 0.66070 0.13960 0.19900
C 	C 	0.00910 0.69080 0.17490 -0.45600
H 	H 	0.06460 0.67850 0.17860 0.20900
C 	C 	0.84680 0.72700 0.16330 0.35200
H 	H 	0.79120 0.73950 0.15860 -0.08000
C 	C 	0.99930 0.73790 0.18600 0.35500
H 	H 	0.04840 0.75770 0.19670 -0.07800
C 	C 	0.91880 0.75610 0.18150 -0.39600
C 	C 	0.90880 0.80660 0.19860 0.58600
C 	C 	0.79610 0.29370 0.23880 0.46600
C 	C 	0.72950 0.25700 0.21070 -0.28600
C 	C 	0.75600 0.20990 0.21480 0.22000
H 	H 	0.81450 0.20210 0.23420 -0.03100
C 	C 	0.64290 0.26890 0.18060 0.25800
H 	H 	0.62540 0.30050 0.17780 -0.07300
C 	C 	0.69480 0.17410 0.18960 -0.34600
H 	H 	0.71110 0.14230 0.19230 0.16600
C 	C 	0.58280 0.23400 0.15500 -0.38700
H 	H 	0.52490 0.24190 0.13410 0.16100
C 	C 	0.60890 0.18810 0.16040 0.36400
C 	C 	0.50750 0.14500 0.08090 0.36900
C 	C 	0.43950 0.11240 0.06820 -0.35200
H 	H 	0.42650 0.09590 0.09860 0.16900
C 	C 	0.53150 0.16660 0.03530 -0.36700
H 	H 	0.57930 0.18720 0.04420 0.16500
C 	C 	0.39190 0.10490 0.01000 0.23600
H 	H 	0.34400 0.08440 0.00090 -0.03200
C 	C 	0.48380 0.15730 0.97680 0.25100
H 	H 	0.49980 0.17160 0.94620 -0.03800
C 	C 	0.41390 0.12750 0.96360 -0.28000
C 	C 	0.35430 0.12040 0.90170 0.45900
C 	C 	0.91350 0.38330 0.13570 0.47600
C 	C 	0.82640 0.39390 0.09090 -0.29400
C 	C 	0.75050 0.37810 0.10060 0.24000
H 	H 	0.75430 0.36180 0.13560 -0.04000
C 	C 	0.81940 0.41860 0.03950 0.24600
H 	H 	0.87010 0.42960 0.03250 -0.04300
C 	C 	0.66790 0.38600 0.05890 -0.34800
H 	H 	0.61720 0.37480 0.06570 0.16700
C 	C 	0.73790 0.42740 0.99770 -0.37400
H 	H 	0.73450 0.44440 0.96330 0.17000
C 	C 	0.66260 0.41090 0.00730 0.36700
C 	C 	0.54860 0.45520 0.93640 0.40700
C 	C 	0.47930 0.44860 0.88410 -0.40400
H 	H 	0.46020 0.41830 0.87070 0.18500
C 	C 	0.57970 0.49890 0.95480 -0.42600
H 	H 	0.62620 0.50300 0.98980 0.18500
C 	C 	0.43950 0.48820 0.85250 0.30500
H 	H 	0.39110 0.48420 0.81860 -0.06500
C 	C 	0.54000 0.53840 0.91970 0.31800
H 	H 	0.56250 0.56850 0.93120 -0.09000
C 	C 	0.46970 0.53340 0.86970 -0.37900
C 	C 	0.42950 0.57430 0.83240 0.57000
C 	C 	0.27230 0.28020 0.18410 0.56300
C 	C 	0.25760 0.22890 0.16790 -0.35000
C 	C 	0.17270 0.21210 0.13930 0.28600
H 	H 	0.12540 0.23310 0.13050 -0.08100
C 	C 	0.32670 0.19730 0.17870 0.28300
H 	H 	0.38410 0.20820 0.19530 -0.05900
C 	C 	0.15770 0.16520 0.12380 -0.39200
H 	H 	0.10080 0.15470 0.10410 0.18900
C 	C 	0.31220 0.14990 0.16520 -0.39800
H 	H 	0.35940 0.12890 0.17470 0.17400
C 	C 	0.22770 0.13310 0.13750 0.37900
C 	C 	0.26330 0.05060 0.13830 0.36500
C 	C 	0.27570 0.02140 0.09540 -0.34700
H 	H 	0.24850 0.02800 0.05520 0.16500
C 	C 	0.29810 0.04020 0.19740 -0.36200
H 	H 	0.28640 0.05950 0.22600 0.16400
C 	C 	0.32940 0.98190 0.11230 0.21300
H 	H 	0.33970 0.96260 0.08310 -0.02800
C 	C 	0.35120 0.00050 0.21440 0.22300
H 	H 	0.37610 0.99360 0.25470 -0.03600
C 	C 	0.36780 0.97070 0.17190 -0.25200
C 	C 	0.42880 0.92910 0.18890 0.43400
C 	C 	0.23960 0.44220 0.16330 0.58900
C 	C 	0.22850 0.49420 0.15410 -0.36300
C 	C 	0.14470 0.51340 0.13650 0.30700
H 	H 	0.09580 0.49390 0.13070 -0.06600
C 	C 	0.30110 0.52390 0.16360 0.30100
H 	H 	0.35740 0.51090 0.17470 -0.06400
C 	C 	0.13430 0.56140 0.12770 -0.41900
H 	H 	0.07790 0.57420 0.11470 0.20100
C 	C 	0.29090 0.57200 0.15690 -0.42000
H 	H 	0.33980 0.59180 0.16490 0.18200
C 	C 	0.20600 0.59080 0.13780 0.40300
C 	C 	0.25260 0.67310 0.14050 0.43000
C 	C 	0.28100 0.68730 0.19780 -0.43500
H 	H 	0.26410 0.67140 0.22700 0.18800
C 	C 	0.28110 0.69320 0.09820 -0.43500
H 	H 	0.26360 0.68130 0.05950 0.19700
C 	C 	0.33680 0.72710 0.21210 0.30400
H 	H 	0.35590 0.73800 0.25130 -0.08000
C 	C 	0.33680 0.73180 0.11330 0.30400
H 	H 	0.35680 0.74590 0.08420 -0.05800
C 	C 	0.36350 0.74990 0.16990 -0.33800
C 	C 	0.42320 0.79150 0.18550 0.49000
C 	C 	0.29620 0.37040 0.30850 0.59300
C 	C 	0.33460 0.37580 0.37520 -0.33000
C 	C 	0.28100 0.36740 0.41230 0.26600
H 	H 	0.22240 0.35850 0.39580 -0.04800
C 	C 	0.41950 0.38990 0.40080 0.29100
H 	H 	0.45540 0.39610 0.37720 -0.06100
C 	C 	0.45310 0.39520 0.46420 -0.42800
H 	H 	0.51050 0.40580 0.48150 0.19600
C 	C 	0.31830 0.37290 0.47470 -0.41000
H 	H 	0.28390 0.36800 0.49950 0.18400
C 	C 	0.40410 0.38520 0.49830 0.43900
C 	C 	0.44750 0.42930 0.59060 0.40800
C 	C 	0.38670 0.46500 0.57060 -0.42000
H 	H 	0.34340 0.46260 0.53370 0.18200
C 	C 	0.51060 0.43230 0.64490 -0.41300
H 	H 	0.54830 0.40690 0.65950 0.19100
C 	C 	0.51790 0.47310 0.67770 0.31300
H 	H 	0.56460 0.47660 0.71270 -0.06700
C 	C 	0.39120 0.50410 0.60610 0.31600
H 	H 	0.34900 0.52790 0.59380 -0.06200
C 	C 	0.45700 0.50870 0.65930 -0.36400
C 	C 	0.46030 0.55050 0.69860 0.57700
Dy	Dy	0.72134 0.39509 0.29003 1.99800
Dy	Dy	0.94000 0.35945 0.28160 1.92700
Dy	Dy	0.10670 0.35773 0.19583 1.84900
Dy	Dy	0.41402 0.36971 0.20754 1.99400
O 	O 	0.78260 0.47765 0.29960 -0.42900
O 	O 	0.84740 0.42582 0.25810 -0.59700
O 	O 	0.94810 0.61438 0.14730 -0.37200
O 	O 	0.97670 0.82833 0.22700 -0.56800
O 	O 	0.83220 0.82440 0.18520 -0.52900
O 	O 	0.77490 0.33776 0.23780 -0.57500
O 	O 	0.87510 0.28235 0.26100 -0.45500
O 	O 	0.55040 0.15060 0.14000 -0.35400
O 	O 	0.37220 0.13819 0.85700 -0.57400
O 	O 	0.28540 0.09573 0.89350 -0.46100
O 	O 	0.91540 0.35873 0.18110 -0.55700
O 	O 	0.98320 0.39717 0.12640 -0.47700
O 	O 	0.57960 0.41360 0.96690 -0.35800
O 	O 	0.47600 0.61030 0.83400 -0.57100
O 	O 	0.35080 0.57150 0.80020 -0.53800
O 	O 	0.20610 0.30530 0.18070 -0.57700
O 	O 	0.35020 0.29546 0.19970 -0.54800
O 	O 	0.20550 0.08785 0.11740 -0.35200
O 	O 	0.44800 0.91191 0.24160 -0.54600
O 	O 	0.46150 0.91338 0.15150 -0.45300
O 	O 	0.17680 0.42021 0.17320 -0.56000
O 	O 	0.30850 0.42259 0.16020 -0.57800
O 	O 	0.18770 0.63777 0.12380 -0.36900
O 	O 	0.44310 0.80902 0.23763 -0.59600
O 	O 	0.45740 0.80715 0.14840 -0.44400
O 	O 	0.34820 0.37310 0.27950 -0.56000
O 	O 	0.21600 0.36261 0.28830 -0.52100
O 	O 	0.44430 0.38670 0.55870 -0.37400
O 	O 	0.39190 0.57536 0.68680 -0.57000
O 	O 	0.52840 0.55915 0.74070 -0.50900
