data_crystal

_cell_length_a 9.34680
_cell_length_b 15.22670
_cell_length_c 17.65170
_cell_angle_alpha 90.00000
_cell_angle_beta  95.59900
_cell_angle_gamma 90.00000

_symmetry_space_group_name_	'P 1'
_symmetry_space_group_name_H-M	'P 1'

loop_
_symmetry_equiv_pos_as_xyz
  x,y,z

loop_
_atom_site_label
_atom_site_type_symbol
_atom_site_fract_x
_atom_site_fract_y
_atom_site_fract_z
_atom_site_charge
Zn	Zn	0.92742 0.60963 0.33770 1.25000
O 	O 	0.73320 0.56940 0.35880 -0.41700
O 	O 	0.80320 0.46220 0.44180 -0.39000
O 	O 	0.45470 0.53770 0.37520 -0.14400
O 	O 	0.20340 0.62030 0.32700 -0.31900
O 	O 	0.07490 0.52360 0.38350 -0.57100
O 	O 	0.94160 0.71920 0.39830 -0.38700
O 	O 	0.94570 0.64350 0.50840 -0.36500
O 	O 	0.91610 0.79880 0.58540 -0.13800
O 	O 	0.88020 0.98430 0.70570 -0.23900
O 	O 	0.91010 0.84340 0.73320 -0.35400
C 	C 	0.71060 0.50490 0.40040 0.34600
C 	C 	0.55860 0.47970 0.40360 0.03300
C 	C 	0.49650 0.40690 0.43260 -0.02700
H 	H 	0.54380 0.35780 0.45420 0.07700
C 	C 	0.34510 0.42140 0.42290 -0.04500
H 	H 	0.27410 0.38370 0.43710 0.07200
C 	C 	0.32480 0.50050 0.38900 0.02400
C 	C 	0.19590 0.55430 0.36470 0.31700
C 	C 	0.93820 0.71180 0.47080 0.33700
C 	C 	0.91600 0.79860 0.50790 0.05400
C 	C 	0.89240 0.88000 0.48000 -0.02200
H 	H 	0.88640 0.89650 0.42900 0.09500
C 	C 	0.87850 0.93550 0.54260 -0.04700
H 	H 	0.86260 0.99580 0.54080 0.10300
C 	C 	0.89220 0.88600 0.60440 0.07500
C 	C 	0.89530 0.90740 0.68690 0.28800
Zn	Zn	0.07258 0.10963 0.16230 1.21300
O 	O 	0.26680 0.06940 0.14120 -0.41600
O 	O 	0.19680 0.96220 0.05820 -0.40700
O 	O 	0.54530 0.03770 0.12480 -0.16900
O 	O 	0.79660 0.12030 0.17300 -0.25200
O 	O 	0.92510 0.02360 0.11650 -0.48100
O 	O 	0.05840 0.21920 0.10170 -0.42300
O 	O 	0.05430 0.14350 0.99160 -0.37200
O 	O 	0.08390 0.29880 0.91460 -0.17600
O 	O 	0.11980 0.48430 0.79430 -0.30600
O 	O 	0.08990 0.34340 0.76680 -0.40400
C 	C 	0.28940 0.00490 0.09960 0.25200
C 	C 	0.44140 0.97970 0.09640 0.11700
C 	C 	0.50350 0.90690 0.06740 -0.09100
H 	H 	0.45620 0.85780 0.04580 0.08300
C 	C 	0.65490 0.92140 0.07710 0.02700
H 	H 	0.72590 0.88370 0.06290 0.05300
C 	C 	0.67520 0.00050 0.11100 -0.01200
C 	C 	0.80410 0.05430 0.13530 0.31800
C 	C 	0.06180 0.21180 0.02920 0.21800
C 	C 	0.08400 0.29860 0.99210 0.16200
C 	C 	0.10760 0.38000 0.02000 -0.22000
H 	H 	0.11360 0.39650 0.07100 0.11200
C 	C 	0.12150 0.43550 0.95740 0.06300
H 	H 	0.13740 0.49580 0.95920 0.02200
C 	C 	0.10780 0.38600 0.89560 0.00700
C 	C 	0.10470 0.40740 0.81310 0.30300
Zn	Zn	0.07258 0.39037 0.66230 1.21800
O 	O 	0.26680 0.43060 0.64120 -0.43200
O 	O 	0.19680 0.53780 0.55820 -0.45400
O 	O 	0.54530 0.46230 0.62480 -0.13900
O 	O 	0.79660 0.37970 0.67300 -0.24500
O 	O 	0.92510 0.47640 0.61650 -0.46700
O 	O 	0.05840 0.28080 0.60170 -0.44300
O 	O 	0.05430 0.35650 0.49160 -0.42600
O 	O 	0.08390 0.20120 0.41460 -0.15900
O 	O 	0.11980 0.01570 0.29430 -0.31800
O 	O 	0.08990 0.15660 0.26680 -0.40500
C 	C 	0.28940 0.49510 0.59960 0.35600
C 	C 	0.44140 0.52030 0.59640 0.02000
C 	C 	0.50350 0.59310 0.56740 -0.01600
H 	H 	0.45620 0.64220 0.54580 0.06200
C 	C 	0.65490 0.57860 0.57710 -0.05600
H 	H 	0.72590 0.61630 0.56290 0.08100
C 	C 	0.67520 0.49950 0.61100 0.04600
C 	C 	0.80410 0.44570 0.63530 0.30300
C 	C 	0.06180 0.28820 0.52920 0.33100
C 	C 	0.08400 0.20140 0.49210 0.02700
C 	C 	0.10760 0.12000 0.52000 -0.04700
H 	H 	0.11360 0.10350 0.57100 0.05100
C 	C 	0.12150 0.06450 0.45740 -0.06100
H 	H 	0.13740 0.00420 0.45920 0.04500
C 	C 	0.10780 0.11400 0.39560 0.03800
C 	C 	0.10470 0.09260 0.31310 0.28800
Zn	Zn	0.92742 0.89037 0.83770 1.25100
O 	O 	0.73320 0.93060 0.85880 -0.42600
O 	O 	0.80320 0.03780 0.94180 -0.41100
O 	O 	0.45470 0.96230 0.87520 -0.12500
O 	O 	0.20340 0.87970 0.82700 -0.30900
O 	O 	0.07490 0.97640 0.88350 -0.54600
O 	O 	0.94160 0.78080 0.89830 -0.40100
O 	O 	0.94570 0.85650 0.00840 -0.39200
O 	O 	0.91610 0.70120 0.08540 -0.12700
O 	O 	0.88020 0.51570 0.20570 -0.24400
O 	O 	0.91010 0.65660 0.23320 -0.35200
C 	C 	0.71060 0.99510 0.90040 0.40900
C 	C 	0.55860 0.02030 0.90360 -0.03000
C 	C 	0.49650 0.09310 0.93260 0.02700
H 	H 	0.54380 0.14220 0.95420 0.06500
C 	C 	0.34510 0.07860 0.92290 -0.11000
H 	H 	0.27410 0.11630 0.93710 0.09500
C 	C 	0.32480 0.99950 0.88900 0.07400
C 	C 	0.19590 0.94570 0.86470 0.30300
C 	C 	0.93820 0.78820 0.97080 0.40300
C 	C 	0.91600 0.70140 0.00790 -0.03300
C 	C 	0.89240 0.62000 0.98000 0.09300
H 	H 	0.88640 0.60350 0.92900 0.05200
C 	C 	0.87850 0.56450 0.04260 -0.13200
H 	H 	0.86260 0.50420 0.04080 0.11700
C 	C 	0.89220 0.61400 0.10440 0.09700
C 	C 	0.89530 0.59260 0.18690 0.27700
Zn	Zn	0.00000 0.50000 0.50000 1.18700
Zn	Zn	-0.00000 0.00000 -0.00000 1.16300
