data_crystal

_cell_length_a 15.08900
_cell_length_b 15.27500
_cell_length_c 23.65400
_cell_angle_alpha 85.90200
_cell_angle_beta  81.50600
_cell_angle_gamma 86.81300

_symmetry_space_group_name_	'P 1'
_symmetry_space_group_name_H-M	'P 1'

loop_
_symmetry_equiv_pos_as_xyz
  x,y,z

loop_
_atom_site_label
_atom_site_type_symbol
_atom_site_fract_x
_atom_site_fract_y
_atom_site_fract_z
_atom_site_charge
O 	O 	0.32860 0.88160 0.74740 -0.52300
O 	O 	0.85160 0.21990 0.22040 -0.56000
O 	O 	0.03440 0.91660 0.70470 -0.46300
O 	O 	0.06900 0.03990 0.73400 -0.59200
C 	C 	0.01170 0.98720 0.72730 0.43900
C 	C 	0.91310 0.00500 0.75200 -0.26300
C 	C 	0.84780 0.96510 0.73180 0.23100
H 	H 	0.86060 0.93100 0.70030 -0.03900
C 	C 	0.89600 0.05650 0.79890 0.19000
H 	H 	0.94260 0.08350 0.81160 -0.02900
O 	O 	0.68610 0.29490 0.31710 -0.51900
C 	C 	0.73900 0.25900 0.34950 0.53600
C 	C 	0.74470 0.30180 0.40580 -0.29800
C 	C 	0.78720 0.26180 0.44850 0.25600
H 	H 	0.81630 0.20700 0.44330 -0.04600
C 	C 	0.70320 0.38560 0.41540 0.26000
H 	H 	0.67340 0.41490 0.38740 -0.05400
C 	C 	0.70620 0.42420 0.46570 -0.38900
H 	H 	0.68100 0.48060 0.47060 0.18000
C 	C 	0.78790 0.30120 0.49950 -0.37900
H 	H 	0.81750 0.27270 0.52790 0.17100
C 	C 	0.74580 0.38090 0.50830 0.38000
O 	O 	0.60540 0.70820 0.27820 -0.53000
C 	C 	0.53160 0.83010 0.32210 -0.34500
C 	C 	0.44960 0.79540 0.32420 0.31300
H 	H 	0.44550 0.73940 0.31210 -0.06300
C 	C 	0.37220 0.84430 0.34450 -0.46500
H 	H 	0.31590 0.82390 0.34230 0.20400
C 	C 	0.97310 0.31690 0.31900 0.30700
H 	H 	0.94780 0.28310 0.29490 -0.06100
O 	O 	0.83030 0.39130 0.26500 -0.51500
O 	O 	0.83930 0.52080 0.30110 -0.52600
C 	C 	0.86400 0.44180 0.29510 0.53500
C 	C 	0.93890 0.40330 0.32650 -0.33900
C 	C 	0.97520 0.44880 0.36340 0.29400
H 	H 	0.95190 0.50520 0.37030 -0.05900
C 	C 	0.04080 0.28100 0.34500 -0.42500
H 	H 	0.06380 0.22430 0.33840 0.20300
O 	O 	0.81180 0.31410 0.15240 -0.49100
C 	C 	0.86690 0.25700 0.17150 0.51000
C 	C 	0.95400 0.23990 0.13450 -0.30500
C 	C 	0.10450 0.17900 0.12160 -0.36200
H 	H 	0.15190 0.14920 0.13690 0.17100
C 	C 	0.96450 0.26730 0.07640 0.25500
H 	H 	0.91820 0.29840 0.06080 -0.04900
C 	C 	0.04520 0.24740 0.04220 -0.38300
H 	H 	0.05170 0.26460 0.00340 0.17200
O 	O 	0.84110 0.69830 0.21650 -0.58800
O 	O 	0.93390 0.80380 0.18840 -0.44900
C 	C 	0.91380 0.72510 0.18830 0.43500
C 	C 	0.97940 0.66100 0.15610 -0.26800
Tb	Tb	0.29822 0.63673 0.77349 1.88600
Tb	Tb	0.27207 0.38906 0.73259 1.97300
Tb	Tb	0.15819 0.16721 0.71893 1.85000
Tb	Tb	0.18799 0.90959 0.72785 2.03700
C 	C 	0.51610 0.44570 0.62690 0.23400
H 	H 	0.45960 0.42670 0.62400 -0.03800
C 	C 	0.44540 0.53890 0.70700 0.44300
C 	C 	0.67240 0.44510 0.59400 0.33600
C 	C 	0.52510 0.50250 0.66780 -0.25600
C 	C 	0.58830 0.41670 0.59040 -0.35200
H 	H 	0.58100 0.37780 0.56310 0.15800
C 	C 	0.61080 0.52970 0.67200 0.19800
H 	H 	0.61750 0.56720 0.70010 -0.02100
C 	C 	0.68550 0.50240 0.63560 -0.31500
H 	H 	0.74220 0.52120 0.63850 0.15700
O 	O 	0.45610 0.60230 0.73540 -0.44900
O 	O 	0.36880 0.50460 0.70960 -0.58200
O 	O 	0.75060 0.41820 0.56010 -0.34100
O 	O 	0.22030 0.05730 0.77820 -0.55000
O 	O 	0.24250 0.49210 0.81180 -0.57500
O 	O 	0.31670 0.36770 0.83200 -0.42600
O 	O 	0.30290 0.38130 0.62840 -0.44800
O 	O 	0.18990 0.30530 0.66850 -0.58100
O 	O 	0.17060 0.13050 0.62330 -0.50700
O 	O 	0.23820 0.00860 0.65390 -0.57000
O 	O 	0.16860 0.47800 0.08430 -0.33200
O 	O 	0.16080 0.94200 0.82700 -0.48300
C 	C 	0.27090 0.43430 0.84710 0.39000
C 	C 	0.23720 0.33920 0.62370 0.45300
C 	C 	0.24410 0.44760 0.91050 -0.24300
C 	C 	0.21180 0.32960 0.56540 -0.24300
C 	C 	0.12360 0.31870 0.56050 0.19500
H 	H 	0.08040 0.31660 0.59290 -0.04200
C 	C 	0.29050 0.40330 0.95150 0.18500
H 	H 	0.33920 0.36550 0.94000 -0.02700
C 	C 	0.14550 0.51240 0.98630 -0.35500
H 	H 	0.09660 0.54980 0.99820 0.15800
C 	C 	0.10180 0.53860 0.10590 0.35700
C 	C 	0.21490 0.05930 0.61450 0.50800
C 	C 	0.27770 0.33210 0.51810 0.19400
H 	H 	0.33700 0.34040 0.52210 -0.02900
C 	C 	0.21240 0.08830 0.50900 0.23300
H 	H 	0.17780 0.13920 0.51780 -0.03100
C 	C 	0.17040 0.50170 0.92820 0.20900
H 	H 	0.13780 0.53070 0.90150 -0.03300
C 	C 	0.09890 0.31070 0.50450 -0.30500
H 	H 	0.03930 0.30520 0.50000 0.14300
C 	C 	0.19040 0.47000 0.02550 0.35000
C 	C 	0.24200 0.03460 0.55340 -0.29800
C 	C 	0.25360 0.32200 0.46380 -0.31400
H 	H 	0.29760 0.32270 0.43190 0.15600
C 	C 	0.16630 0.31120 0.45720 0.33100
C 	C 	0.11720 0.62790 0.09660 -0.34100
H 	H 	0.16910 0.64640 0.07370 0.15700
C 	C 	0.29030 0.96030 0.54050 0.25800
H 	H 	0.30950 0.92370 0.56990 -0.05000
C 	C 	0.23290 0.06790 0.45220 -0.35000
H 	H 	0.21380 0.10490 0.42300 0.17600
C 	C 	0.26450 0.41500 0.00970 -0.31600
H 	H 	0.29620 0.38670 0.03710 0.16000
C 	C 	0.03010 0.51000 0.14080 -0.36100
H 	H 	0.02240 0.45010 0.14810 0.17300
O 	O 	0.78140 0.18820 0.34350 -0.53400
O 	O 	0.37290 0.76090 0.79400 -0.49800
O 	O 	0.14920 0.29250 0.40400 -0.34500
C 	C 	0.96640 0.57110 0.16660 0.22900
H 	H 	0.91580 0.55170 0.19060 -0.05700
C 	C 	0.38490 0.84230 0.78120 0.51800
C 	C 	0.44950 0.89400 0.79750 -0.33000
C 	C 	0.07450 0.33080 0.38160 0.40100
C 	C 	0.02450 0.19810 0.15720 0.26000
H 	H 	0.01910 0.18250 0.19630 -0.05700
C 	C 	0.19000 0.06200 0.87940 -0.26800
C 	C 	0.24170 0.13230 0.88120 0.24300
H 	H 	0.27710 0.15250 0.84780 -0.05300
C 	C 	0.24350 0.17460 0.93080 -0.34700
H 	H 	0.27920 0.22230 0.93080 0.17300
C 	C 	0.18860 0.01660 0.82580 0.46100
C 	C 	0.19070 0.14370 0.98020 0.35000
C 	C 	0.05500 0.68960 0.12160 0.21200
H 	H 	0.06440 0.74940 0.11510 -0.03500
C 	C 	0.13760 0.03010 0.93040 0.21700
H 	H 	0.10280 0.98180 0.93060 -0.03600
O 	O 	0.19460 0.18550 0.03050 -0.34200
C 	C 	0.11410 0.20410 0.06350 0.38300
C 	C 	0.04560 0.41600 0.39170 -0.41100
H 	H 	0.07140 0.44940 0.41580 0.18300
C 	C 	0.28280 0.99100 0.44040 0.36300
C 	C 	0.31190 0.93700 0.48430 -0.36800
H 	H 	0.34580 0.88550 0.47620 0.16300
C 	C 	0.37930 0.91830 0.36620 0.44000
C 	C 	0.45640 0.95720 0.36720 -0.40800
H 	H 	0.45770 0.01210 0.38170 0.18300
C 	C 	0.80850 0.06730 0.82670 -0.30800
H 	H 	0.79510 0.10210 0.85790 0.15400
C 	C 	0.76080 0.97690 0.75960 -0.34800
H 	H 	0.71440 0.95160 0.74560 0.16500
C 	C 	0.74160 0.02430 0.80640 0.33200
C 	C 	0.53810 0.90850 0.34440 0.27300
H 	H 	0.59400 0.93090 0.34510 -0.05200
C 	C 	0.13920 0.07280 0.98080 -0.33600
H 	H 	0.10510 0.05270 0.01480 0.15500
O 	O 	0.65640 0.03550 0.83920 -0.31800
O 	O 	0.68880 0.81590 0.29620 -0.53600
C 	C 	0.61390 0.78160 0.29610 0.53300
O 	O 	0.29950 0.96950 0.38460 -0.35500
C 	C 	0.45090 0.98150 0.78690 0.25800
H 	H 	0.40460 0.01070 0.77010 -0.04500
C 	C 	0.52020 0.02990 0.80030 -0.33200
H 	H 	0.52140 0.09020 0.79130 0.16400
C 	C 	0.58780 0.98540 0.82750 0.33300
C 	C 	0.52000 0.84990 0.82540 0.23700
H 	H 	0.52060 0.78910 0.83190 -0.04400
C 	C 	0.58610 0.89560 0.84240 -0.34400
H 	H 	0.62830 0.86760 0.86330 0.16300
O 	O 	0.67140 0.11840 0.25260 -0.52200
O 	O 	0.14840 0.78010 0.77960 -0.55900
O 	O 	0.96560 0.08340 0.29530 -0.46200
O 	O 	0.93100 0.96010 0.26600 -0.59100
C 	C 	0.98830 0.01280 0.27270 0.43900
C 	C 	0.08690 0.99500 0.24800 -0.26300
C 	C 	0.15220 0.03490 0.26820 0.23100
H 	H 	0.13940 0.06900 0.29970 -0.03900
C 	C 	0.10400 0.94350 0.20110 0.19000
H 	H 	0.05740 0.91650 0.18840 -0.02900
O 	O 	0.31390 0.70510 0.68290 -0.51900
C 	C 	0.26100 0.74100 0.65050 0.53600
C 	C 	0.25530 0.69820 0.59420 -0.29800
C 	C 	0.21280 0.73820 0.55150 0.25600
H 	H 	0.18370 0.79300 0.55670 -0.04600
C 	C 	0.29680 0.61440 0.58460 0.26000
H 	H 	0.32660 0.58510 0.61260 -0.05400
C 	C 	0.29380 0.57580 0.53430 -0.38900
H 	H 	0.31900 0.51940 0.52940 0.18000
C 	C 	0.21210 0.69880 0.50050 -0.37900
H 	H 	0.18250 0.72730 0.47210 0.17100
C 	C 	0.25420 0.61910 0.49170 0.38000
O 	O 	0.39460 0.29180 0.72180 -0.53000
C 	C 	0.46840 0.16990 0.67790 -0.34500
C 	C 	0.55040 0.20460 0.67580 0.31300
H 	H 	0.55450 0.26060 0.68790 -0.06300
C 	C 	0.62780 0.15570 0.65550 -0.46500
H 	H 	0.68410 0.17610 0.65770 0.20400
C 	C 	0.02690 0.68310 0.68100 0.30700
H 	H 	0.05220 0.71690 0.70510 -0.06100
O 	O 	0.16970 0.60870 0.73500 -0.51500
O 	O 	0.16070 0.47920 0.69890 -0.52600
C 	C 	0.13600 0.55820 0.70490 0.53500
C 	C 	0.06110 0.59670 0.67350 -0.33900
C 	C 	0.02480 0.55120 0.63660 0.29400
H 	H 	0.04810 0.49480 0.62970 -0.05900
C 	C 	0.95920 0.71900 0.65500 -0.42500
H 	H 	0.93620 0.77570 0.66160 0.20300
O 	O 	0.18820 0.68590 0.84760 -0.49100
C 	C 	0.13310 0.74300 0.82850 0.51000
C 	C 	0.04600 0.76010 0.86550 -0.30500
C 	C 	0.89550 0.82100 0.87840 -0.36200
H 	H 	0.84810 0.85080 0.86310 0.17100
C 	C 	0.03550 0.73270 0.92360 0.25500
H 	H 	0.08180 0.70160 0.93920 -0.04900
C 	C 	0.95480 0.75260 0.95780 -0.38300
H 	H 	0.94830 0.73540 0.99660 0.17200
O 	O 	0.15890 0.30170 0.78350 -0.58800
O 	O 	0.06610 0.19620 0.81160 -0.44900
C 	C 	0.08620 0.27490 0.81170 0.43500
C 	C 	0.02060 0.33900 0.84390 -0.26800
Tb	Tb	0.70178 0.36327 0.22651 1.88600
Tb	Tb	0.72793 0.61094 0.26741 1.97300
Tb	Tb	0.84181 0.83279 0.28107 1.85000
Tb	Tb	0.81201 0.09041 0.27215 2.03700
C 	C 	0.48390 0.55430 0.37310 0.23400
H 	H 	0.54040 0.57330 0.37600 -0.03800
C 	C 	0.55460 0.46110 0.29300 0.44300
C 	C 	0.32760 0.55490 0.40600 0.33600
C 	C 	0.47490 0.49750 0.33220 -0.25600
C 	C 	0.41170 0.58330 0.40960 -0.35200
H 	H 	0.41900 0.62220 0.43690 0.15800
C 	C 	0.38920 0.47030 0.32800 0.19800
H 	H 	0.38250 0.43280 0.29990 -0.02100
C 	C 	0.31450 0.49760 0.36440 -0.31500
H 	H 	0.25780 0.47880 0.36150 0.15700
O 	O 	0.54390 0.39770 0.26460 -0.44900
O 	O 	0.63120 0.49540 0.29040 -0.58200
O 	O 	0.24940 0.58180 0.43990 -0.34100
O 	O 	0.77970 0.94270 0.22180 -0.55000
O 	O 	0.75750 0.50790 0.18820 -0.57500
O 	O 	0.68330 0.63230 0.16800 -0.42600
O 	O 	0.69710 0.61870 0.37160 -0.44800
O 	O 	0.81010 0.69470 0.33150 -0.58100
O 	O 	0.82940 0.86950 0.37670 -0.50700
O 	O 	0.76180 0.99140 0.34610 -0.57000
O 	O 	0.83140 0.52200 0.91570 -0.33200
O 	O 	0.83920 0.05800 0.17300 -0.48300
C 	C 	0.72910 0.56570 0.15290 0.39000
C 	C 	0.76280 0.66080 0.37630 0.45300
C 	C 	0.75590 0.55240 0.08950 -0.24300
C 	C 	0.78820 0.67040 0.43460 -0.24300
C 	C 	0.87640 0.68130 0.43950 0.19500
H 	H 	0.91960 0.68340 0.40710 -0.04200
C 	C 	0.70950 0.59670 0.04850 0.18500
H 	H 	0.66080 0.63450 0.06000 -0.02700
C 	C 	0.85450 0.48760 0.01370 -0.35500
H 	H 	0.90340 0.45020 0.00180 0.15800
C 	C 	0.89820 0.46140 0.89410 0.35700
C 	C 	0.78510 0.94070 0.38550 0.50800
C 	C 	0.72230 0.66790 0.48190 0.19400
H 	H 	0.66300 0.65960 0.47790 -0.02900
C 	C 	0.78760 0.91170 0.49100 0.23300
H 	H 	0.82220 0.86080 0.48220 -0.03100
C 	C 	0.82960 0.49830 0.07180 0.20900
H 	H 	0.86220 0.46930 0.09850 -0.03300
C 	C 	0.90110 0.68930 0.49550 -0.30500
H 	H 	0.96070 0.69480 0.50000 0.14300
C 	C 	0.80960 0.53000 0.97450 0.35000
C 	C 	0.75800 0.96540 0.44660 -0.29800
C 	C 	0.74640 0.67800 0.53620 -0.31400
H 	H 	0.70240 0.67730 0.56810 0.15600
C 	C 	0.83370 0.68880 0.54280 0.33100
C 	C 	0.88280 0.37210 0.90340 -0.34100
H 	H 	0.83090 0.35360 0.92630 0.15700
C 	C 	0.70970 0.03970 0.45950 0.25800
H 	H 	0.69050 0.07630 0.43010 -0.05000
C 	C 	0.76710 0.93210 0.54780 -0.35000
H 	H 	0.78620 0.89510 0.57700 0.17600
C 	C 	0.73550 0.58500 0.99030 -0.31600
H 	H 	0.70380 0.61330 0.96290 0.16000
C 	C 	0.96990 0.49000 0.85920 -0.36100
H 	H 	0.97760 0.54990 0.85190 0.17300
O 	O 	0.21860 0.81180 0.65650 -0.53400
O 	O 	0.62710 0.23910 0.20600 -0.49800
O 	O 	0.85080 0.70750 0.59600 -0.34500
C 	C 	0.03360 0.42890 0.83340 0.22900
H 	H 	0.08420 0.44830 0.80940 -0.05700
C 	C 	0.61510 0.15770 0.21880 0.51800
C 	C 	0.55050 0.10600 0.20250 -0.33000
C 	C 	0.92550 0.66920 0.61840 0.40100
C 	C 	0.97550 0.80190 0.84280 0.26000
H 	H 	0.98090 0.81750 0.80370 -0.05700
C 	C 	0.81000 0.93800 0.12060 -0.26800
C 	C 	0.75830 0.86770 0.11880 0.24300
H 	H 	0.72290 0.84750 0.15220 -0.05300
C 	C 	0.75650 0.82540 0.06920 -0.34700
H 	H 	0.72080 0.77770 0.06920 0.17300
C 	C 	0.81140 0.98340 0.17420 0.46100
C 	C 	0.80930 0.85630 0.01980 0.35000
C 	C 	0.94500 0.31040 0.87840 0.21200
H 	H 	0.93560 0.25060 0.88490 -0.03500
C 	C 	0.86240 0.96990 0.06960 0.21700
H 	H 	0.89720 0.01820 0.06940 -0.03600
O 	O 	0.80540 0.81450 0.96950 -0.34200
C 	C 	0.88590 0.79590 0.93650 0.38300
C 	C 	0.95440 0.58400 0.60830 -0.41100
H 	H 	0.92860 0.55060 0.58420 0.18300
C 	C 	0.71720 0.00900 0.55960 0.36300
C 	C 	0.68810 0.06300 0.51570 -0.36800
H 	H 	0.65420 0.11450 0.52380 0.16300
C 	C 	0.62070 0.08170 0.63380 0.44000
C 	C 	0.54360 0.04280 0.63280 -0.40800
H 	H 	0.54230 0.98790 0.61830 0.18300
C 	C 	0.19150 0.93270 0.17330 -0.30800
H 	H 	0.20490 0.89790 0.14210 0.15400
C 	C 	0.23920 0.02310 0.24040 -0.34800
H 	H 	0.28560 0.04840 0.25440 0.16500
C 	C 	0.25840 0.97570 0.19360 0.33200
C 	C 	0.46190 0.09150 0.65560 0.27300
H 	H 	0.40600 0.06910 0.65490 -0.05200
C 	C 	0.86080 0.92720 0.01920 -0.33600
H 	H 	0.89490 0.94730 0.98520 0.15500
O 	O 	0.34360 0.96450 0.16080 -0.31800
O 	O 	0.31120 0.18410 0.70380 -0.53600
C 	C 	0.38610 0.21840 0.70390 0.53300
O 	O 	0.70050 0.03050 0.61540 -0.35500
C 	C 	0.54910 0.01850 0.21310 0.25800
H 	H 	0.59540 0.98930 0.22990 -0.04500
C 	C 	0.47980 0.97010 0.19970 -0.33200
H 	H 	0.47860 0.90980 0.20870 0.16400
C 	C 	0.41220 0.01460 0.17250 0.33300
C 	C 	0.48000 0.15010 0.17460 0.23700
H 	H 	0.47940 0.21090 0.16810 -0.04400
C 	C 	0.41390 0.10440 0.15760 -0.34400
H 	H 	0.37170 0.13240 0.13670 0.16300
