data_crystal

_cell_length_a 15.18900
_cell_length_b 15.23200
_cell_length_c 23.85500
_cell_angle_alpha 85.89000
_cell_angle_beta  79.97100
_cell_angle_gamma 86.84200

_symmetry_space_group_name_	'P 1'
_symmetry_space_group_name_H-M	'P 1'

loop_
_symmetry_equiv_pos_as_xyz
  x,y,z

loop_
_atom_site_label
_atom_site_type_symbol
_atom_site_fract_x
_atom_site_fract_y
_atom_site_fract_z
_atom_site_charge
C 	C 	0.50060 0.01000 0.77610 0.41300
C 	C 	0.59980 0.99050 0.75190 -0.24400
C 	C 	0.62330 0.93900 0.70670 0.21700
H 	H 	0.57990 0.91040 0.69280 -0.03600
C 	C 	0.71210 0.92990 0.68190 -0.35200
H 	H 	0.72740 0.89560 0.65060 0.16900
C 	C 	0.77890 0.96980 0.70170 0.38300
C 	C 	0.75570 0.01800 0.74960 -0.35400
H 	H 	0.80010 0.04110 0.76570 0.16800
C 	C 	0.66590 0.03200 0.77370 0.20700
H 	H 	0.65000 0.06850 0.80390 -0.03100
C 	C 	0.93110 0.00840 0.69010 0.54200
C 	C 	0.99910 0.96750 0.70940 -0.57800
H 	H 	0.00120 0.90640 0.71520 0.24800
C 	C 	0.06640 0.01490 0.72070 0.46000
H 	H 	0.11430 0.98470 0.73410 -0.11300
C 	C 	0.06720 0.10320 0.71350 -0.46600
C 	C 	0.99510 0.14370 0.69210 0.43400
H 	H 	0.99280 0.20460 0.68540 -0.10800
C 	C 	0.92790 0.09710 0.68060 -0.56600
H 	H 	0.88000 0.12560 0.66630 0.23600
C 	C 	0.13790 0.15430 0.73020 0.61000
C 	C 	0.32590 0.97610 0.68090 0.49900
C 	C 	0.32300 0.93160 0.62790 -0.39100
C 	C 	0.27090 0.86290 0.62870 0.41000
H 	H 	0.23850 0.84120 0.66320 -0.11100
C 	C 	0.26490 0.82480 0.58000 -0.52900
H 	H 	0.22710 0.77850 0.58100 0.23600
C 	C 	0.31440 0.85440 0.52950 0.52500
C 	C 	0.36600 0.92070 0.52570 -0.52900
H 	H 	0.39730 0.94120 0.49060 0.22400
C 	C 	0.37350 0.96030 0.57550 0.35700
H 	H 	0.41230 0.00590 0.57390 -0.08100
C 	C 	0.37970 0.79950 0.44250 0.41200
C 	C 	0.45120 0.74780 0.45980 -0.41500
H 	H 	0.44790 0.72500 0.49730 0.18300
C 	C 	0.52460 0.73220 0.42040 0.30100
H 	H 	0.57150 0.69720 0.43150 -0.06400
C 	C 	0.53350 0.76560 0.36450 -0.34700
C 	C 	0.46200 0.81310 0.35020 0.30200
H 	H 	0.46620 0.83590 0.31270 -0.06900
C 	C 	0.38170 0.83090 0.38760 -0.41400
H 	H 	0.33320 0.86200 0.37560 0.19000
C 	C 	0.61880 0.74810 0.32510 0.52600
C 	C 	0.29930 0.93900 0.88950 0.51100
C 	C 	0.26610 0.96520 0.94870 -0.29700
C 	C 	0.29150 0.91400 0.99300 0.24900
H 	H 	0.32630 0.86250 0.98590 -0.03600
C 	C 	0.26510 0.93880 0.04890 -0.36800
H 	H 	0.28230 0.90410 0.07910 0.17900
C 	C 	0.21330 0.01530 0.05890 0.37600
C 	C 	0.18710 0.06700 0.01530 -0.36200
H 	H 	0.15330 0.11900 0.02250 0.16400
C 	C 	0.21210 0.04070 0.95920 0.23700
H 	H 	0.19240 0.07400 0.92910 -0.04200
C 	C 	0.10940 0.08160 0.13130 0.41200
C 	C 	0.03220 0.04390 0.12790 -0.39100
H 	H 	0.03270 0.98920 0.11280 0.17100
C 	C 	0.95080 0.08960 0.14780 0.27300
H 	H 	0.89700 0.06550 0.14490 -0.04600
C 	C 	0.94990 0.16900 0.17120 -0.33900
C 	C 	0.03070 0.20470 0.17290 0.29800
H 	H 	0.03140 0.25890 0.18850 -0.05900
C 	C 	0.10990 0.16170 0.15220 -0.42200
H 	H 	0.16390 0.18760 0.15240 0.19200
C 	C 	0.86330 0.21280 0.19680 0.56100
C 	C 	0.27490 0.65570 0.87760 0.46200
C 	C 	0.29670 0.66660 0.93470 -0.28300
C 	C 	0.22900 0.66630 0.98170 0.25500
H 	H 	0.17020 0.65960 0.97720 -0.05100
C 	C 	0.24850 0.67580 0.03420 -0.37400
H 	H 	0.20330 0.67370 0.06600 0.17600
C 	C 	0.33440 0.68840 0.04070 0.36400
C 	C 	0.40590 0.68920 0.99540 -0.35500
H 	H 	0.46440 0.69560 0.00080 0.15900
C 	C 	0.38500 0.67990 0.94200 0.24200
H 	H 	0.43020 0.68260 0.91020 -0.05800
C 	C 	0.41880 0.66880 0.11780 0.37400
C 	C 	0.44960 0.58540 0.10870 -0.39200
H 	H 	0.42660 0.55260 0.08360 0.17500
C 	C 	0.51590 0.54970 0.13740 0.25800
H 	H 	0.53680 0.49170 0.13220 -0.04800
C 	C 	0.55260 0.59990 0.17470 -0.31300
C 	C 	0.52030 0.68600 0.17980 0.27900
H 	H 	0.54510 0.72090 0.20290 -0.04800
C 	C 	0.45430 0.72220 0.15290 -0.37800
H 	H 	0.43340 0.78020 0.15760 0.18600
C 	C 	0.62730 0.56200 0.20500 0.55900
C 	C 	0.23510 0.56190 0.65780 0.40000
C 	C 	0.25980 0.55050 0.59460 -0.27900
C 	C 	0.32780 0.49230 0.57380 0.24600
H 	H 	0.35830 0.45880 0.59900 -0.04700
C 	C 	0.35140 0.48260 0.51660 -0.38500
H 	H 	0.39940 0.44500 0.50300 0.16800
C 	C 	0.30410 0.52840 0.47950 0.37100
C 	C 	0.23470 0.58740 0.49790 -0.34500
H 	H 	0.20310 0.61940 0.47260 0.17300
C 	C 	0.21460 0.59630 0.55650 0.22100
H 	H 	0.16800 0.63540 0.57040 -0.03800
C 	C 	0.38220 0.45820 0.39850 0.40700
C 	C 	0.37060 0.36890 0.40140 -0.42600
H 	H 	0.31860 0.34650 0.42290 0.18400
C 	C 	0.43350 0.31260 0.37360 0.31800
H 	H 	0.42360 0.25260 0.37630 -0.07000
C 	C 	0.51040 0.34280 0.34200 -0.36800
C 	C 	0.52490 0.42990 0.33750 0.30000
H 	H 	0.57690 0.45150 0.31560 -0.07800
C 	C 	0.45820 0.48830 0.36720 -0.40000
H 	H 	0.46770 0.54830 0.36470 0.18700
C 	C 	0.57360 0.28230 0.30720 0.52000
C 	C 	0.06470 0.46090 0.79630 0.48900
C 	C 	0.98590 0.49540 0.83510 -0.29600
C 	C 	0.90250 0.46830 0.83060 0.24300
H 	H 	0.89690 0.42940 0.80320 -0.03900
C 	C 	0.82860 0.49780 0.86570 -0.34500
H 	H 	0.77270 0.47910 0.86200 0.16700
C 	C 	0.83520 0.55600 0.90740 0.34000
C 	C 	0.91810 0.58520 0.91170 -0.35900
H 	H 	0.92340 0.62470 0.93870 0.16200
C 	C 	0.99240 0.55540 0.87570 0.24700
H 	H 	0.04820 0.57560 0.87830 -0.04400
C 	C 	0.75190 0.62190 0.99140 0.40300
C 	C 	0.70920 0.70050 0.99940 -0.41800
H 	H 	0.68100 0.72860 0.97100 0.18600
C 	C 	0.70750 0.73940 0.05020 0.29500
H 	H 	0.67710 0.79360 0.05600 -0.06000
C 	C 	0.74990 0.69930 0.09210 -0.35000
C 	C 	0.78930 0.61720 0.08400 0.30100
H 	H 	0.81550 0.58780 0.11290 -0.06800
C 	C 	0.79060 0.57690 0.03330 -0.41400
H 	H 	0.81710 0.52090 0.02800 0.18900
C 	C 	0.75200 0.74350 0.14720 0.58300
Dy	Dy	0.32704 0.08712 0.77615 2.07200
Dy	Dy	0.35613 0.83129 0.78788 1.85800
Dy	Dy	0.24010 0.60743 0.77000 1.97400
Dy	Dy	0.21394 0.36015 0.73125 1.90000
O 	O 	0.47630 0.08230 0.79850 -0.45400
O 	O 	0.44280 0.95630 0.76960 -0.58700
O 	O 	0.86470 0.95810 0.67630 -0.38800
O 	O 	0.14110 0.23500 0.71380 -0.52700
O 	O 	0.19150 0.11290 0.75940 -0.59300
O 	O 	0.35850 0.05040 0.67870 -0.48300
O 	O 	0.29450 0.93850 0.72920 -0.55600
O 	O 	0.30380 0.81650 0.48080 -0.39300
O 	O 	0.62840 0.78770 0.27550 -0.55200
O 	O 	0.67650 0.69210 0.34020 -0.50800
O 	O 	0.27800 0.98970 0.84900 -0.57000
O 	O 	0.34350 0.86810 0.88130 -0.51400
O 	O 	0.19180 0.04030 0.11450 -0.35800
O 	O 	0.86790 0.28400 0.21860 -0.55200
O 	O 	0.79420 0.17540 0.19120 -0.54300
O 	O 	0.32420 0.69150 0.83330 -0.57700
O 	O 	0.20900 0.61420 0.87170 -0.45700
O 	O 	0.34600 0.70790 0.09450 -0.34400
O 	O 	0.65990 0.61140 0.23440 -0.53600
O 	O 	0.64940 0.48260 0.20080 -0.54300
O 	O 	0.18990 0.62790 0.67550 -0.43000
O 	O 	0.26550 0.50300 0.69170 -0.57500
O 	O 	0.31980 0.52160 0.42130 -0.35300
O 	O 	0.64930 0.30790 0.28300 -0.59100
O 	O 	0.55260 0.20670 0.30090 -0.49300
O 	O 	0.14110 0.49530 0.79480 -0.58500
O 	O 	0.06020 0.39660 0.76930 -0.48100
O 	O 	0.75240 0.58520 0.93900 -0.34100
O 	O 	0.79870 0.70930 0.17990 -0.55200
O 	O 	0.70630 0.81480 0.15390 -0.53800
C 	C 	0.49940 0.99000 0.22390 0.41200
C 	C 	0.40020 0.00950 0.24810 -0.24500
C 	C 	0.37670 0.06100 0.29330 0.21600
H 	H 	0.42010 0.08960 0.30720 -0.03700
C 	C 	0.28790 0.07010 0.31810 -0.35300
H 	H 	0.27260 0.10440 0.34940 0.16800
C 	C 	0.22110 0.03020 0.29830 0.38200
C 	C 	0.24430 0.98200 0.25040 -0.35500
H 	H 	0.19990 0.95890 0.23430 0.16700
C 	C 	0.33410 0.96800 0.22630 0.20600
H 	H 	0.35000 0.93150 0.19610 -0.03100
C 	C 	0.06890 0.99160 0.30990 0.54200
C 	C 	0.00090 0.03250 0.29060 -0.57800
H 	H 	0.99880 0.09360 0.28480 0.24800
C 	C 	0.93360 0.98510 0.27930 0.46000
H 	H 	0.88570 0.01530 0.26590 -0.11300
C 	C 	0.93280 0.89680 0.28650 -0.46600
C 	C 	0.00490 0.85630 0.30790 0.43400
H 	H 	0.00720 0.79540 0.31460 -0.10800
C 	C 	0.07210 0.90290 0.31940 -0.56600
H 	H 	0.12000 0.87440 0.33370 0.23600
C 	C 	0.86210 0.84570 0.26980 0.61000
C 	C 	0.67410 0.02390 0.31910 0.49900
C 	C 	0.67700 0.06840 0.37210 -0.39100
C 	C 	0.72910 0.13710 0.37130 0.41000
H 	H 	0.76150 0.15880 0.33680 -0.11100
C 	C 	0.73510 0.17520 0.42000 -0.52900
H 	H 	0.77290 0.22150 0.41900 0.23600
C 	C 	0.68560 0.14560 0.47050 0.52500
C 	C 	0.63400 0.07930 0.47430 -0.52900
H 	H 	0.60270 0.05880 0.50940 0.22400
C 	C 	0.62650 0.03970 0.42450 0.35700
H 	H 	0.58770 0.99410 0.42610 -0.08100
C 	C 	0.62030 0.20050 0.55750 0.41200
C 	C 	0.54880 0.25220 0.54020 -0.41500
H 	H 	0.55210 0.27500 0.50270 0.18300
C 	C 	0.47540 0.26780 0.57960 0.30100
H 	H 	0.42850 0.30280 0.56850 -0.06400
C 	C 	0.46650 0.23440 0.63550 -0.34700
C 	C 	0.53800 0.18690 0.64980 0.30200
H 	H 	0.53380 0.16410 0.68730 -0.06900
C 	C 	0.61830 0.16910 0.61240 -0.41400
H 	H 	0.66680 0.13800 0.62440 0.19000
C 	C 	0.38120 0.25190 0.67490 0.52600
C 	C 	0.70070 0.06100 0.11050 0.51100
C 	C 	0.73390 0.03480 0.05130 -0.29700
C 	C 	0.70850 0.08600 0.00700 0.24900
H 	H 	0.67370 0.13750 0.01410 -0.03600
C 	C 	0.73490 0.06120 0.95110 -0.36800
H 	H 	0.71770 0.09590 0.92090 0.17900
C 	C 	0.78670 0.98470 0.94110 0.37600
C 	C 	0.81290 0.93300 0.98470 -0.36200
H 	H 	0.84670 0.88100 0.97750 0.16400
C 	C 	0.78790 0.95930 0.04080 0.23700
H 	H 	0.80760 0.92600 0.07090 -0.04200
C 	C 	0.89060 0.91840 0.86870 0.41200
C 	C 	0.96780 0.95610 0.87210 -0.39100
H 	H 	0.96730 0.01080 0.88720 0.17100
C 	C 	0.04920 0.91040 0.85220 0.27300
H 	H 	0.10300 0.93450 0.85510 -0.04600
C 	C 	0.05010 0.83100 0.82880 -0.33900
C 	C 	0.96930 0.79530 0.82710 0.29800
H 	H 	0.96860 0.74110 0.81150 -0.05900
C 	C 	0.89010 0.83830 0.84780 -0.42200
H 	H 	0.83610 0.81240 0.84760 0.19200
C 	C 	0.13670 0.78720 0.80320 0.56100
C 	C 	0.72510 0.34430 0.12240 0.46200
C 	C 	0.70330 0.33340 0.06530 -0.28300
C 	C 	0.77100 0.33370 0.01830 0.25500
H 	H 	0.82980 0.34040 0.02280 -0.05100
C 	C 	0.75150 0.32420 0.96580 -0.37400
H 	H 	0.79670 0.32630 0.93400 0.17600
C 	C 	0.66560 0.31160 0.95930 0.36400
C 	C 	0.59410 0.31080 0.00460 -0.35500
H 	H 	0.53560 0.30440 0.99920 0.15900
C 	C 	0.61500 0.32010 0.05800 0.24200
H 	H 	0.56980 0.31740 0.08980 -0.05800
C 	C 	0.58120 0.33120 0.88220 0.37400
C 	C 	0.55040 0.41460 0.89130 -0.39200
H 	H 	0.57340 0.44740 0.91640 0.17500
C 	C 	0.48410 0.45030 0.86260 0.25800
H 	H 	0.46320 0.50830 0.86780 -0.04800
C 	C 	0.44740 0.40010 0.82530 -0.31300
C 	C 	0.47970 0.31400 0.82020 0.27900
H 	H 	0.45490 0.27910 0.79710 -0.04800
C 	C 	0.54570 0.27780 0.84710 -0.37800
H 	H 	0.56660 0.21980 0.84240 0.18600
C 	C 	0.37270 0.43800 0.79500 0.55900
C 	C 	0.76490 0.43810 0.34220 0.40000
C 	C 	0.74020 0.44950 0.40540 -0.27900
C 	C 	0.67220 0.50770 0.42620 0.24600
H 	H 	0.64170 0.54120 0.40100 -0.04700
C 	C 	0.64860 0.51740 0.48340 -0.38500
H 	H 	0.60060 0.55500 0.49700 0.16800
C 	C 	0.69590 0.47160 0.52050 0.37100
C 	C 	0.76530 0.41260 0.50210 -0.34500
H 	H 	0.79690 0.38060 0.52740 0.17300
C 	C 	0.78540 0.40370 0.44350 0.22100
H 	H 	0.83200 0.36460 0.42960 -0.03800
C 	C 	0.61780 0.54180 0.60150 0.40700
C 	C 	0.62940 0.63110 0.59860 -0.42600
H 	H 	0.68140 0.65350 0.57710 0.18400
C 	C 	0.56650 0.68740 0.62640 0.31800
H 	H 	0.57640 0.74740 0.62370 -0.07000
C 	C 	0.48960 0.65720 0.65800 -0.36800
C 	C 	0.47510 0.57010 0.66250 0.30000
H 	H 	0.42310 0.54850 0.68440 -0.07800
C 	C 	0.54180 0.51170 0.63280 -0.40000
H 	H 	0.53230 0.45170 0.63530 0.18700
C 	C 	0.42640 0.71770 0.69280 0.52000
C 	C 	0.93530 0.53910 0.20370 0.48900
C 	C 	0.01410 0.50460 0.16490 -0.29600
C 	C 	0.09750 0.53170 0.16940 0.24300
H 	H 	0.10310 0.57060 0.19680 -0.03900
C 	C 	0.17140 0.50220 0.13430 -0.34500
H 	H 	0.22730 0.52090 0.13800 0.16700
C 	C 	0.16480 0.44400 0.09260 0.34000
C 	C 	0.08190 0.41480 0.08830 -0.35900
H 	H 	0.07660 0.37530 0.06130 0.16200
C 	C 	0.00760 0.44460 0.12430 0.24700
H 	H 	0.95180 0.42440 0.12170 -0.04400
C 	C 	0.24810 0.37810 0.00860 0.40300
C 	C 	0.29080 0.29950 0.00060 -0.41800
H 	H 	0.31900 0.27140 0.02900 0.18600
C 	C 	0.29250 0.26060 0.94980 0.29500
H 	H 	0.32290 0.20640 0.94400 -0.06000
C 	C 	0.25010 0.30070 0.90790 -0.35000
C 	C 	0.21070 0.38280 0.91600 0.30100
H 	H 	0.18450 0.41220 0.88710 -0.06800
C 	C 	0.20940 0.42310 0.96670 -0.41400
H 	H 	0.18290 0.47910 0.97200 0.18900
C 	C 	0.24800 0.25650 0.85280 0.58300
Dy	Dy	0.67296 0.91288 0.22385 2.07200
Dy	Dy	0.64387 0.16871 0.21212 1.85800
Dy	Dy	0.75990 0.39257 0.23000 1.97400
Dy	Dy	0.78606 0.63985 0.26875 1.90000
O 	O 	0.52370 0.91770 0.20150 -0.45400
O 	O 	0.55720 0.04370 0.23040 -0.58700
O 	O 	0.13530 0.04190 0.32370 -0.38800
O 	O 	0.85890 0.76500 0.28620 -0.52700
O 	O 	0.80850 0.88710 0.24060 -0.59300
O 	O 	0.64150 0.94960 0.32130 -0.48300
O 	O 	0.70550 0.06150 0.27080 -0.55600
O 	O 	0.69620 0.18350 0.51920 -0.39300
O 	O 	0.37160 0.21230 0.72450 -0.55200
O 	O 	0.32350 0.30790 0.65980 -0.50800
O 	O 	0.72200 0.01030 0.15100 -0.57000
O 	O 	0.65650 0.13190 0.11870 -0.51400
O 	O 	0.80820 0.95970 0.88550 -0.35800
O 	O 	0.13210 0.71600 0.78140 -0.55200
O 	O 	0.20580 0.82460 0.80880 -0.54300
O 	O 	0.67580 0.30850 0.16670 -0.57700
O 	O 	0.79100 0.38580 0.12830 -0.45700
O 	O 	0.65400 0.29210 0.90550 -0.34400
O 	O 	0.34010 0.38860 0.76560 -0.53600
O 	O 	0.35060 0.51740 0.79920 -0.54300
O 	O 	0.81010 0.37210 0.32450 -0.43000
O 	O 	0.73450 0.49700 0.30830 -0.57500
O 	O 	0.68020 0.47840 0.57870 -0.35300
O 	O 	0.35070 0.69210 0.71700 -0.59100
O 	O 	0.44740 0.79330 0.69910 -0.49300
O 	O 	0.85890 0.50470 0.20520 -0.58500
O 	O 	0.93980 0.60340 0.23070 -0.48100
O 	O 	0.24760 0.41480 0.06100 -0.34100
O 	O 	0.20130 0.29070 0.82010 -0.55200
O 	O 	0.29370 0.18520 0.84610 -0.53800
