data_crystal

_cell_length_a 14.62600
_cell_length_b 15.29700
_cell_length_c 23.00900
_cell_angle_alpha 84.81700
_cell_angle_beta  83.60500
_cell_angle_gamma 86.48800

_symmetry_space_group_name_	'P 1'
_symmetry_space_group_name_H-M	'P 1'

loop_
_symmetry_equiv_pos_as_xyz
  x,y,z

loop_
_atom_site_label
_atom_site_type_symbol
_atom_site_fract_x
_atom_site_fract_y
_atom_site_fract_z
_atom_site_charge
Gd	Gd	0.18242 0.87077 0.71779 1.61000
Gd	Gd	0.20964 0.11946 0.75979 1.67800
Gd	Gd	0.32985 0.33278 0.77277 1.56800
Gd	Gd	0.29343 0.59771 0.76450 1.72400
O 	O 	0.24070 0.02020 0.67999 -0.50300
C 	C 	0.21320 0.07760 0.64070 0.39300
C 	C 	0.24350 0.06490 0.57790 -0.25100
C 	C 	0.32060 0.01130 0.56310 0.20700
H 	H 	0.35210 0.98220 0.59270 -0.02900
C 	C 	0.19570 0.10610 0.53360 0.19800
H 	H 	0.14370 0.14220 0.54310 -0.03200
C 	C 	0.30200 0.04060 0.46160 0.33300
C 	C 	0.35160 0.00020 0.50500 -0.32800
H 	H 	0.40510 0.96610 0.49540 0.15100
C 	C 	0.22400 0.09420 0.47570 -0.31300
H 	H 	0.19120 0.12190 0.44630 0.15800
O 	O 	0.32720 0.03260 0.40230 -0.32600
O 	O 	0.26030 0.45080 0.71409 -0.48200
O 	O 	0.32550 0.56530 0.66360 -0.42200
O 	O 	0.30980 0.30590 0.46260 -0.34100
C 	C 	0.29720 0.44350 0.61140 -0.26700
C 	C 	0.29270 0.49020 0.66520 0.41400
C 	C 	0.24370 0.37260 0.60880 0.24600
H 	H 	0.20350 0.35510 0.64140 -0.04900
C 	C 	0.30770 0.35220 0.51190 0.36200
C 	C 	0.24800 0.32770 0.55990 -0.36100
H 	H 	0.21060 0.28080 0.55910 0.17900
C 	C 	0.35490 0.46940 0.56180 0.22800
H 	H 	0.39000 0.51810 0.56180 -0.03600
C 	C 	0.36090 0.42350 0.51210 -0.34900
H 	H 	0.40060 0.44070 0.47920 0.16100
C 	C 	0.47600 0.51740 0.76240 0.41000
C 	C 	0.58110 0.45690 0.68130 0.19300
H 	H 	0.53070 0.43130 0.66980 -0.02500
C 	C 	0.64600 0.53750 0.74940 0.21400
H 	H 	0.63900 0.56800 0.78290 -0.03100
C 	C 	0.66520 0.45080 0.64800 -0.31400
H 	H 	0.67200 0.42150 0.61400 0.15700
C 	C 	0.73950 0.48900 0.66600 0.32800
C 	C 	0.57090 0.50130 0.73220 -0.25400
C 	C 	0.73110 0.52990 0.71830 -0.33500
H 	H 	0.78230 0.55150 0.73170 0.16100
O 	O 	0.41500 0.46340 0.76180 -0.52200
O 	O 	0.45560 0.58980 0.78520 -0.41000
O 	O 	0.82080 0.48310 0.62870 -0.32500
O 	O 	0.02210 0.90260 0.75820 -0.40400
O 	O 	0.11370 0.00040 0.78135 -0.50300
O 	O 	0.73620 0.08650 0.94170 -0.33500
C 	C 	0.03270 0.96710 0.78610 0.41000
C 	C 	0.89930 0.08820 0.90750 -0.31800
H 	H 	0.91030 0.12640 0.93490 0.14800
C 	C 	0.95800 0.00160 0.82720 -0.23600
C 	C 	0.81210 0.06040 0.90600 0.32200
C 	C 	0.79610 0.00170 0.86470 -0.29000
H 	H 	0.73740 0.98210 0.86340 0.15000
C 	C 	0.97130 0.05900 0.86770 0.19400
H 	H 	0.02990 0.07900 0.86860 -0.01600
C 	C 	0.86970 0.97370 0.82600 0.17800
H 	H 	0.85960 0.93530 0.79860 -0.01100
C 	C 	0.74910 0.12260 0.99390 0.36100
C 	C 	0.24830 0.16630 0.87350 0.42100
C 	C 	0.27550 0.17240 0.93250 -0.25300
C 	C 	0.32220 0.18400 0.04450 0.33700
C 	C 	0.20810 0.16880 0.98130 0.21000
H 	H 	0.14690 0.16190 0.97590 -0.03200
C 	C 	0.36510 0.18080 0.94160 0.21900
H 	H 	0.41000 0.18270 0.90960 -0.04400
C 	C 	0.39140 0.18660 0.99770 -0.32700
H 	H 	0.45270 0.19200 0.00350 0.15000
O 	O 	0.30140 0.19580 0.82810 -0.50200
O 	O 	0.17590 0.13030 0.86589 -0.40300
C 	C 	0.23210 0.17560 0.03680 -0.33600
H 	H 	0.18730 0.17440 0.06890 0.16500
O 	O 	0.23860 0.50410 0.84290 -0.50500
O 	O 	0.30140 0.37360 0.86770 -0.48500
C 	C 	0.27350 0.40130 0.98560 0.26800
H 	H 	0.30920 0.35220 0.97400 -0.04500
C 	C 	0.23990 0.46070 0.94410 -0.31900
C 	C 	0.26190 0.44520 0.88050 0.50900
C 	C 	0.18760 0.53320 0.96120 0.28000
H 	H 	0.16520 0.57420 0.93320 -0.05600
O 	O 	0.18660 0.49250 0.12150 -0.35600
C 	C 	0.25490 0.41340 0.04490 -0.38000
H 	H 	0.27810 0.37300 0.07290 0.19000
O 	O 	0.16900 0.14470 0.65634 -0.40000
O 	O 	0.34120 0.19680 0.10110 -0.34200
C 	C 	0.45970 0.07980 0.10970 -0.37400
H 	H 	0.43530 0.04760 0.08320 0.16900
C 	C 	0.42050 0.16090 0.12240 0.37200
C 	C 	0.57120 0.09260 0.17800 -0.29600
C 	C 	0.53190 0.17530 0.18850 0.24400
H 	H 	0.55660 0.20830 0.21450 -0.03700
C 	C 	0.53550 0.04690 0.13670 0.24700
H 	H 	0.56350 0.99310 0.12720 -0.04000
C 	C 	0.65020 0.05610 0.20800 0.49200
O 	O 	0.68250 0.10390 0.24250 -0.45500
C 	C 	0.45590 0.20970 0.16070 -0.35700
H 	H 	0.42960 0.26500 0.16810 0.17800
O 	O 	0.68140 0.97940 0.20050 -0.46300
C 	C 	0.03140 0.61930 0.67920 -0.30900
C 	C 	0.03120 0.52780 0.68920 0.25400
H 	H 	0.07760 0.49710 0.70820 -0.04300
C 	C 	0.96440 0.66340 0.64740 0.27600
H 	H 	0.96650 0.72370 0.63800 -0.05400
C 	C 	0.96200 0.48290 0.67070 -0.36300
H 	H 	0.96140 0.42200 0.67710 0.17500
C 	C 	0.09750 0.66820 0.70480 0.49600
O 	O 	0.14840 0.62540 0.74180 -0.48200
O 	O 	0.10610 0.74940 0.69180 -0.45600
C 	C 	0.89390 0.53000 0.64260 0.37100
C 	C 	0.80670 0.11360 0.08670 0.25000
H 	H 	0.84090 0.08330 0.11460 -0.04600
C 	C 	0.79700 0.07630 0.03600 -0.37100
H 	H 	0.82260 0.02030 0.03010 0.17200
C 	C 	0.76610 0.19600 0.09710 -0.28400
C 	C 	0.71690 0.24080 0.05510 0.24200
H 	H 	0.68930 0.29600 0.06140 -0.04000
C 	C 	0.70840 0.20380 0.00360 -0.36200
H 	H 	0.67500 0.23410 0.97530 0.16500
C 	C 	0.39680 0.28650 0.43360 0.37400
C 	C 	0.40920 0.30360 0.37380 -0.37100
H 	H 	0.36030 0.32720 0.35380 0.17600
C 	C 	0.56550 0.24820 0.37240 -0.27800
C 	C 	0.49300 0.28630 0.34360 0.25200
H 	H 	0.50150 0.30010 0.30320 -0.05100
C 	C 	0.54980 0.22760 0.43320 0.23700
H 	H 	0.59700 0.20030 0.45340 -0.04000
C 	C 	0.46530 0.24730 0.46350 -0.37200
H 	H 	0.45550 0.23390 0.50380 0.17000
C 	C 	0.89600 0.61900 0.63010 -0.39200
H 	H 	0.85070 0.64910 0.60970 0.18600
C 	C 	0.77780 0.23680 0.15340 0.48800
O 	O 	0.72990 0.30720 0.16241 -0.46600
O 	O 	0.83110 0.19900 0.18770 -0.46000
C 	C 	0.65780 0.22940 0.34050 0.45200
O 	O 	0.71220 0.17170 0.36320 -0.43100
O 	O 	0.67910 0.26640 0.28969 -0.49200
C 	C 	0.20180 0.48590 0.06160 0.39200
C 	C 	0.16830 0.54520 0.02020 -0.40000
H 	H 	0.13220 0.59400 0.03170 0.17500
C 	C 	0.11820 0.55080 0.14330 0.39000
C 	C 	0.07210 0.68540 0.18500 0.24700
H 	H 	0.08720 0.73910 0.19630 -0.03800
C 	C 	0.14050 0.62900 0.15960 -0.38100
H 	H 	0.20130 0.64500 0.15370 0.17300
C 	C 	0.02930 0.52800 0.15000 -0.38200
H 	H 	0.01450 0.47510 0.13720 0.17800
C 	C 	0.98260 0.66110 0.19320 -0.29400
C 	C 	0.91080 0.72390 0.22020 0.45400
C 	C 	0.95940 0.58320 0.17600 0.26100
H 	H 	0.89860 0.56700 0.18130 -0.05400
O 	O 	0.93460 0.79680 0.23290 -0.42600
O 	O 	0.82730 0.70630 0.22850 -0.49800
C 	C 	0.47190 0.99400 0.35350 -0.35600
H 	H 	0.48230 0.05340 0.34570 0.17300
C 	C 	0.39290 0.96750 0.38500 0.35300
C 	C 	0.37700 0.87960 0.39760 -0.34200
H 	H 	0.32310 0.86220 0.41980 0.15900
C 	C 	0.52350 0.84310 0.34440 -0.27600
C 	C 	0.53700 0.93070 0.33290 0.24000
H 	H 	0.59090 0.94850 0.31090 -0.04900
C 	C 	0.44360 0.81680 0.37630 0.21400
H 	H 	0.43350 0.75730 0.38390 -0.03400
C 	C 	0.59130 0.77630 0.31810 0.41800
O 	O 	0.57080 0.69700 0.31890 -0.41000
O 	O 	0.66640 0.80080 0.28964 -0.52200
Gd	Gd	0.81758 0.12923 0.28221 1.61000
Gd	Gd	0.79036 0.88054 0.24021 1.67800
Gd	Gd	0.67015 0.66722 0.22723 1.56800
Gd	Gd	0.70657 0.40229 0.23550 1.72400
O 	O 	0.75930 0.97980 0.32001 -0.50300
C 	C 	0.78680 0.92240 0.35930 0.39300
C 	C 	0.75650 0.93510 0.42210 -0.25100
C 	C 	0.67940 0.98870 0.43690 0.20700
H 	H 	0.64790 0.01780 0.40730 -0.02900
C 	C 	0.80430 0.89390 0.46640 0.19800
H 	H 	0.85630 0.85780 0.45690 -0.03200
C 	C 	0.69800 0.95940 0.53840 0.33300
C 	C 	0.64840 0.99980 0.49500 -0.32800
H 	H 	0.59490 0.03390 0.50460 0.15100
C 	C 	0.77600 0.90580 0.52430 -0.31300
H 	H 	0.80880 0.87810 0.55370 0.15800
O 	O 	0.67280 0.96740 0.59770 -0.32600
O 	O 	0.73970 0.54920 0.28591 -0.48200
O 	O 	0.67450 0.43470 0.33640 -0.42200
O 	O 	0.69020 0.69410 0.53740 -0.34100
C 	C 	0.70280 0.55650 0.38860 -0.26700
C 	C 	0.70730 0.50980 0.33480 0.41400
C 	C 	0.75630 0.62740 0.39120 0.24600
H 	H 	0.79650 0.64490 0.35860 -0.04900
C 	C 	0.69230 0.64780 0.48810 0.36200
C 	C 	0.75200 0.67230 0.44010 -0.36100
H 	H 	0.78940 0.71920 0.44090 0.17900
C 	C 	0.64510 0.53060 0.43820 0.22800
H 	H 	0.61000 0.48190 0.43820 -0.03600
C 	C 	0.63910 0.57650 0.48790 -0.34900
H 	H 	0.59940 0.55930 0.52080 0.16100
C 	C 	0.52400 0.48260 0.23760 0.41000
C 	C 	0.41890 0.54310 0.31870 0.19300
H 	H 	0.46930 0.56870 0.33020 -0.02500
C 	C 	0.35400 0.46250 0.25060 0.21400
H 	H 	0.36100 0.43200 0.21710 -0.03100
C 	C 	0.33480 0.54920 0.35200 -0.31400
H 	H 	0.32800 0.57850 0.38600 0.15700
C 	C 	0.26050 0.51100 0.33400 0.32800
C 	C 	0.42910 0.49870 0.26780 -0.25400
C 	C 	0.26890 0.47010 0.28170 -0.33500
H 	H 	0.21770 0.44850 0.26830 0.16100
O 	O 	0.58500 0.53660 0.23820 -0.52200
O 	O 	0.54440 0.41020 0.21480 -0.41000
O 	O 	0.17920 0.51690 0.37130 -0.32500
O 	O 	0.97790 0.09740 0.24180 -0.40400
O 	O 	0.88630 0.99960 0.21865 -0.50300
O 	O 	0.26380 0.91350 0.05830 -0.33500
C 	C 	0.96730 0.03290 0.21390 0.41000
C 	C 	0.10070 0.91180 0.09250 -0.31800
H 	H 	0.08970 0.87360 0.06510 0.14800
C 	C 	0.04200 0.99840 0.17280 -0.23600
C 	C 	0.18790 0.93960 0.09400 0.32200
C 	C 	0.20390 0.99830 0.13530 -0.29000
H 	H 	0.26260 0.01790 0.13660 0.15000
C 	C 	0.02870 0.94100 0.13230 0.19400
H 	H 	0.97010 0.92100 0.13140 -0.01600
C 	C 	0.13030 0.02630 0.17400 0.17800
H 	H 	0.14040 0.06470 0.20140 -0.01100
C 	C 	0.25090 0.87740 0.00610 0.36100
C 	C 	0.75170 0.83370 0.12650 0.42100
C 	C 	0.72450 0.82760 0.06750 -0.25300
C 	C 	0.67780 0.81600 0.95550 0.33700
C 	C 	0.79190 0.83120 0.01870 0.21000
H 	H 	0.85310 0.83810 0.02410 -0.03200
C 	C 	0.63490 0.81920 0.05840 0.21900
H 	H 	0.59000 0.81730 0.09040 -0.04400
C 	C 	0.60860 0.81340 0.00230 -0.32700
H 	H 	0.54730 0.80800 0.99650 0.15000
O 	O 	0.69860 0.80420 0.17190 -0.50200
O 	O 	0.82410 0.86970 0.13411 -0.40300
C 	C 	0.76790 0.82440 0.96320 -0.33600
H 	H 	0.81270 0.82560 0.93110 0.16500
O 	O 	0.76140 0.49590 0.15710 -0.50500
O 	O 	0.69860 0.62640 0.13230 -0.48500
C 	C 	0.72650 0.59870 0.01440 0.26800
H 	H 	0.69080 0.64780 0.02600 -0.04500
C 	C 	0.76010 0.53930 0.05590 -0.31900
C 	C 	0.73810 0.55480 0.11950 0.50900
C 	C 	0.81240 0.46680 0.03880 0.28000
H 	H 	0.83480 0.42580 0.06680 -0.05600
O 	O 	0.81340 0.50750 0.87850 -0.35600
C 	C 	0.74510 0.58660 0.95510 -0.38000
H 	H 	0.72190 0.62700 0.92710 0.19000
O 	O 	0.83100 0.85530 0.34366 -0.40000
O 	O 	0.65880 0.80320 0.89890 -0.34200
C 	C 	0.54030 0.92020 0.89030 -0.37400
H 	H 	0.56470 0.95240 0.91680 0.16900
C 	C 	0.57950 0.83910 0.87760 0.37200
C 	C 	0.42880 0.90740 0.82200 -0.29600
C 	C 	0.46810 0.82470 0.81150 0.24400
H 	H 	0.44340 0.79170 0.78550 -0.03700
C 	C 	0.46450 0.95310 0.86330 0.24700
H 	H 	0.43650 0.00690 0.87280 -0.04000
C 	C 	0.34980 0.94390 0.79200 0.49200
O 	O 	0.31750 0.89610 0.75750 -0.45500
C 	C 	0.54410 0.79030 0.83930 -0.35700
H 	H 	0.57040 0.73500 0.83190 0.17800
O 	O 	0.31860 0.02060 0.79950 -0.46300
C 	C 	0.96860 0.38070 0.32080 -0.30900
C 	C 	0.96880 0.47220 0.31080 0.25400
H 	H 	0.92240 0.50290 0.29180 -0.04300
C 	C 	0.03560 0.33660 0.35260 0.27600
H 	H 	0.03350 0.27630 0.36200 -0.05400
C 	C 	0.03800 0.51710 0.32930 -0.36300
H 	H 	0.03860 0.57800 0.32290 0.17500
C 	C 	0.90250 0.33180 0.29520 0.49600
O 	O 	0.85160 0.37460 0.25820 -0.48200
O 	O 	0.89390 0.25060 0.30820 -0.45600
C 	C 	0.10610 0.47000 0.35740 0.37100
C 	C 	0.19330 0.88640 0.91330 0.25000
H 	H 	0.15910 0.91670 0.88540 -0.04600
C 	C 	0.20300 0.92370 0.96400 -0.37100
H 	H 	0.17740 0.97970 0.96990 0.17200
C 	C 	0.23390 0.80400 0.90290 -0.28400
C 	C 	0.28310 0.75920 0.94490 0.24200
H 	H 	0.31070 0.70400 0.93860 -0.04000
C 	C 	0.29160 0.79620 0.99640 -0.36200
H 	H 	0.32500 0.76590 0.02470 0.16500
C 	C 	0.60320 0.71350 0.56640 0.37400
C 	C 	0.59080 0.69640 0.62620 -0.37100
H 	H 	0.63970 0.67280 0.64620 0.17600
C 	C 	0.43450 0.75180 0.62760 -0.27800
C 	C 	0.50700 0.71370 0.65640 0.25200
H 	H 	0.49850 0.69990 0.69680 -0.05100
C 	C 	0.45020 0.77240 0.56680 0.23700
H 	H 	0.40300 0.79970 0.54660 -0.04000
C 	C 	0.53470 0.75270 0.53650 -0.37200
H 	H 	0.54450 0.76610 0.49620 0.17000
C 	C 	0.10400 0.38100 0.36990 -0.39200
H 	H 	0.14930 0.35090 0.39030 0.18600
C 	C 	0.22220 0.76320 0.84660 0.48800
O 	O 	0.27010 0.69280 0.83759 -0.46600
O 	O 	0.16890 0.80100 0.81230 -0.46000
C 	C 	0.34220 0.77060 0.65950 0.45200
O 	O 	0.28780 0.82830 0.63680 -0.43100
O 	O 	0.32090 0.73360 0.71031 -0.49200
C 	C 	0.79820 0.51410 0.93840 0.39200
C 	C 	0.83170 0.45480 0.97980 -0.40000
H 	H 	0.86780 0.40600 0.96830 0.17500
C 	C 	0.88180 0.44920 0.85670 0.39000
C 	C 	0.92790 0.31460 0.81500 0.24700
H 	H 	0.91280 0.26090 0.80370 -0.03800
C 	C 	0.85950 0.37100 0.84040 -0.38100
H 	H 	0.79870 0.35500 0.84630 0.17300
C 	C 	0.97070 0.47200 0.85000 -0.38200
H 	H 	0.98550 0.52490 0.86280 0.17800
C 	C 	0.01740 0.33890 0.80680 -0.29400
C 	C 	0.08920 0.27610 0.77980 0.45400
C 	C 	0.04060 0.41680 0.82400 0.26100
H 	H 	0.10140 0.43300 0.81870 -0.05400
O 	O 	0.06540 0.20320 0.76710 -0.42600
O 	O 	0.17270 0.29370 0.77150 -0.49800
C 	C 	0.52810 0.00600 0.64650 -0.35600
H 	H 	0.51770 0.94660 0.65430 0.17300
C 	C 	0.60710 0.03250 0.61500 0.35300
C 	C 	0.62300 0.12040 0.60240 -0.34200
H 	H 	0.67690 0.13780 0.58020 0.15900
C 	C 	0.47650 0.15690 0.65560 -0.27600
C 	C 	0.46300 0.06930 0.66710 0.24000
H 	H 	0.40910 0.05150 0.68910 -0.04900
C 	C 	0.55640 0.18320 0.62370 0.21400
H 	H 	0.56650 0.24270 0.61610 -0.03400
C 	C 	0.40870 0.22370 0.68190 0.41800
O 	O 	0.42920 0.30300 0.68110 -0.41000
O 	O 	0.33360 0.19920 0.71036 -0.52200
