data_crystal

_cell_length_a 33.96400
_cell_length_b 14.58970
_cell_length_c 33.78700
_cell_angle_alpha 90.00000
_cell_angle_beta  104.93600
_cell_angle_gamma 90.00000

_symmetry_space_group_name_	'P 1'
_symmetry_space_group_name_H-M	'P 1'

loop_
_symmetry_equiv_pos_as_xyz
  x,y,z

loop_
_atom_site_label
_atom_site_type_symbol
_atom_site_fract_x
_atom_site_fract_y
_atom_site_fract_z
_atom_site_charge
C 	C 	0.46270 0.60410 0.66890 0.07500
H 	H 	0.45710 0.65470 0.65060 -0.00800
C 	C 	0.49370 0.54510 0.66550 -0.11500
H 	H 	0.50940 0.55540 0.64640 0.08200
C 	C 	0.50030 0.47020 0.69160 0.06000
C 	C 	0.47880 0.46290 0.72200 -0.09200
H 	H 	0.48470 0.41430 0.74130 0.08500
C 	C 	0.44920 0.52590 0.72360 0.05400
H 	H 	0.43490 0.52100 0.74420 0.01300
C 	C 	0.66930 0.34770 0.61510 0.05200
H 	H 	0.69630 0.32400 0.62210 -0.04100
C 	C 	0.64540 0.33360 0.63990 -0.11600
H 	H 	0.65490 0.29540 0.66320 0.08700
C 	C 	0.60830 0.37140 0.63330 0.06100
C 	C 	0.59370 0.41700 0.59700 -0.10900
H 	H 	0.56690 0.44130 0.59090 0.07500
C 	C 	0.61620 0.42800 0.56920 0.03700
H 	H 	0.60510 0.45770 0.54370 -0.05300
C 	C 	0.55630 0.09190 0.78690 0.05200
H 	H 	0.53640 0.06900 0.79960 0.01600
C 	C 	0.54680 0.16440 0.76050 -0.09200
H 	H 	0.52060 0.19220 0.75510 0.08200
C 	C 	0.57630 0.19730 0.74150 0.04900
C 	C 	0.61540 0.15660 0.75130 -0.11200
H 	H 	0.63640 0.17820 0.73980 0.08700
C 	C 	0.62160 0.08320 0.77870 0.08800
H 	H 	0.64770 0.05500 0.78540 0.00300
C 	C 	0.53270 0.40440 0.68990 0.11400
C 	C 	0.58170 0.35700 0.66190 0.11600
C 	C 	0.56780 0.27580 0.71370 0.10400
C 	C 	0.72520 0.59980 0.57110 0.09400
H 	H 	0.73870 0.56570 0.59460 -0.08900
C 	C 	0.73230 0.69090 0.57160 -0.14900
H 	H 	0.75100 0.72000 0.59390 0.08800
C 	C 	0.71050 0.74030 0.53700 0.08400
C 	C 	0.68430 0.69450 0.50520 -0.14600
H 	H 	0.66840 0.72640 0.48200 0.09800
C 	C 	0.68220 0.60090 0.50820 0.09400
H 	H 	0.66600 0.56830 0.48540 -0.06900
C 	C 	0.82030 0.15070 0.61660 0.13500
H 	H 	0.82310 0.21540 0.61540 -0.00800
C 	C 	0.82040 0.97570 0.11340 -0.03800
H 	H 	0.82420 0.91140 0.11200 0.04100
C 	C 	0.78930 0.10970 0.58740 -0.22400
H 	H 	0.77080 0.14500 0.56720 0.14900
C 	C 	0.78620 0.01650 0.58860 0.20700
C 	C 	0.81230 0.96720 0.61860 -0.29300
H 	H 	0.81040 0.90240 0.62000 0.16200
C 	C 	0.84120 0.01500 0.64640 0.22600
H 	H 	0.85920 0.98100 0.66750 -0.05100
C 	C 	0.63910 0.02570 0.39440 0.21200
H 	H 	0.62500 0.99230 0.37080 -0.06600
C 	C 	0.65580 0.97750 0.42890 -0.28300
H 	H 	0.65160 0.91330 0.43000 0.15000
C 	C 	0.67950 0.02410 0.46290 0.16500
C 	C 	0.68280 0.11690 0.46030 -0.18000
H 	H 	0.69840 0.15070 0.48300 0.12500
C 	C 	0.66290 0.16260 0.42390 0.08900
H 	H 	0.66510 0.22740 0.42230 0.01200
C 	C 	0.71660 0.84270 0.53450 0.10400
C 	C 	0.75370 0.96970 0.55760 0.01800
C 	C 	0.70270 0.97250 0.49940 0.02600
C 	C 	0.56380 0.04590 0.28600 0.10600
H 	H 	0.54440 0.07080 0.29880 -0.02500
C 	C 	0.55250 0.97420 0.25850 -0.16500
H 	H 	0.52540 0.95150 0.25190 0.09200
C 	C 	0.58100 0.93630 0.24080 0.09400
C 	C 	0.61910 0.97300 0.24890 -0.18600
H 	H 	0.63820 0.95070 0.23510 0.10100
C 	C 	0.62970 0.04300 0.27740 0.13600
H 	H 	0.65710 0.06450 0.28460 -0.02400
C 	C 	0.46390 0.52340 0.17180 0.07700
H 	H 	0.46070 0.46840 0.15630 -0.00200
C 	C 	0.49570 0.58300 0.17120 -0.12000
H 	H 	0.51390 0.56780 0.15500 0.09000
C 	C 	0.50150 0.66220 0.19300 0.06100
C 	C 	0.47510 0.68140 0.21730 -0.11800
H 	H 	0.47790 0.73540 0.23350 0.07700
C 	C 	0.44460 0.61810 0.21670 0.06900
H 	H 	0.42680 0.62890 0.23390 -0.00300
C 	C 	0.66930 0.77960 0.10950 0.13200
H 	H 	0.69490 0.80920 0.11330 0.06300
C 	C 	0.64660 0.79300 0.13880 -0.13300
H 	H 	0.65800 0.82640 0.16320 0.09400
C 	C 	0.60870 0.75820 0.13200 0.07800
C 	C 	0.59700 0.69660 0.10070 -0.11900
H 	H 	0.57360 0.65910 0.09780 0.09200
C 	C 	0.62150 0.69150 0.07300 0.09200
H 	H 	0.61150 0.65770 0.04850 0.03500
C 	C 	0.57150 0.85560 0.21220 0.09300
C 	C 	0.53430 0.72980 0.19000 0.11200
C 	C 	0.58340 0.77440 0.16130 0.11600
C 	C 	0.67650 0.52610 0.00430 0.07300
H 	H 	0.65760 0.55620 0.98250 0.03900
C 	C 	0.68140 0.43080 0.00390 -0.11300
H 	H 	0.66520 0.39660 0.98170 0.08700
C 	C 	0.70850 0.38590 0.03410 0.06400
C 	C 	0.73100 0.43840 0.06620 -0.11600
H 	H 	0.74980 0.40940 0.08840 0.09300
C 	C 	0.72630 0.53370 0.06660 0.09100
H 	H 	0.74240 0.56940 0.08830 0.08400
C 	C 	0.65860 0.96930 0.92130 -0.02200
H 	H 	0.66020 0.90440 0.91970 0.03200
C 	C 	0.67850 0.01000 0.95730 0.01000
H 	H 	0.69290 0.97440 0.97990 0.03400
C 	C 	0.67700 0.10430 0.95990 0.01100
C 	C 	0.65430 0.15350 0.92630 -0.06300
H 	H 	0.65220 0.21840 0.92730 0.08600
C 	C 	0.63450 0.10440 0.89110 0.05000
H 	H 	0.61860 0.13720 0.86820 0.02800
C 	C 	0.83850 0.11520 0.14650 0.05800
H 	H 	0.85470 0.14860 0.16900 0.00600
C 	C 	0.80910 0.16040 0.11800 -0.07700
H 	H 	0.80620 0.22480 0.12030 0.08900
C 	C 	0.78360 0.11390 0.08580 0.01100
C 	C 	0.78990 0.01720 0.08450 0.01400
H 	H 	0.77280 0.98150 0.06350 0.03500
C 	C 	0.71450 0.28590 0.03170 0.10200
C 	C 	0.70020 0.15350 0.99660 0.12400
C 	C 	0.75030 0.15820 0.05490 0.12800
N 	N 	0.44020 0.59620 0.69540 -0.26400
N 	N 	0.65590 0.39540 0.57970 -0.37300
N 	N 	0.59470 0.05100 0.79530 -0.24900
N 	N 	0.55190 0.41620 0.66050 -0.13500
N 	N 	0.59130 0.28440 0.68680 -0.13100
N 	N 	0.53840 0.33420 0.71700 -0.13400
N 	N 	0.70090 0.55370 0.54050 -0.42200
N 	N 	0.84630 0.10590 0.64630 -0.30100
N 	N 	0.64090 0.11540 0.39110 -0.32200
N 	N 	0.74760 0.87970 0.56310 -0.11200
N 	N 	0.73150 0.01860 0.52510 -0.10400
N 	N 	0.69340 0.88410 0.50250 -0.11700
N 	N 	0.60250 0.08140 0.29510 -0.29800
N 	N 	0.43870 0.54250 0.19350 -0.26700
N 	N 	0.65630 0.72980 0.07890 -0.10500
N 	N 	0.54100 0.80040 0.21680 -0.13900
N 	N 	0.55360 0.71460 0.16160 -0.13000
N 	N 	0.59330 0.84580 0.18590 -0.13500
N 	N 	0.69880 0.57400 0.03600 -0.15300
N 	N 	0.63710 0.01320 0.88850 -0.22300
N 	N 	0.84520 0.02460 0.14380 -0.22500
N 	N 	0.69080 0.24240 0.99900 -0.13400
N 	N 	0.73030 0.10840 0.02390 -0.13900
N 	N 	0.74450 0.24770 0.06090 -0.13600
Zn	Zn	0.38917 0.67375 0.69126 1.18400
Br	Br	0.36974 0.64450 0.75224 -0.29200
Br	Br	0.39967 0.81500 0.66260 -0.20200
Zn	Zn	0.69360 0.41160 0.54160 -3.73000
Br	Br	0.75600 0.34400 0.57390 -0.73900
Br	Br	0.65740 0.37280 0.47510 -0.60200
Zn	Zn	0.88873 0.95903 0.18888 1.18500
Br	Br	0.90267 0.82059 0.15920 -0.48200
Br	Br	0.86721 0.97483 0.24886 -0.48300
Zn	Zn	0.62169 0.18587 0.33664 0.74600
Br	Br	0.68230 0.24645 0.32522 0.15500
Br	Br	0.56513 0.27516 0.33795 -0.58200
Zn	Zn	0.68714 0.71660 0.03260 -3.39800
Br	Br	0.74982 0.79060 0.05910 -0.02700
Br	Br	0.64610 0.75040 0.96745 -0.14500
Zn	Zn	0.60550 0.94740 0.83600 0.57600
Br	Br	0.65280 0.84990 0.81410 -0.09900
Br	Br	0.54630 0.88910 0.84990 -0.30700
Br	Br	0.36610 0.67600 0.74850 -0.14100
Br	Br	0.39920 0.80650 0.65380 -0.24200
Zn	Zn	0.70310 0.41300 0.55080 3.75700
Br	Br	0.76630 0.36470 0.59320 0.28000
Br	Br	0.67720 0.36020 0.48490 -0.53100
Zn	Zn	0.68030 0.41570 0.52820 2.53400
Br	Br	0.74040 0.33030 0.54980 -0.41800
Br	Br	0.63690 0.38610 0.46380 0.30200
Zn	Zn	0.60530 0.18700 0.33830 0.75200
Br	Br	0.65530 0.27360 0.31530 -0.70300
Br	Br	0.54170 0.23000 0.35120 -0.02800
Zn	Zn	0.70420 0.71140 0.05610 -6.21100
Br	Br	0.76160 0.76320 0.10530 0.18600
Br	Br	0.68130 0.77300 0.99000 0.08700
Zn	Zn	0.69780 0.71330 0.04580 9.35200
Br	Br	0.76050 0.77400 0.08210 -0.21500
Br	Br	0.66790 0.76050 0.97950 -0.07000
Zn	Zn	0.61170 0.93700 0.83780 0.56600
Br	Br	0.66770 0.87020 0.82280 -0.35600
Br	Br	0.54750 0.88200 0.83790 -0.12600
C 	C 	0.96270 0.10410 0.66890 0.06800
H 	H 	0.95710 0.15470 0.65060 -0.00400
C 	C 	0.99370 0.04510 0.66550 -0.08300
H 	H 	0.00940 0.05540 0.64640 0.07900
C 	C 	0.00030 0.97020 0.69160 0.03900
C 	C 	0.97880 0.96290 0.72200 -0.12400
H 	H 	0.98470 0.91430 0.74130 0.08900
C 	C 	0.94920 0.02590 0.72360 0.08800
H 	H 	0.93490 0.02100 0.74420 0.00800
C 	C 	0.16930 0.84770 0.61510 0.04900
H 	H 	0.19630 0.82400 0.62210 -0.04300
C 	C 	0.14540 0.83360 0.63990 -0.11600
H 	H 	0.15490 0.79540 0.66320 0.08500
C 	C 	0.10830 0.87140 0.63330 0.05700
C 	C 	0.09370 0.91700 0.59700 -0.10900
H 	H 	0.06690 0.94130 0.59090 0.07100
C 	C 	0.11620 0.92800 0.56920 0.03300
H 	H 	0.10510 0.95770 0.54370 -0.05700
C 	C 	0.05630 0.59190 0.78690 0.05100
H 	H 	0.03640 0.56900 0.79960 0.00900
C 	C 	0.04680 0.66440 0.76050 -0.09500
H 	H 	0.02060 0.69220 0.75510 0.08100
C 	C 	0.07630 0.69730 0.74150 0.04800
C 	C 	0.11540 0.65660 0.75130 -0.11400
H 	H 	0.13640 0.67820 0.73980 0.08500
C 	C 	0.12160 0.58320 0.77870 0.08700
H 	H 	0.14770 0.55500 0.78540 -0.00200
C 	C 	0.03270 0.90440 0.68990 0.11600
C 	C 	0.08170 0.85700 0.66190 0.11600
C 	C 	0.06780 0.77580 0.71370 0.10300
C 	C 	0.22520 0.09980 0.57110 0.09500
H 	H 	0.23870 0.06570 0.59460 -0.08300
C 	C 	0.23230 0.19090 0.57160 -0.14600
H 	H 	0.25100 0.22000 0.59390 0.09000
C 	C 	0.21050 0.24030 0.53700 0.08400
C 	C 	0.18430 0.19450 0.50520 -0.14400
H 	H 	0.16840 0.22640 0.48200 0.10000
C 	C 	0.18220 0.10090 0.50820 0.09500
H 	H 	0.16600 0.06830 0.48540 -0.06200
C 	C 	0.32030 0.65070 0.61660 0.09100
H 	H 	0.32310 0.71540 0.61540 0.00500
C 	C 	0.32040 0.47570 0.11340 0.06400
H 	H 	0.32420 0.41140 0.11200 0.01100
C 	C 	0.28930 0.60970 0.58740 -0.14900
H 	H 	0.27080 0.64500 0.56720 0.12300
C 	C 	0.28620 0.51650 0.58860 0.08500
C 	C 	0.31230 0.46720 0.61860 -0.13500
H 	H 	0.31040 0.40240 0.62000 0.11200
C 	C 	0.34120 0.51500 0.64640 0.09100
H 	H 	0.35920 0.48100 0.66750 0.01000
C 	C 	0.13910 0.52570 0.39440 0.07800
H 	H 	0.12500 0.49230 0.37080 -0.00500
C 	C 	0.15580 0.47750 0.42890 -0.13300
H 	H 	0.15160 0.41330 0.43000 0.10300
C 	C 	0.17950 0.52410 0.46290 0.05200
C 	C 	0.18280 0.61690 0.46030 -0.11300
H 	H 	0.19840 0.65070 0.48300 0.10200
C 	C 	0.16290 0.66260 0.42390 0.05000
H 	H 	0.16510 0.72740 0.42230 0.02400
C 	C 	0.21660 0.34270 0.53450 0.10900
C 	C 	0.25370 0.46970 0.55760 0.08700
C 	C 	0.20270 0.47250 0.49940 0.09300
C 	C 	0.06380 0.54590 0.28600 0.05000
H 	H 	0.04440 0.57080 0.29880 -0.01200
C 	C 	0.05250 0.47420 0.25850 -0.10100
H 	H 	0.02540 0.45150 0.25190 0.07700
C 	C 	0.08100 0.43630 0.24080 0.05500
C 	C 	0.11910 0.47300 0.24890 -0.12200
H 	H 	0.13820 0.45070 0.23510 0.08500
C 	C 	0.12970 0.54300 0.27740 0.07900
H 	H 	0.15710 0.56450 0.28460 -0.01200
C 	C 	0.96390 0.02340 0.17180 0.13300
H 	H 	0.96070 0.96840 0.15630 -0.03700
C 	C 	0.99570 0.08300 0.17120 -0.14900
H 	H 	0.01390 0.06780 0.15500 0.10400
C 	C 	0.00150 0.16220 0.19300 0.07700
C 	C 	0.97510 0.18140 0.21730 -0.12800
H 	H 	0.97790 0.23540 0.23350 0.08200
C 	C 	0.94460 0.11810 0.21670 0.07800
H 	H 	0.92680 0.12890 0.23390 0.00000
C 	C 	0.16930 0.27960 0.10950 0.13400
H 	H 	0.19490 0.30920 0.11330 0.06400
C 	C 	0.14660 0.29300 0.13880 -0.13300
H 	H 	0.15800 0.32640 0.16320 0.09600
C 	C 	0.10870 0.25820 0.13200 0.08000
C 	C 	0.09700 0.19660 0.10070 -0.11800
H 	H 	0.07360 0.15910 0.09780 0.09400
C 	C 	0.12150 0.19150 0.07300 0.09400
H 	H 	0.11150 0.15770 0.04850 0.03600
C 	C 	0.07150 0.35560 0.21220 0.10700
C 	C 	0.03430 0.22980 0.19000 0.10800
C 	C 	0.08340 0.27440 0.16130 0.11700
C 	C 	0.17650 0.02610 0.00430 0.12600
H 	H 	0.15760 0.05620 0.98250 0.02600
C 	C 	0.18140 0.93080 0.00390 -0.17600
H 	H 	0.16520 0.89660 0.98170 0.10200
C 	C 	0.20850 0.88590 0.03410 0.10200
C 	C 	0.23100 0.93840 0.06620 -0.17900
H 	H 	0.24980 0.90940 0.08840 0.10800
C 	C 	0.22630 0.03370 0.06660 0.14400
H 	H 	0.24240 0.06940 0.08830 0.07000
C 	C 	0.15860 0.46930 0.92130 0.08600
H 	H 	0.16020 0.40440 0.91970 -0.00100
C 	C 	0.17850 0.51000 0.95730 -0.12100
H 	H 	0.19290 0.47440 0.97990 0.09200
C 	C 	0.17700 0.60430 0.95990 0.06400
C 	C 	0.15430 0.65350 0.92630 -0.10100
H 	H 	0.15220 0.71840 0.92730 0.09600
C 	C 	0.13450 0.60440 0.89110 0.06900
H 	H 	0.11860 0.63720 0.86820 0.02000
C 	C 	0.33850 0.61520 0.14650 0.07800
H 	H 	0.35470 0.64860 0.16900 -0.00300
C 	C 	0.30910 0.66040 0.11800 -0.11300
H 	H 	0.30620 0.72480 0.12030 0.09800
C 	C 	0.28360 0.61390 0.08580 0.05700
C 	C 	0.28990 0.51720 0.08450 -0.10700
H 	H 	0.27280 0.48150 0.06350 0.09000
C 	C 	0.21450 0.78590 0.03170 0.08700
C 	C 	0.20020 0.65350 0.99660 0.10300
C 	C 	0.25030 0.65820 0.05490 0.10900
N 	N 	0.94020 0.09620 0.69540 -0.26500
N 	N 	0.15590 0.89540 0.57970 -0.37500
N 	N 	0.09470 0.55100 0.79530 -0.25500
N 	N 	0.05190 0.91620 0.66050 -0.13900
N 	N 	0.09130 0.78440 0.68680 -0.13200
N 	N 	0.03840 0.83420 0.71700 -0.13500
N 	N 	0.20090 0.05370 0.54050 -0.41400
N 	N 	0.34630 0.60590 0.64630 -0.27100
N 	N 	0.14090 0.61540 0.39110 -0.29300
N 	N 	0.24760 0.37970 0.56310 -0.12300
N 	N 	0.23150 0.51860 0.52510 -0.14200
N 	N 	0.19340 0.38410 0.50250 -0.12700
N 	N 	0.10250 0.58140 0.29510 -0.28400
N 	N 	0.93870 0.04250 0.19350 -0.27100
N 	N 	0.15630 0.22980 0.07890 -0.10500
N 	N 	0.04100 0.30040 0.21680 -0.14000
N 	N 	0.05360 0.21460 0.16160 -0.12900
N 	N 	0.09330 0.34580 0.18590 -0.13600
N 	N 	0.19880 0.07400 0.03600 -0.16800
N 	N 	0.13710 0.51320 0.88850 -0.26000
N 	N 	0.34520 0.52460 0.14380 -0.25900
N 	N 	0.19080 0.74240 0.99900 -0.13000
N 	N 	0.23030 0.60840 0.02390 -0.13800
N 	N 	0.24450 0.74770 0.06090 -0.13200
Zn	Zn	0.88917 0.17375 0.69126 1.18500
Br	Br	0.86974 0.14450 0.75224 -0.29200
Br	Br	0.89967 0.31500 0.66260 -0.19800
Zn	Zn	0.19360 0.91160 0.54160 -3.71900
Br	Br	0.25600 0.84400 0.57390 -0.74800
Br	Br	0.15740 0.87280 0.47510 -0.60900
Zn	Zn	0.38873 0.45903 0.18888 1.19000
Br	Br	0.40267 0.32059 0.15920 -0.47400
Br	Br	0.36721 0.47483 0.24886 -0.46900
Zn	Zn	0.12169 0.68587 0.33664 0.74600
Br	Br	0.18230 0.74645 0.32522 0.14300
Br	Br	0.06513 0.77516 0.33795 -0.58500
Zn	Zn	0.18714 0.21660 0.03260 -3.39900
Br	Br	0.24982 0.29060 0.05910 -0.03000
Br	Br	0.14610 0.25040 0.96745 -0.13900
Zn	Zn	0.10550 0.44740 0.83600 0.57500
Br	Br	0.15280 0.34990 0.81410 -0.08400
Br	Br	0.04630 0.38910 0.84990 -0.30300
Br	Br	0.86610 0.17600 0.74850 -0.13400
Br	Br	0.89920 0.30650 0.65380 -0.23900
Zn	Zn	0.20310 0.91300 0.55080 3.74500
Br	Br	0.26630 0.86470 0.59320 0.27600
Br	Br	0.17720 0.86020 0.48490 -0.52700
Zn	Zn	0.18030 0.91570 0.52820 2.52600
Br	Br	0.24040 0.83030 0.54980 -0.41200
Br	Br	0.13690 0.88610 0.46380 0.29500
Zn	Zn	0.10530 0.68700 0.33830 0.75100
Br	Br	0.15530 0.77360 0.31530 -0.70300
Br	Br	0.04170 0.73000 0.35120 -0.03300
Zn	Zn	0.20420 0.21140 0.05610 -6.21300
Br	Br	0.26160 0.26320 0.10530 0.18900
Br	Br	0.18130 0.27300 0.99000 0.08400
Zn	Zn	0.19780 0.21330 0.04580 9.35500
Br	Br	0.26050 0.27400 0.08210 -0.21200
Br	Br	0.16790 0.26050 0.97950 -0.06700
Zn	Zn	0.11170 0.43700 0.83780 0.57400
Br	Br	0.16770 0.37020 0.82280 -0.35600
Br	Br	0.04750 0.38200 0.83790 -0.12000
C 	C 	0.53730 0.60410 0.33110 0.07400
H 	H 	0.54290 0.65470 0.34940 -0.00900
C 	C 	0.50630 0.54510 0.33450 -0.11600
H 	H 	0.49060 0.55540 0.35360 0.08100
C 	C 	0.49970 0.47020 0.30840 0.05900
C 	C 	0.52120 0.46290 0.27800 -0.09300
H 	H 	0.51530 0.41430 0.25870 0.08400
C 	C 	0.55080 0.52590 0.27640 0.05300
H 	H 	0.56510 0.52100 0.25580 0.01300
C 	C 	0.33070 0.34770 0.38490 0.05200
H 	H 	0.30370 0.32400 0.37790 -0.04100
C 	C 	0.35460 0.33360 0.36010 -0.11600
H 	H 	0.34510 0.29540 0.33680 0.08700
C 	C 	0.39170 0.37140 0.36670 0.06100
C 	C 	0.40630 0.41700 0.40300 -0.10900
H 	H 	0.43310 0.44130 0.40910 0.07500
C 	C 	0.38380 0.42800 0.43080 0.03700
H 	H 	0.39490 0.45770 0.45630 -0.05300
C 	C 	0.44370 0.09190 0.21310 0.05200
H 	H 	0.46360 0.06900 0.20040 0.01600
C 	C 	0.45320 0.16440 0.23950 -0.09200
H 	H 	0.47940 0.19220 0.24490 0.08200
C 	C 	0.42370 0.19730 0.25850 0.04900
C 	C 	0.38460 0.15660 0.24870 -0.11200
H 	H 	0.36360 0.17820 0.26020 0.08700
C 	C 	0.37840 0.08320 0.22130 0.08800
H 	H 	0.35230 0.05500 0.21460 0.00300
C 	C 	0.46730 0.40440 0.31010 0.11400
C 	C 	0.41830 0.35700 0.33810 0.11600
C 	C 	0.43220 0.27580 0.28630 0.10400
C 	C 	0.27480 0.59980 0.42890 0.09400
H 	H 	0.26130 0.56570 0.40540 -0.08900
C 	C 	0.26770 0.69090 0.42840 -0.14900
H 	H 	0.24900 0.72000 0.40610 0.08800
C 	C 	0.28950 0.74030 0.46300 0.08400
C 	C 	0.31570 0.69450 0.49480 -0.14600
H 	H 	0.33160 0.72640 0.51800 0.09800
C 	C 	0.31780 0.60090 0.49180 0.09400
H 	H 	0.33400 0.56830 0.51460 -0.06900
C 	C 	0.17970 0.15070 0.38340 0.13500
H 	H 	0.17690 0.21540 0.38460 -0.00800
C 	C 	0.17960 0.97570 0.88660 -0.03800
H 	H 	0.17580 0.91140 0.88800 0.04100
C 	C 	0.21070 0.10970 0.41260 -0.22400
H 	H 	0.22920 0.14500 0.43280 0.14900
C 	C 	0.21380 0.01650 0.41140 0.20700
C 	C 	0.18770 0.96720 0.38140 -0.29300
H 	H 	0.18960 0.90240 0.38000 0.16200
C 	C 	0.15880 0.01500 0.35360 0.22600
H 	H 	0.14080 0.98100 0.33250 -0.05100
C 	C 	0.36090 0.02570 0.60560 0.21200
H 	H 	0.37500 0.99230 0.62920 -0.06600
C 	C 	0.34420 0.97750 0.57110 -0.28300
H 	H 	0.34840 0.91330 0.57000 0.15000
C 	C 	0.32050 0.02410 0.53710 0.16500
C 	C 	0.31720 0.11690 0.53970 -0.18000
H 	H 	0.30160 0.15070 0.51700 0.12500
C 	C 	0.33710 0.16260 0.57610 0.08900
H 	H 	0.33490 0.22740 0.57770 0.01200
C 	C 	0.28340 0.84270 0.46550 0.10400
C 	C 	0.24630 0.96970 0.44240 0.01800
C 	C 	0.29730 0.97250 0.50060 0.02600
C 	C 	0.43620 0.04590 0.71400 0.10600
H 	H 	0.45560 0.07080 0.70120 -0.02500
C 	C 	0.44750 0.97420 0.74150 -0.16500
H 	H 	0.47460 0.95150 0.74810 0.09200
C 	C 	0.41900 0.93630 0.75920 0.09400
C 	C 	0.38090 0.97300 0.75110 -0.18600
H 	H 	0.36180 0.95070 0.76490 0.10100
C 	C 	0.37030 0.04300 0.72260 0.13600
H 	H 	0.34290 0.06450 0.71540 -0.02400
C 	C 	0.53610 0.52340 0.82820 0.07700
H 	H 	0.53930 0.46840 0.84370 -0.00200
C 	C 	0.50430 0.58300 0.82880 -0.12000
H 	H 	0.48610 0.56780 0.84500 0.09000
C 	C 	0.49850 0.66220 0.80700 0.06100
C 	C 	0.52490 0.68140 0.78270 -0.11800
H 	H 	0.52210 0.73540 0.76650 0.07700
C 	C 	0.55540 0.61810 0.78330 0.06900
H 	H 	0.57320 0.62890 0.76610 -0.00300
C 	C 	0.33070 0.77960 0.89050 0.13200
H 	H 	0.30510 0.80920 0.88670 0.06300
C 	C 	0.35340 0.79300 0.86120 -0.13300
H 	H 	0.34200 0.82640 0.83680 0.09400
C 	C 	0.39130 0.75820 0.86800 0.07800
C 	C 	0.40300 0.69660 0.89930 -0.11900
H 	H 	0.42640 0.65910 0.90220 0.09200
C 	C 	0.37850 0.69150 0.92700 0.09200
H 	H 	0.38850 0.65770 0.95150 0.03500
C 	C 	0.42850 0.85560 0.78780 0.09300
C 	C 	0.46570 0.72980 0.81000 0.11200
C 	C 	0.41660 0.77440 0.83870 0.11600
C 	C 	0.32350 0.52610 0.99570 0.07300
H 	H 	0.34240 0.55620 0.01750 0.03900
C 	C 	0.31860 0.43080 0.99610 -0.11300
H 	H 	0.33480 0.39660 0.01830 0.08700
C 	C 	0.29150 0.38590 0.96590 0.06400
C 	C 	0.26900 0.43840 0.93380 -0.11600
H 	H 	0.25020 0.40940 0.91160 0.09300
C 	C 	0.27370 0.53370 0.93340 0.09100
H 	H 	0.25760 0.56940 0.91170 0.08400
C 	C 	0.34140 0.96930 0.07870 -0.02200
H 	H 	0.33980 0.90440 0.08030 0.03200
C 	C 	0.32150 0.01000 0.04270 0.01000
H 	H 	0.30710 0.97440 0.02010 0.03400
C 	C 	0.32300 0.10430 0.04010 0.01100
C 	C 	0.34570 0.15350 0.07370 -0.06300
H 	H 	0.34780 0.21840 0.07270 0.08600
C 	C 	0.36550 0.10440 0.10890 0.05000
H 	H 	0.38140 0.13720 0.13180 0.02800
C 	C 	0.16150 0.11520 0.85350 0.05800
H 	H 	0.14530 0.14860 0.83100 0.00600
C 	C 	0.19090 0.16040 0.88200 -0.07700
H 	H 	0.19380 0.22480 0.87970 0.08900
C 	C 	0.21640 0.11390 0.91420 0.01100
C 	C 	0.21010 0.01720 0.91550 0.01400
H 	H 	0.22720 0.98150 0.93650 0.03500
C 	C 	0.28550 0.28590 0.96830 0.10200
C 	C 	0.29980 0.15350 0.00340 0.12400
C 	C 	0.24970 0.15820 0.94510 0.12800
N 	N 	0.55980 0.59620 0.30460 -0.26400
N 	N 	0.34410 0.39540 0.42030 -0.37300
N 	N 	0.40530 0.05100 0.20470 -0.24900
N 	N 	0.44810 0.41620 0.33950 -0.13500
N 	N 	0.40870 0.28440 0.31320 -0.13100
N 	N 	0.46160 0.33420 0.28300 -0.13400
N 	N 	0.29910 0.55370 0.45950 -0.42200
N 	N 	0.15370 0.10590 0.35370 -0.30100
N 	N 	0.35910 0.11540 0.60890 -0.32200
N 	N 	0.25240 0.87970 0.43690 -0.11200
N 	N 	0.26850 0.01860 0.47490 -0.10400
N 	N 	0.30660 0.88410 0.49750 -0.11700
N 	N 	0.39750 0.08140 0.70490 -0.29800
N 	N 	0.56130 0.54250 0.80650 -0.26700
N 	N 	0.34370 0.72980 0.92110 -0.10500
N 	N 	0.45900 0.80040 0.78320 -0.13900
N 	N 	0.44640 0.71460 0.83840 -0.13000
N 	N 	0.40670 0.84580 0.81410 -0.13500
N 	N 	0.30120 0.57400 0.96400 -0.15300
N 	N 	0.36290 0.01320 0.11150 -0.22300
N 	N 	0.15480 0.02460 0.85620 -0.22500
N 	N 	0.30920 0.24240 0.00100 -0.13400
N 	N 	0.26970 0.10840 0.97610 -0.13900
N 	N 	0.25550 0.24770 0.93910 -0.13600
Zn	Zn	0.61083 0.67375 0.30874 1.18400
Br	Br	0.63026 0.64450 0.24776 -0.29200
Br	Br	0.60033 0.81500 0.33740 -0.20200
Zn	Zn	0.30640 0.41160 0.45840 -3.73000
Br	Br	0.24400 0.34400 0.42610 -0.73900
Br	Br	0.34260 0.37280 0.52490 -0.60200
Zn	Zn	0.11127 0.95903 0.81112 1.18500
Br	Br	0.09733 0.82059 0.84080 -0.48200
Br	Br	0.13279 0.97483 0.75114 -0.48300
Zn	Zn	0.37831 0.18587 0.66336 0.74600
Br	Br	0.31770 0.24645 0.67478 0.15500
Br	Br	0.43487 0.27516 0.66205 -0.58200
Zn	Zn	0.31286 0.71660 0.96740 -3.39800
Br	Br	0.25018 0.79060 0.94090 -0.02700
Br	Br	0.35390 0.75040 0.03255 -0.14500
Zn	Zn	0.39450 0.94740 0.16400 0.57600
Br	Br	0.34720 0.84990 0.18590 -0.09900
Br	Br	0.45370 0.88910 0.15010 -0.30700
Br	Br	0.63390 0.67600 0.25150 -0.14100
Br	Br	0.60080 0.80650 0.34620 -0.24200
Zn	Zn	0.29690 0.41300 0.44920 3.75700
Br	Br	0.23370 0.36470 0.40680 0.28000
Br	Br	0.32280 0.36020 0.51510 -0.53100
Zn	Zn	0.31970 0.41570 0.47180 2.53400
Br	Br	0.25960 0.33030 0.45020 -0.41800
Br	Br	0.36310 0.38610 0.53620 0.30200
Zn	Zn	0.39470 0.18700 0.66170 0.75200
Br	Br	0.34470 0.27360 0.68470 -0.70300
Br	Br	0.45830 0.23000 0.64880 -0.02800
Zn	Zn	0.29580 0.71140 0.94390 -6.21100
Br	Br	0.23840 0.76320 0.89470 0.18600
Br	Br	0.31870 0.77300 0.01000 0.08700
Zn	Zn	0.30220 0.71330 0.95420 9.35200
Br	Br	0.23950 0.77400 0.91790 -0.21500
Br	Br	0.33210 0.76050 0.02050 -0.07000
Zn	Zn	0.38830 0.93700 0.16220 0.56600
Br	Br	0.33230 0.87020 0.17720 -0.35600
Br	Br	0.45250 0.88200 0.16210 -0.12600
C 	C 	0.03730 0.10410 0.33110 0.06800
H 	H 	0.04290 0.15470 0.34940 -0.00400
C 	C 	0.00630 0.04510 0.33450 -0.08300
H 	H 	0.99060 0.05540 0.35360 0.07900
C 	C 	0.99970 0.97020 0.30840 0.03900
C 	C 	0.02120 0.96290 0.27800 -0.12400
H 	H 	0.01530 0.91430 0.25870 0.08900
C 	C 	0.05080 0.02590 0.27640 0.08800
H 	H 	0.06510 0.02100 0.25580 0.00800
C 	C 	0.83070 0.84770 0.38490 0.04900
H 	H 	0.80370 0.82400 0.37790 -0.04300
C 	C 	0.85460 0.83360 0.36010 -0.11600
H 	H 	0.84510 0.79540 0.33680 0.08500
C 	C 	0.89170 0.87140 0.36670 0.05700
C 	C 	0.90630 0.91700 0.40300 -0.10900
H 	H 	0.93310 0.94130 0.40910 0.07100
C 	C 	0.88380 0.92800 0.43080 0.03300
H 	H 	0.89490 0.95770 0.45630 -0.05700
C 	C 	0.94370 0.59190 0.21310 0.05100
H 	H 	0.96360 0.56900 0.20040 0.00900
C 	C 	0.95320 0.66440 0.23950 -0.09500
H 	H 	0.97940 0.69220 0.24490 0.08100
C 	C 	0.92370 0.69730 0.25850 0.04800
C 	C 	0.88460 0.65660 0.24870 -0.11400
H 	H 	0.86360 0.67820 0.26020 0.08500
C 	C 	0.87840 0.58320 0.22130 0.08700
H 	H 	0.85230 0.55500 0.21460 -0.00200
C 	C 	0.96730 0.90440 0.31010 0.11600
C 	C 	0.91830 0.85700 0.33810 0.11600
C 	C 	0.93220 0.77580 0.28630 0.10300
C 	C 	0.77480 0.09980 0.42890 0.09500
H 	H 	0.76130 0.06570 0.40540 -0.08300
C 	C 	0.76770 0.19090 0.42840 -0.14600
H 	H 	0.74900 0.22000 0.40610 0.09000
C 	C 	0.78950 0.24030 0.46300 0.08400
C 	C 	0.81570 0.19450 0.49480 -0.14400
H 	H 	0.83160 0.22640 0.51800 0.10000
C 	C 	0.81780 0.10090 0.49180 0.09500
H 	H 	0.83400 0.06830 0.51460 -0.06200
C 	C 	0.67970 0.65070 0.38340 0.09100
H 	H 	0.67690 0.71540 0.38460 0.00500
C 	C 	0.67960 0.47570 0.88660 0.06400
H 	H 	0.67580 0.41140 0.88800 0.01100
C 	C 	0.71070 0.60970 0.41260 -0.14900
H 	H 	0.72920 0.64500 0.43280 0.12300
C 	C 	0.71380 0.51650 0.41140 0.08500
C 	C 	0.68770 0.46720 0.38140 -0.13500
H 	H 	0.68960 0.40240 0.38000 0.11200
C 	C 	0.65880 0.51500 0.35360 0.09100
H 	H 	0.64080 0.48100 0.33250 0.01000
C 	C 	0.86090 0.52570 0.60560 0.07800
H 	H 	0.87500 0.49230 0.62920 -0.00500
C 	C 	0.84420 0.47750 0.57110 -0.13300
H 	H 	0.84840 0.41330 0.57000 0.10300
C 	C 	0.82050 0.52410 0.53710 0.05200
C 	C 	0.81720 0.61690 0.53970 -0.11300
H 	H 	0.80160 0.65070 0.51700 0.10200
C 	C 	0.83710 0.66260 0.57610 0.05000
H 	H 	0.83490 0.72740 0.57770 0.02400
C 	C 	0.78340 0.34270 0.46550 0.10900
C 	C 	0.74630 0.46970 0.44240 0.08700
C 	C 	0.79730 0.47250 0.50060 0.09300
C 	C 	0.93620 0.54590 0.71400 0.05000
H 	H 	0.95560 0.57080 0.70120 -0.01200
C 	C 	0.94750 0.47420 0.74150 -0.10100
H 	H 	0.97460 0.45150 0.74810 0.07700
C 	C 	0.91900 0.43630 0.75920 0.05500
C 	C 	0.88090 0.47300 0.75110 -0.12200
H 	H 	0.86180 0.45070 0.76490 0.08500
C 	C 	0.87030 0.54300 0.72260 0.07900
H 	H 	0.84290 0.56450 0.71540 -0.01200
C 	C 	0.03610 0.02340 0.82820 0.13300
H 	H 	0.03930 0.96840 0.84370 -0.03700
C 	C 	0.00430 0.08300 0.82880 -0.14900
H 	H 	0.98610 0.06780 0.84500 0.10400
C 	C 	0.99850 0.16220 0.80700 0.07700
C 	C 	0.02490 0.18140 0.78270 -0.12800
H 	H 	0.02210 0.23540 0.76650 0.08200
C 	C 	0.05540 0.11810 0.78330 0.07800
H 	H 	0.07320 0.12890 0.76610 0.00000
C 	C 	0.83070 0.27960 0.89050 0.13400
H 	H 	0.80510 0.30920 0.88670 0.06400
C 	C 	0.85340 0.29300 0.86120 -0.13300
H 	H 	0.84200 0.32640 0.83680 0.09600
C 	C 	0.89130 0.25820 0.86800 0.08000
C 	C 	0.90300 0.19660 0.89930 -0.11800
H 	H 	0.92640 0.15910 0.90220 0.09400
C 	C 	0.87850 0.19150 0.92700 0.09400
H 	H 	0.88850 0.15770 0.95150 0.03600
C 	C 	0.92850 0.35560 0.78780 0.10700
C 	C 	0.96570 0.22980 0.81000 0.10800
C 	C 	0.91660 0.27440 0.83870 0.11700
C 	C 	0.82350 0.02610 0.99570 0.12600
H 	H 	0.84240 0.05620 0.01750 0.02600
C 	C 	0.81860 0.93080 0.99610 -0.17600
H 	H 	0.83480 0.89660 0.01830 0.10200
C 	C 	0.79150 0.88590 0.96590 0.10200
C 	C 	0.76900 0.93840 0.93380 -0.17900
H 	H 	0.75020 0.90940 0.91160 0.10800
C 	C 	0.77370 0.03370 0.93340 0.14400
H 	H 	0.75760 0.06940 0.91170 0.07000
C 	C 	0.84140 0.46930 0.07870 0.08600
H 	H 	0.83980 0.40440 0.08030 -0.00100
C 	C 	0.82150 0.51000 0.04270 -0.12100
H 	H 	0.80710 0.47440 0.02010 0.09200
C 	C 	0.82300 0.60430 0.04010 0.06400
C 	C 	0.84570 0.65350 0.07370 -0.10100
H 	H 	0.84780 0.71840 0.07270 0.09600
C 	C 	0.86550 0.60440 0.10890 0.06900
H 	H 	0.88140 0.63720 0.13180 0.02000
C 	C 	0.66150 0.61520 0.85350 0.07800
H 	H 	0.64530 0.64860 0.83100 -0.00300
C 	C 	0.69090 0.66040 0.88200 -0.11300
H 	H 	0.69380 0.72480 0.87970 0.09800
C 	C 	0.71640 0.61390 0.91420 0.05700
C 	C 	0.71010 0.51720 0.91550 -0.10700
H 	H 	0.72720 0.48150 0.93650 0.09000
C 	C 	0.78550 0.78590 0.96830 0.08700
C 	C 	0.79980 0.65350 0.00340 0.10300
C 	C 	0.74970 0.65820 0.94510 0.10900
N 	N 	0.05980 0.09620 0.30460 -0.26500
N 	N 	0.84410 0.89540 0.42030 -0.37500
N 	N 	0.90530 0.55100 0.20470 -0.25500
N 	N 	0.94810 0.91620 0.33950 -0.13900
N 	N 	0.90870 0.78440 0.31320 -0.13200
N 	N 	0.96160 0.83420 0.28300 -0.13500
N 	N 	0.79910 0.05370 0.45950 -0.41400
N 	N 	0.65370 0.60590 0.35370 -0.27100
N 	N 	0.85910 0.61540 0.60890 -0.29300
N 	N 	0.75240 0.37970 0.43690 -0.12300
N 	N 	0.76850 0.51860 0.47490 -0.14200
N 	N 	0.80660 0.38410 0.49750 -0.12700
N 	N 	0.89750 0.58140 0.70490 -0.28400
N 	N 	0.06130 0.04250 0.80650 -0.27100
N 	N 	0.84370 0.22980 0.92110 -0.10500
N 	N 	0.95900 0.30040 0.78320 -0.14000
N 	N 	0.94640 0.21460 0.83840 -0.12900
N 	N 	0.90670 0.34580 0.81410 -0.13600
N 	N 	0.80120 0.07400 0.96400 -0.16800
N 	N 	0.86290 0.51320 0.11150 -0.26000
N 	N 	0.65480 0.52460 0.85620 -0.25900
N 	N 	0.80920 0.74240 0.00100 -0.13000
N 	N 	0.76970 0.60840 0.97610 -0.13800
N 	N 	0.75550 0.74770 0.93910 -0.13200
Zn	Zn	0.11083 0.17375 0.30874 1.18500
Br	Br	0.13026 0.14450 0.24776 -0.29200
Br	Br	0.10033 0.31500 0.33740 -0.19800
Zn	Zn	0.80640 0.91160 0.45840 -3.71900
Br	Br	0.74400 0.84400 0.42610 -0.74800
Br	Br	0.84260 0.87280 0.52490 -0.60900
Zn	Zn	0.61127 0.45903 0.81112 1.19000
Br	Br	0.59733 0.32059 0.84080 -0.47400
Br	Br	0.63279 0.47483 0.75114 -0.46900
Zn	Zn	0.87831 0.68587 0.66336 0.74600
Br	Br	0.81770 0.74645 0.67478 0.14300
Br	Br	0.93487 0.77516 0.66205 -0.58500
Zn	Zn	0.81286 0.21660 0.96740 -3.39900
Br	Br	0.75018 0.29060 0.94090 -0.03000
Br	Br	0.85390 0.25040 0.03255 -0.13900
Zn	Zn	0.89450 0.44740 0.16400 0.57500
Br	Br	0.84720 0.34990 0.18590 -0.08400
Br	Br	0.95370 0.38910 0.15010 -0.30300
Br	Br	0.13390 0.17600 0.25150 -0.13400
Br	Br	0.10080 0.30650 0.34620 -0.23900
Zn	Zn	0.79690 0.91300 0.44920 3.74500
Br	Br	0.73370 0.86470 0.40680 0.27600
Br	Br	0.82280 0.86020 0.51510 -0.52700
Zn	Zn	0.81970 0.91570 0.47180 2.52600
Br	Br	0.75960 0.83030 0.45020 -0.41200
Br	Br	0.86310 0.88610 0.53620 0.29500
Zn	Zn	0.89470 0.68700 0.66170 0.75100
Br	Br	0.84470 0.77360 0.68470 -0.70300
Br	Br	0.95830 0.73000 0.64880 -0.03300
Zn	Zn	0.79580 0.21140 0.94390 -6.21300
Br	Br	0.73840 0.26320 0.89470 0.18900
Br	Br	0.81870 0.27300 0.01000 0.08400
Zn	Zn	0.80220 0.21330 0.95420 9.35500
Br	Br	0.73950 0.27400 0.91790 -0.21200
Br	Br	0.83210 0.26050 0.02050 -0.06700
Zn	Zn	0.88830 0.43700 0.16220 0.57400
Br	Br	0.83230 0.37020 0.17720 -0.35600
Br	Br	0.95250 0.38200 0.16210 -0.12000
