data_crystal

_cell_length_a 33.39100
_cell_length_b 14.39750
_cell_length_c 33.89700
_cell_angle_alpha 90.00000
_cell_angle_beta  105.27300
_cell_angle_gamma 90.00000

_symmetry_space_group_name_	'P 1'
_symmetry_space_group_name_H-M	'P 1'

loop_
_symmetry_equiv_pos_as_xyz
  x,y,z

loop_
_atom_site_label
_atom_site_type_symbol
_atom_site_fract_x
_atom_site_fract_y
_atom_site_fract_z
_atom_site_charge
C 	C 	0.86750 0.03570 0.11100 0.05400
H 	H 	0.88070 0.06930 0.13500 0.01000
C 	C 	0.84790 0.08410 0.07510 -0.10400
H 	H 	0.85010 0.14990 0.07420 0.09900
C 	C 	0.82570 0.03670 0.04130 0.05300
C 	C 	0.82550 0.93820 0.04330 -0.11500
H 	H 	0.81090 0.90210 0.02060 0.08600
C 	C 	0.84700 0.89700 0.07900 0.05900
H 	H 	0.84700 0.83110 0.08040 0.03900
C 	C 	0.77200 0.46630 0.93600 0.08200
H 	H 	0.75440 0.50100 0.91450 0.00200
C 	C 	0.76690 0.37260 0.93550 -0.12600
H 	H 	0.74720 0.34340 0.91350 0.09100
C 	C 	0.79080 0.32040 0.96740 0.06500
C 	C 	0.81900 0.36820 0.99740 -0.12200
H 	H 	0.83640 0.33530 0.01970 0.08700
C 	C 	0.82210 0.46380 0.99540 0.07500
H 	H 	0.84100 0.49530 0.01710 0.01100
C 	C 	0.68050 0.90280 0.88610 0.05300
H 	H 	0.67730 0.83740 0.88680 0.03400
C 	C 	0.71150 0.94540 0.91640 -0.10400
H 	H 	0.72850 0.90970 0.93790 0.09600
C 	C 	0.71740 0.04340 0.91460 0.05900
C 	C 	0.69060 0.09190 0.88240 -0.10000
H 	H 	0.69310 0.15730 0.88020 0.11500
C 	C 	0.66090 0.04440 0.85430 0.08800
H 	H 	0.64340 0.07890 0.83250 0.04400
C 	C 	0.80160 0.08670 0.00450 0.10000
C 	C 	0.78530 0.21910 0.97030 0.09800
C 	C 	0.75060 0.08830 0.94590 0.10100
C 	C 	0.82790 0.72100 0.88980 0.08700
H 	H 	0.80170 0.75090 0.88550 0.00400
C 	C 	0.84980 0.73430 0.86200 -0.14500
H 	H 	0.83890 0.77190 0.83860 0.09200
C 	C 	0.88790 0.69320 0.86780 0.07800
C 	C 	0.90000 0.63340 0.90080 -0.17200
H 	H 	0.92470 0.59770 0.90510 0.08700
C 	C 	0.87530 0.62800 0.92640 0.12500
H 	H 	0.88460 0.58970 0.94990 -0.03100
C 	C 	0.93500 0.98510 0.71440 0.04500
H 	H 	0.95500 0.01160 0.70220 -0.02900
C 	C 	0.94650 0.90790 0.74190 -0.12200
H 	H 	0.97350 0.88170 0.74770 0.08800
C 	C 	0.91710 0.87380 0.75930 0.04300
C 	C 	0.87840 0.91190 0.75080 -0.11800
H 	H 	0.85820 0.88830 0.76340 0.08000
C 	C 	0.86900 0.98420 0.72410 0.06400
H 	H 	0.84200 0.01060 0.71800 0.01300
C 	C 	0.03310 0.45250 0.82790 0.08800
H 	H 	0.03680 0.39730 0.84380 -0.00300
C 	C 	0.00020 0.51000 0.82920 -0.13100
H 	H 	0.98050 0.49330 0.84370 0.08800
C 	C 	0.99780 0.59380 0.80810 0.09500
C 	C 	0.02480 0.61350 0.78440 -0.09400
H 	H 	0.02280 0.66990 0.76940 0.14200
C 	C 	0.05530 0.54630 0.78350 0.09200
H 	H 	0.07310 0.55650 0.76620 0.02200
C 	C 	0.91340 0.70800 0.83880 0.05500
C 	C 	0.92680 0.78960 0.78780 0.03100
C 	C 	0.96420 0.66070 0.81040 0.07500
C 	C 	0.84100 0.09930 0.57530 0.05300
H 	H 	0.84130 0.16520 0.57600 0.03600
C 	C 	0.82110 0.05590 0.54000 -0.09200
H 	H 	0.80750 0.09140 0.51670 0.10400
C 	C 	0.82060 0.95880 0.53810 0.03900
C 	C 	0.84100 0.90850 0.57350 -0.09400
H 	H 	0.84120 0.84250 0.57360 0.09900
C 	C 	0.86060 0.95820 0.60790 0.04700
H 	H 	0.87480 0.92460 0.63160 0.01300
C 	C 	0.65810 0.95420 0.34980 0.07900
H 	H 	0.63980 0.92120 0.32820 0.04000
C 	C 	0.68800 0.90420 0.37970 -0.10500
H 	H 	0.68990 0.83850 0.37860 0.12900
C 	C 	0.71420 0.95480 0.41050 0.06800
C 	C 	0.71040 0.04890 0.41170 -0.12100
H 	H 	0.72830 0.08390 0.43300 0.11700
C 	C 	0.68010 0.09310 0.38160 0.08100
H 	H 	0.67730 0.15860 0.38250 0.01900
C 	C 	0.81620 0.52680 0.49240 0.04800
H 	H 	0.83260 0.49250 0.51470 -0.00600
C 	C 	0.81310 0.62540 0.49520 -0.10300
H 	H 	0.82830 0.65780 0.51880 0.09000
C 	C 	0.78810 0.67160 0.46330 0.07000
C 	C 	0.76580 0.62290 0.42790 -0.12800
H 	H 	0.74750 0.65450 0.40580 0.10500
C 	C 	0.77160 0.52830 0.42680 0.09400
H 	H 	0.75780 0.49480 0.40290 -0.01300
C 	C 	0.79710 0.90790 0.50150 0.11400
C 	C 	0.74640 0.90340 0.44190 0.11400
C 	C 	0.78120 0.77440 0.46630 0.12500
C 	C 	0.53530 0.05340 0.32720 0.09200
H 	H 	0.53880 0.10870 0.34300 0.00200
C 	C 	0.50530 0.99040 0.33010 -0.12800
H 	H 	0.48930 0.00100 0.34900 0.09800
C 	C 	0.49810 0.91160 0.30580 0.07300
C 	C 	0.52210 0.89770 0.27900 -0.08700
H 	H 	0.51830 0.84410 0.26210 0.09400
C 	C 	0.55230 0.96460 0.27720 0.06200
H 	H 	0.56800 0.95770 0.25770 0.02100
C 	C 	0.37810 0.86610 0.42810 0.07500
H 	H 	0.38820 0.89900 0.45310 -0.03300
C 	C 	0.40270 0.86160 0.39880 -0.11400
H 	H 	0.42660 0.89970 0.40210 0.08600
C 	C 	0.39120 0.80230 0.36650 0.06800
C 	C 	0.35480 0.75460 0.36130 -0.11500
H 	H 	0.34640 0.71160 0.33940 0.09000
C 	C 	0.33040 0.76900 0.38760 0.07300
H 	H 	0.30440 0.73840 0.38260 0.00100
C 	C 	0.44780 0.52370 0.21560 0.08500
H 	H 	0.46900 0.50190 0.20390 -0.03500
C 	C 	0.45610 0.59800 0.24120 -0.11800
H 	H 	0.48230 0.62810 0.24690 0.08700
C 	C 	0.42530 0.62930 0.25880 0.06400
C 	C 	0.38720 0.58170 0.24950 -0.12000
H 	H 	0.36600 0.60010 0.26170 0.09000
C 	C 	0.38100 0.50900 0.22290 0.09200
H 	H 	0.35480 0.47890 0.21620 -0.00300
C 	C 	0.46640 0.84170 0.30900 0.13400
C 	C 	0.41740 0.79120 0.33750 0.12800
C 	C 	0.43300 0.70800 0.28700 0.11700
N 	N 	0.86780 0.94350 0.11170 -0.28700
N 	N 	0.79970 0.51310 0.96440 -0.25200
N 	N 	0.65460 0.95260 0.85520 -0.24800
N 	N 	0.80950 0.17530 0.00190 -0.13400
N 	N 	0.75430 0.18070 0.94030 -0.13000
N 	N 	0.77130 0.03880 0.97760 -0.14000
N 	N 	0.84090 0.66900 0.92220 -0.27600
N 	N 	0.89740 0.01940 0.70580 -0.29900
N 	N 	0.06010 0.46900 0.80590 -0.23600
N 	N 	0.90400 0.78110 0.81320 -0.15300
N 	N 	0.95800 0.73350 0.78370 -0.14400
N 	N 	0.94510 0.64900 0.83930 -0.14700
N 	N 	0.86070 0.05190 0.61010 -0.31400
N 	N 	0.65510 0.04530 0.35140 -0.24800
N 	N 	0.79570 0.48270 0.45800 -0.28300
N 	N 	0.76880 0.95400 0.47440 -0.13900
N 	N 	0.75250 0.81470 0.43730 -0.12600
N 	N 	0.80580 0.81650 0.49910 -0.12700
N 	N 	0.55940 0.03800 0.30260 -0.25200
N 	N 	0.34240 0.82510 0.42030 -0.30000
N 	N 	0.41010 0.47870 0.20590 -0.25100
N 	N 	0.44550 0.85520 0.33700 -0.12900
N 	N 	0.40900 0.71500 0.31320 -0.12800
N 	N 	0.46110 0.77040 0.28310 -0.13200
Zn	Zn	0.89710 0.87220 0.16446 0.82400
Cl	Cl	0.95800 0.82560 0.15650 -5.32500
Cl	Cl	0.85090 0.78130 0.18170 -0.05100
Zn	Zn	0.80635 0.65440 0.96360 0.60400
Cl	Cl	0.84220 0.69060 0.02590 -0.42300
Cl	Cl	0.74493 0.71680 0.93440 -0.45500
Zn	Zn	0.61050 0.88530 0.81074 0.43500
Cl	Cl	0.59830 0.75150 0.83780 -0.31300
Cl	Cl	0.63030 0.90420 0.75340 -0.55900
Zn	Zn	0.87825 0.12526 0.66383 1.03900
Cl	Cl	0.93290 0.21140 0.66541 -0.74500
Cl	Cl	0.81759 0.17930 0.67169 -0.24800
Zn	Zn	0.61174 0.11583 0.30558 1.21100
Cl	Cl	0.62944 0.08400 0.24841 -0.51100
Cl	Cl	0.60357 0.25160 0.33363 -0.54100
Zn	Zn	0.30041 0.84050 0.45439 0.81400
Cl	Cl	0.24050 0.78310 0.41770 0.02600
Cl	Cl	0.32910 0.79810 0.51760 -0.95300
Zn	Zn	0.91360 0.87030 0.15560 1.15000
Cl	Cl	0.97700 0.83800 0.15000 4.52000
Cl	Cl	0.87200 0.76300 0.17100 -0.48600
Zn	Zn	0.80010 0.65800 0.95800 0.56700
Cl	Cl	0.82600 0.70100 0.02200 -0.08600
Cl	Cl	0.74600 0.70300 0.90700 -0.13400
Zn	Zn	0.61700 0.87600 0.80690 0.78400
Cl	Cl	0.60900 0.75300 0.83800 -0.20300
Cl	Cl	0.63500 0.87500 0.76200 -0.00100
Zn	Zn	0.90820 0.12130 0.65880 1.04300
Cl	Cl	0.96720 0.15100 0.64280 -0.28900
Cl	Cl	0.86340 0.22000 0.67780 -0.69000
Zn	Zn	0.31620 0.83770 0.47060 0.84400
Cl	Cl	0.35600 0.81310 0.53220 0.25300
Cl	Cl	0.25720 0.76660 0.44510 -0.70800
C 	C 	0.36750 0.53570 0.11100 0.04300
H 	H 	0.38070 0.56930 0.13500 0.01100
C 	C 	0.34790 0.58410 0.07510 -0.09800
H 	H 	0.35010 0.64990 0.07420 0.09600
C 	C 	0.32570 0.53670 0.04130 0.04100
C 	C 	0.32550 0.43820 0.04330 -0.10500
H 	H 	0.31090 0.40210 0.02060 0.08200
C 	C 	0.34700 0.39700 0.07900 0.05400
H 	H 	0.34700 0.33110 0.08040 0.04100
C 	C 	0.27200 0.96630 0.93600 0.06200
H 	H 	0.25440 0.00100 0.91450 0.01200
C 	C 	0.26690 0.87260 0.93550 -0.11500
H 	H 	0.24720 0.84340 0.91350 0.08600
C 	C 	0.29080 0.82040 0.96740 0.05800
C 	C 	0.31900 0.86820 0.99740 -0.11500
H 	H 	0.33640 0.83530 0.01970 0.08400
C 	C 	0.32210 0.96380 0.99540 0.06500
H 	H 	0.34100 0.99530 0.01710 0.01200
C 	C 	0.18050 0.40280 0.88610 0.04900
H 	H 	0.17730 0.33740 0.88680 0.03500
C 	C 	0.21150 0.44540 0.91640 -0.09300
H 	H 	0.22850 0.40970 0.93790 0.09400
C 	C 	0.21740 0.54340 0.91460 0.04900
C 	C 	0.19060 0.59190 0.88240 -0.09300
H 	H 	0.19310 0.65730 0.88020 0.11200
C 	C 	0.16090 0.54440 0.85430 0.07800
H 	H 	0.14340 0.57890 0.83250 0.04600
C 	C 	0.30160 0.58670 0.00450 0.10200
C 	C 	0.28530 0.71910 0.97030 0.10000
C 	C 	0.25060 0.58830 0.94590 0.10200
C 	C 	0.32790 0.22100 0.88980 0.08800
H 	H 	0.30170 0.25090 0.88550 0.00400
C 	C 	0.34980 0.23430 0.86200 -0.14500
H 	H 	0.33890 0.27190 0.83860 0.09300
C 	C 	0.38790 0.19320 0.86780 0.07800
C 	C 	0.40000 0.13340 0.90080 -0.17200
H 	H 	0.42470 0.09770 0.90510 0.08700
C 	C 	0.37530 0.12800 0.92640 0.12500
H 	H 	0.38460 0.08970 0.94990 -0.03000
C 	C 	0.43500 0.48510 0.71440 0.06400
H 	H 	0.45500 0.51160 0.70220 -0.03800
C 	C 	0.44650 0.40790 0.74190 -0.13400
H 	H 	0.47350 0.38170 0.74770 0.09300
C 	C 	0.41710 0.37380 0.75930 0.05200
C 	C 	0.37840 0.41190 0.75080 -0.13200
H 	H 	0.35820 0.38830 0.76340 0.08500
C 	C 	0.36900 0.48420 0.72410 0.08400
H 	H 	0.34200 0.51060 0.71800 0.00300
C 	C 	0.53310 0.95250 0.82790 0.07300
H 	H 	0.53680 0.89730 0.84380 0.00100
C 	C 	0.50020 0.01000 0.82920 -0.10900
H 	H 	0.48050 0.99330 0.84370 0.07700
C 	C 	0.49780 0.09380 0.80810 0.08700
C 	C 	0.52480 0.11350 0.78440 -0.09100
H 	H 	0.52280 0.16990 0.76940 0.14100
C 	C 	0.55530 0.04630 0.78350 0.09500
H 	H 	0.57310 0.05650 0.76620 0.02200
C 	C 	0.41340 0.20800 0.83880 0.05600
C 	C 	0.42680 0.28960 0.78780 0.02900
C 	C 	0.46420 0.16070 0.81040 0.07800
C 	C 	0.34100 0.59930 0.57530 0.05700
H 	H 	0.34130 0.66520 0.57600 0.03400
C 	C 	0.32110 0.55590 0.54000 -0.10200
H 	H 	0.30750 0.59140 0.51670 0.10700
C 	C 	0.32060 0.45880 0.53810 0.04900
C 	C 	0.34100 0.40850 0.57350 -0.10000
H 	H 	0.34120 0.34250 0.57360 0.10200
C 	C 	0.36060 0.45820 0.60790 0.05600
H 	H 	0.37480 0.42460 0.63160 0.01100
C 	C 	0.15810 0.45420 0.34980 0.08800
H 	H 	0.13980 0.42120 0.32820 0.03800
C 	C 	0.18800 0.40420 0.37970 -0.11200
H 	H 	0.18990 0.33850 0.37860 0.13200
C 	C 	0.21420 0.45480 0.41050 0.07800
C 	C 	0.21040 0.54890 0.41170 -0.13200
H 	H 	0.22830 0.58390 0.43300 0.12000
C 	C 	0.18010 0.59310 0.38160 0.08500
H 	H 	0.17730 0.65860 0.38250 0.01700
C 	C 	0.31620 0.02680 0.49240 0.06600
H 	H 	0.33260 0.99250 0.51470 -0.01500
C 	C 	0.31310 0.12540 0.49520 -0.11400
H 	H 	0.32830 0.15780 0.51880 0.09400
C 	C 	0.28810 0.17160 0.46330 0.07800
C 	C 	0.26580 0.12290 0.42790 -0.13900
H 	H 	0.24750 0.15450 0.40580 0.11000
C 	C 	0.27160 0.02830 0.42680 0.11300
H 	H 	0.25780 0.99480 0.40290 -0.02300
C 	C 	0.29710 0.40790 0.50150 0.11200
C 	C 	0.24640 0.40340 0.44190 0.11200
C 	C 	0.28120 0.27440 0.46630 0.12300
C 	C 	0.03530 0.55340 0.32720 0.07600
H 	H 	0.03880 0.60870 0.34300 0.00700
C 	C 	0.00530 0.49040 0.33010 -0.10600
H 	H 	0.98930 0.50100 0.34900 0.08700
C 	C 	0.99810 0.41160 0.30580 0.06500
C 	C 	0.02210 0.39770 0.27900 -0.08300
H 	H 	0.01830 0.34410 0.26210 0.09300
C 	C 	0.05230 0.46460 0.27720 0.06400
H 	H 	0.06800 0.45770 0.25770 0.02200
C 	C 	0.87810 0.36610 0.42810 0.07600
H 	H 	0.88820 0.39900 0.45310 -0.03200
C 	C 	0.90270 0.36160 0.39880 -0.11400
H 	H 	0.92660 0.39970 0.40210 0.08700
C 	C 	0.89120 0.30230 0.36650 0.06900
C 	C 	0.85480 0.25460 0.36130 -0.11500
H 	H 	0.84640 0.21160 0.33940 0.09100
C 	C 	0.83040 0.26900 0.38760 0.07400
H 	H 	0.80440 0.23840 0.38260 0.00200
C 	C 	0.94780 0.02370 0.21560 0.09400
H 	H 	0.96900 0.00190 0.20390 -0.03500
C 	C 	0.95610 0.09800 0.24120 -0.12400
H 	H 	0.98230 0.12810 0.24690 0.09000
C 	C 	0.92530 0.12930 0.25880 0.07000
C 	C 	0.88720 0.08170 0.24950 -0.13100
H 	H 	0.86600 0.10010 0.26170 0.09500
C 	C 	0.88100 0.00900 0.22290 0.11100
H 	H 	0.85480 0.97890 0.21620 -0.01300
C 	C 	0.96640 0.34170 0.30900 0.13700
C 	C 	0.91740 0.29120 0.33750 0.12800
C 	C 	0.93300 0.20800 0.28700 0.11500
N 	N 	0.36780 0.44350 0.11170 -0.28200
N 	N 	0.29970 0.01310 0.96440 -0.24300
N 	N 	0.15460 0.45260 0.85520 -0.24300
N 	N 	0.30950 0.67530 0.00190 -0.13500
N 	N 	0.25430 0.68070 0.94030 -0.13000
N 	N 	0.27130 0.53880 0.97760 -0.14300
N 	N 	0.34090 0.16900 0.92220 -0.27600
N 	N 	0.39740 0.51940 0.70580 -0.31000
N 	N 	0.56010 0.96900 0.80590 -0.23600
N 	N 	0.40400 0.28110 0.81320 -0.15200
N 	N 	0.45800 0.23350 0.78370 -0.14400
N 	N 	0.44510 0.14900 0.83930 -0.14700
N 	N 	0.36070 0.55190 0.61010 -0.31800
N 	N 	0.15510 0.54530 0.35140 -0.25200
N 	N 	0.29570 0.98270 0.45800 -0.29300
N 	N 	0.26880 0.45400 0.47440 -0.13700
N 	N 	0.25250 0.31470 0.43730 -0.12500
N 	N 	0.30580 0.31650 0.49910 -0.12600
N 	N 	0.05940 0.53800 0.30260 -0.25200
N 	N 	0.84240 0.32510 0.42030 -0.30000
N 	N 	0.91010 0.97870 0.20590 -0.26000
N 	N 	0.94550 0.35520 0.33700 -0.12900
N 	N 	0.90900 0.21500 0.31320 -0.12700
N 	N 	0.96110 0.27040 0.28310 -0.13200
Zn	Zn	0.39710 0.37220 0.16446 0.82400
Cl	Cl	0.45800 0.32560 0.15650 -5.32800
Cl	Cl	0.35090 0.28130 0.18170 -0.04900
Zn	Zn	0.30635 0.15440 0.96360 0.60400
Cl	Cl	0.34220 0.19060 0.02590 -0.42400
Cl	Cl	0.24493 0.21680 0.93440 -0.45500
Zn	Zn	0.11050 0.38530 0.81074 0.43700
Cl	Cl	0.09830 0.25150 0.83780 -0.31300
Cl	Cl	0.13030 0.40420 0.75340 -0.56000
Zn	Zn	0.37825 0.62526 0.66383 1.03900
Cl	Cl	0.43290 0.71140 0.66541 -0.74600
Cl	Cl	0.31759 0.67930 0.67169 -0.24900
Zn	Zn	0.11174 0.61583 0.30558 1.21100
Cl	Cl	0.12944 0.58400 0.24841 -0.51300
Cl	Cl	0.10357 0.75160 0.33363 -0.54200
Zn	Zn	0.80041 0.34050 0.45439 0.81400
Cl	Cl	0.74050 0.28310 0.41770 0.02600
Cl	Cl	0.82910 0.29810 0.51760 -0.95300
Zn	Zn	0.41360 0.37030 0.15560 1.15000
Cl	Cl	0.47700 0.33800 0.15000 4.52400
Cl	Cl	0.37200 0.26300 0.17100 -0.48600
Zn	Zn	0.30010 0.15800 0.95800 0.56800
Cl	Cl	0.32600 0.20100 0.02200 -0.08400
Cl	Cl	0.24600 0.20300 0.90700 -0.13400
Zn	Zn	0.11700 0.37600 0.80690 0.78200
Cl	Cl	0.10900 0.25300 0.83800 -0.20200
Cl	Cl	0.13500 0.37500 0.76200 0.00100
Zn	Zn	0.40820 0.62130 0.65880 1.04200
Cl	Cl	0.46720 0.65100 0.64280 -0.29000
Cl	Cl	0.36340 0.72000 0.67780 -0.69100
Zn	Zn	0.81620 0.33770 0.47060 0.84400
Cl	Cl	0.85600 0.31310 0.53220 0.25400
Cl	Cl	0.75720 0.26660 0.44510 -0.70700
C 	C 	0.13250 0.03570 0.88900 0.05300
H 	H 	0.11930 0.06930 0.86500 0.00900
C 	C 	0.15210 0.08410 0.92490 -0.10500
H 	H 	0.14990 0.14990 0.92580 0.09800
C 	C 	0.17430 0.03670 0.95870 0.05200
C 	C 	0.17450 0.93820 0.95670 -0.11600
H 	H 	0.18910 0.90210 0.97940 0.08500
C 	C 	0.15300 0.89700 0.92100 0.05800
H 	H 	0.15300 0.83110 0.91960 0.03900
C 	C 	0.22800 0.46630 0.06400 0.08200
H 	H 	0.24560 0.50100 0.08550 0.00200
C 	C 	0.23310 0.37260 0.06450 -0.12600
H 	H 	0.25280 0.34340 0.08650 0.09100
C 	C 	0.20920 0.32040 0.03260 0.06500
C 	C 	0.18100 0.36820 0.00260 -0.12200
H 	H 	0.16360 0.33530 0.98030 0.08700
C 	C 	0.17790 0.46380 0.00460 0.07500
H 	H 	0.15900 0.49530 0.98290 0.01100
C 	C 	0.31950 0.90280 0.11390 0.05300
H 	H 	0.32270 0.83740 0.11320 0.03400
C 	C 	0.28850 0.94540 0.08360 -0.10400
H 	H 	0.27150 0.90970 0.06210 0.09600
C 	C 	0.28260 0.04340 0.08540 0.05900
C 	C 	0.30940 0.09190 0.11760 -0.10000
H 	H 	0.30690 0.15730 0.11980 0.11500
C 	C 	0.33910 0.04440 0.14570 0.08800
H 	H 	0.35660 0.07890 0.16750 0.04400
C 	C 	0.19840 0.08670 0.99550 0.10000
C 	C 	0.21470 0.21910 0.02970 0.09800
C 	C 	0.24940 0.08830 0.05410 0.10100
C 	C 	0.17210 0.72100 0.11020 0.08700
H 	H 	0.19830 0.75090 0.11450 0.00400
C 	C 	0.15020 0.73430 0.13800 -0.14500
H 	H 	0.16110 0.77190 0.16140 0.09200
C 	C 	0.11210 0.69320 0.13220 0.07800
C 	C 	0.10000 0.63340 0.09920 -0.17200
H 	H 	0.07530 0.59770 0.09490 0.08700
C 	C 	0.12470 0.62800 0.07360 0.12500
H 	H 	0.11540 0.58970 0.05010 -0.03100
C 	C 	0.06500 0.98510 0.28560 0.04500
H 	H 	0.04500 0.01160 0.29780 -0.02900
C 	C 	0.05350 0.90790 0.25810 -0.12200
H 	H 	0.02650 0.88170 0.25230 0.08800
C 	C 	0.08290 0.87380 0.24070 0.04300
C 	C 	0.12160 0.91190 0.24920 -0.11800
H 	H 	0.14180 0.88830 0.23660 0.08000
C 	C 	0.13100 0.98420 0.27590 0.06400
H 	H 	0.15800 0.01060 0.28200 0.01300
C 	C 	0.96690 0.45250 0.17210 0.08800
H 	H 	0.96320 0.39730 0.15620 -0.00300
C 	C 	0.99980 0.51000 0.17080 -0.13100
H 	H 	0.01950 0.49330 0.15630 0.08800
C 	C 	0.00220 0.59380 0.19190 0.09500
C 	C 	0.97520 0.61350 0.21560 -0.09400
H 	H 	0.97720 0.66990 0.23060 0.14200
C 	C 	0.94470 0.54630 0.21650 0.09200
H 	H 	0.92690 0.55650 0.23380 0.02200
C 	C 	0.08660 0.70800 0.16120 0.05500
C 	C 	0.07320 0.78960 0.21220 0.03100
C 	C 	0.03580 0.66070 0.18960 0.07500
C 	C 	0.15900 0.09930 0.42470 0.05300
H 	H 	0.15870 0.16520 0.42400 0.03600
C 	C 	0.17890 0.05590 0.46000 -0.09200
H 	H 	0.19250 0.09140 0.48330 0.10400
C 	C 	0.17940 0.95880 0.46190 0.03900
C 	C 	0.15900 0.90850 0.42650 -0.09400
H 	H 	0.15880 0.84250 0.42640 0.09900
C 	C 	0.13940 0.95820 0.39210 0.04700
H 	H 	0.12520 0.92460 0.36840 0.01300
C 	C 	0.34190 0.95420 0.65020 0.07900
H 	H 	0.36020 0.92120 0.67180 0.04000
C 	C 	0.31200 0.90420 0.62030 -0.10500
H 	H 	0.31010 0.83850 0.62140 0.12900
C 	C 	0.28580 0.95480 0.58950 0.06800
C 	C 	0.28960 0.04890 0.58830 -0.12100
H 	H 	0.27170 0.08390 0.56700 0.11700
C 	C 	0.31990 0.09310 0.61840 0.08100
H 	H 	0.32270 0.15860 0.61750 0.01900
C 	C 	0.18380 0.52680 0.50760 0.04800
H 	H 	0.16740 0.49250 0.48530 -0.00600
C 	C 	0.18690 0.62540 0.50480 -0.10300
H 	H 	0.17170 0.65780 0.48120 0.09000
C 	C 	0.21190 0.67160 0.53670 0.07000
C 	C 	0.23420 0.62290 0.57210 -0.12800
H 	H 	0.25250 0.65450 0.59420 0.10500
C 	C 	0.22840 0.52830 0.57320 0.09400
H 	H 	0.24220 0.49480 0.59710 -0.01300
C 	C 	0.20290 0.90790 0.49850 0.11400
C 	C 	0.25360 0.90340 0.55810 0.11400
C 	C 	0.21880 0.77440 0.53370 0.12500
C 	C 	0.46470 0.05340 0.67280 0.09200
H 	H 	0.46120 0.10870 0.65700 0.00200
C 	C 	0.49470 0.99040 0.66990 -0.12800
H 	H 	0.51070 0.00100 0.65100 0.09800
C 	C 	0.50190 0.91160 0.69420 0.07300
C 	C 	0.47790 0.89770 0.72100 -0.08700
H 	H 	0.48170 0.84410 0.73790 0.09400
C 	C 	0.44770 0.96460 0.72280 0.06200
H 	H 	0.43200 0.95770 0.74230 0.02100
C 	C 	0.62190 0.86610 0.57190 0.07500
H 	H 	0.61180 0.89900 0.54690 -0.03300
C 	C 	0.59730 0.86160 0.60120 -0.11400
H 	H 	0.57340 0.89970 0.59790 0.08600
C 	C 	0.60880 0.80230 0.63350 0.06800
C 	C 	0.64520 0.75460 0.63870 -0.11500
H 	H 	0.65360 0.71160 0.66060 0.09000
C 	C 	0.66960 0.76900 0.61240 0.07300
H 	H 	0.69560 0.73840 0.61740 0.00100
C 	C 	0.55220 0.52370 0.78440 0.08500
H 	H 	0.53100 0.50190 0.79610 -0.03500
C 	C 	0.54390 0.59800 0.75880 -0.11800
H 	H 	0.51770 0.62810 0.75310 0.08700
C 	C 	0.57470 0.62930 0.74120 0.06400
C 	C 	0.61280 0.58170 0.75050 -0.12000
H 	H 	0.63400 0.60010 0.73830 0.09000
C 	C 	0.61900 0.50900 0.77710 0.09200
H 	H 	0.64520 0.47890 0.78380 -0.00300
C 	C 	0.53360 0.84170 0.69100 0.13400
C 	C 	0.58260 0.79120 0.66250 0.12800
C 	C 	0.56700 0.70800 0.71300 0.11700
N 	N 	0.13220 0.94350 0.88830 -0.28700
N 	N 	0.20030 0.51310 0.03560 -0.25200
N 	N 	0.34540 0.95260 0.14480 -0.24800
N 	N 	0.19050 0.17530 0.99810 -0.13400
N 	N 	0.24570 0.18070 0.05970 -0.13000
N 	N 	0.22870 0.03880 0.02240 -0.14000
N 	N 	0.15910 0.66900 0.07780 -0.27600
N 	N 	0.10260 0.01940 0.29420 -0.29900
N 	N 	0.93990 0.46900 0.19410 -0.23600
N 	N 	0.09600 0.78110 0.18680 -0.15300
N 	N 	0.04200 0.73350 0.21630 -0.14400
N 	N 	0.05490 0.64900 0.16070 -0.14700
N 	N 	0.13930 0.05190 0.38990 -0.31400
N 	N 	0.34490 0.04530 0.64860 -0.24800
N 	N 	0.20430 0.48270 0.54200 -0.28300
N 	N 	0.23120 0.95400 0.52560 -0.13900
N 	N 	0.24750 0.81470 0.56270 -0.12600
N 	N 	0.19420 0.81650 0.50090 -0.12700
N 	N 	0.44060 0.03800 0.69740 -0.25200
N 	N 	0.65760 0.82510 0.57970 -0.30000
N 	N 	0.58990 0.47870 0.79410 -0.25100
N 	N 	0.55450 0.85520 0.66300 -0.12900
N 	N 	0.59100 0.71500 0.68680 -0.12800
N 	N 	0.53890 0.77040 0.71690 -0.13200
Zn	Zn	0.10290 0.87220 0.83554 0.82400
Cl	Cl	0.04200 0.82560 0.84350 -5.32500
Cl	Cl	0.14910 0.78130 0.81830 -0.05100
Zn	Zn	0.19365 0.65440 0.03640 0.60400
Cl	Cl	0.15780 0.69060 0.97410 -0.42300
Cl	Cl	0.25507 0.71680 0.06560 -0.45500
Zn	Zn	0.38950 0.88530 0.18926 0.43500
Cl	Cl	0.40170 0.75150 0.16220 -0.31300
Cl	Cl	0.36970 0.90420 0.24660 -0.55900
Zn	Zn	0.12175 0.12526 0.33617 1.03900
Cl	Cl	0.06710 0.21140 0.33459 -0.74500
Cl	Cl	0.18241 0.17930 0.32831 -0.24800
Zn	Zn	0.38826 0.11583 0.69442 1.21100
Cl	Cl	0.37056 0.08400 0.75159 -0.51100
Cl	Cl	0.39643 0.25160 0.66637 -0.54100
Zn	Zn	0.69959 0.84050 0.54561 0.81400
Cl	Cl	0.75950 0.78310 0.58230 0.02600
Cl	Cl	0.67090 0.79810 0.48240 -0.95300
Zn	Zn	0.08640 0.87030 0.84440 1.15000
Cl	Cl	0.02300 0.83800 0.85000 4.52000
Cl	Cl	0.12800 0.76300 0.82900 -0.48600
Zn	Zn	0.19990 0.65800 0.04200 0.56700
Cl	Cl	0.17400 0.70100 0.97800 -0.08600
Cl	Cl	0.25400 0.70300 0.09300 -0.13400
Zn	Zn	0.38300 0.87600 0.19310 0.78400
Cl	Cl	0.39100 0.75300 0.16200 -0.20300
Cl	Cl	0.36500 0.87500 0.23800 -0.00100
Zn	Zn	0.09180 0.12130 0.34120 1.04300
Cl	Cl	0.03280 0.15100 0.35720 -0.28900
Cl	Cl	0.13660 0.22000 0.32220 -0.69000
Zn	Zn	0.68380 0.83770 0.52940 0.84400
Cl	Cl	0.64400 0.81310 0.46780 0.25300
Cl	Cl	0.74280 0.76660 0.55490 -0.70800
C 	C 	0.63250 0.53570 0.88900 0.04300
H 	H 	0.61930 0.56930 0.86500 0.01100
C 	C 	0.65210 0.58410 0.92490 -0.09800
H 	H 	0.64990 0.64990 0.92580 0.09600
C 	C 	0.67430 0.53670 0.95870 0.04100
C 	C 	0.67450 0.43820 0.95670 -0.10500
H 	H 	0.68910 0.40210 0.97940 0.08200
C 	C 	0.65300 0.39700 0.92100 0.05400
H 	H 	0.65300 0.33110 0.91960 0.04100
C 	C 	0.72800 0.96630 0.06400 0.06200
H 	H 	0.74560 0.00100 0.08550 0.01200
C 	C 	0.73310 0.87260 0.06450 -0.11500
H 	H 	0.75280 0.84340 0.08650 0.08600
C 	C 	0.70920 0.82040 0.03260 0.05800
C 	C 	0.68100 0.86820 0.00260 -0.11500
H 	H 	0.66360 0.83530 0.98030 0.08400
C 	C 	0.67790 0.96380 0.00460 0.06500
H 	H 	0.65900 0.99530 0.98290 0.01200
C 	C 	0.81950 0.40280 0.11390 0.04900
H 	H 	0.82270 0.33740 0.11320 0.03500
C 	C 	0.78850 0.44540 0.08360 -0.09300
H 	H 	0.77150 0.40970 0.06210 0.09400
C 	C 	0.78260 0.54340 0.08540 0.04900
C 	C 	0.80940 0.59190 0.11760 -0.09300
H 	H 	0.80690 0.65730 0.11980 0.11200
C 	C 	0.83910 0.54440 0.14570 0.07800
H 	H 	0.85660 0.57890 0.16750 0.04600
C 	C 	0.69840 0.58670 0.99550 0.10200
C 	C 	0.71470 0.71910 0.02970 0.10000
C 	C 	0.74940 0.58830 0.05410 0.10200
C 	C 	0.67210 0.22100 0.11020 0.08800
H 	H 	0.69830 0.25090 0.11450 0.00400
C 	C 	0.65020 0.23430 0.13800 -0.14500
H 	H 	0.66110 0.27190 0.16140 0.09300
C 	C 	0.61210 0.19320 0.13220 0.07800
C 	C 	0.60000 0.13340 0.09920 -0.17200
H 	H 	0.57530 0.09770 0.09490 0.08700
C 	C 	0.62470 0.12800 0.07360 0.12500
H 	H 	0.61540 0.08970 0.05010 -0.03000
C 	C 	0.56500 0.48510 0.28560 0.06400
H 	H 	0.54500 0.51160 0.29780 -0.03800
C 	C 	0.55350 0.40790 0.25810 -0.13400
H 	H 	0.52650 0.38170 0.25230 0.09300
C 	C 	0.58290 0.37380 0.24070 0.05200
C 	C 	0.62160 0.41190 0.24920 -0.13200
H 	H 	0.64180 0.38830 0.23660 0.08500
C 	C 	0.63100 0.48420 0.27590 0.08400
H 	H 	0.65800 0.51060 0.28200 0.00300
C 	C 	0.46690 0.95250 0.17210 0.07300
H 	H 	0.46320 0.89730 0.15620 0.00100
C 	C 	0.49980 0.01000 0.17080 -0.10900
H 	H 	0.51950 0.99330 0.15630 0.07700
C 	C 	0.50220 0.09380 0.19190 0.08700
C 	C 	0.47520 0.11350 0.21560 -0.09100
H 	H 	0.47720 0.16990 0.23060 0.14100
C 	C 	0.44470 0.04630 0.21650 0.09500
H 	H 	0.42690 0.05650 0.23380 0.02200
C 	C 	0.58660 0.20800 0.16120 0.05600
C 	C 	0.57320 0.28960 0.21220 0.02900
C 	C 	0.53580 0.16070 0.18960 0.07800
C 	C 	0.65900 0.59930 0.42470 0.05700
H 	H 	0.65870 0.66520 0.42400 0.03400
C 	C 	0.67890 0.55590 0.46000 -0.10200
H 	H 	0.69250 0.59140 0.48330 0.10700
C 	C 	0.67940 0.45880 0.46190 0.04900
C 	C 	0.65900 0.40850 0.42650 -0.10000
H 	H 	0.65880 0.34250 0.42640 0.10200
C 	C 	0.63940 0.45820 0.39210 0.05600
H 	H 	0.62520 0.42460 0.36840 0.01100
C 	C 	0.84190 0.45420 0.65020 0.08800
H 	H 	0.86020 0.42120 0.67180 0.03800
C 	C 	0.81200 0.40420 0.62030 -0.11200
H 	H 	0.81010 0.33850 0.62140 0.13200
C 	C 	0.78580 0.45480 0.58950 0.07800
C 	C 	0.78960 0.54890 0.58830 -0.13200
H 	H 	0.77170 0.58390 0.56700 0.12000
C 	C 	0.81990 0.59310 0.61840 0.08500
H 	H 	0.82270 0.65860 0.61750 0.01700
C 	C 	0.68380 0.02680 0.50760 0.06600
H 	H 	0.66740 0.99250 0.48530 -0.01500
C 	C 	0.68690 0.12540 0.50480 -0.11400
H 	H 	0.67170 0.15780 0.48120 0.09400
C 	C 	0.71190 0.17160 0.53670 0.07800
C 	C 	0.73420 0.12290 0.57210 -0.13900
H 	H 	0.75250 0.15450 0.59420 0.11000
C 	C 	0.72840 0.02830 0.57320 0.11300
H 	H 	0.74220 0.99480 0.59710 -0.02300
C 	C 	0.70290 0.40790 0.49850 0.11200
C 	C 	0.75360 0.40340 0.55810 0.11200
C 	C 	0.71880 0.27440 0.53370 0.12300
C 	C 	0.96470 0.55340 0.67280 0.07600
H 	H 	0.96120 0.60870 0.65700 0.00700
C 	C 	0.99470 0.49040 0.66990 -0.10600
H 	H 	0.01070 0.50100 0.65100 0.08700
C 	C 	0.00190 0.41160 0.69420 0.06500
C 	C 	0.97790 0.39770 0.72100 -0.08300
H 	H 	0.98170 0.34410 0.73790 0.09300
C 	C 	0.94770 0.46460 0.72280 0.06400
H 	H 	0.93200 0.45770 0.74230 0.02200
C 	C 	0.12190 0.36610 0.57190 0.07600
H 	H 	0.11180 0.39900 0.54690 -0.03200
C 	C 	0.09730 0.36160 0.60120 -0.11400
H 	H 	0.07340 0.39970 0.59790 0.08700
C 	C 	0.10880 0.30230 0.63350 0.06900
C 	C 	0.14520 0.25460 0.63870 -0.11500
H 	H 	0.15360 0.21160 0.66060 0.09100
C 	C 	0.16960 0.26900 0.61240 0.07400
H 	H 	0.19560 0.23840 0.61740 0.00200
C 	C 	0.05220 0.02370 0.78440 0.09400
H 	H 	0.03100 0.00190 0.79610 -0.03500
C 	C 	0.04390 0.09800 0.75880 -0.12400
H 	H 	0.01770 0.12810 0.75310 0.09000
C 	C 	0.07470 0.12930 0.74120 0.07000
C 	C 	0.11280 0.08170 0.75050 -0.13100
H 	H 	0.13400 0.10010 0.73830 0.09500
C 	C 	0.11900 0.00900 0.77710 0.11100
H 	H 	0.14520 0.97890 0.78380 -0.01300
C 	C 	0.03360 0.34170 0.69100 0.13700
C 	C 	0.08260 0.29120 0.66250 0.12800
C 	C 	0.06700 0.20800 0.71300 0.11500
N 	N 	0.63220 0.44350 0.88830 -0.28200
N 	N 	0.70030 0.01310 0.03560 -0.24300
N 	N 	0.84540 0.45260 0.14480 -0.24300
N 	N 	0.69050 0.67530 0.99810 -0.13500
N 	N 	0.74570 0.68070 0.05970 -0.13000
N 	N 	0.72870 0.53880 0.02240 -0.14300
N 	N 	0.65910 0.16900 0.07780 -0.27600
N 	N 	0.60260 0.51940 0.29420 -0.31000
N 	N 	0.43990 0.96900 0.19410 -0.23600
N 	N 	0.59600 0.28110 0.18680 -0.15200
N 	N 	0.54200 0.23350 0.21630 -0.14400
N 	N 	0.55490 0.14900 0.16070 -0.14700
N 	N 	0.63930 0.55190 0.38990 -0.31800
N 	N 	0.84490 0.54530 0.64860 -0.25200
N 	N 	0.70430 0.98270 0.54200 -0.29300
N 	N 	0.73120 0.45400 0.52560 -0.13700
N 	N 	0.74750 0.31470 0.56270 -0.12500
N 	N 	0.69420 0.31650 0.50090 -0.12600
N 	N 	0.94060 0.53800 0.69740 -0.25200
N 	N 	0.15760 0.32510 0.57970 -0.30000
N 	N 	0.08990 0.97870 0.79410 -0.26000
N 	N 	0.05450 0.35520 0.66300 -0.12900
N 	N 	0.09100 0.21500 0.68680 -0.12700
N 	N 	0.03890 0.27040 0.71690 -0.13200
Zn	Zn	0.60290 0.37220 0.83554 0.82400
Cl	Cl	0.54200 0.32560 0.84350 -5.32800
Cl	Cl	0.64910 0.28130 0.81830 -0.04900
Zn	Zn	0.69365 0.15440 0.03640 0.60400
Cl	Cl	0.65780 0.19060 0.97410 -0.42400
Cl	Cl	0.75507 0.21680 0.06560 -0.45500
Zn	Zn	0.88950 0.38530 0.18926 0.43700
Cl	Cl	0.90170 0.25150 0.16220 -0.31300
Cl	Cl	0.86970 0.40420 0.24660 -0.56000
Zn	Zn	0.62175 0.62526 0.33617 1.03900
Cl	Cl	0.56710 0.71140 0.33459 -0.74600
Cl	Cl	0.68241 0.67930 0.32831 -0.24900
Zn	Zn	0.88826 0.61583 0.69442 1.21100
Cl	Cl	0.87056 0.58400 0.75159 -0.51300
Cl	Cl	0.89643 0.75160 0.66637 -0.54200
Zn	Zn	0.19959 0.34050 0.54561 0.81400
Cl	Cl	0.25950 0.28310 0.58230 0.02600
Cl	Cl	0.17090 0.29810 0.48240 -0.95300
Zn	Zn	0.58640 0.37030 0.84440 1.15000
Cl	Cl	0.52300 0.33800 0.85000 4.52400
Cl	Cl	0.62800 0.26300 0.82900 -0.48600
Zn	Zn	0.69990 0.15800 0.04200 0.56800
Cl	Cl	0.67400 0.20100 0.97800 -0.08400
Cl	Cl	0.75400 0.20300 0.09300 -0.13400
Zn	Zn	0.88300 0.37600 0.19310 0.78200
Cl	Cl	0.89100 0.25300 0.16200 -0.20200
Cl	Cl	0.86500 0.37500 0.23800 0.00100
Zn	Zn	0.59180 0.62130 0.34120 1.04200
Cl	Cl	0.53280 0.65100 0.35720 -0.29000
Cl	Cl	0.63660 0.72000 0.32220 -0.69100
Zn	Zn	0.18380 0.33770 0.52940 0.84400
Cl	Cl	0.14400 0.31310 0.46780 0.25400
Cl	Cl	0.24280 0.26660 0.55490 -0.70700
