data_crystal

_cell_length_a 7.65480
_cell_length_b 20.14910
_cell_length_c 25.64130
_cell_angle_alpha 90.00000
_cell_angle_beta  90.00000
_cell_angle_gamma 90.00000

_symmetry_space_group_name_	'P 1'
_symmetry_space_group_name_H-M	'P 1'

loop_
_symmetry_equiv_pos_as_xyz
  x,y,z

loop_
_atom_site_label
_atom_site_type_symbol
_atom_site_fract_x
_atom_site_fract_y
_atom_site_fract_z
_atom_site_charge
Mn	Mn	0.74115 0.81944 0.84012 1.28800
Mn	Mn	0.25885 0.68056 0.34012 1.28800
Mn	Mn	0.24115 0.18056 0.65988 1.28700
Mn	Mn	0.75885 0.31944 0.15988 1.28700
Mn	Mn	0.25885 0.18056 0.15988 1.28900
Mn	Mn	0.74115 0.31944 0.65988 1.28900
Mn	Mn	0.75885 0.81944 0.34012 1.28800
Mn	Mn	0.24115 0.68056 0.84012 1.28800
H 	H 	0.34120 0.90870 0.98390 0.08400
H 	H 	0.73130 0.03350 0.95330 0.08100
H 	H 	0.81130 0.96530 0.88630 -0.01600
H 	H 	0.42510 0.84760 0.91320 0.00100
H 	H 	0.41720 0.60690 0.21430 0.02400
H 	H 	0.41300 0.60230 0.96860 0.04300
H 	H 	0.65880 0.59130 0.48390 0.08400
H 	H 	0.26870 0.46650 0.45330 0.08200
H 	H 	0.18870 0.53470 0.38630 -0.01600
H 	H 	0.57490 0.65240 0.41320 0.00100
H 	H 	0.58280 0.89310 0.71430 0.02400
H 	H 	0.58700 0.89770 0.46860 0.04300
H 	H 	0.84120 0.09130 0.51610 0.08400
H 	H 	0.23130 0.96650 0.54670 0.08200
H 	H 	0.31130 0.03470 0.61370 -0.01700
H 	H 	0.92510 0.15240 0.58680 0.00100
H 	H 	0.91720 0.39310 0.28570 0.02500
H 	H 	0.91300 0.39770 0.53140 0.04300
H 	H 	0.15880 0.40870 0.01610 0.08400
H 	H 	0.76870 0.53350 0.04670 0.08200
H 	H 	0.68870 0.46530 0.11370 -0.01700
H 	H 	0.07490 0.34760 0.08680 0.00100
H 	H 	0.08280 0.10690 0.78570 0.02500
H 	H 	0.08700 0.10230 0.03140 0.04200
H 	H 	0.65880 0.09130 0.01610 0.08400
H 	H 	0.26870 0.96650 0.04670 0.08100
H 	H 	0.18870 0.03470 0.11370 -0.01600
H 	H 	0.57490 0.15240 0.08680 0.00100
H 	H 	0.58280 0.39310 0.78570 0.02400
H 	H 	0.58700 0.39770 0.03140 0.04300
H 	H 	0.34120 0.40870 0.51610 0.08400
H 	H 	0.73130 0.53350 0.54670 0.08200
H 	H 	0.81130 0.46530 0.61370 -0.01600
H 	H 	0.42510 0.34760 0.58680 0.00100
H 	H 	0.41720 0.10690 0.28570 0.02400
H 	H 	0.41300 0.10230 0.53140 0.04300
H 	H 	0.15880 0.90870 0.48390 0.08400
H 	H 	0.76870 0.03350 0.45330 0.08200
H 	H 	0.68870 0.96530 0.38630 -0.01700
H 	H 	0.07490 0.84760 0.41320 0.00100
H 	H 	0.08280 0.60690 0.71430 0.02500
H 	H 	0.08700 0.60230 0.46860 0.04300
H 	H 	0.84120 0.59130 0.98390 0.08400
H 	H 	0.23130 0.46650 0.95330 0.08200
H 	H 	0.31130 0.53470 0.88630 -0.01700
H 	H 	0.92510 0.65240 0.91320 0.00100
H 	H 	0.91720 0.89310 0.21430 0.02500
H 	H 	0.91300 0.89770 0.96860 0.04200
C 	C 	0.52620 0.97926 0.97726 0.06300
C 	C 	0.43710 0.92207 0.96429 -0.14100
C 	C 	0.66760 0.99516 0.94667 -0.14300
C 	C 	0.71430 0.95380 0.90614 0.08500
C 	C 	0.49070 0.88475 0.92211 0.09200
C 	C 	0.58770 0.71047 0.26937 0.40400
C 	C 	0.56340 0.69110 0.21382 -0.11400
C 	C 	0.47420 0.63850 0.19405 -0.00700
C 	C 	0.47870 0.63781 0.13919 -0.00400
C 	C 	0.57240 0.68989 0.11772 -0.00900
C 	C 	0.57250 0.68902 0.06240 -0.01300
C 	C 	0.47790 0.63605 0.04271 0.00000
C 	C 	0.47090 0.63472 0.98781 -0.01700
C 	C 	0.55920 0.68662 0.96626 -0.10900
C 	C 	0.57820 0.70373 0.90974 0.41000
C 	C 	0.47380 0.52074 0.47726 0.06300
C 	C 	0.56290 0.57793 0.46429 -0.14100
C 	C 	0.33240 0.50484 0.44667 -0.14400
C 	C 	0.28570 0.54620 0.40614 0.08600
C 	C 	0.50930 0.61525 0.42211 0.09200
C 	C 	0.41230 0.78953 0.76937 0.40400
C 	C 	0.43660 0.80890 0.71382 -0.11400
C 	C 	0.52580 0.86150 0.69405 -0.00700
C 	C 	0.52130 0.86219 0.63919 -0.00400
C 	C 	0.42760 0.81011 0.61772 -0.00900
C 	C 	0.42750 0.81098 0.56240 -0.01300
C 	C 	0.52210 0.86395 0.54271 0.00000
C 	C 	0.52910 0.86528 0.48781 -0.01700
C 	C 	0.44080 0.81338 0.46626 -0.10900
C 	C 	0.42180 0.79627 0.40974 0.41000
C 	C 	0.02620 0.02074 0.52274 0.06300
C 	C 	0.93710 0.07793 0.53571 -0.14200
C 	C 	0.16760 0.00484 0.55333 -0.14500
C 	C 	0.21430 0.04620 0.59386 0.08600
C 	C 	0.99070 0.11525 0.57789 0.09500
C 	C 	0.08770 0.28953 0.23063 0.40300
C 	C 	0.06340 0.30890 0.28618 -0.10900
C 	C 	0.97420 0.36150 0.30595 -0.01300
C 	C 	0.97870 0.36219 0.36081 -0.00500
C 	C 	0.07240 0.31011 0.38228 -0.00600
C 	C 	0.07250 0.31098 0.43760 -0.01200
C 	C 	0.97790 0.36395 0.45729 -0.00100
C 	C 	0.97090 0.36528 0.51219 -0.01500
C 	C 	0.05920 0.31338 0.53374 -0.11000
C 	C 	0.07820 0.29627 0.59026 0.40700
C 	C 	0.97380 0.47926 0.02274 0.06200
C 	C 	0.06290 0.42207 0.03571 -0.14100
C 	C 	0.83240 0.49516 0.05333 -0.14500
C 	C 	0.78570 0.45380 0.09386 0.08500
C 	C 	0.00930 0.38475 0.07789 0.09500
C 	C 	0.91230 0.21047 0.73063 0.40300
C 	C 	0.93660 0.19110 0.78618 -0.10900
C 	C 	0.02580 0.13850 0.80595 -0.01300
C 	C 	0.02130 0.13781 0.86081 -0.00500
C 	C 	0.92760 0.18989 0.88228 -0.00600
C 	C 	0.92750 0.18902 0.93760 -0.01100
C 	C 	0.02210 0.13605 0.95729 -0.00300
C 	C 	0.02910 0.13472 0.01219 -0.01200
C 	C 	0.94080 0.18662 0.03374 -0.11100
C 	C 	0.92180 0.20373 0.09026 0.40700
C 	C 	0.47380 0.02074 0.02274 0.06300
C 	C 	0.56290 0.07793 0.03571 -0.14100
C 	C 	0.33240 0.00484 0.05333 -0.14300
C 	C 	0.28570 0.04620 0.09386 0.08500
C 	C 	0.50930 0.11525 0.07789 0.09200
C 	C 	0.41230 0.28953 0.73063 0.40400
C 	C 	0.43660 0.30890 0.78618 -0.11400
C 	C 	0.52580 0.36150 0.80595 -0.00700
C 	C 	0.52130 0.36219 0.86081 -0.00400
C 	C 	0.42760 0.31011 0.88228 -0.00900
C 	C 	0.42750 0.31098 0.93760 -0.01300
C 	C 	0.52210 0.36395 0.95729 0.00000
C 	C 	0.52910 0.36528 0.01219 -0.01700
C 	C 	0.44080 0.31338 0.03374 -0.10900
C 	C 	0.42180 0.29627 0.09026 0.41000
C 	C 	0.52620 0.47926 0.52274 0.06300
C 	C 	0.43710 0.42207 0.53571 -0.14100
C 	C 	0.66760 0.49516 0.55333 -0.14400
C 	C 	0.71430 0.45380 0.59386 0.08600
C 	C 	0.49070 0.38475 0.57789 0.09200
C 	C 	0.58770 0.21047 0.23063 0.40400
C 	C 	0.56340 0.19110 0.28618 -0.11400
C 	C 	0.47420 0.13850 0.30595 -0.00700
C 	C 	0.47870 0.13781 0.36081 -0.00400
C 	C 	0.57240 0.18989 0.38228 -0.00900
C 	C 	0.57250 0.18902 0.43760 -0.01300
C 	C 	0.47790 0.13605 0.45729 0.00000
C 	C 	0.47090 0.13472 0.51219 -0.01700
C 	C 	0.55920 0.18662 0.53374 -0.10900
C 	C 	0.57820 0.20373 0.59026 0.41000
C 	C 	0.97380 0.97926 0.47726 0.06300
C 	C 	0.06290 0.92207 0.46429 -0.14200
C 	C 	0.83240 0.99516 0.44667 -0.14500
C 	C 	0.78570 0.95380 0.40614 0.08600
C 	C 	0.00930 0.88475 0.42211 0.09500
C 	C 	0.91230 0.71047 0.76937 0.40300
C 	C 	0.93660 0.69110 0.71382 -0.10900
C 	C 	0.02580 0.63850 0.69405 -0.01300
C 	C 	0.02130 0.63781 0.63919 -0.00500
C 	C 	0.92760 0.68989 0.61772 -0.00600
C 	C 	0.92750 0.68902 0.56240 -0.01200
C 	C 	0.02210 0.63605 0.54271 -0.00100
C 	C 	0.02910 0.63472 0.48781 -0.01500
C 	C 	0.94080 0.68662 0.46626 -0.11000
C 	C 	0.92180 0.70373 0.40974 0.40700
C 	C 	0.02620 0.52074 0.97726 0.06200
C 	C 	0.93710 0.57793 0.96429 -0.14100
C 	C 	0.16760 0.50484 0.94667 -0.14500
C 	C 	0.21430 0.54620 0.90614 0.08500
C 	C 	0.99070 0.61525 0.92211 0.09500
C 	C 	0.08770 0.78953 0.26937 0.40300
C 	C 	0.06340 0.80890 0.21382 -0.10900
C 	C 	0.97420 0.86150 0.19405 -0.01300
C 	C 	0.97870 0.86219 0.13919 -0.00500
C 	C 	0.07240 0.81011 0.11772 -0.00600
C 	C 	0.07250 0.81098 0.06240 -0.01100
C 	C 	0.97790 0.86395 0.04271 -0.00300
C 	C 	0.97090 0.86528 0.98781 -0.01200
C 	C 	0.05920 0.81338 0.96626 -0.11100
C 	C 	0.07820 0.79627 0.90974 0.40700
S 	S 	0.65625 0.74054 0.16568 0.03600
S 	S 	0.38863 0.58611 0.09147 -0.01800
S 	S 	0.65533 0.73752 0.01290 0.03600
S 	S 	0.34375 0.75946 0.66568 0.03600
S 	S 	0.61137 0.91389 0.59147 -0.01800
S 	S 	0.34467 0.76248 0.51290 0.03700
S 	S 	0.15625 0.25946 0.33432 0.03600
S 	S 	0.88863 0.41389 0.40853 -0.01900
S 	S 	0.15533 0.26248 0.48710 0.03700
S 	S 	0.84375 0.24054 0.83432 0.03600
S 	S 	0.11137 0.08611 0.90853 -0.01900
S 	S 	0.84467 0.23752 0.98710 0.03700
S 	S 	0.34375 0.25946 0.83432 0.03600
S 	S 	0.61137 0.41389 0.90853 -0.01800
S 	S 	0.34467 0.26248 0.98710 0.03600
S 	S 	0.65625 0.24054 0.33432 0.03600
S 	S 	0.38863 0.08611 0.40853 -0.01800
S 	S 	0.65533 0.23752 0.48710 0.03700
S 	S 	0.84375 0.74054 0.66568 0.03600
S 	S 	0.11137 0.58611 0.59147 -0.01900
S 	S 	0.84467 0.73752 0.51290 0.03700
S 	S 	0.15625 0.75946 0.16568 0.03600
S 	S 	0.88863 0.91389 0.09147 -0.01900
S 	S 	0.15533 0.76248 0.01290 0.03700
N 	N 	0.62950 0.89870 0.89378 -0.23800
N 	N 	0.37050 0.60130 0.39378 -0.23800
N 	N 	0.12950 0.10130 0.60622 -0.24000
N 	N 	0.87050 0.39870 0.10622 -0.24000
N 	N 	0.37050 0.10130 0.10622 -0.23800
N 	N 	0.62950 0.39870 0.60622 -0.23800
N 	N 	0.87050 0.89870 0.39378 -0.24000
N 	N 	0.12950 0.60130 0.89378 -0.24000
O 	O 	0.51560 0.67627 0.30387 -0.45500
O 	O 	0.68230 0.76057 0.27631 -0.46100
O 	O 	0.67970 0.75067 0.90029 -0.44900
O 	O 	0.49440 0.66984 0.87749 -0.45600
O 	O 	0.48440 0.82373 0.80387 -0.45500
O 	O 	0.31770 0.73943 0.77631 -0.46100
O 	O 	0.32030 0.74933 0.40029 -0.44900
O 	O 	0.50560 0.83016 0.37749 -0.45600
O 	O 	0.01560 0.32373 0.19613 -0.45200
O 	O 	0.18230 0.23943 0.22369 -0.45900
O 	O 	0.17970 0.24933 0.59971 -0.44900
O 	O 	0.99440 0.33016 0.62251 -0.45300
O 	O 	0.98440 0.17627 0.69613 -0.45300
O 	O 	0.81770 0.26057 0.72369 -0.45900
O 	O 	0.82030 0.25067 0.09971 -0.44900
O 	O 	0.00560 0.16984 0.12251 -0.45300
O 	O 	0.48440 0.32373 0.69613 -0.45500
O 	O 	0.31770 0.23943 0.72369 -0.46100
O 	O 	0.32030 0.24933 0.09971 -0.44900
O 	O 	0.50560 0.33016 0.12251 -0.45600
O 	O 	0.51560 0.17627 0.19613 -0.45500
O 	O 	0.68230 0.26057 0.22369 -0.46100
O 	O 	0.67970 0.25067 0.59971 -0.44900
O 	O 	0.49440 0.16984 0.62251 -0.45600
O 	O 	0.98440 0.67627 0.80387 -0.45200
O 	O 	0.81770 0.76057 0.77631 -0.45900
O 	O 	0.82030 0.75067 0.40029 -0.44900
O 	O 	0.00560 0.66984 0.37749 -0.45300
O 	O 	0.01560 0.82373 0.30387 -0.45300
O 	O 	0.18230 0.73943 0.27631 -0.45900
O 	O 	0.17970 0.74933 0.90029 -0.44900
O 	O 	0.99440 0.83016 0.87749 -0.45300
