data_crystal

_cell_length_a 11.03110
_cell_length_b 11.51970
_cell_length_c 14.78210
_cell_angle_alpha 112.93300
_cell_angle_beta  101.69800
_cell_angle_gamma 90.00000

_symmetry_space_group_name_	'P 1'
_symmetry_space_group_name_H-M	'P 1'

loop_
_symmetry_equiv_pos_as_xyz
  x,y,z

loop_
_atom_site_label
_atom_site_type_symbol
_atom_site_fract_x
_atom_site_fract_y
_atom_site_fract_z
_atom_site_charge
Mn	Mn	0.08460 0.12920 0.00508 1.27700
Mn	Mn	0.41540 0.12412 0.99492 1.27800
Mn	Mn	0.91540 0.87080 0.99492 1.27800
Mn	Mn	0.58460 0.87588 0.00508 1.27900
H 	H 	0.92110 0.13930 0.27920 0.06500
H 	H 	0.97970 0.21470 0.73280 0.03900
H 	H 	0.57890 0.86010 0.72080 0.06500
H 	H 	0.52030 0.48190 0.26720 0.04500
H 	H 	0.07890 0.86070 0.72080 0.06500
H 	H 	0.02030 0.78530 0.26720 0.03900
H 	H 	0.42110 0.13990 0.27920 0.06500
H 	H 	0.47970 0.51810 0.73280 0.04500
C 	C 	0.11950 0.03910 0.17920 0.33300
C 	C 	0.09382 0.07742 0.28044 -0.08700
C 	C 	0.99282 0.12422 0.31704 -0.02600
C 	C 	0.12555 0.11755 0.45990 -0.01000
C 	C 	0.01091 0.14711 0.42082 0.01000
C 	C 	0.13975 0.13655 0.56270 -0.00800
C 	C 	0.03505 0.17705 0.59870 0.00000
C 	C 	0.04308 0.18988 0.69816 -0.00200
C 	C 	0.15555 0.16125 0.73710 -0.10800
C 	C 	0.19793 0.15893 0.83866 0.41100
C 	C 	0.38050 0.85990 0.82080 0.33200
C 	C 	0.40618 0.79698 0.71956 -0.08400
C 	C 	0.50718 0.80718 0.68296 -0.03000
C 	C 	0.37445 0.65765 0.54010 -0.01100
C 	C 	0.48909 0.72629 0.57918 0.01200
C 	C 	0.36025 0.57385 0.43730 -0.00800
C 	C 	0.46495 0.57835 0.40130 0.00200
C 	C 	0.45692 0.49172 0.30184 -0.01000
C 	C 	0.34445 0.42415 0.26290 -0.10600
C 	C 	0.30207 0.32027 0.16134 0.41000
C 	C 	0.88050 0.96090 0.82080 0.33300
C 	C 	0.90618 0.92258 0.71956 -0.08700
C 	C 	0.00718 0.87578 0.68296 -0.02600
C 	C 	0.87445 0.88245 0.54010 -0.01000
C 	C 	0.98909 0.85289 0.57918 0.01000
C 	C 	0.86025 0.86345 0.43730 -0.00800
C 	C 	0.96495 0.82295 0.40130 0.00000
C 	C 	0.95692 0.81012 0.30184 -0.00200
C 	C 	0.84445 0.83875 0.26290 -0.10800
C 	C 	0.80207 0.84107 0.16134 0.41100
C 	C 	0.61950 0.14010 0.17920 0.33200
C 	C 	0.59382 0.20302 0.28044 -0.08400
C 	C 	0.49282 0.19282 0.31704 -0.03000
C 	C 	0.62555 0.34235 0.45990 -0.01100
C 	C 	0.51091 0.27371 0.42082 0.01200
C 	C 	0.63975 0.42615 0.56270 -0.00800
C 	C 	0.53505 0.42165 0.59870 0.00200
C 	C 	0.54308 0.50828 0.69816 -0.01000
C 	C 	0.65555 0.57585 0.73710 -0.10600
C 	C 	0.69793 0.67973 0.83866 0.41000
S 	S 	0.21194 0.05886 0.37066 0.03200
S 	S 	0.25334 0.11699 0.65326 0.03800
S 	S 	0.91816 0.19900 0.50936 -0.00600
S 	S 	0.28806 0.68820 0.62934 0.03300
S 	S 	0.24666 0.46373 0.34674 0.03700
S 	S 	0.58184 0.68964 0.49064 -0.00600
S 	S 	0.78806 0.94114 0.62934 0.03200
S 	S 	0.74666 0.88301 0.34674 0.03800
S 	S 	0.08184 0.80100 0.49064 -0.00600
S 	S 	0.71194 0.31180 0.37066 0.03300
S 	S 	0.75334 0.53627 0.65326 0.03700
S 	S 	0.41816 0.31036 0.50936 -0.00600
O 	O 	0.30649 0.13229 0.86074 -0.46200
O 	O 	0.11979 0.18457 0.89286 -0.48100
O 	O 	0.22464 0.00606 0.16898 -0.28700
O 	O 	0.03275 0.04364 0.10810 -0.52500
O 	O 	0.19351 0.27155 0.13926 -0.46200
O 	O 	0.38021 0.29171 0.10714 -0.48300
O 	O 	0.27536 0.83708 0.83102 -0.28500
O 	O 	0.46725 0.93554 0.89190 -0.52300
O 	O 	0.69351 0.86771 0.13926 -0.46200
O 	O 	0.88021 0.81543 0.10714 -0.48100
O 	O 	0.77536 0.99394 0.83102 -0.28700
O 	O 	0.96725 0.95636 0.89190 -0.52500
O 	O 	0.80649 0.72845 0.86074 -0.46200
O 	O 	0.61979 0.70829 0.89286 -0.48300
O 	O 	0.72464 0.16292 0.16898 -0.28500
O 	O 	0.53275 0.06446 0.10810 -0.52300
O 	O 	0.25000 0.01500 1.00000 -0.41000
O 	O 	0.75000 0.98500 -0.00000 -0.41000
