data_crystal

_cell_length_a 8.09600
_cell_length_b 21.50700
_cell_length_c 13.93500
_cell_angle_alpha 90.00000
_cell_angle_beta  111.81000
_cell_angle_gamma 90.00000

_symmetry_space_group_name_	'P 1'
_symmetry_space_group_name_H-M	'P 1'

loop_
_symmetry_equiv_pos_as_xyz
  x,y,z

loop_
_atom_site_label
_atom_site_type_symbol
_atom_site_fract_x
_atom_site_fract_y
_atom_site_fract_z
_atom_site_charge
N 	N 	0.76040 0.54506 0.39994 -0.22500
N 	N 	0.57320 0.61258 0.29665 -0.13800
N 	N 	0.94600 0.52862 0.63624 -0.18700
N 	N 	0.93560 0.53108 0.79280 -0.10700
N 	N 	0.14860 0.91560 0.01008 -0.25900
N 	N 	0.30620 0.83074 0.07222 -0.15300
C 	C 	0.74110 0.60195 0.36350 0.09500
H 	H 	0.83170 0.63140 0.38140 -0.00100
C 	C 	0.59400 0.51780 0.35470 -0.00400
H 	H 	0.56600 0.47730 0.36670 0.02500
C 	C 	0.47880 0.55866 0.29060 0.00100
H 	H 	0.35960 0.55170 0.25050 0.02800
C 	C 	0.50620 0.66929 0.24200 0.08500
C 	C 	0.33480 0.68828 0.22650 -0.08400
H 	H 	0.26450 0.66490 0.25270 0.05100
C 	C 	0.61340 0.70385 0.20450 -0.08200
H 	H 	0.72800 0.69050 0.21480 0.06400
C 	C 	0.54810 0.75850 0.15160 -0.07500
H 	H 	0.61990 0.78290 0.12780 0.05400
C 	C 	0.01160 0.50526 0.73051 -0.00200
H 	H 	0.09930 0.47480 0.75160 0.01600
C 	C 	0.82240 0.57231 0.63890 0.00500
H 	H 	0.75380 0.59660 0.58310 0.02300
C 	C 	0.81560 0.57469 0.73410 0.00500
H 	H 	0.74430 0.60060 0.75580 0.03400
C 	C 	0.96900 0.51518 0.89857 0.12600
C 	C 	0.02530 0.45564 0.93440 -0.08700
H 	H 	0.04190 0.42610 0.89010 0.05600
C 	C 	0.94310 0.55964 0.96370 -0.04800
H 	H 	0.90490 0.59940 0.93920 0.06800
C 	C 	0.18490 0.87145 0.08060 0.08200
H 	H 	0.13340 0.86860 0.13000 -0.01900
C 	C 	0.25330 0.90206 0.95380 0.02300
H 	H 	0.25650 0.92540 0.89830 0.01600
C 	C 	0.35030 0.85023 0.99040 0.02300
H 	H 	0.43020 0.83150 0.96570 0.03500
C 	C 	0.37570 0.77666 0.13420 0.07600
C 	C 	0.26870 0.74233 0.17150 -0.07700
H 	H 	0.15330 0.75530 0.15990 0.04300
N 	N 	0.23960 0.04506 0.10006 -0.24100
N 	N 	0.42680 0.11258 0.20335 -0.14100
N 	N 	0.05400 0.02862 0.86376 -0.25500
N 	N 	0.06440 0.03108 0.70720 -0.13500
N 	N 	0.85140 0.41560 0.48992 -0.22200
N 	N 	0.69380 0.33074 0.42778 -0.13700
C 	C 	0.25890 0.10195 0.13650 0.08900
H 	H 	0.16830 0.13140 0.11860 -0.03000
C 	C 	0.40600 0.01780 0.14530 -0.06500
H 	H 	0.43400 0.97730 0.13330 0.05500
C 	C 	0.52120 0.05866 0.20940 0.02400
H 	H 	0.64040 0.05170 0.24950 0.02400
C 	C 	0.49380 0.16929 0.25800 0.07900
C 	C 	0.66520 0.18828 0.27350 -0.07000
H 	H 	0.73550 0.16490 0.24730 0.06100
C 	C 	0.38660 0.20385 0.29550 -0.07300
H 	H 	0.27200 0.19050 0.28520 0.04700
C 	C 	0.45190 0.25850 0.34840 -0.08400
H 	H 	0.38010 0.28290 0.37220 0.05500
C 	C 	0.98840 0.00526 0.76949 0.13500
H 	H 	0.90070 0.97480 0.74840 0.00300
C 	C 	0.17760 0.07231 0.86110 -0.00600
H 	H 	0.24620 0.09660 0.91690 0.02800
C 	C 	0.18440 0.07469 0.76590 -0.01400
H 	H 	0.25570 0.10060 0.74420 0.03600
C 	C 	0.03100 0.01518 0.60143 -0.10100
C 	C 	0.97470 0.95564 0.56560 0.15400
H 	H 	0.95810 0.92610 0.60990 -0.00500
C 	C 	0.05690 0.05964 0.53630 0.09100
H 	H 	0.09510 0.09940 0.56080 -0.00400
C 	C 	0.81510 0.37145 0.41940 0.09800
H 	H 	0.86660 0.36860 0.37000 0.00000
C 	C 	0.74670 0.40206 0.54620 -0.00100
H 	H 	0.74350 0.42540 0.60170 0.02800
C 	C 	0.64970 0.35023 0.50960 0.00300
H 	H 	0.56980 0.33150 0.53430 0.03200
C 	C 	0.62430 0.27666 0.36580 0.09200
C 	C 	0.73130 0.24233 0.32850 -0.08100
H 	H 	0.84670 0.25530 0.34010 0.07000
N 	N 	0.23960 0.45494 0.60006 -0.23900
N 	N 	0.42680 0.38742 0.70335 -0.13600
N 	N 	0.05400 0.47138 0.36376 -0.26900
N 	N 	0.06440 0.46892 0.20720 -0.16600
N 	N 	0.85140 0.08440 0.98992 -0.19800
N 	N 	0.69380 0.16926 0.92778 -0.11900
C 	C 	0.25890 0.39805 0.63650 0.09300
H 	H 	0.16830 0.36860 0.61860 -0.02200
C 	C 	0.40600 0.48220 0.64530 -0.00200
H 	H 	0.43400 0.52270 0.63330 0.02500
C 	C 	0.52120 0.44134 0.70940 0.00000
H 	H 	0.64040 0.44830 0.74950 0.04300
C 	C 	0.49380 0.33071 0.75800 0.08300
C 	C 	0.66520 0.31172 0.77350 -0.06600
H 	H 	0.73550 0.33510 0.74730 0.06400
C 	C 	0.38660 0.29615 0.79550 -0.06900
H 	H 	0.27200 0.30950 0.78520 0.05200
C 	C 	0.45190 0.24150 0.84840 -0.08000
H 	H 	0.38010 0.21710 0.87220 0.06300
C 	C 	0.98840 0.49474 0.26949 0.18900
H 	H 	0.90070 0.52520 0.24840 -0.03400
C 	C 	0.17760 0.42769 0.36110 -0.01000
H 	H 	0.24620 0.40340 0.41690 0.01800
C 	C 	0.18440 0.42531 0.26590 -0.00900
H 	H 	0.25570 0.39940 0.24420 0.02900
C 	C 	0.03100 0.48482 0.10143 0.04000
C 	C 	0.97470 0.54436 0.06560 -0.05600
H 	H 	0.95810 0.57390 0.10990 0.05700
C 	C 	0.05690 0.44036 0.03630 -0.10600
H 	H 	0.09510 0.40060 0.06080 0.05400
C 	C 	0.81510 0.12855 0.91940 0.10400
H 	H 	0.86660 0.13140 0.87000 0.00200
C 	C 	0.74670 0.09794 0.04620 -0.03100
H 	H 	0.74350 0.07460 0.10170 0.02800
C 	C 	0.64970 0.14977 0.00960 -0.02800
H 	H 	0.56980 0.16850 0.03430 0.03100
C 	C 	0.62430 0.22334 0.86580 0.09700
C 	C 	0.73130 0.25767 0.82850 -0.07900
H 	H 	0.84670 0.24470 0.84010 0.07500
N 	N 	0.76040 0.95494 0.89994 -0.21900
N 	N 	0.57320 0.88742 0.79665 -0.13300
N 	N 	0.94600 0.97138 0.13624 -0.19300
N 	N 	0.93560 0.96892 0.29280 -0.13700
N 	N 	0.14860 0.58440 0.51008 -0.24300
N 	N 	0.30620 0.66926 0.57222 -0.13700
C 	C 	0.74110 0.89805 0.86350 0.09900
H 	H 	0.83170 0.86860 0.88140 0.00700
C 	C 	0.59400 0.98220 0.85470 0.05000
H 	H 	0.56600 0.02270 0.86670 0.00100
C 	C 	0.47880 0.94134 0.79060 -0.01900
H 	H 	0.35960 0.94830 0.75050 0.04500
C 	C 	0.50620 0.83071 0.74200 0.08900
C 	C 	0.33480 0.81172 0.72650 -0.08000
H 	H 	0.26450 0.83510 0.75270 0.05400
C 	C 	0.61340 0.79615 0.70450 -0.07800
H 	H 	0.72800 0.80950 0.71480 0.06800
C 	C 	0.54810 0.74150 0.65160 -0.07200
H 	H 	0.61990 0.71710 0.62780 0.06100
C 	C 	0.01160 0.99474 0.23051 0.05200
H 	H 	0.09930 0.02520 0.25160 -0.02200
C 	C 	0.82240 0.92769 0.13890 0.00200
H 	H 	0.75380 0.90340 0.08310 0.01500
C 	C 	0.81560 0.92531 0.23410 0.01200
H 	H 	0.74430 0.89940 0.25580 0.02800
C 	C 	0.96900 0.98482 0.39857 0.27100
C 	C 	0.02530 0.04436 0.43440 -0.30500
H 	H 	0.04190 0.07390 0.39010 0.12100
C 	C 	0.94310 0.94036 0.46370 -0.24000
H 	H 	0.90490 0.90060 0.43920 0.12500
C 	C 	0.18490 0.62855 0.58060 0.08800
H 	H 	0.13340 0.63140 0.63000 -0.01800
C 	C 	0.25330 0.59794 0.45380 -0.00600
H 	H 	0.25650 0.57460 0.39830 0.01500
C 	C 	0.35030 0.64977 0.49040 -0.00600
H 	H 	0.43020 0.66850 0.46570 0.03500
C 	C 	0.37570 0.72334 0.63420 0.08100
C 	C 	0.26870 0.75767 0.67150 -0.07500
H 	H 	0.15330 0.74470 0.65990 0.04800
Co	Co	-0.00000 0.50000 0.50000 1.09500
Co	Co	-0.00000 0.00000 -0.00000 1.06800
