data_crystal

_cell_length_a 24.98000
_cell_length_b 19.32700
_cell_length_c 21.40700
_cell_angle_alpha 90.00000
_cell_angle_beta  96.01900
_cell_angle_gamma 90.00000

_symmetry_space_group_name_	'P 1'
_symmetry_space_group_name_H-M	'P 1'

loop_
_symmetry_equiv_pos_as_xyz
  x,y,z

loop_
_atom_site_label
_atom_site_type_symbol
_atom_site_fract_x
_atom_site_fract_y
_atom_site_fract_z
_atom_site_charge
Ag	Ag	0.98943 0.20635 0.27645 0.48400
Ag	Ag	0.05897 0.51842 0.23451 0.49100
Ag	Ag	0.73334 0.32836 0.92530 0.49500
Ag	Ag	0.59344 0.21858 0.87476 0.50000
Ag	Ag	0.53719 0.28686 0.71546 0.48600
Ag	Ag	0.55325 0.48102 0.73053 0.49700
Ag	Ag	0.49125 0.56715 0.56602 0.48300
Ag	Ag	0.19452 0.71268 0.44801 0.49400
Ag	Ag	0.92169 0.29205 0.12249 0.47300
C 	C 	0.51400 0.63360 0.76380 0.01900
C 	C 	0.53280 0.62590 0.82960 0.13900
C 	C 	0.55870 0.68030 0.86210 -0.36900
H 	H 	0.56270 0.72190 0.84120 0.11300
C 	C 	0.57860 0.67470 0.92440 0.43100
C 	C 	0.57110 0.61330 0.95440 -0.40200
H 	H 	0.58540 0.60820 0.99600 0.15000
C 	C 	0.54310 0.55900 0.92530 0.23200
H 	H 	0.53700 0.51890 0.94750 -0.06900
C 	C 	0.52410 0.56490 0.86230 -0.25900
H 	H 	0.50560 0.52830 0.84180 0.07600
C 	C 	0.60910 0.73410 0.95760 -0.90900
H 	H 	0.62010 0.72130 0.00030 0.26800
H 	H 	0.58620 0.77400 0.95690 0.27500
H 	H 	0.64020 0.74450 0.93660 0.26800
C 	C 	0.52990 0.34350 0.56700 0.03600
C 	C 	0.53910 0.27690 0.53780 0.13500
C 	C 	0.57660 0.23190 0.56750 -0.24500
H 	H 	0.59460 0.24330 0.60630 0.08800
C 	C 	0.58750 0.16830 0.53820 0.23000
H 	H 	0.61370 0.13880 0.55710 -0.07500
C 	C 	0.56010 0.15050 0.48350 -0.40600
H 	H 	0.56730 0.10820 0.46550 0.16000
C 	C 	0.52140 0.19320 0.45310 0.37400
C 	C 	0.51150 0.25710 0.48050 -0.35200
H 	H 	0.48610 0.28690 0.46020 0.10300
C 	C 	0.48620 0.16910 0.39500 -0.85200
H 	H 	0.49840 0.12470 0.38230 0.25500
H 	H 	0.48840 0.20180 0.36170 0.23800
H 	H 	0.44960 0.16560 0.40440 0.25200
C 	C 	0.64130 0.42550 0.84720 0.03300
C 	C 	0.66500 0.49040 0.87320 0.14900
C 	C 	0.66430 0.54890 0.83470 -0.33400
H 	H 	0.64750 0.54710 0.79380 0.11700
C 	C 	0.68900 0.61070 0.85790 0.41100
C 	C 	0.71180 0.61020 0.91980 -0.41300
H 	H 	0.72800 0.65040 0.93650 0.14000
C 	C 	0.71160 0.55300 0.95720 0.25600
H 	H 	0.72720 0.55510 0.99860 -0.08900
C 	C 	0.68870 0.49310 0.93460 -0.28200
H 	H 	0.68890 0.45410 0.96010 0.09000
C 	C 	0.68720 0.67140 0.81430 -0.89000
H 	H 	0.70470 0.71020 0.83570 0.25400
H 	H 	0.65040 0.68300 0.80090 0.26800
H 	H 	0.70540 0.65990 0.77840 0.25700
C 	C 	0.84920 0.40370 0.96480 0.05200
C 	C 	0.84430 0.46080 0.92020 0.09000
C 	C 	0.85970 0.53060 0.93810 -0.32400
H 	H 	0.87410 0.53880 0.97930 0.05700
C 	C 	0.85420 0.58420 0.89820 0.32800
C 	C 	0.83410 0.56950 0.83600 -0.31900
H 	H 	0.82920 0.60520 0.80680 0.10000
C 	C 	0.82130 0.50080 0.81740 0.12400
H 	H 	0.81090 0.49060 0.77540 -0.03800
C 	C 	0.82430 0.45030 0.86090 -0.21000
H 	H 	0.81180 0.40640 0.84910 0.06700
C 	C 	0.86770 0.65750 0.91630 -0.81900
H 	H 	0.88140 0.65930 0.95990 0.21500
H 	H 	0.83590 0.68550 0.90960 0.24000
H 	H 	0.89440 0.67470 0.89120 0.22900
C 	C 	0.03290 0.36140 0.25770 0.00500
C 	C 	0.05000 0.36950 0.32540 0.19900
C 	C 	0.03420 0.42600 0.35790 -0.34500
H 	H 	0.01110 0.45890 0.33810 0.10200
C 	C 	0.05370 0.43290 0.42130 0.34400
H 	H 	0.04390 0.47110 0.44400 -0.10800
C 	C 	0.08680 0.38440 0.44980 -0.54300
H 	H 	0.09870 0.38960 0.49220 0.19600
C 	C 	0.10240 0.33030 0.41970 0.52800
C 	C 	0.08220 0.32060 0.35650 -0.44300
H 	H 	0.09080 0.28050 0.33570 0.13800
C 	C 	0.13930 0.27820 0.45480 -0.99100
H 	H 	0.14850 0.29380 0.49710 0.29200
H 	H 	0.17150 0.27350 0.43430 0.27800
H 	H 	0.12140 0.23430 0.45520 0.28700
C 	C 	0.13680 0.59290 0.35040 -0.00500
C 	C 	0.16720 0.53480 0.38030 0.29800
C 	C 	0.19110 0.53920 0.44040 -0.44000
H 	H 	0.18560 0.57810 0.46440 0.14100
C 	C 	0.22280 0.48710 0.46550 0.44000
H 	H 	0.23930 0.49060 0.50640 -0.15200
C 	C 	0.23050 0.42870 0.43010 -0.65400
H 	H 	0.25230 0.39320 0.44760 0.22400
C 	C 	0.20690 0.42230 0.37010 0.70300
C 	C 	0.17510 0.47440 0.34600 -0.56800
H 	H 	0.15790 0.47010 0.30550 0.19900
C 	C 	0.21770 0.36200 0.33150 -1.27100
H 	H 	0.19810 0.36660 0.29070 0.38000
H 	H 	0.20640 0.32070 0.35120 0.36800
H 	H 	0.25550 0.35950 0.32730 0.37200
C 	C 	0.68210 0.15240 0.04280 0.07700
C 	C 	0.69730 0.12840 0.11010 0.07400
C 	C 	0.72620 0.16790 0.15620 -0.22600
H 	H 	0.73900 0.21140 0.14630 0.07000
C 	C 	0.73610 0.14260 0.21710 0.22800
C 	C 	0.71710 0.07760 0.23180 -0.25300
H 	H 	0.72380 0.06060 0.27250 0.11200
C 	C 	0.68820 0.03800 0.18570 0.11200
H 	H 	0.67550 0.99460 0.19550 -0.04600
C 	C 	0.67830 0.06340 0.12480 -0.17300
H 	H 	0.65900 0.03700 0.09390 0.07100
C 	C 	0.77490 0.19300 0.26310 -0.60700
H 	H 	0.78060 0.17290 0.30420 0.17200
H 	H 	0.75810 0.23750 0.26560 0.17200
H 	H 	0.80890 0.19840 0.24640 0.19400
N 	N 	0.49000 0.68920 0.73820 -0.16600
N 	N 	0.47890 0.67520 0.67640 -0.14600
N 	N 	0.49680 0.61420 0.66500 -0.13900
N 	N 	0.51880 0.58540 0.71920 -0.16500
N 	N 	0.52020 0.40320 0.53520 -0.16300
N 	N 	0.51740 0.45130 0.58100 -0.13300
N 	N 	0.52570 0.42230 0.63540 -0.13200
N 	N 	0.53380 0.35350 0.62940 -0.16000
N 	N 	0.60160 0.41770 0.80080 -0.15700
N 	N 	0.59400 0.34890 0.79380 -0.13400
N 	N 	0.62770 0.31530 0.83370 -0.13300
N 	N 	0.65890 0.36200 0.86810 -0.15600
N 	N 	0.81950 0.34870 0.95990 -0.16300
N 	N 	0.83830 0.30830 0.00780 -0.13900
N 	N 	0.87830 0.34080 0.04000 -0.14900
N 	N 	0.88690 0.39950 0.01440 -0.19300
N 	N 	0.03420 0.41090 0.21640 -0.16500
N 	N 	0.01490 0.38300 0.16140 -0.17000
N 	N 	0.00350 0.31810 0.17020 -0.15000
N 	N 	0.01470 0.30220 0.23240 -0.16800
N 	N 	0.14280 0.65660 0.37380 -0.15200
N 	N 	0.10930 0.69710 0.33590 -0.14600
N 	N 	0.08540 0.65820 0.29080 -0.13300
N 	N 	0.10200 0.59410 0.29930 -0.14900
N 	N 	0.64040 0.14850 0.00030 -0.11700
N 	N 	0.64880 0.19640 0.95860 -0.12600
N 	N 	0.69350 0.22630 0.97490 -0.12200
N 	N 	0.71650 0.19920 0.02840 -0.16700
Ag	Ag	0.02115 0.93605 0.43958 0.25200
C 	C 	0.98520 0.15830 0.42540 0.04500
C 	C 	0.97230 0.22800 0.44870 0.10000
C 	C 	0.99560 0.25020 0.50790 -0.29600
H 	H 	0.01980 0.22230 0.53230 0.07200
C 	C 	0.98130 0.31560 0.52930 0.29700
C 	C 	0.94330 0.35380 0.49220 -0.33300
H 	H 	0.93300 0.39670 0.50660 0.12900
C 	C 	0.92010 0.33040 0.43440 0.17100
H 	H 	0.89510 0.35730 0.41010 -0.06300
C 	C 	0.93450 0.26790 0.41390 -0.22500
H 	H 	0.91860 0.25140 0.37560 0.07300
C 	C 	0.01120 0.34280 0.59120 -0.72500
H 	H 	0.99770 0.38780 0.60030 0.22000
H 	H 	0.00560 0.31160 0.62480 0.19600
H 	H 	0.04900 0.34590 0.58690 0.21300
N 	N 	0.00040 0.10380 0.46080 -0.20000
N 	N 	0.00530 0.05140 0.41850 -0.19000
N 	N 	0.99530 0.07500 0.36250 -0.13700
N 	N 	0.98310 0.14340 0.36410 -0.16700
Ag	Ag	0.06928 0.97930 0.44327 0.37700
Ag	Ag	0.97042 0.91280 0.43647 0.36800
Ag	Ag	0.01057 0.70635 0.22355 0.48300
Ag	Ag	0.94103 0.01842 0.26549 0.48900
Ag	Ag	0.26666 0.82836 0.57470 0.49400
Ag	Ag	0.40656 0.71858 0.62524 0.49900
Ag	Ag	0.46281 0.78686 0.78454 0.48600
Ag	Ag	0.44675 0.98102 0.76947 0.49700
Ag	Ag	0.50875 0.06715 0.93398 0.48300
Ag	Ag	0.80548 0.21268 0.05199 0.49400
Ag	Ag	0.07831 0.79205 0.37751 0.47300
C 	C 	0.48600 0.13360 0.73620 0.01900
C 	C 	0.46720 0.12590 0.67040 0.14000
C 	C 	0.44130 0.18030 0.63790 -0.37000
H 	H 	0.43730 0.22190 0.65880 0.11300
C 	C 	0.42140 0.17470 0.57560 0.43200
C 	C 	0.42890 0.11330 0.54560 -0.40300
H 	H 	0.41460 0.10820 0.50400 0.15000
C 	C 	0.45690 0.05900 0.57470 0.23300
H 	H 	0.46300 0.01890 0.55250 -0.06900
C 	C 	0.47590 0.06490 0.63770 -0.25900
H 	H 	0.49440 0.02830 0.65820 0.07700
C 	C 	0.39090 0.23410 0.54240 -0.91200
H 	H 	0.37990 0.22130 0.49970 0.27000
H 	H 	0.41380 0.27400 0.54310 0.27600
H 	H 	0.35980 0.24450 0.56340 0.26900
C 	C 	0.47010 0.84350 0.93300 0.03600
C 	C 	0.46090 0.77690 0.96220 0.13500
C 	C 	0.42340 0.73190 0.93250 -0.24500
H 	H 	0.40540 0.74330 0.89370 0.08800
C 	C 	0.41250 0.66830 0.96180 0.22900
H 	H 	0.38630 0.63880 0.94290 -0.07500
C 	C 	0.43990 0.65050 0.01650 -0.40600
H 	H 	0.43270 0.60820 0.03450 0.16000
C 	C 	0.47860 0.69320 0.04690 0.37400
C 	C 	0.48850 0.75710 0.01950 -0.35200
H 	H 	0.51390 0.78690 0.03980 0.10300
C 	C 	0.51380 0.66910 0.10500 -0.85100
H 	H 	0.50160 0.62470 0.11770 0.25500
H 	H 	0.51160 0.70180 0.13830 0.23800
H 	H 	0.55040 0.66560 0.09560 0.25200
C 	C 	0.35870 0.92550 0.65280 0.03300
C 	C 	0.33500 0.99040 0.62680 0.14900
C 	C 	0.33570 0.04890 0.66530 -0.33400
H 	H 	0.35250 0.04710 0.70620 0.11700
C 	C 	0.31100 0.11070 0.64210 0.41100
C 	C 	0.28820 0.11020 0.58020 -0.41400
H 	H 	0.27200 0.15040 0.56350 0.14000
C 	C 	0.28840 0.05300 0.54280 0.25900
H 	H 	0.27280 0.05510 0.50140 -0.09000
C 	C 	0.31130 0.99310 0.56540 -0.28500
H 	H 	0.31110 0.95410 0.53990 0.09100
C 	C 	0.31280 0.17140 0.68570 -0.89000
H 	H 	0.29530 0.21020 0.66430 0.25400
H 	H 	0.34960 0.18300 0.69910 0.26800
H 	H 	0.29460 0.15990 0.72160 0.25700
C 	C 	0.15080 0.90370 0.53520 0.04900
C 	C 	0.15570 0.96080 0.57980 0.09400
C 	C 	0.14030 0.03060 0.56190 -0.32600
H 	H 	0.12590 0.03880 0.52070 0.05800
C 	C 	0.14580 0.08420 0.60180 0.33300
C 	C 	0.16590 0.06950 0.66400 -0.32700
H 	H 	0.17080 0.10520 0.69320 0.10300
C 	C 	0.17870 0.00080 0.68260 0.13800
H 	H 	0.18910 0.99060 0.72460 -0.04400
C 	C 	0.17570 0.95030 0.63910 -0.22100
H 	H 	0.18820 0.90640 0.65090 0.07100
C 	C 	0.13230 0.15750 0.58370 -0.82300
H 	H 	0.11860 0.15930 0.54010 0.21600
H 	H 	0.16410 0.18550 0.59040 0.24100
H 	H 	0.10560 0.17470 0.60880 0.23000
C 	C 	0.96710 0.86140 0.24230 0.00600
C 	C 	0.95000 0.86950 0.17460 0.19900
C 	C 	0.96580 0.92600 0.14210 -0.34400
H 	H 	0.98890 0.95890 0.16190 0.10300
C 	C 	0.94630 0.93290 0.07870 0.34300
H 	H 	0.95610 0.97110 0.05600 -0.10700
C 	C 	0.91320 0.88440 0.05020 -0.54200
H 	H 	0.90130 0.88960 0.00780 0.19600
C 	C 	0.89760 0.83030 0.08030 0.52600
C 	C 	0.91780 0.82060 0.14350 -0.44200
H 	H 	0.90920 0.78050 0.16430 0.13700
C 	C 	0.86070 0.77820 0.04520 -0.98900
H 	H 	0.85150 0.79380 0.00290 0.29100
H 	H 	0.82850 0.77350 0.06570 0.27700
H 	H 	0.87860 0.73430 0.04480 0.28600
C 	C 	0.86320 0.09290 0.14960 -0.00400
C 	C 	0.83280 0.03480 0.11970 0.29400
C 	C 	0.80890 0.03920 0.05960 -0.43800
H 	H 	0.81440 0.07810 0.03560 0.14000
C 	C 	0.77720 0.98710 0.03450 0.43700
H 	H 	0.76070 0.99060 0.99360 -0.15000
C 	C 	0.76950 0.92870 0.06990 -0.65000
H 	H 	0.74770 0.89320 0.05240 0.22300
C 	C 	0.79310 0.92230 0.12990 0.69800
C 	C 	0.82490 0.97440 0.15400 -0.56200
H 	H 	0.84210 0.97010 0.19450 0.19800
C 	C 	0.78230 0.86200 0.16850 -1.26400
H 	H 	0.80190 0.86660 0.20930 0.37800
H 	H 	0.79360 0.82070 0.14880 0.36600
H 	H 	0.74450 0.85950 0.17270 0.37000
C 	C 	0.31790 0.65240 0.45720 0.07700
C 	C 	0.30270 0.62840 0.38990 0.07600
C 	C 	0.27380 0.66790 0.34380 -0.22800
H 	H 	0.26100 0.71140 0.35370 0.07100
C 	C 	0.26390 0.64260 0.28290 0.23000
C 	C 	0.28290 0.57760 0.26820 -0.25600
H 	H 	0.27620 0.56060 0.22750 0.11400
C 	C 	0.31180 0.53800 0.31430 0.11600
H 	H 	0.32450 0.49460 0.30450 -0.04800
C 	C 	0.32170 0.56340 0.37520 -0.17500
H 	H 	0.34100 0.53700 0.40610 0.07200
C 	C 	0.22510 0.69300 0.23690 -0.60900
H 	H 	0.21940 0.67290 0.19580 0.17300
H 	H 	0.24190 0.73750 0.23440 0.17200
H 	H 	0.19110 0.69840 0.25360 0.19400
N 	N 	0.51000 0.18920 0.76180 -0.16600
N 	N 	0.52110 0.17520 0.82360 -0.14600
N 	N 	0.50320 0.11420 0.83500 -0.13900
N 	N 	0.48120 0.08540 0.78080 -0.16500
N 	N 	0.47980 0.90320 0.96480 -0.16300
N 	N 	0.48260 0.95130 0.91900 -0.13300
N 	N 	0.47430 0.92230 0.86460 -0.13200
N 	N 	0.46620 0.85350 0.87060 -0.16000
N 	N 	0.39840 0.91770 0.69920 -0.15700
N 	N 	0.40600 0.84890 0.70620 -0.13400
N 	N 	0.37230 0.81530 0.66630 -0.13300
N 	N 	0.34110 0.86200 0.63190 -0.15600
N 	N 	0.18050 0.84870 0.54010 -0.16300
N 	N 	0.16170 0.80830 0.49220 -0.13900
N 	N 	0.12170 0.84080 0.46000 -0.14900
N 	N 	0.11310 0.89950 0.48560 -0.19200
N 	N 	0.96580 0.91090 0.28360 -0.16500
N 	N 	0.98510 0.88300 0.33860 -0.16900
N 	N 	0.99650 0.81810 0.32980 -0.15100
N 	N 	0.98530 0.80220 0.26760 -0.16900
N 	N 	0.85720 0.15660 0.12620 -0.15200
N 	N 	0.89070 0.19710 0.16410 -0.14600
N 	N 	0.91460 0.15820 0.20920 -0.13300
N 	N 	0.89800 0.09410 0.20070 -0.14900
N 	N 	0.35960 0.64850 0.49970 -0.11700
N 	N 	0.35120 0.69640 0.54140 -0.12600
N 	N 	0.30650 0.72630 0.52510 -0.12200
N 	N 	0.28350 0.69920 0.47160 -0.16600
Ag	Ag	0.97885 0.43605 0.06042 0.25300
C 	C 	0.01480 0.65830 0.07460 0.04900
C 	C 	0.02770 0.72800 0.05130 0.09500
C 	C 	0.00440 0.75020 0.99210 -0.28900
H 	H 	0.98020 0.72230 0.96770 0.07100
C 	C 	0.01870 0.81560 0.97070 0.28200
C 	C 	0.05670 0.85380 0.00780 -0.31900
H 	H 	0.06700 0.89670 0.99340 0.12300
C 	C 	0.07990 0.83040 0.06560 0.16000
H 	H 	0.10490 0.85730 0.08990 -0.05900
C 	C 	0.06550 0.76790 0.08610 -0.21700
H 	H 	0.08140 0.75140 0.12440 0.07000
C 	C 	0.98880 0.84280 0.90880 -0.69700
H 	H 	0.00230 0.88780 0.89970 0.21000
H 	H 	0.99440 0.81160 0.87520 0.18900
H 	H 	0.95100 0.84590 0.91310 0.20600
N 	N 	0.99960 0.60380 0.03920 -0.20200
N 	N 	0.99470 0.55140 0.08150 -0.19300
N 	N 	0.00470 0.57500 0.13750 -0.13500
N 	N 	0.01690 0.64340 0.13590 -0.16800
Ag	Ag	0.93072 0.47930 0.05673 0.37800
Ag	Ag	0.02958 0.41280 0.06353 0.36800
Ag	Ag	0.01057 0.79365 0.72355 0.48300
Ag	Ag	0.94103 0.48158 0.76549 0.49000
Ag	Ag	0.26666 0.67164 0.07470 0.49400
Ag	Ag	0.40656 0.78142 0.12524 0.49900
Ag	Ag	0.46281 0.71314 0.28454 0.48600
Ag	Ag	0.44675 0.51898 0.26947 0.49700
Ag	Ag	0.50875 0.43285 0.43398 0.48300
Ag	Ag	0.80548 0.28732 0.55199 0.49400
Ag	Ag	0.07831 0.70795 0.87751 0.47300
C 	C 	0.48600 0.36640 0.23620 0.01900
C 	C 	0.46720 0.37410 0.17040 0.13900
C 	C 	0.44130 0.31970 0.13790 -0.36900
H 	H 	0.43730 0.27810 0.15880 0.11300
C 	C 	0.42140 0.32530 0.07560 0.43100
C 	C 	0.42890 0.38670 0.04560 -0.40200
H 	H 	0.41460 0.39180 0.00400 0.15000
C 	C 	0.45690 0.44100 0.07470 0.23200
H 	H 	0.46300 0.48110 0.05250 -0.06900
C 	C 	0.47590 0.43510 0.13770 -0.25900
H 	H 	0.49440 0.47170 0.15820 0.07600
C 	C 	0.39090 0.26590 0.04240 -0.90900
H 	H 	0.37990 0.27870 0.99970 0.26800
H 	H 	0.41380 0.22600 0.04310 0.27500
H 	H 	0.35980 0.25550 0.06340 0.26800
C 	C 	0.47010 0.65650 0.43300 0.03600
C 	C 	0.46090 0.72310 0.46220 0.13500
C 	C 	0.42340 0.76810 0.43250 -0.24500
H 	H 	0.40540 0.75670 0.39370 0.08800
C 	C 	0.41250 0.83170 0.46180 0.23000
H 	H 	0.38630 0.86120 0.44290 -0.07500
C 	C 	0.43990 0.84950 0.51650 -0.40600
H 	H 	0.43270 0.89180 0.53450 0.16000
C 	C 	0.47860 0.80680 0.54690 0.37400
C 	C 	0.48850 0.74290 0.51950 -0.35200
H 	H 	0.51390 0.71310 0.53980 0.10300
C 	C 	0.51380 0.83090 0.60500 -0.85200
H 	H 	0.50160 0.87530 0.61770 0.25500
H 	H 	0.51160 0.79820 0.63830 0.23800
H 	H 	0.55040 0.83440 0.59560 0.25200
C 	C 	0.35870 0.57450 0.15280 0.03300
C 	C 	0.33500 0.50960 0.12680 0.14900
C 	C 	0.33570 0.45110 0.16530 -0.33400
H 	H 	0.35250 0.45290 0.20620 0.11700
C 	C 	0.31100 0.38930 0.14210 0.41100
C 	C 	0.28820 0.38980 0.08020 -0.41300
H 	H 	0.27200 0.34960 0.06350 0.14000
C 	C 	0.28840 0.44700 0.04280 0.25600
H 	H 	0.27280 0.44490 0.00140 -0.08900
C 	C 	0.31130 0.50690 0.06540 -0.28200
H 	H 	0.31110 0.54590 0.03990 0.09000
C 	C 	0.31280 0.32860 0.18570 -0.89000
H 	H 	0.29530 0.28980 0.16430 0.25400
H 	H 	0.34960 0.31700 0.19910 0.26800
H 	H 	0.29460 0.34010 0.22160 0.25700
C 	C 	0.15080 0.59630 0.03520 0.05200
C 	C 	0.15570 0.53920 0.07980 0.09000
C 	C 	0.14030 0.46940 0.06190 -0.32400
H 	H 	0.12590 0.46120 0.02070 0.05700
C 	C 	0.14580 0.41580 0.10180 0.32800
C 	C 	0.16590 0.43050 0.16400 -0.31900
H 	H 	0.17080 0.39480 0.19320 0.10000
C 	C 	0.17870 0.49920 0.18260 0.12400
H 	H 	0.18910 0.50940 0.22460 -0.03800
C 	C 	0.17570 0.54970 0.13910 -0.21000
H 	H 	0.18820 0.59360 0.15090 0.06700
C 	C 	0.13230 0.34250 0.08370 -0.81900
H 	H 	0.11860 0.34070 0.04010 0.21500
H 	H 	0.16410 0.31450 0.09040 0.24000
H 	H 	0.10560 0.32530 0.10880 0.22900
C 	C 	0.96710 0.63860 0.74230 0.00500
C 	C 	0.95000 0.63050 0.67460 0.19900
C 	C 	0.96580 0.57400 0.64210 -0.34500
H 	H 	0.98890 0.54110 0.66190 0.10200
C 	C 	0.94630 0.56710 0.57870 0.34400
H 	H 	0.95610 0.52890 0.55600 -0.10800
C 	C 	0.91320 0.61560 0.55020 -0.54300
H 	H 	0.90130 0.61040 0.50780 0.19600
C 	C 	0.89760 0.66970 0.58030 0.52800
C 	C 	0.91780 0.67940 0.64350 -0.44300
H 	H 	0.90920 0.71950 0.66430 0.13800
C 	C 	0.86070 0.72180 0.54520 -0.99100
H 	H 	0.85150 0.70620 0.50290 0.29200
H 	H 	0.82850 0.72650 0.56570 0.27800
H 	H 	0.87860 0.76570 0.54480 0.28700
C 	C 	0.86320 0.40710 0.64960 -0.00500
C 	C 	0.83280 0.46520 0.61970 0.29800
C 	C 	0.80890 0.46080 0.55960 -0.44000
H 	H 	0.81440 0.42190 0.53560 0.14100
C 	C 	0.77720 0.51290 0.53450 0.44000
H 	H 	0.76070 0.50940 0.49360 -0.15200
C 	C 	0.76950 0.57130 0.56990 -0.65400
H 	H 	0.74770 0.60680 0.55240 0.22400
C 	C 	0.79310 0.57770 0.62990 0.70300
C 	C 	0.82490 0.52560 0.65400 -0.56800
H 	H 	0.84210 0.52990 0.69450 0.19900
C 	C 	0.78230 0.63800 0.66850 -1.27100
H 	H 	0.80190 0.63340 0.70930 0.38000
H 	H 	0.79360 0.67930 0.64880 0.36800
H 	H 	0.74450 0.64050 0.67270 0.37200
C 	C 	0.31790 0.84760 0.95720 0.07700
C 	C 	0.30270 0.87160 0.88990 0.07400
C 	C 	0.27380 0.83210 0.84380 -0.22600
H 	H 	0.26100 0.78860 0.85370 0.07000
C 	C 	0.26390 0.85740 0.78290 0.22800
C 	C 	0.28290 0.92240 0.76820 -0.25300
H 	H 	0.27620 0.93940 0.72750 0.11200
C 	C 	0.31180 0.96200 0.81430 0.11200
H 	H 	0.32450 0.00540 0.80450 -0.04600
C 	C 	0.32170 0.93660 0.87520 -0.17300
H 	H 	0.34100 0.96300 0.90610 0.07100
C 	C 	0.22510 0.80700 0.73690 -0.60700
H 	H 	0.21940 0.82710 0.69580 0.17200
H 	H 	0.24190 0.76250 0.73440 0.17200
H 	H 	0.19110 0.80160 0.75360 0.19400
N 	N 	0.51000 0.31080 0.26180 -0.16600
N 	N 	0.52110 0.32480 0.32360 -0.14600
N 	N 	0.50320 0.38580 0.33500 -0.13900
N 	N 	0.48120 0.41460 0.28080 -0.16500
N 	N 	0.47980 0.59680 0.46480 -0.16300
N 	N 	0.48260 0.54870 0.41900 -0.13300
N 	N 	0.47430 0.57770 0.36460 -0.13200
N 	N 	0.46620 0.64650 0.37060 -0.16000
N 	N 	0.39840 0.58230 0.19920 -0.15700
N 	N 	0.40600 0.65110 0.20620 -0.13400
N 	N 	0.37230 0.68470 0.16630 -0.13300
N 	N 	0.34110 0.63800 0.13190 -0.15600
N 	N 	0.18050 0.65130 0.04010 -0.16300
N 	N 	0.16170 0.69170 0.99220 -0.13900
N 	N 	0.12170 0.65920 0.96000 -0.14900
N 	N 	0.11310 0.60050 0.98560 -0.19300
N 	N 	0.96580 0.58910 0.78360 -0.16500
N 	N 	0.98510 0.61700 0.83860 -0.17000
N 	N 	0.99650 0.68190 0.82980 -0.15000
N 	N 	0.98530 0.69780 0.76760 -0.16800
N 	N 	0.85720 0.34340 0.62620 -0.15200
N 	N 	0.89070 0.30290 0.66410 -0.14600
N 	N 	0.91460 0.34180 0.70920 -0.13300
N 	N 	0.89800 0.40590 0.70070 -0.14900
N 	N 	0.35960 0.85150 0.99970 -0.11700
N 	N 	0.35120 0.80360 0.04140 -0.12600
N 	N 	0.30650 0.77370 0.02510 -0.12200
N 	N 	0.28350 0.80080 0.97160 -0.16700
Ag	Ag	0.97885 0.06395 0.56042 0.25200
C 	C 	0.01480 0.84170 0.57460 0.04500
C 	C 	0.02770 0.77200 0.55130 0.10000
C 	C 	0.00440 0.74980 0.49210 -0.29600
H 	H 	0.98020 0.77770 0.46770 0.07200
C 	C 	0.01870 0.68440 0.47070 0.29700
C 	C 	0.05670 0.64620 0.50780 -0.33300
H 	H 	0.06700 0.60330 0.49340 0.12900
C 	C 	0.07990 0.66960 0.56560 0.17100
H 	H 	0.10490 0.64270 0.58990 -0.06300
C 	C 	0.06550 0.73210 0.58610 -0.22500
H 	H 	0.08140 0.74860 0.62440 0.07300
C 	C 	0.98880 0.65720 0.40880 -0.72500
H 	H 	0.00230 0.61220 0.39970 0.22000
H 	H 	0.99440 0.68840 0.37520 0.19600
H 	H 	0.95100 0.65410 0.41310 0.21300
N 	N 	0.99960 0.89620 0.53920 -0.20000
N 	N 	0.99470 0.94860 0.58150 -0.19000
N 	N 	0.00470 0.92500 0.63750 -0.13700
N 	N 	0.01690 0.85660 0.63590 -0.16700
Ag	Ag	0.93072 0.02070 0.55673 0.37700
Ag	Ag	0.02958 0.08720 0.56353 0.36800
Ag	Ag	0.98943 0.29365 0.77645 0.48300
Ag	Ag	0.05897 0.98158 0.73451 0.48900
Ag	Ag	0.73334 0.17164 0.42530 0.49400
Ag	Ag	0.59344 0.28142 0.37476 0.49900
Ag	Ag	0.53719 0.21314 0.21546 0.48600
Ag	Ag	0.55325 0.01898 0.23053 0.49700
Ag	Ag	0.49125 0.93285 0.06602 0.48300
Ag	Ag	0.19452 0.78732 0.94801 0.49400
Ag	Ag	0.92169 0.20795 0.62249 0.47300
C 	C 	0.51400 0.86640 0.26380 0.01900
C 	C 	0.53280 0.87410 0.32960 0.14000
C 	C 	0.55870 0.81970 0.36210 -0.37000
H 	H 	0.56270 0.77810 0.34120 0.11300
C 	C 	0.57860 0.82530 0.42440 0.43200
C 	C 	0.57110 0.88670 0.45440 -0.40300
H 	H 	0.58540 0.89180 0.49600 0.15000
C 	C 	0.54310 0.94100 0.42530 0.23300
H 	H 	0.53700 0.98110 0.44750 -0.06900
C 	C 	0.52410 0.93510 0.36230 -0.25900
H 	H 	0.50560 0.97170 0.34180 0.07700
C 	C 	0.60910 0.76590 0.45760 -0.91200
H 	H 	0.62010 0.77870 0.50030 0.27000
H 	H 	0.58620 0.72600 0.45690 0.27600
H 	H 	0.64020 0.75550 0.43660 0.26900
C 	C 	0.52990 0.15650 0.06700 0.03600
C 	C 	0.53910 0.22310 0.03780 0.13500
C 	C 	0.57660 0.26810 0.06750 -0.24500
H 	H 	0.59460 0.25670 0.10630 0.08800
C 	C 	0.58750 0.33170 0.03820 0.22900
H 	H 	0.61370 0.36120 0.05710 -0.07500
C 	C 	0.56010 0.34950 0.98350 -0.40600
H 	H 	0.56730 0.39180 0.96550 0.16000
C 	C 	0.52140 0.30680 0.95310 0.37400
C 	C 	0.51150 0.24290 0.98050 -0.35200
H 	H 	0.48610 0.21310 0.96020 0.10300
C 	C 	0.48620 0.33090 0.89500 -0.85100
H 	H 	0.49840 0.37530 0.88230 0.25500
H 	H 	0.48840 0.29820 0.86170 0.23800
H 	H 	0.44960 0.33440 0.90440 0.25200
C 	C 	0.64130 0.07450 0.34720 0.03300
C 	C 	0.66500 0.00960 0.37320 0.14900
C 	C 	0.66430 0.95110 0.33470 -0.33400
H 	H 	0.64750 0.95290 0.29380 0.11700
C 	C 	0.68900 0.88930 0.35790 0.41100
C 	C 	0.71180 0.88980 0.41980 -0.41400
H 	H 	0.72800 0.84960 0.43650 0.14000
C 	C 	0.71160 0.94700 0.45720 0.25900
H 	H 	0.72720 0.94490 0.49860 -0.09000
C 	C 	0.68870 0.00690 0.43460 -0.28500
H 	H 	0.68890 0.04590 0.46010 0.09100
C 	C 	0.68720 0.82860 0.31430 -0.89000
H 	H 	0.70470 0.78980 0.33570 0.25400
H 	H 	0.65040 0.81700 0.30090 0.26800
H 	H 	0.70540 0.84010 0.27840 0.25700
C 	C 	0.84920 0.09630 0.46480 0.04900
C 	C 	0.84430 0.03920 0.42020 0.09400
C 	C 	0.85970 0.96940 0.43810 -0.32600
H 	H 	0.87410 0.96120 0.47930 0.05800
C 	C 	0.85420 0.91580 0.39820 0.33300
C 	C 	0.83410 0.93050 0.33600 -0.32700
H 	H 	0.82920 0.89480 0.30680 0.10300
C 	C 	0.82130 0.99920 0.31740 0.13800
H 	H 	0.81090 0.00940 0.27540 -0.04400
C 	C 	0.82430 0.04970 0.36090 -0.22100
H 	H 	0.81180 0.09360 0.34910 0.07100
C 	C 	0.86770 0.84250 0.41630 -0.82300
H 	H 	0.88140 0.84070 0.45990 0.21600
H 	H 	0.83590 0.81450 0.40960 0.24100
H 	H 	0.89440 0.82530 0.39120 0.23000
C 	C 	0.03290 0.13860 0.75770 0.00600
C 	C 	0.05000 0.13050 0.82540 0.19900
C 	C 	0.03420 0.07400 0.85790 -0.34400
H 	H 	0.01110 0.04110 0.83810 0.10300
C 	C 	0.05370 0.06710 0.92130 0.34300
H 	H 	0.04390 0.02890 0.94400 -0.10700
C 	C 	0.08680 0.11560 0.94980 -0.54200
H 	H 	0.09870 0.11040 0.99220 0.19600
C 	C 	0.10240 0.16970 0.91970 0.52600
C 	C 	0.08220 0.17940 0.85650 -0.44200
H 	H 	0.09080 0.21950 0.83570 0.13700
C 	C 	0.13930 0.22180 0.95480 -0.98900
H 	H 	0.14850 0.20620 0.99710 0.29100
H 	H 	0.17150 0.22650 0.93430 0.27700
H 	H 	0.12140 0.26570 0.95520 0.28600
C 	C 	0.13680 0.90710 0.85040 -0.00400
C 	C 	0.16720 0.96520 0.88030 0.29400
C 	C 	0.19110 0.96080 0.94040 -0.43800
H 	H 	0.18560 0.92190 0.96440 0.14000
C 	C 	0.22280 0.01290 0.96550 0.43700
H 	H 	0.23930 0.00940 0.00640 -0.15000
C 	C 	0.23050 0.07130 0.93010 -0.65000
H 	H 	0.25230 0.10680 0.94760 0.22300
C 	C 	0.20690 0.07770 0.87010 0.69800
C 	C 	0.17510 0.02560 0.84600 -0.56200
H 	H 	0.15790 0.02990 0.80550 0.19800
C 	C 	0.21770 0.13800 0.83150 -1.26400
H 	H 	0.19810 0.13340 0.79070 0.37800
H 	H 	0.20640 0.17930 0.85120 0.36600
H 	H 	0.25550 0.14050 0.82730 0.37000
C 	C 	0.68210 0.34760 0.54280 0.07700
C 	C 	0.69730 0.37160 0.61010 0.07600
C 	C 	0.72620 0.33210 0.65620 -0.22800
H 	H 	0.73900 0.28860 0.64630 0.07100
C 	C 	0.73610 0.35740 0.71710 0.23000
C 	C 	0.71710 0.42240 0.73180 -0.25600
H 	H 	0.72380 0.43940 0.77250 0.11400
C 	C 	0.68820 0.46200 0.68570 0.11600
H 	H 	0.67550 0.50540 0.69550 -0.04800
C 	C 	0.67830 0.43660 0.62480 -0.17500
H 	H 	0.65900 0.46300 0.59390 0.07200
C 	C 	0.77490 0.30700 0.76310 -0.60900
H 	H 	0.78060 0.32710 0.80420 0.17300
H 	H 	0.75810 0.26250 0.76560 0.17200
H 	H 	0.80890 0.30160 0.74640 0.19400
N 	N 	0.49000 0.81080 0.23820 -0.16600
N 	N 	0.47890 0.82480 0.17640 -0.14600
N 	N 	0.49680 0.88580 0.16500 -0.13900
N 	N 	0.51880 0.91460 0.21920 -0.16500
N 	N 	0.52020 0.09680 0.03520 -0.16300
N 	N 	0.51740 0.04870 0.08100 -0.13300
N 	N 	0.52570 0.07770 0.13540 -0.13200
N 	N 	0.53380 0.14650 0.12940 -0.16000
N 	N 	0.60160 0.08230 0.30080 -0.15700
N 	N 	0.59400 0.15110 0.29380 -0.13400
N 	N 	0.62770 0.18470 0.33370 -0.13300
N 	N 	0.65890 0.13800 0.36810 -0.15600
N 	N 	0.81950 0.15130 0.45990 -0.16300
N 	N 	0.83830 0.19170 0.50780 -0.13900
N 	N 	0.87830 0.15920 0.54000 -0.14900
N 	N 	0.88690 0.10050 0.51440 -0.19200
N 	N 	0.03420 0.08910 0.71640 -0.16500
N 	N 	0.01490 0.11700 0.66140 -0.16900
N 	N 	0.00350 0.18190 0.67020 -0.15100
N 	N 	0.01470 0.19780 0.73240 -0.16900
N 	N 	0.14280 0.84340 0.87380 -0.15200
N 	N 	0.10930 0.80290 0.83590 -0.14600
N 	N 	0.08540 0.84180 0.79080 -0.13300
N 	N 	0.10200 0.90590 0.79930 -0.14900
N 	N 	0.64040 0.35150 0.50030 -0.11700
N 	N 	0.64880 0.30360 0.45860 -0.12600
N 	N 	0.69350 0.27370 0.47490 -0.12200
N 	N 	0.71650 0.30080 0.52840 -0.16600
Ag	Ag	0.02115 0.56395 0.93958 0.25300
C 	C 	0.98520 0.34170 0.92540 0.04900
C 	C 	0.97230 0.27200 0.94870 0.09500
C 	C 	0.99560 0.24980 0.00790 -0.28900
H 	H 	0.01980 0.27770 0.03230 0.07100
C 	C 	0.98130 0.18440 0.02930 0.28200
C 	C 	0.94330 0.14620 0.99220 -0.31900
H 	H 	0.93300 0.10330 0.00660 0.12300
C 	C 	0.92010 0.16960 0.93440 0.16000
H 	H 	0.89510 0.14270 0.91010 -0.05900
C 	C 	0.93450 0.23210 0.91390 -0.21700
H 	H 	0.91860 0.24860 0.87560 0.07000
C 	C 	0.01120 0.15720 0.09120 -0.69700
H 	H 	0.99770 0.11220 0.10030 0.21000
H 	H 	0.00560 0.18840 0.12480 0.18900
H 	H 	0.04900 0.15410 0.08690 0.20600
N 	N 	0.00040 0.39620 0.96080 -0.20200
N 	N 	0.00530 0.44860 0.91850 -0.19300
N 	N 	0.99530 0.42500 0.86250 -0.13500
N 	N 	0.98310 0.35660 0.86410 -0.16800
Ag	Ag	0.06928 0.52070 0.94327 0.37800
Ag	Ag	0.97042 0.58720 0.93647 0.36800
