data_crystal

_cell_length_a 20.27600
_cell_length_b 20.27600
_cell_length_c 20.27600
_cell_angle_alpha 90.00000
_cell_angle_beta  90.00000
_cell_angle_gamma 90.00000

_symmetry_space_group_name_	'P 1'
_symmetry_space_group_name_H-M	'P 1'

loop_
_symmetry_equiv_pos_as_xyz
  x,y,z

loop_
_atom_site_label
_atom_site_type_symbol
_atom_site_fract_x
_atom_site_fract_y
_atom_site_fract_z
_atom_site_charge
Cu	Cu	0.84507 0.60641 0.86090 0.93100
Cu	Cu	0.72956 0.50424 0.94778 0.92900
C 	C 	0.69050 0.70620 0.96870 -0.11100
H 	H 	0.66700 0.69170 0.00840 0.08900
C 	C 	0.64210 0.73190 0.91670 -0.03200
H 	H 	0.62950 0.69500 0.88810 0.06500
C 	C 	0.73170 0.80660 0.91820 -0.03900
H 	H 	0.77410 0.80160 0.89540 0.08200
C 	C 	0.73360 0.76760 0.98340 -0.08700
H 	H 	0.71060 0.79400 0.01680 0.07500
C 	C 	0.72830 0.64870 0.93730 0.39200
C 	C 	0.57920 0.76310 0.94410 0.33300
C 	C 	0.71820 0.87920 0.92950 0.33900
C 	C 	0.80230 0.75120 0.01060 0.37400
O 	O 	0.77926 0.66140 0.90547 -0.40400
O 	O 	0.70156 0.59384 0.94550 -0.42600
O 	O 	0.76250 0.90990 0.95970 -0.37200
O 	O 	0.66534 0.90474 0.90972 -0.39600
O 	O 	0.56065 0.81743 0.92112 -0.39100
O 	O 	0.54763 0.73030 0.98590 -0.36000
O 	O 	0.80064 0.71100 0.05842 -0.40900
O 	O 	0.85143 0.77806 0.98717 -0.39300
O 	O 	0.68027 0.77780 0.87839 -0.20400
Cu	Cu	0.65493 0.39359 0.36090 0.93100
Cu	Cu	0.77044 0.49576 0.44778 0.93000
C 	C 	0.80950 0.29380 0.46870 -0.11000
H 	H 	0.83300 0.30830 0.50840 0.09200
C 	C 	0.85790 0.26810 0.41670 -0.03100
H 	H 	0.87050 0.30500 0.38810 0.06600
C 	C 	0.76830 0.19340 0.41820 -0.03400
H 	H 	0.72590 0.19840 0.39540 0.08200
C 	C 	0.76640 0.23240 0.48340 -0.09800
H 	H 	0.78940 0.20600 0.51680 0.08200
C 	C 	0.77170 0.35130 0.43730 0.39300
C 	C 	0.92080 0.23690 0.44410 0.33400
C 	C 	0.78180 0.12080 0.42950 0.33900
C 	C 	0.69770 0.24880 0.51060 0.38700
O 	O 	0.72074 0.33860 0.40547 -0.40300
O 	O 	0.79844 0.40616 0.44550 -0.42600
O 	O 	0.73750 0.09010 0.45970 -0.37400
O 	O 	0.83466 0.09526 0.40972 -0.39700
O 	O 	0.93935 0.18257 0.42112 -0.39200
O 	O 	0.95237 0.26970 0.48590 -0.36100
O 	O 	0.69936 0.28900 0.55842 -0.41000
O 	O 	0.64857 0.22194 0.48717 -0.40000
O 	O 	0.81973 0.22220 0.37839 -0.20300
Cu	Cu	0.15493 0.10641 0.63910 0.93200
Cu	Cu	0.27044 0.00424 0.55222 0.93000
C 	C 	0.30950 0.20620 0.53130 -0.11000
H 	H 	0.33300 0.19170 0.49160 0.09200
C 	C 	0.35790 0.23190 0.58330 -0.03100
H 	H 	0.37050 0.19500 0.61190 0.06600
C 	C 	0.26830 0.30660 0.58180 -0.03400
H 	H 	0.22590 0.30160 0.60460 0.08100
C 	C 	0.26640 0.26760 0.51660 -0.09800
H 	H 	0.28940 0.29400 0.48320 0.08200
C 	C 	0.27170 0.14870 0.56270 0.39300
C 	C 	0.42080 0.26310 0.55590 0.33300
C 	C 	0.28180 0.37920 0.57050 0.33900
C 	C 	0.19770 0.25120 0.48940 0.38700
O 	O 	0.22074 0.16140 0.59453 -0.40300
O 	O 	0.29844 0.09384 0.55450 -0.42600
O 	O 	0.23750 0.40990 0.54030 -0.37400
O 	O 	0.33466 0.40474 0.59028 -0.39600
O 	O 	0.43935 0.31743 0.57888 -0.39100
O 	O 	0.45237 0.23030 0.51410 -0.36000
O 	O 	0.19936 0.21100 0.44158 -0.41000
O 	O 	0.14857 0.27806 0.51283 -0.40000
O 	O 	0.31973 0.27780 0.62161 -0.20300
Cu	Cu	0.34507 0.89359 0.13910 0.93100
Cu	Cu	0.22956 0.99576 0.05222 0.92700
C 	C 	0.19050 0.79380 0.03130 -0.11000
H 	H 	0.16700 0.80830 0.99160 0.09200
C 	C 	0.14210 0.76810 0.08330 -0.03100
H 	H 	0.12950 0.80500 0.11190 0.06600
C 	C 	0.23170 0.69340 0.08180 -0.03400
H 	H 	0.27410 0.69840 0.10460 0.08100
C 	C 	0.23360 0.73240 0.01660 -0.09700
H 	H 	0.21060 0.70600 0.98320 0.08200
C 	C 	0.22830 0.85130 0.06270 0.39300
C 	C 	0.07920 0.73690 0.05590 0.33400
C 	C 	0.21820 0.62080 0.07050 0.33900
C 	C 	0.30230 0.74880 0.98940 0.38800
O 	O 	0.27926 0.83860 0.09453 -0.40300
O 	O 	0.20156 0.90616 0.05450 -0.42700
O 	O 	0.26250 0.59010 0.04030 -0.37300
O 	O 	0.16534 0.59526 0.09028 -0.39600
O 	O 	0.06065 0.68257 0.07888 -0.39000
O 	O 	0.04763 0.76970 0.01410 -0.36000
O 	O 	0.30064 0.78900 0.94158 -0.41000
O 	O 	0.35143 0.72194 0.01283 -0.40000
O 	O 	0.18027 0.72220 0.12161 -0.20300
Cu	Cu	0.86090 0.84507 0.60641 0.93200
Cu	Cu	0.94778 0.72956 0.50424 0.93000
C 	C 	0.96870 0.69050 0.70620 -0.11000
H 	H 	0.00840 0.66700 0.69170 0.09000
C 	C 	0.91670 0.64210 0.73190 -0.03100
H 	H 	0.88810 0.62950 0.69500 0.06600
C 	C 	0.91820 0.73170 0.80660 -0.03800
H 	H 	0.89540 0.77410 0.80160 0.08300
C 	C 	0.98340 0.73360 0.76760 -0.08600
H 	H 	0.01680 0.71060 0.79400 0.07600
C 	C 	0.93730 0.72830 0.64870 0.39300
C 	C 	0.94410 0.57920 0.76310 0.33400
C 	C 	0.92950 0.71820 0.87920 0.34000
C 	C 	0.01060 0.80230 0.75120 0.37500
O 	O 	0.90547 0.77926 0.66140 -0.40300
O 	O 	0.94550 0.70156 0.59384 -0.42500
O 	O 	0.95970 0.76250 0.90990 -0.37100
O 	O 	0.90972 0.66534 0.90474 -0.39500
O 	O 	0.92112 0.56065 0.81743 -0.39000
O 	O 	0.98590 0.54763 0.73030 -0.35900
O 	O 	0.05842 0.80064 0.71100 -0.40800
O 	O 	0.98717 0.85143 0.77806 -0.39200
O 	O 	0.87839 0.68027 0.77780 -0.20300
Cu	Cu	0.36090 0.65493 0.39359 0.93200
Cu	Cu	0.44778 0.77044 0.49576 0.93000
C 	C 	0.46870 0.80950 0.29380 -0.11000
H 	H 	0.50840 0.83300 0.30830 0.09200
C 	C 	0.41670 0.85790 0.26810 -0.03100
H 	H 	0.38810 0.87050 0.30500 0.06600
C 	C 	0.41820 0.76830 0.19340 -0.03400
H 	H 	0.39540 0.72590 0.19840 0.08200
C 	C 	0.48340 0.76640 0.23240 -0.09800
H 	H 	0.51680 0.78940 0.20600 0.08200
C 	C 	0.43730 0.77170 0.35130 0.39300
C 	C 	0.44410 0.92080 0.23690 0.33400
C 	C 	0.42950 0.78180 0.12080 0.33900
C 	C 	0.51060 0.69770 0.24880 0.38700
O 	O 	0.40547 0.72074 0.33860 -0.40300
O 	O 	0.44550 0.79844 0.40616 -0.42600
O 	O 	0.45970 0.73750 0.09010 -0.37400
O 	O 	0.40972 0.83466 0.09526 -0.39700
O 	O 	0.42112 0.93935 0.18257 -0.39200
O 	O 	0.48590 0.95237 0.26970 -0.36100
O 	O 	0.55842 0.69936 0.28900 -0.41000
O 	O 	0.48717 0.64857 0.22194 -0.40000
O 	O 	0.37839 0.81973 0.22220 -0.20300
Cu	Cu	0.63910 0.15493 0.10641 0.93200
Cu	Cu	0.55222 0.27044 0.00424 0.93000
C 	C 	0.53130 0.30950 0.20620 -0.11000
H 	H 	0.49160 0.33300 0.19170 0.09200
C 	C 	0.58330 0.35790 0.23190 -0.03100
H 	H 	0.61190 0.37050 0.19500 0.06600
C 	C 	0.58180 0.26830 0.30660 -0.03400
H 	H 	0.60460 0.22590 0.30160 0.08100
C 	C 	0.51660 0.26640 0.26760 -0.09800
H 	H 	0.48320 0.28940 0.29400 0.08200
C 	C 	0.56270 0.27170 0.14870 0.39300
C 	C 	0.55590 0.42080 0.26310 0.33300
C 	C 	0.57050 0.28180 0.37920 0.33900
C 	C 	0.48940 0.19770 0.25120 0.38700
O 	O 	0.59453 0.22074 0.16140 -0.40300
O 	O 	0.55450 0.29844 0.09384 -0.42600
O 	O 	0.54030 0.23750 0.40990 -0.37400
O 	O 	0.59028 0.33466 0.40474 -0.39600
O 	O 	0.57888 0.43935 0.31743 -0.39100
O 	O 	0.51410 0.45237 0.23030 -0.36000
O 	O 	0.44158 0.19936 0.21100 -0.41000
O 	O 	0.51283 0.14857 0.27806 -0.40000
O 	O 	0.62161 0.31973 0.27780 -0.20300
Cu	Cu	0.13910 0.34507 0.89359 0.93100
Cu	Cu	0.05222 0.22956 0.99576 0.92700
C 	C 	0.03130 0.19050 0.79380 -0.11000
H 	H 	0.99160 0.16700 0.80830 0.09200
C 	C 	0.08330 0.14210 0.76810 -0.03100
H 	H 	0.11190 0.12950 0.80500 0.06600
C 	C 	0.08180 0.23170 0.69340 -0.03400
H 	H 	0.10460 0.27410 0.69840 0.08100
C 	C 	0.01660 0.23360 0.73240 -0.09700
H 	H 	0.98320 0.21060 0.70600 0.08200
C 	C 	0.06270 0.22830 0.85130 0.39300
C 	C 	0.05590 0.07920 0.73690 0.33400
C 	C 	0.07050 0.21820 0.62080 0.33900
C 	C 	0.98940 0.30230 0.74880 0.38800
O 	O 	0.09453 0.27926 0.83860 -0.40300
O 	O 	0.05450 0.20156 0.90616 -0.42700
O 	O 	0.04030 0.26250 0.59010 -0.37300
O 	O 	0.09028 0.16534 0.59526 -0.39600
O 	O 	0.07888 0.06065 0.68257 -0.39000
O 	O 	0.01410 0.04763 0.76970 -0.36000
O 	O 	0.94158 0.30064 0.78900 -0.41000
O 	O 	0.01283 0.35143 0.72194 -0.40000
O 	O 	0.12161 0.18027 0.72220 -0.20300
Cu	Cu	0.60641 0.86090 0.84507 0.93200
Cu	Cu	0.50424 0.94778 0.72956 0.93000
C 	C 	0.70620 0.96870 0.69050 -0.11000
H 	H 	0.69170 0.00840 0.66700 0.09000
C 	C 	0.73190 0.91670 0.64210 -0.03100
H 	H 	0.69500 0.88810 0.62950 0.06600
C 	C 	0.80660 0.91820 0.73170 -0.03800
H 	H 	0.80160 0.89540 0.77410 0.08300
C 	C 	0.76760 0.98340 0.73360 -0.08600
H 	H 	0.79400 0.01680 0.71060 0.07600
C 	C 	0.64870 0.93730 0.72830 0.39300
C 	C 	0.76310 0.94410 0.57920 0.33400
C 	C 	0.87920 0.92950 0.71820 0.34000
C 	C 	0.75120 0.01060 0.80230 0.37500
O 	O 	0.66140 0.90547 0.77926 -0.40300
O 	O 	0.59384 0.94550 0.70156 -0.42500
O 	O 	0.90990 0.95970 0.76250 -0.37100
O 	O 	0.90474 0.90972 0.66534 -0.39500
O 	O 	0.81743 0.92112 0.56065 -0.39000
O 	O 	0.73030 0.98590 0.54763 -0.35900
O 	O 	0.71100 0.05842 0.80064 -0.40800
O 	O 	0.77806 0.98717 0.85143 -0.39200
O 	O 	0.77780 0.87839 0.68027 -0.20300
Cu	Cu	0.39359 0.36090 0.65493 0.93200
Cu	Cu	0.49576 0.44778 0.77044 0.93000
C 	C 	0.29380 0.46870 0.80950 -0.11000
H 	H 	0.30830 0.50840 0.83300 0.09200
C 	C 	0.26810 0.41670 0.85790 -0.03100
H 	H 	0.30500 0.38810 0.87050 0.06600
C 	C 	0.19340 0.41820 0.76830 -0.03400
H 	H 	0.19840 0.39540 0.72590 0.08200
C 	C 	0.23240 0.48340 0.76640 -0.09800
H 	H 	0.20600 0.51680 0.78940 0.08200
C 	C 	0.35130 0.43730 0.77170 0.39300
C 	C 	0.23690 0.44410 0.92080 0.33400
C 	C 	0.12080 0.42950 0.78180 0.33900
C 	C 	0.24880 0.51060 0.69770 0.38700
O 	O 	0.33860 0.40547 0.72074 -0.40300
O 	O 	0.40616 0.44550 0.79844 -0.42600
O 	O 	0.09010 0.45970 0.73750 -0.37400
O 	O 	0.09526 0.40972 0.83466 -0.39700
O 	O 	0.18257 0.42112 0.93935 -0.39200
O 	O 	0.26970 0.48590 0.95237 -0.36100
O 	O 	0.28900 0.55842 0.69936 -0.41000
O 	O 	0.22194 0.48717 0.64857 -0.40000
O 	O 	0.22220 0.37839 0.81973 -0.20300
Cu	Cu	0.10641 0.63910 0.15493 0.93200
Cu	Cu	0.00424 0.55222 0.27044 0.93000
C 	C 	0.20620 0.53130 0.30950 -0.11000
H 	H 	0.19170 0.49160 0.33300 0.09200
C 	C 	0.23190 0.58330 0.35790 -0.03100
H 	H 	0.19500 0.61190 0.37050 0.06600
C 	C 	0.30660 0.58180 0.26830 -0.03400
H 	H 	0.30160 0.60460 0.22590 0.08100
C 	C 	0.26760 0.51660 0.26640 -0.09800
H 	H 	0.29400 0.48320 0.28940 0.08200
C 	C 	0.14870 0.56270 0.27170 0.39300
C 	C 	0.26310 0.55590 0.42080 0.33300
C 	C 	0.37920 0.57050 0.28180 0.33900
C 	C 	0.25120 0.48940 0.19770 0.38700
O 	O 	0.16140 0.59453 0.22074 -0.40300
O 	O 	0.09384 0.55450 0.29844 -0.42600
O 	O 	0.40990 0.54030 0.23750 -0.37400
O 	O 	0.40474 0.59028 0.33466 -0.39600
O 	O 	0.31743 0.57888 0.43935 -0.39100
O 	O 	0.23030 0.51410 0.45237 -0.36000
O 	O 	0.21100 0.44158 0.19936 -0.41000
O 	O 	0.27806 0.51283 0.14857 -0.40000
O 	O 	0.27780 0.62161 0.31973 -0.20300
Cu	Cu	0.89359 0.13910 0.34507 0.93100
Cu	Cu	0.99576 0.05222 0.22956 0.92700
C 	C 	0.79380 0.03130 0.19050 -0.11000
H 	H 	0.80830 0.99160 0.16700 0.09200
C 	C 	0.76810 0.08330 0.14210 -0.03100
H 	H 	0.80500 0.11190 0.12950 0.06600
C 	C 	0.69340 0.08180 0.23170 -0.03400
H 	H 	0.69840 0.10460 0.27410 0.08100
C 	C 	0.73240 0.01660 0.23360 -0.09700
H 	H 	0.70600 0.98320 0.21060 0.08200
C 	C 	0.85130 0.06270 0.22830 0.39300
C 	C 	0.73690 0.05590 0.07920 0.33400
C 	C 	0.62080 0.07050 0.21820 0.33900
C 	C 	0.74880 0.98940 0.30230 0.38800
O 	O 	0.83860 0.09453 0.27926 -0.40300
O 	O 	0.90616 0.05450 0.20156 -0.42700
O 	O 	0.59010 0.04030 0.26250 -0.37300
O 	O 	0.59526 0.09028 0.16534 -0.39600
O 	O 	0.68257 0.07888 0.06065 -0.39000
O 	O 	0.76970 0.01410 0.04763 -0.36000
O 	O 	0.78900 0.94158 0.30064 -0.41000
O 	O 	0.72194 0.01283 0.35143 -0.40000
O 	O 	0.72220 0.12161 0.18027 -0.20300
Cu	Cu	0.15493 0.39359 0.13910 0.93200
Cu	Cu	0.27044 0.49576 0.05222 0.93000
C 	C 	0.30950 0.29380 0.03130 -0.11000
H 	H 	0.33300 0.30830 0.99160 0.09000
C 	C 	0.35790 0.26810 0.08330 -0.03100
H 	H 	0.37050 0.30500 0.11190 0.06600
C 	C 	0.26830 0.19340 0.08180 -0.03800
H 	H 	0.22590 0.19840 0.10460 0.08300
C 	C 	0.26640 0.23240 0.01660 -0.08600
H 	H 	0.28940 0.20600 0.98320 0.07600
C 	C 	0.27170 0.35130 0.06270 0.39300
C 	C 	0.42080 0.23690 0.05590 0.33400
C 	C 	0.28180 0.12080 0.07050 0.34000
C 	C 	0.19770 0.24880 0.98940 0.37500
O 	O 	0.22074 0.33860 0.09453 -0.40300
O 	O 	0.29844 0.40616 0.05450 -0.42500
O 	O 	0.23750 0.09010 0.04030 -0.37100
O 	O 	0.33466 0.09526 0.09028 -0.39500
O 	O 	0.43935 0.18257 0.07888 -0.39000
O 	O 	0.45237 0.26970 0.01410 -0.35900
O 	O 	0.19936 0.28900 0.94158 -0.40800
O 	O 	0.14857 0.22194 0.01283 -0.39200
O 	O 	0.31973 0.22220 0.12161 -0.20300
Cu	Cu	0.34507 0.60641 0.63910 0.93200
Cu	Cu	0.22956 0.50424 0.55222 0.93000
C 	C 	0.19050 0.70620 0.53130 -0.11000
H 	H 	0.16700 0.69170 0.49160 0.09200
C 	C 	0.14210 0.73190 0.58330 -0.03100
H 	H 	0.12950 0.69500 0.61190 0.06600
C 	C 	0.23170 0.80660 0.58180 -0.03400
H 	H 	0.27410 0.80160 0.60460 0.08200
C 	C 	0.23360 0.76760 0.51660 -0.09800
H 	H 	0.21060 0.79400 0.48320 0.08200
C 	C 	0.22830 0.64870 0.56270 0.39300
C 	C 	0.07920 0.76310 0.55590 0.33400
C 	C 	0.21820 0.87920 0.57050 0.33900
C 	C 	0.30230 0.75120 0.48940 0.38700
O 	O 	0.27926 0.66140 0.59453 -0.40300
O 	O 	0.20156 0.59384 0.55450 -0.42600
O 	O 	0.26250 0.90990 0.54030 -0.37400
O 	O 	0.16534 0.90474 0.59028 -0.39700
O 	O 	0.06065 0.81743 0.57888 -0.39200
O 	O 	0.04763 0.73030 0.51410 -0.36100
O 	O 	0.30064 0.71100 0.44158 -0.41000
O 	O 	0.35143 0.77806 0.51283 -0.40000
O 	O 	0.18027 0.77780 0.62161 -0.20300
Cu	Cu	0.84507 0.89359 0.36090 0.93200
Cu	Cu	0.72956 0.99576 0.44778 0.93000
C 	C 	0.69050 0.79380 0.46870 -0.11000
H 	H 	0.66700 0.80830 0.50840 0.09200
C 	C 	0.64210 0.76810 0.41670 -0.03100
H 	H 	0.62950 0.80500 0.38810 0.06600
C 	C 	0.73170 0.69340 0.41820 -0.03400
H 	H 	0.77410 0.69840 0.39540 0.08100
C 	C 	0.73360 0.73240 0.48340 -0.09800
H 	H 	0.71060 0.70600 0.51680 0.08200
C 	C 	0.72830 0.85130 0.43730 0.39300
C 	C 	0.57920 0.73690 0.44410 0.33300
C 	C 	0.71820 0.62080 0.42950 0.33900
C 	C 	0.80230 0.74880 0.51060 0.38700
O 	O 	0.77926 0.83860 0.40547 -0.40300
O 	O 	0.70156 0.90616 0.44550 -0.42600
O 	O 	0.76250 0.59010 0.45970 -0.37400
O 	O 	0.66534 0.59526 0.40972 -0.39600
O 	O 	0.56065 0.68257 0.42112 -0.39100
O 	O 	0.54763 0.76970 0.48590 -0.36000
O 	O 	0.80064 0.78900 0.55842 -0.41000
O 	O 	0.85143 0.72194 0.48717 -0.40000
O 	O 	0.68027 0.72220 0.37839 -0.20300
Cu	Cu	0.65493 0.10641 0.86090 0.93100
Cu	Cu	0.77044 0.00424 0.94778 0.92700
C 	C 	0.80950 0.20620 0.96870 -0.11000
H 	H 	0.83300 0.19170 0.00840 0.09200
C 	C 	0.85790 0.23190 0.91670 -0.03100
H 	H 	0.87050 0.19500 0.88810 0.06600
C 	C 	0.76830 0.30660 0.91820 -0.03400
H 	H 	0.72590 0.30160 0.89540 0.08100
C 	C 	0.76640 0.26760 0.98340 -0.09700
H 	H 	0.78940 0.29400 0.01680 0.08200
C 	C 	0.77170 0.14870 0.93730 0.39300
C 	C 	0.92080 0.26310 0.94410 0.33400
C 	C 	0.78180 0.37920 0.92950 0.33900
C 	C 	0.69770 0.25120 0.01060 0.38800
O 	O 	0.72074 0.16140 0.90547 -0.40300
O 	O 	0.79844 0.09384 0.94550 -0.42700
O 	O 	0.73750 0.40990 0.95970 -0.37300
O 	O 	0.83466 0.40474 0.90972 -0.39600
O 	O 	0.93935 0.31743 0.92112 -0.39000
O 	O 	0.95237 0.23030 0.98590 -0.36000
O 	O 	0.69936 0.21100 0.05842 -0.41000
O 	O 	0.64857 0.27806 0.98717 -0.40000
O 	O 	0.81973 0.27780 0.87839 -0.20300
Cu	Cu	0.13910 0.15493 0.39359 0.93200
Cu	Cu	0.05222 0.27044 0.49576 0.93000
C 	C 	0.03130 0.30950 0.29380 -0.11000
H 	H 	0.99160 0.33300 0.30830 0.09000
C 	C 	0.08330 0.35790 0.26810 -0.03100
H 	H 	0.11190 0.37050 0.30500 0.06600
C 	C 	0.08180 0.26830 0.19340 -0.03800
H 	H 	0.10460 0.22590 0.19840 0.08300
C 	C 	0.01660 0.26640 0.23240 -0.08600
H 	H 	0.98320 0.28940 0.20600 0.07600
C 	C 	0.06270 0.27170 0.35130 0.39300
C 	C 	0.05590 0.42080 0.23690 0.33400
C 	C 	0.07050 0.28180 0.12080 0.34000
C 	C 	0.98940 0.19770 0.24880 0.37500
O 	O 	0.09453 0.22074 0.33860 -0.40300
O 	O 	0.05450 0.29844 0.40616 -0.42500
O 	O 	0.04030 0.23750 0.09010 -0.37100
O 	O 	0.09028 0.33466 0.09526 -0.39500
O 	O 	0.07888 0.43935 0.18257 -0.39000
O 	O 	0.01410 0.45237 0.26970 -0.35900
O 	O 	0.94158 0.19936 0.28900 -0.40800
O 	O 	0.01283 0.14857 0.22194 -0.39200
O 	O 	0.12161 0.31973 0.22220 -0.20300
Cu	Cu	0.63910 0.34507 0.60641 0.93200
Cu	Cu	0.55222 0.22956 0.50424 0.93000
C 	C 	0.53130 0.19050 0.70620 -0.11000
H 	H 	0.49160 0.16700 0.69170 0.09200
C 	C 	0.58330 0.14210 0.73190 -0.03100
H 	H 	0.61190 0.12950 0.69500 0.06600
C 	C 	0.58180 0.23170 0.80660 -0.03400
H 	H 	0.60460 0.27410 0.80160 0.08200
C 	C 	0.51660 0.23360 0.76760 -0.09800
H 	H 	0.48320 0.21060 0.79400 0.08200
C 	C 	0.56270 0.22830 0.64870 0.39300
C 	C 	0.55590 0.07920 0.76310 0.33400
C 	C 	0.57050 0.21820 0.87920 0.33900
C 	C 	0.48940 0.30230 0.75120 0.38700
O 	O 	0.59453 0.27926 0.66140 -0.40300
O 	O 	0.55450 0.20156 0.59384 -0.42600
O 	O 	0.54030 0.26250 0.90990 -0.37400
O 	O 	0.59028 0.16534 0.90474 -0.39700
O 	O 	0.57888 0.06065 0.81743 -0.39200
O 	O 	0.51410 0.04763 0.73030 -0.36100
O 	O 	0.44158 0.30064 0.71100 -0.41000
O 	O 	0.51283 0.35143 0.77806 -0.40000
O 	O 	0.62161 0.18027 0.77780 -0.20300
Cu	Cu	0.36090 0.84507 0.89359 0.93200
Cu	Cu	0.44778 0.72956 0.99576 0.93000
C 	C 	0.46870 0.69050 0.79380 -0.11000
H 	H 	0.50840 0.66700 0.80830 0.09200
C 	C 	0.41670 0.64210 0.76810 -0.03100
H 	H 	0.38810 0.62950 0.80500 0.06600
C 	C 	0.41820 0.73170 0.69340 -0.03400
H 	H 	0.39540 0.77410 0.69840 0.08100
C 	C 	0.48340 0.73360 0.73240 -0.09800
H 	H 	0.51680 0.71060 0.70600 0.08200
C 	C 	0.43730 0.72830 0.85130 0.39300
C 	C 	0.44410 0.57920 0.73690 0.33300
C 	C 	0.42950 0.71820 0.62080 0.33900
C 	C 	0.51060 0.80230 0.74880 0.38700
O 	O 	0.40547 0.77926 0.83860 -0.40300
O 	O 	0.44550 0.70156 0.90616 -0.42600
O 	O 	0.45970 0.76250 0.59010 -0.37400
O 	O 	0.40972 0.66534 0.59526 -0.39600
O 	O 	0.42112 0.56065 0.68257 -0.39100
O 	O 	0.48590 0.54763 0.76970 -0.36000
O 	O 	0.55842 0.80064 0.78900 -0.41000
O 	O 	0.48717 0.85143 0.72194 -0.40000
O 	O 	0.37839 0.68027 0.72220 -0.20300
Cu	Cu	0.86090 0.65493 0.10641 0.93100
Cu	Cu	0.94778 0.77044 0.00424 0.92700
C 	C 	0.96870 0.80950 0.20620 -0.11000
H 	H 	0.00840 0.83300 0.19170 0.09200
C 	C 	0.91670 0.85790 0.23190 -0.03100
H 	H 	0.88810 0.87050 0.19500 0.06600
C 	C 	0.91820 0.76830 0.30660 -0.03400
H 	H 	0.89540 0.72590 0.30160 0.08100
C 	C 	0.98340 0.76640 0.26760 -0.09700
H 	H 	0.01680 0.78940 0.29400 0.08200
C 	C 	0.93730 0.77170 0.14870 0.39300
C 	C 	0.94410 0.92080 0.26310 0.33400
C 	C 	0.92950 0.78180 0.37920 0.33900
C 	C 	0.01060 0.69770 0.25120 0.38800
O 	O 	0.90547 0.72074 0.16140 -0.40300
O 	O 	0.94550 0.79844 0.09384 -0.42700
O 	O 	0.95970 0.73750 0.40990 -0.37300
O 	O 	0.90972 0.83466 0.40474 -0.39600
O 	O 	0.92112 0.93935 0.31743 -0.39000
O 	O 	0.98590 0.95237 0.23030 -0.36000
O 	O 	0.05842 0.69936 0.21100 -0.41000
O 	O 	0.98717 0.64857 0.27806 -0.40000
O 	O 	0.87839 0.81973 0.27780 -0.20300
Cu	Cu	0.39359 0.13910 0.15493 0.93200
Cu	Cu	0.49576 0.05222 0.27044 0.93000
C 	C 	0.29380 0.03130 0.30950 -0.11000
H 	H 	0.30830 0.99160 0.33300 0.09000
C 	C 	0.26810 0.08330 0.35790 -0.03100
H 	H 	0.30500 0.11190 0.37050 0.06600
C 	C 	0.19340 0.08180 0.26830 -0.03800
H 	H 	0.19840 0.10460 0.22590 0.08300
C 	C 	0.23240 0.01660 0.26640 -0.08600
H 	H 	0.20600 0.98320 0.28940 0.07600
C 	C 	0.35130 0.06270 0.27170 0.39300
C 	C 	0.23690 0.05590 0.42080 0.33400
C 	C 	0.12080 0.07050 0.28180 0.34000
C 	C 	0.24880 0.98940 0.19770 0.37500
O 	O 	0.33860 0.09453 0.22074 -0.40300
O 	O 	0.40616 0.05450 0.29844 -0.42500
O 	O 	0.09010 0.04030 0.23750 -0.37100
O 	O 	0.09526 0.09028 0.33466 -0.39500
O 	O 	0.18257 0.07888 0.43935 -0.39000
O 	O 	0.26970 0.01410 0.45237 -0.35900
O 	O 	0.28900 0.94158 0.19936 -0.40800
O 	O 	0.22194 0.01283 0.14857 -0.39200
O 	O 	0.22220 0.12161 0.31973 -0.20300
Cu	Cu	0.60641 0.63910 0.34507 0.93200
Cu	Cu	0.50424 0.55222 0.22956 0.93000
C 	C 	0.70620 0.53130 0.19050 -0.11000
H 	H 	0.69170 0.49160 0.16700 0.09200
C 	C 	0.73190 0.58330 0.14210 -0.03100
H 	H 	0.69500 0.61190 0.12950 0.06600
C 	C 	0.80660 0.58180 0.23170 -0.03400
H 	H 	0.80160 0.60460 0.27410 0.08200
C 	C 	0.76760 0.51660 0.23360 -0.09800
H 	H 	0.79400 0.48320 0.21060 0.08200
C 	C 	0.64870 0.56270 0.22830 0.39300
C 	C 	0.76310 0.55590 0.07920 0.33400
C 	C 	0.87920 0.57050 0.21820 0.33900
C 	C 	0.75120 0.48940 0.30230 0.38700
O 	O 	0.66140 0.59453 0.27926 -0.40300
O 	O 	0.59384 0.55450 0.20156 -0.42600
O 	O 	0.90990 0.54030 0.26250 -0.37400
O 	O 	0.90474 0.59028 0.16534 -0.39700
O 	O 	0.81743 0.57888 0.06065 -0.39200
O 	O 	0.73030 0.51410 0.04763 -0.36100
O 	O 	0.71100 0.44158 0.30064 -0.41000
O 	O 	0.77806 0.51283 0.35143 -0.40000
O 	O 	0.77780 0.62161 0.18027 -0.20300
Cu	Cu	0.89359 0.36090 0.84507 0.93200
Cu	Cu	0.99576 0.44778 0.72956 0.93000
C 	C 	0.79380 0.46870 0.69050 -0.11000
H 	H 	0.80830 0.50840 0.66700 0.09200
C 	C 	0.76810 0.41670 0.64210 -0.03100
H 	H 	0.80500 0.38810 0.62950 0.06600
C 	C 	0.69340 0.41820 0.73170 -0.03400
H 	H 	0.69840 0.39540 0.77410 0.08100
C 	C 	0.73240 0.48340 0.73360 -0.09800
H 	H 	0.70600 0.51680 0.71060 0.08200
C 	C 	0.85130 0.43730 0.72830 0.39300
C 	C 	0.73690 0.44410 0.57920 0.33300
C 	C 	0.62080 0.42950 0.71820 0.33900
C 	C 	0.74880 0.51060 0.80230 0.38700
O 	O 	0.83860 0.40547 0.77926 -0.40300
O 	O 	0.90616 0.44550 0.70156 -0.42600
O 	O 	0.59010 0.45970 0.76250 -0.37400
O 	O 	0.59526 0.40972 0.66534 -0.39600
O 	O 	0.68257 0.42112 0.56065 -0.39100
O 	O 	0.76970 0.48590 0.54763 -0.36000
O 	O 	0.78900 0.55842 0.80064 -0.41000
O 	O 	0.72194 0.48717 0.85143 -0.40000
O 	O 	0.72220 0.37839 0.68027 -0.20300
Cu	Cu	0.10641 0.86090 0.65493 0.93100
Cu	Cu	0.00424 0.94778 0.77044 0.92700
C 	C 	0.20620 0.96870 0.80950 -0.11000
H 	H 	0.19170 0.00840 0.83300 0.09200
C 	C 	0.23190 0.91670 0.85790 -0.03100
H 	H 	0.19500 0.88810 0.87050 0.06600
C 	C 	0.30660 0.91820 0.76830 -0.03400
H 	H 	0.30160 0.89540 0.72590 0.08100
C 	C 	0.26760 0.98340 0.76640 -0.09700
H 	H 	0.29400 0.01680 0.78940 0.08200
C 	C 	0.14870 0.93730 0.77170 0.39300
C 	C 	0.26310 0.94410 0.92080 0.33400
C 	C 	0.37920 0.92950 0.78180 0.33900
C 	C 	0.25120 0.01060 0.69770 0.38800
O 	O 	0.16140 0.90547 0.72074 -0.40300
O 	O 	0.09384 0.94550 0.79844 -0.42700
O 	O 	0.40990 0.95970 0.73750 -0.37300
O 	O 	0.40474 0.90972 0.83466 -0.39600
O 	O 	0.31743 0.92112 0.93935 -0.39000
O 	O 	0.23030 0.98590 0.95237 -0.36000
O 	O 	0.21100 0.05842 0.69936 -0.41000
O 	O 	0.27806 0.98717 0.64857 -0.40000
O 	O 	0.27780 0.87839 0.81973 -0.20300
