data_crystal

_cell_length_a 13.81900
_cell_length_b 15.38200
_cell_length_c 24.38300
_cell_angle_alpha 100.41000
_cell_angle_beta  95.25000
_cell_angle_gamma 101.09000

_symmetry_space_group_name_	'P 1'
_symmetry_space_group_name_H-M	'P 1'

loop_
_symmetry_equiv_pos_as_xyz
  x,y,z

loop_
_atom_site_label
_atom_site_type_symbol
_atom_site_fract_x
_atom_site_fract_y
_atom_site_fract_z
_atom_site_charge
Mn	Mn	0.17461 0.64356 0.32339 1.27400
Mn	Mn	0.36787 0.55613 0.27384 1.30000
Mn	Mn	0.60876 0.65409 0.32476 1.30300
Mn	Mn	0.81858 0.69837 0.26263 1.25400
Mn	Mn	0.82539 0.35644 0.67661 1.27400
Mn	Mn	0.63213 0.44387 0.72616 1.30000
Mn	Mn	0.39124 0.34591 0.67524 1.30400
Mn	Mn	0.18142 0.30163 0.73737 1.25500
H 	H 	0.28800 0.35300 0.31260 0.02700
H 	H 	0.26120 0.19960 0.31060 0.06200
H 	H 	0.98060 0.19600 0.33510 0.06300
H 	H 	0.00640 0.34780 0.33300 0.02500
H 	H 	0.23910 0.07710 0.35000 0.09000
H 	H 	0.21150 0.92500 0.34730 -0.00700
H 	H 	0.93280 0.89690 0.28440 -0.02500
H 	H 	0.95870 0.04970 0.28890 0.09000
H 	H 	0.22070 0.47510 0.10090 0.01700
H 	H 	0.13580 0.44400 0.01140 0.06600
H 	H 	0.93410 0.57600 0.06930 0.06500
H 	H 	0.02090 0.61170 0.15620 -0.00700
H 	H 	0.55050 0.76380 0.44260 0.01500
H 	H 	0.59030 0.89660 0.50850 0.07200
H 	H 	0.37030 0.98460 0.43450 0.06900
H 	H 	0.32720 0.85060 0.36990 0.01100
H 	H 	0.68610 0.58830 0.13540 -0.04200
H 	H 	0.65630 0.53260 0.03990 0.07800
H 	H 	0.37030 0.52110 0.04440 0.08200
H 	H 	0.39680 0.56520 0.13870 0.00100
H 	H 	0.69350 0.40730 0.31350 0.02300
H 	H 	0.74020 0.27260 0.31920 0.06900
H 	H 	0.45980 0.13870 0.26260 0.06900
H 	H 	0.41350 0.27250 0.25870 0.02300
H 	H 	0.75360 0.11660 0.26000 0.07400
H 	H 	0.78780 0.97720 0.26330 0.00900
H 	H 	0.55940 0.92540 0.34930 0.02600
H 	H 	0.52000 0.05990 0.34070 0.07700
H 	H 	0.76690 0.60180 0.48590 0.02500
H 	H 	0.86570 0.53090 0.53700 0.07000
H 	H 	0.03980 0.52210 0.41760 0.07200
H 	H 	0.93530 0.58250 0.36460 -0.00400
H 	H 	0.71200 0.64700 0.68740 0.02700
H 	H 	0.73880 0.80040 0.68940 0.06200
H 	H 	0.01940 0.80400 0.66490 0.06300
H 	H 	0.99360 0.65220 0.66700 0.02500
H 	H 	0.76090 0.92290 0.65000 0.09000
H 	H 	0.78850 0.07500 0.65270 -0.00700
H 	H 	0.06720 0.10310 0.71560 -0.02500
H 	H 	0.04130 0.95030 0.71110 0.09000
H 	H 	0.77930 0.52490 0.89910 0.01700
H 	H 	0.86420 0.55600 0.98860 0.06600
H 	H 	0.06590 0.42400 0.93070 0.06500
H 	H 	0.97910 0.38830 0.84380 -0.00700
H 	H 	0.44950 0.23620 0.55740 0.01500
H 	H 	0.40970 0.10340 0.49150 0.07200
H 	H 	0.62970 0.01540 0.56550 0.06900
H 	H 	0.67280 0.14940 0.63010 0.01100
H 	H 	0.31390 0.41170 0.86460 -0.04200
H 	H 	0.34370 0.46740 0.96010 0.07800
H 	H 	0.62970 0.47890 0.95560 0.08200
H 	H 	0.60320 0.43480 0.86130 0.00100
H 	H 	0.30650 0.59270 0.68650 0.02300
H 	H 	0.25980 0.72740 0.68080 0.06900
H 	H 	0.54020 0.86130 0.73740 0.06900
H 	H 	0.58650 0.72750 0.74130 0.02300
H 	H 	0.24640 0.88340 0.74000 0.07400
H 	H 	0.21220 0.02280 0.73670 0.00900
H 	H 	0.44060 0.07460 0.65070 0.02600
H 	H 	0.48000 0.94010 0.65930 0.07700
H 	H 	0.23310 0.39820 0.51410 0.02500
H 	H 	0.13430 0.46910 0.46300 0.07000
H 	H 	0.96020 0.47790 0.58240 0.07200
H 	H 	0.06470 0.41750 0.63540 -0.00400
C 	C 	0.14960 0.36680 0.32310 -0.13200
C 	C 	0.22520 0.32170 0.31650 0.03900
C 	C 	0.20880 0.22910 0.31540 -0.09800
C 	C 	0.11840 0.18050 0.32120 0.02100
C 	C 	0.04260 0.22650 0.32940 -0.10200
C 	C 	0.05900 0.31840 0.32900 0.04400
C 	C 	0.10140 0.08140 0.32010 0.10000
C 	C 	0.17590 0.04160 0.33690 -0.18200
C 	C 	0.15920 0.94960 0.33480 0.12800
C 	C 	0.06860 0.89340 0.31500 -0.22800
C 	C 	0.99560 0.93260 0.29820 0.13300
C 	C 	0.01150 0.02520 0.30080 -0.18100
C 	C 	0.16680 0.46620 0.32290 0.37400
C 	C 	0.05300 0.79270 0.31250 0.47500
C 	C 	0.13060 0.54850 0.13840 -0.15400
C 	C 	0.16360 0.49730 0.09440 0.06400
C 	C 	0.11230 0.47850 0.04060 -0.12700
C 	C 	0.02720 0.51000 0.02950 0.05300
C 	C 	0.99370 0.55730 0.07480 -0.14000
C 	C 	0.04480 0.57740 0.12710 0.07800
C 	C 	0.18630 0.56880 0.19670 0.41200
C 	C 	0.43470 0.79300 0.39914 -0.16100
C 	C 	0.51340 0.80790 0.44080 0.06700
C 	C 	0.53760 0.88820 0.48010 -0.12400
C 	C 	0.48630 0.95620 0.47850 0.05100
C 	C 	0.40700 0.94030 0.43650 -0.12500
C 	C 	0.38130 0.85990 0.39760 0.05600
C 	C 	0.40830 0.70860 0.35528 0.36400
C 	C 	0.54510 0.58460 0.14770 -0.21400
C 	C 	0.62110 0.57350 0.11740 0.12100
C 	C 	0.60300 0.54030 0.05960 -0.16700
C 	C 	0.50960 0.51870 0.03110 0.07200
C 	C 	0.43490 0.53230 0.06260 -0.16100
C 	C 	0.45080 0.56110 0.11900 0.11300
C 	C 	0.56370 0.61870 0.21008 0.44700
C 	C 	0.54850 0.35420 0.28880 -0.13200
C 	C 	0.64600 0.35340 0.30480 0.05100
C 	C 	0.67390 0.27240 0.30810 -0.11500
C 	C 	0.60510 0.19150 0.29520 0.03800
C 	C 	0.50640 0.19290 0.27450 -0.11600
C 	C 	0.47890 0.27250 0.27180 0.05000
C 	C 	0.63330 0.10400 0.30040 0.06100
C 	C 	0.71320 0.07750 0.27750 -0.13700
C 	C 	0.73460 0.99420 0.28000 0.06800
C 	C 	0.67710 0.93600 0.30730 -0.14700
C 	C 	0.59840 0.96320 0.33030 0.06900
C 	C 	0.57570 0.04460 0.32600 -0.13400
C 	C 	0.51730 0.44380 0.28930 0.40700
C 	C 	0.69450 0.84280 0.30860 0.40300
C 	C 	0.83890 0.59710 0.41960 -0.14700
C 	C 	0.82120 0.58380 0.47100 0.06500
C 	C 	0.88240 0.54330 0.50270 -0.12600
C 	C 	0.96700 0.52190 0.48350 0.05500
C 	C 	0.98380 0.53700 0.43200 -0.14200
C 	C 	0.92110 0.57370 0.40000 0.07200
C 	C 	0.76900 0.63580 0.38470 0.37600
C 	C 	0.85040 0.63320 0.67690 -0.13200
C 	C 	0.77480 0.67830 0.68350 0.03900
C 	C 	0.79120 0.77090 0.68460 -0.09800
C 	C 	0.88160 0.81950 0.67880 0.02100
C 	C 	0.95740 0.77350 0.67060 -0.10200
C 	C 	0.94100 0.68160 0.67100 0.04400
C 	C 	0.89860 0.91860 0.67990 0.10000
C 	C 	0.82410 0.95840 0.66310 -0.18200
C 	C 	0.84080 0.05040 0.66520 0.12800
C 	C 	0.93140 0.10660 0.68500 -0.22800
C 	C 	0.00440 0.06740 0.70180 0.13300
C 	C 	0.98850 0.97480 0.69920 -0.18100
C 	C 	0.83320 0.53380 0.67710 0.37400
C 	C 	0.94700 0.20730 0.68750 0.47500
C 	C 	0.86940 0.45150 0.86160 -0.15400
C 	C 	0.83640 0.50270 0.90560 0.06400
C 	C 	0.88770 0.52150 0.95940 -0.12700
C 	C 	0.97280 0.49000 0.97050 0.05300
C 	C 	0.00630 0.44270 0.92520 -0.14000
C 	C 	0.95520 0.42260 0.87290 0.07800
C 	C 	0.81370 0.43120 0.80330 0.41200
C 	C 	0.56530 0.20700 0.60086 -0.16100
C 	C 	0.48660 0.19210 0.55920 0.06700
C 	C 	0.46240 0.11180 0.51990 -0.12400
C 	C 	0.51370 0.04380 0.52150 0.05100
C 	C 	0.59300 0.05970 0.56350 -0.12500
C 	C 	0.61870 0.14010 0.60240 0.05600
C 	C 	0.59170 0.29140 0.64472 0.36400
C 	C 	0.45490 0.41540 0.85230 -0.21400
C 	C 	0.37890 0.42650 0.88260 0.12100
C 	C 	0.39700 0.45970 0.94040 -0.16700
C 	C 	0.49040 0.48130 0.96890 0.07200
C 	C 	0.56510 0.46770 0.93740 -0.16100
C 	C 	0.54920 0.43890 0.88100 0.11300
C 	C 	0.43630 0.38130 0.78992 0.44700
C 	C 	0.45150 0.64580 0.71120 -0.13200
C 	C 	0.35400 0.64660 0.69520 0.05100
C 	C 	0.32610 0.72760 0.69190 -0.11500
C 	C 	0.39490 0.80850 0.70480 0.03800
C 	C 	0.49360 0.80710 0.72550 -0.11600
C 	C 	0.52110 0.72750 0.72820 0.05000
C 	C 	0.36670 0.89600 0.69960 0.06100
C 	C 	0.28680 0.92250 0.72250 -0.13700
C 	C 	0.26540 0.00580 0.72000 0.06800
C 	C 	0.32290 0.06400 0.69270 -0.14700
C 	C 	0.40160 0.03680 0.66970 0.06900
C 	C 	0.42430 0.95540 0.67400 -0.13400
C 	C 	0.48270 0.55620 0.71070 0.40700
C 	C 	0.30550 0.15720 0.69140 0.40300
C 	C 	0.16110 0.40290 0.58040 -0.14700
C 	C 	0.17880 0.41620 0.52900 0.06500
C 	C 	0.11760 0.45670 0.49730 -0.12600
C 	C 	0.03300 0.47810 0.51650 0.05500
C 	C 	0.01620 0.46300 0.56800 -0.14200
C 	C 	0.07890 0.42630 0.60000 0.07200
C 	C 	0.23100 0.36420 0.61530 0.37600
O 	O 	0.25440 0.50890 0.32285 -0.52000
O 	O 	0.09570 0.50510 0.32382 -0.44600
O 	O 	0.12730 0.76410 0.32949 -0.49300
O 	O 	0.97100 0.74280 0.29470 -0.51900
O 	O 	0.26370 0.53850 0.20332 -0.46700
O 	O 	0.14930 0.61250 0.23488 -0.47000
O 	O 	0.33360 0.69480 0.31836 -0.52600
O 	O 	0.46280 0.64990 0.35432 -0.51800
O 	O 	0.49100 0.62570 0.23659 -0.52300
O 	O 	0.65090 0.63870 0.23444 -0.56200
O 	O 	0.58100 0.51250 0.31094 -0.47500
O 	O 	0.42960 0.44160 0.26880 -0.46100
O 	O 	0.63190 0.79170 0.32866 -0.46600
O 	O 	0.77010 0.82170 0.28773 -0.47000
O 	O 	0.69230 0.65420 0.40460 -0.40800
O 	O 	0.78530 0.64370 0.33571 -0.52800
O 	O 	0.74560 0.49110 0.67715 -0.52000
O 	O 	0.90430 0.49490 0.67618 -0.44600
O 	O 	0.87270 0.23590 0.67051 -0.49300
O 	O 	0.02900 0.25720 0.70530 -0.51900
O 	O 	0.73630 0.46150 0.79668 -0.46700
O 	O 	0.85070 0.38750 0.76512 -0.47000
O 	O 	0.66640 0.30520 0.68164 -0.52600
O 	O 	0.53720 0.35010 0.64568 -0.51800
O 	O 	0.50900 0.37430 0.76341 -0.52300
O 	O 	0.34910 0.36130 0.76556 -0.56200
O 	O 	0.41900 0.48750 0.68906 -0.47500
O 	O 	0.57040 0.55840 0.73120 -0.46100
O 	O 	0.36810 0.20830 0.67134 -0.46600
O 	O 	0.22990 0.17830 0.71227 -0.47000
O 	O 	0.30770 0.34580 0.59540 -0.40800
O 	O 	0.21470 0.35630 0.66429 -0.52800
