data_crystal

_cell_length_a 27.76800
_cell_length_b 7.90000
_cell_length_c 18.29800
_cell_angle_alpha 90.00000
_cell_angle_beta  108.32900
_cell_angle_gamma 90.00000

_symmetry_space_group_name_	'P 1'
_symmetry_space_group_name_H-M	'P 1'

loop_
_symmetry_equiv_pos_as_xyz
  x,y,z

loop_
_atom_site_label
_atom_site_type_symbol
_atom_site_fract_x
_atom_site_fract_y
_atom_site_fract_z
_atom_site_charge
Zn	Zn	0.04098 0.17319 0.19715 1.23600
C 	C 	0.08892 0.09000 0.97785 -0.00100
H 	H 	0.05650 0.06010 0.97780 0.07100
O 	O 	0.02387 0.94390 0.84830 -0.48300
O 	O 	0.08269 0.94460 0.78870 -0.46400
C 	C 	0.06728 0.97670 0.84495 0.40000
C 	C 	0.10345 0.05920 0.91342 -0.06000
N 	N 	0.23368 0.22260 0.97251 -0.08000
C 	C 	0.15197 0.10340 0.91352 -0.06600
H 	H 	0.16230 0.08260 0.87060 0.08900
O 	O 	0.06231 0.14760 0.10822 -0.43300
C 	C 	0.12245 0.16550 0.04284 -0.03600
C 	C 	0.18484 0.17920 0.97884 0.10700
O 	O 	0.02830 0.40520 0.21866 -0.34600
C 	C 	0.17062 0.21110 0.04299 -0.08200
H 	H 	0.19310 0.26270 0.08600 0.09400
O 	O 	0.13526 0.26550 0.16989 -0.28000
C 	C 	0.10667 0.19700 0.11288 0.32900
Zn	Zn	0.54098 0.67319 0.19715 1.23600
C 	C 	0.58892 0.59000 0.97785 -0.00000
H 	H 	0.55650 0.56010 0.97780 0.07100
O 	O 	0.52387 0.44390 0.84830 -0.48200
O 	O 	0.58269 0.44460 0.78870 -0.46300
C 	C 	0.56728 0.47670 0.84495 0.40100
C 	C 	0.60345 0.55920 0.91342 -0.06000
N 	N 	0.73368 0.72260 0.97251 -0.07900
C 	C 	0.65197 0.60340 0.91352 -0.06500
H 	H 	0.66230 0.58260 0.87060 0.09000
O 	O 	0.56231 0.64760 0.10822 -0.43200
C 	C 	0.62245 0.66550 0.04284 -0.03500
C 	C 	0.68484 0.67920 0.97884 0.10800
O 	O 	0.52830 0.90520 0.21866 -0.34600
C 	C 	0.67062 0.71110 0.04299 -0.08000
H 	H 	0.69310 0.76270 0.08600 0.09500
O 	O 	0.63526 0.76550 0.16989 -0.27900
C 	C 	0.60667 0.69700 0.11288 0.33000
Zn	Zn	0.95902 0.17319 0.30285 1.23700
C 	C 	0.91108 0.09000 0.52215 -0.00000
H 	H 	0.94350 0.06010 0.52220 0.07100
O 	O 	0.97613 0.94390 0.65170 -0.48300
O 	O 	0.91731 0.94460 0.71130 -0.46400
C 	C 	0.93272 0.97670 0.65505 0.40100
C 	C 	0.89655 0.05920 0.58658 -0.06000
N 	N 	0.76632 0.22260 0.52749 -0.07900
C 	C 	0.84803 0.10340 0.58648 -0.06500
H 	H 	0.83770 0.08260 0.62940 0.09000
O 	O 	0.93769 0.14760 0.39178 -0.43200
C 	C 	0.87755 0.16550 0.45716 -0.03500
C 	C 	0.81516 0.17920 0.52116 0.10800
O 	O 	0.97170 0.40520 0.28134 -0.34600
C 	C 	0.82938 0.21110 0.45701 -0.08000
H 	H 	0.80690 0.26270 0.41400 0.09500
O 	O 	0.86474 0.26550 0.33011 -0.27900
C 	C 	0.89333 0.19700 0.38712 0.33000
Zn	Zn	0.45902 0.67319 0.30285 1.23700
C 	C 	0.41108 0.59000 0.52215 -0.00000
H 	H 	0.44350 0.56010 0.52220 0.07100
O 	O 	0.47613 0.44390 0.65170 -0.48200
O 	O 	0.41731 0.44460 0.71130 -0.46300
C 	C 	0.43272 0.47670 0.65505 0.40100
C 	C 	0.39655 0.55920 0.58658 -0.06000
N 	N 	0.26632 0.72260 0.52749 -0.07900
C 	C 	0.34803 0.60340 0.58648 -0.06500
H 	H 	0.33770 0.58260 0.62940 0.09000
O 	O 	0.43769 0.64760 0.39178 -0.43200
C 	C 	0.37755 0.66550 0.45716 -0.03500
C 	C 	0.31516 0.67920 0.52116 0.10800
O 	O 	0.47170 0.90520 0.28134 -0.34600
C 	C 	0.32938 0.71110 0.45701 -0.08000
H 	H 	0.30690 0.76270 0.41400 0.09500
O 	O 	0.36474 0.76550 0.33011 -0.27900
C 	C 	0.39333 0.69700 0.38712 0.33000
Zn	Zn	0.95902 0.82681 0.80285 1.23700
C 	C 	0.91108 0.91000 0.02215 -0.00000
H 	H 	0.94350 0.93990 0.02220 0.07100
O 	O 	0.97613 0.05610 0.15170 -0.48200
O 	O 	0.91731 0.05540 0.21130 -0.46400
C 	C 	0.93272 0.02330 0.15505 0.40100
C 	C 	0.89655 0.94080 0.08658 -0.06000
N 	N 	0.76632 0.77740 0.02749 -0.07900
C 	C 	0.84803 0.89660 0.08648 -0.06500
H 	H 	0.83770 0.91740 0.12940 0.09000
O 	O 	0.93769 0.85240 0.89178 -0.43200
C 	C 	0.87755 0.83450 0.95716 -0.03600
C 	C 	0.81516 0.82080 0.02116 0.10800
O 	O 	0.97170 0.59480 0.78134 -0.34600
C 	C 	0.82938 0.78890 0.95701 -0.08000
H 	H 	0.80690 0.73730 0.91400 0.09500
O 	O 	0.86474 0.73450 0.83011 -0.27900
C 	C 	0.89333 0.80300 0.88712 0.33000
Zn	Zn	0.45902 0.32681 0.80285 1.23700
C 	C 	0.41108 0.41000 0.02215 -0.00000
H 	H 	0.44350 0.43990 0.02220 0.07100
O 	O 	0.47613 0.55610 0.15170 -0.48200
O 	O 	0.41731 0.55540 0.21130 -0.46300
C 	C 	0.43272 0.52330 0.15505 0.40100
C 	C 	0.39655 0.44080 0.08658 -0.06000
N 	N 	0.26632 0.27740 0.02749 -0.07900
C 	C 	0.34803 0.39660 0.08648 -0.06500
H 	H 	0.33770 0.41740 0.12940 0.09000
O 	O 	0.43769 0.35240 0.89178 -0.43200
C 	C 	0.37755 0.33450 0.95716 -0.03500
C 	C 	0.31516 0.32080 0.02116 0.10800
O 	O 	0.47170 0.09480 0.78134 -0.34600
C 	C 	0.32938 0.28890 0.95701 -0.08000
H 	H 	0.30690 0.23730 0.91400 0.09500
O 	O 	0.36474 0.23450 0.83011 -0.27900
C 	C 	0.39333 0.30300 0.88712 0.33000
Zn	Zn	0.04098 0.82681 0.69715 1.23700
C 	C 	0.08892 0.91000 0.47785 -0.00000
H 	H 	0.05650 0.93990 0.47780 0.07200
O 	O 	0.02387 0.05610 0.34830 -0.48200
O 	O 	0.08269 0.05540 0.28870 -0.46300
C 	C 	0.06728 0.02330 0.34495 0.40100
C 	C 	0.10345 0.94080 0.41342 -0.05900
N 	N 	0.23368 0.77740 0.47251 -0.07900
C 	C 	0.15197 0.89660 0.41352 -0.06500
H 	H 	0.16230 0.91740 0.37060 0.09000
O 	O 	0.06231 0.85240 0.60822 -0.43200
C 	C 	0.12245 0.83450 0.54284 -0.03500
C 	C 	0.18484 0.82080 0.47884 0.10800
O 	O 	0.02830 0.59480 0.71866 -0.34500
C 	C 	0.17062 0.78890 0.54299 -0.08000
H 	H 	0.19310 0.73730 0.58600 0.09500
O 	O 	0.13526 0.73450 0.66989 -0.27900
C 	C 	0.10667 0.80300 0.61288 0.33000
Zn	Zn	0.54098 0.32681 0.69715 1.23700
C 	C 	0.58892 0.41000 0.47785 -0.00000
H 	H 	0.55650 0.43990 0.47780 0.07100
O 	O 	0.52387 0.55610 0.34830 -0.48200
O 	O 	0.58269 0.55540 0.28870 -0.46300
C 	C 	0.56728 0.52330 0.34495 0.40100
C 	C 	0.60345 0.44080 0.41342 -0.06000
N 	N 	0.73368 0.27740 0.47251 -0.07900
C 	C 	0.65197 0.39660 0.41352 -0.06500
H 	H 	0.66230 0.41740 0.37060 0.09000
O 	O 	0.56231 0.35240 0.60822 -0.43200
C 	C 	0.62245 0.33450 0.54284 -0.03500
C 	C 	0.68484 0.32080 0.47884 0.10800
O 	O 	0.52830 0.09480 0.71866 -0.34600
C 	C 	0.67062 0.28890 0.54299 -0.08000
H 	H 	0.69310 0.23730 0.58600 0.09500
O 	O 	0.63526 0.23450 0.66989 -0.27900
C 	C 	0.60667 0.30300 0.61288 0.33000
N 	N 	0.00000 0.47490 0.25000 0.08700
O 	O 	-0.00000 0.66630 0.25000 -0.10400
N 	N 	0.50000 0.97490 0.25000 0.08600
O 	O 	0.50000 0.16630 0.25000 -0.10400
N 	N 	0.00000 0.52510 0.75000 0.08700
O 	O 	0.00000 0.33370 0.75000 -0.10400
N 	N 	0.50000 0.02510 0.75000 0.08600
O 	O 	0.50000 0.83370 0.75000 -0.10400
