data_crystal

_cell_length_a 9.83200
_cell_length_b 21.32180
_cell_length_c 13.79490
_cell_angle_alpha 90.00000
_cell_angle_beta  105.60200
_cell_angle_gamma 90.00000

_symmetry_space_group_name_	'P 1'
_symmetry_space_group_name_H-M	'P 1'

loop_
_symmetry_equiv_pos_as_xyz
  x,y,z

loop_
_atom_site_label
_atom_site_type_symbol
_atom_site_fract_x
_atom_site_fract_y
_atom_site_fract_z
_atom_site_charge
Nd	Nd	0.26124 0.01561 0.51486 2.09600
O 	O 	0.12360 0.10250 0.54520 -0.55700
O 	O 	0.90180 0.06996 0.51470 -0.56600
O 	O 	0.85150 0.39497 0.93910 -0.51000
O 	O 	0.06070 0.43800 0.94810 -0.60600
O 	O 	0.08900 0.02920 0.34150 -0.42700
O 	O 	0.28720 0.98020 0.34650 -0.44000
C 	C 	0.97290 0.15760 0.62260 -0.15700
C 	C 	0.84100 0.16130 0.64550 0.06000
H 	H 	0.76740 0.13290 0.61520 0.00500
C 	C 	0.82040 0.20490 0.71010 -0.10900
H 	H 	0.73290 0.20540 0.72700 0.06000
C 	C 	0.92320 0.24980 0.75390 0.01700
C 	C 	0.90090 0.29860 0.81850 0.00900
H 	H 	0.81310 0.30050 0.83490 0.03900
C 	C 	0.00060 0.34220 0.85740 -0.17100
C 	C 	0.13090 0.33950 0.83360 0.06500
H 	H 	0.20160 0.36990 0.86040 -0.01900
C 	C 	0.15620 0.29310 0.77200 -0.11800
H 	H 	0.24490 0.29180 0.75690 0.06200
C 	C 	0.05390 0.24710 0.73050 0.01400
C 	C 	0.07510 0.19940 0.66560 -0.00500
H 	H 	0.16420 0.19640 0.65140 0.03000
C 	C 	0.00160 0.10600 0.55590 0.48900
C 	C 	0.96900 0.39580 0.91990 0.48600
C 	C 	0.17190 0.95680 0.03340 -0.08300
H 	H 	0.23050 0.93420 0.00100 0.04900
C 	C 	0.21160 0.96300 0.13500 0.00400
H 	H 	0.29820 0.94530 0.17300 0.02100
C 	C 	0.12460 0.99560 0.18450 -0.07100
C 	C 	0.00150 0.02100 0.13150 -0.04600
H 	H 	0.94420 0.04260 0.16610 0.04500
C 	C 	0.95610 0.01620 0.02520 0.01800
C 	C 	0.16910 0.00200 0.29700 0.31600
Nd	Nd	0.23876 0.51561 0.98514 2.09800
O 	O 	0.37640 0.60250 0.95480 -0.56000
O 	O 	0.59820 0.56996 0.98530 -0.57000
O 	O 	0.64850 0.89497 0.56090 -0.50900
O 	O 	0.43930 0.93800 0.55190 -0.60000
O 	O 	0.41100 0.52920 0.15850 -0.42700
O 	O 	0.21280 0.48020 0.15350 -0.44200
C 	C 	0.52710 0.65760 0.87740 -0.16800
C 	C 	0.65900 0.66130 0.85450 0.06700
H 	H 	0.73260 0.63290 0.88480 0.00200
C 	C 	0.67960 0.70490 0.78990 -0.11600
H 	H 	0.76710 0.70540 0.77300 0.06300
C 	C 	0.57680 0.74980 0.74610 0.02200
C 	C 	0.59910 0.79860 0.68150 -0.00400
H 	H 	0.68690 0.80050 0.66510 0.04300
C 	C 	0.49940 0.84220 0.64260 -0.15600
C 	C 	0.36910 0.83950 0.66640 0.05700
H 	H 	0.29840 0.86990 0.63960 -0.01600
C 	C 	0.34380 0.79310 0.72800 -0.11100
H 	H 	0.25510 0.79180 0.74310 0.06000
C 	C 	0.44610 0.74710 0.76950 0.01000
C 	C 	0.42490 0.69940 0.83440 0.00700
H 	H 	0.33580 0.69640 0.84860 0.02600
C 	C 	0.49840 0.60600 0.94410 0.49900
C 	C 	0.53100 0.89580 0.58010 0.47500
C 	C 	0.32810 0.45680 0.46660 -0.09000
H 	H 	0.26950 0.43420 0.49900 0.05000
C 	C 	0.28840 0.46300 0.36500 0.01000
H 	H 	0.20180 0.44530 0.32700 0.01900
C 	C 	0.37540 0.49560 0.31550 -0.08200
C 	C 	0.49850 0.52100 0.36850 -0.03700
H 	H 	0.55580 0.54260 0.33390 0.04200
C 	C 	0.54390 0.51620 0.47480 0.01800
C 	C 	0.33090 0.50200 0.20300 0.32200
Nd	Nd	0.73876 0.98438 0.48514 2.09500
O 	O 	0.87640 0.89750 0.45480 -0.55800
O 	O 	0.09820 0.93004 0.48530 -0.56600
O 	O 	0.14850 0.60503 0.06090 -0.51000
O 	O 	0.93930 0.56200 0.05190 -0.60600
O 	O 	0.91100 0.97080 0.65850 -0.42700
O 	O 	0.71280 0.01980 0.65350 -0.44000
C 	C 	0.02710 0.84240 0.37740 -0.15700
C 	C 	0.15900 0.83870 0.35450 0.06000
H 	H 	0.23260 0.86710 0.38480 0.00500
C 	C 	0.17960 0.79510 0.28990 -0.10900
H 	H 	0.26710 0.79460 0.27300 0.06000
C 	C 	0.07680 0.75020 0.24610 0.01700
C 	C 	0.09910 0.70140 0.18150 0.00900
H 	H 	0.18690 0.69950 0.16510 0.03900
C 	C 	0.99940 0.65780 0.14260 -0.17100
C 	C 	0.86910 0.66050 0.16640 0.06500
H 	H 	0.79840 0.63010 0.13960 -0.01900
C 	C 	0.84380 0.70690 0.22800 -0.11800
H 	H 	0.75510 0.70820 0.24310 0.06200
C 	C 	0.94610 0.75290 0.26950 0.01400
C 	C 	0.92490 0.80060 0.33440 -0.00500
H 	H 	0.83580 0.80360 0.34860 0.03000
C 	C 	0.99840 0.89400 0.44410 0.48900
C 	C 	0.03100 0.60420 0.08010 0.48600
C 	C 	0.82810 0.04320 0.96660 -0.08300
H 	H 	0.76950 0.06580 0.99900 0.04900
C 	C 	0.78840 0.03700 0.86500 0.00400
H 	H 	0.70180 0.05470 0.82700 0.02100
C 	C 	0.87540 0.00440 0.81550 -0.07100
C 	C 	0.99850 0.97900 0.86850 -0.04600
H 	H 	0.05580 0.95740 0.83390 0.04500
C 	C 	0.04390 0.98380 0.97480 0.01800
C 	C 	0.83090 0.99800 0.70300 0.31600
Nd	Nd	0.76124 0.48438 0.01486 2.09800
O 	O 	0.62360 0.39750 0.04520 -0.56000
O 	O 	0.40180 0.43004 0.01470 -0.57100
O 	O 	0.35150 0.10503 0.43910 -0.50900
O 	O 	0.56070 0.06200 0.44810 -0.60000
O 	O 	0.58900 0.47080 0.84150 -0.42700
O 	O 	0.78720 0.51980 0.84650 -0.44200
C 	C 	0.47290 0.34240 0.12260 -0.16800
C 	C 	0.34100 0.33870 0.14550 0.06700
H 	H 	0.26740 0.36710 0.11520 0.00200
C 	C 	0.32040 0.29510 0.21010 -0.11600
H 	H 	0.23290 0.29460 0.22700 0.06300
C 	C 	0.42320 0.25020 0.25390 0.02200
C 	C 	0.40090 0.20140 0.31850 -0.00400
H 	H 	0.31310 0.19950 0.33490 0.04300
C 	C 	0.50060 0.15780 0.35740 -0.15600
C 	C 	0.63090 0.16050 0.33360 0.05600
H 	H 	0.70160 0.13010 0.36040 -0.01600
C 	C 	0.65620 0.20690 0.27200 -0.11100
H 	H 	0.74490 0.20820 0.25690 0.06000
C 	C 	0.55390 0.25290 0.23050 0.01000
C 	C 	0.57510 0.30060 0.16560 0.00700
H 	H 	0.66420 0.30360 0.15140 0.02600
C 	C 	0.50160 0.39400 0.05590 0.49900
C 	C 	0.46900 0.10420 0.41990 0.47500
C 	C 	0.67190 0.54320 0.53340 -0.09000
H 	H 	0.73050 0.56580 0.50100 0.05000
C 	C 	0.71160 0.53700 0.63500 0.01000
H 	H 	0.79820 0.55470 0.67300 0.01900
C 	C 	0.62460 0.50440 0.68450 -0.08200
C 	C 	0.50150 0.47900 0.63150 -0.03700
H 	H 	0.44420 0.45740 0.66610 0.04200
C 	C 	0.45610 0.48380 0.52520 0.01800
C 	C 	0.66910 0.49800 0.79700 0.32200
