data_crystal

_cell_length_a 14.38280
_cell_length_b 14.38280
_cell_length_c 14.38280
_cell_angle_alpha 90.00000
_cell_angle_beta  90.00000
_cell_angle_gamma 90.00000

_symmetry_space_group_name_	'P 1'
_symmetry_space_group_name_H-M	'P 1'

loop_
_symmetry_equiv_pos_as_xyz
  x,y,z

loop_
_atom_site_label
_atom_site_type_symbol
_atom_site_fract_x
_atom_site_fract_y
_atom_site_fract_z
_atom_site_charge
K 	K 	0.38500 0.00000 -0.00000 0.60000
K 	K 	0.88500 0.50000 0.50000 0.69000
K 	K 	0.61500 0.00000 -0.00000 0.60800
K 	K 	0.11500 0.50000 0.50000 0.65400
K 	K 	-0.00000 0.38500 -0.00000 0.60000
K 	K 	0.50000 0.88500 0.50000 0.69000
K 	K 	-0.00000 0.61500 -0.00000 0.60800
K 	K 	0.50000 0.11500 0.50000 0.65400
K 	K 	-0.00000 -0.00000 0.38500 0.60000
K 	K 	0.50000 0.50000 0.88500 0.69000
K 	K 	-0.00000 0.00000 0.61500 0.60800
K 	K 	0.50000 0.50000 0.11500 0.65400
Cu	Cu	0.50000 0.00000 0.25000 0.90000
Cu	Cu	0.50000 0.00000 0.75000 0.90400
Cu	Cu	0.25000 0.50000 -0.00000 0.90000
Cu	Cu	0.75000 0.50000 -0.00000 0.90400
Cu	Cu	0.00000 0.25000 0.50000 0.90000
Cu	Cu	0.00000 0.75000 0.50000 0.90400
Cu	Cu	0.50000 0.25000 -0.00000 0.90000
Cu	Cu	0.00000 0.50000 0.75000 0.90400
Cu	Cu	0.00000 0.50000 0.25000 0.90000
Cu	Cu	0.50000 0.75000 -0.00000 0.90400
Cu	Cu	0.25000 0.00000 0.50000 0.90000
Cu	Cu	0.75000 0.00000 0.50000 0.90400
O 	O 	0.64110 -0.00000 0.24910 -0.44900
O 	O 	0.14110 0.50000 0.74910 -0.39700
O 	O 	0.35890 -0.00000 0.24910 -0.46900
O 	O 	0.85890 0.50000 0.74910 -0.31900
O 	O 	0.35890 0.00000 0.75090 -0.43600
O 	O 	0.85890 0.50000 0.25090 -0.33500
O 	O 	0.64110 0.00000 0.75090 -0.41800
O 	O 	0.14110 0.50000 0.25090 -0.41400
O 	O 	0.24910 0.64110 -0.00000 -0.44900
O 	O 	0.74910 0.14110 0.50000 -0.39700
O 	O 	0.24910 0.35890 -0.00000 -0.46900
O 	O 	0.74910 0.85890 0.50000 -0.31900
O 	O 	0.75090 0.35890 -0.00000 -0.43600
O 	O 	0.25090 0.85890 0.50000 -0.33500
O 	O 	0.75090 0.64110 -0.00000 -0.41800
O 	O 	0.25090 0.14110 0.50000 -0.41400
O 	O 	0.00000 0.24910 0.64110 -0.44900
O 	O 	0.50000 0.74910 0.14110 -0.39700
O 	O 	0.00000 0.24910 0.35890 -0.46900
O 	O 	0.50000 0.74910 0.85890 -0.31900
O 	O 	0.00000 0.75090 0.35890 -0.43600
O 	O 	0.50000 0.25090 0.85890 -0.33500
O 	O 	-0.00000 0.75090 0.64110 -0.41800
O 	O 	0.50000 0.25090 0.14110 -0.41400
O 	O 	-0.00000 0.64110 0.75090 -0.41800
O 	O 	0.50000 0.14110 0.25090 -0.41400
O 	O 	-0.00000 0.35890 0.75090 -0.43600
O 	O 	0.50000 0.85890 0.25090 -0.33500
O 	O 	-0.00000 0.35890 0.24910 -0.46900
O 	O 	0.50000 0.85890 0.74910 -0.31900
O 	O 	-0.00000 0.64110 0.24910 -0.44900
O 	O 	0.50000 0.14110 0.74910 -0.39700
O 	O 	0.64110 0.24910 -0.00000 -0.44900
O 	O 	0.14110 0.74910 0.50000 -0.39700
O 	O 	0.35890 0.24910 -0.00000 -0.46900
O 	O 	0.85890 0.74910 0.50000 -0.31900
O 	O 	0.35890 0.75090 -0.00000 -0.43600
O 	O 	0.85890 0.25090 0.50000 -0.33500
O 	O 	0.64110 0.75090 -0.00000 -0.41800
O 	O 	0.14110 0.25090 0.50000 -0.41400
O 	O 	0.24910 0.00000 0.35890 -0.46900
O 	O 	0.74910 0.50000 0.85890 -0.31900
O 	O 	0.24910 0.00000 0.64110 -0.44900
O 	O 	0.74910 0.50000 0.14110 -0.39700
O 	O 	0.75090 0.00000 0.64110 -0.41800
O 	O 	0.25090 0.50000 0.14110 -0.41400
O 	O 	0.75090 0.00000 0.35890 -0.43600
O 	O 	0.25090 0.50000 0.85890 -0.33500
C 	C 	0.66560 -0.00000 0.33440 0.50600
O 	O 	0.60240 0.00000 0.39760 -0.50400
C 	C 	0.16560 0.50000 0.83440 0.50000
O 	O 	0.10240 0.50000 0.89760 -0.42200
C 	C 	0.33440 -0.00000 0.33440 0.51000
O 	O 	0.39760 0.00000 0.39760 -0.50700
C 	C 	0.83440 0.50000 0.83440 0.48600
O 	O 	0.89760 0.50000 0.89760 -0.32700
C 	C 	0.33440 0.00000 0.66560 0.50600
O 	O 	0.39760 0.00000 0.60240 -0.50400
C 	C 	0.83440 0.50000 0.16560 0.50000
O 	O 	0.89760 0.50000 0.10240 -0.42200
C 	C 	0.66560 0.00000 0.66560 0.50200
O 	O 	0.60240 0.00000 0.60240 -0.50100
C 	C 	0.16560 0.50000 0.16560 0.51300
O 	O 	0.10240 0.50000 0.10240 -0.52200
C 	C 	0.33440 0.66560 -0.00000 0.50600
O 	O 	0.39760 0.60240 -0.00000 -0.50400
C 	C 	0.83440 0.16560 0.50000 0.50000
O 	O 	0.89760 0.10240 0.50000 -0.42200
C 	C 	0.33440 0.33440 -0.00000 0.51000
O 	O 	0.39760 0.39760 -0.00000 -0.50700
C 	C 	0.83440 0.83440 0.50000 0.48600
O 	O 	0.89760 0.89760 0.50000 -0.32700
C 	C 	0.66560 0.33440 -0.00000 0.50600
O 	O 	0.60240 0.39760 -0.00000 -0.50400
C 	C 	0.16560 0.83440 0.50000 0.50000
O 	O 	0.10240 0.89760 0.50000 -0.42200
C 	C 	0.66560 0.66560 -0.00000 0.50200
O 	O 	0.60240 0.60240 -0.00000 -0.50100
C 	C 	0.16560 0.16560 0.50000 0.51300
O 	O 	0.10240 0.10240 0.50000 -0.52200
C 	C 	-0.00000 0.33440 0.66560 0.50600
O 	O 	-0.00000 0.39760 0.60240 -0.50400
C 	C 	0.50000 0.83440 0.16560 0.50000
O 	O 	0.50000 0.89760 0.10240 -0.42200
C 	C 	-0.00000 0.33440 0.33440 0.51000
O 	O 	0.00000 0.39760 0.39760 -0.50700
C 	C 	0.50000 0.83440 0.83440 0.48600
O 	O 	0.50000 0.89760 0.89760 -0.32700
C 	C 	0.00000 0.66560 0.33440 0.50600
O 	O 	0.00000 0.60240 0.39760 -0.50400
C 	C 	0.50000 0.16560 0.83440 0.50000
O 	O 	0.50000 0.10240 0.89760 -0.42200
C 	C 	0.00000 0.66560 0.66560 0.50200
O 	O 	0.00000 0.60240 0.60240 -0.50100
C 	C 	0.50000 0.16560 0.16560 0.51300
O 	O 	0.50000 0.10240 0.10240 -0.52200
