data_crystal

_cell_length_a 14.41130
_cell_length_b 14.41130
_cell_length_c 14.41130
_cell_angle_alpha 90.00000
_cell_angle_beta  90.00000
_cell_angle_gamma 90.00000

_symmetry_space_group_name_	'P 1'
_symmetry_space_group_name_H-M	'P 1'

loop_
_symmetry_equiv_pos_as_xyz
  x,y,z

loop_
_atom_site_label
_atom_site_type_symbol
_atom_site_fract_x
_atom_site_fract_y
_atom_site_fract_z
_atom_site_charge
Cu	Cu	0.50000 0.75000 -0.00000 0.91300
Cu	Cu	0.50000 0.25000 -0.00000 0.91000
Cu	Cu	-0.00000 0.50000 0.75000 0.91300
Cu	Cu	-0.00000 0.50000 0.25000 0.91100
Cu	Cu	0.75000 0.00000 0.50000 0.91400
Cu	Cu	0.25000 0.00000 0.50000 0.91100
Cu	Cu	0.75000 0.50000 -0.00000 0.91400
Cu	Cu	0.25000 0.50000 -0.00000 0.91100
Cu	Cu	0.50000 0.00000 0.25000 0.91100
Cu	Cu	0.50000 -0.00000 0.75000 0.91400
Cu	Cu	-0.00000 0.75000 0.50000 0.91400
Cu	Cu	-0.00000 0.25000 0.50000 0.91100
C 	C 	0.66630 0.66630 -0.00000 0.50600
O 	O 	0.60490 0.60490 -0.00000 -0.45600
C 	C 	0.16630 0.16630 0.50000 0.51700
O 	O 	0.10490 0.10490 0.50000 -0.48500
C 	C 	0.33370 0.33370 -0.00000 0.51300
O 	O 	0.39510 0.39510 -0.00000 -0.46200
C 	C 	0.83370 0.83370 0.50000 0.48500
O 	O 	0.89510 0.89510 0.50000 -0.28500
C 	C 	0.33370 0.66630 -0.00000 0.50900
O 	O 	0.39510 0.60490 -0.00000 -0.45900
C 	C 	0.83370 0.16630 0.50000 0.50100
O 	O 	0.89510 0.10490 0.50000 -0.38400
C 	C 	0.66630 0.33370 -0.00000 0.50900
O 	O 	0.60490 0.39510 -0.00000 -0.45900
C 	C 	0.16630 0.83370 0.50000 0.50100
O 	O 	0.10490 0.89510 0.50000 -0.38400
C 	C 	0.00000 0.66630 0.66630 0.50600
O 	O 	-0.00000 0.60490 0.60490 -0.45600
C 	C 	0.50000 0.16630 0.16630 0.51700
O 	O 	0.50000 0.10490 0.10490 -0.48500
C 	C 	-0.00000 0.33370 0.33370 0.51300
O 	O 	0.00000 0.39510 0.39510 -0.46200
C 	C 	0.50000 0.83370 0.83370 0.48500
O 	O 	0.50000 0.89510 0.89510 -0.28500
C 	C 	0.00000 0.33370 0.66630 0.50900
O 	O 	-0.00000 0.39510 0.60490 -0.45900
C 	C 	0.50000 0.83370 0.16630 0.50100
O 	O 	0.50000 0.89510 0.10490 -0.38400
C 	C 	0.00000 0.66630 0.33370 0.50900
O 	O 	-0.00000 0.60490 0.39510 -0.45900
C 	C 	0.50000 0.16630 0.83370 0.50100
O 	O 	0.50000 0.10490 0.89510 -0.38400
C 	C 	0.66630 0.00000 0.66630 0.50600
O 	O 	0.60490 -0.00000 0.60490 -0.45600
C 	C 	0.16630 0.50000 0.16630 0.51700
O 	O 	0.10490 0.50000 0.10490 -0.48500
C 	C 	0.33370 -0.00000 0.33370 0.51300
O 	O 	0.39510 0.00000 0.39510 -0.46200
C 	C 	0.83370 0.50000 0.83370 0.48500
O 	O 	0.89510 0.50000 0.89510 -0.28500
C 	C 	0.66630 -0.00000 0.33370 0.50900
O 	O 	0.60490 0.00000 0.39510 -0.45900
C 	C 	0.16630 0.50000 0.83370 0.50100
O 	O 	0.10490 0.50000 0.89510 -0.38400
C 	C 	0.33370 0.00000 0.66630 0.50900
O 	O 	0.39510 -0.00000 0.60490 -0.45900
C 	C 	0.83370 0.50000 0.16630 0.50100
O 	O 	0.89510 0.50000 0.10490 -0.38400
O 	O 	0.64180 0.75230 -0.00000 -0.35800
O 	O 	0.14180 0.25230 0.50000 -0.35200
O 	O 	0.35820 0.24770 -0.00000 -0.41100
O 	O 	0.85820 0.74770 0.50000 -0.25100
O 	O 	0.35820 0.75230 -0.00000 -0.37800
O 	O 	0.85820 0.25230 0.50000 -0.26900
O 	O 	0.64180 0.24770 -0.00000 -0.39100
O 	O 	0.14180 0.74770 0.50000 -0.33300
O 	O 	0.00000 0.64180 0.75230 -0.35800
O 	O 	0.50000 0.14180 0.25230 -0.35200
O 	O 	0.00000 0.35820 0.24770 -0.41100
O 	O 	0.50000 0.85820 0.74770 -0.25100
O 	O 	-0.00000 0.35820 0.75230 -0.37800
O 	O 	0.50000 0.85820 0.25230 -0.26900
O 	O 	0.00000 0.64180 0.24770 -0.39100
O 	O 	0.50000 0.14180 0.74770 -0.33300
O 	O 	0.75230 0.00000 0.64180 -0.35800
O 	O 	0.25230 0.50000 0.14180 -0.35200
O 	O 	0.24770 0.00000 0.35820 -0.41100
O 	O 	0.74770 0.50000 0.85820 -0.25100
O 	O 	0.75230 0.00000 0.35820 -0.37800
O 	O 	0.25230 0.50000 0.85820 -0.26900
O 	O 	0.24770 0.00000 0.64180 -0.39100
O 	O 	0.74770 0.50000 0.14180 -0.33300
O 	O 	0.75230 0.64180 -0.00000 -0.35800
O 	O 	0.25230 0.14180 0.50000 -0.35200
O 	O 	0.24770 0.35820 -0.00000 -0.41100
O 	O 	0.74770 0.85820 0.50000 -0.25100
O 	O 	0.75230 0.35820 -0.00000 -0.37800
O 	O 	0.25230 0.85820 0.50000 -0.26900
O 	O 	0.24770 0.64180 -0.00000 -0.39100
O 	O 	0.74770 0.14180 0.50000 -0.33300
O 	O 	0.64180 0.00000 0.24770 -0.39100
O 	O 	0.14180 0.50000 0.74770 -0.33300
O 	O 	0.35820 0.00000 0.75230 -0.37800
O 	O 	0.85820 0.50000 0.25230 -0.26900
O 	O 	0.35820 0.00000 0.24770 -0.41100
O 	O 	0.85820 0.50000 0.74770 -0.25100
O 	O 	0.64180 0.00000 0.75230 -0.35800
O 	O 	0.14180 0.50000 0.25230 -0.35200
O 	O 	0.00000 0.75230 0.35820 -0.37800
O 	O 	0.50000 0.25230 0.85820 -0.26900
O 	O 	0.00000 0.24770 0.64180 -0.39100
O 	O 	0.50000 0.74770 0.14180 -0.33300
O 	O 	0.00000 0.75230 0.64180 -0.35800
O 	O 	0.50000 0.25230 0.14180 -0.35200
O 	O 	0.00000 0.24770 0.35820 -0.41100
O 	O 	0.50000 0.74770 0.85820 -0.25100
Na	Na	0.50000 0.50000 -0.00000 0.60100
Na	Na	0.00000 0.00000 0.50000 0.56900
Na	Na	0.00000 0.50000 0.50000 0.60100
Na	Na	0.50000 0.00000 -0.00000 0.56900
Na	Na	0.50000 0.00000 0.50000 0.60100
Na	Na	-0.00000 0.50000 -0.00000 0.56900
