data_crystal

_cell_length_a 14.35470
_cell_length_b 14.35470
_cell_length_c 14.35470
_cell_angle_alpha 63.29200
_cell_angle_beta  84.19680
_cell_angle_gamma 116.70800

_symmetry_space_group_name_	'P 1'
_symmetry_space_group_name_H-M	'P 1'

loop_
_symmetry_equiv_pos_as_xyz
  x,y,z

loop_
_atom_site_label
_atom_site_type_symbol
_atom_site_fract_x
_atom_site_fract_y
_atom_site_fract_z
_atom_site_charge
Zn	Zn	0.42331 0.00000 0.57669 1.19600
Zn	Zn	0.07669 0.00000 0.92331 1.19900
Zn	Zn	0.57669 0.00000 0.42331 1.19500
Zn	Zn	0.92331 0.00000 0.07669 1.18700
H 	H 	0.24660 0.09320 0.36260 0.03900
H 	H 	0.42500 0.07300 0.74200 0.25900
H 	H 	0.33100 0.91700 0.81800 0.14100
H 	H 	0.54420 0.90680 0.84660 0.05700
H 	H 	0.18500 0.92700 0.64800 -0.15700
H 	H 	0.26500 0.08300 0.58600 -0.05300
H 	H 	0.15340 0.60920 0.75340 0.05600
H 	H 	0.35200 0.16700 0.57500 0.06300
H 	H 	0.41400 0.14900 0.66900 0.06300
H 	H 	0.63740 0.39080 0.45580 0.03900
H 	H 	0.25800 0.83300 0.81500 0.05100
H 	H 	0.18200 0.85100 0.73500 0.02800
H 	H 	0.95580 0.60920 0.13740 0.04900
H 	H 	0.31500 0.16700 0.75800 0.06000
H 	H 	0.23500 0.14900 0.68200 0.06300
H 	H 	0.25340 0.39080 0.65340 0.04100
H 	H 	0.07500 0.83300 0.85200 0.05400
H 	H 	0.16900 0.85100 0.91400 0.03000
H 	H 	0.86260 0.90680 0.74660 0.05300
H 	H 	0.24200 0.92700 0.92500 -0.14700
H 	H 	0.31800 0.08300 0.83100 -0.04800
H 	H 	0.34660 0.09320 0.04420 0.03800
H 	H 	0.14800 0.07300 0.68500 0.26900
H 	H 	0.08600 0.91700 0.76500 0.14400
H 	H 	0.75340 0.90680 0.63740 0.05600
H 	H 	0.57500 0.92700 0.25800 -0.18500
H 	H 	0.66900 0.08300 0.18200 -0.06600
H 	H 	0.45580 0.09320 0.15340 0.03600
H 	H 	0.81500 0.07300 0.35200 0.28500
H 	H 	0.73500 0.91700 0.41400 0.15200
H 	H 	0.84660 0.39080 0.24660 0.03600
H 	H 	0.64800 0.83300 0.42500 0.05200
H 	H 	0.58600 0.85100 0.33100 0.02600
H 	H 	0.36260 0.60920 0.54420 0.05500
H 	H 	0.74200 0.16700 0.18500 0.06200
H 	H 	0.81800 0.14900 0.26500 0.06300
H 	H 	0.04420 0.39080 0.86260 0.04500
H 	H 	0.68500 0.83300 0.24200 0.04300
H 	H 	0.76500 0.85100 0.31800 0.02300
H 	H 	0.74660 0.60920 0.34660 0.05600
H 	H 	0.92500 0.16700 0.14800 0.04600
H 	H 	0.83100 0.14900 0.08600 0.05700
H 	H 	0.13740 0.09320 0.25340 0.04400
H 	H 	0.75800 0.07300 0.07500 0.28600
H 	H 	0.68200 0.91700 0.16900 0.15300
H 	H 	0.65340 0.90680 0.95580 0.05600
H 	H 	0.85200 0.92700 0.31500 -0.18600
H 	H 	0.91400 0.08300 0.23500 -0.07000
C 	C 	0.26580 0.09102 0.29940 -0.01400
C 	C 	0.36690 0.02850 0.75560 -0.50400
C 	C 	0.60958 0.90898 0.82522 -0.01200
C 	C 	0.21590 0.97150 0.66160 0.38500
C 	C 	0.17478 0.56520 0.73420 -0.02400
C 	C 	0.33840 0.12250 0.63310 -0.07300
C 	C 	0.70060 0.43480 0.39042 -0.00100
C 	C 	0.24440 0.87750 0.78410 -0.07000
C 	C 	0.89042 0.56520 0.20060 -0.03200
C 	C 	0.28410 0.12250 0.74440 -0.06700
C 	C 	0.23420 0.43480 0.67478 -0.00100
C 	C 	0.13310 0.87750 0.83840 -0.07700
C 	C 	0.79940 0.90898 0.76580 -0.00700
C 	C 	0.25560 0.97150 0.86690 0.36200
C 	C 	0.32522 0.09102 0.10958 -0.02300
C 	C 	0.16160 0.02850 0.71590 -0.52100
C 	C 	0.73420 0.90898 0.70060 -0.01200
C 	C 	0.63310 0.97150 0.24440 0.44000
C 	C 	0.39042 0.09102 0.17478 -0.01600
C 	C 	0.78410 0.02850 0.33840 -0.56300
C 	C 	0.82522 0.43480 0.26580 -0.00200
C 	C 	0.66160 0.87750 0.36690 -0.07600
C 	C 	0.29940 0.56520 0.60958 -0.02500
C 	C 	0.75560 0.12250 0.21590 -0.07300
C 	C 	0.10958 0.43480 0.79940 -0.00100
C 	C 	0.71590 0.87750 0.25560 -0.06000
C 	C 	0.76580 0.56520 0.32522 -0.03100
C 	C 	0.86690 0.12250 0.16160 -0.05000
C 	C 	0.20060 0.09102 0.23420 -0.02300
C 	C 	0.74440 0.02850 0.13310 -0.56700
C 	C 	0.67478 0.90898 0.89042 -0.00600
C 	C 	0.83840 0.97150 0.28410 0.43800
C 	C 	0.35912 0.08781 0.27131 -0.09400
C 	C 	0.42122 0.07168 0.34954 0.39300
C 	C 	0.64088 0.91219 0.72869 -0.07000
C 	C 	0.57878 0.92832 0.65046 0.39000
C 	C 	0.27131 0.63043 0.64088 -0.06600
C 	C 	0.34954 0.77076 0.57878 0.38500
C 	C 	0.72869 0.36957 0.35912 -0.09800
C 	C 	0.65046 0.22924 0.42122 0.39800
C 	C 	0.85912 0.63043 0.22869 -0.06200
C 	C 	0.92122 0.77076 0.15046 0.35900
C 	C 	0.14088 0.36957 0.77131 -0.09600
C 	C 	0.07878 0.22924 0.84954 0.40900
C 	C 	0.77131 0.91219 0.85912 -0.07600
C 	C 	0.84954 0.92832 0.92122 0.40000
C 	C 	0.22869 0.08781 0.14088 -0.08500
C 	C 	0.15046 0.07168 0.07878 0.37900
N 	N 	0.31711 0.00000 0.68289 -0.22200
N 	N 	0.18289 0.00000 0.81711 -0.21500
N 	N 	0.68289 0.00000 0.31711 -0.22500
N 	N 	0.81711 0.00000 0.18289 -0.23200
O 	O 	0.38674 0.06477 0.43721 -0.48600
O 	O 	0.49802 0.93523 0.67803 -0.43700
O 	O 	0.32197 0.82395 0.61326 -0.43600
O 	O 	0.56279 0.17605 0.50198 -0.48700
O 	O 	0.00198 0.82395 0.06279 -0.41700
O 	O 	0.11326 0.17605 0.82197 -0.48500
O 	O 	0.93721 0.93523 0.88674 -0.44500
O 	O 	0.17803 0.06477 0.99802 -0.47400
O 	O 	0.61326 0.93523 0.56279 -0.43600
O 	O 	0.50198 0.06477 0.32197 -0.48800
O 	O 	0.67803 0.17605 0.38674 -0.48900
O 	O 	0.43721 0.82395 0.49802 -0.43500
O 	O 	0.99802 0.17605 0.93721 -0.49100
O 	O 	0.88674 0.82395 0.17803 -0.43400
O 	O 	0.06279 0.06477 0.11326 -0.47400
O 	O 	0.82197 0.93523 0.00198 -0.44600
