data_crystal

_cell_length_a 35.41100
_cell_length_b 35.41100
_cell_length_c 45.69100
_cell_angle_alpha 90.00000
_cell_angle_beta  90.00000
_cell_angle_gamma 120.00000

_symmetry_space_group_name_	'P 1'
_symmetry_space_group_name_H-M	'P 1'

loop_
_symmetry_equiv_pos_as_xyz
  x,y,z

loop_
_atom_site_label
_atom_site_type_symbol
_atom_site_fract_x
_atom_site_fract_y
_atom_site_fract_z
_atom_site_charge
Ni	Ni	0.56085 0.02016 0.05111 1.06100
Ni	Ni	0.45932 0.02018 0.05110 1.06100
O 	O 	0.51875 0.03761 0.03592 -0.59700
C 	C 	0.21070 0.78890 0.11797 0.02900
C 	C 	0.18060 0.75216 0.10264 -0.10000
H 	H 	0.15540 0.73160 0.11220 0.05700
C 	C 	0.18640 0.74493 0.07392 0.02800
C 	C 	0.22380 0.77599 0.05905 -0.09800
H 	H 	0.22780 0.77190 0.03940 0.05900
C 	C 	0.25510 0.81329 0.07393 0.02700
C 	C 	0.24800 0.81937 0.10261 -0.10000
H 	H 	0.26850 0.84450 0.11220 0.05600
C 	C 	0.20250 0.79752 0.14793 0.03700
C 	C 	0.16020 0.78020 0.15890 -0.21800
H 	H 	0.13700 0.76310 0.14660 0.09300
C 	C 	0.15100 0.78710 0.18690 0.16300
H 	H 	0.12240 0.77470 0.19330 -0.04100
C 	C 	0.21240 0.84890 0.18690 0.19600
H 	H 	0.22410 0.87760 0.19320 -0.05200
C 	C 	0.22020 0.83990 0.15900 -0.24900
H 	H 	0.23820 0.86310 0.14690 0.10300
C 	C 	0.18633 0.81386 0.20593 -0.11800
C 	C 	0.29390 0.84709 0.05727 0.05800
C 	C 	0.29060 0.85484 0.02863 -0.13300
H 	H 	0.26400 0.83840 0.01920 0.06700
C 	C 	0.32610 0.88658 0.01266 0.05500
H 	H 	0.32290 0.89210 0.99320 0.00900
C 	C 	0.36645 0.90980 0.02677 -0.15900
C 	C 	0.37020 0.90201 0.05545 0.05200
H 	H 	0.39700 0.91780 0.06480 0.01300
C 	C 	0.33390 0.87022 0.07128 -0.13100
H 	H 	0.33680 0.86480 0.09080 0.07100
C 	C 	0.15320 0.70615 0.05739 0.05500
C 	C 	0.14520 0.70950 0.02861 -0.13100
H 	H 	0.16130 0.73610 0.01920 0.06600
C 	C 	0.11310 0.67370 0.01266 0.05200
H 	H 	0.10750 0.67690 0.99320 0.01000
C 	C 	0.09004 0.63347 0.02671 -0.15800
C 	C 	0.09790 0.62975 0.05550 0.04900
H 	H 	0.08210 0.60290 0.06480 0.01400
C 	C 	0.12960 0.66622 0.07127 -0.12800
H 	H 	0.13460 0.66330 0.09090 0.06900
C 	C 	0.40425 0.94330 0.00894 0.39900
O 	O 	0.39774 0.94659 0.98297 -0.47800
O 	O 	0.44099 0.96516 0.02241 -0.52600
C 	C 	0.05676 0.59567 0.00889 0.39800
O 	O 	0.05344 0.60219 0.98290 -0.48000
O 	O 	0.03479 0.55900 0.02245 -0.52800
C 	C 	0.17661 0.82343 0.23585 0.39400
O 	O 	0.20468 0.85882 0.24717 -0.47800
O 	O 	0.14118 0.79540 0.24701 -0.47700
C 	C 	0.60380 0.77310 0.19560 -0.17300
C 	C 	0.58540 0.76450 0.16780 0.12700
C 	C 	0.58620 0.82180 0.16760 0.09800
C 	C 	0.60390 0.83100 0.19510 -0.14400
H 	H 	0.59930 0.74990 0.20750 0.08500
H 	H 	0.56620 0.73580 0.16250 -0.02300
H 	H 	0.56790 0.83220 0.16190 -0.01200
H 	H 	0.59940 0.84980 0.20690 0.07500
Ni	Ni	0.22752 0.35349 0.38444 1.06100
Ni	Ni	0.12599 0.35351 0.38444 1.06100
O 	O 	0.18542 0.37094 0.36925 -0.59700
C 	C 	0.87737 0.12223 0.45130 0.02700
C 	C 	0.84727 0.08549 0.43597 -0.10100
H 	H 	0.82207 0.06493 0.44553 0.05600
C 	C 	0.85307 0.07826 0.40725 0.02800
C 	C 	0.89047 0.10932 0.39238 -0.09800
H 	H 	0.89447 0.10523 0.37273 0.05900
C 	C 	0.92177 0.14662 0.40726 0.02300
C 	C 	0.91467 0.15270 0.43594 -0.09800
H 	H 	0.93517 0.17783 0.44553 0.05600
C 	C 	0.86917 0.13085 0.48126 0.03700
C 	C 	0.82687 0.11353 0.49223 -0.21800
H 	H 	0.80367 0.09643 0.47993 0.09300
C 	C 	0.81767 0.12043 0.52023 0.16300
H 	H 	0.78907 0.10803 0.52663 -0.04100
C 	C 	0.87907 0.18223 0.52023 0.19600
H 	H 	0.89077 0.21093 0.52653 -0.05200
C 	C 	0.88687 0.17323 0.49233 -0.24900
H 	H 	0.90487 0.19643 0.48023 0.10400
C 	C 	0.85300 0.14719 0.53926 -0.11800
C 	C 	0.96057 0.18042 0.39060 0.06900
C 	C 	0.95727 0.18817 0.36196 -0.14500
H 	H 	0.93067 0.17173 0.35253 0.07100
C 	C 	0.99277 0.21991 0.34599 0.07100
H 	H 	0.98957 0.22543 0.32653 0.00400
C 	C 	0.03312 0.24313 0.36010 -0.17100
C 	C 	0.03687 0.23534 0.38878 0.06300
H 	H 	0.06367 0.25113 0.39813 0.00900
C 	C 	0.00057 0.20355 0.40461 -0.14300
H 	H 	0.00347 0.19813 0.42413 0.07400
C 	C 	0.81987 0.03948 0.39072 0.04900
C 	C 	0.81187 0.04283 0.36194 -0.12600
H 	H 	0.82797 0.06943 0.35253 0.06500
C 	C 	0.77977 0.00703 0.34599 0.04800
H 	H 	0.77417 0.01023 0.32653 0.01000
C 	C 	0.75671 0.96680 0.36004 -0.15200
C 	C 	0.76457 0.96308 0.38883 0.04400
H 	H 	0.74877 0.93623 0.39813 0.01600
C 	C 	0.79627 0.99955 0.40460 -0.12000
H 	H 	0.80127 0.99663 0.42423 0.06800
C 	C 	0.07092 0.27663 0.34227 0.40400
O 	O 	0.06441 0.27992 0.31630 -0.48200
O 	O 	0.10766 0.29849 0.35574 -0.52800
C 	C 	0.72343 0.92900 0.34222 0.39800
O 	O 	0.72011 0.93552 0.31623 -0.48000
O 	O 	0.70146 0.89233 0.35578 -0.52700
C 	C 	0.84328 0.15676 0.56918 0.39400
O 	O 	0.87135 0.19215 0.58050 -0.47800
O 	O 	0.80785 0.12873 0.58034 -0.47700
C 	C 	0.27047 0.10643 0.52893 -0.17300
C 	C 	0.25207 0.09783 0.50113 0.12700
C 	C 	0.25287 0.15513 0.50093 0.09800
C 	C 	0.27057 0.16433 0.52843 -0.14400
H 	H 	0.26597 0.08323 0.54083 0.08500
H 	H 	0.23287 0.06913 0.49583 -0.02300
H 	H 	0.23457 0.16553 0.49523 -0.01300
H 	H 	0.26607 0.18313 0.54023 0.07500
Ni	Ni	0.89418 0.68683 0.71778 1.06100
Ni	Ni	0.79265 0.68685 0.71777 1.06100
O 	O 	0.85208 0.70428 0.70259 -0.59700
C 	C 	0.54403 0.45557 0.78464 0.02700
C 	C 	0.51393 0.41883 0.76931 -0.10000
H 	H 	0.48873 0.39827 0.77887 0.05600
C 	C 	0.51973 0.41160 0.74059 0.02600
C 	C 	0.55713 0.44266 0.72572 -0.09800
H 	H 	0.56113 0.43857 0.70607 0.05900
C 	C 	0.58843 0.47996 0.74060 0.02500
C 	C 	0.58133 0.48604 0.76928 -0.09900
H 	H 	0.60183 0.51117 0.77887 0.05600
C 	C 	0.53583 0.46419 0.81460 0.03700
C 	C 	0.49353 0.44687 0.82557 -0.21800
H 	H 	0.47033 0.42977 0.81327 0.09300
C 	C 	0.48433 0.45377 0.85357 0.16300
H 	H 	0.45573 0.44137 0.85997 -0.04100
C 	C 	0.54573 0.51557 0.85357 0.19600
H 	H 	0.55743 0.54427 0.85987 -0.05200
C 	C 	0.55353 0.50657 0.82567 -0.24900
H 	H 	0.57153 0.52977 0.81357 0.10300
C 	C 	0.51966 0.48053 0.87260 -0.11800
C 	C 	0.62723 0.51376 0.72394 0.06000
C 	C 	0.62393 0.52151 0.69530 -0.13700
H 	H 	0.59733 0.50507 0.68587 0.06800
C 	C 	0.65943 0.55325 0.67933 0.06000
H 	H 	0.65623 0.55877 0.65987 0.00600
C 	C 	0.69978 0.57647 0.69344 -0.16300
C 	C 	0.70353 0.56868 0.72212 0.05500
H 	H 	0.73033 0.58447 0.73147 0.01200
C 	C 	0.66723 0.53689 0.73795 -0.13300
H 	H 	0.67013 0.53147 0.75747 0.07200
C 	C 	0.48653 0.37282 0.72406 0.05700
C 	C 	0.47853 0.37617 0.69528 -0.13400
H 	H 	0.49463 0.40277 0.68587 0.06700
C 	C 	0.44643 0.34037 0.67933 0.05800
H 	H 	0.44083 0.34357 0.65987 0.00700
C 	C 	0.42337 0.30014 0.69338 -0.16100
C 	C 	0.43123 0.29642 0.72217 0.05200
H 	H 	0.41543 0.26957 0.73147 0.01300
C 	C 	0.46293 0.33289 0.73794 -0.13000
H 	H 	0.46793 0.32997 0.75757 0.07000
C 	C 	0.73758 0.60997 0.67561 0.40200
O 	O 	0.73107 0.61326 0.64964 -0.48100
O 	O 	0.77432 0.63183 0.68908 -0.52800
C 	C 	0.39009 0.26234 0.67556 0.40100
O 	O 	0.38677 0.26886 0.64957 -0.48100
O 	O 	0.36812 0.22567 0.68912 -0.52700
C 	C 	0.50994 0.49010 0.90252 0.39400
O 	O 	0.53801 0.52549 0.91384 -0.47800
O 	O 	0.47451 0.46207 0.91368 -0.47700
C 	C 	0.93713 0.43977 0.86227 -0.17300
C 	C 	0.91873 0.43117 0.83447 0.12700
C 	C 	0.91953 0.48847 0.83427 0.09800
C 	C 	0.93723 0.49767 0.86177 -0.14400
H 	H 	0.93263 0.41657 0.87417 0.08500
H 	H 	0.89953 0.40247 0.82917 -0.02300
H 	H 	0.90123 0.49887 0.82857 -0.01200
H 	H 	0.93273 0.51647 0.87357 0.07500
Ni	Ni	0.97984 0.54069 0.05111 1.06200
Ni	Ni	0.97982 0.43914 0.05110 1.06200
O 	O 	0.96239 0.48114 0.03592 -0.59600
C 	C 	0.21110 0.42180 0.11797 0.02800
C 	C 	0.24784 0.42844 0.10264 -0.10100
H 	H 	0.26840 0.42380 0.11220 0.05600
C 	C 	0.25507 0.44147 0.07392 0.02700
C 	C 	0.22401 0.44781 0.05905 -0.09900
H 	H 	0.22810 0.45590 0.03940 0.05900
C 	C 	0.18671 0.44181 0.07393 0.02600
C 	C 	0.18063 0.42863 0.10261 -0.10000
H 	H 	0.15550 0.42400 0.11220 0.05600
C 	C 	0.20248 0.40498 0.14793 0.03700
C 	C 	0.21980 0.38000 0.15890 -0.21900
H 	H 	0.23690 0.37390 0.14660 0.09300
C 	C 	0.21290 0.36390 0.18690 0.16300
H 	H 	0.22530 0.34770 0.19330 -0.04100
C 	C 	0.15110 0.36350 0.18690 0.19600
H 	H 	0.12240 0.34650 0.19320 -0.05300
C 	C 	0.16010 0.38030 0.15900 -0.24900
H 	H 	0.13690 0.37510 0.14690 0.10300
C 	C 	0.18614 0.37247 0.20593 -0.11800
C 	C 	0.15291 0.44681 0.05727 0.05800
C 	C 	0.14516 0.43576 0.02863 -0.13400
H 	H 	0.16160 0.42560 0.01920 0.06700
C 	C 	0.11342 0.43952 0.01266 0.05500
H 	H 	0.10790 0.43080 0.99320 0.00900
C 	C 	0.09020 0.45665 0.02677 -0.16000
C 	C 	0.09799 0.46819 0.05545 0.05200
H 	H 	0.08220 0.47920 0.06480 0.01300
C 	C 	0.12978 0.46368 0.07128 -0.13100
H 	H 	0.13520 0.47200 0.09080 0.07100
C 	C 	0.29385 0.44705 0.05739 0.05500
C 	C 	0.29050 0.43570 0.02861 -0.13100
H 	H 	0.26390 0.42520 0.01920 0.06600
C 	C 	0.32630 0.43940 0.01266 0.05200
H 	H 	0.32310 0.43060 0.99320 0.01000
C 	C 	0.36653 0.45657 0.02671 -0.15800
C 	C 	0.37025 0.46815 0.05550 0.04900
H 	H 	0.39710 0.47920 0.06480 0.01400
C 	C 	0.33378 0.46338 0.07127 -0.12800
H 	H 	0.33670 0.47130 0.09090 0.06900
C 	C 	0.05670 0.46095 0.00894 0.39900
O 	O 	0.05341 0.45115 0.98297 -0.48000
O 	O 	0.03484 0.47583 0.02241 -0.52800
C 	C 	0.40433 0.46109 0.00889 0.39800
O 	O 	0.39781 0.45125 0.98290 -0.47900
O 	O 	0.44100 0.47579 0.02245 -0.52700
C 	C 	0.17657 0.35318 0.23585 0.39400
O 	O 	0.14118 0.34586 0.24717 -0.47800
O 	O 	0.20460 0.34578 0.24701 -0.47700
C 	C 	0.22690 0.83070 0.19560 -0.17400
C 	C 	0.23550 0.82090 0.16780 0.12800
C 	C 	0.17820 0.76440 0.16760 0.09900
C 	C 	0.16900 0.77290 0.19510 -0.14400
H 	H 	0.25010 0.84940 0.20750 0.08500
H 	H 	0.26420 0.83040 0.16250 -0.02300
H 	H 	0.16780 0.73570 0.16190 -0.01300
H 	H 	0.15020 0.74960 0.20690 0.07500
Ni	Ni	0.64651 0.87402 0.38444 1.06100
Ni	Ni	0.64649 0.77247 0.38444 1.06100
O 	O 	0.62906 0.81447 0.36925 -0.59700
C 	C 	0.87777 0.75513 0.45130 0.02600
C 	C 	0.91451 0.76177 0.43597 -0.09700
H 	H 	0.93507 0.75713 0.44553 0.05500
C 	C 	0.92174 0.77480 0.40725 0.02200
C 	C 	0.89068 0.78114 0.39238 -0.09600
H 	H 	0.89477 0.78923 0.37273 0.05800
C 	C 	0.85338 0.77514 0.40726 0.02400
C 	C 	0.84730 0.76196 0.43594 -0.09800
H 	H 	0.82217 0.75733 0.44553 0.05500
C 	C 	0.86915 0.73831 0.48126 0.03800
C 	C 	0.88647 0.71333 0.49223 -0.21900
H 	H 	0.90357 0.70723 0.47993 0.09400
C 	C 	0.87957 0.69723 0.52023 0.16400
H 	H 	0.89197 0.68103 0.52663 -0.04100
C 	C 	0.81777 0.69683 0.52023 0.19600
H 	H 	0.78907 0.67983 0.52653 -0.05300
C 	C 	0.82677 0.71363 0.49233 -0.25000
H 	H 	0.80357 0.70843 0.48023 0.10400
C 	C 	0.85281 0.70580 0.53926 -0.11800
C 	C 	0.81958 0.78014 0.39060 0.06100
C 	C 	0.81183 0.76909 0.36196 -0.13800
H 	H 	0.82827 0.75893 0.35253 0.06900
C 	C 	0.78009 0.77285 0.34599 0.06100
H 	H 	0.77457 0.76413 0.32653 0.00600
C 	C 	0.75687 0.78998 0.36010 -0.16300
C 	C 	0.76466 0.80152 0.38878 0.05600
H 	H 	0.74887 0.81253 0.39813 0.01200
C 	C 	0.79645 0.79701 0.40461 -0.13400
H 	H 	0.80187 0.80533 0.42413 0.07200
C 	C 	0.96052 0.78038 0.39072 0.06700
C 	C 	0.95717 0.76903 0.36194 -0.14200
H 	H 	0.93057 0.75853 0.35253 0.07000
C 	C 	0.99297 0.77273 0.34599 0.06800
H 	H 	0.98977 0.76393 0.32653 0.00500
C 	C 	0.03320 0.78990 0.36004 -0.16900
C 	C 	0.03692 0.80148 0.38883 0.05900
H 	H 	0.06377 0.81253 0.39813 0.01100
C 	C 	0.00045 0.79671 0.40460 -0.14000
H 	H 	0.00337 0.80463 0.42423 0.07300
C 	C 	0.72337 0.79428 0.34227 0.40200
O 	O 	0.72008 0.78448 0.31630 -0.48100
O 	O 	0.70151 0.80916 0.35574 -0.52800
C 	C 	0.07100 0.79442 0.34222 0.40300
O 	O 	0.06448 0.78458 0.31623 -0.48200
O 	O 	0.10767 0.80912 0.35578 -0.52800
C 	C 	0.84324 0.68651 0.56918 0.39400
O 	O 	0.80785 0.67919 0.58050 -0.47800
O 	O 	0.87127 0.67911 0.58034 -0.47700
C 	C 	0.89357 0.16403 0.52893 -0.17400
C 	C 	0.90217 0.15423 0.50113 0.12800
C 	C 	0.84487 0.09773 0.50093 0.09800
C 	C 	0.83567 0.10623 0.52843 -0.14400
H 	H 	0.91677 0.18273 0.54083 0.08500
H 	H 	0.93087 0.16373 0.49583 -0.02200
H 	H 	0.83447 0.06903 0.49523 -0.01300
H 	H 	0.81687 0.08293 0.54023 0.07500
Ni	Ni	0.31317 0.20736 0.71778 1.06100
Ni	Ni	0.31315 0.10581 0.71777 1.06100
O 	O 	0.29572 0.14781 0.70259 -0.59700
C 	C 	0.54443 0.08847 0.78464 0.02700
C 	C 	0.58117 0.09511 0.76931 -0.10000
H 	H 	0.60173 0.09047 0.77887 0.05600
C 	C 	0.58840 0.10814 0.74059 0.02600
C 	C 	0.55734 0.11448 0.72572 -0.09800
H 	H 	0.56143 0.12257 0.70607 0.05900
C 	C 	0.52004 0.10848 0.74060 0.02500
C 	C 	0.51396 0.09530 0.76928 -0.09900
H 	H 	0.48883 0.09067 0.77887 0.05600
C 	C 	0.53581 0.07165 0.81460 0.03700
C 	C 	0.55313 0.04667 0.82557 -0.21900
H 	H 	0.57023 0.04057 0.81327 0.09300
C 	C 	0.54623 0.03057 0.85357 0.16300
H 	H 	0.55863 0.01437 0.85997 -0.04100
C 	C 	0.48443 0.03017 0.85357 0.19600
H 	H 	0.45573 0.01317 0.85987 -0.05300
C 	C 	0.49343 0.04697 0.82567 -0.25000
H 	H 	0.47023 0.04177 0.81357 0.10300
C 	C 	0.51947 0.03914 0.87260 -0.11800
C 	C 	0.48624 0.11348 0.72394 0.06000
C 	C 	0.47849 0.10243 0.69530 -0.13700
H 	H 	0.49493 0.09227 0.68587 0.06800
C 	C 	0.44675 0.10619 0.67933 0.06000
H 	H 	0.44123 0.09747 0.65987 0.00600
C 	C 	0.42353 0.12332 0.69344 -0.16300
C 	C 	0.43132 0.13486 0.72212 0.05500
H 	H 	0.41553 0.14587 0.73147 0.01200
C 	C 	0.46311 0.13035 0.73795 -0.13300
H 	H 	0.46853 0.13867 0.75747 0.07200
C 	C 	0.62718 0.11372 0.72406 0.05700
C 	C 	0.62383 0.10237 0.69528 -0.13400
H 	H 	0.59723 0.09187 0.68587 0.06700
C 	C 	0.65963 0.10607 0.67933 0.05800
H 	H 	0.65643 0.09727 0.65987 0.00700
C 	C 	0.69986 0.12324 0.69338 -0.16100
C 	C 	0.70358 0.13482 0.72217 0.05200
H 	H 	0.73043 0.14587 0.73147 0.01300
C 	C 	0.66711 0.13005 0.73794 -0.13000
H 	H 	0.67003 0.13797 0.75757 0.07000
C 	C 	0.39003 0.12762 0.67561 0.40200
O 	O 	0.38674 0.11782 0.64964 -0.48100
O 	O 	0.36817 0.14250 0.68908 -0.52800
C 	C 	0.73766 0.12776 0.67556 0.40100
O 	O 	0.73114 0.11792 0.64957 -0.48100
O 	O 	0.77433 0.14246 0.68912 -0.52700
C 	C 	0.50990 0.01985 0.90252 0.39400
O 	O 	0.47451 0.01253 0.91384 -0.47900
O 	O 	0.53793 0.01245 0.91368 -0.47800
C 	C 	0.56023 0.49737 0.86227 -0.17400
C 	C 	0.56883 0.48757 0.83447 0.12800
C 	C 	0.51153 0.43107 0.83427 0.09800
C 	C 	0.50233 0.43957 0.86177 -0.14400
H 	H 	0.58343 0.51607 0.87417 0.08500
H 	H 	0.59753 0.49707 0.82917 -0.02300
H 	H 	0.50113 0.40237 0.82857 -0.01300
H 	H 	0.48353 0.41627 0.87357 0.07500
Ni	Ni	0.45931 0.43915 0.05111 1.06100
Ni	Ni	0.56086 0.54068 0.05110 1.06100
O 	O 	0.51886 0.48125 0.03592 -0.59700
C 	C 	0.57820 0.78930 0.11797 0.02800
C 	C 	0.57156 0.81940 0.10264 -0.10100
H 	H 	0.57620 0.84460 0.11220 0.05600
C 	C 	0.55853 0.81360 0.07392 0.02700
C 	C 	0.55219 0.77620 0.05905 -0.09900
H 	H 	0.54410 0.77220 0.03940 0.05900
C 	C 	0.55819 0.74490 0.07393 0.02700
C 	C 	0.57137 0.75200 0.10261 -0.10000
H 	H 	0.57600 0.73150 0.11220 0.05600
C 	C 	0.59502 0.79750 0.14793 0.03700
C 	C 	0.62000 0.83980 0.15890 -0.21800
H 	H 	0.62610 0.86300 0.14660 0.09300
C 	C 	0.63610 0.84900 0.18690 0.16300
H 	H 	0.65230 0.87760 0.19330 -0.04000
C 	C 	0.63650 0.78760 0.18690 0.19600
H 	H 	0.65350 0.77590 0.19320 -0.05200
C 	C 	0.61970 0.77980 0.15900 -0.24800
H 	H 	0.62490 0.76180 0.14690 0.10300
C 	C 	0.62753 0.81367 0.20593 -0.11700
C 	C 	0.55319 0.70610 0.05727 0.05800
C 	C 	0.56424 0.70940 0.02863 -0.13300
H 	H 	0.57440 0.73600 0.01920 0.06700
C 	C 	0.56048 0.67390 0.01266 0.05500
H 	H 	0.56920 0.67710 0.99320 0.00900
C 	C 	0.54335 0.63355 0.02677 -0.16000
C 	C 	0.53181 0.62980 0.05545 0.05200
H 	H 	0.52080 0.60300 0.06480 0.01300
C 	C 	0.53632 0.66610 0.07128 -0.13100
H 	H 	0.52800 0.66320 0.09080 0.07100
C 	C 	0.55295 0.84680 0.05739 0.05500
C 	C 	0.56430 0.85480 0.02861 -0.13000
H 	H 	0.57480 0.83870 0.01920 0.06600
C 	C 	0.56060 0.88690 0.01266 0.05200
H 	H 	0.56940 0.89250 0.99320 0.01000
C 	C 	0.54343 0.90996 0.02671 -0.15800
C 	C 	0.53185 0.90210 0.05550 0.04900
H 	H 	0.52080 0.91790 0.06480 0.01400
C 	C 	0.53662 0.87040 0.07127 -0.12700
H 	H 	0.52870 0.86540 0.09090 0.06900
C 	C 	0.53905 0.59575 0.00894 0.39900
O 	O 	0.54885 0.60226 0.98297 -0.47900
O 	O 	0.52417 0.55901 0.02241 -0.52700
C 	C 	0.53891 0.94324 0.00889 0.39800
O 	O 	0.54875 0.94656 0.98290 -0.47800
O 	O 	0.52421 0.96521 0.02245 -0.52600
C 	C 	0.64682 0.82339 0.23585 0.39400
O 	O 	0.65414 0.79532 0.24717 -0.47800
O 	O 	0.65422 0.85882 0.24701 -0.47700
C 	C 	0.16930 0.39620 0.19560 -0.17400
C 	C 	0.17910 0.41460 0.16780 0.12800
C 	C 	0.23560 0.41380 0.16760 0.09900
C 	C 	0.22710 0.39610 0.19510 -0.14400
H 	H 	0.15060 0.40070 0.20750 0.08500
H 	H 	0.16960 0.43380 0.16250 -0.02300
H 	H 	0.26430 0.43210 0.16190 -0.01300
H 	H 	0.25040 0.40060 0.20690 0.07500
Ni	Ni	0.12598 0.77248 0.38444 1.06100
Ni	Ni	0.22753 0.87401 0.38444 1.06100
O 	O 	0.18553 0.81458 0.36925 -0.59700
C 	C 	0.24487 0.12263 0.45130 0.02800
C 	C 	0.23823 0.15273 0.43597 -0.10100
H 	H 	0.24287 0.17793 0.44553 0.05600
C 	C 	0.22520 0.14693 0.40725 0.02700
C 	C 	0.21886 0.10953 0.39238 -0.10100
H 	H 	0.21077 0.10553 0.37273 0.05900
C 	C 	0.22486 0.07823 0.40726 0.02900
C 	C 	0.23804 0.08533 0.43594 -0.10200
H 	H 	0.24267 0.06483 0.44553 0.05600
C 	C 	0.26169 0.13083 0.48126 0.03700
C 	C 	0.28667 0.17313 0.49223 -0.21800
H 	H 	0.29277 0.19633 0.47993 0.09300
C 	C 	0.30277 0.18233 0.52023 0.16300
H 	H 	0.31897 0.21093 0.52663 -0.04100
C 	C 	0.30317 0.12093 0.52023 0.19500
H 	H 	0.32017 0.10923 0.52653 -0.05200
C 	C 	0.28637 0.11313 0.49233 -0.24800
H 	H 	0.29157 0.09513 0.48023 0.10300
C 	C 	0.29420 0.14700 0.53926 -0.11800
C 	C 	0.21986 0.03943 0.39060 0.05100
C 	C 	0.23091 0.04273 0.36196 -0.12900
H 	H 	0.24107 0.06933 0.35253 0.06500
C 	C 	0.22715 0.00723 0.34599 0.04900
H 	H 	0.23587 0.01043 0.32653 0.00900
C 	C 	0.21002 0.96688 0.36010 -0.15400
C 	C 	0.19848 0.96313 0.38878 0.04700
H 	H 	0.18747 0.93633 0.39813 0.01500
C 	C 	0.20299 0.99943 0.40461 -0.12200
H 	H 	0.19467 0.99653 0.42413 0.06900
C 	C 	0.21962 0.18013 0.39072 0.05700
C 	C 	0.23097 0.18813 0.36194 -0.13400
H 	H 	0.24147 0.17203 0.35253 0.06700
C 	C 	0.22727 0.22023 0.34599 0.05700
H 	H 	0.23607 0.22583 0.32653 0.00700
C 	C 	0.21010 0.24329 0.36004 -0.16100
C 	C 	0.19852 0.23543 0.38883 0.05100
H 	H 	0.18747 0.25123 0.39813 0.01300
C 	C 	0.20329 0.20373 0.40460 -0.12900
H 	H 	0.19537 0.19873 0.42423 0.07000
C 	C 	0.20572 0.92908 0.34227 0.39900
O 	O 	0.21552 0.93559 0.31630 -0.48000
O 	O 	0.19084 0.89234 0.35574 -0.52700
C 	C 	0.20558 0.27657 0.34222 0.40100
O 	O 	0.21542 0.27989 0.31623 -0.48100
O 	O 	0.19088 0.29854 0.35578 -0.52700
C 	C 	0.31349 0.15672 0.56918 0.39400
O 	O 	0.32081 0.12865 0.58050 -0.47800
O 	O 	0.32089 0.19215 0.58034 -0.47700
C 	C 	0.83597 0.72953 0.52893 -0.17400
C 	C 	0.84577 0.74793 0.50113 0.12800
C 	C 	0.90227 0.74713 0.50093 0.09900
C 	C 	0.89377 0.72943 0.52843 -0.14400
H 	H 	0.81727 0.73403 0.54083 0.08500
H 	H 	0.83627 0.76713 0.49583 -0.02300
H 	H 	0.93097 0.76543 0.49523 -0.01200
H 	H 	0.91707 0.73393 0.54023 0.07500
Ni	Ni	0.79264 0.10582 0.71778 1.06100
Ni	Ni	0.89419 0.20735 0.71777 1.06100
O 	O 	0.85219 0.14792 0.70259 -0.59700
C 	C 	0.91153 0.45597 0.78464 0.02700
C 	C 	0.90489 0.48607 0.76931 -0.10000
H 	H 	0.90953 0.51127 0.77887 0.05600
C 	C 	0.89186 0.48027 0.74059 0.02600
C 	C 	0.88552 0.44287 0.72572 -0.09800
H 	H 	0.87743 0.43887 0.70607 0.05900
C 	C 	0.89152 0.41157 0.74060 0.02500
C 	C 	0.90470 0.41867 0.76928 -0.09900
H 	H 	0.90933 0.39817 0.77887 0.05600
C 	C 	0.92835 0.46417 0.81460 0.03700
C 	C 	0.95333 0.50647 0.82557 -0.21800
H 	H 	0.95943 0.52967 0.81327 0.09300
C 	C 	0.96943 0.51567 0.85357 0.16300
H 	H 	0.98563 0.54427 0.85997 -0.04000
C 	C 	0.96983 0.45427 0.85357 0.19500
H 	H 	0.98683 0.44257 0.85987 -0.05200
C 	C 	0.95303 0.44647 0.82567 -0.24800
H 	H 	0.95823 0.42847 0.81357 0.10300
C 	C 	0.96086 0.48034 0.87260 -0.11700
C 	C 	0.88652 0.37277 0.72394 0.06000
C 	C 	0.89757 0.37607 0.69530 -0.13700
H 	H 	0.90773 0.40267 0.68587 0.06900
C 	C 	0.89381 0.34057 0.67933 0.06000
H 	H 	0.90253 0.34377 0.65987 0.00600
C 	C 	0.87668 0.30022 0.69344 -0.16300
C 	C 	0.86514 0.29647 0.72212 0.05500
H 	H 	0.85413 0.26967 0.73147 0.01200
C 	C 	0.86965 0.33277 0.73795 -0.13300
H 	H 	0.86133 0.32987 0.75747 0.07200
C 	C 	0.88628 0.51347 0.72406 0.05700
C 	C 	0.89763 0.52147 0.69528 -0.13400
H 	H 	0.90813 0.50537 0.68587 0.06800
C 	C 	0.89393 0.55357 0.67933 0.05800
H 	H 	0.90273 0.55917 0.65987 0.00700
C 	C 	0.87676 0.57663 0.69338 -0.16100
C 	C 	0.86518 0.56877 0.72217 0.05200
H 	H 	0.85413 0.58457 0.73147 0.01300
C 	C 	0.86995 0.53707 0.73794 -0.13000
H 	H 	0.86203 0.53207 0.75757 0.07000
C 	C 	0.87238 0.26242 0.67561 0.40200
O 	O 	0.88218 0.26893 0.64964 -0.48100
O 	O 	0.85750 0.22568 0.68908 -0.52800
C 	C 	0.87224 0.60991 0.67556 0.40100
O 	O 	0.88208 0.61323 0.64957 -0.48100
O 	O 	0.85754 0.63188 0.68912 -0.52700
C 	C 	0.98015 0.49006 0.90252 0.39400
O 	O 	0.98747 0.46199 0.91384 -0.47700
O 	O 	0.98755 0.52549 0.91368 -0.47600
C 	C 	0.50263 0.06287 0.86227 -0.17400
C 	C 	0.51243 0.08127 0.83447 0.12800
C 	C 	0.56893 0.08047 0.83427 0.09900
C 	C 	0.56043 0.06277 0.86177 -0.14400
H 	H 	0.48393 0.06737 0.87417 0.08500
H 	H 	0.50293 0.10047 0.82917 -0.02300
H 	H 	0.59763 0.09877 0.82857 -0.01300
H 	H 	0.58373 0.06727 0.87357 0.07500
Ni	Ni	0.43915 0.97984 0.94889 1.06200
Ni	Ni	0.54068 0.97982 0.94890 1.06200
O 	O 	0.48125 0.96239 0.96408 -0.59500
C 	C 	0.78930 0.21110 0.88203 0.02600
C 	C 	0.81940 0.24784 0.89736 -0.09900
H 	H 	0.84460 0.26840 0.88780 0.05600
C 	C 	0.81360 0.25507 0.92608 0.02400
C 	C 	0.77620 0.22401 0.94095 -0.09700
H 	H 	0.77220 0.22810 0.96060 0.05900
C 	C 	0.74490 0.18671 0.92607 0.02400
C 	C 	0.75200 0.18063 0.89739 -0.09800
H 	H 	0.73150 0.15550 0.88780 0.05500
C 	C 	0.79750 0.20248 0.85207 0.03800
C 	C 	0.83980 0.21980 0.84110 -0.21800
H 	H 	0.86300 0.23690 0.85340 0.09300
C 	C 	0.84900 0.21290 0.81310 0.16300
H 	H 	0.87760 0.22530 0.80670 -0.04100
C 	C 	0.78760 0.15110 0.81310 0.19600
H 	H 	0.77590 0.12240 0.80680 -0.05300
C 	C 	0.77980 0.16010 0.84100 -0.24900
H 	H 	0.76180 0.13690 0.85310 0.10300
C 	C 	0.81367 0.18614 0.79407 -0.11800
C 	C 	0.70610 0.15291 0.94273 0.06300
C 	C 	0.70940 0.14516 0.97137 -0.14100
H 	H 	0.73600 0.16160 0.98080 0.07000
C 	C 	0.67390 0.11342 0.98734 0.06600
H 	H 	0.67710 0.10790 0.00680 0.00300
C 	C 	0.63355 0.09020 0.97323 -0.16600
C 	C 	0.62980 0.09799 0.94455 0.05800
H 	H 	0.60300 0.08220 0.93520 0.01100
C 	C 	0.66610 0.12978 0.92872 -0.13600
H 	H 	0.66320 0.13520 0.90920 0.07300
C 	C 	0.84680 0.29385 0.94261 0.06000
C 	C 	0.85480 0.29050 0.97139 -0.13700
H 	H 	0.83870 0.26390 0.98080 0.06900
C 	C 	0.88690 0.32630 0.98734 0.06300
H 	H 	0.89250 0.32310 0.00680 0.00400
C 	C 	0.90996 0.36653 0.97329 -0.16400
C 	C 	0.90210 0.37025 0.94450 0.05400
H 	H 	0.91790 0.39710 0.93520 0.01300
C 	C 	0.87040 0.33378 0.92873 -0.13200
H 	H 	0.86540 0.33670 0.90910 0.07100
C 	C 	0.59575 0.05670 0.99106 0.40500
O 	O 	0.60226 0.05341 0.01703 -0.48400
O 	O 	0.55901 0.03484 0.97759 -0.52900
C 	C 	0.94324 0.40433 0.99111 0.40400
O 	O 	0.94656 0.39781 0.01710 -0.48200
O 	O 	0.96521 0.44100 0.97755 -0.52600
C 	C 	0.82339 0.17657 0.76415 0.39400
O 	O 	0.79532 0.14118 0.75283 -0.47800
O 	O 	0.85882 0.20460 0.75299 -0.47700
C 	C 	0.39620 0.22690 0.80440 -0.17400
C 	C 	0.41460 0.23550 0.83220 0.12800
C 	C 	0.41380 0.17820 0.83240 0.09900
C 	C 	0.39610 0.16900 0.80490 -0.14400
H 	H 	0.40070 0.25010 0.79250 0.08500
H 	H 	0.43380 0.26420 0.83750 -0.02300
H 	H 	0.43210 0.16780 0.83810 -0.01300
H 	H 	0.40060 0.15020 0.79310 0.07500
Ni	Ni	0.10582 0.31317 0.28222 1.06100
Ni	Ni	0.20735 0.31315 0.28223 1.06100
O 	O 	0.14792 0.29572 0.29741 -0.59700
C 	C 	0.45597 0.54443 0.21536 0.02700
C 	C 	0.48607 0.58117 0.23069 -0.10000
H 	H 	0.51127 0.60173 0.22113 0.05600
C 	C 	0.48027 0.58840 0.25941 0.02600
C 	C 	0.44287 0.55734 0.27428 -0.09800
H 	H 	0.43887 0.56143 0.29393 0.05900
C 	C 	0.41157 0.52004 0.25940 0.02500
C 	C 	0.41867 0.51396 0.23072 -0.09900
H 	H 	0.39817 0.48883 0.22113 0.05600
C 	C 	0.46417 0.53581 0.18540 0.03700
C 	C 	0.50647 0.55313 0.17443 -0.21800
H 	H 	0.52967 0.57023 0.18673 0.09300
C 	C 	0.51567 0.54623 0.14643 0.16300
H 	H 	0.54427 0.55863 0.14003 -0.04100
C 	C 	0.45427 0.48443 0.14643 0.19600
H 	H 	0.44257 0.45573 0.14013 -0.05200
C 	C 	0.44647 0.49343 0.17433 -0.24900
H 	H 	0.42847 0.47023 0.18643 0.10300
C 	C 	0.48034 0.51947 0.12740 -0.11800
C 	C 	0.37277 0.48624 0.27606 0.06000
C 	C 	0.37607 0.47849 0.30470 -0.13700
H 	H 	0.40267 0.49493 0.31413 0.06800
C 	C 	0.34057 0.44675 0.32067 0.06000
H 	H 	0.34377 0.44123 0.34013 0.00600
C 	C 	0.30022 0.42353 0.30656 -0.16300
C 	C 	0.29647 0.43132 0.27788 0.05500
H 	H 	0.26967 0.41553 0.26853 0.01200
C 	C 	0.33277 0.46311 0.26205 -0.13300
H 	H 	0.32987 0.46853 0.24253 0.07200
C 	C 	0.51347 0.62718 0.27594 0.05700
C 	C 	0.52147 0.62383 0.30472 -0.13400
H 	H 	0.50537 0.59723 0.31413 0.06700
C 	C 	0.55357 0.65963 0.32067 0.05800
H 	H 	0.55917 0.65643 0.34013 0.00700
C 	C 	0.57663 0.69986 0.30662 -0.16100
C 	C 	0.56877 0.70358 0.27783 0.05200
H 	H 	0.58457 0.73043 0.26853 0.01300
C 	C 	0.53707 0.66711 0.26206 -0.13000
H 	H 	0.53207 0.67003 0.24243 0.07000
C 	C 	0.26242 0.39003 0.32439 0.40200
O 	O 	0.26893 0.38674 0.35036 -0.48100
O 	O 	0.22568 0.36817 0.31092 -0.52800
C 	C 	0.60991 0.73766 0.32444 0.40100
O 	O 	0.61323 0.73114 0.35043 -0.48100
O 	O 	0.63188 0.77433 0.31088 -0.52700
C 	C 	0.49006 0.50990 0.09748 0.39400
O 	O 	0.46199 0.47451 0.08616 -0.47800
O 	O 	0.52549 0.53793 0.08632 -0.47700
C 	C 	0.06287 0.56023 0.13773 -0.17400
C 	C 	0.08127 0.56883 0.16553 0.12800
C 	C 	0.08047 0.51153 0.16573 0.09900
C 	C 	0.06277 0.50233 0.13823 -0.14400
H 	H 	0.06737 0.58343 0.12583 0.08500
H 	H 	0.10047 0.59753 0.17083 -0.02300
H 	H 	0.09877 0.50113 0.17143 -0.01300
H 	H 	0.06727 0.48353 0.12643 0.07500
Ni	Ni	0.77248 0.64651 0.61556 1.06100
Ni	Ni	0.87401 0.64649 0.61556 1.06100
O 	O 	0.81458 0.62906 0.63075 -0.59700
C 	C 	0.12263 0.87777 0.54870 0.02700
C 	C 	0.15273 0.91451 0.56403 -0.09800
H 	H 	0.17793 0.93507 0.55447 0.05600
C 	C 	0.14693 0.92174 0.59275 0.02300
C 	C 	0.10953 0.89068 0.60762 -0.09800
H 	H 	0.10553 0.89477 0.62727 0.05900
C 	C 	0.07823 0.85338 0.59274 0.02800
C 	C 	0.08533 0.84730 0.56406 -0.10000
H 	H 	0.06483 0.82217 0.55447 0.05600
C 	C 	0.13083 0.86915 0.51874 0.03700
C 	C 	0.17313 0.88647 0.50777 -0.21800
H 	H 	0.19633 0.90357 0.52007 0.09400
C 	C 	0.18233 0.87957 0.47977 0.16300
H 	H 	0.21093 0.89197 0.47337 -0.04100
C 	C 	0.12093 0.81777 0.47977 0.19600
H 	H 	0.10923 0.78907 0.47347 -0.05300
C 	C 	0.11313 0.82677 0.50767 -0.24900
H 	H 	0.09513 0.80357 0.51977 0.10300
C 	C 	0.14700 0.85281 0.46074 -0.11800
C 	C 	0.03943 0.81958 0.60940 0.05200
C 	C 	0.04273 0.81183 0.63804 -0.12900
H 	H 	0.06933 0.82827 0.64747 0.06500
C 	C 	0.00723 0.78009 0.65401 0.05000
H 	H 	0.01043 0.77457 0.67347 0.00900
C 	C 	0.96688 0.75687 0.63990 -0.15400
C 	C 	0.96313 0.76466 0.61122 0.04800
H 	H 	0.93633 0.74887 0.60187 0.01500
C 	C 	0.99943 0.79645 0.59539 -0.12300
H 	H 	0.99653 0.80187 0.57587 0.06900
C 	C 	0.18013 0.96052 0.60928 0.06600
C 	C 	0.18813 0.95717 0.63806 -0.14100
H 	H 	0.17203 0.93057 0.64747 0.07000
C 	C 	0.22023 0.99297 0.65401 0.06800
H 	H 	0.22583 0.98977 0.67347 0.00500
C 	C 	0.24329 0.03320 0.63996 -0.16900
C 	C 	0.23543 0.03692 0.61117 0.05900
H 	H 	0.25123 0.06377 0.60187 0.01100
C 	C 	0.20373 0.00045 0.59540 -0.14000
H 	H 	0.19873 0.00337 0.57577 0.07300
C 	C 	0.92908 0.72337 0.65773 0.39900
O 	O 	0.93559 0.72008 0.68370 -0.47900
O 	O 	0.89234 0.70151 0.64426 -0.52700
C 	C 	0.27657 0.07100 0.65778 0.40300
O 	O 	0.27989 0.06448 0.68377 -0.48300
O 	O 	0.29854 0.10767 0.64422 -0.52800
C 	C 	0.15672 0.84324 0.43082 0.39400
O 	O 	0.12865 0.80785 0.41950 -0.47800
O 	O 	0.19215 0.87127 0.41966 -0.47700
C 	C 	0.72953 0.89357 0.47107 -0.17400
C 	C 	0.74793 0.90217 0.49887 0.12800
C 	C 	0.74713 0.84487 0.49907 0.09900
C 	C 	0.72943 0.83567 0.47157 -0.14400
H 	H 	0.73403 0.91677 0.45917 0.08600
H 	H 	0.76713 0.93087 0.50417 -0.02200
H 	H 	0.76543 0.83447 0.50477 -0.01200
H 	H 	0.73393 0.81687 0.45977 0.07500
Ni	Ni	0.02016 0.45931 0.94889 1.06000
Ni	Ni	0.02018 0.56086 0.94890 1.06000
O 	O 	0.03761 0.51886 0.96408 -0.59700
C 	C 	0.78890 0.57820 0.88203 0.02600
C 	C 	0.75216 0.57156 0.89736 -0.09900
H 	H 	0.73160 0.57620 0.88780 0.05600
C 	C 	0.74493 0.55853 0.92608 0.02500
C 	C 	0.77599 0.55219 0.94095 -0.09700
H 	H 	0.77190 0.54410 0.96060 0.05900
C 	C 	0.81329 0.55819 0.92607 0.02400
C 	C 	0.81937 0.57137 0.89739 -0.09800
H 	H 	0.84450 0.57600 0.88780 0.05500
C 	C 	0.79752 0.59502 0.85207 0.03800
C 	C 	0.78020 0.62000 0.84110 -0.21800
H 	H 	0.76310 0.62610 0.85340 0.09300
C 	C 	0.78710 0.63610 0.81310 0.16300
H 	H 	0.77470 0.65230 0.80670 -0.04100
C 	C 	0.84890 0.63650 0.81310 0.19600
H 	H 	0.87760 0.65350 0.80680 -0.05200
C 	C 	0.83990 0.61970 0.84100 -0.24900
H 	H 	0.86310 0.62490 0.85310 0.10400
C 	C 	0.81386 0.62753 0.79407 -0.11800
C 	C 	0.84709 0.55319 0.94273 0.06300
C 	C 	0.85484 0.56424 0.97137 -0.14100
H 	H 	0.83840 0.57440 0.98080 0.07000
C 	C 	0.88658 0.56048 0.98734 0.06600
H 	H 	0.89210 0.56920 0.00680 0.00300
C 	C 	0.90980 0.54335 0.97323 -0.16500
C 	C 	0.90201 0.53181 0.94455 0.05800
H 	H 	0.91780 0.52080 0.93520 0.01100
C 	C 	0.87022 0.53632 0.92872 -0.13500
H 	H 	0.86480 0.52800 0.90920 0.07300
C 	C 	0.70615 0.55295 0.94261 0.06000
C 	C 	0.70950 0.56430 0.97139 -0.13700
H 	H 	0.73610 0.57480 0.98080 0.06900
C 	C 	0.67370 0.56060 0.98734 0.06300
H 	H 	0.67690 0.56940 0.00680 0.00400
C 	C 	0.63347 0.54343 0.97329 -0.16400
C 	C 	0.62975 0.53185 0.94450 0.05400
H 	H 	0.60290 0.52080 0.93520 0.01200
C 	C 	0.66622 0.53662 0.92873 -0.13200
H 	H 	0.66330 0.52870 0.90910 0.07100
C 	C 	0.94330 0.53905 0.99106 0.40500
O 	O 	0.94659 0.54885 0.01703 -0.48200
O 	O 	0.96516 0.52417 0.97759 -0.52700
C 	C 	0.59567 0.53891 0.99111 0.40400
O 	O 	0.60219 0.54875 0.01710 -0.48300
O 	O 	0.55900 0.52421 0.97755 -0.52800
C 	C 	0.82343 0.64682 0.76415 0.39400
O 	O 	0.85882 0.65414 0.75283 -0.47800
O 	O 	0.79540 0.65422 0.75299 -0.47700
C 	C 	0.77310 0.16930 0.80440 -0.17300
C 	C 	0.76450 0.17910 0.83220 0.12700
C 	C 	0.82180 0.23560 0.83240 0.09800
C 	C 	0.83100 0.22710 0.80490 -0.14400
H 	H 	0.74990 0.15060 0.79250 0.08500
H 	H 	0.73580 0.16960 0.83750 -0.02300
H 	H 	0.83220 0.26430 0.83810 -0.01200
H 	H 	0.84980 0.25040 0.79310 0.07500
Ni	Ni	0.68683 0.79264 0.28222 1.06100
Ni	Ni	0.68685 0.89419 0.28223 1.06100
O 	O 	0.70428 0.85219 0.29741 -0.59700
C 	C 	0.45557 0.91153 0.21536 0.02700
C 	C 	0.41883 0.90489 0.23069 -0.10000
H 	H 	0.39827 0.90953 0.22113 0.05600
C 	C 	0.41160 0.89186 0.25941 0.02600
C 	C 	0.44266 0.88552 0.27428 -0.09800
H 	H 	0.43857 0.87743 0.29393 0.05900
C 	C 	0.47996 0.89152 0.25940 0.02500
C 	C 	0.48604 0.90470 0.23072 -0.09900
H 	H 	0.51117 0.90933 0.22113 0.05600
C 	C 	0.46419 0.92835 0.18540 0.03700
C 	C 	0.44687 0.95333 0.17443 -0.21800
H 	H 	0.42977 0.95943 0.18673 0.09300
C 	C 	0.45377 0.96943 0.14643 0.16300
H 	H 	0.44137 0.98563 0.14003 -0.04000
C 	C 	0.51557 0.96983 0.14643 0.19500
H 	H 	0.54427 0.98683 0.14013 -0.05200
C 	C 	0.50657 0.95303 0.17433 -0.24800
H 	H 	0.52977 0.95823 0.18643 0.10300
C 	C 	0.48053 0.96086 0.12740 -0.11700
C 	C 	0.51376 0.88652 0.27606 0.06000
C 	C 	0.52151 0.89757 0.30470 -0.13700
H 	H 	0.50507 0.90773 0.31413 0.06900
C 	C 	0.55325 0.89381 0.32067 0.06000
H 	H 	0.55877 0.90253 0.34013 0.00600
C 	C 	0.57647 0.87668 0.30656 -0.16300
C 	C 	0.56868 0.86514 0.27788 0.05500
H 	H 	0.58447 0.85413 0.26853 0.01200
C 	C 	0.53689 0.86965 0.26205 -0.13300
H 	H 	0.53147 0.86133 0.24253 0.07200
C 	C 	0.37282 0.88628 0.27594 0.05700
C 	C 	0.37617 0.89763 0.30472 -0.13400
H 	H 	0.40277 0.90813 0.31413 0.06800
C 	C 	0.34037 0.89393 0.32067 0.05800
H 	H 	0.34357 0.90273 0.34013 0.00700
C 	C 	0.30014 0.87676 0.30662 -0.16100
C 	C 	0.29642 0.86518 0.27783 0.05200
H 	H 	0.26957 0.85413 0.26853 0.01300
C 	C 	0.33289 0.86995 0.26206 -0.13000
H 	H 	0.32997 0.86203 0.24243 0.07000
C 	C 	0.60997 0.87238 0.32439 0.40200
O 	O 	0.61326 0.88218 0.35036 -0.48100
O 	O 	0.63183 0.85750 0.31092 -0.52800
C 	C 	0.26234 0.87224 0.32444 0.40100
O 	O 	0.26886 0.88208 0.35043 -0.48100
O 	O 	0.22567 0.85754 0.31088 -0.52700
C 	C 	0.49010 0.98015 0.09748 0.39400
O 	O 	0.52549 0.98747 0.08616 -0.47700
O 	O 	0.46207 0.98755 0.08632 -0.47600
C 	C 	0.43977 0.50263 0.13773 -0.17300
C 	C 	0.43117 0.51243 0.16553 0.12800
C 	C 	0.48847 0.56893 0.16573 0.09800
C 	C 	0.49767 0.56043 0.13823 -0.14400
H 	H 	0.41657 0.48393 0.12583 0.08500
H 	H 	0.40247 0.50293 0.17083 -0.02300
H 	H 	0.49887 0.59763 0.17143 -0.01300
H 	H 	0.51647 0.58373 0.12643 0.07500
Ni	Ni	0.35349 0.12598 0.61556 1.06100
Ni	Ni	0.35351 0.22753 0.61556 1.06100
O 	O 	0.37094 0.18553 0.63075 -0.59700
C 	C 	0.12223 0.24487 0.54870 0.02800
C 	C 	0.08549 0.23823 0.56403 -0.10200
H 	H 	0.06493 0.24287 0.55447 0.05600
C 	C 	0.07826 0.22520 0.59275 0.02900
C 	C 	0.10932 0.21886 0.60762 -0.10100
H 	H 	0.10523 0.21077 0.62727 0.05900
C 	C 	0.14662 0.22486 0.59274 0.02600
C 	C 	0.15270 0.23804 0.56406 -0.10100
H 	H 	0.17783 0.24267 0.55447 0.05600
C 	C 	0.13085 0.26169 0.51874 0.03700
C 	C 	0.11353 0.28667 0.50777 -0.21800
H 	H 	0.09643 0.29277 0.52007 0.09300
C 	C 	0.12043 0.30277 0.47977 0.16200
H 	H 	0.10803 0.31897 0.47337 -0.04100
C 	C 	0.18223 0.30317 0.47977 0.19500
H 	H 	0.21093 0.32017 0.47347 -0.05200
C 	C 	0.17323 0.28637 0.50767 -0.24800
H 	H 	0.19643 0.29157 0.51977 0.10300
C 	C 	0.14719 0.29420 0.46074 -0.11800
C 	C 	0.18042 0.21986 0.60940 0.05900
C 	C 	0.18817 0.23091 0.63804 -0.13700
H 	H 	0.17173 0.24107 0.64747 0.06800
C 	C 	0.21991 0.22715 0.65401 0.06000
H 	H 	0.22543 0.23587 0.67347 0.00600
C 	C 	0.24313 0.21002 0.63990 -0.16300
C 	C 	0.23534 0.19848 0.61122 0.05500
H 	H 	0.25113 0.18747 0.60187 0.01200
C 	C 	0.20355 0.20299 0.59539 -0.13300
H 	H 	0.19813 0.19467 0.57587 0.07100
C 	C 	0.03948 0.21962 0.60928 0.04800
C 	C 	0.04283 0.23097 0.63806 -0.12600
H 	H 	0.06943 0.24147 0.64747 0.06400
C 	C 	0.00703 0.22727 0.65401 0.04700
H 	H 	0.01023 0.23607 0.67347 0.01000
C 	C 	0.96680 0.21010 0.63996 -0.15200
C 	C 	0.96308 0.19852 0.61117 0.04400
H 	H 	0.93623 0.18747 0.60187 0.01600
C 	C 	0.99955 0.20329 0.59540 -0.11900
H 	H 	0.99663 0.19537 0.57577 0.06700
C 	C 	0.27663 0.20572 0.65773 0.40200
O 	O 	0.27992 0.21552 0.68370 -0.48100
O 	O 	0.29849 0.19084 0.64426 -0.52800
C 	C 	0.92900 0.20558 0.65778 0.39800
O 	O 	0.93552 0.21542 0.68377 -0.48000
O 	O 	0.89233 0.19088 0.64422 -0.52700
C 	C 	0.15676 0.31349 0.43082 0.39400
O 	O 	0.19215 0.32081 0.41950 -0.47800
O 	O 	0.12873 0.32089 0.41966 -0.47700
C 	C 	0.10643 0.83597 0.47107 -0.17300
C 	C 	0.09783 0.84577 0.49887 0.12800
C 	C 	0.15513 0.90227 0.49907 0.09800
C 	C 	0.16433 0.89377 0.47157 -0.14400
H 	H 	0.08323 0.81727 0.45917 0.08500
H 	H 	0.06913 0.83627 0.50417 -0.02300
H 	H 	0.16553 0.93097 0.50477 -0.01200
H 	H 	0.18313 0.91707 0.45977 0.07500
Ni	Ni	0.54069 0.56085 0.94889 1.06100
Ni	Ni	0.43914 0.45932 0.94890 1.06100
O 	O 	0.48114 0.51875 0.96408 -0.59600
C 	C 	0.42180 0.21070 0.88203 0.02600
C 	C 	0.42844 0.18060 0.89736 -0.09900
H 	H 	0.42380 0.15540 0.88780 0.05500
C 	C 	0.44147 0.18640 0.92608 0.02400
C 	C 	0.44781 0.22380 0.94095 -0.09700
H 	H 	0.45590 0.22780 0.96060 0.05800
C 	C 	0.44181 0.25510 0.92607 0.02400
C 	C 	0.42863 0.24800 0.89739 -0.09800
H 	H 	0.42400 0.26850 0.88780 0.05500
C 	C 	0.40498 0.20250 0.85207 0.03800
C 	C 	0.38000 0.16020 0.84110 -0.21900
H 	H 	0.37390 0.13700 0.85340 0.09300
C 	C 	0.36390 0.15100 0.81310 0.16300
H 	H 	0.34770 0.12240 0.80670 -0.04100
C 	C 	0.36350 0.21240 0.81310 0.19600
H 	H 	0.34650 0.22410 0.80680 -0.05300
C 	C 	0.38030 0.22020 0.84100 -0.24900
H 	H 	0.37510 0.23820 0.85310 0.10300
C 	C 	0.37247 0.18633 0.79407 -0.11800
C 	C 	0.44681 0.29390 0.94273 0.06300
C 	C 	0.43576 0.29060 0.97137 -0.14100
H 	H 	0.42560 0.26400 0.98080 0.07000
C 	C 	0.43952 0.32610 0.98734 0.06600
H 	H 	0.43080 0.32290 0.00680 0.00300
C 	C 	0.45665 0.36645 0.97323 -0.16600
C 	C 	0.46819 0.37020 0.94455 0.05800
H 	H 	0.47920 0.39700 0.93520 0.01100
C 	C 	0.46368 0.33390 0.92872 -0.13600
H 	H 	0.47200 0.33680 0.90920 0.07300
C 	C 	0.44705 0.15320 0.94261 0.06000
C 	C 	0.43570 0.14520 0.97139 -0.13800
H 	H 	0.42520 0.16130 0.98080 0.06900
C 	C 	0.43940 0.11310 0.98734 0.06300
H 	H 	0.43060 0.10750 0.00680 0.00400
C 	C 	0.45657 0.09004 0.97329 -0.16400
C 	C 	0.46815 0.09790 0.94450 0.05400
H 	H 	0.47920 0.08210 0.93520 0.01200
C 	C 	0.46338 0.12960 0.92873 -0.13200
H 	H 	0.47130 0.13460 0.90910 0.07100
C 	C 	0.46095 0.40425 0.99106 0.40500
O 	O 	0.45115 0.39774 0.01703 -0.48300
O 	O 	0.47583 0.44099 0.97759 -0.52800
C 	C 	0.46109 0.05676 0.99111 0.40400
O 	O 	0.45125 0.05344 0.01710 -0.48400
O 	O 	0.47579 0.03479 0.97755 -0.52900
C 	C 	0.35318 0.17661 0.76415 0.39400
O 	O 	0.34586 0.20468 0.75283 -0.47800
O 	O 	0.34578 0.14118 0.75299 -0.47800
C 	C 	0.83070 0.60380 0.80440 -0.17300
C 	C 	0.82090 0.58540 0.83220 0.12700
C 	C 	0.76440 0.58620 0.83240 0.09800
C 	C 	0.77290 0.60390 0.80490 -0.14400
H 	H 	0.84940 0.59930 0.79250 0.08500
H 	H 	0.83040 0.56620 0.83750 -0.02300
H 	H 	0.73570 0.56790 0.83810 -0.01200
H 	H 	0.74960 0.59940 0.79310 0.07500
Ni	Ni	0.20736 0.89418 0.28222 1.06100
Ni	Ni	0.10581 0.79265 0.28223 1.06100
O 	O 	0.14781 0.85208 0.29741 -0.59700
C 	C 	0.08847 0.54403 0.21536 0.02700
C 	C 	0.09511 0.51393 0.23069 -0.10000
H 	H 	0.09047 0.48873 0.22113 0.05600
C 	C 	0.10814 0.51973 0.25941 0.02600
C 	C 	0.11448 0.55713 0.27428 -0.09800
H 	H 	0.12257 0.56113 0.29393 0.05900
C 	C 	0.10848 0.58843 0.25940 0.02500
C 	C 	0.09530 0.58133 0.23072 -0.09900
H 	H 	0.09067 0.60183 0.22113 0.05600
C 	C 	0.07165 0.53583 0.18540 0.03800
C 	C 	0.04667 0.49353 0.17443 -0.21900
H 	H 	0.04057 0.47033 0.18673 0.09300
C 	C 	0.03057 0.48433 0.14643 0.16300
H 	H 	0.01437 0.45573 0.14003 -0.04200
C 	C 	0.03017 0.54573 0.14643 0.19600
H 	H 	0.01317 0.55743 0.14013 -0.05300
C 	C 	0.04697 0.55353 0.17433 -0.25000
H 	H 	0.04177 0.57153 0.18643 0.10300
C 	C 	0.03914 0.51966 0.12740 -0.11800
C 	C 	0.11348 0.62723 0.27606 0.06000
C 	C 	0.10243 0.62393 0.30470 -0.13700
H 	H 	0.09227 0.59733 0.31413 0.06800
C 	C 	0.10619 0.65943 0.32067 0.06000
H 	H 	0.09747 0.65623 0.34013 0.00600
C 	C 	0.12332 0.69978 0.30656 -0.16300
C 	C 	0.13486 0.70353 0.27788 0.05500
H 	H 	0.14587 0.73033 0.26853 0.01200
C 	C 	0.13035 0.66723 0.26205 -0.13300
H 	H 	0.13867 0.67013 0.24253 0.07200
C 	C 	0.11372 0.48653 0.27594 0.05700
C 	C 	0.10237 0.47853 0.30472 -0.13400
H 	H 	0.09187 0.49463 0.31413 0.06700
C 	C 	0.10607 0.44643 0.32067 0.05800
H 	H 	0.09727 0.44083 0.34013 0.00700
C 	C 	0.12324 0.42337 0.30662 -0.16100
C 	C 	0.13482 0.43123 0.27783 0.05200
H 	H 	0.14587 0.41543 0.26853 0.01300
C 	C 	0.13005 0.46293 0.26206 -0.13000
H 	H 	0.13797 0.46793 0.24243 0.07000
C 	C 	0.12762 0.73758 0.32439 0.40200
O 	O 	0.11782 0.73107 0.35036 -0.48100
O 	O 	0.14250 0.77432 0.31092 -0.52800
C 	C 	0.12776 0.39009 0.32444 0.40100
O 	O 	0.11792 0.38677 0.35043 -0.48100
O 	O 	0.14246 0.36812 0.31088 -0.52700
C 	C 	0.01985 0.50994 0.09748 0.39400
O 	O 	0.01253 0.53801 0.08616 -0.47900
O 	O 	0.01245 0.47451 0.08632 -0.47900
C 	C 	0.49737 0.93713 0.13773 -0.17300
C 	C 	0.48757 0.91873 0.16553 0.12700
C 	C 	0.43107 0.91953 0.16573 0.09800
C 	C 	0.43957 0.93723 0.13823 -0.14400
H 	H 	0.51607 0.93263 0.12583 0.08500
H 	H 	0.49707 0.89953 0.17083 -0.02200
H 	H 	0.40237 0.90123 0.17143 -0.01200
H 	H 	0.41627 0.93273 0.12643 0.07500
Ni	Ni	0.87402 0.22752 0.61556 1.06100
Ni	Ni	0.77247 0.12599 0.61556 1.06100
O 	O 	0.81447 0.18542 0.63075 -0.59700
C 	C 	0.75513 0.87737 0.54870 0.02600
C 	C 	0.76177 0.84727 0.56403 -0.09800
H 	H 	0.75713 0.82207 0.55447 0.05500
C 	C 	0.77480 0.85307 0.59275 0.02500
C 	C 	0.78114 0.89047 0.60762 -0.09600
H 	H 	0.78923 0.89447 0.62727 0.05800
C 	C 	0.77514 0.92177 0.59274 0.02200
C 	C 	0.76196 0.91467 0.56406 -0.09700
H 	H 	0.75733 0.93517 0.55447 0.05500
C 	C 	0.73831 0.86917 0.51874 0.03800
C 	C 	0.71333 0.82687 0.50777 -0.21900
H 	H 	0.70723 0.80367 0.52007 0.09300
C 	C 	0.69723 0.81767 0.47977 0.16300
H 	H 	0.68103 0.78907 0.47337 -0.04100
C 	C 	0.69683 0.87907 0.47977 0.19700
H 	H 	0.67983 0.89077 0.47347 -0.05200
C 	C 	0.71363 0.88687 0.50767 -0.25000
H 	H 	0.70843 0.90487 0.51977 0.10400
C 	C 	0.70580 0.85300 0.46074 -0.11800
C 	C 	0.78014 0.96057 0.60940 0.07000
C 	C 	0.76909 0.95727 0.63804 -0.14500
H 	H 	0.75893 0.93067 0.64747 0.07200
C 	C 	0.77285 0.99277 0.65401 0.07100
H 	H 	0.76413 0.98957 0.67347 0.00400
C 	C 	0.78998 0.03312 0.63990 -0.17100
C 	C 	0.80152 0.03687 0.61122 0.06300
H 	H 	0.81253 0.06367 0.60187 0.00900
C 	C 	0.79701 0.00057 0.59539 -0.14400
H 	H 	0.80533 0.00347 0.57587 0.07500
C 	C 	0.78038 0.81987 0.60928 0.05800
C 	C 	0.76903 0.81187 0.63806 -0.13400
H 	H 	0.75853 0.82797 0.64747 0.06800
C 	C 	0.77273 0.77977 0.65401 0.05800
H 	H 	0.76393 0.77417 0.67347 0.00700
C 	C 	0.78990 0.75671 0.63996 -0.16100
C 	C 	0.80148 0.76457 0.61117 0.05200
H 	H 	0.81253 0.74877 0.60187 0.01300
C 	C 	0.79671 0.79627 0.59540 -0.13000
H 	H 	0.80463 0.80127 0.57577 0.07100
C 	C 	0.79428 0.07092 0.65773 0.40400
O 	O 	0.78448 0.06441 0.68370 -0.48200
O 	O 	0.80916 0.10766 0.64426 -0.52800
C 	C 	0.79442 0.72343 0.65778 0.40100
O 	O 	0.78458 0.72011 0.68377 -0.48100
O 	O 	0.80912 0.70146 0.64422 -0.52700
C 	C 	0.68651 0.84328 0.43082 0.39400
O 	O 	0.67919 0.87135 0.41950 -0.47800
O 	O 	0.67911 0.80785 0.41966 -0.47700
C 	C 	0.16403 0.27047 0.47107 -0.17300
C 	C 	0.15423 0.25207 0.49887 0.12700
C 	C 	0.09773 0.25287 0.49907 0.09800
C 	C 	0.10623 0.27057 0.47157 -0.14400
H 	H 	0.18273 0.26597 0.45917 0.08500
H 	H 	0.16373 0.23287 0.50417 -0.02300
H 	H 	0.06903 0.23457 0.50477 -0.01300
H 	H 	0.08293 0.26607 0.45977 0.07400
Ni	Ni	0.50000 0.00000 -0.00000 1.09900
Ni	Ni	0.16667 0.33333 0.33333 1.10100
Ni	Ni	0.83333 0.66667 0.66667 1.10100
Ni	Ni	0.00000 0.50000 -0.00000 1.09900
Ni	Ni	0.66667 0.83333 0.33333 1.10100
Ni	Ni	0.33333 0.16667 0.66667 1.10100
Ni	Ni	0.50000 0.50000 -0.00000 1.10100
Ni	Ni	0.16667 0.83333 0.33333 1.10100
Ni	Ni	0.83333 0.16667 0.66667 1.10100
