data_crystal

_cell_length_a 21.18820
_cell_length_b 21.18820
_cell_length_c 21.18820
_cell_angle_alpha 90.00000
_cell_angle_beta  90.00000
_cell_angle_gamma 90.00000

_symmetry_space_group_name_	'P 1'
_symmetry_space_group_name_H-M	'P 1'

loop_
_symmetry_equiv_pos_as_xyz
  x,y,z

loop_
_atom_site_label
_atom_site_type_symbol
_atom_site_fract_x
_atom_site_fract_y
_atom_site_fract_z
_atom_site_charge
N 	N 	0.56600 0.69360 0.06660 -0.23900
C 	C 	0.58300 0.75430 0.08490 0.06300
H 	H 	0.56510 0.78910 0.06490 -0.02400
C 	C 	0.62670 0.76300 0.13300 -0.14700
H 	H 	0.63800 0.80360 0.14530 0.07900
C 	C 	0.65330 0.71110 0.16290 0.08300
C 	C 	0.63640 0.65040 0.14460 -0.14800
H 	H 	0.65420 0.61560 0.16460 0.07500
C 	C 	0.59270 0.64170 0.09640 0.06500
H 	H 	0.58140 0.60110 0.08420 -0.02700
C 	C 	0.68980 0.72110 0.21380 -0.01300
C 	C 	0.73960 0.68130 0.22910 -0.06000
H 	H 	0.74370 0.64510 0.20460 0.04700
N 	N 	0.43400 0.30640 0.06660 -0.23900
C 	C 	0.41700 0.24570 0.08490 0.06000
H 	H 	0.43490 0.21090 0.06490 -0.02900
C 	C 	0.37330 0.23700 0.13300 -0.14700
H 	H 	0.36200 0.19640 0.14530 0.07100
C 	C 	0.34670 0.28890 0.16290 0.08000
C 	C 	0.36360 0.34960 0.14460 -0.14700
H 	H 	0.34580 0.38440 0.16460 0.07500
C 	C 	0.40730 0.35830 0.09640 0.06400
H 	H 	0.41860 0.39890 0.08420 -0.02700
C 	C 	0.31020 0.27890 0.21380 -0.01500
C 	C 	0.26040 0.31870 0.22910 -0.06000
H 	H 	0.25630 0.35490 0.20460 0.04500
N 	N 	0.43400 0.69360 0.93340 -0.22400
C 	C 	0.41700 0.75430 0.91510 0.06900
H 	H 	0.43490 0.78910 0.93510 -0.00800
C 	C 	0.37330 0.76300 0.86700 -0.14100
H 	H 	0.36200 0.80360 0.85470 0.08400
C 	C 	0.34670 0.71110 0.83710 0.08500
C 	C 	0.36360 0.65040 0.85540 -0.14300
H 	H 	0.34580 0.61560 0.83540 0.07800
C 	C 	0.40730 0.64170 0.90360 0.07100
H 	H 	0.41860 0.60110 0.91580 -0.01500
C 	C 	0.31020 0.72110 0.78620 -0.01000
C 	C 	0.26040 0.68130 0.77090 -0.05800
H 	H 	0.25630 0.64510 0.79540 0.04900
N 	N 	0.56600 0.30640 0.93340 -0.22400
C 	C 	0.58300 0.24570 0.91510 0.06800
H 	H 	0.56510 0.21090 0.93510 -0.01300
C 	C 	0.62670 0.23700 0.86700 -0.14200
H 	H 	0.63800 0.19640 0.85470 0.07900
C 	C 	0.65330 0.28890 0.83710 0.08500
C 	C 	0.63640 0.34960 0.85540 -0.14300
H 	H 	0.65420 0.38440 0.83540 0.07900
C 	C 	0.59270 0.35830 0.90360 0.07100
H 	H 	0.58140 0.39890 0.91580 -0.01400
C 	C 	0.68980 0.27890 0.78620 -0.01100
C 	C 	0.73960 0.31870 0.77090 -0.05800
H 	H 	0.74370 0.35490 0.79540 0.05100
N 	N 	0.06660 0.56600 0.69360 -0.23800
C 	C 	0.08490 0.58300 0.75430 0.06400
H 	H 	0.06490 0.56510 0.78910 -0.02300
C 	C 	0.13300 0.62670 0.76300 -0.14600
H 	H 	0.14530 0.63800 0.80360 0.08000
C 	C 	0.16290 0.65330 0.71110 0.08400
C 	C 	0.14460 0.63640 0.65040 -0.14700
H 	H 	0.16460 0.65420 0.61560 0.07600
C 	C 	0.09640 0.59270 0.64170 0.06600
H 	H 	0.08420 0.58140 0.60110 -0.02600
C 	C 	0.21380 0.68980 0.72110 -0.01200
C 	C 	0.22910 0.73960 0.68130 -0.05900
H 	H 	0.20460 0.74370 0.64510 0.04700
N 	N 	0.06660 0.43400 0.30640 -0.23900
C 	C 	0.08490 0.41700 0.24570 0.06000
H 	H 	0.06490 0.43490 0.21090 -0.02900
C 	C 	0.13300 0.37330 0.23700 -0.14700
H 	H 	0.14530 0.36200 0.19640 0.07100
C 	C 	0.16290 0.34670 0.28890 0.08000
C 	C 	0.14460 0.36360 0.34960 -0.14700
H 	H 	0.16460 0.34580 0.38440 0.07500
C 	C 	0.09640 0.40730 0.35830 0.06400
H 	H 	0.08420 0.41860 0.39890 -0.02700
C 	C 	0.21380 0.31020 0.27890 -0.01500
C 	C 	0.22910 0.26040 0.31870 -0.06000
H 	H 	0.20460 0.25630 0.35490 0.04500
N 	N 	0.93340 0.43400 0.69360 -0.22400
C 	C 	0.91510 0.41700 0.75430 0.06900
H 	H 	0.93510 0.43490 0.78910 -0.00800
C 	C 	0.86700 0.37330 0.76300 -0.14100
H 	H 	0.85470 0.36200 0.80360 0.08400
C 	C 	0.83710 0.34670 0.71110 0.08500
C 	C 	0.85540 0.36360 0.65040 -0.14300
H 	H 	0.83540 0.34580 0.61560 0.07800
C 	C 	0.90360 0.40730 0.64170 0.07100
H 	H 	0.91580 0.41860 0.60110 -0.01500
C 	C 	0.78620 0.31020 0.72110 -0.01000
C 	C 	0.77090 0.26040 0.68130 -0.05800
H 	H 	0.79540 0.25630 0.64510 0.04900
N 	N 	0.93340 0.56600 0.30640 -0.22400
C 	C 	0.91510 0.58300 0.24570 0.06800
H 	H 	0.93510 0.56510 0.21090 -0.01300
C 	C 	0.86700 0.62670 0.23700 -0.14200
H 	H 	0.85470 0.63800 0.19640 0.07900
C 	C 	0.83710 0.65330 0.28890 0.08500
C 	C 	0.85540 0.63640 0.34960 -0.14300
H 	H 	0.83540 0.65420 0.38440 0.07900
C 	C 	0.90360 0.59270 0.35830 0.07100
H 	H 	0.91580 0.58140 0.39890 -0.01400
C 	C 	0.78620 0.68980 0.27890 -0.01100
C 	C 	0.77090 0.73960 0.31870 -0.05800
H 	H 	0.79540 0.74370 0.35490 0.05100
N 	N 	0.69360 0.06660 0.56600 -0.23800
C 	C 	0.75430 0.08490 0.58300 0.06400
H 	H 	0.78910 0.06490 0.56510 -0.02300
C 	C 	0.76300 0.13300 0.62670 -0.14600
H 	H 	0.80360 0.14530 0.63800 0.08000
C 	C 	0.71110 0.16290 0.65330 0.08400
C 	C 	0.65040 0.14460 0.63640 -0.14700
H 	H 	0.61560 0.16460 0.65420 0.07600
C 	C 	0.64170 0.09640 0.59270 0.06600
H 	H 	0.60110 0.08420 0.58140 -0.02600
C 	C 	0.72110 0.21380 0.68980 -0.01200
C 	C 	0.68130 0.22910 0.73960 -0.05900
H 	H 	0.64510 0.20460 0.74370 0.04700
N 	N 	0.30640 0.06660 0.43400 -0.23900
C 	C 	0.24570 0.08490 0.41700 0.06000
H 	H 	0.21090 0.06490 0.43490 -0.02900
C 	C 	0.23700 0.13300 0.37330 -0.14700
H 	H 	0.19640 0.14530 0.36200 0.07100
C 	C 	0.28890 0.16290 0.34670 0.08000
C 	C 	0.34960 0.14460 0.36360 -0.14700
H 	H 	0.38440 0.16460 0.34580 0.07500
C 	C 	0.35830 0.09640 0.40730 0.06400
H 	H 	0.39890 0.08420 0.41860 -0.02700
C 	C 	0.27890 0.21380 0.31020 -0.01500
C 	C 	0.31870 0.22910 0.26040 -0.06000
H 	H 	0.35490 0.20460 0.25630 0.04500
N 	N 	0.69360 0.93340 0.43400 -0.22400
C 	C 	0.75430 0.91510 0.41700 0.06900
H 	H 	0.78910 0.93510 0.43490 -0.00800
C 	C 	0.76300 0.86700 0.37330 -0.14100
H 	H 	0.80360 0.85470 0.36200 0.08400
C 	C 	0.71110 0.83710 0.34670 0.08500
C 	C 	0.65040 0.85540 0.36360 -0.14300
H 	H 	0.61560 0.83540 0.34580 0.07800
C 	C 	0.64170 0.90360 0.40730 0.07100
H 	H 	0.60110 0.91580 0.41860 -0.01500
C 	C 	0.72110 0.78620 0.31020 -0.01000
C 	C 	0.68130 0.77090 0.26040 -0.05800
H 	H 	0.64510 0.79540 0.25630 0.04900
N 	N 	0.30640 0.93340 0.56600 -0.22400
C 	C 	0.24570 0.91510 0.58300 0.06800
H 	H 	0.21090 0.93510 0.56510 -0.01300
C 	C 	0.23700 0.86700 0.62670 -0.14200
H 	H 	0.19640 0.85470 0.63800 0.07900
C 	C 	0.28890 0.83710 0.65330 0.08500
C 	C 	0.34960 0.85540 0.63640 -0.14300
H 	H 	0.38440 0.83540 0.65420 0.07900
C 	C 	0.35830 0.90360 0.59270 0.07100
H 	H 	0.39890 0.91580 0.58140 -0.01400
C 	C 	0.27890 0.78620 0.68980 -0.01100
C 	C 	0.31870 0.77090 0.73960 -0.05800
H 	H 	0.35490 0.79540 0.74370 0.05100
N 	N 	0.43400 0.30640 0.93340 -0.22400
C 	C 	0.41700 0.24570 0.91510 0.06700
H 	H 	0.43490 0.21090 0.93510 -0.01300
C 	C 	0.37330 0.23700 0.86700 -0.14200
H 	H 	0.36200 0.19640 0.85470 0.07700
C 	C 	0.34670 0.28890 0.83710 0.08300
C 	C 	0.36360 0.34960 0.85540 -0.14300
H 	H 	0.34580 0.38440 0.83540 0.07800
C 	C 	0.40730 0.35830 0.90360 0.07000
H 	H 	0.41860 0.39890 0.91580 -0.01400
C 	C 	0.31020 0.27890 0.78620 -0.01200
C 	C 	0.26040 0.31870 0.77090 -0.05900
H 	H 	0.25630 0.35490 0.79540 0.04900
N 	N 	0.56600 0.69360 0.93340 -0.22400
C 	C 	0.58300 0.75430 0.91510 0.07000
H 	H 	0.56510 0.78910 0.93510 -0.00800
C 	C 	0.62670 0.76300 0.86700 -0.14100
H 	H 	0.63800 0.80360 0.85470 0.08600
C 	C 	0.65330 0.71110 0.83710 0.08700
C 	C 	0.63640 0.65040 0.85540 -0.14300
H 	H 	0.65420 0.61560 0.83540 0.07900
C 	C 	0.59270 0.64170 0.90360 0.07200
H 	H 	0.58140 0.60110 0.91580 -0.01400
C 	C 	0.68980 0.72110 0.78620 -0.00900
C 	C 	0.73960 0.68130 0.77090 -0.05800
H 	H 	0.74370 0.64510 0.79540 0.05100
N 	N 	0.56600 0.30640 0.06660 -0.23900
C 	C 	0.58300 0.24570 0.08490 0.06200
H 	H 	0.56510 0.21090 0.06490 -0.02900
C 	C 	0.62670 0.23700 0.13300 -0.14600
H 	H 	0.63800 0.19640 0.14530 0.07300
C 	C 	0.65330 0.28890 0.16290 0.08200
C 	C 	0.63640 0.34960 0.14460 -0.14700
H 	H 	0.65420 0.38440 0.16460 0.07600
C 	C 	0.59270 0.35830 0.09640 0.06500
H 	H 	0.58140 0.39890 0.08420 -0.02600
C 	C 	0.68980 0.27890 0.21380 -0.01400
C 	C 	0.73960 0.31870 0.22910 -0.05900
H 	H 	0.74370 0.35490 0.20460 0.04700
N 	N 	0.43400 0.69360 0.06660 -0.23800
C 	C 	0.41700 0.75430 0.08490 0.06200
H 	H 	0.43490 0.78910 0.06490 -0.02400
C 	C 	0.37330 0.76300 0.13300 -0.14600
H 	H 	0.36200 0.80360 0.14530 0.07800
C 	C 	0.34670 0.71110 0.16290 0.08200
C 	C 	0.36360 0.65040 0.14460 -0.14800
H 	H 	0.34580 0.61560 0.16460 0.07500
C 	C 	0.40730 0.64170 0.09640 0.06500
H 	H 	0.41860 0.60110 0.08420 -0.02700
C 	C 	0.31020 0.72110 0.21380 -0.01300
C 	C 	0.26040 0.68130 0.22910 -0.05900
H 	H 	0.25630 0.64510 0.20460 0.04600
N 	N 	0.93340 0.43400 0.30640 -0.22400
C 	C 	0.91510 0.41700 0.24570 0.06700
H 	H 	0.93510 0.43490 0.21090 -0.01300
C 	C 	0.86700 0.37330 0.23700 -0.14200
H 	H 	0.85470 0.36200 0.19640 0.07700
C 	C 	0.83710 0.34670 0.28890 0.08300
C 	C 	0.85540 0.36360 0.34960 -0.14300
H 	H 	0.83540 0.34580 0.38440 0.07800
C 	C 	0.90360 0.40730 0.35830 0.07000
H 	H 	0.91580 0.41860 0.39890 -0.01400
C 	C 	0.78620 0.31020 0.27890 -0.01200
C 	C 	0.77090 0.26040 0.31870 -0.05900
H 	H 	0.79540 0.25630 0.35490 0.04900
N 	N 	0.93340 0.56600 0.69360 -0.22400
C 	C 	0.91510 0.58300 0.75430 0.07000
H 	H 	0.93510 0.56510 0.78910 -0.00800
C 	C 	0.86700 0.62670 0.76300 -0.14100
H 	H 	0.85470 0.63800 0.80360 0.08600
C 	C 	0.83710 0.65330 0.71110 0.08700
C 	C 	0.85540 0.63640 0.65040 -0.14300
H 	H 	0.83540 0.65420 0.61560 0.07900
C 	C 	0.90360 0.59270 0.64170 0.07200
H 	H 	0.91580 0.58140 0.60110 -0.01400
C 	C 	0.78620 0.68980 0.72110 -0.00900
C 	C 	0.77090 0.73960 0.68130 -0.05800
H 	H 	0.79540 0.74370 0.64510 0.05100
N 	N 	0.06660 0.56600 0.30640 -0.23900
C 	C 	0.08490 0.58300 0.24570 0.06200
H 	H 	0.06490 0.56510 0.21090 -0.02900
C 	C 	0.13300 0.62670 0.23700 -0.14600
H 	H 	0.14530 0.63800 0.19640 0.07300
C 	C 	0.16290 0.65330 0.28890 0.08200
C 	C 	0.14460 0.63640 0.34960 -0.14700
H 	H 	0.16460 0.65420 0.38440 0.07600
C 	C 	0.09640 0.59270 0.35830 0.06500
H 	H 	0.08420 0.58140 0.39890 -0.02600
C 	C 	0.21380 0.68980 0.27890 -0.01400
C 	C 	0.22910 0.73960 0.31870 -0.05900
H 	H 	0.20460 0.74370 0.35490 0.04700
N 	N 	0.06660 0.43400 0.69360 -0.23800
C 	C 	0.08490 0.41700 0.75430 0.06200
H 	H 	0.06490 0.43490 0.78910 -0.02400
C 	C 	0.13300 0.37330 0.76300 -0.14600
H 	H 	0.14530 0.36200 0.80360 0.07800
C 	C 	0.16290 0.34670 0.71110 0.08200
C 	C 	0.14460 0.36360 0.65040 -0.14800
H 	H 	0.16460 0.34580 0.61560 0.07500
C 	C 	0.09640 0.40730 0.64170 0.06500
H 	H 	0.08420 0.41860 0.60110 -0.02700
C 	C 	0.21380 0.31020 0.72110 -0.01300
C 	C 	0.22910 0.26040 0.68130 -0.05900
H 	H 	0.20460 0.25630 0.64510 0.04600
N 	N 	0.30640 0.93340 0.43400 -0.22400
C 	C 	0.24570 0.91510 0.41700 0.06700
H 	H 	0.21090 0.93510 0.43490 -0.01300
C 	C 	0.23700 0.86700 0.37330 -0.14200
H 	H 	0.19640 0.85470 0.36200 0.07700
C 	C 	0.28890 0.83710 0.34670 0.08300
C 	C 	0.34960 0.85540 0.36360 -0.14300
H 	H 	0.38440 0.83540 0.34580 0.07800
C 	C 	0.35830 0.90360 0.40730 0.07000
H 	H 	0.39890 0.91580 0.41860 -0.01400
C 	C 	0.27890 0.78620 0.31020 -0.01200
C 	C 	0.31870 0.77090 0.26040 -0.05900
H 	H 	0.35490 0.79540 0.25630 0.04900
N 	N 	0.69360 0.93340 0.56600 -0.22400
C 	C 	0.75430 0.91510 0.58300 0.07000
H 	H 	0.78910 0.93510 0.56510 -0.00800
C 	C 	0.76300 0.86700 0.62670 -0.14100
H 	H 	0.80360 0.85470 0.63800 0.08600
C 	C 	0.71110 0.83710 0.65330 0.08700
C 	C 	0.65040 0.85540 0.63640 -0.14300
H 	H 	0.61560 0.83540 0.65420 0.07900
C 	C 	0.64170 0.90360 0.59270 0.07200
H 	H 	0.60110 0.91580 0.58140 -0.01400
C 	C 	0.72110 0.78620 0.68980 -0.00900
C 	C 	0.68130 0.77090 0.73960 -0.05800
H 	H 	0.64510 0.79540 0.74370 0.05100
N 	N 	0.30640 0.06660 0.56600 -0.23900
C 	C 	0.24570 0.08490 0.58300 0.06200
H 	H 	0.21090 0.06490 0.56510 -0.02900
C 	C 	0.23700 0.13300 0.62670 -0.14600
H 	H 	0.19640 0.14530 0.63800 0.07300
C 	C 	0.28890 0.16290 0.65330 0.08200
C 	C 	0.34960 0.14460 0.63640 -0.14700
H 	H 	0.38440 0.16460 0.65420 0.07600
C 	C 	0.35830 0.09640 0.59270 0.06500
H 	H 	0.39890 0.08420 0.58140 -0.02600
C 	C 	0.27890 0.21380 0.68980 -0.01400
C 	C 	0.31870 0.22910 0.73960 -0.05900
H 	H 	0.35490 0.20460 0.74370 0.04700
N 	N 	0.69360 0.06660 0.43400 -0.23800
C 	C 	0.75430 0.08490 0.41700 0.06200
H 	H 	0.78910 0.06490 0.43490 -0.02400
C 	C 	0.76300 0.13300 0.37330 -0.14600
H 	H 	0.80360 0.14530 0.36200 0.07800
C 	C 	0.71110 0.16290 0.34670 0.08200
C 	C 	0.65040 0.14460 0.36360 -0.14800
H 	H 	0.61560 0.16460 0.34580 0.07500
C 	C 	0.64170 0.09640 0.40730 0.06500
H 	H 	0.60110 0.08420 0.41860 -0.02700
C 	C 	0.72110 0.21380 0.31020 -0.01300
C 	C 	0.68130 0.22910 0.26040 -0.05900
H 	H 	0.64510 0.20460 0.25630 0.04600
Cu	Cu	0.50000 0.68697 -0.00000 0.84000
Cu	Cu	0.50000 0.31303 -0.00000 0.83900
Cu	Cu	-0.00000 0.50000 0.68697 0.84000
Cu	Cu	-0.00000 0.50000 0.31303 0.83900
Cu	Cu	0.68697 0.00000 0.50000 0.84000
Cu	Cu	0.31303 0.00000 0.50000 0.83900
