data_crystal

_cell_length_a 21.23790
_cell_length_b 21.23790
_cell_length_c 21.23790
_cell_angle_alpha 90.00000
_cell_angle_beta  90.00000
_cell_angle_gamma 90.00000

_symmetry_space_group_name_	'P 1'
_symmetry_space_group_name_H-M	'P 1'

loop_
_symmetry_equiv_pos_as_xyz
  x,y,z

loop_
_atom_site_label
_atom_site_type_symbol
_atom_site_fract_x
_atom_site_fract_y
_atom_site_fract_z
_atom_site_charge
N 	N 	0.56600 0.70400 0.06800 -0.23000
C 	C 	0.58450 0.76380 0.08730 0.04100
H 	H 	0.56630 0.80000 0.06850 -0.01700
C 	C 	0.62980 0.77040 0.13410 -0.10600
H 	H 	0.64250 0.81120 0.14730 0.06200
C 	C 	0.65650 0.71740 0.16160 0.02700
C 	C 	0.63790 0.65760 0.14230 -0.10600
H 	H 	0.65610 0.62140 0.16110 0.05800
C 	C 	0.59260 0.65100 0.09550 0.04400
H 	H 	0.57990 0.61020 0.08230 -0.01900
C 	C 	0.69210 0.72590 0.22030 0.08100
C 	C 	0.73940 0.68180 0.22920 -0.15100
H 	H 	0.74230 0.64530 0.20340 0.07600
N 	N 	0.43400 0.29600 0.06800 -0.22900
C 	C 	0.41550 0.23620 0.08730 0.03900
H 	H 	0.43370 0.20000 0.06850 -0.02200
C 	C 	0.37020 0.22960 0.13410 -0.10600
H 	H 	0.35750 0.18880 0.14730 0.05300
C 	C 	0.34350 0.28260 0.16160 0.02400
C 	C 	0.36210 0.34240 0.14230 -0.10600
H 	H 	0.34390 0.37860 0.16110 0.05700
C 	C 	0.40740 0.34900 0.09550 0.04200
H 	H 	0.42010 0.38980 0.08230 -0.01900
C 	C 	0.30790 0.27410 0.22030 0.07700
C 	C 	0.26060 0.31820 0.22920 -0.15200
H 	H 	0.25770 0.35470 0.20340 0.07400
N 	N 	0.43400 0.70400 0.93200 -0.21500
C 	C 	0.41550 0.76380 0.91270 0.04800
H 	H 	0.43370 0.80000 0.93150 -0.00100
C 	C 	0.37020 0.77040 0.86590 -0.10100
H 	H 	0.35750 0.81120 0.85270 0.06700
C 	C 	0.34350 0.71740 0.83840 0.03000
C 	C 	0.36210 0.65760 0.85770 -0.10300
H 	H 	0.34390 0.62140 0.83890 0.06100
C 	C 	0.40740 0.65100 0.90450 0.05000
H 	H 	0.42010 0.61020 0.91770 -0.00700
C 	C 	0.30790 0.72590 0.77970 0.08100
C 	C 	0.26060 0.68180 0.77080 -0.15100
H 	H 	0.25770 0.64530 0.79660 0.07900
N 	N 	0.56600 0.29600 0.93200 -0.21500
C 	C 	0.58450 0.23620 0.91270 0.04700
H 	H 	0.56630 0.20000 0.93150 -0.00700
C 	C 	0.62980 0.22960 0.86590 -0.10200
H 	H 	0.64250 0.18880 0.85270 0.06200
C 	C 	0.65650 0.28260 0.83840 0.03000
C 	C 	0.63790 0.34240 0.85770 -0.10200
H 	H 	0.65610 0.37860 0.83890 0.06100
C 	C 	0.59260 0.34900 0.90450 0.05000
H 	H 	0.57990 0.38980 0.91770 -0.00600
C 	C 	0.69210 0.27410 0.77970 0.08100
C 	C 	0.73940 0.31820 0.77080 -0.15000
H 	H 	0.74230 0.35470 0.79660 0.08000
N 	N 	0.06800 0.56600 0.70400 -0.22900
C 	C 	0.08730 0.58450 0.76380 0.04200
H 	H 	0.06850 0.56630 0.80000 -0.01600
C 	C 	0.13410 0.62980 0.77040 -0.10500
H 	H 	0.14730 0.64250 0.81120 0.06300
C 	C 	0.16160 0.65650 0.71740 0.02800
C 	C 	0.14230 0.63790 0.65760 -0.10600
H 	H 	0.16110 0.65610 0.62140 0.05800
C 	C 	0.09550 0.59260 0.65100 0.04400
H 	H 	0.08230 0.57990 0.61020 -0.01900
C 	C 	0.22030 0.69210 0.72590 0.08100
C 	C 	0.22920 0.73940 0.68180 -0.15100
H 	H 	0.20340 0.74230 0.64530 0.07600
N 	N 	0.06800 0.43400 0.29600 -0.22900
C 	C 	0.08730 0.41550 0.23620 0.03900
H 	H 	0.06850 0.43370 0.20000 -0.02200
C 	C 	0.13410 0.37020 0.22960 -0.10600
H 	H 	0.14730 0.35750 0.18880 0.05300
C 	C 	0.16160 0.34350 0.28260 0.02400
C 	C 	0.14230 0.36210 0.34240 -0.10600
H 	H 	0.16110 0.34390 0.37860 0.05700
C 	C 	0.09550 0.40740 0.34900 0.04200
H 	H 	0.08230 0.42010 0.38980 -0.01900
C 	C 	0.22030 0.30790 0.27410 0.07700
C 	C 	0.22920 0.26060 0.31820 -0.15200
H 	H 	0.20340 0.25770 0.35470 0.07400
N 	N 	0.93200 0.43400 0.70400 -0.21500
C 	C 	0.91270 0.41550 0.76380 0.04800
H 	H 	0.93150 0.43370 0.80000 -0.00100
C 	C 	0.86590 0.37020 0.77040 -0.10100
H 	H 	0.85270 0.35750 0.81120 0.06700
C 	C 	0.83840 0.34350 0.71740 0.03000
C 	C 	0.85770 0.36210 0.65760 -0.10300
H 	H 	0.83890 0.34390 0.62140 0.06100
C 	C 	0.90450 0.40740 0.65100 0.05000
H 	H 	0.91770 0.42010 0.61020 -0.00700
C 	C 	0.77970 0.30790 0.72590 0.08100
C 	C 	0.77080 0.26060 0.68180 -0.15100
H 	H 	0.79660 0.25770 0.64530 0.07900
N 	N 	0.93200 0.56600 0.29600 -0.21500
C 	C 	0.91270 0.58450 0.23620 0.04700
H 	H 	0.93150 0.56630 0.20000 -0.00700
C 	C 	0.86590 0.62980 0.22960 -0.10200
H 	H 	0.85270 0.64250 0.18880 0.06200
C 	C 	0.83840 0.65650 0.28260 0.03000
C 	C 	0.85770 0.63790 0.34240 -0.10200
H 	H 	0.83890 0.65610 0.37860 0.06100
C 	C 	0.90450 0.59260 0.34900 0.05000
H 	H 	0.91770 0.57990 0.38980 -0.00600
C 	C 	0.77970 0.69210 0.27410 0.08100
C 	C 	0.77080 0.73940 0.31820 -0.15000
H 	H 	0.79660 0.74230 0.35470 0.08000
N 	N 	0.70400 0.06800 0.56600 -0.22900
C 	C 	0.76380 0.08730 0.58450 0.04200
H 	H 	0.80000 0.06850 0.56630 -0.01600
C 	C 	0.77040 0.13410 0.62980 -0.10500
H 	H 	0.81120 0.14730 0.64250 0.06300
C 	C 	0.71740 0.16160 0.65650 0.02800
C 	C 	0.65760 0.14230 0.63790 -0.10600
H 	H 	0.62140 0.16110 0.65610 0.05800
C 	C 	0.65100 0.09550 0.59260 0.04400
H 	H 	0.61020 0.08230 0.57990 -0.01900
C 	C 	0.72590 0.22030 0.69210 0.08100
C 	C 	0.68180 0.22920 0.73940 -0.15100
H 	H 	0.64530 0.20340 0.74230 0.07600
N 	N 	0.29600 0.06800 0.43400 -0.22900
C 	C 	0.23620 0.08730 0.41550 0.03900
H 	H 	0.20000 0.06850 0.43370 -0.02200
C 	C 	0.22960 0.13410 0.37020 -0.10600
H 	H 	0.18880 0.14730 0.35750 0.05300
C 	C 	0.28260 0.16160 0.34350 0.02400
C 	C 	0.34240 0.14230 0.36210 -0.10600
H 	H 	0.37860 0.16110 0.34390 0.05700
C 	C 	0.34900 0.09550 0.40740 0.04200
H 	H 	0.38980 0.08230 0.42010 -0.01900
C 	C 	0.27410 0.22030 0.30790 0.07700
C 	C 	0.31820 0.22920 0.26060 -0.15200
H 	H 	0.35470 0.20340 0.25770 0.07400
N 	N 	0.70400 0.93200 0.43400 -0.21500
C 	C 	0.76380 0.91270 0.41550 0.04800
H 	H 	0.80000 0.93150 0.43370 -0.00100
C 	C 	0.77040 0.86590 0.37020 -0.10100
H 	H 	0.81120 0.85270 0.35750 0.06700
C 	C 	0.71740 0.83840 0.34350 0.03000
C 	C 	0.65760 0.85770 0.36210 -0.10300
H 	H 	0.62140 0.83890 0.34390 0.06100
C 	C 	0.65100 0.90450 0.40740 0.05000
H 	H 	0.61020 0.91770 0.42010 -0.00700
C 	C 	0.72590 0.77970 0.30790 0.08100
C 	C 	0.68180 0.77080 0.26060 -0.15100
H 	H 	0.64530 0.79660 0.25770 0.07900
N 	N 	0.29600 0.93200 0.56600 -0.21500
C 	C 	0.23620 0.91270 0.58450 0.04700
H 	H 	0.20000 0.93150 0.56630 -0.00700
C 	C 	0.22960 0.86590 0.62980 -0.10200
H 	H 	0.18880 0.85270 0.64250 0.06200
C 	C 	0.28260 0.83840 0.65650 0.03000
C 	C 	0.34240 0.85770 0.63790 -0.10200
H 	H 	0.37860 0.83890 0.65610 0.06100
C 	C 	0.34900 0.90450 0.59260 0.05000
H 	H 	0.38980 0.91770 0.57990 -0.00600
C 	C 	0.27410 0.77970 0.69210 0.08100
C 	C 	0.31820 0.77080 0.73940 -0.15000
H 	H 	0.35470 0.79660 0.74230 0.08000
N 	N 	0.43400 0.29600 0.93200 -0.21600
C 	C 	0.41550 0.23620 0.91270 0.04600
H 	H 	0.43370 0.20000 0.93150 -0.00700
C 	C 	0.37020 0.22960 0.86590 -0.10200
H 	H 	0.35750 0.18880 0.85270 0.05900
C 	C 	0.34350 0.28260 0.83840 0.02800
C 	C 	0.36210 0.34240 0.85770 -0.10200
H 	H 	0.34390 0.37860 0.83890 0.06100
C 	C 	0.40740 0.34900 0.90450 0.04900
H 	H 	0.42010 0.38980 0.91770 -0.00700
C 	C 	0.30790 0.27410 0.77970 0.08000
C 	C 	0.26060 0.31820 0.77080 -0.15100
H 	H 	0.25770 0.35470 0.79660 0.07800
N 	N 	0.56600 0.70400 0.93200 -0.21500
C 	C 	0.58450 0.76380 0.91270 0.04900
H 	H 	0.56630 0.80000 0.93150 -0.00100
C 	C 	0.62980 0.77040 0.86590 -0.10100
H 	H 	0.64250 0.81120 0.85270 0.06900
C 	C 	0.65650 0.71740 0.83840 0.03200
C 	C 	0.63790 0.65760 0.85770 -0.10300
H 	H 	0.65610 0.62140 0.83890 0.06200
C 	C 	0.59260 0.65100 0.90450 0.05100
H 	H 	0.57990 0.61020 0.91770 -0.00700
C 	C 	0.69210 0.72590 0.77970 0.08300
C 	C 	0.73940 0.68180 0.77080 -0.15000
H 	H 	0.74230 0.64530 0.79660 0.08000
N 	N 	0.56600 0.29600 0.06800 -0.22900
C 	C 	0.58450 0.23620 0.08730 0.04000
H 	H 	0.56630 0.20000 0.06850 -0.02100
C 	C 	0.62980 0.22960 0.13410 -0.10600
H 	H 	0.64250 0.18880 0.14730 0.05500
C 	C 	0.65650 0.28260 0.16160 0.02600
C 	C 	0.63790 0.34240 0.14230 -0.10600
H 	H 	0.65610 0.37860 0.16110 0.05800
C 	C 	0.59260 0.34900 0.09550 0.04300
H 	H 	0.57990 0.38980 0.08230 -0.01900
C 	C 	0.69210 0.27410 0.22030 0.07900
C 	C 	0.73940 0.31820 0.22920 -0.15100
H 	H 	0.74230 0.35470 0.20340 0.07600
N 	N 	0.43400 0.70400 0.06800 -0.22900
C 	C 	0.41550 0.76380 0.08730 0.04100
H 	H 	0.43370 0.80000 0.06850 -0.01600
C 	C 	0.37020 0.77040 0.13410 -0.10500
H 	H 	0.35750 0.81120 0.14730 0.06100
C 	C 	0.34350 0.71740 0.16160 0.02600
C 	C 	0.36210 0.65760 0.14230 -0.10600
H 	H 	0.34390 0.62140 0.16110 0.05700
C 	C 	0.40740 0.65100 0.09550 0.04300
H 	H 	0.42010 0.61020 0.08230 -0.01900
C 	C 	0.30790 0.72590 0.22030 0.07900
C 	C 	0.26060 0.68180 0.22920 -0.15100
H 	H 	0.25770 0.64530 0.20340 0.07500
N 	N 	0.93200 0.43400 0.29600 -0.21600
C 	C 	0.91270 0.41550 0.23620 0.04600
H 	H 	0.93150 0.43370 0.20000 -0.00700
C 	C 	0.86590 0.37020 0.22960 -0.10200
H 	H 	0.85270 0.35750 0.18880 0.05900
C 	C 	0.83840 0.34350 0.28260 0.02800
C 	C 	0.85770 0.36210 0.34240 -0.10200
H 	H 	0.83890 0.34390 0.37860 0.06100
C 	C 	0.90450 0.40740 0.34900 0.04900
H 	H 	0.91770 0.42010 0.38980 -0.00700
C 	C 	0.77970 0.30790 0.27410 0.08000
C 	C 	0.77080 0.26060 0.31820 -0.15100
H 	H 	0.79660 0.25770 0.35470 0.07800
N 	N 	0.93200 0.56600 0.70400 -0.21500
C 	C 	0.91270 0.58450 0.76380 0.04900
H 	H 	0.93150 0.56630 0.80000 -0.00100
C 	C 	0.86590 0.62980 0.77040 -0.10100
H 	H 	0.85270 0.64250 0.81120 0.06900
C 	C 	0.83840 0.65650 0.71740 0.03200
C 	C 	0.85770 0.63790 0.65760 -0.10300
H 	H 	0.83890 0.65610 0.62140 0.06200
C 	C 	0.90450 0.59260 0.65100 0.05100
H 	H 	0.91770 0.57990 0.61020 -0.00700
C 	C 	0.77970 0.69210 0.72590 0.08300
C 	C 	0.77080 0.73940 0.68180 -0.15000
H 	H 	0.79660 0.74230 0.64530 0.08000
N 	N 	0.06800 0.56600 0.29600 -0.22900
C 	C 	0.08730 0.58450 0.23620 0.04000
H 	H 	0.06850 0.56630 0.20000 -0.02100
C 	C 	0.13410 0.62980 0.22960 -0.10600
H 	H 	0.14730 0.64250 0.18880 0.05500
C 	C 	0.16160 0.65650 0.28260 0.02600
C 	C 	0.14230 0.63790 0.34240 -0.10600
H 	H 	0.16110 0.65610 0.37860 0.05800
C 	C 	0.09550 0.59260 0.34900 0.04300
H 	H 	0.08230 0.57990 0.38980 -0.01900
C 	C 	0.22030 0.69210 0.27410 0.07900
C 	C 	0.22920 0.73940 0.31820 -0.15100
H 	H 	0.20340 0.74230 0.35470 0.07600
N 	N 	0.06800 0.43400 0.70400 -0.22900
C 	C 	0.08730 0.41550 0.76380 0.04100
H 	H 	0.06850 0.43370 0.80000 -0.01600
C 	C 	0.13410 0.37020 0.77040 -0.10500
H 	H 	0.14730 0.35750 0.81120 0.06100
C 	C 	0.16160 0.34350 0.71740 0.02600
C 	C 	0.14230 0.36210 0.65760 -0.10600
H 	H 	0.16110 0.34390 0.62140 0.05700
C 	C 	0.09550 0.40740 0.65100 0.04300
H 	H 	0.08230 0.42010 0.61020 -0.01900
C 	C 	0.22030 0.30790 0.72590 0.07900
C 	C 	0.22920 0.26060 0.68180 -0.15100
H 	H 	0.20340 0.25770 0.64530 0.07500
N 	N 	0.29600 0.93200 0.43400 -0.21600
C 	C 	0.23620 0.91270 0.41550 0.04600
H 	H 	0.20000 0.93150 0.43370 -0.00700
C 	C 	0.22960 0.86590 0.37020 -0.10200
H 	H 	0.18880 0.85270 0.35750 0.05900
C 	C 	0.28260 0.83840 0.34350 0.02800
C 	C 	0.34240 0.85770 0.36210 -0.10200
H 	H 	0.37860 0.83890 0.34390 0.06100
C 	C 	0.34900 0.90450 0.40740 0.04900
H 	H 	0.38980 0.91770 0.42010 -0.00700
C 	C 	0.27410 0.77970 0.30790 0.08000
C 	C 	0.31820 0.77080 0.26060 -0.15100
H 	H 	0.35470 0.79660 0.25770 0.07800
N 	N 	0.70400 0.93200 0.56600 -0.21500
C 	C 	0.76380 0.91270 0.58450 0.04900
H 	H 	0.80000 0.93150 0.56630 -0.00100
C 	C 	0.77040 0.86590 0.62980 -0.10100
H 	H 	0.81120 0.85270 0.64250 0.06900
C 	C 	0.71740 0.83840 0.65650 0.03200
C 	C 	0.65760 0.85770 0.63790 -0.10300
H 	H 	0.62140 0.83890 0.65610 0.06200
C 	C 	0.65100 0.90450 0.59260 0.05100
H 	H 	0.61020 0.91770 0.57990 -0.00700
C 	C 	0.72590 0.77970 0.69210 0.08300
C 	C 	0.68180 0.77080 0.73940 -0.15000
H 	H 	0.64530 0.79660 0.74230 0.08000
N 	N 	0.29600 0.06800 0.56600 -0.22900
C 	C 	0.23620 0.08730 0.58450 0.04000
H 	H 	0.20000 0.06850 0.56630 -0.02100
C 	C 	0.22960 0.13410 0.62980 -0.10600
H 	H 	0.18880 0.14730 0.64250 0.05500
C 	C 	0.28260 0.16160 0.65650 0.02600
C 	C 	0.34240 0.14230 0.63790 -0.10600
H 	H 	0.37860 0.16110 0.65610 0.05800
C 	C 	0.34900 0.09550 0.59260 0.04300
H 	H 	0.38980 0.08230 0.57990 -0.01900
C 	C 	0.27410 0.22030 0.69210 0.07900
C 	C 	0.31820 0.22920 0.73940 -0.15100
H 	H 	0.35470 0.20340 0.74230 0.07600
N 	N 	0.70400 0.06800 0.43400 -0.22900
C 	C 	0.76380 0.08730 0.41550 0.04100
H 	H 	0.80000 0.06850 0.43370 -0.01600
C 	C 	0.77040 0.13410 0.37020 -0.10500
H 	H 	0.81120 0.14730 0.35750 0.06100
C 	C 	0.71740 0.16160 0.34350 0.02600
C 	C 	0.65760 0.14230 0.36210 -0.10600
H 	H 	0.62140 0.16110 0.34390 0.05700
C 	C 	0.65100 0.09550 0.40740 0.04300
H 	H 	0.61020 0.08230 0.42010 -0.01900
C 	C 	0.72590 0.22030 0.30790 0.07900
C 	C 	0.68180 0.22920 0.26060 -0.15100
H 	H 	0.64530 0.20340 0.25770 0.07500
Cu	Cu	0.50000 0.69900 -0.00000 0.83600
Cu	Cu	0.50000 0.30100 -0.00000 0.83500
Cu	Cu	0.00000 0.50000 0.69900 0.83600
Cu	Cu	0.00000 0.50000 0.30100 0.83500
Cu	Cu	0.69900 0.00000 0.50000 0.83600
Cu	Cu	0.30100 0.00000 0.50000 0.83500
