data_crystal

_cell_length_a 10.78330
_cell_length_b 16.63320
_cell_length_c 16.63320
_cell_angle_alpha 90.00000
_cell_angle_beta  90.00000
_cell_angle_gamma 90.00000

_symmetry_space_group_name_	'P 1'
_symmetry_space_group_name_H-M	'P 1'

loop_
_symmetry_equiv_pos_as_xyz
  x,y,z

loop_
_atom_site_label
_atom_site_type_symbol
_atom_site_fract_x
_atom_site_fract_y
_atom_site_fract_z
_atom_site_charge
Li	Li	0.06070 0.74420 0.43240 0.55200
Li	Li	0.56070 0.25580 0.56760 0.55200
Li	Li	0.81070 0.06760 0.24420 0.55200
Li	Li	0.31070 0.93240 0.75580 0.55200
Li	Li	0.68930 0.75580 0.93240 0.55200
Li	Li	0.18930 0.24420 0.06760 0.55200
Li	Li	0.93930 0.43240 0.74420 0.55200
Li	Li	0.43930 0.56760 0.25580 0.55200
Zn	Zn	0.14959 0.84790 0.58520 1.23500
Zn	Zn	0.64959 0.15210 0.41480 1.23500
Zn	Zn	0.89959 0.91480 0.34790 1.23500
Zn	Zn	0.39959 0.08520 0.65210 1.23500
Zn	Zn	0.60041 0.65210 0.08520 1.23600
Zn	Zn	0.10041 0.34790 0.91480 1.23600
Zn	Zn	0.85041 0.58520 0.84790 1.23600
Zn	Zn	0.35041 0.41480 0.15210 1.23600
H 	H 	0.90220 0.74990 0.63410 0.00700
H 	H 	0.62650 0.83120 0.77210 0.00700
H 	H 	0.70720 0.94480 0.56710 0.02300
H 	H 	0.40220 0.25010 0.36590 0.00700
H 	H 	0.12650 0.16880 0.22790 0.00800
H 	H 	0.20720 0.05520 0.43290 0.02300
H 	H 	0.65220 0.86590 0.24990 0.00700
H 	H 	0.37650 0.72790 0.33120 0.00800
H 	H 	0.45720 0.93290 0.44480 0.02300
H 	H 	0.15220 0.13410 0.75010 0.00600
H 	H 	0.87650 0.27210 0.66880 0.00600
H 	H 	0.95720 0.06710 0.55520 0.02200
H 	H 	0.84780 0.75010 0.13410 0.00600
H 	H 	0.12350 0.66880 0.27210 0.00600
H 	H 	0.04280 0.55520 0.06710 0.02200
H 	H 	0.34780 0.24990 0.86590 0.00700
H 	H 	0.62350 0.33120 0.72790 0.00800
H 	H 	0.54280 0.44480 0.93290 0.02300
H 	H 	0.09780 0.63410 0.74990 0.00700
H 	H 	0.37350 0.77210 0.83120 0.00700
H 	H 	0.29280 0.56710 0.94480 0.02300
H 	H 	0.59780 0.36590 0.25010 0.00700
H 	H 	0.87350 0.22790 0.16880 0.00800
H 	H 	0.79280 0.43290 0.05520 0.02300
C 	C 	0.89200 0.85520 0.51360 0.43700
C 	C 	0.78770 0.71210 0.76900 0.38400
C 	C 	0.55050 0.95600 0.69000 0.37000
C 	C 	0.81910 0.84920 0.58910 -0.19400
C 	C 	0.83960 0.78700 0.64380 0.09800
C 	C 	0.76680 0.78000 0.71300 -0.17500
C 	C 	0.67510 0.83580 0.72620 0.10300
C 	C 	0.65290 0.89770 0.67410 -0.15900
C 	C 	0.72370 0.90410 0.60390 0.11000
C 	C 	0.39200 0.14480 0.48640 0.43700
C 	C 	0.28770 0.28790 0.23100 0.38400
C 	C 	0.05050 0.04400 0.31000 0.36700
C 	C 	0.31910 0.15080 0.41090 -0.19300
C 	C 	0.33960 0.21300 0.35620 0.09700
C 	C 	0.26680 0.22000 0.28700 -0.17400
C 	C 	0.17510 0.16420 0.27380 0.10200
C 	C 	0.15290 0.10230 0.32590 -0.15700
C 	C 	0.22370 0.09590 0.39610 0.10900
C 	C 	0.64200 0.98640 0.35520 0.43700
C 	C 	0.53770 0.73100 0.21210 0.38400
C 	C 	0.30050 0.81000 0.45600 0.37100
C 	C 	0.56910 0.91090 0.34920 -0.19400
C 	C 	0.58960 0.85620 0.28700 0.09800
C 	C 	0.51680 0.78700 0.28000 -0.17400
C 	C 	0.42510 0.77380 0.33580 0.10300
C 	C 	0.40290 0.82590 0.39770 -0.15900
C 	C 	0.47370 0.89610 0.40410 0.11000
C 	C 	0.14200 0.01360 0.64480 0.43700
C 	C 	0.03770 0.26900 0.78790 0.38300
C 	C 	0.80050 0.19000 0.54400 0.37300
C 	C 	0.06910 0.08910 0.65080 -0.19900
C 	C 	0.08960 0.14380 0.71300 0.10100
C 	C 	0.01680 0.21300 0.72000 -0.17900
C 	C 	0.92510 0.22620 0.66420 0.10900
C 	C 	0.90290 0.17410 0.60230 -0.16300
C 	C 	0.97370 0.10390 0.59590 0.11600
C 	C 	0.85800 0.64480 0.01360 0.43700
C 	C 	0.96230 0.78790 0.26900 0.38300
C 	C 	0.19950 0.54400 0.19000 0.37300
C 	C 	0.93090 0.65080 0.08910 -0.19900
C 	C 	0.91040 0.71300 0.14380 0.10100
C 	C 	0.98320 0.72000 0.21300 -0.17900
C 	C 	0.07490 0.66420 0.22620 0.10900
C 	C 	0.09710 0.60230 0.17410 -0.16300
C 	C 	0.02630 0.59590 0.10390 0.11600
C 	C 	0.35800 0.35520 0.98640 0.43700
C 	C 	0.46230 0.21210 0.73100 0.38400
C 	C 	0.69950 0.45600 0.81000 0.37100
C 	C 	0.43090 0.34920 0.91090 -0.19400
C 	C 	0.41040 0.28700 0.85620 0.09800
C 	C 	0.48320 0.28000 0.78700 -0.17400
C 	C 	0.57490 0.33580 0.77380 0.10300
C 	C 	0.59710 0.39770 0.82590 -0.15900
C 	C 	0.52630 0.40410 0.89610 0.11000
C 	C 	0.10800 0.51360 0.85520 0.43700
C 	C 	0.21230 0.76900 0.71210 0.38400
C 	C 	0.44950 0.69000 0.95600 0.37000
C 	C 	0.18090 0.58910 0.84920 -0.19400
C 	C 	0.16040 0.64380 0.78700 0.09800
C 	C 	0.23320 0.71300 0.78000 -0.17500
C 	C 	0.32490 0.72620 0.83580 0.10300
C 	C 	0.34710 0.67410 0.89770 -0.15900
C 	C 	0.27630 0.60390 0.90410 0.11000
C 	C 	0.60800 0.48640 0.14480 0.43700
C 	C 	0.71230 0.23100 0.28790 0.38400
C 	C 	0.94950 0.31000 0.04400 0.36700
C 	C 	0.68090 0.41090 0.15080 -0.19300
C 	C 	0.66040 0.35620 0.21300 0.09700
C 	C 	0.73320 0.28700 0.22000 -0.17400
C 	C 	0.82490 0.27380 0.16420 0.10200
C 	C 	0.84710 0.32590 0.10230 -0.15700
C 	C 	0.77630 0.39610 0.09590 0.10900
O 	O 	0.99980 0.82570 0.51102 -0.54400
O 	O 	0.83810 0.88610 0.45410 -0.48200
O 	O 	0.85990 0.65460 0.75000 -0.44900
O 	O 	0.73310 0.71000 0.83420 -0.46800
O 	O 	0.48590 0.94850 0.75180 -0.40200
O 	O 	0.53600 0.01170 0.63690 -0.45700
O 	O 	0.49980 0.17430 0.48898 -0.54300
O 	O 	0.33810 0.11390 0.54590 -0.48100
O 	O 	0.35990 0.34540 0.25000 -0.44900
O 	O 	0.23310 0.29000 0.16580 -0.46700
O 	O 	0.98590 0.05150 0.24820 -0.40000
O 	O 	0.03600 0.98830 0.36310 -0.45500
O 	O 	0.74980 0.98898 0.32570 -0.54400
O 	O 	0.58810 0.04590 0.38610 -0.48100
O 	O 	0.60990 0.75000 0.15460 -0.44900
O 	O 	0.48310 0.66580 0.21000 -0.46700
O 	O 	0.23590 0.74820 0.44850 -0.40200
O 	O 	0.28600 0.86310 0.51170 -0.45800
O 	O 	0.24980 0.01102 0.67430 -0.54300
O 	O 	0.08810 0.95410 0.61390 -0.48100
O 	O 	0.10990 0.25000 0.84540 -0.45000
O 	O 	0.98310 0.33420 0.79000 -0.46500
O 	O 	0.73590 0.25180 0.55150 -0.40200
O 	O 	0.78600 0.13690 0.48830 -0.45800
O 	O 	0.75020 0.67430 0.01102 -0.54300
O 	O 	0.91190 0.61390 0.95410 -0.48100
O 	O 	0.89010 0.84540 0.25000 -0.45000
O 	O 	0.01690 0.79000 0.33420 -0.46500
O 	O 	0.26410 0.55150 0.25180 -0.40200
O 	O 	0.21400 0.48830 0.13690 -0.45800
O 	O 	0.25020 0.32570 0.98898 -0.54400
O 	O 	0.41190 0.38610 0.04590 -0.48100
O 	O 	0.39010 0.15460 0.75000 -0.44900
O 	O 	0.51690 0.21000 0.66580 -0.46700
O 	O 	0.76410 0.44850 0.74820 -0.40200
O 	O 	0.71400 0.51170 0.86310 -0.45800
O 	O 	0.00020 0.51102 0.82570 -0.54400
O 	O 	0.16190 0.45410 0.88610 -0.48200
O 	O 	0.14010 0.75000 0.65460 -0.44900
O 	O 	0.26690 0.83420 0.71000 -0.46800
O 	O 	0.51410 0.75180 0.94850 -0.40200
O 	O 	0.46400 0.63690 0.01170 -0.45700
O 	O 	0.50020 0.48898 0.17430 -0.54300
O 	O 	0.66190 0.54590 0.11390 -0.48100
O 	O 	0.64010 0.25000 0.34540 -0.44900
O 	O 	0.76690 0.16580 0.29000 -0.46700
O 	O 	0.01410 0.24820 0.05150 -0.40000
O 	O 	0.96400 0.36310 0.98830 -0.45500
