data_crystal

_cell_length_a 7.36100
_cell_length_b 15.64500
_cell_length_c 26.95700
_cell_angle_alpha 90.00000
_cell_angle_beta  90.00000
_cell_angle_gamma 90.00000

_symmetry_space_group_name_	'P 1'
_symmetry_space_group_name_H-M	'P 1'

loop_
_symmetry_equiv_pos_as_xyz
  x,y,z

loop_
_atom_site_label
_atom_site_type_symbol
_atom_site_fract_x
_atom_site_fract_y
_atom_site_fract_z
_atom_site_charge
Ni	Ni	0.48950 0.65587 0.68717 1.08200
O 	O 	0.38870 0.64300 0.61404 -0.37100
O 	O 	0.60140 0.55620 0.64209 -0.36700
O 	O 	0.87900 0.36430 0.25192 -0.41900
O 	O 	0.64370 0.27720 0.25000 -0.29300
O 	O 	0.08690 0.55710 0.45820 -0.11600
O 	O 	0.28060 0.54680 0.39648 -0.12200
O 	O 	0.17490 0.31870 0.37220 -0.11400
O 	O 	0.23430 0.35690 0.44380 -0.09600
N 	N 	0.34400 0.76090 0.70996 -0.24600
N 	N 	0.70930 0.07160 0.78859 -0.22800
N 	N 	0.24130 0.54010 0.44040 -0.00500
N 	N 	0.28450 0.34400 0.40340 -0.00100
C 	C 	0.34200 0.78960 0.75640 0.09600
H 	H 	0.42070 0.76460 0.77920 0.00700
C 	C 	0.23260 0.79980 0.67770 0.08700
H 	H 	0.23700 0.78320 0.64460 0.00100
C 	C 	0.23160 0.85330 0.77230 -0.14000
H 	H 	0.23890 0.87220 0.80500 0.09600
C 	C 	0.11360 0.86200 0.69090 -0.13700
H 	H 	0.03640 0.88570 0.66730 0.09700
C 	C 	0.10720 0.89060 0.73990 0.07400
C 	C 	0.97220 0.95540 0.75664 0.07500
C 	C 	0.79950 0.95200 0.73800 -0.13400
H 	H 	0.76770 0.91110 0.71460 0.09200
C 	C 	0.01610 0.01530 0.79160 -0.14600
H 	H 	0.13210 0.01780 0.80520 0.09500
C 	C 	0.67130 0.01150 0.75500 0.08800
H 	H 	0.55410 0.00900 0.74220 0.01000
C 	C 	0.88050 0.07260 0.80610 0.09500
H 	H 	0.91050 0.11420 0.82940 0.00200
C 	C 	0.49680 0.58170 0.60780 0.27400
C 	C 	0.50660 0.53920 0.55684 -0.02000
C 	C 	0.64120 0.48280 0.54632 -0.01800
H 	H 	0.72490 0.46740 0.57060 0.06200
C 	C 	0.65310 0.44800 0.49890 -0.05000
H 	H 	0.74950 0.41180 0.49140 0.07600
C 	C 	0.52590 0.46580 0.46254 0.01000
C 	C 	0.38390 0.51800 0.47650 0.08600
C 	C 	0.37310 0.55450 0.52290 -0.07500
H 	H 	0.27530 0.58940 0.53100 0.09600
C 	C 	0.73560 0.33220 0.26936 0.35400
C 	C 	0.67670 0.36880 0.31801 -0.06800
C 	C 	0.51220 0.34520 0.33744 -0.04000
H 	H 	0.43670 0.30830 0.31990 0.07900
C 	C 	0.45790 0.37670 0.38380 0.06500
C 	C 	0.56390 0.43180 0.41090 0.03100
C 	C 	0.72850 0.45670 0.39120 -0.08100
H 	H 	0.80180 0.49530 0.40820 0.08700
C 	C 	0.78550 0.42290 0.34450 0.01800
H 	H 	0.89870 0.43800 0.33190 0.05500
Ni	Ni	0.01050 0.34413 0.18717 1.08100
O 	O 	0.11130 0.35700 0.11404 -0.37000
O 	O 	0.89860 0.44380 0.14209 -0.36200
O 	O 	0.62100 0.63570 0.75192 -0.42000
O 	O 	0.85630 0.72280 0.75000 -0.29400
O 	O 	0.41310 0.44290 0.95820 -0.11700
O 	O 	0.21940 0.45320 0.89648 -0.12300
O 	O 	0.32510 0.68130 0.87220 -0.11500
O 	O 	0.26570 0.64310 0.94380 -0.09700
N 	N 	0.15600 0.23910 0.20996 -0.24700
N 	N 	0.79070 0.92840 0.28859 -0.22700
N 	N 	0.25870 0.45990 0.94040 -0.00500
N 	N 	0.21550 0.65600 0.90340 0.00000
C 	C 	0.15800 0.21040 0.25640 0.09600
H 	H 	0.07930 0.23540 0.27920 0.00700
C 	C 	0.26740 0.20020 0.17770 0.08700
H 	H 	0.26300 0.21680 0.14460 0.00000
C 	C 	0.26840 0.14670 0.27230 -0.14000
H 	H 	0.26110 0.12780 0.30500 0.09600
C 	C 	0.38640 0.13800 0.19090 -0.13800
H 	H 	0.46360 0.11430 0.16730 0.09600
C 	C 	0.39280 0.10940 0.23990 0.07300
C 	C 	0.52780 0.04460 0.25664 0.07300
C 	C 	0.70050 0.04800 0.23800 -0.13000
H 	H 	0.73230 0.08890 0.21460 0.09100
C 	C 	0.48390 0.98470 0.29160 -0.14100
H 	H 	0.36790 0.98220 0.30520 0.09400
C 	C 	0.82870 0.98850 0.25500 0.08500
H 	H 	0.94590 0.99100 0.24220 0.01100
C 	C 	0.61950 0.92740 0.30610 0.09100
H 	H 	0.58950 0.88580 0.32940 0.00300
C 	C 	0.00320 0.41830 0.10780 0.26300
C 	C 	0.99340 0.46080 0.05684 -0.00600
C 	C 	0.85880 0.51720 0.04632 -0.02500
H 	H 	0.77510 0.53260 0.07060 0.06600
C 	C 	0.84690 0.55200 0.99890 -0.04600
H 	H 	0.75050 0.58820 0.99140 0.07500
C 	C 	0.97410 0.53420 0.96254 0.00900
C 	C 	0.11610 0.48200 0.97650 0.08700
C 	C 	0.12690 0.44550 0.02290 -0.08600
H 	H 	0.22470 0.41060 0.03100 0.09900
C 	C 	0.76440 0.66780 0.76936 0.35600
C 	C 	0.82330 0.63120 0.81801 -0.07300
C 	C 	0.98780 0.65480 0.83744 -0.03100
H 	H 	0.06330 0.69170 0.81990 0.07500
C 	C 	0.04210 0.62330 0.88380 0.05600
C 	C 	0.93610 0.56820 0.91090 0.03800
C 	C 	0.77150 0.54330 0.89120 -0.08600
H 	H 	0.69820 0.50470 0.90820 0.09000
C 	C 	0.71450 0.57710 0.84450 0.02300
H 	H 	0.60130 0.56200 0.83190 0.05400
Ni	Ni	0.51050 0.15587 0.81283 1.08100
O 	O 	0.61130 0.14300 0.88596 -0.37100
O 	O 	0.39860 0.05620 0.85791 -0.36800
O 	O 	0.12100 0.86430 0.24808 -0.41900
O 	O 	0.35630 0.77720 0.25000 -0.29300
O 	O 	0.91310 0.05710 0.04180 -0.11500
O 	O 	0.71940 0.04680 0.10352 -0.12200
O 	O 	0.82510 0.81870 0.12780 -0.11400
O 	O 	0.76570 0.85690 0.05620 -0.09600
N 	N 	0.65600 0.26090 0.79004 -0.24600
N 	N 	0.29070 0.57160 0.71141 -0.22700
N 	N 	0.75870 0.04010 0.05960 -0.00500
N 	N 	0.71550 0.84400 0.09660 -0.00100
C 	C 	0.65800 0.28960 0.74360 0.09600
H 	H 	0.57930 0.26460 0.72080 0.00700
C 	C 	0.76740 0.29980 0.82230 0.08700
H 	H 	0.76300 0.28320 0.85540 0.00100
C 	C 	0.76840 0.35330 0.72770 -0.14000
H 	H 	0.76110 0.37220 0.69500 0.09600
C 	C 	0.88640 0.36200 0.80910 -0.13700
H 	H 	0.96360 0.38570 0.83270 0.09700
C 	C 	0.89280 0.39060 0.76010 0.07300
C 	C 	0.02780 0.45540 0.74336 0.07500
C 	C 	0.20050 0.45200 0.76200 -0.13200
H 	H 	0.23230 0.41110 0.78540 0.09100
C 	C 	0.98390 0.51530 0.70840 -0.14400
H 	H 	0.86790 0.51780 0.69480 0.09400
C 	C 	0.32870 0.51150 0.74500 0.08700
H 	H 	0.44590 0.50900 0.75780 0.01100
C 	C 	0.11950 0.57260 0.69390 0.09300
H 	H 	0.08950 0.61420 0.67060 0.00300
C 	C 	0.50320 0.08170 0.89220 0.27400
C 	C 	0.49340 0.03920 0.94316 -0.02100
C 	C 	0.35880 0.98280 0.95368 -0.01800
H 	H 	0.27510 0.96740 0.92940 0.06300
C 	C 	0.34690 0.94800 0.00110 -0.05000
H 	H 	0.25050 0.91180 0.00860 0.07600
C 	C 	0.47410 0.96580 0.03746 0.00900
C 	C 	0.61610 0.01800 0.02350 0.08700
C 	C 	0.62690 0.05450 0.97710 -0.07500
H 	H 	0.72470 0.08940 0.96900 0.09600
C 	C 	0.26440 0.83220 0.23064 0.35400
C 	C 	0.32330 0.86880 0.18199 -0.06800
C 	C 	0.48780 0.84520 0.16256 -0.04000
H 	H 	0.56330 0.80830 0.18010 0.07900
C 	C 	0.54210 0.87670 0.11620 0.06400
C 	C 	0.43610 0.93180 0.08910 0.03100
C 	C 	0.27150 0.95670 0.10880 -0.08100
H 	H 	0.19820 0.99530 0.09180 0.08700
C 	C 	0.21450 0.92290 0.15550 0.01800
H 	H 	0.10130 0.93800 0.16810 0.05500
Ni	Ni	0.98950 0.84413 0.31283 1.08100
O 	O 	0.88870 0.85700 0.38596 -0.36900
O 	O 	0.10140 0.94380 0.35791 -0.36100
O 	O 	0.37900 0.13570 0.74808 -0.42000
O 	O 	0.14370 0.22280 0.75000 -0.29400
O 	O 	0.58690 0.94290 0.54180 -0.11700
O 	O 	0.78060 0.95320 0.60352 -0.12300
O 	O 	0.67490 0.18130 0.62780 -0.11500
O 	O 	0.73430 0.14310 0.55620 -0.09700
N 	N 	0.84400 0.73910 0.29004 -0.24600
N 	N 	0.20930 0.42840 0.21141 -0.22700
N 	N 	0.74130 0.95990 0.55960 -0.00600
N 	N 	0.78450 0.15600 0.59660 0.00000
C 	C 	0.84200 0.71040 0.24360 0.09600
H 	H 	0.92070 0.73540 0.22080 0.00800
C 	C 	0.73260 0.70020 0.32230 0.08700
H 	H 	0.73700 0.71680 0.35540 0.00000
C 	C 	0.73160 0.64670 0.22770 -0.14000
H 	H 	0.73890 0.62780 0.19500 0.09600
C 	C 	0.61360 0.63800 0.30910 -0.13700
H 	H 	0.53640 0.61430 0.33270 0.09600
C 	C 	0.60720 0.60940 0.26010 0.07300
C 	C 	0.47220 0.54460 0.24336 0.07300
C 	C 	0.29950 0.54800 0.26200 -0.13200
H 	H 	0.26770 0.58890 0.28540 0.09200
C 	C 	0.51610 0.48470 0.20840 -0.14100
H 	H 	0.63210 0.48220 0.19480 0.09400
C 	C 	0.17130 0.48850 0.24500 0.08700
H 	H 	0.05410 0.49100 0.25780 0.01100
C 	C 	0.38050 0.42740 0.19390 0.09200
H 	H 	0.41050 0.38580 0.17060 0.00300
C 	C 	0.99680 0.91830 0.39220 0.26100
C 	C 	0.00660 0.96080 0.44316 -0.00200
C 	C 	0.14120 0.01720 0.45368 -0.03000
H 	H 	0.22490 0.03260 0.42940 0.06700
C 	C 	0.15310 0.05200 0.50110 -0.04300
H 	H 	0.24950 0.08820 0.50860 0.07400
C 	C 	0.02590 0.03420 0.53746 0.00700
C 	C 	0.88390 0.98200 0.52350 0.08800
C 	C 	0.87310 0.94550 0.47710 -0.08900
H 	H 	0.77530 0.91060 0.46900 0.10000
C 	C 	0.23560 0.16780 0.73064 0.35600
C 	C 	0.17670 0.13120 0.68199 -0.07200
C 	C 	0.01220 0.15480 0.66256 -0.03300
H 	H 	0.93670 0.19170 0.68010 0.07600
C 	C 	0.95790 0.12330 0.61620 0.05800
C 	C 	0.06390 0.06820 0.58910 0.03700
C 	C 	0.22850 0.04330 0.60880 -0.08500
H 	H 	0.30180 0.00470 0.59180 0.08900
C 	C 	0.28550 0.07710 0.65550 0.02200
H 	H 	0.39870 0.06200 0.66810 0.05400
