data_crystal

_cell_length_a 22.90900
_cell_length_b 30.15610
_cell_length_c 27.72030
_cell_angle_alpha 90.00000
_cell_angle_beta  111.63700
_cell_angle_gamma 90.00000

_symmetry_space_group_name_	'P 1'
_symmetry_space_group_name_H-M	'P 1'

loop_
_symmetry_equiv_pos_as_xyz
  x,y,z

loop_
_atom_site_label
_atom_site_type_symbol
_atom_site_fract_x
_atom_site_fract_y
_atom_site_fract_z
_atom_site_charge
Pr	Pr	0.40996 0.34651 0.87959 2.04800
Pr	Pr	0.71138 0.34779 0.88927 2.03000
W 	W 	0.74995 0.54267 0.81156 1.03100
W 	W 	0.55669 0.55152 0.88100 1.37700
W 	W 	0.14112 0.24025 0.88117 1.36400
W 	W 	0.02108 0.24398 0.61851 1.09900
W 	W 	0.29328 0.16261 0.81305 1.04300
W 	W 	0.19029 0.12243 0.88032 1.08800
W 	W 	0.07191 0.12683 0.61838 1.08400
W 	W 	0.45387 0.46083 0.81355 1.37500
W 	W 	0.17831 0.03477 0.68381 1.33700
W 	W 	0.23803 0.15088 0.68476 1.05000
W 	W 	0.23916 0.28155 0.81319 1.33600
W 	W 	0.18973 0.27191 0.68509 1.33900
W 	W 	0.06259 0.34956 0.68612 1.02800
W 	W 	0.61875 0.46713 0.81417 1.37200
W 	W 	0.10291 0.34962 0.81440 1.06600
P 	P 	0.08890 0.25042 0.74960 0.56900
P 	P 	0.14353 0.12200 0.74949 0.56000
Na	Na	0.97650 0.15650 0.69750 0.59400
K 	K 	0.83890 0.99499 0.46916 0.62800
K 	K 	0.29920 0.28699 0.96000 0.63200
C 	C 	0.78460 0.30460 0.00960 0.31100
C 	C 	0.71660 0.30360 0.00580 -0.05300
C 	C 	0.69980 0.28770 0.04570 -0.01100
H 	H 	0.73030 0.27720 0.07730 0.03300
C 	C 	0.63580 0.28770 0.03720 -0.06500
H 	H 	0.62190 0.27830 0.06390 0.04400
C 	C 	0.59220 0.30150 0.98970 -0.00400
H 	H 	0.54840 0.30050 0.98270 -0.00200
C 	C 	0.61470 0.31660 0.95350 -0.09100
C 	C 	0.57260 0.33300 0.90040 0.40100
C 	C 	0.29980 0.38500 0.76580 -0.09400
C 	C 	0.24810 0.40650 0.73200 0.06200
H 	H 	0.23910 0.40520 0.69580 -0.04500
C 	C 	0.20940 0.43000 0.75060 -0.08400
H 	H 	0.17310 0.44460 0.72740 0.04100
C 	C 	0.22420 0.43190 0.80320 0.03400
H 	H 	0.19760 0.44740 0.81690 0.02100
C 	C 	0.27800 0.41110 0.83640 -0.06300
C 	C 	0.29890 0.41100 0.89470 0.33700
C 	C 	0.34070 0.35550 0.75040 0.41100
N 	N 	0.67560 0.31780 0.96010 -0.21100
N 	N 	0.31560 0.38830 0.81740 -0.18800
O 	O 	0.13630 0.32590 0.68900 -0.46900
O 	O 	0.09300 0.38040 0.75080 -0.44800
O 	O 	0.02310 0.35810 0.80900 -0.45900
O 	O 	0.18210 0.25220 0.94550 -0.53200
O 	O 	0.11670 0.30090 0.85890 -0.48800
O 	O 	0.06130 0.23270 0.88510 -0.48300
O 	O 	0.18790 0.32690 0.81070 -0.48200
O 	O 	0.21030 0.25000 0.85860 -0.53500
O 	O 	0.08920 0.22690 0.79810 -0.32000
O 	O 	0.06910 0.30020 0.74940 -0.35900
O 	O 	0.15710 0.25060 0.74940 -0.39600
O 	O 	0.15390 0.17930 0.88360 -0.47900
O 	O 	0.11070 0.25140 0.64020 -0.48200
O 	O 	0.22690 0.21800 0.68990 -0.49500
O 	O 	0.30700 0.15850 0.74880 -0.47400
O 	O 	0.15260 0.15350 0.64020 -0.46700
O 	O 	0.23270 0.09140 0.68770 -0.45500
O 	O 	0.01820 0.30330 0.63950 -0.46900
O 	O 	0.04510 0.22830 0.70080 -0.34300
O 	O 	0.03330 0.18170 0.61500 -0.48300
O 	O 	0.20530 0.01110 0.63980 -0.45900
O 	O 	0.11480 0.07130 0.64050 -0.50500
O 	O 	0.37380 0.49270 0.80940 -0.48600
O 	O 	0.50260 0.59690 0.88370 -0.47100
O 	O 	0.59530 0.43380 0.75080 -0.47900
O 	O 	0.44610 0.41940 0.85390 -0.58000
O 	O 	0.49120 0.50800 0.86060 -0.50600
O 	O 	0.58560 0.53810 0.94570 -0.49500
O 	O 	0.53010 0.44690 0.81220 -0.47200
O 	O 	0.60680 0.50860 0.85980 -0.51200
O 	O 	0.61920 0.59520 0.88490 -0.46700
O 	O 	0.47890 0.56870 0.70110 -0.37300
O 	O 	0.55470 0.50960 0.74980 -0.41600
O 	O 	0.12960 0.13040 0.79860 -0.29300
O 	O 	0.65880 0.42510 0.85620 -0.58300
O 	O 	0.68280 0.49580 0.80670 -0.48900
O 	O 	0.71590 0.56940 0.85800 -0.47400
O 	O 	0.25110 0.15290 0.85820 -0.47400
O 	O 	0.74730 0.52030 0.74690 -0.45800
O 	O 	0.29020 0.09430 0.80920 -0.44800
O 	O 	0.27900 0.22200 0.80750 -0.48800
O 	O 	0.19890 0.15180 0.74930 -0.35400
O 	O 	0.08520 0.13140 0.70090 -0.33700
O 	O 	0.31030 0.30240 0.85650 -0.62800
O 	O 	0.21840 0.29880 0.64360 -0.58400
O 	O 	0.51510 0.33000 0.88860 -0.51300
O 	O 	0.26830 0.43140 0.91610 -0.34600
O 	O 	0.34750 0.38840 0.91800 -0.51200
O 	O 	0.38730 0.33670 0.78580 -0.48800
O 	O 	0.33080 0.34880 0.70330 -0.50100
O 	O 	0.79280 0.31780 0.96980 -0.48000
O 	O 	0.82640 0.29160 0.05090 -0.24800
O 	O 	0.59800 0.34900 0.87090 -0.45000
O 	O 	0.24930 0.29340 0.74880 -0.52500
O 	O 	0.16420 0.07340 0.74880 -0.37300
O 	O 	0.66800 0.26800 0.86970 -0.34500
O 	O 	0.42560 0.30280 0.96100 -0.44000
K 	K 	0.36600 0.24630 0.73640 0.62400
Na	Na	0.46720 0.20910 0.74380 0.54800
O 	O 	0.48300 0.26960 0.69700 -0.19300
O 	O 	0.47710 0.24250 0.67280 -0.19800
O 	O 	0.44570 0.16730 0.76480 -0.37400
O 	O 	0.45800 0.14230 0.80300 -0.09300
Pr	Pr	0.90996 0.84651 0.87959 2.05100
Pr	Pr	0.21138 0.84779 0.88927 2.03100
W 	W 	0.24995 0.04267 0.81156 1.03100
W 	W 	0.05669 0.05152 0.88100 1.37100
W 	W 	0.64112 0.74025 0.88117 1.36400
W 	W 	0.52108 0.74398 0.61851 1.10900
W 	W 	0.79328 0.66261 0.81305 1.04400
W 	W 	0.69029 0.62243 0.88032 1.08800
W 	W 	0.57191 0.62683 0.61838 1.09300
W 	W 	0.95387 0.96083 0.81355 1.38300
W 	W 	0.67831 0.53477 0.68381 1.33700
W 	W 	0.73803 0.65088 0.68476 1.05100
W 	W 	0.73916 0.78155 0.81319 1.33600
W 	W 	0.68973 0.77191 0.68509 1.34000
W 	W 	0.56259 0.84956 0.68612 1.03500
W 	W 	0.11875 0.96713 0.81417 1.37100
W 	W 	0.60291 0.84962 0.81440 1.06700
P 	P 	0.58890 0.75042 0.74960 0.56900
P 	P 	0.64353 0.62200 0.74949 0.56000
Na	Na	0.47650 0.65650 0.69750 0.59300
K 	K 	0.33890 0.49499 0.46916 0.62800
K 	K 	0.79920 0.78699 0.96000 0.63300
C 	C 	0.28460 0.80460 0.00960 0.30900
C 	C 	0.21660 0.80360 0.00580 -0.05600
C 	C 	0.19980 0.78770 0.04570 -0.00800
H 	H 	0.23030 0.77720 0.07730 0.03200
C 	C 	0.13580 0.78770 0.03720 -0.07100
H 	H 	0.12190 0.77830 0.06390 0.04600
C 	C 	0.09220 0.80150 0.98970 0.00100
H 	H 	0.04840 0.80050 0.98270 -0.00500
C 	C 	0.11470 0.81660 0.95350 -0.09300
C 	C 	0.07260 0.83300 0.90040 0.40300
C 	C 	0.79980 0.88500 0.76580 -0.09400
C 	C 	0.74810 0.90650 0.73200 0.06100
H 	H 	0.73910 0.90520 0.69580 -0.04500
C 	C 	0.70940 0.93000 0.75060 -0.08400
H 	H 	0.67310 0.94460 0.72740 0.04100
C 	C 	0.72420 0.93190 0.80320 0.03400
H 	H 	0.69760 0.94740 0.81690 0.02100
C 	C 	0.77800 0.91110 0.83640 -0.06200
C 	C 	0.79890 0.91100 0.89470 0.33700
C 	C 	0.84070 0.85550 0.75040 0.41000
N 	N 	0.17560 0.81780 0.96010 -0.21000
N 	N 	0.81560 0.88830 0.81740 -0.18800
O 	O 	0.63630 0.82590 0.68900 -0.47100
O 	O 	0.59300 0.88040 0.75080 -0.44700
O 	O 	0.52310 0.85810 0.80900 -0.45200
O 	O 	0.68210 0.75220 0.94550 -0.53200
O 	O 	0.61670 0.80090 0.85890 -0.48700
O 	O 	0.56130 0.73270 0.88510 -0.47700
O 	O 	0.68790 0.82690 0.81070 -0.48200
O 	O 	0.71030 0.75000 0.85860 -0.53500
O 	O 	0.58920 0.72690 0.79810 -0.31800
O 	O 	0.56910 0.80020 0.74940 -0.35700
O 	O 	0.65710 0.75060 0.74940 -0.39600
O 	O 	0.65390 0.67930 0.88360 -0.47900
O 	O 	0.61070 0.75140 0.64020 -0.48300
O 	O 	0.72690 0.71800 0.68990 -0.49500
O 	O 	0.80700 0.65850 0.74880 -0.47400
O 	O 	0.65260 0.65350 0.64020 -0.46800
O 	O 	0.73270 0.59140 0.68770 -0.45500
O 	O 	0.51820 0.80330 0.63950 -0.46700
O 	O 	0.54510 0.72830 0.70080 -0.34100
O 	O 	0.53330 0.68170 0.61500 -0.48200
O 	O 	0.70530 0.51110 0.63980 -0.45800
O 	O 	0.61480 0.57130 0.64050 -0.50500
O 	O 	0.87380 0.99270 0.80940 -0.48700
O 	O 	0.00260 0.09690 0.88370 -0.47800
O 	O 	0.09530 0.93380 0.75080 -0.47900
O 	O 	0.94610 0.91940 0.85390 -0.57800
O 	O 	0.99120 0.00800 0.86060 -0.50100
O 	O 	0.08560 0.03810 0.94570 -0.49600
O 	O 	0.03010 0.94690 0.81220 -0.47800
O 	O 	0.10680 0.00860 0.85980 -0.51200
O 	O 	0.11920 0.09520 0.88490 -0.46700
O 	O 	0.97890 0.06870 0.70110 -0.36600
O 	O 	0.05470 0.00960 0.74980 -0.41500
O 	O 	0.62960 0.63040 0.79860 -0.29300
O 	O 	0.15880 0.92510 0.85620 -0.58400
O 	O 	0.18280 0.99580 0.80670 -0.48900
O 	O 	0.21590 0.06940 0.85800 -0.47400
O 	O 	0.75110 0.65290 0.85820 -0.47400
O 	O 	0.24730 0.02030 0.74690 -0.45800
O 	O 	0.79020 0.59430 0.80920 -0.44800
O 	O 	0.77900 0.72200 0.80750 -0.48800
O 	O 	0.69890 0.65180 0.74930 -0.35400
O 	O 	0.58520 0.63140 0.70090 -0.33600
O 	O 	0.81030 0.80240 0.85650 -0.62800
O 	O 	0.71840 0.79880 0.64360 -0.58400
O 	O 	0.01510 0.83000 0.88860 -0.51800
O 	O 	0.76830 0.93140 0.91610 -0.34600
O 	O 	0.84750 0.88840 0.91800 -0.51100
O 	O 	0.88730 0.83670 0.78580 -0.48500
O 	O 	0.83080 0.84880 0.70330 -0.50000
O 	O 	0.29280 0.81780 0.96980 -0.47900
O 	O 	0.32640 0.79160 0.05090 -0.24900
O 	O 	0.09800 0.84900 0.87090 -0.45200
O 	O 	0.74930 0.79340 0.74880 -0.52500
O 	O 	0.66420 0.57340 0.74880 -0.37300
O 	O 	0.16800 0.76800 0.86970 -0.34600
O 	O 	0.92560 0.80280 0.96100 -0.43600
K 	K 	0.86600 0.74630 0.73640 0.62400
Na	Na	0.96720 0.70910 0.74380 0.54900
O 	O 	0.98300 0.76960 0.69700 -0.19000
O 	O 	0.97710 0.74250 0.67280 -0.19600
O 	O 	0.94570 0.66730 0.76480 -0.37200
O 	O 	0.95800 0.64230 0.80300 -0.09000
Pr	Pr	0.59004 0.34651 0.62041 2.04900
Pr	Pr	0.28862 0.34779 0.61073 2.03100
W 	W 	0.25005 0.54267 0.68844 1.03000
W 	W 	0.44331 0.55152 0.61900 1.36500
W 	W 	0.85888 0.24025 0.61883 1.35100
W 	W 	0.97892 0.24398 0.88149 1.12700
W 	W 	0.70672 0.16261 0.68695 1.04300
W 	W 	0.80971 0.12243 0.61968 1.07900
W 	W 	0.92809 0.12683 0.88162 1.11000
W 	W 	0.54613 0.46083 0.68645 1.37500
W 	W 	0.82169 0.03477 0.81618 1.33800
W 	W 	0.76197 0.15088 0.81524 1.05100
W 	W 	0.76084 0.28155 0.68681 1.33500
W 	W 	0.81027 0.27191 0.81491 1.34100
W 	W 	0.93741 0.34956 0.81388 1.04200
W 	W 	0.38125 0.46713 0.68583 1.37200
W 	W 	0.89709 0.34962 0.68559 1.06800
P 	P 	0.91110 0.25042 0.75040 0.57000
P 	P 	0.85647 0.12200 0.75051 0.55900
K 	K 	0.16110 0.99499 0.03084 0.62700
K 	K 	0.70080 0.28699 0.54000 0.63300
C 	C 	0.21540 0.30460 0.49040 0.30900
C 	C 	0.28340 0.30360 0.49420 -0.05500
C 	C 	0.30020 0.28770 0.45430 -0.01000
H 	H 	0.26970 0.27720 0.42270 0.03300
C 	C 	0.36420 0.28770 0.46280 -0.06800
H 	H 	0.37810 0.27830 0.43610 0.04600
C 	C 	0.40780 0.30150 0.51030 -0.00100
H 	H 	0.45160 0.30050 0.51730 -0.00200
C 	C 	0.38530 0.31660 0.54650 -0.09100
C 	C 	0.42740 0.33300 0.59960 0.40200
C 	C 	0.70020 0.38500 0.73420 -0.09400
C 	C 	0.75190 0.40650 0.76800 0.06200
H 	H 	0.76090 0.40520 0.80420 -0.04500
C 	C 	0.79060 0.43000 0.74940 -0.08400
H 	H 	0.82690 0.44460 0.77260 0.04200
C 	C 	0.77580 0.43190 0.69680 0.03400
H 	H 	0.80240 0.44740 0.68310 0.02200
C 	C 	0.72200 0.41110 0.66360 -0.06200
C 	C 	0.70110 0.41100 0.60530 0.33700
C 	C 	0.65930 0.35550 0.74960 0.41100
N 	N 	0.32440 0.31780 0.53990 -0.21000
N 	N 	0.68440 0.38830 0.68260 -0.18800
O 	O 	0.86370 0.32590 0.81100 -0.47200
O 	O 	0.90700 0.38040 0.74920 -0.44600
O 	O 	0.97690 0.35810 0.69100 -0.44600
O 	O 	0.81790 0.25220 0.55450 -0.52800
O 	O 	0.88330 0.30090 0.64110 -0.48300
O 	O 	0.93870 0.23270 0.61490 -0.49600
O 	O 	0.81210 0.32690 0.68930 -0.48200
O 	O 	0.78970 0.25000 0.64140 -0.53300
O 	O 	0.91080 0.22690 0.70190 -0.35700
O 	O 	0.93090 0.30020 0.75060 -0.35600
O 	O 	0.84290 0.25060 0.75060 -0.39600
O 	O 	0.84610 0.17930 0.61640 -0.50500
O 	O 	0.88930 0.25140 0.85980 -0.48600
O 	O 	0.77310 0.21800 0.81010 -0.49500
O 	O 	0.69300 0.15850 0.75120 -0.47400
O 	O 	0.84740 0.15350 0.85980 -0.47100
O 	O 	0.76730 0.09140 0.81230 -0.45600
O 	O 	0.98180 0.30330 0.86050 -0.46700
O 	O 	0.95490 0.22830 0.79920 -0.29900
O 	O 	0.96670 0.18170 0.88500 -0.45500
O 	O 	0.79470 0.01110 0.86020 -0.45900
O 	O 	0.88520 0.07130 0.85950 -0.50600
O 	O 	0.62620 0.49270 0.69060 -0.48600
O 	O 	0.49740 0.59690 0.61630 -0.49900
O 	O 	0.40470 0.43380 0.74920 -0.47900
O 	O 	0.55390 0.41940 0.64610 -0.57900
O 	O 	0.50880 0.50800 0.63940 -0.50400
O 	O 	0.41440 0.53810 0.55430 -0.49200
O 	O 	0.46990 0.44690 0.68780 -0.47100
O 	O 	0.39320 0.50860 0.64020 -0.51000
O 	O 	0.38080 0.59520 0.61510 -0.49300
O 	O 	0.52110 0.56870 0.79890 -0.33400
O 	O 	0.44530 0.50960 0.75020 -0.41600
O 	O 	0.87040 0.13040 0.70140 -0.33500
O 	O 	0.34120 0.42510 0.64380 -0.58400
O 	O 	0.31720 0.49580 0.69330 -0.48900
O 	O 	0.28410 0.56940 0.64200 -0.47200
O 	O 	0.74890 0.15290 0.64180 -0.47200
O 	O 	0.25270 0.52030 0.75310 -0.45900
O 	O 	0.70980 0.09430 0.69080 -0.44800
O 	O 	0.72100 0.22200 0.69250 -0.48800
O 	O 	0.80110 0.15180 0.75070 -0.35400
O 	O 	0.91480 0.13140 0.79910 -0.29000
O 	O 	0.68970 0.30240 0.64350 -0.62800
O 	O 	0.78160 0.29880 0.85640 -0.58400
O 	O 	0.48490 0.33000 0.61140 -0.51300
O 	O 	0.73170 0.43140 0.58390 -0.34500
O 	O 	0.65250 0.38840 0.58200 -0.51200
O 	O 	0.61270 0.33670 0.71420 -0.48800
O 	O 	0.66920 0.34880 0.79670 -0.50100
O 	O 	0.20720 0.31780 0.53020 -0.48000
O 	O 	0.17360 0.29160 0.44910 -0.25000
O 	O 	0.40200 0.34900 0.62910 -0.45000
O 	O 	0.75070 0.29340 0.75120 -0.52500
O 	O 	0.83580 0.07340 0.75120 -0.37300
O 	O 	0.33200 0.26800 0.63030 -0.34500
O 	O 	0.57440 0.30280 0.53900 -0.44000
K 	K 	0.63400 0.24630 0.76360 0.62400
Na	Na	0.53280 0.20910 0.75620 0.54800
O 	O 	0.51700 0.26960 0.80300 -0.19300
O 	O 	0.52290 0.24250 0.82720 -0.19800
O 	O 	0.55430 0.16730 0.73520 -0.37400
O 	O 	0.54200 0.14230 0.69700 -0.09300
Pr	Pr	0.09004 0.84651 0.62041 2.04700
Pr	Pr	0.78862 0.84779 0.61073 2.03100
W 	W 	0.75005 0.04267 0.68844 1.03100
W 	W 	0.94331 0.05152 0.61900 1.37100
W 	W 	0.35888 0.74025 0.61883 1.35200
W 	W 	0.47892 0.74398 0.88149 1.11800
W 	W 	0.20672 0.66261 0.68695 1.04100
W 	W 	0.30971 0.62243 0.61968 1.07800
W 	W 	0.42809 0.62683 0.88162 1.10300
W 	W 	0.04613 0.96083 0.68645 1.36600
W 	W 	0.32169 0.53477 0.81618 1.33700
W 	W 	0.26197 0.65088 0.81524 1.05000
W 	W 	0.26084 0.78155 0.68681 1.33500
W 	W 	0.31027 0.77191 0.81491 1.34000
W 	W 	0.43741 0.84956 0.81388 1.03500
W 	W 	0.88125 0.96713 0.68583 1.37200
W 	W 	0.39709 0.84962 0.68559 1.06700
P 	P 	0.41110 0.75042 0.75040 0.57000
P 	P 	0.35647 0.62200 0.75051 0.55900
K 	K 	0.66110 0.49499 0.03084 0.62800
K 	K 	0.20080 0.78699 0.54000 0.63200
C 	C 	0.71540 0.80460 0.49040 0.30900
C 	C 	0.78340 0.80360 0.49420 -0.05400
C 	C 	0.80020 0.78770 0.45430 -0.01000
H 	H 	0.76970 0.77720 0.42270 0.03300
C 	C 	0.86420 0.78770 0.46280 -0.06600
H 	H 	0.87810 0.77830 0.43610 0.04600
C 	C 	0.90780 0.80150 0.51030 -0.00200
H 	H 	0.95160 0.80050 0.51730 0.00000
C 	C 	0.88530 0.81660 0.54650 -0.09000
C 	C 	0.92740 0.83300 0.59960 0.40100
C 	C 	0.20020 0.88500 0.73420 -0.09400
C 	C 	0.25190 0.90650 0.76800 0.06200
H 	H 	0.26090 0.90520 0.80420 -0.04500
C 	C 	0.29060 0.93000 0.74940 -0.08500
H 	H 	0.32690 0.94460 0.77260 0.04100
C 	C 	0.27580 0.93190 0.69680 0.03400
H 	H 	0.30240 0.94740 0.68310 0.02100
C 	C 	0.22200 0.91110 0.66360 -0.06300
C 	C 	0.20110 0.91100 0.60530 0.33700
C 	C 	0.15930 0.85550 0.74960 0.41100
N 	N 	0.82440 0.81780 0.53990 -0.21000
N 	N 	0.18440 0.88830 0.68260 -0.18800
O 	O 	0.36370 0.82590 0.81100 -0.47100
O 	O 	0.40700 0.88040 0.74920 -0.44700
O 	O 	0.47690 0.85810 0.69100 -0.45200
O 	O 	0.31790 0.75220 0.55450 -0.52900
O 	O 	0.38330 0.80090 0.64110 -0.48500
O 	O 	0.43870 0.73270 0.61490 -0.50200
O 	O 	0.31210 0.82690 0.68930 -0.48200
O 	O 	0.28970 0.75000 0.64140 -0.53300
O 	O 	0.41080 0.72690 0.70190 -0.35900
O 	O 	0.43090 0.80020 0.75060 -0.35700
O 	O 	0.34290 0.75060 0.75060 -0.39600
O 	O 	0.34610 0.67930 0.61640 -0.50600
O 	O 	0.38930 0.75140 0.85980 -0.48500
O 	O 	0.27310 0.71800 0.81010 -0.49500
O 	O 	0.19300 0.65850 0.75120 -0.47400
O 	O 	0.34740 0.65350 0.85980 -0.47000
O 	O 	0.26730 0.59140 0.81230 -0.45600
O 	O 	0.48180 0.80330 0.86050 -0.46900
O 	O 	0.45490 0.72830 0.79920 -0.30100
O 	O 	0.46670 0.68170 0.88500 -0.45600
O 	O 	0.29470 0.51110 0.86020 -0.45900
O 	O 	0.38520 0.57130 0.85950 -0.50700
O 	O 	0.12620 0.99270 0.69060 -0.48500
O 	O 	0.99740 0.09690 0.61630 -0.49300
O 	O 	0.90470 0.93380 0.74920 -0.47900
O 	O 	0.05390 0.91940 0.64610 -0.58200
O 	O 	0.00880 0.00800 0.63940 -0.51000
O 	O 	0.91440 0.03810 0.55430 -0.49100
O 	O 	0.96990 0.94690 0.68780 -0.46500
O 	O 	0.89320 0.00860 0.64020 -0.51000
O 	O 	0.88080 0.09520 0.61510 -0.49300
O 	O 	0.02110 0.06870 0.79890 -0.33500
O 	O 	0.94530 0.00960 0.75020 -0.41000
O 	O 	0.37040 0.63040 0.70140 -0.33600
O 	O 	0.84120 0.92510 0.64380 -0.58300
O 	O 	0.81720 0.99580 0.69330 -0.48900
O 	O 	0.78410 0.06940 0.64200 -0.47200
O 	O 	0.24890 0.65290 0.64180 -0.47200
O 	O 	0.75270 0.02030 0.75310 -0.45800
O 	O 	0.20980 0.59430 0.69080 -0.44900
O 	O 	0.22100 0.72200 0.69250 -0.48800
O 	O 	0.30110 0.65180 0.75070 -0.35400
O 	O 	0.41480 0.63140 0.79910 -0.29100
O 	O 	0.18970 0.80240 0.64350 -0.62800
O 	O 	0.28160 0.79880 0.85640 -0.58400
O 	O 	0.98490 0.83000 0.61140 -0.50800
O 	O 	0.23170 0.93140 0.58390 -0.34600
O 	O 	0.15250 0.88840 0.58200 -0.51300
O 	O 	0.11270 0.83670 0.71420 -0.49000
O 	O 	0.16920 0.84880 0.79670 -0.50100
O 	O 	0.70720 0.81780 0.53020 -0.47900
O 	O 	0.67360 0.79160 0.44910 -0.24900
O 	O 	0.90200 0.84900 0.62910 -0.44900
O 	O 	0.25070 0.79340 0.75120 -0.52500
O 	O 	0.33580 0.57340 0.75120 -0.37300
O 	O 	0.83200 0.76800 0.63030 -0.34500
O 	O 	0.07440 0.80280 0.53900 -0.44500
K 	K 	0.13400 0.74630 0.76360 0.62300
Na	Na	0.03280 0.70910 0.75620 0.54700
O 	O 	0.01700 0.76960 0.80300 -0.19600
O 	O 	0.02290 0.74250 0.82720 -0.20100
O 	O 	0.05430 0.66730 0.73520 -0.37700
O 	O 	0.04200 0.64230 0.69700 -0.09700
Pr	Pr	0.59004 0.65349 0.12041 2.04900
Pr	Pr	0.28862 0.65221 0.11073 2.03100
W 	W 	0.25005 0.45733 0.18844 1.03000
W 	W 	0.44331 0.44848 0.11900 1.37700
W 	W 	0.85888 0.75975 0.11883 1.36300
W 	W 	0.97892 0.75602 0.38149 1.11900
W 	W 	0.70672 0.83739 0.18695 1.04300
W 	W 	0.80971 0.87757 0.11968 1.08900
W 	W 	0.92809 0.87317 0.38162 1.10100
W 	W 	0.54613 0.53917 0.18645 1.37500
W 	W 	0.82169 0.96523 0.31618 1.33800
W 	W 	0.76197 0.84911 0.31524 1.05100
W 	W 	0.76084 0.71845 0.18681 1.33600
W 	W 	0.81027 0.72809 0.31491 1.34100
W 	W 	0.93741 0.65044 0.31388 1.04300
W 	W 	0.38125 0.53287 0.18583 1.37200
W 	W 	0.89709 0.65038 0.18560 1.06900
P 	P 	0.91110 0.74958 0.25040 0.56900
P 	P 	0.85647 0.87800 0.25051 0.56000
Na	Na	0.02350 0.84350 0.30250 0.59200
K 	K 	0.16110 0.00501 0.53084 0.62700
K 	K 	0.70080 0.71301 0.04000 0.63300
C 	C 	0.21540 0.69540 0.99040 0.31000
C 	C 	0.28340 0.69640 0.99420 -0.05500
C 	C 	0.30020 0.71230 0.95430 -0.01000
H 	H 	0.26970 0.72280 0.92270 0.03300
C 	C 	0.36420 0.71230 0.96280 -0.06800
H 	H 	0.37810 0.72170 0.93610 0.04500
C 	C 	0.40780 0.69850 0.01030 -0.00100
H 	H 	0.45160 0.69950 0.01730 -0.00200
C 	C 	0.38530 0.68340 0.04650 -0.09100
C 	C 	0.42740 0.66700 0.09960 0.40200
C 	C 	0.70020 0.61500 0.23420 -0.09400
C 	C 	0.75190 0.59350 0.26800 0.06100
H 	H 	0.76090 0.59480 0.30420 -0.04500
C 	C 	0.79060 0.57000 0.24940 -0.08400
H 	H 	0.82690 0.55540 0.27260 0.04200
C 	C 	0.77580 0.56810 0.19680 0.03400
H 	H 	0.80240 0.55260 0.18310 0.02200
C 	C 	0.72200 0.58890 0.16360 -0.06200
C 	C 	0.70110 0.58900 0.10530 0.33700
C 	C 	0.65930 0.64450 0.24960 0.41100
N 	N 	0.32440 0.68220 0.03990 -0.21000
N 	N 	0.68440 0.61170 0.18260 -0.18800
O 	O 	0.86370 0.67410 0.31100 -0.47200
O 	O 	0.90700 0.61960 0.24920 -0.44600
O 	O 	0.97690 0.64190 0.19100 -0.44500
O 	O 	0.81790 0.74780 0.05450 -0.53000
O 	O 	0.88330 0.69910 0.14110 -0.48500
O 	O 	0.93870 0.76730 0.11490 -0.46900
O 	O 	0.81210 0.67310 0.18930 -0.48200
O 	O 	0.78970 0.75000 0.14140 -0.53500
O 	O 	0.91080 0.77310 0.20190 -0.31600
O 	O 	0.93090 0.69980 0.25060 -0.35600
O 	O 	0.84290 0.74940 0.25060 -0.39600
O 	O 	0.84610 0.82070 0.11640 -0.47800
O 	O 	0.88930 0.74860 0.35980 -0.48400
O 	O 	0.77310 0.78200 0.31010 -0.49500
O 	O 	0.69300 0.84150 0.25120 -0.47400
O 	O 	0.84740 0.84650 0.35980 -0.46900
O 	O 	0.76730 0.90860 0.31230 -0.45500
O 	O 	0.98180 0.69670 0.36050 -0.46500
O 	O 	0.95490 0.77170 0.29920 -0.33800
O 	O 	0.96670 0.81830 0.38500 -0.48100
O 	O 	0.79470 0.98890 0.36020 -0.45800
O 	O 	0.88520 0.92870 0.35950 -0.50400
O 	O 	0.62620 0.50730 0.19060 -0.48600
O 	O 	0.49740 0.40310 0.11630 -0.47100
O 	O 	0.40470 0.56620 0.24920 -0.47900
O 	O 	0.55390 0.58060 0.14610 -0.58000
O 	O 	0.50880 0.49200 0.13940 -0.50600
O 	O 	0.41440 0.46190 0.05430 -0.49500
O 	O 	0.46990 0.55310 0.18780 -0.47200
O 	O 	0.39320 0.49140 0.14020 -0.51200
O 	O 	0.38080 0.40480 0.11510 -0.46700
O 	O 	0.52110 0.43130 0.29890 -0.37300
O 	O 	0.44530 0.49040 0.25020 -0.41600
O 	O 	0.87040 0.86960 0.20140 -0.29200
O 	O 	0.34120 0.57490 0.14380 -0.58400
O 	O 	0.31720 0.50420 0.19330 -0.48900
O 	O 	0.28410 0.43060 0.14200 -0.47400
O 	O 	0.74890 0.84710 0.14180 -0.47400
O 	O 	0.25270 0.47970 0.25310 -0.45900
O 	O 	0.70980 0.90570 0.19080 -0.44800
O 	O 	0.72100 0.77800 0.19250 -0.48800
O 	O 	0.80110 0.84820 0.25070 -0.35400
O 	O 	0.91480 0.86860 0.29910 -0.33400
O 	O 	0.68970 0.69760 0.14350 -0.62800
O 	O 	0.78160 0.70120 0.35640 -0.58400
O 	O 	0.48490 0.67000 0.11140 -0.51300
O 	O 	0.73170 0.56860 0.08390 -0.34500
O 	O 	0.65250 0.61160 0.08200 -0.51100
O 	O 	0.61270 0.66330 0.21420 -0.48800
O 	O 	0.66920 0.65120 0.29670 -0.50100
O 	O 	0.20720 0.68220 0.03020 -0.48000
O 	O 	0.17360 0.70840 0.94910 -0.25000
O 	O 	0.40200 0.65100 0.12910 -0.45000
O 	O 	0.75070 0.70660 0.25120 -0.52500
O 	O 	0.83580 0.92660 0.25120 -0.37300
O 	O 	0.33200 0.73200 0.13030 -0.34500
O 	O 	0.57440 0.69720 0.03900 -0.44000
K 	K 	0.63400 0.75370 0.26360 0.62400
Na	Na	0.53280 0.79090 0.25620 0.54800
O 	O 	0.51700 0.73040 0.30300 -0.19300
O 	O 	0.52290 0.75750 0.32720 -0.19800
O 	O 	0.55430 0.83270 0.23520 -0.37400
O 	O 	0.54200 0.85770 0.19700 -0.09300
Pr	Pr	0.09004 0.15349 0.12041 2.04700
Pr	Pr	0.78862 0.15221 0.11073 2.03100
W 	W 	0.75005 0.95733 0.18844 1.03200
W 	W 	0.94331 0.94848 0.11900 1.38300
W 	W 	0.35888 0.25975 0.11883 1.36400
W 	W 	0.47892 0.25602 0.38149 1.10900
W 	W 	0.20672 0.33739 0.18695 1.04100
W 	W 	0.30971 0.37757 0.11968 1.08700
W 	W 	0.42809 0.37317 0.38162 1.09300
W 	W 	0.04613 0.03917 0.18645 1.36600
W 	W 	0.32169 0.46523 0.31618 1.33700
W 	W 	0.26197 0.34911 0.31524 1.05000
W 	W 	0.26084 0.21845 0.18681 1.33500
W 	W 	0.31027 0.22809 0.31491 1.34000
W 	W 	0.43741 0.15044 0.31388 1.03600
W 	W 	0.88125 0.03287 0.18583 1.37200
W 	W 	0.39709 0.15038 0.18560 1.06700
P 	P 	0.41110 0.24958 0.25040 0.56900
P 	P 	0.35647 0.37800 0.25051 0.56000
Na	Na	0.52350 0.34350 0.30250 0.59300
K 	K 	0.66110 0.50501 0.53084 0.62800
K 	K 	0.20080 0.21301 0.04000 0.63200
C 	C 	0.71540 0.19540 0.99040 0.30800
C 	C 	0.78340 0.19640 0.99420 -0.05600
C 	C 	0.80020 0.21230 0.95430 -0.00800
H 	H 	0.76970 0.22280 0.92270 0.03200
C 	C 	0.86420 0.21230 0.96280 -0.07000
H 	H 	0.87810 0.22170 0.93610 0.04600
C 	C 	0.90780 0.19850 0.01030 0.00100
H 	H 	0.95160 0.19950 0.01730 -0.00000
C 	C 	0.88530 0.18340 0.04650 -0.09100
C 	C 	0.92740 0.16700 0.09960 0.40100
C 	C 	0.20020 0.11500 0.23420 -0.09400
C 	C 	0.25190 0.09350 0.26800 0.06200
H 	H 	0.26090 0.09480 0.30420 -0.04500
C 	C 	0.29060 0.07000 0.24940 -0.08500
H 	H 	0.32690 0.05540 0.27260 0.04100
C 	C 	0.27580 0.06810 0.19680 0.03400
H 	H 	0.30240 0.05260 0.18310 0.02100
C 	C 	0.22200 0.08890 0.16360 -0.06300
C 	C 	0.20110 0.08900 0.10530 0.33700
C 	C 	0.15930 0.14450 0.24960 0.41100
N 	N 	0.82440 0.18220 0.03990 -0.20900
N 	N 	0.18440 0.11170 0.18260 -0.18800
O 	O 	0.36370 0.17410 0.31100 -0.47100
O 	O 	0.40700 0.11960 0.24920 -0.44700
O 	O 	0.47690 0.14190 0.19100 -0.45200
O 	O 	0.31790 0.24780 0.05450 -0.53200
O 	O 	0.38330 0.19910 0.14110 -0.48700
O 	O 	0.43870 0.26730 0.11490 -0.47700
O 	O 	0.31210 0.17310 0.18930 -0.48200
O 	O 	0.28970 0.25000 0.14140 -0.53600
O 	O 	0.41080 0.27310 0.20190 -0.31800
O 	O 	0.43090 0.19980 0.25060 -0.35700
O 	O 	0.34290 0.24940 0.25060 -0.39600
O 	O 	0.34610 0.32070 0.11640 -0.47900
O 	O 	0.38930 0.24860 0.35980 -0.48300
O 	O 	0.27310 0.28200 0.31010 -0.49500
O 	O 	0.19300 0.34150 0.25120 -0.47400
O 	O 	0.34740 0.34650 0.35980 -0.46800
O 	O 	0.26730 0.40860 0.31230 -0.45600
O 	O 	0.48180 0.19670 0.36050 -0.46700
O 	O 	0.45490 0.27170 0.29920 -0.34100
O 	O 	0.46670 0.31830 0.38500 -0.48200
O 	O 	0.29470 0.48890 0.36020 -0.45900
O 	O 	0.38520 0.42870 0.35950 -0.50500
O 	O 	0.12620 0.00730 0.19060 -0.48500
O 	O 	0.99740 0.90310 0.11630 -0.46400
O 	O 	0.90470 0.06620 0.24920 -0.47900
O 	O 	0.05390 0.08060 0.14610 -0.58200
O 	O 	0.00880 0.99200 0.13940 -0.51300
O 	O 	0.91440 0.96190 0.05430 -0.49300
O 	O 	0.96990 0.05310 0.18780 -0.46400
O 	O 	0.89320 0.99140 0.14020 -0.51100
O 	O 	0.88080 0.90480 0.11510 -0.46800
O 	O 	0.02110 0.93130 0.29890 -0.37400
O 	O 	0.94530 0.99040 0.25020 -0.40900
O 	O 	0.37040 0.36960 0.20140 -0.29300
O 	O 	0.84120 0.07490 0.14380 -0.58300
O 	O 	0.81720 0.00420 0.19330 -0.49000
O 	O 	0.78410 0.93060 0.14200 -0.47400
O 	O 	0.24890 0.34710 0.14180 -0.47400
O 	O 	0.75270 0.97970 0.25310 -0.45800
O 	O 	0.20980 0.40570 0.19080 -0.44900
O 	O 	0.22100 0.27800 0.19250 -0.48800
O 	O 	0.30110 0.34820 0.25070 -0.35400
O 	O 	0.41480 0.36860 0.29910 -0.33600
O 	O 	0.18970 0.19760 0.14350 -0.62900
O 	O 	0.28160 0.20120 0.35640 -0.58400
O 	O 	0.98490 0.17000 0.11140 -0.50800
O 	O 	0.23170 0.06860 0.08390 -0.34600
O 	O 	0.15250 0.11160 0.08200 -0.51300
O 	O 	0.11270 0.16330 0.21420 -0.49000
O 	O 	0.16920 0.15120 0.29670 -0.50100
O 	O 	0.70720 0.18220 0.03020 -0.47800
O 	O 	0.67360 0.20840 0.94910 -0.24900
O 	O 	0.90200 0.15100 0.12910 -0.44900
O 	O 	0.25070 0.20660 0.25120 -0.52500
O 	O 	0.33580 0.42660 0.25120 -0.37300
O 	O 	0.83200 0.23200 0.13030 -0.34500
O 	O 	0.07440 0.19720 0.03900 -0.44500
K 	K 	0.13400 0.25370 0.26360 0.62300
Na	Na	0.03280 0.29090 0.25620 0.54600
O 	O 	0.01700 0.23040 0.30300 -0.19700
O 	O 	0.02290 0.25750 0.32720 -0.20200
O 	O 	0.05430 0.33270 0.23520 -0.37800
O 	O 	0.04200 0.35770 0.19700 -0.09700
Pr	Pr	0.40996 0.65349 0.37959 2.04900
Pr	Pr	0.71138 0.65221 0.38927 2.03100
W 	W 	0.74995 0.45733 0.31156 1.03200
W 	W 	0.55669 0.44848 0.38100 1.36500
W 	W 	0.14112 0.75975 0.38117 1.35200
W 	W 	0.02108 0.75602 0.11851 1.10700
W 	W 	0.29328 0.83739 0.31305 1.04300
W 	W 	0.19029 0.87757 0.38032 1.07800
W 	W 	0.07191 0.87317 0.11838 1.09300
W 	W 	0.45387 0.53917 0.31355 1.37500
W 	W 	0.17831 0.96523 0.18381 1.33700
W 	W 	0.23803 0.84911 0.18476 1.05000
W 	W 	0.23916 0.71845 0.31319 1.33500
W 	W 	0.18973 0.72809 0.18509 1.34000
W 	W 	0.06259 0.65044 0.18612 1.02700
W 	W 	0.61875 0.53287 0.31417 1.37200
W 	W 	0.10291 0.65038 0.31440 1.06600
P 	P 	0.08890 0.74958 0.24960 0.56900
P 	P 	0.14353 0.87800 0.24949 0.55900
K 	K 	0.83890 0.00501 0.96916 0.62800
K 	K 	0.29920 0.71301 0.46000 0.63200
C 	C 	0.78460 0.69540 0.50960 0.30900
C 	C 	0.71660 0.69640 0.50580 -0.05400
C 	C 	0.69980 0.71230 0.54570 -0.01000
H 	H 	0.73030 0.72280 0.57730 0.03300
C 	C 	0.63580 0.71230 0.53720 -0.06800
H 	H 	0.62190 0.72170 0.56390 0.04600
C 	C 	0.59220 0.69850 0.48970 -0.00100
H 	H 	0.54840 0.69950 0.48270 -0.00200
C 	C 	0.61470 0.68340 0.45350 -0.09100
C 	C 	0.57260 0.66700 0.40040 0.40200
C 	C 	0.29980 0.61500 0.26580 -0.09400
C 	C 	0.24810 0.59350 0.23200 0.06200
H 	H 	0.23910 0.59480 0.19580 -0.04600
C 	C 	0.20940 0.57000 0.25060 -0.08400
H 	H 	0.17310 0.55540 0.22740 0.04100
C 	C 	0.22420 0.56810 0.30320 0.03400
H 	H 	0.19760 0.55260 0.31690 0.02100
C 	C 	0.27800 0.58890 0.33640 -0.06300
C 	C 	0.29890 0.58900 0.39470 0.33700
C 	C 	0.34070 0.64450 0.25040 0.41100
N 	N 	0.67560 0.68220 0.46010 -0.21000
N 	N 	0.31560 0.61170 0.31740 -0.18800
O 	O 	0.13630 0.67410 0.18900 -0.47000
O 	O 	0.09300 0.61960 0.25080 -0.44800
O 	O 	0.02310 0.64190 0.30900 -0.46000
O 	O 	0.18210 0.74780 0.44550 -0.53000
O 	O 	0.11670 0.69910 0.35890 -0.48600
O 	O 	0.06130 0.76730 0.38510 -0.50900
O 	O 	0.18790 0.67310 0.31070 -0.48100
O 	O 	0.21030 0.75000 0.35860 -0.53300
O 	O 	0.08920 0.77310 0.29810 -0.36100
O 	O 	0.06910 0.69980 0.24940 -0.35900
O 	O 	0.15710 0.74940 0.24940 -0.39600
O 	O 	0.15390 0.82070 0.38360 -0.50600
O 	O 	0.11070 0.74860 0.14020 -0.48300
O 	O 	0.22690 0.78200 0.18990 -0.49500
O 	O 	0.30700 0.84150 0.24880 -0.47400
O 	O 	0.15260 0.84650 0.14020 -0.46900
O 	O 	0.23270 0.90860 0.18770 -0.45500
O 	O 	0.01820 0.69670 0.13950 -0.47100
O 	O 	0.04510 0.77170 0.20080 -0.30400
O 	O 	0.03330 0.81830 0.11500 -0.45800
O 	O 	0.20530 0.98890 0.13980 -0.45900
O 	O 	0.11480 0.92870 0.14050 -0.50700
O 	O 	0.37380 0.50730 0.30940 -0.48600
O 	O 	0.50260 0.40310 0.38370 -0.49900
O 	O 	0.59530 0.56620 0.25080 -0.47900
O 	O 	0.44610 0.58060 0.35390 -0.57900
O 	O 	0.49120 0.49200 0.36060 -0.50400
O 	O 	0.58560 0.46190 0.44570 -0.49200
O 	O 	0.53010 0.55310 0.31220 -0.47100
O 	O 	0.60680 0.49140 0.35980 -0.51000
O 	O 	0.61920 0.40480 0.38490 -0.49300
O 	O 	0.47890 0.43130 0.20110 -0.33300
O 	O 	0.55470 0.49040 0.24980 -0.41600
O 	O 	0.12960 0.86960 0.29860 -0.33600
O 	O 	0.65880 0.57490 0.35620 -0.58300
O 	O 	0.68280 0.50420 0.30670 -0.48900
O 	O 	0.71590 0.43060 0.35800 -0.47200
O 	O 	0.25110 0.84710 0.35820 -0.47200
O 	O 	0.74730 0.47970 0.24690 -0.45800
O 	O 	0.29020 0.90570 0.30920 -0.44800
O 	O 	0.27900 0.77800 0.30750 -0.48800
O 	O 	0.19890 0.84820 0.24930 -0.35400
O 	O 	0.08520 0.86860 0.20090 -0.29300
O 	O 	0.31030 0.69760 0.35650 -0.62800
O 	O 	0.21840 0.70120 0.14360 -0.58400
O 	O 	0.51510 0.67000 0.38860 -0.51300
O 	O 	0.26830 0.56860 0.41610 -0.34600
O 	O 	0.34750 0.61160 0.41800 -0.51200
O 	O 	0.38730 0.66330 0.28580 -0.48800
O 	O 	0.33080 0.65120 0.20330 -0.50100
O 	O 	0.79280 0.68220 0.46980 -0.47800
O 	O 	0.82640 0.70840 0.55090 -0.24800
O 	O 	0.59800 0.65100 0.37090 -0.45000
O 	O 	0.24930 0.70660 0.24880 -0.52500
O 	O 	0.16420 0.92660 0.24880 -0.37300
O 	O 	0.66800 0.73200 0.36970 -0.34500
O 	O 	0.42560 0.69720 0.46100 -0.44000
K 	K 	0.36600 0.75370 0.23640 0.62400
Na	Na	0.46720 0.79090 0.24380 0.54800
O 	O 	0.48300 0.73040 0.19700 -0.19300
O 	O 	0.47710 0.75750 0.17280 -0.19800
O 	O 	0.44570 0.83270 0.26480 -0.37400
O 	O 	0.45800 0.85770 0.30300 -0.09300
Pr	Pr	0.90996 0.15349 0.37959 2.05100
Pr	Pr	0.21138 0.15221 0.38927 2.03100
W 	W 	0.24995 0.95733 0.31156 1.03100
W 	W 	0.05669 0.94848 0.38100 1.35800
W 	W 	0.64112 0.25975 0.38117 1.35200
W 	W 	0.52108 0.25602 0.11851 1.11900
W 	W 	0.79328 0.33739 0.31305 1.04400
W 	W 	0.69029 0.37757 0.38032 1.08000
W 	W 	0.57191 0.37317 0.11838 1.10300
W 	W 	0.95387 0.03917 0.31355 1.38300
W 	W 	0.67831 0.46523 0.18381 1.33800
W 	W 	0.73803 0.34911 0.18476 1.05100
W 	W 	0.73916 0.21845 0.31319 1.33500
W 	W 	0.68973 0.22809 0.18509 1.34100
W 	W 	0.56259 0.15044 0.18612 1.03600
W 	W 	0.11875 0.03287 0.31417 1.37100
W 	W 	0.60291 0.15038 0.31440 1.06700
P 	P 	0.58890 0.24958 0.24960 0.57000
P 	P 	0.64353 0.37800 0.24949 0.55900
K 	K 	0.33890 0.50501 0.96916 0.62800
K 	K 	0.79920 0.21301 0.46000 0.63300
C 	C 	0.28460 0.19540 0.50960 0.30900
C 	C 	0.21660 0.19640 0.50580 -0.05500
C 	C 	0.19980 0.21230 0.54570 -0.00900
H 	H 	0.23030 0.22280 0.57730 0.03300
C 	C 	0.13580 0.21230 0.53720 -0.06900
H 	H 	0.12190 0.22170 0.56390 0.04600
C 	C 	0.09220 0.19850 0.48970 -0.00000
H 	H 	0.04840 0.19950 0.48270 -0.00500
C 	C 	0.11470 0.18340 0.45350 -0.09300
C 	C 	0.07260 0.16700 0.40040 0.40300
C 	C 	0.79980 0.11500 0.26580 -0.09400
C 	C 	0.74810 0.09350 0.23200 0.06100
H 	H 	0.73910 0.09480 0.19580 -0.04500
C 	C 	0.70940 0.07000 0.25060 -0.08400
H 	H 	0.67310 0.05540 0.22740 0.04100
C 	C 	0.72420 0.06810 0.30320 0.03400
H 	H 	0.69760 0.05260 0.31690 0.02200
C 	C 	0.77800 0.08890 0.33640 -0.06200
C 	C 	0.79890 0.08900 0.39470 0.33700
C 	C 	0.84070 0.14450 0.25040 0.41000
N 	N 	0.17560 0.18220 0.46010 -0.21000
N 	N 	0.81560 0.11170 0.31740 -0.18800
O 	O 	0.63630 0.17410 0.18900 -0.47100
O 	O 	0.59300 0.11960 0.25080 -0.44700
O 	O 	0.52310 0.14190 0.30900 -0.45200
O 	O 	0.68210 0.24780 0.44550 -0.52900
O 	O 	0.61670 0.19910 0.35890 -0.48500
O 	O 	0.56130 0.26730 0.38510 -0.50200
O 	O 	0.68790 0.17310 0.31070 -0.48200
O 	O 	0.71030 0.25000 0.35860 -0.53300
O 	O 	0.58920 0.27310 0.29810 -0.35900
O 	O 	0.56910 0.19980 0.24940 -0.35700
O 	O 	0.65710 0.24940 0.24940 -0.39600
O 	O 	0.65390 0.32070 0.38360 -0.50600
O 	O 	0.61070 0.24860 0.14020 -0.48500
O 	O 	0.72690 0.28200 0.18990 -0.49500
O 	O 	0.80700 0.34150 0.24880 -0.47400
O 	O 	0.65260 0.34650 0.14020 -0.47000
O 	O 	0.73270 0.40860 0.18770 -0.45500
O 	O 	0.51820 0.19670 0.13950 -0.46900
O 	O 	0.54510 0.27170 0.20080 -0.30100
O 	O 	0.53330 0.31830 0.11500 -0.45600
O 	O 	0.70530 0.48890 0.13980 -0.45800
O 	O 	0.61480 0.42870 0.14050 -0.50700
O 	O 	0.87380 0.00730 0.30940 -0.48700
O 	O 	0.00260 0.90310 0.38370 -0.50700
O 	O 	0.09530 0.06620 0.25080 -0.47900
O 	O 	0.94610 0.08060 0.35390 -0.57700
O 	O 	0.99120 0.99200 0.36060 -0.49700
O 	O 	0.08560 0.96190 0.44570 -0.49400
O 	O 	0.03010 0.05310 0.31220 -0.47900
O 	O 	0.10680 0.99140 0.35980 -0.51000
O 	O 	0.11920 0.90480 0.38490 -0.49200
O 	O 	0.97890 0.93130 0.20110 -0.32400
O 	O 	0.05470 0.99040 0.24980 -0.41500
O 	O 	0.62960 0.36960 0.29860 -0.33600
O 	O 	0.15880 0.07490 0.35620 -0.58400
O 	O 	0.18280 0.00420 0.30670 -0.48900
O 	O 	0.21590 0.93060 0.35800 -0.47200
O 	O 	0.75110 0.34710 0.35820 -0.47200
O 	O 	0.24730 0.97970 0.24690 -0.45800
O 	O 	0.79020 0.40570 0.30920 -0.44800
O 	O 	0.77900 0.27800 0.30750 -0.48800
O 	O 	0.69890 0.34820 0.24930 -0.35400
O 	O 	0.58520 0.36860 0.20090 -0.29200
O 	O 	0.81030 0.19760 0.35650 -0.62700
O 	O 	0.71840 0.20120 0.14360 -0.58400
O 	O 	0.01510 0.17000 0.38860 -0.51900
O 	O 	0.76830 0.06860 0.41610 -0.34500
O 	O 	0.84750 0.11160 0.41800 -0.51100
O 	O 	0.88730 0.16330 0.28580 -0.48500
O 	O 	0.83080 0.15120 0.20330 -0.50000
O 	O 	0.29280 0.18220 0.46980 -0.47900
O 	O 	0.32640 0.20840 0.55090 -0.24900
O 	O 	0.09800 0.15100 0.37090 -0.45200
O 	O 	0.74930 0.20660 0.24880 -0.52500
O 	O 	0.66420 0.42660 0.24880 -0.37300
O 	O 	0.16800 0.23200 0.36970 -0.34600
O 	O 	0.92560 0.19720 0.46100 -0.43600
K 	K 	0.86600 0.25370 0.23640 0.62500
Na	Na	0.96720 0.29090 0.24380 0.54900
O 	O 	0.98300 0.23040 0.19700 -0.18900
O 	O 	0.97710 0.25750 0.17280 -0.19500
O 	O 	0.94570 0.33270 0.26480 -0.37100
O 	O 	0.95800 0.35770 0.30300 -0.08900
P 	P 	0.50000 0.54091 0.75000 0.58200
P 	P 	0.00000 0.04091 0.75000 0.56900
P 	P 	0.50000 0.45909 0.25000 0.58200
P 	P 	0.00000 0.95909 0.25000 0.56700
