data_crystal

_cell_length_a 17.78790
_cell_length_b 17.98000
_cell_length_c 26.74200
_cell_angle_alpha 88.79100
_cell_angle_beta  79.04900
_cell_angle_gamma 71.30600

_symmetry_space_group_name_	'P 1'
_symmetry_space_group_name_H-M	'P 1'

loop_
_symmetry_equiv_pos_as_xyz
  x,y,z

loop_
_atom_site_label
_atom_site_type_symbol
_atom_site_fract_x
_atom_site_fract_y
_atom_site_fract_z
_atom_site_charge
Pr	Pr	0.39872 0.92559 0.07540 1.97200
Pr	Pr	0.73242 0.74591 0.88498 1.98100
Pr	Pr	0.77006 0.28357 0.77651 1.92200
Pr	Pr	0.07949 0.62537 0.42828 1.93400
W 	W 	0.07825 0.64227 0.88980 0.99100
W 	W 	0.16101 0.78486 0.94118 1.03400
W 	W 	0.25802 0.03904 0.89173 0.98300
W 	W 	0.99973 0.55438 0.73055 1.26000
W 	W 	0.33925 0.84386 0.95240 1.30300
W 	W 	0.12103 0.13528 0.80037 1.02800
W 	W 	0.26349 0.48622 0.91000 0.95700
W 	W 	0.27779 0.40913 0.71914 1.03800
W 	W 	0.50137 0.77513 0.86194 1.36500
W 	W 	0.08273 0.97904 0.88436 1.04100
W 	W 	0.95148 0.74779 0.79814 1.38300
W 	W 	0.42389 0.97198 0.80331 1.02400
W 	W 	0.40454 0.87460 0.68764 1.04100
W 	W 	0.13286 0.45281 0.82320 0.98100
W 	W 	0.34460 0.63439 0.96251 1.02200
W 	W 	0.27120 0.85206 0.60104 1.06600
W 	W 	0.15552 0.06476 0.62576 1.01800
W 	W 	0.95213 0.95465 0.79617 1.06400
W 	W 	0.27380 0.64317 0.60513 1.04900
W 	W 	0.91176 0.74478 0.66985 0.98700
W 	W 	0.98597 0.10904 0.71281 1.33700
W 	W 	0.14572 0.51753 0.62748 1.01600
W 	W 	0.29294 0.08326 0.71383 1.01300
W 	W 	0.41199 0.42381 0.80884 0.98700
W 	W 	0.49508 0.56722 0.86392 0.99700
W 	W 	0.48476 0.68226 0.74679 1.05200
W 	W 	0.40505 0.53846 0.69551 1.00900
W 	W 	0.06838 0.71588 0.57347 1.32100
W 	W 	0.06961 0.92690 0.57062 0.99900
W 	W 	0.91031 0.95600 0.66504 1.02500
P 	P 	0.10220 0.68780 0.69550 0.59700
P 	P 	0.10140 0.91690 0.69180 0.58100
P 	P 	0.24660 0.94160 0.78770 0.54500
P 	P 	0.33430 0.73080 0.85150 0.57500
P 	P 	0.24540 0.57480 0.79500 0.55800
O 	O 	0.31520 0.54250 0.93630 -0.46500
O 	O 	0.28680 0.74360 0.60500 -0.46300
O 	O 	0.20390 0.11000 0.85100 -0.45500
O 	O 	0.45520 0.49180 0.84660 -0.44000
O 	O 	0.08300 0.06590 0.84380 -0.48800
O 	O 	0.23410 0.55520 0.61440 -0.48000
O 	O 	0.10880 0.72740 0.91370 -0.46000
O 	O 	0.36710 0.72660 0.96860 -0.44000
O 	O 	0.46070 0.88860 0.83940 -0.46900
O 	O 	0.95950 0.84890 0.80430 -0.48500
O 	O 	0.07270 0.55600 0.85050 -0.46900
O 	O 	0.96770 0.63880 0.77910 -0.52300
O 	O 	0.17590 0.91950 0.81870 -0.26000
O 	O 	0.94300 0.64140 0.68530 -0.46900
O 	O 	0.44160 0.77150 0.70820 -0.45400
O 	O 	0.94290 0.05590 0.67790 -0.51700
O 	O 	0.51750 0.67330 0.87470 -0.47300
O 	O 	0.35610 0.05680 0.76130 -0.46500
O 	O 	0.91060 0.19730 0.72680 -0.66900
O 	O 	0.34330 0.84630 0.64360 -0.45600
O 	O 	0.24430 0.75700 0.86590 -0.27000
O 	O 	0.31730 0.93910 0.92430 -0.49300
O 	O 	0.04930 0.13880 0.65410 -0.47000
O 	O 	0.11320 0.87760 0.90990 -0.46100
O 	O 	0.01590 0.95350 0.84440 -0.46500
O 	O 	0.44200 0.90850 0.74450 -0.46200
O 	O 	0.50480 0.60260 0.79400 -0.46800
O 	O 	0.36130 0.72190 0.79510 -0.27800
O 	O 	0.85720 0.76210 0.83800 -0.70500
O 	O 	0.20440 0.16240 0.75690 -0.45000
O 	O 	0.34760 0.98260 0.68070 -0.46900
O 	O 	0.23290 0.96540 0.60860 -0.46700
O 	O 	0.29770 0.60170 0.75150 -0.26600
O 	O 	0.44200 0.62050 0.71110 -0.45800
O 	O 	0.09200 0.59830 0.59320 -0.49500
O 	O 	0.18590 0.68850 0.67460 -0.28900
O 	O 	0.16820 0.57280 0.91340 -0.48100
O 	O 	0.20290 0.44090 0.86660 -0.46400
O 	O 	0.10010 0.60300 0.69680 -0.37300
O 	O 	0.06850 0.48950 0.76910 -0.46300
O 	O 	0.45620 0.81750 0.92970 -0.49000
O 	O 	0.06280 0.13740 0.75360 -0.46700
O 	O 	0.01280 0.71160 0.84820 -0.48900
O 	O 	0.17170 0.99660 0.90830 -0.46400
O 	O 	0.21110 0.09080 0.67030 -0.43900
O 	O 	0.96650 0.04980 0.76850 -0.52800
O 	O 	0.36470 0.04020 0.86210 -0.47900
O 	O 	0.33760 0.86930 0.01590 -0.62300
O 	O 	0.06750 0.90260 0.74580 -0.27900
O 	O 	0.50690 0.75040 0.79200 -0.48900
O 	O 	0.21040 0.51580 0.77370 -0.33300
O 	O 	0.23760 0.83670 0.95440 -0.49100
O 	O 	0.44070 0.48510 0.75500 -0.47000
O 	O 	0.20560 0.44650 0.67980 -0.45100
O 	O 	0.18820 0.86340 0.67300 -0.27800
O 	O 	0.30320 0.95320 0.82290 -0.34300
O 	O 	0.91180 0.77480 0.73760 -0.50000
O 	O 	0.91640 0.52140 0.74450 -0.51300
O 	O 	0.95650 0.72740 0.59660 -0.47000
O 	O 	0.06910 0.72570 0.74640 -0.31600
O 	O 	0.34450 0.60560 0.64910 -0.45200
O 	O 	0.45200 0.57320 0.93510 -0.46200
O 	O 	0.09890 0.00250 0.68900 -0.37100
O 	O 	0.04640 0.73080 0.65650 -0.37300
O 	O 	0.17690 0.86370 0.57170 -0.46700
O 	O 	0.90730 0.85990 0.65930 -0.45800
O 	O 	0.35870 0.40640 0.87450 -0.44900
O 	O 	0.30030 0.52980 0.83260 -0.32700
O 	O 	0.95150 0.96610 0.59370 -0.45800
O 	O 	0.05250 0.49810 0.66490 -0.46800
O 	O 	0.21350 0.02150 0.76260 -0.33500
O 	O 	0.20900 0.37620 0.77180 -0.44800
O 	O 	0.37070 0.78780 0.87320 -0.40700
O 	O 	0.34880 0.39170 0.77360 -0.46100
O 	O 	0.07200 0.69000 0.50920 -0.67900
O 	O 	0.29520 0.87860 0.74630 -0.25900
O 	O 	0.04890 0.82130 0.57000 -0.46700
O 	O 	0.09240 0.01390 0.58630 -0.45800
O 	O 	0.04470 0.90860 0.65660 -0.35000
O 	O 	0.90980 0.94950 0.73410 -0.47200
O 	O 	0.59700 0.77620 0.86090 -0.60100
O 	O 	0.34320 0.46930 0.69260 -0.48200
O 	O 	0.24140 0.68670 0.95820 -0.48700
O 	O 	0.17780 0.64090 0.82400 -0.25900
O 	O 	0.36700 0.64970 0.87730 -0.33800
O 	O 	0.17660 0.69040 0.57490 -0.50600
O 	O 	0.62890 0.79070 0.96040 -0.59700
O 	O 	0.52950 0.88120 0.01200 -0.57300
O 	O 	0.85280 0.36570 0.74320 -0.60100
O 	O 	0.34020 0.83550 0.12820 -0.60800
O 	O 	0.34170 0.99360 0.16150 -0.63800
O 	O 	0.67090 0.28300 0.85530 -0.60200
O 	O 	0.93610 0.66350 0.46080 -0.53400
O 	O 	0.14670 0.61460 0.33980 -0.63400
O 	O 	0.80790 0.72100 0.45200 -0.34900
O 	O 	0.68430 0.88130 0.86090 -0.65000
N 	N 	0.99000 0.66280 0.36140 -0.21100
C 	C 	0.90760 0.68690 0.37700 -0.10800
C 	C 	0.85860 0.70320 0.34160 0.06300
H 	H 	0.80150 0.71990 0.35240 -0.01900
C 	C 	0.89200 0.69550 0.29060 -0.13200
H 	H 	0.85810 0.70690 0.26610 0.06800
C 	C 	0.97450 0.67150 0.27500 0.09800
H 	H 	0.99760 0.66610 0.23970 -0.05000
C 	C 	0.02350 0.65510 0.31040 -0.14800
C 	C 	0.89100 0.36700 0.69940 0.39000
C 	C 	0.87500 0.69300 0.43480 0.32400
N 	N 	0.46820 0.77860 0.05760 -0.19300
C 	C 	0.53890 0.74960 0.02020 -0.15200
C 	C 	0.57130 0.66850 0.00730 0.07000
H 	H 	0.61900 0.64890 0.98190 -0.06700
C 	C 	0.53310 0.61650 0.03190 -0.12800
H 	H 	0.55490 0.56180 0.02320 0.04200
C 	C 	0.46240 0.64560 0.06940 0.05600
H 	H 	0.43660 0.61050 0.08600 -0.02200
C 	C 	0.42990 0.72660 0.08230 -0.13800
C 	C 	0.56910 0.80890 0.99370 0.45100
C 	C 	0.36100 0.76550 0.12390 0.43500
C 	C 	0.27100 0.08800 0.22640 -0.76600
H 	H 	0.27110 0.04020 0.24480 0.20700
H 	H 	0.30240 0.11460 0.24130 0.19900
H 	H 	0.21560 0.12300 0.22890 0.22600
C 	C 	0.31100 0.06480 0.16850 0.56700
O 	O 	0.68250 0.62950 0.88870 -0.52400
O 	O 	0.74780 0.40060 0.84300 -0.52600
Na	Na	0.82360 0.48460 0.80910 0.54800
Na	Na	0.25940 0.49150 0.05770 0.52600
Pr	Pr	0.60128 0.07441 0.92460 1.97100
Pr	Pr	0.26758 0.25409 0.11502 1.98000
Pr	Pr	0.22994 0.71643 0.22349 1.92100
Pr	Pr	0.92051 0.37463 0.57172 1.93300
W 	W 	0.92175 0.35773 0.11020 0.99000
W 	W 	0.83899 0.21514 0.05882 1.03300
W 	W 	0.74198 0.96096 0.10827 0.98300
W 	W 	0.00027 0.44562 0.26945 1.26000
W 	W 	0.66075 0.15614 0.04760 1.30300
W 	W 	0.87897 0.86472 0.19963 1.02800
W 	W 	0.73651 0.51378 0.09000 0.95700
W 	W 	0.72221 0.59087 0.28086 1.03800
W 	W 	0.49863 0.22487 0.13806 1.36500
W 	W 	0.91727 0.02096 0.11564 1.04100
W 	W 	0.04852 0.25221 0.20186 1.38300
W 	W 	0.57611 0.02802 0.19669 1.02400
W 	W 	0.59546 0.12540 0.31236 1.04100
W 	W 	0.86714 0.54719 0.17680 0.98100
W 	W 	0.65540 0.36561 0.03749 1.02200
W 	W 	0.72880 0.14794 0.39896 1.06600
W 	W 	0.84448 0.93524 0.37424 1.01800
W 	W 	0.04787 0.04535 0.20383 1.06400
W 	W 	0.72620 0.35683 0.39487 1.04900
W 	W 	0.08824 0.25522 0.33015 0.98700
W 	W 	0.01403 0.89096 0.28719 1.33700
W 	W 	0.85428 0.48247 0.37252 1.01600
W 	W 	0.70706 0.91674 0.28617 1.01300
W 	W 	0.58801 0.57619 0.19116 0.98700
W 	W 	0.50492 0.43278 0.13608 0.99700
W 	W 	0.51524 0.31774 0.25321 1.05200
W 	W 	0.59495 0.46154 0.30449 1.00900
W 	W 	0.93162 0.28412 0.42653 1.32100
W 	W 	0.93039 0.07310 0.42938 0.99900
W 	W 	0.08969 0.04400 0.33496 1.02500
P 	P 	0.89780 0.31220 0.30450 0.59700
P 	P 	0.89860 0.08310 0.30820 0.58100
P 	P 	0.75340 0.05840 0.21230 0.54500
P 	P 	0.66570 0.26920 0.14850 0.57500
P 	P 	0.75460 0.42520 0.20500 0.55800
O 	O 	0.68480 0.45750 0.06370 -0.46500
O 	O 	0.71320 0.25640 0.39500 -0.46300
O 	O 	0.79610 0.89000 0.14900 -0.45500
O 	O 	0.54480 0.50820 0.15340 -0.44000
O 	O 	0.91700 0.93410 0.15620 -0.48800
O 	O 	0.76590 0.44480 0.38560 -0.48000
O 	O 	0.89120 0.27260 0.08630 -0.46000
O 	O 	0.63290 0.27340 0.03140 -0.44000
O 	O 	0.53930 0.11140 0.16060 -0.46900
O 	O 	0.04050 0.15110 0.19570 -0.48500
O 	O 	0.92730 0.44400 0.14950 -0.46900
O 	O 	0.03230 0.36120 0.22090 -0.52300
O 	O 	0.82410 0.08050 0.18130 -0.26000
O 	O 	0.05700 0.35860 0.31470 -0.46900
O 	O 	0.55840 0.22850 0.29180 -0.45400
O 	O 	0.05710 0.94410 0.32210 -0.51700
O 	O 	0.48250 0.32670 0.12530 -0.47300
O 	O 	0.64390 0.94320 0.23870 -0.46500
O 	O 	0.08940 0.80270 0.27320 -0.66900
O 	O 	0.65670 0.15370 0.35640 -0.45600
O 	O 	0.75570 0.24300 0.13410 -0.27000
O 	O 	0.68270 0.06090 0.07570 -0.49300
O 	O 	0.95070 0.86120 0.34590 -0.47000
O 	O 	0.88680 0.12240 0.09010 -0.46100
O 	O 	0.98410 0.04650 0.15560 -0.46500
O 	O 	0.55800 0.09150 0.25550 -0.46200
O 	O 	0.49520 0.39740 0.20600 -0.46800
O 	O 	0.63870 0.27810 0.20490 -0.27800
O 	O 	0.14280 0.23790 0.16200 -0.70500
O 	O 	0.79560 0.83760 0.24310 -0.45000
O 	O 	0.65240 0.01740 0.31930 -0.46900
O 	O 	0.76710 0.03460 0.39140 -0.46700
O 	O 	0.70230 0.39830 0.24850 -0.26600
O 	O 	0.55800 0.37950 0.28890 -0.45800
O 	O 	0.90800 0.40170 0.40680 -0.49500
O 	O 	0.81410 0.31150 0.32540 -0.28900
O 	O 	0.83180 0.42720 0.08660 -0.48100
O 	O 	0.79710 0.55910 0.13340 -0.46400
O 	O 	0.89990 0.39700 0.30320 -0.37300
O 	O 	0.93150 0.51050 0.23090 -0.46300
O 	O 	0.54380 0.18250 0.07030 -0.49000
O 	O 	0.93720 0.86260 0.24640 -0.46700
O 	O 	0.98720 0.28840 0.15180 -0.48900
O 	O 	0.82830 0.00340 0.09170 -0.46400
O 	O 	0.78890 0.90920 0.32970 -0.43900
O 	O 	0.03350 0.95020 0.23150 -0.52800
O 	O 	0.63530 0.95980 0.13790 -0.47900
O 	O 	0.66240 0.13070 0.98410 -0.62300
O 	O 	0.93250 0.09740 0.25420 -0.27900
O 	O 	0.49310 0.24960 0.20800 -0.48900
O 	O 	0.78960 0.48420 0.22630 -0.33300
O 	O 	0.76240 0.16330 0.04560 -0.49100
O 	O 	0.55930 0.51490 0.24500 -0.47000
O 	O 	0.79440 0.55350 0.32020 -0.45100
O 	O 	0.81180 0.13660 0.32700 -0.27800
O 	O 	0.69680 0.04680 0.17710 -0.34300
O 	O 	0.08820 0.22520 0.26240 -0.50000
O 	O 	0.08360 0.47860 0.25550 -0.51300
O 	O 	0.04350 0.27260 0.40340 -0.47000
O 	O 	0.93090 0.27430 0.25360 -0.31600
O 	O 	0.65550 0.39440 0.35090 -0.45200
O 	O 	0.54800 0.42680 0.06490 -0.46200
O 	O 	0.90110 0.99750 0.31100 -0.37100
O 	O 	0.95360 0.26920 0.34350 -0.37300
O 	O 	0.82310 0.13630 0.42830 -0.46700
O 	O 	0.09270 0.14010 0.34070 -0.45800
O 	O 	0.64130 0.59360 0.12550 -0.44900
O 	O 	0.69970 0.47020 0.16740 -0.32700
O 	O 	0.04850 0.03390 0.40630 -0.45800
O 	O 	0.94750 0.50190 0.33510 -0.46800
O 	O 	0.78650 0.97850 0.23740 -0.33500
O 	O 	0.79100 0.62380 0.22820 -0.44800
O 	O 	0.62930 0.21220 0.12680 -0.40700
O 	O 	0.65120 0.60830 0.22640 -0.46100
O 	O 	0.92800 0.31000 0.49080 -0.67900
O 	O 	0.70480 0.12140 0.25370 -0.25900
O 	O 	0.95110 0.17870 0.43000 -0.46700
O 	O 	0.90760 0.98610 0.41370 -0.45800
O 	O 	0.95530 0.09140 0.34340 -0.35000
O 	O 	0.09020 0.05050 0.26590 -0.47200
O 	O 	0.40300 0.22380 0.13910 -0.60100
O 	O 	0.65680 0.53070 0.30740 -0.48200
O 	O 	0.75860 0.31330 0.04180 -0.48700
O 	O 	0.82220 0.35910 0.17600 -0.25900
O 	O 	0.63300 0.35030 0.12270 -0.33800
O 	O 	0.82340 0.30960 0.42510 -0.50600
O 	O 	0.37110 0.20930 0.03960 -0.59700
O 	O 	0.47050 0.11880 0.98800 -0.57300
O 	O 	0.14720 0.63430 0.25680 -0.60100
O 	O 	0.65980 0.16450 0.87180 -0.60800
O 	O 	0.65830 0.00640 0.83850 -0.63800
O 	O 	0.32910 0.71700 0.14470 -0.60200
O 	O 	0.06390 0.33650 0.53920 -0.53400
O 	O 	0.85330 0.38540 0.66020 -0.63400
O 	O 	0.19210 0.27900 0.54800 -0.34900
O 	O 	0.31570 0.11870 0.13910 -0.65000
N 	N 	0.01000 0.33720 0.63860 -0.21100
C 	C 	0.09240 0.31310 0.62300 -0.10800
C 	C 	0.14140 0.29680 0.65840 0.06300
H 	H 	0.19850 0.28010 0.64760 -0.01900
C 	C 	0.10800 0.30450 0.70940 -0.13200
H 	H 	0.14190 0.29310 0.73390 0.06800
C 	C 	0.02550 0.32850 0.72500 0.09800
H 	H 	0.00240 0.33390 0.76030 -0.05000
C 	C 	0.97650 0.34490 0.68960 -0.14800
C 	C 	0.10900 0.63300 0.30060 0.39000
C 	C 	0.12500 0.30700 0.56520 0.32400
N 	N 	0.53180 0.22140 0.94240 -0.19300
C 	C 	0.46110 0.25040 0.97980 -0.15200
C 	C 	0.42870 0.33150 0.99270 0.07000
H 	H 	0.38100 0.35110 0.01810 -0.06700
C 	C 	0.46690 0.38350 0.96810 -0.12800
H 	H 	0.44510 0.43820 0.97680 0.04200
C 	C 	0.53760 0.35440 0.93060 0.05600
H 	H 	0.56340 0.38950 0.91400 -0.02200
C 	C 	0.57010 0.27340 0.91770 -0.13800
C 	C 	0.43090 0.19110 0.00630 0.45100
C 	C 	0.63900 0.23450 0.87610 0.43500
C 	C 	0.72900 0.91200 0.77360 -0.76600
H 	H 	0.72890 0.95980 0.75520 0.20700
H 	H 	0.69760 0.88540 0.75870 0.19900
H 	H 	0.78440 0.87700 0.77110 0.22600
C 	C 	0.68900 0.93520 0.83150 0.56700
O 	O 	0.31750 0.37050 0.11130 -0.52400
O 	O 	0.25220 0.59940 0.15700 -0.52600
Na	Na	0.17640 0.51540 0.19090 0.54800
Na	Na	0.74060 0.50850 0.94230 0.52600
