data_crystal

_cell_length_a 18.55030
_cell_length_b 18.55030
_cell_length_c 38.80680
_cell_angle_alpha 90.00000
_cell_angle_beta  90.00000
_cell_angle_gamma 120.00000

_symmetry_space_group_name_	'P 1'
_symmetry_space_group_name_H-M	'P 1'

loop_
_symmetry_equiv_pos_as_xyz
  x,y,z

loop_
_atom_site_label
_atom_site_type_symbol
_atom_site_fract_x
_atom_site_fract_y
_atom_site_fract_z
_atom_site_charge
C 	C 	0.45220 0.09190 0.02763 0.41900
C 	C 	0.43000 0.15050 0.04467 -0.20800
C 	C 	0.40000 0.13470 0.07805 0.33300
H 	H 	0.39040 0.08630 0.08920 -0.03000
O 	O 	0.48133 0.11018 0.99732 -0.39200
O 	O 	0.44081 0.02942 0.04454 -0.38600
C 	C 	0.28180 0.10400 0.14234 -3.03100
C 	C 	0.26590 0.09610 0.17691 1.07600
H 	H 	0.21450 0.05640 0.18770 -0.26800
C 	C 	0.21530 0.03460 0.11670 -8.65700
F 	F 	0.20500 0.06730 0.08738 1.12700
F 	F 	0.23920 0.97890 0.11017 1.07100
F 	F 	0.13920 0.98960 0.13060 1.38200
H 	H 	0.24660 0.06260 0.12540 6.72700
C 	C 	0.11887 0.42523 0.36096 0.41600
C 	C 	0.09667 0.48383 0.37800 -0.20800
C 	C 	0.06667 0.46803 0.41138 0.32800
H 	H 	0.05707 0.41963 0.42253 -0.03100
O 	O 	0.14800 0.44351 0.33065 -0.39100
O 	O 	0.10748 0.36275 0.37787 -0.38800
C 	C 	0.94847 0.43733 0.47567 -3.00000
C 	C 	0.93257 0.42943 0.51024 1.05600
H 	H 	0.88117 0.38973 0.52103 -0.26400
C 	C 	0.88197 0.36793 0.45003 -8.60600
F 	F 	0.87167 0.40063 0.42071 1.11700
F 	F 	0.90587 0.31223 0.44350 1.06700
F 	F 	0.80587 0.32293 0.46393 1.37800
H 	H 	0.91327 0.39593 0.45873 6.68200
C 	C 	0.78553 0.75857 0.69430 0.41400
C 	C 	0.76333 0.81717 0.71134 -0.20300
C 	C 	0.73333 0.80137 0.74472 0.32300
H 	H 	0.72373 0.75297 0.75587 -0.02900
O 	O 	0.81466 0.77685 0.66399 -0.39000
O 	O 	0.77414 0.69609 0.71121 -0.38800
C 	C 	0.61513 0.77067 0.80901 -3.00400
C 	C 	0.59923 0.76277 0.84358 1.05200
H 	H 	0.54783 0.72307 0.85437 -0.26300
C 	C 	0.54863 0.70127 0.78337 -8.62800
F 	F 	0.53833 0.73397 0.75405 1.12000
F 	F 	0.57253 0.64557 0.77684 1.06900
F 	F 	0.47253 0.65627 0.79727 1.38200
H 	H 	0.57993 0.72927 0.79207 6.69700
C 	C 	0.90810 0.36030 0.02763 0.42000
C 	C 	0.84950 0.27950 0.04467 -0.21100
C 	C 	0.86530 0.26530 0.07805 0.33600
H 	H 	0.91370 0.30410 0.08920 -0.03200
O 	O 	0.88982 0.37115 0.99732 -0.39400
O 	O 	0.97058 0.41139 0.04454 -0.38700
C 	C 	0.89600 0.17780 0.14234 -3.03600
C 	C 	0.90390 0.16980 0.17691 1.07600
H 	H 	0.94360 0.15810 0.18770 -0.26800
C 	C 	0.96540 0.18070 0.11670 -8.68900
F 	F 	0.93270 0.13770 0.08738 1.13100
F 	F 	0.02110 0.26030 0.11017 1.07500
F 	F 	0.01040 0.14960 0.13060 1.39000
H 	H 	0.93740 0.18400 0.12540 6.74800
C 	C 	0.57477 0.69363 0.36096 0.41600
C 	C 	0.51617 0.61283 0.37800 -0.20700
C 	C 	0.53197 0.59863 0.41138 0.32800
H 	H 	0.58037 0.63743 0.42253 -0.03000
O 	O 	0.55649 0.70448 0.33065 -0.39000
O 	O 	0.63725 0.74472 0.37787 -0.38800
C 	C 	0.56267 0.51113 0.47567 -3.00000
C 	C 	0.57057 0.50313 0.51024 1.05600
H 	H 	0.61027 0.49143 0.52103 -0.26400
C 	C 	0.63207 0.51403 0.45003 -8.60400
F 	F 	0.59937 0.47103 0.42071 1.11600
F 	F 	0.68777 0.59363 0.44350 1.06600
F 	F 	0.67707 0.48293 0.46393 1.37700
H 	H 	0.60407 0.51733 0.45873 6.68100
C 	C 	0.24143 0.02697 0.69430 0.40500
C 	C 	0.18283 0.94617 0.71134 -0.19000
C 	C 	0.19863 0.93197 0.74472 0.31600
H 	H 	0.24703 0.97077 0.75587 -0.02400
O 	O 	0.22315 0.03782 0.66399 -0.38900
O 	O 	0.30391 0.07806 0.71121 -0.38700
C 	C 	0.22933 0.84447 0.80901 -3.00400
C 	C 	0.23723 0.83647 0.84358 1.05300
H 	H 	0.27693 0.82477 0.85437 -0.26300
C 	C 	0.29873 0.84737 0.78337 -8.63900
F 	F 	0.26603 0.80437 0.75405 1.12200
F 	F 	0.35443 0.92697 0.77684 1.07300
F 	F 	0.34373 0.81627 0.79727 1.38400
H 	H 	0.27073 0.85067 0.79207 6.70400
C 	C 	0.63970 0.54780 0.02763 0.41700
C 	C 	0.72050 0.57000 0.04467 -0.20900
C 	C 	0.73470 0.60000 0.07805 0.33200
H 	H 	0.69590 0.60960 0.08920 -0.03200
O 	O 	0.62885 0.51867 0.99732 -0.39100
O 	O 	0.58861 0.55919 0.04454 -0.38800
C 	C 	0.82220 0.71820 0.14234 -3.00600
C 	C 	0.83020 0.73410 0.17691 1.05700
H 	H 	0.84190 0.78550 0.18770 -0.26400
C 	C 	0.81930 0.78470 0.11670 -8.63800
F 	F 	0.86230 0.79500 0.08738 1.12100
F 	F 	0.73970 0.76080 0.11017 1.07100
F 	F 	0.85040 0.86080 0.13060 1.38300
H 	H 	0.81600 0.75340 0.12540 6.70400
C 	C 	0.30637 0.88113 0.36096 0.41600
C 	C 	0.38717 0.90333 0.37800 -0.20800
C 	C 	0.40137 0.93333 0.41138 0.32800
H 	H 	0.36257 0.94293 0.42253 -0.03100
O 	O 	0.29552 0.85200 0.33065 -0.39100
O 	O 	0.25528 0.89252 0.37787 -0.38800
C 	C 	0.48887 0.05153 0.47567 -3.00000
C 	C 	0.49687 0.06743 0.51024 1.05600
H 	H 	0.50857 0.11883 0.52103 -0.26400
C 	C 	0.48597 0.11803 0.45003 -8.60600
F 	F 	0.52897 0.12833 0.42071 1.11700
F 	F 	0.40637 0.09413 0.44350 1.06700
F 	F 	0.51707 0.19413 0.46393 1.37800
H 	H 	0.48267 0.08673 0.45873 6.68200
C 	C 	0.97303 0.21447 0.69430 0.40600
C 	C 	0.05383 0.23667 0.71134 -0.19500
C 	C 	0.06803 0.26667 0.74472 0.32100
H 	H 	0.02923 0.27627 0.75587 -0.02600
O 	O 	0.96218 0.18534 0.66399 -0.39100
O 	O 	0.92194 0.22586 0.71121 -0.38800
C 	C 	0.15553 0.38487 0.80901 -3.00200
C 	C 	0.16353 0.40077 0.84358 1.05600
H 	H 	0.17523 0.45217 0.85437 -0.26400
C 	C 	0.15263 0.45137 0.78337 -8.61900
F 	F 	0.19563 0.46167 0.75405 1.11900
F 	F 	0.07303 0.42747 0.77684 1.06900
F 	F 	0.18373 0.52747 0.79727 1.38000
H 	H 	0.14933 0.42007 0.79207 6.69000
C 	C 	0.09190 0.45220 0.97237 0.41800
C 	C 	0.15050 0.43000 0.95533 -0.20900
C 	C 	0.13470 0.40000 0.92195 0.33200
H 	H 	0.08630 0.39040 0.91080 -0.03100
O 	O 	0.11018 0.48133 0.00268 -0.39300
O 	O 	0.02942 0.44081 0.95546 -0.38700
C 	C 	0.10400 0.28180 0.85766 -3.03200
C 	C 	0.09610 0.26590 0.82309 1.07500
H 	H 	0.05640 0.21450 0.81230 -0.26900
C 	C 	0.03460 0.21530 0.88330 -8.65800
F 	F 	0.06730 0.20500 0.91262 1.12600
F 	F 	0.97890 0.23920 0.88983 1.07000
F 	F 	0.98960 0.13920 0.86940 1.38200
H 	H 	0.06260 0.24660 0.87460 6.72700
C 	C 	0.75857 0.78553 0.30570 0.41400
C 	C 	0.81717 0.76333 0.28866 -0.20300
C 	C 	0.80137 0.73333 0.25528 0.32300
H 	H 	0.75297 0.72373 0.24413 -0.02900
O 	O 	0.77685 0.81466 0.33601 -0.39000
O 	O 	0.69609 0.77414 0.28879 -0.38800
C 	C 	0.77067 0.61513 0.19099 -3.00400
C 	C 	0.76277 0.59923 0.15642 1.05200
H 	H 	0.72307 0.54783 0.14563 -0.26300
C 	C 	0.70127 0.54863 0.21663 -8.62800
F 	F 	0.73397 0.53833 0.24595 1.12000
F 	F 	0.64557 0.57253 0.22316 1.06900
F 	F 	0.65627 0.47253 0.20273 1.38200
H 	H 	0.72927 0.57993 0.20793 6.69700
C 	C 	0.42523 0.11887 0.63904 0.41600
C 	C 	0.48383 0.09667 0.62200 -0.20800
C 	C 	0.46803 0.06667 0.58862 0.32800
H 	H 	0.41963 0.05707 0.57747 -0.03100
O 	O 	0.44351 0.14800 0.66935 -0.39100
O 	O 	0.36275 0.10748 0.62213 -0.38800
C 	C 	0.43733 0.94847 0.52433 -3.00000
C 	C 	0.42943 0.93257 0.48976 1.05600
H 	H 	0.38973 0.88117 0.47897 -0.26400
C 	C 	0.36793 0.88197 0.54997 -8.60600
F 	F 	0.40063 0.87167 0.57929 1.11700
F 	F 	0.31223 0.90587 0.55650 1.06700
F 	F 	0.32293 0.80587 0.53607 1.37800
H 	H 	0.39593 0.91327 0.54127 6.68200
C 	C 	0.36030 0.90810 0.97237 0.42000
C 	C 	0.27950 0.84950 0.95533 -0.21100
C 	C 	0.26530 0.86530 0.92195 0.33600
H 	H 	0.30410 0.91370 0.91080 -0.03200
O 	O 	0.37115 0.88982 0.00268 -0.39400
O 	O 	0.41139 0.97058 0.95546 -0.38700
C 	C 	0.17780 0.89600 0.85766 -3.03600
C 	C 	0.16980 0.90390 0.82309 1.07600
H 	H 	0.15810 0.94360 0.81230 -0.26800
C 	C 	0.18070 0.96540 0.88330 -8.68900
F 	F 	0.13770 0.93270 0.91262 1.13100
F 	F 	0.26030 0.02110 0.88983 1.07500
F 	F 	0.14960 0.01040 0.86940 1.39000
H 	H 	0.18400 0.93740 0.87460 6.74800
C 	C 	0.02697 0.24143 0.30570 0.40500
C 	C 	0.94617 0.18283 0.28866 -0.19000
C 	C 	0.93197 0.19863 0.25528 0.31600
H 	H 	0.97077 0.24703 0.24413 -0.02400
O 	O 	0.03782 0.22315 0.33601 -0.38900
O 	O 	0.07806 0.30391 0.28879 -0.38700
C 	C 	0.84447 0.22933 0.19099 -3.00400
C 	C 	0.83647 0.23723 0.15642 1.05300
H 	H 	0.82477 0.27693 0.14563 -0.26300
C 	C 	0.84737 0.29873 0.21663 -8.63900
F 	F 	0.80437 0.26603 0.24595 1.12200
F 	F 	0.92697 0.35443 0.22316 1.07300
F 	F 	0.81627 0.34373 0.20273 1.38400
H 	H 	0.85067 0.27073 0.20793 6.70400
C 	C 	0.69363 0.57477 0.63904 0.41600
C 	C 	0.61283 0.51617 0.62200 -0.20700
C 	C 	0.59863 0.53197 0.58862 0.32800
H 	H 	0.63743 0.58037 0.57747 -0.03000
O 	O 	0.70448 0.55649 0.66935 -0.39000
O 	O 	0.74472 0.63725 0.62213 -0.38800
C 	C 	0.51113 0.56267 0.52433 -3.00000
C 	C 	0.50313 0.57057 0.48976 1.05600
H 	H 	0.49143 0.61027 0.47897 -0.26400
C 	C 	0.51403 0.63207 0.54997 -8.60400
F 	F 	0.47103 0.59937 0.57929 1.11600
F 	F 	0.59363 0.68777 0.55650 1.06600
F 	F 	0.48293 0.67707 0.53607 1.37700
H 	H 	0.51733 0.60407 0.54127 6.68100
C 	C 	0.54780 0.63970 0.97237 0.41700
C 	C 	0.57000 0.72050 0.95533 -0.20900
C 	C 	0.60000 0.73470 0.92195 0.33200
H 	H 	0.60960 0.69590 0.91080 -0.03200
O 	O 	0.51867 0.62885 0.00268 -0.39100
O 	O 	0.55919 0.58861 0.95546 -0.38800
C 	C 	0.71820 0.82220 0.85766 -3.00600
C 	C 	0.73410 0.83020 0.82309 1.05700
H 	H 	0.78550 0.84190 0.81230 -0.26400
C 	C 	0.78470 0.81930 0.88330 -8.63800
F 	F 	0.79500 0.86230 0.91262 1.12100
F 	F 	0.76080 0.73970 0.88983 1.07100
F 	F 	0.86080 0.85040 0.86940 1.38300
H 	H 	0.75340 0.81600 0.87460 6.70400
C 	C 	0.21447 0.97303 0.30570 0.40600
C 	C 	0.23667 0.05383 0.28866 -0.19500
C 	C 	0.26667 0.06803 0.25528 0.32100
H 	H 	0.27627 0.02923 0.24413 -0.02600
O 	O 	0.18534 0.96218 0.33601 -0.39100
O 	O 	0.22586 0.92194 0.28879 -0.38800
C 	C 	0.38487 0.15553 0.19099 -3.00200
C 	C 	0.40077 0.16353 0.15642 1.05600
H 	H 	0.45217 0.17523 0.14563 -0.26400
C 	C 	0.45137 0.15263 0.21663 -8.61900
F 	F 	0.46167 0.19563 0.24595 1.11900
F 	F 	0.42747 0.07303 0.22316 1.06900
F 	F 	0.52747 0.18373 0.20273 1.38000
H 	H 	0.42007 0.14933 0.20793 6.69000
C 	C 	0.88113 0.30637 0.63904 0.41600
C 	C 	0.90333 0.38717 0.62200 -0.20800
C 	C 	0.93333 0.40137 0.58862 0.32800
H 	H 	0.94293 0.36257 0.57747 -0.03100
O 	O 	0.85200 0.29552 0.66935 -0.39100
O 	O 	0.89252 0.25528 0.62213 -0.38800
C 	C 	0.05153 0.48887 0.52433 -3.00000
C 	C 	0.06743 0.49687 0.48976 1.05600
H 	H 	0.11883 0.50857 0.47897 -0.26400
C 	C 	0.11803 0.48597 0.54997 -8.60600
F 	F 	0.12833 0.52897 0.57929 1.11700
F 	F 	0.09413 0.40637 0.55650 1.06700
F 	F 	0.19413 0.51707 0.53607 1.37800
H 	H 	0.08673 0.48267 0.54127 6.68200
C 	C 	0.54780 0.90810 0.97237 0.41800
C 	C 	0.57000 0.84950 0.95533 -0.20900
C 	C 	0.60000 0.86530 0.92195 0.33200
H 	H 	0.60960 0.91370 0.91080 -0.03100
O 	O 	0.51867 0.88982 0.00268 -0.39300
O 	O 	0.55919 0.97058 0.95546 -0.38700
C 	C 	0.71820 0.89600 0.85766 -3.03200
C 	C 	0.73410 0.90390 0.82309 1.07500
H 	H 	0.78550 0.94360 0.81230 -0.26900
C 	C 	0.78470 0.96540 0.88330 -8.65800
F 	F 	0.79500 0.93270 0.91262 1.12600
F 	F 	0.76080 0.02110 0.88983 1.07000
F 	F 	0.86080 0.01040 0.86940 1.38200
H 	H 	0.75340 0.93740 0.87460 6.72700
C 	C 	0.21447 0.24143 0.30570 0.41400
C 	C 	0.23667 0.18283 0.28866 -0.20300
C 	C 	0.26667 0.19863 0.25528 0.32300
H 	H 	0.27627 0.24703 0.24413 -0.02900
O 	O 	0.18534 0.22315 0.33601 -0.39000
O 	O 	0.22586 0.30391 0.28879 -0.38800
C 	C 	0.38487 0.22933 0.19099 -3.00400
C 	C 	0.40077 0.23723 0.15642 1.05200
H 	H 	0.45217 0.27693 0.14563 -0.26300
C 	C 	0.45137 0.29873 0.21663 -8.62800
F 	F 	0.46167 0.26603 0.24595 1.12000
F 	F 	0.42747 0.35443 0.22316 1.06900
F 	F 	0.52747 0.34373 0.20273 1.38200
H 	H 	0.42007 0.27073 0.20793 6.69700
C 	C 	0.88113 0.57477 0.63904 0.41600
C 	C 	0.90333 0.51617 0.62200 -0.20800
C 	C 	0.93333 0.53197 0.58862 0.32800
H 	H 	0.94293 0.58037 0.57747 -0.03100
O 	O 	0.85200 0.55649 0.66935 -0.39100
O 	O 	0.89252 0.63725 0.62213 -0.38800
C 	C 	0.05153 0.56267 0.52433 -3.00000
C 	C 	0.06743 0.57057 0.48976 1.05600
H 	H 	0.11883 0.61027 0.47897 -0.26400
C 	C 	0.11803 0.63207 0.54997 -8.60600
F 	F 	0.12833 0.59937 0.57929 1.11700
F 	F 	0.09413 0.68777 0.55650 1.06700
F 	F 	0.19413 0.67707 0.53607 1.37800
H 	H 	0.08673 0.60407 0.54127 6.68200
C 	C 	0.09190 0.63970 0.97237 0.42000
C 	C 	0.15050 0.72050 0.95533 -0.21100
C 	C 	0.13470 0.73470 0.92195 0.33600
H 	H 	0.08630 0.69590 0.91080 -0.03200
O 	O 	0.11018 0.62885 0.00268 -0.39400
O 	O 	0.02942 0.58861 0.95546 -0.38700
C 	C 	0.10400 0.82220 0.85766 -3.03600
C 	C 	0.09610 0.83020 0.82309 1.07600
H 	H 	0.05640 0.84190 0.81230 -0.26800
C 	C 	0.03460 0.81930 0.88330 -8.68900
F 	F 	0.06730 0.86230 0.91262 1.13100
F 	F 	0.97890 0.73970 0.88983 1.07500
F 	F 	0.98960 0.85040 0.86940 1.39000
H 	H 	0.06260 0.81600 0.87460 6.74800
C 	C 	0.75857 0.97303 0.30570 0.40500
C 	C 	0.81717 0.05383 0.28866 -0.19000
C 	C 	0.80137 0.06803 0.25528 0.31600
H 	H 	0.75297 0.02923 0.24413 -0.02400
O 	O 	0.77685 0.96218 0.33601 -0.38900
O 	O 	0.69609 0.92194 0.28879 -0.38700
C 	C 	0.77067 0.15553 0.19099 -3.00400
C 	C 	0.76277 0.16353 0.15642 1.05300
H 	H 	0.72307 0.17523 0.14563 -0.26300
C 	C 	0.70127 0.15263 0.21663 -8.63900
F 	F 	0.73397 0.19563 0.24595 1.12200
F 	F 	0.64557 0.07303 0.22316 1.07300
F 	F 	0.65627 0.18373 0.20273 1.38400
H 	H 	0.72927 0.14933 0.20793 6.70400
C 	C 	0.42523 0.30637 0.63904 0.41600
C 	C 	0.48383 0.38717 0.62200 -0.20700
C 	C 	0.46803 0.40137 0.58862 0.32800
H 	H 	0.41963 0.36257 0.57747 -0.03000
O 	O 	0.44351 0.29552 0.66935 -0.39000
O 	O 	0.36275 0.25528 0.62213 -0.38800
C 	C 	0.43733 0.48887 0.52433 -3.00000
C 	C 	0.42943 0.49687 0.48976 1.05600
H 	H 	0.38973 0.50857 0.47897 -0.26400
C 	C 	0.36793 0.48597 0.54997 -8.60400
F 	F 	0.40063 0.52897 0.57929 1.11600
F 	F 	0.31223 0.40637 0.55650 1.06600
F 	F 	0.32293 0.51707 0.53607 1.37700
H 	H 	0.39593 0.48267 0.54127 6.68100
C 	C 	0.36030 0.45220 0.97237 0.41700
C 	C 	0.27950 0.43000 0.95533 -0.20900
C 	C 	0.26530 0.40000 0.92195 0.33200
H 	H 	0.30410 0.39040 0.91080 -0.03200
O 	O 	0.37115 0.48133 0.00268 -0.39100
O 	O 	0.41139 0.44081 0.95546 -0.38800
C 	C 	0.17780 0.28180 0.85766 -3.00600
C 	C 	0.16980 0.26590 0.82309 1.05700
H 	H 	0.15810 0.21450 0.81230 -0.26400
C 	C 	0.18070 0.21530 0.88330 -8.63800
F 	F 	0.13770 0.20500 0.91262 1.12100
F 	F 	0.26030 0.23920 0.88983 1.07100
F 	F 	0.14960 0.13920 0.86940 1.38300
H 	H 	0.18400 0.24660 0.87460 6.70400
C 	C 	0.02697 0.78553 0.30570 0.40600
C 	C 	0.94617 0.76333 0.28866 -0.19500
C 	C 	0.93197 0.73333 0.25528 0.32100
H 	H 	0.97077 0.72373 0.24413 -0.02600
O 	O 	0.03782 0.81466 0.33601 -0.39100
O 	O 	0.07806 0.77414 0.28879 -0.38800
C 	C 	0.84447 0.61513 0.19099 -3.00200
C 	C 	0.83647 0.59923 0.15642 1.05600
H 	H 	0.82477 0.54783 0.14563 -0.26400
C 	C 	0.84737 0.54863 0.21663 -8.61900
F 	F 	0.80437 0.53833 0.24595 1.11900
F 	F 	0.92697 0.57253 0.22316 1.06900
F 	F 	0.81627 0.47253 0.20273 1.38000
H 	H 	0.85067 0.57993 0.20793 6.69000
C 	C 	0.69363 0.11887 0.63904 0.41600
C 	C 	0.61283 0.09667 0.62200 -0.20800
C 	C 	0.59863 0.06667 0.58862 0.32800
H 	H 	0.63743 0.05707 0.57747 -0.03100
O 	O 	0.70448 0.14800 0.66935 -0.39100
O 	O 	0.74472 0.10748 0.62213 -0.38800
C 	C 	0.51113 0.94847 0.52433 -3.00000
C 	C 	0.50313 0.93257 0.48976 1.05600
H 	H 	0.49143 0.88117 0.47897 -0.26400
C 	C 	0.51403 0.88197 0.54997 -8.60600
F 	F 	0.47103 0.87167 0.57929 1.11700
F 	F 	0.59363 0.90587 0.55650 1.06700
F 	F 	0.48293 0.80587 0.53607 1.37800
H 	H 	0.51733 0.91327 0.54127 6.68200
C 	C 	0.90810 0.54780 0.02763 0.41800
C 	C 	0.84950 0.57000 0.04467 -0.20900
C 	C 	0.86530 0.60000 0.07805 0.33200
H 	H 	0.91370 0.60960 0.08920 -0.03100
O 	O 	0.88982 0.51867 0.99732 -0.39300
O 	O 	0.97058 0.55919 0.04454 -0.38700
C 	C 	0.89600 0.71820 0.14234 -3.03200
C 	C 	0.90390 0.73410 0.17691 1.07500
H 	H 	0.94360 0.78550 0.18770 -0.26900
C 	C 	0.96540 0.78470 0.11670 -8.65800
F 	F 	0.93270 0.79500 0.08738 1.12600
F 	F 	0.02110 0.76080 0.11017 1.07000
F 	F 	0.01040 0.86080 0.13060 1.38200
H 	H 	0.93740 0.75340 0.12540 6.72700
C 	C 	0.57477 0.88113 0.36096 0.41600
C 	C 	0.51617 0.90333 0.37800 -0.20800
C 	C 	0.53197 0.93333 0.41138 0.32800
H 	H 	0.58037 0.94293 0.42253 -0.03100
O 	O 	0.55649 0.85200 0.33065 -0.39100
O 	O 	0.63725 0.89252 0.37787 -0.38800
C 	C 	0.56267 0.05153 0.47567 -3.00000
C 	C 	0.57057 0.06743 0.51024 1.05600
H 	H 	0.61027 0.11883 0.52103 -0.26400
C 	C 	0.63207 0.11803 0.45003 -8.60600
F 	F 	0.59937 0.12833 0.42071 1.11700
F 	F 	0.68777 0.09413 0.44350 1.06700
F 	F 	0.67707 0.19413 0.46393 1.37800
H 	H 	0.60407 0.08673 0.45873 6.68200
C 	C 	0.24143 0.21447 0.69430 0.41400
C 	C 	0.18283 0.23667 0.71134 -0.20300
C 	C 	0.19863 0.26667 0.74472 0.32300
H 	H 	0.24703 0.27627 0.75587 -0.02900
O 	O 	0.22315 0.18534 0.66399 -0.39000
O 	O 	0.30391 0.22586 0.71121 -0.38800
C 	C 	0.22933 0.38487 0.80901 -3.00400
C 	C 	0.23723 0.40077 0.84358 1.05200
H 	H 	0.27693 0.45217 0.85437 -0.26300
C 	C 	0.29873 0.45137 0.78337 -8.62800
F 	F 	0.26603 0.46167 0.75405 1.12000
F 	F 	0.35443 0.42747 0.77684 1.06900
F 	F 	0.34373 0.52747 0.79727 1.38200
H 	H 	0.27073 0.42007 0.79207 6.69700
C 	C 	0.63970 0.09190 0.02763 0.42000
C 	C 	0.72050 0.15050 0.04467 -0.21100
C 	C 	0.73470 0.13470 0.07805 0.33600
H 	H 	0.69590 0.08630 0.08920 -0.03200
O 	O 	0.62885 0.11018 0.99732 -0.39400
O 	O 	0.58861 0.02942 0.04454 -0.38700
C 	C 	0.82220 0.10400 0.14234 -3.03600
C 	C 	0.83020 0.09610 0.17691 1.07600
H 	H 	0.84190 0.05640 0.18770 -0.26800
C 	C 	0.81930 0.03460 0.11670 -8.68900
F 	F 	0.86230 0.06730 0.08738 1.13100
F 	F 	0.73970 0.97890 0.11017 1.07500
F 	F 	0.85040 0.98960 0.13060 1.39000
H 	H 	0.81600 0.06260 0.12540 6.74800
C 	C 	0.30637 0.42523 0.36096 0.41600
C 	C 	0.38717 0.48383 0.37800 -0.20700
C 	C 	0.40137 0.46803 0.41138 0.32800
H 	H 	0.36257 0.41963 0.42253 -0.03000
O 	O 	0.29552 0.44351 0.33065 -0.39000
O 	O 	0.25528 0.36275 0.37787 -0.38800
C 	C 	0.48887 0.43733 0.47567 -3.00000
C 	C 	0.49687 0.42943 0.51024 1.05600
H 	H 	0.50857 0.38973 0.52103 -0.26400
C 	C 	0.48597 0.36793 0.45003 -8.60400
F 	F 	0.52897 0.40063 0.42071 1.11600
F 	F 	0.40637 0.31223 0.44350 1.06600
F 	F 	0.51707 0.32293 0.46393 1.37700
H 	H 	0.48267 0.39593 0.45873 6.68100
C 	C 	0.97303 0.75857 0.69430 0.40500
C 	C 	0.05383 0.81717 0.71134 -0.19000
C 	C 	0.06803 0.80137 0.74472 0.31600
H 	H 	0.02923 0.75297 0.75587 -0.02400
O 	O 	0.96218 0.77685 0.66399 -0.38900
O 	O 	0.92194 0.69609 0.71121 -0.38700
C 	C 	0.15553 0.77067 0.80901 -3.00400
C 	C 	0.16353 0.76277 0.84358 1.05300
H 	H 	0.17523 0.72307 0.85437 -0.26300
C 	C 	0.15263 0.70127 0.78337 -8.63900
F 	F 	0.19563 0.73397 0.75405 1.12200
F 	F 	0.07303 0.64557 0.77684 1.07300
F 	F 	0.18373 0.65627 0.79727 1.38400
H 	H 	0.14933 0.72927 0.79207 6.70400
C 	C 	0.45220 0.36030 0.02763 0.41700
C 	C 	0.43000 0.27950 0.04467 -0.20900
C 	C 	0.40000 0.26530 0.07805 0.33200
H 	H 	0.39040 0.30410 0.08920 -0.03200
O 	O 	0.48133 0.37115 0.99732 -0.39100
O 	O 	0.44081 0.41139 0.04454 -0.38800
C 	C 	0.28180 0.17780 0.14234 -3.00600
C 	C 	0.26590 0.16980 0.17691 1.05700
H 	H 	0.21450 0.15810 0.18770 -0.26400
C 	C 	0.21530 0.18070 0.11670 -8.63800
F 	F 	0.20500 0.13770 0.08738 1.12100
F 	F 	0.23920 0.26030 0.11017 1.07100
F 	F 	0.13920 0.14960 0.13060 1.38300
H 	H 	0.24660 0.18400 0.12540 6.70400
C 	C 	0.11887 0.69363 0.36096 0.41600
C 	C 	0.09667 0.61283 0.37800 -0.20800
C 	C 	0.06667 0.59863 0.41138 0.32800
H 	H 	0.05707 0.63743 0.42253 -0.03100
O 	O 	0.14800 0.70448 0.33065 -0.39100
O 	O 	0.10748 0.74472 0.37787 -0.38800
C 	C 	0.94847 0.51113 0.47567 -3.00000
C 	C 	0.93257 0.50313 0.51024 1.05600
H 	H 	0.88117 0.49143 0.52103 -0.26400
C 	C 	0.88197 0.51403 0.45003 -8.60600
F 	F 	0.87167 0.47103 0.42071 1.11700
F 	F 	0.90587 0.59363 0.44350 1.06700
F 	F 	0.80587 0.48293 0.46393 1.37800
H 	H 	0.91327 0.51733 0.45873 6.68200
C 	C 	0.78553 0.02697 0.69430 0.40600
C 	C 	0.76333 0.94617 0.71134 -0.19500
C 	C 	0.73333 0.93197 0.74472 0.32100
H 	H 	0.72373 0.97077 0.75587 -0.02600
O 	O 	0.81466 0.03782 0.66399 -0.39100
O 	O 	0.77414 0.07806 0.71121 -0.38800
C 	C 	0.61513 0.84447 0.80901 -3.00200
C 	C 	0.59923 0.83647 0.84358 1.05600
H 	H 	0.54783 0.82477 0.85437 -0.26400
C 	C 	0.54863 0.84737 0.78337 -8.61900
F 	F 	0.53833 0.80437 0.75405 1.11900
F 	F 	0.57253 0.92697 0.77684 1.06900
F 	F 	0.47253 0.81627 0.79727 1.38000
H 	H 	0.57993 0.85067 0.79207 6.69000
C 	C 	0.44490 0.22245 0.02802 0.19600
H 	H 	0.46500 0.23250 0.00550 0.02400
C 	C 	0.38410 0.19205 0.09499 -0.57100
C 	C 	0.35610 0.17805 0.13208 1.13000
C 	C 	0.11157 0.55578 0.36135 0.19300
H 	H 	0.13167 0.56583 0.33883 0.02400
C 	C 	0.05077 0.52538 0.42832 -0.56500
C 	C 	0.02277 0.51138 0.46541 1.11600
C 	C 	0.77823 0.88912 0.69469 0.18700
H 	H 	0.79833 0.89917 0.67217 0.02800
C 	C 	0.71743 0.85872 0.76166 -0.55900
C 	C 	0.68943 0.84472 0.79875 1.11000
C 	C 	0.77755 0.22245 0.02802 0.19800
H 	H 	0.76750 0.23250 0.00550 0.02300
C 	C 	0.80795 0.19205 0.09499 -0.57800
C 	C 	0.82195 0.17805 0.13208 1.14200
C 	C 	0.44422 0.55578 0.36135 0.19300
H 	H 	0.43417 0.56583 0.33883 0.02400
C 	C 	0.47462 0.52538 0.42832 -0.56500
C 	C 	0.48862 0.51138 0.46541 1.11700
C 	C 	0.11088 0.88912 0.69469 0.18000
H 	H 	0.10083 0.89917 0.67217 0.03200
C 	C 	0.14128 0.85872 0.76166 -0.55300
C 	C 	0.15528 0.84472 0.79875 1.10300
C 	C 	0.77755 0.55510 0.02802 0.19600
H 	H 	0.76750 0.53500 0.00550 0.02400
C 	C 	0.80795 0.61590 0.09499 -0.57100
C 	C 	0.82195 0.64390 0.13208 1.13000
C 	C 	0.44422 0.88843 0.36135 0.19300
H 	H 	0.43417 0.86833 0.33883 0.02400
C 	C 	0.47462 0.94923 0.42832 -0.56500
C 	C 	0.48862 0.97723 0.46541 1.11600
C 	C 	0.11088 0.22177 0.69469 0.18700
H 	H 	0.10083 0.20167 0.67217 0.02800
C 	C 	0.14128 0.28257 0.76166 -0.55900
C 	C 	0.15528 0.31057 0.79875 1.11000
C 	C 	0.22245 0.44490 0.97198 0.19600
H 	H 	0.23250 0.46500 0.99450 0.02400
C 	C 	0.19205 0.38410 0.90501 -0.57100
C 	C 	0.17805 0.35610 0.86792 1.13000
C 	C 	0.88912 0.77823 0.30531 0.18700
H 	H 	0.89917 0.79833 0.32783 0.02800
C 	C 	0.85872 0.71743 0.23834 -0.55900
C 	C 	0.84472 0.68943 0.20125 1.11000
C 	C 	0.55578 0.11157 0.63865 0.19300
H 	H 	0.56583 0.13167 0.66117 0.02400
C 	C 	0.52538 0.05077 0.57168 -0.56500
C 	C 	0.51138 0.02277 0.53459 1.11600
C 	C 	0.22245 0.77755 0.97198 0.19800
H 	H 	0.23250 0.76750 0.99450 0.02300
C 	C 	0.19205 0.80795 0.90501 -0.57800
C 	C 	0.17805 0.82195 0.86792 1.14200
C 	C 	0.88912 0.11088 0.30531 0.18000
H 	H 	0.89917 0.10083 0.32783 0.03200
C 	C 	0.85872 0.14128 0.23834 -0.55300
C 	C 	0.84472 0.15528 0.20125 1.10300
C 	C 	0.55578 0.44422 0.63865 0.19300
H 	H 	0.56583 0.43417 0.66117 0.02400
C 	C 	0.52538 0.47462 0.57168 -0.56500
C 	C 	0.51138 0.48862 0.53459 1.11700
C 	C 	0.55510 0.77755 0.97198 0.19600
H 	H 	0.53500 0.76750 0.99450 0.02400
C 	C 	0.61590 0.80795 0.90501 -0.57100
C 	C 	0.64390 0.82195 0.86792 1.13000
C 	C 	0.22177 0.11088 0.30531 0.18700
H 	H 	0.20167 0.10083 0.32783 0.02800
C 	C 	0.28257 0.14128 0.23834 -0.55900
C 	C 	0.31057 0.15528 0.20125 1.11000
C 	C 	0.88843 0.44422 0.63865 0.19300
H 	H 	0.86833 0.43417 0.66117 0.02400
C 	C 	0.94923 0.47462 0.57168 -0.56500
C 	C 	0.97723 0.48862 0.53459 1.11600
Cu	Cu	0.52406 0.04812 0.97214 0.91500
Cu	Cu	0.19073 0.38145 0.30547 0.91600
Cu	Cu	0.85739 0.71479 0.63880 0.91600
Cu	Cu	0.95188 0.47594 0.97214 0.91500
Cu	Cu	0.61855 0.80927 0.30547 0.91600
Cu	Cu	0.28521 0.14261 0.63880 0.91600
Cu	Cu	0.52406 0.47594 0.97214 0.91600
Cu	Cu	0.19073 0.80927 0.30547 0.91600
Cu	Cu	0.85739 0.14261 0.63880 0.91600
Cu	Cu	0.04812 0.52406 0.02786 0.91500
Cu	Cu	0.71479 0.85739 0.36120 0.91600
Cu	Cu	0.38145 0.19073 0.69453 0.91600
Cu	Cu	0.47594 0.95188 0.02786 0.91500
Cu	Cu	0.14261 0.28521 0.36120 0.91600
Cu	Cu	0.80927 0.61855 0.69453 0.91600
Cu	Cu	0.47594 0.52406 0.02786 0.91600
Cu	Cu	0.14261 0.85739 0.36120 0.91600
Cu	Cu	0.80927 0.19073 0.69453 0.91600
