data_crystal

_cell_length_a 18.61660
_cell_length_b 18.61660
_cell_length_c 38.64510
_cell_angle_alpha 90.00000
_cell_angle_beta  90.00000
_cell_angle_gamma 120.00000

_symmetry_space_group_name_	'P 1'
_symmetry_space_group_name_H-M	'P 1'

loop_
_symmetry_equiv_pos_as_xyz
  x,y,z

loop_
_atom_site_label
_atom_site_type_symbol
_atom_site_fract_x
_atom_site_fract_y
_atom_site_fract_z
_atom_site_charge
C 	C 	0.45150 0.09190 0.02706 0.35200
C 	C 	0.43100 0.15110 0.04412 -0.08000
C 	C 	0.39990 0.13640 0.07751 -0.02700
H 	H 	0.38890 0.08750 0.08850 0.05800
O 	O 	0.48140 0.11035 0.99677 -0.40000
O 	O 	0.44120 0.02993 0.04420 -0.40500
C 	C 	0.28990 0.10170 0.14270 0.09000
C 	C 	0.27400 0.09380 0.17720 -0.09700
H 	H 	0.22270 0.05420 0.18800 0.06500
C 	C 	0.22340 0.03230 0.11700 0.33100
H 	H 	0.18330 0.98590 0.13030 -0.06900
H 	H 	0.25130 0.01420 0.10150 -0.05500
H 	H 	0.19580 0.05540 0.10400 -0.06200
H 	H 	0.25470 0.06030 0.12570 -0.17900
C 	C 	0.11817 0.42523 0.36039 0.35200
C 	C 	0.09767 0.48443 0.37745 -0.08000
C 	C 	0.06657 0.46973 0.41084 -0.02700
H 	H 	0.05557 0.42083 0.42183 0.05800
O 	O 	0.14807 0.44368 0.33010 -0.40000
O 	O 	0.10787 0.36326 0.37753 -0.40500
C 	C 	0.95657 0.43503 0.47603 0.09000
C 	C 	0.94067 0.42713 0.51053 -0.09700
H 	H 	0.88937 0.38753 0.52133 0.06500
C 	C 	0.89007 0.36563 0.45033 0.33100
H 	H 	0.84997 0.31923 0.46363 -0.06900
H 	H 	0.91797 0.34753 0.43483 -0.05500
H 	H 	0.86247 0.38873 0.43733 -0.06200
H 	H 	0.92137 0.39363 0.45903 -0.17900
C 	C 	0.78483 0.75857 0.69373 0.35200
C 	C 	0.76433 0.81777 0.71079 -0.08000
C 	C 	0.73323 0.80307 0.74418 -0.02700
H 	H 	0.72223 0.75417 0.75517 0.05800
O 	O 	0.81473 0.77702 0.66344 -0.40000
O 	O 	0.77453 0.69660 0.71087 -0.40500
C 	C 	0.62323 0.76837 0.80937 0.09000
C 	C 	0.60733 0.76047 0.84387 -0.09700
H 	H 	0.55603 0.72087 0.85467 0.06500
C 	C 	0.55673 0.69897 0.78367 0.33100
H 	H 	0.51663 0.65257 0.79697 -0.06900
H 	H 	0.58463 0.68087 0.76817 -0.05500
H 	H 	0.52913 0.72207 0.77067 -0.06200
H 	H 	0.58803 0.72697 0.79237 -0.17900
C 	C 	0.90810 0.35960 0.02706 0.35200
C 	C 	0.84890 0.27990 0.04412 -0.08000
C 	C 	0.86360 0.26350 0.07751 -0.02700
H 	H 	0.91250 0.30140 0.08850 0.05800
O 	O 	0.88965 0.37105 0.99677 -0.40000
O 	O 	0.97007 0.41127 0.04420 -0.40500
C 	C 	0.89830 0.18820 0.14270 0.09000
C 	C 	0.90620 0.18020 0.17720 -0.09700
H 	H 	0.94580 0.16850 0.18800 0.06500
C 	C 	0.96770 0.19110 0.11700 0.33100
H 	H 	0.01410 0.19740 0.13030 -0.06900
H 	H 	0.98580 0.23710 0.10150 -0.05500
H 	H 	0.94460 0.14040 0.10400 -0.06200
H 	H 	0.93970 0.19440 0.12570 -0.17900
C 	C 	0.57477 0.69293 0.36039 0.35200
C 	C 	0.51557 0.61323 0.37745 -0.08000
C 	C 	0.53027 0.59683 0.41084 -0.02700
H 	H 	0.57917 0.63473 0.42183 0.05800
O 	O 	0.55632 0.70438 0.33010 -0.40000
O 	O 	0.63674 0.74460 0.37753 -0.40500
C 	C 	0.56497 0.52153 0.47603 0.09000
C 	C 	0.57287 0.51353 0.51053 -0.09700
H 	H 	0.61247 0.50183 0.52133 0.06500
C 	C 	0.63437 0.52443 0.45033 0.33100
H 	H 	0.68077 0.53073 0.46363 -0.06900
H 	H 	0.65247 0.57043 0.43483 -0.05500
H 	H 	0.61127 0.47373 0.43733 -0.06300
H 	H 	0.60637 0.52773 0.45903 -0.18000
C 	C 	0.24143 0.02627 0.69373 0.35100
C 	C 	0.18223 0.94657 0.71079 -0.08100
C 	C 	0.19693 0.93017 0.74418 -0.02700
H 	H 	0.24583 0.96807 0.75517 0.05700
O 	O 	0.22298 0.03772 0.66344 -0.40100
O 	O 	0.30340 0.07794 0.71087 -0.40600
C 	C 	0.23163 0.85487 0.80937 0.08900
C 	C 	0.23953 0.84687 0.84387 -0.09800
H 	H 	0.27913 0.83517 0.85467 0.06400
C 	C 	0.30103 0.85777 0.78367 0.33000
H 	H 	0.34743 0.86407 0.79697 -0.07000
H 	H 	0.31913 0.90377 0.76817 -0.05600
H 	H 	0.27793 0.80707 0.77067 -0.06300
H 	H 	0.27303 0.86107 0.79237 -0.18000
C 	C 	0.64040 0.54850 0.02706 0.35100
C 	C 	0.72010 0.56900 0.04412 -0.08100
C 	C 	0.73650 0.60010 0.07751 -0.02800
H 	H 	0.69860 0.61110 0.08850 0.05700
O 	O 	0.62895 0.51860 0.99677 -0.40100
O 	O 	0.58873 0.55880 0.04420 -0.40600
C 	C 	0.81180 0.71010 0.14270 0.08900
C 	C 	0.81980 0.72600 0.17720 -0.09800
H 	H 	0.83150 0.77730 0.18800 0.06400
C 	C 	0.80890 0.77660 0.11700 0.33000
H 	H 	0.80260 0.81670 0.13030 -0.07000
H 	H 	0.76290 0.74870 0.10150 -0.05600
H 	H 	0.85960 0.80420 0.10400 -0.06300
H 	H 	0.80560 0.74530 0.12570 -0.18000
C 	C 	0.30707 0.88183 0.36039 0.35100
C 	C 	0.38677 0.90233 0.37745 -0.08100
C 	C 	0.40317 0.93343 0.41084 -0.02800
H 	H 	0.36527 0.94443 0.42183 0.05700
O 	O 	0.29562 0.85193 0.33010 -0.40100
O 	O 	0.25540 0.89213 0.37753 -0.40600
C 	C 	0.47847 0.04343 0.47603 0.08900
C 	C 	0.48647 0.05933 0.51053 -0.09800
H 	H 	0.49817 0.11063 0.52133 0.06400
C 	C 	0.47557 0.10993 0.45033 0.33000
H 	H 	0.46927 0.15003 0.46363 -0.07000
H 	H 	0.42957 0.08203 0.43483 -0.05600
H 	H 	0.52627 0.13753 0.43733 -0.06300
H 	H 	0.47227 0.07863 0.45903 -0.18000
C 	C 	0.97373 0.21517 0.69373 0.35100
C 	C 	0.05343 0.23567 0.71079 -0.08100
C 	C 	0.06983 0.26677 0.74418 -0.02800
H 	H 	0.03193 0.27777 0.75517 0.05700
O 	O 	0.96228 0.18527 0.66344 -0.40100
O 	O 	0.92206 0.22547 0.71087 -0.40600
C 	C 	0.14513 0.37677 0.80937 0.08900
C 	C 	0.15313 0.39267 0.84387 -0.09800
H 	H 	0.16483 0.44397 0.85467 0.06400
C 	C 	0.14223 0.44327 0.78367 0.33000
H 	H 	0.13593 0.48337 0.79697 -0.07000
H 	H 	0.09623 0.41537 0.76817 -0.05600
H 	H 	0.19293 0.47087 0.77067 -0.06300
H 	H 	0.13893 0.41197 0.79237 -0.18000
C 	C 	0.09190 0.45150 0.97294 0.35100
C 	C 	0.15110 0.43100 0.95588 -0.08100
C 	C 	0.13640 0.39990 0.92249 -0.02800
H 	H 	0.08750 0.38890 0.91150 0.05700
O 	O 	0.11035 0.48140 0.00323 -0.40100
O 	O 	0.02993 0.44120 0.95580 -0.40600
C 	C 	0.10170 0.28990 0.85730 0.08900
C 	C 	0.09380 0.27400 0.82280 -0.09800
H 	H 	0.05420 0.22270 0.81200 0.06400
C 	C 	0.03230 0.22340 0.88300 0.33000
H 	H 	0.98590 0.18330 0.86970 -0.07000
H 	H 	0.01420 0.25130 0.89850 -0.05600
H 	H 	0.05540 0.19580 0.89600 -0.06300
H 	H 	0.06030 0.25470 0.87430 -0.18000
C 	C 	0.75857 0.78483 0.30627 0.35100
C 	C 	0.81777 0.76433 0.28921 -0.08100
C 	C 	0.80307 0.73323 0.25582 -0.02800
H 	H 	0.75417 0.72223 0.24483 0.05700
O 	O 	0.77702 0.81473 0.33656 -0.40100
O 	O 	0.69660 0.77453 0.28913 -0.40600
C 	C 	0.76837 0.62323 0.19063 0.08900
C 	C 	0.76047 0.60733 0.15613 -0.09800
H 	H 	0.72087 0.55603 0.14533 0.06400
C 	C 	0.69897 0.55673 0.21633 0.33000
H 	H 	0.65257 0.51663 0.20303 -0.07000
H 	H 	0.68087 0.58463 0.23183 -0.05600
H 	H 	0.72207 0.52913 0.22933 -0.06300
H 	H 	0.72697 0.58803 0.20763 -0.18000
C 	C 	0.42523 0.11817 0.63961 0.35100
C 	C 	0.48443 0.09767 0.62255 -0.08100
C 	C 	0.46973 0.06657 0.58916 -0.02800
H 	H 	0.42083 0.05557 0.57817 0.05700
O 	O 	0.44368 0.14807 0.66990 -0.40100
O 	O 	0.36326 0.10787 0.62247 -0.40600
C 	C 	0.43503 0.95657 0.52397 0.08900
C 	C 	0.42713 0.94067 0.48947 -0.09800
H 	H 	0.38753 0.88937 0.47867 0.06400
C 	C 	0.36563 0.89007 0.54967 0.33000
H 	H 	0.31923 0.84997 0.53637 -0.07000
H 	H 	0.34753 0.91797 0.56517 -0.05600
H 	H 	0.38873 0.86247 0.56267 -0.06300
H 	H 	0.39363 0.92137 0.54097 -0.18000
C 	C 	0.35960 0.90810 0.97294 0.35100
C 	C 	0.27990 0.84890 0.95588 -0.08100
C 	C 	0.26350 0.86360 0.92249 -0.02800
H 	H 	0.30140 0.91250 0.91150 0.05700
O 	O 	0.37105 0.88965 0.00323 -0.40100
O 	O 	0.41127 0.97007 0.95580 -0.40600
C 	C 	0.18820 0.89830 0.85730 0.08900
C 	C 	0.18020 0.90620 0.82280 -0.09800
H 	H 	0.16850 0.94580 0.81200 0.06400
C 	C 	0.19110 0.96770 0.88300 0.33000
H 	H 	0.19740 0.01410 0.86970 -0.07000
H 	H 	0.23710 0.98580 0.89850 -0.05600
H 	H 	0.14040 0.94460 0.89600 -0.06300
H 	H 	0.19440 0.93970 0.87430 -0.18000
C 	C 	0.02627 0.24143 0.30627 0.35100
C 	C 	0.94657 0.18223 0.28921 -0.08100
C 	C 	0.93017 0.19693 0.25582 -0.02700
H 	H 	0.96807 0.24583 0.24483 0.05700
O 	O 	0.03772 0.22298 0.33656 -0.40100
O 	O 	0.07794 0.30340 0.28913 -0.40600
C 	C 	0.85487 0.23163 0.19063 0.08900
C 	C 	0.84687 0.23953 0.15613 -0.09800
H 	H 	0.83517 0.27913 0.14533 0.06400
C 	C 	0.85777 0.30103 0.21633 0.33000
H 	H 	0.86407 0.34743 0.20303 -0.07000
H 	H 	0.90377 0.31913 0.23183 -0.05600
H 	H 	0.80707 0.27793 0.22933 -0.06300
H 	H 	0.86107 0.27303 0.20763 -0.18000
C 	C 	0.69293 0.57477 0.63961 0.35100
C 	C 	0.61323 0.51557 0.62255 -0.08100
C 	C 	0.59683 0.53027 0.58916 -0.02800
H 	H 	0.63473 0.57917 0.57817 0.05700
O 	O 	0.70438 0.55632 0.66990 -0.40100
O 	O 	0.74460 0.63674 0.62247 -0.40600
C 	C 	0.52153 0.56497 0.52397 0.08900
C 	C 	0.51353 0.57287 0.48947 -0.09800
H 	H 	0.50183 0.61247 0.47867 0.06400
C 	C 	0.52443 0.63437 0.54967 0.33000
H 	H 	0.53073 0.68077 0.53637 -0.07000
H 	H 	0.57043 0.65247 0.56517 -0.05600
H 	H 	0.47373 0.61127 0.56267 -0.06300
H 	H 	0.52773 0.60637 0.54097 -0.18000
C 	C 	0.54850 0.64040 0.97294 0.35100
C 	C 	0.56900 0.72010 0.95588 -0.08100
C 	C 	0.60010 0.73650 0.92249 -0.02800
H 	H 	0.61110 0.69860 0.91150 0.05700
O 	O 	0.51860 0.62895 0.00323 -0.40100
O 	O 	0.55880 0.58873 0.95580 -0.40600
C 	C 	0.71010 0.81180 0.85730 0.08900
C 	C 	0.72600 0.81980 0.82280 -0.09800
H 	H 	0.77730 0.83150 0.81200 0.06400
C 	C 	0.77660 0.80890 0.88300 0.33000
H 	H 	0.81670 0.80260 0.86970 -0.07000
H 	H 	0.74870 0.76290 0.89850 -0.05600
H 	H 	0.80420 0.85960 0.89600 -0.06300
H 	H 	0.74530 0.80560 0.87430 -0.18000
C 	C 	0.21517 0.97373 0.30627 0.35100
C 	C 	0.23567 0.05343 0.28921 -0.08100
C 	C 	0.26677 0.06983 0.25582 -0.02800
H 	H 	0.27777 0.03193 0.24483 0.05700
O 	O 	0.18527 0.96228 0.33656 -0.40100
O 	O 	0.22547 0.92206 0.28913 -0.40600
C 	C 	0.37677 0.14513 0.19063 0.08900
C 	C 	0.39267 0.15313 0.15613 -0.09800
H 	H 	0.44397 0.16483 0.14533 0.06400
C 	C 	0.44327 0.14223 0.21633 0.33000
H 	H 	0.48337 0.13593 0.20303 -0.07000
H 	H 	0.41537 0.09623 0.23183 -0.05600
H 	H 	0.47087 0.19293 0.22933 -0.06300
H 	H 	0.41197 0.13893 0.20763 -0.18000
C 	C 	0.88183 0.30707 0.63961 0.35100
C 	C 	0.90233 0.38677 0.62255 -0.08100
C 	C 	0.93343 0.40317 0.58916 -0.02800
H 	H 	0.94443 0.36527 0.57817 0.05700
O 	O 	0.85193 0.29562 0.66990 -0.40100
O 	O 	0.89213 0.25540 0.62247 -0.40600
C 	C 	0.04343 0.47847 0.52397 0.08900
C 	C 	0.05933 0.48647 0.48947 -0.09800
H 	H 	0.11063 0.49817 0.47867 0.06400
C 	C 	0.10993 0.47557 0.54967 0.33000
H 	H 	0.15003 0.46927 0.53637 -0.07000
H 	H 	0.08203 0.42957 0.56517 -0.05600
H 	H 	0.13753 0.52627 0.56267 -0.06300
H 	H 	0.07863 0.47227 0.54097 -0.18000
C 	C 	0.54850 0.90810 0.97294 0.35100
C 	C 	0.56900 0.84890 0.95588 -0.08100
C 	C 	0.60010 0.86360 0.92249 -0.02800
H 	H 	0.61110 0.91250 0.91150 0.05700
O 	O 	0.51860 0.88965 0.00323 -0.40100
O 	O 	0.55880 0.97007 0.95580 -0.40600
C 	C 	0.71010 0.89830 0.85730 0.08900
C 	C 	0.72600 0.90620 0.82280 -0.09800
H 	H 	0.77730 0.94580 0.81200 0.06400
C 	C 	0.77660 0.96770 0.88300 0.33000
H 	H 	0.81670 0.01410 0.86970 -0.07000
H 	H 	0.74870 0.98580 0.89850 -0.05600
H 	H 	0.80420 0.94460 0.89600 -0.06300
H 	H 	0.74530 0.93970 0.87430 -0.18000
C 	C 	0.21517 0.24143 0.30627 0.35100
C 	C 	0.23567 0.18223 0.28921 -0.08100
C 	C 	0.26677 0.19693 0.25582 -0.02800
H 	H 	0.27777 0.24583 0.24483 0.05700
O 	O 	0.18527 0.22298 0.33656 -0.40100
O 	O 	0.22547 0.30340 0.28913 -0.40600
C 	C 	0.37677 0.23163 0.19063 0.08900
C 	C 	0.39267 0.23953 0.15613 -0.09800
H 	H 	0.44397 0.27913 0.14533 0.06400
C 	C 	0.44327 0.30103 0.21633 0.33000
H 	H 	0.48337 0.34743 0.20303 -0.07000
H 	H 	0.41537 0.31913 0.23183 -0.05600
H 	H 	0.47087 0.27793 0.22933 -0.06300
H 	H 	0.41197 0.27303 0.20763 -0.18000
C 	C 	0.88183 0.57477 0.63961 0.35100
C 	C 	0.90233 0.51557 0.62255 -0.08100
C 	C 	0.93343 0.53027 0.58916 -0.02800
H 	H 	0.94443 0.57917 0.57817 0.05700
O 	O 	0.85193 0.55632 0.66990 -0.40100
O 	O 	0.89213 0.63674 0.62247 -0.40600
C 	C 	0.04343 0.56497 0.52397 0.08900
C 	C 	0.05933 0.57287 0.48947 -0.09800
H 	H 	0.11063 0.61247 0.47867 0.06400
C 	C 	0.10993 0.63437 0.54967 0.33000
H 	H 	0.15003 0.68077 0.53637 -0.07000
H 	H 	0.08203 0.65247 0.56517 -0.05600
H 	H 	0.13753 0.61127 0.56267 -0.06300
H 	H 	0.07863 0.60637 0.54097 -0.18000
C 	C 	0.09190 0.64040 0.97294 0.35100
C 	C 	0.15110 0.72010 0.95588 -0.08100
C 	C 	0.13640 0.73650 0.92249 -0.02800
H 	H 	0.08750 0.69860 0.91150 0.05700
O 	O 	0.11035 0.62895 0.00323 -0.40100
O 	O 	0.02993 0.58873 0.95580 -0.40600
C 	C 	0.10170 0.81180 0.85730 0.08900
C 	C 	0.09380 0.81980 0.82280 -0.09800
H 	H 	0.05420 0.83150 0.81200 0.06400
C 	C 	0.03230 0.80890 0.88300 0.33000
H 	H 	0.98590 0.80260 0.86970 -0.07000
H 	H 	0.01420 0.76290 0.89850 -0.05600
H 	H 	0.05540 0.85960 0.89600 -0.06300
H 	H 	0.06030 0.80560 0.87430 -0.18000
C 	C 	0.75857 0.97373 0.30627 0.35100
C 	C 	0.81777 0.05343 0.28921 -0.08100
C 	C 	0.80307 0.06983 0.25582 -0.02700
H 	H 	0.75417 0.03193 0.24483 0.05700
O 	O 	0.77702 0.96228 0.33656 -0.40100
O 	O 	0.69660 0.92206 0.28913 -0.40600
C 	C 	0.76837 0.14513 0.19063 0.08900
C 	C 	0.76047 0.15313 0.15613 -0.09800
H 	H 	0.72087 0.16483 0.14533 0.06400
C 	C 	0.69897 0.14223 0.21633 0.33000
H 	H 	0.65257 0.13593 0.20303 -0.07000
H 	H 	0.68087 0.09623 0.23183 -0.05600
H 	H 	0.72207 0.19293 0.22933 -0.06300
H 	H 	0.72697 0.13893 0.20763 -0.18000
C 	C 	0.42523 0.30707 0.63961 0.35100
C 	C 	0.48443 0.38677 0.62255 -0.08100
C 	C 	0.46973 0.40317 0.58916 -0.02800
H 	H 	0.42083 0.36527 0.57817 0.05700
O 	O 	0.44368 0.29562 0.66990 -0.40100
O 	O 	0.36326 0.25540 0.62247 -0.40600
C 	C 	0.43503 0.47847 0.52397 0.08900
C 	C 	0.42713 0.48647 0.48947 -0.09800
H 	H 	0.38753 0.49817 0.47867 0.06400
C 	C 	0.36563 0.47557 0.54967 0.33000
H 	H 	0.31923 0.46927 0.53637 -0.07000
H 	H 	0.34753 0.42957 0.56517 -0.05600
H 	H 	0.38873 0.52627 0.56267 -0.06300
H 	H 	0.39363 0.47227 0.54097 -0.18000
C 	C 	0.35960 0.45150 0.97294 0.35100
C 	C 	0.27990 0.43100 0.95588 -0.08100
C 	C 	0.26350 0.39990 0.92249 -0.02800
H 	H 	0.30140 0.38890 0.91150 0.05700
O 	O 	0.37105 0.48140 0.00323 -0.40100
O 	O 	0.41127 0.44120 0.95580 -0.40600
C 	C 	0.18820 0.28990 0.85730 0.08900
C 	C 	0.18020 0.27400 0.82280 -0.09800
H 	H 	0.16850 0.22270 0.81200 0.06400
C 	C 	0.19110 0.22340 0.88300 0.33000
H 	H 	0.19740 0.18330 0.86970 -0.07000
H 	H 	0.23710 0.25130 0.89850 -0.05600
H 	H 	0.14040 0.19580 0.89600 -0.06300
H 	H 	0.19440 0.25470 0.87430 -0.18000
C 	C 	0.02627 0.78483 0.30627 0.35100
C 	C 	0.94657 0.76433 0.28921 -0.08100
C 	C 	0.93017 0.73323 0.25582 -0.02800
H 	H 	0.96807 0.72223 0.24483 0.05700
O 	O 	0.03772 0.81473 0.33656 -0.40100
O 	O 	0.07794 0.77453 0.28913 -0.40600
C 	C 	0.85487 0.62323 0.19063 0.08900
C 	C 	0.84687 0.60733 0.15613 -0.09800
H 	H 	0.83517 0.55603 0.14533 0.06400
C 	C 	0.85777 0.55673 0.21633 0.33000
H 	H 	0.86407 0.51663 0.20303 -0.07000
H 	H 	0.90377 0.58463 0.23183 -0.05600
H 	H 	0.80707 0.52913 0.22933 -0.06300
H 	H 	0.86107 0.58803 0.20763 -0.18000
C 	C 	0.69293 0.11817 0.63961 0.35100
C 	C 	0.61323 0.09767 0.62255 -0.08100
C 	C 	0.59683 0.06657 0.58916 -0.02800
H 	H 	0.63473 0.05557 0.57817 0.05700
O 	O 	0.70438 0.14807 0.66990 -0.40100
O 	O 	0.74460 0.10787 0.62247 -0.40600
C 	C 	0.52153 0.95657 0.52397 0.08900
C 	C 	0.51353 0.94067 0.48947 -0.09800
H 	H 	0.50183 0.88937 0.47867 0.06400
C 	C 	0.52443 0.89007 0.54967 0.33000
H 	H 	0.53073 0.84997 0.53637 -0.07000
H 	H 	0.57043 0.91797 0.56517 -0.05600
H 	H 	0.47373 0.86247 0.56267 -0.06300
H 	H 	0.52773 0.92137 0.54097 -0.18000
C 	C 	0.90810 0.54850 0.02706 0.35100
C 	C 	0.84890 0.56900 0.04412 -0.08100
C 	C 	0.86360 0.60010 0.07751 -0.02800
H 	H 	0.91250 0.61110 0.08850 0.05700
O 	O 	0.88965 0.51860 0.99677 -0.40100
O 	O 	0.97007 0.55880 0.04420 -0.40600
C 	C 	0.89830 0.71010 0.14270 0.08900
C 	C 	0.90620 0.72600 0.17720 -0.09800
H 	H 	0.94580 0.77730 0.18800 0.06400
C 	C 	0.96770 0.77660 0.11700 0.33000
H 	H 	0.01410 0.81670 0.13030 -0.07000
H 	H 	0.98580 0.74870 0.10150 -0.05600
H 	H 	0.94460 0.80420 0.10400 -0.06300
H 	H 	0.93970 0.74530 0.12570 -0.18000
C 	C 	0.57477 0.88183 0.36039 0.35100
C 	C 	0.51557 0.90233 0.37745 -0.08100
C 	C 	0.53027 0.93343 0.41084 -0.02800
H 	H 	0.57917 0.94443 0.42183 0.05700
O 	O 	0.55632 0.85193 0.33010 -0.40100
O 	O 	0.63674 0.89213 0.37753 -0.40600
C 	C 	0.56497 0.04343 0.47603 0.08900
C 	C 	0.57287 0.05933 0.51053 -0.09800
H 	H 	0.61247 0.11063 0.52133 0.06400
C 	C 	0.63437 0.10993 0.45033 0.33000
H 	H 	0.68077 0.15003 0.46363 -0.07000
H 	H 	0.65247 0.08203 0.43483 -0.05600
H 	H 	0.61127 0.13753 0.43733 -0.06300
H 	H 	0.60637 0.07863 0.45903 -0.18000
C 	C 	0.24143 0.21517 0.69373 0.35100
C 	C 	0.18223 0.23567 0.71079 -0.08100
C 	C 	0.19693 0.26677 0.74418 -0.02800
H 	H 	0.24583 0.27777 0.75517 0.05700
O 	O 	0.22298 0.18527 0.66344 -0.40100
O 	O 	0.30340 0.22547 0.71087 -0.40600
C 	C 	0.23163 0.37677 0.80937 0.08900
C 	C 	0.23953 0.39267 0.84387 -0.09800
H 	H 	0.27913 0.44397 0.85467 0.06400
C 	C 	0.30103 0.44327 0.78367 0.33000
H 	H 	0.34743 0.48337 0.79697 -0.07000
H 	H 	0.31913 0.41537 0.76817 -0.05600
H 	H 	0.27793 0.47087 0.77067 -0.06300
H 	H 	0.27303 0.41197 0.79237 -0.18000
C 	C 	0.64040 0.09190 0.02706 0.35100
C 	C 	0.72010 0.15110 0.04412 -0.08100
C 	C 	0.73650 0.13640 0.07751 -0.02800
H 	H 	0.69860 0.08750 0.08850 0.05700
O 	O 	0.62895 0.11035 0.99677 -0.40100
O 	O 	0.58873 0.02993 0.04420 -0.40600
C 	C 	0.81180 0.10170 0.14270 0.08900
C 	C 	0.81980 0.09380 0.17720 -0.09800
H 	H 	0.83150 0.05420 0.18800 0.06400
C 	C 	0.80890 0.03230 0.11700 0.33000
H 	H 	0.80260 0.98590 0.13030 -0.07000
H 	H 	0.76290 0.01420 0.10150 -0.05600
H 	H 	0.85960 0.05540 0.10400 -0.06300
H 	H 	0.80560 0.06030 0.12570 -0.18000
C 	C 	0.30707 0.42523 0.36039 0.35100
C 	C 	0.38677 0.48443 0.37745 -0.08100
C 	C 	0.40317 0.46973 0.41084 -0.02800
H 	H 	0.36527 0.42083 0.42183 0.05700
O 	O 	0.29562 0.44368 0.33010 -0.40100
O 	O 	0.25540 0.36326 0.37753 -0.40600
C 	C 	0.47847 0.43503 0.47603 0.08900
C 	C 	0.48647 0.42713 0.51053 -0.09800
H 	H 	0.49817 0.38753 0.52133 0.06400
C 	C 	0.47557 0.36563 0.45033 0.33000
H 	H 	0.46927 0.31923 0.46363 -0.07000
H 	H 	0.42957 0.34753 0.43483 -0.05600
H 	H 	0.52627 0.38873 0.43733 -0.06300
H 	H 	0.47227 0.39363 0.45903 -0.18000
C 	C 	0.97373 0.75857 0.69373 0.35100
C 	C 	0.05343 0.81777 0.71079 -0.08100
C 	C 	0.06983 0.80307 0.74418 -0.02700
H 	H 	0.03193 0.75417 0.75517 0.05700
O 	O 	0.96228 0.77702 0.66344 -0.40100
O 	O 	0.92206 0.69660 0.71087 -0.40600
C 	C 	0.14513 0.76837 0.80937 0.08900
C 	C 	0.15313 0.76047 0.84387 -0.09800
H 	H 	0.16483 0.72087 0.85467 0.06400
C 	C 	0.14223 0.69897 0.78367 0.33000
H 	H 	0.13593 0.65257 0.79697 -0.07000
H 	H 	0.09623 0.68087 0.76817 -0.05600
H 	H 	0.19293 0.72207 0.77067 -0.06300
H 	H 	0.13893 0.72697 0.79237 -0.18000
C 	C 	0.45150 0.35960 0.02706 0.35100
C 	C 	0.43100 0.27990 0.04412 -0.08100
C 	C 	0.39990 0.26350 0.07751 -0.02800
H 	H 	0.38890 0.30140 0.08850 0.05700
O 	O 	0.48140 0.37105 0.99677 -0.40100
O 	O 	0.44120 0.41127 0.04420 -0.40600
C 	C 	0.28990 0.18820 0.14270 0.08900
C 	C 	0.27400 0.18020 0.17720 -0.09800
H 	H 	0.22270 0.16850 0.18800 0.06400
C 	C 	0.22340 0.19110 0.11700 0.33000
H 	H 	0.18330 0.19740 0.13030 -0.07000
H 	H 	0.25130 0.23710 0.10150 -0.05600
H 	H 	0.19580 0.14040 0.10400 -0.06300
H 	H 	0.25470 0.19440 0.12570 -0.18000
C 	C 	0.11817 0.69293 0.36039 0.35100
C 	C 	0.09767 0.61323 0.37745 -0.08100
C 	C 	0.06657 0.59683 0.41084 -0.02800
H 	H 	0.05557 0.63473 0.42183 0.05700
O 	O 	0.14807 0.70438 0.33010 -0.40100
O 	O 	0.10787 0.74460 0.37753 -0.40600
C 	C 	0.95657 0.52153 0.47603 0.08900
C 	C 	0.94067 0.51353 0.51053 -0.09800
H 	H 	0.88937 0.50183 0.52133 0.06400
C 	C 	0.89007 0.52443 0.45033 0.33000
H 	H 	0.84997 0.53073 0.46363 -0.07000
H 	H 	0.91797 0.57043 0.43483 -0.05600
H 	H 	0.86247 0.47373 0.43733 -0.06300
H 	H 	0.92137 0.52773 0.45903 -0.18000
C 	C 	0.78483 0.02627 0.69373 0.35100
C 	C 	0.76433 0.94657 0.71079 -0.08100
C 	C 	0.73323 0.93017 0.74418 -0.02800
H 	H 	0.72223 0.96807 0.75517 0.05700
O 	O 	0.81473 0.03772 0.66344 -0.40100
O 	O 	0.77453 0.07794 0.71087 -0.40600
C 	C 	0.62323 0.85487 0.80937 0.08900
C 	C 	0.60733 0.84687 0.84387 -0.09800
H 	H 	0.55603 0.83517 0.85467 0.06400
C 	C 	0.55673 0.85777 0.78367 0.33000
H 	H 	0.51663 0.86407 0.79697 -0.07000
H 	H 	0.58463 0.90377 0.76817 -0.05600
H 	H 	0.52913 0.80707 0.77067 -0.06300
H 	H 	0.58803 0.86107 0.79237 -0.18000
C 	C 	0.44510 0.22255 0.02798 0.02500
H 	H 	0.46490 0.23245 0.00540 0.05300
C 	C 	0.38490 0.19245 0.09492 0.00700
C 	C 	0.35670 0.17835 0.13203 -0.00900
C 	C 	0.11177 0.55588 0.36131 0.02500
H 	H 	0.13157 0.56578 0.33873 0.05300
C 	C 	0.05157 0.52578 0.42825 0.00700
C 	C 	0.02337 0.51168 0.46536 -0.00900
C 	C 	0.77843 0.88922 0.69465 0.02500
H 	H 	0.79823 0.89912 0.67207 0.05300
C 	C 	0.71823 0.85912 0.76159 0.00700
C 	C 	0.69003 0.84502 0.79870 -0.00900
C 	C 	0.77745 0.22255 0.02798 0.02500
H 	H 	0.76755 0.23245 0.00540 0.05300
C 	C 	0.80755 0.19245 0.09492 0.00700
C 	C 	0.82165 0.17835 0.13203 -0.00900
C 	C 	0.44412 0.55588 0.36131 0.02500
H 	H 	0.43422 0.56578 0.33873 0.05300
C 	C 	0.47422 0.52578 0.42825 0.00700
C 	C 	0.48832 0.51168 0.46536 -0.00900
C 	C 	0.11078 0.88922 0.69465 0.02500
H 	H 	0.10088 0.89912 0.67207 0.05300
C 	C 	0.14088 0.85912 0.76159 0.00700
C 	C 	0.15498 0.84502 0.79870 -0.00900
C 	C 	0.77745 0.55490 0.02798 0.02500
H 	H 	0.76755 0.53510 0.00540 0.05300
C 	C 	0.80755 0.61510 0.09492 0.00700
C 	C 	0.82165 0.64330 0.13203 -0.00900
C 	C 	0.44412 0.88823 0.36131 0.02500
H 	H 	0.43422 0.86843 0.33873 0.05300
C 	C 	0.47422 0.94843 0.42825 0.00700
C 	C 	0.48832 0.97663 0.46536 -0.00900
C 	C 	0.11078 0.22157 0.69465 0.02500
H 	H 	0.10088 0.20177 0.67207 0.05300
C 	C 	0.14088 0.28177 0.76159 0.00700
C 	C 	0.15498 0.30997 0.79870 -0.00900
C 	C 	0.22255 0.44510 0.97202 0.02500
H 	H 	0.23245 0.46490 0.99460 0.05300
C 	C 	0.19245 0.38490 0.90508 0.00700
C 	C 	0.17835 0.35670 0.86797 -0.00900
C 	C 	0.88922 0.77843 0.30535 0.02500
H 	H 	0.89912 0.79823 0.32793 0.05300
C 	C 	0.85912 0.71823 0.23841 0.00700
C 	C 	0.84502 0.69003 0.20130 -0.00900
C 	C 	0.55588 0.11177 0.63869 0.02500
H 	H 	0.56578 0.13157 0.66127 0.05300
C 	C 	0.52578 0.05157 0.57175 0.00700
C 	C 	0.51168 0.02337 0.53464 -0.00900
C 	C 	0.22255 0.77745 0.97202 0.02500
H 	H 	0.23245 0.76755 0.99460 0.05300
C 	C 	0.19245 0.80755 0.90508 0.00700
C 	C 	0.17835 0.82165 0.86797 -0.00900
C 	C 	0.88922 0.11078 0.30535 0.02500
H 	H 	0.89912 0.10088 0.32793 0.05300
C 	C 	0.85912 0.14088 0.23841 0.00700
C 	C 	0.84502 0.15498 0.20130 -0.00900
C 	C 	0.55588 0.44412 0.63869 0.02500
H 	H 	0.56578 0.43422 0.66127 0.05300
C 	C 	0.52578 0.47422 0.57175 0.00700
C 	C 	0.51168 0.48832 0.53464 -0.00900
C 	C 	0.55490 0.77745 0.97202 0.02500
H 	H 	0.53510 0.76755 0.99460 0.05300
C 	C 	0.61510 0.80755 0.90508 0.00700
C 	C 	0.64330 0.82165 0.86797 -0.00900
C 	C 	0.22157 0.11078 0.30535 0.02500
H 	H 	0.20177 0.10088 0.32793 0.05300
C 	C 	0.28177 0.14088 0.23841 0.00700
C 	C 	0.30997 0.15498 0.20130 -0.00900
C 	C 	0.88823 0.44412 0.63869 0.02500
H 	H 	0.86843 0.43422 0.66127 0.05300
C 	C 	0.94843 0.47422 0.57175 0.00700
C 	C 	0.97663 0.48832 0.53464 -0.00900
Cu	Cu	0.52365 0.04730 0.97196 0.90400
Cu	Cu	0.19032 0.38063 0.30530 0.90400
Cu	Cu	0.85698 0.71397 0.63863 0.90400
Cu	Cu	0.95270 0.47635 0.97196 0.90400
Cu	Cu	0.61937 0.80968 0.30530 0.90400
Cu	Cu	0.28603 0.14302 0.63863 0.90400
Cu	Cu	0.52365 0.47635 0.97196 0.90400
Cu	Cu	0.19032 0.80968 0.30530 0.90400
Cu	Cu	0.85698 0.14302 0.63863 0.90400
Cu	Cu	0.04730 0.52365 0.02804 0.90400
Cu	Cu	0.71397 0.85698 0.36137 0.90400
Cu	Cu	0.38063 0.19032 0.69470 0.90400
Cu	Cu	0.47635 0.95270 0.02804 0.90400
Cu	Cu	0.14302 0.28603 0.36137 0.90400
Cu	Cu	0.80968 0.61937 0.69470 0.90400
Cu	Cu	0.47635 0.52365 0.02804 0.90400
Cu	Cu	0.14302 0.85698 0.36137 0.90400
Cu	Cu	0.80968 0.19032 0.69470 0.90400
