data_crystal

_cell_length_a 16.13260
_cell_length_b 25.48520
_cell_length_c 19.11050
_cell_angle_alpha 90.00000
_cell_angle_beta  90.05900
_cell_angle_gamma 90.00000

_symmetry_space_group_name_	'P 1'
_symmetry_space_group_name_H-M	'P 1'

loop_
_symmetry_equiv_pos_as_xyz
  x,y,z

loop_
_atom_site_label
_atom_site_type_symbol
_atom_site_fract_x
_atom_site_fract_y
_atom_site_fract_z
_atom_site_charge
U 	U 	0.82961 0.78715 0.42404 0.00500
U 	U 	0.01106 0.98084 0.28037 0.00100
U 	U 	0.62486 0.97477 0.29312 -0.00200
U 	U 	0.81134 0.81823 0.09358 0.00400
U 	U 	0.69902 0.17584 0.59756 -0.03200
U 	U 	0.50004 0.01312 0.78181 0.00600
U 	U 	0.88660 0.02270 0.80508 0.00700
U 	U 	0.67030 0.20919 0.92869 0.00600
Rb	Rb	0.83209 0.95227 0.42166 0.70500
Rb	Rb	0.65694 0.81866 0.26956 0.71900
Rb	Rb	0.98448 0.82776 0.24948 0.71400
Rb	Rb	0.64319 0.10305 0.12072 0.68300
Rb	Rb	0.70319 0.01453 0.66115 0.70500
Rb	Rb	0.84656 0.17711 0.78042 0.71000
Rb	Rb	0.52023 0.16831 0.75279 0.71400
Rb	Rb	0.78190 0.98234 0.01823 0.71200
O 	O 	0.83120 0.83120 0.35190 -0.16500
O 	O 	0.92140 0.94000 0.27320 -0.13100
O 	O 	0.71730 0.93740 0.29380 -0.13000
O 	O 	0.80440 0.85310 0.17350 -0.12700
O 	O 	0.58850 0.05460 0.77460 -0.14400
O 	O 	0.79490 0.06050 0.79910 -0.13900
O 	O 	0.66710 0.16380 0.86050 -0.13200
O 	O 	0.98110 0.77980 0.42010 -0.21200
O 	O 	0.93100 0.84580 0.47800 -0.23900
O 	O 	0.07410 0.90550 0.34600 -0.24800
O 	O 	0.00770 0.96590 0.40610 -0.26300
O 	O 	0.76260 0.85470 0.49670 -0.24900
O 	O 	0.67950 0.80670 0.43590 -0.22800
O 	O 	0.55360 0.89700 0.34380 -0.24400
O 	O 	0.61070 0.95180 0.41780 -0.22100
O 	O 	0.74090 0.72900 0.35320 -0.21700
O 	O 	0.87430 0.71860 0.34080 -0.20600
O 	O 	0.76390 0.74220 0.16070 -0.20900
O 	O 	0.89880 0.75200 0.15410 -0.22900
O 	O 	0.91840 0.04320 0.34510 -0.22000
O 	O 	0.93620 0.05590 0.23130 -0.18300
O 	O 	0.69210 0.03700 0.37120 -0.20300
O 	O 	0.70420 0.05430 0.25960 -0.23000
O 	O 	0.02050 0.98370 0.15030 -0.20400
O 	O 	0.08310 0.91800 0.20330 -0.24500
O 	O 	0.96070 0.84490 0.09220 -0.22200
O 	O 	0.87290 0.89250 0.03320 -0.24500
O 	O 	0.62670 0.98900 0.16340 -0.26400
O 	O 	0.57550 0.91470 0.20270 -0.23600
O 	O 	0.70630 0.88010 0.04640 -0.25000
O 	O 	0.66090 0.80800 0.09310 -0.20400
O 	O 	0.54950 0.14920 0.58940 -0.23900
O 	O 	0.64030 0.10050 0.53640 -0.21000
O 	O 	0.42700 0.07610 0.70380 -0.23500
O 	O 	0.50080 0.01370 0.65180 -0.22900
O 	O 	0.80630 0.11320 0.55760 -0.23500
O 	O 	0.84960 0.18520 0.60410 -0.22800
O 	O 	0.94390 0.08010 0.71470 -0.23900
O 	O 	0.88420 0.00970 0.67660 -0.25200
O 	O 	0.74090 0.25260 0.66750 -0.24400
O 	O 	0.61070 0.24210 0.65140 -0.23700
O 	O 	0.75590 0.26670 0.85610 -0.22000
O 	O 	0.62270 0.27470 0.84170 -0.20300
O 	O 	0.58450 0.94350 0.73010 -0.24600
O 	O 	0.58310 0.94580 0.84510 -0.20000
O 	O 	0.79870 0.94820 0.76800 -0.23600
O 	O 	0.81970 0.95880 0.88140 -0.25000
O 	O 	0.49950 0.02830 0.90890 -0.18400
O 	O 	0.43480 0.08750 0.84770 -0.23900
O 	O 	0.52000 0.21320 0.91940 -0.20700
O 	O 	0.56930 0.15330 0.99070 -0.24200
O 	O 	0.89600 0.04680 0.93120 -0.24200
O 	O 	0.95270 0.10030 0.85530 -0.24700
O 	O 	0.74030 0.14460 0.00630 -0.26700
O 	O 	0.81980 0.19240 0.93910 -0.21800
O 	O 	0.72170 0.00870 0.51500 -0.20100
O 	O 	0.60330 0.72800 0.18390 -0.14200
O 	O 	0.56400 0.73630 0.34880 -0.16900
O 	O 	0.03690 0.72720 0.29850 -0.19900
O 	O 	0.08250 0.76960 0.14010 -0.16700
O 	O 	0.80560 0.98380 0.15520 -0.09900
O 	O 	0.64910 0.04240 0.98170 -0.16900
C 	C 	0.08040 0.84000 0.46940 -0.08600
H 	H 	0.11690 0.82830 0.43010 0.07800
C 	C 	0.08090 0.90090 0.47260 -0.10400
H 	H 	0.04390 0.91290 0.51130 0.06900
C 	C 	0.17110 0.92010 0.48690 -0.06800
H 	H 	0.20750 0.90980 0.44760 0.05100
H 	H 	0.17180 0.95890 0.49040 0.04000
C 	C 	0.20440 0.89590 0.55620 -0.08900
H 	H 	0.26280 0.90680 0.56330 0.04400
H 	H 	0.17150 0.90930 0.59610 0.05100
C 	C 	0.19950 0.83560 0.55460 -0.08500
H 	H 	0.23890 0.82200 0.51940 0.05900
H 	H 	0.21600 0.82150 0.60090 0.04500
C 	C 	0.11200 0.81630 0.53690 -0.07400
H 	H 	0.11250 0.77760 0.53250 0.05900
H 	H 	0.07390 0.82570 0.57550 0.05600
C 	C 	0.99080 0.82040 0.45560 0.28600
C 	C 	0.05200 0.92490 0.40400 0.28700
C 	C 	0.61770 0.86460 0.51760 -0.10300
H 	H 	0.63480 0.89890 0.53840 0.06900
C 	C 	0.54420 0.87430 0.46660 -0.09200
H 	H 	0.52490 0.84000 0.44700 0.08100
C 	C 	0.47470 0.89950 0.50720 -0.06800
H 	H 	0.49480 0.93290 0.52740 0.05800
H 	H 	0.42870 0.90780 0.47470 0.04200
C 	C 	0.44250 0.86590 0.56450 -0.08000
H 	H 	0.41680 0.83390 0.54450 0.05400
H 	H 	0.39940 0.88510 0.59090 0.04700
C 	C 	0.51290 0.85030 0.61390 -0.09600
H 	H 	0.49200 0.82370 0.64730 0.05000
H 	H 	0.52990 0.88150 0.64130 0.07300
C 	C 	0.58880 0.82810 0.57640 -0.06700
H 	H 	0.57510 0.79330 0.55660 0.06300
H 	H 	0.63440 0.82340 0.61050 0.04900
C 	C 	0.69040 0.84100 0.48100 0.29900
C 	C 	0.57140 0.91060 0.40620 0.27700
C 	C 	0.78710 0.66580 0.26790 -0.09000
H 	H 	0.72910 0.67010 0.25040 0.08000
C 	C 	0.84460 0.67250 0.20740 -0.09900
H 	H 	0.90280 0.66880 0.22480 0.08400
C 	C 	0.82750 0.62800 0.15370 -0.05900
H 	H 	0.77060 0.63220 0.13500 0.05700
H 	H 	0.86660 0.63170 0.11400 0.04900
C 	C 	0.83600 0.57580 0.18320 -0.09100
H 	H 	0.89400 0.57020 0.19820 0.07700
H 	H 	0.82260 0.54930 0.14700 0.05000
C 	C 	0.77780 0.56850 0.24630 -0.09700
H 	H 	0.71940 0.57030 0.23060 0.08200
H 	H 	0.78730 0.53370 0.26780 0.05700
C 	C 	0.79470 0.61150 0.29980 -0.06400
H 	H 	0.75490 0.60820 0.33890 0.05200
H 	H 	0.85120 0.60700 0.31910 0.05600
C 	C 	0.80210 0.70670 0.32330 0.27200
C 	C 	0.83650 0.72470 0.17240 0.27400
C 	C 	0.84810 0.11830 0.29000 -0.07700
H 	H 	0.82420 0.12440 0.24240 0.05900
C 	C 	0.77710 0.11280 0.34210 -0.10200
H 	H 	0.79990 0.10830 0.39040 0.08500
C 	C 	0.72110 0.16100 0.33980 -0.05000
H 	H 	0.69660 0.16490 0.29250 0.02700
H 	H 	0.67550 0.15720 0.37400 0.05300
C 	C 	0.77280 0.20870 0.35740 -0.10700
H 	H 	0.79200 0.20590 0.40650 0.07100
H 	H 	0.73770 0.24040 0.35370 0.05200
C 	C 	0.84780 0.21500 0.30970 -0.06800
H 	H 	0.82900 0.22240 0.26140 0.04000
H 	H 	0.88180 0.24500 0.32580 0.04100
C 	C 	0.89950 0.16580 0.31030 -0.08700
H 	H 	0.92290 0.16040 0.35770 0.05900
H 	H 	0.94620 0.16970 0.27720 0.05100
C 	C 	0.90190 0.06960 0.28740 0.26700
C 	C 	0.72310 0.06470 0.32260 0.27500
C 	C 	0.08820 0.92130 0.07740 -0.10900
H 	H 	0.11150 0.88520 0.08370 0.08400
C 	C 	0.01650 0.91820 0.02740 -0.07200
H 	H 	0.99350 0.95440 0.02180 0.06200
C 	C 	0.04180 0.89880 0.95600 -0.09600
H 	H 	0.99290 0.89790 0.92480 0.06800
H 	H 	0.06420 0.86280 0.95980 0.06700
C 	C 	0.10990 0.93640 0.92420 -0.07300
H 	H 	0.12620 0.92380 0.87720 0.04700
H 	H 	0.08720 0.97230 0.91940 0.05500
C 	C 	0.18630 0.93720 0.97290 -0.10300
H 	H 	0.22930 0.96070 0.95350 0.04800
H 	H 	0.21010 0.90150 0.97680 0.06000
C 	C 	0.15780 0.95750 0.04810 -0.06000
H 	H 	0.20570 0.95750 0.08050 0.04100
H 	H 	0.13690 0.99400 0.04430 0.04900
C 	C 	0.06070 0.94140 0.14750 0.28600
C 	C 	0.94750 0.88320 0.05190 0.28100
C 	C 	0.55490 0.93150 0.08130 -0.10800
H 	H 	0.58890 0.94920 0.04450 0.06900
C 	C 	0.55780 0.87220 0.06860 -0.08700
H 	H 	0.52790 0.85440 0.10790 0.09000
C 	C 	0.51630 0.85560 0.99900 -0.08700
H 	H 	0.51810 0.81700 0.99390 0.06800
H 	H 	0.54600 0.87150 0.95900 0.06700
C 	C 	0.42410 0.87510 0.00040 -0.06600
H 	H 	0.39660 0.86580 0.95580 0.04800
H 	H 	0.39400 0.85730 0.03880 0.06300
C 	C 	0.42000 0.93290 0.01080 -0.10800
H 	H 	0.36110 0.94350 0.01330 0.05100
H 	H 	0.44470 0.95030 0.96950 0.08200
C 	C 	0.46430 0.95270 0.07650 -0.05000
H 	H 	0.43300 0.94140 0.11840 0.04400
H 	H 	0.46540 0.99150 0.07590 0.03300
C 	C 	0.58880 0.94700 0.15300 0.29700
C 	C 	0.64760 0.85300 0.06850 0.29200
C 	C 	0.49660 0.07370 0.52600 -0.06900
H 	H 	0.52000 0.03750 0.52180 0.07400
C 	C 	0.42530 0.07220 0.57740 -0.12200
H 	H 	0.40330 0.10860 0.58310 0.08600
C 	C 	0.35570 0.03730 0.54690 -0.04700
H 	H 	0.37580 0.00070 0.54360 0.04700
H 	H 	0.30770 0.03770 0.57910 0.03900
C 	C 	0.32830 0.05540 0.47590 -0.10700
H 	H 	0.30350 0.09080 0.47950 0.06200
H 	H 	0.28560 0.03120 0.45740 0.05300
C 	C 	0.40370 0.05700 0.42480 -0.07000
H 	H 	0.42590 0.02110 0.41830 0.05800
H 	H 	0.38530 0.07020 0.37850 0.04500
C 	C 	0.47020 0.09210 0.45330 -0.09000
H 	H 	0.44940 0.12850 0.45600 0.06500
H 	H 	0.51860 0.09160 0.42150 0.07100
C 	C 	0.56590 0.11070 0.55400 0.27500
C 	C 	0.45310 0.05350 0.64550 0.26700
C 	C 	0.95300 0.12140 0.57830 -0.09900
H 	H 	0.98600 0.13970 0.61540 0.09300
C 	C 	0.95730 0.06340 0.59030 -0.08500
H 	H 	0.92140 0.04540 0.55500 0.06400
C 	C 	0.04730 0.04260 0.58300 -0.07300
H 	H 	0.08140 0.05590 0.62220 0.05400
H 	H 	0.04710 0.00380 0.58540 0.05100
C 	C 	0.08450 0.06000 0.51420 -0.09300
H 	H 	0.14330 0.04900 0.51260 0.04900
H 	H 	0.05500 0.04220 0.47550 0.07600
C 	C 	0.07990 0.11610 0.50370 -0.07900
H 	H 	0.10530 0.12520 0.45810 0.05500
H 	H 	0.11170 0.13410 0.54090 0.06700
C 	C 	0.98990 0.13520 0.50500 -0.07300
H 	H 	0.95750 0.11760 0.46760 0.06200
H 	H 	0.98770 0.17350 0.49710 0.06700
C 	C 	0.86310 0.14130 0.58030 0.29600
C 	C 	0.92500 0.05020 0.66480 0.28400
C 	C 	0.65440 0.32350 0.70710 -0.10500
H 	H 	0.59490 0.32590 0.72140 0.08500
C 	C 	0.70850 0.33170 0.77120 -0.07900
H 	H 	0.76760 0.33000 0.75570 0.07000
C 	C 	0.69420 0.38470 0.80140 -0.07100
H 	H 	0.73130 0.38980 0.84210 0.05300
H 	H 	0.63630 0.38720 0.81800 0.06000
C 	C 	0.71010 0.42780 0.74840 -0.08800
H 	H 	0.69650 0.46220 0.76950 0.05200
H 	H 	0.76960 0.42800 0.73570 0.07800
C 	C 	0.65890 0.41990 0.68360 -0.09500
H 	H 	0.67500 0.44610 0.64780 0.05100
H 	H 	0.59960 0.42530 0.69480 0.07500
C 	C 	0.67150 0.36460 0.65460 -0.05600
H 	H 	0.63450 0.35950 0.61380 0.04800
H 	H 	0.72940 0.36100 0.63820 0.05500
C 	C 	0.66960 0.26960 0.67380 0.29400
C 	C 	0.69570 0.28890 0.82610 0.26100
C 	C 	0.66680 0.87870 0.79020 -0.09100
H 	H 	0.69410 0.87590 0.74340 0.06600
C 	C 	0.73450 0.88540 0.84660 -0.10500
H 	H 	0.70720 0.88960 0.89320 0.07800
C 	C 	0.78920 0.83830 0.84890 -0.05900
H 	H 	0.83130 0.84330 0.88600 0.05800
H 	H 	0.81870 0.83530 0.80370 0.05300
C 	C 	0.74270 0.78770 0.86270 -0.10100
H 	H 	0.71710 0.78900 0.90970 0.06900
H 	H 	0.78170 0.75780 0.86150 0.05300
C 	C 	0.67430 0.77990 0.80650 -0.07500
H 	H 	0.70050 0.77530 0.76010 0.04900
H 	H 	0.64250 0.74760 0.81720 0.03800
C 	C 	0.61600 0.82610 0.80420 -0.07900
H 	H 	0.58610 0.82890 0.84930 0.05400
H 	H 	0.57460 0.82090 0.76660 0.04600
C 	C 	0.60870 0.92440 0.78910 0.26600
C 	C 	0.78580 0.93320 0.83210 0.28800
C 	C 	0.42050 0.09340 0.97190 -0.08300
H 	H 	0.45670 0.08130 0.01130 0.05900
C 	C 	0.42130 0.15190 0.97190 -0.10600
H 	H 	0.38630 0.16300 0.93130 0.09100
C 	C 	0.38160 0.17550 0.03610 -0.04500
H 	H 	0.38070 0.21420 0.03120 0.04900
H 	H 	0.41560 0.16680 0.07760 0.03000
C 	C 	0.29370 0.15600 0.04760 -0.11300
H 	H 	0.25700 0.16930 0.01010 0.06800
H 	H 	0.27250 0.16900 0.09300 0.05200
C 	C 	0.29360 0.09570 0.04730 -0.06300
H 	H 	0.32300 0.08320 0.08960 0.04100
H 	H 	0.23550 0.08330 0.05020 0.03900
C 	C 	0.33240 0.07210 0.98550 -0.08700
H 	H 	0.29730 0.07900 0.94400 0.05700
H 	H 	0.33530 0.03360 0.99210 0.04900
C 	C 	0.45360 0.06960 0.90590 0.28300
C 	C 	0.50910 0.17480 0.95810 0.28800
C 	C 	0.95840 0.12710 0.97700 -0.08200
H 	H 	0.97610 0.16110 0.95580 0.07700
C 	C 	0.88640 0.13670 0.02510 -0.11200
H 	H 	0.87170 0.10300 0.04900 0.07100
C 	C 	0.91440 0.17850 0.08270 -0.05300
H 	H 	0.92850 0.21200 0.05940 0.05600
H 	H 	0.86780 0.18520 0.11510 0.03500
C 	C 	0.98790 0.15940 0.12330 -0.11300
H 	H 	0.97180 0.12880 0.15200 0.08300
H 	H 	0.00730 0.18750 0.15520 0.05700
C 	C 	0.06170 0.14310 0.07130 -0.07000
H 	H 	0.08240 0.17460 0.04660 0.05300
H 	H 	0.10820 0.12800 0.09860 0.04700
C 	C 	0.03160 0.10350 0.01870 -0.08400
H 	H 	0.01350 0.07120 0.04300 0.07100
H 	H 	0.07720 0.09410 0.98630 0.04800
C 	C 	0.93560 0.08800 0.91740 0.29000
C 	C 	0.81020 0.15810 0.98900 0.30000
O 	O 	0.80990 0.03660 0.13830 -0.15600
O 	O 	0.53920 0.77040 0.19440 -0.15000
O 	O 	0.67040 0.04880 0.92600 -0.04000
U 	U 	0.17039 0.28715 0.57596 0.00600
U 	U 	0.98894 0.48084 0.71963 0.00400
U 	U 	0.37514 0.47477 0.70688 0.00200
U 	U 	0.18866 0.31823 0.90642 0.00500
U 	U 	0.30098 0.67584 0.40244 -0.03100
U 	U 	0.49996 0.51312 0.21819 0.00400
U 	U 	0.11340 0.52270 0.19492 0.00300
U 	U 	0.32970 0.70919 0.07131 0.00600
Rb	Rb	0.16791 0.45227 0.57834 0.70700
Rb	Rb	0.34306 0.31866 0.73044 0.71900
Rb	Rb	0.01552 0.32776 0.75052 0.71400
Rb	Rb	0.35681 0.60305 0.87928 0.68200
Rb	Rb	0.29681 0.51453 0.33885 0.70300
Rb	Rb	0.15344 0.67711 0.21958 0.71000
Rb	Rb	0.47977 0.66831 0.24721 0.71400
Rb	Rb	0.21810 0.48234 0.98177 0.71400
O 	O 	0.16880 0.33120 0.64810 -0.16400
O 	O 	0.07860 0.44000 0.72680 -0.12800
O 	O 	0.28270 0.43740 0.70620 -0.12900
O 	O 	0.19560 0.35310 0.82650 -0.12700
O 	O 	0.41150 0.55460 0.22540 -0.14500
O 	O 	0.20510 0.56050 0.20090 -0.14000
O 	O 	0.33290 0.66380 0.13950 -0.13200
O 	O 	0.01890 0.27980 0.57990 -0.21200
O 	O 	0.06900 0.34580 0.52200 -0.23800
O 	O 	0.92590 0.40550 0.65400 -0.24700
O 	O 	0.99230 0.46590 0.59390 -0.26000
O 	O 	0.23740 0.35470 0.50330 -0.24800
O 	O 	0.32050 0.30670 0.56410 -0.22800
O 	O 	0.44640 0.39700 0.65620 -0.24400
O 	O 	0.38930 0.45180 0.58220 -0.21700
O 	O 	0.25910 0.22900 0.64680 -0.21700
O 	O 	0.12570 0.21860 0.65920 -0.20600
O 	O 	0.23610 0.24220 0.83930 -0.20900
O 	O 	0.10120 0.25200 0.84590 -0.22900
O 	O 	0.08160 0.54320 0.65490 -0.22300
O 	O 	0.06380 0.55590 0.76870 -0.18600
O 	O 	0.30790 0.53700 0.62880 -0.20700
O 	O 	0.29580 0.55430 0.74040 -0.23400
O 	O 	0.97950 0.48370 0.84970 -0.20100
O 	O 	0.91690 0.41800 0.79670 -0.24500
O 	O 	0.03930 0.34490 0.90780 -0.22300
O 	O 	0.12710 0.39250 0.96680 -0.24600
O 	O 	0.37330 0.48900 0.83660 -0.26000
O 	O 	0.42450 0.41470 0.79730 -0.23500
O 	O 	0.29370 0.38010 0.95360 -0.25000
O 	O 	0.33910 0.30800 0.90690 -0.20400
O 	O 	0.45050 0.64920 0.41060 -0.23900
O 	O 	0.35970 0.60050 0.46360 -0.21000
O 	O 	0.57300 0.57610 0.29620 -0.23600
O 	O 	0.49920 0.51370 0.34820 -0.23200
O 	O 	0.19370 0.61320 0.44240 -0.23500
O 	O 	0.15040 0.68520 0.39590 -0.22800
O 	O 	0.05610 0.58010 0.28530 -0.24000
O 	O 	0.11580 0.50970 0.32340 -0.25600
O 	O 	0.25910 0.75260 0.33250 -0.24300
O 	O 	0.38930 0.74210 0.34860 -0.23700
O 	O 	0.24410 0.76670 0.14390 -0.22000
O 	O 	0.37730 0.77470 0.15830 -0.20300
O 	O 	0.41550 0.44350 0.26990 -0.24200
O 	O 	0.41690 0.44580 0.15490 -0.19600
O 	O 	0.20130 0.44820 0.23200 -0.23100
O 	O 	0.18030 0.45880 0.11860 -0.24600
O 	O 	0.50050 0.52830 0.09110 -0.18800
O 	O 	0.56520 0.58750 0.15230 -0.23900
O 	O 	0.48000 0.71320 0.08060 -0.20700
O 	O 	0.43070 0.65330 0.00930 -0.24200
O 	O 	0.10400 0.54680 0.06880 -0.24500
O 	O 	0.04730 0.60030 0.14470 -0.24700
O 	O 	0.25970 0.64460 0.99370 -0.26800
O 	O 	0.18020 0.69240 0.06090 -0.21800
O 	O 	0.27830 0.50870 0.48500 -0.20500
O 	O 	0.39670 0.22800 0.81610 -0.14200
O 	O 	0.43600 0.23630 0.65120 -0.16900
O 	O 	0.96310 0.22720 0.70150 -0.20000
O 	O 	0.91750 0.26960 0.85990 -0.16700
O 	O 	0.19440 0.48380 0.84480 -0.09300
O 	O 	0.35090 0.54240 0.01830 -0.17100
C 	C 	0.91960 0.34000 0.53060 -0.08700
H 	H 	0.88310 0.32830 0.56990 0.07800
C 	C 	0.91910 0.40090 0.52740 -0.10300
H 	H 	0.95610 0.41290 0.48870 0.07000
C 	C 	0.82890 0.42010 0.51310 -0.06800
H 	H 	0.79250 0.40980 0.55240 0.05100
H 	H 	0.82820 0.45890 0.50960 0.04300
C 	C 	0.79560 0.39590 0.44380 -0.08900
H 	H 	0.73720 0.40680 0.43670 0.04500
H 	H 	0.82850 0.40930 0.40390 0.05300
C 	C 	0.80050 0.33560 0.44540 -0.08500
H 	H 	0.76110 0.32200 0.48060 0.05900
H 	H 	0.78400 0.32150 0.39910 0.04500
C 	C 	0.88800 0.31630 0.46310 -0.07400
H 	H 	0.88750 0.27760 0.46750 0.05900
H 	H 	0.92610 0.32570 0.42450 0.05600
C 	C 	0.00920 0.32040 0.54440 0.28700
C 	C 	0.94800 0.42490 0.59600 0.28700
C 	C 	0.38230 0.36460 0.48240 -0.10500
H 	H 	0.36520 0.39890 0.46160 0.07000
C 	C 	0.45580 0.37430 0.53340 -0.09000
H 	H 	0.47510 0.34000 0.55300 0.08000
C 	C 	0.52530 0.39950 0.49280 -0.07100
H 	H 	0.50520 0.43290 0.47260 0.06200
H 	H 	0.57130 0.40780 0.52530 0.04400
C 	C 	0.55750 0.36590 0.43550 -0.07700
H 	H 	0.58320 0.33390 0.45550 0.05300
H 	H 	0.60060 0.38510 0.40910 0.04700
C 	C 	0.48710 0.35030 0.38610 -0.09800
H 	H 	0.50800 0.32370 0.35270 0.05100
H 	H 	0.47010 0.38150 0.35870 0.07400
C 	C 	0.41120 0.32810 0.42360 -0.06500
H 	H 	0.42490 0.29330 0.44340 0.06200
H 	H 	0.36560 0.32340 0.38950 0.04900
C 	C 	0.30960 0.34100 0.51900 0.30000
C 	C 	0.42860 0.41060 0.59380 0.27600
C 	C 	0.21290 0.16580 0.73210 -0.09000
H 	H 	0.27090 0.17010 0.74960 0.08000
C 	C 	0.15540 0.17250 0.79260 -0.09900
H 	H 	0.09720 0.16880 0.77520 0.08400
C 	C 	0.17250 0.12800 0.84630 -0.05800
H 	H 	0.22940 0.13220 0.86500 0.05700
H 	H 	0.13340 0.13170 0.88600 0.04900
C 	C 	0.16400 0.07580 0.81680 -0.09100
H 	H 	0.10600 0.07020 0.80180 0.07800
H 	H 	0.17740 0.04930 0.85300 0.05200
C 	C 	0.22220 0.06850 0.75370 -0.09800
H 	H 	0.28060 0.07030 0.76940 0.08200
H 	H 	0.21270 0.03370 0.73220 0.05800
C 	C 	0.20530 0.11150 0.70020 -0.06400
H 	H 	0.24510 0.10820 0.66110 0.05200
H 	H 	0.14880 0.10700 0.68090 0.05600
C 	C 	0.19790 0.20670 0.67670 0.27200
C 	C 	0.16350 0.22470 0.82760 0.27400
C 	C 	0.15190 0.61830 0.71000 -0.07800
H 	H 	0.17580 0.62440 0.75760 0.05900
C 	C 	0.22290 0.61280 0.65790 -0.10300
H 	H 	0.20010 0.60830 0.60960 0.08500
C 	C 	0.27890 0.66100 0.66020 -0.05000
H 	H 	0.30340 0.66490 0.70750 0.02700
H 	H 	0.32450 0.65720 0.62600 0.05300
C 	C 	0.22720 0.70870 0.64260 -0.10700
H 	H 	0.20800 0.70590 0.59350 0.07100
H 	H 	0.26230 0.74040 0.64630 0.05200
C 	C 	0.15220 0.71500 0.69030 -0.06800
H 	H 	0.17100 0.72240 0.73860 0.04000
H 	H 	0.11820 0.74500 0.67420 0.04100
C 	C 	0.10050 0.66580 0.68970 -0.08600
H 	H 	0.07710 0.66040 0.64230 0.05800
H 	H 	0.05380 0.66970 0.72280 0.05100
C 	C 	0.09810 0.56960 0.71260 0.26700
C 	C 	0.27690 0.56470 0.67740 0.27600
C 	C 	0.91180 0.42130 0.92260 -0.10500
H 	H 	0.88850 0.38520 0.91630 0.08300
C 	C 	0.98350 0.41820 0.97260 -0.07900
H 	H 	0.00650 0.45440 0.97820 0.06600
C 	C 	0.95820 0.39880 0.04400 -0.09300
H 	H 	0.00710 0.39790 0.07520 0.06800
H 	H 	0.93580 0.36280 0.04020 0.06600
C 	C 	0.89010 0.43640 0.07580 -0.07600
H 	H 	0.87380 0.42380 0.12280 0.04900
H 	H 	0.91280 0.47230 0.08060 0.05800
C 	C 	0.81370 0.43720 0.02710 -0.10000
H 	H 	0.77070 0.46070 0.04650 0.04900
H 	H 	0.78990 0.40150 0.02320 0.05900
C 	C 	0.84220 0.45750 0.95190 -0.06400
H 	H 	0.79430 0.45750 0.91950 0.04300
H 	H 	0.86310 0.49400 0.95570 0.05100
C 	C 	0.93930 0.44140 0.85250 0.28500
C 	C 	0.05250 0.38320 0.94810 0.28400
C 	C 	0.44510 0.43150 0.91870 -0.10700
H 	H 	0.41110 0.44920 0.95550 0.07000
C 	C 	0.44220 0.37220 0.93140 -0.08800
H 	H 	0.47210 0.35440 0.89210 0.09000
C 	C 	0.48370 0.35560 0.00100 -0.08500
H 	H 	0.48190 0.31700 0.00610 0.06700
H 	H 	0.45400 0.37150 0.04100 0.06600
C 	C 	0.57590 0.37510 0.99960 -0.06800
H 	H 	0.60340 0.36580 0.04420 0.04900
H 	H 	0.60600 0.35730 0.96120 0.06400
C 	C 	0.58000 0.43290 0.98920 -0.10900
H 	H 	0.63890 0.44350 0.98670 0.05200
H 	H 	0.55530 0.45030 0.03050 0.08500
C 	C 	0.53570 0.45270 0.92350 -0.05000
H 	H 	0.56700 0.44140 0.88160 0.04500
H 	H 	0.53460 0.49150 0.92410 0.03600
C 	C 	0.41120 0.44700 0.84700 0.29700
C 	C 	0.35240 0.35300 0.93150 0.29200
C 	C 	0.50340 0.57370 0.47400 -0.06700
H 	H 	0.48000 0.53750 0.47820 0.07200
C 	C 	0.57470 0.57220 0.42260 -0.12400
H 	H 	0.59670 0.60860 0.41690 0.08700
C 	C 	0.64430 0.53730 0.45310 -0.04300
H 	H 	0.62420 0.50070 0.45640 0.04400
H 	H 	0.69230 0.53770 0.42090 0.03700
C 	C 	0.67170 0.55540 0.52410 -0.11000
H 	H 	0.69650 0.59080 0.52050 0.06300
H 	H 	0.71440 0.53120 0.54260 0.05200
C 	C 	0.59630 0.55700 0.57520 -0.06600
H 	H 	0.57410 0.52110 0.58170 0.05500
H 	H 	0.61470 0.57020 0.62150 0.04300
C 	C 	0.52980 0.59210 0.54670 -0.09300
H 	H 	0.55060 0.62850 0.54400 0.06600
H 	H 	0.48140 0.59160 0.57850 0.07100
C 	C 	0.43410 0.61070 0.44600 0.27400
C 	C 	0.54690 0.55350 0.35450 0.26800
C 	C 	0.04700 0.62140 0.42170 -0.09800
H 	H 	0.01400 0.63970 0.38460 0.09300
C 	C 	0.04270 0.56340 0.40970 -0.08700
H 	H 	0.07860 0.54540 0.44500 0.06300
C 	C 	0.95270 0.54260 0.41700 -0.07100
H 	H 	0.91860 0.55590 0.37780 0.05300
H 	H 	0.95290 0.50380 0.41460 0.04800
C 	C 	0.91550 0.56000 0.48580 -0.09300
H 	H 	0.85670 0.54900 0.48740 0.04800
H 	H 	0.94500 0.54220 0.52450 0.07500
C 	C 	0.92010 0.61610 0.49630 -0.07800
H 	H 	0.89470 0.62520 0.54190 0.05400
H 	H 	0.88830 0.63410 0.45910 0.06700
C 	C 	0.01010 0.63520 0.49500 -0.07500
H 	H 	0.04250 0.61760 0.53240 0.06200
H 	H 	0.01230 0.67350 0.50290 0.06700
C 	C 	0.13690 0.64130 0.41970 0.29600
C 	C 	0.07500 0.55020 0.33520 0.28500
C 	C 	0.34560 0.82350 0.29290 -0.10400
H 	H 	0.40510 0.82590 0.27860 0.08500
C 	C 	0.29150 0.83170 0.22880 -0.08000
H 	H 	0.23240 0.83000 0.24430 0.07000
C 	C 	0.30580 0.88470 0.19860 -0.07100
H 	H 	0.26870 0.88980 0.15790 0.05300
H 	H 	0.36370 0.88720 0.18200 0.06000
C 	C 	0.28990 0.92780 0.25160 -0.08800
H 	H 	0.30350 0.96220 0.23050 0.05000
H 	H 	0.23040 0.92800 0.26430 0.07800
C 	C 	0.34110 0.91990 0.31640 -0.09500
H 	H 	0.32500 0.94610 0.35220 0.05000
H 	H 	0.40040 0.92530 0.30520 0.07400
C 	C 	0.32850 0.86460 0.34540 -0.05700
H 	H 	0.36550 0.85950 0.38620 0.04800
H 	H 	0.27060 0.86100 0.36180 0.05500
C 	C 	0.33040 0.76960 0.32620 0.29400
C 	C 	0.30430 0.78890 0.17390 0.26100
C 	C 	0.33320 0.37870 0.20980 -0.09100
H 	H 	0.30590 0.37590 0.25660 0.06600
C 	C 	0.26550 0.38540 0.15340 -0.10400
H 	H 	0.29280 0.38960 0.10680 0.07900
C 	C 	0.21080 0.33830 0.15110 -0.05900
H 	H 	0.16870 0.34330 0.11400 0.05900
H 	H 	0.18130 0.33530 0.19630 0.05400
C 	C 	0.25730 0.28770 0.13730 -0.10100
H 	H 	0.28290 0.28900 0.09030 0.06900
H 	H 	0.21830 0.25780 0.13850 0.05300
C 	C 	0.32570 0.27990 0.19350 -0.07500
H 	H 	0.29950 0.27530 0.23990 0.04900
H 	H 	0.35750 0.24760 0.18280 0.03800
C 	C 	0.38400 0.32610 0.19580 -0.07900
H 	H 	0.41390 0.32890 0.15070 0.05400
H 	H 	0.42540 0.32090 0.23340 0.04600
C 	C 	0.39130 0.42440 0.21090 0.26600
C 	C 	0.21420 0.43320 0.16790 0.28800
C 	C 	0.57950 0.59340 0.02810 -0.08400
H 	H 	0.54330 0.58130 0.98870 0.05800
C 	C 	0.57870 0.65190 0.02810 -0.10500
H 	H 	0.61370 0.66300 0.06870 0.09100
C 	C 	0.61840 0.67550 0.96390 -0.04500
H 	H 	0.61930 0.71420 0.96880 0.04800
H 	H 	0.58440 0.66680 0.92240 0.03000
C 	C 	0.70630 0.65600 0.95240 -0.11300
H 	H 	0.74300 0.66930 0.98990 0.06800
H 	H 	0.72750 0.66900 0.90700 0.05200
C 	C 	0.70640 0.59570 0.95270 -0.06300
H 	H 	0.67700 0.58320 0.91040 0.03900
H 	H 	0.76450 0.58330 0.94980 0.03800
C 	C 	0.66760 0.57210 0.01450 -0.08600
H 	H 	0.70270 0.57900 0.05600 0.05600
H 	H 	0.66470 0.53360 0.00790 0.04600
C 	C 	0.54640 0.56960 0.09410 0.28300
C 	C 	0.49090 0.67480 0.04190 0.28800
C 	C 	0.04160 0.62710 0.02300 -0.08300
H 	H 	0.02390 0.66110 0.04420 0.07700
C 	C 	0.11360 0.63670 0.97490 -0.11300
H 	H 	0.12830 0.60300 0.95100 0.07100
C 	C 	0.08560 0.67850 0.91730 -0.05300
H 	H 	0.07150 0.71200 0.94060 0.05600
H 	H 	0.13220 0.68520 0.88490 0.03500
C 	C 	0.01210 0.65940 0.87670 -0.11300
H 	H 	0.02820 0.62880 0.84800 0.08200
H 	H 	0.99270 0.68750 0.84480 0.05700
C 	C 	0.93830 0.64310 0.92870 -0.07000
H 	H 	0.91760 0.67460 0.95340 0.05300
H 	H 	0.89180 0.62800 0.90140 0.04700
C 	C 	0.96840 0.60350 0.98130 -0.08300
H 	H 	0.98650 0.57120 0.95700 0.06900
H 	H 	0.92280 0.59410 0.01370 0.04700
C 	C 	0.06440 0.58800 0.08260 0.29000
C 	C 	0.18980 0.65810 0.01100 0.30000
O 	O 	0.19010 0.53660 0.86170 -0.16200
O 	O 	0.46080 0.27040 0.80560 -0.15000
O 	O 	0.32960 0.54880 0.07400 -0.04100
