data_crystal

_cell_length_a 15.11500
_cell_length_b 16.25600
_cell_length_c 27.42100
_cell_angle_alpha 90.00000
_cell_angle_beta  105.52100
_cell_angle_gamma 90.00000

_symmetry_space_group_name_	'P 1'
_symmetry_space_group_name_H-M	'P 1'

loop_
_symmetry_equiv_pos_as_xyz
  x,y,z

loop_
_atom_site_label
_atom_site_type_symbol
_atom_site_fract_x
_atom_site_fract_y
_atom_site_fract_z
_atom_site_charge
W 	W 	0.56240 0.22729 0.44887 0.96000
W 	W 	0.75113 0.28263 0.39117 0.98900
W 	W 	0.58493 0.23634 0.57315 0.95900
W 	W 	0.93225 0.36782 0.47550 1.29200
W 	W 	0.89549 0.16144 0.47599 0.93900
W 	W 	0.95731 0.37700 0.61041 0.92900
W 	W 	0.80011 0.30473 0.66585 0.98500
W 	W 	0.70440 0.09674 0.52677 0.95600
W 	W 	0.91777 0.17073 0.61414 0.94500
W 	W 	0.59538 0.44028 0.41621 1.34000
W 	W 	0.37359 0.54607 0.39828 1.35200
Ce	Ce	0.80257 0.56681 0.52513 2.04600
Ce	Ce	0.65082 0.72140 0.26537 1.92000
As	As	0.75656 0.32404 0.52625 0.38900
P 	P 	0.51410 0.56890 0.32260 0.43900
P 	P 	0.41210 0.41250 0.31638 0.43700
O 	O 	0.68490 0.38410 0.39290 -0.49100
O 	O 	0.91090 0.36390 0.67090 -0.46900
O 	O 	0.81770 0.28630 0.48280 -0.36700
O 	O 	0.50020 0.38060 0.35430 -0.40600
O 	O 	0.93360 0.16030 0.54790 -0.47400
O 	O 	0.35010 0.45870 0.34380 -0.42100
O 	O 	0.48700 0.49370 0.42450 -0.51300
O 	O 	0.61310 0.12620 0.56590 -0.46100
O 	O 	0.40340 0.64370 0.43350 -0.47300
O 	O 	0.85960 0.34420 0.40600 -0.49100
O 	O 	0.83430 0.29390 0.58510 -0.34100
O 	O 	0.87040 0.45420 0.48170 -0.60200
O 	O 	0.44200 0.60390 0.34830 -0.39700
O 	O 	0.86400 0.20550 0.66680 -0.48100
O 	O 	0.97320 0.24620 0.47090 -0.48800
O 	O 	0.78010 0.11160 0.48610 -0.45600
O 	O 	0.50980 0.24000 0.50430 -0.48000
O 	O 	0.68440 0.23600 0.52160 -0.33900
O 	O 	0.97890 0.34930 0.54620 -0.50400
O 	O 	0.57440 0.34870 0.45120 -0.47100
O 	O 	0.65410 0.23460 0.41240 -0.46300
O 	O 	0.59470 0.52350 0.36250 -0.43600
O 	O 	0.81670 0.18400 0.40890 -0.47200
O 	O 	0.99920 0.25640 0.62850 -0.48600
O 	O 	0.79730 0.11720 0.58340 -0.46300
O 	O 	0.35920 0.34690 0.28170 -0.63000
O 	O 	0.26610 0.59730 0.35670 -0.49000
O 	O 	0.67480 0.49250 0.46400 -0.61900
O 	O 	0.88480 0.46070 0.58540 -0.56300
O 	O 	0.69020 0.25010 0.62890 -0.45300
O 	O 	0.03120 0.40600 0.46150 -0.65400
O 	O 	0.31630 0.49660 0.43580 -0.62000
O 	O 	0.55340 0.63100 0.29360 -0.63100
O 	O 	0.59520 0.12140 0.46730 -0.46900
O 	O 	0.51620 0.45430 0.25590 -0.40000
H 	H 	0.49260 0.41610 0.23750 0.14600
C 	C 	0.44950 0.48990 0.27900 0.04900
C 	C 	0.37230 0.52610 0.24270 -0.40800
H 	H 	0.33040 0.54860 0.26000 0.12300
H 	H 	0.39350 0.56900 0.22460 0.10400
H 	H 	0.34150 0.48470 0.21930 0.08700
W 	W 	0.43760 0.72729 0.05113 0.95900
W 	W 	0.24887 0.78263 0.10883 0.98800
W 	W 	0.41507 0.73634 0.92685 0.95800
W 	W 	0.06775 0.86782 0.02450 1.29300
W 	W 	0.10451 0.66144 0.02401 0.93800
W 	W 	0.04269 0.87700 0.88959 0.92900
W 	W 	0.19989 0.80473 0.83415 0.98500
W 	W 	0.29560 0.59674 0.97323 0.95600
W 	W 	0.08223 0.67073 0.88586 0.94400
W 	W 	0.40462 0.94028 0.08379 1.34100
W 	W 	0.62641 0.04607 0.10172 1.35500
Ce	Ce	0.19743 0.06681 0.97487 2.04500
Ce	Ce	0.34918 0.22140 0.23463 1.91900
As	As	0.24344 0.82404 0.97375 0.39000
P 	P 	0.48590 0.06890 0.17740 0.44000
P 	P 	0.58790 0.91250 0.18362 0.43800
O 	O 	0.31510 0.88410 0.10710 -0.49100
O 	O 	0.08910 0.86390 0.82910 -0.46900
O 	O 	0.18230 0.78630 0.01720 -0.36700
O 	O 	0.49980 0.88060 0.14570 -0.40700
O 	O 	0.06640 0.66030 0.95210 -0.47400
O 	O 	0.64990 0.95870 0.15620 -0.42200
O 	O 	0.51300 0.99370 0.07550 -0.51300
O 	O 	0.38690 0.62620 0.93410 -0.46100
O 	O 	0.59660 0.14370 0.06650 -0.47300
O 	O 	0.14040 0.84420 0.09400 -0.49100
O 	O 	0.16570 0.79390 0.91490 -0.34100
O 	O 	0.12960 0.95420 0.01830 -0.60200
O 	O 	0.55800 0.10390 0.15170 -0.39700
O 	O 	0.13600 0.70550 0.83320 -0.48100
O 	O 	0.02680 0.74620 0.02910 -0.48800
O 	O 	0.21990 0.61160 0.01390 -0.45600
O 	O 	0.49020 0.74000 0.99570 -0.47900
O 	O 	0.31560 0.73600 0.97840 -0.33900
O 	O 	0.02110 0.84930 0.95380 -0.50300
O 	O 	0.42560 0.84870 0.04880 -0.47100
O 	O 	0.34590 0.73460 0.08760 -0.46300
O 	O 	0.40530 0.02350 0.13750 -0.43600
O 	O 	0.18330 0.68400 0.09110 -0.47200
O 	O 	0.00080 0.75640 0.87150 -0.48600
O 	O 	0.20270 0.61720 0.91660 -0.46300
O 	O 	0.64080 0.84690 0.21830 -0.63000
O 	O 	0.73390 0.09730 0.14330 -0.49000
O 	O 	0.32520 0.99250 0.03600 -0.61900
O 	O 	0.11520 0.96070 0.91460 -0.56200
O 	O 	0.30980 0.75010 0.87110 -0.45300
O 	O 	0.96880 0.90600 0.03850 -0.65600
O 	O 	0.68370 0.99660 0.06420 -0.62200
O 	O 	0.44660 0.13100 0.20640 -0.63100
O 	O 	0.40480 0.62140 0.03270 -0.46900
O 	O 	0.48380 0.95430 0.24410 -0.39900
H 	H 	0.50740 0.91610 0.26250 0.14600
C 	C 	0.55050 0.98990 0.22100 0.04500
C 	C 	0.62770 0.02610 0.25730 -0.39800
H 	H 	0.66960 0.04860 0.24000 0.12000
H 	H 	0.60650 0.06900 0.27540 0.10100
H 	H 	0.65850 0.98470 0.28070 0.08300
W 	W 	0.43760 0.77271 0.55113 0.95900
W 	W 	0.24887 0.71737 0.60883 0.98800
W 	W 	0.41507 0.76366 0.42685 0.95800
W 	W 	0.06775 0.63218 0.52450 1.29100
W 	W 	0.10451 0.83856 0.52401 0.93800
W 	W 	0.04269 0.62300 0.38959 0.92800
W 	W 	0.19989 0.69527 0.33415 0.98500
W 	W 	0.29560 0.90326 0.47323 0.95600
W 	W 	0.08223 0.82927 0.38586 0.94500
W 	W 	0.40462 0.55972 0.58379 1.34000
W 	W 	0.62641 0.45393 0.60172 1.35200
Ce	Ce	0.19743 0.43319 0.47487 2.04600
Ce	Ce	0.34918 0.27860 0.73463 1.92000
As	As	0.24344 0.67596 0.47375 0.38900
P 	P 	0.48590 0.43110 0.67740 0.43900
P 	P 	0.58790 0.58750 0.68362 0.43700
O 	O 	0.31510 0.61590 0.60710 -0.49100
O 	O 	0.08910 0.63610 0.32910 -0.46900
O 	O 	0.18230 0.71370 0.51720 -0.36700
O 	O 	0.49980 0.61940 0.64570 -0.40600
O 	O 	0.06640 0.83970 0.45210 -0.47400
O 	O 	0.64990 0.54130 0.65620 -0.42100
O 	O 	0.51300 0.50630 0.57550 -0.51300
O 	O 	0.38690 0.87380 0.43410 -0.46100
O 	O 	0.59660 0.35630 0.56650 -0.47300
O 	O 	0.14040 0.65580 0.59400 -0.49100
O 	O 	0.16570 0.70610 0.41490 -0.34100
O 	O 	0.12960 0.54580 0.51830 -0.60200
O 	O 	0.55800 0.39610 0.65170 -0.39700
O 	O 	0.13600 0.79450 0.33320 -0.48100
O 	O 	0.02680 0.75380 0.52910 -0.48800
O 	O 	0.21990 0.88840 0.51390 -0.45600
O 	O 	0.49020 0.76000 0.49570 -0.48000
O 	O 	0.31560 0.76400 0.47840 -0.33900
O 	O 	0.02110 0.65070 0.45380 -0.50400
O 	O 	0.42560 0.65130 0.54880 -0.47100
O 	O 	0.34590 0.76540 0.58760 -0.46300
O 	O 	0.40530 0.47650 0.63750 -0.43600
O 	O 	0.18330 0.81600 0.59110 -0.47200
O 	O 	0.00080 0.74360 0.37150 -0.48600
O 	O 	0.20270 0.88280 0.41660 -0.46300
O 	O 	0.64080 0.65310 0.71830 -0.63000
O 	O 	0.73390 0.40270 0.64330 -0.49000
O 	O 	0.32520 0.50750 0.53600 -0.61900
O 	O 	0.11520 0.53930 0.41460 -0.56300
O 	O 	0.30980 0.74990 0.37110 -0.45300
O 	O 	0.96880 0.59400 0.53850 -0.65400
O 	O 	0.68370 0.50340 0.56420 -0.62000
O 	O 	0.44660 0.36900 0.70640 -0.63100
O 	O 	0.40480 0.87860 0.53270 -0.46900
O 	O 	0.48380 0.54570 0.74410 -0.40000
H 	H 	0.50740 0.58390 0.76250 0.14600
C 	C 	0.55050 0.51010 0.72100 0.04900
C 	C 	0.62770 0.47390 0.75730 -0.40800
H 	H 	0.66960 0.45140 0.74000 0.12300
H 	H 	0.60650 0.43100 0.77540 0.10400
H 	H 	0.65850 0.51530 0.78070 0.08700
W 	W 	0.56240 0.27271 0.94887 0.95900
W 	W 	0.75113 0.21737 0.89117 0.98800
W 	W 	0.58493 0.26366 0.07315 0.95800
W 	W 	0.93225 0.13218 0.97550 1.29300
W 	W 	0.89549 0.33856 0.97599 0.93800
W 	W 	0.95731 0.12300 0.11041 0.92900
W 	W 	0.80011 0.19527 0.16585 0.98500
W 	W 	0.70440 0.40326 0.02677 0.95600
W 	W 	0.91777 0.32927 0.11414 0.94400
W 	W 	0.59538 0.05972 0.91621 1.34100
W 	W 	0.37359 0.95393 0.89828 1.35500
Ce	Ce	0.80257 0.93319 0.02513 2.04500
Ce	Ce	0.65082 0.77860 0.76537 1.91900
As	As	0.75656 0.17596 0.02625 0.39000
P 	P 	0.51410 0.93110 0.82260 0.44000
P 	P 	0.41210 0.08750 0.81638 0.43800
O 	O 	0.68490 0.11590 0.89290 -0.49100
O 	O 	0.91090 0.13610 0.17090 -0.46900
O 	O 	0.81770 0.21370 0.98280 -0.36700
O 	O 	0.50020 0.11940 0.85430 -0.40700
O 	O 	0.93360 0.33970 0.04790 -0.47400
O 	O 	0.35010 0.04130 0.84380 -0.42200
O 	O 	0.48700 0.00630 0.92450 -0.51300
O 	O 	0.61310 0.37380 0.06590 -0.46100
O 	O 	0.40340 0.85630 0.93350 -0.47300
O 	O 	0.85960 0.15580 0.90600 -0.49100
O 	O 	0.83430 0.20610 0.08510 -0.34100
O 	O 	0.87040 0.04580 0.98170 -0.60200
O 	O 	0.44200 0.89610 0.84830 -0.39700
O 	O 	0.86400 0.29450 0.16680 -0.48100
O 	O 	0.97320 0.25380 0.97090 -0.48800
O 	O 	0.78010 0.38840 0.98610 -0.45600
O 	O 	0.50980 0.26000 0.00430 -0.47900
O 	O 	0.68440 0.26400 0.02160 -0.33900
O 	O 	0.97890 0.15070 0.04620 -0.50300
O 	O 	0.57440 0.15130 0.95120 -0.47100
O 	O 	0.65410 0.26540 0.91240 -0.46300
O 	O 	0.59470 0.97650 0.86250 -0.43600
O 	O 	0.81670 0.31600 0.90890 -0.47200
O 	O 	0.99920 0.24360 0.12850 -0.48600
O 	O 	0.79730 0.38280 0.08340 -0.46300
O 	O 	0.35920 0.15310 0.78170 -0.63000
O 	O 	0.26610 0.90270 0.85670 -0.49000
O 	O 	0.67480 0.00750 0.96400 -0.61900
O 	O 	0.88480 0.03930 0.08540 -0.56200
O 	O 	0.69020 0.24990 0.12890 -0.45300
O 	O 	0.03120 0.09400 0.96150 -0.65600
O 	O 	0.31630 0.00340 0.93580 -0.62200
O 	O 	0.55340 0.86900 0.79360 -0.63100
O 	O 	0.59520 0.37860 0.96730 -0.46900
O 	O 	0.51620 0.04570 0.75590 -0.39900
H 	H 	0.49260 0.08390 0.73750 0.14600
C 	C 	0.44950 0.01010 0.77900 0.04500
C 	C 	0.37230 0.97390 0.74270 -0.39800
H 	H 	0.33040 0.95140 0.76000 0.12000
H 	H 	0.39350 0.93100 0.72460 0.10100
H 	H 	0.34150 0.01530 0.71930 0.08300
