data_crystal

_cell_length_a 27.06700
_cell_length_b 27.06700
_cell_length_c 63.53600
_cell_angle_alpha 90.00000
_cell_angle_beta  90.00000
_cell_angle_gamma 120.00000

_symmetry_space_group_name_	'P 1'
_symmetry_space_group_name_H-M	'P 1'

loop_
_symmetry_equiv_pos_as_xyz
  x,y,z

loop_
_atom_site_label
_atom_site_type_symbol
_atom_site_fract_x
_atom_site_fract_y
_atom_site_fract_z
_atom_site_charge
Cu	Cu	0.20649 0.83713 0.36729 0.80100
C 	C 	0.13440 0.77770 0.43020 -0.15500
H 	H 	0.10410 0.77130 0.42040 0.06600
H 	H 	0.12090 0.77710 0.44440 0.07300
C 	C 	0.14930 0.73090 0.42770 -0.00400
H 	H 	0.17070 0.73780 0.41480 0.01300
H 	H 	0.11400 0.69490 0.42610 0.01400
C 	C 	0.18070 0.72510 0.44410 -0.15700
H 	H 	0.18310 0.69110 0.44130 0.06300
H 	H 	0.21920 0.75740 0.44330 0.07500
C 	C 	0.07850 0.56500 0.58650 -0.35200
H 	H 	0.11900 0.59070 0.58670 0.12900
H 	H 	0.06870 0.53580 0.59690 0.12700
H 	H 	0.05910 0.58560 0.58950 0.13000
C 	C 	0.00850 0.50040 0.55910 0.09200
C 	C 	0.06560 0.39730 0.48630 0.09800
C 	C 	0.01600 0.28940 0.48060 -0.35400
H 	H 	0.04870 0.29660 0.47240 0.13200
H 	H 	0.01180 0.26460 0.49210 0.12900
H 	H 	0.98250 0.27150 0.47200 0.13100
C 	C 	0.09160 0.67350 0.34590 0.08500
C 	C 	0.17140 0.87410 0.40640 0.09000
C 	C 	0.26980 0.72090 0.49100 -0.35100
H 	H 	0.27030 0.75290 0.48430 0.12600
H 	H 	0.28010 0.72970 0.50550 0.12300
H 	H 	0.29660 0.71280 0.48420 0.13200
C 	C 	0.02310 0.62760 0.37650 -0.35300
H 	H 	0.02020 0.64110 0.39010 0.13200
H 	H 	0.02870 0.59540 0.37800 0.13000
H 	H 	0.98870 0.61640 0.36870 0.12800
C 	C 	0.01100 0.61900 0.31780 -0.01800
H 	H 	0.02290 0.63140 0.30350 0.01900
H 	H 	0.98260 0.57850 0.31660 0.02500
C 	C 	0.06540 0.47460 0.42250 0.12100
H 	H 	0.10070 0.48850 0.41460 -0.01000
H 	H 	0.03490 0.44610 0.41390 -0.01800
C 	C 	0.06960 0.44700 0.44170 -0.48600
H 	H 	0.04330 0.40680 0.43920 0.15900
H 	H 	0.05170 0.45850 0.45230 0.14100
C 	C 	0.10640 0.44770 0.45010 0.25500
H 	H 	0.12550 0.44100 0.43850 -0.03600
H 	H 	0.12980 0.48810 0.45310 -0.05900
C 	C 	0.97400 0.67150 0.30380 -0.04300
H 	H 	0.93520 0.64460 0.29950 0.03300
H 	H 	0.99770 0.66560 0.29390 0.02700
C 	C 	0.12430 0.91030 0.43090 -0.33700
H 	H 	0.13600 0.89400 0.44190 0.12300
H 	H 	0.14100 0.95060 0.43330 0.12200
H 	H 	0.08350 0.89280 0.43100 0.12300
C 	C 	0.97950 0.64290 0.32270 -0.17300
H 	H 	0.99790 0.67050 0.33390 0.08100
H 	H 	0.94200 0.61400 0.32750 0.06700
C 	C 	0.41060 0.89210 0.33600 -0.35100
H 	H 	0.43170 0.92120 0.34620 0.13500
H 	H 	0.41410 0.85920 0.33900 0.12500
H 	H 	0.42550 0.90620 0.32220 0.13300
C 	C 	0.16550 0.66580 0.48150 0.08900
N 	N 	0.09700 0.55020 0.54930 -0.07200
N 	N 	0.01260 0.48790 0.53920 -0.25000
N 	N 	0.06130 0.53830 0.56520 -0.06100
N 	N 	0.06900 0.51960 0.53400 -0.18500
N 	N 	0.00050 0.39530 0.50570 -0.18500
N 	N 	0.05220 0.43010 0.49710 -0.24900
N 	N 	0.98240 0.34320 0.50080 -0.07400
N 	N 	0.02380 0.34370 0.48890 -0.05900
N 	N 	0.12410 0.61200 0.48390 -0.24000
C 	C 	0.32290 0.89020 0.35100 0.08600
N 	N 	0.14810 0.58560 0.49400 -0.19300
N 	N 	0.20040 0.61980 0.49790 -0.07700
N 	N 	0.17880 0.87580 0.38580 -0.23500
N 	N 	0.26370 0.82740 0.32960 -0.18400
N 	N 	0.14450 0.75520 0.36100 -0.19000
N 	N 	0.13150 0.91960 0.39280 -0.07700
N 	N 	0.07150 0.67300 0.36520 -0.05500
N 	N 	0.13740 0.72520 0.34320 -0.24000
N 	N 	0.26810 0.86010 0.34650 -0.24000
N 	N 	0.10420 0.72250 0.37450 -0.07700
N 	N 	0.15350 0.90410 0.37780 -0.19600
N 	N 	0.31290 0.83610 0.32360 -0.08100
N 	N 	0.21190 0.67050 0.48950 -0.05900
N 	N 	0.14310 0.90050 0.41050 -0.05800
N 	N 	0.35100 0.87650 0.33680 -0.05500
S 	S 	0.12640 0.41800 0.47145 -0.17100
S 	S 	0.94720 0.46820 0.57357 -0.14800
S 	S 	0.15600 0.72030 0.47078 -0.06500
S 	S 	0.19720 0.84660 0.42492 -0.06700
S 	S 	0.06630 0.61800 0.32809 -0.12400
S 	S 	0.35300 0.93760 0.37141 -0.11000
Cu	Cu	0.95584 0.42295 0.52301 0.80200
Cu	Cu	0.18967 0.75694 0.31907 0.80000
Cu	Cu	0.10122 0.50942 0.50580 0.79900
Cu	Cu	0.87316 0.17046 0.70062 0.80200
C 	C 	0.80107 0.11103 0.76353 -0.15400
H 	H 	0.77077 0.10463 0.75373 0.06700
H 	H 	0.78757 0.11043 0.77773 0.07400
C 	C 	0.81597 0.06423 0.76103 -0.00200
H 	H 	0.83737 0.07113 0.74813 0.01400
H 	H 	0.78067 0.02823 0.75943 0.01500
C 	C 	0.84737 0.05843 0.77743 -0.15600
H 	H 	0.84977 0.02443 0.77463 0.06400
H 	H 	0.88587 0.09073 0.77663 0.07600
C 	C 	0.74517 0.89833 0.91983 -0.35100
H 	H 	0.78567 0.92403 0.92003 0.13000
H 	H 	0.73537 0.86913 0.93023 0.12800
H 	H 	0.72577 0.91893 0.92283 0.13100
C 	C 	0.67517 0.83373 0.89243 0.09300
C 	C 	0.73227 0.73063 0.81963 0.09900
C 	C 	0.68267 0.62273 0.81393 -0.35300
H 	H 	0.71537 0.62993 0.80573 0.13300
H 	H 	0.67847 0.59793 0.82543 0.13000
H 	H 	0.64917 0.60483 0.80533 0.13200
C 	C 	0.75827 0.00683 0.67923 0.08700
C 	C 	0.83807 0.20743 0.73973 0.09100
C 	C 	0.93647 0.05423 0.82433 -0.35000
H 	H 	0.93697 0.08623 0.81763 0.12700
H 	H 	0.94677 0.06303 0.83883 0.12400
H 	H 	0.96327 0.04613 0.81753 0.13300
C 	C 	0.68977 0.96093 0.70983 -0.35200
H 	H 	0.68687 0.97443 0.72343 0.13300
H 	H 	0.69537 0.92873 0.71133 0.13100
H 	H 	0.65537 0.94973 0.70203 0.12900
C 	C 	0.67767 0.95233 0.65113 -0.01700
H 	H 	0.68957 0.96473 0.63683 0.02000
H 	H 	0.64927 0.91183 0.64993 0.02600
C 	C 	0.73207 0.80793 0.75583 0.12200
H 	H 	0.76737 0.82183 0.74793 -0.00900
H 	H 	0.70157 0.77943 0.74723 -0.01600
C 	C 	0.73627 0.78033 0.77503 -0.48400
H 	H 	0.70997 0.74013 0.77253 0.16000
H 	H 	0.71837 0.79183 0.78563 0.14200
C 	C 	0.77307 0.78103 0.78343 0.25600
H 	H 	0.79217 0.77433 0.77183 -0.03500
H 	H 	0.79647 0.82143 0.78643 -0.05700
C 	C 	0.64067 0.00483 0.63713 -0.04100
H 	H 	0.60187 0.97793 0.63283 0.03400
H 	H 	0.66437 0.99893 0.62723 0.02700
C 	C 	0.79097 0.24363 0.76423 -0.33600
H 	H 	0.80267 0.22733 0.77523 0.12400
H 	H 	0.80767 0.28393 0.76663 0.12300
H 	H 	0.75017 0.22613 0.76433 0.12400
C 	C 	0.64617 0.97623 0.65603 -0.17200
H 	H 	0.66457 0.00383 0.66723 0.08200
H 	H 	0.60867 0.94733 0.66083 0.06800
C 	C 	0.07727 0.22543 0.66933 -0.35100
H 	H 	0.09837 0.25453 0.67953 0.13500
H 	H 	0.08077 0.19253 0.67233 0.12500
H 	H 	0.09217 0.23953 0.65553 0.13300
C 	C 	0.83217 0.99913 0.81483 0.08900
N 	N 	0.76367 0.88353 0.88263 -0.07200
N 	N 	0.67927 0.82123 0.87253 -0.25000
N 	N 	0.72797 0.87163 0.89853 -0.06100
N 	N 	0.73567 0.85293 0.86733 -0.18500
N 	N 	0.66717 0.72863 0.83903 -0.18500
N 	N 	0.71887 0.76343 0.83043 -0.24900
N 	N 	0.64907 0.67653 0.83413 -0.07400
N 	N 	0.69047 0.67703 0.82223 -0.05900
N 	N 	0.79077 0.94533 0.81723 -0.24000
C 	C 	0.98957 0.22353 0.68433 0.08600
N 	N 	0.81477 0.91893 0.82733 -0.19300
N 	N 	0.86707 0.95313 0.83123 -0.07700
N 	N 	0.84547 0.20913 0.71913 -0.23500
N 	N 	0.93037 0.16073 0.66293 -0.18400
N 	N 	0.81117 0.08853 0.69433 -0.19000
N 	N 	0.79817 0.25293 0.72613 -0.07700
N 	N 	0.73817 0.00633 0.69853 -0.05500
N 	N 	0.80407 0.05853 0.67653 -0.24000
N 	N 	0.93477 0.19343 0.67983 -0.24000
N 	N 	0.77087 0.05583 0.70783 -0.07700
N 	N 	0.82017 0.23743 0.71113 -0.19600
N 	N 	0.97957 0.16943 0.65693 -0.08100
N 	N 	0.87857 0.00383 0.82283 -0.05900
N 	N 	0.80977 0.23383 0.74383 -0.05800
N 	N 	0.01767 0.20983 0.67013 -0.05500
S 	S 	0.79307 0.75133 0.80478 -0.17100
S 	S 	0.61387 0.80153 0.90690 -0.14800
S 	S 	0.82267 0.05363 0.80411 -0.06500
S 	S 	0.86387 0.17993 0.75825 -0.06700
S 	S 	0.73297 0.95133 0.66142 -0.12500
S 	S 	0.01967 0.27093 0.70474 -0.11000
Cu	Cu	0.62251 0.75628 0.85634 0.80200
Cu	Cu	0.85634 0.09027 0.65240 0.80000
Cu	Cu	0.76789 0.84275 0.83913 0.79900
Cu	Cu	0.53982 0.50380 0.03396 0.80200
C 	C 	0.46773 0.44437 0.09687 -0.15400
H 	H 	0.43743 0.43797 0.08707 0.06700
H 	H 	0.45423 0.44377 0.11107 0.07400
C 	C 	0.48263 0.39757 0.09437 -0.00300
H 	H 	0.50403 0.40447 0.08147 0.01400
H 	H 	0.44733 0.36157 0.09277 0.01500
C 	C 	0.51403 0.39177 0.11077 -0.15600
H 	H 	0.51643 0.35777 0.10797 0.06400
H 	H 	0.55253 0.42407 0.10997 0.07600
C 	C 	0.41183 0.23167 0.25317 -0.35100
H 	H 	0.45233 0.25737 0.25337 0.13000
H 	H 	0.40203 0.20247 0.26357 0.12800
H 	H 	0.39243 0.25227 0.25617 0.13100
C 	C 	0.34183 0.16707 0.22577 0.09300
C 	C 	0.39893 0.06397 0.15297 0.09900
C 	C 	0.34933 0.95607 0.14727 -0.35300
H 	H 	0.38203 0.96327 0.13907 0.13300
H 	H 	0.34513 0.93127 0.15877 0.13000
H 	H 	0.31583 0.93817 0.13867 0.13200
C 	C 	0.42493 0.34017 0.01257 0.08600
C 	C 	0.50473 0.54077 0.07307 0.09100
C 	C 	0.60313 0.38757 0.15767 -0.35000
H 	H 	0.60363 0.41957 0.15097 0.12700
H 	H 	0.61343 0.39637 0.17217 0.12400
H 	H 	0.62993 0.37947 0.15087 0.13300
C 	C 	0.35643 0.29427 0.04317 -0.35200
H 	H 	0.35353 0.30777 0.05677 0.13300
H 	H 	0.36203 0.26207 0.04467 0.13100
H 	H 	0.32203 0.28307 0.03537 0.12900
C 	C 	0.34433 0.28567 0.98447 -0.01800
H 	H 	0.35623 0.29807 0.97017 0.02000
H 	H 	0.31593 0.24517 0.98327 0.02600
C 	C 	0.39873 0.14127 0.08917 0.12200
H 	H 	0.43403 0.15517 0.08127 -0.00900
H 	H 	0.36823 0.11277 0.08057 -0.01600
C 	C 	0.40293 0.11367 0.10837 -0.48400
H 	H 	0.37663 0.07347 0.10587 0.16000
H 	H 	0.38503 0.12517 0.11897 0.14200
C 	C 	0.43973 0.11437 0.11677 0.25600
H 	H 	0.45883 0.10767 0.10517 -0.03500
H 	H 	0.46313 0.15477 0.11977 -0.05800
C 	C 	0.30733 0.33817 0.97047 -0.04200
H 	H 	0.26853 0.31127 0.96617 0.03400
H 	H 	0.33103 0.33227 0.96057 0.02800
C 	C 	0.45763 0.57697 0.09757 -0.33600
H 	H 	0.46933 0.56067 0.10857 0.12400
H 	H 	0.47433 0.61727 0.09997 0.12300
H 	H 	0.41683 0.55947 0.09767 0.12400
C 	C 	0.31283 0.30957 0.98937 -0.17100
H 	H 	0.33123 0.33717 0.00057 0.08100
H 	H 	0.27533 0.28067 0.99417 0.06700
C 	C 	0.74393 0.55877 0.00267 -0.35100
H 	H 	0.76503 0.58787 0.01287 0.13500
H 	H 	0.74743 0.52587 0.00567 0.12500
H 	H 	0.75883 0.57287 0.98887 0.13300
C 	C 	0.49883 0.33247 0.14817 0.08900
N 	N 	0.43033 0.21687 0.21597 -0.07200
N 	N 	0.34593 0.15457 0.20587 -0.25000
N 	N 	0.39463 0.20497 0.23187 -0.06100
N 	N 	0.40233 0.18627 0.20067 -0.18500
N 	N 	0.33383 0.06197 0.17237 -0.18500
N 	N 	0.38553 0.09677 0.16377 -0.24900
N 	N 	0.31573 0.00987 0.16747 -0.07400
N 	N 	0.35713 0.01037 0.15557 -0.06000
N 	N 	0.45743 0.27867 0.15057 -0.24000
C 	C 	0.65623 0.55687 0.01767 0.08600
N 	N 	0.48143 0.25227 0.16067 -0.19300
N 	N 	0.53373 0.28647 0.16457 -0.07700
N 	N 	0.51213 0.54247 0.05247 -0.23500
N 	N 	0.59703 0.49407 0.99627 -0.18400
N 	N 	0.47783 0.42187 0.02767 -0.19000
N 	N 	0.46483 0.58627 0.05947 -0.07700
N 	N 	0.40483 0.33967 0.03187 -0.05500
N 	N 	0.47073 0.39187 0.00987 -0.24000
N 	N 	0.60143 0.52677 0.01317 -0.24000
N 	N 	0.43753 0.38917 0.04117 -0.07700
N 	N 	0.48683 0.57077 0.04447 -0.19500
N 	N 	0.64623 0.50277 0.99027 -0.08100
N 	N 	0.54523 0.33717 0.15617 -0.05900
N 	N 	0.47643 0.56717 0.07717 -0.05800
N 	N 	0.68433 0.54317 0.00347 -0.05500
S 	S 	0.45973 0.08467 0.13812 -0.17100
S 	S 	0.28053 0.13487 0.24024 -0.14800
S 	S 	0.48933 0.38697 0.13745 -0.06500
S 	S 	0.53053 0.51327 0.09159 -0.06700
S 	S 	0.39963 0.28467 0.99476 -0.12400
S 	S 	0.68633 0.60427 0.03808 -0.11000
Cu	Cu	0.28917 0.08962 0.18968 0.80200
Cu	Cu	0.52300 0.42361 0.98574 0.80000
Cu	Cu	0.43455 0.17609 0.17247 0.79900
Cu	Cu	0.79351 0.16287 0.63271 0.80200
C 	C 	0.86560 0.22230 0.56980 -0.15400
H 	H 	0.89590 0.22870 0.57960 0.06700
H 	H 	0.87910 0.22290 0.55560 0.07400
C 	C 	0.85070 0.26910 0.57230 -0.00300
H 	H 	0.82930 0.26220 0.58520 0.01400
H 	H 	0.88600 0.30510 0.57390 0.01500
C 	C 	0.81930 0.27490 0.55590 -0.15600
H 	H 	0.81690 0.30890 0.55870 0.06400
H 	H 	0.78080 0.24260 0.55670 0.07600
C 	C 	0.92150 0.43500 0.41350 -0.35100
H 	H 	0.88100 0.40930 0.41330 0.13000
H 	H 	0.93130 0.46420 0.40310 0.12800
H 	H 	0.94090 0.41440 0.41050 0.13100
C 	C 	0.99150 0.49960 0.44090 0.09300
C 	C 	0.93440 0.60270 0.51370 0.09900
C 	C 	0.98400 0.71060 0.51940 -0.35300
H 	H 	0.95130 0.70340 0.52760 0.13300
H 	H 	0.98820 0.73540 0.50790 0.13000
H 	H 	0.01750 0.72850 0.52800 0.13200
C 	C 	0.90840 0.32650 0.65410 0.08600
C 	C 	0.82860 0.12590 0.59360 0.09100
C 	C 	0.73020 0.27910 0.50900 -0.35000
H 	H 	0.72970 0.24710 0.51570 0.12700
H 	H 	0.71990 0.27030 0.49450 0.12400
H 	H 	0.70340 0.28720 0.51580 0.13300
C 	C 	0.97690 0.37240 0.62350 -0.35200
H 	H 	0.97980 0.35890 0.60990 0.13300
H 	H 	0.97130 0.40460 0.62200 0.13100
H 	H 	0.01130 0.38360 0.63130 0.12900
C 	C 	0.98900 0.38100 0.68220 -0.01700
H 	H 	0.97710 0.36860 0.69650 0.02000
H 	H 	0.01740 0.42150 0.68340 0.02600
C 	C 	0.93460 0.52540 0.57750 0.12200
H 	H 	0.89930 0.51150 0.58540 -0.00900
H 	H 	0.96510 0.55390 0.58610 -0.01700
C 	C 	0.93040 0.55300 0.55830 -0.48500
H 	H 	0.95670 0.59320 0.56080 0.16000
H 	H 	0.94830 0.54150 0.54770 0.14200
C 	C 	0.89360 0.55230 0.54990 0.25600
H 	H 	0.87450 0.55900 0.56150 -0.03500
H 	H 	0.87020 0.51190 0.54690 -0.05800
C 	C 	0.02600 0.32850 0.69620 -0.04200
H 	H 	0.06480 0.35540 0.70050 0.03400
H 	H 	0.00230 0.33440 0.70610 0.02800
C 	C 	0.87570 0.08970 0.56910 -0.33600
H 	H 	0.86400 0.10600 0.55810 0.12400
H 	H 	0.85900 0.04940 0.56670 0.12300
H 	H 	0.91650 0.10720 0.56900 0.12400
C 	C 	0.02050 0.35710 0.67730 -0.17200
H 	H 	0.00210 0.32950 0.66610 0.08200
H 	H 	0.05800 0.38600 0.67250 0.06800
C 	C 	0.58940 0.10790 0.66400 -0.35100
H 	H 	0.56830 0.07880 0.65380 0.13500
H 	H 	0.58590 0.14080 0.66100 0.12500
H 	H 	0.57450 0.09380 0.67780 0.13300
C 	C 	0.83450 0.33420 0.51850 0.08900
N 	N 	0.90300 0.44980 0.45070 -0.07200
N 	N 	0.98740 0.51210 0.46080 -0.25000
N 	N 	0.93870 0.46170 0.43480 -0.06100
N 	N 	0.93100 0.48040 0.46600 -0.18500
N 	N 	0.99950 0.60470 0.49430 -0.18500
N 	N 	0.94780 0.56990 0.50290 -0.24900
N 	N 	0.01760 0.65680 0.49920 -0.07400
N 	N 	0.97620 0.65630 0.51110 -0.05900
N 	N 	0.87590 0.38800 0.51610 -0.24000
C 	C 	0.67710 0.10980 0.64900 0.08600
N 	N 	0.85190 0.41440 0.50600 -0.19300
N 	N 	0.79960 0.38020 0.50210 -0.07700
N 	N 	0.82120 0.12420 0.61420 -0.23500
N 	N 	0.73630 0.17260 0.67040 -0.18400
N 	N 	0.85550 0.24480 0.63900 -0.19000
N 	N 	0.86850 0.08040 0.60720 -0.07700
N 	N 	0.92850 0.32700 0.63480 -0.05500
N 	N 	0.86260 0.27480 0.65680 -0.24000
N 	N 	0.73190 0.13990 0.65350 -0.24000
N 	N 	0.89580 0.27750 0.62550 -0.07700
N 	N 	0.84650 0.09590 0.62220 -0.19600
N 	N 	0.68710 0.16390 0.67640 -0.08100
N 	N 	0.78810 0.32950 0.51050 -0.05900
N 	N 	0.85690 0.09950 0.58950 -0.05800
N 	N 	0.64900 0.12350 0.66320 -0.05500
S 	S 	0.87360 0.58200 0.52855 -0.17100
S 	S 	0.05280 0.53180 0.42643 -0.14800
S 	S 	0.84400 0.27970 0.52922 -0.06500
S 	S 	0.80280 0.15340 0.57508 -0.06700
S 	S 	0.93370 0.38200 0.67191 -0.12400
S 	S 	0.64700 0.06240 0.62859 -0.11000
Cu	Cu	0.04416 0.57705 0.47699 0.80200
Cu	Cu	0.81033 0.24306 0.68093 0.80000
Cu	Cu	0.89878 0.49058 0.49420 0.79900
Cu	Cu	0.46018 0.49620 0.96604 0.80200
C 	C 	0.53227 0.55563 0.90313 -0.15400
H 	H 	0.56257 0.56203 0.91293 0.06700
H 	H 	0.54577 0.55623 0.88893 0.07400
C 	C 	0.51737 0.60243 0.90563 -0.00300
H 	H 	0.49597 0.59553 0.91853 0.01400
H 	H 	0.55267 0.63843 0.90723 0.01500
C 	C 	0.48597 0.60823 0.88923 -0.15600
H 	H 	0.48357 0.64223 0.89203 0.06400
H 	H 	0.44747 0.57593 0.89003 0.07600
C 	C 	0.58817 0.76833 0.74683 -0.35100
H 	H 	0.54767 0.74263 0.74663 0.13000
H 	H 	0.59797 0.79753 0.73643 0.12800
H 	H 	0.60757 0.74773 0.74383 0.13100
C 	C 	0.65817 0.83293 0.77423 0.09300
C 	C 	0.60107 0.93603 0.84703 0.09900
C 	C 	0.65067 0.04393 0.85273 -0.35300
H 	H 	0.61797 0.03673 0.86093 0.13300
H 	H 	0.65487 0.06873 0.84123 0.13000
H 	H 	0.68417 0.06183 0.86133 0.13200
C 	C 	0.57507 0.65983 0.98743 0.08600
C 	C 	0.49527 0.45923 0.92693 0.09100
C 	C 	0.39687 0.61243 0.84233 -0.35000
H 	H 	0.39637 0.58043 0.84903 0.12700
H 	H 	0.38657 0.60363 0.82783 0.12400
H 	H 	0.37007 0.62053 0.84913 0.13300
C 	C 	0.64357 0.70573 0.95683 -0.35200
H 	H 	0.64647 0.69223 0.94323 0.13300
H 	H 	0.63797 0.73793 0.95533 0.13100
H 	H 	0.67797 0.71693 0.96463 0.12900
C 	C 	0.65567 0.71433 0.01553 -0.01800
H 	H 	0.64377 0.70193 0.02983 0.02000
H 	H 	0.68407 0.75483 0.01673 0.02600
C 	C 	0.60127 0.85873 0.91083 0.12200
H 	H 	0.56597 0.84483 0.91873 -0.00900
H 	H 	0.63177 0.88723 0.91943 -0.01600
C 	C 	0.59707 0.88633 0.89163 -0.48400
H 	H 	0.62337 0.92653 0.89413 0.16000
H 	H 	0.61497 0.87483 0.88103 0.14200
C 	C 	0.56027 0.88563 0.88323 0.25600
H 	H 	0.54117 0.89233 0.89483 -0.03500
H 	H 	0.53687 0.84523 0.88023 -0.05800
C 	C 	0.69267 0.66183 0.02953 -0.04200
H 	H 	0.73147 0.68873 0.03383 0.03400
H 	H 	0.66897 0.66773 0.03943 0.02800
C 	C 	0.54237 0.42303 0.90243 -0.33600
H 	H 	0.53067 0.43933 0.89143 0.12400
H 	H 	0.52567 0.38273 0.90003 0.12300
H 	H 	0.58317 0.44053 0.90233 0.12400
C 	C 	0.68717 0.69043 0.01063 -0.17100
H 	H 	0.66877 0.66283 0.99943 0.08100
H 	H 	0.72467 0.71933 0.00583 0.06700
C 	C 	0.25607 0.44123 0.99733 -0.35100
H 	H 	0.23497 0.41213 0.98713 0.13500
H 	H 	0.25257 0.47413 0.99433 0.12500
H 	H 	0.24117 0.42713 0.01113 0.13300
C 	C 	0.50117 0.66753 0.85183 0.08900
N 	N 	0.56967 0.78313 0.78403 -0.07200
N 	N 	0.65407 0.84543 0.79413 -0.25000
N 	N 	0.60537 0.79503 0.76813 -0.06100
N 	N 	0.59767 0.81373 0.79933 -0.18500
N 	N 	0.66617 0.93803 0.82763 -0.18500
N 	N 	0.61447 0.90323 0.83623 -0.24900
N 	N 	0.68427 0.99013 0.83253 -0.07400
N 	N 	0.64287 0.98963 0.84443 -0.06000
N 	N 	0.54257 0.72133 0.84943 -0.24000
C 	C 	0.34377 0.44313 0.98233 0.08600
N 	N 	0.51857 0.74773 0.83933 -0.19300
N 	N 	0.46627 0.71353 0.83543 -0.07700
N 	N 	0.48787 0.45753 0.94753 -0.23500
N 	N 	0.40297 0.50593 0.00373 -0.18400
N 	N 	0.52217 0.57813 0.97233 -0.19000
N 	N 	0.53517 0.41373 0.94053 -0.07700
N 	N 	0.59517 0.66033 0.96813 -0.05500
N 	N 	0.52927 0.60813 0.99013 -0.24000
N 	N 	0.39857 0.47323 0.98683 -0.24000
N 	N 	0.56247 0.61083 0.95883 -0.07700
N 	N 	0.51317 0.42923 0.95553 -0.19500
N 	N 	0.35377 0.49723 0.00973 -0.08100
N 	N 	0.45477 0.66283 0.84383 -0.05900
N 	N 	0.52357 0.43283 0.92283 -0.05800
N 	N 	0.31567 0.45683 0.99653 -0.05500
S 	S 	0.54027 0.91533 0.86188 -0.17100
S 	S 	0.71947 0.86513 0.75976 -0.14800
S 	S 	0.51067 0.61303 0.86255 -0.06500
S 	S 	0.46947 0.48673 0.90841 -0.06700
S 	S 	0.60037 0.71533 0.00524 -0.12400
S 	S 	0.31367 0.39573 0.96192 -0.11000
Cu	Cu	0.71083 0.91038 0.81032 0.80200
Cu	Cu	0.47700 0.57639 0.01426 0.80000
Cu	Cu	0.56545 0.82391 0.82753 0.79900
Cu	Cu	0.12684 0.82954 0.29938 0.80200
C 	C 	0.19893 0.88897 0.23647 -0.15400
H 	H 	0.22923 0.89537 0.24627 0.06700
H 	H 	0.21243 0.88957 0.22227 0.07400
C 	C 	0.18403 0.93577 0.23897 -0.00200
H 	H 	0.16263 0.92887 0.25187 0.01400
H 	H 	0.21933 0.97177 0.24057 0.01500
C 	C 	0.15263 0.94157 0.22257 -0.15600
H 	H 	0.15023 0.97557 0.22537 0.06400
H 	H 	0.11413 0.90927 0.22337 0.07600
C 	C 	0.25483 0.10167 0.08017 -0.35100
H 	H 	0.21433 0.07597 0.07997 0.13000
H 	H 	0.26463 0.13087 0.06977 0.12800
H 	H 	0.27423 0.08107 0.07717 0.13100
C 	C 	0.32483 0.16627 0.10757 0.09300
C 	C 	0.26773 0.26937 0.18037 0.09900
C 	C 	0.31733 0.37727 0.18607 -0.35300
H 	H 	0.28463 0.37007 0.19427 0.13300
H 	H 	0.32153 0.40207 0.17457 0.13000
H 	H 	0.35083 0.39517 0.19467 0.13200
C 	C 	0.24173 0.99317 0.32077 0.08700
C 	C 	0.16193 0.79257 0.26027 0.09100
C 	C 	0.06353 0.94577 0.17567 -0.35000
H 	H 	0.06303 0.91377 0.18237 0.12700
H 	H 	0.05323 0.93697 0.16117 0.12400
H 	H 	0.03673 0.95387 0.18247 0.13300
C 	C 	0.31023 0.03907 0.29017 -0.35200
H 	H 	0.31313 0.02557 0.27657 0.13300
H 	H 	0.30463 0.07127 0.28867 0.13100
H 	H 	0.34463 0.05027 0.29797 0.12900
C 	C 	0.32233 0.04767 0.34887 -0.01700
H 	H 	0.31043 0.03527 0.36317 0.02000
H 	H 	0.35073 0.08817 0.35007 0.02600
C 	C 	0.26793 0.19207 0.24417 0.12200
H 	H 	0.23263 0.17817 0.25207 -0.00900
H 	H 	0.29843 0.22057 0.25277 -0.01600
C 	C 	0.26373 0.21967 0.22497 -0.48400
H 	H 	0.29003 0.25987 0.22747 0.16000
H 	H 	0.28163 0.20817 0.21437 0.14200
C 	C 	0.22693 0.21897 0.21657 0.25600
H 	H 	0.20783 0.22567 0.22817 -0.03500
H 	H 	0.20353 0.17857 0.21357 -0.05700
C 	C 	0.35933 0.99517 0.36287 -0.04100
H 	H 	0.39813 0.02207 0.36717 0.03400
H 	H 	0.33563 0.00107 0.37277 0.02700
C 	C 	0.20903 0.75637 0.23577 -0.33600
H 	H 	0.19733 0.77267 0.22477 0.12400
H 	H 	0.19233 0.71607 0.23337 0.12300
H 	H 	0.24983 0.77387 0.23567 0.12400
C 	C 	0.35383 0.02377 0.34397 -0.17200
H 	H 	0.33543 0.99617 0.33277 0.08200
H 	H 	0.39133 0.05267 0.33917 0.06800
C 	C 	0.92273 0.77457 0.33067 -0.35100
H 	H 	0.90163 0.74547 0.32047 0.13500
H 	H 	0.91923 0.80747 0.32767 0.12500
H 	H 	0.90783 0.76047 0.34447 0.13300
C 	C 	0.16783 0.00087 0.18517 0.08900
N 	N 	0.23633 0.11647 0.11737 -0.07200
N 	N 	0.32073 0.17877 0.12747 -0.25000
N 	N 	0.27203 0.12837 0.10147 -0.06100
N 	N 	0.26433 0.14707 0.13267 -0.18500
N 	N 	0.33283 0.27137 0.16097 -0.18500
N 	N 	0.28113 0.23657 0.16957 -0.24900
N 	N 	0.35093 0.32347 0.16587 -0.07400
N 	N 	0.30953 0.32297 0.17777 -0.05900
N 	N 	0.20923 0.05467 0.18277 -0.24000
C 	C 	0.01043 0.77647 0.31567 0.08600
N 	N 	0.18523 0.08107 0.17267 -0.19300
N 	N 	0.13293 0.04687 0.16877 -0.07700
N 	N 	0.15453 0.79087 0.28087 -0.23500
N 	N 	0.06963 0.83927 0.33707 -0.18400
N 	N 	0.18883 0.91147 0.30567 -0.19000
N 	N 	0.20183 0.74707 0.27387 -0.07700
N 	N 	0.26183 0.99367 0.30147 -0.05500
N 	N 	0.19593 0.94147 0.32347 -0.24000
N 	N 	0.06523 0.80657 0.32017 -0.24000
N 	N 	0.22913 0.94417 0.29217 -0.07700
N 	N 	0.17983 0.76257 0.28887 -0.19600
N 	N 	0.02043 0.83057 0.34307 -0.08100
N 	N 	0.12143 0.99617 0.17717 -0.05900
N 	N 	0.19023 0.76617 0.25617 -0.05800
N 	N 	0.98233 0.79017 0.32987 -0.05500
S 	S 	0.20693 0.24867 0.19522 -0.17100
S 	S 	0.38613 0.19847 0.09310 -0.14800
S 	S 	0.17733 0.94637 0.19589 -0.06500
S 	S 	0.13613 0.82007 0.24175 -0.06700
S 	S 	0.26703 0.04867 0.33858 -0.12500
S 	S 	0.98033 0.72907 0.29526 -0.11000
Cu	Cu	0.37749 0.24372 0.14366 0.80200
Cu	Cu	0.14366 0.90973 0.34760 0.80000
Cu	Cu	0.23211 0.15725 0.16087 0.79900
Cu	Cu	0.16287 0.36936 0.36729 0.80200
C 	C 	0.22230 0.35670 0.43020 -0.15400
H 	H 	0.22870 0.33280 0.42040 0.06700
H 	H 	0.22290 0.34380 0.44440 0.07400
C 	C 	0.26910 0.41840 0.42770 -0.00300
H 	H 	0.26220 0.43290 0.41480 0.01400
H 	H 	0.30510 0.41910 0.42610 0.01500
C 	C 	0.27490 0.45560 0.44410 -0.15600
H 	H 	0.30890 0.49200 0.44130 0.06400
H 	H 	0.24260 0.46180 0.44330 0.07600
C 	C 	0.43500 0.51350 0.58650 -0.35100
H 	H 	0.40930 0.52830 0.58670 0.13000
H 	H 	0.46420 0.53290 0.59690 0.12800
H 	H 	0.41440 0.47350 0.58950 0.13100
C 	C 	0.49960 0.50810 0.55910 0.09300
C 	C 	0.60270 0.66830 0.48630 0.09900
C 	C 	0.71060 0.72660 0.48060 -0.35300
H 	H 	0.70340 0.75210 0.47240 0.13300
H 	H 	0.73540 0.74720 0.49210 0.13000
H 	H 	0.72850 0.71100 0.47200 0.13200
C 	C 	0.32650 0.41810 0.34590 0.08600
C 	C 	0.12590 0.29730 0.40640 0.09100
C 	C 	0.27910 0.54890 0.49100 -0.35000
H 	H 	0.24710 0.51740 0.48430 0.12700
H 	H 	0.27030 0.55040 0.50550 0.12400
H 	H 	0.28720 0.58380 0.48420 0.13300
C 	C 	0.37240 0.39550 0.37650 -0.35200
H 	H 	0.35890 0.37910 0.39010 0.13300
H 	H 	0.40460 0.43330 0.37800 0.13100
H 	H 	0.38360 0.37230 0.36870 0.12900
C 	C 	0.38100 0.39200 0.31780 -0.01800
H 	H 	0.36860 0.39150 0.30350 0.02000
H 	H 	0.42150 0.40410 0.31660 0.02600
C 	C 	0.52540 0.59080 0.42250 0.12200
H 	H 	0.51150 0.61220 0.41460 -0.00900
H 	H 	0.55390 0.58880 0.41390 -0.01600
C 	C 	0.55300 0.62260 0.44170 -0.48400
H 	H 	0.59320 0.63650 0.43920 0.16000
H 	H 	0.54150 0.59320 0.45230 0.14200
C 	C 	0.55230 0.65870 0.45010 0.25600
H 	H 	0.55900 0.68450 0.43850 -0.03500
H 	H 	0.51190 0.64170 0.45310 -0.05800
C 	C 	0.32850 0.30250 0.30380 -0.04200
H 	H 	0.35540 0.29060 0.29950 0.03400
H 	H 	0.33440 0.33210 0.29390 0.02800
C 	C 	0.08970 0.21400 0.43090 -0.33600
H 	H 	0.10600 0.24200 0.44190 0.12400
H 	H 	0.04940 0.19040 0.43330 0.12300
H 	H 	0.10720 0.19070 0.43100 0.12400
C 	C 	0.35710 0.33660 0.32270 -0.17100
H 	H 	0.32950 0.32740 0.33390 0.08100
H 	H 	0.38600 0.32800 0.32750 0.06700
C 	C 	0.10790 0.51850 0.33600 -0.35100
H 	H 	0.07880 0.51050 0.34620 0.13500
H 	H 	0.14080 0.55490 0.33900 0.12500
H 	H 	0.09380 0.51930 0.32220 0.13300
C 	C 	0.33420 0.49970 0.48150 0.08900
N 	N 	0.44980 0.54680 0.54930 -0.07200
N 	N 	0.51210 0.52470 0.53920 -0.25000
N 	N 	0.46170 0.52300 0.56520 -0.06100
N 	N 	0.48040 0.54940 0.53400 -0.18500
N 	N 	0.60470 0.60520 0.50570 -0.18500
N 	N 	0.56990 0.62210 0.49710 -0.24900
N 	N 	0.65680 0.63920 0.50080 -0.07400
N 	N 	0.65630 0.68010 0.48890 -0.05900
N 	N 	0.38800 0.51210 0.48390 -0.24000
C 	C 	0.10980 0.43270 0.35100 0.08600
N 	N 	0.41440 0.56250 0.49400 -0.19300
N 	N 	0.38020 0.58060 0.49790 -0.07700
N 	N 	0.12420 0.30300 0.38580 -0.23500
N 	N 	0.17260 0.43630 0.32960 -0.18400
N 	N 	0.24480 0.38930 0.36100 -0.19000
N 	N 	0.08040 0.21190 0.39280 -0.07700
N 	N 	0.32700 0.39850 0.36520 -0.05500
N 	N 	0.27480 0.41220 0.34320 -0.24000
N 	N 	0.13990 0.40800 0.34650 -0.24000
N 	N 	0.27750 0.38170 0.37450 -0.07700
N 	N 	0.09590 0.24940 0.37780 -0.19600
N 	N 	0.16390 0.47680 0.32360 -0.08100
N 	N 	0.32950 0.54140 0.48950 -0.05900
N 	N 	0.09950 0.24260 0.41050 -0.05800
N 	N 	0.12350 0.47450 0.33680 -0.05500
S 	S 	0.58200 0.70840 0.47145 -0.17100
S 	S 	0.53180 0.47900 0.57357 -0.14800
S 	S 	0.27970 0.43570 0.47078 -0.06500
S 	S 	0.15340 0.35060 0.42492 -0.06700
S 	S 	0.38200 0.44830 0.32809 -0.12400
S 	S 	0.06240 0.41540 0.37141 -0.11000
Cu	Cu	0.57705 0.53289 0.52301 0.80200
Cu	Cu	0.24306 0.43273 0.31907 0.80000
Cu	Cu	0.49058 0.59180 0.50580 0.79900
Cu	Cu	0.82954 0.70269 0.70062 0.80200
C 	C 	0.88897 0.69003 0.76353 -0.15400
H 	H 	0.89537 0.66613 0.75373 0.06700
H 	H 	0.88957 0.67713 0.77773 0.07400
C 	C 	0.93577 0.75173 0.76103 -0.00300
H 	H 	0.92887 0.76623 0.74813 0.01400
H 	H 	0.97177 0.75243 0.75943 0.01500
C 	C 	0.94157 0.78893 0.77743 -0.15600
H 	H 	0.97557 0.82533 0.77463 0.06400
H 	H 	0.90927 0.79513 0.77663 0.07600
C 	C 	0.10167 0.84683 0.91983 -0.35100
H 	H 	0.07597 0.86163 0.92003 0.13000
H 	H 	0.13087 0.86623 0.93023 0.12800
H 	H 	0.08107 0.80683 0.92283 0.13100
C 	C 	0.16627 0.84143 0.89243 0.09300
C 	C 	0.26937 0.00163 0.81963 0.09900
C 	C 	0.37727 0.05993 0.81393 -0.35300
H 	H 	0.37007 0.08543 0.80573 0.13300
H 	H 	0.40207 0.08053 0.82543 0.13000
H 	H 	0.39517 0.04433 0.80533 0.13200
C 	C 	0.99317 0.75143 0.67923 0.08700
C 	C 	0.79257 0.63063 0.73973 0.09100
C 	C 	0.94577 0.88223 0.82433 -0.35000
H 	H 	0.91377 0.85073 0.81763 0.12700
H 	H 	0.93697 0.88373 0.83883 0.12400
H 	H 	0.95387 0.91713 0.81753 0.13300
C 	C 	0.03907 0.72883 0.70983 -0.35200
H 	H 	0.02557 0.71243 0.72343 0.13300
H 	H 	0.07127 0.76663 0.71133 0.13100
H 	H 	0.05027 0.70563 0.70203 0.12900
C 	C 	0.04767 0.72533 0.65113 -0.01600
H 	H 	0.03527 0.72483 0.63683 0.02000
H 	H 	0.08817 0.73743 0.64993 0.02600
C 	C 	0.19207 0.92413 0.75583 0.12600
H 	H 	0.17817 0.94553 0.74793 -0.01000
H 	H 	0.22057 0.92213 0.74723 -0.01800
C 	C 	0.21967 0.95593 0.77503 -0.49100
H 	H 	0.25987 0.96983 0.77253 0.16200
H 	H 	0.20817 0.92653 0.78563 0.14400
C 	C 	0.21897 0.99203 0.78343 0.26100
H 	H 	0.22567 0.01783 0.77183 -0.03600
H 	H 	0.17857 0.97503 0.78643 -0.05900
C 	C 	0.99517 0.63583 0.63713 -0.04000
H 	H 	0.02207 0.62393 0.63283 0.03400
H 	H 	0.00107 0.66543 0.62723 0.02700
C 	C 	0.75637 0.54733 0.76423 -0.33600
H 	H 	0.77267 0.57533 0.77523 0.12400
H 	H 	0.71607 0.52373 0.76663 0.12300
H 	H 	0.77387 0.52403 0.76433 0.12400
C 	C 	0.02377 0.66993 0.65603 -0.17300
H 	H 	0.99617 0.66073 0.66723 0.08200
H 	H 	0.05267 0.66133 0.66083 0.06800
C 	C 	0.77457 0.85183 0.66933 -0.35100
H 	H 	0.74547 0.84383 0.67953 0.13500
H 	H 	0.80747 0.88823 0.67233 0.12500
H 	H 	0.76047 0.85263 0.65553 0.13300
C 	C 	0.00087 0.83303 0.81483 0.08800
N 	N 	0.11647 0.88013 0.88263 -0.07200
N 	N 	0.17877 0.85803 0.87253 -0.25000
N 	N 	0.12837 0.85633 0.89853 -0.06100
N 	N 	0.14707 0.88273 0.86733 -0.18500
N 	N 	0.27137 0.93853 0.83903 -0.18500
N 	N 	0.23657 0.95543 0.83043 -0.24900
N 	N 	0.32347 0.97253 0.83413 -0.07400
N 	N 	0.32297 0.01343 0.82223 -0.05900
N 	N 	0.05467 0.84543 0.81723 -0.24000
C 	C 	0.77647 0.76603 0.68433 0.08600
N 	N 	0.08107 0.89583 0.82733 -0.19300
N 	N 	0.04687 0.91393 0.83123 -0.07700
N 	N 	0.79087 0.63633 0.71913 -0.23500
N 	N 	0.83927 0.76963 0.66293 -0.18400
N 	N 	0.91147 0.72263 0.69433 -0.19000
N 	N 	0.74707 0.54523 0.72613 -0.07700
N 	N 	0.99367 0.73183 0.69853 -0.05500
N 	N 	0.94147 0.74553 0.67653 -0.24000
N 	N 	0.80657 0.74133 0.67983 -0.24000
N 	N 	0.94417 0.71503 0.70783 -0.07700
N 	N 	0.76257 0.58273 0.71113 -0.19600
N 	N 	0.83057 0.81013 0.65693 -0.08100
N 	N 	0.99617 0.87473 0.82283 -0.05900
N 	N 	0.76617 0.57593 0.74383 -0.05800
N 	N 	0.79017 0.80783 0.67013 -0.05500
S 	S 	0.24867 0.04173 0.80478 -0.17200
S 	S 	0.19847 0.81233 0.90690 -0.14800
S 	S 	0.94637 0.76903 0.80411 -0.06500
S 	S 	0.82007 0.68393 0.75825 -0.06700
S 	S 	0.04867 0.78163 0.66142 -0.12500
S 	S 	0.72907 0.74873 0.70474 -0.11000
Cu	Cu	0.24372 0.86622 0.85634 0.80200
Cu	Cu	0.90973 0.76606 0.65240 0.80000
Cu	Cu	0.15725 0.92513 0.83913 0.79900
Cu	Cu	0.49620 0.03603 0.03396 0.80200
C 	C 	0.55563 0.02337 0.09687 -0.15400
H 	H 	0.56203 0.99947 0.08707 0.06700
H 	H 	0.55623 0.01047 0.11107 0.07400
C 	C 	0.60243 0.08507 0.09437 -0.00200
H 	H 	0.59553 0.09957 0.08147 0.01400
H 	H 	0.63843 0.08577 0.09277 0.01500
C 	C 	0.60823 0.12227 0.11077 -0.15600
H 	H 	0.64223 0.15867 0.10797 0.06400
H 	H 	0.57593 0.12847 0.10997 0.07600
C 	C 	0.76833 0.18017 0.25317 -0.35100
H 	H 	0.74263 0.19497 0.25337 0.13000
H 	H 	0.79753 0.19957 0.26357 0.12800
H 	H 	0.74773 0.14017 0.25617 0.13100
C 	C 	0.83293 0.17477 0.22577 0.09300
C 	C 	0.93603 0.33497 0.15297 0.09900
C 	C 	0.04393 0.39327 0.14727 -0.35300
H 	H 	0.03673 0.41877 0.13907 0.13300
H 	H 	0.06873 0.41387 0.15877 0.13000
H 	H 	0.06183 0.37767 0.13867 0.13200
C 	C 	0.65983 0.08477 0.01257 0.08600
C 	C 	0.45923 0.96397 0.07307 0.09100
C 	C 	0.61243 0.21557 0.15767 -0.35000
H 	H 	0.58043 0.18407 0.15097 0.12700
H 	H 	0.60363 0.21707 0.17217 0.12400
H 	H 	0.62053 0.25047 0.15087 0.13300
C 	C 	0.70573 0.06217 0.04317 -0.35200
H 	H 	0.69223 0.04577 0.05677 0.13300
H 	H 	0.73793 0.09997 0.04467 0.13100
H 	H 	0.71693 0.03897 0.03537 0.12900
C 	C 	0.71433 0.05867 0.98447 -0.01800
H 	H 	0.70193 0.05817 0.97017 0.02000
H 	H 	0.75483 0.07077 0.98327 0.02600
C 	C 	0.85873 0.25747 0.08917 0.12200
H 	H 	0.84483 0.27887 0.08127 -0.00900
H 	H 	0.88723 0.25547 0.08057 -0.01600
C 	C 	0.88633 0.28927 0.10837 -0.48400
H 	H 	0.92653 0.30317 0.10587 0.16000
H 	H 	0.87483 0.25987 0.11897 0.14200
C 	C 	0.88563 0.32537 0.11677 0.25600
H 	H 	0.89233 0.35117 0.10517 -0.03500
H 	H 	0.84523 0.30837 0.11977 -0.05800
C 	C 	0.66183 0.96917 0.97047 -0.04200
H 	H 	0.68873 0.95727 0.96617 0.03400
H 	H 	0.66773 0.99877 0.96057 0.02800
C 	C 	0.42303 0.88067 0.09757 -0.33600
H 	H 	0.43933 0.90867 0.10857 0.12400
H 	H 	0.38273 0.85707 0.09997 0.12300
H 	H 	0.44053 0.85737 0.09767 0.12400
C 	C 	0.69043 0.00327 0.98937 -0.17100
H 	H 	0.66283 0.99407 0.00057 0.08100
H 	H 	0.71933 0.99467 0.99417 0.06800
C 	C 	0.44123 0.18517 0.00267 -0.35100
H 	H 	0.41213 0.17717 0.01287 0.13500
H 	H 	0.47413 0.22157 0.00567 0.12500
H 	H 	0.42713 0.18597 0.98887 0.13300
C 	C 	0.66753 0.16637 0.14817 0.08900
N 	N 	0.78313 0.21347 0.21597 -0.07200
N 	N 	0.84543 0.19137 0.20587 -0.25000
N 	N 	0.79503 0.18967 0.23187 -0.06100
N 	N 	0.81373 0.21607 0.20067 -0.18500
N 	N 	0.93803 0.27187 0.17237 -0.18500
N 	N 	0.90323 0.28877 0.16377 -0.24900
N 	N 	0.99013 0.30587 0.16747 -0.07400
N 	N 	0.98963 0.34677 0.15557 -0.06000
N 	N 	0.72133 0.17877 0.15057 -0.24000
C 	C 	0.44313 0.09937 0.01767 0.08600
N 	N 	0.74773 0.22917 0.16067 -0.19300
N 	N 	0.71353 0.24727 0.16457 -0.07700
N 	N 	0.45753 0.96967 0.05247 -0.23500
N 	N 	0.50593 0.10297 0.99627 -0.18400
N 	N 	0.57813 0.05597 0.02767 -0.19000
N 	N 	0.41373 0.87857 0.05947 -0.07700
N 	N 	0.66033 0.06517 0.03187 -0.05500
N 	N 	0.60813 0.07887 0.00987 -0.24000
N 	N 	0.47323 0.07467 0.01317 -0.24000
N 	N 	0.61083 0.04837 0.04117 -0.07700
N 	N 	0.42923 0.91607 0.04447 -0.19500
N 	N 	0.49723 0.14347 0.99027 -0.08100
N 	N 	0.66283 0.20807 0.15617 -0.05900
N 	N 	0.43283 0.90927 0.07717 -0.05800
N 	N 	0.45683 0.14117 0.00347 -0.05500
S 	S 	0.91533 0.37507 0.13812 -0.17100
S 	S 	0.86513 0.14567 0.24024 -0.14900
S 	S 	0.61303 0.10237 0.13745 -0.06500
S 	S 	0.48673 0.01727 0.09159 -0.06700
S 	S 	0.71533 0.11497 0.99476 -0.12400
S 	S 	0.39573 0.08207 0.03808 -0.11000
Cu	Cu	0.91038 0.19956 0.18968 0.80200
Cu	Cu	0.57639 0.09940 0.98574 0.80000
Cu	Cu	0.82391 0.25847 0.17247 0.79900
Cu	Cu	0.83713 0.63064 0.63271 0.80200
C 	C 	0.77770 0.64330 0.56980 -0.15400
H 	H 	0.77130 0.66720 0.57960 0.06700
H 	H 	0.77710 0.65620 0.55560 0.07400
C 	C 	0.73090 0.58160 0.57230 -0.00300
H 	H 	0.73780 0.56710 0.58520 0.01400
H 	H 	0.69490 0.58090 0.57390 0.01500
C 	C 	0.72510 0.54440 0.55590 -0.15600
H 	H 	0.69110 0.50800 0.55870 0.06400
H 	H 	0.75740 0.53820 0.55670 0.07600
C 	C 	0.56500 0.48650 0.41350 -0.35100
H 	H 	0.59070 0.47170 0.41330 0.13000
H 	H 	0.53580 0.46710 0.40310 0.12800
H 	H 	0.58560 0.52650 0.41050 0.13100
C 	C 	0.50040 0.49190 0.44090 0.09300
C 	C 	0.39730 0.33170 0.51370 0.09900
C 	C 	0.28940 0.27340 0.51940 -0.35300
H 	H 	0.29660 0.24790 0.52760 0.13300
H 	H 	0.26460 0.25280 0.50790 0.13000
H 	H 	0.27150 0.28900 0.52800 0.13200
C 	C 	0.67350 0.58190 0.65410 0.08600
C 	C 	0.87410 0.70270 0.59360 0.09100
C 	C 	0.72090 0.45110 0.50900 -0.35000
H 	H 	0.75290 0.48260 0.51570 0.12700
H 	H 	0.72970 0.44960 0.49450 0.12400
H 	H 	0.71280 0.41620 0.51580 0.13300
C 	C 	0.62760 0.60450 0.62350 -0.35200
H 	H 	0.64110 0.62090 0.60990 0.13300
H 	H 	0.59540 0.56670 0.62200 0.13100
H 	H 	0.61640 0.62770 0.63130 0.12900
C 	C 	0.61900 0.60800 0.68220 -0.01800
H 	H 	0.63140 0.60850 0.69650 0.02000
H 	H 	0.57850 0.59590 0.68340 0.02600
C 	C 	0.47460 0.40920 0.57750 0.12200
H 	H 	0.48850 0.38780 0.58540 -0.00900
H 	H 	0.44610 0.41120 0.58610 -0.01600
C 	C 	0.44700 0.37740 0.55830 -0.48400
H 	H 	0.40680 0.36350 0.56080 0.16000
H 	H 	0.45850 0.40680 0.54770 0.14200
C 	C 	0.44770 0.34130 0.54990 0.25600
H 	H 	0.44100 0.31550 0.56150 -0.03500
H 	H 	0.48810 0.35830 0.54690 -0.05800
C 	C 	0.67150 0.69750 0.69620 -0.04200
H 	H 	0.64460 0.70940 0.70050 0.03400
H 	H 	0.66560 0.66790 0.70610 0.02800
C 	C 	0.91030 0.78600 0.56910 -0.33600
H 	H 	0.89400 0.75800 0.55810 0.12400
H 	H 	0.95060 0.80960 0.56670 0.12300
H 	H 	0.89280 0.80930 0.56900 0.12400
C 	C 	0.64290 0.66340 0.67730 -0.17100
H 	H 	0.67050 0.67260 0.66610 0.08100
H 	H 	0.61400 0.67200 0.67250 0.06700
C 	C 	0.89210 0.48150 0.66400 -0.35100
H 	H 	0.92120 0.48950 0.65380 0.13500
H 	H 	0.85920 0.44510 0.66100 0.12500
H 	H 	0.90620 0.48070 0.67780 0.13300
C 	C 	0.66580 0.50030 0.51850 0.08900
N 	N 	0.55020 0.45320 0.45070 -0.07200
N 	N 	0.48790 0.47530 0.46080 -0.25000
N 	N 	0.53830 0.47700 0.43480 -0.06100
N 	N 	0.51960 0.45060 0.46600 -0.18500
N 	N 	0.39530 0.39480 0.49430 -0.18500
N 	N 	0.43010 0.37790 0.50290 -0.24900
N 	N 	0.34320 0.36080 0.49920 -0.07400
N 	N 	0.34370 0.31990 0.51110 -0.05900
N 	N 	0.61200 0.48790 0.51610 -0.24000
C 	C 	0.89020 0.56730 0.64900 0.08600
N 	N 	0.58560 0.43750 0.50600 -0.19300
N 	N 	0.61980 0.41940 0.50210 -0.07700
N 	N 	0.87580 0.69700 0.61420 -0.23500
N 	N 	0.82740 0.56370 0.67040 -0.18400
N 	N 	0.75520 0.61070 0.63900 -0.19000
N 	N 	0.91960 0.78810 0.60720 -0.07700
N 	N 	0.67300 0.60150 0.63480 -0.05500
N 	N 	0.72520 0.58780 0.65680 -0.24000
N 	N 	0.86010 0.59200 0.65350 -0.24000
N 	N 	0.72250 0.61830 0.62550 -0.07700
N 	N 	0.90410 0.75060 0.62220 -0.19600
N 	N 	0.83610 0.52320 0.67640 -0.08100
N 	N 	0.67050 0.45860 0.51050 -0.05900
N 	N 	0.90050 0.75740 0.58950 -0.05800
N 	N 	0.87650 0.52550 0.66320 -0.05500
S 	S 	0.41800 0.29160 0.52855 -0.17100
S 	S 	0.46820 0.52100 0.42643 -0.14800
S 	S 	0.72030 0.56430 0.52922 -0.06500
S 	S 	0.84660 0.64940 0.57508 -0.06700
S 	S 	0.61800 0.55170 0.67191 -0.12400
S 	S 	0.93760 0.58460 0.62859 -0.11000
Cu	Cu	0.42295 0.46711 0.47699 0.80200
Cu	Cu	0.75694 0.56727 0.68093 0.80000
Cu	Cu	0.50942 0.40820 0.49420 0.79900
Cu	Cu	0.50380 0.96397 0.96604 0.80200
C 	C 	0.44437 0.97663 0.90313 -0.15400
H 	H 	0.43797 0.00053 0.91293 0.06700
H 	H 	0.44377 0.98953 0.88893 0.07400
C 	C 	0.39757 0.91493 0.90563 -0.00200
H 	H 	0.40447 0.90043 0.91853 0.01400
H 	H 	0.36157 0.91423 0.90723 0.01500
C 	C 	0.39177 0.87773 0.88923 -0.15600
H 	H 	0.35777 0.84133 0.89203 0.06400
H 	H 	0.42407 0.87153 0.89003 0.07600
C 	C 	0.23167 0.81983 0.74683 -0.35100
H 	H 	0.25737 0.80503 0.74663 0.13000
H 	H 	0.20247 0.80043 0.73643 0.12800
H 	H 	0.25227 0.85983 0.74383 0.13100
C 	C 	0.16707 0.82523 0.77423 0.09300
C 	C 	0.06397 0.66503 0.84703 0.09900
C 	C 	0.95607 0.60673 0.85273 -0.35300
H 	H 	0.96327 0.58123 0.86093 0.13300
H 	H 	0.93127 0.58613 0.84123 0.13000
H 	H 	0.93817 0.62233 0.86133 0.13200
C 	C 	0.34017 0.91523 0.98743 0.08600
C 	C 	0.54077 0.03603 0.92693 0.09100
C 	C 	0.38757 0.78443 0.84233 -0.35000
H 	H 	0.41957 0.81593 0.84903 0.12700
H 	H 	0.39637 0.78293 0.82783 0.12400
H 	H 	0.37947 0.74953 0.84913 0.13300
C 	C 	0.29427 0.93783 0.95683 -0.35200
H 	H 	0.30777 0.95423 0.94323 0.13300
H 	H 	0.26207 0.90003 0.95533 0.13100
H 	H 	0.28307 0.96103 0.96463 0.12900
C 	C 	0.28567 0.94133 0.01553 -0.01800
H 	H 	0.29807 0.94183 0.02983 0.02000
H 	H 	0.24517 0.92923 0.01673 0.02600
C 	C 	0.14127 0.74253 0.91083 0.12200
H 	H 	0.15517 0.72113 0.91873 -0.00900
H 	H 	0.11277 0.74453 0.91943 -0.01600
C 	C 	0.11367 0.71073 0.89163 -0.48400
H 	H 	0.07347 0.69683 0.89413 0.16000
H 	H 	0.12517 0.74013 0.88103 0.14200
C 	C 	0.11437 0.67463 0.88323 0.25600
H 	H 	0.10767 0.64883 0.89483 -0.03500
H 	H 	0.15477 0.69163 0.88023 -0.05800
C 	C 	0.33817 0.03083 0.02953 -0.04200
H 	H 	0.31127 0.04273 0.03383 0.03400
H 	H 	0.33227 0.00123 0.03943 0.02800
C 	C 	0.57697 0.11933 0.90243 -0.33600
H 	H 	0.56067 0.09133 0.89143 0.12400
H 	H 	0.61727 0.14293 0.90003 0.12300
H 	H 	0.55947 0.14263 0.90233 0.12400
C 	C 	0.30957 0.99673 0.01063 -0.17100
H 	H 	0.33717 0.00593 0.99943 0.08100
H 	H 	0.28067 0.00533 0.00583 0.06800
C 	C 	0.55877 0.81483 0.99733 -0.35100
H 	H 	0.58787 0.82283 0.98713 0.13500
H 	H 	0.52587 0.77843 0.99433 0.12500
H 	H 	0.57287 0.81403 0.01113 0.13300
C 	C 	0.33247 0.83363 0.85183 0.08900
N 	N 	0.21687 0.78653 0.78403 -0.07200
N 	N 	0.15457 0.80863 0.79413 -0.25000
N 	N 	0.20497 0.81033 0.76813 -0.06100
N 	N 	0.18627 0.78393 0.79933 -0.18500
N 	N 	0.06197 0.72813 0.82763 -0.18500
N 	N 	0.09677 0.71123 0.83623 -0.24900
N 	N 	0.00987 0.69413 0.83253 -0.07400
N 	N 	0.01037 0.65323 0.84443 -0.06000
N 	N 	0.27867 0.82123 0.84943 -0.24000
C 	C 	0.55687 0.90063 0.98233 0.08600
N 	N 	0.25227 0.77083 0.83933 -0.19300
N 	N 	0.28647 0.75273 0.83543 -0.07700
N 	N 	0.54247 0.03033 0.94753 -0.23500
N 	N 	0.49407 0.89703 0.00373 -0.18400
N 	N 	0.42187 0.94403 0.97233 -0.19000
N 	N 	0.58627 0.12143 0.94053 -0.07700
N 	N 	0.33967 0.93483 0.96813 -0.05500
N 	N 	0.39187 0.92113 0.99013 -0.24000
N 	N 	0.52677 0.92533 0.98683 -0.24000
N 	N 	0.38917 0.95163 0.95883 -0.07700
N 	N 	0.57077 0.08393 0.95553 -0.19500
N 	N 	0.50277 0.85653 0.00973 -0.08100
N 	N 	0.33717 0.79193 0.84383 -0.05900
N 	N 	0.56717 0.09073 0.92283 -0.05800
N 	N 	0.54317 0.85883 0.99653 -0.05500
S 	S 	0.08467 0.62493 0.86188 -0.17100
S 	S 	0.13487 0.85433 0.75976 -0.14900
S 	S 	0.38697 0.89763 0.86255 -0.06500
S 	S 	0.51327 0.98273 0.90841 -0.06700
S 	S 	0.28467 0.88503 0.00524 -0.12400
S 	S 	0.60427 0.91793 0.96192 -0.11000
Cu	Cu	0.08962 0.80044 0.81032 0.80200
Cu	Cu	0.42361 0.90060 0.01426 0.80000
Cu	Cu	0.17609 0.74153 0.82753 0.79900
Cu	Cu	0.17046 0.29731 0.29938 0.80200
C 	C 	0.11103 0.30997 0.23647 -0.15400
H 	H 	0.10463 0.33387 0.24627 0.06700
H 	H 	0.11043 0.32287 0.22227 0.07400
C 	C 	0.06423 0.24827 0.23897 -0.00300
H 	H 	0.07113 0.23377 0.25187 0.01400
H 	H 	0.02823 0.24757 0.24057 0.01500
C 	C 	0.05843 0.21107 0.22257 -0.15600
H 	H 	0.02443 0.17467 0.22537 0.06400
H 	H 	0.09073 0.20487 0.22337 0.07600
C 	C 	0.89833 0.15317 0.08017 -0.35100
H 	H 	0.92403 0.13837 0.07997 0.13000
H 	H 	0.86913 0.13377 0.06977 0.12800
H 	H 	0.91893 0.19317 0.07717 0.13100
C 	C 	0.83373 0.15857 0.10757 0.09300
C 	C 	0.73063 0.99837 0.18037 0.09900
C 	C 	0.62273 0.94007 0.18607 -0.35300
H 	H 	0.62993 0.91457 0.19427 0.13300
H 	H 	0.59793 0.91947 0.17457 0.13000
H 	H 	0.60483 0.95567 0.19467 0.13200
C 	C 	0.00683 0.24857 0.32077 0.08700
C 	C 	0.20743 0.36937 0.26027 0.09100
C 	C 	0.05423 0.11777 0.17567 -0.35000
H 	H 	0.08623 0.14927 0.18237 0.12700
H 	H 	0.06303 0.11627 0.16117 0.12400
H 	H 	0.04613 0.08287 0.18247 0.13300
C 	C 	0.96093 0.27117 0.29017 -0.35200
H 	H 	0.97443 0.28757 0.27657 0.13300
H 	H 	0.92873 0.23337 0.28867 0.13100
H 	H 	0.94973 0.29437 0.29797 0.12900
C 	C 	0.95233 0.27467 0.34887 -0.01600
H 	H 	0.96473 0.27517 0.36317 0.02000
H 	H 	0.91183 0.26257 0.35007 0.02600
C 	C 	0.80793 0.07587 0.24417 0.12600
H 	H 	0.82183 0.05447 0.25207 -0.01000
H 	H 	0.77943 0.07787 0.25277 -0.01800
C 	C 	0.78033 0.04407 0.22497 -0.49100
H 	H 	0.74013 0.03017 0.22747 0.16200
H 	H 	0.79183 0.07347 0.21437 0.14400
C 	C 	0.78103 0.00797 0.21657 0.26100
H 	H 	0.77433 0.98217 0.22817 -0.03600
H 	H 	0.82143 0.02497 0.21357 -0.05900
C 	C 	0.00483 0.36417 0.36287 -0.04000
H 	H 	0.97793 0.37607 0.36717 0.03400
H 	H 	0.99893 0.33457 0.37277 0.02700
C 	C 	0.24363 0.45267 0.23577 -0.33600
H 	H 	0.22733 0.42467 0.22477 0.12400
H 	H 	0.28393 0.47627 0.23337 0.12300
H 	H 	0.22613 0.47597 0.23567 0.12400
C 	C 	0.97623 0.33007 0.34397 -0.17300
H 	H 	0.00383 0.33927 0.33277 0.08200
H 	H 	0.94733 0.33867 0.33917 0.06800
C 	C 	0.22543 0.14817 0.33067 -0.35100
H 	H 	0.25453 0.15617 0.32047 0.13500
H 	H 	0.19253 0.11177 0.32767 0.12500
H 	H 	0.23953 0.14737 0.34447 0.13300
C 	C 	0.99913 0.16697 0.18517 0.08800
N 	N 	0.88353 0.11987 0.11737 -0.07200
N 	N 	0.82123 0.14197 0.12747 -0.25000
N 	N 	0.87163 0.14367 0.10147 -0.06100
N 	N 	0.85293 0.11727 0.13267 -0.18500
N 	N 	0.72863 0.06147 0.16097 -0.18500
N 	N 	0.76343 0.04457 0.16957 -0.24900
N 	N 	0.67653 0.02747 0.16587 -0.07400
N 	N 	0.67703 0.98657 0.17777 -0.05900
N 	N 	0.94533 0.15457 0.18277 -0.24000
C 	C 	0.22353 0.23397 0.31567 0.08600
N 	N 	0.91893 0.10417 0.17267 -0.19300
N 	N 	0.95313 0.08607 0.16877 -0.07700
N 	N 	0.20913 0.36367 0.28087 -0.23500
N 	N 	0.16073 0.23037 0.33707 -0.18400
N 	N 	0.08853 0.27737 0.30567 -0.19000
N 	N 	0.25293 0.45477 0.27387 -0.07700
N 	N 	0.00633 0.26817 0.30147 -0.05500
N 	N 	0.05853 0.25447 0.32347 -0.24000
N 	N 	0.19343 0.25867 0.32017 -0.24000
N 	N 	0.05583 0.28497 0.29217 -0.07700
N 	N 	0.23743 0.41727 0.28887 -0.19600
N 	N 	0.16943 0.18987 0.34307 -0.08100
N 	N 	0.00383 0.12527 0.17717 -0.05900
N 	N 	0.23383 0.42407 0.25617 -0.05800
N 	N 	0.20983 0.19217 0.32987 -0.05500
S 	S 	0.75133 0.95827 0.19522 -0.17200
S 	S 	0.80153 0.18767 0.09310 -0.14800
S 	S 	0.05363 0.23097 0.19589 -0.06500
S 	S 	0.17993 0.31607 0.24175 -0.06700
S 	S 	0.95133 0.21837 0.33858 -0.12500
S 	S 	0.27093 0.25127 0.29526 -0.11000
Cu	Cu	0.75628 0.13378 0.14366 0.80200
Cu	Cu	0.09027 0.23394 0.34760 0.80000
Cu	Cu	0.84275 0.07487 0.16087 0.79900
Cu	Cu	0.63064 0.79351 0.36729 0.80200
C 	C 	0.64330 0.86560 0.43020 -0.15400
H 	H 	0.66720 0.89590 0.42040 0.06700
H 	H 	0.65620 0.87910 0.44440 0.07400
C 	C 	0.58160 0.85070 0.42770 -0.00300
H 	H 	0.56710 0.82930 0.41480 0.01400
H 	H 	0.58090 0.88600 0.42610 0.01500
C 	C 	0.54440 0.81930 0.44410 -0.15600
H 	H 	0.50800 0.81690 0.44130 0.06400
H 	H 	0.53820 0.78080 0.44330 0.07600
C 	C 	0.48650 0.92150 0.58650 -0.35100
H 	H 	0.47170 0.88100 0.58670 0.13000
H 	H 	0.46710 0.93130 0.59690 0.12800
H 	H 	0.52650 0.94090 0.58950 0.13100
C 	C 	0.49190 0.99150 0.55910 0.09300
C 	C 	0.33170 0.93440 0.48630 0.09900
C 	C 	0.27340 0.98400 0.48060 -0.35300
H 	H 	0.24790 0.95130 0.47240 0.13300
H 	H 	0.25280 0.98820 0.49210 0.13000
H 	H 	0.28900 0.01750 0.47200 0.13200
C 	C 	0.58190 0.90840 0.34590 0.08700
C 	C 	0.70270 0.82860 0.40640 0.09100
C 	C 	0.45110 0.73020 0.49100 -0.35000
H 	H 	0.48260 0.72970 0.48430 0.12700
H 	H 	0.44960 0.71990 0.50550 0.12400
H 	H 	0.41620 0.70340 0.48420 0.13300
C 	C 	0.60450 0.97690 0.37650 -0.35200
H 	H 	0.62090 0.97980 0.39010 0.13300
H 	H 	0.56670 0.97130 0.37800 0.13100
H 	H 	0.62770 0.01130 0.36870 0.12800
C 	C 	0.60800 0.98900 0.31780 -0.01700
H 	H 	0.60850 0.97710 0.30350 0.02000
H 	H 	0.59590 0.01740 0.31660 0.02500
C 	C 	0.40920 0.93460 0.42250 0.12200
H 	H 	0.38780 0.89930 0.41460 -0.00900
H 	H 	0.41120 0.96510 0.41390 -0.01700
C 	C 	0.37740 0.93040 0.44170 -0.48500
H 	H 	0.36350 0.95670 0.43920 0.16000
H 	H 	0.40680 0.94830 0.45230 0.14200
C 	C 	0.34130 0.89360 0.45010 0.25600
H 	H 	0.31550 0.87450 0.43850 -0.03500
H 	H 	0.35830 0.87020 0.45310 -0.05800
C 	C 	0.69750 0.02600 0.30380 -0.04100
H 	H 	0.70940 0.06480 0.29950 0.03400
H 	H 	0.66790 0.00230 0.29390 0.02800
C 	C 	0.78600 0.87570 0.43090 -0.33600
H 	H 	0.75800 0.86400 0.44190 0.12400
H 	H 	0.80960 0.85900 0.43330 0.12300
H 	H 	0.80930 0.91650 0.43100 0.12400
C 	C 	0.66340 0.02050 0.32270 -0.17200
H 	H 	0.67260 0.00210 0.33390 0.08200
H 	H 	0.67200 0.05800 0.32750 0.06800
C 	C 	0.48150 0.58940 0.33600 -0.35100
H 	H 	0.48950 0.56830 0.34620 0.13500
H 	H 	0.44510 0.58590 0.33900 0.12500
H 	H 	0.48070 0.57450 0.32220 0.13300
C 	C 	0.50030 0.83450 0.48150 0.08900
N 	N 	0.45320 0.90300 0.54930 -0.07200
N 	N 	0.47530 0.98740 0.53920 -0.25000
N 	N 	0.47700 0.93870 0.56520 -0.06100
N 	N 	0.45060 0.93100 0.53400 -0.18500
N 	N 	0.39480 0.99950 0.50570 -0.18500
N 	N 	0.37790 0.94780 0.49710 -0.24900
N 	N 	0.36080 0.01760 0.50080 -0.07400
N 	N 	0.31990 0.97620 0.48890 -0.05900
N 	N 	0.48790 0.87590 0.48390 -0.24000
C 	C 	0.56730 0.67710 0.35100 0.08600
N 	N 	0.43750 0.85190 0.49400 -0.19300
N 	N 	0.41940 0.79960 0.49790 -0.07700
N 	N 	0.69700 0.82120 0.38580 -0.23500
N 	N 	0.56370 0.73630 0.32960 -0.18400
N 	N 	0.61070 0.85550 0.36100 -0.19000
N 	N 	0.78810 0.86850 0.39280 -0.07700
N 	N 	0.60150 0.92850 0.36520 -0.05500
N 	N 	0.58780 0.86260 0.34320 -0.24000
N 	N 	0.59200 0.73190 0.34650 -0.24000
N 	N 	0.61830 0.89580 0.37450 -0.07700
N 	N 	0.75060 0.84650 0.37780 -0.19600
N 	N 	0.52320 0.68710 0.32360 -0.08100
N 	N 	0.45860 0.78810 0.48950 -0.05900
N 	N 	0.75740 0.85690 0.41050 -0.05800
N 	N 	0.52550 0.64900 0.33680 -0.05500
S 	S 	0.29160 0.87360 0.47145 -0.17100
S 	S 	0.52100 0.05280 0.57357 -0.14800
S 	S 	0.56430 0.84400 0.47078 -0.06500
S 	S 	0.64940 0.80280 0.42492 -0.06700
S 	S 	0.55170 0.93370 0.32809 -0.12400
S 	S 	0.58460 0.64700 0.37141 -0.11000
Cu	Cu	0.46711 0.04416 0.52301 0.80200
Cu	Cu	0.56727 0.81033 0.31907 0.80000
Cu	Cu	0.40820 0.89878 0.50580 0.79900
Cu	Cu	0.29731 0.12684 0.70062 0.80200
C 	C 	0.30997 0.19893 0.76353 -0.15400
H 	H 	0.33387 0.22923 0.75373 0.06700
H 	H 	0.32287 0.21243 0.77773 0.07400
C 	C 	0.24827 0.18403 0.76103 -0.00200
H 	H 	0.23377 0.16263 0.74813 0.01400
H 	H 	0.24757 0.21933 0.75943 0.01500
C 	C 	0.21107 0.15263 0.77743 -0.15600
H 	H 	0.17467 0.15023 0.77463 0.06400
H 	H 	0.20487 0.11413 0.77663 0.07600
C 	C 	0.15317 0.25483 0.91983 -0.35100
H 	H 	0.13837 0.21433 0.92003 0.13000
H 	H 	0.13377 0.26463 0.93023 0.12800
H 	H 	0.19317 0.27423 0.92283 0.13100
C 	C 	0.15857 0.32483 0.89243 0.09300
C 	C 	0.99837 0.26773 0.81963 0.09900
C 	C 	0.94007 0.31733 0.81393 -0.35300
H 	H 	0.91457 0.28463 0.80573 0.13300
H 	H 	0.91947 0.32153 0.82543 0.13000
H 	H 	0.95567 0.35083 0.80533 0.13200
C 	C 	0.24857 0.24173 0.67923 0.08600
C 	C 	0.36937 0.16193 0.73973 0.09100
C 	C 	0.11777 0.06353 0.82433 -0.35000
H 	H 	0.14927 0.06303 0.81763 0.12700
H 	H 	0.11627 0.05323 0.83883 0.12400
H 	H 	0.08287 0.03673 0.81753 0.13300
C 	C 	0.27117 0.31023 0.70983 -0.35200
H 	H 	0.28757 0.31313 0.72343 0.13300
H 	H 	0.23337 0.30463 0.71133 0.13100
H 	H 	0.29437 0.34463 0.70203 0.12900
C 	C 	0.27467 0.32233 0.65113 -0.01800
H 	H 	0.27517 0.31043 0.63683 0.02000
H 	H 	0.26257 0.35073 0.64993 0.02600
C 	C 	0.07587 0.26793 0.75583 0.12400
H 	H 	0.05447 0.23263 0.74793 -0.01000
H 	H 	0.07787 0.29843 0.74723 -0.01700
C 	C 	0.04407 0.26373 0.77503 -0.48900
H 	H 	0.03017 0.29003 0.77253 0.16100
H 	H 	0.07347 0.28163 0.78563 0.14300
C 	C 	0.00797 0.22693 0.78343 0.26000
H 	H 	0.98217 0.20783 0.77183 -0.03600
H 	H 	0.02497 0.20353 0.78643 -0.05900
C 	C 	0.36417 0.35933 0.63713 -0.04200
H 	H 	0.37607 0.39813 0.63283 0.03400
H 	H 	0.33457 0.33563 0.62723 0.02800
C 	C 	0.45267 0.20903 0.76423 -0.33600
H 	H 	0.42467 0.19733 0.77523 0.12400
H 	H 	0.47627 0.19233 0.76663 0.12300
H 	H 	0.47597 0.24983 0.76433 0.12400
C 	C 	0.33007 0.35383 0.65603 -0.17100
H 	H 	0.33927 0.33543 0.66723 0.08100
H 	H 	0.33867 0.39133 0.66083 0.06700
C 	C 	0.14817 0.92273 0.66933 -0.35100
H 	H 	0.15617 0.90163 0.67953 0.13500
H 	H 	0.11177 0.91923 0.67233 0.12500
H 	H 	0.14737 0.90783 0.65553 0.13300
C 	C 	0.16697 0.16783 0.81483 0.08900
N 	N 	0.11987 0.23633 0.88263 -0.07200
N 	N 	0.14197 0.32073 0.87253 -0.25000
N 	N 	0.14367 0.27203 0.89853 -0.06100
N 	N 	0.11727 0.26433 0.86733 -0.18500
N 	N 	0.06147 0.33283 0.83903 -0.18500
N 	N 	0.04457 0.28113 0.83043 -0.24900
N 	N 	0.02747 0.35093 0.83413 -0.07400
N 	N 	0.98657 0.30953 0.82223 -0.05900
N 	N 	0.15457 0.20923 0.81723 -0.24000
C 	C 	0.23397 0.01043 0.68433 0.08600
N 	N 	0.10417 0.18523 0.82733 -0.19300
N 	N 	0.08607 0.13293 0.83123 -0.07700
N 	N 	0.36367 0.15453 0.71913 -0.23500
N 	N 	0.23037 0.06963 0.66293 -0.18400
N 	N 	0.27737 0.18883 0.69433 -0.19000
N 	N 	0.45477 0.20183 0.72613 -0.07700
N 	N 	0.26817 0.26183 0.69853 -0.05500
N 	N 	0.25447 0.19593 0.67653 -0.24000
N 	N 	0.25867 0.06523 0.67983 -0.24000
N 	N 	0.28497 0.22913 0.70783 -0.07700
N 	N 	0.41727 0.17983 0.71113 -0.19600
N 	N 	0.18987 0.02043 0.65693 -0.08100
N 	N 	0.12527 0.12143 0.82283 -0.05900
N 	N 	0.42407 0.19023 0.74383 -0.05800
N 	N 	0.19217 0.98233 0.67013 -0.05500
S 	S 	0.95827 0.20693 0.80478 -0.17200
S 	S 	0.18767 0.38613 0.90690 -0.14800
S 	S 	0.23097 0.17733 0.80411 -0.06500
S 	S 	0.31607 0.13613 0.75825 -0.06700
S 	S 	0.21837 0.26703 0.66142 -0.12400
S 	S 	0.25127 0.98033 0.70474 -0.11000
Cu	Cu	0.13378 0.37749 0.85634 0.80200
Cu	Cu	0.23394 0.14366 0.65240 0.80000
Cu	Cu	0.07487 0.23211 0.83913 0.79900
Cu	Cu	0.96397 0.46018 0.03396 0.80200
C 	C 	0.97663 0.53227 0.09687 -0.15400
H 	H 	0.00053 0.56257 0.08707 0.06700
H 	H 	0.98953 0.54577 0.11107 0.07400
C 	C 	0.91493 0.51737 0.09437 -0.00200
H 	H 	0.90043 0.49597 0.08147 0.01400
H 	H 	0.91423 0.55267 0.09277 0.01500
C 	C 	0.87773 0.48597 0.11077 -0.15600
H 	H 	0.84133 0.48357 0.10797 0.06400
H 	H 	0.87153 0.44747 0.10997 0.07600
C 	C 	0.81983 0.58817 0.25317 -0.35100
H 	H 	0.80503 0.54767 0.25337 0.13000
H 	H 	0.80043 0.59797 0.26357 0.12800
H 	H 	0.85983 0.60757 0.25617 0.13100
C 	C 	0.82523 0.65817 0.22577 0.09300
C 	C 	0.66503 0.60107 0.15297 0.09900
C 	C 	0.60673 0.65067 0.14727 -0.35300
H 	H 	0.58123 0.61797 0.13907 0.13300
H 	H 	0.58613 0.65487 0.15877 0.13000
H 	H 	0.62233 0.68417 0.13867 0.13200
C 	C 	0.91523 0.57507 0.01257 0.08600
C 	C 	0.03603 0.49527 0.07307 0.09100
C 	C 	0.78443 0.39687 0.15767 -0.35000
H 	H 	0.81593 0.39637 0.15097 0.12700
H 	H 	0.78293 0.38657 0.17217 0.12400
H 	H 	0.74953 0.37007 0.15087 0.13300
C 	C 	0.93783 0.64357 0.04317 -0.35200
H 	H 	0.95423 0.64647 0.05677 0.13300
H 	H 	0.90003 0.63797 0.04467 0.13100
H 	H 	0.96103 0.67797 0.03537 0.12900
C 	C 	0.94133 0.65567 0.98447 -0.01800
H 	H 	0.94183 0.64377 0.97017 0.02000
H 	H 	0.92923 0.68407 0.98327 0.02600
C 	C 	0.74253 0.60127 0.08917 0.12200
H 	H 	0.72113 0.56597 0.08127 -0.00900
H 	H 	0.74453 0.63177 0.08057 -0.01600
C 	C 	0.71073 0.59707 0.10837 -0.48400
H 	H 	0.69683 0.62337 0.10587 0.16000
H 	H 	0.74013 0.61497 0.11897 0.14200
C 	C 	0.67463 0.56027 0.11677 0.25600
H 	H 	0.64883 0.54117 0.10517 -0.03500
H 	H 	0.69163 0.53687 0.11977 -0.05700
C 	C 	0.03083 0.69267 0.97047 -0.04200
H 	H 	0.04273 0.73147 0.96617 0.03400
H 	H 	0.00123 0.66897 0.96057 0.02800
C 	C 	0.11933 0.54237 0.09757 -0.33600
H 	H 	0.09133 0.53067 0.10857 0.12400
H 	H 	0.14293 0.52567 0.09997 0.12300
H 	H 	0.14263 0.58317 0.09767 0.12400
C 	C 	0.99673 0.68717 0.98937 -0.17100
H 	H 	0.00593 0.66877 0.00057 0.08100
H 	H 	0.00533 0.72467 0.99417 0.06700
C 	C 	0.81483 0.25607 0.00267 -0.35100
H 	H 	0.82283 0.23497 0.01287 0.13500
H 	H 	0.77843 0.25257 0.00567 0.12500
H 	H 	0.81403 0.24117 0.98887 0.13300
C 	C 	0.83363 0.50117 0.14817 0.08900
N 	N 	0.78653 0.56967 0.21597 -0.07200
N 	N 	0.80863 0.65407 0.20587 -0.25000
N 	N 	0.81033 0.60537 0.23187 -0.06100
N 	N 	0.78393 0.59767 0.20067 -0.18500
N 	N 	0.72813 0.66617 0.17237 -0.18500
N 	N 	0.71123 0.61447 0.16377 -0.24900
N 	N 	0.69413 0.68427 0.16747 -0.07400
N 	N 	0.65323 0.64287 0.15557 -0.05900
N 	N 	0.82123 0.54257 0.15057 -0.24000
C 	C 	0.90063 0.34377 0.01767 0.08600
N 	N 	0.77083 0.51857 0.16067 -0.19300
N 	N 	0.75273 0.46627 0.16457 -0.07700
N 	N 	0.03033 0.48787 0.05247 -0.23500
N 	N 	0.89703 0.40297 0.99627 -0.18400
N 	N 	0.94403 0.52217 0.02767 -0.19000
N 	N 	0.12143 0.53517 0.05947 -0.07700
N 	N 	0.93483 0.59517 0.03187 -0.05500
N 	N 	0.92113 0.52927 0.00987 -0.24000
N 	N 	0.92533 0.39857 0.01317 -0.24000
N 	N 	0.95163 0.56247 0.04117 -0.07700
N 	N 	0.08393 0.51317 0.04447 -0.19500
N 	N 	0.85653 0.35377 0.99027 -0.08100
N 	N 	0.79193 0.45477 0.15617 -0.05900
N 	N 	0.09073 0.52357 0.07717 -0.05800
N 	N 	0.85883 0.31567 0.00347 -0.05500
S 	S 	0.62493 0.54027 0.13812 -0.17100
S 	S 	0.85433 0.71947 0.24024 -0.14900
S 	S 	0.89763 0.51067 0.13745 -0.06500
S 	S 	0.98273 0.46947 0.09159 -0.06700
S 	S 	0.88503 0.60037 0.99476 -0.12400
S 	S 	0.91793 0.31367 0.03808 -0.11000
Cu	Cu	0.80044 0.71083 0.18968 0.80200
Cu	Cu	0.90060 0.47700 0.98574 0.80000
Cu	Cu	0.74153 0.56545 0.17247 0.79900
Cu	Cu	0.36936 0.20649 0.63271 0.80200
C 	C 	0.35670 0.13440 0.56980 -0.15400
H 	H 	0.33280 0.10410 0.57960 0.06700
H 	H 	0.34380 0.12090 0.55560 0.07400
C 	C 	0.41840 0.14930 0.57230 -0.00300
H 	H 	0.43290 0.17070 0.58520 0.01400
H 	H 	0.41910 0.11400 0.57390 0.01500
C 	C 	0.45560 0.18070 0.55590 -0.15600
H 	H 	0.49200 0.18310 0.55870 0.06400
H 	H 	0.46180 0.21920 0.55670 0.07600
C 	C 	0.51350 0.07850 0.41350 -0.35100
H 	H 	0.52830 0.11900 0.41330 0.13000
H 	H 	0.53290 0.06870 0.40310 0.12800
H 	H 	0.47350 0.05910 0.41050 0.13100
C 	C 	0.50810 0.00850 0.44090 0.09300
C 	C 	0.66830 0.06560 0.51370 0.09900
C 	C 	0.72660 0.01600 0.51940 -0.35300
H 	H 	0.75210 0.04870 0.52760 0.13300
H 	H 	0.74720 0.01180 0.50790 0.13000
H 	H 	0.71100 0.98250 0.52800 0.13200
C 	C 	0.41810 0.09160 0.65410 0.08700
C 	C 	0.29730 0.17140 0.59360 0.09100
C 	C 	0.54890 0.26980 0.50900 -0.35000
H 	H 	0.51740 0.27030 0.51570 0.12700
H 	H 	0.55040 0.28010 0.49450 0.12400
H 	H 	0.58380 0.29660 0.51580 0.13300
C 	C 	0.39550 0.02310 0.62350 -0.35200
H 	H 	0.37910 0.02020 0.60990 0.13300
H 	H 	0.43330 0.02870 0.62200 0.13100
H 	H 	0.37230 0.98870 0.63130 0.12800
C 	C 	0.39200 0.01100 0.68220 -0.01700
H 	H 	0.39150 0.02290 0.69650 0.02000
H 	H 	0.40410 0.98260 0.68340 0.02500
C 	C 	0.59080 0.06540 0.57750 0.12200
H 	H 	0.61220 0.10070 0.58540 -0.00900
H 	H 	0.58880 0.03490 0.58610 -0.01700
C 	C 	0.62260 0.06960 0.55830 -0.48500
H 	H 	0.63650 0.04330 0.56080 0.16000
H 	H 	0.59320 0.05170 0.54770 0.14200
C 	C 	0.65870 0.10640 0.54990 0.25600
H 	H 	0.68450 0.12550 0.56150 -0.03500
H 	H 	0.64170 0.12980 0.54690 -0.05800
C 	C 	0.30250 0.97400 0.69620 -0.04100
H 	H 	0.29060 0.93520 0.70050 0.03400
H 	H 	0.33210 0.99770 0.70610 0.02800
C 	C 	0.21400 0.12430 0.56910 -0.33600
H 	H 	0.24200 0.13600 0.55810 0.12400
H 	H 	0.19040 0.14100 0.56670 0.12300
H 	H 	0.19070 0.08350 0.56900 0.12400
C 	C 	0.33660 0.97950 0.67730 -0.17200
H 	H 	0.32740 0.99790 0.66610 0.08200
H 	H 	0.32800 0.94200 0.67250 0.06800
C 	C 	0.51850 0.41060 0.66400 -0.35100
H 	H 	0.51050 0.43170 0.65380 0.13500
H 	H 	0.55490 0.41410 0.66100 0.12500
H 	H 	0.51930 0.42550 0.67780 0.13300
C 	C 	0.49970 0.16550 0.51850 0.08900
N 	N 	0.54680 0.09700 0.45070 -0.07200
N 	N 	0.52470 0.01260 0.46080 -0.25000
N 	N 	0.52300 0.06130 0.43480 -0.06100
N 	N 	0.54940 0.06900 0.46600 -0.18500
N 	N 	0.60520 0.00050 0.49430 -0.18500
N 	N 	0.62210 0.05220 0.50290 -0.24900
N 	N 	0.63920 0.98240 0.49920 -0.07400
N 	N 	0.68010 0.02380 0.51110 -0.05900
N 	N 	0.51210 0.12410 0.51610 -0.24000
C 	C 	0.43270 0.32290 0.64900 0.08600
N 	N 	0.56250 0.14810 0.50600 -0.19300
N 	N 	0.58060 0.20040 0.50210 -0.07700
N 	N 	0.30300 0.17880 0.61420 -0.23500
N 	N 	0.43630 0.26370 0.67040 -0.18400
N 	N 	0.38930 0.14450 0.63900 -0.19000
N 	N 	0.21190 0.13150 0.60720 -0.07700
N 	N 	0.39850 0.07150 0.63480 -0.05500
N 	N 	0.41220 0.13740 0.65680 -0.24000
N 	N 	0.40800 0.26810 0.65350 -0.24000
N 	N 	0.38170 0.10420 0.62550 -0.07700
N 	N 	0.24940 0.15350 0.62220 -0.19600
N 	N 	0.47680 0.31290 0.67640 -0.08100
N 	N 	0.54140 0.21190 0.51050 -0.05900
N 	N 	0.24260 0.14310 0.58950 -0.05800
N 	N 	0.47450 0.35100 0.66320 -0.05500
S 	S 	0.70840 0.12640 0.52855 -0.17100
S 	S 	0.47900 0.94720 0.42643 -0.14800
S 	S 	0.43570 0.15600 0.52922 -0.06500
S 	S 	0.35060 0.19720 0.57508 -0.06700
S 	S 	0.44830 0.06630 0.67191 -0.12400
S 	S 	0.41540 0.35300 0.62859 -0.11000
Cu	Cu	0.53289 0.95584 0.47699 0.80200
Cu	Cu	0.43273 0.18967 0.68093 0.80000
Cu	Cu	0.59180 0.10122 0.49420 0.79900
Cu	Cu	0.03603 0.53982 0.96604 0.80200
C 	C 	0.02337 0.46773 0.90313 -0.15400
H 	H 	0.99947 0.43743 0.91293 0.06700
H 	H 	0.01047 0.45423 0.88893 0.07400
C 	C 	0.08507 0.48263 0.90563 -0.00200
H 	H 	0.09957 0.50403 0.91853 0.01400
H 	H 	0.08577 0.44733 0.90723 0.01500
C 	C 	0.12227 0.51403 0.88923 -0.15600
H 	H 	0.15867 0.51643 0.89203 0.06400
H 	H 	0.12847 0.55253 0.89003 0.07600
C 	C 	0.18017 0.41183 0.74683 -0.35100
H 	H 	0.19497 0.45233 0.74663 0.13000
H 	H 	0.19957 0.40203 0.73643 0.12800
H 	H 	0.14017 0.39243 0.74383 0.13100
C 	C 	0.17477 0.34183 0.77423 0.09300
C 	C 	0.33497 0.39893 0.84703 0.09900
C 	C 	0.39327 0.34933 0.85273 -0.35300
H 	H 	0.41877 0.38203 0.86093 0.13300
H 	H 	0.41387 0.34513 0.84123 0.13000
H 	H 	0.37767 0.31583 0.86133 0.13200
C 	C 	0.08477 0.42493 0.98743 0.08600
C 	C 	0.96397 0.50473 0.92693 0.09100
C 	C 	0.21557 0.60313 0.84233 -0.35000
H 	H 	0.18407 0.60363 0.84903 0.12700
H 	H 	0.21707 0.61343 0.82783 0.12400
H 	H 	0.25047 0.62993 0.84913 0.13300
C 	C 	0.06217 0.35643 0.95683 -0.35200
H 	H 	0.04577 0.35353 0.94323 0.13300
H 	H 	0.09997 0.36203 0.95533 0.13100
H 	H 	0.03897 0.32203 0.96463 0.12900
C 	C 	0.05867 0.34433 0.01553 -0.01800
H 	H 	0.05817 0.35623 0.02983 0.02000
H 	H 	0.07077 0.31593 0.01673 0.02600
C 	C 	0.25747 0.39873 0.91083 0.12200
H 	H 	0.27887 0.43403 0.91873 -0.00900
H 	H 	0.25547 0.36823 0.91943 -0.01600
C 	C 	0.28927 0.40293 0.89163 -0.48400
H 	H 	0.30317 0.37663 0.89413 0.16000
H 	H 	0.25987 0.38503 0.88103 0.14200
C 	C 	0.32537 0.43973 0.88323 0.25600
H 	H 	0.35117 0.45883 0.89483 -0.03500
H 	H 	0.30837 0.46313 0.88023 -0.05700
C 	C 	0.96917 0.30733 0.02953 -0.04200
H 	H 	0.95727 0.26853 0.03383 0.03400
H 	H 	0.99877 0.33103 0.03943 0.02800
C 	C 	0.88067 0.45763 0.90243 -0.33600
H 	H 	0.90867 0.46933 0.89143 0.12400
H 	H 	0.85707 0.47433 0.90003 0.12300
H 	H 	0.85737 0.41683 0.90233 0.12400
C 	C 	0.00327 0.31283 0.01063 -0.17100
H 	H 	0.99407 0.33123 0.99943 0.08100
H 	H 	0.99467 0.27533 0.00583 0.06700
C 	C 	0.18517 0.74393 0.99733 -0.35100
H 	H 	0.17717 0.76503 0.98713 0.13500
H 	H 	0.22157 0.74743 0.99433 0.12500
H 	H 	0.18597 0.75883 0.01113 0.13300
C 	C 	0.16637 0.49883 0.85183 0.08900
N 	N 	0.21347 0.43033 0.78403 -0.07200
N 	N 	0.19137 0.34593 0.79413 -0.25000
N 	N 	0.18967 0.39463 0.76813 -0.06100
N 	N 	0.21607 0.40233 0.79933 -0.18500
N 	N 	0.27187 0.33383 0.82763 -0.18500
N 	N 	0.28877 0.38553 0.83623 -0.24900
N 	N 	0.30587 0.31573 0.83253 -0.07400
N 	N 	0.34677 0.35713 0.84443 -0.05900
N 	N 	0.17877 0.45743 0.84943 -0.24000
C 	C 	0.09937 0.65623 0.98233 0.08600
N 	N 	0.22917 0.48143 0.83933 -0.19300
N 	N 	0.24727 0.53373 0.83543 -0.07700
N 	N 	0.96967 0.51213 0.94753 -0.23500
N 	N 	0.10297 0.59703 0.00373 -0.18400
N 	N 	0.05597 0.47783 0.97233 -0.19000
N 	N 	0.87857 0.46483 0.94053 -0.07700
N 	N 	0.06517 0.40483 0.96813 -0.05500
N 	N 	0.07887 0.47073 0.99013 -0.24000
N 	N 	0.07467 0.60143 0.98683 -0.24000
N 	N 	0.04837 0.43753 0.95883 -0.07700
N 	N 	0.91607 0.48683 0.95553 -0.19500
N 	N 	0.14347 0.64623 0.00973 -0.08100
N 	N 	0.20807 0.54523 0.84383 -0.05900
N 	N 	0.90927 0.47643 0.92283 -0.05800
N 	N 	0.14117 0.68433 0.99653 -0.05500
S 	S 	0.37507 0.45973 0.86188 -0.17100
S 	S 	0.14567 0.28053 0.75976 -0.14900
S 	S 	0.10237 0.48933 0.86255 -0.06500
S 	S 	0.01727 0.53053 0.90841 -0.06700
S 	S 	0.11497 0.39963 0.00524 -0.12400
S 	S 	0.08207 0.68633 0.96192 -0.11000
Cu	Cu	0.19956 0.28917 0.81032 0.80200
Cu	Cu	0.09940 0.52300 0.01426 0.80000
Cu	Cu	0.25847 0.43455 0.82753 0.79900
Cu	Cu	0.70269 0.87316 0.29938 0.80200
C 	C 	0.69003 0.80107 0.23647 -0.15400
H 	H 	0.66613 0.77077 0.24627 0.06700
H 	H 	0.67713 0.78757 0.22227 0.07400
C 	C 	0.75173 0.81597 0.23897 -0.00200
H 	H 	0.76623 0.83737 0.25187 0.01400
H 	H 	0.75243 0.78067 0.24057 0.01500
C 	C 	0.78893 0.84737 0.22257 -0.15600
H 	H 	0.82533 0.84977 0.22537 0.06400
H 	H 	0.79513 0.88587 0.22337 0.07600
C 	C 	0.84683 0.74517 0.08017 -0.35100
H 	H 	0.86163 0.78567 0.07997 0.13000
H 	H 	0.86623 0.73537 0.06977 0.12800
H 	H 	0.80683 0.72577 0.07717 0.13100
C 	C 	0.84143 0.67517 0.10757 0.09300
C 	C 	0.00163 0.73227 0.18037 0.09900
C 	C 	0.05993 0.68267 0.18607 -0.35300
H 	H 	0.08543 0.71537 0.19427 0.13300
H 	H 	0.08053 0.67847 0.17457 0.13000
H 	H 	0.04433 0.64917 0.19467 0.13200
C 	C 	0.75143 0.75827 0.32077 0.08600
C 	C 	0.63063 0.83807 0.26027 0.09100
C 	C 	0.88223 0.93647 0.17567 -0.35000
H 	H 	0.85073 0.93697 0.18237 0.12700
H 	H 	0.88373 0.94677 0.16117 0.12400
H 	H 	0.91713 0.96327 0.18247 0.13300
C 	C 	0.72883 0.68977 0.29017 -0.35200
H 	H 	0.71243 0.68687 0.27657 0.13300
H 	H 	0.76663 0.69537 0.28867 0.13100
H 	H 	0.70563 0.65537 0.29797 0.12900
C 	C 	0.72533 0.67767 0.34887 -0.01800
H 	H 	0.72483 0.68957 0.36317 0.02000
H 	H 	0.73743 0.64927 0.35007 0.02600
C 	C 	0.92413 0.73207 0.24417 0.12400
H 	H 	0.94553 0.76737 0.25207 -0.01000
H 	H 	0.92213 0.70157 0.25277 -0.01700
C 	C 	0.95593 0.73627 0.22497 -0.48900
H 	H 	0.96983 0.70997 0.22747 0.16100
H 	H 	0.92653 0.71837 0.21437 0.14300
C 	C 	0.99203 0.77307 0.21657 0.26000
H 	H 	0.01783 0.79217 0.22817 -0.03600
H 	H 	0.97503 0.79647 0.21357 -0.05900
C 	C 	0.63583 0.64067 0.36287 -0.04200
H 	H 	0.62393 0.60187 0.36717 0.03400
H 	H 	0.66543 0.66437 0.37277 0.02800
C 	C 	0.54733 0.79097 0.23577 -0.33600
H 	H 	0.57533 0.80267 0.22477 0.12400
H 	H 	0.52373 0.80767 0.23337 0.12300
H 	H 	0.52403 0.75017 0.23567 0.12400
C 	C 	0.66993 0.64617 0.34397 -0.17100
H 	H 	0.66073 0.66457 0.33277 0.08100
H 	H 	0.66133 0.60867 0.33917 0.06700
C 	C 	0.85183 0.07727 0.33067 -0.35100
H 	H 	0.84383 0.09837 0.32047 0.13500
H 	H 	0.88823 0.08077 0.32767 0.12500
H 	H 	0.85263 0.09217 0.34447 0.13300
C 	C 	0.83303 0.83217 0.18517 0.08900
N 	N 	0.88013 0.76367 0.11737 -0.07200
N 	N 	0.85803 0.67927 0.12747 -0.25000
N 	N 	0.85633 0.72797 0.10147 -0.06100
N 	N 	0.88273 0.73567 0.13267 -0.18500
N 	N 	0.93853 0.66717 0.16097 -0.18500
N 	N 	0.95543 0.71887 0.16957 -0.24900
N 	N 	0.97253 0.64907 0.16587 -0.07400
N 	N 	0.01343 0.69047 0.17777 -0.05900
N 	N 	0.84543 0.79077 0.18277 -0.24000
C 	C 	0.76603 0.98957 0.31567 0.08600
N 	N 	0.89583 0.81477 0.17267 -0.19300
N 	N 	0.91393 0.86707 0.16877 -0.07700
N 	N 	0.63633 0.84547 0.28087 -0.23500
N 	N 	0.76963 0.93037 0.33707 -0.18400
N 	N 	0.72263 0.81117 0.30567 -0.19000
N 	N 	0.54523 0.79817 0.27387 -0.07700
N 	N 	0.73183 0.73817 0.30147 -0.05500
N 	N 	0.74553 0.80407 0.32347 -0.24000
N 	N 	0.74133 0.93477 0.32017 -0.24000
N 	N 	0.71503 0.77087 0.29217 -0.07700
N 	N 	0.58273 0.82017 0.28887 -0.19600
N 	N 	0.81013 0.97957 0.34307 -0.08100
N 	N 	0.87473 0.87857 0.17717 -0.05900
N 	N 	0.57593 0.80977 0.25617 -0.05800
N 	N 	0.80783 0.01767 0.32987 -0.05500
S 	S 	0.04173 0.79307 0.19522 -0.17200
S 	S 	0.81233 0.61387 0.09310 -0.14800
S 	S 	0.76903 0.82267 0.19589 -0.06500
S 	S 	0.68393 0.86387 0.24175 -0.06700
S 	S 	0.78163 0.73297 0.33858 -0.12400
S 	S 	0.74873 0.01967 0.29526 -0.11000
Cu	Cu	0.86622 0.62251 0.14366 0.80200
Cu	Cu	0.76606 0.85634 0.34760 0.80000
Cu	Cu	0.92513 0.76789 0.16087 0.79900
