data_crystal

_cell_length_a 22.04660
_cell_length_b 22.04660
_cell_length_c 36.77200
_cell_angle_alpha 90.00000
_cell_angle_beta  90.00000
_cell_angle_gamma 90.00000

_symmetry_space_group_name_	'P 1'
_symmetry_space_group_name_H-M	'P 1'

loop_
_symmetry_equiv_pos_as_xyz
  x,y,z

loop_
_atom_site_label
_atom_site_type_symbol
_atom_site_fract_x
_atom_site_fract_y
_atom_site_fract_z
_atom_site_charge
In	In	0.00059 0.71320 0.84925 1.98300
In	In	0.99575 0.65139 0.76064 1.98500
In	In	0.49045 0.30780 0.97784 2.01000
In	In	0.99941 0.28680 0.34925 1.98200
In	In	0.00425 0.34861 0.26064 1.98500
In	In	0.50955 0.69220 0.47784 2.00900
In	In	0.78680 0.50059 0.59925 1.98300
In	In	0.84861 0.49575 0.51064 1.98500
In	In	0.19220 0.99045 0.72784 2.00900
In	In	0.21320 0.49941 0.09925 1.98300
In	In	0.15139 0.50425 0.01064 1.98500
In	In	0.80780 0.00955 0.22784 2.00900
In	In	0.49941 0.21320 0.90075 1.98300
In	In	0.50425 0.15139 0.98936 1.98500
In	In	0.00955 0.80780 0.77216 2.00900
In	In	0.50059 0.78680 0.40075 1.98300
In	In	0.49575 0.84861 0.48936 1.98500
In	In	0.99045 0.19220 0.27216 2.00900
In	In	0.71320 0.00059 0.15075 1.98300
In	In	0.65139 0.99575 0.23936 1.98500
In	In	0.30780 0.49045 0.02216 2.00900
In	In	0.28680 0.99941 0.65075 1.98100
In	In	0.34861 0.00425 0.73936 1.98400
In	In	0.69220 0.50955 0.52216 2.00800
H 	H 	0.85820 0.59750 0.88730 -0.01000
H 	H 	0.77970 0.53570 0.90530 0.07800
H 	H 	0.76580 0.46840 0.80550 0.07800
H 	H 	0.84430 0.52860 0.78780 -0.01200
H 	H 	0.70430 0.49010 0.91800 0.07700
H 	H 	0.63030 0.42800 0.94080 0.01700
H 	H 	0.64000 0.33100 0.85110 -0.00200
H 	H 	0.71240 0.39560 0.82920 0.07600
H 	H 	0.12430 0.92740 0.82420 0.00900
H 	H 	0.20040 0.99010 0.84270 0.09000
H 	H 	0.22490 0.88030 0.92920 0.08300
H 	H 	0.15340 0.81750 0.90720 -0.00600
H 	H 	0.31000 0.99570 0.84920 0.08700
H 	H 	0.38420 0.06010 0.86410 -0.02500
H 	H 	0.33990 0.04170 0.96950 -0.00800
H 	H 	0.26220 0.97780 0.95370 0.08700
H 	H 	0.85930 0.66670 0.68000 -0.00600
H 	H 	0.79270 0.67460 0.63190 0.08800
H 	H 	0.82100 0.85250 0.62820 0.08300
H 	H 	0.88910 0.84590 0.67610 0.01400
H 	H 	0.77240 0.69100 0.57340 0.06300
H 	H 	0.69160 0.69210 0.53200 0.02600
H 	H 	0.63510 0.85200 0.57360 0.01200
H 	H 	0.72030 0.85100 0.61120 0.06800
H 	H 	0.14180 0.40250 0.38730 -0.01000
H 	H 	0.22030 0.46430 0.40530 0.07800
H 	H 	0.23420 0.53160 0.30550 0.07800
H 	H 	0.15570 0.47140 0.28780 -0.01200
H 	H 	0.29570 0.50990 0.41800 0.07700
H 	H 	0.36970 0.57200 0.44080 0.01600
H 	H 	0.36000 0.66900 0.35110 -0.00300
H 	H 	0.28760 0.60440 0.32920 0.07600
H 	H 	0.87570 0.07260 0.32420 0.00900
H 	H 	0.79960 0.00990 0.34270 0.09000
H 	H 	0.77510 0.11970 0.42920 0.08300
H 	H 	0.84660 0.18250 0.40720 -0.00600
H 	H 	0.69000 0.00430 0.34920 0.08700
H 	H 	0.61580 0.93990 0.36410 -0.02500
H 	H 	0.66010 0.95830 0.46950 -0.00800
H 	H 	0.73780 0.02220 0.45370 0.08700
H 	H 	0.14070 0.33330 0.18000 -0.00600
H 	H 	0.20730 0.32540 0.13190 0.08700
H 	H 	0.17900 0.14750 0.12820 0.08300
H 	H 	0.11090 0.15410 0.17610 0.01400
H 	H 	0.22760 0.30900 0.07340 0.06200
H 	H 	0.30840 0.30790 0.03200 0.02600
H 	H 	0.36490 0.14800 0.07360 0.01200
H 	H 	0.27970 0.14900 0.11120 0.06800
H 	H 	0.90250 0.35820 0.63730 -0.01000
H 	H 	0.96430 0.27970 0.65530 0.07800
H 	H 	0.03160 0.26580 0.55550 0.07800
H 	H 	0.97140 0.34430 0.53780 -0.01200
H 	H 	0.00990 0.20430 0.66800 0.07700
H 	H 	0.07200 0.13030 0.69080 0.01700
H 	H 	0.16900 0.14000 0.60110 -0.00200
H 	H 	0.10440 0.21240 0.57920 0.07600
H 	H 	0.57260 0.62430 0.57420 0.00900
H 	H 	0.50990 0.70040 0.59270 0.08900
H 	H 	0.61970 0.72490 0.67920 0.08300
H 	H 	0.68250 0.65340 0.65720 -0.00500
H 	H 	0.50430 0.81000 0.59920 0.08800
H 	H 	0.43990 0.88420 0.61410 -0.02600
H 	H 	0.45830 0.83990 0.71950 -0.00900
H 	H 	0.52220 0.76220 0.70370 0.08700
H 	H 	0.83330 0.35930 0.43000 -0.00600
H 	H 	0.82540 0.29270 0.38190 0.08800
H 	H 	0.64750 0.32100 0.37820 0.08200
H 	H 	0.65410 0.38910 0.42610 0.01400
H 	H 	0.80900 0.27240 0.32340 0.06200
H 	H 	0.80790 0.19160 0.28200 0.02600
H 	H 	0.64800 0.13510 0.32360 0.01200
H 	H 	0.64900 0.22030 0.36120 0.06700
H 	H 	0.09750 0.64180 0.13730 -0.01000
H 	H 	0.03570 0.72030 0.15530 0.07800
H 	H 	0.96840 0.73420 0.05550 0.07800
H 	H 	0.02860 0.65570 0.03780 -0.01200
H 	H 	0.99010 0.79570 0.16800 0.07700
H 	H 	0.92800 0.86970 0.19080 0.01700
H 	H 	0.83100 0.86000 0.10110 -0.00200
H 	H 	0.89560 0.78760 0.07920 0.07600
H 	H 	0.42740 0.37570 0.07420 0.00900
H 	H 	0.49010 0.29960 0.09270 0.08900
H 	H 	0.38030 0.27510 0.17920 0.08300
H 	H 	0.31750 0.34660 0.15720 -0.00500
H 	H 	0.49570 0.19000 0.09920 0.08800
H 	H 	0.56010 0.11580 0.11410 -0.02600
H 	H 	0.54170 0.16010 0.21950 -0.00900
H 	H 	0.47780 0.23780 0.20370 0.08700
H 	H 	0.16670 0.64070 0.93000 -0.00600
H 	H 	0.17460 0.70730 0.88190 0.08800
H 	H 	0.35250 0.67900 0.87820 0.08200
H 	H 	0.34590 0.61090 0.92610 0.01400
H 	H 	0.19100 0.72760 0.82340 0.06200
H 	H 	0.19210 0.80840 0.78200 0.02600
H 	H 	0.35200 0.86490 0.82360 0.01200
H 	H 	0.35100 0.77970 0.86120 0.06800
H 	H 	0.64180 0.09750 0.86270 -0.01000
H 	H 	0.72030 0.03570 0.84470 0.07800
H 	H 	0.73420 0.96840 0.94450 0.07800
H 	H 	0.65570 0.02860 0.96220 -0.01100
H 	H 	0.79570 0.99010 0.83200 0.07700
H 	H 	0.86970 0.92800 0.80920 0.01700
H 	H 	0.86000 0.83100 0.89890 -0.00200
H 	H 	0.78760 0.89560 0.92080 0.07700
H 	H 	0.37570 0.42740 0.92580 0.00900
H 	H 	0.29960 0.49010 0.90730 0.08900
H 	H 	0.27510 0.38030 0.82080 0.08200
H 	H 	0.34660 0.31750 0.84280 -0.00500
H 	H 	0.19000 0.49570 0.90080 0.08800
H 	H 	0.11580 0.56010 0.88590 -0.02600
H 	H 	0.16010 0.54170 0.78050 -0.00900
H 	H 	0.23780 0.47780 0.79630 0.08700
H 	H 	0.64070 0.16670 0.07000 -0.00600
H 	H 	0.70730 0.17460 0.11810 0.08800
H 	H 	0.67900 0.35250 0.12180 0.08200
H 	H 	0.61090 0.34590 0.07390 0.01400
H 	H 	0.72760 0.19100 0.17660 0.06200
H 	H 	0.80840 0.19210 0.21800 0.02600
H 	H 	0.86490 0.35200 0.17640 0.01200
H 	H 	0.77970 0.35100 0.13880 0.06700
H 	H 	0.35820 0.90250 0.36270 -0.01000
H 	H 	0.27970 0.96430 0.34470 0.07800
H 	H 	0.26580 0.03160 0.44450 0.07800
H 	H 	0.34430 0.97140 0.46220 -0.01200
H 	H 	0.20430 0.00990 0.33200 0.07700
H 	H 	0.13030 0.07200 0.30920 0.01700
H 	H 	0.14000 0.16900 0.39890 -0.00200
H 	H 	0.21240 0.10440 0.42080 0.07600
H 	H 	0.62430 0.57260 0.42580 0.00900
H 	H 	0.70040 0.50990 0.40730 0.08900
H 	H 	0.72490 0.61970 0.32080 0.08300
H 	H 	0.65340 0.68250 0.34280 -0.00500
H 	H 	0.81000 0.50430 0.40080 0.08800
H 	H 	0.88420 0.43990 0.38590 -0.02600
H 	H 	0.83990 0.45830 0.28050 -0.00900
H 	H 	0.76220 0.52220 0.29630 0.08700
H 	H 	0.35930 0.83330 0.57000 -0.00600
H 	H 	0.29270 0.82540 0.61810 0.08800
H 	H 	0.32100 0.64750 0.62180 0.08200
H 	H 	0.38910 0.65410 0.57390 0.01400
H 	H 	0.27240 0.80900 0.67660 0.06200
H 	H 	0.19160 0.80790 0.71800 0.02600
H 	H 	0.13510 0.64800 0.67640 0.01200
H 	H 	0.22030 0.64900 0.63880 0.06700
H 	H 	0.59750 0.85820 0.11270 -0.01000
H 	H 	0.53570 0.77970 0.09470 0.07800
H 	H 	0.46840 0.76580 0.19450 0.07800
H 	H 	0.52860 0.84430 0.21220 -0.01200
H 	H 	0.49010 0.70430 0.08200 0.07700
H 	H 	0.42800 0.63030 0.05920 0.01600
H 	H 	0.33100 0.64000 0.14890 -0.00300
H 	H 	0.39560 0.71240 0.17080 0.07600
H 	H 	0.92740 0.12430 0.17580 0.00900
H 	H 	0.99010 0.20040 0.15730 0.09000
H 	H 	0.88030 0.22490 0.07080 0.08300
H 	H 	0.81750 0.15340 0.09280 -0.00600
H 	H 	0.99570 0.31000 0.15080 0.08700
H 	H 	0.06010 0.38420 0.13590 -0.02500
H 	H 	0.04170 0.33990 0.03050 -0.00800
H 	H 	0.97780 0.26220 0.04630 0.08700
H 	H 	0.66670 0.85930 0.32000 -0.00600
H 	H 	0.67460 0.79270 0.36810 0.08800
H 	H 	0.85250 0.82100 0.37180 0.08300
H 	H 	0.84590 0.88910 0.32390 0.01400
H 	H 	0.69100 0.77240 0.42660 0.06300
H 	H 	0.69210 0.69160 0.46800 0.02600
H 	H 	0.85200 0.63510 0.42640 0.01200
H 	H 	0.85100 0.72030 0.38880 0.06800
H 	H 	0.40250 0.14180 0.61270 -0.01000
H 	H 	0.46430 0.22030 0.59470 0.07800
H 	H 	0.53160 0.23420 0.69450 0.07800
H 	H 	0.47140 0.15570 0.71220 -0.01200
H 	H 	0.50990 0.29570 0.58200 0.07700
H 	H 	0.57200 0.36970 0.55920 0.01600
H 	H 	0.66900 0.36000 0.64890 -0.00300
H 	H 	0.60440 0.28760 0.67080 0.07600
H 	H 	0.07260 0.87570 0.67580 0.00900
H 	H 	0.00990 0.79960 0.65730 0.09000
H 	H 	0.11970 0.77510 0.57080 0.08300
H 	H 	0.18250 0.84660 0.59280 -0.00600
H 	H 	0.00430 0.69000 0.65080 0.08700
H 	H 	0.93990 0.61580 0.63590 -0.02500
H 	H 	0.95830 0.66010 0.53050 -0.00800
H 	H 	0.02220 0.73780 0.54630 0.08700
H 	H 	0.33330 0.14070 0.82000 -0.00600
H 	H 	0.32540 0.20730 0.86810 0.08800
H 	H 	0.14750 0.17900 0.87180 0.08300
H 	H 	0.15410 0.11090 0.82390 0.01400
H 	H 	0.30900 0.22760 0.92660 0.06300
H 	H 	0.30790 0.30840 0.96800 0.02600
H 	H 	0.14800 0.36490 0.92640 0.01200
H 	H 	0.14900 0.27970 0.88880 0.06800
C 	C 	0.85840 0.56950 0.83570 -0.22000
C 	C 	0.84020 0.57110 0.87080 0.11600
C 	C 	0.79420 0.53250 0.88160 -0.15900
C 	C 	0.76870 0.49000 0.85940 0.06500
C 	C 	0.78580 0.49240 0.82250 -0.16300
C 	C 	0.83120 0.52980 0.81180 0.12000
C 	C 	0.90680 0.61230 0.82410 0.51300
C 	C 	0.72030 0.44770 0.87230 0.06800
C 	C 	0.69280 0.45650 0.90430 -0.14600
C 	C 	0.64790 0.41890 0.91850 0.09400
C 	C 	0.62940 0.36820 0.89960 -0.19600
C 	C 	0.65350 0.36240 0.86600 0.10600
C 	C 	0.69780 0.40160 0.85270 -0.15500
C 	C 	0.58180 0.32940 0.91430 0.47400
C 	C 	0.13240 0.86600 0.86260 -0.21300
C 	C 	0.14640 0.91730 0.84490 0.12200
C 	C 	0.19150 0.95520 0.85590 -0.15500
C 	C 	0.22530 0.94030 0.88810 0.06100
C 	C 	0.20660 0.88930 0.90700 -0.15800
C 	C 	0.16310 0.85250 0.89440 0.11900
C 	C 	0.08760 0.82370 0.84670 0.49200
C 	C 	0.27630 0.98110 0.89900 0.07900
C 	C 	0.31510 0.00620 0.87350 -0.18000
C 	C 	0.35910 0.04430 0.88210 0.13600
C 	C 	0.36770 0.06080 0.91870 -0.23000
C 	C 	0.33240 0.03360 0.94510 0.12700
C 	C 	0.28650 0.99490 0.93580 -0.17100
C 	C 	0.41640 0.10320 0.92900 0.52500
C 	C 	0.87990 0.75530 0.68380 -0.18300
C 	C 	0.85130 0.70450 0.66990 0.10100
C 	C 	0.81120 0.70920 0.64130 -0.16200
C 	C 	0.79870 0.76450 0.62690 0.08100
C 	C 	0.82830 0.81520 0.63910 -0.15300
C 	C 	0.86920 0.81140 0.66780 0.09000
C 	C 	0.92420 0.74800 0.71490 0.48100
C 	C 	0.75060 0.76830 0.59840 0.03900
C 	C 	0.74450 0.72260 0.57380 -0.10900
C 	C 	0.69570 0.72330 0.54890 0.05500
C 	C 	0.65340 0.77110 0.54960 -0.15400
C 	C 	0.66190 0.81940 0.57320 0.06200
C 	C 	0.71230 0.81760 0.59650 -0.11600
C 	C 	0.59840 0.76930 0.52590 0.45900
C 	C 	0.14160 0.43050 0.33570 -0.22000
C 	C 	0.15980 0.42890 0.37080 0.11600
C 	C 	0.20580 0.46750 0.38160 -0.15900
C 	C 	0.23130 0.51000 0.35940 0.06500
C 	C 	0.21420 0.50760 0.32250 -0.16300
C 	C 	0.16880 0.47020 0.31180 0.12000
C 	C 	0.09320 0.38770 0.32410 0.51300
C 	C 	0.27970 0.55230 0.37230 0.06800
C 	C 	0.30720 0.54350 0.40430 -0.14600
C 	C 	0.35210 0.58110 0.41850 0.09400
C 	C 	0.37060 0.63180 0.39960 -0.19600
C 	C 	0.34650 0.63760 0.36600 0.10600
C 	C 	0.30220 0.59840 0.35270 -0.15500
C 	C 	0.41820 0.67060 0.41430 0.47400
C 	C 	0.86760 0.13400 0.36260 -0.21300
C 	C 	0.85360 0.08270 0.34490 0.12200
C 	C 	0.80850 0.04480 0.35590 -0.15500
C 	C 	0.77470 0.05970 0.38810 0.06100
C 	C 	0.79340 0.11070 0.40700 -0.15800
C 	C 	0.83690 0.14750 0.39440 0.11900
C 	C 	0.91240 0.17630 0.34670 0.49200
C 	C 	0.72370 0.01890 0.39900 0.07900
C 	C 	0.68490 0.99380 0.37350 -0.18000
C 	C 	0.64090 0.95570 0.38210 0.13700
C 	C 	0.63230 0.93920 0.41870 -0.23000
C 	C 	0.66760 0.96640 0.44510 0.12700
C 	C 	0.71350 0.00510 0.43580 -0.17100
C 	C 	0.58360 0.89680 0.42900 0.52500
C 	C 	0.12010 0.24470 0.18380 -0.18300
C 	C 	0.14870 0.29550 0.16990 0.10100
C 	C 	0.18880 0.29080 0.14130 -0.16200
C 	C 	0.20130 0.23550 0.12690 0.08100
C 	C 	0.17170 0.18480 0.13910 -0.15200
C 	C 	0.13080 0.18860 0.16780 0.09000
C 	C 	0.07580 0.25200 0.21490 0.48100
C 	C 	0.24940 0.23170 0.09840 0.03900
C 	C 	0.25550 0.27740 0.07380 -0.11000
C 	C 	0.30430 0.27670 0.04890 0.05500
C 	C 	0.34660 0.22890 0.04960 -0.15400
C 	C 	0.33810 0.18060 0.07320 0.06300
C 	C 	0.28770 0.18240 0.09650 -0.11600
C 	C 	0.40160 0.23070 0.02590 0.45900
C 	C 	0.93050 0.35840 0.58570 -0.22000
C 	C 	0.92890 0.34020 0.62080 0.11600
C 	C 	0.96750 0.29420 0.63160 -0.16000
C 	C 	0.01000 0.26870 0.60940 0.06600
C 	C 	0.00760 0.28580 0.57250 -0.16200
C 	C 	0.97020 0.33120 0.56180 0.11900
C 	C 	0.88770 0.40680 0.57410 0.51300
C 	C 	0.05230 0.22030 0.62230 0.06800
C 	C 	0.04350 0.19280 0.65430 -0.14600
C 	C 	0.08110 0.14790 0.66850 0.09400
C 	C 	0.13180 0.12940 0.64960 -0.19500
C 	C 	0.13760 0.15350 0.61600 0.10600
C 	C 	0.09840 0.19780 0.60270 -0.15400
C 	C 	0.17060 0.08180 0.66430 0.47400
C 	C 	0.63400 0.63240 0.61260 -0.21200
C 	C 	0.58270 0.64640 0.59490 0.12100
C 	C 	0.54480 0.69150 0.60590 -0.15400
C 	C 	0.55970 0.72530 0.63810 0.06000
C 	C 	0.61070 0.70660 0.65700 -0.15800
C 	C 	0.64750 0.66310 0.64440 0.11900
C 	C 	0.67630 0.58760 0.59670 0.49200
C 	C 	0.51890 0.77630 0.64900 0.08200
C 	C 	0.49380 0.81510 0.62350 -0.18400
C 	C 	0.45570 0.85910 0.63210 0.13900
C 	C 	0.43920 0.86770 0.66870 -0.23100
C 	C 	0.46640 0.83240 0.69510 0.12700
C 	C 	0.50510 0.78650 0.68580 -0.17200
C 	C 	0.39680 0.91640 0.67900 0.52500
C 	C 	0.74470 0.37990 0.43380 -0.18300
C 	C 	0.79550 0.35130 0.41990 0.10100
C 	C 	0.79080 0.31120 0.39130 -0.16200
C 	C 	0.73550 0.29870 0.37690 0.08100
C 	C 	0.68480 0.32830 0.38910 -0.15300
C 	C 	0.68860 0.36920 0.41780 0.09000
C 	C 	0.75200 0.42420 0.46490 0.48100
C 	C 	0.73170 0.25060 0.34840 0.03900
C 	C 	0.77740 0.24450 0.32380 -0.10900
C 	C 	0.77670 0.19570 0.29890 0.05400
C 	C 	0.72890 0.15340 0.29960 -0.15400
C 	C 	0.68060 0.16190 0.32320 0.06200
C 	C 	0.68240 0.21230 0.34650 -0.11600
C 	C 	0.73070 0.09840 0.27590 0.45900
C 	C 	0.06950 0.64160 0.08570 -0.22000
C 	C 	0.07110 0.65980 0.12080 0.11600
C 	C 	0.03250 0.70580 0.13160 -0.16000
C 	C 	0.99000 0.73130 0.10940 0.06600
C 	C 	0.99240 0.71420 0.07250 -0.16200
C 	C 	0.02980 0.66880 0.06180 0.11900
C 	C 	0.11230 0.59320 0.07410 0.51300
C 	C 	0.94770 0.77970 0.12230 0.06800
C 	C 	0.95650 0.80720 0.15430 -0.14600
C 	C 	0.91890 0.85210 0.16850 0.09400
C 	C 	0.86820 0.87060 0.14960 -0.19500
C 	C 	0.86240 0.84650 0.11600 0.10600
C 	C 	0.90160 0.80220 0.10270 -0.15400
C 	C 	0.82940 0.91820 0.16430 0.47400
C 	C 	0.36600 0.36760 0.11260 -0.21200
C 	C 	0.41730 0.35360 0.09490 0.12100
C 	C 	0.45520 0.30850 0.10590 -0.15400
C 	C 	0.44030 0.27470 0.13810 0.06000
C 	C 	0.38930 0.29340 0.15700 -0.15800
C 	C 	0.35250 0.33690 0.14440 0.11900
C 	C 	0.32370 0.41240 0.09670 0.49200
C 	C 	0.48110 0.22370 0.14900 0.08200
C 	C 	0.50620 0.18490 0.12350 -0.18400
C 	C 	0.54430 0.14090 0.13210 0.13900
C 	C 	0.56080 0.13230 0.16870 -0.23100
C 	C 	0.53360 0.16760 0.19510 0.12700
C 	C 	0.49490 0.21350 0.18580 -0.17200
C 	C 	0.60320 0.08360 0.17900 0.52500
C 	C 	0.25530 0.62010 0.93380 -0.18300
C 	C 	0.20450 0.64870 0.91990 0.10100
C 	C 	0.20920 0.68880 0.89130 -0.16200
C 	C 	0.26450 0.70130 0.87690 0.08100
C 	C 	0.31520 0.67170 0.88910 -0.15300
C 	C 	0.31140 0.63080 0.91780 0.09000
C 	C 	0.24800 0.57580 0.96490 0.48100
C 	C 	0.26830 0.74940 0.84840 0.03900
C 	C 	0.22260 0.75550 0.82380 -0.11000
C 	C 	0.22330 0.80430 0.79890 0.05500
C 	C 	0.27110 0.84660 0.79960 -0.15400
C 	C 	0.31940 0.83810 0.82320 0.06200
C 	C 	0.31760 0.78770 0.84650 -0.11600
C 	C 	0.26930 0.90160 0.77590 0.45900
C 	C 	0.64160 0.06950 0.91430 -0.22000
C 	C 	0.65980 0.07110 0.87920 0.11600
C 	C 	0.70580 0.03250 0.86840 -0.16000
C 	C 	0.73130 0.99000 0.89060 0.06600
C 	C 	0.71420 0.99240 0.92750 -0.16200
C 	C 	0.66880 0.02980 0.93820 0.11900
C 	C 	0.59320 0.11230 0.92590 0.51300
C 	C 	0.77970 0.94770 0.87770 0.06800
C 	C 	0.80720 0.95650 0.84570 -0.14600
C 	C 	0.85210 0.91890 0.83150 0.09400
C 	C 	0.87060 0.86820 0.85040 -0.19500
C 	C 	0.84650 0.86240 0.88400 0.10600
C 	C 	0.80220 0.90160 0.89730 -0.15400
C 	C 	0.91820 0.82940 0.83570 0.47400
C 	C 	0.36760 0.36600 0.88740 -0.21200
C 	C 	0.35360 0.41730 0.90510 0.12100
C 	C 	0.30850 0.45520 0.89410 -0.15400
C 	C 	0.27470 0.44030 0.86190 0.06000
C 	C 	0.29340 0.38930 0.84300 -0.15700
C 	C 	0.33690 0.35250 0.85560 0.11900
C 	C 	0.41240 0.32370 0.90330 0.49200
C 	C 	0.22370 0.48110 0.85100 0.08200
C 	C 	0.18490 0.50620 0.87650 -0.18400
C 	C 	0.14090 0.54430 0.86790 0.13900
C 	C 	0.13230 0.56080 0.83130 -0.23100
C 	C 	0.16760 0.53360 0.80490 0.12700
C 	C 	0.21350 0.49490 0.81420 -0.17200
C 	C 	0.08360 0.60320 0.82100 0.52500
C 	C 	0.62010 0.25530 0.06620 -0.18300
C 	C 	0.64870 0.20450 0.08010 0.10100
C 	C 	0.68880 0.20920 0.10870 -0.16200
C 	C 	0.70130 0.26450 0.12310 0.08100
C 	C 	0.67170 0.31520 0.11090 -0.15300
C 	C 	0.63080 0.31140 0.08220 0.09000
C 	C 	0.57580 0.24800 0.03510 0.48200
C 	C 	0.74940 0.26830 0.15160 0.03900
C 	C 	0.75550 0.22260 0.17620 -0.10900
C 	C 	0.80430 0.22330 0.20110 0.05400
C 	C 	0.84660 0.27110 0.20040 -0.15400
C 	C 	0.83810 0.31940 0.17680 0.06200
C 	C 	0.78770 0.31760 0.15350 -0.11600
C 	C 	0.90160 0.26930 0.22410 0.45900
C 	C 	0.35840 0.93050 0.41430 -0.22000
C 	C 	0.34020 0.92890 0.37920 0.11600
C 	C 	0.29420 0.96750 0.36840 -0.16000
C 	C 	0.26870 0.01000 0.39060 0.06600
C 	C 	0.28580 0.00760 0.42750 -0.16200
C 	C 	0.33120 0.97020 0.43820 0.11900
C 	C 	0.40680 0.88770 0.42590 0.51300
C 	C 	0.22030 0.05230 0.37770 0.06800
C 	C 	0.19280 0.04350 0.34570 -0.14600
C 	C 	0.14790 0.08110 0.33150 0.09400
C 	C 	0.12940 0.13180 0.35040 -0.19500
C 	C 	0.15350 0.13760 0.38400 0.10600
C 	C 	0.19780 0.09840 0.39730 -0.15400
C 	C 	0.08180 0.17060 0.33570 0.47400
C 	C 	0.63240 0.63400 0.38740 -0.21200
C 	C 	0.64640 0.58270 0.40510 0.12100
C 	C 	0.69150 0.54480 0.39410 -0.15400
C 	C 	0.72530 0.55970 0.36190 0.06000
C 	C 	0.70660 0.61070 0.34300 -0.15800
C 	C 	0.66310 0.64750 0.35560 0.11900
C 	C 	0.58760 0.67630 0.40330 0.49200
C 	C 	0.77630 0.51890 0.35100 0.08200
C 	C 	0.81510 0.49380 0.37650 -0.18400
C 	C 	0.85910 0.45570 0.36790 0.13900
C 	C 	0.86770 0.43920 0.33130 -0.23100
C 	C 	0.83240 0.46640 0.30490 0.12700
C 	C 	0.78650 0.50510 0.31420 -0.17200
C 	C 	0.91640 0.39680 0.32100 0.52500
C 	C 	0.37990 0.74470 0.56620 -0.18300
C 	C 	0.35130 0.79550 0.58010 0.10100
C 	C 	0.31120 0.79080 0.60870 -0.16200
C 	C 	0.29870 0.73550 0.62310 0.08100
C 	C 	0.32830 0.68480 0.61090 -0.15300
C 	C 	0.36920 0.68860 0.58220 0.09000
C 	C 	0.42420 0.75200 0.53510 0.48100
C 	C 	0.25060 0.73170 0.65160 0.03900
C 	C 	0.24450 0.77740 0.67620 -0.10900
C 	C 	0.19570 0.77670 0.70110 0.05400
C 	C 	0.15340 0.72890 0.70040 -0.15400
C 	C 	0.16190 0.68060 0.67680 0.06200
C 	C 	0.21230 0.68240 0.65350 -0.11600
C 	C 	0.09840 0.73070 0.72410 0.45900
C 	C 	0.56950 0.85840 0.16430 -0.22100
C 	C 	0.57110 0.84020 0.12920 0.11600
C 	C 	0.53250 0.79420 0.11840 -0.15900
C 	C 	0.49000 0.76870 0.14060 0.06400
C 	C 	0.49240 0.78580 0.17750 -0.16300
C 	C 	0.52980 0.83120 0.18820 0.12000
C 	C 	0.61230 0.90680 0.17590 0.51300
C 	C 	0.44770 0.72030 0.12770 0.06800
C 	C 	0.45650 0.69280 0.09570 -0.14700
C 	C 	0.41890 0.64790 0.08150 0.09400
C 	C 	0.36820 0.62940 0.10040 -0.19600
C 	C 	0.36240 0.65350 0.13400 0.10600
C 	C 	0.40160 0.69780 0.14730 -0.15500
C 	C 	0.32940 0.58180 0.08570 0.47400
C 	C 	0.86600 0.13240 0.13740 -0.21300
C 	C 	0.91730 0.14640 0.15510 0.12200
C 	C 	0.95520 0.19150 0.14410 -0.15500
C 	C 	0.94030 0.22530 0.11190 0.06100
C 	C 	0.88930 0.20660 0.09300 -0.15800
C 	C 	0.85250 0.16310 0.10560 0.11900
C 	C 	0.82370 0.08760 0.15330 0.49200
C 	C 	0.98110 0.27630 0.10100 0.07900
C 	C 	0.00620 0.31510 0.12650 -0.18000
C 	C 	0.04430 0.35910 0.11790 0.13700
C 	C 	0.06080 0.36770 0.08130 -0.23000
C 	C 	0.03360 0.33240 0.05490 0.12700
C 	C 	0.99490 0.28650 0.06420 -0.17100
C 	C 	0.10320 0.41640 0.07100 0.52500
C 	C 	0.75530 0.87990 0.31620 -0.18300
C 	C 	0.70450 0.85130 0.33010 0.10100
C 	C 	0.70920 0.81120 0.35870 -0.16200
C 	C 	0.76450 0.79870 0.37310 0.08100
C 	C 	0.81520 0.82830 0.36090 -0.15300
C 	C 	0.81140 0.86920 0.33220 0.09000
C 	C 	0.74800 0.92420 0.28510 0.48100
C 	C 	0.76830 0.75060 0.40160 0.03900
C 	C 	0.72260 0.74450 0.42620 -0.10900
C 	C 	0.72330 0.69570 0.45110 0.05500
C 	C 	0.77110 0.65340 0.45040 -0.15400
C 	C 	0.81940 0.66190 0.42680 0.06200
C 	C 	0.81760 0.71230 0.40350 -0.11600
C 	C 	0.76930 0.59840 0.47410 0.45900
C 	C 	0.43050 0.14160 0.66430 -0.22000
C 	C 	0.42890 0.15980 0.62920 0.11600
C 	C 	0.46750 0.20580 0.61840 -0.15900
C 	C 	0.51000 0.23130 0.64060 0.06500
C 	C 	0.50760 0.21420 0.67750 -0.16300
C 	C 	0.47020 0.16880 0.68820 0.12000
C 	C 	0.38770 0.09320 0.67590 0.51300
C 	C 	0.55230 0.27970 0.62770 0.06800
C 	C 	0.54350 0.30720 0.59570 -0.14600
C 	C 	0.58110 0.35210 0.58150 0.09400
C 	C 	0.63180 0.37060 0.60040 -0.19600
C 	C 	0.63760 0.34650 0.63400 0.10600
C 	C 	0.59840 0.30220 0.64730 -0.15500
C 	C 	0.67060 0.41820 0.58570 0.47400
C 	C 	0.13400 0.86760 0.63740 -0.21300
C 	C 	0.08270 0.85360 0.65510 0.12200
C 	C 	0.04480 0.80850 0.64410 -0.15500
C 	C 	0.05970 0.77470 0.61190 0.06100
C 	C 	0.11070 0.79340 0.59300 -0.15800
C 	C 	0.14750 0.83690 0.60560 0.11900
C 	C 	0.17630 0.91240 0.65330 0.49200
C 	C 	0.01890 0.72370 0.60100 0.07900
C 	C 	0.99380 0.68490 0.62650 -0.18000
C 	C 	0.95570 0.64090 0.61790 0.13700
C 	C 	0.93920 0.63230 0.58130 -0.23000
C 	C 	0.96640 0.66760 0.55490 0.12700
C 	C 	0.00510 0.71350 0.56420 -0.17100
C 	C 	0.89680 0.58360 0.57100 0.52500
C 	C 	0.24470 0.12010 0.81620 -0.18300
C 	C 	0.29550 0.14870 0.83010 0.10100
C 	C 	0.29080 0.18880 0.85870 -0.16200
C 	C 	0.23550 0.20130 0.87310 0.08100
C 	C 	0.18480 0.17170 0.86090 -0.15300
C 	C 	0.18860 0.13080 0.83220 0.09000
C 	C 	0.25200 0.07580 0.78510 0.48100
C 	C 	0.23170 0.24940 0.90160 0.03900
C 	C 	0.27740 0.25550 0.92620 -0.10900
C 	C 	0.27670 0.30430 0.95110 0.05400
C 	C 	0.22890 0.34660 0.95040 -0.15400
C 	C 	0.18060 0.33810 0.92680 0.06200
C 	C 	0.18240 0.28770 0.90350 -0.11600
C 	C 	0.23070 0.40160 0.97410 0.45900
C 	C 	0.41470 0.41470 -0.00000 0.21900
C 	C 	0.58530 0.58530 0.50000 0.22000
C 	C 	0.08530 0.91470 0.75000 0.22000
C 	C 	0.91470 0.08530 0.25000 0.22000
O 	O 	0.92490 0.60680 0.79180 -0.60800
O 	O 	0.92550 0.64880 0.84680 -0.61700
O 	O 	0.56270 0.28790 0.89360 -0.59100
O 	O 	0.56500 0.34060 0.94650 -0.56500
O 	O 	0.07340 0.77580 0.86270 -0.60000
O 	O 	0.06620 0.83900 0.81616 -0.57700
O 	O 	0.43550 0.10100 0.96090 -0.61900
O 	O 	0.43620 0.13690 0.90480 -0.62000
O 	O 	0.95050 0.79510 0.72575 -0.56900
O 	O 	0.92950 0.69620 0.72740 -0.61800
O 	O 	0.58890 0.72070 0.50828 -0.56500
O 	O 	0.56470 0.81450 0.52610 -0.60200
O 	O 	0.47380 0.39810 0.99780 -0.42100
O 	O 	0.00180 0.72400 0.79450 -1.04000
O 	O 	0.07510 0.39320 0.29180 -0.60800
O 	O 	0.07450 0.35120 0.34680 -0.61700
O 	O 	0.43730 0.71210 0.39360 -0.59100
O 	O 	0.43500 0.65940 0.44650 -0.56500
O 	O 	0.92660 0.22420 0.36270 -0.60000
O 	O 	0.93380 0.16100 0.31616 -0.57700
O 	O 	0.56450 0.89900 0.46090 -0.62000
O 	O 	0.56380 0.86310 0.40480 -0.62000
O 	O 	0.04950 0.20490 0.22575 -0.56900
O 	O 	0.07050 0.30380 0.22740 -0.61800
O 	O 	0.41110 0.27930 0.00828 -0.56500
O 	O 	0.43530 0.18550 0.02610 -0.60200
O 	O 	0.52620 0.60190 0.49780 -0.42200
O 	O 	0.99820 0.27600 0.29450 -1.04000
O 	O 	0.89320 0.42490 0.54180 -0.60800
O 	O 	0.85120 0.42550 0.59680 -0.61700
O 	O 	0.21210 0.06270 0.64360 -0.59000
O 	O 	0.15940 0.06500 0.69650 -0.56500
O 	O 	0.72420 0.57340 0.61270 -0.60000
O 	O 	0.66100 0.56620 0.56616 -0.57700
O 	O 	0.39900 0.93550 0.71090 -0.62000
O 	O 	0.36310 0.93620 0.65480 -0.62000
O 	O 	0.70490 0.45050 0.47575 -0.56900
O 	O 	0.80380 0.42950 0.47740 -0.61900
O 	O 	0.77930 0.08890 0.25828 -0.56500
O 	O 	0.68550 0.06470 0.27610 -0.60200
O 	O 	0.10190 0.97380 0.74780 -0.42200
O 	O 	0.77600 0.50180 0.54450 -1.03900
O 	O 	0.10680 0.57510 0.04180 -0.60800
O 	O 	0.14880 0.57450 0.09680 -0.61700
O 	O 	0.78790 0.93730 0.14360 -0.59000
O 	O 	0.84060 0.93500 0.19650 -0.56500
O 	O 	0.27580 0.42660 0.11270 -0.60000
O 	O 	0.33900 0.43380 0.06616 -0.57700
O 	O 	0.60100 0.06450 0.21090 -0.62000
O 	O 	0.63690 0.06380 0.15480 -0.62000
O 	O 	0.29510 0.54950 0.97575 -0.56900
O 	O 	0.19620 0.57050 0.97740 -0.61800
O 	O 	0.22070 0.91110 0.75828 -0.56500
O 	O 	0.31450 0.93530 0.77610 -0.60200
O 	O 	0.89810 0.02620 0.24780 -0.42200
O 	O 	0.22400 0.49820 0.04450 -1.04000
O 	O 	0.57510 0.10680 0.95820 -0.60800
O 	O 	0.57450 0.14880 0.90320 -0.61700
O 	O 	0.93730 0.78790 0.85640 -0.59000
O 	O 	0.93500 0.84060 0.80350 -0.56500
O 	O 	0.42660 0.27580 0.88730 -0.60000
O 	O 	0.43380 0.33900 0.93384 -0.57700
O 	O 	0.06450 0.60100 0.78910 -0.62000
O 	O 	0.06380 0.63690 0.84520 -0.62000
O 	O 	0.54950 0.29510 0.02425 -0.57000
O 	O 	0.57050 0.19620 0.02260 -0.61900
O 	O 	0.91110 0.22070 0.24172 -0.56500
O 	O 	0.93530 0.31450 0.22390 -0.60200
O 	O 	0.02620 0.89810 0.75220 -0.42200
O 	O 	0.49820 0.22400 0.95550 -1.03900
O 	O 	0.42490 0.89320 0.45820 -0.60800
O 	O 	0.42550 0.85120 0.40320 -0.61700
O 	O 	0.06270 0.21210 0.35640 -0.59000
O 	O 	0.06500 0.15940 0.30350 -0.56500
O 	O 	0.57340 0.72420 0.38730 -0.60000
O 	O 	0.56620 0.66100 0.43384 -0.57700
O 	O 	0.93550 0.39900 0.28910 -0.62000
O 	O 	0.93620 0.36310 0.34520 -0.62000
O 	O 	0.45050 0.70490 0.52425 -0.56900
O 	O 	0.42950 0.80380 0.52260 -0.61900
O 	O 	0.08890 0.77930 0.74172 -0.56500
O 	O 	0.06470 0.68550 0.72390 -0.60200
O 	O 	0.97380 0.10190 0.25220 -0.42200
O 	O 	0.50180 0.77600 0.45550 -1.03900
O 	O 	0.60680 0.92490 0.20820 -0.60800
O 	O 	0.64880 0.92550 0.15320 -0.61700
O 	O 	0.28790 0.56270 0.10640 -0.59100
O 	O 	0.34060 0.56500 0.05350 -0.56600
O 	O 	0.77580 0.07340 0.13730 -0.60000
O 	O 	0.83900 0.06620 0.18384 -0.57700
O 	O 	0.10100 0.43550 0.03910 -0.62000
O 	O 	0.13690 0.43620 0.09520 -0.62000
O 	O 	0.79510 0.95050 0.27425 -0.56900
O 	O 	0.69620 0.92950 0.27260 -0.61800
O 	O 	0.72070 0.58890 0.49172 -0.56500
O 	O 	0.81450 0.56470 0.47390 -0.60200
O 	O 	0.39810 0.47380 0.00220 -0.42200
O 	O 	0.72400 0.00180 0.20550 -1.04000
O 	O 	0.39320 0.07510 0.70820 -0.60800
O 	O 	0.35120 0.07450 0.65320 -0.61700
O 	O 	0.71210 0.43730 0.60640 -0.59100
O 	O 	0.65940 0.43500 0.55350 -0.56500
O 	O 	0.22420 0.92660 0.63730 -0.60000
O 	O 	0.16100 0.93380 0.68384 -0.57700
O 	O 	0.89900 0.56450 0.53910 -0.62000
O 	O 	0.86310 0.56380 0.59520 -0.62000
O 	O 	0.20490 0.04950 0.77425 -0.56900
O 	O 	0.30380 0.07050 0.77260 -0.61800
O 	O 	0.27930 0.41110 0.99172 -0.56400
O 	O 	0.18550 0.43530 0.97390 -0.60200
O 	O 	0.60190 0.52620 0.50220 -0.42200
O 	O 	0.27600 0.99820 0.70550 -1.04000
