data_crystal

_cell_length_a 10.70200
_cell_length_b 11.18600
_cell_length_c 22.58400
_cell_angle_alpha 93.80000
_cell_angle_beta  90.13000
_cell_angle_gamma 115.57000

_symmetry_space_group_name_	'P 1'
_symmetry_space_group_name_H-M	'P 1'

loop_
_symmetry_equiv_pos_as_xyz
  x,y,z

loop_
_atom_site_label
_atom_site_type_symbol
_atom_site_fract_x
_atom_site_fract_y
_atom_site_fract_z
_atom_site_charge
Cu	Cu	0.20054 0.51049 0.72579 0.88000
Cu	Cu	0.79946 0.48951 0.27421 0.88000
Cu	Cu	0.50000 0.50000 0.50000 0.90700
Cu	Cu	-0.00000 0.00000 -0.00000 0.86900
H 	H 	0.63910 0.31400 0.51890 0.00900
H 	H 	0.32130 0.32030 0.60200 0.04400
H 	H 	0.36050 0.13730 0.63750 0.02900
H 	H 	0.66810 0.12740 0.57060 0.07300
H 	H 	0.55910 0.05410 0.61780 0.06200
H 	H 	0.52150 0.90790 0.53490 0.02700
H 	H 	0.39290 0.93950 0.54100 0.03500
H 	H 	0.40420 0.59550 0.83920 -0.00300
H 	H 	0.14700 0.23730 0.78060 0.01100
H 	H 	0.27460 0.21660 0.86510 0.03800
H 	H 	0.42420 0.44070 0.95710 0.07600
H 	H 	0.53060 0.55630 0.92220 0.06800
H 	H 	0.51170 0.29720 0.91720 0.06800
H 	H 	0.62890 0.42020 0.95220 0.07500
H 	H 	0.59690 0.38860 0.82700 0.06800
H 	H 	0.71340 0.51340 0.86160 0.07300
H 	H 	0.81210 0.38340 0.89720 0.06400
H 	H 	0.69110 0.25440 0.86800 0.05300
H 	H 	0.01750 0.49960 0.83420 -0.01500
H 	H 	0.88740 0.29410 0.68180 0.02600
H 	H 	0.68910 0.22160 0.74780 0.03400
H 	H 	0.47050 0.46600 0.73420 -0.00800
H 	H 	0.40990 0.70690 0.63320 0.02900
H 	H 	0.63630 0.71520 0.61110 0.04400
H 	H 	0.72830 0.51210 0.63910 0.04800
H 	H 	0.70330 0.48810 0.70660 0.04700
H 	H 	0.92500 0.64910 0.69530 0.06900
H 	H 	0.86720 0.73440 0.66220 0.08000
H 	H 	0.83450 0.68770 0.78310 0.07200
H 	H 	0.76470 0.76440 0.75070 0.07600
H 	H 	0.05690 0.85650 0.76620 0.04200
H 	H 	0.99000 0.93180 0.73080 0.05500
H 	H 	0.04830 0.87630 0.88040 0.02800
H 	H 	0.86500 0.05840 0.79570 0.04300
H 	H 	0.87570 0.12050 0.90160 0.03400
H 	H 	0.05010 0.41800 0.41150 0.05600
H 	H 	0.19120 0.49650 0.95500 0.03100
H 	H 	0.36090 0.68600 0.48110 0.00700
H 	H 	0.67870 0.67970 0.39800 0.04900
H 	H 	0.63950 0.86270 0.36250 0.03900
H 	H 	0.33190 0.87260 0.42940 0.02900
H 	H 	0.44090 0.94590 0.38220 0.02600
H 	H 	0.47850 0.09210 0.46510 0.09900
H 	H 	0.60710 0.06050 0.45900 0.10200
H 	H 	0.59580 0.40450 0.16080 -0.01000
H 	H 	0.85300 0.76270 0.21940 0.02600
H 	H 	0.72540 0.78340 0.13490 0.04400
H 	H 	0.57580 0.55930 0.04290 0.05400
H 	H 	0.46940 0.44370 0.07780 0.05300
H 	H 	0.48830 0.70280 0.08280 0.06800
H 	H 	0.37110 0.57980 0.04780 0.06500
H 	H 	0.40310 0.61140 0.17300 0.06800
H 	H 	0.28660 0.48660 0.13840 0.06800
H 	H 	0.18790 0.61660 0.10280 0.05400
H 	H 	0.30890 0.74560 0.13200 0.05500
H 	H 	0.98250 0.50040 0.16580 0.03300
H 	H 	0.11260 0.70590 0.31820 0.03400
H 	H 	0.31090 0.77840 0.25220 0.03500
H 	H 	0.52950 0.53400 0.26580 -0.00600
H 	H 	0.59010 0.29310 0.36680 0.02300
H 	H 	0.36370 0.28480 0.38890 0.03800
H 	H 	0.27170 0.48790 0.36090 0.04600
H 	H 	0.29670 0.51190 0.29340 0.04600
H 	H 	0.07500 0.35090 0.30470 0.06100
H 	H 	0.13280 0.26560 0.33780 0.07300
H 	H 	0.16550 0.31230 0.21690 0.05900
H 	H 	0.23530 0.23560 0.24930 0.06100
H 	H 	0.94310 0.14350 0.23380 0.07100
H 	H 	0.01000 0.06820 0.26920 0.04700
H 	H 	0.95170 0.12370 0.11960 0.02600
H 	H 	0.13500 0.94160 0.20430 0.03100
H 	H 	0.12430 0.87950 0.09840 0.03400
H 	H 	0.94990 0.58200 0.58850 0.03800
H 	H 	0.80880 0.50350 0.04500 0.07600
C 	C 	0.56520 0.29370 0.54410 0.07600
C 	C 	0.39090 0.29640 0.58980 0.00900
C 	C 	0.41170 0.19490 0.60960 -0.00900
C 	C 	0.57020 0.08950 0.57900 -0.13400
C 	C 	0.49060 0.97720 0.53240 0.03700
C 	C 	0.35520 0.50340 0.83503 0.09000
C 	C 	0.21520 0.30780 0.80320 0.01200
C 	C 	0.28510 0.29540 0.84970 -0.00800
C 	C 	0.47460 0.46100 0.92063 -0.06500
C 	C 	0.56810 0.39220 0.91698 -0.09400
C 	C 	0.65650 0.41860 0.86251 -0.10500
C 	C 	0.74820 0.34780 0.86313 -0.05000
C 	C 	0.96120 0.43950 0.80407 0.12600
C 	C 	0.88950 0.32700 0.72091 0.02500
C 	C 	0.77870 0.28590 0.75710 -0.01700
C 	C 	0.48240 0.52660 0.70596 0.09200
C 	C 	0.45000 0.65840 0.65063 0.01200
C 	C 	0.57540 0.66370 0.63851 -0.02600
C 	C 	0.71810 0.55200 0.67720 -0.04100
C 	C 	0.84880 0.67390 0.69340 -0.10900
C 	C 	0.84470 0.74500 0.75122 -0.10700
C 	C 	0.97710 0.87570 0.76337 -0.02900
C 	C 	0.00480 0.93010 0.87269 0.09100
C 	C 	0.90360 0.03010 0.82560 -0.03700
C 	C 	0.90960 0.06350 0.88390 0.02500
C 	C 	0.20550 0.39590 0.49502 0.32600
C 	C 	0.09160 0.44220 0.49943 -0.02800
C 	C 	0.03080 0.45220 0.44711 -0.05100
C 	C 	0.05900 0.48740 0.55311 -0.07600
C 	C 	0.11090 0.46680 0.61174 0.32500
C 	C 	0.07190 0.27890 0.00829 0.32200
C 	C 	0.03110 0.39230 0.00660 -0.13600
C 	C 	0.91720 0.39480 0.03364 0.02500
C 	C 	0.11390 0.49810 0.97308 0.06500
C 	C 	0.82350 0.29130 0.07390 0.28600
C 	C 	0.43480 0.70630 0.45590 0.09100
C 	C 	0.60910 0.70360 0.41020 0.01000
C 	C 	0.58830 0.80510 0.39040 0.00500
C 	C 	0.42980 0.91050 0.42100 0.04100
C 	C 	0.50940 0.02280 0.46760 -0.24200
C 	C 	0.64480 0.49660 0.16497 0.09100
C 	C 	0.78480 0.69220 0.19680 0.01400
C 	C 	0.71490 0.70460 0.15030 -0.00700
C 	C 	0.52540 0.53900 0.07937 -0.05100
C 	C 	0.43190 0.60780 0.08302 -0.10100
C 	C 	0.34350 0.58140 0.13749 -0.10100
C 	C 	0.25180 0.65220 0.13687 -0.05500
C 	C 	0.03880 0.56050 0.19593 0.03700
C 	C 	0.11050 0.67300 0.27909 -0.00700
C 	C 	0.22130 0.71410 0.24290 -0.00400
C 	C 	0.51760 0.47340 0.29404 0.09100
C 	C 	0.55000 0.34160 0.34937 0.00900
C 	C 	0.42460 0.33630 0.36149 -0.02700
C 	C 	0.28190 0.44800 0.32280 -0.03900
C 	C 	0.15120 0.32610 0.30660 -0.11700
C 	C 	0.15530 0.25500 0.24878 -0.08300
C 	C 	0.02290 0.12430 0.23663 -0.08800
C 	C 	0.99520 0.06990 0.12731 0.08800
C 	C 	0.09640 0.96990 0.17440 0.02400
C 	C 	0.09040 0.93650 0.11610 -0.00100
C 	C 	0.79450 0.60410 0.50498 0.34000
C 	C 	0.90840 0.55780 0.50057 -0.06600
C 	C 	0.96920 0.54780 0.55289 0.02900
C 	C 	0.94100 0.51260 0.44689 -0.01000
C 	C 	0.88910 0.53320 0.38826 0.30600
C 	C 	0.92810 0.72110 0.99171 0.31000
C 	C 	0.96890 0.60770 0.99340 0.03000
C 	C 	0.08280 0.60520 0.96636 -0.09700
C 	C 	0.88610 0.50190 0.02692 -0.10600
C 	C 	0.17650 0.70870 0.92610 0.32600
N 	N 	0.52270 0.19380 0.58048 -0.10500
N 	N 	0.48800 0.35870 0.54907 -0.21400
N 	N 	0.39080 0.56910 0.69319 -0.22000
N 	N 	0.59620 0.58030 0.67369 -0.11600
N 	N 	0.96620 0.94550 0.81869 -0.09700
N 	N 	0.97340 0.00070 0.91347 -0.21300
N 	N 	0.25770 0.43790 0.79383 -0.22900
N 	N 	0.37490 0.42120 0.87001 -0.11100
N 	N 	0.82780 0.35930 0.80965 -0.12100
N 	N 	0.00410 0.42360 0.75057 -0.23900
N 	N 	0.47730 0.80620 0.41952 -0.12600
N 	N 	0.51200 0.64130 0.45093 -0.21400
N 	N 	0.60920 0.43090 0.30681 -0.22000
N 	N 	0.40380 0.41970 0.32631 -0.11700
N 	N 	0.03380 0.05450 0.18131 -0.13700
N 	N 	0.02660 0.99930 0.08653 -0.20500
N 	N 	0.74230 0.56210 0.20617 -0.22800
N 	N 	0.62510 0.57880 0.12999 -0.11500
N 	N 	0.17220 0.64070 0.19035 -0.10900
N 	N 	0.99590 0.57640 0.24943 -0.19600
O 	O 	0.18670 0.29530 0.46377 -0.28700
O 	O 	0.31730 0.47750 0.52138 -0.39500
O 	O 	0.11730 0.36150 0.61809 -0.30600
O 	O 	0.13930 0.55980 0.65255 -0.39400
O 	O 	0.97340 0.16440 0.01194 -0.37900
O 	O 	0.19550 0.30390 0.00514 -0.30800
O 	O 	0.87380 0.28210 0.12131 -0.25400
O 	O 	0.69980 0.22800 0.05745 -0.24800
O 	O 	0.81330 0.70470 0.53623 -0.27700
O 	O 	0.68270 0.52250 0.47862 -0.39900
O 	O 	0.88270 0.63850 0.38191 -0.28800
O 	O 	0.86070 0.44020 0.34745 -0.38400
O 	O 	0.02660 0.83560 0.98806 -0.36400
O 	O 	0.80450 0.69610 0.99486 -0.26900
O 	O 	0.12620 0.71790 0.87869 -0.26500
O 	O 	0.30020 0.77200 0.94255 -0.23200
