data_crystal

_cell_length_a 38.33230
_cell_length_b 15.18480
_cell_length_c 32.19450
_cell_angle_alpha 90.00000
_cell_angle_beta  91.65530
_cell_angle_gamma 90.00000

_symmetry_space_group_name_	'P 1'
_symmetry_space_group_name_H-M	'P 1'

loop_
_symmetry_equiv_pos_as_xyz
  x,y,z

loop_
_atom_site_label
_atom_site_type_symbol
_atom_site_fract_x
_atom_site_fract_y
_atom_site_fract_z
_atom_site_charge
In	In	0.78590 0.04024 0.80123 1.99700
O 	O 	0.74270 0.06110 0.75276 -0.43700
O 	O 	0.75807 0.92570 0.76800 -0.41900
O 	O 	0.31493 0.64170 0.76391 -0.45800
O 	O 	0.32898 0.50410 0.75737 -0.43900
O 	O 	0.74468 0.97820 0.34705 -0.45500
O 	O 	0.75883 0.84180 0.33424 -0.42100
O 	O 	0.31291 0.57150 0.33846 -0.41600
O 	O 	0.32925 0.43440 0.34840 -0.44700
C 	C 	0.73882 0.97910 0.74819 0.30400
C 	C 	0.71050 0.94390 0.71981 -0.07600
C 	C 	0.68748 0.00300 0.69961 0.01900
H 	H 	0.69040 0.06340 0.70290 0.04800
C 	C 	0.66009 0.96980 0.67450 -0.10400
H 	H 	0.64480 0.00870 0.66110 0.06900
C 	C 	0.65547 0.88010 0.66950 0.06200
C 	C 	0.67923 0.82200 0.68844 -0.10300
H 	H 	0.67700 0.76170 0.68400 0.08400
C 	C 	0.70630 0.85410 0.71403 0.02800
H 	H 	0.72160 0.81500 0.72730 0.05700
C 	C 	0.62582 0.84600 0.64419 -0.01700
C 	C 	0.61164 0.89110 0.61070 -0.02300
H 	H 	0.62110 0.94530 0.60370 0.03900
C 	C 	0.58378 0.85870 0.58703 -0.08600
H 	H 	0.57500 0.89080 0.56450 0.06300
C 	C 	0.56880 0.77750 0.59705 0.05100
C 	C 	0.58210 0.73230 0.63140 -0.08600
H 	H 	0.57160 0.67990 0.63930 0.06500
C 	C 	0.61028 0.76320 0.65385 -0.02200
H 	H 	0.61950 0.72990 0.67580 0.04800
C 	C 	0.53837 0.74040 0.57247 -0.04500
C 	C 	0.50789 0.71690 0.59801 0.06500
C 	C 	0.49270 0.77870 0.62280 -0.10600
H 	H 	0.50140 0.83590 0.62320 0.06800
C 	C 	0.46513 0.75810 0.64680 -0.00200
H 	H 	0.45550 0.80190 0.66310 0.03100
C 	C 	0.45109 0.67520 0.64773 -0.03700
C 	C 	0.46811 0.61290 0.62550 -0.00200
H 	H 	0.46170 0.55420 0.62820 0.03000
C 	C 	0.49437 0.63390 0.59940 -0.10300
H 	H 	0.50320 0.59060 0.58220 0.06700
C 	C 	0.42061 0.65250 0.67355 0.08300
C 	C 	0.39978 0.71570 0.69040 -0.12900
H 	H 	0.40450 0.77470 0.68520 0.07800
C 	C 	0.37173 0.69410 0.71520 0.04900
H 	H 	0.35830 0.73860 0.72640 0.03400
C 	C 	0.36393 0.60830 0.72304 -0.10600
C 	C 	0.38470 0.54380 0.70680 0.04700
H 	H 	0.38040 0.48490 0.71290 0.03800
C 	C 	0.41220 0.56600 0.68110 -0.12700
H 	H 	0.42500 0.52150 0.66880 0.07700
C 	C 	0.33388 0.58470 0.74940 0.33200
C 	C 	0.53859 0.72850 0.53111 -0.03600
C 	C 	0.56946 0.74860 0.50554 0.04900
C 	C 	0.56648 0.81320 0.47492 -0.08500
H 	H 	0.54520 0.84140 0.47000 0.06200
C 	C 	0.59513 0.83590 0.45171 -0.02500
H 	H 	0.59300 0.88170 0.43270 0.03900
C 	C 	0.62663 0.79250 0.45603 -0.01800
C 	C 	0.62922 0.72580 0.48595 -0.02500
H 	H 	0.65000 0.69470 0.48920 0.04400
C 	C 	0.60124 0.70480 0.51106 -0.08300
H 	H 	0.60380 0.66170 0.53140 0.06400
C 	C 	0.65695 0.81780 0.43090 0.06600
C 	C 	0.66277 0.90460 0.42140 -0.11100
H 	H 	0.64760 0.94680 0.43150 0.07200
C 	C 	0.69036 0.93240 0.39750 0.03000
H 	H 	0.69420 0.99190 0.39270 0.04400
C 	C 	0.71203 0.86820 0.38090 -0.08800
C 	C 	0.70709 0.78180 0.39022 0.03300
H 	H 	0.72200 0.73960 0.37960 0.04200
C 	C 	0.67974 0.75510 0.41565 -0.11100
H 	H 	0.67690 0.69590 0.42220 0.07500
C 	C 	0.74017 0.89650 0.35259 0.31400
C 	C 	0.50745 0.69780 0.50655 0.05000
C 	C 	0.47526 0.73950 0.50849 -0.08700
H 	H 	0.47260 0.78690 0.52640 0.06400
C 	C 	0.44731 0.71150 0.48406 -0.02100
H 	H 	0.42640 0.74230 0.48500 0.03900
C 	C 	0.44946 0.63850 0.45810 -0.02100
C 	C 	0.48184 0.59610 0.45630 -0.02100
H 	H 	0.48440 0.54770 0.43900 0.03500
C 	C 	0.51004 0.62580 0.48002 -0.08900
H 	H 	0.53130 0.59680 0.47820 0.06400
C 	C 	0.41887 0.60550 0.43228 0.06600
C 	C 	0.39504 0.66490 0.41548 -0.11400
H 	H 	0.39800 0.72480 0.42030 0.07200
C 	C 	0.36678 0.63560 0.39147 0.03200
H 	H 	0.35080 0.67600 0.38040 0.04300
C 	C 	0.36215 0.54850 0.38393 -0.08200
C 	C 	0.38543 0.48650 0.40157 0.02200
H 	H 	0.38190 0.42660 0.39740 0.04000
C 	C 	0.41416 0.51680 0.42559 -0.11200
H 	H 	0.43010 0.47670 0.43700 0.06800
C 	C 	0.33293 0.51620 0.35553 0.30400
In	In	0.28590 0.54024 0.80123 1.99800
O 	O 	0.24270 0.56110 0.75276 -0.43500
O 	O 	0.25807 0.42570 0.76800 -0.41800
O 	O 	0.81493 0.14170 0.76391 -0.45700
O 	O 	0.82898 0.00410 0.75737 -0.43800
O 	O 	0.24468 0.47820 0.34705 -0.45400
O 	O 	0.25883 0.34180 0.33424 -0.42000
O 	O 	0.81291 0.07150 0.33846 -0.41500
O 	O 	0.82925 0.93440 0.34840 -0.44700
C 	C 	0.23882 0.47910 0.74819 0.30500
C 	C 	0.21050 0.44390 0.71981 -0.07600
C 	C 	0.18748 0.50300 0.69961 0.02200
H 	H 	0.19040 0.56340 0.70290 0.04900
C 	C 	0.16009 0.46980 0.67450 -0.10500
H 	H 	0.14480 0.50870 0.66110 0.07100
C 	C 	0.15547 0.38010 0.66950 0.06400
C 	C 	0.17923 0.32200 0.68844 -0.10200
H 	H 	0.17700 0.26170 0.68400 0.08600
C 	C 	0.20630 0.35410 0.71403 0.02900
H 	H 	0.22160 0.31500 0.72730 0.05800
C 	C 	0.12582 0.34600 0.64419 -0.01600
C 	C 	0.11164 0.39110 0.61070 -0.02200
H 	H 	0.12110 0.44530 0.60370 0.03900
C 	C 	0.08378 0.35870 0.58703 -0.08600
H 	H 	0.07500 0.39080 0.56450 0.06400
C 	C 	0.06880 0.27750 0.59705 0.05300
C 	C 	0.08210 0.23230 0.63140 -0.08600
H 	H 	0.07160 0.17990 0.63930 0.06600
C 	C 	0.11028 0.26320 0.65385 -0.02000
H 	H 	0.11950 0.22990 0.67580 0.04800
C 	C 	0.03837 0.24040 0.57247 -0.04400
C 	C 	0.00789 0.21690 0.59801 0.06600
C 	C 	0.99270 0.27870 0.62280 -0.10500
H 	H 	0.00140 0.33590 0.62320 0.06900
C 	C 	0.96513 0.25810 0.64680 -0.00200
H 	H 	0.95550 0.30190 0.66310 0.03100
C 	C 	0.95109 0.17520 0.64773 -0.03700
C 	C 	0.96811 0.11290 0.62550 -0.00200
H 	H 	0.96170 0.05420 0.62820 0.03000
C 	C 	0.99437 0.13390 0.59940 -0.10300
H 	H 	0.00320 0.09060 0.58220 0.06700
C 	C 	0.92061 0.15250 0.67355 0.08300
C 	C 	0.89978 0.21570 0.69040 -0.12900
H 	H 	0.90450 0.27470 0.68520 0.07800
C 	C 	0.87173 0.19410 0.71520 0.04800
H 	H 	0.85830 0.23860 0.72640 0.03400
C 	C 	0.86393 0.10830 0.72304 -0.10600
C 	C 	0.88470 0.04380 0.70680 0.04600
H 	H 	0.88040 0.98490 0.71290 0.03800
C 	C 	0.91220 0.06600 0.68110 -0.12600
H 	H 	0.92500 0.02150 0.66880 0.07700
C 	C 	0.83388 0.08470 0.74940 0.33200
C 	C 	0.03859 0.22850 0.53111 -0.03600
C 	C 	0.06946 0.24860 0.50554 0.04900
C 	C 	0.06648 0.31320 0.47492 -0.08500
H 	H 	0.04520 0.34140 0.47000 0.06200
C 	C 	0.09513 0.33590 0.45171 -0.02500
H 	H 	0.09300 0.38170 0.43270 0.03900
C 	C 	0.12663 0.29250 0.45603 -0.01800
C 	C 	0.12922 0.22580 0.48595 -0.02500
H 	H 	0.15000 0.19470 0.48920 0.04400
C 	C 	0.10124 0.20480 0.51106 -0.08300
H 	H 	0.10380 0.16170 0.53140 0.06400
C 	C 	0.15695 0.31780 0.43090 0.06600
C 	C 	0.16277 0.40460 0.42140 -0.11100
H 	H 	0.14760 0.44680 0.43150 0.07200
C 	C 	0.19036 0.43240 0.39750 0.03000
H 	H 	0.19420 0.49190 0.39270 0.04400
C 	C 	0.21203 0.36820 0.38090 -0.08800
C 	C 	0.20709 0.28180 0.39022 0.03300
H 	H 	0.22200 0.23960 0.37960 0.04200
C 	C 	0.17974 0.25510 0.41565 -0.11100
H 	H 	0.17690 0.19590 0.42220 0.07500
C 	C 	0.24017 0.39650 0.35259 0.31400
C 	C 	0.00745 0.19780 0.50655 0.05000
C 	C 	0.97526 0.23950 0.50849 -0.08700
H 	H 	0.97260 0.28690 0.52640 0.06400
C 	C 	0.94731 0.21150 0.48406 -0.02200
H 	H 	0.92640 0.24230 0.48500 0.03900
C 	C 	0.94946 0.13850 0.45810 -0.02100
C 	C 	0.98184 0.09610 0.45630 -0.02200
H 	H 	0.98440 0.04770 0.43900 0.03600
C 	C 	0.01004 0.12580 0.48002 -0.08900
H 	H 	0.03130 0.09680 0.47820 0.06400
C 	C 	0.91887 0.10550 0.43228 0.06600
C 	C 	0.89504 0.16490 0.41548 -0.11300
H 	H 	0.89800 0.22480 0.42030 0.07200
C 	C 	0.86678 0.13560 0.39147 0.03100
H 	H 	0.85080 0.17600 0.38040 0.04300
C 	C 	0.86215 0.04850 0.38393 -0.08100
C 	C 	0.88543 0.98650 0.40157 0.02100
H 	H 	0.88190 0.92660 0.39740 0.04000
C 	C 	0.91416 0.01680 0.42559 -0.11100
H 	H 	0.93010 0.97670 0.43700 0.06800
C 	C 	0.83293 0.01620 0.35553 0.30400
In	In	0.78590 0.95976 0.30123 1.99800
O 	O 	0.74270 0.93890 0.25276 -0.43600
O 	O 	0.75807 0.07430 0.26800 -0.41800
O 	O 	0.31493 0.35830 0.26391 -0.45700
O 	O 	0.32898 0.49590 0.25737 -0.43800
O 	O 	0.74468 0.02180 0.84705 -0.45400
O 	O 	0.75883 0.15820 0.83424 -0.42000
O 	O 	0.31291 0.42850 0.83846 -0.41500
O 	O 	0.32925 0.56560 0.84840 -0.44600
C 	C 	0.73882 0.02090 0.24819 0.30500
C 	C 	0.71050 0.05610 0.21981 -0.07500
C 	C 	0.68748 0.99700 0.19961 0.02000
H 	H 	0.69040 0.93660 0.20290 0.04900
C 	C 	0.66009 0.03020 0.17450 -0.10300
H 	H 	0.64480 0.99130 0.16110 0.07000
C 	C 	0.65547 0.11990 0.16950 0.06300
C 	C 	0.67923 0.17800 0.18844 -0.10100
H 	H 	0.67700 0.23830 0.18400 0.08500
C 	C 	0.70630 0.14590 0.21403 0.02800
H 	H 	0.72160 0.18500 0.22730 0.05800
C 	C 	0.62582 0.15400 0.14419 -0.01600
C 	C 	0.61164 0.10890 0.11070 -0.02200
H 	H 	0.62110 0.05470 0.10370 0.04000
C 	C 	0.58378 0.14130 0.08703 -0.08500
H 	H 	0.57500 0.10920 0.06450 0.06400
C 	C 	0.56880 0.22250 0.09705 0.05200
C 	C 	0.58210 0.26770 0.13140 -0.08500
H 	H 	0.57160 0.32010 0.13930 0.06600
C 	C 	0.61028 0.23680 0.15385 -0.02100
H 	H 	0.61950 0.27010 0.17580 0.04900
C 	C 	0.53837 0.25960 0.07247 -0.04400
C 	C 	0.50789 0.28310 0.09801 0.06600
C 	C 	0.49270 0.22130 0.12280 -0.10500
H 	H 	0.50140 0.16410 0.12320 0.06900
C 	C 	0.46513 0.24190 0.14680 -0.00200
H 	H 	0.45550 0.19810 0.16310 0.03100
C 	C 	0.45109 0.32480 0.14773 -0.03700
C 	C 	0.46811 0.38710 0.12550 -0.00200
H 	H 	0.46170 0.44580 0.12820 0.03000
C 	C 	0.49437 0.36610 0.09940 -0.10300
H 	H 	0.50320 0.40940 0.08220 0.06700
C 	C 	0.42061 0.34750 0.17355 0.08300
C 	C 	0.39978 0.28430 0.19040 -0.12900
H 	H 	0.40450 0.22530 0.18520 0.07800
C 	C 	0.37173 0.30590 0.21520 0.04900
H 	H 	0.35830 0.26140 0.22640 0.03400
C 	C 	0.36393 0.39170 0.22304 -0.10600
C 	C 	0.38470 0.45620 0.20680 0.04700
H 	H 	0.38040 0.51510 0.21290 0.03800
C 	C 	0.41220 0.43400 0.18110 -0.12700
H 	H 	0.42500 0.47850 0.16880 0.07700
C 	C 	0.33388 0.41530 0.24940 0.33200
C 	C 	0.53859 0.27150 0.03111 -0.03700
C 	C 	0.56946 0.25140 0.00554 0.04900
C 	C 	0.56648 0.18680 0.97492 -0.08500
H 	H 	0.54520 0.15860 0.97000 0.06200
C 	C 	0.59513 0.16410 0.95171 -0.02500
H 	H 	0.59300 0.11830 0.93270 0.03900
C 	C 	0.62663 0.20750 0.95603 -0.01800
C 	C 	0.62922 0.27420 0.98595 -0.02500
H 	H 	0.65000 0.30530 0.98920 0.04400
C 	C 	0.60124 0.29520 0.01106 -0.08300
H 	H 	0.60380 0.33830 0.03140 0.06400
C 	C 	0.65695 0.18220 0.93090 0.06600
C 	C 	0.66277 0.09540 0.92140 -0.11100
H 	H 	0.64760 0.05320 0.93150 0.07200
C 	C 	0.69036 0.06760 0.89750 0.03000
H 	H 	0.69420 0.00810 0.89270 0.04400
C 	C 	0.71203 0.13180 0.88090 -0.08800
C 	C 	0.70709 0.21820 0.89022 0.03300
H 	H 	0.72200 0.26040 0.87960 0.04200
C 	C 	0.67974 0.24490 0.91565 -0.11100
H 	H 	0.67690 0.30410 0.92220 0.07500
C 	C 	0.74017 0.10350 0.85259 0.31400
C 	C 	0.50745 0.30220 0.00655 0.05000
C 	C 	0.47526 0.26050 0.00849 -0.08700
H 	H 	0.47260 0.21310 0.02640 0.06400
C 	C 	0.44731 0.28850 0.98406 -0.02200
H 	H 	0.42640 0.25770 0.98500 0.03900
C 	C 	0.44946 0.36150 0.95810 -0.02100
C 	C 	0.48184 0.40390 0.95630 -0.02100
H 	H 	0.48440 0.45230 0.93900 0.03500
C 	C 	0.51004 0.37420 0.98002 -0.08900
H 	H 	0.53130 0.40320 0.97820 0.06400
C 	C 	0.41887 0.39450 0.93228 0.06600
C 	C 	0.39504 0.33510 0.91548 -0.11400
H 	H 	0.39800 0.27520 0.92030 0.07200
C 	C 	0.36678 0.36440 0.89147 0.03200
H 	H 	0.35080 0.32400 0.88040 0.04300
C 	C 	0.36215 0.45150 0.88393 -0.08200
C 	C 	0.38543 0.51350 0.90157 0.02200
H 	H 	0.38190 0.57340 0.89740 0.04000
C 	C 	0.41416 0.48320 0.92559 -0.11200
H 	H 	0.43010 0.52330 0.93700 0.06800
C 	C 	0.33293 0.48380 0.85553 0.30400
In	In	0.28590 0.45976 0.30123 1.99800
O 	O 	0.24270 0.43890 0.25276 -0.43500
O 	O 	0.25807 0.57430 0.26800 -0.41800
O 	O 	0.81493 0.85830 0.26391 -0.45700
O 	O 	0.82898 0.99590 0.25737 -0.43800
O 	O 	0.24468 0.52180 0.84705 -0.45400
O 	O 	0.25883 0.65820 0.83424 -0.42000
O 	O 	0.81291 0.92850 0.83846 -0.41500
O 	O 	0.82925 0.06560 0.84840 -0.44700
C 	C 	0.23882 0.52090 0.24819 0.30500
C 	C 	0.21050 0.55610 0.21981 -0.07600
C 	C 	0.18748 0.49700 0.19961 0.02200
H 	H 	0.19040 0.43660 0.20290 0.04900
C 	C 	0.16009 0.53020 0.17450 -0.10500
H 	H 	0.14480 0.49130 0.16110 0.07100
C 	C 	0.15547 0.61990 0.16950 0.06400
C 	C 	0.17923 0.67800 0.18844 -0.10200
H 	H 	0.17700 0.73830 0.18400 0.08600
C 	C 	0.20630 0.64590 0.21403 0.02900
H 	H 	0.22160 0.68500 0.22730 0.05800
C 	C 	0.12582 0.65400 0.14419 -0.01600
C 	C 	0.11164 0.60890 0.11070 -0.02200
H 	H 	0.12110 0.55470 0.10370 0.03900
C 	C 	0.08378 0.64130 0.08703 -0.08600
H 	H 	0.07500 0.60920 0.06450 0.06400
C 	C 	0.06880 0.72250 0.09705 0.05300
C 	C 	0.08210 0.76770 0.13140 -0.08600
H 	H 	0.07160 0.82010 0.13930 0.06600
C 	C 	0.11028 0.73680 0.15385 -0.02000
H 	H 	0.11950 0.77010 0.17580 0.04800
C 	C 	0.03837 0.75960 0.07247 -0.04400
C 	C 	0.00789 0.78310 0.09801 0.06500
C 	C 	0.99270 0.72130 0.12280 -0.10500
H 	H 	0.00140 0.66410 0.12320 0.06900
C 	C 	0.96513 0.74190 0.14680 -0.00300
H 	H 	0.95550 0.69810 0.16310 0.03100
C 	C 	0.95109 0.82480 0.14773 -0.03700
C 	C 	0.96811 0.88710 0.12550 -0.00200
H 	H 	0.96170 0.94580 0.12820 0.03000
C 	C 	0.99437 0.86610 0.09940 -0.10300
H 	H 	0.00320 0.90940 0.08220 0.06700
C 	C 	0.92061 0.84750 0.17355 0.08300
C 	C 	0.89978 0.78430 0.19040 -0.12800
H 	H 	0.90450 0.72530 0.18520 0.07800
C 	C 	0.87173 0.80590 0.21520 0.04800
H 	H 	0.85830 0.76140 0.22640 0.03400
C 	C 	0.86393 0.89170 0.22304 -0.10600
C 	C 	0.88470 0.95620 0.20680 0.04600
H 	H 	0.88040 0.01510 0.21290 0.03800
C 	C 	0.91220 0.93400 0.18110 -0.12600
H 	H 	0.92500 0.97850 0.16880 0.07700
C 	C 	0.83388 0.91530 0.24940 0.33200
C 	C 	0.03859 0.77150 0.03111 -0.03600
C 	C 	0.06946 0.75140 0.00554 0.04900
C 	C 	0.06648 0.68680 0.97492 -0.08500
H 	H 	0.04520 0.65860 0.97000 0.06200
C 	C 	0.09513 0.66410 0.95171 -0.02500
H 	H 	0.09300 0.61830 0.93270 0.03900
C 	C 	0.12663 0.70750 0.95603 -0.01800
C 	C 	0.12922 0.77420 0.98595 -0.02400
H 	H 	0.15000 0.80530 0.98920 0.04400
C 	C 	0.10124 0.79520 0.01106 -0.08300
H 	H 	0.10380 0.83830 0.03140 0.06400
C 	C 	0.15695 0.68220 0.93090 0.06600
C 	C 	0.16277 0.59540 0.92140 -0.11100
H 	H 	0.14760 0.55320 0.93150 0.07200
C 	C 	0.19036 0.56760 0.89750 0.03000
H 	H 	0.19420 0.50810 0.89270 0.04400
C 	C 	0.21203 0.63180 0.88090 -0.08800
C 	C 	0.20709 0.71820 0.89022 0.03300
H 	H 	0.22200 0.76040 0.87960 0.04200
C 	C 	0.17974 0.74490 0.91565 -0.11100
H 	H 	0.17690 0.80410 0.92220 0.07500
C 	C 	0.24017 0.60350 0.85259 0.31400
C 	C 	0.00745 0.80220 0.00655 0.05000
C 	C 	0.97526 0.76050 0.00849 -0.08700
H 	H 	0.97260 0.71310 0.02640 0.06300
C 	C 	0.94731 0.78850 0.98406 -0.02200
H 	H 	0.92640 0.75770 0.98500 0.03900
C 	C 	0.94946 0.86150 0.95810 -0.02100
C 	C 	0.98184 0.90390 0.95630 -0.02200
H 	H 	0.98440 0.95230 0.93900 0.03600
C 	C 	0.01004 0.87420 0.98002 -0.08800
H 	H 	0.03130 0.90320 0.97820 0.06400
C 	C 	0.91887 0.89450 0.93228 0.06500
C 	C 	0.89504 0.83510 0.91548 -0.11300
H 	H 	0.89800 0.77520 0.92030 0.07200
C 	C 	0.86678 0.86440 0.89147 0.03100
H 	H 	0.85080 0.82400 0.88040 0.04300
C 	C 	0.86215 0.95150 0.88393 -0.08000
C 	C 	0.88543 0.01350 0.90157 0.02000
H 	H 	0.88190 0.07340 0.89740 0.04100
C 	C 	0.91416 0.98320 0.92559 -0.10900
H 	H 	0.93010 0.02330 0.93700 0.06700
C 	C 	0.83293 0.98380 0.85553 0.30400
In	In	0.21410 0.04024 0.69877 1.99800
O 	O 	0.25730 0.06110 0.74724 -0.43600
O 	O 	0.24193 0.92570 0.73200 -0.41800
O 	O 	0.68507 0.64170 0.73609 -0.45700
O 	O 	0.67102 0.50410 0.74263 -0.43800
O 	O 	0.25532 0.97820 0.15295 -0.45400
O 	O 	0.24117 0.84180 0.16576 -0.42000
O 	O 	0.68709 0.57150 0.16154 -0.41500
O 	O 	0.67075 0.43440 0.15160 -0.44600
C 	C 	0.26118 0.97910 0.75181 0.30500
C 	C 	0.28950 0.94390 0.78019 -0.07500
C 	C 	0.31252 0.00300 0.80039 0.02000
H 	H 	0.30960 0.06340 0.79710 0.04900
C 	C 	0.33991 0.96980 0.82550 -0.10300
H 	H 	0.35520 0.00870 0.83890 0.07000
C 	C 	0.34453 0.88010 0.83050 0.06300
C 	C 	0.32077 0.82200 0.81156 -0.10100
H 	H 	0.32300 0.76170 0.81600 0.08500
C 	C 	0.29370 0.85410 0.78597 0.02800
H 	H 	0.27840 0.81500 0.77270 0.05800
C 	C 	0.37418 0.84600 0.85581 -0.01600
C 	C 	0.38836 0.89110 0.88930 -0.02200
H 	H 	0.37890 0.94530 0.89630 0.04000
C 	C 	0.41622 0.85870 0.91297 -0.08500
H 	H 	0.42500 0.89080 0.93550 0.06400
C 	C 	0.43120 0.77750 0.90295 0.05200
C 	C 	0.41790 0.73230 0.86860 -0.08500
H 	H 	0.42840 0.67990 0.86070 0.06600
C 	C 	0.38972 0.76320 0.84615 -0.02100
H 	H 	0.38050 0.72990 0.82420 0.04900
C 	C 	0.46163 0.74040 0.92753 -0.04400
C 	C 	0.49211 0.71690 0.90199 0.06600
C 	C 	0.50730 0.77870 0.87720 -0.10500
H 	H 	0.49860 0.83590 0.87680 0.06900
C 	C 	0.53487 0.75810 0.85320 -0.00200
H 	H 	0.54450 0.80190 0.83690 0.03100
C 	C 	0.54891 0.67520 0.85227 -0.03700
C 	C 	0.53189 0.61290 0.87450 -0.00200
H 	H 	0.53830 0.55420 0.87180 0.03000
C 	C 	0.50563 0.63390 0.90060 -0.10300
H 	H 	0.49680 0.59060 0.91780 0.06700
C 	C 	0.57939 0.65250 0.82645 0.08300
C 	C 	0.60022 0.71570 0.80960 -0.12900
H 	H 	0.59550 0.77470 0.81480 0.07800
C 	C 	0.62827 0.69410 0.78480 0.04900
H 	H 	0.64170 0.73860 0.77360 0.03400
C 	C 	0.63607 0.60830 0.77696 -0.10600
C 	C 	0.61530 0.54380 0.79320 0.04700
H 	H 	0.61960 0.48490 0.78710 0.03800
C 	C 	0.58780 0.56600 0.81890 -0.12700
H 	H 	0.57500 0.52150 0.83120 0.07700
C 	C 	0.66612 0.58470 0.75060 0.33200
C 	C 	0.46141 0.72850 0.96889 -0.03700
C 	C 	0.43054 0.74860 0.99446 0.04900
C 	C 	0.43352 0.81320 0.02508 -0.08500
H 	H 	0.45480 0.84140 0.03000 0.06200
C 	C 	0.40487 0.83590 0.04829 -0.02500
H 	H 	0.40700 0.88170 0.06730 0.03900
C 	C 	0.37337 0.79250 0.04397 -0.01800
C 	C 	0.37078 0.72580 0.01405 -0.02500
H 	H 	0.35000 0.69470 0.01080 0.04400
C 	C 	0.39876 0.70480 0.98894 -0.08300
H 	H 	0.39620 0.66170 0.96860 0.06400
C 	C 	0.34305 0.81780 0.06910 0.06600
C 	C 	0.33723 0.90460 0.07860 -0.11100
H 	H 	0.35240 0.94680 0.06850 0.07200
C 	C 	0.30964 0.93240 0.10250 0.03000
H 	H 	0.30580 0.99190 0.10730 0.04400
C 	C 	0.28797 0.86820 0.11910 -0.08800
C 	C 	0.29291 0.78180 0.10978 0.03300
H 	H 	0.27800 0.73960 0.12040 0.04200
C 	C 	0.32026 0.75510 0.08435 -0.11100
H 	H 	0.32310 0.69590 0.07780 0.07500
C 	C 	0.25983 0.89650 0.14741 0.31400
C 	C 	0.49255 0.69780 0.99345 0.05000
C 	C 	0.52474 0.73950 0.99151 -0.08700
H 	H 	0.52740 0.78690 0.97360 0.06400
C 	C 	0.55269 0.71150 0.01594 -0.02200
H 	H 	0.57360 0.74230 0.01500 0.03900
C 	C 	0.55054 0.63850 0.04190 -0.02100
C 	C 	0.51816 0.59610 0.04370 -0.02100
H 	H 	0.51560 0.54770 0.06100 0.03500
C 	C 	0.48996 0.62580 0.01998 -0.08900
H 	H 	0.46870 0.59680 0.02180 0.06400
C 	C 	0.58113 0.60550 0.06772 0.06600
C 	C 	0.60496 0.66490 0.08452 -0.11400
H 	H 	0.60200 0.72480 0.07970 0.07200
C 	C 	0.63322 0.63560 0.10853 0.03200
H 	H 	0.64920 0.67600 0.11960 0.04300
C 	C 	0.63785 0.54850 0.11607 -0.08200
C 	C 	0.61457 0.48650 0.09843 0.02200
H 	H 	0.61810 0.42660 0.10260 0.04000
C 	C 	0.58584 0.51680 0.07441 -0.11200
H 	H 	0.56990 0.47670 0.06300 0.06800
C 	C 	0.66707 0.51620 0.14447 0.30400
In	In	0.71410 0.54024 0.69877 1.99800
O 	O 	0.75730 0.56110 0.74724 -0.43500
O 	O 	0.74193 0.42570 0.73200 -0.41800
O 	O 	0.18507 0.14170 0.73609 -0.45700
O 	O 	0.17102 0.00410 0.74263 -0.43800
O 	O 	0.75532 0.47820 0.15295 -0.45400
O 	O 	0.74117 0.34180 0.16576 -0.42000
O 	O 	0.18709 0.07150 0.16154 -0.41500
O 	O 	0.17075 0.93440 0.15160 -0.44700
C 	C 	0.76118 0.47910 0.75181 0.30500
C 	C 	0.78950 0.44390 0.78019 -0.07600
C 	C 	0.81252 0.50300 0.80039 0.02200
H 	H 	0.80960 0.56340 0.79710 0.04900
C 	C 	0.83991 0.46980 0.82550 -0.10500
H 	H 	0.85520 0.50870 0.83890 0.07100
C 	C 	0.84453 0.38010 0.83050 0.06400
C 	C 	0.82077 0.32200 0.81156 -0.10200
H 	H 	0.82300 0.26170 0.81600 0.08600
C 	C 	0.79370 0.35410 0.78597 0.02900
H 	H 	0.77840 0.31500 0.77270 0.05800
C 	C 	0.87418 0.34600 0.85581 -0.01600
C 	C 	0.88836 0.39110 0.88930 -0.02200
H 	H 	0.87890 0.44530 0.89630 0.03900
C 	C 	0.91622 0.35870 0.91297 -0.08600
H 	H 	0.92500 0.39080 0.93550 0.06400
C 	C 	0.93120 0.27750 0.90295 0.05300
C 	C 	0.91790 0.23230 0.86860 -0.08600
H 	H 	0.92840 0.17990 0.86070 0.06600
C 	C 	0.88972 0.26320 0.84615 -0.02000
H 	H 	0.88050 0.22990 0.82420 0.04800
C 	C 	0.96163 0.24040 0.92753 -0.04400
C 	C 	0.99211 0.21690 0.90199 0.06500
C 	C 	0.00730 0.27870 0.87720 -0.10500
H 	H 	0.99860 0.33590 0.87680 0.06900
C 	C 	0.03487 0.25810 0.85320 -0.00300
H 	H 	0.04450 0.30190 0.83690 0.03100
C 	C 	0.04891 0.17520 0.85227 -0.03700
C 	C 	0.03189 0.11290 0.87450 -0.00200
H 	H 	0.03830 0.05420 0.87180 0.03000
C 	C 	0.00563 0.13390 0.90060 -0.10300
H 	H 	0.99680 0.09060 0.91780 0.06700
C 	C 	0.07939 0.15250 0.82645 0.08300
C 	C 	0.10022 0.21570 0.80960 -0.12800
H 	H 	0.09550 0.27470 0.81480 0.07800
C 	C 	0.12827 0.19410 0.78480 0.04800
H 	H 	0.14170 0.23860 0.77360 0.03400
C 	C 	0.13607 0.10830 0.77696 -0.10600
C 	C 	0.11530 0.04380 0.79320 0.04600
H 	H 	0.11960 0.98490 0.78710 0.03800
C 	C 	0.08780 0.06600 0.81890 -0.12600
H 	H 	0.07500 0.02150 0.83120 0.07700
C 	C 	0.16612 0.08470 0.75060 0.33200
C 	C 	0.96141 0.22850 0.96889 -0.03600
C 	C 	0.93054 0.24860 0.99446 0.04900
C 	C 	0.93352 0.31320 0.02508 -0.08500
H 	H 	0.95480 0.34140 0.03000 0.06200
C 	C 	0.90487 0.33590 0.04829 -0.02500
H 	H 	0.90700 0.38170 0.06730 0.03900
C 	C 	0.87337 0.29250 0.04397 -0.01800
C 	C 	0.87078 0.22580 0.01405 -0.02400
H 	H 	0.85000 0.19470 0.01080 0.04400
C 	C 	0.89876 0.20480 0.98894 -0.08300
H 	H 	0.89620 0.16170 0.96860 0.06400
C 	C 	0.84305 0.31780 0.06910 0.06600
C 	C 	0.83723 0.40460 0.07860 -0.11100
H 	H 	0.85240 0.44680 0.06850 0.07200
C 	C 	0.80964 0.43240 0.10250 0.03000
H 	H 	0.80580 0.49190 0.10730 0.04400
C 	C 	0.78797 0.36820 0.11910 -0.08800
C 	C 	0.79291 0.28180 0.10978 0.03300
H 	H 	0.77800 0.23960 0.12040 0.04200
C 	C 	0.82026 0.25510 0.08435 -0.11100
H 	H 	0.82310 0.19590 0.07780 0.07500
C 	C 	0.75983 0.39650 0.14741 0.31400
C 	C 	0.99255 0.19780 0.99345 0.05000
C 	C 	0.02474 0.23950 0.99151 -0.08700
H 	H 	0.02740 0.28690 0.97360 0.06300
C 	C 	0.05269 0.21150 0.01594 -0.02200
H 	H 	0.07360 0.24230 0.01500 0.03900
C 	C 	0.05054 0.13850 0.04190 -0.02100
C 	C 	0.01816 0.09610 0.04370 -0.02200
H 	H 	0.01560 0.04770 0.06100 0.03600
C 	C 	0.98996 0.12580 0.01998 -0.08800
H 	H 	0.96870 0.09680 0.02180 0.06400
C 	C 	0.08113 0.10550 0.06772 0.06500
C 	C 	0.10496 0.16490 0.08452 -0.11300
H 	H 	0.10200 0.22480 0.07970 0.07200
C 	C 	0.13322 0.13560 0.10853 0.03100
H 	H 	0.14920 0.17600 0.11960 0.04300
C 	C 	0.13785 0.04850 0.11607 -0.08000
C 	C 	0.11457 0.98650 0.09843 0.02000
H 	H 	0.11810 0.92660 0.10260 0.04100
C 	C 	0.08584 0.01680 0.07441 -0.10900
H 	H 	0.06990 0.97670 0.06300 0.06700
C 	C 	0.16707 0.01620 0.14447 0.30400
In	In	0.21410 0.95976 0.19877 1.99800
O 	O 	0.25730 0.93890 0.24724 -0.43600
O 	O 	0.24193 0.07430 0.23200 -0.41800
O 	O 	0.68507 0.35830 0.23609 -0.45700
O 	O 	0.67102 0.49590 0.24263 -0.43800
O 	O 	0.25532 0.02180 0.65295 -0.45400
O 	O 	0.24117 0.15820 0.66576 -0.42000
O 	O 	0.68709 0.42850 0.66154 -0.41500
O 	O 	0.67075 0.56560 0.65160 -0.44600
C 	C 	0.26118 0.02090 0.25181 0.30500
C 	C 	0.28950 0.05610 0.28019 -0.07500
C 	C 	0.31252 0.99700 0.30039 0.02000
H 	H 	0.30960 0.93660 0.29710 0.04900
C 	C 	0.33991 0.03020 0.32550 -0.10300
H 	H 	0.35520 0.99130 0.33890 0.07000
C 	C 	0.34453 0.11990 0.33050 0.06300
C 	C 	0.32077 0.17800 0.31156 -0.10200
H 	H 	0.32300 0.23830 0.31600 0.08500
C 	C 	0.29370 0.14590 0.28597 0.02900
H 	H 	0.27840 0.18500 0.27270 0.05800
C 	C 	0.37418 0.15400 0.35581 -0.01600
C 	C 	0.38836 0.10890 0.38930 -0.02200
H 	H 	0.37890 0.05470 0.39630 0.04000
C 	C 	0.41622 0.14130 0.41297 -0.08500
H 	H 	0.42500 0.10920 0.43550 0.06400
C 	C 	0.43120 0.22250 0.40295 0.05200
C 	C 	0.41790 0.26770 0.36860 -0.08500
H 	H 	0.42840 0.32010 0.36070 0.06600
C 	C 	0.38972 0.23680 0.34615 -0.02100
H 	H 	0.38050 0.27010 0.32420 0.04900
C 	C 	0.46163 0.25960 0.42753 -0.04400
C 	C 	0.49211 0.28310 0.40199 0.06600
C 	C 	0.50730 0.22130 0.37720 -0.10500
H 	H 	0.49860 0.16410 0.37680 0.06900
C 	C 	0.53487 0.24190 0.35320 -0.00200
H 	H 	0.54450 0.19810 0.33690 0.03100
C 	C 	0.54891 0.32480 0.35227 -0.03700
C 	C 	0.53189 0.38710 0.37450 -0.00200
H 	H 	0.53830 0.44580 0.37180 0.03000
C 	C 	0.50563 0.36610 0.40060 -0.10300
H 	H 	0.49680 0.40940 0.41780 0.06700
C 	C 	0.57939 0.34750 0.32645 0.08300
C 	C 	0.60022 0.28430 0.30960 -0.12900
H 	H 	0.59550 0.22530 0.31480 0.07800
C 	C 	0.62827 0.30590 0.28480 0.04900
H 	H 	0.64170 0.26140 0.27360 0.03400
C 	C 	0.63607 0.39170 0.27696 -0.10600
C 	C 	0.61530 0.45620 0.29320 0.04700
H 	H 	0.61960 0.51510 0.28710 0.03800
C 	C 	0.58780 0.43400 0.31890 -0.12700
H 	H 	0.57500 0.47850 0.33120 0.07700
C 	C 	0.66612 0.41530 0.25060 0.33200
C 	C 	0.46141 0.27150 0.46889 -0.03600
C 	C 	0.43054 0.25140 0.49446 0.04900
C 	C 	0.43352 0.18680 0.52508 -0.08500
H 	H 	0.45480 0.15860 0.53000 0.06200
C 	C 	0.40487 0.16410 0.54829 -0.02500
H 	H 	0.40700 0.11830 0.56730 0.03900
C 	C 	0.37337 0.20750 0.54397 -0.01800
C 	C 	0.37078 0.27420 0.51405 -0.02500
H 	H 	0.35000 0.30530 0.51080 0.04400
C 	C 	0.39876 0.29520 0.48894 -0.08300
H 	H 	0.39620 0.33830 0.46860 0.06400
C 	C 	0.34305 0.18220 0.56910 0.06600
C 	C 	0.33723 0.09540 0.57860 -0.11100
H 	H 	0.35240 0.05320 0.56850 0.07200
C 	C 	0.30964 0.06760 0.60250 0.03000
H 	H 	0.30580 0.00810 0.60730 0.04400
C 	C 	0.28797 0.13180 0.61910 -0.08800
C 	C 	0.29291 0.21820 0.60978 0.03300
H 	H 	0.27800 0.26040 0.62040 0.04200
C 	C 	0.32026 0.24490 0.58435 -0.11100
H 	H 	0.32310 0.30410 0.57780 0.07500
C 	C 	0.25983 0.10350 0.64741 0.31400
C 	C 	0.49255 0.30220 0.49345 0.05000
C 	C 	0.52474 0.26050 0.49151 -0.08700
H 	H 	0.52740 0.21310 0.47360 0.06400
C 	C 	0.55269 0.28850 0.51594 -0.02100
H 	H 	0.57360 0.25770 0.51500 0.03900
C 	C 	0.55054 0.36150 0.54190 -0.02100
C 	C 	0.51816 0.40390 0.54370 -0.02100
H 	H 	0.51560 0.45230 0.56100 0.03500
C 	C 	0.48996 0.37420 0.51998 -0.08900
H 	H 	0.46870 0.40320 0.52180 0.06400
C 	C 	0.58113 0.39450 0.56772 0.06600
C 	C 	0.60496 0.33510 0.58452 -0.11400
H 	H 	0.60200 0.27520 0.57970 0.07200
C 	C 	0.63322 0.36440 0.60853 0.03200
H 	H 	0.64920 0.32400 0.61960 0.04300
C 	C 	0.63785 0.45150 0.61607 -0.08200
C 	C 	0.61457 0.51350 0.59843 0.02200
H 	H 	0.61810 0.57340 0.60260 0.04000
C 	C 	0.58584 0.48320 0.57441 -0.11200
H 	H 	0.56990 0.52330 0.56300 0.06800
C 	C 	0.66707 0.48380 0.64447 0.30400
In	In	0.71410 0.45976 0.19877 1.99800
O 	O 	0.75730 0.43890 0.24724 -0.43500
O 	O 	0.74193 0.57430 0.23200 -0.41800
O 	O 	0.18507 0.85830 0.23609 -0.45700
O 	O 	0.17102 0.99590 0.24263 -0.43800
O 	O 	0.75532 0.52180 0.65295 -0.45400
O 	O 	0.74117 0.65820 0.66576 -0.42000
O 	O 	0.18709 0.92850 0.66154 -0.41500
O 	O 	0.17075 0.06560 0.65160 -0.44700
C 	C 	0.76118 0.52090 0.25181 0.30500
C 	C 	0.78950 0.55610 0.28019 -0.07600
C 	C 	0.81252 0.49700 0.30039 0.02200
H 	H 	0.80960 0.43660 0.29710 0.04900
C 	C 	0.83991 0.53020 0.32550 -0.10500
H 	H 	0.85520 0.49130 0.33890 0.07100
C 	C 	0.84453 0.61990 0.33050 0.06400
C 	C 	0.82077 0.67800 0.31156 -0.10200
H 	H 	0.82300 0.73830 0.31600 0.08600
C 	C 	0.79370 0.64590 0.28597 0.02900
H 	H 	0.77840 0.68500 0.27270 0.05800
C 	C 	0.87418 0.65400 0.35581 -0.01600
C 	C 	0.88836 0.60890 0.38930 -0.02200
H 	H 	0.87890 0.55470 0.39630 0.03900
C 	C 	0.91622 0.64130 0.41297 -0.08600
H 	H 	0.92500 0.60920 0.43550 0.06400
C 	C 	0.93120 0.72250 0.40295 0.05300
C 	C 	0.91790 0.76770 0.36860 -0.08600
H 	H 	0.92840 0.82010 0.36070 0.06600
C 	C 	0.88972 0.73680 0.34615 -0.02000
H 	H 	0.88050 0.77010 0.32420 0.04800
C 	C 	0.96163 0.75960 0.42753 -0.04400
C 	C 	0.99211 0.78310 0.40199 0.06600
C 	C 	0.00730 0.72130 0.37720 -0.10500
H 	H 	0.99860 0.66410 0.37680 0.06900
C 	C 	0.03487 0.74190 0.35320 -0.00200
H 	H 	0.04450 0.69810 0.33690 0.03100
C 	C 	0.04891 0.82480 0.35227 -0.03700
C 	C 	0.03189 0.88710 0.37450 -0.00200
H 	H 	0.03830 0.94580 0.37180 0.03000
C 	C 	0.00563 0.86610 0.40060 -0.10300
H 	H 	0.99680 0.90940 0.41780 0.06700
C 	C 	0.07939 0.84750 0.32645 0.08300
C 	C 	0.10022 0.78430 0.30960 -0.12900
H 	H 	0.09550 0.72530 0.31480 0.07800
C 	C 	0.12827 0.80590 0.28480 0.04800
H 	H 	0.14170 0.76140 0.27360 0.03400
C 	C 	0.13607 0.89170 0.27696 -0.10600
C 	C 	0.11530 0.95620 0.29320 0.04600
H 	H 	0.11960 0.01510 0.28710 0.03800
C 	C 	0.08780 0.93400 0.31890 -0.12600
H 	H 	0.07500 0.97850 0.33120 0.07700
C 	C 	0.16612 0.91530 0.25060 0.33200
C 	C 	0.96141 0.77150 0.46889 -0.03600
C 	C 	0.93054 0.75140 0.49446 0.04900
C 	C 	0.93352 0.68680 0.52508 -0.08500
H 	H 	0.95480 0.65860 0.53000 0.06200
C 	C 	0.90487 0.66410 0.54829 -0.02500
H 	H 	0.90700 0.61830 0.56730 0.03900
C 	C 	0.87337 0.70750 0.54397 -0.01800
C 	C 	0.87078 0.77420 0.51405 -0.02500
H 	H 	0.85000 0.80530 0.51080 0.04400
C 	C 	0.89876 0.79520 0.48894 -0.08300
H 	H 	0.89620 0.83830 0.46860 0.06400
C 	C 	0.84305 0.68220 0.56910 0.06600
C 	C 	0.83723 0.59540 0.57860 -0.11100
H 	H 	0.85240 0.55320 0.56850 0.07200
C 	C 	0.80964 0.56760 0.60250 0.03000
H 	H 	0.80580 0.50810 0.60730 0.04400
C 	C 	0.78797 0.63180 0.61910 -0.08800
C 	C 	0.79291 0.71820 0.60978 0.03300
H 	H 	0.77800 0.76040 0.62040 0.04200
C 	C 	0.82026 0.74490 0.58435 -0.11100
H 	H 	0.82310 0.80410 0.57780 0.07500
C 	C 	0.75983 0.60350 0.64741 0.31400
C 	C 	0.99255 0.80220 0.49345 0.05000
C 	C 	0.02474 0.76050 0.49151 -0.08700
H 	H 	0.02740 0.71310 0.47360 0.06400
C 	C 	0.05269 0.78850 0.51594 -0.02200
H 	H 	0.07360 0.75770 0.51500 0.03900
C 	C 	0.05054 0.86150 0.54190 -0.02100
C 	C 	0.01816 0.90390 0.54370 -0.02200
H 	H 	0.01560 0.95230 0.56100 0.03600
C 	C 	0.98996 0.87420 0.51998 -0.08900
H 	H 	0.96870 0.90320 0.52180 0.06400
C 	C 	0.08113 0.89450 0.56772 0.06600
C 	C 	0.10496 0.83510 0.58452 -0.11300
H 	H 	0.10200 0.77520 0.57970 0.07200
C 	C 	0.13322 0.86440 0.60853 0.03100
H 	H 	0.14920 0.82400 0.61960 0.04300
C 	C 	0.13785 0.95150 0.61607 -0.08100
C 	C 	0.11457 0.01350 0.59843 0.02100
H 	H 	0.11810 0.07340 0.60260 0.04000
C 	C 	0.08584 0.98320 0.57441 -0.11100
H 	H 	0.06990 0.02330 0.56300 0.06800
C 	C 	0.16707 0.98380 0.64447 0.30400
