data_crystal

_cell_length_a 38.72690
_cell_length_b 14.94960
_cell_length_c 31.77890
_cell_angle_alpha 90.00000
_cell_angle_beta  90.79400
_cell_angle_gamma 90.00000

_symmetry_space_group_name_	'P 1'
_symmetry_space_group_name_H-M	'P 1'

loop_
_symmetry_equiv_pos_as_xyz
  x,y,z

loop_
_atom_site_label
_atom_site_type_symbol
_atom_site_fract_x
_atom_site_fract_y
_atom_site_fract_z
_atom_site_charge
In	In	0.21832 0.02187 0.20056 1.99700
O 	O 	0.24523 0.90010 0.23335 -0.40500
O 	O 	0.26119 0.03730 0.24795 -0.45500
O 	O 	0.67473 0.48040 0.24478 -0.42400
O 	O 	0.68970 0.62110 0.24035 -0.45500
O 	O 	0.69116 0.59260 0.66272 -0.40400
O 	O 	0.67526 0.45220 0.65423 -0.45200
O 	O 	0.25875 0.99750 0.65282 -0.45700
O 	O 	0.24504 0.85960 0.66771 -0.42900
C 	C 	0.26454 0.95630 0.25266 0.31100
C 	C 	0.29306 0.91950 0.28032 -0.07700
C 	C 	0.29704 0.83060 0.28700 0.02600
H 	H 	0.28130 0.79070 0.27520 0.05800
C 	C 	0.32476 0.79790 0.31166 -0.10000
H 	H 	0.32740 0.73670 0.31590 0.08100
C 	C 	0.34831 0.85830 0.32972 0.05800
C 	C 	0.34337 0.94800 0.32410 -0.10500
H 	H 	0.35860 0.98810 0.33690 0.06900
C 	C 	0.31619 0.98060 0.29960 0.02100
H 	H 	0.31320 0.04190 0.29600 0.04800
C 	C 	0.37830 0.82500 0.35601 -0.00400
C 	C 	0.39337 0.74540 0.34565 -0.03600
H 	H 	0.38460 0.71280 0.32300 0.05100
C 	C 	0.42142 0.71220 0.36824 -0.07100
H 	H 	0.43180 0.65870 0.36040 0.06000
C 	C 	0.43447 0.76190 0.40443 0.03700
C 	C 	0.41791 0.84340 0.41236 -0.07100
H 	H 	0.42600 0.87830 0.43460 0.05900
C 	C 	0.39041 0.87420 0.38900 -0.03500
H 	H 	0.38010 0.92840 0.39570 0.04400
C 	C 	0.46437 0.72850 0.42939 -0.03200
C 	C 	0.49468 0.70090 0.40391 0.05000
C 	C 	0.50735 0.75870 0.37350 -0.08600
H 	H 	0.49660 0.81370 0.36910 0.06300
C 	C 	0.53599 0.73550 0.34940 -0.02500
H 	H 	0.54420 0.77550 0.32960 0.04000
C 	C 	0.55197 0.65510 0.35475 -0.01800
C 	C 	0.53724 0.59350 0.38200 -0.02300
H 	H 	0.54610 0.53580 0.38400 0.03800
C 	C 	0.50909 0.61830 0.40630 -0.08600
H 	H 	0.49990 0.57680 0.42480 0.06100
C 	C 	0.58259 0.63080 0.32907 0.06700
C 	C 	0.60470 0.69740 0.31410 -0.11200
H 	H 	0.60070 0.75700 0.32080 0.07300
C 	C 	0.63255 0.67450 0.28910 0.03100
H 	H 	0.64630 0.71930 0.27790 0.04100
C 	C 	0.63999 0.58600 0.28075 -0.08800
C 	C 	0.61750 0.51970 0.29560 0.03300
H 	H 	0.62130 0.45990 0.28910 0.04100
C 	C 	0.58982 0.54360 0.31980 -0.11600
H 	H 	0.57560 0.49900 0.33020 0.07300
C 	C 	0.46442 0.72500 0.47147 -0.04400
C 	C 	0.43403 0.74800 0.49677 0.05500
C 	C 	0.40240 0.70110 0.49271 -0.08800
H 	H 	0.40070 0.65330 0.47410 0.06500
C 	C 	0.37442 0.72510 0.51580 -0.01800
H 	H 	0.35380 0.69350 0.51280 0.04100
C 	C 	0.37655 0.79830 0.54458 -0.02400
C 	C 	0.40723 0.84260 0.54760 -0.01600
H 	H 	0.40890 0.89260 0.56490 0.03600
C 	C 	0.43571 0.81560 0.52580 -0.09500
H 	H 	0.45670 0.84390 0.53080 0.06500
C 	C 	0.34628 0.82770 0.57033 0.07300
C 	C 	0.32426 0.76540 0.58759 -0.11700
H 	H 	0.32780 0.70490 0.58260 0.07700
C 	C 	0.29651 0.79270 0.61273 0.03800
H 	H 	0.28190 0.75030 0.62430 0.04100
C 	C 	0.29101 0.88220 0.62012 -0.09200
C 	C 	0.31345 0.94490 0.60150 0.03500
H 	H 	0.30990 0.00570 0.60580 0.04200
C 	C 	0.34048 0.91730 0.57690 -0.11900
H 	H 	0.35490 0.95950 0.56470 0.07400
C 	C 	0.49567 0.69830 0.49682 0.05800
C 	C 	0.49334 0.63410 0.52770 -0.09600
H 	H 	0.47200 0.60830 0.53310 0.06600
C 	C 	0.52167 0.60700 0.55080 -0.01600
H 	H 	0.51930 0.56110 0.57030 0.03400
C 	C 	0.55384 0.64670 0.54555 -0.02500
C 	C 	0.55574 0.71440 0.51460 -0.01800
H 	H 	0.57670 0.74300 0.51020 0.03800
C 	C 	0.52731 0.73910 0.49070 -0.09300
H 	H 	0.52940 0.78350 0.47040 0.06600
C 	C 	0.58470 0.61680 0.57077 0.06700
C 	C 	0.59003 0.52780 0.58025 -0.11300
H 	H 	0.57420 0.48560 0.57050 0.06900
C 	C 	0.61837 0.49930 0.60391 0.02600
H 	H 	0.62160 0.43900 0.61010 0.04000
C 	C 	0.64207 0.56370 0.61831 -0.08200
C 	C 	0.63718 0.65220 0.60798 0.03300
H 	H 	0.65330 0.69440 0.61700 0.04200
C 	C 	0.60904 0.67940 0.58465 -0.11500
H 	H 	0.60620 0.73950 0.57810 0.07300
C 	C 	0.67016 0.56250 0.25395 0.31200
C 	C 	0.67144 0.53420 0.64618 0.30200
C 	C 	0.26339 0.91490 0.64824 0.31900
In	In	0.71832 0.52187 0.20056 1.99800
O 	O 	0.74523 0.40010 0.23335 -0.40400
O 	O 	0.76119 0.53730 0.24795 -0.45300
O 	O 	0.17473 0.98040 0.24478 -0.42200
O 	O 	0.18970 0.12110 0.24035 -0.45400
O 	O 	0.19116 0.09260 0.66272 -0.40300
O 	O 	0.17526 0.95220 0.65423 -0.45100
O 	O 	0.75875 0.49750 0.65282 -0.45600
O 	O 	0.74504 0.35960 0.66771 -0.42800
C 	C 	0.76454 0.45630 0.25266 0.31100
C 	C 	0.79306 0.41950 0.28032 -0.07500
C 	C 	0.79704 0.33060 0.28700 0.02600
H 	H 	0.78130 0.29070 0.27520 0.05900
C 	C 	0.82476 0.29790 0.31166 -0.09800
H 	H 	0.82740 0.23670 0.31590 0.08200
C 	C 	0.84831 0.35830 0.32972 0.05800
C 	C 	0.84337 0.44800 0.32410 -0.10200
H 	H 	0.85860 0.48810 0.33690 0.06900
C 	C 	0.81619 0.48060 0.29960 0.02000
H 	H 	0.81320 0.54190 0.29600 0.05000
C 	C 	0.87830 0.32500 0.35601 -0.00300
C 	C 	0.89337 0.24540 0.34565 -0.03600
H 	H 	0.88460 0.21280 0.32300 0.05200
C 	C 	0.92142 0.21220 0.36824 -0.07100
H 	H 	0.93180 0.15870 0.36040 0.06000
C 	C 	0.93447 0.26190 0.40443 0.03700
C 	C 	0.91791 0.34340 0.41236 -0.07100
H 	H 	0.92600 0.37830 0.43460 0.05900
C 	C 	0.89041 0.37420 0.38900 -0.03500
H 	H 	0.88010 0.42840 0.39570 0.04400
C 	C 	0.96437 0.22850 0.42939 -0.03300
C 	C 	0.99468 0.20090 0.40391 0.05000
C 	C 	0.00735 0.25870 0.37350 -0.08600
H 	H 	0.99660 0.31370 0.36910 0.06300
C 	C 	0.03599 0.23550 0.34940 -0.02500
H 	H 	0.04420 0.27550 0.32960 0.03900
C 	C 	0.05197 0.15510 0.35475 -0.01800
C 	C 	0.03724 0.09350 0.38200 -0.02300
H 	H 	0.04610 0.03580 0.38400 0.03800
C 	C 	0.00909 0.11830 0.40630 -0.08600
H 	H 	0.99990 0.07680 0.42480 0.06100
C 	C 	0.08259 0.13080 0.32907 0.06700
C 	C 	0.10470 0.19740 0.31410 -0.11200
H 	H 	0.10070 0.25700 0.32080 0.07300
C 	C 	0.13255 0.17450 0.28910 0.03100
H 	H 	0.14630 0.21930 0.27790 0.04100
C 	C 	0.13999 0.08600 0.28075 -0.08800
C 	C 	0.11750 0.01970 0.29560 0.03200
H 	H 	0.12130 0.95990 0.28910 0.04200
C 	C 	0.08982 0.04360 0.31980 -0.11700
H 	H 	0.07560 0.99900 0.33020 0.07400
C 	C 	0.96442 0.22500 0.47147 -0.04400
C 	C 	0.93403 0.24800 0.49677 0.05500
C 	C 	0.90240 0.20110 0.49271 -0.08800
H 	H 	0.90070 0.15330 0.47410 0.06500
C 	C 	0.87442 0.22510 0.51580 -0.01800
H 	H 	0.85380 0.19350 0.51280 0.04100
C 	C 	0.87655 0.29830 0.54458 -0.02400
C 	C 	0.90723 0.34260 0.54760 -0.01600
H 	H 	0.90890 0.39260 0.56490 0.03600
C 	C 	0.93571 0.31560 0.52580 -0.09500
H 	H 	0.95670 0.34390 0.53080 0.06500
C 	C 	0.84628 0.32770 0.57033 0.07300
C 	C 	0.82426 0.26540 0.58759 -0.11800
H 	H 	0.82780 0.20490 0.58260 0.07800
C 	C 	0.79651 0.29270 0.61273 0.03800
H 	H 	0.78190 0.25030 0.62430 0.04100
C 	C 	0.79101 0.38220 0.62012 -0.09200
C 	C 	0.81345 0.44490 0.60150 0.03600
H 	H 	0.80990 0.50570 0.60580 0.04100
C 	C 	0.84048 0.41730 0.57690 -0.11900
H 	H 	0.85490 0.45950 0.56470 0.07400
C 	C 	0.99567 0.19830 0.49682 0.05700
C 	C 	0.99334 0.13410 0.52770 -0.09500
H 	H 	0.97200 0.10830 0.53310 0.06600
C 	C 	0.02167 0.10700 0.55080 -0.01600
H 	H 	0.01930 0.06110 0.57030 0.03400
C 	C 	0.05384 0.14670 0.54555 -0.02400
C 	C 	0.05574 0.21440 0.51460 -0.01800
H 	H 	0.07670 0.24300 0.51020 0.03800
C 	C 	0.02731 0.23910 0.49070 -0.09200
H 	H 	0.02940 0.28350 0.47040 0.06600
C 	C 	0.08470 0.11680 0.57077 0.06600
C 	C 	0.09003 0.02780 0.58025 -0.11100
H 	H 	0.07420 0.98560 0.57050 0.06800
C 	C 	0.11837 0.99930 0.60391 0.02400
H 	H 	0.12160 0.93900 0.61010 0.04100
C 	C 	0.14207 0.06370 0.61831 -0.08100
C 	C 	0.13718 0.15220 0.60798 0.03200
H 	H 	0.15330 0.19440 0.61700 0.04200
C 	C 	0.10904 0.17940 0.58465 -0.11400
H 	H 	0.10620 0.23950 0.57810 0.07300
C 	C 	0.17016 0.06250 0.25395 0.31100
C 	C 	0.17144 0.03420 0.64618 0.30200
C 	C 	0.76339 0.41490 0.64824 0.31900
In	In	0.21832 0.97813 0.70056 1.99800
O 	O 	0.24523 0.09990 0.73335 -0.40400
O 	O 	0.26119 0.96270 0.74795 -0.45400
O 	O 	0.67473 0.51960 0.74478 -0.42300
O 	O 	0.68970 0.37890 0.74035 -0.45400
O 	O 	0.69116 0.40740 0.16272 -0.40300
O 	O 	0.67526 0.54780 0.15423 -0.45100
O 	O 	0.25875 0.00250 0.15282 -0.45600
O 	O 	0.24504 0.14040 0.16771 -0.42800
C 	C 	0.26454 0.04370 0.75266 0.31200
C 	C 	0.29306 0.08050 0.78032 -0.07600
C 	C 	0.29704 0.16940 0.78700 0.02800
H 	H 	0.28130 0.20930 0.77520 0.05900
C 	C 	0.32476 0.20210 0.81166 -0.09900
H 	H 	0.32740 0.26330 0.81590 0.08200
C 	C 	0.34831 0.14170 0.82972 0.05900
C 	C 	0.34337 0.05200 0.82410 -0.10400
H 	H 	0.35860 0.01190 0.83690 0.07000
C 	C 	0.31619 0.01940 0.79960 0.02300
H 	H 	0.31320 0.95810 0.79600 0.04900
C 	C 	0.37830 0.17500 0.85601 -0.00400
C 	C 	0.39337 0.25460 0.84565 -0.03600
H 	H 	0.38460 0.28720 0.82300 0.05100
C 	C 	0.42142 0.28780 0.86824 -0.07100
H 	H 	0.43180 0.34130 0.86040 0.06000
C 	C 	0.43447 0.23810 0.90443 0.03700
C 	C 	0.41791 0.15660 0.91236 -0.07100
H 	H 	0.42600 0.12170 0.93460 0.05900
C 	C 	0.39041 0.12580 0.88900 -0.03500
H 	H 	0.38010 0.07160 0.89570 0.04400
C 	C 	0.46437 0.27150 0.92939 -0.03200
C 	C 	0.49468 0.29910 0.90391 0.05000
C 	C 	0.50735 0.24130 0.87350 -0.08600
H 	H 	0.49660 0.18630 0.86910 0.06300
C 	C 	0.53599 0.26450 0.84940 -0.02500
H 	H 	0.54420 0.22450 0.82960 0.04000
C 	C 	0.55197 0.34490 0.85475 -0.01800
C 	C 	0.53724 0.40650 0.88200 -0.02300
H 	H 	0.54610 0.46420 0.88400 0.03800
C 	C 	0.50909 0.38170 0.90630 -0.08600
H 	H 	0.49990 0.42320 0.92480 0.06100
C 	C 	0.58259 0.36920 0.82907 0.06700
C 	C 	0.60470 0.30260 0.81410 -0.11200
H 	H 	0.60070 0.24300 0.82080 0.07300
C 	C 	0.63255 0.32550 0.78910 0.03100
H 	H 	0.64630 0.28070 0.77790 0.04100
C 	C 	0.63999 0.41400 0.78075 -0.08800
C 	C 	0.61750 0.48030 0.79560 0.03300
H 	H 	0.62130 0.54010 0.78910 0.04100
C 	C 	0.58982 0.45640 0.81980 -0.11600
H 	H 	0.57560 0.50100 0.83020 0.07300
C 	C 	0.46442 0.27500 0.97147 -0.04400
C 	C 	0.43403 0.25200 0.99677 0.05500
C 	C 	0.40240 0.29890 0.99271 -0.08700
H 	H 	0.40070 0.34670 0.97410 0.06500
C 	C 	0.37442 0.27490 0.01580 -0.01900
H 	H 	0.35380 0.30650 0.01280 0.04100
C 	C 	0.37655 0.20170 0.04458 -0.02400
C 	C 	0.40723 0.15740 0.04760 -0.01600
H 	H 	0.40890 0.10740 0.06490 0.03600
C 	C 	0.43571 0.18440 0.02580 -0.09500
H 	H 	0.45670 0.15610 0.03080 0.06500
C 	C 	0.34628 0.17230 0.07033 0.07300
C 	C 	0.32426 0.23460 0.08759 -0.11700
H 	H 	0.32780 0.29510 0.08260 0.07700
C 	C 	0.29651 0.20730 0.11273 0.03800
H 	H 	0.28190 0.24970 0.12430 0.04100
C 	C 	0.29101 0.11780 0.12012 -0.09100
C 	C 	0.31345 0.05510 0.10150 0.03400
H 	H 	0.30990 0.99430 0.10580 0.04200
C 	C 	0.34048 0.08270 0.07690 -0.11800
H 	H 	0.35490 0.04050 0.06470 0.07400
C 	C 	0.49567 0.30170 0.99682 0.05800
C 	C 	0.49334 0.36590 0.02770 -0.09600
H 	H 	0.47200 0.39170 0.03310 0.06600
C 	C 	0.52167 0.39300 0.05080 -0.01600
H 	H 	0.51930 0.43890 0.07030 0.03400
C 	C 	0.55384 0.35330 0.04555 -0.02500
C 	C 	0.55574 0.28560 0.01460 -0.01800
H 	H 	0.57670 0.25700 0.01020 0.03800
C 	C 	0.52731 0.26090 0.99070 -0.09200
H 	H 	0.52940 0.21650 0.97040 0.06600
C 	C 	0.58470 0.38320 0.07077 0.06700
C 	C 	0.59003 0.47220 0.08025 -0.11300
H 	H 	0.57420 0.51440 0.07050 0.06900
C 	C 	0.61837 0.50070 0.10391 0.02600
H 	H 	0.62160 0.56100 0.11010 0.04000
C 	C 	0.64207 0.43630 0.11831 -0.08200
C 	C 	0.63718 0.34780 0.10798 0.03300
H 	H 	0.65330 0.30560 0.11700 0.04200
C 	C 	0.60904 0.32060 0.08465 -0.11500
H 	H 	0.60620 0.26050 0.07810 0.07300
C 	C 	0.67016 0.43750 0.75395 0.31200
C 	C 	0.67144 0.46580 0.14618 0.30200
C 	C 	0.26339 0.08510 0.14824 0.31800
In	In	0.71832 0.47813 0.70056 1.99800
O 	O 	0.74523 0.59990 0.73335 -0.40400
O 	O 	0.76119 0.46270 0.74795 -0.45300
O 	O 	0.17473 0.01960 0.74478 -0.42200
O 	O 	0.18970 0.87890 0.74035 -0.45400
O 	O 	0.19116 0.90740 0.16272 -0.40300
O 	O 	0.17526 0.04780 0.15423 -0.45100
O 	O 	0.75875 0.50250 0.15282 -0.45600
O 	O 	0.74504 0.64040 0.16771 -0.42800
C 	C 	0.76454 0.54370 0.75266 0.31100
C 	C 	0.79306 0.58050 0.78032 -0.07500
C 	C 	0.79704 0.66940 0.78700 0.02600
H 	H 	0.78130 0.70930 0.77520 0.05900
C 	C 	0.82476 0.70210 0.81166 -0.09800
H 	H 	0.82740 0.76330 0.81590 0.08200
C 	C 	0.84831 0.64170 0.82972 0.05800
C 	C 	0.84337 0.55200 0.82410 -0.10200
H 	H 	0.85860 0.51190 0.83690 0.06900
C 	C 	0.81619 0.51940 0.79960 0.02000
H 	H 	0.81320 0.45810 0.79600 0.05000
C 	C 	0.87830 0.67500 0.85601 -0.00300
C 	C 	0.89337 0.75460 0.84565 -0.03600
H 	H 	0.88460 0.78720 0.82300 0.05200
C 	C 	0.92142 0.78780 0.86824 -0.07100
H 	H 	0.93180 0.84130 0.86040 0.06000
C 	C 	0.93447 0.73810 0.90443 0.03700
C 	C 	0.91791 0.65660 0.91236 -0.07100
H 	H 	0.92600 0.62170 0.93460 0.05900
C 	C 	0.89041 0.62580 0.88900 -0.03500
H 	H 	0.88010 0.57160 0.89570 0.04400
C 	C 	0.96437 0.77150 0.92939 -0.03300
C 	C 	0.99468 0.79910 0.90391 0.05000
C 	C 	0.00735 0.74130 0.87350 -0.08600
H 	H 	0.99660 0.68630 0.86910 0.06300
C 	C 	0.03599 0.76450 0.84940 -0.02500
H 	H 	0.04420 0.72450 0.82960 0.04000
C 	C 	0.05197 0.84490 0.85475 -0.01800
C 	C 	0.03724 0.90650 0.88200 -0.02400
H 	H 	0.04610 0.96420 0.88400 0.03800
C 	C 	0.00909 0.88170 0.90630 -0.08600
H 	H 	0.99990 0.92320 0.92480 0.06100
C 	C 	0.08259 0.86920 0.82907 0.06700
C 	C 	0.10470 0.80260 0.81410 -0.11200
H 	H 	0.10070 0.74300 0.82080 0.07300
C 	C 	0.13255 0.82550 0.78910 0.03100
H 	H 	0.14630 0.78070 0.77790 0.04100
C 	C 	0.13999 0.91400 0.78075 -0.08800
C 	C 	0.11750 0.98030 0.79560 0.03200
H 	H 	0.12130 0.04010 0.78910 0.04200
C 	C 	0.08982 0.95640 0.81980 -0.11700
H 	H 	0.07560 0.00100 0.83020 0.07400
C 	C 	0.96442 0.77500 0.97147 -0.04400
C 	C 	0.93403 0.75200 0.99677 0.05500
C 	C 	0.90240 0.79890 0.99271 -0.08800
H 	H 	0.90070 0.84670 0.97410 0.06500
C 	C 	0.87442 0.77490 0.01580 -0.01800
H 	H 	0.85380 0.80650 0.01280 0.04100
C 	C 	0.87655 0.70170 0.04458 -0.02400
C 	C 	0.90723 0.65740 0.04760 -0.01600
H 	H 	0.90890 0.60740 0.06490 0.03600
C 	C 	0.93571 0.68440 0.02580 -0.09500
H 	H 	0.95670 0.65610 0.03080 0.06500
C 	C 	0.84628 0.67230 0.07033 0.07300
C 	C 	0.82426 0.73460 0.08759 -0.11800
H 	H 	0.82780 0.79510 0.08260 0.07800
C 	C 	0.79651 0.70730 0.11273 0.03800
H 	H 	0.78190 0.74970 0.12430 0.04100
C 	C 	0.79101 0.61780 0.12012 -0.09200
C 	C 	0.81345 0.55510 0.10150 0.03600
H 	H 	0.80990 0.49430 0.10580 0.04100
C 	C 	0.84048 0.58270 0.07690 -0.11900
H 	H 	0.85490 0.54050 0.06470 0.07400
C 	C 	0.99567 0.80170 0.99682 0.05700
C 	C 	0.99334 0.86590 0.02770 -0.09400
H 	H 	0.97200 0.89170 0.03310 0.06600
C 	C 	0.02167 0.89300 0.05080 -0.01700
H 	H 	0.01930 0.93890 0.07030 0.03400
C 	C 	0.05384 0.85330 0.04555 -0.02400
C 	C 	0.05574 0.78560 0.01460 -0.01900
H 	H 	0.07670 0.75700 0.01020 0.03800
C 	C 	0.02731 0.76090 0.99070 -0.09200
H 	H 	0.02940 0.71650 0.97040 0.06600
C 	C 	0.08470 0.88320 0.07077 0.06500
C 	C 	0.09003 0.97220 0.08025 -0.10900
H 	H 	0.07420 0.01440 0.07050 0.06800
C 	C 	0.11837 0.00070 0.10391 0.02200
H 	H 	0.12160 0.06100 0.11010 0.04100
C 	C 	0.14207 0.93630 0.11831 -0.08000
C 	C 	0.13718 0.84780 0.10798 0.03100
H 	H 	0.15330 0.80560 0.11700 0.04300
C 	C 	0.10904 0.82060 0.08465 -0.11300
H 	H 	0.10620 0.76050 0.07810 0.07200
C 	C 	0.17016 0.93750 0.75395 0.31100
C 	C 	0.17144 0.96580 0.14618 0.30200
C 	C 	0.76339 0.58510 0.14824 0.31900
In	In	0.78168 0.02187 0.29944 1.99800
O 	O 	0.75477 0.90010 0.26665 -0.40400
O 	O 	0.73881 0.03730 0.25205 -0.45400
O 	O 	0.32527 0.48040 0.25522 -0.42300
O 	O 	0.31030 0.62110 0.25965 -0.45400
O 	O 	0.30884 0.59260 0.83728 -0.40300
O 	O 	0.32474 0.45220 0.84577 -0.45100
O 	O 	0.74125 0.99750 0.84718 -0.45600
O 	O 	0.75496 0.85960 0.83229 -0.42800
C 	C 	0.73546 0.95630 0.24734 0.31200
C 	C 	0.70694 0.91950 0.21968 -0.07600
C 	C 	0.70296 0.83060 0.21300 0.02800
H 	H 	0.71870 0.79070 0.22480 0.05900
C 	C 	0.67524 0.79790 0.18834 -0.09900
H 	H 	0.67260 0.73670 0.18410 0.08200
C 	C 	0.65169 0.85830 0.17028 0.05900
C 	C 	0.65663 0.94800 0.17590 -0.10400
H 	H 	0.64140 0.98810 0.16310 0.07000
C 	C 	0.68381 0.98060 0.20040 0.02300
H 	H 	0.68680 0.04190 0.20400 0.04900
C 	C 	0.62170 0.82500 0.14399 -0.00400
C 	C 	0.60663 0.74540 0.15435 -0.03600
H 	H 	0.61540 0.71280 0.17700 0.05100
C 	C 	0.57858 0.71220 0.13176 -0.07100
H 	H 	0.56820 0.65870 0.13960 0.06000
C 	C 	0.56553 0.76190 0.09557 0.03700
C 	C 	0.58209 0.84340 0.08764 -0.07100
H 	H 	0.57400 0.87830 0.06540 0.05900
C 	C 	0.60959 0.87420 0.11100 -0.03500
H 	H 	0.61990 0.92840 0.10430 0.04400
C 	C 	0.53563 0.72850 0.07061 -0.03200
C 	C 	0.50532 0.70090 0.09609 0.05000
C 	C 	0.49265 0.75870 0.12650 -0.08600
H 	H 	0.50340 0.81370 0.13090 0.06300
C 	C 	0.46401 0.73550 0.15060 -0.02500
H 	H 	0.45580 0.77550 0.17040 0.04000
C 	C 	0.44803 0.65510 0.14525 -0.01800
C 	C 	0.46276 0.59350 0.11800 -0.02300
H 	H 	0.45390 0.53580 0.11600 0.03800
C 	C 	0.49091 0.61830 0.09370 -0.08600
H 	H 	0.50010 0.57680 0.07520 0.06100
C 	C 	0.41741 0.63080 0.17093 0.06700
C 	C 	0.39530 0.69740 0.18590 -0.11200
H 	H 	0.39930 0.75700 0.17920 0.07300
C 	C 	0.36745 0.67450 0.21090 0.03100
H 	H 	0.35370 0.71930 0.22210 0.04100
C 	C 	0.36001 0.58600 0.21925 -0.08800
C 	C 	0.38250 0.51970 0.20440 0.03300
H 	H 	0.37870 0.45990 0.21090 0.04100
C 	C 	0.41018 0.54360 0.18020 -0.11600
H 	H 	0.42440 0.49900 0.16980 0.07300
C 	C 	0.53558 0.72500 0.02853 -0.04400
C 	C 	0.56597 0.74800 0.00323 0.05500
C 	C 	0.59760 0.70110 0.00729 -0.08700
H 	H 	0.59930 0.65330 0.02590 0.06500
C 	C 	0.62558 0.72510 0.98420 -0.01900
H 	H 	0.64620 0.69350 0.98720 0.04100
C 	C 	0.62345 0.79830 0.95542 -0.02400
C 	C 	0.59277 0.84260 0.95240 -0.01600
H 	H 	0.59110 0.89260 0.93510 0.03600
C 	C 	0.56429 0.81560 0.97420 -0.09500
H 	H 	0.54330 0.84390 0.96920 0.06500
C 	C 	0.65372 0.82770 0.92967 0.07300
C 	C 	0.67574 0.76540 0.91241 -0.11700
H 	H 	0.67220 0.70490 0.91740 0.07700
C 	C 	0.70349 0.79270 0.88727 0.03800
H 	H 	0.71810 0.75030 0.87570 0.04100
C 	C 	0.70899 0.88220 0.87988 -0.09100
C 	C 	0.68655 0.94490 0.89850 0.03400
H 	H 	0.69010 0.00570 0.89420 0.04200
C 	C 	0.65952 0.91730 0.92310 -0.11800
H 	H 	0.64510 0.95950 0.93530 0.07400
C 	C 	0.50433 0.69830 0.00318 0.05800
C 	C 	0.50666 0.63410 0.97230 -0.09600
H 	H 	0.52800 0.60830 0.96690 0.06600
C 	C 	0.47833 0.60700 0.94920 -0.01600
H 	H 	0.48070 0.56110 0.92970 0.03400
C 	C 	0.44616 0.64670 0.95445 -0.02500
C 	C 	0.44426 0.71440 0.98540 -0.01800
H 	H 	0.42330 0.74300 0.98980 0.03800
C 	C 	0.47269 0.73910 0.00930 -0.09200
H 	H 	0.47060 0.78350 0.02960 0.06600
C 	C 	0.41530 0.61680 0.92923 0.06700
C 	C 	0.40997 0.52780 0.91975 -0.11300
H 	H 	0.42580 0.48560 0.92950 0.06900
C 	C 	0.38163 0.49930 0.89609 0.02600
H 	H 	0.37840 0.43900 0.88990 0.04000
C 	C 	0.35793 0.56370 0.88169 -0.08200
C 	C 	0.36282 0.65220 0.89202 0.03300
H 	H 	0.34670 0.69440 0.88300 0.04200
C 	C 	0.39096 0.67940 0.91535 -0.11500
H 	H 	0.39380 0.73950 0.92190 0.07300
C 	C 	0.32984 0.56250 0.24605 0.31200
C 	C 	0.32856 0.53420 0.85382 0.30200
C 	C 	0.73661 0.91490 0.85176 0.31800
In	In	0.28168 0.52187 0.29944 1.99800
O 	O 	0.25477 0.40010 0.26665 -0.40400
O 	O 	0.23881 0.53730 0.25205 -0.45300
O 	O 	0.82527 0.98040 0.25522 -0.42200
O 	O 	0.81030 0.12110 0.25965 -0.45400
O 	O 	0.80884 0.09260 0.83728 -0.40300
O 	O 	0.82474 0.95220 0.84577 -0.45100
O 	O 	0.24125 0.49750 0.84718 -0.45600
O 	O 	0.25496 0.35960 0.83229 -0.42800
C 	C 	0.23546 0.45630 0.24734 0.31100
C 	C 	0.20694 0.41950 0.21968 -0.07500
C 	C 	0.20296 0.33060 0.21300 0.02600
H 	H 	0.21870 0.29070 0.22480 0.05900
C 	C 	0.17524 0.29790 0.18834 -0.09800
H 	H 	0.17260 0.23670 0.18410 0.08200
C 	C 	0.15169 0.35830 0.17028 0.05800
C 	C 	0.15663 0.44800 0.17590 -0.10200
H 	H 	0.14140 0.48810 0.16310 0.06900
C 	C 	0.18381 0.48060 0.20040 0.02000
H 	H 	0.18680 0.54190 0.20400 0.05000
C 	C 	0.12170 0.32500 0.14399 -0.00300
C 	C 	0.10663 0.24540 0.15435 -0.03600
H 	H 	0.11540 0.21280 0.17700 0.05200
C 	C 	0.07858 0.21220 0.13176 -0.07100
H 	H 	0.06820 0.15870 0.13960 0.06000
C 	C 	0.06553 0.26190 0.09557 0.03700
C 	C 	0.08209 0.34340 0.08764 -0.07100
H 	H 	0.07400 0.37830 0.06540 0.05900
C 	C 	0.10959 0.37420 0.11100 -0.03500
H 	H 	0.11990 0.42840 0.10430 0.04400
C 	C 	0.03563 0.22850 0.07061 -0.03300
C 	C 	0.00532 0.20090 0.09609 0.05000
C 	C 	0.99265 0.25870 0.12650 -0.08600
H 	H 	0.00340 0.31370 0.13090 0.06300
C 	C 	0.96401 0.23550 0.15060 -0.02500
H 	H 	0.95580 0.27550 0.17040 0.04000
C 	C 	0.94803 0.15510 0.14525 -0.01800
C 	C 	0.96276 0.09350 0.11800 -0.02400
H 	H 	0.95390 0.03580 0.11600 0.03800
C 	C 	0.99091 0.11830 0.09370 -0.08600
H 	H 	0.00010 0.07680 0.07520 0.06100
C 	C 	0.91741 0.13080 0.17093 0.06700
C 	C 	0.89530 0.19740 0.18590 -0.11200
H 	H 	0.89930 0.25700 0.17920 0.07300
C 	C 	0.86745 0.17450 0.21090 0.03100
H 	H 	0.85370 0.21930 0.22210 0.04100
C 	C 	0.86001 0.08600 0.21925 -0.08800
C 	C 	0.88250 0.01970 0.20440 0.03200
H 	H 	0.87870 0.95990 0.21090 0.04200
C 	C 	0.91018 0.04360 0.18020 -0.11700
H 	H 	0.92440 0.99900 0.16980 0.07400
C 	C 	0.03558 0.22500 0.02853 -0.04400
C 	C 	0.06597 0.24800 0.00323 0.05500
C 	C 	0.09760 0.20110 0.00729 -0.08800
H 	H 	0.09930 0.15330 0.02590 0.06500
C 	C 	0.12558 0.22510 0.98420 -0.01800
H 	H 	0.14620 0.19350 0.98720 0.04100
C 	C 	0.12345 0.29830 0.95542 -0.02400
C 	C 	0.09277 0.34260 0.95240 -0.01600
H 	H 	0.09110 0.39260 0.93510 0.03600
C 	C 	0.06429 0.31560 0.97420 -0.09500
H 	H 	0.04330 0.34390 0.96920 0.06500
C 	C 	0.15372 0.32770 0.92967 0.07300
C 	C 	0.17574 0.26540 0.91241 -0.11800
H 	H 	0.17220 0.20490 0.91740 0.07800
C 	C 	0.20349 0.29270 0.88727 0.03800
H 	H 	0.21810 0.25030 0.87570 0.04100
C 	C 	0.20899 0.38220 0.87988 -0.09200
C 	C 	0.18655 0.44490 0.89850 0.03600
H 	H 	0.19010 0.50570 0.89420 0.04100
C 	C 	0.15952 0.41730 0.92310 -0.11900
H 	H 	0.14510 0.45950 0.93530 0.07400
C 	C 	0.00433 0.19830 0.00318 0.05700
C 	C 	0.00666 0.13410 0.97230 -0.09400
H 	H 	0.02800 0.10830 0.96690 0.06600
C 	C 	0.97833 0.10700 0.94920 -0.01700
H 	H 	0.98070 0.06110 0.92970 0.03400
C 	C 	0.94616 0.14670 0.95445 -0.02400
C 	C 	0.94426 0.21440 0.98540 -0.01900
H 	H 	0.92330 0.24300 0.98980 0.03800
C 	C 	0.97269 0.23910 0.00930 -0.09200
H 	H 	0.97060 0.28350 0.02960 0.06600
C 	C 	0.91530 0.11680 0.92923 0.06500
C 	C 	0.90997 0.02780 0.91975 -0.10900
H 	H 	0.92580 0.98560 0.92950 0.06800
C 	C 	0.88163 0.99930 0.89609 0.02200
H 	H 	0.87840 0.93900 0.88990 0.04100
C 	C 	0.85793 0.06370 0.88169 -0.08000
C 	C 	0.86282 0.15220 0.89202 0.03100
H 	H 	0.84670 0.19440 0.88300 0.04300
C 	C 	0.89096 0.17940 0.91535 -0.11300
H 	H 	0.89380 0.23950 0.92190 0.07200
C 	C 	0.82984 0.06250 0.24605 0.31100
C 	C 	0.82856 0.03420 0.85382 0.30200
C 	C 	0.23661 0.41490 0.85176 0.31900
In	In	0.78168 0.97813 0.79944 1.99800
O 	O 	0.75477 0.09990 0.76665 -0.40400
O 	O 	0.73881 0.96270 0.75205 -0.45400
O 	O 	0.32527 0.51960 0.75522 -0.42300
O 	O 	0.31030 0.37890 0.75965 -0.45400
O 	O 	0.30884 0.40740 0.33728 -0.40300
O 	O 	0.32474 0.54780 0.34577 -0.45100
O 	O 	0.74125 0.00250 0.34718 -0.45600
O 	O 	0.75496 0.14040 0.33229 -0.42800
C 	C 	0.73546 0.04370 0.74734 0.31200
C 	C 	0.70694 0.08050 0.71968 -0.07600
C 	C 	0.70296 0.16940 0.71300 0.02700
H 	H 	0.71870 0.20930 0.72480 0.05900
C 	C 	0.67524 0.20210 0.68834 -0.09900
H 	H 	0.67260 0.26330 0.68410 0.08200
C 	C 	0.65169 0.14170 0.67028 0.05900
C 	C 	0.65663 0.05200 0.67590 -0.10400
H 	H 	0.64140 0.01190 0.66310 0.07000
C 	C 	0.68381 0.01940 0.70040 0.02200
H 	H 	0.68680 0.95810 0.70400 0.04900
C 	C 	0.62170 0.17500 0.64399 -0.00400
C 	C 	0.60663 0.25460 0.65435 -0.03600
H 	H 	0.61540 0.28720 0.67700 0.05100
C 	C 	0.57858 0.28780 0.63176 -0.07100
H 	H 	0.56820 0.34130 0.63960 0.06000
C 	C 	0.56553 0.23810 0.59557 0.03700
C 	C 	0.58209 0.15660 0.58764 -0.07100
H 	H 	0.57400 0.12170 0.56540 0.05900
C 	C 	0.60959 0.12580 0.61100 -0.03500
H 	H 	0.61990 0.07160 0.60430 0.04400
C 	C 	0.53563 0.27150 0.57061 -0.03200
C 	C 	0.50532 0.29910 0.59609 0.05000
C 	C 	0.49265 0.24130 0.62650 -0.08600
H 	H 	0.50340 0.18630 0.63090 0.06300
C 	C 	0.46401 0.26450 0.65060 -0.02500
H 	H 	0.45580 0.22450 0.67040 0.04000
C 	C 	0.44803 0.34490 0.64525 -0.01800
C 	C 	0.46276 0.40650 0.61800 -0.02300
H 	H 	0.45390 0.46420 0.61600 0.03800
C 	C 	0.49091 0.38170 0.59370 -0.08600
H 	H 	0.50010 0.42320 0.57520 0.06100
C 	C 	0.41741 0.36920 0.67093 0.06700
C 	C 	0.39530 0.30260 0.68590 -0.11200
H 	H 	0.39930 0.24300 0.67920 0.07300
C 	C 	0.36745 0.32550 0.71090 0.03100
H 	H 	0.35370 0.28070 0.72210 0.04100
C 	C 	0.36001 0.41400 0.71925 -0.08800
C 	C 	0.38250 0.48030 0.70440 0.03300
H 	H 	0.37870 0.54010 0.71090 0.04100
C 	C 	0.41018 0.45640 0.68020 -0.11600
H 	H 	0.42440 0.50100 0.66980 0.07300
C 	C 	0.53558 0.27500 0.52853 -0.04400
C 	C 	0.56597 0.25200 0.50323 0.05500
C 	C 	0.59760 0.29890 0.50729 -0.08800
H 	H 	0.59930 0.34670 0.52590 0.06500
C 	C 	0.62558 0.27490 0.48420 -0.01800
H 	H 	0.64620 0.30650 0.48720 0.04100
C 	C 	0.62345 0.20170 0.45542 -0.02400
C 	C 	0.59277 0.15740 0.45240 -0.01600
H 	H 	0.59110 0.10740 0.43510 0.03600
C 	C 	0.56429 0.18440 0.47420 -0.09500
H 	H 	0.54330 0.15610 0.46920 0.06500
C 	C 	0.65372 0.17230 0.42967 0.07300
C 	C 	0.67574 0.23460 0.41241 -0.11700
H 	H 	0.67220 0.29510 0.41740 0.07700
C 	C 	0.70349 0.20730 0.38727 0.03800
H 	H 	0.71810 0.24970 0.37570 0.04100
C 	C 	0.70899 0.11780 0.37988 -0.09200
C 	C 	0.68655 0.05510 0.39850 0.03500
H 	H 	0.69010 0.99430 0.39420 0.04200
C 	C 	0.65952 0.08270 0.42310 -0.11900
H 	H 	0.64510 0.04050 0.43530 0.07400
C 	C 	0.50433 0.30170 0.50318 0.05800
C 	C 	0.50666 0.36590 0.47230 -0.09600
H 	H 	0.52800 0.39170 0.46690 0.06600
C 	C 	0.47833 0.39300 0.44920 -0.01600
H 	H 	0.48070 0.43890 0.42970 0.03400
C 	C 	0.44616 0.35330 0.45445 -0.02500
C 	C 	0.44426 0.28560 0.48540 -0.01800
H 	H 	0.42330 0.25700 0.48980 0.03800
C 	C 	0.47269 0.26090 0.50930 -0.09300
H 	H 	0.47060 0.21650 0.52960 0.06600
C 	C 	0.41530 0.38320 0.42923 0.06700
C 	C 	0.40997 0.47220 0.41975 -0.11300
H 	H 	0.42580 0.51440 0.42950 0.06900
C 	C 	0.38163 0.50070 0.39609 0.02600
H 	H 	0.37840 0.56100 0.38990 0.04000
C 	C 	0.35793 0.43630 0.38169 -0.08200
C 	C 	0.36282 0.34780 0.39202 0.03300
H 	H 	0.34670 0.30560 0.38300 0.04200
C 	C 	0.39096 0.32060 0.41535 -0.11500
H 	H 	0.39380 0.26050 0.42190 0.07300
C 	C 	0.32984 0.43750 0.74605 0.31200
C 	C 	0.32856 0.46580 0.35382 0.30200
C 	C 	0.73661 0.08510 0.35176 0.31900
In	In	0.28168 0.47813 0.79944 1.99800
O 	O 	0.25477 0.59990 0.76665 -0.40400
O 	O 	0.23881 0.46270 0.75205 -0.45300
O 	O 	0.82527 0.01960 0.75522 -0.42200
O 	O 	0.81030 0.87890 0.75965 -0.45400
O 	O 	0.80884 0.90740 0.33728 -0.40300
O 	O 	0.82474 0.04780 0.34577 -0.45100
O 	O 	0.24125 0.50250 0.34718 -0.45600
O 	O 	0.25496 0.64040 0.33229 -0.42800
C 	C 	0.23546 0.54370 0.74734 0.31100
C 	C 	0.20694 0.58050 0.71968 -0.07500
C 	C 	0.20296 0.66940 0.71300 0.02600
H 	H 	0.21870 0.70930 0.72480 0.05900
C 	C 	0.17524 0.70210 0.68834 -0.09800
H 	H 	0.17260 0.76330 0.68410 0.08200
C 	C 	0.15169 0.64170 0.67028 0.05800
C 	C 	0.15663 0.55200 0.67590 -0.10200
H 	H 	0.14140 0.51190 0.66310 0.06900
C 	C 	0.18381 0.51940 0.70040 0.02000
H 	H 	0.18680 0.45810 0.70400 0.05000
C 	C 	0.12170 0.67500 0.64399 -0.00300
C 	C 	0.10663 0.75460 0.65435 -0.03600
H 	H 	0.11540 0.78720 0.67700 0.05200
C 	C 	0.07858 0.78780 0.63176 -0.07100
H 	H 	0.06820 0.84130 0.63960 0.06000
C 	C 	0.06553 0.73810 0.59557 0.03700
C 	C 	0.08209 0.65660 0.58764 -0.07100
H 	H 	0.07400 0.62170 0.56540 0.05900
C 	C 	0.10959 0.62580 0.61100 -0.03500
H 	H 	0.11990 0.57160 0.60430 0.04400
C 	C 	0.03563 0.77150 0.57061 -0.03300
C 	C 	0.00532 0.79910 0.59609 0.05000
C 	C 	0.99265 0.74130 0.62650 -0.08600
H 	H 	0.00340 0.68630 0.63090 0.06300
C 	C 	0.96401 0.76450 0.65060 -0.02500
H 	H 	0.95580 0.72450 0.67040 0.03900
C 	C 	0.94803 0.84490 0.64525 -0.01800
C 	C 	0.96276 0.90650 0.61800 -0.02300
H 	H 	0.95390 0.96420 0.61600 0.03800
C 	C 	0.99091 0.88170 0.59370 -0.08600
H 	H 	0.00010 0.92320 0.57520 0.06100
C 	C 	0.91741 0.86920 0.67093 0.06700
C 	C 	0.89530 0.80260 0.68590 -0.11200
H 	H 	0.89930 0.74300 0.67920 0.07300
C 	C 	0.86745 0.82550 0.71090 0.03100
H 	H 	0.85370 0.78070 0.72210 0.04100
C 	C 	0.86001 0.91400 0.71925 -0.08800
C 	C 	0.88250 0.98030 0.70440 0.03200
H 	H 	0.87870 0.04010 0.71090 0.04200
C 	C 	0.91018 0.95640 0.68020 -0.11700
H 	H 	0.92440 0.00100 0.66980 0.07400
C 	C 	0.03558 0.77500 0.52853 -0.04400
C 	C 	0.06597 0.75200 0.50323 0.05500
C 	C 	0.09760 0.79890 0.50729 -0.08800
H 	H 	0.09930 0.84670 0.52590 0.06500
C 	C 	0.12558 0.77490 0.48420 -0.01800
H 	H 	0.14620 0.80650 0.48720 0.04100
C 	C 	0.12345 0.70170 0.45542 -0.02400
C 	C 	0.09277 0.65740 0.45240 -0.01600
H 	H 	0.09110 0.60740 0.43510 0.03600
C 	C 	0.06429 0.68440 0.47420 -0.09500
H 	H 	0.04330 0.65610 0.46920 0.06500
C 	C 	0.15372 0.67230 0.42967 0.07300
C 	C 	0.17574 0.73460 0.41241 -0.11800
H 	H 	0.17220 0.79510 0.41740 0.07800
C 	C 	0.20349 0.70730 0.38727 0.03800
H 	H 	0.21810 0.74970 0.37570 0.04100
C 	C 	0.20899 0.61780 0.37988 -0.09200
C 	C 	0.18655 0.55510 0.39850 0.03600
H 	H 	0.19010 0.49430 0.39420 0.04100
C 	C 	0.15952 0.58270 0.42310 -0.11900
H 	H 	0.14510 0.54050 0.43530 0.07400
C 	C 	0.00433 0.80170 0.50318 0.05700
C 	C 	0.00666 0.86590 0.47230 -0.09500
H 	H 	0.02800 0.89170 0.46690 0.06600
C 	C 	0.97833 0.89300 0.44920 -0.01600
H 	H 	0.98070 0.93890 0.42970 0.03400
C 	C 	0.94616 0.85330 0.45445 -0.02400
C 	C 	0.94426 0.78560 0.48540 -0.01800
H 	H 	0.92330 0.75700 0.48980 0.03800
C 	C 	0.97269 0.76090 0.50930 -0.09200
H 	H 	0.97060 0.71650 0.52960 0.06600
C 	C 	0.91530 0.88320 0.42923 0.06600
C 	C 	0.90997 0.97220 0.41975 -0.11100
H 	H 	0.92580 0.01440 0.42950 0.06800
C 	C 	0.88163 0.00070 0.39609 0.02400
H 	H 	0.87840 0.06100 0.38990 0.04100
C 	C 	0.85793 0.93630 0.38169 -0.08100
C 	C 	0.86282 0.84780 0.39202 0.03200
H 	H 	0.84670 0.80560 0.38300 0.04200
C 	C 	0.89096 0.82060 0.41535 -0.11400
H 	H 	0.89380 0.76050 0.42190 0.07300
C 	C 	0.82984 0.93750 0.74605 0.31100
C 	C 	0.82856 0.96580 0.35382 0.30200
C 	C 	0.23661 0.58510 0.35176 0.31900
