data_crystal

_cell_length_a 27.13440
_cell_length_b 27.13440
_cell_length_c 27.13440
_cell_angle_alpha 90.00000
_cell_angle_beta  90.00000
_cell_angle_gamma 90.00000

_symmetry_space_group_name_	'P 1'
_symmetry_space_group_name_H-M	'P 1'

loop_
_symmetry_equiv_pos_as_xyz
  x,y,z

loop_
_atom_site_label
_atom_site_type_symbol
_atom_site_fract_x
_atom_site_fract_y
_atom_site_fract_z
_atom_site_charge
In	In	0.92946 0.52672 0.00603 1.98800
O 	O 	0.00139 0.55572 0.02685 -0.80700
O 	O 	0.86260 0.49650 0.97780 -0.59400
O 	O 	0.84370 0.45690 0.04380 -0.52700
O 	O 	0.98485 0.61104 0.93690 -0.58700
O 	O 	0.90850 0.59050 0.96600 -0.52500
C 	C 	0.83950 0.46570 0.99870 0.49700
C 	C 	0.78980 0.45280 0.97990 -0.15300
C 	C 	0.76180 0.42160 0.01040 0.05300
H 	H 	0.77280 0.40570 0.03870 0.00100
C 	C 	0.70830 0.41840 0.98820 -0.10900
H 	H 	0.68130 0.41290 0.00870 0.06400
C 	C 	0.70130 0.42420 0.93570 0.05800
C 	C 	0.73170 0.45320 0.91120 -0.13400
H 	H 	0.72380 0.46380 0.87960 0.07300
C 	C 	0.77570 0.46780 0.93330 0.07600
H 	H 	0.79650 0.48870 0.91580 0.02100
C 	C 	0.65500 0.40680 0.91070 0.03000
C 	C 	0.63670 0.42900 0.87190 -0.09700
H 	H 	0.65180 0.45770 0.86090 0.05900
C 	C 	0.94020 0.61790 0.93870 0.49000
C 	C 	0.91820 0.66490 0.92000 -0.39500
C 	C 	0.87020 0.67570 0.92510 0.35300
H 	H 	0.84970 0.65300 0.94070 -0.07300
C 	C 	0.85140 0.71640 0.90920 -0.40500
H 	H 	0.81870 0.72440 0.91600 0.16600
C 	C 	0.88170 0.74900 0.88090 0.29800
C 	C 	0.92910 0.73880 0.87710 -0.46000
H 	H 	0.95070 0.76130 0.86270 0.18300
C 	C 	0.94500 0.69720 0.89390 0.38500
H 	H 	0.97760 0.68890 0.88730 -0.11200
C 	C 	0.86090 0.79870 0.86010 -0.15400
C 	C 	0.81900 0.81960 0.87920 0.08000
H 	H 	0.80400 0.80470 0.90610 -0.00800
C 	C 	0.87000 0.62370 0.14810 0.01300
H 	H 	0.88650 0.63560 0.12060 0.04300
O 	O 	0.88610 0.49160 0.12370 -0.45100
C 	C 	0.87690 0.54110 0.10640 0.29700
C 	C 	0.81670 0.67750 0.25660 0.04400
C 	C 	0.84420 0.71810 0.27690 -0.11200
H 	H 	0.87480 0.72720 0.26440 0.06700
C 	C 	0.86150 0.57170 0.14650 -0.08200
C 	C 	0.83680 0.54600 0.18510 0.01100
H 	H 	0.83000 0.51240 0.18650 0.02400
C 	C 	0.85820 0.66140 0.18380 -0.09700
H 	H 	0.86490 0.69500 0.18250 0.06100
C 	C 	0.83380 0.63430 0.22120 0.03000
C 	C 	0.82460 0.58240 0.22110 -0.08300
H 	H 	0.80810 0.57060 0.24880 0.05400
O 	O 	0.89650 0.56200 0.06800 -0.51400
In	In	0.57054 0.47328 0.50603 1.98700
O 	O 	0.49861 0.44428 0.52685 -0.80800
O 	O 	0.63740 0.50350 0.47780 -0.59500
O 	O 	0.65630 0.54310 0.54380 -0.52800
O 	O 	0.51515 0.38896 0.43690 -0.58900
O 	O 	0.59150 0.40950 0.46600 -0.52700
C 	C 	0.66050 0.53430 0.49870 0.49600
C 	C 	0.71020 0.54720 0.47990 -0.15500
C 	C 	0.73820 0.57840 0.51040 0.05300
H 	H 	0.72720 0.59430 0.53870 -0.00100
C 	C 	0.79170 0.58160 0.48820 -0.11100
H 	H 	0.81870 0.58710 0.50870 0.06400
C 	C 	0.79870 0.57580 0.43570 0.05700
C 	C 	0.76830 0.54680 0.41120 -0.13500
H 	H 	0.77620 0.53620 0.37960 0.07300
C 	C 	0.72430 0.53220 0.43330 0.07600
H 	H 	0.70350 0.51130 0.41580 0.02100
C 	C 	0.84500 0.59320 0.41070 0.02900
C 	C 	0.86330 0.57100 0.37190 -0.09600
H 	H 	0.84820 0.54230 0.36090 0.05900
C 	C 	0.55980 0.38210 0.43870 0.49000
C 	C 	0.58180 0.33510 0.42000 -0.39500
C 	C 	0.62980 0.32430 0.42510 0.35400
H 	H 	0.65030 0.34700 0.44070 -0.07300
C 	C 	0.64860 0.28360 0.40920 -0.40500
H 	H 	0.68130 0.27560 0.41600 0.16700
C 	C 	0.61830 0.25100 0.38090 0.29800
C 	C 	0.57090 0.26120 0.37710 -0.46100
H 	H 	0.54930 0.23870 0.36270 0.18300
C 	C 	0.55500 0.30280 0.39390 0.38500
H 	H 	0.52240 0.31110 0.38730 -0.11300
C 	C 	0.63910 0.20130 0.36010 -0.15500
C 	C 	0.68100 0.18040 0.37920 0.08100
H 	H 	0.69600 0.19530 0.40610 -0.00800
C 	C 	0.63000 0.37630 0.64810 0.01300
H 	H 	0.61350 0.36440 0.62060 0.04300
O 	O 	0.61390 0.50840 0.62370 -0.45100
C 	C 	0.62310 0.45890 0.60640 0.29700
C 	C 	0.68330 0.32250 0.75660 0.04400
C 	C 	0.65580 0.28190 0.77690 -0.11200
H 	H 	0.62520 0.27280 0.76440 0.06700
C 	C 	0.63850 0.42830 0.64650 -0.08200
C 	C 	0.66320 0.45400 0.68510 0.01100
H 	H 	0.67000 0.48760 0.68650 0.02400
C 	C 	0.64180 0.33860 0.68380 -0.09700
H 	H 	0.63510 0.30500 0.68250 0.06100
C 	C 	0.66620 0.36570 0.72120 0.03000
C 	C 	0.67540 0.41760 0.72110 -0.08300
H 	H 	0.69190 0.42940 0.74880 0.05400
O 	O 	0.60350 0.43800 0.56800 -0.51400
In	In	0.07054 0.02672 0.49397 1.98700
O 	O 	0.99861 0.05572 0.47315 -0.80800
O 	O 	0.13740 0.99650 0.52220 -0.59500
O 	O 	0.15630 0.95690 0.45620 -0.52800
O 	O 	0.01515 0.11104 0.56310 -0.58900
O 	O 	0.09150 0.09050 0.53400 -0.52700
C 	C 	0.16050 0.96570 0.50130 0.49600
C 	C 	0.21020 0.95280 0.52010 -0.15500
C 	C 	0.23820 0.92160 0.48960 0.05300
H 	H 	0.22720 0.90570 0.46130 -0.00100
C 	C 	0.29170 0.91840 0.51180 -0.11100
H 	H 	0.31870 0.91290 0.49130 0.06400
C 	C 	0.29870 0.92420 0.56430 0.05700
C 	C 	0.26830 0.95320 0.58880 -0.13400
H 	H 	0.27620 0.96380 0.62040 0.07300
C 	C 	0.22430 0.96780 0.56670 0.07600
H 	H 	0.20350 0.98870 0.58420 0.02100
C 	C 	0.34500 0.90680 0.58930 0.03000
C 	C 	0.36330 0.92900 0.62810 -0.09700
H 	H 	0.34820 0.95770 0.63910 0.05900
C 	C 	0.05980 0.11790 0.56130 0.49000
C 	C 	0.08180 0.16490 0.58000 -0.39500
C 	C 	0.12980 0.17570 0.57490 0.35400
H 	H 	0.15030 0.15300 0.55930 -0.07300
C 	C 	0.14860 0.21640 0.59080 -0.40500
H 	H 	0.18130 0.22440 0.58400 0.16700
C 	C 	0.11830 0.24900 0.61910 0.29800
C 	C 	0.07090 0.23880 0.62290 -0.46100
H 	H 	0.04930 0.26130 0.63730 0.18300
C 	C 	0.05500 0.19720 0.60610 0.38500
H 	H 	0.02240 0.18890 0.61270 -0.11300
C 	C 	0.13910 0.29870 0.63990 -0.15500
C 	C 	0.18100 0.31960 0.62080 0.08100
H 	H 	0.19600 0.30470 0.59390 -0.00800
C 	C 	0.13000 0.12370 0.35190 0.01300
H 	H 	0.11350 0.13560 0.37940 0.04300
O 	O 	0.11390 0.99160 0.37630 -0.45100
C 	C 	0.12310 0.04110 0.39360 0.29700
C 	C 	0.18330 0.17750 0.24340 0.04400
C 	C 	0.15580 0.21810 0.22310 -0.11200
H 	H 	0.12520 0.22720 0.23560 0.06700
C 	C 	0.13850 0.07170 0.35350 -0.08200
C 	C 	0.16320 0.04600 0.31490 0.01100
H 	H 	0.17000 0.01240 0.31350 0.02400
C 	C 	0.14180 0.16140 0.31620 -0.09700
H 	H 	0.13510 0.19500 0.31750 0.06100
C 	C 	0.16620 0.13430 0.27880 0.03000
C 	C 	0.17540 0.08240 0.27890 -0.08300
H 	H 	0.19190 0.07060 0.25120 0.05400
O 	O 	0.10350 0.06200 0.43200 -0.51400
In	In	0.42946 0.97328 0.99397 1.98700
O 	O 	0.50139 0.94428 0.97315 -0.80800
O 	O 	0.36260 0.00350 0.02220 -0.59500
O 	O 	0.34370 0.04310 0.95620 -0.52800
O 	O 	0.48485 0.88896 0.06310 -0.58900
O 	O 	0.40850 0.90950 0.03400 -0.52700
C 	C 	0.33950 0.03430 0.00130 0.49600
C 	C 	0.28980 0.04720 0.02010 -0.15500
C 	C 	0.26180 0.07840 0.98960 0.05200
H 	H 	0.27280 0.09430 0.96130 -0.00100
C 	C 	0.20830 0.08160 0.01180 -0.11000
H 	H 	0.18130 0.08710 0.99130 0.06300
C 	C 	0.20130 0.07580 0.06430 0.05700
C 	C 	0.23170 0.04680 0.08880 -0.13400
H 	H 	0.22380 0.03620 0.12040 0.07300
C 	C 	0.27570 0.03220 0.06670 0.07600
H 	H 	0.29650 0.01130 0.08420 0.02100
C 	C 	0.15500 0.09320 0.08930 0.03000
C 	C 	0.13670 0.07100 0.12810 -0.09700
H 	H 	0.15180 0.04230 0.13910 0.05900
C 	C 	0.44020 0.88210 0.06130 0.49000
C 	C 	0.41820 0.83510 0.08000 -0.39500
C 	C 	0.37020 0.82430 0.07490 0.35400
H 	H 	0.34970 0.84700 0.05930 -0.07300
C 	C 	0.35140 0.78360 0.09080 -0.40500
H 	H 	0.31870 0.77560 0.08400 0.16700
C 	C 	0.38170 0.75100 0.11910 0.29800
C 	C 	0.42910 0.76120 0.12290 -0.46100
H 	H 	0.45070 0.73870 0.13730 0.18300
C 	C 	0.44500 0.80280 0.10610 0.38500
H 	H 	0.47760 0.81110 0.11270 -0.11300
C 	C 	0.36090 0.70130 0.13990 -0.15500
C 	C 	0.31900 0.68040 0.12080 0.08100
H 	H 	0.30400 0.69530 0.09390 -0.00800
C 	C 	0.37000 0.87630 0.85190 0.01300
H 	H 	0.38650 0.86440 0.87940 0.04300
O 	O 	0.38610 0.00840 0.87630 -0.45100
C 	C 	0.37690 0.95890 0.89360 0.29700
C 	C 	0.31670 0.82250 0.74340 0.04400
C 	C 	0.34420 0.78190 0.72310 -0.11200
H 	H 	0.37480 0.77280 0.73560 0.06700
C 	C 	0.36150 0.92830 0.85350 -0.08200
C 	C 	0.33680 0.95400 0.81490 0.01100
H 	H 	0.33000 0.98760 0.81350 0.02400
C 	C 	0.35820 0.83860 0.81620 -0.09700
H 	H 	0.36490 0.80500 0.81750 0.06100
C 	C 	0.33380 0.86570 0.77880 0.03000
C 	C 	0.32460 0.91760 0.77890 -0.08300
H 	H 	0.30810 0.92940 0.75120 0.05400
O 	O 	0.39650 0.93800 0.93200 -0.51400
In	In	0.00603 0.92946 0.52672 1.98700
O 	O 	0.02685 0.00139 0.55572 -0.80800
O 	O 	0.97780 0.86260 0.49650 -0.59500
O 	O 	0.04380 0.84370 0.45690 -0.52800
O 	O 	0.93690 0.98485 0.61104 -0.58800
O 	O 	0.96600 0.90850 0.59050 -0.52600
C 	C 	0.99870 0.83950 0.46570 0.49600
C 	C 	0.97990 0.78980 0.45280 -0.15400
C 	C 	0.01040 0.76180 0.42160 0.05200
H 	H 	0.03870 0.77280 0.40570 -0.00000
C 	C 	0.98820 0.70830 0.41840 -0.11000
H 	H 	0.00870 0.68130 0.41290 0.06300
C 	C 	0.93570 0.70130 0.42420 0.05700
C 	C 	0.91120 0.73170 0.45320 -0.13400
H 	H 	0.87960 0.72380 0.46380 0.07300
C 	C 	0.93330 0.77570 0.46780 0.07600
H 	H 	0.91580 0.79650 0.48870 0.02100
C 	C 	0.91070 0.65500 0.40680 0.03000
C 	C 	0.87190 0.63670 0.42900 -0.09700
H 	H 	0.86090 0.65180 0.45770 0.05900
C 	C 	0.93870 0.94020 0.61790 0.49000
C 	C 	0.92000 0.91820 0.66490 -0.39500
C 	C 	0.92510 0.87020 0.67570 0.35300
H 	H 	0.94070 0.84970 0.65300 -0.07300
C 	C 	0.90920 0.85140 0.71640 -0.40500
H 	H 	0.91600 0.81870 0.72440 0.16600
C 	C 	0.88090 0.88170 0.74900 0.29800
C 	C 	0.87710 0.92910 0.73880 -0.46000
H 	H 	0.86270 0.95070 0.76130 0.18300
C 	C 	0.89390 0.94500 0.69720 0.38500
H 	H 	0.88730 0.97760 0.68890 -0.11200
C 	C 	0.86010 0.86090 0.79870 -0.15400
C 	C 	0.87920 0.81900 0.81960 0.08000
H 	H 	0.90610 0.80400 0.80470 -0.00800
C 	C 	0.14810 0.87000 0.62370 0.01300
H 	H 	0.12060 0.88650 0.63560 0.04300
O 	O 	0.12370 0.88610 0.49160 -0.45100
C 	C 	0.10640 0.87690 0.54110 0.29700
C 	C 	0.25660 0.81670 0.67750 0.04400
C 	C 	0.27690 0.84420 0.71810 -0.11200
H 	H 	0.26440 0.87480 0.72720 0.06700
C 	C 	0.14650 0.86150 0.57170 -0.08200
C 	C 	0.18510 0.83680 0.54600 0.01100
H 	H 	0.18650 0.83000 0.51240 0.02400
C 	C 	0.18380 0.85820 0.66140 -0.09700
H 	H 	0.18250 0.86490 0.69500 0.06100
C 	C 	0.22120 0.83380 0.63430 0.03000
C 	C 	0.22110 0.82460 0.58240 -0.08300
H 	H 	0.24880 0.80810 0.57060 0.05400
O 	O 	0.06800 0.89650 0.56200 -0.51400
In	In	0.50603 0.57054 0.47328 1.98700
O 	O 	0.52685 0.49861 0.44428 -0.80800
O 	O 	0.47780 0.63740 0.50350 -0.59500
O 	O 	0.54380 0.65630 0.54310 -0.52800
O 	O 	0.43690 0.51515 0.38896 -0.58900
O 	O 	0.46600 0.59150 0.40950 -0.52700
C 	C 	0.49870 0.66050 0.53430 0.49600
C 	C 	0.47990 0.71020 0.54720 -0.15500
C 	C 	0.51040 0.73820 0.57840 0.05300
H 	H 	0.53870 0.72720 0.59430 -0.00100
C 	C 	0.48820 0.79170 0.58160 -0.11100
H 	H 	0.50870 0.81870 0.58710 0.06400
C 	C 	0.43570 0.79870 0.57580 0.05700
C 	C 	0.41120 0.76830 0.54680 -0.13500
H 	H 	0.37960 0.77620 0.53620 0.07300
C 	C 	0.43330 0.72430 0.53220 0.07600
H 	H 	0.41580 0.70350 0.51130 0.02100
C 	C 	0.41070 0.84500 0.59320 0.02900
C 	C 	0.37190 0.86330 0.57100 -0.09600
H 	H 	0.36090 0.84820 0.54230 0.05900
C 	C 	0.43870 0.55980 0.38210 0.49000
C 	C 	0.42000 0.58180 0.33510 -0.39500
C 	C 	0.42510 0.62980 0.32430 0.35400
H 	H 	0.44070 0.65030 0.34700 -0.07300
C 	C 	0.40920 0.64860 0.28360 -0.40500
H 	H 	0.41600 0.68130 0.27560 0.16700
C 	C 	0.38090 0.61830 0.25100 0.29800
C 	C 	0.37710 0.57090 0.26120 -0.46100
H 	H 	0.36270 0.54930 0.23870 0.18300
C 	C 	0.39390 0.55500 0.30280 0.38500
H 	H 	0.38730 0.52240 0.31110 -0.11300
C 	C 	0.36010 0.63910 0.20130 -0.15500
C 	C 	0.37920 0.68100 0.18040 0.08100
H 	H 	0.40610 0.69600 0.19530 -0.00800
C 	C 	0.64810 0.63000 0.37630 0.01300
H 	H 	0.62060 0.61350 0.36440 0.04300
O 	O 	0.62370 0.61390 0.50840 -0.45100
C 	C 	0.60640 0.62310 0.45890 0.29700
C 	C 	0.75660 0.68330 0.32250 0.04400
C 	C 	0.77690 0.65580 0.28190 -0.11200
H 	H 	0.76440 0.62520 0.27280 0.06700
C 	C 	0.64650 0.63850 0.42830 -0.08200
C 	C 	0.68510 0.66320 0.45400 0.01100
H 	H 	0.68650 0.67000 0.48760 0.02400
C 	C 	0.68380 0.64180 0.33860 -0.09700
H 	H 	0.68250 0.63510 0.30500 0.06100
C 	C 	0.72120 0.66620 0.36570 0.03000
C 	C 	0.72110 0.67540 0.41760 -0.08300
H 	H 	0.74880 0.69190 0.42940 0.05400
O 	O 	0.56800 0.60350 0.43800 -0.51400
In	In	0.49397 0.07054 0.02672 1.98700
O 	O 	0.47315 0.99861 0.05572 -0.80800
O 	O 	0.52220 0.13740 0.99650 -0.59500
O 	O 	0.45620 0.15630 0.95690 -0.52800
O 	O 	0.56310 0.01515 0.11104 -0.58900
O 	O 	0.53400 0.09150 0.09050 -0.52700
C 	C 	0.50130 0.16050 0.96570 0.49600
C 	C 	0.52010 0.21020 0.95280 -0.15500
C 	C 	0.48960 0.23820 0.92160 0.05300
H 	H 	0.46130 0.22720 0.90570 -0.00100
C 	C 	0.51180 0.29170 0.91840 -0.11100
H 	H 	0.49130 0.31870 0.91290 0.06400
C 	C 	0.56430 0.29870 0.92420 0.05700
C 	C 	0.58880 0.26830 0.95320 -0.13400
H 	H 	0.62040 0.27620 0.96380 0.07300
C 	C 	0.56670 0.22430 0.96780 0.07600
H 	H 	0.58420 0.20350 0.98870 0.02100
C 	C 	0.58930 0.34500 0.90680 0.03000
C 	C 	0.62810 0.36330 0.92900 -0.09700
H 	H 	0.63910 0.34820 0.95770 0.05900
C 	C 	0.56130 0.05980 0.11790 0.49000
C 	C 	0.58000 0.08180 0.16490 -0.39500
C 	C 	0.57490 0.12980 0.17570 0.35400
H 	H 	0.55930 0.15030 0.15300 -0.07300
C 	C 	0.59080 0.14860 0.21640 -0.40500
H 	H 	0.58400 0.18130 0.22440 0.16700
C 	C 	0.61910 0.11830 0.24900 0.29800
C 	C 	0.62290 0.07090 0.23880 -0.46100
H 	H 	0.63730 0.04930 0.26130 0.18300
C 	C 	0.60610 0.05500 0.19720 0.38500
H 	H 	0.61270 0.02240 0.18890 -0.11300
C 	C 	0.63990 0.13910 0.29870 -0.15500
C 	C 	0.62080 0.18100 0.31960 0.08100
H 	H 	0.59390 0.19600 0.30470 -0.00800
C 	C 	0.35190 0.13000 0.12370 0.01300
H 	H 	0.37940 0.11350 0.13560 0.04300
O 	O 	0.37630 0.11390 0.99160 -0.45100
C 	C 	0.39360 0.12310 0.04110 0.29700
C 	C 	0.24340 0.18330 0.17750 0.04400
C 	C 	0.22310 0.15580 0.21810 -0.11200
H 	H 	0.23560 0.12520 0.22720 0.06700
C 	C 	0.35350 0.13850 0.07170 -0.08200
C 	C 	0.31490 0.16320 0.04600 0.01100
H 	H 	0.31350 0.17000 0.01240 0.02400
C 	C 	0.31620 0.14180 0.16140 -0.09700
H 	H 	0.31750 0.13510 0.19500 0.06100
C 	C 	0.27880 0.16620 0.13430 0.03000
C 	C 	0.27890 0.17540 0.08240 -0.08300
H 	H 	0.25120 0.19190 0.07060 0.05400
O 	O 	0.43200 0.10350 0.06200 -0.51400
In	In	0.99397 0.42946 0.97328 1.98700
O 	O 	0.97315 0.50139 0.94428 -0.80800
O 	O 	0.02220 0.36260 0.00350 -0.59500
O 	O 	0.95620 0.34370 0.04310 -0.52800
O 	O 	0.06310 0.48485 0.88896 -0.58900
O 	O 	0.03400 0.40850 0.90950 -0.52700
C 	C 	0.00130 0.33950 0.03430 0.49600
C 	C 	0.02010 0.28980 0.04720 -0.15500
C 	C 	0.98960 0.26180 0.07840 0.05200
H 	H 	0.96130 0.27280 0.09430 -0.00100
C 	C 	0.01180 0.20830 0.08160 -0.11000
H 	H 	0.99130 0.18130 0.08710 0.06300
C 	C 	0.06430 0.20130 0.07580 0.05700
C 	C 	0.08880 0.23170 0.04680 -0.13400
H 	H 	0.12040 0.22380 0.03620 0.07300
C 	C 	0.06670 0.27570 0.03220 0.07600
H 	H 	0.08420 0.29650 0.01130 0.02100
C 	C 	0.08930 0.15500 0.09320 0.03000
C 	C 	0.12810 0.13670 0.07100 -0.09700
H 	H 	0.13910 0.15180 0.04230 0.05900
C 	C 	0.06130 0.44020 0.88210 0.49000
C 	C 	0.08000 0.41820 0.83510 -0.39500
C 	C 	0.07490 0.37020 0.82430 0.35400
H 	H 	0.05930 0.34970 0.84700 -0.07300
C 	C 	0.09080 0.35140 0.78360 -0.40500
H 	H 	0.08400 0.31870 0.77560 0.16700
C 	C 	0.11910 0.38170 0.75100 0.29800
C 	C 	0.12290 0.42910 0.76120 -0.46100
H 	H 	0.13730 0.45070 0.73870 0.18300
C 	C 	0.10610 0.44500 0.80280 0.38500
H 	H 	0.11270 0.47760 0.81110 -0.11300
C 	C 	0.13990 0.36090 0.70130 -0.15500
C 	C 	0.12080 0.31900 0.68040 0.08100
H 	H 	0.09390 0.30400 0.69530 -0.00800
C 	C 	0.85190 0.37000 0.87630 0.01300
H 	H 	0.87940 0.38650 0.86440 0.04300
O 	O 	0.87630 0.38610 0.00840 -0.45100
C 	C 	0.89360 0.37690 0.95890 0.29700
C 	C 	0.74340 0.31670 0.82250 0.04400
C 	C 	0.72310 0.34420 0.78190 -0.11200
H 	H 	0.73560 0.37480 0.77280 0.06700
C 	C 	0.85350 0.36150 0.92830 -0.08200
C 	C 	0.81490 0.33680 0.95400 0.01100
H 	H 	0.81350 0.33000 0.98760 0.02400
C 	C 	0.81620 0.35820 0.83860 -0.09700
H 	H 	0.81750 0.36490 0.80500 0.06100
C 	C 	0.77880 0.33380 0.86570 0.03000
C 	C 	0.77890 0.32460 0.91760 -0.08300
H 	H 	0.75120 0.30810 0.92940 0.05400
O 	O 	0.93200 0.39650 0.93800 -0.51400
In	In	0.52672 0.00603 0.92946 1.98700
O 	O 	0.55572 0.02685 0.00139 -0.80800
O 	O 	0.49650 0.97780 0.86260 -0.59500
O 	O 	0.45690 0.04380 0.84370 -0.52800
O 	O 	0.61104 0.93690 0.98485 -0.58800
O 	O 	0.59050 0.96600 0.90850 -0.52600
C 	C 	0.46570 0.99870 0.83950 0.49600
C 	C 	0.45280 0.97990 0.78980 -0.15400
C 	C 	0.42160 0.01040 0.76180 0.05200
H 	H 	0.40570 0.03870 0.77280 -0.00000
C 	C 	0.41840 0.98820 0.70830 -0.11000
H 	H 	0.41290 0.00870 0.68130 0.06300
C 	C 	0.42420 0.93570 0.70130 0.05700
C 	C 	0.45320 0.91120 0.73170 -0.13400
H 	H 	0.46380 0.87960 0.72380 0.07300
C 	C 	0.46780 0.93330 0.77570 0.07600
H 	H 	0.48870 0.91580 0.79650 0.02100
C 	C 	0.40680 0.91070 0.65500 0.03000
C 	C 	0.42900 0.87190 0.63670 -0.09700
H 	H 	0.45770 0.86090 0.65180 0.05900
C 	C 	0.61790 0.93870 0.94020 0.49000
C 	C 	0.66490 0.92000 0.91820 -0.39500
C 	C 	0.67570 0.92510 0.87020 0.35300
H 	H 	0.65300 0.94070 0.84970 -0.07300
C 	C 	0.71640 0.90920 0.85140 -0.40500
H 	H 	0.72440 0.91600 0.81870 0.16600
C 	C 	0.74900 0.88090 0.88170 0.29800
C 	C 	0.73880 0.87710 0.92910 -0.46000
H 	H 	0.76130 0.86270 0.95070 0.18300
C 	C 	0.69720 0.89390 0.94500 0.38500
H 	H 	0.68890 0.88730 0.97760 -0.11200
C 	C 	0.79870 0.86010 0.86090 -0.15400
C 	C 	0.81960 0.87920 0.81900 0.08000
H 	H 	0.80470 0.90610 0.80400 -0.00800
C 	C 	0.62370 0.14810 0.87000 0.01300
H 	H 	0.63560 0.12060 0.88650 0.04300
O 	O 	0.49160 0.12370 0.88610 -0.45100
C 	C 	0.54110 0.10640 0.87690 0.29700
C 	C 	0.67750 0.25660 0.81670 0.04400
C 	C 	0.71810 0.27690 0.84420 -0.11200
H 	H 	0.72720 0.26440 0.87480 0.06700
C 	C 	0.57170 0.14650 0.86150 -0.08200
C 	C 	0.54600 0.18510 0.83680 0.01100
H 	H 	0.51240 0.18650 0.83000 0.02400
C 	C 	0.66140 0.18380 0.85820 -0.09700
H 	H 	0.69500 0.18250 0.86490 0.06100
C 	C 	0.63430 0.22120 0.83380 0.03000
C 	C 	0.58240 0.22110 0.82460 -0.08300
H 	H 	0.57060 0.24880 0.80810 0.05400
O 	O 	0.56200 0.06800 0.89650 -0.51400
In	In	0.47328 0.50603 0.57054 1.98700
O 	O 	0.44428 0.52685 0.49861 -0.80800
O 	O 	0.50350 0.47780 0.63740 -0.59500
O 	O 	0.54310 0.54380 0.65630 -0.52800
O 	O 	0.38896 0.43690 0.51515 -0.58900
O 	O 	0.40950 0.46600 0.59150 -0.52700
C 	C 	0.53430 0.49870 0.66050 0.49600
C 	C 	0.54720 0.47990 0.71020 -0.15500
C 	C 	0.57840 0.51040 0.73820 0.05300
H 	H 	0.59430 0.53870 0.72720 -0.00100
C 	C 	0.58160 0.48820 0.79170 -0.11100
H 	H 	0.58710 0.50870 0.81870 0.06400
C 	C 	0.57580 0.43570 0.79870 0.05700
C 	C 	0.54680 0.41120 0.76830 -0.13500
H 	H 	0.53620 0.37960 0.77620 0.07300
C 	C 	0.53220 0.43330 0.72430 0.07600
H 	H 	0.51130 0.41580 0.70350 0.02100
C 	C 	0.59320 0.41070 0.84500 0.02900
C 	C 	0.57100 0.37190 0.86330 -0.09600
H 	H 	0.54230 0.36090 0.84820 0.05900
C 	C 	0.38210 0.43870 0.55980 0.49000
C 	C 	0.33510 0.42000 0.58180 -0.39500
C 	C 	0.32430 0.42510 0.62980 0.35400
H 	H 	0.34700 0.44070 0.65030 -0.07300
C 	C 	0.28360 0.40920 0.64860 -0.40500
H 	H 	0.27560 0.41600 0.68130 0.16700
C 	C 	0.25100 0.38090 0.61830 0.29800
C 	C 	0.26120 0.37710 0.57090 -0.46100
H 	H 	0.23870 0.36270 0.54930 0.18300
C 	C 	0.30280 0.39390 0.55500 0.38500
H 	H 	0.31110 0.38730 0.52240 -0.11300
C 	C 	0.20130 0.36010 0.63910 -0.15500
C 	C 	0.18040 0.37920 0.68100 0.08100
H 	H 	0.19530 0.40610 0.69600 -0.00800
C 	C 	0.37630 0.64810 0.63000 0.01300
H 	H 	0.36440 0.62060 0.61350 0.04300
O 	O 	0.50840 0.62370 0.61390 -0.45100
C 	C 	0.45890 0.60640 0.62310 0.29700
C 	C 	0.32250 0.75660 0.68330 0.04400
C 	C 	0.28190 0.77690 0.65580 -0.11200
H 	H 	0.27280 0.76440 0.62520 0.06700
C 	C 	0.42830 0.64650 0.63850 -0.08200
C 	C 	0.45400 0.68510 0.66320 0.01100
H 	H 	0.48760 0.68650 0.67000 0.02400
C 	C 	0.33860 0.68380 0.64180 -0.09700
H 	H 	0.30500 0.68250 0.63510 0.06100
C 	C 	0.36570 0.72120 0.66620 0.03000
C 	C 	0.41760 0.72110 0.67540 -0.08300
H 	H 	0.42940 0.74880 0.69190 0.05400
O 	O 	0.43800 0.56800 0.60350 -0.51400
In	In	0.02672 0.49397 0.07054 1.98700
O 	O 	0.05572 0.47315 0.99861 -0.80800
O 	O 	0.99650 0.52220 0.13740 -0.59500
O 	O 	0.95690 0.45620 0.15630 -0.52800
O 	O 	0.11104 0.56310 0.01515 -0.58900
O 	O 	0.09050 0.53400 0.09150 -0.52700
C 	C 	0.96570 0.50130 0.16050 0.49600
C 	C 	0.95280 0.52010 0.21020 -0.15500
C 	C 	0.92160 0.48960 0.23820 0.05300
H 	H 	0.90570 0.46130 0.22720 -0.00100
C 	C 	0.91840 0.51180 0.29170 -0.11100
H 	H 	0.91290 0.49130 0.31870 0.06400
C 	C 	0.92420 0.56430 0.29870 0.05700
C 	C 	0.95320 0.58880 0.26830 -0.13400
H 	H 	0.96380 0.62040 0.27620 0.07300
C 	C 	0.96780 0.56670 0.22430 0.07600
H 	H 	0.98870 0.58420 0.20350 0.02100
C 	C 	0.90680 0.58930 0.34500 0.03000
C 	C 	0.92900 0.62810 0.36330 -0.09700
H 	H 	0.95770 0.63910 0.34820 0.05900
C 	C 	0.11790 0.56130 0.05980 0.49000
C 	C 	0.16490 0.58000 0.08180 -0.39500
C 	C 	0.17570 0.57490 0.12980 0.35400
H 	H 	0.15300 0.55930 0.15030 -0.07300
C 	C 	0.21640 0.59080 0.14860 -0.40500
H 	H 	0.22440 0.58400 0.18130 0.16700
C 	C 	0.24900 0.61910 0.11830 0.29800
C 	C 	0.23880 0.62290 0.07090 -0.46100
H 	H 	0.26130 0.63730 0.04930 0.18300
C 	C 	0.19720 0.60610 0.05500 0.38500
H 	H 	0.18890 0.61270 0.02240 -0.11300
C 	C 	0.29870 0.63990 0.13910 -0.15500
C 	C 	0.31960 0.62080 0.18100 0.08100
H 	H 	0.30470 0.59390 0.19600 -0.00800
C 	C 	0.12370 0.35190 0.13000 0.01300
H 	H 	0.13560 0.37940 0.11350 0.04300
O 	O 	0.99160 0.37630 0.11390 -0.45100
C 	C 	0.04110 0.39360 0.12310 0.29700
C 	C 	0.17750 0.24340 0.18330 0.04400
C 	C 	0.21810 0.22310 0.15580 -0.11200
H 	H 	0.22720 0.23560 0.12520 0.06700
C 	C 	0.07170 0.35350 0.13850 -0.08200
C 	C 	0.04600 0.31490 0.16320 0.01100
H 	H 	0.01240 0.31350 0.17000 0.02400
C 	C 	0.16140 0.31620 0.14180 -0.09700
H 	H 	0.19500 0.31750 0.13510 0.06100
C 	C 	0.13430 0.27880 0.16620 0.03000
C 	C 	0.08240 0.27890 0.17540 -0.08300
H 	H 	0.07060 0.25120 0.19190 0.05400
O 	O 	0.06200 0.43200 0.10350 -0.51400
In	In	0.97328 0.99397 0.42946 1.98700
O 	O 	0.94428 0.97315 0.50139 -0.80800
O 	O 	0.00350 0.02220 0.36260 -0.59500
O 	O 	0.04310 0.95620 0.34370 -0.52800
O 	O 	0.88896 0.06310 0.48485 -0.58900
O 	O 	0.90950 0.03400 0.40850 -0.52700
C 	C 	0.03430 0.00130 0.33950 0.49600
C 	C 	0.04720 0.02010 0.28980 -0.15500
C 	C 	0.07840 0.98960 0.26180 0.05200
H 	H 	0.09430 0.96130 0.27280 -0.00100
C 	C 	0.08160 0.01180 0.20830 -0.11000
H 	H 	0.08710 0.99130 0.18130 0.06300
C 	C 	0.07580 0.06430 0.20130 0.05700
C 	C 	0.04680 0.08880 0.23170 -0.13400
H 	H 	0.03620 0.12040 0.22380 0.07300
C 	C 	0.03220 0.06670 0.27570 0.07600
H 	H 	0.01130 0.08420 0.29650 0.02100
C 	C 	0.09320 0.08930 0.15500 0.03000
C 	C 	0.07100 0.12810 0.13670 -0.09700
H 	H 	0.04230 0.13910 0.15180 0.05900
C 	C 	0.88210 0.06130 0.44020 0.49000
C 	C 	0.83510 0.08000 0.41820 -0.39500
C 	C 	0.82430 0.07490 0.37020 0.35400
H 	H 	0.84700 0.05930 0.34970 -0.07300
C 	C 	0.78360 0.09080 0.35140 -0.40500
H 	H 	0.77560 0.08400 0.31870 0.16700
C 	C 	0.75100 0.11910 0.38170 0.29800
C 	C 	0.76120 0.12290 0.42910 -0.46100
H 	H 	0.73870 0.13730 0.45070 0.18300
C 	C 	0.80280 0.10610 0.44500 0.38500
H 	H 	0.81110 0.11270 0.47760 -0.11300
C 	C 	0.70130 0.13990 0.36090 -0.15500
C 	C 	0.68040 0.12080 0.31900 0.08100
H 	H 	0.69530 0.09390 0.30400 -0.00800
C 	C 	0.87630 0.85190 0.37000 0.01300
H 	H 	0.86440 0.87940 0.38650 0.04300
O 	O 	0.00840 0.87630 0.38610 -0.45100
C 	C 	0.95890 0.89360 0.37690 0.29700
C 	C 	0.82250 0.74340 0.31670 0.04400
C 	C 	0.78190 0.72310 0.34420 -0.11200
H 	H 	0.77280 0.73560 0.37480 0.06700
C 	C 	0.92830 0.85350 0.36150 -0.08200
C 	C 	0.95400 0.81490 0.33680 0.01100
H 	H 	0.98760 0.81350 0.33000 0.02400
C 	C 	0.83860 0.81620 0.35820 -0.09700
H 	H 	0.80500 0.81750 0.36490 0.06100
C 	C 	0.86570 0.77880 0.33380 0.03000
C 	C 	0.91760 0.77890 0.32460 -0.08300
H 	H 	0.92940 0.75120 0.30810 0.05400
O 	O 	0.93800 0.93200 0.39650 -0.51400
Pr	Pr	0.05240 0.55240 0.94760 2.00500
Pr	Pr	0.90984 0.40984 0.09016 2.02400
O 	O 	0.96137 0.46137 0.03863 -1.10500
Pr	Pr	0.44760 0.44760 0.44760 2.00500
Pr	Pr	0.59016 0.59016 0.59016 2.02400
O 	O 	0.53863 0.53863 0.53863 -1.10500
Pr	Pr	0.94760 0.05240 0.55240 2.00500
Pr	Pr	0.09016 0.90984 0.40984 2.02400
O 	O 	0.03863 0.96137 0.46137 -1.10500
Pr	Pr	0.55240 0.94760 0.05240 2.00500
Pr	Pr	0.40984 0.09016 0.90984 2.02400
O 	O 	0.46137 0.03863 0.96137 -1.10500
