data_crystal

_cell_length_a 27.13190
_cell_length_b 27.13190
_cell_length_c 27.13190
_cell_angle_alpha 90.00000
_cell_angle_beta  90.00000
_cell_angle_gamma 90.00000

_symmetry_space_group_name_	'P 1'
_symmetry_space_group_name_H-M	'P 1'

loop_
_symmetry_equiv_pos_as_xyz
  x,y,z

loop_
_atom_site_label
_atom_site_type_symbol
_atom_site_fract_x
_atom_site_fract_y
_atom_site_fract_z
_atom_site_charge
In	In	0.22442 0.31585 0.25716 2.02200
O 	O 	0.25176 0.28311 0.19612 -0.93100
O 	O 	0.19773 0.34344 0.31897 -0.57700
O 	O 	0.16189 0.32846 0.22104 -0.54400
O 	O 	0.14324 0.25527 0.18432 -0.37100
O 	O 	0.25345 0.37971 0.23609 -0.57900
C 	C 	0.05213 0.29579 0.14839 0.02200
H 	H 	0.05684 0.25635 0.14532 0.05300
C 	C 	0.13337 0.30212 0.19403 0.36500
C 	C 	0.08764 0.32490 0.17257 -0.08200
C 	C 	0.00940 0.31691 0.12813 -0.05700
H 	H 	0.98279 0.29267 0.11097 0.05200
C 	C 	0.00074 0.36813 0.13070 0.02400
C 	C 	0.03646 0.39722 0.15507 -0.05800
H 	H 	0.03219 0.43675 0.15750 0.05100
C 	C 	0.07894 0.37593 0.17591 0.02400
H 	H 	0.10525 0.39968 0.19424 0.04700
C 	C 	0.29859 0.51003 0.16120 -0.06300
H 	H 	0.29406 0.51230 0.12170 0.05100
O 	O 	0.29000 0.40532 0.30505 -0.47600
C 	C 	0.28105 0.46764 0.18522 0.02800
H 	H 	0.26327 0.43925 0.16357 0.05300
C 	C 	0.93336 0.43341 0.12886 -0.06000
H 	H 	0.94971 0.44963 0.16134 0.05000
C 	C 	0.95510 0.39087 0.10811 0.02300
C 	C 	0.34426 0.59217 0.16165 0.01900
C 	C 	0.32350 0.54745 0.18744 0.02600
C 	C 	0.27606 0.41310 0.26035 0.40700
C 	C 	0.32179 0.61142 0.11881 -0.05900
H 	H 	0.28960 0.59327 0.10407 0.04600
C 	C 	0.28858 0.46084 0.23607 -0.11400
C 	C 	0.31247 0.49839 0.26256 0.03300
H 	H 	0.31928 0.49449 0.30170 0.03800
O 	O 	0.26213 0.38458 0.35033 -0.45300
C 	C 	0.21602 0.37200 0.35156 0.40400
C 	C 	0.32917 0.54113 0.23880 -0.06900
H 	H 	0.34691 0.56908 0.26096 0.05100
C 	C 	0.13177 0.38300 0.38941 0.03300
H 	H 	0.11532 0.36544 0.35756 0.05200
C 	C 	0.18299 0.39108 0.39141 -0.11200
C 	C 	0.08767 0.43144 0.51462 0.02000
C 	C 	0.04634 0.40204 0.52635 -0.06100
H 	H 	0.03803 0.37026 0.50383 0.05000
C 	C 	0.20245 0.41364 0.43381 0.03300
H 	H 	0.24181 0.41934 0.43729 0.03500
C 	C 	0.10099 0.39685 0.42864 -0.06400
H 	H 	0.06174 0.39052 0.42504 0.05500
C 	C 	0.17174 0.42697 0.47337 -0.06600
H 	H 	0.18862 0.44239 0.50605 0.04900
C 	C 	0.12042 0.41856 0.47163 0.02600
N 	N 	0.24856 0.33658 0.09342 0.02700
O 	O 	0.16987 0.14042 0.21993 -0.19800
O 	O 	0.37955 0.38408 0.37899 -0.41200
In	In	0.27542 0.68437 0.75706 2.02300
O 	O 	0.24839 0.71733 0.69601 -0.93200
O 	O 	0.30238 0.65626 0.81846 -0.57400
O 	O 	0.33775 0.67150 0.72062 -0.54200
O 	O 	0.35683 0.74469 0.68421 -0.37000
O 	O 	0.24622 0.62075 0.73578 -0.57900
C 	C 	0.44777 0.70381 0.64846 0.02400
H 	H 	0.44308 0.74325 0.64507 0.05400
C 	C 	0.36643 0.69778 0.69377 0.36700
C 	C 	0.41209 0.67486 0.67257 -0.08200
C 	C 	0.49059 0.68252 0.62866 -0.05800
H 	H 	0.51734 0.70665 0.61158 0.05200
C 	C 	0.49909 0.63129 0.63158 0.02500
C 	C 	0.46317 0.60235 0.65571 -0.05800
H 	H 	0.46734 0.56280 0.65828 0.05200
C 	C 	0.42060 0.62380 0.67611 0.02500
H 	H 	0.39403 0.60019 0.69424 0.04700
C 	C 	0.20176 0.49002 0.66098 -0.06200
H 	H 	0.20647 0.48748 0.62149 0.05000
O 	O 	0.20971 0.59515 0.80478 -0.47700
C 	C 	0.21905 0.53254 0.68497 0.02900
H 	H 	0.23674 0.56093 0.66318 0.05300
C 	C 	0.56653 0.56607 0.63042 -0.06000
H 	H 	0.55015 0.55013 0.66303 0.05000
C 	C 	0.54470 0.60840 0.60932 0.02300
C 	C 	0.15623 0.40782 0.66162 0.01900
C 	C 	0.17697 0.45259 0.68731 0.02600
C 	C 	0.22360 0.58736 0.76005 0.40700
C 	C 	0.17884 0.38832 0.61898 -0.05900
H 	H 	0.21124 0.40627 0.60440 0.04600
C 	C 	0.21145 0.53942 0.73581 -0.11300
C 	C 	0.18759 0.50187 0.76232 0.03200
H 	H 	0.18067 0.50596 0.80136 0.03800
O 	O 	0.23771 0.61577 0.85026 -0.45500
C 	C 	0.28394 0.62795 0.85120 0.40500
C 	C 	0.17112 0.45902 0.73862 -0.06900
H 	H 	0.15351 0.43103 0.76087 0.05100
C 	C 	0.36815 0.61602 0.88858 0.03300
H 	H 	0.38465 0.63299 0.85646 0.05200
C 	C 	0.31687 0.60843 0.89085 -0.11200
C 	C 	0.41208 0.56905 0.01427 0.02000
C 	C 	0.45340 0.59861 0.02572 -0.06100
H 	H 	0.46142 0.63049 0.00319 0.04900
C 	C 	0.29733 0.58607 0.93335 0.03300
H 	H 	0.25801 0.58043 0.93681 0.03500
C 	C 	0.39887 0.60257 0.92793 -0.06400
H 	H 	0.43807 0.60883 0.92432 0.05400
C 	C 	0.32801 0.57301 0.97300 -0.06600
H 	H 	0.31109 0.55793 0.00579 0.04900
C 	C 	0.37932 0.58143 0.97117 0.02700
N 	N 	0.26725 0.67589 0.59959 0.02700
O 	O 	0.33054 0.85970 0.71984 -0.19900
O 	O 	0.12053 0.61671 0.87913 -0.41200
In	In	0.77535 0.81551 0.24339 2.02200
O 	O 	0.74806 0.78267 0.30428 -0.93300
O 	O 	0.80241 0.84373 0.18178 -0.57200
O 	O 	0.83759 0.82847 0.27981 -0.54500
O 	O 	0.85658 0.75531 0.31637 -0.36900
O 	O 	0.74612 0.87940 0.26455 -0.57800
C 	C 	0.94767 0.79613 0.35187 0.02600
H 	H 	0.94301 0.75669 0.35508 0.05600
C 	C 	0.86619 0.80224 0.30678 0.36700
C 	C 	0.91192 0.82518 0.32794 -0.08100
C 	C 	0.99053 0.81737 0.37164 -0.05700
H 	H 	0.01731 0.79316 0.38858 0.05200
C 	C 	0.99903 0.86862 0.36897 0.02500
C 	C 	0.96316 0.89762 0.34482 -0.05800
H 	H 	0.96737 0.93718 0.34231 0.05100
C 	C 	0.92053 0.87620 0.32441 0.02400
H 	H 	0.89403 0.89987 0.30626 0.04600
C 	C 	0.70174 0.01049 0.33908 -0.06300
H 	H 	0.70637 0.01298 0.37859 0.05100
O 	O 	0.70975 0.90496 0.19549 -0.47500
C 	C 	0.71895 0.96784 0.31522 0.02900
H 	H 	0.73659 0.93948 0.33709 0.05200
C 	C 	0.06637 0.93409 0.37093 -0.06000
H 	H 	0.05005 0.95045 0.33851 0.05100
C 	C 	0.04460 0.89141 0.39151 0.02300
C 	C 	0.65647 0.09296 0.33840 0.01900
C 	C 	0.67713 0.04802 0.31272 0.02600
C 	C 	0.72354 0.91281 0.24023 0.40600
C 	C 	0.67854 0.11188 0.38158 -0.05900
H 	H 	0.71057 0.09362 0.39655 0.04600
C 	C 	0.71146 0.96086 0.26436 -0.11300
C 	C 	0.68784 0.99850 0.23778 0.03200
H 	H 	0.68105 0.99443 0.19865 0.03800
O 	O 	0.73792 0.88447 0.15025 -0.45400
C 	C 	0.78406 0.87220 0.14910 0.40400
C 	C 	0.67150 0.04151 0.26138 -0.06900
H 	H 	0.65413 0.06950 0.23897 0.05100
C 	C 	0.86822 0.88384 0.11120 0.03100
H 	H 	0.88481 0.86660 0.14312 0.05500
C 	C 	0.81695 0.89160 0.10926 -0.11100
C 	C 	0.91177 0.93146 0.98548 0.02100
C 	C 	0.95306 0.90197 0.97377 -0.06100
H 	H 	0.96120 0.87008 0.99622 0.04900
C 	C 	0.79729 0.91417 0.06692 0.03300
H 	H 	0.75794 0.91993 0.06363 0.03500
C 	C 	0.89880 0.89754 0.07177 -0.06300
H 	H 	0.93805 0.89128 0.07521 0.05600
C 	C 	0.82782 0.92741 0.02718 -0.06600
H 	H 	0.81078 0.94273 0.99454 0.04900
C 	C 	0.87913 0.91893 0.02868 0.02600
N 	N 	0.74666 0.82930 0.41318 0.02700
O 	O 	0.83068 0.64043 0.28044 -0.19700
O 	O 	0.62095 0.88336 0.12070 -0.41100
In	In	0.72506 0.18258 0.74337 2.02100
O 	O 	0.75220 0.21580 0.80377 -0.93500
O 	O 	0.69772 0.15324 0.68270 -0.57400
O 	O 	0.66206 0.17283 0.78130 -0.57000
O 	O 	0.64092 0.24528 0.81531 -0.55000
O 	O 	0.75444 0.11960 0.76429 -0.59000
C 	C 	0.55131 0.20514 0.85252 0.04300
H 	H 	0.55617 0.24462 0.85587 0.04400
C 	C 	0.63259 0.19951 0.80736 0.45000
C 	C 	0.58712 0.17635 0.82855 -0.11800
C 	C 	0.50861 0.18362 0.87212 -0.06700
H 	H 	0.48156 0.20769 0.88902 0.05400
C 	C 	0.50049 0.13229 0.86930 0.03100
C 	C 	0.53653 0.10346 0.84536 -0.06700
H 	H 	0.53264 0.06382 0.84276 0.05300
C 	C 	0.57899 0.12521 0.82509 0.03900
H 	H 	0.60578 0.10174 0.80709 0.04100
C 	C 	0.79960 0.98921 0.83936 -0.06300
H 	H 	0.79496 0.98681 0.87883 0.05100
O 	O 	0.79145 0.09474 0.69546 -0.49200
C 	C 	0.78250 0.03175 0.81527 0.02900
H 	H 	0.76491 0.06010 0.83706 0.05200
C 	C 	0.43348 0.06650 0.87099 -0.05900
H 	H 	0.44993 0.05037 0.83850 0.05000
C 	C 	0.45504 0.10918 0.89175 0.02100
C 	C 	0.84470 0.90692 0.83894 0.01900
C 	C 	0.82404 0.95159 0.81310 0.02600
C 	C 	0.77745 0.08664 0.73997 0.41700
C 	C 	0.82242 0.88775 0.88188 -0.05900
H 	H 	0.79027 0.90590 0.89666 0.04600
C 	C 	0.78991 0.03865 0.76426 -0.11600
C 	C 	0.81379 0.00087 0.73794 0.03300
H 	H 	0.82061 0.00475 0.69888 0.03800
O 	O 	0.76321 0.11638 0.64811 -0.46300
C 	C 	0.71662 0.12693 0.64850 0.41400
C 	C 	0.82997 0.95788 0.76175 -0.06900
H 	H 	0.84739 0.92980 0.73950 0.05100
C 	C 	0.63202 0.11545 0.61129 0.03200
H 	H 	0.61567 0.13294 0.64330 0.04800
C 	C 	0.68332 0.10769 0.60889 -0.11500
C 	C 	0.58749 0.06812 0.48570 0.02000
C 	C 	0.54627 0.09772 0.47396 -0.06000
H 	H 	0.53784 0.12936 0.49671 0.04800
C 	C 	0.70255 0.08530 0.56630 0.03500
H 	H 	0.74189 0.07971 0.56265 0.03600
C 	C 	0.60113 0.10189 0.57208 -0.06600
H 	H 	0.56198 0.10863 0.57562 0.05400
C 	C 	0.67165 0.07213 0.52680 -0.06700
H 	H 	0.68853 0.05726 0.49390 0.05000
C 	C 	0.62038 0.08043 0.52883 0.02700
N 	N 	0.76102 0.17624 0.90936 0.02800
O 	O 	0.71350 0.32277 0.85944 -0.23100
O 	O 	0.88022 0.11666 0.62176 -0.41400
In	In	0.25790 0.22569 0.31717 2.02200
O 	O 	0.19688 0.25224 0.28361 -0.92800
O 	O 	0.31730 0.20190 0.35274 -0.58200
O 	O 	0.22274 0.16222 0.32925 -0.54000
O 	O 	0.18535 0.14297 0.25667 -0.38000
O 	O 	0.23517 0.25510 0.38063 -0.58500
C 	C 	0.15042 0.05215 0.29684 0.02500
H 	H 	0.14755 0.05675 0.25740 0.05400
C 	C 	0.19582 0.13336 0.30328 0.37000
C 	C 	0.17466 0.08770 0.32604 -0.08300
C 	C 	0.12971 0.00977 0.31792 -0.05800
H 	H 	0.11254 0.98321 0.29363 0.05200
C 	C 	0.13185 0.00134 0.36913 0.02500
C 	C 	0.15625 0.03697 0.39832 -0.05800
H 	H 	0.15830 0.03271 0.43787 0.05200
C 	C 	0.17757 0.07919 0.37712 0.02600
H 	H 	0.19577 0.10555 0.40095 0.04900
C 	C 	0.15867 0.29986 0.51292 -0.06700
H 	H 	0.11932 0.29433 0.51635 0.05300
O 	O 	0.29414 0.30862 0.40237 -0.60800
C 	C 	0.18182 0.28353 0.46953 0.03900
H 	H 	0.15967 0.26595 0.44142 0.05700
C 	C 	0.12974 0.93394 0.43404 -0.06000
H 	H 	0.16228 0.95013 0.45022 0.05000
C 	C 	0.10899 0.95589 0.39164 0.02300
C 	C 	0.16026 0.34578 0.59514 0.01800
C 	C 	0.18533 0.32504 0.54993 0.03000
C 	C 	0.25534 0.28406 0.41199 0.47600
C 	C 	0.11769 0.32325 0.61485 -0.05900
H 	H 	0.10306 0.29090 0.59699 0.04600
C 	C 	0.23210 0.29269 0.46121 -0.13800
C 	C 	0.25916 0.31591 0.49888 0.04400
H 	H 	0.29811 0.32332 0.49409 0.03400
O 	O 	0.37088 0.26504 0.36228 -0.47000
C 	C 	0.35824 0.21936 0.36843 0.42600
C 	C 	0.23637 0.33136 0.54250 -0.07400
H 	H 	0.25917 0.34881 0.57023 0.05300
C 	C 	0.39187 0.13358 0.38287 0.03400
H 	H 	0.35973 0.11798 0.36503 0.04800
C 	C 	0.39582 0.18489 0.38943 -0.11700
C 	C 	0.51597 0.08730 0.43282 0.02000
C 	C 	0.52745 0.04609 0.40343 -0.06000
H 	H 	0.50490 0.03790 0.37161 0.04900
C 	C 	0.43867 0.20341 0.41204 0.03800
H 	H 	0.44331 0.24268 0.41731 0.03900
C 	C 	0.43009 0.10193 0.39767 -0.06500
H 	H 	0.42560 0.06276 0.39168 0.05500
C 	C 	0.47689 0.17190 0.42669 -0.06800
H 	H 	0.50992 0.18811 0.44204 0.04900
C 	C 	0.47355 0.12058 0.41942 0.02800
N 	N 	0.09108 0.22811 0.34731 0.02700
O 	O 	0.21912 0.16806 0.14185 -0.19600
In	In	0.75801 0.27438 0.68372 2.02300
O 	O 	0.69796 0.24475 0.71355 -0.94200
O 	O 	0.81731 0.29876 0.64821 -0.59000
O 	O 	0.72250 0.33751 0.67309 -0.54500
O 	O 	0.68049 0.35351 0.74390 -0.36800
O 	O 	0.73558 0.24599 0.61926 -0.58600
C 	C 	0.64870 0.44691 0.70531 0.02800
H 	H 	0.64512 0.44175 0.74478 0.05500
C 	C 	0.69395 0.36527 0.69861 0.37600
C 	C 	0.67347 0.41146 0.67617 -0.08000
C 	C 	0.62853 0.48981 0.68410 -0.05800
H 	H 	0.61108 0.51611 0.70827 0.05200
C 	C 	0.63160 0.49848 0.63291 0.02600
C 	C 	0.65623 0.46297 0.60391 -0.05800
H 	H 	0.65889 0.46700 0.56439 0.05100
C 	C 	0.67704 0.42049 0.62521 0.02500
H 	H 	0.69524 0.39408 0.60176 0.04700
C 	C 	0.65820 0.19965 0.48815 -0.07100
H 	H 	0.61880 0.20482 0.48506 0.05100
O 	O 	0.79296 0.19104 0.59848 -0.60600
C 	C 	0.68142 0.21612 0.53150 0.04500
H 	H 	0.65948 0.23346 0.55996 0.04400
C 	C 	0.62981 0.56556 0.56722 -0.06000
H 	H 	0.66234 0.54921 0.55114 0.04900
C 	C 	0.60910 0.54398 0.60992 0.02300
C 	C 	0.65996 0.15430 0.40552 0.01700
C 	C 	0.68493 0.17475 0.45095 0.03200
C 	C 	0.75498 0.21657 0.58825 0.48700
C 	C 	0.61782 0.17738 0.38560 -0.05900
H 	H 	0.60314 0.20944 0.40391 0.04500
C 	C 	0.73174 0.20747 0.53937 -0.14800
C 	C 	0.75892 0.18444 0.50163 0.04900
H 	H 	0.79803 0.17739 0.50607 0.03200
O 	O 	0.87006 0.23540 0.63665 -0.48200
C 	C 	0.85767 0.28119 0.63139 0.43300
C 	C 	0.73606 0.16888 0.45805 -0.07700
H 	H 	0.75873 0.15164 0.43010 0.05300
C 	C 	0.89162 0.36718 0.61720 0.03300
H 	H 	0.85977 0.38282 0.63533 0.04400
C 	C 	0.89509 0.31581 0.61048 -0.12100
C 	C 	0.01588 0.41282 0.56718 0.01900
C 	C 	0.02733 0.45435 0.59629 -0.06000
H 	H 	0.00457 0.46287 0.62787 0.04700
C 	C 	0.93784 0.29712 0.58768 0.03900
H 	H 	0.94252 0.25782 0.58239 0.03900
C 	C 	0.93000 0.39867 0.60226 -0.06800
H 	H 	0.92570 0.43780 0.60828 0.05300
C 	C 	0.97624 0.32847 0.57302 -0.06800
H 	H 	0.00920 0.31207 0.55756 0.05000
C 	C 	0.97333 0.37976 0.58052 0.02800
N 	N 	0.57941 0.27030 0.66482 0.02600
In	In	0.24259 0.77453 0.81732 2.02300
O 	O 	0.30328 0.74797 0.78344 -0.92700
O 	O 	0.18338 0.79873 0.85334 -0.57600
O 	O 	0.27860 0.83749 0.82954 -0.53700
O 	O 	0.31569 0.85694 0.75683 -0.37600
O 	O 	0.26552 0.74499 0.88055 -0.58600
C 	C 	0.35050 0.94774 0.79706 0.02700
H 	H 	0.35337 0.94315 0.75759 0.05500
C 	C 	0.30562 0.86634 0.80360 0.37400
C 	C 	0.32666 0.91208 0.82637 -0.08000
C 	C 	0.37076 0.99043 0.81804 -0.05700
H 	H 	0.38767 0.01711 0.79372 0.05200
C 	C 	0.36851 0.99887 0.86927 0.02600
C 	C 	0.34446 0.96311 0.89850 -0.05700
H 	H 	0.34232 0.96736 0.93809 0.05300
C 	C 	0.32360 0.92061 0.87734 0.02800
H 	H 	0.30560 0.89415 0.90116 0.05000
C 	C 	0.34195 0.69999 0.01277 -0.06800
H 	H 	0.38125 0.70559 0.01616 0.05200
O 	O 	0.20642 0.69172 0.90239 -0.60900
C 	C 	0.31878 0.71662 0.96948 0.04000
H 	H 	0.34070 0.73476 0.94161 0.05700
C 	C 	0.37027 0.06632 0.93418 -0.05900
H 	H 	0.33771 0.04990 0.95037 0.05100
C 	C 	0.39105 0.04452 0.89175 0.02300
C 	C 	0.34023 0.65397 0.09492 0.01800
C 	C 	0.31525 0.67454 0.04961 0.03000
C 	C 	0.24532 0.71612 0.91194 0.47800
C 	C 	0.38251 0.67685 0.11471 -0.05900
H 	H 	0.39709 0.70918 0.09679 0.04600
C 	C 	0.26855 0.70731 0.96108 -0.13900
C 	C 	0.24148 0.68379 0.99857 0.04500
H 	H 	0.20256 0.67636 0.99378 0.03400
O 	O 	0.12968 0.73573 0.86279 -0.46800
C 	C 	0.14242 0.78136 0.86916 0.42400
C 	C 	0.26424 0.66820 0.04219 -0.07500
H 	H 	0.24152 0.65066 0.06983 0.05300
C 	C 	0.10922 0.86721 0.88567 0.03300
H 	H 	0.14204 0.88314 0.86950 0.05700
C 	C 	0.10473 0.81573 0.89040 -0.11300
C 	C 	0.98382 0.91285 0.93317 0.02100
C 	C 	0.97265 0.95450 0.90415 -0.06000
H 	H 	0.99581 0.96317 0.87289 0.05000
C 	C 	0.06125 0.79696 0.91162 0.03600
H 	H 	0.05616 0.75760 0.91571 0.04000
C 	C 	0.07064 0.89874 0.90016 -0.06200
H 	H 	0.07544 0.93808 0.89549 0.05700
C 	C 	0.02287 0.82835 0.92618 -0.06600
H 	H 	0.98946 0.81194 0.94048 0.04900
C 	C 	0.02649 0.87976 0.92009 0.02600
N 	N 	0.41781 0.77062 0.86609 0.02300
O 	O 	0.28108 0.83260 0.64203 -0.19700
In	In	0.74253 0.72540 0.18310 2.02200
O 	O 	0.80314 0.75200 0.21698 -0.93000
O 	O 	0.68355 0.70153 0.14648 -0.57700
O 	O 	0.77812 0.66216 0.17097 -0.53900
O 	O 	0.81530 0.64274 0.24363 -0.37300
O 	O 	0.76598 0.75480 0.12010 -0.59200
C 	C 	0.85024 0.55192 0.20325 0.02700
H 	H 	0.85334 0.55659 0.24271 0.05500
C 	C 	0.80503 0.63324 0.19693 0.37400
C 	C 	0.82604 0.58749 0.17411 -0.08100
C 	C 	0.87060 0.50933 0.18213 -0.05800
H 	H 	0.88775 0.48274 0.20640 0.05200
C 	C 	0.86813 0.50087 0.13095 0.02500
C 	C 	0.84382 0.53652 0.10180 -0.05800
H 	H 	0.84154 0.53231 0.06223 0.05200
C 	C 	0.82285 0.57890 0.12307 0.02600
H 	H 	0.80464 0.60533 0.09935 0.04700
C 	C 	0.84320 0.80035 0.98846 -0.06900
H 	H 	0.88262 0.79540 0.98522 0.05100
O 	O 	0.70711 0.80828 0.09793 -0.60900
C 	C 	0.82008 0.78401 0.03193 0.04200
H 	H 	0.84224 0.76703 0.06048 0.04700
C 	C 	0.86988 0.43352 0.06584 -0.06000
H 	H 	0.83736 0.44987 0.04978 0.05100
C 	C 	0.89077 0.45532 0.10826 0.02300
C 	C 	0.84103 0.84529 0.90573 0.01700
C 	C 	0.81624 0.82481 0.95113 0.03100
C 	C 	0.74603 0.78373 0.08863 0.47900
C 	C 	0.88320 0.82239 0.88582 -0.05900
H 	H 	0.89784 0.79010 0.90382 0.04600
C 	C 	0.76957 0.79239 0.03968 -0.14300
C 	C 	0.74233 0.81483 0.00169 0.04600
H 	H 	0.70322 0.82157 0.00611 0.03300
O 	O 	0.62994 0.76455 0.13699 -0.47000
C 	C 	0.64274 0.71900 0.13046 0.42500
C 	C 	0.76510 0.83032 0.95807 -0.07600
H 	H 	0.74228 0.84708 0.93000 0.05300
C 	C 	0.60998 0.63327 0.11275 0.03200
H 	H 	0.64303 0.61732 0.12835 0.05800
C 	C 	0.60518 0.68479 0.10880 -0.11400
C 	C 	0.48431 0.58776 0.06618 0.02000
C 	C 	0.47321 0.54623 0.09541 -0.06000
H 	H 	0.49654 0.53763 0.12657 0.04900
C 	C 	0.56151 0.70364 0.08803 0.03600
H 	H 	0.55622 0.74301 0.08443 0.04000
C 	C 	0.57140 0.60177 0.09828 -0.06300
H 	H 	0.57637 0.56239 0.10241 0.05600
C 	C 	0.52312 0.67228 0.07346 -0.06700
H 	H 	0.48952 0.68868 0.05959 0.04900
C 	C 	0.52700 0.62083 0.07900 0.02600
N 	N 	0.90782 0.75184 0.18389 0.02700
O 	O 	0.78092 0.66762 0.35850 -0.19900
In	In	0.31605 0.25920 0.22417 2.02200
O 	O 	0.28488 0.19784 0.25332 -0.92200
O 	O 	0.34399 0.32113 0.19805 -0.59900
O 	O 	0.32809 0.22218 0.16191 -0.54000
O 	O 	0.25590 0.18363 0.14366 -0.37400
O 	O 	0.38495 0.24359 0.24585 -0.57000
C 	C 	0.29595 0.14923 0.05254 0.02800
H 	H 	0.25642 0.14626 0.05716 0.05500
C 	C 	0.30236 0.19440 0.13366 0.37500
C 	C 	0.32516 0.17320 0.08806 -0.08200
C 	C 	0.31703 0.12899 0.00991 -0.05800
H 	H 	0.29273 0.11200 0.98319 0.05300
C 	C 	0.36817 0.13138 0.00153 0.02600
C 	C 	0.39740 0.15547 0.03724 -0.05800
H 	H 	0.43697 0.15764 0.03304 0.05100
C 	C 	0.37617 0.17636 0.07958 0.02600
H 	H 	0.39992 0.19450 0.10608 0.04800
C 	C 	0.51439 0.16034 0.29303 -0.06400
H 	H 	0.51777 0.12132 0.28583 0.05100
O 	O 	0.39903 0.28511 0.31658 -0.48500
C 	C 	0.47180 0.18437 0.27582 0.03300
H 	H 	0.44449 0.16340 0.25585 0.05300
C 	C 	0.43317 0.12970 0.93427 -0.05900
H 	H 	0.44927 0.16224 0.95061 0.05000
C 	C 	0.39082 0.10879 0.95603 0.02300
C 	C 	0.59477 0.15972 0.34232 0.01800
C 	C 	0.55035 0.18573 0.32099 0.02800
C 	C 	0.41344 0.25663 0.28121 0.42900
C 	C 	0.61446 0.11728 0.31957 -0.06000
H 	H 	0.59703 0.10307 0.28681 0.04600
C 	C 	0.46299 0.23394 0.28755 -0.11900
C 	C 	0.49953 0.25989 0.31352 0.03900
H 	H 	0.49397 0.29828 0.32310 0.03200
O 	O 	0.37019 0.36543 0.26267 -0.60600
C 	C 	0.36659 0.35821 0.21626 0.48200
C 	C 	0.54275 0.23651 0.32921 -0.07100
H 	H 	0.56973 0.25851 0.34853 0.05100
C 	C 	0.38120 0.39243 0.13085 0.04500
H 	H 	0.36307 0.36060 0.11493 0.04800
C 	C 	0.38776 0.39603 0.18218 -0.14400
C 	C 	0.43190 0.51618 0.08534 0.01800
C 	C 	0.40186 0.52806 0.04458 -0.06000
H 	H 	0.37006 0.50543 0.03657 0.04900
C 	C 	0.41171 0.43805 0.20088 0.04700
H 	H 	0.41726 0.44232 0.24014 0.03100
C 	C 	0.39677 0.43049 0.09938 -0.07200
H 	H 	0.39094 0.42623 0.06013 0.05700
C 	C 	0.42695 0.47621 0.16955 -0.07400
H 	H 	0.44313 0.50875 0.18598 0.05000
C 	C 	0.41897 0.47352 0.11831 0.03200
N 	N 	0.33701 0.08275 0.23728 0.02500
O 	O 	0.14102 0.21796 0.17014 -0.20200
In	In	0.68388 0.75838 0.27585 2.02200
O 	O 	0.71551 0.69726 0.24680 -0.92000
O 	O 	0.65549 0.82016 0.30182 -0.59500
O 	O 	0.67167 0.72083 0.33801 -0.53700
O 	O 	0.74399 0.68270 0.35649 -0.37500
O 	O 	0.61560 0.74243 0.25354 -0.57700
C 	C 	0.70376 0.64774 0.44762 0.02500
H 	H 	0.74321 0.64469 0.44287 0.05400
C 	C 	0.69739 0.69307 0.36631 0.37000
C 	C 	0.67457 0.67180 0.41200 -0.08200
C 	C 	0.68274 0.62766 0.49044 -0.05800
H 	H 	0.70709 0.61070 0.51706 0.05200
C 	C 	0.63159 0.63022 0.49909 0.02500
C 	C 	0.60238 0.65440 0.46336 -0.05800
H 	H 	0.56284 0.65680 0.46766 0.05100
C 	C 	0.62356 0.67512 0.42078 0.02400
H 	H 	0.59981 0.69334 0.39437 0.04700
C 	C 	0.48773 0.65813 0.20407 -0.06500
H 	H 	0.48502 0.61872 0.20938 0.05000
O 	O 	0.60156 0.78423 0.18292 -0.48800
C 	C 	0.53049 0.68200 0.22107 0.03500
H 	H 	0.55886 0.66053 0.23900 0.04800
C 	C 	0.56654 0.62875 0.56661 -0.06000
H 	H 	0.55030 0.66108 0.55005 0.05100
C 	C 	0.60903 0.60788 0.54492 0.02300
C 	C 	0.40606 0.65864 0.15744 0.01800
C 	C 	0.45070 0.68429 0.17840 0.02800
C 	C 	0.58730 0.75543 0.21808 0.43400
C 	C 	0.38663 0.61608 0.18008 -0.06000
H 	H 	0.40453 0.60161 0.21251 0.04500
C 	C 	0.53811 0.73225 0.21151 -0.12200
C 	C 	0.50065 0.75876 0.18752 0.04000
H 	H 	0.50552 0.79757 0.17945 0.03200
O 	O 	0.62947 0.86452 0.23702 -0.60500
C 	C 	0.63286 0.85721 0.28345 0.48000
C 	C 	0.45738 0.73543 0.17196 -0.07100
H 	H 	0.42962 0.75773 0.15407 0.05200
C 	C 	0.61650 0.89088 0.36883 0.04500
H 	H 	0.63266 0.85819 0.38489 0.05600
C 	C 	0.61172 0.89519 0.31738 -0.14000
C 	C 	0.56821 0.01559 0.41415 0.01900
C 	C 	0.59767 0.02697 0.45550 -0.06000
H 	H 	0.62896 0.00387 0.46403 0.05000
C 	C 	0.58963 0.93814 0.29838 0.04600
H 	H 	0.58536 0.94301 0.25903 0.03200
C 	C 	0.60145 0.92921 0.40022 -0.06900
H 	H 	0.60594 0.92441 0.43956 0.05900
C 	C 	0.57472 0.97644 0.32967 -0.07300
H 	H 	0.55993 0.00959 0.31321 0.05100
C 	C 	0.58115 0.97306 0.38110 0.03100
N 	N 	0.66973 0.57547 0.24302 0.02600
O 	O 	0.85887 0.71797 0.33051 -0.20200
In	In	0.81546 0.24231 0.77552 2.02300
O 	O 	0.78064 0.30305 0.74885 -0.91800
O 	O 	0.84449 0.18125 0.80285 -0.58900
O 	O 	0.82788 0.27962 0.83699 -0.53300
O 	O 	0.75329 0.31440 0.85566 -0.32900
O 	O 	0.88357 0.25944 0.75278 -0.58000
C 	C 	0.79514 0.35218 0.94644 0.02300
H 	H 	0.75574 0.35568 0.94170 0.05600
C 	C 	0.80135 0.30631 0.86524 0.35800
C 	C 	0.82410 0.32803 0.91078 -0.07300
C 	C 	0.81636 0.37177 0.98944 -0.05500
H 	H 	0.79217 0.38875 0.01621 0.05200
C 	C 	0.86756 0.36870 0.99815 0.02400
C 	C 	0.89649 0.34453 0.96232 -0.05600
H 	H 	0.93603 0.34171 0.96672 0.05100
C 	C 	0.87512 0.32431 0.91958 0.02400
H 	H 	0.89885 0.30599 0.89324 0.05000
C 	C 	0.01172 0.34318 0.70314 -0.06700
H 	H 	0.01437 0.38266 0.70765 0.04900
O 	O 	0.89929 0.21545 0.68401 -0.49900
C 	C 	0.96875 0.31959 0.72006 0.03700
H 	H 	0.93984 0.34138 0.73686 0.04300
C 	C 	0.93307 0.37023 0.06559 -0.06000
H 	H 	0.94920 0.33771 0.04921 0.05000
C 	C 	0.89044 0.39097 0.04387 0.02300
C 	C 	0.09395 0.34187 0.65733 0.01800
C 	C 	0.04910 0.31660 0.67831 0.02900
C 	C 	0.91267 0.24552 0.71833 0.43900
C 	C 	0.11356 0.38434 0.67984 -0.05900
H 	H 	0.09548 0.39913 0.71210 0.04500
C 	C 	0.96167 0.26901 0.71170 -0.12500
C 	C 	0.99939 0.24215 0.68863 0.04300
H 	H 	0.99481 0.20312 0.68141 0.03100
O 	O 	0.87106 0.13639 0.73816 -0.60700
C 	C 	0.86740 0.14413 0.78462 0.47200
C 	C 	0.04264 0.26534 0.67287 -0.07300
H 	H 	0.07062 0.24290 0.65564 0.05300
C 	C 	0.88206 0.10940 0.87015 0.04300
H 	H 	0.86439 0.14133 0.88632 0.05400
C 	C 	0.88864 0.10622 0.81875 -0.13700
C 	C 	0.93149 0.98464 0.91456 0.01900
C 	C 	0.90147 0.97258 0.95534 -0.06000
H 	H 	0.86971 0.99524 0.96344 0.04900
C 	C 	0.91237 0.06415 0.79979 0.04500
H 	H 	0.91822 0.06027 0.76056 0.03200
C 	C 	0.89702 0.07081 0.90130 -0.06900
H 	H 	0.89115 0.07474 0.94057 0.05800
C 	C 	0.92700 0.02551 0.83076 -0.07200
H 	H 	0.94297 0.99299 0.81403 0.05000
C 	C 	0.91883 0.02771 0.88198 0.03000
N 	N 	0.81758 0.42473 0.76822 0.02500
O 	O 	0.65481 0.34662 0.77517 -0.21200
In	In	0.18422 0.74141 0.72432 2.02200
O 	O 	0.21569 0.80261 0.75348 -0.92100
O 	O 	0.15595 0.67963 0.69822 -0.59800
O 	O 	0.17221 0.77839 0.66196 -0.54200
O 	O 	0.24438 0.81688 0.64373 -0.37700
O 	O 	0.11568 0.75732 0.74604 -0.57600
C 	C 	0.20423 0.85112 0.55230 0.02500
H 	H 	0.24370 0.85421 0.55695 0.05500
C 	C 	0.19794 0.80610 0.63368 0.37000
C 	C 	0.17513 0.82712 0.58798 -0.08500
C 	C 	0.18307 0.87120 0.50959 -0.05900
H 	H 	0.20730 0.88823 0.48290 0.05200
C 	C 	0.13185 0.86867 0.50123 0.02500
C 	C 	0.10275 0.84447 0.53697 -0.05900
H 	H 	0.06319 0.84216 0.53279 0.05100
C 	C 	0.12408 0.82374 0.57942 0.02300
H 	H 	0.10043 0.80561 0.60591 0.04600
C 	C 	0.98774 0.84123 0.79578 -0.06500
H 	H 	0.98500 0.88066 0.79065 0.05100
O 	O 	0.10154 0.71574 0.81680 -0.49000
C 	C 	0.03032 0.81745 0.77836 0.03500
H 	H 	0.05846 0.83899 0.76022 0.04900
C 	C 	0.06658 0.87066 0.43392 -0.06000
H 	H 	0.05046 0.83805 0.45018 0.05000
C 	C 	0.10906 0.89134 0.45578 0.02300
C 	C 	0.90649 0.84052 0.84291 0.01800
C 	C 	0.95094 0.81495 0.82166 0.02900
C 	C 	0.08730 0.74431 0.78146 0.43400
C 	C 	0.88697 0.88301 0.82035 -0.06000
H 	H 	0.90477 0.89743 0.78785 0.04600
C 	C 	0.03804 0.76723 0.78785 -0.12200
C 	C 	0.00077 0.74058 0.81194 0.04100
H 	H 	0.00576 0.70177 0.81988 0.03100
O 	O 	0.12954 0.63545 0.76286 -0.60600
C 	C 	0.13313 0.64270 0.71645 0.48200
C 	C 	0.95761 0.76382 0.82790 -0.07200
H 	H 	0.92999 0.74149 0.84595 0.05200
C 	C 	0.11729 0.60899 0.63097 0.04600
H 	H 	0.13389 0.64152 0.61492 0.05000
C 	C 	0.11198 0.60485 0.68241 -0.14300
C 	C 	0.06835 0.48445 0.58572 0.01800
C 	C 	0.09805 0.47260 0.54470 -0.06000
H 	H 	0.12971 0.49537 0.53640 0.04900
C 	C 	0.08932 0.56218 0.70129 0.04700
H 	H 	0.08452 0.55748 0.74062 0.03100
C 	C 	0.10220 0.57067 0.59955 -0.07100
H 	H 	0.10711 0.57522 0.56021 0.05700
C 	C 	0.07439 0.52390 0.66998 -0.07400
H 	H 	0.05917 0.49093 0.68644 0.05000
C 	C 	0.08135 0.52706 0.61864 0.03100
N 	N 	0.16278 0.92319 0.75185 0.02600
O 	O 	0.35902 0.78201 0.66979 -0.20200
Nd	Nd	0.21351 0.21271 0.21350 2.27200
Nd	Nd	0.33052 0.33434 0.33102 2.66500
O 	O 	0.28387 0.28498 0.28417 -1.35400
Nd	Nd	0.28685 0.78759 0.71349 2.28300
Nd	Nd	0.16963 0.66629 0.83109 2.67000
O 	O 	0.21629 0.71548 0.78418 -1.35700
Nd	Nd	0.78666 0.71239 0.28690 2.27800
Nd	Nd	0.66980 0.83377 0.16897 2.66900
O 	O 	0.71618 0.78449 0.21611 -1.35600
Nd	Nd	0.70867 0.28248 0.78517 2.28000
Nd	Nd	0.83110 0.16612 0.66964 2.69600
O 	O 	0.78432 0.21506 0.71636 -1.36000
O 	O 	0.68690 0.55758 0.19975 -0.10100
O 	O 	0.64504 0.61745 0.23237 -0.10500
O 	O 	0.70961 0.58872 0.26989 -0.10100
O 	O 	0.30903 0.64940 0.59329 -0.09600
O 	O 	0.27070 0.71557 0.56958 -0.09600
O 	O 	0.22977 0.64795 0.58224 -0.09800
O 	O 	0.39431 0.80819 0.88899 -0.09900
O 	O 	0.38306 0.73666 0.85493 -0.09400
O 	O 	0.43467 0.78859 0.82273 -0.09400
O 	O 	0.52972 0.27351 0.66222 -0.09300
O 	O 	0.59746 0.31374 0.64824 -0.09500
O 	O 	0.59099 0.26752 0.71323 -0.10200
O 	O 	0.75398 0.12812 0.92044 -0.10000
O 	O 	0.78857 0.19556 0.94616 -0.09700
O 	O 	0.71632 0.19823 0.91185 -0.09800
O 	O 	0.77013 0.41156 0.77598 -0.10200
O 	O 	0.82449 0.46790 0.79222 -0.09300
O 	O 	0.84586 0.39079 0.79138 -0.09900
O 	O 	0.15374 0.95479 0.78935 -0.10100
O 	O 	0.21227 0.91753 0.74948 -0.10100
O 	O 	0.14399 0.87910 0.76550 -0.10500
O 	O 	0.77599 0.81232 0.44976 -0.09300
O 	O 	0.73130 0.87469 0.42700 -0.10100
O 	O 	0.70627 0.80009 0.41260 -0.09800
O 	O 	0.24204 0.28794 0.08453 -0.09700
O 	O 	0.25593 0.35835 0.04916 -0.09700
O 	O 	0.20515 0.35389 0.11083 -0.09700
O 	O 	0.37334 0.05003 0.22748 -0.09600
O 	O 	0.35934 0.12548 0.24987 -0.10400
O 	O 	0.31327 0.09114 0.19423 -0.09800
O 	O 	0.05789 0.19090 0.34672 -0.09300
O 	O 	0.13248 0.20986 0.36819 -0.09900
O 	O 	0.07334 0.26267 0.37860 -0.10100
O 	O 	0.94044 0.75634 0.22134 -0.09600
O 	O 	0.90171 0.70298 0.17601 -0.09600
O 	O 	0.93004 0.77027 0.14322 -0.09900
