data_crystal

_cell_length_a 36.39660
_cell_length_b 36.39660
_cell_length_c 23.96550
_cell_angle_alpha 90.00000
_cell_angle_beta  90.00000
_cell_angle_gamma 120.00000

_symmetry_space_group_name_	'P 1'
_symmetry_space_group_name_H-M	'P 1'

loop_
_symmetry_equiv_pos_as_xyz
  x,y,z

loop_
_atom_site_label
_atom_site_type_symbol
_atom_site_fract_x
_atom_site_fract_y
_atom_site_fract_z
_atom_site_charge
In	In	0.13301 0.77356 0.72941 1.40000
Co	Co	0.21551 0.85212 0.81670 0.82800
O 	O 	0.21862 0.79750 0.80290 -0.72700
O 	O 	0.11740 0.75098 0.63790 -0.54500
O 	O 	0.30804 0.06918 0.27154 -0.68200
O 	O 	0.18840 0.76884 0.72092 -0.72700
O 	O 	0.26901 0.06400 0.19639 -0.54800
O 	O 	0.91240 0.69470 0.17140 -0.67700
O 	O 	0.14795 0.81750 0.65517 -0.51300
O 	O 	0.15682 0.82846 0.77786 -0.94100
O 	O 	0.95410 0.72770 0.10070 -0.95700
C 	C 	0.01020 0.76470 0.28610 -0.13400
H 	H 	0.00390 0.76470 0.32380 0.07500
C 	C 	0.08870 0.80510 0.35920 -0.10000
H 	H 	0.06680 0.77970 0.37320 0.06500
C 	C 	0.05990 0.78530 0.20950 -0.13500
H 	H 	0.08760 0.79880 0.19610 0.07800
C 	C 	0.18340 0.92700 0.29870 0.07900
C 	C 	0.05260 0.78760 0.26480 0.06000
C 	C 	0.11930 0.85430 0.28400 -0.09200
H 	H 	0.11900 0.86120 0.24670 0.06300
C 	C 	0.12140 0.83170 0.39480 0.03500
C 	C 	0.15330 0.87220 0.37500 -0.09200
H 	H 	0.17480 0.89080 0.39870 0.06100
C 	C 	0.08740 0.81500 0.30380 0.02800
C 	C 	0.25420 0.98670 0.30220 0.09700
H 	H 	0.28160 0.99950 0.31630 0.01100
C 	C 	0.30080 0.74830 0.78090 -0.18900
H 	H 	0.32570 0.75850 0.80160 0.09700
C 	C 	0.25223 0.70100 0.71390 -0.18400
H 	H 	0.24350 0.67820 0.68960 0.10000
C 	C 	0.22410 0.94880 0.32270 -0.15800
H 	H 	0.23040 0.93710 0.35310 0.08600
C 	C 	0.15170 0.88360 0.31900 0.02100
C 	C 	0.27700 0.76870 0.78560 0.12700
H 	H 	0.28510 0.79090 0.81090 -0.00500
C 	C 	0.21480 0.77640 0.75850 0.51500
C 	C 	0.17440 0.94680 0.25680 -0.15700
H 	H 	0.14720 0.93350 0.24180 0.08500
C 	C 	0.28930 0.64530 0.74470 0.02100
C 	C 	0.27676 0.05030 0.24120 0.48300
C 	C 	0.31121 0.68911 0.74530 -0.06400
C 	C 	0.28892 0.71380 0.74700 0.12300
C 	C 	0.20416 0.98580 0.23620 0.09600
H 	H 	0.19750 0.99800 0.20670 0.00700
C 	C 	0.24406 0.00660 0.25970 -0.18400
C 	C 	0.22924 0.72170 0.71690 0.12000
H 	H 	0.20520 0.71280 0.69500 -0.00100
C 	C 	0.24220 0.75630 0.75330 -0.21600
C 	C 	0.11170 0.77840 0.46900 -0.10600
H 	H 	0.10250 0.75700 0.44240 0.07300
C 	C 	0.02510 0.76220 0.17150 0.07500
H 	H 	0.03040 0.76170 0.13360 0.02600
C 	C 	0.97800 0.74180 0.24570 0.07400
H 	H 	0.95020 0.72620 0.25820 0.00500
C 	C 	0.11290 0.76800 0.52440 0.03300
H 	H 	0.10250 0.73990 0.53490 0.03700
C 	C 	0.12380 0.81930 0.45120 0.04000
C 	C 	0.14280 0.83890 0.55040 0.01400
H 	H 	0.15330 0.85920 0.57870 0.04400
C 	C 	0.13300 0.78700 0.62530 0.39800
C 	C 	0.14130 0.85100 0.49050 -0.09500
H 	H 	0.15190 0.87920 0.48040 0.06300
C 	C 	0.98490 0.74120 0.19080 -0.16500
C 	C 	0.12860 0.79810 0.56100 -0.09000
C 	C 	0.94710 0.72100 0.14890 0.49200
Co	Co	0.20320 0.82320 0.83980 0.89300
In	In	0.12580 0.75455 0.74073 1.45400
In	In	0.79967 0.10689 0.06274 1.40100
Co	Co	0.88218 0.18545 0.15003 0.82900
O 	O 	0.88529 0.13083 0.13623 -0.72700
O 	O 	0.78407 0.08431 0.97123 -0.54500
O 	O 	0.97471 0.40251 0.60487 -0.68200
O 	O 	0.85507 0.10217 0.05425 -0.72700
O 	O 	0.93568 0.39733 0.52972 -0.54800
O 	O 	0.57907 0.02803 0.50473 -0.67700
O 	O 	0.81462 0.15083 0.98850 -0.51200
O 	O 	0.82349 0.16179 0.11119 -0.94100
O 	O 	0.62077 0.06103 0.43403 -0.95600
C 	C 	0.67687 0.09803 0.61943 -0.13400
H 	H 	0.67057 0.09803 0.65713 0.07600
C 	C 	0.75537 0.13843 0.69253 -0.10000
H 	H 	0.73347 0.11303 0.70653 0.06500
C 	C 	0.72657 0.11863 0.54283 -0.13500
H 	H 	0.75427 0.13213 0.52943 0.07800
C 	C 	0.85007 0.26033 0.63203 0.07900
C 	C 	0.71927 0.12093 0.59813 0.06000
C 	C 	0.78597 0.18763 0.61733 -0.09300
H 	H 	0.78567 0.19453 0.58003 0.06300
C 	C 	0.78807 0.16503 0.72813 0.03500
C 	C 	0.81997 0.20553 0.70833 -0.09200
H 	H 	0.84147 0.22413 0.73203 0.06100
C 	C 	0.75407 0.14833 0.63713 0.02800
C 	C 	0.92087 0.32003 0.63553 0.09600
H 	H 	0.94827 0.33283 0.64963 0.01100
C 	C 	0.96747 0.08163 0.11423 -0.19000
H 	H 	0.99237 0.09183 0.13493 0.09700
C 	C 	0.91890 0.03433 0.04723 -0.18400
H 	H 	0.91017 0.01153 0.02293 0.09900
C 	C 	0.89077 0.28213 0.65603 -0.15800
H 	H 	0.89707 0.27043 0.68643 0.08600
C 	C 	0.81837 0.21693 0.65233 0.02200
C 	C 	0.94367 0.10203 0.11893 0.12700
H 	H 	0.95177 0.12423 0.14423 -0.00500
C 	C 	0.88147 0.10973 0.09183 0.51500
C 	C 	0.84107 0.28013 0.59013 -0.15600
H 	H 	0.81387 0.26683 0.57513 0.08400
C 	C 	0.95597 0.97863 0.07803 0.02300
C 	C 	0.94343 0.38363 0.57453 0.48300
C 	C 	0.97788 0.02244 0.07863 -0.06600
C 	C 	0.95559 0.04713 0.08033 0.12400
C 	C 	0.87083 0.31913 0.56953 0.09400
H 	H 	0.86417 0.33133 0.54003 0.00800
C 	C 	0.91073 0.33993 0.59303 -0.18300
C 	C 	0.89591 0.05503 0.05023 0.12000
H 	H 	0.87187 0.04613 0.02833 -0.00100
C 	C 	0.90887 0.08963 0.08663 -0.21600
C 	C 	0.77837 0.11173 0.80233 -0.10600
H 	H 	0.76917 0.09033 0.77573 0.07300
C 	C 	0.69177 0.09553 0.50483 0.07500
H 	H 	0.69707 0.09503 0.46693 0.02600
C 	C 	0.64467 0.07513 0.57903 0.07400
H 	H 	0.61687 0.05953 0.59153 0.00500
C 	C 	0.77957 0.10133 0.85773 0.03300
H 	H 	0.76917 0.07323 0.86823 0.03700
C 	C 	0.79047 0.15263 0.78453 0.04000
C 	C 	0.80947 0.17223 0.88373 0.01300
H 	H 	0.81997 0.19253 0.91203 0.04400
C 	C 	0.79967 0.12033 0.95863 0.39800
C 	C 	0.80797 0.18433 0.82383 -0.09500
H 	H 	0.81857 0.21253 0.81373 0.06300
C 	C 	0.65157 0.07453 0.52413 -0.16500
C 	C 	0.79527 0.13143 0.89433 -0.09000
C 	C 	0.61377 0.05433 0.48223 0.49200
Co	Co	0.86987 0.15653 0.17313 0.89300
In	In	0.79247 0.08788 0.07406 1.45400
In	In	0.46634 0.44023 0.39608 1.40100
Co	Co	0.54884 0.51879 0.48337 0.82900
O 	O 	0.55195 0.46417 0.46957 -0.72700
O 	O 	0.45073 0.41765 0.30457 -0.54500
O 	O 	0.64137 0.73585 0.93821 -0.68200
O 	O 	0.52173 0.43551 0.38759 -0.72700
O 	O 	0.60234 0.73067 0.86306 -0.54800
O 	O 	0.24573 0.36137 0.83807 -0.67700
O 	O 	0.48128 0.48417 0.32184 -0.51300
O 	O 	0.49015 0.49513 0.44453 -0.94100
O 	O 	0.28743 0.39437 0.76737 -0.95600
C 	C 	0.34353 0.43137 0.95277 -0.13400
H 	H 	0.33723 0.43137 0.99047 0.07500
C 	C 	0.42203 0.47177 0.02587 -0.10000
H 	H 	0.40013 0.44637 0.03987 0.06500
C 	C 	0.39323 0.45197 0.87617 -0.13500
H 	H 	0.42093 0.46547 0.86277 0.07800
C 	C 	0.51673 0.59367 0.96537 0.07900
C 	C 	0.38593 0.45427 0.93147 0.06000
C 	C 	0.45263 0.52097 0.95067 -0.09200
H 	H 	0.45233 0.52787 0.91337 0.06300
C 	C 	0.45473 0.49837 0.06147 0.03400
C 	C 	0.48663 0.53887 0.04167 -0.09200
H 	H 	0.50813 0.55747 0.06537 0.06100
C 	C 	0.42073 0.48167 0.97047 0.02800
C 	C 	0.58753 0.65337 0.96887 0.09600
H 	H 	0.61493 0.66617 0.98297 0.01100
C 	C 	0.63413 0.41497 0.44757 -0.18900
H 	H 	0.65903 0.42517 0.46827 0.09700
C 	C 	0.58556 0.36767 0.38057 -0.18400
H 	H 	0.57683 0.34487 0.35627 0.10000
C 	C 	0.55743 0.61547 0.98937 -0.15800
H 	H 	0.56373 0.60377 0.01977 0.08600
C 	C 	0.48503 0.55027 0.98567 0.02100
C 	C 	0.61033 0.43537 0.45227 0.12700
H 	H 	0.61843 0.45757 0.47757 -0.00500
C 	C 	0.54813 0.44307 0.42517 0.51500
C 	C 	0.50773 0.61347 0.92347 -0.15600
H 	H 	0.48053 0.60017 0.90847 0.08400
C 	C 	0.62263 0.31197 0.41137 0.02100
C 	C 	0.61009 0.71697 0.90787 0.48300
C 	C 	0.64454 0.35578 0.41197 -0.06400
C 	C 	0.62225 0.38047 0.41367 0.12300
C 	C 	0.53749 0.65247 0.90287 0.09500
H 	H 	0.53083 0.66467 0.87337 0.00800
C 	C 	0.57739 0.67327 0.92637 -0.18300
C 	C 	0.56257 0.38837 0.38357 0.12000
H 	H 	0.53853 0.37947 0.36167 -0.00100
C 	C 	0.57553 0.42297 0.41997 -0.21600
C 	C 	0.44503 0.44507 0.13567 -0.10600
H 	H 	0.43583 0.42367 0.10907 0.07300
C 	C 	0.35843 0.42887 0.83817 0.07500
H 	H 	0.36373 0.42837 0.80027 0.02600
C 	C 	0.31133 0.40847 0.91237 0.07400
H 	H 	0.28353 0.39287 0.92487 0.00500
C 	C 	0.44623 0.43467 0.19107 0.03300
H 	H 	0.43583 0.40657 0.20157 0.03700
C 	C 	0.45713 0.48597 0.11787 0.04000
C 	C 	0.47613 0.50557 0.21707 0.01400
H 	H 	0.48663 0.52587 0.24537 0.04400
C 	C 	0.46633 0.45367 0.29197 0.39800
C 	C 	0.47463 0.51767 0.15717 -0.09500
H 	H 	0.48523 0.54587 0.14707 0.06300
C 	C 	0.31823 0.40787 0.85747 -0.16500
C 	C 	0.46193 0.46477 0.22767 -0.09000
C 	C 	0.28043 0.38767 0.81557 0.49200
Co	Co	0.53653 0.48987 0.50647 0.89300
In	In	0.45913 0.42122 0.40740 1.45400
In	In	0.22644 0.35945 0.72941 1.40100
Co	Co	0.14788 0.36339 0.81670 0.82900
O 	O 	0.20250 0.42112 0.80290 -0.72700
O 	O 	0.24902 0.36642 0.63790 -0.54500
O 	O 	0.93082 0.23886 0.27154 -0.68200
O 	O 	0.23116 0.41956 0.72092 -0.72700
O 	O 	0.93600 0.20501 0.19639 -0.54800
O 	O 	0.30530 0.21770 0.17140 -0.67700
O 	O 	0.18250 0.33045 0.65517 -0.51300
O 	O 	0.17154 0.32836 0.77786 -0.94100
O 	O 	0.27230 0.22640 0.10070 -0.95600
C 	C 	0.23530 0.24550 0.28610 -0.13400
H 	H 	0.23530 0.23920 0.32380 0.07600
C 	C 	0.19490 0.28360 0.35920 -0.10000
H 	H 	0.22030 0.28710 0.37320 0.06500
C 	C 	0.21470 0.27460 0.20950 -0.13500
H 	H 	0.20120 0.28880 0.19610 0.07800
C 	C 	0.07300 0.25640 0.29870 0.08000
C 	C 	0.21240 0.26500 0.26480 0.06000
C 	C 	0.14570 0.26500 0.28400 -0.09200
H 	H 	0.13880 0.25780 0.24670 0.06300
C 	C 	0.16830 0.28970 0.39480 0.03400
C 	C 	0.12780 0.28110 0.37500 -0.09200
H 	H 	0.10920 0.28400 0.39870 0.06100
C 	C 	0.18500 0.27240 0.30380 0.02800
C 	C 	0.01330 0.26750 0.30220 0.09700
H 	H 	0.00050 0.28210 0.31630 0.01100
C 	C 	0.25170 0.55250 0.78090 -0.18900
H 	H 	0.24150 0.56720 0.80160 0.09700
C 	C 	0.29900 0.55123 0.71390 -0.18400
H 	H 	0.32180 0.56530 0.68960 0.10000
C 	C 	0.05120 0.27530 0.32270 -0.15900
H 	H 	0.06290 0.29330 0.35310 0.08600
C 	C 	0.11640 0.26810 0.31900 0.02100
C 	C 	0.23130 0.50830 0.78560 0.12700
H 	H 	0.20910 0.49420 0.81090 -0.00500
C 	C 	0.22360 0.43840 0.75850 0.51500
C 	C 	0.05320 0.22760 0.25680 -0.15700
H 	H 	0.06650 0.21370 0.24180 0.08500
C 	C 	0.35470 0.64400 0.74470 0.02100
C 	C 	0.94970 0.22646 0.24120 0.48300
C 	C 	0.31089 0.62210 0.74530 -0.06400
C 	C 	0.28620 0.57512 0.74700 0.12300
C 	C 	0.01420 0.21836 0.23620 0.09600
H 	H 	0.00200 0.19950 0.20670 0.00700
C 	C 	0.99340 0.23746 0.25970 -0.18400
C 	C 	0.27830 0.50754 0.71690 0.12000
H 	H 	0.28720 0.49240 0.69500 -0.00100
C 	C 	0.24370 0.48590 0.75330 -0.21600
C 	C 	0.22160 0.33330 0.46900 -0.10600
H 	H 	0.24300 0.34550 0.44240 0.07300
C 	C 	0.23780 0.26290 0.17150 0.07500
H 	H 	0.23830 0.26870 0.13360 0.02600
C 	C 	0.25820 0.23620 0.24570 0.07400
H 	H 	0.27380 0.22400 0.25820 0.00500
C 	C 	0.23200 0.34490 0.52440 0.03300
H 	H 	0.26010 0.36260 0.53490 0.03700
C 	C 	0.18070 0.30450 0.45120 0.04000
C 	C 	0.16110 0.30390 0.55040 0.01400
H 	H 	0.14080 0.29410 0.57870 0.04400
C 	C 	0.21300 0.34600 0.62530 0.39800
C 	C 	0.14900 0.29030 0.49050 -0.09500
H 	H 	0.12080 0.27270 0.48040 0.06300
C 	C 	0.25880 0.24370 0.19080 -0.16500
C 	C 	0.20190 0.33050 0.56100 -0.09000
C 	C 	0.27900 0.22610 0.14890 0.49200
Co	Co	0.17680 0.38000 0.83980 0.89300
In	In	0.24545 0.37125 0.74073 1.45400
In	In	0.89311 0.69278 0.06274 1.40100
Co	Co	0.81455 0.69672 0.15003 0.82900
O 	O 	0.86917 0.75445 0.13623 -0.72700
O 	O 	0.91569 0.69975 0.97123 -0.54500
O 	O 	0.59749 0.57219 0.60487 -0.68200
O 	O 	0.89783 0.75289 0.05425 -0.72700
O 	O 	0.60267 0.53834 0.52972 -0.54800
O 	O 	0.97197 0.55103 0.50473 -0.67700
O 	O 	0.84917 0.66378 0.98850 -0.51300
O 	O 	0.83821 0.66169 0.11119 -0.94100
O 	O 	0.93897 0.55973 0.43403 -0.95700
C 	C 	0.90197 0.57883 0.61943 -0.13400
H 	H 	0.90197 0.57253 0.65713 0.07600
C 	C 	0.86157 0.61693 0.69253 -0.10000
H 	H 	0.88697 0.62043 0.70653 0.06500
C 	C 	0.88137 0.60793 0.54283 -0.13500
H 	H 	0.86787 0.62213 0.52943 0.07800
C 	C 	0.73967 0.58973 0.63203 0.07900
C 	C 	0.87907 0.59833 0.59813 0.06000
C 	C 	0.81237 0.59833 0.61733 -0.09300
H 	H 	0.80547 0.59113 0.58003 0.06300
C 	C 	0.83497 0.62303 0.72813 0.03500
C 	C 	0.79447 0.61443 0.70833 -0.09200
H 	H 	0.77587 0.61733 0.73203 0.06100
C 	C 	0.85167 0.60573 0.63713 0.02800
C 	C 	0.67997 0.60083 0.63553 0.09600
H 	H 	0.66717 0.61543 0.64963 0.01100
C 	C 	0.91837 0.88583 0.11423 -0.18900
H 	H 	0.90817 0.90053 0.13493 0.09700
C 	C 	0.96567 0.88456 0.04723 -0.18400
H 	H 	0.98847 0.89863 0.02293 0.10000
C 	C 	0.71787 0.60863 0.65603 -0.15800
H 	H 	0.72957 0.62663 0.68643 0.08600
C 	C 	0.78307 0.60143 0.65233 0.02200
C 	C 	0.89797 0.84163 0.11893 0.12700
H 	H 	0.87577 0.82753 0.14423 -0.00500
C 	C 	0.89027 0.77173 0.09183 0.51500
C 	C 	0.71987 0.56093 0.59013 -0.15600
H 	H 	0.73317 0.54703 0.57513 0.08400
C 	C 	0.02137 0.97733 0.07803 0.02300
C 	C 	0.61637 0.55979 0.57453 0.48300
C 	C 	0.97756 0.95543 0.07863 -0.06600
C 	C 	0.95287 0.90845 0.08033 0.12400
C 	C 	0.68087 0.55169 0.56953 0.09400
H 	H 	0.66867 0.53283 0.54003 0.00800
C 	C 	0.66007 0.57079 0.59303 -0.18300
C 	C 	0.94497 0.84087 0.05023 0.12000
H 	H 	0.95387 0.82573 0.02833 -0.00100
C 	C 	0.91037 0.81923 0.08663 -0.21600
C 	C 	0.88827 0.66663 0.80233 -0.10600
H 	H 	0.90967 0.67883 0.77573 0.07300
C 	C 	0.90447 0.59623 0.50483 0.07500
H 	H 	0.90497 0.60203 0.46693 0.02600
C 	C 	0.92487 0.56953 0.57903 0.07400
H 	H 	0.94047 0.55733 0.59153 0.00500
C 	C 	0.89867 0.67823 0.85773 0.03300
H 	H 	0.92677 0.69593 0.86823 0.03700
C 	C 	0.84737 0.63783 0.78453 0.04000
C 	C 	0.82777 0.63723 0.88373 0.01400
H 	H 	0.80747 0.62743 0.91203 0.04400
C 	C 	0.87967 0.67933 0.95863 0.39800
C 	C 	0.81567 0.62363 0.82383 -0.09500
H 	H 	0.78747 0.60603 0.81373 0.06300
C 	C 	0.92547 0.57703 0.52413 -0.16500
C 	C 	0.86857 0.66383 0.89433 -0.09000
C 	C 	0.94567 0.55943 0.48223 0.49200
Co	Co	0.84347 0.71333 0.17313 0.89300
In	In	0.91212 0.70458 0.07406 1.45400
In	In	0.55977 0.02611 0.39608 1.40100
Co	Co	0.48121 0.03006 0.48337 0.82900
O 	O 	0.53583 0.08779 0.46957 -0.72700
O 	O 	0.58235 0.03309 0.30457 -0.54500
O 	O 	0.26415 0.90553 0.93821 -0.68200
O 	O 	0.56449 0.08623 0.38759 -0.72700
O 	O 	0.26933 0.87168 0.86306 -0.54800
O 	O 	0.63863 0.88437 0.83807 -0.67700
O 	O 	0.51583 0.99712 0.32184 -0.51200
O 	O 	0.50487 0.99503 0.44453 -0.94100
O 	O 	0.60563 0.89307 0.76737 -0.95600
C 	C 	0.56863 0.91217 0.95277 -0.13400
H 	H 	0.56863 0.90587 0.99047 0.07500
C 	C 	0.52823 0.95027 0.02587 -0.09900
H 	H 	0.55363 0.95377 0.03987 0.06500
C 	C 	0.54803 0.94127 0.87617 -0.13600
H 	H 	0.53453 0.95547 0.86277 0.07800
C 	C 	0.40633 0.92307 0.96537 0.08100
C 	C 	0.54573 0.93167 0.93147 0.06100
C 	C 	0.47903 0.93167 0.95067 -0.09200
H 	H 	0.47213 0.92447 0.91337 0.06300
C 	C 	0.50163 0.95637 0.06147 0.03500
C 	C 	0.46113 0.94777 0.04167 -0.09000
H 	H 	0.44253 0.95067 0.06537 0.06100
C 	C 	0.51833 0.93907 0.97047 0.02700
C 	C 	0.34663 0.93417 0.96887 0.09800
H 	H 	0.33383 0.94877 0.98297 0.01000
C 	C 	0.58503 0.21917 0.44757 -0.18900
H 	H 	0.57483 0.23387 0.46827 0.09700
C 	C 	0.63233 0.21790 0.38057 -0.18400
H 	H 	0.65513 0.23197 0.35627 0.10000
C 	C 	0.38453 0.94197 0.98937 -0.16100
H 	H 	0.39623 0.95997 0.01977 0.08700
C 	C 	0.44973 0.93477 0.98567 0.02000
C 	C 	0.56463 0.17497 0.45227 0.12700
H 	H 	0.54243 0.16087 0.47757 -0.00500
C 	C 	0.55693 0.10507 0.42517 0.51500
C 	C 	0.38653 0.89427 0.92347 -0.15800
H 	H 	0.39983 0.88037 0.90847 0.08500
C 	C 	0.68803 0.31067 0.41137 0.02100
C 	C 	0.28303 0.89313 0.90787 0.48300
C 	C 	0.64422 0.28877 0.41197 -0.06400
C 	C 	0.61953 0.24179 0.41367 0.12300
C 	C 	0.34753 0.88503 0.90287 0.09600
H 	H 	0.33533 0.86617 0.87337 0.00700
C 	C 	0.32673 0.90413 0.92637 -0.18400
C 	C 	0.61163 0.17421 0.38357 0.12000
H 	H 	0.62053 0.15907 0.36167 -0.00100
C 	C 	0.57703 0.15257 0.41997 -0.21600
C 	C 	0.55493 0.99997 0.13567 -0.10200
H 	H 	0.57633 0.01217 0.10907 0.07100
C 	C 	0.57113 0.92957 0.83817 0.07500
H 	H 	0.57163 0.93537 0.80027 0.02600
C 	C 	0.59153 0.90287 0.91237 0.07400
H 	H 	0.60713 0.89067 0.92487 0.00500
C 	C 	0.56533 0.01157 0.19107 0.02900
H 	H 	0.59343 0.02927 0.20157 0.03800
C 	C 	0.51403 0.97117 0.11787 0.03900
C 	C 	0.49443 0.97057 0.21707 0.01200
H 	H 	0.47413 0.96077 0.24537 0.04400
C 	C 	0.54633 0.01267 0.29197 0.39700
C 	C 	0.48233 0.95697 0.15717 -0.09400
H 	H 	0.45413 0.93937 0.14707 0.06200
C 	C 	0.59213 0.91037 0.85747 -0.16500
C 	C 	0.53523 0.99717 0.22767 -0.08700
C 	C 	0.61233 0.89277 0.81557 0.49200
Co	Co	0.51013 0.04667 0.50647 0.89300
In	In	0.57878 0.03792 0.40740 1.45400
In	In	0.64055 0.86699 0.72941 1.40100
Co	Co	0.63661 0.78449 0.81670 0.82900
O 	O 	0.57888 0.78138 0.80290 -0.72700
O 	O 	0.63358 0.88260 0.63790 -0.54500
O 	O 	0.76114 0.69196 0.27154 -0.68200
O 	O 	0.58044 0.81160 0.72092 -0.72700
O 	O 	0.79499 0.73099 0.19639 -0.54800
O 	O 	0.78230 0.08760 0.17140 -0.67700
O 	O 	0.66955 0.85205 0.65517 -0.51300
O 	O 	0.67164 0.84318 0.77786 -0.94100
O 	O 	0.77360 0.04590 0.10070 -0.95700
C 	C 	0.75450 0.98980 0.28610 -0.13400
H 	H 	0.76080 0.99610 0.32380 0.07500
C 	C 	0.71640 0.91130 0.35920 -0.10000
H 	H 	0.71290 0.93320 0.37320 0.06500
C 	C 	0.72540 0.94010 0.20950 -0.13500
H 	H 	0.71120 0.91240 0.19610 0.07800
C 	C 	0.74360 0.81660 0.29870 0.07900
C 	C 	0.73500 0.94740 0.26480 0.06000
C 	C 	0.73500 0.88070 0.28400 -0.09300
H 	H 	0.74220 0.88100 0.24670 0.06300
C 	C 	0.71030 0.87860 0.39480 0.03500
C 	C 	0.71890 0.84670 0.37500 -0.09200
H 	H 	0.71600 0.82520 0.39870 0.06100
C 	C 	0.72760 0.91260 0.30380 0.02800
C 	C 	0.73250 0.74580 0.30220 0.09600
H 	H 	0.71790 0.71840 0.31630 0.01100
C 	C 	0.44750 0.69920 0.78090 -0.18900
H 	H 	0.43280 0.67430 0.80160 0.09700
C 	C 	0.44877 0.74777 0.71390 -0.18400
H 	H 	0.43470 0.75650 0.68960 0.10000
C 	C 	0.72470 0.77590 0.32270 -0.15800
H 	H 	0.70670 0.76960 0.35310 0.08600
C 	C 	0.73190 0.84830 0.31900 0.02200
C 	C 	0.49170 0.72300 0.78560 0.12700
H 	H 	0.50580 0.71490 0.81090 -0.00500
C 	C 	0.56160 0.78520 0.75850 0.51500
C 	C 	0.77240 0.82560 0.25680 -0.15600
H 	H 	0.78630 0.85280 0.24180 0.08400
C 	C 	0.35600 0.71070 0.74470 0.02100
C 	C 	0.77354 0.72324 0.24120 0.48300
C 	C 	0.37790 0.68879 0.74530 -0.06400
C 	C 	0.42488 0.71108 0.74700 0.12300
C 	C 	0.78164 0.79584 0.23620 0.09400
H 	H 	0.80050 0.80250 0.20670 0.00800
C 	C 	0.76254 0.75594 0.25970 -0.18300
C 	C 	0.49246 0.77076 0.71690 0.12000
H 	H 	0.50760 0.79480 0.69500 -0.00100
C 	C 	0.51410 0.75780 0.75330 -0.21600
C 	C 	0.66670 0.88830 0.46900 -0.10600
H 	H 	0.65450 0.89750 0.44240 0.07300
C 	C 	0.73710 0.97490 0.17150 0.07600
H 	H 	0.73130 0.96960 0.13360 0.02600
C 	C 	0.76380 0.02200 0.24570 0.07400
H 	H 	0.77600 0.04980 0.25820 0.00500
C 	C 	0.65510 0.88710 0.52440 0.03300
H 	H 	0.63740 0.89750 0.53490 0.03700
C 	C 	0.69550 0.87620 0.45120 0.04000
C 	C 	0.69610 0.85720 0.55040 0.01400
H 	H 	0.70590 0.84670 0.57870 0.04400
C 	C 	0.65400 0.86700 0.62530 0.39800
C 	C 	0.70970 0.85870 0.49050 -0.09500
H 	H 	0.72730 0.84810 0.48040 0.06300
C 	C 	0.75630 0.01510 0.19080 -0.16600
C 	C 	0.66950 0.87140 0.56100 -0.09000
C 	C 	0.77390 0.05290 0.14890 0.49200
Co	Co	0.62000 0.79680 0.83980 0.89300
In	In	0.62875 0.87420 0.74073 1.45400
In	In	0.30722 0.20033 0.06274 1.40000
Co	Co	0.30328 0.11782 0.15003 0.82900
O 	O 	0.24555 0.11471 0.13623 -0.72700
O 	O 	0.30025 0.21593 0.97123 -0.54500
O 	O 	0.42781 0.02529 0.60487 -0.68200
O 	O 	0.24711 0.14493 0.05425 -0.72700
O 	O 	0.46166 0.06432 0.52972 -0.54800
O 	O 	0.44897 0.42093 0.50473 -0.67700
O 	O 	0.33622 0.18538 0.98850 -0.51300
O 	O 	0.33831 0.17651 0.11119 -0.94100
O 	O 	0.44027 0.37923 0.43403 -0.95600
C 	C 	0.42117 0.32313 0.61943 -0.13400
H 	H 	0.42747 0.32943 0.65713 0.07600
C 	C 	0.38307 0.24463 0.69253 -0.10000
H 	H 	0.37957 0.26653 0.70653 0.06500
C 	C 	0.39207 0.27343 0.54283 -0.13500
H 	H 	0.37787 0.24573 0.52943 0.07800
C 	C 	0.41027 0.14993 0.63203 0.07900
C 	C 	0.40167 0.28073 0.59813 0.06000
C 	C 	0.40167 0.21403 0.61733 -0.09300
H 	H 	0.40887 0.21433 0.58003 0.06300
C 	C 	0.37697 0.21193 0.72813 0.03500
C 	C 	0.38557 0.18003 0.70833 -0.09200
H 	H 	0.38267 0.15853 0.73203 0.06100
C 	C 	0.39427 0.24593 0.63713 0.02800
C 	C 	0.39917 0.07913 0.63553 0.09600
H 	H 	0.38457 0.05173 0.64963 0.01100
C 	C 	0.11417 0.03253 0.11423 -0.18900
H 	H 	0.09947 0.00763 0.13493 0.09700
C 	C 	0.11544 0.08110 0.04723 -0.18400
H 	H 	0.10137 0.08983 0.02293 0.10000
C 	C 	0.39137 0.10923 0.65603 -0.15800
H 	H 	0.37337 0.10293 0.68643 0.08600
C 	C 	0.39857 0.18163 0.65233 0.02200
C 	C 	0.15837 0.05633 0.11893 0.12700
H 	H 	0.17247 0.04823 0.14423 -0.00500
C 	C 	0.22827 0.11853 0.09183 0.51500
C 	C 	0.43907 0.15893 0.59013 -0.15600
H 	H 	0.45297 0.18613 0.57513 0.08400
C 	C 	0.02267 0.04403 0.07803 0.02200
C 	C 	0.44021 0.05657 0.57453 0.48300
C 	C 	0.04457 0.02212 0.07863 -0.06600
C 	C 	0.09155 0.04441 0.08033 0.12400
C 	C 	0.44831 0.12917 0.56953 0.09400
H 	H 	0.46717 0.13583 0.54003 0.00800
C 	C 	0.42921 0.08927 0.59303 -0.18300
C 	C 	0.15913 0.10409 0.05023 0.12000
H 	H 	0.17427 0.12813 0.02833 -0.00100
C 	C 	0.18077 0.09113 0.08663 -0.21600
C 	C 	0.33337 0.22163 0.80233 -0.10600
H 	H 	0.32117 0.23083 0.77573 0.07300
C 	C 	0.40377 0.30823 0.50483 0.07500
H 	H 	0.39797 0.30293 0.46693 0.02600
C 	C 	0.43047 0.35533 0.57903 0.07400
H 	H 	0.44267 0.38313 0.59153 0.00500
C 	C 	0.32177 0.22043 0.85773 0.03300
H 	H 	0.30407 0.23083 0.86823 0.03700
C 	C 	0.36217 0.20953 0.78453 0.04000
C 	C 	0.36277 0.19053 0.88373 0.01400
H 	H 	0.37257 0.18003 0.91203 0.04400
C 	C 	0.32067 0.20033 0.95863 0.39800
C 	C 	0.37637 0.19203 0.82383 -0.09500
H 	H 	0.39397 0.18143 0.81373 0.06300
C 	C 	0.42297 0.34843 0.52413 -0.16500
C 	C 	0.33617 0.20473 0.89433 -0.09000
C 	C 	0.44057 0.38623 0.48223 0.49200
Co	Co	0.28667 0.13013 0.17313 0.89300
In	In	0.29542 0.20753 0.07406 1.45400
In	In	0.97389 0.53366 0.39608 1.40100
Co	Co	0.96994 0.45116 0.48337 0.82900
O 	O 	0.91221 0.44805 0.46957 -0.72700
O 	O 	0.96691 0.54927 0.30457 -0.54500
O 	O 	0.09447 0.35863 0.93821 -0.68200
O 	O 	0.91377 0.47827 0.38759 -0.72700
O 	O 	0.12832 0.39766 0.86306 -0.54800
O 	O 	0.11563 0.75427 0.83807 -0.67700
O 	O 	0.00288 0.51872 0.32184 -0.51200
O 	O 	0.00497 0.50985 0.44453 -0.94100
O 	O 	0.10693 0.71257 0.76737 -0.95600
C 	C 	0.08783 0.65647 0.95277 -0.13400
H 	H 	0.09413 0.66277 0.99047 0.07500
C 	C 	0.04973 0.57797 0.02587 -0.09900
H 	H 	0.04623 0.59987 0.03987 0.06500
C 	C 	0.05873 0.60677 0.87617 -0.13600
H 	H 	0.04453 0.57907 0.86277 0.07800
C 	C 	0.07693 0.48327 0.96537 0.08000
C 	C 	0.06833 0.61407 0.93147 0.06100
C 	C 	0.06833 0.54737 0.95067 -0.09200
H 	H 	0.07553 0.54767 0.91337 0.06300
C 	C 	0.04363 0.54527 0.06147 0.03400
C 	C 	0.05223 0.51337 0.04167 -0.09000
H 	H 	0.04933 0.49187 0.06537 0.06100
C 	C 	0.06093 0.57927 0.97047 0.02700
C 	C 	0.06583 0.41247 0.96887 0.09800
H 	H 	0.05123 0.38507 0.98297 0.01100
C 	C 	0.78083 0.36587 0.44757 -0.18900
H 	H 	0.76613 0.34097 0.46827 0.09700
C 	C 	0.78210 0.41444 0.38057 -0.18400
H 	H 	0.76803 0.42317 0.35627 0.10000
C 	C 	0.05803 0.44257 0.98937 -0.16000
H 	H 	0.04003 0.43627 0.01977 0.08700
C 	C 	0.06523 0.51497 0.98567 0.02000
C 	C 	0.82503 0.38967 0.45227 0.12700
H 	H 	0.83913 0.38157 0.47757 -0.00500
C 	C 	0.89493 0.45187 0.42517 0.51500
C 	C 	0.10573 0.49227 0.92347 -0.15700
H 	H 	0.11963 0.51947 0.90847 0.08500
C 	C 	0.68933 0.37737 0.41137 0.02100
C 	C 	0.10687 0.38991 0.90787 0.48300
C 	C 	0.71123 0.35546 0.41197 -0.06400
C 	C 	0.75821 0.37775 0.41367 0.12300
C 	C 	0.11497 0.46251 0.90287 0.09500
H 	H 	0.13383 0.46917 0.87337 0.00700
C 	C 	0.09587 0.42261 0.92637 -0.18400
C 	C 	0.82579 0.43743 0.38357 0.12000
H 	H 	0.84093 0.46147 0.36167 -0.00100
C 	C 	0.84743 0.42447 0.41997 -0.21600
C 	C 	0.00003 0.55497 0.13567 -0.10200
H 	H 	0.98783 0.56417 0.10907 0.07100
C 	C 	0.07043 0.64157 0.83817 0.07500
H 	H 	0.06463 0.63627 0.80027 0.02600
C 	C 	0.09713 0.68867 0.91237 0.07400
H 	H 	0.10933 0.71647 0.92487 0.00500
C 	C 	0.98843 0.55377 0.19107 0.02900
H 	H 	0.97073 0.56417 0.20157 0.03800
C 	C 	0.02883 0.54287 0.11787 0.03900
C 	C 	0.02943 0.52387 0.21707 0.01200
H 	H 	0.03923 0.51337 0.24537 0.04400
C 	C 	0.98733 0.53367 0.29197 0.39700
C 	C 	0.04303 0.52537 0.15717 -0.09400
H 	H 	0.06063 0.51477 0.14707 0.06200
C 	C 	0.08963 0.68177 0.85747 -0.16500
C 	C 	0.00283 0.53807 0.22767 -0.08700
C 	C 	0.10723 0.71957 0.81557 0.49200
Co	Co	0.95333 0.46347 0.50647 0.89300
In	In	0.96208 0.54087 0.40740 1.45400
In	In	0.86699 0.22644 0.27059 1.40100
Co	Co	0.78449 0.14788 0.18330 0.82900
O 	O 	0.78138 0.20250 0.19710 -0.72700
O 	O 	0.88260 0.24902 0.36210 -0.54500
O 	O 	0.69196 0.93082 0.72846 -0.68200
O 	O 	0.81160 0.23116 0.27908 -0.72700
O 	O 	0.73099 0.93600 0.80361 -0.54800
O 	O 	0.08760 0.30530 0.82860 -0.67700
O 	O 	0.85205 0.18250 0.34483 -0.51300
O 	O 	0.84318 0.17154 0.22214 -0.94100
O 	O 	0.04590 0.27230 0.89930 -0.95700
C 	C 	0.98980 0.23530 0.71390 -0.13400
H 	H 	0.99610 0.23530 0.67620 0.07500
C 	C 	0.91130 0.19490 0.64080 -0.10000
H 	H 	0.93320 0.22030 0.62680 0.06500
C 	C 	0.94010 0.21470 0.79050 -0.13500
H 	H 	0.91240 0.20120 0.80390 0.07800
C 	C 	0.81660 0.07300 0.70130 0.07900
C 	C 	0.94740 0.21240 0.73520 0.06000
C 	C 	0.88070 0.14570 0.71600 -0.09200
H 	H 	0.88100 0.13880 0.75330 0.06300
C 	C 	0.87860 0.16830 0.60520 0.03500
C 	C 	0.84670 0.12780 0.62500 -0.09200
H 	H 	0.82520 0.10920 0.60130 0.06100
C 	C 	0.91260 0.18500 0.69620 0.02800
C 	C 	0.74580 0.01330 0.69780 0.09700
H 	H 	0.71840 0.00050 0.68370 0.01100
C 	C 	0.69920 0.25170 0.21910 -0.18900
H 	H 	0.67430 0.24150 0.19840 0.09700
C 	C 	0.74777 0.29900 0.28610 -0.18400
H 	H 	0.75650 0.32180 0.31040 0.10000
C 	C 	0.77590 0.05120 0.67730 -0.15800
H 	H 	0.76960 0.06290 0.64690 0.08600
C 	C 	0.84830 0.11640 0.68100 0.02100
C 	C 	0.72300 0.23130 0.21440 0.12700
H 	H 	0.71490 0.20910 0.18910 -0.00500
C 	C 	0.78520 0.22360 0.24150 0.51500
C 	C 	0.82560 0.05320 0.74320 -0.15700
H 	H 	0.85280 0.06650 0.75820 0.08500
C 	C 	0.71070 0.35470 0.25530 0.02100
C 	C 	0.72324 0.94970 0.75880 0.48300
C 	C 	0.68879 0.31089 0.25470 -0.06400
C 	C 	0.71108 0.28620 0.25300 0.12300
C 	C 	0.79584 0.01420 0.76380 0.09600
H 	H 	0.80250 0.00200 0.79330 0.00700
C 	C 	0.75594 0.99340 0.74030 -0.18400
C 	C 	0.77076 0.27830 0.28310 0.12000
H 	H 	0.79480 0.28720 0.30500 -0.00100
C 	C 	0.75780 0.24370 0.24670 -0.21600
C 	C 	0.88830 0.22160 0.53100 -0.10600
H 	H 	0.89750 0.24300 0.55760 0.07300
C 	C 	0.97490 0.23780 0.82850 0.07500
H 	H 	0.96960 0.23830 0.86640 0.02600
C 	C 	0.02200 0.25820 0.75430 0.07400
H 	H 	0.04980 0.27380 0.74180 0.00500
C 	C 	0.88710 0.23200 0.47560 0.03300
H 	H 	0.89750 0.26010 0.46510 0.03700
C 	C 	0.87620 0.18070 0.54880 0.04000
C 	C 	0.85720 0.16110 0.44960 0.01400
H 	H 	0.84670 0.14080 0.42130 0.04400
C 	C 	0.86700 0.21300 0.37470 0.39800
C 	C 	0.85870 0.14900 0.50950 -0.09500
H 	H 	0.84810 0.12080 0.51960 0.06300
C 	C 	0.01510 0.25880 0.80920 -0.16500
C 	C 	0.87140 0.20190 0.43900 -0.09000
C 	C 	0.05290 0.27900 0.85110 0.49200
Co	Co	0.79680 0.17680 0.16020 0.89300
In	In	0.87420 0.24545 0.25927 1.45400
In	In	0.53366 0.55977 0.60392 1.40100
Co	Co	0.45116 0.48121 0.51663 0.82900
O 	O 	0.44805 0.53583 0.53043 -0.72700
O 	O 	0.54927 0.58235 0.69543 -0.54500
O 	O 	0.35863 0.26415 0.06179 -0.68200
O 	O 	0.47827 0.56449 0.61241 -0.72700
O 	O 	0.39766 0.26933 0.13694 -0.54800
O 	O 	0.75427 0.63863 0.16193 -0.67700
O 	O 	0.51872 0.51583 0.67816 -0.51300
O 	O 	0.50985 0.50487 0.55547 -0.94100
O 	O 	0.71257 0.60563 0.23263 -0.95600
C 	C 	0.65647 0.56863 0.04723 -0.13400
H 	H 	0.66277 0.56863 0.00953 0.07500
C 	C 	0.57797 0.52823 0.97413 -0.10000
H 	H 	0.59987 0.55363 0.96013 0.06500
C 	C 	0.60677 0.54803 0.12383 -0.13500
H 	H 	0.57907 0.53453 0.13723 0.07800
C 	C 	0.48327 0.40633 0.03463 0.07900
C 	C 	0.61407 0.54573 0.06853 0.06000
C 	C 	0.54737 0.47903 0.04933 -0.09200
H 	H 	0.54767 0.47213 0.08663 0.06300
C 	C 	0.54527 0.50163 0.93853 0.03400
C 	C 	0.51337 0.46113 0.95833 -0.09200
H 	H 	0.49187 0.44253 0.93463 0.06100
C 	C 	0.57927 0.51833 0.02953 0.02800
C 	C 	0.41247 0.34663 0.03113 0.09600
H 	H 	0.38507 0.33383 0.01703 0.01100
C 	C 	0.36587 0.58503 0.55243 -0.18900
H 	H 	0.34097 0.57483 0.53173 0.09700
C 	C 	0.41444 0.63233 0.61943 -0.18400
H 	H 	0.42317 0.65513 0.64373 0.10000
C 	C 	0.44257 0.38453 0.01063 -0.15800
H 	H 	0.43627 0.39623 0.98023 0.08600
C 	C 	0.51497 0.44973 0.01433 0.02100
C 	C 	0.38967 0.56463 0.54773 0.12700
H 	H 	0.38157 0.54243 0.52243 -0.00500
C 	C 	0.45187 0.55693 0.57483 0.51500
C 	C 	0.49227 0.38653 0.07653 -0.15600
H 	H 	0.51947 0.39983 0.09153 0.08400
C 	C 	0.37737 0.68803 0.58863 0.02100
C 	C 	0.38991 0.28303 0.09213 0.48300
C 	C 	0.35546 0.64422 0.58803 -0.06400
C 	C 	0.37775 0.61953 0.58633 0.12300
C 	C 	0.46251 0.34753 0.09713 0.09500
H 	H 	0.46917 0.33533 0.12663 0.00800
C 	C 	0.42261 0.32673 0.07363 -0.18300
C 	C 	0.43743 0.61163 0.61643 0.12000
H 	H 	0.46147 0.62053 0.63833 -0.00100
C 	C 	0.42447 0.57703 0.58003 -0.21600
C 	C 	0.55497 0.55493 0.86433 -0.10600
H 	H 	0.56417 0.57633 0.89093 0.07300
C 	C 	0.64157 0.57113 0.16183 0.07500
H 	H 	0.63627 0.57163 0.19973 0.02600
C 	C 	0.68867 0.59153 0.08763 0.07400
H 	H 	0.71647 0.60713 0.07513 0.00500
C 	C 	0.55377 0.56533 0.80893 0.03300
H 	H 	0.56417 0.59343 0.79843 0.03700
C 	C 	0.54287 0.51403 0.88213 0.04000
C 	C 	0.52387 0.49443 0.78293 0.01400
H 	H 	0.51337 0.47413 0.75463 0.04400
C 	C 	0.53367 0.54633 0.70803 0.39800
C 	C 	0.52537 0.48233 0.84283 -0.09500
H 	H 	0.51477 0.45413 0.85293 0.06300
C 	C 	0.68177 0.59213 0.14253 -0.16500
C 	C 	0.53807 0.53523 0.77233 -0.09000
C 	C 	0.71957 0.61233 0.18443 0.49200
Co	Co	0.46347 0.51013 0.49353 0.89300
In	In	0.54087 0.57878 0.59260 1.45400
In	In	0.20033 0.89311 0.93726 1.40100
Co	Co	0.11782 0.81455 0.84997 0.82900
O 	O 	0.11471 0.86917 0.86377 -0.72700
O 	O 	0.21593 0.91569 0.02877 -0.54500
O 	O 	0.02529 0.59749 0.39513 -0.68200
O 	O 	0.14493 0.89783 0.94575 -0.72700
O 	O 	0.06432 0.60267 0.47028 -0.54800
O 	O 	0.42093 0.97197 0.49527 -0.67700
O 	O 	0.18538 0.84917 0.01150 -0.51200
O 	O 	0.17651 0.83821 0.88881 -0.94100
O 	O 	0.37923 0.93897 0.56597 -0.95600
C 	C 	0.32313 0.90197 0.38057 -0.13400
H 	H 	0.32943 0.90197 0.34287 0.07600
C 	C 	0.24463 0.86157 0.30747 -0.10000
H 	H 	0.26653 0.88697 0.29347 0.06500
C 	C 	0.27343 0.88137 0.45717 -0.13500
H 	H 	0.24573 0.86787 0.47057 0.07800
C 	C 	0.14993 0.73967 0.36797 0.07900
C 	C 	0.28073 0.87907 0.40187 0.06000
C 	C 	0.21403 0.81237 0.38267 -0.09300
H 	H 	0.21433 0.80547 0.41997 0.06300
C 	C 	0.21193 0.83497 0.27187 0.03500
C 	C 	0.18003 0.79447 0.29167 -0.09200
H 	H 	0.15853 0.77587 0.26797 0.06100
C 	C 	0.24593 0.85167 0.36287 0.02800
C 	C 	0.07913 0.67997 0.36447 0.09600
H 	H 	0.05173 0.66717 0.35037 0.01100
C 	C 	0.03253 0.91837 0.88577 -0.19000
H 	H 	0.00763 0.90817 0.86507 0.09700
C 	C 	0.08110 0.96567 0.95277 -0.18400
H 	H 	0.08983 0.98847 0.97707 0.09900
C 	C 	0.10923 0.71787 0.34397 -0.15800
H 	H 	0.10293 0.72957 0.31357 0.08600
C 	C 	0.18163 0.78307 0.34767 0.02200
C 	C 	0.05633 0.89797 0.88107 0.12700
H 	H 	0.04823 0.87577 0.85577 -0.00500
C 	C 	0.11853 0.89027 0.90817 0.51500
C 	C 	0.15893 0.71987 0.40987 -0.15600
H 	H 	0.18613 0.73317 0.42487 0.08400
C 	C 	0.04403 0.02137 0.92197 0.02300
C 	C 	0.05657 0.61637 0.42547 0.48300
C 	C 	0.02212 0.97756 0.92137 -0.06600
C 	C 	0.04441 0.95287 0.91967 0.12400
C 	C 	0.12917 0.68087 0.43047 0.09400
H 	H 	0.13583 0.66867 0.45997 0.00800
C 	C 	0.08927 0.66007 0.40697 -0.18300
C 	C 	0.10409 0.94497 0.94977 0.12000
H 	H 	0.12813 0.95387 0.97167 -0.00100
C 	C 	0.09113 0.91037 0.91337 -0.21600
C 	C 	0.22163 0.88827 0.19767 -0.10600
H 	H 	0.23083 0.90967 0.22427 0.07300
C 	C 	0.30823 0.90447 0.49517 0.07500
H 	H 	0.30293 0.90497 0.53307 0.02600
C 	C 	0.35533 0.92487 0.42097 0.07400
H 	H 	0.38313 0.94047 0.40847 0.00500
C 	C 	0.22043 0.89867 0.14227 0.03300
H 	H 	0.23083 0.92677 0.13177 0.03700
C 	C 	0.20953 0.84737 0.21547 0.04000
C 	C 	0.19053 0.82777 0.11627 0.01300
H 	H 	0.18003 0.80747 0.08797 0.04400
C 	C 	0.20033 0.87967 0.04137 0.39800
C 	C 	0.19203 0.81567 0.17617 -0.09500
H 	H 	0.18143 0.78747 0.18627 0.06300
C 	C 	0.34843 0.92547 0.47587 -0.16500
C 	C 	0.20473 0.86857 0.10567 -0.09000
C 	C 	0.38623 0.94567 0.51777 0.49200
Co	Co	0.13013 0.84347 0.82687 0.89300
In	In	0.20753 0.91212 0.92594 1.45400
In	In	0.77356 0.64055 0.27059 1.40100
Co	Co	0.85212 0.63661 0.18330 0.82900
O 	O 	0.79750 0.57888 0.19710 -0.72700
O 	O 	0.75098 0.63358 0.36210 -0.54500
O 	O 	0.06918 0.76114 0.72846 -0.68200
O 	O 	0.76884 0.58044 0.27908 -0.72700
O 	O 	0.06400 0.79499 0.80361 -0.54800
O 	O 	0.69470 0.78230 0.82860 -0.67700
O 	O 	0.81750 0.66955 0.34483 -0.51300
O 	O 	0.82846 0.67164 0.22214 -0.94100
O 	O 	0.72770 0.77360 0.89930 -0.95600
C 	C 	0.76470 0.75450 0.71390 -0.13400
H 	H 	0.76470 0.76080 0.67620 0.07600
C 	C 	0.80510 0.71640 0.64080 -0.10000
H 	H 	0.77970 0.71290 0.62680 0.06500
C 	C 	0.78530 0.72540 0.79050 -0.13500
H 	H 	0.79880 0.71120 0.80390 0.07800
C 	C 	0.92700 0.74360 0.70130 0.08000
C 	C 	0.78760 0.73500 0.73520 0.06000
C 	C 	0.85430 0.73500 0.71600 -0.09200
H 	H 	0.86120 0.74220 0.75330 0.06300
C 	C 	0.83170 0.71030 0.60520 0.03400
C 	C 	0.87220 0.71890 0.62500 -0.09200
H 	H 	0.89080 0.71600 0.60130 0.06100
C 	C 	0.81500 0.72760 0.69620 0.02800
C 	C 	0.98670 0.73250 0.69780 0.09700
H 	H 	0.99950 0.71790 0.68370 0.01100
C 	C 	0.74830 0.44750 0.21910 -0.18900
H 	H 	0.75850 0.43280 0.19840 0.09700
C 	C 	0.70100 0.44877 0.28610 -0.18400
H 	H 	0.67820 0.43470 0.31040 0.10000
C 	C 	0.94880 0.72470 0.67730 -0.15900
H 	H 	0.93710 0.70670 0.64690 0.08600
C 	C 	0.88360 0.73190 0.68100 0.02100
C 	C 	0.76870 0.49170 0.21440 0.12700
H 	H 	0.79090 0.50580 0.18910 -0.00500
C 	C 	0.77640 0.56160 0.24150 0.51500
C 	C 	0.94680 0.77240 0.74320 -0.15700
H 	H 	0.93350 0.78630 0.75820 0.08500
C 	C 	0.64530 0.35600 0.25530 0.02100
C 	C 	0.05030 0.77354 0.75880 0.48300
C 	C 	0.68911 0.37790 0.25470 -0.06400
C 	C 	0.71380 0.42488 0.25300 0.12300
C 	C 	0.98580 0.78164 0.76380 0.09600
H 	H 	0.99800 0.80050 0.79330 0.00700
C 	C 	0.00660 0.76254 0.74030 -0.18400
C 	C 	0.72170 0.49246 0.28310 0.12000
H 	H 	0.71280 0.50760 0.30500 -0.00100
C 	C 	0.75630 0.51410 0.24670 -0.21600
C 	C 	0.77840 0.66670 0.53100 -0.10600
H 	H 	0.75700 0.65450 0.55760 0.07300
C 	C 	0.76220 0.73710 0.82850 0.07500
H 	H 	0.76170 0.73130 0.86640 0.02600
C 	C 	0.74180 0.76380 0.75430 0.07400
H 	H 	0.72620 0.77600 0.74180 0.00500
C 	C 	0.76800 0.65510 0.47560 0.03300
H 	H 	0.73990 0.63740 0.46510 0.03700
C 	C 	0.81930 0.69550 0.54880 0.04000
C 	C 	0.83890 0.69610 0.44960 0.01400
H 	H 	0.85920 0.70590 0.42130 0.04400
C 	C 	0.78700 0.65400 0.37470 0.39800
C 	C 	0.85100 0.70970 0.50950 -0.09500
H 	H 	0.87920 0.72730 0.51960 0.06300
C 	C 	0.74120 0.75630 0.80920 -0.16500
C 	C 	0.79810 0.66950 0.43900 -0.09000
C 	C 	0.72100 0.77390 0.85110 0.49200
Co	Co	0.82320 0.62000 0.16020 0.89300
In	In	0.75455 0.62875 0.25927 1.45400
In	In	0.44023 0.97389 0.60392 1.40100
Co	Co	0.51879 0.96994 0.51663 0.82900
O 	O 	0.46417 0.91221 0.53043 -0.72700
O 	O 	0.41765 0.96691 0.69543 -0.54500
O 	O 	0.73585 0.09447 0.06179 -0.68200
O 	O 	0.43551 0.91377 0.61241 -0.72700
O 	O 	0.73067 0.12832 0.13694 -0.54800
O 	O 	0.36137 0.11563 0.16193 -0.67700
O 	O 	0.48417 0.00288 0.67816 -0.51200
O 	O 	0.49513 0.00497 0.55547 -0.94100
O 	O 	0.39437 0.10693 0.23263 -0.95600
C 	C 	0.43137 0.08783 0.04723 -0.13400
H 	H 	0.43137 0.09413 0.00953 0.07500
C 	C 	0.47177 0.04973 0.97413 -0.09900
H 	H 	0.44637 0.04623 0.96013 0.06500
C 	C 	0.45197 0.05873 0.12383 -0.13600
H 	H 	0.46547 0.04453 0.13723 0.07800
C 	C 	0.59367 0.07693 0.03463 0.08100
C 	C 	0.45427 0.06833 0.06853 0.06100
C 	C 	0.52097 0.06833 0.04933 -0.09200
H 	H 	0.52787 0.07553 0.08663 0.06300
C 	C 	0.49837 0.04363 0.93853 0.03500
C 	C 	0.53887 0.05223 0.95833 -0.09000
H 	H 	0.55747 0.04933 0.93463 0.06100
C 	C 	0.48167 0.06093 0.02953 0.02700
C 	C 	0.65337 0.06583 0.03113 0.09800
H 	H 	0.66617 0.05123 0.01703 0.01000
C 	C 	0.41497 0.78083 0.55243 -0.18900
H 	H 	0.42517 0.76613 0.53173 0.09700
C 	C 	0.36767 0.78210 0.61943 -0.18400
H 	H 	0.34487 0.76803 0.64373 0.10000
C 	C 	0.61547 0.05803 0.01063 -0.16100
H 	H 	0.60377 0.04003 0.98023 0.08700
C 	C 	0.55027 0.06523 0.01433 0.02000
C 	C 	0.43537 0.82503 0.54773 0.12700
H 	H 	0.45757 0.83913 0.52243 -0.00500
C 	C 	0.44307 0.89493 0.57483 0.51500
C 	C 	0.61347 0.10573 0.07653 -0.15800
H 	H 	0.60017 0.11963 0.09153 0.08500
C 	C 	0.31197 0.68933 0.58863 0.02100
C 	C 	0.71697 0.10687 0.09213 0.48300
C 	C 	0.35578 0.71123 0.58803 -0.06400
C 	C 	0.38047 0.75821 0.58633 0.12300
C 	C 	0.65247 0.11497 0.09713 0.09600
H 	H 	0.66467 0.13383 0.12663 0.00700
C 	C 	0.67327 0.09587 0.07363 -0.18400
C 	C 	0.38837 0.82579 0.61643 0.12000
H 	H 	0.37947 0.84093 0.63833 -0.00100
C 	C 	0.42297 0.84743 0.58003 -0.21600
C 	C 	0.44507 0.00003 0.86433 -0.10200
H 	H 	0.42367 0.98783 0.89093 0.07100
C 	C 	0.42887 0.07043 0.16183 0.07500
H 	H 	0.42837 0.06463 0.19973 0.02600
C 	C 	0.40847 0.09713 0.08763 0.07400
H 	H 	0.39287 0.10933 0.07513 0.00500
C 	C 	0.43467 0.98843 0.80893 0.02900
H 	H 	0.40657 0.97073 0.79843 0.03800
C 	C 	0.48597 0.02883 0.88213 0.03900
C 	C 	0.50557 0.02943 0.78293 0.01200
H 	H 	0.52587 0.03923 0.75463 0.04400
C 	C 	0.45367 0.98733 0.70803 0.39700
C 	C 	0.51767 0.04303 0.84283 -0.09400
H 	H 	0.54587 0.06063 0.85293 0.06200
C 	C 	0.40787 0.08963 0.14253 -0.16500
C 	C 	0.46477 0.00283 0.77233 -0.08700
C 	C 	0.38767 0.10723 0.18443 0.49200
Co	Co	0.48987 0.95333 0.49353 0.89300
In	In	0.42122 0.96208 0.59260 1.45400
In	In	0.10689 0.30722 0.93726 1.40100
Co	Co	0.18545 0.30328 0.84997 0.82900
O 	O 	0.13083 0.24555 0.86377 -0.72700
O 	O 	0.08431 0.30025 0.02877 -0.54500
O 	O 	0.40251 0.42781 0.39513 -0.68200
O 	O 	0.10217 0.24711 0.94575 -0.72700
O 	O 	0.39733 0.46166 0.47028 -0.54800
O 	O 	0.02803 0.44897 0.49527 -0.67700
O 	O 	0.15083 0.33622 0.01150 -0.51300
O 	O 	0.16179 0.33831 0.88881 -0.94100
O 	O 	0.06103 0.44027 0.56597 -0.95700
C 	C 	0.09803 0.42117 0.38057 -0.13400
H 	H 	0.09803 0.42747 0.34287 0.07600
C 	C 	0.13843 0.38307 0.30747 -0.10000
H 	H 	0.11303 0.37957 0.29347 0.06500
C 	C 	0.11863 0.39207 0.45717 -0.13500
H 	H 	0.13213 0.37787 0.47057 0.07800
C 	C 	0.26033 0.41027 0.36797 0.07900
C 	C 	0.12093 0.40167 0.40187 0.06000
C 	C 	0.18763 0.40167 0.38267 -0.09300
H 	H 	0.19453 0.40887 0.41997 0.06300
C 	C 	0.16503 0.37697 0.27187 0.03500
C 	C 	0.20553 0.38557 0.29167 -0.09200
H 	H 	0.22413 0.38267 0.26797 0.06100
C 	C 	0.14833 0.39427 0.36287 0.02800
C 	C 	0.32003 0.39917 0.36447 0.09600
H 	H 	0.33283 0.38457 0.35037 0.01100
C 	C 	0.08163 0.11417 0.88577 -0.18900
H 	H 	0.09183 0.09947 0.86507 0.09700
C 	C 	0.03433 0.11544 0.95277 -0.18400
H 	H 	0.01153 0.10137 0.97707 0.10000
C 	C 	0.28213 0.39137 0.34397 -0.15800
H 	H 	0.27043 0.37337 0.31357 0.08600
C 	C 	0.21693 0.39857 0.34767 0.02200
C 	C 	0.10203 0.15837 0.88107 0.12700
H 	H 	0.12423 0.17247 0.85577 -0.00500
C 	C 	0.10973 0.22827 0.90817 0.51500
C 	C 	0.28013 0.43907 0.40987 -0.15600
H 	H 	0.26683 0.45297 0.42487 0.08400
C 	C 	0.97863 0.02267 0.92197 0.02300
C 	C 	0.38363 0.44021 0.42547 0.48300
C 	C 	0.02244 0.04457 0.92137 -0.06600
C 	C 	0.04713 0.09155 0.91967 0.12400
C 	C 	0.31913 0.44831 0.43047 0.09400
H 	H 	0.33133 0.46717 0.45997 0.00800
C 	C 	0.33993 0.42921 0.40697 -0.18300
C 	C 	0.05503 0.15913 0.94977 0.12000
H 	H 	0.04613 0.17427 0.97167 -0.00100
C 	C 	0.08963 0.18077 0.91337 -0.21600
C 	C 	0.11173 0.33337 0.19767 -0.10600
H 	H 	0.09033 0.32117 0.22427 0.07300
C 	C 	0.09553 0.40377 0.49517 0.07500
H 	H 	0.09503 0.39797 0.53307 0.02600
C 	C 	0.07513 0.43047 0.42097 0.07400
H 	H 	0.05953 0.44267 0.40847 0.00500
C 	C 	0.10133 0.32177 0.14227 0.03300
H 	H 	0.07323 0.30407 0.13177 0.03700
C 	C 	0.15263 0.36217 0.21547 0.04000
C 	C 	0.17223 0.36277 0.11627 0.01400
H 	H 	0.19253 0.37257 0.08797 0.04400
C 	C 	0.12033 0.32067 0.04137 0.39800
C 	C 	0.18433 0.37637 0.17617 -0.09500
H 	H 	0.21253 0.39397 0.18627 0.06300
C 	C 	0.07453 0.42297 0.47587 -0.16500
C 	C 	0.13143 0.33617 0.10567 -0.09000
C 	C 	0.05433 0.44057 0.51777 0.49200
Co	Co	0.15653 0.28667 0.82687 0.89300
In	In	0.08788 0.29542 0.92594 1.45400
In	In	0.35945 0.13301 0.27059 1.40100
Co	Co	0.36339 0.21551 0.18330 0.82900
O 	O 	0.42112 0.21862 0.19710 -0.72700
O 	O 	0.36642 0.11740 0.36210 -0.54500
O 	O 	0.23886 0.30804 0.72846 -0.68200
O 	O 	0.41956 0.18840 0.27908 -0.72700
O 	O 	0.20501 0.26901 0.80361 -0.54800
O 	O 	0.21770 0.91240 0.82860 -0.67700
O 	O 	0.33045 0.14795 0.34483 -0.51300
O 	O 	0.32836 0.15682 0.22214 -0.94100
O 	O 	0.22640 0.95410 0.89930 -0.95700
C 	C 	0.24550 0.01020 0.71390 -0.13400
H 	H 	0.23920 0.00390 0.67620 0.07500
C 	C 	0.28360 0.08870 0.64080 -0.10000
H 	H 	0.28710 0.06680 0.62680 0.06500
C 	C 	0.27460 0.05990 0.79050 -0.13500
H 	H 	0.28880 0.08760 0.80390 0.07800
C 	C 	0.25640 0.18340 0.70130 0.07900
C 	C 	0.26500 0.05260 0.73520 0.06000
C 	C 	0.26500 0.11930 0.71600 -0.09300
H 	H 	0.25780 0.11900 0.75330 0.06300
C 	C 	0.28970 0.12140 0.60520 0.03500
C 	C 	0.28110 0.15330 0.62500 -0.09200
H 	H 	0.28400 0.17480 0.60130 0.06100
C 	C 	0.27240 0.08740 0.69620 0.02800
C 	C 	0.26750 0.25420 0.69780 0.09600
H 	H 	0.28210 0.28160 0.68370 0.01100
C 	C 	0.55250 0.30080 0.21910 -0.18900
H 	H 	0.56720 0.32570 0.19840 0.09700
C 	C 	0.55123 0.25223 0.28610 -0.18400
H 	H 	0.56530 0.24350 0.31040 0.10000
C 	C 	0.27530 0.22410 0.67730 -0.15800
H 	H 	0.29330 0.23040 0.64690 0.08600
C 	C 	0.26810 0.15170 0.68100 0.02200
C 	C 	0.50830 0.27700 0.21440 0.12700
H 	H 	0.49420 0.28510 0.18910 -0.00500
C 	C 	0.43840 0.21480 0.24150 0.51500
C 	C 	0.22760 0.17440 0.74320 -0.15600
H 	H 	0.21370 0.14720 0.75820 0.08400
C 	C 	0.64400 0.28930 0.25530 0.02100
C 	C 	0.22646 0.27676 0.75880 0.48300
C 	C 	0.62210 0.31121 0.25470 -0.06400
C 	C 	0.57512 0.28892 0.25300 0.12300
C 	C 	0.21836 0.20416 0.76380 0.09400
H 	H 	0.19950 0.19750 0.79330 0.00800
C 	C 	0.23746 0.24406 0.74030 -0.18300
C 	C 	0.50754 0.22924 0.28310 0.12000
H 	H 	0.49240 0.20520 0.30500 -0.00100
C 	C 	0.48590 0.24220 0.24670 -0.21600
C 	C 	0.33330 0.11170 0.53100 -0.10600
H 	H 	0.34550 0.10250 0.55760 0.07300
C 	C 	0.26290 0.02510 0.82850 0.07600
H 	H 	0.26870 0.03040 0.86640 0.02600
C 	C 	0.23620 0.97800 0.75430 0.07400
H 	H 	0.22400 0.95020 0.74180 0.00500
C 	C 	0.34490 0.11290 0.47560 0.03300
H 	H 	0.36260 0.10250 0.46510 0.03700
C 	C 	0.30450 0.12380 0.54880 0.04000
C 	C 	0.30390 0.14280 0.44960 0.01400
H 	H 	0.29410 0.15330 0.42130 0.04400
C 	C 	0.34600 0.13300 0.37470 0.39800
C 	C 	0.29030 0.14130 0.50950 -0.09500
H 	H 	0.27270 0.15190 0.51960 0.06300
C 	C 	0.24370 0.98490 0.80920 -0.16600
C 	C 	0.33050 0.12860 0.43900 -0.09000
C 	C 	0.22610 0.94710 0.85110 0.49200
Co	Co	0.38000 0.20320 0.16020 0.89300
In	In	0.37125 0.12580 0.25927 1.45400
In	In	0.02611 0.46634 0.60392 1.40100
Co	Co	0.03006 0.54884 0.51663 0.82900
O 	O 	0.08779 0.55195 0.53043 -0.72700
O 	O 	0.03309 0.45073 0.69543 -0.54500
O 	O 	0.90553 0.64137 0.06179 -0.68200
O 	O 	0.08623 0.52173 0.61241 -0.72700
O 	O 	0.87168 0.60234 0.13694 -0.54800
O 	O 	0.88437 0.24573 0.16193 -0.67700
O 	O 	0.99712 0.48128 0.67816 -0.51200
O 	O 	0.99503 0.49015 0.55547 -0.94100
O 	O 	0.89307 0.28743 0.23263 -0.95600
C 	C 	0.91217 0.34353 0.04723 -0.13400
H 	H 	0.90587 0.33723 0.00953 0.07500
C 	C 	0.95027 0.42203 0.97413 -0.09900
H 	H 	0.95377 0.40013 0.96013 0.06500
C 	C 	0.94127 0.39323 0.12383 -0.13600
H 	H 	0.95547 0.42093 0.13723 0.07800
C 	C 	0.92307 0.51673 0.03463 0.08000
C 	C 	0.93167 0.38593 0.06853 0.06100
C 	C 	0.93167 0.45263 0.04933 -0.09200
H 	H 	0.92447 0.45233 0.08663 0.06300
C 	C 	0.95637 0.45473 0.93853 0.03400
C 	C 	0.94777 0.48663 0.95833 -0.09000
H 	H 	0.95067 0.50813 0.93463 0.06100
C 	C 	0.93907 0.42073 0.02953 0.02700
C 	C 	0.93417 0.58753 0.03113 0.09800
H 	H 	0.94877 0.61493 0.01703 0.01100
C 	C 	0.21917 0.63413 0.55243 -0.18900
H 	H 	0.23387 0.65903 0.53173 0.09700
C 	C 	0.21790 0.58556 0.61943 -0.18400
H 	H 	0.23197 0.57683 0.64373 0.10000
C 	C 	0.94197 0.55743 0.01063 -0.16000
H 	H 	0.95997 0.56373 0.98023 0.08700
C 	C 	0.93477 0.48503 0.01433 0.02000
C 	C 	0.17497 0.61033 0.54773 0.12700
H 	H 	0.16087 0.61843 0.52243 -0.00500
C 	C 	0.10507 0.54813 0.57483 0.51500
C 	C 	0.89427 0.50773 0.07653 -0.15700
H 	H 	0.88037 0.48053 0.09153 0.08500
C 	C 	0.31067 0.62263 0.58863 0.02100
C 	C 	0.89313 0.61009 0.09213 0.48300
C 	C 	0.28877 0.64454 0.58803 -0.06400
C 	C 	0.24179 0.62225 0.58633 0.12300
C 	C 	0.88503 0.53749 0.09713 0.09500
H 	H 	0.86617 0.53083 0.12663 0.00700
C 	C 	0.90413 0.57739 0.07363 -0.18400
C 	C 	0.17421 0.56257 0.61643 0.12000
H 	H 	0.15907 0.53853 0.63833 -0.00100
C 	C 	0.15257 0.57553 0.58003 -0.21600
C 	C 	0.99997 0.44503 0.86433 -0.10200
H 	H 	0.01217 0.43583 0.89093 0.07100
C 	C 	0.92957 0.35843 0.16183 0.07500
H 	H 	0.93537 0.36373 0.19973 0.02600
C 	C 	0.90287 0.31133 0.08763 0.07400
H 	H 	0.89067 0.28353 0.07513 0.00500
C 	C 	0.01157 0.44623 0.80893 0.02900
H 	H 	0.02927 0.43583 0.79843 0.03800
C 	C 	0.97117 0.45713 0.88213 0.03900
C 	C 	0.97057 0.47613 0.78293 0.01200
H 	H 	0.96077 0.48663 0.75463 0.04400
C 	C 	0.01267 0.46633 0.70803 0.39700
C 	C 	0.95697 0.47463 0.84283 -0.09400
H 	H 	0.93937 0.48523 0.85293 0.06200
C 	C 	0.91037 0.31823 0.14253 -0.16500
C 	C 	0.99717 0.46193 0.77233 -0.08700
C 	C 	0.89277 0.28043 0.18443 0.49200
Co	Co	0.04667 0.53653 0.49353 0.89300
In	In	0.03792 0.45913 0.59260 1.45400
In	In	0.69278 0.79967 0.93726 1.40000
Co	Co	0.69672 0.88218 0.84997 0.82900
O 	O 	0.75445 0.88529 0.86377 -0.72700
O 	O 	0.69975 0.78407 0.02877 -0.54500
O 	O 	0.57219 0.97471 0.39513 -0.68200
O 	O 	0.75289 0.85507 0.94575 -0.72700
O 	O 	0.53834 0.93568 0.47028 -0.54800
O 	O 	0.55103 0.57907 0.49527 -0.67700
O 	O 	0.66378 0.81462 0.01150 -0.51300
O 	O 	0.66169 0.82349 0.88881 -0.94100
O 	O 	0.55973 0.62077 0.56597 -0.95600
C 	C 	0.57883 0.67687 0.38057 -0.13400
H 	H 	0.57253 0.67057 0.34287 0.07600
C 	C 	0.61693 0.75537 0.30747 -0.10000
H 	H 	0.62043 0.73347 0.29347 0.06500
C 	C 	0.60793 0.72657 0.45717 -0.13500
H 	H 	0.62213 0.75427 0.47057 0.07800
C 	C 	0.58973 0.85007 0.36797 0.07900
C 	C 	0.59833 0.71927 0.40187 0.06000
C 	C 	0.59833 0.78597 0.38267 -0.09300
H 	H 	0.59113 0.78567 0.41997 0.06300
C 	C 	0.62303 0.78807 0.27187 0.03500
C 	C 	0.61443 0.81997 0.29167 -0.09200
H 	H 	0.61733 0.84147 0.26797 0.06100
C 	C 	0.60573 0.75407 0.36287 0.02800
C 	C 	0.60083 0.92087 0.36447 0.09600
H 	H 	0.61543 0.94827 0.35037 0.01100
C 	C 	0.88583 0.96747 0.88577 -0.18900
H 	H 	0.90053 0.99237 0.86507 0.09700
C 	C 	0.88456 0.91890 0.95277 -0.18400
H 	H 	0.89863 0.91017 0.97707 0.10000
C 	C 	0.60863 0.89077 0.34397 -0.15800
H 	H 	0.62663 0.89707 0.31357 0.08600
C 	C 	0.60143 0.81837 0.34767 0.02200
C 	C 	0.84163 0.94367 0.88107 0.12700
H 	H 	0.82753 0.95177 0.85577 -0.00500
C 	C 	0.77173 0.88147 0.90817 0.51500
C 	C 	0.56093 0.84107 0.40987 -0.15600
H 	H 	0.54703 0.81387 0.42487 0.08400
C 	C 	0.97733 0.95597 0.92197 0.02200
C 	C 	0.55979 0.94343 0.42547 0.48300
C 	C 	0.95543 0.97788 0.92137 -0.06600
C 	C 	0.90845 0.95559 0.91967 0.12400
C 	C 	0.55169 0.87083 0.43047 0.09400
H 	H 	0.53283 0.86417 0.45997 0.00800
C 	C 	0.57079 0.91073 0.40697 -0.18300
C 	C 	0.84087 0.89591 0.94977 0.12000
H 	H 	0.82573 0.87187 0.97167 -0.00100
C 	C 	0.81923 0.90887 0.91337 -0.21600
C 	C 	0.66663 0.77837 0.19767 -0.10600
H 	H 	0.67883 0.76917 0.22427 0.07300
C 	C 	0.59623 0.69177 0.49517 0.07500
H 	H 	0.60203 0.69707 0.53307 0.02600
C 	C 	0.56953 0.64467 0.42097 0.07400
H 	H 	0.55733 0.61687 0.40847 0.00500
C 	C 	0.67823 0.77957 0.14227 0.03300
H 	H 	0.69593 0.76917 0.13177 0.03700
C 	C 	0.63783 0.79047 0.21547 0.04000
C 	C 	0.63723 0.80947 0.11627 0.01400
H 	H 	0.62743 0.81997 0.08797 0.04400
C 	C 	0.67933 0.79967 0.04137 0.39800
C 	C 	0.62363 0.80797 0.17617 -0.09500
H 	H 	0.60603 0.81857 0.18627 0.06300
C 	C 	0.57703 0.65157 0.47587 -0.16500
C 	C 	0.66383 0.79527 0.10567 -0.09000
C 	C 	0.55943 0.61377 0.51777 0.49200
Co	Co	0.71333 0.86987 0.82687 0.89300
In	In	0.70458 0.79247 0.92594 1.45400
