data_crystal

_cell_length_a 36.21800
_cell_length_b 36.21800
_cell_length_c 23.61200
_cell_angle_alpha 90.00000
_cell_angle_beta  90.00000
_cell_angle_gamma 120.00000

_symmetry_space_group_name_	'P 1'
_symmetry_space_group_name_H-M	'P 1'

loop_
_symmetry_equiv_pos_as_xyz
  x,y,z

loop_
_atom_site_label
_atom_site_type_symbol
_atom_site_fract_x
_atom_site_fract_y
_atom_site_fract_z
_atom_site_charge
In	In	0.63437 0.87228 0.73985 2.00600
Cu	Cu	0.70141 0.87709 0.84568 0.93000
O 	O 	0.66552 0.84180 0.77980 -0.62200
O 	O 	0.57830 0.76960 0.78460 -0.47700
O 	O 	0.57930 0.81630 0.72250 -0.58600
O 	O 	0.68500 0.93300 0.75210 -0.61200
O 	O 	0.73320 0.92970 0.80330 -0.43800
O 	O 	0.09120 0.32360 0.78750 -0.34300
O 	O 	0.84430 0.14700 0.32350 -0.31000
O 	O 	0.06500 0.27310 0.85320 -0.60500
O 	O 	0.87200 0.21640 0.33880 -0.58700
C 	C 	0.56250 0.78140 0.75170 0.46900
C 	C 	0.51300 0.75520 0.74550 -0.16700
C 	C 	0.49220 0.71910 0.77430 0.08900
H 	H 	0.50720 0.70940 0.79580 0.01900
C 	C 	0.44780 0.69570 0.77210 -0.15400
H 	H 	0.43310 0.66960 0.79070 0.08400
C 	C 	0.42580 0.71140 0.74240 0.08400
C 	C 	0.44830 0.74780 0.71110 -0.16500
H 	H 	0.43380 0.75750 0.68850 0.08900
C 	C 	0.49160 0.76990 0.71300 0.09700
H 	H 	0.50670 0.79490 0.69230 0.00500
C 	C 	0.37840 0.68840 0.74190 0.01100
C 	C 	0.35570 0.70910 0.74260 -0.07800
H 	H 	0.37120 0.73870 0.74360 0.05700
C 	C 	0.06070 0.28790 0.80890 0.24200
C 	C 	0.02180 0.26540 0.77490 -0.06300
C 	C 	0.01970 0.27040 0.72210 -0.05400
H 	H 	0.04360 0.29100 0.70290 0.05800
C 	C 	0.98150 0.24500 0.69250 0.05400
H 	H 	0.97880 0.25360 0.65640 0.00400
C 	C 	0.95490 0.20760 0.76640 -0.12000
H 	H 	0.93390 0.18330 0.78430 0.06400
C 	C 	0.94850 0.20900 0.71350 0.03000
C 	C 	0.98540 0.23380 0.80050 0.05000
C 	C 	0.90980 0.17780 0.68280 0.04500
C 	C 	0.90560 0.18350 0.62610 -0.10500
H 	H 	0.92730 0.20710 0.60780 0.06300
C 	C 	0.86920 0.15460 0.59480 0.03200
C 	C 	0.83920 0.11910 0.62350 -0.10400
H 	H 	0.81480 0.09950 0.60400 0.06500
C 	C 	0.84300 0.11120 0.67750 0.04200
C 	C 	0.87860 0.14230 0.70750 -0.10900
H 	H 	0.88070 0.13820 0.74600 0.06600
C 	C 	0.86320 0.16070 0.53260 0.07500
C 	C 	0.87960 0.20240 0.51150 -0.15300
H 	H 	0.89170 0.22610 0.53500 0.08700
C 	C 	0.87650 0.20570 0.45250 0.09100
H 	H 	0.88790 0.23290 0.43730 0.01300
C 	C 	0.85840 0.17270 0.41690 -0.17100
C 	C 	0.84290 0.13360 0.44050 0.09400
H 	H 	0.83000 0.11010 0.41670 0.01000
C 	C 	0.84500 0.12640 0.49690 -0.15900
H 	H 	0.83440 0.09890 0.51070 0.08600
C 	C 	0.86020 0.17890 0.35420 0.42000
C 	C 	0.81170 0.07120 0.70490 0.05400
C 	C 	0.76810 0.05260 0.69150 -0.14300
H 	H 	0.75910 0.06660 0.66710 0.07800
C 	C 	0.73940 0.01460 0.71370 0.08200
H 	H 	0.71080 0.00270 0.70410 0.00700
C 	C 	0.75240 0.99170 0.75290 -0.18600
C 	C 	0.79510 0.00990 0.76630 0.08200
H 	H 	0.80390 0.99550 0.79050 0.01900
C 	C 	0.82570 0.04970 0.74400 -0.13000
H 	H 	0.85430 0.06210 0.75420 0.07600
C 	C 	0.72180 0.94900 0.77070 0.49000
C 	C 	0.61180 0.87800 0.85900 0.12500
C 	C 	0.58260 0.88660 0.89600 -0.02800
C 	C 	0.57690 0.88130 0.94900 0.03600
C 	C 	0.55640 0.90130 0.98070 -0.14100
C 	C 	0.54690 0.93670 0.89180 0.00200
H 	H 	0.58570 0.86450 0.96810 0.03100
H 	H 	0.55260 0.89700 0.01960 0.07400
H 	H 	0.53830 0.95370 0.87300 0.02100
In	In	0.30104 0.20561 0.07318 2.00700
Cu	Cu	0.36808 0.21042 0.17901 0.93100
O 	O 	0.33219 0.17513 0.11313 -0.62200
O 	O 	0.24497 0.10293 0.11793 -0.47700
O 	O 	0.24597 0.14963 0.05583 -0.58600
O 	O 	0.35167 0.26633 0.08543 -0.61200
O 	O 	0.39987 0.26303 0.13663 -0.43800
O 	O 	0.75787 0.65693 0.12083 -0.34300
O 	O 	0.51097 0.48033 0.65683 -0.31000
O 	O 	0.73167 0.60643 0.18653 -0.60500
O 	O 	0.53867 0.54973 0.67213 -0.58700
C 	C 	0.22917 0.11473 0.08503 0.46900
C 	C 	0.17967 0.08853 0.07883 -0.16700
C 	C 	0.15887 0.05243 0.10763 0.09000
H 	H 	0.17387 0.04273 0.12913 0.01900
C 	C 	0.11447 0.02903 0.10543 -0.15400
H 	H 	0.09977 0.00293 0.12403 0.08400
C 	C 	0.09247 0.04473 0.07573 0.08400
C 	C 	0.11497 0.08113 0.04443 -0.16500
H 	H 	0.10047 0.09083 0.02183 0.08900
C 	C 	0.15827 0.10323 0.04633 0.09700
H 	H 	0.17337 0.12823 0.02563 0.00500
C 	C 	0.04507 0.02173 0.07523 0.01000
C 	C 	0.02237 0.04243 0.07593 -0.07700
H 	H 	0.03787 0.07203 0.07693 0.05700
C 	C 	0.72737 0.62123 0.14223 0.24200
C 	C 	0.68847 0.59873 0.10823 -0.06300
C 	C 	0.68637 0.60373 0.05543 -0.05400
H 	H 	0.71027 0.62433 0.03623 0.05800
C 	C 	0.64817 0.57833 0.02583 0.05400
H 	H 	0.64547 0.58693 0.98973 0.00400
C 	C 	0.62157 0.54093 0.09973 -0.12000
H 	H 	0.60057 0.51663 0.11763 0.06400
C 	C 	0.61517 0.54233 0.04683 0.03000
C 	C 	0.65207 0.56713 0.13383 0.05000
C 	C 	0.57647 0.51113 0.01613 0.04500
C 	C 	0.57227 0.51683 0.95943 -0.10500
H 	H 	0.59397 0.54043 0.94113 0.06300
C 	C 	0.53587 0.48793 0.92813 0.03200
C 	C 	0.50587 0.45243 0.95683 -0.10400
H 	H 	0.48147 0.43283 0.93733 0.06500
C 	C 	0.50967 0.44453 0.01083 0.04200
C 	C 	0.54527 0.47563 0.04083 -0.10900
H 	H 	0.54737 0.47153 0.07933 0.06600
C 	C 	0.52987 0.49403 0.86593 0.07500
C 	C 	0.54627 0.53573 0.84483 -0.15300
H 	H 	0.55837 0.55943 0.86833 0.08700
C 	C 	0.54317 0.53903 0.78583 0.09100
H 	H 	0.55457 0.56623 0.77063 0.01300
C 	C 	0.52507 0.50603 0.75023 -0.17100
C 	C 	0.50957 0.46693 0.77383 0.09400
H 	H 	0.49667 0.44343 0.75003 0.01000
C 	C 	0.51167 0.45973 0.83023 -0.15900
H 	H 	0.50107 0.43223 0.84403 0.08600
C 	C 	0.52687 0.51223 0.68753 0.42000
C 	C 	0.47837 0.40453 0.03823 0.05300
C 	C 	0.43477 0.38593 0.02483 -0.14200
H 	H 	0.42577 0.39993 0.00043 0.07800
C 	C 	0.40607 0.34793 0.04703 0.08200
H 	H 	0.37747 0.33603 0.03743 0.00700
C 	C 	0.41907 0.32503 0.08623 -0.18500
C 	C 	0.46177 0.34323 0.09963 0.08100
H 	H 	0.47057 0.32883 0.12383 0.01900
C 	C 	0.49237 0.38303 0.07733 -0.13000
H 	H 	0.52097 0.39543 0.08753 0.07600
C 	C 	0.38847 0.28233 0.10403 0.49000
C 	C 	0.27847 0.21133 0.19233 0.12500
C 	C 	0.24927 0.21993 0.22933 -0.02800
C 	C 	0.24357 0.21463 0.28233 0.03600
C 	C 	0.22307 0.23463 0.31403 -0.14100
C 	C 	0.21357 0.27003 0.22513 0.00200
H 	H 	0.25237 0.19783 0.30143 0.03100
H 	H 	0.21927 0.23033 0.35293 0.07400
H 	H 	0.20497 0.28703 0.20633 0.02100
In	In	0.96770 0.53895 0.40652 2.00700
Cu	Cu	0.03474 0.54376 0.51235 0.93100
O 	O 	0.99885 0.50847 0.44647 -0.62200
O 	O 	0.91163 0.43627 0.45127 -0.47700
O 	O 	0.91263 0.48297 0.38917 -0.58600
O 	O 	0.01833 0.59967 0.41877 -0.61200
O 	O 	0.06653 0.59637 0.46997 -0.43800
O 	O 	0.42453 0.99027 0.45417 -0.34300
O 	O 	0.17763 0.81367 0.99017 -0.31100
O 	O 	0.39833 0.93977 0.51987 -0.60500
O 	O 	0.20533 0.88307 0.00547 -0.58700
C 	C 	0.89583 0.44807 0.41837 0.46900
C 	C 	0.84633 0.42187 0.41217 -0.16700
C 	C 	0.82553 0.38577 0.44097 0.08900
H 	H 	0.84053 0.37607 0.46247 0.01900
C 	C 	0.78113 0.36237 0.43877 -0.15400
H 	H 	0.76643 0.33627 0.45737 0.08400
C 	C 	0.75913 0.37807 0.40907 0.08400
C 	C 	0.78163 0.41447 0.37777 -0.16500
H 	H 	0.76713 0.42417 0.35517 0.08900
C 	C 	0.82493 0.43657 0.37967 0.09700
H 	H 	0.84003 0.46157 0.35897 0.00500
C 	C 	0.71173 0.35507 0.40857 0.01100
C 	C 	0.68903 0.37577 0.40927 -0.07800
H 	H 	0.70453 0.40537 0.41027 0.05700
C 	C 	0.39403 0.95457 0.47557 0.24200
C 	C 	0.35513 0.93207 0.44157 -0.06200
C 	C 	0.35303 0.93707 0.38877 -0.05400
H 	H 	0.37693 0.95767 0.36957 0.05800
C 	C 	0.31483 0.91167 0.35917 0.05400
H 	H 	0.31213 0.92027 0.32307 0.00500
C 	C 	0.28823 0.87427 0.43307 -0.12000
H 	H 	0.26723 0.84997 0.45097 0.06400
C 	C 	0.28183 0.87567 0.38017 0.03000
C 	C 	0.31873 0.90047 0.46717 0.05000
C 	C 	0.24313 0.84447 0.34947 0.04500
C 	C 	0.23893 0.85017 0.29277 -0.10600
H 	H 	0.26063 0.87377 0.27447 0.06300
C 	C 	0.20253 0.82127 0.26147 0.03200
C 	C 	0.17253 0.78577 0.29017 -0.10400
H 	H 	0.14813 0.76617 0.27067 0.06500
C 	C 	0.17633 0.77787 0.34417 0.04200
C 	C 	0.21193 0.80897 0.37417 -0.11000
H 	H 	0.21403 0.80487 0.41267 0.06600
C 	C 	0.19653 0.82737 0.19927 0.07500
C 	C 	0.21293 0.86907 0.17817 -0.15300
H 	H 	0.22503 0.89277 0.20167 0.08700
C 	C 	0.20983 0.87237 0.11917 0.09100
H 	H 	0.22123 0.89957 0.10397 0.01300
C 	C 	0.19173 0.83937 0.08357 -0.17100
C 	C 	0.17623 0.80027 0.10717 0.09500
H 	H 	0.16333 0.77677 0.08337 0.01000
C 	C 	0.17833 0.79307 0.16357 -0.15900
H 	H 	0.16773 0.76557 0.17737 0.08600
C 	C 	0.19353 0.84557 0.02087 0.42000
C 	C 	0.14503 0.73787 0.37157 0.05300
C 	C 	0.10143 0.71927 0.35817 -0.14200
H 	H 	0.09243 0.73327 0.33377 0.07800
C 	C 	0.07273 0.68127 0.38037 0.08200
H 	H 	0.04413 0.66937 0.37077 0.00700
C 	C 	0.08573 0.65837 0.41957 -0.18500
C 	C 	0.12843 0.67657 0.43297 0.08100
H 	H 	0.13723 0.66217 0.45717 0.01900
C 	C 	0.15903 0.71637 0.41067 -0.13000
H 	H 	0.18763 0.72877 0.42087 0.07600
C 	C 	0.05513 0.61567 0.43737 0.49000
C 	C 	0.94513 0.54467 0.52567 0.12500
C 	C 	0.91593 0.55327 0.56267 -0.02800
C 	C 	0.91023 0.54797 0.61567 0.03600
C 	C 	0.88973 0.56797 0.64737 -0.14100
C 	C 	0.88023 0.60337 0.55847 0.00200
H 	H 	0.91903 0.53117 0.63477 0.03100
H 	H 	0.88593 0.56367 0.68627 0.07400
H 	H 	0.87163 0.62037 0.53967 0.02100
In	In	0.12772 0.76209 0.73985 2.00700
Cu	Cu	0.12291 0.82432 0.84568 0.93100
O 	O 	0.15820 0.82372 0.77980 -0.62200
O 	O 	0.23040 0.80870 0.78460 -0.47700
O 	O 	0.18370 0.76300 0.72250 -0.58600
O 	O 	0.06700 0.75200 0.75210 -0.61200
O 	O 	0.07030 0.80350 0.80330 -0.43800
O 	O 	0.67640 0.76760 0.78750 -0.34300
O 	O 	0.85300 0.69730 0.32350 -0.31000
O 	O 	0.72690 0.79190 0.85320 -0.60500
O 	O 	0.78360 0.65560 0.33880 -0.58700
C 	C 	0.21860 0.78110 0.75170 0.46900
C 	C 	0.24480 0.75780 0.74550 -0.16700
C 	C 	0.28090 0.77310 0.77430 0.08900
H 	H 	0.29060 0.79780 0.79580 0.01900
C 	C 	0.30430 0.75210 0.77210 -0.15400
H 	H 	0.33040 0.76350 0.79070 0.08400
C 	C 	0.28860 0.71440 0.74240 0.08400
C 	C 	0.25220 0.70050 0.71110 -0.16500
H 	H 	0.24250 0.67630 0.68850 0.08900
C 	C 	0.23010 0.72170 0.71300 0.09700
H 	H 	0.20510 0.71180 0.69230 0.00500
C 	C 	0.31160 0.69000 0.74190 0.01100
C 	C 	0.29090 0.64660 0.74260 -0.07800
H 	H 	0.26130 0.63250 0.74360 0.05700
C 	C 	0.71210 0.77280 0.80890 0.24200
C 	C 	0.73460 0.75640 0.77490 -0.06200
C 	C 	0.72960 0.74930 0.72210 -0.05400
H 	H 	0.70900 0.75260 0.70290 0.05800
C 	C 	0.75500 0.73650 0.69250 0.05400
H 	H 	0.74640 0.72520 0.65640 0.00500
C 	C 	0.79240 0.74730 0.76640 -0.12000
H 	H 	0.81670 0.75060 0.78430 0.06400
C 	C 	0.79100 0.73950 0.71350 0.03000
C 	C 	0.76620 0.75160 0.80050 0.05000
C 	C 	0.82220 0.73200 0.68280 0.04500
C 	C 	0.81650 0.72210 0.62610 -0.10500
H 	H 	0.79290 0.72020 0.60780 0.06300
C 	C 	0.84540 0.71460 0.59480 0.03200
C 	C 	0.88090 0.72010 0.62350 -0.10400
H 	H 	0.90050 0.71530 0.60400 0.06500
C 	C 	0.88880 0.73180 0.67750 0.04200
C 	C 	0.85770 0.73630 0.70750 -0.10900
H 	H 	0.86180 0.74250 0.74600 0.06600
C 	C 	0.83930 0.70250 0.53260 0.07500
C 	C 	0.79760 0.67720 0.51150 -0.15300
H 	H 	0.77390 0.66560 0.53500 0.08700
C 	C 	0.79430 0.67080 0.45250 0.09100
H 	H 	0.76710 0.65500 0.43730 0.01300
C 	C 	0.82730 0.68570 0.41690 -0.17100
C 	C 	0.86640 0.70930 0.44050 0.09400
H 	H 	0.88990 0.71990 0.41670 0.01000
C 	C 	0.87360 0.71860 0.49690 -0.15900
H 	H 	0.90110 0.73550 0.51070 0.08600
C 	C 	0.82110 0.68130 0.35420 0.42000
C 	C 	0.92880 0.74050 0.70490 0.05400
C 	C 	0.94740 0.71550 0.69150 -0.14300
H 	H 	0.93340 0.69250 0.66710 0.07800
C 	C 	0.98540 0.72480 0.71370 0.08200
H 	H 	0.99730 0.70810 0.70410 0.00700
C 	C 	0.00830 0.76070 0.75290 -0.18600
C 	C 	0.99010 0.78520 0.76630 0.08200
H 	H 	0.00450 0.80840 0.79050 0.01800
C 	C 	0.95030 0.77600 0.74400 -0.13000
H 	H 	0.93790 0.79220 0.75420 0.07600
C 	C 	0.05100 0.77280 0.77070 0.49000
C 	C 	0.12200 0.73380 0.85900 0.12500
C 	C 	0.11340 0.69600 0.89600 -0.02800
C 	C 	0.11870 0.69560 0.94900 0.03600
C 	C 	0.09870 0.65510 0.98070 -0.14200
C 	C 	0.06330 0.61020 0.89180 0.00200
H 	H 	0.13550 0.72120 0.96810 0.03100
H 	H 	0.10300 0.65560 0.01960 0.07400
H 	H 	0.04630 0.58460 0.87300 0.02100
In	In	0.79439 0.09542 0.07318 2.00700
Cu	Cu	0.78958 0.15765 0.17901 0.93100
O 	O 	0.82487 0.15705 0.11313 -0.62200
O 	O 	0.89707 0.14203 0.11793 -0.47700
O 	O 	0.85037 0.09633 0.05583 -0.58600
O 	O 	0.73367 0.08533 0.08543 -0.61200
O 	O 	0.73697 0.13683 0.13663 -0.43800
O 	O 	0.34307 0.10093 0.12083 -0.34300
O 	O 	0.51967 0.03063 0.65683 -0.31000
O 	O 	0.39357 0.12523 0.18653 -0.60500
O 	O 	0.45027 0.98893 0.67213 -0.58700
C 	C 	0.88527 0.11443 0.08503 0.46900
C 	C 	0.91147 0.09113 0.07883 -0.16700
C 	C 	0.94757 0.10643 0.10763 0.09000
H 	H 	0.95727 0.13113 0.12913 0.01900
C 	C 	0.97097 0.08543 0.10543 -0.15400
H 	H 	0.99707 0.09683 0.12403 0.08400
C 	C 	0.95527 0.04773 0.07573 0.08400
C 	C 	0.91887 0.03383 0.04443 -0.16500
H 	H 	0.90917 0.00963 0.02183 0.08900
C 	C 	0.89677 0.05503 0.04633 0.09700
H 	H 	0.87177 0.04513 0.02563 0.00500
C 	C 	0.97827 0.02333 0.07523 0.01000
C 	C 	0.95757 0.97993 0.07593 -0.07700
H 	H 	0.92797 0.96583 0.07693 0.05700
C 	C 	0.37877 0.10613 0.14223 0.24200
C 	C 	0.40127 0.08973 0.10823 -0.06200
C 	C 	0.39627 0.08263 0.05543 -0.05400
H 	H 	0.37567 0.08593 0.03623 0.05800
C 	C 	0.42167 0.06983 0.02583 0.05400
H 	H 	0.41307 0.05853 0.98973 0.00500
C 	C 	0.45907 0.08063 0.09973 -0.12000
H 	H 	0.48337 0.08393 0.11763 0.06400
C 	C 	0.45767 0.07283 0.04683 0.03000
C 	C 	0.43287 0.08493 0.13383 0.05000
C 	C 	0.48887 0.06533 0.01613 0.04400
C 	C 	0.48317 0.05543 0.95943 -0.10500
H 	H 	0.45957 0.05353 0.94113 0.06300
C 	C 	0.51207 0.04793 0.92813 0.03100
C 	C 	0.54757 0.05343 0.95683 -0.10400
H 	H 	0.56717 0.04863 0.93733 0.06500
C 	C 	0.55547 0.06513 0.01083 0.04200
C 	C 	0.52437 0.06963 0.04083 -0.10900
H 	H 	0.52847 0.07583 0.07933 0.06600
C 	C 	0.50597 0.03583 0.86593 0.07500
C 	C 	0.46427 0.01053 0.84483 -0.15300
H 	H 	0.44057 0.99893 0.86833 0.08700
C 	C 	0.46097 0.00413 0.78583 0.09200
H 	H 	0.43377 0.98833 0.77063 0.01300
C 	C 	0.49397 0.01903 0.75023 -0.17100
C 	C 	0.53307 0.04263 0.77383 0.09500
H 	H 	0.55657 0.05323 0.75003 0.01000
C 	C 	0.54027 0.05193 0.83023 -0.16000
H 	H 	0.56777 0.06883 0.84403 0.08600
C 	C 	0.48777 0.01463 0.68753 0.42000
C 	C 	0.59547 0.07383 0.03823 0.05400
C 	C 	0.61407 0.04883 0.02483 -0.14300
H 	H 	0.60007 0.02583 0.00043 0.07800
C 	C 	0.65207 0.05813 0.04703 0.08200
H 	H 	0.66397 0.04143 0.03743 0.00700
C 	C 	0.67497 0.09403 0.08623 -0.18600
C 	C 	0.65677 0.11853 0.09963 0.08100
H 	H 	0.67117 0.14173 0.12383 0.01900
C 	C 	0.61697 0.10933 0.07733 -0.13000
H 	H 	0.60457 0.12553 0.08753 0.07600
C 	C 	0.71767 0.10613 0.10403 0.49000
C 	C 	0.78867 0.06713 0.19233 0.12500
C 	C 	0.78007 0.02933 0.22933 -0.02800
C 	C 	0.78537 0.02893 0.28233 0.03600
C 	C 	0.76537 0.98843 0.31403 -0.14100
C 	C 	0.72997 0.94353 0.22513 0.00200
H 	H 	0.80217 0.05453 0.30143 0.03100
H 	H 	0.76967 0.98893 0.35293 0.07400
H 	H 	0.71297 0.91793 0.20633 0.02100
In	In	0.46105 0.42876 0.40652 2.00700
Cu	Cu	0.45624 0.49099 0.51235 0.93100
O 	O 	0.49153 0.49039 0.44647 -0.62200
O 	O 	0.56373 0.47537 0.45127 -0.47700
O 	O 	0.51703 0.42967 0.38917 -0.58600
O 	O 	0.40033 0.41867 0.41877 -0.61200
O 	O 	0.40363 0.47017 0.46997 -0.43800
O 	O 	0.00973 0.43427 0.45417 -0.34300
O 	O 	0.18633 0.36397 0.99017 -0.31000
O 	O 	0.06023 0.45857 0.51987 -0.60500
O 	O 	0.11693 0.32227 0.00547 -0.58700
C 	C 	0.55193 0.44777 0.41837 0.46900
C 	C 	0.57813 0.42447 0.41217 -0.16700
C 	C 	0.61423 0.43977 0.44097 0.08900
H 	H 	0.62393 0.46447 0.46247 0.01900
C 	C 	0.63763 0.41877 0.43877 -0.15400
H 	H 	0.66373 0.43017 0.45737 0.08400
C 	C 	0.62193 0.38107 0.40907 0.08400
C 	C 	0.58553 0.36717 0.37777 -0.16500
H 	H 	0.57583 0.34297 0.35517 0.08900
C 	C 	0.56343 0.38837 0.37967 0.09700
H 	H 	0.53843 0.37847 0.35897 0.00500
C 	C 	0.64493 0.35667 0.40857 0.01100
C 	C 	0.62423 0.31327 0.40927 -0.07800
H 	H 	0.59463 0.29917 0.41027 0.05700
C 	C 	0.04543 0.43947 0.47557 0.24100
C 	C 	0.06793 0.42307 0.44157 -0.06200
C 	C 	0.06293 0.41597 0.38877 -0.05400
H 	H 	0.04233 0.41927 0.36957 0.05800
C 	C 	0.08833 0.40317 0.35917 0.05400
H 	H 	0.07973 0.39187 0.32307 0.00400
C 	C 	0.12573 0.41397 0.43307 -0.12000
H 	H 	0.15003 0.41727 0.45097 0.06400
C 	C 	0.12433 0.40617 0.38017 0.03000
C 	C 	0.09953 0.41827 0.46717 0.05000
C 	C 	0.15553 0.39867 0.34947 0.04500
C 	C 	0.14983 0.38877 0.29277 -0.10500
H 	H 	0.12623 0.38687 0.27447 0.06300
C 	C 	0.17873 0.38127 0.26147 0.03200
C 	C 	0.21423 0.38677 0.29017 -0.10400
H 	H 	0.23383 0.38197 0.27067 0.06500
C 	C 	0.22213 0.39847 0.34417 0.04200
C 	C 	0.19103 0.40297 0.37417 -0.11000
H 	H 	0.19513 0.40917 0.41267 0.06600
C 	C 	0.17263 0.36917 0.19927 0.07500
C 	C 	0.13093 0.34387 0.17817 -0.15300
H 	H 	0.10723 0.33227 0.20167 0.08700
C 	C 	0.12763 0.33747 0.11917 0.09100
H 	H 	0.10043 0.32167 0.10397 0.01300
C 	C 	0.16063 0.35237 0.08357 -0.17100
C 	C 	0.19973 0.37597 0.10717 0.09400
H 	H 	0.22323 0.38657 0.08337 0.01000
C 	C 	0.20693 0.38527 0.16357 -0.15900
H 	H 	0.23443 0.40217 0.17737 0.08600
C 	C 	0.15443 0.34797 0.02087 0.42000
C 	C 	0.26213 0.40717 0.37157 0.05300
C 	C 	0.28073 0.38217 0.35817 -0.14200
H 	H 	0.26673 0.35917 0.33377 0.07800
C 	C 	0.31873 0.39147 0.38037 0.08200
H 	H 	0.33063 0.37477 0.37077 0.00700
C 	C 	0.34163 0.42737 0.41957 -0.18500
C 	C 	0.32343 0.45187 0.43297 0.08100
H 	H 	0.33783 0.47507 0.45717 0.01900
C 	C 	0.28363 0.44267 0.41067 -0.13000
H 	H 	0.27123 0.45887 0.42087 0.07600
C 	C 	0.38433 0.43947 0.43737 0.49000
C 	C 	0.45533 0.40047 0.52567 0.12500
C 	C 	0.44673 0.36267 0.56267 -0.02800
C 	C 	0.45203 0.36227 0.61567 0.03600
C 	C 	0.43203 0.32177 0.64737 -0.14100
C 	C 	0.39663 0.27687 0.55847 0.00200
H 	H 	0.46883 0.38787 0.63477 0.03100
H 	H 	0.43633 0.32227 0.68627 0.07400
H 	H 	0.37963 0.25127 0.53967 0.02100
In	In	0.23791 0.36563 0.73985 2.00700
Cu	Cu	0.17568 0.29859 0.84568 0.93100
O 	O 	0.17628 0.33448 0.77980 -0.62200
O 	O 	0.19130 0.42170 0.78460 -0.47700
O 	O 	0.23700 0.42070 0.72250 -0.58600
O 	O 	0.24800 0.31500 0.75210 -0.61200
O 	O 	0.19650 0.26680 0.80330 -0.43800
O 	O 	0.23240 0.90880 0.78750 -0.34300
O 	O 	0.30270 0.15570 0.32350 -0.31000
O 	O 	0.20810 0.93500 0.85320 -0.60500
O 	O 	0.34440 0.12800 0.33880 -0.58700
C 	C 	0.21890 0.43750 0.75170 0.46900
C 	C 	0.24220 0.48700 0.74550 -0.16700
C 	C 	0.22690 0.50780 0.77430 0.08900
H 	H 	0.20220 0.49280 0.79580 0.01900
C 	C 	0.24790 0.55220 0.77210 -0.15400
H 	H 	0.23650 0.56690 0.79070 0.08400
C 	C 	0.28560 0.57420 0.74240 0.08400
C 	C 	0.29950 0.55170 0.71110 -0.16500
H 	H 	0.32370 0.56620 0.68850 0.08900
C 	C 	0.27830 0.50840 0.71300 0.09700
H 	H 	0.28820 0.49330 0.69230 0.00500
C 	C 	0.31000 0.62160 0.74190 0.01100
C 	C 	0.35340 0.64430 0.74260 -0.07800
H 	H 	0.36750 0.62880 0.74360 0.05700
C 	C 	0.22720 0.93930 0.80890 0.24200
C 	C 	0.24360 0.97820 0.77490 -0.06200
C 	C 	0.25070 0.98030 0.72210 -0.05400
H 	H 	0.24740 0.95640 0.70290 0.05800
C 	C 	0.26350 0.01850 0.69250 0.05400
H 	H 	0.27480 0.02120 0.65640 0.00400
C 	C 	0.25270 0.04510 0.76640 -0.12000
H 	H 	0.24940 0.06610 0.78430 0.06400
C 	C 	0.26050 0.05150 0.71350 0.03000
C 	C 	0.24840 0.01460 0.80050 0.05000
C 	C 	0.26800 0.09020 0.68280 0.04500
C 	C 	0.27790 0.09440 0.62610 -0.10600
H 	H 	0.27980 0.07270 0.60780 0.06300
C 	C 	0.28540 0.13080 0.59480 0.03200
C 	C 	0.27990 0.16080 0.62350 -0.10400
H 	H 	0.28470 0.18520 0.60400 0.06500
C 	C 	0.26820 0.15700 0.67750 0.04200
C 	C 	0.26370 0.12140 0.70750 -0.11000
H 	H 	0.25750 0.11930 0.74600 0.06600
C 	C 	0.29750 0.13680 0.53260 0.07500
C 	C 	0.32280 0.12040 0.51150 -0.15300
H 	H 	0.33440 0.10830 0.53500 0.08700
C 	C 	0.32920 0.12350 0.45250 0.09100
H 	H 	0.34500 0.11210 0.43730 0.01300
C 	C 	0.31430 0.14160 0.41690 -0.17100
C 	C 	0.29070 0.15710 0.44050 0.09400
H 	H 	0.28010 0.17000 0.41670 0.01000
C 	C 	0.28140 0.15500 0.49690 -0.15900
H 	H 	0.26450 0.16560 0.51070 0.08600
C 	C 	0.31870 0.13980 0.35420 0.42000
C 	C 	0.25950 0.18830 0.70490 0.05300
C 	C 	0.28450 0.23190 0.69150 -0.14200
H 	H 	0.30750 0.24090 0.66710 0.07800
C 	C 	0.27520 0.26060 0.71370 0.08200
H 	H 	0.29190 0.28920 0.70410 0.00700
C 	C 	0.23930 0.24760 0.75290 -0.18500
C 	C 	0.21480 0.20490 0.76630 0.08100
H 	H 	0.19160 0.19610 0.79050 0.01900
C 	C 	0.22400 0.17430 0.74400 -0.13000
H 	H 	0.20780 0.14570 0.75420 0.07600
C 	C 	0.22720 0.27820 0.77070 0.49000
C 	C 	0.26620 0.38820 0.85900 0.12500
C 	C 	0.30400 0.41740 0.89600 -0.02800
C 	C 	0.30440 0.42310 0.94900 0.03600
C 	C 	0.34490 0.44360 0.98070 -0.14100
C 	C 	0.38980 0.45310 0.89180 0.00200
H 	H 	0.27880 0.41430 0.96810 0.03100
H 	H 	0.34440 0.44740 0.01960 0.07400
H 	H 	0.41540 0.46170 0.87300 0.02100
In	In	0.90458 0.69896 0.07318 2.00700
Cu	Cu	0.84235 0.63192 0.17901 0.93100
O 	O 	0.84295 0.66781 0.11313 -0.62200
O 	O 	0.85797 0.75503 0.11793 -0.47700
O 	O 	0.90367 0.75403 0.05583 -0.58600
O 	O 	0.91467 0.64833 0.08543 -0.61200
O 	O 	0.86317 0.60013 0.13663 -0.43800
O 	O 	0.89907 0.24213 0.12083 -0.34300
O 	O 	0.96937 0.48903 0.65683 -0.31000
O 	O 	0.87477 0.26833 0.18653 -0.60500
O 	O 	0.01107 0.46133 0.67213 -0.58700
C 	C 	0.88557 0.77083 0.08503 0.46900
C 	C 	0.90887 0.82033 0.07883 -0.16700
C 	C 	0.89357 0.84113 0.10763 0.09000
H 	H 	0.86887 0.82613 0.12913 0.01900
C 	C 	0.91457 0.88553 0.10543 -0.15400
H 	H 	0.90317 0.90023 0.12403 0.08400
C 	C 	0.95227 0.90753 0.07573 0.08400
C 	C 	0.96617 0.88503 0.04443 -0.16500
H 	H 	0.99037 0.89953 0.02183 0.08900
C 	C 	0.94497 0.84173 0.04633 0.09700
H 	H 	0.95487 0.82663 0.02563 0.00500
C 	C 	0.97667 0.95493 0.07523 0.01000
C 	C 	0.02007 0.97763 0.07593 -0.07700
H 	H 	0.03417 0.96213 0.07693 0.05700
C 	C 	0.89387 0.27263 0.14223 0.24200
C 	C 	0.91027 0.31153 0.10823 -0.06200
C 	C 	0.91737 0.31363 0.05543 -0.05400
H 	H 	0.91407 0.28973 0.03623 0.05800
C 	C 	0.93017 0.35183 0.02583 0.05400
H 	H 	0.94147 0.35453 0.98973 0.00500
C 	C 	0.91937 0.37843 0.09973 -0.12000
H 	H 	0.91607 0.39943 0.11763 0.06400
C 	C 	0.92717 0.38483 0.04683 0.03000
C 	C 	0.91507 0.34793 0.13383 0.05000
C 	C 	0.93467 0.42353 0.01613 0.04400
C 	C 	0.94457 0.42773 0.95943 -0.10500
H 	H 	0.94647 0.40603 0.94113 0.06300
C 	C 	0.95207 0.46413 0.92813 0.03100
C 	C 	0.94657 0.49413 0.95683 -0.10400
H 	H 	0.95137 0.51853 0.93733 0.06500
C 	C 	0.93487 0.49033 0.01083 0.04200
C 	C 	0.93037 0.45473 0.04083 -0.10900
H 	H 	0.92417 0.45263 0.07933 0.06600
C 	C 	0.96417 0.47013 0.86593 0.07500
C 	C 	0.98947 0.45373 0.84483 -0.15300
H 	H 	0.00107 0.44163 0.86833 0.08700
C 	C 	0.99587 0.45683 0.78583 0.09200
H 	H 	0.01167 0.44543 0.77063 0.01300
C 	C 	0.98097 0.47493 0.75023 -0.17100
C 	C 	0.95737 0.49043 0.77383 0.09500
H 	H 	0.94677 0.50333 0.75003 0.01000
C 	C 	0.94807 0.48833 0.83023 -0.16000
H 	H 	0.93117 0.49893 0.84403 0.08600
C 	C 	0.98537 0.47313 0.68753 0.42000
C 	C 	0.92617 0.52163 0.03823 0.05400
C 	C 	0.95117 0.56523 0.02483 -0.14300
H 	H 	0.97417 0.57423 0.00043 0.07800
C 	C 	0.94187 0.59393 0.04703 0.08200
H 	H 	0.95857 0.62253 0.03743 0.00700
C 	C 	0.90597 0.58093 0.08623 -0.18600
C 	C 	0.88147 0.53823 0.09963 0.08100
H 	H 	0.85827 0.52943 0.12383 0.01900
C 	C 	0.89067 0.50763 0.07733 -0.13000
H 	H 	0.87447 0.47903 0.08753 0.07600
C 	C 	0.89387 0.61153 0.10403 0.49000
C 	C 	0.93287 0.72153 0.19233 0.12500
C 	C 	0.97067 0.75073 0.22933 -0.02800
C 	C 	0.97107 0.75643 0.28233 0.03600
C 	C 	0.01157 0.77693 0.31403 -0.14100
C 	C 	0.05647 0.78643 0.22513 0.00200
H 	H 	0.94547 0.74763 0.30143 0.03100
H 	H 	0.01107 0.78073 0.35293 0.07400
H 	H 	0.08207 0.79503 0.20633 0.02100
In	In	0.57124 0.03230 0.40652 2.00700
Cu	Cu	0.50901 0.96526 0.51235 0.93100
O 	O 	0.50961 0.00115 0.44647 -0.62200
O 	O 	0.52463 0.08837 0.45127 -0.47700
O 	O 	0.57033 0.08737 0.38917 -0.58600
O 	O 	0.58133 0.98167 0.41877 -0.61200
O 	O 	0.52983 0.93347 0.46997 -0.43800
O 	O 	0.56573 0.57547 0.45417 -0.34300
O 	O 	0.63603 0.82237 0.99017 -0.31000
O 	O 	0.54143 0.60167 0.51987 -0.60400
O 	O 	0.67773 0.79467 0.00547 -0.58700
C 	C 	0.55223 0.10417 0.41837 0.46900
C 	C 	0.57553 0.15367 0.41217 -0.16700
C 	C 	0.56023 0.17447 0.44097 0.08900
H 	H 	0.53553 0.15947 0.46247 0.01900
C 	C 	0.58123 0.21887 0.43877 -0.15400
H 	H 	0.56983 0.23357 0.45737 0.08400
C 	C 	0.61893 0.24087 0.40907 0.08400
C 	C 	0.63283 0.21837 0.37777 -0.16500
H 	H 	0.65703 0.23287 0.35517 0.08900
C 	C 	0.61163 0.17507 0.37967 0.09700
H 	H 	0.62153 0.15997 0.35897 0.00500
C 	C 	0.64333 0.28827 0.40857 0.01100
C 	C 	0.68673 0.31097 0.40927 -0.07800
H 	H 	0.70083 0.29547 0.41027 0.05700
C 	C 	0.56053 0.60597 0.47557 0.24100
C 	C 	0.57693 0.64487 0.44157 -0.06200
C 	C 	0.58403 0.64697 0.38877 -0.05400
H 	H 	0.58073 0.62307 0.36957 0.05800
C 	C 	0.59683 0.68517 0.35917 0.05400
H 	H 	0.60813 0.68787 0.32307 0.00500
C 	C 	0.58603 0.71177 0.43307 -0.12000
H 	H 	0.58273 0.73277 0.45097 0.06400
C 	C 	0.59383 0.71817 0.38017 0.03000
C 	C 	0.58173 0.68127 0.46717 0.05000
C 	C 	0.60133 0.75687 0.34947 0.04500
C 	C 	0.61123 0.76107 0.29277 -0.10600
H 	H 	0.61313 0.73937 0.27447 0.06300
C 	C 	0.61873 0.79747 0.26147 0.03200
C 	C 	0.61323 0.82747 0.29017 -0.10400
H 	H 	0.61803 0.85187 0.27067 0.06500
C 	C 	0.60153 0.82367 0.34417 0.04200
C 	C 	0.59703 0.78807 0.37417 -0.11000
H 	H 	0.59083 0.78597 0.41267 0.06600
C 	C 	0.63083 0.80347 0.19927 0.07500
C 	C 	0.65613 0.78707 0.17817 -0.15300
H 	H 	0.66773 0.77497 0.20167 0.08700
C 	C 	0.66253 0.79017 0.11917 0.09100
H 	H 	0.67833 0.77877 0.10397 0.01300
C 	C 	0.64763 0.80827 0.08357 -0.17100
C 	C 	0.62403 0.82377 0.10717 0.09400
H 	H 	0.61343 0.83667 0.08337 0.01000
C 	C 	0.61473 0.82167 0.16357 -0.15900
H 	H 	0.59783 0.83227 0.17737 0.08600
C 	C 	0.65203 0.80647 0.02087 0.42000
C 	C 	0.59283 0.85497 0.37157 0.05300
C 	C 	0.61783 0.89857 0.35817 -0.14200
H 	H 	0.64083 0.90757 0.33377 0.07800
C 	C 	0.60853 0.92727 0.38037 0.08200
H 	H 	0.62523 0.95587 0.37077 0.00700
C 	C 	0.57263 0.91427 0.41957 -0.18500
C 	C 	0.54813 0.87157 0.43297 0.08100
H 	H 	0.52493 0.86277 0.45717 0.01900
C 	C 	0.55733 0.84097 0.41067 -0.13000
H 	H 	0.54113 0.81237 0.42087 0.07600
C 	C 	0.56053 0.94487 0.43737 0.49000
C 	C 	0.59953 0.05487 0.52567 0.12500
C 	C 	0.63733 0.08407 0.56267 -0.02800
C 	C 	0.63773 0.08977 0.61567 0.03600
C 	C 	0.67823 0.11027 0.64737 -0.14100
C 	C 	0.72313 0.11977 0.55847 0.00200
H 	H 	0.61213 0.08097 0.63477 0.03100
H 	H 	0.67773 0.11407 0.68627 0.07400
H 	H 	0.74873 0.12837 0.53967 0.02100
In	In	0.36563 0.12772 0.26015 2.00700
Cu	Cu	0.29859 0.12291 0.15432 0.93100
O 	O 	0.33448 0.15820 0.22020 -0.62200
O 	O 	0.42170 0.23040 0.21540 -0.47700
O 	O 	0.42070 0.18370 0.27750 -0.58600
O 	O 	0.31500 0.06700 0.24790 -0.61200
O 	O 	0.26680 0.07030 0.19670 -0.43800
O 	O 	0.90880 0.67640 0.21250 -0.34300
O 	O 	0.15570 0.85300 0.67650 -0.31000
O 	O 	0.93500 0.72690 0.14680 -0.60500
O 	O 	0.12800 0.78360 0.66120 -0.58700
C 	C 	0.43750 0.21860 0.24830 0.46900
C 	C 	0.48700 0.24480 0.25450 -0.16700
C 	C 	0.50780 0.28090 0.22570 0.08900
H 	H 	0.49280 0.29060 0.20420 0.01900
C 	C 	0.55220 0.30430 0.22790 -0.15400
H 	H 	0.56690 0.33040 0.20930 0.08400
C 	C 	0.57420 0.28860 0.25760 0.08400
C 	C 	0.55170 0.25220 0.28890 -0.16500
H 	H 	0.56620 0.24250 0.31150 0.08900
C 	C 	0.50840 0.23010 0.28700 0.09700
H 	H 	0.49330 0.20510 0.30770 0.00500
C 	C 	0.62160 0.31160 0.25810 0.01100
C 	C 	0.64430 0.29090 0.25740 -0.07800
H 	H 	0.62880 0.26130 0.25640 0.05700
C 	C 	0.93930 0.71210 0.19110 0.24200
C 	C 	0.97820 0.73460 0.22510 -0.06300
C 	C 	0.98030 0.72960 0.27790 -0.05400
H 	H 	0.95640 0.70900 0.29710 0.05800
C 	C 	0.01850 0.75500 0.30750 0.05400
H 	H 	0.02120 0.74640 0.34360 0.00400
C 	C 	0.04510 0.79240 0.23360 -0.12000
H 	H 	0.06610 0.81670 0.21570 0.06400
C 	C 	0.05150 0.79100 0.28650 0.03000
C 	C 	0.01460 0.76620 0.19950 0.05000
C 	C 	0.09020 0.82220 0.31720 0.04500
C 	C 	0.09440 0.81650 0.37390 -0.10500
H 	H 	0.07270 0.79290 0.39220 0.06300
C 	C 	0.13080 0.84540 0.40520 0.03200
C 	C 	0.16080 0.88090 0.37650 -0.10400
H 	H 	0.18520 0.90050 0.39600 0.06500
C 	C 	0.15700 0.88880 0.32250 0.04200
C 	C 	0.12140 0.85770 0.29250 -0.10900
H 	H 	0.11930 0.86180 0.25400 0.06600
C 	C 	0.13680 0.83930 0.46740 0.07500
C 	C 	0.12040 0.79760 0.48850 -0.15300
H 	H 	0.10830 0.77390 0.46500 0.08700
C 	C 	0.12350 0.79430 0.54750 0.09100
H 	H 	0.11210 0.76710 0.56270 0.01300
C 	C 	0.14160 0.82730 0.58310 -0.17100
C 	C 	0.15710 0.86640 0.55950 0.09400
H 	H 	0.17000 0.88990 0.58330 0.01000
C 	C 	0.15500 0.87360 0.50310 -0.15900
H 	H 	0.16560 0.90110 0.48930 0.08600
C 	C 	0.13980 0.82110 0.64580 0.42000
C 	C 	0.18830 0.92880 0.29510 0.05400
C 	C 	0.23190 0.94740 0.30850 -0.14300
H 	H 	0.24090 0.93340 0.33290 0.07800
C 	C 	0.26060 0.98540 0.28630 0.08200
H 	H 	0.28920 0.99730 0.29590 0.00700
C 	C 	0.24760 0.00830 0.24710 -0.18600
C 	C 	0.20490 0.99010 0.23370 0.08200
H 	H 	0.19610 0.00450 0.20950 0.01900
C 	C 	0.17430 0.95030 0.25600 -0.13000
H 	H 	0.14570 0.93790 0.24580 0.07600
C 	C 	0.27820 0.05100 0.22930 0.49000
C 	C 	0.38820 0.12200 0.14100 0.12500
C 	C 	0.41740 0.11340 0.10400 -0.02800
C 	C 	0.42310 0.11870 0.05100 0.03600
C 	C 	0.44360 0.09870 0.01930 -0.14100
C 	C 	0.45310 0.06330 0.10820 0.00200
H 	H 	0.41430 0.13550 0.03190 0.03100
H 	H 	0.44740 0.10300 0.98040 0.07400
H 	H 	0.46170 0.04630 0.12700 0.02100
In	In	0.03230 0.46105 0.59348 2.00700
Cu	Cu	0.96526 0.45624 0.48765 0.93100
O 	O 	0.00115 0.49153 0.55353 -0.62200
O 	O 	0.08837 0.56373 0.54873 -0.47700
O 	O 	0.08737 0.51703 0.61083 -0.58600
O 	O 	0.98167 0.40033 0.58123 -0.61200
O 	O 	0.93347 0.40363 0.53003 -0.43800
O 	O 	0.57547 0.00973 0.54583 -0.34300
O 	O 	0.82237 0.18633 0.00983 -0.31100
O 	O 	0.60167 0.06023 0.48013 -0.60500
O 	O 	0.79467 0.11693 0.99453 -0.58700
C 	C 	0.10417 0.55193 0.58163 0.46900
C 	C 	0.15367 0.57813 0.58783 -0.16700
C 	C 	0.17447 0.61423 0.55903 0.08900
H 	H 	0.15947 0.62393 0.53753 0.01900
C 	C 	0.21887 0.63763 0.56123 -0.15400
H 	H 	0.23357 0.66373 0.54263 0.08400
C 	C 	0.24087 0.62193 0.59093 0.08400
C 	C 	0.21837 0.58553 0.62223 -0.16500
H 	H 	0.23287 0.57583 0.64483 0.08900
C 	C 	0.17507 0.56343 0.62033 0.09700
H 	H 	0.15997 0.53843 0.64103 0.00500
C 	C 	0.28827 0.64493 0.59143 0.01100
C 	C 	0.31097 0.62423 0.59073 -0.07800
H 	H 	0.29547 0.59463 0.58973 0.05700
C 	C 	0.60597 0.04543 0.52443 0.24200
C 	C 	0.64487 0.06793 0.55843 -0.06200
C 	C 	0.64697 0.06293 0.61123 -0.05400
H 	H 	0.62307 0.04233 0.63043 0.05800
C 	C 	0.68517 0.08833 0.64083 0.05400
H 	H 	0.68787 0.07973 0.67693 0.00500
C 	C 	0.71177 0.12573 0.56693 -0.12000
H 	H 	0.73277 0.15003 0.54903 0.06400
C 	C 	0.71817 0.12433 0.61983 0.03000
C 	C 	0.68127 0.09953 0.53283 0.05000
C 	C 	0.75687 0.15553 0.65053 0.04500
C 	C 	0.76107 0.14983 0.70723 -0.10600
H 	H 	0.73937 0.12623 0.72553 0.06300
C 	C 	0.79747 0.17873 0.73853 0.03200
C 	C 	0.82747 0.21423 0.70983 -0.10400
H 	H 	0.85187 0.23383 0.72933 0.06500
C 	C 	0.82367 0.22213 0.65583 0.04200
C 	C 	0.78807 0.19103 0.62583 -0.11000
H 	H 	0.78597 0.19513 0.58733 0.06600
C 	C 	0.80347 0.17263 0.80073 0.07500
C 	C 	0.78707 0.13093 0.82183 -0.15300
H 	H 	0.77497 0.10723 0.79833 0.08700
C 	C 	0.79017 0.12763 0.88083 0.09100
H 	H 	0.77877 0.10043 0.89603 0.01300
C 	C 	0.80827 0.16063 0.91643 -0.17100
C 	C 	0.82377 0.19973 0.89283 0.09500
H 	H 	0.83667 0.22323 0.91663 0.01000
C 	C 	0.82167 0.20693 0.83643 -0.15900
H 	H 	0.83227 0.23443 0.82263 0.08600
C 	C 	0.80647 0.15443 0.97913 0.42000
C 	C 	0.85497 0.26213 0.62843 0.05300
C 	C 	0.89857 0.28073 0.64183 -0.14200
H 	H 	0.90757 0.26673 0.66623 0.07800
C 	C 	0.92727 0.31873 0.61963 0.08200
H 	H 	0.95587 0.33063 0.62923 0.00700
C 	C 	0.91427 0.34163 0.58043 -0.18500
C 	C 	0.87157 0.32343 0.56703 0.08100
H 	H 	0.86277 0.33783 0.54283 0.01900
C 	C 	0.84097 0.28363 0.58933 -0.13000
H 	H 	0.81237 0.27123 0.57913 0.07600
C 	C 	0.94487 0.38433 0.56263 0.49000
C 	C 	0.05487 0.45533 0.47433 0.12500
C 	C 	0.08407 0.44673 0.43733 -0.02800
C 	C 	0.08977 0.45203 0.38433 0.03600
C 	C 	0.11027 0.43203 0.35263 -0.14100
C 	C 	0.11977 0.39663 0.44153 0.00200
H 	H 	0.08097 0.46883 0.36523 0.03100
H 	H 	0.11407 0.43633 0.31373 0.07400
H 	H 	0.12837 0.37963 0.46033 0.02100
In	In	0.69896 0.79439 0.92682 2.00700
Cu	Cu	0.63192 0.78958 0.82099 0.93100
O 	O 	0.66781 0.82487 0.88687 -0.62200
O 	O 	0.75503 0.89707 0.88207 -0.47700
O 	O 	0.75403 0.85037 0.94417 -0.58600
O 	O 	0.64833 0.73367 0.91457 -0.61200
O 	O 	0.60013 0.73697 0.86337 -0.43800
O 	O 	0.24213 0.34307 0.87917 -0.34300
O 	O 	0.48903 0.51967 0.34317 -0.31000
O 	O 	0.26833 0.39357 0.81347 -0.60500
O 	O 	0.46133 0.45027 0.32787 -0.58700
C 	C 	0.77083 0.88527 0.91497 0.46900
C 	C 	0.82033 0.91147 0.92117 -0.16700
C 	C 	0.84113 0.94757 0.89237 0.09000
H 	H 	0.82613 0.95727 0.87087 0.01900
C 	C 	0.88553 0.97097 0.89457 -0.15400
H 	H 	0.90023 0.99707 0.87597 0.08400
C 	C 	0.90753 0.95527 0.92427 0.08400
C 	C 	0.88503 0.91887 0.95557 -0.16500
H 	H 	0.89953 0.90917 0.97817 0.08900
C 	C 	0.84173 0.89677 0.95367 0.09700
H 	H 	0.82663 0.87177 0.97437 0.00500
C 	C 	0.95493 0.97827 0.92477 0.01000
C 	C 	0.97763 0.95757 0.92407 -0.07700
H 	H 	0.96213 0.92797 0.92307 0.05700
C 	C 	0.27263 0.37877 0.85777 0.24200
C 	C 	0.31153 0.40127 0.89177 -0.06300
C 	C 	0.31363 0.39627 0.94457 -0.05400
H 	H 	0.28973 0.37567 0.96377 0.05800
C 	C 	0.35183 0.42167 0.97417 0.05400
H 	H 	0.35453 0.41307 0.01027 0.00400
C 	C 	0.37843 0.45907 0.90027 -0.12000
H 	H 	0.39943 0.48337 0.88237 0.06400
C 	C 	0.38483 0.45767 0.95317 0.03000
C 	C 	0.34793 0.43287 0.86617 0.05000
C 	C 	0.42353 0.48887 0.98387 0.04500
C 	C 	0.42773 0.48317 0.04057 -0.10500
H 	H 	0.40603 0.45957 0.05887 0.06300
C 	C 	0.46413 0.51207 0.07187 0.03200
C 	C 	0.49413 0.54757 0.04317 -0.10400
H 	H 	0.51853 0.56717 0.06267 0.06500
C 	C 	0.49033 0.55547 0.98917 0.04200
C 	C 	0.45473 0.52437 0.95917 -0.10900
H 	H 	0.45263 0.52847 0.92067 0.06600
C 	C 	0.47013 0.50597 0.13407 0.07500
C 	C 	0.45373 0.46427 0.15517 -0.15300
H 	H 	0.44163 0.44057 0.13167 0.08700
C 	C 	0.45683 0.46097 0.21417 0.09100
H 	H 	0.44543 0.43377 0.22937 0.01300
C 	C 	0.47493 0.49397 0.24977 -0.17100
C 	C 	0.49043 0.53307 0.22617 0.09400
H 	H 	0.50333 0.55657 0.24997 0.01000
C 	C 	0.48833 0.54027 0.16977 -0.15900
H 	H 	0.49893 0.56777 0.15597 0.08600
C 	C 	0.47313 0.48777 0.31247 0.42000
C 	C 	0.52163 0.59547 0.96177 0.05300
C 	C 	0.56523 0.61407 0.97517 -0.14200
H 	H 	0.57423 0.60007 0.99957 0.07800
C 	C 	0.59393 0.65207 0.95297 0.08200
H 	H 	0.62253 0.66397 0.96257 0.00700
C 	C 	0.58093 0.67497 0.91377 -0.18500
C 	C 	0.53823 0.65677 0.90037 0.08100
H 	H 	0.52943 0.67117 0.87617 0.01900
C 	C 	0.50763 0.61697 0.92267 -0.13000
H 	H 	0.47903 0.60457 0.91247 0.07600
C 	C 	0.61153 0.71767 0.89597 0.49000
C 	C 	0.72153 0.78867 0.80767 0.12500
C 	C 	0.75073 0.78007 0.77067 -0.02800
C 	C 	0.75643 0.78537 0.71767 0.03600
C 	C 	0.77693 0.76537 0.68597 -0.14100
C 	C 	0.78643 0.72997 0.77487 0.00200
H 	H 	0.74763 0.80217 0.69857 0.03100
H 	H 	0.78073 0.76967 0.64707 0.07400
H 	H 	0.79503 0.71297 0.79367 0.02100
In	In	0.87228 0.23791 0.26015 2.00700
Cu	Cu	0.87709 0.17568 0.15432 0.93100
O 	O 	0.84180 0.17628 0.22020 -0.62200
O 	O 	0.76960 0.19130 0.21540 -0.47700
O 	O 	0.81630 0.23700 0.27750 -0.58600
O 	O 	0.93300 0.24800 0.24790 -0.61200
O 	O 	0.92970 0.19650 0.19670 -0.43800
O 	O 	0.32360 0.23240 0.21250 -0.34300
O 	O 	0.14700 0.30270 0.67650 -0.31000
O 	O 	0.27310 0.20810 0.14680 -0.60500
O 	O 	0.21640 0.34440 0.66120 -0.58700
C 	C 	0.78140 0.21890 0.24830 0.46900
C 	C 	0.75520 0.24220 0.25450 -0.16700
C 	C 	0.71910 0.22690 0.22570 0.08900
H 	H 	0.70940 0.20220 0.20420 0.01900
C 	C 	0.69570 0.24790 0.22790 -0.15400
H 	H 	0.66960 0.23650 0.20930 0.08400
C 	C 	0.71140 0.28560 0.25760 0.08400
C 	C 	0.74780 0.29950 0.28890 -0.16500
H 	H 	0.75750 0.32370 0.31150 0.08900
C 	C 	0.76990 0.27830 0.28700 0.09700
H 	H 	0.79490 0.28820 0.30770 0.00500
C 	C 	0.68840 0.31000 0.25810 0.01100
C 	C 	0.70910 0.35340 0.25740 -0.07800
H 	H 	0.73870 0.36750 0.25640 0.05700
C 	C 	0.28790 0.22720 0.19110 0.24200
C 	C 	0.26540 0.24360 0.22510 -0.06200
C 	C 	0.27040 0.25070 0.27790 -0.05400
H 	H 	0.29100 0.24740 0.29710 0.05800
C 	C 	0.24500 0.26350 0.30750 0.05400
H 	H 	0.25360 0.27480 0.34360 0.00500
C 	C 	0.20760 0.25270 0.23360 -0.12000
H 	H 	0.18330 0.24940 0.21570 0.06400
C 	C 	0.20900 0.26050 0.28650 0.03000
C 	C 	0.23380 0.24840 0.19950 0.05000
C 	C 	0.17780 0.26800 0.31720 0.04500
C 	C 	0.18350 0.27790 0.37390 -0.10500
H 	H 	0.20710 0.27980 0.39220 0.06300
C 	C 	0.15460 0.28540 0.40520 0.03200
C 	C 	0.11910 0.27990 0.37650 -0.10400
H 	H 	0.09950 0.28470 0.39600 0.06500
C 	C 	0.11120 0.26820 0.32250 0.04200
C 	C 	0.14230 0.26370 0.29250 -0.10900
H 	H 	0.13820 0.25750 0.25400 0.06600
C 	C 	0.16070 0.29750 0.46740 0.07500
C 	C 	0.20240 0.32280 0.48850 -0.15300
H 	H 	0.22610 0.33440 0.46500 0.08700
C 	C 	0.20570 0.32920 0.54750 0.09100
H 	H 	0.23290 0.34500 0.56270 0.01300
C 	C 	0.17270 0.31430 0.58310 -0.17100
C 	C 	0.13360 0.29070 0.55950 0.09400
H 	H 	0.11010 0.28010 0.58330 0.01000
C 	C 	0.12640 0.28140 0.50310 -0.15900
H 	H 	0.09890 0.26450 0.48930 0.08600
C 	C 	0.17890 0.31870 0.64580 0.42000
C 	C 	0.07120 0.25950 0.29510 0.05400
C 	C 	0.05260 0.28450 0.30850 -0.14300
H 	H 	0.06660 0.30750 0.33290 0.07800
C 	C 	0.01460 0.27520 0.28630 0.08200
H 	H 	0.00270 0.29190 0.29590 0.00700
C 	C 	0.99170 0.23930 0.24710 -0.18600
C 	C 	0.00990 0.21480 0.23370 0.08200
H 	H 	0.99550 0.19160 0.20950 0.01800
C 	C 	0.04970 0.22400 0.25600 -0.13000
H 	H 	0.06210 0.20780 0.24580 0.07600
C 	C 	0.94900 0.22720 0.22930 0.49000
C 	C 	0.87800 0.26620 0.14100 0.12500
C 	C 	0.88660 0.30400 0.10400 -0.02800
C 	C 	0.88130 0.30440 0.05100 0.03600
C 	C 	0.90130 0.34490 0.01930 -0.14200
C 	C 	0.93670 0.38980 0.10820 0.00200
H 	H 	0.86450 0.27880 0.03190 0.03100
H 	H 	0.89700 0.34440 0.98040 0.07400
H 	H 	0.95370 0.41540 0.12700 0.02100
In	In	0.53895 0.57124 0.59348 2.00700
Cu	Cu	0.54376 0.50901 0.48765 0.93100
O 	O 	0.50847 0.50961 0.55353 -0.62200
O 	O 	0.43627 0.52463 0.54873 -0.47700
O 	O 	0.48297 0.57033 0.61083 -0.58600
O 	O 	0.59967 0.58133 0.58123 -0.61200
O 	O 	0.59637 0.52983 0.53003 -0.43800
O 	O 	0.99027 0.56573 0.54583 -0.34300
O 	O 	0.81367 0.63603 0.00983 -0.31000
O 	O 	0.93977 0.54143 0.48013 -0.60500
O 	O 	0.88307 0.67773 0.99453 -0.58700
C 	C 	0.44807 0.55223 0.58163 0.46900
C 	C 	0.42187 0.57553 0.58783 -0.16700
C 	C 	0.38577 0.56023 0.55903 0.08900
H 	H 	0.37607 0.53553 0.53753 0.01900
C 	C 	0.36237 0.58123 0.56123 -0.15400
H 	H 	0.33627 0.56983 0.54263 0.08400
C 	C 	0.37807 0.61893 0.59093 0.08400
C 	C 	0.41447 0.63283 0.62223 -0.16500
H 	H 	0.42417 0.65703 0.64483 0.08900
C 	C 	0.43657 0.61163 0.62033 0.09700
H 	H 	0.46157 0.62153 0.64103 0.00500
C 	C 	0.35507 0.64333 0.59143 0.01100
C 	C 	0.37577 0.68673 0.59073 -0.07800
H 	H 	0.40537 0.70083 0.58973 0.05700
C 	C 	0.95457 0.56053 0.52443 0.24100
C 	C 	0.93207 0.57693 0.55843 -0.06200
C 	C 	0.93707 0.58403 0.61123 -0.05400
H 	H 	0.95767 0.58073 0.63043 0.05800
C 	C 	0.91167 0.59683 0.64083 0.05400
H 	H 	0.92027 0.60813 0.67693 0.00400
C 	C 	0.87427 0.58603 0.56693 -0.12000
H 	H 	0.84997 0.58273 0.54903 0.06400
C 	C 	0.87567 0.59383 0.61983 0.03000
C 	C 	0.90047 0.58173 0.53283 0.05000
C 	C 	0.84447 0.60133 0.65053 0.04500
C 	C 	0.85017 0.61123 0.70723 -0.10500
H 	H 	0.87377 0.61313 0.72553 0.06300
C 	C 	0.82127 0.61873 0.73853 0.03200
C 	C 	0.78577 0.61323 0.70983 -0.10400
H 	H 	0.76617 0.61803 0.72933 0.06500
C 	C 	0.77787 0.60153 0.65583 0.04200
C 	C 	0.80897 0.59703 0.62583 -0.11000
H 	H 	0.80487 0.59083 0.58733 0.06600
C 	C 	0.82737 0.63083 0.80073 0.07500
C 	C 	0.86907 0.65613 0.82183 -0.15300
H 	H 	0.89277 0.66773 0.79833 0.08700
C 	C 	0.87237 0.66253 0.88083 0.09100
H 	H 	0.89957 0.67833 0.89603 0.01300
C 	C 	0.83937 0.64763 0.91643 -0.17100
C 	C 	0.80027 0.62403 0.89283 0.09400
H 	H 	0.77677 0.61343 0.91663 0.01000
C 	C 	0.79307 0.61473 0.83643 -0.15900
H 	H 	0.76557 0.59783 0.82263 0.08600
C 	C 	0.84557 0.65203 0.97913 0.42000
C 	C 	0.73787 0.59283 0.62843 0.05300
C 	C 	0.71927 0.61783 0.64183 -0.14200
H 	H 	0.73327 0.64083 0.66623 0.07800
C 	C 	0.68127 0.60853 0.61963 0.08200
H 	H 	0.66937 0.62523 0.62923 0.00700
C 	C 	0.65837 0.57263 0.58043 -0.18500
C 	C 	0.67657 0.54813 0.56703 0.08100
H 	H 	0.66217 0.52493 0.54283 0.01900
C 	C 	0.71637 0.55733 0.58933 -0.13000
H 	H 	0.72877 0.54113 0.57913 0.07600
C 	C 	0.61567 0.56053 0.56263 0.49000
C 	C 	0.54467 0.59953 0.47433 0.12500
C 	C 	0.55327 0.63733 0.43733 -0.02800
C 	C 	0.54797 0.63773 0.38433 0.03600
C 	C 	0.56797 0.67823 0.35263 -0.14100
C 	C 	0.60337 0.72313 0.44153 0.00200
H 	H 	0.53117 0.61213 0.36523 0.03100
H 	H 	0.56367 0.67773 0.31373 0.07400
H 	H 	0.62037 0.74873 0.46033 0.02100
In	In	0.20561 0.90458 0.92682 2.00700
Cu	Cu	0.21042 0.84235 0.82099 0.93100
O 	O 	0.17513 0.84295 0.88687 -0.62200
O 	O 	0.10293 0.85797 0.88207 -0.47700
O 	O 	0.14963 0.90367 0.94417 -0.58600
O 	O 	0.26633 0.91467 0.91457 -0.61200
O 	O 	0.26303 0.86317 0.86337 -0.43800
O 	O 	0.65693 0.89907 0.87917 -0.34300
O 	O 	0.48033 0.96937 0.34317 -0.31000
O 	O 	0.60643 0.87477 0.81347 -0.60500
O 	O 	0.54973 0.01107 0.32787 -0.58700
C 	C 	0.11473 0.88557 0.91497 0.46900
C 	C 	0.08853 0.90887 0.92117 -0.16700
C 	C 	0.05243 0.89357 0.89237 0.09000
H 	H 	0.04273 0.86887 0.87087 0.01900
C 	C 	0.02903 0.91457 0.89457 -0.15400
H 	H 	0.00293 0.90317 0.87597 0.08400
C 	C 	0.04473 0.95227 0.92427 0.08400
C 	C 	0.08113 0.96617 0.95557 -0.16500
H 	H 	0.09083 0.99037 0.97817 0.08900
C 	C 	0.10323 0.94497 0.95367 0.09700
H 	H 	0.12823 0.95487 0.97437 0.00500
C 	C 	0.02173 0.97667 0.92477 0.01000
C 	C 	0.04243 0.02007 0.92407 -0.07700
H 	H 	0.07203 0.03417 0.92307 0.05700
C 	C 	0.62123 0.89387 0.85777 0.24200
C 	C 	0.59873 0.91027 0.89177 -0.06200
C 	C 	0.60373 0.91737 0.94457 -0.05400
H 	H 	0.62433 0.91407 0.96377 0.05800
C 	C 	0.57833 0.93017 0.97417 0.05400
H 	H 	0.58693 0.94147 0.01027 0.00500
C 	C 	0.54093 0.91937 0.90027 -0.12000
H 	H 	0.51663 0.91607 0.88237 0.06400
C 	C 	0.54233 0.92717 0.95317 0.03000
C 	C 	0.56713 0.91507 0.86617 0.05000
C 	C 	0.51113 0.93467 0.98387 0.04400
C 	C 	0.51683 0.94457 0.04057 -0.10500
H 	H 	0.54043 0.94647 0.05887 0.06300
C 	C 	0.48793 0.95207 0.07187 0.03100
C 	C 	0.45243 0.94657 0.04317 -0.10400
H 	H 	0.43283 0.95137 0.06267 0.06500
C 	C 	0.44453 0.93487 0.98917 0.04200
C 	C 	0.47563 0.93037 0.95917 -0.10900
H 	H 	0.47153 0.92417 0.92067 0.06600
C 	C 	0.49403 0.96417 0.13407 0.07500
C 	C 	0.53573 0.98947 0.15517 -0.15300
H 	H 	0.55943 0.00107 0.13167 0.08700
C 	C 	0.53903 0.99587 0.21417 0.09200
H 	H 	0.56623 0.01167 0.22937 0.01300
C 	C 	0.50603 0.98097 0.24977 -0.17100
C 	C 	0.46693 0.95737 0.22617 0.09500
H 	H 	0.44343 0.94677 0.24997 0.01000
C 	C 	0.45973 0.94807 0.16977 -0.16000
H 	H 	0.43223 0.93117 0.15597 0.08600
C 	C 	0.51223 0.98537 0.31247 0.42000
C 	C 	0.40453 0.92617 0.96177 0.05400
C 	C 	0.38593 0.95117 0.97517 -0.14300
H 	H 	0.39993 0.97417 0.99957 0.07800
C 	C 	0.34793 0.94187 0.95297 0.08200
H 	H 	0.33603 0.95857 0.96257 0.00700
C 	C 	0.32503 0.90597 0.91377 -0.18600
C 	C 	0.34323 0.88147 0.90037 0.08100
H 	H 	0.32883 0.85827 0.87617 0.01900
C 	C 	0.38303 0.89067 0.92267 -0.13000
H 	H 	0.39543 0.87447 0.91247 0.07600
C 	C 	0.28233 0.89387 0.89597 0.49000
C 	C 	0.21133 0.93287 0.80767 0.12500
C 	C 	0.21993 0.97067 0.77067 -0.02800
C 	C 	0.21463 0.97107 0.71767 0.03600
C 	C 	0.23463 0.01157 0.68597 -0.14100
C 	C 	0.27003 0.05647 0.77487 0.00200
H 	H 	0.19783 0.94547 0.69857 0.03100
H 	H 	0.23033 0.01107 0.64707 0.07400
H 	H 	0.28703 0.08207 0.79367 0.02100
In	In	0.76209 0.63437 0.26015 2.00700
Cu	Cu	0.82432 0.70141 0.15432 0.93100
O 	O 	0.82372 0.66552 0.22020 -0.62200
O 	O 	0.80870 0.57830 0.21540 -0.47700
O 	O 	0.76300 0.57930 0.27750 -0.58600
O 	O 	0.75200 0.68500 0.24790 -0.61200
O 	O 	0.80350 0.73320 0.19670 -0.43800
O 	O 	0.76760 0.09120 0.21250 -0.34300
O 	O 	0.69730 0.84430 0.67650 -0.31000
O 	O 	0.79190 0.06500 0.14680 -0.60500
O 	O 	0.65560 0.87200 0.66120 -0.58700
C 	C 	0.78110 0.56250 0.24830 0.46900
C 	C 	0.75780 0.51300 0.25450 -0.16700
C 	C 	0.77310 0.49220 0.22570 0.08900
H 	H 	0.79780 0.50720 0.20420 0.01900
C 	C 	0.75210 0.44780 0.22790 -0.15400
H 	H 	0.76350 0.43310 0.20930 0.08400
C 	C 	0.71440 0.42580 0.25760 0.08400
C 	C 	0.70050 0.44830 0.28890 -0.16500
H 	H 	0.67630 0.43380 0.31150 0.08900
C 	C 	0.72170 0.49160 0.28700 0.09700
H 	H 	0.71180 0.50670 0.30770 0.00500
C 	C 	0.69000 0.37840 0.25810 0.01100
C 	C 	0.64660 0.35570 0.25740 -0.07800
H 	H 	0.63250 0.37120 0.25640 0.05700
C 	C 	0.77280 0.06070 0.19110 0.24200
C 	C 	0.75640 0.02180 0.22510 -0.06200
C 	C 	0.74930 0.01970 0.27790 -0.05400
H 	H 	0.75260 0.04360 0.29710 0.05800
C 	C 	0.73650 0.98150 0.30750 0.05400
H 	H 	0.72520 0.97880 0.34360 0.00400
C 	C 	0.74730 0.95490 0.23360 -0.12000
H 	H 	0.75060 0.93390 0.21570 0.06400
C 	C 	0.73950 0.94850 0.28650 0.03000
C 	C 	0.75160 0.98540 0.19950 0.05000
C 	C 	0.73200 0.90980 0.31720 0.04500
C 	C 	0.72210 0.90560 0.37390 -0.10600
H 	H 	0.72020 0.92730 0.39220 0.06300
C 	C 	0.71460 0.86920 0.40520 0.03200
C 	C 	0.72010 0.83920 0.37650 -0.10400
H 	H 	0.71530 0.81480 0.39600 0.06500
C 	C 	0.73180 0.84300 0.32250 0.04200
C 	C 	0.73630 0.87860 0.29250 -0.11000
H 	H 	0.74250 0.88070 0.25400 0.06600
C 	C 	0.70250 0.86320 0.46740 0.07500
C 	C 	0.67720 0.87960 0.48850 -0.15300
H 	H 	0.66560 0.89170 0.46500 0.08700
C 	C 	0.67080 0.87650 0.54750 0.09100
H 	H 	0.65500 0.88790 0.56270 0.01300
C 	C 	0.68570 0.85840 0.58310 -0.17100
C 	C 	0.70930 0.84290 0.55950 0.09400
H 	H 	0.71990 0.83000 0.58330 0.01000
C 	C 	0.71860 0.84500 0.50310 -0.15900
H 	H 	0.73550 0.83440 0.48930 0.08600
C 	C 	0.68130 0.86020 0.64580 0.42000
C 	C 	0.74050 0.81170 0.29510 0.05300
C 	C 	0.71550 0.76810 0.30850 -0.14200
H 	H 	0.69250 0.75910 0.33290 0.07800
C 	C 	0.72480 0.73940 0.28630 0.08200
H 	H 	0.70810 0.71080 0.29590 0.00700
C 	C 	0.76070 0.75240 0.24710 -0.18500
C 	C 	0.78520 0.79510 0.23370 0.08100
H 	H 	0.80840 0.80390 0.20950 0.01900
C 	C 	0.77600 0.82570 0.25600 -0.13000
H 	H 	0.79220 0.85430 0.24580 0.07600
C 	C 	0.77280 0.72180 0.22930 0.49000
C 	C 	0.73380 0.61180 0.14100 0.12500
C 	C 	0.69600 0.58260 0.10400 -0.02800
C 	C 	0.69560 0.57690 0.05100 0.03600
C 	C 	0.65510 0.55640 0.01930 -0.14100
C 	C 	0.61020 0.54690 0.10820 0.00200
H 	H 	0.72120 0.58570 0.03190 0.03100
H 	H 	0.65560 0.55260 0.98040 0.07400
H 	H 	0.58460 0.53830 0.12700 0.02100
In	In	0.42876 0.96770 0.59348 2.00700
Cu	Cu	0.49099 0.03474 0.48765 0.93100
O 	O 	0.49039 0.99885 0.55353 -0.62200
O 	O 	0.47537 0.91163 0.54873 -0.47700
O 	O 	0.42967 0.91263 0.61083 -0.58600
O 	O 	0.41867 0.01833 0.58123 -0.61200
O 	O 	0.47017 0.06653 0.53003 -0.43800
O 	O 	0.43427 0.42453 0.54583 -0.34300
O 	O 	0.36397 0.17763 0.00983 -0.31000
O 	O 	0.45857 0.39833 0.48013 -0.60400
O 	O 	0.32227 0.20533 0.99453 -0.58700
C 	C 	0.44777 0.89583 0.58163 0.46900
C 	C 	0.42447 0.84633 0.58783 -0.16700
C 	C 	0.43977 0.82553 0.55903 0.08900
H 	H 	0.46447 0.84053 0.53753 0.01900
C 	C 	0.41877 0.78113 0.56123 -0.15400
H 	H 	0.43017 0.76643 0.54263 0.08400
C 	C 	0.38107 0.75913 0.59093 0.08400
C 	C 	0.36717 0.78163 0.62223 -0.16500
H 	H 	0.34297 0.76713 0.64483 0.08900
C 	C 	0.38837 0.82493 0.62033 0.09700
H 	H 	0.37847 0.84003 0.64103 0.00500
C 	C 	0.35667 0.71173 0.59143 0.01100
C 	C 	0.31327 0.68903 0.59073 -0.07800
H 	H 	0.29917 0.70453 0.58973 0.05700
C 	C 	0.43947 0.39403 0.52443 0.24100
C 	C 	0.42307 0.35513 0.55843 -0.06200
C 	C 	0.41597 0.35303 0.61123 -0.05400
H 	H 	0.41927 0.37693 0.63043 0.05800
C 	C 	0.40317 0.31483 0.64083 0.05400
H 	H 	0.39187 0.31213 0.67693 0.00500
C 	C 	0.41397 0.28823 0.56693 -0.12000
H 	H 	0.41727 0.26723 0.54903 0.06400
C 	C 	0.40617 0.28183 0.61983 0.03000
C 	C 	0.41827 0.31873 0.53283 0.05000
C 	C 	0.39867 0.24313 0.65053 0.04500
C 	C 	0.38877 0.23893 0.70723 -0.10600
H 	H 	0.38687 0.26063 0.72553 0.06300
C 	C 	0.38127 0.20253 0.73853 0.03200
C 	C 	0.38677 0.17253 0.70983 -0.10400
H 	H 	0.38197 0.14813 0.72933 0.06500
C 	C 	0.39847 0.17633 0.65583 0.04200
C 	C 	0.40297 0.21193 0.62583 -0.11000
H 	H 	0.40917 0.21403 0.58733 0.06600
C 	C 	0.36917 0.19653 0.80073 0.07500
C 	C 	0.34387 0.21293 0.82183 -0.15300
H 	H 	0.33227 0.22503 0.79833 0.08700
C 	C 	0.33747 0.20983 0.88083 0.09100
H 	H 	0.32167 0.22123 0.89603 0.01300
C 	C 	0.35237 0.19173 0.91643 -0.17100
C 	C 	0.37597 0.17623 0.89283 0.09400
H 	H 	0.38657 0.16333 0.91663 0.01000
C 	C 	0.38527 0.17833 0.83643 -0.15900
H 	H 	0.40217 0.16773 0.82263 0.08600
C 	C 	0.34797 0.19353 0.97913 0.42000
C 	C 	0.40717 0.14503 0.62843 0.05300
C 	C 	0.38217 0.10143 0.64183 -0.14200
H 	H 	0.35917 0.09243 0.66623 0.07800
C 	C 	0.39147 0.07273 0.61963 0.08200
H 	H 	0.37477 0.04413 0.62923 0.00700
C 	C 	0.42737 0.08573 0.58043 -0.18500
C 	C 	0.45187 0.12843 0.56703 0.08100
H 	H 	0.47507 0.13723 0.54283 0.01900
C 	C 	0.44267 0.15903 0.58933 -0.13000
H 	H 	0.45887 0.18763 0.57913 0.07600
C 	C 	0.43947 0.05513 0.56263 0.49000
C 	C 	0.40047 0.94513 0.47433 0.12500
C 	C 	0.36267 0.91593 0.43733 -0.02800
C 	C 	0.36227 0.91023 0.38433 0.03600
C 	C 	0.32177 0.88973 0.35263 -0.14100
C 	C 	0.27687 0.88023 0.44153 0.00200
H 	H 	0.38787 0.91903 0.36523 0.03100
H 	H 	0.32227 0.88593 0.31373 0.07400
H 	H 	0.25127 0.87163 0.46033 0.02100
In	In	0.09542 0.30104 0.92682 2.00700
Cu	Cu	0.15765 0.36808 0.82099 0.93100
O 	O 	0.15705 0.33219 0.88687 -0.62200
O 	O 	0.14203 0.24497 0.88207 -0.47700
O 	O 	0.09633 0.24597 0.94417 -0.58600
O 	O 	0.08533 0.35167 0.91457 -0.61200
O 	O 	0.13683 0.39987 0.86337 -0.43800
O 	O 	0.10093 0.75787 0.87917 -0.34300
O 	O 	0.03063 0.51097 0.34317 -0.31000
O 	O 	0.12523 0.73167 0.81347 -0.60500
O 	O 	0.98893 0.53867 0.32787 -0.58700
C 	C 	0.11443 0.22917 0.91497 0.46900
C 	C 	0.09113 0.17967 0.92117 -0.16700
C 	C 	0.10643 0.15887 0.89237 0.09000
H 	H 	0.13113 0.17387 0.87087 0.01900
C 	C 	0.08543 0.11447 0.89457 -0.15400
H 	H 	0.09683 0.09977 0.87597 0.08400
C 	C 	0.04773 0.09247 0.92427 0.08400
C 	C 	0.03383 0.11497 0.95557 -0.16500
H 	H 	0.00963 0.10047 0.97817 0.08900
C 	C 	0.05503 0.15827 0.95367 0.09700
H 	H 	0.04513 0.17337 0.97437 0.00500
C 	C 	0.02333 0.04507 0.92477 0.01000
C 	C 	0.97993 0.02237 0.92407 -0.07700
H 	H 	0.96583 0.03787 0.92307 0.05700
C 	C 	0.10613 0.72737 0.85777 0.24200
C 	C 	0.08973 0.68847 0.89177 -0.06200
C 	C 	0.08263 0.68637 0.94457 -0.05400
H 	H 	0.08593 0.71027 0.96377 0.05800
C 	C 	0.06983 0.64817 0.97417 0.05400
H 	H 	0.05853 0.64547 0.01027 0.00500
C 	C 	0.08063 0.62157 0.90027 -0.12000
H 	H 	0.08393 0.60057 0.88237 0.06400
C 	C 	0.07283 0.61517 0.95317 0.03000
C 	C 	0.08493 0.65207 0.86617 0.05000
C 	C 	0.06533 0.57647 0.98387 0.04400
C 	C 	0.05543 0.57227 0.04057 -0.10500
H 	H 	0.05353 0.59397 0.05887 0.06300
C 	C 	0.04793 0.53587 0.07187 0.03100
C 	C 	0.05343 0.50587 0.04317 -0.10400
H 	H 	0.04863 0.48147 0.06267 0.06500
C 	C 	0.06513 0.50967 0.98917 0.04200
C 	C 	0.06963 0.54527 0.95917 -0.10900
H 	H 	0.07583 0.54737 0.92067 0.06600
C 	C 	0.03583 0.52987 0.13407 0.07500
C 	C 	0.01053 0.54627 0.15517 -0.15300
H 	H 	0.99893 0.55837 0.13167 0.08700
C 	C 	0.00413 0.54317 0.21417 0.09200
H 	H 	0.98833 0.55457 0.22937 0.01300
C 	C 	0.01903 0.52507 0.24977 -0.17100
C 	C 	0.04263 0.50957 0.22617 0.09500
H 	H 	0.05323 0.49667 0.24997 0.01000
C 	C 	0.05193 0.51167 0.16977 -0.16000
H 	H 	0.06883 0.50107 0.15597 0.08600
C 	C 	0.01463 0.52687 0.31247 0.42000
C 	C 	0.07383 0.47837 0.96177 0.05400
C 	C 	0.04883 0.43477 0.97517 -0.14300
H 	H 	0.02583 0.42577 0.99957 0.07800
C 	C 	0.05813 0.40607 0.95297 0.08200
H 	H 	0.04143 0.37747 0.96257 0.00700
C 	C 	0.09403 0.41907 0.91377 -0.18600
C 	C 	0.11853 0.46177 0.90037 0.08100
H 	H 	0.14173 0.47057 0.87617 0.01900
C 	C 	0.10933 0.49237 0.92267 -0.13000
H 	H 	0.12553 0.52097 0.91247 0.07600
C 	C 	0.10613 0.38847 0.89597 0.49000
C 	C 	0.06713 0.27847 0.80767 0.12500
C 	C 	0.02933 0.24927 0.77067 -0.02800
C 	C 	0.02893 0.24357 0.71767 0.03600
C 	C 	0.98843 0.22307 0.68597 -0.14100
C 	C 	0.94353 0.21357 0.77487 0.00200
H 	H 	0.05453 0.25237 0.69857 0.03100
H 	H 	0.98893 0.21927 0.64707 0.07400
H 	H 	0.91793 0.20497 0.79367 0.02100
