data_crystal

_cell_length_a 7.87700
_cell_length_b 15.69300
_cell_length_c 11.20000
_cell_angle_alpha 90.00000
_cell_angle_beta  91.77000
_cell_angle_gamma 90.00000

_symmetry_space_group_name_	'P 1'
_symmetry_space_group_name_H-M	'P 1'

loop_
_symmetry_equiv_pos_as_xyz
  x,y,z

loop_
_atom_site_label
_atom_site_type_symbol
_atom_site_fract_x
_atom_site_fract_y
_atom_site_fract_z
_atom_site_charge
C 	C 	0.60170 0.24175 0.19930 -0.22700
C 	C 	0.75790 0.15132 0.36940 -0.26100
C 	C 	0.55200 0.07570 0.20550 -0.25000
C 	C 	0.74200 0.14054 0.03040 -0.21400
C 	C 	0.94040 0.21920 0.19780 -0.23100
C 	C 	0.60300 0.55035 0.29910 -0.25400
Co	Co	0.74849 0.14579 0.19996 1.16200
N 	N 	0.50830 0.29750 0.20420 -0.20400
N 	N 	0.76210 0.15672 0.47140 -0.20900
N 	N 	0.05740 0.26242 0.19720 -0.20000
N 	N 	0.74400 0.13645 0.92850 -0.19400
N 	N 	0.42880 0.03646 0.21170 -0.20200
N 	N 	0.50870 0.49461 0.30290 -0.18900
Sr	Sr	0.24904 0.40452 0.19587 1.47100
C 	C 	0.89830 0.74175 0.30070 -0.22700
C 	C 	0.74210 0.65132 0.13060 -0.26100
C 	C 	0.94800 0.57570 0.29450 -0.24700
C 	C 	0.75800 0.64054 0.46960 -0.21700
C 	C 	0.55960 0.71920 0.30220 -0.23300
C 	C 	0.89700 0.05035 0.20090 -0.25600
Co	Co	0.75151 0.64579 0.30004 1.16200
N 	N 	0.99170 0.79750 0.29580 -0.20300
N 	N 	0.73790 0.65672 0.02860 -0.20800
N 	N 	0.44260 0.76242 0.30280 -0.19900
N 	N 	0.75600 0.63645 0.57150 -0.19000
N 	N 	0.07120 0.53646 0.28830 -0.20500
N 	N 	0.99130 0.99461 0.19710 -0.18500
Sr	Sr	0.25096 0.90452 0.30413 1.47100
C 	C 	0.39830 0.75825 0.80070 -0.22700
C 	C 	0.24210 0.84868 0.63060 -0.26100
C 	C 	0.44800 0.92430 0.79450 -0.25000
C 	C 	0.25800 0.85946 0.96960 -0.21400
C 	C 	0.05960 0.78080 0.80220 -0.23100
C 	C 	0.39700 0.44965 0.70090 -0.25400
Co	Co	0.25151 0.85421 0.80004 1.16200
N 	N 	0.49170 0.70250 0.79580 -0.20400
N 	N 	0.23790 0.84328 0.52860 -0.20900
N 	N 	0.94260 0.73758 0.80280 -0.20000
N 	N 	0.25600 0.86355 0.07150 -0.19400
N 	N 	0.57120 0.96354 0.78830 -0.20200
N 	N 	0.49130 0.50539 0.69710 -0.18900
Sr	Sr	0.75096 0.59548 0.80413 1.47100
C 	C 	0.10170 0.25825 0.69930 -0.22700
C 	C 	0.25790 0.34868 0.86940 -0.26100
C 	C 	0.05200 0.42430 0.70550 -0.24700
C 	C 	0.24200 0.35946 0.53040 -0.21700
C 	C 	0.44040 0.28080 0.69780 -0.23300
C 	C 	0.10300 0.94965 0.79910 -0.25600
Co	Co	0.24849 0.35421 0.69996 1.16200
N 	N 	0.00830 0.20250 0.70420 -0.20300
N 	N 	0.26210 0.34328 0.97140 -0.20800
N 	N 	0.55740 0.23758 0.69720 -0.19900
N 	N 	0.24400 0.36355 0.42850 -0.19000
N 	N 	0.92880 0.46354 0.71170 -0.20500
N 	N 	0.00870 0.00539 0.80290 -0.18500
Sr	Sr	0.74904 0.09548 0.69587 1.47100
