data_crystal

_cell_length_a 6.79900
_cell_length_b 16.94600
_cell_length_c 12.74900
_cell_angle_alpha 90.00000
_cell_angle_beta  90.00000
_cell_angle_gamma 90.00000

_symmetry_space_group_name_	'P 1'
_symmetry_space_group_name_H-M	'P 1'

loop_
_symmetry_equiv_pos_as_xyz
  x,y,z

loop_
_atom_site_label
_atom_site_type_symbol
_atom_site_fract_x
_atom_site_fract_y
_atom_site_fract_z
_atom_site_charge
O 	O 	0.15600 0.83300 0.15800 -0.46600
C 	C 	0.80400 0.96400 0.02600 0.03100
O 	O 	0.65600 0.33300 0.65800 -0.46900
C 	C 	0.30400 0.46400 0.52600 0.03900
O 	O 	0.84400 0.66700 0.15800 -0.47500
C 	C 	0.19600 0.53600 0.02600 0.03700
O 	O 	0.34400 0.16700 0.65800 -0.46600
C 	C 	0.69600 0.03600 0.52600 0.03500
O 	O 	0.84400 0.33300 0.84200 -0.47500
C 	C 	0.19600 0.46400 0.97400 0.03700
O 	O 	0.34400 0.83300 0.34200 -0.46600
C 	C 	0.69600 0.96400 0.47400 0.03500
O 	O 	0.15600 0.16700 0.84200 -0.46700
C 	C 	0.80400 0.03600 0.97400 0.03000
O 	O 	0.65600 0.66700 0.34200 -0.46900
C 	C 	0.30400 0.53600 0.47400 0.03900
O 	O 	0.84400 0.16700 0.84200 -0.47500
C 	C 	0.19600 0.03600 0.97400 0.03700
O 	O 	0.34400 0.66700 0.34200 -0.46600
C 	C 	0.69600 0.53600 0.47400 0.03500
O 	O 	0.15600 0.33300 0.84200 -0.46700
C 	C 	0.80400 0.46400 0.97400 0.03000
O 	O 	0.65600 0.83300 0.34200 -0.46900
C 	C 	0.30400 0.96400 0.47400 0.03900
O 	O 	0.15600 0.66700 0.15800 -0.46700
C 	C 	0.80400 0.53600 0.02600 0.03000
O 	O 	0.65600 0.16700 0.65800 -0.46900
C 	C 	0.30400 0.03600 0.52600 0.03900
O 	O 	0.84400 0.83300 0.15800 -0.47500
C 	C 	0.19600 0.96400 0.02600 0.03700
O 	O 	0.34400 0.33300 0.65800 -0.46600
C 	C 	0.69600 0.46400 0.52600 0.03500
V 	V 	0.25000 0.75000 0.25000 1.83800
V 	V 	0.75000 0.75000 0.25000 1.83700
V 	V 	0.75000 0.25000 0.75000 1.83700
V 	V 	0.25000 0.25000 0.75000 1.83800
O 	O 	-0.00000 0.75000 0.30700 -0.64300
O 	O 	0.50000 0.25000 0.80700 -0.64900
O 	O 	0.00000 0.25000 0.69300 -0.64300
O 	O 	0.50000 0.75000 0.19300 -0.64900
C 	C 	0.00000 0.94000 0.04300 -0.09500
C 	C 	0.00000 0.87100 0.11700 0.37500
C 	C 	0.50000 0.44000 0.54300 -0.10300
C 	C 	0.50000 0.37100 0.61700 0.36700
C 	C 	0.00000 0.56000 0.04300 -0.09500
C 	C 	0.00000 0.62900 0.11700 0.37500
C 	C 	0.50000 0.06000 0.54300 -0.10300
C 	C 	0.50000 0.12900 0.61700 0.36700
C 	C 	-0.00000 0.44000 0.95700 -0.09500
C 	C 	0.00000 0.37100 0.88300 0.37500
C 	C 	0.50000 0.94000 0.45700 -0.10300
C 	C 	0.50000 0.87100 0.38300 0.36700
C 	C 	0.00000 0.06000 0.95700 -0.09500
C 	C 	0.00000 0.12900 0.88300 0.37500
C 	C 	0.50000 0.56000 0.45700 -0.10300
C 	C 	0.50000 0.62900 0.38300 0.36700
