data_crystal

_cell_length_a 49.57600
_cell_length_b 49.57600
_cell_length_c 9.93800
_cell_angle_alpha 90.00000
_cell_angle_beta  90.00000
_cell_angle_gamma 120.00000

_symmetry_space_group_name_	'P 1'
_symmetry_space_group_name_H-M	'P 1'

loop_
_symmetry_equiv_pos_as_xyz
  x,y,z

loop_
_atom_site_label
_atom_site_type_symbol
_atom_site_fract_x
_atom_site_fract_y
_atom_site_fract_z
_atom_site_charge
In	In	0.20761 0.79238 0.50020 1.99700
In	In	0.00000 0.63994 0.49996 1.99600
In	In	0.15966 0.57983 0.49988 1.98200
Co	Co	0.06569 0.82024 0.16540 1.19400
Co	Co	0.06584 0.82042 0.83460 1.18000
Co	Co	0.17961 0.93434 0.16570 1.19600
Co	Co	0.17973 0.93429 0.83410 1.20200
O 	O 	0.99960 0.63440 0.26640 -0.41600
O 	O 	0.18710 0.81270 0.64350 -0.41200
O 	O 	0.29014 0.64460 0.88570 -0.47800
O 	O 	0.28886 0.64530 0.13150 -0.47600
O 	O 	0.00050 0.67510 0.35580 -0.42800
O 	O 	0.21140 0.78870 0.73770 -0.38600
O 	O 	0.21180 0.78840 0.26370 -0.38600
O 	O 	0.00020 0.63460 0.73350 -0.41200
O 	O 	0.15330 0.57650 0.73900 -0.37900
O 	O 	0.18700 0.81260 0.35370 -0.40500
O 	O 	0.11980 0.59190 0.49950 -0.41900
O 	O 	0.40810 0.87970 0.49910 -0.42300
O 	O 	0.15330 0.57650 0.26440 -0.39900
O 	O 	0.19660 0.74230 0.50010 -0.42600
O 	O 	0.24740 0.84030 0.49950 -0.46100
O 	O 	0.15970 0.75310 0.49990 -0.45400
O 	O 	0.03560 0.62250 0.49920 -0.43600
O 	O 	0.25790 0.80300 0.49960 -0.43600
O 	O 	0.37740 0.96460 0.50040 -0.43200
O 	O 	0.16870 0.62970 0.49880 -0.44400
O 	O 	0.37040 0.83110 0.49920 -0.44500
O 	O 	0.05130 0.67090 0.49670 -0.48900
O 	O 	0.00010 0.67570 0.64490 -0.41100
O 	O 	0.32890 0.94890 0.50130 -0.48200
O 	O 	0.20350 0.60220 0.35220 -0.37300
O 	O 	0.20320 0.60190 0.64440 -0.38800
O 	O 	0.05990 0.83610 0.99660 -0.39400
O 	O 	0.16390 0.94020 0.99420 -0.38700
O 	O 	0.03930 0.77140 0.10800 -0.49000
O 	O 	0.03870 0.77130 0.89300 -0.41900
O 	O 	0.95930 0.73190 0.89200 -0.46600
O 	O 	0.96000 0.73180 0.10400 -0.41900
O 	O 	0.02830 0.81990 0.27100 -0.16900
O 	O 	0.01840 0.80760 0.12000 -0.11000
O 	O 	0.02870 0.82080 0.73400 -0.18700
O 	O 	0.01810 0.80700 0.88100 -0.10800
O 	O 	0.18010 0.97120 0.73000 -0.17000
O 	O 	0.98170 0.78850 0.12100 -0.10600
O 	O 	0.18010 0.97140 0.27000 -0.17100
O 	O 	0.98200 0.78940 0.87900 -0.10400
O 	O 	0.11030 0.82710 0.89900 -0.44200
O 	O 	0.10100 0.86750 0.87900 -0.15700
O 	O 	0.17580 0.89230 0.89500 -0.39400
O 	O 	0.13720 0.91240 0.26800 -0.17500
O 	O 	0.13240 0.89880 0.12200 -0.10700
O 	O 	0.11170 0.82860 0.10100 -0.42200
O 	O 	0.08840 0.86200 0.27100 -0.18200
O 	O 	0.10130 0.86740 0.12100 -0.10100
O 	O 	0.17370 0.88970 0.09800 -0.38300
O 	O 	0.13760 0.91160 0.72800 -0.19200
O 	O 	0.13250 0.89940 0.88100 -0.11000
C 	C 	0.18180 0.59100 0.25750 0.25400
C 	C 	0.19860 0.59940 0.12530 -0.08100
C 	C 	0.23220 0.61630 0.11140 0.08600
C 	C 	0.25300 0.62670 0.99640 -0.07200
C 	C 	0.23160 0.61580 0.88360 0.08500
C 	C 	0.19790 0.59890 0.87260 -0.08000
C 	C 	0.18130 0.59060 0.99980 0.09400
C 	C 	0.28670 0.64360 0.00830 0.34100
C 	C 	0.18320 0.59130 0.73900 0.24500
C 	C 	0.13080 0.64400 0.49990 -0.12300
C 	C 	0.34170 0.90860 0.50110 -0.12800
C 	C 	0.14230 0.69670 0.50270 -0.12600
C 	C 	0.19680 0.80320 0.25530 0.28100
C 	C 	0.19640 0.80370 0.74700 0.29200
C 	C 	0.99970 0.65900 0.25210 0.33300
C 	C 	0.30250 0.85670 0.50380 -0.13200
C 	C 	0.09120 0.65840 0.50220 -0.13500
C 	C 	0.36580 0.90100 0.50080 0.13400
C 	C 	0.35560 0.86920 0.49950 -0.13500
C 	C 	0.09830 0.63410 0.50010 0.13100
C 	C 	0.35010 0.94410 0.49540 0.38600
C 	C 	0.05600 0.64980 0.49560 0.39900
C 	C 	0.32340 0.84530 0.49970 0.12800
C 	C 	0.15540 0.67670 0.49830 0.12000
C 	C 	0.14030 0.62000 0.50120 0.33500
C 	C 	0.16750 0.73250 0.49790 0.32900
C 	C 	0.37960 0.85960 0.50080 0.33800
C 	C 	0.26650 0.83100 0.49940 0.34700
C 	C 	0.30960 0.88620 0.50250 0.13500
C 	C 	0.11260 0.69010 0.50200 0.13300
C 	C 	0.00020 0.65940 0.74540 0.30400
C 	C 	0.99970 0.65700 0.00020 0.11500
C 	C 	0.19710 0.80290 0.00020 0.11100
C 	C 	0.18890 0.81120 0.87000 -0.12900
C 	C 	0.18970 0.81210 0.12700 -0.12300
C 	C 	0.98730 0.66530 0.12100 -0.03100
C 	C 	0.00870 0.67780 0.12100 -0.10100
C 	C 	0.98510 0.69210 0.12900 0.08200
C 	C 	0.01800 0.70980 0.13200 0.09200
C 	C 	0.98960 0.66820 0.87700 -0.05200
C 	C 	0.01210 0.67730 0.87900 -0.06900
C 	C 	0.01860 0.70830 0.87400 0.08500
C 	C 	0.98260 0.69210 0.86700 0.07900
C 	C 	0.15880 0.81150 0.12000 0.09100
C 	C 	0.18730 0.84150 0.12600 0.07500
C 	C 	0.15790 0.81330 0.87700 0.08200
C 	C 	0.18780 0.84150 0.87600 0.07200
C 	C 	0.96250 0.72270 0.99200 0.51200
C 	C 	0.03670 0.76040 0.01100 0.52800
C 	C 	0.97260 0.69980 0.00100 -0.14000
C 	C 	0.02690 0.72650 0.00500 -0.14900
C 	C 	0.16790 0.87450 0.99600 0.39200
C 	C 	0.12440 0.83000 0.99900 0.48000
C 	C 	0.14570 0.81540 0.00300 -0.15000
C 	C 	0.18380 0.85440 -0.00000 -0.10200
In	In	0.20762 0.41523 0.50020 1.99800
In	In	0.36006 0.36006 0.49996 1.99800
In	In	0.42017 0.57983 0.49988 1.98300
Co	Co	0.17976 0.24545 0.16540 1.19500
Co	Co	0.17958 0.24542 0.83460 1.18100
Co	Co	0.06566 0.24527 0.16570 1.19600
Co	Co	0.06571 0.24544 0.83410 1.20300
O 	O 	0.36560 0.36520 0.26640 -0.41500
O 	O 	0.18730 0.37440 0.64350 -0.41100
O 	O 	0.35540 0.64554 0.88570 -0.47700
O 	O 	0.35470 0.64356 0.13150 -0.47500
O 	O 	0.32490 0.32540 0.35580 -0.42200
O 	O 	0.21130 0.42270 0.73770 -0.38500
O 	O 	0.21160 0.42340 0.26370 -0.38600
O 	O 	0.36540 0.36560 0.73350 -0.41100
O 	O 	0.42350 0.57680 0.73900 -0.37900
O 	O 	0.18740 0.37440 0.35370 -0.40500
O 	O 	0.40810 0.52790 0.49950 -0.41900
O 	O 	0.12030 0.52840 0.49910 -0.42400
O 	O 	0.42350 0.57680 0.26440 -0.39900
O 	O 	0.25770 0.45430 0.50010 -0.42600
O 	O 	0.15970 0.40710 0.49950 -0.46100
O 	O 	0.24690 0.40660 0.49990 -0.45400
O 	O 	0.37750 0.41310 0.49920 -0.43500
O 	O 	0.19700 0.45490 0.49960 -0.43600
O 	O 	0.03540 0.41280 0.50040 -0.43500
O 	O 	0.37030 0.53900 0.49880 -0.44400
O 	O 	0.16890 0.53930 0.49920 -0.44500
O 	O 	0.32910 0.38040 0.49670 -0.48800
O 	O 	0.32430 0.32440 0.64490 -0.41000
O 	O 	0.05110 0.38000 0.50130 -0.48400
O 	O 	0.39780 0.60130 0.35220 -0.37300
O 	O 	0.39810 0.60130 0.64440 -0.38800
O 	O 	0.16390 0.22380 0.99660 -0.39400
O 	O 	0.05980 0.22370 0.99420 -0.38700
O 	O 	0.22860 0.26790 0.10800 -0.49000
O 	O 	0.22870 0.26740 0.89300 -0.41800
O 	O 	0.26810 0.22740 0.89200 -0.46600
O 	O 	0.26820 0.22820 0.10400 -0.41900
O 	O 	0.18010 0.20840 0.27100 -0.16800
O 	O 	0.19240 0.21080 0.12000 -0.10800
O 	O 	0.17920 0.20790 0.73400 -0.18600
O 	O 	0.19300 0.21110 0.88100 -0.10700
O 	O 	0.02880 0.20890 0.73000 -0.17300
O 	O 	0.21150 0.19320 0.12100 -0.10800
O 	O 	0.02860 0.20870 0.27000 -0.17300
O 	O 	0.21060 0.19260 0.87900 -0.10600
O 	O 	0.17290 0.28320 0.89900 -0.44200
O 	O 	0.13250 0.23350 0.87900 -0.15700
O 	O 	0.10770 0.28350 0.89500 -0.39400
O 	O 	0.08760 0.22480 0.26800 -0.17600
O 	O 	0.10120 0.23360 0.12200 -0.10700
O 	O 	0.17140 0.28310 0.10100 -0.42200
O 	O 	0.13800 0.22640 0.27100 -0.18200
O 	O 	0.13260 0.23390 0.12100 -0.10200
O 	O 	0.11030 0.28400 0.09800 -0.38300
O 	O 	0.08840 0.22600 0.72800 -0.19300
O 	O 	0.10060 0.23310 0.88100 -0.11000
C 	C 	0.40900 0.59080 0.25750 0.25400
C 	C 	0.40060 0.59920 0.12530 -0.08100
C 	C 	0.38370 0.61590 0.11140 0.08600
C 	C 	0.37330 0.62630 0.99640 -0.07200
C 	C 	0.38420 0.61580 0.88360 0.08500
C 	C 	0.40110 0.59900 0.87260 -0.08000
C 	C 	0.40940 0.59070 0.99980 0.09400
C 	C 	0.35640 0.64310 0.00830 0.34100
C 	C 	0.40870 0.59190 0.73900 0.24400
C 	C 	0.35600 0.48680 0.49990 -0.12300
C 	C 	0.09140 0.43310 0.50110 -0.12800
C 	C 	0.30330 0.44560 0.50270 -0.12600
C 	C 	0.19680 0.39360 0.25530 0.28100
C 	C 	0.19630 0.39270 0.74700 0.29200
C 	C 	0.34100 0.34070 0.25210 0.32600
C 	C 	0.14330 0.44580 0.50380 -0.13200
C 	C 	0.34160 0.43280 0.50220 -0.13500
C 	C 	0.09900 0.46480 0.50080 0.13300
C 	C 	0.13080 0.48640 0.49950 -0.13500
C 	C 	0.36590 0.46420 0.50010 0.13100
C 	C 	0.05590 0.40600 0.49540 0.38700
C 	C 	0.35020 0.40620 0.49560 0.39800
C 	C 	0.15470 0.47810 0.49970 0.12800
C 	C 	0.32330 0.47870 0.49830 0.12000
C 	C 	0.38000 0.52030 0.50120 0.33500
C 	C 	0.26750 0.43500 0.49790 0.32900
C 	C 	0.14040 0.52000 0.50080 0.33800
C 	C 	0.16900 0.43550 0.49940 0.34700
C 	C 	0.11380 0.42340 0.50250 0.13500
C 	C 	0.30990 0.42250 0.50200 0.13300
C 	C 	0.34060 0.34080 0.74540 0.30500
C 	C 	0.34300 0.34270 0.00020 0.11000
C 	C 	0.19710 0.39420 0.00020 0.11100
C 	C 	0.18880 0.37770 0.87000 -0.12900
C 	C 	0.18790 0.37760 0.12700 -0.12300
C 	C 	0.33470 0.32200 0.12100 -0.04000
C 	C 	0.32220 0.33090 0.12100 -0.08600
C 	C 	0.30790 0.29300 0.12900 0.08100
C 	C 	0.29020 0.30820 0.13200 0.09000
C 	C 	0.33180 0.32140 0.87700 -0.06100
C 	C 	0.32270 0.33480 0.87900 -0.05900
C 	C 	0.29170 0.31030 0.87400 0.08400
C 	C 	0.30790 0.29050 0.86700 0.08000
C 	C 	0.18850 0.34730 0.12000 0.09100
C 	C 	0.15850 0.34580 0.12600 0.07500
C 	C 	0.18670 0.34460 0.87700 0.08200
C 	C 	0.15850 0.34630 0.87600 0.07200
C 	C 	0.27730 0.23980 0.99200 0.51200
C 	C 	0.23960 0.27630 0.01100 0.52800
C 	C 	0.30020 0.27280 0.00100 -0.14100
C 	C 	0.27350 0.30040 0.00500 -0.14700
C 	C 	0.12550 0.29340 0.99600 0.39200
C 	C 	0.17000 0.29440 0.99900 0.48000
C 	C 	0.18460 0.33030 0.00300 -0.15000
C 	C 	0.14560 0.32940 -0.00000 -0.10200
In	In	0.58477 0.79239 0.50020 1.99800
In	In	0.63994 0.00000 0.49996 1.99700
In	In	0.42017 0.84034 0.49988 1.98300
Co	Co	0.75455 0.93431 0.16540 1.19500
Co	Co	0.75458 0.93416 0.83460 1.18100
Co	Co	0.75473 0.82039 0.16570 1.19700
Co	Co	0.75456 0.82027 0.83410 1.20300
O 	O 	0.63480 0.00040 0.26640 -0.41400
O 	O 	0.62560 0.81290 0.64350 -0.41100
O 	O 	0.35446 0.70986 0.88570 -0.47700
O 	O 	0.35644 0.71114 0.13150 -0.47500
O 	O 	0.67460 0.99950 0.35580 -0.41800
O 	O 	0.57730 0.78860 0.73770 -0.38500
O 	O 	0.57660 0.78820 0.26370 -0.38600
O 	O 	0.63440 0.99980 0.73350 -0.40900
O 	O 	0.42320 0.84670 0.73900 -0.37900
O 	O 	0.62560 0.81300 0.35370 -0.40500
O 	O 	0.47210 0.88020 0.49950 -0.41800
O 	O 	0.47160 0.59190 0.49910 -0.42400
O 	O 	0.42320 0.84670 0.26440 -0.39900
O 	O 	0.54570 0.80340 0.50010 -0.42600
O 	O 	0.59290 0.75260 0.49950 -0.46100
O 	O 	0.59340 0.84030 0.49990 -0.45400
O 	O 	0.58690 0.96440 0.49920 -0.43300
O 	O 	0.54510 0.74210 0.49960 -0.43600
O 	O 	0.58720 0.62260 0.50040 -0.43400
O 	O 	0.46100 0.83130 0.49880 -0.44400
O 	O 	0.46070 0.62960 0.49920 -0.44500
O 	O 	0.61960 0.94870 0.49670 -0.48800
O 	O 	0.67560 0.99990 0.64490 -0.40900
O 	O 	0.62000 0.67110 0.50130 -0.48300
O 	O 	0.39870 0.79650 0.35220 -0.37300
O 	O 	0.39870 0.79680 0.64440 -0.38800
O 	O 	0.77620 0.94010 0.99660 -0.39400
O 	O 	0.77630 0.83610 0.99420 -0.38700
O 	O 	0.73210 0.96070 0.10800 -0.48900
O 	O 	0.73260 0.96130 0.89300 -0.41800
O 	O 	0.77260 0.04070 0.89200 -0.46700
O 	O 	0.77180 0.04000 0.10400 -0.42000
O 	O 	0.79160 0.97170 0.27100 -0.16700
O 	O 	0.78920 0.98160 0.12000 -0.10600
O 	O 	0.79210 0.97130 0.73400 -0.18400
O 	O 	0.78890 0.98190 0.88100 -0.10500
O 	O 	0.79110 0.81990 0.73000 -0.17100
O 	O 	0.80680 0.01830 0.12100 -0.10900
O 	O 	0.79130 0.81990 0.27000 -0.17200
O 	O 	0.80740 0.01800 0.87900 -0.10800
O 	O 	0.71680 0.88970 0.89900 -0.44200
O 	O 	0.76650 0.89900 0.87900 -0.15600
O 	O 	0.71650 0.82420 0.89500 -0.39400
O 	O 	0.77520 0.86280 0.26800 -0.17500
O 	O 	0.76640 0.86760 0.12200 -0.10700
O 	O 	0.71690 0.88830 0.10100 -0.42200
O 	O 	0.77360 0.91160 0.27100 -0.18100
O 	O 	0.76610 0.89870 0.12100 -0.10100
O 	O 	0.71600 0.82630 0.09800 -0.38300
O 	O 	0.77400 0.86240 0.72800 -0.19200
O 	O 	0.76690 0.86750 0.88100 -0.11000
C 	C 	0.40920 0.81820 0.25750 0.25400
C 	C 	0.40080 0.80140 0.12530 -0.08100
C 	C 	0.38410 0.76780 0.11140 0.08600
C 	C 	0.37370 0.74700 0.99640 -0.07200
C 	C 	0.38420 0.76840 0.88360 0.08500
C 	C 	0.40100 0.80210 0.87260 -0.08000
C 	C 	0.40930 0.81870 0.99980 0.09400
C 	C 	0.35690 0.71330 0.00830 0.34100
C 	C 	0.40810 0.81680 0.73900 0.24400
C 	C 	0.51320 0.86920 0.49990 -0.12300
C 	C 	0.56690 0.65830 0.50110 -0.12800
C 	C 	0.55440 0.85770 0.50270 -0.12600
C 	C 	0.60640 0.80320 0.25530 0.28100
C 	C 	0.60730 0.80360 0.74700 0.29200
C 	C 	0.65930 0.00030 0.25210 0.31900
C 	C 	0.55420 0.69750 0.50380 -0.13200
C 	C 	0.56720 0.90880 0.50220 -0.13500
C 	C 	0.53520 0.63420 0.50080 0.13300
C 	C 	0.51360 0.64440 0.49950 -0.13500
C 	C 	0.53580 0.90170 0.50010 0.13200
C 	C 	0.59400 0.64990 0.49540 0.38600
C 	C 	0.59380 0.94400 0.49560 0.39800
C 	C 	0.52190 0.67660 0.49970 0.12800
C 	C 	0.52130 0.84460 0.49830 0.12000
C 	C 	0.47970 0.85970 0.50120 0.33500
C 	C 	0.56500 0.83250 0.49790 0.32900
C 	C 	0.48000 0.62040 0.50080 0.33800
C 	C 	0.56450 0.73350 0.49940 0.34700
C 	C 	0.57660 0.69040 0.50250 0.13500
C 	C 	0.57750 0.88740 0.50200 0.13300
C 	C 	0.65920 0.99980 0.74540 0.30600
C 	C 	0.65730 0.00030 0.00020 0.10400
C 	C 	0.60580 0.80290 0.00020 0.11100
C 	C 	0.62230 0.81110 0.87000 -0.12900
C 	C 	0.62240 0.81030 0.12700 -0.12300
C 	C 	0.67800 0.01270 0.12100 -0.04900
C 	C 	0.66910 0.99130 0.12100 -0.07100
C 	C 	0.70700 0.01490 0.12900 0.08000
C 	C 	0.69180 0.98200 0.13200 0.08700
C 	C 	0.67860 0.01040 0.87700 -0.07000
C 	C 	0.66520 0.98790 0.87900 -0.04800
C 	C 	0.68970 0.98140 0.87400 0.08300
C 	C 	0.70950 0.01740 0.86700 0.08000
C 	C 	0.65270 0.84120 0.12000 0.09100
C 	C 	0.65420 0.81270 0.12600 0.07500
C 	C 	0.65540 0.84210 0.87700 0.08200
C 	C 	0.65370 0.81220 0.87600 0.07100
C 	C 	0.76020 0.03750 0.99200 0.51100
C 	C 	0.72370 0.96330 0.01100 0.52700
C 	C 	0.72720 0.02740 0.00100 -0.14100
C 	C 	0.69960 0.97310 0.00500 -0.14500
C 	C 	0.70660 0.83210 0.99600 0.39200
C 	C 	0.70560 0.87560 0.99900 0.48000
C 	C 	0.66970 0.85430 0.00300 -0.15000
C 	C 	0.67060 0.81620 -0.00000 -0.10200
In	In	0.79239 0.20762 0.49980 1.99800
In	In	-0.00000 0.36006 0.50004 1.99700
In	In	0.84034 0.42017 0.50012 1.98300
Co	Co	0.93431 0.17976 0.83460 1.19400
Co	Co	0.93416 0.17958 0.16540 1.18100
Co	Co	0.82039 0.06566 0.83430 1.19600
Co	Co	0.82027 0.06571 0.16590 1.20300
O 	O 	0.00040 0.36560 0.73360 -0.41400
O 	O 	0.81290 0.18730 0.35650 -0.41100
O 	O 	0.70986 0.35540 0.11430 -0.47300
O 	O 	0.71114 0.35470 0.86850 -0.47400
O 	O 	0.99950 0.32490 0.64420 -0.41800
O 	O 	0.78860 0.21130 0.26230 -0.38400
O 	O 	0.78820 0.21160 0.73630 -0.38600
O 	O 	0.99980 0.36540 0.26650 -0.40800
O 	O 	0.84670 0.42350 0.26100 -0.37800
O 	O 	0.81300 0.18740 0.64630 -0.40500
O 	O 	0.88020 0.40810 0.50050 -0.41900
O 	O 	0.59190 0.12030 0.50090 -0.42400
O 	O 	0.84670 0.42350 0.73560 -0.40000
O 	O 	0.80340 0.25770 0.49990 -0.42600
O 	O 	0.75260 0.15970 0.50050 -0.46100
O 	O 	0.84030 0.24690 0.50010 -0.45400
O 	O 	0.96440 0.37750 0.50080 -0.43300
O 	O 	0.74210 0.19700 0.50040 -0.43600
O 	O 	0.62260 0.03540 0.49960 -0.43500
O 	O 	0.83130 0.37030 0.50120 -0.44400
O 	O 	0.62960 0.16890 0.50080 -0.44500
O 	O 	0.94870 0.32910 0.50330 -0.48800
O 	O 	0.99990 0.32430 0.35510 -0.40900
O 	O 	0.67110 0.05110 0.49870 -0.48400
O 	O 	0.79650 0.39780 0.64780 -0.37300
O 	O 	0.79680 0.39810 0.35560 -0.38800
O 	O 	0.94010 0.16390 0.00340 -0.39100
O 	O 	0.83610 0.05980 0.00580 -0.38400
O 	O 	0.96070 0.22860 0.89200 -0.48700
O 	O 	0.96130 0.22870 0.10700 -0.41300
O 	O 	0.04070 0.26810 0.10800 -0.47000
O 	O 	0.04000 0.26820 0.89600 -0.42600
O 	O 	0.97170 0.18010 0.72900 -0.16700
O 	O 	0.98160 0.19240 0.88000 -0.10800
O 	O 	0.97130 0.17920 0.26600 -0.18400
O 	O 	0.98190 0.19300 0.11900 -0.10400
O 	O 	0.81990 0.02880 0.27000 -0.17300
O 	O 	0.01830 0.21150 0.87900 -0.11000
O 	O 	0.81990 0.02860 0.73000 -0.17300
O 	O 	0.01800 0.21060 0.12100 -0.10600
O 	O 	0.88970 0.17290 0.10100 -0.44500
O 	O 	0.89900 0.13250 0.12100 -0.15600
O 	O 	0.82420 0.10770 0.10500 -0.39400
O 	O 	0.86280 0.08760 0.73200 -0.17500
O 	O 	0.86760 0.10120 0.87800 -0.10800
O 	O 	0.88830 0.17140 0.89900 -0.42900
O 	O 	0.91160 0.13800 0.72900 -0.18200
O 	O 	0.89870 0.13260 0.87900 -0.10300
O 	O 	0.82630 0.11030 0.90200 -0.38700
O 	O 	0.86240 0.08840 0.27200 -0.19200
O 	O 	0.86750 0.10060 0.11900 -0.10900
C 	C 	0.81820 0.40900 0.74250 0.25500
C 	C 	0.80140 0.40060 0.87470 -0.08400
C 	C 	0.76780 0.38370 0.88860 0.08200
C 	C 	0.74700 0.37330 0.00360 -0.06300
C 	C 	0.76840 0.38420 0.11640 0.08400
C 	C 	0.80210 0.40110 0.12740 -0.07900
C 	C 	0.81870 0.40940 0.00020 0.09900
C 	C 	0.71330 0.35640 0.99170 0.33200
C 	C 	0.81680 0.40870 0.26100 0.24500
C 	C 	0.86920 0.35600 0.50010 -0.12300
C 	C 	0.65830 0.09140 0.49890 -0.12800
C 	C 	0.85770 0.30330 0.49730 -0.12600
C 	C 	0.80320 0.19680 0.74470 0.28100
C 	C 	0.80360 0.19630 0.25300 0.29100
C 	C 	0.00030 0.34100 0.74790 0.31800
C 	C 	0.69750 0.14330 0.49620 -0.13200
C 	C 	0.90880 0.34160 0.49780 -0.13500
C 	C 	0.63420 0.09900 0.49920 0.13300
C 	C 	0.64440 0.13080 0.50050 -0.13500
C 	C 	0.90170 0.36590 0.49990 0.13200
C 	C 	0.64990 0.05590 0.50460 0.38700
C 	C 	0.94400 0.35020 0.50440 0.39800
C 	C 	0.67660 0.15470 0.50030 0.12800
C 	C 	0.84460 0.32330 0.50170 0.12000
C 	C 	0.85970 0.38000 0.49880 0.33500
C 	C 	0.83250 0.26750 0.50210 0.32900
C 	C 	0.62040 0.14040 0.49920 0.33800
C 	C 	0.73350 0.16900 0.50060 0.34700
C 	C 	0.69040 0.11380 0.49750 0.13500
C 	C 	0.88740 0.30990 0.49800 0.13400
C 	C 	0.99980 0.34060 0.25460 0.30500
C 	C 	0.00030 0.34300 0.99980 0.10000
C 	C 	0.80290 0.19710 0.99980 0.10600
C 	C 	0.81110 0.18880 0.13000 -0.12500
C 	C 	0.81030 0.18790 0.87300 -0.12200
C 	C 	0.01270 0.33470 0.87900 -0.05000
C 	C 	0.99130 0.32220 0.87900 -0.07000
C 	C 	0.01490 0.30790 0.87100 0.08200
C 	C 	0.98200 0.29020 0.86800 0.08600
C 	C 	0.01040 0.33180 0.12300 -0.07000
C 	C 	0.98790 0.32270 0.12100 -0.04500
C 	C 	0.98140 0.29170 0.12600 0.08400
C 	C 	0.01740 0.30790 0.13300 0.08500
C 	C 	0.84120 0.18850 0.88000 0.09400
C 	C 	0.81270 0.15850 0.87400 0.07100
C 	C 	0.84210 0.18670 0.12300 0.08700
C 	C 	0.81220 0.15850 0.12400 0.07000
C 	C 	0.03750 0.27730 0.00800 0.52400
C 	C 	0.96330 0.23960 0.98900 0.52100
C 	C 	0.02740 0.30020 0.99900 -0.15100
C 	C 	0.97310 0.27350 0.99500 -0.14700
C 	C 	0.83210 0.12550 0.00400 0.39600
C 	C 	0.87560 0.17000 0.00100 0.49200
C 	C 	0.85430 0.18460 0.99700 -0.16100
C 	C 	0.81620 0.14560 -0.00000 -0.09800
In	In	0.79238 0.58477 0.49980 1.99800
In	In	0.63994 0.63994 0.50004 1.99800
In	In	0.57983 0.42017 0.50012 1.98300
Co	Co	0.82024 0.75455 0.83460 1.19400
Co	Co	0.82042 0.75458 0.16540 1.18100
Co	Co	0.93434 0.75473 0.83430 1.19600
Co	Co	0.93429 0.75456 0.16590 1.20300
O 	O 	0.63440 0.63480 0.73360 -0.41500
O 	O 	0.81270 0.62560 0.35650 -0.41100
O 	O 	0.64460 0.35446 0.11430 -0.47200
O 	O 	0.64530 0.35644 0.86850 -0.47300
O 	O 	0.67510 0.67460 0.64420 -0.42200
O 	O 	0.78870 0.57730 0.26230 -0.38400
O 	O 	0.78840 0.57660 0.73630 -0.38600
O 	O 	0.63460 0.63440 0.26650 -0.41000
O 	O 	0.57650 0.42320 0.26100 -0.37900
O 	O 	0.81260 0.62560 0.64630 -0.40500
O 	O 	0.59190 0.47210 0.50050 -0.41900
O 	O 	0.87970 0.47160 0.50090 -0.42300
O 	O 	0.57650 0.42320 0.73560 -0.40000
O 	O 	0.74230 0.54570 0.49990 -0.42600
O 	O 	0.84030 0.59290 0.50050 -0.46100
O 	O 	0.75310 0.59340 0.50010 -0.45400
O 	O 	0.62250 0.58690 0.50080 -0.43500
O 	O 	0.80300 0.54510 0.50040 -0.43600
O 	O 	0.96460 0.58720 0.49960 -0.43200
O 	O 	0.62970 0.46100 0.50120 -0.44400
O 	O 	0.83110 0.46070 0.50080 -0.44500
O 	O 	0.67090 0.61960 0.50330 -0.48800
O 	O 	0.67570 0.67560 0.35510 -0.41000
O 	O 	0.94890 0.62000 0.49870 -0.48200
O 	O 	0.60220 0.39870 0.64780 -0.37300
O 	O 	0.60190 0.39870 0.35560 -0.38800
O 	O 	0.83610 0.77620 0.00340 -0.39100
O 	O 	0.94020 0.77630 0.00580 -0.38400
O 	O 	0.77140 0.73210 0.89200 -0.48800
O 	O 	0.77130 0.73260 0.10700 -0.41400
O 	O 	0.73190 0.77260 0.10800 -0.46900
O 	O 	0.73180 0.77180 0.89600 -0.42500
O 	O 	0.81990 0.79160 0.72900 -0.16800
O 	O 	0.80760 0.78920 0.88000 -0.11000
O 	O 	0.82080 0.79210 0.26600 -0.18500
O 	O 	0.80700 0.78890 0.11900 -0.10600
O 	O 	0.97120 0.79110 0.27000 -0.17000
O 	O 	0.78850 0.80680 0.87900 -0.10800
O 	O 	0.97140 0.79130 0.73000 -0.17100
O 	O 	0.78940 0.80740 0.12100 -0.10400
O 	O 	0.82710 0.71680 0.10100 -0.44500
O 	O 	0.86750 0.76650 0.12100 -0.15600
O 	O 	0.89230 0.71650 0.10500 -0.39400
O 	O 	0.91240 0.77520 0.73200 -0.17500
O 	O 	0.89880 0.76640 0.87800 -0.10800
O 	O 	0.82860 0.71690 0.89900 -0.42900
O 	O 	0.86200 0.77360 0.72900 -0.18200
O 	O 	0.86740 0.76610 0.87900 -0.10300
O 	O 	0.88970 0.71600 0.90200 -0.38700
O 	O 	0.91160 0.77400 0.27200 -0.19200
O 	O 	0.89940 0.76690 0.11900 -0.10900
C 	C 	0.59100 0.40920 0.74250 0.25500
C 	C 	0.59940 0.40080 0.87470 -0.08400
C 	C 	0.61630 0.38410 0.88860 0.08200
C 	C 	0.62670 0.37370 0.00360 -0.06300
C 	C 	0.61580 0.38420 0.11640 0.08400
C 	C 	0.59890 0.40100 0.12740 -0.07900
C 	C 	0.59060 0.40930 0.00020 0.09900
C 	C 	0.64360 0.35690 0.99170 0.33200
C 	C 	0.59130 0.40810 0.26100 0.24500
C 	C 	0.64400 0.51320 0.50010 -0.12300
C 	C 	0.90860 0.56690 0.49890 -0.12800
C 	C 	0.69670 0.55440 0.49730 -0.12600
C 	C 	0.80320 0.60640 0.74470 0.28100
C 	C 	0.80370 0.60730 0.25300 0.29100
C 	C 	0.65900 0.65930 0.74790 0.32500
C 	C 	0.85670 0.55420 0.49620 -0.13200
C 	C 	0.65840 0.56720 0.49780 -0.13500
C 	C 	0.90100 0.53520 0.49920 0.13400
C 	C 	0.86920 0.51360 0.50050 -0.13500
C 	C 	0.63410 0.53580 0.49990 0.13100
C 	C 	0.94410 0.59400 0.50460 0.38600
C 	C 	0.64980 0.59380 0.50440 0.39800
C 	C 	0.84530 0.52190 0.50030 0.12800
C 	C 	0.67670 0.52130 0.50170 0.12000
C 	C 	0.62000 0.47970 0.49880 0.33500
C 	C 	0.73250 0.56500 0.50210 0.32900
C 	C 	0.85960 0.48000 0.49920 0.33800
C 	C 	0.83100 0.56450 0.50060 0.34700
C 	C 	0.88620 0.57660 0.49750 0.13500
C 	C 	0.69010 0.57750 0.49800 0.13300
C 	C 	0.65940 0.65920 0.25460 0.30400
C 	C 	0.65700 0.65730 0.99980 0.10500
C 	C 	0.80290 0.60580 0.99980 0.10600
C 	C 	0.81120 0.62230 0.13000 -0.12500
C 	C 	0.81210 0.62240 0.87300 -0.12200
C 	C 	0.66530 0.67800 0.87900 -0.04100
C 	C 	0.67780 0.66910 0.87900 -0.08500
C 	C 	0.69210 0.70700 0.87100 0.08300
C 	C 	0.70980 0.69180 0.86800 0.08900
C 	C 	0.66820 0.67860 0.12300 -0.06000
C 	C 	0.67730 0.66520 0.12100 -0.05600
C 	C 	0.70830 0.68970 0.12600 0.08500
C 	C 	0.69210 0.70950 0.13300 0.08400
C 	C 	0.81150 0.65270 0.88000 0.09400
C 	C 	0.84150 0.65420 0.87400 0.07100
C 	C 	0.81330 0.65540 0.12300 0.08700
C 	C 	0.84150 0.65370 0.12400 0.07000
C 	C 	0.72270 0.76020 0.00800 0.52500
C 	C 	0.76040 0.72370 0.98900 0.52200
C 	C 	0.69980 0.72720 0.99900 -0.15100
C 	C 	0.72650 0.69960 0.99500 -0.14900
C 	C 	0.87450 0.70660 0.00400 0.39600
C 	C 	0.83000 0.70560 0.00100 0.49200
C 	C 	0.81540 0.66970 0.99700 -0.16100
C 	C 	0.85440 0.67060 -0.00000 -0.09800
In	In	0.41523 0.20761 0.49980 1.99800
In	In	0.36006 -0.00000 0.50004 1.99700
In	In	0.57983 0.15966 0.50012 1.98300
Co	Co	0.24545 0.06569 0.83460 1.19400
Co	Co	0.24542 0.06584 0.16540 1.18100
Co	Co	0.24527 0.17961 0.83430 1.19600
Co	Co	0.24544 0.17973 0.16590 1.20300
O 	O 	0.36520 0.99960 0.73360 -0.41500
O 	O 	0.37440 0.18710 0.35650 -0.41100
O 	O 	0.64554 0.29014 0.11430 -0.47200
O 	O 	0.64356 0.28886 0.86850 -0.47400
O 	O 	0.32540 0.00050 0.64420 -0.42700
O 	O 	0.42270 0.21140 0.26230 -0.38400
O 	O 	0.42340 0.21180 0.73630 -0.38600
O 	O 	0.36560 0.00020 0.26650 -0.41100
O 	O 	0.57680 0.15330 0.26100 -0.37900
O 	O 	0.37440 0.18700 0.64630 -0.40500
O 	O 	0.52790 0.11980 0.50050 -0.41900
O 	O 	0.52840 0.40810 0.50090 -0.42400
O 	O 	0.57680 0.15330 0.73560 -0.40000
O 	O 	0.45430 0.19660 0.49990 -0.42600
O 	O 	0.40710 0.24740 0.50050 -0.46100
O 	O 	0.40660 0.15970 0.50010 -0.45400
O 	O 	0.41310 0.03560 0.50080 -0.43600
O 	O 	0.45490 0.25790 0.50040 -0.43600
O 	O 	0.41280 0.37740 0.49960 -0.43400
O 	O 	0.53900 0.16870 0.50120 -0.44400
O 	O 	0.53930 0.37040 0.50080 -0.44500
O 	O 	0.38040 0.05130 0.50330 -0.48900
O 	O 	0.32440 0.00010 0.35510 -0.41100
O 	O 	0.38000 0.32890 0.49870 -0.48300
O 	O 	0.60130 0.20350 0.64780 -0.37300
O 	O 	0.60130 0.20320 0.35560 -0.38800
O 	O 	0.22380 0.05990 0.00340 -0.39100
O 	O 	0.22370 0.16390 0.00580 -0.38400
O 	O 	0.26790 0.03930 0.89200 -0.48900
O 	O 	0.26740 0.03870 0.10700 -0.41500
O 	O 	0.22740 0.95930 0.10800 -0.46900
O 	O 	0.22820 0.96000 0.89600 -0.42500
O 	O 	0.20840 0.02830 0.72900 -0.17000
O 	O 	0.21080 0.01840 0.88000 -0.11200
O 	O 	0.20790 0.02870 0.26600 -0.18700
O 	O 	0.21110 0.01810 0.11900 -0.10700
O 	O 	0.20890 0.18010 0.27000 -0.17200
O 	O 	0.19320 0.98170 0.87900 -0.10700
O 	O 	0.20870 0.18010 0.73000 -0.17200
O 	O 	0.19260 0.98200 0.12100 -0.10300
O 	O 	0.28320 0.11030 0.10100 -0.44500
O 	O 	0.23350 0.10100 0.12100 -0.15600
O 	O 	0.28350 0.17580 0.10500 -0.39400
O 	O 	0.22480 0.13720 0.73200 -0.17600
O 	O 	0.23360 0.13240 0.87800 -0.10800
O 	O 	0.28310 0.11170 0.89900 -0.42900
O 	O 	0.22640 0.08840 0.72900 -0.18200
O 	O 	0.23390 0.10130 0.87900 -0.10300
O 	O 	0.28400 0.17370 0.90200 -0.38700
O 	O 	0.22600 0.13760 0.27200 -0.19300
O 	O 	0.23310 0.13250 0.11900 -0.10900
C 	C 	0.59080 0.18180 0.74250 0.25500
C 	C 	0.59920 0.19860 0.87470 -0.08400
C 	C 	0.61590 0.23220 0.88860 0.08200
C 	C 	0.62630 0.25300 0.00360 -0.06300
C 	C 	0.61580 0.23160 0.11640 0.08400
C 	C 	0.59900 0.19790 0.12740 -0.07900
C 	C 	0.59070 0.18130 0.00020 0.09800
C 	C 	0.64310 0.28670 0.99170 0.33200
C 	C 	0.59190 0.18320 0.26100 0.24500
C 	C 	0.48680 0.13080 0.50010 -0.12300
C 	C 	0.43310 0.34170 0.49890 -0.12800
C 	C 	0.44560 0.14230 0.49730 -0.12600
C 	C 	0.39360 0.19680 0.74470 0.28100
C 	C 	0.39270 0.19640 0.25300 0.29100
C 	C 	0.34070 0.99970 0.74790 0.33300
C 	C 	0.44580 0.30250 0.49620 -0.13200
C 	C 	0.43280 0.09120 0.49780 -0.13500
C 	C 	0.46480 0.36580 0.49920 0.13300
C 	C 	0.48640 0.35560 0.50050 -0.13500
C 	C 	0.46420 0.09830 0.49990 0.13100
C 	C 	0.40600 0.35010 0.50460 0.38600
C 	C 	0.40620 0.05600 0.50440 0.39900
C 	C 	0.47810 0.32340 0.50030 0.12800
C 	C 	0.47870 0.15540 0.50170 0.12000
C 	C 	0.52030 0.14030 0.49880 0.33500
C 	C 	0.43500 0.16750 0.50210 0.32900
C 	C 	0.52000 0.37960 0.49920 0.33800
C 	C 	0.43550 0.26650 0.50060 0.34700
C 	C 	0.42340 0.30960 0.49750 0.13500
C 	C 	0.42250 0.11260 0.49800 0.13400
C 	C 	0.34080 0.00020 0.25460 0.30300
C 	C 	0.34270 0.99970 0.99980 0.11000
C 	C 	0.39420 0.19710 0.99980 0.10600
C 	C 	0.37770 0.18890 0.13000 -0.12500
C 	C 	0.37760 0.18970 0.87300 -0.12200
C 	C 	0.32200 0.98730 0.87900 -0.03200
C 	C 	0.33090 0.00870 0.87900 -0.10100
C 	C 	0.29300 0.98510 0.87100 0.08400
C 	C 	0.30820 0.01800 0.86800 0.09100
C 	C 	0.32140 0.98960 0.12300 -0.05100
C 	C 	0.33480 0.01210 0.12100 -0.06600
C 	C 	0.31030 0.01860 0.12600 0.08700
C 	C 	0.29050 0.98260 0.13300 0.08400
C 	C 	0.34730 0.15880 0.88000 0.09400
C 	C 	0.34580 0.18730 0.87400 0.07100
C 	C 	0.34460 0.15790 0.12300 0.08700
C 	C 	0.34630 0.18780 0.12400 0.07000
C 	C 	0.23980 0.96250 0.00800 0.52500
C 	C 	0.27630 0.03670 0.98900 0.52200
C 	C 	0.27280 0.97260 0.99900 -0.15000
C 	C 	0.30040 0.02690 0.99500 -0.15100
C 	C 	0.29340 0.16790 0.00400 0.39600
C 	C 	0.29440 0.12440 0.00100 0.49200
C 	C 	0.33030 0.14570 0.99700 -0.16100
C 	C 	0.32940 0.18380 -0.00000 -0.09800
Co	Co	0.33333 0.66667 0.19020 1.10500
Co	Co	0.33333 0.66667 0.81120 1.10600
Co	Co	0.66667 0.33333 0.80980 1.10400
Co	Co	0.66667 0.33333 0.18880 1.10600
