data_crystal

_cell_length_a 49.44180
_cell_length_b 49.44180
_cell_length_c 10.00650
_cell_angle_alpha 90.00000
_cell_angle_beta  90.00000
_cell_angle_gamma 120.00000

_symmetry_space_group_name_	'P 1'
_symmetry_space_group_name_H-M	'P 1'

loop_
_symmetry_equiv_pos_as_xyz
  x,y,z

loop_
_atom_site_label
_atom_site_type_symbol
_atom_site_fract_x
_atom_site_fract_y
_atom_site_fract_z
_atom_site_charge
In	In	0.20688 0.79316 0.50006 1.99600
In	In	0.00005 0.64120 0.49991 1.99000
In	In	0.15873 0.57936 0.49949 1.98600
Mn	Mn	0.06563 0.82027 0.18270 1.19200
Mn	Mn	0.06562 0.82034 0.81720 1.16900
Mn	Mn	0.17973 0.93422 0.18280 1.20200
Mn	Mn	0.17980 0.93449 0.81770 1.18000
O 	O 	0.99977 0.63604 0.26080 -0.39300
O 	O 	0.18680 0.81210 0.64790 -0.44900
O 	O 	0.29420 0.64940 0.89860 -0.52000
O 	O 	0.29270 0.64903 0.11610 -0.53300
O 	O 	0.99990 0.67670 0.35610 -0.42900
O 	O 	0.21070 0.78960 0.74510 -0.39700
O 	O 	0.21050 0.78940 0.25880 -0.39800
O 	O 	0.00020 0.63658 0.73960 -0.39600
O 	O 	0.15140 0.57610 0.75190 -0.30900
O 	O 	0.18720 0.81260 0.35170 -0.46800
O 	O 	0.11940 0.59160 0.50060 -0.43900
O 	O 	0.40790 0.87990 0.50080 -0.45000
O 	O 	0.15170 0.57580 0.24130 -0.31700
O 	O 	0.19550 0.74280 0.49960 -0.47200
O 	O 	0.24760 0.84110 0.49560 -0.49700
O 	O 	0.15860 0.75230 0.49970 -0.48500
O 	O 	0.03385 0.62182 0.49890 -0.40500
O 	O 	0.25730 0.80470 0.49860 -0.48800
O 	O 	0.37773 0.96504 0.49930 -0.40800
O 	O 	0.16650 0.62690 0.49750 -0.47900
O 	O 	0.37270 0.83320 0.49890 -0.48500
O 	O 	0.05140 0.67330 0.49970 -0.44700
O 	O 	0.00010 0.67670 0.64420 -0.43400
O 	O 	0.32710 0.94840 0.49850 -0.45300
O 	O 	0.20210 0.60110 0.35150 -0.39200
O 	O 	0.20120 0.60020 0.63230 -0.43800
O 	O 	0.05980 0.83800 0.99990 -0.58100
O 	O 	0.16200 0.94040 0.99690 -0.57500
O 	O 	0.03480 0.77300 0.11410 -0.45100
O 	O 	0.03540 0.77220 0.88400 -0.40200
O 	O 	0.96150 0.73580 0.88400 -0.51900
O 	O 	0.96330 0.73630 0.11700 -0.43600
O 	O 	0.10740 0.82300 0.88410 -0.42800
O 	O 	0.17790 0.89410 0.87700 -0.41100
O 	O 	0.13050 0.90010 0.09920 -0.29600
O 	O 	0.10910 0.82480 0.11300 -0.39900
O 	O 	0.10030 0.86950 0.10010 -0.29600
O 	O 	0.17750 0.89370 0.11400 -0.38300
C 	C 	0.18370 0.59260 0.26200 0.21500
C 	C 	0.19720 0.59840 0.12550 -0.06700
C 	C 	0.23100 0.61450 0.11670 0.07200
C 	C 	0.24770 0.62240 0.99060 -0.15000
C 	C 	0.22810 0.61300 0.87250 0.08300
C 	C 	0.19420 0.59690 0.86890 -0.06900
C 	C 	0.18010 0.59020 0.00050 0.07800
C 	C 	0.28140 0.63840 0.00600 0.47500
C 	C 	0.18660 0.59380 0.72790 0.22600
C 	C 	0.13170 0.64570 0.49710 -0.22900
C 	C 	0.33890 0.90650 0.50160 -0.13700
C 	C 	0.14080 0.69590 0.49740 -0.15000
C 	C 	0.19580 0.80420 0.25180 0.34200
C 	C 	0.19670 0.80370 0.75630 0.34200
C 	C 	0.00000 0.66150 0.24360 0.30000
C 	C 	0.30450 0.85940 0.50090 -0.15600
C 	C 	0.09400 0.66180 0.50160 -0.13100
C 	C 	0.36510 0.89960 0.50090 0.14600
C 	C 	0.35290 0.86840 0.49510 -0.20700
C 	C 	0.10030 0.63470 0.50480 0.14600
C 	C 	0.35020 0.94380 0.49850 0.31200
C 	C 	0.05560 0.64980 0.50030 0.28400
C 	C 	0.32570 0.84780 0.49640 0.17400
C 	C 	0.15220 0.67320 0.49860 0.17500
C 	C 	0.13800 0.62100 0.50270 0.39300
C 	C 	0.16840 0.73410 0.49340 0.39500
C 	C 	0.37910 0.86100 0.50140 0.39600
C 	C 	0.26560 0.83110 0.49320 0.41900
C 	C 	0.31110 0.88790 0.50240 0.16000
C 	C 	0.11180 0.68850 0.50060 0.15800
C 	C 	0.99980 0.66140 0.75590 0.30900
C 	C 	0.99990 0.65910 0.99790 0.12200
C 	C 	0.19470 0.80460 0.00280 0.09100
C 	C 	0.18920 0.81510 0.86400 -0.13700
C 	C 	0.18870 0.81560 0.13000 -0.13600
C 	C 	0.98870 0.66750 0.12400 -0.11000
C 	C 	0.01390 0.67960 0.11700 -0.03900
C 	C 	0.98160 0.68880 0.13800 0.07900
C 	C 	0.02090 0.71180 0.13100 0.02500
C 	C 	0.98710 0.66660 0.88300 -0.08000
C 	C 	0.01360 0.67920 0.88200 -0.06500
C 	C 	0.02030 0.71100 0.86800 0.04500
C 	C 	0.98020 0.69000 0.87200 0.06500
C 	C 	0.16130 0.81750 0.12700 0.05500
C 	C 	0.18420 0.84090 0.12300 0.05600
C 	C 	0.16060 0.81650 0.86800 0.05500
C 	C 	0.18320 0.84110 0.87100 0.05100
C 	C 	0.96090 0.72090 0.97800 0.34500
C 	C 	0.04200 0.75930 0.02400 0.21900
C 	C 	0.97270 0.69960 0.99700 -0.11300
C 	C 	0.02570 0.72590 0.00200 -0.06700
C 	C 	0.16570 0.86970 -0.00000 0.14900
C 	C 	0.12930 0.83510 0.99900 0.25500
C 	C 	0.14480 0.82070 0.00300 -0.10700
C 	C 	0.18150 0.85460 0.00400 -0.06000
In	In	0.20684 0.41372 0.50006 1.99700
In	In	0.35880 0.35885 0.49991 1.99100
In	In	0.42064 0.57937 0.49949 1.98700
Mn	Mn	0.17973 0.24536 0.18270 1.19300
Mn	Mn	0.17966 0.24528 0.81720 1.17000
Mn	Mn	0.06578 0.24551 0.18280 1.20300
Mn	Mn	0.06551 0.24531 0.81770 1.18000
O 	O 	0.36396 0.36373 0.26080 -0.39300
O 	O 	0.18790 0.37470 0.64790 -0.44800
O 	O 	0.35060 0.64480 0.89860 -0.51900
O 	O 	0.35097 0.64367 0.11610 -0.53300
O 	O 	0.32330 0.32320 0.35610 -0.43000
O 	O 	0.21040 0.42110 0.74510 -0.39700
O 	O 	0.21060 0.42110 0.25880 -0.39800
O 	O 	0.36342 0.36362 0.73960 -0.39600
O 	O 	0.42390 0.57530 0.75190 -0.30900
O 	O 	0.18740 0.37460 0.35170 -0.46800
O 	O 	0.40840 0.52780 0.50060 -0.43900
O 	O 	0.12010 0.52800 0.50080 -0.45100
O 	O 	0.42420 0.57590 0.24130 -0.31700
O 	O 	0.25720 0.45270 0.49960 -0.47200
O 	O 	0.15890 0.40650 0.49560 -0.49700
O 	O 	0.24770 0.40630 0.49970 -0.48500
O 	O 	0.37818 0.41203 0.49890 -0.40500
O 	O 	0.19530 0.45260 0.49860 -0.48800
O 	O 	0.03496 0.41269 0.49930 -0.40800
O 	O 	0.37310 0.53960 0.49750 -0.47900
O 	O 	0.16680 0.53950 0.49890 -0.48500
O 	O 	0.32670 0.37810 0.49970 -0.44700
O 	O 	0.32330 0.32340 0.64420 -0.43300
O 	O 	0.05160 0.37870 0.49850 -0.45400
O 	O 	0.39890 0.60100 0.35150 -0.39200
O 	O 	0.39980 0.60100 0.63230 -0.43800
O 	O 	0.16200 0.22180 0.99990 -0.58100
O 	O 	0.05960 0.22160 0.99690 -0.57600
O 	O 	0.22700 0.26180 0.11410 -0.45100
O 	O 	0.22780 0.26320 0.88400 -0.40100
O 	O 	0.26420 0.22570 0.88400 -0.51900
O 	O 	0.26370 0.22700 0.11700 -0.43700
O 	O 	0.17700 0.28440 0.88410 -0.42800
O 	O 	0.10590 0.28380 0.87700 -0.41100
O 	O 	0.09990 0.23040 0.09920 -0.29600
O 	O 	0.17520 0.28430 0.11300 -0.39900
O 	O 	0.13050 0.23080 0.10010 -0.29600
O 	O 	0.10630 0.28380 0.11400 -0.38300
C 	C 	0.40740 0.59110 0.26200 0.21500
C 	C 	0.40160 0.59880 0.12550 -0.06700
C 	C 	0.38550 0.61650 0.11670 0.07200
C 	C 	0.37760 0.62530 0.99060 -0.15000
C 	C 	0.38700 0.61510 0.87250 0.08300
C 	C 	0.40310 0.59730 0.86890 -0.06900
C 	C 	0.40980 0.58990 0.00050 0.07800
C 	C 	0.36160 0.64300 0.00600 0.47500
C 	C 	0.40620 0.59280 0.72790 0.22600
C 	C 	0.35430 0.48600 0.49710 -0.22900
C 	C 	0.09350 0.43240 0.50160 -0.13700
C 	C 	0.30410 0.44490 0.49740 -0.15000
C 	C 	0.19580 0.39160 0.25180 0.34200
C 	C 	0.19630 0.39300 0.75630 0.34200
C 	C 	0.33850 0.33850 0.24360 0.30200
C 	C 	0.14060 0.44510 0.50090 -0.15600
C 	C 	0.33820 0.43220 0.50160 -0.13100
C 	C 	0.10040 0.46550 0.50090 0.14600
C 	C 	0.13160 0.48450 0.49510 -0.20700
C 	C 	0.36530 0.46560 0.50480 0.14600
C 	C 	0.05620 0.40640 0.49850 0.31200
C 	C 	0.35020 0.40580 0.50030 0.28400
C 	C 	0.15220 0.47790 0.49640 0.17400
C 	C 	0.32680 0.47900 0.49860 0.17500
C 	C 	0.37900 0.51700 0.50270 0.39300
C 	C 	0.26590 0.43430 0.49340 0.39500
C 	C 	0.13900 0.51810 0.50140 0.39600
C 	C 	0.16890 0.43450 0.49320 0.41900
C 	C 	0.11210 0.42320 0.50240 0.16000
C 	C 	0.31150 0.42330 0.50060 0.15800
C 	C 	0.33860 0.33840 0.75590 0.30800
C 	C 	0.34090 0.34080 0.99790 0.12200
C 	C 	0.19540 0.39010 0.00280 0.09100
C 	C 	0.18490 0.37410 0.86400 -0.13700
C 	C 	0.18440 0.37310 0.13000 -0.13600
C 	C 	0.33250 0.32120 0.12400 -0.11200
C 	C 	0.32040 0.33430 0.11700 -0.03800
C 	C 	0.31120 0.29280 0.13800 0.07900
C 	C 	0.28820 0.30910 0.13100 0.02500
C 	C 	0.33340 0.32050 0.88300 -0.08000
C 	C 	0.32080 0.33440 0.88200 -0.06400
C 	C 	0.28900 0.30930 0.86800 0.04500
C 	C 	0.31000 0.29020 0.87200 0.06500
C 	C 	0.18250 0.34380 0.12700 0.05500
C 	C 	0.15910 0.34330 0.12300 0.05600
C 	C 	0.18350 0.34410 0.86800 0.05500
C 	C 	0.15890 0.34210 0.87100 0.05100
C 	C 	0.27910 0.24000 0.97800 0.34500
C 	C 	0.24070 0.28270 0.02400 0.21900
C 	C 	0.30040 0.27310 0.99700 -0.11300
C 	C 	0.27410 0.29980 0.00200 -0.06600
C 	C 	0.13030 0.29600 -0.00000 0.14900
C 	C 	0.16490 0.29420 0.99900 0.25500
C 	C 	0.17930 0.32410 0.00300 -0.10700
C 	C 	0.14540 0.32690 0.00400 -0.06000
In	In	0.58628 0.79312 0.50006 1.99700
In	In	0.64115 0.99995 0.49991 1.99100
In	In	0.42063 0.84127 0.49949 1.98700
Mn	Mn	0.75464 0.93437 0.18270 1.19300
Mn	Mn	0.75472 0.93438 0.81720 1.17000
Mn	Mn	0.75449 0.82027 0.18280 1.20300
Mn	Mn	0.75469 0.82020 0.81770 1.18100
O 	O 	0.63627 0.00023 0.26080 -0.39300
O 	O 	0.62530 0.81320 0.64790 -0.44800
O 	O 	0.35520 0.70580 0.89860 -0.51900
O 	O 	0.35633 0.70730 0.11610 -0.53300
O 	O 	0.67680 0.00010 0.35610 -0.43100
O 	O 	0.57890 0.78930 0.74510 -0.39700
O 	O 	0.57890 0.78950 0.25880 -0.39800
O 	O 	0.63638 0.99980 0.73960 -0.39500
O 	O 	0.42470 0.84860 0.75190 -0.30900
O 	O 	0.62540 0.81280 0.35170 -0.46800
O 	O 	0.47220 0.88060 0.50060 -0.43900
O 	O 	0.47200 0.59210 0.50080 -0.45000
O 	O 	0.42410 0.84830 0.24130 -0.31700
O 	O 	0.54730 0.80450 0.49960 -0.47200
O 	O 	0.59350 0.75240 0.49560 -0.49700
O 	O 	0.59370 0.84140 0.49970 -0.48500
O 	O 	0.58797 0.96615 0.49890 -0.40500
O 	O 	0.54740 0.74270 0.49860 -0.48800
O 	O 	0.58731 0.62227 0.49930 -0.40800
O 	O 	0.46040 0.83350 0.49750 -0.47900
O 	O 	0.46050 0.62730 0.49890 -0.48500
O 	O 	0.62190 0.94860 0.49970 -0.44700
O 	O 	0.67660 0.99990 0.64420 -0.43200
O 	O 	0.62130 0.67290 0.49850 -0.45300
O 	O 	0.39900 0.79790 0.35150 -0.39200
O 	O 	0.39900 0.79880 0.63230 -0.43800
O 	O 	0.77820 0.94020 0.99990 -0.58100
O 	O 	0.77840 0.83800 0.99690 -0.57600
O 	O 	0.73820 0.96520 0.11410 -0.45100
O 	O 	0.73680 0.96460 0.88400 -0.40100
O 	O 	0.77430 0.03850 0.88400 -0.51900
O 	O 	0.77300 0.03670 0.11700 -0.43700
O 	O 	0.71560 0.89260 0.88410 -0.42800
O 	O 	0.71620 0.82210 0.87700 -0.41100
O 	O 	0.76960 0.86950 0.09920 -0.29600
O 	O 	0.71570 0.89090 0.11300 -0.39900
O 	O 	0.76920 0.89970 0.10010 -0.29600
O 	O 	0.71620 0.82250 0.11400 -0.38300
C 	C 	0.40890 0.81630 0.26200 0.21500
C 	C 	0.40120 0.80280 0.12550 -0.06700
C 	C 	0.38350 0.76900 0.11670 0.07200
C 	C 	0.37470 0.75230 0.99060 -0.15000
C 	C 	0.38490 0.77190 0.87250 0.08300
C 	C 	0.40270 0.80580 0.86890 -0.06900
C 	C 	0.41010 0.81990 0.00050 0.07800
C 	C 	0.35700 0.71860 0.00600 0.47500
C 	C 	0.40720 0.81340 0.72790 0.22600
C 	C 	0.51400 0.86830 0.49710 -0.22900
C 	C 	0.56760 0.66110 0.50160 -0.13700
C 	C 	0.55510 0.85920 0.49740 -0.15000
C 	C 	0.60840 0.80420 0.25180 0.34200
C 	C 	0.60700 0.80330 0.75630 0.34200
C 	C 	0.66150 0.00000 0.24360 0.30100
C 	C 	0.55490 0.69550 0.50090 -0.15600
C 	C 	0.56780 0.90600 0.50160 -0.13100
C 	C 	0.53450 0.63490 0.50090 0.14600
C 	C 	0.51550 0.64710 0.49510 -0.20700
C 	C 	0.53440 0.89970 0.50480 0.14700
C 	C 	0.59360 0.64980 0.49850 0.31200
C 	C 	0.59420 0.94440 0.50030 0.28400
C 	C 	0.52210 0.67430 0.49640 0.17400
C 	C 	0.52100 0.84780 0.49860 0.17500
C 	C 	0.48300 0.86200 0.50270 0.39300
C 	C 	0.56570 0.83160 0.49340 0.39500
C 	C 	0.48190 0.62090 0.50140 0.39600
C 	C 	0.56550 0.73440 0.49320 0.41900
C 	C 	0.57680 0.68890 0.50240 0.16000
C 	C 	0.57670 0.88820 0.50060 0.15800
C 	C 	0.66160 0.00020 0.75590 0.30600
C 	C 	0.65920 0.00010 0.99790 0.12100
C 	C 	0.60990 0.80530 0.00280 0.09100
C 	C 	0.62590 0.81080 0.86400 -0.13700
C 	C 	0.62690 0.81130 0.13000 -0.13600
C 	C 	0.67880 0.01130 0.12400 -0.11200
C 	C 	0.66570 0.98610 0.11700 -0.03700
C 	C 	0.70720 0.01840 0.13800 0.07900
C 	C 	0.69090 0.97910 0.13100 0.02500
C 	C 	0.67950 0.01290 0.88300 -0.08100
C 	C 	0.66560 0.98640 0.88200 -0.06200
C 	C 	0.69070 0.97970 0.86800 0.04500
C 	C 	0.70980 0.01980 0.87200 0.06400
C 	C 	0.65620 0.83870 0.12700 0.05500
C 	C 	0.65670 0.81580 0.12300 0.05600
C 	C 	0.65590 0.83940 0.86800 0.05500
C 	C 	0.65790 0.81680 0.87100 0.05100
C 	C 	0.76000 0.03910 0.97800 0.34500
C 	C 	0.71730 0.95800 0.02400 0.21900
C 	C 	0.72690 0.02730 0.99700 -0.11300
C 	C 	0.70020 0.97430 0.00200 -0.06600
C 	C 	0.70400 0.83430 -0.00000 0.14900
C 	C 	0.70580 0.87070 0.99900 0.25500
C 	C 	0.67590 0.85520 0.00300 -0.10700
C 	C 	0.67310 0.81850 0.00400 -0.06000
In	In	0.79312 0.20684 0.49994 1.99700
In	In	0.99995 0.35880 0.50009 1.99100
In	In	0.84127 0.42064 0.50051 1.98700
Mn	Mn	0.93437 0.17973 0.81730 1.19400
Mn	Mn	0.93438 0.17966 0.18280 1.17000
Mn	Mn	0.82027 0.06578 0.81720 1.20400
Mn	Mn	0.82020 0.06551 0.18230 1.18000
O 	O 	0.00023 0.36396 0.73920 -0.39000
O 	O 	0.81320 0.18790 0.35210 -0.44800
O 	O 	0.70580 0.35060 0.10140 -0.52800
O 	O 	0.70730 0.35097 0.88390 -0.53700
O 	O 	0.00010 0.32330 0.64390 -0.43000
O 	O 	0.78930 0.21040 0.25490 -0.39900
O 	O 	0.78950 0.21060 0.74120 -0.39700
O 	O 	0.99980 0.36342 0.26040 -0.39500
O 	O 	0.84860 0.42390 0.24810 -0.31100
O 	O 	0.81280 0.18740 0.64830 -0.46800
O 	O 	0.88060 0.40840 0.49940 -0.43900
O 	O 	0.59210 0.12010 0.49920 -0.45100
O 	O 	0.84830 0.42420 0.75870 -0.31700
O 	O 	0.80450 0.25720 0.50040 -0.47200
O 	O 	0.75240 0.15890 0.50440 -0.49700
O 	O 	0.84140 0.24770 0.50030 -0.48500
O 	O 	0.96615 0.37818 0.50110 -0.40500
O 	O 	0.74270 0.19530 0.50140 -0.48800
O 	O 	0.62227 0.03496 0.50070 -0.40800
O 	O 	0.83350 0.37310 0.50250 -0.47900
O 	O 	0.62730 0.16680 0.50110 -0.48500
O 	O 	0.94860 0.32670 0.50030 -0.44700
O 	O 	0.99990 0.32330 0.35580 -0.43200
O 	O 	0.67290 0.05160 0.50150 -0.45400
O 	O 	0.79790 0.39890 0.64850 -0.39200
O 	O 	0.79880 0.39980 0.36770 -0.44000
O 	O 	0.94020 0.16200 0.00010 -0.58600
O 	O 	0.83800 0.05960 0.00310 -0.58100
O 	O 	0.96520 0.22700 0.88590 -0.44900
O 	O 	0.96460 0.22780 0.11600 -0.40500
O 	O 	0.03850 0.26420 0.11600 -0.52000
O 	O 	0.03670 0.26370 0.88300 -0.43200
O 	O 	0.89260 0.17700 0.11590 -0.42800
O 	O 	0.82210 0.10590 0.12300 -0.41600
O 	O 	0.86950 0.09990 0.90080 -0.29300
O 	O 	0.89090 0.17520 0.88700 -0.39200
O 	O 	0.89970 0.13050 0.89990 -0.29200
O 	O 	0.82250 0.10630 0.88600 -0.38200
C 	C 	0.81630 0.40740 0.73800 0.21600
C 	C 	0.80280 0.40160 0.87450 -0.07100
C 	C 	0.76900 0.38550 0.88330 0.08200
C 	C 	0.75230 0.37760 0.00940 -0.16700
C 	C 	0.77190 0.38700 0.12750 0.08800
C 	C 	0.80580 0.40310 0.13110 -0.07900
C 	C 	0.81990 0.40980 0.99950 0.08800
C 	C 	0.71860 0.36160 0.99400 0.49300
C 	C 	0.81340 0.40620 0.27210 0.22900
C 	C 	0.86830 0.35430 0.50290 -0.22900
C 	C 	0.66110 0.09350 0.49840 -0.13700
C 	C 	0.85920 0.30410 0.50260 -0.15000
C 	C 	0.80420 0.19580 0.74820 0.34300
C 	C 	0.80330 0.19630 0.24370 0.34300
C 	C 	-0.00000 0.33850 0.75640 0.29900
C 	C 	0.69550 0.14060 0.49910 -0.15600
C 	C 	0.90600 0.33820 0.49840 -0.13100
C 	C 	0.63490 0.10040 0.49910 0.14600
C 	C 	0.64710 0.13160 0.50490 -0.20700
C 	C 	0.89970 0.36530 0.49520 0.14600
C 	C 	0.64980 0.05620 0.50150 0.31200
C 	C 	0.94440 0.35020 0.49970 0.28400
C 	C 	0.67430 0.15220 0.50360 0.17300
C 	C 	0.84780 0.32680 0.50140 0.17500
C 	C 	0.86200 0.37900 0.49730 0.39300
C 	C 	0.83160 0.26590 0.50660 0.39500
C 	C 	0.62090 0.13900 0.49860 0.39500
C 	C 	0.73440 0.16890 0.50680 0.41900
C 	C 	0.68890 0.11210 0.49760 0.16000
C 	C 	0.88820 0.31150 0.49940 0.15800
C 	C 	0.00020 0.33860 0.24410 0.30500
C 	C 	0.00010 0.34090 0.00210 0.11100
C 	C 	0.80530 0.19540 0.99720 0.09800
C 	C 	0.81080 0.18490 0.13600 -0.14200
C 	C 	0.81130 0.18440 0.87000 -0.13600
C 	C 	0.01130 0.33250 0.87600 -0.10900
C 	C 	0.98610 0.32040 0.88300 -0.03000
C 	C 	0.01840 0.31120 0.86200 0.08300
C 	C 	0.97910 0.28820 0.86900 0.02100
C 	C 	0.01290 0.33340 0.11700 -0.08100
C 	C 	0.98640 0.32080 0.11800 -0.06000
C 	C 	0.97970 0.28900 0.13200 0.03700
C 	C 	0.01980 0.31000 0.12800 0.06600
C 	C 	0.83870 0.18250 0.87300 0.05000
C 	C 	0.81580 0.15910 0.87700 0.05800
C 	C 	0.83940 0.18350 0.13200 0.04800
C 	C 	0.81680 0.15890 0.12900 0.04900
C 	C 	0.03910 0.27910 0.02200 0.34100
C 	C 	0.95800 0.24070 0.97600 0.22200
C 	C 	0.02730 0.30040 0.00300 -0.12000
C 	C 	0.97430 0.27410 0.99800 -0.05600
C 	C 	0.83430 0.13030 -0.00000 0.15700
C 	C 	0.87070 0.16490 0.00100 0.23300
C 	C 	0.85520 0.17930 0.99700 -0.08800
C 	C 	0.81850 0.14540 0.99600 -0.05900
In	In	0.79316 0.58628 0.49994 1.99700
In	In	0.64120 0.64115 0.50009 1.99100
In	In	0.57936 0.42063 0.50051 1.98700
Mn	Mn	0.82027 0.75464 0.81730 1.19400
Mn	Mn	0.82034 0.75472 0.18280 1.17000
Mn	Mn	0.93422 0.75449 0.81720 1.20400
Mn	Mn	0.93449 0.75469 0.18230 1.18000
O 	O 	0.63604 0.63627 0.73920 -0.39000
O 	O 	0.81210 0.62530 0.35210 -0.44800
O 	O 	0.64940 0.35520 0.10140 -0.52800
O 	O 	0.64903 0.35633 0.88390 -0.53600
O 	O 	0.67670 0.67680 0.64390 -0.43000
O 	O 	0.78960 0.57890 0.25490 -0.39900
O 	O 	0.78940 0.57890 0.74120 -0.39700
O 	O 	0.63658 0.63638 0.26040 -0.39600
O 	O 	0.57610 0.42470 0.24810 -0.31100
O 	O 	0.81260 0.62540 0.64830 -0.46800
O 	O 	0.59160 0.47220 0.49940 -0.43900
O 	O 	0.87990 0.47200 0.49920 -0.45000
O 	O 	0.57580 0.42410 0.75870 -0.31700
O 	O 	0.74280 0.54730 0.50040 -0.47200
O 	O 	0.84110 0.59350 0.50440 -0.49700
O 	O 	0.75230 0.59370 0.50030 -0.48500
O 	O 	0.62182 0.58797 0.50110 -0.40500
O 	O 	0.80470 0.54740 0.50140 -0.48800
O 	O 	0.96504 0.58731 0.50070 -0.40800
O 	O 	0.62690 0.46040 0.50250 -0.47900
O 	O 	0.83320 0.46050 0.50110 -0.48500
O 	O 	0.67330 0.62190 0.50030 -0.44700
O 	O 	0.67670 0.67660 0.35580 -0.43300
O 	O 	0.94840 0.62130 0.50150 -0.45300
O 	O 	0.60110 0.39900 0.64850 -0.39200
O 	O 	0.60020 0.39900 0.36770 -0.44000
O 	O 	0.83800 0.77820 0.00010 -0.58700
O 	O 	0.94040 0.77840 0.00310 -0.58100
O 	O 	0.77300 0.73820 0.88590 -0.44900
O 	O 	0.77220 0.73680 0.11600 -0.40600
O 	O 	0.73580 0.77430 0.11600 -0.51900
O 	O 	0.73630 0.77300 0.88300 -0.43200
O 	O 	0.82300 0.71560 0.11590 -0.42800
O 	O 	0.89410 0.71620 0.12300 -0.41600
O 	O 	0.90010 0.76960 0.90080 -0.29300
O 	O 	0.82480 0.71570 0.88700 -0.39200
O 	O 	0.86950 0.76920 0.89990 -0.29200
O 	O 	0.89370 0.71620 0.88600 -0.38200
C 	C 	0.59260 0.40890 0.73800 0.21700
C 	C 	0.59840 0.40120 0.87450 -0.07100
C 	C 	0.61450 0.38350 0.88330 0.08200
C 	C 	0.62240 0.37470 0.00940 -0.16700
C 	C 	0.61300 0.38490 0.12750 0.08800
C 	C 	0.59690 0.40270 0.13110 -0.07900
C 	C 	0.59020 0.41010 0.99950 0.08800
C 	C 	0.63840 0.35700 0.99400 0.49300
C 	C 	0.59380 0.40720 0.27210 0.22900
C 	C 	0.64570 0.51400 0.50290 -0.22900
C 	C 	0.90650 0.56760 0.49840 -0.13700
C 	C 	0.69590 0.55510 0.50260 -0.15000
C 	C 	0.80420 0.60840 0.74820 0.34300
C 	C 	0.80370 0.60700 0.24370 0.34300
C 	C 	0.66150 0.66150 0.75640 0.29900
C 	C 	0.85940 0.55490 0.49910 -0.15600
C 	C 	0.66180 0.56780 0.49840 -0.13100
C 	C 	0.89960 0.53450 0.49910 0.14600
C 	C 	0.86840 0.51550 0.50490 -0.20700
C 	C 	0.63470 0.53440 0.49520 0.14600
C 	C 	0.94380 0.59360 0.50150 0.31200
C 	C 	0.64980 0.59420 0.49970 0.28400
C 	C 	0.84780 0.52210 0.50360 0.17300
C 	C 	0.67320 0.52100 0.50140 0.17500
C 	C 	0.62100 0.48300 0.49730 0.39300
C 	C 	0.73410 0.56570 0.50660 0.39500
C 	C 	0.86100 0.48190 0.49860 0.39500
C 	C 	0.83110 0.56550 0.50680 0.41900
C 	C 	0.88790 0.57680 0.49760 0.16000
C 	C 	0.68850 0.57670 0.49940 0.15800
C 	C 	0.66140 0.66160 0.24410 0.30700
C 	C 	0.65910 0.65920 0.00210 0.11200
C 	C 	0.80460 0.60990 0.99720 0.09800
C 	C 	0.81510 0.62590 0.13600 -0.14200
C 	C 	0.81560 0.62690 0.87000 -0.13600
C 	C 	0.66750 0.67880 0.87600 -0.10900
C 	C 	0.67960 0.66570 0.88300 -0.03100
C 	C 	0.68880 0.70720 0.86200 0.08400
C 	C 	0.71180 0.69090 0.86900 0.02100
C 	C 	0.66660 0.67950 0.11700 -0.08000
C 	C 	0.67920 0.66560 0.11800 -0.06200
C 	C 	0.71100 0.69070 0.13200 0.03700
C 	C 	0.69000 0.70980 0.12800 0.06600
C 	C 	0.81750 0.65620 0.87300 0.05000
C 	C 	0.84090 0.65670 0.87700 0.05800
C 	C 	0.81650 0.65590 0.13200 0.04800
C 	C 	0.84110 0.65790 0.12900 0.04900
C 	C 	0.72090 0.76000 0.02200 0.34100
C 	C 	0.75930 0.71730 0.97600 0.22200
C 	C 	0.69960 0.72690 0.00300 -0.11900
C 	C 	0.72590 0.70020 0.99800 -0.05600
C 	C 	0.86970 0.70400 -0.00000 0.15700
C 	C 	0.83510 0.70580 0.00100 0.23300
C 	C 	0.82070 0.67590 0.99700 -0.08800
C 	C 	0.85460 0.67310 0.99600 -0.05900
In	In	0.41372 0.20688 0.49994 1.99700
In	In	0.35885 0.00005 0.50009 1.99100
In	In	0.57937 0.15873 0.50051 1.98700
Mn	Mn	0.24536 0.06563 0.81730 1.19400
Mn	Mn	0.24528 0.06562 0.18280 1.17000
Mn	Mn	0.24551 0.17973 0.81720 1.20400
Mn	Mn	0.24531 0.17980 0.18230 1.18000
O 	O 	0.36373 0.99977 0.73920 -0.38900
O 	O 	0.37470 0.18680 0.35210 -0.44800
O 	O 	0.64480 0.29420 0.10140 -0.52800
O 	O 	0.64367 0.29270 0.88390 -0.53700
O 	O 	0.32320 0.99990 0.64390 -0.42900
O 	O 	0.42110 0.21070 0.25490 -0.39900
O 	O 	0.42110 0.21050 0.74120 -0.39700
O 	O 	0.36362 0.00020 0.26040 -0.39700
O 	O 	0.57530 0.15140 0.24810 -0.31100
O 	O 	0.37460 0.18720 0.64830 -0.46800
O 	O 	0.52780 0.11940 0.49940 -0.43900
O 	O 	0.52800 0.40790 0.49920 -0.45100
O 	O 	0.57590 0.15170 0.75870 -0.31700
O 	O 	0.45270 0.19550 0.50040 -0.47200
O 	O 	0.40650 0.24760 0.50440 -0.49700
O 	O 	0.40630 0.15860 0.50030 -0.48500
O 	O 	0.41203 0.03385 0.50110 -0.40500
O 	O 	0.45260 0.25730 0.50140 -0.48800
O 	O 	0.41269 0.37773 0.50070 -0.40800
O 	O 	0.53960 0.16650 0.50250 -0.47900
O 	O 	0.53950 0.37270 0.50110 -0.48500
O 	O 	0.37810 0.05140 0.50030 -0.44700
O 	O 	0.32340 0.00010 0.35580 -0.43300
O 	O 	0.37870 0.32710 0.50150 -0.45400
O 	O 	0.60100 0.20210 0.64850 -0.39200
O 	O 	0.60100 0.20120 0.36770 -0.44000
O 	O 	0.22180 0.05980 0.00010 -0.58700
O 	O 	0.22160 0.16200 0.00310 -0.58100
O 	O 	0.26180 0.03480 0.88590 -0.44900
O 	O 	0.26320 0.03540 0.11600 -0.40600
O 	O 	0.22570 0.96150 0.11600 -0.51900
O 	O 	0.22700 0.96330 0.88300 -0.43200
O 	O 	0.28440 0.10740 0.11590 -0.42800
O 	O 	0.28380 0.17790 0.12300 -0.41600
O 	O 	0.23040 0.13050 0.90080 -0.29300
O 	O 	0.28430 0.10910 0.88700 -0.39200
O 	O 	0.23080 0.10030 0.89990 -0.29200
O 	O 	0.28380 0.17750 0.88600 -0.38200
C 	C 	0.59110 0.18370 0.73800 0.21700
C 	C 	0.59880 0.19720 0.87450 -0.07100
C 	C 	0.61650 0.23100 0.88330 0.08200
C 	C 	0.62530 0.24770 0.00940 -0.16700
C 	C 	0.61510 0.22810 0.12750 0.08800
C 	C 	0.59730 0.19420 0.13110 -0.07900
C 	C 	0.58990 0.18010 0.99950 0.08800
C 	C 	0.64300 0.28140 0.99400 0.49300
C 	C 	0.59280 0.18660 0.27210 0.22900
C 	C 	0.48600 0.13170 0.50290 -0.22900
C 	C 	0.43240 0.33890 0.49840 -0.13700
C 	C 	0.44490 0.14080 0.50260 -0.15000
C 	C 	0.39160 0.19580 0.74820 0.34300
C 	C 	0.39300 0.19670 0.24370 0.34300
C 	C 	0.33850 -0.00000 0.75640 0.29700
C 	C 	0.44510 0.30450 0.49910 -0.15600
C 	C 	0.43220 0.09400 0.49840 -0.13100
C 	C 	0.46550 0.36510 0.49910 0.14600
C 	C 	0.48450 0.35290 0.50490 -0.20700
C 	C 	0.46560 0.10030 0.49520 0.14600
C 	C 	0.40640 0.35020 0.50150 0.31200
C 	C 	0.40580 0.05560 0.49970 0.28400
C 	C 	0.47790 0.32570 0.50360 0.17300
C 	C 	0.47900 0.15220 0.50140 0.17500
C 	C 	0.51700 0.13800 0.49730 0.39300
C 	C 	0.43430 0.16840 0.50660 0.39500
C 	C 	0.51810 0.37910 0.49860 0.39500
C 	C 	0.43450 0.26560 0.50680 0.41900
C 	C 	0.42320 0.31110 0.49760 0.16000
C 	C 	0.42330 0.11180 0.49940 0.15800
C 	C 	0.33840 0.99980 0.24410 0.30900
C 	C 	0.34080 0.99990 0.00210 0.11200
C 	C 	0.39010 0.19470 0.99720 0.09800
C 	C 	0.37410 0.18920 0.13600 -0.14200
C 	C 	0.37310 0.18870 0.87000 -0.13600
C 	C 	0.32120 0.98870 0.87600 -0.10700
C 	C 	0.33430 0.01390 0.88300 -0.03200
C 	C 	0.29280 0.98160 0.86200 0.08300
C 	C 	0.30910 0.02090 0.86900 0.02100
C 	C 	0.32050 0.98710 0.11700 -0.08000
C 	C 	0.33440 0.01360 0.11800 -0.06300
C 	C 	0.30930 0.02030 0.13200 0.03700
C 	C 	0.29020 0.98020 0.12800 0.06600
C 	C 	0.34380 0.16130 0.87300 0.05000
C 	C 	0.34330 0.18420 0.87700 0.05800
C 	C 	0.34410 0.16060 0.13200 0.04800
C 	C 	0.34210 0.18320 0.12900 0.04900
C 	C 	0.24000 0.96090 0.02200 0.34100
C 	C 	0.28270 0.04200 0.97600 0.22200
C 	C 	0.27310 0.97270 0.00300 -0.11900
C 	C 	0.29980 0.02570 0.99800 -0.05700
C 	C 	0.29600 0.16570 -0.00000 0.15700
C 	C 	0.29420 0.12930 0.00100 0.23300
C 	C 	0.32410 0.14480 0.99700 -0.08800
C 	C 	0.32690 0.18150 0.99600 -0.05900
Mn	Mn	0.33333 0.66667 0.21400 1.25500
Mn	Mn	0.33333 0.66667 0.79020 1.25400
Mn	Mn	0.66667 0.33333 0.78600 1.25600
Mn	Mn	0.66667 0.33333 0.20980 1.25500
