data_crystal

_cell_length_a 30.71580
_cell_length_b 30.71580
_cell_length_c 30.71580
_cell_angle_alpha 90.00000
_cell_angle_beta  90.00000
_cell_angle_gamma 90.00000

_symmetry_space_group_name_	'P 1'
_symmetry_space_group_name_H-M	'P 1'

loop_
_symmetry_equiv_pos_as_xyz
  x,y,z

loop_
_atom_site_label
_atom_site_type_symbol
_atom_site_fract_x
_atom_site_fract_y
_atom_site_fract_z
_atom_site_charge
O 	O 	0.59374 0.56022 0.27396 -0.46400
O 	O 	0.56512 0.53216 0.21466 -0.42800
O 	O 	0.40090 0.65340 0.18320 -0.57600
C 	C 	0.56480 0.56020 0.24410 0.33100
C 	C 	0.53010 0.59340 0.24490 -0.14900
C 	C 	0.49860 0.59380 0.21370 0.10900
O 	O 	0.09374 0.06022 0.77396 -0.47400
O 	O 	0.06512 0.03216 0.71466 -0.44900
O 	O 	0.90090 0.15340 0.68320 -0.57500
C 	C 	0.06480 0.06020 0.74410 0.34000
C 	C 	0.03010 0.09340 0.74490 -0.18900
C 	C 	0.99860 0.09380 0.71370 0.15000
O 	O 	0.90626 0.43978 0.77396 -0.45800
O 	O 	0.93488 0.46784 0.71466 -0.41500
O 	O 	0.09910 0.34660 0.68320 -0.57700
C 	C 	0.93520 0.43980 0.74410 0.32200
C 	C 	0.96990 0.40660 0.74490 -0.11000
C 	C 	0.00140 0.40620 0.71370 0.06600
O 	O 	0.40626 0.93978 0.27396 -0.45400
O 	O 	0.43488 0.96784 0.21466 -0.41400
O 	O 	0.59910 0.84660 0.18320 -0.57500
C 	C 	0.43520 0.93980 0.24410 0.33100
C 	C 	0.46990 0.90660 0.24490 -0.14700
C 	C 	0.50140 0.90620 0.21370 0.11400
O 	O 	0.40626 0.06022 0.22604 -0.47200
O 	O 	0.43488 0.03216 0.28534 -0.43800
O 	O 	0.59910 0.15340 0.31680 -0.57700
C 	C 	0.43520 0.06020 0.25590 0.33100
C 	C 	0.46990 0.09340 0.25510 -0.15100
C 	C 	0.50140 0.09380 0.28630 0.10500
O 	O 	0.90626 0.56022 0.72604 -0.45800
O 	O 	0.93488 0.53216 0.78534 -0.41200
O 	O 	0.09910 0.65340 0.81680 -0.57600
C 	C 	0.93520 0.56020 0.75590 0.32300
C 	C 	0.96990 0.59340 0.75510 -0.10900
C 	C 	0.00140 0.59380 0.78630 0.06800
O 	O 	0.09374 0.93978 0.72604 -0.45700
O 	O 	0.06512 0.96784 0.78534 -0.42200
O 	O 	0.90090 0.84660 0.81680 -0.57200
C 	C 	0.06480 0.93980 0.75590 0.34100
C 	C 	0.03010 0.90660 0.75510 -0.18400
C 	C 	0.99860 0.90620 0.78630 0.16200
O 	O 	0.59374 0.43978 0.22604 -0.46400
O 	O 	0.56512 0.46784 0.28534 -0.42500
O 	O 	0.40090 0.34660 0.31680 -0.57500
C 	C 	0.56480 0.43980 0.25590 0.33200
C 	C 	0.53010 0.40660 0.25510 -0.14800
C 	C 	0.49860 0.40620 0.28630 0.11100
O 	O 	0.27396 0.59374 0.56022 -0.46300
O 	O 	0.21466 0.56512 0.53216 -0.42700
O 	O 	0.18320 0.40090 0.65340 -0.57500
C 	C 	0.24410 0.56480 0.56020 0.33200
C 	C 	0.24490 0.53010 0.59340 -0.14800
C 	C 	0.21370 0.49860 0.59380 0.11000
O 	O 	0.77396 0.09374 0.06022 -0.47300
O 	O 	0.71466 0.06512 0.03216 -0.44800
O 	O 	0.68320 0.90090 0.15340 -0.57400
C 	C 	0.74410 0.06480 0.06020 0.34100
C 	C 	0.74490 0.03010 0.09340 -0.18800
C 	C 	0.71370 0.99860 0.09380 0.15100
O 	O 	0.77396 0.90626 0.43978 -0.45700
O 	O 	0.71466 0.93488 0.46784 -0.41400
O 	O 	0.68320 0.09910 0.34660 -0.57600
C 	C 	0.74410 0.93520 0.43980 0.32300
C 	C 	0.74490 0.96990 0.40660 -0.10900
C 	C 	0.71370 0.00140 0.40620 0.06700
O 	O 	0.27396 0.40626 0.93978 -0.45300
O 	O 	0.21466 0.43488 0.96784 -0.41300
O 	O 	0.18320 0.59910 0.84660 -0.57400
C 	C 	0.24410 0.43520 0.93980 0.33200
C 	C 	0.24490 0.46990 0.90660 -0.14600
C 	C 	0.21370 0.50140 0.90620 0.11500
O 	O 	0.22604 0.40626 0.06022 -0.47100
O 	O 	0.28534 0.43488 0.03216 -0.43700
O 	O 	0.31680 0.59910 0.15340 -0.57600
C 	C 	0.25590 0.43520 0.06020 0.33200
C 	C 	0.25510 0.46990 0.09340 -0.15000
C 	C 	0.28630 0.50140 0.09380 0.10600
O 	O 	0.72604 0.90626 0.56022 -0.45800
O 	O 	0.78534 0.93488 0.53216 -0.41200
O 	O 	0.81680 0.09910 0.65340 -0.57600
C 	C 	0.75590 0.93520 0.56020 0.32300
C 	C 	0.75510 0.96990 0.59340 -0.10900
C 	C 	0.78630 0.00140 0.59380 0.06800
O 	O 	0.72604 0.09374 0.93978 -0.45700
O 	O 	0.78534 0.06512 0.96784 -0.42200
O 	O 	0.81680 0.90090 0.84660 -0.57200
C 	C 	0.75590 0.06480 0.93980 0.34100
C 	C 	0.75510 0.03010 0.90660 -0.18400
C 	C 	0.78630 0.99860 0.90620 0.16200
O 	O 	0.22604 0.59374 0.43978 -0.46400
O 	O 	0.28534 0.56512 0.46784 -0.42500
O 	O 	0.31680 0.40090 0.34660 -0.57500
C 	C 	0.25590 0.56480 0.43980 0.33200
C 	C 	0.25510 0.53010 0.40660 -0.14800
C 	C 	0.28630 0.49860 0.40620 0.11100
O 	O 	0.56022 0.27396 0.59374 -0.46300
O 	O 	0.53216 0.21466 0.56512 -0.42700
O 	O 	0.65340 0.18320 0.40090 -0.57500
C 	C 	0.56020 0.24410 0.56480 0.33200
C 	C 	0.59340 0.24490 0.53010 -0.14800
C 	C 	0.59380 0.21370 0.49860 0.11000
O 	O 	0.06022 0.77396 0.09374 -0.47300
O 	O 	0.03216 0.71466 0.06512 -0.44800
O 	O 	0.15340 0.68320 0.90090 -0.57400
C 	C 	0.06020 0.74410 0.06480 0.34100
C 	C 	0.09340 0.74490 0.03010 -0.18800
C 	C 	0.09380 0.71370 0.99860 0.15100
O 	O 	0.43978 0.77396 0.90626 -0.45700
O 	O 	0.46784 0.71466 0.93488 -0.41400
O 	O 	0.34660 0.68320 0.09910 -0.57600
C 	C 	0.43980 0.74410 0.93520 0.32300
C 	C 	0.40660 0.74490 0.96990 -0.10900
C 	C 	0.40620 0.71370 0.00140 0.06700
O 	O 	0.93978 0.27396 0.40626 -0.45300
O 	O 	0.96784 0.21466 0.43488 -0.41300
O 	O 	0.84660 0.18320 0.59910 -0.57400
C 	C 	0.93980 0.24410 0.43520 0.33200
C 	C 	0.90660 0.24490 0.46990 -0.14600
C 	C 	0.90620 0.21370 0.50140 0.11500
O 	O 	0.06022 0.22604 0.40626 -0.47100
O 	O 	0.03216 0.28534 0.43488 -0.43700
O 	O 	0.15340 0.31680 0.59910 -0.57600
C 	C 	0.06020 0.25590 0.43520 0.33200
C 	C 	0.09340 0.25510 0.46990 -0.15000
C 	C 	0.09380 0.28630 0.50140 0.10600
O 	O 	0.56022 0.72604 0.90626 -0.45800
O 	O 	0.53216 0.78534 0.93488 -0.41200
O 	O 	0.65340 0.81680 0.09910 -0.57600
C 	C 	0.56020 0.75590 0.93520 0.32300
C 	C 	0.59340 0.75510 0.96990 -0.10900
C 	C 	0.59380 0.78630 0.00140 0.06800
O 	O 	0.93978 0.72604 0.09374 -0.45700
O 	O 	0.96784 0.78534 0.06512 -0.42200
O 	O 	0.84660 0.81680 0.90090 -0.57200
C 	C 	0.93980 0.75590 0.06480 0.34100
C 	C 	0.90660 0.75510 0.03010 -0.18400
C 	C 	0.90620 0.78630 0.99860 0.16200
O 	O 	0.43978 0.22604 0.59374 -0.46400
O 	O 	0.46784 0.28534 0.56512 -0.42500
O 	O 	0.34660 0.31680 0.40090 -0.57500
C 	C 	0.43980 0.25590 0.56480 0.33200
C 	C 	0.40660 0.25510 0.53010 -0.14800
C 	C 	0.40620 0.28630 0.49860 0.11100
O 	O 	0.31022 0.84374 0.97604 -0.43000
O 	O 	0.28216 0.81512 0.03534 -0.42400
O 	O 	0.40340 0.65090 0.06680 -0.57800
C 	C 	0.31020 0.81480 0.00590 0.29800
C 	C 	0.34340 0.78010 0.00510 -0.16900
C 	C 	0.34380 0.74860 0.03630 0.10700
O 	O 	0.81022 0.34374 0.47604 -0.46100
O 	O 	0.78216 0.31512 0.53534 -0.42500
O 	O 	0.90340 0.15090 0.56680 -0.57300
C 	C 	0.81020 0.31480 0.50590 0.33300
C 	C 	0.84340 0.28010 0.50510 -0.14700
C 	C 	0.84380 0.24860 0.53630 0.11200
O 	O 	0.18978 0.15626 0.47604 -0.46600
O 	O 	0.21784 0.18488 0.53534 -0.42600
O 	O 	0.09660 0.34910 0.56680 -0.57900
C 	C 	0.18980 0.18520 0.50590 0.33100
C 	C 	0.15660 0.21990 0.50510 -0.14800
C 	C 	0.15620 0.25140 0.53630 0.10900
O 	O 	0.68978 0.65626 0.97604 -0.43100
O 	O 	0.71784 0.68488 0.03534 -0.42400
O 	O 	0.59660 0.84910 0.06680 -0.57600
C 	C 	0.68980 0.68520 0.00590 0.29800
C 	C 	0.65660 0.71990 0.00510 -0.16900
C 	C 	0.65620 0.75140 0.03630 0.10700
O 	O 	0.81022 0.65626 0.02396 -0.49000
O 	O 	0.78216 0.68488 0.96466 -0.42300
O 	O 	0.90340 0.84910 0.93320 -0.56600
C 	C 	0.81020 0.68520 0.99410 0.36700
C 	C 	0.84340 0.71990 0.99490 -0.12600
C 	C 	0.84380 0.75140 0.96370 0.11800
O 	O 	0.31022 0.15626 0.52396 -0.46500
O 	O 	0.28216 0.18488 0.46466 -0.42600
O 	O 	0.40340 0.34910 0.43320 -0.57500
C 	C 	0.31020 0.18520 0.49410 0.33200
C 	C 	0.34340 0.21990 0.49490 -0.14800
C 	C 	0.34380 0.25140 0.46370 0.11100
O 	O 	0.68978 0.34374 0.52396 -0.46300
O 	O 	0.71784 0.31512 0.46466 -0.42500
O 	O 	0.59660 0.15090 0.43320 -0.57700
C 	C 	0.68980 0.31480 0.49410 0.33200
C 	C 	0.65660 0.28010 0.49490 -0.14800
C 	C 	0.65620 0.24860 0.46370 0.11100
O 	O 	0.18978 0.84374 0.02396 -0.49100
O 	O 	0.21784 0.81512 0.96466 -0.42400
O 	O 	0.09660 0.65090 0.93320 -0.57500
C 	C 	0.18980 0.81480 0.99410 0.36500
C 	C 	0.15660 0.78010 0.99490 -0.12700
C 	C 	0.15620 0.74860 0.96370 0.11500
O 	O 	0.34374 0.52396 0.68978 -0.46300
O 	O 	0.31512 0.46466 0.71784 -0.42500
O 	O 	0.15090 0.43320 0.59660 -0.57700
C 	C 	0.31480 0.49410 0.68980 0.33200
C 	C 	0.28010 0.49490 0.65660 -0.14800
C 	C 	0.24860 0.46370 0.65620 0.11100
O 	O 	0.84374 0.02396 0.18978 -0.49100
O 	O 	0.81512 0.96466 0.21784 -0.42400
O 	O 	0.65090 0.93320 0.09660 -0.57500
C 	C 	0.81480 0.99410 0.18980 0.36500
C 	C 	0.78010 0.99490 0.15660 -0.12700
C 	C 	0.74860 0.96370 0.15620 0.11500
O 	O 	0.65626 0.02396 0.81022 -0.49000
O 	O 	0.68488 0.96466 0.78216 -0.42300
O 	O 	0.84910 0.93320 0.90340 -0.56600
C 	C 	0.68520 0.99410 0.81020 0.36700
C 	C 	0.71990 0.99490 0.84340 -0.12600
C 	C 	0.75140 0.96370 0.84380 0.11800
O 	O 	0.15626 0.52396 0.31022 -0.46500
O 	O 	0.18488 0.46466 0.28216 -0.42600
O 	O 	0.34910 0.43320 0.40340 -0.57500
C 	C 	0.18520 0.49410 0.31020 0.33200
C 	C 	0.21990 0.49490 0.34340 -0.14800
C 	C 	0.25140 0.46370 0.34380 0.11100
O 	O 	0.15626 0.47604 0.18978 -0.46600
O 	O 	0.18488 0.53534 0.21784 -0.42600
O 	O 	0.34910 0.56680 0.09660 -0.57900
C 	C 	0.18520 0.50590 0.18980 0.33100
C 	C 	0.21990 0.50510 0.15660 -0.14800
C 	C 	0.25140 0.53630 0.15620 0.10900
O 	O 	0.65626 0.97604 0.68978 -0.43100
O 	O 	0.68488 0.03534 0.71784 -0.42400
O 	O 	0.84910 0.06680 0.59660 -0.57600
C 	C 	0.68520 0.00590 0.68980 0.29800
C 	C 	0.71990 0.00510 0.65660 -0.16900
C 	C 	0.75140 0.03630 0.65620 0.10700
O 	O 	0.84374 0.97604 0.31022 -0.43000
O 	O 	0.81512 0.03534 0.28216 -0.42400
O 	O 	0.65090 0.06680 0.40340 -0.57800
C 	C 	0.81480 0.00590 0.31020 0.29800
C 	C 	0.78010 0.00510 0.34340 -0.16900
C 	C 	0.74860 0.03630 0.34380 0.10700
O 	O 	0.34374 0.47604 0.81022 -0.46100
O 	O 	0.31512 0.53534 0.78216 -0.42500
O 	O 	0.15090 0.56680 0.90340 -0.57300
C 	C 	0.31480 0.50590 0.81020 0.33300
C 	C 	0.28010 0.50510 0.84340 -0.14700
C 	C 	0.24860 0.53630 0.84380 0.11200
O 	O 	0.02396 0.81022 0.65626 -0.49000
O 	O 	0.96466 0.78216 0.68488 -0.42300
O 	O 	0.93320 0.90340 0.84910 -0.56600
C 	C 	0.99410 0.81020 0.68520 0.36700
C 	C 	0.99490 0.84340 0.71990 -0.12600
C 	C 	0.96370 0.84380 0.75140 0.11800
O 	O 	0.52396 0.31022 0.15626 -0.46500
O 	O 	0.46466 0.28216 0.18488 -0.42600
O 	O 	0.43320 0.40340 0.34910 -0.57500
C 	C 	0.49410 0.31020 0.18520 0.33200
C 	C 	0.49490 0.34340 0.21990 -0.14800
C 	C 	0.46370 0.34380 0.25140 0.11100
O 	O 	0.52396 0.68978 0.34374 -0.46300
O 	O 	0.46466 0.71784 0.31512 -0.42500
O 	O 	0.43320 0.59660 0.15090 -0.57700
C 	C 	0.49410 0.68980 0.31480 0.33200
C 	C 	0.49490 0.65660 0.28010 -0.14800
C 	C 	0.46370 0.65620 0.24860 0.11100
O 	O 	0.02396 0.18978 0.84374 -0.49100
O 	O 	0.96466 0.21784 0.81512 -0.42400
O 	O 	0.93320 0.09660 0.65090 -0.57500
C 	C 	0.99410 0.18980 0.81480 0.36500
C 	C 	0.99490 0.15660 0.78010 -0.12700
C 	C 	0.96370 0.15620 0.74860 0.11500
O 	O 	0.97604 0.31022 0.84374 -0.43000
O 	O 	0.03534 0.28216 0.81512 -0.42400
O 	O 	0.06680 0.40340 0.65090 -0.57800
C 	C 	0.00590 0.31020 0.81480 0.29800
C 	C 	0.00510 0.34340 0.78010 -0.16900
C 	C 	0.03630 0.34380 0.74860 0.10700
O 	O 	0.47604 0.81022 0.34374 -0.46100
O 	O 	0.53534 0.78216 0.31512 -0.42500
O 	O 	0.56680 0.90340 0.15090 -0.57300
C 	C 	0.50590 0.81020 0.31480 0.33300
C 	C 	0.50510 0.84340 0.28010 -0.14700
C 	C 	0.53630 0.84380 0.24860 0.11200
O 	O 	0.47604 0.18978 0.15626 -0.46600
O 	O 	0.53534 0.21784 0.18488 -0.42600
O 	O 	0.56680 0.09660 0.34910 -0.57900
C 	C 	0.50590 0.18980 0.18520 0.33100
C 	C 	0.50510 0.15660 0.21990 -0.14800
C 	C 	0.53630 0.15620 0.25140 0.10900
O 	O 	0.97604 0.68978 0.65626 -0.43100
O 	O 	0.03534 0.71784 0.68488 -0.42400
O 	O 	0.06680 0.59660 0.84910 -0.57600
C 	C 	0.00590 0.68980 0.68520 0.29800
C 	C 	0.00510 0.65660 0.71990 -0.16900
C 	C 	0.03630 0.65620 0.75140 0.10700
O 	O 	0.40626 0.43978 0.72604 -0.46300
O 	O 	0.43488 0.46784 0.78534 -0.42400
O 	O 	0.59910 0.34660 0.81680 -0.57400
C 	C 	0.43520 0.43980 0.75590 0.33200
C 	C 	0.46990 0.40660 0.75510 -0.14800
C 	C 	0.50140 0.40620 0.78630 0.11300
O 	O 	0.90626 0.93978 0.22604 -0.45000
O 	O 	0.93488 0.96784 0.28534 -0.40100
O 	O 	0.09910 0.84660 0.31680 -0.57600
C 	C 	0.93520 0.93980 0.25590 0.32300
C 	C 	0.96990 0.90660 0.25510 -0.10800
C 	C 	0.00140 0.90620 0.28630 0.07200
O 	O 	0.09374 0.56022 0.22604 -0.46800
O 	O 	0.06512 0.53216 0.28534 -0.43700
O 	O 	0.90090 0.65340 0.31680 -0.57300
C 	C 	0.06480 0.56020 0.25590 0.34100
C 	C 	0.03010 0.59340 0.25510 -0.18700
C 	C 	0.99860 0.59380 0.28630 0.15600
O 	O 	0.59374 0.06022 0.72604 -0.47000
O 	O 	0.56512 0.03216 0.78534 -0.43500
O 	O 	0.40090 0.15340 0.81680 -0.57500
C 	C 	0.56480 0.06020 0.75590 0.33200
C 	C 	0.53010 0.09340 0.75510 -0.15000
C 	C 	0.49860 0.09380 0.78630 0.10800
O 	O 	0.59374 0.93978 0.77396 -0.45200
O 	O 	0.56512 0.96784 0.71466 -0.41200
O 	O 	0.40090 0.84660 0.68320 -0.57400
C 	C 	0.56480 0.93980 0.74410 0.33200
C 	C 	0.53010 0.90660 0.74490 -0.14600
C 	C 	0.49860 0.90620 0.71370 0.11600
O 	O 	0.09374 0.43978 0.27396 -0.46700
O 	O 	0.06512 0.46784 0.21466 -0.43800
O 	O 	0.90090 0.34660 0.18320 -0.57400
C 	C 	0.06480 0.43980 0.24410 0.34100
C 	C 	0.03010 0.40660 0.24490 -0.18600
C 	C 	0.99860 0.40620 0.21370 0.15500
O 	O 	0.90626 0.06022 0.27396 -0.46600
O 	O 	0.93488 0.03216 0.21466 -0.42700
O 	O 	0.09910 0.15340 0.18320 -0.57800
C 	C 	0.93520 0.06020 0.24410 0.32300
C 	C 	0.96990 0.09340 0.24490 -0.11100
C 	C 	0.00140 0.09380 0.21370 0.06100
O 	O 	0.40626 0.56022 0.77396 -0.46100
O 	O 	0.43488 0.53216 0.71466 -0.42500
O 	O 	0.59910 0.65340 0.68320 -0.57500
C 	C 	0.43520 0.56020 0.74410 0.33200
C 	C 	0.46990 0.59340 0.74490 -0.14800
C 	C 	0.50140 0.59380 0.71370 0.11100
O 	O 	0.72604 0.40626 0.43978 -0.46300
O 	O 	0.78534 0.43488 0.46784 -0.42400
O 	O 	0.81680 0.59910 0.34660 -0.57400
C 	C 	0.75590 0.43520 0.43980 0.33200
C 	C 	0.75510 0.46990 0.40660 -0.14800
C 	C 	0.78630 0.50140 0.40620 0.11300
O 	O 	0.22604 0.90626 0.93978 -0.45000
O 	O 	0.28534 0.93488 0.96784 -0.40100
O 	O 	0.31680 0.09910 0.84660 -0.57600
C 	C 	0.25590 0.93520 0.93980 0.32300
C 	C 	0.25510 0.96990 0.90660 -0.10800
C 	C 	0.28630 0.00140 0.90620 0.07200
O 	O 	0.22604 0.09374 0.56022 -0.46800
O 	O 	0.28534 0.06512 0.53216 -0.43700
O 	O 	0.31680 0.90090 0.65340 -0.57300
C 	C 	0.25590 0.06480 0.56020 0.34100
C 	C 	0.25510 0.03010 0.59340 -0.18700
C 	C 	0.28630 0.99860 0.59380 0.15600
O 	O 	0.72604 0.59374 0.06022 -0.47000
O 	O 	0.78534 0.56512 0.03216 -0.43500
O 	O 	0.81680 0.40090 0.15340 -0.57500
C 	C 	0.75590 0.56480 0.06020 0.33200
C 	C 	0.75510 0.53010 0.09340 -0.15000
C 	C 	0.78630 0.49860 0.09380 0.10800
O 	O 	0.77396 0.59374 0.93978 -0.45200
O 	O 	0.71466 0.56512 0.96784 -0.41200
O 	O 	0.68320 0.40090 0.84660 -0.57400
C 	C 	0.74410 0.56480 0.93980 0.33200
C 	C 	0.74490 0.53010 0.90660 -0.14600
C 	C 	0.71370 0.49860 0.90620 0.11600
O 	O 	0.27396 0.09374 0.43978 -0.46700
O 	O 	0.21466 0.06512 0.46784 -0.43800
O 	O 	0.18320 0.90090 0.34660 -0.57400
C 	C 	0.24410 0.06480 0.43980 0.34100
C 	C 	0.24490 0.03010 0.40660 -0.18600
C 	C 	0.21370 0.99860 0.40620 0.15500
O 	O 	0.27396 0.90626 0.06022 -0.46600
O 	O 	0.21466 0.93488 0.03216 -0.42700
O 	O 	0.18320 0.09910 0.15340 -0.57800
C 	C 	0.24410 0.93520 0.06020 0.32300
C 	C 	0.24490 0.96990 0.09340 -0.11100
C 	C 	0.21370 0.00140 0.09380 0.06100
O 	O 	0.77396 0.40626 0.56022 -0.46100
O 	O 	0.71466 0.43488 0.53216 -0.42500
O 	O 	0.68320 0.59910 0.65340 -0.57500
C 	C 	0.74410 0.43520 0.56020 0.33200
C 	C 	0.74490 0.46990 0.59340 -0.14800
C 	C 	0.71370 0.50140 0.59380 0.11100
O 	O 	0.43978 0.72604 0.40626 -0.46300
O 	O 	0.46784 0.78534 0.43488 -0.42400
O 	O 	0.34660 0.81680 0.59910 -0.57400
C 	C 	0.43980 0.75590 0.43520 0.33200
C 	C 	0.40660 0.75510 0.46990 -0.14800
C 	C 	0.40620 0.78630 0.50140 0.11300
O 	O 	0.93978 0.22604 0.90626 -0.45000
O 	O 	0.96784 0.28534 0.93488 -0.40100
O 	O 	0.84660 0.31680 0.09910 -0.57600
C 	C 	0.93980 0.25590 0.93520 0.32300
C 	C 	0.90660 0.25510 0.96990 -0.10800
C 	C 	0.90620 0.28630 0.00140 0.07200
O 	O 	0.56022 0.22604 0.09374 -0.46800
O 	O 	0.53216 0.28534 0.06512 -0.43700
O 	O 	0.65340 0.31680 0.90090 -0.57300
C 	C 	0.56020 0.25590 0.06480 0.34100
C 	C 	0.59340 0.25510 0.03010 -0.18700
C 	C 	0.59380 0.28630 0.99860 0.15600
O 	O 	0.06022 0.72604 0.59374 -0.47000
O 	O 	0.03216 0.78534 0.56512 -0.43500
O 	O 	0.15340 0.81680 0.40090 -0.57500
C 	C 	0.06020 0.75590 0.56480 0.33200
C 	C 	0.09340 0.75510 0.53010 -0.15000
C 	C 	0.09380 0.78630 0.49860 0.10800
O 	O 	0.93978 0.77396 0.59374 -0.45200
O 	O 	0.96784 0.71466 0.56512 -0.41200
O 	O 	0.84660 0.68320 0.40090 -0.57400
C 	C 	0.93980 0.74410 0.56480 0.33200
C 	C 	0.90660 0.74490 0.53010 -0.14600
C 	C 	0.90620 0.71370 0.49860 0.11600
O 	O 	0.43978 0.27396 0.09374 -0.46700
O 	O 	0.46784 0.21466 0.06512 -0.43800
O 	O 	0.34660 0.18320 0.90090 -0.57400
C 	C 	0.43980 0.24410 0.06480 0.34100
C 	C 	0.40660 0.24490 0.03010 -0.18600
C 	C 	0.40620 0.21370 0.99860 0.15500
O 	O 	0.06022 0.27396 0.90626 -0.46600
O 	O 	0.03216 0.21466 0.93488 -0.42700
O 	O 	0.15340 0.18320 0.09910 -0.57800
C 	C 	0.06020 0.24410 0.93520 0.32300
C 	C 	0.09340 0.24490 0.96990 -0.11100
C 	C 	0.09380 0.21370 0.00140 0.06100
O 	O 	0.56022 0.77396 0.40626 -0.46100
O 	O 	0.53216 0.71466 0.43488 -0.42500
O 	O 	0.65340 0.68320 0.59910 -0.57500
C 	C 	0.56020 0.74410 0.43520 0.33200
C 	C 	0.59340 0.74490 0.46990 -0.14800
C 	C 	0.59380 0.71370 0.50140 0.11100
O 	O 	0.68978 0.15626 0.02396 -0.49400
O 	O 	0.71784 0.18488 0.96466 -0.42400
O 	O 	0.59660 0.34910 0.93320 -0.57200
C 	C 	0.68980 0.18520 0.99410 0.36600
C 	C 	0.65660 0.21990 0.99490 -0.12700
C 	C 	0.65620 0.25140 0.96370 0.11600
O 	O 	0.18978 0.65626 0.52396 -0.46400
O 	O 	0.21784 0.68488 0.46466 -0.42600
O 	O 	0.09660 0.84910 0.43320 -0.57700
C 	C 	0.18980 0.68520 0.49410 0.33100
C 	C 	0.15660 0.71990 0.49490 -0.14800
C 	C 	0.15620 0.75140 0.46370 0.11000
O 	O 	0.81022 0.84374 0.52396 -0.45900
O 	O 	0.78216 0.81512 0.46466 -0.42400
O 	O 	0.90340 0.65090 0.43320 -0.57100
C 	C 	0.81020 0.81480 0.49410 0.33300
C 	C 	0.84340 0.78010 0.49490 -0.14700
C 	C 	0.84380 0.74860 0.46370 0.11300
O 	O 	0.31022 0.34374 0.02396 -0.49200
O 	O 	0.28216 0.31512 0.96466 -0.42400
O 	O 	0.40340 0.15090 0.93320 -0.57300
C 	C 	0.31020 0.31480 0.99410 0.36600
C 	C 	0.34340 0.28010 0.99490 -0.12600
C 	C 	0.34380 0.24860 0.96370 0.11600
O 	O 	0.18978 0.34374 0.97604 -0.43300
O 	O 	0.21784 0.31512 0.03534 -0.42600
O 	O 	0.09660 0.15090 0.06680 -0.58300
C 	C 	0.18980 0.31480 0.00590 0.29700
C 	C 	0.15660 0.28010 0.00510 -0.16900
C 	C 	0.15620 0.24860 0.03630 0.10400
O 	O 	0.68978 0.84374 0.47604 -0.46100
O 	O 	0.71784 0.81512 0.53534 -0.42500
O 	O 	0.59660 0.65090 0.56680 -0.57500
C 	C 	0.68980 0.81480 0.50590 0.33200
C 	C 	0.65660 0.78010 0.50510 -0.14800
C 	C 	0.65620 0.74860 0.53630 0.11200
O 	O 	0.31022 0.65626 0.47604 -0.46300
O 	O 	0.28216 0.68488 0.53534 -0.42500
O 	O 	0.40340 0.84910 0.56680 -0.57300
C 	C 	0.31020 0.68520 0.50590 0.33200
C 	C 	0.34340 0.71990 0.50510 -0.14800
C 	C 	0.34380 0.75140 0.53630 0.11200
O 	O 	0.81022 0.15626 0.97604 -0.43200
O 	O 	0.78216 0.18488 0.03534 -0.42500
O 	O 	0.90340 0.34910 0.06680 -0.57400
C 	C 	0.81020 0.18520 0.00590 0.29900
C 	C 	0.84340 0.21990 0.00510 -0.16900
C 	C 	0.84380 0.25140 0.03630 0.10800
O 	O 	0.65626 0.47604 0.31022 -0.46300
O 	O 	0.68488 0.53534 0.28216 -0.42500
O 	O 	0.84910 0.56680 0.40340 -0.57300
C 	C 	0.68520 0.50590 0.31020 0.33200
C 	C 	0.71990 0.50510 0.34340 -0.14800
C 	C 	0.75140 0.53630 0.34380 0.11200
O 	O 	0.15626 0.97604 0.81022 -0.43200
O 	O 	0.18488 0.03534 0.78216 -0.42500
O 	O 	0.34910 0.06680 0.90340 -0.57400
C 	C 	0.18520 0.00590 0.81020 0.29900
C 	C 	0.21990 0.00510 0.84340 -0.16900
C 	C 	0.25140 0.03630 0.84380 0.10800
O 	O 	0.34374 0.97604 0.18978 -0.43300
O 	O 	0.31512 0.03534 0.21784 -0.42600
O 	O 	0.15090 0.06680 0.09660 -0.58300
C 	C 	0.31480 0.00590 0.18980 0.29700
C 	C 	0.28010 0.00510 0.15660 -0.16900
C 	C 	0.24860 0.03630 0.15620 0.10400
O 	O 	0.84374 0.47604 0.68978 -0.46100
O 	O 	0.81512 0.53534 0.71784 -0.42500
O 	O 	0.65090 0.56680 0.59660 -0.57500
C 	C 	0.81480 0.50590 0.68980 0.33200
C 	C 	0.78010 0.50510 0.65660 -0.14800
C 	C 	0.74860 0.53630 0.65620 0.11200
O 	O 	0.84374 0.52396 0.81022 -0.45900
O 	O 	0.81512 0.46466 0.78216 -0.42400
O 	O 	0.65090 0.43320 0.90340 -0.57100
C 	C 	0.81480 0.49410 0.81020 0.33300
C 	C 	0.78010 0.49490 0.84340 -0.14700
C 	C 	0.74860 0.46370 0.84380 0.11300
O 	O 	0.34374 0.02396 0.31022 -0.49200
O 	O 	0.31512 0.96466 0.28216 -0.42400
O 	O 	0.15090 0.93320 0.40340 -0.57300
C 	C 	0.31480 0.99410 0.31020 0.36600
C 	C 	0.28010 0.99490 0.34340 -0.12600
C 	C 	0.24860 0.96370 0.34380 0.11600
O 	O 	0.15626 0.02396 0.68978 -0.49400
O 	O 	0.18488 0.96466 0.71784 -0.42400
O 	O 	0.34910 0.93320 0.59660 -0.57200
C 	C 	0.18520 0.99410 0.68980 0.36600
C 	C 	0.21990 0.99490 0.65660 -0.12700
C 	C 	0.25140 0.96370 0.65620 0.11600
O 	O 	0.65626 0.52396 0.18978 -0.46400
O 	O 	0.68488 0.46466 0.21784 -0.42600
O 	O 	0.84910 0.43320 0.09660 -0.57700
C 	C 	0.68520 0.49410 0.18980 0.33100
C 	C 	0.71990 0.49490 0.15660 -0.14800
C 	C 	0.75140 0.46370 0.15620 0.11000
O 	O 	0.97604 0.18978 0.34374 -0.43300
O 	O 	0.03534 0.21784 0.31512 -0.42600
O 	O 	0.06680 0.09660 0.15090 -0.58300
C 	C 	0.00590 0.18980 0.31480 0.29700
C 	C 	0.00510 0.15660 0.28010 -0.16900
C 	C 	0.03630 0.15620 0.24860 0.10400
O 	O 	0.47604 0.68978 0.84374 -0.46100
O 	O 	0.53534 0.71784 0.81512 -0.42500
O 	O 	0.56680 0.59660 0.65090 -0.57500
C 	C 	0.50590 0.68980 0.81480 0.33200
C 	C 	0.50510 0.65660 0.78010 -0.14800
C 	C 	0.53630 0.65620 0.74860 0.11200
O 	O 	0.47604 0.31022 0.65626 -0.46300
O 	O 	0.53534 0.28216 0.68488 -0.42500
O 	O 	0.56680 0.40340 0.84910 -0.57300
C 	C 	0.50590 0.31020 0.68520 0.33200
C 	C 	0.50510 0.34340 0.71990 -0.14800
C 	C 	0.53630 0.34380 0.75140 0.11200
O 	O 	0.97604 0.81022 0.15626 -0.43200
O 	O 	0.03534 0.78216 0.18488 -0.42500
O 	O 	0.06680 0.90340 0.34910 -0.57400
C 	C 	0.00590 0.81020 0.18520 0.29900
C 	C 	0.00510 0.84340 0.21990 -0.16900
C 	C 	0.03630 0.84380 0.25140 0.10800
O 	O 	0.02396 0.68978 0.15626 -0.49400
O 	O 	0.96466 0.71784 0.18488 -0.42400
O 	O 	0.93320 0.59660 0.34910 -0.57200
C 	C 	0.99410 0.68980 0.18520 0.36600
C 	C 	0.99490 0.65660 0.21990 -0.12700
C 	C 	0.96370 0.65620 0.25140 0.11600
O 	O 	0.52396 0.18978 0.65626 -0.46400
O 	O 	0.46466 0.21784 0.68488 -0.42600
O 	O 	0.43320 0.09660 0.84910 -0.57700
C 	C 	0.49410 0.18980 0.68520 0.33100
C 	C 	0.49490 0.15660 0.71990 -0.14800
C 	C 	0.46370 0.15620 0.75140 0.11000
O 	O 	0.52396 0.81022 0.84374 -0.45900
O 	O 	0.46466 0.78216 0.81512 -0.42400
O 	O 	0.43320 0.90340 0.65090 -0.57100
C 	C 	0.49410 0.81020 0.81480 0.33300
C 	C 	0.49490 0.84340 0.78010 -0.14700
C 	C 	0.46370 0.84380 0.74860 0.11300
O 	O 	0.02396 0.31022 0.34374 -0.49200
O 	O 	0.96466 0.28216 0.31512 -0.42400
O 	O 	0.93320 0.40340 0.15090 -0.57300
C 	C 	0.99410 0.31020 0.31480 0.36600
C 	C 	0.99490 0.34340 0.28010 -0.12600
C 	C 	0.96370 0.34380 0.24860 0.11600
In	In	0.62500 0.50000 0.25000 1.99700
In	In	0.87500 0.50000 0.75000 1.99700
In	In	0.37500 0.00000 0.25000 1.98900
In	In	0.12500 0.00000 0.75000 1.98900
In	In	0.25000 0.62500 0.50000 1.99700
In	In	0.75000 0.87500 0.50000 1.99700
In	In	0.25000 0.37500 -0.00000 1.98900
In	In	0.75000 0.12500 -0.00000 1.98900
In	In	0.50000 0.25000 0.62500 1.99700
In	In	0.50000 0.75000 0.87500 1.99700
In	In	0.00000 0.25000 0.37500 1.98900
In	In	0.00000 0.75000 0.12500 1.98900
In	In	0.25000 0.87500 -0.00000 1.98900
In	In	0.25000 0.12500 0.50000 1.99700
In	In	0.75000 0.62500 -0.00000 1.98900
In	In	0.75000 0.37500 0.50000 1.99700
In	In	0.37500 0.50000 0.75000 1.99700
In	In	0.62500 0.00000 0.75000 1.98900
In	In	0.12500 0.50000 0.25000 1.99700
In	In	0.87500 0.00000 0.25000 1.98900
In	In	0.00000 0.75000 0.62500 1.98900
In	In	0.50000 0.75000 0.37500 1.99700
In	In	-0.00000 0.25000 0.87500 1.98900
In	In	0.50000 0.25000 0.12500 1.99700
Co	Co	0.33069 0.66931 0.16931 0.66000
Co	Co	0.34645 0.65355 0.15355 0.76300
Co	Co	0.83069 0.16931 0.66931 0.66100
Co	Co	0.84645 0.15355 0.65355 0.76400
Co	Co	0.16931 0.33069 0.66931 0.66000
Co	Co	0.15355 0.34645 0.65355 0.76300
Co	Co	0.66931 0.83069 0.16931 0.66100
Co	Co	0.65355 0.84645 0.15355 0.76400
Co	Co	0.66931 0.16931 0.33069 0.66000
Co	Co	0.65355 0.15355 0.34645 0.76300
Co	Co	0.16931 0.66931 0.83069 0.66100
Co	Co	0.15355 0.65355 0.84645 0.76400
Co	Co	0.83069 0.83069 0.83069 0.66300
Co	Co	0.84645 0.84645 0.84645 0.76400
Co	Co	0.33069 0.33069 0.33069 0.66000
Co	Co	0.34645 0.34645 0.34645 0.76400
Co	Co	0.41931 0.58069 0.08069 0.65700
Co	Co	0.40355 0.59645 0.09645 0.76400
Co	Co	0.91931 0.08069 0.58069 0.66100
Co	Co	0.90355 0.09645 0.59645 0.76400
Co	Co	0.08069 0.41931 0.58069 0.65700
Co	Co	0.09645 0.40355 0.59645 0.76400
Co	Co	0.58069 0.91931 0.08069 0.66100
Co	Co	0.59645 0.90355 0.09645 0.76400
Co	Co	0.91931 0.91931 0.91931 0.67300
Co	Co	0.90355 0.90355 0.90355 0.76400
Co	Co	0.41931 0.41931 0.41931 0.66100
Co	Co	0.40355 0.40355 0.40355 0.76400
Co	Co	0.58069 0.08069 0.41931 0.65700
Co	Co	0.59645 0.09645 0.40355 0.76400
Co	Co	0.08069 0.58069 0.91931 0.66100
Co	Co	0.09645 0.59645 0.90355 0.76400
Co	Co	0.66931 0.33069 0.83069 0.66100
Co	Co	0.65355 0.34645 0.84645 0.76400
Co	Co	0.16931 0.83069 0.33069 0.66100
Co	Co	0.15355 0.84645 0.34645 0.76400
Co	Co	0.83069 0.66931 0.33069 0.66100
Co	Co	0.84645 0.65355 0.34645 0.76400
Co	Co	0.33069 0.16931 0.83069 0.66100
Co	Co	0.34645 0.15355 0.84645 0.76400
Co	Co	0.33069 0.83069 0.66931 0.66100
Co	Co	0.34645 0.84645 0.65355 0.76400
Co	Co	0.83069 0.33069 0.16931 0.66100
Co	Co	0.84645 0.34645 0.15355 0.76400
Co	Co	0.16931 0.16931 0.16931 0.65900
Co	Co	0.15355 0.15355 0.15355 0.76300
Co	Co	0.66931 0.66931 0.66931 0.66100
Co	Co	0.65355 0.65355 0.65355 0.76400
Co	Co	0.58069 0.41931 0.91931 0.66500
Co	Co	0.59645 0.40355 0.90355 0.76400
Co	Co	0.08069 0.91931 0.41931 0.66100
Co	Co	0.09645 0.90355 0.40355 0.76400
Co	Co	0.91931 0.58069 0.41931 0.66500
Co	Co	0.90355 0.59645 0.40355 0.76400
Co	Co	0.41931 0.08069 0.91931 0.66100
Co	Co	0.40355 0.09645 0.90355 0.76400
Co	Co	0.08069 0.08069 0.08069 0.64900
Co	Co	0.09645 0.09645 0.09645 0.76300
Co	Co	0.58069 0.58069 0.58069 0.66100
Co	Co	0.59645 0.59645 0.59645 0.76400
Co	Co	0.41931 0.91931 0.58069 0.66500
Co	Co	0.40355 0.90355 0.59645 0.76400
Co	Co	0.91931 0.41931 0.08069 0.66100
Co	Co	0.90355 0.40355 0.09645 0.76400
C 	C 	0.52960 0.62500 0.27960 0.11000
C 	C 	0.42940 0.62500 0.17940 0.45600
C 	C 	0.46540 0.62500 0.21540 -0.18100
C 	C 	0.02960 0.12500 0.77960 0.08800
C 	C 	0.92940 0.12500 0.67940 0.46000
C 	C 	0.96540 0.12500 0.71540 -0.18800
C 	C 	0.97040 0.37500 0.77960 0.13300
C 	C 	0.07060 0.37500 0.67940 0.45200
C 	C 	0.03460 0.37500 0.71540 -0.17400
C 	C 	0.47040 0.87500 0.27960 0.11300
C 	C 	0.57060 0.87500 0.17940 0.45700
C 	C 	0.53460 0.87500 0.21540 -0.18000
C 	C 	0.47040 0.12500 0.22040 0.10600
C 	C 	0.57060 0.12500 0.32060 0.45600
C 	C 	0.53460 0.12500 0.28460 -0.18100
C 	C 	0.97040 0.62500 0.72040 0.13100
C 	C 	0.07060 0.62500 0.82060 0.45200
C 	C 	0.03460 0.62500 0.78460 -0.17300
C 	C 	0.02960 0.87500 0.72040 0.09300
C 	C 	0.92940 0.87500 0.82060 0.46200
C 	C 	0.96540 0.87500 0.78460 -0.18600
C 	C 	0.52960 0.37500 0.22040 0.10900
C 	C 	0.42940 0.37500 0.32060 0.45700
C 	C 	0.46540 0.37500 0.28460 -0.18000
C 	C 	0.27960 0.52960 0.62500 0.11000
C 	C 	0.17940 0.42940 0.62500 0.45600
C 	C 	0.21540 0.46540 0.62500 -0.18100
C 	C 	0.77960 0.02960 0.12500 0.08800
C 	C 	0.67940 0.92940 0.12500 0.46000
C 	C 	0.71540 0.96540 0.12500 -0.18800
C 	C 	0.77960 0.97040 0.37500 0.13300
C 	C 	0.67940 0.07060 0.37500 0.45200
C 	C 	0.71540 0.03460 0.37500 -0.17400
C 	C 	0.27960 0.47040 0.87500 0.11300
C 	C 	0.17940 0.57060 0.87500 0.45700
C 	C 	0.21540 0.53460 0.87500 -0.18000
C 	C 	0.22040 0.47040 0.12500 0.10600
C 	C 	0.32060 0.57060 0.12500 0.45600
C 	C 	0.28460 0.53460 0.12500 -0.18100
C 	C 	0.72040 0.97040 0.62500 0.13100
C 	C 	0.82060 0.07060 0.62500 0.45200
C 	C 	0.78460 0.03460 0.62500 -0.17300
C 	C 	0.72040 0.02960 0.87500 0.09300
C 	C 	0.82060 0.92940 0.87500 0.46200
C 	C 	0.78460 0.96540 0.87500 -0.18600
C 	C 	0.22040 0.52960 0.37500 0.10900
C 	C 	0.32060 0.42940 0.37500 0.45700
C 	C 	0.28460 0.46540 0.37500 -0.18000
C 	C 	0.62500 0.27960 0.52960 0.11000
C 	C 	0.62500 0.17940 0.42940 0.45600
C 	C 	0.62500 0.21540 0.46540 -0.18100
C 	C 	0.12500 0.77960 0.02960 0.08800
C 	C 	0.12500 0.67940 0.92940 0.46000
C 	C 	0.12500 0.71540 0.96540 -0.18800
C 	C 	0.37500 0.77960 0.97040 0.13300
C 	C 	0.37500 0.67940 0.07060 0.45200
C 	C 	0.37500 0.71540 0.03460 -0.17400
C 	C 	0.87500 0.27960 0.47040 0.11300
C 	C 	0.87500 0.17940 0.57060 0.45700
C 	C 	0.87500 0.21540 0.53460 -0.18000
C 	C 	0.12500 0.22040 0.47040 0.10600
C 	C 	0.12500 0.32060 0.57060 0.45600
C 	C 	0.12500 0.28460 0.53460 -0.18100
C 	C 	0.62500 0.72040 0.97040 0.13100
C 	C 	0.62500 0.82060 0.07060 0.45200
C 	C 	0.62500 0.78460 0.03460 -0.17300
C 	C 	0.87500 0.72040 0.02960 0.09300
C 	C 	0.87500 0.82060 0.92940 0.46200
C 	C 	0.87500 0.78460 0.96540 -0.18600
C 	C 	0.37500 0.22040 0.52960 0.10900
C 	C 	0.37500 0.32060 0.42940 0.45700
C 	C 	0.37500 0.28460 0.46540 -0.18000
C 	C 	0.47040 0.37500 0.72040 0.11100
C 	C 	0.57060 0.37500 0.82060 0.45700
C 	C 	0.53460 0.37500 0.78460 -0.18000
C 	C 	0.97040 0.87500 0.22040 0.13200
C 	C 	0.07060 0.87500 0.32060 0.45300
C 	C 	0.03460 0.87500 0.28460 -0.17300
C 	C 	0.02960 0.62500 0.22040 0.08800
C 	C 	0.92940 0.62500 0.32060 0.46100
C 	C 	0.96540 0.62500 0.28460 -0.18700
C 	C 	0.52960 0.12500 0.72040 0.10800
C 	C 	0.42940 0.12500 0.82060 0.45600
C 	C 	0.46540 0.12500 0.78460 -0.18100
C 	C 	0.52960 0.87500 0.77960 0.11500
C 	C 	0.42940 0.87500 0.67940 0.45700
C 	C 	0.46540 0.87500 0.71540 -0.18000
C 	C 	0.02960 0.37500 0.27960 0.08900
C 	C 	0.92940 0.37500 0.17940 0.46100
C 	C 	0.96540 0.37500 0.21540 -0.18700
C 	C 	0.97040 0.12500 0.27960 0.12800
C 	C 	0.07060 0.12500 0.17940 0.45200
C 	C 	0.03460 0.12500 0.21540 -0.17400
C 	C 	0.47040 0.62500 0.77960 0.11200
C 	C 	0.57060 0.62500 0.67940 0.45700
C 	C 	0.53460 0.62500 0.71540 -0.18000
C 	C 	0.72040 0.47040 0.37500 0.11100
C 	C 	0.82060 0.57060 0.37500 0.45700
C 	C 	0.78460 0.53460 0.37500 -0.18000
C 	C 	0.22040 0.97040 0.87500 0.13200
C 	C 	0.32060 0.07060 0.87500 0.45300
C 	C 	0.28460 0.03460 0.87500 -0.17300
C 	C 	0.22040 0.02960 0.62500 0.08800
C 	C 	0.32060 0.92940 0.62500 0.46100
C 	C 	0.28460 0.96540 0.62500 -0.18700
C 	C 	0.72040 0.52960 0.12500 0.10800
C 	C 	0.82060 0.42940 0.12500 0.45600
C 	C 	0.78460 0.46540 0.12500 -0.18100
C 	C 	0.77960 0.52960 0.87500 0.11500
C 	C 	0.67940 0.42940 0.87500 0.45700
C 	C 	0.71540 0.46540 0.87500 -0.18000
C 	C 	0.27960 0.02960 0.37500 0.08900
C 	C 	0.17940 0.92940 0.37500 0.46100
C 	C 	0.21540 0.96540 0.37500 -0.18700
C 	C 	0.27960 0.97040 0.12500 0.12800
C 	C 	0.17940 0.07060 0.12500 0.45200
C 	C 	0.21540 0.03460 0.12500 -0.17400
C 	C 	0.77960 0.47040 0.62500 0.11200
C 	C 	0.67940 0.57060 0.62500 0.45700
C 	C 	0.71540 0.53460 0.62500 -0.18000
C 	C 	0.37500 0.72040 0.47040 0.11100
C 	C 	0.37500 0.82060 0.57060 0.45700
C 	C 	0.37500 0.78460 0.53460 -0.18000
C 	C 	0.87500 0.22040 0.97040 0.13200
C 	C 	0.87500 0.32060 0.07060 0.45300
C 	C 	0.87500 0.28460 0.03460 -0.17300
C 	C 	0.62500 0.22040 0.02960 0.08800
C 	C 	0.62500 0.32060 0.92940 0.46100
C 	C 	0.62500 0.28460 0.96540 -0.18700
C 	C 	0.12500 0.72040 0.52960 0.10800
C 	C 	0.12500 0.82060 0.42940 0.45600
C 	C 	0.12500 0.78460 0.46540 -0.18100
C 	C 	0.87500 0.77960 0.52960 0.11500
C 	C 	0.87500 0.67940 0.42940 0.45700
C 	C 	0.87500 0.71540 0.46540 -0.18000
C 	C 	0.37500 0.27960 0.02960 0.08900
C 	C 	0.37500 0.17940 0.92940 0.46100
C 	C 	0.37500 0.21540 0.96540 -0.18700
C 	C 	0.12500 0.27960 0.97040 0.12800
C 	C 	0.12500 0.17940 0.07060 0.45200
C 	C 	0.12500 0.21540 0.03460 -0.17400
C 	C 	0.62500 0.77960 0.47040 0.11200
C 	C 	0.62500 0.67940 0.57060 0.45700
C 	C 	0.62500 0.71540 0.53460 -0.18000
