data_crystal

_cell_length_a 30.71590
_cell_length_b 30.71590
_cell_length_c 30.71590
_cell_angle_alpha 90.00000
_cell_angle_beta  90.00000
_cell_angle_gamma 90.00000

_symmetry_space_group_name_	'P 1'
_symmetry_space_group_name_H-M	'P 1'

loop_
_symmetry_equiv_pos_as_xyz
  x,y,z

loop_
_atom_site_label
_atom_site_type_symbol
_atom_site_fract_x
_atom_site_fract_y
_atom_site_fract_z
_atom_site_charge
O 	O 	0.77310 0.09350 0.06030 -0.49500
O 	O 	0.71480 0.06460 0.03210 -0.45600
O 	O 	0.68410 0.90040 0.15230 -0.67800
C 	C 	0.71330 0.99790 0.09390 0.13200
C 	C 	0.74440 0.03000 0.09370 -0.19100
C 	C 	0.71840 0.96010 0.12430 -0.09900
C 	C 	0.74430 0.06510 0.06060 0.35600
O 	O 	0.27310 0.59350 0.56030 -0.48400
O 	O 	0.21480 0.56460 0.53210 -0.43400
O 	O 	0.18410 0.40040 0.65230 -0.67800
C 	C 	0.21330 0.49790 0.59390 0.09400
C 	C 	0.24440 0.53000 0.59370 -0.15100
C 	C 	0.21840 0.46010 0.62430 -0.09400
C 	C 	0.24430 0.56510 0.56060 0.34700
O 	O 	0.72690 0.90650 0.56030 -0.47900
O 	O 	0.78520 0.93540 0.53210 -0.42000
O 	O 	0.81590 0.09960 0.65230 -0.67900
C 	C 	0.78670 0.00210 0.59390 0.05400
C 	C 	0.75560 0.97000 0.59370 -0.11400
C 	C 	0.78160 0.03990 0.62430 -0.08700
C 	C 	0.75570 0.93490 0.56060 0.33800
O 	O 	0.22690 0.40650 0.06030 -0.49300
O 	O 	0.28520 0.43540 0.03210 -0.44400
O 	O 	0.31590 0.59960 0.15230 -0.67900
C 	C 	0.28670 0.50210 0.09390 0.09000
C 	C 	0.25560 0.47000 0.09370 -0.15300
C 	C 	0.28160 0.53990 0.12430 -0.09200
C 	C 	0.25570 0.43490 0.06060 0.34700
O 	O 	0.22690 0.59350 0.43970 -0.48500
O 	O 	0.28520 0.56460 0.46790 -0.43300
O 	O 	0.31590 0.40040 0.34770 -0.67800
C 	C 	0.28670 0.49790 0.40610 0.09500
C 	C 	0.25560 0.53000 0.40630 -0.15100
C 	C 	0.28160 0.46010 0.37570 -0.09300
C 	C 	0.25570 0.56510 0.43940 0.34700
O 	O 	0.72690 0.09350 0.93970 -0.47800
O 	O 	0.78520 0.06460 0.96790 -0.42900
O 	O 	0.81590 0.90040 0.84770 -0.67400
C 	C 	0.78670 0.99790 0.90610 0.14400
C 	C 	0.75560 0.03000 0.90630 -0.18600
C 	C 	0.78160 0.96010 0.87570 -0.10100
C 	C 	0.75570 0.06510 0.93940 0.35500
O 	O 	0.27310 0.40650 0.93970 -0.47400
O 	O 	0.21480 0.43540 0.96790 -0.42100
O 	O 	0.18410 0.59960 0.84770 -0.67700
C 	C 	0.21330 0.50210 0.90610 0.09800
C 	C 	0.24440 0.47000 0.90630 -0.14900
C 	C 	0.21840 0.53990 0.87570 -0.09600
C 	C 	0.24430 0.43490 0.93940 0.34700
O 	O 	0.77310 0.90650 0.43970 -0.47800
O 	O 	0.71480 0.93540 0.46790 -0.42100
O 	O 	0.68410 0.09960 0.34770 -0.67900
C 	C 	0.71330 0.00210 0.40610 0.05300
C 	C 	0.74440 0.97000 0.40630 -0.11400
C 	C 	0.71840 0.03990 0.37570 -0.08800
C 	C 	0.74430 0.93490 0.43940 0.33800
O 	O 	0.06030 0.77310 0.09350 -0.49400
O 	O 	0.03210 0.71480 0.06460 -0.45500
O 	O 	0.15230 0.68410 0.90040 -0.67700
C 	C 	0.09390 0.71330 0.99790 0.13300
C 	C 	0.09370 0.74440 0.03000 -0.19000
C 	C 	0.12430 0.71840 0.96010 -0.09800
C 	C 	0.06060 0.74430 0.06510 0.35600
O 	O 	0.56030 0.27310 0.59350 -0.48400
O 	O 	0.53210 0.21480 0.56460 -0.43400
O 	O 	0.65230 0.18410 0.40040 -0.67800
C 	C 	0.59390 0.21330 0.49790 0.09400
C 	C 	0.59370 0.24440 0.53000 -0.15100
C 	C 	0.62430 0.21840 0.46010 -0.09400
C 	C 	0.56060 0.24430 0.56510 0.34700
O 	O 	0.56030 0.72690 0.90650 -0.47900
O 	O 	0.53210 0.78520 0.93540 -0.42000
O 	O 	0.65230 0.81590 0.09960 -0.67900
C 	C 	0.59390 0.78670 0.00210 0.05400
C 	C 	0.59370 0.75560 0.97000 -0.11400
C 	C 	0.62430 0.78160 0.03990 -0.08700
C 	C 	0.56060 0.75570 0.93490 0.33800
O 	O 	0.06030 0.22690 0.40650 -0.49300
O 	O 	0.03210 0.28520 0.43540 -0.44400
O 	O 	0.15230 0.31590 0.59960 -0.67900
C 	C 	0.09390 0.28670 0.50210 0.09000
C 	C 	0.09370 0.25560 0.47000 -0.15300
C 	C 	0.12430 0.28160 0.53990 -0.09200
C 	C 	0.06060 0.25570 0.43490 0.34700
O 	O 	0.43970 0.22690 0.59350 -0.48500
O 	O 	0.46790 0.28520 0.56460 -0.43300
O 	O 	0.34770 0.31590 0.40040 -0.67800
C 	C 	0.40610 0.28670 0.49790 0.09500
C 	C 	0.40630 0.25560 0.53000 -0.15100
C 	C 	0.37570 0.28160 0.46010 -0.09300
C 	C 	0.43940 0.25570 0.56510 0.34700
O 	O 	0.93970 0.72690 0.09350 -0.47800
O 	O 	0.96790 0.78520 0.06460 -0.42900
O 	O 	0.84770 0.81590 0.90040 -0.67400
C 	C 	0.90610 0.78670 0.99790 0.14400
C 	C 	0.90630 0.75560 0.03000 -0.18600
C 	C 	0.87570 0.78160 0.96010 -0.10100
C 	C 	0.93940 0.75570 0.06510 0.35500
O 	O 	0.93970 0.27310 0.40650 -0.47400
O 	O 	0.96790 0.21480 0.43540 -0.42100
O 	O 	0.84770 0.18410 0.59960 -0.67700
C 	C 	0.90610 0.21330 0.50210 0.09800
C 	C 	0.90630 0.24440 0.47000 -0.14900
C 	C 	0.87570 0.21840 0.53990 -0.09600
C 	C 	0.93940 0.24430 0.43490 0.34700
O 	O 	0.43970 0.77310 0.90650 -0.47800
O 	O 	0.46790 0.71480 0.93540 -0.42100
O 	O 	0.34770 0.68410 0.09960 -0.67900
C 	C 	0.40610 0.71330 0.00210 0.05300
C 	C 	0.40630 0.74440 0.97000 -0.11400
C 	C 	0.37570 0.71840 0.03990 -0.08800
C 	C 	0.43940 0.74430 0.93490 0.33800
O 	O 	0.09350 0.06030 0.77310 -0.49400
O 	O 	0.06460 0.03210 0.71480 -0.45500
O 	O 	0.90040 0.15230 0.68410 -0.67700
C 	C 	0.99790 0.09390 0.71330 0.13300
C 	C 	0.03000 0.09370 0.74440 -0.19000
C 	C 	0.96010 0.12430 0.71840 -0.09800
C 	C 	0.06510 0.06060 0.74430 0.35600
O 	O 	0.59350 0.56030 0.27310 -0.48400
O 	O 	0.56460 0.53210 0.21480 -0.43400
O 	O 	0.40040 0.65230 0.18410 -0.67800
C 	C 	0.49790 0.59390 0.21330 0.09400
C 	C 	0.53000 0.59370 0.24440 -0.15100
C 	C 	0.46010 0.62430 0.21840 -0.09400
C 	C 	0.56510 0.56060 0.24430 0.34700
O 	O 	0.90650 0.56030 0.72690 -0.47900
O 	O 	0.93540 0.53210 0.78520 -0.42000
O 	O 	0.09960 0.65230 0.81590 -0.67900
C 	C 	0.00210 0.59390 0.78670 0.05400
C 	C 	0.97000 0.59370 0.75560 -0.11400
C 	C 	0.03990 0.62430 0.78160 -0.08700
C 	C 	0.93490 0.56060 0.75570 0.33800
O 	O 	0.40650 0.06030 0.22690 -0.49300
O 	O 	0.43540 0.03210 0.28520 -0.44400
O 	O 	0.59960 0.15230 0.31590 -0.67900
C 	C 	0.50210 0.09390 0.28670 0.09000
C 	C 	0.47000 0.09370 0.25560 -0.15300
C 	C 	0.53990 0.12430 0.28160 -0.09200
C 	C 	0.43490 0.06060 0.25570 0.34700
O 	O 	0.59350 0.43970 0.22690 -0.48500
O 	O 	0.56460 0.46790 0.28520 -0.43300
O 	O 	0.40040 0.34770 0.31590 -0.67800
C 	C 	0.49790 0.40610 0.28670 0.09500
C 	C 	0.53000 0.40630 0.25560 -0.15100
C 	C 	0.46010 0.37570 0.28160 -0.09300
C 	C 	0.56510 0.43940 0.25570 0.34700
O 	O 	0.09350 0.93970 0.72690 -0.47800
O 	O 	0.06460 0.96790 0.78520 -0.42900
O 	O 	0.90040 0.84770 0.81590 -0.67400
C 	C 	0.99790 0.90610 0.78670 0.14400
C 	C 	0.03000 0.90630 0.75560 -0.18600
C 	C 	0.96010 0.87570 0.78160 -0.10100
C 	C 	0.06510 0.93940 0.75570 0.35500
O 	O 	0.40650 0.93970 0.27310 -0.47400
O 	O 	0.43540 0.96790 0.21480 -0.42100
O 	O 	0.59960 0.84770 0.18410 -0.67700
C 	C 	0.50210 0.90610 0.21330 0.09800
C 	C 	0.47000 0.90630 0.24440 -0.14900
C 	C 	0.53990 0.87570 0.21840 -0.09600
C 	C 	0.43490 0.93940 0.24430 0.34700
O 	O 	0.90650 0.43970 0.77310 -0.47800
O 	O 	0.93540 0.46790 0.71480 -0.42100
O 	O 	0.09960 0.34770 0.68410 -0.67900
C 	C 	0.00210 0.40610 0.71330 0.05300
C 	C 	0.97000 0.40630 0.74440 -0.11400
C 	C 	0.03990 0.37570 0.71840 -0.08800
C 	C 	0.93490 0.43940 0.74430 0.33800
O 	O 	0.84350 0.02310 0.18970 -0.51400
O 	O 	0.81460 0.96480 0.21790 -0.43200
O 	O 	0.65040 0.93410 0.09770 -0.67800
C 	C 	0.74790 0.96330 0.15610 0.09900
C 	C 	0.78000 0.99440 0.15630 -0.13100
C 	C 	0.71010 0.96840 0.12570 -0.09500
C 	C 	0.81510 0.99430 0.18940 0.38300
O 	O 	0.34350 0.52310 0.68970 -0.48400
O 	O 	0.31460 0.46480 0.71790 -0.43300
O 	O 	0.15040 0.43410 0.59770 -0.67900
C 	C 	0.24790 0.46330 0.65610 0.09500
C 	C 	0.28000 0.49440 0.65630 -0.15100
C 	C 	0.21010 0.46840 0.62570 -0.09300
C 	C 	0.31510 0.49430 0.68940 0.34700
O 	O 	0.65650 0.97690 0.68970 -0.45000
O 	O 	0.68540 0.03520 0.71790 -0.43100
O 	O 	0.84960 0.06590 0.59770 -0.67900
C 	C 	0.75210 0.03670 0.65610 0.09000
C 	C 	0.72000 0.00560 0.65630 -0.17200
C 	C 	0.78990 0.03160 0.62570 -0.09500
C 	C 	0.68490 0.00570 0.68940 0.31000
O 	O 	0.15650 0.47690 0.18970 -0.48700
O 	O 	0.18540 0.53520 0.21790 -0.43400
O 	O 	0.34960 0.56590 0.09770 -0.68100
C 	C 	0.25210 0.53670 0.15610 0.09300
C 	C 	0.22000 0.50560 0.15630 -0.15200
C 	C 	0.28990 0.53160 0.12570 -0.09600
C 	C 	0.18490 0.50570 0.18940 0.34600
O 	O 	0.34350 0.47690 0.81030 -0.48200
O 	O 	0.31460 0.53520 0.78210 -0.43200
O 	O 	0.15040 0.56590 0.90230 -0.67600
C 	C 	0.24790 0.53670 0.84390 0.09700
C 	C 	0.28000 0.50560 0.84370 -0.15100
C 	C 	0.21010 0.53160 0.87430 -0.09100
C 	C 	0.31510 0.50570 0.81060 0.34800
O 	O 	0.84350 0.97690 0.31030 -0.44900
O 	O 	0.81460 0.03520 0.28210 -0.43100
O 	O 	0.65040 0.06590 0.40230 -0.68100
C 	C 	0.74790 0.03670 0.34390 0.09000
C 	C 	0.78000 0.00560 0.34370 -0.17200
C 	C 	0.71010 0.03160 0.37430 -0.09400
C 	C 	0.81510 0.00570 0.31060 0.31100
O 	O 	0.15650 0.52310 0.31030 -0.48600
O 	O 	0.18540 0.46480 0.28210 -0.43300
O 	O 	0.34960 0.43410 0.40230 -0.67800
C 	C 	0.25210 0.46330 0.34390 0.09500
C 	C 	0.22000 0.49440 0.34370 -0.15200
C 	C 	0.28990 0.46840 0.37430 -0.09400
C 	C 	0.18490 0.49430 0.31060 0.34700
O 	O 	0.65650 0.02310 0.81030 -0.51300
O 	O 	0.68540 0.96480 0.78210 -0.43100
O 	O 	0.84960 0.93410 0.90230 -0.66900
C 	C 	0.75210 0.96330 0.84390 0.10200
C 	C 	0.72000 0.99440 0.84370 -0.13000
C 	C 	0.78990 0.96840 0.87430 -0.09100
C 	C 	0.68490 0.99430 0.81060 0.38400
O 	O 	0.52310 0.31030 0.15650 -0.48600
O 	O 	0.46480 0.28210 0.18540 -0.43300
O 	O 	0.43410 0.40230 0.34960 -0.67800
C 	C 	0.46330 0.34390 0.25210 0.09500
C 	C 	0.49440 0.34370 0.22000 -0.15200
C 	C 	0.46840 0.37430 0.28990 -0.09400
C 	C 	0.49430 0.31060 0.18490 0.34700
O 	O 	0.02310 0.81030 0.65650 -0.51300
O 	O 	0.96480 0.78210 0.68540 -0.43100
O 	O 	0.93410 0.90230 0.84960 -0.66900
C 	C 	0.96330 0.84390 0.75210 0.10200
C 	C 	0.99440 0.84370 0.72000 -0.13000
C 	C 	0.96840 0.87430 0.78990 -0.09100
C 	C 	0.99430 0.81060 0.68490 0.38400
O 	O 	0.47690 0.81030 0.34350 -0.48200
O 	O 	0.53520 0.78210 0.31460 -0.43200
O 	O 	0.56590 0.90230 0.15040 -0.67600
C 	C 	0.53670 0.84390 0.24790 0.09700
C 	C 	0.50560 0.84370 0.28000 -0.15100
C 	C 	0.53160 0.87430 0.21010 -0.09100
C 	C 	0.50570 0.81060 0.31510 0.34800
O 	O 	0.97690 0.31030 0.84350 -0.44900
O 	O 	0.03520 0.28210 0.81460 -0.43100
O 	O 	0.06590 0.40230 0.65040 -0.68100
C 	C 	0.03670 0.34390 0.74790 0.09000
C 	C 	0.00560 0.34370 0.78000 -0.17200
C 	C 	0.03160 0.37430 0.71010 -0.09400
C 	C 	0.00570 0.31060 0.81510 0.31100
O 	O 	0.97690 0.68970 0.65650 -0.45000
O 	O 	0.03520 0.71790 0.68540 -0.43100
O 	O 	0.06590 0.59770 0.84960 -0.67900
C 	C 	0.03670 0.65610 0.75210 0.09000
C 	C 	0.00560 0.65630 0.72000 -0.17200
C 	C 	0.03160 0.62570 0.78990 -0.09500
C 	C 	0.00570 0.68940 0.68490 0.31000
O 	O 	0.47690 0.18970 0.15650 -0.48700
O 	O 	0.53520 0.21790 0.18540 -0.43400
O 	O 	0.56590 0.09770 0.34960 -0.68100
C 	C 	0.53670 0.15610 0.25210 0.09300
C 	C 	0.50560 0.15630 0.22000 -0.15200
C 	C 	0.53160 0.12570 0.28990 -0.09600
C 	C 	0.50570 0.18940 0.18490 0.34600
O 	O 	0.02310 0.18970 0.84350 -0.51400
O 	O 	0.96480 0.21790 0.81460 -0.43200
O 	O 	0.93410 0.09770 0.65040 -0.67800
C 	C 	0.96330 0.15610 0.74790 0.09900
C 	C 	0.99440 0.15630 0.78000 -0.13100
C 	C 	0.96840 0.12570 0.71010 -0.09500
C 	C 	0.99430 0.18940 0.81510 0.38300
O 	O 	0.52310 0.68970 0.34350 -0.48400
O 	O 	0.46480 0.71790 0.31460 -0.43300
O 	O 	0.43410 0.59770 0.15040 -0.67900
C 	C 	0.46330 0.65610 0.24790 0.09500
C 	C 	0.49440 0.65630 0.28000 -0.15100
C 	C 	0.46840 0.62570 0.21010 -0.09300
C 	C 	0.49430 0.68940 0.31510 0.34700
O 	O 	0.81030 0.34350 0.47690 -0.48200
O 	O 	0.78210 0.31460 0.53520 -0.43200
O 	O 	0.90230 0.15040 0.56590 -0.67600
C 	C 	0.84390 0.24790 0.53670 0.09700
C 	C 	0.84370 0.28000 0.50560 -0.15100
C 	C 	0.87430 0.21010 0.53160 -0.09100
C 	C 	0.81060 0.31510 0.50570 0.34800
O 	O 	0.31030 0.84350 0.97690 -0.44900
O 	O 	0.28210 0.81460 0.03520 -0.43100
O 	O 	0.40230 0.65040 0.06590 -0.68100
C 	C 	0.34390 0.74790 0.03670 0.09000
C 	C 	0.34370 0.78000 0.00560 -0.17200
C 	C 	0.37430 0.71010 0.03160 -0.09400
C 	C 	0.31060 0.81510 0.00570 0.31100
O 	O 	0.31030 0.15650 0.52310 -0.48600
O 	O 	0.28210 0.18540 0.46480 -0.43300
O 	O 	0.40230 0.34960 0.43410 -0.67800
C 	C 	0.34390 0.25210 0.46330 0.09500
C 	C 	0.34370 0.22000 0.49440 -0.15200
C 	C 	0.37430 0.28990 0.46840 -0.09400
C 	C 	0.31060 0.18490 0.49430 0.34700
O 	O 	0.81030 0.65650 0.02310 -0.51300
O 	O 	0.78210 0.68540 0.96480 -0.43100
O 	O 	0.90230 0.84960 0.93410 -0.66900
C 	C 	0.84390 0.75210 0.96330 0.10200
C 	C 	0.84370 0.72000 0.99440 -0.13000
C 	C 	0.87430 0.78990 0.96840 -0.09100
C 	C 	0.81060 0.68490 0.99430 0.38400
O 	O 	0.18970 0.84350 0.02310 -0.51400
O 	O 	0.21790 0.81460 0.96480 -0.43200
O 	O 	0.09770 0.65040 0.93410 -0.67800
C 	C 	0.15610 0.74790 0.96330 0.09900
C 	C 	0.15630 0.78000 0.99440 -0.13100
C 	C 	0.12570 0.71010 0.96840 -0.09500
C 	C 	0.18940 0.81510 0.99430 0.38300
O 	O 	0.68970 0.34350 0.52310 -0.48400
O 	O 	0.71790 0.31460 0.46480 -0.43300
O 	O 	0.59770 0.15040 0.43410 -0.67900
C 	C 	0.65610 0.24790 0.46330 0.09500
C 	C 	0.65630 0.28000 0.49440 -0.15100
C 	C 	0.62570 0.21010 0.46840 -0.09300
C 	C 	0.68940 0.31510 0.49430 0.34700
O 	O 	0.68970 0.65650 0.97690 -0.45000
O 	O 	0.71790 0.68540 0.03520 -0.43100
O 	O 	0.59770 0.84960 0.06590 -0.67900
C 	C 	0.65610 0.75210 0.03670 0.09000
C 	C 	0.65630 0.72000 0.00560 -0.17200
C 	C 	0.62570 0.78990 0.03160 -0.09500
C 	C 	0.68940 0.68490 0.00570 0.31000
O 	O 	0.18970 0.15650 0.47690 -0.48700
O 	O 	0.21790 0.18540 0.53520 -0.43400
O 	O 	0.09770 0.34960 0.56590 -0.68100
C 	C 	0.15610 0.25210 0.53670 0.09300
C 	C 	0.15630 0.22000 0.50560 -0.15200
C 	C 	0.12570 0.28990 0.53160 -0.09600
C 	C 	0.18940 0.18490 0.50570 0.34600
O 	O 	0.22690 0.90650 0.93970 -0.47100
O 	O 	0.28520 0.93540 0.96790 -0.40800
O 	O 	0.31590 0.09960 0.84770 -0.67800
C 	C 	0.28670 0.00210 0.90610 0.05700
C 	C 	0.25560 0.97000 0.90630 -0.11200
C 	C 	0.28160 0.03990 0.87570 -0.08900
C 	C 	0.25570 0.93490 0.93940 0.33800
O 	O 	0.72690 0.40650 0.43970 -0.48400
O 	O 	0.78520 0.43540 0.46790 -0.43100
O 	O 	0.81590 0.59960 0.34770 -0.67700
C 	C 	0.78670 0.50210 0.40610 0.09700
C 	C 	0.75560 0.47000 0.40630 -0.15100
C 	C 	0.78160 0.53990 0.37570 -0.09300
C 	C 	0.75570 0.43490 0.43940 0.34700
O 	O 	0.27310 0.09350 0.43970 -0.48800
O 	O 	0.21480 0.06460 0.46790 -0.44500
O 	O 	0.18410 0.90040 0.34770 -0.67700
C 	C 	0.21330 0.99790 0.40610 0.13600
C 	C 	0.24440 0.03000 0.40630 -0.18900
C 	C 	0.21840 0.96010 0.37570 -0.10000
C 	C 	0.24430 0.06510 0.43940 0.35600
O 	O 	0.77310 0.59350 0.93970 -0.47300
O 	O 	0.71480 0.56460 0.96790 -0.41900
O 	O 	0.68410 0.40040 0.84770 -0.67600
C 	C 	0.71330 0.49790 0.90610 0.10000
C 	C 	0.74440 0.53000 0.90630 -0.14900
C 	C 	0.71840 0.46010 0.87570 -0.09500
C 	C 	0.74430 0.56510 0.93940 0.34700
O 	O 	0.77310 0.40650 0.56030 -0.48200
O 	O 	0.71480 0.43540 0.53210 -0.43200
O 	O 	0.68410 0.59960 0.65230 -0.67700
C 	C 	0.71330 0.50210 0.59390 0.09500
C 	C 	0.74440 0.47000 0.59370 -0.15100
C 	C 	0.71840 0.53990 0.62430 -0.09400
C 	C 	0.74430 0.43490 0.56060 0.34700
O 	O 	0.27310 0.90650 0.06030 -0.48700
O 	O 	0.21480 0.93540 0.03210 -0.43400
O 	O 	0.18410 0.09960 0.15230 -0.68100
C 	C 	0.21330 0.00210 0.09390 0.04700
C 	C 	0.24440 0.97000 0.09370 -0.11600
C 	C 	0.21840 0.03990 0.12430 -0.08700
C 	C 	0.24430 0.93490 0.06060 0.33900
O 	O 	0.72690 0.59350 0.06030 -0.49100
O 	O 	0.78520 0.56460 0.03210 -0.44200
O 	O 	0.81590 0.40040 0.15230 -0.67800
C 	C 	0.78670 0.49790 0.09390 0.09200
C 	C 	0.75560 0.53000 0.09370 -0.15300
C 	C 	0.78160 0.46010 0.12430 -0.09100
C 	C 	0.75570 0.56510 0.06060 0.34700
O 	O 	0.22690 0.09350 0.56030 -0.49000
O 	O 	0.28520 0.06460 0.53210 -0.44400
O 	O 	0.31590 0.90040 0.65230 -0.67600
C 	C 	0.28670 0.99790 0.59390 0.13800
C 	C 	0.25560 0.03000 0.59370 -0.18900
C 	C 	0.28160 0.96010 0.62430 -0.10000
C 	C 	0.25570 0.06510 0.56060 0.35600
O 	O 	0.93970 0.22690 0.90650 -0.47100
O 	O 	0.96790 0.28520 0.93540 -0.40800
O 	O 	0.84770 0.31590 0.09960 -0.67800
C 	C 	0.90610 0.28670 0.00210 0.05700
C 	C 	0.90630 0.25560 0.97000 -0.11200
C 	C 	0.87570 0.28160 0.03990 -0.08900
C 	C 	0.93940 0.25570 0.93490 0.33800
O 	O 	0.43970 0.72690 0.40650 -0.48400
O 	O 	0.46790 0.78520 0.43540 -0.43100
O 	O 	0.34770 0.81590 0.59960 -0.67700
C 	C 	0.40610 0.78670 0.50210 0.09700
C 	C 	0.40630 0.75560 0.47000 -0.15100
C 	C 	0.37570 0.78160 0.53990 -0.09300
C 	C 	0.43940 0.75570 0.43490 0.34700
O 	O 	0.43970 0.27310 0.09350 -0.48800
O 	O 	0.46790 0.21480 0.06460 -0.44500
O 	O 	0.34770 0.18410 0.90040 -0.67700
C 	C 	0.40610 0.21330 0.99790 0.13600
C 	C 	0.40630 0.24440 0.03000 -0.18900
C 	C 	0.37570 0.21840 0.96010 -0.10000
C 	C 	0.43940 0.24430 0.06510 0.35600
O 	O 	0.93970 0.77310 0.59350 -0.47300
O 	O 	0.96790 0.71480 0.56460 -0.41900
O 	O 	0.84770 0.68410 0.40040 -0.67600
C 	C 	0.90610 0.71330 0.49790 0.10000
C 	C 	0.90630 0.74440 0.53000 -0.14900
C 	C 	0.87570 0.71840 0.46010 -0.09500
C 	C 	0.93940 0.74430 0.56510 0.34700
O 	O 	0.56030 0.77310 0.40650 -0.48200
O 	O 	0.53210 0.71480 0.43540 -0.43200
O 	O 	0.65230 0.68410 0.59960 -0.67700
C 	C 	0.59390 0.71330 0.50210 0.09500
C 	C 	0.59370 0.74440 0.47000 -0.15100
C 	C 	0.62430 0.71840 0.53990 -0.09400
C 	C 	0.56060 0.74430 0.43490 0.34700
O 	O 	0.06030 0.27310 0.90650 -0.48700
O 	O 	0.03210 0.21480 0.93540 -0.43400
O 	O 	0.15230 0.18410 0.09960 -0.68100
C 	C 	0.09390 0.21330 0.00210 0.04700
C 	C 	0.09370 0.24440 0.97000 -0.11600
C 	C 	0.12430 0.21840 0.03990 -0.08700
C 	C 	0.06060 0.24430 0.93490 0.33900
O 	O 	0.06030 0.72690 0.59350 -0.49100
O 	O 	0.03210 0.78520 0.56460 -0.44200
O 	O 	0.15230 0.81590 0.40040 -0.67800
C 	C 	0.09390 0.78670 0.49790 0.09200
C 	C 	0.09370 0.75560 0.53000 -0.15300
C 	C 	0.12430 0.78160 0.46010 -0.09100
C 	C 	0.06060 0.75570 0.56510 0.34700
O 	O 	0.56030 0.22690 0.09350 -0.49000
O 	O 	0.53210 0.28520 0.06460 -0.44400
O 	O 	0.65230 0.31590 0.90040 -0.67600
C 	C 	0.59390 0.28670 0.99790 0.13800
C 	C 	0.59370 0.25560 0.03000 -0.18900
C 	C 	0.62430 0.28160 0.96010 -0.10000
C 	C 	0.56060 0.25570 0.06510 0.35600
O 	O 	0.90650 0.93970 0.22690 -0.47100
O 	O 	0.93540 0.96790 0.28520 -0.40800
O 	O 	0.09960 0.84770 0.31590 -0.67800
C 	C 	0.00210 0.90610 0.28670 0.05700
C 	C 	0.97000 0.90630 0.25560 -0.11200
C 	C 	0.03990 0.87570 0.28160 -0.08900
C 	C 	0.93490 0.93940 0.25570 0.33800
O 	O 	0.40650 0.43970 0.72690 -0.48400
O 	O 	0.43540 0.46790 0.78520 -0.43100
O 	O 	0.59960 0.34770 0.81590 -0.67700
C 	C 	0.50210 0.40610 0.78670 0.09700
C 	C 	0.47000 0.40630 0.75560 -0.15100
C 	C 	0.53990 0.37570 0.78160 -0.09300
C 	C 	0.43490 0.43940 0.75570 0.34700
O 	O 	0.09350 0.43970 0.27310 -0.48800
O 	O 	0.06460 0.46790 0.21480 -0.44500
O 	O 	0.90040 0.34770 0.18410 -0.67700
C 	C 	0.99790 0.40610 0.21330 0.13600
C 	C 	0.03000 0.40630 0.24440 -0.18900
C 	C 	0.96010 0.37570 0.21840 -0.10000
C 	C 	0.06510 0.43940 0.24430 0.35600
O 	O 	0.59350 0.93970 0.77310 -0.47300
O 	O 	0.56460 0.96790 0.71480 -0.41900
O 	O 	0.40040 0.84770 0.68410 -0.67600
C 	C 	0.49790 0.90610 0.71330 0.10000
C 	C 	0.53000 0.90630 0.74440 -0.14900
C 	C 	0.46010 0.87570 0.71840 -0.09500
C 	C 	0.56510 0.93940 0.74430 0.34700
O 	O 	0.40650 0.56030 0.77310 -0.48200
O 	O 	0.43540 0.53210 0.71480 -0.43200
O 	O 	0.59960 0.65230 0.68410 -0.67700
C 	C 	0.50210 0.59390 0.71330 0.09500
C 	C 	0.47000 0.59370 0.74440 -0.15100
C 	C 	0.53990 0.62430 0.71840 -0.09400
C 	C 	0.43490 0.56060 0.74430 0.34700
O 	O 	0.90650 0.06030 0.27310 -0.48700
O 	O 	0.93540 0.03210 0.21480 -0.43400
O 	O 	0.09960 0.15230 0.18410 -0.68100
C 	C 	0.00210 0.09390 0.21330 0.04700
C 	C 	0.97000 0.09370 0.24440 -0.11600
C 	C 	0.03990 0.12430 0.21840 -0.08700
C 	C 	0.93490 0.06060 0.24430 0.33900
O 	O 	0.59350 0.06030 0.72690 -0.49100
O 	O 	0.56460 0.03210 0.78520 -0.44200
O 	O 	0.40040 0.15230 0.81590 -0.67800
C 	C 	0.49790 0.09390 0.78670 0.09200
C 	C 	0.53000 0.09370 0.75560 -0.15300
C 	C 	0.46010 0.12430 0.78160 -0.09100
C 	C 	0.56510 0.06060 0.75570 0.34700
O 	O 	0.09350 0.56030 0.22690 -0.49000
O 	O 	0.06460 0.53210 0.28520 -0.44400
O 	O 	0.90040 0.65230 0.31590 -0.67600
C 	C 	0.99790 0.59390 0.28670 0.13800
C 	C 	0.03000 0.59370 0.25560 -0.18900
C 	C 	0.96010 0.62430 0.28160 -0.10000
C 	C 	0.06510 0.56060 0.25570 0.35600
O 	O 	0.15650 0.97690 0.81030 -0.45100
O 	O 	0.18540 0.03520 0.78210 -0.43200
O 	O 	0.34960 0.06590 0.90230 -0.67700
C 	C 	0.25210 0.03670 0.84390 0.09100
C 	C 	0.22000 0.00560 0.84370 -0.17200
C 	C 	0.28990 0.03160 0.87430 -0.09200
C 	C 	0.18490 0.00570 0.81060 0.31100
O 	O 	0.65650 0.47690 0.31030 -0.48400
O 	O 	0.68540 0.53520 0.28210 -0.43200
O 	O 	0.84960 0.56590 0.40230 -0.67600
C 	C 	0.75210 0.53670 0.34390 0.09500
C 	C 	0.72000 0.50560 0.34370 -0.15100
C 	C 	0.78990 0.53160 0.37430 -0.09400
C 	C 	0.68490 0.50570 0.31060 0.34700
O 	O 	0.34350 0.02310 0.31030 -0.51500
O 	O 	0.31460 0.96480 0.28210 -0.43200
O 	O 	0.15040 0.93410 0.40230 -0.67600
C 	C 	0.24790 0.96330 0.34390 0.10000
C 	C 	0.28000 0.99440 0.34370 -0.13100
C 	C 	0.21010 0.96840 0.37430 -0.09300
C 	C 	0.31510 0.99430 0.31060 0.38400
O 	O 	0.84350 0.52310 0.81030 -0.48000
O 	O 	0.81460 0.46480 0.78210 -0.43100
O 	O 	0.65040 0.43410 0.90230 -0.67400
C 	C 	0.74790 0.46330 0.84390 0.09700
C 	C 	0.78000 0.49440 0.84370 -0.15100
C 	C 	0.71010 0.46840 0.87430 -0.09100
C 	C 	0.81510 0.49430 0.81060 0.34800
O 	O 	0.65650 0.52310 0.18970 -0.48500
O 	O 	0.68540 0.46480 0.21790 -0.43300
O 	O 	0.84960 0.43410 0.09770 -0.68000
C 	C 	0.75210 0.46330 0.15610 0.09400
C 	C 	0.72000 0.49440 0.15630 -0.15200
C 	C 	0.78990 0.46840 0.12570 -0.09600
C 	C 	0.68490 0.49430 0.18940 0.34600
O 	O 	0.15650 0.02310 0.68970 -0.51600
O 	O 	0.18540 0.96480 0.71790 -0.43200
O 	O 	0.34960 0.93410 0.59770 -0.67400
C 	C 	0.25210 0.96330 0.65610 0.10000
C 	C 	0.22000 0.99440 0.65630 -0.13100
C 	C 	0.28990 0.96840 0.62570 -0.09300
C 	C 	0.18490 0.99430 0.68940 0.38400
O 	O 	0.84350 0.47690 0.68970 -0.48200
O 	O 	0.81460 0.53520 0.71790 -0.43200
O 	O 	0.65040 0.56590 0.59770 -0.67800
C 	C 	0.74790 0.53670 0.65610 0.09600
C 	C 	0.78000 0.50560 0.65630 -0.15100
C 	C 	0.71010 0.53160 0.62570 -0.09300
C 	C 	0.81510 0.50570 0.68940 0.34700
O 	O 	0.34350 0.97690 0.18970 -0.45200
O 	O 	0.31460 0.03520 0.21790 -0.43200
O 	O 	0.15040 0.06590 0.09770 -0.68600
C 	C 	0.24790 0.03670 0.15610 0.08800
C 	C 	0.28000 0.00560 0.15630 -0.17200
C 	C 	0.21010 0.03160 0.12570 -0.09600
C 	C 	0.31510 0.00570 0.18940 0.31000
O 	O 	0.47690 0.68970 0.84350 -0.48200
O 	O 	0.53520 0.71790 0.81460 -0.43200
O 	O 	0.56590 0.59770 0.65040 -0.67800
C 	C 	0.53670 0.65610 0.74790 0.09600
C 	C 	0.50560 0.65630 0.78000 -0.15100
C 	C 	0.53160 0.62570 0.71010 -0.09300
C 	C 	0.50570 0.68940 0.81510 0.34700
O 	O 	0.97690 0.18970 0.34350 -0.45200
O 	O 	0.03520 0.21790 0.31460 -0.43200
O 	O 	0.06590 0.09770 0.15040 -0.68600
C 	C 	0.03670 0.15610 0.24790 0.08800
C 	C 	0.00560 0.15630 0.28000 -0.17200
C 	C 	0.03160 0.12570 0.21010 -0.09600
C 	C 	0.00570 0.18940 0.31510 0.31000
O 	O 	0.52310 0.18970 0.65650 -0.48500
O 	O 	0.46480 0.21790 0.68540 -0.43300
O 	O 	0.43410 0.09770 0.84960 -0.68000
C 	C 	0.46330 0.15610 0.75210 0.09400
C 	C 	0.49440 0.15630 0.72000 -0.15200
C 	C 	0.46840 0.12570 0.78990 -0.09600
C 	C 	0.49430 0.18940 0.68490 0.34600
O 	O 	0.02310 0.68970 0.15650 -0.51600
O 	O 	0.96480 0.71790 0.18540 -0.43200
O 	O 	0.93410 0.59770 0.34960 -0.67400
C 	C 	0.96330 0.65610 0.25210 0.10000
C 	C 	0.99440 0.65630 0.22000 -0.13100
C 	C 	0.96840 0.62570 0.28990 -0.09300
C 	C 	0.99430 0.68940 0.18490 0.38400
O 	O 	0.02310 0.31030 0.34350 -0.51500
O 	O 	0.96480 0.28210 0.31460 -0.43200
O 	O 	0.93410 0.40230 0.15040 -0.67600
C 	C 	0.96330 0.34390 0.24790 0.10000
C 	C 	0.99440 0.34370 0.28000 -0.13100
C 	C 	0.96840 0.37430 0.21010 -0.09300
C 	C 	0.99430 0.31060 0.31510 0.38400
O 	O 	0.52310 0.81030 0.84350 -0.48000
O 	O 	0.46480 0.78210 0.81460 -0.43100
O 	O 	0.43410 0.90230 0.65040 -0.67400
C 	C 	0.46330 0.84390 0.74790 0.09700
C 	C 	0.49440 0.84370 0.78000 -0.15100
C 	C 	0.46840 0.87430 0.71010 -0.09100
C 	C 	0.49430 0.81060 0.81510 0.34800
O 	O 	0.97690 0.81030 0.15650 -0.45100
O 	O 	0.03520 0.78210 0.18540 -0.43200
O 	O 	0.06590 0.90230 0.34960 -0.67700
C 	C 	0.03670 0.84390 0.25210 0.09100
C 	C 	0.00560 0.84370 0.22000 -0.17200
C 	C 	0.03160 0.87430 0.28990 -0.09200
C 	C 	0.00570 0.81060 0.18490 0.31100
O 	O 	0.47690 0.31030 0.65650 -0.48400
O 	O 	0.53520 0.28210 0.68540 -0.43200
O 	O 	0.56590 0.40230 0.84960 -0.67600
C 	C 	0.53670 0.34390 0.75210 0.09500
C 	C 	0.50560 0.34370 0.72000 -0.15100
C 	C 	0.53160 0.37430 0.78990 -0.09400
C 	C 	0.50570 0.31060 0.68490 0.34700
O 	O 	0.18970 0.65650 0.52310 -0.48500
O 	O 	0.21790 0.68540 0.46480 -0.43300
O 	O 	0.09770 0.84960 0.43410 -0.68000
C 	C 	0.15610 0.75210 0.46330 0.09400
C 	C 	0.15630 0.72000 0.49440 -0.15200
C 	C 	0.12570 0.78990 0.46840 -0.09600
C 	C 	0.18940 0.68490 0.49430 0.34600
O 	O 	0.68970 0.15650 0.02310 -0.51600
O 	O 	0.71790 0.18540 0.96480 -0.43200
O 	O 	0.59770 0.34960 0.93410 -0.67400
C 	C 	0.65610 0.25210 0.96330 0.10000
C 	C 	0.65630 0.22000 0.99440 -0.13100
C 	C 	0.62570 0.28990 0.96840 -0.09300
C 	C 	0.68940 0.18490 0.99430 0.38400
O 	O 	0.68970 0.84350 0.47690 -0.48200
O 	O 	0.71790 0.81460 0.53520 -0.43200
O 	O 	0.59770 0.65040 0.56590 -0.67800
C 	C 	0.65610 0.74790 0.53670 0.09600
C 	C 	0.65630 0.78000 0.50560 -0.15100
C 	C 	0.62570 0.71010 0.53160 -0.09300
C 	C 	0.68940 0.81510 0.50570 0.34700
O 	O 	0.18970 0.34350 0.97690 -0.45200
O 	O 	0.21790 0.31460 0.03520 -0.43200
O 	O 	0.09770 0.15040 0.06590 -0.68600
C 	C 	0.15610 0.24790 0.03670 0.08800
C 	C 	0.15630 0.28000 0.00560 -0.17200
C 	C 	0.12570 0.21010 0.03160 -0.09600
C 	C 	0.18940 0.31510 0.00570 0.31000
O 	O 	0.81030 0.15650 0.97690 -0.45100
O 	O 	0.78210 0.18540 0.03520 -0.43200
O 	O 	0.90230 0.34960 0.06590 -0.67700
C 	C 	0.84390 0.25210 0.03670 0.09100
C 	C 	0.84370 0.22000 0.00560 -0.17200
C 	C 	0.87430 0.28990 0.03160 -0.09200
C 	C 	0.81060 0.18490 0.00570 0.31100
O 	O 	0.31030 0.65650 0.47690 -0.48400
O 	O 	0.28210 0.68540 0.53520 -0.43200
O 	O 	0.40230 0.84960 0.56590 -0.67600
C 	C 	0.34390 0.75210 0.53670 0.09500
C 	C 	0.34370 0.72000 0.50560 -0.15100
C 	C 	0.37430 0.78990 0.53160 -0.09400
C 	C 	0.31060 0.68490 0.50570 0.34700
O 	O 	0.31030 0.34350 0.02310 -0.51500
O 	O 	0.28210 0.31460 0.96480 -0.43200
O 	O 	0.40230 0.15040 0.93410 -0.67600
C 	C 	0.34390 0.24790 0.96330 0.10000
C 	C 	0.34370 0.28000 0.99440 -0.13100
C 	C 	0.37430 0.21010 0.96840 -0.09300
C 	C 	0.31060 0.31510 0.99430 0.38400
O 	O 	0.81030 0.84350 0.52310 -0.48000
O 	O 	0.78210 0.81460 0.46480 -0.43100
O 	O 	0.90230 0.65040 0.43410 -0.67400
C 	C 	0.84390 0.74790 0.46330 0.09700
C 	C 	0.84370 0.78000 0.49440 -0.15100
C 	C 	0.87430 0.71010 0.46840 -0.09100
C 	C 	0.81060 0.81510 0.49430 0.34800
In	In	0.75000 0.12500 -0.00000 1.98800
In	In	0.75000 0.87500 0.50000 1.99600
In	In	0.25000 0.62500 0.50000 1.99600
In	In	0.25000 0.37500 -0.00000 1.98800
In	In	-0.00000 0.75000 0.12500 1.98800
In	In	0.50000 0.75000 0.87500 1.99600
In	In	0.50000 0.25000 0.62500 1.99600
In	In	-0.00000 0.25000 0.37500 1.98800
In	In	0.12500 0.00000 0.75000 1.98800
In	In	0.87500 0.50000 0.75000 1.99600
In	In	0.62500 0.50000 0.25000 1.99600
In	In	0.37500 0.00000 0.25000 1.98800
In	In	0.87500 0.00000 0.25000 1.98800
In	In	0.62500 0.00000 0.75000 1.98800
In	In	0.37500 0.50000 0.75000 1.99600
In	In	0.12500 0.50000 0.25000 1.99600
In	In	0.50000 0.25000 0.12500 1.99600
In	In	0.50000 0.75000 0.37500 1.99600
In	In	0.00000 0.75000 0.62500 1.98800
In	In	-0.00000 0.25000 0.87500 1.98800
In	In	0.75000 0.37500 0.50000 1.99600
In	In	0.25000 0.12500 0.50000 1.99600
In	In	0.25000 0.87500 -0.00000 1.98800
In	In	0.75000 0.62500 -0.00000 1.98800
Zn	Zn	0.65169 0.84831 0.15169 0.93700
Zn	Zn	0.67058 0.82942 0.17058 0.87100
Zn	Zn	0.15169 0.34831 0.65169 0.93700
Zn	Zn	0.17058 0.32942 0.67058 0.87000
Zn	Zn	0.84831 0.15169 0.65169 0.93700
Zn	Zn	0.82942 0.17058 0.67058 0.87100
Zn	Zn	0.34831 0.65169 0.15169 0.93700
Zn	Zn	0.32942 0.67058 0.17058 0.87000
Zn	Zn	0.34831 0.34831 0.34831 0.93700
Zn	Zn	0.32942 0.32942 0.32942 0.87100
Zn	Zn	0.84831 0.84831 0.84831 0.93800
Zn	Zn	0.82942 0.82942 0.82942 0.87300
Zn	Zn	0.15169 0.65169 0.84831 0.93700
Zn	Zn	0.17058 0.67058 0.82942 0.87100
Zn	Zn	0.65169 0.15169 0.34831 0.93700
Zn	Zn	0.67058 0.17058 0.32942 0.87000
Zn	Zn	0.59831 0.90169 0.09831 0.93700
Zn	Zn	0.57942 0.92058 0.07942 0.87100
Zn	Zn	0.09831 0.40169 0.59831 0.93700
Zn	Zn	0.07942 0.42058 0.57942 0.86800
Zn	Zn	0.90169 0.09831 0.59831 0.93700
Zn	Zn	0.92058 0.07942 0.57942 0.87100
Zn	Zn	0.40169 0.59831 0.09831 0.93700
Zn	Zn	0.42058 0.57942 0.07942 0.86800
Zn	Zn	0.09831 0.59831 0.90169 0.93700
Zn	Zn	0.07942 0.57942 0.92058 0.87100
Zn	Zn	0.59831 0.09831 0.40169 0.93700
Zn	Zn	0.57942 0.07942 0.42058 0.86800
Zn	Zn	0.40169 0.40169 0.40169 0.93700
Zn	Zn	0.42058 0.42058 0.42058 0.87100
Zn	Zn	0.90169 0.90169 0.90169 0.93900
Zn	Zn	0.92058 0.92058 0.92058 0.88000
Zn	Zn	0.34831 0.15169 0.84831 0.93700
Zn	Zn	0.32942 0.17058 0.82942 0.87100
Zn	Zn	0.84831 0.65169 0.34831 0.93800
Zn	Zn	0.82942 0.67058 0.32942 0.87200
Zn	Zn	0.15169 0.84831 0.34831 0.93700
Zn	Zn	0.17058 0.82942 0.32942 0.87100
Zn	Zn	0.65169 0.34831 0.84831 0.93800
Zn	Zn	0.67058 0.32942 0.82942 0.87200
Zn	Zn	0.65169 0.65169 0.65169 0.93700
Zn	Zn	0.67058 0.67058 0.67058 0.87100
Zn	Zn	0.15169 0.15169 0.15169 0.93700
Zn	Zn	0.17058 0.17058 0.17058 0.86900
Zn	Zn	0.84831 0.34831 0.15169 0.93700
Zn	Zn	0.82942 0.32942 0.17058 0.87100
Zn	Zn	0.34831 0.84831 0.65169 0.93800
Zn	Zn	0.32942 0.82942 0.67058 0.87200
Zn	Zn	0.40169 0.09831 0.90169 0.93700
Zn	Zn	0.42058 0.07942 0.92058 0.87100
Zn	Zn	0.90169 0.59831 0.40169 0.93800
Zn	Zn	0.92058 0.57942 0.42058 0.87400
Zn	Zn	0.09831 0.90169 0.40169 0.93700
Zn	Zn	0.07942 0.92058 0.42058 0.87100
Zn	Zn	0.59831 0.40169 0.90169 0.93800
Zn	Zn	0.57942 0.42058 0.92058 0.87400
Zn	Zn	0.90169 0.40169 0.09831 0.93700
Zn	Zn	0.92058 0.42058 0.07942 0.87100
Zn	Zn	0.40169 0.90169 0.59831 0.93800
Zn	Zn	0.42058 0.92058 0.57942 0.87400
Zn	Zn	0.59831 0.59831 0.59831 0.93700
Zn	Zn	0.57942 0.57942 0.57942 0.87100
Zn	Zn	0.09831 0.09831 0.09831 0.93500
Zn	Zn	0.07942 0.07942 0.07942 0.86300
C 	C 	0.68070 0.93070 0.12500 0.49200
C 	C 	0.77920 0.02920 0.12500 0.07900
C 	C 	0.18070 0.43070 0.62500 0.48800
C 	C 	0.27920 0.52920 0.62500 0.10100
C 	C 	0.81930 0.06930 0.62500 0.48400
C 	C 	0.72080 0.97080 0.62500 0.12300
C 	C 	0.31930 0.56930 0.12500 0.48700
C 	C 	0.22080 0.47080 0.12500 0.09700
C 	C 	0.31930 0.43070 0.37500 0.48800
C 	C 	0.22080 0.52920 0.37500 0.10000
C 	C 	0.81930 0.93070 0.87500 0.49300
C 	C 	0.72080 0.02920 0.87500 0.08300
C 	C 	0.18070 0.56930 0.87500 0.48900
C 	C 	0.27920 0.47080 0.87500 0.10400
C 	C 	0.68070 0.06930 0.37500 0.48400
C 	C 	0.77920 0.97080 0.37500 0.12400
C 	C 	0.12500 0.68070 0.93070 0.49200
C 	C 	0.12500 0.77920 0.02920 0.07900
C 	C 	0.62500 0.18070 0.43070 0.48800
C 	C 	0.62500 0.27920 0.52920 0.10100
C 	C 	0.62500 0.81930 0.06930 0.48400
C 	C 	0.62500 0.72080 0.97080 0.12300
C 	C 	0.12500 0.31930 0.56930 0.48700
C 	C 	0.12500 0.22080 0.47080 0.09700
C 	C 	0.37500 0.31930 0.43070 0.48800
C 	C 	0.37500 0.22080 0.52920 0.10000
C 	C 	0.87500 0.81930 0.93070 0.49300
C 	C 	0.87500 0.72080 0.02920 0.08300
C 	C 	0.87500 0.18070 0.56930 0.48900
C 	C 	0.87500 0.27920 0.47080 0.10400
C 	C 	0.37500 0.68070 0.06930 0.48400
C 	C 	0.37500 0.77920 0.97080 0.12400
C 	C 	0.93070 0.12500 0.68070 0.49200
C 	C 	0.02920 0.12500 0.77920 0.07900
C 	C 	0.43070 0.62500 0.18070 0.48800
C 	C 	0.52920 0.62500 0.27920 0.10100
C 	C 	0.06930 0.62500 0.81930 0.48400
C 	C 	0.97080 0.62500 0.72080 0.12300
C 	C 	0.56930 0.12500 0.31930 0.48700
C 	C 	0.47080 0.12500 0.22080 0.09700
C 	C 	0.43070 0.37500 0.31930 0.48800
C 	C 	0.52920 0.37500 0.22080 0.10000
C 	C 	0.93070 0.87500 0.81930 0.49300
C 	C 	0.02920 0.87500 0.72080 0.08300
C 	C 	0.56930 0.87500 0.18070 0.48900
C 	C 	0.47080 0.87500 0.27920 0.10400
C 	C 	0.06930 0.37500 0.68070 0.48400
C 	C 	0.97080 0.37500 0.77920 0.12400
C 	C 	0.31930 0.06930 0.87500 0.48500
C 	C 	0.22080 0.97080 0.87500 0.12400
C 	C 	0.81930 0.56930 0.37500 0.48800
C 	C 	0.72080 0.47080 0.37500 0.10100
C 	C 	0.18070 0.93070 0.37500 0.49200
C 	C 	0.27920 0.02920 0.37500 0.08000
C 	C 	0.68070 0.43070 0.87500 0.48900
C 	C 	0.77920 0.52920 0.87500 0.10600
C 	C 	0.68070 0.56930 0.62500 0.48800
C 	C 	0.77920 0.47080 0.62500 0.10300
C 	C 	0.18070 0.06930 0.12500 0.48300
C 	C 	0.27920 0.97080 0.12500 0.11900
C 	C 	0.81930 0.43070 0.12500 0.48800
C 	C 	0.72080 0.52920 0.12500 0.09900
C 	C 	0.31930 0.93070 0.62500 0.49200
C 	C 	0.22080 0.02920 0.62500 0.07900
C 	C 	0.87500 0.31930 0.06930 0.48500
C 	C 	0.87500 0.22080 0.97080 0.12400
C 	C 	0.37500 0.81930 0.56930 0.48800
C 	C 	0.37500 0.72080 0.47080 0.10100
C 	C 	0.37500 0.18070 0.93070 0.49200
C 	C 	0.37500 0.27920 0.02920 0.08000
C 	C 	0.87500 0.68070 0.43070 0.48900
C 	C 	0.87500 0.77920 0.52920 0.10600
C 	C 	0.62500 0.68070 0.56930 0.48800
C 	C 	0.62500 0.77920 0.47080 0.10300
C 	C 	0.12500 0.18070 0.06930 0.48300
C 	C 	0.12500 0.27920 0.97080 0.11900
C 	C 	0.12500 0.81930 0.43070 0.48800
C 	C 	0.12500 0.72080 0.52920 0.09900
C 	C 	0.62500 0.31930 0.93070 0.49200
C 	C 	0.62500 0.22080 0.02920 0.07900
C 	C 	0.06930 0.87500 0.31930 0.48500
C 	C 	0.97080 0.87500 0.22080 0.12400
C 	C 	0.56930 0.37500 0.81930 0.48800
C 	C 	0.47080 0.37500 0.72080 0.10100
C 	C 	0.93070 0.37500 0.18070 0.49200
C 	C 	0.02920 0.37500 0.27920 0.08000
C 	C 	0.43070 0.87500 0.68070 0.48900
C 	C 	0.52920 0.87500 0.77920 0.10600
C 	C 	0.56930 0.62500 0.68070 0.48800
C 	C 	0.47080 0.62500 0.77920 0.10300
C 	C 	0.06930 0.12500 0.18070 0.48300
C 	C 	0.97080 0.12500 0.27920 0.11900
C 	C 	0.43070 0.12500 0.81930 0.48800
C 	C 	0.52920 0.12500 0.72080 0.09900
C 	C 	0.93070 0.62500 0.31930 0.49200
C 	C 	0.02920 0.62500 0.22080 0.07900
