data_crystal

_cell_length_a 9.41780
_cell_length_b 15.45720
_cell_length_c 18.24510
_cell_angle_alpha 95.39900
_cell_angle_beta  91.35200
_cell_angle_gamma 90.31200

_symmetry_space_group_name_	'P 1'
_symmetry_space_group_name_H-M	'P 1'

loop_
_symmetry_equiv_pos_as_xyz
  x,y,z

loop_
_atom_site_label
_atom_site_type_symbol
_atom_site_fract_x
_atom_site_fract_y
_atom_site_fract_z
_atom_site_charge
Zn	Zn	0.25341 0.08870 0.02975 1.23700
Zn	Zn	0.12112 0.41788 0.11214 1.24100
Zn	Zn	0.11070 0.58318 0.38737 1.24200
Zn	Zn	0.25004 0.91445 0.46921 1.24200
O 	O 	0.31240 0.21170 0.00590 -0.32700
O 	O 	0.16660 0.16040 0.11920 -0.33200
O 	O 	0.26690 0.34970 0.04490 -0.32200
O 	O 	0.09730 0.29600 0.14800 -0.33300
O 	O 	0.97820 0.47090 0.18950 -0.32400
O 	O 	0.26100 0.46960 0.19650 -0.32100
O 	O 	0.97220 0.53060 0.30460 -0.32300
O 	O 	0.25670 0.53680 0.30900 -0.32600
O 	O 	0.08690 0.70470 0.35190 -0.32800
O 	O 	0.25320 0.65430 0.46060 -0.32300
O 	O 	0.15880 0.84130 0.38040 -0.33100
O 	O 	0.30380 0.79100 0.49690 -0.32500
O 	O 	0.36220 0.02380 0.94018 -0.30700
O 	O 	0.05420 0.09750 0.96810 -0.29700
O 	O 	0.55610 0.94580 0.91786 -0.31900
O 	O 	0.85000 0.02610 0.94920 -0.32300
O 	O 	0.96020 0.39840 0.02830 -0.31000
O 	O 	0.86150 0.46770 0.93910 -0.32500
O 	O 	0.95330 0.59890 0.46840 -0.31700
O 	O 	0.86510 0.53150 0.55980 -0.31900
O 	O 	0.43400 0.94850 0.41750 -0.32500
O 	O 	0.14690 0.02860 0.45120 -0.33100
O 	O 	0.94520 0.09940 0.47190 -0.30500
O 	O 	0.63120 0.02660 0.44016 -0.31500
C 	C 	0.25580 0.26940 0.04810 0.22000
C 	C 	0.16500 0.23900 0.11070 0.23300
C 	C 	0.03390 0.50120 0.24770 0.23500
C 	C 	0.19900 0.50270 0.25220 0.23700
C 	C 	0.15650 0.76340 0.39050 0.22500
C 	C 	0.24510 0.73300 0.45500 0.23600
C 	C 	0.47740 0.99120 0.95960 0.22100
C 	C 	0.97190 0.03500 0.97620 0.22400
C 	C 	0.94850 0.46130 0.99070 0.22900
C 	C 	0.94720 0.53710 0.50760 0.23200
C 	C 	0.02720 0.03630 0.47790 0.23000
C 	C 	0.51740 0.99250 0.45930 0.22700
Zn	Zn	0.74659 0.91130 0.97025 1.23600
Zn	Zn	0.87888 0.58212 0.88786 1.24000
Zn	Zn	0.88930 0.41682 0.61263 1.24100
Zn	Zn	0.74996 0.08555 0.53079 1.24100
O 	O 	0.68760 0.78830 0.99410 -0.32800
O 	O 	0.83340 0.83960 0.88080 -0.33300
O 	O 	0.73310 0.65030 0.95510 -0.32200
O 	O 	0.90270 0.70400 0.85200 -0.33300
O 	O 	0.02180 0.52910 0.81050 -0.32400
O 	O 	0.73900 0.53040 0.80350 -0.32100
O 	O 	0.02780 0.46940 0.69540 -0.32300
O 	O 	0.74330 0.46320 0.69100 -0.32600
O 	O 	0.91310 0.29530 0.64810 -0.32800
O 	O 	0.74680 0.34570 0.53940 -0.32300
O 	O 	0.84120 0.15870 0.61960 -0.33100
O 	O 	0.69620 0.20900 0.50310 -0.32500
O 	O 	0.63780 0.97620 0.05982 -0.30700
O 	O 	0.94580 0.90250 0.03190 -0.29700
O 	O 	0.44390 0.05420 0.08214 -0.31900
O 	O 	0.15000 0.97390 0.05080 -0.32300
O 	O 	0.03980 0.60160 0.97170 -0.31000
O 	O 	0.13850 0.53230 0.06090 -0.32500
O 	O 	0.04670 0.40110 0.53160 -0.31700
O 	O 	0.13490 0.46850 0.44020 -0.31900
O 	O 	0.56600 0.05150 0.58250 -0.32500
O 	O 	0.85310 0.97140 0.54880 -0.33100
O 	O 	0.05480 0.90060 0.52810 -0.30500
O 	O 	0.36880 0.97340 0.55984 -0.31500
C 	C 	0.74420 0.73060 0.95190 0.22000
C 	C 	0.83500 0.76100 0.88930 0.23300
C 	C 	0.96610 0.49880 0.75230 0.23500
C 	C 	0.80100 0.49730 0.74780 0.23700
C 	C 	0.84350 0.23660 0.60950 0.22500
C 	C 	0.75490 0.26700 0.54500 0.23600
C 	C 	0.52260 0.00880 0.04040 0.22100
C 	C 	0.02810 0.96500 0.02380 0.22400
C 	C 	0.05150 0.53870 0.00930 0.22900
C 	C 	0.05280 0.46290 0.49240 0.23200
C 	C 	0.97280 0.96370 0.52210 0.23000
C 	C 	0.48260 0.00750 0.54070 0.22700
