data_crystal

_cell_length_a 10.02390
_cell_length_b 10.07970
_cell_length_c 23.57260
_cell_angle_alpha 77.71300
_cell_angle_beta  79.76600
_cell_angle_gamma 88.76800

_symmetry_space_group_name_	'P 1'
_symmetry_space_group_name_H-M	'P 1'

loop_
_symmetry_equiv_pos_as_xyz
  x,y,z

loop_
_atom_site_label
_atom_site_type_symbol
_atom_site_fract_x
_atom_site_fract_y
_atom_site_fract_z
_atom_site_charge
C 	C 	0.64800 0.53800 0.37100 0.07400
H 	H 	0.73340 0.53420 0.34850 0.00400
C 	C 	0.63500 0.50900 0.43200 -0.12400
H 	H 	0.71040 0.48410 0.44920 0.08100
C 	C 	0.42000 0.57700 0.37600 0.06500
H 	H 	0.34540 0.59990 0.35790 -0.00700
C 	C 	0.41600 0.25800 0.31800 0.05200
H 	H 	0.35100 0.27570 0.29410 -0.01000
C 	C 	0.37500 0.24300 0.37800 -0.12300
H 	H 	0.28370 0.25110 0.39340 0.07600
C 	C 	0.47000 0.21600 0.41500 0.04500
C 	C 	0.42700 0.19300 0.48000 0.08700
C 	C 	0.94300 0.85600 0.13100 0.07500
H 	H 	0.93160 0.76970 0.15570 -0.00500
C 	C 	0.97000 0.86500 0.07100 -0.12500
H 	H 	0.97610 0.78690 0.05620 0.07600
C 	C 	0.98700 0.99200 0.03300 0.05200
C 	C 	0.27400 0.09300 0.17200 0.07000
H 	H 	0.26610 0.16400 0.19240 -0.01100
C 	C 	0.27500 0.86500 0.17400 0.07200
H 	H 	0.26390 0.77600 0.19560 -0.01000
C 	C 	0.52100 0.15000 0.51700 -0.16700
H 	H 	0.61120 0.13890 0.50160 0.08900
C 	C 	0.29500 0.21000 0.50600 -0.17500
H 	H 	0.23050 0.24030 0.48290 0.08900
C 	C 	0.95200 0.08700 0.12000 0.06300
H 	H 	0.94580 0.16440 0.13580 -0.00000
C 	C 	0.97900 0.10300 0.05900 -0.11700
H 	H 	0.99180 0.19000 0.03540 0.06800
C 	C 	0.30400 0.02000 0.08100 0.05700
C 	C 	0.40000 0.55100 0.43800 -0.12400
H 	H 	0.31390 0.55670 0.45900 0.07200
C 	C 	0.60500 0.20700 0.38900 -0.13000
H 	H 	0.67190 0.18900 0.41200 0.08900
C 	C 	0.32900 0.05100 0.01600 0.07200
C 	C 	0.63600 0.22400 0.32900 0.08500
H 	H 	0.72670 0.21690 0.31210 -0.00800
C 	C 	0.29300 0.12400 0.11200 -0.13100
H 	H 	0.29820 0.21410 0.09190 0.07900
C 	C 	0.48000 0.12400 0.57700 0.12500
H 	H 	0.54150 0.09560 0.60240 -0.00400
C 	C 	0.25900 0.18400 0.56700 0.13600
H 	H 	0.16970 0.19540 0.58380 -0.00700
C 	C 	0.38000 0.20700 0.92200 0.10800
H 	H 	0.39870 0.29520 0.90100 0.01600
C 	C 	0.35600 0.18200 0.98300 -0.14800
H 	H 	0.35700 0.25310 0.00210 0.08500
C 	C 	0.35600 0.97900 0.92300 0.13000
H 	H 	0.35660 0.90970 0.90270 -0.01100
C 	C 	0.33100 0.94800 0.98500 -0.15100
H 	H 	0.31530 0.85860 0.00490 0.08400
C 	C 	0.50900 0.51600 0.46700 0.05700
C 	C 	0.29900 0.88900 0.11300 -0.12800
H 	H 	0.31200 0.81660 0.09350 0.08800
H 	H 	0.39310 0.13480 0.85420 0.15600
H 	H 	0.33100 0.12150 0.63890 0.16300
H 	H 	0.95280 0.03110 0.40080 0.20400
H 	H 	0.01670 0.62320 0.40330 0.22300
H 	H 	0.84600 0.54770 0.09990 0.24300
H 	H 	0.28870 0.53400 0.10020 0.15300
N 	N 	0.37800 0.10600 0.89400 -0.21900
N 	N 	0.93300 0.96400 0.15700 -0.26700
N 	N 	0.54300 0.57200 0.34300 -0.25800
N 	N 	0.54700 0.24900 0.29300 -0.28000
N 	N 	0.26600 0.96500 0.20400 -0.28000
N 	N 	0.35000 0.14100 0.60000 -0.23100
O 	O 	0.78400 0.32400 0.18300 -0.48200
O 	O 	0.97700 0.47500 0.18400 -0.45000
O 	O 	0.79400 0.57000 0.12900 -0.45400
O 	O 	0.74400 0.51800 0.23700 -0.50000
O 	O 	0.49200 0.36600 0.15800 -0.45800
O 	O 	0.44300 0.55900 0.21200 -0.48900
O 	O 	0.35900 0.56700 0.12000 -0.34200
O 	O 	0.26000 0.39400 0.20900 -0.46700
O 	O 	0.70300 0.93300 0.28300 -0.47200
O 	O 	0.58600 0.81100 0.22100 -0.47400
O 	O 	0.58700 0.06100 0.20200 -0.47800
O 	O 	0.45300 0.92600 0.29800 -0.47200
O 	O 	0.16700 0.76300 0.33000 -0.49800
O 	O 	0.11100 0.58100 0.28400 -0.48000
O 	O 	0.96100 0.77900 0.28400 -0.51800
O 	O 	0.96800 0.61400 0.37700 -0.41500
O 	O 	0.16400 0.07100 0.32500 -0.46700
O 	O 	0.98800 0.09800 0.25900 -0.49700
O 	O 	0.02500 0.28200 0.31200 -0.42900
O 	O 	0.91600 0.06200 0.36800 -0.40200
P 	P 	0.82500 0.46700 0.18510 0.55600
P 	P 	0.05300 0.68700 0.31560 0.61900
P 	P 	0.02600 0.13000 0.31380 0.54200
P 	P 	0.58000 0.93400 0.25130 0.52600
P 	P 	0.38900 0.46900 0.17720 0.56900
Zn	Zn	0.60330 0.24890 0.20620 1.21700
Zn	Zn	0.26210 0.92900 0.29140 1.21700
Zn	Zn	0.57820 0.61330 0.25110 1.21800
Zn	Zn	0.89490 0.94490 0.24630 1.22000
Zn	Zn	0.08150 0.43660 0.24690 1.24300
C 	C 	0.35200 0.46200 0.62900 0.07500
H 	H 	0.26660 0.46580 0.65150 0.00500
C 	C 	0.36500 0.49100 0.56800 -0.12300
H 	H 	0.28960 0.51590 0.55080 0.08200
C 	C 	0.58000 0.42300 0.62400 0.06600
H 	H 	0.65460 0.40010 0.64210 -0.00600
C 	C 	0.58400 0.74200 0.68200 0.05300
H 	H 	0.64900 0.72430 0.70590 -0.00900
C 	C 	0.62500 0.75700 0.62200 -0.12200
H 	H 	0.71630 0.74890 0.60660 0.07700
C 	C 	0.53000 0.78400 0.58500 0.04500
C 	C 	0.57300 0.80700 0.52000 0.08700
C 	C 	0.05700 0.14400 0.86900 0.07500
H 	H 	0.06840 0.23030 0.84430 -0.00500
C 	C 	0.03000 0.13500 0.92900 -0.12500
H 	H 	0.02390 0.21310 0.94380 0.07600
C 	C 	0.01300 0.00800 0.96700 0.05200
C 	C 	0.72600 0.90700 0.82800 0.07000
H 	H 	0.73390 0.83600 0.80760 -0.01100
C 	C 	0.72500 0.13500 0.82600 0.07200
H 	H 	0.73610 0.22400 0.80440 -0.01000
C 	C 	0.47900 0.85000 0.48300 -0.16700
H 	H 	0.38880 0.86110 0.49840 0.08900
C 	C 	0.70500 0.79000 0.49400 -0.17500
H 	H 	0.76950 0.75970 0.51710 0.08900
C 	C 	0.04800 0.91300 0.88000 0.06300
H 	H 	0.05420 0.83560 0.86420 -0.00000
C 	C 	0.02100 0.89700 0.94100 -0.11700
H 	H 	0.00820 0.81000 0.96460 0.06800
C 	C 	0.69600 0.98000 0.91900 0.05700
C 	C 	0.60000 0.44900 0.56200 -0.12400
H 	H 	0.68610 0.44330 0.54100 0.07200
C 	C 	0.39500 0.79300 0.61100 -0.13000
H 	H 	0.32810 0.81100 0.58800 0.08900
C 	C 	0.67100 0.94900 0.98400 0.07200
C 	C 	0.36400 0.77600 0.67100 0.08500
H 	H 	0.27330 0.78310 0.68790 -0.00800
C 	C 	0.70700 0.87600 0.88800 -0.13100
H 	H 	0.70180 0.78590 0.90810 0.07900
C 	C 	0.52000 0.87600 0.42300 0.12500
H 	H 	0.45850 0.90440 0.39760 -0.00400
C 	C 	0.74100 0.81600 0.43300 0.13600
H 	H 	0.83030 0.80460 0.41620 -0.00700
C 	C 	0.62000 0.79300 0.07800 0.10800
H 	H 	0.60130 0.70480 0.09900 0.01600
C 	C 	0.64400 0.81800 0.01700 -0.14800
H 	H 	0.64300 0.74690 0.99790 0.08500
C 	C 	0.64400 0.02100 0.07700 0.13000
H 	H 	0.64340 0.09030 0.09730 -0.01100
C 	C 	0.66900 0.05200 0.01500 -0.15100
H 	H 	0.68470 0.14140 0.99510 0.08400
C 	C 	0.49100 0.48400 0.53300 0.05700
C 	C 	0.70100 0.11100 0.88700 -0.12800
H 	H 	0.68800 0.18340 0.90650 0.08800
H 	H 	0.60690 0.86520 0.14580 0.15600
H 	H 	0.66900 0.87850 0.36110 0.16300
H 	H 	0.04720 0.96890 0.59920 0.20400
H 	H 	0.98330 0.37680 0.59670 0.22300
H 	H 	0.15400 0.45230 0.90010 0.24300
H 	H 	0.71130 0.46600 0.89980 0.15300
N 	N 	0.62200 0.89400 0.10600 -0.21900
N 	N 	0.06700 0.03600 0.84300 -0.26700
N 	N 	0.45700 0.42800 0.65700 -0.25800
N 	N 	0.45300 0.75100 0.70700 -0.28000
N 	N 	0.73400 0.03500 0.79600 -0.28000
N 	N 	0.65000 0.85900 0.40000 -0.23100
O 	O 	0.21600 0.67600 0.81700 -0.48200
O 	O 	0.02300 0.52500 0.81600 -0.45000
O 	O 	0.20600 0.43000 0.87100 -0.45400
O 	O 	0.25600 0.48200 0.76300 -0.50000
O 	O 	0.50800 0.63400 0.84200 -0.45800
O 	O 	0.55700 0.44100 0.78800 -0.48900
O 	O 	0.64100 0.43300 0.88000 -0.34200
O 	O 	0.74000 0.60600 0.79100 -0.46700
O 	O 	0.29700 0.06700 0.71700 -0.47200
O 	O 	0.41400 0.18900 0.77900 -0.47400
O 	O 	0.41300 0.93900 0.79800 -0.47800
O 	O 	0.54700 0.07400 0.70200 -0.47200
O 	O 	0.83300 0.23700 0.67000 -0.49800
O 	O 	0.88900 0.41900 0.71600 -0.48000
O 	O 	0.03900 0.22100 0.71600 -0.51800
O 	O 	0.03200 0.38600 0.62300 -0.41500
O 	O 	0.83600 0.92900 0.67500 -0.46700
O 	O 	0.01200 0.90200 0.74100 -0.49700
O 	O 	0.97500 0.71800 0.68800 -0.42900
O 	O 	0.08400 0.93800 0.63200 -0.40200
P 	P 	0.17500 0.53300 0.81490 0.55600
P 	P 	0.94700 0.31300 0.68440 0.61900
P 	P 	0.97400 0.87000 0.68620 0.54200
P 	P 	0.42000 0.06600 0.74870 0.52600
P 	P 	0.61100 0.53100 0.82280 0.56900
Zn	Zn	0.39670 0.75110 0.79380 1.21700
Zn	Zn	0.73790 0.07100 0.70860 1.21700
Zn	Zn	0.42180 0.38670 0.74890 1.21800
Zn	Zn	0.10510 0.05510 0.75370 1.22000
Zn	Zn	0.91850 0.56340 0.75310 1.24300
