data_crystal

_cell_length_a 22.72100
_cell_length_b 25.19860
_cell_length_c 25.19860
_cell_angle_alpha 103.68100
_cell_angle_beta  108.96600
_cell_angle_gamma 108.96600

_symmetry_space_group_name_	'P 1'
_symmetry_space_group_name_H-M	'P 1'

loop_
_symmetry_equiv_pos_as_xyz
  x,y,z

loop_
_atom_site_label
_atom_site_type_symbol
_atom_site_fract_x
_atom_site_fract_y
_atom_site_fract_z
_atom_site_charge
Zn	Zn	0.59342 0.52677 0.46599 1.21000
Zn	Zn	0.27546 0.00893 0.48640 1.21700
Zn	Zn	0.34793 0.93475 0.45911 1.21800
Zn	Zn	0.90658 0.53401 0.47323 1.21000
Zn	Zn	0.22454 0.51360 0.99107 1.21600
Zn	Zn	0.15207 0.54089 0.06525 1.21800
Zn	Zn	0.40658 0.47323 0.53401 1.21000
Zn	Zn	0.72454 0.99107 0.51360 1.21700
Zn	Zn	0.65207 0.06525 0.54089 1.21800
Zn	Zn	0.09342 0.46599 0.52677 1.21000
Zn	Zn	0.77546 0.48640 0.00893 1.21600
Zn	Zn	0.84793 0.45911 0.93475 1.21800
H 	H 	0.40790 0.32860 0.34840 0.06100
H 	H 	0.49950 0.07260 0.40460 0.05600
H 	H 	0.75950 0.72210 0.69110 0.05200
H 	H 	0.66230 0.58090 0.89850 0.04500
H 	H 	0.54040 0.03470 0.64430 0.06000
H 	H 	0.59200 0.29100 0.91840 0.04600
H 	H 	0.45080 0.51800 0.42860 -0.01200
H 	H 	0.62370 0.65280 0.46920 -0.02000
H 	H 	0.39160 0.57530 0.40970 0.10500
H 	H 	0.57000 0.71140 0.44740 0.10000
H 	H 	0.39110 0.67190 0.41090 0.06500
H 	H 	0.50990 0.75850 0.42170 0.06100
H 	H 	0.33800 0.72980 0.40640 0.09400
H 	H 	0.51690 0.86020 0.43780 0.10400
H 	H 	0.29810 0.80170 0.42190 -0.01100
H 	H 	0.47250 0.92810 0.45290 -0.00400
H 	H 	0.69910 0.55040 0.05300 -0.02300
H 	H 	0.77400 0.44470 0.10590 -0.01300
H 	H 	0.65740 0.55890 0.12330 0.09100
H 	H 	0.73930 0.45420 0.18340 0.09200
H 	H 	0.64740 0.54000 0.21200 0.05300
H 	H 	0.72160 0.48460 0.26100 0.07300
H 	H 	0.72560 0.47710 0.35470 0.11100
H 	H 	0.61030 0.55420 0.28120 0.09800
H 	H 	0.69010 0.48810 0.43050 -0.02200
H 	H 	0.57730 0.56190 0.35770 -0.03000
H 	H 	0.34150 0.16020 0.30000 0.05800
H 	H 	0.31310 0.20680 0.28700 0.06000
H 	H 	0.37540 0.22680 0.23000 0.05500
H 	H 	0.40350 0.17980 0.24280 0.05800
H 	H 	0.27140 0.15500 0.16080 0.01600
H 	H 	0.27750 0.10660 0.18860 0.02100
H 	H 	0.34950 0.08990 0.14530 0.11200
H 	H 	0.35100 0.14230 0.12150 0.10400
H 	H 	0.25820 0.02410 0.06250 -0.05300
H 	H 	0.21730 0.06200 0.07280 -0.05300
H 	H 	0.21950 0.04770 0.97750 0.19500
H 	H 	0.30050 0.08270 0.01010 0.19500
H 	H 	0.25580 0.11720 0.01820 0.20200
H 	H 	0.60090 0.18600 0.41120 0.06000
H 	H 	0.55750 0.20330 0.36170 0.05000
H 	H 	0.59590 0.13600 0.31940 0.07500
H 	H 	0.55590 0.08750 0.33970 0.08200
H 	H 	0.49430 0.12570 0.24910 -0.00700
H 	H 	0.45080 0.08440 0.27340 -0.00000
H 	H 	0.48320 0.00820 0.23820 0.13700
H 	H 	0.52530 0.04940 0.21300 0.13300
H 	H 	0.42100 0.04220 0.14240 -0.08500
H 	H 	0.37880 0.00120 0.16760 -0.07900
H 	H 	0.37050 0.93910 0.07650 0.26900
H 	H 	0.40950 0.92340 0.12980 0.26500
H 	H 	0.45120 0.96430 0.10430 0.26100
H 	H 	0.80200 0.72910 0.84830 0.06800
H 	H 	0.75910 0.76100 0.81900 0.06600
H 	H 	0.88540 0.77020 0.81540 0.04800
H 	H 	0.84150 0.79930 0.78210 0.04800
H 	H 	0.91100 0.83660 0.90940 0.02500
H 	H 	0.85960 0.86160 0.87940 0.03100
H 	H 	0.98870 0.88250 0.86970 0.09100
H 	H 	0.93510 0.90170 0.83170 0.08500
H 	H 	0.99980 0.94890 0.96150 -0.03500
H 	H 	0.94720 0.96880 0.92300 -0.03400
H 	H 	0.06540 0.04090 0.95230 0.18600
H 	H 	0.02590 0.00910 0.88130 0.18200
H 	H 	0.07780 0.98810 0.91810 0.18200
H 	H 	0.63930 0.67750 0.85530 0.04300
H 	H 	0.61830 0.65210 0.78550 0.05000
H 	H 	0.52880 0.56340 0.77080 0.08800
H 	H 	0.55250 0.58310 0.84110 0.08400
H 	H 	0.45940 0.60330 0.80550 -0.00700
H 	H 	0.52400 0.66680 0.84040 -0.01400
H 	H 	0.46030 0.60710 0.71250 0.15600
H 	H 	0.52240 0.67220 0.74860 0.15000
H 	H 	0.38780 0.64360 0.74400 -0.09400
H 	H 	0.45000 0.70850 0.78190 -0.10500
H 	H 	0.37920 0.70640 0.68860 0.30100
H 	H 	0.38970 0.65270 0.65330 0.30600
H 	H 	0.45210 0.71740 0.69100 0.29700
H 	H 	0.68210 0.14730 0.76390 0.05800
H 	H 	0.65210 0.11520 0.80160 0.04800
H 	H 	0.65710 0.05550 0.69490 0.09800
H 	H 	0.61870 0.02020 0.72620 0.08800
H 	H 	0.76270 0.09550 0.78470 -0.00300
H 	H 	0.72240 0.05350 0.81050 -0.00700
H 	H 	0.69900 0.96740 0.73100 0.14700
H 	H 	0.73900 0.00920 0.70500 0.15400
H 	H 	0.79970 0.99460 0.81420 -0.09300
H 	H 	0.84180 0.04570 0.79750 -0.08800
H 	H 	0.78090 0.92000 0.72120 0.26100
H 	H 	0.85890 0.95480 0.76860 0.25800
H 	H 	0.83240 0.97300 0.71320 0.26600
H 	H 	0.50910 0.16800 0.88240 0.05600
H 	H 	0.47670 0.13340 0.81200 0.06600
H 	H 	0.41940 0.19220 0.79400 0.06600
H 	H 	0.46000 0.23740 0.86160 0.06000
H 	H 	0.35580 0.11990 0.82570 0.02000
H 	H 	0.39240 0.17030 0.89050 0.00100
H 	H 	0.29140 0.16890 0.78890 0.08800
H 	H 	0.33050 0.22290 0.85150 0.07200
H 	H 	0.15740 0.07790 0.82490 0.24500
H 	H 	0.20340 0.05850 0.79730 0.23800
H 	H 	0.16160 0.09110 0.76810 0.24800
H 	H 	0.09210 0.65160 0.67140 0.06000
H 	H 	0.00050 0.59540 0.92740 0.05400
H 	H 	0.74050 0.30890 0.27790 0.05100
H 	H 	0.83770 0.10150 0.41910 0.04400
H 	H 	0.95960 0.35570 0.96530 0.05900
H 	H 	0.90800 0.08160 0.70900 0.04600
H 	H 	0.04920 0.57140 0.48200 -0.01300
H 	H 	0.87630 0.53080 0.34720 -0.02100
H 	H 	0.10840 0.59030 0.42470 0.10500
H 	H 	0.93000 0.55260 0.28860 0.10000
H 	H 	0.10890 0.58910 0.32810 0.06600
H 	H 	0.99010 0.57830 0.24150 0.05800
H 	H 	0.16200 0.59360 0.27020 0.09300
H 	H 	0.98310 0.56220 0.13980 0.10000
H 	H 	0.20190 0.57810 0.19830 -0.01000
H 	H 	0.02750 0.54710 0.07190 -0.00200
H 	H 	0.80090 0.94700 0.44960 -0.02300
H 	H 	0.72600 0.89410 0.55530 -0.01300
H 	H 	0.84260 0.87670 0.44110 0.09100
H 	H 	0.76070 0.81660 0.54580 0.09200
H 	H 	0.85260 0.78800 0.46000 0.05300
H 	H 	0.77840 0.73900 0.51540 0.07300
H 	H 	0.77440 0.64530 0.52290 0.11100
H 	H 	0.88970 0.71880 0.44580 0.09800
H 	H 	0.80990 0.56950 0.51190 -0.02200
H 	H 	0.92270 0.64230 0.43810 -0.03000
H 	H 	0.15850 0.70000 0.83980 0.05800
H 	H 	0.18690 0.71300 0.79320 0.06000
H 	H 	0.12460 0.77000 0.77320 0.05500
H 	H 	0.09650 0.75720 0.82020 0.05900
H 	H 	0.22860 0.83920 0.84500 0.01500
H 	H 	0.22250 0.81140 0.89340 0.02000
H 	H 	0.15050 0.85470 0.91010 0.11300
H 	H 	0.14900 0.87850 0.85770 0.10500
H 	H 	0.24180 0.93750 0.97590 -0.05500
H 	H 	0.28270 0.92720 0.93800 -0.05500
H 	H 	0.28050 0.02250 0.95230 0.19900
H 	H 	0.19950 0.98990 0.91730 0.19800
H 	H 	0.24420 0.98180 0.88280 0.20400
H 	H 	0.89910 0.58880 0.81400 0.05900
H 	H 	0.94250 0.63830 0.79670 0.05000
H 	H 	0.90410 0.68060 0.86400 0.07500
H 	H 	0.94410 0.66030 0.91250 0.08300
H 	H 	0.00570 0.75090 0.87430 -0.00800
H 	H 	0.04920 0.72660 0.91560 -0.00000
H 	H 	0.01680 0.76180 0.99180 0.13700
H 	H 	0.97470 0.78700 0.95060 0.13500
H 	H 	0.07900 0.85760 0.95780 -0.08500
H 	H 	0.12120 0.83240 0.99880 -0.07900
H 	H 	0.12950 0.92350 0.06090 0.26800
H 	H 	0.09050 0.87020 0.07660 0.26400
H 	H 	0.04880 0.89570 0.03570 0.26100
H 	H 	0.69800 0.15170 0.27090 0.06800
H 	H 	0.74090 0.18100 0.23900 0.06600
H 	H 	0.61460 0.18460 0.22980 0.04700
H 	H 	0.65850 0.21790 0.20070 0.04800
H 	H 	0.58900 0.09060 0.16340 0.02500
H 	H 	0.64040 0.12060 0.13840 0.03100
H 	H 	0.51130 0.13030 0.11750 0.09000
H 	H 	0.56490 0.16830 0.09830 0.08400
H 	H 	0.50020 0.03850 0.05110 -0.03400
H 	H 	0.55280 0.07700 0.03120 -0.03300
H 	H 	0.43460 0.04770 0.95910 0.18400
H 	H 	0.47410 0.11870 0.99090 0.18100
H 	H 	0.42220 0.08190 0.01190 0.18000
H 	H 	0.86070 0.14470 0.32250 0.04300
H 	H 	0.88170 0.21450 0.34790 0.05000
H 	H 	0.97120 0.22920 0.43660 0.08800
H 	H 	0.94750 0.15890 0.41690 0.08300
H 	H 	0.04060 0.19450 0.39670 -0.00600
H 	H 	0.97600 0.15960 0.33320 -0.01300
H 	H 	0.03970 0.28750 0.39290 0.15600
H 	H 	0.97760 0.25140 0.32780 0.14900
H 	H 	0.11220 0.25600 0.35640 -0.09300
H 	H 	0.05000 0.21810 0.29150 -0.10500
H 	H 	0.12080 0.31140 0.29360 0.30000
H 	H 	0.11030 0.34670 0.34730 0.30600
H 	H 	0.04790 0.30900 0.28260 0.29600
H 	H 	0.81790 0.23610 0.85270 0.05800
H 	H 	0.84790 0.19840 0.88480 0.04800
H 	H 	0.84290 0.30510 0.94450 0.09900
H 	H 	0.88130 0.27380 0.97980 0.08900
H 	H 	0.73730 0.21530 0.90450 -0.00400
H 	H 	0.77760 0.18950 0.94650 -0.00700
H 	H 	0.80100 0.26900 0.03260 0.14600
H 	H 	0.76100 0.29500 0.99080 0.15500
H 	H 	0.70030 0.18580 0.00540 -0.09400
H 	H 	0.65820 0.20250 0.95430 -0.08900
H 	H 	0.71910 0.27880 0.08000 0.26200
H 	H 	0.64110 0.23140 0.04520 0.25900
H 	H 	0.66760 0.28680 0.02700 0.26700
H 	H 	0.99090 0.11760 0.83200 0.06000
H 	H 	0.02330 0.18800 0.86660 0.06800
H 	H 	0.08060 0.20600 0.80780 0.06400
H 	H 	0.04000 0.13840 0.76260 0.05800
H 	H 	0.14420 0.17430 0.88010 0.02000
H 	H 	0.10760 0.10950 0.82970 0.00100
H 	H 	0.20860 0.21110 0.83110 0.08800
H 	H 	0.16950 0.14850 0.77710 0.07100
H 	H 	0.34260 0.17510 0.92210 0.24500
H 	H 	0.29660 0.20270 0.94150 0.23800
H 	H 	0.33840 0.23190 0.90890 0.24900
H 	H 	0.59210 0.67140 0.65160 0.06000
H 	H 	0.50050 0.92740 0.59540 0.05500
H 	H 	0.24050 0.27790 0.30890 0.05100
H 	H 	0.33770 0.41910 0.10150 0.04400
H 	H 	0.45960 0.96530 0.35570 0.05900
H 	H 	0.40800 0.70900 0.08160 0.04500
H 	H 	0.54920 0.48200 0.57140 -0.01300
H 	H 	0.37630 0.34720 0.53080 -0.02100
H 	H 	0.60840 0.42470 0.59030 0.10400
H 	H 	0.43000 0.28860 0.55260 0.09900
H 	H 	0.60890 0.32810 0.58910 0.06500
H 	H 	0.49010 0.24150 0.57830 0.06100
H 	H 	0.66200 0.27020 0.59360 0.09400
H 	H 	0.48310 0.13980 0.56220 0.10400
H 	H 	0.70190 0.19830 0.57810 -0.01100
H 	H 	0.52750 0.07190 0.54710 -0.00400
H 	H 	0.30090 0.44960 0.94700 -0.02300
H 	H 	0.22600 0.55530 0.89410 -0.01300
H 	H 	0.34260 0.44110 0.87670 0.09100
H 	H 	0.26070 0.54580 0.81660 0.09200
H 	H 	0.35260 0.46000 0.78800 0.05300
H 	H 	0.27840 0.51540 0.73900 0.07300
H 	H 	0.27440 0.52290 0.64530 0.11100
H 	H 	0.38970 0.44580 0.71880 0.09800
H 	H 	0.30990 0.51190 0.56950 -0.02200
H 	H 	0.42270 0.43810 0.64230 -0.03000
H 	H 	0.65850 0.83980 0.70000 0.05800
H 	H 	0.68690 0.79320 0.71300 0.06000
H 	H 	0.62460 0.77320 0.77000 0.05500
H 	H 	0.59650 0.82020 0.75720 0.05800
H 	H 	0.72860 0.84500 0.83920 0.01600
H 	H 	0.72250 0.89340 0.81140 0.02100
H 	H 	0.65050 0.91010 0.85470 0.11200
H 	H 	0.64900 0.85770 0.87850 0.10400
H 	H 	0.74180 0.97590 0.93750 -0.05300
H 	H 	0.78270 0.93800 0.92720 -0.05300
H 	H 	0.78050 0.95230 0.02250 0.19500
H 	H 	0.69950 0.91730 0.98990 0.19500
H 	H 	0.74420 0.88280 0.98180 0.20200
H 	H 	0.39910 0.81400 0.58880 0.06000
H 	H 	0.44250 0.79670 0.63830 0.05000
H 	H 	0.40410 0.86400 0.68060 0.07500
H 	H 	0.44410 0.91250 0.66030 0.08200
H 	H 	0.50570 0.87430 0.75090 -0.00700
H 	H 	0.54920 0.91560 0.72660 -0.00000
H 	H 	0.51680 0.99180 0.76180 0.13700
H 	H 	0.47470 0.95060 0.78700 0.13300
H 	H 	0.57900 0.95780 0.85760 -0.08500
H 	H 	0.62120 0.99880 0.83240 -0.07900
H 	H 	0.62950 0.06090 0.92350 0.26900
H 	H 	0.59050 0.07660 0.87020 0.26500
H 	H 	0.54880 0.03570 0.89570 0.26100
H 	H 	0.19800 0.27090 0.15170 0.06800
H 	H 	0.24090 0.23900 0.18100 0.06600
H 	H 	0.11460 0.22980 0.18460 0.04800
H 	H 	0.15850 0.20070 0.21790 0.04800
H 	H 	0.08900 0.16340 0.09060 0.02500
H 	H 	0.14040 0.13840 0.12060 0.03100
H 	H 	0.01130 0.11750 0.13030 0.09100
H 	H 	0.06490 0.09830 0.16830 0.08500
H 	H 	0.00020 0.05110 0.03850 -0.03500
H 	H 	0.05280 0.03120 0.07700 -0.03400
H 	H 	0.93460 0.95910 0.04770 0.18600
H 	H 	0.97410 0.99090 0.11870 0.18200
H 	H 	0.92220 0.01190 0.08190 0.18200
H 	H 	0.36070 0.32250 0.14470 0.04300
H 	H 	0.38170 0.34790 0.21450 0.05000
H 	H 	0.47120 0.43660 0.22920 0.08800
H 	H 	0.44750 0.41690 0.15890 0.08400
H 	H 	0.54060 0.39670 0.19450 -0.00700
H 	H 	0.47600 0.33320 0.15960 -0.01400
H 	H 	0.53970 0.39290 0.28750 0.15600
H 	H 	0.47760 0.32780 0.25140 0.15000
H 	H 	0.61220 0.35640 0.25600 -0.09400
H 	H 	0.55000 0.29150 0.21810 -0.10500
H 	H 	0.62080 0.29360 0.31140 0.30100
H 	H 	0.61030 0.34730 0.34670 0.30600
H 	H 	0.54790 0.28260 0.30900 0.29700
H 	H 	0.31790 0.85270 0.23610 0.05800
H 	H 	0.34790 0.88480 0.19840 0.04800
H 	H 	0.34290 0.94450 0.30510 0.09800
H 	H 	0.38130 0.97980 0.27380 0.08800
H 	H 	0.23730 0.90450 0.21530 -0.00300
H 	H 	0.27760 0.94650 0.18950 -0.00700
H 	H 	0.30100 0.03260 0.26900 0.14700
H 	H 	0.26100 0.99080 0.29500 0.15400
H 	H 	0.20030 0.00540 0.18580 -0.09300
H 	H 	0.15820 0.95430 0.20250 -0.08800
H 	H 	0.21910 0.08000 0.27880 0.26100
H 	H 	0.14110 0.04520 0.23140 0.25800
H 	H 	0.16760 0.02700 0.28680 0.26600
H 	H 	0.49090 0.83200 0.11760 0.05600
H 	H 	0.52330 0.86660 0.18800 0.06600
H 	H 	0.58060 0.80780 0.20600 0.06600
H 	H 	0.54000 0.76260 0.13840 0.06000
H 	H 	0.64420 0.88010 0.17430 0.02000
H 	H 	0.60760 0.82970 0.10950 0.00100
H 	H 	0.70860 0.83110 0.21110 0.08800
H 	H 	0.66950 0.77710 0.14850 0.07200
H 	H 	0.84260 0.92210 0.17510 0.24500
H 	H 	0.79660 0.94150 0.20270 0.23800
H 	H 	0.83840 0.90890 0.23190 0.24800
H 	H 	0.90790 0.34840 0.32860 0.06000
H 	H 	0.99950 0.40460 0.07260 0.05400
H 	H 	0.25950 0.69110 0.72210 0.05100
H 	H 	0.16230 0.89850 0.58090 0.04400
H 	H 	0.04040 0.64430 0.03470 0.05900
H 	H 	0.09200 0.91840 0.29100 0.04600
H 	H 	0.95080 0.42860 0.51800 -0.01300
H 	H 	0.12370 0.46920 0.65280 -0.02100
H 	H 	0.89160 0.40970 0.57530 0.10500
H 	H 	0.07000 0.44740 0.71140 0.10000
H 	H 	0.89110 0.41090 0.67190 0.06600
H 	H 	0.00990 0.42170 0.75850 0.05800
H 	H 	0.83800 0.40640 0.72980 0.09300
H 	H 	0.01690 0.43780 0.86020 0.10000
H 	H 	0.79810 0.42190 0.80170 -0.01000
H 	H 	0.97250 0.45290 0.92810 -0.00200
H 	H 	0.19910 0.05300 0.55040 -0.02300
H 	H 	0.27400 0.10590 0.44470 -0.01300
H 	H 	0.15740 0.12330 0.55890 0.09100
H 	H 	0.23930 0.18340 0.45420 0.09200
H 	H 	0.14740 0.21200 0.54000 0.05300
H 	H 	0.22160 0.26100 0.48460 0.07300
H 	H 	0.22560 0.35470 0.47710 0.11100
H 	H 	0.11030 0.28120 0.55420 0.09800
H 	H 	0.19010 0.43050 0.48810 -0.02200
H 	H 	0.07730 0.35770 0.56190 -0.03000
H 	H 	0.84150 0.30000 0.16020 0.05800
H 	H 	0.81310 0.28700 0.20680 0.06000
H 	H 	0.87540 0.23000 0.22680 0.05500
H 	H 	0.90350 0.24280 0.17980 0.05900
H 	H 	0.77140 0.16080 0.15500 0.01500
H 	H 	0.77750 0.18860 0.10660 0.02000
H 	H 	0.84950 0.14530 0.08990 0.11300
H 	H 	0.85100 0.12150 0.14230 0.10500
H 	H 	0.75820 0.06250 0.02410 -0.05500
H 	H 	0.71730 0.07280 0.06200 -0.05500
H 	H 	0.71950 0.97750 0.04770 0.19900
H 	H 	0.80050 0.01010 0.08270 0.19800
H 	H 	0.75580 0.01820 0.11720 0.20400
H 	H 	0.10090 0.41120 0.18600 0.05900
H 	H 	0.05750 0.36170 0.20330 0.05000
H 	H 	0.09590 0.31940 0.13600 0.07500
H 	H 	0.05590 0.33970 0.08750 0.08300
H 	H 	0.99430 0.24910 0.12570 -0.00800
H 	H 	0.95080 0.27340 0.08440 -0.00000
H 	H 	0.98320 0.23820 0.00820 0.13700
H 	H 	0.02530 0.21300 0.04940 0.13500
H 	H 	0.92100 0.14240 0.04220 -0.08500
H 	H 	0.87880 0.16760 0.00120 -0.07900
H 	H 	0.87050 0.07650 0.93910 0.26800
H 	H 	0.90950 0.12980 0.92340 0.26400
H 	H 	0.95120 0.10430 0.96430 0.26100
H 	H 	0.30200 0.84830 0.72910 0.06800
H 	H 	0.25910 0.81900 0.76100 0.06600
H 	H 	0.38540 0.81540 0.77020 0.04700
H 	H 	0.34150 0.78210 0.79930 0.04800
H 	H 	0.41100 0.90940 0.83660 0.02500
H 	H 	0.35960 0.87940 0.86160 0.03100
H 	H 	0.48870 0.86970 0.88250 0.09000
H 	H 	0.43510 0.83170 0.90170 0.08400
H 	H 	0.49980 0.96150 0.94890 -0.03400
H 	H 	0.44720 0.92300 0.96880 -0.03300
H 	H 	0.56540 0.95230 0.04090 0.18400
H 	H 	0.52590 0.88130 0.00910 0.18100
H 	H 	0.57780 0.91810 0.98810 0.18000
H 	H 	0.13930 0.85530 0.67750 0.04300
H 	H 	0.11830 0.78550 0.65210 0.05000
H 	H 	0.02880 0.77080 0.56340 0.08800
H 	H 	0.05250 0.84110 0.58310 0.08300
H 	H 	0.95940 0.80550 0.60330 -0.00600
H 	H 	0.02400 0.84040 0.66680 -0.01300
H 	H 	0.96030 0.71250 0.60710 0.15600
H 	H 	0.02240 0.74860 0.67220 0.14900
H 	H 	0.88780 0.74400 0.64360 -0.09300
H 	H 	0.95000 0.78190 0.70850 -0.10500
H 	H 	0.87920 0.68860 0.70640 0.30000
H 	H 	0.88970 0.65330 0.65270 0.30600
H 	H 	0.95210 0.69100 0.71740 0.29600
H 	H 	0.18210 0.76390 0.14730 0.05800
H 	H 	0.15210 0.80160 0.11520 0.04800
H 	H 	0.15710 0.69490 0.05550 0.09900
H 	H 	0.11870 0.72620 0.02020 0.08900
H 	H 	0.26270 0.78470 0.09550 -0.00400
H 	H 	0.22240 0.81050 0.05350 -0.00700
H 	H 	0.19900 0.73100 0.96740 0.14600
H 	H 	0.23900 0.70500 0.00920 0.15500
H 	H 	0.29970 0.81420 0.99460 -0.09400
H 	H 	0.34180 0.79750 0.04570 -0.08900
H 	H 	0.28090 0.72120 0.92000 0.26200
H 	H 	0.35890 0.76860 0.95480 0.25900
H 	H 	0.33240 0.71320 0.97300 0.26700
H 	H 	0.00910 0.88240 0.16800 0.06000
H 	H 	0.97670 0.81200 0.13340 0.06800
H 	H 	0.91940 0.79400 0.19220 0.06400
H 	H 	0.96000 0.86160 0.23740 0.05800
H 	H 	0.85580 0.82570 0.11990 0.02000
H 	H 	0.89240 0.89050 0.17030 0.00100
H 	H 	0.79140 0.78890 0.16890 0.08800
H 	H 	0.83050 0.85150 0.22290 0.07100
H 	H 	0.65740 0.82490 0.07790 0.24500
H 	H 	0.70340 0.79730 0.05850 0.23800
H 	H 	0.66160 0.76810 0.09110 0.24900
C 	C 	0.54160 0.41455 0.43607 0.30300
C 	C 	0.49990 0.34688 0.41052 -0.06300
C 	C 	0.43590 0.31272 0.36808 -0.05600
C 	C 	0.41320 0.24881 0.35479 0.02800
C 	C 	0.46350 0.23794 0.39034 -0.02600
C 	C 	0.45890 0.18062 0.39636 -0.02000
C 	C 	0.49970 0.15122 0.39220 0.02400
C 	C 	0.47800 0.09824 0.40514 -0.03700
C 	C 	0.42310 0.08835 0.41841 -0.09100
C 	C 	0.38680 0.03977 0.43547 0.37200
C 	C 	0.68450 0.61566 0.58534 0.33500
C 	C 	0.70400 0.63108 0.65106 -0.07600
C 	C 	0.74070 0.68652 0.69708 -0.05900
C 	C 	0.74840 0.68579 0.75549 0.03200
C 	C 	0.71740 0.62734 0.75148 -0.03400
C 	C 	0.71370 0.60550 0.79942 -0.01400
C 	C 	0.67660 0.61195 0.83187 0.00200
C 	C 	0.68360 0.58107 0.87261 -0.02400
C 	C 	0.72390 0.55222 0.87008 -0.09300
C 	C 	0.74540 0.51835 0.90647 0.37600
C 	C 	0.41100 0.03121 0.58085 0.37900
C 	C 	0.46940 0.06810 0.64172 -0.09100
C 	C 	0.53040 0.06355 0.66525 -0.03900
C 	C 	0.57650 0.10740 0.72488 0.01400
C 	C 	0.54940 0.14484 0.74436 -0.02000
C 	C 	0.58190 0.19937 0.80101 -0.03200
C 	C 	0.55730 0.21439 0.84241 0.03600
C 	C 	0.60090 0.27363 0.88683 -0.04500
C 	C 	0.65770 0.30299 0.87851 -0.08700
C 	C 	0.71340 0.36564 0.91492 0.37000
C 	C 	0.47520 0.55782 0.43340 0.10500
C 	C 	0.57610 0.63672 0.45656 0.11800
C 	C 	0.43900 0.59204 0.42148 -0.18500
C 	C 	0.54450 0.67260 0.44440 -0.19200
C 	C 	0.47360 0.65093 0.42719 0.14100
C 	C 	0.43750 0.68831 0.41867 -0.09700
C 	C 	0.46640 0.74470 0.42120 -0.08600
C 	C 	0.43390 0.78659 0.42331 0.13400
C 	C 	0.36700 0.77027 0.41693 -0.18300
C 	C 	0.47260 0.84721 0.43555 -0.18600
C 	C 	0.34320 0.81355 0.42605 0.10800
C 	C 	0.44530 0.88763 0.44419 0.11800
C 	C 	0.70720 0.53052 0.07948 0.12000
C 	C 	0.75180 0.46931 0.11069 0.09700
C 	C 	0.68360 0.53724 0.12256 -0.19800
C 	C 	0.73110 0.47486 0.15774 -0.18100
C 	C 	0.69840 0.51193 0.16507 0.12600
C 	C 	0.67640 0.52082 0.21398 -0.08200
C 	C 	0.69350 0.50458 0.25942 -0.10700
C 	C 	0.67240 0.51492 0.30948 0.15100
C 	C 	0.69560 0.49497 0.35467 -0.21200
C 	C 	0.62740 0.54043 0.31117 -0.20700
C 	C 	0.67400 0.50183 0.40013 0.11000
C 	C 	0.60820 0.54510 0.35750 0.11300
C 	C 	0.35310 0.19840 0.29420 -0.12900
C 	C 	0.36390 0.18880 0.23620 -0.12800
C 	C 	0.30250 0.13850 0.17810 0.00800
C 	C 	0.32220 0.11010 0.12950 -0.29500
C 	C 	0.25910 0.06400 0.06920 0.23300
C 	C 	0.25900 0.07930 0.01350 -0.65700
C 	C 	0.55760 0.17036 0.37524 -0.10000
C 	C 	0.55490 0.12026 0.32594 -0.17800
C 	C 	0.49170 0.09477 0.26623 0.08600
C 	C 	0.48480 0.03880 0.22080 -0.38100
C 	C 	0.41940 0.01160 0.15980 0.33200
C 	C 	0.41190 0.95410 0.11310 -0.81500
C 	C 	0.78890 0.74175 0.81445 -0.15100
C 	C 	0.85420 0.78850 0.81730 -0.09400
C 	C 	0.89180 0.84580 0.87420 -0.04000
C 	C 	0.95290 0.89570 0.86910 -0.23700
C 	C 	0.98250 0.95490 0.92390 0.15800
C 	C 	0.04410 0.00310 0.91830 -0.58900
C 	C 	0.62170 0.64070 0.82010 -0.08200
C 	C 	0.54900 0.59800 0.80860 -0.19800
C 	C 	0.50110 0.62950 0.80490 0.10900
C 	C 	0.48130 0.64400 0.74820 -0.42100
C 	C 	0.42950 0.67230 0.74550 0.40600
C 	C 	0.41090 0.68870 0.68930 -0.91200
C 	C 	0.64650 0.11104 0.76078 -0.08700
C 	C 	0.65730 0.05684 0.73376 -0.19900
C 	C 	0.72430 0.05697 0.77343 0.10600
C 	C 	0.73750 0.00585 0.74215 -0.40700
C 	C 	0.80400 0.00531 0.78069 0.35500
C 	C 	0.82070 0.95880 0.74220 -0.81300
C 	C 	0.49550 0.17250 0.84350 -0.14100
C 	C 	0.43770 0.19470 0.83550 -0.12500
C 	C 	0.37420 0.16320 0.84760 -0.01500
C 	C 	0.31160 0.17910 0.83230 -0.24200
C 	C 	0.18700 0.08870 0.80550 -0.77300
C 	C 	0.95840 0.56393 0.58545 0.30400
C 	C 	0.00010 0.58948 0.65312 -0.06500
C 	C 	0.06410 0.63192 0.68728 -0.05600
C 	C 	0.08680 0.64521 0.75119 0.02800
C 	C 	0.03650 0.60966 0.76206 -0.02700
C 	C 	0.04110 0.60364 0.81938 -0.01900
C 	C 	0.00030 0.60780 0.84878 0.02200
C 	C 	0.02200 0.59486 0.90176 -0.03700
C 	C 	0.07690 0.58159 0.91165 -0.09100
C 	C 	0.11320 0.56453 0.96023 0.37000
C 	C 	0.81550 0.41466 0.38434 0.33500
C 	C 	0.79600 0.34894 0.36892 -0.07600
C 	C 	0.75930 0.30292 0.31348 -0.05900
C 	C 	0.75160 0.24451 0.31421 0.03300
C 	C 	0.78260 0.24852 0.37266 -0.03400
C 	C 	0.78630 0.20058 0.39450 -0.01400
C 	C 	0.82340 0.16813 0.38805 0.00200
C 	C 	0.81640 0.12739 0.41893 -0.02400
C 	C 	0.77610 0.12992 0.44778 -0.09300
C 	C 	0.75460 0.09353 0.48165 0.37600
C 	C 	0.08900 0.41915 0.96879 0.37800
C 	C 	0.03060 0.35828 0.93190 -0.09400
C 	C 	0.96960 0.33475 0.93645 -0.03500
C 	C 	0.92350 0.27512 0.89260 0.01200
C 	C 	0.95060 0.25564 0.85516 -0.01800
C 	C 	0.91810 0.19899 0.80063 -0.03400
C 	C 	0.94270 0.15759 0.78561 0.04200
C 	C 	0.89910 0.11317 0.72637 -0.04800
C 	C 	0.84230 0.12149 0.69701 -0.08600
C 	C 	0.78660 0.08508 0.63436 0.37000
C 	C 	0.02480 0.56660 0.44218 0.10700
C 	C 	0.92390 0.54344 0.36328 0.12000
C 	C 	0.06100 0.57852 0.40796 -0.18700
C 	C 	0.95550 0.55560 0.32740 -0.19500
C 	C 	0.02640 0.57281 0.34907 0.14500
C 	C 	0.06250 0.58133 0.31169 -0.10100
C 	C 	0.03360 0.57880 0.25530 -0.08000
C 	C 	0.06610 0.57669 0.21341 0.13000
C 	C 	0.13300 0.58307 0.22973 -0.18000
C 	C 	0.02740 0.56445 0.15279 -0.17900
C 	C 	0.15680 0.57395 0.18645 0.10600
C 	C 	0.05470 0.55581 0.11237 0.11500
C 	C 	0.79280 0.92052 0.46948 0.12000
C 	C 	0.74820 0.88931 0.53069 0.09700
C 	C 	0.81640 0.87744 0.46276 -0.19800
C 	C 	0.76890 0.84226 0.52514 -0.18100
C 	C 	0.80160 0.83493 0.48807 0.12600
C 	C 	0.82360 0.78602 0.47918 -0.08200
C 	C 	0.80650 0.74058 0.49542 -0.10700
C 	C 	0.82760 0.69052 0.48508 0.15100
C 	C 	0.80440 0.64533 0.50503 -0.21200
C 	C 	0.87260 0.68883 0.45957 -0.20700
C 	C 	0.82600 0.59987 0.49817 0.11000
C 	C 	0.89180 0.64250 0.45490 0.11300
C 	C 	0.14690 0.70580 0.80160 -0.12800
C 	C 	0.13610 0.76380 0.81120 -0.12900
C 	C 	0.19750 0.82190 0.86150 0.01000
C 	C 	0.17780 0.87050 0.88990 -0.29900
C 	C 	0.24090 0.93080 0.93600 0.23800
C 	C 	0.24100 0.98650 0.92070 -0.66600
C 	C 	0.94240 0.62476 0.82964 -0.09700
C 	C 	0.94510 0.67406 0.87974 -0.17800
C 	C 	0.00830 0.73377 0.90523 0.08500
C 	C 	0.01520 0.77920 0.96120 -0.38300
C 	C 	0.08060 0.84020 0.98840 0.33000
C 	C 	0.08810 0.88690 0.04590 -0.81100
C 	C 	0.71110 0.18555 0.25825 -0.15100
C 	C 	0.64580 0.18270 0.21150 -0.09300
C 	C 	0.60820 0.12580 0.15420 -0.04200
C 	C 	0.54710 0.13090 0.10430 -0.23500
C 	C 	0.51750 0.07610 0.04510 0.15400
C 	C 	0.45590 0.08170 0.99690 -0.58200
C 	C 	0.87830 0.17990 0.35930 -0.08200
C 	C 	0.95100 0.19140 0.40200 -0.19700
C 	C 	0.99890 0.19510 0.37050 0.10700
C 	C 	0.01870 0.25180 0.35600 -0.41800
C 	C 	0.07050 0.25450 0.32770 0.40500
C 	C 	0.08910 0.31070 0.31130 -0.91100
C 	C 	0.85350 0.23922 0.88896 -0.08500
C 	C 	0.84270 0.26624 0.94316 -0.20000
C 	C 	0.77570 0.22657 0.94303 0.10700
C 	C 	0.76250 0.25785 0.99415 -0.40700
C 	C 	0.69600 0.21931 0.99469 0.35800
C 	C 	0.67930 0.25780 0.04120 -0.81500
C 	C 	0.00450 0.15650 0.82750 -0.15100
C 	C 	0.06230 0.16450 0.80530 -0.12000
C 	C 	0.12580 0.15240 0.83680 -0.01800
C 	C 	0.18840 0.16770 0.82090 -0.24100
C 	C 	0.31300 0.19450 0.91130 -0.77300
C 	C 	0.45840 0.58545 0.56393 0.30300
C 	C 	0.50010 0.65312 0.58948 -0.06300
C 	C 	0.56410 0.68728 0.63192 -0.05600
C 	C 	0.58680 0.75119 0.64521 0.02800
C 	C 	0.53650 0.76206 0.60966 -0.02600
C 	C 	0.54110 0.81938 0.60364 -0.02000
C 	C 	0.50030 0.84878 0.60780 0.02400
C 	C 	0.52200 0.90176 0.59486 -0.03700
C 	C 	0.57690 0.91165 0.58159 -0.09100
C 	C 	0.61320 0.96023 0.56453 0.37200
C 	C 	0.31550 0.38434 0.41466 0.33500
C 	C 	0.29600 0.36892 0.34894 -0.07600
C 	C 	0.25930 0.31348 0.30292 -0.05900
C 	C 	0.25160 0.31421 0.24451 0.03200
C 	C 	0.28260 0.37266 0.24852 -0.03400
C 	C 	0.28630 0.39450 0.20058 -0.01400
C 	C 	0.32340 0.38805 0.16813 0.00200
C 	C 	0.31640 0.41893 0.12739 -0.02400
C 	C 	0.27610 0.44778 0.12992 -0.09300
C 	C 	0.25460 0.48165 0.09353 0.37600
C 	C 	0.58900 0.96879 0.41915 0.37900
C 	C 	0.53060 0.93190 0.35828 -0.09100
C 	C 	0.46960 0.93645 0.33475 -0.03900
C 	C 	0.42350 0.89260 0.27512 0.01400
C 	C 	0.45060 0.85516 0.25564 -0.02000
C 	C 	0.41810 0.80063 0.19899 -0.03200
C 	C 	0.44270 0.78561 0.15759 0.03600
C 	C 	0.39910 0.72637 0.11317 -0.04500
C 	C 	0.34230 0.69701 0.12149 -0.08700
C 	C 	0.28660 0.63436 0.08508 0.37000
C 	C 	0.52480 0.44218 0.56660 0.10500
C 	C 	0.42390 0.36328 0.54344 0.11800
C 	C 	0.56100 0.40796 0.57852 -0.18500
C 	C 	0.45550 0.32740 0.55560 -0.19200
C 	C 	0.52640 0.34907 0.57281 0.14100
C 	C 	0.56250 0.31169 0.58133 -0.09700
C 	C 	0.53360 0.25530 0.57880 -0.08600
C 	C 	0.56610 0.21341 0.57669 0.13400
C 	C 	0.63300 0.22973 0.58307 -0.18300
C 	C 	0.52740 0.15279 0.56445 -0.18600
C 	C 	0.65680 0.18645 0.57395 0.10800
C 	C 	0.55470 0.11237 0.55581 0.11800
C 	C 	0.29280 0.46948 0.92052 0.12000
C 	C 	0.24820 0.53069 0.88931 0.09700
C 	C 	0.31640 0.46276 0.87744 -0.19800
C 	C 	0.26890 0.52514 0.84226 -0.18100
C 	C 	0.30160 0.48807 0.83493 0.12600
C 	C 	0.32360 0.47918 0.78602 -0.08200
C 	C 	0.30650 0.49542 0.74058 -0.10700
C 	C 	0.32760 0.48508 0.69052 0.15100
C 	C 	0.30440 0.50503 0.64533 -0.21200
C 	C 	0.37260 0.45957 0.68883 -0.20700
C 	C 	0.32600 0.49817 0.59987 0.11000
C 	C 	0.39180 0.45490 0.64250 0.11300
C 	C 	0.64690 0.80160 0.70580 -0.12900
C 	C 	0.63610 0.81120 0.76380 -0.12800
C 	C 	0.69750 0.86150 0.82190 0.00800
C 	C 	0.67780 0.88990 0.87050 -0.29500
C 	C 	0.74090 0.93600 0.93080 0.23300
C 	C 	0.74100 0.92070 0.98650 -0.65700
C 	C 	0.44240 0.82964 0.62476 -0.10000
C 	C 	0.44510 0.87974 0.67406 -0.17800
C 	C 	0.50830 0.90523 0.73377 0.08600
C 	C 	0.51520 0.96120 0.77920 -0.38100
C 	C 	0.58060 0.98840 0.84020 0.33200
C 	C 	0.58810 0.04590 0.88690 -0.81500
C 	C 	0.21110 0.25825 0.18555 -0.15100
C 	C 	0.14580 0.21150 0.18270 -0.09400
C 	C 	0.10820 0.15420 0.12580 -0.04000
C 	C 	0.04710 0.10430 0.13090 -0.23700
C 	C 	0.01750 0.04510 0.07610 0.15800
C 	C 	0.95590 0.99690 0.08170 -0.58900
C 	C 	0.37830 0.35930 0.17990 -0.08200
C 	C 	0.45100 0.40200 0.19140 -0.19800
C 	C 	0.49890 0.37050 0.19510 0.10900
C 	C 	0.51870 0.35600 0.25180 -0.42100
C 	C 	0.57050 0.32770 0.25450 0.40600
C 	C 	0.58910 0.31130 0.31070 -0.91200
C 	C 	0.35350 0.88896 0.23922 -0.08700
C 	C 	0.34270 0.94316 0.26624 -0.19900
C 	C 	0.27570 0.94303 0.22657 0.10600
C 	C 	0.26250 0.99415 0.25785 -0.40700
C 	C 	0.19600 0.99469 0.21931 0.35500
C 	C 	0.17930 0.04120 0.25780 -0.81300
C 	C 	0.50450 0.82750 0.15650 -0.14100
C 	C 	0.56230 0.80530 0.16450 -0.12500
C 	C 	0.62580 0.83680 0.15240 -0.01500
C 	C 	0.68840 0.82090 0.16770 -0.24200
C 	C 	0.81300 0.91130 0.19450 -0.77300
C 	C 	0.04160 0.43607 0.41455 0.30400
C 	C 	0.99990 0.41052 0.34688 -0.06500
C 	C 	0.93590 0.36808 0.31272 -0.05600
C 	C 	0.91320 0.35479 0.24881 0.02800
C 	C 	0.96350 0.39034 0.23794 -0.02700
C 	C 	0.95890 0.39636 0.18062 -0.01900
C 	C 	0.99970 0.39220 0.15122 0.02200
C 	C 	0.97800 0.40514 0.09824 -0.03700
C 	C 	0.92310 0.41841 0.08835 -0.09100
C 	C 	0.88680 0.43547 0.03977 0.37000
C 	C 	0.18450 0.58534 0.61566 0.33500
C 	C 	0.20400 0.65106 0.63108 -0.07600
C 	C 	0.24070 0.69708 0.68652 -0.05900
C 	C 	0.24840 0.75549 0.68579 0.03300
C 	C 	0.21740 0.75148 0.62734 -0.03400
C 	C 	0.21370 0.79942 0.60550 -0.01400
C 	C 	0.17660 0.83187 0.61195 0.00200
C 	C 	0.18360 0.87261 0.58107 -0.02400
C 	C 	0.22390 0.87008 0.55222 -0.09300
C 	C 	0.24540 0.90647 0.51835 0.37600
C 	C 	0.91100 0.58085 0.03121 0.37800
C 	C 	0.96940 0.64172 0.06810 -0.09400
C 	C 	0.03040 0.66525 0.06355 -0.03500
C 	C 	0.07650 0.72488 0.10740 0.01200
C 	C 	0.04940 0.74436 0.14484 -0.01800
C 	C 	0.08190 0.80101 0.19937 -0.03400
C 	C 	0.05730 0.84241 0.21439 0.04200
C 	C 	0.10090 0.88683 0.27363 -0.04800
C 	C 	0.15770 0.87851 0.30299 -0.08600
C 	C 	0.21340 0.91492 0.36564 0.37000
C 	C 	0.97520 0.43340 0.55782 0.10700
C 	C 	0.07610 0.45656 0.63672 0.12000
C 	C 	0.93900 0.42148 0.59204 -0.18700
C 	C 	0.04450 0.44440 0.67260 -0.19500
C 	C 	0.97360 0.42719 0.65093 0.14500
C 	C 	0.93750 0.41867 0.68831 -0.10100
C 	C 	0.96640 0.42120 0.74470 -0.08000
C 	C 	0.93390 0.42331 0.78659 0.13000
C 	C 	0.86700 0.41693 0.77027 -0.18000
C 	C 	0.97260 0.43555 0.84721 -0.17900
C 	C 	0.84320 0.42605 0.81355 0.10600
C 	C 	0.94530 0.44419 0.88763 0.11500
C 	C 	0.20720 0.07948 0.53052 0.12000
C 	C 	0.25180 0.11069 0.46931 0.09700
C 	C 	0.18360 0.12256 0.53724 -0.19800
C 	C 	0.23110 0.15774 0.47486 -0.18100
C 	C 	0.19840 0.16507 0.51193 0.12600
C 	C 	0.17640 0.21398 0.52082 -0.08200
C 	C 	0.19350 0.25942 0.50458 -0.10700
C 	C 	0.17240 0.30948 0.51492 0.15100
C 	C 	0.19560 0.35467 0.49497 -0.21200
C 	C 	0.12740 0.31117 0.54043 -0.20700
C 	C 	0.17400 0.40013 0.50183 0.11000
C 	C 	0.10820 0.35750 0.54510 0.11300
C 	C 	0.85310 0.29420 0.19840 -0.12800
C 	C 	0.86390 0.23620 0.18880 -0.12900
C 	C 	0.80250 0.17810 0.13850 0.01000
C 	C 	0.82220 0.12950 0.11010 -0.29900
C 	C 	0.75910 0.06920 0.06400 0.23800
C 	C 	0.75900 0.01350 0.07930 -0.66600
C 	C 	0.05760 0.37524 0.17036 -0.09700
C 	C 	0.05490 0.32594 0.12026 -0.17800
C 	C 	0.99170 0.26623 0.09477 0.08500
C 	C 	0.98480 0.22080 0.03880 -0.38300
C 	C 	0.91940 0.15980 0.01160 0.33000
C 	C 	0.91190 0.11310 0.95410 -0.81100
C 	C 	0.28890 0.81445 0.74175 -0.15100
C 	C 	0.35420 0.81730 0.78850 -0.09300
C 	C 	0.39180 0.87420 0.84580 -0.04200
C 	C 	0.45290 0.86910 0.89570 -0.23500
C 	C 	0.48250 0.92390 0.95490 0.15400
C 	C 	0.54410 0.91830 0.00310 -0.58200
C 	C 	0.12170 0.82010 0.64070 -0.08200
C 	C 	0.04900 0.80860 0.59800 -0.19700
C 	C 	0.00110 0.80490 0.62950 0.10700
C 	C 	0.98130 0.74820 0.64400 -0.41800
C 	C 	0.92950 0.74550 0.67230 0.40500
C 	C 	0.91090 0.68930 0.68870 -0.91100
C 	C 	0.14650 0.76078 0.11104 -0.08500
C 	C 	0.15730 0.73376 0.05684 -0.20000
C 	C 	0.22430 0.77343 0.05697 0.10700
C 	C 	0.23750 0.74215 0.00585 -0.40700
C 	C 	0.30400 0.78069 0.00531 0.35800
C 	C 	0.32070 0.74220 0.95880 -0.81500
C 	C 	0.99550 0.84350 0.17250 -0.15100
C 	C 	0.93770 0.83550 0.19470 -0.12000
C 	C 	0.87420 0.84760 0.16320 -0.01800
C 	C 	0.81160 0.83230 0.17910 -0.24100
C 	C 	0.68700 0.80550 0.08870 -0.77300
C 	C 	0.25000 0.15170 0.84830 0.36500
C 	C 	0.75000 0.84830 0.15170 0.36500
S 	S 	0.53787 0.30343 0.43563 0.00800
S 	S 	0.39677 0.14465 0.41723 0.01200
S 	S 	0.67879 0.57547 0.67781 0.02900
S 	S 	0.75457 0.56105 0.81719 0.02000
S 	S 	0.46832 0.12705 0.69097 0.02100
S 	S 	0.65802 0.25804 0.81616 0.03000
S 	S 	0.96213 0.56437 0.69657 0.01000
S 	S 	0.10323 0.58277 0.85535 0.01100
S 	S 	0.82121 0.32219 0.42453 0.02900
S 	S 	0.74543 0.18281 0.43895 0.02000
S 	S 	0.03168 0.30903 0.87295 0.01900
S 	S 	0.84198 0.18384 0.74196 0.03000
S 	S 	0.46213 0.69657 0.56437 0.00800
S 	S 	0.60323 0.85535 0.58277 0.01200
S 	S 	0.32121 0.42453 0.32219 0.02900
S 	S 	0.24543 0.43895 0.18281 0.02000
S 	S 	0.53168 0.87295 0.30903 0.02100
S 	S 	0.34198 0.74196 0.18384 0.03000
S 	S 	0.03787 0.43563 0.30343 0.01000
S 	S 	0.89677 0.41723 0.14465 0.01100
S 	S 	0.17879 0.67781 0.57547 0.02900
S 	S 	0.25457 0.81719 0.56105 0.02000
S 	S 	0.96832 0.69097 0.12705 0.01900
S 	S 	0.15802 0.81616 0.25804 0.03000
N 	N 	0.54340 0.57982 0.45156 -0.27800
N 	N 	0.38250 0.87240 0.44078 -0.26900
N 	N 	0.74110 0.49745 0.07299 -0.27100
N 	N 	0.63130 0.52703 0.40263 -0.28400
N 	N 	0.95660 0.54844 0.42018 -0.27900
N 	N 	0.11750 0.55922 0.12760 -0.26800
N 	N 	0.75890 0.92701 0.50255 -0.27100
N 	N 	0.86870 0.59737 0.47297 -0.28400
N 	N 	0.45660 0.42018 0.54844 -0.27800
N 	N 	0.61750 0.12760 0.55922 -0.26900
N 	N 	0.25890 0.50255 0.92701 -0.27100
N 	N 	0.36870 0.47297 0.59737 -0.28400
N 	N 	0.04340 0.45156 0.57982 -0.27900
N 	N 	0.88250 0.44078 0.87240 -0.26800
N 	N 	0.24110 0.07299 0.49745 -0.27100
N 	N 	0.13130 0.40263 0.52703 -0.28400
O 	O 	0.60540 0.43599 0.46535 -0.35400
O 	O 	0.50942 0.44550 0.42624 -0.43900
O 	O 	0.40260 0.99630 0.43186 -0.44100
O 	O 	0.34248 0.04627 0.45271 -0.48000
O 	O 	0.64830 0.55858 0.55292 -0.45400
O 	O 	0.70229 0.65574 0.56624 -0.31100
O 	O 	0.78291 0.49480 0.89404 -0.45900
O 	O 	0.72674 0.51668 0.94822 -0.44600
O 	O 	0.41641 0.99035 0.54573 -0.46000
O 	O 	0.36027 0.04397 0.56875 -0.45500
O 	O 	0.76335 0.37942 0.90096 -0.46300
O 	O 	0.20576 0.95558 0.39910 -0.45900
O 	O 	0.89460 0.53465 0.56401 -0.35400
O 	O 	0.99058 0.57376 0.55450 -0.43900
O 	O 	0.09740 0.56814 0.00370 -0.43900
O 	O 	0.15752 0.54729 0.95373 -0.48000
O 	O 	0.85170 0.44708 0.44142 -0.45400
O 	O 	0.79771 0.43376 0.34426 -0.31100
O 	O 	0.71709 0.10596 0.50520 -0.45900
O 	O 	0.77326 0.05178 0.48332 -0.44600
O 	O 	0.08359 0.45427 0.00965 -0.45800
O 	O 	0.13973 0.43125 0.95603 -0.45500
O 	O 	0.73665 0.09904 0.62058 -0.46400
O 	O 	0.29424 0.60090 0.04442 -0.45800
O 	O 	0.39460 0.56401 0.53465 -0.35400
O 	O 	0.49058 0.55450 0.57376 -0.43900
O 	O 	0.59740 0.00370 0.56814 -0.44100
O 	O 	0.65752 0.95373 0.54729 -0.48000
O 	O 	0.35170 0.44142 0.44708 -0.45400
O 	O 	0.29771 0.34426 0.43376 -0.31100
O 	O 	0.21709 0.50520 0.10596 -0.45900
O 	O 	0.27326 0.48332 0.05178 -0.44600
O 	O 	0.58359 0.00965 0.45427 -0.46000
O 	O 	0.63973 0.95603 0.43125 -0.45500
O 	O 	0.23665 0.62058 0.09904 -0.46300
O 	O 	0.79424 0.04442 0.60090 -0.45900
O 	O 	0.10540 0.46535 0.43599 -0.35400
O 	O 	0.00942 0.42624 0.44550 -0.43900
O 	O 	0.90260 0.43186 0.99630 -0.43900
O 	O 	0.84248 0.45271 0.04627 -0.48000
O 	O 	0.14830 0.55292 0.55858 -0.45400
O 	O 	0.20229 0.56624 0.65574 -0.31100
O 	O 	0.28291 0.89404 0.49480 -0.45900
O 	O 	0.22674 0.94822 0.51668 -0.44600
O 	O 	0.91641 0.54573 0.99035 -0.45800
O 	O 	0.86027 0.56875 0.04397 -0.45500
O 	O 	0.26335 0.90096 0.37942 -0.46400
O 	O 	0.70576 0.39910 0.95558 -0.45800
