data_crystal

_cell_length_a 9.85100
_cell_length_b 14.82200
_cell_length_c 20.23300
_cell_angle_alpha 73.44800
_cell_angle_beta  82.98700
_cell_angle_gamma 77.72100

_symmetry_space_group_name_	'P 1'
_symmetry_space_group_name_H-M	'P 1'

loop_
_symmetry_equiv_pos_as_xyz
  x,y,z

loop_
_atom_site_label
_atom_site_type_symbol
_atom_site_fract_x
_atom_site_fract_y
_atom_site_fract_z
_atom_site_charge
Sm	Sm	0.33627 0.04701 0.81161 2.14800
Sm	Sm	0.87043 0.05220 0.79666 1.92600
Sm	Sm	0.66373 0.95299 0.18839 2.14700
Sm	Sm	0.12957 0.94780 0.20334 1.92500
Cu	Cu	0.67179 0.49698 0.88538 0.81600
Cu	Cu	0.40638 0.51279 0.94702 0.79000
Cu	Cu	0.25893 0.56095 0.65859 0.75300
Cu	Cu	0.90164 0.40014 0.44665 0.76800
Cu	Cu	0.22612 0.74345 0.57154 0.77100
Cu	Cu	0.01460 0.66865 0.67292 0.77300
Cu	Cu	0.32821 0.50302 0.11462 0.81600
Cu	Cu	0.59362 0.48721 0.05298 0.79000
Cu	Cu	0.74107 0.43905 0.34141 0.75300
Cu	Cu	0.09836 0.59986 0.55335 0.76800
Cu	Cu	0.77388 0.25655 0.42846 0.77100
Cu	Cu	0.98540 0.33135 0.32708 0.77300
H 	H 	0.96000 0.54400 0.85550 -0.02300
H 	H 	0.18310 0.46660 0.84670 0.09700
H 	H 	0.22930 0.30280 0.85360 -0.00300
H 	H 	0.81880 0.31340 0.86420 -0.01300
H 	H 	0.10430 0.53720 0.97330 -0.03200
H 	H 	0.90880 0.65010 0.96340 0.11000
H 	H 	0.92590 0.81140 0.92000 -0.01300
H 	H 	0.33900 0.72710 0.91070 -0.00800
H 	H 	0.35320 0.35390 0.72190 -0.01800
H 	H 	0.76810 0.30090 0.72000 -0.01600
H 	H 	0.76470 0.45730 0.65430 0.12300
H 	H 	0.55810 0.55600 0.62360 -0.03500
H 	H 	0.93050 0.28140 0.58730 -0.02200
H 	H 	0.31960 0.24880 0.64140 -0.01100
H 	H 	0.35770 0.36850 0.54060 0.12000
H 	H 	0.18710 0.43260 0.46600 -0.02700
H 	H 	0.50470 0.78930 0.50460 -0.00900
H 	H 	0.66870 0.87270 0.51570 0.10700
H 	H 	0.62490 0.95820 0.59780 0.00700
H 	H 	0.25630 0.87830 0.64580 -0.00500
H 	H 	0.88210 0.80120 0.75520 -0.03600
H 	H 	0.47720 0.78800 0.79660 -0.00600
H 	H 	0.51750 0.66070 0.74620 0.10500
H 	H 	0.73600 0.60580 0.70580 -0.02400
H 	H 	0.04000 0.45600 0.14450 -0.02300
H 	H 	0.81690 0.53340 0.15330 0.09700
H 	H 	0.77070 0.69720 0.14640 -0.00300
H 	H 	0.18120 0.68660 0.13580 -0.01300
H 	H 	0.89570 0.46280 0.02670 -0.03200
H 	H 	0.09120 0.34990 0.03660 0.11000
H 	H 	0.07410 0.18860 0.08000 -0.01300
H 	H 	0.66100 0.27290 0.08930 -0.00800
H 	H 	0.64680 0.64610 0.27810 -0.01800
H 	H 	0.23190 0.69910 0.28000 -0.01600
H 	H 	0.23530 0.54270 0.34570 0.12300
H 	H 	0.44190 0.44400 0.37640 -0.03500
H 	H 	0.06950 0.71860 0.41270 -0.02200
H 	H 	0.68040 0.75120 0.35860 -0.01100
H 	H 	0.64230 0.63150 0.45940 0.12000
H 	H 	0.81290 0.56740 0.53400 -0.02700
H 	H 	0.49530 0.21070 0.49540 -0.00900
H 	H 	0.33130 0.12730 0.48430 0.10700
H 	H 	0.37510 0.04180 0.40220 0.00700
H 	H 	0.74370 0.12170 0.35420 -0.00500
H 	H 	0.11790 0.19880 0.24480 -0.03600
H 	H 	0.52280 0.21200 0.20340 -0.00600
H 	H 	0.48250 0.33930 0.25380 0.10500
H 	H 	0.26400 0.39420 0.29420 -0.02400
C 	C 	0.97650 0.47960 0.85620 0.10200
C 	C 	0.11040 0.43350 0.85170 -0.19400
C 	C 	0.13820 0.33640 0.85480 0.13200
C 	C 	0.02670 0.29150 0.85960 -0.20900
C 	C 	0.89320 0.34380 0.86210 0.11900
C 	C 	0.04610 0.18700 0.86100 0.51000
C 	C 	0.11380 0.60100 0.95730 0.10200
C 	C 	0.99530 0.66810 0.95110 -0.18800
C 	C 	0.00500 0.76360 0.92630 0.12800
C 	C 	0.13590 0.78520 0.91120 -0.21500
C 	C 	0.25100 0.71120 0.92040 0.11800
C 	C 	0.15820 0.88670 0.88480 0.48800
C 	C 	0.43740 0.37490 0.70870 0.15100
C 	C 	0.55910 0.31020 0.72800 -0.23100
C 	C 	0.68410 0.34180 0.70760 0.16600
C 	C 	0.68180 0.43480 0.66860 -0.21200
C 	C 	0.55750 0.49400 0.65110 0.13300
C 	C 	0.55230 0.21030 0.77170 0.54100
C 	C 	0.01810 0.29800 0.57780 0.13600
C 	C 	0.11740 0.25370 0.62590 -0.22400
C 	C 	0.24920 0.27840 0.61130 0.14700
C 	C 	0.27250 0.34850 0.55070 -0.21800
C 	C 	0.16930 0.38700 0.50670 0.09700
C 	C 	0.08230 0.18390 0.69050 0.51400
C 	C 	0.48590 0.82510 0.53680 0.09700
C 	C 	0.58600 0.87420 0.54330 -0.16900
C 	C 	0.55910 0.92510 0.59190 0.09700
C 	C 	0.43640 0.92770 0.63170 -0.15000
C 	C 	0.34100 0.87660 0.61980 0.09100
C 	C 	0.40180 0.97740 0.68740 0.35400
C 	C 	0.80740 0.77250 0.75400 0.14200
C 	C 	0.67970 0.80760 0.78220 -0.24200
C 	C 	0.56580 0.76560 0.77920 0.15100
C 	C 	0.59040 0.68990 0.74920 -0.22500
C 	C 	0.72150 0.65820 0.72420 0.09700
C 	C 	0.66400 0.89000 0.81300 0.55800
C 	C 	0.02350 0.52040 0.14380 0.10200
C 	C 	0.88960 0.56650 0.14830 -0.19400
C 	C 	0.86180 0.66360 0.14520 0.13200
C 	C 	0.97330 0.70850 0.14040 -0.20900
C 	C 	0.10680 0.65620 0.13790 0.11900
C 	C 	0.95390 0.81300 0.13900 0.51000
C 	C 	0.88620 0.39900 0.04270 0.10200
C 	C 	0.00470 0.33190 0.04890 -0.18800
C 	C 	0.99500 0.23640 0.07370 0.12800
C 	C 	0.86410 0.21480 0.08880 -0.21500
C 	C 	0.74900 0.28880 0.07960 0.11800
C 	C 	0.84180 0.11330 0.11520 0.48800
C 	C 	0.56260 0.62510 0.29130 0.15100
C 	C 	0.44090 0.68980 0.27200 -0.23100
C 	C 	0.31590 0.65820 0.29240 0.16600
C 	C 	0.31820 0.56520 0.33140 -0.21200
C 	C 	0.44250 0.50600 0.34890 0.13300
C 	C 	0.44770 0.78970 0.22830 0.54100
C 	C 	0.98190 0.70200 0.42220 0.13600
C 	C 	0.88260 0.74630 0.37410 -0.22400
C 	C 	0.75080 0.72160 0.38870 0.14700
C 	C 	0.72750 0.65150 0.44930 -0.21800
C 	C 	0.83070 0.61300 0.49330 0.09700
C 	C 	0.91770 0.81610 0.30950 0.51400
C 	C 	0.51410 0.17490 0.46320 0.09700
C 	C 	0.41400 0.12580 0.45670 -0.16900
C 	C 	0.44090 0.07490 0.40810 0.09700
C 	C 	0.56360 0.07230 0.36830 -0.15000
C 	C 	0.65900 0.12340 0.38020 0.09100
C 	C 	0.59820 0.02260 0.31260 0.35400
C 	C 	0.19260 0.22750 0.24600 0.14200
C 	C 	0.32030 0.19240 0.21780 -0.24200
C 	C 	0.43420 0.23440 0.22080 0.15100
C 	C 	0.40960 0.31010 0.25080 -0.22500
C 	C 	0.27850 0.34180 0.27580 0.09700
C 	C 	0.33600 0.11000 0.18700 0.55800
Br	Br	0.49768 0.42310 0.86421 -0.59300
Br	Br	0.62427 0.61691 0.94508 -0.66900
Br	Br	0.03741 0.49713 0.66214 -0.69300
Br	Br	0.21626 0.67564 0.72796 -0.65700
Br	Br	0.67271 0.37325 0.49180 -0.66200
Br	Br	0.98271 0.81519 0.56345 -0.61700
Br	Br	0.50232 0.57690 0.13579 -0.59300
Br	Br	0.37573 0.38309 0.05492 -0.66900
Br	Br	0.96259 0.50287 0.33786 -0.69300
Br	Br	0.78374 0.32436 0.27204 -0.65700
Br	Br	0.32729 0.62675 0.50820 -0.66200
Br	Br	0.01729 0.18481 0.43655 -0.61700
N 	N 	0.86580 0.43710 0.86150 -0.25500
N 	N 	0.24260 0.61870 0.94240 -0.27500
N 	N 	0.43430 0.46630 0.67200 -0.26200
N 	N 	0.04150 0.36290 0.51880 -0.25900
N 	N 	0.36540 0.82580 0.57340 -0.24600
N 	N 	0.83050 0.69910 0.72490 -0.25300
N 	N 	0.13420 0.56290 0.13850 -0.25500
N 	N 	0.75740 0.38130 0.05760 -0.27500
N 	N 	0.56570 0.53370 0.32800 -0.26200
N 	N 	0.95850 0.63710 0.48120 -0.25900
N 	N 	0.63460 0.17420 0.42660 -0.24600
N 	N 	0.16950 0.30090 0.27510 -0.25300
O 	O 	0.94430 0.15920 0.84870 -0.52100
O 	O 	0.16610 0.13720 0.87380 -0.54600
O 	O 	0.27470 0.90400 0.89200 -0.50700
O 	O 	0.06370 0.95070 0.85540 -0.57700
O 	O 	0.66070 0.16100 0.79870 -0.57700
O 	O 	0.43750 0.18370 0.77810 -0.56100
O 	O 	0.95910 0.16710 0.70150 -0.52700
O 	O 	0.17520 0.14380 0.73280 -0.55600
O 	O 	0.46720 0.03880 0.69160 -0.41100
O 	O 	0.30520 0.95210 0.73330 -0.43500
O 	O 	0.77170 0.91430 0.82190 -0.58000
O 	O 	0.54370 0.93090 0.82680 -0.56700
O 	O 	0.05570 0.84080 0.15130 -0.52100
O 	O 	0.83390 0.86280 0.12620 -0.54600
O 	O 	0.72530 0.09600 0.10800 -0.50700
O 	O 	0.93630 0.04930 0.14460 -0.57700
O 	O 	0.33930 0.83900 0.20130 -0.57700
O 	O 	0.56250 0.81630 0.22190 -0.56100
O 	O 	0.04090 0.83290 0.29850 -0.52700
O 	O 	0.82480 0.85620 0.26720 -0.55600
O 	O 	0.53280 0.96120 0.30840 -0.41100
O 	O 	0.69480 0.04790 0.26670 -0.43500
O 	O 	0.22830 0.08570 0.17810 -0.58000
O 	O 	0.45630 0.06910 0.17320 -0.56700
