data_crystal

_cell_length_a 9.82570
_cell_length_b 14.79000
_cell_length_c 20.18200
_cell_angle_alpha 73.38600
_cell_angle_beta  82.82500
_cell_angle_gamma 77.75000

_symmetry_space_group_name_	'P 1'
_symmetry_space_group_name_H-M	'P 1'

loop_
_symmetry_equiv_pos_as_xyz
  x,y,z

loop_
_atom_site_label
_atom_site_type_symbol
_atom_site_fract_x
_atom_site_fract_y
_atom_site_fract_z
_atom_site_charge
Eu	Eu	0.16424 0.45324 0.18914 2.07500
Eu	Eu	0.63091 0.44812 0.20349 1.87900
Eu	Eu	0.83576 0.54676 0.81086 2.07500
Eu	Eu	0.36909 0.55188 0.79651 1.87900
Cu	Cu	0.59790 0.10016 0.55346 0.76900
Cu	Cu	0.72572 0.24270 0.57243 0.77200
Cu	Cu	0.75868 0.06015 0.65861 0.75200
Cu	Cu	0.51457 0.16689 0.67412 0.77500
Cu	Cu	0.09141 0.98643 0.05345 0.78500
Cu	Cu	0.82711 0.00381 0.11484 0.81400
Cu	Cu	0.40210 0.89984 0.44654 0.76900
Cu	Cu	0.27428 0.75730 0.42757 0.77200
Cu	Cu	0.24132 0.93985 0.34139 0.75200
Cu	Cu	0.48543 0.83311 0.32588 0.77500
Cu	Cu	0.90859 0.01357 0.94655 0.78400
Cu	Cu	0.17289 0.99619 0.88516 0.81300
H 	H 	0.18310 0.25050 0.35770 -0.01400
H 	H 	0.14080 0.13320 0.45880 0.12700
H 	H 	0.31140 0.06660 0.53310 -0.02700
H 	H 	0.57000 0.22030 0.41070 -0.02100
H 	H 	0.75450 0.37780 0.64670 -0.00500
H 	H 	0.99900 0.29240 0.50260 -0.01000
H 	H 	0.16840 0.37110 0.51720 0.10700
H 	H 	0.12400 0.45960 0.59640 0.00600
H 	H 	0.26890 0.79970 0.71880 -0.02100
H 	H 	0.26380 0.95540 0.65550 0.12300
H 	H 	0.05790 0.05370 0.62210 -0.02100
H 	H 	0.85320 0.85200 0.72250 -0.02400
H 	H 	0.38410 0.29910 0.75700 -0.03900
H 	H 	0.23530 0.10570 0.70500 -0.02800
H 	H 	0.01640 0.15970 0.74880 0.11500
H 	H 	0.97740 0.28860 0.79580 -0.02200
H 	H 	0.57540 0.68930 0.08020 -0.01700
H 	H 	0.59350 0.85130 0.03840 0.11300
H 	H 	0.39400 0.96550 0.02560 -0.03200
H 	H 	0.16160 0.77190 0.09200 -0.01100
H 	H 	0.68300 0.18680 0.13480 -0.01500
H 	H 	0.53760 0.95870 0.14350 -0.03200
H 	H 	0.31640 0.03540 0.15220 0.10800
H 	H 	0.27150 0.19870 0.14610 -0.00800
H 	H 	0.81690 0.74950 0.64230 -0.01400
H 	H 	0.85920 0.86680 0.54120 0.12700
H 	H 	0.68860 0.93340 0.46690 -0.02700
H 	H 	0.43000 0.77970 0.58930 -0.02100
H 	H 	0.24550 0.62220 0.35330 -0.00500
H 	H 	0.00100 0.70760 0.49740 -0.01000
H 	H 	0.83160 0.62890 0.48280 0.10700
H 	H 	0.87600 0.54040 0.40360 0.00600
H 	H 	0.73110 0.20030 0.28120 -0.02100
H 	H 	0.73620 0.04460 0.34450 0.12300
H 	H 	0.94210 0.94630 0.37790 -0.02100
H 	H 	0.14680 0.14800 0.27750 -0.02400
H 	H 	0.61590 0.70090 0.24300 -0.03900
H 	H 	0.76470 0.89430 0.29500 -0.02800
H 	H 	0.98360 0.84030 0.25120 0.11500
H 	H 	0.02260 0.71140 0.20420 -0.02200
H 	H 	0.42460 0.31070 0.91980 -0.01700
H 	H 	0.40650 0.14870 0.96160 0.11300
H 	H 	0.60600 0.03450 0.97440 -0.03200
H 	H 	0.83840 0.22810 0.90800 -0.01100
H 	H 	0.31700 0.81320 0.86520 -0.01500
H 	H 	0.46240 0.04130 0.85650 -0.03200
H 	H 	0.68360 0.96460 0.84780 0.10800
H 	H 	0.72850 0.80130 0.85390 -0.00800
C 	C 	0.41660 0.31830 0.30860 0.53300
C 	C 	0.38360 0.24580 0.37430 -0.23100
C 	C 	0.25270 0.22110 0.38840 0.16000
C 	C 	0.22710 0.15210 0.44870 -0.22800
C 	C 	0.32960 0.11280 0.49250 0.10100
C 	C 	0.48240 0.20320 0.42070 0.14000
C 	C 	0.90160 0.47730 0.68750 0.33800
C 	C 	0.93620 0.42680 0.63170 -0.14800
C 	C 	0.83940 0.37610 0.62040 0.09300
C 	C 	0.98230 0.32610 0.53620 0.09400
C 	C 	0.08430 0.37420 0.54410 -0.16600
C 	C 	0.05850 0.42540 0.59130 0.10000
C 	C 	0.05190 0.70990 0.77110 0.55000
C 	C 	0.05830 0.80940 0.72780 -0.25600
C 	C 	0.18450 0.84070 0.70700 0.18100
C 	C 	0.18090 0.93240 0.66920 -0.21600
C 	C 	0.05650 0.99220 0.65070 0.11200
C 	C 	0.93750 0.87340 0.70900 0.17400
C 	C 	0.16280 0.39020 0.81190 0.57000
C 	C 	0.17830 0.30850 0.78190 -0.26800
C 	C 	0.30850 0.27160 0.75500 0.15300
C 	C 	0.22130 0.15720 0.72440 0.10700
C 	C 	0.08980 0.18960 0.75040 -0.24900
C 	C 	0.06660 0.26570 0.77880 0.18800
C 	C 	0.34550 0.61300 0.11590 0.48600
C 	C 	0.36360 0.71550 0.08970 -0.21900
C 	C 	0.49620 0.73740 0.07420 0.13700
C 	C 	0.50670 0.83320 0.04970 -0.19500
C 	C 	0.38560 0.90130 0.04250 0.10200
C 	C 	0.24960 0.78810 0.08110 0.12300
C 	C 	0.45450 0.31470 0.13880 0.51000
C 	C 	0.47300 0.21000 0.14010 -0.21500
C 	C 	0.60770 0.15680 0.13740 0.12300
C 	C 	0.52170 0.02310 0.14310 0.12700
C 	C 	0.38950 0.06830 0.14740 -0.21900
C 	C 	0.36270 0.16500 0.14480 0.15100
C 	C 	0.58340 0.68170 0.69140 0.53300
C 	C 	0.61640 0.75420 0.62570 -0.23100
C 	C 	0.74730 0.77890 0.61160 0.16000
C 	C 	0.77290 0.84790 0.55130 -0.22800
C 	C 	0.67040 0.88720 0.50750 0.10100
C 	C 	0.51760 0.79680 0.57930 0.14000
C 	C 	0.09840 0.52270 0.31250 0.33800
C 	C 	0.06380 0.57320 0.36830 -0.14800
C 	C 	0.16060 0.62390 0.37960 0.09300
C 	C 	0.01770 0.67390 0.46380 0.09400
C 	C 	0.91570 0.62580 0.45590 -0.16600
C 	C 	0.94150 0.57460 0.40870 0.10000
C 	C 	0.94810 0.29010 0.22890 0.55000
C 	C 	0.94170 0.19060 0.27220 -0.25600
C 	C 	0.81550 0.15930 0.29300 0.18100
C 	C 	0.81910 0.06760 0.33080 -0.21600
C 	C 	0.94350 0.00780 0.34930 0.11200
C 	C 	0.06250 0.12660 0.29100 0.17400
C 	C 	0.83720 0.60980 0.18810 0.57000
C 	C 	0.82170 0.69150 0.21810 -0.26800
C 	C 	0.69150 0.72840 0.24500 0.15300
C 	C 	0.77870 0.84280 0.27560 0.10700
C 	C 	0.91020 0.81040 0.24960 -0.24900
C 	C 	0.93340 0.73430 0.22120 0.18800
C 	C 	0.65450 0.38700 0.88410 0.48600
C 	C 	0.63640 0.28450 0.91030 -0.21900
C 	C 	0.50380 0.26260 0.92580 0.13700
C 	C 	0.49330 0.16680 0.95030 -0.19500
C 	C 	0.61440 0.09870 0.95750 0.10200
C 	C 	0.75040 0.21190 0.91890 0.12300
C 	C 	0.54550 0.68530 0.86120 0.51000
C 	C 	0.52700 0.79000 0.85990 -0.21500
C 	C 	0.39230 0.84320 0.86260 0.12300
C 	C 	0.47830 0.97690 0.85690 0.12700
C 	C 	0.61050 0.93170 0.85260 -0.21900
C 	C 	0.63730 0.83500 0.85520 0.15100
Br	Br	0.82774 0.12662 0.50828 -0.66700
Br	Br	0.48142 0.31471 0.56407 -0.61700
Br	Br	0.71716 0.17448 0.72802 -0.66300
Br	Br	0.53692 0.99635 0.66231 -0.69200
Br	Br	0.00188 0.07818 0.13589 -0.57800
Br	Br	0.12418 0.11661 0.94468 -0.66500
Br	Br	0.17226 0.87338 0.49172 -0.66700
Br	Br	0.51858 0.68529 0.43593 -0.61700
Br	Br	0.28284 0.82552 0.27198 -0.66300
Br	Br	0.46308 0.00365 0.33769 -0.69200
Br	Br	0.99812 0.92182 0.86411 -0.57800
Br	Br	0.87582 0.88339 0.05532 -0.66500
N 	N 	0.45890 0.13720 0.48070 -0.25900
N 	N 	0.86420 0.32620 0.57420 -0.24600
N 	N 	0.93380 0.96520 0.67220 -0.25700
N 	N 	0.33010 0.19800 0.72620 -0.25700
N 	N 	0.25760 0.88150 0.05800 -0.27500
N 	N 	0.63260 0.06380 0.13830 -0.26200
N 	N 	0.54110 0.86280 0.51930 -0.25900
N 	N 	0.13580 0.67380 0.42580 -0.24600
N 	N 	0.06620 0.03480 0.32780 -0.25700
N 	N 	0.66990 0.80200 0.27380 -0.25700
N 	N 	0.74240 0.11850 0.94200 -0.27500
N 	N 	0.36740 0.93620 0.86170 -0.26200
O 	O 	0.32520 0.35770 0.26750 -0.56100
O 	O 	0.54020 0.33360 0.29870 -0.52200
O 	O 	0.96860 0.53820 0.69100 -0.39600
O 	O 	0.80270 0.45230 0.73360 -0.42200
O 	O 	0.16040 0.66000 0.79830 -0.56900
O 	O 	0.93870 0.68220 0.77760 -0.55400
O 	O 	0.26910 0.41510 0.82120 -0.57900
O 	O 	0.04220 0.43160 0.82670 -0.56000
O 	O 	0.44130 0.54920 0.14590 -0.56800
O 	O 	0.22870 0.59450 0.10980 -0.50100
O 	O 	0.55680 0.34120 0.15300 -0.51100
O 	O 	0.33590 0.36500 0.12600 -0.53400
O 	O 	0.67480 0.64230 0.73250 -0.56100
O 	O 	0.45980 0.66640 0.70130 -0.52200
O 	O 	0.03140 0.46180 0.30900 -0.39600
O 	O 	0.19730 0.54770 0.26640 -0.42200
O 	O 	0.83960 0.34000 0.20170 -0.56900
O 	O 	0.06130 0.31780 0.22240 -0.55400
O 	O 	0.73090 0.58490 0.17880 -0.57900
O 	O 	0.95780 0.56840 0.17330 -0.56000
O 	O 	0.55870 0.45080 0.85410 -0.56800
O 	O 	0.77130 0.40550 0.89020 -0.50100
O 	O 	0.44320 0.65880 0.84700 -0.51100
O 	O 	0.66410 0.63500 0.87400 -0.53400
