data_crystal

_cell_length_a 8.98460
_cell_length_b 12.32590
_cell_length_c 24.02290
_cell_angle_alpha 90.00000
_cell_angle_beta  90.00000
_cell_angle_gamma 111.37400

_symmetry_space_group_name_	'P 1'
_symmetry_space_group_name_H-M	'P 1'

loop_
_symmetry_equiv_pos_as_xyz
  x,y,z

loop_
_atom_site_label
_atom_site_type_symbol
_atom_site_fract_x
_atom_site_fract_y
_atom_site_fract_z
_atom_site_charge
Fe	Fe	0.50000 0.50000 0.50000 1.12500
Fe	Fe	-0.00000 0.50000 -0.00000 1.10500
H 	H 	0.84350 0.59820 0.55120 -0.02300
H 	H 	0.00030 0.73040 0.61340 0.10700
H 	H 	0.61170 0.79240 0.66200 0.12900
H 	H 	0.46880 0.65760 0.59800 -0.03700
H 	H 	0.82150 0.97200 0.69070 0.03300
H 	H 	0.77390 0.87500 0.73710 0.03100
H 	H 	0.15650 0.40180 0.55120 -0.05300
H 	H 	0.99970 0.26960 0.61340 0.18000
H 	H 	0.38830 0.20760 0.66200 0.14400
H 	H 	0.53120 0.34240 0.59800 -0.04300
H 	H 	0.17850 0.02800 0.69070 0.03200
H 	H 	0.22610 0.12500 0.73710 0.03200
H 	H 	0.75470 0.59820 0.94880 -0.03200
H 	H 	0.73010 0.73040 0.88660 0.15300
H 	H 	0.18070 0.79240 0.83800 0.14500
H 	H 	0.18880 0.65760 0.90200 -0.03400
H 	H 	0.15050 0.97200 0.80930 0.03900
H 	H 	0.10110 0.87500 0.76290 0.03500
H 	H 	0.24530 0.40180 0.94880 -0.02700
H 	H 	0.26990 0.26960 0.88660 0.14500
H 	H 	0.81930 0.20760 0.83800 0.13100
H 	H 	0.81120 0.34240 0.90200 -0.03600
H 	H 	0.84950 0.02800 0.80930 0.03000
H 	H 	0.89890 0.12500 0.76290 0.02900
H 	H 	0.15650 0.40180 0.44880 -0.05300
H 	H 	0.99970 0.26960 0.38660 0.18000
H 	H 	0.38830 0.20760 0.33800 0.14400
H 	H 	0.53120 0.34240 0.40200 -0.04300
H 	H 	0.17850 0.02800 0.30930 0.03100
H 	H 	0.22610 0.12500 0.26290 0.03100
H 	H 	0.84350 0.59820 0.44880 -0.02300
H 	H 	0.00030 0.73040 0.38660 0.10600
H 	H 	0.61170 0.79240 0.33800 0.12900
H 	H 	0.46880 0.65760 0.40200 -0.03700
H 	H 	0.82150 0.97200 0.30930 0.03300
H 	H 	0.77390 0.87500 0.26290 0.03000
H 	H 	0.24530 0.40180 0.05120 -0.03900
H 	H 	0.26990 0.26960 0.11340 0.14100
H 	H 	0.81930 0.20760 0.16200 0.13000
H 	H 	0.81120 0.34240 0.09800 -0.04200
H 	H 	0.84950 0.02800 0.19070 0.02700
H 	H 	0.89890 0.12500 0.23710 0.02800
H 	H 	0.75470 0.59820 0.05120 -0.04400
H 	H 	0.73010 0.73040 0.11340 0.15000
H 	H 	0.18070 0.79240 0.16200 0.14400
H 	H 	0.18880 0.65760 0.09800 -0.03900
H 	H 	0.15050 0.97200 0.19070 0.03600
H 	H 	0.10110 0.87500 0.23710 0.03400
C 	C 	0.79648 0.63856 0.57340 0.13400
C 	C 	0.89172 0.71724 0.61084 -0.22500
C 	C 	0.82322 0.77684 0.64485 0.27900
C 	C 	0.66199 0.75418 0.63975 -0.27800
C 	C 	0.57799 0.67358 0.60086 0.15400
C 	C 	0.86080 0.92400 0.71395 0.04700
C 	C 	0.20352 0.36144 0.57340 0.19400
C 	C 	0.10828 0.28276 0.61084 -0.35000
C 	C 	0.17678 0.22316 0.64485 0.33200
C 	C 	0.33801 0.24582 0.63975 -0.31600
C 	C 	0.42201 0.32642 0.60086 0.17600
C 	C 	0.13920 0.07600 0.71395 0.04100
C 	C 	0.84208 0.63856 0.92660 0.17800
C 	C 	0.82552 0.71724 0.88916 -0.29900
C 	C 	0.95362 0.77684 0.85515 0.33800
C 	C 	0.09219 0.75418 0.86025 -0.32700
C 	C 	0.09559 0.67358 0.89914 0.15400
C 	C 	0.06320 0.92400 0.78605 0.00800
C 	C 	0.15792 0.36144 0.92660 0.15800
C 	C 	0.17448 0.28276 0.88916 -0.27700
C 	C 	0.04638 0.22316 0.85515 0.28100
C 	C 	0.90781 0.24582 0.86025 -0.26800
C 	C 	0.90441 0.32642 0.89914 0.17900
C 	C 	0.93680 0.07600 0.78605 0.07100
C 	C 	0.20352 0.36144 0.42660 0.19500
C 	C 	0.10828 0.28276 0.38916 -0.35100
C 	C 	0.17678 0.22316 0.35515 0.33300
C 	C 	0.33801 0.24582 0.36025 -0.31600
C 	C 	0.42201 0.32642 0.39914 0.17600
C 	C 	0.13920 0.07600 0.28605 0.04300
C 	C 	0.79648 0.63856 0.42660 0.13400
C 	C 	0.89172 0.71724 0.38916 -0.22400
C 	C 	0.82322 0.77684 0.35515 0.27900
C 	C 	0.66199 0.75418 0.36025 -0.27800
C 	C 	0.57799 0.67358 0.39914 0.15400
C 	C 	0.86080 0.92400 0.28605 0.05000
C 	C 	0.15792 0.36144 0.07340 0.15500
C 	C 	0.17448 0.28276 0.11084 -0.28100
C 	C 	0.04638 0.22316 0.14485 0.27800
C 	C 	0.90781 0.24582 0.13975 -0.26900
C 	C 	0.90441 0.32642 0.10086 0.17800
C 	C 	0.93680 0.07600 0.21395 0.07600
C 	C 	0.84208 0.63856 0.07340 0.17600
C 	C 	0.82552 0.71724 0.11084 -0.30400
C 	C 	0.95362 0.77684 0.14485 0.33900
C 	C 	0.09219 0.75418 0.13975 -0.33100
C 	C 	0.09559 0.67358 0.10086 0.15100
C 	C 	0.06320 0.92400 0.21395 0.01000
C 	C 	0.71947 0.34154 0.50000 0.10000
C 	C 	0.28053 0.65846 0.50000 0.09900
C 	C 	0.62207 0.34154 -0.00000 0.09600
C 	C 	0.37793 0.65846 -0.00000 0.09300
C 	C 	0.00000 0.00000 0.75000 -0.02000
C 	C 	0.00000 0.00000 0.25000 -0.02400
S 	S 	0.80153 0.24310 0.50000 -0.05100
S 	S 	0.19847 0.75690 0.50000 -0.07300
S 	S 	0.44157 0.24310 -0.00000 -0.07500
S 	S 	0.55843 0.75690 -0.00000 -0.07400
N 	N 	0.64144 0.61628 0.56677 -0.26200
N 	N 	0.35856 0.38372 0.56677 -0.27800
N 	N 	0.97484 0.61628 0.93323 -0.25100
N 	N 	0.02516 0.38372 0.93323 -0.27400
N 	N 	0.35856 0.38372 0.43323 -0.27800
N 	N 	0.64144 0.61628 0.43323 -0.26200
N 	N 	0.02516 0.38372 0.06677 -0.28300
N 	N 	0.97484 0.61628 0.06677 -0.25800
N 	N 	0.66066 0.40992 0.50000 -0.25700
N 	N 	0.33934 0.59008 0.50000 -0.25800
N 	N 	0.74926 0.40992 -0.00000 -0.25800
N 	N 	0.25074 0.59008 -0.00000 -0.26500
O 	O 	0.92329 0.85438 0.68039 -0.24100
O 	O 	0.07671 0.14562 0.68039 -0.26900
O 	O 	0.93109 0.85438 0.81961 -0.24400
O 	O 	0.06891 0.14562 0.81961 -0.26200
O 	O 	0.07671 0.14562 0.31961 -0.27000
O 	O 	0.92329 0.85438 0.31961 -0.24100
O 	O 	0.06891 0.14562 0.18039 -0.26500
O 	O 	0.93109 0.85438 0.18039 -0.24600
