data_crystal

_cell_length_a 21.57650
_cell_length_b 21.57650
_cell_length_c 11.34690
_cell_angle_alpha 90.00000
_cell_angle_beta  90.00000
_cell_angle_gamma 90.00000

_symmetry_space_group_name_	'P 1'
_symmetry_space_group_name_H-M	'P 1'

loop_
_symmetry_equiv_pos_as_xyz
  x,y,z

loop_
_atom_site_label
_atom_site_type_symbol
_atom_site_fract_x
_atom_site_fract_y
_atom_site_fract_z
_atom_site_charge
Sm	Sm	0.42776 0.93618 0.03058 2.29100
O 	O 	0.50522 0.00742 0.11647 -0.60800
N 	N 	0.43745 0.93805 0.27170 -0.11500
C 	C 	0.49328 0.05599 0.17770 0.37500
O 	O 	0.26566 0.02663 0.53818 -0.49300
O 	O 	0.51452 0.10749 0.14636 -0.42000
C 	C 	0.45175 0.05224 0.28340 -0.12900
O 	O 	0.30853 0.11052 0.61188 -0.52300
C 	C 	0.43926 0.10811 0.34040 -0.00800
H 	H 	0.46170 0.14410 0.31800 0.04200
C 	C 	0.39543 0.11261 0.42810 -0.01800
H 	H 	0.38890 0.15060 0.46860 0.04800
O 	O 	0.33105 0.92806 0.14817 -0.50600
C 	C 	0.36112 0.06061 0.45590 -0.10900
O 	O 	0.28724 0.86938 0.28924 -0.53400
C 	C 	0.37363 0.00338 0.40310 -0.02800
H 	H 	0.34960 0.96810 0.42370 0.06000
O 	O 	0.50873 0.87496 0.11268 -0.54600
C 	C 	0.42078 0.99775 0.32110 0.06400
O 	O 	0.58463 0.85915 0.24120 -0.55500
C 	C 	0.30951 0.06793 0.54250 0.48500
C 	C 	0.39461 0.88755 0.30090 -0.36700
H 	H 	0.38890 0.88600 0.38740 0.14300
H 	H 	0.41300 0.84770 0.27560 0.13200
C 	C 	0.33218 0.89552 0.24240 0.51800
C 	C 	0.50162 0.92003 0.30550 -0.35000
H 	H 	0.50010 0.89610 0.37990 0.13800
H 	H 	0.52620 0.95800 0.32020 0.13300
C 	C 	0.53396 0.88140 0.21180 0.55600
H 	H 	0.23780 0.03950 0.58560 0.30500
Sm	Sm	0.92776 0.43618 0.53058 2.31700
O 	O 	0.00522 0.50742 0.61647 -0.61600
N 	N 	0.93745 0.43805 0.77170 -0.11500
C 	C 	0.99328 0.55599 0.67770 0.38000
O 	O 	0.76566 0.52663 0.03818 -0.49100
O 	O 	0.01452 0.60749 0.64636 -0.42500
C 	C 	0.95175 0.55224 0.78340 -0.13800
O 	O 	0.80853 0.61052 0.11188 -0.52300
C 	C 	0.93926 0.60811 0.84040 -0.00000
H 	H 	0.96170 0.64410 0.81800 0.03900
C 	C 	0.89543 0.61261 0.92810 -0.02500
H 	H 	0.88890 0.65060 0.96860 0.05200
O 	O 	0.83105 0.42806 0.64817 -0.50600
C 	C 	0.86112 0.56061 0.95590 -0.10100
O 	O 	0.78724 0.36938 0.78924 -0.53400
C 	C 	0.87363 0.50338 0.90310 -0.04100
H 	H 	0.84960 0.46810 0.92370 0.06500
O 	O 	0.00873 0.37496 0.61268 -0.54700
C 	C 	0.92078 0.49775 0.82110 0.07600
O 	O 	0.08463 0.35915 0.74120 -0.55500
C 	C 	0.80951 0.56793 0.04250 0.48100
C 	C 	0.89461 0.38755 0.80090 -0.36600
H 	H 	0.88890 0.38600 0.88740 0.14200
H 	H 	0.91300 0.34770 0.77560 0.13100
C 	C 	0.83218 0.39552 0.74240 0.51800
C 	C 	0.00162 0.42003 0.80550 -0.35000
H 	H 	0.00010 0.39610 0.87990 0.13700
H 	H 	0.02620 0.45800 0.82020 0.13400
C 	C 	0.03396 0.38140 0.71180 0.55700
H 	H 	0.73780 0.53950 0.08560 0.30500
Sm	Sm	0.07224 0.06382 0.53058 2.31500
O 	O 	0.99478 0.99258 0.61647 -0.61400
N 	N 	0.06255 0.06195 0.77170 -0.11300
C 	C 	0.00672 0.94401 0.67770 0.37600
O 	O 	0.23434 0.97337 0.03818 -0.49500
O 	O 	0.98548 0.89251 0.64636 -0.42400
C 	C 	0.04825 0.94776 0.78340 -0.12200
O 	O 	0.19147 0.88948 0.11188 -0.52300
C 	C 	0.06074 0.89189 0.84040 -0.01100
H 	H 	0.03830 0.85590 0.81800 0.04300
C 	C 	0.10457 0.88739 0.92810 -0.01500
H 	H 	0.11110 0.84940 0.96860 0.04900
O 	O 	0.16895 0.07194 0.64817 -0.50600
C 	C 	0.13888 0.93939 0.95590 -0.10800
O 	O 	0.21276 0.13062 0.78924 -0.53400
C 	C 	0.12637 0.99662 0.90310 -0.00900
H 	H 	0.15040 0.03190 0.92370 0.05000
O 	O 	0.99127 0.12504 0.61268 -0.54700
C 	C 	0.07922 0.00225 0.82110 0.05100
O 	O 	0.91537 0.14085 0.74120 -0.55600
C 	C 	0.19049 0.93207 0.04250 0.47900
C 	C 	0.10539 0.11245 0.80090 -0.36700
H 	H 	0.11110 0.11400 0.88740 0.14200
H 	H 	0.08700 0.15230 0.77560 0.13100
C 	C 	0.16782 0.10448 0.74240 0.51800
C 	C 	0.99838 0.07997 0.80550 -0.35000
H 	H 	0.99990 0.10390 0.87990 0.13600
H 	H 	0.97380 0.04200 0.82020 0.13200
C 	C 	0.96604 0.11860 0.71180 0.55600
H 	H 	0.26220 0.96050 0.08560 0.30500
Sm	Sm	0.57224 0.56382 0.03058 2.31500
O 	O 	0.49478 0.49258 0.11647 -0.61600
N 	N 	0.56255 0.56195 0.27170 -0.11500
C 	C 	0.50672 0.44401 0.17770 0.38000
O 	O 	0.73434 0.47337 0.53818 -0.49200
O 	O 	0.48548 0.39251 0.14636 -0.42400
C 	C 	0.54825 0.44776 0.28340 -0.13800
O 	O 	0.69147 0.38948 0.61188 -0.52200
C 	C 	0.56074 0.39189 0.34040 -0.00100
H 	H 	0.53830 0.35590 0.31800 0.04000
C 	C 	0.60457 0.38739 0.42810 -0.02400
H 	H 	0.61110 0.34940 0.46860 0.05000
O 	O 	0.66895 0.57194 0.14817 -0.50600
C 	C 	0.63888 0.43939 0.45590 -0.10300
O 	O 	0.71276 0.63062 0.28924 -0.53400
C 	C 	0.62637 0.49662 0.40310 -0.04000
H 	H 	0.65040 0.53190 0.42370 0.06500
O 	O 	0.49127 0.62504 0.11268 -0.54700
C 	C 	0.57922 0.50225 0.32110 0.07500
O 	O 	0.41537 0.64085 0.24120 -0.55500
C 	C 	0.69049 0.43207 0.54250 0.48300
C 	C 	0.60539 0.61245 0.30090 -0.36700
H 	H 	0.61110 0.61400 0.38740 0.14300
H 	H 	0.58700 0.65230 0.27560 0.13200
C 	C 	0.66782 0.60448 0.24240 0.51800
C 	C 	0.49838 0.57997 0.30550 -0.35000
H 	H 	0.49990 0.60390 0.37990 0.13800
H 	H 	0.47380 0.54200 0.32020 0.13400
C 	C 	0.46604 0.61860 0.21180 0.55700
H 	H 	0.76220 0.46050 0.58560 0.30500
Sm	Sm	0.81382 0.67776 0.28058 2.31700
O 	O 	0.74258 0.75522 0.36647 -0.61600
N 	N 	0.81195 0.68745 0.52170 -0.11500
C 	C 	0.69401 0.74328 0.42770 0.38000
O 	O 	0.72337 0.51566 0.78818 -0.49200
O 	O 	0.64251 0.76452 0.39636 -0.42500
C 	C 	0.69776 0.70175 0.53340 -0.13800
O 	O 	0.63948 0.55853 0.86188 -0.52200
C 	C 	0.64189 0.68926 0.59040 -0.00100
H 	H 	0.60590 0.71170 0.56800 0.04000
C 	C 	0.63739 0.64543 0.67810 -0.02400
H 	H 	0.59940 0.63890 0.71860 0.05000
O 	O 	0.82194 0.58105 0.39817 -0.50600
C 	C 	0.68939 0.61112 0.70590 -0.10300
O 	O 	0.88062 0.53724 0.53924 -0.53400
C 	C 	0.74662 0.62363 0.65310 -0.04000
H 	H 	0.78190 0.59960 0.67370 0.06500
O 	O 	0.87504 0.75873 0.36268 -0.54700
C 	C 	0.75225 0.67078 0.57110 0.07500
O 	O 	0.89085 0.83463 0.49120 -0.55500
C 	C 	0.68207 0.55951 0.79250 0.48300
C 	C 	0.86245 0.64461 0.55090 -0.36700
H 	H 	0.86400 0.63890 0.63740 0.14300
H 	H 	0.90230 0.66300 0.52560 0.13200
C 	C 	0.85448 0.58218 0.49240 0.51800
C 	C 	0.82997 0.75162 0.55550 -0.35000
H 	H 	0.85390 0.75010 0.62990 0.13800
H 	H 	0.79200 0.77620 0.57020 0.13400
C 	C 	0.86860 0.78396 0.46180 0.55700
H 	H 	0.71050 0.48780 0.83560 0.30500
Sm	Sm	0.31382 0.17776 0.78058 2.31300
O 	O 	0.24258 0.25522 0.86647 -0.61600
N 	N 	0.31195 0.18745 0.02170 -0.11600
C 	C 	0.19401 0.24328 0.92770 0.37400
O 	O 	0.22337 0.01566 0.28818 -0.48600
O 	O 	0.14251 0.26452 0.89636 -0.42500
C 	C 	0.19776 0.20175 0.03340 -0.13100
O 	O 	0.13948 0.05853 0.36188 -0.52100
C 	C 	0.14189 0.18926 0.09040 -0.00400
H 	H 	0.10590 0.21170 0.06800 0.04200
C 	C 	0.13739 0.14543 0.17810 -0.02200
H 	H 	0.09940 0.13890 0.21860 0.05000
O 	O 	0.32194 0.08105 0.89817 -0.50200
C 	C 	0.18939 0.11112 0.20590 -0.10300
O 	O 	0.38062 0.03724 0.03924 -0.51800
C 	C 	0.24662 0.12363 0.15310 -0.03900
H 	H 	0.28190 0.09960 0.17370 0.06600
O 	O 	0.37504 0.25873 0.86268 -0.54600
C 	C 	0.25225 0.17078 0.07110 0.07500
O 	O 	0.39085 0.33463 0.99120 -0.55500
C 	C 	0.18207 0.05951 0.29250 0.48200
C 	C 	0.36245 0.14461 0.05090 -0.35100
H 	H 	0.36400 0.13890 0.13740 0.13900
H 	H 	0.40230 0.16300 0.02560 0.13000
C 	C 	0.35448 0.08218 0.99240 0.49600
C 	C 	0.32997 0.25162 0.05550 -0.34400
H 	H 	0.35390 0.25010 0.12990 0.13600
H 	H 	0.29200 0.27620 0.07020 0.13300
C 	C 	0.36860 0.28396 0.96180 0.55200
H 	H 	0.21050 0.98780 0.33560 0.30100
Sm	Sm	0.68618 0.32224 0.78058 2.31500
O 	O 	0.75742 0.24478 0.86647 -0.61600
N 	N 	0.68805 0.31255 0.02170 -0.11500
C 	C 	0.80599 0.25672 0.92770 0.37500
O 	O 	0.77663 0.48434 0.28818 -0.49200
O 	O 	0.85749 0.23548 0.89636 -0.42600
C 	C 	0.80224 0.29825 0.03340 -0.13200
O 	O 	0.86052 0.44147 0.36188 -0.52300
C 	C 	0.85811 0.31074 0.09040 -0.00400
H 	H 	0.89410 0.28830 0.06800 0.04200
C 	C 	0.86261 0.35457 0.17810 -0.02200
H 	H 	0.90060 0.36110 0.21860 0.04900
O 	O 	0.67806 0.41895 0.89817 -0.50500
C 	C 	0.81061 0.38888 0.20590 -0.10400
O 	O 	0.61938 0.46276 0.03924 -0.53200
C 	C 	0.75338 0.37637 0.15310 -0.03800
H 	H 	0.71810 0.40040 0.17370 0.06400
O 	O 	0.62496 0.24127 0.86268 -0.54500
C 	C 	0.74775 0.32922 0.07110 0.07400
O 	O 	0.60915 0.16537 0.99120 -0.55300
C 	C 	0.81793 0.44049 0.29250 0.48400
C 	C 	0.63755 0.35539 0.05090 -0.36400
H 	H 	0.63600 0.36110 0.13740 0.14200
H 	H 	0.59770 0.33700 0.02560 0.13200
C 	C 	0.64552 0.41782 0.99240 0.51400
C 	C 	0.67003 0.24838 0.05550 -0.34300
H 	H 	0.64610 0.24990 0.12990 0.13600
H 	H 	0.70800 0.22380 0.07020 0.13400
C 	C 	0.63140 0.21604 0.96180 0.55100
H 	H 	0.78950 0.51220 0.33560 0.30500
Sm	Sm	0.18618 0.82224 0.28058 2.31600
O 	O 	0.25742 0.74478 0.36647 -0.61600
N 	N 	0.18805 0.81255 0.52170 -0.11500
C 	C 	0.30599 0.75672 0.42770 0.38000
O 	O 	0.27663 0.98434 0.78818 -0.48100
O 	O 	0.35749 0.73548 0.39636 -0.42500
C 	C 	0.30224 0.79825 0.53340 -0.13800
O 	O 	0.36052 0.94147 0.86188 -0.51500
C 	C 	0.35811 0.81074 0.59040 -0.00000
H 	H 	0.39410 0.78830 0.56800 0.03900
C 	C 	0.36261 0.85457 0.67810 -0.02500
H 	H 	0.40060 0.86110 0.71860 0.05100
O 	O 	0.17806 0.91895 0.39817 -0.50600
C 	C 	0.31061 0.88888 0.70590 -0.10000
O 	O 	0.11938 0.96276 0.53924 -0.53300
C 	C 	0.25338 0.87637 0.65310 -0.04100
H 	H 	0.21810 0.90040 0.67370 0.06500
O 	O 	0.12496 0.74127 0.36268 -0.54700
C 	C 	0.24775 0.82922 0.57110 0.07600
O 	O 	0.10915 0.66537 0.49120 -0.55500
C 	C 	0.31793 0.94049 0.79250 0.47900
C 	C 	0.13755 0.85539 0.55090 -0.36600
H 	H 	0.13600 0.86110 0.63740 0.14300
H 	H 	0.09770 0.83700 0.52560 0.13200
C 	C 	0.14552 0.91782 0.49240 0.51700
C 	C 	0.17003 0.74838 0.55550 -0.35000
H 	H 	0.14610 0.74990 0.62990 0.13800
H 	H 	0.20800 0.72380 0.57020 0.13400
C 	C 	0.13140 0.71604 0.46180 0.55700
H 	H 	0.28950 0.01220 0.83560 0.29700
Sm	Sm	0.57224 0.06382 0.96942 2.29200
O 	O 	0.49478 0.99258 0.88353 -0.60700
N 	N 	0.56255 0.06195 0.72830 -0.11400
C 	C 	0.50672 0.94401 0.82230 0.37600
O 	O 	0.73434 0.97337 0.46182 -0.49300
O 	O 	0.48548 0.89251 0.85364 -0.42000
C 	C 	0.54825 0.94776 0.71660 -0.12900
O 	O 	0.69147 0.88948 0.38812 -0.52300
C 	C 	0.56074 0.89189 0.65960 -0.00800
H 	H 	0.53830 0.85590 0.68200 0.04200
C 	C 	0.60457 0.88739 0.57190 -0.01800
H 	H 	0.61110 0.84940 0.53140 0.04800
O 	O 	0.66895 0.07194 0.85183 -0.50600
C 	C 	0.63888 0.93939 0.54410 -0.10900
O 	O 	0.71276 0.13062 0.71076 -0.53400
C 	C 	0.62637 0.99662 0.59690 -0.02800
H 	H 	0.65040 0.03190 0.57630 0.06000
O 	O 	0.49127 0.12504 0.88732 -0.54600
C 	C 	0.57922 0.00225 0.67890 0.06400
O 	O 	0.41537 0.14085 0.75880 -0.55500
C 	C 	0.69049 0.93207 0.45750 0.48500
C 	C 	0.60539 0.11245 0.69910 -0.36700
H 	H 	0.61110 0.11400 0.61260 0.14300
H 	H 	0.58700 0.15230 0.72440 0.13200
C 	C 	0.66782 0.10448 0.75760 0.51800
C 	C 	0.49838 0.07997 0.69450 -0.35000
H 	H 	0.49990 0.10390 0.62010 0.13800
H 	H 	0.47380 0.04200 0.67980 0.13300
C 	C 	0.46604 0.11860 0.78820 0.55600
H 	H 	0.76220 0.96050 0.41440 0.30500
Sm	Sm	0.07224 0.56382 0.46942 2.31700
O 	O 	0.99478 0.49258 0.38353 -0.61600
N 	N 	0.06255 0.56195 0.22830 -0.11500
C 	C 	0.00672 0.44401 0.32230 0.38000
O 	O 	0.23434 0.47337 0.96182 -0.49100
O 	O 	0.98548 0.39251 0.35364 -0.42500
C 	C 	0.04825 0.44776 0.21660 -0.13800
O 	O 	0.19147 0.38948 0.88812 -0.52300
C 	C 	0.06074 0.39189 0.15960 -0.00000
H 	H 	0.03830 0.35590 0.18200 0.03900
C 	C 	0.10457 0.38739 0.07190 -0.02500
H 	H 	0.11110 0.34940 0.03140 0.05200
O 	O 	0.16895 0.57194 0.35183 -0.50600
C 	C 	0.13888 0.43939 0.04410 -0.10100
O 	O 	0.21276 0.63062 0.21076 -0.53400
C 	C 	0.12637 0.49662 0.09690 -0.04100
H 	H 	0.15040 0.53190 0.07630 0.06500
O 	O 	0.99127 0.62504 0.38732 -0.54700
C 	C 	0.07922 0.50225 0.17890 0.07600
O 	O 	0.91537 0.64085 0.25880 -0.55500
C 	C 	0.19049 0.43207 0.95750 0.48100
C 	C 	0.10539 0.61245 0.19910 -0.36600
H 	H 	0.11110 0.61400 0.11260 0.14200
H 	H 	0.08700 0.65230 0.22440 0.13100
C 	C 	0.16782 0.60448 0.25760 0.51800
C 	C 	0.99838 0.57997 0.19450 -0.35000
H 	H 	0.99990 0.60390 0.12010 0.13700
H 	H 	0.97380 0.54200 0.17980 0.13400
C 	C 	0.96604 0.61860 0.28820 0.55700
H 	H 	0.26220 0.46050 0.91440 0.30500
Sm	Sm	0.92776 0.93618 0.46942 2.31500
O 	O 	0.00522 0.00742 0.38353 -0.61400
N 	N 	0.93745 0.93805 0.22830 -0.11300
C 	C 	0.99328 0.05599 0.32230 0.37600
O 	O 	0.76566 0.02663 0.96182 -0.49500
O 	O 	0.01452 0.10749 0.35364 -0.42400
C 	C 	0.95175 0.05224 0.21660 -0.12200
O 	O 	0.80853 0.11052 0.88812 -0.52300
C 	C 	0.93926 0.10811 0.15960 -0.01100
H 	H 	0.96170 0.14410 0.18200 0.04300
C 	C 	0.89543 0.11261 0.07190 -0.01500
H 	H 	0.88890 0.15060 0.03140 0.04900
O 	O 	0.83105 0.92806 0.35183 -0.50600
C 	C 	0.86112 0.06061 0.04410 -0.10800
O 	O 	0.78724 0.86938 0.21076 -0.53400
C 	C 	0.87363 0.00338 0.09690 -0.00900
H 	H 	0.84960 0.96810 0.07630 0.05000
O 	O 	0.00873 0.87496 0.38732 -0.54700
C 	C 	0.92078 0.99775 0.17890 0.05100
O 	O 	0.08463 0.85915 0.25880 -0.55600
C 	C 	0.80951 0.06793 0.95750 0.47900
C 	C 	0.89461 0.88755 0.19910 -0.36700
H 	H 	0.88890 0.88600 0.11260 0.14200
H 	H 	0.91300 0.84770 0.22440 0.13100
C 	C 	0.83218 0.89552 0.25760 0.51800
C 	C 	0.00162 0.92003 0.19450 -0.35000
H 	H 	0.00010 0.89610 0.12010 0.13600
H 	H 	0.02620 0.95800 0.17980 0.13200
C 	C 	0.03396 0.88140 0.28820 0.55600
H 	H 	0.73780 0.03950 0.91440 0.30500
Sm	Sm	0.42776 0.43618 0.96942 2.31500
O 	O 	0.50522 0.50742 0.88353 -0.61600
N 	N 	0.43745 0.43805 0.72830 -0.11500
C 	C 	0.49328 0.55599 0.82230 0.38000
O 	O 	0.26566 0.52663 0.46182 -0.49200
O 	O 	0.51452 0.60749 0.85364 -0.42400
C 	C 	0.45175 0.55224 0.71660 -0.13800
O 	O 	0.30853 0.61052 0.38812 -0.52200
C 	C 	0.43926 0.60811 0.65960 -0.00100
H 	H 	0.46170 0.64410 0.68200 0.04000
C 	C 	0.39543 0.61261 0.57190 -0.02400
H 	H 	0.38890 0.65060 0.53140 0.05000
O 	O 	0.33105 0.42806 0.85183 -0.50600
C 	C 	0.36112 0.56061 0.54410 -0.10300
O 	O 	0.28724 0.36938 0.71076 -0.53400
C 	C 	0.37363 0.50338 0.59690 -0.04000
H 	H 	0.34960 0.46810 0.57630 0.06500
O 	O 	0.50873 0.37496 0.88732 -0.54700
C 	C 	0.42078 0.49775 0.67890 0.07500
O 	O 	0.58463 0.35915 0.75880 -0.55500
C 	C 	0.30951 0.56793 0.45750 0.48300
C 	C 	0.39461 0.38755 0.69910 -0.36700
H 	H 	0.38890 0.38600 0.61260 0.14300
H 	H 	0.41300 0.34770 0.72440 0.13200
C 	C 	0.33218 0.39552 0.75760 0.51800
C 	C 	0.50162 0.42003 0.69450 -0.35000
H 	H 	0.50010 0.39610 0.62010 0.13800
H 	H 	0.52620 0.45800 0.67980 0.13400
C 	C 	0.53396 0.38140 0.78820 0.55700
H 	H 	0.23780 0.53950 0.41440 0.30500
Sm	Sm	0.18618 0.32224 0.71942 2.31700
O 	O 	0.25742 0.24478 0.63353 -0.61600
N 	N 	0.18805 0.31255 0.47830 -0.11500
C 	C 	0.30599 0.25672 0.57230 0.38000
O 	O 	0.27663 0.48434 0.21182 -0.49200
O 	O 	0.35749 0.23548 0.60364 -0.42500
C 	C 	0.30224 0.29825 0.46660 -0.13800
O 	O 	0.36052 0.44147 0.13812 -0.52200
C 	C 	0.35811 0.31074 0.40960 -0.00100
H 	H 	0.39410 0.28830 0.43200 0.04000
C 	C 	0.36261 0.35457 0.32190 -0.02400
H 	H 	0.40060 0.36110 0.28140 0.05000
O 	O 	0.17806 0.41895 0.60183 -0.50600
C 	C 	0.31061 0.38888 0.29410 -0.10300
O 	O 	0.11938 0.46276 0.46076 -0.53400
C 	C 	0.25338 0.37637 0.34690 -0.04000
H 	H 	0.21810 0.40040 0.32630 0.06500
O 	O 	0.12496 0.24127 0.63732 -0.54700
C 	C 	0.24775 0.32922 0.42890 0.07500
O 	O 	0.10915 0.16537 0.50880 -0.55500
C 	C 	0.31793 0.44049 0.20750 0.48300
C 	C 	0.13755 0.35539 0.44910 -0.36700
H 	H 	0.13600 0.36110 0.36260 0.14300
H 	H 	0.09770 0.33700 0.47440 0.13200
C 	C 	0.14552 0.41782 0.50760 0.51800
C 	C 	0.17003 0.24838 0.44450 -0.35000
H 	H 	0.14610 0.24990 0.37010 0.13800
H 	H 	0.20800 0.22380 0.42980 0.13400
C 	C 	0.13140 0.21604 0.53820 0.55700
H 	H 	0.28950 0.51220 0.16440 0.30500
Sm	Sm	0.68618 0.82224 0.21942 2.31300
O 	O 	0.75742 0.74478 0.13353 -0.61600
N 	N 	0.68805 0.81255 0.97830 -0.11600
C 	C 	0.80599 0.75672 0.07230 0.37400
O 	O 	0.77663 0.98434 0.71182 -0.48600
O 	O 	0.85749 0.73548 0.10364 -0.42500
C 	C 	0.80224 0.79825 0.96660 -0.13100
O 	O 	0.86052 0.94147 0.63812 -0.52100
C 	C 	0.85811 0.81074 0.90960 -0.00400
H 	H 	0.89410 0.78830 0.93200 0.04200
C 	C 	0.86261 0.85457 0.82190 -0.02200
H 	H 	0.90060 0.86110 0.78140 0.05000
O 	O 	0.67806 0.91895 0.10183 -0.50200
C 	C 	0.81061 0.88888 0.79410 -0.10300
O 	O 	0.61938 0.96276 0.96076 -0.51800
C 	C 	0.75338 0.87637 0.84690 -0.03900
H 	H 	0.71810 0.90040 0.82630 0.06600
O 	O 	0.62496 0.74127 0.13732 -0.54600
C 	C 	0.74775 0.82922 0.92890 0.07500
O 	O 	0.60915 0.66537 0.00880 -0.55500
C 	C 	0.81793 0.94049 0.70750 0.48200
C 	C 	0.63755 0.85539 0.94910 -0.35100
H 	H 	0.63600 0.86110 0.86260 0.13900
H 	H 	0.59770 0.83700 0.97440 0.13000
C 	C 	0.64552 0.91782 0.00760 0.49600
C 	C 	0.67003 0.74838 0.94450 -0.34400
H 	H 	0.64610 0.74990 0.87010 0.13600
H 	H 	0.70800 0.72380 0.92980 0.13300
C 	C 	0.63140 0.71604 0.03820 0.55200
H 	H 	0.78950 0.01220 0.66440 0.30100
Sm	Sm	0.31382 0.67776 0.21942 2.31500
O 	O 	0.24258 0.75522 0.13353 -0.61600
N 	N 	0.31195 0.68745 0.97830 -0.11500
C 	C 	0.19401 0.74328 0.07230 0.37500
O 	O 	0.22337 0.51566 0.71182 -0.49200
O 	O 	0.14251 0.76452 0.10364 -0.42600
C 	C 	0.19776 0.70175 0.96660 -0.13200
O 	O 	0.13948 0.55853 0.63812 -0.52300
C 	C 	0.14189 0.68926 0.90960 -0.00400
H 	H 	0.10590 0.71170 0.93200 0.04200
C 	C 	0.13739 0.64543 0.82190 -0.02200
H 	H 	0.09940 0.63890 0.78140 0.04900
O 	O 	0.32194 0.58105 0.10183 -0.50500
C 	C 	0.18939 0.61112 0.79410 -0.10400
O 	O 	0.38062 0.53724 0.96076 -0.53200
C 	C 	0.24662 0.62363 0.84690 -0.03800
H 	H 	0.28190 0.59960 0.82630 0.06400
O 	O 	0.37504 0.75873 0.13732 -0.54500
C 	C 	0.25225 0.67078 0.92890 0.07400
O 	O 	0.39085 0.83463 0.00880 -0.55300
C 	C 	0.18207 0.55951 0.70750 0.48400
C 	C 	0.36245 0.64461 0.94910 -0.36400
H 	H 	0.36400 0.63890 0.86260 0.14200
H 	H 	0.40230 0.66300 0.97440 0.13200
C 	C 	0.35448 0.58218 0.00760 0.51400
C 	C 	0.32997 0.75162 0.94450 -0.34300
H 	H 	0.35390 0.75010 0.87010 0.13600
H 	H 	0.29200 0.77620 0.92980 0.13400
C 	C 	0.36860 0.78396 0.03820 0.55100
H 	H 	0.21050 0.48780 0.66440 0.30500
Sm	Sm	0.81382 0.17776 0.71942 2.31600
O 	O 	0.74258 0.25522 0.63353 -0.61600
N 	N 	0.81195 0.18745 0.47830 -0.11500
C 	C 	0.69401 0.24328 0.57230 0.38000
O 	O 	0.72337 0.01566 0.21182 -0.48100
O 	O 	0.64251 0.26452 0.60364 -0.42500
C 	C 	0.69776 0.20175 0.46660 -0.13800
O 	O 	0.63948 0.05853 0.13812 -0.51500
C 	C 	0.64189 0.18926 0.40960 -0.00000
H 	H 	0.60590 0.21170 0.43200 0.03900
C 	C 	0.63739 0.14543 0.32190 -0.02500
H 	H 	0.59940 0.13890 0.28140 0.05100
O 	O 	0.82194 0.08105 0.60183 -0.50600
C 	C 	0.68939 0.11112 0.29410 -0.10000
O 	O 	0.88062 0.03724 0.46076 -0.53300
C 	C 	0.74662 0.12363 0.34690 -0.04100
H 	H 	0.78190 0.09960 0.32630 0.06500
O 	O 	0.87504 0.25873 0.63732 -0.54700
C 	C 	0.75225 0.17078 0.42890 0.07600
O 	O 	0.89085 0.33463 0.50880 -0.55500
C 	C 	0.68207 0.05951 0.20750 0.47900
C 	C 	0.86245 0.14461 0.44910 -0.36600
H 	H 	0.86400 0.13890 0.36260 0.14300
H 	H 	0.90230 0.16300 0.47440 0.13200
C 	C 	0.85448 0.08218 0.50760 0.51700
C 	C 	0.82997 0.25162 0.44450 -0.35000
H 	H 	0.85390 0.25010 0.37010 0.13800
H 	H 	0.79200 0.27620 0.42980 0.13400
C 	C 	0.86860 0.28396 0.53820 0.55700
H 	H 	0.71050 0.98780 0.16440 0.29700
