data_crystal

_cell_length_a 30.79110
_cell_length_b 30.79110
_cell_length_c 30.79110
_cell_angle_alpha 90.00000
_cell_angle_beta  90.00000
_cell_angle_gamma 90.00000

_symmetry_space_group_name_	'P 1'
_symmetry_space_group_name_H-M	'P 1'

loop_
_symmetry_equiv_pos_as_xyz
  x,y,z

loop_
_atom_site_label
_atom_site_type_symbol
_atom_site_fract_x
_atom_site_fract_y
_atom_site_fract_z
_atom_site_charge
O 	O 	0.15586 0.04462 0.29273 -0.40600
O 	O 	0.15605 0.95497 0.20750 -0.37000
O 	O 	0.15586 0.54462 0.79273 -0.39400
O 	O 	0.15605 0.45497 0.70750 -0.39500
O 	O 	0.65586 0.04462 0.79273 -0.40200
O 	O 	0.65605 0.95497 0.70750 -0.36600
O 	O 	0.65586 0.54462 0.29273 -0.39200
O 	O 	0.65605 0.45497 0.20750 -0.39300
O 	O 	0.84414 0.95538 0.29273 -0.36300
O 	O 	0.84395 0.04503 0.20750 -0.40100
O 	O 	0.84414 0.45538 0.79273 -0.38800
O 	O 	0.84395 0.54503 0.70750 -0.38900
O 	O 	0.34414 0.95538 0.79273 -0.36500
O 	O 	0.34395 0.04503 0.70750 -0.40300
O 	O 	0.34414 0.45538 0.29273 -0.39200
O 	O 	0.34395 0.54503 0.20750 -0.39300
O 	O 	0.84414 0.04462 0.70727 -0.40000
O 	O 	0.84395 0.95497 0.79250 -0.36200
O 	O 	0.84414 0.54462 0.20727 -0.39000
O 	O 	0.84395 0.45497 0.29250 -0.38900
O 	O 	0.34414 0.04462 0.20727 -0.40400
O 	O 	0.34395 0.95497 0.29250 -0.36600
O 	O 	0.34414 0.54462 0.70727 -0.39200
O 	O 	0.34395 0.45497 0.79250 -0.39100
O 	O 	0.15586 0.95538 0.70727 -0.36800
O 	O 	0.15605 0.04503 0.79250 -0.40400
O 	O 	0.15586 0.45538 0.20727 -0.39500
O 	O 	0.15605 0.54503 0.29250 -0.39500
O 	O 	0.65586 0.95538 0.20727 -0.36700
O 	O 	0.65605 0.04503 0.29250 -0.40300
O 	O 	0.65586 0.45538 0.70727 -0.39200
O 	O 	0.65605 0.54503 0.79250 -0.39100
O 	O 	0.29273 0.15586 0.04462 -0.40600
O 	O 	0.20750 0.15605 0.95497 -0.37000
O 	O 	0.29273 0.65586 0.54462 -0.39200
O 	O 	0.20750 0.65605 0.45497 -0.39300
O 	O 	0.79273 0.15586 0.54462 -0.39400
O 	O 	0.70750 0.15605 0.45497 -0.39500
O 	O 	0.79273 0.65586 0.04462 -0.40200
O 	O 	0.70750 0.65605 0.95497 -0.36600
O 	O 	0.29273 0.84414 0.95538 -0.36300
O 	O 	0.20750 0.84395 0.04503 -0.40100
O 	O 	0.29273 0.34414 0.45538 -0.39200
O 	O 	0.20750 0.34395 0.54503 -0.39300
O 	O 	0.79273 0.84414 0.45538 -0.38800
O 	O 	0.70750 0.84395 0.54503 -0.38900
O 	O 	0.79273 0.34414 0.95538 -0.36500
O 	O 	0.70750 0.34395 0.04503 -0.40300
O 	O 	0.70727 0.84414 0.04462 -0.40000
O 	O 	0.79250 0.84395 0.95497 -0.36200
O 	O 	0.70727 0.34414 0.54462 -0.39200
O 	O 	0.79250 0.34395 0.45497 -0.39100
O 	O 	0.20727 0.84414 0.54462 -0.39000
O 	O 	0.29250 0.84395 0.45497 -0.38900
O 	O 	0.20727 0.34414 0.04462 -0.40400
O 	O 	0.29250 0.34395 0.95497 -0.36600
O 	O 	0.70727 0.15586 0.95538 -0.36800
O 	O 	0.79250 0.15605 0.04503 -0.40400
O 	O 	0.70727 0.65586 0.45538 -0.39200
O 	O 	0.79250 0.65605 0.54503 -0.39100
O 	O 	0.20727 0.15586 0.45538 -0.39500
O 	O 	0.29250 0.15605 0.54503 -0.39500
O 	O 	0.20727 0.65586 0.95538 -0.36700
O 	O 	0.29250 0.65605 0.04503 -0.40300
O 	O 	0.04462 0.29273 0.15586 -0.40600
O 	O 	0.95497 0.20750 0.15605 -0.37000
O 	O 	0.04462 0.79273 0.65586 -0.40200
O 	O 	0.95497 0.70750 0.65605 -0.36600
O 	O 	0.54462 0.29273 0.65586 -0.39200
O 	O 	0.45497 0.20750 0.65605 -0.39300
O 	O 	0.54462 0.79273 0.15586 -0.39400
O 	O 	0.45497 0.70750 0.15605 -0.39500
O 	O 	0.95538 0.29273 0.84414 -0.36300
O 	O 	0.04503 0.20750 0.84395 -0.40100
O 	O 	0.95538 0.79273 0.34414 -0.36500
O 	O 	0.04503 0.70750 0.34395 -0.40300
O 	O 	0.45538 0.29273 0.34414 -0.39200
O 	O 	0.54503 0.20750 0.34395 -0.39300
O 	O 	0.45538 0.79273 0.84414 -0.38800
O 	O 	0.54503 0.70750 0.84395 -0.38900
O 	O 	0.04462 0.70727 0.84414 -0.40000
O 	O 	0.95497 0.79250 0.84395 -0.36200
O 	O 	0.04462 0.20727 0.34414 -0.40400
O 	O 	0.95497 0.29250 0.34395 -0.36600
O 	O 	0.54462 0.70727 0.34414 -0.39200
O 	O 	0.45497 0.79250 0.34395 -0.39100
O 	O 	0.54462 0.20727 0.84414 -0.39000
O 	O 	0.45497 0.29250 0.84395 -0.38900
O 	O 	0.95538 0.70727 0.15586 -0.36800
O 	O 	0.04503 0.79250 0.15605 -0.40400
O 	O 	0.95538 0.20727 0.65586 -0.36700
O 	O 	0.04503 0.29250 0.65605 -0.40300
O 	O 	0.45538 0.70727 0.65586 -0.39200
O 	O 	0.54503 0.79250 0.65605 -0.39100
O 	O 	0.45538 0.20727 0.15586 -0.39500
O 	O 	0.54503 0.29250 0.15605 -0.39500
O 	O 	0.04462 0.15586 0.70727 -0.40600
O 	O 	0.95497 0.15605 0.79250 -0.36800
O 	O 	0.04462 0.65586 0.20727 -0.40400
O 	O 	0.95497 0.65605 0.29250 -0.36600
O 	O 	0.54462 0.15586 0.20727 -0.39500
O 	O 	0.45497 0.15605 0.29250 -0.39500
O 	O 	0.54462 0.65586 0.70727 -0.39200
O 	O 	0.45497 0.65605 0.79250 -0.39100
O 	O 	0.95538 0.84414 0.70727 -0.36300
O 	O 	0.04503 0.84395 0.79250 -0.39900
O 	O 	0.95538 0.34414 0.20727 -0.36700
O 	O 	0.04503 0.34395 0.29250 -0.40300
O 	O 	0.45538 0.84414 0.20727 -0.39000
O 	O 	0.54503 0.84395 0.29250 -0.38900
O 	O 	0.45538 0.34414 0.70727 -0.39200
O 	O 	0.54503 0.34395 0.79250 -0.39100
O 	O 	0.04462 0.84414 0.29273 -0.40000
O 	O 	0.95497 0.84395 0.20750 -0.36400
O 	O 	0.04462 0.34414 0.79273 -0.40200
O 	O 	0.95497 0.34395 0.70750 -0.36600
O 	O 	0.54462 0.84414 0.79273 -0.38800
O 	O 	0.45497 0.84395 0.70750 -0.38900
O 	O 	0.54462 0.34414 0.29273 -0.39200
O 	O 	0.45497 0.34395 0.20750 -0.39300
O 	O 	0.95538 0.15586 0.29273 -0.36800
O 	O 	0.04503 0.15605 0.20750 -0.40600
O 	O 	0.95538 0.65586 0.79273 -0.36500
O 	O 	0.04503 0.65605 0.70750 -0.40300
O 	O 	0.45538 0.15586 0.79273 -0.39400
O 	O 	0.54503 0.15605 0.70750 -0.39500
O 	O 	0.45538 0.65586 0.29273 -0.39200
O 	O 	0.54503 0.65605 0.20750 -0.39300
O 	O 	0.15586 0.29273 0.95538 -0.36800
O 	O 	0.15605 0.20750 0.04503 -0.40600
O 	O 	0.15586 0.79273 0.45538 -0.39400
O 	O 	0.15605 0.70750 0.54503 -0.39500
O 	O 	0.65586 0.29273 0.45538 -0.39200
O 	O 	0.65605 0.20750 0.54503 -0.39300
O 	O 	0.65586 0.79273 0.95538 -0.36500
O 	O 	0.65605 0.70750 0.04503 -0.40300
O 	O 	0.84414 0.29273 0.04462 -0.40000
O 	O 	0.84395 0.20750 0.95497 -0.36400
O 	O 	0.84414 0.79273 0.54462 -0.38800
O 	O 	0.84395 0.70750 0.45497 -0.38900
O 	O 	0.34414 0.29273 0.54462 -0.39200
O 	O 	0.34395 0.20750 0.45497 -0.39300
O 	O 	0.34414 0.79273 0.04462 -0.40200
O 	O 	0.34395 0.70750 0.95497 -0.36600
O 	O 	0.84414 0.70727 0.95538 -0.36300
O 	O 	0.84395 0.79250 0.04503 -0.39900
O 	O 	0.84414 0.20727 0.45538 -0.39000
O 	O 	0.84395 0.29250 0.54503 -0.38900
O 	O 	0.34414 0.70727 0.45538 -0.39200
O 	O 	0.34395 0.79250 0.54503 -0.39100
O 	O 	0.34414 0.20727 0.95538 -0.36700
O 	O 	0.34395 0.29250 0.04503 -0.40300
O 	O 	0.15586 0.70727 0.04462 -0.40600
O 	O 	0.15605 0.79250 0.95497 -0.36800
O 	O 	0.15586 0.20727 0.54462 -0.39500
O 	O 	0.15605 0.29250 0.45497 -0.39500
O 	O 	0.65586 0.70727 0.54462 -0.39200
O 	O 	0.65605 0.79250 0.45497 -0.39100
O 	O 	0.65586 0.20727 0.04462 -0.40400
O 	O 	0.65605 0.29250 0.95497 -0.36600
O 	O 	0.29273 0.04462 0.84414 -0.40000
O 	O 	0.20750 0.95497 0.84395 -0.36400
O 	O 	0.29273 0.54462 0.34414 -0.39200
O 	O 	0.20750 0.45497 0.34395 -0.39300
O 	O 	0.79273 0.04462 0.34414 -0.40200
O 	O 	0.70750 0.95497 0.34395 -0.36600
O 	O 	0.79273 0.54462 0.84414 -0.38800
O 	O 	0.70750 0.45497 0.84395 -0.38900
O 	O 	0.29273 0.95538 0.15586 -0.36800
O 	O 	0.20750 0.04503 0.15605 -0.40600
O 	O 	0.29273 0.45538 0.65586 -0.39200
O 	O 	0.20750 0.54503 0.65605 -0.39300
O 	O 	0.79273 0.95538 0.65586 -0.36500
O 	O 	0.70750 0.04503 0.65605 -0.40300
O 	O 	0.79273 0.45538 0.15586 -0.39400
O 	O 	0.70750 0.54503 0.15605 -0.39500
O 	O 	0.70727 0.04462 0.15586 -0.40600
O 	O 	0.79250 0.95497 0.15605 -0.36800
O 	O 	0.70727 0.54462 0.65586 -0.39200
O 	O 	0.79250 0.45497 0.65605 -0.39100
O 	O 	0.20727 0.04462 0.65586 -0.40400
O 	O 	0.29250 0.95497 0.65605 -0.36600
O 	O 	0.20727 0.54462 0.15586 -0.39500
O 	O 	0.29250 0.45497 0.15605 -0.39500
O 	O 	0.70727 0.95538 0.84414 -0.36300
O 	O 	0.79250 0.04503 0.84395 -0.39900
O 	O 	0.70727 0.45538 0.34414 -0.39200
O 	O 	0.79250 0.54503 0.34395 -0.39100
O 	O 	0.20727 0.95538 0.34414 -0.36700
O 	O 	0.29250 0.04503 0.34395 -0.40300
O 	O 	0.20727 0.45538 0.84414 -0.39000
O 	O 	0.29250 0.54503 0.84395 -0.38900
O 	O 	0.84414 0.95538 0.70727 -0.36300
O 	O 	0.84395 0.04503 0.79250 -0.39900
O 	O 	0.84414 0.45538 0.20727 -0.39000
O 	O 	0.84395 0.54503 0.29250 -0.38900
O 	O 	0.34414 0.95538 0.20727 -0.36700
O 	O 	0.34395 0.04503 0.29250 -0.40300
O 	O 	0.34414 0.45538 0.70727 -0.39200
O 	O 	0.34395 0.54503 0.79250 -0.39100
O 	O 	0.15586 0.04462 0.70727 -0.40600
O 	O 	0.15605 0.95497 0.79250 -0.36800
O 	O 	0.15586 0.54462 0.20727 -0.39500
O 	O 	0.15605 0.45497 0.29250 -0.39500
O 	O 	0.65586 0.04462 0.20727 -0.40400
O 	O 	0.65605 0.95497 0.29250 -0.36600
O 	O 	0.65586 0.54462 0.70727 -0.39200
O 	O 	0.65605 0.45497 0.79250 -0.39100
O 	O 	0.15586 0.95538 0.29273 -0.36800
O 	O 	0.15605 0.04503 0.20750 -0.40600
O 	O 	0.15586 0.45538 0.79273 -0.39400
O 	O 	0.15605 0.54503 0.70750 -0.39500
O 	O 	0.65586 0.95538 0.79273 -0.36500
O 	O 	0.65605 0.04503 0.70750 -0.40300
O 	O 	0.65586 0.45538 0.29273 -0.39200
O 	O 	0.65605 0.54503 0.20750 -0.39300
O 	O 	0.84414 0.04462 0.29273 -0.40000
O 	O 	0.84395 0.95497 0.20750 -0.36400
O 	O 	0.84414 0.54462 0.79273 -0.38800
O 	O 	0.84395 0.45497 0.70750 -0.38900
O 	O 	0.34414 0.04462 0.79273 -0.40200
O 	O 	0.34395 0.95497 0.70750 -0.36600
O 	O 	0.34414 0.54462 0.29273 -0.39200
O 	O 	0.34395 0.45497 0.20750 -0.39300
O 	O 	0.70727 0.84414 0.95538 -0.36300
O 	O 	0.79250 0.84395 0.04503 -0.39900
O 	O 	0.70727 0.34414 0.45538 -0.39200
O 	O 	0.79250 0.34395 0.54503 -0.39100
O 	O 	0.20727 0.84414 0.45538 -0.39000
O 	O 	0.29250 0.84395 0.54503 -0.38900
O 	O 	0.20727 0.34414 0.95538 -0.36700
O 	O 	0.29250 0.34395 0.04503 -0.40300
O 	O 	0.70727 0.15586 0.04462 -0.40600
O 	O 	0.79250 0.15605 0.95497 -0.36800
O 	O 	0.70727 0.65586 0.54462 -0.39200
O 	O 	0.79250 0.65605 0.45497 -0.39100
O 	O 	0.20727 0.15586 0.54462 -0.39500
O 	O 	0.29250 0.15605 0.45497 -0.39500
O 	O 	0.20727 0.65586 0.04462 -0.40400
O 	O 	0.29250 0.65605 0.95497 -0.36600
O 	O 	0.29273 0.15586 0.95538 -0.36800
O 	O 	0.20750 0.15605 0.04503 -0.40600
O 	O 	0.29273 0.65586 0.45538 -0.39200
O 	O 	0.20750 0.65605 0.54503 -0.39300
O 	O 	0.79273 0.15586 0.45538 -0.39400
O 	O 	0.70750 0.15605 0.54503 -0.39500
O 	O 	0.79273 0.65586 0.95538 -0.36500
O 	O 	0.70750 0.65605 0.04503 -0.40300
O 	O 	0.29273 0.84414 0.04462 -0.40000
O 	O 	0.20750 0.84395 0.95497 -0.36400
O 	O 	0.29273 0.34414 0.54462 -0.39200
O 	O 	0.20750 0.34395 0.45497 -0.39300
O 	O 	0.79273 0.84414 0.54462 -0.38800
O 	O 	0.70750 0.84395 0.45497 -0.38900
O 	O 	0.79273 0.34414 0.04462 -0.40200
O 	O 	0.70750 0.34395 0.95497 -0.36600
O 	O 	0.95538 0.70727 0.84414 -0.36300
O 	O 	0.04503 0.79250 0.84395 -0.39900
O 	O 	0.95538 0.20727 0.34414 -0.36700
O 	O 	0.04503 0.29250 0.34395 -0.40300
O 	O 	0.45538 0.70727 0.34414 -0.39200
O 	O 	0.54503 0.79250 0.34395 -0.39100
O 	O 	0.45538 0.20727 0.84414 -0.39000
O 	O 	0.54503 0.29250 0.84395 -0.38900
O 	O 	0.04462 0.70727 0.15586 -0.40600
O 	O 	0.95497 0.79250 0.15605 -0.36800
O 	O 	0.04462 0.20727 0.65586 -0.40400
O 	O 	0.95497 0.29250 0.65605 -0.36600
O 	O 	0.54462 0.70727 0.65586 -0.39200
O 	O 	0.45497 0.79250 0.65605 -0.39100
O 	O 	0.54462 0.20727 0.15586 -0.39500
O 	O 	0.45497 0.29250 0.15605 -0.39500
O 	O 	0.95538 0.29273 0.15586 -0.36800
O 	O 	0.04503 0.20750 0.15605 -0.40600
O 	O 	0.95538 0.79273 0.65586 -0.36500
O 	O 	0.04503 0.70750 0.65605 -0.40300
O 	O 	0.45538 0.29273 0.65586 -0.39200
O 	O 	0.54503 0.20750 0.65605 -0.39300
O 	O 	0.45538 0.79273 0.15586 -0.39400
O 	O 	0.54503 0.70750 0.15605 -0.39500
O 	O 	0.04462 0.29273 0.84414 -0.40000
O 	O 	0.95497 0.20750 0.84395 -0.36400
O 	O 	0.04462 0.79273 0.34414 -0.40200
O 	O 	0.95497 0.70750 0.34395 -0.36600
O 	O 	0.54462 0.29273 0.34414 -0.39200
O 	O 	0.45497 0.20750 0.34395 -0.39300
O 	O 	0.54462 0.79273 0.84414 -0.38800
O 	O 	0.45497 0.70750 0.84395 -0.38900
O 	O 	0.95538 0.84414 0.29273 -0.36300
O 	O 	0.04503 0.84395 0.20750 -0.40100
O 	O 	0.95538 0.34414 0.79273 -0.36500
O 	O 	0.04503 0.34395 0.70750 -0.40300
O 	O 	0.45538 0.84414 0.79273 -0.38800
O 	O 	0.54503 0.84395 0.70750 -0.38900
O 	O 	0.45538 0.34414 0.29273 -0.39200
O 	O 	0.54503 0.34395 0.20750 -0.39300
O 	O 	0.04462 0.15586 0.29273 -0.40600
O 	O 	0.95497 0.15605 0.20750 -0.37000
O 	O 	0.04462 0.65586 0.79273 -0.40200
O 	O 	0.95497 0.65605 0.70750 -0.36600
O 	O 	0.54462 0.15586 0.79273 -0.39400
O 	O 	0.45497 0.15605 0.70750 -0.39500
O 	O 	0.54462 0.65586 0.29273 -0.39200
O 	O 	0.45497 0.65605 0.20750 -0.39300
O 	O 	0.95538 0.15586 0.70727 -0.36800
O 	O 	0.04503 0.15605 0.79250 -0.40400
O 	O 	0.95538 0.65586 0.20727 -0.36700
O 	O 	0.04503 0.65605 0.29250 -0.40300
O 	O 	0.45538 0.15586 0.20727 -0.39500
O 	O 	0.54503 0.15605 0.29250 -0.39500
O 	O 	0.45538 0.65586 0.70727 -0.39200
O 	O 	0.54503 0.65605 0.79250 -0.39100
O 	O 	0.04462 0.84414 0.70727 -0.40000
O 	O 	0.95497 0.84395 0.79250 -0.36200
O 	O 	0.04462 0.34414 0.20727 -0.40400
O 	O 	0.95497 0.34395 0.29250 -0.36600
O 	O 	0.54462 0.84414 0.20727 -0.39000
O 	O 	0.45497 0.84395 0.29250 -0.38900
O 	O 	0.54462 0.34414 0.70727 -0.39200
O 	O 	0.45497 0.34395 0.79250 -0.39100
O 	O 	0.84414 0.70727 0.04462 -0.40000
O 	O 	0.84395 0.79250 0.95497 -0.36200
O 	O 	0.84414 0.20727 0.54462 -0.39000
O 	O 	0.84395 0.29250 0.45497 -0.38900
O 	O 	0.34414 0.70727 0.54462 -0.39200
O 	O 	0.34395 0.79250 0.45497 -0.39100
O 	O 	0.34414 0.20727 0.04462 -0.40400
O 	O 	0.34395 0.29250 0.95497 -0.36600
O 	O 	0.15586 0.70727 0.95538 -0.36800
O 	O 	0.15605 0.79250 0.04503 -0.40400
O 	O 	0.15586 0.20727 0.45538 -0.39500
O 	O 	0.15605 0.29250 0.54503 -0.39500
O 	O 	0.65586 0.70727 0.45538 -0.39200
O 	O 	0.65605 0.79250 0.54503 -0.39100
O 	O 	0.65586 0.20727 0.95538 -0.36700
O 	O 	0.65605 0.29250 0.04503 -0.40300
O 	O 	0.15586 0.29273 0.04462 -0.40600
O 	O 	0.15605 0.20750 0.95497 -0.37000
O 	O 	0.15586 0.79273 0.54462 -0.39400
O 	O 	0.15605 0.70750 0.45497 -0.39500
O 	O 	0.65586 0.29273 0.54462 -0.39200
O 	O 	0.65605 0.20750 0.45497 -0.39300
O 	O 	0.65586 0.79273 0.04462 -0.40200
O 	O 	0.65605 0.70750 0.95497 -0.36600
O 	O 	0.84414 0.29273 0.95538 -0.36300
O 	O 	0.84395 0.20750 0.04503 -0.40100
O 	O 	0.84414 0.79273 0.45538 -0.38800
O 	O 	0.84395 0.70750 0.54503 -0.38900
O 	O 	0.34414 0.29273 0.45538 -0.39200
O 	O 	0.34395 0.20750 0.54503 -0.39300
O 	O 	0.34414 0.79273 0.95538 -0.36500
O 	O 	0.34395 0.70750 0.04503 -0.40300
O 	O 	0.70727 0.95538 0.15586 -0.36800
O 	O 	0.79250 0.04503 0.15605 -0.40400
O 	O 	0.70727 0.45538 0.65586 -0.39200
O 	O 	0.79250 0.54503 0.65605 -0.39100
O 	O 	0.20727 0.95538 0.65586 -0.36700
O 	O 	0.29250 0.04503 0.65605 -0.40300
O 	O 	0.20727 0.45538 0.15586 -0.39500
O 	O 	0.29250 0.54503 0.15605 -0.39500
O 	O 	0.70727 0.04462 0.84414 -0.40000
O 	O 	0.79250 0.95497 0.84395 -0.36200
O 	O 	0.70727 0.54462 0.34414 -0.39200
O 	O 	0.79250 0.45497 0.34395 -0.39100
O 	O 	0.20727 0.04462 0.34414 -0.40400
O 	O 	0.29250 0.95497 0.34395 -0.36600
O 	O 	0.20727 0.54462 0.84414 -0.39000
O 	O 	0.29250 0.45497 0.84395 -0.38900
O 	O 	0.29273 0.95538 0.84414 -0.36300
O 	O 	0.20750 0.04503 0.84395 -0.40100
O 	O 	0.29273 0.45538 0.34414 -0.39200
O 	O 	0.20750 0.54503 0.34395 -0.39300
O 	O 	0.79273 0.95538 0.34414 -0.36500
O 	O 	0.70750 0.04503 0.34395 -0.40300
O 	O 	0.79273 0.45538 0.84414 -0.38800
O 	O 	0.70750 0.54503 0.84395 -0.38900
O 	O 	0.29273 0.04462 0.15586 -0.40600
O 	O 	0.20750 0.95497 0.15605 -0.37000
O 	O 	0.29273 0.54462 0.65586 -0.39200
O 	O 	0.20750 0.45497 0.65605 -0.39300
O 	O 	0.79273 0.04462 0.65586 -0.40200
O 	O 	0.70750 0.95497 0.65605 -0.36600
O 	O 	0.79273 0.54462 0.15586 -0.39400
O 	O 	0.70750 0.45497 0.15605 -0.39500
Cl	Cl	0.25000 0.00000 0.25000 -0.70400
Cl	Cl	0.25000 0.50000 0.75000 -0.67200
Cl	Cl	0.75000 0.00000 0.25000 -0.70500
Cl	Cl	0.75000 0.50000 0.75000 -0.67300
Cl	Cl	0.25000 0.50000 0.25000 -0.67100
Cl	Cl	0.75000 -0.00000 0.75000 -0.70600
Cl	Cl	0.75000 0.50000 0.25000 -0.67200
Cl	Cl	0.25000 -0.00000 0.75000 -0.70500
Cl	Cl	0.25000 0.25000 -0.00000 -0.70400
Cl	Cl	0.25000 0.75000 0.50000 -0.67200
Cl	Cl	0.25000 0.75000 -0.00000 -0.70500
Cl	Cl	0.25000 0.25000 0.50000 -0.67100
Cl	Cl	0.75000 0.75000 -0.00000 -0.70600
Cl	Cl	0.75000 0.25000 0.50000 -0.67200
Cl	Cl	0.75000 0.25000 -0.00000 -0.70500
Cl	Cl	0.75000 0.75000 0.50000 -0.67300
Cl	Cl	-0.00000 0.25000 0.25000 -0.70400
Cl	Cl	0.50000 0.25000 0.75000 -0.67200
Cl	Cl	-0.00000 0.25000 0.75000 -0.70500
Cl	Cl	0.50000 0.25000 0.25000 -0.67100
Cl	Cl	-0.00000 0.75000 0.75000 -0.70600
Cl	Cl	0.50000 0.75000 0.25000 -0.67200
Cl	Cl	-0.00000 0.75000 0.25000 -0.70500
Cl	Cl	0.50000 0.75000 0.75000 -0.67300
Cu	Cu	0.16761 0.00000 0.24967 0.94000
Cu	Cu	0.16761 0.50000 0.74967 0.96100
Cu	Cu	0.66761 -0.00000 0.74967 0.94000
Cu	Cu	0.66761 0.50000 0.24967 0.96200
Cu	Cu	0.83239 0.00000 0.24967 0.94100
Cu	Cu	0.83239 0.50000 0.74967 0.96200
Cu	Cu	0.33239 -0.00000 0.74967 0.94100
Cu	Cu	0.33239 0.50000 0.24967 0.96200
Cu	Cu	0.83239 0.00000 0.75033 0.94100
Cu	Cu	0.83239 0.50000 0.25033 0.96200
Cu	Cu	0.33239 -0.00000 0.25033 0.94100
Cu	Cu	0.33239 0.50000 0.75033 0.96200
Cu	Cu	0.16761 0.00000 0.75033 0.94000
Cu	Cu	0.16761 0.50000 0.25033 0.96100
Cu	Cu	0.66761 -0.00000 0.25033 0.94000
Cu	Cu	0.66761 0.50000 0.75033 0.96200
Cu	Cu	0.24967 0.16761 -0.00000 0.94000
Cu	Cu	0.24967 0.66761 0.50000 0.96200
Cu	Cu	0.74967 0.16761 0.50000 0.96100
Cu	Cu	0.74967 0.66761 -0.00000 0.94000
Cu	Cu	0.24967 0.83239 -0.00000 0.94100
Cu	Cu	0.24967 0.33239 0.50000 0.96200
Cu	Cu	0.74967 0.83239 0.50000 0.96200
Cu	Cu	0.74967 0.33239 -0.00000 0.94100
Cu	Cu	0.75033 0.83239 -0.00000 0.94100
Cu	Cu	0.75033 0.33239 0.50000 0.96200
Cu	Cu	0.25033 0.83239 0.50000 0.96200
Cu	Cu	0.25033 0.33239 -0.00000 0.94100
Cu	Cu	0.75033 0.16761 -0.00000 0.94000
Cu	Cu	0.75033 0.66761 0.50000 0.96200
Cu	Cu	0.25033 0.16761 0.50000 0.96100
Cu	Cu	0.25033 0.66761 -0.00000 0.94000
Cu	Cu	-0.00000 0.24967 0.16761 0.94000
Cu	Cu	-0.00000 0.74967 0.66761 0.94000
Cu	Cu	0.50000 0.24967 0.66761 0.96200
Cu	Cu	0.50000 0.74967 0.16761 0.96100
Cu	Cu	-0.00000 0.24967 0.83239 0.94100
Cu	Cu	-0.00000 0.74967 0.33239 0.94100
Cu	Cu	0.50000 0.24967 0.33239 0.96200
Cu	Cu	0.50000 0.74967 0.83239 0.96200
Cu	Cu	0.00000 0.75033 0.83239 0.94100
Cu	Cu	-0.00000 0.25033 0.33239 0.94100
Cu	Cu	0.50000 0.75033 0.33239 0.96200
Cu	Cu	0.50000 0.25033 0.83239 0.96200
Cu	Cu	-0.00000 0.75033 0.16761 0.94000
Cu	Cu	-0.00000 0.25033 0.66761 0.94000
Cu	Cu	0.50000 0.75033 0.66761 0.96200
Cu	Cu	0.50000 0.25033 0.16761 0.96100
Cu	Cu	-0.00000 0.16761 0.75033 0.94000
Cu	Cu	-0.00000 0.66761 0.25033 0.94000
Cu	Cu	0.50000 0.16761 0.25033 0.96100
Cu	Cu	0.50000 0.66761 0.75033 0.96200
Cu	Cu	0.00000 0.83239 0.75033 0.94100
Cu	Cu	-0.00000 0.33239 0.25033 0.94100
Cu	Cu	0.50000 0.83239 0.25033 0.96200
Cu	Cu	0.50000 0.33239 0.75033 0.96200
Cu	Cu	-0.00000 0.83239 0.24967 0.94100
Cu	Cu	-0.00000 0.33239 0.74967 0.94100
Cu	Cu	0.50000 0.83239 0.74967 0.96200
Cu	Cu	0.50000 0.33239 0.24967 0.96200
Cu	Cu	-0.00000 0.16761 0.24967 0.94000
Cu	Cu	-0.00000 0.66761 0.74967 0.94000
Cu	Cu	0.50000 0.16761 0.74967 0.96100
Cu	Cu	0.50000 0.66761 0.24967 0.96200
Cu	Cu	0.16761 0.24967 -0.00000 0.94000
Cu	Cu	0.16761 0.74967 0.50000 0.96100
Cu	Cu	0.66761 0.24967 0.50000 0.96200
Cu	Cu	0.66761 0.74967 -0.00000 0.94000
Cu	Cu	0.83239 0.24967 -0.00000 0.94100
Cu	Cu	0.83239 0.74967 0.50000 0.96200
Cu	Cu	0.33239 0.24967 0.50000 0.96200
Cu	Cu	0.33239 0.74967 -0.00000 0.94100
Cu	Cu	0.83239 0.75033 -0.00000 0.94100
Cu	Cu	0.83239 0.25033 0.50000 0.96200
Cu	Cu	0.33239 0.75033 0.50000 0.96200
Cu	Cu	0.33239 0.25033 -0.00000 0.94100
Cu	Cu	0.16761 0.75033 -0.00000 0.94000
Cu	Cu	0.16761 0.25033 0.50000 0.96100
Cu	Cu	0.66761 0.75033 0.50000 0.96200
Cu	Cu	0.66761 0.25033 -0.00000 0.94000
Cu	Cu	0.24967 0.00000 0.83239 0.94100
Cu	Cu	0.24967 0.50000 0.33239 0.96200
Cu	Cu	0.74967 -0.00000 0.33239 0.94100
Cu	Cu	0.74967 0.50000 0.83239 0.96200
Cu	Cu	0.24967 -0.00000 0.16761 0.94000
Cu	Cu	0.24967 0.50000 0.66761 0.96200
Cu	Cu	0.74967 -0.00000 0.66761 0.94000
Cu	Cu	0.74967 0.50000 0.16761 0.96100
Cu	Cu	0.75033 -0.00000 0.16761 0.94000
Cu	Cu	0.75033 0.50000 0.66761 0.96200
Cu	Cu	0.25033 -0.00000 0.66761 0.94000
Cu	Cu	0.25033 0.50000 0.16761 0.96100
Cu	Cu	0.75033 0.00000 0.83239 0.94100
Cu	Cu	0.75033 0.50000 0.33239 0.96200
Cu	Cu	0.25033 -0.00000 0.33239 0.94100
Cu	Cu	0.25033 0.50000 0.83239 0.96200
C 	C 	0.17338 0.05822 0.32662 0.40000
C 	C 	0.15235 0.09690 0.34765 -0.13400
C 	C 	0.17338 0.55822 0.82662 0.39900
C 	C 	0.15235 0.59690 0.84765 -0.12300
C 	C 	0.82662 0.94178 0.32662 0.39500
C 	C 	0.84765 0.90310 0.34765 -0.11000
C 	C 	0.82662 0.44178 0.82662 0.39800
C 	C 	0.84765 0.40310 0.84765 -0.11500
C 	C 	0.32662 0.44178 0.32662 0.40000
C 	C 	0.34765 0.40310 0.34765 -0.12500
C 	C 	0.82662 0.05822 0.67338 0.39800
C 	C 	0.84765 0.09690 0.65235 -0.12600
C 	C 	0.82662 0.55822 0.17338 0.39900
C 	C 	0.84765 0.59690 0.15235 -0.12300
C 	C 	0.32662 0.05822 0.17338 0.40000
C 	C 	0.34765 0.09690 0.15235 -0.13400
C 	C 	0.17338 0.94178 0.67338 0.39600
C 	C 	0.15235 0.90310 0.65235 -0.11900
C 	C 	0.17338 0.44178 0.17338 0.40000
C 	C 	0.15235 0.40310 0.15235 -0.13200
C 	C 	0.32662 0.17338 0.05822 0.40000
C 	C 	0.34765 0.15235 0.09690 -0.13400
C 	C 	0.32662 0.67338 0.55822 0.40000
C 	C 	0.34765 0.65235 0.59690 -0.12500
C 	C 	0.32662 0.82662 0.94178 0.39500
C 	C 	0.34765 0.84765 0.90310 -0.11000
C 	C 	0.32662 0.32662 0.44178 0.40000
C 	C 	0.34765 0.34765 0.40310 -0.12500
C 	C 	0.67338 0.82662 0.05822 0.39800
C 	C 	0.65235 0.84765 0.09690 -0.12600
C 	C 	0.67338 0.32662 0.55822 0.40000
C 	C 	0.65235 0.34765 0.59690 -0.12500
C 	C 	0.17338 0.32662 0.05822 0.40000
C 	C 	0.15235 0.34765 0.09690 -0.13400
C 	C 	0.67338 0.17338 0.94178 0.39600
C 	C 	0.65235 0.15235 0.90310 -0.11900
C 	C 	0.67338 0.67338 0.44178 0.39900
C 	C 	0.65235 0.65235 0.40310 -0.12500
C 	C 	0.17338 0.17338 0.44178 0.40000
C 	C 	0.15235 0.15235 0.40310 -0.13200
C 	C 	0.05822 0.32662 0.17338 0.40000
C 	C 	0.09690 0.34765 0.15235 -0.13400
C 	C 	0.55822 0.32662 0.67338 0.40000
C 	C 	0.59690 0.34765 0.65235 -0.12500
C 	C 	0.94178 0.32662 0.82662 0.39500
C 	C 	0.90310 0.34765 0.84765 -0.11000
C 	C 	0.44178 0.32662 0.32662 0.40000
C 	C 	0.40310 0.34765 0.34765 -0.12500
C 	C 	0.05822 0.67338 0.82662 0.39800
C 	C 	0.09690 0.65235 0.84765 -0.12600
C 	C 	0.05822 0.17338 0.32662 0.40000
C 	C 	0.09690 0.15235 0.34765 -0.13400
C 	C 	0.55822 0.67338 0.32662 0.40000
C 	C 	0.59690 0.65235 0.34765 -0.12500
C 	C 	0.94178 0.67338 0.17338 0.39600
C 	C 	0.90310 0.65235 0.15235 -0.11900
C 	C 	0.44178 0.67338 0.67338 0.39900
C 	C 	0.40310 0.65235 0.65235 -0.12500
C 	C 	0.44178 0.17338 0.17338 0.40000
C 	C 	0.40310 0.15235 0.15235 -0.13200
C 	C 	0.05822 0.17338 0.67338 0.39900
C 	C 	0.09690 0.15235 0.65235 -0.13400
C 	C 	0.55822 0.17338 0.17338 0.40000
C 	C 	0.59690 0.15235 0.15235 -0.13200
C 	C 	0.94178 0.82662 0.67338 0.39500
C 	C 	0.90310 0.84765 0.65235 -0.11000
C 	C 	0.94178 0.32662 0.17338 0.39600
C 	C 	0.90310 0.34765 0.15235 -0.11900
C 	C 	0.44178 0.82662 0.17338 0.39900
C 	C 	0.40310 0.84765 0.15235 -0.12300
C 	C 	0.05822 0.82662 0.32662 0.39900
C 	C 	0.09690 0.84765 0.34765 -0.12600
C 	C 	0.55822 0.82662 0.82662 0.39800
C 	C 	0.59690 0.84765 0.84765 -0.11500
C 	C 	0.55822 0.32662 0.32662 0.40000
C 	C 	0.59690 0.34765 0.34765 -0.12500
C 	C 	0.94178 0.17338 0.32662 0.39600
C 	C 	0.90310 0.15235 0.34765 -0.11900
C 	C 	0.44178 0.17338 0.82662 0.39900
C 	C 	0.40310 0.15235 0.84765 -0.12300
C 	C 	0.17338 0.32662 0.94178 0.39600
C 	C 	0.15235 0.34765 0.90310 -0.11900
C 	C 	0.17338 0.82662 0.44178 0.39900
C 	C 	0.15235 0.84765 0.40310 -0.12300
C 	C 	0.82662 0.32662 0.05822 0.39900
C 	C 	0.84765 0.34765 0.09690 -0.12600
C 	C 	0.82662 0.82662 0.55822 0.39800
C 	C 	0.84765 0.84765 0.59690 -0.11500
C 	C 	0.32662 0.32662 0.55822 0.40000
C 	C 	0.34765 0.34765 0.59690 -0.12500
C 	C 	0.82662 0.67338 0.94178 0.39500
C 	C 	0.84765 0.65235 0.90310 -0.11000
C 	C 	0.82662 0.17338 0.44178 0.39900
C 	C 	0.84765 0.15235 0.40310 -0.12300
C 	C 	0.32662 0.17338 0.94178 0.39600
C 	C 	0.34765 0.15235 0.90310 -0.11900
C 	C 	0.17338 0.67338 0.05822 0.39900
C 	C 	0.15235 0.65235 0.09690 -0.13400
C 	C 	0.17338 0.17338 0.55822 0.40000
C 	C 	0.15235 0.15235 0.59690 -0.13200
C 	C 	0.32662 0.05822 0.82662 0.39900
C 	C 	0.34765 0.09690 0.84765 -0.12600
C 	C 	0.32662 0.55822 0.32662 0.40000
C 	C 	0.34765 0.59690 0.34765 -0.12500
C 	C 	0.32662 0.94178 0.17338 0.39600
C 	C 	0.34765 0.90310 0.15235 -0.11900
C 	C 	0.32662 0.44178 0.67338 0.40000
C 	C 	0.34765 0.40310 0.65235 -0.12500
C 	C 	0.67338 0.05822 0.17338 0.39900
C 	C 	0.65235 0.09690 0.15235 -0.13400
C 	C 	0.67338 0.55822 0.67338 0.39900
C 	C 	0.65235 0.59690 0.65235 -0.12500
C 	C 	0.17338 0.55822 0.17338 0.40000
C 	C 	0.15235 0.59690 0.15235 -0.13200
C 	C 	0.67338 0.94178 0.82662 0.39500
C 	C 	0.65235 0.90310 0.84765 -0.11000
C 	C 	0.67338 0.44178 0.32662 0.40000
C 	C 	0.65235 0.40310 0.34765 -0.12500
C 	C 	0.17338 0.94178 0.32662 0.39600
C 	C 	0.15235 0.90310 0.34765 -0.11900
C 	C 	0.82662 0.94178 0.67338 0.39500
C 	C 	0.84765 0.90310 0.65235 -0.11000
C 	C 	0.82662 0.44178 0.17338 0.39900
C 	C 	0.84765 0.40310 0.15235 -0.12300
C 	C 	0.17338 0.05822 0.67338 0.39900
C 	C 	0.15235 0.09690 0.65235 -0.13400
C 	C 	0.17338 0.44178 0.82662 0.39900
C 	C 	0.15235 0.40310 0.84765 -0.12300
C 	C 	0.82662 0.05822 0.32662 0.39900
C 	C 	0.84765 0.09690 0.34765 -0.12600
C 	C 	0.82662 0.55822 0.82662 0.39800
C 	C 	0.84765 0.59690 0.84765 -0.11500
C 	C 	0.67338 0.82662 0.94178 0.39500
C 	C 	0.65235 0.84765 0.90310 -0.11000
C 	C 	0.67338 0.32662 0.44178 0.40000
C 	C 	0.65235 0.34765 0.40310 -0.12500
C 	C 	0.67338 0.17338 0.05822 0.39900
C 	C 	0.65235 0.15235 0.09690 -0.13400
C 	C 	0.67338 0.67338 0.55822 0.39900
C 	C 	0.65235 0.65235 0.59690 -0.12500
C 	C 	0.32662 0.67338 0.44178 0.40000
C 	C 	0.34765 0.65235 0.40310 -0.12500
C 	C 	0.32662 0.82662 0.05822 0.39900
C 	C 	0.34765 0.84765 0.09690 -0.12600
C 	C 	0.94178 0.67338 0.82662 0.39500
C 	C 	0.90310 0.65235 0.84765 -0.11000
C 	C 	0.44178 0.67338 0.32662 0.40000
C 	C 	0.40310 0.65235 0.34765 -0.12500
C 	C 	0.05822 0.67338 0.17338 0.39900
C 	C 	0.09690 0.65235 0.15235 -0.13400
C 	C 	0.55822 0.67338 0.67338 0.39900
C 	C 	0.59690 0.65235 0.65235 -0.12500
C 	C 	0.44178 0.32662 0.67338 0.40000
C 	C 	0.40310 0.34765 0.65235 -0.12500
C 	C 	0.05822 0.32662 0.82662 0.39900
C 	C 	0.09690 0.34765 0.84765 -0.12600
C 	C 	0.94178 0.82662 0.32662 0.39500
C 	C 	0.90310 0.84765 0.34765 -0.11000
C 	C 	0.44178 0.82662 0.82662 0.39800
C 	C 	0.40310 0.84765 0.84765 -0.11500
C 	C 	0.55822 0.17338 0.82662 0.39900
C 	C 	0.59690 0.15235 0.84765 -0.12300
C 	C 	0.94178 0.17338 0.67338 0.39600
C 	C 	0.90310 0.15235 0.65235 -0.11900
C 	C 	0.05822 0.82662 0.67338 0.39800
C 	C 	0.09690 0.84765 0.65235 -0.12600
C 	C 	0.55822 0.82662 0.17338 0.39900
C 	C 	0.59690 0.84765 0.15235 -0.12300
C 	C 	0.82662 0.67338 0.05822 0.39800
C 	C 	0.84765 0.65235 0.09690 -0.12600
C 	C 	0.82662 0.17338 0.55822 0.39900
C 	C 	0.84765 0.15235 0.59690 -0.12300
C 	C 	0.17338 0.67338 0.94178 0.39600
C 	C 	0.15235 0.65235 0.90310 -0.11900
C 	C 	0.17338 0.82662 0.55822 0.39900
C 	C 	0.15235 0.84765 0.59690 -0.12300
C 	C 	0.82662 0.32662 0.94178 0.39500
C 	C 	0.84765 0.34765 0.90310 -0.11000
C 	C 	0.82662 0.82662 0.44178 0.39800
C 	C 	0.84765 0.84765 0.40310 -0.11500
C 	C 	0.67338 0.94178 0.17338 0.39600
C 	C 	0.65235 0.90310 0.15235 -0.11900
C 	C 	0.67338 0.44178 0.67338 0.39900
C 	C 	0.65235 0.40310 0.65235 -0.12500
C 	C 	0.67338 0.05822 0.82662 0.39800
C 	C 	0.65235 0.09690 0.84765 -0.12600
C 	C 	0.67338 0.55822 0.32662 0.40000
C 	C 	0.65235 0.59690 0.34765 -0.12500
C 	C 	0.32662 0.94178 0.82662 0.39500
C 	C 	0.34765 0.90310 0.84765 -0.11000
C 	C 	0.32662 0.55822 0.67338 0.40000
C 	C 	0.34765 0.59690 0.65235 -0.12500
C 	C 	0.11513 0.11513 0.32949 0.07400
H 	H 	0.10270 0.10270 0.30500 0.03600
C 	C 	0.11513 0.61513 0.82949 0.07000
H 	H 	0.10270 0.60270 0.80500 0.04200
C 	C 	0.61513 0.11513 0.82949 0.07000
H 	H 	0.60270 0.10270 0.80500 0.04200
C 	C 	0.61513 0.61513 0.32949 0.07100
H 	H 	0.60270 0.60270 0.30500 0.04400
C 	C 	0.88487 0.88487 0.32949 0.06400
H 	H 	0.89730 0.89730 0.30500 0.05500
C 	C 	0.88487 0.38487 0.82949 0.06500
H 	H 	0.89730 0.39730 0.80500 0.05100
C 	C 	0.38487 0.88487 0.82949 0.06500
H 	H 	0.39730 0.89730 0.80500 0.05100
C 	C 	0.38487 0.38487 0.32949 0.07100
H 	H 	0.39730 0.39730 0.30500 0.04500
C 	C 	0.88487 0.11513 0.67051 0.06900
H 	H 	0.89730 0.10270 0.69500 0.04600
C 	C 	0.88487 0.61513 0.17051 0.06900
H 	H 	0.89730 0.60270 0.19500 0.04900
C 	C 	0.38487 0.11513 0.17051 0.07400
H 	H 	0.39730 0.10270 0.19500 0.03900
C 	C 	0.38487 0.61513 0.67051 0.07100
H 	H 	0.39730 0.60270 0.69500 0.04500
C 	C 	0.11513 0.88487 0.67051 0.06900
H 	H 	0.10270 0.89730 0.69500 0.04600
C 	C 	0.11513 0.38487 0.17051 0.07400
H 	H 	0.10270 0.39730 0.19500 0.03900
C 	C 	0.61513 0.88487 0.17051 0.06900
H 	H 	0.60270 0.89730 0.19500 0.04900
C 	C 	0.61513 0.38487 0.67051 0.07100
H 	H 	0.60270 0.39730 0.69500 0.04500
C 	C 	0.32949 0.11513 0.11513 0.07400
H 	H 	0.30500 0.10270 0.10270 0.03600
C 	C 	0.32949 0.61513 0.61513 0.07100
H 	H 	0.30500 0.60270 0.60270 0.04400
C 	C 	0.82949 0.11513 0.61513 0.07000
H 	H 	0.80500 0.10270 0.60270 0.04200
C 	C 	0.82949 0.61513 0.11513 0.07000
H 	H 	0.80500 0.60270 0.10270 0.04200
C 	C 	0.32949 0.88487 0.88487 0.06400
H 	H 	0.30500 0.89730 0.89730 0.05500
C 	C 	0.32949 0.38487 0.38487 0.07100
H 	H 	0.30500 0.39730 0.39730 0.04500
C 	C 	0.82949 0.88487 0.38487 0.06500
H 	H 	0.80500 0.89730 0.39730 0.05100
C 	C 	0.82949 0.38487 0.88487 0.06500
H 	H 	0.80500 0.39730 0.89730 0.05100
C 	C 	0.67051 0.88487 0.11513 0.06900
H 	H 	0.69500 0.89730 0.10270 0.04600
C 	C 	0.67051 0.38487 0.61513 0.07100
H 	H 	0.69500 0.39730 0.60270 0.04500
C 	C 	0.17051 0.88487 0.61513 0.06900
H 	H 	0.19500 0.89730 0.60270 0.04900
C 	C 	0.17051 0.38487 0.11513 0.07400
H 	H 	0.19500 0.39730 0.10270 0.03900
C 	C 	0.67051 0.11513 0.88487 0.06900
H 	H 	0.69500 0.10270 0.89730 0.04600
C 	C 	0.67051 0.61513 0.38487 0.07100
H 	H 	0.69500 0.60270 0.39730 0.04500
C 	C 	0.17051 0.11513 0.38487 0.07400
H 	H 	0.19500 0.10270 0.39730 0.03900
C 	C 	0.17051 0.61513 0.88487 0.06900
H 	H 	0.19500 0.60270 0.89730 0.04900
C 	C 	0.11513 0.32949 0.11513 0.07400
H 	H 	0.10270 0.30500 0.10270 0.03600
C 	C 	0.11513 0.82949 0.61513 0.07000
H 	H 	0.10270 0.80500 0.60270 0.04200
C 	C 	0.61513 0.32949 0.61513 0.07100
H 	H 	0.60270 0.30500 0.60270 0.04400
C 	C 	0.61513 0.82949 0.11513 0.07000
H 	H 	0.60270 0.80500 0.10270 0.04200
C 	C 	0.88487 0.32949 0.88487 0.06400
H 	H 	0.89730 0.30500 0.89730 0.05500
C 	C 	0.88487 0.82949 0.38487 0.06500
H 	H 	0.89730 0.80500 0.39730 0.05100
C 	C 	0.38487 0.32949 0.38487 0.07100
H 	H 	0.39730 0.30500 0.39730 0.04500
C 	C 	0.38487 0.82949 0.88487 0.06500
H 	H 	0.39730 0.80500 0.89730 0.05100
C 	C 	0.11513 0.67051 0.88487 0.06900
H 	H 	0.10270 0.69500 0.89730 0.04600
C 	C 	0.11513 0.17051 0.38487 0.07400
H 	H 	0.10270 0.19500 0.39730 0.03900
C 	C 	0.61513 0.67051 0.38487 0.07100
H 	H 	0.60270 0.69500 0.39730 0.04500
C 	C 	0.61513 0.17051 0.88487 0.06900
H 	H 	0.60270 0.19500 0.89730 0.04900
C 	C 	0.88487 0.67051 0.11513 0.06900
H 	H 	0.89730 0.69500 0.10270 0.04600
C 	C 	0.88487 0.17051 0.61513 0.06900
H 	H 	0.89730 0.19500 0.60270 0.04900
C 	C 	0.38487 0.67051 0.61513 0.07100
H 	H 	0.39730 0.69500 0.60270 0.04500
C 	C 	0.38487 0.17051 0.11513 0.07400
H 	H 	0.39730 0.19500 0.10270 0.03900
C 	C 	0.11513 0.11513 0.67051 0.07400
H 	H 	0.10270 0.10270 0.69500 0.03600
C 	C 	0.11513 0.61513 0.17051 0.07400
H 	H 	0.10270 0.60270 0.19500 0.03900
C 	C 	0.61513 0.11513 0.17051 0.07400
H 	H 	0.60270 0.10270 0.19500 0.03900
C 	C 	0.61513 0.61513 0.67051 0.07000
H 	H 	0.60270 0.60270 0.69500 0.04500
C 	C 	0.88487 0.88487 0.67051 0.06400
H 	H 	0.89730 0.89730 0.69500 0.05500
C 	C 	0.88487 0.38487 0.17051 0.06900
H 	H 	0.89730 0.39730 0.19500 0.04900
C 	C 	0.38487 0.88487 0.17051 0.06900
H 	H 	0.39730 0.89730 0.19500 0.04900
C 	C 	0.38487 0.38487 0.67051 0.07100
H 	H 	0.39730 0.39730 0.69500 0.04500
C 	C 	0.11513 0.88487 0.32949 0.06900
H 	H 	0.10270 0.89730 0.30500 0.04500
C 	C 	0.11513 0.38487 0.82949 0.07000
H 	H 	0.10270 0.39730 0.80500 0.04200
C 	C 	0.61513 0.88487 0.82949 0.06500
H 	H 	0.60270 0.89730 0.80500 0.05100
C 	C 	0.61513 0.38487 0.32949 0.07100
H 	H 	0.60270 0.39730 0.30500 0.04400
C 	C 	0.88487 0.11513 0.32949 0.06900
H 	H 	0.89730 0.10270 0.30500 0.04500
C 	C 	0.88487 0.61513 0.82949 0.06500
H 	H 	0.89730 0.60270 0.80500 0.05100
C 	C 	0.38487 0.11513 0.82949 0.07000
H 	H 	0.39730 0.10270 0.80500 0.04200
C 	C 	0.38487 0.61513 0.32949 0.07100
H 	H 	0.39730 0.60270 0.30500 0.04400
C 	C 	0.11513 0.32949 0.88487 0.06900
H 	H 	0.10270 0.30500 0.89730 0.04500
C 	C 	0.11513 0.82949 0.38487 0.07000
H 	H 	0.10270 0.80500 0.39730 0.04200
C 	C 	0.61513 0.32949 0.38487 0.07100
H 	H 	0.60270 0.30500 0.39730 0.04400
C 	C 	0.61513 0.82949 0.88487 0.06500
H 	H 	0.60270 0.80500 0.89730 0.05100
C 	C 	0.88487 0.32949 0.11513 0.06900
H 	H 	0.89730 0.30500 0.10270 0.04500
C 	C 	0.88487 0.82949 0.61513 0.06500
H 	H 	0.89730 0.80500 0.60270 0.05100
C 	C 	0.38487 0.32949 0.61513 0.07100
H 	H 	0.39730 0.30500 0.60270 0.04400
C 	C 	0.38487 0.82949 0.11513 0.07000
H 	H 	0.39730 0.80500 0.10270 0.04200
C 	C 	0.88487 0.67051 0.88487 0.06400
H 	H 	0.89730 0.69500 0.89730 0.05500
C 	C 	0.88487 0.17051 0.38487 0.06900
H 	H 	0.89730 0.19500 0.39730 0.04900
C 	C 	0.38487 0.67051 0.38487 0.07100
H 	H 	0.39730 0.69500 0.39730 0.04500
C 	C 	0.38487 0.17051 0.88487 0.06900
H 	H 	0.39730 0.19500 0.89730 0.04900
C 	C 	0.11513 0.67051 0.11513 0.07400
H 	H 	0.10270 0.69500 0.10270 0.03600
C 	C 	0.11513 0.17051 0.61513 0.07400
H 	H 	0.10270 0.19500 0.60270 0.03900
C 	C 	0.61513 0.67051 0.61513 0.07000
H 	H 	0.60270 0.69500 0.60270 0.04500
C 	C 	0.61513 0.17051 0.11513 0.07400
H 	H 	0.60270 0.19500 0.10270 0.03900
C 	C 	0.32949 0.11513 0.88487 0.06900
H 	H 	0.30500 0.10270 0.89730 0.04500
C 	C 	0.32949 0.61513 0.38487 0.07100
H 	H 	0.30500 0.60270 0.39730 0.04400
C 	C 	0.82949 0.11513 0.38487 0.07000
H 	H 	0.80500 0.10270 0.39730 0.04200
C 	C 	0.82949 0.61513 0.88487 0.06500
H 	H 	0.80500 0.60270 0.89730 0.05100
C 	C 	0.32949 0.88487 0.11513 0.06900
H 	H 	0.30500 0.89730 0.10270 0.04500
C 	C 	0.32949 0.38487 0.61513 0.07100
H 	H 	0.30500 0.39730 0.60270 0.04400
C 	C 	0.82949 0.88487 0.61513 0.06500
H 	H 	0.80500 0.89730 0.60270 0.05100
C 	C 	0.82949 0.38487 0.11513 0.07000
H 	H 	0.80500 0.39730 0.10270 0.04200
C 	C 	0.67051 0.11513 0.11513 0.07400
H 	H 	0.69500 0.10270 0.10270 0.03600
C 	C 	0.67051 0.61513 0.61513 0.07000
H 	H 	0.69500 0.60270 0.60270 0.04500
C 	C 	0.17051 0.11513 0.61513 0.07400
H 	H 	0.19500 0.10270 0.60270 0.03900
C 	C 	0.17051 0.61513 0.11513 0.07400
H 	H 	0.19500 0.60270 0.10270 0.03900
C 	C 	0.67051 0.88487 0.88487 0.06400
H 	H 	0.69500 0.89730 0.89730 0.05500
C 	C 	0.67051 0.38487 0.38487 0.07100
H 	H 	0.69500 0.39730 0.39730 0.04500
C 	C 	0.17051 0.88487 0.38487 0.06900
H 	H 	0.19500 0.89730 0.39730 0.04900
C 	C 	0.17051 0.38487 0.88487 0.06900
H 	H 	0.19500 0.39730 0.89730 0.04900
C 	C 	0.17321 0.94126 0.17321 0.39300
C 	C 	0.15185 0.90340 0.15185 -0.12800
C 	C 	0.17321 0.44126 0.67321 0.39600
C 	C 	0.15185 0.40340 0.65185 -0.13400
C 	C 	0.67321 0.94126 0.67321 0.39100
C 	C 	0.65185 0.90340 0.65185 -0.12000
C 	C 	0.67321 0.44126 0.17321 0.39600
C 	C 	0.65185 0.40340 0.15185 -0.13400
C 	C 	0.82679 0.05874 0.17321 0.39500
C 	C 	0.84815 0.09660 0.15185 -0.13600
C 	C 	0.82679 0.55874 0.67321 0.39500
C 	C 	0.84815 0.59660 0.65185 -0.12500
C 	C 	0.32679 0.05874 0.67321 0.39500
C 	C 	0.34815 0.09660 0.65185 -0.13700
C 	C 	0.32679 0.55874 0.17321 0.39600
C 	C 	0.34815 0.59660 0.15185 -0.13400
C 	C 	0.82679 0.94126 0.82679 0.39000
C 	C 	0.84815 0.90340 0.84815 -0.11000
C 	C 	0.82679 0.44126 0.32679 0.39500
C 	C 	0.84815 0.40340 0.34815 -0.12500
C 	C 	0.32679 0.94126 0.32679 0.39200
C 	C 	0.34815 0.90340 0.34815 -0.12000
C 	C 	0.32679 0.44126 0.82679 0.39500
C 	C 	0.34815 0.40340 0.84815 -0.12500
C 	C 	0.17321 0.05874 0.82679 0.39500
C 	C 	0.15185 0.09660 0.84815 -0.13600
C 	C 	0.17321 0.55874 0.32679 0.39600
C 	C 	0.15185 0.59660 0.34815 -0.13400
C 	C 	0.67321 0.05874 0.32679 0.39500
C 	C 	0.65185 0.09660 0.34815 -0.13700
C 	C 	0.67321 0.55874 0.82679 0.39500
C 	C 	0.65185 0.59660 0.84815 -0.12500
C 	C 	0.17321 0.17321 0.94126 0.39300
C 	C 	0.15185 0.15185 0.90340 -0.12800
C 	C 	0.17321 0.67321 0.44126 0.39600
C 	C 	0.15185 0.65185 0.40340 -0.13400
C 	C 	0.67321 0.17321 0.44126 0.39600
C 	C 	0.65185 0.15185 0.40340 -0.13400
C 	C 	0.67321 0.67321 0.94126 0.39100
C 	C 	0.65185 0.65185 0.90340 -0.12000
C 	C 	0.17321 0.82679 0.05874 0.39500
C 	C 	0.15185 0.84815 0.09660 -0.13600
C 	C 	0.17321 0.32679 0.55874 0.39600
C 	C 	0.15185 0.34815 0.59660 -0.13400
C 	C 	0.67321 0.82679 0.55874 0.39500
C 	C 	0.65185 0.84815 0.59660 -0.12500
C 	C 	0.67321 0.32679 0.05874 0.39500
C 	C 	0.65185 0.34815 0.09660 -0.13700
C 	C 	0.82679 0.82679 0.94126 0.39000
C 	C 	0.84815 0.84815 0.90340 -0.11000
C 	C 	0.82679 0.32679 0.44126 0.39500
C 	C 	0.84815 0.34815 0.40340 -0.12500
C 	C 	0.32679 0.82679 0.44126 0.39500
C 	C 	0.34815 0.84815 0.40340 -0.12500
C 	C 	0.32679 0.32679 0.94126 0.39200
C 	C 	0.34815 0.34815 0.90340 -0.12000
C 	C 	0.82679 0.17321 0.05874 0.39500
C 	C 	0.84815 0.15185 0.09660 -0.13600
C 	C 	0.82679 0.67321 0.55874 0.39500
C 	C 	0.84815 0.65185 0.59660 -0.12500
C 	C 	0.32679 0.17321 0.55874 0.39600
C 	C 	0.34815 0.15185 0.59660 -0.13400
C 	C 	0.32679 0.67321 0.05874 0.39500
C 	C 	0.34815 0.65185 0.09660 -0.13700
C 	C 	0.94126 0.17321 0.17321 0.39300
C 	C 	0.90340 0.15185 0.15185 -0.12800
C 	C 	0.94126 0.67321 0.67321 0.39100
C 	C 	0.90340 0.65185 0.65185 -0.12000
C 	C 	0.44126 0.17321 0.67321 0.39600
C 	C 	0.40340 0.15185 0.65185 -0.13400
C 	C 	0.44126 0.67321 0.17321 0.39600
C 	C 	0.40340 0.65185 0.15185 -0.13400
C 	C 	0.05874 0.17321 0.82679 0.39500
C 	C 	0.09660 0.15185 0.84815 -0.13600
C 	C 	0.05874 0.67321 0.32679 0.39500
C 	C 	0.09660 0.65185 0.34815 -0.13700
C 	C 	0.55874 0.17321 0.32679 0.39600
C 	C 	0.59660 0.15185 0.34815 -0.13400
C 	C 	0.55874 0.67321 0.82679 0.39500
C 	C 	0.59660 0.65185 0.84815 -0.12500
C 	C 	0.94126 0.82679 0.82679 0.39000
C 	C 	0.90340 0.84815 0.84815 -0.11000
C 	C 	0.94126 0.32679 0.32679 0.39200
C 	C 	0.90340 0.34815 0.34815 -0.12000
C 	C 	0.44126 0.82679 0.32679 0.39500
C 	C 	0.40340 0.84815 0.34815 -0.12500
C 	C 	0.44126 0.32679 0.82679 0.39500
C 	C 	0.40340 0.34815 0.84815 -0.12500
C 	C 	0.05874 0.82679 0.17321 0.39500
C 	C 	0.09660 0.84815 0.15185 -0.13600
C 	C 	0.05874 0.32679 0.67321 0.39500
C 	C 	0.09660 0.34815 0.65185 -0.13700
C 	C 	0.55874 0.82679 0.67321 0.39500
C 	C 	0.59660 0.84815 0.65185 -0.12500
C 	C 	0.55874 0.32679 0.17321 0.39600
C 	C 	0.59660 0.34815 0.15185 -0.13400
C 	C 	0.94126 0.17321 0.82679 0.39100
C 	C 	0.90340 0.15185 0.84815 -0.11900
C 	C 	0.94126 0.67321 0.32679 0.39200
C 	C 	0.90340 0.65185 0.34815 -0.12000
C 	C 	0.44126 0.17321 0.32679 0.39700
C 	C 	0.40340 0.15185 0.34815 -0.13400
C 	C 	0.44126 0.67321 0.82679 0.39500
C 	C 	0.40340 0.65185 0.84815 -0.12500
C 	C 	0.05874 0.82679 0.82679 0.39400
C 	C 	0.09660 0.84815 0.84815 -0.12600
C 	C 	0.05874 0.32679 0.32679 0.39600
C 	C 	0.09660 0.34815 0.34815 -0.13700
C 	C 	0.55874 0.82679 0.32679 0.39500
C 	C 	0.59660 0.84815 0.34815 -0.12500
C 	C 	0.55874 0.32679 0.82679 0.39500
C 	C 	0.59660 0.34815 0.84815 -0.12500
C 	C 	0.94126 0.82679 0.17321 0.39100
C 	C 	0.90340 0.84815 0.15185 -0.11900
C 	C 	0.94126 0.32679 0.67321 0.39200
C 	C 	0.90340 0.34815 0.65185 -0.12000
C 	C 	0.44126 0.82679 0.67321 0.39500
C 	C 	0.40340 0.84815 0.65185 -0.12500
C 	C 	0.44126 0.32679 0.17321 0.39700
C 	C 	0.40340 0.34815 0.15185 -0.13400
C 	C 	0.05874 0.17321 0.17321 0.39600
C 	C 	0.09660 0.15185 0.15185 -0.14500
C 	C 	0.05874 0.67321 0.67321 0.39500
C 	C 	0.09660 0.65185 0.65185 -0.13700
C 	C 	0.55874 0.17321 0.67321 0.39600
C 	C 	0.59660 0.15185 0.65185 -0.13400
C 	C 	0.55874 0.67321 0.17321 0.39600
C 	C 	0.59660 0.65185 0.15185 -0.13400
C 	C 	0.17321 0.17321 0.05874 0.39600
C 	C 	0.15185 0.15185 0.09660 -0.14500
C 	C 	0.17321 0.67321 0.55874 0.39600
C 	C 	0.15185 0.65185 0.59660 -0.13400
C 	C 	0.67321 0.17321 0.55874 0.39600
C 	C 	0.65185 0.15185 0.59660 -0.13400
C 	C 	0.67321 0.67321 0.05874 0.39500
C 	C 	0.65185 0.65185 0.09660 -0.13700
C 	C 	0.82679 0.17321 0.94126 0.39100
C 	C 	0.84815 0.15185 0.90340 -0.11900
C 	C 	0.82679 0.67321 0.44126 0.39500
C 	C 	0.84815 0.65185 0.40340 -0.12500
C 	C 	0.32679 0.17321 0.44126 0.39700
C 	C 	0.34815 0.15185 0.40340 -0.13400
C 	C 	0.32679 0.67321 0.94126 0.39200
C 	C 	0.34815 0.65185 0.90340 -0.12000
C 	C 	0.82679 0.82679 0.05874 0.39400
C 	C 	0.84815 0.84815 0.09660 -0.12600
C 	C 	0.82679 0.32679 0.55874 0.39500
C 	C 	0.84815 0.34815 0.59660 -0.12500
C 	C 	0.32679 0.82679 0.55874 0.39500
C 	C 	0.34815 0.84815 0.59660 -0.12500
C 	C 	0.32679 0.32679 0.05874 0.39600
C 	C 	0.34815 0.34815 0.09660 -0.13700
C 	C 	0.17321 0.82679 0.94126 0.39100
C 	C 	0.15185 0.84815 0.90340 -0.11900
C 	C 	0.17321 0.32679 0.44126 0.39700
C 	C 	0.15185 0.34815 0.40340 -0.13400
C 	C 	0.67321 0.82679 0.44126 0.39500
C 	C 	0.65185 0.84815 0.40340 -0.12500
C 	C 	0.67321 0.32679 0.94126 0.39200
C 	C 	0.65185 0.34815 0.90340 -0.12000
C 	C 	0.17321 0.94126 0.82679 0.39100
C 	C 	0.15185 0.90340 0.84815 -0.11900
C 	C 	0.17321 0.44126 0.32679 0.39700
C 	C 	0.15185 0.40340 0.34815 -0.13400
C 	C 	0.67321 0.94126 0.32679 0.39200
C 	C 	0.65185 0.90340 0.34815 -0.12000
C 	C 	0.67321 0.44126 0.82679 0.39500
C 	C 	0.65185 0.40340 0.84815 -0.12500
C 	C 	0.17321 0.05874 0.17321 0.39600
C 	C 	0.15185 0.09660 0.15185 -0.14500
C 	C 	0.17321 0.55874 0.67321 0.39600
C 	C 	0.15185 0.59660 0.65185 -0.13400
C 	C 	0.67321 0.05874 0.67321 0.39500
C 	C 	0.65185 0.09660 0.65185 -0.13700
C 	C 	0.67321 0.55874 0.17321 0.39600
C 	C 	0.65185 0.59660 0.15185 -0.13400
C 	C 	0.82679 0.94126 0.17321 0.39100
C 	C 	0.84815 0.90340 0.15185 -0.11900
C 	C 	0.82679 0.44126 0.67321 0.39500
C 	C 	0.84815 0.40340 0.65185 -0.12500
C 	C 	0.32679 0.94126 0.67321 0.39200
C 	C 	0.34815 0.90340 0.65185 -0.12000
C 	C 	0.32679 0.44126 0.17321 0.39700
C 	C 	0.34815 0.40340 0.15185 -0.13400
C 	C 	0.82679 0.05874 0.82679 0.39400
C 	C 	0.84815 0.09660 0.84815 -0.12600
C 	C 	0.82679 0.55874 0.32679 0.39500
C 	C 	0.84815 0.59660 0.34815 -0.12500
C 	C 	0.32679 0.05874 0.32679 0.39600
C 	C 	0.34815 0.09660 0.34815 -0.13700
C 	C 	0.32679 0.55874 0.82679 0.39500
C 	C 	0.34815 0.59660 0.84815 -0.12500
C 	C 	0.11503 0.88497 0.17040 0.07600
H 	H 	0.10290 0.89710 0.19500 0.04200
C 	C 	0.11503 0.38497 0.67040 0.07800
H 	H 	0.10290 0.39710 0.69500 0.03800
C 	C 	0.61503 0.88497 0.67040 0.07200
H 	H 	0.60290 0.89710 0.69500 0.04800
C 	C 	0.61503 0.38497 0.17040 0.07800
H 	H 	0.60290 0.39710 0.19500 0.04100
C 	C 	0.88497 0.11503 0.17040 0.07600
H 	H 	0.89710 0.10290 0.19500 0.04200
C 	C 	0.88497 0.61503 0.67040 0.07200
H 	H 	0.89710 0.60290 0.69500 0.04800
C 	C 	0.38497 0.11503 0.67040 0.07800
H 	H 	0.39710 0.10290 0.69500 0.03800
C 	C 	0.38497 0.61503 0.17040 0.07800
H 	H 	0.39710 0.60290 0.19500 0.04100
C 	C 	0.88497 0.88497 0.82960 0.06600
H 	H 	0.89710 0.89710 0.80500 0.05500
C 	C 	0.88497 0.38497 0.32960 0.07200
H 	H 	0.89710 0.39710 0.30500 0.04800
C 	C 	0.38497 0.88497 0.32960 0.07200
H 	H 	0.39710 0.89710 0.30500 0.04800
C 	C 	0.38497 0.38497 0.82960 0.07300
H 	H 	0.39710 0.39710 0.80500 0.04400
C 	C 	0.11503 0.11503 0.82960 0.07700
H 	H 	0.10290 0.10290 0.80500 0.03600
C 	C 	0.11503 0.61503 0.32960 0.07800
H 	H 	0.10290 0.60290 0.30500 0.03800
C 	C 	0.61503 0.11503 0.32960 0.07800
H 	H 	0.60290 0.10290 0.30500 0.03800
C 	C 	0.61503 0.61503 0.82960 0.07300
H 	H 	0.60290 0.60290 0.80500 0.04400
C 	C 	0.17040 0.11503 0.88497 0.07600
H 	H 	0.19500 0.10290 0.89710 0.04200
C 	C 	0.17040 0.61503 0.38497 0.07800
H 	H 	0.19500 0.60290 0.39710 0.04100
C 	C 	0.67040 0.11503 0.38497 0.07800
H 	H 	0.69500 0.10290 0.39710 0.03800
C 	C 	0.67040 0.61503 0.88497 0.07200
H 	H 	0.69500 0.60290 0.89710 0.04800
C 	C 	0.17040 0.88497 0.11503 0.07600
H 	H 	0.19500 0.89710 0.10290 0.04200
C 	C 	0.17040 0.38497 0.61503 0.07800
H 	H 	0.19500 0.39710 0.60290 0.04100
C 	C 	0.67040 0.88497 0.61503 0.07200
H 	H 	0.69500 0.89710 0.60290 0.04800
C 	C 	0.67040 0.38497 0.11503 0.07800
H 	H 	0.69500 0.39710 0.10290 0.03800
C 	C 	0.82960 0.88497 0.88497 0.06600
H 	H 	0.80500 0.89710 0.89710 0.05500
C 	C 	0.82960 0.38497 0.38497 0.07300
H 	H 	0.80500 0.39710 0.39710 0.04400
C 	C 	0.32960 0.88497 0.38497 0.07200
H 	H 	0.30500 0.89710 0.39710 0.04800
C 	C 	0.32960 0.38497 0.88497 0.07200
H 	H 	0.30500 0.39710 0.89710 0.04800
C 	C 	0.82960 0.11503 0.11503 0.07700
H 	H 	0.80500 0.10290 0.10290 0.03600
C 	C 	0.82960 0.61503 0.61503 0.07300
H 	H 	0.80500 0.60290 0.60290 0.04400
C 	C 	0.32960 0.11503 0.61503 0.07800
H 	H 	0.30500 0.10290 0.60290 0.03800
C 	C 	0.32960 0.61503 0.11503 0.07800
H 	H 	0.30500 0.60290 0.10290 0.03800
C 	C 	0.88497 0.17040 0.11503 0.07600
H 	H 	0.89710 0.19500 0.10290 0.04200
C 	C 	0.88497 0.67040 0.61503 0.07200
H 	H 	0.89710 0.69500 0.60290 0.04800
C 	C 	0.38497 0.17040 0.61503 0.07800
H 	H 	0.39710 0.19500 0.60290 0.04100
C 	C 	0.38497 0.67040 0.11503 0.07800
H 	H 	0.39710 0.69500 0.10290 0.03800
C 	C 	0.11503 0.17040 0.88497 0.07600
H 	H 	0.10290 0.19500 0.89710 0.04200
C 	C 	0.11503 0.67040 0.38497 0.07800
H 	H 	0.10290 0.69500 0.39710 0.03800
C 	C 	0.61503 0.17040 0.38497 0.07800
H 	H 	0.60290 0.19500 0.39710 0.04100
C 	C 	0.61503 0.67040 0.88497 0.07200
H 	H 	0.60290 0.69500 0.89710 0.04800
C 	C 	0.88497 0.82960 0.88497 0.06600
H 	H 	0.89710 0.80500 0.89710 0.05500
C 	C 	0.88497 0.32960 0.38497 0.07200
H 	H 	0.89710 0.30500 0.39710 0.04800
C 	C 	0.38497 0.82960 0.38497 0.07300
H 	H 	0.39710 0.80500 0.39710 0.04400
C 	C 	0.38497 0.32960 0.88497 0.07200
H 	H 	0.39710 0.30500 0.89710 0.04800
C 	C 	0.11503 0.82960 0.11503 0.07700
H 	H 	0.10290 0.80500 0.10290 0.03600
C 	C 	0.11503 0.32960 0.61503 0.07800
H 	H 	0.10290 0.30500 0.60290 0.03800
C 	C 	0.61503 0.82960 0.61503 0.07300
H 	H 	0.60290 0.80500 0.60290 0.04400
C 	C 	0.61503 0.32960 0.11503 0.07800
H 	H 	0.60290 0.30500 0.10290 0.03800
C 	C 	0.88497 0.11503 0.82960 0.07200
H 	H 	0.89710 0.10290 0.80500 0.04500
C 	C 	0.88497 0.61503 0.32960 0.07200
H 	H 	0.89710 0.60290 0.30500 0.04800
C 	C 	0.38497 0.11503 0.32960 0.07800
H 	H 	0.39710 0.10290 0.30500 0.03800
C 	C 	0.38497 0.61503 0.82960 0.07300
H 	H 	0.39710 0.60290 0.80500 0.04400
C 	C 	0.11503 0.88497 0.82960 0.07200
H 	H 	0.10290 0.89710 0.80500 0.04500
C 	C 	0.11503 0.38497 0.32960 0.07800
H 	H 	0.10290 0.39710 0.30500 0.03800
C 	C 	0.61503 0.88497 0.32960 0.07200
H 	H 	0.60290 0.89710 0.30500 0.04800
C 	C 	0.61503 0.38497 0.82960 0.07300
H 	H 	0.60290 0.39710 0.80500 0.04400
C 	C 	0.88497 0.88497 0.17040 0.07000
H 	H 	0.89710 0.89710 0.19500 0.05200
C 	C 	0.88497 0.38497 0.67040 0.07200
H 	H 	0.89710 0.39710 0.69500 0.04800
C 	C 	0.38497 0.88497 0.67040 0.07200
H 	H 	0.39710 0.89710 0.69500 0.04800
C 	C 	0.38497 0.38497 0.17040 0.07800
H 	H 	0.39710 0.39710 0.19500 0.04100
C 	C 	0.11503 0.11503 0.17040 0.08200
H 	H 	0.10290 0.10290 0.19500 0.03200
C 	C 	0.11503 0.61503 0.67040 0.07800
H 	H 	0.10290 0.60290 0.69500 0.03800
C 	C 	0.61503 0.11503 0.67040 0.07800
H 	H 	0.60290 0.10290 0.69500 0.03800
C 	C 	0.61503 0.61503 0.17040 0.07800
H 	H 	0.60290 0.60290 0.19500 0.04100
C 	C 	0.11503 0.17040 0.11503 0.08200
H 	H 	0.10290 0.19500 0.10290 0.03200
C 	C 	0.11503 0.67040 0.61503 0.07800
H 	H 	0.10290 0.69500 0.60290 0.03800
C 	C 	0.61503 0.17040 0.61503 0.07800
H 	H 	0.60290 0.19500 0.60290 0.04100
C 	C 	0.61503 0.67040 0.11503 0.07800
H 	H 	0.60290 0.69500 0.10290 0.03800
C 	C 	0.88497 0.17040 0.88497 0.07000
H 	H 	0.89710 0.19500 0.89710 0.05200
C 	C 	0.88497 0.67040 0.38497 0.07200
H 	H 	0.89710 0.69500 0.39710 0.04800
C 	C 	0.38497 0.17040 0.38497 0.07800
H 	H 	0.39710 0.19500 0.39710 0.04100
C 	C 	0.38497 0.67040 0.88497 0.07200
H 	H 	0.39710 0.69500 0.89710 0.04800
C 	C 	0.88497 0.82960 0.11503 0.07200
H 	H 	0.89710 0.80500 0.10290 0.04500
C 	C 	0.88497 0.32960 0.61503 0.07200
H 	H 	0.89710 0.30500 0.60290 0.04800
C 	C 	0.38497 0.82960 0.61503 0.07300
H 	H 	0.39710 0.80500 0.60290 0.04400
C 	C 	0.38497 0.32960 0.11503 0.07800
H 	H 	0.39710 0.30500 0.10290 0.03800
C 	C 	0.11503 0.82960 0.88497 0.07200
H 	H 	0.10290 0.80500 0.89710 0.04500
C 	C 	0.11503 0.32960 0.38497 0.07800
H 	H 	0.10290 0.30500 0.39710 0.03800
C 	C 	0.61503 0.82960 0.38497 0.07300
H 	H 	0.60290 0.80500 0.39710 0.04400
C 	C 	0.61503 0.32960 0.88497 0.07200
H 	H 	0.60290 0.30500 0.89710 0.04800
C 	C 	0.17040 0.88497 0.88497 0.07000
H 	H 	0.19500 0.89710 0.89710 0.05200
C 	C 	0.17040 0.38497 0.38497 0.07800
H 	H 	0.19500 0.39710 0.39710 0.04100
C 	C 	0.67040 0.88497 0.38497 0.07200
H 	H 	0.69500 0.89710 0.39710 0.04800
C 	C 	0.67040 0.38497 0.88497 0.07200
H 	H 	0.69500 0.39710 0.89710 0.04800
C 	C 	0.17040 0.11503 0.11503 0.08200
H 	H 	0.19500 0.10290 0.10290 0.03200
C 	C 	0.17040 0.61503 0.61503 0.07800
H 	H 	0.19500 0.60290 0.60290 0.04100
C 	C 	0.67040 0.11503 0.61503 0.07800
H 	H 	0.69500 0.10290 0.60290 0.03800
C 	C 	0.67040 0.61503 0.11503 0.07800
H 	H 	0.69500 0.60290 0.10290 0.03800
C 	C 	0.82960 0.88497 0.11503 0.07200
H 	H 	0.80500 0.89710 0.10290 0.04500
C 	C 	0.82960 0.38497 0.61503 0.07300
H 	H 	0.80500 0.39710 0.60290 0.04400
C 	C 	0.32960 0.88497 0.61503 0.07200
H 	H 	0.30500 0.89710 0.60290 0.04800
C 	C 	0.32960 0.38497 0.11503 0.07800
H 	H 	0.30500 0.39710 0.10290 0.03800
C 	C 	0.82960 0.11503 0.88497 0.07200
H 	H 	0.80500 0.10290 0.89710 0.04500
C 	C 	0.82960 0.61503 0.38497 0.07300
H 	H 	0.80500 0.60290 0.39710 0.04400
C 	C 	0.32960 0.11503 0.38497 0.07800
H 	H 	0.30500 0.10290 0.39710 0.03800
C 	C 	0.32960 0.61503 0.88497 0.07200
H 	H 	0.30500 0.60290 0.89710 0.04800
