data_crystal

_cell_length_a 12.38300
_cell_length_b 26.27100
_cell_length_c 26.27800
_cell_angle_alpha 90.00000
_cell_angle_beta  90.00000
_cell_angle_gamma 90.00000

_symmetry_space_group_name_	'P 1'
_symmetry_space_group_name_H-M	'P 1'

loop_
_symmetry_equiv_pos_as_xyz
  x,y,z

loop_
_atom_site_label
_atom_site_type_symbol
_atom_site_fract_x
_atom_site_fract_y
_atom_site_fract_z
_atom_site_charge
Zn	Zn	0.91743 0.99432 0.95916 1.19500
Zn	Zn	0.08257 0.00568 0.45916 1.19500
Zn	Zn	0.08257 0.49432 0.54084 1.19600
Zn	Zn	0.91743 0.50568 0.04084 1.19600
Zn	Zn	0.08257 0.00568 0.04084 1.19500
Zn	Zn	0.91743 0.99432 0.54084 1.19500
Zn	Zn	0.91743 0.50568 0.45916 1.19600
Zn	Zn	0.08257 0.49432 0.95916 1.19600
Zn	Zn	0.97881 0.69919 0.25000 1.20100
Zn	Zn	0.14665 0.78107 0.25000 1.19300
Zn	Zn	0.02119 0.30081 0.75000 1.20200
Zn	Zn	0.85335 0.21893 0.75000 1.19300
Zn	Zn	0.02119 0.19919 0.25000 1.20100
Zn	Zn	0.85335 0.28107 0.25000 1.19300
Zn	Zn	0.97881 0.80081 0.75000 1.20100
Zn	Zn	0.14665 0.71893 0.75000 1.19300
H 	H 	0.56550 0.82340 0.02440 0.05000
H 	H 	0.65790 0.80310 0.98870 0.05100
H 	H 	0.74930 0.86750 0.02760 0.08600
H 	H 	0.78500 0.75710 0.13260 0.08900
H 	H 	0.98840 0.87450 0.13020 0.05400
H 	H 	0.29720 0.61510 0.00800 0.08800
H 	H 	0.41660 0.76070 0.05400 0.05200
H 	H 	0.51090 0.72600 0.07450 0.04900
H 	H 	0.33090 0.72050 0.11830 0.08300
H 	H 	0.09580 0.61560 0.12680 0.04900
H 	H 	0.43450 0.17660 0.52440 0.05000
H 	H 	0.34210 0.19690 0.48870 0.05100
H 	H 	0.25070 0.13250 0.52760 0.08600
H 	H 	0.21500 0.24290 0.63260 0.08900
H 	H 	0.01160 0.12550 0.63020 0.05400
H 	H 	0.70280 0.38490 0.50800 0.08800
H 	H 	0.58340 0.23930 0.55400 0.05200
H 	H 	0.48910 0.27400 0.57450 0.04900
H 	H 	0.66910 0.27950 0.61830 0.08300
H 	H 	0.90420 0.38440 0.62680 0.04900
H 	H 	0.43450 0.32340 0.47560 0.05000
H 	H 	0.34210 0.30310 0.51130 0.05100
H 	H 	0.25070 0.36750 0.47240 0.08600
H 	H 	0.21500 0.25710 0.36740 0.08900
H 	H 	0.01160 0.37450 0.36980 0.05400
H 	H 	0.70280 0.11510 0.49200 0.08800
H 	H 	0.58340 0.26070 0.44600 0.05200
H 	H 	0.48910 0.22600 0.42550 0.04900
H 	H 	0.66910 0.22050 0.38170 0.08300
H 	H 	0.90420 0.11560 0.37320 0.05000
H 	H 	0.56550 0.67660 0.97560 0.04900
H 	H 	0.65790 0.69690 0.01130 0.05000
H 	H 	0.74930 0.63250 0.97240 0.08600
H 	H 	0.78500 0.74290 0.86740 0.08900
H 	H 	0.98840 0.62550 0.86980 0.05400
H 	H 	0.29720 0.88490 0.99200 0.08800
H 	H 	0.41660 0.73930 0.94600 0.05100
H 	H 	0.51090 0.77400 0.92550 0.04900
H 	H 	0.33090 0.77950 0.88170 0.08300
H 	H 	0.09580 0.88440 0.87320 0.05000
H 	H 	0.43450 0.17660 0.97560 0.04800
H 	H 	0.34210 0.19690 0.01130 0.04800
H 	H 	0.25070 0.13250 0.97240 0.08700
H 	H 	0.21500 0.24290 0.86740 0.09000
H 	H 	0.01160 0.12550 0.86980 0.05400
H 	H 	0.70280 0.38490 0.99200 0.08800
H 	H 	0.58340 0.23930 0.94600 0.05100
H 	H 	0.48910 0.27400 0.92550 0.04900
H 	H 	0.66910 0.27950 0.88170 0.08300
H 	H 	0.90420 0.38440 0.87320 0.04900
H 	H 	0.56550 0.82340 0.47560 0.05000
H 	H 	0.65790 0.80310 0.51130 0.05100
H 	H 	0.74930 0.86750 0.47240 0.08600
H 	H 	0.78500 0.75710 0.36740 0.08900
H 	H 	0.98840 0.87450 0.36980 0.05400
H 	H 	0.29720 0.61510 0.49200 0.08800
H 	H 	0.41660 0.76070 0.44600 0.05200
H 	H 	0.51090 0.72600 0.42550 0.04900
H 	H 	0.33090 0.72050 0.38170 0.08300
H 	H 	0.09580 0.61560 0.37320 0.04900
H 	H 	0.56550 0.67660 0.52440 0.05000
H 	H 	0.65790 0.69690 0.48870 0.05100
H 	H 	0.74930 0.63250 0.52760 0.08600
H 	H 	0.78500 0.74290 0.63260 0.08900
H 	H 	0.98840 0.62550 0.63020 0.05400
H 	H 	0.29720 0.88490 0.50800 0.08800
H 	H 	0.41660 0.73930 0.55400 0.05200
H 	H 	0.51090 0.77400 0.57450 0.04900
H 	H 	0.33090 0.77950 0.61830 0.08300
H 	H 	0.09580 0.88440 0.62680 0.05000
H 	H 	0.43450 0.32340 0.02440 0.04900
H 	H 	0.34210 0.30310 0.98870 0.05200
H 	H 	0.25070 0.36750 0.02760 0.08600
H 	H 	0.21500 0.25710 0.13260 0.08900
H 	H 	0.01160 0.37450 0.13020 0.05400
H 	H 	0.70280 0.11510 0.00800 0.08800
H 	H 	0.58340 0.26070 0.05400 0.05100
H 	H 	0.48910 0.22600 0.07450 0.04900
H 	H 	0.66910 0.22050 0.11830 0.08300
H 	H 	0.90420 0.11560 0.12680 0.05000
C 	C 	0.87540 0.87722 0.07519 -0.04300
C 	C 	0.89640 0.81199 0.13775 -0.05100
C 	C 	0.60930 0.79398 0.01611 -0.00700
C 	C 	0.78620 0.85332 0.05498 -0.12000
C 	C 	0.91800 0.92532 0.04967 0.37600
C 	C 	0.75290 0.80791 0.07622 0.17100
C 	C 	0.80830 0.78746 0.11810 -0.10700
C 	C 	0.95620 0.78660 0.18019 0.37300
C 	C 	0.92950 0.85727 0.11657 -0.01000
C 	C 	0.27440 0.62944 0.03855 -0.10200
C 	C 	0.46670 0.73372 0.04504 -0.01000
C 	C 	0.32750 0.67140 0.05853 0.16500
C 	C 	0.29470 0.69271 0.10466 -0.10900
C 	C 	0.20570 0.67125 0.12998 -0.05700
C 	C 	0.18670 0.60911 0.06461 -0.06200
C 	C 	0.12430 0.56656 0.04023 0.39200
C 	C 	0.15410 0.62984 0.10964 0.00300
C 	C 	0.16270 0.69594 0.17734 0.37800
C 	C 	0.12460 0.12278 0.57519 -0.04300
C 	C 	0.10360 0.18801 0.63775 -0.05100
C 	C 	0.39070 0.20602 0.51611 -0.00800
C 	C 	0.21380 0.14668 0.55498 -0.12000
C 	C 	0.08200 0.07468 0.54967 0.37600
C 	C 	0.24710 0.19209 0.57622 0.17100
C 	C 	0.19170 0.21254 0.61810 -0.10700
C 	C 	0.04380 0.21340 0.68019 0.37300
C 	C 	0.07050 0.14273 0.61657 -0.01000
C 	C 	0.72560 0.37056 0.53855 -0.10200
C 	C 	0.53330 0.26628 0.54504 -0.01000
C 	C 	0.67250 0.32860 0.55853 0.16500
C 	C 	0.70530 0.30729 0.60466 -0.10900
C 	C 	0.79430 0.32875 0.62998 -0.05700
C 	C 	0.81330 0.39089 0.56461 -0.06200
C 	C 	0.87570 0.43344 0.54023 0.39200
C 	C 	0.84590 0.37016 0.60964 0.00300
C 	C 	0.83730 0.30406 0.67734 0.37800
C 	C 	0.12460 0.37722 0.42481 -0.04300
C 	C 	0.10360 0.31199 0.36225 -0.05200
C 	C 	0.39070 0.29398 0.48389 -0.00800
C 	C 	0.21380 0.35332 0.44502 -0.12000
C 	C 	0.08200 0.42532 0.45033 0.37600
C 	C 	0.24710 0.30791 0.42378 0.17100
C 	C 	0.19170 0.28746 0.38190 -0.10700
C 	C 	0.04380 0.28660 0.31981 0.37400
C 	C 	0.07050 0.35727 0.38343 -0.01000
C 	C 	0.72560 0.12944 0.46145 -0.10300
C 	C 	0.53330 0.23372 0.45496 -0.01000
C 	C 	0.67250 0.17140 0.44147 0.16600
C 	C 	0.70530 0.19271 0.39534 -0.10900
C 	C 	0.79430 0.17125 0.37002 -0.05600
C 	C 	0.81330 0.10911 0.43539 -0.06100
C 	C 	0.87570 0.06656 0.45977 0.39200
C 	C 	0.84590 0.12984 0.39036 0.00300
C 	C 	0.83730 0.19594 0.32266 0.37800
C 	C 	0.87540 0.62278 0.92481 -0.04300
C 	C 	0.89640 0.68801 0.86225 -0.05200
C 	C 	0.60930 0.70602 0.98389 -0.00600
C 	C 	0.78620 0.64668 0.94502 -0.12000
C 	C 	0.91800 0.57468 0.95033 0.37600
C 	C 	0.75290 0.69209 0.92378 0.17100
C 	C 	0.80830 0.71254 0.88190 -0.10700
C 	C 	0.95620 0.71340 0.81981 0.37400
C 	C 	0.92950 0.64273 0.88343 -0.01000
C 	C 	0.27440 0.87056 0.96145 -0.10300
C 	C 	0.46670 0.76628 0.95496 -0.00900
C 	C 	0.32750 0.82860 0.94147 0.16600
C 	C 	0.29470 0.80729 0.89534 -0.10900
C 	C 	0.20570 0.82875 0.87002 -0.05600
C 	C 	0.18670 0.89089 0.93539 -0.06200
C 	C 	0.12430 0.93344 0.95977 0.39200
C 	C 	0.15410 0.87016 0.89036 0.00300
C 	C 	0.16270 0.80406 0.82266 0.37800
C 	C 	0.12460 0.12278 0.92481 -0.04300
C 	C 	0.10360 0.18801 0.86225 -0.05100
C 	C 	0.39070 0.20602 0.98389 -0.00200
C 	C 	0.21380 0.14668 0.94502 -0.12000
C 	C 	0.08200 0.07468 0.95033 0.37500
C 	C 	0.24710 0.19209 0.92378 0.17200
C 	C 	0.19170 0.21254 0.88190 -0.10800
C 	C 	0.04380 0.21340 0.81981 0.37300
C 	C 	0.07050 0.14273 0.88343 -0.01100
C 	C 	0.72560 0.37056 0.96145 -0.10300
C 	C 	0.53330 0.26628 0.95496 -0.00700
C 	C 	0.67250 0.32860 0.94147 0.16600
C 	C 	0.70530 0.30729 0.89534 -0.10900
C 	C 	0.79430 0.32875 0.87002 -0.05700
C 	C 	0.81330 0.39089 0.93539 -0.06200
C 	C 	0.87570 0.43344 0.95977 0.39200
C 	C 	0.84590 0.37016 0.89036 0.00300
C 	C 	0.83730 0.30406 0.82266 0.37800
C 	C 	0.87540 0.87722 0.42481 -0.04300
C 	C 	0.89640 0.81199 0.36225 -0.05100
C 	C 	0.60930 0.79398 0.48389 -0.00800
C 	C 	0.78620 0.85332 0.44502 -0.12000
C 	C 	0.91800 0.92532 0.45033 0.37600
C 	C 	0.75290 0.80791 0.42378 0.17100
C 	C 	0.80830 0.78746 0.38190 -0.10700
C 	C 	0.95620 0.78660 0.31981 0.37300
C 	C 	0.92950 0.85727 0.38343 -0.01000
C 	C 	0.27440 0.62944 0.46145 -0.10200
C 	C 	0.46670 0.73372 0.45496 -0.01000
C 	C 	0.32750 0.67140 0.44147 0.16500
C 	C 	0.29470 0.69271 0.39534 -0.10900
C 	C 	0.20570 0.67125 0.37002 -0.05700
C 	C 	0.18670 0.60911 0.43539 -0.06200
C 	C 	0.12430 0.56656 0.45977 0.39200
C 	C 	0.15410 0.62984 0.39036 0.00300
C 	C 	0.16270 0.69594 0.32266 0.37800
C 	C 	0.87540 0.62278 0.57519 -0.04300
C 	C 	0.89640 0.68801 0.63775 -0.05200
C 	C 	0.60930 0.70602 0.51611 -0.00800
C 	C 	0.78620 0.64668 0.55498 -0.12000
C 	C 	0.91800 0.57468 0.54967 0.37600
C 	C 	0.75290 0.69209 0.57622 0.17100
C 	C 	0.80830 0.71254 0.61810 -0.10700
C 	C 	0.95620 0.71340 0.68019 0.37400
C 	C 	0.92950 0.64273 0.61657 -0.01000
C 	C 	0.27440 0.87056 0.53855 -0.10300
C 	C 	0.46670 0.76628 0.54504 -0.01000
C 	C 	0.32750 0.82860 0.55853 0.16600
C 	C 	0.29470 0.80729 0.60466 -0.10900
C 	C 	0.20570 0.82875 0.62998 -0.05600
C 	C 	0.18670 0.89089 0.56461 -0.06100
C 	C 	0.12430 0.93344 0.54023 0.39200
C 	C 	0.15410 0.87016 0.60964 0.00300
C 	C 	0.16270 0.80406 0.67734 0.37800
C 	C 	0.12460 0.37722 0.07519 -0.04300
C 	C 	0.10360 0.31199 0.13775 -0.05200
C 	C 	0.39070 0.29398 0.01611 -0.00800
C 	C 	0.21380 0.35332 0.05498 -0.12000
C 	C 	0.08200 0.42532 0.04967 0.37600
C 	C 	0.24710 0.30791 0.07622 0.17100
C 	C 	0.19170 0.28746 0.11810 -0.10700
C 	C 	0.04380 0.28660 0.18019 0.37400
C 	C 	0.07050 0.35727 0.11657 -0.01000
C 	C 	0.72560 0.12944 0.03855 -0.10300
C 	C 	0.53330 0.23372 0.04504 -0.00800
C 	C 	0.67250 0.17140 0.05853 0.16600
C 	C 	0.70530 0.19271 0.10466 -0.11000
C 	C 	0.79430 0.17125 0.12998 -0.05600
C 	C 	0.81330 0.10911 0.06461 -0.06200
C 	C 	0.87570 0.06656 0.04023 0.39200
C 	C 	0.84590 0.12984 0.10964 0.00300
C 	C 	0.83730 0.19594 0.17734 0.37800
C 	C 	0.53780 0.75000 -0.00000 0.03100
C 	C 	0.46220 0.25000 0.50000 0.03200
C 	C 	0.46220 0.25000 -0.00000 0.02800
C 	C 	0.53780 0.75000 0.50000 0.03200
O 	O 	0.66910 0.77839 0.05930 -0.22200
O 	O 	0.04180 0.80813 0.19578 -0.46200
O 	O 	0.87160 0.93879 0.00970 -0.47300
O 	O 	0.99690 0.94720 0.07060 -0.47400
O 	O 	0.91720 0.74639 0.19786 -0.48000
O 	O 	0.40970 0.68958 0.02875 -0.21900
O 	O 	0.16220 0.54630 0.00079 -0.47800
O 	O 	0.21050 0.73554 0.19398 -0.46200
O 	O 	0.03890 0.55358 0.06172 -0.48600
O 	O 	0.08290 0.67499 0.19697 -0.48600
O 	O 	0.33090 0.22161 0.55930 -0.22100
O 	O 	0.95820 0.19187 0.69578 -0.46200
O 	O 	0.12840 0.06121 0.50970 -0.47300
O 	O 	0.00310 0.05280 0.57060 -0.47400
O 	O 	0.08280 0.25361 0.69786 -0.48000
O 	O 	0.59030 0.31042 0.52875 -0.21900
O 	O 	0.83780 0.45370 0.50079 -0.47800
O 	O 	0.78950 0.26446 0.69398 -0.46200
O 	O 	0.96110 0.44642 0.56172 -0.48600
O 	O 	0.91710 0.32501 0.69697 -0.48600
O 	O 	0.33090 0.27839 0.44070 -0.22100
O 	O 	0.95820 0.30813 0.30422 -0.46300
O 	O 	0.12840 0.43879 0.49030 -0.47200
O 	O 	0.00310 0.44720 0.42940 -0.47300
O 	O 	0.08280 0.24639 0.30214 -0.48100
O 	O 	0.59030 0.18958 0.47125 -0.21900
O 	O 	0.83780 0.04630 0.49921 -0.47600
O 	O 	0.78950 0.23554 0.30602 -0.46200
O 	O 	0.96110 0.05358 0.43828 -0.48400
O 	O 	0.91710 0.17499 0.30303 -0.48600
O 	O 	0.66910 0.72161 0.94070 -0.22200
O 	O 	0.04180 0.69187 0.80422 -0.46300
O 	O 	0.87160 0.56121 0.99030 -0.47200
O 	O 	0.99690 0.55280 0.92940 -0.47300
O 	O 	0.91720 0.75361 0.80214 -0.48100
O 	O 	0.40970 0.81042 0.97125 -0.21900
O 	O 	0.16220 0.95370 0.99921 -0.47600
O 	O 	0.21050 0.76446 0.80602 -0.46200
O 	O 	0.03890 0.94642 0.93828 -0.48400
O 	O 	0.08290 0.82501 0.80303 -0.48600
O 	O 	0.33090 0.22161 0.94070 -0.22200
O 	O 	0.95820 0.19187 0.80422 -0.46200
O 	O 	0.12840 0.06121 0.99030 -0.47200
O 	O 	0.00310 0.05280 0.92940 -0.47400
O 	O 	0.08280 0.25361 0.80214 -0.48000
O 	O 	0.59030 0.31042 0.97125 -0.21900
O 	O 	0.83780 0.45370 0.99921 -0.47800
O 	O 	0.78950 0.26446 0.80602 -0.46200
O 	O 	0.96110 0.44642 0.93828 -0.48600
O 	O 	0.91710 0.32501 0.80303 -0.48600
O 	O 	0.66910 0.77839 0.44070 -0.22100
O 	O 	0.04180 0.80813 0.30422 -0.46200
O 	O 	0.87160 0.93879 0.49030 -0.47300
O 	O 	0.99690 0.94720 0.42940 -0.47400
O 	O 	0.91720 0.74639 0.30214 -0.48000
O 	O 	0.40970 0.68958 0.47125 -0.21900
O 	O 	0.16220 0.54630 0.49921 -0.47800
O 	O 	0.21050 0.73554 0.30602 -0.46200
O 	O 	0.03890 0.55358 0.43828 -0.48600
O 	O 	0.08290 0.67499 0.30303 -0.48600
O 	O 	0.66910 0.72161 0.55930 -0.22100
O 	O 	0.04180 0.69187 0.69578 -0.46300
O 	O 	0.87160 0.56121 0.50970 -0.47200
O 	O 	0.99690 0.55280 0.57060 -0.47300
O 	O 	0.91720 0.75361 0.69786 -0.48100
O 	O 	0.40970 0.81042 0.52875 -0.21900
O 	O 	0.16220 0.95370 0.50079 -0.47600
O 	O 	0.21050 0.76446 0.69398 -0.46200
O 	O 	0.03890 0.94642 0.56172 -0.48400
O 	O 	0.08290 0.82501 0.69697 -0.48600
O 	O 	0.33090 0.27839 0.05930 -0.22100
O 	O 	0.95820 0.30813 0.19578 -0.46400
O 	O 	0.12840 0.43879 0.00970 -0.47300
O 	O 	0.00310 0.44720 0.07060 -0.47300
O 	O 	0.08280 0.24639 0.19786 -0.48100
O 	O 	0.59030 0.18958 0.02875 -0.22000
O 	O 	0.83780 0.04630 0.00079 -0.47700
O 	O 	0.78950 0.23554 0.19398 -0.46200
O 	O 	0.96110 0.05358 0.06172 -0.48400
O 	O 	0.91710 0.17499 0.19697 -0.48600
