data_crystal

_cell_length_a 12.31000
_cell_length_b 26.25000
_cell_length_c 26.34100
_cell_angle_alpha 90.00000
_cell_angle_beta  90.00000
_cell_angle_gamma 90.00000

_symmetry_space_group_name_	'P 1'
_symmetry_space_group_name_H-M	'P 1'

loop_
_symmetry_equiv_pos_as_xyz
  x,y,z

loop_
_atom_site_label
_atom_site_type_symbol
_atom_site_fract_x
_atom_site_fract_y
_atom_site_fract_z
_atom_site_charge
Zn	Zn	0.41733 0.99266 0.95910 1.19700
Zn	Zn	0.58267 0.00734 0.45910 1.19800
Zn	Zn	0.58267 0.49266 0.54090 1.19800
Zn	Zn	0.41733 0.50734 0.04090 1.19700
Zn	Zn	0.58267 0.00734 0.04090 1.19700
Zn	Zn	0.41733 0.99266 0.54090 1.19800
Zn	Zn	0.41733 0.50734 0.45910 1.19800
Zn	Zn	0.58267 0.49266 0.95910 1.19800
Zn	Zn	0.49251 0.80555 0.75000 1.20100
Zn	Zn	0.66086 0.72360 0.75000 1.19500
Zn	Zn	0.50749 0.19445 0.25000 1.20100
Zn	Zn	0.33914 0.27640 0.25000 1.19400
Zn	Zn	0.50749 0.30555 0.75000 1.20100
Zn	Zn	0.33914 0.22360 0.75000 1.19400
Zn	Zn	0.49251 0.69445 0.25000 1.20000
Zn	Zn	0.66086 0.77640 0.25000 1.19400
H 	H 	0.92070 0.74190 0.94820 0.05100
H 	H 	0.01970 0.77250 0.92570 0.05000
H 	H 	0.07310 0.67740 0.97100 0.04900
H 	H 	0.16420 0.69430 0.00950 0.05000
H 	H 	0.81280 0.88930 0.99150 0.09000
H 	H 	0.60960 0.89000 0.87300 0.05400
H 	H 	0.84400 0.78440 0.88130 0.08400
H 	H 	0.26130 0.63550 0.97110 0.08500
H 	H 	0.29750 0.74610 0.86730 0.08700
H 	H 	0.50630 0.62960 0.87050 0.05300
H 	H 	0.07930 0.25810 0.44820 0.05100
H 	H 	0.98030 0.22750 0.42570 0.05000
H 	H 	0.92690 0.32260 0.47100 0.04900
H 	H 	0.83580 0.30570 0.50950 0.05000
H 	H 	0.18720 0.11070 0.49150 0.09000
H 	H 	0.39040 0.11000 0.37300 0.05400
H 	H 	0.15600 0.21560 0.38130 0.08400
H 	H 	0.73870 0.36450 0.47110 0.08500
H 	H 	0.70250 0.25390 0.36730 0.08700
H 	H 	0.49370 0.37040 0.37050 0.05300
H 	H 	0.07930 0.24190 0.55180 0.05100
H 	H 	0.98030 0.27250 0.57430 0.05100
H 	H 	0.92690 0.17740 0.52900 0.04900
H 	H 	0.83580 0.19430 0.49050 0.05000
H 	H 	0.18720 0.38930 0.50850 0.09000
H 	H 	0.39040 0.39000 0.62700 0.05400
H 	H 	0.15600 0.28440 0.61870 0.08400
H 	H 	0.73870 0.13550 0.52890 0.08500
H 	H 	0.70250 0.24610 0.63270 0.08700
H 	H 	0.49370 0.12960 0.62950 0.05400
H 	H 	0.92070 0.75810 0.05180 0.05100
H 	H 	0.01970 0.72750 0.07430 0.05000
H 	H 	0.07310 0.82260 0.02900 0.04800
H 	H 	0.16420 0.80570 0.99050 0.04900
H 	H 	0.81280 0.61070 0.00850 0.09000
H 	H 	0.60960 0.61000 0.12700 0.05400
H 	H 	0.84400 0.71560 0.11870 0.08400
H 	H 	0.26130 0.86450 0.02890 0.08500
H 	H 	0.29750 0.75390 0.13270 0.08700
H 	H 	0.50630 0.87040 0.12950 0.05400
H 	H 	0.07930 0.25810 0.05180 0.05000
H 	H 	0.98030 0.22750 0.07430 0.05000
H 	H 	0.92690 0.32260 0.02900 0.04900
H 	H 	0.83580 0.30570 0.99050 0.05100
H 	H 	0.18720 0.11070 0.00850 0.09000
H 	H 	0.39040 0.11000 0.12700 0.05400
H 	H 	0.15600 0.21560 0.11870 0.08400
H 	H 	0.73870 0.36450 0.02890 0.08500
H 	H 	0.70250 0.25390 0.13270 0.08700
H 	H 	0.49370 0.37040 0.12950 0.05300
H 	H 	0.92070 0.74190 0.55180 0.05100
H 	H 	0.01970 0.77250 0.57430 0.05000
H 	H 	0.07310 0.67740 0.52900 0.04900
H 	H 	0.16420 0.69430 0.49050 0.05000
H 	H 	0.81280 0.88930 0.50850 0.09000
H 	H 	0.60960 0.89000 0.62700 0.05400
H 	H 	0.84400 0.78440 0.61870 0.08400
H 	H 	0.26130 0.63550 0.52890 0.08500
H 	H 	0.29750 0.74610 0.63270 0.08700
H 	H 	0.50630 0.62960 0.62950 0.05300
H 	H 	0.92070 0.75810 0.44820 0.05100
H 	H 	0.01970 0.72750 0.42570 0.05000
H 	H 	0.07310 0.82260 0.47100 0.04900
H 	H 	0.16420 0.80570 0.50950 0.05000
H 	H 	0.81280 0.61070 0.49150 0.09000
H 	H 	0.60960 0.61000 0.37300 0.05400
H 	H 	0.84400 0.71560 0.38130 0.08400
H 	H 	0.26130 0.86450 0.47110 0.08500
H 	H 	0.29750 0.75390 0.36730 0.08700
H 	H 	0.50630 0.87040 0.37050 0.05400
H 	H 	0.07930 0.24190 0.94820 0.05100
H 	H 	0.98030 0.27250 0.92570 0.05000
H 	H 	0.92690 0.17740 0.97100 0.04700
H 	H 	0.83580 0.19430 0.00950 0.04700
H 	H 	0.18720 0.38930 0.99150 0.09000
H 	H 	0.39040 0.39000 0.87300 0.05400
H 	H 	0.15600 0.28440 0.88130 0.08400
H 	H 	0.73870 0.13550 0.97110 0.08600
H 	H 	0.70250 0.24610 0.86730 0.08700
H 	H 	0.49370 0.12960 0.87050 0.05400
C 	C 	0.97543 0.76740 0.95575 -0.01200
C 	C 	0.11769 0.70580 0.98205 -0.00500
C 	C 	0.84300 0.83352 0.94043 0.16700
C 	C 	0.78940 0.87545 0.96089 -0.10800
C 	C 	0.70180 0.89648 0.93608 -0.05000
C 	C 	0.66830 0.87576 0.89022 -0.01000
C 	C 	0.72180 0.83391 0.86983 -0.04700
C 	C 	0.80860 0.81262 0.89485 -0.11500
C 	C 	0.63700 0.93846 0.96049 0.37500
C 	C 	0.67720 0.80998 0.82213 0.37200
C 	C 	0.29900 0.64975 0.94403 -0.11700
C 	C 	0.26580 0.69547 0.92348 0.17000
C 	C 	0.32160 0.71585 0.88194 -0.10400
C 	C 	0.38970 0.62500 0.92386 -0.04900
C 	C 	0.44560 0.64607 0.88359 -0.00500
C 	C 	0.41120 0.69191 0.86255 -0.05700
C 	C 	0.47290 0.71659 0.81964 0.39600
C 	C 	0.42960 0.57660 0.94881 0.37600
C 	C 	0.02457 0.23260 0.45575 -0.01300
C 	C 	0.88231 0.29420 0.48205 -0.00500
C 	C 	0.15700 0.16648 0.44043 0.16700
C 	C 	0.21060 0.12455 0.46089 -0.10700
C 	C 	0.29820 0.10352 0.43608 -0.05100
C 	C 	0.33170 0.12424 0.39022 -0.00900
C 	C 	0.27820 0.16609 0.36983 -0.04700
C 	C 	0.19140 0.18738 0.39485 -0.11500
C 	C 	0.36300 0.06154 0.46049 0.37700
C 	C 	0.32280 0.19002 0.32213 0.37200
C 	C 	0.70100 0.35025 0.44403 -0.11700
C 	C 	0.73420 0.30453 0.42348 0.17100
C 	C 	0.67840 0.28415 0.38194 -0.10400
C 	C 	0.61030 0.37500 0.42386 -0.04900
C 	C 	0.55440 0.35393 0.38359 -0.00500
C 	C 	0.58880 0.30809 0.36255 -0.05700
C 	C 	0.52710 0.28341 0.31964 0.39600
C 	C 	0.57040 0.42340 0.44881 0.37600
C 	C 	0.02457 0.26740 0.54425 -0.01300
C 	C 	0.88231 0.20580 0.51795 -0.00500
C 	C 	0.15700 0.33352 0.55957 0.16700
C 	C 	0.21060 0.37545 0.53911 -0.10700
C 	C 	0.29820 0.39648 0.56392 -0.05100
C 	C 	0.33170 0.37576 0.60978 -0.00900
C 	C 	0.27820 0.33391 0.63017 -0.04700
C 	C 	0.19140 0.31262 0.60515 -0.11500
C 	C 	0.36300 0.43846 0.53951 0.37700
C 	C 	0.32280 0.30998 0.67787 0.37200
C 	C 	0.70100 0.14975 0.55597 -0.11700
C 	C 	0.73420 0.19547 0.57652 0.17100
C 	C 	0.67840 0.21585 0.61806 -0.10400
C 	C 	0.61030 0.12500 0.57614 -0.04800
C 	C 	0.55440 0.14607 0.61641 -0.00500
C 	C 	0.58880 0.19191 0.63745 -0.05700
C 	C 	0.52710 0.21659 0.68036 0.39600
C 	C 	0.57040 0.07660 0.55119 0.37600
C 	C 	0.97543 0.73260 0.04425 -0.01200
C 	C 	0.11769 0.79420 0.01795 -0.00400
C 	C 	0.84300 0.66648 0.05957 0.16700
C 	C 	0.78940 0.62455 0.03911 -0.10800
C 	C 	0.70180 0.60352 0.06392 -0.05100
C 	C 	0.66830 0.62424 0.10978 -0.01000
C 	C 	0.72180 0.66609 0.13017 -0.04700
C 	C 	0.80860 0.68738 0.10515 -0.11500
C 	C 	0.63700 0.56154 0.03951 0.37700
C 	C 	0.67720 0.69002 0.17787 0.37200
C 	C 	0.29900 0.85025 0.05597 -0.11700
C 	C 	0.26580 0.80453 0.07652 0.17100
C 	C 	0.32160 0.78415 0.11806 -0.10400
C 	C 	0.38970 0.87500 0.07614 -0.04800
C 	C 	0.44560 0.85393 0.11641 -0.00500
C 	C 	0.41120 0.80809 0.13745 -0.05700
C 	C 	0.47290 0.78341 0.18036 0.39600
C 	C 	0.42960 0.92340 0.05119 0.37600
C 	C 	0.02457 0.23260 0.04425 -0.01100
C 	C 	0.88231 0.29420 0.01795 -0.00600
C 	C 	0.15700 0.16648 0.05957 0.16700
C 	C 	0.21060 0.12455 0.03911 -0.10800
C 	C 	0.29820 0.10352 0.06392 -0.05000
C 	C 	0.33170 0.12424 0.10978 -0.01000
C 	C 	0.27820 0.16609 0.13017 -0.04700
C 	C 	0.19140 0.18738 0.10515 -0.11500
C 	C 	0.36300 0.06154 0.03951 0.37400
C 	C 	0.32280 0.19002 0.17787 0.37200
C 	C 	0.70100 0.35025 0.05597 -0.11600
C 	C 	0.73420 0.30453 0.07652 0.17000
C 	C 	0.67840 0.28415 0.11806 -0.10400
C 	C 	0.61030 0.37500 0.07614 -0.04900
C 	C 	0.55440 0.35393 0.11641 -0.00500
C 	C 	0.58880 0.30809 0.13745 -0.05800
C 	C 	0.52710 0.28341 0.18036 0.39600
C 	C 	0.57040 0.42340 0.05119 0.37600
C 	C 	0.97543 0.76740 0.54425 -0.01200
C 	C 	0.11769 0.70580 0.51795 -0.00500
C 	C 	0.84300 0.83352 0.55957 0.16700
C 	C 	0.78940 0.87545 0.53911 -0.10800
C 	C 	0.70180 0.89648 0.56392 -0.05100
C 	C 	0.66830 0.87576 0.60978 -0.01000
C 	C 	0.72180 0.83391 0.63017 -0.04700
C 	C 	0.80860 0.81262 0.60515 -0.11500
C 	C 	0.63700 0.93846 0.53951 0.37700
C 	C 	0.67720 0.80998 0.67787 0.37200
C 	C 	0.29900 0.64975 0.55597 -0.11700
C 	C 	0.26580 0.69547 0.57652 0.17100
C 	C 	0.32160 0.71585 0.61806 -0.10400
C 	C 	0.38970 0.62500 0.57614 -0.04900
C 	C 	0.44560 0.64607 0.61641 -0.00500
C 	C 	0.41120 0.69191 0.63745 -0.05700
C 	C 	0.47290 0.71659 0.68036 0.39600
C 	C 	0.42960 0.57660 0.55119 0.37600
C 	C 	0.97543 0.73260 0.45575 -0.01200
C 	C 	0.11769 0.79420 0.48205 -0.00500
C 	C 	0.84300 0.66648 0.44043 0.16700
C 	C 	0.78940 0.62455 0.46089 -0.10700
C 	C 	0.70180 0.60352 0.43608 -0.05100
C 	C 	0.66830 0.62424 0.39022 -0.00900
C 	C 	0.72180 0.66609 0.36983 -0.04700
C 	C 	0.80860 0.68738 0.39485 -0.11500
C 	C 	0.63700 0.56154 0.46049 0.37700
C 	C 	0.67720 0.69002 0.32213 0.37200
C 	C 	0.29900 0.85025 0.44403 -0.11700
C 	C 	0.26580 0.80453 0.42348 0.17100
C 	C 	0.32160 0.78415 0.38194 -0.10400
C 	C 	0.38970 0.87500 0.42386 -0.04800
C 	C 	0.44560 0.85393 0.38359 -0.00500
C 	C 	0.41120 0.80809 0.36255 -0.05700
C 	C 	0.47290 0.78341 0.31964 0.39600
C 	C 	0.42960 0.92340 0.44881 0.37600
C 	C 	0.02457 0.26740 0.95575 -0.01000
C 	C 	0.88231 0.20580 0.98205 0.00200
C 	C 	0.15700 0.33352 0.94043 0.16700
C 	C 	0.21060 0.37545 0.96089 -0.10700
C 	C 	0.29820 0.39648 0.93608 -0.05100
C 	C 	0.33170 0.37576 0.89022 -0.00900
C 	C 	0.27820 0.33391 0.86983 -0.04700
C 	C 	0.19140 0.31262 0.89485 -0.11500
C 	C 	0.36300 0.43846 0.96049 0.37800
C 	C 	0.32280 0.30998 0.82213 0.37200
C 	C 	0.70100 0.14975 0.94403 -0.11700
C 	C 	0.73420 0.19547 0.92348 0.17200
C 	C 	0.67840 0.21585 0.88194 -0.10500
C 	C 	0.61030 0.12500 0.92386 -0.04800
C 	C 	0.55440 0.14607 0.88359 -0.00600
C 	C 	0.58880 0.19191 0.86255 -0.05700
C 	C 	0.52710 0.21659 0.81964 0.39600
C 	C 	0.57040 0.07660 0.94881 0.37600
C 	C 	0.04580 0.75000 -0.00000 0.03000
C 	C 	0.95420 0.25000 0.50000 0.03100
C 	C 	0.95420 0.25000 -0.00000 0.02600
C 	C 	0.04580 0.75000 0.50000 0.03000
O 	O 	0.92490 0.81420 0.97035 -0.21900
O 	O 	0.18145 0.72419 0.94106 -0.22200
O 	O 	0.67439 0.95799 0.00017 -0.46600
O 	O 	0.54914 0.95045 0.93896 -0.48300
O 	O 	0.59482 0.83204 0.80315 -0.47600
O 	O 	0.72187 0.77075 0.80530 -0.47000
O 	O 	0.43409 0.75780 0.80328 -0.48400
O 	O 	0.55593 0.69558 0.80398 -0.47900
O 	O 	0.50859 0.55433 0.92807 -0.46800
O 	O 	0.38298 0.56310 0.98895 -0.47600
O 	O 	0.07510 0.18580 0.47035 -0.21900
O 	O 	0.81855 0.27581 0.44106 -0.22200
O 	O 	0.32561 0.04201 0.50017 -0.46700
O 	O 	0.45086 0.04955 0.43896 -0.48200
O 	O 	0.40518 0.16796 0.30315 -0.47600
O 	O 	0.27813 0.22925 0.30530 -0.47000
O 	O 	0.56591 0.24220 0.30328 -0.48400
O 	O 	0.44407 0.30442 0.30398 -0.47900
O 	O 	0.49141 0.44567 0.42807 -0.46800
O 	O 	0.61702 0.43690 0.48895 -0.47600
O 	O 	0.07510 0.31420 0.52965 -0.21900
O 	O 	0.81855 0.22419 0.55894 -0.22200
O 	O 	0.32561 0.45799 0.49983 -0.46700
O 	O 	0.45086 0.45045 0.56104 -0.48300
O 	O 	0.40518 0.33204 0.69685 -0.47600
O 	O 	0.27813 0.27075 0.69470 -0.47000
O 	O 	0.56591 0.25780 0.69672 -0.48400
O 	O 	0.44407 0.19558 0.69602 -0.47900
O 	O 	0.49141 0.05433 0.57193 -0.46800
O 	O 	0.61702 0.06310 0.51105 -0.47600
O 	O 	0.92490 0.68580 0.02965 -0.21900
O 	O 	0.18145 0.77581 0.05894 -0.22200
O 	O 	0.67439 0.54201 0.99983 -0.46700
O 	O 	0.54914 0.54955 0.06104 -0.48300
O 	O 	0.59482 0.66796 0.19685 -0.47600
O 	O 	0.72187 0.72925 0.19470 -0.47000
O 	O 	0.43409 0.74220 0.19672 -0.48400
O 	O 	0.55593 0.80442 0.19602 -0.47900
O 	O 	0.50859 0.94567 0.07193 -0.46700
O 	O 	0.38298 0.93690 0.01105 -0.47600
O 	O 	0.07510 0.18580 0.02965 -0.22000
O 	O 	0.81855 0.27581 0.05894 -0.22200
O 	O 	0.32561 0.04201 0.99983 -0.46400
O 	O 	0.45086 0.04955 0.06104 -0.48300
O 	O 	0.40518 0.16796 0.19685 -0.47600
O 	O 	0.27813 0.22925 0.19470 -0.47000
O 	O 	0.56591 0.24220 0.19672 -0.48400
O 	O 	0.44407 0.30442 0.19602 -0.47900
O 	O 	0.49141 0.44567 0.07193 -0.46800
O 	O 	0.61702 0.43690 0.01105 -0.47700
O 	O 	0.92490 0.81420 0.52965 -0.21900
O 	O 	0.18145 0.72419 0.55894 -0.22200
O 	O 	0.67439 0.95799 0.49983 -0.46700
O 	O 	0.54914 0.95045 0.56104 -0.48200
O 	O 	0.59482 0.83204 0.69685 -0.47600
O 	O 	0.72187 0.77075 0.69470 -0.47000
O 	O 	0.43409 0.75780 0.69672 -0.48400
O 	O 	0.55593 0.69558 0.69602 -0.47900
O 	O 	0.50859 0.55433 0.57193 -0.46800
O 	O 	0.38298 0.56310 0.51105 -0.47600
O 	O 	0.92490 0.68580 0.47035 -0.21900
O 	O 	0.18145 0.77581 0.44106 -0.22200
O 	O 	0.67439 0.54201 0.50017 -0.46700
O 	O 	0.54914 0.54955 0.43896 -0.48300
O 	O 	0.59482 0.66796 0.30315 -0.47600
O 	O 	0.72187 0.72925 0.30530 -0.47000
O 	O 	0.43409 0.74220 0.30328 -0.48400
O 	O 	0.55593 0.80442 0.30398 -0.47900
O 	O 	0.50859 0.94567 0.42807 -0.46800
O 	O 	0.38298 0.93690 0.48895 -0.47600
O 	O 	0.07510 0.31420 0.97035 -0.21900
O 	O 	0.81855 0.22419 0.94106 -0.22300
O 	O 	0.32561 0.45799 0.00017 -0.46900
O 	O 	0.45086 0.45045 0.93896 -0.48300
O 	O 	0.40518 0.33204 0.80315 -0.47600
O 	O 	0.27813 0.27075 0.80530 -0.47000
O 	O 	0.56591 0.25780 0.80328 -0.48400
O 	O 	0.44407 0.19558 0.80398 -0.47900
O 	O 	0.49141 0.05433 0.92807 -0.46700
O 	O 	0.61702 0.06310 0.98895 -0.47500
