data_crystal

_cell_length_a 12.50590
_cell_length_b 26.17080
_cell_length_c 26.25090
_cell_angle_alpha 90.00000
_cell_angle_beta  90.00000
_cell_angle_gamma 90.00000

_symmetry_space_group_name_	'P 1'
_symmetry_space_group_name_H-M	'P 1'

loop_
_symmetry_equiv_pos_as_xyz
  x,y,z

loop_
_atom_site_label
_atom_site_type_symbol
_atom_site_fract_x
_atom_site_fract_y
_atom_site_fract_z
_atom_site_charge
Zn	Zn	0.41896 0.00660 0.45884 1.19600
Zn	Zn	0.58104 0.99340 0.95884 1.19400
Zn	Zn	0.58104 0.50660 0.04116 1.19500
Zn	Zn	0.41896 0.49340 0.54116 1.19500
Zn	Zn	0.58104 0.99340 0.54116 1.19500
Zn	Zn	0.41896 0.00660 0.04116 1.19400
Zn	Zn	0.41896 0.49340 0.95884 1.19500
Zn	Zn	0.58104 0.50660 0.45884 1.19500
Zn	Zn	0.51333 0.80343 0.75000 1.20100
Zn	Zn	0.34984 0.72066 0.75000 1.19200
Zn	Zn	0.48667 0.19657 0.25000 1.20100
Zn	Zn	0.65016 0.27934 0.25000 1.19200
Zn	Zn	0.48667 0.30343 0.75000 1.20100
Zn	Zn	0.65016 0.22066 0.75000 1.19200
Zn	Zn	0.51333 0.69657 0.25000 1.20100
Zn	Zn	0.34984 0.77934 0.25000 1.19200
H 	H 	0.07720 0.73990 0.55410 0.05200
H 	H 	0.98360 0.77490 0.57400 0.04900
H 	H 	0.16220 0.78150 0.61850 0.08600
H 	H 	0.39970 0.88490 0.62510 0.05400
H 	H 	0.19570 0.88650 0.50780 0.09100
H 	H 	0.93170 0.82380 0.47370 0.04900
H 	H 	0.83970 0.80470 0.50990 0.05000
H 	H 	0.74880 0.86670 0.47130 0.08500
H 	H 	0.71290 0.75530 0.36670 0.09000
H 	H 	0.50950 0.87370 0.36820 0.05500
H 	H 	0.92280 0.26010 0.05410 0.05100
H 	H 	0.01640 0.22510 0.07400 0.04900
H 	H 	0.83780 0.21850 0.11850 0.08600
H 	H 	0.60030 0.11510 0.12510 0.05400
H 	H 	0.80430 0.11350 0.00780 0.09000
H 	H 	0.06830 0.17620 0.97370 0.04800
H 	H 	0.16030 0.19530 0.00990 0.04600
H 	H 	0.25120 0.13330 0.97130 0.08600
H 	H 	0.28710 0.24470 0.86670 0.09000
H 	H 	0.49050 0.12630 0.86820 0.05500
H 	H 	0.92280 0.23990 0.94590 0.05100
H 	H 	0.01640 0.27490 0.92600 0.04900
H 	H 	0.83780 0.28150 0.88150 0.08600
H 	H 	0.60030 0.38490 0.87490 0.05400
H 	H 	0.80430 0.38650 0.99220 0.09100
H 	H 	0.06830 0.32380 0.02630 0.04900
H 	H 	0.16030 0.30470 0.99010 0.05100
H 	H 	0.25120 0.36670 0.02870 0.08500
H 	H 	0.28710 0.25530 0.13330 0.09000
H 	H 	0.49050 0.37370 0.13180 0.05400
H 	H 	0.07720 0.76010 0.44590 0.05200
H 	H 	0.98360 0.72510 0.42600 0.04900
H 	H 	0.16220 0.71850 0.38150 0.08600
H 	H 	0.39970 0.61510 0.37490 0.05400
H 	H 	0.19570 0.61350 0.49220 0.09100
H 	H 	0.93170 0.67620 0.52630 0.04900
H 	H 	0.83970 0.69530 0.49010 0.05000
H 	H 	0.74880 0.63330 0.52870 0.08500
H 	H 	0.71290 0.74470 0.63330 0.09000
H 	H 	0.50950 0.62630 0.63180 0.05500
H 	H 	0.92280 0.26010 0.44590 0.05200
H 	H 	0.01640 0.22510 0.42600 0.04900
H 	H 	0.83780 0.21850 0.38150 0.08600
H 	H 	0.60030 0.11510 0.37490 0.05400
H 	H 	0.80430 0.11350 0.49220 0.09100
H 	H 	0.06830 0.17620 0.52630 0.04900
H 	H 	0.16030 0.19530 0.49010 0.05000
H 	H 	0.25120 0.13330 0.52870 0.08500
H 	H 	0.28710 0.24470 0.63330 0.09000
H 	H 	0.49050 0.12630 0.63180 0.05500
H 	H 	0.07720 0.73990 0.94590 0.05200
H 	H 	0.98360 0.77490 0.92600 0.04900
H 	H 	0.16220 0.78150 0.88150 0.08600
H 	H 	0.39970 0.88490 0.87490 0.05400
H 	H 	0.19570 0.88650 0.99220 0.09100
H 	H 	0.93170 0.82380 0.02630 0.04900
H 	H 	0.83970 0.80470 0.99010 0.04900
H 	H 	0.74880 0.86670 0.02870 0.08500
H 	H 	0.71290 0.75530 0.13330 0.09000
H 	H 	0.50950 0.87370 0.13180 0.05500
H 	H 	0.07720 0.76010 0.05410 0.05200
H 	H 	0.98360 0.72510 0.07400 0.04900
H 	H 	0.16220 0.71850 0.11850 0.08600
H 	H 	0.39970 0.61510 0.12510 0.05400
H 	H 	0.19570 0.61350 0.00780 0.09100
H 	H 	0.93170 0.67620 0.97370 0.04900
H 	H 	0.83970 0.69530 0.00990 0.05000
H 	H 	0.74880 0.63330 0.97130 0.08500
H 	H 	0.71290 0.74470 0.86670 0.09000
H 	H 	0.50950 0.62630 0.86820 0.05500
H 	H 	0.92280 0.23990 0.55410 0.05200
H 	H 	0.01640 0.27490 0.57400 0.05000
H 	H 	0.83780 0.28150 0.61850 0.08600
H 	H 	0.60030 0.38490 0.62510 0.05400
H 	H 	0.80430 0.38650 0.50780 0.09100
H 	H 	0.06830 0.32380 0.47370 0.04900
H 	H 	0.16030 0.30470 0.50990 0.05000
H 	H 	0.25120 0.36670 0.47130 0.08500
H 	H 	0.28710 0.25530 0.36670 0.09000
H 	H 	0.49050 0.37370 0.36820 0.05500
C 	C 	0.32990 0.80540 0.67771 0.38000
C 	C 	0.02790 0.76685 0.54470 -0.01000
C 	C 	0.16600 0.82945 0.55856 0.17100
C 	C 	0.19850 0.80907 0.60441 -0.12000
C 	C 	0.28600 0.83011 0.62939 -0.04500
C 	C 	0.34030 0.87139 0.60859 -0.01200
C 	C 	0.30570 0.89236 0.56310 -0.04800
C 	C 	0.21910 0.87206 0.53816 -0.10900
C 	C 	0.36930 0.93501 0.53847 0.37800
C 	C 	0.88770 0.79465 0.48269 -0.00700
C 	C 	0.62230 0.87778 0.42339 -0.04900
C 	C 	0.71230 0.85279 0.44376 -0.11700
C 	C 	0.74590 0.80722 0.42230 0.17300
C 	C 	0.69010 0.78594 0.38094 -0.10900
C 	C 	0.58080 0.92528 0.44908 0.37800
C 	C 	0.60170 0.81060 0.36153 -0.04800
C 	C 	0.56810 0.85682 0.38207 -0.00900
C 	C 	0.53920 0.78443 0.31919 0.38400
C 	C 	0.67010 0.19460 0.17771 0.38000
C 	C 	0.97210 0.23315 0.04470 -0.00800
C 	C 	0.83400 0.17055 0.05856 0.17100
C 	C 	0.80150 0.19093 0.10441 -0.12000
C 	C 	0.71400 0.16989 0.12939 -0.04400
C 	C 	0.65970 0.12861 0.10859 -0.01300
C 	C 	0.69430 0.10764 0.06310 -0.04700
C 	C 	0.78090 0.12794 0.03816 -0.11000
C 	C 	0.63070 0.06499 0.03847 0.37500
C 	C 	0.11230 0.20535 0.98269 -0.00000
C 	C 	0.37770 0.12222 0.92339 -0.04800
C 	C 	0.28770 0.14721 0.94376 -0.11800
C 	C 	0.25410 0.19278 0.92230 0.17400
C 	C 	0.30990 0.21406 0.88094 -0.11000
C 	C 	0.41920 0.07472 0.94908 0.37800
C 	C 	0.39830 0.18940 0.86153 -0.04800
C 	C 	0.43190 0.14318 0.88207 -0.01000
C 	C 	0.46080 0.21557 0.81919 0.38400
C 	C 	0.67010 0.30540 0.82229 0.38000
C 	C 	0.97210 0.26685 0.95530 -0.00700
C 	C 	0.83400 0.32945 0.94144 0.17100
C 	C 	0.80150 0.30907 0.89559 -0.12000
C 	C 	0.71400 0.33011 0.87061 -0.04500
C 	C 	0.65970 0.37139 0.89141 -0.01200
C 	C 	0.69430 0.39236 0.93690 -0.04800
C 	C 	0.78090 0.37206 0.96184 -0.10900
C 	C 	0.63070 0.43501 0.96153 0.37900
C 	C 	0.11230 0.29465 0.01731 -0.00800
C 	C 	0.37770 0.37778 0.07661 -0.04900
C 	C 	0.28770 0.35279 0.05624 -0.11700
C 	C 	0.25410 0.30722 0.07770 0.17200
C 	C 	0.30990 0.28594 0.11906 -0.10900
C 	C 	0.41920 0.42528 0.05092 0.37900
C 	C 	0.39830 0.31060 0.13847 -0.04900
C 	C 	0.43190 0.35682 0.11793 -0.00900
C 	C 	0.46080 0.28443 0.18081 0.38400
C 	C 	0.32990 0.69460 0.32229 0.38000
C 	C 	0.02790 0.73315 0.45530 -0.01000
C 	C 	0.16600 0.67055 0.44144 0.17100
C 	C 	0.19850 0.69093 0.39559 -0.12000
C 	C 	0.28600 0.66989 0.37061 -0.04500
C 	C 	0.34030 0.62861 0.39141 -0.01200
C 	C 	0.30570 0.60764 0.43690 -0.04800
C 	C 	0.21910 0.62794 0.46184 -0.10900
C 	C 	0.36930 0.56499 0.46153 0.37800
C 	C 	0.88770 0.70535 0.51731 -0.00700
C 	C 	0.62230 0.62222 0.57661 -0.04900
C 	C 	0.71230 0.64721 0.55624 -0.11700
C 	C 	0.74590 0.69278 0.57770 0.17300
C 	C 	0.69010 0.71406 0.61906 -0.10900
C 	C 	0.58080 0.57472 0.55092 0.37900
C 	C 	0.60170 0.68940 0.63847 -0.04800
C 	C 	0.56810 0.64318 0.61793 -0.00900
C 	C 	0.53920 0.71557 0.68081 0.38400
C 	C 	0.67010 0.19460 0.32229 0.38000
C 	C 	0.97210 0.23315 0.45530 -0.01100
C 	C 	0.83400 0.17055 0.44144 0.17100
C 	C 	0.80150 0.19093 0.39559 -0.12000
C 	C 	0.71400 0.16989 0.37061 -0.04500
C 	C 	0.65970 0.12861 0.39141 -0.01200
C 	C 	0.69430 0.10764 0.43690 -0.04800
C 	C 	0.78090 0.12794 0.46184 -0.10900
C 	C 	0.63070 0.06499 0.46153 0.37800
C 	C 	0.11230 0.20535 0.51731 -0.00800
C 	C 	0.37770 0.12222 0.57661 -0.04900
C 	C 	0.28770 0.14721 0.55624 -0.11700
C 	C 	0.25410 0.19278 0.57770 0.17300
C 	C 	0.30990 0.21406 0.61906 -0.10900
C 	C 	0.41920 0.07472 0.55092 0.37800
C 	C 	0.39830 0.18940 0.63847 -0.04800
C 	C 	0.43190 0.14318 0.61793 -0.00900
C 	C 	0.46080 0.21557 0.68081 0.38400
C 	C 	0.32990 0.80540 0.82229 0.38000
C 	C 	0.02790 0.76685 0.95530 -0.01000
C 	C 	0.16600 0.82945 0.94144 0.17100
C 	C 	0.19850 0.80907 0.89559 -0.12000
C 	C 	0.28600 0.83011 0.87061 -0.04400
C 	C 	0.34030 0.87139 0.89141 -0.01200
C 	C 	0.30570 0.89236 0.93690 -0.04700
C 	C 	0.21910 0.87206 0.96184 -0.10900
C 	C 	0.36930 0.93501 0.96153 0.37600
C 	C 	0.88770 0.79465 0.01731 -0.00600
C 	C 	0.62230 0.87778 0.07661 -0.04800
C 	C 	0.71230 0.85279 0.05624 -0.11700
C 	C 	0.74590 0.80722 0.07770 0.17300
C 	C 	0.69010 0.78594 0.11906 -0.10900
C 	C 	0.58080 0.92528 0.05092 0.37800
C 	C 	0.60170 0.81060 0.13847 -0.04800
C 	C 	0.56810 0.85682 0.11793 -0.00900
C 	C 	0.53920 0.78443 0.18081 0.38400
C 	C 	0.32990 0.69460 0.17771 0.38000
C 	C 	0.02790 0.73315 0.04470 -0.01000
C 	C 	0.16600 0.67055 0.05856 0.17100
C 	C 	0.19850 0.69093 0.10441 -0.12000
C 	C 	0.28600 0.66989 0.12939 -0.04500
C 	C 	0.34030 0.62861 0.10859 -0.01200
C 	C 	0.30570 0.60764 0.06310 -0.04800
C 	C 	0.21910 0.62794 0.03816 -0.10900
C 	C 	0.36930 0.56499 0.03847 0.37700
C 	C 	0.88770 0.70535 0.98269 -0.00800
C 	C 	0.62230 0.62222 0.92339 -0.04900
C 	C 	0.71230 0.64721 0.94376 -0.11700
C 	C 	0.74590 0.69278 0.92230 0.17300
C 	C 	0.69010 0.71406 0.88094 -0.10900
C 	C 	0.58080 0.57472 0.94908 0.37800
C 	C 	0.60170 0.68940 0.86153 -0.04800
C 	C 	0.56810 0.64318 0.88207 -0.00900
C 	C 	0.53920 0.71557 0.81919 0.38400
C 	C 	0.67010 0.30540 0.67771 0.38000
C 	C 	0.97210 0.26685 0.54470 -0.01100
C 	C 	0.83400 0.32945 0.55856 0.17100
C 	C 	0.80150 0.30907 0.60441 -0.12000
C 	C 	0.71400 0.33011 0.62939 -0.04500
C 	C 	0.65970 0.37139 0.60859 -0.01200
C 	C 	0.69430 0.39236 0.56310 -0.04800
C 	C 	0.78090 0.37206 0.53816 -0.10900
C 	C 	0.63070 0.43501 0.53847 0.37800
C 	C 	0.11230 0.29465 0.48269 -0.00800
C 	C 	0.37770 0.37778 0.42339 -0.04900
C 	C 	0.28770 0.35279 0.44376 -0.11700
C 	C 	0.25410 0.30722 0.42230 0.17300
C 	C 	0.30990 0.28594 0.38094 -0.10900
C 	C 	0.41920 0.42528 0.44908 0.37900
C 	C 	0.39830 0.31060 0.36153 -0.04800
C 	C 	0.43190 0.35682 0.38207 -0.00900
C 	C 	0.46080 0.28443 0.31919 0.38400
C 	C 	0.95850 0.75000 0.50000 0.03100
C 	C 	0.04150 0.25000 -0.00000 0.02700
C 	C 	0.04150 0.25000 0.50000 0.03200
C 	C 	0.95850 0.75000 -0.00000 0.03100
O 	O 	0.41030 0.82737 0.69716 -0.48400
O 	O 	0.28620 0.76619 0.69414 -0.47300
O 	O 	0.08530 0.81112 0.52835 -0.22000
O 	O 	0.33300 0.95461 0.49829 -0.46900
O 	O 	0.45490 0.94715 0.56008 -0.48300
O 	O 	0.82810 0.77807 0.43958 -0.22300
O 	O 	0.62590 0.93866 0.48937 -0.47400
O 	O 	0.45590 0.80614 0.30424 -0.47100
O 	O 	0.50220 0.94693 0.42823 -0.46900
O 	O 	0.57610 0.74294 0.30368 -0.48100
O 	O 	0.58970 0.17263 0.19716 -0.48400
O 	O 	0.71380 0.23381 0.19414 -0.47300
O 	O 	0.91470 0.18888 0.02835 -0.22100
O 	O 	0.66700 0.04539 0.99829 -0.46600
O 	O 	0.54510 0.05285 0.06008 -0.48300
O 	O 	0.17190 0.22193 0.93958 -0.22400
O 	O 	0.37410 0.06134 0.98937 -0.47300
O 	O 	0.54410 0.19386 0.80424 -0.47100
O 	O 	0.49780 0.05307 0.92823 -0.46900
O 	O 	0.42390 0.25706 0.80368 -0.48100
O 	O 	0.58970 0.32737 0.80284 -0.48400
O 	O 	0.71380 0.26619 0.80586 -0.47300
O 	O 	0.91470 0.31112 0.97165 -0.22000
O 	O 	0.66700 0.45461 0.00171 -0.47100
O 	O 	0.54510 0.44715 0.93992 -0.48300
O 	O 	0.17190 0.27807 0.06042 -0.22300
O 	O 	0.37410 0.43866 0.01063 -0.47500
O 	O 	0.54410 0.30614 0.19576 -0.47200
O 	O 	0.49780 0.44693 0.07177 -0.47000
O 	O 	0.42390 0.24294 0.19632 -0.48100
O 	O 	0.41030 0.67263 0.30284 -0.48400
O 	O 	0.28620 0.73381 0.30586 -0.47300
O 	O 	0.08530 0.68888 0.47165 -0.22000
O 	O 	0.33300 0.54539 0.50171 -0.46900
O 	O 	0.45490 0.55285 0.43992 -0.48300
O 	O 	0.82810 0.72193 0.56042 -0.22300
O 	O 	0.62590 0.56134 0.51063 -0.47500
O 	O 	0.45590 0.69386 0.69576 -0.47200
O 	O 	0.50220 0.55307 0.57177 -0.47000
O 	O 	0.57610 0.75706 0.69632 -0.48100
O 	O 	0.58970 0.17263 0.30284 -0.48400
O 	O 	0.71380 0.23381 0.30586 -0.47300
O 	O 	0.91470 0.18888 0.47165 -0.22000
O 	O 	0.66700 0.04539 0.50171 -0.46900
O 	O 	0.54510 0.05285 0.43992 -0.48300
O 	O 	0.17190 0.22193 0.56042 -0.22300
O 	O 	0.37410 0.06134 0.51063 -0.47400
O 	O 	0.54410 0.19386 0.69576 -0.47100
O 	O 	0.49780 0.05307 0.57177 -0.46900
O 	O 	0.42390 0.25706 0.69632 -0.48100
O 	O 	0.41030 0.82737 0.80284 -0.48400
O 	O 	0.28620 0.76619 0.80586 -0.47300
O 	O 	0.08530 0.81112 0.97165 -0.22000
O 	O 	0.33300 0.95461 0.00171 -0.46800
O 	O 	0.45490 0.94715 0.93992 -0.48300
O 	O 	0.82810 0.77807 0.06042 -0.22300
O 	O 	0.62590 0.93866 0.01063 -0.47400
O 	O 	0.45590 0.80614 0.19576 -0.47100
O 	O 	0.50220 0.94693 0.07177 -0.46900
O 	O 	0.57610 0.74294 0.19632 -0.48100
O 	O 	0.41030 0.67263 0.19716 -0.48400
O 	O 	0.28620 0.73381 0.19414 -0.47300
O 	O 	0.08530 0.68888 0.02835 -0.22000
O 	O 	0.33300 0.54539 0.99829 -0.46900
O 	O 	0.45490 0.55285 0.06008 -0.48300
O 	O 	0.82810 0.72193 0.93958 -0.22300
O 	O 	0.62590 0.56134 0.98937 -0.47400
O 	O 	0.45590 0.69386 0.80424 -0.47200
O 	O 	0.50220 0.55307 0.92823 -0.47000
O 	O 	0.57610 0.75706 0.80368 -0.48100
O 	O 	0.58970 0.32737 0.69716 -0.48400
O 	O 	0.71380 0.26619 0.69414 -0.47300
O 	O 	0.91470 0.31112 0.52835 -0.22000
O 	O 	0.66700 0.45461 0.49829 -0.46900
O 	O 	0.54510 0.44715 0.56008 -0.48300
O 	O 	0.17190 0.27807 0.43958 -0.22300
O 	O 	0.37410 0.43866 0.48937 -0.47500
O 	O 	0.54410 0.30614 0.30424 -0.47200
O 	O 	0.49780 0.44693 0.42823 -0.47000
O 	O 	0.42390 0.24294 0.30368 -0.48100
