data_crystal

_cell_length_a 21.88300
_cell_length_b 21.88300
_cell_length_c 40.18400
_cell_angle_alpha 90.00000
_cell_angle_beta  90.00000
_cell_angle_gamma 90.00000

_symmetry_space_group_name_	'P 1'
_symmetry_space_group_name_H-M	'P 1'

loop_
_symmetry_equiv_pos_as_xyz
  x,y,z

loop_
_atom_site_label
_atom_site_type_symbol
_atom_site_fract_x
_atom_site_fract_y
_atom_site_fract_z
_atom_site_charge
Zn	Zn	0.81815 0.98971 0.71423 1.23900
Zn	Zn	0.26248 0.43103 0.96485 1.24000
Zn	Zn	0.77967 0.34323 0.71025 1.18900
Zn	Zn	0.19345 0.51765 0.02536 1.19300
Zn	Zn	0.74044 0.91381 0.77389 1.19700
Zn	Zn	0.19075 0.92763 0.98954 1.20700
Zn	Zn	0.62981 0.46669 0.96705 1.22700
Zn	Zn	0.20024 0.96973 0.74438 1.18400
Zn	Zn	0.65560 0.39563 0.74446 1.17200
Zn	Zn	0.74917 0.42299 0.01151 1.17000
Zn	Zn	0.68185 0.01029 0.21423 1.24000
Zn	Zn	0.23752 0.56897 0.46485 1.24100
Zn	Zn	0.72033 0.65677 0.21025 1.19000
Zn	Zn	0.30655 0.48235 0.52536 1.19400
Zn	Zn	0.75956 0.08619 0.27389 1.19700
Zn	Zn	0.30925 0.07237 0.48954 1.20700
Zn	Zn	0.87019 0.53331 0.46705 1.22700
Zn	Zn	0.29976 0.03027 0.24438 1.18400
Zn	Zn	0.84440 0.60437 0.24446 1.17200
Zn	Zn	0.75083 0.57701 0.51151 1.17000
Zn	Zn	0.18185 0.48971 0.78577 1.24000
Zn	Zn	0.73752 0.93103 0.53515 1.24100
Zn	Zn	0.22033 0.84323 0.78975 1.19000
Zn	Zn	0.80655 0.01765 0.47464 1.19400
Zn	Zn	0.25956 0.41381 0.72611 1.19700
Zn	Zn	0.80925 0.42763 0.51046 1.20700
Zn	Zn	0.37019 0.96669 0.53295 1.22700
Zn	Zn	0.79976 0.46973 0.75562 1.18400
Zn	Zn	0.34440 0.89563 0.75554 1.17200
Zn	Zn	0.25083 0.92299 0.48849 1.17000
Zn	Zn	0.31815 0.51029 0.28577 1.24000
Zn	Zn	0.76248 0.06897 0.03515 1.24100
Zn	Zn	0.27967 0.15677 0.28975 1.19000
Zn	Zn	0.69345 0.98235 0.97464 1.19400
Zn	Zn	0.24044 0.58619 0.22611 1.19700
Zn	Zn	0.69075 0.57237 0.01046 1.20700
Zn	Zn	0.12981 0.03331 0.03295 1.22700
Zn	Zn	0.70024 0.53027 0.25562 1.18400
Zn	Zn	0.15560 0.10437 0.25554 1.17200
Zn	Zn	0.24917 0.07701 0.98849 1.17000
H 	H 	0.26260 0.40820 0.85280 0.05600
H 	H 	0.37180 0.28600 0.89670 0.08500
H 	H 	0.35070 0.28960 0.79640 0.07100
H 	H 	0.46440 0.24870 0.87630 0.04500
H 	H 	0.41650 0.19870 0.88680 0.04400
H 	H 	0.56070 0.12090 0.88090 0.03900
H 	H 	0.50880 0.13720 0.90660 0.03900
H 	H 	0.54470 0.21930 0.83250 0.04100
H 	H 	0.49420 0.19060 0.80950 0.03600
H 	H 	0.61190 0.12220 0.93090 0.06900
H 	H 	0.70510 0.23520 0.99170 0.03800
H 	H 	0.59300 0.30240 0.92180 0.08500
H 	H 	0.63150 0.05760 0.79680 0.06700
H 	H 	0.73590 0.16160 0.73670 0.04100
H 	H 	0.59370 0.23430 0.78460 0.07100
H 	H 	0.38900 0.00990 0.83270 0.06600
H 	H 	0.47780 0.07330 0.84460 0.03000
H 	H 	0.42100 0.11270 0.83370 0.03200
H 	H 	0.36230 0.05010 0.92950 0.05700
H 	H 	0.26900 0.91670 0.88700 0.04200
H 	H 	0.71450 0.50370 0.88040 0.05300
H 	H 	0.80080 0.63460 0.92810 0.08100
H 	H 	0.84720 0.59720 0.83340 0.09400
H 	H 	0.85220 0.73420 0.91030 0.02900
H 	H 	0.89370 0.68090 0.92380 0.03700
H 	H 	0.89560 0.81310 0.87390 0.03300
H 	H 	0.91260 0.76130 0.84840 0.03500
H 	H 	0.88920 0.86160 0.82140 0.06600
H 	H 	0.99300 0.94820 0.75460 0.05500
H 	H 	0.07230 0.85510 0.83030 0.07000
H 	H 	0.02730 0.72560 0.87620 0.04300
H 	H 	0.97870 0.67600 0.86590 0.04800
H 	H 	0.06040 0.62370 0.85540 0.08800
H 	H 	0.17350 0.50330 0.89510 0.06900
H 	H 	0.06880 0.60710 0.95430 0.08000
H 	H 	0.83830 0.88360 0.95820 0.06600
H 	H 	0.99990 0.80670 0.91900 0.04700
H 	H 	0.98070 0.75290 0.94290 0.04700
H 	H 	0.01900 0.85530 0.96440 0.07100
H 	H 	0.94580 0.99660 0.01240 0.04700
H 	H 	0.23740 0.59180 0.35280 0.05600
H 	H 	0.12820 0.71400 0.39670 0.08500
H 	H 	0.14930 0.71040 0.29640 0.07100
H 	H 	0.03560 0.75130 0.37630 0.04500
H 	H 	0.08350 0.80130 0.38680 0.04400
H 	H 	0.93930 0.87910 0.38090 0.03900
H 	H 	0.99120 0.86280 0.40660 0.03900
H 	H 	0.95530 0.78070 0.33250 0.04100
H 	H 	0.00580 0.80940 0.30950 0.03600
H 	H 	0.88810 0.87780 0.43090 0.06900
H 	H 	0.79490 0.76480 0.49170 0.03800
H 	H 	0.90700 0.69760 0.42180 0.08500
H 	H 	0.86850 0.94240 0.29680 0.06700
H 	H 	0.76410 0.83840 0.23670 0.04100
H 	H 	0.90630 0.76570 0.28460 0.07100
H 	H 	0.11100 0.99010 0.33270 0.06600
H 	H 	0.02220 0.92670 0.34460 0.03000
H 	H 	0.07900 0.88730 0.33370 0.03200
H 	H 	0.13770 0.94990 0.42950 0.05700
H 	H 	0.23100 0.08330 0.38700 0.04200
H 	H 	0.78550 0.49630 0.38040 0.05300
H 	H 	0.69920 0.36540 0.42810 0.08100
H 	H 	0.65280 0.40280 0.33340 0.09400
H 	H 	0.64780 0.26580 0.41030 0.02900
H 	H 	0.60630 0.31910 0.42380 0.03700
H 	H 	0.60440 0.18690 0.37390 0.03300
H 	H 	0.58740 0.23870 0.34840 0.03500
H 	H 	0.61080 0.13840 0.32140 0.06700
H 	H 	0.50700 0.05180 0.25460 0.05500
H 	H 	0.42770 0.14490 0.33030 0.07000
H 	H 	0.47270 0.27440 0.37620 0.04200
H 	H 	0.52130 0.32400 0.36590 0.04800
H 	H 	0.43960 0.37630 0.35540 0.08800
H 	H 	0.32650 0.49670 0.39510 0.06900
H 	H 	0.43120 0.39290 0.45430 0.08000
H 	H 	0.66170 0.11640 0.45820 0.06600
H 	H 	0.50010 0.19330 0.41900 0.04700
H 	H 	0.51930 0.24710 0.44290 0.04700
H 	H 	0.48100 0.14470 0.46440 0.07100
H 	H 	0.55420 0.00340 0.51240 0.04700
H 	H 	0.73740 0.90820 0.64720 0.05600
H 	H 	0.62820 0.78600 0.60330 0.08500
H 	H 	0.64930 0.78960 0.70360 0.07100
H 	H 	0.53560 0.74870 0.62370 0.04500
H 	H 	0.58350 0.69870 0.61320 0.04400
H 	H 	0.43930 0.62090 0.61910 0.03900
H 	H 	0.49120 0.63720 0.59340 0.03900
H 	H 	0.45530 0.71930 0.66750 0.04100
H 	H 	0.50580 0.69060 0.69050 0.03600
H 	H 	0.38810 0.62220 0.56910 0.06900
H 	H 	0.29490 0.73520 0.50830 0.03800
H 	H 	0.40700 0.80240 0.57820 0.08500
H 	H 	0.36850 0.55760 0.70320 0.06700
H 	H 	0.26410 0.66160 0.76330 0.04100
H 	H 	0.40630 0.73430 0.71540 0.07100
H 	H 	0.61100 0.50990 0.66730 0.06600
H 	H 	0.52220 0.57330 0.65540 0.03000
H 	H 	0.57900 0.61270 0.66630 0.03200
H 	H 	0.63770 0.55010 0.57050 0.05800
H 	H 	0.73100 0.41670 0.61300 0.04200
H 	H 	0.28550 0.00370 0.61960 0.05300
H 	H 	0.19920 0.13460 0.57190 0.08100
H 	H 	0.15280 0.09720 0.66660 0.09400
H 	H 	0.14780 0.23420 0.58970 0.02900
H 	H 	0.10630 0.18090 0.57620 0.03700
H 	H 	0.10440 0.31310 0.62610 0.03300
H 	H 	0.08740 0.26130 0.65160 0.03500
H 	H 	0.11080 0.36160 0.67860 0.06700
H 	H 	0.00700 0.44820 0.74540 0.05500
H 	H 	0.92770 0.35510 0.66970 0.07000
H 	H 	0.97270 0.22560 0.62380 0.04300
H 	H 	0.02130 0.17600 0.63410 0.04800
H 	H 	0.93960 0.12370 0.64460 0.08800
H 	H 	0.82650 0.00330 0.60490 0.06900
H 	H 	0.93120 0.10710 0.54570 0.08000
H 	H 	0.16170 0.38360 0.54180 0.06600
H 	H 	0.00010 0.30670 0.58100 0.04700
H 	H 	0.01930 0.25290 0.55710 0.04700
H 	H 	0.98100 0.35530 0.53560 0.07100
H 	H 	0.05420 0.49660 0.48760 0.04700
H 	H 	0.76260 0.09180 0.14720 0.05600
H 	H 	0.87180 0.21400 0.10330 0.08500
H 	H 	0.85070 0.21040 0.20360 0.07100
H 	H 	0.96440 0.25130 0.12370 0.04500
H 	H 	0.91650 0.30130 0.11320 0.04400
H 	H 	0.06070 0.37910 0.11910 0.03900
H 	H 	0.00880 0.36280 0.09340 0.03900
H 	H 	0.04470 0.28070 0.16750 0.04100
H 	H 	0.99420 0.30940 0.19050 0.03600
H 	H 	0.11190 0.37780 0.06910 0.06900
H 	H 	0.20510 0.26480 0.00830 0.03800
H 	H 	0.09300 0.19760 0.07820 0.08500
H 	H 	0.13150 0.44240 0.20320 0.06600
H 	H 	0.23590 0.33840 0.26330 0.04100
H 	H 	0.09370 0.26570 0.21540 0.07100
H 	H 	0.88900 0.49010 0.16730 0.06600
H 	H 	0.97780 0.42670 0.15540 0.03000
H 	H 	0.92100 0.38730 0.16630 0.03200
H 	H 	0.86230 0.44990 0.07050 0.05800
H 	H 	0.76900 0.58330 0.11300 0.04200
H 	H 	0.21450 0.99630 0.11960 0.05300
H 	H 	0.30080 0.86540 0.07190 0.08100
H 	H 	0.34720 0.90280 0.16660 0.09400
H 	H 	0.35220 0.76580 0.08970 0.02900
H 	H 	0.39370 0.81910 0.07620 0.03700
H 	H 	0.39560 0.68690 0.12610 0.03300
H 	H 	0.41260 0.73870 0.15160 0.03500
H 	H 	0.38920 0.63840 0.17860 0.06700
H 	H 	0.49300 0.55180 0.24540 0.05500
H 	H 	0.57230 0.64490 0.16970 0.07000
H 	H 	0.52730 0.77440 0.12380 0.04200
H 	H 	0.47870 0.82400 0.13410 0.04800
H 	H 	0.56040 0.87630 0.14460 0.08800
H 	H 	0.67350 0.99670 0.10490 0.06900
H 	H 	0.56880 0.89290 0.04570 0.08000
H 	H 	0.33830 0.61640 0.04180 0.06600
H 	H 	0.49990 0.69330 0.08100 0.04700
H 	H 	0.48070 0.74710 0.05710 0.04700
H 	H 	0.51900 0.64470 0.03560 0.07100
H 	H 	0.44580 0.50340 0.98760 0.04700
C 	C 	0.87740 0.92690 0.76924 0.40600
C 	C 	0.72720 0.04510 0.75717 0.42200
C 	C 	0.27650 0.38160 0.78970 0.45000
C 	C 	0.30190 0.35240 0.81967 -0.10700
C 	C 	0.28990 0.37580 0.85101 0.01400
C 	C 	0.31570 0.35390 0.87888 -0.05400
C 	C 	0.35520 0.30240 0.87739 -0.12000
C 	C 	0.36870 0.27660 0.84605 0.16400
C 	C 	0.34120 0.30480 0.81734 -0.08100
C 	C 	0.44180 0.21320 0.86863 0.00600
C 	C 	0.48600 0.16340 0.85803 0.00600
C 	C 	0.53070 0.15150 0.88710 0.00900
C 	C 	0.52180 0.18230 0.82778 0.01700
C 	C 	0.59840 0.21120 0.92049 0.15900
C 	C 	0.62240 0.16180 0.93703 -0.10000
C 	C 	0.66360 0.17260 0.96375 -0.08500
C 	C 	0.67780 0.22930 0.97430 0.02400
C 	C 	0.65080 0.27830 0.95868 -0.09300
C 	C 	0.61120 0.26890 0.93200 -0.09100
C 	C 	0.66430 0.34230 0.97049 0.44300
C 	C 	0.60750 0.14630 0.79526 0.14300
C 	C 	0.64110 0.09520 0.78730 -0.08400
C 	C 	0.68950 0.10000 0.76503 -0.09400
C 	C 	0.70270 0.15710 0.75098 0.02200
C 	C 	0.66650 0.20600 0.75842 -0.08900
C 	C 	0.61850 0.20070 0.78018 -0.09300
C 	C 	0.68060 0.26650 0.74450 0.39400
C 	C 	0.31210 0.92230 0.82370 0.42100
C 	C 	0.32610 0.95950 0.85507 -0.08900
C 	C 	0.36830 0.00400 0.85262 -0.10000
C 	C 	0.38120 0.04170 0.88012 0.15100
C 	C 	0.45040 0.10580 0.85137 0.02400
C 	C 	0.35270 0.02770 0.91047 -0.10100
C 	C 	0.31110 0.98140 0.91213 -0.07900
C 	C 	0.29760 0.94790 0.88540 0.01100
C 	C 	0.27910 0.97180 0.94521 0.34600
C 	C 	0.10720 0.92250 0.77963 0.35000
C 	C 	0.77370 0.50340 0.82144 0.34700
C 	C 	0.78040 0.54270 0.85211 -0.04800
C 	C 	0.74520 0.53310 0.88065 -0.01500
C 	C 	0.75490 0.56500 0.90778 -0.06200
C 	C 	0.71890 0.55090 0.93869 0.38100
C 	C 	0.05170 0.94880 0.00102 0.37900
C 	C 	0.79530 0.61230 0.90865 -0.12600
C 	C 	0.82840 0.62720 0.88022 0.18200
C 	C 	0.82290 0.59020 0.85196 -0.12400
C 	C 	0.88540 0.70680 0.90468 0.03000
C 	C 	0.94260 0.74320 0.89520 0.00900
C 	C 	0.92740 0.78470 0.86719 0.02200
C 	C 	0.97950 0.85050 0.82979 0.15400
C 	C 	0.92780 0.87150 0.81343 -0.09700
C 	C 	0.93360 0.90620 0.78615 -0.08200
C 	C 	0.99020 0.92400 0.77359 0.00100
C 	C 	0.04400 0.90390 0.79068 -0.06800
C 	C 	0.03780 0.86790 0.81873 -0.10200
C 	C 	0.99290 0.70170 0.88405 0.00600
C 	C 	0.05480 0.62090 0.90552 0.16400
C 	C 	0.07560 0.60390 0.87420 -0.12400
C 	C 	0.11780 0.55880 0.87062 -0.03100
C 	C 	0.13770 0.54050 0.83676 0.30600
C 	C 	0.14440 0.53390 0.89766 -0.01000
C 	C 	0.12810 0.55440 0.93029 -0.08800
C 	C 	0.08210 0.59560 0.93325 -0.09300
C 	C 	0.15740 0.52750 0.95923 0.43800
C 	C 	0.69180 0.11720 0.98068 0.43000
C 	C 	0.30360 0.37560 0.91570 0.39400
C 	C 	0.82380 0.97910 0.99720 0.45900
C 	C 	0.88030 0.94530 0.98866 -0.10500
C 	C 	0.87610 0.89470 0.96694 -0.08400
C 	C 	0.92690 0.86230 0.95864 0.15200
C 	C 	0.96650 0.78020 0.92557 -0.00300
C 	C 	0.98480 0.87810 0.97036 -0.09400
C 	C 	0.99060 0.92860 0.99103 -0.08600
C 	C 	0.94080 0.96190 0.99937 0.02600
C 	C 	0.62260 0.07310 0.26924 0.40600
C 	C 	0.77280 0.95490 0.25717 0.42200
C 	C 	0.22350 0.61840 0.28970 0.45000
C 	C 	0.19810 0.64760 0.31967 -0.10700
C 	C 	0.21010 0.62420 0.35101 0.01400
C 	C 	0.18430 0.64610 0.37888 -0.05400
C 	C 	0.14480 0.69760 0.37739 -0.12000
C 	C 	0.13130 0.72340 0.34605 0.16400
C 	C 	0.15880 0.69520 0.31734 -0.08100
C 	C 	0.05820 0.78680 0.36863 0.00600
C 	C 	0.01400 0.83660 0.35803 0.00600
C 	C 	0.96930 0.84850 0.38710 0.00900
C 	C 	0.97820 0.81770 0.32778 0.01700
C 	C 	0.90160 0.78880 0.42049 0.15900
C 	C 	0.87760 0.83820 0.43703 -0.10100
C 	C 	0.83640 0.82740 0.46375 -0.08500
C 	C 	0.82220 0.77070 0.47430 0.02400
C 	C 	0.84920 0.72170 0.45868 -0.09300
C 	C 	0.88880 0.73110 0.43200 -0.09100
C 	C 	0.83570 0.65770 0.47049 0.44300
C 	C 	0.89250 0.85370 0.29526 0.14300
C 	C 	0.85890 0.90480 0.28730 -0.08400
C 	C 	0.81050 0.90000 0.26503 -0.09400
C 	C 	0.79730 0.84290 0.25098 0.02200
C 	C 	0.83350 0.79400 0.25842 -0.08900
C 	C 	0.88150 0.79930 0.28018 -0.09300
C 	C 	0.81940 0.73350 0.24450 0.39400
C 	C 	0.18790 0.07770 0.32370 0.42100
C 	C 	0.17390 0.04050 0.35507 -0.08800
C 	C 	0.13170 0.99600 0.35262 -0.10000
C 	C 	0.11880 0.95830 0.38012 0.15200
C 	C 	0.04960 0.89420 0.35137 0.02400
C 	C 	0.14730 0.97230 0.41047 -0.10200
C 	C 	0.18890 0.01860 0.41213 -0.07900
C 	C 	0.20240 0.05210 0.38540 0.01100
C 	C 	0.22090 0.02820 0.44521 0.34600
C 	C 	0.39280 0.07750 0.27963 0.35000
C 	C 	0.72630 0.49660 0.32144 0.34700
C 	C 	0.71960 0.45730 0.35211 -0.04800
C 	C 	0.75480 0.46690 0.38065 -0.01500
C 	C 	0.74510 0.43500 0.40778 -0.06200
C 	C 	0.78110 0.44910 0.43869 0.38100
C 	C 	0.44830 0.05120 0.50102 0.37800
C 	C 	0.70470 0.38770 0.40865 -0.12600
C 	C 	0.67160 0.37280 0.38022 0.18200
C 	C 	0.67710 0.40980 0.35196 -0.12400
C 	C 	0.61460 0.29320 0.40468 0.03000
C 	C 	0.55740 0.25680 0.39520 0.00900
C 	C 	0.57260 0.21530 0.36719 0.02200
C 	C 	0.52050 0.14950 0.32979 0.15400
C 	C 	0.57220 0.12850 0.31343 -0.09700
C 	C 	0.56640 0.09380 0.28615 -0.08200
C 	C 	0.50980 0.07600 0.27359 0.00100
C 	C 	0.45600 0.09610 0.29068 -0.06800
C 	C 	0.46220 0.13210 0.31873 -0.10200
C 	C 	0.50710 0.29830 0.38405 0.00600
C 	C 	0.44520 0.37910 0.40552 0.16400
C 	C 	0.42440 0.39610 0.37420 -0.12400
C 	C 	0.38220 0.44120 0.37062 -0.03100
C 	C 	0.36230 0.45950 0.33676 0.30600
C 	C 	0.35560 0.46610 0.39766 -0.01000
C 	C 	0.37190 0.44560 0.43029 -0.08800
C 	C 	0.41790 0.40440 0.43325 -0.09300
C 	C 	0.34260 0.47250 0.45923 0.43800
C 	C 	0.80820 0.88280 0.48068 0.43000
C 	C 	0.19640 0.62440 0.41570 0.39400
C 	C 	0.67620 0.02090 0.49720 0.45900
C 	C 	0.61970 0.05470 0.48866 -0.10500
C 	C 	0.62390 0.10530 0.46694 -0.08300
C 	C 	0.57310 0.13770 0.45864 0.15200
C 	C 	0.53350 0.21980 0.42557 -0.00400
C 	C 	0.51520 0.12190 0.47036 -0.09300
C 	C 	0.50940 0.07140 0.49103 -0.08600
C 	C 	0.55920 0.03810 0.49937 0.02700
C 	C 	0.12260 0.42690 0.73076 0.40600
C 	C 	0.27280 0.54510 0.74283 0.42200
C 	C 	0.72350 0.88160 0.71030 0.45000
C 	C 	0.69810 0.85240 0.68033 -0.10700
C 	C 	0.71010 0.87580 0.64899 0.01400
C 	C 	0.68430 0.85390 0.62112 -0.05400
C 	C 	0.64480 0.80240 0.62261 -0.12000
C 	C 	0.63130 0.77660 0.65395 0.16400
C 	C 	0.65880 0.80480 0.68266 -0.08100
C 	C 	0.55820 0.71320 0.63137 0.00600
C 	C 	0.51400 0.66340 0.64197 0.00600
C 	C 	0.46930 0.65150 0.61290 0.00900
C 	C 	0.47820 0.68230 0.67222 0.01700
C 	C 	0.40160 0.71120 0.57951 0.15900
C 	C 	0.37760 0.66180 0.56297 -0.10100
C 	C 	0.33640 0.67260 0.53625 -0.08500
C 	C 	0.32220 0.72930 0.52570 0.02400
C 	C 	0.34920 0.77830 0.54132 -0.09300
C 	C 	0.38880 0.76890 0.56800 -0.09100
C 	C 	0.33570 0.84230 0.52951 0.44300
C 	C 	0.39250 0.64630 0.70474 0.14300
C 	C 	0.35890 0.59520 0.71270 -0.08400
C 	C 	0.31050 0.60000 0.73497 -0.09400
C 	C 	0.29730 0.65710 0.74902 0.02200
C 	C 	0.33350 0.70600 0.74158 -0.08900
C 	C 	0.38150 0.70070 0.71982 -0.09300
C 	C 	0.31940 0.76650 0.75550 0.39400
C 	C 	0.68790 0.42230 0.67630 0.42100
C 	C 	0.67390 0.45950 0.64493 -0.08700
C 	C 	0.63170 0.50400 0.64738 -0.10100
C 	C 	0.61880 0.54170 0.61988 0.15200
C 	C 	0.54960 0.60580 0.64863 0.02400
C 	C 	0.64730 0.52770 0.58953 -0.10300
C 	C 	0.68890 0.48140 0.58787 -0.07800
C 	C 	0.70240 0.44790 0.61460 0.01000
C 	C 	0.72090 0.47180 0.55479 0.34600
C 	C 	0.89280 0.42250 0.72037 0.35000
C 	C 	0.22630 0.00340 0.67856 0.34800
C 	C 	0.21960 0.04270 0.64789 -0.04800
C 	C 	0.25480 0.03310 0.61935 -0.01500
C 	C 	0.24510 0.06500 0.59222 -0.06200
C 	C 	0.28110 0.05090 0.56131 0.38100
C 	C 	0.94830 0.44880 0.49898 0.37800
C 	C 	0.20470 0.11230 0.59135 -0.12600
C 	C 	0.17160 0.12720 0.61978 0.18200
C 	C 	0.17710 0.09020 0.64804 -0.12300
C 	C 	0.11460 0.20680 0.59532 0.03000
C 	C 	0.05740 0.24320 0.60480 0.00900
C 	C 	0.07260 0.28470 0.63281 0.02200
C 	C 	0.02050 0.35050 0.67021 0.15400
C 	C 	0.07220 0.37150 0.68657 -0.09700
C 	C 	0.06640 0.40620 0.71385 -0.08200
C 	C 	0.00980 0.42400 0.72641 0.00100
C 	C 	0.95600 0.40390 0.70932 -0.06800
C 	C 	0.96220 0.36790 0.68127 -0.10200
C 	C 	0.00710 0.20170 0.61595 0.00600
C 	C 	0.94520 0.12090 0.59448 0.16400
C 	C 	0.92440 0.10390 0.62580 -0.12400
C 	C 	0.88220 0.05880 0.62938 -0.03100
C 	C 	0.86230 0.04050 0.66324 0.30700
C 	C 	0.85560 0.03390 0.60234 -0.01000
C 	C 	0.87190 0.05440 0.56971 -0.08800
C 	C 	0.91790 0.09560 0.56675 -0.09300
C 	C 	0.84260 0.02750 0.54077 0.43800
C 	C 	0.30820 0.61720 0.51932 0.43000
C 	C 	0.69640 0.87560 0.58430 0.39400
C 	C 	0.17620 0.47910 0.50280 0.45900
C 	C 	0.11970 0.44530 0.51134 -0.10500
C 	C 	0.12390 0.39470 0.53306 -0.08300
C 	C 	0.07310 0.36230 0.54136 0.15200
C 	C 	0.03350 0.28020 0.57443 -0.00400
C 	C 	0.01520 0.37810 0.52964 -0.09300
C 	C 	0.00940 0.42860 0.50897 -0.08600
C 	C 	0.05920 0.46190 0.50063 0.02700
C 	C 	0.37740 0.57310 0.23076 0.40600
C 	C 	0.22720 0.45490 0.24283 0.42200
C 	C 	0.77650 0.11840 0.21030 0.45000
C 	C 	0.80190 0.14760 0.18033 -0.10700
C 	C 	0.78990 0.12420 0.14899 0.01400
C 	C 	0.81570 0.14610 0.12112 -0.05400
C 	C 	0.85520 0.19760 0.12261 -0.12000
C 	C 	0.86870 0.22340 0.15395 0.16400
C 	C 	0.84120 0.19520 0.18266 -0.08100
C 	C 	0.94180 0.28680 0.13137 0.00600
C 	C 	0.98600 0.33660 0.14197 0.00600
C 	C 	0.03070 0.34850 0.11290 0.00900
C 	C 	0.02180 0.31770 0.17222 0.01700
C 	C 	0.09840 0.28880 0.07951 0.15900
C 	C 	0.12240 0.33820 0.06297 -0.10100
C 	C 	0.16360 0.32740 0.03625 -0.08500
C 	C 	0.17780 0.27070 0.02570 0.02400
C 	C 	0.15080 0.22170 0.04132 -0.09300
C 	C 	0.11120 0.23110 0.06800 -0.09100
C 	C 	0.16430 0.15770 0.02951 0.44300
C 	C 	0.10750 0.35370 0.20474 0.14300
C 	C 	0.14110 0.40480 0.21270 -0.08400
C 	C 	0.18950 0.40000 0.23497 -0.09400
C 	C 	0.20270 0.34290 0.24902 0.02200
C 	C 	0.16650 0.29400 0.24158 -0.08900
C 	C 	0.11850 0.29930 0.21982 -0.09300
C 	C 	0.18060 0.23350 0.25550 0.39400
C 	C 	0.81210 0.57770 0.17630 0.42100
C 	C 	0.82610 0.54050 0.14493 -0.08700
C 	C 	0.86830 0.49600 0.14738 -0.10100
C 	C 	0.88120 0.45830 0.11988 0.15200
C 	C 	0.95040 0.39420 0.14863 0.02400
C 	C 	0.85270 0.47230 0.08953 -0.10300
C 	C 	0.81110 0.51860 0.08787 -0.07800
C 	C 	0.79760 0.55210 0.11460 0.01000
C 	C 	0.77910 0.52820 0.05479 0.34600
C 	C 	0.60720 0.57750 0.22037 0.35000
C 	C 	0.27370 0.99660 0.17856 0.34800
C 	C 	0.28040 0.95730 0.14789 -0.04800
C 	C 	0.24520 0.96690 0.11935 -0.01500
C 	C 	0.25490 0.93500 0.09222 -0.06200
C 	C 	0.21890 0.94910 0.06131 0.38100
C 	C 	0.55170 0.55120 0.99898 0.37800
C 	C 	0.29530 0.88770 0.09135 -0.12600
C 	C 	0.32840 0.87280 0.11978 0.18200
C 	C 	0.32290 0.90980 0.14804 -0.12300
C 	C 	0.38540 0.79320 0.09532 0.03000
C 	C 	0.44260 0.75680 0.10480 0.00900
C 	C 	0.42740 0.71530 0.13281 0.02200
C 	C 	0.47950 0.64950 0.17021 0.15400
C 	C 	0.42780 0.62850 0.18657 -0.09700
C 	C 	0.43360 0.59380 0.21385 -0.08200
C 	C 	0.49020 0.57600 0.22641 0.00100
C 	C 	0.54400 0.59610 0.20932 -0.06800
C 	C 	0.53780 0.63210 0.18127 -0.10200
C 	C 	0.49290 0.79830 0.11595 0.00600
C 	C 	0.55480 0.87910 0.09448 0.16400
C 	C 	0.57560 0.89610 0.12580 -0.12400
C 	C 	0.61780 0.94120 0.12938 -0.03100
C 	C 	0.63770 0.95950 0.16324 0.30600
C 	C 	0.64440 0.96610 0.10234 -0.01000
C 	C 	0.62810 0.94560 0.06971 -0.08800
C 	C 	0.58210 0.90440 0.06675 -0.09300
C 	C 	0.65740 0.97250 0.04077 0.43800
C 	C 	0.19180 0.38280 0.01932 0.42900
C 	C 	0.80360 0.12440 0.08430 0.39400
C 	C 	0.32380 0.52090 0.00280 0.45900
C 	C 	0.38030 0.55470 0.01134 -0.10500
C 	C 	0.37610 0.60530 0.03306 -0.08400
C 	C 	0.42690 0.63770 0.04136 0.15200
C 	C 	0.46650 0.71980 0.07443 -0.00400
C 	C 	0.48480 0.62190 0.02964 -0.09300
C 	C 	0.49060 0.57140 0.00897 -0.08600
C 	C 	0.44080 0.53810 0.00063 0.02700
O 	O 	0.88238 0.95803 0.74247 -0.48400
O 	O 	0.82709 0.90909 0.78011 -0.54500
O 	O 	0.71310 0.99716 0.77139 -0.55100
O 	O 	0.76854 0.05194 0.73560 -0.49500
O 	O 	0.23850 0.42000 0.79203 -0.55000
O 	O 	0.29370 0.36378 0.76090 -0.52100
O 	O 	0.40437 0.22944 0.84102 -0.23300
O 	O 	0.56177 0.13551 0.81911 -0.22400
O 	O 	0.55998 0.20839 0.89388 -0.22300
O 	O 	0.64519 0.30957 0.75207 -0.53100
O 	O 	0.72541 0.27059 0.72447 -0.49300
O 	O 	0.62917 0.38243 0.95769 -0.52500
O 	O 	0.70360 0.35061 0.99027 -0.55700
O 	O 	0.75133 0.39587 0.75185 -0.70200
O 	O 	0.34488 0.93310 0.79889 -0.57300
O 	O 	0.27232 0.88380 0.82518 -0.52200
O 	O 	0.15105 0.90470 0.79774 -0.52000
O 	O 	0.11306 0.95150 0.75348 -0.48300
O 	O 	0.80750 0.51510 0.79697 -0.49200
O 	O 	0.73350 0.46530 0.82204 -0.35500
O 	O 	0.05541 0.99468 0.01998 -0.49500
O 	O 	0.09870 0.91874 0.99086 -0.49000
O 	O 	0.67812 0.51156 0.93475 -0.51700
O 	O 	0.72922 0.57844 0.96550 -0.51400
O 	O 	0.17991 0.02158 0.99237 -0.69900
O 	O 	0.29733 0.00386 0.96980 -0.50400
O 	O 	0.23615 0.93413 0.94667 -0.47900
O 	O 	0.87013 0.67160 0.87745 -0.23900
O 	O 	0.42017 0.08959 0.88056 -0.23400
O 	O 	0.97958 0.81641 0.85845 -0.22800
O 	O 	0.11860 0.56780 0.81121 -0.33400
O 	O 	0.17118 0.49563 0.83378 -0.42800
O 	O 	0.14398 0.54775 0.98752 -0.50900
O 	O 	0.19430 0.48670 0.95496 -0.52000
O 	O 	0.67724 0.06657 0.96849 -0.55500
O 	O 	0.72663 0.12739 0.00396 -0.50600
O 	O 	0.77721 0.96170 0.98439 -0.57500
O 	O 	0.83043 0.02401 0.01606 -0.50200
O 	O 	0.26760 0.41980 0.91621 -0.43900
O 	O 	0.32580 0.35800 0.93865 -0.40600
O 	O 	0.91493 0.81573 0.93707 -0.22200
O 	O 	0.01107 0.66491 0.91124 -0.22200
O 	O 	0.61762 0.04197 0.24247 -0.48400
O 	O 	0.67291 0.09091 0.28011 -0.54500
O 	O 	0.78690 0.00284 0.27139 -0.55000
O 	O 	0.73146 0.94806 0.23560 -0.49500
O 	O 	0.26150 0.58000 0.29203 -0.55000
O 	O 	0.20630 0.63622 0.26090 -0.52100
O 	O 	0.09563 0.77056 0.34102 -0.23300
O 	O 	0.93823 0.86449 0.31911 -0.22400
O 	O 	0.94002 0.79161 0.39388 -0.22300
O 	O 	0.85481 0.69043 0.25207 -0.53100
O 	O 	0.77459 0.72941 0.22447 -0.49300
O 	O 	0.87083 0.61757 0.45769 -0.52500
O 	O 	0.79640 0.64939 0.49027 -0.55700
O 	O 	0.74867 0.60413 0.25185 -0.70200
O 	O 	0.15512 0.06690 0.29889 -0.57300
O 	O 	0.22768 0.11620 0.32518 -0.52200
O 	O 	0.34895 0.09530 0.29774 -0.52000
O 	O 	0.38694 0.04850 0.25348 -0.48300
O 	O 	0.69250 0.48490 0.29697 -0.49200
O 	O 	0.76650 0.53470 0.32204 -0.35500
O 	O 	0.44459 0.00532 0.51998 -0.49400
O 	O 	0.40130 0.08126 0.49086 -0.49000
O 	O 	0.82188 0.48844 0.43475 -0.51700
O 	O 	0.77078 0.42156 0.46550 -0.51400
O 	O 	0.32009 0.97842 0.49237 -0.69900
O 	O 	0.20267 0.99614 0.46980 -0.50400
O 	O 	0.26385 0.06587 0.44667 -0.47900
O 	O 	0.62987 0.32840 0.37745 -0.23900
O 	O 	0.07983 0.91041 0.38056 -0.23400
O 	O 	0.52042 0.18359 0.35845 -0.22800
O 	O 	0.38140 0.43220 0.31121 -0.33400
O 	O 	0.32882 0.50437 0.33378 -0.42800
O 	O 	0.35602 0.45225 0.48752 -0.50900
O 	O 	0.30570 0.51330 0.45496 -0.52000
O 	O 	0.82276 0.93343 0.46849 -0.55500
O 	O 	0.77337 0.87261 0.50396 -0.50600
O 	O 	0.72279 0.03830 0.48439 -0.57500
O 	O 	0.66957 0.97599 0.51606 -0.50200
O 	O 	0.23240 0.58020 0.41621 -0.43900
O 	O 	0.17420 0.64200 0.43865 -0.40700
O 	O 	0.58507 0.18427 0.43707 -0.22200
O 	O 	0.48893 0.33509 0.41124 -0.22200
O 	O 	0.11762 0.45803 0.75753 -0.48400
O 	O 	0.17291 0.40909 0.71989 -0.54500
O 	O 	0.28690 0.49716 0.72861 -0.55000
O 	O 	0.23146 0.55194 0.76440 -0.49500
O 	O 	0.76150 0.92000 0.70797 -0.55000
O 	O 	0.70630 0.86378 0.73910 -0.52100
O 	O 	0.59563 0.72944 0.65898 -0.23300
O 	O 	0.43823 0.63551 0.68089 -0.22400
O 	O 	0.44002 0.70839 0.60612 -0.22300
O 	O 	0.35481 0.80957 0.74793 -0.53100
O 	O 	0.27459 0.77059 0.77553 -0.49300
O 	O 	0.37083 0.88243 0.54231 -0.52500
O 	O 	0.29640 0.85061 0.50973 -0.55700
O 	O 	0.24867 0.89587 0.74815 -0.70200
O 	O 	0.65512 0.43310 0.70111 -0.57300
O 	O 	0.72768 0.38380 0.67482 -0.52200
O 	O 	0.84895 0.40470 0.70226 -0.52000
O 	O 	0.88694 0.45150 0.74652 -0.48300
O 	O 	0.19250 0.01510 0.70303 -0.49200
O 	O 	0.26650 0.96530 0.67796 -0.35500
O 	O 	0.94459 0.49468 0.48002 -0.49500
O 	O 	0.90130 0.41874 0.50914 -0.49000
O 	O 	0.32188 0.01156 0.56525 -0.51700
O 	O 	0.27078 0.07844 0.53450 -0.51400
O 	O 	0.82009 0.52158 0.50763 -0.69900
O 	O 	0.70267 0.50386 0.53020 -0.50400
O 	O 	0.76385 0.43413 0.55333 -0.47900
O 	O 	0.12987 0.17160 0.62255 -0.23900
O 	O 	0.57983 0.58959 0.61944 -0.23400
O 	O 	0.02042 0.31641 0.64155 -0.22800
O 	O 	0.88140 0.06780 0.68879 -0.33400
O 	O 	0.82882 0.99563 0.66622 -0.42900
O 	O 	0.85602 0.04775 0.51248 -0.50900
O 	O 	0.80570 0.98670 0.54504 -0.52000
O 	O 	0.32276 0.56657 0.53151 -0.55500
O 	O 	0.27337 0.62739 0.49604 -0.50600
O 	O 	0.22279 0.46170 0.51561 -0.57500
O 	O 	0.16957 0.52401 0.48394 -0.50200
O 	O 	0.73240 0.91980 0.58379 -0.43900
O 	O 	0.67420 0.85800 0.56135 -0.40600
O 	O 	0.08507 0.31573 0.56293 -0.22200
O 	O 	0.98893 0.16491 0.58876 -0.22200
O 	O 	0.38238 0.54197 0.25753 -0.48400
O 	O 	0.32709 0.59091 0.21989 -0.54500
O 	O 	0.21310 0.50284 0.22861 -0.55000
O 	O 	0.26854 0.44806 0.26440 -0.49500
O 	O 	0.73850 0.08000 0.20797 -0.55000
O 	O 	0.79370 0.13622 0.23910 -0.52100
O 	O 	0.90437 0.27056 0.15898 -0.23300
O 	O 	0.06177 0.36449 0.18089 -0.22400
O 	O 	0.05998 0.29161 0.10612 -0.22300
O 	O 	0.14519 0.19043 0.24793 -0.53100
O 	O 	0.22541 0.22941 0.27553 -0.49300
O 	O 	0.12917 0.11757 0.04231 -0.52500
O 	O 	0.20360 0.14939 0.00973 -0.55700
O 	O 	0.25133 0.10413 0.24815 -0.70200
O 	O 	0.84488 0.56690 0.20111 -0.57300
O 	O 	0.77232 0.61620 0.17482 -0.52200
O 	O 	0.65105 0.59530 0.20226 -0.52000
O 	O 	0.61306 0.54850 0.24652 -0.48300
O 	O 	0.30750 0.98490 0.20303 -0.49200
O 	O 	0.23350 0.03470 0.17796 -0.35500
O 	O 	0.55541 0.50532 0.98002 -0.49400
O 	O 	0.59870 0.58126 0.00914 -0.49000
O 	O 	0.17812 0.98844 0.06525 -0.51700
O 	O 	0.22922 0.92156 0.03450 -0.51400
O 	O 	0.67991 0.47842 0.00763 -0.69900
O 	O 	0.79733 0.49614 0.03020 -0.50400
O 	O 	0.73615 0.56587 0.05333 -0.47900
O 	O 	0.37013 0.82840 0.12255 -0.23900
O 	O 	0.92017 0.41041 0.11944 -0.23400
O 	O 	0.47958 0.68359 0.14155 -0.22800
O 	O 	0.61860 0.93220 0.18879 -0.33400
O 	O 	0.67118 0.00437 0.16622 -0.42800
O 	O 	0.64398 0.95225 0.01248 -0.50900
O 	O 	0.69430 0.01330 0.04504 -0.52000
O 	O 	0.17724 0.43343 0.03151 -0.55500
O 	O 	0.22663 0.37261 0.99604 -0.50600
O 	O 	0.27721 0.53830 0.01561 -0.57500
O 	O 	0.33043 0.47599 0.98394 -0.50200
O 	O 	0.76760 0.08020 0.08379 -0.43900
O 	O 	0.82580 0.14200 0.06135 -0.40700
O 	O 	0.41493 0.68427 0.06293 -0.22200
O 	O 	0.51107 0.83509 0.08876 -0.22200
