data_crystal

_cell_length_a 19.03960
_cell_length_b 19.03960
_cell_length_c 23.56300
_cell_angle_alpha 90.00000
_cell_angle_beta  90.00000
_cell_angle_gamma 90.00000

_symmetry_space_group_name_	'P 1'
_symmetry_space_group_name_H-M	'P 1'

loop_
_symmetry_equiv_pos_as_xyz
  x,y,z

loop_
_atom_site_label
_atom_site_type_symbol
_atom_site_fract_x
_atom_site_fract_y
_atom_site_fract_z
_atom_site_charge
Zn	Zn	0.52708 0.54886 0.29603 1.19800
Zn	Zn	0.97292 0.95114 0.29603 1.19700
Zn	Zn	0.95114 0.52708 0.29603 1.19800
Zn	Zn	0.54886 0.97292 0.29603 1.19800
Zn	Zn	0.47292 0.04886 0.20397 1.19700
Zn	Zn	0.02708 0.45114 0.20397 1.19600
Zn	Zn	0.04886 0.02708 0.20397 1.19600
Zn	Zn	0.45114 0.47292 0.20397 1.19700
Zn	Zn	0.47292 0.45114 0.70397 1.19700
Zn	Zn	0.02708 0.04886 0.70397 1.19600
Zn	Zn	0.04886 0.47292 0.70397 1.19700
Zn	Zn	0.45114 0.02708 0.70397 1.19700
Zn	Zn	0.52708 0.95114 0.79603 1.19600
Zn	Zn	0.97292 0.54886 0.79603 1.19600
Zn	Zn	0.95114 0.97292 0.79603 1.19600
Zn	Zn	0.54886 0.52708 0.79603 1.19700
H 	H 	0.33720 0.61230 0.38780 0.08500
H 	H 	0.30200 0.65590 0.48550 0.04900
H 	H 	0.31130 0.70930 0.43500 0.04900
H 	H 	0.24280 0.48860 0.27170 0.05700
H 	H 	0.12700 0.59520 0.38430 0.08900
H 	H 	0.16280 0.88770 0.38780 0.08400
H 	H 	0.19800 0.84410 0.48550 0.04900
H 	H 	0.18870 0.79070 0.43500 0.05000
H 	H 	0.25720 0.01140 0.27170 0.05300
H 	H 	0.37300 0.90480 0.38430 0.08800
H 	H 	0.88770 0.33720 0.38780 0.08400
H 	H 	0.84410 0.30200 0.48550 0.04900
H 	H 	0.79070 0.31130 0.43500 0.05000
H 	H 	0.01140 0.24280 0.27170 0.05300
H 	H 	0.90480 0.12700 0.38430 0.08800
H 	H 	0.61230 0.16280 0.38780 0.08500
H 	H 	0.65590 0.19800 0.48550 0.04900
H 	H 	0.70930 0.18870 0.43500 0.05000
H 	H 	0.48860 0.25720 0.27170 0.05700
H 	H 	0.59520 0.37300 0.38430 0.08800
H 	H 	0.66280 0.11230 0.11220 0.08500
H 	H 	0.69800 0.15590 0.01450 0.04800
H 	H 	0.68870 0.20930 0.06500 0.04900
H 	H 	0.75720 0.98860 0.22830 0.05500
H 	H 	0.87300 0.09520 0.11570 0.08800
H 	H 	0.83720 0.38770 0.11220 0.08500
H 	H 	0.80200 0.34410 0.01450 0.04800
H 	H 	0.81130 0.29070 0.06500 0.04900
H 	H 	0.74280 0.51140 0.22830 0.05700
H 	H 	0.62700 0.40480 0.11570 0.08800
H 	H 	0.11230 0.83720 0.11220 0.08500
H 	H 	0.15590 0.80200 0.01450 0.04800
H 	H 	0.20930 0.81130 0.06500 0.04900
H 	H 	0.98860 0.74280 0.22830 0.05500
H 	H 	0.09520 0.62700 0.11570 0.08800
H 	H 	0.38770 0.66280 0.11220 0.08500
H 	H 	0.34410 0.69800 0.01450 0.04800
H 	H 	0.29070 0.68870 0.06500 0.04900
H 	H 	0.51140 0.75720 0.22830 0.05700
H 	H 	0.40480 0.87300 0.11570 0.08900
H 	H 	0.66280 0.38770 0.61220 0.08500
H 	H 	0.69800 0.34410 0.51450 0.04900
H 	H 	0.68870 0.29070 0.56500 0.04900
H 	H 	0.75720 0.51140 0.72830 0.05700
H 	H 	0.87300 0.40480 0.61570 0.08900
H 	H 	0.83720 0.11230 0.61220 0.08400
H 	H 	0.80200 0.15590 0.51450 0.04900
H 	H 	0.81130 0.20930 0.56500 0.05000
H 	H 	0.74280 0.98860 0.72830 0.05400
H 	H 	0.62700 0.09520 0.61570 0.08800
H 	H 	0.11230 0.66280 0.61220 0.08400
H 	H 	0.15590 0.69800 0.51450 0.04900
H 	H 	0.20930 0.68870 0.56500 0.05000
H 	H 	0.98860 0.75720 0.72830 0.05300
H 	H 	0.09520 0.87300 0.61570 0.08800
H 	H 	0.38770 0.83720 0.61220 0.08500
H 	H 	0.34410 0.80200 0.51450 0.04900
H 	H 	0.29070 0.81130 0.56500 0.05000
H 	H 	0.51140 0.74280 0.72830 0.05700
H 	H 	0.40480 0.62700 0.61570 0.08800
H 	H 	0.33720 0.88770 0.88780 0.08500
H 	H 	0.30200 0.84410 0.98550 0.04900
H 	H 	0.31130 0.79070 0.93500 0.04900
H 	H 	0.24280 0.01140 0.77170 0.05500
H 	H 	0.12700 0.90480 0.88430 0.08900
H 	H 	0.16280 0.61230 0.88780 0.08500
H 	H 	0.19800 0.65590 0.98550 0.04900
H 	H 	0.18870 0.70930 0.93500 0.04900
H 	H 	0.25720 0.48860 0.77170 0.05700
H 	H 	0.37300 0.59520 0.88430 0.08900
H 	H 	0.88770 0.16280 0.88780 0.08500
H 	H 	0.84410 0.19800 0.98550 0.04900
H 	H 	0.79070 0.18870 0.93500 0.04900
H 	H 	0.01140 0.25720 0.77170 0.05500
H 	H 	0.90480 0.37300 0.88430 0.08800
H 	H 	0.61230 0.33720 0.88780 0.08500
H 	H 	0.65590 0.30200 0.98550 0.04900
H 	H 	0.70930 0.31130 0.93500 0.04900
H 	H 	0.48860 0.24280 0.77170 0.05700
H 	H 	0.59520 0.12700 0.88430 0.08900
C 	C 	0.23100 0.61140 0.39280 0.17200
C 	C 	0.30060 0.54640 0.32637 -0.04700
C 	C 	0.29660 0.59340 0.37190 -0.11700
C 	C 	0.27819 0.69080 0.46249 -0.00500
C 	C 	0.23980 0.51890 0.30258 -0.01000
C 	C 	0.17070 0.58290 0.36956 -0.11200
C 	C 	0.17460 0.53640 0.32476 -0.04900
C 	C 	0.37180 0.53080 0.29906 0.39100
C 	C 	0.10760 0.51160 0.29704 0.37900
C 	C 	0.26900 0.88860 0.39280 0.17000
C 	C 	0.19940 0.95360 0.32637 -0.04900
C 	C 	0.20340 0.90660 0.37190 -0.11500
C 	C 	0.22181 0.80920 0.46249 -0.00500
C 	C 	0.26020 0.98110 0.30258 -0.00500
C 	C 	0.32930 0.91710 0.36956 -0.10900
C 	C 	0.32540 0.96360 0.32476 -0.05200
C 	C 	0.12820 0.96920 0.29906 0.39500
C 	C 	0.39240 0.98840 0.29704 0.38100
C 	C 	0.88860 0.23100 0.39280 0.17000
C 	C 	0.95360 0.30060 0.32637 -0.04900
C 	C 	0.90660 0.29660 0.37190 -0.11500
C 	C 	0.80920 0.27819 0.46249 -0.00500
C 	C 	0.98110 0.23980 0.30258 -0.00400
C 	C 	0.91710 0.17070 0.36956 -0.10900
C 	C 	0.96360 0.17460 0.32476 -0.05200
C 	C 	0.96920 0.37180 0.29906 0.39300
C 	C 	0.98840 0.10760 0.29704 0.38300
C 	C 	0.61140 0.26900 0.39280 0.17200
C 	C 	0.54640 0.19940 0.32637 -0.04700
C 	C 	0.59340 0.20340 0.37190 -0.11700
C 	C 	0.69080 0.22181 0.46249 -0.00500
C 	C 	0.51890 0.26020 0.30258 -0.01000
C 	C 	0.58290 0.32930 0.36956 -0.11200
C 	C 	0.53640 0.32540 0.32476 -0.04900
C 	C 	0.53080 0.12820 0.29906 0.39100
C 	C 	0.51160 0.39240 0.29704 0.37900
C 	C 	0.76900 0.11140 0.10720 0.17100
C 	C 	0.69940 0.04640 0.17363 -0.04800
C 	C 	0.70340 0.09340 0.12810 -0.11600
C 	C 	0.72181 0.19080 0.03751 -0.00300
C 	C 	0.76020 0.01890 0.19742 -0.00700
C 	C 	0.82930 0.08290 0.13044 -0.11000
C 	C 	0.82540 0.03640 0.17524 -0.05000
C 	C 	0.62820 0.03080 0.20094 0.39200
C 	C 	0.89240 0.01160 0.20296 0.38200
C 	C 	0.73100 0.38860 0.10720 0.17200
C 	C 	0.80060 0.45360 0.17363 -0.04600
C 	C 	0.79660 0.40660 0.12810 -0.11700
C 	C 	0.77819 0.30920 0.03751 -0.00300
C 	C 	0.73980 0.48110 0.19742 -0.01100
C 	C 	0.67070 0.41710 0.13044 -0.11200
C 	C 	0.67460 0.46360 0.17524 -0.04900
C 	C 	0.87180 0.46920 0.20094 0.39100
C 	C 	0.60760 0.48840 0.20296 0.37900
C 	C 	0.11140 0.73100 0.10720 0.17100
C 	C 	0.04640 0.80060 0.17363 -0.04800
C 	C 	0.09340 0.79660 0.12810 -0.11600
C 	C 	0.19080 0.77819 0.03751 -0.00400
C 	C 	0.01890 0.73980 0.19742 -0.00700
C 	C 	0.08290 0.67070 0.13044 -0.11100
C 	C 	0.03640 0.67460 0.17524 -0.05000
C 	C 	0.03080 0.87180 0.20094 0.39300
C 	C 	0.01160 0.60760 0.20296 0.38000
C 	C 	0.38860 0.76900 0.10720 0.17200
C 	C 	0.45360 0.69940 0.17363 -0.04700
C 	C 	0.40660 0.70340 0.12810 -0.11700
C 	C 	0.30920 0.72181 0.03751 -0.00300
C 	C 	0.48110 0.76020 0.19742 -0.01100
C 	C 	0.41710 0.82930 0.13044 -0.11200
C 	C 	0.46360 0.82540 0.17524 -0.04900
C 	C 	0.46920 0.62820 0.20094 0.39100
C 	C 	0.48840 0.89240 0.20296 0.37900
C 	C 	0.76900 0.38860 0.60720 0.17200
C 	C 	0.69940 0.45360 0.67363 -0.04700
C 	C 	0.70340 0.40660 0.62810 -0.11700
C 	C 	0.72181 0.30920 0.53751 -0.00500
C 	C 	0.76020 0.48110 0.69742 -0.01100
C 	C 	0.82930 0.41710 0.63044 -0.11200
C 	C 	0.82540 0.46360 0.67524 -0.04900
C 	C 	0.62820 0.46920 0.70094 0.39100
C 	C 	0.89240 0.48840 0.70296 0.37900
C 	C 	0.73100 0.11140 0.60720 0.17000
C 	C 	0.80060 0.04640 0.67363 -0.04900
C 	C 	0.79660 0.09340 0.62810 -0.11500
C 	C 	0.77819 0.19080 0.53751 -0.00500
C 	C 	0.73980 0.01890 0.69742 -0.00500
C 	C 	0.67070 0.08290 0.63044 -0.11000
C 	C 	0.67460 0.03640 0.67524 -0.05200
C 	C 	0.87180 0.03080 0.70094 0.39500
C 	C 	0.60760 0.01160 0.70296 0.38100
C 	C 	0.11140 0.76900 0.60720 0.17000
C 	C 	0.04640 0.69940 0.67363 -0.04900
C 	C 	0.09340 0.70340 0.62810 -0.11500
C 	C 	0.19080 0.72181 0.53751 -0.00500
C 	C 	0.01890 0.76020 0.69742 -0.00400
C 	C 	0.08290 0.82930 0.63044 -0.10900
C 	C 	0.03640 0.82540 0.67524 -0.05200
C 	C 	0.03080 0.62820 0.70094 0.39300
C 	C 	0.01160 0.89240 0.70296 0.38300
C 	C 	0.38860 0.73100 0.60720 0.17200
C 	C 	0.45360 0.80060 0.67363 -0.04600
C 	C 	0.40660 0.79660 0.62810 -0.11700
C 	C 	0.30920 0.77819 0.53751 -0.00500
C 	C 	0.48110 0.73980 0.69742 -0.01100
C 	C 	0.41710 0.67070 0.63044 -0.11200
C 	C 	0.46360 0.67460 0.67524 -0.04900
C 	C 	0.46920 0.87180 0.70094 0.39100
C 	C 	0.48840 0.60760 0.70296 0.37900
C 	C 	0.23100 0.88860 0.89280 0.17100
C 	C 	0.30060 0.95360 0.82637 -0.04800
C 	C 	0.29660 0.90660 0.87190 -0.11600
C 	C 	0.27819 0.80920 0.96249 -0.00300
C 	C 	0.23980 0.98110 0.80258 -0.00700
C 	C 	0.17070 0.91710 0.86956 -0.11100
C 	C 	0.17460 0.96360 0.82476 -0.05000
C 	C 	0.37180 0.96920 0.79906 0.39200
C 	C 	0.10760 0.98840 0.79704 0.38200
C 	C 	0.26900 0.61140 0.89280 0.17200
C 	C 	0.19940 0.54640 0.82637 -0.04600
C 	C 	0.20340 0.59340 0.87190 -0.11700
C 	C 	0.22181 0.69080 0.96249 -0.00300
C 	C 	0.26020 0.51890 0.80258 -0.01100
C 	C 	0.32930 0.58290 0.86956 -0.11200
C 	C 	0.32540 0.53640 0.82476 -0.04900
C 	C 	0.12820 0.53080 0.79906 0.39100
C 	C 	0.39240 0.51160 0.79704 0.37900
C 	C 	0.88860 0.26900 0.89280 0.17100
C 	C 	0.95360 0.19940 0.82637 -0.04800
C 	C 	0.90660 0.20340 0.87190 -0.11600
C 	C 	0.80920 0.22181 0.96249 -0.00300
C 	C 	0.98110 0.26020 0.80258 -0.00800
C 	C 	0.91710 0.32930 0.86956 -0.11100
C 	C 	0.96360 0.32540 0.82476 -0.05000
C 	C 	0.96920 0.12820 0.79906 0.39300
C 	C 	0.98840 0.39240 0.79704 0.38000
C 	C 	0.61140 0.23100 0.89280 0.17200
C 	C 	0.54640 0.30060 0.82637 -0.04600
C 	C 	0.59340 0.29660 0.87190 -0.11700
C 	C 	0.69080 0.27819 0.96249 -0.00300
C 	C 	0.51890 0.23980 0.80258 -0.01100
C 	C 	0.58290 0.17070 0.86956 -0.11200
C 	C 	0.53640 0.17460 0.82476 -0.04900
C 	C 	0.53080 0.37180 0.79906 0.39100
C 	C 	0.51160 0.10760 0.79704 0.37900
C 	C 	0.25000 0.75000 0.50000 0.02800
C 	C 	0.75000 0.25000 0.50000 0.02800
C 	C 	0.75000 0.25000 -0.00000 0.02500
C 	C 	0.25000 0.75000 -0.00000 0.02500
O 	O 	0.21993 0.66035 0.43450 -0.22300
O 	O 	0.42389 0.55743 0.32198 -0.47700
O 	O 	0.37041 0.49087 0.25716 -0.48400
O 	O 	0.05161 0.52668 0.32145 -0.49000
O 	O 	0.11396 0.47710 0.25153 -0.46100
O 	O 	0.28007 0.83965 0.43450 -0.22200
O 	O 	0.07611 0.94257 0.32198 -0.47700
O 	O 	0.12959 0.00913 0.25716 -0.48700
O 	O 	0.44839 0.97332 0.32145 -0.49100
O 	O 	0.38604 0.02290 0.25153 -0.46200
O 	O 	0.83965 0.21993 0.43450 -0.22200
O 	O 	0.94257 0.42389 0.32198 -0.47800
O 	O 	0.00913 0.37041 0.25716 -0.48600
O 	O 	0.97332 0.05161 0.32145 -0.49000
O 	O 	0.02290 0.11396 0.25153 -0.46400
O 	O 	0.66035 0.28007 0.43450 -0.22300
O 	O 	0.55743 0.07611 0.32198 -0.47700
O 	O 	0.49087 0.12959 0.25716 -0.48400
O 	O 	0.52668 0.44839 0.32145 -0.49000
O 	O 	0.47710 0.38604 0.25153 -0.46100
O 	O 	0.78007 0.16035 0.06550 -0.22300
O 	O 	0.57611 0.05743 0.17802 -0.47800
O 	O 	0.62959 0.99087 0.24284 -0.48500
O 	O 	0.94839 0.02668 0.17855 -0.49000
O 	O 	0.88604 0.97710 0.24847 -0.46300
O 	O 	0.71993 0.33965 0.06550 -0.22300
O 	O 	0.92389 0.44257 0.17802 -0.47700
O 	O 	0.87041 0.50913 0.24284 -0.48400
O 	O 	0.55161 0.47332 0.17855 -0.49000
O 	O 	0.61396 0.52290 0.24847 -0.46100
O 	O 	0.16035 0.71993 0.06550 -0.22300
O 	O 	0.05743 0.92389 0.17802 -0.47700
O 	O 	0.99087 0.87041 0.24284 -0.48600
O 	O 	0.02668 0.55161 0.17855 -0.49100
O 	O 	0.97710 0.61396 0.24847 -0.46100
O 	O 	0.33965 0.78007 0.06550 -0.22300
O 	O 	0.44257 0.57611 0.17802 -0.47700
O 	O 	0.50913 0.62959 0.24284 -0.48400
O 	O 	0.47332 0.94839 0.17855 -0.49000
O 	O 	0.52290 0.88604 0.24847 -0.46100
O 	O 	0.78007 0.33965 0.56550 -0.22300
O 	O 	0.57611 0.44257 0.67802 -0.47700
O 	O 	0.62959 0.50913 0.74284 -0.48400
O 	O 	0.94839 0.47332 0.67855 -0.49000
O 	O 	0.88604 0.52290 0.74847 -0.46100
O 	O 	0.71993 0.16035 0.56550 -0.22200
O 	O 	0.92389 0.05743 0.67802 -0.47700
O 	O 	0.87041 0.99087 0.74284 -0.48700
O 	O 	0.55161 0.02668 0.67855 -0.49100
O 	O 	0.61396 0.97710 0.74847 -0.46200
O 	O 	0.16035 0.78007 0.56550 -0.22200
O 	O 	0.05743 0.57611 0.67802 -0.47800
O 	O 	0.99087 0.62959 0.74284 -0.48600
O 	O 	0.02668 0.94839 0.67855 -0.49000
O 	O 	0.97710 0.88604 0.74847 -0.46400
O 	O 	0.33965 0.71993 0.56550 -0.22300
O 	O 	0.44257 0.92389 0.67802 -0.47700
O 	O 	0.50913 0.87041 0.74284 -0.48400
O 	O 	0.47332 0.55161 0.67855 -0.49000
O 	O 	0.52290 0.61396 0.74847 -0.46100
O 	O 	0.21993 0.83965 0.93450 -0.22300
O 	O 	0.42389 0.94257 0.82198 -0.47800
O 	O 	0.37041 0.00913 0.75716 -0.48400
O 	O 	0.05161 0.97332 0.82145 -0.48900
O 	O 	0.11396 0.02290 0.75153 -0.46200
O 	O 	0.28007 0.66035 0.93450 -0.22300
O 	O 	0.07611 0.55743 0.82198 -0.47700
O 	O 	0.12959 0.49087 0.75716 -0.48400
O 	O 	0.44839 0.52668 0.82145 -0.49000
O 	O 	0.38604 0.47710 0.75153 -0.46100
O 	O 	0.83965 0.28007 0.93450 -0.22300
O 	O 	0.94257 0.07611 0.82198 -0.47700
O 	O 	0.00913 0.12959 0.75716 -0.48600
O 	O 	0.97332 0.44839 0.82145 -0.49000
O 	O 	0.02290 0.38604 0.75153 -0.46100
O 	O 	0.66035 0.21993 0.93450 -0.22300
O 	O 	0.55743 0.42389 0.82198 -0.47700
O 	O 	0.49087 0.37041 0.75716 -0.48400
O 	O 	0.52668 0.05161 0.82145 -0.49000
O 	O 	0.47710 0.11396 0.75153 -0.46100
