data_crystal

_cell_length_a 27.03300
_cell_length_b 27.03300
_cell_length_c 44.09600
_cell_angle_alpha 90.00000
_cell_angle_beta  90.00000
_cell_angle_gamma 90.00000

_symmetry_space_group_name_	'P 1'
_symmetry_space_group_name_H-M	'P 1'

loop_
_symmetry_equiv_pos_as_xyz
  x,y,z

loop_
_atom_site_label
_atom_site_type_symbol
_atom_site_fract_x
_atom_site_fract_y
_atom_site_fract_z
_atom_site_charge
Zn	Zn	0.22409 0.02904 0.86510 1.18300
Zn	Zn	0.76615 0.09058 0.66819 1.18400
Zn	Zn	0.73385 0.59058 0.16819 1.18400
Zn	Zn	0.44512 0.74425 0.07481 1.18200
Zn	Zn	0.98788 0.24761 0.37784 1.19100
Zn	Zn	0.75575 0.05488 0.42519 1.18200
Zn	Zn	0.09058 0.23385 0.33181 1.18400
Zn	Zn	0.97201 0.73437 0.93319 1.19500
Zn	Zn	0.24425 0.94512 0.42519 1.18200
Zn	Zn	0.47201 0.76563 0.43319 1.19500
Zn	Zn	0.23385 0.90942 0.66819 1.18400
Zn	Zn	0.01212 0.75239 0.37784 1.19000
Zn	Zn	0.53583 0.77822 0.36682 1.17900
Zn	Zn	0.28044 0.42178 0.32324 1.17900
Zn	Zn	0.02799 0.26563 0.93319 1.19400
Zn	Zn	0.42178 0.71956 0.67676 1.17900
Zn	Zn	0.75239 0.98788 0.62216 1.19100
Zn	Zn	0.94512 0.75575 0.57481 1.18200
Zn	Zn	0.21956 0.92178 0.82324 1.17800
Zn	Zn	0.96417 0.27822 0.86682 1.17800
Zn	Zn	0.52799 0.23437 0.43319 1.19400
Zn	Zn	0.03583 0.72178 0.86682 1.17800
Zn	Zn	0.90942 0.76615 0.33181 1.18300
Zn	Zn	0.24761 0.01212 0.62216 1.18900
Zn	Zn	0.78044 0.07822 0.82324 1.17800
Zn	Zn	0.07822 0.21956 0.17676 1.17800
Zn	Zn	0.52904 0.72409 0.63490 1.18200
Zn	Zn	0.74425 0.55488 0.92519 1.18100
Zn	Zn	0.22178 0.53583 0.63318 1.17800
Zn	Zn	0.92178 0.78044 0.17676 1.17800
Zn	Zn	0.72409 0.47096 0.36510 1.18200
Zn	Zn	0.40942 0.73385 0.83181 1.18300
Zn	Zn	0.76563 0.52799 0.56681 1.19400
Zn	Zn	0.26274 0.00898 0.36117 1.18100
Zn	Zn	0.00898 0.73726 0.63883 1.18100
Zn	Zn	0.59058 0.26615 0.83181 1.18300
Zn	Zn	0.99102 0.26274 0.63883 1.18100
Zn	Zn	0.57822 0.28044 0.67676 1.17800
Zn	Zn	0.26615 0.40942 0.16819 1.18300
Zn	Zn	0.23437 0.47201 0.56681 1.19400
Zn	Zn	0.77822 0.46417 0.63318 1.17800
Zn	Zn	0.55488 0.25575 0.07481 1.18100
Zn	Zn	0.46417 0.22178 0.36682 1.17800
Zn	Zn	0.47096 0.27591 0.63490 1.18200
Zn	Zn	0.51212 0.74761 0.87784 1.19000
Zn	Zn	0.25239 0.51212 0.12216 1.19000
Zn	Zn	0.73726 0.99102 0.36117 1.18100
Zn	Zn	0.02904 0.77591 0.13490 1.18200
Zn	Zn	0.27822 0.03583 0.13318 1.17800
Zn	Zn	0.71956 0.57822 0.32324 1.17800
Zn	Zn	0.49102 0.23726 0.13883 1.18100
Zn	Zn	0.97096 0.22409 0.13490 1.18200
Zn	Zn	0.73437 0.02799 0.06681 1.19400
Zn	Zn	0.72178 0.96417 0.13318 1.17800
Zn	Zn	0.76274 0.49102 0.86117 1.18100
Zn	Zn	0.74761 0.48788 0.12216 1.19000
Zn	Zn	0.50898 0.76274 0.13883 1.18100
Zn	Zn	0.27591 0.52904 0.36510 1.18200
Zn	Zn	0.48788 0.25239 0.87784 1.19000
Zn	Zn	0.77591 0.97096 0.86510 1.18200
Zn	Zn	0.25575 0.44512 0.92519 1.18100
Zn	Zn	0.23726 0.50898 0.86117 1.18100
Zn	Zn	0.05488 0.24425 0.57481 1.18100
Zn	Zn	0.26563 0.97201 0.06681 1.19400
H 	H 	0.61420 0.51230 0.41840 0.04700
H 	H 	0.27270 0.82770 0.26540 0.01900
H 	H 	0.98770 0.88580 0.08160 0.04700
H 	H 	0.49280 0.05410 0.93680 0.04600
H 	H 	0.25060 0.29250 0.78950 0.01700
H 	H 	0.47960 0.42400 0.00890 0.01500
H 	H 	0.94470 0.01520 0.46580 0.01800
H 	H 	0.27520 0.62080 0.28430 0.07700
H 	H 	0.14200 0.10750 0.12270 -0.00200
H 	H 	0.62270 0.89610 0.40020 0.00200
H 	H 	0.60220 0.64050 0.12750 0.02500
H 	H 	0.94590 0.49280 0.06320 0.04600
H 	H 	0.86090 0.50610 0.40080 0.04800
H 	H 	0.65700 0.14440 0.10640 0.04300
H 	H 	0.14440 0.34300 0.89360 0.04300
H 	H 	0.22710 0.35770 0.81830 0.07900
H 	H 	0.25680 0.61520 0.19800 0.07500
H 	H 	0.72710 0.14230 0.31830 0.07900
H 	H 	0.49530 0.86470 0.03610 0.04000
H 	H 	0.17230 0.27270 0.73460 0.01800
H 	H 	0.57600 0.47960 0.99110 0.01500
H 	H 	0.00610 0.36090 0.09920 0.04800
H 	H 	0.99530 0.63530 0.53610 0.04100
H 	H 	0.37870 0.47980 0.07430 0.06700
H 	H 	0.39780 0.35950 0.12750 0.02500
H 	H 	0.79980 0.25290 0.22260 0.00400
H 	H 	0.52810 0.93040 0.52820 0.04900
H 	H 	0.63330 0.15060 0.64440 -0.01100
H 	H 	0.97840 0.12110 0.94740 0.04800
H 	H 	0.48810 0.38510 0.05610 0.07600
H 	H 	0.61370 0.03200 0.58900 0.05600
H 	H 	0.06960 0.52810 0.47180 0.04900
H 	H 	0.85950 0.89780 0.37250 0.02500
H 	H 	0.20020 0.74710 0.22260 0.00300
H 	H 	0.60810 0.23020 0.32010 0.07100
H 	H 	0.06730 0.46810 0.03830 0.04300
H 	H 	0.12270 0.60390 0.90020 0.00200
H 	H 	0.72950 0.50850 0.24420 0.01100
H 	H 	0.86670 0.65060 0.14440 -0.01100
H 	H 	0.52020 0.37870 0.92570 0.06700
H 	H 	0.72730 0.17230 0.26540 0.01800
H 	H 	0.61520 0.74320 0.80200 0.07500
H 	H 	0.92400 0.97960 0.49110 0.01500
H 	H 	0.88480 0.24320 0.30200 0.07400
H 	H 	0.44470 0.48480 0.96580 0.01900
H 	H 	0.52090 0.57710 0.49470 0.04500
H 	H 	0.05620 0.49270 0.49900 0.05000
H 	H 	0.53200 0.11370 0.91100 0.05600
H 	H 	0.32770 0.77270 0.23460 0.01900
H 	H 	0.49270 0.94380 0.50100 0.05100
H 	H 	0.10220 0.85950 0.62750 0.02500
H 	H 	0.12110 0.02160 0.05260 0.04700
H 	H 	0.14230 0.27290 0.68170 0.07900
H 	H 	0.29980 0.24710 0.72260 0.00300
H 	H 	0.44380 0.99270 0.99900 0.05100
H 	H 	0.50850 0.27050 0.75580 0.01100
H 	H 	0.65060 0.13330 0.85560 -0.01100
H 	H 	0.07600 0.02040 0.49110 0.01500
H 	H 	0.43930 0.48220 0.53040 0.04700
H 	H 	0.79720 0.19770 0.23360 -0.00500
H 	H 	0.85770 0.72710 0.68170 0.07900
H 	H 	0.43270 0.96810 0.53830 0.04300
H 	H 	0.50470 0.13530 0.03610 0.04000
H 	H 	0.98220 0.93930 0.96960 0.04800
H 	H 	0.70750 0.25060 0.21050 0.01700
H 	H 	0.15060 0.36670 0.35560 -0.01100
H 	H 	0.62080 0.72480 0.71570 0.07700
H 	H 	0.55530 0.51520 0.96580 0.01900
H 	H 	0.99390 0.63910 0.09920 0.04800
H 	H 	0.60620 0.97400 0.02970 0.05600
H 	H 	0.10390 0.62270 0.59980 0.00300
H 	H 	0.87890 0.97840 0.05260 0.04800
H 	H 	0.11520 0.75680 0.30200 0.07500
H 	H 	0.01780 0.06070 0.96960 0.04600
H 	H 	0.64200 0.39250 0.62270 -0.00200
H 	H 	0.24940 0.79250 0.28950 0.01700
H 	H 	0.25290 0.20020 0.77740 0.00300
H 	H 	0.62110 0.47840 0.55260 0.04800
H 	H 	0.47980 0.62130 0.92570 0.06700
H 	H 	0.39250 0.35800 0.37730 -0.00200
H 	H 	0.19770 0.20280 0.76640 -0.00500
H 	H 	0.11490 0.01190 0.44390 0.07600
H 	H 	0.37920 0.27520 0.71570 0.07700
H 	H 	0.74710 0.79980 0.77740 0.00400
H 	H 	0.36470 0.99530 0.46390 0.04100
H 	H 	0.77290 0.64230 0.81830 0.07900
H 	H 	0.14050 0.10220 0.37250 0.02500
H 	H 	0.80230 0.79720 0.76640 -0.00500
H 	H 	0.76980 0.60810 0.67990 0.07100
H 	H 	0.50730 0.05620 0.50100 0.05000
H 	H 	0.06070 0.98220 0.03040 0.04800
H 	H 	0.38480 0.25680 0.80200 0.07500
H 	H 	0.89250 0.14200 0.87730 -0.00200
H 	H 	0.20750 0.24940 0.71050 0.01700
H 	H 	0.35800 0.60750 0.62270 -0.00200
H 	H 	0.48770 0.61420 0.58160 0.04700
H 	H 	0.77270 0.67230 0.76540 0.01900
H 	H 	0.92290 0.97910 0.00530 0.04400
H 	H 	0.56730 0.03190 0.53830 0.04300
H 	H 	0.05410 0.50720 0.06320 0.04600
H 	H 	0.67230 0.22730 0.23460 0.01900
H 	H 	0.12080 0.77520 0.21570 0.07700
H 	H 	0.98480 0.94470 0.53420 0.02000
H 	H 	0.86470 0.50470 0.96390 0.04000
H 	H 	0.99280 0.44590 0.43680 0.04700
H 	H 	0.22730 0.32770 0.76540 0.01800
H 	H 	0.43040 0.02810 0.97180 0.04900
H 	H 	0.75060 0.20750 0.28950 0.01700
H 	H 	0.05530 0.98480 0.46580 0.02000
H 	H 	0.60750 0.64200 0.37730 -0.00200
H 	H 	0.27290 0.85770 0.31830 0.07900
H 	H 	0.47190 0.06960 0.52820 0.04900
H 	H 	0.22950 0.99150 0.74420 0.01200
H 	H 	0.39380 0.02600 0.02970 0.05500
H 	H 	0.88580 0.01230 0.91840 0.04700
H 	H 	0.10810 0.26980 0.82010 0.07100
H 	H 	0.03190 0.43270 0.46170 0.04300
H 	H 	0.88630 0.53200 0.08900 0.05600
H 	H 	0.02810 0.56960 0.02820 0.04900
H 	H 	0.61490 0.48810 0.94390 0.07600
H 	H 	0.60390 0.87730 0.09980 0.00200
H 	H 	0.38630 0.96800 0.58900 0.05600
H 	H 	0.15700 0.35560 0.60640 0.04300
H 	H 	0.07710 0.02090 0.00530 0.04500
H 	H 	0.75680 0.88480 0.69800 0.07400
H 	H 	0.97190 0.43040 0.02820 0.04900
H 	H 	0.46810 0.93270 0.96170 0.04300
H 	H 	0.85800 0.89250 0.12270 -0.00200
H 	H 	0.74320 0.38480 0.19800 0.07500
H 	H 	0.36670 0.84940 0.64440 -0.01100
H 	H 	0.75290 0.29980 0.27740 0.00400
H 	H 	0.46800 0.88630 0.91100 0.05600
H 	H 	0.94380 0.50730 0.49900 0.05100
H 	H 	0.97910 0.07710 0.99470 0.04400
H 	H 	0.96800 0.61370 0.41100 0.05600
H 	H 	0.02040 0.92400 0.50890 0.01500
H 	H 	0.63530 0.00470 0.46390 0.03900
H 	H 	0.89190 0.73020 0.82010 0.07100
H 	H 	0.47910 0.42290 0.49470 0.04500
H 	H 	0.77050 0.00850 0.74420 0.01000
H 	H 	0.42290 0.52090 0.50530 0.04500
H 	H 	0.02090 0.92290 0.99470 0.04500
H 	H 	0.48220 0.56070 0.46960 0.04700
H 	H 	0.97400 0.39380 0.97030 0.05600
H 	H 	0.93040 0.47190 0.47180 0.04900
H 	H 	0.93930 0.01780 0.03040 0.04600
H 	H 	0.37890 0.52160 0.55260 0.04800
H 	H 	0.89380 0.47400 0.52970 0.05600
H 	H 	0.49150 0.72950 0.75580 0.01100
H 	H 	0.99150 0.77050 0.25580 0.01200
H 	H 	0.63910 0.00610 0.90080 0.04800
H 	H 	0.98810 0.11490 0.55610 0.07600
H 	H 	0.38510 0.51190 0.94390 0.07600
H 	H 	0.69770 0.29720 0.26640 -0.00500
H 	H 	0.00730 0.44380 0.00100 0.05000
H 	H 	0.01190 0.88510 0.55610 0.07600
H 	H 	0.97960 0.07600 0.50890 0.01500
H 	H 	0.56960 0.97190 0.97180 0.04900
H 	H 	0.26980 0.89190 0.17990 0.07100
H 	H 	0.34940 0.86670 0.85560 -0.01100
H 	H 	0.29720 0.30230 0.73360 -0.00500
H 	H 	0.24710 0.70020 0.27740 0.00400
H 	H 	0.10620 0.52600 0.52970 0.05600
H 	H 	0.34300 0.85560 0.10640 0.04300
H 	H 	0.02160 0.87890 0.94740 0.04700
H 	H 	0.84940 0.63330 0.35560 -0.01100
H 	H 	0.39190 0.76980 0.32010 0.07100
H 	H 	0.00470 0.36470 0.53610 0.03900
H 	H 	0.53190 0.06730 0.96170 0.04300
H 	H 	0.39610 0.12270 0.09980 0.00200
H 	H 	0.00850 0.22950 0.25580 0.01000
H 	H 	0.01520 0.05530 0.53420 0.01800
H 	H 	0.72480 0.37920 0.28430 0.07700
H 	H 	0.13330 0.34940 0.14440 -0.01100
H 	H 	0.56070 0.51780 0.53040 0.04700
H 	H 	0.29250 0.74940 0.21050 0.01700
H 	H 	0.87730 0.39610 0.90020 0.00200
H 	H 	0.48480 0.55530 0.03420 0.01900
H 	H 	0.64050 0.39780 0.87250 0.02500
H 	H 	0.85560 0.65700 0.89360 0.04300
H 	H 	0.74940 0.70750 0.78950 0.01800
H 	H 	0.13530 0.49530 0.96390 0.04000
H 	H 	0.02020 0.12130 0.42570 0.06700
H 	H 	0.11420 0.98770 0.91840 0.04700
H 	H 	0.23020 0.39190 0.67990 0.07100
H 	H 	0.38580 0.48770 0.41840 0.04700
H 	H 	0.42400 0.52040 0.99110 0.01500
H 	H 	0.84300 0.64440 0.60640 0.04300
H 	H 	0.52040 0.57600 0.00890 0.01500
H 	H 	0.62130 0.52020 0.07430 0.06700
H 	H 	0.87870 0.02020 0.57430 0.06700
H 	H 	0.70020 0.75290 0.72260 0.00400
H 	H 	0.70280 0.69770 0.73360 -0.00500
H 	H 	0.79250 0.75060 0.71050 0.01800
H 	H 	0.99270 0.55620 0.00100 0.05100
H 	H 	0.51230 0.38580 0.58160 0.04700
H 	H 	0.52160 0.62110 0.44740 0.04800
H 	H 	0.11370 0.46800 0.08900 0.05600
H 	H 	0.51520 0.44470 0.03420 0.01900
H 	H 	0.47400 0.10620 0.47030 0.05600
H 	H 	0.49390 0.86090 0.59920 0.04800
H 	H 	0.30230 0.70280 0.26640 -0.00500
H 	H 	0.01230 0.11420 0.08160 0.04700
H 	H 	0.13910 0.49390 0.40080 0.04800
H 	H 	0.64230 0.22710 0.18170 0.07900
H 	H 	0.27050 0.49150 0.24420 0.01100
H 	H 	0.24320 0.11520 0.69800 0.07500
H 	H 	0.55410 0.99280 0.56320 0.04700
H 	H 	0.52600 0.89380 0.47030 0.05600
H 	H 	0.89780 0.14050 0.62750 0.02500
H 	H 	0.03200 0.38630 0.41100 0.05600
H 	H 	0.10750 0.85800 0.87730 -0.00200
H 	H 	0.36090 0.99390 0.90080 0.04800
H 	H 	0.89610 0.37730 0.59980 0.00200
H 	H 	0.37730 0.10390 0.40020 0.00300
H 	H 	0.50720 0.94590 0.93680 0.04600
H 	H 	0.47840 0.37890 0.44740 0.04800
H 	H 	0.00720 0.55410 0.43680 0.04600
H 	H 	0.44590 0.00720 0.56320 0.04600
H 	H 	0.82770 0.72730 0.73460 0.01900
H 	H 	0.02600 0.60620 0.97030 0.05500
H 	H 	0.35560 0.84300 0.39360 0.04300
H 	H 	0.73020 0.10810 0.17990 0.07100
H 	H 	0.64440 0.15700 0.39360 0.04300
H 	H 	0.97980 0.87870 0.42570 0.06700
H 	H 	0.55620 0.00730 0.99900 0.05000
H 	H 	0.12130 0.97980 0.57430 0.06700
H 	H 	0.88510 0.98810 0.44390 0.07600
H 	H 	0.51190 0.61490 0.05610 0.07600
H 	H 	0.87920 0.22480 0.21570 0.07700
H 	H 	0.96810 0.56730 0.46170 0.04300
H 	H 	0.93270 0.53190 0.03830 0.04300
H 	H 	0.51780 0.43930 0.46960 0.04700
H 	H 	0.35770 0.77290 0.18170 0.07900
H 	H 	0.50610 0.13910 0.59920 0.04800
H 	H 	0.22480 0.12080 0.78430 0.07700
H 	H 	0.77520 0.87920 0.78430 0.07700
H 	H 	0.20280 0.80230 0.23360 -0.00500
H 	H 	0.57710 0.47910 0.50530 0.04500
H 	H 	0.35950 0.60220 0.87250 0.02500
C 	C 	0.42600 0.66860 0.87720 0.51100
C 	C 	0.70950 0.06970 0.12340 0.44000
C 	C 	0.56060 0.64060 0.41230 -0.15800
C 	C 	0.06410 0.93580 0.55920 0.18800
C 	C 	0.68850 0.11180 0.14400 -0.07500
C 	C 	0.63540 0.44710 0.90910 -0.06700
C 	C 	0.47110 0.27550 0.69540 0.60700
C 	C 	0.54650 0.61010 0.43450 -0.04600
C 	C 	0.64980 0.07020 0.87630 -0.15500
C 	C 	0.10250 0.95540 0.91730 -0.03500
C 	C 	0.12150 0.09700 0.10700 0.08900
C 	C 	0.59450 0.62230 0.11030 0.00500
C 	C 	0.95600 0.33780 0.91990 0.50300
C 	C 	0.05060 0.30190 0.13570 0.43000
C 	C 	0.23960 0.26040 0.75000 -0.10000
C 	C 	0.09010 0.36630 0.38020 -0.17200
C 	C 	0.58250 0.37850 0.89800 -0.10800
C 	C 	0.93820 0.58130 0.09100 0.10300
C 	C 	0.60520 0.55000 0.07770 -0.09900
C 	C 	0.90300 0.12150 0.89300 0.08900
C 	C 	0.42720 0.11370 0.43100 -0.12600
C 	C 	0.61860 0.57630 0.39480 -0.16700
C 	C 	0.09090 0.61080 0.58170 0.08600
C 	C 	0.04090 0.48030 0.05110 -0.01100
C 	C 	0.44940 0.80190 0.63570 0.43000
C 	C 	0.91750 0.87850 0.39800 -0.10800
C 	C 	0.14700 0.33950 0.87270 -0.02700
C 	C 	0.46240 0.87230 0.60390 -0.03200
C 	C 	0.94550 0.22960 0.22980 -0.08700
C 	C 	0.23180 0.20740 0.76020 0.13600
C 	C 	0.73530 0.45130 0.21500 -0.12000
C 	C 	0.70540 0.12590 0.17020 -0.10500
C 	C 	0.66220 0.95600 0.08010 0.50300
C 	C 	0.10320 0.43830 0.09750 -0.06600
C 	C 	0.87850 0.08250 0.60200 -0.10800
C 	C 	0.66050 0.14700 0.12730 -0.02700
C 	C 	0.39730 0.26970 0.73330 -0.11300
C 	C 	0.54870 0.73530 0.78500 -0.12000
C 	C 	0.11080 0.59090 0.91830 0.08700
C 	C 	0.37770 0.59450 0.88970 0.00500
C 	C 	0.26470 0.51850 0.18820 0.44200
C 	C 	0.95350 0.11010 0.93450 -0.04600
C 	C 	0.56180 0.08130 0.59100 0.10200
C 	C 	0.31670 0.52530 0.90050 0.43100
C 	C 	0.91970 0.44950 0.97100 0.09700
C 	C 	0.38140 0.42370 0.39480 -0.16700
C 	C 	0.55360 0.34310 0.62540 0.50800
C 	C 	0.54400 0.83780 0.41990 0.50300
C 	C 	0.51070 0.55030 0.48140 -0.03400
C 	C 	0.42980 0.85020 0.62370 -0.15500
C 	C 	0.45190 0.13510 0.06990 -0.18200
C 	C 	0.16050 0.35300 0.62730 -0.02700
C 	C 	0.63370 0.09010 0.61980 -0.17200
C 	C 	0.11180 0.31150 0.85600 -0.07500
C 	C 	0.70540 0.22550 0.22620 0.08000
C 	C 	0.19900 0.34640 0.82820 -0.14500
C 	C 	0.62230 0.40550 0.88970 0.00500
C 	C 	0.97520 0.32370 0.58220 0.46800
C 	C 	0.15690 0.94640 0.87460 0.50800
C 	C 	0.83780 0.45600 0.58010 0.50300
C 	C 	0.89680 0.56170 0.09750 -0.06600
C 	C 	0.05450 0.77040 0.22980 -0.08600
C 	C 	0.92600 0.83140 0.37720 0.51100
C 	C 	0.52580 0.73120 0.75690 0.03000
C 	C 	0.04870 0.76470 0.28500 -0.11900
C 	C 	0.65360 0.19900 0.17180 -0.14500
C 	C 	0.60600 0.46040 0.93260 -0.12900
C 	C 	0.90990 0.63370 0.38020 -0.17200
C 	C 	0.56420 0.43590 0.94080 0.18800
C 	C 	0.34640 0.80100 0.17180 -0.14500
C 	C 	0.93580 0.93590 0.44080 0.18800
C 	C 	0.10270 0.76970 0.23330 -0.11400
C 	C 	0.83140 0.07400 0.62280 0.51100
C 	C 	0.81150 0.61180 0.64400 -0.07400
C 	C 	0.39480 0.45000 0.07770 -0.09900
C 	C 	0.38630 0.07280 0.06900 -0.12600
C 	C 	0.97110 0.22450 0.19540 0.60800
C 	C 	0.06970 0.29050 0.87660 0.44000
C 	C 	0.45540 0.60250 0.58270 -0.03500
C 	C 	0.73530 0.48150 0.18820 0.44200
C 	C 	0.18850 0.38820 0.64400 -0.07400
C 	C 	0.43440 0.43610 0.44000 0.11100
C 	C 	0.95000 0.89480 0.42230 -0.09900
C 	C 	0.46040 0.39400 0.06740 -0.12900
C 	C 	0.37850 0.41750 0.10200 -0.10800
C 	C 	0.11010 0.04650 0.06550 -0.04600
C 	C 	0.40550 0.37770 0.11030 0.00500
C 	C 	0.60250 0.54460 0.41730 -0.03500
C 	C 	0.01970 0.45910 0.44890 -0.01200
C 	C 	0.38820 0.81150 0.35600 -0.07400
C 	C 	0.40030 0.26090 0.78330 -0.10500
C 	C 	0.92720 0.38630 0.93100 -0.12600
C 	C 	0.33140 0.42600 0.12280 0.51100
C 	C 	0.61370 0.92720 0.06900 -0.12600
C 	C 	0.22550 0.29460 0.77380 0.08000
C 	C 	0.76820 0.79260 0.76020 0.13600
C 	C 	0.94970 0.98930 0.01860 -0.03100
C 	C 	0.06390 0.06560 0.06000 0.11000
C 	C 	0.08130 0.43820 0.40900 0.10200
C 	C 	0.26820 0.70740 0.26020 0.13600
C 	C 	0.56970 0.20950 0.37660 0.44000
C 	C 	0.48150 0.26470 0.81180 0.44200
C 	C 	0.07400 0.16860 0.37720 0.51100
C 	C 	0.73030 0.39730 0.26670 -0.11300
C 	C 	0.44970 0.51070 0.51860 -0.03400
C 	C 	0.14060 0.06060 0.08770 -0.15800
C 	C 	0.66860 0.57400 0.12280 0.51100
C 	C 	0.40300 0.37850 0.39300 0.08900
C 	C 	0.98030 0.54090 0.44890 -0.01000
C 	C 	0.26090 0.59970 0.21670 -0.10500
C 	C 	0.37410 0.79460 0.32980 -0.10500
C 	C 	0.07280 0.61370 0.93100 -0.12600
C 	C 	0.62770 0.03760 0.89610 -0.03200
C 	C 	0.35940 0.56060 0.58770 -0.15800
C 	C 	0.61430 0.13240 0.63080 0.10900
C 	C 	0.39750 0.45540 0.41730 -0.03500
C 	C 	0.03760 0.37230 0.10390 -0.03200
C 	C 	0.73180 0.29260 0.26020 0.13600
C 	C 	0.00000 0.50000 0.46870 0.03700
C 	C 	0.39400 0.53960 0.93260 -0.12900
C 	C 	0.36150 0.81460 0.14330 -0.04600
C 	C 	0.68560 0.16820 0.18350 0.15900
C 	C 	0.59090 0.88920 0.08170 0.08700
C 	C 	0.22960 0.05450 0.77020 -0.08600
C 	C 	0.32370 0.02480 0.41780 0.46600
C 	C 	0.09970 0.76090 0.28330 -0.10600
C 	C 	0.62150 0.40300 0.60700 0.08900
C 	C 	0.42370 0.61860 0.60520 -0.16700
C 	C 	0.27450 0.79460 0.27380 0.08000
C 	C 	0.63850 0.18540 0.14330 -0.04600
C 	C 	0.19310 0.03960 0.09120 0.52300
C 	C 	0.88630 0.42720 0.56900 -0.12600
C 	C 	0.51270 0.54730 0.02120 0.05700
C 	C 	0.29460 0.77450 0.22620 0.08000
C 	C 	0.20950 0.43030 0.62340 0.44000
C 	C 	0.82370 0.47520 0.91780 0.46700
C 	C 	0.43830 0.89680 0.90250 -0.06600
C 	C 	0.59700 0.62150 0.39300 0.08900
C 	C 	0.90700 0.44690 0.53980 -0.05700
C 	C 	0.95270 0.98730 0.47880 0.06000
C 	C 	0.01270 0.95270 0.52120 0.05800
C 	C 	0.27550 0.52890 0.30460 0.60700
C 	C 	0.40700 0.05310 0.03980 -0.05800
C 	C 	0.40910 0.11080 0.08170 0.08700
C 	C 	0.61080 0.90910 0.41830 0.08700
C 	C 	0.73960 0.23960 0.25000 -0.10000
C 	C 	0.10600 0.03960 0.43260 -0.12900
C 	C 	0.05000 0.10520 0.42230 -0.09900
C 	C 	0.43030 0.79050 0.37660 0.44000
C 	C 	0.59970 0.73910 0.78330 -0.10500
C 	C 	0.02420 0.62090 0.54350 -0.02800
C 	C 	0.97580 0.37910 0.54350 -0.02600
C 	C 	0.45000 0.60520 0.92230 -0.09900
C 	C 	0.12770 0.46240 0.39610 -0.03200
C 	C 	0.46040 0.30690 0.40880 0.52300
C 	C 	0.86150 0.68540 0.64330 -0.04600
C 	C 	0.01810 0.54350 0.01440 -0.03500
C 	C 	0.57630 0.38140 0.60520 -0.16700
C 	C 	0.72550 0.20540 0.27380 0.08000
C 	C 	0.95130 0.23530 0.28500 -0.12100
C 	C 	0.13510 0.54810 0.93010 -0.18200
C 	C 	0.72450 0.47110 0.30460 0.60700
C 	C 	0.33180 0.81440 0.31650 0.15900
C 	C 	0.05290 0.86460 0.59090 -0.06700
C 	C 	0.28590 0.91310 0.37060 0.48500
C 	C 	0.86760 0.61430 0.36920 0.10900
C 	C 	0.45910 0.98030 0.55110 -0.01000
C 	C 	0.04810 0.63510 0.56990 -0.18200
C 	C 	0.77450 0.70540 0.77380 0.08000
C 	C 	0.13370 0.40990 0.11980 -0.17200
C 	C 	0.90030 0.23910 0.28330 -0.10500
C 	C 	0.79460 0.72550 0.72620 0.08000
C 	C 	0.41310 0.78590 0.12940 0.48500
C 	C 	0.86490 0.45190 0.93010 -0.18200
C 	C 	0.04400 0.66220 0.91990 0.50300
C 	C 	0.29050 0.93030 0.12340 0.44000
C 	C 	0.93460 0.67900 0.37370 0.46000
C 	C 	0.81460 0.63850 0.85670 -0.04600
C 	C 	0.93830 0.60320 0.40250 -0.06600
C 	C 	0.07020 0.35020 0.12370 -0.15500
C 	C 	0.52530 0.68330 0.09950 0.43100
C 	C 	0.08250 0.12150 0.39800 -0.10800
C 	C 	0.77040 0.94550 0.77020 -0.08700
C 	C 	0.36630 0.90990 0.61980 -0.17200
C 	C 	0.05310 0.59300 0.96020 -0.05800
C 	C 	0.00000 0.00000 0.50000 -0.02300
C 	C 	0.84640 0.69900 0.67180 -0.14500
C 	C 	0.89730 0.23030 0.23330 -0.11300
C 	C 	0.43580 0.56410 0.94080 0.18800
C 	C 	0.94950 0.41970 0.52900 0.09600
C 	C 	0.94710 0.13540 0.59090 -0.06700
C 	C 	0.18540 0.36150 0.85670 -0.04600
C 	C 	0.45600 0.16220 0.41990 0.50300
C 	C 	0.20540 0.27450 0.72620 0.08000
C 	C 	0.54350 0.98190 0.98560 -0.03300
C 	C 	0.77550 0.97110 0.80460 0.60800
C 	C 	0.44950 0.08030 0.02900 0.09600
C 	C 	0.79460 0.62590 0.67020 -0.10500
C 	C 	0.59010 0.13370 0.88020 -0.17200
C 	C 	0.90910 0.38920 0.58170 0.08700
C 	C 	0.08690 0.28590 0.62940 0.48500
C 	C 	0.54810 0.86490 0.06990 -0.18200
C 	C 	0.95910 0.51970 0.05110 -0.01000
C 	C 	0.37230 0.96240 0.89610 -0.03200
C 	C 	0.55060 0.19810 0.63570 0.43000
C 	C 	0.30690 0.53960 0.59120 0.52300
C 	C 	0.87410 0.70540 0.82980 -0.10500
C 	C 	0.45270 0.51270 0.97880 0.05800
C 	C 	0.85020 0.57020 0.37630 -0.15500
C 	C 	0.76040 0.73960 0.75000 -0.10000
C 	C 	0.57020 0.14980 0.62370 -0.15500
C 	C 	0.11430 0.36760 0.13080 0.10900
C 	C 	0.55000 0.39480 0.92230 -0.09900
C 	C 	0.37850 0.59700 0.60700 0.08900
C 	C 	0.91870 0.56180 0.40900 0.10300
C 	C 	0.53960 0.60600 0.06740 -0.12900
C 	C 	0.50000 0.00000 0.53130 0.03700
C 	C 	0.17900 0.43460 0.12630 0.46000
C 	C 	0.80690 0.96040 0.09120 0.52300
C 	C 	0.56540 0.17900 0.87370 0.46000
C 	C 	0.45350 0.38990 0.43450 -0.04600
C 	C 	0.23530 0.01850 0.68820 0.44100
C 	C 	0.13240 0.38570 0.36920 0.10900
C 	C 	0.31440 0.83180 0.18350 0.15900
C 	C 	0.57400 0.33140 0.87720 0.51100
C 	C 	0.04650 0.88990 0.93450 -0.04600
C 	C 	0.76470 0.98150 0.68820 0.44300
C 	C 	0.62150 0.58250 0.10200 -0.10800
C 	C 	0.83950 0.64700 0.62730 -0.02800
C 	C 	0.55030 0.48930 0.51860 -0.03400
C 	C 	0.95650 0.48190 0.48560 -0.03400
C 	C 	0.79260 0.23180 0.23980 0.13600
C 	C 	0.51850 0.73530 0.81180 0.44200
C 	C 	0.64060 0.43940 0.58770 -0.15800
C 	C 	0.96040 0.10600 0.56740 -0.12900
C 	C 	0.00000 0.50000 0.03130 0.03700
C 	C 	0.16820 0.31440 0.81650 0.15900
C 	C 	0.76970 0.89730 0.76670 -0.11300
C 	C 	0.36760 0.88570 0.86920 0.10900
C 	C 	0.06560 0.93610 0.94000 0.11100
C 	C 	0.27040 0.55450 0.27020 -0.08700
C 	C 	0.04350 0.51810 0.48560 -0.03400
C 	C 	0.03960 0.80690 0.90880 0.52300
C 	C 	0.15360 0.30100 0.67180 -0.14500
C 	C 	0.13850 0.31460 0.64330 -0.04600
C 	C 	0.12090 0.52420 0.95650 -0.02700
C 	C 	0.86630 0.59010 0.11980 -0.17200
C 	C 	0.76200 0.86890 0.74040 0.20000
C 	C 	0.53960 0.69310 0.40880 0.52300
C 	C 	0.92980 0.64980 0.12370 -0.15500
C 	C 	0.89750 0.04460 0.91730 -0.03500
C 	C 	0.39680 0.93830 0.59750 -0.06600
C 	C 	0.55290 0.63540 0.09090 -0.06700
C 	C 	0.69310 0.46040 0.59120 0.52300
C 	C 	0.13110 0.76200 0.25960 0.20100
C 	C 	0.18560 0.33180 0.68350 0.15900
C 	C 	0.20540 0.37410 0.67020 -0.10500
C 	C 	0.38990 0.54650 0.56550 -0.04600
C 	C 	0.93590 0.06420 0.55920 0.18800
C 	C 	0.60320 0.06170 0.59750 -0.06600
C 	C 	0.01070 0.94970 0.98140 -0.03300
C 	C 	0.73910 0.40030 0.21670 -0.10500
C 	C 	0.54460 0.39750 0.58270 -0.03500
C 	C 	0.86890 0.23800 0.25960 0.20000
C 	C 	0.98150 0.23530 0.31180 0.44300
C 	C 	0.03960 0.89400 0.56740 -0.12900
C 	C 	0.05050 0.58030 0.52900 0.09700
C 	C 	0.87770 0.90550 0.38970 0.00500
C 	C 	0.31460 0.86150 0.35670 -0.04600
C 	C 	0.21410 0.41310 0.87060 0.48500
C 	C 	0.44640 0.65690 0.62540 0.50800
C 	C 	0.48030 0.95910 0.94890 -0.01000
C 	C 	0.91310 0.71410 0.62940 0.48500
C 	C 	0.95190 0.36490 0.56990 -0.18300
C 	C 	0.94940 0.69810 0.13570 0.43000
C 	C 	0.56390 0.43440 0.56000 0.11100
C 	C 	0.89480 0.05000 0.57770 -0.09900
C 	C 	0.52890 0.72450 0.69540 0.60700
C 	C 	0.22450 0.02890 0.80460 0.60600
C 	C 	0.47420 0.26880 0.75690 0.03000
C 	C 	0.04460 0.10250 0.08270 -0.03500
C 	C 	0.55310 0.90700 0.46020 -0.05700
C 	C 	0.55450 0.72960 0.72980 -0.08700
C 	C 	0.87230 0.53760 0.39610 -0.03200
C 	C 	0.48730 0.45270 0.02120 0.05700
C 	C 	0.40990 0.86630 0.88020 -0.17200
C 	C 	0.23120 0.02580 0.74310 0.02900
C 	C 	0.09700 0.87850 0.89300 0.08900
C 	C 	0.37910 0.02420 0.45650 -0.02800
C 	C 	0.41870 0.93820 0.90900 0.10300
C 	C 	0.32100 0.93460 0.62630 0.46000
C 	C 	0.64700 0.16050 0.37270 -0.02700
C 	C 	0.97470 0.18330 0.59950 0.43200
C 	C 	0.73800 0.36890 0.24040 0.20000
C 	C 	0.17630 0.52480 0.91780 0.46700
C 	C 	0.47580 0.12090 0.04350 -0.02700
C 	C 	0.61180 0.18850 0.35600 -0.07400
C 	C 	0.87910 0.47580 0.95650 -0.02700
C 	C 	0.08030 0.55050 0.97100 0.09600
C 	C 	0.43820 0.91870 0.59100 0.10300
C 	C 	0.50000 0.50000 0.50000 0.05800
C 	C 	0.06170 0.39680 0.40250 -0.06600
C 	C 	0.44550 0.27040 0.72980 -0.08700
C 	C 	0.02480 0.67630 0.58220 0.46600
C 	C 	0.41970 0.05050 0.47100 0.09700
C 	C 	0.43610 0.56560 0.56000 0.11100
C 	C 	0.88820 0.68850 0.85600 -0.07400
C 	C 	0.60270 0.73030 0.73330 -0.11300
C 	C 	0.05030 0.01070 0.01860 -0.03400
C 	C 	0.30190 0.94940 0.86430 0.43000
C 	C 	0.65690 0.55360 0.37460 0.50800
C 	C 	0.54730 0.48730 0.97880 0.05800
C 	C 	0.97420 0.23120 0.25690 0.03200
C 	C 	0.88990 0.95350 0.06550 -0.04600
C 	C 	0.67630 0.97520 0.41780 0.46800
C 	C 	0.07630 0.11860 0.10520 -0.16700
C 	C 	0.68540 0.13850 0.35670 -0.04600
C 	C 	0.78590 0.58690 0.87060 0.48500
C 	C 	0.11370 0.57280 0.56900 -0.12600
C 	C 	0.59300 0.94690 0.03980 -0.05800
C 	C 	0.14980 0.42980 0.37630 -0.15500
C 	C 	0.26040 0.76040 0.25000 -0.10000
C 	C 	0.72960 0.44550 0.27020 -0.08700
C 	C 	0.88920 0.40910 0.91830 0.08700
C 	C 	0.43940 0.35940 0.41230 -0.15800
C 	C 	0.83180 0.68560 0.81650 0.15900
C 	C 	0.29260 0.26820 0.73980 0.13600
C 	C 	0.94640 0.84310 0.12540 0.50800
C 	C 	0.54090 0.01970 0.55110 -0.01200
C 	C 	0.47470 0.31670 0.09950 0.43100
C 	C 	0.23800 0.13110 0.74040 0.20100
C 	C 	0.04730 0.01270 0.47880 0.05700
C 	C 	0.02530 0.81670 0.59950 0.43100
C 	C 	0.35300 0.83950 0.37270 -0.02800
C 	C 	0.52480 0.82370 0.08220 0.46700
C 	C 	0.23530 0.04870 0.71500 -0.11900
C 	C 	0.63110 0.73800 0.75960 0.20000
C 	C 	0.45650 0.01810 0.98560 -0.03500
C 	C 	0.30100 0.84640 0.32820 -0.14500
C 	C 	0.43590 0.43580 0.05920 0.18800
C 	C 	0.84310 0.05360 0.87460 0.50800
C 	C 	0.26970 0.60270 0.26670 -0.11300
C 	C 	0.73120 0.47420 0.24310 0.03000
C 	C 	0.82100 0.56540 0.12630 0.46000
C 	C 	0.69900 0.15360 0.32820 -0.14500
C 	C 	0.02580 0.76880 0.25690 0.02900
C 	C 	0.12230 0.09450 0.38970 0.00500
C 	C 	0.36490 0.04810 0.43010 -0.18200
C 	C 	0.63510 0.95190 0.43010 -0.18300
C 	C 	0.45130 0.26470 0.78500 -0.12000
C 	C 	0.38570 0.86760 0.63080 0.10900
C 	C 	0.16220 0.54400 0.58010 0.50300
C 	C 	0.44710 0.36460 0.09090 -0.06700
C 	C 	0.06180 0.41870 0.09100 0.10300
C 	C 	0.70740 0.73180 0.73980 0.13600
C 	C 	0.09450 0.87770 0.61030 0.00500
C 	C 	0.56410 0.56420 0.05920 0.18800
C 	C 	0.55050 0.91970 0.02900 0.09700
C 	C 	0.36890 0.26200 0.75960 0.20000
C 	C 	0.62590 0.20540 0.32980 -0.10500
C 	C 	0.35020 0.92980 0.87630 -0.15500
C 	C 	0.98930 0.05030 0.98140 -0.03200
C 	C 	0.89400 0.96040 0.43260 -0.12900
C 	C 	0.48930 0.44970 0.48140 -0.03400
C 	C 	0.51810 0.95650 0.51440 -0.03400
C 	C 	0.90550 0.12230 0.61030 0.00500
C 	C 	0.68330 0.47470 0.90050 0.43100
C 	C 	0.26470 0.54870 0.21500 -0.12000
C 	C 	0.52420 0.87910 0.04350 -0.02700
C 	C 	0.95540 0.89750 0.08270 -0.03500
C 	C 	0.94690 0.40700 0.96020 -0.05800
C 	C 	0.50000 0.00000 0.96870 0.03700
C 	C 	0.81670 0.97470 0.40050 0.43200
C 	C 	0.12590 0.29460 0.82980 -0.10500
C 	C 	0.88570 0.63240 0.13080 0.10900
C 	C 	0.12150 0.91750 0.60200 -0.10800
C 	C 	0.43460 0.82100 0.87370 0.46000
C 	C 	0.87850 0.90300 0.10700 0.08900
C 	C 	0.01850 0.76470 0.31180 0.44100
C 	C 	0.31150 0.88820 0.14400 -0.07400
C 	C 	0.06060 0.85940 0.91230 -0.15800
C 	C 	0.18330 0.02530 0.40050 0.43100
C 	C 	0.76090 0.90030 0.71670 -0.10500
C 	C 	0.66820 0.18560 0.31650 0.15900
C 	C 	0.20740 0.76820 0.23980 0.13600
C 	C 	0.48190 0.04350 0.51440 -0.03400
C 	C 	0.85940 0.93940 0.08770 -0.15800
C 	C 	0.50000 0.50000 -0.00000 -0.02100
C 	C 	0.36460 0.55290 0.90910 -0.06700
C 	C 	0.16860 0.92600 0.62280 0.51100
C 	C 	0.93610 0.93440 0.06000 0.11100
C 	C 	0.34310 0.44640 0.37460 0.50800
C 	C 	0.61010 0.45350 0.56550 -0.04600
C 	C 	0.09300 0.55310 0.53980 -0.05800
C 	C 	-0.00000 0.00000 -0.00000 0.05600
C 	C 	0.79050 0.56970 0.62340 0.44000
C 	C 	0.26880 0.52580 0.24310 0.03000
C 	C 	0.05360 0.15690 0.12540 0.50800
C 	C 	0.71410 0.08690 0.37060 0.48500
C 	C 	0.67900 0.06540 0.62630 0.46000
C 	C 	0.92370 0.88140 0.10520 -0.16600
C 	C 	0.98730 0.04730 0.52120 0.05900
C 	C 	0.96040 0.19310 0.90880 0.52300
C 	C 	0.06420 0.06410 0.44080 0.18800
C 	C 	0.57280 0.88630 0.43100 -0.12600
C 	C 	0.19810 0.44940 0.36430 0.43000
C 	C 	0.33780 0.04400 0.08010 0.50300
C 	C 	0.26200 0.63110 0.24040 0.20000
C 	C 	0.41750 0.62150 0.89800 -0.10800
C 	C 	0.58130 0.06180 0.90900 0.10300
C 	C 	0.69810 0.05060 0.86430 0.43000
C 	C 	0.76880 0.97420 0.74310 0.03200
C 	C 	0.76470 0.95130 0.71500 -0.12100
C 	C 	0.23030 0.10270 0.76670 -0.11400
C 	C 	0.38920 0.09090 0.41830 0.08600
C 	C 	0.81440 0.66820 0.68350 0.15900
C 	C 	0.10520 0.95000 0.57770 -0.09900
C 	C 	0.98190 0.45650 0.01440 -0.03300
C 	C 	0.11860 0.92370 0.89480 -0.16700
C 	C 	0.33950 0.85300 0.12730 -0.02800
C 	C 	0.80190 0.55060 0.36430 0.43000
C 	C 	0.93440 0.06390 0.94000 0.11100
C 	C 	0.63240 0.11430 0.86920 0.10900
C 	C 	0.56170 0.10320 0.90250 -0.06600
C 	C 	0.56560 0.56390 0.44000 0.11100
C 	C 	0.51970 0.04090 0.94890 -0.01100
C 	C 	0.02890 0.77550 0.19540 0.60600
C 	C 	0.62090 0.97580 0.45650 -0.02600
C 	C 	0.86460 0.94710 0.40910 -0.06700
C 	C 	0.29460 0.87410 0.17020 -0.10500
C 	C 	0.47520 0.17630 0.08220 0.46700
C 	C 	0.85300 0.66050 0.87270 -0.02800
C 	C 	0.53760 0.12770 0.60390 -0.03200
C 	C 	0.93940 0.14060 0.91230 -0.15800
C 	C 	0.44690 0.09300 0.46020 -0.05800
C 	C 	0.06540 0.32100 0.37370 0.46000
C 	C 	0.13540 0.05290 0.40910 -0.06700
C 	C 	0.58030 0.94950 0.47100 0.09600
C 	C 	0.23910 0.09970 0.71670 -0.10600
C 	C 	0.96240 0.62770 0.10390 -0.03200
C 	C 	0.58690 0.21410 0.12940 0.48500
C 	C 	0.88140 0.07630 0.89480 -0.16700
C 	C 	0.93030 0.70950 0.87660 0.44000
C 	C 	0.80100 0.65360 0.82820 -0.14500
O 	O 	0.03620 0.27710 0.85780 -0.54400
O 	O 	0.99140 0.81000 0.58070 -0.56100
O 	O 	0.72690 0.44630 0.32220 -0.68700
O 	O 	0.93160 0.70640 0.90290 -0.59900
O 	O 	0.53800 0.74320 0.83700 -0.55300
O 	O 	0.79580 0.50500 0.92970 -0.55600
O 	O 	0.28500 0.55320 0.61460 -0.58500
O 	O 	0.71360 0.00870 0.87263 -0.52700
O 	O 	0.69000 0.50860 0.91930 -0.56200
O 	O 	0.51670 0.32500 0.61830 -0.61100
O 	O 	0.31580 0.03600 0.38960 -0.51300
O 	O 	0.32020 0.01640 0.06260 -0.59600
O 	O 	0.92080 0.71870 0.15420 -0.55400
O 	O 	0.19060 0.97150 0.61158 -0.52100
O 	O 	0.59450 0.20520 0.85610 -0.53700
O 	O 	0.21800 0.98320 0.79920 -0.61900
O 	O 	0.31000 0.49140 0.91930 -0.56200
O 	O 	0.44000 0.76750 0.14480 -0.65300
O 	O 	0.55320 0.71500 0.38540 -0.58500
O 	O 	0.70640 0.06840 0.09710 -0.59900
O 	O 	0.46400 0.18420 0.11040 -0.51300
O 	O 	0.69060 0.52850 0.11158 -0.52100
O 	O 	0.96400 0.31580 0.61040 -0.51300
O 	O 	0.03250 0.05250 0.03850 -0.21100
O 	O 	0.97500 0.43910 0.50300 -0.20100
O 	O 	0.52590 0.05770 0.57066 -0.20500
O 	O 	0.23250 0.44000 0.85520 -0.65400
O 	O 	0.67050 0.94070 0.10560 -0.58700
O 	O 	0.29010 0.82000 0.21210 -0.24000
O 	O 	0.47150 0.69060 0.88842 -0.52100
O 	O 	0.05930 0.67050 0.89440 -0.58700
O 	O 	0.53620 0.22290 0.35780 -0.54300
O 	O 	0.48320 0.71800 0.70080 -0.62000
O 	O 	0.97230 0.69590 0.38437 -0.57600
O 	O 	0.71500 0.44680 0.61460 -0.58500
O 	O 	0.05250 0.96750 0.96150 -0.21100
O 	O 	0.77310 0.94630 0.82220 -0.68700
O 	O 	0.06090 0.52500 0.99700 -0.20100
O 	O 	0.32950 0.05930 0.10560 -0.58700
O 	O 	0.09510 0.18190 0.35920 -0.68000
O 	O 	0.27310 0.55370 0.32220 -0.68700
O 	O 	0.98330 0.82500 0.11830 -0.61100
O 	O 	0.42080 0.78130 0.65420 -0.55400
O 	O 	0.70450 0.49060 0.57390 -0.60800
O 	O 	0.67500 0.51670 0.38170 -0.61100
O 	O 	0.29710 0.53820 0.87730 -0.57200
O 	O 	0.49130 0.78640 0.62737 -0.52700
O 	O 	0.03360 0.05310 0.46160 -0.25900
O 	O 	0.52770 0.19590 0.88437 -0.57600
O 	O 	0.50500 0.20420 0.07030 -0.55600
O 	O 	0.79480 0.59450 0.14390 -0.53700
O 	O 	0.97410 0.55770 0.07066 -0.20500
O 	O 	0.00500 0.29580 0.57030 -0.55600
O 	O 	0.20450 0.00940 0.07390 -0.60800
O 	O 	0.47500 0.06090 0.00300 -0.20100
O 	O 	0.03600 0.68420 0.61040 -0.51300
O 	O 	0.31810 0.40490 0.14080 -0.68000
O 	O 	0.26750 0.94000 0.35520 -0.65300
O 	O 	0.53250 0.44750 0.53850 -0.21100
O 	O 	0.98320 0.78200 0.20080 -0.61900
O 	O 	0.05370 0.77310 0.17780 -0.68700
O 	O 	0.02590 0.44230 0.07066 -0.20500
O 	O 	0.22690 0.05370 0.82220 -0.68700
O 	O 	0.59510 0.31810 0.85920 -0.68000
O 	O 	0.48360 0.17980 0.43740 -0.59600
O 	O 	0.01680 0.21800 0.20080 -0.62000
O 	O 	0.55930 0.82950 0.39440 -0.58700
O 	O 	0.18420 0.53600 0.88960 -0.51300
O 	O 	0.00870 0.28640 0.12737 -0.52700
O 	O 	0.28480 0.90450 0.39850 -0.56900
O 	O 	0.20520 0.40550 0.14390 -0.53700
O 	O 	0.73050 0.52690 0.19240 -0.54900
O 	O 	0.79010 0.68000 0.71210 -0.24000
O 	O 	0.79710 0.96180 0.37730 -0.57200
O 	O 	0.75760 0.82290 0.73760 -0.28300
O 	O 	0.78130 0.57920 0.34580 -0.55400
O 	O 	0.19590 0.47230 0.11563 -0.57600
O 	O 	0.50870 0.21360 0.62737 -0.52700
O 	O 	0.53360 0.44690 0.96160 -0.25900
O 	O 	0.75680 0.96200 0.66300 -0.55300
O 	O 	0.90550 0.70520 0.35610 -0.53700
O 	O 	0.70290 0.46180 0.87730 -0.57200
O 	O 	0.55370 0.72690 0.67780 -0.68700
O 	O 	0.48330 0.67500 0.61830 -0.61100
O 	O 	0.58340 0.33240 0.64700 -0.57700
O 	O 	0.20420 0.49500 0.92970 -0.55600
O 	O 	0.44750 0.46750 0.46150 -0.21100
O 	O 	0.69590 0.02770 0.61563 -0.57600
O 	O 	0.55770 0.02590 0.92934 -0.20500
O 	O 	0.05310 0.96640 0.53840 -0.25900
O 	O 	0.81810 0.09510 0.64080 -0.68000
O 	O 	0.52690 0.26950 0.80760 -0.54900
O 	O 	0.94750 0.03250 0.96150 -0.21100
O 	O 	0.49140 0.69000 0.08070 -0.56200
O 	O 	0.41660 0.66760 0.64700 -0.57700
O 	O 	0.78480 0.59550 0.89850 -0.56900
O 	O 	0.91660 0.83240 0.14700 -0.57700
O 	O 	0.96180 0.20290 0.62270 -0.57200
O 	O 	0.00940 0.79550 0.92610 -0.60800
O 	O 	0.90490 0.81810 0.35920 -0.68000
O 	O 	0.96380 0.72290 0.85780 -0.54300
O 	O 	0.82020 0.48360 0.56260 -0.59600
O 	O 	0.43910 0.02500 0.49700 -0.20100
O 	O 	0.82290 0.24240 0.26240 -0.28300
O 	O 	0.72290 0.03620 0.14220 -0.54400
O 	O 	0.47230 0.80410 0.88437 -0.57600
O 	O 	0.23050 0.97310 0.69240 -0.54800
O 	O 	0.18000 0.29010 0.78790 -0.24000
O 	O 	0.51680 0.28200 0.70080 -0.62000
O 	O 	0.03820 0.79710 0.62270 -0.57200
O 	O 	0.46200 0.25680 0.83700 -0.55300
O 	O 	0.02690 0.23050 0.30760 -0.54900
O 	O 	0.20990 0.32000 0.71210 -0.24000
O 	O 	0.80410 0.52770 0.11563 -0.57600
O 	O 	0.78200 0.01680 0.79920 -0.62000
O 	O 	0.94630 0.22690 0.17780 -0.68700
O 	O 	0.97150 0.80940 0.38842 -0.52100
O 	O 	0.33240 0.41660 0.35300 -0.57700
O 	O 	0.47410 0.94230 0.57066 -0.20500
O 	O 	0.78500 0.94680 0.11460 -0.58400
O 	O 	0.25680 0.53800 0.16300 -0.55300
O 	O 	0.28200 0.48320 0.29920 -0.62000
O 	O 	0.46380 0.77710 0.35780 -0.54300
O 	O 	0.17050 0.55930 0.60560 -0.58700
O 	O 	0.90450 0.71520 0.60150 -0.56900
O 	O 	0.49500 0.79580 0.07030 -0.55600
O 	O 	0.94070 0.32950 0.89440 -0.58700
O 	O 	0.01670 0.17500 0.11830 -0.61100
O 	O 	0.29360 0.93160 0.09710 -0.59900
O 	O 	0.20290 0.03820 0.37730 -0.57200
O 	O 	0.96750 0.94750 0.03850 -0.21100
O 	O 	0.47310 0.73050 0.80760 -0.54900
O 	O 	0.79360 0.56840 0.59710 -0.59900
O 	O 	0.44070 0.17050 0.39440 -0.58700
O 	O 	0.44680 0.28500 0.38540 -0.58500
O 	O 	0.21500 0.05320 0.11460 -0.58500
O 	O 	0.74240 0.32290 0.23760 -0.28300
O 	O 	0.76950 0.02690 0.69240 -0.54900
O 	O 	0.43160 0.79360 0.40290 -0.59900
O 	O 	0.76750 0.56000 0.85520 -0.65300
O 	O 	0.44690 0.46640 0.03840 -0.25900
O 	O 	0.03800 0.75680 0.33700 -0.55300
O 	O 	0.52850 0.30940 0.88842 -0.52100
O 	O 	0.16760 0.91660 0.85300 -0.57700
O 	O 	0.94230 0.52590 0.42934 -0.20500
O 	O 	0.77710 0.53620 0.64220 -0.54300
O 	O 	0.19000 0.99140 0.41930 -0.56100
O 	O 	0.98360 0.32020 0.93740 -0.59600
O 	O 	0.26950 0.47310 0.19240 -0.54900
O 	O 	0.70520 0.09450 0.64390 -0.53700
O 	O 	0.70420 0.00500 0.42970 -0.55600
O 	O 	0.02500 0.56090 0.50300 -0.20100
O 	O 	0.32290 0.25760 0.76240 -0.28300
O 	O 	0.81000 0.00860 0.41930 -0.56200
O 	O 	0.56000 0.23250 0.14480 -0.65400
O 	O 	0.94690 0.03360 0.53840 -0.26000
O 	O 	0.27710 0.96380 0.14220 -0.54300
O 	O 	0.67710 0.74240 0.76240 -0.28300
O 	O 	0.68190 0.59510 0.14080 -0.68000
O 	O 	0.55310 0.53360 0.03840 -0.25900
O 	O 	0.44230 0.97410 0.92934 -0.20500
O 	O 	0.99130 0.71360 0.12737 -0.52600
O 	O 	0.17710 0.75760 0.26240 -0.28300
O 	O 	0.96640 0.94690 0.46160 -0.25900
O 	O 	0.40550 0.79480 0.85610 -0.53700
O 	O 	0.67980 0.98360 0.06260 -0.59600
O 	O 	0.49060 0.29550 0.42610 -0.60800
O 	O 	0.94680 0.21500 0.88540 -0.58400
O 	O 	0.81580 0.46400 0.88960 -0.51300
O 	O 	0.53820 0.70290 0.12270 -0.57200
O 	O 	0.59550 0.21520 0.10150 -0.56900
O 	O 	0.21520 0.40450 0.89850 -0.56900
O 	O 	0.28640 0.99130 0.87263 -0.52600
O 	O 	0.09450 0.29480 0.35610 -0.53700
O 	O 	0.50940 0.70450 0.42610 -0.60800
O 	O 	0.08340 0.16760 0.14700 -0.57700
O 	O 	0.17500 0.98330 0.88170 -0.61100
O 	O 	0.25760 0.67710 0.23760 -0.28300
O 	O 	0.21360 0.49130 0.37263 -0.52700
O 	O 	0.29550 0.50940 0.57390 -0.60800
O 	O 	0.99500 0.70420 0.57030 -0.55500
O 	O 	0.97310 0.76950 0.30760 -0.54800
O 	O 	0.68420 0.96400 0.38960 -0.51300
O 	O 	0.51640 0.82020 0.43740 -0.59600
O 	O 	0.74320 0.46200 0.16300 -0.55300
O 	O 	0.02850 0.19060 0.38842 -0.52100
O 	O 	0.07920 0.28130 0.15420 -0.55400
O 	O 	0.24320 0.03800 0.66300 -0.55300
O 	O 	0.56090 0.97500 0.49700 -0.20100
O 	O 	0.06840 0.29360 0.90290 -0.59900
O 	O 	0.09550 0.28480 0.60150 -0.56900
O 	O 	0.66760 0.58340 0.35300 -0.57700
O 	O 	0.71800 0.51680 0.29920 -0.62000
O 	O 	0.79550 0.99060 0.07390 -0.60800
O 	O 	0.57920 0.21870 0.65420 -0.55400
O 	O 	0.40450 0.78480 0.10150 -0.56900
O 	O 	0.17980 0.51640 0.56260 -0.59600
O 	O 	0.05770 0.47410 0.42934 -0.20500
O 	O 	0.46750 0.55250 0.53850 -0.21100
O 	O 	0.82500 0.01670 0.88170 -0.61100
O 	O 	0.50860 0.31000 0.08070 -0.56200
O 	O 	0.93910 0.47500 0.99700 -0.20100
O 	O 	0.06000 0.26750 0.64480 -0.65400
O 	O 	0.32000 0.79010 0.28790 -0.24000
O 	O 	0.94000 0.73250 0.64480 -0.65300
O 	O 	0.56840 0.20640 0.40290 -0.59900
O 	O 	0.96200 0.24320 0.33700 -0.55300
O 	O 	0.32500 0.48330 0.38170 -0.61100
O 	O 	0.55250 0.53250 0.46150 -0.21100
O 	O 	0.44630 0.27310 0.67780 -0.68700
O 	O 	0.83240 0.08340 0.85300 -0.57700
O 	O 	0.00860 0.19000 0.58070 -0.56200
O 	O 	0.82000 0.70990 0.78790 -0.24000
O 	O 	0.30940 0.47150 0.11158 -0.52100
O 	O 	0.40490 0.68190 0.85920 -0.68000
O 	O 	0.71870 0.07920 0.84580 -0.55400
O 	O 	0.52500 0.93910 0.00300 -0.20100
O 	O 	0.82950 0.44070 0.60560 -0.58700
O 	O 	0.53600 0.81580 0.11040 -0.51300
O 	O 	0.21870 0.42080 0.34580 -0.55400
O 	O 	0.46180 0.29710 0.12270 -0.57200
O 	O 	0.30410 0.97230 0.61563 -0.57600
O 	O 	0.28130 0.92080 0.84580 -0.55400
O 	O 	0.80940 0.02850 0.61158 -0.52100
O 	O 	0.02770 0.30410 0.38437 -0.57600
O 	O 	0.71520 0.09550 0.39850 -0.56900
O 	O 	0.24240 0.17710 0.73760 -0.28300
O 	O 	0.99060 0.20450 0.92610 -0.60800
O 	O 	0.01640 0.67980 0.93740 -0.59600
O 	O 	0.18190 0.90490 0.64080 -0.68000
O 	O 	0.70990 0.18000 0.21210 -0.24000
O 	O 	0.73250 0.06000 0.35520 -0.65400
O 	O 	0.20640 0.43160 0.59710 -0.59900
O 	O 	0.22290 0.46380 0.64220 -0.54300
O 	O 	0.78640 0.50870 0.37263 -0.52700
O 	O 	0.68000 0.20990 0.28790 -0.24000
O 	O 	0.05320 0.78500 0.88540 -0.58500
O 	O 	0.46640 0.55310 0.96160 -0.25900
O 	O 	0.29580 0.99500 0.42970 -0.55500
O 	O 	0.29480 0.90550 0.64390 -0.53700
