data_crystal

_cell_length_a 21.55300
_cell_length_b 21.55300
_cell_length_c 40.78100
_cell_angle_alpha 90.00000
_cell_angle_beta  90.00000
_cell_angle_gamma 90.00000

_symmetry_space_group_name_	'P 1'
_symmetry_space_group_name_H-M	'P 1'

loop_
_symmetry_equiv_pos_as_xyz
  x,y,z

loop_
_atom_site_label
_atom_site_type_symbol
_atom_site_fract_x
_atom_site_fract_y
_atom_site_fract_z
_atom_site_charge
Zn	Zn	0.37999 0.08475 0.37286 1.20300
Zn	Zn	0.45000 0.96629 0.41538 1.19200
Zn	Zn	0.94107 0.93670 0.39378 1.18900
Zn	Zn	0.00875 0.03451 0.33937 1.23900
Zn	Zn	0.62001 0.91525 0.87286 1.20300
Zn	Zn	0.55000 0.03371 0.91538 1.19200
Zn	Zn	0.05893 0.06330 0.89378 1.18900
Zn	Zn	0.99125 0.96549 0.83937 1.23900
Zn	Zn	0.41525 0.87999 0.62286 1.20400
Zn	Zn	0.53371 0.95000 0.66538 1.19300
Zn	Zn	0.56330 0.44107 0.64378 1.19100
Zn	Zn	0.46549 0.50875 0.58937 1.24000
Zn	Zn	0.58475 0.12001 0.12286 1.20400
Zn	Zn	0.46629 0.05000 0.16538 1.19300
Zn	Zn	0.43670 0.55893 0.14378 1.19100
Zn	Zn	0.53451 0.49125 0.08937 1.24000
Zn	Zn	0.12001 0.58475 0.87714 1.20400
Zn	Zn	0.05000 0.46629 0.83462 1.19300
Zn	Zn	0.55893 0.43670 0.85622 1.19100
Zn	Zn	0.49125 0.53451 0.91063 1.24000
Zn	Zn	0.87999 0.41525 0.37714 1.20400
Zn	Zn	0.95000 0.53371 0.33462 1.19300
Zn	Zn	0.44107 0.56330 0.35622 1.19100
Zn	Zn	0.50875 0.46549 0.41063 1.24000
Zn	Zn	0.08475 0.37999 0.62714 1.20400
Zn	Zn	0.96629 0.45000 0.58462 1.19300
Zn	Zn	0.93670 0.94107 0.60622 1.19000
Zn	Zn	0.03451 0.00875 0.66063 1.24000
Zn	Zn	0.91525 0.62001 0.12714 1.20400
Zn	Zn	0.03371 0.55000 0.08462 1.19300
Zn	Zn	0.06330 0.05893 0.10622 1.19000
Zn	Zn	0.96549 0.99125 0.16063 1.24000
H 	H 	0.23340 0.77910 0.50380 0.05400
H 	H 	0.20980 0.72210 0.52420 0.05300
H 	H 	0.08380 0.71410 0.50060 0.04600
H 	H 	0.12760 0.65640 0.50490 0.05300
H 	H 	0.25310 0.71060 0.45670 0.04900
H 	H 	0.19960 0.66750 0.44350 0.05300
H 	H 	0.12090 0.80370 0.46320 0.03700
H 	H 	0.13440 0.75610 0.43490 0.03600
H 	H 	0.28890 0.87760 0.42640 0.09300
H 	H 	0.19350 0.00640 0.37710 0.06000
H 	H 	0.10460 0.86480 0.42070 0.06900
H 	H 	0.26000 0.80910 0.55550 0.09000
H 	H 	0.19830 0.92090 0.62530 0.05800
H 	H 	0.07890 0.85350 0.55850 0.08300
H 	H 	0.03850 0.59650 0.41730 0.08800
H 	H 	0.95480 0.46550 0.47050 0.06600
H 	H 	0.05110 0.60070 0.51540 0.09200
H 	H 	0.29970 0.59850 0.53210 0.10300
H 	H 	0.44860 0.53900 0.47990 0.07000
H 	H 	0.30410 0.61810 0.43390 0.07700
H 	H 	0.76660 0.22090 0.00380 0.05400
H 	H 	0.79020 0.27790 0.02420 0.05300
H 	H 	0.91620 0.28590 0.00060 0.04600
H 	H 	0.87240 0.34360 0.00490 0.05300
H 	H 	0.74690 0.28940 0.95670 0.04900
H 	H 	0.80040 0.33250 0.94350 0.05300
H 	H 	0.87910 0.19630 0.96320 0.03700
H 	H 	0.86560 0.24390 0.93490 0.03600
H 	H 	0.71110 0.12240 0.92640 0.09300
H 	H 	0.80650 0.99360 0.87710 0.06000
H 	H 	0.89540 0.13520 0.92070 0.06900
H 	H 	0.74000 0.19090 0.05550 0.09000
H 	H 	0.80170 0.07910 0.12530 0.05800
H 	H 	0.92110 0.14650 0.05850 0.08300
H 	H 	0.96150 0.40350 0.91730 0.08800
H 	H 	0.04520 0.53450 0.97050 0.06600
H 	H 	0.94890 0.39930 0.01540 0.09200
H 	H 	0.70030 0.40150 0.03210 0.10300
H 	H 	0.55140 0.46100 0.97990 0.07000
H 	H 	0.69590 0.38190 0.93390 0.07700
H 	H 	0.72090 0.73340 0.75380 0.05400
H 	H 	0.77790 0.70980 0.77420 0.05300
H 	H 	0.78590 0.58380 0.75060 0.04500
H 	H 	0.84360 0.62760 0.75490 0.05300
H 	H 	0.78940 0.75310 0.70670 0.04900
H 	H 	0.83250 0.69960 0.69350 0.05300
H 	H 	0.69630 0.62090 0.71320 0.03700
H 	H 	0.74390 0.63440 0.68490 0.03600
H 	H 	0.62240 0.78890 0.67640 0.09300
H 	H 	0.49360 0.69350 0.62710 0.06200
H 	H 	0.63520 0.60460 0.67070 0.07000
H 	H 	0.69090 0.76000 0.80550 0.09000
H 	H 	0.57910 0.69830 0.87530 0.05800
H 	H 	0.64650 0.57890 0.80850 0.08200
H 	H 	0.90350 0.53850 0.66730 0.08800
H 	H 	0.03450 0.45480 0.72050 0.06600
H 	H 	0.89930 0.55110 0.76540 0.09200
H 	H 	0.90150 0.79970 0.78210 0.10300
H 	H 	0.96100 0.94860 0.72990 0.07000
H 	H 	0.88190 0.80410 0.68390 0.07700
H 	H 	0.27910 0.26660 0.25380 0.05400
H 	H 	0.22210 0.29020 0.27420 0.05300
H 	H 	0.21410 0.41620 0.25060 0.04500
H 	H 	0.15640 0.37240 0.25490 0.05300
H 	H 	0.21060 0.24690 0.20670 0.04900
H 	H 	0.16750 0.30040 0.19350 0.05300
H 	H 	0.30370 0.37910 0.21320 0.03700
H 	H 	0.25610 0.36560 0.18490 0.03600
H 	H 	0.37760 0.21110 0.17640 0.09300
H 	H 	0.50640 0.30650 0.12710 0.06200
H 	H 	0.36480 0.39540 0.17070 0.07000
H 	H 	0.30910 0.24000 0.30550 0.09000
H 	H 	0.42090 0.30170 0.37530 0.05800
H 	H 	0.35350 0.42110 0.30850 0.08200
H 	H 	0.09650 0.46150 0.16730 0.08800
H 	H 	0.96550 0.54520 0.22050 0.06600
H 	H 	0.10070 0.44890 0.26540 0.09200
H 	H 	0.09850 0.20030 0.28210 0.10300
H 	H 	0.03900 0.05140 0.22990 0.07000
H 	H 	0.11810 0.19590 0.18390 0.07700
H 	H 	0.26660 0.27910 0.74620 0.05400
H 	H 	0.29020 0.22210 0.72580 0.05300
H 	H 	0.41620 0.21410 0.74940 0.04500
H 	H 	0.37240 0.15640 0.74510 0.05300
H 	H 	0.24690 0.21060 0.79330 0.04900
H 	H 	0.30040 0.16750 0.80650 0.05300
H 	H 	0.37910 0.30370 0.78680 0.03700
H 	H 	0.36560 0.25610 0.81510 0.03600
H 	H 	0.21110 0.37760 0.82360 0.09300
H 	H 	0.30650 0.50640 0.87290 0.06200
H 	H 	0.39540 0.36480 0.82930 0.07000
H 	H 	0.24000 0.30910 0.69450 0.09000
H 	H 	0.30170 0.42090 0.62470 0.05800
H 	H 	0.42110 0.35350 0.69150 0.08200
H 	H 	0.46150 0.09650 0.83270 0.08800
H 	H 	0.54520 0.96550 0.77950 0.06600
H 	H 	0.44890 0.10070 0.73460 0.09200
H 	H 	0.20030 0.09850 0.71790 0.10300
H 	H 	0.05140 0.03900 0.77010 0.07000
H 	H 	0.19590 0.11810 0.81610 0.07700
H 	H 	0.73340 0.72090 0.24620 0.05400
H 	H 	0.70980 0.77790 0.22580 0.05300
H 	H 	0.58380 0.78590 0.24940 0.04500
H 	H 	0.62760 0.84360 0.24510 0.05300
H 	H 	0.75310 0.78940 0.29330 0.04900
H 	H 	0.69960 0.83250 0.30650 0.05300
H 	H 	0.62090 0.69630 0.28680 0.03700
H 	H 	0.63440 0.74390 0.31510 0.03600
H 	H 	0.78890 0.62240 0.32360 0.09300
H 	H 	0.69350 0.49360 0.37290 0.06200
H 	H 	0.60460 0.63520 0.32930 0.07000
H 	H 	0.76000 0.69090 0.19450 0.09000
H 	H 	0.69830 0.57910 0.12470 0.05800
H 	H 	0.57890 0.64650 0.19150 0.08200
H 	H 	0.53850 0.90350 0.33270 0.08800
H 	H 	0.45480 0.03450 0.27950 0.06600
H 	H 	0.55110 0.89930 0.23460 0.09200
H 	H 	0.79970 0.90150 0.21790 0.10300
H 	H 	0.94860 0.96100 0.27010 0.07000
H 	H 	0.80410 0.88190 0.31610 0.07700
H 	H 	0.77910 0.23340 0.49620 0.05400
H 	H 	0.72210 0.20980 0.47580 0.05300
H 	H 	0.71410 0.08380 0.49940 0.04600
H 	H 	0.65640 0.12760 0.49510 0.05300
H 	H 	0.71060 0.25310 0.54330 0.04900
H 	H 	0.66750 0.19960 0.55650 0.05300
H 	H 	0.80370 0.12090 0.53680 0.03700
H 	H 	0.75610 0.13440 0.56510 0.03600
H 	H 	0.87760 0.28890 0.57360 0.09300
H 	H 	0.00640 0.19350 0.62290 0.06000
H 	H 	0.86480 0.10460 0.57930 0.06900
H 	H 	0.80910 0.26000 0.44450 0.09000
H 	H 	0.92090 0.19830 0.37470 0.05800
H 	H 	0.85350 0.07890 0.44150 0.08300
H 	H 	0.59650 0.03850 0.58270 0.08800
H 	H 	0.46550 0.95480 0.52950 0.06600
H 	H 	0.60070 0.05110 0.48460 0.09200
H 	H 	0.59850 0.29970 0.46790 0.10300
H 	H 	0.53900 0.44860 0.52010 0.07000
H 	H 	0.61810 0.30410 0.56610 0.07700
H 	H 	0.22090 0.76660 0.99620 0.05400
H 	H 	0.27790 0.79020 0.97580 0.05300
H 	H 	0.28590 0.91620 0.99940 0.04600
H 	H 	0.34360 0.87240 0.99510 0.05300
H 	H 	0.28940 0.74690 0.04330 0.04900
H 	H 	0.33250 0.80040 0.05650 0.05300
H 	H 	0.19630 0.87910 0.03680 0.03700
H 	H 	0.24390 0.86560 0.06510 0.03600
H 	H 	0.12240 0.71110 0.07360 0.09300
H 	H 	0.99360 0.80650 0.12290 0.06000
H 	H 	0.13520 0.89540 0.07930 0.06900
H 	H 	0.19090 0.74000 0.94450 0.09000
H 	H 	0.07910 0.80170 0.87470 0.05800
H 	H 	0.14650 0.92110 0.94150 0.08300
H 	H 	0.40350 0.96150 0.08270 0.08800
H 	H 	0.53450 0.04520 0.02950 0.06600
H 	H 	0.39930 0.94890 0.98460 0.09200
H 	H 	0.40150 0.70030 0.96790 0.10300
H 	H 	0.46100 0.55140 0.02010 0.07000
H 	H 	0.38190 0.69590 0.06610 0.07700
C 	C 	0.16960 0.72750 0.47921 0.02300
C 	C 	0.19700 0.75500 0.50947 -0.00800
C 	C 	0.11410 0.68810 0.48963 -0.00500
C 	C 	0.21690 0.68660 0.46295 -0.01200
C 	C 	0.15190 0.77600 0.45410 0.01300
C 	C 	0.19640 0.86220 0.42784 0.18000
C 	C 	0.25070 0.89340 0.41985 -0.12900
C 	C 	0.24810 0.94840 0.40203 -0.02600
C 	C 	0.31380 0.98170 0.39722 0.33700
C 	C 	0.19410 0.97050 0.38979 -0.00200
C 	C 	0.13970 0.93850 0.39664 -0.08800
C 	C 	0.14140 0.88530 0.41586 -0.10700
C 	C 	0.08000 0.96070 0.38640 0.41700
C 	C 	0.16810 0.82700 0.55268 0.17100
C 	C 	0.22770 0.83040 0.56557 -0.10600
C 	C 	0.23890 0.86580 0.59344 -0.06500
C 	C 	0.30780 0.87160 0.60870 0.50900
C 	C 	0.19100 0.89610 0.60703 0.00600
C 	C 	0.13080 0.89190 0.59493 -0.06300
C 	C 	0.11880 0.85670 0.56708 -0.10600
C 	C 	0.07630 0.92480 0.60987 0.39600
C 	C 	0.04680 0.60950 0.46624 0.17500
C 	C 	0.02680 0.58070 0.43763 -0.12100
C 	C 	0.98940 0.52830 0.43936 -0.04200
C 	C 	0.96810 0.50270 0.40595 0.37900
C 	C 	0.97750 0.50210 0.46932 -0.02500
C 	C 	0.99920 0.52960 0.49796 -0.02900
C 	C 	0.03510 0.58300 0.49635 -0.13200
C 	C 	0.98600 0.50320 0.53152 0.31500
C 	C 	0.29050 0.61270 0.48330 0.16700
C 	C 	0.31930 0.59300 0.51198 -0.12300
C 	C 	0.37730 0.56500 0.51059 -0.02300
C 	C 	0.40380 0.54670 0.54320 0.31400
C 	C 	0.40900 0.55610 0.48041 -0.01200
C 	C 	0.37920 0.57390 0.45170 -0.08300
C 	C 	0.32210 0.60370 0.45322 -0.09700
C 	C 	0.40750 0.56350 0.41870 0.44200
C 	C 	0.83040 0.27250 0.97921 0.02300
C 	C 	0.80300 0.24500 0.00947 -0.00800
C 	C 	0.88590 0.31190 0.98963 -0.00500
C 	C 	0.78310 0.31340 0.96295 -0.01200
C 	C 	0.84810 0.22400 0.95410 0.01300
C 	C 	0.80360 0.13780 0.92784 0.18000
C 	C 	0.74930 0.10660 0.91985 -0.12900
C 	C 	0.75190 0.05160 0.90203 -0.02600
C 	C 	0.68620 0.01830 0.89722 0.33700
C 	C 	0.80590 0.02950 0.88979 -0.00200
C 	C 	0.86030 0.06150 0.89664 -0.08800
C 	C 	0.85860 0.11470 0.91586 -0.10700
C 	C 	0.92000 0.03930 0.88640 0.41700
C 	C 	0.83190 0.17300 0.05268 0.17100
C 	C 	0.77230 0.16960 0.06557 -0.10600
C 	C 	0.76110 0.13420 0.09344 -0.06500
C 	C 	0.69220 0.12840 0.10870 0.50900
C 	C 	0.80900 0.10390 0.10703 0.00600
C 	C 	0.86920 0.10810 0.09493 -0.06300
C 	C 	0.88120 0.14330 0.06708 -0.10600
C 	C 	0.92370 0.07520 0.10987 0.39600
C 	C 	0.95320 0.39050 0.96624 0.17500
C 	C 	0.97320 0.41930 0.93763 -0.12200
C 	C 	0.01060 0.47170 0.93936 -0.04200
C 	C 	0.03190 0.49730 0.90595 0.37900
C 	C 	0.02250 0.49790 0.96932 -0.02500
C 	C 	0.00080 0.47040 0.99796 -0.02900
C 	C 	0.96490 0.41700 0.99635 -0.13300
C 	C 	0.01400 0.49680 0.03152 0.31500
C 	C 	0.70950 0.38730 0.98330 0.16700
C 	C 	0.68070 0.40700 0.01198 -0.12300
C 	C 	0.62270 0.43500 0.01059 -0.02300
C 	C 	0.59620 0.45330 0.04320 0.31400
C 	C 	0.59100 0.44390 0.98041 -0.01200
C 	C 	0.62080 0.42610 0.95170 -0.08300
C 	C 	0.67790 0.39630 0.95322 -0.09700
C 	C 	0.59250 0.43650 0.91870 0.44200
C 	C 	0.77250 0.66960 0.72921 0.02200
C 	C 	0.74500 0.69700 0.75947 -0.00800
C 	C 	0.81190 0.61410 0.73963 -0.00500
C 	C 	0.81340 0.71690 0.71295 -0.01200
C 	C 	0.72400 0.65190 0.70410 0.01400
C 	C 	0.63780 0.69640 0.67784 0.18100
C 	C 	0.60660 0.75070 0.66985 -0.13100
C 	C 	0.55160 0.74810 0.65203 -0.02400
C 	C 	0.51830 0.81380 0.64722 0.33500
C 	C 	0.52950 0.69410 0.63979 -0.00700
C 	C 	0.56150 0.63970 0.64664 -0.08500
C 	C 	0.61470 0.64140 0.66586 -0.10900
C 	C 	0.53930 0.58000 0.63640 0.41300
C 	C 	0.67300 0.66810 0.80268 0.17100
C 	C 	0.66960 0.72770 0.81557 -0.10600
C 	C 	0.63420 0.73890 0.84344 -0.06500
C 	C 	0.62840 0.80780 0.85870 0.51000
C 	C 	0.60390 0.69100 0.85703 0.00600
C 	C 	0.60810 0.63080 0.84493 -0.06400
C 	C 	0.64330 0.61880 0.81708 -0.10600
C 	C 	0.57520 0.57630 0.85987 0.39600
C 	C 	0.89050 0.54680 0.71624 0.17500
C 	C 	0.91930 0.52680 0.68763 -0.12200
C 	C 	0.97170 0.48940 0.68936 -0.04100
C 	C 	0.99730 0.46810 0.65595 0.37900
C 	C 	0.99790 0.47750 0.71932 -0.02500
C 	C 	0.97040 0.49920 0.74796 -0.02800
C 	C 	0.91700 0.53510 0.74635 -0.13300
C 	C 	0.99680 0.48600 0.78152 0.31500
C 	C 	0.88730 0.79050 0.73330 0.16700
C 	C 	0.90700 0.81930 0.76198 -0.12300
C 	C 	0.93500 0.87730 0.76059 -0.02400
C 	C 	0.95330 0.90380 0.79320 0.31400
C 	C 	0.94390 0.90900 0.73041 -0.01200
C 	C 	0.92610 0.87920 0.70170 -0.08400
C 	C 	0.89630 0.82210 0.70322 -0.09700
C 	C 	0.93650 0.90750 0.66870 0.44200
C 	C 	0.22750 0.33040 0.22921 0.02200
C 	C 	0.25500 0.30300 0.25947 -0.00800
C 	C 	0.18810 0.38590 0.23963 -0.00500
C 	C 	0.18660 0.28310 0.21295 -0.01200
C 	C 	0.27600 0.34810 0.20410 0.01400
C 	C 	0.36220 0.30360 0.17784 0.18100
C 	C 	0.39340 0.24930 0.16985 -0.13100
C 	C 	0.44840 0.25190 0.15203 -0.02400
C 	C 	0.48170 0.18620 0.14722 0.33500
C 	C 	0.47050 0.30590 0.13979 -0.00700
C 	C 	0.43850 0.36030 0.14664 -0.08500
C 	C 	0.38530 0.35860 0.16586 -0.10900
C 	C 	0.46070 0.42000 0.13640 0.41300
C 	C 	0.32700 0.33190 0.30268 0.17100
C 	C 	0.33040 0.27230 0.31557 -0.10600
C 	C 	0.36580 0.26110 0.34344 -0.06500
C 	C 	0.37160 0.19220 0.35870 0.51000
C 	C 	0.39610 0.30900 0.35703 0.00600
C 	C 	0.39190 0.36920 0.34493 -0.06400
C 	C 	0.35670 0.38120 0.31708 -0.10600
C 	C 	0.42480 0.42370 0.35987 0.39600
C 	C 	0.10950 0.45320 0.21624 0.17500
C 	C 	0.08070 0.47320 0.18763 -0.12200
C 	C 	0.02830 0.51060 0.18936 -0.04100
C 	C 	0.00270 0.53190 0.15595 0.37900
C 	C 	0.00210 0.52250 0.21932 -0.02500
C 	C 	0.02960 0.50080 0.24796 -0.02800
C 	C 	0.08300 0.46490 0.24635 -0.13300
C 	C 	0.00320 0.51400 0.28152 0.31500
C 	C 	0.11270 0.20950 0.23330 0.16700
C 	C 	0.09300 0.18070 0.26198 -0.12300
C 	C 	0.06500 0.12270 0.26059 -0.02400
C 	C 	0.04670 0.09620 0.29320 0.31400
C 	C 	0.05610 0.09100 0.23041 -0.01200
C 	C 	0.07390 0.12080 0.20170 -0.08400
C 	C 	0.10370 0.17790 0.20322 -0.09700
C 	C 	0.06350 0.09250 0.16870 0.44200
C 	C 	0.33040 0.22750 0.77079 0.02200
C 	C 	0.30300 0.25500 0.74053 -0.00800
C 	C 	0.38590 0.18810 0.76037 -0.00500
C 	C 	0.28310 0.18660 0.78705 -0.01200
C 	C 	0.34810 0.27600 0.79590 0.01400
C 	C 	0.30360 0.36220 0.82216 0.18100
C 	C 	0.24930 0.39340 0.83015 -0.13100
C 	C 	0.25190 0.44840 0.84797 -0.02400
C 	C 	0.18620 0.48170 0.85278 0.33500
C 	C 	0.30590 0.47050 0.86021 -0.00700
C 	C 	0.36030 0.43850 0.85336 -0.08500
C 	C 	0.35860 0.38530 0.83414 -0.10900
C 	C 	0.42000 0.46070 0.86360 0.41300
C 	C 	0.33190 0.32700 0.69732 0.17100
C 	C 	0.27230 0.33040 0.68443 -0.10600
C 	C 	0.26110 0.36580 0.65656 -0.06500
C 	C 	0.19220 0.37160 0.64130 0.51000
C 	C 	0.30900 0.39610 0.64297 0.00600
C 	C 	0.36920 0.39190 0.65507 -0.06400
C 	C 	0.38120 0.35670 0.68292 -0.10600
C 	C 	0.42370 0.42480 0.64013 0.39600
C 	C 	0.45320 0.10950 0.78376 0.17500
C 	C 	0.47320 0.08070 0.81237 -0.12200
C 	C 	0.51060 0.02830 0.81064 -0.04100
C 	C 	0.53190 0.00270 0.84405 0.37900
C 	C 	0.52250 0.00210 0.78068 -0.02500
C 	C 	0.50080 0.02960 0.75204 -0.02800
C 	C 	0.46490 0.08300 0.75365 -0.13300
C 	C 	0.51400 0.00320 0.71848 0.31500
C 	C 	0.20950 0.11270 0.76670 0.16700
C 	C 	0.18070 0.09300 0.73802 -0.12300
C 	C 	0.12270 0.06500 0.73941 -0.02400
C 	C 	0.09620 0.04670 0.70680 0.31400
C 	C 	0.09100 0.05610 0.76959 -0.01200
C 	C 	0.12080 0.07390 0.79830 -0.08400
C 	C 	0.17790 0.10370 0.79678 -0.09700
C 	C 	0.09250 0.06350 0.83130 0.44200
C 	C 	0.66960 0.77250 0.27079 0.02200
C 	C 	0.69700 0.74500 0.24053 -0.00800
C 	C 	0.61410 0.81190 0.26037 -0.00500
C 	C 	0.71690 0.81340 0.28705 -0.01200
C 	C 	0.65190 0.72400 0.29590 0.01400
C 	C 	0.69640 0.63780 0.32216 0.18100
C 	C 	0.75070 0.60660 0.33015 -0.13100
C 	C 	0.74810 0.55160 0.34797 -0.02400
C 	C 	0.81380 0.51830 0.35278 0.33500
C 	C 	0.69410 0.52950 0.36021 -0.00700
C 	C 	0.63970 0.56150 0.35336 -0.08500
C 	C 	0.64140 0.61470 0.33414 -0.10900
C 	C 	0.58000 0.53930 0.36360 0.41300
C 	C 	0.66810 0.67300 0.19732 0.17100
C 	C 	0.72770 0.66960 0.18443 -0.10600
C 	C 	0.73890 0.63420 0.15656 -0.06500
C 	C 	0.80780 0.62840 0.14130 0.51000
C 	C 	0.69100 0.60390 0.14297 0.00600
C 	C 	0.63080 0.60810 0.15507 -0.06400
C 	C 	0.61880 0.64330 0.18292 -0.10600
C 	C 	0.57630 0.57520 0.14013 0.39600
C 	C 	0.54680 0.89050 0.28376 0.17500
C 	C 	0.52680 0.91930 0.31237 -0.12200
C 	C 	0.48940 0.97170 0.31064 -0.04100
C 	C 	0.46810 0.99730 0.34405 0.37900
C 	C 	0.47750 0.99790 0.28068 -0.02500
C 	C 	0.49920 0.97040 0.25204 -0.02800
C 	C 	0.53510 0.91700 0.25365 -0.13300
C 	C 	0.48600 0.99680 0.21848 0.31500
C 	C 	0.79050 0.88730 0.26670 0.16700
C 	C 	0.81930 0.90700 0.23802 -0.12300
C 	C 	0.87730 0.93500 0.23941 -0.02400
C 	C 	0.90380 0.95330 0.20680 0.31400
C 	C 	0.90900 0.94390 0.26959 -0.01200
C 	C 	0.87920 0.92610 0.29830 -0.08400
C 	C 	0.82210 0.89630 0.29678 -0.09700
C 	C 	0.90750 0.93650 0.33130 0.44200
C 	C 	0.72750 0.16960 0.52079 0.02300
C 	C 	0.75500 0.19700 0.49053 -0.00800
C 	C 	0.68810 0.11410 0.51037 -0.00500
C 	C 	0.68660 0.21690 0.53705 -0.01200
C 	C 	0.77600 0.15190 0.54590 0.01300
C 	C 	0.86220 0.19640 0.57216 0.18000
C 	C 	0.89340 0.25070 0.58015 -0.12900
C 	C 	0.94840 0.24810 0.59797 -0.02600
C 	C 	0.98170 0.31380 0.60278 0.33700
C 	C 	0.97050 0.19410 0.61021 -0.00200
C 	C 	0.93850 0.13970 0.60336 -0.08800
C 	C 	0.88530 0.14140 0.58414 -0.10700
C 	C 	0.96070 0.08000 0.61360 0.41700
C 	C 	0.82700 0.16810 0.44732 0.17100
C 	C 	0.83040 0.22770 0.43443 -0.10600
C 	C 	0.86580 0.23890 0.40656 -0.06500
C 	C 	0.87160 0.30780 0.39130 0.50900
C 	C 	0.89610 0.19100 0.39297 0.00600
C 	C 	0.89190 0.13080 0.40507 -0.06300
C 	C 	0.85670 0.11880 0.43292 -0.10600
C 	C 	0.92480 0.07630 0.39013 0.39600
C 	C 	0.60950 0.04680 0.53376 0.17500
C 	C 	0.58070 0.02680 0.56237 -0.12100
C 	C 	0.52830 0.98940 0.56064 -0.04200
C 	C 	0.50270 0.96810 0.59405 0.37900
C 	C 	0.50210 0.97750 0.53068 -0.02500
C 	C 	0.52960 0.99920 0.50204 -0.02900
C 	C 	0.58300 0.03510 0.50365 -0.13200
C 	C 	0.50320 0.98600 0.46848 0.31500
C 	C 	0.61270 0.29050 0.51670 0.16700
C 	C 	0.59300 0.31930 0.48802 -0.12300
C 	C 	0.56500 0.37730 0.48941 -0.02300
C 	C 	0.54670 0.40380 0.45680 0.31400
C 	C 	0.55610 0.40900 0.51959 -0.01200
C 	C 	0.57390 0.37920 0.54830 -0.08300
C 	C 	0.60370 0.32210 0.54678 -0.09700
C 	C 	0.56350 0.40750 0.58130 0.44200
C 	C 	0.27250 0.83040 0.02079 0.02300
C 	C 	0.24500 0.80300 0.99053 -0.00800
C 	C 	0.31190 0.88590 0.01037 -0.00500
C 	C 	0.31340 0.78310 0.03705 -0.01200
C 	C 	0.22400 0.84810 0.04590 0.01300
C 	C 	0.13780 0.80360 0.07216 0.18000
C 	C 	0.10660 0.74930 0.08015 -0.12900
C 	C 	0.05160 0.75190 0.09797 -0.02600
C 	C 	0.01830 0.68620 0.10278 0.33700
C 	C 	0.02950 0.80590 0.11021 -0.00200
C 	C 	0.06150 0.86030 0.10336 -0.08800
C 	C 	0.11470 0.85860 0.08414 -0.10700
C 	C 	0.03930 0.92000 0.11360 0.41700
C 	C 	0.17300 0.83190 0.94732 0.17100
C 	C 	0.16960 0.77230 0.93443 -0.10600
C 	C 	0.13420 0.76110 0.90656 -0.06500
C 	C 	0.12840 0.69220 0.89130 0.50900
C 	C 	0.10390 0.80900 0.89297 0.00600
C 	C 	0.10810 0.86920 0.90507 -0.06300
C 	C 	0.14330 0.88120 0.93292 -0.10600
C 	C 	0.07520 0.92370 0.89013 0.39600
C 	C 	0.39050 0.95320 0.03376 0.17500
C 	C 	0.41930 0.97320 0.06237 -0.12200
C 	C 	0.47170 0.01060 0.06064 -0.04200
C 	C 	0.49730 0.03190 0.09405 0.37900
C 	C 	0.49790 0.02250 0.03068 -0.02500
C 	C 	0.47040 0.00080 0.00204 -0.02900
C 	C 	0.41700 0.96490 0.00365 -0.13300
C 	C 	0.49680 0.01400 0.96848 0.31500
C 	C 	0.38730 0.70950 0.01670 0.16700
C 	C 	0.40700 0.68070 0.98802 -0.12300
C 	C 	0.43500 0.62270 0.98941 -0.02300
C 	C 	0.45330 0.59620 0.95680 0.31400
C 	C 	0.44390 0.59100 0.01959 -0.01200
C 	C 	0.42610 0.62080 0.04830 -0.08300
C 	C 	0.39630 0.67790 0.04678 -0.09700
C 	C 	0.43650 0.59250 0.08130 0.44200
O 	O 	0.36230 0.95810 0.40801 -0.52900
O 	O 	0.30730 0.03660 0.38268 -0.46800
O 	O 	0.99580 0.53020 0.55668 -0.43100
O 	O 	0.96920 0.44730 0.53226 -0.41700
O 	O 	0.07820 0.00520 0.36509 -0.47400
O 	O 	0.03080 0.93780 0.39631 -0.54000
O 	O 	0.37950 0.55440 0.56802 -0.37100
O 	O 	0.45910 0.52250 0.54077 -0.40000
O 	O 	0.92740 0.45830 0.40950 -0.49200
O 	O 	0.98200 0.52760 0.38019 -0.52500
O 	O 	0.08690 0.95460 0.63616 -0.48300
O 	O 	0.02520 0.91950 0.59592 -0.50300
O 	O 	0.38300 0.57960 0.39243 -0.51400
O 	O 	0.45870 0.54320 0.41842 -0.54900
O 	O 	0.34450 0.84360 0.59541 -0.49800
O 	O 	0.31630 0.90010 0.63102 -0.50600
O 	O 	0.20450 0.80980 0.44526 -0.23100
O 	O 	0.15300 0.79380 0.52545 -0.22100
O 	O 	0.23360 0.64000 0.48653 -0.21500
O 	O 	0.08640 0.65960 0.46168 -0.22200
O 	O 	0.63770 0.04190 0.90801 -0.52900
O 	O 	0.69270 0.96340 0.88268 -0.46800
O 	O 	0.00420 0.46980 0.05668 -0.43100
O 	O 	0.03080 0.55270 0.03226 -0.41700
O 	O 	0.92180 0.99480 0.86509 -0.47400
O 	O 	0.96920 0.06220 0.89631 -0.54000
O 	O 	0.62050 0.44560 0.06802 -0.37100
O 	O 	0.54090 0.47750 0.04077 -0.40000
O 	O 	0.07260 0.54170 0.90950 -0.49200
O 	O 	0.01800 0.47240 0.88019 -0.52500
O 	O 	0.91310 0.04540 0.13616 -0.48300
O 	O 	0.97480 0.08050 0.09592 -0.50300
O 	O 	0.61700 0.42040 0.89243 -0.51400
O 	O 	0.54130 0.45680 0.91842 -0.54900
O 	O 	0.65550 0.15640 0.09541 -0.49800
O 	O 	0.68370 0.09990 0.13102 -0.50600
O 	O 	0.79550 0.19020 0.94526 -0.23100
O 	O 	0.84700 0.20620 0.02545 -0.22100
O 	O 	0.76640 0.36000 0.98653 -0.21500
O 	O 	0.91360 0.34040 0.96168 -0.22200
O 	O 	0.54190 0.86230 0.65801 -0.52900
O 	O 	0.46340 0.80730 0.63268 -0.46700
O 	O 	0.96980 0.49580 0.80668 -0.43100
O 	O 	0.05270 0.46920 0.78226 -0.41700
O 	O 	0.49480 0.57820 0.61509 -0.47200
O 	O 	0.56220 0.53080 0.64631 -0.54100
O 	O 	0.94560 0.87950 0.81802 -0.37100
O 	O 	0.97750 0.95910 0.79077 -0.40100
O 	O 	0.04170 0.42740 0.65950 -0.49200
O 	O 	0.97240 0.48200 0.63019 -0.52500
O 	O 	0.54540 0.58690 0.88616 -0.48500
O 	O 	0.58050 0.52520 0.84592 -0.50500
O 	O 	0.92040 0.88300 0.64243 -0.51400
O 	O 	0.95680 0.95870 0.66842 -0.55000
O 	O 	0.65640 0.84450 0.84541 -0.49800
O 	O 	0.59990 0.81630 0.88102 -0.50600
O 	O 	0.69020 0.70450 0.69526 -0.23100
O 	O 	0.70620 0.65300 0.77545 -0.22100
O 	O 	0.86000 0.73360 0.73653 -0.21500
O 	O 	0.84040 0.58640 0.71168 -0.22200
O 	O 	0.45810 0.13770 0.15801 -0.52900
O 	O 	0.53660 0.19270 0.13268 -0.46700
O 	O 	0.03020 0.50420 0.30668 -0.43100
O 	O 	0.94730 0.53080 0.28226 -0.41700
O 	O 	0.50520 0.42180 0.11509 -0.47200
O 	O 	0.43780 0.46920 0.14631 -0.54100
O 	O 	0.05440 0.12050 0.31802 -0.37100
O 	O 	0.02250 0.04090 0.29077 -0.40100
O 	O 	0.95830 0.57260 0.15950 -0.49200
O 	O 	0.02760 0.51800 0.13019 -0.52500
O 	O 	0.45460 0.41310 0.38616 -0.48500
O 	O 	0.41950 0.47480 0.34592 -0.50500
O 	O 	0.07960 0.11700 0.14243 -0.51400
O 	O 	0.04320 0.04130 0.16842 -0.55000
O 	O 	0.34360 0.15550 0.34541 -0.49800
O 	O 	0.40010 0.18370 0.38102 -0.50600
O 	O 	0.30980 0.29550 0.19526 -0.23100
O 	O 	0.29380 0.34700 0.27545 -0.22100
O 	O 	0.14000 0.26640 0.23653 -0.21500
O 	O 	0.15960 0.41360 0.21168 -0.22200
O 	O 	0.13770 0.45810 0.84199 -0.52900
O 	O 	0.19270 0.53660 0.86732 -0.46700
O 	O 	0.50420 0.03020 0.69332 -0.43100
O 	O 	0.53080 0.94730 0.71774 -0.41700
O 	O 	0.42180 0.50520 0.88491 -0.47200
O 	O 	0.46920 0.43780 0.85369 -0.54100
O 	O 	0.12050 0.05440 0.68198 -0.37100
O 	O 	0.04090 0.02250 0.70923 -0.40100
O 	O 	0.57260 0.95830 0.84050 -0.49200
O 	O 	0.51800 0.02760 0.86981 -0.52500
O 	O 	0.41310 0.45460 0.61384 -0.48500
O 	O 	0.47480 0.41950 0.65408 -0.50500
O 	O 	0.11700 0.07960 0.85757 -0.51400
O 	O 	0.04130 0.04320 0.83158 -0.55000
O 	O 	0.15550 0.34360 0.65459 -0.49800
O 	O 	0.18370 0.40010 0.61898 -0.50600
O 	O 	0.29550 0.30980 0.80474 -0.23100
O 	O 	0.34700 0.29380 0.72455 -0.22100
O 	O 	0.26640 0.14000 0.76347 -0.21500
O 	O 	0.41360 0.15960 0.78832 -0.22200
O 	O 	0.86230 0.54190 0.34199 -0.52900
O 	O 	0.80730 0.46340 0.36732 -0.46700
O 	O 	0.49580 0.96980 0.19332 -0.43100
O 	O 	0.46920 0.05270 0.21774 -0.41700
O 	O 	0.57820 0.49480 0.38491 -0.47200
O 	O 	0.53080 0.56220 0.35369 -0.54100
O 	O 	0.87950 0.94560 0.18198 -0.37100
O 	O 	0.95910 0.97750 0.20923 -0.40100
O 	O 	0.42740 0.04170 0.34050 -0.49200
O 	O 	0.48200 0.97240 0.36981 -0.52500
O 	O 	0.58690 0.54540 0.11384 -0.48500
O 	O 	0.52520 0.58050 0.15408 -0.50500
O 	O 	0.88300 0.92040 0.35757 -0.51400
O 	O 	0.95870 0.95680 0.33158 -0.55000
O 	O 	0.84450 0.65640 0.15459 -0.49800
O 	O 	0.81630 0.59990 0.11898 -0.50600
O 	O 	0.70450 0.69020 0.30474 -0.23100
O 	O 	0.65300 0.70620 0.22455 -0.22100
O 	O 	0.73360 0.86000 0.26347 -0.21500
O 	O 	0.58640 0.84040 0.28832 -0.22200
O 	O 	0.95810 0.36230 0.59199 -0.52900
O 	O 	0.03660 0.30730 0.61732 -0.46800
O 	O 	0.53020 0.99580 0.44332 -0.43100
O 	O 	0.44730 0.96920 0.46774 -0.41700
O 	O 	0.00520 0.07820 0.63491 -0.47400
O 	O 	0.93780 0.03080 0.60369 -0.54000
O 	O 	0.55440 0.37950 0.43198 -0.37100
O 	O 	0.52250 0.45910 0.45923 -0.40000
O 	O 	0.45830 0.92740 0.59050 -0.49200
O 	O 	0.52760 0.98200 0.61981 -0.52500
O 	O 	0.95460 0.08690 0.36384 -0.48300
O 	O 	0.91950 0.02520 0.40408 -0.50300
O 	O 	0.57960 0.38300 0.60757 -0.51400
O 	O 	0.54320 0.45870 0.58158 -0.54900
O 	O 	0.84360 0.34450 0.40459 -0.49800
O 	O 	0.90010 0.31630 0.36898 -0.50600
O 	O 	0.80980 0.20450 0.55474 -0.23100
O 	O 	0.79380 0.15300 0.47455 -0.22100
O 	O 	0.64000 0.23360 0.51347 -0.21500
O 	O 	0.65960 0.08640 0.53832 -0.22200
O 	O 	0.04190 0.63770 0.09199 -0.52900
O 	O 	0.96340 0.69270 0.11732 -0.46800
O 	O 	0.46980 0.00420 0.94332 -0.43100
O 	O 	0.55270 0.03080 0.96774 -0.41700
O 	O 	0.99480 0.92180 0.13491 -0.47400
O 	O 	0.06220 0.96920 0.10369 -0.54000
O 	O 	0.44560 0.62050 0.93198 -0.37100
O 	O 	0.47750 0.54090 0.95923 -0.40000
O 	O 	0.54170 0.07260 0.09050 -0.49200
O 	O 	0.47240 0.01800 0.11981 -0.52500
O 	O 	0.04540 0.91310 0.86384 -0.48300
O 	O 	0.08050 0.97480 0.90408 -0.50300
O 	O 	0.42040 0.61700 0.10757 -0.51400
O 	O 	0.45680 0.54130 0.08158 -0.54900
O 	O 	0.15640 0.65550 0.90459 -0.49800
O 	O 	0.09990 0.68370 0.86898 -0.50600
O 	O 	0.19020 0.79550 0.05474 -0.23100
O 	O 	0.20620 0.84700 0.97455 -0.22100
O 	O 	0.36000 0.76640 0.01347 -0.21500
O 	O 	0.34040 0.91360 0.03832 -0.22200
