data_crystal

_cell_length_a 18.90200
_cell_length_b 30.46400
_cell_length_c 31.00400
_cell_angle_alpha 90.00000
_cell_angle_beta  90.00000
_cell_angle_gamma 90.00000

_symmetry_space_group_name_	'P 1'
_symmetry_space_group_name_H-M	'P 1'

loop_
_symmetry_equiv_pos_as_xyz
  x,y,z

loop_
_atom_site_label
_atom_site_type_symbol
_atom_site_fract_x
_atom_site_fract_y
_atom_site_fract_z
_atom_site_charge
Zn	Zn	0.77172 0.03115 0.52280 1.19500
Zn	Zn	0.84944 0.94588 0.50661 1.19000
Zn	Zn	0.24479 0.00016 0.96021 1.19100
Zn	Zn	0.34739 0.79933 0.73712 1.20900
Zn	Zn	0.32512 0.00388 0.04468 1.19100
Zn	Zn	0.25318 0.79423 0.64294 1.20500
Zn	Zn	0.30068 0.70856 0.28500 1.19200
Zn	Zn	0.32870 0.74406 0.18045 1.23300
Zn	Zn	0.33359 0.70570 0.67847 1.15000
Zn	Zn	0.27172 0.96885 0.47720 1.19400
Zn	Zn	0.34944 0.05412 0.49339 1.18900
Zn	Zn	0.74479 0.99984 0.03979 1.19000
Zn	Zn	0.84739 0.20067 0.26288 1.20800
Zn	Zn	0.82512 0.99612 0.95532 1.19000
Zn	Zn	0.75318 0.20577 0.35706 1.20400
Zn	Zn	0.80068 0.29144 0.71500 1.19000
Zn	Zn	0.82870 0.25594 0.81955 1.23200
Zn	Zn	0.83359 0.29430 0.32153 1.14900
Zn	Zn	0.77172 0.53115 0.97720 1.19400
Zn	Zn	0.84944 0.44588 0.99339 1.18900
Zn	Zn	0.24479 0.50016 0.53979 1.19000
Zn	Zn	0.34739 0.29933 0.76288 1.20800
Zn	Zn	0.32512 0.50388 0.45532 1.19000
Zn	Zn	0.25318 0.29423 0.85706 1.20400
Zn	Zn	0.30068 0.20856 0.21500 1.19100
Zn	Zn	0.32870 0.24406 0.31955 1.23200
Zn	Zn	0.33359 0.20570 0.82153 1.15000
Zn	Zn	0.27172 0.46885 0.02280 1.19400
Zn	Zn	0.34944 0.55412 0.00661 1.18900
Zn	Zn	0.74479 0.49984 0.46021 1.19000
Zn	Zn	0.84739 0.70067 0.23712 1.20800
Zn	Zn	0.82512 0.49612 0.54468 1.19000
Zn	Zn	0.75318 0.70577 0.14294 1.20400
Zn	Zn	0.80068 0.79144 0.78500 1.19000
Zn	Zn	0.82870 0.75594 0.68045 1.23200
Zn	Zn	0.83359 0.79430 0.17847 1.14900
H 	H 	0.42380 0.99950 0.87860 0.08000
H 	H 	0.63830 0.00130 0.87370 0.08000
H 	H 	0.53700 0.98730 0.98830 0.05400
H 	H 	0.62250 0.02770 0.81020 0.06600
H 	H 	0.60730 0.97840 0.79820 0.06400
H 	H 	0.66240 0.04250 0.73280 0.06100
H 	H 	0.61640 0.02350 0.69470 0.06100
H 	H 	0.46610 0.98870 0.75570 0.05400
H 	H 	0.52510 0.95970 0.73380 0.05900
H 	H 	0.43170 0.02460 0.62310 0.08400
H 	H 	0.30860 0.91940 0.60390 0.04500
H 	H 	0.42090 0.92770 0.71320 0.07200
H 	H 	0.72420 0.90960 0.74730 0.09000
H 	H 	0.82140 0.89280 0.63570 0.06300
H 	H 	0.70950 0.00140 0.65630 0.09400
H 	H 	0.56490 0.99280 0.48510 0.06100
H 	H 	0.44760 0.88880 0.44450 0.09200
H 	H 	0.65310 0.87290 0.46810 0.09000
H 	H 	0.63140 0.80100 0.43400 0.05700
H 	H 	0.60520 0.80080 0.48220 0.05400
H 	H 	0.64980 0.71610 0.43390 0.04300
H 	H 	0.59000 0.68750 0.45560 0.04400
H 	H 	0.45900 0.77160 0.46990 0.04800
H 	H 	0.50950 0.75190 0.50530 0.05400
H 	H 	0.39900 0.63490 0.46840 0.08200
H 	H 	0.26410 0.64650 0.56610 0.04100
H 	H 	0.38480 0.75040 0.52770 0.07900
H 	H 	0.47090 0.14570 0.76060 0.05700
H 	H 	0.56880 0.26170 0.74390 0.04200
H 	H 	0.68440 0.15070 0.77160 0.08100
H 	H 	0.52370 0.07550 0.72190 0.05900
H 	H 	0.49000 0.06800 0.76780 0.05600
H 	H 	0.67690 0.64360 0.47690 0.08700
H 	H 	0.81550 0.62820 0.57640 0.06300
H 	H 	0.71010 0.74190 0.56020 0.09900
H 	H 	0.55970 0.73500 0.20830 0.04500
H 	H 	0.68050 0.73910 0.31370 0.07600
H 	H 	0.46870 0.75440 0.32480 0.06200
H 	H 	0.49650 0.77320 0.39330 0.04800
H 	H 	0.50420 0.72180 0.39630 0.04000
H 	H 	0.92380 0.00050 0.12140 0.08000
H 	H 	0.13830 0.99870 0.12630 0.08100
H 	H 	0.03700 0.01270 0.01170 0.05400
H 	H 	0.12250 0.97230 0.18980 0.06400
H 	H 	0.10730 0.02160 0.20180 0.06200
H 	H 	0.16240 0.95750 0.26720 0.06000
H 	H 	0.11640 0.97650 0.30530 0.06000
H 	H 	0.96610 0.01130 0.24430 0.04500
H 	H 	0.02510 0.04030 0.26620 0.05500
H 	H 	0.93170 0.97540 0.37690 0.08400
H 	H 	0.80860 0.08060 0.39610 0.04500
H 	H 	0.92090 0.07230 0.28680 0.07200
H 	H 	0.22420 0.09040 0.25270 0.09100
H 	H 	0.32140 0.10720 0.36430 0.06400
H 	H 	0.20950 0.99860 0.34370 0.09500
H 	H 	0.06490 0.00720 0.51490 0.06000
H 	H 	0.94760 0.11120 0.55550 0.09300
H 	H 	0.15310 0.12710 0.53190 0.09000
H 	H 	0.13140 0.19900 0.56600 0.05800
H 	H 	0.10520 0.19920 0.51780 0.05500
H 	H 	0.14980 0.28390 0.56610 0.04400
H 	H 	0.09000 0.31250 0.54440 0.04700
H 	H 	0.95900 0.22840 0.53010 0.05300
H 	H 	0.00950 0.24810 0.49470 0.06300
H 	H 	0.89900 0.36510 0.53160 0.08000
H 	H 	0.76410 0.35350 0.43390 0.04000
H 	H 	0.88480 0.24960 0.47230 0.07700
H 	H 	0.97090 0.85430 0.23940 0.05000
H 	H 	0.06880 0.73830 0.25610 0.04300
H 	H 	0.18440 0.84930 0.22840 0.08100
H 	H 	0.02370 0.92450 0.27810 0.05600
H 	H 	0.99000 0.93200 0.23220 0.04800
H 	H 	0.17690 0.35640 0.52310 0.08700
H 	H 	0.31550 0.37180 0.42360 0.06300
H 	H 	0.21010 0.25810 0.43980 0.09900
H 	H 	0.05970 0.26500 0.79170 0.04600
H 	H 	0.18050 0.26090 0.68630 0.07600
H 	H 	0.96870 0.24560 0.67520 0.05600
H 	H 	0.99650 0.22680 0.60670 0.04300
H 	H 	0.00420 0.27820 0.60370 0.04000
H 	H 	0.42380 0.49950 0.62140 0.07900
H 	H 	0.63830 0.50130 0.62630 0.08000
H 	H 	0.53700 0.48730 0.51170 0.05400
H 	H 	0.62250 0.52770 0.68980 0.06600
H 	H 	0.60730 0.47840 0.70180 0.06300
H 	H 	0.66240 0.54250 0.76720 0.06100
H 	H 	0.61640 0.52350 0.80530 0.06100
H 	H 	0.46610 0.48870 0.74430 0.05400
H 	H 	0.52510 0.45970 0.76620 0.05900
H 	H 	0.43170 0.52460 0.87690 0.08500
H 	H 	0.30860 0.41940 0.89610 0.04500
H 	H 	0.42090 0.42770 0.78680 0.07200
H 	H 	0.72420 0.40960 0.75270 0.09000
H 	H 	0.82140 0.39280 0.86430 0.06300
H 	H 	0.70950 0.50140 0.84370 0.09400
H 	H 	0.56490 0.49280 0.01490 0.06100
H 	H 	0.44760 0.38880 0.05550 0.09200
H 	H 	0.65310 0.37290 0.03190 0.09000
H 	H 	0.63140 0.30100 0.06600 0.05700
H 	H 	0.60520 0.30080 0.01780 0.05400
H 	H 	0.64980 0.21610 0.06610 0.04300
H 	H 	0.59000 0.18750 0.04440 0.04500
H 	H 	0.45900 0.27160 0.03010 0.04900
H 	H 	0.50950 0.25190 0.99470 0.05400
H 	H 	0.39900 0.13490 0.03160 0.08200
H 	H 	0.26410 0.14650 0.93390 0.04100
H 	H 	0.38480 0.25040 0.97230 0.07900
H 	H 	0.47090 0.64570 0.73940 0.05700
H 	H 	0.56880 0.76170 0.75610 0.04200
H 	H 	0.68440 0.65070 0.72840 0.08100
H 	H 	0.52370 0.57550 0.77810 0.05900
H 	H 	0.49000 0.56800 0.73220 0.05600
H 	H 	0.67690 0.14360 0.02310 0.08700
H 	H 	0.81550 0.12820 0.92360 0.06300
H 	H 	0.71010 0.24190 0.93980 0.09900
H 	H 	0.55970 0.23500 0.29170 0.04500
H 	H 	0.68050 0.23910 0.18630 0.07600
H 	H 	0.46870 0.25440 0.17520 0.06200
H 	H 	0.49650 0.27320 0.10670 0.04800
H 	H 	0.50420 0.22180 0.10370 0.04000
H 	H 	0.92380 0.50050 0.37860 0.08100
H 	H 	0.13830 0.49870 0.37370 0.08100
H 	H 	0.03700 0.51270 0.48830 0.05300
H 	H 	0.12250 0.47230 0.31020 0.06500
H 	H 	0.10730 0.52160 0.29820 0.06200
H 	H 	0.16240 0.45750 0.23280 0.06000
H 	H 	0.11640 0.47650 0.19470 0.06000
H 	H 	0.96610 0.51130 0.25570 0.04500
H 	H 	0.02510 0.54030 0.23380 0.05400
H 	H 	0.93170 0.47540 0.12310 0.08400
H 	H 	0.80860 0.58060 0.10390 0.04500
H 	H 	0.92090 0.57230 0.21320 0.07200
H 	H 	0.22420 0.59040 0.24730 0.09100
H 	H 	0.32140 0.60720 0.13570 0.06400
H 	H 	0.20950 0.49860 0.15630 0.09500
H 	H 	0.06490 0.50720 0.98510 0.06000
H 	H 	0.94760 0.61120 0.94450 0.09400
H 	H 	0.15310 0.62710 0.96810 0.09000
H 	H 	0.13140 0.69900 0.93400 0.05800
H 	H 	0.10520 0.69920 0.98220 0.05600
H 	H 	0.14980 0.78390 0.93390 0.04400
H 	H 	0.09000 0.81250 0.95560 0.04700
H 	H 	0.95900 0.72840 0.96990 0.05300
H 	H 	0.00950 0.74810 0.00530 0.06400
H 	H 	0.89900 0.86510 0.96840 0.08000
H 	H 	0.76410 0.85350 0.06610 0.04000
H 	H 	0.88480 0.74960 0.02770 0.07700
H 	H 	0.97090 0.35430 0.26060 0.05100
H 	H 	0.06880 0.23830 0.24390 0.04300
H 	H 	0.18440 0.34930 0.27160 0.08100
H 	H 	0.02370 0.42450 0.22190 0.05600
H 	H 	0.99000 0.43200 0.26780 0.04800
H 	H 	0.17690 0.85640 0.97690 0.08800
H 	H 	0.31550 0.87180 0.07640 0.06400
H 	H 	0.21010 0.75810 0.06020 0.09900
H 	H 	0.05970 0.76500 0.70830 0.04700
H 	H 	0.18050 0.76090 0.81370 0.07600
H 	H 	0.96870 0.74560 0.82480 0.05500
H 	H 	0.99650 0.72680 0.89330 0.04200
H 	H 	0.00420 0.77820 0.89630 0.04000
C 	C 	0.40240 0.99220 0.96180 0.38100
C 	C 	0.76490 0.58280 0.51140 0.35400
C 	C 	0.67000 0.98740 0.95610 0.35800
C 	C 	0.46980 0.99300 0.93670 -0.05900
C 	C 	0.46710 0.99730 0.89270 -0.09900
C 	C 	0.52990 0.99850 0.86980 0.14700
C 	C 	0.59710 0.99710 0.88960 -0.10200
C 	C 	0.59950 0.98920 0.93370 -0.04900
C 	C 	0.53550 0.98940 0.95840 -0.00900
C 	C 	0.58730 0.00770 0.79880 -0.05200
C 	C 	0.56440 0.02200 0.75260 0.06800
C 	C 	0.62880 0.01990 0.72480 -0.04900
C 	C 	0.50610 0.98920 0.73610 -0.03800
C 	C 	0.43500 0.98060 0.67270 0.14800
C 	C 	0.41430 0.99760 0.63230 -0.09500
C 	C 	0.36740 0.97390 0.60570 -0.05800
C 	C 	0.34090 0.93480 0.62070 0.00800
C 	C 	0.36140 0.91780 0.66070 -0.07900
C 	C 	0.40750 0.93950 0.68670 -0.09000
C 	C 	0.33410 0.87520 0.67530 0.38200
C 	C 	0.70710 0.95620 0.70320 0.18100
C 	C 	0.73430 0.91860 0.71930 -0.13700
C 	C 	0.77600 0.89500 0.69370 -0.02200
C 	C 	0.79220 0.90960 0.65330 -0.03900
C 	C 	0.76620 0.94880 0.63820 -0.02000
C 	C 	0.72490 0.97370 0.66450 -0.14100
C 	C 	0.80180 0.85030 0.70850 0.32400
C 	C 	0.78520 0.96520 0.59290 0.35600
C 	C 	0.42860 0.97290 0.46840 0.34200
C 	C 	0.34480 0.99440 0.56380 0.36300
C 	C 	0.69090 0.95570 0.49140 0.36800
C 	C 	0.62050 0.93630 0.47860 -0.03700
C 	C 	0.56120 0.96330 0.47800 -0.02400
C 	C 	0.49430 0.94480 0.46610 -0.03200
C 	C 	0.49040 0.90060 0.45370 -0.12100
C 	C 	0.55000 0.87460 0.45520 0.17600
C 	C 	0.61370 0.89110 0.46730 -0.12800
C 	C 	0.59020 0.79790 0.45240 -0.02200
C 	C 	0.55580 0.75380 0.44540 0.03300
C 	C 	0.61260 0.71610 0.45550 0.00300
C 	C 	0.49360 0.74890 0.47570 -0.02200
C 	C 	0.40430 0.69340 0.49550 0.15100
C 	C 	0.37950 0.65190 0.49030 -0.10900
C 	C 	0.32700 0.63320 0.51550 -0.05900
C 	C 	0.29790 0.65850 0.54770 -0.01800
C 	C 	0.31990 0.70360 0.55280 -0.07000
C 	C 	0.37190 0.72100 0.52570 -0.11200
C 	C 	0.30290 0.58740 0.51000 0.35300
C 	C 	0.29150 0.73130 0.58920 0.34000
C 	C 	0.43740 0.22790 0.75240 0.37700
C 	C 	0.51260 0.16170 0.75920 -0.09800
C 	C 	0.50980 0.20600 0.75310 -0.08300
C 	C 	0.57140 0.23200 0.75060 0.01000
C 	C 	0.63770 0.21130 0.75840 -0.08600
C 	C 	0.70510 0.23710 0.76010 0.41900
C 	C 	0.64140 0.16430 0.76560 -0.09000
C 	C 	0.57900 0.13980 0.76350 0.14500
C 	C 	0.53360 0.06680 0.75140 -0.04800
C 	C 	0.69000 0.69780 0.51360 0.17700
C 	C 	0.70130 0.65540 0.50020 -0.12800
C 	C 	0.75310 0.62980 0.52400 -0.03900
C 	C 	0.78530 0.64610 0.56040 -0.02700
C 	C 	0.77260 0.69070 0.57410 -0.02500
C 	C 	0.72260 0.71400 0.55070 -0.12500
C 	C 	0.80620 0.70770 0.61220 0.27900
C 	C 	0.43180 0.74540 0.24330 0.36800
C 	C 	0.56420 0.73870 0.23790 0.00300
C 	C 	0.62980 0.73870 0.25670 -0.07900
C 	C 	0.69350 0.72880 0.23070 0.35200
C 	C 	0.63620 0.74120 0.30070 -0.08800
C 	C 	0.57460 0.74710 0.32630 0.14100
C 	C 	0.50880 0.74950 0.30810 -0.10300
C 	C 	0.52910 0.74950 0.39970 -0.01100
C 	C 	0.50450 0.74440 0.26340 -0.07200
C 	C 	0.90240 0.00780 0.03820 0.38100
C 	C 	0.26490 0.41720 0.48860 0.35400
C 	C 	0.17000 0.01260 0.04390 0.35800
C 	C 	0.96980 0.00700 0.06330 -0.06300
C 	C 	0.96710 0.00270 0.10730 -0.10400
C 	C 	0.02990 0.00150 0.13020 0.15200
C 	C 	0.09710 0.00290 0.11040 -0.10400
C 	C 	0.09950 0.01080 0.06630 -0.04900
C 	C 	0.03550 0.01060 0.04160 -0.00400
C 	C 	0.08730 0.99230 0.20120 -0.04600
C 	C 	0.06440 0.97800 0.24740 0.05900
C 	C 	0.12880 0.98010 0.27520 -0.04400
C 	C 	0.00610 0.01080 0.26390 -0.01900
C 	C 	0.93500 0.01940 0.32730 0.15000
C 	C 	0.91430 0.00240 0.36770 -0.09600
C 	C 	0.86740 0.02610 0.39430 -0.05800
C 	C 	0.84090 0.06520 0.37930 0.00800
C 	C 	0.86140 0.08220 0.33930 -0.07900
C 	C 	0.90750 0.06050 0.31330 -0.09100
C 	C 	0.83410 0.12480 0.32470 0.38200
C 	C 	0.20710 0.04380 0.29680 0.18300
C 	C 	0.23430 0.08140 0.28070 -0.13800
C 	C 	0.27600 0.10500 0.30630 -0.02100
C 	C 	0.29220 0.09040 0.34670 -0.04000
C 	C 	0.26620 0.05120 0.36180 -0.01800
C 	C 	0.22490 0.02630 0.33550 -0.14300
C 	C 	0.30180 0.14970 0.29150 0.32400
C 	C 	0.28520 0.03480 0.40710 0.35500
C 	C 	0.92860 0.02710 0.53160 0.34300
C 	C 	0.84480 0.00560 0.43620 0.36300
C 	C 	0.19090 0.04430 0.50860 0.36800
C 	C 	0.12050 0.06370 0.52140 -0.03800
C 	C 	0.06120 0.03670 0.52200 -0.01800
C 	C 	0.99430 0.05520 0.53390 -0.03600
C 	C 	0.99040 0.09940 0.54630 -0.12700
C 	C 	0.05000 0.12540 0.54480 0.18200
C 	C 	0.11370 0.10890 0.53270 -0.12900
C 	C 	0.09020 0.20210 0.54760 -0.02600
C 	C 	0.05580 0.24620 0.55460 0.04000
C 	C 	0.11260 0.28390 0.54450 -0.00000
C 	C 	0.99360 0.25110 0.52430 -0.04100
C 	C 	0.90430 0.30660 0.50450 0.14800
C 	C 	0.87950 0.34810 0.50970 -0.10800
C 	C 	0.82700 0.36680 0.48450 -0.06000
C 	C 	0.79790 0.34150 0.45230 -0.01700
C 	C 	0.81990 0.29640 0.44720 -0.07100
C 	C 	0.87190 0.27900 0.47430 -0.11100
C 	C 	0.80290 0.41260 0.49000 0.35400
C 	C 	0.79150 0.26870 0.41080 0.34000
C 	C 	0.93740 0.77210 0.24760 0.37400
C 	C 	0.01260 0.83830 0.24080 -0.08800
C 	C 	0.00980 0.79400 0.24690 -0.08100
C 	C 	0.07140 0.76800 0.24940 0.01000
C 	C 	0.13770 0.78870 0.24160 -0.08600
C 	C 	0.20510 0.76290 0.23990 0.41900
C 	C 	0.14140 0.83570 0.23440 -0.08800
C 	C 	0.07900 0.86020 0.23650 0.14300
C 	C 	0.03360 0.93320 0.24860 -0.03200
C 	C 	0.19000 0.30220 0.48640 0.17700
C 	C 	0.20130 0.34460 0.49980 -0.12800
C 	C 	0.25310 0.37020 0.47600 -0.03800
C 	C 	0.28530 0.35390 0.43960 -0.02700
C 	C 	0.27260 0.30930 0.42590 -0.02500
C 	C 	0.22260 0.28600 0.44930 -0.12500
C 	C 	0.30620 0.29230 0.38780 0.27900
C 	C 	0.93180 0.25460 0.75670 0.36400
C 	C 	0.06420 0.26130 0.76210 0.00300
C 	C 	0.12980 0.26130 0.74330 -0.07900
C 	C 	0.19350 0.27120 0.76930 0.35200
C 	C 	0.13620 0.25880 0.69930 -0.08700
C 	C 	0.07460 0.25290 0.67370 0.13900
C 	C 	0.00880 0.25050 0.69190 -0.09400
C 	C 	0.02910 0.25050 0.60030 -0.00500
C 	C 	0.00450 0.25560 0.73660 -0.07000
C 	C 	0.40240 0.49220 0.53820 0.38000
C 	C 	0.76490 0.08280 0.98860 0.35400
C 	C 	0.67000 0.48740 0.54390 0.35800
C 	C 	0.46980 0.49300 0.56330 -0.05900
C 	C 	0.46710 0.49730 0.60730 -0.09900
C 	C 	0.52990 0.49850 0.63020 0.14700
C 	C 	0.59710 0.49710 0.61040 -0.10200
C 	C 	0.59950 0.48920 0.56630 -0.04900
C 	C 	0.53550 0.48940 0.54160 -0.00900
C 	C 	0.58730 0.50770 0.70120 -0.05200
C 	C 	0.56440 0.52200 0.74740 0.06800
C 	C 	0.62880 0.51990 0.77520 -0.04900
C 	C 	0.50610 0.48920 0.76390 -0.03800
C 	C 	0.43500 0.48060 0.82730 0.14800
C 	C 	0.41430 0.49760 0.86770 -0.09500
C 	C 	0.36740 0.47390 0.89430 -0.05800
C 	C 	0.34090 0.43480 0.87930 0.00800
C 	C 	0.36140 0.41780 0.83930 -0.07900
C 	C 	0.40750 0.43950 0.81330 -0.09000
C 	C 	0.33410 0.37520 0.82470 0.38200
C 	C 	0.70710 0.45620 0.79680 0.18100
C 	C 	0.73430 0.41860 0.78070 -0.13700
C 	C 	0.77600 0.39500 0.80630 -0.02200
C 	C 	0.79220 0.40960 0.84670 -0.03900
C 	C 	0.76620 0.44880 0.86180 -0.02000
C 	C 	0.72490 0.47370 0.83550 -0.14100
C 	C 	0.80180 0.35030 0.79150 0.32400
C 	C 	0.78520 0.46520 0.90710 0.35600
C 	C 	0.42860 0.47290 0.03160 0.34200
C 	C 	0.34480 0.49440 0.93620 0.36300
C 	C 	0.69090 0.45570 0.00860 0.36700
C 	C 	0.62050 0.43630 0.02140 -0.03700
C 	C 	0.56120 0.46330 0.02200 -0.02400
C 	C 	0.49430 0.44480 0.03390 -0.03200
C 	C 	0.49040 0.40060 0.04630 -0.12100
C 	C 	0.55000 0.37460 0.04480 0.17600
C 	C 	0.61370 0.39110 0.03270 -0.12800
C 	C 	0.59020 0.29790 0.04760 -0.02200
C 	C 	0.55580 0.25380 0.05460 0.03300
C 	C 	0.61260 0.21610 0.04450 0.00300
C 	C 	0.49360 0.24890 0.02430 -0.02200
C 	C 	0.40430 0.19340 0.00450 0.15100
C 	C 	0.37950 0.15190 0.00970 -0.10900
C 	C 	0.32700 0.13320 0.98450 -0.05900
C 	C 	0.29790 0.15850 0.95230 -0.01800
C 	C 	0.31990 0.20360 0.94720 -0.07000
C 	C 	0.37190 0.22100 0.97430 -0.11200
C 	C 	0.30290 0.08740 0.99000 0.35300
C 	C 	0.29150 0.23130 0.91080 0.34000
C 	C 	0.43740 0.72790 0.74760 0.37700
C 	C 	0.51260 0.66170 0.74080 -0.09800
C 	C 	0.50980 0.70600 0.74690 -0.08300
C 	C 	0.57140 0.73200 0.74940 0.01000
C 	C 	0.63770 0.71130 0.74160 -0.08600
C 	C 	0.70510 0.73710 0.73990 0.41900
C 	C 	0.64140 0.66430 0.73440 -0.09000
C 	C 	0.57900 0.63980 0.73650 0.14500
C 	C 	0.53360 0.56680 0.74860 -0.04800
C 	C 	0.69000 0.19780 0.98640 0.17700
C 	C 	0.70130 0.15540 0.99980 -0.12800
C 	C 	0.75310 0.12980 0.97600 -0.03900
C 	C 	0.78530 0.14610 0.93960 -0.02700
C 	C 	0.77260 0.19070 0.92590 -0.02500
C 	C 	0.72260 0.21400 0.94930 -0.12500
C 	C 	0.80620 0.20770 0.88780 0.27900
C 	C 	0.43180 0.24540 0.25670 0.36800
C 	C 	0.56420 0.23870 0.26210 0.00300
C 	C 	0.62980 0.23870 0.24330 -0.07900
C 	C 	0.69350 0.22880 0.26930 0.35200
C 	C 	0.63620 0.24120 0.19930 -0.08900
C 	C 	0.57460 0.24710 0.17370 0.14100
C 	C 	0.50880 0.24950 0.19190 -0.10300
C 	C 	0.52910 0.24950 0.10030 -0.01100
C 	C 	0.50450 0.24440 0.23660 -0.07200
C 	C 	0.90240 0.50780 0.46180 0.38100
C 	C 	0.26490 0.91720 0.01140 0.35300
C 	C 	0.17000 0.51260 0.45610 0.35800
C 	C 	0.96980 0.50700 0.43670 -0.06300
C 	C 	0.96710 0.50270 0.39270 -0.10500
C 	C 	0.02990 0.50150 0.36980 0.15300
C 	C 	0.09710 0.50290 0.38960 -0.10300
C 	C 	0.09950 0.51080 0.43370 -0.05000
C 	C 	0.03550 0.51060 0.45840 -0.00300
C 	C 	0.08730 0.49230 0.29880 -0.04700
C 	C 	0.06440 0.47800 0.25260 0.05900
C 	C 	0.12880 0.48010 0.22480 -0.04400
C 	C 	0.00610 0.51080 0.23610 -0.01800
C 	C 	0.93500 0.51940 0.17270 0.15000
C 	C 	0.91430 0.50240 0.13230 -0.09600
C 	C 	0.86740 0.52610 0.10570 -0.05800
C 	C 	0.84090 0.56520 0.12070 0.00700
C 	C 	0.86140 0.58220 0.16070 -0.07900
C 	C 	0.90750 0.56050 0.18670 -0.09100
C 	C 	0.83410 0.62480 0.17530 0.38200
C 	C 	0.20710 0.54380 0.20320 0.18300
C 	C 	0.23430 0.58140 0.21930 -0.13800
C 	C 	0.27600 0.60500 0.19370 -0.02100
C 	C 	0.29220 0.59040 0.15330 -0.03900
C 	C 	0.26620 0.55120 0.13820 -0.01900
C 	C 	0.22490 0.52630 0.16450 -0.14100
C 	C 	0.30180 0.64970 0.20850 0.32400
C 	C 	0.28520 0.53480 0.09290 0.35600
C 	C 	0.92860 0.52710 0.96840 0.34300
C 	C 	0.84480 0.50560 0.06380 0.36200
C 	C 	0.19090 0.54430 0.99140 0.36800
C 	C 	0.12050 0.56370 0.97860 -0.03800
C 	C 	0.06120 0.53670 0.97800 -0.01700
C 	C 	0.99430 0.55520 0.96610 -0.03700
C 	C 	0.99040 0.59940 0.95370 -0.12800
C 	C 	0.05000 0.62540 0.95520 0.18300
C 	C 	0.11370 0.60890 0.96730 -0.12900
C 	C 	0.09020 0.70210 0.95240 -0.02600
C 	C 	0.05580 0.74620 0.94540 0.04100
C 	C 	0.11260 0.78390 0.95550 -0.00000
C 	C 	0.99360 0.75110 0.97570 -0.04200
C 	C 	0.90430 0.80660 0.99550 0.14800
C 	C 	0.87950 0.84810 0.99030 -0.10700
C 	C 	0.82700 0.86680 0.01550 -0.06100
C 	C 	0.79790 0.84150 0.04770 -0.01700
C 	C 	0.81990 0.79640 0.05280 -0.07200
C 	C 	0.87190 0.77900 0.02570 -0.11100
C 	C 	0.80290 0.91260 0.01000 0.35300
C 	C 	0.79150 0.76870 0.08920 0.34000
C 	C 	0.93740 0.27210 0.25240 0.37400
C 	C 	0.01260 0.33830 0.25920 -0.08900
C 	C 	0.00980 0.29400 0.25310 -0.08200
C 	C 	0.07140 0.26800 0.25060 0.01000
C 	C 	0.13770 0.28870 0.25840 -0.08600
C 	C 	0.20510 0.26290 0.26010 0.41900
C 	C 	0.14140 0.33570 0.26560 -0.08900
C 	C 	0.07900 0.36020 0.26350 0.14300
C 	C 	0.03360 0.43320 0.25140 -0.03300
C 	C 	0.19000 0.80220 0.01360 0.17700
C 	C 	0.20130 0.84460 0.00020 -0.12900
C 	C 	0.25310 0.87020 0.02400 -0.03800
C 	C 	0.28530 0.85390 0.06040 -0.02700
C 	C 	0.27260 0.80930 0.07410 -0.02500
C 	C 	0.22260 0.78600 0.05070 -0.12500
C 	C 	0.30620 0.79230 0.11220 0.27900
C 	C 	0.93180 0.75460 0.74330 0.36400
C 	C 	0.06420 0.76130 0.73790 0.00400
C 	C 	0.12980 0.76130 0.75670 -0.07900
C 	C 	0.19350 0.77120 0.73070 0.35300
C 	C 	0.13620 0.75880 0.80070 -0.08700
C 	C 	0.07460 0.75290 0.82630 0.13800
C 	C 	0.00880 0.75050 0.80810 -0.09300
C 	C 	0.02910 0.75050 0.89970 -0.00500
C 	C 	0.00450 0.75560 0.76340 -0.07000
O 	O 	0.40930 0.99433 0.00264 -0.46200
O 	O 	0.34650 0.99129 0.94101 -0.49000
O 	O 	0.72300 0.98908 0.93289 -0.47200
O 	O 	0.66700 0.98727 0.99825 -0.47400
O 	O 	0.80460 0.56150 0.53819 -0.46200
O 	O 	0.73620 0.56667 0.47883 -0.45200
O 	O 	0.35500 0.85922 0.71095 -0.48300
O 	O 	0.28750 0.85626 0.65194 -0.48000
O 	O 	0.26300 0.71217 0.61983 -0.50800
O 	O 	0.29230 0.77120 0.58515 -0.45900
O 	O 	0.38500 0.20510 0.76011 -0.51300
O 	O 	0.43590 0.26840 0.74716 -0.49000
O 	O 	0.27120 0.56730 0.53868 -0.46000
O 	O 	0.32650 0.56835 0.47440 -0.45800
O 	O 	0.38040 0.74595 0.26848 -0.53700
O 	O 	0.42760 0.74768 0.20232 -0.45700
O 	O 	0.75160 0.72248 0.25162 -0.50900
O 	O 	0.68850 0.72479 0.18980 -0.51100
O 	O 	0.84130 0.68440 0.63810 -0.31000
O 	O 	0.80100 0.74920 0.61989 -0.41300
O 	O 	0.80530 0.84470 0.75210 -0.48400
O 	O 	0.81410 0.81996 0.68227 -0.46500
O 	O 	0.75820 0.00116 0.58139 -0.46400
O 	O 	0.82420 0.94004 0.57099 -0.46800
O 	O 	0.68940 0.99605 0.50041 -0.47600
O 	O 	0.74390 0.93079 0.49193 -0.46200
O 	O 	0.37100 0.95237 0.45991 -0.46500
O 	O 	0.43520 0.01317 0.47794 -0.44700
O 	O 	0.31030 0.96608 0.53940 -0.46000
O 	O 	0.36290 0.03159 0.55468 -0.47300
O 	O 	0.58750 0.09600 0.77065 -0.20800
O 	O 	0.46170 0.70603 0.46951 -0.21700
O 	O 	0.64020 0.72592 0.49623 -0.22400
O 	O 	0.53810 0.83158 0.44204 -0.21600
O 	O 	0.58820 0.75117 0.37091 -0.21000
O 	O 	0.65840 0.97580 0.73260 -0.21300
O 	O 	0.48470 0.00531 0.69392 -0.21100
O 	O 	0.52130 0.00868 0.82579 -0.20500
O 	O 	0.75040 0.22708 0.78817 -0.49300
O 	O 	0.71350 0.26540 0.73230 -0.53800
O 	O 	0.34370 0.77021 0.67483 -0.65300
O 	O 	0.90930 0.00567 0.99736 -0.46300
O 	O 	0.84650 0.00871 0.05899 -0.49000
O 	O 	0.22300 0.01092 0.06711 -0.47100
O 	O 	0.16700 0.01273 0.00175 -0.47400
O 	O 	0.30460 0.43850 0.46181 -0.46200
O 	O 	0.23620 0.43333 0.52117 -0.45200
O 	O 	0.85500 0.14078 0.28905 -0.48400
O 	O 	0.78750 0.14374 0.34806 -0.48000
O 	O 	0.76300 0.28783 0.38017 -0.50900
O 	O 	0.79230 0.22880 0.41485 -0.46000
O 	O 	0.88500 0.79490 0.23989 -0.51300
O 	O 	0.93590 0.73160 0.25284 -0.49100
O 	O 	0.77120 0.43270 0.46132 -0.46100
O 	O 	0.82650 0.43165 0.52560 -0.45800
O 	O 	0.88040 0.25405 0.73152 -0.53700
O 	O 	0.92760 0.25232 0.79768 -0.45700
O 	O 	0.25160 0.27752 0.74838 -0.50800
O 	O 	0.18850 0.27521 0.81020 -0.51100
O 	O 	0.34130 0.31560 0.36190 -0.30900
O 	O 	0.30100 0.25080 0.38011 -0.41200
O 	O 	0.30530 0.15530 0.24790 -0.48300
O 	O 	0.31410 0.18004 0.31773 -0.46500
O 	O 	0.25820 0.99884 0.41861 -0.46300
O 	O 	0.32420 0.05996 0.42901 -0.46700
O 	O 	0.18940 0.00395 0.49959 -0.47600
O 	O 	0.24390 0.06921 0.50807 -0.46200
O 	O 	0.87100 0.04763 0.54009 -0.46600
O 	O 	0.93520 0.98683 0.52206 -0.44900
O 	O 	0.81030 0.03392 0.46060 -0.46000
O 	O 	0.86290 0.96841 0.44532 -0.47400
O 	O 	0.08750 0.90400 0.22935 -0.20900
O 	O 	0.96170 0.29397 0.53049 -0.21500
O 	O 	0.14020 0.27408 0.50377 -0.22300
O 	O 	0.03810 0.16842 0.55796 -0.21500
O 	O 	0.08820 0.24883 0.62909 -0.21000
O 	O 	0.15840 0.02420 0.26740 -0.21400
O 	O 	0.98470 0.99469 0.30608 -0.21900
O 	O 	0.02130 0.99132 0.17421 -0.20400
O 	O 	0.25040 0.77292 0.21183 -0.49300
O 	O 	0.21350 0.73460 0.26770 -0.53700
O 	O 	0.84370 0.22979 0.32517 -0.65400
O 	O 	0.40930 0.49433 0.49736 -0.46100
O 	O 	0.34650 0.49129 0.55899 -0.49000
O 	O 	0.72300 0.48908 0.56711 -0.47200
O 	O 	0.66700 0.48727 0.50175 -0.47400
O 	O 	0.80460 0.06150 0.96181 -0.46200
O 	O 	0.73620 0.06667 0.02117 -0.45200
O 	O 	0.35500 0.35922 0.78905 -0.48300
O 	O 	0.28750 0.35626 0.84806 -0.48000
O 	O 	0.26300 0.21217 0.88017 -0.50800
O 	O 	0.29230 0.27120 0.91485 -0.45900
O 	O 	0.38500 0.70510 0.73989 -0.51300
O 	O 	0.43590 0.76840 0.75284 -0.49000
O 	O 	0.27120 0.06730 0.96132 -0.46000
O 	O 	0.32650 0.06835 0.02560 -0.45800
O 	O 	0.38040 0.24595 0.23152 -0.53700
O 	O 	0.42760 0.24768 0.29768 -0.45700
O 	O 	0.75160 0.22248 0.24838 -0.50900
O 	O 	0.68850 0.22479 0.31020 -0.51100
O 	O 	0.84130 0.18440 0.86190 -0.31000
O 	O 	0.80100 0.24920 0.88011 -0.41300
O 	O 	0.80530 0.34470 0.74790 -0.48400
O 	O 	0.81410 0.31996 0.81773 -0.46500
O 	O 	0.75820 0.50116 0.91861 -0.46400
O 	O 	0.82420 0.44004 0.92901 -0.46800
O 	O 	0.68940 0.49605 0.99959 -0.47600
O 	O 	0.74390 0.43079 0.00807 -0.46200
O 	O 	0.37100 0.45237 0.04009 -0.46500
O 	O 	0.43520 0.51317 0.02206 -0.44700
O 	O 	0.31030 0.46608 0.96060 -0.46000
O 	O 	0.36290 0.53159 0.94532 -0.47300
O 	O 	0.58750 0.59600 0.72935 -0.20800
O 	O 	0.46170 0.20603 0.03049 -0.21700
O 	O 	0.64020 0.22592 0.00377 -0.22400
O 	O 	0.53810 0.33158 0.05796 -0.21600
O 	O 	0.58820 0.25117 0.12909 -0.21000
O 	O 	0.65840 0.47580 0.76740 -0.21300
O 	O 	0.48470 0.50531 0.80608 -0.21100
O 	O 	0.52130 0.50868 0.67421 -0.20500
O 	O 	0.75040 0.72708 0.71183 -0.49300
O 	O 	0.71350 0.76540 0.76770 -0.53800
O 	O 	0.34370 0.27021 0.82517 -0.65300
O 	O 	0.90930 0.50567 0.50264 -0.46300
O 	O 	0.84650 0.50871 0.44101 -0.49000
O 	O 	0.22300 0.51092 0.43289 -0.47100
O 	O 	0.16700 0.51273 0.49825 -0.47400
O 	O 	0.30460 0.93850 0.03819 -0.46200
O 	O 	0.23620 0.93333 0.97883 -0.45100
O 	O 	0.85500 0.64078 0.21095 -0.48400
O 	O 	0.78750 0.64374 0.15194 -0.48000
O 	O 	0.76300 0.78783 0.11983 -0.50900
O 	O 	0.79230 0.72880 0.08515 -0.46000
O 	O 	0.88500 0.29490 0.26011 -0.51300
O 	O 	0.93590 0.23160 0.24716 -0.49100
O 	O 	0.77120 0.93270 0.03868 -0.46100
O 	O 	0.82650 0.93165 0.97440 -0.45800
O 	O 	0.88040 0.75405 0.76848 -0.53700
O 	O 	0.92760 0.75232 0.70232 -0.45700
O 	O 	0.25160 0.77752 0.75162 -0.50800
O 	O 	0.18850 0.77521 0.68980 -0.51100
O 	O 	0.34130 0.81560 0.13810 -0.30900
O 	O 	0.30100 0.75080 0.11989 -0.41200
O 	O 	0.30530 0.65530 0.25210 -0.48300
O 	O 	0.31410 0.68004 0.18227 -0.46500
O 	O 	0.25820 0.49884 0.08139 -0.46300
O 	O 	0.32420 0.55996 0.07099 -0.46700
O 	O 	0.18940 0.50395 0.00041 -0.47600
O 	O 	0.24390 0.56921 0.99193 -0.46200
O 	O 	0.87100 0.54763 0.95991 -0.46600
O 	O 	0.93520 0.48683 0.97794 -0.44800
O 	O 	0.81030 0.53392 0.03940 -0.46000
O 	O 	0.86290 0.46841 0.05468 -0.47400
O 	O 	0.08750 0.40400 0.27065 -0.20900
O 	O 	0.96170 0.79397 0.96951 -0.21500
O 	O 	0.14020 0.77408 0.99623 -0.22200
O 	O 	0.03810 0.66842 0.94204 -0.21500
O 	O 	0.08820 0.74883 0.87091 -0.21000
O 	O 	0.15840 0.52420 0.23260 -0.21300
O 	O 	0.98470 0.49469 0.19392 -0.21900
O 	O 	0.02130 0.49132 0.32579 -0.20400
O 	O 	0.25040 0.27292 0.28817 -0.49300
O 	O 	0.21350 0.23460 0.23230 -0.53700
O 	O 	0.84370 0.72979 0.17483 -0.65400
