data_crystal

_cell_length_a 30.09680
_cell_length_b 30.09680
_cell_length_c 30.09680
_cell_angle_alpha 90.00000
_cell_angle_beta  90.00000
_cell_angle_gamma 90.00000

_symmetry_space_group_name_	'P 1'
_symmetry_space_group_name_H-M	'P 1'

loop_
_symmetry_equiv_pos_as_xyz
  x,y,z

loop_
_atom_site_label
_atom_site_type_symbol
_atom_site_fract_x
_atom_site_fract_y
_atom_site_fract_z
_atom_site_charge
Cu	Cu	0.04574 0.57552 0.48487 0.86000
Cl	Cl	0.05580 0.62062 0.42425 -0.45800
N 	N 	0.98833 0.60654 0.49803 -0.20900
N 	N 	0.09649 0.53712 0.46616 -0.21100
N 	N 	0.93347 0.65205 0.50507 -0.08500
C 	C 	0.96877 0.64021 0.47940 0.09000
H 	H 	0.97760 0.65430 0.45220 0.04700
C 	C 	0.12410 0.54077 0.43268 0.08800
H 	H 	0.12450 0.56440 0.41130 0.07500
Cu	Cu	0.20426 0.17448 0.98487 0.86000
Cl	Cl	0.19420 0.12938 0.92425 -0.45800
N 	N 	0.26167 0.14346 0.99803 -0.20900
N 	N 	0.15351 0.21288 0.96616 -0.21100
N 	N 	0.31653 0.09795 0.00507 -0.08400
C 	C 	0.28123 0.10979 0.97940 0.08900
H 	H 	0.27240 0.09570 0.95220 0.04700
C 	C 	0.12590 0.20923 0.93268 0.08800
H 	H 	0.12550 0.18560 0.91130 0.07500
Cu	Cu	0.70426 0.07552 0.76513 0.86000
Cl	Cl	0.69420 0.12062 0.82575 -0.45800
N 	N 	0.76167 0.10654 0.75197 -0.20900
N 	N 	0.65351 0.03712 0.78384 -0.21100
N 	N 	0.81653 0.15205 0.74493 -0.08500
C 	C 	0.78123 0.14021 0.77060 0.09000
H 	H 	0.77240 0.15430 0.79780 0.04600
C 	C 	0.62590 0.04077 0.81732 0.08700
H 	H 	0.62550 0.06440 0.83870 0.07400
Cu	Cu	0.54574 0.67448 0.26513 0.85900
Cl	Cl	0.55580 0.62938 0.32575 -0.45900
N 	N 	0.48833 0.64346 0.25197 -0.21000
N 	N 	0.59649 0.71288 0.28384 -0.21200
N 	N 	0.43347 0.59795 0.24493 -0.08600
C 	C 	0.46877 0.60979 0.27060 0.08900
H 	H 	0.47760 0.59570 0.29780 0.04600
C 	C 	0.62410 0.70923 0.31732 0.08700
H 	H 	0.62450 0.68560 0.33870 0.07400
Cu	Cu	0.98487 0.54574 0.57552 0.85900
Cl	Cl	0.92425 0.55580 0.62062 -0.45900
N 	N 	0.99803 0.48833 0.60654 -0.21000
N 	N 	0.96616 0.59649 0.53712 -0.21200
N 	N 	0.00507 0.43347 0.65205 -0.08600
C 	C 	0.97940 0.46877 0.64021 0.08900
H 	H 	0.95220 0.47760 0.65430 0.04600
C 	C 	0.93268 0.62410 0.54077 0.08700
H 	H 	0.91130 0.62450 0.56440 0.07400
Cu	Cu	0.48487 0.70426 0.17448 0.85900
Cl	Cl	0.42425 0.69420 0.12938 -0.45900
N 	N 	0.49803 0.76167 0.14346 -0.21000
N 	N 	0.46616 0.65351 0.21288 -0.21200
N 	N 	0.50507 0.81653 0.09795 -0.08600
C 	C 	0.47940 0.78123 0.10979 0.08900
H 	H 	0.45220 0.77240 0.09570 0.04600
C 	C 	0.43268 0.62590 0.20923 0.08700
H 	H 	0.41130 0.62550 0.18560 0.07400
Cu	Cu	0.26513 0.20426 0.07552 0.85900
Cl	Cl	0.32575 0.19420 0.12062 -0.45900
N 	N 	0.25197 0.26167 0.10654 -0.21000
N 	N 	0.28384 0.15351 0.03712 -0.21100
N 	N 	0.24493 0.31653 0.15205 -0.08600
C 	C 	0.27060 0.28123 0.14021 0.08900
H 	H 	0.29780 0.27240 0.15430 0.04600
C 	C 	0.31732 0.12590 0.04077 0.08700
H 	H 	0.33870 0.12550 0.06440 0.07400
Cu	Cu	0.76513 0.04574 0.67448 0.85900
Cl	Cl	0.82575 0.05580 0.62938 -0.45900
N 	N 	0.75197 0.98833 0.64346 -0.21000
N 	N 	0.78384 0.09649 0.71288 -0.21200
N 	N 	0.74493 0.93347 0.59795 -0.08600
C 	C 	0.77060 0.96877 0.60979 0.08900
H 	H 	0.79780 0.97760 0.59570 0.04600
C 	C 	0.81732 0.12410 0.70923 0.08700
H 	H 	0.83870 0.12450 0.68560 0.07400
Cu	Cu	0.07552 0.48487 0.54574 0.85900
Cl	Cl	0.12062 0.42425 0.55580 -0.45900
N 	N 	0.10654 0.49803 0.48833 -0.21000
N 	N 	0.03712 0.46616 0.59649 -0.21200
N 	N 	0.15205 0.50507 0.43347 -0.08600
C 	C 	0.14021 0.47940 0.46877 0.08900
H 	H 	0.15430 0.45220 0.47760 0.04600
C 	C 	0.04077 0.43268 0.62410 0.08700
H 	H 	0.06440 0.41130 0.62450 0.07400
Cu	Cu	0.67448 0.98487 0.70426 0.85900
Cl	Cl	0.62938 0.92425 0.69420 -0.45900
N 	N 	0.64346 0.99803 0.76167 -0.21000
N 	N 	0.71288 0.96616 0.65351 -0.21200
N 	N 	0.59795 0.00507 0.81653 -0.08600
C 	C 	0.60979 0.97940 0.78123 0.08900
H 	H 	0.59570 0.95220 0.77240 0.04600
C 	C 	0.70923 0.93268 0.62590 0.08700
H 	H 	0.68560 0.91130 0.62550 0.07400
Cu	Cu	0.57552 0.76513 0.20426 0.85900
Cl	Cl	0.62062 0.82575 0.19420 -0.45900
N 	N 	0.60654 0.75197 0.26167 -0.21000
N 	N 	0.53712 0.78384 0.15351 -0.21200
N 	N 	0.65205 0.74493 0.31653 -0.08600
C 	C 	0.64021 0.77060 0.28123 0.08900
H 	H 	0.65430 0.79780 0.27240 0.04600
C 	C 	0.54077 0.81732 0.12590 0.08700
H 	H 	0.56440 0.83870 0.12550 0.07400
Cu	Cu	0.17448 0.26513 0.04574 0.85900
Cl	Cl	0.12938 0.32575 0.05580 -0.45800
N 	N 	0.14346 0.25197 0.98833 -0.21000
N 	N 	0.21288 0.28384 0.09649 -0.21200
N 	N 	0.09795 0.24493 0.93347 -0.08600
C 	C 	0.10979 0.27060 0.96877 0.08900
H 	H 	0.09570 0.29780 0.97760 0.04600
C 	C 	0.20923 0.31732 0.12410 0.08700
H 	H 	0.18560 0.33870 0.12450 0.07400
Cu	Cu	0.82552 0.79574 0.51513 0.85900
Cl	Cl	0.87062 0.80580 0.57575 -0.45900
N 	N 	0.85654 0.73833 0.50197 -0.21000
N 	N 	0.78712 0.84649 0.53384 -0.21200
N 	N 	0.90205 0.68347 0.49493 -0.08600
C 	C 	0.89021 0.71877 0.52060 0.08900
H 	H 	0.90430 0.72760 0.54780 0.04600
C 	C 	0.79077 0.87410 0.56732 0.08700
H 	H 	0.81440 0.87450 0.58870 0.07400
Cu	Cu	0.42448 0.95426 0.01513 0.85800
Cl	Cl	0.37938 0.94420 0.07575 -0.45900
N 	N 	0.39346 0.01167 0.00197 -0.21000
N 	N 	0.46288 0.90351 0.03384 -0.21200
N 	N 	0.34795 0.06653 0.99493 -0.08600
C 	C 	0.35979 0.03123 0.02060 0.09000
H 	H 	0.34570 0.02240 0.04780 0.04600
C 	C 	0.45923 0.87590 0.06732 0.08700
H 	H 	0.43560 0.87550 0.08870 0.07400
Cu	Cu	0.32552 0.45426 0.23487 0.85900
Cl	Cl	0.37062 0.44420 0.17425 -0.45900
N 	N 	0.35654 0.51167 0.24803 -0.21000
N 	N 	0.28712 0.40351 0.21616 -0.21200
N 	N 	0.40205 0.56653 0.25507 -0.08600
C 	C 	0.39021 0.53123 0.22940 0.08900
H 	H 	0.40430 0.52240 0.20220 0.04600
C 	C 	0.29077 0.37590 0.18268 0.08700
H 	H 	0.31440 0.37550 0.16130 0.07400
Cu	Cu	0.92448 0.29574 0.73487 0.85900
Cl	Cl	0.87938 0.30580 0.67425 -0.45900
N 	N 	0.89346 0.23833 0.74803 -0.21000
N 	N 	0.96288 0.34649 0.71616 -0.21200
N 	N 	0.84795 0.18347 0.75507 -0.08600
C 	C 	0.85979 0.21877 0.72940 0.08900
H 	H 	0.84570 0.22760 0.70220 0.04600
C 	C 	0.95923 0.37410 0.68268 0.08700
H 	H 	0.93560 0.37450 0.66130 0.07400
Cu	Cu	0.79574 0.73487 0.42448 0.85900
Cl	Cl	0.80580 0.67425 0.37938 -0.45900
N 	N 	0.73833 0.74803 0.39346 -0.21000
N 	N 	0.84649 0.71616 0.46288 -0.21200
N 	N 	0.68347 0.75507 0.34795 -0.08600
C 	C 	0.71877 0.72940 0.35979 0.08900
H 	H 	0.72760 0.70220 0.34570 0.04600
C 	C 	0.87410 0.68268 0.45923 0.08700
H 	H 	0.87450 0.66130 0.43560 0.07400
Cu	Cu	0.95426 0.23487 0.82552 0.85900
Cl	Cl	0.94420 0.17425 0.87062 -0.45900
N 	N 	0.01167 0.24803 0.85654 -0.21000
N 	N 	0.90351 0.21616 0.78712 -0.21200
N 	N 	0.06653 0.25507 0.90205 -0.08600
C 	C 	0.03123 0.22940 0.89021 0.08900
H 	H 	0.02240 0.20220 0.90430 0.04600
C 	C 	0.87590 0.18268 0.79077 0.08700
H 	H 	0.87550 0.16130 0.81440 0.07400
Cu	Cu	0.45426 0.01513 0.92448 0.85900
Cl	Cl	0.44420 0.07575 0.87938 -0.45900
N 	N 	0.51167 0.00197 0.89346 -0.21000
N 	N 	0.40351 0.03384 0.96288 -0.21200
N 	N 	0.56653 0.99493 0.84795 -0.08500
C 	C 	0.53123 0.02060 0.85979 0.08900
H 	H 	0.52240 0.04780 0.84570 0.04600
C 	C 	0.37590 0.06732 0.95923 0.08700
H 	H 	0.37550 0.08870 0.93560 0.07400
Cu	Cu	0.29574 0.51513 0.32552 0.85900
Cl	Cl	0.30580 0.57575 0.37062 -0.45900
N 	N 	0.23833 0.50197 0.35654 -0.21000
N 	N 	0.34649 0.53384 0.28712 -0.21200
N 	N 	0.18347 0.49493 0.40205 -0.08600
C 	C 	0.21877 0.52060 0.39021 0.08900
H 	H 	0.22760 0.54780 0.40430 0.04600
C 	C 	0.37410 0.56732 0.29077 0.08700
H 	H 	0.37450 0.58870 0.31440 0.07400
Cu	Cu	0.73487 0.82552 0.45426 0.85900
Cl	Cl	0.67425 0.87062 0.44420 -0.45900
N 	N 	0.74803 0.85654 0.51167 -0.21000
N 	N 	0.71616 0.78712 0.40351 -0.21200
N 	N 	0.75507 0.90205 0.56653 -0.08600
C 	C 	0.72940 0.89021 0.53123 0.08900
H 	H 	0.70220 0.90430 0.52240 0.04600
C 	C 	0.68268 0.79077 0.37590 0.08700
H 	H 	0.66130 0.81440 0.37550 0.07400
Cu	Cu	0.23487 0.42448 0.29574 0.85900
Cl	Cl	0.17425 0.37938 0.30580 -0.45900
N 	N 	0.24803 0.39346 0.23833 -0.21000
N 	N 	0.21616 0.46288 0.34649 -0.21200
N 	N 	0.25507 0.34795 0.18347 -0.08600
C 	C 	0.22940 0.35979 0.21877 0.08900
H 	H 	0.20220 0.34570 0.22760 0.04600
C 	C 	0.18268 0.45923 0.37410 0.08700
H 	H 	0.16130 0.43560 0.37450 0.07400
Cu	Cu	0.01513 0.32552 0.79574 0.85900
Cl	Cl	0.07575 0.37062 0.80580 -0.45900
N 	N 	0.00197 0.35654 0.73833 -0.21000
N 	N 	0.03384 0.28712 0.84649 -0.21200
N 	N 	0.99493 0.40205 0.68347 -0.08600
C 	C 	0.02060 0.39021 0.71877 0.08900
H 	H 	0.04780 0.40430 0.72760 0.04600
C 	C 	0.06732 0.29077 0.87410 0.08700
H 	H 	0.08870 0.31440 0.87450 0.07400
Cu	Cu	0.51513 0.92448 0.95426 0.85900
Cl	Cl	0.57575 0.87938 0.94420 -0.45800
N 	N 	0.50197 0.89346 0.01167 -0.21000
N 	N 	0.53384 0.96288 0.90351 -0.21200
N 	N 	0.49493 0.84795 0.06653 -0.08600
C 	C 	0.52060 0.85979 0.03123 0.08900
H 	H 	0.54780 0.84570 0.02240 0.04600
C 	C 	0.56732 0.95923 0.87590 0.08700
H 	H 	0.58870 0.93560 0.87550 0.07400
O 	O 	0.02604 0.52604 0.52604 -0.72300
H 	H 	0.00970 0.50970 0.50970 0.15900
O 	O 	0.22396 0.22396 0.02604 -0.72300
H 	H 	0.24030 0.24030 0.00970 0.15900
O 	O 	0.72396 0.02604 0.72396 -0.72300
H 	H 	0.74030 0.00970 0.74030 0.15800
O 	O 	0.52604 0.72396 0.22396 -0.72300
H 	H 	0.50970 0.74030 0.24030 0.15800
O 	O 	0.97396 0.27604 0.77604 -0.72300
H 	H 	0.99030 0.25970 0.75970 0.15800
O 	O 	0.77604 0.77604 0.47396 -0.72300
H 	H 	0.75970 0.75970 0.49030 0.15800
O 	O 	0.47396 0.97396 0.97396 -0.72300
H 	H 	0.49030 0.99030 0.99030 0.15900
O 	O 	0.27604 0.47396 0.27604 -0.72300
H 	H 	0.25970 0.49030 0.25970 0.15800
Cu	Cu	0.04574 0.07552 0.98487 0.85800
Cl	Cl	0.05580 0.12062 0.92425 -0.45900
N 	N 	0.98833 0.10654 0.99803 -0.21000
N 	N 	0.09649 0.03712 0.96616 -0.21200
N 	N 	0.93347 0.15205 0.00507 -0.08600
C 	C 	0.96877 0.14021 0.97940 0.08900
H 	H 	0.97760 0.15430 0.95220 0.04600
C 	C 	0.12410 0.04077 0.93268 0.08700
H 	H 	0.12450 0.06440 0.91130 0.07400
Cu	Cu	0.20426 0.67448 0.48487 0.85900
Cl	Cl	0.19420 0.62938 0.42425 -0.45900
N 	N 	0.26167 0.64346 0.49803 -0.21000
N 	N 	0.15351 0.71288 0.46616 -0.21200
N 	N 	0.31653 0.59795 0.50507 -0.08600
C 	C 	0.28123 0.60979 0.47940 0.08900
H 	H 	0.27240 0.59570 0.45220 0.04600
C 	C 	0.12590 0.70923 0.43268 0.08700
H 	H 	0.12550 0.68560 0.41130 0.07400
Cu	Cu	0.70426 0.57552 0.26513 0.85900
Cl	Cl	0.69420 0.62062 0.32575 -0.45900
N 	N 	0.76167 0.60654 0.25197 -0.21000
N 	N 	0.65351 0.53712 0.28384 -0.21200
N 	N 	0.81653 0.65205 0.24493 -0.08600
C 	C 	0.78123 0.64021 0.27060 0.08900
H 	H 	0.77240 0.65430 0.29780 0.04600
C 	C 	0.62590 0.54077 0.31732 0.08700
H 	H 	0.62550 0.56440 0.33870 0.07400
Cu	Cu	0.54574 0.17448 0.76513 0.85900
Cl	Cl	0.55580 0.12938 0.82575 -0.45900
N 	N 	0.48833 0.14346 0.75197 -0.21000
N 	N 	0.59649 0.21288 0.78384 -0.21200
N 	N 	0.43347 0.09795 0.74493 -0.08600
C 	C 	0.46877 0.10979 0.77060 0.08900
H 	H 	0.47760 0.09570 0.79780 0.04600
C 	C 	0.62410 0.20923 0.81732 0.08700
H 	H 	0.62450 0.18560 0.83870 0.07400
Cu	Cu	0.98487 0.04574 0.07552 0.85800
Cl	Cl	0.92425 0.05580 0.12062 -0.45900
N 	N 	0.99803 0.98833 0.10654 -0.21000
N 	N 	0.96616 0.09649 0.03712 -0.21200
N 	N 	0.00507 0.93347 0.15205 -0.08600
C 	C 	0.97940 0.96877 0.14021 0.08900
H 	H 	0.95220 0.97760 0.15430 0.04600
C 	C 	0.93268 0.12410 0.04077 0.08700
H 	H 	0.91130 0.12450 0.06440 0.07400
Cu	Cu	0.48487 0.20426 0.67448 0.85900
Cl	Cl	0.42425 0.19420 0.62938 -0.45900
N 	N 	0.49803 0.26167 0.64346 -0.21000
N 	N 	0.46616 0.15351 0.71288 -0.21200
N 	N 	0.50507 0.31653 0.59795 -0.08600
C 	C 	0.47940 0.28123 0.60979 0.08900
H 	H 	0.45220 0.27240 0.59570 0.04600
C 	C 	0.43268 0.12590 0.70923 0.08700
H 	H 	0.41130 0.12550 0.68560 0.07400
Cu	Cu	0.26513 0.70426 0.57552 0.85900
Cl	Cl	0.32575 0.69420 0.62062 -0.45900
N 	N 	0.25197 0.76167 0.60654 -0.21000
N 	N 	0.28384 0.65351 0.53712 -0.21200
N 	N 	0.24493 0.81653 0.65205 -0.08600
C 	C 	0.27060 0.78123 0.64021 0.08900
H 	H 	0.29780 0.77240 0.65430 0.04600
C 	C 	0.31732 0.62590 0.54077 0.08700
H 	H 	0.33870 0.62550 0.56440 0.07400
Cu	Cu	0.76513 0.54574 0.17448 0.85900
Cl	Cl	0.82575 0.55580 0.12938 -0.45900
N 	N 	0.75197 0.48833 0.14346 -0.21000
N 	N 	0.78384 0.59649 0.21288 -0.21200
N 	N 	0.74493 0.43347 0.09795 -0.08600
C 	C 	0.77060 0.46877 0.10979 0.08900
H 	H 	0.79780 0.47760 0.09570 0.04600
C 	C 	0.81732 0.62410 0.20923 0.08700
H 	H 	0.83870 0.62450 0.18560 0.07400
Cu	Cu	0.07552 0.98487 0.04574 0.85800
Cl	Cl	0.12062 0.92425 0.05580 -0.45900
N 	N 	0.10654 0.99803 0.98833 -0.21000
N 	N 	0.03712 0.96616 0.09649 -0.21200
N 	N 	0.15205 0.00507 0.93347 -0.08600
C 	C 	0.14021 0.97940 0.96877 0.08900
H 	H 	0.15430 0.95220 0.97760 0.04600
C 	C 	0.04077 0.93268 0.12410 0.08700
H 	H 	0.06440 0.91130 0.12450 0.07400
Cu	Cu	0.67448 0.48487 0.20426 0.85900
Cl	Cl	0.62938 0.42425 0.19420 -0.45900
N 	N 	0.64346 0.49803 0.26167 -0.21000
N 	N 	0.71288 0.46616 0.15351 -0.21200
N 	N 	0.59795 0.50507 0.31653 -0.08600
C 	C 	0.60979 0.47940 0.28123 0.08900
H 	H 	0.59570 0.45220 0.27240 0.04600
C 	C 	0.70923 0.43268 0.12590 0.08700
H 	H 	0.68560 0.41130 0.12550 0.07400
Cu	Cu	0.57552 0.26513 0.70426 0.85900
Cl	Cl	0.62062 0.32575 0.69420 -0.45900
N 	N 	0.60654 0.25197 0.76167 -0.21000
N 	N 	0.53712 0.28384 0.65351 -0.21200
N 	N 	0.65205 0.24493 0.81653 -0.08600
C 	C 	0.64021 0.27060 0.78123 0.08900
H 	H 	0.65430 0.29780 0.77240 0.04600
C 	C 	0.54077 0.31732 0.62590 0.08700
H 	H 	0.56440 0.33870 0.62550 0.07400
Cu	Cu	0.17448 0.76513 0.54574 0.85900
Cl	Cl	0.12938 0.82575 0.55580 -0.45900
N 	N 	0.14346 0.75197 0.48833 -0.21000
N 	N 	0.21288 0.78384 0.59649 -0.21200
N 	N 	0.09795 0.74493 0.43347 -0.08600
C 	C 	0.10979 0.77060 0.46877 0.08900
H 	H 	0.09570 0.79780 0.47760 0.04600
C 	C 	0.20923 0.81732 0.62410 0.08700
H 	H 	0.18560 0.83870 0.62450 0.07400
Cu	Cu	0.82552 0.29574 0.01513 0.85900
Cl	Cl	0.87062 0.30580 0.07575 -0.45900
N 	N 	0.85654 0.23833 0.00197 -0.21000
N 	N 	0.78712 0.34649 0.03384 -0.21200
N 	N 	0.90205 0.18347 0.99493 -0.08600
C 	C 	0.89021 0.21877 0.02060 0.08900
H 	H 	0.90430 0.22760 0.04780 0.04600
C 	C 	0.79077 0.37410 0.06732 0.08700
H 	H 	0.81440 0.37450 0.08870 0.07400
Cu	Cu	0.42448 0.45426 0.51513 0.85900
Cl	Cl	0.37938 0.44420 0.57575 -0.45900
N 	N 	0.39346 0.51167 0.50197 -0.21000
N 	N 	0.46288 0.40351 0.53384 -0.21200
N 	N 	0.34795 0.56653 0.49493 -0.08600
C 	C 	0.35979 0.53123 0.52060 0.08900
H 	H 	0.34570 0.52240 0.54780 0.04600
C 	C 	0.45923 0.37590 0.56732 0.08700
H 	H 	0.43560 0.37550 0.58870 0.07400
Cu	Cu	0.32552 0.95426 0.73487 0.85900
Cl	Cl	0.37062 0.94420 0.67425 -0.45900
N 	N 	0.35654 0.01167 0.74803 -0.21000
N 	N 	0.28712 0.90351 0.71616 -0.21200
N 	N 	0.40205 0.06653 0.75507 -0.08600
C 	C 	0.39021 0.03123 0.72940 0.08900
H 	H 	0.40430 0.02240 0.70220 0.04600
C 	C 	0.29077 0.87590 0.68268 0.08700
H 	H 	0.31440 0.87550 0.66130 0.07400
Cu	Cu	0.92448 0.79574 0.23487 0.85900
Cl	Cl	0.87938 0.80580 0.17425 -0.45900
N 	N 	0.89346 0.73833 0.24803 -0.21000
N 	N 	0.96288 0.84649 0.21616 -0.21200
N 	N 	0.84795 0.68347 0.25507 -0.08600
C 	C 	0.85979 0.71877 0.22940 0.08900
H 	H 	0.84570 0.72760 0.20220 0.04600
C 	C 	0.95923 0.87410 0.18268 0.08700
H 	H 	0.93560 0.87450 0.16130 0.07400
Cu	Cu	0.79574 0.23487 0.92448 0.85900
Cl	Cl	0.80580 0.17425 0.87938 -0.45900
N 	N 	0.73833 0.24803 0.89346 -0.21000
N 	N 	0.84649 0.21616 0.96288 -0.21200
N 	N 	0.68347 0.25507 0.84795 -0.08600
C 	C 	0.71877 0.22940 0.85979 0.08900
H 	H 	0.72760 0.20220 0.84570 0.04600
C 	C 	0.87410 0.18268 0.95923 0.08700
H 	H 	0.87450 0.16130 0.93560 0.07400
Cu	Cu	0.95426 0.73487 0.32552 0.85900
Cl	Cl	0.94420 0.67425 0.37062 -0.45900
N 	N 	0.01167 0.74803 0.35654 -0.21000
N 	N 	0.90351 0.71616 0.28712 -0.21200
N 	N 	0.06653 0.75507 0.40205 -0.08600
C 	C 	0.03123 0.72940 0.39021 0.08900
H 	H 	0.02240 0.70220 0.40430 0.04600
C 	C 	0.87590 0.68268 0.29077 0.08700
H 	H 	0.87550 0.66130 0.31440 0.07400
Cu	Cu	0.45426 0.51513 0.42448 0.85900
Cl	Cl	0.44420 0.57575 0.37938 -0.45900
N 	N 	0.51167 0.50197 0.39346 -0.21000
N 	N 	0.40351 0.53384 0.46288 -0.21200
N 	N 	0.56653 0.49493 0.34795 -0.08600
C 	C 	0.53123 0.52060 0.35979 0.08900
H 	H 	0.52240 0.54780 0.34570 0.04600
C 	C 	0.37590 0.56732 0.45923 0.08700
H 	H 	0.37550 0.58870 0.43560 0.07400
Cu	Cu	0.29574 0.01513 0.82552 0.85900
Cl	Cl	0.30580 0.07575 0.87062 -0.45900
N 	N 	0.23833 0.00197 0.85654 -0.21000
N 	N 	0.34649 0.03384 0.78712 -0.21200
N 	N 	0.18347 0.99493 0.90205 -0.08600
C 	C 	0.21877 0.02060 0.89021 0.08900
H 	H 	0.22760 0.04780 0.90430 0.04600
C 	C 	0.37410 0.06732 0.79077 0.08700
H 	H 	0.37450 0.08870 0.81440 0.07400
Cu	Cu	0.73487 0.32552 0.95426 0.85900
Cl	Cl	0.67425 0.37062 0.94420 -0.45900
N 	N 	0.74803 0.35654 0.01167 -0.21000
N 	N 	0.71616 0.28712 0.90351 -0.21200
N 	N 	0.75507 0.40205 0.06653 -0.08600
C 	C 	0.72940 0.39021 0.03123 0.08900
H 	H 	0.70220 0.40430 0.02240 0.04600
C 	C 	0.68268 0.29077 0.87590 0.08700
H 	H 	0.66130 0.31440 0.87550 0.07400
Cu	Cu	0.23487 0.92448 0.79574 0.85900
Cl	Cl	0.17425 0.87938 0.80580 -0.45900
N 	N 	0.24803 0.89346 0.73833 -0.21000
N 	N 	0.21616 0.96288 0.84649 -0.21200
N 	N 	0.25507 0.84795 0.68347 -0.08600
C 	C 	0.22940 0.85979 0.71877 0.08900
H 	H 	0.20220 0.84570 0.72760 0.04600
C 	C 	0.18268 0.95923 0.87410 0.08700
H 	H 	0.16130 0.93560 0.87450 0.07400
Cu	Cu	0.01513 0.82552 0.29574 0.85900
Cl	Cl	0.07575 0.87062 0.30580 -0.45900
N 	N 	0.00197 0.85654 0.23833 -0.21000
N 	N 	0.03384 0.78712 0.34649 -0.21200
N 	N 	0.99493 0.90205 0.18347 -0.08600
C 	C 	0.02060 0.89021 0.21877 0.08900
H 	H 	0.04780 0.90430 0.22760 0.04600
C 	C 	0.06732 0.79077 0.37410 0.08700
H 	H 	0.08870 0.81440 0.37450 0.07400
Cu	Cu	0.51513 0.42448 0.45426 0.85900
Cl	Cl	0.57575 0.37938 0.44420 -0.45900
N 	N 	0.50197 0.39346 0.51167 -0.21000
N 	N 	0.53384 0.46288 0.40351 -0.21200
N 	N 	0.49493 0.34795 0.56653 -0.08600
C 	C 	0.52060 0.35979 0.53123 0.08900
H 	H 	0.54780 0.34570 0.52240 0.04600
C 	C 	0.56732 0.45923 0.37590 0.08700
H 	H 	0.58870 0.43560 0.37550 0.07400
O 	O 	0.02604 0.02604 0.02604 -0.72200
H 	H 	0.00970 0.00970 0.00970 0.15900
O 	O 	0.22396 0.72396 0.52604 -0.72300
H 	H 	0.24030 0.74030 0.50970 0.15800
O 	O 	0.72396 0.52604 0.22396 -0.72300
H 	H 	0.74030 0.50970 0.24030 0.15800
O 	O 	0.52604 0.22396 0.72396 -0.72300
H 	H 	0.50970 0.24030 0.74030 0.15800
O 	O 	0.47396 0.47396 0.47396 -0.72300
H 	H 	0.49030 0.49030 0.49030 0.15800
O 	O 	0.77604 0.27604 0.97396 -0.72300
H 	H 	0.75970 0.25970 0.99030 0.15800
O 	O 	0.97396 0.77604 0.27604 -0.72300
H 	H 	0.99030 0.75970 0.25970 0.15800
O 	O 	0.27604 0.97396 0.77604 -0.72300
H 	H 	0.25970 0.99030 0.75970 0.15800
Cu	Cu	0.54574 0.57552 0.98487 0.85900
Cl	Cl	0.55580 0.62062 0.92425 -0.45900
N 	N 	0.48833 0.60654 0.99803 -0.21000
N 	N 	0.59649 0.53712 0.96616 -0.21200
N 	N 	0.43347 0.65205 0.00507 -0.08600
C 	C 	0.46877 0.64021 0.97940 0.08900
H 	H 	0.47760 0.65430 0.95220 0.04600
C 	C 	0.62410 0.54077 0.93268 0.08700
H 	H 	0.62450 0.56440 0.91130 0.07400
Cu	Cu	0.70426 0.17448 0.48487 0.85900
Cl	Cl	0.69420 0.12938 0.42425 -0.45900
N 	N 	0.76167 0.14346 0.49803 -0.21000
N 	N 	0.65351 0.21288 0.46616 -0.21200
N 	N 	0.81653 0.09795 0.50507 -0.08600
C 	C 	0.78123 0.10979 0.47940 0.08900
H 	H 	0.77240 0.09570 0.45220 0.04600
C 	C 	0.62590 0.20923 0.43268 0.08700
H 	H 	0.62550 0.18560 0.41130 0.07400
Cu	Cu	0.20426 0.07552 0.26513 0.85900
Cl	Cl	0.19420 0.12062 0.32575 -0.45900
N 	N 	0.26167 0.10654 0.25197 -0.21000
N 	N 	0.15351 0.03712 0.28384 -0.21100
N 	N 	0.31653 0.15205 0.24493 -0.08600
C 	C 	0.28123 0.14021 0.27060 0.08900
H 	H 	0.27240 0.15430 0.29780 0.04600
C 	C 	0.12590 0.04077 0.31732 0.08700
H 	H 	0.12550 0.06440 0.33870 0.07400
Cu	Cu	0.04574 0.67448 0.76513 0.85900
Cl	Cl	0.05580 0.62938 0.82575 -0.45900
N 	N 	0.98833 0.64346 0.75197 -0.21000
N 	N 	0.09649 0.71288 0.78384 -0.21200
N 	N 	0.93347 0.59795 0.74493 -0.08600
C 	C 	0.96877 0.60979 0.77060 0.08900
H 	H 	0.97760 0.59570 0.79780 0.04600
C 	C 	0.12410 0.70923 0.81732 0.08700
H 	H 	0.12450 0.68560 0.83870 0.07400
Cu	Cu	0.48487 0.54574 0.07552 0.85900
Cl	Cl	0.42425 0.55580 0.12062 -0.45900
N 	N 	0.49803 0.48833 0.10654 -0.21000
N 	N 	0.46616 0.59649 0.03712 -0.21200
N 	N 	0.50507 0.43347 0.15205 -0.08600
C 	C 	0.47940 0.46877 0.14021 0.08900
H 	H 	0.45220 0.47760 0.15430 0.04600
C 	C 	0.43268 0.62410 0.04077 0.08700
H 	H 	0.41130 0.62450 0.06440 0.07400
Cu	Cu	0.98487 0.70426 0.67448 0.85900
Cl	Cl	0.92425 0.69420 0.62938 -0.45900
N 	N 	0.99803 0.76167 0.64346 -0.21000
N 	N 	0.96616 0.65351 0.71288 -0.21200
N 	N 	0.00507 0.81653 0.59795 -0.08600
C 	C 	0.97940 0.78123 0.60979 0.08900
H 	H 	0.95220 0.77240 0.59570 0.04600
C 	C 	0.93268 0.62590 0.70923 0.08700
H 	H 	0.91130 0.62550 0.68560 0.07400
Cu	Cu	0.76513 0.20426 0.57552 0.85900
Cl	Cl	0.82575 0.19420 0.62062 -0.45900
N 	N 	0.75197 0.26167 0.60654 -0.21000
N 	N 	0.78384 0.15351 0.53712 -0.21200
N 	N 	0.74493 0.31653 0.65205 -0.08600
C 	C 	0.77060 0.28123 0.64021 0.08900
H 	H 	0.79780 0.27240 0.65430 0.04600
C 	C 	0.81732 0.12590 0.54077 0.08700
H 	H 	0.83870 0.12550 0.56440 0.07400
Cu	Cu	0.26513 0.04574 0.17448 0.85900
Cl	Cl	0.32575 0.05580 0.12938 -0.45800
N 	N 	0.25197 0.98833 0.14346 -0.21000
N 	N 	0.28384 0.09649 0.21288 -0.21200
N 	N 	0.24493 0.93347 0.09795 -0.08600
C 	C 	0.27060 0.96877 0.10979 0.08900
H 	H 	0.29780 0.97760 0.09570 0.04600
C 	C 	0.31732 0.12410 0.20923 0.08700
H 	H 	0.33870 0.12450 0.18560 0.07400
Cu	Cu	0.57552 0.48487 0.04574 0.85900
Cl	Cl	0.62062 0.42425 0.05580 -0.45900
N 	N 	0.60654 0.49803 0.98833 -0.21000
N 	N 	0.53712 0.46616 0.09649 -0.21200
N 	N 	0.65205 0.50507 0.93347 -0.08600
C 	C 	0.64021 0.47940 0.96877 0.08900
H 	H 	0.65430 0.45220 0.97760 0.04600
C 	C 	0.54077 0.43268 0.12410 0.08700
H 	H 	0.56440 0.41130 0.12450 0.07400
Cu	Cu	0.17448 0.98487 0.20426 0.85900
Cl	Cl	0.12938 0.92425 0.19420 -0.45900
N 	N 	0.14346 0.99803 0.26167 -0.21000
N 	N 	0.21288 0.96616 0.15351 -0.21200
N 	N 	0.09795 0.00507 0.31653 -0.08500
C 	C 	0.10979 0.97940 0.28123 0.08800
H 	H 	0.09570 0.95220 0.27240 0.04600
C 	C 	0.20923 0.93268 0.12590 0.08700
H 	H 	0.18560 0.91130 0.12550 0.07400
Cu	Cu	0.07552 0.76513 0.70426 0.85900
Cl	Cl	0.12062 0.82575 0.69420 -0.45900
N 	N 	0.10654 0.75197 0.76167 -0.21000
N 	N 	0.03712 0.78384 0.65351 -0.21200
N 	N 	0.15205 0.74493 0.81653 -0.08600
C 	C 	0.14021 0.77060 0.78123 0.08900
H 	H 	0.15430 0.79780 0.77240 0.04600
C 	C 	0.04077 0.81732 0.62590 0.08700
H 	H 	0.06440 0.83870 0.62550 0.07400
Cu	Cu	0.67448 0.26513 0.54574 0.85900
Cl	Cl	0.62938 0.32575 0.55580 -0.45900
N 	N 	0.64346 0.25197 0.48833 -0.21000
N 	N 	0.71288 0.28384 0.59649 -0.21200
N 	N 	0.59795 0.24493 0.43347 -0.08600
C 	C 	0.60979 0.27060 0.46877 0.08900
H 	H 	0.59570 0.29780 0.47760 0.04600
C 	C 	0.70923 0.31732 0.62410 0.08700
H 	H 	0.68560 0.33870 0.62450 0.07400
Cu	Cu	0.32552 0.79574 0.01513 0.85900
Cl	Cl	0.37062 0.80580 0.07575 -0.45900
N 	N 	0.35654 0.73833 0.00197 -0.21000
N 	N 	0.28712 0.84649 0.03384 -0.21200
N 	N 	0.40205 0.68347 0.99493 -0.08600
C 	C 	0.39021 0.71877 0.02060 0.08900
H 	H 	0.40430 0.72760 0.04780 0.04600
C 	C 	0.29077 0.87410 0.06732 0.08700
H 	H 	0.31440 0.87450 0.08870 0.07400
Cu	Cu	0.92448 0.95426 0.51513 0.85900
Cl	Cl	0.87938 0.94420 0.57575 -0.45800
N 	N 	0.89346 0.01167 0.50197 -0.21000
N 	N 	0.96288 0.90351 0.53384 -0.21200
N 	N 	0.84795 0.06653 0.49493 -0.08600
C 	C 	0.85979 0.03123 0.52060 0.08900
H 	H 	0.84570 0.02240 0.54780 0.04600
C 	C 	0.95923 0.87590 0.56732 0.08700
H 	H 	0.93560 0.87550 0.58870 0.07400
Cu	Cu	0.82552 0.45426 0.73487 0.85900
Cl	Cl	0.87062 0.44420 0.67425 -0.45900
N 	N 	0.85654 0.51167 0.74803 -0.21000
N 	N 	0.78712 0.40351 0.71616 -0.21200
N 	N 	0.90205 0.56653 0.75507 -0.08600
C 	C 	0.89021 0.53123 0.72940 0.08900
H 	H 	0.90430 0.52240 0.70220 0.04600
C 	C 	0.79077 0.37590 0.68268 0.08700
H 	H 	0.81440 0.37550 0.66130 0.07400
Cu	Cu	0.42448 0.29574 0.23487 0.85900
Cl	Cl	0.37938 0.30580 0.17425 -0.45900
N 	N 	0.39346 0.23833 0.24803 -0.21000
N 	N 	0.46288 0.34649 0.21616 -0.21200
N 	N 	0.34795 0.18347 0.25507 -0.08600
C 	C 	0.35979 0.21877 0.22940 0.08900
H 	H 	0.34570 0.22760 0.20220 0.04600
C 	C 	0.45923 0.37410 0.18268 0.08700
H 	H 	0.43560 0.37450 0.16130 0.07400
Cu	Cu	0.29574 0.73487 0.92448 0.85900
Cl	Cl	0.30580 0.67425 0.87938 -0.45900
N 	N 	0.23833 0.74803 0.89346 -0.21000
N 	N 	0.34649 0.71616 0.96288 -0.21200
N 	N 	0.18347 0.75507 0.84795 -0.08600
C 	C 	0.21877 0.72940 0.85979 0.08900
H 	H 	0.22760 0.70220 0.84570 0.04600
C 	C 	0.37410 0.68268 0.95923 0.08700
H 	H 	0.37450 0.66130 0.93560 0.07400
Cu	Cu	0.45426 0.23487 0.32552 0.85900
Cl	Cl	0.44420 0.17425 0.37062 -0.45900
N 	N 	0.51167 0.24803 0.35654 -0.21000
N 	N 	0.40351 0.21616 0.28712 -0.21200
N 	N 	0.56653 0.25507 0.40205 -0.08600
C 	C 	0.53123 0.22940 0.39021 0.08900
H 	H 	0.52240 0.20220 0.40430 0.04600
C 	C 	0.37590 0.18268 0.29077 0.08700
H 	H 	0.37550 0.16130 0.31440 0.07400
Cu	Cu	0.95426 0.01513 0.42448 0.85800
Cl	Cl	0.94420 0.07575 0.37938 -0.45900
N 	N 	0.01167 0.00197 0.39346 -0.21000
N 	N 	0.90351 0.03384 0.46288 -0.21200
N 	N 	0.06653 0.99493 0.34795 -0.08600
C 	C 	0.03123 0.02060 0.35979 0.09000
H 	H 	0.02240 0.04780 0.34570 0.04600
C 	C 	0.87590 0.06732 0.45923 0.08700
H 	H 	0.87550 0.08870 0.43560 0.07400
Cu	Cu	0.79574 0.51513 0.82552 0.85900
Cl	Cl	0.80580 0.57575 0.87062 -0.45900
N 	N 	0.73833 0.50197 0.85654 -0.21000
N 	N 	0.84649 0.53384 0.78712 -0.21200
N 	N 	0.68347 0.49493 0.90205 -0.08600
C 	C 	0.71877 0.52060 0.89021 0.08900
H 	H 	0.72760 0.54780 0.90430 0.04600
C 	C 	0.87410 0.56732 0.79077 0.08700
H 	H 	0.87450 0.58870 0.81440 0.07400
Cu	Cu	0.23487 0.82552 0.95426 0.85900
Cl	Cl	0.17425 0.87062 0.94420 -0.45900
N 	N 	0.24803 0.85654 0.01167 -0.21000
N 	N 	0.21616 0.78712 0.90351 -0.21200
N 	N 	0.25507 0.90205 0.06653 -0.08600
C 	C 	0.22940 0.89021 0.03123 0.08900
H 	H 	0.20220 0.90430 0.02240 0.04600
C 	C 	0.18268 0.79077 0.87590 0.08700
H 	H 	0.16130 0.81440 0.87550 0.07400
Cu	Cu	0.73487 0.42448 0.79574 0.85900
Cl	Cl	0.67425 0.37938 0.80580 -0.45900
N 	N 	0.74803 0.39346 0.73833 -0.21000
N 	N 	0.71616 0.46288 0.84649 -0.21200
N 	N 	0.75507 0.34795 0.68347 -0.08600
C 	C 	0.72940 0.35979 0.71877 0.08900
H 	H 	0.70220 0.34570 0.72760 0.04600
C 	C 	0.68268 0.45923 0.87410 0.08700
H 	H 	0.66130 0.43560 0.87450 0.07400
Cu	Cu	0.51513 0.32552 0.29574 0.85900
Cl	Cl	0.57575 0.37062 0.30580 -0.45900
N 	N 	0.50197 0.35654 0.23833 -0.21000
N 	N 	0.53384 0.28712 0.34649 -0.21200
N 	N 	0.49493 0.40205 0.18347 -0.08600
C 	C 	0.52060 0.39021 0.21877 0.08900
H 	H 	0.54780 0.40430 0.22760 0.04600
C 	C 	0.56732 0.29077 0.37410 0.08700
H 	H 	0.58870 0.31440 0.37450 0.07400
Cu	Cu	0.01513 0.92448 0.45426 0.85900
Cl	Cl	0.07575 0.87938 0.44420 -0.45900
N 	N 	0.00197 0.89346 0.51167 -0.21000
N 	N 	0.03384 0.96288 0.40351 -0.21200
N 	N 	0.99493 0.84795 0.56653 -0.08500
C 	C 	0.02060 0.85979 0.53123 0.08900
H 	H 	0.04780 0.84570 0.52240 0.04600
C 	C 	0.06732 0.95923 0.37590 0.08700
H 	H 	0.08870 0.93560 0.37550 0.07400
O 	O 	0.02604 0.72396 0.72396 -0.72300
H 	H 	0.00970 0.74030 0.74030 0.15800
O 	O 	0.22396 0.02604 0.22396 -0.72300
H 	H 	0.24030 0.00970 0.24030 0.15900
O 	O 	0.52604 0.52604 0.02604 -0.72300
H 	H 	0.50970 0.50970 0.00970 0.15900
O 	O 	0.72396 0.22396 0.52604 -0.72300
H 	H 	0.74030 0.24030 0.50970 0.15800
O 	O 	0.27604 0.77604 0.97396 -0.72300
H 	H 	0.25970 0.75970 0.99030 0.15800
O 	O 	0.77604 0.47396 0.77604 -0.72300
H 	H 	0.75970 0.49030 0.75970 0.15800
O 	O 	0.47396 0.27604 0.27604 -0.72300
H 	H 	0.49030 0.25970 0.25970 0.15800
O 	O 	0.97396 0.97396 0.47396 -0.72300
H 	H 	0.99030 0.99030 0.49030 0.15900
Cu	Cu	0.54574 0.07552 0.48487 0.85900
Cl	Cl	0.55580 0.12062 0.42425 -0.45900
N 	N 	0.48833 0.10654 0.49803 -0.21000
N 	N 	0.59649 0.03712 0.46616 -0.21200
N 	N 	0.43347 0.15205 0.50507 -0.08600
C 	C 	0.46877 0.14021 0.47940 0.08900
H 	H 	0.47760 0.15430 0.45220 0.04600
C 	C 	0.62410 0.04077 0.43268 0.08700
H 	H 	0.62450 0.06440 0.41130 0.07400
Cu	Cu	0.70426 0.67448 0.98487 0.85900
Cl	Cl	0.69420 0.62938 0.92425 -0.45900
N 	N 	0.76167 0.64346 0.99803 -0.21000
N 	N 	0.65351 0.71288 0.96616 -0.21200
N 	N 	0.81653 0.59795 0.00507 -0.08600
C 	C 	0.78123 0.60979 0.97940 0.08900
H 	H 	0.77240 0.59570 0.95220 0.04600
C 	C 	0.62590 0.70923 0.93268 0.08700
H 	H 	0.62550 0.68560 0.91130 0.07400
Cu	Cu	0.20426 0.57552 0.76513 0.85900
Cl	Cl	0.19420 0.62062 0.82575 -0.45900
N 	N 	0.26167 0.60654 0.75197 -0.21000
N 	N 	0.15351 0.53712 0.78384 -0.21200
N 	N 	0.31653 0.65205 0.74493 -0.08600
C 	C 	0.28123 0.64021 0.77060 0.08900
H 	H 	0.27240 0.65430 0.79780 0.04600
C 	C 	0.12590 0.54077 0.81732 0.08700
H 	H 	0.12550 0.56440 0.83870 0.07400
Cu	Cu	0.04574 0.17448 0.26513 0.85900
Cl	Cl	0.05580 0.12938 0.32575 -0.45800
N 	N 	0.98833 0.14346 0.25197 -0.21000
N 	N 	0.09649 0.21288 0.28384 -0.21200
N 	N 	0.93347 0.09795 0.24493 -0.08600
C 	C 	0.96877 0.10979 0.27060 0.08900
H 	H 	0.97760 0.09570 0.29780 0.04600
C 	C 	0.12410 0.20923 0.31732 0.08700
H 	H 	0.12450 0.18560 0.33870 0.07400
Cu	Cu	0.48487 0.04574 0.57552 0.85900
Cl	Cl	0.42425 0.05580 0.62062 -0.45900
N 	N 	0.49803 0.98833 0.60654 -0.21000
N 	N 	0.46616 0.09649 0.53712 -0.21200
N 	N 	0.50507 0.93347 0.65205 -0.08600
C 	C 	0.47940 0.96877 0.64021 0.08900
H 	H 	0.45220 0.97760 0.65430 0.04600
C 	C 	0.43268 0.12410 0.54077 0.08700
H 	H 	0.41130 0.12450 0.56440 0.07400
Cu	Cu	0.98487 0.20426 0.17448 0.85900
Cl	Cl	0.92425 0.19420 0.12938 -0.45900
N 	N 	0.99803 0.26167 0.14346 -0.21000
N 	N 	0.96616 0.15351 0.21288 -0.21200
N 	N 	0.00507 0.31653 0.09795 -0.08500
C 	C 	0.97940 0.28123 0.10979 0.08800
H 	H 	0.95220 0.27240 0.09570 0.04600
C 	C 	0.93268 0.12590 0.20923 0.08700
H 	H 	0.91130 0.12550 0.18560 0.07400
Cu	Cu	0.76513 0.70426 0.07552 0.85900
Cl	Cl	0.82575 0.69420 0.12062 -0.45900
N 	N 	0.75197 0.76167 0.10654 -0.21000
N 	N 	0.78384 0.65351 0.03712 -0.21200
N 	N 	0.74493 0.81653 0.15205 -0.08600
C 	C 	0.77060 0.78123 0.14021 0.08900
H 	H 	0.79780 0.77240 0.15430 0.04600
C 	C 	0.81732 0.62590 0.04077 0.08700
H 	H 	0.83870 0.62550 0.06440 0.07400
Cu	Cu	0.26513 0.54574 0.67448 0.85900
Cl	Cl	0.32575 0.55580 0.62938 -0.45900
N 	N 	0.25197 0.48833 0.64346 -0.21000
N 	N 	0.28384 0.59649 0.71288 -0.21200
N 	N 	0.24493 0.43347 0.59795 -0.08600
C 	C 	0.27060 0.46877 0.60979 0.08900
H 	H 	0.29780 0.47760 0.59570 0.04600
C 	C 	0.31732 0.62410 0.70923 0.08700
H 	H 	0.33870 0.62450 0.68560 0.07400
Cu	Cu	0.57552 0.98487 0.54574 0.85900
Cl	Cl	0.62062 0.92425 0.55580 -0.45900
N 	N 	0.60654 0.99803 0.48833 -0.21000
N 	N 	0.53712 0.96616 0.59649 -0.21200
N 	N 	0.65205 0.00507 0.43347 -0.08600
C 	C 	0.64021 0.97940 0.46877 0.08900
H 	H 	0.65430 0.95220 0.47760 0.04600
C 	C 	0.54077 0.93268 0.62410 0.08700
H 	H 	0.56440 0.91130 0.62450 0.07400
Cu	Cu	0.17448 0.48487 0.70426 0.85900
Cl	Cl	0.12938 0.42425 0.69420 -0.45900
N 	N 	0.14346 0.49803 0.76167 -0.21000
N 	N 	0.21288 0.46616 0.65351 -0.21200
N 	N 	0.09795 0.50507 0.81653 -0.08600
C 	C 	0.10979 0.47940 0.78123 0.08900
H 	H 	0.09570 0.45220 0.77240 0.04600
C 	C 	0.20923 0.43268 0.62590 0.08700
H 	H 	0.18560 0.41130 0.62550 0.07400
Cu	Cu	0.07552 0.26513 0.20426 0.85900
Cl	Cl	0.12062 0.32575 0.19420 -0.45900
N 	N 	0.10654 0.25197 0.26167 -0.21000
N 	N 	0.03712 0.28384 0.15351 -0.21100
N 	N 	0.15205 0.24493 0.31653 -0.08600
C 	C 	0.14021 0.27060 0.28123 0.08900
H 	H 	0.15430 0.29780 0.27240 0.04600
C 	C 	0.04077 0.31732 0.12590 0.08700
H 	H 	0.06440 0.33870 0.12550 0.07400
Cu	Cu	0.67448 0.76513 0.04574 0.85900
Cl	Cl	0.62938 0.82575 0.05580 -0.45900
N 	N 	0.64346 0.75197 0.98833 -0.21000
N 	N 	0.71288 0.78384 0.09649 -0.21200
N 	N 	0.59795 0.74493 0.93347 -0.08600
C 	C 	0.60979 0.77060 0.96877 0.08900
H 	H 	0.59570 0.79780 0.97760 0.04600
C 	C 	0.70923 0.81732 0.12410 0.08700
H 	H 	0.68560 0.83870 0.12450 0.07400
Cu	Cu	0.32552 0.29574 0.51513 0.85900
Cl	Cl	0.37062 0.30580 0.57575 -0.45900
N 	N 	0.35654 0.23833 0.50197 -0.21000
N 	N 	0.28712 0.34649 0.53384 -0.21200
N 	N 	0.40205 0.18347 0.49493 -0.08600
C 	C 	0.39021 0.21877 0.52060 0.08900
H 	H 	0.40430 0.22760 0.54780 0.04600
C 	C 	0.29077 0.37410 0.56732 0.08700
H 	H 	0.31440 0.37450 0.58870 0.07400
Cu	Cu	0.92448 0.45426 0.01513 0.85900
Cl	Cl	0.87938 0.44420 0.07575 -0.45900
N 	N 	0.89346 0.51167 0.00197 -0.21000
N 	N 	0.96288 0.40351 0.03384 -0.21200
N 	N 	0.84795 0.56653 0.99493 -0.08500
C 	C 	0.85979 0.53123 0.02060 0.08900
H 	H 	0.84570 0.52240 0.04780 0.04600
C 	C 	0.95923 0.37590 0.06732 0.08700
H 	H 	0.93560 0.37550 0.08870 0.07400
Cu	Cu	0.82552 0.95426 0.23487 0.85900
Cl	Cl	0.87062 0.94420 0.17425 -0.45900
N 	N 	0.85654 0.01167 0.24803 -0.21000
N 	N 	0.78712 0.90351 0.21616 -0.21200
N 	N 	0.90205 0.06653 0.25507 -0.08600
C 	C 	0.89021 0.03123 0.22940 0.08900
H 	H 	0.90430 0.02240 0.20220 0.04600
C 	C 	0.79077 0.87590 0.18268 0.08700
H 	H 	0.81440 0.87550 0.16130 0.07400
Cu	Cu	0.42448 0.79574 0.73487 0.85900
Cl	Cl	0.37938 0.80580 0.67425 -0.45900
N 	N 	0.39346 0.73833 0.74803 -0.21000
N 	N 	0.46288 0.84649 0.71616 -0.21200
N 	N 	0.34795 0.68347 0.75507 -0.08600
C 	C 	0.35979 0.71877 0.72940 0.08900
H 	H 	0.34570 0.72760 0.70220 0.04600
C 	C 	0.45923 0.87410 0.68268 0.08700
H 	H 	0.43560 0.87450 0.66130 0.07400
Cu	Cu	0.29574 0.23487 0.42448 0.85900
Cl	Cl	0.30580 0.17425 0.37938 -0.45900
N 	N 	0.23833 0.24803 0.39346 -0.21000
N 	N 	0.34649 0.21616 0.46288 -0.21200
N 	N 	0.18347 0.25507 0.34795 -0.08600
C 	C 	0.21877 0.22940 0.35979 0.08900
H 	H 	0.22760 0.20220 0.34570 0.04600
C 	C 	0.37410 0.18268 0.45923 0.08700
H 	H 	0.37450 0.16130 0.43560 0.07400
Cu	Cu	0.45426 0.73487 0.82552 0.85900
Cl	Cl	0.44420 0.67425 0.87062 -0.45900
N 	N 	0.51167 0.74803 0.85654 -0.21000
N 	N 	0.40351 0.71616 0.78712 -0.21200
N 	N 	0.56653 0.75507 0.90205 -0.08600
C 	C 	0.53123 0.72940 0.89021 0.08900
H 	H 	0.52240 0.70220 0.90430 0.04600
C 	C 	0.37590 0.68268 0.79077 0.08700
H 	H 	0.37550 0.66130 0.81440 0.07400
Cu	Cu	0.95426 0.51513 0.92448 0.85900
Cl	Cl	0.94420 0.57575 0.87938 -0.45800
N 	N 	0.01167 0.50197 0.89346 -0.21000
N 	N 	0.90351 0.53384 0.96288 -0.21200
N 	N 	0.06653 0.49493 0.84795 -0.08600
C 	C 	0.03123 0.52060 0.85979 0.08900
H 	H 	0.02240 0.54780 0.84570 0.04600
C 	C 	0.87590 0.56732 0.95923 0.08700
H 	H 	0.87550 0.58870 0.93560 0.07400
Cu	Cu	0.79574 0.01513 0.32552 0.85900
Cl	Cl	0.80580 0.07575 0.37062 -0.45900
N 	N 	0.73833 0.00197 0.35654 -0.21000
N 	N 	0.84649 0.03384 0.28712 -0.21200
N 	N 	0.68347 0.99493 0.40205 -0.08600
C 	C 	0.71877 0.02060 0.39021 0.08900
H 	H 	0.72760 0.04780 0.40430 0.04600
C 	C 	0.87410 0.06732 0.29077 0.08700
H 	H 	0.87450 0.08870 0.31440 0.07400
Cu	Cu	0.23487 0.32552 0.45426 0.85900
Cl	Cl	0.17425 0.37062 0.44420 -0.45900
N 	N 	0.24803 0.35654 0.51167 -0.21000
N 	N 	0.21616 0.28712 0.40351 -0.21200
N 	N 	0.25507 0.40205 0.56653 -0.08600
C 	C 	0.22940 0.39021 0.53123 0.08900
H 	H 	0.20220 0.40430 0.52240 0.04600
C 	C 	0.18268 0.29077 0.37590 0.08700
H 	H 	0.16130 0.31440 0.37550 0.07400
Cu	Cu	0.73487 0.92448 0.29574 0.85900
Cl	Cl	0.67425 0.87938 0.30580 -0.45900
N 	N 	0.74803 0.89346 0.23833 -0.21000
N 	N 	0.71616 0.96288 0.34649 -0.21200
N 	N 	0.75507 0.84795 0.18347 -0.08600
C 	C 	0.72940 0.85979 0.21877 0.08900
H 	H 	0.70220 0.84570 0.22760 0.04600
C 	C 	0.68268 0.95923 0.37410 0.08700
H 	H 	0.66130 0.93560 0.37450 0.07400
Cu	Cu	0.51513 0.82552 0.79574 0.85900
Cl	Cl	0.57575 0.87062 0.80580 -0.45900
N 	N 	0.50197 0.85654 0.73833 -0.21000
N 	N 	0.53384 0.78712 0.84649 -0.21200
N 	N 	0.49493 0.90205 0.68347 -0.08600
C 	C 	0.52060 0.89021 0.71877 0.08900
H 	H 	0.54780 0.90430 0.72760 0.04600
C 	C 	0.56732 0.79077 0.87410 0.08700
H 	H 	0.58870 0.81440 0.87450 0.07400
Cu	Cu	0.01513 0.42448 0.95426 0.85800
Cl	Cl	0.07575 0.37938 0.94420 -0.45900
N 	N 	0.00197 0.39346 0.01167 -0.21000
N 	N 	0.03384 0.46288 0.90351 -0.21200
N 	N 	0.99493 0.34795 0.06653 -0.08600
C 	C 	0.02060 0.35979 0.03123 0.09000
H 	H 	0.04780 0.34570 0.02240 0.04600
C 	C 	0.06732 0.45923 0.87590 0.08700
H 	H 	0.08870 0.43560 0.87550 0.07400
O 	O 	0.02604 0.22396 0.22396 -0.72300
H 	H 	0.00970 0.24030 0.24030 0.15900
O 	O 	0.52604 0.02604 0.52604 -0.72300
H 	H 	0.50970 0.00970 0.50970 0.15900
O 	O 	0.72396 0.72396 0.02604 -0.72300
H 	H 	0.74030 0.74030 0.00970 0.15800
O 	O 	0.22396 0.52604 0.72396 -0.72300
H 	H 	0.24030 0.50970 0.74030 0.15800
O 	O 	0.27604 0.27604 0.47396 -0.72300
H 	H 	0.25970 0.25970 0.49030 0.15800
O 	O 	0.97396 0.47396 0.97396 -0.72300
H 	H 	0.99030 0.49030 0.99030 0.15900
O 	O 	0.77604 0.97396 0.27604 -0.72300
H 	H 	0.75970 0.99030 0.25970 0.15800
O 	O 	0.47396 0.77604 0.77604 -0.72300
H 	H 	0.49030 0.75970 0.75970 0.15800
Cu	Cu	0.95426 0.42448 0.51513 0.85900
Cl	Cl	0.94420 0.37938 0.57575 -0.45900
N 	N 	0.01167 0.39346 0.50197 -0.21000
N 	N 	0.90351 0.46288 0.53384 -0.21200
N 	N 	0.06653 0.34795 0.49493 -0.08600
C 	C 	0.03123 0.35979 0.52060 0.08900
H 	H 	0.02240 0.34570 0.54780 0.04600
C 	C 	0.87590 0.45923 0.56732 0.08700
H 	H 	0.87550 0.43560 0.58870 0.07400
Cu	Cu	0.79574 0.82552 0.01513 0.85900
Cl	Cl	0.80580 0.87062 0.07575 -0.45900
N 	N 	0.73833 0.85654 0.00197 -0.21000
N 	N 	0.84649 0.78712 0.03384 -0.21200
N 	N 	0.68347 0.90205 0.99493 -0.08500
C 	C 	0.71877 0.89021 0.02060 0.08800
H 	H 	0.72760 0.90430 0.04780 0.04600
C 	C 	0.87410 0.79077 0.06732 0.08700
H 	H 	0.87450 0.81440 0.08870 0.07400
Cu	Cu	0.29574 0.92448 0.23487 0.85900
Cl	Cl	0.30580 0.87938 0.17425 -0.45900
N 	N 	0.23833 0.89346 0.24803 -0.21000
N 	N 	0.34649 0.96288 0.21616 -0.21200
N 	N 	0.18347 0.84795 0.25507 -0.08600
C 	C 	0.21877 0.85979 0.22940 0.08900
H 	H 	0.22760 0.84570 0.20220 0.04600
C 	C 	0.37410 0.95923 0.18268 0.08700
H 	H 	0.37450 0.93560 0.16130 0.07400
Cu	Cu	0.45426 0.32552 0.73487 0.85900
Cl	Cl	0.44420 0.37062 0.67425 -0.45900
N 	N 	0.51167 0.35654 0.74803 -0.21000
N 	N 	0.40351 0.28712 0.71616 -0.21200
N 	N 	0.56653 0.40205 0.75507 -0.08600
C 	C 	0.53123 0.39021 0.72940 0.08900
H 	H 	0.52240 0.40430 0.70220 0.04600
C 	C 	0.37590 0.29077 0.68268 0.08700
H 	H 	0.37550 0.31440 0.66130 0.07400
Cu	Cu	0.01513 0.45426 0.42448 0.85900
Cl	Cl	0.07575 0.44420 0.37938 -0.45900
N 	N 	0.00197 0.51167 0.39346 -0.21000
N 	N 	0.03384 0.40351 0.46288 -0.21200
N 	N 	0.99493 0.56653 0.34795 -0.08600
C 	C 	0.02060 0.53123 0.35979 0.08900
H 	H 	0.04780 0.52240 0.34570 0.04600
C 	C 	0.06732 0.37590 0.45923 0.08700
H 	H 	0.08870 0.37550 0.43560 0.07400
Cu	Cu	0.51513 0.29574 0.82552 0.85900
Cl	Cl	0.57575 0.30580 0.87062 -0.45900
N 	N 	0.50197 0.23833 0.85654 -0.21000
N 	N 	0.53384 0.34649 0.78712 -0.21200
N 	N 	0.49493 0.18347 0.90205 -0.08600
C 	C 	0.52060 0.21877 0.89021 0.08900
H 	H 	0.54780 0.22760 0.90430 0.04600
C 	C 	0.56732 0.37410 0.79077 0.08700
H 	H 	0.58870 0.37450 0.81440 0.07400
Cu	Cu	0.73487 0.79574 0.92448 0.85900
Cl	Cl	0.67425 0.80580 0.87938 -0.45900
N 	N 	0.74803 0.73833 0.89346 -0.21000
N 	N 	0.71616 0.84649 0.96288 -0.21100
N 	N 	0.75507 0.68347 0.84795 -0.08600
C 	C 	0.72940 0.71877 0.85979 0.08900
H 	H 	0.70220 0.72760 0.84570 0.04600
C 	C 	0.68268 0.87410 0.95923 0.08700
H 	H 	0.66130 0.87450 0.93560 0.07400
Cu	Cu	0.23487 0.95426 0.32552 0.85900
Cl	Cl	0.17425 0.94420 0.37062 -0.45900
N 	N 	0.24803 0.01167 0.35654 -0.21000
N 	N 	0.21616 0.90351 0.28712 -0.21200
N 	N 	0.25507 0.06653 0.40205 -0.08600
C 	C 	0.22940 0.03123 0.39021 0.08900
H 	H 	0.20220 0.02240 0.40430 0.04600
C 	C 	0.18268 0.87590 0.29077 0.08700
H 	H 	0.16130 0.87550 0.31440 0.07400
Cu	Cu	0.92448 0.51513 0.45426 0.85900
Cl	Cl	0.87938 0.57575 0.44420 -0.45900
N 	N 	0.89346 0.50197 0.51167 -0.21000
N 	N 	0.96288 0.53384 0.40351 -0.21200
N 	N 	0.84795 0.49493 0.56653 -0.08600
C 	C 	0.85979 0.52060 0.53123 0.08900
H 	H 	0.84570 0.54780 0.52240 0.04600
C 	C 	0.95923 0.56732 0.37590 0.08700
H 	H 	0.93560 0.58870 0.37550 0.07400
Cu	Cu	0.32552 0.01513 0.29574 0.85900
Cl	Cl	0.37062 0.07575 0.30580 -0.45900
N 	N 	0.35654 0.00197 0.23833 -0.21000
N 	N 	0.28712 0.03384 0.34649 -0.21200
N 	N 	0.40205 0.99493 0.18347 -0.08600
C 	C 	0.39021 0.02060 0.21877 0.08900
H 	H 	0.40430 0.04780 0.22760 0.04600
C 	C 	0.29077 0.06732 0.37410 0.08700
H 	H 	0.31440 0.08870 0.37450 0.07400
Cu	Cu	0.42448 0.23487 0.79574 0.85900
Cl	Cl	0.37938 0.17425 0.80580 -0.45900
N 	N 	0.39346 0.24803 0.73833 -0.21000
N 	N 	0.46288 0.21616 0.84649 -0.21200
N 	N 	0.34795 0.25507 0.68347 -0.08600
C 	C 	0.35979 0.22940 0.71877 0.08900
H 	H 	0.34570 0.20220 0.72760 0.04600
C 	C 	0.45923 0.18268 0.87410 0.08700
H 	H 	0.43560 0.16130 0.87450 0.07400
Cu	Cu	0.82552 0.73487 0.95426 0.85900
Cl	Cl	0.87062 0.67425 0.94420 -0.45800
N 	N 	0.85654 0.74803 0.01167 -0.21000
N 	N 	0.78712 0.71616 0.90351 -0.21200
N 	N 	0.90205 0.75507 0.06653 -0.08600
C 	C 	0.89021 0.72940 0.03123 0.08900
H 	H 	0.90430 0.70220 0.02240 0.04600
C 	C 	0.79077 0.68268 0.87590 0.08700
H 	H 	0.81440 0.66130 0.87550 0.07400
Cu	Cu	0.17448 0.20426 0.48487 0.85900
Cl	Cl	0.12938 0.19420 0.42425 -0.45900
N 	N 	0.14346 0.26167 0.49803 -0.21000
N 	N 	0.21288 0.15351 0.46616 -0.21200
N 	N 	0.09795 0.31653 0.50507 -0.08600
C 	C 	0.10979 0.28123 0.47940 0.08900
H 	H 	0.09570 0.27240 0.45220 0.04600
C 	C 	0.20923 0.12590 0.43268 0.08700
H 	H 	0.18560 0.12550 0.41130 0.07400
Cu	Cu	0.57552 0.04574 0.98487 0.85800
Cl	Cl	0.62062 0.05580 0.92425 -0.45900
N 	N 	0.60654 0.98833 0.99803 -0.21000
N 	N 	0.53712 0.09649 0.96616 -0.21200
N 	N 	0.65205 0.93347 0.00507 -0.08600
C 	C 	0.64021 0.96877 0.97940 0.09000
H 	H 	0.65430 0.97760 0.95220 0.04600
C 	C 	0.54077 0.12410 0.93268 0.08700
H 	H 	0.56440 0.12450 0.91130 0.07400
Cu	Cu	0.67448 0.54574 0.76513 0.85900
Cl	Cl	0.62938 0.55580 0.82575 -0.45900
N 	N 	0.64346 0.48833 0.75197 -0.21000
N 	N 	0.71288 0.59649 0.78384 -0.21200
N 	N 	0.59795 0.43347 0.74493 -0.08600
C 	C 	0.60979 0.46877 0.77060 0.08900
H 	H 	0.59570 0.47760 0.79780 0.04600
C 	C 	0.70923 0.62410 0.81732 0.08700
H 	H 	0.68560 0.62450 0.83870 0.07400
Cu	Cu	0.07552 0.70426 0.26513 0.85900
Cl	Cl	0.12062 0.69420 0.32575 -0.45900
N 	N 	0.10654 0.76167 0.25197 -0.21000
N 	N 	0.03712 0.65351 0.28384 -0.21200
N 	N 	0.15205 0.81653 0.24493 -0.08600
C 	C 	0.14021 0.78123 0.27060 0.08900
H 	H 	0.15430 0.77240 0.29780 0.04600
C 	C 	0.04077 0.62590 0.31732 0.08700
H 	H 	0.06440 0.62550 0.33870 0.07400
Cu	Cu	0.20426 0.26513 0.57552 0.85900
Cl	Cl	0.19420 0.32575 0.62062 -0.45900
N 	N 	0.26167 0.25197 0.60654 -0.21000
N 	N 	0.15351 0.28384 0.53712 -0.21200
N 	N 	0.31653 0.24493 0.65205 -0.08600
C 	C 	0.28123 0.27060 0.64021 0.08900
H 	H 	0.27240 0.29780 0.65430 0.04600
C 	C 	0.12590 0.31732 0.54077 0.08700
H 	H 	0.12550 0.33870 0.56440 0.07400
Cu	Cu	0.04574 0.76513 0.17448 0.85900
Cl	Cl	0.05580 0.82575 0.12938 -0.45900
N 	N 	0.98833 0.75197 0.14346 -0.21000
N 	N 	0.09649 0.78384 0.21288 -0.21200
N 	N 	0.93347 0.74493 0.09795 -0.08600
C 	C 	0.96877 0.77060 0.10979 0.08900
H 	H 	0.97760 0.79780 0.09570 0.04600
C 	C 	0.12410 0.81732 0.20923 0.08700
H 	H 	0.12450 0.83870 0.18560 0.07400
Cu	Cu	0.54574 0.98487 0.07552 0.85900
Cl	Cl	0.55580 0.92425 0.12062 -0.45900
N 	N 	0.48833 0.99803 0.10654 -0.21000
N 	N 	0.59649 0.96616 0.03712 -0.21200
N 	N 	0.43347 0.00507 0.15205 -0.08500
C 	C 	0.46877 0.97940 0.14021 0.08900
H 	H 	0.47760 0.95220 0.15430 0.04600
C 	C 	0.62410 0.93268 0.04077 0.08700
H 	H 	0.62450 0.91130 0.06440 0.07400
Cu	Cu	0.70426 0.48487 0.67448 0.85900
Cl	Cl	0.69420 0.42425 0.62938 -0.45900
N 	N 	0.76167 0.49803 0.64346 -0.21000
N 	N 	0.65351 0.46616 0.71288 -0.21200
N 	N 	0.81653 0.50507 0.59795 -0.08600
C 	C 	0.78123 0.47940 0.60979 0.08900
H 	H 	0.77240 0.45220 0.59570 0.04600
C 	C 	0.62590 0.43268 0.70923 0.08700
H 	H 	0.62550 0.41130 0.68560 0.07400
Cu	Cu	0.26513 0.17448 0.54574 0.85900
Cl	Cl	0.32575 0.12938 0.55580 -0.45900
N 	N 	0.25197 0.14346 0.48833 -0.21000
N 	N 	0.28384 0.21288 0.59649 -0.21200
N 	N 	0.24493 0.09795 0.43347 -0.08600
C 	C 	0.27060 0.10979 0.46877 0.08900
H 	H 	0.29780 0.09570 0.47760 0.04600
C 	C 	0.31732 0.20923 0.62410 0.08700
H 	H 	0.33870 0.18560 0.62450 0.07400
Cu	Cu	0.76513 0.57552 0.70426 0.85900
Cl	Cl	0.82575 0.62062 0.69420 -0.45900
N 	N 	0.75197 0.60654 0.76167 -0.21000
N 	N 	0.78384 0.53712 0.65351 -0.21200
N 	N 	0.74493 0.65205 0.81653 -0.08600
C 	C 	0.77060 0.64021 0.78123 0.08900
H 	H 	0.79780 0.65430 0.77240 0.04600
C 	C 	0.81732 0.54077 0.62590 0.08700
H 	H 	0.83870 0.56440 0.62550 0.07400
Cu	Cu	0.98487 0.67448 0.20426 0.85900
Cl	Cl	0.92425 0.62938 0.19420 -0.45900
N 	N 	0.99803 0.64346 0.26167 -0.21000
N 	N 	0.96616 0.71288 0.15351 -0.21200
N 	N 	0.00507 0.59795 0.31653 -0.08600
C 	C 	0.97940 0.60979 0.28123 0.08900
H 	H 	0.95220 0.59570 0.27240 0.04600
C 	C 	0.93268 0.70923 0.12590 0.08700
H 	H 	0.91130 0.68560 0.12550 0.07400
Cu	Cu	0.48487 0.07552 0.04574 0.85900
Cl	Cl	0.42425 0.12062 0.05580 -0.45800
N 	N 	0.49803 0.10654 0.98833 -0.21000
N 	N 	0.46616 0.03712 0.09649 -0.21200
N 	N 	0.50507 0.15205 0.93347 -0.08600
C 	C 	0.47940 0.14021 0.96877 0.08900
H 	H 	0.45220 0.15430 0.97760 0.04600
C 	C 	0.43268 0.04077 0.12410 0.08700
H 	H 	0.41130 0.06440 0.12450 0.07400
O 	O 	0.97396 0.47396 0.47396 -0.72300
H 	H 	0.99030 0.49030 0.49030 0.15900
O 	O 	0.77604 0.77604 0.97396 -0.72300
H 	H 	0.75970 0.75970 0.99030 0.15900
O 	O 	0.27604 0.97396 0.27604 -0.72300
H 	H 	0.25970 0.99030 0.25970 0.15800
O 	O 	0.47396 0.27604 0.77604 -0.72300
H 	H 	0.49030 0.25970 0.75970 0.15800
O 	O 	0.72396 0.52604 0.72396 -0.72300
H 	H 	0.74030 0.50970 0.74030 0.15800
O 	O 	0.22396 0.22396 0.52604 -0.72300
H 	H 	0.24030 0.24030 0.50970 0.15800
O 	O 	0.02604 0.72396 0.22396 -0.72300
H 	H 	0.00970 0.74030 0.24030 0.15800
O 	O 	0.52604 0.02604 0.02604 -0.72300
H 	H 	0.50970 0.00970 0.00970 0.15900
Cu	Cu	0.95426 0.92448 0.01513 0.85800
Cl	Cl	0.94420 0.87938 0.07575 -0.45900
N 	N 	0.01167 0.89346 0.00197 -0.21000
N 	N 	0.90351 0.96288 0.03384 -0.21200
N 	N 	0.06653 0.84795 0.99493 -0.08600
C 	C 	0.03123 0.85979 0.02060 0.08900
H 	H 	0.02240 0.84570 0.04780 0.04600
C 	C 	0.87590 0.95923 0.06732 0.08700
H 	H 	0.87550 0.93560 0.08870 0.07400
Cu	Cu	0.79574 0.32552 0.51513 0.85900
Cl	Cl	0.80580 0.37062 0.57575 -0.45900
N 	N 	0.73833 0.35654 0.50197 -0.21000
N 	N 	0.84649 0.28712 0.53384 -0.21200
N 	N 	0.68347 0.40205 0.49493 -0.08600
C 	C 	0.71877 0.39021 0.52060 0.08900
H 	H 	0.72760 0.40430 0.54780 0.04600
C 	C 	0.87410 0.29077 0.56732 0.08700
H 	H 	0.87450 0.31440 0.58870 0.07400
Cu	Cu	0.29574 0.42448 0.73487 0.85900
Cl	Cl	0.30580 0.37938 0.67425 -0.45900
N 	N 	0.23833 0.39346 0.74803 -0.21000
N 	N 	0.34649 0.46288 0.71616 -0.21200
N 	N 	0.18347 0.34795 0.75507 -0.08600
C 	C 	0.21877 0.35979 0.72940 0.08900
H 	H 	0.22760 0.34570 0.70220 0.04600
C 	C 	0.37410 0.45923 0.68268 0.08700
H 	H 	0.37450 0.43560 0.66130 0.07400
Cu	Cu	0.45426 0.82552 0.23487 0.85900
Cl	Cl	0.44420 0.87062 0.17425 -0.45900
N 	N 	0.51167 0.85654 0.24803 -0.21000
N 	N 	0.40351 0.78712 0.21616 -0.21200
N 	N 	0.56653 0.90205 0.25507 -0.08600
C 	C 	0.53123 0.89021 0.22940 0.08900
H 	H 	0.52240 0.90430 0.20220 0.04600
C 	C 	0.37590 0.79077 0.18268 0.08700
H 	H 	0.37550 0.81440 0.16130 0.07400
Cu	Cu	0.01513 0.95426 0.92448 0.85800
Cl	Cl	0.07575 0.94420 0.87938 -0.45900
N 	N 	0.00197 0.01167 0.89346 -0.21000
N 	N 	0.03384 0.90351 0.96288 -0.21200
N 	N 	0.99493 0.06653 0.84795 -0.08600
C 	C 	0.02060 0.03123 0.85979 0.08900
H 	H 	0.04780 0.02240 0.84570 0.04600
C 	C 	0.06732 0.87590 0.95923 0.08700
H 	H 	0.08870 0.87550 0.93560 0.07400
Cu	Cu	0.51513 0.79574 0.32552 0.85900
Cl	Cl	0.57575 0.80580 0.37062 -0.45900
N 	N 	0.50197 0.73833 0.35654 -0.21000
N 	N 	0.53384 0.84649 0.28712 -0.21200
N 	N 	0.49493 0.68347 0.40205 -0.08600
C 	C 	0.52060 0.71877 0.39021 0.08900
H 	H 	0.54780 0.72760 0.40430 0.04600
C 	C 	0.56732 0.87410 0.29077 0.08700
H 	H 	0.58870 0.87450 0.31440 0.07400
Cu	Cu	0.73487 0.29574 0.42448 0.85900
Cl	Cl	0.67425 0.30580 0.37938 -0.45900
N 	N 	0.74803 0.23833 0.39346 -0.21000
N 	N 	0.71616 0.34649 0.46288 -0.21200
N 	N 	0.75507 0.18347 0.34795 -0.08600
C 	C 	0.72940 0.21877 0.35979 0.08900
H 	H 	0.70220 0.22760 0.34570 0.04600
C 	C 	0.68268 0.37410 0.45923 0.08700
H 	H 	0.66130 0.37450 0.43560 0.07400
Cu	Cu	0.23487 0.45426 0.82552 0.85900
Cl	Cl	0.17425 0.44420 0.87062 -0.45900
N 	N 	0.24803 0.51167 0.85654 -0.21000
N 	N 	0.21616 0.40351 0.78712 -0.21200
N 	N 	0.25507 0.56653 0.90205 -0.08600
C 	C 	0.22940 0.53123 0.89021 0.08900
H 	H 	0.20220 0.52240 0.90430 0.04600
C 	C 	0.18268 0.37590 0.79077 0.08700
H 	H 	0.16130 0.37550 0.81440 0.07400
Cu	Cu	0.92448 0.01513 0.95426 0.85800
Cl	Cl	0.87938 0.07575 0.94420 -0.45900
N 	N 	0.89346 0.00197 0.01167 -0.21000
N 	N 	0.96288 0.03384 0.90351 -0.21200
N 	N 	0.84795 0.99493 0.06653 -0.08600
C 	C 	0.85979 0.02060 0.03123 0.08900
H 	H 	0.84570 0.04780 0.02240 0.04600
C 	C 	0.95923 0.06732 0.87590 0.08700
H 	H 	0.93560 0.08870 0.87550 0.07400
Cu	Cu	0.32552 0.51513 0.79574 0.85900
Cl	Cl	0.37062 0.57575 0.80580 -0.45900
N 	N 	0.35654 0.50197 0.73833 -0.21000
N 	N 	0.28712 0.53384 0.84649 -0.21200
N 	N 	0.40205 0.49493 0.68347 -0.08600
C 	C 	0.39021 0.52060 0.71877 0.08900
H 	H 	0.40430 0.54780 0.72760 0.04600
C 	C 	0.29077 0.56732 0.87410 0.08700
H 	H 	0.31440 0.58870 0.87450 0.07400
Cu	Cu	0.42448 0.73487 0.29574 0.85900
Cl	Cl	0.37938 0.67425 0.30580 -0.45900
N 	N 	0.39346 0.74803 0.23833 -0.21000
N 	N 	0.46288 0.71616 0.34649 -0.21200
N 	N 	0.34795 0.75507 0.18347 -0.08600
C 	C 	0.35979 0.72940 0.21877 0.08900
H 	H 	0.34570 0.70220 0.22760 0.04600
C 	C 	0.45923 0.68268 0.37410 0.08700
H 	H 	0.43560 0.66130 0.37450 0.07400
Cu	Cu	0.82552 0.23487 0.45426 0.85900
Cl	Cl	0.87062 0.17425 0.44420 -0.45900
N 	N 	0.85654 0.24803 0.51167 -0.21000
N 	N 	0.78712 0.21616 0.40351 -0.21200
N 	N 	0.90205 0.25507 0.56653 -0.08600
C 	C 	0.89021 0.22940 0.53123 0.08900
H 	H 	0.90430 0.20220 0.52240 0.04600
C 	C 	0.79077 0.18268 0.37590 0.08700
H 	H 	0.81440 0.16130 0.37550 0.07400
Cu	Cu	0.17448 0.70426 0.98487 0.85900
Cl	Cl	0.12938 0.69420 0.92425 -0.45900
N 	N 	0.14346 0.76167 0.99803 -0.21000
N 	N 	0.21288 0.65351 0.96616 -0.21200
N 	N 	0.09795 0.81653 0.00507 -0.08600
C 	C 	0.10979 0.78123 0.97940 0.08900
H 	H 	0.09570 0.77240 0.95220 0.04600
C 	C 	0.20923 0.62590 0.93268 0.08700
H 	H 	0.18560 0.62550 0.91130 0.07400
Cu	Cu	0.57552 0.54574 0.48487 0.85900
Cl	Cl	0.62062 0.55580 0.42425 -0.45900
N 	N 	0.60654 0.48833 0.49803 -0.21000
N 	N 	0.53712 0.59649 0.46616 -0.21200
N 	N 	0.65205 0.43347 0.50507 -0.08600
C 	C 	0.64021 0.46877 0.47940 0.08900
H 	H 	0.65430 0.47760 0.45220 0.04600
C 	C 	0.54077 0.62410 0.43268 0.08700
H 	H 	0.56440 0.62450 0.41130 0.07400
Cu	Cu	0.67448 0.04574 0.26513 0.85900
Cl	Cl	0.62938 0.05580 0.32575 -0.45900
N 	N 	0.64346 0.98833 0.25197 -0.21000
N 	N 	0.71288 0.09649 0.28384 -0.21200
N 	N 	0.59795 0.93347 0.24493 -0.08600
C 	C 	0.60979 0.96877 0.27060 0.08900
H 	H 	0.59570 0.97760 0.29780 0.04600
C 	C 	0.70923 0.12410 0.31732 0.08700
H 	H 	0.68560 0.12450 0.33870 0.07400
Cu	Cu	0.07552 0.20426 0.76513 0.85900
Cl	Cl	0.12062 0.19420 0.82575 -0.45900
N 	N 	0.10654 0.26167 0.75197 -0.21000
N 	N 	0.03712 0.15351 0.78384 -0.21200
N 	N 	0.15205 0.31653 0.74493 -0.08600
C 	C 	0.14021 0.28123 0.77060 0.08900
H 	H 	0.15430 0.27240 0.79780 0.04600
C 	C 	0.04077 0.12590 0.81732 0.08700
H 	H 	0.06440 0.12550 0.83870 0.07400
Cu	Cu	0.20426 0.76513 0.07552 0.85900
Cl	Cl	0.19420 0.82575 0.12062 -0.45900
N 	N 	0.26167 0.75197 0.10654 -0.21000
N 	N 	0.15351 0.78384 0.03712 -0.21200
N 	N 	0.31653 0.74493 0.15205 -0.08600
C 	C 	0.28123 0.77060 0.14021 0.08900
H 	H 	0.27240 0.79780 0.15430 0.04600
C 	C 	0.12590 0.81732 0.04077 0.08700
H 	H 	0.12550 0.83870 0.06440 0.07400
Cu	Cu	0.04574 0.26513 0.67448 0.85900
Cl	Cl	0.05580 0.32575 0.62938 -0.45900
N 	N 	0.98833 0.25197 0.64346 -0.21000
N 	N 	0.09649 0.28384 0.71288 -0.21200
N 	N 	0.93347 0.24493 0.59795 -0.08600
C 	C 	0.96877 0.27060 0.60979 0.08900
H 	H 	0.97760 0.29780 0.59570 0.04600
C 	C 	0.12410 0.31732 0.70923 0.08700
H 	H 	0.12450 0.33870 0.68560 0.07400
Cu	Cu	0.54574 0.48487 0.57552 0.85900
Cl	Cl	0.55580 0.42425 0.62062 -0.45900
N 	N 	0.48833 0.49803 0.60654 -0.21000
N 	N 	0.59649 0.46616 0.53712 -0.21200
N 	N 	0.43347 0.50507 0.65205 -0.08600
C 	C 	0.46877 0.47940 0.64021 0.08900
H 	H 	0.47760 0.45220 0.65430 0.04600
C 	C 	0.62410 0.43268 0.54077 0.08700
H 	H 	0.62450 0.41130 0.56440 0.07400
Cu	Cu	0.70426 0.98487 0.17448 0.85900
Cl	Cl	0.69420 0.92425 0.12938 -0.45900
N 	N 	0.76167 0.99803 0.14346 -0.21000
N 	N 	0.65351 0.96616 0.21288 -0.21200
N 	N 	0.81653 0.00507 0.09795 -0.08600
C 	C 	0.78123 0.97940 0.10979 0.08900
H 	H 	0.77240 0.95220 0.09570 0.04600
C 	C 	0.62590 0.93268 0.20923 0.08700
H 	H 	0.62550 0.91130 0.18560 0.07400
Cu	Cu	0.26513 0.67448 0.04574 0.85900
Cl	Cl	0.32575 0.62938 0.05580 -0.45900
N 	N 	0.25197 0.64346 0.98833 -0.21000
N 	N 	0.28384 0.71288 0.09649 -0.21200
N 	N 	0.24493 0.59795 0.93347 -0.08600
C 	C 	0.27060 0.60979 0.96877 0.08900
H 	H 	0.29780 0.59570 0.97760 0.04600
C 	C 	0.31732 0.70923 0.12410 0.08700
H 	H 	0.33870 0.68560 0.12450 0.07400
Cu	Cu	0.76513 0.07552 0.20426 0.85900
Cl	Cl	0.82575 0.12062 0.19420 -0.45900
N 	N 	0.75197 0.10654 0.26167 -0.21000
N 	N 	0.78384 0.03712 0.15351 -0.21200
N 	N 	0.74493 0.15205 0.31653 -0.08600
C 	C 	0.77060 0.14021 0.28123 0.08900
H 	H 	0.79780 0.15430 0.27240 0.04600
C 	C 	0.81732 0.04077 0.12590 0.08700
H 	H 	0.83870 0.06440 0.12550 0.07400
Cu	Cu	0.98487 0.17448 0.70426 0.85900
Cl	Cl	0.92425 0.12938 0.69420 -0.45900
N 	N 	0.99803 0.14346 0.76167 -0.21000
N 	N 	0.96616 0.21288 0.65351 -0.21200
N 	N 	0.00507 0.09795 0.81653 -0.08600
C 	C 	0.97940 0.10979 0.78123 0.08900
H 	H 	0.95220 0.09570 0.77240 0.04600
C 	C 	0.93268 0.20923 0.62590 0.08700
H 	H 	0.91130 0.18560 0.62550 0.07400
Cu	Cu	0.48487 0.57552 0.54574 0.85900
Cl	Cl	0.42425 0.62062 0.55580 -0.45900
N 	N 	0.49803 0.60654 0.48833 -0.21000
N 	N 	0.46616 0.53712 0.59649 -0.21200
N 	N 	0.50507 0.65205 0.43347 -0.08600
C 	C 	0.47940 0.64021 0.46877 0.08900
H 	H 	0.45220 0.65430 0.47760 0.04600
C 	C 	0.43268 0.54077 0.62410 0.08700
H 	H 	0.41130 0.56440 0.62450 0.07400
O 	O 	0.97396 0.97396 0.97396 -0.72200
H 	H 	0.99030 0.99030 0.99030 0.15900
O 	O 	0.77604 0.27604 0.47396 -0.72300
H 	H 	0.75970 0.25970 0.49030 0.15800
O 	O 	0.27604 0.47396 0.77604 -0.72300
H 	H 	0.25970 0.49030 0.75970 0.15800
O 	O 	0.47396 0.77604 0.27604 -0.72300
H 	H 	0.49030 0.75970 0.25970 0.15800
O 	O 	0.22396 0.72396 0.02604 -0.72300
H 	H 	0.24030 0.74030 0.00970 0.15800
O 	O 	0.02604 0.22396 0.72396 -0.72300
H 	H 	0.00970 0.24030 0.74030 0.15800
O 	O 	0.52604 0.52604 0.52604 -0.72300
H 	H 	0.50970 0.50970 0.50970 0.15800
O 	O 	0.72396 0.02604 0.22396 -0.72300
H 	H 	0.74030 0.00970 0.24030 0.15800
Cu	Cu	0.45426 0.42448 0.01513 0.85900
Cl	Cl	0.44420 0.37938 0.07575 -0.45900
N 	N 	0.51167 0.39346 0.00197 -0.21000
N 	N 	0.40351 0.46288 0.03384 -0.21200
N 	N 	0.56653 0.34795 0.99493 -0.08600
C 	C 	0.53123 0.35979 0.02060 0.08900
H 	H 	0.52240 0.34570 0.04780 0.04600
C 	C 	0.37590 0.45923 0.06732 0.08700
H 	H 	0.37550 0.43560 0.08870 0.07400
Cu	Cu	0.29574 0.82552 0.51513 0.85900
Cl	Cl	0.30580 0.87062 0.57575 -0.45900
N 	N 	0.23833 0.85654 0.50197 -0.21000
N 	N 	0.34649 0.78712 0.53384 -0.21200
N 	N 	0.18347 0.90205 0.49493 -0.08600
C 	C 	0.21877 0.89021 0.52060 0.08900
H 	H 	0.22760 0.90430 0.54780 0.04600
C 	C 	0.37410 0.79077 0.56732 0.08700
H 	H 	0.37450 0.81440 0.58870 0.07400
Cu	Cu	0.79574 0.92448 0.73487 0.85900
Cl	Cl	0.80580 0.87938 0.67425 -0.45900
N 	N 	0.73833 0.89346 0.74803 -0.21000
N 	N 	0.84649 0.96288 0.71616 -0.21100
N 	N 	0.68347 0.84795 0.75507 -0.08600
C 	C 	0.71877 0.85979 0.72940 0.08900
H 	H 	0.72760 0.84570 0.70220 0.04600
C 	C 	0.87410 0.95923 0.68268 0.08700
H 	H 	0.87450 0.93560 0.66130 0.07400
Cu	Cu	0.95426 0.32552 0.23487 0.85900
Cl	Cl	0.94420 0.37062 0.17425 -0.45900
N 	N 	0.01167 0.35654 0.24803 -0.21000
N 	N 	0.90351 0.28712 0.21616 -0.21200
N 	N 	0.06653 0.40205 0.25507 -0.08600
C 	C 	0.03123 0.39021 0.22940 0.08900
H 	H 	0.02240 0.40430 0.20220 0.04600
C 	C 	0.87590 0.29077 0.18268 0.08700
H 	H 	0.87550 0.31440 0.16130 0.07400
Cu	Cu	0.51513 0.45426 0.92448 0.85900
Cl	Cl	0.57575 0.44420 0.87938 -0.45900
N 	N 	0.50197 0.51167 0.89346 -0.21000
N 	N 	0.53384 0.40351 0.96288 -0.21200
N 	N 	0.49493 0.56653 0.84795 -0.08600
C 	C 	0.52060 0.53123 0.85979 0.08900
H 	H 	0.54780 0.52240 0.84570 0.04600
C 	C 	0.56732 0.37590 0.95923 0.08700
H 	H 	0.58870 0.37550 0.93560 0.07400
Cu	Cu	0.01513 0.29574 0.32552 0.85900
Cl	Cl	0.07575 0.30580 0.37062 -0.45900
N 	N 	0.00197 0.23833 0.35654 -0.21000
N 	N 	0.03384 0.34649 0.28712 -0.21200
N 	N 	0.99493 0.18347 0.40205 -0.08600
C 	C 	0.02060 0.21877 0.39021 0.08900
H 	H 	0.04780 0.22760 0.40430 0.04600
C 	C 	0.06732 0.37410 0.29077 0.08700
H 	H 	0.08870 0.37450 0.31440 0.07400
Cu	Cu	0.23487 0.79574 0.42448 0.85900
Cl	Cl	0.17425 0.80580 0.37938 -0.45900
N 	N 	0.24803 0.73833 0.39346 -0.21000
N 	N 	0.21616 0.84649 0.46288 -0.21200
N 	N 	0.25507 0.68347 0.34795 -0.08600
C 	C 	0.22940 0.71877 0.35979 0.08900
H 	H 	0.20220 0.72760 0.34570 0.04600
C 	C 	0.18268 0.87410 0.45923 0.08700
H 	H 	0.16130 0.87450 0.43560 0.07400
Cu	Cu	0.73487 0.95426 0.82552 0.85900
Cl	Cl	0.67425 0.94420 0.87062 -0.45800
N 	N 	0.74803 0.01167 0.85654 -0.21000
N 	N 	0.71616 0.90351 0.78712 -0.21200
N 	N 	0.75507 0.06653 0.90205 -0.08600
C 	C 	0.72940 0.03123 0.89021 0.08900
H 	H 	0.70220 0.02240 0.90430 0.04600
C 	C 	0.68268 0.87590 0.79077 0.08700
H 	H 	0.66130 0.87550 0.81440 0.07400
Cu	Cu	0.42448 0.51513 0.95426 0.85900
Cl	Cl	0.37938 0.57575 0.94420 -0.45900
N 	N 	0.39346 0.50197 0.01167 -0.21000
N 	N 	0.46288 0.53384 0.90351 -0.21200
N 	N 	0.34795 0.49493 0.06653 -0.08600
C 	C 	0.35979 0.52060 0.03123 0.08900
H 	H 	0.34570 0.54780 0.02240 0.04600
C 	C 	0.45923 0.56732 0.87590 0.08700
H 	H 	0.43560 0.58870 0.87550 0.07400
Cu	Cu	0.82552 0.01513 0.79574 0.85900
Cl	Cl	0.87062 0.07575 0.80580 -0.45900
N 	N 	0.85654 0.00197 0.73833 -0.21000
N 	N 	0.78712 0.03384 0.84649 -0.21200
N 	N 	0.90205 0.99493 0.68347 -0.08500
C 	C 	0.89021 0.02060 0.71877 0.08800
H 	H 	0.90430 0.04780 0.72760 0.04600
C 	C 	0.79077 0.06732 0.87410 0.08700
H 	H 	0.81440 0.08870 0.87450 0.07400
Cu	Cu	0.92448 0.23487 0.29574 0.85900
Cl	Cl	0.87938 0.17425 0.30580 -0.45900
N 	N 	0.89346 0.24803 0.23833 -0.21000
N 	N 	0.96288 0.21616 0.34649 -0.21200
N 	N 	0.84795 0.25507 0.18347 -0.08600
C 	C 	0.85979 0.22940 0.21877 0.08900
H 	H 	0.84570 0.20220 0.22760 0.04600
C 	C 	0.95923 0.18268 0.37410 0.08700
H 	H 	0.93560 0.16130 0.37450 0.07400
Cu	Cu	0.32552 0.73487 0.45426 0.85900
Cl	Cl	0.37062 0.67425 0.44420 -0.45900
N 	N 	0.35654 0.74803 0.51167 -0.21000
N 	N 	0.28712 0.71616 0.40351 -0.21200
N 	N 	0.40205 0.75507 0.56653 -0.08600
C 	C 	0.39021 0.72940 0.53123 0.08900
H 	H 	0.40430 0.70220 0.52240 0.04600
C 	C 	0.29077 0.68268 0.37590 0.08700
H 	H 	0.31440 0.66130 0.37550 0.07400
Cu	Cu	0.67448 0.20426 0.98487 0.85900
Cl	Cl	0.62938 0.19420 0.92425 -0.45900
N 	N 	0.64346 0.26167 0.99803 -0.21000
N 	N 	0.71288 0.15351 0.96616 -0.21200
N 	N 	0.59795 0.31653 0.00507 -0.08600
C 	C 	0.60979 0.28123 0.97940 0.08900
H 	H 	0.59570 0.27240 0.95220 0.04600
C 	C 	0.70923 0.12590 0.93268 0.08700
H 	H 	0.68560 0.12550 0.91130 0.07400
Cu	Cu	0.07552 0.04574 0.48487 0.85900
Cl	Cl	0.12062 0.05580 0.42425 -0.45800
N 	N 	0.10654 0.98833 0.49803 -0.21000
N 	N 	0.03712 0.09649 0.46616 -0.21200
N 	N 	0.15205 0.93347 0.50507 -0.08600
C 	C 	0.14021 0.96877 0.47940 0.08900
H 	H 	0.15430 0.97760 0.45220 0.04600
C 	C 	0.04077 0.12410 0.43268 0.08700
H 	H 	0.06440 0.12450 0.41130 0.07400
Cu	Cu	0.17448 0.54574 0.26513 0.85900
Cl	Cl	0.12938 0.55580 0.32575 -0.45900
N 	N 	0.14346 0.48833 0.25197 -0.21000
N 	N 	0.21288 0.59649 0.28384 -0.21200
N 	N 	0.09795 0.43347 0.24493 -0.08600
C 	C 	0.10979 0.46877 0.27060 0.08900
H 	H 	0.09570 0.47760 0.29780 0.04600
C 	C 	0.20923 0.62410 0.31732 0.08700
H 	H 	0.18560 0.62450 0.33870 0.07400
Cu	Cu	0.57552 0.70426 0.76513 0.85900
Cl	Cl	0.62062 0.69420 0.82575 -0.45900
N 	N 	0.60654 0.76167 0.75197 -0.21000
N 	N 	0.53712 0.65351 0.78384 -0.21200
N 	N 	0.65205 0.81653 0.74493 -0.08600
C 	C 	0.64021 0.78123 0.77060 0.08900
H 	H 	0.65430 0.77240 0.79780 0.04600
C 	C 	0.54077 0.62590 0.81732 0.08700
H 	H 	0.56440 0.62550 0.83870 0.07400
Cu	Cu	0.70426 0.26513 0.07552 0.85900
Cl	Cl	0.69420 0.32575 0.12062 -0.45900
N 	N 	0.76167 0.25197 0.10654 -0.21000
N 	N 	0.65351 0.28384 0.03712 -0.21200
N 	N 	0.81653 0.24493 0.15205 -0.08600
C 	C 	0.78123 0.27060 0.14021 0.08900
H 	H 	0.77240 0.29780 0.15430 0.04600
C 	C 	0.62590 0.31732 0.04077 0.08700
H 	H 	0.62550 0.33870 0.06440 0.07400
Cu	Cu	0.54574 0.76513 0.67448 0.85900
Cl	Cl	0.55580 0.82575 0.62938 -0.45900
N 	N 	0.48833 0.75197 0.64346 -0.21000
N 	N 	0.59649 0.78384 0.71288 -0.21200
N 	N 	0.43347 0.74493 0.59795 -0.08600
C 	C 	0.46877 0.77060 0.60979 0.08900
H 	H 	0.47760 0.79780 0.59570 0.04600
C 	C 	0.62410 0.81732 0.70923 0.08700
H 	H 	0.62450 0.83870 0.68560 0.07400
Cu	Cu	0.04574 0.98487 0.57552 0.85800
Cl	Cl	0.05580 0.92425 0.62062 -0.45900
N 	N 	0.98833 0.99803 0.60654 -0.21000
N 	N 	0.09649 0.96616 0.53712 -0.21200
N 	N 	0.93347 0.00507 0.65205 -0.08600
C 	C 	0.96877 0.97940 0.64021 0.09000
H 	H 	0.97760 0.95220 0.65430 0.04600
C 	C 	0.12410 0.93268 0.54077 0.08700
H 	H 	0.12450 0.91130 0.56440 0.07400
Cu	Cu	0.20426 0.48487 0.17448 0.85900
Cl	Cl	0.19420 0.42425 0.12938 -0.45900
N 	N 	0.26167 0.49803 0.14346 -0.21000
N 	N 	0.15351 0.46616 0.21288 -0.21200
N 	N 	0.31653 0.50507 0.09795 -0.08600
C 	C 	0.28123 0.47940 0.10979 0.08900
H 	H 	0.27240 0.45220 0.09570 0.04600
C 	C 	0.12590 0.43268 0.20923 0.08700
H 	H 	0.12550 0.41130 0.18560 0.07400
Cu	Cu	0.76513 0.17448 0.04574 0.85900
Cl	Cl	0.82575 0.12938 0.05580 -0.45900
N 	N 	0.75197 0.14346 0.98833 -0.21000
N 	N 	0.78384 0.21288 0.09649 -0.21200
N 	N 	0.74493 0.09795 0.93347 -0.08600
C 	C 	0.77060 0.10979 0.96877 0.08900
H 	H 	0.79780 0.09570 0.97760 0.04600
C 	C 	0.81732 0.20923 0.12410 0.08700
H 	H 	0.83870 0.18560 0.12450 0.07400
Cu	Cu	0.26513 0.57552 0.20426 0.85900
Cl	Cl	0.32575 0.62062 0.19420 -0.45900
N 	N 	0.25197 0.60654 0.26167 -0.21000
N 	N 	0.28384 0.53712 0.15351 -0.21200
N 	N 	0.24493 0.65205 0.31653 -0.08600
C 	C 	0.27060 0.64021 0.28123 0.08900
H 	H 	0.29780 0.65430 0.27240 0.04600
C 	C 	0.31732 0.54077 0.12590 0.08700
H 	H 	0.33870 0.56440 0.12550 0.07400
Cu	Cu	0.48487 0.67448 0.70426 0.85900
Cl	Cl	0.42425 0.62938 0.69420 -0.45900
N 	N 	0.49803 0.64346 0.76167 -0.21000
N 	N 	0.46616 0.71288 0.65351 -0.21200
N 	N 	0.50507 0.59795 0.81653 -0.08600
C 	C 	0.47940 0.60979 0.78123 0.08900
H 	H 	0.45220 0.59570 0.77240 0.04600
C 	C 	0.43268 0.70923 0.62590 0.08700
H 	H 	0.41130 0.68560 0.62550 0.07400
Cu	Cu	0.98487 0.07552 0.54574 0.85900
Cl	Cl	0.92425 0.12062 0.55580 -0.45900
N 	N 	0.99803 0.10654 0.48833 -0.21000
N 	N 	0.96616 0.03712 0.59649 -0.21200
N 	N 	0.00507 0.15205 0.43347 -0.08500
C 	C 	0.97940 0.14021 0.46877 0.08900
H 	H 	0.95220 0.15430 0.47760 0.04600
C 	C 	0.93268 0.04077 0.62410 0.08700
H 	H 	0.91130 0.06440 0.62450 0.07400
O 	O 	0.27604 0.77604 0.47396 -0.72300
H 	H 	0.25970 0.75970 0.49030 0.15800
O 	O 	0.47396 0.47396 0.97396 -0.72300
H 	H 	0.49030 0.49030 0.99030 0.15900
O 	O 	0.77604 0.97396 0.77604 -0.72300
H 	H 	0.75970 0.99030 0.75970 0.15900
O 	O 	0.97396 0.27604 0.27604 -0.72300
H 	H 	0.99030 0.25970 0.25970 0.15800
O 	O 	0.22396 0.52604 0.22396 -0.72300
H 	H 	0.24030 0.50970 0.24030 0.15800
O 	O 	0.52604 0.72396 0.72396 -0.72300
H 	H 	0.50970 0.74030 0.74030 0.15800
O 	O 	0.72396 0.22396 0.02604 -0.72300
H 	H 	0.74030 0.24030 0.00970 0.15800
O 	O 	0.02604 0.02604 0.52604 -0.72300
H 	H 	0.00970 0.00970 0.50970 0.15900
Cu	Cu	0.45426 0.92448 0.51513 0.85900
Cl	Cl	0.44420 0.87938 0.57575 -0.45900
N 	N 	0.51167 0.89346 0.50197 -0.21000
N 	N 	0.40351 0.96288 0.53384 -0.21200
N 	N 	0.56653 0.84795 0.49493 -0.08600
C 	C 	0.53123 0.85979 0.52060 0.08900
H 	H 	0.52240 0.84570 0.54780 0.04600
C 	C 	0.37590 0.95923 0.56732 0.08700
H 	H 	0.37550 0.93560 0.58870 0.07400
Cu	Cu	0.29574 0.32552 0.01513 0.85900
Cl	Cl	0.30580 0.37062 0.07575 -0.45900
N 	N 	0.23833 0.35654 0.00197 -0.21000
N 	N 	0.34649 0.28712 0.03384 -0.21200
N 	N 	0.18347 0.40205 0.99493 -0.08600
C 	C 	0.21877 0.39021 0.02060 0.08900
H 	H 	0.22760 0.40430 0.04780 0.04600
C 	C 	0.37410 0.29077 0.06732 0.08700
H 	H 	0.37450 0.31440 0.08870 0.07400
Cu	Cu	0.79574 0.42448 0.23487 0.85900
Cl	Cl	0.80580 0.37938 0.17425 -0.45900
N 	N 	0.73833 0.39346 0.24803 -0.21000
N 	N 	0.84649 0.46288 0.21616 -0.21200
N 	N 	0.68347 0.34795 0.25507 -0.08600
C 	C 	0.71877 0.35979 0.22940 0.08900
H 	H 	0.72760 0.34570 0.20220 0.04600
C 	C 	0.87410 0.45923 0.18268 0.08700
H 	H 	0.87450 0.43560 0.16130 0.07400
Cu	Cu	0.95426 0.82552 0.73487 0.85900
Cl	Cl	0.94420 0.87062 0.67425 -0.45800
N 	N 	0.01167 0.85654 0.74803 -0.21000
N 	N 	0.90351 0.78712 0.71616 -0.21200
N 	N 	0.06653 0.90205 0.75507 -0.08600
C 	C 	0.03123 0.89021 0.72940 0.08900
H 	H 	0.02240 0.90430 0.70220 0.04600
C 	C 	0.87590 0.79077 0.68268 0.08700
H 	H 	0.87550 0.81440 0.66130 0.07400
Cu	Cu	0.51513 0.95426 0.42448 0.85900
Cl	Cl	0.57575 0.94420 0.37938 -0.45900
N 	N 	0.50197 0.01167 0.39346 -0.21000
N 	N 	0.53384 0.90351 0.46288 -0.21200
N 	N 	0.49493 0.06653 0.34795 -0.08600
C 	C 	0.52060 0.03123 0.35979 0.08900
H 	H 	0.54780 0.02240 0.34570 0.04600
C 	C 	0.56732 0.87590 0.45923 0.08700
H 	H 	0.58870 0.87550 0.43560 0.07400
Cu	Cu	0.01513 0.79574 0.82552 0.85900
Cl	Cl	0.07575 0.80580 0.87062 -0.45900
N 	N 	0.00197 0.73833 0.85654 -0.21000
N 	N 	0.03384 0.84649 0.78712 -0.21200
N 	N 	0.99493 0.68347 0.90205 -0.08500
C 	C 	0.02060 0.71877 0.89021 0.08800
H 	H 	0.04780 0.72760 0.90430 0.04600
C 	C 	0.06732 0.87410 0.79077 0.08700
H 	H 	0.08870 0.87450 0.81440 0.07400
Cu	Cu	0.23487 0.29574 0.92448 0.85900
Cl	Cl	0.17425 0.30580 0.87938 -0.45900
N 	N 	0.24803 0.23833 0.89346 -0.21000
N 	N 	0.21616 0.34649 0.96288 -0.21200
N 	N 	0.25507 0.18347 0.84795 -0.08600
C 	C 	0.22940 0.21877 0.85979 0.08900
H 	H 	0.20220 0.22760 0.84570 0.04600
C 	C 	0.18268 0.37410 0.95923 0.08700
H 	H 	0.16130 0.37450 0.93560 0.07400
Cu	Cu	0.73487 0.45426 0.32552 0.85900
Cl	Cl	0.67425 0.44420 0.37062 -0.45900
N 	N 	0.74803 0.51167 0.35654 -0.21000
N 	N 	0.71616 0.40351 0.28712 -0.21200
N 	N 	0.75507 0.56653 0.40205 -0.08600
C 	C 	0.72940 0.53123 0.39021 0.08900
H 	H 	0.70220 0.52240 0.40430 0.04600
C 	C 	0.68268 0.37590 0.29077 0.08700
H 	H 	0.66130 0.37550 0.31440 0.07400
Cu	Cu	0.42448 0.01513 0.45426 0.85900
Cl	Cl	0.37938 0.07575 0.44420 -0.45900
N 	N 	0.39346 0.00197 0.51167 -0.21000
N 	N 	0.46288 0.03384 0.40351 -0.21200
N 	N 	0.34795 0.99493 0.56653 -0.08600
C 	C 	0.35979 0.02060 0.53123 0.08900
H 	H 	0.34570 0.04780 0.52240 0.04600
C 	C 	0.45923 0.06732 0.37590 0.08700
H 	H 	0.43560 0.08870 0.37550 0.07400
Cu	Cu	0.82552 0.51513 0.29574 0.85900
Cl	Cl	0.87062 0.57575 0.30580 -0.45900
N 	N 	0.85654 0.50197 0.23833 -0.21000
N 	N 	0.78712 0.53384 0.34649 -0.21200
N 	N 	0.90205 0.49493 0.18347 -0.08600
C 	C 	0.89021 0.52060 0.21877 0.08900
H 	H 	0.90430 0.54780 0.22760 0.04600
C 	C 	0.79077 0.56732 0.37410 0.08700
H 	H 	0.81440 0.58870 0.37450 0.07400
Cu	Cu	0.92448 0.73487 0.79574 0.85900
Cl	Cl	0.87938 0.67425 0.80580 -0.45900
N 	N 	0.89346 0.74803 0.73833 -0.21000
N 	N 	0.96288 0.71616 0.84649 -0.21100
N 	N 	0.84795 0.75507 0.68347 -0.08600
C 	C 	0.85979 0.72940 0.71877 0.08900
H 	H 	0.84570 0.70220 0.72760 0.04600
C 	C 	0.95923 0.68268 0.87410 0.08700
H 	H 	0.93560 0.66130 0.87450 0.07400
Cu	Cu	0.32552 0.23487 0.95426 0.85900
Cl	Cl	0.37062 0.17425 0.94420 -0.45900
N 	N 	0.35654 0.24803 0.01167 -0.21000
N 	N 	0.28712 0.21616 0.90351 -0.21200
N 	N 	0.40205 0.25507 0.06653 -0.08600
C 	C 	0.39021 0.22940 0.03123 0.08900
H 	H 	0.40430 0.20220 0.02240 0.04600
C 	C 	0.29077 0.18268 0.87590 0.08700
H 	H 	0.31440 0.16130 0.87550 0.07400
Cu	Cu	0.67448 0.70426 0.48487 0.85900
Cl	Cl	0.62938 0.69420 0.42425 -0.45900
N 	N 	0.64346 0.76167 0.49803 -0.21000
N 	N 	0.71288 0.65351 0.46616 -0.21200
N 	N 	0.59795 0.81653 0.50507 -0.08600
C 	C 	0.60979 0.78123 0.47940 0.08900
H 	H 	0.59570 0.77240 0.45220 0.04600
C 	C 	0.70923 0.62590 0.43268 0.08700
H 	H 	0.68560 0.62550 0.41130 0.07400
Cu	Cu	0.07552 0.54574 0.98487 0.85900
Cl	Cl	0.12062 0.55580 0.92425 -0.45900
N 	N 	0.10654 0.48833 0.99803 -0.21000
N 	N 	0.03712 0.59649 0.96616 -0.21200
N 	N 	0.15205 0.43347 0.00507 -0.08500
C 	C 	0.14021 0.46877 0.97940 0.08900
H 	H 	0.15430 0.47760 0.95220 0.04600
C 	C 	0.04077 0.62410 0.93268 0.08700
H 	H 	0.06440 0.62450 0.91130 0.07400
Cu	Cu	0.17448 0.04574 0.76513 0.85900
Cl	Cl	0.12938 0.05580 0.82575 -0.45900
N 	N 	0.14346 0.98833 0.75197 -0.21000
N 	N 	0.21288 0.09649 0.78384 -0.21200
N 	N 	0.09795 0.93347 0.74493 -0.08600
C 	C 	0.10979 0.96877 0.77060 0.08900
H 	H 	0.09570 0.97760 0.79780 0.04600
C 	C 	0.20923 0.12410 0.81732 0.08700
H 	H 	0.18560 0.12450 0.83870 0.07400
Cu	Cu	0.57552 0.20426 0.26513 0.85900
Cl	Cl	0.62062 0.19420 0.32575 -0.45900
N 	N 	0.60654 0.26167 0.25197 -0.21000
N 	N 	0.53712 0.15351 0.28384 -0.21200
N 	N 	0.65205 0.31653 0.24493 -0.08600
C 	C 	0.64021 0.28123 0.27060 0.08900
H 	H 	0.65430 0.27240 0.29780 0.04600
C 	C 	0.54077 0.12590 0.31732 0.08700
H 	H 	0.56440 0.12550 0.33870 0.07400
Cu	Cu	0.70426 0.76513 0.57552 0.85900
Cl	Cl	0.69420 0.82575 0.62062 -0.45900
N 	N 	0.76167 0.75197 0.60654 -0.21000
N 	N 	0.65351 0.78384 0.53712 -0.21200
N 	N 	0.81653 0.74493 0.65205 -0.08600
C 	C 	0.78123 0.77060 0.64021 0.08900
H 	H 	0.77240 0.79780 0.65430 0.04600
C 	C 	0.62590 0.81732 0.54077 0.08700
H 	H 	0.62550 0.83870 0.56440 0.07400
Cu	Cu	0.54574 0.26513 0.17448 0.85900
Cl	Cl	0.55580 0.32575 0.12938 -0.45900
N 	N 	0.48833 0.25197 0.14346 -0.21000
N 	N 	0.59649 0.28384 0.21288 -0.21200
N 	N 	0.43347 0.24493 0.09795 -0.08600
C 	C 	0.46877 0.27060 0.10979 0.08900
H 	H 	0.47760 0.29780 0.09570 0.04600
C 	C 	0.62410 0.31732 0.20923 0.08700
H 	H 	0.62450 0.33870 0.18560 0.07400
Cu	Cu	0.04574 0.48487 0.07552 0.85900
Cl	Cl	0.05580 0.42425 0.12062 -0.45800
N 	N 	0.98833 0.49803 0.10654 -0.21000
N 	N 	0.09649 0.46616 0.03712 -0.21200
N 	N 	0.93347 0.50507 0.15205 -0.08600
C 	C 	0.96877 0.47940 0.14021 0.08900
H 	H 	0.97760 0.45220 0.15430 0.04600
C 	C 	0.12410 0.43268 0.04077 0.08700
H 	H 	0.12450 0.41130 0.06440 0.07400
Cu	Cu	0.20426 0.98487 0.67448 0.85900
Cl	Cl	0.19420 0.92425 0.62938 -0.45900
N 	N 	0.26167 0.99803 0.64346 -0.21000
N 	N 	0.15351 0.96616 0.71288 -0.21200
N 	N 	0.31653 0.00507 0.59795 -0.08600
C 	C 	0.28123 0.97940 0.60979 0.08900
H 	H 	0.27240 0.95220 0.59570 0.04600
C 	C 	0.12590 0.93268 0.70923 0.08700
H 	H 	0.12550 0.91130 0.68560 0.07400
Cu	Cu	0.76513 0.67448 0.54574 0.85900
Cl	Cl	0.82575 0.62938 0.55580 -0.45900
N 	N 	0.75197 0.64346 0.48833 -0.21000
N 	N 	0.78384 0.71288 0.59649 -0.21200
N 	N 	0.74493 0.59795 0.43347 -0.08600
C 	C 	0.77060 0.60979 0.46877 0.08900
H 	H 	0.79780 0.59570 0.47760 0.04600
C 	C 	0.81732 0.70923 0.62410 0.08700
H 	H 	0.83870 0.68560 0.62450 0.07400
Cu	Cu	0.26513 0.07552 0.70426 0.85900
Cl	Cl	0.32575 0.12062 0.69420 -0.45900
N 	N 	0.25197 0.10654 0.76167 -0.21000
N 	N 	0.28384 0.03712 0.65351 -0.21200
N 	N 	0.24493 0.15205 0.81653 -0.08600
C 	C 	0.27060 0.14021 0.78123 0.08900
H 	H 	0.29780 0.15430 0.77240 0.04600
C 	C 	0.31732 0.04077 0.62590 0.08700
H 	H 	0.33870 0.06440 0.62550 0.07400
Cu	Cu	0.48487 0.17448 0.20426 0.85900
Cl	Cl	0.42425 0.12938 0.19420 -0.45900
N 	N 	0.49803 0.14346 0.26167 -0.21000
N 	N 	0.46616 0.21288 0.15351 -0.21200
N 	N 	0.50507 0.09795 0.31653 -0.08600
C 	C 	0.47940 0.10979 0.28123 0.08900
H 	H 	0.45220 0.09570 0.27240 0.04600
C 	C 	0.43268 0.20923 0.12590 0.08700
H 	H 	0.41130 0.18560 0.12550 0.07400
Cu	Cu	0.98487 0.57552 0.04574 0.85800
Cl	Cl	0.92425 0.62062 0.05580 -0.45900
N 	N 	0.99803 0.60654 0.98833 -0.21000
N 	N 	0.96616 0.53712 0.09649 -0.21200
N 	N 	0.00507 0.65205 0.93347 -0.08600
C 	C 	0.97940 0.64021 0.96877 0.09000
H 	H 	0.95220 0.65430 0.97760 0.04600
C 	C 	0.93268 0.54077 0.12410 0.08700
H 	H 	0.91130 0.56440 0.12450 0.07400
O 	O 	0.77604 0.47396 0.27604 -0.72300
H 	H 	0.75970 0.49030 0.25970 0.15800
O 	O 	0.47396 0.97396 0.47396 -0.72300
H 	H 	0.49030 0.99030 0.49030 0.15900
O 	O 	0.97396 0.77604 0.77604 -0.72300
H 	H 	0.99030 0.75970 0.75970 0.15900
O 	O 	0.27604 0.27604 0.97396 -0.72300
H 	H 	0.25970 0.25970 0.99030 0.15800
O 	O 	0.72396 0.72396 0.52604 -0.72300
H 	H 	0.74030 0.74030 0.50970 0.15800
O 	O 	0.02604 0.52604 0.02604 -0.72300
H 	H 	0.00970 0.50970 0.00970 0.15900
O 	O 	0.22396 0.02604 0.72396 -0.72300
H 	H 	0.24030 0.00970 0.74030 0.15800
O 	O 	0.52604 0.22396 0.22396 -0.72300
H 	H 	0.50970 0.24030 0.24030 0.15800
