data_crystal

_cell_length_a 16.30800
_cell_length_b 10.51700
_cell_length_c 22.98600
_cell_angle_alpha 90.00000
_cell_angle_beta  104.44400
_cell_angle_gamma 90.00000

_symmetry_space_group_name_	'P 1'
_symmetry_space_group_name_H-M	'P 1'

loop_
_symmetry_equiv_pos_as_xyz
  x,y,z

loop_
_atom_site_label
_atom_site_type_symbol
_atom_site_fract_x
_atom_site_fract_y
_atom_site_fract_z
_atom_site_charge
Zn	Zn	0.78595 0.17571 0.74810 1.12300
Zn	Zn	0.88092 0.67251 0.75114 1.12400
Zn	Zn	0.44981 0.16857 0.75536 1.12500
S 	S 	0.71138 0.47445 0.71231 0.83400
C 	C 	0.57960 0.05150 0.50220 0.00600
C 	C 	0.56730 0.91900 0.49830 0.00200
C 	C 	0.48670 0.87020 0.49710 -0.00100
C 	C 	0.66500 0.10530 0.50130 -0.11400
H 	H 	0.69170 0.05040 0.47740 0.08700
H 	H 	0.65750 0.18840 0.48230 0.08700
C 	C 	0.70390 0.13180 0.61530 0.11000
H 	H 	0.64950 0.12970 0.62130 -0.04500
C 	C 	0.83350 0.14890 0.62820 0.09500
H 	H 	0.89030 0.16160 0.64730 -0.07200
C 	C 	0.64010 0.83440 0.49410 -0.10600
H 	H 	0.69280 0.87140 0.51690 0.08500
H 	H 	0.63370 0.75190 0.51130 0.07900
C 	C 	0.58600 0.82940 0.38140 0.11700
H 	H 	0.52940 0.84580 0.37960 -0.05400
C 	C 	0.47240 0.72590 0.49500 -0.10300
H 	H 	0.41620 0.70720 0.47030 0.08100
H 	H 	0.51330 0.68550 0.47670 0.08000
C 	C 	0.50990 0.72480 0.60900 0.10900
H 	H 	0.53100 0.80720 0.61550 -0.05300
C 	C 	0.47380 0.54150 0.61990 0.11500
H 	H 	0.46390 0.46640 0.63840 -0.05100
C 	C 	0.00290 0.63260 0.49980 0.00000
C 	C 	0.92710 0.57120 0.50090 0.00200
C 	C 	0.92390 0.43690 0.50060 -0.00200
C 	C 	0.00410 0.78000 0.49910 -0.10700
H 	H 	0.97340 0.81230 0.52710 0.08600
H 	H 	0.06210 0.80980 0.51200 0.08000
C 	C 	0.95230 0.77770 0.38670 0.09400
H 	H 	0.96500 0.69360 0.38000 -0.05700
C 	C 	0.91410 0.96420 0.37550 0.10900
H 	H 	0.89420 0.04110 0.35740 -0.04000
C 	C 	0.85020 0.64670 0.50510 -0.11100
H 	H 	0.84360 0.71840 0.47780 0.09100
H 	H 	0.80020 0.59360 0.49270 0.07800
C 	C 	0.85680 0.63140 0.61520 0.09400
H 	H 	0.85160 0.54360 0.61760 -0.02500
C 	C 	0.86680 0.82410 0.63490 0.07500
H 	H 	0.87120 0.90030 0.65600 -0.07100
C 	C 	0.84210 0.37020 0.49490 -0.10500
H 	H 	0.85140 0.29140 0.51760 0.07900
H 	H 	0.80410 0.42300 0.51100 0.07400
C 	C 	0.83180 0.35910 0.38370 0.08700
H 	H 	0.88380 0.39520 0.38360 -0.05200
C 	C 	0.71300 0.27800 0.35850 0.10300
H 	H 	0.66350 0.24280 0.33490 -0.05600
N 	N 	0.77170 0.14950 0.65750 -0.32400
N 	N 	0.72140 0.11720 0.56290 -0.09000
N 	N 	0.80670 0.12880 0.57040 -0.10000
N 	N 	0.50540 0.64650 0.65130 -0.31000
N 	N 	0.48110 0.67420 0.55540 -0.08700
N 	N 	0.45810 0.55290 0.56190 -0.09500
N 	N 	0.91890 0.85820 0.34400 -0.31500
N 	N 	0.96550 0.82880 0.43900 -0.08700
N 	N 	0.93920 0.95080 0.43310 -0.09800
N 	N 	0.86510 0.70890 0.66090 -0.32200
N 	N 	0.85660 0.69300 0.56590 -0.08900
N 	N 	0.86180 0.81820 0.57770 -0.09900
N 	N 	0.77750 0.31830 0.33580 -0.31900
N 	N 	0.80430 0.34310 0.43160 -0.08700
N 	N 	0.72640 0.29300 0.41580 -0.10600
O 	O 	0.70460 0.34220 0.73070 -0.53200
O 	O 	0.65720 0.55280 0.73980 -0.54500
O 	O 	0.80120 0.51260 0.73690 -0.56400
O 	O 	0.68660 0.48720 0.64880 -0.37000
N 	N 	0.64300 0.81880 0.43170 -0.07800
N 	N 	0.71790 0.84900 0.41820 -0.08800
C 	C 	0.70080 0.84000 0.36000 0.08600
H 	H 	0.74070 0.84930 0.33760 -0.03000
N 	N 	0.61350 0.81580 0.33500 -0.30800
C 	C 	0.67120 0.70600 0.36060 0.00800
H 	H 	0.69200 0.64630 0.33820 -0.04200
N 	N 	0.68780 0.70800 0.42000 -0.08100
Zn	Zn	0.21405 0.67571 0.75190 1.12200
Zn	Zn	0.11908 0.17251 0.74886 1.12300
Zn	Zn	0.55019 0.66857 0.74464 1.12400
S 	S 	0.28862 0.97445 0.78769 0.83000
C 	C 	0.42040 0.55150 0.99780 0.00500
C 	C 	0.43270 0.41900 0.00170 0.00100
C 	C 	0.51330 0.37020 0.00290 -0.00200
C 	C 	0.33500 0.60530 0.99870 -0.11600
H 	H 	0.30830 0.55040 0.02260 0.08700
H 	H 	0.34250 0.68840 0.01770 0.08700
C 	C 	0.29610 0.63180 0.88470 0.10900
H 	H 	0.35050 0.62970 0.87870 -0.04600
C 	C 	0.16650 0.64890 0.87180 0.09400
H 	H 	0.10970 0.66160 0.85270 -0.07300
C 	C 	0.35990 0.33440 0.00590 -0.10900
H 	H 	0.30720 0.37140 0.98310 0.08400
H 	H 	0.36630 0.25190 0.98870 0.07900
C 	C 	0.41400 0.32940 0.11860 0.11600
H 	H 	0.47060 0.34580 0.12040 -0.05300
C 	C 	0.52760 0.22590 0.00500 -0.10400
H 	H 	0.58380 0.20720 0.02970 0.08100
H 	H 	0.48670 0.18550 0.02330 0.08000
C 	C 	0.49010 0.22480 0.89100 0.10900
H 	H 	0.46900 0.30720 0.88450 -0.05300
C 	C 	0.52620 0.04150 0.88010 0.11600
H 	H 	0.53610 0.96640 0.86160 -0.05200
C 	C 	0.99710 0.13260 0.00020 -0.00100
C 	C 	0.07290 0.07120 0.99910 0.00500
C 	C 	0.07610 0.93690 0.99940 -0.00500
C 	C 	0.99590 0.28000 0.00090 -0.10800
H 	H 	0.02660 0.31230 0.97290 0.08600
H 	H 	0.93790 0.30980 0.98800 0.08100
C 	C 	0.04770 0.27770 0.11330 0.09400
H 	H 	0.03500 0.19360 0.12000 -0.05700
C 	C 	0.08590 0.46420 0.12450 0.10600
H 	H 	0.10580 0.54110 0.14260 -0.03900
C 	C 	0.14980 0.14670 0.99490 -0.11000
H 	H 	0.15640 0.21840 0.02220 0.09000
H 	H 	0.19980 0.09360 0.00730 0.07700
C 	C 	0.14320 0.13140 0.88480 0.09400
H 	H 	0.14840 0.04360 0.88240 -0.02400
C 	C 	0.13320 0.32410 0.86510 0.07500
H 	H 	0.12880 0.40030 0.84400 -0.07100
C 	C 	0.15790 0.87020 0.00510 -0.10000
H 	H 	0.14860 0.79140 0.98240 0.07700
H 	H 	0.19590 0.92300 0.98900 0.07100
C 	C 	0.16820 0.85910 0.11630 0.08700
H 	H 	0.11620 0.89520 0.11640 -0.05200
C 	C 	0.28700 0.77800 0.14150 0.10300
H 	H 	0.33650 0.74280 0.16510 -0.05500
N 	N 	0.22830 0.64950 0.84250 -0.32400
N 	N 	0.27860 0.61720 0.93710 -0.09000
N 	N 	0.19330 0.62880 0.92960 -0.10000
N 	N 	0.49460 0.14650 0.84870 -0.31100
N 	N 	0.51890 0.17420 0.94460 -0.08700
N 	N 	0.54190 0.05290 0.93810 -0.09500
N 	N 	0.08110 0.35820 0.15600 -0.31500
N 	N 	0.03450 0.32880 0.06100 -0.08700
N 	N 	0.06080 0.45080 0.06690 -0.09800
N 	N 	0.13490 0.20890 0.83910 -0.32200
N 	N 	0.14340 0.19300 0.93410 -0.08900
N 	N 	0.13820 0.31820 0.92230 -0.09900
N 	N 	0.22250 0.81830 0.16420 -0.31900
N 	N 	0.19570 0.84310 0.06840 -0.08800
N 	N 	0.27360 0.79300 0.08420 -0.10600
O 	O 	0.29540 0.84220 0.76930 -0.53100
O 	O 	0.34280 0.05280 0.76020 -0.54300
O 	O 	0.19880 0.01260 0.76310 -0.56200
O 	O 	0.31340 0.98720 0.85120 -0.37000
N 	N 	0.35700 0.31880 0.06830 -0.07700
N 	N 	0.28210 0.34900 0.08180 -0.08800
C 	C 	0.29920 0.34000 0.14000 0.08600
H 	H 	0.25930 0.34930 0.16240 -0.03000
N 	N 	0.38650 0.31580 0.16500 -0.30800
C 	C 	0.32880 0.20600 0.13940 0.00800
H 	H 	0.30800 0.14630 0.16180 -0.04200
N 	N 	0.31220 0.20800 0.08000 -0.08100
Zn	Zn	0.21405 0.82429 0.25190 1.12200
Zn	Zn	0.11908 0.32749 0.24886 1.12300
Zn	Zn	0.55019 0.83143 0.24464 1.12400
S 	S 	0.28862 0.52555 0.28769 0.83300
C 	C 	0.42040 0.94850 0.49780 0.00500
C 	C 	0.43270 0.08100 0.50170 0.00100
C 	C 	0.51330 0.12980 0.50290 -0.00200
C 	C 	0.33500 0.89470 0.49870 -0.11500
H 	H 	0.30830 0.94960 0.52260 0.08600
H 	H 	0.34250 0.81160 0.51770 0.08600
C 	C 	0.29610 0.86820 0.38470 0.10900
H 	H 	0.35050 0.87030 0.37870 -0.04600
C 	C 	0.16650 0.85110 0.37180 0.09400
H 	H 	0.10970 0.83840 0.35270 -0.07300
C 	C 	0.35990 0.16560 0.50590 -0.10700
H 	H 	0.30720 0.12860 0.48310 0.08400
H 	H 	0.36630 0.24810 0.48870 0.07800
C 	C 	0.41400 0.17060 0.61860 0.11600
H 	H 	0.47060 0.15420 0.62040 -0.05400
C 	C 	0.52760 0.27410 0.50500 -0.10300
H 	H 	0.58380 0.29280 0.52970 0.08100
H 	H 	0.48670 0.31450 0.52330 0.08000
C 	C 	0.49010 0.27520 0.39100 0.10900
H 	H 	0.46900 0.19280 0.38450 -0.05300
C 	C 	0.52620 0.45850 0.38010 0.11500
H 	H 	0.53610 0.53360 0.36160 -0.05100
C 	C 	0.99710 0.36740 0.50020 0.00000
C 	C 	0.07290 0.42880 0.49910 0.00200
C 	C 	0.07610 0.56310 0.49940 -0.00200
C 	C 	0.99590 0.22000 0.50090 -0.10700
H 	H 	0.02660 0.18770 0.47290 0.08600
H 	H 	0.93790 0.19020 0.48800 0.08000
C 	C 	0.04770 0.22230 0.61330 0.09400
H 	H 	0.03500 0.30640 0.62000 -0.05700
C 	C 	0.08590 0.03580 0.62450 0.10900
H 	H 	0.10580 0.95890 0.64260 -0.04000
C 	C 	0.14980 0.35330 0.49490 -0.11100
H 	H 	0.15640 0.28160 0.52220 0.09100
H 	H 	0.19980 0.40640 0.50730 0.07800
C 	C 	0.14320 0.36860 0.38480 0.09400
H 	H 	0.14840 0.45640 0.38240 -0.02500
C 	C 	0.13320 0.17590 0.36510 0.07500
H 	H 	0.12880 0.09970 0.34400 -0.07100
C 	C 	0.15790 0.62980 0.50510 -0.10500
H 	H 	0.14860 0.70860 0.48240 0.07900
H 	H 	0.19590 0.57700 0.48900 0.07400
C 	C 	0.16820 0.64090 0.61630 0.08700
H 	H 	0.11620 0.60480 0.61640 -0.05200
C 	C 	0.28700 0.72200 0.64150 0.10300
H 	H 	0.33650 0.75720 0.66510 -0.05600
N 	N 	0.22830 0.85050 0.34250 -0.32400
N 	N 	0.27860 0.88280 0.43710 -0.09000
N 	N 	0.19330 0.87120 0.42960 -0.10000
N 	N 	0.49460 0.35350 0.34870 -0.31000
N 	N 	0.51890 0.32580 0.44460 -0.08700
N 	N 	0.54190 0.44710 0.43810 -0.09500
N 	N 	0.08110 0.14180 0.65600 -0.31500
N 	N 	0.03450 0.17120 0.56100 -0.08700
N 	N 	0.06080 0.04920 0.56690 -0.09800
N 	N 	0.13490 0.29110 0.33910 -0.32200
N 	N 	0.14340 0.30700 0.43410 -0.08900
N 	N 	0.13820 0.18180 0.42230 -0.09900
N 	N 	0.22250 0.68170 0.66420 -0.31900
N 	N 	0.19570 0.65690 0.56840 -0.08700
N 	N 	0.27360 0.70700 0.58420 -0.10600
O 	O 	0.29540 0.65780 0.26930 -0.53200
O 	O 	0.34280 0.44720 0.26020 -0.54500
O 	O 	0.19880 0.48740 0.26310 -0.56400
O 	O 	0.31340 0.51280 0.35120 -0.37000
N 	N 	0.35700 0.18120 0.56830 -0.07800
N 	N 	0.28210 0.15100 0.58180 -0.08800
C 	C 	0.29920 0.16000 0.64000 0.08600
H 	H 	0.25930 0.15070 0.66240 -0.03000
N 	N 	0.38650 0.18420 0.66500 -0.30800
C 	C 	0.32880 0.29400 0.63940 0.00800
H 	H 	0.30800 0.35370 0.66180 -0.04200
N 	N 	0.31220 0.29200 0.58000 -0.08100
Zn	Zn	0.78595 0.32429 0.24810 1.12200
Zn	Zn	0.88092 0.82749 0.25114 1.12300
Zn	Zn	0.44981 0.33143 0.25536 1.12400
S 	S 	0.71138 0.02555 0.21231 0.83000
C 	C 	0.57960 0.44850 0.00220 0.00500
C 	C 	0.56730 0.58100 0.99830 0.00100
C 	C 	0.48670 0.62980 0.99710 -0.00200
C 	C 	0.66500 0.39470 0.00130 -0.11600
H 	H 	0.69170 0.44960 0.97740 0.08700
H 	H 	0.65750 0.31160 0.98230 0.08700
C 	C 	0.70390 0.36820 0.11530 0.10900
H 	H 	0.64950 0.37030 0.12130 -0.04600
C 	C 	0.83350 0.35110 0.12820 0.09400
H 	H 	0.89030 0.33840 0.14730 -0.07300
C 	C 	0.64010 0.66560 0.99410 -0.10900
H 	H 	0.69280 0.62860 0.01690 0.08400
H 	H 	0.63370 0.74810 0.01130 0.07900
C 	C 	0.58600 0.67060 0.88140 0.11600
H 	H 	0.52940 0.65420 0.87960 -0.05300
C 	C 	0.47240 0.77410 0.99500 -0.10400
H 	H 	0.41620 0.79280 0.97030 0.08100
H 	H 	0.51330 0.81450 0.97670 0.08000
C 	C 	0.50990 0.77520 0.10900 0.10900
H 	H 	0.53100 0.69280 0.11550 -0.05300
C 	C 	0.47380 0.95850 0.11990 0.11600
H 	H 	0.46390 0.03360 0.13840 -0.05200
C 	C 	0.00290 0.86740 0.99980 -0.00100
C 	C 	0.92710 0.92880 0.00090 0.00500
C 	C 	0.92390 0.06310 0.00060 -0.00500
C 	C 	0.00410 0.72000 0.99910 -0.10800
H 	H 	0.97340 0.68770 0.02710 0.08600
H 	H 	0.06210 0.69020 0.01200 0.08100
C 	C 	0.95230 0.72230 0.88670 0.09400
H 	H 	0.96500 0.80640 0.88000 -0.05700
C 	C 	0.91410 0.53580 0.87550 0.10600
H 	H 	0.89420 0.45890 0.85740 -0.03900
C 	C 	0.85020 0.85330 0.00510 -0.11000
H 	H 	0.84360 0.78160 0.97780 0.09000
H 	H 	0.80020 0.90640 0.99270 0.07700
C 	C 	0.85680 0.86860 0.11520 0.09400
H 	H 	0.85160 0.95640 0.11760 -0.02400
C 	C 	0.86680 0.67590 0.13490 0.07500
H 	H 	0.87120 0.59970 0.15600 -0.07100
C 	C 	0.84210 0.12980 0.99490 -0.10000
H 	H 	0.85140 0.20860 0.01760 0.07700
H 	H 	0.80410 0.07700 0.01100 0.07100
C 	C 	0.83180 0.14090 0.88370 0.08700
H 	H 	0.88380 0.10480 0.88360 -0.05200
C 	C 	0.71300 0.22200 0.85850 0.10300
H 	H 	0.66350 0.25720 0.83490 -0.05500
N 	N 	0.77170 0.35050 0.15750 -0.32400
N 	N 	0.72140 0.38280 0.06290 -0.09000
N 	N 	0.80670 0.37120 0.07040 -0.10000
N 	N 	0.50540 0.85350 0.15130 -0.31100
N 	N 	0.48110 0.82580 0.05540 -0.08700
N 	N 	0.45810 0.94710 0.06190 -0.09500
N 	N 	0.91890 0.64180 0.84400 -0.31500
N 	N 	0.96550 0.67120 0.93900 -0.08700
N 	N 	0.93920 0.54920 0.93310 -0.09800
N 	N 	0.86510 0.79110 0.16090 -0.32200
N 	N 	0.85660 0.80700 0.06590 -0.08900
N 	N 	0.86180 0.68180 0.07770 -0.09900
N 	N 	0.77750 0.18170 0.83580 -0.31900
N 	N 	0.80430 0.15690 0.93160 -0.08800
N 	N 	0.72640 0.20700 0.91580 -0.10600
O 	O 	0.70460 0.15780 0.23070 -0.53100
O 	O 	0.65720 0.94720 0.23980 -0.54300
O 	O 	0.80120 0.98740 0.23690 -0.56200
O 	O 	0.68660 0.01280 0.14880 -0.37000
N 	N 	0.64300 0.68120 0.93170 -0.07700
N 	N 	0.71790 0.65100 0.91820 -0.08800
C 	C 	0.70080 0.66000 0.86000 0.08600
H 	H 	0.74070 0.65070 0.83760 -0.03000
N 	N 	0.61350 0.68420 0.83500 -0.30800
C 	C 	0.67120 0.79400 0.86060 0.00800
H 	H 	0.69200 0.85370 0.83820 -0.04200
N 	N 	0.68780 0.79200 0.92000 -0.08100
