data_crystal

_cell_length_a 9.25740
_cell_length_b 15.60100
_cell_length_c 22.27400
_cell_angle_alpha 102.19000
_cell_angle_beta  101.58000
_cell_angle_gamma 104.32000

_symmetry_space_group_name_	'P 1'
_symmetry_space_group_name_H-M	'P 1'

loop_
_symmetry_equiv_pos_as_xyz
  x,y,z

loop_
_atom_site_label
_atom_site_type_symbol
_atom_site_fract_x
_atom_site_fract_y
_atom_site_fract_z
_atom_site_charge
Tb	Tb	0.51525 0.86058 0.80217 1.97000
Tb	Tb	0.03181 0.91189 0.85582 1.90300
Tb	Tb	0.48475 0.13942 0.19783 1.97100
Tb	Tb	0.96819 0.08811 0.14418 1.90400
H 	H 	0.87400 0.83310 0.66670 -0.00400
H 	H 	0.74690 0.83410 0.56790 0.10300
H 	H 	0.28100 0.91780 0.62800 0.05100
H 	H 	0.67140 0.78320 0.45090 0.15600
H 	H 	0.66590 0.88250 0.48030 0.15700
H 	H 	0.68100 0.85450 0.41060 0.15600
H 	H 	0.98450 0.84890 0.36970 0.09100
H 	H 	0.96940 0.90810 0.28130 0.02200
H 	H 	0.42970 0.01170 0.33160 0.00500
H 	H 	0.44580 0.95740 0.41880 0.08900
H 	H 	0.00490 0.66450 0.90730 0.01500
H 	H 	0.94730 0.52310 0.92730 0.08900
H 	H 	0.28030 0.46560 0.85070 0.09100
H 	H 	0.34070 0.60960 0.83290 0.02700
H 	H 	0.12180 0.26490 0.02200 0.06200
H 	H 	0.50170 0.18730 0.03050 -0.00500
H 	H 	0.58850 0.28550 0.97430 0.10400
H 	H 	0.68430 0.45330 0.96310 0.16600
H 	H 	0.62140 0.36270 0.90690 0.16000
H 	H 	0.61310 0.45650 0.89380 0.16300
H 	H 	0.59420 0.56310 0.80110 0.07900
H 	H 	0.99340 0.56120 0.70670 0.08400
H 	H 	0.93000 0.69400 0.73350 0.01800
H 	H 	0.94940 0.39220 0.65120 0.15000
H 	H 	0.07700 0.44080 0.71580 0.14100
H 	H 	0.00330 0.33370 0.69530 0.15300
H 	H 	0.26220 0.27290 0.79280 0.09800
H 	H 	0.22880 0.15440 0.84010 0.01900
H 	H 	0.59070 0.09340 0.79170 0.02000
H 	H 	0.62520 0.21130 0.74260 0.08800
H 	H 	0.12600 0.16690 0.33330 -0.00400
H 	H 	0.25310 0.16590 0.43210 0.10300
H 	H 	0.71900 0.08220 0.37200 0.05100
H 	H 	0.32860 0.21680 0.54910 0.15600
H 	H 	0.33410 0.11750 0.51970 0.15700
H 	H 	0.31900 0.14550 0.58940 0.15600
H 	H 	0.01550 0.15110 0.63030 0.09100
H 	H 	0.03060 0.09190 0.71870 0.02200
H 	H 	0.57030 0.98830 0.66840 0.00500
H 	H 	0.55420 0.04260 0.58120 0.08900
H 	H 	0.99510 0.33550 0.09270 0.01500
H 	H 	0.05270 0.47690 0.07270 0.08900
H 	H 	0.71970 0.53440 0.14930 0.09100
H 	H 	0.65930 0.39040 0.16710 0.02700
H 	H 	0.87820 0.73510 0.97800 0.06200
H 	H 	0.49830 0.81270 0.96950 -0.00500
H 	H 	0.41150 0.71450 0.02570 0.10400
H 	H 	0.31570 0.54670 0.03690 0.16600
H 	H 	0.37860 0.63730 0.09310 0.16000
H 	H 	0.38690 0.54350 0.10620 0.16300
H 	H 	0.40580 0.43690 0.19890 0.07900
H 	H 	0.00660 0.43880 0.29330 0.08400
H 	H 	0.07000 0.30600 0.26650 0.01800
H 	H 	0.05060 0.60780 0.34880 0.15000
H 	H 	0.92300 0.55920 0.28420 0.14100
H 	H 	0.99670 0.66630 0.30470 0.15300
H 	H 	0.73780 0.72710 0.20720 0.09800
H 	H 	0.77120 0.84560 0.15990 0.01900
H 	H 	0.40930 0.90660 0.20830 0.02000
H 	H 	0.37480 0.78870 0.25740 0.08800
C 	C 	0.17400 0.87700 0.72320 0.49100
C 	C 	0.09120 0.87600 0.65760 -0.17000
C 	C 	0.93030 0.85040 0.63870 0.11200
C 	C 	0.85440 0.85050 0.57950 -0.18000
C 	C 	0.93540 0.87470 0.53630 0.13600
C 	C 	0.09600 0.89780 0.55600 0.07600
C 	C 	0.17340 0.90010 0.61580 -0.00700
C 	C 	0.70970 0.84700 0.45260 -0.31800
C 	C 	0.21760 0.89540 0.40150 0.00800
C 	C 	0.07390 0.88140 0.36160 -0.09800
C 	C 	0.06520 0.91700 0.30860 0.07600
C 	C 	0.19750 0.96470 0.29710 -0.18300
C 	C 	0.33980 0.97890 0.33920 0.08200
C 	C 	0.34990 0.94600 0.39070 -0.10600
C 	C 	0.19000 0.00560 0.24120 0.51400
C 	C 	0.21190 0.74520 0.85520 0.50800
C 	C 	0.17810 0.65080 0.86910 -0.17000
C 	C 	0.06100 0.62450 0.89630 0.07600
C 	C 	0.02530 0.54010 0.90770 -0.10000
C 	C 	0.10640 0.48070 0.88960 0.00100
C 	C 	0.22510 0.50600 0.86210 -0.08800
C 	C 	0.26120 0.59160 0.85160 0.06200
C 	C 	0.27140 0.33210 0.98160 0.09200
C 	C 	0.21760 0.27050 0.01350 -0.03100
C 	C 	0.30530 0.21630 0.03340 -0.16100
C 	C 	0.44260 0.22400 0.01800 0.10000
C 	C 	0.49580 0.28360 0.98500 -0.17400
C 	C 	0.41420 0.34130 0.96700 0.12100
C 	C 	0.24760 0.15390 0.07110 0.45500
C 	C 	0.60620 0.42070 0.92380 -0.33600
C 	C 	0.70600 0.72700 0.78730 0.38400
C 	C 	0.75560 0.64350 0.77120 -0.10900
C 	C 	0.67540 0.56340 0.78240 -0.05700
C 	C 	0.71570 0.48550 0.76590 0.10400
C 	C 	0.83500 0.48130 0.73810 0.10600
C 	C 	0.91340 0.56170 0.72610 -0.13800
C 	C 	0.87580 0.64120 0.74200 0.05100
C 	C 	0.98370 0.39110 0.69450 -0.30300
C 	C 	0.44480 0.25170 0.76270 -0.00400
C 	C 	0.32770 0.23640 0.79220 -0.10100
C 	C 	0.30920 0.16630 0.82090 0.07600
C 	C 	0.40840 0.11300 0.82150 -0.17000
C 	C 	0.52480 0.12970 0.79190 0.07000
C 	C 	0.54560 0.19960 0.76220 -0.09200
C 	C 	0.38970 0.03600 0.85430 0.48800
C 	C 	0.82600 0.12300 0.27680 0.49100
C 	C 	0.90880 0.12400 0.34240 -0.17000
C 	C 	0.06970 0.14960 0.36130 0.11200
C 	C 	0.14560 0.14950 0.42050 -0.18000
C 	C 	0.06460 0.12530 0.46370 0.13600
C 	C 	0.90400 0.10220 0.44400 0.07600
C 	C 	0.82660 0.09990 0.38420 -0.00700
C 	C 	0.29030 0.15300 0.54740 -0.31800
C 	C 	0.78240 0.10460 0.59850 0.00800
C 	C 	0.92610 0.11860 0.63840 -0.09800
C 	C 	0.93480 0.08300 0.69140 0.07600
C 	C 	0.80250 0.03530 0.70290 -0.18300
C 	C 	0.66020 0.02110 0.66080 0.08200
C 	C 	0.65010 0.05400 0.60930 -0.10600
C 	C 	0.81000 0.99440 0.75880 0.51400
C 	C 	0.78810 0.25480 0.14480 0.50800
C 	C 	0.82190 0.34920 0.13090 -0.17000
C 	C 	0.93900 0.37550 0.10370 0.07600
C 	C 	0.97470 0.45990 0.09230 -0.10000
C 	C 	0.89360 0.51930 0.11040 0.00100
C 	C 	0.77490 0.49400 0.13790 -0.08800
C 	C 	0.73880 0.40840 0.14840 0.06200
C 	C 	0.72860 0.66790 0.01840 0.09200
C 	C 	0.78240 0.72950 0.98650 -0.03100
C 	C 	0.69470 0.78370 0.96660 -0.16100
C 	C 	0.55740 0.77600 0.98200 0.10000
C 	C 	0.50420 0.71640 0.01500 -0.17400
C 	C 	0.58580 0.65870 0.03300 0.12100
C 	C 	0.75240 0.84610 0.92890 0.45500
C 	C 	0.39380 0.57930 0.07620 -0.33600
C 	C 	0.29400 0.27300 0.21270 0.38400
C 	C 	0.24440 0.35650 0.22880 -0.10900
C 	C 	0.32460 0.43660 0.21760 -0.05700
C 	C 	0.28430 0.51450 0.23410 0.10400
C 	C 	0.16500 0.51870 0.26190 0.10600
C 	C 	0.08660 0.43830 0.27390 -0.13800
C 	C 	0.12420 0.35880 0.25800 0.05100
C 	C 	0.01630 0.60890 0.30550 -0.30300
C 	C 	0.55520 0.74830 0.23730 -0.00400
C 	C 	0.67230 0.76360 0.20780 -0.10100
C 	C 	0.69080 0.83370 0.17910 0.07600
C 	C 	0.59160 0.88700 0.17850 -0.17000
C 	C 	0.47520 0.87030 0.20810 0.07000
C 	C 	0.45440 0.80040 0.23780 -0.09200
C 	C 	0.61030 0.96400 0.14570 0.48800
S 	S 	0.22670 0.84958 0.46759 0.43000
S 	S 	0.06080 0.37061 0.90339 0.44900
S 	S 	0.47590 0.34455 0.72947 0.43300
S 	S 	0.77330 0.15042 0.53241 0.43000
S 	S 	0.93920 0.62939 0.09661 0.44900
S 	S 	0.52410 0.65545 0.27053 0.43300
O 	O 	0.09380 0.86310 0.76197 -0.50600
O 	O 	0.31640 0.89090 0.73510 -0.52900
O 	O 	0.87430 0.87780 0.47620 -0.12200
O 	O 	0.18300 0.92630 0.51360 -0.23100
O 	O 	0.10990 0.76380 0.45220 -0.24400
O 	O 	0.38250 0.85630 0.49520 -0.25600
O 	O 	0.06030 0.00190 0.21013 -0.51200
O 	O 	0.31510 0.03790 0.22860 -0.56700
O 	O 	0.13640 0.79530 0.87342 -0.52900
O 	O 	0.31250 0.76370 0.82510 -0.52500
O 	O 	0.91470 0.35070 0.91780 -0.25400
O 	O 	0.08910 0.30560 0.85790 -0.25900
O 	O 	0.19020 0.39430 0.96820 -0.25300
O 	O 	0.49570 0.99960 0.86224 -0.49100
O 	O 	0.26950 0.01650 0.87290 -0.53500
O 	O 	0.11410 0.14660 0.07800 -0.51900
O 	O 	0.33690 0.11380 0.09629 -0.52800
O 	O 	0.36400 0.39160 0.73700 -0.25500
O 	O 	0.63520 0.40430 0.77930 -0.24400
O 	O 	0.57780 0.71960 0.79970 -0.46200
O 	O 	0.45460 0.40490 0.93560 -0.12600
O 	O 	0.79520 0.80590 0.78960 -0.51400
O 	O 	0.86620 0.40090 0.72640 -0.12200
O 	O 	0.50290 0.31880 0.66870 -0.24400
O 	O 	0.90620 0.13690 0.23803 -0.50600
O 	O 	0.68360 0.10910 0.26490 -0.52900
O 	O 	0.12570 0.12220 0.52380 -0.12200
O 	O 	0.81700 0.07370 0.48640 -0.23100
O 	O 	0.89010 0.23620 0.54780 -0.24400
O 	O 	0.61750 0.14370 0.50480 -0.25600
O 	O 	0.93970 0.99810 0.78987 -0.51200
O 	O 	0.68490 0.96210 0.77140 -0.56700
O 	O 	0.86360 0.20470 0.12658 -0.52900
O 	O 	0.68750 0.23630 0.17490 -0.52500
O 	O 	0.08530 0.64930 0.08220 -0.25400
O 	O 	0.91090 0.69440 0.14210 -0.25900
O 	O 	0.80980 0.60570 0.03180 -0.25300
O 	O 	0.50430 0.00040 0.13776 -0.49100
O 	O 	0.73050 0.98350 0.12710 -0.53500
O 	O 	0.88590 0.85340 0.92200 -0.51900
O 	O 	0.66310 0.88620 0.90371 -0.52800
O 	O 	0.63600 0.60840 0.26300 -0.25500
O 	O 	0.36480 0.59570 0.22070 -0.24400
O 	O 	0.42220 0.28040 0.20030 -0.46200
O 	O 	0.54540 0.59510 0.06440 -0.12600
O 	O 	0.20480 0.19410 0.21040 -0.51400
O 	O 	0.13380 0.59910 0.27360 -0.12200
O 	O 	0.49710 0.68120 0.33130 -0.24400
