data_crystal

_cell_length_a 14.71700
_cell_length_b 14.71700
_cell_length_c 15.16900
_cell_angle_alpha 90.00000
_cell_angle_beta  90.00000
_cell_angle_gamma 120.00000

_symmetry_space_group_name_	'P 1'
_symmetry_space_group_name_H-M	'P 1'

loop_
_symmetry_equiv_pos_as_xyz
  x,y,z

loop_
_atom_site_label
_atom_site_type_symbol
_atom_site_fract_x
_atom_site_fract_y
_atom_site_fract_z
_atom_site_charge
Gd	Gd	0.33333 0.66666 0.25000 1.68500
Gd	Gd	0.66667 0.33334 0.25000 1.68500
Gd	Gd	0.66667 0.33334 0.75000 1.69800
Gd	Gd	0.33333 0.66666 0.75000 1.69800
Cu	Cu	0.50000 0.50000 -0.00000 0.89000
Cu	Cu	-0.00000 0.50000 -0.00000 0.85700
Cu	Cu	0.50000 0.00000 -0.00000 0.85700
Cu	Cu	0.00000 0.50000 0.50000 0.91400
Cu	Cu	0.50000 0.50000 0.50000 0.94800
Cu	Cu	0.50000 0.00000 0.50000 0.91400
H 	H 	0.79430 0.15880 0.83960 0.12500
H 	H 	0.71520 0.08640 0.76670 0.08600
H 	H 	0.36450 0.20570 0.83960 0.10500
H 	H 	0.37120 0.28480 0.76670 0.09500
H 	H 	0.84120 0.63550 0.83960 0.14200
H 	H 	0.91360 0.62880 0.76670 0.13600
H 	H 	0.20570 0.84120 0.83960 0.12200
H 	H 	0.28480 0.91360 0.76670 0.12500
H 	H 	0.63550 0.79430 0.83960 0.14400
H 	H 	0.62880 0.71520 0.76670 0.11700
H 	H 	0.15880 0.36450 0.83960 0.10500
H 	H 	0.08640 0.37120 0.76670 0.07600
H 	H 	0.63550 0.84120 0.66040 0.12700
H 	H 	0.62880 0.91360 0.73330 0.13800
H 	H 	0.15880 0.79430 0.66040 0.11000
H 	H 	0.08640 0.71520 0.73330 0.08800
H 	H 	0.20570 0.36450 0.66040 0.08900
H 	H 	0.28480 0.37120 0.73330 0.09700
H 	H 	0.36450 0.15880 0.66040 0.09000
H 	H 	0.37120 0.08640 0.73330 0.07800
H 	H 	0.84120 0.20570 0.66040 0.10700
H 	H 	0.91360 0.28480 0.73330 0.12700
H 	H 	0.79430 0.63550 0.66040 0.12900
H 	H 	0.71520 0.62880 0.73330 0.11900
H 	H 	0.20570 0.84120 0.16040 0.08700
H 	H 	0.28480 0.91360 0.23330 0.11700
H 	H 	0.63550 0.79430 0.16040 0.10800
H 	H 	0.62880 0.71520 0.23330 0.10900
H 	H 	0.15880 0.36450 0.16040 0.06900
H 	H 	0.08640 0.37120 0.23330 0.06700
H 	H 	0.79430 0.15880 0.16040 0.08900
H 	H 	0.71520 0.08640 0.23330 0.07800
H 	H 	0.36450 0.20570 0.16040 0.06800
H 	H 	0.37120 0.28480 0.23330 0.08600
H 	H 	0.84120 0.63550 0.16040 0.10600
H 	H 	0.91360 0.62880 0.23330 0.12800
H 	H 	0.36450 0.15880 0.33960 0.08400
H 	H 	0.37120 0.08640 0.26670 0.06600
H 	H 	0.84120 0.20570 0.33960 0.10200
H 	H 	0.91360 0.28480 0.26670 0.11700
H 	H 	0.79430 0.63550 0.33960 0.12300
H 	H 	0.71520 0.62880 0.26670 0.10800
H 	H 	0.63550 0.84120 0.33960 0.12200
H 	H 	0.62880 0.91360 0.26670 0.12800
H 	H 	0.15880 0.79430 0.33960 0.10400
H 	H 	0.08640 0.71520 0.26670 0.07800
H 	H 	0.20570 0.36450 0.33960 0.08300
H 	H 	0.28480 0.37120 0.26670 0.08600
C 	C 	0.12960 0.64470 0.36100 0.41600
C 	C 	0.85240 0.26470 0.69670 -0.22700
C 	C 	0.51510 0.87040 0.36100 0.42800
C 	C 	0.41230 0.14760 0.69670 -0.20300
C 	C 	0.35530 0.48490 0.36100 0.41200
C 	C 	0.73530 0.58770 0.69670 -0.24100
C 	C 	0.87040 0.35530 0.36100 0.42000
C 	C 	0.14760 0.73530 0.69670 -0.21900
C 	C 	0.48490 0.12960 0.36100 0.40800
C 	C 	0.58770 0.85240 0.69670 -0.24400
C 	C 	0.64470 0.51510 0.36100 0.42800
C 	C 	0.26470 0.41230 0.69670 -0.20900
C 	C 	0.48490 0.35530 0.13900 0.40900
C 	C 	0.58770 0.73530 0.80330 -0.23800
C 	C 	0.64470 0.12960 0.13900 0.41300
C 	C 	0.26470 0.85240 0.80330 -0.22500
C 	C 	0.87040 0.51510 0.13900 0.42400
C 	C 	0.14760 0.41230 0.80330 -0.20100
C 	C 	0.51510 0.64470 0.13900 0.42400
C 	C 	0.41230 0.26470 0.80330 -0.20600
C 	C 	0.35530 0.87040 0.13900 0.41700
C 	C 	0.73530 0.14760 0.80330 -0.21700
C 	C 	0.12960 0.48490 0.13900 0.40500
C 	C 	0.85240 0.58770 0.80330 -0.24200
C 	C 	0.87040 0.35530 0.63900 0.42300
C 	C 	0.14760 0.73530 0.30330 -0.21100
C 	C 	0.48490 0.12960 0.63900 0.41200
C 	C 	0.58770 0.85240 0.30330 -0.23600
C 	C 	0.64470 0.51510 0.63900 0.43100
C 	C 	0.26470 0.41230 0.30330 -0.19900
C 	C 	0.12960 0.64470 0.63900 0.42000
C 	C 	0.85240 0.26470 0.30330 -0.21900
C 	C 	0.51510 0.87040 0.63900 0.43100
C 	C 	0.41230 0.14760 0.30330 -0.19400
C 	C 	0.35530 0.48490 0.63900 0.41600
C 	C 	0.73530 0.58770 0.30330 -0.23200
C 	C 	0.51510 0.64470 0.86100 0.42800
C 	C 	0.41230 0.26470 0.19670 -0.19800
C 	C 	0.35530 0.87040 0.86100 0.42100
C 	C 	0.73530 0.14760 0.19670 -0.20900
C 	C 	0.12960 0.48490 0.86100 0.40900
C 	C 	0.85240 0.58770 0.19670 -0.23400
C 	C 	0.48490 0.35530 0.86100 0.41300
C 	C 	0.58770 0.73530 0.19670 -0.23100
C 	C 	0.64470 0.12960 0.86100 0.41700
C 	C 	0.26470 0.85240 0.19670 -0.21800
C 	C 	0.87040 0.51510 0.86100 0.42900
C 	C 	0.14760 0.41230 0.19670 -0.19300
O 	O 	0.19410 0.61304 0.35658 -0.42400
O 	O 	0.05110 0.60970 0.41000 -0.43300
O 	O 	0.41894 0.80590 0.35658 -0.40900
O 	O 	0.55860 0.94890 0.41000 -0.37000
O 	O 	0.38696 0.58106 0.35658 -0.41600
O 	O 	0.39030 0.44140 0.41000 -0.41200
O 	O 	0.80590 0.38696 0.35658 -0.40800
O 	O 	0.94890 0.39030 0.41000 -0.37200
O 	O 	0.58106 0.19410 0.35658 -0.42200
O 	O 	0.44140 0.05110 0.41000 -0.43600
O 	O 	0.61304 0.41894 0.35658 -0.41900
O 	O 	0.60970 0.55860 0.41000 -0.40700
O 	O 	0.58106 0.38696 0.14342 -0.43500
O 	O 	0.44140 0.39030 0.09000 -0.44500
O 	O 	0.61304 0.19410 0.14342 -0.44300
O 	O 	0.60970 0.05110 0.09000 -0.46500
O 	O 	0.80590 0.41894 0.14342 -0.42800
O 	O 	0.94890 0.55860 0.09000 -0.40200
O 	O 	0.41894 0.61304 0.14342 -0.43800
O 	O 	0.55860 0.60970 0.09000 -0.43900
O 	O 	0.38696 0.80590 0.14342 -0.42600
O 	O 	0.39030 0.94890 0.09000 -0.40400
O 	O 	0.19410 0.58106 0.14342 -0.44100
O 	O 	0.05110 0.44140 0.09000 -0.46800
O 	O 	0.80590 0.38696 0.64342 -0.41000
O 	O 	0.94890 0.39030 0.59000 -0.37300
O 	O 	0.58106 0.19410 0.64342 -0.42500
O 	O 	0.44140 0.05110 0.59000 -0.43600
O 	O 	0.61304 0.41894 0.64342 -0.42200
O 	O 	0.60970 0.55860 0.59000 -0.40800
O 	O 	0.19410 0.61304 0.64342 -0.42600
O 	O 	0.05110 0.60970 0.59000 -0.43400
O 	O 	0.41894 0.80590 0.64342 -0.41200
O 	O 	0.55860 0.94890 0.59000 -0.37100
O 	O 	0.38696 0.58106 0.64342 -0.41800
O 	O 	0.39030 0.44140 0.59000 -0.41300
O 	O 	0.41894 0.61304 0.85658 -0.39600
O 	O 	0.55860 0.60970 0.91000 -0.35100
O 	O 	0.38696 0.80590 0.85658 -0.38500
O 	O 	0.39030 0.94890 0.91000 -0.31800
O 	O 	0.19410 0.58106 0.85658 -0.39900
O 	O 	0.05110 0.44140 0.91000 -0.37900
O 	O 	0.58106 0.38696 0.85658 -0.39200
O 	O 	0.44140 0.39030 0.91000 -0.35600
O 	O 	0.61304 0.19410 0.85658 -0.40000
O 	O 	0.60970 0.05110 0.91000 -0.37700
O 	O 	0.80590 0.41894 0.85658 -0.38700
O 	O 	0.94890 0.55860 0.91000 -0.31600
O 	O 	0.76410 0.23590 0.75000 -0.19500
O 	O 	0.47180 0.23590 0.75000 -0.20600
O 	O 	0.76410 0.52820 0.75000 -0.18200
O 	O 	0.23590 0.76410 0.75000 -0.19400
O 	O 	0.52820 0.76410 0.75000 -0.18300
O 	O 	0.23590 0.47180 0.75000 -0.20600
O 	O 	0.23590 0.76410 0.25000 -0.20200
O 	O 	0.52820 0.76410 0.25000 -0.19000
O 	O 	0.23590 0.47180 0.25000 -0.21400
O 	O 	0.76410 0.23590 0.25000 -0.20200
O 	O 	0.47180 0.23590 0.25000 -0.21400
O 	O 	0.76410 0.52820 0.25000 -0.19000
