data_crystal

_cell_length_a 14.59500
_cell_length_b 14.59500
_cell_length_c 15.26700
_cell_angle_alpha 90.00000
_cell_angle_beta  90.00000
_cell_angle_gamma 120.00000

_symmetry_space_group_name_	'P 1'
_symmetry_space_group_name_H-M	'P 1'

loop_
_symmetry_equiv_pos_as_xyz
  x,y,z

loop_
_atom_site_label
_atom_site_type_symbol
_atom_site_fract_x
_atom_site_fract_y
_atom_site_fract_z
_atom_site_charge
Y 	Y 	0.33333 0.66666 0.25000 2.39600
Y 	Y 	0.66667 0.33334 0.25000 2.39600
Y 	Y 	0.66667 0.33334 0.75000 2.39600
Y 	Y 	0.33333 0.66666 0.75000 2.39600
Cu	Cu	0.50000 0.50000 -0.00000 0.89400
Cu	Cu	-0.00000 0.50000 -0.00000 0.86000
Cu	Cu	0.50000 0.00000 -0.00000 0.86000
Cu	Cu	0.00000 0.50000 0.50000 0.91800
Cu	Cu	0.50000 0.50000 0.50000 0.95200
Cu	Cu	0.50000 -0.00000 0.50000 0.91800
H 	H 	0.79650 0.16230 0.83960 0.13600
H 	H 	0.71680 0.08730 0.76800 0.09600
H 	H 	0.36580 0.20350 0.83960 0.11500
H 	H 	0.37050 0.28320 0.76800 0.10500
H 	H 	0.83770 0.63420 0.83960 0.15300
H 	H 	0.91270 0.62950 0.76800 0.14600
H 	H 	0.20350 0.83770 0.83960 0.13200
H 	H 	0.28320 0.91270 0.76800 0.13500
H 	H 	0.63420 0.79650 0.83960 0.15500
H 	H 	0.62950 0.71680 0.76800 0.12700
H 	H 	0.16230 0.36580 0.83960 0.11600
H 	H 	0.08730 0.37050 0.76800 0.08500
H 	H 	0.63420 0.83770 0.66040 0.13700
H 	H 	0.62950 0.91270 0.73200 0.14700
H 	H 	0.16230 0.79650 0.66040 0.12100
H 	H 	0.08730 0.71680 0.73200 0.09800
H 	H 	0.20350 0.36580 0.66040 0.09900
H 	H 	0.28320 0.37050 0.73200 0.10600
H 	H 	0.36580 0.16230 0.66040 0.10000
H 	H 	0.37050 0.08730 0.73200 0.08700
H 	H 	0.83770 0.20350 0.66040 0.11700
H 	H 	0.91270 0.28320 0.73200 0.13600
H 	H 	0.79650 0.63420 0.66040 0.14000
H 	H 	0.71680 0.62950 0.73200 0.12900
H 	H 	0.20350 0.83770 0.16040 0.09700
H 	H 	0.28320 0.91270 0.23200 0.12600
H 	H 	0.63420 0.79650 0.16040 0.12000
H 	H 	0.62950 0.71680 0.23200 0.11800
H 	H 	0.16230 0.36580 0.16040 0.07900
H 	H 	0.08730 0.37050 0.23200 0.07600
H 	H 	0.79650 0.16230 0.16040 0.10100
H 	H 	0.71680 0.08730 0.23200 0.08700
H 	H 	0.36580 0.20350 0.16040 0.07800
H 	H 	0.37050 0.28320 0.23200 0.09500
H 	H 	0.83770 0.63420 0.16040 0.11700
H 	H 	0.91270 0.62950 0.23200 0.13700
H 	H 	0.36580 0.16230 0.33960 0.09500
H 	H 	0.37050 0.08730 0.26800 0.07600
H 	H 	0.83770 0.20350 0.33960 0.11200
H 	H 	0.91270 0.28320 0.26800 0.12600
H 	H 	0.79650 0.63420 0.33960 0.13500
H 	H 	0.71680 0.62950 0.26800 0.11800
H 	H 	0.63420 0.83770 0.33960 0.13200
H 	H 	0.62950 0.91270 0.26800 0.13800
H 	H 	0.16230 0.79650 0.33960 0.11600
H 	H 	0.08730 0.71680 0.26800 0.08700
H 	H 	0.20350 0.36580 0.33960 0.09300
H 	H 	0.28320 0.37050 0.26800 0.09500
C 	C 	0.13110 0.64480 0.36110 0.42900
C 	C 	0.85050 0.26350 0.69640 -0.25000
C 	C 	0.51370 0.86890 0.36110 0.44100
C 	C 	0.41300 0.14950 0.69640 -0.22600
C 	C 	0.35520 0.48630 0.36110 0.42500
C 	C 	0.73650 0.58700 0.69640 -0.26500
C 	C 	0.86890 0.35520 0.36110 0.43300
C 	C 	0.14950 0.73650 0.69640 -0.24200
C 	C 	0.48630 0.13110 0.36110 0.42100
C 	C 	0.58700 0.85050 0.69640 -0.26700
C 	C 	0.64480 0.51370 0.36110 0.44100
C 	C 	0.26350 0.41300 0.69640 -0.23000
C 	C 	0.48630 0.35520 0.13890 0.42100
C 	C 	0.58700 0.73650 0.80360 -0.26200
C 	C 	0.64480 0.13110 0.13890 0.42600
C 	C 	0.26350 0.85050 0.80360 -0.24800
C 	C 	0.86890 0.51370 0.13890 0.43700
C 	C 	0.14950 0.41300 0.80360 -0.22300
C 	C 	0.51370 0.64480 0.13890 0.43800
C 	C 	0.41300 0.26350 0.80360 -0.22800
C 	C 	0.35520 0.86890 0.13890 0.42900
C 	C 	0.73650 0.14950 0.80360 -0.24000
C 	C 	0.13110 0.48630 0.13890 0.41700
C 	C 	0.85050 0.58700 0.80360 -0.26500
C 	C 	0.86890 0.35520 0.63890 0.43600
C 	C 	0.14950 0.73650 0.30360 -0.23300
C 	C 	0.48630 0.13110 0.63890 0.42500
C 	C 	0.58700 0.85050 0.30360 -0.25800
C 	C 	0.64480 0.51370 0.63890 0.44400
C 	C 	0.26350 0.41300 0.30360 -0.22100
C 	C 	0.13110 0.64480 0.63890 0.43300
C 	C 	0.85050 0.26350 0.30360 -0.24100
C 	C 	0.51370 0.86890 0.63890 0.44400
C 	C 	0.41300 0.14950 0.30360 -0.21600
C 	C 	0.35520 0.48630 0.63890 0.42800
C 	C 	0.73650 0.58700 0.30360 -0.25600
C 	C 	0.51370 0.64480 0.86110 0.44100
C 	C 	0.41300 0.26350 0.19640 -0.22000
C 	C 	0.35520 0.86890 0.86110 0.43300
C 	C 	0.73650 0.14950 0.19640 -0.23200
C 	C 	0.13110 0.48630 0.86110 0.42200
C 	C 	0.85050 0.58700 0.19640 -0.25700
C 	C 	0.48630 0.35520 0.86110 0.42500
C 	C 	0.58700 0.73650 0.19640 -0.25400
C 	C 	0.64480 0.13110 0.86110 0.42900
C 	C 	0.26350 0.85050 0.19640 -0.24000
C 	C 	0.86890 0.51370 0.86110 0.44100
C 	C 	0.14950 0.41300 0.19640 -0.21400
O 	O 	0.19600 0.61230 0.35495 -0.51800
O 	O 	0.05360 0.61050 0.41050 -0.43500
O 	O 	0.41630 0.80400 0.35495 -0.50300
O 	O 	0.55690 0.94640 0.41050 -0.37100
O 	O 	0.38770 0.58370 0.35495 -0.50900
O 	O 	0.38950 0.44310 0.41050 -0.41400
O 	O 	0.80400 0.38770 0.35495 -0.50100
O 	O 	0.94640 0.38950 0.41050 -0.37400
O 	O 	0.58370 0.19600 0.35495 -0.51600
O 	O 	0.44310 0.05360 0.41050 -0.43700
O 	O 	0.61230 0.41630 0.35495 -0.51300
O 	O 	0.61050 0.55690 0.41050 -0.40900
O 	O 	0.58370 0.38770 0.14505 -0.52800
O 	O 	0.44310 0.38950 0.08950 -0.44700
O 	O 	0.61230 0.19600 0.14505 -0.53600
O 	O 	0.61050 0.05360 0.08950 -0.46700
O 	O 	0.80400 0.41630 0.14505 -0.52100
O 	O 	0.94640 0.55690 0.08950 -0.40400
O 	O 	0.41630 0.61230 0.14505 -0.53100
O 	O 	0.55690 0.61050 0.08950 -0.44200
O 	O 	0.38770 0.80400 0.14505 -0.52000
O 	O 	0.38950 0.94640 0.08950 -0.40600
O 	O 	0.19600 0.58370 0.14505 -0.53400
O 	O 	0.05360 0.44310 0.08950 -0.47000
O 	O 	0.80400 0.38770 0.64505 -0.50300
O 	O 	0.94640 0.38950 0.58950 -0.37500
O 	O 	0.58370 0.19600 0.64505 -0.51700
O 	O 	0.44310 0.05360 0.58950 -0.43800
O 	O 	0.61230 0.41630 0.64505 -0.51400
O 	O 	0.61050 0.55690 0.58950 -0.40900
O 	O 	0.19600 0.61230 0.64505 -0.51900
O 	O 	0.05360 0.61050 0.58950 -0.43500
O 	O 	0.41630 0.80400 0.64505 -0.50400
O 	O 	0.55690 0.94640 0.58950 -0.37200
O 	O 	0.38770 0.58370 0.64505 -0.51100
O 	O 	0.38950 0.44310 0.58950 -0.41500
O 	O 	0.41630 0.61230 0.85495 -0.48900
O 	O 	0.55690 0.61050 0.91050 -0.35100
O 	O 	0.38770 0.80400 0.85495 -0.47800
O 	O 	0.38950 0.94640 0.91050 -0.31900
O 	O 	0.19600 0.58370 0.85495 -0.49200
O 	O 	0.05360 0.44310 0.91050 -0.37900
O 	O 	0.58370 0.38770 0.85495 -0.48500
O 	O 	0.44310 0.38950 0.91050 -0.35600
O 	O 	0.61230 0.19600 0.85495 -0.49300
O 	O 	0.61050 0.05360 0.91050 -0.37700
O 	O 	0.80400 0.41630 0.85495 -0.48000
O 	O 	0.94640 0.55690 0.91050 -0.31600
O 	O 	0.76380 0.23620 0.75000 -0.26200
O 	O 	0.47240 0.23620 0.75000 -0.27400
O 	O 	0.76380 0.52760 0.75000 -0.25000
O 	O 	0.23620 0.76380 0.75000 -0.26200
O 	O 	0.52760 0.76380 0.75000 -0.25000
O 	O 	0.23620 0.47240 0.75000 -0.27400
O 	O 	0.23620 0.76380 0.25000 -0.27100
O 	O 	0.52760 0.76380 0.25000 -0.25800
O 	O 	0.23620 0.47240 0.25000 -0.28300
O 	O 	0.76380 0.23620 0.25000 -0.27100
O 	O 	0.47240 0.23620 0.25000 -0.28300
O 	O 	0.76380 0.52760 0.25000 -0.25800
