data_crystal

_cell_length_a 14.58400
_cell_length_b 15.19900
_cell_length_c 15.19900
_cell_angle_alpha 120.00000
_cell_angle_beta  90.00000
_cell_angle_gamma 90.00000

_symmetry_space_group_name_	'P 1'
_symmetry_space_group_name_H-M	'P 1'

loop_
_symmetry_equiv_pos_as_xyz
  x,y,z

loop_
_atom_site_label
_atom_site_type_symbol
_atom_site_fract_x
_atom_site_fract_y
_atom_site_fract_z
_atom_site_charge
Pr	Pr	0.25000 0.33333 0.66666 2.09600
Pr	Pr	0.25000 0.66667 0.33334 2.09600
Pr	Pr	0.75000 0.66667 0.33334 2.09700
Pr	Pr	0.75000 0.33333 0.66666 2.09700
Cu	Cu	-0.00000 0.50000 0.50000 0.93000
Cu	Cu	1.00000 0.00000 0.50000 0.93300
Cu	Cu	-0.00000 0.50000 -0.00000 0.89500
Cu	Cu	0.50000 0.00000 0.50000 0.91400
Cu	Cu	0.50000 0.50000 0.50000 0.95000
Cu	Cu	0.50000 0.50000 -0.00000 0.91500
H 	H 	0.83680 0.78610 0.15070 0.12600
H 	H 	0.75740 0.71000 0.08920 0.10000
H 	H 	0.83680 0.36460 0.21390 0.10700
H 	H 	0.75740 0.37920 0.29000 0.10900
H 	H 	0.83680 0.84930 0.63540 0.14600
H 	H 	0.75740 0.91080 0.62080 0.15000
H 	H 	0.83680 0.21390 0.84930 0.12500
H 	H 	0.75740 0.29000 0.91080 0.13800
H 	H 	0.83680 0.63540 0.78610 0.14500
H 	H 	0.75740 0.62080 0.71000 0.13000
H 	H 	0.83680 0.15070 0.36460 0.10600
H 	H 	0.75740 0.08920 0.37920 0.08900
H 	H 	0.66320 0.63540 0.84930 0.14000
H 	H 	0.74260 0.62080 0.91080 0.15000
H 	H 	0.66320 0.15070 0.78610 0.11900
H 	H 	0.74260 0.08920 0.71000 0.09900
H 	H 	0.66320 0.21390 0.36460 0.10200
H 	H 	0.74260 0.29000 0.37920 0.11000
H 	H 	0.66320 0.36460 0.15070 0.10100
H 	H 	0.74260 0.37920 0.08920 0.09100
H 	H 	0.66320 0.84930 0.21390 0.12200
H 	H 	0.74260 0.91080 0.29000 0.14100
H 	H 	0.66320 0.78610 0.63540 0.14000
H 	H 	0.74260 0.71000 0.62080 0.13100
H 	H 	0.16320 0.21390 0.84930 0.11400
H 	H 	0.24260 0.29000 0.91080 0.13700
H 	H 	0.16320 0.63540 0.78610 0.13200
H 	H 	0.24260 0.62080 0.71000 0.12700
H 	H 	0.16320 0.15070 0.36460 0.09400
H 	H 	0.24260 0.08920 0.37920 0.08600
H 	H 	0.16320 0.78610 0.15070 0.11200
H 	H 	0.24260 0.71000 0.08920 0.09600
H 	H 	0.16320 0.36460 0.21390 0.09400
H 	H 	0.24260 0.37920 0.29000 0.10600
H 	H 	0.16320 0.84930 0.63540 0.13300
H 	H 	0.24260 0.91080 0.62080 0.14700
H 	H 	0.33680 0.36460 0.15070 0.09800
H 	H 	0.25740 0.37920 0.08920 0.08500
H 	H 	0.33680 0.84930 0.21390 0.11900
H 	H 	0.25740 0.91080 0.29000 0.13500
H 	H 	0.33680 0.78610 0.63540 0.13800
H 	H 	0.25740 0.71000 0.62080 0.12600
H 	H 	0.33680 0.63540 0.84930 0.13800
H 	H 	0.25740 0.62080 0.91080 0.14600
H 	H 	0.33680 0.15070 0.78610 0.11800
H 	H 	0.25740 0.08920 0.71000 0.09600
H 	H 	0.33680 0.21390 0.36460 0.09900
H 	H 	0.25740 0.29000 0.37920 0.10500
C 	C 	0.35980 0.12750 0.64300 0.42200
C 	C 	0.70050 0.85440 0.26910 -0.26500
C 	C 	0.35980 0.51550 0.87250 0.43300
C 	C 	0.70050 0.41470 0.14560 -0.23900
C 	C 	0.35980 0.35700 0.48450 0.41800
C 	C 	0.70050 0.73090 0.58530 -0.27600
C 	C 	0.35980 0.87250 0.35700 0.42500
C 	C 	0.70050 0.14560 0.73090 -0.25300
C 	C 	0.35980 0.48450 0.12750 0.41500
C 	C 	0.70050 0.58530 0.85440 -0.27900
C 	C 	0.35980 0.64300 0.51550 0.43300
C 	C 	0.70050 0.26910 0.41470 -0.24500
C 	C 	0.14020 0.48450 0.35700 0.41700
C 	C 	0.79950 0.58530 0.73090 -0.27500
C 	C 	0.14020 0.64300 0.12750 0.42100
C 	C 	0.79950 0.26910 0.85440 -0.26200
C 	C 	0.14020 0.87250 0.51550 0.43400
C 	C 	0.79950 0.14560 0.41470 -0.23900
C 	C 	0.14020 0.51550 0.64300 0.43200
C 	C 	0.79950 0.41470 0.26910 -0.24400
C 	C 	0.14020 0.35700 0.87250 0.42400
C 	C 	0.79950 0.73090 0.14560 -0.25400
C 	C 	0.14020 0.12750 0.48450 0.41600
C 	C 	0.79950 0.85440 0.58530 -0.28000
C 	C 	0.64020 0.87250 0.35700 0.42700
C 	C 	0.29950 0.14560 0.73090 -0.25100
C 	C 	0.64020 0.48450 0.12750 0.41700
C 	C 	0.29950 0.58530 0.85440 -0.27600
C 	C 	0.64020 0.64300 0.51550 0.43500
C 	C 	0.29950 0.26910 0.41470 -0.24100
C 	C 	0.64020 0.12750 0.64300 0.42300
C 	C 	0.29950 0.85440 0.26910 -0.26000
C 	C 	0.64020 0.51550 0.87250 0.43400
C 	C 	0.29950 0.41470 0.14560 -0.23500
C 	C 	0.64020 0.35700 0.48450 0.42000
C 	C 	0.29950 0.73090 0.58530 -0.27200
C 	C 	0.85980 0.51550 0.64300 0.43400
C 	C 	0.20050 0.41470 0.26910 -0.24100
C 	C 	0.85980 0.35700 0.87250 0.42600
C 	C 	0.20050 0.73090 0.14560 -0.25000
C 	C 	0.85980 0.12750 0.48450 0.41700
C 	C 	0.20050 0.85440 0.58530 -0.27700
C 	C 	0.85980 0.48450 0.35700 0.41900
C 	C 	0.20050 0.58530 0.73090 -0.27200
C 	C 	0.85980 0.64300 0.12750 0.42300
C 	C 	0.20050 0.26910 0.85440 -0.26000
C 	C 	0.85980 0.87250 0.51550 0.43600
C 	C 	0.20050 0.14560 0.41470 -0.23600
O 	O 	0.35930 0.19200 0.61490 -0.47700
O 	O 	0.40640 0.04830 0.60630 -0.43500
O 	O 	0.35930 0.42290 0.80800 -0.46300
O 	O 	0.40640 0.55800 0.95170 -0.36800
O 	O 	0.35930 0.38510 0.57710 -0.46900
O 	O 	0.40640 0.39370 0.44200 -0.41200
O 	O 	0.35930 0.80800 0.38510 -0.46100
O 	O 	0.40640 0.95170 0.39370 -0.37000
O 	O 	0.35930 0.57710 0.19200 -0.47500
O 	O 	0.40640 0.44200 0.04830 -0.43700
O 	O 	0.35930 0.61490 0.42290 -0.47200
O 	O 	0.40640 0.60630 0.55800 -0.40700
O 	O 	0.14070 0.57710 0.38510 -0.47700
O 	O 	0.09360 0.44200 0.39370 -0.42300
O 	O 	0.14070 0.61490 0.19200 -0.48400
O 	O 	0.09360 0.60630 0.04830 -0.44600
O 	O 	0.14070 0.80800 0.42290 -0.47200
O 	O 	0.09360 0.95170 0.55800 -0.38800
O 	O 	0.14070 0.42290 0.61490 -0.47900
O 	O 	0.09360 0.55800 0.60630 -0.41800
O 	O 	0.14070 0.38510 0.80800 -0.46800
O 	O 	0.09360 0.39370 0.95170 -0.38000
O 	O 	0.14070 0.19200 0.57710 -0.48400
O 	O 	0.09360 0.04830 0.44200 -0.45400
O 	O 	0.64070 0.80800 0.38510 -0.46100
O 	O 	0.59360 0.95170 0.39370 -0.37000
O 	O 	0.64070 0.57710 0.19200 -0.47600
O 	O 	0.59360 0.44200 0.04830 -0.43700
O 	O 	0.64070 0.61490 0.42290 -0.47300
O 	O 	0.59360 0.60630 0.55800 -0.40800
O 	O 	0.64070 0.19200 0.61490 -0.47700
O 	O 	0.59360 0.04830 0.60630 -0.43600
O 	O 	0.64070 0.42290 0.80800 -0.46300
O 	O 	0.59360 0.55800 0.95170 -0.36900
O 	O 	0.64070 0.38510 0.57710 -0.47000
O 	O 	0.59360 0.39370 0.44200 -0.41300
O 	O 	0.85930 0.42290 0.61490 -0.46300
O 	O 	0.90640 0.55800 0.60630 -0.38800
O 	O 	0.85930 0.38510 0.80800 -0.45200
O 	O 	0.90640 0.39370 0.95170 -0.35400
O 	O 	0.85930 0.19200 0.57710 -0.46900
O 	O 	0.90640 0.04830 0.44200 -0.42700
O 	O 	0.85930 0.57710 0.38510 -0.46000
O 	O 	0.90640 0.44200 0.39370 -0.39300
O 	O 	0.85930 0.61490 0.19200 -0.46700
O 	O 	0.90640 0.60630 0.04830 -0.41400
O 	O 	0.85930 0.80800 0.42290 -0.45500
O 	O 	0.90640 0.95170 0.55800 -0.35600
O 	O 	0.75000 0.76380 0.23620 -0.22000
O 	O 	0.75000 0.47240 0.23620 -0.23200
O 	O 	0.75000 0.76380 0.52760 -0.20900
O 	O 	0.75000 0.23620 0.76380 -0.22100
O 	O 	0.75000 0.52760 0.76380 -0.20900
O 	O 	0.75000 0.23620 0.47240 -0.23200
O 	O 	0.25000 0.23620 0.76380 -0.22400
O 	O 	0.25000 0.52760 0.76380 -0.21300
O 	O 	0.25000 0.23620 0.47240 -0.23600
O 	O 	0.25000 0.76380 0.23620 -0.22500
O 	O 	0.25000 0.47240 0.23620 -0.23600
O 	O 	0.25000 0.76380 0.52760 -0.21300
