data_crystal

_cell_length_a 35.49450
_cell_length_b 35.49450
_cell_length_c 35.49450
_cell_angle_alpha 109.47100
_cell_angle_beta  109.47100
_cell_angle_gamma 109.47100

_symmetry_space_group_name_	'P 1'
_symmetry_space_group_name_H-M	'P 1'

loop_
_symmetry_equiv_pos_as_xyz
  x,y,z

loop_
_atom_site_label
_atom_site_type_symbol
_atom_site_fract_x
_atom_site_fract_y
_atom_site_fract_z
_atom_site_charge
Zn	Zn	0.40606 0.60185 0.65532 1.16400
Zn	Zn	0.44654 0.75075 0.84468 1.16400
Zn	Zn	0.05346 0.89814 0.30420 1.16500
Zn	Zn	0.09394 0.74926 0.19580 1.16400
Zn	Zn	0.80421 0.05347 0.39815 1.16300
Zn	Zn	0.69579 0.09393 0.24925 1.16300
Zn	Zn	0.15532 0.40606 0.10186 1.16300
Zn	Zn	0.34468 0.44654 0.25074 1.16500
Zn	Zn	0.75074 0.34468 0.94653 1.16500
Zn	Zn	0.60186 0.15532 0.90607 1.16500
Zn	Zn	0.74926 0.69580 0.59394 1.16500
Zn	Zn	0.89814 0.80420 0.55346 1.16400
Zn	Zn	0.25074 0.94653 0.34468 1.16500
Zn	Zn	0.10186 0.90607 0.15532 1.16600
Zn	Zn	0.24926 0.59394 0.69580 1.16500
Zn	Zn	0.39814 0.55346 0.80420 1.16500
Zn	Zn	0.90606 0.65532 0.60185 1.16400
Zn	Zn	0.94654 0.84468 0.75075 1.16400
Zn	Zn	0.55346 0.30420 0.89814 1.16500
Zn	Zn	0.59394 0.19580 0.74926 1.16500
Zn	Zn	0.30421 0.39815 0.05347 1.16400
Zn	Zn	0.19579 0.24925 0.09393 1.16400
Zn	Zn	0.65532 0.10186 0.40606 1.16400
Zn	Zn	0.84468 0.25074 0.44654 1.16400
Zn	Zn	0.50000 0.64852 0.50000 1.11900
Zn	Zn	0.50000 0.48022 0.50000 1.12000
Zn	Zn	0.64852 0.00000 -0.00000 1.11000
Zn	Zn	0.48022 0.00000 -0.00000 1.11200
Zn	Zn	0.85148 0.85148 0.35148 1.11800
Zn	Zn	0.01978 0.01978 0.51978 1.12000
Zn	Zn	1.00000 0.50000 0.14852 1.11200
Zn	Zn	1.00000 0.50000 0.98022 1.11800
Zn	Zn	0.50000 0.14852 0.50000 1.11800
Zn	Zn	0.50000 0.98022 0.50000 1.12300
Zn	Zn	0.14852 0.00000 -0.00000 1.11100
Zn	Zn	0.98022 0.00000 -0.00000 1.10900
Zn	Zn	1.00000 0.50000 0.64852 1.11500
Zn	Zn	1.00000 0.50000 0.48022 1.11600
Zn	Zn	0.35148 0.35148 0.85148 1.11900
Zn	Zn	0.51978 0.51978 0.01978 1.11700
Fe	Fe	0.37912 0.52198 0.49922 1.15500
Fe	Fe	0.28227 0.46736 0.63745 1.15200
Fe	Fe	0.52276 0.87990 0.00078 1.14500
Fe	Fe	0.32991 0.64482 0.86255 1.15200
Fe	Fe	0.97724 0.97802 0.35714 1.14900
Fe	Fe	0.17009 0.03264 0.31491 1.14700
Fe	Fe	0.12088 0.62010 0.14286 1.15500
Fe	Fe	0.21773 0.85518 0.18509 1.15200
Fe	Fe	0.85714 0.97724 0.47802 1.16200
Fe	Fe	0.81491 0.17009 0.53264 1.15200
Fe	Fe	0.64286 0.12088 0.12010 1.15400
Fe	Fe	0.68509 0.21773 0.35518 1.15200
Fe	Fe	0.99922 0.37912 0.02198 1.13700
Fe	Fe	0.13745 0.28227 0.96736 1.15700
Fe	Fe	0.50078 0.52276 0.37990 1.15500
Fe	Fe	0.36255 0.32991 0.14482 1.15200
Fe	Fe	0.87990 0.50078 0.02276 1.14600
Fe	Fe	0.64482 0.36255 0.82991 1.15200
Fe	Fe	0.52198 0.99922 0.87912 1.16400
Fe	Fe	0.46736 0.13745 0.78227 1.15200
Fe	Fe	0.62010 0.64286 0.62088 1.15500
Fe	Fe	0.85518 0.68509 0.71773 1.15200
Fe	Fe	0.97802 0.85714 0.47724 1.15000
Fe	Fe	0.03264 0.81491 0.67009 1.15800
Fe	Fe	0.37990 0.02276 0.50078 1.14700
Fe	Fe	0.14482 0.82991 0.36255 1.15200
Fe	Fe	0.02198 0.87912 0.99922 1.16800
Fe	Fe	0.96736 0.78227 0.13745 1.14600
Fe	Fe	0.12010 0.62088 0.64286 1.15500
Fe	Fe	0.35518 0.71773 0.68509 1.15200
Fe	Fe	0.47802 0.47724 0.85714 1.15500
Fe	Fe	0.53264 0.67009 0.81491 1.15200
Fe	Fe	0.87912 0.49922 0.52198 1.15500
Fe	Fe	0.78227 0.63745 0.46736 1.15200
Fe	Fe	0.02276 0.00078 0.87990 1.15300
Fe	Fe	0.82991 0.86255 0.64482 1.15200
Fe	Fe	0.47724 0.35714 0.97802 1.15900
Fe	Fe	0.67009 0.31491 0.03264 1.14700
Fe	Fe	0.62088 0.14286 0.62010 1.15500
Fe	Fe	0.71773 0.18509 0.85518 1.15200
Fe	Fe	0.35714 0.47802 0.97724 1.16200
Fe	Fe	0.31491 0.53264 0.17009 1.15200
Fe	Fe	0.14286 0.12010 0.12088 1.15500
Fe	Fe	0.18509 0.35518 0.21773 1.15200
Fe	Fe	0.49922 0.02198 0.37912 1.15100
Fe	Fe	0.63745 0.96736 0.28227 1.15700
Fe	Fe	0.00078 0.37990 0.52276 1.16700
Fe	Fe	0.86255 0.14482 0.32991 1.15200
B 	B 	0.21750 0.36330 0.56480 1.43000
B 	B 	0.27620 0.45430 0.42970 1.44800
B 	B 	0.29850 0.65270 0.93520 1.43800
B 	B 	0.52460 0.84650 0.07030 1.44100
B 	B 	0.20150 0.13670 0.35420 1.42900
B 	B 	0.97540 0.04570 0.32190 1.40300
B 	B 	0.28250 0.84730 0.14580 1.42800
B 	B 	0.22380 0.65350 0.17810 1.44700
B 	B 	0.85420 0.20150 0.63670 1.42900
B 	B 	0.82190 0.97540 0.54570 1.46800
B 	B 	0.64580 0.28250 0.34730 1.43000
B 	B 	0.67810 0.22380 0.15350 1.44900
B 	B 	0.06480 0.21750 0.86330 1.43800
B 	B 	0.92970 0.27620 0.95430 1.46800
B 	B 	0.43520 0.29850 0.15270 1.43100
B 	B 	0.57030 0.52460 0.34650 1.44800
B 	B 	0.65270 0.43520 0.79850 1.43000
B 	B 	0.84650 0.57030 0.02460 1.42500
B 	B 	0.36330 0.06480 0.71750 1.42100
B 	B 	0.45430 0.92970 0.77620 1.45300
B 	B 	0.84730 0.64580 0.78250 1.43100
B 	B 	0.65350 0.67810 0.72380 1.44800
B 	B 	0.13670 0.85420 0.70150 1.43100
B 	B 	0.04570 0.82190 0.47540 1.47500
B 	B 	0.15270 0.79850 0.43520 1.42800
B 	B 	0.34650 0.02460 0.57030 1.42500
B 	B 	0.86330 0.71750 0.06480 1.42000
B 	B 	0.95430 0.77620 0.92970 1.43100
B 	B 	0.34730 0.78250 0.64580 1.43000
B 	B 	0.15350 0.72380 0.67810 1.44600
B 	B 	0.63670 0.70150 0.85420 1.43000
B 	B 	0.54570 0.47540 0.82190 1.44800
B 	B 	0.71750 0.56480 0.36330 1.42900
B 	B 	0.77620 0.42970 0.45430 1.44800
B 	B 	0.79850 0.93520 0.65270 1.43700
B 	B 	0.02460 0.07030 0.84650 1.46200
B 	B 	0.70150 0.35420 0.13670 1.42900
B 	B 	0.47540 0.32190 0.04570 1.42400
B 	B 	0.78250 0.14580 0.84730 1.42800
B 	B 	0.72380 0.17810 0.65350 1.44700
B 	B 	0.35420 0.63670 0.20150 1.42900
B 	B 	0.32190 0.54570 0.97540 1.46900
B 	B 	0.14580 0.34730 0.28250 1.43000
B 	B 	0.17810 0.15350 0.22380 1.44900
B 	B 	0.56480 0.86330 0.21750 1.43000
B 	B 	0.42970 0.95430 0.27620 1.47100
B 	B 	0.93520 0.15270 0.29850 1.42100
B 	B 	0.07030 0.34650 0.52460 1.45500
H 	H 	0.19670 0.33020 0.54150 -0.52800
H 	H 	0.27400 0.31970 0.55550 -0.05700
H 	H 	0.35810 0.37180 0.60610 0.08700
H 	H 	0.37100 0.45070 0.65070 -0.03400
H 	H 	0.15700 0.32050 0.59590 -0.05800
H 	H 	0.16410 0.37370 0.66740 0.09000
H 	H 	0.22820 0.45150 0.69470 -0.04200
H 	H 	0.16420 0.35420 0.47580 -0.04800
H 	H 	0.18160 0.42780 0.47440 0.08700
H 	H 	0.24340 0.49060 0.55480 -0.03600
H 	H 	0.24310 0.43240 0.40710 -0.53600
H 	H 	0.35110 0.60700 0.52110 -0.01000
H 	H 	0.24400 0.38210 0.45410 -0.06800
H 	H 	0.29930 0.39260 0.52350 0.11300
H 	H 	0.37260 0.46450 0.55510 -0.04800
H 	H 	0.26470 0.41120 0.33610 -0.04900
H 	H 	0.33730 0.43760 0.33330 0.06600
H 	H 	0.40060 0.49130 0.41350 -0.03300
H 	H 	0.28870 0.65520 0.95850 -0.52800
H 	H 	0.26420 0.71850 0.94450 -0.05400
H 	H 	0.26570 0.75200 0.89390 0.09000
H 	H 	0.30000 0.72030 0.84930 -0.03400
H 	H 	0.22460 0.56110 0.90410 -0.05700
H 	H 	0.20630 0.49670 0.83260 0.09000
H 	H 	0.25680 0.53350 0.80530 -0.04200
H 	H 	0.37840 0.68840 0.02420 -0.08100
H 	H 	0.45340 0.70720 0.02560 0.10900
H 	H 	0.43580 0.68860 0.94520 -0.04800
H 	H 	0.52530 0.83600 0.09290 -0.53400
H 	H 	0.58590 0.83000 0.97890 -0.01800
H 	H 	0.42800 0.78990 0.04590 -0.05900
H 	H 	0.36910 0.77580 0.97650 0.10200
H 	H 	0.40940 0.81750 0.94490 -0.04100
H 	H 	0.57510 0.92860 0.16390 -0.04000
H 	H 	0.60430 0.00400 0.16670 0.04000
H 	H 	0.57780 0.98710 0.08650 -0.02200
H 	H 	0.21130 0.16980 0.36650 -0.52800
H 	H 	0.23580 0.18030 0.45430 -0.05700
H 	H 	0.23430 0.12820 0.48630 0.08700
H 	H 	0.20000 0.04930 0.42030 -0.03800
H 	H 	0.27540 0.17950 0.33650 -0.05900
H 	H 	0.29370 0.12630 0.29040 0.08700
H 	H 	0.24320 0.04850 0.27670 -0.04600
H 	H 	0.12160 0.14580 0.31000 -0.04800
H 	H 	0.04660 0.07220 0.25380 0.08800
H 	H 	0.06420 0.00940 0.25280 -0.03900
H 	H 	0.97470 0.06760 0.31070 -0.52600
H 	H 	0.91410 0.89300 0.24410 -0.01200
H 	H 	0.07200 0.11790 0.36190 -0.06500
H 	H 	0.13090 0.10740 0.40670 0.11200
H 	H 	0.09060 0.03550 0.40810 -0.05100
H 	H 	0.92490 0.08880 0.35350 -0.04800
H 	H 	0.89570 0.06240 0.39970 0.06400
H 	H 	0.92220 0.00870 0.40930 -0.03600
H 	H 	0.30330 0.84480 0.13350 -0.52800
H 	H 	0.22600 0.78150 0.04570 -0.05800
H 	H 	0.14190 0.74800 0.01370 0.08600
H 	H 	0.12900 0.77970 0.07970 -0.03500
H 	H 	0.34300 0.93890 0.16350 -0.04900
H 	H 	0.33590 0.00330 0.20960 0.06200
H 	H 	0.27180 0.96650 0.22330 -0.03200
H 	H 	0.33580 0.81160 0.19000 -0.04900
H 	H 	0.31840 0.79280 0.24620 0.08600
H 	H 	0.25660 0.81140 0.24720 -0.03600
H 	H 	0.25690 0.66400 0.18930 -0.53600
H 	H 	0.14890 0.67000 0.25590 -0.00900
H 	H 	0.25600 0.71010 0.13810 -0.06900
H 	H 	0.20070 0.72420 0.09330 0.11300
H 	H 	0.12740 0.68250 0.09190 -0.04700
H 	H 	0.23530 0.57140 0.14650 -0.04900
H 	H 	0.16270 0.49600 0.10030 0.06500
H 	H 	0.09940 0.51290 0.09070 -0.03300
H 	H 	0.86650 0.21130 0.66980 -0.52900
H 	H 	0.95430 0.23580 0.68030 -0.05900
H 	H 	0.98630 0.23430 0.62820 0.08300
H 	H 	0.92030 0.20000 0.54930 -0.03600
H 	H 	0.83650 0.27540 0.67950 -0.05900
H 	H 	0.79040 0.29370 0.62630 0.08800
H 	H 	0.77670 0.24320 0.54850 -0.04200
H 	H 	0.81000 0.12160 0.64580 -0.05000
H 	H 	0.75380 0.04660 0.57220 0.08300
H 	H 	0.75280 0.06420 0.50940 -0.03800
H 	H 	0.81070 0.97470 0.56760 -0.54100
H 	H 	0.74410 0.91410 0.39300 -0.00900
H 	H 	0.86190 0.07200 0.61790 -0.07200
H 	H 	0.90670 0.13090 0.60740 0.11300
H 	H 	0.90810 0.09060 0.53550 -0.05000
H 	H 	0.85350 0.92490 0.58880 -0.05000
H 	H 	0.89970 0.89570 0.56240 0.06500
H 	H 	0.90930 0.92220 0.50870 -0.03300
H 	H 	0.63350 0.30330 0.34480 -0.52800
H 	H 	0.54570 0.22600 0.28150 -0.05700
H 	H 	0.51370 0.14190 0.24800 0.08600
H 	H 	0.57970 0.12900 0.27970 -0.03500
H 	H 	0.66350 0.34300 0.43890 -0.05900
H 	H 	0.70960 0.33590 0.50330 0.08800
H 	H 	0.72330 0.27180 0.46650 -0.04200
H 	H 	0.69000 0.33580 0.31160 -0.04900
H 	H 	0.74620 0.31840 0.29280 0.08600
H 	H 	0.74720 0.25660 0.31140 -0.03600
H 	H 	0.68930 0.25690 0.16400 -0.53700
H 	H 	0.75590 0.14890 0.17000 -0.01200
H 	H 	0.63810 0.25600 0.21010 -0.06900
H 	H 	0.59330 0.20070 0.22420 0.11300
H 	H 	0.59190 0.12740 0.18250 -0.04900
H 	H 	0.64650 0.23530 0.07140 -0.05900
H 	H 	0.60030 0.16270 0.99600 0.09200
H 	H 	0.59070 0.09940 0.01290 -0.04500
H 	H 	0.04150 0.19670 0.83020 -0.52900
H 	H 	0.05550 0.27400 0.81970 -0.05400
H 	H 	0.10610 0.35810 0.87180 0.09000
H 	H 	0.15070 0.37100 0.95070 -0.03100
H 	H 	0.09590 0.15700 0.82050 -0.05800
H 	H 	0.16740 0.16410 0.87370 0.08900
H 	H 	0.19470 0.22820 0.95150 -0.03800
H 	H 	0.97580 0.16420 0.85420 -0.08200
H 	H 	0.97440 0.18160 0.92780 0.11000
H 	H 	0.05480 0.24340 0.99060 -0.04300
H 	H 	0.90710 0.24310 0.93240 -0.54200
H 	H 	0.02110 0.35110 0.10700 -0.02100
H 	H 	0.95410 0.24400 0.88210 -0.06000
H 	H 	0.02350 0.29930 0.89260 0.10300
H 	H 	0.05510 0.37260 0.96450 -0.03800
H 	H 	0.83610 0.26470 0.91120 -0.05000
H 	H 	0.83330 0.33730 0.93760 0.06600
H 	H 	0.91350 0.40060 0.99130 -0.03200
H 	H 	0.45850 0.28870 0.15520 -0.52900
H 	H 	0.44450 0.26420 0.21850 -0.05800
H 	H 	0.39390 0.26570 0.25200 0.08700
H 	H 	0.34930 0.30000 0.22030 -0.03400
H 	H 	0.40410 0.22460 0.06110 -0.06900
H 	H 	0.33260 0.20630 0.99670 0.11300
H 	H 	0.30530 0.25680 0.03350 -0.05100
H 	H 	0.52420 0.37840 0.18840 -0.04900
H 	H 	0.52560 0.45340 0.20720 0.08600
H 	H 	0.44520 0.43580 0.18860 -0.03600
H 	H 	0.59290 0.52530 0.33600 -0.53600
H 	H 	0.47890 0.58590 0.33000 -0.01000
H 	H 	0.54590 0.42800 0.28990 -0.06900
H 	H 	0.47650 0.36910 0.27580 0.11300
H 	H 	0.44490 0.40940 0.31750 -0.04800
H 	H 	0.66390 0.57510 0.42860 -0.04900
H 	H 	0.66670 0.60430 0.50400 0.06600
H 	H 	0.58650 0.57780 0.48710 -0.03300
H 	H 	0.65520 0.45850 0.78870 -0.52800
H 	H 	0.71850 0.44450 0.76420 -0.05700
H 	H 	0.75200 0.39390 0.76570 0.08700
H 	H 	0.72030 0.34930 0.80000 -0.03400
H 	H 	0.56110 0.40410 0.72460 -0.05900
H 	H 	0.49670 0.33260 0.70630 0.08800
H 	H 	0.53350 0.30530 0.75680 -0.04200
H 	H 	0.68840 0.52420 0.87840 -0.04800
H 	H 	0.70720 0.52560 0.95340 0.09000
H 	H 	0.68860 0.44520 0.93580 -0.03300
H 	H 	0.83600 0.59290 0.02530 -0.53200
H 	H 	0.83000 0.47890 0.08590 -0.01200
H 	H 	0.78990 0.54590 0.92800 -0.06600
H 	H 	0.77580 0.47650 0.86910 0.11300
H 	H 	0.81750 0.44490 0.90940 -0.04700
H 	H 	0.92860 0.66390 0.07510 -0.05900
H 	H 	0.00400 0.66670 0.10430 0.09500
H 	H 	0.98710 0.58650 0.07780 -0.04800
H 	H 	0.33020 0.04150 0.69670 -0.52800
H 	H 	0.31970 0.05550 0.77400 -0.05900
H 	H 	0.37180 0.10610 0.85810 0.08700
H 	H 	0.45070 0.15070 0.87100 -0.03300
H 	H 	0.32050 0.09590 0.65700 -0.06000
H 	H 	0.37370 0.16740 0.66410 0.08800
H 	H 	0.45150 0.19470 0.72820 -0.04200
H 	H 	0.35420 0.97580 0.66420 -0.01500
H 	H 	0.42780 0.97440 0.68160 0.06300
H 	H 	0.49060 0.05480 0.74340 -0.02300
H 	H 	0.43240 0.90710 0.74310 -0.53800
H 	H 	0.60700 0.02110 0.85110 -0.00100
H 	H 	0.38210 0.95410 0.74400 -0.07800
H 	H 	0.39260 0.02350 0.79930 0.12500
H 	H 	0.46450 0.05510 0.87260 -0.05300
H 	H 	0.41120 0.83610 0.76470 -0.04900
H 	H 	0.43760 0.83330 0.83730 0.06600
H 	H 	0.49130 0.91350 0.90060 -0.03000
H 	H 	0.84480 0.63350 0.80330 -0.52900
H 	H 	0.78150 0.54570 0.72600 -0.05700
H 	H 	0.74800 0.51370 0.64190 0.08700
H 	H 	0.77970 0.57970 0.62900 -0.03400
H 	H 	0.93890 0.66350 0.84300 -0.06800
H 	H 	0.00330 0.70960 0.83590 0.11600
H 	H 	0.96650 0.72330 0.77180 -0.05100
H 	H 	0.81160 0.69000 0.83580 -0.04800
H 	H 	0.79280 0.74620 0.81840 0.08700
H 	H 	0.81140 0.74720 0.75660 -0.03600
H 	H 	0.66400 0.68930 0.75690 -0.53600
H 	H 	0.67000 0.75590 0.64890 -0.01000
H 	H 	0.71010 0.63810 0.75600 -0.06800
H 	H 	0.72420 0.59330 0.70070 0.11300
H 	H 	0.68250 0.59190 0.62740 -0.04800
H 	H 	0.57140 0.64650 0.73530 -0.04900
H 	H 	0.49600 0.60030 0.66270 0.06600
H 	H 	0.51290 0.59070 0.59940 -0.03300
H 	H 	0.16980 0.86650 0.71130 -0.52700
H 	H 	0.18030 0.95430 0.73580 -0.05400
H 	H 	0.12820 0.98630 0.73430 0.09200
H 	H 	0.04930 0.92030 0.70000 -0.02900
H 	H 	0.17950 0.83650 0.77540 -0.05700
H 	H 	0.12630 0.79040 0.79370 0.09100
H 	H 	0.04850 0.77670 0.74320 -0.03700
H 	H 	0.14580 0.81000 0.62160 -0.04800
H 	H 	0.07220 0.75380 0.54660 0.08800
H 	H 	0.00940 0.75280 0.56420 -0.03000
H 	H 	0.06760 0.81070 0.47470 -0.54400
H 	H 	0.89300 0.74410 0.41410 -0.01000
H 	H 	0.11790 0.86190 0.57200 -0.06900
H 	H 	0.10740 0.90670 0.63090 0.11500
H 	H 	0.03550 0.90810 0.59060 -0.04200
H 	H 	0.08880 0.85350 0.42490 -0.05000
H 	H 	0.06240 0.89970 0.39570 0.06800
H 	H 	0.00870 0.90930 0.42220 -0.02800
H 	H 	0.15520 0.78870 0.45850 -0.52700
H 	H 	0.21850 0.76420 0.44450 -0.05600
H 	H 	0.25200 0.76570 0.39390 0.08800
H 	H 	0.22030 0.80000 0.34930 -0.03400
H 	H 	0.06110 0.72460 0.40410 -0.04700
H 	H 	0.99670 0.70630 0.33260 0.05900
H 	H 	0.03350 0.75680 0.30530 -0.03000
H 	H 	0.18840 0.87840 0.52420 -0.04800
H 	H 	0.20720 0.95340 0.52560 0.09000
H 	H 	0.18860 0.93580 0.44520 -0.03300
H 	H 	0.33600 0.02530 0.59290 -0.53200
H 	H 	0.33000 0.08590 0.47890 -0.01100
H 	H 	0.28990 0.92800 0.54590 -0.06600
H 	H 	0.27580 0.86910 0.47650 0.11300
H 	H 	0.31750 0.90940 0.44490 -0.04700
H 	H 	0.42860 0.07510 0.66390 -0.04800
H 	H 	0.50400 0.10430 0.66670 0.06400
H 	H 	0.48710 0.07780 0.58650 -0.03400
H 	H 	0.83020 0.69670 0.04150 -0.52800
H 	H 	0.81970 0.77400 0.05550 -0.05900
H 	H 	0.87180 0.85810 0.10610 0.08700
H 	H 	0.95070 0.87100 0.15070 -0.03700
H 	H 	0.82050 0.65700 0.09590 -0.06000
H 	H 	0.87370 0.66410 0.16740 0.08700
H 	H 	0.95150 0.72820 0.19470 -0.04600
H 	H 	0.85420 0.66420 0.97580 -0.01100
H 	H 	0.92780 0.68160 0.97440 0.05800
H 	H 	0.99060 0.74340 0.05480 -0.02800
H 	H 	0.93240 0.74310 0.90710 -0.53200
H 	H 	0.10700 0.85110 0.02110 -0.00100
H 	H 	0.88210 0.74400 0.95410 -0.07800
H 	H 	0.89260 0.79930 0.02350 0.12500
H 	H 	0.96450 0.87260 0.05510 -0.05800
H 	H 	0.91120 0.76470 0.83610 -0.04900
H 	H 	0.93760 0.83730 0.83330 0.06500
H 	H 	0.99130 0.90060 0.91350 -0.03300
H 	H 	0.34480 0.80330 0.63350 -0.52800
H 	H 	0.28150 0.72600 0.54570 -0.05700
H 	H 	0.24800 0.64190 0.51370 0.08800
H 	H 	0.27970 0.62900 0.57970 -0.03400
H 	H 	0.43890 0.84300 0.66350 -0.05800
H 	H 	0.50330 0.83590 0.70960 0.09000
H 	H 	0.46650 0.77180 0.72330 -0.04200
H 	H 	0.31160 0.83580 0.69000 -0.04800
H 	H 	0.29280 0.81840 0.74620 0.08700
H 	H 	0.31140 0.75660 0.74720 -0.03600
H 	H 	0.16400 0.75690 0.68930 -0.53600
H 	H 	0.17000 0.64890 0.75590 -0.00900
H 	H 	0.21010 0.75600 0.63810 -0.06800
H 	H 	0.22420 0.70070 0.59330 0.11400
H 	H 	0.18250 0.62740 0.59190 -0.04700
H 	H 	0.07140 0.73530 0.64650 -0.03900
H 	H 	0.99600 0.66270 0.60030 0.03800
H 	H 	0.01290 0.59940 0.59070 -0.01900
H 	H 	0.66980 0.71130 0.86650 -0.52700
H 	H 	0.68030 0.73580 0.95430 -0.05400
H 	H 	0.62820 0.73430 0.98630 0.09200
H 	H 	0.54930 0.70000 0.92030 -0.03300
H 	H 	0.67950 0.77540 0.83650 -0.05700
H 	H 	0.62630 0.79370 0.79040 0.09000
H 	H 	0.54850 0.74320 0.77670 -0.04200
H 	H 	0.64580 0.62160 0.81000 -0.04800
H 	H 	0.57220 0.54660 0.75380 0.08600
H 	H 	0.50940 0.56420 0.75280 -0.03600
H 	H 	0.56760 0.47470 0.81070 -0.53700
H 	H 	0.39300 0.41410 0.74410 -0.01000
H 	H 	0.61790 0.57200 0.86190 -0.06800
H 	H 	0.60740 0.63090 0.90670 0.11400
H 	H 	0.53550 0.59060 0.90810 -0.04700
H 	H 	0.58880 0.42490 0.85350 -0.04900
H 	H 	0.56240 0.39570 0.89970 0.06700
H 	H 	0.50870 0.42220 0.90930 -0.03200
H 	H 	0.69670 0.54150 0.33020 -0.52800
H 	H 	0.77400 0.55550 0.31970 -0.05700
H 	H 	0.85810 0.60610 0.37180 0.08600
H 	H 	0.87100 0.65070 0.45070 -0.03500
H 	H 	0.65700 0.59590 0.32050 -0.05900
H 	H 	0.66410 0.66740 0.37370 0.08800
H 	H 	0.72820 0.69470 0.45150 -0.04200
H 	H 	0.66420 0.47580 0.35420 -0.04900
H 	H 	0.68160 0.47440 0.42780 0.08600
H 	H 	0.74340 0.55480 0.49060 -0.03600
H 	H 	0.74310 0.40710 0.43240 -0.53600
H 	H 	0.85110 0.52110 0.60700 -0.01100
H 	H 	0.74400 0.45410 0.38210 -0.06900
H 	H 	0.79930 0.52350 0.39260 0.11300
H 	H 	0.87260 0.55510 0.46450 -0.04900
H 	H 	0.76470 0.33610 0.41120 -0.04900
H 	H 	0.83730 0.33330 0.43760 0.06500
H 	H 	0.90060 0.41350 0.49130 -0.03300
H 	H 	0.78870 0.95850 0.65520 -0.52800
H 	H 	0.76420 0.94450 0.71850 -0.05500
H 	H 	0.76570 0.89390 0.75200 0.08900
H 	H 	0.80000 0.84930 0.72030 -0.03400
H 	H 	0.72460 0.90410 0.56110 -0.05700
H 	H 	0.70630 0.83260 0.49670 0.08900
H 	H 	0.75680 0.80530 0.53350 -0.04200
H 	H 	0.87840 0.02420 0.68840 -0.08000
H 	H 	0.95340 0.02560 0.70720 0.10400
H 	H 	0.93580 0.94520 0.68860 -0.04900
H 	H 	0.02530 0.09290 0.83600 -0.53900
H 	H 	0.08590 0.97890 0.83000 -0.01700
H 	H 	0.92800 0.04590 0.78990 -0.06300
H 	H 	0.86910 0.97650 0.77580 0.10400
H 	H 	0.90940 0.94490 0.81750 -0.04300
H 	H 	0.07510 0.16390 0.92860 -0.04100
H 	H 	0.10430 0.16670 0.00400 0.04300
H 	H 	0.07780 0.08650 0.98710 -0.02200
H 	H 	0.71130 0.36650 0.16980 -0.52800
H 	H 	0.73580 0.45430 0.18030 -0.05700
H 	H 	0.73430 0.48630 0.12820 0.08700
H 	H 	0.70000 0.42030 0.04930 -0.03800
H 	H 	0.77540 0.33650 0.17950 -0.05900
H 	H 	0.79370 0.29040 0.12630 0.08600
H 	H 	0.74320 0.27670 0.04850 -0.04600
H 	H 	0.62160 0.31000 0.14580 -0.04900
H 	H 	0.54660 0.25380 0.07220 0.08400
H 	H 	0.56420 0.25280 0.00940 -0.04100
H 	H 	0.47470 0.31070 0.06760 -0.53000
H 	H 	0.41410 0.24410 0.89300 -0.01000
H 	H 	0.57200 0.36190 0.11790 -0.06800
H 	H 	0.63090 0.40670 0.10740 0.11200
H 	H 	0.59060 0.40810 0.03550 -0.05200
H 	H 	0.42490 0.35350 0.08880 -0.04900
H 	H 	0.39570 0.39970 0.06240 0.06500
H 	H 	0.42220 0.40930 0.00870 -0.03500
H 	H 	0.80330 0.13350 0.84480 -0.52800
H 	H 	0.72600 0.04570 0.78150 -0.05900
H 	H 	0.64190 0.01370 0.74800 0.08400
H 	H 	0.62900 0.07970 0.77970 -0.03600
H 	H 	0.84300 0.16350 0.93890 -0.04900
H 	H 	0.83590 0.20960 0.00330 0.05900
H 	H 	0.77180 0.22330 0.96650 -0.03100
H 	H 	0.83580 0.19000 0.81160 -0.04900
H 	H 	0.81840 0.24620 0.79280 0.08600
H 	H 	0.75660 0.24720 0.81140 -0.03600
H 	H 	0.75690 0.18930 0.66400 -0.53700
H 	H 	0.64890 0.25590 0.67000 -0.01000
H 	H 	0.75600 0.13810 0.71010 -0.06900
H 	H 	0.70070 0.09330 0.72420 0.11300
H 	H 	0.62740 0.09190 0.68250 -0.04900
H 	H 	0.73530 0.14650 0.57140 -0.04900
H 	H 	0.66270 0.10030 0.49600 0.06500
H 	H 	0.59940 0.09070 0.51290 -0.03300
H 	H 	0.36650 0.66980 0.21130 -0.52800
H 	H 	0.45430 0.68030 0.23580 -0.05700
H 	H 	0.48630 0.62820 0.23430 0.08700
H 	H 	0.42030 0.54930 0.20000 -0.03400
H 	H 	0.33650 0.67950 0.27540 -0.05800
H 	H 	0.29040 0.62630 0.29370 0.08900
H 	H 	0.27670 0.54850 0.24320 -0.04200
H 	H 	0.31000 0.64580 0.12160 -0.04900
H 	H 	0.25380 0.57220 0.04660 0.08300
H 	H 	0.25280 0.50940 0.06420 -0.03800
H 	H 	0.31070 0.56760 0.97470 -0.54100
H 	H 	0.24410 0.39300 0.91410 -0.00800
H 	H 	0.36190 0.61790 0.07200 -0.07100
H 	H 	0.40670 0.60740 0.13090 0.11400
H 	H 	0.40810 0.53550 0.09060 -0.04800
H 	H 	0.35350 0.58880 0.92490 -0.05000
H 	H 	0.39970 0.56240 0.89570 0.06700
H 	H 	0.40930 0.50870 0.92220 -0.03200
H 	H 	0.13350 0.34480 0.30330 -0.52700
H 	H 	0.04570 0.28150 0.22600 -0.05400
H 	H 	0.01370 0.24800 0.14190 0.09100
H 	H 	0.07970 0.27970 0.12900 -0.03300
H 	H 	0.16350 0.43890 0.34300 -0.05800
H 	H 	0.20960 0.50330 0.33590 0.08900
H 	H 	0.22330 0.46650 0.27180 -0.04200
H 	H 	0.19000 0.31160 0.33580 -0.04800
H 	H 	0.24620 0.29280 0.31840 0.08600
H 	H 	0.24720 0.31140 0.25660 -0.03600
H 	H 	0.18930 0.16400 0.25690 -0.53700
H 	H 	0.25590 0.17000 0.14890 -0.01100
H 	H 	0.13810 0.21010 0.25600 -0.06800
H 	H 	0.09330 0.22420 0.20070 0.11400
H 	H 	0.09190 0.18250 0.12740 -0.04800
H 	H 	0.14650 0.07140 0.23530 -0.05900
H 	H 	0.10030 0.99600 0.16270 0.09400
H 	H 	0.09070 0.01290 0.09940 -0.04400
H 	H 	0.54150 0.83020 0.19670 -0.52900
H 	H 	0.55550 0.81970 0.27400 -0.05700
H 	H 	0.60610 0.87180 0.35810 0.08800
H 	H 	0.65070 0.95070 0.37100 -0.03100
H 	H 	0.59590 0.82050 0.15700 -0.05900
H 	H 	0.66740 0.87370 0.16410 0.08800
H 	H 	0.69470 0.95150 0.22820 -0.03800
H 	H 	0.47580 0.85420 0.16420 -0.04900
H 	H 	0.47440 0.92780 0.18160 0.08700
H 	H 	0.55480 0.99060 0.24340 -0.03100
H 	H 	0.40710 0.93240 0.24310 -0.54300
H 	H 	0.52110 0.10700 0.35110 -0.01000
H 	H 	0.45410 0.88210 0.24400 -0.07000
H 	H 	0.52350 0.89260 0.29930 0.11400
H 	H 	0.55510 0.96450 0.37260 -0.04400
H 	H 	0.33610 0.91120 0.26470 -0.05000
H 	H 	0.33330 0.93760 0.33730 0.06600
H 	H 	0.41350 0.99130 0.40060 -0.03000
H 	H 	0.95850 0.15520 0.28870 -0.52900
H 	H 	0.94450 0.21850 0.26420 -0.06000
H 	H 	0.89390 0.25200 0.26570 0.08600
H 	H 	0.84930 0.22030 0.30000 -0.03400
H 	H 	0.90410 0.06110 0.22460 -0.07000
H 	H 	0.83260 0.99670 0.20630 0.11100
H 	H 	0.80530 0.03350 0.25680 -0.05100
H 	H 	0.02420 0.18840 0.37840 -0.01100
H 	H 	0.02560 0.20720 0.45340 0.06000
H 	H 	0.94520 0.18860 0.43580 -0.02200
H 	H 	0.09290 0.33600 0.52530 -0.53800
H 	H 	0.97890 0.33000 0.58590 -0.00000
H 	H 	0.04590 0.28990 0.42800 -0.07900
H 	H 	0.97650 0.27580 0.36910 0.12600
H 	H 	0.94490 0.31750 0.40940 -0.05500
H 	H 	0.16390 0.42860 0.57510 -0.05000
H 	H 	0.16670 0.50400 0.60430 0.06600
H 	H 	0.08650 0.48710 0.57780 -0.03000
C 	C 	0.42050 0.57363 0.50033 -0.22000
C 	C 	0.42587 0.50567 0.50980 -0.22100
C 	C 	0.37579 0.67487 0.66820 -0.22100
C 	C 	0.48788 0.64398 0.75138 -0.20900
C 	C 	0.40407 0.56050 0.56417 -0.20900
C 	C 	0.32967 0.51435 0.63802 -0.20700
C 	C 	0.28900 0.35130 0.57690 0.17800
C 	C 	0.33520 0.37990 0.60430 -0.21800
C 	C 	0.34219 0.42377 0.62956 0.11300
C 	C 	0.17750 0.35240 0.61390 0.18500
C 	C 	0.18140 0.38110 0.65330 -0.23100
C 	C 	0.21710 0.42420 0.66770 0.12000
C 	C 	0.18590 0.38400 0.50090 0.17600
C 	C 	0.19530 0.42440 0.49990 -0.20900
C 	C 	0.22940 0.45887 0.54467 0.11300
C 	C 	0.24990 0.51080 0.45370 0.05100
C 	C 	0.28020 0.55980 0.48720 -0.05000
C 	C 	0.32680 0.57610 0.50290 0.02600
C 	C 	0.27480 0.40660 0.47340 0.23600
C 	C 	0.30430 0.41180 0.51070 -0.27400
C 	C 	0.34500 0.45180 0.52800 0.13600
C 	C 	0.29463 0.43280 0.36143 0.17200
C 	C 	0.33430 0.44680 0.35970 -0.20700
C 	C 	0.36910 0.47690 0.40420 0.09400
C 	C 	0.57330 0.92017 0.99967 -0.20900
C 	C 	0.49587 0.91607 0.99020 -0.21200
C 	C 	0.50667 0.70759 0.83180 -0.22000
C 	C 	0.39260 0.73650 0.74862 -0.20900
C 	C 	0.49633 0.83990 0.93583 -0.20300
C 	C 	0.37633 0.69165 0.86198 -0.20700
C 	C 	0.27440 0.71210 0.92310 0.18000
C 	C 	0.27560 0.73090 0.89570 -0.21800
C 	C 	0.29421 0.71263 0.87044 0.11400
C 	C 	0.23850 0.56360 0.88610 0.18600
C 	C 	0.22780 0.52810 0.84670 -0.23100
C 	C 	0.25650 0.54940 0.83230 0.12000
C 	C 	0.38310 0.68500 0.99910 0.24500
C 	C 	0.42450 0.69540 0.00010 -0.28400
C 	C 	0.41420 0.68473 0.95533 0.15700
C 	C 	0.55710 0.79620 0.04630 0.05200
C 	C 	0.57260 0.79300 0.01280 -0.07500
C 	C 	0.57320 0.82390 0.99710 0.06200
C 	C 	0.43320 0.80140 0.02660 0.20100
C 	C 	0.40110 0.79360 0.98930 -0.23500
C 	C 	0.42380 0.81700 0.97200 0.12200
C 	C 	0.57137 0.93320 0.13857 0.15100
C 	C 	0.58710 0.97460 0.14030 -0.16100
C 	C 	0.57270 0.96490 0.09580 0.07300
C 	C 	0.92670 0.92637 0.34687 -0.22400
C 	C 	0.00413 0.99433 0.42020 -0.18800
C 	C 	0.99333 0.82513 0.20092 -0.24600
C 	C 	0.10740 0.85602 0.34390 -0.20800
C 	C 	0.00367 0.93950 0.34357 -0.19400
C 	C 	0.12367 0.98565 0.31532 -0.19300
C 	C 	0.22560 0.14870 0.43770 0.17800
C 	C 	0.22440 0.12010 0.45530 -0.21900
C 	C 	0.20579 0.07623 0.41842 0.11300
C 	C 	0.26150 0.14760 0.32510 0.18500
C 	C 	0.27220 0.11890 0.30030 -0.23200
C 	C 	0.24350 0.07580 0.29290 0.11900
C 	C 	0.11690 0.11600 0.30190 0.17600
C 	C 	0.07550 0.07560 0.27090 -0.21000
C 	C 	0.08580 0.04113 0.27053 0.11300
C 	C 	0.94290 0.98920 0.23910 0.05200
C 	C 	0.92740 0.94020 0.22040 -0.05200
C 	C 	0.92680 0.92390 0.25070 0.02500
C 	C 	0.06680 0.09340 0.36820 0.23200
C 	C 	0.09890 0.08820 0.39250 -0.27100
C 	C 	0.07620 0.04820 0.39320 0.13400
C 	C 	0.92863 0.06720 0.36183 0.16600
C 	C 	0.91290 0.05320 0.38750 -0.20500
C 	C 	0.92730 0.02310 0.39220 0.09000
C 	C 	0.07950 0.57983 0.15313 -0.21800
C 	C 	0.07413 0.58393 0.07980 -0.21900
C 	C 	0.12421 0.79241 0.29908 -0.22000
C 	C 	0.01212 0.76350 0.15610 -0.19400
C 	C 	0.09593 0.66010 0.15643 -0.20700
C 	C 	0.17033 0.80835 0.18468 -0.20700
C 	C 	0.21100 0.78790 0.06230 0.17700
C 	C 	0.16480 0.76910 0.04470 -0.21900
C 	C 	0.15781 0.78737 0.08158 0.11300
C 	C 	0.32250 0.93640 0.17490 0.16500
C 	C 	0.31860 0.97190 0.19970 -0.18700
C 	C 	0.28290 0.95060 0.20710 0.10100
C 	C 	0.31410 0.81500 0.19810 0.17600
C 	C 	0.30470 0.80460 0.22910 -0.21000
C 	C 	0.27060 0.81527 0.22947 0.11300
C 	C 	0.25010 0.70380 0.26090 0.05000
C 	C 	0.21980 0.70700 0.27960 -0.05000
C 	C 	0.17320 0.67610 0.24930 0.02600
C 	C 	0.22520 0.69860 0.13180 0.23600
C 	C 	0.19570 0.70640 0.10750 -0.27400
C 	C 	0.15500 0.68300 0.10680 0.13600
C 	C 	0.20537 0.56680 0.13817 0.17200
C 	C 	0.16570 0.52540 0.11250 -0.20700
C 	C 	0.13090 0.53510 0.10780 0.09400
C 	C 	0.84687 0.92670 0.42637 -0.21500
C 	C 	0.92020 0.00413 0.49433 -0.23200
C 	C 	0.70092 0.99333 0.32513 -0.20100
C 	C 	0.84390 0.10740 0.35602 -0.21000
C 	C 	0.84357 0.00367 0.43950 -0.21900
C 	C 	0.81532 0.12367 0.48565 -0.20800
C 	C 	0.93770 0.22560 0.64870 0.17700
C 	C 	0.95530 0.22440 0.62010 -0.22000
C 	C 	0.91842 0.20579 0.57623 0.11200
C 	C 	0.82510 0.26150 0.64760 0.18500
C 	C 	0.80030 0.27220 0.61890 -0.23100
C 	C 	0.79290 0.24350 0.57580 0.11900
C 	C 	0.80190 0.11690 0.61600 0.17500
C 	C 	0.77090 0.07550 0.57560 -0.21000
C 	C 	0.77053 0.08580 0.54113 0.11200
C 	C 	0.73910 0.94290 0.48920 0.05400
C 	C 	0.72040 0.92740 0.44020 -0.04900
C 	C 	0.75070 0.92680 0.42390 0.02800
C 	C 	0.86820 0.06680 0.59340 0.23800
C 	C 	0.89250 0.09890 0.58820 -0.27700
C 	C 	0.89320 0.07620 0.54820 0.13700
C 	C 	0.86183 0.92863 0.56720 0.17400
C 	C 	0.88750 0.91290 0.55320 -0.20800
C 	C 	0.89220 0.92730 0.52310 0.09600
C 	C 	0.65313 0.07950 0.07983 -0.22400
C 	C 	0.57980 0.07413 0.08393 -0.22500
C 	C 	0.79908 0.12421 0.29241 -0.22200
C 	C 	0.65610 0.01212 0.26350 -0.22200
C 	C 	0.65643 0.09593 0.16010 -0.21200
C 	C 	0.68468 0.17033 0.30835 -0.20800
C 	C 	0.56230 0.21100 0.28790 0.17700
C 	C 	0.54470 0.16480 0.26910 -0.21900
C 	C 	0.58158 0.15781 0.28737 0.11300
C 	C 	0.67490 0.32250 0.43640 0.18500
C 	C 	0.69970 0.31860 0.47190 -0.23100
C 	C 	0.70710 0.28290 0.45060 0.12000
C 	C 	0.69810 0.31410 0.31500 0.17600
C 	C 	0.72910 0.30470 0.30460 -0.21000
C 	C 	0.72947 0.27060 0.31527 0.11300
C 	C 	0.76090 0.25010 0.20380 0.04900
C 	C 	0.77960 0.21980 0.20700 -0.05200
C 	C 	0.74930 0.17320 0.17610 0.02600
C 	C 	0.63180 0.22520 0.19860 0.23600
C 	C 	0.60750 0.19570 0.20640 -0.27400
C 	C 	0.60680 0.15500 0.18300 0.13600
C 	C 	0.63817 0.20537 0.06680 0.19300
C 	C 	0.61250 0.16570 0.02540 -0.25500
C 	C 	0.60780 0.13090 0.03510 0.11500
C 	C 	0.00033 0.42050 0.07363 -0.21200
C 	C 	0.00980 0.42587 0.00567 -0.23000
C 	C 	0.16820 0.37579 0.17487 -0.22000
C 	C 	0.25138 0.48788 0.14398 -0.21000
C 	C 	0.06417 0.40407 0.06050 -0.20500
C 	C 	0.13802 0.32967 0.01435 -0.21900
C 	C 	0.07690 0.28900 0.85130 0.17900
C 	C 	0.10430 0.33520 0.87990 -0.21800
C 	C 	0.12956 0.34219 0.92377 0.11400
C 	C 	0.11390 0.17750 0.85240 0.18600
C 	C 	0.15330 0.18140 0.88110 -0.23000
C 	C 	0.16770 0.21710 0.92420 0.12000
C 	C 	0.00090 0.18590 0.88400 0.24500
C 	C 	0.99990 0.19530 0.92440 -0.28200
C 	C 	0.04467 0.22940 0.95887 0.15700
C 	C 	0.95370 0.24990 0.01080 0.04400
C 	C 	0.98720 0.28020 0.05980 -0.08100
C 	C 	0.00290 0.32680 0.07610 0.06900
C 	C 	0.97340 0.27480 0.90660 0.20300
C 	C 	0.01070 0.30430 0.91180 -0.23500
C 	C 	0.02800 0.34500 0.95180 0.12400
C 	C 	0.86143 0.29463 0.93280 0.17400
C 	C 	0.85970 0.33430 0.94680 -0.20700
C 	C 	0.90420 0.36910 0.97690 0.09500
C 	C 	0.49967 0.57330 0.42017 -0.22000
C 	C 	0.49020 0.49587 0.41607 -0.22100
C 	C 	0.33180 0.50667 0.20759 -0.22100
C 	C 	0.24862 0.39260 0.23650 -0.21000
C 	C 	0.43583 0.49633 0.33990 -0.20900
C 	C 	0.36198 0.37633 0.19165 -0.20700
C 	C 	0.42310 0.27440 0.21210 0.17700
C 	C 	0.39570 0.27560 0.23090 -0.21900
C 	C 	0.37044 0.29421 0.21263 0.11300
C 	C 	0.38610 0.23850 0.06360 0.20400
C 	C 	0.34670 0.22780 0.02810 -0.27400
C 	C 	0.33230 0.25650 0.04940 0.13700
C 	C 	0.49910 0.38310 0.18500 0.17600
C 	C 	0.50010 0.42450 0.19540 -0.21000
C 	C 	0.45533 0.41420 0.18473 0.11300
C 	C 	0.54630 0.55710 0.29620 0.05000
C 	C 	0.51280 0.57260 0.29300 -0.05100
C 	C 	0.49710 0.57320 0.32390 0.02600
C 	C 	0.52660 0.43320 0.30140 0.23700
C 	C 	0.48930 0.40110 0.29360 -0.27400
C 	C 	0.47200 0.42380 0.31700 0.13600
C 	C 	0.63857 0.57137 0.43320 0.17200
C 	C 	0.64030 0.58710 0.47460 -0.20700
C 	C 	0.59580 0.57270 0.46490 0.09400
C 	C 	0.92017 0.49967 0.07330 -0.22900
C 	C 	0.91607 0.49020 0.99587 -0.21100
C 	C 	0.70759 0.33180 0.00667 -0.24300
C 	C 	0.73650 0.24862 0.89260 -0.20900
C 	C 	0.83990 0.43583 0.99633 -0.19800
C 	C 	0.69165 0.36198 0.87633 -0.20700
C 	C 	0.71210 0.42310 0.77440 0.17800
C 	C 	0.73090 0.39570 0.77560 -0.21800
C 	C 	0.71263 0.37044 0.79421 0.11300
C 	C 	0.56360 0.38610 0.73850 0.18500
C 	C 	0.52810 0.34670 0.72780 -0.23100
C 	C 	0.54940 0.33230 0.75650 0.12000
C 	C 	0.68500 0.49910 0.88310 0.17600
C 	C 	0.69540 0.50010 0.92450 -0.20900
C 	C 	0.68473 0.45533 0.91420 0.11400
C 	C 	0.79620 0.54630 0.05710 0.04500
C 	C 	0.79300 0.51280 0.07260 -0.05300
C 	C 	0.82390 0.49710 0.07320 0.02500
C 	C 	0.80140 0.52660 0.93320 0.23500
C 	C 	0.79360 0.48930 0.90110 -0.27100
C 	C 	0.81700 0.47200 0.92380 0.13500
C 	C 	0.93320 0.63857 0.07137 0.19300
C 	C 	0.97460 0.64030 0.08710 -0.26100
C 	C 	0.96490 0.59580 0.07270 0.11600
C 	C 	0.57363 0.00033 0.92050 -0.22600
C 	C 	0.50567 0.00980 0.92587 -0.22600
C 	C 	0.67487 0.16820 0.87579 -0.22000
C 	C 	0.64398 0.25138 0.98788 -0.19600
C 	C 	0.56050 0.06417 0.90407 -0.21100
C 	C 	0.51435 0.13802 0.82967 -0.20700
C 	C 	0.35130 0.07690 0.78900 0.17700
C 	C 	0.37990 0.10430 0.83520 -0.21900
C 	C 	0.42377 0.12956 0.84219 0.11300
C 	C 	0.35240 0.11390 0.67750 0.18500
C 	C 	0.38110 0.15330 0.68140 -0.23100
C 	C 	0.42420 0.16770 0.71710 0.12000
C 	C 	0.38400 0.00090 0.68590 0.10500
C 	C 	0.42440 0.99990 0.69530 -0.13400
C 	C 	0.45887 0.04467 0.72940 0.06900
C 	C 	0.51080 0.95370 0.74990 0.04800
C 	C 	0.55980 0.98720 0.78020 -0.02700
C 	C 	0.57610 0.00290 0.82680 -0.00700
C 	C 	0.40660 0.97340 0.77480 0.27200
C 	C 	0.41180 0.01070 0.80430 -0.31200
C 	C 	0.45180 0.02800 0.84500 0.15100
C 	C 	0.43280 0.86143 0.79463 0.17300
C 	C 	0.44680 0.85970 0.83430 -0.20700
C 	C 	0.47690 0.90420 0.86910 0.09700
C 	C 	0.57983 0.65313 0.57950 -0.22000
C 	C 	0.58393 0.57980 0.57413 -0.22100
C 	C 	0.79241 0.79908 0.62421 -0.22100
C 	C 	0.76350 0.65610 0.51212 -0.21000
C 	C 	0.66010 0.65643 0.59593 -0.20900
C 	C 	0.80835 0.68468 0.67033 -0.20700
C 	C 	0.78790 0.56230 0.71100 0.17800
C 	C 	0.76910 0.54470 0.66480 -0.21900
C 	C 	0.78737 0.58158 0.65781 0.11300
C 	C 	0.93640 0.67490 0.82250 0.20600
C 	C 	0.97190 0.69970 0.81860 -0.27500
C 	C 	0.95060 0.70710 0.78290 0.13900
C 	C 	0.81500 0.69810 0.81410 0.17600
C 	C 	0.80460 0.72910 0.80470 -0.20900
C 	C 	0.81527 0.72947 0.77060 0.11300
C 	C 	0.70380 0.76090 0.75010 0.05100
C 	C 	0.70700 0.77960 0.71980 -0.05000
C 	C 	0.67610 0.74930 0.67320 0.02600
C 	C 	0.69860 0.63180 0.72520 0.23600
C 	C 	0.70640 0.60750 0.69570 -0.27400
C 	C 	0.68300 0.60680 0.65500 0.13600
C 	C 	0.56680 0.63817 0.70537 0.17200
C 	C 	0.52540 0.61250 0.66570 -0.20700
C 	C 	0.53510 0.60780 0.63090 0.09400
C 	C 	0.92637 0.84687 0.42670 -0.22300
C 	C 	0.99433 0.92020 0.50413 -0.24400
C 	C 	0.82513 0.70092 0.49333 -0.22100
C 	C 	0.85602 0.84390 0.60740 -0.21000
C 	C 	0.93950 0.84357 0.50367 -0.21200
C 	C 	0.98565 0.81532 0.62367 -0.22100
C 	C 	0.14870 0.93770 0.72560 0.17900
C 	C 	0.12010 0.95530 0.72440 -0.21700
C 	C 	0.07623 0.91842 0.70579 0.11500
C 	C 	0.14760 0.82510 0.76150 0.18600
C 	C 	0.11890 0.80030 0.77220 -0.22900
C 	C 	0.07580 0.79290 0.74350 0.12100
C 	C 	0.11600 0.80190 0.61690 0.17600
C 	C 	0.07560 0.77090 0.57550 -0.20800
C 	C 	0.04113 0.77053 0.58580 0.11400
C 	C 	0.98920 0.73910 0.44290 0.04100
C 	C 	0.94020 0.72040 0.42740 -0.05200
C 	C 	0.92390 0.75070 0.42680 0.02600
C 	C 	0.09340 0.86820 0.56680 0.24000
C 	C 	0.08820 0.89250 0.59890 -0.27300
C 	C 	0.04820 0.89320 0.57620 0.13900
C 	C 	0.06720 0.86183 0.42863 0.17600
C 	C 	0.05320 0.88750 0.41290 -0.20700
C 	C 	0.02310 0.89220 0.42730 0.09800
C 	C 	0.42017 0.07330 0.49967 -0.22600
C 	C 	0.41607 0.99587 0.49020 -0.21100
C 	C 	0.20759 0.00667 0.33180 -0.24300
C 	C 	0.23650 0.89260 0.24862 -0.20900
C 	C 	0.33990 0.99633 0.43583 -0.19900
C 	C 	0.19165 0.87633 0.36198 -0.20700
C 	C 	0.21210 0.77440 0.42310 0.17800
C 	C 	0.23090 0.77560 0.39570 -0.21800
C 	C 	0.21263 0.79421 0.37044 0.11300
C 	C 	0.06360 0.73850 0.38610 0.16200
C 	C 	0.02810 0.72780 0.34670 -0.18000
C 	C 	0.04940 0.75650 0.33230 0.09800
C 	C 	0.18500 0.88310 0.49910 0.17600
C 	C 	0.19540 0.92450 0.50010 -0.20900
C 	C 	0.18473 0.91420 0.45533 0.11400
C 	C 	0.29620 0.05710 0.54630 0.04600
C 	C 	0.29300 0.07260 0.51280 -0.05200
C 	C 	0.32390 0.07320 0.49710 0.02500
C 	C 	0.30140 0.93320 0.52660 0.23500
C 	C 	0.29360 0.90110 0.48930 -0.27100
C 	C 	0.31700 0.92380 0.47200 0.13600
C 	C 	0.43320 0.07137 0.63857 0.16800
C 	C 	0.47460 0.08710 0.64030 -0.20600
C 	C 	0.46490 0.07270 0.59580 0.09200
C 	C 	0.07363 0.92050 0.00033 -0.22200
C 	C 	0.00567 0.92587 0.00980 -0.20000
C 	C 	0.17487 0.87579 0.16820 -0.22000
C 	C 	0.14398 0.98788 0.25138 -0.19500
C 	C 	0.06050 0.90407 0.06417 -0.20700
C 	C 	0.01435 0.82967 0.13802 -0.19100
C 	C 	0.85130 0.78900 0.07690 0.17600
C 	C 	0.87990 0.83520 0.10430 -0.21900
C 	C 	0.92377 0.84219 0.12956 0.11200
C 	C 	0.85240 0.67750 0.11390 0.18500
C 	C 	0.88110 0.68140 0.15330 -0.23200
C 	C 	0.92420 0.71710 0.16770 0.11900
C 	C 	0.88400 0.68590 0.00090 0.09600
C 	C 	0.92440 0.69530 0.99990 -0.12500
C 	C 	0.95887 0.72940 0.04467 0.06100
C 	C 	0.01080 0.74990 0.95370 0.05600
C 	C 	0.05980 0.78020 0.98720 -0.02800
C 	C 	0.07610 0.82680 0.00290 -0.00300
C 	C 	0.90660 0.77480 0.97340 0.27400
C 	C 	0.91180 0.80430 0.01070 -0.31700
C 	C 	0.95180 0.84500 0.02800 0.15000
C 	C 	0.93280 0.79463 0.86143 0.17100
C 	C 	0.94680 0.83430 0.85970 -0.20700
C 	C 	0.97690 0.86910 0.90420 0.09400
C 	C 	0.07983 0.57950 0.65313 -0.21700
C 	C 	0.08393 0.57413 0.57980 -0.21900
C 	C 	0.29241 0.62421 0.79908 -0.22100
C 	C 	0.26350 0.51212 0.65610 -0.20900
C 	C 	0.16010 0.59593 0.65643 -0.20800
C 	C 	0.30835 0.67033 0.68468 -0.20700
C 	C 	0.28790 0.71100 0.56230 0.17800
C 	C 	0.26910 0.66480 0.54470 -0.21800
C 	C 	0.28737 0.65781 0.58158 0.11300
C 	C 	0.43640 0.82250 0.67490 0.18500
C 	C 	0.47190 0.81860 0.69970 -0.23100
C 	C 	0.45060 0.78290 0.70710 0.12000
C 	C 	0.31500 0.81410 0.69810 0.17600
C 	C 	0.30460 0.80470 0.72910 -0.21000
C 	C 	0.31527 0.77060 0.72947 0.11300
C 	C 	0.20380 0.75010 0.76090 0.05100
C 	C 	0.20700 0.71980 0.77960 -0.04900
C 	C 	0.17610 0.67320 0.74930 0.02700
C 	C 	0.19860 0.72520 0.63180 0.23700
C 	C 	0.20640 0.69570 0.60750 -0.27300
C 	C 	0.18300 0.65500 0.60680 0.13700
C 	C 	0.06680 0.70537 0.63817 0.15000
C 	C 	0.02540 0.66570 0.61250 -0.15700
C 	C 	0.03510 0.63090 0.60780 0.07300
C 	C 	0.42637 0.42670 0.84687 -0.22000
C 	C 	0.49433 0.50413 0.92020 -0.22000
C 	C 	0.32513 0.49333 0.70092 -0.22100
C 	C 	0.35602 0.60740 0.84390 -0.20900
C 	C 	0.43950 0.50367 0.84357 -0.20900
C 	C 	0.48565 0.62367 0.81532 -0.20700
C 	C 	0.64870 0.72560 0.93770 0.17900
C 	C 	0.62010 0.72440 0.95530 -0.21700
C 	C 	0.57623 0.70579 0.91842 0.11400
C 	C 	0.64760 0.76150 0.82510 0.18600
C 	C 	0.61890 0.77220 0.80030 -0.23100
C 	C 	0.57580 0.74350 0.79290 0.12000
C 	C 	0.61600 0.61690 0.80190 0.17600
C 	C 	0.57560 0.57550 0.77090 -0.21000
C 	C 	0.54113 0.58580 0.77053 0.11300
C 	C 	0.48920 0.44290 0.73910 0.05000
C 	C 	0.44020 0.42740 0.72040 -0.05100
C 	C 	0.42390 0.42680 0.75070 0.02600
C 	C 	0.59340 0.56680 0.86820 0.23700
C 	C 	0.58820 0.59890 0.89250 -0.27300
C 	C 	0.54820 0.57620 0.89320 0.13700
C 	C 	0.56720 0.42863 0.86183 0.17300
C 	C 	0.55320 0.41290 0.88750 -0.20700
C 	C 	0.52310 0.42730 0.89220 0.09500
C 	C 	0.92050 0.50033 0.57363 -0.22200
C 	C 	0.92587 0.50980 0.50567 -0.22400
C 	C 	0.87579 0.66820 0.67487 -0.22200
C 	C 	0.98788 0.75138 0.64398 -0.22300
C 	C 	0.90407 0.56417 0.56050 -0.21100
C 	C 	0.82967 0.63802 0.51435 -0.20800
C 	C 	0.78900 0.57690 0.35130 0.17800
C 	C 	0.83520 0.60430 0.37990 -0.21900
C 	C 	0.84219 0.62956 0.42377 0.11300
C 	C 	0.67750 0.61390 0.35240 0.18500
C 	C 	0.68140 0.65330 0.38110 -0.23100
C 	C 	0.71710 0.66770 0.42420 0.12000
C 	C 	0.68590 0.50090 0.38400 0.17600
C 	C 	0.69530 0.49990 0.42440 -0.21000
C 	C 	0.72940 0.54467 0.45887 0.11300
C 	C 	0.74990 0.45370 0.51080 0.05000
C 	C 	0.78020 0.48720 0.55980 -0.05100
C 	C 	0.82680 0.50290 0.57610 0.02700
C 	C 	0.77480 0.47340 0.40660 0.23700
C 	C 	0.80430 0.51070 0.41180 -0.27400
C 	C 	0.84500 0.52800 0.45180 0.13700
C 	C 	0.79463 0.36143 0.43280 0.17200
C 	C 	0.83430 0.35970 0.44680 -0.20700
C 	C 	0.86910 0.40420 0.47690 0.09400
C 	C 	0.07330 0.99967 0.92017 -0.20300
C 	C 	0.99587 0.99020 0.91607 -0.22300
C 	C 	0.00667 0.83180 0.70759 -0.19700
C 	C 	0.89260 0.74862 0.73650 -0.21000
C 	C 	0.99633 0.93583 0.83990 -0.21400
C 	C 	0.87633 0.86198 0.69165 -0.20800
C 	C 	0.77440 0.92310 0.71210 0.17900
C 	C 	0.77560 0.89570 0.73090 -0.21800
C 	C 	0.79421 0.87044 0.71263 0.11400
C 	C 	0.73850 0.88610 0.56360 0.18600
C 	C 	0.72780 0.84670 0.52810 -0.23100
C 	C 	0.75650 0.83230 0.54940 0.12000
C 	C 	0.88310 0.99910 0.68500 0.23900
C 	C 	0.92450 0.00010 0.69540 -0.27900
C 	C 	0.91420 0.95533 0.68473 0.15300
C 	C 	0.05710 0.04630 0.79620 0.05700
C 	C 	0.07260 0.01280 0.79300 -0.07300
C 	C 	0.07320 0.99710 0.82390 0.06400
C 	C 	0.93320 0.02660 0.80140 0.20600
C 	C 	0.90110 0.98930 0.79360 -0.24100
C 	C 	0.92380 0.97200 0.81700 0.12400
C 	C 	0.07137 0.13857 0.93320 0.15600
C 	C 	0.08710 0.14030 0.97460 -0.16600
C 	C 	0.07270 0.09580 0.96490 0.07700
C 	C 	0.42670 0.34687 0.92637 -0.21700
C 	C 	0.50413 0.42020 0.99433 -0.20000
C 	C 	0.49333 0.20092 0.82513 -0.22000
C 	C 	0.60740 0.34390 0.85602 -0.20900
C 	C 	0.50367 0.34357 0.93950 -0.20600
C 	C 	0.62367 0.31532 0.98565 -0.19400
C 	C 	0.72560 0.43770 0.14870 0.17700
C 	C 	0.72440 0.45530 0.12010 -0.21900
C 	C 	0.70579 0.41842 0.07623 0.11300
C 	C 	0.76150 0.32510 0.14760 0.18500
C 	C 	0.77220 0.30030 0.11890 -0.23200
C 	C 	0.74350 0.29290 0.07580 0.11900
C 	C 	0.61690 0.30190 0.11600 0.17500
C 	C 	0.57550 0.27090 0.07560 -0.21100
C 	C 	0.58580 0.27053 0.04113 0.11200
C 	C 	0.44290 0.23910 0.98920 0.05700
C 	C 	0.42740 0.22040 0.94020 -0.05000
C 	C 	0.42680 0.25070 0.92390 0.02700
C 	C 	0.56680 0.36820 0.09340 0.23400
C 	C 	0.59890 0.39250 0.08820 -0.27300
C 	C 	0.57620 0.39320 0.04820 0.13400
C 	C 	0.42863 0.36183 0.06720 0.16900
C 	C 	0.41290 0.38750 0.05320 -0.20600
C 	C 	0.42730 0.39220 0.02310 0.09200
C 	C 	0.57950 0.15313 0.57983 -0.22000
C 	C 	0.57413 0.07980 0.58393 -0.22200
C 	C 	0.62421 0.29908 0.79241 -0.22100
C 	C 	0.51212 0.15610 0.76350 -0.21000
C 	C 	0.59593 0.15643 0.66010 -0.20900
C 	C 	0.67033 0.18468 0.80835 -0.20800
C 	C 	0.71100 0.06230 0.78790 0.17700
C 	C 	0.66480 0.04470 0.76910 -0.21900
C 	C 	0.65781 0.08158 0.78737 0.11200
C 	C 	0.82250 0.17490 0.93640 0.16300
C 	C 	0.81860 0.19970 0.97190 -0.18300
C 	C 	0.78290 0.20710 0.95060 0.09900
C 	C 	0.81410 0.19810 0.81500 0.17600
C 	C 	0.80470 0.22910 0.80460 -0.21000
C 	C 	0.77060 0.22947 0.81527 0.11300
C 	C 	0.75010 0.26090 0.70380 0.05000
C 	C 	0.71980 0.27960 0.70700 -0.05100
C 	C 	0.67320 0.24930 0.67610 0.02600
C 	C 	0.72520 0.13180 0.69860 0.23600
C 	C 	0.69570 0.10750 0.70640 -0.27500
C 	C 	0.65500 0.10680 0.68300 0.13600
C 	C 	0.70537 0.13817 0.56680 0.17100
C 	C 	0.66570 0.11250 0.52540 -0.20700
C 	C 	0.63090 0.10780 0.53510 0.09400
C 	C 	0.34687 0.42637 0.92670 -0.21400
C 	C 	0.42020 0.49433 0.00413 -0.23100
C 	C 	0.20092 0.32513 0.99333 -0.20100
C 	C 	0.34390 0.35602 0.10740 -0.21000
C 	C 	0.34357 0.43950 0.00367 -0.21900
C 	C 	0.31532 0.48565 0.12367 -0.20800
C 	C 	0.43770 0.64870 0.22560 0.17800
C 	C 	0.45530 0.62010 0.22440 -0.21900
C 	C 	0.41842 0.57623 0.20579 0.11300
C 	C 	0.32510 0.64760 0.26150 0.18500
C 	C 	0.30030 0.61890 0.27220 -0.23100
C 	C 	0.29290 0.57580 0.24350 0.12000
C 	C 	0.30190 0.61600 0.11690 0.17500
C 	C 	0.27090 0.57560 0.07550 -0.21000
C 	C 	0.27053 0.54113 0.08580 0.11300
C 	C 	0.23910 0.48920 0.94290 0.05500
C 	C 	0.22040 0.44020 0.92740 -0.04800
C 	C 	0.25070 0.42390 0.92680 0.02800
C 	C 	0.36820 0.59340 0.06680 0.23800
C 	C 	0.39250 0.58820 0.09890 -0.27600
C 	C 	0.39320 0.54820 0.07620 0.13700
C 	C 	0.36183 0.56720 0.92863 0.17500
C 	C 	0.38750 0.55320 0.91290 -0.20800
C 	C 	0.39220 0.52310 0.92730 0.09700
C 	C 	0.15313 0.07983 0.07950 -0.22400
C 	C 	0.07980 0.08393 0.07413 -0.22400
C 	C 	0.29908 0.29241 0.12421 -0.22200
C 	C 	0.15610 0.26350 0.01212 -0.22100
C 	C 	0.15643 0.16010 0.09593 -0.21100
C 	C 	0.18468 0.30835 0.17033 -0.20800
C 	C 	0.06230 0.28790 0.21100 0.17900
C 	C 	0.04470 0.26910 0.16480 -0.21800
C 	C 	0.08158 0.28737 0.15781 0.11400
C 	C 	0.17490 0.43640 0.32250 0.18600
C 	C 	0.19970 0.47190 0.31860 -0.23100
C 	C 	0.20710 0.45060 0.28290 0.12000
C 	C 	0.19810 0.31500 0.31410 0.17600
C 	C 	0.22910 0.30460 0.30470 -0.21000
C 	C 	0.22947 0.31527 0.27060 0.11300
C 	C 	0.26090 0.20380 0.25010 0.05000
C 	C 	0.27960 0.20700 0.21980 -0.05100
C 	C 	0.24930 0.17610 0.17320 0.02600
C 	C 	0.13180 0.19860 0.22520 0.23700
C 	C 	0.10750 0.20640 0.19570 -0.27400
C 	C 	0.10680 0.18300 0.15500 0.13700
C 	C 	0.13817 0.06680 0.20537 0.19400
C 	C 	0.11250 0.02540 0.16570 -0.25500
C 	C 	0.10780 0.03510 0.13090 0.11600
C 	C 	0.50033 0.07363 0.42050 -0.22300
C 	C 	0.50980 0.00567 0.42587 -0.24100
C 	C 	0.66820 0.17487 0.37579 -0.22100
C 	C 	0.75138 0.14398 0.48788 -0.21000
C 	C 	0.56417 0.06050 0.40407 -0.21200
C 	C 	0.63802 0.01435 0.32967 -0.22000
C 	C 	0.57690 0.85130 0.28900 0.17800
C 	C 	0.60430 0.87990 0.33520 -0.21800
C 	C 	0.62956 0.92377 0.34219 0.11400
C 	C 	0.61390 0.85240 0.17750 0.18500
C 	C 	0.65330 0.88110 0.18140 -0.23000
C 	C 	0.66770 0.92420 0.21710 0.12000
C 	C 	0.50090 0.88400 0.18590 0.17600
C 	C 	0.49990 0.92440 0.19530 -0.20900
C 	C 	0.54467 0.95887 0.22940 0.11400
C 	C 	0.45370 0.01080 0.24990 0.04200
C 	C 	0.48720 0.05980 0.28020 -0.05200
C 	C 	0.50290 0.07610 0.32680 0.02600
C 	C 	0.47340 0.90660 0.27480 0.23900
C 	C 	0.51070 0.91180 0.30430 -0.27400
C 	C 	0.52800 0.95180 0.34500 0.13900
C 	C 	0.36143 0.93280 0.29463 0.17500
C 	C 	0.35970 0.94680 0.33430 -0.20700
C 	C 	0.40420 0.97690 0.36910 0.09700
C 	C 	0.99967 0.42017 0.57330 -0.23000
C 	C 	0.99020 0.41607 0.49587 -0.23000
C 	C 	0.83180 0.20759 0.50667 -0.22100
C 	C 	0.74862 0.23650 0.39260 -0.20900
C 	C 	0.93583 0.33990 0.49633 -0.21500
C 	C 	0.86198 0.19165 0.37633 -0.20800
C 	C 	0.92310 0.21210 0.27440 0.17600
C 	C 	0.89570 0.23090 0.27560 -0.21900
C 	C 	0.87044 0.21263 0.29421 0.11200
C 	C 	0.88610 0.06360 0.23850 0.20300
C 	C 	0.84670 0.02810 0.22780 -0.27200
C 	C 	0.83230 0.04940 0.25650 0.13600
C 	C 	0.99910 0.18500 0.38310 0.09700
C 	C 	0.00010 0.19540 0.42450 -0.12500
C 	C 	0.95533 0.18473 0.41420 0.06300
C 	C 	0.04630 0.29620 0.55710 0.04800
C 	C 	0.01280 0.29300 0.57260 -0.02400
C 	C 	0.99710 0.32390 0.57320 -0.01200
C 	C 	0.02660 0.30140 0.43320 0.27800
C 	C 	0.98930 0.29360 0.40110 -0.31900
C 	C 	0.97200 0.31700 0.42380 0.15300
C 	C 	0.13857 0.43320 0.57137 0.17300
C 	C 	0.14030 0.47460 0.58710 -0.20700
C 	C 	0.09580 0.46490 0.57270 0.09700
N 	N 	0.44665 0.60420 0.50025 -0.25400
N 	N 	0.45378 0.49566 0.51200 -0.25100
N 	N 	0.38657 0.64774 0.65851 -0.25200
N 	N 	0.46064 0.62790 0.71430 -0.25600
N 	N 	0.41546 0.58237 0.60127 -0.24000
N 	N 	0.35849 0.54450 0.64227 -0.25500
N 	N 	0.26876 0.37586 0.58564 -0.36900
N 	N 	0.30167 0.42138 0.61905 -0.23300
N 	N 	0.20785 0.37675 0.60454 -0.37800
N 	N 	0.23300 0.42196 0.63922 -0.23200
N 	N 	0.21262 0.39432 0.54356 -0.36300
N 	N 	0.23920 0.44067 0.57091 -0.22600
N 	N 	0.28448 0.50223 0.45479 -0.36500
N 	N 	0.32947 0.53731 0.48608 -0.21800
N 	N 	0.29367 0.44041 0.46584 -0.38300
N 	N 	0.33833 0.46890 0.50033 -0.23700
N 	N 	0.30544 0.45501 0.40533 -0.36400
N 	N 	0.35147 0.48304 0.43283 -0.23300
N 	N 	0.60395 0.94640 0.99975 -0.24700
N 	N 	0.48366 0.94178 0.98800 -0.24400
N 	N 	0.48923 0.72806 0.84149 -0.25200
N 	N 	0.41360 0.74634 0.78570 -0.25600
N 	N 	0.48110 0.81419 0.89873 -0.24100
N 	N 	0.40223 0.71622 0.85773 -0.25500
N 	N 	0.29022 0.68312 0.91436 -0.36900
N 	N 	0.30233 0.68262 0.88095 -0.23200
N 	N 	0.27221 0.60331 0.89546 -0.37900
N 	N 	0.28274 0.59378 0.86078 -0.23200
N 	N 	0.35076 0.66906 0.95644 -0.37400
N 	N 	0.36976 0.66829 0.92909 -0.23200
N 	N 	0.54744 0.82969 0.04521 -0.36500
N 	N 	0.55123 0.84339 0.01392 -0.23100
N 	N 	0.47457 0.82783 0.03416 -0.38100
N 	N 	0.46857 0.83800 0.99967 -0.22700
N 	N 	0.54968 0.90011 0.09467 -0.35900
N 	N 	0.55021 0.91864 0.06717 -0.23100
N 	N 	0.89605 0.89580 0.34245 -0.25400
N 	N 	0.01634 0.00434 0.45812 -0.26500
N 	N 	0.01077 0.85226 0.23883 -0.23500
N 	N 	0.08640 0.87210 0.33274 -0.25400
N 	N 	0.01890 0.91763 0.33309 -0.24000
N 	N 	0.09777 0.95550 0.31399 -0.25500
N 	N 	0.20978 0.12414 0.39290 -0.36900
N 	N 	0.19767 0.07862 0.38029 -0.23300
N 	N 	0.22779 0.12325 0.33110 -0.37800
N 	N 	0.21726 0.07804 0.31104 -0.23300
N 	N 	0.14924 0.10568 0.31830 -0.36300
N 	N 	0.13024 0.05933 0.29853 -0.22800
N 	N 	0.95256 0.99777 0.28225 -0.35400
N 	N 	0.94877 0.96269 0.29216 -0.21900
N 	N 	0.02543 0.05959 0.35326 -0.37100
N 	N 	0.03143 0.03110 0.36943 -0.23800
N 	N 	0.95032 0.04499 0.35043 -0.35900
N 	N 	0.94979 0.01696 0.36843 -0.23900
N 	N 	0.05335 0.55360 0.15755 -0.25000
N 	N 	0.04622 0.55822 0.04188 -0.25000
N 	N 	0.11343 0.77194 0.26117 -0.25200
N 	N 	0.03936 0.75366 0.16726 -0.25700
N 	N 	0.08454 0.68581 0.16691 -0.23900
N 	N 	0.14151 0.78378 0.18601 -0.25500
N 	N 	0.23124 0.81688 0.10710 -0.36800
N 	N 	0.19833 0.81738 0.11971 -0.23200
N 	N 	0.29215 0.89669 0.16890 -0.37400
N 	N 	0.26700 0.90622 0.18896 -0.22900
N 	N 	0.28738 0.83094 0.18170 -0.36300
N 	N 	0.26080 0.83171 0.20147 -0.22600
N 	N 	0.21552 0.67031 0.21775 -0.36500
N 	N 	0.17053 0.65661 0.20784 -0.21800
N 	N 	0.20633 0.67217 0.14674 -0.38300
N 	N 	0.16167 0.66200 0.13057 -0.23700
N 	N 	0.19456 0.59989 0.14957 -0.36400
N 	N 	0.14853 0.58136 0.13157 -0.23300
N 	N 	0.84245 0.89605 0.39580 -0.25400
N 	N 	0.95812 0.01634 0.50434 -0.25600
N 	N 	0.73883 0.01077 0.35226 -0.26600
N 	N 	0.83274 0.08640 0.37210 -0.25700
N 	N 	0.83309 0.01890 0.41763 -0.24100
N 	N 	0.81399 0.09777 0.45550 -0.25600
N 	N 	0.89290 0.20978 0.62414 -0.36900
N 	N 	0.88029 0.19767 0.57862 -0.23300
N 	N 	0.83110 0.22779 0.62325 -0.37800
N 	N 	0.81104 0.21726 0.57804 -0.23200
N 	N 	0.81830 0.14924 0.60568 -0.36300
N 	N 	0.79853 0.13024 0.55933 -0.22600
N 	N 	0.78225 0.95256 0.49777 -0.36800
N 	N 	0.79216 0.94877 0.46269 -0.21700
N 	N 	0.85326 0.02543 0.55959 -0.39200
N 	N 	0.86943 0.03143 0.53110 -0.24100
N 	N 	0.85043 0.95032 0.54499 -0.36600
N 	N 	0.86843 0.94979 0.51696 -0.23200
N 	N 	0.65755 0.05335 0.05360 -0.26000
N 	N 	0.54188 0.04622 0.05822 -0.25600
N 	N 	0.76117 0.11343 0.27194 -0.25300
N 	N 	0.66726 0.03936 0.25366 -0.25500
N 	N 	0.66691 0.08454 0.18581 -0.24200
N 	N 	0.68601 0.14151 0.28378 -0.25600
N 	N 	0.60710 0.23124 0.31688 -0.36900
N 	N 	0.61971 0.19833 0.31738 -0.23300
N 	N 	0.66890 0.29215 0.39669 -0.37800
N 	N 	0.68896 0.26700 0.40622 -0.23200
N 	N 	0.68170 0.28738 0.33094 -0.36300
N 	N 	0.70147 0.26080 0.33171 -0.22600
N 	N 	0.71775 0.21552 0.17031 -0.36500
N 	N 	0.70784 0.17053 0.15661 -0.21900
N 	N 	0.64674 0.20633 0.17217 -0.38300
N 	N 	0.63057 0.16167 0.16200 -0.23700
N 	N 	0.64957 0.19456 0.09989 -0.36800
N 	N 	0.63157 0.14853 0.08136 -0.23700
N 	N 	0.00025 0.44665 0.10420 -0.25100
N 	N 	0.01200 0.45378 0.99566 -0.23500
N 	N 	0.15851 0.38657 0.14774 -0.25200
N 	N 	0.21430 0.46064 0.12790 -0.25600
N 	N 	0.10127 0.41546 0.08237 -0.24200
N 	N 	0.14227 0.35849 0.04450 -0.25500
N 	N 	0.08564 0.26876 0.87586 -0.36900
N 	N 	0.11905 0.30167 0.92138 -0.23200
N 	N 	0.10454 0.20785 0.87675 -0.37900
N 	N 	0.13922 0.23300 0.92196 -0.23100
N 	N 	0.04356 0.21262 0.89432 -0.37400
N 	N 	0.07091 0.23920 0.94067 -0.23000
N 	N 	0.95479 0.28448 0.00223 -0.37600
N 	N 	0.98608 0.32947 0.03731 -0.23600
N 	N 	0.96584 0.29367 0.94041 -0.38400
N 	N 	0.00033 0.33833 0.96890 -0.22100
N 	N 	0.90533 0.30544 0.95501 -0.36600
N 	N 	0.93283 0.35147 0.98304 -0.23000
N 	N 	0.49975 0.60395 0.44640 -0.25400
N 	N 	0.48800 0.48366 0.44178 -0.25100
N 	N 	0.34149 0.48923 0.22806 -0.25300
N 	N 	0.28570 0.41360 0.24634 -0.25600
N 	N 	0.39873 0.48110 0.31419 -0.24000
N 	N 	0.35773 0.40223 0.21622 -0.25500
N 	N 	0.41436 0.29022 0.18312 -0.36900
N 	N 	0.38095 0.30233 0.18262 -0.23300
N 	N 	0.39546 0.27221 0.10331 -0.38200
N 	N 	0.36078 0.28274 0.09378 -0.23600
N 	N 	0.45644 0.35076 0.16906 -0.36300
N 	N 	0.42909 0.36976 0.16829 -0.22600
N 	N 	0.54521 0.54744 0.32969 -0.36500
N 	N 	0.51392 0.55123 0.34339 -0.21800
N 	N 	0.53416 0.47457 0.32783 -0.38300
N 	N 	0.49967 0.46857 0.33800 -0.23700
N 	N 	0.59467 0.54968 0.40011 -0.36400
N 	N 	0.56717 0.55021 0.41864 -0.23300
N 	N 	0.94640 0.49975 0.10395 -0.25800
N 	N 	0.94178 0.48800 0.98366 -0.25300
N 	N 	0.72806 0.34149 0.98923 -0.23800
N 	N 	0.74634 0.28570 0.91360 -0.25500
N 	N 	0.81419 0.39873 0.98110 -0.24100
N 	N 	0.71622 0.35773 0.90223 -0.25500
N 	N 	0.68312 0.41436 0.79022 -0.36900
N 	N 	0.68262 0.38095 0.80233 -0.23200
N 	N 	0.60331 0.39546 0.77221 -0.37800
N 	N 	0.59378 0.36078 0.78274 -0.23200
N 	N 	0.66906 0.45644 0.85076 -0.36300
N 	N 	0.66829 0.42909 0.86976 -0.22600
N 	N 	0.82969 0.54521 0.04744 -0.36200
N 	N 	0.84339 0.51392 0.05123 -0.22100
N 	N 	0.82783 0.53416 0.97457 -0.37300
N 	N 	0.83800 0.49967 0.96857 -0.23300
N 	N 	0.90011 0.59467 0.04968 -0.36600
N 	N 	0.91864 0.56717 0.05021 -0.23900
N 	N 	0.60420 0.00025 0.94665 -0.25200
N 	N 	0.49566 0.01200 0.95378 -0.24700
N 	N 	0.64774 0.15851 0.88657 -0.25200
N 	N 	0.62790 0.21430 0.96064 -0.25700
N 	N 	0.58237 0.10127 0.91546 -0.23900
N 	N 	0.54450 0.14227 0.85849 -0.25500
N 	N 	0.37586 0.08564 0.76876 -0.36800
N 	N 	0.42138 0.11905 0.80167 -0.23300
N 	N 	0.37675 0.10454 0.70785 -0.37700
N 	N 	0.42196 0.13922 0.73300 -0.23200
N 	N 	0.39432 0.04356 0.71262 -0.35100
N 	N 	0.44067 0.07091 0.73920 -0.21900
N 	N 	0.50223 0.95479 0.78448 -0.36500
N 	N 	0.53731 0.98608 0.82947 -0.20700
N 	N 	0.44041 0.96584 0.79367 -0.38500
N 	N 	0.46890 0.00033 0.83833 -0.24700
N 	N 	0.45501 0.90533 0.80544 -0.36400
N 	N 	0.48304 0.93283 0.85147 -0.23100
N 	N 	0.55360 0.65755 0.55335 -0.25400
N 	N 	0.55822 0.54188 0.54622 -0.25100
N 	N 	0.77194 0.76117 0.61343 -0.25300
N 	N 	0.75366 0.66726 0.53936 -0.25600
N 	N 	0.68581 0.66691 0.58454 -0.24000
N 	N 	0.78378 0.68601 0.64151 -0.25500
N 	N 	0.81688 0.60710 0.73124 -0.36900
N 	N 	0.81738 0.61971 0.69833 -0.23300
N 	N 	0.89669 0.66890 0.79215 -0.38200
N 	N 	0.90622 0.68896 0.76700 -0.23600
N 	N 	0.83094 0.68170 0.78738 -0.36300
N 	N 	0.83171 0.70147 0.76080 -0.22600
N 	N 	0.67031 0.71775 0.71552 -0.36500
N 	N 	0.65661 0.70784 0.67053 -0.21800
N 	N 	0.67217 0.64674 0.70633 -0.38300
N 	N 	0.66200 0.63057 0.66167 -0.23700
N 	N 	0.59989 0.64957 0.69456 -0.36400
N 	N 	0.58136 0.63157 0.64853 -0.23300
N 	N 	0.89580 0.84245 0.39605 -0.25500
N 	N 	0.00434 0.95812 0.51634 -0.22900
N 	N 	0.85226 0.73883 0.51077 -0.25300
N 	N 	0.87210 0.83274 0.58640 -0.25600
N 	N 	0.91763 0.83309 0.51890 -0.24100
N 	N 	0.95550 0.81399 0.59777 -0.25500
N 	N 	0.12414 0.89290 0.70978 -0.36800
N 	N 	0.07862 0.88029 0.69767 -0.23100
N 	N 	0.12325 0.83110 0.72779 -0.37800
N 	N 	0.07804 0.81104 0.71726 -0.23100
N 	N 	0.10568 0.81830 0.64924 -0.36300
N 	N 	0.05933 0.79853 0.63024 -0.22400
N 	N 	0.99777 0.78225 0.45256 -0.37500
N 	N 	0.96269 0.79216 0.44877 -0.22100
N 	N 	0.05959 0.85326 0.52543 -0.38600
N 	N 	0.03110 0.86943 0.53143 -0.23100
N 	N 	0.04499 0.85043 0.45032 -0.36700
N 	N 	0.01696 0.86843 0.44979 -0.22700
N 	N 	0.44640 0.10395 0.49975 -0.25500
N 	N 	0.44178 0.98366 0.48800 -0.25000
N 	N 	0.22806 0.98923 0.34149 -0.23800
N 	N 	0.24634 0.91360 0.28570 -0.25500
N 	N 	0.31419 0.98110 0.39873 -0.24100
N 	N 	0.21622 0.90223 0.35773 -0.25500
N 	N 	0.18312 0.79022 0.41436 -0.36800
N 	N 	0.18262 0.80233 0.38095 -0.23200
N 	N 	0.10331 0.77221 0.39546 -0.37400
N 	N 	0.09378 0.78274 0.36078 -0.22800
N 	N 	0.16906 0.85076 0.45644 -0.36300
N 	N 	0.16829 0.86976 0.42909 -0.22600
N 	N 	0.32969 0.04744 0.54521 -0.36200
N 	N 	0.34339 0.05123 0.51392 -0.22100
N 	N 	0.32783 0.97457 0.53416 -0.37400
N 	N 	0.33800 0.96857 0.49967 -0.23300
N 	N 	0.40011 0.04968 0.59467 -0.36100
N 	N 	0.41864 0.05021 0.56717 -0.23500
N 	N 	0.10420 0.94665 0.00025 -0.25100
N 	N 	0.99566 0.95378 0.01200 -0.26600
N 	N 	0.14774 0.88657 0.15851 -0.25200
N 	N 	0.12790 0.96064 0.21430 -0.25600
N 	N 	0.08237 0.91546 0.10127 -0.23800
N 	N 	0.04450 0.85849 0.14227 -0.25600
N 	N 	0.87586 0.76876 0.08564 -0.36800
N 	N 	0.92138 0.80167 0.11905 -0.23400
N 	N 	0.87675 0.70785 0.10454 -0.37700
N 	N 	0.92196 0.73300 0.13922 -0.23400
N 	N 	0.89432 0.71262 0.04356 -0.35000
N 	N 	0.94067 0.73920 0.07091 -0.22100
N 	N 	0.00223 0.78448 0.95479 -0.35600
N 	N 	0.03731 0.82947 0.98608 -0.20500
N 	N 	0.94041 0.79367 0.96584 -0.38200
N 	N 	0.96890 0.83833 0.00033 -0.25400
N 	N 	0.95501 0.80544 0.90533 -0.36200
N 	N 	0.98304 0.85147 0.93283 -0.23600
N 	N 	0.05360 0.55335 0.65755 -0.24900
N 	N 	0.05822 0.54622 0.54188 -0.24600
N 	N 	0.27194 0.61343 0.76117 -0.25200
N 	N 	0.25366 0.53936 0.66726 -0.25600
N 	N 	0.18581 0.58454 0.66691 -0.24000
N 	N 	0.28378 0.64151 0.68601 -0.25500
N 	N 	0.31688 0.73124 0.60710 -0.36900
N 	N 	0.31738 0.69833 0.61971 -0.23300
N 	N 	0.39669 0.79215 0.66890 -0.37800
N 	N 	0.40622 0.76700 0.68896 -0.23200
N 	N 	0.33094 0.78738 0.68170 -0.36300
N 	N 	0.33171 0.76080 0.70147 -0.22600
N 	N 	0.17031 0.71552 0.71775 -0.36500
N 	N 	0.15661 0.67053 0.70784 -0.21800
N 	N 	0.17217 0.70633 0.64674 -0.38300
N 	N 	0.16200 0.66167 0.63057 -0.23700
N 	N 	0.09989 0.69456 0.64957 -0.36000
N 	N 	0.08136 0.64853 0.63157 -0.22900
N 	N 	0.39580 0.39605 0.84245 -0.25400
N 	N 	0.50434 0.51634 0.95812 -0.24600
N 	N 	0.35226 0.51077 0.73883 -0.25300
N 	N 	0.37210 0.58640 0.83274 -0.25600
N 	N 	0.41763 0.51890 0.83309 -0.24000
N 	N 	0.45550 0.59777 0.81399 -0.25500
N 	N 	0.62414 0.70978 0.89290 -0.36800
N 	N 	0.57862 0.69767 0.88029 -0.23200
N 	N 	0.62325 0.72779 0.83110 -0.37800
N 	N 	0.57804 0.71726 0.81104 -0.23200
N 	N 	0.60568 0.64924 0.81830 -0.36300
N 	N 	0.55933 0.63024 0.79853 -0.22600
N 	N 	0.49777 0.45256 0.78225 -0.36500
N 	N 	0.46269 0.44877 0.79216 -0.21900
N 	N 	0.55959 0.52543 0.85326 -0.38300
N 	N 	0.53110 0.53143 0.86943 -0.23700
N 	N 	0.54499 0.45032 0.85043 -0.36400
N 	N 	0.51696 0.44979 0.86843 -0.23300
N 	N 	0.94665 0.50025 0.60420 -0.25600
N 	N 	0.95378 0.51200 0.49566 -0.25400
N 	N 	0.88657 0.65851 0.64774 -0.25300
N 	N 	0.96064 0.71430 0.62790 -0.25500
N 	N 	0.91546 0.60127 0.58237 -0.24100
N 	N 	0.85849 0.64227 0.54450 -0.25600
N 	N 	0.76876 0.58564 0.37586 -0.36900
N 	N 	0.80167 0.61905 0.42138 -0.23300
N 	N 	0.70785 0.60454 0.37675 -0.37800
N 	N 	0.73300 0.63922 0.42196 -0.23200
N 	N 	0.71262 0.54356 0.39432 -0.36300
N 	N 	0.73920 0.57091 0.44067 -0.22600
N 	N 	0.78448 0.45479 0.50223 -0.36500
N 	N 	0.82947 0.48608 0.53731 -0.21900
N 	N 	0.79367 0.46584 0.44041 -0.38300
N 	N 	0.83833 0.50033 0.46890 -0.23700
N 	N 	0.80544 0.40533 0.45501 -0.36400
N 	N 	0.85147 0.43283 0.48304 -0.23300
N 	N 	0.10395 0.99975 0.94640 -0.24700
N 	N 	0.98366 0.98800 0.94178 -0.24500
N 	N 	0.98923 0.84149 0.72806 -0.26700
N 	N 	0.91360 0.78570 0.74634 -0.25600
N 	N 	0.98110 0.89873 0.81419 -0.24100
N 	N 	0.90223 0.85773 0.71622 -0.25600
N 	N 	0.79022 0.91436 0.68312 -0.36900
N 	N 	0.80233 0.88095 0.68262 -0.23200
N 	N 	0.77221 0.89546 0.60331 -0.37900
N 	N 	0.78274 0.86078 0.59378 -0.23200
N 	N 	0.85076 0.95644 0.66906 -0.37400
N 	N 	0.86976 0.92909 0.66829 -0.23200
N 	N 	0.04744 0.04521 0.82969 -0.36800
N 	N 	0.05123 0.01392 0.84339 -0.22900
N 	N 	0.97457 0.03416 0.82783 -0.39000
N 	N 	0.96857 0.99967 0.83800 -0.23100
N 	N 	0.04968 0.09467 0.90011 -0.36200
N 	N 	0.05021 0.06717 0.91864 -0.23000
N 	N 	0.39605 0.34245 0.89580 -0.25400
N 	N 	0.51634 0.45812 0.00434 -0.26500
N 	N 	0.51077 0.23883 0.85226 -0.25200
N 	N 	0.58640 0.33274 0.87210 -0.25500
N 	N 	0.51890 0.33309 0.91763 -0.24000
N 	N 	0.59777 0.31399 0.95550 -0.25600
N 	N 	0.70978 0.39290 0.12414 -0.36900
N 	N 	0.69767 0.38029 0.07862 -0.23300
N 	N 	0.72779 0.33110 0.12325 -0.37800
N 	N 	0.71726 0.31104 0.07804 -0.23300
N 	N 	0.64924 0.31830 0.10568 -0.36300
N 	N 	0.63024 0.29853 0.05933 -0.22800
N 	N 	0.45256 0.28225 0.99777 -0.35600
N 	N 	0.44877 0.29216 0.96269 -0.21600
N 	N 	0.52543 0.35326 0.05959 -0.38000
N 	N 	0.53143 0.36943 0.03110 -0.24200
N 	N 	0.45032 0.35043 0.04499 -0.36100
N 	N 	0.44979 0.36843 0.01696 -0.23800
N 	N 	0.55335 0.15755 0.55360 -0.25500
N 	N 	0.54622 0.04188 0.55822 -0.25500
N 	N 	0.61343 0.26117 0.77194 -0.25300
N 	N 	0.53936 0.16726 0.75366 -0.25600
N 	N 	0.58454 0.16691 0.68581 -0.24100
N 	N 	0.64151 0.18601 0.78378 -0.25600
N 	N 	0.73124 0.10710 0.81688 -0.36800
N 	N 	0.69833 0.11971 0.81738 -0.23300
N 	N 	0.79215 0.16890 0.89669 -0.37400
N 	N 	0.76700 0.18896 0.90622 -0.22800
N 	N 	0.78738 0.18170 0.83094 -0.36300
N 	N 	0.76080 0.20147 0.83171 -0.22600
N 	N 	0.71552 0.21775 0.67031 -0.36500
N 	N 	0.67053 0.20784 0.65661 -0.21800
N 	N 	0.70633 0.14674 0.67217 -0.38300
N 	N 	0.66167 0.13057 0.66200 -0.23700
N 	N 	0.69456 0.14957 0.59989 -0.36400
N 	N 	0.64853 0.13157 0.58136 -0.23300
N 	N 	0.34245 0.39580 0.89605 -0.25400
N 	N 	0.45812 0.50434 0.01634 -0.25200
N 	N 	0.23883 0.35226 0.01077 -0.26500
N 	N 	0.33274 0.37210 0.08640 -0.25600
N 	N 	0.33309 0.41763 0.01890 -0.24000
N 	N 	0.31399 0.45550 0.09777 -0.25600
N 	N 	0.39290 0.62414 0.20978 -0.36900
N 	N 	0.38029 0.57862 0.19767 -0.23300
N 	N 	0.33110 0.62325 0.22779 -0.37800
N 	N 	0.31104 0.57804 0.21726 -0.23200
N 	N 	0.31830 0.60568 0.14924 -0.36300
N 	N 	0.29853 0.55933 0.13024 -0.22600
N 	N 	0.28225 0.49777 0.95256 -0.36800
N 	N 	0.29216 0.46269 0.94877 -0.21600
N 	N 	0.35326 0.55959 0.02543 -0.39200
N 	N 	0.36943 0.53110 0.03143 -0.24100
N 	N 	0.35043 0.54499 0.95032 -0.36600
N 	N 	0.36843 0.51696 0.94979 -0.23100
N 	N 	0.15755 0.05360 0.05335 -0.25900
N 	N 	0.04188 0.05822 0.04622 -0.25100
N 	N 	0.26117 0.27194 0.11343 -0.25300
N 	N 	0.16726 0.25366 0.03936 -0.25500
N 	N 	0.16691 0.18581 0.08454 -0.24100
N 	N 	0.18601 0.28378 0.14151 -0.25600
N 	N 	0.10710 0.31688 0.23124 -0.36800
N 	N 	0.11971 0.31738 0.19833 -0.23200
N 	N 	0.16890 0.39669 0.29215 -0.37800
N 	N 	0.18896 0.40622 0.26700 -0.23200
N 	N 	0.18170 0.33094 0.28738 -0.36300
N 	N 	0.20147 0.33171 0.26080 -0.22600
N 	N 	0.21775 0.17031 0.21552 -0.36600
N 	N 	0.20784 0.15661 0.17053 -0.21900
N 	N 	0.14674 0.17217 0.20633 -0.38300
N 	N 	0.13057 0.16200 0.16167 -0.23700
N 	N 	0.14957 0.09989 0.19456 -0.36800
N 	N 	0.13157 0.08136 0.14853 -0.23700
N 	N 	0.50025 0.10420 0.44665 -0.25500
N 	N 	0.51200 0.99566 0.45378 -0.23700
N 	N 	0.65851 0.14774 0.38657 -0.25300
N 	N 	0.71430 0.12790 0.46064 -0.25600
N 	N 	0.60127 0.08237 0.41546 -0.24100
N 	N 	0.64227 0.04450 0.35849 -0.25500
N 	N 	0.58564 0.87586 0.26876 -0.36900
N 	N 	0.61905 0.92138 0.30167 -0.23200
N 	N 	0.60454 0.87675 0.20785 -0.37800
N 	N 	0.63922 0.92196 0.23300 -0.23100
N 	N 	0.54356 0.89432 0.21262 -0.36300
N 	N 	0.57091 0.94067 0.23920 -0.22400
N 	N 	0.45479 0.00223 0.28448 -0.37400
N 	N 	0.48608 0.03731 0.32947 -0.22100
N 	N 	0.46584 0.94041 0.29367 -0.38600
N 	N 	0.50033 0.96890 0.33833 -0.23200
N 	N 	0.40533 0.95501 0.30544 -0.36600
N 	N 	0.43283 0.98304 0.35147 -0.22800
N 	N 	0.99975 0.44640 0.60395 -0.25600
N 	N 	0.98800 0.44178 0.48366 -0.25200
N 	N 	0.84149 0.22806 0.48923 -0.25300
N 	N 	0.78570 0.24634 0.41360 -0.25600
N 	N 	0.89873 0.31419 0.48110 -0.23900
N 	N 	0.85773 0.21622 0.40223 -0.25600
N 	N 	0.91436 0.18312 0.29022 -0.36800
N 	N 	0.88095 0.18262 0.30233 -0.23300
N 	N 	0.89546 0.10331 0.27221 -0.38100
N 	N 	0.86078 0.09378 0.28274 -0.23600
N 	N 	0.95644 0.16906 0.35076 -0.35000
N 	N 	0.92909 0.16829 0.36976 -0.21800
N 	N 	0.04521 0.32969 0.54744 -0.36500
N 	N 	0.01392 0.34339 0.55123 -0.20500
N 	N 	0.03416 0.32783 0.47457 -0.38500
N 	N 	0.99967 0.33800 0.46857 -0.24900
N 	N 	0.09467 0.40011 0.54968 -0.36500
N 	N 	0.06717 0.41864 0.55021 -0.23000
