data_crystal

_cell_length_a 24.36870
_cell_length_b 24.36870
_cell_length_c 47.32200
_cell_angle_alpha 90.00000
_cell_angle_beta  90.00000
_cell_angle_gamma 90.00000

_symmetry_space_group_name_	'P 1'
_symmetry_space_group_name_H-M	'P 1'

loop_
_symmetry_equiv_pos_as_xyz
  x,y,z

loop_
_atom_site_label
_atom_site_type_symbol
_atom_site_fract_x
_atom_site_fract_y
_atom_site_fract_z
_atom_site_charge
La	La	0.08148 0.37847 0.63724 1.52400
Ag	Ag	0.12970 0.70674 0.44115 0.47500
Ag	Ag	0.14749 0.60745 0.49987 0.46400
Ag	Ag	0.18913 0.50353 0.46287 0.46700
Ag	Ag	0.20192 0.59285 0.40645 0.46500
Ag	Ag	0.26758 0.73702 0.46055 0.46500
Ag	Ag	0.27796 0.65584 0.51866 0.46700
Ag	Ag	0.32518 0.55688 0.47745 0.46000
Ag	Ag	0.33970 0.63970 0.41268 0.47700
Ni	Ni	0.04422 0.56512 0.43659 1.04300
Ni	Ni	0.42624 0.68774 0.48227 1.04500
Ni	Ni	0.23553 0.74759 0.37710 1.04500
Ni	Ni	0.24293 0.49593 0.54525 1.04900
Ni	Ni	0.16095 0.77355 0.52076 1.04800
Ni	Ni	0.31556 0.47307 0.40471 1.05300
S 	S 	0.07610 0.62913 0.46366 -0.63300
S 	S 	0.12423 0.53340 0.42521 -0.64700
S 	S 	0.34549 0.71651 0.49471 -0.63300
S 	S 	0.39535 0.62083 0.45655 -0.64900
S 	S 	0.29624 0.73224 0.40944 -0.63800
S 	S 	0.17599 0.69066 0.39416 -0.62800
S 	S 	0.29866 0.55738 0.52940 -0.63100
S 	S 	0.17753 0.51334 0.51540 -0.65100
S 	S 	0.18271 0.68855 0.52777 -0.63300
S 	S 	0.17549 0.77081 0.47583 -0.61900
S 	S 	0.28565 0.48045 0.44756 -0.65400
S 	S 	0.29410 0.55595 0.39264 -0.65600
O 	O 	0.88310 0.61480 0.47300 -0.25700
O 	O 	0.89300 0.69960 0.47480 -0.30700
O 	O 	0.04420 0.36810 0.39161 -0.33000
O 	O 	0.97860 0.42780 0.38042 -0.44200
O 	O 	0.48700 0.82400 0.54194 -0.27100
O 	O 	0.41880 0.81250 0.57270 -0.47300
O 	O 	0.58910 0.60940 0.46150 -0.22900
O 	O 	0.57140 0.60050 0.41300 -0.26400
O 	O 	0.42890 0.84160 0.35970 -0.32100
O 	O 	0.35060 0.88650 0.35441 -0.28800
O 	O 	0.11540 0.75500 0.30420 -0.24700
O 	O 	0.04110 0.75080 0.32770 -0.31800
O 	O 	0.38860 0.44980 0.59960 -0.27000
O 	O 	0.41060 0.53490 0.61250 -0.27700
O 	O 	0.11850 0.39150 0.58878 -0.46400
O 	O 	0.06900 0.36750 0.55245 -0.36600
O 	O 	0.20320 0.72330 0.62615 -0.29000
O 	O 	0.12560 0.76700 0.61482 -0.29700
O 	O 	0.12910 0.95390 0.50670 -0.22600
O 	O 	0.08920 0.94440 0.46380 -0.24300
O 	O 	0.36290 0.29860 0.43429 -0.28500
O 	O 	0.28430 0.28660 0.45622 -0.28600
O 	O 	0.34050 0.44850 0.31093 -0.25300
O 	O 	0.37880 0.53080 0.30239 -0.26800
O 	O 	0.08710 0.43330 0.68706 -0.40200
N 	N 	0.97140 0.59340 0.44434 -0.19000
N 	N 	0.01240 0.50550 0.41503 -0.21100
N 	N 	0.45650 0.73900 0.50947 -0.19200
N 	N 	0.49920 0.67070 0.46856 -0.18100
N 	N 	0.28730 0.79720 0.35988 -0.19700
N 	N 	0.18310 0.76570 0.34837 -0.19900
N 	N 	0.29580 0.48120 0.57435 -0.18800
N 	N 	0.19930 0.43590 0.55904 -0.18900
N 	N 	0.15760 0.78330 0.56148 -0.18500
N 	N 	0.13240 0.84620 0.51635 -0.19200
N 	N 	0.32760 0.39660 0.41133 -0.17100
N 	N 	0.34650 0.46290 0.36743 -0.17300
C 	C 	0.96860 0.64750 0.45720 -0.33300
H 	H 	0.97540 0.67570 0.44290 0.12500
C 	C 	0.01120 0.65220 0.48084 0.53300
C 	C 	0.01950 0.71140 0.49150 -0.98200
H 	H 	0.98650 0.72400 0.50040 0.31900
H 	H 	0.02810 0.73490 0.47580 0.28800
H 	H 	0.04920 0.71220 0.50480 0.27200
C 	C 	0.99840 0.61560 0.50550 -1.00400
H 	H 	0.96500 0.62760 0.51430 0.31700
H 	H 	0.02790 0.61730 0.51890 0.27400
H 	H 	0.99410 0.57850 0.49900 0.29300
C 	C 	0.91080 0.65590 0.47030 0.42400
C 	C 	0.04890 0.45770 0.41188 -0.35500
H 	H 	0.05430 0.44160 0.43070 0.11000
C 	C 	0.10520 0.47660 0.40105 0.58400
C 	C 	0.10150 0.49830 0.37104 -1.02600
H 	H 	0.09160 0.46890 0.35850 0.30900
H 	H 	0.13640 0.51300 0.36550 0.28100
H 	H 	0.07420 0.52660 0.37010 0.30000
C 	C 	0.14940 0.43380 0.40290 -1.08700
H 	H 	0.14050 0.40380 0.39060 0.35200
H 	H 	0.15200 0.42080 0.42200 0.32000
H 	H 	0.18380 0.44960 0.39730 0.30900
C 	C 	0.02190 0.41350 0.39280 0.42400
C 	C 	0.41810 0.75570 0.53062 -0.31400
H 	H 	0.41020 0.72360 0.54240 0.09300
C 	C 	0.36410 0.77500 0.51792 0.53900
C 	C 	0.37170 0.82580 0.49937 -1.01500
H 	H 	0.38130 0.85660 0.51100 0.32700
H 	H 	0.33810 0.83350 0.48960 0.28600
H 	H 	0.40040 0.81920 0.48590 0.30400
C 	C 	0.31870 0.78150 0.53976 -0.99200
H 	H 	0.32740 0.81160 0.55210 0.32100
H 	H 	0.31560 0.74840 0.55060 0.28400
H 	H 	0.28460 0.78870 0.53030 0.26900
C 	C 	0.44360 0.80200 0.55080 0.40500
C 	C 	0.49960 0.63230 0.44370 -0.36000
H 	H 	0.48820 0.65300 0.42700 0.13100
C 	C 	0.46080 0.58590 0.44753 0.64500
C 	C 	0.45200 0.55180 0.42176 -1.16200
H 	H 	0.48550 0.53320 0.41700 0.37700
H 	H 	0.44120 0.57490 0.40630 0.34100
H 	H 	0.42380 0.52520 0.42530 0.32300
C 	C 	0.47570 0.55070 0.47280 -1.12200
H 	H 	0.50930 0.53160 0.46910 0.35100
H 	H 	0.44690 0.52470 0.47630 0.30700
H 	H 	0.48030 0.57370 0.48910 0.33000
C 	C 	0.56030 0.61360 0.43920 0.34700
C 	C 	0.34530 0.79410 0.36968 -0.33800
H 	H 	0.36230 0.76180 0.36090 0.11500
C 	C 	0.34680 0.78650 0.40141 0.55500
C 	C 	0.40140 0.76790 0.41350 -1.01900
H 	H 	0.42880 0.79520 0.40970 0.33000
H 	H 	0.41190 0.73380 0.40490 0.29700
H 	H 	0.39790 0.76280 0.43350 0.28200
C 	C 	0.32980 0.83890 0.41640 -0.99600
H 	H 	0.35600 0.86740 0.41240 0.31000
H 	H 	0.32860 0.83260 0.43640 0.27500
H 	H 	0.29420 0.85000 0.40990 0.29400
C 	C 	0.37750 0.84540 0.36010 0.39300
C 	C 	0.12500 0.74860 0.35430 -0.31900
H 	H 	0.10870 0.77320 0.36840 0.11100
C 	C 	0.12390 0.68870 0.36544 0.53400
C 	C 	0.07040 0.67070 0.37780 -1.01800
H 	H 	0.04310 0.66930 0.36320 0.32700
H 	H 	0.05920 0.69630 0.39210 0.29600
H 	H 	0.07460 0.63490 0.38610 0.27400
C 	C 	0.14570 0.64860 0.34300 -0.96200
H 	H 	0.11990 0.64600 0.32770 0.30700
H 	H 	0.15070 0.61300 0.35130 0.25900
H 	H 	0.18020 0.66170 0.33580 0.28500
C 	C 	0.09090 0.75050 0.32650 0.39900
C 	C 	0.33590 0.52530 0.58006 -0.30600
H 	H 	0.31770 0.55480 0.59060 0.11200
C 	C 	0.35900 0.54860 0.55293 0.52500
C 	C 	0.38580 0.60360 0.55750 -0.99700
H 	H 	0.41710 0.59940 0.56960 0.32700
H 	H 	0.36000 0.62830 0.56610 0.29100
H 	H 	0.39740 0.61830 0.53960 0.27300
C 	C 	0.39900 0.50870 0.53805 -0.94100
H 	H 	0.43090 0.50350 0.54970 0.28500
H 	H 	0.40980 0.52380 0.52020 0.25200
H 	H 	0.38110 0.47410 0.53510 0.27100
C 	C 	0.38350 0.49970 0.59916 0.36500
C 	C 	0.14860 0.42140 0.54301 -0.34700
H 	H 	0.15840 0.39740 0.52720 0.12400
C 	C 	0.12010 0.47490 0.53109 0.61600
C 	C 	0.09640 0.50700 0.55520 -1.12400
H 	H 	0.06650 0.48690 0.56340 0.34900
H 	H 	0.08340 0.54180 0.54840 0.31200
H 	H 	0.12430 0.51290 0.56920 0.33800
C 	C 	0.08070 0.46120 0.50778 -1.11600
H 	H 	0.05030 0.44100 0.51540 0.35300
H 	H 	0.09910 0.43930 0.49380 0.32200
H 	H 	0.06770 0.49440 0.49920 0.30800
C 	C 	0.10870 0.38940 0.56350 0.45300
C 	C 	0.18320 0.73830 0.57789 -0.32200
H 	H 	0.22300 0.74140 0.57550 0.10100
C 	C 	0.16580 0.68200 0.56604 0.53400
C 	C 	0.10330 0.67220 0.56930 -0.95300
H 	H 	0.09440 0.66860 0.58890 0.29100
H 	H 	0.09320 0.63920 0.55950 0.25800
H 	H 	0.08360 0.70270 0.56140 0.27800
C 	C 	0.19720 0.63500 0.57814 -1.02800
H 	H 	0.18880 0.63140 0.59790 0.33500
H 	H 	0.23580 0.64150 0.57590 0.29900
H 	H 	0.18730 0.60180 0.56840 0.28300
C 	C 	0.17070 0.74530 0.60930 0.38600
C 	C 	0.12030 0.86110 0.48650 -0.27800
H 	H 	0.08590 0.84390 0.48050 0.10500
C 	C 	0.16650 0.84360 0.46690 0.46800
C 	C 	0.22330 0.87340 0.47390 -0.84100
H 	H 	0.22050 0.91170 0.46940 0.27400
H 	H 	0.25210 0.85710 0.46290 0.22600
H 	H 	0.23140 0.86920 0.49370 0.24200
C 	C 	0.11410 0.92650 0.48580 0.33100
C 	C 	0.15470 0.84850 0.43590 -0.94500
H 	H 	0.15020 0.88650 0.43100 0.31400
H 	H 	0.12170 0.82880 0.43150 0.27900
H 	H 	0.18480 0.83340 0.42530 0.26000
C 	C 	0.29930 0.37450 0.43707 -0.36600
H 	H 	0.25990 0.37300 0.43300 0.13400
C 	C 	0.30750 0.41290 0.46115 0.62800
C 	C 	0.36780 0.41610 0.46898 -1.07500
H 	H 	0.37980 0.38120 0.47610 0.32100
H 	H 	0.37290 0.44370 0.48320 0.29000
H 	H 	0.38890 0.42550 0.45250 0.31600
C 	C 	0.27540 0.39860 0.48699 -1.14700
H 	H 	0.28710 0.36350 0.49390 0.37000
H 	H 	0.23710 0.39710 0.48240 0.34100
H 	H 	0.28150 0.42590 0.50120 0.31400
C 	C 	0.31940 0.31430 0.44295 0.39800
C 	C 	0.35050 0.51280 0.34913 -0.36500
H 	H 	0.38330 0.53320 0.35490 0.12900
C 	C 	0.30090 0.54970 0.35402 0.64100
C 	C 	0.25060 0.52410 0.34240 -1.16800
H 	H 	0.25400 0.52090 0.32220 0.36100
H 	H 	0.21940 0.54650 0.34690 0.32300
H 	H 	0.24590 0.48830 0.35040 0.35000
C 	C 	0.31050 0.60730 0.34240 -1.11800
H 	H 	0.31430 0.60550 0.32220 0.36300
H 	H 	0.34340 0.62220 0.35040 0.32700
H 	H 	0.27990 0.63030 0.34710 0.31200
C 	C 	0.35820 0.49570 0.31890 0.37200
O 	O 	0.16840 0.41370 0.66450 -0.35100
C 	C 	0.13480 0.43770 0.68730 0.37800
C 	C 	0.16620 0.47140 0.71360 -0.73000
H 	H 	0.14930 0.46200 0.73130 0.22500
H 	H 	0.16310 0.51020 0.71050 0.24400
H 	H 	0.20430 0.46130 0.71410 0.24500
La	La	0.91852 0.62153 0.13724 1.52400
Ag	Ag	0.87030 0.29326 0.94115 0.47500
Ag	Ag	0.85251 0.39255 0.99987 0.46400
Ag	Ag	0.81087 0.49647 0.96287 0.46700
Ag	Ag	0.79808 0.40715 0.90645 0.46500
Ag	Ag	0.73242 0.26298 0.96055 0.46500
Ag	Ag	0.72204 0.34416 0.01866 0.46700
Ag	Ag	0.67482 0.44312 0.97745 0.46000
Ag	Ag	0.66030 0.36030 0.91268 0.47700
Ni	Ni	0.95578 0.43488 0.93659 1.04300
Ni	Ni	0.57376 0.31226 0.98227 1.04500
Ni	Ni	0.76447 0.25241 0.87710 1.04500
Ni	Ni	0.75707 0.50407 0.04525 1.04900
Ni	Ni	0.83905 0.22645 0.02076 1.04800
Ni	Ni	0.68444 0.52693 0.90471 1.05300
S 	S 	0.92390 0.37087 0.96366 -0.63300
S 	S 	0.87577 0.46660 0.92521 -0.64700
S 	S 	0.65451 0.28349 0.99471 -0.63300
S 	S 	0.60465 0.37917 0.95655 -0.64900
S 	S 	0.70376 0.26776 0.90944 -0.63800
S 	S 	0.82401 0.30934 0.89416 -0.62800
S 	S 	0.70134 0.44262 0.02940 -0.63100
S 	S 	0.82247 0.48666 0.01540 -0.65100
S 	S 	0.81729 0.31145 0.02777 -0.63300
S 	S 	0.82451 0.22919 0.97583 -0.61800
S 	S 	0.71435 0.51955 0.94756 -0.65400
S 	S 	0.70590 0.44405 0.89264 -0.65600
O 	O 	0.11690 0.38520 0.97300 -0.25700
O 	O 	0.10700 0.30040 0.97480 -0.30700
O 	O 	0.95580 0.63190 0.89161 -0.33000
O 	O 	0.02140 0.57220 0.88042 -0.44200
O 	O 	0.51300 0.17600 0.04194 -0.27100
O 	O 	0.58120 0.18750 0.07270 -0.47300
O 	O 	0.41090 0.39060 0.96150 -0.22900
O 	O 	0.42860 0.39950 0.91300 -0.26400
O 	O 	0.57110 0.15840 0.85970 -0.32100
O 	O 	0.64940 0.11350 0.85441 -0.28800
O 	O 	0.88460 0.24500 0.80420 -0.24700
O 	O 	0.95890 0.24920 0.82770 -0.31800
O 	O 	0.61140 0.55020 0.09960 -0.27000
O 	O 	0.58940 0.46510 0.11250 -0.27700
O 	O 	0.88150 0.60850 0.08878 -0.46400
O 	O 	0.93100 0.63250 0.05245 -0.36600
O 	O 	0.79680 0.27670 0.12615 -0.29000
O 	O 	0.87440 0.23300 0.11482 -0.29700
O 	O 	0.87090 0.04610 0.00670 -0.22600
O 	O 	0.91080 0.05560 0.96380 -0.24300
O 	O 	0.63710 0.70140 0.93429 -0.28500
O 	O 	0.71570 0.71340 0.95622 -0.28600
O 	O 	0.65950 0.55150 0.81093 -0.25300
O 	O 	0.62120 0.46920 0.80239 -0.26800
O 	O 	0.91290 0.56670 0.18706 -0.40200
N 	N 	0.02860 0.40660 0.94434 -0.19000
N 	N 	0.98760 0.49450 0.91503 -0.21100
N 	N 	0.54350 0.26100 0.00947 -0.19200
N 	N 	0.50080 0.32930 0.96856 -0.18100
N 	N 	0.71270 0.20280 0.85988 -0.19700
N 	N 	0.81690 0.23430 0.84837 -0.19900
N 	N 	0.70420 0.51880 0.07435 -0.18800
N 	N 	0.80070 0.56410 0.05904 -0.18900
N 	N 	0.84240 0.21670 0.06148 -0.18500
N 	N 	0.86760 0.15380 0.01635 -0.19200
N 	N 	0.67240 0.60340 0.91133 -0.17100
N 	N 	0.65350 0.53710 0.86743 -0.17300
C 	C 	0.03140 0.35250 0.95720 -0.33300
H 	H 	0.02460 0.32430 0.94290 0.12500
C 	C 	0.98880 0.34780 0.98084 0.53300
C 	C 	0.98050 0.28860 0.99150 -0.98200
H 	H 	0.01350 0.27600 0.00040 0.31900
H 	H 	0.97190 0.26510 0.97580 0.28800
H 	H 	0.95080 0.28780 0.00480 0.27200
C 	C 	0.00160 0.38440 0.00550 -1.00300
H 	H 	0.03500 0.37240 0.01430 0.31700
H 	H 	0.97210 0.38270 0.01890 0.27400
H 	H 	0.00590 0.42150 0.99900 0.29300
C 	C 	0.08920 0.34410 0.97030 0.42400
C 	C 	0.95110 0.54230 0.91188 -0.35500
H 	H 	0.94570 0.55840 0.93070 0.11000
C 	C 	0.89480 0.52340 0.90105 0.58400
C 	C 	0.89850 0.50170 0.87104 -1.02600
H 	H 	0.90840 0.53110 0.85850 0.30900
H 	H 	0.86360 0.48700 0.86550 0.28100
H 	H 	0.92580 0.47340 0.87010 0.30000
C 	C 	0.85060 0.56620 0.90290 -1.08700
H 	H 	0.85950 0.59620 0.89060 0.35200
H 	H 	0.84800 0.57920 0.92200 0.32000
H 	H 	0.81620 0.55040 0.89730 0.30900
C 	C 	0.97810 0.58650 0.89280 0.42400
C 	C 	0.58190 0.24430 0.03062 -0.31400
H 	H 	0.58980 0.27640 0.04240 0.09300
C 	C 	0.63590 0.22500 0.01792 0.53900
C 	C 	0.62830 0.17420 0.99937 -1.01500
H 	H 	0.61870 0.14340 0.01100 0.32700
H 	H 	0.66190 0.16650 0.98960 0.28600
H 	H 	0.59960 0.18080 0.98590 0.30400
C 	C 	0.68130 0.21850 0.03976 -0.99200
H 	H 	0.67260 0.18840 0.05210 0.32100
H 	H 	0.68440 0.25160 0.05060 0.28400
H 	H 	0.71540 0.21130 0.03030 0.26900
C 	C 	0.55640 0.19800 0.05080 0.40500
C 	C 	0.50040 0.36770 0.94370 -0.36000
H 	H 	0.51180 0.34700 0.92700 0.13100
C 	C 	0.53920 0.41410 0.94753 0.64500
C 	C 	0.54800 0.44820 0.92176 -1.16200
H 	H 	0.51450 0.46680 0.91700 0.37700
H 	H 	0.55880 0.42510 0.90630 0.34100
H 	H 	0.57620 0.47480 0.92530 0.32300
C 	C 	0.52430 0.44930 0.97280 -1.12200
H 	H 	0.49070 0.46840 0.96910 0.35100
H 	H 	0.55310 0.47530 0.97630 0.30700
H 	H 	0.51970 0.42630 0.98910 0.33000
C 	C 	0.43970 0.38640 0.93920 0.34700
C 	C 	0.65470 0.20590 0.86968 -0.33800
H 	H 	0.63770 0.23820 0.86090 0.11500
C 	C 	0.65320 0.21350 0.90141 0.55500
C 	C 	0.59860 0.23210 0.91350 -1.01900
H 	H 	0.57120 0.20480 0.90970 0.33000
H 	H 	0.58810 0.26620 0.90490 0.29700
H 	H 	0.60210 0.23720 0.93350 0.28200
C 	C 	0.67020 0.16110 0.91640 -0.99600
H 	H 	0.64400 0.13260 0.91240 0.31000
H 	H 	0.67140 0.16740 0.93640 0.27500
H 	H 	0.70580 0.15000 0.90990 0.29400
C 	C 	0.62250 0.15460 0.86010 0.39300
C 	C 	0.87500 0.25140 0.85430 -0.31900
H 	H 	0.89130 0.22680 0.86840 0.11100
C 	C 	0.87610 0.31130 0.86544 0.53400
C 	C 	0.92960 0.32930 0.87780 -1.01800
H 	H 	0.95690 0.33070 0.86320 0.32700
H 	H 	0.94080 0.30370 0.89210 0.29600
H 	H 	0.92540 0.36510 0.88610 0.27400
C 	C 	0.85430 0.35140 0.84300 -0.96200
H 	H 	0.88010 0.35400 0.82770 0.30700
H 	H 	0.84930 0.38700 0.85130 0.25900
H 	H 	0.81980 0.33830 0.83580 0.28500
C 	C 	0.90910 0.24950 0.82650 0.39900
C 	C 	0.66410 0.47470 0.08006 -0.30600
H 	H 	0.68230 0.44520 0.09060 0.11200
C 	C 	0.64100 0.45140 0.05293 0.52500
C 	C 	0.61420 0.39640 0.05750 -0.99700
H 	H 	0.58290 0.40060 0.06960 0.32700
H 	H 	0.64000 0.37170 0.06610 0.29100
H 	H 	0.60260 0.38170 0.03960 0.27300
C 	C 	0.60100 0.49130 0.03805 -0.94100
H 	H 	0.56910 0.49650 0.04970 0.28500
H 	H 	0.59020 0.47620 0.02020 0.25200
H 	H 	0.61890 0.52590 0.03510 0.27100
C 	C 	0.61650 0.50030 0.09916 0.36500
C 	C 	0.85140 0.57860 0.04301 -0.34700
H 	H 	0.84160 0.60260 0.02720 0.12400
C 	C 	0.87990 0.52510 0.03109 0.61700
C 	C 	0.90360 0.49300 0.05520 -1.12500
H 	H 	0.93350 0.51310 0.06340 0.34900
H 	H 	0.91660 0.45820 0.04840 0.31200
H 	H 	0.87570 0.48710 0.06920 0.33800
C 	C 	0.91930 0.53880 0.00778 -1.11600
H 	H 	0.94970 0.55900 0.01540 0.35300
H 	H 	0.90090 0.56070 0.99380 0.32200
H 	H 	0.93230 0.50560 0.99920 0.30800
C 	C 	0.89130 0.61060 0.06350 0.45300
C 	C 	0.81680 0.26170 0.07789 -0.32200
H 	H 	0.77700 0.25860 0.07550 0.10100
C 	C 	0.83420 0.31800 0.06604 0.53400
C 	C 	0.89670 0.32780 0.06930 -0.95300
H 	H 	0.90560 0.33140 0.08890 0.29100
H 	H 	0.90680 0.36080 0.05950 0.25800
H 	H 	0.91640 0.29730 0.06140 0.27800
C 	C 	0.80280 0.36500 0.07814 -1.02800
H 	H 	0.81120 0.36860 0.09790 0.33500
H 	H 	0.76420 0.35850 0.07590 0.29900
H 	H 	0.81270 0.39820 0.06840 0.28300
C 	C 	0.82930 0.25470 0.10930 0.38600
C 	C 	0.87970 0.13890 0.98650 -0.27800
H 	H 	0.91410 0.15610 0.98050 0.10600
C 	C 	0.83350 0.15640 0.96690 0.46800
C 	C 	0.77670 0.12660 0.97390 -0.84100
H 	H 	0.77950 0.08830 0.96940 0.27400
H 	H 	0.74790 0.14290 0.96290 0.22600
H 	H 	0.76860 0.13080 0.99370 0.24200
C 	C 	0.88590 0.07350 0.98580 0.33100
C 	C 	0.84530 0.15150 0.93590 -0.94500
H 	H 	0.84980 0.11350 0.93100 0.31400
H 	H 	0.87830 0.17120 0.93150 0.28000
H 	H 	0.81520 0.16660 0.92530 0.26000
C 	C 	0.70070 0.62550 0.93707 -0.36600
H 	H 	0.74010 0.62700 0.93300 0.13400
C 	C 	0.69250 0.58710 0.96115 0.62800
C 	C 	0.63220 0.58390 0.96898 -1.07500
H 	H 	0.62020 0.61880 0.97610 0.32100
H 	H 	0.62710 0.55630 0.98320 0.29000
H 	H 	0.61110 0.57450 0.95250 0.31600
C 	C 	0.72460 0.60140 0.98699 -1.14700
H 	H 	0.71290 0.63650 0.99390 0.37000
H 	H 	0.76290 0.60290 0.98240 0.34100
H 	H 	0.71850 0.57410 0.00120 0.31400
C 	C 	0.68060 0.68570 0.94295 0.39800
C 	C 	0.64950 0.48720 0.84913 -0.36500
H 	H 	0.61670 0.46680 0.85490 0.12900
C 	C 	0.69910 0.45030 0.85402 0.64100
C 	C 	0.74940 0.47590 0.84240 -1.16800
H 	H 	0.74600 0.47910 0.82220 0.36100
H 	H 	0.78060 0.45350 0.84690 0.32300
H 	H 	0.75410 0.51170 0.85040 0.35000
C 	C 	0.68950 0.39270 0.84240 -1.11800
H 	H 	0.68570 0.39450 0.82220 0.36300
H 	H 	0.65660 0.37780 0.85040 0.32700
H 	H 	0.72010 0.36970 0.84710 0.31200
C 	C 	0.64180 0.50430 0.81890 0.37200
O 	O 	0.83160 0.58630 0.16450 -0.35100
C 	C 	0.86520 0.56230 0.18730 0.37800
C 	C 	0.83380 0.52860 0.21360 -0.73000
H 	H 	0.85070 0.53800 0.23130 0.22500
H 	H 	0.83690 0.48980 0.21050 0.24400
H 	H 	0.79570 0.53870 0.21410 0.24500
La	La	0.12153 0.58148 0.88724 1.52400
Ag	Ag	0.79326 0.62970 0.69115 0.47500
Ag	Ag	0.89255 0.64749 0.74987 0.46400
Ag	Ag	0.99647 0.68913 0.71287 0.46800
Ag	Ag	0.90715 0.70192 0.65645 0.46500
Ag	Ag	0.76298 0.76758 0.71055 0.46500
Ag	Ag	0.84416 0.77796 0.76866 0.46700
Ag	Ag	0.94312 0.82518 0.72745 0.46100
Ag	Ag	0.86030 0.83970 0.66268 0.47700
Ni	Ni	0.93488 0.54422 0.68659 1.04300
Ni	Ni	0.81226 0.92624 0.73227 1.04500
Ni	Ni	0.75241 0.73553 0.62710 1.04500
Ni	Ni	0.00407 0.74293 0.79525 1.04900
Ni	Ni	0.72645 0.66095 0.77076 1.04800
Ni	Ni	0.02693 0.81556 0.65471 1.05200
S 	S 	0.87087 0.57610 0.71366 -0.63300
S 	S 	0.96660 0.62423 0.67521 -0.64600
S 	S 	0.78349 0.84549 0.74471 -0.63400
S 	S 	0.87917 0.89535 0.70655 -0.64800
S 	S 	0.76776 0.79624 0.65944 -0.63800
S 	S 	0.80934 0.67599 0.64416 -0.62800
S 	S 	0.94262 0.79866 0.77940 -0.62900
S 	S 	0.98666 0.67753 0.76540 -0.64800
S 	S 	0.81145 0.68271 0.77777 -0.63300
S 	S 	0.72919 0.67549 0.72583 -0.61900
S 	S 	0.01955 0.78565 0.69756 -0.65500
S 	S 	0.94405 0.79410 0.64264 -0.65300
O 	O 	0.88520 0.38310 0.72300 -0.25700
O 	O 	0.80040 0.39300 0.72480 -0.30800
O 	O 	0.13190 0.54420 0.64161 -0.33100
O 	O 	0.07220 0.47860 0.63042 -0.44200
O 	O 	0.67600 0.98700 0.79194 -0.27100
O 	O 	0.68750 0.91880 0.82270 -0.47300
O 	O 	0.89060 0.08910 0.71150 -0.22900
O 	O 	0.89950 0.07140 0.66300 -0.26400
O 	O 	0.65840 0.92890 0.60970 -0.32000
O 	O 	0.61350 0.85060 0.60441 -0.28800
O 	O 	0.74500 0.61540 0.55420 -0.24700
O 	O 	0.74920 0.54110 0.57770 -0.31700
O 	O 	0.05020 0.88860 0.84960 -0.26900
O 	O 	0.96510 0.91060 0.86250 -0.27400
O 	O 	0.10850 0.61850 0.83878 -0.46400
O 	O 	0.13250 0.56900 0.80245 -0.36600
O 	O 	0.77670 0.70320 0.87615 -0.29000
O 	O 	0.73300 0.62560 0.86482 -0.29700
O 	O 	0.54610 0.62910 0.75670 -0.22600
O 	O 	0.55560 0.58920 0.71380 -0.24300
O 	O 	0.20140 0.86290 0.68429 -0.28500
O 	O 	0.21340 0.78430 0.70622 -0.28600
O 	O 	0.05150 0.84050 0.56093 -0.25200
O 	O 	0.96920 0.87880 0.55239 -0.26400
O 	O 	0.06670 0.58710 0.93706 -0.40200
N 	N 	0.90660 0.47140 0.69434 -0.19000
N 	N 	0.99450 0.51240 0.66503 -0.21000
N 	N 	0.76100 0.95650 0.75947 -0.19200
N 	N 	0.82930 0.99920 0.71856 -0.18100
N 	N 	0.70280 0.78730 0.60988 -0.19700
N 	N 	0.73430 0.68310 0.59837 -0.19900
N 	N 	0.01880 0.79580 0.82435 -0.19000
N 	N 	0.06410 0.69930 0.80904 -0.19000
N 	N 	0.71670 0.65760 0.81148 -0.18500
N 	N 	0.65380 0.63240 0.76635 -0.19200
N 	N 	0.10340 0.82760 0.66133 -0.17100
N 	N 	0.03710 0.84650 0.61743 -0.17500
C 	C 	0.85250 0.46860 0.70720 -0.33400
H 	H 	0.82430 0.47540 0.69290 0.12500
C 	C 	0.84780 0.51120 0.73084 0.53600
C 	C 	0.78860 0.51950 0.74150 -0.97900
H 	H 	0.77600 0.48650 0.75040 0.31800
H 	H 	0.76510 0.52810 0.72580 0.28800
H 	H 	0.78780 0.54920 0.75480 0.27100
C 	C 	0.88440 0.49840 0.75550 -1.01000
H 	H 	0.87240 0.46500 0.76430 0.31900
H 	H 	0.88270 0.52790 0.76890 0.27600
H 	H 	0.92150 0.49410 0.74900 0.29500
C 	C 	0.84410 0.41080 0.72030 0.42400
C 	C 	0.04230 0.54890 0.66188 -0.35600
H 	H 	0.05840 0.55430 0.68070 0.11100
C 	C 	0.02340 0.60520 0.65105 0.58700
C 	C 	0.00170 0.60150 0.62104 -1.03600
H 	H 	0.03110 0.59160 0.60850 0.31200
H 	H 	0.98700 0.63640 0.61550 0.28500
H 	H 	0.97340 0.57420 0.62010 0.30300
C 	C 	0.06620 0.64940 0.65290 -1.09000
H 	H 	0.09620 0.64050 0.64060 0.35300
H 	H 	0.07920 0.65200 0.67200 0.32100
H 	H 	0.05040 0.68380 0.64730 0.30900
C 	C 	0.08650 0.52190 0.64280 0.42400
C 	C 	0.74430 0.91810 0.78062 -0.31400
H 	H 	0.77640 0.91020 0.79240 0.09300
C 	C 	0.72500 0.86410 0.76792 0.53900
C 	C 	0.67420 0.87170 0.74937 -1.01500
H 	H 	0.64340 0.88130 0.76100 0.32700
H 	H 	0.66650 0.83810 0.73960 0.28600
H 	H 	0.68080 0.90040 0.73590 0.30400
C 	C 	0.71850 0.81870 0.78976 -0.99200
H 	H 	0.68840 0.82740 0.80210 0.32100
H 	H 	0.75160 0.81560 0.80060 0.28400
H 	H 	0.71130 0.78460 0.78030 0.26900
C 	C 	0.69800 0.94360 0.80080 0.40500
C 	C 	0.86770 0.99960 0.69370 -0.35800
H 	H 	0.84700 0.98820 0.67700 0.13100
C 	C 	0.91410 0.96080 0.69753 0.64200
C 	C 	0.94820 0.95200 0.67176 -1.16000
H 	H 	0.96680 0.98550 0.66700 0.37700
H 	H 	0.92510 0.94120 0.65630 0.34100
H 	H 	0.97480 0.92380 0.67530 0.32300
C 	C 	0.94930 0.97570 0.72280 -1.11200
H 	H 	0.96840 0.00930 0.71910 0.34600
H 	H 	0.97530 0.94690 0.72630 0.30500
H 	H 	0.92630 0.98030 0.73910 0.32800
C 	C 	0.88640 0.06030 0.68920 0.34500
C 	C 	0.70590 0.84530 0.61968 -0.33900
H 	H 	0.73820 0.86230 0.61090 0.11600
C 	C 	0.71350 0.84680 0.65141 0.55500
C 	C 	0.73210 0.90140 0.66350 -1.01900
H 	H 	0.70480 0.92880 0.65970 0.33100
H 	H 	0.76620 0.91190 0.65490 0.29800
H 	H 	0.73720 0.89790 0.68350 0.28200
C 	C 	0.66110 0.82980 0.66640 -0.99600
H 	H 	0.63260 0.85600 0.66240 0.31000
H 	H 	0.66740 0.82860 0.68640 0.27600
H 	H 	0.65000 0.79420 0.65990 0.29400
C 	C 	0.65460 0.87750 0.61010 0.39300
C 	C 	0.75140 0.62500 0.60430 -0.31900
H 	H 	0.72680 0.60870 0.61840 0.11200
C 	C 	0.81130 0.62390 0.61544 0.53400
C 	C 	0.82930 0.57040 0.62780 -1.01900
H 	H 	0.83070 0.54310 0.61320 0.32800
H 	H 	0.80370 0.55920 0.64210 0.29700
H 	H 	0.86510 0.57460 0.63610 0.27400
C 	C 	0.85140 0.64570 0.59300 -0.96300
H 	H 	0.85400 0.61990 0.57770 0.30700
H 	H 	0.88700 0.65070 0.60130 0.25900
H 	H 	0.83830 0.68020 0.58580 0.28500
C 	C 	0.74950 0.59090 0.57650 0.39900
C 	C 	0.97470 0.83590 0.83006 -0.30100
H 	H 	0.94520 0.81770 0.84060 0.11100
C 	C 	0.95140 0.85900 0.80293 0.52000
C 	C 	0.89640 0.88580 0.80750 -0.99300
H 	H 	0.90060 0.91710 0.81960 0.32600
H 	H 	0.87170 0.86000 0.81610 0.29000
H 	H 	0.88170 0.89740 0.78960 0.27200
C 	C 	0.99130 0.89900 0.78805 -0.93000
H 	H 	0.99650 0.93090 0.79970 0.28300
H 	H 	0.97620 0.90980 0.77020 0.24900
H 	H 	0.02590 0.88110 0.78510 0.26700
C 	C 	0.00030 0.88350 0.84916 0.36000
C 	C 	0.07860 0.64860 0.79301 -0.34500
H 	H 	0.10260 0.65840 0.77720 0.12400
C 	C 	0.02510 0.62010 0.78109 0.61200
C 	C 	0.99300 0.59640 0.80520 -1.11600
H 	H 	0.01310 0.56650 0.81340 0.34700
H 	H 	0.95820 0.58340 0.79840 0.31000
H 	H 	0.98710 0.62430 0.81920 0.33600
C 	C 	0.03880 0.58070 0.75778 -1.11100
H 	H 	0.05900 0.55030 0.76540 0.35200
H 	H 	0.06070 0.59910 0.74380 0.32000
H 	H 	0.00560 0.56770 0.74920 0.30600
C 	C 	0.11060 0.60870 0.81350 0.45200
C 	C 	0.76170 0.68320 0.82789 -0.32200
H 	H 	0.75860 0.72300 0.82550 0.10100
C 	C 	0.81800 0.66580 0.81604 0.53500
C 	C 	0.82780 0.60330 0.81930 -0.95400
H 	H 	0.83140 0.59440 0.83890 0.29200
H 	H 	0.86080 0.59320 0.80950 0.25800
H 	H 	0.79730 0.58360 0.81140 0.27900
C 	C 	0.86500 0.69720 0.82814 -1.02900
H 	H 	0.86860 0.68880 0.84790 0.33500
H 	H 	0.85850 0.73580 0.82590 0.29900
H 	H 	0.89820 0.68730 0.81840 0.28300
C 	C 	0.75470 0.67070 0.85930 0.38600
C 	C 	0.63890 0.62030 0.73650 -0.27800
H 	H 	0.65610 0.58590 0.73050 0.10600
C 	C 	0.65640 0.66650 0.71690 0.46800
C 	C 	0.62660 0.72330 0.72390 -0.84100
H 	H 	0.58830 0.72050 0.71940 0.27500
H 	H 	0.64290 0.75210 0.71290 0.22600
H 	H 	0.63080 0.73140 0.74370 0.24200
C 	C 	0.57350 0.61410 0.73580 0.33100
C 	C 	0.65150 0.65470 0.68590 -0.94600
H 	H 	0.61350 0.65020 0.68100 0.31400
H 	H 	0.67120 0.62170 0.68150 0.28000
H 	H 	0.66660 0.68480 0.67530 0.26000
C 	C 	0.12550 0.79930 0.68707 -0.36600
H 	H 	0.12700 0.75990 0.68300 0.13400
C 	C 	0.08710 0.80750 0.71115 0.62700
C 	C 	0.08390 0.86780 0.71898 -1.07400
H 	H 	0.11880 0.87980 0.72610 0.32100
H 	H 	0.05630 0.87290 0.73320 0.28900
H 	H 	0.07450 0.88890 0.70250 0.31500
C 	C 	0.10140 0.77540 0.73699 -1.14700
H 	H 	0.13650 0.78710 0.74390 0.37000
H 	H 	0.10290 0.73710 0.73240 0.34000
H 	H 	0.07410 0.78150 0.75120 0.31400
C 	C 	0.18570 0.81940 0.69295 0.39800
C 	C 	0.98720 0.85050 0.59913 -0.35900
H 	H 	0.96680 0.88330 0.60490 0.12800
C 	C 	0.95030 0.80090 0.60402 0.63600
C 	C 	0.97590 0.75060 0.59240 -1.15600
H 	H 	0.97910 0.75400 0.57220 0.35800
H 	H 	0.95350 0.71940 0.59690 0.32000
H 	H 	0.01170 0.74590 0.60040 0.34500
C 	C 	0.89270 0.81050 0.59240 -1.11200
H 	H 	0.89450 0.81430 0.57220 0.36200
H 	H 	0.87780 0.84340 0.60040 0.32500
H 	H 	0.86970 0.77990 0.59710 0.31100
C 	C 	0.00430 0.85820 0.56890 0.36700
O 	O 	0.08630 0.66840 0.91450 -0.35200
C 	C 	0.06230 0.63480 0.93730 0.37900
C 	C 	0.02860 0.66620 0.96360 -0.73200
H 	H 	0.03800 0.64930 0.98130 0.22600
H 	H 	0.98980 0.66310 0.96050 0.24600
H 	H 	0.03870 0.70430 0.96410 0.24600
La	La	0.87847 0.41852 0.38724 1.52400
Ag	Ag	0.20674 0.37030 0.19115 0.47500
Ag	Ag	0.10745 0.35251 0.24987 0.46400
Ag	Ag	0.00353 0.31087 0.21287 0.46800
Ag	Ag	0.09285 0.29808 0.15645 0.46500
Ag	Ag	0.23702 0.23242 0.21055 0.46500
Ag	Ag	0.15584 0.22204 0.26866 0.46700
Ag	Ag	0.05688 0.17482 0.22745 0.46100
Ag	Ag	0.13970 0.16030 0.16268 0.47700
Ni	Ni	0.06512 0.45578 0.18659 1.04300
Ni	Ni	0.18774 0.07376 0.23227 1.04500
Ni	Ni	0.24759 0.26447 0.12710 1.04500
Ni	Ni	0.99593 0.25707 0.29525 1.04900
Ni	Ni	0.27355 0.33905 0.27076 1.04800
Ni	Ni	0.97307 0.18444 0.15471 1.05200
S 	S 	0.12913 0.42390 0.21366 -0.63300
S 	S 	0.03340 0.37577 0.17521 -0.64600
S 	S 	0.21651 0.15451 0.24471 -0.63400
S 	S 	0.12083 0.10465 0.20655 -0.64800
S 	S 	0.23224 0.20376 0.15944 -0.63800
S 	S 	0.19066 0.32401 0.14416 -0.62800
S 	S 	0.05738 0.20134 0.27940 -0.62900
S 	S 	0.01334 0.32247 0.26540 -0.64800
S 	S 	0.18855 0.31729 0.27777 -0.63300
S 	S 	0.27081 0.32451 0.22583 -0.61900
S 	S 	0.98045 0.21435 0.19756 -0.65500
S 	S 	0.05595 0.20590 0.14264 -0.65300
O 	O 	0.11480 0.61690 0.22300 -0.25700
O 	O 	0.19960 0.60700 0.22480 -0.30800
O 	O 	0.86810 0.45580 0.14161 -0.33100
O 	O 	0.92780 0.52140 0.13042 -0.44200
O 	O 	0.32400 0.01300 0.29194 -0.27100
O 	O 	0.31250 0.08120 0.32270 -0.47300
O 	O 	0.10940 0.91090 0.21150 -0.22900
O 	O 	0.10050 0.92860 0.16300 -0.26400
O 	O 	0.34160 0.07110 0.10970 -0.32000
O 	O 	0.38650 0.14940 0.10441 -0.28800
O 	O 	0.25500 0.38460 0.05420 -0.24700
O 	O 	0.25080 0.45890 0.07770 -0.31700
O 	O 	0.94980 0.11140 0.34960 -0.26900
O 	O 	0.03490 0.08940 0.36250 -0.27400
O 	O 	0.89150 0.38150 0.33878 -0.46400
O 	O 	0.86750 0.43100 0.30245 -0.36600
O 	O 	0.22330 0.29680 0.37615 -0.29000
O 	O 	0.26700 0.37440 0.36482 -0.29700
O 	O 	0.45390 0.37090 0.25670 -0.22600
O 	O 	0.44440 0.41080 0.21380 -0.24300
O 	O 	0.79860 0.13710 0.18429 -0.28500
O 	O 	0.78660 0.21570 0.20622 -0.28600
O 	O 	0.94850 0.15950 0.06093 -0.25200
O 	O 	0.03080 0.12120 0.05239 -0.26400
O 	O 	0.93330 0.41290 0.43706 -0.40200
N 	N 	0.09340 0.52860 0.19434 -0.19000
N 	N 	0.00550 0.48760 0.16503 -0.21000
N 	N 	0.23900 0.04350 0.25947 -0.19200
N 	N 	0.17070 0.00080 0.21856 -0.18100
N 	N 	0.29720 0.21270 0.10988 -0.19700
N 	N 	0.26570 0.31690 0.09837 -0.19900
N 	N 	0.98120 0.20420 0.32435 -0.19000
N 	N 	0.93590 0.30070 0.30904 -0.19000
N 	N 	0.28330 0.34240 0.31148 -0.18500
N 	N 	0.34620 0.36760 0.26635 -0.19200
N 	N 	0.89660 0.17240 0.16133 -0.17100
N 	N 	0.96290 0.15350 0.11743 -0.17500
C 	C 	0.14750 0.53140 0.20720 -0.33400
H 	H 	0.17570 0.52460 0.19290 0.12500
C 	C 	0.15220 0.48880 0.23084 0.53600
C 	C 	0.21140 0.48050 0.24150 -0.97900
H 	H 	0.22400 0.51350 0.25040 0.31800
H 	H 	0.23490 0.47190 0.22580 0.28800
H 	H 	0.21220 0.45080 0.25480 0.27100
C 	C 	0.11560 0.50160 0.25550 -1.01000
H 	H 	0.12760 0.53500 0.26430 0.31900
H 	H 	0.11730 0.47210 0.26890 0.27600
H 	H 	0.07850 0.50590 0.24900 0.29500
C 	C 	0.15590 0.58920 0.22030 0.42400
C 	C 	0.95770 0.45110 0.16188 -0.35600
H 	H 	0.94160 0.44570 0.18070 0.11100
C 	C 	0.97660 0.39480 0.15105 0.58700
C 	C 	0.99830 0.39850 0.12104 -1.03600
H 	H 	0.96890 0.40840 0.10850 0.31200
H 	H 	0.01300 0.36360 0.11550 0.28500
H 	H 	0.02660 0.42580 0.12010 0.30300
C 	C 	0.93380 0.35060 0.15290 -1.09000
H 	H 	0.90380 0.35950 0.14060 0.35300
H 	H 	0.92080 0.34800 0.17200 0.32100
H 	H 	0.94960 0.31620 0.14730 0.30900
C 	C 	0.91350 0.47810 0.14280 0.42400
C 	C 	0.25570 0.08190 0.28062 -0.31400
H 	H 	0.22360 0.08980 0.29240 0.09300
C 	C 	0.27500 0.13590 0.26792 0.53900
C 	C 	0.32580 0.12830 0.24937 -1.01500
H 	H 	0.35660 0.11870 0.26100 0.32700
H 	H 	0.33350 0.16190 0.23960 0.28600
H 	H 	0.31920 0.09960 0.23590 0.30400
C 	C 	0.28150 0.18130 0.28976 -0.99200
H 	H 	0.31160 0.17260 0.30210 0.32100
H 	H 	0.24840 0.18440 0.30060 0.28400
H 	H 	0.28870 0.21540 0.28030 0.26900
C 	C 	0.30200 0.05640 0.30080 0.40500
C 	C 	0.13230 0.00040 0.19370 -0.35800
H 	H 	0.15300 0.01180 0.17700 0.13100
C 	C 	0.08590 0.03920 0.19753 0.64200
C 	C 	0.05180 0.04800 0.17176 -1.16000
H 	H 	0.03320 0.01450 0.16700 0.37700
H 	H 	0.07490 0.05880 0.15630 0.34100
H 	H 	0.02520 0.07620 0.17530 0.32300
C 	C 	0.05070 0.02430 0.22280 -1.11200
H 	H 	0.03160 0.99070 0.21910 0.34600
H 	H 	0.02470 0.05310 0.22630 0.30500
H 	H 	0.07370 0.01970 0.23910 0.32800
C 	C 	0.11360 0.93970 0.18920 0.34500
C 	C 	0.29410 0.15470 0.11968 -0.33900
H 	H 	0.26180 0.13770 0.11090 0.11600
C 	C 	0.28650 0.15320 0.15141 0.55500
C 	C 	0.26790 0.09860 0.16350 -1.01900
H 	H 	0.29520 0.07120 0.15970 0.33100
H 	H 	0.23380 0.08810 0.15490 0.29800
H 	H 	0.26280 0.10210 0.18350 0.28200
C 	C 	0.33890 0.17020 0.16640 -0.99600
H 	H 	0.36740 0.14400 0.16240 0.31000
H 	H 	0.33260 0.17140 0.18640 0.27600
H 	H 	0.35000 0.20580 0.15990 0.29400
C 	C 	0.34540 0.12250 0.11010 0.39300
C 	C 	0.24860 0.37500 0.10430 -0.31900
H 	H 	0.27320 0.39130 0.11840 0.11200
C 	C 	0.18870 0.37610 0.11544 0.53400
C 	C 	0.17070 0.42960 0.12780 -1.01900
H 	H 	0.16930 0.45690 0.11320 0.32800
H 	H 	0.19630 0.44080 0.14210 0.29700
H 	H 	0.13490 0.42540 0.13610 0.27400
C 	C 	0.14860 0.35430 0.09300 -0.96300
H 	H 	0.14600 0.38010 0.07770 0.30700
H 	H 	0.11300 0.34930 0.10130 0.25900
H 	H 	0.16170 0.31980 0.08580 0.28500
C 	C 	0.25050 0.40910 0.07650 0.39900
C 	C 	0.02530 0.16410 0.33006 -0.30100
H 	H 	0.05480 0.18230 0.34060 0.11100
C 	C 	0.04860 0.14100 0.30293 0.52000
C 	C 	0.10360 0.11420 0.30750 -0.99300
H 	H 	0.09940 0.08290 0.31960 0.32600
H 	H 	0.12830 0.14000 0.31610 0.29000
H 	H 	0.11830 0.10260 0.28960 0.27200
C 	C 	0.00870 0.10100 0.28805 -0.93000
H 	H 	0.00350 0.06910 0.29970 0.28300
H 	H 	0.02380 0.09020 0.27020 0.24900
H 	H 	0.97410 0.11890 0.28510 0.26700
C 	C 	0.99970 0.11650 0.34916 0.36000
C 	C 	0.92140 0.35140 0.29301 -0.34500
H 	H 	0.89740 0.34160 0.27720 0.12400
C 	C 	0.97490 0.37990 0.28109 0.61200
C 	C 	0.00700 0.40360 0.30520 -1.11700
H 	H 	0.98690 0.43350 0.31340 0.34700
H 	H 	0.04180 0.41660 0.29840 0.31000
H 	H 	0.01290 0.37570 0.31920 0.33600
C 	C 	0.96120 0.41930 0.25778 -1.11100
H 	H 	0.94100 0.44970 0.26540 0.35200
H 	H 	0.93930 0.40090 0.24380 0.32000
H 	H 	0.99440 0.43230 0.24920 0.30600
C 	C 	0.88940 0.39130 0.31350 0.45200
C 	C 	0.23830 0.31680 0.32789 -0.32200
H 	H 	0.24140 0.27700 0.32550 0.10100
C 	C 	0.18200 0.33420 0.31604 0.53500
C 	C 	0.17220 0.39670 0.31930 -0.95400
H 	H 	0.16860 0.40560 0.33890 0.29200
H 	H 	0.13920 0.40680 0.30950 0.25800
H 	H 	0.20270 0.41640 0.31140 0.27900
C 	C 	0.13500 0.30280 0.32814 -1.02900
H 	H 	0.13140 0.31120 0.34790 0.33500
H 	H 	0.14150 0.26420 0.32590 0.29900
H 	H 	0.10180 0.31270 0.31840 0.28300
C 	C 	0.24530 0.32930 0.35930 0.38600
C 	C 	0.36110 0.37970 0.23650 -0.27800
H 	H 	0.34390 0.41410 0.23050 0.10600
C 	C 	0.34360 0.33350 0.21690 0.46800
C 	C 	0.37340 0.27670 0.22390 -0.84100
H 	H 	0.41170 0.27950 0.21940 0.27500
H 	H 	0.35710 0.24790 0.21290 0.22600
H 	H 	0.36920 0.26860 0.24370 0.24200
C 	C 	0.42650 0.38590 0.23580 0.33100
C 	C 	0.34850 0.34530 0.18590 -0.94600
H 	H 	0.38650 0.34980 0.18100 0.31400
H 	H 	0.32880 0.37830 0.18150 0.28000
H 	H 	0.33340 0.31520 0.17530 0.26000
C 	C 	0.87450 0.20070 0.18707 -0.36600
H 	H 	0.87300 0.24010 0.18300 0.13400
C 	C 	0.91290 0.19250 0.21115 0.62700
C 	C 	0.91610 0.13220 0.21898 -1.07400
H 	H 	0.88120 0.12020 0.22610 0.32100
H 	H 	0.94370 0.12710 0.23320 0.28900
H 	H 	0.92550 0.11110 0.20250 0.31500
C 	C 	0.89860 0.22460 0.23699 -1.14700
H 	H 	0.86350 0.21290 0.24390 0.37000
H 	H 	0.89710 0.26290 0.23240 0.34000
H 	H 	0.92590 0.21850 0.25120 0.31400
C 	C 	0.81430 0.18060 0.19295 0.39800
C 	C 	0.01280 0.14950 0.09913 -0.35900
H 	H 	0.03320 0.11670 0.10490 0.12800
C 	C 	0.04970 0.19910 0.10402 0.63600
C 	C 	0.02410 0.24940 0.09240 -1.15600
H 	H 	0.02090 0.24600 0.07220 0.35800
H 	H 	0.04650 0.28060 0.09690 0.32000
H 	H 	0.98830 0.25410 0.10040 0.34500
C 	C 	0.10730 0.18950 0.09240 -1.11200
H 	H 	0.10550 0.18570 0.07220 0.36200
H 	H 	0.12220 0.15660 0.10040 0.32500
H 	H 	0.13030 0.22010 0.09710 0.31100
C 	C 	0.99570 0.14180 0.06890 0.36700
O 	O 	0.91370 0.33160 0.41450 -0.35200
C 	C 	0.93770 0.36520 0.43730 0.37900
C 	C 	0.97140 0.33380 0.46360 -0.73200
H 	H 	0.96200 0.35070 0.48130 0.22600
H 	H 	0.01020 0.33690 0.46050 0.24500
H 	H 	0.96130 0.29570 0.46410 0.24600
La	La	0.41852 0.87847 0.61276 1.52400
Ag	Ag	0.37030 0.20674 0.80885 0.47500
Ag	Ag	0.35251 0.10745 0.75013 0.46400
Ag	Ag	0.31087 0.00353 0.78713 0.46800
Ag	Ag	0.29808 0.09285 0.84355 0.46500
Ag	Ag	0.23242 0.23702 0.78945 0.46500
Ag	Ag	0.22204 0.15584 0.73134 0.46700
Ag	Ag	0.17482 0.05688 0.77255 0.46100
Ag	Ag	0.16030 0.13970 0.83732 0.47700
Ni	Ni	0.45578 0.06512 0.81341 1.04300
Ni	Ni	0.07376 0.18774 0.76773 1.04500
Ni	Ni	0.26447 0.24759 0.87290 1.04500
Ni	Ni	0.25707 0.99593 0.70475 1.04900
Ni	Ni	0.33905 0.27355 0.72924 1.04800
Ni	Ni	0.18444 0.97307 0.84529 1.05200
S 	S 	0.42390 0.12913 0.78634 -0.63300
S 	S 	0.37577 0.03340 0.82479 -0.64600
S 	S 	0.15451 0.21651 0.75529 -0.63400
S 	S 	0.10465 0.12083 0.79345 -0.64800
S 	S 	0.20376 0.23224 0.84056 -0.63800
S 	S 	0.32401 0.19066 0.85584 -0.62800
S 	S 	0.20134 0.05738 0.72060 -0.62900
S 	S 	0.32247 0.01334 0.73460 -0.64800
S 	S 	0.31729 0.18855 0.72223 -0.63300
S 	S 	0.32451 0.27081 0.77417 -0.61900
S 	S 	0.21435 0.98045 0.80244 -0.65500
S 	S 	0.20590 0.05595 0.85736 -0.65300
O 	O 	0.61690 0.11480 0.77700 -0.25700
O 	O 	0.60700 0.19960 0.77520 -0.30800
O 	O 	0.45580 0.86810 0.85839 -0.33100
O 	O 	0.52140 0.92780 0.86958 -0.44200
O 	O 	0.01300 0.32400 0.70806 -0.27100
O 	O 	0.08120 0.31250 0.67730 -0.47300
O 	O 	0.91090 0.10940 0.78850 -0.22900
O 	O 	0.92860 0.10050 0.83700 -0.26400
O 	O 	0.07110 0.34160 0.89030 -0.32000
O 	O 	0.14940 0.38650 0.89559 -0.28800
O 	O 	0.38460 0.25500 0.94580 -0.24700
O 	O 	0.45890 0.25080 0.92230 -0.31700
O 	O 	0.11140 0.94980 0.65040 -0.26900
O 	O 	0.08940 0.03490 0.63750 -0.27400
O 	O 	0.38150 0.89150 0.66122 -0.46400
O 	O 	0.43100 0.86750 0.69755 -0.36600
O 	O 	0.29680 0.22330 0.62385 -0.29000
O 	O 	0.37440 0.26700 0.63518 -0.29700
O 	O 	0.37090 0.45390 0.74330 -0.22600
O 	O 	0.41080 0.44440 0.78620 -0.24300
O 	O 	0.13710 0.79860 0.81571 -0.28500
O 	O 	0.21570 0.78660 0.79378 -0.28600
O 	O 	0.15950 0.94850 0.93907 -0.25200
O 	O 	0.12120 0.03080 0.94761 -0.26400
O 	O 	0.41290 0.93330 0.56294 -0.40200
N 	N 	0.52860 0.09340 0.80566 -0.19000
N 	N 	0.48760 0.00550 0.83497 -0.21000
N 	N 	0.04350 0.23900 0.74053 -0.19200
N 	N 	0.00080 0.17070 0.78144 -0.18100
N 	N 	0.21270 0.29720 0.89012 -0.19700
N 	N 	0.31690 0.26570 0.90163 -0.19900
N 	N 	0.20420 0.98120 0.67565 -0.19000
N 	N 	0.30070 0.93590 0.69096 -0.19000
N 	N 	0.34240 0.28330 0.68852 -0.18500
N 	N 	0.36760 0.34620 0.73365 -0.19200
N 	N 	0.17240 0.89660 0.83867 -0.17100
N 	N 	0.15350 0.96290 0.88257 -0.17500
C 	C 	0.53140 0.14750 0.79280 -0.33400
H 	H 	0.52460 0.17570 0.80710 0.12500
C 	C 	0.48880 0.15220 0.76916 0.53600
C 	C 	0.48050 0.21140 0.75850 -0.97900
H 	H 	0.51350 0.22400 0.74960 0.31800
H 	H 	0.47190 0.23490 0.77420 0.28800
H 	H 	0.45080 0.21220 0.74520 0.27100
C 	C 	0.50160 0.11560 0.74450 -1.01000
H 	H 	0.53500 0.12760 0.73570 0.31900
H 	H 	0.47210 0.11730 0.73110 0.27600
H 	H 	0.50590 0.07850 0.75100 0.29500
C 	C 	0.58920 0.15590 0.77970 0.42400
C 	C 	0.45110 0.95770 0.83812 -0.35600
H 	H 	0.44570 0.94160 0.81930 0.11100
C 	C 	0.39480 0.97660 0.84895 0.58700
C 	C 	0.39850 0.99830 0.87896 -1.03600
H 	H 	0.40840 0.96890 0.89150 0.31200
H 	H 	0.36360 0.01300 0.88450 0.28500
H 	H 	0.42580 0.02660 0.87990 0.30300
C 	C 	0.35060 0.93380 0.84710 -1.09000
H 	H 	0.35950 0.90380 0.85940 0.35300
H 	H 	0.34800 0.92080 0.82800 0.32100
H 	H 	0.31620 0.94960 0.85270 0.30900
C 	C 	0.47810 0.91350 0.85720 0.42400
C 	C 	0.08190 0.25570 0.71938 -0.31400
H 	H 	0.08980 0.22360 0.70760 0.09300
C 	C 	0.13590 0.27500 0.73208 0.53900
C 	C 	0.12830 0.32580 0.75063 -1.01500
H 	H 	0.11870 0.35660 0.73900 0.32700
H 	H 	0.16190 0.33350 0.76040 0.28600
H 	H 	0.09960 0.31920 0.76410 0.30400
C 	C 	0.18130 0.28150 0.71024 -0.99200
H 	H 	0.17260 0.31160 0.69790 0.32100
H 	H 	0.18440 0.24840 0.69940 0.28400
H 	H 	0.21540 0.28870 0.71970 0.26900
C 	C 	0.05640 0.30200 0.69920 0.40500
C 	C 	0.00040 0.13230 0.80630 -0.35800
H 	H 	0.01180 0.15300 0.82300 0.13100
C 	C 	0.03920 0.08590 0.80247 0.64200
C 	C 	0.04800 0.05180 0.82824 -1.16000
H 	H 	0.01450 0.03320 0.83300 0.37700
H 	H 	0.05880 0.07490 0.84370 0.34100
H 	H 	0.07620 0.02520 0.82470 0.32300
C 	C 	0.02430 0.05070 0.77720 -1.11200
H 	H 	0.99070 0.03160 0.78090 0.34600
H 	H 	0.05310 0.02470 0.77370 0.30500
H 	H 	0.01970 0.07370 0.76090 0.32800
C 	C 	0.93970 0.11360 0.81080 0.34500
C 	C 	0.15470 0.29410 0.88032 -0.33900
H 	H 	0.13770 0.26180 0.88910 0.11600
C 	C 	0.15320 0.28650 0.84859 0.55500
C 	C 	0.09860 0.26790 0.83650 -1.01900
H 	H 	0.07120 0.29520 0.84030 0.33100
H 	H 	0.08810 0.23380 0.84510 0.29800
H 	H 	0.10210 0.26280 0.81650 0.28200
C 	C 	0.17020 0.33890 0.83360 -0.99600
H 	H 	0.14400 0.36740 0.83760 0.31000
H 	H 	0.17140 0.33260 0.81360 0.27600
H 	H 	0.20580 0.35000 0.84010 0.29400
C 	C 	0.12250 0.34540 0.88990 0.39300
C 	C 	0.37500 0.24860 0.89570 -0.31900
H 	H 	0.39130 0.27320 0.88160 0.11200
C 	C 	0.37610 0.18870 0.88456 0.53400
C 	C 	0.42960 0.17070 0.87220 -1.01900
H 	H 	0.45690 0.16930 0.88680 0.32800
H 	H 	0.44080 0.19630 0.85790 0.29700
H 	H 	0.42540 0.13490 0.86390 0.27400
C 	C 	0.35430 0.14860 0.90700 -0.96300
H 	H 	0.38010 0.14600 0.92230 0.30700
H 	H 	0.34930 0.11300 0.89870 0.25900
H 	H 	0.31980 0.16170 0.91420 0.28500
C 	C 	0.40910 0.25050 0.92350 0.39900
C 	C 	0.16410 0.02530 0.66994 -0.30100
H 	H 	0.18230 0.05480 0.65940 0.11100
C 	C 	0.14100 0.04860 0.69707 0.52000
C 	C 	0.11420 0.10360 0.69250 -0.99300
H 	H 	0.08290 0.09940 0.68040 0.32600
H 	H 	0.14000 0.12830 0.68390 0.29000
H 	H 	0.10260 0.11830 0.71040 0.27200
C 	C 	0.10100 0.00870 0.71195 -0.93000
H 	H 	0.06910 0.00350 0.70030 0.28300
H 	H 	0.09020 0.02380 0.72980 0.24900
H 	H 	0.11890 0.97410 0.71490 0.26700
C 	C 	0.11650 0.99970 0.65084 0.36000
C 	C 	0.35140 0.92140 0.70699 -0.34500
H 	H 	0.34160 0.89740 0.72280 0.12400
C 	C 	0.37990 0.97490 0.71891 0.61200
C 	C 	0.40360 0.00700 0.69480 -1.11700
H 	H 	0.43350 0.98690 0.68660 0.34700
H 	H 	0.41660 0.04180 0.70160 0.31000
H 	H 	0.37570 0.01290 0.68080 0.33600
C 	C 	0.41930 0.96120 0.74222 -1.11100
H 	H 	0.44970 0.94100 0.73460 0.35200
H 	H 	0.40090 0.93930 0.75620 0.32000
H 	H 	0.43230 0.99440 0.75080 0.30600
C 	C 	0.39130 0.88940 0.68650 0.45200
C 	C 	0.31680 0.23830 0.67211 -0.32200
H 	H 	0.27700 0.24140 0.67450 0.10100
C 	C 	0.33420 0.18200 0.68396 0.53500
C 	C 	0.39670 0.17220 0.68070 -0.95400
H 	H 	0.40560 0.16860 0.66110 0.29200
H 	H 	0.40680 0.13920 0.69050 0.25800
H 	H 	0.41640 0.20270 0.68860 0.27900
C 	C 	0.30280 0.13500 0.67186 -1.02900
H 	H 	0.31120 0.13140 0.65210 0.33500
H 	H 	0.26420 0.14150 0.67410 0.29900
H 	H 	0.31270 0.10180 0.68160 0.28300
C 	C 	0.32930 0.24530 0.64070 0.38600
C 	C 	0.37970 0.36110 0.76350 -0.27800
H 	H 	0.41410 0.34390 0.76950 0.10600
C 	C 	0.33350 0.34360 0.78310 0.46800
C 	C 	0.27670 0.37340 0.77610 -0.84100
H 	H 	0.27950 0.41170 0.78060 0.27500
H 	H 	0.24790 0.35710 0.78710 0.22600
H 	H 	0.26860 0.36920 0.75630 0.24200
C 	C 	0.38590 0.42650 0.76420 0.33100
C 	C 	0.34530 0.34850 0.81410 -0.94600
H 	H 	0.34980 0.38650 0.81900 0.31400
H 	H 	0.37830 0.32880 0.81850 0.28000
H 	H 	0.31520 0.33340 0.82470 0.26000
C 	C 	0.20070 0.87450 0.81293 -0.36600
H 	H 	0.24010 0.87300 0.81700 0.13400
C 	C 	0.19250 0.91290 0.78885 0.62700
C 	C 	0.13220 0.91610 0.78102 -1.07400
H 	H 	0.12020 0.88120 0.77390 0.32100
H 	H 	0.12710 0.94370 0.76680 0.28900
H 	H 	0.11110 0.92550 0.79750 0.31500
C 	C 	0.22460 0.89860 0.76301 -1.14700
H 	H 	0.21290 0.86350 0.75610 0.37000
H 	H 	0.26290 0.89710 0.76760 0.34000
H 	H 	0.21850 0.92590 0.74880 0.31400
C 	C 	0.18060 0.81430 0.80705 0.39800
C 	C 	0.14950 0.01280 0.90087 -0.35900
H 	H 	0.11670 0.03320 0.89510 0.12800
C 	C 	0.19910 0.04970 0.89598 0.63600
C 	C 	0.24940 0.02410 0.90760 -1.15600
H 	H 	0.24600 0.02090 0.92780 0.35800
H 	H 	0.28060 0.04650 0.90310 0.32000
H 	H 	0.25410 0.98830 0.89960 0.34500
C 	C 	0.18950 0.10730 0.90760 -1.11200
H 	H 	0.18570 0.10550 0.92780 0.36200
H 	H 	0.15660 0.12220 0.89960 0.32500
H 	H 	0.22010 0.13030 0.90290 0.31100
C 	C 	0.14180 0.99570 0.93110 0.36700
O 	O 	0.33160 0.91370 0.58550 -0.35200
C 	C 	0.36520 0.93770 0.56270 0.37900
C 	C 	0.33380 0.97140 0.53640 -0.73200
H 	H 	0.35070 0.96200 0.51870 0.22600
H 	H 	0.33690 0.01020 0.53950 0.24500
H 	H 	0.29570 0.96130 0.53590 0.24600
La	La	0.58148 0.12153 0.11276 1.52400
Ag	Ag	0.62970 0.79326 0.30885 0.47500
Ag	Ag	0.64749 0.89255 0.25013 0.46400
Ag	Ag	0.68913 0.99647 0.28713 0.46800
Ag	Ag	0.70192 0.90715 0.34355 0.46500
Ag	Ag	0.76758 0.76298 0.28945 0.46500
Ag	Ag	0.77796 0.84416 0.23134 0.46700
Ag	Ag	0.82518 0.94312 0.27255 0.46100
Ag	Ag	0.83970 0.86030 0.33732 0.47700
Ni	Ni	0.54422 0.93488 0.31341 1.04300
Ni	Ni	0.92624 0.81226 0.26773 1.04500
Ni	Ni	0.73553 0.75241 0.37290 1.04500
Ni	Ni	0.74293 0.00407 0.20475 1.04900
Ni	Ni	0.66095 0.72645 0.22924 1.04800
Ni	Ni	0.81556 0.02693 0.34529 1.05200
S 	S 	0.57610 0.87087 0.28634 -0.63300
S 	S 	0.62423 0.96660 0.32479 -0.64600
S 	S 	0.84549 0.78349 0.25529 -0.63400
S 	S 	0.89535 0.87917 0.29345 -0.64800
S 	S 	0.79624 0.76776 0.34056 -0.63800
S 	S 	0.67599 0.80934 0.35584 -0.62800
S 	S 	0.79866 0.94262 0.22060 -0.62900
S 	S 	0.67753 0.98666 0.23460 -0.64800
S 	S 	0.68271 0.81145 0.22223 -0.63300
S 	S 	0.67549 0.72919 0.27417 -0.61900
S 	S 	0.78565 0.01955 0.30244 -0.65500
S 	S 	0.79410 0.94405 0.35736 -0.65300
O 	O 	0.38310 0.88520 0.27700 -0.25700
O 	O 	0.39300 0.80040 0.27520 -0.30800
O 	O 	0.54420 0.13190 0.35839 -0.33100
O 	O 	0.47860 0.07220 0.36958 -0.44200
O 	O 	0.98700 0.67600 0.20806 -0.27100
O 	O 	0.91880 0.68750 0.17730 -0.47300
O 	O 	0.08910 0.89060 0.28850 -0.22900
O 	O 	0.07140 0.89950 0.33700 -0.26400
O 	O 	0.92890 0.65840 0.39030 -0.32000
O 	O 	0.85060 0.61350 0.39559 -0.28800
O 	O 	0.61540 0.74500 0.44580 -0.24700
O 	O 	0.54110 0.74920 0.42230 -0.31700
O 	O 	0.88860 0.05020 0.15040 -0.26900
O 	O 	0.91060 0.96510 0.13750 -0.27400
O 	O 	0.61850 0.10850 0.16122 -0.46400
O 	O 	0.56900 0.13250 0.19755 -0.36600
O 	O 	0.70320 0.77670 0.12385 -0.29000
O 	O 	0.62560 0.73300 0.13518 -0.29700
O 	O 	0.62910 0.54610 0.24330 -0.22600
O 	O 	0.58920 0.55560 0.28620 -0.24300
O 	O 	0.86290 0.20140 0.31571 -0.28500
O 	O 	0.78430 0.21340 0.29378 -0.28600
O 	O 	0.84050 0.05150 0.43907 -0.25200
O 	O 	0.87880 0.96920 0.44761 -0.26400
O 	O 	0.58710 0.06670 0.06294 -0.40200
N 	N 	0.47140 0.90660 0.30566 -0.19000
N 	N 	0.51240 0.99450 0.33497 -0.21000
N 	N 	0.95650 0.76100 0.24053 -0.19200
N 	N 	0.99920 0.82930 0.28144 -0.18100
N 	N 	0.78730 0.70280 0.39012 -0.19700
N 	N 	0.68310 0.73430 0.40163 -0.19900
N 	N 	0.79580 0.01880 0.17565 -0.19000
N 	N 	0.69930 0.06410 0.19096 -0.19000
N 	N 	0.65760 0.71670 0.18852 -0.18500
N 	N 	0.63240 0.65380 0.23365 -0.19200
N 	N 	0.82760 0.10340 0.33867 -0.17100
N 	N 	0.84650 0.03710 0.38257 -0.17500
C 	C 	0.46860 0.85250 0.29280 -0.33400
H 	H 	0.47540 0.82430 0.30710 0.12500
C 	C 	0.51120 0.84780 0.26916 0.53600
C 	C 	0.51950 0.78860 0.25850 -0.97900
H 	H 	0.48650 0.77600 0.24960 0.31800
H 	H 	0.52810 0.76510 0.27420 0.28800
H 	H 	0.54920 0.78780 0.24520 0.27100
C 	C 	0.49840 0.88440 0.24450 -1.01000
H 	H 	0.46500 0.87240 0.23570 0.31900
H 	H 	0.52790 0.88270 0.23110 0.27600
H 	H 	0.49410 0.92150 0.25100 0.29500
C 	C 	0.41080 0.84410 0.27970 0.42400
C 	C 	0.54890 0.04230 0.33812 -0.35600
H 	H 	0.55430 0.05840 0.31930 0.11100
C 	C 	0.60520 0.02340 0.34895 0.58700
C 	C 	0.60150 0.00170 0.37896 -1.03600
H 	H 	0.59160 0.03110 0.39150 0.31200
H 	H 	0.63640 0.98700 0.38450 0.28500
H 	H 	0.57420 0.97340 0.37990 0.30300
C 	C 	0.64940 0.06620 0.34710 -1.09000
H 	H 	0.64050 0.09620 0.35940 0.35300
H 	H 	0.65200 0.07920 0.32800 0.32100
H 	H 	0.68380 0.05040 0.35270 0.30900
C 	C 	0.52190 0.08650 0.35720 0.42400
C 	C 	0.91810 0.74430 0.21938 -0.31400
H 	H 	0.91020 0.77640 0.20760 0.09300
C 	C 	0.86410 0.72500 0.23208 0.53900
C 	C 	0.87170 0.67420 0.25063 -1.01500
H 	H 	0.88130 0.64340 0.23900 0.32700
H 	H 	0.83810 0.66650 0.26040 0.28600
H 	H 	0.90040 0.68080 0.26410 0.30400
C 	C 	0.81870 0.71850 0.21024 -0.99200
H 	H 	0.82740 0.68840 0.19790 0.32100
H 	H 	0.81560 0.75160 0.19940 0.28400
H 	H 	0.78460 0.71130 0.21970 0.26900
C 	C 	0.94360 0.69800 0.19920 0.40500
C 	C 	0.99960 0.86770 0.30630 -0.35800
H 	H 	0.98820 0.84700 0.32300 0.13100
C 	C 	0.96080 0.91410 0.30247 0.64200
C 	C 	0.95200 0.94820 0.32824 -1.16000
H 	H 	0.98550 0.96680 0.33300 0.37700
H 	H 	0.94120 0.92510 0.34370 0.34100
H 	H 	0.92380 0.97480 0.32470 0.32300
C 	C 	0.97570 0.94930 0.27720 -1.11200
H 	H 	0.00930 0.96840 0.28090 0.34600
H 	H 	0.94690 0.97530 0.27370 0.30500
H 	H 	0.98030 0.92630 0.26090 0.32800
C 	C 	0.06030 0.88640 0.31080 0.34500
C 	C 	0.84530 0.70590 0.38032 -0.33900
H 	H 	0.86230 0.73820 0.38910 0.11600
C 	C 	0.84680 0.71350 0.34859 0.55500
C 	C 	0.90140 0.73210 0.33650 -1.01900
H 	H 	0.92880 0.70480 0.34030 0.33100
H 	H 	0.91190 0.76620 0.34510 0.29800
H 	H 	0.89790 0.73720 0.31650 0.28200
C 	C 	0.82980 0.66110 0.33360 -0.99600
H 	H 	0.85600 0.63260 0.33760 0.31000
H 	H 	0.82860 0.66740 0.31360 0.27600
H 	H 	0.79420 0.65000 0.34010 0.29400
C 	C 	0.87750 0.65460 0.38990 0.39300
C 	C 	0.62500 0.75140 0.39570 -0.31900
H 	H 	0.60870 0.72680 0.38160 0.11200
C 	C 	0.62390 0.81130 0.38456 0.53400
C 	C 	0.57040 0.82930 0.37220 -1.01900
H 	H 	0.54310 0.83070 0.38680 0.32800
H 	H 	0.55920 0.80370 0.35790 0.29700
H 	H 	0.57460 0.86510 0.36390 0.27400
C 	C 	0.64570 0.85140 0.40700 -0.96300
H 	H 	0.61990 0.85400 0.42230 0.30700
H 	H 	0.65070 0.88700 0.39870 0.25900
H 	H 	0.68020 0.83830 0.41420 0.28500
C 	C 	0.59090 0.74950 0.42350 0.39900
C 	C 	0.83590 0.97470 0.16994 -0.30100
H 	H 	0.81770 0.94520 0.15940 0.11100
C 	C 	0.85900 0.95140 0.19707 0.52000
C 	C 	0.88580 0.89640 0.19250 -0.99300
H 	H 	0.91710 0.90060 0.18040 0.32600
H 	H 	0.86000 0.87170 0.18390 0.29000
H 	H 	0.89740 0.88170 0.21040 0.27200
C 	C 	0.89900 0.99130 0.21195 -0.93000
H 	H 	0.93090 0.99650 0.20030 0.28300
H 	H 	0.90980 0.97620 0.22980 0.24900
H 	H 	0.88110 0.02590 0.21490 0.26700
C 	C 	0.88350 0.00030 0.15084 0.36000
C 	C 	0.64860 0.07860 0.20699 -0.34500
H 	H 	0.65840 0.10260 0.22280 0.12400
C 	C 	0.62010 0.02510 0.21891 0.61200
C 	C 	0.59640 0.99300 0.19480 -1.11600
H 	H 	0.56650 0.01310 0.18660 0.34700
H 	H 	0.58340 0.95820 0.20160 0.31000
H 	H 	0.62430 0.98710 0.18080 0.33600
C 	C 	0.58070 0.03880 0.24222 -1.11100
H 	H 	0.55030 0.05900 0.23460 0.35200
H 	H 	0.59910 0.06070 0.25620 0.32000
H 	H 	0.56770 0.00560 0.25080 0.30600
C 	C 	0.60870 0.11060 0.18650 0.45200
C 	C 	0.68320 0.76170 0.17211 -0.32200
H 	H 	0.72300 0.75860 0.17450 0.10100
C 	C 	0.66580 0.81800 0.18396 0.53500
C 	C 	0.60330 0.82780 0.18070 -0.95400
H 	H 	0.59440 0.83140 0.16110 0.29200
H 	H 	0.59320 0.86080 0.19050 0.25800
H 	H 	0.58360 0.79730 0.18860 0.27900
C 	C 	0.69720 0.86500 0.17186 -1.02900
H 	H 	0.68880 0.86860 0.15210 0.33500
H 	H 	0.73580 0.85850 0.17410 0.29900
H 	H 	0.68730 0.89820 0.18160 0.28300
C 	C 	0.67070 0.75470 0.14070 0.38600
C 	C 	0.62030 0.63890 0.26350 -0.27800
H 	H 	0.58590 0.65610 0.26950 0.10600
C 	C 	0.66650 0.65640 0.28310 0.46800
C 	C 	0.72330 0.62660 0.27610 -0.84100
H 	H 	0.72050 0.58830 0.28060 0.27500
H 	H 	0.75210 0.64290 0.28710 0.22600
H 	H 	0.73140 0.63080 0.25630 0.24200
C 	C 	0.61410 0.57350 0.26420 0.33100
C 	C 	0.65470 0.65150 0.31410 -0.94600
H 	H 	0.65020 0.61350 0.31900 0.31400
H 	H 	0.62170 0.67120 0.31850 0.28000
H 	H 	0.68480 0.66660 0.32470 0.26000
C 	C 	0.79930 0.12550 0.31293 -0.36600
H 	H 	0.75990 0.12700 0.31700 0.13400
C 	C 	0.80750 0.08710 0.28885 0.62700
C 	C 	0.86780 0.08390 0.28102 -1.07400
H 	H 	0.87980 0.11880 0.27390 0.32100
H 	H 	0.87290 0.05630 0.26680 0.28900
H 	H 	0.88890 0.07450 0.29750 0.31500
C 	C 	0.77540 0.10140 0.26301 -1.14700
H 	H 	0.78710 0.13650 0.25610 0.37000
H 	H 	0.73710 0.10290 0.26760 0.34000
H 	H 	0.78150 0.07410 0.24880 0.31400
C 	C 	0.81940 0.18570 0.30705 0.39800
C 	C 	0.85050 0.98720 0.40087 -0.35900
H 	H 	0.88330 0.96680 0.39510 0.12800
C 	C 	0.80090 0.95030 0.39598 0.63600
C 	C 	0.75060 0.97590 0.40760 -1.15600
H 	H 	0.75400 0.97910 0.42780 0.35800
H 	H 	0.71940 0.95350 0.40310 0.32000
H 	H 	0.74590 0.01170 0.39960 0.34500
C 	C 	0.81050 0.89270 0.40760 -1.11200
H 	H 	0.81430 0.89450 0.42780 0.36200
H 	H 	0.84340 0.87780 0.39960 0.32500
H 	H 	0.77990 0.86970 0.40290 0.31100
C 	C 	0.85820 0.00430 0.43110 0.36700
O 	O 	0.66840 0.08630 0.08550 -0.35200
C 	C 	0.63480 0.06230 0.06270 0.37900
C 	C 	0.66620 0.02860 0.03640 -0.73200
H 	H 	0.64930 0.03800 0.01870 0.22600
H 	H 	0.66310 0.98980 0.03950 0.24600
H 	H 	0.70430 0.03870 0.03590 0.24600
La	La	0.37847 0.08148 0.36276 1.52400
Ag	Ag	0.70674 0.12970 0.55885 0.47500
Ag	Ag	0.60745 0.14749 0.50013 0.46400
Ag	Ag	0.50353 0.18913 0.53713 0.46700
Ag	Ag	0.59285 0.20192 0.59355 0.46500
Ag	Ag	0.73702 0.26758 0.53945 0.46500
Ag	Ag	0.65584 0.27796 0.48134 0.46700
Ag	Ag	0.55688 0.32518 0.52255 0.46000
Ag	Ag	0.63970 0.33970 0.58732 0.47700
Ni	Ni	0.56512 0.04422 0.56341 1.04300
Ni	Ni	0.68774 0.42624 0.51773 1.04500
Ni	Ni	0.74759 0.23553 0.62290 1.04500
Ni	Ni	0.49593 0.24293 0.45475 1.04900
Ni	Ni	0.77355 0.16095 0.47924 1.04800
Ni	Ni	0.47307 0.31556 0.59529 1.05300
S 	S 	0.62913 0.07610 0.53634 -0.63300
S 	S 	0.53340 0.12423 0.57479 -0.64700
S 	S 	0.71651 0.34549 0.50529 -0.63300
S 	S 	0.62083 0.39535 0.54345 -0.64900
S 	S 	0.73224 0.29624 0.59056 -0.63800
S 	S 	0.69066 0.17599 0.60584 -0.62800
S 	S 	0.55738 0.29866 0.47060 -0.63100
S 	S 	0.51334 0.17753 0.48460 -0.65100
S 	S 	0.68855 0.18271 0.47223 -0.63300
S 	S 	0.77081 0.17549 0.52417 -0.61900
S 	S 	0.48045 0.28565 0.55244 -0.65400
S 	S 	0.55595 0.29410 0.60736 -0.65600
O 	O 	0.61480 0.88310 0.52700 -0.25700
O 	O 	0.69960 0.89300 0.52520 -0.30700
O 	O 	0.36810 0.04420 0.60839 -0.33000
O 	O 	0.42780 0.97860 0.61958 -0.44200
O 	O 	0.82400 0.48700 0.45806 -0.27100
O 	O 	0.81250 0.41880 0.42730 -0.47300
O 	O 	0.60940 0.58910 0.53850 -0.22900
O 	O 	0.60050 0.57140 0.58700 -0.26400
O 	O 	0.84160 0.42890 0.64030 -0.32100
O 	O 	0.88650 0.35060 0.64559 -0.28800
O 	O 	0.75500 0.11540 0.69580 -0.24700
O 	O 	0.75080 0.04110 0.67230 -0.31800
O 	O 	0.44980 0.38860 0.40040 -0.27000
O 	O 	0.53490 0.41060 0.38750 -0.27700
O 	O 	0.39150 0.11850 0.41122 -0.46400
O 	O 	0.36750 0.06900 0.44755 -0.36600
O 	O 	0.72330 0.20320 0.37385 -0.29000
O 	O 	0.76700 0.12560 0.38518 -0.29700
O 	O 	0.95390 0.12910 0.49330 -0.22600
O 	O 	0.94440 0.08920 0.53620 -0.24300
O 	O 	0.29860 0.36290 0.56571 -0.28500
O 	O 	0.28660 0.28430 0.54378 -0.28600
O 	O 	0.44850 0.34050 0.68907 -0.25300
O 	O 	0.53080 0.37880 0.69761 -0.26800
O 	O 	0.43330 0.08710 0.31294 -0.40200
N 	N 	0.59340 0.97140 0.55566 -0.19000
N 	N 	0.50550 0.01240 0.58497 -0.21100
N 	N 	0.73900 0.45650 0.49053 -0.19200
N 	N 	0.67070 0.49920 0.53144 -0.18100
N 	N 	0.79720 0.28730 0.64012 -0.19700
N 	N 	0.76570 0.18310 0.65163 -0.19900
N 	N 	0.48120 0.29580 0.42565 -0.18800
N 	N 	0.43590 0.19930 0.44096 -0.18900
N 	N 	0.78330 0.15760 0.43852 -0.18500
N 	N 	0.84620 0.13240 0.48365 -0.19200
N 	N 	0.39660 0.32760 0.58867 -0.17100
N 	N 	0.46290 0.34650 0.63257 -0.17300
C 	C 	0.64750 0.96860 0.54280 -0.33300
H 	H 	0.67570 0.97540 0.55710 0.12500
C 	C 	0.65220 0.01120 0.51916 0.53300
C 	C 	0.71140 0.01950 0.50850 -0.98200
H 	H 	0.72400 0.98650 0.49960 0.31900
H 	H 	0.73490 0.02810 0.52420 0.28800
H 	H 	0.71220 0.04920 0.49520 0.27200
C 	C 	0.61560 0.99840 0.49450 -1.00400
H 	H 	0.62760 0.96500 0.48570 0.31700
H 	H 	0.61730 0.02790 0.48110 0.27400
H 	H 	0.57850 0.99410 0.50100 0.29300
C 	C 	0.65590 0.91080 0.52970 0.42400
C 	C 	0.45770 0.04890 0.58812 -0.35500
H 	H 	0.44160 0.05430 0.56930 0.11000
C 	C 	0.47660 0.10520 0.59895 0.58400
C 	C 	0.49830 0.10150 0.62896 -1.02600
H 	H 	0.46890 0.09160 0.64150 0.30900
H 	H 	0.51300 0.13640 0.63450 0.28100
H 	H 	0.52660 0.07420 0.62990 0.30000
C 	C 	0.43380 0.14940 0.59710 -1.08700
H 	H 	0.40380 0.14050 0.60940 0.35200
H 	H 	0.42080 0.15200 0.57800 0.32000
H 	H 	0.44960 0.18380 0.60270 0.30900
C 	C 	0.41350 0.02190 0.60720 0.42400
C 	C 	0.75570 0.41810 0.46938 -0.31400
H 	H 	0.72360 0.41020 0.45760 0.09300
C 	C 	0.77500 0.36410 0.48208 0.53900
C 	C 	0.82580 0.37170 0.50063 -1.01500
H 	H 	0.85660 0.38130 0.48900 0.32700
H 	H 	0.83350 0.33810 0.51040 0.28600
H 	H 	0.81920 0.40040 0.51410 0.30400
C 	C 	0.78150 0.31870 0.46024 -0.99200
H 	H 	0.81160 0.32740 0.44790 0.32100
H 	H 	0.74840 0.31560 0.44940 0.28400
H 	H 	0.78870 0.28460 0.46970 0.26900
C 	C 	0.80200 0.44360 0.44920 0.40500
C 	C 	0.63230 0.49960 0.55630 -0.36000
H 	H 	0.65300 0.48820 0.57300 0.13100
C 	C 	0.58590 0.46080 0.55247 0.64500
C 	C 	0.55180 0.45200 0.57824 -1.16200
H 	H 	0.53320 0.48550 0.58300 0.37700
H 	H 	0.57490 0.44120 0.59370 0.34100
H 	H 	0.52520 0.42380 0.57470 0.32300
C 	C 	0.55070 0.47570 0.52720 -1.12200
H 	H 	0.53160 0.50930 0.53090 0.35100
H 	H 	0.52470 0.44690 0.52370 0.30700
H 	H 	0.57370 0.48030 0.51090 0.33000
C 	C 	0.61360 0.56030 0.56080 0.34700
C 	C 	0.79410 0.34530 0.63032 -0.33800
H 	H 	0.76180 0.36230 0.63910 0.11500
C 	C 	0.78650 0.34680 0.59859 0.55500
C 	C 	0.76790 0.40140 0.58650 -1.01900
H 	H 	0.79520 0.42880 0.59030 0.33000
H 	H 	0.73380 0.41190 0.59510 0.29700
H 	H 	0.76280 0.39790 0.56650 0.28200
C 	C 	0.83890 0.32980 0.58360 -0.99600
H 	H 	0.86740 0.35600 0.58760 0.31000
H 	H 	0.83260 0.32860 0.56360 0.27500
H 	H 	0.85000 0.29420 0.59010 0.29400
C 	C 	0.84540 0.37750 0.63990 0.39300
C 	C 	0.74860 0.12500 0.64570 -0.31900
H 	H 	0.77320 0.10870 0.63160 0.11100
C 	C 	0.68870 0.12390 0.63456 0.53400
C 	C 	0.67070 0.07040 0.62220 -1.01800
H 	H 	0.66930 0.04310 0.63680 0.32700
H 	H 	0.69630 0.05920 0.60790 0.29600
H 	H 	0.63490 0.07460 0.61390 0.27400
C 	C 	0.64860 0.14570 0.65700 -0.96200
H 	H 	0.64600 0.11990 0.67230 0.30700
H 	H 	0.61300 0.15070 0.64870 0.25900
H 	H 	0.66170 0.18020 0.66420 0.28500
C 	C 	0.75050 0.09090 0.67350 0.39900
C 	C 	0.52530 0.33590 0.41994 -0.30600
H 	H 	0.55480 0.31770 0.40940 0.11200
C 	C 	0.54860 0.35900 0.44707 0.52500
C 	C 	0.60360 0.38580 0.44250 -0.99700
H 	H 	0.59940 0.41710 0.43040 0.32700
H 	H 	0.62830 0.36000 0.43390 0.29100
H 	H 	0.61830 0.39740 0.46040 0.27300
C 	C 	0.50870 0.39900 0.46195 -0.94100
H 	H 	0.50350 0.43090 0.45030 0.28500
H 	H 	0.52380 0.40980 0.47980 0.25200
H 	H 	0.47410 0.38110 0.46490 0.27100
C 	C 	0.49970 0.38350 0.40084 0.36500
C 	C 	0.42140 0.14860 0.45699 -0.34700
H 	H 	0.39740 0.15840 0.47280 0.12400
C 	C 	0.47490 0.12010 0.46891 0.61600
C 	C 	0.50700 0.09640 0.44480 -1.12400
H 	H 	0.48690 0.06650 0.43660 0.34900
H 	H 	0.54180 0.08340 0.45160 0.31200
H 	H 	0.51290 0.12430 0.43080 0.33800
C 	C 	0.46120 0.08070 0.49222 -1.11600
H 	H 	0.44100 0.05030 0.48460 0.35300
H 	H 	0.43930 0.09910 0.50620 0.32200
H 	H 	0.49440 0.06770 0.50080 0.30800
C 	C 	0.38940 0.10870 0.43650 0.45300
C 	C 	0.73830 0.18320 0.42211 -0.32200
H 	H 	0.74140 0.22300 0.42450 0.10100
C 	C 	0.68200 0.16580 0.43396 0.53400
C 	C 	0.67220 0.10330 0.43070 -0.95300
H 	H 	0.66860 0.09440 0.41110 0.29100
H 	H 	0.63920 0.09320 0.44050 0.25800
H 	H 	0.70270 0.08360 0.43860 0.27800
C 	C 	0.63500 0.19720 0.42186 -1.02800
H 	H 	0.63140 0.18880 0.40210 0.33500
H 	H 	0.64150 0.23580 0.42410 0.29900
H 	H 	0.60180 0.18730 0.43160 0.28300
C 	C 	0.74530 0.17070 0.39070 0.38600
C 	C 	0.86110 0.12030 0.51350 -0.27800
H 	H 	0.84390 0.08590 0.51950 0.10500
C 	C 	0.84360 0.16650 0.53310 0.46800
C 	C 	0.87340 0.22330 0.52610 -0.84100
H 	H 	0.91170 0.22050 0.53060 0.27400
H 	H 	0.85710 0.25210 0.53710 0.22600
H 	H 	0.86920 0.23140 0.50630 0.24200
C 	C 	0.92650 0.11410 0.51420 0.33100
C 	C 	0.84850 0.15470 0.56410 -0.94500
H 	H 	0.88650 0.15020 0.56900 0.31400
H 	H 	0.82880 0.12170 0.56850 0.27900
H 	H 	0.83340 0.18480 0.57470 0.26000
C 	C 	0.37450 0.29930 0.56293 -0.36600
H 	H 	0.37300 0.25990 0.56700 0.13400
C 	C 	0.41290 0.30750 0.53885 0.62800
C 	C 	0.41610 0.36780 0.53102 -1.07500
H 	H 	0.38120 0.37980 0.52390 0.32100
H 	H 	0.44370 0.37290 0.51680 0.29000
H 	H 	0.42550 0.38890 0.54750 0.31600
C 	C 	0.39860 0.27540 0.51301 -1.14700
H 	H 	0.36350 0.28710 0.50610 0.37000
H 	H 	0.39710 0.23710 0.51760 0.34100
H 	H 	0.42590 0.28150 0.49880 0.31400
C 	C 	0.31430 0.31940 0.55705 0.39800
C 	C 	0.51280 0.35050 0.65087 -0.36500
H 	H 	0.53320 0.38330 0.64510 0.12900
C 	C 	0.54970 0.30090 0.64598 0.64100
C 	C 	0.52410 0.25060 0.65760 -1.16800
H 	H 	0.52090 0.25400 0.67780 0.36100
H 	H 	0.54650 0.21940 0.65310 0.32300
H 	H 	0.48830 0.24590 0.64960 0.35000
C 	C 	0.60730 0.31050 0.65760 -1.11800
H 	H 	0.60550 0.31430 0.67780 0.36300
H 	H 	0.62220 0.34340 0.64960 0.32700
H 	H 	0.63030 0.27990 0.65290 0.31200
C 	C 	0.49570 0.35820 0.68110 0.37200
O 	O 	0.41370 0.16840 0.33550 -0.35100
C 	C 	0.43770 0.13480 0.31270 0.37800
C 	C 	0.47140 0.16620 0.28640 -0.73000
H 	H 	0.46200 0.14930 0.26870 0.22500
H 	H 	0.51020 0.16310 0.28950 0.24400
H 	H 	0.46130 0.20430 0.28590 0.24500
La	La	0.62153 0.91852 0.86276 1.52400
Ag	Ag	0.29326 0.87030 0.05885 0.47500
Ag	Ag	0.39255 0.85251 0.00013 0.46400
Ag	Ag	0.49647 0.81087 0.03713 0.46700
Ag	Ag	0.40715 0.79808 0.09355 0.46500
Ag	Ag	0.26298 0.73242 0.03945 0.46500
Ag	Ag	0.34416 0.72204 0.98134 0.46700
Ag	Ag	0.44312 0.67482 0.02255 0.46000
Ag	Ag	0.36030 0.66030 0.08732 0.47700
Ni	Ni	0.43488 0.95578 0.06341 1.04300
Ni	Ni	0.31226 0.57376 0.01773 1.04500
Ni	Ni	0.25241 0.76447 0.12290 1.04500
Ni	Ni	0.50407 0.75707 0.95475 1.04900
Ni	Ni	0.22645 0.83905 0.97924 1.04800
Ni	Ni	0.52693 0.68444 0.09529 1.05300
S 	S 	0.37087 0.92390 0.03634 -0.63300
S 	S 	0.46660 0.87577 0.07479 -0.64700
S 	S 	0.28349 0.65451 0.00529 -0.63300
S 	S 	0.37917 0.60465 0.04345 -0.64900
S 	S 	0.26776 0.70376 0.09056 -0.63800
S 	S 	0.30934 0.82401 0.10584 -0.62800
S 	S 	0.44262 0.70134 0.97060 -0.63100
S 	S 	0.48666 0.82247 0.98460 -0.65100
S 	S 	0.31145 0.81729 0.97223 -0.63300
S 	S 	0.22919 0.82451 0.02417 -0.61800
S 	S 	0.51955 0.71435 0.05244 -0.65400
S 	S 	0.44405 0.70590 0.10736 -0.65600
O 	O 	0.38520 0.11690 0.02700 -0.25700
O 	O 	0.30040 0.10700 0.02520 -0.30700
O 	O 	0.63190 0.95580 0.10839 -0.33000
O 	O 	0.57220 0.02140 0.11958 -0.44200
O 	O 	0.17600 0.51300 0.95806 -0.27100
O 	O 	0.18750 0.58120 0.92730 -0.47300
O 	O 	0.39060 0.41090 0.03850 -0.22900
O 	O 	0.39950 0.42860 0.08700 -0.26400
O 	O 	0.15840 0.57110 0.14030 -0.32100
O 	O 	0.11350 0.64940 0.14559 -0.28800
O 	O 	0.24500 0.88460 0.19580 -0.24700
O 	O 	0.24920 0.95890 0.17230 -0.31800
O 	O 	0.55020 0.61140 0.90040 -0.27000
O 	O 	0.46510 0.58940 0.88750 -0.27700
O 	O 	0.60850 0.88150 0.91122 -0.46400
O 	O 	0.63250 0.93100 0.94755 -0.36600
O 	O 	0.27670 0.79680 0.87385 -0.29000
O 	O 	0.23300 0.87440 0.88518 -0.29700
O 	O 	0.04610 0.87090 0.99330 -0.22600
O 	O 	0.05560 0.91080 0.03620 -0.24300
O 	O 	0.70140 0.63710 0.06571 -0.28500
O 	O 	0.71340 0.71570 0.04378 -0.28600
O 	O 	0.55150 0.65950 0.18907 -0.25300
O 	O 	0.46920 0.62120 0.19761 -0.26800
O 	O 	0.56670 0.91290 0.81294 -0.40200
N 	N 	0.40660 0.02860 0.05566 -0.19000
N 	N 	0.49450 0.98760 0.08497 -0.21100
N 	N 	0.26100 0.54350 0.99053 -0.19200
N 	N 	0.32930 0.50080 0.03144 -0.18100
N 	N 	0.20280 0.71270 0.14012 -0.19700
N 	N 	0.23430 0.81690 0.15163 -0.19900
N 	N 	0.51880 0.70420 0.92565 -0.18800
N 	N 	0.56410 0.80070 0.94096 -0.18900
N 	N 	0.21670 0.84240 0.93852 -0.18500
N 	N 	0.15380 0.86760 0.98365 -0.19200
N 	N 	0.60340 0.67240 0.08867 -0.17100
N 	N 	0.53710 0.65350 0.13257 -0.17300
C 	C 	0.35250 0.03140 0.04280 -0.33300
H 	H 	0.32430 0.02460 0.05710 0.12500
C 	C 	0.34780 0.98880 0.01916 0.53300
C 	C 	0.28860 0.98050 0.00850 -0.98200
H 	H 	0.27600 0.01350 0.99960 0.31900
H 	H 	0.26510 0.97190 0.02420 0.28800
H 	H 	0.28780 0.95080 0.99520 0.27200
C 	C 	0.38440 0.00160 0.99450 -1.00300
H 	H 	0.37240 0.03500 0.98570 0.31700
H 	H 	0.38270 0.97210 0.98110 0.27400
H 	H 	0.42150 0.00590 0.00100 0.29300
C 	C 	0.34410 0.08920 0.02970 0.42400
C 	C 	0.54230 0.95110 0.08812 -0.35500
H 	H 	0.55840 0.94570 0.06930 0.11000
C 	C 	0.52340 0.89480 0.09895 0.58400
C 	C 	0.50170 0.89850 0.12896 -1.02600
H 	H 	0.53110 0.90840 0.14150 0.30900
H 	H 	0.48700 0.86360 0.13450 0.28100
H 	H 	0.47340 0.92580 0.12990 0.30000
C 	C 	0.56620 0.85060 0.09710 -1.08700
H 	H 	0.59620 0.85950 0.10940 0.35200
H 	H 	0.57920 0.84800 0.07800 0.32000
H 	H 	0.55040 0.81620 0.10270 0.30900
C 	C 	0.58650 0.97810 0.10720 0.42400
C 	C 	0.24430 0.58190 0.96938 -0.31400
H 	H 	0.27640 0.58980 0.95760 0.09300
C 	C 	0.22500 0.63590 0.98208 0.53900
C 	C 	0.17420 0.62830 0.00063 -1.01500
H 	H 	0.14340 0.61870 0.98900 0.32700
H 	H 	0.16650 0.66190 0.01040 0.28600
H 	H 	0.18080 0.59960 0.01410 0.30400
C 	C 	0.21850 0.68130 0.96024 -0.99200
H 	H 	0.18840 0.67260 0.94790 0.32100
H 	H 	0.25160 0.68440 0.94940 0.28400
H 	H 	0.21130 0.71540 0.96970 0.26900
C 	C 	0.19800 0.55640 0.94920 0.40500
C 	C 	0.36770 0.50040 0.05630 -0.36000
H 	H 	0.34700 0.51180 0.07300 0.13100
C 	C 	0.41410 0.53920 0.05247 0.64500
C 	C 	0.44820 0.54800 0.07824 -1.16200
H 	H 	0.46680 0.51450 0.08300 0.37700
H 	H 	0.42510 0.55880 0.09370 0.34100
H 	H 	0.47480 0.57620 0.07470 0.32300
C 	C 	0.44930 0.52430 0.02720 -1.12200
H 	H 	0.46840 0.49070 0.03090 0.35100
H 	H 	0.47530 0.55310 0.02370 0.30700
H 	H 	0.42630 0.51970 0.01090 0.33000
C 	C 	0.38640 0.43970 0.06080 0.34700
C 	C 	0.20590 0.65470 0.13032 -0.33800
H 	H 	0.23820 0.63770 0.13910 0.11500
C 	C 	0.21350 0.65320 0.09859 0.55500
C 	C 	0.23210 0.59860 0.08650 -1.01900
H 	H 	0.20480 0.57120 0.09030 0.33000
H 	H 	0.26620 0.58810 0.09510 0.29700
H 	H 	0.23720 0.60210 0.06650 0.28200
C 	C 	0.16110 0.67020 0.08360 -0.99600
H 	H 	0.13260 0.64400 0.08760 0.31000
H 	H 	0.16740 0.67140 0.06360 0.27500
H 	H 	0.15000 0.70580 0.09010 0.29400
C 	C 	0.15460 0.62250 0.13990 0.39300
C 	C 	0.25140 0.87500 0.14570 -0.31900
H 	H 	0.22680 0.89130 0.13160 0.11100
C 	C 	0.31130 0.87610 0.13456 0.53400
C 	C 	0.32930 0.92960 0.12220 -1.01800
H 	H 	0.33070 0.95690 0.13680 0.32700
H 	H 	0.30370 0.94080 0.10790 0.29600
H 	H 	0.36510 0.92540 0.11390 0.27400
C 	C 	0.35140 0.85430 0.15700 -0.96200
H 	H 	0.35400 0.88010 0.17230 0.30700
H 	H 	0.38700 0.84930 0.14870 0.25900
H 	H 	0.33830 0.81980 0.16420 0.28500
C 	C 	0.24950 0.90910 0.17350 0.39900
C 	C 	0.47470 0.66410 0.91994 -0.30600
H 	H 	0.44520 0.68230 0.90940 0.11200
C 	C 	0.45140 0.64100 0.94707 0.52500
C 	C 	0.39640 0.61420 0.94250 -0.99700
H 	H 	0.40060 0.58290 0.93040 0.32700
H 	H 	0.37170 0.64000 0.93390 0.29100
H 	H 	0.38170 0.60260 0.96040 0.27300
C 	C 	0.49130 0.60100 0.96195 -0.94100
H 	H 	0.49650 0.56910 0.95030 0.28500
H 	H 	0.47620 0.59020 0.97980 0.25200
H 	H 	0.52590 0.61890 0.96490 0.27100
C 	C 	0.50030 0.61650 0.90084 0.36500
C 	C 	0.57860 0.85140 0.95699 -0.34700
H 	H 	0.60260 0.84160 0.97280 0.12400
C 	C 	0.52510 0.87990 0.96891 0.61700
C 	C 	0.49300 0.90360 0.94480 -1.12500
H 	H 	0.51310 0.93350 0.93660 0.34900
H 	H 	0.45820 0.91660 0.95160 0.31200
H 	H 	0.48710 0.87570 0.93080 0.33800
C 	C 	0.53880 0.91930 0.99222 -1.11600
H 	H 	0.55900 0.94970 0.98460 0.35300
H 	H 	0.56070 0.90090 0.00620 0.32200
H 	H 	0.50560 0.93230 0.00080 0.30800
C 	C 	0.61060 0.89130 0.93650 0.45300
C 	C 	0.26170 0.81680 0.92211 -0.32200
H 	H 	0.25860 0.77700 0.92450 0.10100
C 	C 	0.31800 0.83420 0.93396 0.53400
C 	C 	0.32780 0.89670 0.93070 -0.95300
H 	H 	0.33140 0.90560 0.91110 0.29100
H 	H 	0.36080 0.90680 0.94050 0.25800
H 	H 	0.29730 0.91640 0.93860 0.27800
C 	C 	0.36500 0.80280 0.92186 -1.02800
H 	H 	0.36860 0.81120 0.90210 0.33500
H 	H 	0.35850 0.76420 0.92410 0.29900
H 	H 	0.39820 0.81270 0.93160 0.28300
C 	C 	0.25470 0.82930 0.89070 0.38600
C 	C 	0.13890 0.87970 0.01350 -0.27800
H 	H 	0.15610 0.91410 0.01950 0.10600
C 	C 	0.15640 0.83350 0.03310 0.46800
C 	C 	0.12660 0.77670 0.02610 -0.84100
H 	H 	0.08830 0.77950 0.03060 0.27400
H 	H 	0.14290 0.74790 0.03710 0.22600
H 	H 	0.13080 0.76860 0.00630 0.24200
C 	C 	0.07350 0.88590 0.01420 0.33100
C 	C 	0.15150 0.84530 0.06410 -0.94500
H 	H 	0.11350 0.84980 0.06900 0.31400
H 	H 	0.17120 0.87830 0.06850 0.28000
H 	H 	0.16660 0.81520 0.07470 0.26000
C 	C 	0.62550 0.70070 0.06293 -0.36600
H 	H 	0.62700 0.74010 0.06700 0.13400
C 	C 	0.58710 0.69250 0.03885 0.62800
C 	C 	0.58390 0.63220 0.03102 -1.07500
H 	H 	0.61880 0.62020 0.02390 0.32100
H 	H 	0.55630 0.62710 0.01680 0.29000
H 	H 	0.57450 0.61110 0.04750 0.31600
C 	C 	0.60140 0.72460 0.01301 -1.14700
H 	H 	0.63650 0.71290 0.00610 0.37000
H 	H 	0.60290 0.76290 0.01760 0.34100
H 	H 	0.57410 0.71850 0.99880 0.31400
C 	C 	0.68570 0.68060 0.05705 0.39800
C 	C 	0.48720 0.64950 0.15087 -0.36500
H 	H 	0.46680 0.61670 0.14510 0.12900
C 	C 	0.45030 0.69910 0.14598 0.64100
C 	C 	0.47590 0.74940 0.15760 -1.16800
H 	H 	0.47910 0.74600 0.17780 0.36100
H 	H 	0.45350 0.78060 0.15310 0.32300
H 	H 	0.51170 0.75410 0.14960 0.35000
C 	C 	0.39270 0.68950 0.15760 -1.11800
H 	H 	0.39450 0.68570 0.17780 0.36300
H 	H 	0.37780 0.65660 0.14960 0.32700
H 	H 	0.36970 0.72010 0.15290 0.31200
C 	C 	0.50430 0.64180 0.18110 0.37200
O 	O 	0.58630 0.83160 0.83550 -0.35100
C 	C 	0.56230 0.86520 0.81270 0.37800
C 	C 	0.52860 0.83380 0.78640 -0.73000
H 	H 	0.53800 0.85070 0.76870 0.22500
H 	H 	0.48980 0.83690 0.78950 0.24400
H 	H 	0.53870 0.79570 0.78590 0.24500
