data_crystal

_cell_length_a 39.82600
_cell_length_b 14.01200
_cell_length_c 29.26900
_cell_angle_alpha 90.00000
_cell_angle_beta  123.20600
_cell_angle_gamma 90.00000

_symmetry_space_group_name_	'P 1'
_symmetry_space_group_name_H-M	'P 1'

loop_
_symmetry_equiv_pos_as_xyz
  x,y,z

loop_
_atom_site_label
_atom_site_type_symbol
_atom_site_fract_x
_atom_site_fract_y
_atom_site_fract_z
_atom_site_charge
Zn	Zn	0.98951 0.47169 0.94510 1.21200
N 	N 	0.96463 0.44410 0.86331 -0.18700
O 	O 	0.04823 0.43770 0.97886 -0.45300
O 	O 	0.98303 0.34570 0.97300 -0.45900
O 	O 	0.93825 0.51930 0.94042 -0.46900
O 	O 	0.00196 0.61210 0.94351 -0.46400
C 	C 	0.95400 0.34400 0.84970 -0.06500
C 	C 	0.99283 0.46850 0.84800 -0.09300
C 	C 	0.92840 0.50070 0.82980 -0.07100
C 	C 	0.07220 0.44470 0.02970 0.38200
C 	C 	0.98753 0.32930 0.01920 0.36800
H 	H 	0.93650 0.32440 0.86140 0.04400
H 	H 	0.97810 0.30520 0.86880 0.04900
C 	C 	0.93230 0.32770 0.78690 -0.05400
H 	H 	0.01760 0.43330 0.87080 0.05400
H 	H 	0.99900 0.53610 0.85400 0.04600
C 	C 	0.97500 0.44440 0.78800 -0.01700
H 	H 	0.93460 0.56770 0.83900 0.04500
H 	H 	0.90850 0.48220 0.83740 0.04800
C 	C 	0.91130 0.48600 0.76850 -0.05100
C 	C 	0.11373 0.41190 0.05570 -0.08400
C 	C 	0.97990 0.22800 0.02820 -0.06700
N 	N 	0.93404 0.41180 0.76095 -0.21200
H 	H 	0.94490 0.27530 0.78020 0.04700
H 	H 	0.90440 0.31080 0.77170 0.04300
H 	H 	0.97600 0.50060 0.76940 -0.01300
H 	H 	0.99110 0.39510 0.78560 0.00700
H 	H 	0.88330 0.46740 0.74970 0.02600
H 	H 	0.91270 0.54550 0.75270 0.00800
C 	C 	0.12740 0.38120 0.02360 -0.07700
C 	C 	0.13880 0.41200 0.11150 0.01200
C 	C 	0.97140 0.15550 0.99040 -0.00300
C 	C 	0.98240 0.20720 0.07600 -0.07200
Zn	Zn	0.90635 0.39157 0.67627 1.18500
H 	H 	0.11090 0.38150 0.98570 0.07200
C 	C 	0.16632 0.35040 0.05030 0.09600
C 	C 	0.17590 0.37980 0.13750 -0.07500
H 	H 	0.12920 0.43580 0.13200 0.03400
H 	H 	0.97150 0.16990 0.95950 0.04400
C 	C 	0.96300 0.06320 0.99770 -0.07500
C 	C 	0.97420 0.11290 0.08380 0.07800
H 	H 	0.98920 0.25390 0.10220 0.06500
O 	O 	0.85568 0.34780 0.66277 -0.48900
O 	O 	0.92833 0.33530 0.63650 -0.47800
N 	N 	0.18768 0.31580 0.02968 -0.22200
C 	C 	0.19200 0.34590 0.10630 -0.01000
H 	H 	0.19160 0.37870 0.17550 0.05600
H 	H 	0.95590 0.01700 0.97110 0.06100
C 	C 	0.96530 0.04150 0.04460 0.00200
N 	N 	0.97280 0.07440 0.12620 -0.21300
H 	H 	0.17860 0.31180 0.99550 0.16000
C 	C 	0.22647 0.28750 0.07200 0.09400
C 	C 	0.23030 0.30400 0.12230 -0.01100
C 	C 	0.95900 0.95290 0.06650 -0.02800
H 	H 	0.97690 0.10420 0.15450 0.12100
C 	C 	0.96330 0.97710 0.11420 0.10000
C 	C 	0.25738 0.24690 0.07020 -0.08200
C 	C 	0.26600 0.27880 0.17070 -0.05900
C 	C 	0.94960 0.86120 0.04820 -0.03700
C 	C 	0.95710 0.91510 0.14590 -0.10100
H 	H 	0.25430 0.23440 0.03690 0.07300
C 	C 	0.29240 0.22560 0.11810 -0.05700
C 	C 	0.29800 0.24130 0.17010 -0.01700
H 	H 	0.26840 0.28720 0.20380 0.05200
C 	C 	0.94410 0.79330 0.07810 -0.04400
H 	H 	0.94680 0.84410 0.01550 0.05000
H 	H 	0.95880 0.93450 0.17750 0.08100
C 	C 	0.94780 0.82090 0.12640 -0.02400
C 	C 	0.32710 0.18240 0.11810 0.35500
H 	H 	0.32220 0.22690 0.20230 0.04700
H 	H 	0.93810 0.73040 0.06610 0.06400
C 	C 	0.93780 0.74550 0.15610 0.31500
O 	O 	0.32532 0.17330 0.07480 -0.32300
O 	O 	0.93640 0.77440 0.19510 -0.34300
Zn	Zn	0.48951 0.97169 0.94510 1.21300
N 	N 	0.46463 0.94410 0.86331 -0.18600
O 	O 	0.54823 0.93770 0.97886 -0.45500
O 	O 	0.48303 0.84570 0.97300 -0.45900
O 	O 	0.43825 0.01930 0.94042 -0.46900
O 	O 	0.50196 0.11210 0.94351 -0.46400
C 	C 	0.45400 0.84400 0.84970 -0.06500
C 	C 	0.49283 0.96850 0.84800 -0.09300
C 	C 	0.42840 0.00070 0.82980 -0.06600
C 	C 	0.57220 0.94470 0.02970 0.38500
C 	C 	0.48753 0.82930 0.01920 0.36900
H 	H 	0.43650 0.82440 0.86140 0.04400
H 	H 	0.47810 0.80520 0.86880 0.04900
C 	C 	0.43230 0.82770 0.78690 -0.05400
H 	H 	0.51760 0.93330 0.87080 0.05400
H 	H 	0.49900 0.03610 0.85400 0.04600
C 	C 	0.47500 0.94440 0.78800 -0.01800
H 	H 	0.43460 0.06770 0.83900 0.04400
H 	H 	0.40850 0.98220 0.83740 0.04700
C 	C 	0.41130 0.98600 0.76850 -0.05500
C 	C 	0.61373 0.91190 0.05570 -0.08700
C 	C 	0.47990 0.72800 0.02820 -0.06700
N 	N 	0.43404 0.91180 0.76095 -0.21200
H 	H 	0.44490 0.77530 0.78020 0.04700
H 	H 	0.40440 0.81080 0.77170 0.04300
H 	H 	0.47600 0.00060 0.76940 -0.01200
H 	H 	0.49110 0.89510 0.78560 0.00700
H 	H 	0.38330 0.96740 0.74970 0.02700
H 	H 	0.41270 0.04550 0.75270 0.01000
C 	C 	0.62740 0.88120 0.02360 -0.07300
C 	C 	0.63880 0.91200 0.11150 0.01400
C 	C 	0.47140 0.65550 0.99040 -0.00200
C 	C 	0.48240 0.70720 0.07600 -0.07200
Zn	Zn	0.40635 0.89157 0.67627 1.18500
H 	H 	0.61090 0.88150 0.98570 0.07000
C 	C 	0.66632 0.85040 0.05030 0.09400
C 	C 	0.67590 0.87980 0.13750 -0.07700
H 	H 	0.62920 0.93580 0.13200 0.03400
H 	H 	0.47150 0.66990 0.95950 0.04400
C 	C 	0.46300 0.56320 0.99770 -0.07600
C 	C 	0.47420 0.61290 0.08380 0.07700
H 	H 	0.48920 0.75390 0.10220 0.06500
O 	O 	0.35568 0.84780 0.66277 -0.48900
O 	O 	0.42833 0.83530 0.63650 -0.47800
N 	N 	0.68768 0.81580 0.02968 -0.22100
C 	C 	0.69200 0.84590 0.10630 -0.00800
H 	H 	0.69160 0.87870 0.17550 0.05700
H 	H 	0.45590 0.51700 0.97110 0.06100
C 	C 	0.46530 0.54150 0.04460 0.00400
N 	N 	0.47280 0.57440 0.12620 -0.21300
H 	H 	0.67860 0.81180 0.99550 0.15900
C 	C 	0.72647 0.78750 0.07200 0.09500
C 	C 	0.73030 0.80400 0.12230 -0.01200
C 	C 	0.45900 0.45290 0.06650 -0.02900
H 	H 	0.47690 0.60420 0.15450 0.12100
C 	C 	0.46330 0.47710 0.11420 0.10000
C 	C 	0.75738 0.74690 0.07020 -0.08200
C 	C 	0.76600 0.77880 0.17070 -0.05800
C 	C 	0.44960 0.36120 0.04820 -0.03700
C 	C 	0.45710 0.41510 0.14590 -0.10100
H 	H 	0.75430 0.73440 0.03690 0.07400
C 	C 	0.79240 0.72560 0.11810 -0.05600
C 	C 	0.79800 0.74130 0.17010 -0.01700
H 	H 	0.76840 0.78720 0.20380 0.05200
C 	C 	0.44410 0.29330 0.07810 -0.04400
H 	H 	0.44680 0.34410 0.01550 0.04900
H 	H 	0.45880 0.43450 0.17750 0.08100
C 	C 	0.44780 0.32090 0.12640 -0.02400
C 	C 	0.82710 0.68240 0.11810 0.35500
H 	H 	0.82220 0.72690 0.20230 0.04700
H 	H 	0.43810 0.23040 0.06610 0.06400
C 	C 	0.43780 0.24550 0.15610 0.31500
O 	O 	0.82532 0.67330 0.07480 -0.32300
O 	O 	0.43640 0.27440 0.19510 -0.34400
Zn	Zn	0.01049 0.47169 0.55490 1.21300
N 	N 	0.03537 0.44410 0.63669 -0.18600
O 	O 	0.95177 0.43770 0.52114 -0.45400
O 	O 	0.01697 0.34570 0.52700 -0.45900
O 	O 	0.06175 0.51930 0.55958 -0.46900
O 	O 	0.99804 0.61210 0.55649 -0.46400
C 	C 	0.04600 0.34400 0.65030 -0.06500
C 	C 	0.00717 0.46850 0.65200 -0.09100
C 	C 	0.07160 0.50070 0.67020 -0.07100
C 	C 	0.92780 0.44470 0.47030 0.38300
C 	C 	0.01247 0.32930 0.48080 0.36800
H 	H 	0.06350 0.32440 0.63860 0.04400
H 	H 	0.02190 0.30520 0.63120 0.04900
C 	C 	0.06770 0.32770 0.71310 -0.05400
H 	H 	0.98240 0.43330 0.62920 0.05400
H 	H 	0.00100 0.53610 0.64600 0.04600
C 	C 	0.02500 0.44440 0.71200 -0.01800
H 	H 	0.06540 0.56770 0.66100 0.04500
H 	H 	0.09150 0.48220 0.66260 0.04800
C 	C 	0.08870 0.48600 0.73150 -0.05100
C 	C 	0.88627 0.41190 0.44430 -0.08500
C 	C 	0.02010 0.22800 0.47180 -0.06700
N 	N 	0.06596 0.41180 0.73905 -0.21200
H 	H 	0.05510 0.27530 0.71980 0.04700
H 	H 	0.09560 0.31080 0.72830 0.04300
H 	H 	0.02400 0.50060 0.73060 -0.01300
H 	H 	0.00890 0.39510 0.71440 0.00700
H 	H 	0.11670 0.46740 0.75030 0.02600
H 	H 	0.08730 0.54550 0.74730 0.00800
C 	C 	0.87260 0.38120 0.47640 -0.07500
C 	C 	0.86120 0.41200 0.38850 0.01300
C 	C 	0.02860 0.15550 0.50960 -0.00200
C 	C 	0.01760 0.20720 0.42400 -0.07200
Zn	Zn	0.09365 0.39157 0.82373 1.18500
H 	H 	0.88910 0.38150 0.51430 0.07100
C 	C 	0.83368 0.35040 0.44970 0.09500
C 	C 	0.82410 0.37980 0.36250 -0.07600
H 	H 	0.87080 0.43580 0.36800 0.03400
H 	H 	0.02850 0.16990 0.54050 0.04400
C 	C 	0.03700 0.06320 0.50230 -0.07600
C 	C 	0.02580 0.11290 0.41620 0.07700
H 	H 	0.01080 0.25390 0.39780 0.06400
O 	O 	0.14432 0.34780 0.83723 -0.48900
O 	O 	0.07167 0.33530 0.86350 -0.47800
N 	N 	0.81232 0.31580 0.47032 -0.22200
C 	C 	0.80800 0.34590 0.39370 -0.00900
H 	H 	0.80840 0.37870 0.32450 0.05700
H 	H 	0.04410 0.01700 0.52890 0.06100
C 	C 	0.03470 0.04150 0.45540 0.00400
N 	N 	0.02720 0.07440 0.37380 -0.21300
H 	H 	0.82140 0.31180 0.50450 0.16000
C 	C 	0.77353 0.28750 0.42800 0.09400
C 	C 	0.76970 0.30400 0.37770 -0.01200
C 	C 	0.04100 0.95290 0.43350 -0.02900
H 	H 	0.02310 0.10420 0.34550 0.12100
C 	C 	0.03670 0.97710 0.38580 0.10000
C 	C 	0.74262 0.24690 0.42980 -0.08200
C 	C 	0.73400 0.27880 0.32930 -0.05800
C 	C 	0.05040 0.86120 0.45180 -0.03700
C 	C 	0.04290 0.91510 0.35410 -0.10100
H 	H 	0.74570 0.23440 0.46310 0.07300
C 	C 	0.70760 0.22560 0.38190 -0.05700
C 	C 	0.70200 0.24130 0.32990 -0.01700
H 	H 	0.73160 0.28720 0.29620 0.05200
C 	C 	0.05590 0.79330 0.42190 -0.04400
H 	H 	0.05320 0.84410 0.48450 0.05000
H 	H 	0.04120 0.93450 0.32250 0.08100
C 	C 	0.05220 0.82090 0.37360 -0.02400
C 	C 	0.67290 0.18240 0.38190 0.35500
H 	H 	0.67780 0.22690 0.29770 0.04700
H 	H 	0.06190 0.73040 0.43390 0.06400
C 	C 	0.06220 0.74550 0.34390 0.31500
O 	O 	0.67468 0.17330 0.42520 -0.32300
O 	O 	0.06360 0.77440 0.30490 -0.34400
Zn	Zn	0.51049 0.97169 0.55490 1.21300
N 	N 	0.53537 0.94410 0.63669 -0.18600
O 	O 	0.45177 0.93770 0.52114 -0.45400
O 	O 	0.51697 0.84570 0.52700 -0.45900
O 	O 	0.56175 0.01930 0.55958 -0.46900
O 	O 	0.49804 0.11210 0.55649 -0.46400
C 	C 	0.54600 0.84400 0.65030 -0.06500
C 	C 	0.50717 0.96850 0.65200 -0.09200
C 	C 	0.57160 0.00070 0.67020 -0.06800
C 	C 	0.42780 0.94470 0.47030 0.38300
C 	C 	0.51247 0.82930 0.48080 0.36800
H 	H 	0.56350 0.82440 0.63860 0.04400
H 	H 	0.52190 0.80520 0.63120 0.04900
C 	C 	0.56770 0.82770 0.71310 -0.05400
H 	H 	0.48240 0.93330 0.62920 0.05400
H 	H 	0.50100 0.03610 0.64600 0.04600
C 	C 	0.52500 0.94440 0.71200 -0.01900
H 	H 	0.56540 0.06770 0.66100 0.04400
H 	H 	0.59150 0.98220 0.66260 0.04700
C 	C 	0.58870 0.98600 0.73150 -0.05400
C 	C 	0.38627 0.91190 0.44430 -0.08500
C 	C 	0.52010 0.72800 0.47180 -0.06700
N 	N 	0.56596 0.91180 0.73905 -0.21200
H 	H 	0.55510 0.77530 0.71980 0.04700
H 	H 	0.59560 0.81080 0.72830 0.04300
H 	H 	0.52400 0.00060 0.73060 -0.01200
H 	H 	0.50890 0.89510 0.71440 0.00700
H 	H 	0.61670 0.96740 0.75030 0.02700
H 	H 	0.58730 0.04550 0.74730 0.00900
C 	C 	0.37260 0.88120 0.47640 -0.07500
C 	C 	0.36120 0.91200 0.38850 0.01300
C 	C 	0.52860 0.65550 0.50960 -0.00200
C 	C 	0.51760 0.70720 0.42400 -0.07200
Zn	Zn	0.59365 0.89157 0.82373 1.18500
H 	H 	0.38910 0.88150 0.51430 0.07100
C 	C 	0.33368 0.85040 0.44970 0.09500
C 	C 	0.32410 0.87980 0.36250 -0.07600
H 	H 	0.37080 0.93580 0.36800 0.03400
H 	H 	0.52850 0.66990 0.54050 0.04400
C 	C 	0.53700 0.56320 0.50230 -0.07600
C 	C 	0.52580 0.61290 0.41620 0.07700
H 	H 	0.51080 0.75390 0.39780 0.06500
O 	O 	0.64432 0.84780 0.83723 -0.48900
O 	O 	0.57167 0.83530 0.86350 -0.47800
N 	N 	0.31232 0.81580 0.47032 -0.22200
C 	C 	0.30800 0.84590 0.39370 -0.00900
H 	H 	0.30840 0.87870 0.32450 0.05700
H 	H 	0.54410 0.51700 0.52890 0.06100
C 	C 	0.53470 0.54150 0.45540 0.00400
N 	N 	0.52720 0.57440 0.37380 -0.21300
H 	H 	0.32140 0.81180 0.50450 0.16000
C 	C 	0.27353 0.78750 0.42800 0.09400
C 	C 	0.26970 0.80400 0.37770 -0.01200
C 	C 	0.54100 0.45290 0.43350 -0.02900
H 	H 	0.52310 0.60420 0.34550 0.12100
C 	C 	0.53670 0.47710 0.38580 0.10000
C 	C 	0.24262 0.74690 0.42980 -0.08200
C 	C 	0.23400 0.77880 0.32930 -0.05800
C 	C 	0.55040 0.36120 0.45180 -0.03700
C 	C 	0.54290 0.41510 0.35410 -0.10100
H 	H 	0.24570 0.73440 0.46310 0.07300
C 	C 	0.20760 0.72560 0.38190 -0.05700
C 	C 	0.20200 0.74130 0.32990 -0.01700
H 	H 	0.23160 0.78720 0.29620 0.05200
C 	C 	0.55590 0.29330 0.42190 -0.04400
H 	H 	0.55320 0.34410 0.48450 0.05000
H 	H 	0.54120 0.43450 0.32250 0.08100
C 	C 	0.55220 0.32090 0.37360 -0.02400
C 	C 	0.17290 0.68240 0.38190 0.35500
H 	H 	0.17780 0.72690 0.29770 0.04700
H 	H 	0.56190 0.23040 0.43390 0.06400
C 	C 	0.56220 0.24550 0.34390 0.31500
O 	O 	0.17468 0.67330 0.42520 -0.32300
O 	O 	0.56360 0.27440 0.30490 -0.34400
Zn	Zn	0.01049 0.52831 0.05490 1.21300
N 	N 	0.03537 0.55590 0.13669 -0.18600
O 	O 	0.95177 0.56230 0.02114 -0.45300
O 	O 	0.01697 0.65430 0.02700 -0.45900
O 	O 	0.06175 0.48070 0.05958 -0.46900
O 	O 	0.99804 0.38790 0.05649 -0.46400
C 	C 	0.04600 0.65600 0.15030 -0.06500
C 	C 	0.00717 0.53150 0.15200 -0.09300
C 	C 	0.07160 0.49930 0.17020 -0.07100
C 	C 	0.92780 0.55530 0.97030 0.38200
C 	C 	0.01247 0.67070 0.98080 0.36800
H 	H 	0.06350 0.67560 0.13860 0.04400
H 	H 	0.02190 0.69480 0.13120 0.04900
C 	C 	0.06770 0.67230 0.21310 -0.05400
H 	H 	0.98240 0.56670 0.12920 0.05400
H 	H 	0.00100 0.46390 0.14600 0.04600
C 	C 	0.02500 0.55560 0.21200 -0.01700
H 	H 	0.06540 0.43230 0.16100 0.04500
H 	H 	0.09150 0.51780 0.16260 0.04800
C 	C 	0.08870 0.51400 0.23150 -0.05100
C 	C 	0.88627 0.58810 0.94430 -0.08400
C 	C 	0.02010 0.77200 0.97180 -0.06700
N 	N 	0.06596 0.58820 0.23905 -0.21200
H 	H 	0.05510 0.72470 0.21980 0.04700
H 	H 	0.09560 0.68920 0.22830 0.04300
H 	H 	0.02400 0.49940 0.23060 -0.01300
H 	H 	0.00890 0.60490 0.21440 0.00700
H 	H 	0.11670 0.53260 0.25030 0.02600
H 	H 	0.08730 0.45450 0.24730 0.00800
C 	C 	0.87260 0.61880 0.97640 -0.07700
C 	C 	0.86120 0.58800 0.88850 0.01200
C 	C 	0.02860 0.84450 0.00960 -0.00300
C 	C 	0.01760 0.79280 0.92400 -0.07200
Zn	Zn	0.09365 0.60843 0.32373 1.18500
H 	H 	0.88910 0.61850 0.01430 0.07200
C 	C 	0.83368 0.64960 0.94970 0.09600
C 	C 	0.82410 0.62020 0.86250 -0.07500
H 	H 	0.87080 0.56420 0.86800 0.03400
H 	H 	0.02850 0.83010 0.04050 0.04400
C 	C 	0.03700 0.93680 0.00230 -0.07500
C 	C 	0.02580 0.88710 0.91620 0.07800
H 	H 	0.01080 0.74610 0.89780 0.06500
O 	O 	0.14432 0.65220 0.33723 -0.48900
O 	O 	0.07167 0.66470 0.36350 -0.47800
N 	N 	0.81232 0.68420 0.97032 -0.22200
C 	C 	0.80800 0.65410 0.89370 -0.01000
H 	H 	0.80840 0.62130 0.82450 0.05600
H 	H 	0.04410 0.98300 0.02890 0.06100
C 	C 	0.03470 0.95850 0.95540 0.00200
N 	N 	0.02720 0.92560 0.87380 -0.21300
H 	H 	0.82140 0.68820 0.00450 0.16000
C 	C 	0.77353 0.71250 0.92800 0.09400
C 	C 	0.76970 0.69600 0.87770 -0.01100
C 	C 	0.04100 0.04710 0.93350 -0.02800
H 	H 	0.02310 0.89580 0.84550 0.12100
C 	C 	0.03670 0.02290 0.88580 0.10000
C 	C 	0.74262 0.75310 0.92980 -0.08200
C 	C 	0.73400 0.72120 0.82930 -0.05900
C 	C 	0.05040 0.13880 0.95180 -0.03700
C 	C 	0.04290 0.08490 0.85410 -0.10100
H 	H 	0.74570 0.76560 0.96310 0.07300
C 	C 	0.70760 0.77440 0.88190 -0.05700
C 	C 	0.70200 0.75870 0.82990 -0.01700
H 	H 	0.73160 0.71280 0.79620 0.05200
C 	C 	0.05590 0.20670 0.92190 -0.04400
H 	H 	0.05320 0.15590 0.98450 0.05000
H 	H 	0.04120 0.06550 0.82250 0.08100
C 	C 	0.05220 0.17910 0.87360 -0.02400
C 	C 	0.67290 0.81760 0.88190 0.35500
H 	H 	0.67780 0.77310 0.79770 0.04700
H 	H 	0.06190 0.26960 0.93390 0.06400
C 	C 	0.06220 0.25450 0.84390 0.31500
O 	O 	0.67468 0.82670 0.92520 -0.32300
O 	O 	0.06360 0.22560 0.80490 -0.34300
Zn	Zn	0.51049 0.02831 0.05490 1.21300
N 	N 	0.53537 0.05590 0.13669 -0.18600
O 	O 	0.45177 0.06230 0.02114 -0.45500
O 	O 	0.51697 0.15430 0.02700 -0.45900
O 	O 	0.56175 0.98070 0.05958 -0.46900
O 	O 	0.49804 0.88790 0.05649 -0.46400
C 	C 	0.54600 0.15600 0.15030 -0.06500
C 	C 	0.50717 0.03150 0.15200 -0.09300
C 	C 	0.57160 0.99930 0.17020 -0.06600
C 	C 	0.42780 0.05530 0.97030 0.38500
C 	C 	0.51247 0.17070 0.98080 0.36900
H 	H 	0.56350 0.17560 0.13860 0.04400
H 	H 	0.52190 0.19480 0.13120 0.04900
C 	C 	0.56770 0.17230 0.21310 -0.05400
H 	H 	0.48240 0.06670 0.12920 0.05400
H 	H 	0.50100 0.96390 0.14600 0.04600
C 	C 	0.52500 0.05560 0.21200 -0.01800
H 	H 	0.56540 0.93230 0.16100 0.04400
H 	H 	0.59150 0.01780 0.16260 0.04700
C 	C 	0.58870 0.01400 0.23150 -0.05500
C 	C 	0.38627 0.08810 0.94430 -0.08700
C 	C 	0.52010 0.27200 0.97180 -0.06700
N 	N 	0.56596 0.08820 0.23905 -0.21200
H 	H 	0.55510 0.22470 0.21980 0.04700
H 	H 	0.59560 0.18920 0.22830 0.04300
H 	H 	0.52400 0.99940 0.23060 -0.01200
H 	H 	0.50890 0.10490 0.21440 0.00700
H 	H 	0.61670 0.03260 0.25030 0.02700
H 	H 	0.58730 0.95450 0.24730 0.01000
C 	C 	0.37260 0.11880 0.97640 -0.07300
C 	C 	0.36120 0.08800 0.88850 0.01400
C 	C 	0.52860 0.34450 0.00960 -0.00200
C 	C 	0.51760 0.29280 0.92400 -0.07200
Zn	Zn	0.59365 0.10843 0.32373 1.18500
H 	H 	0.38910 0.11850 0.01430 0.07000
C 	C 	0.33368 0.14960 0.94970 0.09400
C 	C 	0.32410 0.12020 0.86250 -0.07700
H 	H 	0.37080 0.06420 0.86800 0.03400
H 	H 	0.52850 0.33010 0.04050 0.04400
C 	C 	0.53700 0.43680 0.00230 -0.07600
C 	C 	0.52580 0.38710 0.91620 0.07700
H 	H 	0.51080 0.24610 0.89780 0.06500
O 	O 	0.64432 0.15220 0.33723 -0.48900
O 	O 	0.57167 0.16470 0.36350 -0.47800
N 	N 	0.31232 0.18420 0.97032 -0.22100
C 	C 	0.30800 0.15410 0.89370 -0.00800
H 	H 	0.30840 0.12130 0.82450 0.05700
H 	H 	0.54410 0.48300 0.02890 0.06100
C 	C 	0.53470 0.45850 0.95540 0.00400
N 	N 	0.52720 0.42560 0.87380 -0.21300
H 	H 	0.32140 0.18820 0.00450 0.15900
C 	C 	0.27353 0.21250 0.92800 0.09500
C 	C 	0.26970 0.19600 0.87770 -0.01200
C 	C 	0.54100 0.54710 0.93350 -0.02900
H 	H 	0.52310 0.39580 0.84550 0.12100
C 	C 	0.53670 0.52290 0.88580 0.10000
C 	C 	0.24262 0.25310 0.92980 -0.08200
C 	C 	0.23400 0.22120 0.82930 -0.05800
C 	C 	0.55040 0.63880 0.95180 -0.03700
C 	C 	0.54290 0.58490 0.85410 -0.10100
H 	H 	0.24570 0.26560 0.96310 0.07400
C 	C 	0.20760 0.27440 0.88190 -0.05600
C 	C 	0.20200 0.25870 0.82990 -0.01700
H 	H 	0.23160 0.21280 0.79620 0.05200
C 	C 	0.55590 0.70670 0.92190 -0.04400
H 	H 	0.55320 0.65590 0.98450 0.04900
H 	H 	0.54120 0.56550 0.82250 0.08100
C 	C 	0.55220 0.67910 0.87360 -0.02400
C 	C 	0.17290 0.31760 0.88190 0.35500
H 	H 	0.17780 0.27310 0.79770 0.04700
H 	H 	0.56190 0.76960 0.93390 0.06400
C 	C 	0.56220 0.75450 0.84390 0.31500
O 	O 	0.17468 0.32670 0.92520 -0.32300
O 	O 	0.56360 0.72560 0.80490 -0.34400
Zn	Zn	0.98951 0.52831 0.44510 1.21300
N 	N 	0.96463 0.55590 0.36331 -0.18600
O 	O 	0.04823 0.56230 0.47886 -0.45400
O 	O 	0.98303 0.65430 0.47300 -0.45900
O 	O 	0.93825 0.48070 0.44042 -0.46900
O 	O 	0.00196 0.38790 0.44351 -0.46400
C 	C 	0.95400 0.65600 0.34970 -0.06500
C 	C 	0.99283 0.53150 0.34800 -0.09100
C 	C 	0.92840 0.49930 0.32980 -0.07100
C 	C 	0.07220 0.55530 0.52970 0.38300
C 	C 	0.98753 0.67070 0.51920 0.36800
H 	H 	0.93650 0.67560 0.36140 0.04400
H 	H 	0.97810 0.69480 0.36880 0.04900
C 	C 	0.93230 0.67230 0.28690 -0.05400
H 	H 	0.01760 0.56670 0.37080 0.05400
H 	H 	0.99900 0.46390 0.35400 0.04600
C 	C 	0.97500 0.55560 0.28800 -0.01800
H 	H 	0.93460 0.43230 0.33900 0.04500
H 	H 	0.90850 0.51780 0.33740 0.04800
C 	C 	0.91130 0.51400 0.26850 -0.05100
C 	C 	0.11373 0.58810 0.55570 -0.08500
C 	C 	0.97990 0.77200 0.52820 -0.06700
N 	N 	0.93404 0.58820 0.26095 -0.21200
H 	H 	0.94490 0.72470 0.28020 0.04700
H 	H 	0.90440 0.68920 0.27170 0.04300
H 	H 	0.97600 0.49940 0.26940 -0.01300
H 	H 	0.99110 0.60490 0.28560 0.00700
H 	H 	0.88330 0.53260 0.24970 0.02600
H 	H 	0.91270 0.45450 0.25270 0.00800
C 	C 	0.12740 0.61880 0.52360 -0.07500
C 	C 	0.13880 0.58800 0.61150 0.01300
C 	C 	0.97140 0.84450 0.49040 -0.00200
C 	C 	0.98240 0.79280 0.57600 -0.07200
Zn	Zn	0.90635 0.60843 0.17627 1.18500
H 	H 	0.11090 0.61850 0.48570 0.07100
C 	C 	0.16632 0.64960 0.55030 0.09500
C 	C 	0.17590 0.62020 0.63750 -0.07600
H 	H 	0.12920 0.56420 0.63200 0.03400
H 	H 	0.97150 0.83010 0.45950 0.04400
C 	C 	0.96300 0.93680 0.49770 -0.07600
C 	C 	0.97420 0.88710 0.58380 0.07700
H 	H 	0.98920 0.74610 0.60220 0.06400
O 	O 	0.85568 0.65220 0.16277 -0.48900
O 	O 	0.92833 0.66470 0.13650 -0.47800
N 	N 	0.18768 0.68420 0.52968 -0.22200
C 	C 	0.19200 0.65410 0.60630 -0.00900
H 	H 	0.19160 0.62130 0.67550 0.05700
H 	H 	0.95590 0.98300 0.47110 0.06100
C 	C 	0.96530 0.95850 0.54460 0.00400
N 	N 	0.97280 0.92560 0.62620 -0.21300
H 	H 	0.17860 0.68820 0.49550 0.16000
C 	C 	0.22647 0.71250 0.57200 0.09400
C 	C 	0.23030 0.69600 0.62230 -0.01200
C 	C 	0.95900 0.04710 0.56650 -0.02900
H 	H 	0.97690 0.89580 0.65450 0.12100
C 	C 	0.96330 0.02290 0.61420 0.10000
C 	C 	0.25738 0.75310 0.57020 -0.08200
C 	C 	0.26600 0.72120 0.67070 -0.05800
C 	C 	0.94960 0.13880 0.54820 -0.03700
C 	C 	0.95710 0.08490 0.64590 -0.10100
H 	H 	0.25430 0.76560 0.53690 0.07300
C 	C 	0.29240 0.77440 0.61810 -0.05700
C 	C 	0.29800 0.75870 0.67010 -0.01700
H 	H 	0.26840 0.71280 0.70380 0.05200
C 	C 	0.94410 0.20670 0.57810 -0.04400
H 	H 	0.94680 0.15590 0.51550 0.05000
H 	H 	0.95880 0.06550 0.67750 0.08100
C 	C 	0.94780 0.17910 0.62640 -0.02400
C 	C 	0.32710 0.81760 0.61810 0.35500
H 	H 	0.32220 0.77310 0.70230 0.04700
H 	H 	0.93810 0.26960 0.56610 0.06400
C 	C 	0.93780 0.25450 0.65610 0.31500
O 	O 	0.32532 0.82670 0.57480 -0.32300
O 	O 	0.93640 0.22560 0.69510 -0.34400
Zn	Zn	0.48951 0.02831 0.44510 1.21300
N 	N 	0.46463 0.05590 0.36331 -0.18600
O 	O 	0.54823 0.06230 0.47886 -0.45400
O 	O 	0.48303 0.15430 0.47300 -0.45900
O 	O 	0.43825 0.98070 0.44042 -0.46900
O 	O 	0.50196 0.88790 0.44351 -0.46400
C 	C 	0.45400 0.15600 0.34970 -0.06500
C 	C 	0.49283 0.03150 0.34800 -0.09200
C 	C 	0.42840 0.99930 0.32980 -0.06800
C 	C 	0.57220 0.05530 0.52970 0.38300
C 	C 	0.48753 0.17070 0.51920 0.36800
H 	H 	0.43650 0.17560 0.36140 0.04400
H 	H 	0.47810 0.19480 0.36880 0.04900
C 	C 	0.43230 0.17230 0.28690 -0.05400
H 	H 	0.51760 0.06670 0.37080 0.05400
H 	H 	0.49900 0.96390 0.35400 0.04600
C 	C 	0.47500 0.05560 0.28800 -0.01900
H 	H 	0.43460 0.93230 0.33900 0.04400
H 	H 	0.40850 0.01780 0.33740 0.04700
C 	C 	0.41130 0.01400 0.26850 -0.05400
C 	C 	0.61373 0.08810 0.55570 -0.08500
C 	C 	0.47990 0.27200 0.52820 -0.06700
N 	N 	0.43404 0.08820 0.26095 -0.21200
H 	H 	0.44490 0.22470 0.28020 0.04700
H 	H 	0.40440 0.18920 0.27170 0.04300
H 	H 	0.47600 0.99940 0.26940 -0.01200
H 	H 	0.49110 0.10490 0.28560 0.00700
H 	H 	0.38330 0.03260 0.24970 0.02700
H 	H 	0.41270 0.95450 0.25270 0.00900
C 	C 	0.62740 0.11880 0.52360 -0.07500
C 	C 	0.63880 0.08800 0.61150 0.01300
C 	C 	0.47140 0.34450 0.49040 -0.00200
C 	C 	0.48240 0.29280 0.57600 -0.07200
Zn	Zn	0.40635 0.10843 0.17627 1.18500
H 	H 	0.61090 0.11850 0.48570 0.07100
C 	C 	0.66632 0.14960 0.55030 0.09500
C 	C 	0.67590 0.12020 0.63750 -0.07600
H 	H 	0.62920 0.06420 0.63200 0.03400
H 	H 	0.47150 0.33010 0.45950 0.04400
C 	C 	0.46300 0.43680 0.49770 -0.07600
C 	C 	0.47420 0.38710 0.58380 0.07700
H 	H 	0.48920 0.24610 0.60220 0.06500
O 	O 	0.35568 0.15220 0.16277 -0.48900
O 	O 	0.42833 0.16470 0.13650 -0.47800
N 	N 	0.68768 0.18420 0.52968 -0.22200
C 	C 	0.69200 0.15410 0.60630 -0.00900
H 	H 	0.69160 0.12130 0.67550 0.05700
H 	H 	0.45590 0.48300 0.47110 0.06100
C 	C 	0.46530 0.45850 0.54460 0.00400
N 	N 	0.47280 0.42560 0.62620 -0.21300
H 	H 	0.67860 0.18820 0.49550 0.16000
C 	C 	0.72647 0.21250 0.57200 0.09400
C 	C 	0.73030 0.19600 0.62230 -0.01200
C 	C 	0.45900 0.54710 0.56650 -0.02900
H 	H 	0.47690 0.39580 0.65450 0.12100
C 	C 	0.46330 0.52290 0.61420 0.10000
C 	C 	0.75738 0.25310 0.57020 -0.08200
C 	C 	0.76600 0.22120 0.67070 -0.05800
C 	C 	0.44960 0.63880 0.54820 -0.03700
C 	C 	0.45710 0.58490 0.64590 -0.10100
H 	H 	0.75430 0.26560 0.53690 0.07300
C 	C 	0.79240 0.27440 0.61810 -0.05700
C 	C 	0.79800 0.25870 0.67010 -0.01700
H 	H 	0.76840 0.21280 0.70380 0.05200
C 	C 	0.44410 0.70670 0.57810 -0.04400
H 	H 	0.44680 0.65590 0.51550 0.05000
H 	H 	0.45880 0.56550 0.67750 0.08100
C 	C 	0.44780 0.67910 0.62640 -0.02400
C 	C 	0.82710 0.31760 0.61810 0.35500
H 	H 	0.82220 0.27310 0.70230 0.04700
H 	H 	0.43810 0.76960 0.56610 0.06400
C 	C 	0.43780 0.75450 0.65610 0.31500
O 	O 	0.82532 0.32670 0.57480 -0.32300
O 	O 	0.43640 0.72560 0.69510 -0.34400
