data_crystal

_cell_length_a 22.53000
_cell_length_b 25.59700
_cell_length_c 34.00900
_cell_angle_alpha 90.00000
_cell_angle_beta  107.43900
_cell_angle_gamma 90.00000

_symmetry_space_group_name_	'P 1'
_symmetry_space_group_name_H-M	'P 1'

loop_
_symmetry_equiv_pos_as_xyz
  x,y,z

loop_
_atom_site_label
_atom_site_type_symbol
_atom_site_fract_x
_atom_site_fract_y
_atom_site_fract_z
_atom_site_charge
Zn	Zn	0.40536 0.02871 0.19975 1.23500
Zn	Zn	0.31870 0.96324 0.12655 1.22700
Zn	Zn	0.25955 0.02623 0.18220 1.22100
Zn	Zn	0.30672 0.08636 0.11722 1.20300
F 	F 	0.65950 0.89760 0.26994 -0.50200
F 	F 	0.70280 0.86570 0.22760 -0.42900
F 	F 	0.67290 0.81490 0.26660 -0.41300
F 	F 	0.57340 0.66300 0.24730 -0.31900
F 	F 	0.50380 0.70570 0.19270 -0.37400
F 	F 	0.56910 0.74700 0.25490 -0.32300
F 	F 	0.09840 0.74040 0.07890 -0.37800
F 	F 	0.16360 0.69460 0.13930 -0.32500
F 	F 	0.20030 0.74360 0.09780 -0.35900
F 	F 	0.16100 0.65900 0.25170 -0.49700
F 	F 	0.14940 0.73750 0.25910 -0.31300
F 	F 	0.19690 0.69290 0.20610 -0.27000
F 	F 	0.52630 0.00510 0.39710 -0.53500
F 	F 	0.49340 0.96930 0.43810 -0.34100
F 	F 	0.49590 0.06220 0.42200 -0.34700
F 	F 	0.37210 0.85730 0.46170 -0.39000
F 	F 	0.30640 0.88960 0.40490 -0.39700
F 	F 	0.41320 0.89570 0.42030 -0.36800
O 	O 	0.45770 0.96792 0.19759 -0.46900
O 	O 	0.39110 0.91885 0.15002 -0.43400
O 	O 	0.70940 0.58730 0.18250 -0.43400
O 	O 	0.76640 0.63449 0.15236 -0.47400
O 	O 	0.25230 0.91700 0.13172 -0.45500
O 	O 	0.20660 0.96370 0.17004 -0.46300
O 	O 	0.95660 0.58827 0.19690 -0.46900
O 	O 	0.89130 0.62350 0.14020 -0.45600
O 	O 	0.29550 0.01610 0.24179 -0.44600
O 	O 	0.39780 0.02657 0.25557 -0.47000
O 	O 	0.31710 0.03670 0.56988 -0.44700
O 	O 	0.33840 0.95230 0.57287 -0.45600
O 	O 	0.32586 0.02584 0.15778 -0.92900
N 	N 	0.28220 0.14680 0.07290 -0.24200
C 	C 	0.44300 0.92910 0.17520 0.47300
C 	C 	0.49310 0.88890 0.17900 -0.16400
C 	C 	0.54910 0.89130 0.20880 0.22100
H 	H 	0.55760 0.91930 0.22710 0.01500
C 	C 	0.59380 0.85250 0.21230 -0.24800
C 	C 	0.58280 0.81030 0.18600 0.19800
C 	C 	0.52490 0.80940 0.15440 -0.14400
H 	H 	0.51650 0.78200 0.13560 0.16300
C 	C 	0.48090 0.84790 0.15060 0.17200
H 	H 	0.44350 0.84660 0.12940 0.06400
C 	C 	0.65480 0.85690 0.24350 0.89600
C 	C 	0.62470 0.76610 0.18650 0.12100
C 	C 	0.61760 0.71980 0.20570 -0.09600
C 	C 	0.65350 0.67670 0.19940 0.13500
H 	H 	0.64930 0.64520 0.21190 0.09700
C 	C 	0.69270 0.67850 0.17700 -0.10100
C 	C 	0.70190 0.72500 0.15990 0.12600
H 	H 	0.73060 0.72790 0.14530 0.06200
C 	C 	0.66650 0.76800 0.16500 -0.10400
H 	H 	0.67200 0.79950 0.15300 0.16600
C 	C 	0.72830 0.63100 0.16970 0.43700
C 	C 	0.56250 0.70970 0.22120 0.70700
C 	C 	0.21700 0.92250 0.15390 0.45800
C 	C 	0.17970 0.87650 0.15920 -0.15000
C 	C 	0.18440 0.83020 0.14030 0.15200
H 	H 	0.20980 0.82840 0.12330 0.08800
C 	C 	0.15320 0.78670 0.14560 -0.09700
C 	C 	0.11300 0.78830 0.16840 0.12000
C 	C 	0.10930 0.83430 0.18960 -0.17100
C 	C 	0.14310 0.87710 0.18330 0.20500
H 	H 	0.14000 0.90810 0.19690 0.07200
C 	C 	0.15150 0.74120 0.11400 0.74200
C 	C 	0.07250 0.74270 0.17050 0.29100
C 	C 	0.08490 0.70400 0.19930 -0.41800
C 	C 	0.04440 0.66500 0.19910 0.36800
H 	H 	0.05560 0.63860 0.21870 -0.02400
C 	C 	0.98660 0.66390 0.16990 -0.25300
C 	C 	0.97240 0.70130 0.14010 0.25700
H 	H 	0.93460 0.69980 0.11930 0.00100
C 	C 	0.01430 0.74210 0.14030 -0.22500
H 	H 	0.00350 0.76850 0.12060 0.17800
C 	C 	0.94020 0.62200 0.16890 0.50800
C 	C 	0.14680 0.70130 0.22680 1.13600
C 	C 	0.34930 0.01900 0.26550 0.49000
C 	C 	0.35640 0.01390 0.31050 -0.20600
C 	C 	0.41440 0.01710 0.34010 0.32100
H 	H 	0.45020 0.02210 0.33230 -0.01400
C 	C 	0.41800 0.01280 0.38080 -0.38900
C 	C 	0.36610 0.00650 0.39410 0.26600
C 	C 	0.30870 0.99850 0.36420 -0.17600
H 	H 	0.27400 0.98980 0.37220 0.18400
C 	C 	0.30330 0.00340 0.32180 0.20700
H 	H 	0.26490 0.99970 0.30190 0.05400
C 	C 	0.47820 0.01130 0.41110 1.20100
C 	C 	0.36330 0.00410 0.43760 0.21000
C 	C 	0.36470 0.95580 0.45670 -0.16800
C 	C 	0.35790 0.95440 0.49600 0.19200
H 	H 	0.36210 0.92270 0.50980 0.06100
C 	C 	0.34510 0.99850 0.51500 -0.14100
C 	C 	0.34410 0.04540 0.49540 0.18600
H 	H 	0.33600 0.07600 0.50760 0.07000
C 	C 	0.35540 0.04720 0.45640 -0.21100
C 	C 	0.33320 0.99490 0.55530 0.45200
C 	C 	0.36350 0.90370 0.43740 0.71400
C 	C 	0.32540 0.17060 0.06080 0.12900
H 	H 	0.36660 0.16050 0.07250 0.04000
C 	C 	0.31230 0.21030 0.03110 -0.14100
H 	H 	0.34450 0.22400 0.02240 0.13400
C 	C 	0.25660 0.22860 0.01550 0.11200
C 	C 	0.21480 0.20420 0.02870 -0.14400
H 	H 	0.17330 0.21160 0.01510 0.11900
C 	C 	0.22670 0.16880 0.06070 0.12000
H 	H 	0.19650 0.16060 0.07330 -0.00500
F 	F 	0.18880 0.72740 0.23640 -0.46300
F 	F 	0.48720 0.02150 0.44540 -0.43800
F 	F 	0.35000 0.14200 0.46460 -0.30500
F 	F 	0.27480 0.09120 0.40460 -0.35200
F 	F 	0.38140 0.11420 0.42190 -0.28900
C 	C 	0.33440 0.09300 0.44000 0.67900
F 	F 	0.06790 0.88180 0.23200 -0.32400
F 	F 	0.07400 0.80560 0.24490 -0.40800
F 	F 	0.00250 0.85170 0.18840 -0.35800
C 	C 	0.06360 0.83190 0.21240 0.80300
Zn	Zn	0.90536 0.52871 0.19975 1.23400
Zn	Zn	0.81870 0.46324 0.12655 1.22600
Zn	Zn	0.75955 0.52623 0.18220 1.22000
Zn	Zn	0.80672 0.58636 0.11722 1.20200
F 	F 	0.15950 0.39760 0.26994 -0.50300
F 	F 	0.20280 0.36570 0.22760 -0.43000
F 	F 	0.17290 0.31490 0.26660 -0.41300
F 	F 	0.07340 0.16300 0.24730 -0.31900
F 	F 	0.00380 0.20570 0.19270 -0.37400
F 	F 	0.06910 0.24700 0.25490 -0.32300
F 	F 	0.59840 0.24040 0.07890 -0.37800
F 	F 	0.66360 0.19460 0.13930 -0.32500
F 	F 	0.70030 0.24360 0.09780 -0.35900
F 	F 	0.66100 0.15900 0.25170 -0.49700
F 	F 	0.64940 0.23750 0.25910 -0.31300
F 	F 	0.69690 0.19290 0.20610 -0.27000
F 	F 	0.02630 0.50510 0.39710 -0.53600
F 	F 	0.99340 0.46930 0.43810 -0.34100
F 	F 	0.99590 0.56220 0.42200 -0.34700
F 	F 	0.87210 0.35730 0.46170 -0.39000
F 	F 	0.80640 0.38960 0.40490 -0.39700
F 	F 	0.91320 0.39570 0.42030 -0.36800
O 	O 	0.95770 0.46792 0.19759 -0.46900
O 	O 	0.89110 0.41885 0.15002 -0.43500
O 	O 	0.20940 0.08730 0.18250 -0.43300
O 	O 	0.26640 0.13449 0.15236 -0.47400
O 	O 	0.75230 0.41700 0.13172 -0.45500
O 	O 	0.70660 0.46370 0.17004 -0.46400
O 	O 	0.45660 0.08827 0.19690 -0.46900
O 	O 	0.39130 0.12350 0.14020 -0.45600
O 	O 	0.79550 0.51610 0.24179 -0.44600
O 	O 	0.89780 0.52657 0.25557 -0.47000
O 	O 	0.81710 0.53670 0.56988 -0.44700
O 	O 	0.83840 0.45230 0.57287 -0.45600
O 	O 	0.82586 0.52584 0.15778 -0.92900
N 	N 	0.78220 0.64680 0.07290 -0.24300
C 	C 	0.94300 0.42910 0.17520 0.47300
C 	C 	0.99310 0.38890 0.17900 -0.16500
C 	C 	0.04910 0.39130 0.20880 0.22100
H 	H 	0.05760 0.41930 0.22710 0.01500
C 	C 	0.09380 0.35250 0.21230 -0.24800
C 	C 	0.08280 0.31030 0.18600 0.19800
C 	C 	0.02490 0.30940 0.15440 -0.14400
H 	H 	0.01650 0.28200 0.13560 0.16300
C 	C 	0.98090 0.34790 0.15060 0.17200
H 	H 	0.94350 0.34660 0.12940 0.06400
C 	C 	0.15480 0.35690 0.24350 0.89600
C 	C 	0.12470 0.26610 0.18650 0.12100
C 	C 	0.11760 0.21980 0.20570 -0.09600
C 	C 	0.15350 0.17670 0.19940 0.13500
H 	H 	0.14930 0.14520 0.21190 0.09700
C 	C 	0.19270 0.17850 0.17700 -0.10100
C 	C 	0.20190 0.22500 0.15990 0.12600
H 	H 	0.23060 0.22790 0.14530 0.06200
C 	C 	0.16650 0.26800 0.16500 -0.10400
H 	H 	0.17200 0.29950 0.15300 0.16600
C 	C 	0.22830 0.13100 0.16970 0.43700
C 	C 	0.06250 0.20970 0.22120 0.70700
C 	C 	0.71700 0.42250 0.15390 0.45800
C 	C 	0.67970 0.37650 0.15920 -0.15100
C 	C 	0.68440 0.33020 0.14030 0.15200
H 	H 	0.70980 0.32840 0.12330 0.08800
C 	C 	0.65320 0.28670 0.14560 -0.09700
C 	C 	0.61300 0.28830 0.16840 0.12000
C 	C 	0.60930 0.33430 0.18960 -0.17100
C 	C 	0.64310 0.37710 0.18330 0.20500
H 	H 	0.64000 0.40810 0.19690 0.07200
C 	C 	0.65150 0.24120 0.11400 0.74200
C 	C 	0.57250 0.24270 0.17050 0.29100
C 	C 	0.58490 0.20400 0.19930 -0.41800
C 	C 	0.54440 0.16500 0.19910 0.36800
H 	H 	0.55560 0.13860 0.21870 -0.02400
C 	C 	0.48660 0.16390 0.16990 -0.25300
C 	C 	0.47240 0.20130 0.14010 0.25700
H 	H 	0.43460 0.19980 0.11930 0.00100
C 	C 	0.51430 0.24210 0.14030 -0.22400
H 	H 	0.50350 0.26850 0.12060 0.17800
C 	C 	0.44020 0.12200 0.16890 0.50800
C 	C 	0.64680 0.20130 0.22680 1.13600
C 	C 	0.84930 0.51900 0.26550 0.49100
C 	C 	0.85640 0.51390 0.31050 -0.20700
C 	C 	0.91440 0.51710 0.34010 0.32100
H 	H 	0.95020 0.52210 0.33230 -0.01400
C 	C 	0.91800 0.51280 0.38080 -0.39000
C 	C 	0.86610 0.50650 0.39410 0.26700
C 	C 	0.80870 0.49850 0.36420 -0.17700
H 	H 	0.77400 0.48980 0.37220 0.18400
C 	C 	0.80330 0.50340 0.32180 0.20900
H 	H 	0.76490 0.49970 0.30190 0.05300
C 	C 	0.97820 0.51130 0.41110 1.20100
C 	C 	0.86330 0.50410 0.43760 0.20900
C 	C 	0.86470 0.45580 0.45670 -0.16800
C 	C 	0.85790 0.45440 0.49600 0.19200
H 	H 	0.86210 0.42270 0.50980 0.06100
C 	C 	0.84510 0.49850 0.51500 -0.14200
C 	C 	0.84410 0.54540 0.49540 0.18600
H 	H 	0.83600 0.57600 0.50760 0.07000
C 	C 	0.85540 0.54720 0.45640 -0.21000
C 	C 	0.83320 0.49490 0.55530 0.45200
C 	C 	0.86350 0.40370 0.43740 0.71400
C 	C 	0.82540 0.67060 0.06080 0.12900
H 	H 	0.86660 0.66050 0.07250 0.04000
C 	C 	0.81230 0.71030 0.03110 -0.14300
H 	H 	0.84450 0.72400 0.02240 0.13500
C 	C 	0.75660 0.72860 0.01550 0.11400
C 	C 	0.71480 0.70420 0.02870 -0.14600
H 	H 	0.67330 0.71160 0.01510 0.11900
C 	C 	0.72670 0.66880 0.06070 0.12000
H 	H 	0.69650 0.66060 0.07330 -0.00500
F 	F 	0.68880 0.22740 0.23640 -0.46300
F 	F 	0.98720 0.52150 0.44540 -0.43800
F 	F 	0.85000 0.64200 0.46460 -0.30500
F 	F 	0.77480 0.59120 0.40460 -0.35300
F 	F 	0.88140 0.61420 0.42190 -0.28900
C 	C 	0.83440 0.59300 0.44000 0.67900
F 	F 	0.56790 0.38180 0.23200 -0.32400
F 	F 	0.57400 0.30560 0.24490 -0.40800
F 	F 	0.50250 0.35170 0.18840 -0.35700
C 	C 	0.56360 0.33190 0.21240 0.80300
Zn	Zn	0.59464 0.02871 0.30025 1.23400
Zn	Zn	0.68130 0.96324 0.37345 1.22600
Zn	Zn	0.74045 0.02623 0.31780 1.22000
Zn	Zn	0.69328 0.08636 0.38278 1.20200
F 	F 	0.34050 0.89760 0.23006 -0.50300
F 	F 	0.29720 0.86570 0.27240 -0.43000
F 	F 	0.32710 0.81490 0.23340 -0.41300
F 	F 	0.42660 0.66300 0.25270 -0.31900
F 	F 	0.49620 0.70570 0.30730 -0.37400
F 	F 	0.43090 0.74700 0.24510 -0.32300
F 	F 	0.90160 0.74040 0.42110 -0.37800
F 	F 	0.83640 0.69460 0.36070 -0.32500
F 	F 	0.79970 0.74360 0.40220 -0.35900
F 	F 	0.83900 0.65900 0.24830 -0.49700
F 	F 	0.85060 0.73750 0.24090 -0.31300
F 	F 	0.80310 0.69290 0.29390 -0.27000
F 	F 	0.47370 0.00510 0.10290 -0.53500
F 	F 	0.50660 0.96930 0.06190 -0.34000
F 	F 	0.50410 0.06220 0.07800 -0.34700
F 	F 	0.62790 0.85730 0.03830 -0.39000
F 	F 	0.69360 0.88960 0.09510 -0.39700
F 	F 	0.58680 0.89570 0.07970 -0.36800
O 	O 	0.54230 0.96792 0.30241 -0.46900
O 	O 	0.60890 0.91885 0.34998 -0.43400
O 	O 	0.29060 0.58730 0.31750 -0.43400
O 	O 	0.23360 0.63449 0.34764 -0.47400
O 	O 	0.74770 0.91700 0.36828 -0.45500
O 	O 	0.79340 0.96370 0.32996 -0.46300
O 	O 	0.04340 0.58827 0.30310 -0.46900
O 	O 	0.10870 0.62350 0.35980 -0.45600
O 	O 	0.70450 0.01610 0.25821 -0.44600
O 	O 	0.60220 0.02657 0.24443 -0.47000
O 	O 	0.68290 0.03670 0.93012 -0.44600
O 	O 	0.66160 0.95230 0.92713 -0.45600
O 	O 	0.67414 0.02584 0.34222 -0.92900
N 	N 	0.71780 0.14680 0.42710 -0.24300
C 	C 	0.55700 0.92910 0.32480 0.47300
C 	C 	0.50690 0.88890 0.32100 -0.16400
C 	C 	0.45090 0.89130 0.29120 0.22100
H 	H 	0.44240 0.91930 0.27290 0.01500
C 	C 	0.40620 0.85250 0.28770 -0.24800
C 	C 	0.41720 0.81030 0.31400 0.19800
C 	C 	0.47510 0.80940 0.34560 -0.14400
H 	H 	0.48350 0.78200 0.36440 0.16300
C 	C 	0.51910 0.84790 0.34940 0.17200
H 	H 	0.55650 0.84660 0.37060 0.06400
C 	C 	0.34520 0.85690 0.25650 0.89600
C 	C 	0.37530 0.76610 0.31350 0.12100
C 	C 	0.38240 0.71980 0.29430 -0.09600
C 	C 	0.34650 0.67670 0.30060 0.13500
H 	H 	0.35070 0.64520 0.28810 0.09700
C 	C 	0.30730 0.67850 0.32300 -0.10100
C 	C 	0.29810 0.72500 0.34010 0.12600
H 	H 	0.26940 0.72790 0.35470 0.06200
C 	C 	0.33350 0.76800 0.33500 -0.10400
H 	H 	0.32800 0.79950 0.34700 0.16600
C 	C 	0.27170 0.63100 0.33030 0.43700
C 	C 	0.43750 0.70970 0.27880 0.70700
C 	C 	0.78300 0.92250 0.34610 0.45800
C 	C 	0.82030 0.87650 0.34080 -0.15000
C 	C 	0.81560 0.83020 0.35970 0.15200
H 	H 	0.79020 0.82840 0.37670 0.08800
C 	C 	0.84680 0.78670 0.35440 -0.09700
C 	C 	0.88700 0.78830 0.33160 0.12000
C 	C 	0.89070 0.83430 0.31040 -0.17100
C 	C 	0.85690 0.87710 0.31670 0.20500
H 	H 	0.86000 0.90810 0.30310 0.07200
C 	C 	0.84850 0.74120 0.38600 0.74200
C 	C 	0.92750 0.74270 0.32950 0.29100
C 	C 	0.91510 0.70400 0.30070 -0.41800
C 	C 	0.95560 0.66500 0.30090 0.36800
H 	H 	0.94440 0.63860 0.28130 -0.02400
C 	C 	0.01340 0.66390 0.33010 -0.25300
C 	C 	0.02760 0.70130 0.35990 0.25700
H 	H 	0.06540 0.69980 0.38070 0.00100
C 	C 	0.98570 0.74210 0.35970 -0.22500
H 	H 	0.99650 0.76850 0.37940 0.17800
C 	C 	0.05980 0.62200 0.33110 0.50800
C 	C 	0.85320 0.70130 0.27320 1.13600
C 	C 	0.65070 0.01900 0.23450 0.49000
C 	C 	0.64360 0.01390 0.18950 -0.20500
C 	C 	0.58560 0.01710 0.15990 0.32000
H 	H 	0.54980 0.02210 0.16770 -0.01400
C 	C 	0.58200 0.01280 0.11920 -0.38800
C 	C 	0.63390 0.00650 0.10590 0.26500
C 	C 	0.69130 0.99850 0.13580 -0.17400
H 	H 	0.72600 0.98980 0.12780 0.18300
C 	C 	0.69670 0.00340 0.17820 0.20600
H 	H 	0.73510 0.99970 0.19810 0.05500
C 	C 	0.52180 0.01130 0.08890 1.20100
C 	C 	0.63670 0.00410 0.06240 0.21000
C 	C 	0.63530 0.95580 0.04330 -0.16900
C 	C 	0.64210 0.95440 0.00400 0.19400
H 	H 	0.63790 0.92270 0.99020 0.06000
C 	C 	0.65490 0.99850 0.98500 -0.14200
C 	C 	0.65590 0.04540 0.00460 0.18500
H 	H 	0.66400 0.07600 0.99240 0.07100
C 	C 	0.64460 0.04720 0.04360 -0.21000
C 	C 	0.66680 0.99490 0.94470 0.45200
C 	C 	0.63650 0.90370 0.06260 0.71400
C 	C 	0.67460 0.17060 0.43920 0.12900
H 	H 	0.63340 0.16050 0.42750 0.04000
C 	C 	0.68770 0.21030 0.46890 -0.14200
H 	H 	0.65550 0.22400 0.47760 0.13500
C 	C 	0.74340 0.22860 0.48450 0.11300
C 	C 	0.78520 0.20420 0.47130 -0.14500
H 	H 	0.82670 0.21160 0.48490 0.11900
C 	C 	0.77330 0.16880 0.43930 0.12000
H 	H 	0.80350 0.16060 0.42670 -0.00500
F 	F 	0.81120 0.72740 0.26360 -0.46300
F 	F 	0.51280 0.02150 0.05460 -0.43800
F 	F 	0.65000 0.14200 0.03540 -0.30500
F 	F 	0.72520 0.09120 0.09540 -0.35300
F 	F 	0.61860 0.11420 0.07810 -0.28900
C 	C 	0.66560 0.09300 0.06000 0.67900
F 	F 	0.93210 0.88180 0.26800 -0.32400
F 	F 	0.92600 0.80560 0.25510 -0.40800
F 	F 	0.99750 0.85170 0.31160 -0.35800
C 	C 	0.93640 0.83190 0.28760 0.80300
Zn	Zn	0.09464 0.52871 0.30025 1.23400
Zn	Zn	0.18130 0.46324 0.37345 1.22600
Zn	Zn	0.24045 0.52623 0.31780 1.22000
Zn	Zn	0.19328 0.58636 0.38278 1.20200
F 	F 	0.84050 0.39760 0.23006 -0.50300
F 	F 	0.79720 0.36570 0.27240 -0.43000
F 	F 	0.82710 0.31490 0.23340 -0.41300
F 	F 	0.92660 0.16300 0.25270 -0.31900
F 	F 	0.99620 0.20570 0.30730 -0.37400
F 	F 	0.93090 0.24700 0.24510 -0.32300
F 	F 	0.40160 0.24040 0.42110 -0.37800
F 	F 	0.33640 0.19460 0.36070 -0.32500
F 	F 	0.29970 0.24360 0.40220 -0.35900
F 	F 	0.33900 0.15900 0.24830 -0.49700
F 	F 	0.35060 0.23750 0.24090 -0.31300
F 	F 	0.30310 0.19290 0.29390 -0.27000
F 	F 	0.97370 0.50510 0.10290 -0.53600
F 	F 	0.00660 0.46930 0.06190 -0.34100
F 	F 	0.00410 0.56220 0.07800 -0.34700
F 	F 	0.12790 0.35730 0.03830 -0.39000
F 	F 	0.19360 0.38960 0.09510 -0.39700
F 	F 	0.08680 0.39570 0.07970 -0.36800
O 	O 	0.04230 0.46792 0.30241 -0.46900
O 	O 	0.10890 0.41885 0.34998 -0.43500
O 	O 	0.79060 0.08730 0.31750 -0.43300
O 	O 	0.73360 0.13449 0.34764 -0.47400
O 	O 	0.24770 0.41700 0.36828 -0.45500
O 	O 	0.29340 0.46370 0.32996 -0.46400
O 	O 	0.54340 0.08827 0.30310 -0.46900
O 	O 	0.60870 0.12350 0.35980 -0.45600
O 	O 	0.20450 0.51610 0.25821 -0.44600
O 	O 	0.10220 0.52657 0.24443 -0.47000
O 	O 	0.18290 0.53670 0.93012 -0.44700
O 	O 	0.16160 0.45230 0.92713 -0.45600
O 	O 	0.17414 0.52584 0.34222 -0.92900
N 	N 	0.21780 0.64680 0.42710 -0.24300
C 	C 	0.05700 0.42910 0.32480 0.47300
C 	C 	0.00690 0.38890 0.32100 -0.16500
C 	C 	0.95090 0.39130 0.29120 0.22100
H 	H 	0.94240 0.41930 0.27290 0.01500
C 	C 	0.90620 0.35250 0.28770 -0.24800
C 	C 	0.91720 0.31030 0.31400 0.19800
C 	C 	0.97510 0.30940 0.34560 -0.14400
H 	H 	0.98350 0.28200 0.36440 0.16300
C 	C 	0.01910 0.34790 0.34940 0.17200
H 	H 	0.05650 0.34660 0.37060 0.06400
C 	C 	0.84520 0.35690 0.25650 0.89600
C 	C 	0.87530 0.26610 0.31350 0.12100
C 	C 	0.88240 0.21980 0.29430 -0.09600
C 	C 	0.84650 0.17670 0.30060 0.13500
H 	H 	0.85070 0.14520 0.28810 0.09700
C 	C 	0.80730 0.17850 0.32300 -0.10100
C 	C 	0.79810 0.22500 0.34010 0.12600
H 	H 	0.76940 0.22790 0.35470 0.06200
C 	C 	0.83350 0.26800 0.33500 -0.10400
H 	H 	0.82800 0.29950 0.34700 0.16600
C 	C 	0.77170 0.13100 0.33030 0.43700
C 	C 	0.93750 0.20970 0.27880 0.70700
C 	C 	0.28300 0.42250 0.34610 0.45800
C 	C 	0.32030 0.37650 0.34080 -0.15100
C 	C 	0.31560 0.33020 0.35970 0.15200
H 	H 	0.29020 0.32840 0.37670 0.08800
C 	C 	0.34680 0.28670 0.35440 -0.09700
C 	C 	0.38700 0.28830 0.33160 0.12000
C 	C 	0.39070 0.33430 0.31040 -0.17100
C 	C 	0.35690 0.37710 0.31670 0.20500
H 	H 	0.36000 0.40810 0.30310 0.07200
C 	C 	0.34850 0.24120 0.38600 0.74200
C 	C 	0.42750 0.24270 0.32950 0.29100
C 	C 	0.41510 0.20400 0.30070 -0.41800
C 	C 	0.45560 0.16500 0.30090 0.36800
H 	H 	0.44440 0.13860 0.28130 -0.02400
C 	C 	0.51340 0.16390 0.33010 -0.25300
C 	C 	0.52760 0.20130 0.35990 0.25700
H 	H 	0.56540 0.19980 0.38070 0.00100
C 	C 	0.48570 0.24210 0.35970 -0.22400
H 	H 	0.49650 0.26850 0.37940 0.17800
C 	C 	0.55980 0.12200 0.33110 0.50800
C 	C 	0.35320 0.20130 0.27320 1.13600
C 	C 	0.15070 0.51900 0.23450 0.49100
C 	C 	0.14360 0.51390 0.18950 -0.20700
C 	C 	0.08560 0.51710 0.15990 0.32100
H 	H 	0.04980 0.52210 0.16770 -0.01400
C 	C 	0.08200 0.51280 0.11920 -0.39000
C 	C 	0.13390 0.50650 0.10590 0.26700
C 	C 	0.19130 0.49850 0.13580 -0.17700
H 	H 	0.22600 0.48980 0.12780 0.18400
C 	C 	0.19670 0.50340 0.17820 0.20900
H 	H 	0.23510 0.49970 0.19810 0.05300
C 	C 	0.02180 0.51130 0.08890 1.20100
C 	C 	0.13670 0.50410 0.06240 0.20900
C 	C 	0.13530 0.45580 0.04330 -0.16800
C 	C 	0.14210 0.45440 0.00400 0.19200
H 	H 	0.13790 0.42270 0.99020 0.06100
C 	C 	0.15490 0.49850 0.98500 -0.14200
C 	C 	0.15590 0.54540 0.00460 0.18600
H 	H 	0.16400 0.57600 0.99240 0.07000
C 	C 	0.14460 0.54720 0.04360 -0.21100
C 	C 	0.16680 0.49490 0.94470 0.45200
C 	C 	0.13650 0.40370 0.06260 0.71400
C 	C 	0.17460 0.67060 0.43920 0.12900
H 	H 	0.13340 0.66050 0.42750 0.04000
C 	C 	0.18770 0.71030 0.46890 -0.14200
H 	H 	0.15550 0.72400 0.47760 0.13500
C 	C 	0.24340 0.72860 0.48450 0.11300
C 	C 	0.28520 0.70420 0.47130 -0.14500
H 	H 	0.32670 0.71160 0.48490 0.11900
C 	C 	0.27330 0.66880 0.43930 0.12000
H 	H 	0.30350 0.66060 0.42670 -0.00500
F 	F 	0.31120 0.22740 0.26360 -0.46300
F 	F 	0.01280 0.52150 0.05460 -0.43800
F 	F 	0.15000 0.64200 0.03540 -0.30500
F 	F 	0.22520 0.59120 0.09540 -0.35300
F 	F 	0.11860 0.61420 0.07810 -0.28900
C 	C 	0.16560 0.59300 0.06000 0.67900
F 	F 	0.43210 0.38180 0.26800 -0.32400
F 	F 	0.42600 0.30560 0.25510 -0.40800
F 	F 	0.49750 0.35170 0.31160 -0.35700
C 	C 	0.43640 0.33190 0.28760 0.80300
Zn	Zn	0.59464 0.97129 0.80025 1.23400
Zn	Zn	0.68130 0.03676 0.87345 1.22600
Zn	Zn	0.74045 0.97377 0.81780 1.22000
Zn	Zn	0.69328 0.91364 0.88278 1.20200
F 	F 	0.34050 0.10240 0.73006 -0.50300
F 	F 	0.29720 0.13430 0.77240 -0.43000
F 	F 	0.32710 0.18510 0.73340 -0.41300
F 	F 	0.42660 0.33700 0.75270 -0.31900
F 	F 	0.49620 0.29430 0.80730 -0.37400
F 	F 	0.43090 0.25300 0.74510 -0.32300
F 	F 	0.90160 0.25960 0.92110 -0.37800
F 	F 	0.83640 0.30540 0.86070 -0.32500
F 	F 	0.79970 0.25640 0.90220 -0.35900
F 	F 	0.83900 0.34100 0.74830 -0.49700
F 	F 	0.85060 0.26250 0.74090 -0.31300
F 	F 	0.80310 0.30710 0.79390 -0.27000
F 	F 	0.47370 0.99490 0.60290 -0.53500
F 	F 	0.50660 0.03070 0.56190 -0.34100
F 	F 	0.50410 0.93780 0.57800 -0.34700
F 	F 	0.62790 0.14270 0.53830 -0.39000
F 	F 	0.69360 0.11040 0.59510 -0.39700
F 	F 	0.58680 0.10430 0.57970 -0.36800
O 	O 	0.54230 0.03208 0.80241 -0.46900
O 	O 	0.60890 0.08115 0.84998 -0.43400
O 	O 	0.29060 0.41270 0.81750 -0.43400
O 	O 	0.23360 0.36551 0.84764 -0.47400
O 	O 	0.74770 0.08300 0.86828 -0.45500
O 	O 	0.79340 0.03630 0.82996 -0.46300
O 	O 	0.04340 0.41173 0.80310 -0.46900
O 	O 	0.10870 0.37650 0.85980 -0.45600
O 	O 	0.70450 0.98390 0.75821 -0.44600
O 	O 	0.60220 0.97343 0.74443 -0.47000
O 	O 	0.68290 0.96330 0.43012 -0.44700
O 	O 	0.66160 0.04770 0.42713 -0.45600
O 	O 	0.67414 0.97416 0.84222 -0.92900
N 	N 	0.71780 0.85320 0.92710 -0.24200
C 	C 	0.55700 0.07090 0.82480 0.47300
C 	C 	0.50690 0.11110 0.82100 -0.16400
C 	C 	0.45090 0.10870 0.79120 0.22100
H 	H 	0.44240 0.08070 0.77290 0.01500
C 	C 	0.40620 0.14750 0.78770 -0.24800
C 	C 	0.41720 0.18970 0.81400 0.19800
C 	C 	0.47510 0.19060 0.84560 -0.14400
H 	H 	0.48350 0.21800 0.86440 0.16300
C 	C 	0.51910 0.15210 0.84940 0.17200
H 	H 	0.55650 0.15340 0.87060 0.06400
C 	C 	0.34520 0.14310 0.75650 0.89600
C 	C 	0.37530 0.23390 0.81350 0.12100
C 	C 	0.38240 0.28020 0.79430 -0.09600
C 	C 	0.34650 0.32330 0.80060 0.13500
H 	H 	0.35070 0.35480 0.78810 0.09700
C 	C 	0.30730 0.32150 0.82300 -0.10100
C 	C 	0.29810 0.27500 0.84010 0.12600
H 	H 	0.26940 0.27210 0.85470 0.06200
C 	C 	0.33350 0.23200 0.83500 -0.10400
H 	H 	0.32800 0.20050 0.84700 0.16600
C 	C 	0.27170 0.36900 0.83030 0.43700
C 	C 	0.43750 0.29030 0.77880 0.70700
C 	C 	0.78300 0.07750 0.84610 0.45800
C 	C 	0.82030 0.12350 0.84080 -0.15000
C 	C 	0.81560 0.16980 0.85970 0.15200
H 	H 	0.79020 0.17160 0.87670 0.08800
C 	C 	0.84680 0.21330 0.85440 -0.09700
C 	C 	0.88700 0.21170 0.83160 0.12000
C 	C 	0.89070 0.16570 0.81040 -0.17100
C 	C 	0.85690 0.12290 0.81670 0.20500
H 	H 	0.86000 0.09190 0.80310 0.07200
C 	C 	0.84850 0.25880 0.88600 0.74200
C 	C 	0.92750 0.25730 0.82950 0.29100
C 	C 	0.91510 0.29600 0.80070 -0.41800
C 	C 	0.95560 0.33500 0.80090 0.36800
H 	H 	0.94440 0.36140 0.78130 -0.02400
C 	C 	0.01340 0.33610 0.83010 -0.25300
C 	C 	0.02760 0.29870 0.85990 0.25700
H 	H 	0.06540 0.30020 0.88070 0.00100
C 	C 	0.98570 0.25790 0.85970 -0.22500
H 	H 	0.99650 0.23150 0.87940 0.17800
C 	C 	0.05980 0.37800 0.83110 0.50800
C 	C 	0.85320 0.29870 0.77320 1.13600
C 	C 	0.65070 0.98100 0.73450 0.49000
C 	C 	0.64360 0.98610 0.68950 -0.20600
C 	C 	0.58560 0.98290 0.65990 0.32100
H 	H 	0.54980 0.97790 0.66770 -0.01400
C 	C 	0.58200 0.98720 0.61920 -0.38900
C 	C 	0.63390 0.99350 0.60590 0.26600
C 	C 	0.69130 0.00150 0.63580 -0.17600
H 	H 	0.72600 0.01020 0.62780 0.18400
C 	C 	0.69670 0.99660 0.67820 0.20700
H 	H 	0.73510 0.00030 0.69810 0.05400
C 	C 	0.52180 0.98870 0.58890 1.20100
C 	C 	0.63670 0.99590 0.56240 0.21000
C 	C 	0.63530 0.04420 0.54330 -0.16800
C 	C 	0.64210 0.04560 0.50400 0.19200
H 	H 	0.63790 0.07730 0.49020 0.06100
C 	C 	0.65490 0.00150 0.48500 -0.14100
C 	C 	0.65590 0.95460 0.50460 0.18600
H 	H 	0.66400 0.92400 0.49240 0.07000
C 	C 	0.64460 0.95280 0.54360 -0.21100
C 	C 	0.66680 0.00510 0.44470 0.45200
C 	C 	0.63650 0.09630 0.56260 0.71400
C 	C 	0.67460 0.82940 0.93920 0.12900
H 	H 	0.63340 0.83950 0.92750 0.04000
C 	C 	0.68770 0.78970 0.96890 -0.14100
H 	H 	0.65550 0.77600 0.97760 0.13400
C 	C 	0.74340 0.77140 0.98450 0.11200
C 	C 	0.78520 0.79580 0.97130 -0.14400
H 	H 	0.82670 0.78840 0.98490 0.11900
C 	C 	0.77330 0.83120 0.93930 0.12000
H 	H 	0.80350 0.83940 0.92670 -0.00500
F 	F 	0.81120 0.27260 0.76360 -0.46300
F 	F 	0.51280 0.97850 0.55460 -0.43800
F 	F 	0.65000 0.85800 0.53540 -0.30500
F 	F 	0.72520 0.90880 0.59540 -0.35200
F 	F 	0.61860 0.88580 0.57810 -0.28900
C 	C 	0.66560 0.90700 0.56000 0.67900
F 	F 	0.93210 0.11820 0.76800 -0.32400
F 	F 	0.92600 0.19440 0.75510 -0.40800
F 	F 	0.99750 0.14830 0.81160 -0.35800
C 	C 	0.93640 0.16810 0.78760 0.80300
Zn	Zn	0.09464 0.47129 0.80025 1.23400
Zn	Zn	0.18130 0.53676 0.87345 1.22600
Zn	Zn	0.24045 0.47377 0.81780 1.22000
Zn	Zn	0.19328 0.41364 0.88278 1.20200
F 	F 	0.84050 0.60240 0.73006 -0.50300
F 	F 	0.79720 0.63430 0.77240 -0.43000
F 	F 	0.82710 0.68510 0.73340 -0.41300
F 	F 	0.92660 0.83700 0.75270 -0.31900
F 	F 	0.99620 0.79430 0.80730 -0.37400
F 	F 	0.93090 0.75300 0.74510 -0.32300
F 	F 	0.40160 0.75960 0.92110 -0.37800
F 	F 	0.33640 0.80540 0.86070 -0.32500
F 	F 	0.29970 0.75640 0.90220 -0.35900
F 	F 	0.33900 0.84100 0.74830 -0.49700
F 	F 	0.35060 0.76250 0.74090 -0.31300
F 	F 	0.30310 0.80710 0.79390 -0.27000
F 	F 	0.97370 0.49490 0.60290 -0.53600
F 	F 	0.00660 0.53070 0.56190 -0.34100
F 	F 	0.00410 0.43780 0.57800 -0.34700
F 	F 	0.12790 0.64270 0.53830 -0.39000
F 	F 	0.19360 0.61040 0.59510 -0.39700
F 	F 	0.08680 0.60430 0.57970 -0.36800
O 	O 	0.04230 0.53208 0.80241 -0.46900
O 	O 	0.10890 0.58115 0.84998 -0.43500
O 	O 	0.79060 0.91270 0.81750 -0.43300
O 	O 	0.73360 0.86551 0.84764 -0.47400
O 	O 	0.24770 0.58300 0.86828 -0.45500
O 	O 	0.29340 0.53630 0.82996 -0.46400
O 	O 	0.54340 0.91173 0.80310 -0.46900
O 	O 	0.60870 0.87650 0.85980 -0.45600
O 	O 	0.20450 0.48390 0.75821 -0.44600
O 	O 	0.10220 0.47343 0.74443 -0.47000
O 	O 	0.18290 0.46330 0.43012 -0.44700
O 	O 	0.16160 0.54770 0.42713 -0.45600
O 	O 	0.17414 0.47416 0.84222 -0.92900
N 	N 	0.21780 0.35320 0.92710 -0.24300
C 	C 	0.05700 0.57090 0.82480 0.47300
C 	C 	0.00690 0.61110 0.82100 -0.16500
C 	C 	0.95090 0.60870 0.79120 0.22100
H 	H 	0.94240 0.58070 0.77290 0.01500
C 	C 	0.90620 0.64750 0.78770 -0.24800
C 	C 	0.91720 0.68970 0.81400 0.19800
C 	C 	0.97510 0.69060 0.84560 -0.14400
H 	H 	0.98350 0.71800 0.86440 0.16300
C 	C 	0.01910 0.65210 0.84940 0.17200
H 	H 	0.05650 0.65340 0.87060 0.06400
C 	C 	0.84520 0.64310 0.75650 0.89600
C 	C 	0.87530 0.73390 0.81350 0.12100
C 	C 	0.88240 0.78020 0.79430 -0.09600
C 	C 	0.84650 0.82330 0.80060 0.13500
H 	H 	0.85070 0.85480 0.78810 0.09700
C 	C 	0.80730 0.82150 0.82300 -0.10100
C 	C 	0.79810 0.77500 0.84010 0.12600
H 	H 	0.76940 0.77210 0.85470 0.06200
C 	C 	0.83350 0.73200 0.83500 -0.10400
H 	H 	0.82800 0.70050 0.84700 0.16600
C 	C 	0.77170 0.86900 0.83030 0.43700
C 	C 	0.93750 0.79030 0.77880 0.70700
C 	C 	0.28300 0.57750 0.84610 0.45800
C 	C 	0.32030 0.62350 0.84080 -0.15100
C 	C 	0.31560 0.66980 0.85970 0.15200
H 	H 	0.29020 0.67160 0.87670 0.08800
C 	C 	0.34680 0.71330 0.85440 -0.09700
C 	C 	0.38700 0.71170 0.83160 0.12000
C 	C 	0.39070 0.66570 0.81040 -0.17100
C 	C 	0.35690 0.62290 0.81670 0.20500
H 	H 	0.36000 0.59190 0.80310 0.07200
C 	C 	0.34850 0.75880 0.88600 0.74200
C 	C 	0.42750 0.75730 0.82950 0.29100
C 	C 	0.41510 0.79600 0.80070 -0.41800
C 	C 	0.45560 0.83500 0.80090 0.36800
H 	H 	0.44440 0.86140 0.78130 -0.02400
C 	C 	0.51340 0.83610 0.83010 -0.25300
C 	C 	0.52760 0.79870 0.85990 0.25700
H 	H 	0.56540 0.80020 0.88070 0.00100
C 	C 	0.48570 0.75790 0.85970 -0.22400
H 	H 	0.49650 0.73150 0.87940 0.17800
C 	C 	0.55980 0.87800 0.83110 0.50800
C 	C 	0.35320 0.79870 0.77320 1.13600
C 	C 	0.15070 0.48100 0.73450 0.49100
C 	C 	0.14360 0.48610 0.68950 -0.20700
C 	C 	0.08560 0.48290 0.65990 0.32100
H 	H 	0.04980 0.47790 0.66770 -0.01400
C 	C 	0.08200 0.48720 0.61920 -0.39000
C 	C 	0.13390 0.49350 0.60590 0.26700
C 	C 	0.19130 0.50150 0.63580 -0.17700
H 	H 	0.22600 0.51020 0.62780 0.18400
C 	C 	0.19670 0.49660 0.67820 0.20900
H 	H 	0.23510 0.50030 0.69810 0.05300
C 	C 	0.02180 0.48870 0.58890 1.20100
C 	C 	0.13670 0.49590 0.56240 0.20900
C 	C 	0.13530 0.54420 0.54330 -0.16800
C 	C 	0.14210 0.54560 0.50400 0.19200
H 	H 	0.13790 0.57730 0.49020 0.06100
C 	C 	0.15490 0.50150 0.48500 -0.14200
C 	C 	0.15590 0.45460 0.50460 0.18600
H 	H 	0.16400 0.42400 0.49240 0.07000
C 	C 	0.14460 0.45280 0.54360 -0.21000
C 	C 	0.16680 0.50510 0.44470 0.45200
C 	C 	0.13650 0.59630 0.56260 0.71400
C 	C 	0.17460 0.32940 0.93920 0.12900
H 	H 	0.13340 0.33950 0.92750 0.04000
C 	C 	0.18770 0.28970 0.96890 -0.14300
H 	H 	0.15550 0.27600 0.97760 0.13500
C 	C 	0.24340 0.27140 0.98450 0.11400
C 	C 	0.28520 0.29580 0.97130 -0.14600
H 	H 	0.32670 0.28840 0.98490 0.11900
C 	C 	0.27330 0.33120 0.93930 0.12000
H 	H 	0.30350 0.33940 0.92670 -0.00500
F 	F 	0.31120 0.77260 0.76360 -0.46300
F 	F 	0.01280 0.47850 0.55460 -0.43800
F 	F 	0.15000 0.35800 0.53540 -0.30500
F 	F 	0.22520 0.40880 0.59540 -0.35300
F 	F 	0.11860 0.38580 0.57810 -0.28900
C 	C 	0.16560 0.40700 0.56000 0.67900
F 	F 	0.43210 0.61820 0.76800 -0.32400
F 	F 	0.42600 0.69440 0.75510 -0.40800
F 	F 	0.49750 0.64830 0.81160 -0.35700
C 	C 	0.43640 0.66810 0.78760 0.80300
Zn	Zn	0.40536 0.97129 0.69975 1.23400
Zn	Zn	0.31870 0.03676 0.62655 1.22600
Zn	Zn	0.25955 0.97377 0.68220 1.22000
Zn	Zn	0.30672 0.91364 0.61722 1.20200
F 	F 	0.65950 0.10240 0.76994 -0.50300
F 	F 	0.70280 0.13430 0.72760 -0.43000
F 	F 	0.67290 0.18510 0.76660 -0.41300
F 	F 	0.57340 0.33700 0.74730 -0.31900
F 	F 	0.50380 0.29430 0.69270 -0.37400
F 	F 	0.56910 0.25300 0.75490 -0.32300
F 	F 	0.09840 0.25960 0.57890 -0.37800
F 	F 	0.16360 0.30540 0.63930 -0.32500
F 	F 	0.20030 0.25640 0.59780 -0.35900
F 	F 	0.16100 0.34100 0.75170 -0.49700
F 	F 	0.14940 0.26250 0.75910 -0.31300
F 	F 	0.19690 0.30710 0.70610 -0.27000
F 	F 	0.52630 0.99490 0.89710 -0.53500
F 	F 	0.49340 0.03070 0.93810 -0.34000
F 	F 	0.49590 0.93780 0.92200 -0.34700
F 	F 	0.37210 0.14270 0.96170 -0.39000
F 	F 	0.30640 0.11040 0.90490 -0.39700
F 	F 	0.41320 0.10430 0.92030 -0.36800
O 	O 	0.45770 0.03208 0.69759 -0.46900
O 	O 	0.39110 0.08115 0.65002 -0.43400
O 	O 	0.70940 0.41270 0.68250 -0.43400
O 	O 	0.76640 0.36551 0.65236 -0.47400
O 	O 	0.25230 0.08300 0.63172 -0.45500
O 	O 	0.20660 0.03630 0.67004 -0.46300
O 	O 	0.95660 0.41173 0.69690 -0.46900
O 	O 	0.89130 0.37650 0.64020 -0.45600
O 	O 	0.29550 0.98390 0.74179 -0.44600
O 	O 	0.39780 0.97343 0.75557 -0.47000
O 	O 	0.31710 0.96330 0.06988 -0.44600
O 	O 	0.33840 0.04770 0.07287 -0.45600
O 	O 	0.32586 0.97416 0.65778 -0.92900
N 	N 	0.28220 0.85320 0.57290 -0.24300
C 	C 	0.44300 0.07090 0.67520 0.47300
C 	C 	0.49310 0.11110 0.67900 -0.16400
C 	C 	0.54910 0.10870 0.70880 0.22100
H 	H 	0.55760 0.08070 0.72710 0.01500
C 	C 	0.59380 0.14750 0.71230 -0.24800
C 	C 	0.58280 0.18970 0.68600 0.19800
C 	C 	0.52490 0.19060 0.65440 -0.14400
H 	H 	0.51650 0.21800 0.63560 0.16300
C 	C 	0.48090 0.15210 0.65060 0.17200
H 	H 	0.44350 0.15340 0.62940 0.06400
C 	C 	0.65480 0.14310 0.74350 0.89600
C 	C 	0.62470 0.23390 0.68650 0.12100
C 	C 	0.61760 0.28020 0.70570 -0.09600
C 	C 	0.65350 0.32330 0.69940 0.13500
H 	H 	0.64930 0.35480 0.71190 0.09700
C 	C 	0.69270 0.32150 0.67700 -0.10100
C 	C 	0.70190 0.27500 0.65990 0.12600
H 	H 	0.73060 0.27210 0.64530 0.06200
C 	C 	0.66650 0.23200 0.66500 -0.10400
H 	H 	0.67200 0.20050 0.65300 0.16600
C 	C 	0.72830 0.36900 0.66970 0.43700
C 	C 	0.56250 0.29030 0.72120 0.70700
C 	C 	0.21700 0.07750 0.65390 0.45800
C 	C 	0.17970 0.12350 0.65920 -0.15000
C 	C 	0.18440 0.16980 0.64030 0.15200
H 	H 	0.20980 0.17160 0.62330 0.08800
C 	C 	0.15320 0.21330 0.64560 -0.09700
C 	C 	0.11300 0.21170 0.66840 0.12000
C 	C 	0.10930 0.16570 0.68960 -0.17100
C 	C 	0.14310 0.12290 0.68330 0.20500
H 	H 	0.14000 0.09190 0.69690 0.07200
C 	C 	0.15150 0.25880 0.61400 0.74200
C 	C 	0.07250 0.25730 0.67050 0.29100
C 	C 	0.08490 0.29600 0.69930 -0.41800
C 	C 	0.04440 0.33500 0.69910 0.36800
H 	H 	0.05560 0.36140 0.71870 -0.02400
C 	C 	0.98660 0.33610 0.66990 -0.25300
C 	C 	0.97240 0.29870 0.64010 0.25700
H 	H 	0.93460 0.30020 0.61930 0.00100
C 	C 	0.01430 0.25790 0.64030 -0.22500
H 	H 	0.00350 0.23150 0.62060 0.17800
C 	C 	0.94020 0.37800 0.66890 0.50800
C 	C 	0.14680 0.29870 0.72680 1.13600
C 	C 	0.34930 0.98100 0.76550 0.49000
C 	C 	0.35640 0.98610 0.81050 -0.20500
C 	C 	0.41440 0.98290 0.84010 0.32000
H 	H 	0.45020 0.97790 0.83230 -0.01400
C 	C 	0.41800 0.98720 0.88080 -0.38800
C 	C 	0.36610 0.99350 0.89410 0.26500
C 	C 	0.30870 0.00150 0.86420 -0.17400
H 	H 	0.27400 0.01020 0.87220 0.18300
C 	C 	0.30330 0.99660 0.82180 0.20600
H 	H 	0.26490 0.00030 0.80190 0.05500
C 	C 	0.47820 0.98870 0.91110 1.20100
C 	C 	0.36330 0.99590 0.93760 0.21000
C 	C 	0.36470 0.04420 0.95670 -0.16900
C 	C 	0.35790 0.04560 0.99600 0.19400
H 	H 	0.36210 0.07730 0.00980 0.06000
C 	C 	0.34510 0.00150 0.01500 -0.14200
C 	C 	0.34410 0.95460 0.99540 0.18500
H 	H 	0.33600 0.92400 0.00760 0.07100
C 	C 	0.35540 0.95280 0.95640 -0.21000
C 	C 	0.33320 0.00510 0.05530 0.45200
C 	C 	0.36350 0.09630 0.93740 0.71400
C 	C 	0.32540 0.82940 0.56080 0.12900
H 	H 	0.36660 0.83950 0.57250 0.04000
C 	C 	0.31230 0.78970 0.53110 -0.14200
H 	H 	0.34450 0.77600 0.52240 0.13500
C 	C 	0.25660 0.77140 0.51550 0.11300
C 	C 	0.21480 0.79580 0.52870 -0.14500
H 	H 	0.17330 0.78840 0.51510 0.11900
C 	C 	0.22670 0.83120 0.56070 0.12000
H 	H 	0.19650 0.83940 0.57330 -0.00500
F 	F 	0.18880 0.27260 0.73640 -0.46300
F 	F 	0.48720 0.97850 0.94540 -0.43800
F 	F 	0.35000 0.85800 0.96460 -0.30500
F 	F 	0.27480 0.90880 0.90460 -0.35300
F 	F 	0.38140 0.88580 0.92190 -0.28900
C 	C 	0.33440 0.90700 0.94000 0.67900
F 	F 	0.06790 0.11820 0.73200 -0.32400
F 	F 	0.07400 0.19440 0.74490 -0.40800
F 	F 	0.00250 0.14830 0.68840 -0.35800
C 	C 	0.06360 0.16810 0.71240 0.80300
Zn	Zn	0.90536 0.47129 0.69975 1.23400
Zn	Zn	0.81870 0.53676 0.62655 1.22600
Zn	Zn	0.75955 0.47377 0.68220 1.22000
Zn	Zn	0.80672 0.41364 0.61722 1.20200
F 	F 	0.15950 0.60240 0.76994 -0.50300
F 	F 	0.20280 0.63430 0.72760 -0.43000
F 	F 	0.17290 0.68510 0.76660 -0.41300
F 	F 	0.07340 0.83700 0.74730 -0.31900
F 	F 	0.00380 0.79430 0.69270 -0.37400
F 	F 	0.06910 0.75300 0.75490 -0.32300
F 	F 	0.59840 0.75960 0.57890 -0.37800
F 	F 	0.66360 0.80540 0.63930 -0.32500
F 	F 	0.70030 0.75640 0.59780 -0.35900
F 	F 	0.66100 0.84100 0.75170 -0.49700
F 	F 	0.64940 0.76250 0.75910 -0.31300
F 	F 	0.69690 0.80710 0.70610 -0.27000
F 	F 	0.02630 0.49490 0.89710 -0.53600
F 	F 	0.99340 0.53070 0.93810 -0.34100
F 	F 	0.99590 0.43780 0.92200 -0.34700
F 	F 	0.87210 0.64270 0.96170 -0.39000
F 	F 	0.80640 0.61040 0.90490 -0.39700
F 	F 	0.91320 0.60430 0.92030 -0.36800
O 	O 	0.95770 0.53208 0.69759 -0.46900
O 	O 	0.89110 0.58115 0.65002 -0.43500
O 	O 	0.20940 0.91270 0.68250 -0.43300
O 	O 	0.26640 0.86551 0.65236 -0.47400
O 	O 	0.75230 0.58300 0.63172 -0.45500
O 	O 	0.70660 0.53630 0.67004 -0.46400
O 	O 	0.45660 0.91173 0.69690 -0.46900
O 	O 	0.39130 0.87650 0.64020 -0.45600
O 	O 	0.79550 0.48390 0.74179 -0.44600
O 	O 	0.89780 0.47343 0.75557 -0.47000
O 	O 	0.81710 0.46330 0.06988 -0.44700
O 	O 	0.83840 0.54770 0.07287 -0.45600
O 	O 	0.82586 0.47416 0.65778 -0.92900
N 	N 	0.78220 0.35320 0.57290 -0.24300
C 	C 	0.94300 0.57090 0.67520 0.47300
C 	C 	0.99310 0.61110 0.67900 -0.16500
C 	C 	0.04910 0.60870 0.70880 0.22100
H 	H 	0.05760 0.58070 0.72710 0.01500
C 	C 	0.09380 0.64750 0.71230 -0.24800
C 	C 	0.08280 0.68970 0.68600 0.19800
C 	C 	0.02490 0.69060 0.65440 -0.14400
H 	H 	0.01650 0.71800 0.63560 0.16300
C 	C 	0.98090 0.65210 0.65060 0.17200
H 	H 	0.94350 0.65340 0.62940 0.06400
C 	C 	0.15480 0.64310 0.74350 0.89600
C 	C 	0.12470 0.73390 0.68650 0.12100
C 	C 	0.11760 0.78020 0.70570 -0.09600
C 	C 	0.15350 0.82330 0.69940 0.13500
H 	H 	0.14930 0.85480 0.71190 0.09700
C 	C 	0.19270 0.82150 0.67700 -0.10100
C 	C 	0.20190 0.77500 0.65990 0.12600
H 	H 	0.23060 0.77210 0.64530 0.06200
C 	C 	0.16650 0.73200 0.66500 -0.10400
H 	H 	0.17200 0.70050 0.65300 0.16600
C 	C 	0.22830 0.86900 0.66970 0.43700
C 	C 	0.06250 0.79030 0.72120 0.70700
C 	C 	0.71700 0.57750 0.65390 0.45800
C 	C 	0.67970 0.62350 0.65920 -0.15100
C 	C 	0.68440 0.66980 0.64030 0.15200
H 	H 	0.70980 0.67160 0.62330 0.08800
C 	C 	0.65320 0.71330 0.64560 -0.09700
C 	C 	0.61300 0.71170 0.66840 0.12000
C 	C 	0.60930 0.66570 0.68960 -0.17100
C 	C 	0.64310 0.62290 0.68330 0.20500
H 	H 	0.64000 0.59190 0.69690 0.07200
C 	C 	0.65150 0.75880 0.61400 0.74200
C 	C 	0.57250 0.75730 0.67050 0.29100
C 	C 	0.58490 0.79600 0.69930 -0.41800
C 	C 	0.54440 0.83500 0.69910 0.36800
H 	H 	0.55560 0.86140 0.71870 -0.02400
C 	C 	0.48660 0.83610 0.66990 -0.25300
C 	C 	0.47240 0.79870 0.64010 0.25700
H 	H 	0.43460 0.80020 0.61930 0.00100
C 	C 	0.51430 0.75790 0.64030 -0.22400
H 	H 	0.50350 0.73150 0.62060 0.17800
C 	C 	0.44020 0.87800 0.66890 0.50800
C 	C 	0.64680 0.79870 0.72680 1.13600
C 	C 	0.84930 0.48100 0.76550 0.49100
C 	C 	0.85640 0.48610 0.81050 -0.20700
C 	C 	0.91440 0.48290 0.84010 0.32100
H 	H 	0.95020 0.47790 0.83230 -0.01400
C 	C 	0.91800 0.48720 0.88080 -0.39000
C 	C 	0.86610 0.49350 0.89410 0.26700
C 	C 	0.80870 0.50150 0.86420 -0.17700
H 	H 	0.77400 0.51020 0.87220 0.18400
C 	C 	0.80330 0.49660 0.82180 0.20900
H 	H 	0.76490 0.50030 0.80190 0.05300
C 	C 	0.97820 0.48870 0.91110 1.20100
C 	C 	0.86330 0.49590 0.93760 0.20900
C 	C 	0.86470 0.54420 0.95670 -0.16800
C 	C 	0.85790 0.54560 0.99600 0.19200
H 	H 	0.86210 0.57730 0.00980 0.06100
C 	C 	0.84510 0.50150 0.01500 -0.14200
C 	C 	0.84410 0.45460 0.99540 0.18600
H 	H 	0.83600 0.42400 0.00760 0.07000
C 	C 	0.85540 0.45280 0.95640 -0.21100
C 	C 	0.83320 0.50510 0.05530 0.45200
C 	C 	0.86350 0.59630 0.93740 0.71400
C 	C 	0.82540 0.32940 0.56080 0.12900
H 	H 	0.86660 0.33950 0.57250 0.04000
C 	C 	0.81230 0.28970 0.53110 -0.14200
H 	H 	0.84450 0.27600 0.52240 0.13500
C 	C 	0.75660 0.27140 0.51550 0.11300
C 	C 	0.71480 0.29580 0.52870 -0.14500
H 	H 	0.67330 0.28840 0.51510 0.11900
C 	C 	0.72670 0.33120 0.56070 0.12000
H 	H 	0.69650 0.33940 0.57330 -0.00500
F 	F 	0.68880 0.77260 0.73640 -0.46300
F 	F 	0.98720 0.47850 0.94540 -0.43800
F 	F 	0.85000 0.35800 0.96460 -0.30500
F 	F 	0.77480 0.40880 0.90460 -0.35300
F 	F 	0.88140 0.38580 0.92190 -0.28900
C 	C 	0.83440 0.40700 0.94000 0.67900
F 	F 	0.56790 0.61820 0.73200 -0.32400
F 	F 	0.57400 0.69440 0.74490 -0.40800
F 	F 	0.50250 0.64830 0.68840 -0.35700
C 	C 	0.56360 0.66810 0.71240 0.80300
