data_crystal

_cell_length_a 21.71300
_cell_length_b 21.71300
_cell_length_c 14.99800
_cell_angle_alpha 90.00000
_cell_angle_beta  90.00000
_cell_angle_gamma 120.00000

_symmetry_space_group_name_	'P 1'
_symmetry_space_group_name_H-M	'P 1'

loop_
_symmetry_equiv_pos_as_xyz
  x,y,z

loop_
_atom_site_label
_atom_site_type_symbol
_atom_site_fract_x
_atom_site_fract_y
_atom_site_fract_z
_atom_site_charge
Cu	Cu	0.08926 0.37941 0.39215 0.83900
C 	C 	0.96550 0.34490 0.26050 0.09600
C 	C 	0.11340 0.25260 0.37900 0.07000
N 	N 	0.01040 0.35920 0.31020 -0.27300
N 	N 	0.09891 0.29460 0.40200 -0.26700
S 	S 	0.89918 0.32238 0.19030 -0.26000
S 	S 	0.13577 0.19435 0.34499 -0.21200
Cu	Cu	0.75593 0.71274 0.72548 0.84000
C 	C 	0.63217 0.67823 0.59383 0.09900
C 	C 	0.78007 0.58593 0.71233 0.07100
N 	N 	0.67707 0.69253 0.64353 -0.27200
N 	N 	0.76558 0.62793 0.73533 -0.26700
S 	S 	0.56585 0.65571 0.52363 -0.25800
S 	S 	0.80244 0.52768 0.67832 -0.21200
Cu	Cu	0.42259 0.04608 0.05882 0.83900
C 	C 	0.29883 0.01157 0.92717 0.10100
C 	C 	0.44673 0.91927 0.04567 0.07100
N 	N 	0.34373 0.02587 0.97687 -0.27200
N 	N 	0.43224 0.96127 0.06867 -0.26600
S 	S 	0.23251 0.98905 0.85697 -0.26200
S 	S 	0.46910 0.86102 0.01166 -0.21100
Cu	Cu	0.62059 0.70985 0.39215 0.84000
C 	C 	0.65510 0.62060 0.26050 0.09900
C 	C 	0.74740 0.86080 0.37900 0.07100
N 	N 	0.64080 0.65120 0.31020 -0.27200
N 	N 	0.70540 0.80431 0.40200 -0.26700
S 	S 	0.67762 0.57680 0.19030 -0.25900
S 	S 	0.80565 0.94142 0.34499 -0.21200
Cu	Cu	0.28726 0.04318 0.72548 0.84100
C 	C 	0.32177 0.95393 0.59383 0.09800
C 	C 	0.41407 0.19413 0.71233 0.07100
N 	N 	0.30747 0.98453 0.64353 -0.27300
N 	N 	0.37207 0.13764 0.73533 -0.26600
S 	S 	0.34429 0.91013 0.52363 -0.25800
S 	S 	0.47232 0.27475 0.67832 -0.21200
Cu	Cu	0.95392 0.37652 0.05882 0.83900
C 	C 	0.98843 0.28727 0.92717 0.10100
C 	C 	0.08073 0.52747 0.04567 0.07100
N 	N 	0.97413 0.31787 0.97687 -0.27200
N 	N 	0.03873 0.47098 0.06867 -0.26600
S 	S 	0.01095 0.24347 0.85697 -0.26100
S 	S 	0.13898 0.60809 0.01166 -0.21100
Cu	Cu	0.29015 0.91074 0.39215 0.84000
C 	C 	0.37940 0.03450 0.26050 0.09700
C 	C 	0.13920 0.88660 0.37900 0.07100
N 	N 	0.34880 0.98960 0.31020 -0.27100
N 	N 	0.19569 0.90109 0.40200 -0.26700
S 	S 	0.42320 0.10082 0.19030 -0.25900
S 	S 	0.05858 0.86423 0.34499 -0.21100
Cu	Cu	0.95682 0.24407 0.72548 0.84100
C 	C 	0.04607 0.36783 0.59383 0.09800
C 	C 	0.80587 0.21993 0.71233 0.07100
N 	N 	0.01547 0.32293 0.64353 -0.27300
N 	N 	0.86236 0.23442 0.73533 -0.26600
S 	S 	0.08987 0.43415 0.52363 -0.25800
S 	S 	0.72525 0.19756 0.67832 -0.21200
Cu	Cu	0.62348 0.57741 0.05882 0.84000
C 	C 	0.71273 0.70117 0.92717 0.09900
C 	C 	0.47253 0.55327 0.04567 0.07100
N 	N 	0.68213 0.65627 0.97687 -0.27200
N 	N 	0.52902 0.56776 0.06867 -0.26700
S 	S 	0.75653 0.76749 0.85697 -0.25800
S 	S 	0.39191 0.53090 0.01166 -0.21200
Cu	Cu	0.91074 0.62059 0.60785 0.84000
C 	C 	0.03450 0.65510 0.73950 0.09700
C 	C 	0.88660 0.74740 0.62100 0.07100
N 	N 	0.98960 0.64080 0.68980 -0.27200
N 	N 	0.90109 0.70540 0.59800 -0.26700
S 	S 	0.10082 0.67762 0.80970 -0.26000
S 	S 	0.86423 0.80565 0.65501 -0.21200
Cu	Cu	0.57741 0.95392 0.94118 0.83900
C 	C 	0.70117 0.98843 0.07283 0.10100
C 	C 	0.55327 0.08073 0.95433 0.07100
N 	N 	0.65627 0.97413 0.02313 -0.27200
N 	N 	0.56776 0.03873 0.93133 -0.26600
S 	S 	0.76749 0.01095 0.14303 -0.26200
S 	S 	0.53090 0.13898 0.98834 -0.21100
Cu	Cu	0.24407 0.28726 0.27452 0.84000
C 	C 	0.36783 0.32177 0.40617 0.09900
C 	C 	0.21993 0.41407 0.28767 0.07100
N 	N 	0.32293 0.30747 0.35647 -0.27200
N 	N 	0.23442 0.37207 0.26467 -0.26700
S 	S 	0.43415 0.34429 0.47637 -0.25800
S 	S 	0.19756 0.47232 0.32168 -0.21200
Cu	Cu	0.37941 0.29015 0.60785 0.84000
C 	C 	0.34490 0.37940 0.73950 0.09900
C 	C 	0.25260 0.13920 0.62100 0.07100
N 	N 	0.35920 0.34880 0.68980 -0.27200
N 	N 	0.29460 0.19569 0.59800 -0.26700
S 	S 	0.32238 0.42320 0.80970 -0.25900
S 	S 	0.19435 0.05858 0.65501 -0.21200
Cu	Cu	0.04608 0.62348 0.94118 0.83900
C 	C 	0.01157 0.71273 0.07283 0.10100
C 	C 	0.91927 0.47253 0.95433 0.07100
N 	N 	0.02587 0.68213 0.02313 -0.27200
N 	N 	0.96127 0.52902 0.93133 -0.26600
S 	S 	0.98905 0.75653 0.14303 -0.26100
S 	S 	0.86102 0.39191 0.98834 -0.21100
Cu	Cu	0.71274 0.95682 0.27452 0.84100
C 	C 	0.67823 0.04607 0.40617 0.09800
C 	C 	0.58593 0.80587 0.28767 0.07100
N 	N 	0.69253 0.01547 0.35647 -0.27300
N 	N 	0.62793 0.86236 0.26467 -0.26600
S 	S 	0.65571 0.08987 0.47637 -0.25800
S 	S 	0.52768 0.72525 0.32168 -0.21200
Cu	Cu	0.70985 0.08926 0.60785 0.84000
C 	C 	0.62060 0.96550 0.73950 0.09700
C 	C 	0.86080 0.11340 0.62100 0.07100
N 	N 	0.65120 0.01040 0.68980 -0.27100
N 	N 	0.80431 0.09891 0.59800 -0.26700
S 	S 	0.57680 0.89918 0.80970 -0.25900
S 	S 	0.94142 0.13577 0.65501 -0.21100
Cu	Cu	0.37652 0.42259 0.94118 0.84000
C 	C 	0.28727 0.29883 0.07283 0.09900
C 	C 	0.52747 0.44673 0.95433 0.07100
N 	N 	0.31787 0.34373 0.02313 -0.27200
N 	N 	0.47098 0.43224 0.93133 -0.26700
S 	S 	0.24347 0.23251 0.14303 -0.25800
S 	S 	0.60809 0.46910 0.98834 -0.21200
Cu	Cu	0.04318 0.75593 0.27452 0.84100
C 	C 	0.95393 0.63217 0.40617 0.09800
C 	C 	0.19413 0.78007 0.28767 0.07100
N 	N 	0.98453 0.67707 0.35647 -0.27300
N 	N 	0.13764 0.76558 0.26467 -0.26600
S 	S 	0.91013 0.56585 0.47637 -0.25800
S 	S 	0.27475 0.80244 0.32168 -0.21200
