data_crystal

_cell_length_a 9.77500
_cell_length_b 18.95800
_cell_length_c 11.46900
_cell_angle_alpha 90.00000
_cell_angle_beta  111.35400
_cell_angle_gamma 90.00000

_symmetry_space_group_name_	'P 1'
_symmetry_space_group_name_H-M	'P 1'

loop_
_symmetry_equiv_pos_as_xyz
  x,y,z

loop_
_atom_site_label
_atom_site_type_symbol
_atom_site_fract_x
_atom_site_fract_y
_atom_site_fract_z
_atom_site_charge
Zn	Zn	0.36499 0.99443 0.54654 1.24600
O 	O 	0.36148 0.07760 0.65014 -0.48700
O 	O 	0.13669 0.05859 0.65517 -0.46800
O 	O 	0.16235 0.39950 0.89576 -0.47100
O 	O 	0.40361 0.40315 0.92753 -0.42100
O 	O 	0.40641 0.00979 0.38635 -0.50100
O 	O 	0.15512 0.01280 0.41942 -0.55200
N 	N 	0.16225 0.06785 0.07934 -0.14700
C 	C 	0.24942 0.09492 0.67498 0.37200
C 	C 	0.25741 0.16627 0.73526 -0.09200
C 	C 	0.39257 0.19526 0.80759 -0.00900
H 	H 	0.48020 0.16940 0.82090 0.04400
C 	C 	0.40009 0.26172 0.86040 -0.02400
H 	H 	0.49270 0.28110 0.90990 0.06200
C 	C 	0.27176 0.30006 0.84077 -0.07600
C 	C 	0.13642 0.27034 0.77029 -0.02500
H 	H 	0.04870 0.29590 0.75800 0.03700
C 	C 	0.12848 0.20365 0.71786 -0.01900
H 	H 	0.03580 0.18360 0.67040 0.03200
C 	C 	0.28135 0.37369 0.89317 0.37400
C 	C 	0.28873 0.02960 0.28915 0.00900
C 	C 	0.15200 0.03157 0.30963 0.22200
C 	C 	0.02554 0.05347 0.21095 -0.28100
H 	H 	0.93390 0.05550 0.22210 0.13100
C 	C 	0.03413 0.07199 0.09859 0.06600
H 	H 	0.94840 0.08800 0.03290 -0.00100
C 	C 	0.28995 0.04528 0.17158 0.10900
C 	C 	0.16430 0.09194 0.95756 -0.20100
H 	H 	0.06530 0.10680 0.90380 0.09000
H 	H 	0.19670 0.05320 0.91720 0.09000
H 	H 	0.23210 0.13180 0.97080 0.10700
C 	C 	0.42422 0.03724 0.13877 -0.41300
H 	H 	0.39930 0.01050 0.06060 0.10800
H 	H 	0.50020 0.01190 0.20610 0.11500
H 	H 	0.46100 0.08400 0.12810 0.13100
Zn	Zn	0.13501 0.49443 0.95346 1.23600
O 	O 	0.13852 0.57760 0.84986 -0.46100
O 	O 	0.36331 0.55859 0.84483 -0.42600
O 	O 	0.33765 0.89950 0.60424 -0.46800
O 	O 	0.09639 0.90315 0.57247 -0.44200
O 	O 	0.09359 0.50979 0.11365 -0.50700
O 	O 	0.34488 0.51280 0.08058 -0.54700
N 	N 	0.33775 0.56785 0.42066 -0.12900
C 	C 	0.25058 0.59492 0.82502 0.36600
C 	C 	0.24259 0.66627 0.76474 -0.07500
C 	C 	0.10743 0.69526 0.69241 -0.02600
H 	H 	0.01980 0.66940 0.67910 0.03800
C 	C 	0.09991 0.76172 0.63960 -0.01600
H 	H 	0.00730 0.78110 0.59010 0.03600
C 	C 	0.22824 0.80006 0.65923 -0.08900
C 	C 	0.36358 0.77034 0.72971 -0.00900
H 	H 	0.45130 0.79590 0.74200 0.04600
C 	C 	0.37152 0.70365 0.78214 -0.02700
H 	H 	0.46420 0.68360 0.82960 0.06000
C 	C 	0.21865 0.87369 0.60683 0.37800
C 	C 	0.21127 0.52960 0.21085 -0.00800
C 	C 	0.34800 0.53157 0.19037 0.22600
C 	C 	0.47446 0.55347 0.28905 -0.23600
H 	H 	0.56610 0.55550 0.27790 0.11500
C 	C 	0.46587 0.57199 0.40141 0.10700
H 	H 	0.55160 0.58800 0.46710 0.00100
C 	C 	0.21005 0.54528 0.32842 0.16400
C 	C 	0.33570 0.59194 0.54244 -0.26700
H 	H 	0.43470 0.60680 0.59620 0.11700
H 	H 	0.30330 0.55320 0.58280 0.10900
H 	H 	0.26790 0.63180 0.52920 0.10900
C 	C 	0.07578 0.53724 0.36123 -0.58000
H 	H 	0.10070 0.51050 0.43940 0.18200
H 	H 	0.99980 0.51190 0.29390 0.20100
H 	H 	0.03900 0.58400 0.37190 0.18300
Zn	Zn	0.63501 0.00557 0.45346 1.21200
O 	O 	0.63852 0.92240 0.34986 -0.44300
O 	O 	0.86331 0.94141 0.34483 -0.40800
O 	O 	0.83765 0.60050 0.10424 -0.48200
O 	O 	0.59639 0.59685 0.07247 -0.45900
O 	O 	0.59359 0.99021 0.61365 -0.45200
O 	O 	0.84488 0.98720 0.58058 -0.48300
N 	N 	0.83775 0.93215 0.92066 -0.10000
C 	C 	0.75058 0.90508 0.32502 0.35300
C 	C 	0.74259 0.83373 0.26474 -0.06900
C 	C 	0.60743 0.80474 0.19241 -0.03400
H 	H 	0.51980 0.83060 0.17910 0.04500
C 	C 	0.59991 0.73828 0.13960 -0.01300
H 	H 	0.50730 0.71890 0.09010 0.03400
C 	C 	0.72824 0.69994 0.15923 -0.09400
C 	C 	0.86358 0.72966 0.22971 -0.00900
H 	H 	0.95130 0.70410 0.24200 0.04600
C 	C 	0.87152 0.79635 0.28214 -0.03400
H 	H 	0.96420 0.81640 0.32960 0.06100
C 	C 	0.71865 0.62631 0.10683 0.37500
C 	C 	0.71127 0.97040 0.71085 0.00600
C 	C 	0.84800 0.96843 0.69037 0.21900
C 	C 	0.97446 0.94653 0.78905 -0.17000
H 	H 	0.06610 0.94450 0.77790 0.08700
C 	C 	0.96587 0.92801 0.90141 0.16400
H 	H 	0.05160 0.91200 0.96710 -0.01800
C 	C 	0.71005 0.95472 0.82842 0.17900
C 	C 	0.83570 0.90806 0.04244 -0.34500
H 	H 	0.93470 0.89320 0.09620 0.14200
H 	H 	0.80330 0.94680 0.08280 0.13400
H 	H 	0.76790 0.86820 0.02920 0.11900
C 	C 	0.57578 0.96276 0.86123 -0.54400
H 	H 	0.60070 0.98950 0.93940 0.21500
H 	H 	0.49980 0.98810 0.79390 0.18700
H 	H 	0.53900 0.91600 0.87190 0.20000
Zn	Zn	0.86499 0.50557 0.04654 1.21800
O 	O 	0.86148 0.42240 0.15014 -0.47300
O 	O 	0.63669 0.44141 0.15517 -0.45200
O 	O 	0.66235 0.10050 0.39576 -0.48100
O 	O 	0.90361 0.09685 0.42753 -0.43700
O 	O 	0.90641 0.49021 0.88635 -0.44100
O 	O 	0.65512 0.48720 0.91942 -0.48900
N 	N 	0.66225 0.43215 0.57934 -0.11700
C 	C 	0.74942 0.40508 0.17498 0.36100
C 	C 	0.75741 0.33373 0.23526 -0.08800
C 	C 	0.89257 0.30474 0.30759 -0.01700
H 	H 	0.98020 0.33060 0.32090 0.04800
C 	C 	0.90009 0.23828 0.36040 -0.02300
H 	H 	0.99270 0.21890 0.40990 0.05900
C 	C 	0.77176 0.19994 0.34077 -0.08000
C 	C 	0.63642 0.22966 0.27029 -0.02600
H 	H 	0.54870 0.20410 0.25800 0.03900
C 	C 	0.62848 0.29635 0.21786 -0.02400
H 	H 	0.53580 0.31640 0.17040 0.03400
C 	C 	0.78135 0.12631 0.39317 0.37000
C 	C 	0.78873 0.47040 0.78915 0.02600
C 	C 	0.65200 0.46843 0.80963 0.21600
C 	C 	0.52554 0.44653 0.71095 -0.22000
H 	H 	0.43390 0.44450 0.72210 0.10900
C 	C 	0.53413 0.42801 0.59859 0.10300
H 	H 	0.44840 0.41200 0.53290 -0.00400
C 	C 	0.78995 0.45472 0.67158 0.11800
C 	C 	0.66430 0.40806 0.45756 -0.27400
H 	H 	0.56530 0.39320 0.40380 0.11500
H 	H 	0.69670 0.44680 0.41720 0.11500
H 	H 	0.73210 0.36820 0.47080 0.11700
C 	C 	0.92422 0.46276 0.63877 -0.35700
H 	H 	0.89930 0.48950 0.56060 0.13400
H 	H 	0.00020 0.48810 0.70610 0.09200
H 	H 	0.96100 0.41600 0.62810 0.14200
Zn	Zn	0.00000 0.00000 0.50000 1.22000
Zn	Zn	0.50000 0.50000 -0.00000 1.22800
