data_crystal

_cell_length_a 10.98400
_cell_length_b 16.10100
_cell_length_c 19.69200
_cell_angle_alpha 74.14900
_cell_angle_beta  74.03500
_cell_angle_gamma 72.05400

_symmetry_space_group_name_	'P 1'
_symmetry_space_group_name_H-M	'P 1'

loop_
_symmetry_equiv_pos_as_xyz
  x,y,z

loop_
_atom_site_label
_atom_site_type_symbol
_atom_site_fract_x
_atom_site_fract_y
_atom_site_fract_z
_atom_site_charge
Eu	Eu	0.39854 0.90186 0.23900 1.97200
Eu	Eu	0.94380 0.17628 0.22658 1.95000
O 	O 	0.33210 0.76520 0.32000 -0.37100
O 	O 	0.31950 0.87410 0.37150 -0.36700
O 	O 	0.13620 0.83830 0.64120 -0.37000
O 	O 	0.08830 0.71030 0.70110 -0.37800
O 	O 	0.98930 0.02370 0.24300 -0.54100
O 	O 	0.59610 0.93580 0.25060 -0.40200
O 	O 	0.59640 0.79460 0.27970 -0.38600
O 	O 	0.13340 0.14070 0.27780 -0.46200
O 	O 	0.32660 0.04260 0.27330 -0.49400
O 	O 	0.72790 0.13700 0.25170 -0.39000
O 	O 	0.71950 0.27910 0.22660 -0.40600
O 	O 	0.05430 0.28940 0.13940 -0.40300
O 	O 	0.14340 0.15060 0.12690 -0.41900
O 	O 	0.41700 0.13110 0.87210 -0.38400
O 	O 	0.57580 0.20110 0.83850 -0.40500
C 	C 	0.29760 0.79800 0.37480 0.29100
C 	C 	0.22770 0.75170 0.44460 -0.03700
C 	C 	0.20690 0.77930 0.50900 -0.01700
H 	H 	0.23610 0.82770 0.50930 0.07200
C 	C 	0.14300 0.73470 0.57230 -0.03500
C 	C 	0.09430 0.66510 0.57030 -0.04900
H 	H 	0.04930 0.63600 0.61280 0.06400
C 	C 	0.11130 0.63820 0.50630 0.02100
C 	C 	0.17990 0.68090 0.44360 -0.05000
H 	H 	0.19430 0.66260 0.40050 0.06400
C 	C 	0.12240 0.76220 0.64240 0.29400
C 	C 	0.05520 0.56690 0.50360 0.01900
C 	C 	0.00970 0.57050 0.44450 -0.05000
H 	H 	0.01310 0.61920 0.40620 0.05600
C 	C 	0.04040 0.49490 0.56020 -0.04900
H 	H 	0.06540 0.49110 0.60260 0.05600
C 	C 	0.05920 0.94650 0.24400 0.54100
C 	C 	0.99450 0.87410 0.24900 -0.16100
C 	C 	0.85950 0.89580 0.25470 0.05800
H 	H 	0.81050 0.95430 0.25460 0.04100
C 	C 	0.79860 0.82970 0.26050 -0.08700
C 	C 	0.87280 0.74250 0.26000 -0.00600
H 	H 	0.83050 0.69850 0.26550 0.05000
C 	C 	0.01160 0.71840 0.25140 -0.02900
C 	C 	0.06980 0.78590 0.24700 0.02200
H 	H 	0.15990 0.77250 0.24260 0.03600
C 	C 	0.65510 0.85480 0.26420 0.32800
C 	C 	0.08790 0.62480 0.24960 0.03200
C 	C 	0.03780 0.56350 0.23530 -0.05800
H 	H 	0.95530 0.58170 0.22430 0.05700
C 	C 	0.10930 0.47550 0.23740 -0.06000
H 	H 	0.07180 0.43590 0.22880 0.06400
C 	C 	0.23310 0.44440 0.25150 0.02800
C 	C 	0.28480 0.50700 0.26340 -0.05300
H 	H 	0.36880 0.48870 0.27250 0.05600
C 	C 	0.21680 0.59530 0.26200 -0.06500
H 	H 	0.25560 0.63510 0.26930 0.06600
C 	C 	0.30980 0.34930 0.25450 -0.02000
C 	C 	0.44440 0.32690 0.24610 -0.01800
H 	H 	0.48680 0.37160 0.23820 0.05100
C 	C 	0.51810 0.23850 0.24930 -0.08300
C 	C 	0.45650 0.17170 0.25880 0.04400
H 	H 	0.50510 0.11280 0.26170 0.04400
C 	C 	0.32310 0.19240 0.26400 -0.13700
C 	C 	0.25200 0.28110 0.26310 0.01100
H 	H 	0.16160 0.29480 0.26860 0.04000
C 	C 	0.66380 0.21700 0.24140 0.31600
C 	C 	0.25640 0.11920 0.27110 0.47800
C 	C 	0.14370 0.23160 0.10860 0.30100
C 	C 	0.25080 0.25890 0.04910 -0.06300
C 	C 	0.30700 0.21250 0.99440 -0.01000
H 	H 	0.27700 0.16470 0.99380 0.04700
C 	C 	0.40960 0.23710 0.93950 -0.05900
C 	C 	0.45250 0.30770 0.94140 -0.04000
H 	H 	0.51990 0.32420 0.90460 0.06000
C 	C 	0.39890 0.35510 0.99600 0.00300
C 	C 	0.29480 0.33040 0.04910 -0.03600
H 	H 	0.25430 0.36300 0.08520 0.05600
C 	C 	0.46910 0.18750 0.88040 0.28700
C 	C 	0.46140 0.44270 0.06270 -0.05500
H 	H 	0.43680 0.40390 0.10540 0.05400
C 	C 	0.45000 0.42960 0.99700 0.01900
C 	C 	0.49110 0.48680 0.93520 -0.05600
H 	H 	0.48730 0.47880 0.89090 0.05500
O 	O 	0.17910 0.92620 0.23910 -0.54500
Eu	Eu	0.60146 0.09814 0.76100 1.97300
Eu	Eu	0.05620 0.82372 0.77342 1.95100
O 	O 	0.66790 0.23480 0.68000 -0.37000
O 	O 	0.68050 0.12590 0.62850 -0.36600
O 	O 	0.86380 0.16170 0.35880 -0.37000
O 	O 	0.91170 0.28970 0.29890 -0.37800
O 	O 	0.01070 0.97630 0.75700 -0.54100
O 	O 	0.40390 0.06420 0.74940 -0.40200
O 	O 	0.40360 0.20540 0.72030 -0.38600
O 	O 	0.86660 0.85930 0.72220 -0.46200
O 	O 	0.67340 0.95740 0.72670 -0.49400
O 	O 	0.27210 0.86300 0.74830 -0.39000
O 	O 	0.28050 0.72090 0.77340 -0.40600
O 	O 	0.94570 0.71060 0.86060 -0.40300
O 	O 	0.85660 0.84940 0.87310 -0.41900
O 	O 	0.58300 0.86890 0.12790 -0.38400
O 	O 	0.42420 0.79890 0.16150 -0.40500
C 	C 	0.70240 0.20200 0.62520 0.29100
C 	C 	0.77230 0.24830 0.55540 -0.03700
C 	C 	0.79310 0.22070 0.49100 -0.01700
H 	H 	0.76390 0.17230 0.49070 0.07200
C 	C 	0.85700 0.26530 0.42770 -0.03500
C 	C 	0.90570 0.33490 0.42970 -0.04900
H 	H 	0.95070 0.36400 0.38720 0.06400
C 	C 	0.88870 0.36180 0.49370 0.02100
C 	C 	0.82010 0.31910 0.55640 -0.05000
H 	H 	0.80570 0.33740 0.59950 0.06400
C 	C 	0.87760 0.23780 0.35760 0.29400
C 	C 	0.94480 0.43310 0.49640 0.01900
C 	C 	0.99030 0.42950 0.55550 -0.05000
H 	H 	0.98690 0.38080 0.59380 0.05600
C 	C 	0.95960 0.50510 0.43980 -0.04900
H 	H 	0.93460 0.50890 0.39740 0.05600
C 	C 	0.94080 0.05350 0.75600 0.54100
C 	C 	0.00550 0.12590 0.75100 -0.16100
C 	C 	0.14050 0.10420 0.74530 0.05800
H 	H 	0.18950 0.04570 0.74540 0.04100
C 	C 	0.20140 0.17030 0.73950 -0.08700
C 	C 	0.12720 0.25750 0.74000 -0.00600
H 	H 	0.16950 0.30150 0.73450 0.05000
C 	C 	0.98840 0.28160 0.74860 -0.02900
C 	C 	0.93020 0.21410 0.75300 0.02200
H 	H 	0.84010 0.22750 0.75740 0.03600
C 	C 	0.34490 0.14520 0.73580 0.32800
C 	C 	0.91210 0.37520 0.75040 0.03200
C 	C 	0.96220 0.43650 0.76470 -0.05800
H 	H 	0.04470 0.41830 0.77570 0.05700
C 	C 	0.89070 0.52450 0.76260 -0.06000
H 	H 	0.92820 0.56410 0.77120 0.06400
C 	C 	0.76690 0.55560 0.74850 0.02800
C 	C 	0.71520 0.49300 0.73660 -0.05300
H 	H 	0.63120 0.51130 0.72750 0.05600
C 	C 	0.78320 0.40470 0.73800 -0.06500
H 	H 	0.74440 0.36490 0.73070 0.06600
C 	C 	0.69020 0.65070 0.74550 -0.02000
C 	C 	0.55560 0.67310 0.75390 -0.01800
H 	H 	0.51320 0.62840 0.76180 0.05100
C 	C 	0.48190 0.76150 0.75070 -0.08300
C 	C 	0.54350 0.82830 0.74120 0.04400
H 	H 	0.49490 0.88720 0.73830 0.04400
C 	C 	0.67690 0.80760 0.73600 -0.13700
C 	C 	0.74800 0.71890 0.73690 0.01100
H 	H 	0.83840 0.70520 0.73140 0.04000
C 	C 	0.33620 0.78300 0.75860 0.31600
C 	C 	0.74360 0.88080 0.72890 0.47800
C 	C 	0.85630 0.76840 0.89140 0.30100
C 	C 	0.74920 0.74110 0.95090 -0.06300
C 	C 	0.69300 0.78750 0.00560 -0.01000
H 	H 	0.72300 0.83530 0.00620 0.04700
C 	C 	0.59040 0.76290 0.06050 -0.05900
C 	C 	0.54750 0.69230 0.05860 -0.04000
H 	H 	0.48010 0.67580 0.09540 0.06000
C 	C 	0.60110 0.64490 0.00400 0.00300
C 	C 	0.70520 0.66960 0.95090 -0.03600
H 	H 	0.74570 0.63700 0.91480 0.05600
C 	C 	0.53090 0.81250 0.11960 0.28700
C 	C 	0.53860 0.55730 0.93730 -0.05500
H 	H 	0.56320 0.59610 0.89460 0.05400
C 	C 	0.55000 0.57040 0.00300 0.01900
C 	C 	0.50890 0.51320 0.06480 -0.05600
H 	H 	0.51270 0.52120 0.10910 0.05500
O 	O 	0.82090 0.07380 0.76090 -0.54500
