data_crystal

_cell_length_a 32.68000
_cell_length_b 34.95000
_cell_length_c 25.12000
_cell_angle_alpha 90.00000
_cell_angle_beta  90.00000
_cell_angle_gamma 90.00000

_symmetry_space_group_name_	'P 1'
_symmetry_space_group_name_H-M	'P 1'

loop_
_symmetry_equiv_pos_as_xyz
  x,y,z

loop_
_atom_site_label
_atom_site_type_symbol
_atom_site_fract_x
_atom_site_fract_y
_atom_site_fract_z
_atom_site_charge
Cd	Cd	0.49786 0.14656 0.88496 1.23000
Cd	Cd	0.56981 0.24939 0.66463 1.23500
Cd	Cd	0.53199 0.19610 0.77117 1.24600
C 	C 	0.64540 0.16280 0.78490 -0.04300
H 	H 	0.62690 0.17720 0.80460 0.05600
C 	C 	0.64680 0.16810 0.73550 -0.04400
C 	C 	0.67530 0.14310 0.69910 -0.01000
H 	H 	0.67740 0.14690 0.66130 0.05400
C 	C 	0.69830 0.11410 0.73080 -0.09400
H 	H 	0.71400 0.09640 0.71210 0.06900
C 	C 	0.69830 0.11180 0.77930 0.05200
C 	C 	0.67170 0.13470 0.81380 0.01800
C 	C 	0.67120 0.12890 0.86900 -0.06900
H 	H 	0.64990 0.14070 0.88960 0.06000
C 	C 	0.69750 0.10450 0.89180 -0.00400
H 	H 	0.69720 0.10150 0.92860 0.04700
C 	C 	0.72530 0.08350 0.86180 -0.05100
C 	C 	0.72660 0.08610 0.80780 -0.06500
H 	H 	0.74540 0.07160 0.78870 0.07100
C 	C 	0.61910 0.19360 0.69990 0.30700
C 	C 	0.75890 0.05620 0.88500 0.35200
O 	O 	0.62630 0.19870 0.65480 -0.35100
O 	O 	0.59400 0.21150 0.73290 -0.49200
O 	O 	0.75410 0.05670 0.93760 -0.42600
O 	O 	0.77780 0.03390 0.86100 -0.42500
C 	C 	0.65820 0.32510 0.98450 0.01200
H 	H 	0.67020 0.34150 0.95990 0.04400
C 	C 	0.66530 0.32920 0.03440 -0.11600
C 	C 	0.65150 0.30000 0.07240 0.04600
H 	H 	0.65800 0.30220 0.10950 0.03300
C 	C 	0.62680 0.27210 0.05220 -0.12400
H 	H 	0.61530 0.25460 0.07580 0.07600
C 	C 	0.61800 0.26820 0.99970 0.06400
C 	C 	0.63150 0.29490 0.96690 -0.00700
C 	C 	0.62490 0.29390 0.90880 -0.05900
H 	H 	0.63750 0.31150 0.88640 0.05800
C 	C 	0.59760 0.26400 0.88750 -0.01200
H 	H 	0.58870 0.26360 0.85110 0.04900
C 	C 	0.58380 0.23530 0.92670 -0.06000
C 	C 	0.59250 0.23820 0.97880 -0.05200
H 	H 	0.58170 0.22020 0.00210 0.06600
C 	C 	0.69410 0.36090 0.05370 0.43600
C 	C 	0.55780 0.20290 0.90400 0.37400
O 	O 	0.70380 0.35620 0.10000 -0.44800
O 	O 	0.70470 0.38400 0.02140 -0.48400
O 	O 	0.55730 0.20120 0.85420 -0.46700
O 	O 	0.53820 0.18460 0.93570 -0.41300
C 	C 	0.39360 0.04550 0.94580 -0.08000
H 	H 	0.39080 0.04000 0.90980 0.07100
C 	C 	0.41860 0.07180 0.97150 -0.01300
C 	C 	0.42060 0.07530 0.02610 -0.04200
H 	H 	0.43780 0.09410 0.03960 0.07000
C 	C 	0.39940 0.05370 0.06260 -0.05600
H 	H 	0.40150 0.05870 0.09890 0.05800
C 	C 	0.37550 0.02510 0.04470 0.00700
C 	C 	0.37350 0.02960 0.99040 0.06300
C 	C 	0.35020 0.00170 0.96830 -0.09300
H 	H 	0.34740 0.99720 0.93200 0.06800
C 	C 	0.33100 0.98050 0.00870 -0.00700
H 	H 	0.31370 0.96200 0.99450 0.04700
C 	C 	0.33060 0.97970 0.06460 -0.06800
C 	C 	0.35750 0.00570 0.08730 -0.02500
H 	H 	0.36180 0.00870 0.12490 0.05500
C 	C 	0.45060 0.09850 0.93930 0.31400
C 	C 	0.30320 0.94920 0.09030 0.32500
O 	O 	0.44760 0.09880 0.89110 -0.37500
O 	O 	0.46970 0.12080 0.96660 -0.35500
O 	O 	0.30680 0.94700 0.14080 -0.33500
O 	O 	0.27980 0.93100 0.06190 -0.50500
C 	C 	0.72810 0.42770 0.57020 -0.00100
H 	H 	0.74150 0.44370 0.59610 0.04300
C 	C 	0.73560 0.43350 0.51640 -0.11300
C 	C 	0.71400 0.41210 0.47880 0.04200
H 	H 	0.71560 0.41850 0.44290 0.03700
C 	C 	0.69000 0.38120 0.49490 -0.11100
H 	H 	0.68240 0.36140 0.47020 0.07700
C 	C 	0.68140 0.37670 0.54700 0.06900
C 	C 	0.70060 0.39930 0.58660 -0.00800
C 	C 	0.69310 0.39060 0.63930 -0.04700
H 	H 	0.70610 0.40450 0.66760 0.05000
C 	C 	0.66750 0.36060 0.65350 -0.02600
H 	H 	0.65770 0.35430 0.68840 0.06100
C 	C 	0.64860 0.33890 0.61390 -0.02600
C 	C 	0.65580 0.34630 0.56100 -0.08000
H 	H 	0.64140 0.33030 0.53610 0.07800
C 	C 	0.76270 0.46500 0.49650 0.41200
C 	C 	0.61810 0.30550 0.62340 0.29500
O 	O 	0.77040 0.49310 0.52390 -0.47200
O 	O 	0.77250 0.46190 0.44890 -0.43400
O 	O 	0.59690 0.28590 0.59510 -0.36000
O 	O 	0.62010 0.29760 0.67370 -0.34600
Cd	Cd	0.49786 0.64656 0.38496 1.23000
Cd	Cd	0.56981 0.74939 0.16463 1.23500
Cd	Cd	0.53199 0.69610 0.27117 1.24600
C 	C 	0.64540 0.66280 0.28490 -0.04300
H 	H 	0.62690 0.67720 0.30460 0.05600
C 	C 	0.64680 0.66810 0.23550 -0.04400
C 	C 	0.67530 0.64310 0.19910 -0.01000
H 	H 	0.67740 0.64690 0.16130 0.05400
C 	C 	0.69830 0.61410 0.23080 -0.09400
H 	H 	0.71400 0.59640 0.21210 0.06800
C 	C 	0.69830 0.61180 0.27930 0.05200
C 	C 	0.67170 0.63470 0.31380 0.01800
C 	C 	0.67120 0.62890 0.36900 -0.06900
H 	H 	0.64990 0.64070 0.38960 0.06000
C 	C 	0.69750 0.60450 0.39180 -0.00400
H 	H 	0.69720 0.60150 0.42860 0.04700
C 	C 	0.72530 0.58350 0.36180 -0.05100
C 	C 	0.72660 0.58610 0.30780 -0.06500
H 	H 	0.74540 0.57160 0.28870 0.07100
C 	C 	0.61910 0.69360 0.19990 0.30700
C 	C 	0.75890 0.55620 0.38500 0.35300
O 	O 	0.62630 0.69870 0.15480 -0.35200
O 	O 	0.59400 0.71150 0.23290 -0.49300
O 	O 	0.75410 0.55670 0.43760 -0.42800
O 	O 	0.77780 0.53390 0.36100 -0.42600
C 	C 	0.65820 0.82510 0.48450 -0.00500
H 	H 	0.67020 0.84150 0.45990 0.04800
C 	C 	0.66530 0.82920 0.53440 -0.10100
C 	C 	0.65150 0.80000 0.57240 0.03500
H 	H 	0.65800 0.80220 0.60950 0.03700
C 	C 	0.62680 0.77210 0.55220 -0.10800
H 	H 	0.61530 0.75460 0.57580 0.07200
C 	C 	0.61800 0.76820 0.49970 0.05300
C 	C 	0.63150 0.79490 0.46690 0.00200
C 	C 	0.62490 0.79390 0.40880 -0.06400
H 	H 	0.63750 0.81150 0.38640 0.05900
C 	C 	0.59760 0.76400 0.38750 -0.01000
H 	H 	0.58870 0.76360 0.35110 0.04800
C 	C 	0.58380 0.73530 0.42670 -0.06000
C 	C 	0.59250 0.73820 0.47880 -0.05500
H 	H 	0.58170 0.72020 0.50210 0.07100
C 	C 	0.69410 0.86090 0.55370 0.43200
C 	C 	0.55780 0.70290 0.40400 0.37400
O 	O 	0.70380 0.85620 0.60000 -0.44700
O 	O 	0.70470 0.88400 0.52140 -0.48100
O 	O 	0.55730 0.70120 0.35420 -0.46700
O 	O 	0.53820 0.68460 0.43570 -0.41500
C 	C 	0.39360 0.54550 0.44580 -0.07300
H 	H 	0.39080 0.54000 0.40980 0.06900
C 	C 	0.41860 0.57180 0.47150 -0.02400
C 	C 	0.42060 0.57530 0.52610 -0.02800
H 	H 	0.43780 0.59410 0.53960 0.06600
C 	C 	0.39940 0.55370 0.56260 -0.06500
H 	H 	0.40150 0.55870 0.59890 0.06100
C 	C 	0.37550 0.52510 0.54470 0.01500
C 	C 	0.37350 0.52960 0.49040 0.05700
C 	C 	0.35020 0.50170 0.46830 -0.10300
H 	H 	0.34740 0.49720 0.43200 0.07100
C 	C 	0.33100 0.48050 0.50870 0.01100
H 	H 	0.31370 0.46200 0.49450 0.03800
C 	C 	0.33060 0.47970 0.56460 -0.07200
C 	C 	0.35750 0.50570 0.58730 -0.02600
H 	H 	0.36180 0.50870 0.62490 0.05600
C 	C 	0.45060 0.59850 0.43930 0.31700
C 	C 	0.30320 0.44920 0.59030 0.32700
O 	O 	0.44760 0.59880 0.39110 -0.37500
O 	O 	0.46970 0.62080 0.46660 -0.35800
O 	O 	0.30680 0.44700 0.64080 -0.33500
O 	O 	0.27980 0.43100 0.56190 -0.50400
C 	C 	0.72810 0.92770 0.07020 0.00400
H 	H 	0.74150 0.94370 0.09610 0.04100
C 	C 	0.73560 0.93350 0.01640 -0.12600
C 	C 	0.71400 0.91210 0.97880 0.05200
H 	H 	0.71560 0.91850 0.94290 0.03400
C 	C 	0.69000 0.88120 0.99490 -0.10900
H 	H 	0.68240 0.86140 0.97020 0.07800
C 	C 	0.68140 0.87670 0.04700 0.06500
C 	C 	0.70060 0.89930 0.08660 -0.01000
C 	C 	0.69310 0.89060 0.13930 -0.04600
H 	H 	0.70610 0.90450 0.16760 0.05000
C 	C 	0.66750 0.86060 0.15350 -0.02600
H 	H 	0.65770 0.85430 0.18840 0.06100
C 	C 	0.64860 0.83890 0.11390 -0.02700
C 	C 	0.65580 0.84630 0.06100 -0.07800
H 	H 	0.64140 0.83030 0.03610 0.07600
C 	C 	0.76270 0.96500 0.99650 0.42600
C 	C 	0.61810 0.80550 0.12340 0.29600
O 	O 	0.77040 0.99310 0.02390 -0.47900
O 	O 	0.77250 0.96190 0.94890 -0.43700
O 	O 	0.59690 0.78590 0.09510 -0.36100
O 	O 	0.62010 0.79760 0.17370 -0.34700
Cd	Cd	0.99786 0.14656 0.38496 1.23000
Cd	Cd	0.06981 0.24939 0.16463 1.23500
Cd	Cd	0.03199 0.19610 0.27117 1.24600
C 	C 	0.14540 0.16280 0.28490 -0.04300
H 	H 	0.12690 0.17720 0.30460 0.05600
C 	C 	0.14680 0.16810 0.23550 -0.04400
C 	C 	0.17530 0.14310 0.19910 -0.01000
H 	H 	0.17740 0.14690 0.16130 0.05400
C 	C 	0.19830 0.11410 0.23080 -0.09400
H 	H 	0.21400 0.09640 0.21210 0.06800
C 	C 	0.19830 0.11180 0.27930 0.05200
C 	C 	0.17170 0.13470 0.31380 0.01800
C 	C 	0.17120 0.12890 0.36900 -0.06900
H 	H 	0.14990 0.14070 0.38960 0.06000
C 	C 	0.19750 0.10450 0.39180 -0.00400
H 	H 	0.19720 0.10150 0.42860 0.04700
C 	C 	0.22530 0.08350 0.36180 -0.05100
C 	C 	0.22660 0.08610 0.30780 -0.06500
H 	H 	0.24540 0.07160 0.28870 0.07100
C 	C 	0.11910 0.19360 0.19990 0.30700
C 	C 	0.25890 0.05620 0.38500 0.35300
O 	O 	0.12630 0.19870 0.15480 -0.35200
O 	O 	0.09400 0.21150 0.23290 -0.49300
O 	O 	0.25410 0.05670 0.43760 -0.42800
O 	O 	0.27780 0.03390 0.36100 -0.42600
C 	C 	0.15820 0.32510 0.48450 -0.00500
H 	H 	0.17020 0.34150 0.45990 0.04800
C 	C 	0.16530 0.32920 0.53440 -0.10100
C 	C 	0.15150 0.30000 0.57240 0.03500
H 	H 	0.15800 0.30220 0.60950 0.03700
C 	C 	0.12680 0.27210 0.55220 -0.10800
H 	H 	0.11530 0.25460 0.57580 0.07200
C 	C 	0.11800 0.26820 0.49970 0.05300
C 	C 	0.13150 0.29490 0.46690 0.00200
C 	C 	0.12490 0.29390 0.40880 -0.06400
H 	H 	0.13750 0.31150 0.38640 0.05900
C 	C 	0.09760 0.26400 0.38750 -0.01000
H 	H 	0.08870 0.26360 0.35110 0.04800
C 	C 	0.08380 0.23530 0.42670 -0.06000
C 	C 	0.09250 0.23820 0.47880 -0.05500
H 	H 	0.08170 0.22020 0.50210 0.07100
C 	C 	0.19410 0.36090 0.55370 0.43200
C 	C 	0.05780 0.20290 0.40400 0.37400
O 	O 	0.20380 0.35620 0.60000 -0.44700
O 	O 	0.20470 0.38400 0.52140 -0.48100
O 	O 	0.05730 0.20120 0.35420 -0.46700
O 	O 	0.03820 0.18460 0.43570 -0.41500
C 	C 	0.89360 0.04550 0.44580 -0.07300
H 	H 	0.89080 0.04000 0.40980 0.06900
C 	C 	0.91860 0.07180 0.47150 -0.02300
C 	C 	0.92060 0.07530 0.52610 -0.02800
H 	H 	0.93780 0.09410 0.53960 0.06600
C 	C 	0.89940 0.05370 0.56260 -0.06500
H 	H 	0.90150 0.05870 0.59890 0.06100
C 	C 	0.87550 0.02510 0.54470 0.01500
C 	C 	0.87350 0.02960 0.49040 0.05700
C 	C 	0.85020 0.00170 0.46830 -0.10300
H 	H 	0.84740 0.99720 0.43200 0.07100
C 	C 	0.83100 0.98050 0.50870 0.01100
H 	H 	0.81370 0.96200 0.49450 0.03800
C 	C 	0.83060 0.97970 0.56460 -0.07200
C 	C 	0.85750 0.00570 0.58730 -0.02600
H 	H 	0.86180 0.00870 0.62490 0.05600
C 	C 	0.95060 0.09850 0.43930 0.31700
C 	C 	0.80320 0.94920 0.59030 0.32700
O 	O 	0.94760 0.09880 0.39110 -0.37500
O 	O 	0.96970 0.12080 0.46660 -0.35700
O 	O 	0.80680 0.94700 0.64080 -0.33500
O 	O 	0.77980 0.93100 0.56190 -0.50400
C 	C 	0.22810 0.42770 0.07020 0.00400
H 	H 	0.24150 0.44370 0.09610 0.04100
C 	C 	0.23560 0.43350 0.01640 -0.12600
C 	C 	0.21400 0.41210 0.97880 0.05200
H 	H 	0.21560 0.41850 0.94290 0.03400
C 	C 	0.19000 0.38120 0.99490 -0.10900
H 	H 	0.18240 0.36140 0.97020 0.07800
C 	C 	0.18140 0.37670 0.04700 0.06500
C 	C 	0.20060 0.39930 0.08660 -0.01000
C 	C 	0.19310 0.39060 0.13930 -0.04600
H 	H 	0.20610 0.40450 0.16760 0.05000
C 	C 	0.16750 0.36060 0.15350 -0.02600
H 	H 	0.15770 0.35430 0.18840 0.06100
C 	C 	0.14860 0.33890 0.11390 -0.02700
C 	C 	0.15580 0.34630 0.06100 -0.07800
H 	H 	0.14140 0.33030 0.03610 0.07600
C 	C 	0.26270 0.46500 0.99650 0.42600
C 	C 	0.11810 0.30550 0.12340 0.29500
O 	O 	0.27040 0.49310 0.02390 -0.48000
O 	O 	0.27250 0.46190 0.94890 -0.43700
O 	O 	0.09690 0.28590 0.09510 -0.36100
O 	O 	0.12010 0.29760 0.17370 -0.34700
Cd	Cd	0.99786 0.64656 0.88496 1.23000
Cd	Cd	0.06981 0.74939 0.66463 1.23500
Cd	Cd	0.03199 0.69610 0.77117 1.24600
C 	C 	0.14540 0.66280 0.78490 -0.04300
H 	H 	0.12690 0.67720 0.80460 0.05600
C 	C 	0.14680 0.66810 0.73550 -0.04400
C 	C 	0.17530 0.64310 0.69910 -0.01000
H 	H 	0.17740 0.64690 0.66130 0.05400
C 	C 	0.19830 0.61410 0.73080 -0.09400
H 	H 	0.21400 0.59640 0.71210 0.06900
C 	C 	0.19830 0.61180 0.77930 0.05200
C 	C 	0.17170 0.63470 0.81380 0.01800
C 	C 	0.17120 0.62890 0.86900 -0.06900
H 	H 	0.14990 0.64070 0.88960 0.06000
C 	C 	0.19750 0.60450 0.89180 -0.00400
H 	H 	0.19720 0.60150 0.92860 0.04700
C 	C 	0.22530 0.58350 0.86180 -0.05100
C 	C 	0.22660 0.58610 0.80780 -0.06500
H 	H 	0.24540 0.57160 0.78870 0.07100
C 	C 	0.11910 0.69360 0.69990 0.30700
C 	C 	0.25890 0.55620 0.88500 0.35200
O 	O 	0.12630 0.69870 0.65480 -0.35100
O 	O 	0.09400 0.71150 0.73290 -0.49200
O 	O 	0.25410 0.55670 0.93760 -0.42600
O 	O 	0.27780 0.53390 0.86100 -0.42500
C 	C 	0.15820 0.82510 0.98450 0.01200
H 	H 	0.17020 0.84150 0.95990 0.04400
C 	C 	0.16530 0.82920 0.03440 -0.11600
C 	C 	0.15150 0.80000 0.07240 0.04600
H 	H 	0.15800 0.80220 0.10950 0.03300
C 	C 	0.12680 0.77210 0.05220 -0.12400
H 	H 	0.11530 0.75460 0.07580 0.07600
C 	C 	0.11800 0.76820 0.99970 0.06400
C 	C 	0.13150 0.79490 0.96690 -0.00700
C 	C 	0.12490 0.79390 0.90880 -0.05900
H 	H 	0.13750 0.81150 0.88640 0.05800
C 	C 	0.09760 0.76400 0.88750 -0.01200
H 	H 	0.08870 0.76360 0.85110 0.04900
C 	C 	0.08380 0.73530 0.92670 -0.06000
C 	C 	0.09250 0.73820 0.97880 -0.05200
H 	H 	0.08170 0.72020 0.00210 0.06600
C 	C 	0.19410 0.86090 0.05370 0.43600
C 	C 	0.05780 0.70290 0.90400 0.37400
O 	O 	0.20380 0.85620 0.10000 -0.44800
O 	O 	0.20470 0.88400 0.02140 -0.48400
O 	O 	0.05730 0.70120 0.85420 -0.46700
O 	O 	0.03820 0.68460 0.93570 -0.41300
C 	C 	0.89360 0.54550 0.94580 -0.08000
H 	H 	0.89080 0.54000 0.90980 0.07100
C 	C 	0.91860 0.57180 0.97150 -0.01300
C 	C 	0.92060 0.57530 0.02610 -0.04200
H 	H 	0.93780 0.59410 0.03960 0.07000
C 	C 	0.89940 0.55370 0.06260 -0.05600
H 	H 	0.90150 0.55870 0.09890 0.05800
C 	C 	0.87550 0.52510 0.04470 0.00700
C 	C 	0.87350 0.52960 0.99040 0.06300
C 	C 	0.85020 0.50170 0.96830 -0.09400
H 	H 	0.84740 0.49720 0.93200 0.06800
C 	C 	0.83100 0.48050 0.00870 -0.00600
H 	H 	0.81370 0.46200 0.99450 0.04700
C 	C 	0.83060 0.47970 0.06460 -0.06800
C 	C 	0.85750 0.50570 0.08730 -0.02500
H 	H 	0.86180 0.50870 0.12490 0.05500
C 	C 	0.95060 0.59850 0.93930 0.31400
C 	C 	0.80320 0.44920 0.09030 0.32500
O 	O 	0.94760 0.59880 0.89110 -0.37500
O 	O 	0.96970 0.62080 0.96660 -0.35500
O 	O 	0.80680 0.44700 0.14080 -0.33500
O 	O 	0.77980 0.43100 0.06190 -0.50500
C 	C 	0.22810 0.92770 0.57020 -0.00100
H 	H 	0.24150 0.94370 0.59610 0.04300
C 	C 	0.23560 0.93350 0.51640 -0.11300
C 	C 	0.21400 0.91210 0.47880 0.04200
H 	H 	0.21560 0.91850 0.44290 0.03700
C 	C 	0.19000 0.88120 0.49490 -0.11100
H 	H 	0.18240 0.86140 0.47020 0.07700
C 	C 	0.18140 0.87670 0.54700 0.06900
C 	C 	0.20060 0.89930 0.58660 -0.00800
C 	C 	0.19310 0.89060 0.63930 -0.04700
H 	H 	0.20610 0.90450 0.66760 0.05000
C 	C 	0.16750 0.86060 0.65350 -0.02600
H 	H 	0.15770 0.85430 0.68840 0.06100
C 	C 	0.14860 0.83890 0.61390 -0.02600
C 	C 	0.15580 0.84630 0.56100 -0.08000
H 	H 	0.14140 0.83030 0.53610 0.07800
C 	C 	0.26270 0.96500 0.49650 0.41200
C 	C 	0.11810 0.80550 0.62340 0.29500
O 	O 	0.27040 0.99310 0.52390 -0.47200
O 	O 	0.27250 0.96190 0.44890 -0.43400
O 	O 	0.09690 0.78590 0.59510 -0.36000
O 	O 	0.12010 0.79760 0.67370 -0.34600
Cd	Cd	0.50214 0.85344 0.88496 1.23000
Cd	Cd	0.43019 0.75061 0.66463 1.23500
Cd	Cd	0.46801 0.80390 0.77117 1.24600
C 	C 	0.35460 0.83720 0.78490 -0.04300
H 	H 	0.37310 0.82280 0.80460 0.05600
C 	C 	0.35320 0.83190 0.73550 -0.04400
C 	C 	0.32470 0.85690 0.69910 -0.01000
H 	H 	0.32260 0.85310 0.66130 0.05400
C 	C 	0.30170 0.88590 0.73080 -0.09400
H 	H 	0.28600 0.90360 0.71210 0.06900
C 	C 	0.30170 0.88820 0.77930 0.05200
C 	C 	0.32830 0.86530 0.81380 0.01800
C 	C 	0.32880 0.87110 0.86900 -0.06900
H 	H 	0.35010 0.85930 0.88960 0.06000
C 	C 	0.30250 0.89550 0.89180 -0.00400
H 	H 	0.30280 0.89850 0.92860 0.04700
C 	C 	0.27470 0.91650 0.86180 -0.05100
C 	C 	0.27340 0.91390 0.80780 -0.06500
H 	H 	0.25460 0.92840 0.78870 0.07100
C 	C 	0.38090 0.80640 0.69990 0.30700
C 	C 	0.24110 0.94380 0.88500 0.35200
O 	O 	0.37370 0.80130 0.65480 -0.35100
O 	O 	0.40600 0.78850 0.73290 -0.49200
O 	O 	0.24590 0.94330 0.93760 -0.42600
O 	O 	0.22220 0.96610 0.86100 -0.42500
C 	C 	0.34180 0.67490 0.98450 0.01200
H 	H 	0.32980 0.65850 0.95990 0.04400
C 	C 	0.33470 0.67080 0.03440 -0.11600
C 	C 	0.34850 0.70000 0.07240 0.04600
H 	H 	0.34200 0.69780 0.10950 0.03300
C 	C 	0.37320 0.72790 0.05220 -0.12400
H 	H 	0.38470 0.74540 0.07580 0.07600
C 	C 	0.38200 0.73180 0.99970 0.06400
C 	C 	0.36850 0.70510 0.96690 -0.00700
C 	C 	0.37510 0.70610 0.90880 -0.05900
H 	H 	0.36250 0.68850 0.88640 0.05800
C 	C 	0.40240 0.73600 0.88750 -0.01200
H 	H 	0.41130 0.73640 0.85110 0.04900
C 	C 	0.41620 0.76470 0.92670 -0.06000
C 	C 	0.40750 0.76180 0.97880 -0.05200
H 	H 	0.41830 0.77980 0.00210 0.06600
C 	C 	0.30590 0.63910 0.05370 0.43600
C 	C 	0.44220 0.79710 0.90400 0.37400
O 	O 	0.29620 0.64380 0.10000 -0.44800
O 	O 	0.29530 0.61600 0.02140 -0.48400
O 	O 	0.44270 0.79880 0.85420 -0.46700
O 	O 	0.46180 0.81540 0.93570 -0.41300
C 	C 	0.60640 0.95450 0.94580 -0.08000
H 	H 	0.60920 0.96000 0.90980 0.07100
C 	C 	0.58140 0.92820 0.97150 -0.01300
C 	C 	0.57940 0.92470 0.02610 -0.04200
H 	H 	0.56220 0.90590 0.03960 0.07000
C 	C 	0.60060 0.94630 0.06260 -0.05600
H 	H 	0.59850 0.94130 0.09890 0.05800
C 	C 	0.62450 0.97490 0.04470 0.00700
C 	C 	0.62650 0.97040 0.99040 0.06300
C 	C 	0.64980 0.99830 0.96830 -0.09300
H 	H 	0.65260 0.00280 0.93200 0.06800
C 	C 	0.66900 0.01950 0.00870 -0.00700
H 	H 	0.68630 0.03800 0.99450 0.04700
C 	C 	0.66940 0.02030 0.06460 -0.06800
C 	C 	0.64250 0.99430 0.08730 -0.02500
H 	H 	0.63820 0.99130 0.12490 0.05500
C 	C 	0.54940 0.90150 0.93930 0.31400
C 	C 	0.69680 0.05080 0.09030 0.32500
O 	O 	0.55240 0.90120 0.89110 -0.37500
O 	O 	0.53030 0.87920 0.96660 -0.35500
O 	O 	0.69320 0.05300 0.14080 -0.33500
O 	O 	0.72020 0.06900 0.06190 -0.50500
C 	C 	0.27190 0.57230 0.57020 -0.00100
H 	H 	0.25850 0.55630 0.59610 0.04300
C 	C 	0.26440 0.56650 0.51640 -0.11300
C 	C 	0.28600 0.58790 0.47880 0.04200
H 	H 	0.28440 0.58150 0.44290 0.03700
C 	C 	0.31000 0.61880 0.49490 -0.11100
H 	H 	0.31760 0.63860 0.47020 0.07700
C 	C 	0.31860 0.62330 0.54700 0.06900
C 	C 	0.29940 0.60070 0.58660 -0.00800
C 	C 	0.30690 0.60940 0.63930 -0.04700
H 	H 	0.29390 0.59550 0.66760 0.05000
C 	C 	0.33250 0.63940 0.65350 -0.02600
H 	H 	0.34230 0.64570 0.68840 0.06100
C 	C 	0.35140 0.66110 0.61390 -0.02600
C 	C 	0.34420 0.65370 0.56100 -0.08000
H 	H 	0.35860 0.66970 0.53610 0.07800
C 	C 	0.23730 0.53500 0.49650 0.41200
C 	C 	0.38190 0.69450 0.62340 0.29500
O 	O 	0.22960 0.50690 0.52390 -0.47200
O 	O 	0.22750 0.53810 0.44890 -0.43400
O 	O 	0.40310 0.71410 0.59510 -0.36000
O 	O 	0.37990 0.70240 0.67370 -0.34600
Cd	Cd	0.50214 0.35344 0.38496 1.23000
Cd	Cd	0.43019 0.25061 0.16463 1.23500
Cd	Cd	0.46801 0.30390 0.27117 1.24600
C 	C 	0.35460 0.33720 0.28490 -0.04300
H 	H 	0.37310 0.32280 0.30460 0.05600
C 	C 	0.35320 0.33190 0.23550 -0.04400
C 	C 	0.32470 0.35690 0.19910 -0.01000
H 	H 	0.32260 0.35310 0.16130 0.05400
C 	C 	0.30170 0.38590 0.23080 -0.09400
H 	H 	0.28600 0.40360 0.21210 0.06800
C 	C 	0.30170 0.38820 0.27930 0.05200
C 	C 	0.32830 0.36530 0.31380 0.01800
C 	C 	0.32880 0.37110 0.36900 -0.06900
H 	H 	0.35010 0.35930 0.38960 0.06000
C 	C 	0.30250 0.39550 0.39180 -0.00400
H 	H 	0.30280 0.39850 0.42860 0.04700
C 	C 	0.27470 0.41650 0.36180 -0.05100
C 	C 	0.27340 0.41390 0.30780 -0.06500
H 	H 	0.25460 0.42840 0.28870 0.07100
C 	C 	0.38090 0.30640 0.19990 0.30700
C 	C 	0.24110 0.44380 0.38500 0.35300
O 	O 	0.37370 0.30130 0.15480 -0.35200
O 	O 	0.40600 0.28850 0.23290 -0.49300
O 	O 	0.24590 0.44330 0.43760 -0.42800
O 	O 	0.22220 0.46610 0.36100 -0.42600
C 	C 	0.34180 0.17490 0.48450 -0.00500
H 	H 	0.32980 0.15850 0.45990 0.04800
C 	C 	0.33470 0.17080 0.53440 -0.10100
C 	C 	0.34850 0.20000 0.57240 0.03500
H 	H 	0.34200 0.19780 0.60950 0.03700
C 	C 	0.37320 0.22790 0.55220 -0.10800
H 	H 	0.38470 0.24540 0.57580 0.07200
C 	C 	0.38200 0.23180 0.49970 0.05300
C 	C 	0.36850 0.20510 0.46690 0.00200
C 	C 	0.37510 0.20610 0.40880 -0.06400
H 	H 	0.36250 0.18850 0.38640 0.05900
C 	C 	0.40240 0.23600 0.38750 -0.01000
H 	H 	0.41130 0.23640 0.35110 0.04800
C 	C 	0.41620 0.26470 0.42670 -0.06000
C 	C 	0.40750 0.26180 0.47880 -0.05500
H 	H 	0.41830 0.27980 0.50210 0.07100
C 	C 	0.30590 0.13910 0.55370 0.43200
C 	C 	0.44220 0.29710 0.40400 0.37400
O 	O 	0.29620 0.14380 0.60000 -0.44700
O 	O 	0.29530 0.11600 0.52140 -0.48100
O 	O 	0.44270 0.29880 0.35420 -0.46700
O 	O 	0.46180 0.31540 0.43570 -0.41500
C 	C 	0.60640 0.45450 0.44580 -0.07300
H 	H 	0.60920 0.46000 0.40980 0.06900
C 	C 	0.58140 0.42820 0.47150 -0.02400
C 	C 	0.57940 0.42470 0.52610 -0.02800
H 	H 	0.56220 0.40590 0.53960 0.06600
C 	C 	0.60060 0.44630 0.56260 -0.06500
H 	H 	0.59850 0.44130 0.59890 0.06100
C 	C 	0.62450 0.47490 0.54470 0.01500
C 	C 	0.62650 0.47040 0.49040 0.05700
C 	C 	0.64980 0.49830 0.46830 -0.10300
H 	H 	0.65260 0.50280 0.43200 0.07100
C 	C 	0.66900 0.51950 0.50870 0.01100
H 	H 	0.68630 0.53800 0.49450 0.03800
C 	C 	0.66940 0.52030 0.56460 -0.07200
C 	C 	0.64250 0.49430 0.58730 -0.02600
H 	H 	0.63820 0.49130 0.62490 0.05600
C 	C 	0.54940 0.40150 0.43930 0.31700
C 	C 	0.69680 0.55080 0.59030 0.32700
O 	O 	0.55240 0.40120 0.39110 -0.37500
O 	O 	0.53030 0.37920 0.46660 -0.35800
O 	O 	0.69320 0.55300 0.64080 -0.33500
O 	O 	0.72020 0.56900 0.56190 -0.50400
C 	C 	0.27190 0.07230 0.07020 0.00400
H 	H 	0.25850 0.05630 0.09610 0.04100
C 	C 	0.26440 0.06650 0.01640 -0.12600
C 	C 	0.28600 0.08790 0.97880 0.05200
H 	H 	0.28440 0.08150 0.94290 0.03400
C 	C 	0.31000 0.11880 0.99490 -0.10900
H 	H 	0.31760 0.13860 0.97020 0.07800
C 	C 	0.31860 0.12330 0.04700 0.06500
C 	C 	0.29940 0.10070 0.08660 -0.01000
C 	C 	0.30690 0.10940 0.13930 -0.04600
H 	H 	0.29390 0.09550 0.16760 0.05000
C 	C 	0.33250 0.13940 0.15350 -0.02600
H 	H 	0.34230 0.14570 0.18840 0.06100
C 	C 	0.35140 0.16110 0.11390 -0.02700
C 	C 	0.34420 0.15370 0.06100 -0.07800
H 	H 	0.35860 0.16970 0.03610 0.07600
C 	C 	0.23730 0.03500 0.99650 0.42600
C 	C 	0.38190 0.19450 0.12340 0.29600
O 	O 	0.22960 0.00690 0.02390 -0.47900
O 	O 	0.22750 0.03810 0.94890 -0.43700
O 	O 	0.40310 0.21410 0.09510 -0.36100
O 	O 	0.37990 0.20240 0.17370 -0.34700
Cd	Cd	0.00214 0.85344 0.38496 1.23000
Cd	Cd	0.93019 0.75061 0.16463 1.23500
Cd	Cd	0.96801 0.80390 0.27117 1.24600
C 	C 	0.85460 0.83720 0.28490 -0.04300
H 	H 	0.87310 0.82280 0.30460 0.05600
C 	C 	0.85320 0.83190 0.23550 -0.04400
C 	C 	0.82470 0.85690 0.19910 -0.01000
H 	H 	0.82260 0.85310 0.16130 0.05400
C 	C 	0.80170 0.88590 0.23080 -0.09400
H 	H 	0.78600 0.90360 0.21210 0.06800
C 	C 	0.80170 0.88820 0.27930 0.05200
C 	C 	0.82830 0.86530 0.31380 0.01800
C 	C 	0.82880 0.87110 0.36900 -0.06900
H 	H 	0.85010 0.85930 0.38960 0.06000
C 	C 	0.80250 0.89550 0.39180 -0.00400
H 	H 	0.80280 0.89850 0.42860 0.04700
C 	C 	0.77470 0.91650 0.36180 -0.05100
C 	C 	0.77340 0.91390 0.30780 -0.06500
H 	H 	0.75460 0.92840 0.28870 0.07100
C 	C 	0.88090 0.80640 0.19990 0.30700
C 	C 	0.74110 0.94380 0.38500 0.35300
O 	O 	0.87370 0.80130 0.15480 -0.35200
O 	O 	0.90600 0.78850 0.23290 -0.49300
O 	O 	0.74590 0.94330 0.43760 -0.42800
O 	O 	0.72220 0.96610 0.36100 -0.42600
C 	C 	0.84180 0.67490 0.48450 -0.00500
H 	H 	0.82980 0.65850 0.45990 0.04800
C 	C 	0.83470 0.67080 0.53440 -0.10100
C 	C 	0.84850 0.70000 0.57240 0.03500
H 	H 	0.84200 0.69780 0.60950 0.03700
C 	C 	0.87320 0.72790 0.55220 -0.10800
H 	H 	0.88470 0.74540 0.57580 0.07200
C 	C 	0.88200 0.73180 0.49970 0.05300
C 	C 	0.86850 0.70510 0.46690 0.00200
C 	C 	0.87510 0.70610 0.40880 -0.06400
H 	H 	0.86250 0.68850 0.38640 0.05900
C 	C 	0.90240 0.73600 0.38750 -0.01000
H 	H 	0.91130 0.73640 0.35110 0.04800
C 	C 	0.91620 0.76470 0.42670 -0.06000
C 	C 	0.90750 0.76180 0.47880 -0.05500
H 	H 	0.91830 0.77980 0.50210 0.07100
C 	C 	0.80590 0.63910 0.55370 0.43200
C 	C 	0.94220 0.79710 0.40400 0.37400
O 	O 	0.79620 0.64380 0.60000 -0.44700
O 	O 	0.79530 0.61600 0.52140 -0.48100
O 	O 	0.94270 0.79880 0.35420 -0.46700
O 	O 	0.96180 0.81540 0.43570 -0.41500
C 	C 	0.10640 0.95450 0.44580 -0.07300
H 	H 	0.10920 0.96000 0.40980 0.06900
C 	C 	0.08140 0.92820 0.47150 -0.02300
C 	C 	0.07940 0.92470 0.52610 -0.02800
H 	H 	0.06220 0.90590 0.53960 0.06600
C 	C 	0.10060 0.94630 0.56260 -0.06500
H 	H 	0.09850 0.94130 0.59890 0.06100
C 	C 	0.12450 0.97490 0.54470 0.01500
C 	C 	0.12650 0.97040 0.49040 0.05700
C 	C 	0.14980 0.99830 0.46830 -0.10300
H 	H 	0.15260 0.00280 0.43200 0.07100
C 	C 	0.16900 0.01950 0.50870 0.01100
H 	H 	0.18630 0.03800 0.49450 0.03800
C 	C 	0.16940 0.02030 0.56460 -0.07200
C 	C 	0.14250 0.99430 0.58730 -0.02600
H 	H 	0.13820 0.99130 0.62490 0.05600
C 	C 	0.04940 0.90150 0.43930 0.31700
C 	C 	0.19680 0.05080 0.59030 0.32700
O 	O 	0.05240 0.90120 0.39110 -0.37500
O 	O 	0.03030 0.87920 0.46660 -0.35700
O 	O 	0.19320 0.05300 0.64080 -0.33500
O 	O 	0.22020 0.06900 0.56190 -0.50400
C 	C 	0.77190 0.57230 0.07020 0.00400
H 	H 	0.75850 0.55630 0.09610 0.04100
C 	C 	0.76440 0.56650 0.01640 -0.12600
C 	C 	0.78600 0.58790 0.97880 0.05200
H 	H 	0.78440 0.58150 0.94290 0.03400
C 	C 	0.81000 0.61880 0.99490 -0.10900
H 	H 	0.81760 0.63860 0.97020 0.07800
C 	C 	0.81860 0.62330 0.04700 0.06500
C 	C 	0.79940 0.60070 0.08660 -0.01000
C 	C 	0.80690 0.60940 0.13930 -0.04600
H 	H 	0.79390 0.59550 0.16760 0.05000
C 	C 	0.83250 0.63940 0.15350 -0.02600
H 	H 	0.84230 0.64570 0.18840 0.06100
C 	C 	0.85140 0.66110 0.11390 -0.02700
C 	C 	0.84420 0.65370 0.06100 -0.07800
H 	H 	0.85860 0.66970 0.03610 0.07600
C 	C 	0.73730 0.53500 0.99650 0.42600
C 	C 	0.88190 0.69450 0.12340 0.29500
O 	O 	0.72960 0.50690 0.02390 -0.48000
O 	O 	0.72750 0.53810 0.94890 -0.43700
O 	O 	0.90310 0.71410 0.09510 -0.36100
O 	O 	0.87990 0.70240 0.17370 -0.34700
Cd	Cd	0.00214 0.35344 0.88496 1.23000
Cd	Cd	0.93019 0.25061 0.66463 1.23500
Cd	Cd	0.96801 0.30390 0.77117 1.24600
C 	C 	0.85460 0.33720 0.78490 -0.04300
H 	H 	0.87310 0.32280 0.80460 0.05600
C 	C 	0.85320 0.33190 0.73550 -0.04400
C 	C 	0.82470 0.35690 0.69910 -0.01000
H 	H 	0.82260 0.35310 0.66130 0.05400
C 	C 	0.80170 0.38590 0.73080 -0.09400
H 	H 	0.78600 0.40360 0.71210 0.06900
C 	C 	0.80170 0.38820 0.77930 0.05200
C 	C 	0.82830 0.36530 0.81380 0.01800
C 	C 	0.82880 0.37110 0.86900 -0.06900
H 	H 	0.85010 0.35930 0.88960 0.06000
C 	C 	0.80250 0.39550 0.89180 -0.00400
H 	H 	0.80280 0.39850 0.92860 0.04700
C 	C 	0.77470 0.41650 0.86180 -0.05100
C 	C 	0.77340 0.41390 0.80780 -0.06500
H 	H 	0.75460 0.42840 0.78870 0.07100
C 	C 	0.88090 0.30640 0.69990 0.30700
C 	C 	0.74110 0.44380 0.88500 0.35200
O 	O 	0.87370 0.30130 0.65480 -0.35100
O 	O 	0.90600 0.28850 0.73290 -0.49200
O 	O 	0.74590 0.44330 0.93760 -0.42600
O 	O 	0.72220 0.46610 0.86100 -0.42500
C 	C 	0.84180 0.17490 0.98450 0.01200
H 	H 	0.82980 0.15850 0.95990 0.04400
C 	C 	0.83470 0.17080 0.03440 -0.11600
C 	C 	0.84850 0.20000 0.07240 0.04600
H 	H 	0.84200 0.19780 0.10950 0.03300
C 	C 	0.87320 0.22790 0.05220 -0.12400
H 	H 	0.88470 0.24540 0.07580 0.07600
C 	C 	0.88200 0.23180 0.99970 0.06400
C 	C 	0.86850 0.20510 0.96690 -0.00700
C 	C 	0.87510 0.20610 0.90880 -0.05900
H 	H 	0.86250 0.18850 0.88640 0.05800
C 	C 	0.90240 0.23600 0.88750 -0.01200
H 	H 	0.91130 0.23640 0.85110 0.04900
C 	C 	0.91620 0.26470 0.92670 -0.06000
C 	C 	0.90750 0.26180 0.97880 -0.05200
H 	H 	0.91830 0.27980 0.00210 0.06600
C 	C 	0.80590 0.13910 0.05370 0.43600
C 	C 	0.94220 0.29710 0.90400 0.37400
O 	O 	0.79620 0.14380 0.10000 -0.44800
O 	O 	0.79530 0.11600 0.02140 -0.48400
O 	O 	0.94270 0.29880 0.85420 -0.46700
O 	O 	0.96180 0.31540 0.93570 -0.41300
C 	C 	0.10640 0.45450 0.94580 -0.08000
H 	H 	0.10920 0.46000 0.90980 0.07100
C 	C 	0.08140 0.42820 0.97150 -0.01300
C 	C 	0.07940 0.42470 0.02610 -0.04200
H 	H 	0.06220 0.40590 0.03960 0.07000
C 	C 	0.10060 0.44630 0.06260 -0.05600
H 	H 	0.09850 0.44130 0.09890 0.05800
C 	C 	0.12450 0.47490 0.04470 0.00700
C 	C 	0.12650 0.47040 0.99040 0.06300
C 	C 	0.14980 0.49830 0.96830 -0.09400
H 	H 	0.15260 0.50280 0.93200 0.06800
C 	C 	0.16900 0.51950 0.00870 -0.00600
H 	H 	0.18630 0.53800 0.99450 0.04700
C 	C 	0.16940 0.52030 0.06460 -0.06800
C 	C 	0.14250 0.49430 0.08730 -0.02500
H 	H 	0.13820 0.49130 0.12490 0.05500
C 	C 	0.04940 0.40150 0.93930 0.31400
C 	C 	0.19680 0.55080 0.09030 0.32500
O 	O 	0.05240 0.40120 0.89110 -0.37500
O 	O 	0.03030 0.37920 0.96660 -0.35500
O 	O 	0.19320 0.55300 0.14080 -0.33500
O 	O 	0.22020 0.56900 0.06190 -0.50500
C 	C 	0.77190 0.07230 0.57020 -0.00100
H 	H 	0.75850 0.05630 0.59610 0.04300
C 	C 	0.76440 0.06650 0.51640 -0.11300
C 	C 	0.78600 0.08790 0.47880 0.04200
H 	H 	0.78440 0.08150 0.44290 0.03700
C 	C 	0.81000 0.11880 0.49490 -0.11100
H 	H 	0.81760 0.13860 0.47020 0.07700
C 	C 	0.81860 0.12330 0.54700 0.06900
C 	C 	0.79940 0.10070 0.58660 -0.00800
C 	C 	0.80690 0.10940 0.63930 -0.04700
H 	H 	0.79390 0.09550 0.66760 0.05000
C 	C 	0.83250 0.13940 0.65350 -0.02600
H 	H 	0.84230 0.14570 0.68840 0.06100
C 	C 	0.85140 0.16110 0.61390 -0.02600
C 	C 	0.84420 0.15370 0.56100 -0.08000
H 	H 	0.85860 0.16970 0.53610 0.07800
C 	C 	0.73730 0.03500 0.49650 0.41200
C 	C 	0.88190 0.19450 0.62340 0.29500
O 	O 	0.72960 0.00690 0.52390 -0.47200
O 	O 	0.72750 0.03810 0.44890 -0.43400
O 	O 	0.90310 0.21410 0.59510 -0.36000
O 	O 	0.87990 0.20240 0.67370 -0.34600
Cd	Cd	0.74786 0.10344 0.13496 1.23000
Cd	Cd	0.81981 0.00061 0.91463 1.23500
Cd	Cd	0.78199 0.05390 0.02117 1.24500
C 	C 	0.89540 0.08720 0.03490 -0.06200
H 	H 	0.87690 0.07280 0.05460 0.06100
C 	C 	0.89680 0.08190 0.98550 -0.02900
C 	C 	0.92530 0.10690 0.94910 -0.02100
H 	H 	0.92740 0.10310 0.91130 0.05800
C 	C 	0.94830 0.13590 0.98080 -0.07300
H 	H 	0.96400 0.15360 0.96210 0.06200
C 	C 	0.94830 0.13820 0.02930 0.03200
C 	C 	0.92170 0.11530 0.06380 0.03000
C 	C 	0.92120 0.12110 0.11900 -0.07900
H 	H 	0.89990 0.10930 0.13960 0.06300
C 	C 	0.94750 0.14550 0.14180 0.00500
H 	H 	0.94720 0.14850 0.17860 0.04400
C 	C 	0.97530 0.16650 0.11180 -0.05900
C 	C 	0.97660 0.16390 0.05780 -0.05400
H 	H 	0.99540 0.17840 0.03870 0.06600
C 	C 	0.86910 0.05640 0.94990 0.30200
C 	C 	0.00890 0.19380 0.13500 0.35500
O 	O 	0.87630 0.05130 0.90480 -0.35000
O 	O 	0.84400 0.03850 0.98290 -0.48900
O 	O 	0.00410 0.19330 0.18760 -0.42800
O 	O 	0.02780 0.21610 0.11100 -0.42700
C 	C 	0.90820 0.92490 0.23450 -0.00500
H 	H 	0.92020 0.90850 0.20990 0.04800
C 	C 	0.91530 0.92080 0.28440 -0.10100
C 	C 	0.90150 0.95000 0.32240 0.03500
H 	H 	0.90800 0.94780 0.35950 0.03700
C 	C 	0.87680 0.97790 0.30220 -0.10800
H 	H 	0.86530 0.99540 0.32580 0.07200
C 	C 	0.86800 0.98180 0.24970 0.05300
C 	C 	0.88150 0.95510 0.21690 0.00100
C 	C 	0.87490 0.95610 0.15880 -0.06400
H 	H 	0.88750 0.93850 0.13640 0.05900
C 	C 	0.84760 0.98600 0.13750 -0.01000
H 	H 	0.83870 0.98640 0.10110 0.04700
C 	C 	0.83380 0.01470 0.17670 -0.06000
C 	C 	0.84250 0.01180 0.22880 -0.05500
H 	H 	0.83170 0.02980 0.25210 0.07100
C 	C 	0.94410 0.88910 0.30370 0.43200
C 	C 	0.80780 0.04710 0.15400 0.37400
O 	O 	0.95380 0.89380 0.35000 -0.44700
O 	O 	0.95470 0.86600 0.27140 -0.48100
O 	O 	0.80730 0.04880 0.10420 -0.46800
O 	O 	0.78820 0.06540 0.18570 -0.41500
C 	C 	0.64360 0.20450 0.19580 -0.07200
H 	H 	0.64080 0.21000 0.15980 0.06800
C 	C 	0.66860 0.17820 0.22150 -0.02400
C 	C 	0.67060 0.17470 0.27610 -0.02800
H 	H 	0.68780 0.15590 0.28960 0.06600
C 	C 	0.64940 0.19630 0.31260 -0.06500
H 	H 	0.65150 0.19130 0.34890 0.06100
C 	C 	0.62550 0.22490 0.29470 0.01500
C 	C 	0.62350 0.22040 0.24040 0.05700
C 	C 	0.60020 0.24830 0.21830 -0.10300
H 	H 	0.59740 0.25280 0.18200 0.07100
C 	C 	0.58100 0.26950 0.25870 0.01000
H 	H 	0.56370 0.28800 0.24450 0.03900
C 	C 	0.58060 0.27030 0.31460 -0.07200
C 	C 	0.60750 0.24430 0.33730 -0.02700
H 	H 	0.61180 0.24130 0.37490 0.05600
C 	C 	0.70060 0.15150 0.18930 0.31700
C 	C 	0.55320 0.30080 0.34030 0.32600
O 	O 	0.69760 0.15120 0.14110 -0.37600
O 	O 	0.71970 0.12920 0.21660 -0.35800
O 	O 	0.55680 0.30300 0.39080 -0.33500
O 	O 	0.52980 0.31900 0.31190 -0.50400
C 	C 	0.97810 0.82230 0.82020 -0.00100
H 	H 	0.99150 0.80630 0.84610 0.04300
C 	C 	0.98560 0.81650 0.76640 -0.11200
C 	C 	0.96400 0.83790 0.72880 0.04200
H 	H 	0.96560 0.83150 0.69290 0.03700
C 	C 	0.94000 0.86880 0.74490 -0.11100
H 	H 	0.93240 0.88860 0.72020 0.07700
C 	C 	0.93140 0.87330 0.79700 0.06900
C 	C 	0.95060 0.85070 0.83660 -0.00800
C 	C 	0.94310 0.85940 0.88930 -0.04700
H 	H 	0.95610 0.84550 0.91760 0.05100
C 	C 	0.91750 0.88940 0.90350 -0.02500
H 	H 	0.90770 0.89570 0.93840 0.06200
C 	C 	0.89860 0.91110 0.86390 -0.02600
C 	C 	0.90580 0.90370 0.81100 -0.08000
H 	H 	0.89140 0.91970 0.78610 0.07800
C 	C 	0.01270 0.78500 0.74650 0.41200
C 	C 	0.86810 0.94450 0.87340 0.29500
O 	O 	0.02040 0.75690 0.77390 -0.47200
O 	O 	0.02250 0.78810 0.69890 -0.43400
O 	O 	0.84690 0.96410 0.84510 -0.36000
O 	O 	0.87010 0.95240 0.92370 -0.34600
Cd	Cd	0.74786 0.60344 0.63496 1.23000
Cd	Cd	0.81981 0.50061 0.41463 1.23500
Cd	Cd	0.78199 0.55390 0.52117 1.24600
C 	C 	0.89540 0.58720 0.53490 -0.04300
H 	H 	0.87690 0.57280 0.55460 0.05600
C 	C 	0.89680 0.58190 0.48550 -0.04400
C 	C 	0.92530 0.60690 0.44910 -0.01100
H 	H 	0.92740 0.60310 0.41130 0.05400
C 	C 	0.94830 0.63590 0.48080 -0.09400
H 	H 	0.96400 0.65360 0.46210 0.06900
C 	C 	0.94830 0.63820 0.52930 0.05200
C 	C 	0.92170 0.61530 0.56380 0.01800
C 	C 	0.92120 0.62110 0.61900 -0.06900
H 	H 	0.89990 0.60930 0.63960 0.06000
C 	C 	0.94750 0.64550 0.64180 -0.00400
H 	H 	0.94720 0.64850 0.67860 0.04700
C 	C 	0.97530 0.66650 0.61180 -0.05100
C 	C 	0.97660 0.66390 0.55780 -0.06500
H 	H 	0.99540 0.67840 0.53870 0.07100
C 	C 	0.86910 0.55640 0.44990 0.30700
C 	C 	0.00890 0.69380 0.63500 0.35300
O 	O 	0.87630 0.55130 0.40480 -0.35100
O 	O 	0.84400 0.53850 0.48290 -0.49200
O 	O 	0.00410 0.69330 0.68760 -0.42800
O 	O 	0.02780 0.71610 0.61100 -0.42600
C 	C 	0.90820 0.42490 0.73450 -0.00500
H 	H 	0.92020 0.40850 0.70990 0.04800
C 	C 	0.91530 0.42080 0.78440 -0.10100
C 	C 	0.90150 0.45000 0.82240 0.03500
H 	H 	0.90800 0.44780 0.85950 0.03700
C 	C 	0.87680 0.47790 0.80220 -0.10800
H 	H 	0.86530 0.49540 0.82580 0.07200
C 	C 	0.86800 0.48180 0.74970 0.05300
C 	C 	0.88150 0.45510 0.71690 0.00200
C 	C 	0.87490 0.45610 0.65880 -0.06400
H 	H 	0.88750 0.43850 0.63640 0.05900
C 	C 	0.84760 0.48600 0.63750 -0.01000
H 	H 	0.83870 0.48640 0.60110 0.04800
C 	C 	0.83380 0.51470 0.67670 -0.06000
C 	C 	0.84250 0.51180 0.72880 -0.05500
H 	H 	0.83170 0.52980 0.75210 0.07100
C 	C 	0.94410 0.38910 0.80370 0.43200
C 	C 	0.80780 0.54710 0.65400 0.37400
O 	O 	0.95380 0.39380 0.85000 -0.44700
O 	O 	0.95470 0.36600 0.77140 -0.48000
O 	O 	0.80730 0.54880 0.60420 -0.46700
O 	O 	0.78820 0.56540 0.68570 -0.41500
C 	C 	0.64360 0.70450 0.69580 -0.07200
H 	H 	0.64080 0.71000 0.65980 0.06900
C 	C 	0.66860 0.67820 0.72150 -0.02400
C 	C 	0.67060 0.67470 0.77610 -0.02800
H 	H 	0.68780 0.65590 0.78960 0.06600
C 	C 	0.64940 0.69630 0.81260 -0.06500
H 	H 	0.65150 0.69130 0.84890 0.06100
C 	C 	0.62550 0.72490 0.79470 0.01500
C 	C 	0.62350 0.72040 0.74040 0.05700
C 	C 	0.60020 0.74830 0.71830 -0.10300
H 	H 	0.59740 0.75280 0.68200 0.07100
C 	C 	0.58100 0.76950 0.75870 0.01000
H 	H 	0.56370 0.78800 0.74450 0.03900
C 	C 	0.58060 0.77030 0.81460 -0.07200
C 	C 	0.60750 0.74430 0.83730 -0.02700
H 	H 	0.61180 0.74130 0.87490 0.05600
C 	C 	0.70060 0.65150 0.68930 0.31700
C 	C 	0.55320 0.80080 0.84030 0.32600
O 	O 	0.69760 0.65120 0.64110 -0.37500
O 	O 	0.71970 0.62920 0.71660 -0.35700
O 	O 	0.55680 0.80300 0.89080 -0.33400
O 	O 	0.52980 0.81900 0.81190 -0.50400
C 	C 	0.97810 0.32230 0.32020 -0.00100
H 	H 	0.99150 0.30630 0.34610 0.04300
C 	C 	0.98560 0.31650 0.26640 -0.11300
C 	C 	0.96400 0.33790 0.22880 0.04200
H 	H 	0.96560 0.33150 0.19290 0.03700
C 	C 	0.94000 0.36880 0.24490 -0.11200
H 	H 	0.93240 0.38860 0.22020 0.07700
C 	C 	0.93140 0.37330 0.29700 0.06900
C 	C 	0.95060 0.35070 0.33660 -0.00800
C 	C 	0.94310 0.35940 0.38930 -0.04700
H 	H 	0.95610 0.34550 0.41760 0.05000
C 	C 	0.91750 0.38940 0.40350 -0.02600
H 	H 	0.90770 0.39570 0.43840 0.06100
C 	C 	0.89860 0.41110 0.36390 -0.02600
C 	C 	0.90580 0.40370 0.31100 -0.08000
H 	H 	0.89140 0.41970 0.28610 0.07800
C 	C 	0.01270 0.28500 0.24650 0.41200
C 	C 	0.86810 0.44450 0.37340 0.29500
O 	O 	0.02040 0.25690 0.27390 -0.47200
O 	O 	0.02250 0.28810 0.19890 -0.43500
O 	O 	0.84690 0.46410 0.34510 -0.36000
O 	O 	0.87010 0.45240 0.42370 -0.34600
Cd	Cd	0.24786 0.10344 0.63496 1.23000
Cd	Cd	0.31981 0.00061 0.41463 1.23500
Cd	Cd	0.28199 0.05390 0.52117 1.24600
C 	C 	0.39540 0.08720 0.53490 -0.04300
H 	H 	0.37690 0.07280 0.55460 0.05600
C 	C 	0.39680 0.08190 0.48550 -0.04400
C 	C 	0.42530 0.10690 0.44910 -0.01100
H 	H 	0.42740 0.10310 0.41130 0.05400
C 	C 	0.44830 0.13590 0.48080 -0.09400
H 	H 	0.46400 0.15360 0.46210 0.06800
C 	C 	0.44830 0.13820 0.52930 0.05200
C 	C 	0.42170 0.11530 0.56380 0.01800
C 	C 	0.42120 0.12110 0.61900 -0.06900
H 	H 	0.39990 0.10930 0.63960 0.06000
C 	C 	0.44750 0.14550 0.64180 -0.00400
H 	H 	0.44720 0.14850 0.67860 0.04700
C 	C 	0.47530 0.16650 0.61180 -0.05100
C 	C 	0.47660 0.16390 0.55780 -0.06500
H 	H 	0.49540 0.17840 0.53870 0.07100
C 	C 	0.36910 0.05640 0.44990 0.30700
C 	C 	0.50890 0.19380 0.63500 0.35300
O 	O 	0.37630 0.05130 0.40480 -0.35100
O 	O 	0.34400 0.03850 0.48290 -0.49200
O 	O 	0.50410 0.19330 0.68760 -0.42800
O 	O 	0.52780 0.21610 0.61100 -0.42600
C 	C 	0.40820 0.92490 0.73450 -0.00500
H 	H 	0.42020 0.90850 0.70990 0.04800
C 	C 	0.41530 0.92080 0.78440 -0.10100
C 	C 	0.40150 0.95000 0.82240 0.03500
H 	H 	0.40800 0.94780 0.85950 0.03700
C 	C 	0.37680 0.97790 0.80220 -0.10800
H 	H 	0.36530 0.99540 0.82580 0.07200
C 	C 	0.36800 0.98180 0.74970 0.05300
C 	C 	0.38150 0.95510 0.71690 0.00200
C 	C 	0.37490 0.95610 0.65880 -0.06400
H 	H 	0.38750 0.93850 0.63640 0.05900
C 	C 	0.34760 0.98600 0.63750 -0.01000
H 	H 	0.33870 0.98640 0.60110 0.04800
C 	C 	0.33380 0.01470 0.67670 -0.06000
C 	C 	0.34250 0.01180 0.72880 -0.05500
H 	H 	0.33170 0.02980 0.75210 0.07100
C 	C 	0.44410 0.88910 0.80370 0.43200
C 	C 	0.30780 0.04710 0.65400 0.37400
O 	O 	0.45380 0.89380 0.85000 -0.44700
O 	O 	0.45470 0.86600 0.77140 -0.48100
O 	O 	0.30730 0.04880 0.60420 -0.46700
O 	O 	0.28820 0.06540 0.68570 -0.41500
C 	C 	0.14360 0.20450 0.69580 -0.07200
H 	H 	0.14080 0.21000 0.65980 0.06900
C 	C 	0.16860 0.17820 0.72150 -0.02400
C 	C 	0.17060 0.17470 0.77610 -0.02800
H 	H 	0.18780 0.15590 0.78960 0.06600
C 	C 	0.14940 0.19630 0.81260 -0.06500
H 	H 	0.15150 0.19130 0.84890 0.06100
C 	C 	0.12550 0.22490 0.79470 0.01500
C 	C 	0.12350 0.22040 0.74040 0.05700
C 	C 	0.10020 0.24830 0.71830 -0.10300
H 	H 	0.09740 0.25280 0.68200 0.07100
C 	C 	0.08100 0.26950 0.75870 0.01000
H 	H 	0.06370 0.28800 0.74450 0.03900
C 	C 	0.08060 0.27030 0.81460 -0.07200
C 	C 	0.10750 0.24430 0.83730 -0.02700
H 	H 	0.11180 0.24130 0.87490 0.05600
C 	C 	0.20060 0.15150 0.68930 0.31700
C 	C 	0.05320 0.30080 0.84030 0.32600
O 	O 	0.19760 0.15120 0.64110 -0.37500
O 	O 	0.21970 0.12920 0.71660 -0.35700
O 	O 	0.05680 0.30300 0.89080 -0.33400
O 	O 	0.02980 0.31900 0.81190 -0.50400
C 	C 	0.47810 0.82230 0.32020 -0.00100
H 	H 	0.49150 0.80630 0.34610 0.04300
C 	C 	0.48560 0.81650 0.26640 -0.11300
C 	C 	0.46400 0.83790 0.22880 0.04200
H 	H 	0.46560 0.83150 0.19290 0.03700
C 	C 	0.44000 0.86880 0.24490 -0.11200
H 	H 	0.43240 0.88860 0.22020 0.07700
C 	C 	0.43140 0.87330 0.29700 0.06900
C 	C 	0.45060 0.85070 0.33660 -0.00800
C 	C 	0.44310 0.85940 0.38930 -0.04700
H 	H 	0.45610 0.84550 0.41760 0.05000
C 	C 	0.41750 0.88940 0.40350 -0.02600
H 	H 	0.40770 0.89570 0.43840 0.06100
C 	C 	0.39860 0.91110 0.36390 -0.02600
C 	C 	0.40580 0.90370 0.31100 -0.08000
H 	H 	0.39140 0.91970 0.28610 0.07800
C 	C 	0.51270 0.78500 0.24650 0.41200
C 	C 	0.36810 0.94450 0.37340 0.29500
O 	O 	0.52040 0.75690 0.27390 -0.47200
O 	O 	0.52250 0.78810 0.19890 -0.43500
O 	O 	0.34690 0.96410 0.34510 -0.36000
O 	O 	0.37010 0.95240 0.42370 -0.34600
Cd	Cd	0.24786 0.60344 0.13496 1.23000
Cd	Cd	0.31981 0.50061 0.91463 1.23500
Cd	Cd	0.28199 0.55390 0.02117 1.24500
C 	C 	0.39540 0.58720 0.03490 -0.06200
H 	H 	0.37690 0.57280 0.05460 0.06100
C 	C 	0.39680 0.58190 0.98550 -0.02900
C 	C 	0.42530 0.60690 0.94910 -0.02200
H 	H 	0.42740 0.60310 0.91130 0.05800
C 	C 	0.44830 0.63590 0.98080 -0.07200
H 	H 	0.46400 0.65360 0.96210 0.06200
C 	C 	0.44830 0.63820 0.02930 0.03200
C 	C 	0.42170 0.61530 0.06380 0.03000
C 	C 	0.42120 0.62110 0.11900 -0.07900
H 	H 	0.39990 0.60930 0.13960 0.06300
C 	C 	0.44750 0.64550 0.14180 0.00500
H 	H 	0.44720 0.64850 0.17860 0.04400
C 	C 	0.47530 0.66650 0.11180 -0.05900
C 	C 	0.47660 0.66390 0.05780 -0.05400
H 	H 	0.49540 0.67840 0.03870 0.06600
C 	C 	0.36910 0.55640 0.94990 0.30200
C 	C 	0.50890 0.69380 0.13500 0.35500
O 	O 	0.37630 0.55130 0.90480 -0.35000
O 	O 	0.34400 0.53850 0.98290 -0.48900
O 	O 	0.50410 0.69330 0.18760 -0.42800
O 	O 	0.52780 0.71610 0.11100 -0.42700
C 	C 	0.40820 0.42490 0.23450 -0.00500
H 	H 	0.42020 0.40850 0.20990 0.04800
C 	C 	0.41530 0.42080 0.28440 -0.10100
C 	C 	0.40150 0.45000 0.32240 0.03500
H 	H 	0.40800 0.44780 0.35950 0.03700
C 	C 	0.37680 0.47790 0.30220 -0.10800
H 	H 	0.36530 0.49540 0.32580 0.07200
C 	C 	0.36800 0.48180 0.24970 0.05300
C 	C 	0.38150 0.45510 0.21690 0.00100
C 	C 	0.37490 0.45610 0.15880 -0.06400
H 	H 	0.38750 0.43850 0.13640 0.05900
C 	C 	0.34760 0.48600 0.13750 -0.01100
H 	H 	0.33870 0.48640 0.10110 0.04700
C 	C 	0.33380 0.51470 0.17670 -0.06000
C 	C 	0.34250 0.51180 0.22880 -0.05500
H 	H 	0.33170 0.52980 0.25210 0.07100
C 	C 	0.44410 0.38910 0.30370 0.43200
C 	C 	0.30780 0.54710 0.15400 0.37400
O 	O 	0.45380 0.39380 0.35000 -0.44700
O 	O 	0.45470 0.36600 0.27140 -0.48100
O 	O 	0.30730 0.54880 0.10420 -0.46800
O 	O 	0.28820 0.56540 0.18570 -0.41500
C 	C 	0.14360 0.70450 0.19580 -0.07200
H 	H 	0.14080 0.71000 0.15980 0.06800
C 	C 	0.16860 0.67820 0.22150 -0.02400
C 	C 	0.17060 0.67470 0.27610 -0.02800
H 	H 	0.18780 0.65590 0.28960 0.06600
C 	C 	0.14940 0.69630 0.31260 -0.06500
H 	H 	0.15150 0.69130 0.34890 0.06100
C 	C 	0.12550 0.72490 0.29470 0.01500
C 	C 	0.12350 0.72040 0.24040 0.05700
C 	C 	0.10020 0.74830 0.21830 -0.10300
H 	H 	0.09740 0.75280 0.18200 0.07100
C 	C 	0.08100 0.76950 0.25870 0.01000
H 	H 	0.06370 0.78800 0.24450 0.03900
C 	C 	0.08060 0.77030 0.31460 -0.07200
C 	C 	0.10750 0.74430 0.33730 -0.02700
H 	H 	0.11180 0.74130 0.37490 0.05600
C 	C 	0.20060 0.65150 0.18930 0.31700
C 	C 	0.05320 0.80080 0.34030 0.32600
O 	O 	0.19760 0.65120 0.14110 -0.37600
O 	O 	0.21970 0.62920 0.21660 -0.35800
O 	O 	0.05680 0.80300 0.39080 -0.33500
O 	O 	0.02980 0.81900 0.31190 -0.50400
C 	C 	0.47810 0.32230 0.82020 -0.00100
H 	H 	0.49150 0.30630 0.84610 0.04300
C 	C 	0.48560 0.31650 0.76640 -0.11300
C 	C 	0.46400 0.33790 0.72880 0.04200
H 	H 	0.46560 0.33150 0.69290 0.03700
C 	C 	0.44000 0.36880 0.74490 -0.11100
H 	H 	0.43240 0.38860 0.72020 0.07700
C 	C 	0.43140 0.37330 0.79700 0.06900
C 	C 	0.45060 0.35070 0.83660 -0.00800
C 	C 	0.44310 0.35940 0.88930 -0.04700
H 	H 	0.45610 0.34550 0.91760 0.05100
C 	C 	0.41750 0.38940 0.90350 -0.02500
H 	H 	0.40770 0.39570 0.93840 0.06200
C 	C 	0.39860 0.41110 0.86390 -0.02600
C 	C 	0.40580 0.40370 0.81100 -0.08000
H 	H 	0.39140 0.41970 0.78610 0.07800
C 	C 	0.51270 0.28500 0.74650 0.41200
C 	C 	0.36810 0.44450 0.87340 0.29500
O 	O 	0.52040 0.25690 0.77390 -0.47200
O 	O 	0.52250 0.28810 0.69890 -0.43400
O 	O 	0.34690 0.46410 0.84510 -0.36000
O 	O 	0.37010 0.45240 0.92370 -0.34600
Cd	Cd	0.75214 0.39656 0.13496 1.23000
Cd	Cd	0.68019 0.49939 0.91463 1.23500
Cd	Cd	0.71801 0.44610 0.02117 1.24500
C 	C 	0.60460 0.41280 0.03490 -0.06200
H 	H 	0.62310 0.42720 0.05460 0.06100
C 	C 	0.60320 0.41810 0.98550 -0.02900
C 	C 	0.57470 0.39310 0.94910 -0.02200
H 	H 	0.57260 0.39690 0.91130 0.05800
C 	C 	0.55170 0.36410 0.98080 -0.07200
H 	H 	0.53600 0.34640 0.96210 0.06200
C 	C 	0.55170 0.36180 0.02930 0.03200
C 	C 	0.57830 0.38470 0.06380 0.03000
C 	C 	0.57880 0.37890 0.11900 -0.07900
H 	H 	0.60010 0.39070 0.13960 0.06300
C 	C 	0.55250 0.35450 0.14180 0.00500
H 	H 	0.55280 0.35150 0.17860 0.04400
C 	C 	0.52470 0.33350 0.11180 -0.05900
C 	C 	0.52340 0.33610 0.05780 -0.05400
H 	H 	0.50460 0.32160 0.03870 0.06600
C 	C 	0.63090 0.44360 0.94990 0.30200
C 	C 	0.49110 0.30620 0.13500 0.35500
O 	O 	0.62370 0.44870 0.90480 -0.35000
O 	O 	0.65600 0.46150 0.98290 -0.48900
O 	O 	0.49590 0.30670 0.18760 -0.42800
O 	O 	0.47220 0.28390 0.11100 -0.42700
C 	C 	0.59180 0.57510 0.23450 -0.00500
H 	H 	0.57980 0.59150 0.20990 0.04800
C 	C 	0.58470 0.57920 0.28440 -0.10100
C 	C 	0.59850 0.55000 0.32240 0.03500
H 	H 	0.59200 0.55220 0.35950 0.03700
C 	C 	0.62320 0.52210 0.30220 -0.10800
H 	H 	0.63470 0.50460 0.32580 0.07200
C 	C 	0.63200 0.51820 0.24970 0.05300
C 	C 	0.61850 0.54490 0.21690 0.00100
C 	C 	0.62510 0.54390 0.15880 -0.06400
H 	H 	0.61250 0.56150 0.13640 0.05900
C 	C 	0.65240 0.51400 0.13750 -0.01100
H 	H 	0.66130 0.51360 0.10110 0.04700
C 	C 	0.66620 0.48530 0.17670 -0.06000
C 	C 	0.65750 0.48820 0.22880 -0.05500
H 	H 	0.66830 0.47020 0.25210 0.07100
C 	C 	0.55590 0.61090 0.30370 0.43200
C 	C 	0.69220 0.45290 0.15400 0.37400
O 	O 	0.54620 0.60620 0.35000 -0.44700
O 	O 	0.54530 0.63400 0.27140 -0.48100
O 	O 	0.69270 0.45120 0.10420 -0.46800
O 	O 	0.71180 0.43460 0.18570 -0.41500
C 	C 	0.85640 0.29550 0.19580 -0.07200
H 	H 	0.85920 0.29000 0.15980 0.06800
C 	C 	0.83140 0.32180 0.22150 -0.02400
C 	C 	0.82940 0.32530 0.27610 -0.02800
H 	H 	0.81220 0.34410 0.28960 0.06600
C 	C 	0.85060 0.30370 0.31260 -0.06500
H 	H 	0.84850 0.30870 0.34890 0.06100
C 	C 	0.87450 0.27510 0.29470 0.01500
C 	C 	0.87650 0.27960 0.24040 0.05700
C 	C 	0.89980 0.25170 0.21830 -0.10300
H 	H 	0.90260 0.24720 0.18200 0.07100
C 	C 	0.91900 0.23050 0.25870 0.01000
H 	H 	0.93630 0.21200 0.24450 0.03900
C 	C 	0.91940 0.22970 0.31460 -0.07200
C 	C 	0.89250 0.25570 0.33730 -0.02700
H 	H 	0.88820 0.25870 0.37490 0.05600
C 	C 	0.79940 0.34850 0.18930 0.31700
C 	C 	0.94680 0.19920 0.34030 0.32600
O 	O 	0.80240 0.34880 0.14110 -0.37600
O 	O 	0.78030 0.37080 0.21660 -0.35800
O 	O 	0.94320 0.19700 0.39080 -0.33500
O 	O 	0.97020 0.18100 0.31190 -0.50400
C 	C 	0.52190 0.67770 0.82020 -0.00100
H 	H 	0.50850 0.69370 0.84610 0.04300
C 	C 	0.51440 0.68350 0.76640 -0.11300
C 	C 	0.53600 0.66210 0.72880 0.04200
H 	H 	0.53440 0.66850 0.69290 0.03700
C 	C 	0.56000 0.63120 0.74490 -0.11100
H 	H 	0.56760 0.61140 0.72020 0.07700
C 	C 	0.56860 0.62670 0.79700 0.06900
C 	C 	0.54940 0.64930 0.83660 -0.00800
C 	C 	0.55690 0.64060 0.88930 -0.04700
H 	H 	0.54390 0.65450 0.91760 0.05100
C 	C 	0.58250 0.61060 0.90350 -0.02500
H 	H 	0.59230 0.60430 0.93840 0.06200
C 	C 	0.60140 0.58890 0.86390 -0.02600
C 	C 	0.59420 0.59630 0.81100 -0.08000
H 	H 	0.60860 0.58030 0.78610 0.07800
C 	C 	0.48730 0.71500 0.74650 0.41200
C 	C 	0.63190 0.55550 0.87340 0.29500
O 	O 	0.47960 0.74310 0.77390 -0.47200
O 	O 	0.47750 0.71190 0.69890 -0.43400
O 	O 	0.65310 0.53590 0.84510 -0.36000
O 	O 	0.62990 0.54760 0.92370 -0.34600
Cd	Cd	0.75214 0.89656 0.63496 1.23000
Cd	Cd	0.68019 0.99939 0.41463 1.23500
Cd	Cd	0.71801 0.94610 0.52117 1.24600
C 	C 	0.60460 0.91280 0.53490 -0.04300
H 	H 	0.62310 0.92720 0.55460 0.05600
C 	C 	0.60320 0.91810 0.48550 -0.04400
C 	C 	0.57470 0.89310 0.44910 -0.01100
H 	H 	0.57260 0.89690 0.41130 0.05400
C 	C 	0.55170 0.86410 0.48080 -0.09400
H 	H 	0.53600 0.84640 0.46210 0.06800
C 	C 	0.55170 0.86180 0.52930 0.05200
C 	C 	0.57830 0.88470 0.56380 0.01800
C 	C 	0.57880 0.87890 0.61900 -0.06900
H 	H 	0.60010 0.89070 0.63960 0.06000
C 	C 	0.55250 0.85450 0.64180 -0.00400
H 	H 	0.55280 0.85150 0.67860 0.04700
C 	C 	0.52470 0.83350 0.61180 -0.05100
C 	C 	0.52340 0.83610 0.55780 -0.06500
H 	H 	0.50460 0.82160 0.53870 0.07100
C 	C 	0.63090 0.94360 0.44990 0.30700
C 	C 	0.49110 0.80620 0.63500 0.35300
O 	O 	0.62370 0.94870 0.40480 -0.35100
O 	O 	0.65600 0.96150 0.48290 -0.49200
O 	O 	0.49590 0.80670 0.68760 -0.42800
O 	O 	0.47220 0.78390 0.61100 -0.42600
C 	C 	0.59180 0.07510 0.73450 -0.00500
H 	H 	0.57980 0.09150 0.70990 0.04800
C 	C 	0.58470 0.07920 0.78440 -0.10100
C 	C 	0.59850 0.05000 0.82240 0.03500
H 	H 	0.59200 0.05220 0.85950 0.03700
C 	C 	0.62320 0.02210 0.80220 -0.10800
H 	H 	0.63470 0.00460 0.82580 0.07200
C 	C 	0.63200 0.01820 0.74970 0.05300
C 	C 	0.61850 0.04490 0.71690 0.00200
C 	C 	0.62510 0.04390 0.65880 -0.06400
H 	H 	0.61250 0.06150 0.63640 0.05900
C 	C 	0.65240 0.01400 0.63750 -0.01000
H 	H 	0.66130 0.01360 0.60110 0.04800
C 	C 	0.66620 0.98530 0.67670 -0.06000
C 	C 	0.65750 0.98820 0.72880 -0.05500
H 	H 	0.66830 0.97020 0.75210 0.07100
C 	C 	0.55590 0.11090 0.80370 0.43200
C 	C 	0.69220 0.95290 0.65400 0.37400
O 	O 	0.54620 0.10620 0.85000 -0.44700
O 	O 	0.54530 0.13400 0.77140 -0.48100
O 	O 	0.69270 0.95120 0.60420 -0.46700
O 	O 	0.71180 0.93460 0.68570 -0.41500
C 	C 	0.85640 0.79550 0.69580 -0.07200
H 	H 	0.85920 0.79000 0.65980 0.06900
C 	C 	0.83140 0.82180 0.72150 -0.02400
C 	C 	0.82940 0.82530 0.77610 -0.02800
H 	H 	0.81220 0.84410 0.78960 0.06600
C 	C 	0.85060 0.80370 0.81260 -0.06500
H 	H 	0.84850 0.80870 0.84890 0.06100
C 	C 	0.87450 0.77510 0.79470 0.01500
C 	C 	0.87650 0.77960 0.74040 0.05700
C 	C 	0.89980 0.75170 0.71830 -0.10300
H 	H 	0.90260 0.74720 0.68200 0.07100
C 	C 	0.91900 0.73050 0.75870 0.01000
H 	H 	0.93630 0.71200 0.74450 0.03900
C 	C 	0.91940 0.72970 0.81460 -0.07200
C 	C 	0.89250 0.75570 0.83730 -0.02700
H 	H 	0.88820 0.75870 0.87490 0.05600
C 	C 	0.79940 0.84850 0.68930 0.31700
C 	C 	0.94680 0.69920 0.84030 0.32600
O 	O 	0.80240 0.84880 0.64110 -0.37500
O 	O 	0.78030 0.87080 0.71660 -0.35700
O 	O 	0.94320 0.69700 0.89080 -0.33400
O 	O 	0.97020 0.68100 0.81190 -0.50400
C 	C 	0.52190 0.17770 0.32020 -0.00100
H 	H 	0.50850 0.19370 0.34610 0.04300
C 	C 	0.51440 0.18350 0.26640 -0.11300
C 	C 	0.53600 0.16210 0.22880 0.04200
H 	H 	0.53440 0.16850 0.19290 0.03700
C 	C 	0.56000 0.13120 0.24490 -0.11200
H 	H 	0.56760 0.11140 0.22020 0.07700
C 	C 	0.56860 0.12670 0.29700 0.06900
C 	C 	0.54940 0.14930 0.33660 -0.00800
C 	C 	0.55690 0.14060 0.38930 -0.04700
H 	H 	0.54390 0.15450 0.41760 0.05000
C 	C 	0.58250 0.11060 0.40350 -0.02600
H 	H 	0.59230 0.10430 0.43840 0.06100
C 	C 	0.60140 0.08890 0.36390 -0.02600
C 	C 	0.59420 0.09630 0.31100 -0.08000
H 	H 	0.60860 0.08030 0.28610 0.07800
C 	C 	0.48730 0.21500 0.24650 0.41200
C 	C 	0.63190 0.05550 0.37340 0.29500
O 	O 	0.47960 0.24310 0.27390 -0.47200
O 	O 	0.47750 0.21190 0.19890 -0.43500
O 	O 	0.65310 0.03590 0.34510 -0.36000
O 	O 	0.62990 0.04760 0.42370 -0.34600
Cd	Cd	0.25214 0.39656 0.63496 1.23000
Cd	Cd	0.18019 0.49939 0.41463 1.23500
Cd	Cd	0.21801 0.44610 0.52117 1.24600
C 	C 	0.10460 0.41280 0.53490 -0.04300
H 	H 	0.12310 0.42720 0.55460 0.05600
C 	C 	0.10320 0.41810 0.48550 -0.04400
C 	C 	0.07470 0.39310 0.44910 -0.01100
H 	H 	0.07260 0.39690 0.41130 0.05400
C 	C 	0.05170 0.36410 0.48080 -0.09400
H 	H 	0.03600 0.34640 0.46210 0.06900
C 	C 	0.05170 0.36180 0.52930 0.05200
C 	C 	0.07830 0.38470 0.56380 0.01800
C 	C 	0.07880 0.37890 0.61900 -0.06900
H 	H 	0.10010 0.39070 0.63960 0.06000
C 	C 	0.05250 0.35450 0.64180 -0.00400
H 	H 	0.05280 0.35150 0.67860 0.04700
C 	C 	0.02470 0.33350 0.61180 -0.05100
C 	C 	0.02340 0.33610 0.55780 -0.06500
H 	H 	0.00460 0.32160 0.53870 0.07100
C 	C 	0.13090 0.44360 0.44990 0.30700
C 	C 	0.99110 0.30620 0.63500 0.35300
O 	O 	0.12370 0.44870 0.40480 -0.35100
O 	O 	0.15600 0.46150 0.48290 -0.49200
O 	O 	0.99590 0.30670 0.68760 -0.42800
O 	O 	0.97220 0.28390 0.61100 -0.42600
C 	C 	0.09180 0.57510 0.73450 -0.00500
H 	H 	0.07980 0.59150 0.70990 0.04800
C 	C 	0.08470 0.57920 0.78440 -0.10100
C 	C 	0.09850 0.55000 0.82240 0.03500
H 	H 	0.09200 0.55220 0.85950 0.03700
C 	C 	0.12320 0.52210 0.80220 -0.10800
H 	H 	0.13470 0.50460 0.82580 0.07200
C 	C 	0.13200 0.51820 0.74970 0.05300
C 	C 	0.11850 0.54490 0.71690 0.00200
C 	C 	0.12510 0.54390 0.65880 -0.06400
H 	H 	0.11250 0.56150 0.63640 0.05900
C 	C 	0.15240 0.51400 0.63750 -0.01000
H 	H 	0.16130 0.51360 0.60110 0.04800
C 	C 	0.16620 0.48530 0.67670 -0.06000
C 	C 	0.15750 0.48820 0.72880 -0.05500
H 	H 	0.16830 0.47020 0.75210 0.07100
C 	C 	0.05590 0.61090 0.80370 0.43200
C 	C 	0.19220 0.45290 0.65400 0.37400
O 	O 	0.04620 0.60620 0.85000 -0.44700
O 	O 	0.04530 0.63400 0.77140 -0.48000
O 	O 	0.19270 0.45120 0.60420 -0.46700
O 	O 	0.21180 0.43460 0.68570 -0.41500
C 	C 	0.35640 0.29550 0.69580 -0.07200
H 	H 	0.35920 0.29000 0.65980 0.06900
C 	C 	0.33140 0.32180 0.72150 -0.02400
C 	C 	0.32940 0.32530 0.77610 -0.02800
H 	H 	0.31220 0.34410 0.78960 0.06600
C 	C 	0.35060 0.30370 0.81260 -0.06500
H 	H 	0.34850 0.30870 0.84890 0.06100
C 	C 	0.37450 0.27510 0.79470 0.01500
C 	C 	0.37650 0.27960 0.74040 0.05700
C 	C 	0.39980 0.25170 0.71830 -0.10300
H 	H 	0.40260 0.24720 0.68200 0.07100
C 	C 	0.41900 0.23050 0.75870 0.01000
H 	H 	0.43630 0.21200 0.74450 0.03900
C 	C 	0.41940 0.22970 0.81460 -0.07200
C 	C 	0.39250 0.25570 0.83730 -0.02700
H 	H 	0.38820 0.25870 0.87490 0.05600
C 	C 	0.29940 0.34850 0.68930 0.31700
C 	C 	0.44680 0.19920 0.84030 0.32600
O 	O 	0.30240 0.34880 0.64110 -0.37500
O 	O 	0.28030 0.37080 0.71660 -0.35700
O 	O 	0.44320 0.19700 0.89080 -0.33400
O 	O 	0.47020 0.18100 0.81190 -0.50400
C 	C 	0.02190 0.67770 0.32020 -0.00100
H 	H 	0.00850 0.69370 0.34610 0.04300
C 	C 	0.01440 0.68350 0.26640 -0.11300
C 	C 	0.03600 0.66210 0.22880 0.04200
H 	H 	0.03440 0.66850 0.19290 0.03700
C 	C 	0.06000 0.63120 0.24490 -0.11200
H 	H 	0.06760 0.61140 0.22020 0.07700
C 	C 	0.06860 0.62670 0.29700 0.06900
C 	C 	0.04940 0.64930 0.33660 -0.00800
C 	C 	0.05690 0.64060 0.38930 -0.04700
H 	H 	0.04390 0.65450 0.41760 0.05000
C 	C 	0.08250 0.61060 0.40350 -0.02600
H 	H 	0.09230 0.60430 0.43840 0.06100
C 	C 	0.10140 0.58890 0.36390 -0.02600
C 	C 	0.09420 0.59630 0.31100 -0.08000
H 	H 	0.10860 0.58030 0.28610 0.07800
C 	C 	0.98730 0.71500 0.24650 0.41200
C 	C 	0.13190 0.55550 0.37340 0.29500
O 	O 	0.97960 0.74310 0.27390 -0.47200
O 	O 	0.97750 0.71190 0.19890 -0.43500
O 	O 	0.15310 0.53590 0.34510 -0.36000
O 	O 	0.12990 0.54760 0.42370 -0.34600
Cd	Cd	0.25214 0.89656 0.13496 1.23000
Cd	Cd	0.18019 0.99939 0.91463 1.23500
Cd	Cd	0.21801 0.94610 0.02117 1.24500
C 	C 	0.10460 0.91280 0.03490 -0.06200
H 	H 	0.12310 0.92720 0.05460 0.06100
C 	C 	0.10320 0.91810 0.98550 -0.02900
C 	C 	0.07470 0.89310 0.94910 -0.02100
H 	H 	0.07260 0.89690 0.91130 0.05800
C 	C 	0.05170 0.86410 0.98080 -0.07300
H 	H 	0.03600 0.84640 0.96210 0.06200
C 	C 	0.05170 0.86180 0.02930 0.03200
C 	C 	0.07830 0.88470 0.06380 0.03000
C 	C 	0.07880 0.87890 0.11900 -0.07900
H 	H 	0.10010 0.89070 0.13960 0.06300
C 	C 	0.05250 0.85450 0.14180 0.00500
H 	H 	0.05280 0.85150 0.17860 0.04400
C 	C 	0.02470 0.83350 0.11180 -0.05900
C 	C 	0.02340 0.83610 0.05780 -0.05400
H 	H 	0.00460 0.82160 0.03870 0.06600
C 	C 	0.13090 0.94360 0.94990 0.30200
C 	C 	0.99110 0.80620 0.13500 0.35500
O 	O 	0.12370 0.94870 0.90480 -0.35000
O 	O 	0.15600 0.96150 0.98290 -0.48900
O 	O 	0.99590 0.80670 0.18760 -0.42800
O 	O 	0.97220 0.78390 0.11100 -0.42700
C 	C 	0.09180 0.07510 0.23450 -0.00500
H 	H 	0.07980 0.09150 0.20990 0.04800
C 	C 	0.08470 0.07920 0.28440 -0.10100
C 	C 	0.09850 0.05000 0.32240 0.03500
H 	H 	0.09200 0.05220 0.35950 0.03700
C 	C 	0.12320 0.02210 0.30220 -0.10800
H 	H 	0.13470 0.00460 0.32580 0.07200
C 	C 	0.13200 0.01820 0.24970 0.05300
C 	C 	0.11850 0.04490 0.21690 0.00100
C 	C 	0.12510 0.04390 0.15880 -0.06400
H 	H 	0.11250 0.06150 0.13640 0.05900
C 	C 	0.15240 0.01400 0.13750 -0.01000
H 	H 	0.16130 0.01360 0.10110 0.04700
C 	C 	0.16620 0.98530 0.17670 -0.06000
C 	C 	0.15750 0.98820 0.22880 -0.05500
H 	H 	0.16830 0.97020 0.25210 0.07100
C 	C 	0.05590 0.11090 0.30370 0.43200
C 	C 	0.19220 0.95290 0.15400 0.37400
O 	O 	0.04620 0.10620 0.35000 -0.44700
O 	O 	0.04530 0.13400 0.27140 -0.48100
O 	O 	0.19270 0.95120 0.10420 -0.46800
O 	O 	0.21180 0.93460 0.18570 -0.41500
C 	C 	0.35640 0.79550 0.19580 -0.07200
H 	H 	0.35920 0.79000 0.15980 0.06800
C 	C 	0.33140 0.82180 0.22150 -0.02400
C 	C 	0.32940 0.82530 0.27610 -0.02800
H 	H 	0.31220 0.84410 0.28960 0.06600
C 	C 	0.35060 0.80370 0.31260 -0.06500
H 	H 	0.34850 0.80870 0.34890 0.06100
C 	C 	0.37450 0.77510 0.29470 0.01500
C 	C 	0.37650 0.77960 0.24040 0.05700
C 	C 	0.39980 0.75170 0.21830 -0.10300
H 	H 	0.40260 0.74720 0.18200 0.07100
C 	C 	0.41900 0.73050 0.25870 0.01000
H 	H 	0.43630 0.71200 0.24450 0.03900
C 	C 	0.41940 0.72970 0.31460 -0.07200
C 	C 	0.39250 0.75570 0.33730 -0.02700
H 	H 	0.38820 0.75870 0.37490 0.05600
C 	C 	0.29940 0.84850 0.18930 0.31700
C 	C 	0.44680 0.69920 0.34030 0.32600
O 	O 	0.30240 0.84880 0.14110 -0.37600
O 	O 	0.28030 0.87080 0.21660 -0.35800
O 	O 	0.44320 0.69700 0.39080 -0.33500
O 	O 	0.47020 0.68100 0.31190 -0.50400
C 	C 	0.02190 0.17770 0.82020 -0.00100
H 	H 	0.00850 0.19370 0.84610 0.04300
C 	C 	0.01440 0.18350 0.76640 -0.11200
C 	C 	0.03600 0.16210 0.72880 0.04200
H 	H 	0.03440 0.16850 0.69290 0.03700
C 	C 	0.06000 0.13120 0.74490 -0.11100
H 	H 	0.06760 0.11140 0.72020 0.07700
C 	C 	0.06860 0.12670 0.79700 0.06900
C 	C 	0.04940 0.14930 0.83660 -0.00800
C 	C 	0.05690 0.14060 0.88930 -0.04700
H 	H 	0.04390 0.15450 0.91760 0.05100
C 	C 	0.08250 0.11060 0.90350 -0.02500
H 	H 	0.09230 0.10430 0.93840 0.06200
C 	C 	0.10140 0.08890 0.86390 -0.02600
C 	C 	0.09420 0.09630 0.81100 -0.08000
H 	H 	0.10860 0.08030 0.78610 0.07800
C 	C 	0.98730 0.21500 0.74650 0.41200
C 	C 	0.13190 0.05550 0.87340 0.29500
O 	O 	0.97960 0.24310 0.77390 -0.47200
O 	O 	0.97750 0.21190 0.69890 -0.43400
O 	O 	0.15310 0.03590 0.84510 -0.36000
O 	O 	0.12990 0.04760 0.92370 -0.34600
