data_crystal

_cell_length_a 33.48000
_cell_length_b 33.48000
_cell_length_c 105.59000
_cell_angle_alpha 90.00000
_cell_angle_beta  90.00000
_cell_angle_gamma 120.00000

_symmetry_space_group_name_	'P 1'
_symmetry_space_group_name_H-M	'P 1'

loop_
_symmetry_equiv_pos_as_xyz
  x,y,z

loop_
_atom_site_label
_atom_site_type_symbol
_atom_site_fract_x
_atom_site_fract_y
_atom_site_fract_z
_atom_site_charge
Zn	Zn	0.77898 0.40121 0.03962 1.22800
O 	O 	0.72220 0.38170 0.03097 -0.67300
O 	O 	0.82570 0.41850 0.02634 -0.46900
O 	O 	0.79640 0.45510 0.04914 -0.48300
O 	O 	0.78400 0.35940 0.05005 -0.51400
Zn	Zn	0.73910 0.44170 0.02340 1.23100
C 	C 	0.82230 0.44130 0.01729 0.37600
C 	C 	0.78570 0.48650 0.04567 0.33300
O 	O 	0.79580 0.45590 0.01466 -0.48900
O 	O 	0.75970 0.48550 0.03682 -0.48400
O 	O 	0.70890 0.46090 0.01148 -0.50800
O 	O 	0.67930 0.38790 0.05389 -0.49200
C 	C 	0.85940 0.45080 0.00707 -0.10500
C 	C 	0.80470 0.52810 0.05462 -0.09000
C 	C 	0.86180 0.47490 0.99556 0.05200
C 	C 	0.89150 0.43820 0.00822 0.05700
C 	C 	0.83300 0.53360 0.06569 0.03000
C 	C 	0.80120 0.56570 0.05127 0.03100
C 	C 	0.89420 0.48360 0.98717 -0.12700
H 	H 	0.84000 0.48450 0.99400 0.02800
H 	H 	0.89080 0.42190 0.01570 0.03400
C 	C 	0.92560 0.44700 0.99940 -0.13600
C 	C 	0.85180 0.57310 0.07317 -0.11900
H 	H 	0.83880 0.50940 0.06790 0.03000
H 	H 	0.78720 0.56600 0.04350 0.03700
C 	C 	0.81880 0.60500 0.05963 -0.12000
C 	C 	0.92680 0.46910 0.98817 0.09200
H 	H 	0.89570 0.50110 0.97990 0.08600
H 	H 	0.94790 0.43800 0.00100 0.07600
C 	C 	0.84350 0.60790 0.07022 0.08800
H 	H 	0.87030 0.57580 0.08030 0.08100
H 	H 	0.81310 0.62940 0.05770 0.06900
C 	C 	0.96030 0.47510 0.97818 -0.04500
C 	C 	0.85880 0.64980 0.07836 -0.03600
H 	H 	0.99210 0.49410 0.98140 0.05000
H 	H 	0.95590 0.44460 0.97570 0.05600
O 	O 	0.95390 0.49650 0.96774 -0.19700
H 	H 	0.87570 0.67810 0.07320 0.04300
H 	H 	0.83170 0.64960 0.08220 0.05200
O 	O 	0.88750 0.64890 0.08787 -0.21300
C 	C 	0.99030 0.51770 0.95921 0.10500
C 	C 	0.90770 0.68550 0.09548 0.13700
C 	C 	0.02450 0.50550 0.95893 -0.07600
C 	C 	0.98180 0.53810 0.94822 0.01500
C 	C 	0.89680 0.71960 0.09558 -0.11200
C 	C 	0.93120 0.68000 0.10635 -0.01400
H 	H 	0.02350 0.48290 0.96460 0.06400
C 	C 	0.06030 0.52720 0.95016 -0.08900
C 	C 	0.01690 0.55820 0.93991 -0.04300
C 	C 	0.94380 0.54690 0.94580 -0.09400
C 	C 	0.91840 0.75540 0.10500 -0.05100
H 	H 	0.87570 0.71980 0.08960 0.07500
C 	C 	0.95260 0.71410 0.11521 -0.01400
C 	C 	0.94340 0.64360 0.10815 -0.07500
H 	H 	0.08790 0.52590 0.95110 0.06600
C 	C 	0.05440 0.55150 0.93969 0.14400
C 	C 	0.00860 0.58800 0.93026 -0.04800
H 	H 	0.91820 0.53130 0.95210 0.06500
C 	C 	0.92900 0.53380 0.93350 0.04600
C 	C 	0.96650 0.59760 0.94650 0.04400
C 	C 	0.94550 0.74980 0.11540 0.09500
H 	H 	0.91540 0.78210 0.10460 0.05300
C 	C 	0.98260 0.71120 0.12437 -0.05900
H 	H 	0.92870 0.61840 0.10170 0.06400
C 	C 	0.99210 0.66390 0.10855 0.04500
C 	C 	0.92510 0.62680 0.12191 0.03000
O 	O 	0.08660 0.57250 0.93094 -0.22700
H 	H 	0.03380 0.60350 0.92380 0.05200
C 	C 	0.96180 0.55320 0.92450 0.00600
C 	C 	0.00020 0.62010 0.93760 0.01200
C 	C 	0.88460 0.50370 0.92940 -0.08300
C 	C 	0.95420 0.62330 0.95450 -0.08600
O 	O 	0.96260 0.78690 0.12418 -0.19100
H 	H 	0.99880 0.73880 0.13000 0.05800
C 	C 	0.01370 0.69990 0.11726 0.01300
C 	C 	0.94770 0.66600 0.13138 0.01900
C 	C 	0.02010 0.65220 0.10137 -0.08800
C 	C 	0.89520 0.58230 0.12564 -0.07700
C 	C 	0.12000 0.56450 0.93005 0.01500
C 	C 	0.94930 0.54070 0.91050 -0.06800
C 	C 	0.02370 0.66290 0.93583 -0.05600
C 	C 	0.87770 0.49170 0.91400 -0.04200
H 	H 	0.85930 0.49060 0.93510 0.05500
C 	C 	0.97820 0.66860 0.95360 -0.00700
H 	H 	0.92950 0.60850 0.96040 0.05900
C 	C 	0.94450 0.81570 0.12557 -0.05700
C 	C 	0.05860 0.72170 0.11860 -0.06400
C 	C 	0.93680 0.65550 0.14378 -0.06900
H 	H 	0.00550 0.62650 0.09580 0.06700
C 	C 	0.06670 0.67530 0.10190 -0.01500
H 	H 	0.88120 0.55790 0.11970 0.06200
C 	C 	0.88610 0.57440 0.13864 -0.02600
H 	H 	0.10690 0.53090 0.92890 0.03800
H 	H 	0.13680 0.57290 0.93820 0.03700
C 	C 	0.15430 0.58900 0.91969 0.08300
H 	H 	0.97250 0.55500 0.90420 0.04900
C 	C 	0.90580 0.50960 0.90700 -0.01700
H 	H 	0.04780 0.67500 0.92970 0.04700
C 	C 	0.01390 0.69370 0.94300 -0.05100
H 	H 	0.84830 0.46850 0.91110 0.04100
H 	H 	0.97330 0.68650 0.95970 0.03300
H 	H 	0.91040 0.79740 0.12600 0.05900
H 	H 	0.95320 0.83700 0.11830 0.05100
C 	C 	0.96340 0.84180 0.13730 0.11100
C 	C 	0.08440 0.70810 0.11120 -0.03500
H 	H 	0.07340 0.74650 0.12440 0.05100
C 	C 	0.90570 0.61320 0.14751 -0.03100
H 	H 	0.95180 0.67900 0.15000 0.05200
H 	H 	0.08540 0.66940 0.09630 0.03500
H 	H 	0.86730 0.54390 0.14170 0.04200
C 	C 	0.14280 0.61030 0.91042 -0.12200
C 	C 	0.19790 0.59220 0.91853 -0.14600
H 	H 	0.89920 0.50290 0.89830 0.03100
H 	H 	0.02800 0.72590 0.94140 0.04400
C 	C 	0.95270 0.87700 0.14120 -0.16100
C 	C 	0.98520 0.83140 0.14580 -0.13500
H 	H 	0.11660 0.72260 0.11280 0.04000
H 	H 	0.89600 0.60810 0.15610 0.04200
H 	H 	0.11400 0.60920 0.91100 0.08700
C 	C 	0.17140 0.63350 0.90009 0.07100
C 	C 	0.22480 0.61460 0.90838 0.09800
H 	H 	0.20830 0.57900 0.92480 0.08300
H 	H 	0.93580 0.88650 0.13600 0.08300
C 	C 	0.96900 0.89600 0.15328 0.11400
C 	C 	0.00730 0.85840 0.15779 0.06800
H 	H 	0.98740 0.80450 0.14440 0.09200
H 	H 	0.16180 0.64670 0.89370 0.02600
C 	C 	0.21530 0.63660 0.89959 -0.16000
H 	H 	0.25290 0.61430 0.90750 0.01100
H 	H 	0.95980 0.91720 0.15600 0.01300
C 	C 	0.99420 0.88970 0.16117 -0.18300
H 	H 	0.02870 0.85400 0.16260 0.02400
C 	C 	0.24730 0.66350 0.88920 0.42400
C 	C 	0.01540 0.91840 0.17190 0.43700
O 	O 	0.99340 0.93650 0.17579 -0.33900
Zn	Zn	0.44565 0.73454 0.37295 1.22700
O 	O 	0.38887 0.71503 0.36430 -0.67400
O 	O 	0.49237 0.75183 0.35967 -0.47000
O 	O 	0.46307 0.78843 0.38247 -0.48400
O 	O 	0.45067 0.69273 0.38338 -0.51500
Zn	Zn	0.40577 0.77503 0.35673 1.23000
C 	C 	0.48897 0.77463 0.35062 0.37500
C 	C 	0.45237 0.81983 0.37900 0.33200
O 	O 	0.46247 0.78923 0.34799 -0.49000
O 	O 	0.42637 0.81883 0.37015 -0.48400
O 	O 	0.37557 0.79423 0.34481 -0.50900
O 	O 	0.34597 0.72123 0.38722 -0.49300
C 	C 	0.52607 0.78413 0.34040 -0.10600
C 	C 	0.47137 0.86143 0.38795 -0.09000
C 	C 	0.52847 0.80823 0.32889 0.05000
C 	C 	0.55817 0.77153 0.34155 0.05500
C 	C 	0.49967 0.86693 0.39902 0.02800
C 	C 	0.46787 0.89903 0.38460 0.02900
C 	C 	0.56087 0.81693 0.32050 -0.12800
H 	H 	0.50667 0.81783 0.32733 0.02700
H 	H 	0.55747 0.75523 0.34903 0.03300
C 	C 	0.59227 0.78033 0.33273 -0.13600
C 	C 	0.51847 0.90643 0.40650 -0.11700
H 	H 	0.50547 0.84273 0.40123 0.02900
H 	H 	0.45387 0.89933 0.37683 0.03700
C 	C 	0.48547 0.93833 0.39296 -0.11800
C 	C 	0.59347 0.80243 0.32150 0.09000
H 	H 	0.56237 0.83443 0.31323 0.08400
H 	H 	0.61457 0.77133 0.33433 0.07400
C 	C 	0.51017 0.94123 0.40355 0.08400
H 	H 	0.53697 0.90913 0.41363 0.07900
H 	H 	0.47977 0.96273 0.39103 0.06800
C 	C 	0.62697 0.80843 0.31151 -0.04500
C 	C 	0.52547 0.98313 0.41169 -0.02700
H 	H 	0.65877 0.82743 0.31473 0.04700
H 	H 	0.62257 0.77793 0.30903 0.05400
O 	O 	0.62057 0.82983 0.30107 -0.19600
H 	H 	0.54237 0.01143 0.40653 0.03600
H 	H 	0.49837 0.98293 0.41553 0.05100
O 	O 	0.55417 0.98223 0.42120 -0.21200
C 	C 	0.65697 0.85103 0.29254 0.10100
C 	C 	0.57437 0.01883 0.42881 0.13800
C 	C 	0.69117 0.83883 0.29226 -0.06900
C 	C 	0.64847 0.87143 0.28155 0.00900
C 	C 	0.56347 0.05293 0.42891 -0.11500
C 	C 	0.59787 0.01333 0.43968 -0.02700
H 	H 	0.69017 0.81623 0.29793 0.06300
C 	C 	0.72697 0.86053 0.28349 -0.09000
C 	C 	0.68357 0.89153 0.27324 -0.03800
C 	C 	0.61047 0.88023 0.27913 -0.08900
C 	C 	0.58507 0.08873 0.43833 -0.04800
H 	H 	0.54237 0.05313 0.42293 0.07500
C 	C 	0.61927 0.04743 0.44854 -0.00400
C 	C 	0.61007 0.97693 0.44148 -0.05400
H 	H 	0.75457 0.85923 0.28443 0.06700
C 	C 	0.72107 0.88483 0.27302 0.14400
C 	C 	0.67527 0.92133 0.26359 -0.04600
H 	H 	0.58487 0.86463 0.28543 0.06400
C 	C 	0.59567 0.86713 0.26683 0.04500
C 	C 	0.63317 0.93093 0.27983 0.03500
C 	C 	0.61217 0.08313 0.44873 0.09000
H 	H 	0.58207 0.11543 0.43793 0.05100
C 	C 	0.64927 0.04453 0.45770 -0.08100
H 	H 	0.59537 0.95173 0.43503 0.05800
C 	C 	0.65877 0.99723 0.44188 0.01800
C 	C 	0.59177 0.96013 0.45524 0.02400
O 	O 	0.75327 0.90583 0.26427 -0.22600
H 	H 	0.70047 0.93683 0.25713 0.05200
C 	C 	0.62847 0.88653 0.25783 0.00200
C 	C 	0.66687 0.95343 0.27093 0.01600
C 	C 	0.55127 0.83703 0.26273 -0.08300
C 	C 	0.62087 0.95663 0.28783 -0.07100
O 	O 	0.62927 0.12023 0.45751 -0.18900
H 	H 	0.66547 0.07213 0.46333 0.06200
C 	C 	0.68037 0.03323 0.45059 0.03900
C 	C 	0.61437 0.99933 0.46471 0.02600
C 	C 	0.68677 0.98553 0.43470 -0.05100
C 	C 	0.56187 0.91563 0.45897 -0.07300
C 	C 	0.78667 0.89783 0.26338 0.01500
C 	C 	0.61597 0.87403 0.24383 -0.06600
C 	C 	0.69037 0.99623 0.26916 -0.04500
C 	C 	0.54437 0.82503 0.24733 -0.04000
H 	H 	0.52597 0.82393 0.26843 0.05600
C 	C 	0.64487 0.00193 0.28693 -0.02400
H 	H 	0.59617 0.94183 0.29373 0.05500
C 	C 	0.61117 0.14903 0.45890 -0.06500
C 	C 	0.72527 0.05503 0.45193 -0.09000
C 	C 	0.60347 0.98883 0.47711 -0.06400
H 	H 	0.67217 0.95983 0.42913 0.05800
C 	C 	0.73337 0.00863 0.43523 -0.04800
H 	H 	0.54787 0.89123 0.45303 0.06000
C 	C 	0.55277 0.90773 0.47197 -0.02700
H 	H 	0.77357 0.86423 0.26223 0.03900
H 	H 	0.80347 0.90623 0.27153 0.03700
C 	C 	0.82097 0.92233 0.25302 0.08400
H 	H 	0.63917 0.88833 0.23753 0.04800
C 	C 	0.57247 0.84293 0.24033 -0.01900
H 	H 	0.71447 0.00833 0.26303 0.04100
C 	C 	0.68057 0.02703 0.27633 -0.05000
H 	H 	0.51497 0.80183 0.24443 0.04000
H 	H 	0.63997 0.01983 0.29303 0.03600
H 	H 	0.57707 0.13073 0.45933 0.06200
H 	H 	0.61987 0.17033 0.45163 0.05200
C 	C 	0.63007 0.17513 0.47063 0.12300
C 	C 	0.75107 0.04143 0.44453 -0.01000
H 	H 	0.74007 0.07983 0.45773 0.06100
C 	C 	0.57237 0.94653 0.48084 -0.03200
H 	H 	0.61847 0.01233 0.48333 0.04600
H 	H 	0.75207 0.00273 0.42963 0.04500
H 	H 	0.53397 0.87723 0.47503 0.04200
C 	C 	0.80947 0.94363 0.24375 -0.12200
C 	C 	0.86457 0.92553 0.25186 -0.14600
H 	H 	0.56587 0.83623 0.23163 0.03100
H 	H 	0.69467 0.05923 0.27473 0.04400
C 	C 	0.61937 0.21033 0.47453 -0.17800
C 	C 	0.65187 0.16473 0.47913 -0.15500
H 	H 	0.78327 0.05593 0.44613 0.03200
H 	H 	0.56267 0.94143 0.48943 0.04400
H 	H 	0.78067 0.94253 0.24433 0.08800
C 	C 	0.83807 0.96683 0.23342 0.07200
C 	C 	0.89147 0.94793 0.24171 0.10000
H 	H 	0.87497 0.91233 0.25813 0.08400
H 	H 	0.60247 0.21983 0.46933 0.08800
C 	C 	0.63567 0.22933 0.48661 0.13600
C 	C 	0.67397 0.19173 0.49112 0.09500
H 	H 	0.65407 0.13783 0.47773 0.09700
H 	H 	0.82847 0.98003 0.22703 0.02700
C 	C 	0.88197 0.96993 0.23292 -0.16100
H 	H 	0.91957 0.94763 0.24083 0.01200
H 	H 	0.62647 0.25053 0.48933 0.00500
C 	C 	0.66087 0.22303 0.49450 -0.21400
H 	H 	0.69537 0.18733 0.49593 0.01600
C 	C 	0.91397 0.99683 0.22253 0.43000
C 	C 	0.68207 0.25173 0.50523 0.45900
O 	O 	0.66007 0.26983 0.50912 -0.34900
Zn	Zn	0.11231 0.06788 0.70629 1.22700
O 	O 	0.05553 0.04837 0.69764 -0.67600
O 	O 	0.15903 0.08517 0.69301 -0.47000
O 	O 	0.12973 0.12177 0.71581 -0.48400
O 	O 	0.11733 0.02607 0.71672 -0.52100
Zn	Zn	0.07243 0.10837 0.69007 1.23000
C 	C 	0.15563 0.10797 0.68396 0.37500
C 	C 	0.11903 0.15317 0.71234 0.33300
O 	O 	0.12913 0.12257 0.68133 -0.49000
O 	O 	0.09303 0.15217 0.70349 -0.48600
O 	O 	0.04223 0.12757 0.67815 -0.50300
O 	O 	0.01263 0.05457 0.72056 -0.49400
C 	C 	0.19273 0.11747 0.67374 -0.10600
C 	C 	0.13803 0.19477 0.72129 -0.09100
C 	C 	0.19513 0.14157 0.66223 0.05000
C 	C 	0.22483 0.10487 0.67489 0.05500
C 	C 	0.16633 0.20027 0.73236 0.02900
C 	C 	0.13453 0.23237 0.71794 0.03000
C 	C 	0.22753 0.15027 0.65384 -0.12800
H 	H 	0.17333 0.15117 0.66067 0.02700
H 	H 	0.22413 0.08857 0.68237 0.03300
C 	C 	0.25893 0.11367 0.66607 -0.13600
C 	C 	0.18513 0.23977 0.73984 -0.11900
H 	H 	0.17213 0.17607 0.73457 0.02900
H 	H 	0.12053 0.23267 0.71017 0.03600
C 	C 	0.15213 0.27167 0.72630 -0.12100
C 	C 	0.26013 0.13577 0.65484 0.09000
H 	H 	0.22903 0.16777 0.64657 0.08400
H 	H 	0.28123 0.10467 0.66767 0.07300
C 	C 	0.17683 0.27457 0.73689 0.08700
H 	H 	0.20363 0.24247 0.74697 0.08000
H 	H 	0.14643 0.29607 0.72437 0.06700
C 	C 	0.29363 0.14177 0.64485 -0.04500
C 	C 	0.19213 0.31647 0.74503 -0.03600
H 	H 	0.32543 0.16077 0.64807 0.04700
H 	H 	0.28923 0.11127 0.64237 0.05400
O 	O 	0.28723 0.16317 0.63441 -0.19700
H 	H 	0.20903 0.34477 0.73987 0.04200
H 	H 	0.16503 0.31627 0.74887 0.05200
O 	O 	0.22083 0.31557 0.75454 -0.21400
C 	C 	0.32363 0.18437 0.62588 0.10200
C 	C 	0.24103 0.35217 0.76215 0.14100
C 	C 	0.35783 0.17217 0.62560 -0.07000
C 	C 	0.31513 0.20477 0.61489 0.00800
C 	C 	0.23013 0.38627 0.76225 -0.11500
C 	C 	0.26453 0.34667 0.77302 -0.02200
H 	H 	0.35683 0.14957 0.63127 0.06300
C 	C 	0.39363 0.19387 0.61683 -0.09000
C 	C 	0.35023 0.22487 0.60658 -0.03600
C 	C 	0.27713 0.21357 0.61247 -0.08500
C 	C 	0.25173 0.42207 0.77167 -0.04800
H 	H 	0.20903 0.38647 0.75627 0.07600
C 	C 	0.28593 0.38077 0.78188 -0.00600
C 	C 	0.27673 0.31027 0.77482 -0.06000
H 	H 	0.42123 0.19257 0.61777 0.06600
C 	C 	0.38773 0.21817 0.60636 0.14300
C 	C 	0.34193 0.25467 0.59693 -0.05200
H 	H 	0.25153 0.19797 0.61877 0.06200
C 	C 	0.26233 0.20047 0.60017 0.04200
C 	C 	0.29983 0.26427 0.61317 0.03000
C 	C 	0.27883 0.41647 0.78207 0.09100
H 	H 	0.24873 0.44877 0.77127 0.05100
C 	C 	0.31593 0.37787 0.79104 -0.07700
H 	H 	0.26203 0.28507 0.76837 0.05900
C 	C 	0.32543 0.33057 0.77522 0.01800
C 	C 	0.25843 0.29347 0.78858 0.02400
O 	O 	0.41993 0.23917 0.59761 -0.22700
H 	H 	0.36713 0.27017 0.59047 0.05300
C 	C 	0.29513 0.21987 0.59117 0.00500
C 	C 	0.33353 0.28677 0.60427 0.02700
C 	C 	0.21793 0.17037 0.59607 -0.08000
C 	C 	0.28753 0.28997 0.62117 -0.07400
O 	O 	0.29593 0.45357 0.79085 -0.18900
H 	H 	0.33213 0.40547 0.79667 0.06100
C 	C 	0.34703 0.36657 0.78393 0.04000
C 	C 	0.28103 0.33267 0.79805 0.02500
C 	C 	0.35343 0.31887 0.76804 -0.06200
C 	C 	0.22853 0.24897 0.79231 -0.07200
C 	C 	0.45333 0.23117 0.59672 0.01500
C 	C 	0.28263 0.20737 0.57717 -0.07000
C 	C 	0.35703 0.32957 0.60250 -0.06800
C 	C 	0.21103 0.15837 0.58067 -0.04500
H 	H 	0.19263 0.15727 0.60177 0.05400
C 	C 	0.31153 0.33527 0.62027 -0.02200
H 	H 	0.26283 0.27517 0.62707 0.05400
C 	C 	0.27783 0.48237 0.79224 -0.06500
C 	C 	0.39193 0.38837 0.78527 -0.08700
C 	C 	0.27013 0.32217 0.81045 -0.07500
H 	H 	0.33883 0.29317 0.76247 0.06100
C 	C 	0.40003 0.34197 0.76857 -0.03600
H 	H 	0.21453 0.22457 0.78637 0.06000
C 	C 	0.21943 0.24107 0.80531 -0.03000
H 	H 	0.44023 0.19757 0.59557 0.03900
H 	H 	0.47013 0.23957 0.60487 0.03700
C 	C 	0.48763 0.25567 0.58636 0.08300
H 	H 	0.30583 0.22167 0.57087 0.04800
C 	C 	0.23913 0.17627 0.57367 -0.01400
H 	H 	0.38113 0.34167 0.59637 0.05200
C 	C 	0.34723 0.36037 0.60967 -0.03700
H 	H 	0.18163 0.13517 0.57777 0.04100
H 	H 	0.30663 0.35317 0.62637 0.03600
H 	H 	0.24373 0.46407 0.79267 0.06200
H 	H 	0.28653 0.50367 0.78497 0.05200
C 	C 	0.29673 0.50847 0.80397 0.12300
C 	C 	0.41773 0.37477 0.77787 -0.01500
H 	H 	0.40673 0.41317 0.79107 0.06000
C 	C 	0.23903 0.27987 0.81418 -0.02700
H 	H 	0.28513 0.34567 0.81667 0.05300
H 	H 	0.41873 0.33607 0.76297 0.04300
H 	H 	0.20063 0.21057 0.80837 0.04300
C 	C 	0.47613 0.27697 0.57709 -0.12200
C 	C 	0.53123 0.25887 0.58520 -0.14600
H 	H 	0.23253 0.16957 0.56497 0.02900
H 	H 	0.36133 0.39257 0.60807 0.04000
C 	C 	0.28603 0.54367 0.80787 -0.17800
C 	C 	0.31853 0.49807 0.81247 -0.15500
H 	H 	0.44993 0.38927 0.77947 0.03400
H 	H 	0.22933 0.27477 0.82277 0.04100
H 	H 	0.44733 0.27587 0.57767 0.08700
C 	C 	0.50473 0.30017 0.56676 0.07100
C 	C 	0.55813 0.28127 0.57505 0.09800
H 	H 	0.54163 0.24567 0.59147 0.08300
H 	H 	0.26913 0.55317 0.80267 0.08800
C 	C 	0.30233 0.56267 0.81995 0.13600
C 	C 	0.34063 0.52507 0.82446 0.09500
H 	H 	0.32073 0.47117 0.81107 0.09700
H 	H 	0.49513 0.31337 0.56037 0.02600
C 	C 	0.54863 0.30327 0.56626 -0.16000
H 	H 	0.58623 0.28097 0.57417 0.01100
H 	H 	0.29313 0.58387 0.82267 0.00500
C 	C 	0.32753 0.55637 0.82784 -0.21300
H 	H 	0.36203 0.52067 0.82927 0.01600
C 	C 	0.58063 0.33017 0.55587 0.42400
C 	C 	0.34873 0.58507 0.83857 0.45900
O 	O 	0.32673 0.60317 0.84246 -0.34900
Zn	Zn	0.59879 0.37777 0.03962 1.22700
O 	O 	0.61830 0.34050 0.03097 -0.67400
O 	O 	0.58150 0.40720 0.02634 -0.47000
O 	O 	0.54490 0.34130 0.04914 -0.48400
O 	O 	0.64060 0.42460 0.05005 -0.51500
Zn	Zn	0.55830 0.29740 0.02340 1.23000
C 	C 	0.55870 0.38100 0.01729 0.37500
C 	C 	0.51350 0.29920 0.04567 0.33200
O 	O 	0.54410 0.33990 0.01466 -0.49000
O 	O 	0.51450 0.27420 0.03682 -0.48500
O 	O 	0.53910 0.24800 0.01148 -0.50900
O 	O 	0.61210 0.29140 0.05389 -0.49300
C 	C 	0.54920 0.40860 0.00707 -0.10600
C 	C 	0.47190 0.27660 0.05462 -0.09100
C 	C 	0.52510 0.38690 0.99556 0.05000
C 	C 	0.56180 0.45330 0.00822 0.05500
C 	C 	0.46640 0.29940 0.06569 0.02900
C 	C 	0.43430 0.23550 0.05127 0.03000
C 	C 	0.51640 0.41060 0.98717 -0.12800
H 	H 	0.51550 0.35550 0.99400 0.02700
H 	H 	0.57810 0.46890 0.01570 0.03300
C 	C 	0.55300 0.47860 0.99940 -0.13600
C 	C 	0.42690 0.27870 0.07317 -0.11900
H 	H 	0.49060 0.32940 0.06790 0.02900
H 	H 	0.43400 0.22120 0.04350 0.03600
C 	C 	0.39500 0.21380 0.05963 -0.12000
C 	C 	0.53090 0.45770 0.98817 0.09000
H 	H 	0.49890 0.39460 0.97990 0.08400
H 	H 	0.56200 0.50990 0.00100 0.07400
C 	C 	0.39210 0.23560 0.07022 0.08700
H 	H 	0.42420 0.29450 0.08030 0.08000
H 	H 	0.37060 0.18370 0.05770 0.06700
C 	C 	0.52490 0.48520 0.97818 -0.04500
C 	C 	0.35020 0.20900 0.07836 -0.03600
H 	H 	0.50590 0.49800 0.98140 0.04700
H 	H 	0.55540 0.51130 0.97570 0.05400
O 	O 	0.50350 0.45740 0.96774 -0.19700
H 	H 	0.32190 0.19760 0.07320 0.04200
H 	H 	0.35040 0.18210 0.08220 0.05200
O 	O 	0.35110 0.23860 0.08787 -0.21400
C 	C 	0.48230 0.47260 0.95921 0.10100
C 	C 	0.31450 0.22220 0.09548 0.14100
C 	C 	0.49450 0.51900 0.95893 -0.07000
C 	C 	0.46190 0.44370 0.94822 0.00800
C 	C 	0.28040 0.17720 0.09558 -0.11500
C 	C 	0.32000 0.25120 0.10635 -0.02200
H 	H 	0.51710 0.54060 0.96460 0.06300
C 	C 	0.47280 0.53310 0.95016 -0.09000
C 	C 	0.44180 0.45870 0.93991 -0.03600
C 	C 	0.45310 0.39690 0.94580 -0.08600
C 	C 	0.24460 0.16300 0.10500 -0.04800
H 	H 	0.28020 0.15590 0.08960 0.07600
C 	C 	0.28590 0.23850 0.11521 -0.00600
C 	C 	0.35640 0.29980 0.10815 -0.06000
H 	H 	0.47410 0.56200 0.95110 0.06600
C 	C 	0.44850 0.50290 0.93969 0.14300
C 	C 	0.41200 0.42060 0.93026 -0.05200
H 	H 	0.46870 0.38690 0.95210 0.06300
C 	C 	0.46620 0.39520 0.93350 0.04200
C 	C 	0.40240 0.36890 0.94650 0.03000
C 	C 	0.25020 0.19570 0.11540 0.09100
H 	H 	0.21790 0.13330 0.10460 0.05100
C 	C 	0.28880 0.27140 0.12437 -0.07700
H 	H 	0.38160 0.31030 0.10170 0.05900
C 	C 	0.33610 0.32820 0.10855 0.01800
C 	C 	0.37320 0.29830 0.12191 0.02400
O 	O 	0.42750 0.51410 0.93094 -0.22700
H 	H 	0.39650 0.43030 0.92380 0.05300
C 	C 	0.44680 0.40860 0.92450 0.00500
C 	C 	0.37990 0.38010 0.93760 0.02600
C 	C 	0.49630 0.38090 0.92940 -0.08100
C 	C 	0.37670 0.33090 0.95450 -0.07400
O 	O 	0.21310 0.17570 0.12418 -0.19000
H 	H 	0.26120 0.26000 0.13000 0.06100
C 	C 	0.30010 0.31380 0.11726 0.04000
C 	C 	0.33400 0.28170 0.13138 0.02500
C 	C 	0.34780 0.36790 0.10137 -0.06200
C 	C 	0.41770 0.31290 0.12564 -0.07200
C 	C 	0.43550 0.55550 0.93005 0.01500
C 	C 	0.45930 0.40860 0.91050 -0.07000
C 	C 	0.33710 0.36080 0.93583 -0.06800
C 	C 	0.50830 0.38600 0.91400 -0.04400
H 	H 	0.50940 0.36870 0.93510 0.05500
C 	C 	0.33140 0.30960 0.95360 -0.02100
H 	H 	0.39150 0.32100 0.96040 0.05500
C 	C 	0.18430 0.12880 0.12557 -0.06400
C 	C 	0.27830 0.33690 0.11860 -0.08700
C 	C 	0.34450 0.28130 0.14378 -0.07500
H 	H 	0.37350 0.37900 0.09580 0.06100
C 	C 	0.32470 0.39140 0.10190 -0.03600
H 	H 	0.44210 0.32330 0.11970 0.06000
C 	C 	0.42560 0.31170 0.13864 -0.03000
H 	H 	0.46910 0.57600 0.92890 0.03900
H 	H 	0.42710 0.56390 0.93820 0.03700
C 	C 	0.41100 0.56530 0.91969 0.08300
H 	H 	0.44500 0.41750 0.90420 0.04800
C 	C 	0.49040 0.39620 0.90700 -0.01400
H 	H 	0.32500 0.37280 0.92970 0.05200
C 	C 	0.30630 0.32020 0.94300 -0.03700
H 	H 	0.53150 0.37980 0.91110 0.04100
H 	H 	0.31350 0.28680 0.95970 0.03600
H 	H 	0.20260 0.11300 0.12600 0.06100
H 	H 	0.16300 0.11620 0.11830 0.05100
C 	C 	0.15820 0.12160 0.13730 0.12300
C 	C 	0.29190 0.37630 0.11120 -0.01500
H 	H 	0.25350 0.32690 0.12440 0.05900
C 	C 	0.38680 0.29250 0.14751 -0.02700
H 	H 	0.32100 0.27280 0.15000 0.05300
H 	H 	0.33060 0.41600 0.09630 0.04300
H 	H 	0.45610 0.32340 0.14170 0.04300
C 	C 	0.38970 0.53250 0.91042 -0.12200
C 	C 	0.40780 0.60570 0.91853 -0.14600
H 	H 	0.49710 0.39630 0.89830 0.03000
H 	H 	0.27410 0.30210 0.94140 0.04000
C 	C 	0.12300 0.07570 0.14120 -0.17800
C 	C 	0.16860 0.15380 0.14580 -0.15500
H 	H 	0.27740 0.39400 0.11280 0.03400
H 	H 	0.39190 0.28790 0.15610 0.04100
H 	H 	0.39080 0.50480 0.91100 0.08700
C 	C 	0.36650 0.53790 0.90009 0.07100
C 	C 	0.38540 0.61020 0.90838 0.09800
H 	H 	0.42100 0.62930 0.92480 0.08300
H 	H 	0.11350 0.04930 0.13600 0.08700
C 	C 	0.10400 0.07300 0.15328 0.13600
C 	C 	0.14160 0.14890 0.15779 0.09500
H 	H 	0.19550 0.18290 0.14440 0.09700
H 	H 	0.35330 0.51510 0.89370 0.02700
C 	C 	0.36340 0.57870 0.89959 -0.16000
H 	H 	0.38570 0.63860 0.90750 0.01100
H 	H 	0.08280 0.04260 0.15600 0.00400
C 	C 	0.11030 0.10450 0.16117 -0.21400
H 	H 	0.14600 0.17470 0.16260 0.01600
C 	C 	0.33650 0.58380 0.88920 0.42400
C 	C 	0.08160 0.09700 0.17190 0.45900
O 	O 	0.06350 0.05690 0.17579 -0.35100
Zn	Zn	0.26546 0.71110 0.37295 1.22700
O 	O 	0.28497 0.67383 0.36430 -0.67400
O 	O 	0.24817 0.74053 0.35967 -0.47000
O 	O 	0.21157 0.67463 0.38247 -0.48400
O 	O 	0.30727 0.75793 0.38338 -0.51500
Zn	Zn	0.22497 0.63073 0.35673 1.23000
C 	C 	0.22537 0.71433 0.35062 0.37500
C 	C 	0.18017 0.63253 0.37900 0.33300
O 	O 	0.21077 0.67323 0.34799 -0.49000
O 	O 	0.18117 0.60753 0.37015 -0.48500
O 	O 	0.20577 0.58133 0.34481 -0.51000
O 	O 	0.27877 0.62473 0.38722 -0.49300
C 	C 	0.21587 0.74193 0.34040 -0.10600
C 	C 	0.13857 0.60993 0.38795 -0.09200
C 	C 	0.19177 0.72023 0.32889 0.05000
C 	C 	0.22847 0.78663 0.34155 0.05500
C 	C 	0.13307 0.63273 0.39902 0.03000
C 	C 	0.10097 0.56883 0.38460 0.03100
C 	C 	0.18307 0.74393 0.32050 -0.12800
H 	H 	0.18217 0.68883 0.32733 0.02700
H 	H 	0.24477 0.80223 0.34903 0.03300
C 	C 	0.21967 0.81193 0.33273 -0.13600
C 	C 	0.09357 0.61203 0.40650 -0.12200
H 	H 	0.15727 0.66273 0.40123 0.02800
H 	H 	0.10067 0.55453 0.37683 0.03600
C 	C 	0.06167 0.54713 0.39296 -0.12300
C 	C 	0.19757 0.79103 0.32150 0.09000
H 	H 	0.16557 0.72793 0.31323 0.08400
H 	H 	0.22867 0.84323 0.33433 0.07400
C 	C 	0.05877 0.56893 0.40355 0.09000
H 	H 	0.09087 0.62783 0.41363 0.08100
H 	H 	0.03727 0.51703 0.39103 0.06700
C 	C 	0.19157 0.81853 0.31151 -0.04500
C 	C 	0.01687 0.54233 0.41169 -0.04500
H 	H 	0.17257 0.83133 0.31473 0.04700
H 	H 	0.22207 0.84463 0.30903 0.05400
O 	O 	0.17017 0.79073 0.30107 -0.19700
H 	H 	0.98857 0.53093 0.40653 0.04800
H 	H 	0.01707 0.51543 0.41553 0.05300
O 	O 	0.01777 0.57193 0.42120 -0.21600
C 	C 	0.14897 0.80593 0.29254 0.10200
C 	C 	0.98117 0.55553 0.42881 0.14300
C 	C 	0.16117 0.85233 0.29226 -0.07100
C 	C 	0.12857 0.77703 0.28155 0.00600
C 	C 	0.94707 0.51053 0.42891 -0.11600
C 	C 	0.98667 0.58453 0.43968 -0.01700
H 	H 	0.18377 0.87393 0.29793 0.06300
C 	C 	0.13947 0.86643 0.28349 -0.08900
C 	C 	0.10847 0.79203 0.27324 -0.03400
C 	C 	0.11977 0.73023 0.27913 -0.08200
C 	C 	0.91127 0.49633 0.43833 -0.04800
H 	H 	0.94687 0.48923 0.42293 0.07700
C 	C 	0.95257 0.57183 0.44854 -0.00700
C 	C 	0.02307 0.63313 0.44148 -0.06500
H 	H 	0.14077 0.89533 0.28443 0.06600
C 	C 	0.11517 0.83623 0.27302 0.14200
C 	C 	0.07867 0.75393 0.26359 -0.05800
H 	H 	0.13537 0.72023 0.28543 0.06200
C 	C 	0.13287 0.72853 0.26683 0.03900
C 	C 	0.06907 0.70223 0.27983 0.02600
C 	C 	0.91687 0.52903 0.44873 0.09100
H 	H 	0.88457 0.46663 0.43793 0.05100
C 	C 	0.95547 0.60473 0.45770 -0.07400
H 	H 	0.04827 0.64363 0.43503 0.06000
C 	C 	0.00277 0.66153 0.44188 0.01900
C 	C 	0.03987 0.63163 0.45524 0.02400
O 	O 	0.09417 0.84743 0.26427 -0.22700
H 	H 	0.06317 0.76363 0.25713 0.05400
C 	C 	0.11347 0.74193 0.25783 0.00800
C 	C 	0.04657 0.71343 0.27093 0.03700
C 	C 	0.16297 0.71423 0.26273 -0.07800
C 	C 	0.04337 0.66423 0.28783 -0.07700
O 	O 	0.87977 0.50903 0.45751 -0.18900
H 	H 	0.92787 0.59333 0.46333 0.06100
C 	C 	0.96677 0.64713 0.45059 0.04100
C 	C 	0.00067 0.61503 0.46471 0.02400
C 	C 	0.01447 0.70123 0.43470 -0.07200
C 	C 	0.08437 0.64623 0.45897 -0.07100
C 	C 	0.10217 0.88883 0.26338 0.01500
C 	C 	0.12597 0.74193 0.24383 -0.07300
C 	C 	0.00377 0.69413 0.26916 -0.09000
C 	C 	0.17497 0.71933 0.24733 -0.04800
H 	H 	0.17607 0.70203 0.26843 0.05400
C 	C 	0.99807 0.64293 0.28693 -0.01900
H 	H 	0.05817 0.65433 0.29373 0.05500
C 	C 	0.85097 0.46213 0.45890 -0.06500
C 	C 	0.94497 0.67023 0.45193 -0.08400
C 	C 	0.01117 0.61463 0.47711 -0.08500
H 	H 	0.04017 0.71233 0.42913 0.06400
C 	C 	0.99137 0.72473 0.43523 -0.02500
H 	H 	0.10877 0.65663 0.45303 0.05900
C 	C 	0.09227 0.64503 0.47197 -0.03300
H 	H 	0.13577 0.90933 0.26223 0.03900
H 	H 	0.09377 0.89723 0.27153 0.03700
C 	C 	0.07767 0.89863 0.25302 0.08200
H 	H 	0.11167 0.75083 0.23753 0.04900
C 	C 	0.15707 0.72953 0.24033 -0.01000
H 	H 	0.99167 0.70613 0.26303 0.06300
C 	C 	0.97297 0.65353 0.27633 -0.02500
H 	H 	0.19817 0.71313 0.24443 0.04300
H 	H 	0.98017 0.62013 0.29303 0.03700
H 	H 	0.86927 0.44633 0.45933 0.06200
H 	H 	0.82967 0.44953 0.45163 0.05200
C 	C 	0.82487 0.45493 0.47063 0.12300
C 	C 	0.95857 0.70963 0.44453 -0.02000
H 	H 	0.92017 0.66023 0.45773 0.05900
C 	C 	0.05347 0.62583 0.48084 -0.02100
H 	H 	0.98767 0.60613 0.48333 0.06000
H 	H 	0.99727 0.74933 0.42963 0.04100
H 	H 	0.12277 0.65673 0.47503 0.04400
C 	C 	0.05637 0.86583 0.24375 -0.12100
C 	C 	0.07447 0.93903 0.25186 -0.14500
H 	H 	0.16377 0.72963 0.23163 0.02800
H 	H 	0.94077 0.63543 0.27473 0.03700
C 	C 	0.78967 0.40903 0.47453 -0.17700
C 	C 	0.83527 0.48713 0.47913 -0.15500
H 	H 	0.94407 0.72733 0.44613 0.03600
H 	H 	0.05857 0.62123 0.48943 0.03800
H 	H 	0.05747 0.83813 0.24433 0.08600
C 	C 	0.03317 0.87123 0.23342 0.06800
C 	C 	0.05207 0.94353 0.24171 0.09600
H 	H 	0.08767 0.96263 0.25813 0.08400
H 	H 	0.78017 0.38263 0.46933 0.08800
C 	C 	0.77067 0.40633 0.48661 0.13600
C 	C 	0.80827 0.48223 0.49112 0.09500
H 	H 	0.86217 0.51623 0.47773 0.09700
H 	H 	0.01997 0.84843 0.22703 0.02600
C 	C 	0.03007 0.91203 0.23292 -0.15800
H 	H 	0.05237 0.97193 0.24083 0.01300
H 	H 	0.74947 0.37593 0.48933 0.00500
C 	C 	0.77697 0.43783 0.49450 -0.21300
H 	H 	0.81267 0.50803 0.49593 0.01600
C 	C 	0.00317 0.91713 0.22253 0.41700
C 	C 	0.74827 0.43033 0.50523 0.45900
O 	O 	0.73017 0.39023 0.50912 -0.34900
Zn	Zn	0.93212 0.04444 0.70629 1.22700
O 	O 	0.95163 0.00717 0.69764 -0.67400
O 	O 	0.91483 0.07387 0.69301 -0.47000
O 	O 	0.87823 0.00797 0.71581 -0.48800
O 	O 	0.97393 0.09127 0.71672 -0.51000
Zn	Zn	0.89163 0.96407 0.69007 1.23100
C 	C 	0.89203 0.04767 0.68396 0.37500
C 	C 	0.84683 0.96587 0.71234 0.33800
O 	O 	0.87743 0.00657 0.68133 -0.49200
O 	O 	0.84783 0.94087 0.70349 -0.48500
O 	O 	0.87243 0.91467 0.67815 -0.50800
O 	O 	0.94543 0.95807 0.72056 -0.48900
C 	C 	0.88253 0.07527 0.67374 -0.10600
C 	C 	0.80523 0.94327 0.72129 -0.09100
C 	C 	0.85843 0.05357 0.66223 0.05000
C 	C 	0.89513 0.11997 0.67489 0.05500
C 	C 	0.79973 0.96607 0.73236 0.03100
C 	C 	0.76763 0.90217 0.71794 0.03100
C 	C 	0.84973 0.07727 0.65384 -0.12800
H 	H 	0.84883 0.02217 0.66067 0.02600
H 	H 	0.91143 0.13557 0.68237 0.03400
C 	C 	0.88633 0.14527 0.66607 -0.13600
C 	C 	0.76023 0.94537 0.73984 -0.12000
H 	H 	0.82393 0.99607 0.73457 0.03000
H 	H 	0.76733 0.88787 0.71017 0.03600
C 	C 	0.72833 0.88047 0.72630 -0.12100
C 	C 	0.86423 0.12437 0.65484 0.09000
H 	H 	0.83223 0.06127 0.64657 0.08400
H 	H 	0.89533 0.17657 0.66767 0.07400
C 	C 	0.72543 0.90227 0.73689 0.08700
H 	H 	0.75753 0.96117 0.74697 0.08100
H 	H 	0.70393 0.85037 0.72437 0.06800
C 	C 	0.85823 0.15187 0.64485 -0.04500
C 	C 	0.68353 0.87567 0.74503 -0.03700
H 	H 	0.83923 0.16467 0.64807 0.04700
H 	H 	0.88873 0.17797 0.64237 0.05400
O 	O 	0.83683 0.12407 0.63441 -0.19700
H 	H 	0.65523 0.86427 0.73987 0.04200
H 	H 	0.68373 0.84877 0.74887 0.05200
O 	O 	0.68443 0.90527 0.75454 -0.21400
C 	C 	0.81563 0.13927 0.62588 0.10300
C 	C 	0.64783 0.88887 0.76215 0.14200
C 	C 	0.82783 0.18567 0.62560 -0.07100
C 	C 	0.79523 0.11037 0.61489 0.00300
C 	C 	0.61373 0.84387 0.76225 -0.11600
C 	C 	0.65333 0.91787 0.77302 -0.02400
H 	H 	0.85043 0.20727 0.63127 0.06400
C 	C 	0.80613 0.19977 0.61683 -0.08800
C 	C 	0.77513 0.12537 0.60658 -0.03200
C 	C 	0.78643 0.06357 0.61247 -0.07500
C 	C 	0.57793 0.82967 0.77167 -0.04700
H 	H 	0.61353 0.82257 0.75627 0.07600
C 	C 	0.61923 0.90517 0.78188 -0.00200
C 	C 	0.68973 0.96647 0.77482 -0.05800
H 	H 	0.80743 0.22867 0.61777 0.06600
C 	C 	0.78183 0.16957 0.60636 0.14100
C 	C 	0.74533 0.08727 0.59693 -0.06000
H 	H 	0.80203 0.05357 0.61877 0.05900
C 	C 	0.79953 0.06187 0.60017 0.03500
C 	C 	0.73573 0.03557 0.61317 0.01500
C 	C 	0.58353 0.86237 0.78207 0.08900
H 	H 	0.55123 0.79997 0.77127 0.05100
C 	C 	0.62213 0.93807 0.79104 -0.08500
H 	H 	0.71493 0.97697 0.76837 0.06000
C 	C 	0.66943 0.99487 0.77522 0.01500
C 	C 	0.70653 0.96497 0.78858 0.02300
O 	O 	0.76083 0.18077 0.59761 -0.22600
H 	H 	0.72983 0.09697 0.59047 0.05500
C 	C 	0.78013 0.07527 0.59117 0.01100
C 	C 	0.71323 0.04677 0.60427 0.04000
C 	C 	0.82963 0.04757 0.59607 -0.07500
C 	C 	0.71003 0.99757 0.62117 -0.05600
O 	O 	0.54643 0.84237 0.79085 -0.18900
H 	H 	0.59453 0.92667 0.79667 0.06400
C 	C 	0.63343 0.98047 0.78393 0.05700
C 	C 	0.66733 0.94837 0.79805 0.02800
C 	C 	0.68113 0.03457 0.76804 -0.06100
C 	C 	0.75103 0.97957 0.79231 -0.07100
C 	C 	0.76883 0.22217 0.59672 0.01500
C 	C 	0.79263 0.07527 0.57717 -0.07600
C 	C 	0.67043 0.02747 0.60250 -0.08600
C 	C 	0.84163 0.05267 0.58067 -0.05300
H 	H 	0.84273 0.03537 0.60177 0.05300
C 	C 	0.66473 0.97627 0.62027 -0.03300
H 	H 	0.72483 0.98767 0.62707 0.05100
C 	C 	0.51763 0.79547 0.79224 -0.06500
C 	C 	0.61163 0.00357 0.78527 -0.11500
C 	C 	0.67783 0.94797 0.81045 -0.07700
H 	H 	0.70683 0.04567 0.76247 0.05900
C 	C 	0.65803 0.05807 0.76857 -0.04600
H 	H 	0.77543 0.98997 0.78637 0.06100
C 	C 	0.75893 0.97837 0.80531 -0.03100
H 	H 	0.80243 0.24267 0.59557 0.03900
H 	H 	0.76043 0.23057 0.60487 0.03700
C 	C 	0.74433 0.23197 0.58636 0.08300
H 	H 	0.77833 0.08417 0.57087 0.05000
C 	C 	0.82373 0.06287 0.57367 -0.00500
H 	H 	0.65833 0.03947 0.59637 0.05700
C 	C 	0.63963 0.98687 0.60967 -0.02200
H 	H 	0.86483 0.04647 0.57777 0.04400
H 	H 	0.64683 0.95347 0.62637 0.04100
H 	H 	0.53593 0.77967 0.79267 0.06200
H 	H 	0.49633 0.78287 0.78497 0.05200
C 	C 	0.49153 0.78827 0.80397 0.12400
C 	C 	0.62523 0.04297 0.77787 -0.00000
H 	H 	0.58683 0.99357 0.79107 0.07200
C 	C 	0.72013 0.95917 0.81418 -0.02500
H 	H 	0.65433 0.93947 0.81667 0.05400
H 	H 	0.66393 0.08267 0.76297 0.04600
H 	H 	0.78943 0.99007 0.80837 0.04400
C 	C 	0.72303 0.19917 0.57709 -0.12200
C 	C 	0.74113 0.27237 0.58520 -0.14600
H 	H 	0.83043 0.06297 0.56497 0.02600
H 	H 	0.60743 0.96877 0.60807 0.03600
C 	C 	0.45633 0.74237 0.80787 -0.17800
C 	C 	0.50193 0.82047 0.81247 -0.15500
H 	H 	0.61073 0.06067 0.77947 0.02800
H 	H 	0.72523 0.95457 0.82277 0.04100
H 	H 	0.72413 0.17147 0.57767 0.08700
C 	C 	0.69983 0.20457 0.56676 0.07100
C 	C 	0.71873 0.27687 0.57505 0.09800
H 	H 	0.75433 0.29597 0.59147 0.08300
H 	H 	0.44683 0.71597 0.80267 0.08800
C 	C 	0.43733 0.73967 0.81995 0.13600
C 	C 	0.47493 0.81557 0.82446 0.09500
H 	H 	0.52883 0.84957 0.81107 0.09700
H 	H 	0.68663 0.18177 0.56037 0.02600
C 	C 	0.69673 0.24537 0.56626 -0.16000
H 	H 	0.71903 0.30527 0.57417 0.01100
H 	H 	0.41613 0.70927 0.82267 0.00500
C 	C 	0.44363 0.77117 0.82784 -0.21400
H 	H 	0.47933 0.84137 0.82927 0.01600
C 	C 	0.66983 0.25047 0.55587 0.42400
C 	C 	0.41493 0.76367 0.83857 0.46000
O 	O 	0.39683 0.72357 0.84246 -0.34900
Zn	Zn	0.62223 0.22102 0.03962 1.22700
O 	O 	0.65950 0.27780 0.03097 -0.67400
O 	O 	0.59280 0.17430 0.02634 -0.47000
O 	O 	0.65870 0.20360 0.04914 -0.48400
O 	O 	0.57540 0.21600 0.05005 -0.51500
Zn	Zn	0.70260 0.26090 0.02340 1.23000
C 	C 	0.61900 0.17770 0.01729 0.37500
C 	C 	0.70080 0.21430 0.04567 0.33200
O 	O 	0.66010 0.20420 0.01466 -0.49000
O 	O 	0.72580 0.24030 0.03682 -0.48500
O 	O 	0.75200 0.29110 0.01148 -0.50900
O 	O 	0.70860 0.32070 0.05389 -0.49300
C 	C 	0.59140 0.14060 0.00707 -0.10600
C 	C 	0.72340 0.19530 0.05462 -0.09100
C 	C 	0.61310 0.13820 0.99556 0.05000
C 	C 	0.54670 0.10850 0.00822 0.05400
C 	C 	0.70060 0.16700 0.06569 0.02900
C 	C 	0.76450 0.19880 0.05127 0.03000
C 	C 	0.58940 0.10580 0.98717 -0.12700
H 	H 	0.64450 0.16000 0.99400 0.02700
H 	H 	0.53110 0.10920 0.01570 0.03300
C 	C 	0.52140 0.07440 0.99940 -0.13600
C 	C 	0.72130 0.14820 0.07317 -0.11900
H 	H 	0.67060 0.16120 0.06790 0.02900
H 	H 	0.77880 0.21280 0.04350 0.03600
C 	C 	0.78620 0.18120 0.05963 -0.12000
C 	C 	0.54230 0.07320 0.98817 0.08900
H 	H 	0.60540 0.10430 0.97990 0.08400
H 	H 	0.49010 0.05210 0.00100 0.07200
C 	C 	0.76440 0.15650 0.07022 0.08600
H 	H 	0.70550 0.12970 0.08030 0.08000
H 	H 	0.81630 0.18690 0.05770 0.06800
C 	C 	0.51480 0.03970 0.97818 -0.04400
C 	C 	0.79100 0.14120 0.07836 -0.03600
H 	H 	0.50200 0.00790 0.98140 0.04500
H 	H 	0.48870 0.04410 0.97570 0.05200
O 	O 	0.54260 0.04610 0.96774 -0.19700
H 	H 	0.80240 0.12430 0.07320 0.04200
H 	H 	0.81790 0.16830 0.08220 0.05200
O 	O 	0.76140 0.11250 0.08787 -0.21500
C 	C 	0.52740 0.00970 0.95921 0.09800
C 	C 	0.77780 0.09230 0.09548 0.14400
C 	C 	0.48100 0.97550 0.95893 -0.06400
C 	C 	0.55630 0.01820 0.94822 0.00000
C 	C 	0.82280 0.10320 0.09558 -0.11800
C 	C 	0.74880 0.06880 0.10635 -0.02900
H 	H 	0.45940 0.97650 0.96460 0.06300
C 	C 	0.46690 0.93970 0.95016 -0.09000
C 	C 	0.54130 0.98310 0.93991 -0.02800
C 	C 	0.60310 0.05620 0.94580 -0.07700
C 	C 	0.83700 0.08160 0.10500 -0.04600
H 	H 	0.84410 0.12430 0.08960 0.07600
C 	C 	0.76150 0.04740 0.11521 0.00200
C 	C 	0.70020 0.05660 0.10815 -0.04600
H 	H 	0.43800 0.91210 0.95110 0.06700
C 	C 	0.49710 0.94560 0.93969 0.14200
C 	C 	0.57940 0.99140 0.93026 -0.05600
H 	H 	0.61310 0.08180 0.95210 0.06000
C 	C 	0.60480 0.07100 0.93350 0.03900
C 	C 	0.63110 0.03350 0.94650 0.01600
C 	C 	0.80430 0.05450 0.11540 0.08600
H 	H 	0.86670 0.08460 0.10460 0.05000
C 	C 	0.72860 0.01740 0.12437 -0.09400
H 	H 	0.68970 0.07130 0.10170 0.05500
C 	C 	0.67180 0.00790 0.10855 -0.00700
C 	C 	0.70170 0.07490 0.12191 0.01800
O 	O 	0.48590 0.91340 0.93094 -0.22600
H 	H 	0.56970 0.96620 0.92380 0.05500
C 	C 	0.59140 0.03820 0.92450 0.00400
C 	C 	0.61990 0.99980 0.93760 0.04200
C 	C 	0.61910 0.11540 0.92940 -0.07800
C 	C 	0.66910 0.04580 0.95450 -0.06100
O 	O 	0.82430 0.03740 0.12418 -0.18700
H 	H 	0.74000 0.00120 0.13000 0.06500
C 	C 	0.68620 0.98630 0.11726 0.06600
C 	C 	0.71830 0.05230 0.13138 0.03100
C 	C 	0.63210 0.97990 0.10137 -0.03900
C 	C 	0.68710 0.10480 0.12564 -0.06800
C 	C 	0.44450 0.88000 0.93005 0.01500
C 	C 	0.59140 0.05070 0.91050 -0.07100
C 	C 	0.63920 0.97630 0.93583 -0.08100
C 	C 	0.61400 0.12230 0.91400 -0.04600
H 	H 	0.63130 0.14070 0.93510 0.05400
C 	C 	0.69040 0.02180 0.95360 -0.03700
H 	H 	0.67900 0.07050 0.96040 0.05000
C 	C 	0.87120 0.05550 0.12557 -0.07300
C 	C 	0.66310 0.94140 0.11860 -0.10800
C 	C 	0.71870 0.06320 0.14378 -0.08000
H 	H 	0.62100 0.99450 0.09580 0.05500
C 	C 	0.60860 0.93330 0.10190 -0.05600
H 	H 	0.67670 0.11880 0.11970 0.05800
C 	C 	0.68830 0.11390 0.13864 -0.03400
H 	H 	0.42400 0.89310 0.92890 0.03900
H 	H 	0.43610 0.86320 0.93820 0.03700
C 	C 	0.43470 0.84570 0.91969 0.08300
H 	H 	0.58250 0.02750 0.90420 0.04700
C 	C 	0.60380 0.09420 0.90700 -0.01300
H 	H 	0.62720 0.95220 0.92970 0.05600
C 	C 	0.67980 0.98610 0.94300 -0.02300
H 	H 	0.62020 0.15170 0.91110 0.04200
H 	H 	0.71320 0.02670 0.95970 0.04000
H 	H 	0.88700 0.08960 0.12600 0.06400
H 	H 	0.88380 0.04680 0.11830 0.05400
C 	C 	0.87840 0.03660 0.13730 0.13600
C 	C 	0.62370 0.91560 0.11120 0.00400
H 	H 	0.67310 0.92660 0.12440 0.06800
C 	C 	0.70750 0.09430 0.14751 -0.02300
H 	H 	0.72720 0.04820 0.15000 0.05400
H 	H 	0.58400 0.91460 0.09630 0.05000
H 	H 	0.67660 0.13270 0.14170 0.04400
C 	C 	0.46750 0.85720 0.91042 -0.12200
C 	C 	0.39430 0.80210 0.91853 -0.14600
H 	H 	0.60370 0.10080 0.89830 0.02900
H 	H 	0.69790 0.97200 0.94140 0.03600
C 	C 	0.92430 0.04730 0.14120 -0.19200
C 	C 	0.84620 0.01480 0.14580 -0.17300
H 	H 	0.60600 0.88340 0.11280 0.02800
H 	H 	0.71210 0.10400 0.15610 0.03900
H 	H 	0.49520 0.88600 0.91100 0.08700
C 	C 	0.46210 0.82860 0.90009 0.07100
C 	C 	0.38980 0.77520 0.90838 0.09900
H 	H 	0.37070 0.79170 0.92480 0.08300
H 	H 	0.95070 0.06420 0.13600 0.09300
C 	C 	0.92700 0.03100 0.15328 0.15600
C 	C 	0.85110 0.99270 0.15779 0.12100
H 	H 	0.81710 0.01260 0.14440 0.10200
H 	H 	0.48490 0.83820 0.89370 0.02700
C 	C 	0.42130 0.78470 0.89959 -0.16000
H 	H 	0.36140 0.74710 0.90750 0.01100
H 	H 	0.95740 0.04020 0.15600 -0.00100
C 	C 	0.89550 0.00580 0.16117 -0.24100
H 	H 	0.82530 0.97130 0.16260 0.00900
C 	C 	0.41620 0.75270 0.88920 0.42400
C 	C 	0.90300 0.98460 0.17190 0.47800
O 	O 	0.94310 0.00660 0.17579 -0.35600
Zn	Zn	0.28890 0.55435 0.37295 1.22700
O 	O 	0.32617 0.61113 0.36430 -0.67400
O 	O 	0.25947 0.50763 0.35967 -0.47000
O 	O 	0.32537 0.53693 0.38247 -0.48400
O 	O 	0.24207 0.54933 0.38338 -0.51500
Zn	Zn	0.36927 0.59423 0.35673 1.23000
C 	C 	0.28567 0.51103 0.35062 0.37500
C 	C 	0.36747 0.54763 0.37900 0.33200
O 	O 	0.32677 0.53753 0.34799 -0.49000
O 	O 	0.39247 0.57363 0.37015 -0.48500
O 	O 	0.41867 0.62443 0.34481 -0.50900
O 	O 	0.37527 0.65403 0.38722 -0.49300
C 	C 	0.25807 0.47393 0.34040 -0.10600
C 	C 	0.39007 0.52863 0.38795 -0.09100
C 	C 	0.27977 0.47153 0.32889 0.05000
C 	C 	0.21337 0.44183 0.34155 0.05500
C 	C 	0.36727 0.50033 0.39902 0.02900
C 	C 	0.43117 0.53213 0.38460 0.03000
C 	C 	0.25607 0.43913 0.32050 -0.12800
H 	H 	0.31117 0.49333 0.32733 0.02700
H 	H 	0.19777 0.44253 0.34903 0.03300
C 	C 	0.18807 0.40773 0.33273 -0.13600
C 	C 	0.38797 0.48153 0.40650 -0.11900
H 	H 	0.33727 0.49453 0.40123 0.02900
H 	H 	0.44547 0.54613 0.37683 0.03600
C 	C 	0.45287 0.51453 0.39296 -0.12000
C 	C 	0.20897 0.40653 0.32150 0.09000
H 	H 	0.27207 0.43763 0.31323 0.08400
H 	H 	0.15677 0.38543 0.33433 0.07400
C 	C 	0.43107 0.48983 0.40355 0.08700
H 	H 	0.37217 0.46303 0.41363 0.08000
H 	H 	0.48297 0.52023 0.39103 0.06800
C 	C 	0.18147 0.37303 0.31151 -0.04500
C 	C 	0.45767 0.47453 0.41169 -0.03600
H 	H 	0.16867 0.34123 0.31473 0.04700
H 	H 	0.15537 0.37743 0.30903 0.05400
O 	O 	0.20927 0.37943 0.30107 -0.19700
H 	H 	0.46907 0.45763 0.40653 0.04200
H 	H 	0.48457 0.50163 0.41553 0.05200
O 	O 	0.42807 0.44583 0.42120 -0.21400
C 	C 	0.19407 0.34303 0.29254 0.10100
C 	C 	0.44447 0.42563 0.42881 0.14100
C 	C 	0.14767 0.30883 0.29226 -0.07000
C 	C 	0.22297 0.35153 0.28155 0.00800
C 	C 	0.48947 0.43653 0.42891 -0.11500
C 	C 	0.41547 0.40213 0.43968 -0.02200
H 	H 	0.12607 0.30983 0.29793 0.06300
C 	C 	0.13357 0.27303 0.28349 -0.09000
C 	C 	0.20797 0.31643 0.27324 -0.03600
C 	C 	0.26977 0.38953 0.27913 -0.08600
C 	C 	0.50367 0.41493 0.43833 -0.04800
H 	H 	0.51077 0.45763 0.42293 0.07600
C 	C 	0.42817 0.38073 0.44854 -0.00600
C 	C 	0.36687 0.38993 0.44148 -0.06000
H 	H 	0.10467 0.24543 0.28443 0.06600
C 	C 	0.16377 0.27893 0.27302 0.14300
C 	C 	0.24607 0.32473 0.26359 -0.05200
H 	H 	0.27977 0.41513 0.28543 0.06300
C 	C 	0.27147 0.40433 0.26683 0.04200
C 	C 	0.29777 0.36683 0.27983 0.03000
C 	C 	0.47097 0.38783 0.44873 0.09100
H 	H 	0.53337 0.41793 0.43793 0.05100
C 	C 	0.39527 0.35073 0.45770 -0.07700
H 	H 	0.35637 0.40463 0.43503 0.05900
C 	C 	0.33847 0.34123 0.44188 0.01800
C 	C 	0.36837 0.40823 0.45524 0.02400
O 	O 	0.15257 0.24673 0.26427 -0.22700
H 	H 	0.23637 0.29953 0.25713 0.05300
C 	C 	0.25807 0.37153 0.25783 0.00500
C 	C 	0.28657 0.33313 0.27093 0.02600
C 	C 	0.28577 0.44873 0.26273 -0.08000
C 	C 	0.33577 0.37913 0.28783 -0.07400
O 	O 	0.49097 0.37073 0.45751 -0.18900
H 	H 	0.40667 0.33453 0.46333 0.06100
C 	C 	0.35287 0.31963 0.45059 0.04000
C 	C 	0.38497 0.38563 0.46471 0.02500
C 	C 	0.29877 0.31323 0.43470 -0.06200
C 	C 	0.35377 0.43813 0.45897 -0.07200
C 	C 	0.11117 0.21333 0.26338 0.01500
C 	C 	0.25807 0.38403 0.24383 -0.06900
C 	C 	0.30587 0.30963 0.26916 -0.06800
C 	C 	0.28067 0.45563 0.24733 -0.04400
H 	H 	0.29797 0.47403 0.26843 0.05500
C 	C 	0.35707 0.35513 0.28693 -0.02100
H 	H 	0.34567 0.40383 0.29373 0.05500
C 	C 	0.53787 0.38883 0.45890 -0.06500
C 	C 	0.32977 0.27473 0.45193 -0.08700
C 	C 	0.38537 0.39653 0.47711 -0.07500
H 	H 	0.28767 0.32783 0.42913 0.06100
C 	C 	0.27527 0.26663 0.43523 -0.03700
H 	H 	0.34337 0.45213 0.45303 0.06000
C 	C 	0.35497 0.44723 0.47197 -0.03000
H 	H 	0.09067 0.22643 0.26223 0.03800
H 	H 	0.10277 0.19653 0.27153 0.03700
C 	C 	0.10137 0.17903 0.25302 0.08300
H 	H 	0.24917 0.36083 0.23753 0.04800
C 	C 	0.27047 0.42753 0.24033 -0.01400
H 	H 	0.29387 0.28553 0.26303 0.05200
C 	C 	0.34647 0.31943 0.27633 -0.03700
H 	H 	0.28687 0.48503 0.24443 0.04100
H 	H 	0.37987 0.36003 0.29303 0.03600
H 	H 	0.55367 0.42293 0.45933 0.06200
H 	H 	0.55047 0.38013 0.45163 0.05200
C 	C 	0.54507 0.36993 0.47063 0.12300
C 	C 	0.29037 0.24893 0.44453 -0.01500
H 	H 	0.33977 0.25993 0.45773 0.05900
C 	C 	0.37417 0.42763 0.48084 -0.02700
H 	H 	0.39387 0.38153 0.48333 0.05300
H 	H 	0.25067 0.24793 0.42963 0.04200
H 	H 	0.34327 0.46603 0.47503 0.04300
C 	C 	0.13417 0.19053 0.24375 -0.12200
C 	C 	0.06097 0.13543 0.25186 -0.14700
H 	H 	0.27037 0.43413 0.23163 0.03000
H 	H 	0.36457 0.30533 0.27473 0.04000
C 	C 	0.59097 0.38063 0.47453 -0.17800
C 	C 	0.51287 0.34813 0.47913 -0.15500
H 	H 	0.27267 0.21673 0.44613 0.03300
H 	H 	0.37877 0.43733 0.48943 0.04100
H 	H 	0.16187 0.21933 0.24433 0.08700
C 	C 	0.12877 0.16193 0.23342 0.07100
C 	C 	0.05647 0.10853 0.24171 0.09900
H 	H 	0.03737 0.12503 0.25813 0.08200
H 	H 	0.61737 0.39753 0.46933 0.08800
C 	C 	0.59367 0.36433 0.48661 0.13600
C 	C 	0.51777 0.32603 0.49112 0.09500
H 	H 	0.48377 0.34593 0.47773 0.09700
H 	H 	0.15157 0.17153 0.22703 0.02600
C 	C 	0.08797 0.11803 0.23292 -0.16100
H 	H 	0.02807 0.08043 0.24083 0.00900
H 	H 	0.62407 0.37353 0.48933 0.00500
C 	C 	0.56217 0.33913 0.49450 -0.21300
H 	H 	0.49197 0.30463 0.49593 0.01600
C 	C 	0.08287 0.08603 0.22253 0.42500
C 	C 	0.56967 0.31793 0.50523 0.45900
O 	O 	0.60977 0.33993 0.50912 -0.34900
Zn	Zn	0.95556 0.88769 0.70629 1.22700
O 	O 	0.99283 0.94447 0.69764 -0.66900
O 	O 	0.92613 0.84097 0.69301 -0.47000
O 	O 	0.99203 0.87027 0.71581 -0.48000
O 	O 	0.90873 0.88267 0.71672 -0.51500
Zn	Zn	0.03593 0.92757 0.69007 1.22900
C 	C 	0.95233 0.84437 0.68396 0.37500
C 	C 	0.03413 0.88097 0.71234 0.32700
O 	O 	0.99343 0.87087 0.68133 -0.48800
O 	O 	0.05913 0.90697 0.70349 -0.48400
O 	O 	0.08533 0.95777 0.67815 -0.51600
O 	O 	0.04193 0.98737 0.72056 -0.49400
C 	C 	0.92473 0.80727 0.67374 -0.10600
C 	C 	0.05673 0.86197 0.72129 -0.09000
C 	C 	0.94643 0.80487 0.66223 0.05000
C 	C 	0.88003 0.77517 0.67489 0.05500
C 	C 	0.03393 0.83367 0.73236 0.02800
C 	C 	0.09783 0.86547 0.71794 0.02900
C 	C 	0.92273 0.77247 0.65384 -0.12800
H 	H 	0.97783 0.82667 0.66067 0.02800
H 	H 	0.86443 0.77587 0.68237 0.03300
C 	C 	0.85473 0.74107 0.66607 -0.13600
C 	C 	0.05463 0.81487 0.73984 -0.11900
H 	H 	0.00393 0.82787 0.73457 0.02700
H 	H 	0.11213 0.87947 0.71017 0.03700
C 	C 	0.11953 0.84787 0.72630 -0.12000
C 	C 	0.87563 0.73987 0.65484 0.09000
H 	H 	0.93873 0.77097 0.64657 0.08500
H 	H 	0.82343 0.71877 0.66767 0.07400
C 	C 	0.09773 0.82317 0.73689 0.08600
H 	H 	0.03883 0.79637 0.74697 0.07900
H 	H 	0.14963 0.85357 0.72437 0.06700
C 	C 	0.84813 0.70637 0.64485 -0.04500
C 	C 	0.12433 0.80787 0.74503 -0.03600
H 	H 	0.83533 0.67457 0.64807 0.04700
H 	H 	0.82203 0.71077 0.64237 0.05400
O 	O 	0.87593 0.71277 0.63441 -0.19600
H 	H 	0.13573 0.79097 0.73987 0.04200
H 	H 	0.15123 0.83497 0.74887 0.05200
O 	O 	0.09473 0.77917 0.75454 -0.21400
C 	C 	0.86073 0.67637 0.62588 0.09900
C 	C 	0.11113 0.75897 0.76215 0.14000
C 	C 	0.81433 0.64217 0.62560 -0.06800
C 	C 	0.88963 0.68487 0.61489 0.01200
C 	C 	0.15613 0.76987 0.76225 -0.11400
C 	C 	0.08213 0.73547 0.77302 -0.02000
H 	H 	0.79273 0.64317 0.63127 0.06300
C 	C 	0.80023 0.60637 0.61683 -0.09100
C 	C 	0.87463 0.64977 0.60658 -0.04000
C 	C 	0.93643 0.72287 0.61247 -0.09700
C 	C 	0.17033 0.74827 0.77167 -0.04900
H 	H 	0.17743 0.79097 0.75627 0.07500
C 	C 	0.09483 0.71407 0.78188 -0.00900
C 	C 	0.03353 0.72327 0.77482 -0.06200
H 	H 	0.77133 0.57877 0.61777 0.06700
C 	C 	0.83043 0.61227 0.60636 0.14500
C 	C 	0.91273 0.65807 0.59693 -0.04300
H 	H 	0.94643 0.74847 0.61877 0.06600
C 	C 	0.93813 0.73767 0.60017 0.05000
C 	C 	0.96443 0.70017 0.61317 0.04800
C 	C 	0.13763 0.72117 0.78207 0.09200
H 	H 	0.20003 0.75127 0.77127 0.05100
C 	C 	0.06193 0.68407 0.79104 -0.06900
H 	H 	0.02303 0.73797 0.76837 0.05800
C 	C 	0.00513 0.67457 0.77522 0.02100
C 	C 	0.03503 0.74157 0.78858 0.02500
O 	O 	0.81923 0.58007 0.59761 -0.22700
H 	H 	0.90303 0.63287 0.59047 0.05100
C 	C 	0.92473 0.70487 0.59117 -0.00100
C 	C 	0.95323 0.66647 0.60427 0.01100
C 	C 	0.95243 0.78207 0.59607 -0.08600
C 	C 	0.00243 0.71247 0.62117 -0.09300
O 	O 	0.15763 0.70407 0.79085 -0.19000
H 	H 	0.07333 0.66787 0.79667 0.05900
C 	C 	0.01953 0.65297 0.78393 0.02400
C 	C 	0.05163 0.71897 0.79805 0.02200
C 	C 	0.96543 0.64657 0.76804 -0.06400
C 	C 	0.02043 0.77147 0.79231 -0.07400
C 	C 	0.77783 0.54667 0.59672 0.01500
C 	C 	0.92473 0.71737 0.57717 -0.06200
C 	C 	0.97253 0.64297 0.60250 -0.04800
C 	C 	0.94733 0.78897 0.58067 -0.03400
H 	H 	0.96463 0.80737 0.60177 0.05700
C 	C 	0.02373 0.68847 0.62027 -0.00800
H 	H 	0.01233 0.73717 0.62707 0.05900
C 	C 	0.20453 0.72217 0.79224 -0.06500
C 	C 	0.99643 0.60807 0.78527 -0.06000
C 	C 	0.05203 0.72987 0.81045 -0.07300
H 	H 	0.95433 0.66117 0.76247 0.06200
C 	C 	0.94193 0.59997 0.76857 -0.02700
H 	H 	0.01003 0.78547 0.78637 0.05900
C 	C 	0.02163 0.78057 0.80531 -0.03000
H 	H 	0.75733 0.55977 0.59557 0.03800
H 	H 	0.76943 0.52987 0.60487 0.03700
C 	C 	0.76803 0.51237 0.58636 0.08300
H 	H 	0.91583 0.69417 0.57087 0.04600
C 	C 	0.93713 0.76087 0.57367 -0.02500
H 	H 	0.96053 0.61887 0.59637 0.04600
C 	C 	0.01313 0.65277 0.60967 -0.05400
H 	H 	0.95353 0.81837 0.57777 0.03900
H 	H 	0.04653 0.69337 0.62637 0.03100
H 	H 	0.22033 0.75627 0.79267 0.06200
H 	H 	0.21713 0.71347 0.78497 0.05200
C 	C 	0.21173 0.70327 0.80397 0.12300
C 	C 	0.95703 0.58227 0.77787 -0.02900
H 	H 	0.00643 0.59327 0.79107 0.04800
C 	C 	0.04083 0.76097 0.81418 -0.02900
H 	H 	0.06053 0.71487 0.81667 0.05200
H 	H 	0.91733 0.58127 0.76297 0.04000
H 	H 	0.00993 0.79937 0.80837 0.04200
C 	C 	0.80083 0.52387 0.57709 -0.12200
C 	C 	0.72763 0.46877 0.58520 -0.14600
H 	H 	0.93703 0.76747 0.56497 0.03400
H 	H 	0.03123 0.63867 0.60807 0.04500
C 	C 	0.25763 0.71397 0.80787 -0.17800
C 	C 	0.17953 0.68147 0.81247 -0.15500
H 	H 	0.93933 0.55007 0.77947 0.03900
H 	H 	0.04543 0.77067 0.82277 0.04100
H 	H 	0.82853 0.55267 0.57767 0.08700
C 	C 	0.79543 0.49527 0.56676 0.07100
C 	C 	0.72313 0.44187 0.57505 0.09800
H 	H 	0.70403 0.45837 0.59147 0.08300
H 	H 	0.28403 0.73087 0.80267 0.08800
C 	C 	0.26033 0.69767 0.81995 0.13600
C 	C 	0.18443 0.65937 0.82446 0.09500
H 	H 	0.15043 0.67927 0.81107 0.09700
H 	H 	0.81823 0.50487 0.56037 0.02700
C 	C 	0.75463 0.45137 0.56626 -0.16000
H 	H 	0.69473 0.41377 0.57417 0.01100
H 	H 	0.29073 0.70687 0.82267 0.00500
C 	C 	0.22883 0.67247 0.82784 -0.21400
H 	H 	0.15863 0.63797 0.82927 0.01600
C 	C 	0.74953 0.41937 0.55587 0.42400
C 	C 	0.23633 0.65127 0.83857 0.46000
O 	O 	0.27643 0.67327 0.84246 -0.34900
Zn	Zn	0.59879 0.22102 0.53962 1.22700
O 	O 	0.61830 0.27780 0.53097 -0.67400
O 	O 	0.58150 0.17430 0.52634 -0.47000
O 	O 	0.54490 0.20360 0.54914 -0.48400
O 	O 	0.64060 0.21600 0.55005 -0.51500
Zn	Zn	0.55830 0.26090 0.52340 1.23000
C 	C 	0.55870 0.17770 0.51729 0.37500
C 	C 	0.51350 0.21430 0.54567 0.33200
O 	O 	0.54410 0.20420 0.51466 -0.49000
O 	O 	0.51450 0.24030 0.53682 -0.48500
O 	O 	0.53910 0.29110 0.51148 -0.50900
O 	O 	0.61210 0.32070 0.55389 -0.49300
C 	C 	0.54920 0.14060 0.50707 -0.10600
C 	C 	0.47190 0.19530 0.55462 -0.09100
C 	C 	0.52510 0.13820 0.49556 0.05000
C 	C 	0.56180 0.10850 0.50822 0.05400
C 	C 	0.46640 0.16700 0.56569 0.02900
C 	C 	0.43430 0.19880 0.55127 0.03000
C 	C 	0.51640 0.10580 0.48717 -0.12700
H 	H 	0.51550 0.16000 0.49400 0.02700
H 	H 	0.57810 0.10920 0.51570 0.03300
C 	C 	0.55300 0.07440 0.49940 -0.13600
C 	C 	0.42690 0.14820 0.57317 -0.11900
H 	H 	0.49060 0.16120 0.56790 0.02900
H 	H 	0.43400 0.21280 0.54350 0.03600
C 	C 	0.39500 0.18120 0.55963 -0.12000
C 	C 	0.53090 0.07320 0.48817 0.08900
H 	H 	0.49890 0.10430 0.47990 0.08400
H 	H 	0.56200 0.05210 0.50100 0.07300
C 	C 	0.39210 0.15650 0.57022 0.08600
H 	H 	0.42420 0.12970 0.58030 0.08000
H 	H 	0.37060 0.18690 0.55770 0.06700
C 	C 	0.52490 0.03970 0.47818 -0.04400
C 	C 	0.35020 0.14120 0.57836 -0.03500
H 	H 	0.50590 0.00790 0.48140 0.04500
H 	H 	0.55540 0.04410 0.47570 0.05200
O 	O 	0.50350 0.04610 0.46774 -0.19700
H 	H 	0.32190 0.12430 0.57320 0.04100
H 	H 	0.35040 0.16830 0.58220 0.05200
O 	O 	0.35110 0.11250 0.58787 -0.21500
C 	C 	0.48230 0.00970 0.45921 0.09800
C 	C 	0.31450 0.09230 0.59548 0.14400
C 	C 	0.49450 0.97550 0.45893 -0.06400
C 	C 	0.46190 0.01820 0.44822 0.00000
C 	C 	0.28040 0.10320 0.59558 -0.11800
C 	C 	0.32000 0.06880 0.60635 -0.02900
H 	H 	0.51710 0.97650 0.46460 0.06300
C 	C 	0.47280 0.93970 0.45016 -0.09000
C 	C 	0.44180 0.98310 0.43991 -0.02800
C 	C 	0.45310 0.05620 0.44580 -0.07700
C 	C 	0.24460 0.08160 0.60500 -0.04500
H 	H 	0.28020 0.12430 0.58960 0.07600
C 	C 	0.28590 0.04740 0.61521 0.00200
C 	C 	0.35640 0.05660 0.60815 -0.04600
H 	H 	0.47410 0.91210 0.45110 0.06700
C 	C 	0.44850 0.94560 0.43969 0.14100
C 	C 	0.41200 0.99140 0.43026 -0.05600
H 	H 	0.46870 0.08180 0.45210 0.06000
C 	C 	0.46620 0.07100 0.43350 0.03800
C 	C 	0.40240 0.03350 0.44650 0.01500
C 	C 	0.25020 0.05450 0.61540 0.08600
H 	H 	0.21790 0.08460 0.60460 0.05000
C 	C 	0.28880 0.01740 0.62437 -0.09400
H 	H 	0.38160 0.07130 0.60170 0.05500
C 	C 	0.33610 0.00790 0.60855 -0.00800
C 	C 	0.37320 0.07490 0.62191 0.01800
O 	O 	0.42750 0.91340 0.43094 -0.22600
H 	H 	0.39650 0.96620 0.42380 0.05500
C 	C 	0.44680 0.03820 0.42450 0.00400
C 	C 	0.37990 0.99980 0.43760 0.04300
C 	C 	0.49630 0.11540 0.42940 -0.07800
C 	C 	0.37670 0.04580 0.45450 -0.06100
O 	O 	0.21310 0.03740 0.62418 -0.18800
H 	H 	0.26120 0.00120 0.63000 0.06500
C 	C 	0.30010 0.98630 0.61726 0.06700
C 	C 	0.33400 0.05230 0.63138 0.03100
C 	C 	0.34780 0.97990 0.60137 -0.03800
C 	C 	0.41770 0.10480 0.62564 -0.06800
C 	C 	0.43550 0.88000 0.43005 0.01400
C 	C 	0.45930 0.05070 0.41050 -0.07100
C 	C 	0.33710 0.97630 0.43583 -0.08100
C 	C 	0.50830 0.12230 0.41400 -0.04700
H 	H 	0.50940 0.14070 0.43510 0.05400
C 	C 	0.33140 0.02180 0.45360 -0.03700
H 	H 	0.39150 0.07050 0.46040 0.05000
C 	C 	0.18430 0.05550 0.62557 -0.07300
C 	C 	0.27830 0.94140 0.61860 -0.10900
C 	C 	0.34450 0.06320 0.64378 -0.08000
H 	H 	0.37350 0.99450 0.59580 0.05500
C 	C 	0.32470 0.93330 0.60190 -0.05700
H 	H 	0.44210 0.11880 0.61970 0.05800
C 	C 	0.42560 0.11390 0.63864 -0.03400
H 	H 	0.46910 0.89310 0.42890 0.03900
H 	H 	0.42710 0.86320 0.43820 0.03700
C 	C 	0.41100 0.84570 0.41969 0.08300
H 	H 	0.44500 0.02750 0.40420 0.04700
C 	C 	0.49040 0.09420 0.40700 -0.01200
H 	H 	0.32500 0.95220 0.42970 0.05700
C 	C 	0.30630 0.98610 0.44300 -0.02300
H 	H 	0.53150 0.15170 0.41110 0.04200
H 	H 	0.31350 0.02670 0.45970 0.04000
H 	H 	0.20260 0.08960 0.62600 0.06400
H 	H 	0.16300 0.04680 0.61830 0.05300
C 	C 	0.15820 0.03660 0.63730 0.13700
C 	C 	0.29190 0.91560 0.61120 0.00500
H 	H 	0.25350 0.92660 0.62440 0.06800
C 	C 	0.38680 0.09430 0.64751 -0.02300
H 	H 	0.32100 0.04820 0.65000 0.05400
H 	H 	0.33060 0.91460 0.59630 0.05000
H 	H 	0.45610 0.13270 0.64170 0.04400
C 	C 	0.38970 0.85720 0.41042 -0.12200
C 	C 	0.40780 0.80210 0.41853 -0.14600
H 	H 	0.49710 0.10080 0.39830 0.02800
H 	H 	0.27410 0.97200 0.44140 0.03600
C 	C 	0.12300 0.04730 0.64120 -0.19400
C 	C 	0.16860 0.01480 0.64580 -0.17500
H 	H 	0.27740 0.88340 0.61280 0.02700
H 	H 	0.39190 0.10400 0.65610 0.03900
H 	H 	0.39080 0.88600 0.41100 0.08700
C 	C 	0.36650 0.82860 0.40009 0.07100
C 	C 	0.38540 0.77520 0.40838 0.09900
H 	H 	0.42100 0.79170 0.42480 0.08300
H 	H 	0.11350 0.06420 0.63600 0.09200
C 	C 	0.10400 0.03100 0.65328 0.15800
C 	C 	0.14160 0.99270 0.65779 0.12300
H 	H 	0.19550 0.01260 0.64440 0.10200
H 	H 	0.35330 0.83820 0.39370 0.02700
C 	C 	0.36340 0.78470 0.39959 -0.16000
H 	H 	0.38570 0.74710 0.40750 0.01100
H 	H 	0.08280 0.04020 0.65600 -0.00300
C 	C 	0.11030 0.00580 0.66117 -0.24500
H 	H 	0.14600 0.97130 0.66260 0.00700
C 	C 	0.33650 0.75270 0.38920 0.42400
C 	C 	0.08160 0.98460 0.67190 0.48100
O 	O 	0.06350 0.00660 0.67579 -0.35900
Zn	Zn	0.26546 0.55435 0.87295 1.22700
O 	O 	0.28497 0.61113 0.86430 -0.67400
O 	O 	0.24817 0.50763 0.85967 -0.47000
O 	O 	0.21157 0.53693 0.88247 -0.48400
O 	O 	0.30727 0.54933 0.88338 -0.51500
Zn	Zn	0.22497 0.59423 0.85673 1.23000
C 	C 	0.22537 0.51103 0.85062 0.37500
C 	C 	0.18017 0.54763 0.87900 0.33300
O 	O 	0.21077 0.53753 0.84799 -0.49000
O 	O 	0.18117 0.57363 0.87015 -0.48500
O 	O 	0.20577 0.62443 0.84481 -0.51000
O 	O 	0.27877 0.65403 0.88722 -0.49300
C 	C 	0.21587 0.47393 0.84040 -0.10600
C 	C 	0.13857 0.52863 0.88795 -0.09200
C 	C 	0.19177 0.47153 0.82889 0.05000
C 	C 	0.22847 0.44183 0.84155 0.05500
C 	C 	0.13307 0.50033 0.89902 0.03000
C 	C 	0.10097 0.53213 0.88460 0.03100
C 	C 	0.18307 0.43913 0.82050 -0.12800
H 	H 	0.18217 0.49333 0.82733 0.02700
H 	H 	0.24477 0.44253 0.84903 0.03300
C 	C 	0.21967 0.40773 0.83273 -0.13600
C 	C 	0.09357 0.48153 0.90650 -0.12200
H 	H 	0.15727 0.49453 0.90123 0.02800
H 	H 	0.10067 0.54613 0.87683 0.03600
C 	C 	0.06167 0.51453 0.89296 -0.12300
C 	C 	0.19757 0.40653 0.82150 0.09000
H 	H 	0.16557 0.43763 0.81323 0.08400
H 	H 	0.22867 0.38543 0.83433 0.07400
C 	C 	0.05877 0.48983 0.90355 0.09000
H 	H 	0.09087 0.46303 0.91363 0.08100
H 	H 	0.03727 0.52023 0.89103 0.06700
C 	C 	0.19157 0.37303 0.81151 -0.04500
C 	C 	0.01687 0.47453 0.91169 -0.04500
H 	H 	0.17257 0.34123 0.81473 0.04700
H 	H 	0.22207 0.37743 0.80903 0.05400
O 	O 	0.17017 0.37943 0.80107 -0.19700
H 	H 	0.98857 0.45763 0.90653 0.04800
H 	H 	0.01707 0.50163 0.91553 0.05300
O 	O 	0.01777 0.44583 0.92120 -0.21600
C 	C 	0.14897 0.34303 0.79254 0.10200
C 	C 	0.98117 0.42563 0.92881 0.14300
C 	C 	0.16117 0.30883 0.79226 -0.07100
C 	C 	0.12857 0.35153 0.78155 0.00600
C 	C 	0.94707 0.43653 0.92891 -0.11600
C 	C 	0.98667 0.40213 0.93968 -0.01600
H 	H 	0.18377 0.30983 0.79793 0.06300
C 	C 	0.13947 0.27303 0.78349 -0.08900
C 	C 	0.10847 0.31643 0.77324 -0.03400
C 	C 	0.11977 0.38953 0.77913 -0.08200
C 	C 	0.91127 0.41493 0.93833 -0.04800
H 	H 	0.94687 0.45763 0.92293 0.07700
C 	C 	0.95257 0.38073 0.94854 -0.00700
C 	C 	0.02307 0.38993 0.94148 -0.06500
H 	H 	0.14077 0.24543 0.78443 0.06600
C 	C 	0.11517 0.27893 0.77302 0.14200
C 	C 	0.07867 0.32473 0.76359 -0.05800
H 	H 	0.13537 0.41513 0.78543 0.06200
C 	C 	0.13287 0.40433 0.76683 0.03900
C 	C 	0.06907 0.36683 0.77983 0.02600
C 	C 	0.91687 0.38783 0.94873 0.09100
H 	H 	0.88457 0.41793 0.93793 0.05100
C 	C 	0.95547 0.35073 0.95770 -0.07300
H 	H 	0.04827 0.40463 0.93503 0.06000
C 	C 	0.00277 0.34123 0.94188 0.01900
C 	C 	0.03987 0.40823 0.95524 0.02400
O 	O 	0.09417 0.24673 0.76427 -0.22700
H 	H 	0.06317 0.29953 0.75713 0.05400
C 	C 	0.11347 0.37153 0.75783 0.00800
C 	C 	0.04657 0.33313 0.77093 0.03800
C 	C 	0.16297 0.44873 0.76273 -0.07800
C 	C 	0.04337 0.37913 0.78783 -0.07700
O 	O 	0.87977 0.37073 0.95751 -0.18900
H 	H 	0.92787 0.33453 0.96333 0.06100
C 	C 	0.96677 0.31963 0.95059 0.04100
C 	C 	0.00067 0.38563 0.96471 0.02400
C 	C 	0.01447 0.31323 0.93470 -0.07300
C 	C 	0.08437 0.43813 0.95897 -0.07100
C 	C 	0.10217 0.21333 0.76338 0.01500
C 	C 	0.12597 0.38403 0.74383 -0.07300
C 	C 	0.00377 0.30963 0.76916 -0.09100
C 	C 	0.17497 0.45563 0.74733 -0.04800
H 	H 	0.17607 0.47403 0.76843 0.05400
C 	C 	0.99807 0.35513 0.78693 -0.01900
H 	H 	0.05817 0.40383 0.79373 0.05500
C 	C 	0.85097 0.38883 0.95890 -0.06500
C 	C 	0.94497 0.27473 0.95193 -0.08300
C 	C 	0.01117 0.39653 0.97711 -0.08500
H 	H 	0.04017 0.32783 0.92913 0.06400
C 	C 	0.99137 0.26663 0.93523 -0.02500
H 	H 	0.10877 0.45213 0.95303 0.05900
C 	C 	0.09227 0.44723 0.97197 -0.03300
H 	H 	0.13577 0.22643 0.76223 0.03900
H 	H 	0.09377 0.19653 0.77153 0.03600
C 	C 	0.07767 0.17903 0.75302 0.08200
H 	H 	0.11167 0.36083 0.73753 0.04900
C 	C 	0.15707 0.42753 0.74033 -0.01000
H 	H 	0.99167 0.28553 0.76303 0.06300
C 	C 	0.97297 0.31943 0.77633 -0.02400
H 	H 	0.19817 0.48503 0.74443 0.04300
H 	H 	0.98017 0.36003 0.79303 0.03700
H 	H 	0.86927 0.42293 0.95933 0.06200
H 	H 	0.82967 0.38013 0.95163 0.05200
C 	C 	0.82487 0.36993 0.97063 0.12300
C 	C 	0.95857 0.24893 0.94453 -0.02000
H 	H 	0.92017 0.25993 0.95773 0.05900
C 	C 	0.05347 0.42763 0.98084 -0.02100
H 	H 	0.98767 0.38153 0.98333 0.06000
H 	H 	0.99727 0.24793 0.92963 0.04000
H 	H 	0.12277 0.46603 0.97503 0.04400
C 	C 	0.05637 0.19053 0.74375 -0.12100
C 	C 	0.07447 0.13543 0.75186 -0.14500
H 	H 	0.16377 0.43413 0.73163 0.02800
H 	H 	0.94077 0.30533 0.77473 0.03600
C 	C 	0.78967 0.38063 0.97453 -0.17800
C 	C 	0.83527 0.34813 0.97913 -0.15500
H 	H 	0.94407 0.21673 0.94613 0.03600
H 	H 	0.05857 0.43733 0.98943 0.03800
H 	H 	0.05747 0.21933 0.74433 0.08600
C 	C 	0.03317 0.16193 0.73342 0.06900
C 	C 	0.05207 0.10853 0.74171 0.09700
H 	H 	0.08767 0.12503 0.75813 0.08300
H 	H 	0.78017 0.39753 0.96933 0.08800
C 	C 	0.77067 0.36433 0.98661 0.13600
C 	C 	0.80827 0.32603 0.99112 0.09500
H 	H 	0.86217 0.34593 0.97773 0.09700
H 	H 	0.01997 0.17153 0.72703 0.02600
C 	C 	0.03007 0.11803 0.73292 -0.15900
H 	H 	0.05237 0.08043 0.74083 0.01100
H 	H 	0.74947 0.37353 0.98933 0.00500
C 	C 	0.77697 0.33913 0.99450 -0.21400
H 	H 	0.81267 0.30463 0.99593 0.01600
C 	C 	0.00317 0.08603 0.72253 0.41800
C 	C 	0.74827 0.31793 0.00523 0.45900
O 	O 	0.73017 0.33993 0.00912 -0.34900
Zn	Zn	0.93212 0.88769 0.20629 1.22700
O 	O 	0.95163 0.94447 0.19764 -0.67100
O 	O 	0.91483 0.84097 0.19301 -0.46900
O 	O 	0.87823 0.87027 0.21581 -0.48400
O 	O 	0.97393 0.88267 0.21672 -0.51000
Zn	Zn	0.89163 0.92757 0.19007 1.23000
C 	C 	0.89203 0.84437 0.18396 0.37500
C 	C 	0.84683 0.88097 0.21234 0.33200
O 	O 	0.87743 0.87087 0.18133 -0.49000
O 	O 	0.84783 0.90697 0.20349 -0.48400
O 	O 	0.87243 0.95777 0.17815 -0.51400
O 	O 	0.94543 0.98737 0.22056 -0.49100
C 	C 	0.88253 0.80727 0.17374 -0.10600
C 	C 	0.80523 0.86197 0.22129 -0.09000
C 	C 	0.85843 0.80487 0.16223 0.05000
C 	C 	0.89513 0.77517 0.17489 0.05500
C 	C 	0.79973 0.83367 0.23236 0.02900
C 	C 	0.76763 0.86547 0.21794 0.03000
C 	C 	0.84973 0.77247 0.15384 -0.12800
H 	H 	0.84883 0.82667 0.16067 0.02700
H 	H 	0.91143 0.77587 0.18237 0.03400
C 	C 	0.88633 0.74107 0.16607 -0.13600
C 	C 	0.76023 0.81487 0.23984 -0.11900
H 	H 	0.82393 0.82787 0.23457 0.02900
H 	H 	0.76733 0.87947 0.21017 0.03700
C 	C 	0.72833 0.84787 0.22630 -0.12000
C 	C 	0.86423 0.73987 0.15484 0.09000
H 	H 	0.83223 0.77097 0.14657 0.08400
H 	H 	0.89533 0.71877 0.16767 0.07400
C 	C 	0.72543 0.82317 0.23689 0.08700
H 	H 	0.75753 0.79637 0.24697 0.08000
H 	H 	0.70393 0.85357 0.22437 0.06800
C 	C 	0.85823 0.70637 0.14485 -0.04500
C 	C 	0.68353 0.80787 0.24503 -0.03600
H 	H 	0.83923 0.67457 0.14807 0.04700
H 	H 	0.88873 0.71077 0.14237 0.05400
O 	O 	0.83683 0.71277 0.13441 -0.19700
H 	H 	0.65523 0.79097 0.23987 0.04200
H 	H 	0.68373 0.83497 0.24887 0.05200
O 	O 	0.68443 0.77917 0.25454 -0.21400
C 	C 	0.81563 0.67637 0.12588 0.10100
C 	C 	0.64783 0.75897 0.26215 0.14100
C 	C 	0.82783 0.64217 0.12560 -0.07000
C 	C 	0.79523 0.68487 0.11489 0.00800
C 	C 	0.61373 0.76987 0.26225 -0.11500
C 	C 	0.65333 0.73547 0.27302 -0.02200
H 	H 	0.85043 0.64317 0.13127 0.06300
C 	C 	0.80613 0.60637 0.11683 -0.09000
C 	C 	0.77513 0.64977 0.10658 -0.03600
C 	C 	0.78643 0.72287 0.11247 -0.08600
C 	C 	0.57793 0.74827 0.27167 -0.04800
H 	H 	0.61353 0.79097 0.25627 0.07600
C 	C 	0.61923 0.71407 0.28188 -0.00600
C 	C 	0.68973 0.72327 0.27482 -0.06000
H 	H 	0.80743 0.57877 0.11777 0.06600
C 	C 	0.78183 0.61227 0.10636 0.14300
C 	C 	0.74533 0.65807 0.09693 -0.05200
H 	H 	0.80203 0.74847 0.11877 0.06300
C 	C 	0.79953 0.73767 0.10017 0.04200
C 	C 	0.73573 0.70017 0.11317 0.03100
C 	C 	0.58353 0.72117 0.28207 0.09100
H 	H 	0.55123 0.75127 0.27127 0.05100
C 	C 	0.62213 0.68407 0.29104 -0.07700
H 	H 	0.71493 0.73797 0.26837 0.05900
C 	C 	0.66943 0.67457 0.27522 0.01800
C 	C 	0.70653 0.74157 0.28858 0.02400
O 	O 	0.76083 0.58007 0.09761 -0.22700
H 	H 	0.72983 0.63287 0.09047 0.05300
C 	C 	0.78013 0.70487 0.09117 0.00500
C 	C 	0.71323 0.66647 0.10427 0.02600
C 	C 	0.82963 0.78207 0.09607 -0.08100
C 	C 	0.71003 0.71247 0.12117 -0.07400
O 	O 	0.54643 0.70407 0.29085 -0.18900
H 	H 	0.59453 0.66787 0.29667 0.06100
C 	C 	0.63343 0.65297 0.28393 0.04000
C 	C 	0.66733 0.71897 0.29805 0.02500
C 	C 	0.68113 0.64657 0.26804 -0.06200
C 	C 	0.75103 0.77147 0.29231 -0.07200
C 	C 	0.76883 0.54667 0.09672 0.01500
C 	C 	0.79263 0.71737 0.07717 -0.06900
C 	C 	0.67043 0.64297 0.10250 -0.06800
C 	C 	0.84163 0.78897 0.08067 -0.04400
H 	H 	0.84273 0.80737 0.10177 0.05500
C 	C 	0.66473 0.68847 0.12027 -0.02100
H 	H 	0.72483 0.73717 0.12707 0.05500
C 	C 	0.51763 0.72217 0.29224 -0.06500
C 	C 	0.61163 0.60807 0.28527 -0.08700
C 	C 	0.67783 0.72987 0.31045 -0.07500
H 	H 	0.70683 0.66117 0.26247 0.06100
C 	C 	0.65803 0.59997 0.26857 -0.03600
H 	H 	0.77543 0.78547 0.28637 0.06000
C 	C 	0.75893 0.78057 0.30531 -0.03000
H 	H 	0.80243 0.55977 0.09557 0.03800
H 	H 	0.76043 0.52987 0.10487 0.03700
C 	C 	0.74433 0.51237 0.08636 0.08300
H 	H 	0.77833 0.69417 0.07087 0.04800
C 	C 	0.82373 0.76087 0.07367 -0.01500
H 	H 	0.65833 0.61887 0.09637 0.05200
C 	C 	0.63963 0.65277 0.10967 -0.03700
H 	H 	0.86483 0.81837 0.07777 0.04200
H 	H 	0.64683 0.69337 0.12637 0.03600
H 	H 	0.53593 0.75627 0.29267 0.06200
H 	H 	0.49633 0.71347 0.28497 0.05200
C 	C 	0.49153 0.70327 0.30397 0.12300
C 	C 	0.62523 0.58227 0.27787 -0.01500
H 	H 	0.58683 0.59327 0.29107 0.06000
C 	C 	0.72013 0.76097 0.31418 -0.02700
H 	H 	0.65433 0.71487 0.31667 0.05300
H 	H 	0.66393 0.58127 0.26297 0.04300
H 	H 	0.78943 0.79937 0.30837 0.04300
C 	C 	0.72303 0.52387 0.07709 -0.12200
C 	C 	0.74113 0.46877 0.08520 -0.14600
H 	H 	0.83043 0.76747 0.06497 0.03000
H 	H 	0.60743 0.63867 0.10807 0.04000
C 	C 	0.45633 0.71397 0.30787 -0.17800
C 	C 	0.50193 0.68147 0.31247 -0.15500
H 	H 	0.61073 0.55007 0.27947 0.03400
H 	H 	0.72523 0.77067 0.32277 0.04100
H 	H 	0.72413 0.55267 0.07767 0.08700
C 	C 	0.69983 0.49527 0.06676 0.07100
C 	C 	0.71873 0.44187 0.07505 0.09800
H 	H 	0.75433 0.45837 0.09147 0.08300
H 	H 	0.44683 0.73087 0.30267 0.08800
C 	C 	0.43733 0.69767 0.31995 0.13600
C 	C 	0.47493 0.65937 0.32446 0.09500
H 	H 	0.52883 0.67927 0.31107 0.09700
H 	H 	0.68663 0.50487 0.06037 0.02700
C 	C 	0.69673 0.45137 0.06626 -0.16000
H 	H 	0.71903 0.41377 0.07417 0.01100
H 	H 	0.41613 0.70687 0.32267 0.00500
C 	C 	0.44363 0.67247 0.32784 -0.21300
H 	H 	0.47933 0.63797 0.32927 0.01600
C 	C 	0.66983 0.41937 0.05587 0.42400
C 	C 	0.41493 0.65127 0.33857 0.45900
O 	O 	0.39683 0.67327 0.34246 -0.34900
Zn	Zn	0.62223 0.40121 0.53962 1.22700
O 	O 	0.65950 0.38170 0.53097 -0.67400
O 	O 	0.59280 0.41850 0.52634 -0.47000
O 	O 	0.65870 0.45510 0.54914 -0.48400
O 	O 	0.57540 0.35940 0.55005 -0.51500
Zn	Zn	0.70260 0.44170 0.52340 1.23000
C 	C 	0.61900 0.44130 0.51729 0.37500
C 	C 	0.70080 0.48650 0.54567 0.33200
O 	O 	0.66010 0.45590 0.51466 -0.49000
O 	O 	0.72580 0.48550 0.53682 -0.48500
O 	O 	0.75200 0.46090 0.51148 -0.50900
O 	O 	0.70860 0.38790 0.55389 -0.49300
C 	C 	0.59140 0.45080 0.50707 -0.10600
C 	C 	0.72340 0.52810 0.55462 -0.09100
C 	C 	0.61310 0.47490 0.49556 0.05000
C 	C 	0.54670 0.43820 0.50822 0.05500
C 	C 	0.70060 0.53360 0.56569 0.02900
C 	C 	0.76450 0.56570 0.55127 0.03000
C 	C 	0.58940 0.48360 0.48717 -0.12800
H 	H 	0.64450 0.48450 0.49400 0.02700
H 	H 	0.53110 0.42190 0.51570 0.03300
C 	C 	0.52140 0.44700 0.49940 -0.13600
C 	C 	0.72130 0.57310 0.57317 -0.11900
H 	H 	0.67060 0.50940 0.56790 0.02900
H 	H 	0.77880 0.56600 0.54350 0.03600
C 	C 	0.78620 0.60500 0.55963 -0.12000
C 	C 	0.54230 0.46910 0.48817 0.09000
H 	H 	0.60540 0.50110 0.47990 0.08400
H 	H 	0.49010 0.43800 0.50100 0.07400
C 	C 	0.76440 0.60790 0.57022 0.08700
H 	H 	0.70550 0.57580 0.58030 0.08000
H 	H 	0.81630 0.62940 0.55770 0.06800
C 	C 	0.51480 0.47510 0.47818 -0.04500
C 	C 	0.79100 0.64980 0.57836 -0.03600
H 	H 	0.50200 0.49410 0.48140 0.04700
H 	H 	0.48870 0.44460 0.47570 0.05400
O 	O 	0.54260 0.49650 0.46774 -0.19700
H 	H 	0.80240 0.67810 0.57320 0.04200
H 	H 	0.81790 0.64960 0.58220 0.05200
O 	O 	0.76140 0.64890 0.58787 -0.21400
C 	C 	0.52740 0.51770 0.45921 0.10100
C 	C 	0.77780 0.68550 0.59548 0.14100
C 	C 	0.48100 0.50550 0.45893 -0.07000
C 	C 	0.55630 0.53810 0.44822 0.00800
C 	C 	0.82280 0.71960 0.59558 -0.11500
C 	C 	0.74880 0.68000 0.60635 -0.02200
H 	H 	0.45940 0.48290 0.46460 0.06300
C 	C 	0.46690 0.52720 0.45016 -0.09000
C 	C 	0.54130 0.55820 0.43991 -0.03600
C 	C 	0.60310 0.54690 0.44580 -0.08600
C 	C 	0.83700 0.75540 0.60500 -0.04800
H 	H 	0.84410 0.71980 0.58960 0.07600
C 	C 	0.76150 0.71410 0.61521 -0.00600
C 	C 	0.70020 0.64360 0.60815 -0.06000
H 	H 	0.43800 0.52590 0.45110 0.06600
C 	C 	0.49710 0.55150 0.43969 0.14300
C 	C 	0.57940 0.58800 0.43026 -0.05200
H 	H 	0.61310 0.53130 0.45210 0.06300
C 	C 	0.60480 0.53380 0.43350 0.04200
C 	C 	0.63110 0.59760 0.44650 0.03100
C 	C 	0.80430 0.74980 0.61540 0.09100
H 	H 	0.86670 0.78210 0.60460 0.05200
C 	C 	0.72860 0.71120 0.62437 -0.07700
H 	H 	0.68970 0.61840 0.60170 0.05900
C 	C 	0.67180 0.66390 0.60855 0.01800
C 	C 	0.70170 0.62680 0.62191 0.02400
O 	O 	0.48590 0.57250 0.43094 -0.22700
H 	H 	0.56970 0.60350 0.42380 0.05300
C 	C 	0.59140 0.55320 0.42450 0.00500
C 	C 	0.61990 0.62010 0.43760 0.02600
C 	C 	0.61910 0.50370 0.42940 -0.08100
C 	C 	0.66910 0.62330 0.45450 -0.07400
O 	O 	0.82430 0.78690 0.62418 -0.18900
H 	H 	0.74000 0.73880 0.63000 0.06200
C 	C 	0.68620 0.69990 0.61726 0.04000
C 	C 	0.71830 0.66600 0.63138 0.02500
C 	C 	0.63210 0.65220 0.60137 -0.06200
C 	C 	0.68710 0.58230 0.62564 -0.07200
C 	C 	0.44450 0.56450 0.43005 0.01500
C 	C 	0.59140 0.54070 0.41050 -0.06900
C 	C 	0.63920 0.66290 0.43583 -0.06800
C 	C 	0.61400 0.49170 0.41400 -0.04400
H 	H 	0.63130 0.49060 0.43510 0.05500
C 	C 	0.69040 0.66860 0.45360 -0.02100
H 	H 	0.67900 0.60850 0.46040 0.05500
C 	C 	0.87120 0.81570 0.62557 -0.06500
C 	C 	0.66310 0.72170 0.61860 -0.08700
C 	C 	0.71870 0.65550 0.64378 -0.07500
H 	H 	0.62100 0.62650 0.59580 0.06100
C 	C 	0.60860 0.67530 0.60190 -0.03600
H 	H 	0.67670 0.55790 0.61970 0.06000
C 	C 	0.68830 0.57440 0.63864 -0.03000
H 	H 	0.42400 0.53090 0.42890 0.03900
H 	H 	0.43610 0.57290 0.43820 0.03700
C 	C 	0.43470 0.58900 0.41969 0.08300
H 	H 	0.58250 0.55500 0.40420 0.04800
C 	C 	0.60380 0.50960 0.40700 -0.01500
H 	H 	0.62720 0.67500 0.42970 0.05200
C 	C 	0.67980 0.69370 0.44300 -0.03700
H 	H 	0.62020 0.46850 0.41110 0.04100
H 	H 	0.71320 0.68650 0.45970 0.03600
H 	H 	0.88700 0.79740 0.62600 0.06200
H 	H 	0.88380 0.83700 0.61830 0.05300
C 	C 	0.87840 0.84180 0.63730 0.12400
C 	C 	0.62370 0.70810 0.61120 -0.01500
H 	H 	0.67310 0.74650 0.62440 0.06000
C 	C 	0.70750 0.61320 0.64751 -0.02700
H 	H 	0.72720 0.67900 0.65000 0.05300
H 	H 	0.58400 0.66940 0.59630 0.04300
H 	H 	0.67660 0.54390 0.64170 0.04300
C 	C 	0.46750 0.61030 0.41042 -0.12200
C 	C 	0.39430 0.59220 0.41853 -0.14600
H 	H 	0.60370 0.50290 0.39830 0.03000
H 	H 	0.69790 0.72590 0.44140 0.04000
C 	C 	0.92430 0.87700 0.64120 -0.17700
C 	C 	0.84620 0.83140 0.64580 -0.15400
H 	H 	0.60600 0.72260 0.61280 0.03400
H 	H 	0.71210 0.60810 0.65610 0.04100
H 	H 	0.49520 0.60920 0.41100 0.08700
C 	C 	0.46210 0.63350 0.40009 0.07100
C 	C 	0.38980 0.61460 0.40838 0.09800
H 	H 	0.37070 0.57900 0.42480 0.08300
H 	H 	0.95070 0.88650 0.63600 0.08900
C 	C 	0.92700 0.89600 0.65328 0.13600
C 	C 	0.85110 0.85840 0.65779 0.09500
H 	H 	0.81710 0.80450 0.64440 0.09700
H 	H 	0.48490 0.64670 0.39370 0.02700
C 	C 	0.42130 0.63660 0.39959 -0.16000
H 	H 	0.36140 0.61430 0.40750 0.01100
H 	H 	0.95740 0.91720 0.65600 0.00700
C 	C 	0.89550 0.88970 0.66117 -0.21200
H 	H 	0.82530 0.85400 0.66260 0.01600
C 	C 	0.41620 0.66350 0.38920 0.42400
C 	C 	0.90300 0.91840 0.67190 0.45800
O 	O 	0.94310 0.93650 0.67579 -0.34700
Zn	Zn	0.28890 0.73454 0.87295 1.22700
O 	O 	0.32617 0.71503 0.86430 -0.67400
O 	O 	0.25947 0.75183 0.85967 -0.47000
O 	O 	0.32537 0.78843 0.88247 -0.48400
O 	O 	0.24207 0.69273 0.88338 -0.51500
Zn	Zn	0.36927 0.77503 0.85673 1.23000
C 	C 	0.28567 0.77463 0.85062 0.37500
C 	C 	0.36747 0.81983 0.87900 0.33200
O 	O 	0.32677 0.78923 0.84799 -0.49000
O 	O 	0.39247 0.81883 0.87015 -0.48400
O 	O 	0.41867 0.79423 0.84481 -0.50900
O 	O 	0.37527 0.72123 0.88722 -0.49300
C 	C 	0.25807 0.78413 0.84040 -0.10600
C 	C 	0.39007 0.86143 0.88795 -0.09000
C 	C 	0.27977 0.80823 0.82889 0.05000
C 	C 	0.21337 0.77153 0.84155 0.05500
C 	C 	0.36727 0.86693 0.89902 0.02800
C 	C 	0.43117 0.89903 0.88460 0.02900
C 	C 	0.25607 0.81693 0.82050 -0.12800
H 	H 	0.31117 0.81783 0.82733 0.02700
H 	H 	0.19777 0.75523 0.84903 0.03300
C 	C 	0.18807 0.78033 0.83273 -0.13600
C 	C 	0.38797 0.90643 0.90650 -0.11700
H 	H 	0.33727 0.84273 0.90123 0.02900
H 	H 	0.44547 0.89933 0.87683 0.03700
C 	C 	0.45287 0.93833 0.89296 -0.11800
C 	C 	0.20897 0.80243 0.82150 0.09000
H 	H 	0.27207 0.83443 0.81323 0.08400
H 	H 	0.15677 0.77133 0.83433 0.07400
C 	C 	0.43107 0.94123 0.90355 0.08400
H 	H 	0.37217 0.90913 0.91363 0.07900
H 	H 	0.48297 0.96273 0.89103 0.06800
C 	C 	0.18147 0.80843 0.81151 -0.04500
C 	C 	0.45767 0.98313 0.91169 -0.02700
H 	H 	0.16867 0.82743 0.81473 0.04700
H 	H 	0.15537 0.77793 0.80903 0.05400
O 	O 	0.20927 0.82983 0.80107 -0.19600
H 	H 	0.46907 0.01143 0.90653 0.03600
H 	H 	0.48457 0.98293 0.91553 0.05100
O 	O 	0.42807 0.98223 0.92120 -0.21200
C 	C 	0.19407 0.85103 0.79254 0.10100
C 	C 	0.44447 0.01883 0.92881 0.13800
C 	C 	0.14767 0.83883 0.79226 -0.06900
C 	C 	0.22297 0.87143 0.78155 0.01000
C 	C 	0.48947 0.05293 0.92891 -0.11500
C 	C 	0.41547 0.01333 0.93968 -0.02700
H 	H 	0.12607 0.81623 0.79793 0.06300
C 	C 	0.13357 0.86053 0.78349 -0.09000
C 	C 	0.20797 0.89153 0.77324 -0.03800
C 	C 	0.26977 0.88023 0.77913 -0.08900
C 	C 	0.50367 0.08873 0.93833 -0.04800
H 	H 	0.51077 0.05313 0.92293 0.07500
C 	C 	0.42817 0.04743 0.94854 -0.00400
C 	C 	0.36687 0.97693 0.94148 -0.05400
H 	H 	0.10467 0.85923 0.78443 0.06700
C 	C 	0.16377 0.88483 0.77302 0.14400
C 	C 	0.24607 0.92133 0.76359 -0.04600
H 	H 	0.27977 0.86463 0.78543 0.06400
C 	C 	0.27147 0.86713 0.76683 0.04500
C 	C 	0.29777 0.93093 0.77983 0.03500
C 	C 	0.47097 0.08313 0.94873 0.09000
H 	H 	0.53337 0.11543 0.93793 0.05100
C 	C 	0.39527 0.04453 0.95770 -0.08100
H 	H 	0.35637 0.95173 0.93503 0.05800
C 	C 	0.33847 0.99723 0.94188 0.01800
C 	C 	0.36837 0.96013 0.95524 0.02400
O 	O 	0.15257 0.90583 0.76427 -0.22600
H 	H 	0.23637 0.93683 0.75713 0.05200
C 	C 	0.25807 0.88653 0.75783 0.00200
C 	C 	0.28657 0.95343 0.77093 0.01500
C 	C 	0.28577 0.83703 0.76273 -0.08300
C 	C 	0.33577 0.95663 0.78783 -0.07100
O 	O 	0.49097 0.12023 0.95751 -0.18900
H 	H 	0.40667 0.07213 0.96333 0.06200
C 	C 	0.35287 0.03323 0.95059 0.03900
C 	C 	0.38497 0.99933 0.96471 0.02600
C 	C 	0.29877 0.98553 0.93470 -0.05100
C 	C 	0.35377 0.91563 0.95897 -0.07300
C 	C 	0.11117 0.89783 0.76338 0.01500
C 	C 	0.25807 0.87403 0.74383 -0.06600
C 	C 	0.30587 0.99623 0.76916 -0.04400
C 	C 	0.28067 0.82503 0.74733 -0.04000
H 	H 	0.29797 0.82393 0.76843 0.05600
C 	C 	0.35707 0.00193 0.78693 -0.02400
H 	H 	0.34567 0.94183 0.79373 0.05500
C 	C 	0.53787 0.14903 0.95890 -0.06500
C 	C 	0.32977 0.05503 0.95193 -0.09000
C 	C 	0.38537 0.98883 0.97711 -0.06400
H 	H 	0.28767 0.95983 0.92913 0.05800
C 	C 	0.27527 0.00863 0.93523 -0.04900
H 	H 	0.34337 0.89123 0.95303 0.06000
C 	C 	0.35497 0.90773 0.97197 -0.02700
H 	H 	0.09067 0.86423 0.76223 0.03800
H 	H 	0.10277 0.90623 0.77153 0.03700
C 	C 	0.10137 0.92233 0.75302 0.08400
H 	H 	0.24917 0.88833 0.73753 0.04800
C 	C 	0.27047 0.84293 0.74033 -0.01900
H 	H 	0.29387 0.00833 0.76303 0.04000
C 	C 	0.34647 0.02703 0.77633 -0.05100
H 	H 	0.28687 0.80183 0.74443 0.04000
H 	H 	0.37987 0.01983 0.79303 0.03600
H 	H 	0.55367 0.13073 0.95933 0.06200
H 	H 	0.55047 0.17033 0.95163 0.05200
C 	C 	0.54507 0.17513 0.97063 0.12300
C 	C 	0.29037 0.04143 0.94453 -0.01000
H 	H 	0.33977 0.07983 0.95773 0.06000
C 	C 	0.37417 0.94653 0.98084 -0.03300
H 	H 	0.39387 0.01233 0.98333 0.04600
H 	H 	0.25067 0.00273 0.92963 0.04500
H 	H 	0.34327 0.87723 0.97503 0.04200
C 	C 	0.13417 0.94363 0.74375 -0.12200
C 	C 	0.06097 0.92553 0.75186 -0.14700
H 	H 	0.27037 0.83623 0.73163 0.03100
H 	H 	0.36457 0.05923 0.77473 0.04400
C 	C 	0.59097 0.21033 0.97453 -0.17800
C 	C 	0.51287 0.16473 0.97913 -0.15500
H 	H 	0.27267 0.05593 0.94613 0.03100
H 	H 	0.37877 0.94143 0.98943 0.04400
H 	H 	0.16187 0.94253 0.74433 0.08800
C 	C 	0.12877 0.96683 0.73342 0.07300
C 	C 	0.05647 0.94793 0.74171 0.10100
H 	H 	0.03737 0.91233 0.75813 0.08300
H 	H 	0.61737 0.21983 0.96933 0.08800
C 	C 	0.59367 0.22933 0.98661 0.13600
C 	C 	0.51777 0.19173 0.99112 0.09500
H 	H 	0.48377 0.13783 0.97773 0.09700
H 	H 	0.15157 0.98003 0.72703 0.02700
C 	C 	0.08797 0.96993 0.73292 -0.16300
H 	H 	0.02807 0.94763 0.74083 0.00900
H 	H 	0.62407 0.25053 0.98933 0.00500
C 	C 	0.56217 0.22303 0.99450 -0.21300
H 	H 	0.49197 0.18733 0.99593 0.01600
C 	C 	0.08287 0.99683 0.72253 0.43200
C 	C 	0.56967 0.25173 0.00523 0.45900
O 	O 	0.60977 0.26983 0.00912 -0.34900
Zn	Zn	0.95556 0.06788 0.20629 1.22700
O 	O 	0.99283 0.04837 0.19764 -0.67100
O 	O 	0.92613 0.08517 0.19301 -0.47000
O 	O 	0.99203 0.12177 0.21581 -0.48000
O 	O 	0.90873 0.02607 0.21672 -0.52000
Zn	Zn	0.03593 0.10837 0.19007 1.22900
C 	C 	0.95233 0.10797 0.18396 0.37500
C 	C 	0.03413 0.15317 0.21234 0.32600
O 	O 	0.99343 0.12257 0.18133 -0.48800
O 	O 	0.05913 0.15217 0.20349 -0.48500
O 	O 	0.08533 0.12757 0.17815 -0.51000
O 	O 	0.04193 0.05457 0.22056 -0.49600
C 	C 	0.92473 0.11747 0.17374 -0.10600
C 	C 	0.05673 0.19477 0.22129 -0.09000
C 	C 	0.94643 0.14157 0.16223 0.05000
C 	C 	0.88003 0.10487 0.17489 0.05500
C 	C 	0.03393 0.20027 0.23236 0.02800
C 	C 	0.09783 0.23237 0.21794 0.02900
C 	C 	0.92273 0.15027 0.15384 -0.12800
H 	H 	0.97783 0.15117 0.16067 0.02800
H 	H 	0.86443 0.08857 0.18237 0.03300
C 	C 	0.85473 0.11367 0.16607 -0.13600
C 	C 	0.05463 0.23977 0.23984 -0.11900
H 	H 	0.00393 0.17607 0.23457 0.02700
H 	H 	0.11213 0.23267 0.21017 0.03600
C 	C 	0.11953 0.27167 0.22630 -0.12000
C 	C 	0.87563 0.13577 0.15484 0.09000
H 	H 	0.93873 0.16777 0.14657 0.08500
H 	H 	0.82343 0.10467 0.16767 0.07300
C 	C 	0.09773 0.27457 0.23689 0.08600
H 	H 	0.03883 0.24247 0.24697 0.07900
H 	H 	0.14963 0.29607 0.22437 0.06700
C 	C 	0.84813 0.14177 0.14485 -0.04500
C 	C 	0.12433 0.31647 0.24503 -0.03600
H 	H 	0.83533 0.16077 0.14807 0.04700
H 	H 	0.82203 0.11127 0.14237 0.05400
O 	O 	0.87593 0.16317 0.13441 -0.19600
H 	H 	0.13573 0.34477 0.23987 0.04200
H 	H 	0.15123 0.31627 0.24887 0.05200
O 	O 	0.09473 0.31557 0.25454 -0.21400
C 	C 	0.86073 0.18437 0.12588 0.09900
C 	C 	0.11113 0.35217 0.26215 0.14000
C 	C 	0.81433 0.17217 0.12560 -0.06800
C 	C 	0.88963 0.20477 0.11489 0.01300
C 	C 	0.15613 0.38627 0.26225 -0.11400
C 	C 	0.08213 0.34667 0.27302 -0.02000
H 	H 	0.79273 0.14957 0.13127 0.06300
C 	C 	0.80023 0.19387 0.11683 -0.09100
C 	C 	0.87463 0.22487 0.10658 -0.04000
C 	C 	0.93643 0.21357 0.11247 -0.09700
C 	C 	0.17033 0.42207 0.27167 -0.04900
H 	H 	0.17743 0.38647 0.25627 0.07500
C 	C 	0.09483 0.38077 0.28188 -0.00900
C 	C 	0.03353 0.31027 0.27482 -0.06200
H 	H 	0.77133 0.19257 0.11777 0.06700
C 	C 	0.83043 0.21817 0.10636 0.14500
C 	C 	0.91273 0.25467 0.09693 -0.04300
H 	H 	0.94643 0.19797 0.11877 0.06600
C 	C 	0.93813 0.20047 0.10017 0.05000
C 	C 	0.96443 0.26427 0.11317 0.04800
C 	C 	0.13763 0.41647 0.28207 0.09200
H 	H 	0.20003 0.44877 0.27127 0.05100
C 	C 	0.06193 0.37787 0.29104 -0.06900
H 	H 	0.02303 0.28507 0.26837 0.05800
C 	C 	0.00513 0.33057 0.27522 0.02100
C 	C 	0.03503 0.29347 0.28858 0.02500
O 	O 	0.81923 0.23917 0.09761 -0.22700
H 	H 	0.90303 0.27017 0.09047 0.05100
C 	C 	0.92473 0.21987 0.09117 -0.00100
C 	C 	0.95323 0.28677 0.10427 0.01100
C 	C 	0.95243 0.17037 0.09607 -0.08600
C 	C 	0.00243 0.28997 0.12117 -0.09400
O 	O 	0.15763 0.45357 0.29085 -0.19000
H 	H 	0.07333 0.40547 0.29667 0.05900
C 	C 	0.01953 0.36657 0.28393 0.02400
C 	C 	0.05163 0.33267 0.29805 0.02200
C 	C 	0.96543 0.31887 0.26804 -0.06300
C 	C 	0.02043 0.24897 0.29231 -0.07400
C 	C 	0.77783 0.23117 0.09672 0.01500
C 	C 	0.92473 0.20737 0.07717 -0.06200
C 	C 	0.97253 0.32957 0.10250 -0.04700
C 	C 	0.94733 0.15837 0.08067 -0.03500
H 	H 	0.96463 0.15727 0.10177 0.05700
C 	C 	0.02373 0.33527 0.12027 -0.00800
H 	H 	0.01233 0.27517 0.12707 0.05900
C 	C 	0.20453 0.48237 0.29224 -0.06500
C 	C 	0.99643 0.38837 0.28527 -0.05900
C 	C 	0.05203 0.32217 0.31045 -0.07300
H 	H 	0.95433 0.29317 0.26247 0.06200
C 	C 	0.94193 0.34197 0.26857 -0.02700
H 	H 	0.01003 0.22457 0.28637 0.05900
C 	C 	0.02163 0.24107 0.30531 -0.03000
H 	H 	0.75733 0.19757 0.09557 0.03800
H 	H 	0.76943 0.23957 0.10487 0.03700
C 	C 	0.76803 0.25567 0.08636 0.08300
H 	H 	0.91583 0.22167 0.07087 0.04600
C 	C 	0.93713 0.17627 0.07367 -0.02500
H 	H 	0.96053 0.34167 0.09637 0.04600
C 	C 	0.01313 0.36037 0.10967 -0.05500
H 	H 	0.95353 0.13517 0.07777 0.03900
H 	H 	0.04653 0.35317 0.12637 0.03100
H 	H 	0.22033 0.46407 0.29267 0.06200
H 	H 	0.21713 0.50367 0.28497 0.05200
C 	C 	0.21173 0.50847 0.30397 0.12300
C 	C 	0.95703 0.37477 0.27787 -0.02900
H 	H 	0.00643 0.41317 0.29107 0.04700
C 	C 	0.04083 0.27987 0.31418 -0.02900
H 	H 	0.06053 0.34567 0.31667 0.05200
H 	H 	0.91733 0.33607 0.26297 0.04000
H 	H 	0.00993 0.21057 0.30837 0.04200
C 	C 	0.80083 0.27697 0.07709 -0.12200
C 	C 	0.72763 0.25887 0.08520 -0.14600
H 	H 	0.93703 0.16957 0.06497 0.03400
H 	H 	0.03123 0.39257 0.10807 0.04500
C 	C 	0.25763 0.54367 0.30787 -0.17800
C 	C 	0.17953 0.49807 0.31247 -0.15500
H 	H 	0.93933 0.38927 0.27947 0.04000
H 	H 	0.04543 0.27477 0.32277 0.04100
H 	H 	0.82853 0.27587 0.07767 0.08700
C 	C 	0.79543 0.30017 0.06676 0.07100
C 	C 	0.72313 0.28127 0.07505 0.09800
H 	H 	0.70403 0.24567 0.09147 0.08300
H 	H 	0.28403 0.55317 0.30267 0.08800
C 	C 	0.26033 0.56267 0.31995 0.13600
C 	C 	0.18443 0.52507 0.32446 0.09500
H 	H 	0.15043 0.47117 0.31107 0.09700
H 	H 	0.81823 0.31337 0.06037 0.02700
C 	C 	0.75463 0.30327 0.06626 -0.16000
H 	H 	0.69473 0.28097 0.07417 0.01100
H 	H 	0.29073 0.58387 0.32267 0.00500
C 	C 	0.22883 0.55637 0.32784 -0.21400
H 	H 	0.15863 0.52067 0.32927 0.01600
C 	C 	0.74953 0.33017 0.05587 0.42400
C 	C 	0.23633 0.58507 0.33857 0.46000
O 	O 	0.27643 0.60317 0.34246 -0.34900
Zn	Zn	0.77898 0.37777 0.53962 1.22700
O 	O 	0.72220 0.34050 0.53097 -0.67400
O 	O 	0.82570 0.40720 0.52634 -0.47000
O 	O 	0.79640 0.34130 0.54914 -0.48400
O 	O 	0.78400 0.42460 0.55005 -0.51500
Zn	Zn	0.73910 0.29740 0.52340 1.23000
C 	C 	0.82230 0.38100 0.51729 0.37500
C 	C 	0.78570 0.29920 0.54567 0.33200
O 	O 	0.79580 0.33990 0.51466 -0.49000
O 	O 	0.75970 0.27420 0.53682 -0.48500
O 	O 	0.70890 0.24800 0.51148 -0.50900
O 	O 	0.67930 0.29140 0.55389 -0.49300
C 	C 	0.85940 0.40860 0.50707 -0.10600
C 	C 	0.80470 0.27660 0.55462 -0.09100
C 	C 	0.86180 0.38690 0.49556 0.05100
C 	C 	0.89150 0.45330 0.50822 0.05600
C 	C 	0.83300 0.29940 0.56569 0.02900
C 	C 	0.80120 0.23550 0.55127 0.03000
C 	C 	0.89420 0.41060 0.48717 -0.12800
H 	H 	0.84000 0.35550 0.49400 0.02700
H 	H 	0.89080 0.46890 0.51570 0.03300
C 	C 	0.92560 0.47860 0.49940 -0.13700
C 	C 	0.85180 0.27870 0.57317 -0.12000
H 	H 	0.83880 0.32940 0.56790 0.02900
H 	H 	0.78720 0.22120 0.54350 0.03600
C 	C 	0.81880 0.21380 0.55963 -0.12100
C 	C 	0.92680 0.45770 0.48817 0.09100
H 	H 	0.89570 0.39460 0.47990 0.08400
H 	H 	0.94790 0.50990 0.50100 0.07500
C 	C 	0.84350 0.23560 0.57022 0.08700
H 	H 	0.87030 0.29450 0.58030 0.08000
H 	H 	0.81310 0.18370 0.55770 0.06800
C 	C 	0.96030 0.48520 0.47818 -0.04600
C 	C 	0.85880 0.20900 0.57836 -0.03700
H 	H 	0.99210 0.49800 0.48140 0.04900
H 	H 	0.95590 0.51130 0.47570 0.05500
O 	O 	0.95390 0.45740 0.46774 -0.19700
H 	H 	0.87570 0.19760 0.57320 0.04300
H 	H 	0.83170 0.18210 0.58220 0.05200
O 	O 	0.88750 0.23860 0.58787 -0.21300
C 	C 	0.99030 0.47260 0.45921 0.10500
C 	C 	0.90770 0.22220 0.59548 0.13700
C 	C 	0.02450 0.51900 0.45893 -0.07600
C 	C 	0.98180 0.44370 0.44822 0.01500
C 	C 	0.89680 0.17720 0.59558 -0.11200
C 	C 	0.93120 0.25120 0.60635 -0.01300
H 	H 	0.02350 0.54060 0.46460 0.06400
C 	C 	0.06030 0.53310 0.45016 -0.08900
C 	C 	0.01690 0.45870 0.43991 -0.04400
C 	C 	0.94380 0.39690 0.44580 -0.09400
C 	C 	0.91840 0.16300 0.60500 -0.05100
H 	H 	0.87570 0.15590 0.58960 0.07500
C 	C 	0.95260 0.23850 0.61521 -0.01400
C 	C 	0.94340 0.29980 0.60815 -0.07500
H 	H 	0.08790 0.56200 0.45110 0.06600
C 	C 	0.05440 0.50290 0.43969 0.14500
C 	C 	0.00860 0.42060 0.43026 -0.04800
H 	H 	0.91820 0.38690 0.45210 0.06500
C 	C 	0.92900 0.39520 0.43350 0.04600
C 	C 	0.96650 0.36890 0.44650 0.04500
C 	C 	0.94550 0.19570 0.61540 0.09600
H 	H 	0.91540 0.13330 0.60460 0.05200
C 	C 	0.98260 0.27140 0.62437 -0.05800
H 	H 	0.92870 0.31030 0.60170 0.06400
C 	C 	0.99210 0.32820 0.60855 0.04600
C 	C 	0.92510 0.29830 0.62191 0.03100
O 	O 	0.08660 0.51410 0.43094 -0.22700
H 	H 	0.03380 0.43030 0.42380 0.05100
C 	C 	0.96180 0.40860 0.42450 0.00600
C 	C 	0.00020 0.38010 0.43760 0.01100
C 	C 	0.88460 0.38090 0.42940 -0.08300
C 	C 	0.95420 0.33090 0.45450 -0.08600
O 	O 	0.96260 0.17570 0.62418 -0.19100
H 	H 	0.99880 0.26000 0.63000 0.05800
C 	C 	0.01370 0.31380 0.61726 0.01200
C 	C 	0.94770 0.28170 0.63138 0.01900
C 	C 	0.02010 0.36790 0.60137 -0.08900
C 	C 	0.89520 0.31290 0.62564 -0.07700
C 	C 	0.12000 0.55550 0.43005 0.01500
C 	C 	0.94930 0.40860 0.41050 -0.06800
C 	C 	0.02370 0.36080 0.43583 -0.05500
C 	C 	0.87770 0.38600 0.41400 -0.04200
H 	H 	0.85930 0.36870 0.43510 0.05500
C 	C 	0.97820 0.30960 0.45360 -0.00600
H 	H 	0.92950 0.32100 0.46040 0.05900
C 	C 	0.94450 0.12880 0.62557 -0.05500
C 	C 	0.05860 0.33690 0.61860 -0.06300
C 	C 	0.93680 0.28130 0.64378 -0.06900
H 	H 	0.00550 0.37900 0.59580 0.06800
C 	C 	0.06670 0.39140 0.60190 -0.01400
H 	H 	0.88120 0.32330 0.61970 0.06200
C 	C 	0.88610 0.31170 0.63864 -0.02600
H 	H 	0.10690 0.57600 0.42890 0.03800
H 	H 	0.13680 0.56390 0.43820 0.03700
C 	C 	0.15430 0.56530 0.41969 0.08300
H 	H 	0.97250 0.41750 0.40420 0.04900
C 	C 	0.90580 0.39620 0.40700 -0.01700
H 	H 	0.04780 0.37280 0.42970 0.04700
C 	C 	0.01390 0.32020 0.44300 -0.05200
H 	H 	0.84830 0.37980 0.41110 0.04100
H 	H 	0.97330 0.28680 0.45970 0.03200
H 	H 	0.91040 0.11300 0.62600 0.05900
H 	H 	0.95320 0.11620 0.61830 0.05000
C 	C 	0.96340 0.12160 0.63730 0.10900
C 	C 	0.08440 0.37630 0.61120 -0.03600
H 	H 	0.07340 0.32690 0.62440 0.05100
C 	C 	0.90570 0.29250 0.64751 -0.03100
H 	H 	0.95180 0.27280 0.65000 0.05200
H 	H 	0.08540 0.41600 0.59630 0.03500
H 	H 	0.86730 0.32340 0.64170 0.04200
C 	C 	0.14280 0.53250 0.41042 -0.12200
C 	C 	0.19790 0.60570 0.41853 -0.14600
H 	H 	0.89920 0.39630 0.39830 0.03100
H 	H 	0.02800 0.30210 0.44140 0.04400
C 	C 	0.95270 0.07570 0.64120 -0.16000
C 	C 	0.98520 0.15380 0.64580 -0.13300
H 	H 	0.11660 0.39400 0.61280 0.04000
H 	H 	0.89600 0.28790 0.65610 0.04300
H 	H 	0.11400 0.50480 0.41100 0.08700
C 	C 	0.17140 0.53790 0.40009 0.07100
C 	C 	0.22480 0.61020 0.40838 0.09800
H 	H 	0.20830 0.62930 0.42480 0.08300
H 	H 	0.93580 0.04930 0.63600 0.08200
C 	C 	0.96900 0.07300 0.65328 0.11200
C 	C 	0.00730 0.14890 0.65779 0.06500
H 	H 	0.98740 0.18290 0.64440 0.09100
H 	H 	0.16180 0.51510 0.39370 0.02600
C 	C 	0.21530 0.57870 0.39959 -0.16000
H 	H 	0.25290 0.63860 0.40750 0.01100
H 	H 	0.95980 0.04260 0.65600 0.01300
C 	C 	0.99420 0.10450 0.66117 -0.18100
H 	H 	0.02870 0.17470 0.66260 0.02500
C 	C 	0.24730 0.58380 0.38920 0.42400
C 	C 	0.01540 0.09700 0.67190 0.43500
O 	O 	0.99340 0.05690 0.67579 -0.34000
Zn	Zn	0.44565 0.71110 0.87295 1.22700
O 	O 	0.38887 0.67383 0.86430 -0.67400
O 	O 	0.49237 0.74053 0.85967 -0.47000
O 	O 	0.46307 0.67463 0.88247 -0.48400
O 	O 	0.45067 0.75793 0.88338 -0.51500
Zn	Zn	0.40577 0.63073 0.85673 1.23000
C 	C 	0.48897 0.71433 0.85062 0.37500
C 	C 	0.45237 0.63253 0.87900 0.33200
O 	O 	0.46247 0.67323 0.84799 -0.49000
O 	O 	0.42637 0.60753 0.87015 -0.48500
O 	O 	0.37557 0.58133 0.84481 -0.50900
O 	O 	0.34597 0.62473 0.88722 -0.49300
C 	C 	0.52607 0.74193 0.84040 -0.10600
C 	C 	0.47137 0.60993 0.88795 -0.09100
C 	C 	0.52847 0.72023 0.82889 0.05000
C 	C 	0.55817 0.78663 0.84155 0.05500
C 	C 	0.49967 0.63273 0.89902 0.02900
C 	C 	0.46787 0.56883 0.88460 0.03000
C 	C 	0.56087 0.74393 0.82050 -0.12800
H 	H 	0.50667 0.68883 0.82733 0.02700
H 	H 	0.55747 0.80223 0.84903 0.03300
C 	C 	0.59227 0.81193 0.83273 -0.13600
C 	C 	0.51847 0.61203 0.90650 -0.11900
H 	H 	0.50547 0.66273 0.90123 0.02900
H 	H 	0.45387 0.55453 0.87683 0.03600
C 	C 	0.48547 0.54713 0.89296 -0.12000
C 	C 	0.59347 0.79103 0.82150 0.09000
H 	H 	0.56237 0.72793 0.81323 0.08400
H 	H 	0.61457 0.84323 0.83433 0.07400
C 	C 	0.51017 0.56893 0.90355 0.08700
H 	H 	0.53697 0.62783 0.91363 0.08000
H 	H 	0.47977 0.51703 0.89103 0.06800
C 	C 	0.62697 0.81853 0.81151 -0.04500
C 	C 	0.52547 0.54233 0.91169 -0.03600
H 	H 	0.65877 0.83133 0.81473 0.04700
H 	H 	0.62257 0.84463 0.80903 0.05400
O 	O 	0.62057 0.79073 0.80107 -0.19700
H 	H 	0.54237 0.53093 0.90653 0.04200
H 	H 	0.49837 0.51543 0.91553 0.05200
O 	O 	0.55417 0.57193 0.92120 -0.21400
C 	C 	0.65697 0.80593 0.79254 0.10100
C 	C 	0.57437 0.55553 0.92881 0.14100
C 	C 	0.69117 0.85233 0.79226 -0.07000
C 	C 	0.64847 0.77703 0.78155 0.00800
C 	C 	0.56347 0.51053 0.92891 -0.11500
C 	C 	0.59787 0.58453 0.93968 -0.02200
H 	H 	0.69017 0.87393 0.79793 0.06300
C 	C 	0.72697 0.86643 0.78349 -0.09000
C 	C 	0.68357 0.79203 0.77324 -0.03600
C 	C 	0.61047 0.73023 0.77913 -0.08600
C 	C 	0.58507 0.49633 0.93833 -0.04800
H 	H 	0.54237 0.48923 0.92293 0.07600
C 	C 	0.61927 0.57183 0.94854 -0.00600
C 	C 	0.61007 0.63313 0.94148 -0.06000
H 	H 	0.75457 0.89533 0.78443 0.06700
C 	C 	0.72107 0.83623 0.77302 0.14300
C 	C 	0.67527 0.75393 0.76359 -0.05200
H 	H 	0.58487 0.72023 0.78543 0.06300
C 	C 	0.59567 0.72853 0.76683 0.04200
C 	C 	0.63317 0.70223 0.77983 0.03100
C 	C 	0.61217 0.52903 0.94873 0.09100
H 	H 	0.58207 0.46663 0.93793 0.05100
C 	C 	0.64927 0.60473 0.95770 -0.07700
H 	H 	0.59537 0.64363 0.93503 0.05900
C 	C 	0.65877 0.66153 0.94188 0.01800
C 	C 	0.59177 0.63163 0.95524 0.02400
O 	O 	0.75327 0.84743 0.76427 -0.22700
H 	H 	0.70047 0.76363 0.75713 0.05300
C 	C 	0.62847 0.74193 0.75783 0.00500
C 	C 	0.66687 0.71343 0.77093 0.02600
C 	C 	0.55127 0.71423 0.76273 -0.08100
C 	C 	0.62087 0.66423 0.78783 -0.07400
O 	O 	0.62927 0.50903 0.95751 -0.18900
H 	H 	0.66547 0.59333 0.96333 0.06200
C 	C 	0.68037 0.64713 0.95059 0.04000
C 	C 	0.61437 0.61503 0.96471 0.02500
C 	C 	0.68677 0.70123 0.93470 -0.06200
C 	C 	0.56187 0.64623 0.95897 -0.07200
C 	C 	0.78667 0.88883 0.76338 0.01500
C 	C 	0.61597 0.74193 0.74383 -0.06900
C 	C 	0.69037 0.69413 0.76916 -0.06800
C 	C 	0.54437 0.71933 0.74733 -0.04400
H 	H 	0.52597 0.70203 0.76843 0.05500
C 	C 	0.64487 0.64293 0.78693 -0.02100
H 	H 	0.59617 0.65433 0.79373 0.05500
C 	C 	0.61117 0.46213 0.95890 -0.06500
C 	C 	0.72527 0.67023 0.95193 -0.08700
C 	C 	0.60347 0.61463 0.97711 -0.07500
H 	H 	0.67217 0.71233 0.92913 0.06100
C 	C 	0.73337 0.72473 0.93523 -0.03600
H 	H 	0.54787 0.65663 0.95303 0.06000
C 	C 	0.55277 0.64503 0.97197 -0.03000
H 	H 	0.77357 0.90933 0.76223 0.03900
H 	H 	0.80347 0.89723 0.77153 0.03700
C 	C 	0.82097 0.89863 0.75302 0.08300
H 	H 	0.63917 0.75083 0.73753 0.04800
C 	C 	0.57247 0.72953 0.74033 -0.01500
H 	H 	0.71447 0.70613 0.76303 0.05200
C 	C 	0.68057 0.65353 0.77633 -0.03700
H 	H 	0.51497 0.71313 0.74443 0.04200
H 	H 	0.63997 0.62013 0.79303 0.03600
H 	H 	0.57707 0.44633 0.95933 0.06200
H 	H 	0.61987 0.44953 0.95163 0.05200
C 	C 	0.63007 0.45493 0.97063 0.12300
C 	C 	0.75107 0.70963 0.94453 -0.01500
H 	H 	0.74007 0.66023 0.95773 0.06000
C 	C 	0.57237 0.62583 0.98084 -0.02700
H 	H 	0.61847 0.60613 0.98333 0.05300
H 	H 	0.75207 0.74933 0.92963 0.04300
H 	H 	0.53397 0.65673 0.97503 0.04300
C 	C 	0.80947 0.86583 0.74375 -0.12100
C 	C 	0.86457 0.93903 0.75186 -0.14500
H 	H 	0.56587 0.72963 0.73163 0.03000
H 	H 	0.69467 0.63543 0.77473 0.04000
C 	C 	0.61937 0.40903 0.97453 -0.17800
C 	C 	0.65187 0.48713 0.97913 -0.15500
H 	H 	0.78327 0.72733 0.94613 0.03400
H 	H 	0.56267 0.62123 0.98943 0.04100
H 	H 	0.78067 0.83813 0.74433 0.08700
C 	C 	0.83807 0.87123 0.73342 0.07000
C 	C 	0.89147 0.94353 0.74171 0.09800
H 	H 	0.87497 0.96263 0.75813 0.08400
H 	H 	0.60247 0.38263 0.96933 0.08800
C 	C 	0.63567 0.40633 0.98661 0.13600
C 	C 	0.67397 0.48223 0.99112 0.09500
H 	H 	0.65407 0.51623 0.97773 0.09700
H 	H 	0.82847 0.84843 0.72703 0.02700
C 	C 	0.88197 0.91203 0.73292 -0.15900
H 	H 	0.91957 0.97193 0.74083 0.01300
H 	H 	0.62647 0.37593 0.98933 0.00500
C 	C 	0.66087 0.43783 0.99450 -0.21300
H 	H 	0.69537 0.50803 0.99593 0.01600
C 	C 	0.91397 0.91713 0.72253 0.42400
C 	C 	0.68207 0.43033 0.00523 0.45900
O 	O 	0.66007 0.39023 0.00912 -0.34900
Zn	Zn	0.11231 0.04444 0.20629 1.22700
O 	O 	0.05553 0.00717 0.19764 -0.67700
O 	O 	0.15903 0.07387 0.19301 -0.47000
O 	O 	0.12973 0.00797 0.21581 -0.48900
O 	O 	0.11733 0.09127 0.21672 -0.51600
Zn	Zn	0.07243 0.96407 0.19007 1.23100
C 	C 	0.15563 0.04767 0.18396 0.37600
C 	C 	0.11903 0.96587 0.21234 0.33800
O 	O 	0.12913 0.00657 0.18133 -0.49200
O 	O 	0.09303 0.94087 0.20349 -0.48600
O 	O 	0.04223 0.91467 0.17815 -0.50300
O 	O 	0.01263 0.95807 0.22056 -0.49100
C 	C 	0.19273 0.07527 0.17374 -0.10700
C 	C 	0.13803 0.94327 0.22129 -0.09200
C 	C 	0.19513 0.05357 0.16223 0.05000
C 	C 	0.22483 0.11997 0.17489 0.05500
C 	C 	0.16633 0.96607 0.23236 0.03100
C 	C 	0.13453 0.90217 0.21794 0.03100
C 	C 	0.22753 0.07727 0.15384 -0.12800
H 	H 	0.17333 0.02217 0.16067 0.02600
H 	H 	0.22413 0.13557 0.18237 0.03300
C 	C 	0.25893 0.14527 0.16607 -0.13600
C 	C 	0.18513 0.94537 0.23984 -0.12000
H 	H 	0.17213 0.99607 0.23457 0.03000
H 	H 	0.12053 0.88787 0.21017 0.03600
C 	C 	0.15213 0.88047 0.22630 -0.12100
C 	C 	0.26013 0.12437 0.15484 0.09000
H 	H 	0.22903 0.06127 0.14657 0.08400
H 	H 	0.28123 0.17657 0.16767 0.07400
C 	C 	0.17683 0.90227 0.23689 0.08800
H 	H 	0.20363 0.96117 0.24697 0.08100
H 	H 	0.14643 0.85037 0.22437 0.06800
C 	C 	0.29363 0.15187 0.14485 -0.04500
C 	C 	0.19213 0.87567 0.24503 -0.03700
H 	H 	0.32543 0.16467 0.14807 0.04700
H 	H 	0.28923 0.17797 0.14237 0.05400
O 	O 	0.28723 0.12407 0.13441 -0.19700
H 	H 	0.20903 0.86427 0.23987 0.04200
H 	H 	0.16503 0.84877 0.24887 0.05200
O 	O 	0.22083 0.90527 0.25454 -0.21400
C 	C 	0.32363 0.13927 0.12588 0.10300
C 	C 	0.24103 0.88887 0.26215 0.14200
C 	C 	0.35783 0.18567 0.12560 -0.07200
C 	C 	0.31513 0.11037 0.11489 0.00300
C 	C 	0.23013 0.84387 0.26225 -0.11600
C 	C 	0.26453 0.91787 0.27302 -0.02400
H 	H 	0.35683 0.20727 0.13127 0.06400
C 	C 	0.39363 0.19977 0.11683 -0.08800
C 	C 	0.35023 0.12537 0.10658 -0.03200
C 	C 	0.27713 0.06357 0.11247 -0.07500
C 	C 	0.25173 0.82967 0.27167 -0.04700
H 	H 	0.20903 0.82257 0.25627 0.07600
C 	C 	0.28593 0.90517 0.28188 -0.00200
C 	C 	0.27673 0.96647 0.27482 -0.05800
H 	H 	0.42123 0.22867 0.11777 0.06600
C 	C 	0.38773 0.16957 0.10636 0.14100
C 	C 	0.34193 0.08727 0.09693 -0.06100
H 	H 	0.25153 0.05357 0.11877 0.05900
C 	C 	0.26233 0.06187 0.10017 0.03400
C 	C 	0.29983 0.03557 0.11317 0.01400
C 	C 	0.27883 0.86237 0.28207 0.08900
H 	H 	0.24873 0.79997 0.27127 0.05100
C 	C 	0.31593 0.93807 0.29104 -0.08500
H 	H 	0.26203 0.97697 0.26837 0.06000
C 	C 	0.32543 0.99487 0.27522 0.01600
C 	C 	0.25843 0.96497 0.28858 0.02300
O 	O 	0.41993 0.18077 0.09761 -0.22600
H 	H 	0.36713 0.09697 0.09047 0.05600
C 	C 	0.29513 0.07527 0.09117 0.01100
C 	C 	0.33353 0.04677 0.10427 0.04100
C 	C 	0.21793 0.04757 0.09607 -0.07500
C 	C 	0.28753 0.99757 0.12117 -0.05500
O 	O 	0.29593 0.84237 0.29085 -0.18900
H 	H 	0.33213 0.92667 0.29667 0.06400
C 	C 	0.34703 0.98047 0.28393 0.05700
C 	C 	0.28103 0.94837 0.29805 0.02800
C 	C 	0.35343 0.03457 0.26804 -0.06100
C 	C 	0.22853 0.97957 0.29231 -0.07100
C 	C 	0.45333 0.22217 0.09672 0.01500
C 	C 	0.28263 0.07527 0.07717 -0.07700
C 	C 	0.35703 0.02747 0.10250 -0.08700
C 	C 	0.21103 0.05267 0.08067 -0.05400
H 	H 	0.19263 0.03537 0.10177 0.05200
C 	C 	0.31153 0.97627 0.12027 -0.03400
H 	H 	0.26283 0.98767 0.12707 0.05000
C 	C 	0.27783 0.79547 0.29224 -0.06500
C 	C 	0.39193 0.00357 0.28527 -0.11500
C 	C 	0.27013 0.94797 0.31045 -0.07700
H 	H 	0.33883 0.04567 0.26247 0.05900
C 	C 	0.40003 0.05807 0.26857 -0.04600
H 	H 	0.21453 0.98997 0.28637 0.06100
C 	C 	0.21943 0.97837 0.30531 -0.03100
H 	H 	0.44023 0.24267 0.09557 0.03900
H 	H 	0.47013 0.23057 0.10487 0.03700
C 	C 	0.48763 0.23197 0.08636 0.08300
H 	H 	0.30583 0.08417 0.07087 0.05000
C 	C 	0.23913 0.06287 0.07367 -0.00400
H 	H 	0.38113 0.03947 0.09637 0.05700
C 	C 	0.34723 0.98687 0.10967 -0.02100
H 	H 	0.18163 0.04647 0.07777 0.04300
H 	H 	0.30663 0.95347 0.12637 0.04100
H 	H 	0.24373 0.77967 0.29267 0.06200
H 	H 	0.28653 0.78287 0.28497 0.05200
C 	C 	0.29673 0.78827 0.30397 0.12400
C 	C 	0.41773 0.04297 0.27787 0.00000
H 	H 	0.40673 0.99357 0.29107 0.07200
C 	C 	0.23903 0.95917 0.31418 -0.02500
H 	H 	0.28513 0.93947 0.31667 0.05400
H 	H 	0.41873 0.08267 0.26297 0.04600
H 	H 	0.20063 0.99007 0.30837 0.04400
C 	C 	0.47613 0.19917 0.07709 -0.12200
C 	C 	0.53123 0.27237 0.08520 -0.14600
H 	H 	0.23253 0.06297 0.06497 0.02500
H 	H 	0.36133 0.96877 0.10807 0.03600
C 	C 	0.28603 0.74237 0.30787 -0.17800
C 	C 	0.31853 0.82047 0.31247 -0.15500
H 	H 	0.44993 0.06067 0.27947 0.02800
H 	H 	0.22933 0.95457 0.32277 0.04100
H 	H 	0.44733 0.17147 0.07767 0.08700
C 	C 	0.50473 0.20457 0.06676 0.07100
C 	C 	0.55813 0.27687 0.07505 0.09900
H 	H 	0.54163 0.29597 0.09147 0.08300
H 	H 	0.26913 0.71597 0.30267 0.08800
C 	C 	0.30233 0.73967 0.31995 0.13600
C 	C 	0.34063 0.81557 0.32446 0.09500
H 	H 	0.32073 0.84957 0.31107 0.09700
H 	H 	0.49513 0.18177 0.06037 0.02600
C 	C 	0.54863 0.24537 0.06626 -0.16000
H 	H 	0.58623 0.30527 0.07417 0.01100
H 	H 	0.29313 0.70927 0.32267 0.00500
C 	C 	0.32753 0.77117 0.32784 -0.21400
H 	H 	0.36203 0.84137 0.32927 0.01600
C 	C 	0.58063 0.25047 0.05587 0.42400
C 	C 	0.34873 0.76367 0.33857 0.45900
O 	O 	0.32673 0.72357 0.34246 -0.34900
Zn	Zn	0.66667 0.33333 0.04219 1.23600
Zn	Zn	0.33333 0.66667 0.37552 1.23600
Zn	Zn	0.00000 0.00000 0.70886 1.23300
Zn	Zn	0.66667 0.33333 0.54219 1.23600
Zn	Zn	0.33333 0.66667 0.87552 1.23600
Zn	Zn	0.00000 0.00000 0.20886 1.23300
Zn	Zn	0.40121 0.77898 0.46038 1.22700
O 	O 	0.38170 0.72220 0.46903 -0.67400
O 	O 	0.41850 0.82570 0.47366 -0.47000
O 	O 	0.45510 0.79640 0.45086 -0.48400
O 	O 	0.35940 0.78400 0.44995 -0.51500
Zn	Zn	0.44170 0.73910 0.47660 1.23000
C 	C 	0.44130 0.82230 0.48271 0.37500
C 	C 	0.48650 0.78570 0.45433 0.33200
O 	O 	0.45590 0.79580 0.48534 -0.49000
O 	O 	0.48550 0.75970 0.46318 -0.48500
O 	O 	0.46090 0.70890 0.48852 -0.50900
O 	O 	0.38790 0.67930 0.44611 -0.49300
C 	C 	0.45080 0.85940 0.49293 -0.10600
C 	C 	0.52810 0.80470 0.44538 -0.09100
C 	C 	0.47490 0.86180 0.50444 0.05100
C 	C 	0.43820 0.89150 0.49178 0.05600
C 	C 	0.53360 0.83300 0.43431 0.02900
C 	C 	0.56570 0.80120 0.44873 0.03000
C 	C 	0.48360 0.89420 0.51283 -0.12800
H 	H 	0.48450 0.84000 0.50600 0.02700
H 	H 	0.42190 0.89080 0.48430 0.03300
C 	C 	0.44700 0.92560 0.50060 -0.13700
C 	C 	0.57310 0.85180 0.42683 -0.12000
H 	H 	0.50940 0.83880 0.43210 0.02900
H 	H 	0.56600 0.78720 0.45650 0.03600
C 	C 	0.60500 0.81880 0.44037 -0.12100
C 	C 	0.46910 0.92680 0.51183 0.09100
H 	H 	0.50110 0.89570 0.52010 0.08500
H 	H 	0.43800 0.94790 0.49900 0.07500
C 	C 	0.60790 0.84350 0.42978 0.08700
H 	H 	0.57580 0.87030 0.41970 0.08000
H 	H 	0.62940 0.81310 0.44230 0.06800
C 	C 	0.47510 0.96030 0.52182 -0.04600
C 	C 	0.64980 0.85880 0.42164 -0.03700
H 	H 	0.49410 0.99210 0.51860 0.04900
H 	H 	0.44460 0.95590 0.52430 0.05500
O 	O 	0.49650 0.95390 0.53226 -0.19700
H 	H 	0.67810 0.87570 0.42680 0.04300
H 	H 	0.64960 0.83170 0.41780 0.05200
O 	O 	0.64890 0.88750 0.41213 -0.21300
C 	C 	0.51770 0.99030 0.54079 0.10500
C 	C 	0.68550 0.90770 0.40452 0.13700
C 	C 	0.50550 0.02450 0.54107 -0.07600
C 	C 	0.53810 0.98180 0.55178 0.01500
C 	C 	0.71960 0.89680 0.40442 -0.11200
C 	C 	0.68000 0.93120 0.39365 -0.01400
H 	H 	0.48290 0.02350 0.53540 0.06400
C 	C 	0.52720 0.06030 0.54984 -0.08900
C 	C 	0.55820 0.01690 0.56009 -0.04300
C 	C 	0.54690 0.94380 0.55420 -0.09400
C 	C 	0.75540 0.91840 0.39500 -0.05100
H 	H 	0.71980 0.87570 0.41040 0.07500
C 	C 	0.71410 0.95260 0.38479 -0.01400
C 	C 	0.64360 0.94340 0.39185 -0.07500
H 	H 	0.52590 0.08790 0.54890 0.06600
C 	C 	0.55150 0.05440 0.56031 0.14400
C 	C 	0.58800 0.00860 0.56974 -0.04800
H 	H 	0.53130 0.91820 0.54790 0.06500
C 	C 	0.53380 0.92900 0.56650 0.04600
C 	C 	0.59760 0.96650 0.55350 0.04400
C 	C 	0.74980 0.94550 0.38460 0.09500
H 	H 	0.78210 0.91540 0.39540 0.05300
C 	C 	0.71120 0.98260 0.37563 -0.05900
H 	H 	0.61840 0.92870 0.39830 0.06400
C 	C 	0.66390 0.99210 0.39145 0.04500
C 	C 	0.62680 0.92510 0.37809 0.03000
O 	O 	0.57250 0.08660 0.56906 -0.22700
H 	H 	0.60350 0.03380 0.57620 0.05200
C 	C 	0.55320 0.96180 0.57550 0.00600
C 	C 	0.62010 0.00020 0.56240 0.01200
C 	C 	0.50370 0.88460 0.57060 -0.08300
C 	C 	0.62330 0.95420 0.54550 -0.08600
O 	O 	0.78690 0.96260 0.37582 -0.19100
H 	H 	0.73880 0.99880 0.37000 0.05800
C 	C 	0.69990 0.01370 0.38274 0.01300
C 	C 	0.66600 0.94770 0.36862 0.01900
C 	C 	0.65220 0.02010 0.39863 -0.08800
C 	C 	0.58230 0.89520 0.37436 -0.07700
C 	C 	0.56450 0.12000 0.56995 0.01500
C 	C 	0.54070 0.94930 0.58950 -0.06800
C 	C 	0.66290 0.02370 0.56417 -0.05600
C 	C 	0.49170 0.87770 0.58600 -0.04200
H 	H 	0.49060 0.85930 0.56490 0.05500
C 	C 	0.66860 0.97820 0.54640 -0.00700
H 	H 	0.60850 0.92950 0.53960 0.05900
C 	C 	0.81570 0.94450 0.37443 -0.05700
C 	C 	0.72170 0.05860 0.38140 -0.06400
C 	C 	0.65550 0.93680 0.35622 -0.06900
H 	H 	0.62650 0.00550 0.40420 0.06700
C 	C 	0.67530 0.06670 0.39810 -0.01500
H 	H 	0.55790 0.88120 0.38030 0.06200
C 	C 	0.57440 0.88610 0.36136 -0.02600
H 	H 	0.53090 0.10690 0.57110 0.03800
H 	H 	0.57290 0.13680 0.56180 0.03700
C 	C 	0.58900 0.15430 0.58031 0.08300
H 	H 	0.55500 0.97250 0.59580 0.04900
C 	C 	0.50960 0.90580 0.59300 -0.01700
H 	H 	0.67500 0.04780 0.57030 0.04700
C 	C 	0.69370 0.01390 0.55700 -0.05100
H 	H 	0.46850 0.84830 0.58890 0.04100
H 	H 	0.68650 0.97330 0.54030 0.03300
H 	H 	0.79740 0.91040 0.37400 0.05900
H 	H 	0.83700 0.95320 0.38170 0.05100
C 	C 	0.84180 0.96340 0.36270 0.11100
C 	C 	0.70810 0.08440 0.38880 -0.03500
H 	H 	0.74650 0.07340 0.37560 0.05100
C 	C 	0.61320 0.90570 0.35249 -0.03100
H 	H 	0.67900 0.95180 0.35000 0.05200
H 	H 	0.66940 0.08540 0.40370 0.03500
H 	H 	0.54390 0.86730 0.35830 0.04200
C 	C 	0.61030 0.14280 0.58958 -0.12200
C 	C 	0.59220 0.19790 0.58147 -0.14600
H 	H 	0.50290 0.89920 0.60170 0.03100
H 	H 	0.72590 0.02800 0.55860 0.04400
C 	C 	0.87700 0.95270 0.35880 -0.16100
C 	C 	0.83140 0.98520 0.35420 -0.13500
H 	H 	0.72260 0.11660 0.38720 0.04000
H 	H 	0.60810 0.89600 0.34390 0.04200
H 	H 	0.60920 0.11400 0.58900 0.08700
C 	C 	0.63350 0.17140 0.59991 0.07100
C 	C 	0.61460 0.22480 0.59162 0.09800
H 	H 	0.57900 0.20830 0.57520 0.08300
H 	H 	0.88650 0.93580 0.36400 0.08300
C 	C 	0.89600 0.96900 0.34672 0.11400
C 	C 	0.85840 0.00730 0.34221 0.06800
H 	H 	0.80450 0.98740 0.35560 0.09200
H 	H 	0.64670 0.16180 0.60630 0.02600
C 	C 	0.63660 0.21530 0.60041 -0.16000
H 	H 	0.61430 0.25290 0.59250 0.01100
H 	H 	0.91720 0.95980 0.34400 0.01300
C 	C 	0.88970 0.99420 0.33883 -0.18300
H 	H 	0.85400 0.02870 0.33740 0.02400
C 	C 	0.66350 0.24730 0.61080 0.42400
C 	C 	0.91840 0.01540 0.32810 0.43700
O 	O 	0.93650 0.99340 0.32421 -0.33900
Zn	Zn	0.06788 0.11231 0.79371 1.22700
O 	O 	0.04837 0.05553 0.80236 -0.67600
O 	O 	0.08517 0.15903 0.80699 -0.47000
O 	O 	0.12177 0.12973 0.78419 -0.48400
O 	O 	0.02607 0.11733 0.78328 -0.52100
Zn	Zn	0.10837 0.07243 0.80993 1.23000
C 	C 	0.10797 0.15563 0.81604 0.37500
C 	C 	0.15317 0.11903 0.78766 0.33300
O 	O 	0.12257 0.12913 0.81867 -0.49000
O 	O 	0.15217 0.09303 0.79651 -0.48600
O 	O 	0.12757 0.04223 0.82185 -0.50300
O 	O 	0.05457 0.01263 0.77944 -0.49400
C 	C 	0.11747 0.19273 0.82626 -0.10600
C 	C 	0.19477 0.13803 0.77871 -0.09100
C 	C 	0.14157 0.19513 0.83777 0.05000
C 	C 	0.10487 0.22483 0.82511 0.05500
C 	C 	0.20027 0.16633 0.76764 0.02900
C 	C 	0.23237 0.13453 0.78206 0.03000
C 	C 	0.15027 0.22753 0.84616 -0.12800
H 	H 	0.15117 0.17333 0.83933 0.02700
H 	H 	0.08857 0.22413 0.81763 0.03300
C 	C 	0.11367 0.25893 0.83393 -0.13600
C 	C 	0.23977 0.18513 0.76016 -0.11900
H 	H 	0.17607 0.17213 0.76543 0.02900
H 	H 	0.23267 0.12053 0.78983 0.03600
C 	C 	0.27167 0.15213 0.77370 -0.12100
C 	C 	0.13577 0.26013 0.84516 0.09000
H 	H 	0.16777 0.22903 0.85343 0.08400
H 	H 	0.10467 0.28123 0.83233 0.07300
C 	C 	0.27457 0.17683 0.76311 0.08700
H 	H 	0.24247 0.20363 0.75303 0.08000
H 	H 	0.29607 0.14643 0.77563 0.06700
C 	C 	0.14177 0.29363 0.85515 -0.04500
C 	C 	0.31647 0.19213 0.75497 -0.03600
H 	H 	0.16077 0.32543 0.85193 0.04700
H 	H 	0.11127 0.28923 0.85763 0.05400
O 	O 	0.16317 0.28723 0.86559 -0.19700
H 	H 	0.34477 0.20903 0.76013 0.04200
H 	H 	0.31627 0.16503 0.75113 0.05200
O 	O 	0.31557 0.22083 0.74546 -0.21400
C 	C 	0.18437 0.32363 0.87412 0.10200
C 	C 	0.35217 0.24103 0.73785 0.14100
C 	C 	0.17217 0.35783 0.87440 -0.07000
C 	C 	0.20477 0.31513 0.88511 0.00800
C 	C 	0.38627 0.23013 0.73775 -0.11500
C 	C 	0.34667 0.26453 0.72698 -0.02200
H 	H 	0.14957 0.35683 0.86873 0.06300
C 	C 	0.19387 0.39363 0.88317 -0.09000
C 	C 	0.22487 0.35023 0.89342 -0.03600
C 	C 	0.21357 0.27713 0.88753 -0.08500
C 	C 	0.42207 0.25173 0.72833 -0.04800
H 	H 	0.38647 0.20903 0.74373 0.07600
C 	C 	0.38077 0.28593 0.71812 -0.00600
C 	C 	0.31027 0.27673 0.72518 -0.06000
H 	H 	0.19257 0.42123 0.88223 0.06600
C 	C 	0.21817 0.38773 0.89364 0.14300
C 	C 	0.25467 0.34193 0.90307 -0.05200
H 	H 	0.19797 0.25153 0.88123 0.06200
C 	C 	0.20047 0.26233 0.89983 0.04200
C 	C 	0.26427 0.29983 0.88683 0.03000
C 	C 	0.41647 0.27883 0.71793 0.09100
H 	H 	0.44877 0.24873 0.72873 0.05100
C 	C 	0.37787 0.31593 0.70896 -0.07700
H 	H 	0.28507 0.26203 0.73163 0.05900
C 	C 	0.33057 0.32543 0.72478 0.01800
C 	C 	0.29347 0.25843 0.71142 0.02400
O 	O 	0.23917 0.41993 0.90239 -0.22700
H 	H 	0.27017 0.36713 0.90953 0.05300
C 	C 	0.21987 0.29513 0.90883 0.00500
C 	C 	0.28677 0.33353 0.89573 0.02700
C 	C 	0.17037 0.21793 0.90393 -0.08000
C 	C 	0.28997 0.28753 0.87883 -0.07400
O 	O 	0.45357 0.29593 0.70915 -0.18900
H 	H 	0.40547 0.33213 0.70333 0.06100
C 	C 	0.36657 0.34703 0.71607 0.04000
C 	C 	0.33267 0.28103 0.70195 0.02500
C 	C 	0.31887 0.35343 0.73196 -0.06200
C 	C 	0.24897 0.22853 0.70769 -0.07200
C 	C 	0.23117 0.45333 0.90328 0.01500
C 	C 	0.20737 0.28263 0.92283 -0.07000
C 	C 	0.32957 0.35703 0.89750 -0.06800
C 	C 	0.15837 0.21103 0.91933 -0.04500
H 	H 	0.15727 0.19263 0.89823 0.05400
C 	C 	0.33527 0.31153 0.87973 -0.02200
H 	H 	0.27517 0.26283 0.87293 0.05400
C 	C 	0.48237 0.27783 0.70776 -0.06500
C 	C 	0.38837 0.39193 0.71473 -0.08700
C 	C 	0.32217 0.27013 0.68955 -0.07500
H 	H 	0.29317 0.33883 0.73753 0.06100
C 	C 	0.34197 0.40003 0.73143 -0.03600
H 	H 	0.22457 0.21453 0.71363 0.06000
C 	C 	0.24107 0.21943 0.69469 -0.03000
H 	H 	0.19757 0.44023 0.90443 0.03900
H 	H 	0.23957 0.47013 0.89513 0.03700
C 	C 	0.25567 0.48763 0.91364 0.08300
H 	H 	0.22167 0.30583 0.92913 0.04800
C 	C 	0.17627 0.23913 0.92633 -0.01400
H 	H 	0.34167 0.38113 0.90363 0.05200
C 	C 	0.36037 0.34723 0.89033 -0.03700
H 	H 	0.13517 0.18163 0.92223 0.04100
H 	H 	0.35317 0.30663 0.87363 0.03600
H 	H 	0.46407 0.24373 0.70733 0.06200
H 	H 	0.50367 0.28653 0.71503 0.05200
C 	C 	0.50847 0.29673 0.69603 0.12300
C 	C 	0.37477 0.41773 0.72213 -0.01500
H 	H 	0.41317 0.40673 0.70893 0.06000
C 	C 	0.27987 0.23903 0.68582 -0.02700
H 	H 	0.34567 0.28513 0.68333 0.05300
H 	H 	0.33607 0.41873 0.73703 0.04300
H 	H 	0.21057 0.20063 0.69163 0.04300
C 	C 	0.27697 0.47613 0.92291 -0.12200
C 	C 	0.25887 0.53123 0.91480 -0.14600
H 	H 	0.16957 0.23253 0.93503 0.02900
H 	H 	0.39257 0.36133 0.89193 0.04000
C 	C 	0.54367 0.28603 0.69213 -0.17800
C 	C 	0.49807 0.31853 0.68753 -0.15500
H 	H 	0.38927 0.44993 0.72053 0.03400
H 	H 	0.27477 0.22933 0.67723 0.04100
H 	H 	0.27587 0.44733 0.92233 0.08700
C 	C 	0.30017 0.50473 0.93324 0.07100
C 	C 	0.28127 0.55813 0.92495 0.09800
H 	H 	0.24567 0.54163 0.90853 0.08300
H 	H 	0.55317 0.26913 0.69733 0.08800
C 	C 	0.56267 0.30233 0.68005 0.13600
C 	C 	0.52507 0.34063 0.67554 0.09500
H 	H 	0.47117 0.32073 0.68893 0.09700
H 	H 	0.31337 0.49513 0.93963 0.02600
C 	C 	0.30327 0.54863 0.93374 -0.16000
H 	H 	0.28097 0.58623 0.92583 0.01100
H 	H 	0.58387 0.29313 0.67733 0.00500
C 	C 	0.55637 0.32753 0.67216 -0.21300
H 	H 	0.52067 0.36203 0.67073 0.01600
C 	C 	0.33017 0.58063 0.94413 0.42400
C 	C 	0.58507 0.34873 0.66143 0.45900
O 	O 	0.60317 0.32673 0.65754 -0.34900
Zn	Zn	0.73454 0.44565 0.12705 1.22700
O 	O 	0.71503 0.38887 0.13570 -0.67400
O 	O 	0.75183 0.49237 0.14033 -0.47000
O 	O 	0.78843 0.46307 0.11753 -0.48400
O 	O 	0.69273 0.45067 0.11662 -0.51500
Zn	Zn	0.77503 0.40577 0.14327 1.23000
C 	C 	0.77463 0.48897 0.14938 0.37500
C 	C 	0.81983 0.45237 0.12100 0.33200
O 	O 	0.78923 0.46247 0.15201 -0.49000
O 	O 	0.81883 0.42637 0.12985 -0.48400
O 	O 	0.79423 0.37557 0.15519 -0.50900
O 	O 	0.72123 0.34597 0.11278 -0.49300
C 	C 	0.78413 0.52607 0.15960 -0.10600
C 	C 	0.86143 0.47137 0.11205 -0.09000
C 	C 	0.80823 0.52847 0.17111 0.05000
C 	C 	0.77153 0.55817 0.15845 0.05500
C 	C 	0.86693 0.49967 0.10098 0.02800
C 	C 	0.89903 0.46787 0.11540 0.02900
C 	C 	0.81693 0.56087 0.17950 -0.12800
H 	H 	0.81783 0.50667 0.17267 0.02700
H 	H 	0.75523 0.55747 0.15097 0.03300
C 	C 	0.78033 0.59227 0.16727 -0.13600
C 	C 	0.90643 0.51847 0.09350 -0.11700
H 	H 	0.84273 0.50547 0.09877 0.02900
H 	H 	0.89933 0.45387 0.12317 0.03700
C 	C 	0.93833 0.48547 0.10704 -0.11800
C 	C 	0.80243 0.59347 0.17850 0.09000
H 	H 	0.83443 0.56237 0.18677 0.08400
H 	H 	0.77133 0.61457 0.16567 0.07400
C 	C 	0.94123 0.51017 0.09645 0.08400
H 	H 	0.90913 0.53697 0.08637 0.07900
H 	H 	0.96273 0.47977 0.10897 0.06800
C 	C 	0.80843 0.62697 0.18849 -0.04500
C 	C 	0.98313 0.52547 0.08831 -0.02700
H 	H 	0.82743 0.65877 0.18527 0.04700
H 	H 	0.77793 0.62257 0.19097 0.05400
O 	O 	0.82983 0.62057 0.19893 -0.19600
H 	H 	0.01143 0.54237 0.09347 0.03600
H 	H 	0.98293 0.49837 0.08447 0.05100
O 	O 	0.98223 0.55417 0.07880 -0.21200
C 	C 	0.85103 0.65697 0.20746 0.10100
C 	C 	0.01883 0.57437 0.07119 0.13800
C 	C 	0.83883 0.69117 0.20774 -0.06900
C 	C 	0.87143 0.64847 0.21845 0.00900
C 	C 	0.05293 0.56347 0.07109 -0.11500
C 	C 	0.01333 0.59787 0.06032 -0.02700
H 	H 	0.81623 0.69017 0.20207 0.06300
C 	C 	0.86053 0.72697 0.21651 -0.09000
C 	C 	0.89153 0.68357 0.22676 -0.03800
C 	C 	0.88023 0.61047 0.22087 -0.08900
C 	C 	0.08873 0.58507 0.06167 -0.04800
H 	H 	0.05313 0.54237 0.07707 0.07500
C 	C 	0.04743 0.61927 0.05146 -0.00400
C 	C 	0.97693 0.61007 0.05852 -0.05400
H 	H 	0.85923 0.75457 0.21557 0.06700
C 	C 	0.88483 0.72107 0.22698 0.14400
C 	C 	0.92133 0.67527 0.23641 -0.04600
H 	H 	0.86463 0.58487 0.21457 0.06400
C 	C 	0.86713 0.59567 0.23317 0.04500
C 	C 	0.93093 0.63317 0.22017 0.03500
C 	C 	0.08313 0.61217 0.05127 0.09000
H 	H 	0.11543 0.58207 0.06207 0.05100
C 	C 	0.04453 0.64927 0.04230 -0.08100
H 	H 	0.95173 0.59537 0.06497 0.05800
C 	C 	0.99723 0.65877 0.05812 0.01800
C 	C 	0.96013 0.59177 0.04476 0.02400
O 	O 	0.90583 0.75327 0.23573 -0.22600
H 	H 	0.93683 0.70047 0.24287 0.05200
C 	C 	0.88653 0.62847 0.24217 0.00200
C 	C 	0.95343 0.66687 0.22907 0.01600
C 	C 	0.83703 0.55127 0.23727 -0.08300
C 	C 	0.95663 0.62087 0.21217 -0.07100
O 	O 	0.12023 0.62927 0.04249 -0.18900
H 	H 	0.07213 0.66547 0.03667 0.06200
C 	C 	0.03323 0.68037 0.04941 0.03900
C 	C 	0.99933 0.61437 0.03529 0.02600
C 	C 	0.98553 0.68677 0.06530 -0.05100
C 	C 	0.91563 0.56187 0.04103 -0.07300
C 	C 	0.89783 0.78667 0.23662 0.01500
C 	C 	0.87403 0.61597 0.25617 -0.06600
C 	C 	0.99623 0.69037 0.23084 -0.04500
C 	C 	0.82503 0.54437 0.25267 -0.04000
H 	H 	0.82393 0.52597 0.23157 0.05600
C 	C 	0.00193 0.64487 0.21307 -0.02400
H 	H 	0.94183 0.59617 0.20627 0.05500
C 	C 	0.14903 0.61117 0.04110 -0.06500
C 	C 	0.05503 0.72527 0.04807 -0.09000
C 	C 	0.98883 0.60347 0.02289 -0.06400
H 	H 	0.95983 0.67217 0.07087 0.05800
C 	C 	0.00863 0.73337 0.06477 -0.04800
H 	H 	0.89123 0.54787 0.04697 0.06000
C 	C 	0.90773 0.55277 0.02803 -0.02700
H 	H 	0.86423 0.77357 0.23777 0.03900
H 	H 	0.90623 0.80347 0.22847 0.03700
C 	C 	0.92233 0.82097 0.24698 0.08400
H 	H 	0.88833 0.63917 0.26247 0.04800
C 	C 	0.84293 0.57247 0.25967 -0.01900
H 	H 	0.00833 0.71447 0.23697 0.04100
C 	C 	0.02703 0.68057 0.22367 -0.05000
H 	H 	0.80183 0.51497 0.25557 0.04000
H 	H 	0.01983 0.63997 0.20697 0.03600
H 	H 	0.13073 0.57707 0.04067 0.06200
H 	H 	0.17033 0.61987 0.04837 0.05200
C 	C 	0.17513 0.63007 0.02937 0.12300
C 	C 	0.04143 0.75107 0.05547 -0.01000
H 	H 	0.07983 0.74007 0.04227 0.06100
C 	C 	0.94653 0.57237 0.01916 -0.03200
H 	H 	0.01233 0.61847 0.01667 0.04600
H 	H 	0.00273 0.75207 0.07037 0.04500
H 	H 	0.87723 0.53397 0.02497 0.04200
C 	C 	0.94363 0.80947 0.25625 -0.12200
C 	C 	0.92553 0.86457 0.24814 -0.14600
H 	H 	0.83623 0.56587 0.26837 0.03100
H 	H 	0.05923 0.69467 0.22527 0.04400
C 	C 	0.21033 0.61937 0.02547 -0.17800
C 	C 	0.16473 0.65187 0.02087 -0.15500
H 	H 	0.05593 0.78327 0.05387 0.03200
H 	H 	0.94143 0.56267 0.01057 0.04400
H 	H 	0.94253 0.78067 0.25567 0.08800
C 	C 	0.96683 0.83807 0.26658 0.07200
C 	C 	0.94793 0.89147 0.25829 0.10000
H 	H 	0.91233 0.87497 0.24187 0.08400
H 	H 	0.21983 0.60247 0.03067 0.08800
C 	C 	0.22933 0.63567 0.01339 0.13600
C 	C 	0.19173 0.67397 0.00888 0.09500
H 	H 	0.13783 0.65407 0.02227 0.09700
H 	H 	0.98003 0.82847 0.27297 0.02700
C 	C 	0.96993 0.88197 0.26708 -0.16100
H 	H 	0.94763 0.91957 0.25917 0.01200
H 	H 	0.25053 0.62647 0.01067 0.00500
C 	C 	0.22303 0.66087 0.00550 -0.21400
H 	H 	0.18733 0.69537 0.00407 0.01600
C 	C 	0.99683 0.91397 0.27747 0.43000
C 	C 	0.25173 0.68207 0.99477 0.45900
O 	O 	0.26983 0.66007 0.99088 -0.34900
Zn	Zn	0.37777 0.59879 0.46038 1.22700
O 	O 	0.34050 0.61830 0.46903 -0.67400
O 	O 	0.40720 0.58150 0.47366 -0.47000
O 	O 	0.34130 0.54490 0.45086 -0.48400
O 	O 	0.42460 0.64060 0.44995 -0.51500
Zn	Zn	0.29740 0.55830 0.47660 1.23000
C 	C 	0.38100 0.55870 0.48271 0.37500
C 	C 	0.29920 0.51350 0.45433 0.33200
O 	O 	0.33990 0.54410 0.48534 -0.49000
O 	O 	0.27420 0.51450 0.46318 -0.48500
O 	O 	0.24800 0.53910 0.48852 -0.50900
O 	O 	0.29140 0.61210 0.44611 -0.49300
C 	C 	0.40860 0.54920 0.49293 -0.10600
C 	C 	0.27660 0.47190 0.44538 -0.09100
C 	C 	0.38690 0.52510 0.50444 0.05000
C 	C 	0.45330 0.56180 0.49178 0.05500
C 	C 	0.29940 0.46640 0.43431 0.02900
C 	C 	0.23550 0.43430 0.44873 0.03000
C 	C 	0.41060 0.51640 0.51283 -0.12800
H 	H 	0.35550 0.51550 0.50600 0.02700
H 	H 	0.46890 0.57810 0.48430 0.03300
C 	C 	0.47860 0.55300 0.50060 -0.13600
C 	C 	0.27870 0.42690 0.42683 -0.11900
H 	H 	0.32940 0.49060 0.43210 0.02900
H 	H 	0.22120 0.43400 0.45650 0.03600
C 	C 	0.21380 0.39500 0.44037 -0.12000
C 	C 	0.45770 0.53090 0.51183 0.09000
H 	H 	0.39460 0.49890 0.52010 0.08400
H 	H 	0.50990 0.56200 0.49900 0.07400
C 	C 	0.23560 0.39210 0.42978 0.08700
H 	H 	0.29450 0.42420 0.41970 0.08000
H 	H 	0.18370 0.37060 0.44230 0.06700
C 	C 	0.48520 0.52490 0.52182 -0.04500
C 	C 	0.20900 0.35020 0.42164 -0.03600
H 	H 	0.49800 0.50590 0.51860 0.04700
H 	H 	0.51130 0.55540 0.52430 0.05400
O 	O 	0.45740 0.50350 0.53226 -0.19700
H 	H 	0.19760 0.32190 0.42680 0.04200
H 	H 	0.18210 0.35040 0.41780 0.05200
O 	O 	0.23860 0.35110 0.41213 -0.21400
C 	C 	0.47260 0.48230 0.54079 0.10100
C 	C 	0.22220 0.31450 0.40452 0.14100
C 	C 	0.51900 0.49450 0.54107 -0.07000
C 	C 	0.44370 0.46190 0.55178 0.00800
C 	C 	0.17720 0.28040 0.40442 -0.11500
C 	C 	0.25120 0.32000 0.39365 -0.02200
H 	H 	0.54060 0.51710 0.53540 0.06300
C 	C 	0.53310 0.47280 0.54984 -0.09000
C 	C 	0.45870 0.44180 0.56009 -0.03600
C 	C 	0.39690 0.45310 0.55420 -0.08600
C 	C 	0.16300 0.24460 0.39500 -0.04800
H 	H 	0.15590 0.28020 0.41040 0.07600
C 	C 	0.23850 0.28590 0.38479 -0.00600
C 	C 	0.29980 0.35640 0.39185 -0.06000
H 	H 	0.56200 0.47410 0.54890 0.06600
C 	C 	0.50290 0.44850 0.56031 0.14300
C 	C 	0.42060 0.41200 0.56974 -0.05200
H 	H 	0.38690 0.46870 0.54790 0.06300
C 	C 	0.39520 0.46620 0.56650 0.04200
C 	C 	0.36890 0.40240 0.55350 0.03000
C 	C 	0.19570 0.25020 0.38460 0.09100
H 	H 	0.13330 0.21790 0.39540 0.05100
C 	C 	0.27140 0.28880 0.37563 -0.07700
H 	H 	0.31030 0.38160 0.39830 0.05900
C 	C 	0.32820 0.33610 0.39145 0.01800
C 	C 	0.29830 0.37320 0.37809 0.02400
O 	O 	0.51410 0.42750 0.56906 -0.22700
H 	H 	0.43030 0.39650 0.57620 0.05300
C 	C 	0.40860 0.44680 0.57550 0.00500
C 	C 	0.38010 0.37990 0.56240 0.02600
C 	C 	0.38090 0.49630 0.57060 -0.08100
C 	C 	0.33090 0.37670 0.54550 -0.07400
O 	O 	0.17570 0.21310 0.37582 -0.19000
H 	H 	0.26000 0.26120 0.37000 0.06100
C 	C 	0.31380 0.30010 0.38274 0.04000
C 	C 	0.28170 0.33400 0.36862 0.02500
C 	C 	0.36790 0.34780 0.39863 -0.06200
C 	C 	0.31290 0.41770 0.37436 -0.07200
C 	C 	0.55550 0.43550 0.56995 0.01500
C 	C 	0.40860 0.45930 0.58950 -0.07000
C 	C 	0.36080 0.33710 0.56417 -0.06800
C 	C 	0.38600 0.50830 0.58600 -0.04400
H 	H 	0.36870 0.50940 0.56490 0.05500
C 	C 	0.30960 0.33140 0.54640 -0.02100
H 	H 	0.32100 0.39150 0.53960 0.05500
C 	C 	0.12880 0.18430 0.37443 -0.06400
C 	C 	0.33690 0.27830 0.38140 -0.08700
C 	C 	0.28130 0.34450 0.35622 -0.07500
H 	H 	0.37900 0.37350 0.40420 0.06100
C 	C 	0.39140 0.32470 0.39810 -0.03600
H 	H 	0.32330 0.44210 0.38030 0.06000
C 	C 	0.31170 0.42560 0.36136 -0.03000
H 	H 	0.57600 0.46910 0.57110 0.03900
H 	H 	0.56390 0.42710 0.56180 0.03700
C 	C 	0.56530 0.41100 0.58031 0.08300
H 	H 	0.41750 0.44500 0.59580 0.04800
C 	C 	0.39620 0.49040 0.59300 -0.01400
H 	H 	0.37280 0.32500 0.57030 0.05200
C 	C 	0.32020 0.30630 0.55700 -0.03700
H 	H 	0.37980 0.53150 0.58890 0.04100
H 	H 	0.28680 0.31350 0.54030 0.03600
H 	H 	0.11300 0.20260 0.37400 0.06100
H 	H 	0.11620 0.16300 0.38170 0.05100
C 	C 	0.12160 0.15820 0.36270 0.12300
C 	C 	0.37630 0.29190 0.38880 -0.01500
H 	H 	0.32690 0.25350 0.37560 0.05900
C 	C 	0.29250 0.38680 0.35249 -0.02700
H 	H 	0.27280 0.32100 0.35000 0.05300
H 	H 	0.41600 0.33060 0.40370 0.04300
H 	H 	0.32340 0.45610 0.35830 0.04300
C 	C 	0.53250 0.38970 0.58958 -0.12200
C 	C 	0.60570 0.40780 0.58147 -0.14600
H 	H 	0.39630 0.49710 0.60170 0.03000
H 	H 	0.30210 0.27410 0.55860 0.04000
C 	C 	0.07570 0.12300 0.35880 -0.17800
C 	C 	0.15380 0.16860 0.35420 -0.15500
H 	H 	0.39400 0.27740 0.38720 0.03400
H 	H 	0.28790 0.39190 0.34390 0.04100
H 	H 	0.50480 0.39080 0.58900 0.08700
C 	C 	0.53790 0.36650 0.59991 0.07100
C 	C 	0.61020 0.38540 0.59162 0.09800
H 	H 	0.62930 0.42100 0.57520 0.08300
H 	H 	0.04930 0.11350 0.36400 0.08700
C 	C 	0.07300 0.10400 0.34672 0.13600
C 	C 	0.14890 0.14160 0.34221 0.09500
H 	H 	0.18290 0.19550 0.35560 0.09700
H 	H 	0.51510 0.35330 0.60630 0.02700
C 	C 	0.57870 0.36340 0.60041 -0.16000
H 	H 	0.63860 0.38570 0.59250 0.01100
H 	H 	0.04260 0.08280 0.34400 0.00400
C 	C 	0.10450 0.11030 0.33883 -0.21400
H 	H 	0.17470 0.14600 0.33740 0.01600
C 	C 	0.58380 0.33650 0.61080 0.42400
C 	C 	0.09700 0.08160 0.32810 0.45900
O 	O 	0.05690 0.06350 0.32421 -0.35100
Zn	Zn	0.04444 0.93212 0.79371 1.22700
O 	O 	0.00717 0.95163 0.80236 -0.67400
O 	O 	0.07387 0.91483 0.80699 -0.47000
O 	O 	0.00797 0.87823 0.78419 -0.48800
O 	O 	0.09127 0.97393 0.78328 -0.51000
Zn	Zn	0.96407 0.89163 0.80993 1.23100
C 	C 	0.04767 0.89203 0.81604 0.37500
C 	C 	0.96587 0.84683 0.78766 0.33800
O 	O 	0.00657 0.87743 0.81867 -0.49200
O 	O 	0.94087 0.84783 0.79651 -0.48500
O 	O 	0.91467 0.87243 0.82185 -0.50800
O 	O 	0.95807 0.94543 0.77944 -0.48900
C 	C 	0.07527 0.88253 0.82626 -0.10600
C 	C 	0.94327 0.80523 0.77871 -0.09100
C 	C 	0.05357 0.85843 0.83777 0.05000
C 	C 	0.11997 0.89513 0.82511 0.05500
C 	C 	0.96607 0.79973 0.76764 0.03100
C 	C 	0.90217 0.76763 0.78206 0.03100
C 	C 	0.07727 0.84973 0.84616 -0.12800
H 	H 	0.02217 0.84883 0.83933 0.02600
H 	H 	0.13557 0.91143 0.81763 0.03400
C 	C 	0.14527 0.88633 0.83393 -0.13600
C 	C 	0.94537 0.76023 0.76016 -0.12000
H 	H 	0.99607 0.82393 0.76543 0.03000
H 	H 	0.88787 0.76733 0.78983 0.03600
C 	C 	0.88047 0.72833 0.77370 -0.12100
C 	C 	0.12437 0.86423 0.84516 0.09000
H 	H 	0.06127 0.83223 0.85343 0.08400
H 	H 	0.17657 0.89533 0.83233 0.07400
C 	C 	0.90227 0.72543 0.76311 0.08700
H 	H 	0.96117 0.75753 0.75303 0.08100
H 	H 	0.85037 0.70393 0.77563 0.06800
C 	C 	0.15187 0.85823 0.85515 -0.04500
C 	C 	0.87567 0.68353 0.75497 -0.03700
H 	H 	0.16467 0.83923 0.85193 0.04700
H 	H 	0.17797 0.88873 0.85763 0.05400
O 	O 	0.12407 0.83683 0.86559 -0.19700
H 	H 	0.86427 0.65523 0.76013 0.04200
H 	H 	0.84877 0.68373 0.75113 0.05200
O 	O 	0.90527 0.68443 0.74546 -0.21400
C 	C 	0.13927 0.81563 0.87412 0.10300
C 	C 	0.88887 0.64783 0.73785 0.14200
C 	C 	0.18567 0.82783 0.87440 -0.07100
C 	C 	0.11037 0.79523 0.88511 0.00300
C 	C 	0.84387 0.61373 0.73775 -0.11600
C 	C 	0.91787 0.65333 0.72698 -0.02400
H 	H 	0.20727 0.85043 0.86873 0.06400
C 	C 	0.19977 0.80613 0.88317 -0.08800
C 	C 	0.12537 0.77513 0.89342 -0.03200
C 	C 	0.06357 0.78643 0.88753 -0.07500
C 	C 	0.82967 0.57793 0.72833 -0.04700
H 	H 	0.82257 0.61353 0.74373 0.07600
C 	C 	0.90517 0.61923 0.71812 -0.00200
C 	C 	0.96647 0.68973 0.72518 -0.05800
H 	H 	0.22867 0.80743 0.88223 0.06600
C 	C 	0.16957 0.78183 0.89364 0.14100
C 	C 	0.08727 0.74533 0.90307 -0.06000
H 	H 	0.05357 0.80203 0.88123 0.05900
C 	C 	0.06187 0.79953 0.89983 0.03500
C 	C 	0.03557 0.73573 0.88683 0.01500
C 	C 	0.86237 0.58353 0.71793 0.08900
H 	H 	0.79997 0.55123 0.72873 0.05100
C 	C 	0.93807 0.62213 0.70896 -0.08500
H 	H 	0.97697 0.71493 0.73163 0.06000
C 	C 	0.99487 0.66943 0.72478 0.01500
C 	C 	0.96497 0.70653 0.71142 0.02300
O 	O 	0.18077 0.76083 0.90239 -0.22600
H 	H 	0.09697 0.72983 0.90953 0.05500
C 	C 	0.07527 0.78013 0.90883 0.01100
C 	C 	0.04677 0.71323 0.89573 0.04000
C 	C 	0.04757 0.82963 0.90393 -0.07500
C 	C 	0.99757 0.71003 0.87883 -0.05600
O 	O 	0.84237 0.54643 0.70915 -0.18900
H 	H 	0.92667 0.59453 0.70333 0.06400
C 	C 	0.98047 0.63343 0.71607 0.05700
C 	C 	0.94837 0.66733 0.70195 0.02800
C 	C 	0.03457 0.68113 0.73196 -0.06100
C 	C 	0.97957 0.75103 0.70769 -0.07100
C 	C 	0.22217 0.76883 0.90328 0.01500
C 	C 	0.07527 0.79263 0.92283 -0.07600
C 	C 	0.02747 0.67043 0.89750 -0.08600
C 	C 	0.05267 0.84163 0.91933 -0.05300
H 	H 	0.03537 0.84273 0.89823 0.05300
C 	C 	0.97627 0.66473 0.87973 -0.03300
H 	H 	0.98767 0.72483 0.87293 0.05100
C 	C 	0.79547 0.51763 0.70776 -0.06500
C 	C 	0.00357 0.61163 0.71473 -0.11500
C 	C 	0.94797 0.67783 0.68955 -0.07700
H 	H 	0.04567 0.70683 0.73753 0.05900
C 	C 	0.05807 0.65803 0.73143 -0.04600
H 	H 	0.98997 0.77543 0.71363 0.06100
C 	C 	0.97837 0.75893 0.69469 -0.03100
H 	H 	0.24267 0.80243 0.90443 0.03900
H 	H 	0.23057 0.76043 0.89513 0.03700
C 	C 	0.23197 0.74433 0.91364 0.08300
H 	H 	0.08417 0.77833 0.92913 0.05000
C 	C 	0.06287 0.82373 0.92633 -0.00500
H 	H 	0.03947 0.65833 0.90363 0.05700
C 	C 	0.98687 0.63963 0.89033 -0.02200
H 	H 	0.04647 0.86483 0.92223 0.04400
H 	H 	0.95347 0.64683 0.87363 0.04100
H 	H 	0.77967 0.53593 0.70733 0.06200
H 	H 	0.78287 0.49633 0.71503 0.05200
C 	C 	0.78827 0.49153 0.69603 0.12400
C 	C 	0.04297 0.62523 0.72213 -0.00000
H 	H 	0.99357 0.58683 0.70893 0.07200
C 	C 	0.95917 0.72013 0.68582 -0.02500
H 	H 	0.93947 0.65433 0.68333 0.05400
H 	H 	0.08267 0.66393 0.73703 0.04600
H 	H 	0.99007 0.78943 0.69163 0.04400
C 	C 	0.19917 0.72303 0.92291 -0.12200
C 	C 	0.27237 0.74113 0.91480 -0.14600
H 	H 	0.06297 0.83043 0.93503 0.02600
H 	H 	0.96877 0.60743 0.89193 0.03600
C 	C 	0.74237 0.45633 0.69213 -0.17800
C 	C 	0.82047 0.50193 0.68753 -0.15500
H 	H 	0.06067 0.61073 0.72053 0.02800
H 	H 	0.95457 0.72523 0.67723 0.04100
H 	H 	0.17147 0.72413 0.92233 0.08700
C 	C 	0.20457 0.69983 0.93324 0.07100
C 	C 	0.27687 0.71873 0.92495 0.09800
H 	H 	0.29597 0.75433 0.90853 0.08300
H 	H 	0.71597 0.44683 0.69733 0.08800
C 	C 	0.73967 0.43733 0.68005 0.13600
C 	C 	0.81557 0.47493 0.67554 0.09500
H 	H 	0.84957 0.52883 0.68893 0.09700
H 	H 	0.18177 0.68663 0.93963 0.02600
C 	C 	0.24537 0.69673 0.93374 -0.16000
H 	H 	0.30527 0.71903 0.92583 0.01100
H 	H 	0.70927 0.41613 0.67733 0.00500
C 	C 	0.77117 0.44363 0.67216 -0.21400
H 	H 	0.84137 0.47933 0.67073 0.01600
C 	C 	0.25047 0.66983 0.94413 0.42400
C 	C 	0.76367 0.41493 0.66143 0.46000
O 	O 	0.72357 0.39683 0.65754 -0.34900
Zn	Zn	0.71110 0.26546 0.12705 1.22700
O 	O 	0.67383 0.28497 0.13570 -0.67400
O 	O 	0.74053 0.24817 0.14033 -0.47000
O 	O 	0.67463 0.21157 0.11753 -0.48400
O 	O 	0.75793 0.30727 0.11662 -0.51500
Zn	Zn	0.63073 0.22497 0.14327 1.23000
C 	C 	0.71433 0.22537 0.14938 0.37500
C 	C 	0.63253 0.18017 0.12100 0.33300
O 	O 	0.67323 0.21077 0.15201 -0.49000
O 	O 	0.60753 0.18117 0.12985 -0.48500
O 	O 	0.58133 0.20577 0.15519 -0.51000
O 	O 	0.62473 0.27877 0.11278 -0.49300
C 	C 	0.74193 0.21587 0.15960 -0.10600
C 	C 	0.60993 0.13857 0.11205 -0.09200
C 	C 	0.72023 0.19177 0.17111 0.05000
C 	C 	0.78663 0.22847 0.15845 0.05500
C 	C 	0.63273 0.13307 0.10098 0.03000
C 	C 	0.56883 0.10097 0.11540 0.03100
C 	C 	0.74393 0.18307 0.17950 -0.12800
H 	H 	0.68883 0.18217 0.17267 0.02700
H 	H 	0.80223 0.24477 0.15097 0.03300
C 	C 	0.81193 0.21967 0.16727 -0.13600
C 	C 	0.61203 0.09357 0.09350 -0.12200
H 	H 	0.66273 0.15727 0.09877 0.02800
H 	H 	0.55453 0.10067 0.12317 0.03600
C 	C 	0.54713 0.06167 0.10704 -0.12300
C 	C 	0.79103 0.19757 0.17850 0.09000
H 	H 	0.72793 0.16557 0.18677 0.08400
H 	H 	0.84323 0.22867 0.16567 0.07400
C 	C 	0.56893 0.05877 0.09645 0.09000
H 	H 	0.62783 0.09087 0.08637 0.08100
H 	H 	0.51703 0.03727 0.10897 0.06700
C 	C 	0.81853 0.19157 0.18849 -0.04500
C 	C 	0.54233 0.01687 0.08831 -0.04500
H 	H 	0.83133 0.17257 0.18527 0.04700
H 	H 	0.84463 0.22207 0.19097 0.05400
O 	O 	0.79073 0.17017 0.19893 -0.19700
H 	H 	0.53093 0.98857 0.09347 0.04800
H 	H 	0.51543 0.01707 0.08447 0.05300
O 	O 	0.57193 0.01777 0.07880 -0.21600
C 	C 	0.80593 0.14897 0.20746 0.10200
C 	C 	0.55553 0.98117 0.07119 0.14300
C 	C 	0.85233 0.16117 0.20774 -0.07100
C 	C 	0.77703 0.12857 0.21845 0.00600
C 	C 	0.51053 0.94707 0.07109 -0.11600
C 	C 	0.58453 0.98667 0.06032 -0.01700
H 	H 	0.87393 0.18377 0.20207 0.06300
C 	C 	0.86643 0.13947 0.21651 -0.08900
C 	C 	0.79203 0.10847 0.22676 -0.03400
C 	C 	0.73023 0.11977 0.22087 -0.08200
C 	C 	0.49633 0.91127 0.06167 -0.04800
H 	H 	0.48923 0.94687 0.07707 0.07700
C 	C 	0.57183 0.95257 0.05146 -0.00700
C 	C 	0.63313 0.02307 0.05852 -0.06500
H 	H 	0.89533 0.14077 0.21557 0.06600
C 	C 	0.83623 0.11517 0.22698 0.14200
C 	C 	0.75393 0.07867 0.23641 -0.05800
H 	H 	0.72023 0.13537 0.21457 0.06200
C 	C 	0.72853 0.13287 0.23317 0.03900
C 	C 	0.70223 0.06907 0.22017 0.02600
C 	C 	0.52903 0.91687 0.05127 0.09100
H 	H 	0.46663 0.88457 0.06207 0.05100
C 	C 	0.60473 0.95547 0.04230 -0.07400
H 	H 	0.64363 0.04827 0.06497 0.06000
C 	C 	0.66153 0.00277 0.05812 0.01900
C 	C 	0.63163 0.03987 0.04476 0.02400
O 	O 	0.84743 0.09417 0.23573 -0.22700
H 	H 	0.76363 0.06317 0.24287 0.05400
C 	C 	0.74193 0.11347 0.24217 0.00800
C 	C 	0.71343 0.04657 0.22907 0.03700
C 	C 	0.71423 0.16297 0.23727 -0.07800
C 	C 	0.66423 0.04337 0.21217 -0.07700
O 	O 	0.50903 0.87977 0.04249 -0.18900
H 	H 	0.59333 0.92787 0.03667 0.06100
C 	C 	0.64713 0.96677 0.04941 0.04100
C 	C 	0.61503 0.00067 0.03529 0.02400
C 	C 	0.70123 0.01447 0.06530 -0.07200
C 	C 	0.64623 0.08437 0.04103 -0.07100
C 	C 	0.88883 0.10217 0.23662 0.01500
C 	C 	0.74193 0.12597 0.25617 -0.07300
C 	C 	0.69413 0.00377 0.23084 -0.09000
C 	C 	0.71933 0.17497 0.25267 -0.04800
H 	H 	0.70203 0.17607 0.23157 0.05400
C 	C 	0.64293 0.99807 0.21307 -0.01900
H 	H 	0.65433 0.05817 0.20627 0.05500
C 	C 	0.46213 0.85097 0.04110 -0.06500
C 	C 	0.67023 0.94497 0.04807 -0.08400
C 	C 	0.61463 0.01117 0.02289 -0.08500
H 	H 	0.71233 0.04017 0.07087 0.06400
C 	C 	0.72473 0.99137 0.06477 -0.02500
H 	H 	0.65663 0.10877 0.04697 0.05900
C 	C 	0.64503 0.09227 0.02803 -0.03300
H 	H 	0.90933 0.13577 0.23777 0.03900
H 	H 	0.89723 0.09377 0.22847 0.03700
C 	C 	0.89863 0.07767 0.24698 0.08200
H 	H 	0.75083 0.11167 0.26247 0.04900
C 	C 	0.72953 0.15707 0.25967 -0.01000
H 	H 	0.70613 0.99167 0.23697 0.06300
C 	C 	0.65353 0.97297 0.22367 -0.02500
H 	H 	0.71313 0.19817 0.25557 0.04300
H 	H 	0.62013 0.98017 0.20697 0.03700
H 	H 	0.44633 0.86927 0.04067 0.06200
H 	H 	0.44953 0.82967 0.04837 0.05200
C 	C 	0.45493 0.82487 0.02937 0.12300
C 	C 	0.70963 0.95857 0.05547 -0.02000
H 	H 	0.66023 0.92017 0.04227 0.05900
C 	C 	0.62583 0.05347 0.01916 -0.02100
H 	H 	0.60613 0.98767 0.01667 0.06000
H 	H 	0.74933 0.99727 0.07037 0.04100
H 	H 	0.65673 0.12277 0.02497 0.04400
C 	C 	0.86583 0.05637 0.25625 -0.12100
C 	C 	0.93903 0.07447 0.24814 -0.14500
H 	H 	0.72963 0.16377 0.26837 0.02800
H 	H 	0.63543 0.94077 0.22527 0.03700
C 	C 	0.40903 0.78967 0.02547 -0.17700
C 	C 	0.48713 0.83527 0.02087 -0.15500
H 	H 	0.72733 0.94407 0.05387 0.03600
H 	H 	0.62123 0.05857 0.01057 0.03800
H 	H 	0.83813 0.05747 0.25567 0.08600
C 	C 	0.87123 0.03317 0.26658 0.06800
C 	C 	0.94353 0.05207 0.25829 0.09600
H 	H 	0.96263 0.08767 0.24187 0.08400
H 	H 	0.38263 0.78017 0.03067 0.08800
C 	C 	0.40633 0.77067 0.01339 0.13600
C 	C 	0.48223 0.80827 0.00888 0.09500
H 	H 	0.51623 0.86217 0.02227 0.09700
H 	H 	0.84843 0.01997 0.27297 0.02600
C 	C 	0.91203 0.03007 0.26708 -0.15800
H 	H 	0.97193 0.05237 0.25917 0.01300
H 	H 	0.37593 0.74947 0.01067 0.00500
C 	C 	0.43783 0.77697 0.00550 -0.21300
H 	H 	0.50803 0.81267 0.00407 0.01600
C 	C 	0.91713 0.00317 0.27747 0.41700
C 	C 	0.43033 0.74827 0.99477 0.45900
O 	O 	0.39023 0.73017 0.99088 -0.34900
Zn	Zn	0.22102 0.62223 0.46038 1.22700
O 	O 	0.27780 0.65950 0.46903 -0.67400
O 	O 	0.17430 0.59280 0.47366 -0.47000
O 	O 	0.20360 0.65870 0.45086 -0.48400
O 	O 	0.21600 0.57540 0.44995 -0.51500
Zn	Zn	0.26090 0.70260 0.47660 1.23000
C 	C 	0.17770 0.61900 0.48271 0.37500
C 	C 	0.21430 0.70080 0.45433 0.33200
O 	O 	0.20420 0.66010 0.48534 -0.49000
O 	O 	0.24030 0.72580 0.46318 -0.48500
O 	O 	0.29110 0.75200 0.48852 -0.50900
O 	O 	0.32070 0.70860 0.44611 -0.49300
C 	C 	0.14060 0.59140 0.49293 -0.10600
C 	C 	0.19530 0.72340 0.44538 -0.09100
C 	C 	0.13820 0.61310 0.50444 0.05000
C 	C 	0.10850 0.54670 0.49178 0.05400
C 	C 	0.16700 0.70060 0.43431 0.02900
C 	C 	0.19880 0.76450 0.44873 0.03000
C 	C 	0.10580 0.58940 0.51283 -0.12700
H 	H 	0.16000 0.64450 0.50600 0.02700
H 	H 	0.10920 0.53110 0.48430 0.03300
C 	C 	0.07440 0.52140 0.50060 -0.13600
C 	C 	0.14820 0.72130 0.42683 -0.11900
H 	H 	0.16120 0.67060 0.43210 0.02900
H 	H 	0.21280 0.77880 0.45650 0.03600
C 	C 	0.18120 0.78620 0.44037 -0.12000
C 	C 	0.07320 0.54230 0.51183 0.08900
H 	H 	0.10430 0.60540 0.52010 0.08400
H 	H 	0.05210 0.49010 0.49900 0.07200
C 	C 	0.15650 0.76440 0.42978 0.08600
H 	H 	0.12970 0.70550 0.41970 0.08000
H 	H 	0.18690 0.81630 0.44230 0.06800
C 	C 	0.03970 0.51480 0.52182 -0.04400
C 	C 	0.14120 0.79100 0.42164 -0.03600
H 	H 	0.00790 0.50200 0.51860 0.04500
H 	H 	0.04410 0.48870 0.52430 0.05200
O 	O 	0.04610 0.54260 0.53226 -0.19700
H 	H 	0.12430 0.80240 0.42680 0.04200
H 	H 	0.16830 0.81790 0.41780 0.05200
O 	O 	0.11250 0.76140 0.41213 -0.21500
C 	C 	0.00970 0.52740 0.54079 0.09800
C 	C 	0.09230 0.77780 0.40452 0.14400
C 	C 	0.97550 0.48100 0.54107 -0.06400
C 	C 	0.01820 0.55630 0.55178 0.00000
C 	C 	0.10320 0.82280 0.40442 -0.11800
C 	C 	0.06880 0.74880 0.39365 -0.02900
H 	H 	0.97650 0.45940 0.53540 0.06300
C 	C 	0.93970 0.46690 0.54984 -0.09000
C 	C 	0.98310 0.54130 0.56009 -0.02800
C 	C 	0.05620 0.60310 0.55420 -0.07700
C 	C 	0.08160 0.83700 0.39500 -0.04600
H 	H 	0.12430 0.84410 0.41040 0.07600
C 	C 	0.04740 0.76150 0.38479 0.00200
C 	C 	0.05660 0.70020 0.39185 -0.04600
H 	H 	0.91210 0.43800 0.54890 0.06700
C 	C 	0.94560 0.49710 0.56031 0.14200
C 	C 	0.99140 0.57940 0.56974 -0.05600
H 	H 	0.08180 0.61310 0.54790 0.06000
C 	C 	0.07100 0.60480 0.56650 0.03900
C 	C 	0.03350 0.63110 0.55350 0.01600
C 	C 	0.05450 0.80430 0.38460 0.08600
H 	H 	0.08460 0.86670 0.39540 0.05000
C 	C 	0.01740 0.72860 0.37563 -0.09400
H 	H 	0.07130 0.68970 0.39830 0.05500
C 	C 	0.00790 0.67180 0.39145 -0.00700
C 	C 	0.07490 0.70170 0.37809 0.01800
O 	O 	0.91340 0.48590 0.56906 -0.22600
H 	H 	0.96620 0.56970 0.57620 0.05500
C 	C 	0.03820 0.59140 0.57550 0.00400
C 	C 	0.99980 0.61990 0.56240 0.04200
C 	C 	0.11540 0.61910 0.57060 -0.07800
C 	C 	0.04580 0.66910 0.54550 -0.06100
O 	O 	0.03740 0.82430 0.37582 -0.18700
H 	H 	0.00120 0.74000 0.37000 0.06500
C 	C 	0.98630 0.68620 0.38274 0.06600
C 	C 	0.05230 0.71830 0.36862 0.03100
C 	C 	0.97990 0.63210 0.39863 -0.03900
C 	C 	0.10480 0.68710 0.37436 -0.06800
C 	C 	0.88000 0.44450 0.56995 0.01500
C 	C 	0.05070 0.59140 0.58950 -0.07100
C 	C 	0.97630 0.63920 0.56417 -0.08100
C 	C 	0.12230 0.61400 0.58600 -0.04600
H 	H 	0.14070 0.63130 0.56490 0.05400
C 	C 	0.02180 0.69040 0.54640 -0.03700
H 	H 	0.07050 0.67900 0.53960 0.05000
C 	C 	0.05550 0.87120 0.37443 -0.07300
C 	C 	0.94140 0.66310 0.38140 -0.10800
C 	C 	0.06320 0.71870 0.35622 -0.08000
H 	H 	0.99450 0.62100 0.40420 0.05500
C 	C 	0.93330 0.60860 0.39810 -0.05600
H 	H 	0.11880 0.67670 0.38030 0.05800
C 	C 	0.11390 0.68830 0.36136 -0.03400
H 	H 	0.89310 0.42400 0.57110 0.03900
H 	H 	0.86320 0.43610 0.56180 0.03700
C 	C 	0.84570 0.43470 0.58031 0.08300
H 	H 	0.02750 0.58250 0.59580 0.04700
C 	C 	0.09420 0.60380 0.59300 -0.01300
H 	H 	0.95220 0.62720 0.57030 0.05600
C 	C 	0.98610 0.67980 0.55700 -0.02300
H 	H 	0.15170 0.62020 0.58890 0.04200
H 	H 	0.02670 0.71320 0.54030 0.04000
H 	H 	0.08960 0.88700 0.37400 0.06400
H 	H 	0.04680 0.88380 0.38170 0.05400
C 	C 	0.03660 0.87840 0.36270 0.13600
C 	C 	0.91560 0.62370 0.38880 0.00400
H 	H 	0.92660 0.67310 0.37560 0.06800
C 	C 	0.09430 0.70750 0.35249 -0.02300
H 	H 	0.04820 0.72720 0.35000 0.05400
H 	H 	0.91460 0.58400 0.40370 0.05000
H 	H 	0.13270 0.67660 0.35830 0.04400
C 	C 	0.85720 0.46750 0.58958 -0.12200
C 	C 	0.80210 0.39430 0.58147 -0.14600
H 	H 	0.10080 0.60370 0.60170 0.02900
H 	H 	0.97200 0.69790 0.55860 0.03600
C 	C 	0.04730 0.92430 0.35880 -0.19200
C 	C 	0.01480 0.84620 0.35420 -0.17300
H 	H 	0.88340 0.60600 0.38720 0.02800
H 	H 	0.10400 0.71210 0.34390 0.03900
H 	H 	0.88600 0.49520 0.58900 0.08700
C 	C 	0.82860 0.46210 0.59991 0.07100
C 	C 	0.77520 0.38980 0.59162 0.09900
H 	H 	0.79170 0.37070 0.57520 0.08300
H 	H 	0.06420 0.95070 0.36400 0.09300
C 	C 	0.03100 0.92700 0.34672 0.15600
C 	C 	0.99270 0.85110 0.34221 0.12100
H 	H 	0.01260 0.81710 0.35560 0.10200
H 	H 	0.83820 0.48490 0.60630 0.02700
C 	C 	0.78470 0.42130 0.60041 -0.16000
H 	H 	0.74710 0.36140 0.59250 0.01100
H 	H 	0.04020 0.95740 0.34400 -0.00100
C 	C 	0.00580 0.89550 0.33883 -0.24100
H 	H 	0.97130 0.82530 0.33740 0.00900
C 	C 	0.75270 0.41620 0.61080 0.42400
C 	C 	0.98460 0.90300 0.32810 0.47800
O 	O 	0.00660 0.94310 0.32421 -0.35600
Zn	Zn	0.88769 0.95556 0.79371 1.22700
O 	O 	0.94447 0.99283 0.80236 -0.66900
O 	O 	0.84097 0.92613 0.80699 -0.47000
O 	O 	0.87027 0.99203 0.78419 -0.48000
O 	O 	0.88267 0.90873 0.78328 -0.51500
Zn	Zn	0.92757 0.03593 0.80993 1.22900
C 	C 	0.84437 0.95233 0.81604 0.37500
C 	C 	0.88097 0.03413 0.78766 0.32700
O 	O 	0.87087 0.99343 0.81867 -0.48800
O 	O 	0.90697 0.05913 0.79651 -0.48400
O 	O 	0.95777 0.08533 0.82185 -0.51600
O 	O 	0.98737 0.04193 0.77944 -0.49400
C 	C 	0.80727 0.92473 0.82626 -0.10600
C 	C 	0.86197 0.05673 0.77871 -0.09000
C 	C 	0.80487 0.94643 0.83777 0.05000
C 	C 	0.77517 0.88003 0.82511 0.05500
C 	C 	0.83367 0.03393 0.76764 0.02800
C 	C 	0.86547 0.09783 0.78206 0.02900
C 	C 	0.77247 0.92273 0.84616 -0.12800
H 	H 	0.82667 0.97783 0.83933 0.02800
H 	H 	0.77587 0.86443 0.81763 0.03300
C 	C 	0.74107 0.85473 0.83393 -0.13600
C 	C 	0.81487 0.05463 0.76016 -0.11900
H 	H 	0.82787 0.00393 0.76543 0.02700
H 	H 	0.87947 0.11213 0.78983 0.03700
C 	C 	0.84787 0.11953 0.77370 -0.12000
C 	C 	0.73987 0.87563 0.84516 0.09000
H 	H 	0.77097 0.93873 0.85343 0.08500
H 	H 	0.71877 0.82343 0.83233 0.07400
C 	C 	0.82317 0.09773 0.76311 0.08600
H 	H 	0.79637 0.03883 0.75303 0.07900
H 	H 	0.85357 0.14963 0.77563 0.06700
C 	C 	0.70637 0.84813 0.85515 -0.04500
C 	C 	0.80787 0.12433 0.75497 -0.03600
H 	H 	0.67457 0.83533 0.85193 0.04700
H 	H 	0.71077 0.82203 0.85763 0.05400
O 	O 	0.71277 0.87593 0.86559 -0.19600
H 	H 	0.79097 0.13573 0.76013 0.04200
H 	H 	0.83497 0.15123 0.75113 0.05200
O 	O 	0.77917 0.09473 0.74546 -0.21400
C 	C 	0.67637 0.86073 0.87412 0.09900
C 	C 	0.75897 0.11113 0.73785 0.14000
C 	C 	0.64217 0.81433 0.87440 -0.06800
C 	C 	0.68487 0.88963 0.88511 0.01200
C 	C 	0.76987 0.15613 0.73775 -0.11400
C 	C 	0.73547 0.08213 0.72698 -0.02000
H 	H 	0.64317 0.79273 0.86873 0.06300
C 	C 	0.60637 0.80023 0.88317 -0.09100
C 	C 	0.64977 0.87463 0.89342 -0.04000
C 	C 	0.72287 0.93643 0.88753 -0.09700
C 	C 	0.74827 0.17033 0.72833 -0.04900
H 	H 	0.79097 0.17743 0.74373 0.07500
C 	C 	0.71407 0.09483 0.71812 -0.00900
C 	C 	0.72327 0.03353 0.72518 -0.06200
H 	H 	0.57877 0.77133 0.88223 0.06700
C 	C 	0.61227 0.83043 0.89364 0.14500
C 	C 	0.65807 0.91273 0.90307 -0.04300
H 	H 	0.74847 0.94643 0.88123 0.06600
C 	C 	0.73767 0.93813 0.89983 0.05000
C 	C 	0.70017 0.96443 0.88683 0.04800
C 	C 	0.72117 0.13763 0.71793 0.09200
H 	H 	0.75127 0.20003 0.72873 0.05100
C 	C 	0.68407 0.06193 0.70896 -0.06900
H 	H 	0.73797 0.02303 0.73163 0.05800
C 	C 	0.67457 0.00513 0.72478 0.02100
C 	C 	0.74157 0.03503 0.71142 0.02500
O 	O 	0.58007 0.81923 0.90239 -0.22700
H 	H 	0.63287 0.90303 0.90953 0.05100
C 	C 	0.70487 0.92473 0.90883 -0.00100
C 	C 	0.66647 0.95323 0.89573 0.01100
C 	C 	0.78207 0.95243 0.90393 -0.08600
C 	C 	0.71247 0.00243 0.87883 -0.09300
O 	O 	0.70407 0.15763 0.70915 -0.19000
H 	H 	0.66787 0.07333 0.70333 0.05900
C 	C 	0.65297 0.01953 0.71607 0.02400
C 	C 	0.71897 0.05163 0.70195 0.02200
C 	C 	0.64657 0.96543 0.73196 -0.06400
C 	C 	0.77147 0.02043 0.70769 -0.07400
C 	C 	0.54667 0.77783 0.90328 0.01500
C 	C 	0.71737 0.92473 0.92283 -0.06200
C 	C 	0.64297 0.97253 0.89750 -0.04800
C 	C 	0.78897 0.94733 0.91933 -0.03400
H 	H 	0.80737 0.96463 0.89823 0.05700
C 	C 	0.68847 0.02373 0.87973 -0.00800
H 	H 	0.73717 0.01233 0.87293 0.05900
C 	C 	0.72217 0.20453 0.70776 -0.06500
C 	C 	0.60807 0.99643 0.71473 -0.06000
C 	C 	0.72987 0.05203 0.68955 -0.07300
H 	H 	0.66117 0.95433 0.73753 0.06200
C 	C 	0.59997 0.94193 0.73143 -0.02700
H 	H 	0.78547 0.01003 0.71363 0.05900
C 	C 	0.78057 0.02163 0.69469 -0.03000
H 	H 	0.55977 0.75733 0.90443 0.03800
H 	H 	0.52987 0.76943 0.89513 0.03700
C 	C 	0.51237 0.76803 0.91364 0.08300
H 	H 	0.69417 0.91583 0.92913 0.04600
C 	C 	0.76087 0.93713 0.92633 -0.02500
H 	H 	0.61887 0.96053 0.90363 0.04600
C 	C 	0.65277 0.01313 0.89033 -0.05400
H 	H 	0.81837 0.95353 0.92223 0.03900
H 	H 	0.69337 0.04653 0.87363 0.03100
H 	H 	0.75627 0.22033 0.70733 0.06200
H 	H 	0.71347 0.21713 0.71503 0.05200
C 	C 	0.70327 0.21173 0.69603 0.12300
C 	C 	0.58227 0.95703 0.72213 -0.02900
H 	H 	0.59327 0.00643 0.70893 0.04800
C 	C 	0.76097 0.04083 0.68582 -0.02900
H 	H 	0.71487 0.06053 0.68333 0.05200
H 	H 	0.58127 0.91733 0.73703 0.04000
H 	H 	0.79937 0.00993 0.69163 0.04200
C 	C 	0.52387 0.80083 0.92291 -0.12200
C 	C 	0.46877 0.72763 0.91480 -0.14600
H 	H 	0.76747 0.93703 0.93503 0.03400
H 	H 	0.63867 0.03123 0.89193 0.04500
C 	C 	0.71397 0.25763 0.69213 -0.17800
C 	C 	0.68147 0.17953 0.68753 -0.15500
H 	H 	0.55007 0.93933 0.72053 0.03900
H 	H 	0.77067 0.04543 0.67723 0.04100
H 	H 	0.55267 0.82853 0.92233 0.08700
C 	C 	0.49527 0.79543 0.93324 0.07100
C 	C 	0.44187 0.72313 0.92495 0.09800
H 	H 	0.45837 0.70403 0.90853 0.08300
H 	H 	0.73087 0.28403 0.69733 0.08800
C 	C 	0.69767 0.26033 0.68005 0.13600
C 	C 	0.65937 0.18443 0.67554 0.09500
H 	H 	0.67927 0.15043 0.68893 0.09700
H 	H 	0.50487 0.81823 0.93963 0.02700
C 	C 	0.45137 0.75463 0.93374 -0.16000
H 	H 	0.41377 0.69473 0.92583 0.01100
H 	H 	0.70687 0.29073 0.67733 0.00500
C 	C 	0.67247 0.22883 0.67216 -0.21400
H 	H 	0.63797 0.15863 0.67073 0.01600
C 	C 	0.41937 0.74953 0.94413 0.42400
C 	C 	0.65127 0.23633 0.66143 0.46000
O 	O 	0.67327 0.27643 0.65754 -0.34900
Zn	Zn	0.55435 0.28890 0.12705 1.22700
O 	O 	0.61113 0.32617 0.13570 -0.67400
O 	O 	0.50763 0.25947 0.14033 -0.47000
O 	O 	0.53693 0.32537 0.11753 -0.48400
O 	O 	0.54933 0.24207 0.11662 -0.51500
Zn	Zn	0.59423 0.36927 0.14327 1.23000
C 	C 	0.51103 0.28567 0.14938 0.37500
C 	C 	0.54763 0.36747 0.12100 0.33200
O 	O 	0.53753 0.32677 0.15201 -0.49000
O 	O 	0.57363 0.39247 0.12985 -0.48500
O 	O 	0.62443 0.41867 0.15519 -0.50900
O 	O 	0.65403 0.37527 0.11278 -0.49300
C 	C 	0.47393 0.25807 0.15960 -0.10600
C 	C 	0.52863 0.39007 0.11205 -0.09100
C 	C 	0.47153 0.27977 0.17111 0.05000
C 	C 	0.44183 0.21337 0.15845 0.05500
C 	C 	0.50033 0.36727 0.10098 0.02900
C 	C 	0.53213 0.43117 0.11540 0.03000
C 	C 	0.43913 0.25607 0.17950 -0.12800
H 	H 	0.49333 0.31117 0.17267 0.02700
H 	H 	0.44253 0.19777 0.15097 0.03300
C 	C 	0.40773 0.18807 0.16727 -0.13600
C 	C 	0.48153 0.38797 0.09350 -0.11900
H 	H 	0.49453 0.33727 0.09877 0.02900
H 	H 	0.54613 0.44547 0.12317 0.03600
C 	C 	0.51453 0.45287 0.10704 -0.12000
C 	C 	0.40653 0.20897 0.17850 0.09000
H 	H 	0.43763 0.27207 0.18677 0.08400
H 	H 	0.38543 0.15677 0.16567 0.07400
C 	C 	0.48983 0.43107 0.09645 0.08700
H 	H 	0.46303 0.37217 0.08637 0.08000
H 	H 	0.52023 0.48297 0.10897 0.06800
C 	C 	0.37303 0.18147 0.18849 -0.04500
C 	C 	0.47453 0.45767 0.08831 -0.03600
H 	H 	0.34123 0.16867 0.18527 0.04700
H 	H 	0.37743 0.15537 0.19097 0.05400
O 	O 	0.37943 0.20927 0.19893 -0.19700
H 	H 	0.45763 0.46907 0.09347 0.04200
H 	H 	0.50163 0.48457 0.08447 0.05200
O 	O 	0.44583 0.42807 0.07880 -0.21400
C 	C 	0.34303 0.19407 0.20746 0.10100
C 	C 	0.42563 0.44447 0.07119 0.14100
C 	C 	0.30883 0.14767 0.20774 -0.07000
C 	C 	0.35153 0.22297 0.21845 0.00800
C 	C 	0.43653 0.48947 0.07109 -0.11500
C 	C 	0.40213 0.41547 0.06032 -0.02200
H 	H 	0.30983 0.12607 0.20207 0.06300
C 	C 	0.27303 0.13357 0.21651 -0.09000
C 	C 	0.31643 0.20797 0.22676 -0.03600
C 	C 	0.38953 0.26977 0.22087 -0.08600
C 	C 	0.41493 0.50367 0.06167 -0.04800
H 	H 	0.45763 0.51077 0.07707 0.07600
C 	C 	0.38073 0.42817 0.05146 -0.00600
C 	C 	0.38993 0.36687 0.05852 -0.06000
H 	H 	0.24543 0.10467 0.21557 0.06600
C 	C 	0.27893 0.16377 0.22698 0.14300
C 	C 	0.32473 0.24607 0.23641 -0.05200
H 	H 	0.41513 0.27977 0.21457 0.06300
C 	C 	0.40433 0.27147 0.23317 0.04200
C 	C 	0.36683 0.29777 0.22017 0.03000
C 	C 	0.38783 0.47097 0.05127 0.09100
H 	H 	0.41793 0.53337 0.06207 0.05100
C 	C 	0.35073 0.39527 0.04230 -0.07700
H 	H 	0.40463 0.35637 0.06497 0.05900
C 	C 	0.34123 0.33847 0.05812 0.01800
C 	C 	0.40823 0.36837 0.04476 0.02400
O 	O 	0.24673 0.15257 0.23573 -0.22700
H 	H 	0.29953 0.23637 0.24287 0.05300
C 	C 	0.37153 0.25807 0.24217 0.00500
C 	C 	0.33313 0.28657 0.22907 0.02600
C 	C 	0.44873 0.28577 0.23727 -0.08000
C 	C 	0.37913 0.33577 0.21217 -0.07400
O 	O 	0.37073 0.49097 0.04249 -0.18900
H 	H 	0.33453 0.40667 0.03667 0.06100
C 	C 	0.31963 0.35287 0.04941 0.04000
C 	C 	0.38563 0.38497 0.03529 0.02500
C 	C 	0.31323 0.29877 0.06530 -0.06200
C 	C 	0.43813 0.35377 0.04103 -0.07200
C 	C 	0.21333 0.11117 0.23662 0.01500
C 	C 	0.38403 0.25807 0.25617 -0.06900
C 	C 	0.30963 0.30587 0.23084 -0.06800
C 	C 	0.45563 0.28067 0.25267 -0.04400
H 	H 	0.47403 0.29797 0.23157 0.05500
C 	C 	0.35513 0.35707 0.21307 -0.02100
H 	H 	0.40383 0.34567 0.20627 0.05500
C 	C 	0.38883 0.53787 0.04110 -0.06500
C 	C 	0.27473 0.32977 0.04807 -0.08700
C 	C 	0.39653 0.38537 0.02289 -0.07500
H 	H 	0.32783 0.28767 0.07087 0.06100
C 	C 	0.26663 0.27527 0.06477 -0.03700
H 	H 	0.45213 0.34337 0.04697 0.06000
C 	C 	0.44723 0.35497 0.02803 -0.03000
H 	H 	0.22643 0.09067 0.23777 0.03800
H 	H 	0.19653 0.10277 0.22847 0.03700
C 	C 	0.17903 0.10137 0.24698 0.08300
H 	H 	0.36083 0.24917 0.26247 0.04800
C 	C 	0.42753 0.27047 0.25967 -0.01400
H 	H 	0.28553 0.29387 0.23697 0.05200
C 	C 	0.31943 0.34647 0.22367 -0.03700
H 	H 	0.48503 0.28687 0.25557 0.04100
H 	H 	0.36003 0.37987 0.20697 0.03600
H 	H 	0.42293 0.55367 0.04067 0.06200
H 	H 	0.38013 0.55047 0.04837 0.05200
C 	C 	0.36993 0.54507 0.02937 0.12300
C 	C 	0.24893 0.29037 0.05547 -0.01500
H 	H 	0.25993 0.33977 0.04227 0.05900
C 	C 	0.42763 0.37417 0.01916 -0.02700
H 	H 	0.38153 0.39387 0.01667 0.05300
H 	H 	0.24793 0.25067 0.07037 0.04200
H 	H 	0.46603 0.34327 0.02497 0.04300
C 	C 	0.19053 0.13417 0.25625 -0.12200
C 	C 	0.13543 0.06097 0.24814 -0.14700
H 	H 	0.43413 0.27037 0.26837 0.03000
H 	H 	0.30533 0.36457 0.22527 0.04000
C 	C 	0.38063 0.59097 0.02547 -0.17800
C 	C 	0.34813 0.51287 0.02087 -0.15500
H 	H 	0.21673 0.27267 0.05387 0.03300
H 	H 	0.43733 0.37877 0.01057 0.04100
H 	H 	0.21933 0.16187 0.25567 0.08700
C 	C 	0.16193 0.12877 0.26658 0.07100
C 	C 	0.10853 0.05647 0.25829 0.09900
H 	H 	0.12503 0.03737 0.24187 0.08200
H 	H 	0.39753 0.61737 0.03067 0.08800
C 	C 	0.36433 0.59367 0.01339 0.13600
C 	C 	0.32603 0.51777 0.00888 0.09500
H 	H 	0.34593 0.48377 0.02227 0.09700
H 	H 	0.17153 0.15157 0.27297 0.02600
C 	C 	0.11803 0.08797 0.26708 -0.16100
H 	H 	0.08043 0.02807 0.25917 0.00900
H 	H 	0.37353 0.62407 0.01067 0.00500
C 	C 	0.33913 0.56217 0.00550 -0.21300
H 	H 	0.30463 0.49197 0.00407 0.01600
C 	C 	0.08603 0.08287 0.27747 0.42500
C 	C 	0.31793 0.56967 0.99477 0.45900
O 	O 	0.33993 0.60977 0.99088 -0.34900
Zn	Zn	0.22102 0.59879 0.96038 1.22700
O 	O 	0.27780 0.61830 0.96903 -0.67400
O 	O 	0.17430 0.58150 0.97366 -0.47000
O 	O 	0.20360 0.54490 0.95086 -0.48400
O 	O 	0.21600 0.64060 0.94995 -0.51500
Zn	Zn	0.26090 0.55830 0.97660 1.23000
C 	C 	0.17770 0.55870 0.98271 0.37500
C 	C 	0.21430 0.51350 0.95433 0.33200
O 	O 	0.20420 0.54410 0.98534 -0.49000
O 	O 	0.24030 0.51450 0.96318 -0.48500
O 	O 	0.29110 0.53910 0.98852 -0.50900
O 	O 	0.32070 0.61210 0.94611 -0.49300
C 	C 	0.14060 0.54920 0.99293 -0.10600
C 	C 	0.19530 0.47190 0.94538 -0.09100
C 	C 	0.13820 0.52510 0.00444 0.05000
C 	C 	0.10850 0.56180 0.99178 0.05400
C 	C 	0.16700 0.46640 0.93431 0.02900
C 	C 	0.19880 0.43430 0.94873 0.03000
C 	C 	0.10580 0.51640 0.01283 -0.12700
H 	H 	0.16000 0.51550 0.00600 0.02700
H 	H 	0.10920 0.57810 0.98430 0.03300
C 	C 	0.07440 0.55300 0.00060 -0.13600
C 	C 	0.14820 0.42690 0.92683 -0.11900
H 	H 	0.16120 0.49060 0.93210 0.02900
H 	H 	0.21280 0.43400 0.95650 0.03600
C 	C 	0.18120 0.39500 0.94037 -0.12000
C 	C 	0.07320 0.53090 0.01183 0.08900
H 	H 	0.10430 0.49890 0.02010 0.08400
H 	H 	0.05210 0.56200 0.99900 0.07300
C 	C 	0.15650 0.39210 0.92978 0.08600
H 	H 	0.12970 0.42420 0.91970 0.08000
H 	H 	0.18690 0.37060 0.94230 0.06700
C 	C 	0.03970 0.52490 0.02182 -0.04400
C 	C 	0.14120 0.35020 0.92164 -0.03500
H 	H 	0.00790 0.50590 0.01860 0.04500
H 	H 	0.04410 0.55540 0.02430 0.05200
O 	O 	0.04610 0.50350 0.03226 -0.19700
H 	H 	0.12430 0.32190 0.92680 0.04100
H 	H 	0.16830 0.35040 0.91780 0.05200
O 	O 	0.11250 0.35110 0.91213 -0.21500
C 	C 	0.00970 0.48230 0.04079 0.09800
C 	C 	0.09230 0.31450 0.90452 0.14400
C 	C 	0.97550 0.49450 0.04107 -0.06400
C 	C 	0.01820 0.46190 0.05178 0.00000
C 	C 	0.10320 0.28040 0.90442 -0.11800
C 	C 	0.06880 0.32000 0.89365 -0.02900
H 	H 	0.97650 0.51710 0.03540 0.06300
C 	C 	0.93970 0.47280 0.04984 -0.09000
C 	C 	0.98310 0.44180 0.06009 -0.02800
C 	C 	0.05620 0.45310 0.05420 -0.07700
C 	C 	0.08160 0.24460 0.89500 -0.04500
H 	H 	0.12430 0.28020 0.91040 0.07600
C 	C 	0.04740 0.28590 0.88479 0.00200
C 	C 	0.05660 0.35640 0.89185 -0.04600
H 	H 	0.91210 0.47410 0.04890 0.06700
C 	C 	0.94560 0.44850 0.06031 0.14100
C 	C 	0.99140 0.41200 0.06974 -0.05600
H 	H 	0.08180 0.46870 0.04790 0.06000
C 	C 	0.07100 0.46620 0.06650 0.03800
C 	C 	0.03350 0.40240 0.05350 0.01500
C 	C 	0.05450 0.25020 0.88460 0.08600
H 	H 	0.08460 0.21790 0.89540 0.05000
C 	C 	0.01740 0.28880 0.87563 -0.09400
H 	H 	0.07130 0.38160 0.89830 0.05500
C 	C 	0.00790 0.33610 0.89145 -0.00800
C 	C 	0.07490 0.37320 0.87809 0.01800
O 	O 	0.91340 0.42750 0.06906 -0.22600
H 	H 	0.96620 0.39650 0.07620 0.05500
C 	C 	0.03820 0.44680 0.07550 0.00400
C 	C 	0.99980 0.37990 0.06240 0.04300
C 	C 	0.11540 0.49630 0.07060 -0.07800
C 	C 	0.04580 0.37670 0.04550 -0.06100
O 	O 	0.03740 0.21310 0.87582 -0.18800
H 	H 	0.00120 0.26120 0.87000 0.06500
C 	C 	0.98630 0.30010 0.88274 0.06700
C 	C 	0.05230 0.33400 0.86862 0.03100
C 	C 	0.97990 0.34780 0.89863 -0.03800
C 	C 	0.10480 0.41770 0.87436 -0.06800
C 	C 	0.88000 0.43550 0.06995 0.01400
C 	C 	0.05070 0.45930 0.08950 -0.07100
C 	C 	0.97630 0.33710 0.06417 -0.08100
C 	C 	0.12230 0.50830 0.08600 -0.04700
H 	H 	0.14070 0.50940 0.06490 0.05400
C 	C 	0.02180 0.33140 0.04640 -0.03700
H 	H 	0.07050 0.39150 0.03960 0.05000
C 	C 	0.05550 0.18430 0.87443 -0.07300
C 	C 	0.94140 0.27830 0.88140 -0.10900
C 	C 	0.06320 0.34450 0.85622 -0.08000
H 	H 	0.99450 0.37350 0.90420 0.05500
C 	C 	0.93330 0.32470 0.89810 -0.05700
H 	H 	0.11880 0.44210 0.88030 0.05800
C 	C 	0.11390 0.42560 0.86136 -0.03400
H 	H 	0.89310 0.46910 0.07110 0.03900
H 	H 	0.86320 0.42710 0.06180 0.03700
C 	C 	0.84570 0.41100 0.08031 0.08300
H 	H 	0.02750 0.44500 0.09580 0.04700
C 	C 	0.09420 0.49040 0.09300 -0.01200
H 	H 	0.95220 0.32500 0.07030 0.05700
C 	C 	0.98610 0.30630 0.05700 -0.02300
H 	H 	0.15170 0.53150 0.08890 0.04200
H 	H 	0.02670 0.31350 0.04030 0.04000
H 	H 	0.08960 0.20260 0.87400 0.06400
H 	H 	0.04680 0.16300 0.88170 0.05300
C 	C 	0.03660 0.15820 0.86270 0.13700
C 	C 	0.91560 0.29190 0.88880 0.00500
H 	H 	0.92660 0.25350 0.87560 0.06800
C 	C 	0.09430 0.38680 0.85249 -0.02300
H 	H 	0.04820 0.32100 0.85000 0.05400
H 	H 	0.91460 0.33060 0.90370 0.05000
H 	H 	0.13270 0.45610 0.85830 0.04400
C 	C 	0.85720 0.38970 0.08958 -0.12200
C 	C 	0.80210 0.40780 0.08147 -0.14600
H 	H 	0.10080 0.49710 0.10170 0.02800
H 	H 	0.97200 0.27410 0.05860 0.03600
C 	C 	0.04730 0.12300 0.85880 -0.19400
C 	C 	0.01480 0.16860 0.85420 -0.17500
H 	H 	0.88340 0.27740 0.88720 0.02700
H 	H 	0.10400 0.39190 0.84390 0.03900
H 	H 	0.88600 0.39080 0.08900 0.08700
C 	C 	0.82860 0.36650 0.09991 0.07100
C 	C 	0.77520 0.38540 0.09162 0.09900
H 	H 	0.79170 0.42100 0.07520 0.08300
H 	H 	0.06420 0.11350 0.86400 0.09200
C 	C 	0.03100 0.10400 0.84672 0.15800
C 	C 	0.99270 0.14160 0.84221 0.12300
H 	H 	0.01260 0.19550 0.85560 0.10200
H 	H 	0.83820 0.35330 0.10630 0.02700
C 	C 	0.78470 0.36340 0.10041 -0.16000
H 	H 	0.74710 0.38570 0.09250 0.01100
H 	H 	0.04020 0.08280 0.84400 -0.00300
C 	C 	0.00580 0.11030 0.83883 -0.24500
H 	H 	0.97130 0.14600 0.83740 0.00700
C 	C 	0.75270 0.33650 0.11080 0.42400
C 	C 	0.98460 0.08160 0.82810 0.48100
O 	O 	0.00660 0.06350 0.82421 -0.35900
Zn	Zn	0.88769 0.93212 0.29371 1.22700
O 	O 	0.94447 0.95163 0.30236 -0.67100
O 	O 	0.84097 0.91483 0.30699 -0.46900
O 	O 	0.87027 0.87823 0.28419 -0.48400
O 	O 	0.88267 0.97393 0.28328 -0.51000
Zn	Zn	0.92757 0.89163 0.30993 1.23000
C 	C 	0.84437 0.89203 0.31604 0.37500
C 	C 	0.88097 0.84683 0.28766 0.33200
O 	O 	0.87087 0.87743 0.31867 -0.49000
O 	O 	0.90697 0.84783 0.29651 -0.48400
O 	O 	0.95777 0.87243 0.32185 -0.51400
O 	O 	0.98737 0.94543 0.27944 -0.49100
C 	C 	0.80727 0.88253 0.32626 -0.10600
C 	C 	0.86197 0.80523 0.27871 -0.09000
C 	C 	0.80487 0.85843 0.33777 0.05000
C 	C 	0.77517 0.89513 0.32511 0.05500
C 	C 	0.83367 0.79973 0.26764 0.02900
C 	C 	0.86547 0.76763 0.28206 0.03000
C 	C 	0.77247 0.84973 0.34616 -0.12800
H 	H 	0.82667 0.84883 0.33933 0.02700
H 	H 	0.77587 0.91143 0.31763 0.03400
C 	C 	0.74107 0.88633 0.33393 -0.13600
C 	C 	0.81487 0.76023 0.26016 -0.11900
H 	H 	0.82787 0.82393 0.26543 0.02900
H 	H 	0.87947 0.76733 0.28983 0.03700
C 	C 	0.84787 0.72833 0.27370 -0.12000
C 	C 	0.73987 0.86423 0.34516 0.09000
H 	H 	0.77097 0.83223 0.35343 0.08400
H 	H 	0.71877 0.89533 0.33233 0.07400
C 	C 	0.82317 0.72543 0.26311 0.08700
H 	H 	0.79637 0.75753 0.25303 0.08000
H 	H 	0.85357 0.70393 0.27563 0.06800
C 	C 	0.70637 0.85823 0.35515 -0.04500
C 	C 	0.80787 0.68353 0.25497 -0.03600
H 	H 	0.67457 0.83923 0.35193 0.04700
H 	H 	0.71077 0.88873 0.35763 0.05400
O 	O 	0.71277 0.83683 0.36559 -0.19700
H 	H 	0.79097 0.65523 0.26013 0.04200
H 	H 	0.83497 0.68373 0.25113 0.05200
O 	O 	0.77917 0.68443 0.24546 -0.21400
C 	C 	0.67637 0.81563 0.37412 0.10100
C 	C 	0.75897 0.64783 0.23785 0.14100
C 	C 	0.64217 0.82783 0.37440 -0.07000
C 	C 	0.68487 0.79523 0.38511 0.00800
C 	C 	0.76987 0.61373 0.23775 -0.11500
C 	C 	0.73547 0.65333 0.22698 -0.02200
H 	H 	0.64317 0.85043 0.36873 0.06300
C 	C 	0.60637 0.80613 0.38317 -0.09000
C 	C 	0.64977 0.77513 0.39342 -0.03600
C 	C 	0.72287 0.78643 0.38753 -0.08600
C 	C 	0.74827 0.57793 0.22833 -0.04800
H 	H 	0.79097 0.61353 0.24373 0.07600
C 	C 	0.71407 0.61923 0.21812 -0.00600
C 	C 	0.72327 0.68973 0.22518 -0.06000
H 	H 	0.57877 0.80743 0.38223 0.06600
C 	C 	0.61227 0.78183 0.39364 0.14300
C 	C 	0.65807 0.74533 0.40307 -0.05200
H 	H 	0.74847 0.80203 0.38123 0.06300
C 	C 	0.73767 0.79953 0.39983 0.04200
C 	C 	0.70017 0.73573 0.38683 0.03100
C 	C 	0.72117 0.58353 0.21793 0.09100
H 	H 	0.75127 0.55123 0.22873 0.05100
C 	C 	0.68407 0.62213 0.20896 -0.07700
H 	H 	0.73797 0.71493 0.23163 0.05900
C 	C 	0.67457 0.66943 0.22478 0.01800
C 	C 	0.74157 0.70653 0.21142 0.02400
O 	O 	0.58007 0.76083 0.40239 -0.22700
H 	H 	0.63287 0.72983 0.40953 0.05300
C 	C 	0.70487 0.78013 0.40883 0.00500
C 	C 	0.66647 0.71323 0.39573 0.02600
C 	C 	0.78207 0.82963 0.40393 -0.08100
C 	C 	0.71247 0.71003 0.37883 -0.07400
O 	O 	0.70407 0.54643 0.20915 -0.18900
H 	H 	0.66787 0.59453 0.20333 0.06100
C 	C 	0.65297 0.63343 0.21607 0.04000
C 	C 	0.71897 0.66733 0.20195 0.02500
C 	C 	0.64657 0.68113 0.23196 -0.06200
C 	C 	0.77147 0.75103 0.20769 -0.07200
C 	C 	0.54667 0.76883 0.40328 0.01500
C 	C 	0.71737 0.79263 0.42283 -0.06900
C 	C 	0.64297 0.67043 0.39750 -0.06800
C 	C 	0.78897 0.84163 0.41933 -0.04400
H 	H 	0.80737 0.84273 0.39823 0.05500
C 	C 	0.68847 0.66473 0.37973 -0.02100
H 	H 	0.73717 0.72483 0.37293 0.05500
C 	C 	0.72217 0.51763 0.20776 -0.06500
C 	C 	0.60807 0.61163 0.21473 -0.08700
C 	C 	0.72987 0.67783 0.18955 -0.07500
H 	H 	0.66117 0.70683 0.23753 0.06100
C 	C 	0.59997 0.65803 0.23143 -0.03600
H 	H 	0.78547 0.77543 0.21363 0.06000
C 	C 	0.78057 0.75893 0.19469 -0.03000
H 	H 	0.55977 0.80243 0.40443 0.03800
H 	H 	0.52987 0.76043 0.39513 0.03700
C 	C 	0.51237 0.74433 0.41364 0.08300
H 	H 	0.69417 0.77833 0.42913 0.04800
C 	C 	0.76087 0.82373 0.42633 -0.01500
H 	H 	0.61887 0.65833 0.40363 0.05200
C 	C 	0.65277 0.63963 0.39033 -0.03700
H 	H 	0.81837 0.86483 0.42223 0.04200
H 	H 	0.69337 0.64683 0.37363 0.03600
H 	H 	0.75627 0.53593 0.20733 0.06200
H 	H 	0.71347 0.49633 0.21503 0.05200
C 	C 	0.70327 0.49153 0.19603 0.12300
C 	C 	0.58227 0.62523 0.22213 -0.01500
H 	H 	0.59327 0.58683 0.20893 0.06000
C 	C 	0.76097 0.72013 0.18582 -0.02700
H 	H 	0.71487 0.65433 0.18333 0.05300
H 	H 	0.58127 0.66393 0.23703 0.04300
H 	H 	0.79937 0.78943 0.19163 0.04300
C 	C 	0.52387 0.72303 0.42291 -0.12200
C 	C 	0.46877 0.74113 0.41480 -0.14600
H 	H 	0.76747 0.83043 0.43503 0.03000
H 	H 	0.63867 0.60743 0.39193 0.04000
C 	C 	0.71397 0.45633 0.19213 -0.17800
C 	C 	0.68147 0.50193 0.18753 -0.15500
H 	H 	0.55007 0.61073 0.22053 0.03400
H 	H 	0.77067 0.72523 0.17723 0.04100
H 	H 	0.55267 0.72413 0.42233 0.08700
C 	C 	0.49527 0.69983 0.43324 0.07100
C 	C 	0.44187 0.71873 0.42495 0.09800
H 	H 	0.45837 0.75433 0.40853 0.08300
H 	H 	0.73087 0.44683 0.19733 0.08800
C 	C 	0.69767 0.43733 0.18005 0.13600
C 	C 	0.65937 0.47493 0.17554 0.09500
H 	H 	0.67927 0.52883 0.18893 0.09700
H 	H 	0.50487 0.68663 0.43963 0.02700
C 	C 	0.45137 0.69673 0.43374 -0.16000
H 	H 	0.41377 0.71903 0.42583 0.01100
H 	H 	0.70687 0.41613 0.17733 0.00500
C 	C 	0.67247 0.44363 0.17216 -0.21300
H 	H 	0.63797 0.47933 0.17073 0.01600
C 	C 	0.41937 0.66983 0.44413 0.42400
C 	C 	0.65127 0.41493 0.16143 0.45900
O 	O 	0.67327 0.39683 0.15754 -0.34900
Zn	Zn	0.55435 0.26546 0.62705 1.22700
O 	O 	0.61113 0.28497 0.63570 -0.67400
O 	O 	0.50763 0.24817 0.64033 -0.47000
O 	O 	0.53693 0.21157 0.61753 -0.48400
O 	O 	0.54933 0.30727 0.61662 -0.51500
Zn	Zn	0.59423 0.22497 0.64327 1.23000
C 	C 	0.51103 0.22537 0.64938 0.37500
C 	C 	0.54763 0.18017 0.62100 0.33300
O 	O 	0.53753 0.21077 0.65201 -0.49000
O 	O 	0.57363 0.18117 0.62985 -0.48500
O 	O 	0.62443 0.20577 0.65519 -0.51000
O 	O 	0.65403 0.27877 0.61278 -0.49300
C 	C 	0.47393 0.21587 0.65960 -0.10600
C 	C 	0.52863 0.13857 0.61205 -0.09200
C 	C 	0.47153 0.19177 0.67111 0.05000
C 	C 	0.44183 0.22847 0.65845 0.05500
C 	C 	0.50033 0.13307 0.60098 0.03000
C 	C 	0.53213 0.10097 0.61540 0.03100
C 	C 	0.43913 0.18307 0.67950 -0.12800
H 	H 	0.49333 0.18217 0.67267 0.02700
H 	H 	0.44253 0.24477 0.65097 0.03300
C 	C 	0.40773 0.21967 0.66727 -0.13600
C 	C 	0.48153 0.09357 0.59350 -0.12200
H 	H 	0.49453 0.15727 0.59877 0.02800
H 	H 	0.54613 0.10067 0.62317 0.03600
C 	C 	0.51453 0.06167 0.60704 -0.12300
C 	C 	0.40653 0.19757 0.67850 0.09000
H 	H 	0.43763 0.16557 0.68677 0.08400
H 	H 	0.38543 0.22867 0.66567 0.07400
C 	C 	0.48983 0.05877 0.59645 0.09000
H 	H 	0.46303 0.09087 0.58637 0.08100
H 	H 	0.52023 0.03727 0.60897 0.06700
C 	C 	0.37303 0.19157 0.68849 -0.04500
C 	C 	0.47453 0.01687 0.58831 -0.04500
H 	H 	0.34123 0.17257 0.68527 0.04700
H 	H 	0.37743 0.22207 0.69097 0.05400
O 	O 	0.37943 0.17017 0.69893 -0.19700
H 	H 	0.45763 0.98857 0.59347 0.04800
H 	H 	0.50163 0.01707 0.58447 0.05300
O 	O 	0.44583 0.01777 0.57880 -0.21600
C 	C 	0.34303 0.14897 0.70746 0.10200
C 	C 	0.42563 0.98117 0.57119 0.14300
C 	C 	0.30883 0.16117 0.70774 -0.07100
C 	C 	0.35153 0.12857 0.71845 0.00600
C 	C 	0.43653 0.94707 0.57109 -0.11600
C 	C 	0.40213 0.98667 0.56032 -0.01600
H 	H 	0.30983 0.18377 0.70207 0.06300
C 	C 	0.27303 0.13947 0.71651 -0.08900
C 	C 	0.31643 0.10847 0.72676 -0.03400
C 	C 	0.38953 0.11977 0.72087 -0.08200
C 	C 	0.41493 0.91127 0.56167 -0.04800
H 	H 	0.45763 0.94687 0.57707 0.07700
C 	C 	0.38073 0.95257 0.55146 -0.00700
C 	C 	0.38993 0.02307 0.55852 -0.06500
H 	H 	0.24543 0.14077 0.71557 0.06600
C 	C 	0.27893 0.11517 0.72698 0.14200
C 	C 	0.32473 0.07867 0.73641 -0.05800
H 	H 	0.41513 0.13537 0.71457 0.06200
C 	C 	0.40433 0.13287 0.73317 0.03900
C 	C 	0.36683 0.06907 0.72017 0.02600
C 	C 	0.38783 0.91687 0.55127 0.09100
H 	H 	0.41793 0.88457 0.56207 0.05100
C 	C 	0.35073 0.95547 0.54230 -0.07300
H 	H 	0.40463 0.04827 0.56497 0.06000
C 	C 	0.34123 0.00277 0.55812 0.01900
C 	C 	0.40823 0.03987 0.54476 0.02400
O 	O 	0.24673 0.09417 0.73573 -0.22700
H 	H 	0.29953 0.06317 0.74287 0.05400
C 	C 	0.37153 0.11347 0.74217 0.00800
C 	C 	0.33313 0.04657 0.72907 0.03800
C 	C 	0.44873 0.16297 0.73727 -0.07800
C 	C 	0.37913 0.04337 0.71217 -0.07700
O 	O 	0.37073 0.87977 0.54249 -0.18900
H 	H 	0.33453 0.92787 0.53667 0.06100
C 	C 	0.31963 0.96677 0.54941 0.04100
C 	C 	0.38563 0.00067 0.53529 0.02400
C 	C 	0.31323 0.01447 0.56530 -0.07300
C 	C 	0.43813 0.08437 0.54103 -0.07100
C 	C 	0.21333 0.10217 0.73662 0.01500
C 	C 	0.38403 0.12597 0.75617 -0.07300
C 	C 	0.30963 0.00377 0.73084 -0.09100
C 	C 	0.45563 0.17497 0.75267 -0.04800
H 	H 	0.47403 0.17607 0.73157 0.05400
C 	C 	0.35513 0.99807 0.71307 -0.01900
H 	H 	0.40383 0.05817 0.70627 0.05500
C 	C 	0.38883 0.85097 0.54110 -0.06500
C 	C 	0.27473 0.94497 0.54807 -0.08300
C 	C 	0.39653 0.01117 0.52289 -0.08500
H 	H 	0.32783 0.04017 0.57087 0.06400
C 	C 	0.26663 0.99137 0.56477 -0.02500
H 	H 	0.45213 0.10877 0.54697 0.05900
C 	C 	0.44723 0.09227 0.52803 -0.03300
H 	H 	0.22643 0.13577 0.73777 0.03900
H 	H 	0.19653 0.09377 0.72847 0.03600
C 	C 	0.17903 0.07767 0.74698 0.08200
H 	H 	0.36083 0.11167 0.76247 0.04900
C 	C 	0.42753 0.15707 0.75967 -0.01000
H 	H 	0.28553 0.99167 0.73697 0.06300
C 	C 	0.31943 0.97297 0.72367 -0.02400
H 	H 	0.48503 0.19817 0.75557 0.04300
H 	H 	0.36003 0.98017 0.70697 0.03700
H 	H 	0.42293 0.86927 0.54067 0.06200
H 	H 	0.38013 0.82967 0.54837 0.05200
C 	C 	0.36993 0.82487 0.52937 0.12300
C 	C 	0.24893 0.95857 0.55547 -0.02000
H 	H 	0.25993 0.92017 0.54227 0.05900
C 	C 	0.42763 0.05347 0.51916 -0.02100
H 	H 	0.38153 0.98767 0.51667 0.06000
H 	H 	0.24793 0.99727 0.57037 0.04000
H 	H 	0.46603 0.12277 0.52497 0.04400
C 	C 	0.19053 0.05637 0.75625 -0.12100
C 	C 	0.13543 0.07447 0.74814 -0.14500
H 	H 	0.43413 0.16377 0.76837 0.02800
H 	H 	0.30533 0.94077 0.72527 0.03600
C 	C 	0.38063 0.78967 0.52547 -0.17800
C 	C 	0.34813 0.83527 0.52087 -0.15500
H 	H 	0.21673 0.94407 0.55387 0.03600
H 	H 	0.43733 0.05857 0.51057 0.03800
H 	H 	0.21933 0.05747 0.75567 0.08600
C 	C 	0.16193 0.03317 0.76658 0.06900
C 	C 	0.10853 0.05207 0.75829 0.09700
H 	H 	0.12503 0.08767 0.74187 0.08300
H 	H 	0.39753 0.78017 0.53067 0.08800
C 	C 	0.36433 0.77067 0.51339 0.13600
C 	C 	0.32603 0.80827 0.50888 0.09500
H 	H 	0.34593 0.86217 0.52227 0.09700
H 	H 	0.17153 0.01997 0.77297 0.02600
C 	C 	0.11803 0.03007 0.76708 -0.15900
H 	H 	0.08043 0.05237 0.75917 0.01100
H 	H 	0.37353 0.74947 0.51067 0.00500
C 	C 	0.33913 0.77697 0.50550 -0.21400
H 	H 	0.30463 0.81267 0.50407 0.01600
C 	C 	0.08603 0.00317 0.77747 0.41800
C 	C 	0.31793 0.74827 0.49477 0.45900
O 	O 	0.33993 0.73017 0.49088 -0.34900
Zn	Zn	0.40121 0.62223 0.96038 1.22700
O 	O 	0.38170 0.65950 0.96903 -0.67400
O 	O 	0.41850 0.59280 0.97366 -0.47000
O 	O 	0.45510 0.65870 0.95086 -0.48400
O 	O 	0.35940 0.57540 0.94995 -0.51500
Zn	Zn	0.44170 0.70260 0.97660 1.23000
C 	C 	0.44130 0.61900 0.98271 0.37500
C 	C 	0.48650 0.70080 0.95433 0.33200
O 	O 	0.45590 0.66010 0.98534 -0.49000
O 	O 	0.48550 0.72580 0.96318 -0.48500
O 	O 	0.46090 0.75200 0.98852 -0.50900
O 	O 	0.38790 0.70860 0.94611 -0.49300
C 	C 	0.45080 0.59140 0.99293 -0.10600
C 	C 	0.52810 0.72340 0.94538 -0.09100
C 	C 	0.47490 0.61310 0.00444 0.05000
C 	C 	0.43820 0.54670 0.99178 0.05500
C 	C 	0.53360 0.70060 0.93431 0.02900
C 	C 	0.56570 0.76450 0.94873 0.03000
C 	C 	0.48360 0.58940 0.01283 -0.12800
H 	H 	0.48450 0.64450 0.00600 0.02700
H 	H 	0.42190 0.53110 0.98430 0.03300
C 	C 	0.44700 0.52140 0.00060 -0.13600
C 	C 	0.57310 0.72130 0.92683 -0.11900
H 	H 	0.50940 0.67060 0.93210 0.02900
H 	H 	0.56600 0.77880 0.95650 0.03600
C 	C 	0.60500 0.78620 0.94037 -0.12000
C 	C 	0.46910 0.54230 0.01183 0.09000
H 	H 	0.50110 0.60540 0.02010 0.08400
H 	H 	0.43800 0.49010 0.99900 0.07400
C 	C 	0.60790 0.76440 0.92978 0.08700
H 	H 	0.57580 0.70550 0.91970 0.08000
H 	H 	0.62940 0.81630 0.94230 0.06800
C 	C 	0.47510 0.51480 0.02182 -0.04500
C 	C 	0.64980 0.79100 0.92164 -0.03600
H 	H 	0.49410 0.50200 0.01860 0.04700
H 	H 	0.44460 0.48870 0.02430 0.05400
O 	O 	0.49650 0.54260 0.03226 -0.19700
H 	H 	0.67810 0.80240 0.92680 0.04200
H 	H 	0.64960 0.81790 0.91780 0.05200
O 	O 	0.64890 0.76140 0.91213 -0.21400
C 	C 	0.51770 0.52740 0.04079 0.10100
C 	C 	0.68550 0.77780 0.90452 0.14100
C 	C 	0.50550 0.48100 0.04107 -0.07000
C 	C 	0.53810 0.55630 0.05178 0.00800
C 	C 	0.71960 0.82280 0.90442 -0.11500
C 	C 	0.68000 0.74880 0.89365 -0.02200
H 	H 	0.48290 0.45940 0.03540 0.06300
C 	C 	0.52720 0.46690 0.04984 -0.09000
C 	C 	0.55820 0.54130 0.06009 -0.03600
C 	C 	0.54690 0.60310 0.05420 -0.08600
C 	C 	0.75540 0.83700 0.89500 -0.04800
H 	H 	0.71980 0.84410 0.91040 0.07600
C 	C 	0.71410 0.76150 0.88479 -0.00600
C 	C 	0.64360 0.70020 0.89185 -0.06000
H 	H 	0.52590 0.43800 0.04890 0.06600
C 	C 	0.55150 0.49710 0.06031 0.14300
C 	C 	0.58800 0.57940 0.06974 -0.05200
H 	H 	0.53130 0.61310 0.04790 0.06300
C 	C 	0.53380 0.60480 0.06650 0.04200
C 	C 	0.59760 0.63110 0.05350 0.03100
C 	C 	0.74980 0.80430 0.88460 0.09100
H 	H 	0.78210 0.86670 0.89540 0.05200
C 	C 	0.71120 0.72860 0.87563 -0.07700
H 	H 	0.61840 0.68970 0.89830 0.05900
C 	C 	0.66390 0.67180 0.89145 0.01800
C 	C 	0.62680 0.70170 0.87809 0.02400
O 	O 	0.57250 0.48590 0.06906 -0.22700
H 	H 	0.60350 0.56970 0.07620 0.05300
C 	C 	0.55320 0.59140 0.07550 0.00500
C 	C 	0.62010 0.61990 0.06240 0.02600
C 	C 	0.50370 0.61910 0.07060 -0.08100
C 	C 	0.62330 0.66910 0.04550 -0.07400
O 	O 	0.78690 0.82430 0.87582 -0.18900
H 	H 	0.73880 0.74000 0.87000 0.06200
C 	C 	0.69990 0.68620 0.88274 0.04000
C 	C 	0.66600 0.71830 0.86862 0.02500
C 	C 	0.65220 0.63210 0.89863 -0.06200
C 	C 	0.58230 0.68710 0.87436 -0.07200
C 	C 	0.56450 0.44450 0.06995 0.01500
C 	C 	0.54070 0.59140 0.08950 -0.06900
C 	C 	0.66290 0.63920 0.06417 -0.06800
C 	C 	0.49170 0.61400 0.08600 -0.04400
H 	H 	0.49060 0.63130 0.06490 0.05500
C 	C 	0.66860 0.69040 0.04640 -0.02100
H 	H 	0.60850 0.67900 0.03960 0.05500
C 	C 	0.81570 0.87120 0.87443 -0.06500
C 	C 	0.72170 0.66310 0.88140 -0.08700
C 	C 	0.65550 0.71870 0.85622 -0.07500
H 	H 	0.62650 0.62100 0.90420 0.06100
C 	C 	0.67530 0.60860 0.89810 -0.03600
H 	H 	0.55790 0.67670 0.88030 0.06000
C 	C 	0.57440 0.68830 0.86136 -0.03000
H 	H 	0.53090 0.42400 0.07110 0.03900
H 	H 	0.57290 0.43610 0.06180 0.03700
C 	C 	0.58900 0.43470 0.08031 0.08300
H 	H 	0.55500 0.58250 0.09580 0.04800
C 	C 	0.50960 0.60380 0.09300 -0.01500
H 	H 	0.67500 0.62720 0.07030 0.05200
C 	C 	0.69370 0.67980 0.05700 -0.03700
H 	H 	0.46850 0.62020 0.08890 0.04100
H 	H 	0.68650 0.71320 0.04030 0.03600
H 	H 	0.79740 0.88700 0.87400 0.06200
H 	H 	0.83700 0.88380 0.88170 0.05300
C 	C 	0.84180 0.87840 0.86270 0.12400
C 	C 	0.70810 0.62370 0.88880 -0.01500
H 	H 	0.74650 0.67310 0.87560 0.06000
C 	C 	0.61320 0.70750 0.85249 -0.02700
H 	H 	0.67900 0.72720 0.85000 0.05300
H 	H 	0.66940 0.58400 0.90370 0.04300
H 	H 	0.54390 0.67660 0.85830 0.04300
C 	C 	0.61030 0.46750 0.08958 -0.12200
C 	C 	0.59220 0.39430 0.08147 -0.14600
H 	H 	0.50290 0.60370 0.10170 0.03000
H 	H 	0.72590 0.69790 0.05860 0.04000
C 	C 	0.87700 0.92430 0.85880 -0.17700
C 	C 	0.83140 0.84620 0.85420 -0.15400
H 	H 	0.72260 0.60600 0.88720 0.03400
H 	H 	0.60810 0.71210 0.84390 0.04100
H 	H 	0.60920 0.49520 0.08900 0.08700
C 	C 	0.63350 0.46210 0.09991 0.07100
C 	C 	0.61460 0.38980 0.09162 0.09800
H 	H 	0.57900 0.37070 0.07520 0.08300
H 	H 	0.88650 0.95070 0.86400 0.08900
C 	C 	0.89600 0.92700 0.84672 0.13600
C 	C 	0.85840 0.85110 0.84221 0.09500
H 	H 	0.80450 0.81710 0.85560 0.09700
H 	H 	0.64670 0.48490 0.10630 0.02700
C 	C 	0.63660 0.42130 0.10041 -0.16000
H 	H 	0.61430 0.36140 0.09250 0.01100
H 	H 	0.91720 0.95740 0.84400 0.00700
C 	C 	0.88970 0.89550 0.83883 -0.21200
H 	H 	0.85400 0.82530 0.83740 0.01600
C 	C 	0.66350 0.41620 0.11080 0.42400
C 	C 	0.91840 0.90300 0.82810 0.45800
O 	O 	0.93650 0.94310 0.82421 -0.34700
Zn	Zn	0.06788 0.95556 0.29371 1.22700
O 	O 	0.04837 0.99283 0.30236 -0.67100
O 	O 	0.08517 0.92613 0.30699 -0.47000
O 	O 	0.12177 0.99203 0.28419 -0.48000
O 	O 	0.02607 0.90873 0.28328 -0.52000
Zn	Zn	0.10837 0.03593 0.30993 1.22900
C 	C 	0.10797 0.95233 0.31604 0.37500
C 	C 	0.15317 0.03413 0.28766 0.32600
O 	O 	0.12257 0.99343 0.31867 -0.48800
O 	O 	0.15217 0.05913 0.29651 -0.48500
O 	O 	0.12757 0.08533 0.32185 -0.51000
O 	O 	0.05457 0.04193 0.27944 -0.49600
C 	C 	0.11747 0.92473 0.32626 -0.10600
C 	C 	0.19477 0.05673 0.27871 -0.09000
C 	C 	0.14157 0.94643 0.33777 0.05000
C 	C 	0.10487 0.88003 0.32511 0.05500
C 	C 	0.20027 0.03393 0.26764 0.02800
C 	C 	0.23237 0.09783 0.28206 0.02900
C 	C 	0.15027 0.92273 0.34616 -0.12800
H 	H 	0.15117 0.97783 0.33933 0.02800
H 	H 	0.08857 0.86443 0.31763 0.03300
C 	C 	0.11367 0.85473 0.33393 -0.13600
C 	C 	0.23977 0.05463 0.26016 -0.11900
H 	H 	0.17607 0.00393 0.26543 0.02700
H 	H 	0.23267 0.11213 0.28983 0.03600
C 	C 	0.27167 0.11953 0.27370 -0.12000
C 	C 	0.13577 0.87563 0.34516 0.09000
H 	H 	0.16777 0.93873 0.35343 0.08500
H 	H 	0.10467 0.82343 0.33233 0.07300
C 	C 	0.27457 0.09773 0.26311 0.08600
H 	H 	0.24247 0.03883 0.25303 0.07900
H 	H 	0.29607 0.14963 0.27563 0.06700
C 	C 	0.14177 0.84813 0.35515 -0.04500
C 	C 	0.31647 0.12433 0.25497 -0.03600
H 	H 	0.16077 0.83533 0.35193 0.04700
H 	H 	0.11127 0.82203 0.35763 0.05400
O 	O 	0.16317 0.87593 0.36559 -0.19600
H 	H 	0.34477 0.13573 0.26013 0.04200
H 	H 	0.31627 0.15123 0.25113 0.05200
O 	O 	0.31557 0.09473 0.24546 -0.21400
C 	C 	0.18437 0.86073 0.37412 0.09900
C 	C 	0.35217 0.11113 0.23785 0.14000
C 	C 	0.17217 0.81433 0.37440 -0.06800
C 	C 	0.20477 0.88963 0.38511 0.01300
C 	C 	0.38627 0.15613 0.23775 -0.11400
C 	C 	0.34667 0.08213 0.22698 -0.02000
H 	H 	0.14957 0.79273 0.36873 0.06300
C 	C 	0.19387 0.80023 0.38317 -0.09100
C 	C 	0.22487 0.87463 0.39342 -0.04000
C 	C 	0.21357 0.93643 0.38753 -0.09700
C 	C 	0.42207 0.17033 0.22833 -0.04900
H 	H 	0.38647 0.17743 0.24373 0.07500
C 	C 	0.38077 0.09483 0.21812 -0.00900
C 	C 	0.31027 0.03353 0.22518 -0.06200
H 	H 	0.19257 0.77133 0.38223 0.06700
C 	C 	0.21817 0.83043 0.39364 0.14500
C 	C 	0.25467 0.91273 0.40307 -0.04300
H 	H 	0.19797 0.94643 0.38123 0.06600
C 	C 	0.20047 0.93813 0.39983 0.05000
C 	C 	0.26427 0.96443 0.38683 0.04800
C 	C 	0.41647 0.13763 0.21793 0.09200
H 	H 	0.44877 0.20003 0.22873 0.05100
C 	C 	0.37787 0.06193 0.20896 -0.06900
H 	H 	0.28507 0.02303 0.23163 0.05800
C 	C 	0.33057 0.00513 0.22478 0.02100
C 	C 	0.29347 0.03503 0.21142 0.02500
O 	O 	0.23917 0.81923 0.40239 -0.22700
H 	H 	0.27017 0.90303 0.40953 0.05100
C 	C 	0.21987 0.92473 0.40883 -0.00100
C 	C 	0.28677 0.95323 0.39573 0.01100
C 	C 	0.17037 0.95243 0.40393 -0.08600
C 	C 	0.28997 0.00243 0.37883 -0.09400
O 	O 	0.45357 0.15763 0.20915 -0.19000
H 	H 	0.40547 0.07333 0.20333 0.05900
C 	C 	0.36657 0.01953 0.21607 0.02400
C 	C 	0.33267 0.05163 0.20195 0.02200
C 	C 	0.31887 0.96543 0.23196 -0.06300
C 	C 	0.24897 0.02043 0.20769 -0.07400
C 	C 	0.23117 0.77783 0.40328 0.01500
C 	C 	0.20737 0.92473 0.42283 -0.06200
C 	C 	0.32957 0.97253 0.39750 -0.04700
C 	C 	0.15837 0.94733 0.41933 -0.03500
H 	H 	0.15727 0.96463 0.39823 0.05700
C 	C 	0.33527 0.02373 0.37973 -0.00800
H 	H 	0.27517 0.01233 0.37293 0.05900
C 	C 	0.48237 0.20453 0.20776 -0.06500
C 	C 	0.38837 0.99643 0.21473 -0.05900
C 	C 	0.32217 0.05203 0.18955 -0.07300
H 	H 	0.29317 0.95433 0.23753 0.06200
C 	C 	0.34197 0.94193 0.23143 -0.02700
H 	H 	0.22457 0.01003 0.21363 0.05900
C 	C 	0.24107 0.02163 0.19469 -0.03000
H 	H 	0.19757 0.75733 0.40443 0.03800
H 	H 	0.23957 0.76943 0.39513 0.03700
C 	C 	0.25567 0.76803 0.41364 0.08300
H 	H 	0.22167 0.91583 0.42913 0.04600
C 	C 	0.17627 0.93713 0.42633 -0.02500
H 	H 	0.34167 0.96053 0.40363 0.04600
C 	C 	0.36037 0.01313 0.39033 -0.05500
H 	H 	0.13517 0.95353 0.42223 0.03900
H 	H 	0.35317 0.04653 0.37363 0.03100
H 	H 	0.46407 0.22033 0.20733 0.06200
H 	H 	0.50367 0.21713 0.21503 0.05200
C 	C 	0.50847 0.21173 0.19603 0.12300
C 	C 	0.37477 0.95703 0.22213 -0.02900
H 	H 	0.41317 0.00643 0.20893 0.04700
C 	C 	0.27987 0.04083 0.18582 -0.02900
H 	H 	0.34567 0.06053 0.18333 0.05200
H 	H 	0.33607 0.91733 0.23703 0.04000
H 	H 	0.21057 0.00993 0.19163 0.04200
C 	C 	0.27697 0.80083 0.42291 -0.12200
C 	C 	0.25887 0.72763 0.41480 -0.14600
H 	H 	0.16957 0.93703 0.43503 0.03400
H 	H 	0.39257 0.03123 0.39193 0.04500
C 	C 	0.54367 0.25763 0.19213 -0.17800
C 	C 	0.49807 0.17953 0.18753 -0.15500
H 	H 	0.38927 0.93933 0.22053 0.04000
H 	H 	0.27477 0.04543 0.17723 0.04100
H 	H 	0.27587 0.82853 0.42233 0.08700
C 	C 	0.30017 0.79543 0.43324 0.07100
C 	C 	0.28127 0.72313 0.42495 0.09800
H 	H 	0.24567 0.70403 0.40853 0.08300
H 	H 	0.55317 0.28403 0.19733 0.08800
C 	C 	0.56267 0.26033 0.18005 0.13600
C 	C 	0.52507 0.18443 0.17554 0.09500
H 	H 	0.47117 0.15043 0.18893 0.09700
H 	H 	0.31337 0.81823 0.43963 0.02700
C 	C 	0.30327 0.75463 0.43374 -0.16000
H 	H 	0.28097 0.69473 0.42583 0.01100
H 	H 	0.58387 0.29073 0.17733 0.00500
C 	C 	0.55637 0.22883 0.17216 -0.21400
H 	H 	0.52067 0.15863 0.17073 0.01600
C 	C 	0.33017 0.74953 0.44413 0.42400
C 	C 	0.58507 0.23633 0.16143 0.46000
O 	O 	0.60317 0.27643 0.15754 -0.34900
Zn	Zn	0.73454 0.28890 0.62705 1.22700
O 	O 	0.71503 0.32617 0.63570 -0.67400
O 	O 	0.75183 0.25947 0.64033 -0.47000
O 	O 	0.78843 0.32537 0.61753 -0.48400
O 	O 	0.69273 0.24207 0.61662 -0.51500
Zn	Zn	0.77503 0.36927 0.64327 1.23000
C 	C 	0.77463 0.28567 0.64938 0.37500
C 	C 	0.81983 0.36747 0.62100 0.33200
O 	O 	0.78923 0.32677 0.65201 -0.49000
O 	O 	0.81883 0.39247 0.62985 -0.48400
O 	O 	0.79423 0.41867 0.65519 -0.50900
O 	O 	0.72123 0.37527 0.61278 -0.49300
C 	C 	0.78413 0.25807 0.65960 -0.10600
C 	C 	0.86143 0.39007 0.61205 -0.09000
C 	C 	0.80823 0.27977 0.67111 0.05000
C 	C 	0.77153 0.21337 0.65845 0.05500
C 	C 	0.86693 0.36727 0.60098 0.02800
C 	C 	0.89903 0.43117 0.61540 0.02900
C 	C 	0.81693 0.25607 0.67950 -0.12800
H 	H 	0.81783 0.31117 0.67267 0.02700
H 	H 	0.75523 0.19777 0.65097 0.03300
C 	C 	0.78033 0.18807 0.66727 -0.13600
C 	C 	0.90643 0.38797 0.59350 -0.11700
H 	H 	0.84273 0.33727 0.59877 0.02900
H 	H 	0.89933 0.44547 0.62317 0.03700
C 	C 	0.93833 0.45287 0.60704 -0.11800
C 	C 	0.80243 0.20897 0.67850 0.09000
H 	H 	0.83443 0.27207 0.68677 0.08400
H 	H 	0.77133 0.15677 0.66567 0.07400
C 	C 	0.94123 0.43107 0.59645 0.08400
H 	H 	0.90913 0.37217 0.58637 0.07900
H 	H 	0.96273 0.48297 0.60897 0.06800
C 	C 	0.80843 0.18147 0.68849 -0.04500
C 	C 	0.98313 0.45767 0.58831 -0.02700
H 	H 	0.82743 0.16867 0.68527 0.04700
H 	H 	0.77793 0.15537 0.69097 0.05400
O 	O 	0.82983 0.20927 0.69893 -0.19600
H 	H 	0.01143 0.46907 0.59347 0.03600
H 	H 	0.98293 0.48457 0.58447 0.05100
O 	O 	0.98223 0.42807 0.57880 -0.21200
C 	C 	0.85103 0.19407 0.70746 0.10100
C 	C 	0.01883 0.44447 0.57119 0.13800
C 	C 	0.83883 0.14767 0.70774 -0.06900
C 	C 	0.87143 0.22297 0.71845 0.01000
C 	C 	0.05293 0.48947 0.57109 -0.11500
C 	C 	0.01333 0.41547 0.56032 -0.02700
H 	H 	0.81623 0.12607 0.70207 0.06300
C 	C 	0.86053 0.13357 0.71651 -0.09000
C 	C 	0.89153 0.20797 0.72676 -0.03800
C 	C 	0.88023 0.26977 0.72087 -0.08900
C 	C 	0.08873 0.50367 0.56167 -0.04800
H 	H 	0.05313 0.51077 0.57707 0.07500
C 	C 	0.04743 0.42817 0.55146 -0.00400
C 	C 	0.97693 0.36687 0.55852 -0.05400
H 	H 	0.85923 0.10467 0.71557 0.06700
C 	C 	0.88483 0.16377 0.72698 0.14400
C 	C 	0.92133 0.24607 0.73641 -0.04600
H 	H 	0.86463 0.27977 0.71457 0.06400
C 	C 	0.86713 0.27147 0.73317 0.04500
C 	C 	0.93093 0.29777 0.72017 0.03500
C 	C 	0.08313 0.47097 0.55127 0.09000
H 	H 	0.11543 0.53337 0.56207 0.05100
C 	C 	0.04453 0.39527 0.54230 -0.08100
H 	H 	0.95173 0.35637 0.56497 0.05800
C 	C 	0.99723 0.33847 0.55812 0.01800
C 	C 	0.96013 0.36837 0.54476 0.02400
O 	O 	0.90583 0.15257 0.73573 -0.22600
H 	H 	0.93683 0.23637 0.74287 0.05200
C 	C 	0.88653 0.25807 0.74217 0.00200
C 	C 	0.95343 0.28657 0.72907 0.01500
C 	C 	0.83703 0.28577 0.73727 -0.08300
C 	C 	0.95663 0.33577 0.71217 -0.07100
O 	O 	0.12023 0.49097 0.54249 -0.18900
H 	H 	0.07213 0.40667 0.53667 0.06200
C 	C 	0.03323 0.35287 0.54941 0.03900
C 	C 	0.99933 0.38497 0.53529 0.02600
C 	C 	0.98553 0.29877 0.56530 -0.05100
C 	C 	0.91563 0.35377 0.54103 -0.07300
C 	C 	0.89783 0.11117 0.73662 0.01500
C 	C 	0.87403 0.25807 0.75617 -0.06600
C 	C 	0.99623 0.30587 0.73084 -0.04400
C 	C 	0.82503 0.28067 0.75267 -0.04000
H 	H 	0.82393 0.29797 0.73157 0.05600
C 	C 	0.00193 0.35707 0.71307 -0.02400
H 	H 	0.94183 0.34567 0.70627 0.05500
C 	C 	0.14903 0.53787 0.54110 -0.06500
C 	C 	0.05503 0.32977 0.54807 -0.09000
C 	C 	0.98883 0.38537 0.52289 -0.06400
H 	H 	0.95983 0.28767 0.57087 0.05800
C 	C 	0.00863 0.27527 0.56477 -0.04900
H 	H 	0.89123 0.34337 0.54697 0.06000
C 	C 	0.90773 0.35497 0.52803 -0.02700
H 	H 	0.86423 0.09067 0.73777 0.03800
H 	H 	0.90623 0.10277 0.72847 0.03700
C 	C 	0.92233 0.10137 0.74698 0.08400
H 	H 	0.88833 0.24917 0.76247 0.04800
C 	C 	0.84293 0.27047 0.75967 -0.01900
H 	H 	0.00833 0.29387 0.73697 0.04000
C 	C 	0.02703 0.34647 0.72367 -0.05100
H 	H 	0.80183 0.28687 0.75557 0.04000
H 	H 	0.01983 0.37987 0.70697 0.03600
H 	H 	0.13073 0.55367 0.54067 0.06200
H 	H 	0.17033 0.55047 0.54837 0.05200
C 	C 	0.17513 0.54507 0.52937 0.12300
C 	C 	0.04143 0.29037 0.55547 -0.01000
H 	H 	0.07983 0.33977 0.54227 0.06000
C 	C 	0.94653 0.37417 0.51916 -0.03300
H 	H 	0.01233 0.39387 0.51667 0.04600
H 	H 	0.00273 0.25067 0.57037 0.04500
H 	H 	0.87723 0.34327 0.52497 0.04200
C 	C 	0.94363 0.13417 0.75625 -0.12200
C 	C 	0.92553 0.06097 0.74814 -0.14700
H 	H 	0.83623 0.27037 0.76837 0.03100
H 	H 	0.05923 0.36457 0.72527 0.04400
C 	C 	0.21033 0.59097 0.52547 -0.17800
C 	C 	0.16473 0.51287 0.52087 -0.15500
H 	H 	0.05593 0.27267 0.55387 0.03100
H 	H 	0.94143 0.37877 0.51057 0.04400
H 	H 	0.94253 0.16187 0.75567 0.08800
C 	C 	0.96683 0.12877 0.76658 0.07300
C 	C 	0.94793 0.05647 0.75829 0.10100
H 	H 	0.91233 0.03737 0.74187 0.08300
H 	H 	0.21983 0.61737 0.53067 0.08800
C 	C 	0.22933 0.59367 0.51339 0.13600
C 	C 	0.19173 0.51777 0.50888 0.09500
H 	H 	0.13783 0.48377 0.52227 0.09700
H 	H 	0.98003 0.15157 0.77297 0.02700
C 	C 	0.96993 0.08797 0.76708 -0.16300
H 	H 	0.94763 0.02807 0.75917 0.00900
H 	H 	0.25053 0.62407 0.51067 0.00500
C 	C 	0.22303 0.56217 0.50550 -0.21300
H 	H 	0.18733 0.49197 0.50407 0.01600
C 	C 	0.99683 0.08287 0.77747 0.43200
C 	C 	0.25173 0.56967 0.49477 0.45900
O 	O 	0.26983 0.60977 0.49088 -0.34900
Zn	Zn	0.37777 0.77898 0.96038 1.22700
O 	O 	0.34050 0.72220 0.96903 -0.67400
O 	O 	0.40720 0.82570 0.97366 -0.47000
O 	O 	0.34130 0.79640 0.95086 -0.48400
O 	O 	0.42460 0.78400 0.94995 -0.51500
Zn	Zn	0.29740 0.73910 0.97660 1.23000
C 	C 	0.38100 0.82230 0.98271 0.37500
C 	C 	0.29920 0.78570 0.95433 0.33200
O 	O 	0.33990 0.79580 0.98534 -0.49000
O 	O 	0.27420 0.75970 0.96318 -0.48500
O 	O 	0.24800 0.70890 0.98852 -0.50900
O 	O 	0.29140 0.67930 0.94611 -0.49300
C 	C 	0.40860 0.85940 0.99293 -0.10600
C 	C 	0.27660 0.80470 0.94538 -0.09100
C 	C 	0.38690 0.86180 0.00444 0.05100
C 	C 	0.45330 0.89150 0.99178 0.05600
C 	C 	0.29940 0.83300 0.93431 0.02900
C 	C 	0.23550 0.80120 0.94873 0.03000
C 	C 	0.41060 0.89420 0.01283 -0.12800
H 	H 	0.35550 0.84000 0.00600 0.02700
H 	H 	0.46890 0.89080 0.98430 0.03300
C 	C 	0.47860 0.92560 0.00060 -0.13700
C 	C 	0.27870 0.85180 0.92683 -0.12000
H 	H 	0.32940 0.83880 0.93210 0.02900
H 	H 	0.22120 0.78720 0.95650 0.03600
C 	C 	0.21380 0.81880 0.94037 -0.12100
C 	C 	0.45770 0.92680 0.01183 0.09100
H 	H 	0.39460 0.89570 0.02010 0.08400
H 	H 	0.50990 0.94790 0.99900 0.07500
C 	C 	0.23560 0.84350 0.92978 0.08700
H 	H 	0.29450 0.87030 0.91970 0.08000
H 	H 	0.18370 0.81310 0.94230 0.06800
C 	C 	0.48520 0.96030 0.02182 -0.04600
C 	C 	0.20900 0.85880 0.92164 -0.03700
H 	H 	0.49800 0.99210 0.01860 0.04900
H 	H 	0.51130 0.95590 0.02430 0.05500
O 	O 	0.45740 0.95390 0.03226 -0.19700
H 	H 	0.19760 0.87570 0.92680 0.04300
H 	H 	0.18210 0.83170 0.91780 0.05200
O 	O 	0.23860 0.88750 0.91213 -0.21300
C 	C 	0.47260 0.99030 0.04079 0.10500
C 	C 	0.22220 0.90770 0.90452 0.13700
C 	C 	0.51900 0.02450 0.04107 -0.07600
C 	C 	0.44370 0.98180 0.05178 0.01500
C 	C 	0.17720 0.89680 0.90442 -0.11200
C 	C 	0.25120 0.93120 0.89365 -0.01300
H 	H 	0.54060 0.02350 0.03540 0.06400
C 	C 	0.53310 0.06030 0.04984 -0.08900
C 	C 	0.45870 0.01690 0.06009 -0.04400
C 	C 	0.39690 0.94380 0.05420 -0.09400
C 	C 	0.16300 0.91840 0.89500 -0.05100
H 	H 	0.15590 0.87570 0.91040 0.07500
C 	C 	0.23850 0.95260 0.88479 -0.01400
C 	C 	0.29980 0.94340 0.89185 -0.07500
H 	H 	0.56200 0.08790 0.04890 0.06600
C 	C 	0.50290 0.05440 0.06031 0.14500
C 	C 	0.42060 0.00860 0.06974 -0.04800
H 	H 	0.38690 0.91820 0.04790 0.06500
C 	C 	0.39520 0.92900 0.06650 0.04600
C 	C 	0.36890 0.96650 0.05350 0.04500
C 	C 	0.19570 0.94550 0.88460 0.09600
H 	H 	0.13330 0.91540 0.89540 0.05200
C 	C 	0.27140 0.98260 0.87563 -0.05800
H 	H 	0.31030 0.92870 0.89830 0.06400
C 	C 	0.32820 0.99210 0.89145 0.04600
C 	C 	0.29830 0.92510 0.87809 0.03100
O 	O 	0.51410 0.08660 0.06906 -0.22700
H 	H 	0.43030 0.03380 0.07620 0.05100
C 	C 	0.40860 0.96180 0.07550 0.00600
C 	C 	0.38010 0.00020 0.06240 0.01100
C 	C 	0.38090 0.88460 0.07060 -0.08300
C 	C 	0.33090 0.95420 0.04550 -0.08600
O 	O 	0.17570 0.96260 0.87582 -0.19100
H 	H 	0.26000 0.99880 0.87000 0.05800
C 	C 	0.31380 0.01370 0.88274 0.01200
C 	C 	0.28170 0.94770 0.86862 0.01900
C 	C 	0.36790 0.02010 0.89863 -0.08900
C 	C 	0.31290 0.89520 0.87436 -0.07700
C 	C 	0.55550 0.12000 0.06995 0.01500
C 	C 	0.40860 0.94930 0.08950 -0.06800
C 	C 	0.36080 0.02370 0.06417 -0.05500
C 	C 	0.38600 0.87770 0.08600 -0.04200
H 	H 	0.36870 0.85930 0.06490 0.05500
C 	C 	0.30960 0.97820 0.04640 -0.00600
H 	H 	0.32100 0.92950 0.03960 0.05900
C 	C 	0.12880 0.94450 0.87443 -0.05500
C 	C 	0.33690 0.05860 0.88140 -0.06300
C 	C 	0.28130 0.93680 0.85622 -0.06900
H 	H 	0.37900 0.00550 0.90420 0.06800
C 	C 	0.39140 0.06670 0.89810 -0.01400
H 	H 	0.32330 0.88120 0.88030 0.06200
C 	C 	0.31170 0.88610 0.86136 -0.02600
H 	H 	0.57600 0.10690 0.07110 0.03800
H 	H 	0.56390 0.13680 0.06180 0.03700
C 	C 	0.56530 0.15430 0.08031 0.08300
H 	H 	0.41750 0.97250 0.09580 0.04900
C 	C 	0.39620 0.90580 0.09300 -0.01700
H 	H 	0.37280 0.04780 0.07030 0.04700
C 	C 	0.32020 0.01390 0.05700 -0.05200
H 	H 	0.37980 0.84830 0.08890 0.04100
H 	H 	0.28680 0.97330 0.04030 0.03200
H 	H 	0.11300 0.91040 0.87400 0.05900
H 	H 	0.11620 0.95320 0.88170 0.05000
C 	C 	0.12160 0.96340 0.86270 0.10900
C 	C 	0.37630 0.08440 0.88880 -0.03600
H 	H 	0.32690 0.07340 0.87560 0.05100
C 	C 	0.29250 0.90570 0.85249 -0.03100
H 	H 	0.27280 0.95180 0.85000 0.05200
H 	H 	0.41600 0.08540 0.90370 0.03500
H 	H 	0.32340 0.86730 0.85830 0.04200
C 	C 	0.53250 0.14280 0.08958 -0.12200
C 	C 	0.60570 0.19790 0.08147 -0.14600
H 	H 	0.39630 0.89920 0.10170 0.03100
H 	H 	0.30210 0.02800 0.05860 0.04400
C 	C 	0.07570 0.95270 0.85880 -0.16000
C 	C 	0.15380 0.98520 0.85420 -0.13300
H 	H 	0.39400 0.11660 0.88720 0.04000
H 	H 	0.28790 0.89600 0.84390 0.04300
H 	H 	0.50480 0.11400 0.08900 0.08700
C 	C 	0.53790 0.17140 0.09991 0.07100
C 	C 	0.61020 0.22480 0.09162 0.09800
H 	H 	0.62930 0.20830 0.07520 0.08300
H 	H 	0.04930 0.93580 0.86400 0.08200
C 	C 	0.07300 0.96900 0.84672 0.11200
C 	C 	0.14890 0.00730 0.84221 0.06500
H 	H 	0.18290 0.98740 0.85560 0.09100
H 	H 	0.51510 0.16180 0.10630 0.02600
C 	C 	0.57870 0.21530 0.10041 -0.16000
H 	H 	0.63860 0.25290 0.09250 0.01100
H 	H 	0.04260 0.95980 0.84400 0.01300
C 	C 	0.10450 0.99420 0.83883 -0.18100
H 	H 	0.17470 0.02870 0.83740 0.02500
C 	C 	0.58380 0.24730 0.11080 0.42400
C 	C 	0.09700 0.01540 0.82810 0.43500
O 	O 	0.05690 0.99340 0.82421 -0.34000
Zn	Zn	0.04444 0.11231 0.29371 1.22700
O 	O 	0.00717 0.05553 0.30236 -0.67700
O 	O 	0.07387 0.15903 0.30699 -0.47000
O 	O 	0.00797 0.12973 0.28419 -0.48900
O 	O 	0.09127 0.11733 0.28328 -0.51600
Zn	Zn	0.96407 0.07243 0.30993 1.23100
C 	C 	0.04767 0.15563 0.31604 0.37600
C 	C 	0.96587 0.11903 0.28766 0.33800
O 	O 	0.00657 0.12913 0.31867 -0.49200
O 	O 	0.94087 0.09303 0.29651 -0.48600
O 	O 	0.91467 0.04223 0.32185 -0.50300
O 	O 	0.95807 0.01263 0.27944 -0.49100
C 	C 	0.07527 0.19273 0.32626 -0.10700
C 	C 	0.94327 0.13803 0.27871 -0.09200
C 	C 	0.05357 0.19513 0.33777 0.05000
C 	C 	0.11997 0.22483 0.32511 0.05500
C 	C 	0.96607 0.16633 0.26764 0.03100
C 	C 	0.90217 0.13453 0.28206 0.03100
C 	C 	0.07727 0.22753 0.34616 -0.12800
H 	H 	0.02217 0.17333 0.33933 0.02600
H 	H 	0.13557 0.22413 0.31763 0.03300
C 	C 	0.14527 0.25893 0.33393 -0.13600
C 	C 	0.94537 0.18513 0.26016 -0.12000
H 	H 	0.99607 0.17213 0.26543 0.03000
H 	H 	0.88787 0.12053 0.28983 0.03600
C 	C 	0.88047 0.15213 0.27370 -0.12100
C 	C 	0.12437 0.26013 0.34516 0.09000
H 	H 	0.06127 0.22903 0.35343 0.08400
H 	H 	0.17657 0.28123 0.33233 0.07400
C 	C 	0.90227 0.17683 0.26311 0.08800
H 	H 	0.96117 0.20363 0.25303 0.08100
H 	H 	0.85037 0.14643 0.27563 0.06800
C 	C 	0.15187 0.29363 0.35515 -0.04500
C 	C 	0.87567 0.19213 0.25497 -0.03700
H 	H 	0.16467 0.32543 0.35193 0.04700
H 	H 	0.17797 0.28923 0.35763 0.05400
O 	O 	0.12407 0.28723 0.36559 -0.19700
H 	H 	0.86427 0.20903 0.26013 0.04200
H 	H 	0.84877 0.16503 0.25113 0.05200
O 	O 	0.90527 0.22083 0.24546 -0.21400
C 	C 	0.13927 0.32363 0.37412 0.10300
C 	C 	0.88887 0.24103 0.23785 0.14200
C 	C 	0.18567 0.35783 0.37440 -0.07200
C 	C 	0.11037 0.31513 0.38511 0.00300
C 	C 	0.84387 0.23013 0.23775 -0.11600
C 	C 	0.91787 0.26453 0.22698 -0.02400
H 	H 	0.20727 0.35683 0.36873 0.06400
C 	C 	0.19977 0.39363 0.38317 -0.08800
C 	C 	0.12537 0.35023 0.39342 -0.03200
C 	C 	0.06357 0.27713 0.38753 -0.07500
C 	C 	0.82967 0.25173 0.22833 -0.04700
H 	H 	0.82257 0.20903 0.24373 0.07600
C 	C 	0.90517 0.28593 0.21812 -0.00200
C 	C 	0.96647 0.27673 0.22518 -0.05800
H 	H 	0.22867 0.42123 0.38223 0.06600
C 	C 	0.16957 0.38773 0.39364 0.14100
C 	C 	0.08727 0.34193 0.40307 -0.06100
H 	H 	0.05357 0.25153 0.38123 0.05900
C 	C 	0.06187 0.26233 0.39983 0.03400
C 	C 	0.03557 0.29983 0.38683 0.01400
C 	C 	0.86237 0.27883 0.21793 0.08900
H 	H 	0.79997 0.24873 0.22873 0.05100
C 	C 	0.93807 0.31593 0.20896 -0.08500
H 	H 	0.97697 0.26203 0.23163 0.06000
C 	C 	0.99487 0.32543 0.22478 0.01600
C 	C 	0.96497 0.25843 0.21142 0.02300
O 	O 	0.18077 0.41993 0.40239 -0.22600
H 	H 	0.09697 0.36713 0.40953 0.05600
C 	C 	0.07527 0.29513 0.40883 0.01100
C 	C 	0.04677 0.33353 0.39573 0.04100
C 	C 	0.04757 0.21793 0.40393 -0.07500
C 	C 	0.99757 0.28753 0.37883 -0.05500
O 	O 	0.84237 0.29593 0.20915 -0.18900
H 	H 	0.92667 0.33213 0.20333 0.06400
C 	C 	0.98047 0.34703 0.21607 0.05700
C 	C 	0.94837 0.28103 0.20195 0.02800
C 	C 	0.03457 0.35343 0.23196 -0.06100
C 	C 	0.97957 0.22853 0.20769 -0.07100
C 	C 	0.22217 0.45333 0.40328 0.01500
C 	C 	0.07527 0.28263 0.42283 -0.07700
C 	C 	0.02747 0.35703 0.39750 -0.08700
C 	C 	0.05267 0.21103 0.41933 -0.05400
H 	H 	0.03537 0.19263 0.39823 0.05200
C 	C 	0.97627 0.31153 0.37973 -0.03400
H 	H 	0.98767 0.26283 0.37293 0.05000
C 	C 	0.79547 0.27783 0.20776 -0.06500
C 	C 	0.00357 0.39193 0.21473 -0.11500
C 	C 	0.94797 0.27013 0.18955 -0.07700
H 	H 	0.04567 0.33883 0.23753 0.05900
C 	C 	0.05807 0.40003 0.23143 -0.04600
H 	H 	0.98997 0.21453 0.21363 0.06100
C 	C 	0.97837 0.21943 0.19469 -0.03100
H 	H 	0.24267 0.44023 0.40443 0.03900
H 	H 	0.23057 0.47013 0.39513 0.03700
C 	C 	0.23197 0.48763 0.41364 0.08300
H 	H 	0.08417 0.30583 0.42913 0.05000
C 	C 	0.06287 0.23913 0.42633 -0.00400
H 	H 	0.03947 0.38113 0.40363 0.05700
C 	C 	0.98687 0.34723 0.39033 -0.02100
H 	H 	0.04647 0.18163 0.42223 0.04300
H 	H 	0.95347 0.30663 0.37363 0.04100
H 	H 	0.77967 0.24373 0.20733 0.06200
H 	H 	0.78287 0.28653 0.21503 0.05200
C 	C 	0.78827 0.29673 0.19603 0.12400
C 	C 	0.04297 0.41773 0.22213 0.00000
H 	H 	0.99357 0.40673 0.20893 0.07200
C 	C 	0.95917 0.23903 0.18582 -0.02500
H 	H 	0.93947 0.28513 0.18333 0.05400
H 	H 	0.08267 0.41873 0.23703 0.04600
H 	H 	0.99007 0.20063 0.19163 0.04400
C 	C 	0.19917 0.47613 0.42291 -0.12200
C 	C 	0.27237 0.53123 0.41480 -0.14600
H 	H 	0.06297 0.23253 0.43503 0.02500
H 	H 	0.96877 0.36133 0.39193 0.03600
C 	C 	0.74237 0.28603 0.19213 -0.17800
C 	C 	0.82047 0.31853 0.18753 -0.15500
H 	H 	0.06067 0.44993 0.22053 0.02800
H 	H 	0.95457 0.22933 0.17723 0.04100
H 	H 	0.17147 0.44733 0.42233 0.08700
C 	C 	0.20457 0.50473 0.43324 0.07100
C 	C 	0.27687 0.55813 0.42495 0.09900
H 	H 	0.29597 0.54163 0.40853 0.08300
H 	H 	0.71597 0.26913 0.19733 0.08800
C 	C 	0.73967 0.30233 0.18005 0.13600
C 	C 	0.81557 0.34063 0.17554 0.09500
H 	H 	0.84957 0.32073 0.18893 0.09700
H 	H 	0.18177 0.49513 0.43963 0.02600
C 	C 	0.24537 0.54863 0.43374 -0.16000
H 	H 	0.30527 0.58623 0.42583 0.01100
H 	H 	0.70927 0.29313 0.17733 0.00500
C 	C 	0.77117 0.32753 0.17216 -0.21400
H 	H 	0.84137 0.36203 0.17073 0.01600
C 	C 	0.25047 0.58063 0.44413 0.42400
C 	C 	0.76367 0.34873 0.16143 0.45900
O 	O 	0.72357 0.32673 0.15754 -0.34900
Zn	Zn	0.71110 0.44565 0.62705 1.22700
O 	O 	0.67383 0.38887 0.63570 -0.67400
O 	O 	0.74053 0.49237 0.64033 -0.47000
O 	O 	0.67463 0.46307 0.61753 -0.48400
O 	O 	0.75793 0.45067 0.61662 -0.51500
Zn	Zn	0.63073 0.40577 0.64327 1.23000
C 	C 	0.71433 0.48897 0.64938 0.37500
C 	C 	0.63253 0.45237 0.62100 0.33200
O 	O 	0.67323 0.46247 0.65201 -0.49000
O 	O 	0.60753 0.42637 0.62985 -0.48500
O 	O 	0.58133 0.37557 0.65519 -0.50900
O 	O 	0.62473 0.34597 0.61278 -0.49300
C 	C 	0.74193 0.52607 0.65960 -0.10600
C 	C 	0.60993 0.47137 0.61205 -0.09100
C 	C 	0.72023 0.52847 0.67111 0.05000
C 	C 	0.78663 0.55817 0.65845 0.05500
C 	C 	0.63273 0.49967 0.60098 0.02900
C 	C 	0.56883 0.46787 0.61540 0.03000
C 	C 	0.74393 0.56087 0.67950 -0.12800
H 	H 	0.68883 0.50667 0.67267 0.02700
H 	H 	0.80223 0.55747 0.65097 0.03300
C 	C 	0.81193 0.59227 0.66727 -0.13600
C 	C 	0.61203 0.51847 0.59350 -0.11900
H 	H 	0.66273 0.50547 0.59877 0.02900
H 	H 	0.55453 0.45387 0.62317 0.03600
C 	C 	0.54713 0.48547 0.60704 -0.12000
C 	C 	0.79103 0.59347 0.67850 0.09000
H 	H 	0.72793 0.56237 0.68677 0.08400
H 	H 	0.84323 0.61457 0.66567 0.07400
C 	C 	0.56893 0.51017 0.59645 0.08700
H 	H 	0.62783 0.53697 0.58637 0.08000
H 	H 	0.51703 0.47977 0.60897 0.06800
C 	C 	0.81853 0.62697 0.68849 -0.04500
C 	C 	0.54233 0.52547 0.58831 -0.03600
H 	H 	0.83133 0.65877 0.68527 0.04700
H 	H 	0.84463 0.62257 0.69097 0.05400
O 	O 	0.79073 0.62057 0.69893 -0.19700
H 	H 	0.53093 0.54237 0.59347 0.04200
H 	H 	0.51543 0.49837 0.58447 0.05200
O 	O 	0.57193 0.55417 0.57880 -0.21400
C 	C 	0.80593 0.65697 0.70746 0.10100
C 	C 	0.55553 0.57437 0.57119 0.14100
C 	C 	0.85233 0.69117 0.70774 -0.07000
C 	C 	0.77703 0.64847 0.71845 0.00800
C 	C 	0.51053 0.56347 0.57109 -0.11500
C 	C 	0.58453 0.59787 0.56032 -0.02200
H 	H 	0.87393 0.69017 0.70207 0.06300
C 	C 	0.86643 0.72697 0.71651 -0.09000
C 	C 	0.79203 0.68357 0.72676 -0.03600
C 	C 	0.73023 0.61047 0.72087 -0.08600
C 	C 	0.49633 0.58507 0.56167 -0.04800
H 	H 	0.48923 0.54237 0.57707 0.07600
C 	C 	0.57183 0.61927 0.55146 -0.00600
C 	C 	0.63313 0.61007 0.55852 -0.06000
H 	H 	0.89533 0.75457 0.71557 0.06700
C 	C 	0.83623 0.72107 0.72698 0.14300
C 	C 	0.75393 0.67527 0.73641 -0.05200
H 	H 	0.72023 0.58487 0.71457 0.06300
C 	C 	0.72853 0.59567 0.73317 0.04200
C 	C 	0.70223 0.63317 0.72017 0.03100
C 	C 	0.52903 0.61217 0.55127 0.09100
H 	H 	0.46663 0.58207 0.56207 0.05100
C 	C 	0.60473 0.64927 0.54230 -0.07700
H 	H 	0.64363 0.59537 0.56497 0.05900
C 	C 	0.66153 0.65877 0.55812 0.01800
C 	C 	0.63163 0.59177 0.54476 0.02400
O 	O 	0.84743 0.75327 0.73573 -0.22700
H 	H 	0.76363 0.70047 0.74287 0.05300
C 	C 	0.74193 0.62847 0.74217 0.00500
C 	C 	0.71343 0.66687 0.72907 0.02600
C 	C 	0.71423 0.55127 0.73727 -0.08100
C 	C 	0.66423 0.62087 0.71217 -0.07400
O 	O 	0.50903 0.62927 0.54249 -0.18900
H 	H 	0.59333 0.66547 0.53667 0.06200
C 	C 	0.64713 0.68037 0.54941 0.04000
C 	C 	0.61503 0.61437 0.53529 0.02500
C 	C 	0.70123 0.68677 0.56530 -0.06200
C 	C 	0.64623 0.56187 0.54103 -0.07200
C 	C 	0.88883 0.78667 0.73662 0.01500
C 	C 	0.74193 0.61597 0.75617 -0.06900
C 	C 	0.69413 0.69037 0.73084 -0.06800
C 	C 	0.71933 0.54437 0.75267 -0.04400
H 	H 	0.70203 0.52597 0.73157 0.05500
C 	C 	0.64293 0.64487 0.71307 -0.02100
H 	H 	0.65433 0.59617 0.70627 0.05500
C 	C 	0.46213 0.61117 0.54110 -0.06500
C 	C 	0.67023 0.72527 0.54807 -0.08700
C 	C 	0.61463 0.60347 0.52289 -0.07500
H 	H 	0.71233 0.67217 0.57087 0.06100
C 	C 	0.72473 0.73337 0.56477 -0.03600
H 	H 	0.65663 0.54787 0.54697 0.06000
C 	C 	0.64503 0.55277 0.52803 -0.03000
H 	H 	0.90933 0.77357 0.73777 0.03900
H 	H 	0.89723 0.80347 0.72847 0.03700
C 	C 	0.89863 0.82097 0.74698 0.08300
H 	H 	0.75083 0.63917 0.76247 0.04800
C 	C 	0.72953 0.57247 0.75967 -0.01500
H 	H 	0.70613 0.71447 0.73697 0.05200
C 	C 	0.65353 0.68057 0.72367 -0.03700
H 	H 	0.71313 0.51497 0.75557 0.04200
H 	H 	0.62013 0.63997 0.70697 0.03600
H 	H 	0.44633 0.57707 0.54067 0.06200
H 	H 	0.44953 0.61987 0.54837 0.05200
C 	C 	0.45493 0.63007 0.52937 0.12300
C 	C 	0.70963 0.75107 0.55547 -0.01500
H 	H 	0.66023 0.74007 0.54227 0.06000
C 	C 	0.62583 0.57237 0.51916 -0.02700
H 	H 	0.60613 0.61847 0.51667 0.05300
H 	H 	0.74933 0.75207 0.57037 0.04300
H 	H 	0.65673 0.53397 0.52497 0.04300
C 	C 	0.86583 0.80947 0.75625 -0.12100
C 	C 	0.93903 0.86457 0.74814 -0.14500
H 	H 	0.72963 0.56587 0.76837 0.03000
H 	H 	0.63543 0.69467 0.72527 0.04000
C 	C 	0.40903 0.61937 0.52547 -0.17800
C 	C 	0.48713 0.65187 0.52087 -0.15500
H 	H 	0.72733 0.78327 0.55387 0.03400
H 	H 	0.62123 0.56267 0.51057 0.04100
H 	H 	0.83813 0.78067 0.75567 0.08700
C 	C 	0.87123 0.83807 0.76658 0.07000
C 	C 	0.94353 0.89147 0.75829 0.09800
H 	H 	0.96263 0.87497 0.74187 0.08400
H 	H 	0.38263 0.60247 0.53067 0.08800
C 	C 	0.40633 0.63567 0.51339 0.13600
C 	C 	0.48223 0.67397 0.50888 0.09500
H 	H 	0.51623 0.65407 0.52227 0.09700
H 	H 	0.84843 0.82847 0.77297 0.02700
C 	C 	0.91203 0.88197 0.76708 -0.15900
H 	H 	0.97193 0.91957 0.75917 0.01300
H 	H 	0.37593 0.62647 0.51067 0.00500
C 	C 	0.43783 0.66087 0.50550 -0.21300
H 	H 	0.50803 0.69537 0.50407 0.01600
C 	C 	0.91713 0.91397 0.77747 0.42400
C 	C 	0.43033 0.68207 0.49477 0.45900
O 	O 	0.39023 0.66007 0.49088 -0.34900
Zn	Zn	0.33333 0.66667 0.45781 1.23600
Zn	Zn	-0.00000 0.00000 0.79114 1.23300
Zn	Zn	0.66667 0.33333 0.12448 1.23600
Zn	Zn	0.33333 0.66667 0.95781 1.23600
Zn	Zn	-0.00000 0.00000 0.29114 1.23300
Zn	Zn	0.66667 0.33333 0.62448 1.23600
