data_crystal

_cell_length_a 14.31900
_cell_length_b 14.49000
_cell_length_c 22.59800
_cell_angle_alpha 90.00000
_cell_angle_beta  98.21000
_cell_angle_gamma 90.00000

_symmetry_space_group_name_	'P 1'
_symmetry_space_group_name_H-M	'P 1'

loop_
_symmetry_equiv_pos_as_xyz
  x,y,z

loop_
_atom_site_label
_atom_site_type_symbol
_atom_site_fract_x
_atom_site_fract_y
_atom_site_fract_z
_atom_site_charge
Cd	Cd	0.17877 0.13256 0.86001 1.15900
Cd	Cd	0.17877 0.36744 0.36001 1.15900
Cd	Cd	0.74414 0.75077 0.75883 1.23400
Cd	Cd	0.25586 0.24923 0.24117 1.23400
Cd	Cd	0.74414 0.74923 0.25883 1.23500
Cd	Cd	0.82123 0.63256 0.63999 1.16000
Cd	Cd	0.82123 0.86744 0.13999 1.16000
Cd	Cd	0.25586 0.25077 0.74117 1.23500
H 	H 	0.07460 0.08330 0.59580 0.06500
H 	H 	0.40180 0.42610 0.40860 0.02600
H 	H 	0.98480 0.52410 0.24010 0.02800
H 	H 	0.01520 0.02410 0.25990 0.02700
H 	H 	0.59820 0.57390 0.59140 0.02600
H 	H 	0.98480 0.97590 0.74010 0.02700
H 	H 	0.38990 0.38590 0.58330 0.06600
H 	H 	0.50120 0.49340 0.74160 0.06000
H 	H 	0.92540 0.91670 0.40420 0.06500
H 	H 	0.01520 0.47590 0.75990 0.02800
H 	H 	0.40180 0.07390 0.90860 0.02600
H 	H 	0.88910 0.62450 0.07800 0.04500
H 	H 	0.49880 0.50660 0.25840 0.06000
H 	H 	0.88910 0.87550 0.57800 0.04500
H 	H 	0.59820 0.92610 0.09140 0.02600
H 	H 	0.07460 0.41670 0.09580 0.06500
H 	H 	0.50120 0.00660 0.24160 0.05900
H 	H 	0.38990 0.11410 0.08330 0.06600
H 	H 	0.61010 0.61410 0.41670 0.06600
H 	H 	0.92540 0.58330 0.90420 0.06500
H 	H 	0.11090 0.12450 0.42200 0.04500
H 	H 	0.11090 0.37550 0.92200 0.04500
H 	H 	0.61010 0.88590 0.91670 0.06600
H 	H 	0.49880 0.99340 0.75840 0.05900
C 	C 	0.43250 0.42520 0.60570 -0.07500
C 	C 	0.55940 0.95590 0.17170 -0.08200
C 	C 	0.44060 0.45590 0.32830 -0.08200
C 	C 	0.01500 0.02370 0.30102 0.03200
C 	C 	0.96150 0.95970 0.38697 -0.04300
C 	C 	0.10540 0.39680 0.21310 0.39600
C 	C 	0.92730 0.58350 0.10200 -0.05200
C 	C 	0.92730 0.91650 0.60200 -0.05200
C 	C 	0.07270 0.41650 0.89800 -0.05200
C 	C 	0.01830 0.47820 0.92350 0.06500
C 	C 	0.95840 0.96140 0.32578 -0.10300
C 	C 	0.13440 0.34840 0.81030 0.34800
C 	C 	0.43590 0.43000 0.66730 -0.05000
C 	C 	0.96150 0.54030 0.88697 -0.04200
C 	C 	0.98170 0.97820 0.57650 0.06600
C 	C 	0.55940 0.54410 0.67170 -0.08200
C 	C 	0.44280 0.03860 0.88950 -0.06000
C 	C 	0.63030 0.63000 0.30300 0.31200
C 	C 	0.63030 0.87000 0.80300 0.31200
C 	C 	0.10540 0.10320 0.71310 0.39700
C 	C 	0.98500 0.52370 0.19898 0.03100
C 	C 	0.03850 0.04030 0.61303 -0.04300
C 	C 	0.62540 0.88930 0.20820 0.32900
C 	C 	0.49290 0.02060 0.07770 0.07300
C 	C 	0.92860 0.91460 0.66320 -0.09700
C 	C 	0.86560 0.65160 0.18970 0.34800
C 	C 	0.43590 0.07000 0.16730 -0.05000
C 	C 	0.36970 0.37000 0.69700 0.31200
C 	C 	0.55720 0.96140 0.11050 -0.06000
C 	C 	0.37460 0.11070 0.79180 0.32900
C 	C 	0.55720 0.53860 0.61050 -0.05900
C 	C 	0.49910 0.48970 0.70030 -0.00400
C 	C 	0.56410 0.93000 0.83270 -0.05000
C 	C 	0.50710 0.52060 0.42230 0.07200
C 	C 	0.86560 0.84840 0.68970 0.34800
C 	C 	0.04160 0.46140 0.17422 -0.10200
C 	C 	0.98170 0.52180 0.07650 0.06500
C 	C 	0.37460 0.38930 0.29180 0.32900
C 	C 	0.07140 0.08540 0.33680 -0.09700
C 	C 	0.49910 0.01030 0.20030 -0.00400
C 	C 	0.01830 0.02180 0.42350 0.06600
C 	C 	0.92860 0.58540 0.16320 -0.09700
C 	C 	0.43250 0.07480 0.10570 -0.07500
C 	C 	0.44060 0.04410 0.82830 -0.08200
C 	C 	0.13440 0.15160 0.31030 0.34800
C 	C 	0.56750 0.57480 0.39430 -0.07500
C 	C 	0.89460 0.60320 0.78690 0.39600
C 	C 	0.49290 0.47940 0.57770 0.07200
C 	C 	0.62540 0.61070 0.70820 0.32900
C 	C 	0.50710 0.97940 0.92230 0.07300
C 	C 	0.01500 0.47630 0.80102 0.03100
C 	C 	0.03850 0.45970 0.11303 -0.04200
C 	C 	0.36970 0.13000 0.19700 0.31200
C 	C 	0.07270 0.08350 0.39800 -0.05200
C 	C 	0.07140 0.41460 0.83680 -0.09700
C 	C 	0.56410 0.57000 0.33270 -0.05000
C 	C 	0.89460 0.89680 0.28690 0.39700
C 	C 	0.50090 0.51030 0.29970 -0.00400
C 	C 	0.56750 0.92520 0.89430 -0.07500
C 	C 	0.44280 0.46140 0.38950 -0.05900
C 	C 	0.04160 0.03860 0.67422 -0.10300
C 	C 	0.95840 0.53860 0.82578 -0.10200
C 	C 	0.50090 0.98970 0.79970 -0.00400
C 	C 	0.98500 0.97630 0.69898 0.03200
N 	N 	0.51460 0.53290 0.48556 -0.09900
N 	N 	0.48540 0.46710 0.51444 -0.09900
N 	N 	0.97150 0.52310 0.01223 -0.09000
N 	N 	0.02850 0.47690 0.98777 -0.09000
N 	N 	0.97150 0.97690 0.51223 -0.09000
N 	N 	0.48540 0.03290 0.01444 -0.09900
N 	N 	0.51460 0.96710 0.98556 -0.09900
N 	N 	0.02850 0.02310 0.48777 -0.09000
O 	O 	0.62180 0.63220 0.24774 -0.35800
O 	O 	0.84750 0.65800 0.81254 -0.44100
O 	O 	0.37820 0.13220 0.25226 -0.35800
O 	O 	0.68830 0.67750 0.33556 -0.39200
O 	O 	0.62000 0.87540 0.26130 -0.34700
O 	O 	0.89730 0.90120 0.23204 -0.50100
O 	O 	0.38000 0.37540 0.23870 -0.34700
O 	O 	0.31550 0.34480 0.31865 -0.53900
O 	O 	0.68830 0.82250 0.83556 -0.39100
O 	O 	0.31170 0.17750 0.16444 -0.39100
O 	O 	0.84750 0.84200 0.31254 -0.44100
O 	O 	0.15250 0.34200 0.18746 -0.44100
O 	O 	0.68450 0.65520 0.68135 -0.53900
O 	O 	0.10270 0.09880 0.76796 -0.50100
O 	O 	0.68450 0.84480 0.18135 -0.53900
O 	O 	0.85750 0.64370 0.24400 -0.41000
O 	O 	0.38000 0.12460 0.73870 -0.34700
O 	O 	0.82230 0.78840 0.65596 -0.49700
O 	O 	0.15250 0.15800 0.68746 -0.44100
O 	O 	0.31550 0.15520 0.81865 -0.53900
O 	O 	0.82230 0.71160 0.15596 -0.49700
O 	O 	0.17770 0.21160 0.34404 -0.49700
O 	O 	0.37820 0.36780 0.75226 -0.35800
O 	O 	0.62000 0.62460 0.76130 -0.34700
O 	O 	0.62180 0.86780 0.74774 -0.35800
O 	O 	0.14250 0.35630 0.75600 -0.41000
O 	O 	0.14250 0.14370 0.25600 -0.41000
O 	O 	0.89730 0.59880 0.73204 -0.50100
O 	O 	0.85750 0.85630 0.74400 -0.41000
O 	O 	0.31170 0.32250 0.66444 -0.39200
O 	O 	0.10270 0.40120 0.26796 -0.50100
O 	O 	0.17770 0.28840 0.84404 -0.49700
