data_crystal

_cell_length_a 34.00110
_cell_length_b 34.00110
_cell_length_c 54.95950
_cell_angle_alpha 71.98120
_cell_angle_beta  71.98120
_cell_angle_gamma 60.00000

_symmetry_space_group_name_	'P 1'
_symmetry_space_group_name_H-M	'P 1'

loop_
_symmetry_equiv_pos_as_xyz
  x,y,z

loop_
_atom_site_label
_atom_site_type_symbol
_atom_site_fract_x
_atom_site_fract_y
_atom_site_fract_z
_atom_site_charge
Zn	Zn	0.78871 0.89602 0.47180 1.22900
Zn	Zn	0.38348 0.38348 0.84956 1.17700
Zn	Zn	0.60398 0.71129 0.02820 1.22900
Zn	Zn	0.01798 0.16393 0.50615 1.24300
Zn	Zn	0.57582 0.07751 0.71680 1.21800
Zn	Zn	0.88348 0.88348 0.34956 1.17700
Zn	Zn	0.68806 0.98202 0.49385 1.24300
Zn	Zn	0.92418 0.87013 0.78320 1.21800
Zn	Zn	0.28871 0.34347 0.97180 1.22900
Zn	Zn	0.21129 0.10398 0.52820 1.22900
Zn	Zn	0.42418 0.92249 0.28320 1.21800
Zn	Zn	0.81194 0.66393 0.00615 1.24300
Zn	Zn	0.14033 0.14033 0.57901 1.23800
Zn	Zn	0.42249 0.92418 0.78320 1.21800
Zn	Zn	0.61652 0.61652 0.15044 1.17700
Zn	Zn	0.71129 0.65653 0.02820 1.22900
Zn	Zn	0.39602 0.28871 0.97180 1.22900
Zn	Zn	0.62987 0.57582 0.71680 1.21800
Zn	Zn	0.89602 0.84347 0.47180 1.22900
Zn	Zn	0.87013 0.42249 0.78320 1.21800
Zn	Zn	0.48202 0.18806 0.99385 1.24200
Zn	Zn	0.85967 0.85967 0.42099 1.23700
Zn	Zn	0.37013 0.42418 0.28320 1.21700
Zn	Zn	0.66393 0.51798 0.00615 1.24200
Zn	Zn	0.12987 0.57751 0.21680 1.21700
Zn	Zn	0.65653 0.60398 0.02820 1.22800
Zn	Zn	0.07751 0.62987 0.71680 1.21700
Zn	Zn	0.34347 0.39602 0.97180 1.22800
Zn	Zn	0.64033 0.64033 0.07901 1.23700
Zn	Zn	0.31194 0.01798 0.50615 1.24200
Zn	Zn	0.51798 0.81194 0.00615 1.24200
Zn	Zn	0.18806 0.33607 0.99385 1.24200
Zn	Zn	0.11652 0.11652 0.65044 1.17600
Zn	Zn	0.10398 0.15653 0.52820 1.22800
Zn	Zn	0.84347 0.78871 0.47180 1.22800
Zn	Zn	0.33607 0.48202 0.99385 1.24200
Zn	Zn	0.35967 0.35967 0.92099 1.23700
Zn	Zn	0.16393 0.31194 0.50615 1.24200
Zn	Zn	0.15653 0.21129 0.52820 1.22800
Zn	Zn	0.98202 0.83607 0.49385 1.24200
Zn	Zn	0.57751 0.07582 0.21680 1.21700
Zn	Zn	0.07582 0.12987 0.21680 1.21700
Zn	Zn	0.92249 0.37013 0.28320 1.21700
Zn	Zn	0.83607 0.68806 0.49385 1.24200
P 	P 	0.28980 0.23960 0.14190 0.35200
P 	P 	0.85556 0.34846 0.62402 0.38300
P 	P 	0.21020 0.17130 0.35810 0.35200
P 	P 	0.84791 0.13761 0.42227 0.39300
P 	P 	0.15154 0.64444 0.87598 0.38300
P 	P 	0.15209 0.86239 0.57773 0.39300
P 	P 	0.60291 0.41571 0.88297 0.39700
P 	P 	0.90159 0.39709 0.11703 0.39700
P 	P 	0.40779 0.15209 0.57773 0.39300
P 	P 	0.10291 0.59841 0.38297 0.39700
P 	P 	0.71020 0.76040 0.85810 0.35200
P 	P 	0.78980 0.82870 0.64190 0.35200
P 	P 	0.17130 0.26040 0.35810 0.35200
P 	P 	0.09221 0.63761 0.92227 0.39300
P 	P 	0.32870 0.28980 0.14190 0.35200
P 	P 	0.23960 0.32870 0.14190 0.35200
P 	P 	0.90779 0.36239 0.07773 0.39300
P 	P 	0.82870 0.73960 0.64190 0.35200
P 	P 	0.32804 0.15154 0.87598 0.38300
P 	P 	0.36239 0.65209 0.07773 0.39300
P 	P 	0.67130 0.71020 0.85810 0.35200
P 	P 	0.89709 0.40159 0.61703 0.39700
P 	P 	0.73960 0.78980 0.64190 0.35200
P 	P 	0.76040 0.67130 0.85810 0.35200
P 	P 	0.35556 0.67196 0.12402 0.38300
P 	P 	0.41571 0.09841 0.88297 0.39700
P 	P 	0.64444 0.32804 0.87598 0.38300
P 	P 	0.13761 0.59221 0.42227 0.39300
P 	P 	0.82804 0.14444 0.37598 0.38300
P 	P 	0.17196 0.85556 0.62402 0.38300
P 	P 	0.34791 0.09221 0.92227 0.39300
P 	P 	0.67196 0.84846 0.12402 0.38300
P 	P 	0.84846 0.35556 0.12402 0.38300
P 	P 	0.59221 0.84791 0.42227 0.39300
P 	P 	0.26040 0.21020 0.35810 0.35200
P 	P 	0.86239 0.40779 0.57773 0.39300
P 	P 	0.59841 0.91571 0.38297 0.39700
P 	P 	0.09841 0.60291 0.88297 0.39700
P 	P 	0.08429 0.89709 0.61703 0.39700
P 	P 	0.65209 0.90779 0.07773 0.39300
P 	P 	0.39709 0.58429 0.11703 0.39700
P 	P 	0.34846 0.17196 0.62402 0.38300
P 	P 	0.63761 0.34791 0.92227 0.39300
P 	P 	0.91571 0.10291 0.38297 0.39700
P 	P 	0.65154 0.82804 0.37598 0.38300
P 	P 	0.58429 0.90159 0.11703 0.39700
P 	P 	0.14444 0.65154 0.37598 0.38300
P 	P 	0.40159 0.08429 0.61703 0.39700
H 	H 	0.08320 0.36970 0.33050 0.15400
H 	H 	0.17060 0.50980 0.47660 0.14500
H 	H 	0.62660 0.94200 0.20310 0.00900
H 	H 	0.15700 0.82940 0.52340 0.14500
H 	H 	0.69490 0.41080 0.90400 0.14000
H 	H 	0.36090 0.77760 0.09570 0.16000
H 	H 	0.73850 0.84380 0.37760 0.15100
H 	H 	0.26530 0.68240 0.11490 0.15000
H 	H 	0.43290 0.14440 0.92110 0.15700
H 	H 	0.21830 0.11430 0.18660 0.00200
H 	H 	0.77760 0.76580 0.09570 0.16000
H 	H 	0.26840 0.14910 0.41570 0.15200
H 	H 	0.28290 0.48350 0.90790 -0.02000
H 	H 	0.41680 0.28340 0.16950 0.15400
H 	H 	0.06220 0.27200 0.39500 0.16000
H 	H 	0.78340 0.91680 0.66950 0.15400
H 	H 	0.82940 0.49020 0.52340 0.14500
H 	H 	0.35560 0.06710 0.57890 0.15700
H 	H 	0.51540 0.67060 0.04050 -0.03900
H 	H 	0.08050 0.30790 0.08010 0.01200
H 	H 	0.78170 0.88570 0.81340 0.00200
H 	H 	0.76020 0.59140 0.79270 -0.00100
H 	H 	0.27080 0.06220 0.39500 0.16000
H 	H 	0.94470 0.95540 0.34700 -0.05300
H 	H 	0.82570 0.98350 0.40790 -0.02000
H 	H 	0.43490 0.69770 0.05370 0.17600
H 	H 	0.41690 0.97660 0.18000 -0.00300
H 	H 	0.19210 0.41950 0.41990 0.01200
H 	H 	0.78230 0.55790 0.07500 -0.02400
H 	H 	0.88570 0.51920 0.81340 0.00200
H 	H 	0.04010 0.73850 0.37760 0.15100
H 	H 	0.05770 0.56730 0.47390 0.17800
H 	H 	0.53300 0.01850 0.86020 0.15900
H 	H 	0.01850 0.58830 0.86020 0.15900
H 	H 	0.10030 0.82810 0.50630 0.02200
H 	H 	0.83600 0.85600 0.54170 -0.00900
H 	H 	0.97820 0.60600 0.48770 -0.04100
H 	H 	0.49020 0.15700 0.52340 0.14500
H 	H 	0.19490 0.49030 0.40400 0.14000
H 	H 	0.71660 0.86970 0.83050 0.15400
H 	H 	0.06510 0.68630 0.44630 0.17600
H 	H 	0.67430 0.71710 0.09210 -0.02000
H 	H 	0.52040 0.45450 0.84280 0.15200
H 	H 	0.47370 0.09860 0.78460 -0.00900
H 	H 	0.73420 0.72240 0.40430 0.16000
H 	H 	0.98350 0.78290 0.40790 -0.02000
H 	H 	0.37340 0.05800 0.79690 0.00900
H 	H 	0.06260 0.73470 0.88510 0.15000
H 	H 	0.76580 0.36090 0.09570 0.16000
H 	H 	0.28340 0.13030 0.16950 0.15400
H 	H 	0.44470 0.25290 0.84700 -0.05300
H 	H 	0.43780 0.22920 0.10500 0.16000
H 	H 	0.09140 0.26020 0.29270 -0.00100
H 	H 	0.14400 0.23370 0.45830 -0.00900
H 	H 	0.64910 0.76840 0.91570 0.15200
H 	H 	0.29820 0.91710 0.56690 -0.02200
H 	H 	0.78220 0.70180 0.43310 -0.02200
H 	H 	0.32810 0.60030 0.00630 0.02200
H 	H 	0.86090 0.26580 0.59570 0.16000
H 	H 	0.23420 0.63910 0.90430 0.16000
H 	H 	0.91710 0.21780 0.56690 -0.02200
H 	H 	0.81760 0.23470 0.38510 0.15000
H 	H 	0.20800 0.25280 0.19140 0.16800
H 	H 	0.08480 0.05790 0.57500 -0.02400
H 	H 	0.80230 0.06510 0.44630 0.17600
H 	H 	0.64400 0.66400 0.95830 -0.00900
H 	H 	0.41080 0.99030 0.90400 0.14000
H 	H 	0.49030 0.91080 0.40400 0.14000
H 	H 	0.95990 0.26150 0.62240 0.15100
H 	H 	0.01920 0.38570 0.31340 0.00200
H 	H 	0.66450 0.87240 0.18780 0.14700
H 	H 	0.93780 0.72800 0.60500 0.16000
H 	H 	0.52630 0.90140 0.21540 -0.00900
H 	H 	0.14910 0.16680 0.41570 0.15200
H 	H 	0.39970 0.93470 0.99370 0.02200
H 	H 	0.87240 0.27530 0.18780 0.14700
H 	H 	0.23370 0.16400 0.45830 -0.00900
H 	H 	0.82810 0.56530 0.50630 0.02200
H 	H 	0.29200 0.15220 0.30860 0.16800
H 	H 	0.35090 0.23160 0.08430 0.15200
H 	H 	0.56260 0.81760 0.38510 0.15000
H 	H 	0.34300 0.00980 0.97660 0.14500
H 	H 	0.23850 0.54010 0.87760 0.15100
H 	H 	0.82940 0.98460 0.45950 -0.03800
H 	H 	0.99030 0.69490 0.90400 0.14100
H 	H 	0.41170 0.46700 0.13980 0.15900
H 	H 	0.27760 0.86090 0.59570 0.16000
H 	H 	0.26150 0.15620 0.62240 0.15100
H 	H 	0.91680 0.63030 0.66950 0.15400
H 	H 	0.56220 0.77080 0.89500 0.16000
H 	H 	0.85090 0.83320 0.58430 0.15200
H 	H 	0.64430 0.90860 0.70730 -0.00100
H 	H 	0.04550 0.97960 0.65720 0.15200
H 	H 	0.64310 0.47370 0.78460 -0.00900
H 	H 	0.80790 0.58050 0.58010 0.01200
H 	H 	0.84300 0.17060 0.47660 0.14500
H 	H 	0.63910 0.22240 0.90430 0.16000
H 	H 	0.45450 0.18230 0.84280 0.15200
H 	H 	0.21780 0.29820 0.56690 -0.02200
H 	H 	0.91950 0.69210 0.91990 0.01200
H 	H 	0.90460 0.34490 0.17490 0.15700
H 	H 	0.15510 0.59540 0.32510 0.15700
H 	H 	0.90110 0.05770 0.47390 0.17800
H 	H 	0.06710 0.99840 0.57890 0.15800
H 	H 	0.65700 0.99020 0.02340 0.14500
H 	H 	0.30790 0.53150 0.08010 0.01200
H 	H 	0.26020 0.35570 0.29270 -0.00100
H 	H 	0.74720 0.65220 0.80860 0.16800
H 	H 	0.76630 0.83600 0.54170 -0.00900
H 	H 	0.22830 0.62660 0.20310 0.00900
H 	H 	0.76840 0.66680 0.91570 0.15200
H 	H 	0.08290 0.78220 0.43310 -0.02200
H 	H 	0.41520 0.21770 0.92500 -0.02400
H 	H 	0.98150 0.41170 0.13980 0.15900
H 	H 	0.54550 0.81770 0.15720 0.15200
H 	H 	0.71770 0.91520 0.42500 -0.02400
H 	H 	0.43270 0.09890 0.52610 0.17900
H 	H 	0.35570 0.09140 0.29270 -0.00100
H 	H 	0.76530 0.43740 0.61490 0.15000
H 	H 	0.93470 0.67190 0.99370 0.02200
H 	H 	0.65250 0.00690 0.12960 0.00900
H 	H 	0.72470 0.33550 0.81220 0.14700
H 	H 	0.05530 0.04460 0.65300 -0.05300
H 	H 	0.05790 0.28230 0.57500 -0.02400
H 	H 	0.23980 0.40860 0.20730 -0.00100
H 	H 	0.90860 0.73980 0.70730 -0.00100
H 	H 	0.49840 0.56710 0.07890 0.15700
H 	H 	0.24710 0.05530 0.65300 -0.05300
H 	H 	0.84490 0.40460 0.67490 0.15700
H 	H 	0.58050 0.03150 0.58010 0.01200
H 	H 	0.64440 0.93290 0.42110 0.15700
H 	H 	0.24460 0.28270 0.43850 0.00100
H 	H 	0.85690 0.40140 0.71540 -0.00900
H 	H 	0.69770 0.81370 0.05370 0.17600
H 	H 	0.97660 0.42650 0.18000 -0.00300
H 	H 	0.24720 0.29200 0.30860 0.16800
H 	H 	0.36970 0.21660 0.33050 0.15400
H 	H 	0.55770 0.40110 0.97390 0.17900
H 	H 	0.73470 0.31760 0.88510 0.15000
H 	H 	0.97960 0.31770 0.65720 0.15200
H 	H 	0.84380 0.04010 0.37760 0.15200
H 	H 	0.46850 0.91950 0.91990 0.01300
H 	H 	0.27530 0.66450 0.18780 0.14700
H 	H 	0.19770 0.93490 0.55370 0.17600
H 	H 	0.54460 0.55530 0.15300 -0.05300
H 	H 	0.57560 0.90460 0.17490 0.15700
H 	H 	0.22470 0.62760 0.31220 0.14700
H 	H 	0.72800 0.72920 0.60500 0.16000
H 	H 	0.71780 0.41710 0.06690 -0.02200
H 	H 	0.57350 0.58310 0.82000 -0.00300
H 	H 	0.78900 0.34750 0.87040 0.00900
H 	H 	0.22240 0.23420 0.90430 0.16000
H 	H 	0.91520 0.94210 0.42500 -0.02400
H 	H 	0.93740 0.26530 0.11490 0.15000
H 	H 	0.35690 0.52630 0.21540 -0.00900
H 	H 	0.00160 0.64440 0.42110 0.15700
H 	H 	0.49310 0.84750 0.37040 0.00900
H 	H 	0.77080 0.77200 0.89500 0.16000
H 	H 	0.71830 0.98080 0.68660 0.00200
H 	H 	0.41950 0.96850 0.41990 0.01200
H 	H 	0.50690 0.15250 0.62960 0.00900
H 	H 	0.35600 0.33600 0.04170 -0.00900
H 	H 	0.12760 0.72470 0.81220 0.14700
H 	H 	0.03150 0.80790 0.58010 0.01200
H 	H 	0.40140 0.02630 0.71540 -0.00900
H 	H 	0.59140 0.85570 0.79270 -0.00100
H 	H 	0.72830 0.44200 0.70310 0.00900
H 	H 	0.58830 0.53300 0.86020 0.15900
H 	H 	0.15220 0.24720 0.30860 0.16800
H 	H 	0.57190 0.89400 0.01230 -0.04100
H 	H 	0.07560 0.84490 0.67490 0.15700
H 	H 	0.28230 0.08480 0.57500 -0.02400
H 	H 	0.89970 0.17190 0.49370 0.02200
H 	H 	0.08920 0.80510 0.59600 0.14000
H 	H 	0.30230 0.18630 0.94630 0.17600
H 	H 	0.38570 0.28170 0.31340 0.00200
H 	H 	0.14440 0.50160 0.92110 0.15700
H 	H 	0.63030 0.78340 0.66950 0.15400
H 	H 	0.08310 0.07350 0.32000 -0.00300
H 	H 	0.50980 0.84300 0.47660 0.14500
H 	H 	0.01540 0.27350 0.54050 -0.03900
H 	H 	0.40110 0.06730 0.97390 0.17900
H 	H 	0.55790 0.58480 0.07500 -0.02400
H 	H 	0.77200 0.56220 0.89500 0.16000
H 	H 	0.75290 0.94470 0.34700 -0.05300
H 	H 	0.98080 0.61430 0.68660 0.00200
H 	H 	0.31770 0.04550 0.65720 0.15200
H 	H 	0.04460 0.24710 0.65300 -0.05300
H 	H 	0.91170 0.48150 0.63980 0.15900
H 	H 	0.76150 0.45990 0.12240 0.15100
H 	H 	0.13910 0.73420 0.40430 0.16000
H 	H 	0.39400 0.07190 0.51230 -0.04100
H 	H 	0.68630 0.80230 0.44630 0.17600
H 	H 	0.21770 0.44210 0.92500 -0.02400
H 	H 	0.48460 0.32940 0.95950 -0.03900
H 	H 	0.52340 0.08310 0.32000 -0.00300
H 	H 	0.65510 0.42440 0.82510 0.15700
H 	H 	0.66400 0.73370 0.95830 -0.00900
H 	H 	0.06730 0.55770 0.97390 0.17900
H 	H 	0.77350 0.51540 0.04050 -0.03900
H 	H 	0.99840 0.35560 0.57890 0.15700
H 	H 	0.15250 0.71100 0.62960 0.00900
H 	H 	0.65220 0.79200 0.80860 0.16800
H 	H 	0.61430 0.71830 0.68660 0.00200
H 	H 	0.11430 0.48080 0.18660 0.00200
H 	H 	0.52180 0.57190 0.01230 -0.04100
H 	H 	0.50160 0.43290 0.92110 0.15700
H 	H 	0.46700 0.98150 0.13980 0.15900
H 	H 	0.20180 0.28220 0.93310 -0.02200
H 	H 	0.40460 0.07560 0.67490 0.15700
H 	H 	0.27200 0.27080 0.39500 0.16000
H 	H 	0.51850 0.03300 0.36020 0.15900
H 	H 	0.79200 0.74720 0.80860 0.16800
H 	H 	0.99310 0.78900 0.87040 0.00900
H 	H 	0.17190 0.43470 0.49370 0.02200
H 	H 	0.15620 0.95990 0.62240 0.15200
H 	H 	0.73980 0.64430 0.70730 -0.00100
H 	H 	0.56510 0.30230 0.94630 0.17600
H 	H 	0.75280 0.70800 0.69140 0.16800
H 	H 	0.69210 0.46850 0.91990 0.01200
H 	H 	0.97370 0.14310 0.28460 -0.00900
H 	H 	0.77170 0.37340 0.79690 0.00900
H 	H 	0.67060 0.34300 0.97660 0.14500
H 	H 	0.87340 0.27170 0.29690 0.00900
H 	H 	0.74460 0.53420 0.93850 0.00100
H 	H 	0.00690 0.21100 0.12960 0.00900
H 	H 	0.12660 0.72830 0.70310 0.00900
H 	H 	0.28220 0.58290 0.93310 -0.02200
H 	H 	0.03420 0.24460 0.43850 0.00000
H 	H 	0.47820 0.42810 0.98770 -0.04100
H 	H 	0.92650 0.47660 0.68000 -0.00300
H 	H 	0.56730 0.90110 0.47390 0.17900
H 	H 	0.14310 0.59860 0.28460 -0.00900
H 	H 	0.08830 0.51850 0.36020 0.15900
H 	H 	0.34490 0.57560 0.17490 0.15700
H 	H 	0.00980 0.67060 0.97660 0.14500
H 	H 	0.25280 0.34780 0.19140 0.16800
H 	H 	0.68240 0.93740 0.11490 0.15000
H 	H 	0.95540 0.75290 0.34700 -0.05300
H 	H 	0.30510 0.58920 0.09600 0.14000
H 	H 	0.47960 0.54550 0.15720 0.15200
H 	H 	0.16680 0.26840 0.41570 0.15200
H 	H 	0.34750 0.99310 0.87040 0.00900
H 	H 	0.78290 0.82570 0.40790 -0.02000
H 	H 	0.41710 0.79820 0.06690 -0.02200
H 	H 	0.09890 0.94230 0.52610 0.17800
H 	H 	0.23470 0.56260 0.38510 0.15000
H 	H 	0.70180 0.08290 0.43310 -0.02200
H 	H 	0.42650 0.41690 0.18000 -0.00300
H 	H 	0.93290 0.00160 0.42110 0.15800
H 	H 	0.01650 0.21710 0.59210 -0.02000
H 	H 	0.02040 0.68230 0.34280 0.15200
H 	H 	0.32940 0.22650 0.95950 -0.03900
H 	H 	0.94230 0.43270 0.52610 0.17800
H 	H 	0.05800 0.77170 0.79690 0.00900
H 	H 	0.53420 0.78270 0.93850 0.00100
H 	H 	0.31760 0.06260 0.88510 0.15000
H 	H 	0.34380 0.23850 0.87760 0.15100
H 	H 	0.72920 0.93780 0.60500 0.16000
H 	H 	0.91080 0.19490 0.40400 0.14000
H 	H 	0.06530 0.32810 0.00630 0.02200
H 	H 	0.44210 0.41520 0.92500 -0.02400
H 	H 	0.95450 0.02040 0.34280 0.15200
H 	H 	0.51920 0.78170 0.81340 0.00200
H 	H 	0.14430 0.23980 0.20730 -0.00100
H 	H 	0.83320 0.73160 0.58430 0.15200
H 	H 	0.16400 0.14400 0.45830 -0.00900
H 	H 	0.62760 0.83550 0.31220 0.14700
H 	H 	0.58480 0.78230 0.07500 -0.02400
H 	H 	0.28270 0.03420 0.43850 0.00100
H 	H 	0.71710 0.51650 0.09210 -0.02000
H 	H 	0.67190 0.39970 0.99370 0.02200
H 	H 	0.73370 0.64400 0.95830 -0.00900
H 	H 	0.45540 0.44470 0.84700 -0.05300
H 	H 	0.21710 0.17430 0.59210 -0.02000
H 	H 	0.03300 0.08830 0.36020 0.15900
H 	H 	0.17060 0.01540 0.54050 -0.03800
H 	H 	0.92440 0.15510 0.32510 0.15700
H 	H 	0.94200 0.22830 0.20310 0.00900
H 	H 	0.33600 0.26630 0.04170 -0.00900
H 	H 	0.89400 0.52180 0.01230 -0.04100
H 	H 	0.48350 0.32570 0.90790 -0.02000
H 	H 	0.42810 0.10600 0.98770 -0.04100
H 	H 	0.18230 0.52040 0.84280 0.15200
H 	H 	0.00970 0.30510 0.09600 0.14100
H 	H 	0.72240 0.13910 0.40430 0.16000
H 	H 	0.40860 0.14430 0.20730 -0.00100
H 	H 	0.18240 0.76530 0.61490 0.15000
H 	H 	0.25290 0.45540 0.84700 -0.05300
H 	H 	0.22650 0.48460 0.95950 -0.03900
H 	H 	0.75540 0.71730 0.56150 0.00100
H 	H 	0.96700 0.91170 0.63980 0.15900
H 	H 	0.65620 0.76150 0.12240 0.15100
H 	H 	0.28900 0.49310 0.37040 0.00900
H 	H 	0.77530 0.37240 0.68780 0.14700
H 	H 	0.71100 0.50690 0.62960 0.00900
H 	H 	0.17430 0.01650 0.59210 -0.02000
H 	H 	0.37240 0.16450 0.68780 0.14700
H 	H 	0.43740 0.18240 0.61490 0.15000
H 	H 	0.99020 0.32940 0.02340 0.14500
H 	H 	0.32570 0.28290 0.90790 -0.02000
H 	H 	0.85600 0.76630 0.54170 -0.00900
H 	H 	0.22920 0.22800 0.10500 0.16000
H 	H 	0.55530 0.74710 0.15300 -0.05300
H 	H 	0.55800 0.87340 0.29690 0.00900
H 	H 	0.42440 0.09540 0.82510 0.15700
H 	H 	0.16450 0.77530 0.68780 0.14700
H 	H 	0.31370 0.19770 0.55370 0.17600
H 	H 	0.79820 0.71780 0.06690 -0.02200
H 	H 	0.86970 0.58320 0.83050 0.15400
H 	H 	0.44200 0.12660 0.70310 0.00900
H 	H 	0.10600 0.47820 0.98770 -0.04100
H 	H 	0.78270 0.74460 0.93850 0.00100
H 	H 	0.81770 0.47960 0.15720 0.15200
H 	H 	0.46580 0.21730 0.06150 0.00100
H 	H 	0.98460 0.72650 0.45950 -0.03900
H 	H 	0.81370 0.43490 0.05370 0.17600
H 	H 	0.56710 0.85560 0.07890 0.15700
H 	H 	0.60030 0.06530 0.00630 0.02200
H 	H 	0.26630 0.35600 0.04170 -0.00900
H 	H 	0.73160 0.85090 0.58430 0.15200
H 	H 	0.74710 0.54460 0.15300 -0.05300
H 	H 	0.44230 0.59890 0.02610 0.17900
H 	H 	0.58290 0.20180 0.93310 -0.02200
H 	H 	0.51650 0.67430 0.09210 -0.02000
H 	H 	0.58310 0.02340 0.82000 -0.00300
H 	H 	0.09860 0.64310 0.78460 -0.00900
H 	H 	0.02180 0.39400 0.51230 -0.04100
H 	H 	0.90140 0.35690 0.21540 -0.00900
H 	H 	0.91690 0.92650 0.68000 -0.00300
H 	H 	0.21660 0.08320 0.33050 0.15400
H 	H 	0.70800 0.84780 0.69140 0.16800
H 	H 	0.58920 0.00970 0.09600 0.14000
H 	H 	0.07190 0.02180 0.51230 -0.04100
H 	H 	0.85570 0.76020 0.79270 -0.00100
H 	H 	0.22800 0.43780 0.10500 0.16000
H 	H 	0.45990 0.65620 0.12240 0.15100
H 	H 	0.68230 0.95450 0.34280 0.15200
H 	H 	0.93270 0.44230 0.02610 0.17900
H 	H 	0.59540 0.92440 0.32510 0.15700
H 	H 	0.25540 0.46580 0.06150 0.00100
H 	H 	0.84780 0.75280 0.69140 0.16800
H 	H 	0.84750 0.28900 0.37040 0.00900
H 	H 	0.85560 0.49840 0.07890 0.15700
H 	H 	0.93490 0.31370 0.55370 0.17600
H 	H 	0.92810 0.97820 0.48770 -0.04100
H 	H 	0.96850 0.19210 0.41990 0.01200
H 	H 	0.59890 0.93270 0.02610 0.17900
H 	H 	0.83550 0.22470 0.31220 0.14700
H 	H 	0.48150 0.96700 0.63980 0.15900
H 	H 	0.50970 0.08920 0.59600 0.14000
H 	H 	0.02340 0.57350 0.82000 -0.00300
H 	H 	0.02630 0.85690 0.71540 -0.00900
H 	H 	0.96580 0.75540 0.56150 0.00000
H 	H 	0.23160 0.33320 0.08430 0.15200
H 	H 	0.71730 0.96580 0.56150 0.00100
H 	H 	0.53150 0.08050 0.08010 0.01300
H 	H 	0.80510 0.50970 0.59600 0.14000
H 	H 	0.94210 0.71770 0.42500 -0.02400
H 	H 	0.13030 0.41680 0.16950 0.15400
H 	H 	0.09540 0.65510 0.82510 0.15700
H 	H 	0.27350 0.17060 0.54050 -0.03900
H 	H 	0.21730 0.25540 0.06150 0.00100
H 	H 	0.72650 0.82940 0.45950 -0.03900
H 	H 	0.27170 0.55800 0.29690 0.00900
H 	H 	0.28170 0.01920 0.31340 0.00200
H 	H 	0.32940 0.65700 0.02340 0.14500
H 	H 	0.60600 0.92810 0.48770 -0.04100
H 	H 	0.26580 0.27760 0.59570 0.16000
H 	H 	0.47660 0.91690 0.68000 -0.00300
H 	H 	0.07350 0.52340 0.32000 -0.00300
H 	H 	0.48080 0.21830 0.18660 0.00200
H 	H 	0.33550 0.12760 0.81220 0.14700
H 	H 	0.59860 0.97370 0.28460 -0.00900
H 	H 	0.58320 0.71660 0.83050 0.15400
H 	H 	0.34780 0.20800 0.19140 0.16800
H 	H 	0.43470 0.89970 0.49370 0.02200
H 	H 	0.56530 0.10030 0.50630 0.02200
H 	H 	0.54010 0.34380 0.87760 0.15100
H 	H 	0.33320 0.35090 0.08430 0.15200
H 	H 	0.18630 0.56510 0.94630 0.17600
H 	H 	0.21100 0.65250 0.12960 0.00900
H 	H 	0.66680 0.64910 0.91570 0.15200
H 	H 	0.67060 0.77350 0.04050 -0.03900
C 	C 	0.83108 0.52458 0.02616 -0.28300
C 	C 	0.71386 0.48106 0.66722 -0.12800
C 	C 	0.75034 0.80624 0.82138 0.33200
C 	C 	0.95731 0.40061 0.52877 -0.37400
C 	C 	0.75698 0.74798 0.93376 0.17800
C 	C 	0.34819 0.24479 0.32303 -0.27700
C 	C 	0.45784 0.42334 0.90868 0.20400
C 	C 	0.22529 0.38699 0.09783 0.31800
C 	C 	0.07457 0.05397 0.61409 -0.25300
C 	C 	0.37774 0.09684 0.52088 0.25600
C 	C 	0.85901 0.73701 0.57977 -0.28400
C 	C 	0.13950 0.58030 0.32390 -0.30800
C 	C 	0.43987 0.92307 0.95749 -0.11800
C 	C 	0.18288 0.50478 0.44006 0.29400
C 	C 	0.46651 0.44001 0.86167 0.20500
C 	C 	0.40848 0.44858 0.17916 0.16000
C 	C 	0.12226 0.49546 0.97912 0.25600
C 	C 	0.89212 0.25582 0.59504 -0.31300
C 	C 	0.50518 0.74698 0.05616 0.36900
C 	C 	0.90955 0.18945 0.42185 -0.23900
C 	C 	0.17582 0.45172 0.19764 -0.16200
C 	C 	0.39637 0.43587 0.22569 0.26900
C 	C 	0.44681 0.90221 0.47597 0.10100
C 	C 	0.44858 0.96378 0.17916 0.16000
C 	C 	0.43587 0.94207 0.22569 0.26900
C 	C 	0.04851 0.74641 0.38927 -0.31500
C 	C 	0.17235 0.95255 0.54545 -0.36800
C 	C 	0.63902 0.94112 0.18564 0.12800
C 	C 	0.00389 0.68899 0.35933 -0.32200
C 	C 	0.28986 0.07666 0.59132 0.20400
C 	C 	0.97542 0.66892 0.47384 -0.28300
C 	C 	0.69376 0.74966 0.67862 0.33200
C 	C 	0.68496 0.74256 0.94552 0.17300
C 	C 	0.71591 0.95441 0.68717 0.14300
C 	C 	0.18419 0.95149 0.61073 -0.31500
C 	C 	0.21386 0.63786 0.16722 -0.12800
C 	C 	0.45255 0.67235 0.04545 -0.36900
C 	C 	0.91601 0.65181 0.67697 -0.27700
C 	C 	0.82518 0.82418 0.80236 -0.16200
C 	C 	0.19168 0.24698 0.55616 0.36900
C 	C 	0.21578 0.23758 0.57626 -0.23900
C 	C 	0.67035 0.82765 0.45455 -0.36900
C 	C 	0.65612 0.80562 0.03774 0.24200
C 	C 	0.88182 0.97542 0.47384 -0.28200
C 	C 	0.27298 0.51478 0.90706 0.19300
C 	C 	0.96720 0.88860 0.70130 -0.17600
C 	C 	0.15181 0.41601 0.17697 -0.27700
C 	C 	0.67181 0.93881 0.13257 -0.26400
C 	C 	0.08873 0.23553 0.45161 -0.21700
C 	C 	0.90316 0.99546 0.47912 0.25500
C 	C 	0.28849 0.41169 0.88843 0.35900
C 	C 	0.11301 0.27471 0.40217 0.31800
C 	C 	0.42543 0.24263 0.88591 -0.25200
C 	C 	0.11990 0.32390 0.03180 0.22000
C 	C 	0.54370 0.91970 0.17610 -0.30800
C 	C 	0.24256 0.18496 0.44552 0.17300
C 	C 	0.40316 0.12226 0.97912 0.25600
C 	C 	0.92334 0.95784 0.40868 0.20500
C 	C 	0.52310 0.11800 0.67730 0.20600
C 	C 	0.54851 0.31581 0.88927 -0.31400
C 	C 	0.27453 0.29043 0.31001 -0.31000
C 	C 	0.41169 0.41139 0.88843 0.35900
C 	C 	0.57457 0.75737 0.11409 -0.25200
C 	C 	0.61818 0.83108 0.02616 -0.28300
C 	C 	0.94681 0.67501 0.97597 0.10200
C 	C 	0.77587 0.91127 0.54839 -0.21700
C 	C 	0.68945 0.40955 0.92185 -0.23900
C 	C 	0.55319 0.09779 0.52403 0.10100
C 	C 	0.87796 0.69376 0.67862 0.33200
C 	C 	0.66691 0.93361 0.40637 -0.31300
C 	C 	0.16003 0.76383 0.67601 -0.29700
C 	C 	0.92543 0.94603 0.38591 -0.25300
C 	C 	0.36696 0.01026 0.29342 0.25600
C 	C 	0.75521 0.91601 0.67697 -0.27700
C 	C 	0.45172 0.17482 0.19764 -0.16200
C 	C 	0.09939 0.54269 0.97123 -0.37400
C 	C 	0.68288 0.37228 0.94006 0.29400
C 	C 	0.32518 0.04828 0.30236 -0.16200
C 	C 	0.50454 0.59684 0.02088 0.25600
C 	C 	0.15612 0.00052 0.53774 0.24000
C 	C 	0.49522 0.12772 0.55994 0.29400
C 	C 	0.72424 0.32664 0.84868 0.31300
C 	C 	0.66892 0.88182 0.47384 -0.28300
C 	C 	0.44779 0.18899 0.85933 -0.32300
C 	C 	0.25744 0.37304 0.05448 0.17300
C 	C 	0.95630 0.13950 0.32390 -0.30900
C 	C 	0.28409 0.04559 0.31283 0.14300
C 	C 	0.26710 0.28620 0.02250 0.36000
C 	C 	0.67189 0.91079 0.69953 0.16900
C 	C 	0.31712 0.62772 0.05994 0.29400
C 	C 	0.21779 0.41079 0.19953 0.16900
C 	C 	0.57580 0.73290 0.97750 0.36000
C 	C 	0.56128 0.75698 0.93376 0.17800
C 	C 	0.40013 0.16003 0.67601 -0.29700
C 	C 	0.62503 0.79043 0.81001 -0.31000
C 	C 	0.37614 0.15064 0.54068 0.37900
C 	C 	0.34936 0.12386 0.95932 0.37900
C 	C 	0.82811 0.78221 0.80047 0.16900
C 	C 	0.35901 0.32421 0.07977 -0.28400
C 	C 	0.99948 0.69438 0.46226 0.24100
C 	C 	0.91841 0.36691 0.20037 0.16700
C 	C 	0.32449 0.63219 0.03453 -0.25800
C 	C 	0.40079 0.47859 0.15513 -0.29300
C 	C 	0.72480 0.48020 0.64130 0.12500
C 	C 	0.55636 0.06256 0.06882 0.11500
C 	C 	0.07739 0.26599 0.40823 -0.31200
C 	C 	0.73422 0.44112 0.68564 0.12800
C 	C 	0.78849 0.91139 0.38843 0.35900
C 	C 	0.57666 0.78986 0.09132 0.20400
C 	C 	0.97690 0.81840 0.82270 0.20600
C 	C 	0.04828 0.32418 0.30236 -0.16200
C 	C 	0.12386 0.56746 0.95932 0.37900
C 	C 	0.40955 0.97915 0.92185 -0.23800
C 	C 	0.27520 0.51980 0.35870 0.12500
C 	C 	0.01431 0.86691 0.70037 0.16800
C 	C 	0.23758 0.97038 0.57626 -0.23900
C 	C 	0.51026 0.86696 0.79342 0.25600
C 	C 	0.76819 0.53349 0.13833 0.20500
C 	C 	0.02141 0.09921 0.34487 -0.29500
C 	C 	0.74966 0.87796 0.67862 0.33200
C 	C 	0.32390 0.52440 0.03180 0.22000
C 	C 	0.87774 0.50454 0.02088 0.25600
C 	C 	0.18899 0.50389 0.85933 -0.32300
C 	C 	0.38860 0.46720 0.20130 -0.17500
C 	C 	0.47038 0.73758 0.07626 -0.23900
C 	C 	0.72547 0.70957 0.68999 -0.31000
C 	C 	0.08861 0.08831 0.61157 0.35900
C 	C 	0.41139 0.28849 0.88843 0.35900
C 	C 	0.11331 0.95731 0.52877 -0.37300
C 	C 	0.22702 0.19482 0.59294 0.19300
C 	C 	0.11800 0.68160 0.67730 0.20600
C 	C 	0.73290 0.71380 0.97750 0.36000
C 	C 	0.00052 0.30562 0.53774 0.24100
C 	C 	0.55142 0.03622 0.82084 0.16000
C 	C 	0.08399 0.34819 0.32303 -0.27700
C 	C 	0.59921 0.52141 0.84487 -0.29300
C 	C 	0.62270 0.47510 0.84550 0.34600
C 	C 	0.14251 0.45441 0.18717 0.14300
C 	C 	0.99611 0.31101 0.64067 -0.32200
C 	C 	0.41601 0.25521 0.17697 -0.27700
C 	C 	0.74798 0.56128 0.93376 0.17800
C 	C 	0.05221 0.99611 0.64067 -0.32300
C 	C 	0.88010 0.67610 0.96820 0.22000
C 	C 	0.89956 0.27576 0.15132 0.31300
C 	C 	0.03349 0.26819 0.63833 0.20500
C 	C 	0.51646 0.44546 0.88132 0.32800
C 	C 	0.58861 0.71151 0.11157 0.35900
C 	C 	0.52962 0.26242 0.92374 -0.23900
C 	C 	0.42546 0.76916 0.07752 0.19900
C 	C 	0.15370 0.72480 0.64130 0.12500
C 	C 	0.27587 0.26447 0.04839 -0.21700
C 	C 	0.23701 0.35901 0.07977 -0.28400
C 	C 	0.46378 0.94858 0.67916 0.16000
C 	C 	0.36691 0.51431 0.20037 0.16700
C 	C 	0.56746 0.34936 0.95932 0.37900
C 	C 	0.22413 0.08873 0.45161 -0.21700
C 	C 	0.82421 0.85901 0.57977 -0.28400
C 	C 	0.08159 0.63309 0.79963 0.16700
C 	C 	0.31504 0.25744 0.05448 0.17300
C 	C 	0.44112 0.13902 0.68564 0.12800
C 	C 	0.30624 0.25034 0.32138 0.33200
C 	C 	0.15676 0.51646 0.88132 0.32800
C 	C 	0.11140 0.55710 0.29870 -0.17500
C 	C 	0.37497 0.20957 0.18999 -0.31000
C 	C 	0.42420 0.26710 0.02250 0.36000
C 	C 	0.24263 0.44603 0.88591 -0.25200
C 	C 	0.47542 0.38182 0.97384 -0.28300
C 	C 	0.55454 0.84324 0.11868 0.32800
C 	C 	0.47859 0.96549 0.15513 -0.29300
C 	C 	0.98020 0.22480 0.14130 0.12500
C 	C 	0.23401 0.42261 0.09177 -0.31200
C 	C 	0.74641 0.81581 0.38927 -0.31400
C 	C 	0.55221 0.81101 0.14067 -0.32300
C 	C 	0.04269 0.59939 0.47123 -0.37400
C 	C 	0.25302 0.30832 0.94384 0.36900
C 	C 	0.86098 0.26578 0.31436 0.12800
C 	C 	0.74698 0.69168 0.05616 0.36900
C 	C 	0.72786 0.42546 0.07752 0.19900
C 	C 	0.56256 0.05636 0.56882 0.11600
C 	C 	0.48569 0.08159 0.79963 0.16700
C 	C 	0.62386 0.84936 0.45932 0.37900
C 	C 	0.61140 0.53280 0.79870 -0.17500
C 	C 	0.43881 0.17181 0.63257 -0.26400
C 	C 	0.37304 0.31504 0.05448 0.17300
C 	C 	0.09779 0.82499 0.52403 0.10100
C 	C 	0.47690 0.88200 0.32270 0.20600
C 	C 	0.91139 0.91169 0.38843 0.35900
C 	C 	0.23617 0.59987 0.32399 -0.29700
C 	C 	0.98106 0.21386 0.16722 -0.12800
C 	C 	0.17551 0.49121 0.46547 -0.25800
C 	C 	0.74839 0.76599 0.90823 -0.31200
C 	C 	0.72529 0.78989 0.59783 0.31800
C 	C 	0.19445 0.42595 0.97975 0.38400
C 	C 	0.43744 0.94364 0.43118 0.11600
C 	C 	0.75302 0.99482 0.44384 0.36900
C 	C 	0.84324 0.48354 0.11868 0.32800
C 	C 	0.59987 0.83997 0.32399 -0.29700
C 	C 	0.07454 0.77214 0.42248 0.19900
C 	C 	0.07693 0.32043 0.04251 -0.11900
C 	C 	0.04216 0.28986 0.59132 0.20400
C 	C 	0.75161 0.92261 0.59177 -0.31200
C 	C 	0.90221 0.17501 0.47597 0.10100
C 	C 	0.32765 0.17035 0.95455 -0.36900
C 	C 	0.71011 0.77471 0.90217 0.31800
C 	C 	0.39985 0.19445 0.97975 0.38400
C 	C 	0.61800 0.02310 0.17730 0.20600
C 	C 	0.69438 0.84388 0.46226 0.24200
C 	C 	0.21151 0.08861 0.61157 0.35900
C 	C 	0.55710 0.03280 0.29870 -0.17500
C 	C 	0.98569 0.13309 0.29963 0.16800
C 	C 	0.25521 0.15181 0.17697 -0.27700
C 	C 	0.81581 0.04851 0.38927 -0.31500
C 	C 	0.50052 0.65612 0.03774 0.24200
C 	C 	0.87228 0.18288 0.44006 0.29400
C 	C 	0.27471 0.21011 0.40217 0.31800
C 	C 	0.67582 0.67482 0.69764 -0.16200
C 	C 	0.32421 0.23701 0.07977 -0.28400
C 	C 	0.26819 0.05999 0.63833 0.20500
C 	C 	0.98354 0.34324 0.61868 0.32800
C 	C 	0.95441 0.64251 0.68717 0.14300
C 	C 	0.31055 0.59045 0.07815 -0.23900
C 	C 	0.44207 0.93587 0.72569 0.26900
C 	C 	0.28221 0.32811 0.30047 0.16900
C 	C 	0.27576 0.67336 0.15132 0.31300
C 	C 	0.33309 0.06639 0.59363 -0.31300
C 	C 	0.42334 0.21014 0.90868 0.20400
C 	C 	0.54745 0.32765 0.95455 -0.36900
C 	C 	0.67501 0.40221 0.97597 0.10100
C 	C 	0.02458 0.33108 0.52616 -0.28300
C 	C 	0.25161 0.23401 0.09177 -0.31200
C 	C 	0.05454 0.98354 0.61868 0.32900
C 	C 	0.32936 0.36696 0.29342 0.25600
C 	C 	0.91169 0.78849 0.38843 0.35900
C 	C 	0.41970 0.04370 0.67610 -0.30700
C 	C 	0.18496 0.12696 0.44552 0.17300
C 	C 	0.05319 0.32499 0.02403 0.10200
C 	C 	0.84819 0.58399 0.82303 -0.27700
C 	C 	0.82499 0.55319 0.52403 0.10100
C 	C 	0.82819 0.24319 0.36743 -0.26400
C 	C 	0.56119 0.82819 0.36743 -0.26400
C 	C 	0.37730 0.52490 0.15450 0.34600
C 	C 	0.92420 0.78620 0.52250 0.36000
C 	C 	0.38200 0.97690 0.82270 0.20600
C 	C 	0.67235 0.82965 0.04545 -0.36900
C 	C 	0.44330 0.02490 0.65450 0.34500
C 	C 	0.25034 0.12204 0.32138 0.33200
C 	C 	0.36098 0.05888 0.81436 0.12800
C 	C 	0.38669 0.09939 0.97123 -0.37400
C 	C 	0.78614 0.36214 0.83278 -0.12800
C 	C 	0.81504 0.87304 0.55448 0.17300
C 	C 	0.36781 0.99121 0.96547 -0.25700
C 	C 	0.73701 0.82421 0.57977 -0.28400
C 	C 	0.22480 0.65370 0.14130 0.12500
C 	C 	0.78422 0.76242 0.42374 -0.23900
C 	C 	0.01894 0.78614 0.83278 -0.12800
C 	C 	0.97915 0.68945 0.92185 -0.24000
C 	C 	0.25582 0.25702 0.59504 -0.31300
C 	C 	0.83309 0.50689 0.09363 -0.31300
C 	C 	0.76916 0.72786 0.07752 0.19900
C 	C 	0.36214 0.01894 0.83278 -0.12800
C 	C 	0.77453 0.62503 0.81001 -0.31000
C 	C 	0.74256 0.62696 0.94552 0.17300
C 	C 	0.55670 0.97510 0.34550 0.34500
C 	C 	0.59779 0.05319 0.02403 0.10100
C 	C 	0.85749 0.54559 0.81283 0.14300
C 	C 	0.77471 0.61301 0.90217 0.31800
C 	C 	0.48974 0.13304 0.20658 0.25600
C 	C 	0.24966 0.19376 0.17862 0.33200
C 	C 	0.23290 0.07580 0.47750 0.36000
C 	C 	0.88669 0.04269 0.47123 -0.37300
C 	C 	0.03451 0.59921 0.84487 -0.29300
C 	C 	0.04370 0.86050 0.67610 -0.30900
C 	C 	0.81226 0.56256 0.56882 0.11600
C 	C 	0.54828 0.82518 0.80236 -0.16200
C 	C 	0.44364 0.93744 0.93118 0.11500
C 	C 	0.78986 0.54216 0.09132 0.20400
C 	C 	0.30555 0.10015 0.52025 0.38400
C 	C 	0.44603 0.42543 0.88591 -0.25200
C 	C 	0.03280 0.11140 0.29870 -0.17600
C 	C 	0.13304 0.17064 0.20658 0.25600
C 	C 	0.48522 0.69482 0.09294 0.19300
C 	C 	0.39956 0.17336 0.65132 0.31300
C 	C 	0.19376 0.37796 0.17862 0.33200
C 	C 	0.28989 0.22529 0.09783 0.31800
C 	C 	0.02440 0.82390 0.53180 0.22100
C 	C 	0.82043 0.57693 0.54251 -0.11900
C 	C 	0.30518 0.27298 0.90706 0.19300
C 	C 	0.24418 0.60788 0.90496 -0.31300
C 	C 	0.25702 0.89212 0.59504 -0.31300
C 	C 	0.10788 0.74418 0.40496 -0.31300
C 	C 	0.76578 0.36098 0.81436 0.12800
C 	C 	0.37228 0.00478 0.94006 0.29300
C 	C 	0.63304 0.98974 0.70658 0.25600
C 	C 	0.68899 0.94779 0.35933 -0.32300
C 	C 	0.61331 0.90061 0.02877 -0.37400
C 	C 	0.24302 0.25202 0.06624 0.17800
C 	C 	0.71380 0.57580 0.97750 0.36000
C 	C 	0.25359 0.18419 0.61073 -0.31400
C 	C 	0.86050 0.41970 0.67610 -0.30800
C 	C 	0.60015 0.80555 0.02025 0.38400
C 	C 	0.02962 0.78422 0.42374 -0.23900
C 	C 	0.09684 0.00454 0.52088 0.25500
C 	C 	0.75582 0.39212 0.09504 -0.31300
C 	C 	0.24798 0.25698 0.43376 0.17800
C 	C 	0.02490 0.87730 0.65450 0.34700
C 	C 	0.00478 0.68288 0.94006 0.29500
C 	C 	0.89637 0.44207 0.72569 0.26900
C 	C 	0.48106 0.13786 0.66722 -0.12800
C 	C 	0.67482 0.95172 0.69764 -0.16200
C 	C 	0.24698 0.00518 0.55616 0.36900
C 	C 	0.49311 0.43361 0.90637 -0.31300
C 	C 	0.71014 0.92334 0.40868 0.20400
C 	C 	0.59045 0.02085 0.07815 -0.23800
C 	C 	0.18945 0.47915 0.42185 -0.23900
C 	C 	0.39212 0.75702 0.09504 -0.31300
C 	C 	0.00689 0.33309 0.59363 -0.31400
C 	C 	0.23422 0.63902 0.18564 0.12800
C 	C 	0.01478 0.77298 0.40706 0.19300
C 	C 	0.87730 0.44330 0.65450 0.34600
C 	C 	0.25698 0.06128 0.43376 0.17800
C 	C 	0.17957 0.42307 0.45749 -0.11900
C 	C 	0.34388 0.19438 0.96226 0.24200
C 	C 	0.40221 0.94681 0.97597 0.10100
C 	C 	0.10044 0.72424 0.84868 0.31300
C 	C 	0.63786 0.98106 0.16722 -0.12800
C 	C 	0.75744 0.81504 0.55448 0.17300
C 	C 	0.75737 0.55397 0.11409 -0.25200
C 	C 	0.52490 0.94330 0.15450 0.34600
C 	C 	0.12204 0.30624 0.32138 0.33200
C 	C 	0.38182 0.16892 0.97384 -0.28300
C 	C 	0.84388 0.99948 0.46226 0.24000
C 	C 	0.17579 0.14099 0.42023 -0.28400
C 	C 	0.53280 0.05710 0.79870 -0.17500
C 	C 	0.94858 0.90848 0.67916 0.16100
C 	C 	0.32965 0.17235 0.54545 -0.36900
C 	C 	0.93361 0.99311 0.40637 -0.31500
C 	C 	0.67610 0.47560 0.96820 0.22000
C 	C 	0.06256 0.31226 0.06882 0.11600
C 	C 	0.49546 0.40316 0.97912 0.25600
C 	C 	0.00454 0.37774 0.52088 0.25600
C 	C 	0.08921 0.28221 0.30047 0.16900
C 	C 	0.67551 0.36781 0.96547 -0.25800
C 	C 	0.51894 0.86214 0.33278 -0.12800
C 	C 	0.43361 0.16691 0.90637 -0.31300
C 	C 	0.54559 0.78409 0.81283 0.14300
C 	C 	0.31226 0.55636 0.06882 0.11600
C 	C 	0.74302 0.93872 0.56624 0.17800
C 	C 	0.75359 0.45149 0.11073 -0.31400
C 	C 	0.81840 0.38200 0.82270 0.20600
C 	C 	0.78989 0.88699 0.59783 0.31800
C 	C 	0.77520 0.34630 0.85870 0.12500
C 	C 	0.26299 0.17579 0.42023 -0.28400
C 	C 	0.98974 0.67064 0.70658 0.25600
C 	C 	0.07666 0.04216 0.59132 0.20500
C 	C 	0.58921 0.82811 0.80047 0.16900
C 	C 	0.75681 0.43881 0.63257 -0.26400
C 	C 	0.92261 0.73401 0.59177 -0.31200
C 	C 	0.24298 0.24418 0.90496 -0.31300
C 	C 	0.86691 0.41841 0.70037 0.16700
C 	C 	0.71578 0.47038 0.07626 -0.23900
C 	C 	0.17189 0.21779 0.19953 0.16900
C 	C 	0.23152 0.59462 0.88864 0.32300
C 	C 	0.00518 0.19168 0.55616 0.36800
C 	C 	0.12503 0.27453 0.31001 -0.31000
C 	C 	0.97560 0.17610 0.46820 0.22100
C 	C 	0.25202 0.43872 0.06624 0.17800
C 	C 	0.81712 0.49522 0.55994 0.29400
C 	C 	0.99121 0.67551 0.96547 -0.25800
C 	C 	0.17482 0.17582 0.19764 -0.16200
C 	C 	0.28422 0.52962 0.92374 -0.23900
C 	C 	0.47510 0.05670 0.84550 0.34600
C 	C 	0.34324 0.05454 0.61868 0.32800
C 	C 	0.62226 0.90316 0.47912 0.25600
C 	C 	0.34630 0.01980 0.85870 0.12400
C 	C 	0.82664 0.22424 0.34868 0.31300
C 	C 	0.01026 0.32936 0.29342 0.25600
C 	C 	0.72413 0.73553 0.95161 -0.21700
C 	C 	0.59462 0.28522 0.88864 0.32300
C 	C 	0.69445 0.89985 0.47975 0.38400
C 	C 	0.14099 0.26299 0.42023 -0.28400
C 	C 	0.91970 0.36050 0.17610 -0.30800
C 	C 	0.60363 0.56413 0.77431 0.26900
C 	C 	0.06639 0.00689 0.59363 -0.31500
C 	C 	0.21591 0.14251 0.18717 0.14300
C 	C 	0.80518 0.01478 0.40706 0.19400
C 	C 	0.23553 0.22413 0.45161 -0.21700
C 	C 	0.28620 0.42420 0.02250 0.36000
C 	C 	0.41841 0.01431 0.70037 0.16700
C 	C 	0.54216 0.57666 0.09132 0.20400
C 	C 	0.26447 0.41127 0.04839 -0.21700
C 	C 	0.86214 0.28614 0.33278 -0.12800
C 	C 	0.51980 0.84630 0.35870 0.12500
C 	C 	0.09152 0.53622 0.32084 0.16000
C 	C 	0.82765 0.04745 0.45455 -0.36800
C 	C 	0.35749 0.28409 0.31283 0.14300
C 	C 	0.25737 0.07457 0.61409 -0.25200
C 	C 	0.58399 0.74479 0.82303 -0.27700
C 	C 	0.45731 0.61331 0.02877 -0.37400
C 	C 	0.05670 0.62270 0.84550 0.34600
C 	C 	0.81055 0.52085 0.57815 -0.23900
C 	C 	0.68774 0.44364 0.93118 0.11600
C 	C 	0.49611 0.55221 0.14067 -0.32300
C 	C 	0.09921 0.53451 0.34487 -0.29300
C 	C 	0.05888 0.76578 0.81436 0.12800
C 	C 	0.90538 0.26848 0.61136 0.32300
C 	C 	0.08030 0.63950 0.82390 -0.30800
C 	C 	0.57693 0.06013 0.54251 -0.11900
C 	C 	0.76848 0.40538 0.11136 0.32300
C 	C 	0.58159 0.98569 0.29963 0.16700
C 	C 	0.51478 0.30518 0.90706 0.19300
C 	C 	0.13786 0.71386 0.66722 -0.12800
C 	C 	0.91079 0.71779 0.69953 0.16900
C 	C 	0.81101 0.49611 0.14067 -0.32300
C 	C 	0.45630 0.08030 0.82390 -0.30800
C 	C 	0.24641 0.54851 0.88927 -0.31400
C 	C 	0.57454 0.23084 0.92248 0.19900
C 	C 	0.63309 0.48569 0.79963 0.16700
C 	C 	0.01646 0.65676 0.38132 0.32800
C 	C 	0.40061 0.11331 0.52877 -0.37400
C 	C 	0.46720 0.94290 0.20130 -0.17500
C 	C 	0.17064 0.48974 0.20658 0.25600
C 	C 	0.38010 0.97560 0.46820 0.22000
C 	C 	0.15064 0.93254 0.54068 0.37800
C 	C 	0.06746 0.62386 0.45932 0.37900
C 	C 	0.65181 0.75521 0.67697 -0.27700
C 	C 	0.56639 0.83309 0.09363 -0.31300
C 	C 	0.78620 0.76710 0.52250 0.36000
C 	C 	0.72702 0.48522 0.09294 0.19300
C 	C 	0.24839 0.07739 0.40823 -0.31200
C 	C 	0.05636 0.81226 0.56882 0.11600
C 	C 	0.12772 0.81712 0.55994 0.29400
C 	C 	0.55888 0.86098 0.31436 0.12800
C 	C 	0.79043 0.77453 0.81001 -0.31000
C 	C 	0.95784 0.71014 0.40868 0.20400
C 	C 	0.74298 0.10788 0.40496 -0.31300
C 	C 	0.87614 0.43254 0.04068 0.37900
C 	C 	0.32664 0.10044 0.84868 0.31300
C 	C 	0.53451 0.02141 0.34487 -0.29300
C 	C 	0.68160 0.52310 0.67730 0.20600
C 	C 	0.12270 0.55670 0.34550 0.34600
C 	C 	0.94207 0.39637 0.22569 0.26900
C 	C 	0.02085 0.31055 0.07815 -0.24000
C 	C 	0.62772 0.99522 0.05994 0.29300
C 	C 	0.09045 0.81055 0.57815 -0.23900
C 	C 	0.99482 0.80832 0.44384 0.36800
C 	C 	0.94001 0.96651 0.36167 0.20500
C 	C 	0.73401 0.75161 0.59177 -0.31200
C 	C 	0.77298 0.80518 0.40706 0.19300
C 	C 	0.83997 0.23617 0.32399 -0.29700
C 	C 	0.10015 0.07405 0.52025 0.38400
C 	C 	0.21478 0.90538 0.61136 0.32300
C 	C 	0.61301 0.71011 0.90217 0.31800
C 	C 	0.50689 0.56639 0.09363 -0.31300
C 	C 	0.11818 0.02458 0.52616 -0.28200
C 	C 	0.77214 0.73084 0.42248 0.19900
C 	C 	0.65064 0.87614 0.04068 0.37900
C 	C 	0.76383 0.40013 0.67601 -0.29700
C 	C 	0.26242 0.28422 0.92374 -0.23900
C 	C 	0.86696 0.82936 0.79342 0.25600
C 	C 	0.63950 0.45630 0.82390 -0.30800
C 	C 	0.29043 0.12503 0.31001 -0.31000
C 	C 	0.27214 0.57454 0.92248 0.19900
C 	C 	0.94603 0.74263 0.38591 -0.25200
C 	C 	0.05793 0.60363 0.77431 0.26900
C 	C 	0.19482 0.98522 0.59294 0.19400
C 	C 	0.06128 0.24798 0.43376 0.17800
C 	C 	0.90061 0.45731 0.02877 -0.37400
C 	C 	0.92595 0.69445 0.47975 0.38400
C 	C 	0.67957 0.43987 0.95749 -0.11900
C 	C 	0.82936 0.51026 0.79342 0.25600
C 	C 	0.24479 0.08399 0.32303 -0.27700
C 	C 	0.07405 0.30555 0.52025 0.38400
C 	C 	0.26848 0.21478 0.61136 0.32300
C 	C 	0.05710 0.61140 0.79870 -0.17500
C 	C 	0.05142 0.09152 0.32084 0.16100
C 	C 	0.57405 0.60015 0.02025 0.38400
C 	C 	0.28522 0.23152 0.88864 0.32300
C 	C 	0.31840 0.47690 0.32270 0.20600
C 	C 	0.55999 0.76819 0.13833 0.20500
C 	C 	0.32499 0.59779 0.02403 0.10100
C 	C 	0.92307 0.67957 0.95749 -0.11900
C 	C 	0.06013 0.82043 0.54251 -0.11900
C 	C 	0.42595 0.39985 0.97975 0.38400
C 	C 	0.95149 0.25359 0.61073 -0.31500
C 	C 	0.49121 0.86781 0.46547 -0.25800
C 	C 	0.49482 0.25302 0.94384 0.36900
C 	C 	0.26383 0.66003 0.17601 -0.29700
C 	C 	0.65370 0.98020 0.14130 0.12400
C 	C 	0.82390 0.61990 0.53180 0.22000
C 	C 	0.36050 0.54370 0.17610 -0.30800
C 	C 	0.69482 0.72702 0.09294 0.19300
C 	C 	0.25681 0.67181 0.13257 -0.26400
C 	C 	0.87304 0.75744 0.55448 0.17300
C 	C 	0.88860 0.44290 0.70130 -0.17500
C 	C 	0.90848 0.46378 0.67916 0.16000
C 	C 	0.44546 0.15676 0.88132 0.32800
C 	C 	0.52085 0.09045 0.57815 -0.23900
C 	C 	0.48020 0.15370 0.64130 0.12500
C 	C 	0.93254 0.37614 0.54068 0.37900
C 	C 	0.23181 0.46651 0.86167 0.20500
C 	C 	0.45441 0.21591 0.18717 0.14300
C 	C 	0.93881 0.25681 0.13257 -0.26500
C 	C 	0.93744 0.68774 0.93118 0.11600
C 	C 	0.50879 0.13219 0.53453 -0.25800
C 	C 	0.97510 0.12270 0.34550 0.34700
C 	C 	0.67064 0.63304 0.70658 0.25600
C 	C 	0.78221 0.58921 0.80047 0.16900
C 	C 	0.97038 0.21578 0.57626 -0.23900
C 	C 	0.76599 0.57739 0.90823 -0.31200
C 	C 	0.06119 0.74319 0.86743 -0.26500
C 	C 	0.84630 0.27520 0.35870 0.12500
C 	C 	0.93987 0.17957 0.45749 -0.11900
C 	C 	0.82418 0.54828 0.80236 -0.16200
C 	C 	0.90079 0.46549 0.65513 -0.29300
C 	C 	0.04559 0.35749 0.31283 0.14300
C 	C 	0.64251 0.71591 0.68717 0.14300
C 	C 	0.56013 0.07693 0.04251 -0.11800
C 	C 	0.03622 0.59152 0.82084 0.16000
C 	C 	0.55793 0.06413 0.27431 0.26900
C 	C 	0.78522 0.09462 0.38864 0.32300
C 	C 	0.12696 0.24256 0.44552 0.17300
C 	C 	0.17610 0.38010 0.46820 0.22000
C 	C 	0.16892 0.47542 0.97384 -0.28300
C 	C 	0.61990 0.02440 0.53180 0.22000
C 	C 	0.52458 0.61818 0.02616 -0.28300
C 	C 	0.13219 0.82449 0.53453 -0.25800
C 	C 	0.73553 0.58873 0.95161 -0.21700
C 	C 	0.94330 0.37730 0.15450 0.34600
C 	C 	0.57739 0.74839 0.90823 -0.31200
C 	C 	0.74263 0.92543 0.38591 -0.25200
C 	C 	0.76299 0.64099 0.92023 -0.28400
C 	C 	0.09462 0.73152 0.38864 0.32300
C 	C 	0.60788 0.24298 0.90496 -0.31300
C 	C 	0.40538 0.71478 0.11136 0.32300
C 	C 	0.95255 0.32965 0.54545 -0.36800
C 	C 	0.62204 0.75034 0.82138 0.33200
C 	C 	0.47915 0.90955 0.42185 -0.23900
C 	C 	0.96378 0.40848 0.17916 0.16000
C 	C 	0.24319 0.56119 0.36743 -0.26400
C 	C 	0.10363 0.55793 0.27431 0.26900
C 	C 	0.53349 0.55999 0.13833 0.20500
C 	C 	0.93872 0.75202 0.56624 0.17800
C 	C 	0.47560 0.88010 0.96820 0.22000
C 	C 	0.71151 0.58831 0.11157 0.35900
C 	C 	0.22424 0.60044 0.34868 0.31300
C 	C 	0.94290 0.38860 0.20130 -0.17500
C 	C 	0.67336 0.89956 0.15132 0.31300
C 	C 	0.70957 0.87497 0.68999 -0.31000
C 	C 	0.69168 0.50518 0.05616 0.36900
C 	C 	0.50389 0.44779 0.85933 -0.32300
C 	C 	0.71779 0.67189 0.69953 0.16900
C 	C 	0.31581 0.24641 0.88927 -0.31400
C 	C 	0.92546 0.22786 0.57752 0.19900
C 	C 	0.99311 0.66691 0.40637 -0.31400
C 	C 	0.82449 0.50879 0.53453 -0.25800
C 	C 	0.96651 0.73181 0.36167 0.20500
C 	C 	0.43254 0.65064 0.04068 0.37900
C 	C 	0.01980 0.77520 0.85870 0.12500
C 	C 	0.06413 0.10363 0.27431 0.26900
C 	C 	0.75202 0.74302 0.56624 0.17800
C 	C 	0.05999 0.03349 0.63833 0.20500
C 	C 	0.77576 0.39956 0.65132 0.31300
C 	C 	0.55397 0.57457 0.11409 -0.25200
C 	C 	0.52141 0.03451 0.84487 -0.29300
C 	C 	0.52440 0.11990 0.03180 0.22000
C 	C 	0.44290 0.96720 0.70130 -0.17500
C 	C 	0.58030 0.95630 0.32390 -0.30700
C 	C 	0.64099 0.67579 0.92023 -0.28400
C 	C 	0.80832 0.75302 0.44384 0.36900
C 	C 	0.74319 0.32819 0.86743 -0.26400
C 	C 	0.17336 0.77576 0.65132 0.31300
C 	C 	0.88699 0.72529 0.59783 0.31800
C 	C 	0.53622 0.05142 0.32084 0.16000
C 	C 	0.75702 0.75582 0.09504 -0.31300
C 	C 	0.05397 0.25737 0.61409 -0.25200
C 	C 	0.94779 0.00389 0.35933 -0.32300
C 	C 	0.07580 0.21380 0.47750 0.36000
C 	C 	0.93587 0.89637 0.72569 0.26900
C 	C 	0.22547 0.37497 0.18999 -0.31000
C 	C 	0.45149 0.68419 0.11073 -0.31400
C 	C 	0.32043 0.56013 0.04251 -0.11900
C 	C 	0.65676 0.94546 0.38132 0.32800
C 	C 	0.97859 0.90079 0.65513 -0.29500
C 	C 	0.21380 0.23290 0.47750 0.36000
C 	C 	0.13902 0.73422 0.68564 0.12800
C 	C 	0.71478 0.76848 0.11136 0.32300
C 	C 	0.43872 0.24302 0.06624 0.17800
C 	C 	0.41079 0.17189 0.19953 0.16900
C 	C 	0.16691 0.49311 0.90637 -0.31300
C 	C 	0.38699 0.28989 0.09783 0.31800
C 	C 	0.58873 0.72413 0.95161 -0.21700
C 	C 	0.99522 0.31712 0.05994 0.29500
C 	C 	0.18160 0.61800 0.17730 0.20600
C 	C 	0.22786 0.26916 0.57752 0.19900
C 	C 	0.26578 0.55888 0.31436 0.12800
C 	C 	0.17501 0.44681 0.47597 0.10100
C 	C 	0.20957 0.22547 0.18999 -0.31000
C 	C 	0.44001 0.23181 0.86167 0.20500
C 	C 	0.17035 0.54745 0.95455 -0.36900
C 	C 	0.67579 0.76299 0.92023 -0.28400
C 	C 	0.31101 0.05221 0.64067 -0.32300
C 	C 	0.74418 0.74298 0.40496 -0.31300
C 	C 	0.51431 0.91841 0.20037 0.16700
C 	C 	0.73617 0.33997 0.82399 -0.29700
C 	C 	0.28614 0.51894 0.33278 -0.12800
C 	C 	0.13309 0.58159 0.29963 0.16700
C 	C 	0.87497 0.72547 0.68999 -0.31000
C 	C 	0.54269 0.38669 0.97123 -0.37400
C 	C 	0.76242 0.02962 0.42374 -0.23900
C 	C 	0.59152 0.55142 0.82084 0.16000
C 	C 	0.73084 0.07454 0.42248 0.19900
C 	C 	0.21014 0.45784 0.90868 0.20400
C 	C 	0.82965 0.45255 0.04545 -0.36900
C 	C 	0.80562 0.50052 0.03774 0.24200
C 	C 	0.91127 0.76447 0.54839 -0.21700
C 	C 	0.48354 0.55454 0.11868 0.32800
C 	C 	0.33997 0.09987 0.82399 -0.29700
C 	C 	0.17181 0.75681 0.63257 -0.26400
C 	C 	0.42307 0.93987 0.45749 -0.11900
C 	C 	0.33108 0.11818 0.52616 -0.28300
C 	C 	0.98522 0.22702 0.59294 0.19300
C 	C 	0.95172 0.67582 0.69764 -0.16200
C 	C 	0.62696 0.68496 0.94552 0.17300
C 	C 	0.96549 0.40079 0.15513 -0.29300
C 	C 	0.30832 0.49482 0.94384 0.36900
C 	C 	0.42261 0.25161 0.09177 -0.31200
C 	C 	0.89985 0.92595 0.47975 0.38400
C 	C 	0.99546 0.62226 0.47912 0.25600
C 	C 	0.18774 0.43744 0.43118 0.11600
C 	C 	0.09987 0.73617 0.82399 -0.29700
C 	C 	0.58831 0.58861 0.11157 0.35900
C 	C 	0.74479 0.84819 0.82303 -0.27700
C 	C 	0.41127 0.27587 0.04839 -0.21700
C 	C 	0.56413 0.05793 0.77431 0.26900
C 	C 	0.19438 0.49948 0.96226 0.24200
C 	C 	0.66003 0.90013 0.17601 -0.29700
C 	C 	0.90013 0.26383 0.17601 -0.29700
C 	C 	0.30562 0.15612 0.53774 0.24200
C 	C 	0.46549 0.97859 0.65513 -0.29300
C 	C 	0.94546 0.01646 0.38132 0.32900
C 	C 	0.80555 0.57405 0.02025 0.38400
C 	C 	0.76447 0.77587 0.54839 -0.21700
C 	C 	0.23084 0.27214 0.92248 0.19900
C 	C 	0.63219 0.00879 0.03453 -0.25700
C 	C 	0.84936 0.06746 0.45932 0.37800
C 	C 	0.32819 0.06119 0.86743 -0.26400
C 	C 	0.76710 0.92420 0.52250 0.36000
C 	C 	0.02310 0.18160 0.17730 0.20600
C 	C 	0.80624 0.62204 0.82138 0.33200
C 	C 	0.59939 0.88669 0.47123 -0.37400
C 	C 	0.94112 0.23422 0.18564 0.12800
C 	C 	0.08831 0.21151 0.61157 0.35900
C 	C 	0.50478 0.87228 0.44006 0.29400
C 	C 	0.88200 0.31840 0.32270 0.20600
C 	C 	0.73152 0.78522 0.38864 0.32300
C 	C 	0.60044 0.82664 0.34868 0.31300
C 	C 	0.73758 0.71578 0.07626 -0.23900
C 	C 	0.94364 0.18774 0.43118 0.11600
C 	C 	0.00879 0.32449 0.03453 -0.25800
C 	C 	0.04745 0.67035 0.45455 -0.36800
C 	C 	0.26599 0.24839 0.40823 -0.31200
C 	C 	0.68419 0.75359 0.11073 -0.31400
C 	C 	0.32418 0.32518 0.30236 -0.16200
C 	C 	0.32811 0.08921 0.30047 0.16900
C 	C 	0.37796 0.24966 0.17862 0.33200
C 	C 	0.49948 0.34388 0.96226 0.24200
C 	C 	0.78409 0.85749 0.81283 0.14300
C 	C 	0.26916 0.92546 0.57752 0.19900
C 	C 	0.21011 0.11301 0.40217 0.31800
C 	C 	0.73181 0.94001 0.36167 0.20500
C 	C 	0.86781 0.17551 0.46547 -0.25800
C 	C 	0.59684 0.87774 0.02088 0.25600
N 	N 	0.71908 0.66248 0.86146 -0.17900
N 	N 	0.81135 0.15285 0.40505 -0.18300
N 	N 	0.36157 0.12027 0.63419 -0.19900
N 	N 	0.24302 0.28092 0.13854 -0.17900
N 	N 	0.13075 0.65285 0.90505 -0.18300
N 	N 	0.16248 0.21908 0.36146 -0.17900
N 	N 	0.31135 0.13075 0.90505 -0.18300
N 	N 	0.75698 0.71908 0.86146 -0.17900
N 	N 	0.87973 0.11603 0.36581 -0.19900
N 	N 	0.21908 0.25698 0.36146 -0.17900
N 	N 	0.91923 0.39103 0.08811 -0.19800
N 	N 	0.74302 0.83752 0.63854 -0.17900
N 	N 	0.36925 0.18865 0.59495 -0.18300
N 	N 	0.39103 0.60163 0.08811 -0.19800
N 	N 	0.63843 0.87973 0.36581 -0.19900
N 	N 	0.15285 0.63075 0.40505 -0.18300
N 	N 	0.68865 0.86925 0.09495 -0.18300
N 	N 	0.86157 0.38397 0.13419 -0.19900
N 	N 	0.86925 0.34715 0.09495 -0.18300
N 	N 	0.12027 0.88397 0.63419 -0.19900
N 	N 	0.38397 0.62027 0.13419 -0.19900
N 	N 	0.78092 0.74302 0.63854 -0.17900
N 	N 	0.39837 0.08077 0.91189 -0.19800
N 	N 	0.60897 0.39837 0.91189 -0.19800
N 	N 	0.10163 0.89103 0.58811 -0.19800
N 	N 	0.89103 0.41923 0.58811 -0.19800
N 	N 	0.34715 0.68865 0.09495 -0.18300
N 	N 	0.61603 0.37973 0.86581 -0.19900
N 	N 	0.84715 0.36925 0.59495 -0.18300
N 	N 	0.88397 0.36157 0.63419 -0.19900
N 	N 	0.62027 0.86157 0.13419 -0.19900
N 	N 	0.28092 0.33752 0.13854 -0.17900
N 	N 	0.58077 0.89837 0.41189 -0.19800
N 	N 	0.11603 0.63843 0.36581 -0.19900
N 	N 	0.41923 0.10163 0.58811 -0.19800
N 	N 	0.13843 0.61603 0.86581 -0.19900
N 	N 	0.65285 0.31135 0.90505 -0.18300
N 	N 	0.08077 0.60897 0.91189 -0.19800
N 	N 	0.10897 0.58077 0.41189 -0.19800
N 	N 	0.83752 0.78092 0.63854 -0.17900
N 	N 	0.37973 0.13843 0.86581 -0.19900
N 	N 	0.60163 0.91923 0.08811 -0.19800
N 	N 	0.89837 0.10897 0.41189 -0.19800
N 	N 	0.18865 0.84715 0.59495 -0.18300
N 	N 	0.25698 0.16248 0.36146 -0.17900
N 	N 	0.66248 0.75698 0.86146 -0.17900
N 	N 	0.33752 0.24302 0.13854 -0.17900
N 	N 	0.63075 0.81135 0.40505 -0.18300
O 	O 	0.22896 0.29256 0.01512 -0.47200
O 	O 	0.75885 0.59645 0.02685 -0.49500
O 	O 	0.94452 0.37182 0.13014 -0.30000
O 	O 	0.15303 0.15303 0.54091 -0.87500
O 	O 	0.65535 0.56285 0.66065 -0.24100
O 	O 	0.79622 0.51222 0.78184 -0.23100
O 	O 	0.46336 0.22896 0.01512 -0.47200
O 	O 	0.30139 0.39799 0.91213 -0.47100
O 	O 	0.52104 0.09374 0.70358 -0.37700
O 	O 	0.43619 0.17289 0.99253 -0.46100
O 	O 	0.05309 0.61339 0.37943 -0.29900
O 	O 	0.29622 0.40972 0.28184 -0.23100
O 	O 	0.95346 0.87326 0.74882 -0.43900
O 	O 	0.37326 0.45346 0.24882 -0.43900
O 	O 	0.38477 0.66717 0.04869 -0.30300
O 	O 	0.99522 0.17392 0.54134 -0.46100
O 	O 	0.70402 0.79662 0.37064 -0.28700
O 	O 	0.69355 0.85785 0.14265 -0.27500
O 	O 	0.72896 0.96336 0.51512 -0.47200
O 	O 	0.55309 0.45409 0.87943 -0.29900
O 	O 	0.87182 0.44452 0.63014 -0.30000
O 	O 	0.34465 0.43715 0.33935 -0.24100
O 	O 	0.58070 0.67710 0.13020 -0.47900
O 	O 	0.00478 0.82608 0.45866 -0.46100
O 	O 	0.38800 0.41930 0.86980 -0.47900
O 	O 	0.05352 0.87182 0.63014 -0.30000
O 	O 	0.20101 0.12671 0.37697 -0.26900
O 	O 	0.06381 0.10161 0.50747 -0.46100
O 	O 	0.56285 0.12115 0.66065 -0.24100
O 	O 	0.87329 0.70469 0.62303 -0.26900
O 	O 	0.80139 0.88849 0.41213 -0.47100
O 	O 	0.38849 0.30139 0.91213 -0.47100
O 	O 	0.34078 0.04798 0.92836 -0.28400
O 	O 	0.90626 0.31836 0.29642 -0.37700
O 	O 	0.62818 0.44648 0.86986 -0.30000
O 	O 	0.88849 0.89799 0.41213 -0.47100
O 	O 	0.63077 0.03327 0.70349 -0.44400
O 	O 	0.32711 0.06381 0.50747 -0.46100
O 	O 	0.63117 0.03407 0.50459 -0.38400
O 	O 	0.20610 0.10500 0.49460 -0.48200
O 	O 	0.82711 0.60161 0.00747 -0.46100
O 	O 	0.04591 0.94691 0.62057 -0.29900
O 	O 	0.32256 0.48246 0.04602 -0.23400
O 	O 	0.03327 0.63247 0.70349 -0.44400
O 	O 	0.01222 0.29622 0.28184 -0.23100
O 	O 	0.88800 0.82290 0.36980 -0.47900
O 	O 	0.74115 0.88215 0.47315 -0.49500
O 	O 	0.64896 0.98246 0.54602 -0.23400
O 	O 	0.18288 0.54798 0.42836 -0.28400
O 	O 	0.79256 0.72896 0.51512 -0.47200
O 	O 	0.12671 0.29531 0.37697 -0.26900
O 	O 	0.17744 0.35104 0.45398 -0.23400
O 	O 	0.17392 0.28952 0.54134 -0.46100
O 	O 	0.63247 0.63077 0.70349 -0.44400
O 	O 	0.59645 0.61785 0.02685 -0.49500
O 	O 	0.68269 0.55039 0.05193 -0.49400
O 	O 	0.78952 0.67392 0.04134 -0.46100
O 	O 	0.50478 0.21048 0.95866 -0.46100
O 	O 	0.35785 0.19355 0.64265 -0.27500
O 	O 	0.70610 0.69430 0.99460 -0.48200
O 	O 	0.12115 0.65535 0.66065 -0.24100
O 	O 	0.11339 0.55309 0.87943 -0.29900
O 	O 	0.67744 0.51754 0.95398 -0.23400
O 	O 	0.98778 0.70378 0.71816 -0.23100
O 	O 	0.60500 0.70610 0.99460 -0.48200
O 	O 	0.70432 0.78682 0.66884 -0.28400
O 	O 	0.10500 0.19430 0.49460 -0.48200
O 	O 	0.62674 0.54654 0.75118 -0.43900
O 	O 	0.59028 0.98778 0.71816 -0.23100
O 	O 	0.79531 0.62671 0.87697 -0.26900
O 	O 	0.54113 0.11143 0.27371 -0.23400
O 	O 	0.15535 0.62115 0.16065 -0.24100
O 	O 	0.08070 0.11200 0.63020 -0.47900
O 	O 	0.16983 0.36883 0.49541 -0.38400
O 	O 	0.24115 0.40355 0.97315 -0.49500
O 	O 	0.78501 0.94961 0.44807 -0.49400
O 	O 	0.13247 0.53327 0.20349 -0.44400
O 	O 	0.12872 0.70402 0.37064 -0.28700
O 	O 	0.89500 0.80570 0.50540 -0.48200
O 	O 	0.32608 0.50478 0.95866 -0.46100
O 	O 	0.30570 0.39500 0.00540 -0.48200
O 	O 	0.36923 0.96673 0.29651 -0.44400
O 	O 	0.25885 0.11785 0.52685 -0.49500
O 	O 	0.62872 0.29662 0.87064 -0.28700
O 	O 	0.96336 0.79256 0.51512 -0.47200
O 	O 	0.80570 0.79390 0.50540 -0.48200
O 	O 	0.09028 0.20378 0.21816 -0.23100
O 	O 	0.85104 0.67744 0.95398 -0.23400
O 	O 	0.13077 0.13247 0.20349 -0.44400
O 	O 	0.13117 0.33017 0.00459 -0.38400
O 	O 	0.37885 0.93715 0.83935 -0.24100
O 	O 	0.14896 0.32256 0.04602 -0.23400
O 	O 	0.55039 0.71499 0.05193 -0.49400
O 	O 	0.53327 0.13077 0.20349 -0.44400
O 	O 	0.68164 0.52104 0.70358 -0.37700
O 	O 	0.69861 0.60201 0.08787 -0.47100
O 	O 	0.07554 0.62674 0.75118 -0.43900
O 	O 	0.71048 0.00478 0.45866 -0.46100
O 	O 	0.54798 0.84078 0.42836 -0.28400
O 	O 	0.42627 0.38857 0.22629 -0.23400
O 	O 	0.28682 0.20432 0.16884 -0.28400
O 	O 	0.89937 0.38477 0.04869 -0.30300
O 	O 	0.90355 0.74115 0.47315 -0.49500
O 	O 	0.94961 0.81731 0.44807 -0.49400
O 	O 	0.67710 0.61200 0.13020 -0.47900
O 	O 	0.64215 0.80645 0.35735 -0.27500
O 	O 	0.82608 0.71048 0.45866 -0.46100
O 	O 	0.04113 0.57373 0.77371 -0.23400
O 	O 	0.03664 0.20744 0.48488 -0.47200
O 	O 	0.20338 0.87128 0.62936 -0.28700
O 	O 	0.44691 0.54591 0.12057 -0.29900
O 	O 	0.87885 0.34465 0.33935 -0.24100
O 	O 	0.27104 0.03664 0.48488 -0.47200
O 	O 	0.21048 0.32608 0.95866 -0.46100
O 	O 	0.69405 0.30645 0.85735 -0.27500
O 	O 	0.29598 0.20338 0.62936 -0.28700
O 	O 	0.04654 0.12674 0.25118 -0.43900
O 	O 	0.18164 0.59374 0.20358 -0.37700
O 	O 	0.39500 0.29390 0.00540 -0.48200
O 	O 	0.40355 0.38215 0.97315 -0.49500
O 	O 	0.57554 0.04654 0.25118 -0.43900
O 	O 	0.45346 0.92446 0.24882 -0.43900
O 	O 	0.86923 0.86753 0.79651 -0.44400
O 	O 	0.61143 0.04113 0.77371 -0.23400
O 	O 	0.30595 0.69355 0.14265 -0.27500
O 	O 	0.20432 0.34002 0.16884 -0.28400
O 	O 	0.14215 0.69405 0.85735 -0.27500
O 	O 	0.29568 0.21318 0.33116 -0.28400
O 	O 	0.79899 0.87329 0.62303 -0.26900
O 	O 	0.39799 0.38849 0.91213 -0.47100
O 	O 	0.20378 0.48778 0.21816 -0.23100
O 	O 	0.97896 0.81836 0.79642 -0.37700
O 	O 	0.69430 0.60500 0.99460 -0.48200
O 	O 	0.40626 0.97896 0.79642 -0.37700
O 	O 	0.79598 0.37128 0.12936 -0.28700
O 	O 	0.82290 0.91930 0.36980 -0.47900
O 	O 	0.84002 0.70432 0.66884 -0.28400
O 	O 	0.45409 0.11339 0.87943 -0.29900
O 	O 	0.38215 0.24115 0.97315 -0.49500
O 	O 	0.84465 0.37885 0.83935 -0.24100
O 	O 	0.98246 0.82256 0.54602 -0.23400
O 	O 	0.29256 0.46336 0.01512 -0.47200
O 	O 	0.31712 0.65922 0.07164 -0.28400
O 	O 	0.91930 0.88800 0.36980 -0.47900
O 	O 	0.10201 0.19861 0.58787 -0.47100
O 	O 	0.33283 0.10063 0.95131 -0.30300
O 	O 	0.36883 0.96593 0.49541 -0.38400
O 	O 	0.78682 0.84002 0.66884 -0.28400
O 	O 	0.44648 0.05548 0.86986 -0.30000
O 	O 	0.05039 0.18269 0.55193 -0.49400
O 	O 	0.37128 0.70338 0.12936 -0.28700
O 	O 	0.44452 0.05352 0.63014 -0.30000
O 	O 	0.47896 0.90626 0.29642 -0.37700
O 	O 	0.70101 0.79531 0.87697 -0.26900
O 	O 	0.51222 0.90972 0.78184 -0.23100
O 	O 	0.10063 0.61523 0.95131 -0.30300
O 	O 	0.53407 0.13117 0.00459 -0.38400
O 	O 	0.36753 0.36923 0.29651 -0.44400
O 	O 	0.81836 0.40626 0.79642 -0.37700
O 	O 	0.95202 0.31712 0.07164 -0.28400
O 	O 	0.39839 0.43619 0.99253 -0.46100
O 	O 	0.70338 0.79598 0.12936 -0.28700
O 	O 	0.41930 0.32290 0.86980 -0.47900
O 	O 	0.34002 0.28682 0.16884 -0.28400
O 	O 	0.09374 0.68164 0.70358 -0.37700
O 	O 	0.56381 0.82711 0.00747 -0.46100
O 	O 	0.03407 0.83017 0.50459 -0.38400
O 	O 	0.61339 0.95409 0.37943 -0.29900
O 	O 	0.12674 0.57554 0.25118 -0.43900
O 	O 	0.19861 0.11151 0.58787 -0.47100
O 	O 	0.18269 0.21499 0.55193 -0.49400
O 	O 	0.04798 0.68288 0.92836 -0.28400
O 	O 	0.68288 0.34078 0.92836 -0.28400
O 	O 	0.71499 0.68269 0.05193 -0.49400
O 	O 	0.31836 0.47896 0.29642 -0.37700
O 	O 	0.48246 0.14896 0.04602 -0.23400
O 	O 	0.11523 0.60063 0.45131 -0.30300
O 	O 	0.66983 0.46593 0.99541 -0.38400
O 	O 	0.55352 0.94452 0.13014 -0.30000
O 	O 	0.95409 0.05309 0.37943 -0.29900
O 	O 	0.28952 0.99522 0.54134 -0.46100
O 	O 	0.61151 0.69861 0.08787 -0.47100
O 	O 	0.35104 0.01754 0.45398 -0.23400
O 	O 	0.01754 0.17744 0.45398 -0.23400
O 	O 	0.81731 0.78501 0.44807 -0.49400
O 	O 	0.29531 0.20101 0.37697 -0.26900
O 	O 	0.37182 0.55352 0.13014 -0.30000
O 	O 	0.60063 0.83283 0.45131 -0.30300
O 	O 	0.88857 0.92627 0.72629 -0.23400
O 	O 	0.31731 0.44961 0.94807 -0.49400
O 	O 	0.54591 0.88661 0.12057 -0.29900
O 	O 	0.61200 0.58070 0.13020 -0.47900
O 	O 	0.33017 0.53407 0.00459 -0.38400
O 	O 	0.96673 0.36753 0.29651 -0.44400
O 	O 	0.10161 0.32711 0.50747 -0.46100
O 	O 	0.45887 0.88857 0.72629 -0.23400
O 	O 	0.30645 0.14215 0.85735 -0.27500
O 	O 	0.57373 0.61143 0.77371 -0.23400
O 	O 	0.65998 0.71318 0.83116 -0.28400
O 	O 	0.15922 0.81712 0.57164 -0.28400
O 	O 	0.17289 0.39839 0.99253 -0.46100
O 	O 	0.53664 0.77104 0.98488 -0.47200
O 	O 	0.62671 0.70101 0.87697 -0.26900
O 	O 	0.95887 0.42627 0.22629 -0.23400
O 	O 	0.60161 0.56381 0.00747 -0.46100
O 	O 	0.51754 0.85104 0.95398 -0.23400
O 	O 	0.21499 0.05039 0.55193 -0.49400
O 	O 	0.11200 0.17710 0.63020 -0.47900
O 	O 	0.81712 0.45202 0.57164 -0.28400
O 	O 	0.84078 0.18288 0.42836 -0.28400
O 	O 	0.86753 0.46673 0.79651 -0.44400
O 	O 	0.19355 0.80595 0.64265 -0.27500
O 	O 	0.89839 0.67289 0.49253 -0.46100
O 	O 	0.20402 0.62872 0.87064 -0.28700
O 	O 	0.38661 0.04591 0.62057 -0.29900
O 	O 	0.67289 0.93619 0.49253 -0.46100
O 	O 	0.84697 0.84697 0.45909 -0.87500
O 	O 	0.66717 0.89937 0.04869 -0.30300
O 	O 	0.38857 0.95887 0.22629 -0.23400
O 	O 	0.83283 0.11523 0.45131 -0.30300
O 	O 	0.87128 0.29598 0.62936 -0.28700
O 	O 	0.79662 0.12872 0.37064 -0.28700
O 	O 	0.62115 0.06285 0.16065 -0.24100
O 	O 	0.89799 0.80139 0.41213 -0.47100
O 	O 	0.94648 0.12818 0.36986 -0.30000
O 	O 	0.61523 0.33283 0.95131 -0.30300
O 	O 	0.02104 0.18164 0.20358 -0.37700
O 	O 	0.45202 0.15922 0.57164 -0.28400
O 	O 	0.92627 0.45887 0.72629 -0.23400
O 	O 	0.88215 0.90355 0.47315 -0.49500
O 	O 	0.29390 0.30570 0.00540 -0.48200
O 	O 	0.65922 0.95202 0.07164 -0.28400
O 	O 	0.59374 0.02104 0.20358 -0.37700
O 	O 	0.86883 0.66983 0.99541 -0.38400
O 	O 	0.93619 0.89839 0.49253 -0.46100
O 	O 	0.43715 0.87885 0.33935 -0.24100
O 	O 	0.61785 0.75885 0.02685 -0.49500
O 	O 	0.42446 0.95346 0.74882 -0.43900
O 	O 	0.87326 0.42446 0.74882 -0.43900
O 	O 	0.29899 0.20469 0.12303 -0.26900
O 	O 	0.79390 0.89500 0.50540 -0.48200
O 	O 	0.71318 0.79568 0.83116 -0.28400
O 	O 	0.12818 0.55548 0.36986 -0.30000
O 	O 	0.11151 0.10201 0.58787 -0.47100
O 	O 	0.55548 0.94648 0.36986 -0.30000
O 	O 	0.11785 0.09645 0.52685 -0.49500
O 	O 	0.83017 0.63117 0.50459 -0.38400
O 	O 	0.32290 0.38800 0.86980 -0.47900
O 	O 	0.70378 0.59028 0.71816 -0.23100
O 	O 	0.46673 0.86923 0.79651 -0.44400
O 	O 	0.49522 0.78952 0.04134 -0.46100
O 	O 	0.11143 0.07373 0.27371 -0.23400
O 	O 	0.93715 0.84465 0.83935 -0.24100
O 	O 	0.19430 0.20610 0.49460 -0.48200
O 	O 	0.65303 0.65303 0.04091 -0.87500
O 	O 	0.28501 0.31731 0.94807 -0.49400
O 	O 	0.40972 0.01222 0.28184 -0.23100
O 	O 	0.39937 0.16717 0.54869 -0.30300
O 	O 	0.07373 0.54113 0.27371 -0.23400
O 	O 	0.44961 0.28501 0.94807 -0.49400
O 	O 	0.20469 0.37329 0.12303 -0.26900
O 	O 	0.77104 0.70744 0.98488 -0.47200
O 	O 	0.92446 0.37326 0.24882 -0.43900
O 	O 	0.06285 0.15535 0.16065 -0.24100
O 	O 	0.34697 0.34697 0.95909 -0.87500
O 	O 	0.60201 0.61151 0.08787 -0.47100
O 	O 	0.48778 0.09028 0.21816 -0.23100
O 	O 	0.79568 0.65998 0.83116 -0.28400
O 	O 	0.70744 0.53664 0.98488 -0.47200
O 	O 	0.54654 0.07554 0.75118 -0.43900
O 	O 	0.21318 0.15998 0.33116 -0.28400
O 	O 	0.05548 0.62818 0.86986 -0.30000
O 	O 	0.29662 0.20402 0.87064 -0.28700
O 	O 	0.16717 0.88477 0.54869 -0.30300
O 	O 	0.80645 0.19405 0.35735 -0.27500
O 	O 	0.88477 0.39937 0.54869 -0.30300
O 	O 	0.37329 0.29899 0.12303 -0.26900
O 	O 	0.19405 0.64215 0.35735 -0.27500
O 	O 	0.80595 0.35785 0.64265 -0.27500
O 	O 	0.70469 0.79899 0.62303 -0.26900
O 	O 	0.90972 0.79622 0.78184 -0.23100
O 	O 	0.82256 0.64896 0.54602 -0.23400
O 	O 	0.15998 0.29568 0.33116 -0.28400
O 	O 	0.09645 0.25885 0.52685 -0.49500
O 	O 	0.20744 0.27104 0.48488 -0.47200
O 	O 	0.67392 0.49522 0.04134 -0.46100
O 	O 	0.85785 0.30595 0.14265 -0.27500
O 	O 	0.17710 0.08070 0.63020 -0.47900
O 	O 	0.88661 0.44691 0.12057 -0.29900
O 	O 	0.96593 0.16983 0.49541 -0.38400
O 	O 	0.94691 0.38661 0.62057 -0.29900
O 	O 	0.46593 0.86883 0.99541 -0.38400
