data_crystal

_cell_length_a 37.32200
_cell_length_b 72.64000
_cell_length_c 7.07400
_cell_angle_alpha 90.00000
_cell_angle_beta  90.00000
_cell_angle_gamma 90.00000

_symmetry_space_group_name_	'P 1'
_symmetry_space_group_name_H-M	'P 1'

loop_
_symmetry_equiv_pos_as_xyz
  x,y,z

loop_
_atom_site_label
_atom_site_type_symbol
_atom_site_fract_x
_atom_site_fract_y
_atom_site_fract_z
_atom_site_charge
Cd	Cd	0.38144 0.06951 0.49306 1.23000
C 	C 	0.15460 0.06193 0.37500 -0.00600
C 	C 	0.17810 0.06366 0.19760 0.03300
H 	H 	0.17520 0.05300 0.11620 0.03300
H 	H 	0.17200 0.07470 0.12680 0.03800
C 	C 	0.24030 0.06633 0.13750 0.32100
C 	C 	0.23520 0.06900 0.94500 -0.30900
H 	H 	0.21210 0.06980 0.89670 0.13700
C 	C 	0.26440 0.07050 0.82600 0.19200
H 	H 	0.26090 0.07230 0.69700 -0.01700
C 	C 	0.29870 0.06943 0.89680 -0.23100
C 	C 	0.30390 0.06668 0.08970 0.19500
H 	H 	0.32700 0.06590 0.13830 -0.04400
C 	C 	0.27450 0.06510 0.20970 -0.30900
H 	H 	0.27800 0.06320 0.33850 0.16900
C 	C 	0.33110 0.06798 0.76380 0.41800
C 	C 	0.16250 0.04100 0.43900 0.04400
H 	H 	0.15370 0.03240 0.34540 0.02200
H 	H 	0.18800 0.03910 0.45670 0.03700
C 	C 	0.14040 0.02060 0.65400 0.26600
C 	C 	0.14580 0.00560 0.53500 -0.27800
H 	H 	0.15280 0.00750 0.41010 0.13200
C 	C 	0.14070 0.98780 0.60200 0.17700
H 	H 	0.14430 0.97780 0.52250 -0.03800
C 	C 	0.13020 0.98504 0.78700 -0.24400
C 	C 	0.12480 0.00010 0.90700 0.13700
H 	H 	0.11780 0.99820 0.03150 0.00400
C 	C 	0.12990 0.01780 0.84000 -0.26200
H 	H 	0.12630 0.02780 0.91950 0.13100
C 	C 	0.12530 0.96701 0.86900 0.42900
C 	C 	0.16300 0.07352 0.55500 0.00900
H 	H 	0.14530 0.07150 0.65380 0.04100
H 	H 	0.18670 0.07090 0.60410 0.04700
C 	C 	0.15520 0.10430 0.64400 0.23600
C 	C 	0.16130 0.10160 0.83400 -0.24400
H 	H 	0.17030 0.09030 0.87560 0.11400
C 	C 	0.15430 0.11530 0.96300 0.14500
H 	H 	0.15860 0.11330 0.09060 0.00000
C 	C 	0.14090 0.13210 0.90200 -0.20800
C 	C 	0.13500 0.13480 0.71100 0.15300
H 	H 	0.12630 0.14600 0.66870 -0.03100
C 	C 	0.14170 0.12100 0.58300 -0.25800
H 	H 	0.13730 0.12300 0.45550 0.15000
C 	C 	0.13480 0.14856 0.02600 0.38600
C 	C 	0.11400 0.06480 0.32200 0.09000
H 	H 	0.09950 0.05720 0.40440 0.01600
H 	H 	0.10760 0.07750 0.34550 0.02200
C 	C 	0.07070 0.06160 0.08100 0.34700
C 	C 	0.04390 0.06930 0.18800 -0.35100
H 	H 	0.04920 0.07400 0.30710 0.15700
C 	C 	0.00930 0.06990 0.12200 0.24800
H 	H 	0.99140 0.07510 0.19600 -0.05600
C 	C 	0.00100 0.06280 0.94600 -0.27200
C 	C 	0.02800 0.05510 0.83800 0.23200
H 	H 	0.02270 0.05030 0.71930 -0.04500
C 	C 	0.06240 0.05450 0.90400 -0.35900
H 	H 	0.08040 0.04940 0.82950 0.16600
C 	C 	0.96320 0.06310 0.88600 0.36100
O 	O 	0.21417 0.06472 0.26720 -0.25700
O 	O 	0.36160 0.06743 0.81260 -0.55900
O 	O 	0.32280 0.06945 0.58330 -0.39700
O 	O 	0.14450 0.03929 0.60500 -0.25500
O 	O 	0.11730 0.96529 0.03290 -0.39500
O 	O 	0.12610 0.95312 0.76450 -0.54000
O 	O 	0.16060 0.09172 0.47780 -0.21000
O 	O 	0.13340 0.14660 0.20600 -0.37500
O 	O 	0.13370 0.16441 0.95620 -0.53800
O 	O 	0.10620 0.06083 0.14740 -0.28200
O 	O 	0.94030 0.06752 0.02110 -0.44000
O 	O 	0.95540 0.06137 0.70450 -0.46400
Cd	Cd	0.40744 0.06273 0.03402 1.20200
Cd	Cd	0.38144 0.56951 0.99306 1.22500
C 	C 	0.15460 0.56193 0.87500 -0.00900
C 	C 	0.17810 0.56366 0.69760 0.03700
H 	H 	0.17520 0.55300 0.61620 0.03000
H 	H 	0.17200 0.57470 0.62680 0.03600
C 	C 	0.24030 0.56633 0.63750 0.31400
C 	C 	0.23520 0.56900 0.44500 -0.29900
H 	H 	0.21210 0.56980 0.39670 0.13600
C 	C 	0.26440 0.57050 0.32600 0.18700
H 	H 	0.26090 0.57230 0.19700 -0.01200
C 	C 	0.29870 0.56943 0.39680 -0.22500
C 	C 	0.30390 0.56668 0.58970 0.19000
H 	H 	0.32700 0.56590 0.63830 -0.04200
C 	C 	0.27450 0.56510 0.70970 -0.30200
H 	H 	0.27800 0.56320 0.83850 0.16300
C 	C 	0.33110 0.56798 0.26380 0.41600
C 	C 	0.16250 0.54100 0.93900 0.04400
H 	H 	0.15370 0.53240 0.84540 0.02000
H 	H 	0.18800 0.53910 0.95670 0.03500
C 	C 	0.14040 0.52060 0.15400 0.28500
C 	C 	0.14580 0.50560 0.03500 -0.29300
H 	H 	0.15280 0.50750 0.91010 0.13500
C 	C 	0.14070 0.48780 0.10200 0.20200
H 	H 	0.14430 0.47780 0.02250 -0.04600
C 	C 	0.13020 0.48504 0.28700 -0.27800
C 	C 	0.12480 0.50010 0.40700 0.19900
H 	H 	0.11780 0.49820 0.53150 -0.02800
C 	C 	0.12990 0.51780 0.34000 -0.29800
H 	H 	0.12630 0.52780 0.41950 0.14800
C 	C 	0.12530 0.46701 0.36900 0.46700
C 	C 	0.16300 0.57352 0.05500 0.01900
H 	H 	0.14530 0.57150 0.15380 0.04000
H 	H 	0.18670 0.57090 0.10410 0.04600
C 	C 	0.15520 0.60430 0.14400 0.24200
C 	C 	0.16130 0.60160 0.33400 -0.25100
H 	H 	0.17030 0.59030 0.37560 0.11800
C 	C 	0.15430 0.61530 0.46300 0.15600
H 	H 	0.15860 0.61330 0.59060 -0.00500
C 	C 	0.14090 0.63210 0.40200 -0.21100
C 	C 	0.13500 0.63480 0.21100 0.15600
H 	H 	0.12630 0.64600 0.16870 -0.03200
C 	C 	0.14170 0.62100 0.08300 -0.26000
H 	H 	0.13730 0.62300 0.95550 0.15000
C 	C 	0.13480 0.64856 0.52600 0.38600
C 	C 	0.11400 0.56480 0.82200 0.08600
H 	H 	0.09950 0.55720 0.90440 0.01800
H 	H 	0.10760 0.57750 0.84550 0.02400
C 	C 	0.07070 0.56160 0.58100 0.30300
C 	C 	0.04390 0.56930 0.68800 -0.30900
H 	H 	0.04920 0.57400 0.80710 0.14200
C 	C 	0.00930 0.56990 0.62200 0.19300
H 	H 	0.99140 0.57510 0.69600 -0.03900
C 	C 	0.00100 0.56280 0.44600 -0.23000
C 	C 	0.02800 0.55510 0.33800 0.19200
H 	H 	0.02270 0.55030 0.21930 -0.03100
C 	C 	0.06240 0.55450 0.40400 -0.30600
H 	H 	0.08040 0.54940 0.32950 0.15000
C 	C 	0.96320 0.56310 0.38600 0.36600
O 	O 	0.21417 0.56472 0.76720 -0.25800
O 	O 	0.36160 0.56743 0.31260 -0.55700
O 	O 	0.32280 0.56945 0.08330 -0.38900
O 	O 	0.14450 0.53929 0.10500 -0.25600
O 	O 	0.11730 0.46529 0.53290 -0.41800
O 	O 	0.12610 0.45312 0.26450 -0.54600
O 	O 	0.16060 0.59172 0.97780 -0.21600
O 	O 	0.13340 0.64660 0.70600 -0.37500
O 	O 	0.13370 0.66441 0.45620 -0.53800
O 	O 	0.10620 0.56083 0.64740 -0.27500
O 	O 	0.94030 0.56752 0.52110 -0.45400
O 	O 	0.95540 0.56137 0.20450 -0.46500
Cd	Cd	0.40744 0.56273 0.53402 1.20200
Cd	Cd	0.88144 0.06951 0.99306 1.22500
C 	C 	0.65460 0.06193 0.87500 -0.00900
C 	C 	0.67810 0.06366 0.69760 0.03700
H 	H 	0.67520 0.05300 0.61620 0.03000
H 	H 	0.67200 0.07470 0.62680 0.03600
C 	C 	0.74030 0.06633 0.63750 0.31400
C 	C 	0.73520 0.06900 0.44500 -0.29900
H 	H 	0.71210 0.06980 0.39670 0.13600
C 	C 	0.76440 0.07050 0.32600 0.18700
H 	H 	0.76090 0.07230 0.19700 -0.01200
C 	C 	0.79870 0.06943 0.39680 -0.22500
C 	C 	0.80390 0.06668 0.58970 0.19000
H 	H 	0.82700 0.06590 0.63830 -0.04200
C 	C 	0.77450 0.06510 0.70970 -0.30200
H 	H 	0.77800 0.06320 0.83850 0.16300
C 	C 	0.83110 0.06798 0.26380 0.41600
C 	C 	0.66250 0.04100 0.93900 0.04400
H 	H 	0.65370 0.03240 0.84540 0.02000
H 	H 	0.68800 0.03910 0.95670 0.03500
C 	C 	0.64040 0.02060 0.15400 0.28500
C 	C 	0.64580 0.00560 0.03500 -0.29300
H 	H 	0.65280 0.00750 0.91010 0.13500
C 	C 	0.64070 0.98780 0.10200 0.20200
H 	H 	0.64430 0.97780 0.02250 -0.04600
C 	C 	0.63020 0.98504 0.28700 -0.27800
C 	C 	0.62480 0.00010 0.40700 0.19900
H 	H 	0.61780 0.99820 0.53150 -0.02800
C 	C 	0.62990 0.01780 0.34000 -0.29800
H 	H 	0.62630 0.02780 0.41950 0.14800
C 	C 	0.62530 0.96701 0.36900 0.46700
C 	C 	0.66300 0.07352 0.05500 0.01900
H 	H 	0.64530 0.07150 0.15380 0.04000
H 	H 	0.68670 0.07090 0.10410 0.04600
C 	C 	0.65520 0.10430 0.14400 0.24200
C 	C 	0.66130 0.10160 0.33400 -0.25100
H 	H 	0.67030 0.09030 0.37560 0.11800
C 	C 	0.65430 0.11530 0.46300 0.15600
H 	H 	0.65860 0.11330 0.59060 -0.00500
C 	C 	0.64090 0.13210 0.40200 -0.21100
C 	C 	0.63500 0.13480 0.21100 0.15600
H 	H 	0.62630 0.14600 0.16870 -0.03200
C 	C 	0.64170 0.12100 0.08300 -0.26000
H 	H 	0.63730 0.12300 0.95550 0.15000
C 	C 	0.63480 0.14856 0.52600 0.38600
C 	C 	0.61400 0.06480 0.82200 0.08600
H 	H 	0.59950 0.05720 0.90440 0.01800
H 	H 	0.60760 0.07750 0.84550 0.02400
C 	C 	0.57070 0.06160 0.58100 0.30300
C 	C 	0.54390 0.06930 0.68800 -0.30900
H 	H 	0.54920 0.07400 0.80710 0.14200
C 	C 	0.50930 0.06990 0.62200 0.19300
H 	H 	0.49140 0.07510 0.69600 -0.03900
C 	C 	0.50100 0.06280 0.44600 -0.23000
C 	C 	0.52800 0.05510 0.33800 0.19200
H 	H 	0.52270 0.05030 0.21930 -0.03100
C 	C 	0.56240 0.05450 0.40400 -0.30600
H 	H 	0.58040 0.04940 0.32950 0.15000
C 	C 	0.46320 0.06310 0.38600 0.36600
O 	O 	0.71417 0.06472 0.76720 -0.25800
O 	O 	0.86160 0.06743 0.31260 -0.55700
O 	O 	0.82280 0.06945 0.08330 -0.38900
O 	O 	0.64450 0.03929 0.10500 -0.25600
O 	O 	0.61730 0.96529 0.53290 -0.41800
O 	O 	0.62610 0.95312 0.26450 -0.54600
O 	O 	0.66060 0.09172 0.97780 -0.21600
O 	O 	0.63340 0.14660 0.70600 -0.37500
O 	O 	0.63370 0.16441 0.45620 -0.53800
O 	O 	0.60620 0.06083 0.64740 -0.27500
O 	O 	0.44030 0.06752 0.52110 -0.45400
O 	O 	0.45540 0.06137 0.20450 -0.46500
Cd	Cd	0.90744 0.06273 0.53402 1.20200
Cd	Cd	0.88144 0.56951 0.49306 1.23100
C 	C 	0.65460 0.56193 0.37500 -0.00500
C 	C 	0.67810 0.56366 0.19760 0.03400
H 	H 	0.67520 0.55300 0.11620 0.03400
H 	H 	0.67200 0.57470 0.12680 0.03900
C 	C 	0.74030 0.56633 0.13750 0.32200
C 	C 	0.73520 0.56900 0.94500 -0.30800
H 	H 	0.71210 0.56980 0.89670 0.13800
C 	C 	0.76440 0.57050 0.82600 0.19300
H 	H 	0.76090 0.57230 0.69700 -0.01600
C 	C 	0.79870 0.56943 0.89680 -0.23000
C 	C 	0.80390 0.56668 0.08970 0.19600
H 	H 	0.82700 0.56590 0.13830 -0.04300
C 	C 	0.77450 0.56510 0.20970 -0.30800
H 	H 	0.77800 0.56320 0.33850 0.16900
C 	C 	0.83110 0.56798 0.76380 0.41800
C 	C 	0.66250 0.54100 0.43900 0.04400
H 	H 	0.65370 0.53240 0.34540 0.02200
H 	H 	0.68800 0.53910 0.45670 0.03700
C 	C 	0.64040 0.52060 0.65400 0.26600
C 	C 	0.64580 0.50560 0.53500 -0.27800
H 	H 	0.65280 0.50750 0.41010 0.13200
C 	C 	0.64070 0.48780 0.60200 0.17700
H 	H 	0.64430 0.47780 0.52250 -0.03800
C 	C 	0.63020 0.48504 0.78700 -0.24400
C 	C 	0.62480 0.50010 0.90700 0.13700
H 	H 	0.61780 0.49820 0.03150 0.00400
C 	C 	0.62990 0.51780 0.84000 -0.26200
H 	H 	0.62630 0.52780 0.91950 0.13100
C 	C 	0.62530 0.46701 0.86900 0.42900
C 	C 	0.66300 0.57352 0.55500 0.00900
H 	H 	0.64530 0.57150 0.65380 0.04100
H 	H 	0.68670 0.57090 0.60410 0.04700
C 	C 	0.65520 0.60430 0.64400 0.23600
C 	C 	0.66130 0.60160 0.83400 -0.24400
H 	H 	0.67030 0.59030 0.87560 0.11400
C 	C 	0.65430 0.61530 0.96300 0.14500
H 	H 	0.65860 0.61330 0.09060 0.00000
C 	C 	0.64090 0.63210 0.90200 -0.20800
C 	C 	0.63500 0.63480 0.71100 0.15300
H 	H 	0.62630 0.64600 0.66870 -0.03100
C 	C 	0.64170 0.62100 0.58300 -0.25800
H 	H 	0.63730 0.62300 0.45550 0.15000
C 	C 	0.63480 0.64856 0.02600 0.38600
C 	C 	0.61400 0.56480 0.32200 0.09000
H 	H 	0.59950 0.55720 0.40440 0.01600
H 	H 	0.60760 0.57750 0.34550 0.02200
C 	C 	0.57070 0.56160 0.08100 0.34800
C 	C 	0.54390 0.56930 0.18800 -0.35100
H 	H 	0.54920 0.57400 0.30710 0.15700
C 	C 	0.50930 0.56990 0.12200 0.24800
H 	H 	0.49140 0.57510 0.19600 -0.05600
C 	C 	0.50100 0.56280 0.94600 -0.27200
C 	C 	0.52800 0.55510 0.83800 0.23200
H 	H 	0.52270 0.55030 0.71930 -0.04500
C 	C 	0.56240 0.55450 0.90400 -0.35900
H 	H 	0.58040 0.54940 0.82950 0.16600
C 	C 	0.46320 0.56310 0.88600 0.36100
O 	O 	0.71417 0.56472 0.26720 -0.25700
O 	O 	0.86160 0.56743 0.81260 -0.55900
O 	O 	0.82280 0.56945 0.58330 -0.39700
O 	O 	0.64450 0.53929 0.60500 -0.25500
O 	O 	0.61730 0.46529 0.03290 -0.39500
O 	O 	0.62610 0.45312 0.76450 -0.54000
O 	O 	0.66060 0.59172 0.47780 -0.21000
O 	O 	0.63340 0.64660 0.20600 -0.37500
O 	O 	0.63370 0.66441 0.95620 -0.53800
O 	O 	0.60620 0.56083 0.14740 -0.28200
O 	O 	0.44030 0.56752 0.02110 -0.44000
O 	O 	0.45540 0.56137 0.70450 -0.46400
Cd	Cd	0.90744 0.56273 0.03402 1.20200
Cd	Cd	0.61856 0.93049 0.49306 1.23100
C 	C 	0.84540 0.93807 0.37500 -0.00500
C 	C 	0.82190 0.93634 0.19760 0.03400
H 	H 	0.82480 0.94700 0.11620 0.03400
H 	H 	0.82800 0.92530 0.12680 0.03900
C 	C 	0.75970 0.93367 0.13750 0.32200
C 	C 	0.76480 0.93100 0.94500 -0.30800
H 	H 	0.78790 0.93020 0.89670 0.13800
C 	C 	0.73560 0.92950 0.82600 0.19300
H 	H 	0.73910 0.92770 0.69700 -0.01600
C 	C 	0.70130 0.93057 0.89680 -0.23000
C 	C 	0.69610 0.93332 0.08970 0.19600
H 	H 	0.67300 0.93410 0.13830 -0.04300
C 	C 	0.72550 0.93490 0.20970 -0.30800
H 	H 	0.72200 0.93680 0.33850 0.16900
C 	C 	0.66890 0.93202 0.76380 0.41800
C 	C 	0.83750 0.95900 0.43900 0.04400
H 	H 	0.84630 0.96760 0.34540 0.02200
H 	H 	0.81200 0.96090 0.45670 0.03700
C 	C 	0.85960 0.97940 0.65400 0.26600
C 	C 	0.85420 0.99440 0.53500 -0.27800
H 	H 	0.84720 0.99250 0.41010 0.13200
C 	C 	0.85930 0.01220 0.60200 0.17700
H 	H 	0.85570 0.02220 0.52250 -0.03800
C 	C 	0.86980 0.01496 0.78700 -0.24400
C 	C 	0.87520 0.99990 0.90700 0.13700
H 	H 	0.88220 0.00180 0.03150 0.00400
C 	C 	0.87010 0.98220 0.84000 -0.26200
H 	H 	0.87370 0.97220 0.91950 0.13100
C 	C 	0.87470 0.03299 0.86900 0.42900
C 	C 	0.83700 0.92648 0.55500 0.00900
H 	H 	0.85470 0.92850 0.65380 0.04100
H 	H 	0.81330 0.92910 0.60410 0.04700
C 	C 	0.84480 0.89570 0.64400 0.23600
C 	C 	0.83870 0.89840 0.83400 -0.24400
H 	H 	0.82970 0.90970 0.87560 0.11400
C 	C 	0.84570 0.88470 0.96300 0.14500
H 	H 	0.84140 0.88670 0.09060 0.00000
C 	C 	0.85910 0.86790 0.90200 -0.20800
C 	C 	0.86500 0.86520 0.71100 0.15300
H 	H 	0.87370 0.85400 0.66870 -0.03100
C 	C 	0.85830 0.87900 0.58300 -0.25800
H 	H 	0.86270 0.87700 0.45550 0.15000
C 	C 	0.86520 0.85144 0.02600 0.38600
C 	C 	0.88600 0.93520 0.32200 0.09000
H 	H 	0.90050 0.94280 0.40440 0.01600
H 	H 	0.89240 0.92250 0.34550 0.02200
C 	C 	0.92930 0.93840 0.08100 0.34700
C 	C 	0.95610 0.93070 0.18800 -0.35100
H 	H 	0.95080 0.92600 0.30710 0.15700
C 	C 	0.99070 0.93010 0.12200 0.24800
H 	H 	0.00860 0.92490 0.19600 -0.05600
C 	C 	0.99900 0.93720 0.94600 -0.27200
C 	C 	0.97200 0.94490 0.83800 0.23200
H 	H 	0.97730 0.94970 0.71930 -0.04500
C 	C 	0.93760 0.94550 0.90400 -0.35900
H 	H 	0.91960 0.95060 0.82950 0.16600
C 	C 	0.03680 0.93690 0.88600 0.36100
O 	O 	0.78583 0.93528 0.26720 -0.25700
O 	O 	0.63840 0.93257 0.81260 -0.55900
O 	O 	0.67720 0.93055 0.58330 -0.39700
O 	O 	0.85550 0.96071 0.60500 -0.25500
O 	O 	0.88270 0.03471 0.03290 -0.39500
O 	O 	0.87390 0.04688 0.76450 -0.54000
O 	O 	0.83940 0.90828 0.47780 -0.21000
O 	O 	0.86660 0.85340 0.20600 -0.37500
O 	O 	0.86630 0.83559 0.95620 -0.53800
O 	O 	0.89380 0.93917 0.14740 -0.28200
O 	O 	0.05970 0.93248 0.02110 -0.44000
O 	O 	0.04460 0.93863 0.70450 -0.46400
Cd	Cd	0.59256 0.93727 0.03402 1.20200
Cd	Cd	0.61856 0.43049 0.99306 1.22500
C 	C 	0.84540 0.43807 0.87500 -0.00900
C 	C 	0.82190 0.43634 0.69760 0.03700
H 	H 	0.82480 0.44700 0.61620 0.03000
H 	H 	0.82800 0.42530 0.62680 0.03600
C 	C 	0.75970 0.43367 0.63750 0.31400
C 	C 	0.76480 0.43100 0.44500 -0.29900
H 	H 	0.78790 0.43020 0.39670 0.13600
C 	C 	0.73560 0.42950 0.32600 0.18700
H 	H 	0.73910 0.42770 0.19700 -0.01200
C 	C 	0.70130 0.43057 0.39680 -0.22500
C 	C 	0.69610 0.43332 0.58970 0.19000
H 	H 	0.67300 0.43410 0.63830 -0.04200
C 	C 	0.72550 0.43490 0.70970 -0.30200
H 	H 	0.72200 0.43680 0.83850 0.16300
C 	C 	0.66890 0.43202 0.26380 0.41600
C 	C 	0.83750 0.45900 0.93900 0.04400
H 	H 	0.84630 0.46760 0.84540 0.02000
H 	H 	0.81200 0.46090 0.95670 0.03500
C 	C 	0.85960 0.47940 0.15400 0.28500
C 	C 	0.85420 0.49440 0.03500 -0.29300
H 	H 	0.84720 0.49250 0.91010 0.13500
C 	C 	0.85930 0.51220 0.10200 0.20200
H 	H 	0.85570 0.52220 0.02250 -0.04600
C 	C 	0.86980 0.51496 0.28700 -0.27800
C 	C 	0.87520 0.49990 0.40700 0.19900
H 	H 	0.88220 0.50180 0.53150 -0.02800
C 	C 	0.87010 0.48220 0.34000 -0.29800
H 	H 	0.87370 0.47220 0.41950 0.14800
C 	C 	0.87470 0.53299 0.36900 0.46700
C 	C 	0.83700 0.42648 0.05500 0.01900
H 	H 	0.85470 0.42850 0.15380 0.04000
H 	H 	0.81330 0.42910 0.10410 0.04600
C 	C 	0.84480 0.39570 0.14400 0.24200
C 	C 	0.83870 0.39840 0.33400 -0.25100
H 	H 	0.82970 0.40970 0.37560 0.11800
C 	C 	0.84570 0.38470 0.46300 0.15600
H 	H 	0.84140 0.38670 0.59060 -0.00500
C 	C 	0.85910 0.36790 0.40200 -0.21100
C 	C 	0.86500 0.36520 0.21100 0.15600
H 	H 	0.87370 0.35400 0.16870 -0.03200
C 	C 	0.85830 0.37900 0.08300 -0.26000
H 	H 	0.86270 0.37700 0.95550 0.15000
C 	C 	0.86520 0.35144 0.52600 0.38600
C 	C 	0.88600 0.43520 0.82200 0.08600
H 	H 	0.90050 0.44280 0.90440 0.01800
H 	H 	0.89240 0.42250 0.84550 0.02400
C 	C 	0.92930 0.43840 0.58100 0.30300
C 	C 	0.95610 0.43070 0.68800 -0.30900
H 	H 	0.95080 0.42600 0.80710 0.14200
C 	C 	0.99070 0.43010 0.62200 0.19300
H 	H 	0.00860 0.42490 0.69600 -0.03900
C 	C 	0.99900 0.43720 0.44600 -0.23000
C 	C 	0.97200 0.44490 0.33800 0.19200
H 	H 	0.97730 0.44970 0.21930 -0.03100
C 	C 	0.93760 0.44550 0.40400 -0.30600
H 	H 	0.91960 0.45060 0.32950 0.15000
C 	C 	0.03680 0.43690 0.38600 0.36600
O 	O 	0.78583 0.43528 0.76720 -0.25800
O 	O 	0.63840 0.43257 0.31260 -0.55700
O 	O 	0.67720 0.43055 0.08330 -0.38900
O 	O 	0.85550 0.46071 0.10500 -0.25600
O 	O 	0.88270 0.53471 0.53290 -0.41800
O 	O 	0.87390 0.54688 0.26450 -0.54600
O 	O 	0.83940 0.40828 0.97780 -0.21600
O 	O 	0.86660 0.35340 0.70600 -0.37500
O 	O 	0.86630 0.33559 0.45620 -0.53800
O 	O 	0.89380 0.43917 0.64740 -0.27500
O 	O 	0.05970 0.43248 0.52110 -0.45400
O 	O 	0.04460 0.43863 0.20450 -0.46500
Cd	Cd	0.59256 0.43727 0.53402 1.20200
Cd	Cd	0.11856 0.93049 0.99306 1.22500
C 	C 	0.34540 0.93807 0.87500 -0.00900
C 	C 	0.32190 0.93634 0.69760 0.03700
H 	H 	0.32480 0.94700 0.61620 0.03000
H 	H 	0.32800 0.92530 0.62680 0.03600
C 	C 	0.25970 0.93367 0.63750 0.31400
C 	C 	0.26480 0.93100 0.44500 -0.29900
H 	H 	0.28790 0.93020 0.39670 0.13600
C 	C 	0.23560 0.92950 0.32600 0.18700
H 	H 	0.23910 0.92770 0.19700 -0.01200
C 	C 	0.20130 0.93057 0.39680 -0.22500
C 	C 	0.19610 0.93332 0.58970 0.19000
H 	H 	0.17300 0.93410 0.63830 -0.04200
C 	C 	0.22550 0.93490 0.70970 -0.30200
H 	H 	0.22200 0.93680 0.83850 0.16300
C 	C 	0.16890 0.93202 0.26380 0.41600
C 	C 	0.33750 0.95900 0.93900 0.04400
H 	H 	0.34630 0.96760 0.84540 0.02000
H 	H 	0.31200 0.96090 0.95670 0.03500
C 	C 	0.35960 0.97940 0.15400 0.28500
C 	C 	0.35420 0.99440 0.03500 -0.29300
H 	H 	0.34720 0.99250 0.91010 0.13500
C 	C 	0.35930 0.01220 0.10200 0.20200
H 	H 	0.35570 0.02220 0.02250 -0.04600
C 	C 	0.36980 0.01496 0.28700 -0.27800
C 	C 	0.37520 0.99990 0.40700 0.19900
H 	H 	0.38220 0.00180 0.53150 -0.02800
C 	C 	0.37010 0.98220 0.34000 -0.29800
H 	H 	0.37370 0.97220 0.41950 0.14800
C 	C 	0.37470 0.03299 0.36900 0.46700
C 	C 	0.33700 0.92648 0.05500 0.01900
H 	H 	0.35470 0.92850 0.15380 0.04000
H 	H 	0.31330 0.92910 0.10410 0.04600
C 	C 	0.34480 0.89570 0.14400 0.24200
C 	C 	0.33870 0.89840 0.33400 -0.25100
H 	H 	0.32970 0.90970 0.37560 0.11800
C 	C 	0.34570 0.88470 0.46300 0.15600
H 	H 	0.34140 0.88670 0.59060 -0.00500
C 	C 	0.35910 0.86790 0.40200 -0.21100
C 	C 	0.36500 0.86520 0.21100 0.15600
H 	H 	0.37370 0.85400 0.16870 -0.03200
C 	C 	0.35830 0.87900 0.08300 -0.26000
H 	H 	0.36270 0.87700 0.95550 0.15000
C 	C 	0.36520 0.85144 0.52600 0.38600
C 	C 	0.38600 0.93520 0.82200 0.08600
H 	H 	0.40050 0.94280 0.90440 0.01800
H 	H 	0.39240 0.92250 0.84550 0.02400
C 	C 	0.42930 0.93840 0.58100 0.30300
C 	C 	0.45610 0.93070 0.68800 -0.30900
H 	H 	0.45080 0.92600 0.80710 0.14200
C 	C 	0.49070 0.93010 0.62200 0.19300
H 	H 	0.50860 0.92490 0.69600 -0.03900
C 	C 	0.49900 0.93720 0.44600 -0.23000
C 	C 	0.47200 0.94490 0.33800 0.19200
H 	H 	0.47730 0.94970 0.21930 -0.03100
C 	C 	0.43760 0.94550 0.40400 -0.30600
H 	H 	0.41960 0.95060 0.32950 0.15000
C 	C 	0.53680 0.93690 0.38600 0.36600
O 	O 	0.28583 0.93528 0.76720 -0.25800
O 	O 	0.13840 0.93257 0.31260 -0.55700
O 	O 	0.17720 0.93055 0.08330 -0.38900
O 	O 	0.35550 0.96071 0.10500 -0.25600
O 	O 	0.38270 0.03471 0.53290 -0.41800
O 	O 	0.37390 0.04688 0.26450 -0.54600
O 	O 	0.33940 0.90828 0.97780 -0.21600
O 	O 	0.36660 0.85340 0.70600 -0.37500
O 	O 	0.36630 0.83559 0.45620 -0.53800
O 	O 	0.39380 0.93917 0.64740 -0.27500
O 	O 	0.55970 0.93248 0.52110 -0.45400
O 	O 	0.54460 0.93863 0.20450 -0.46500
Cd	Cd	0.09256 0.93727 0.53402 1.20200
Cd	Cd	0.11856 0.43049 0.49306 1.23100
C 	C 	0.34540 0.43807 0.37500 -0.00500
C 	C 	0.32190 0.43634 0.19760 0.03400
H 	H 	0.32480 0.44700 0.11620 0.03400
H 	H 	0.32800 0.42530 0.12680 0.03900
C 	C 	0.25970 0.43367 0.13750 0.32200
C 	C 	0.26480 0.43100 0.94500 -0.30800
H 	H 	0.28790 0.43020 0.89670 0.13800
C 	C 	0.23560 0.42950 0.82600 0.19300
H 	H 	0.23910 0.42770 0.69700 -0.01600
C 	C 	0.20130 0.43057 0.89680 -0.23000
C 	C 	0.19610 0.43332 0.08970 0.19600
H 	H 	0.17300 0.43410 0.13830 -0.04300
C 	C 	0.22550 0.43490 0.20970 -0.30800
H 	H 	0.22200 0.43680 0.33850 0.16900
C 	C 	0.16890 0.43202 0.76380 0.41800
C 	C 	0.33750 0.45900 0.43900 0.04400
H 	H 	0.34630 0.46760 0.34540 0.02200
H 	H 	0.31200 0.46090 0.45670 0.03700
C 	C 	0.35960 0.47940 0.65400 0.26600
C 	C 	0.35420 0.49440 0.53500 -0.27800
H 	H 	0.34720 0.49250 0.41010 0.13200
C 	C 	0.35930 0.51220 0.60200 0.17700
H 	H 	0.35570 0.52220 0.52250 -0.03800
C 	C 	0.36980 0.51496 0.78700 -0.24400
C 	C 	0.37520 0.49990 0.90700 0.13700
H 	H 	0.38220 0.50180 0.03150 0.00400
C 	C 	0.37010 0.48220 0.84000 -0.26200
H 	H 	0.37370 0.47220 0.91950 0.13100
C 	C 	0.37470 0.53299 0.86900 0.42900
C 	C 	0.33700 0.42648 0.55500 0.00900
H 	H 	0.35470 0.42850 0.65380 0.04100
H 	H 	0.31330 0.42910 0.60410 0.04700
C 	C 	0.34480 0.39570 0.64400 0.23600
C 	C 	0.33870 0.39840 0.83400 -0.24400
H 	H 	0.32970 0.40970 0.87560 0.11400
C 	C 	0.34570 0.38470 0.96300 0.14500
H 	H 	0.34140 0.38670 0.09060 0.00000
C 	C 	0.35910 0.36790 0.90200 -0.20800
C 	C 	0.36500 0.36520 0.71100 0.15300
H 	H 	0.37370 0.35400 0.66870 -0.03100
C 	C 	0.35830 0.37900 0.58300 -0.25800
H 	H 	0.36270 0.37700 0.45550 0.15000
C 	C 	0.36520 0.35144 0.02600 0.38600
C 	C 	0.38600 0.43520 0.32200 0.09000
H 	H 	0.40050 0.44280 0.40440 0.01600
H 	H 	0.39240 0.42250 0.34550 0.02200
C 	C 	0.42930 0.43840 0.08100 0.34800
C 	C 	0.45610 0.43070 0.18800 -0.35100
H 	H 	0.45080 0.42600 0.30710 0.15700
C 	C 	0.49070 0.43010 0.12200 0.24800
H 	H 	0.50860 0.42490 0.19600 -0.05600
C 	C 	0.49900 0.43720 0.94600 -0.27200
C 	C 	0.47200 0.44490 0.83800 0.23200
H 	H 	0.47730 0.44970 0.71930 -0.04500
C 	C 	0.43760 0.44550 0.90400 -0.35900
H 	H 	0.41960 0.45060 0.82950 0.16600
C 	C 	0.53680 0.43690 0.88600 0.36100
O 	O 	0.28583 0.43528 0.26720 -0.25700
O 	O 	0.13840 0.43257 0.81260 -0.55900
O 	O 	0.17720 0.43055 0.58330 -0.39700
O 	O 	0.35550 0.46071 0.60500 -0.25500
O 	O 	0.38270 0.53471 0.03290 -0.39500
O 	O 	0.37390 0.54688 0.76450 -0.54000
O 	O 	0.33940 0.40828 0.47780 -0.21000
O 	O 	0.36660 0.35340 0.20600 -0.37500
O 	O 	0.36630 0.33559 0.95620 -0.53800
O 	O 	0.39380 0.43917 0.14740 -0.28200
O 	O 	0.55970 0.43248 0.02110 -0.44000
O 	O 	0.54460 0.43863 0.70450 -0.46400
Cd	Cd	0.09256 0.43727 0.03402 1.20200
Cd	Cd	0.63144 0.18049 0.74306 1.23200
C 	C 	0.40460 0.18807 0.62500 -0.00400
C 	C 	0.42810 0.18634 0.44760 0.03400
H 	H 	0.42520 0.19700 0.36620 0.03100
H 	H 	0.42200 0.17530 0.37680 0.03700
C 	C 	0.49030 0.18367 0.38750 0.31100
C 	C 	0.48520 0.18100 0.19500 -0.29300
H 	H 	0.46210 0.18020 0.14670 0.13300
C 	C 	0.51440 0.17950 0.07600 0.17600
H 	H 	0.51090 0.17770 0.94700 -0.00800
C 	C 	0.54870 0.18057 0.14680 -0.22100
C 	C 	0.55390 0.18332 0.33970 0.18700
H 	H 	0.57700 0.18410 0.38830 -0.04000
C 	C 	0.52450 0.18490 0.45970 -0.30000
H 	H 	0.52800 0.18680 0.58850 0.16600
C 	C 	0.58110 0.18202 0.01380 0.41200
C 	C 	0.41250 0.20900 0.68900 0.04700
H 	H 	0.40370 0.21760 0.59540 0.01900
H 	H 	0.43800 0.21090 0.70670 0.03600
C 	C 	0.39040 0.22940 0.90400 0.29900
C 	C 	0.39580 0.24440 0.78500 -0.31200
H 	H 	0.40280 0.24250 0.66010 0.14300
C 	C 	0.39070 0.26220 0.85200 0.21900
H 	H 	0.39430 0.27220 0.77250 -0.05200
C 	C 	0.38020 0.26496 0.03700 -0.29200
C 	C 	0.37480 0.24990 0.15700 0.21200
H 	H 	0.36780 0.25180 0.28150 -0.03200
C 	C 	0.37990 0.23220 0.09000 -0.31400
H 	H 	0.37630 0.22220 0.16950 0.15300
C 	C 	0.37530 0.28299 0.11900 0.47200
C 	C 	0.41300 0.17648 0.80500 0.00800
H 	H 	0.39530 0.17850 0.90380 0.04400
H 	H 	0.43670 0.17910 0.85410 0.04800
C 	C 	0.40520 0.14570 0.89400 0.25200
C 	C 	0.41130 0.14840 0.08400 -0.26700
H 	H 	0.42030 0.15970 0.12560 0.12200
C 	C 	0.40430 0.13470 0.21300 0.16800
H 	H 	0.40860 0.13670 0.34060 -0.00900
C 	C 	0.39090 0.11790 0.15200 -0.22500
C 	C 	0.38500 0.11520 0.96100 0.17400
H 	H 	0.37630 0.10400 0.91870 -0.03700
C 	C 	0.39170 0.12900 0.83300 -0.27400
H 	H 	0.38730 0.12700 0.70550 0.15600
C 	C 	0.38480 0.10144 0.27600 0.39000
C 	C 	0.36400 0.18520 0.57200 0.08200
H 	H 	0.34950 0.19280 0.65440 0.02000
H 	H 	0.35760 0.17250 0.59550 0.02500
C 	C 	0.32070 0.18840 0.33100 0.29700
C 	C 	0.29390 0.18070 0.43800 -0.30300
H 	H 	0.29920 0.17600 0.55710 0.14000
C 	C 	0.25930 0.18010 0.37200 0.18600
H 	H 	0.24140 0.17490 0.44600 -0.03700
C 	C 	0.25100 0.18720 0.19600 -0.22100
C 	C 	0.27800 0.19490 0.08800 0.17500
H 	H 	0.27270 0.19970 0.96930 -0.02300
C 	C 	0.31240 0.19550 0.15400 -0.29600
H 	H 	0.33040 0.20060 0.07950 0.14500
C 	C 	0.21320 0.18690 0.13600 0.35900
O 	O 	0.46417 0.18528 0.51720 -0.25500
O 	O 	0.61160 0.18257 0.06260 -0.55900
O 	O 	0.57280 0.18055 0.83330 -0.39400
O 	O 	0.39450 0.21071 0.85500 -0.26100
O 	O 	0.36730 0.28471 0.28290 -0.42000
O 	O 	0.37610 0.29688 0.01450 -0.54900
O 	O 	0.41060 0.15828 0.72780 -0.21300
O 	O 	0.38340 0.10340 0.45600 -0.37600
O 	O 	0.38370 0.08559 0.20620 -0.54000
O 	O 	0.35620 0.18917 0.39740 -0.27300
O 	O 	0.19030 0.18248 0.27110 -0.45300
O 	O 	0.20540 0.18863 0.95450 -0.46100
Cd	Cd	0.65744 0.18727 0.28402 1.20300
Cd	Cd	0.63144 0.68049 0.24306 1.23100
C 	C 	0.40460 0.68807 0.12500 -0.00200
C 	C 	0.42810 0.68634 0.94760 0.02700
H 	H 	0.42520 0.69700 0.86620 0.03300
H 	H 	0.42200 0.67530 0.87680 0.03800
C 	C 	0.49030 0.68367 0.88750 0.31300
C 	C 	0.48520 0.68100 0.69500 -0.30000
H 	H 	0.46210 0.68020 0.64670 0.13600
C 	C 	0.51440 0.67950 0.57600 0.18800
H 	H 	0.51090 0.67770 0.44700 -0.01400
C 	C 	0.54870 0.68057 0.64680 -0.22700
C 	C 	0.55390 0.68332 0.83970 0.19300
H 	H 	0.57700 0.68410 0.88830 -0.04200
C 	C 	0.52450 0.68490 0.95970 -0.30600
H 	H 	0.52800 0.68680 0.08850 0.16900
C 	C 	0.58110 0.68202 0.51380 0.41700
C 	C 	0.41250 0.70900 0.18900 0.04600
H 	H 	0.40370 0.71760 0.09540 0.01900
H 	H 	0.43800 0.71090 0.20670 0.03600
C 	C 	0.39040 0.72940 0.40400 0.28900
C 	C 	0.39580 0.74440 0.28500 -0.30300
H 	H 	0.40280 0.74250 0.16010 0.13900
C 	C 	0.39070 0.76220 0.35200 0.20700
H 	H 	0.39430 0.77220 0.27250 -0.04900
C 	C 	0.38020 0.76496 0.53700 -0.28100
C 	C 	0.37480 0.74990 0.65700 0.20200
H 	H 	0.36780 0.75180 0.78150 -0.02900
C 	C 	0.37990 0.73220 0.59000 -0.30100
H 	H 	0.37630 0.72220 0.66950 0.14900
C 	C 	0.37530 0.78299 0.61900 0.46800
C 	C 	0.41300 0.67648 0.30500 0.00700
H 	H 	0.39530 0.67850 0.40380 0.04300
H 	H 	0.43670 0.67910 0.35410 0.04800
C 	C 	0.40520 0.64570 0.39400 0.24100
C 	C 	0.41130 0.64840 0.58400 -0.25200
H 	H 	0.42030 0.65970 0.62560 0.11800
C 	C 	0.40430 0.63470 0.71300 0.15700
H 	H 	0.40860 0.63670 0.84060 -0.00800
C 	C 	0.39090 0.61790 0.65200 -0.21400
C 	C 	0.38500 0.61520 0.46100 0.15900
H 	H 	0.37630 0.60400 0.41870 -0.03200
C 	C 	0.39170 0.62900 0.33300 -0.26300
H 	H 	0.38730 0.62700 0.20550 0.15400
C 	C 	0.38480 0.60144 0.77600 0.38800
C 	C 	0.36400 0.68520 0.07200 0.08600
H 	H 	0.34950 0.69280 0.15440 0.01800
H 	H 	0.35760 0.67250 0.09550 0.02500
C 	C 	0.32070 0.68840 0.83100 0.30700
C 	C 	0.29390 0.68070 0.93800 -0.31900
H 	H 	0.29920 0.67600 0.05710 0.14700
C 	C 	0.25930 0.68010 0.87200 0.19900
H 	H 	0.24140 0.67490 0.94600 -0.04200
C 	C 	0.25100 0.68720 0.69600 -0.23300
C 	C 	0.27800 0.69490 0.58800 0.19500
H 	H 	0.27270 0.69970 0.46930 -0.03200
C 	C 	0.31240 0.69550 0.65400 -0.31000
H 	H 	0.33040 0.70060 0.57950 0.15100
C 	C 	0.21320 0.68690 0.63600 0.36700
O 	O 	0.46417 0.68528 0.01720 -0.25200
O 	O 	0.61160 0.68257 0.56260 -0.56000
O 	O 	0.57280 0.68055 0.33330 -0.39700
O 	O 	0.39450 0.71071 0.35500 -0.26000
O 	O 	0.36730 0.78471 0.78290 -0.41800
O 	O 	0.37610 0.79688 0.51450 -0.54700
O 	O 	0.41060 0.65828 0.22780 -0.20900
O 	O 	0.38340 0.60340 0.95600 -0.38200
O 	O 	0.38370 0.58559 0.70620 -0.54100
O 	O 	0.35620 0.68917 0.89740 -0.27700
O 	O 	0.19030 0.68248 0.77110 -0.45500
O 	O 	0.20540 0.68863 0.45450 -0.46400
Cd	Cd	0.65744 0.68727 0.78402 1.20300
Cd	Cd	0.13144 0.18049 0.24306 1.23100
C 	C 	0.90460 0.18807 0.12500 -0.00200
C 	C 	0.92810 0.18634 0.94760 0.02700
H 	H 	0.92520 0.19700 0.86620 0.03300
H 	H 	0.92200 0.17530 0.87680 0.03800
C 	C 	0.99030 0.18367 0.88750 0.31300
C 	C 	0.98520 0.18100 0.69500 -0.30000
H 	H 	0.96210 0.18020 0.64670 0.13600
C 	C 	0.01440 0.17950 0.57600 0.18800
H 	H 	0.01090 0.17770 0.44700 -0.01400
C 	C 	0.04870 0.18057 0.64680 -0.22700
C 	C 	0.05390 0.18332 0.83970 0.19300
H 	H 	0.07700 0.18410 0.88830 -0.04200
C 	C 	0.02450 0.18490 0.95970 -0.30600
H 	H 	0.02800 0.18680 0.08850 0.16900
C 	C 	0.08110 0.18202 0.51380 0.41700
C 	C 	0.91250 0.20900 0.18900 0.04600
H 	H 	0.90370 0.21760 0.09540 0.01900
H 	H 	0.93800 0.21090 0.20670 0.03600
C 	C 	0.89040 0.22940 0.40400 0.28900
C 	C 	0.89580 0.24440 0.28500 -0.30300
H 	H 	0.90280 0.24250 0.16010 0.13900
C 	C 	0.89070 0.26220 0.35200 0.20700
H 	H 	0.89430 0.27220 0.27250 -0.04900
C 	C 	0.88020 0.26496 0.53700 -0.28100
C 	C 	0.87480 0.24990 0.65700 0.20200
H 	H 	0.86780 0.25180 0.78150 -0.02900
C 	C 	0.87990 0.23220 0.59000 -0.30100
H 	H 	0.87630 0.22220 0.66950 0.14900
C 	C 	0.87530 0.28299 0.61900 0.46800
C 	C 	0.91300 0.17648 0.30500 0.00700
H 	H 	0.89530 0.17850 0.40380 0.04300
H 	H 	0.93670 0.17910 0.35410 0.04800
C 	C 	0.90520 0.14570 0.39400 0.24100
C 	C 	0.91130 0.14840 0.58400 -0.25200
H 	H 	0.92030 0.15970 0.62560 0.11800
C 	C 	0.90430 0.13470 0.71300 0.15700
H 	H 	0.90860 0.13670 0.84060 -0.00800
C 	C 	0.89090 0.11790 0.65200 -0.21400
C 	C 	0.88500 0.11520 0.46100 0.15900
H 	H 	0.87630 0.10400 0.41870 -0.03200
C 	C 	0.89170 0.12900 0.33300 -0.26300
H 	H 	0.88730 0.12700 0.20550 0.15400
C 	C 	0.88480 0.10144 0.77600 0.38800
C 	C 	0.86400 0.18520 0.07200 0.08600
H 	H 	0.84950 0.19280 0.15440 0.01800
H 	H 	0.85760 0.17250 0.09550 0.02500
C 	C 	0.82070 0.18840 0.83100 0.30700
C 	C 	0.79390 0.18070 0.93800 -0.31900
H 	H 	0.79920 0.17600 0.05710 0.14700
C 	C 	0.75930 0.18010 0.87200 0.19900
H 	H 	0.74140 0.17490 0.94600 -0.04200
C 	C 	0.75100 0.18720 0.69600 -0.23300
C 	C 	0.77800 0.19490 0.58800 0.19500
H 	H 	0.77270 0.19970 0.46930 -0.03200
C 	C 	0.81240 0.19550 0.65400 -0.31000
H 	H 	0.83040 0.20060 0.57950 0.15100
C 	C 	0.71320 0.18690 0.63600 0.36700
O 	O 	0.96417 0.18528 0.01720 -0.25200
O 	O 	0.11160 0.18257 0.56260 -0.56000
O 	O 	0.07280 0.18055 0.33330 -0.39700
O 	O 	0.89450 0.21071 0.35500 -0.26000
O 	O 	0.86730 0.28471 0.78290 -0.41800
O 	O 	0.87610 0.29688 0.51450 -0.54700
O 	O 	0.91060 0.15828 0.22780 -0.20900
O 	O 	0.88340 0.10340 0.95600 -0.38200
O 	O 	0.88370 0.08559 0.70620 -0.54100
O 	O 	0.85620 0.18917 0.89740 -0.27700
O 	O 	0.69030 0.18248 0.77110 -0.45500
O 	O 	0.70540 0.18863 0.45450 -0.46400
Cd	Cd	0.15744 0.18727 0.78402 1.20300
Cd	Cd	0.13144 0.68049 0.74306 1.23200
C 	C 	0.90460 0.68807 0.62500 -0.00400
C 	C 	0.92810 0.68634 0.44760 0.03400
H 	H 	0.92520 0.69700 0.36620 0.03100
H 	H 	0.92200 0.67530 0.37680 0.03700
C 	C 	0.99030 0.68367 0.38750 0.31100
C 	C 	0.98520 0.68100 0.19500 -0.29300
H 	H 	0.96210 0.68020 0.14670 0.13300
C 	C 	0.01440 0.67950 0.07600 0.17600
H 	H 	0.01090 0.67770 0.94700 -0.00800
C 	C 	0.04870 0.68057 0.14680 -0.22100
C 	C 	0.05390 0.68332 0.33970 0.18700
H 	H 	0.07700 0.68410 0.38830 -0.04000
C 	C 	0.02450 0.68490 0.45970 -0.30000
H 	H 	0.02800 0.68680 0.58850 0.16600
C 	C 	0.08110 0.68202 0.01380 0.41200
C 	C 	0.91250 0.70900 0.68900 0.04700
H 	H 	0.90370 0.71760 0.59540 0.01900
H 	H 	0.93800 0.71090 0.70670 0.03600
C 	C 	0.89040 0.72940 0.90400 0.29900
C 	C 	0.89580 0.74440 0.78500 -0.31200
H 	H 	0.90280 0.74250 0.66010 0.14300
C 	C 	0.89070 0.76220 0.85200 0.21900
H 	H 	0.89430 0.77220 0.77250 -0.05200
C 	C 	0.88020 0.76496 0.03700 -0.29200
C 	C 	0.87480 0.74990 0.15700 0.21200
H 	H 	0.86780 0.75180 0.28150 -0.03200
C 	C 	0.87990 0.73220 0.09000 -0.31400
H 	H 	0.87630 0.72220 0.16950 0.15300
C 	C 	0.87530 0.78299 0.11900 0.47200
C 	C 	0.91300 0.67648 0.80500 0.00800
H 	H 	0.89530 0.67850 0.90380 0.04400
H 	H 	0.93670 0.67910 0.85410 0.04800
C 	C 	0.90520 0.64570 0.89400 0.25200
C 	C 	0.91130 0.64840 0.08400 -0.26700
H 	H 	0.92030 0.65970 0.12560 0.12200
C 	C 	0.90430 0.63470 0.21300 0.16800
H 	H 	0.90860 0.63670 0.34060 -0.00900
C 	C 	0.89090 0.61790 0.15200 -0.22500
C 	C 	0.88500 0.61520 0.96100 0.17400
H 	H 	0.87630 0.60400 0.91870 -0.03700
C 	C 	0.89170 0.62900 0.83300 -0.27400
H 	H 	0.88730 0.62700 0.70550 0.15600
C 	C 	0.88480 0.60144 0.27600 0.39000
C 	C 	0.86400 0.68520 0.57200 0.08200
H 	H 	0.84950 0.69280 0.65440 0.02000
H 	H 	0.85760 0.67250 0.59550 0.02500
C 	C 	0.82070 0.68840 0.33100 0.29700
C 	C 	0.79390 0.68070 0.43800 -0.30300
H 	H 	0.79920 0.67600 0.55710 0.14000
C 	C 	0.75930 0.68010 0.37200 0.18600
H 	H 	0.74140 0.67490 0.44600 -0.03700
C 	C 	0.75100 0.68720 0.19600 -0.22100
C 	C 	0.77800 0.69490 0.08800 0.17500
H 	H 	0.77270 0.69970 0.96930 -0.02300
C 	C 	0.81240 0.69550 0.15400 -0.29600
H 	H 	0.83040 0.70060 0.07950 0.14500
C 	C 	0.71320 0.68690 0.13600 0.35900
O 	O 	0.96417 0.68528 0.51720 -0.25500
O 	O 	0.11160 0.68257 0.06260 -0.55900
O 	O 	0.07280 0.68055 0.83330 -0.39400
O 	O 	0.89450 0.71071 0.85500 -0.26100
O 	O 	0.86730 0.78471 0.28290 -0.42000
O 	O 	0.87610 0.79688 0.01450 -0.54900
O 	O 	0.91060 0.65828 0.72780 -0.21300
O 	O 	0.88340 0.60340 0.45600 -0.37600
O 	O 	0.88370 0.58559 0.20620 -0.54000
O 	O 	0.85620 0.68917 0.39740 -0.27300
O 	O 	0.69030 0.68248 0.27110 -0.45300
O 	O 	0.70540 0.68863 0.95450 -0.46100
Cd	Cd	0.15744 0.68727 0.28402 1.20300
Cd	Cd	0.86856 0.31951 0.74306 1.23200
C 	C 	0.09540 0.31193 0.62500 -0.00400
C 	C 	0.07190 0.31366 0.44760 0.03400
H 	H 	0.07480 0.30300 0.36620 0.03100
H 	H 	0.07800 0.32470 0.37680 0.03700
C 	C 	0.00970 0.31633 0.38750 0.31100
C 	C 	0.01480 0.31900 0.19500 -0.29300
H 	H 	0.03790 0.31980 0.14670 0.13300
C 	C 	0.98560 0.32050 0.07600 0.17600
H 	H 	0.98910 0.32230 0.94700 -0.00800
C 	C 	0.95130 0.31943 0.14680 -0.22100
C 	C 	0.94610 0.31668 0.33970 0.18700
H 	H 	0.92300 0.31590 0.38830 -0.04000
C 	C 	0.97550 0.31510 0.45970 -0.30000
H 	H 	0.97200 0.31320 0.58850 0.16600
C 	C 	0.91890 0.31798 0.01380 0.41200
C 	C 	0.08750 0.29100 0.68900 0.04700
H 	H 	0.09630 0.28240 0.59540 0.01900
H 	H 	0.06200 0.28910 0.70670 0.03600
C 	C 	0.10960 0.27060 0.90400 0.29900
C 	C 	0.10420 0.25560 0.78500 -0.31200
H 	H 	0.09720 0.25750 0.66010 0.14300
C 	C 	0.10930 0.23780 0.85200 0.21900
H 	H 	0.10570 0.22780 0.77250 -0.05200
C 	C 	0.11980 0.23504 0.03700 -0.29200
C 	C 	0.12520 0.25010 0.15700 0.21200
H 	H 	0.13220 0.24820 0.28150 -0.03200
C 	C 	0.12010 0.26780 0.09000 -0.31400
H 	H 	0.12370 0.27780 0.16950 0.15300
C 	C 	0.12470 0.21701 0.11900 0.47200
C 	C 	0.08700 0.32352 0.80500 0.00800
H 	H 	0.10470 0.32150 0.90380 0.04400
H 	H 	0.06330 0.32090 0.85410 0.04800
C 	C 	0.09480 0.35430 0.89400 0.25200
C 	C 	0.08870 0.35160 0.08400 -0.26700
H 	H 	0.07970 0.34030 0.12560 0.12200
C 	C 	0.09570 0.36530 0.21300 0.16800
H 	H 	0.09140 0.36330 0.34060 -0.00900
C 	C 	0.10910 0.38210 0.15200 -0.22500
C 	C 	0.11500 0.38480 0.96100 0.17400
H 	H 	0.12370 0.39600 0.91870 -0.03700
C 	C 	0.10830 0.37100 0.83300 -0.27400
H 	H 	0.11270 0.37300 0.70550 0.15600
C 	C 	0.11520 0.39856 0.27600 0.39000
C 	C 	0.13600 0.31480 0.57200 0.08200
H 	H 	0.15050 0.30720 0.65440 0.02000
H 	H 	0.14240 0.32750 0.59550 0.02500
C 	C 	0.17930 0.31160 0.33100 0.29700
C 	C 	0.20610 0.31930 0.43800 -0.30300
H 	H 	0.20080 0.32400 0.55710 0.14000
C 	C 	0.24070 0.31990 0.37200 0.18600
H 	H 	0.25860 0.32510 0.44600 -0.03700
C 	C 	0.24900 0.31280 0.19600 -0.22100
C 	C 	0.22200 0.30510 0.08800 0.17500
H 	H 	0.22730 0.30030 0.96930 -0.02300
C 	C 	0.18760 0.30450 0.15400 -0.29600
H 	H 	0.16960 0.29940 0.07950 0.14500
C 	C 	0.28680 0.31310 0.13600 0.35900
O 	O 	0.03583 0.31472 0.51720 -0.25500
O 	O 	0.88840 0.31743 0.06260 -0.55900
O 	O 	0.92720 0.31945 0.83330 -0.39400
O 	O 	0.10550 0.28929 0.85500 -0.26100
O 	O 	0.13270 0.21529 0.28290 -0.42000
O 	O 	0.12390 0.20312 0.01450 -0.54900
O 	O 	0.08940 0.34172 0.72780 -0.21300
O 	O 	0.11660 0.39660 0.45600 -0.37600
O 	O 	0.11630 0.41441 0.20620 -0.54000
O 	O 	0.14380 0.31083 0.39740 -0.27300
O 	O 	0.30970 0.31752 0.27110 -0.45300
O 	O 	0.29460 0.31137 0.95450 -0.46100
Cd	Cd	0.84256 0.31273 0.28402 1.20300
Cd	Cd	0.86856 0.81951 0.24306 1.23100
C 	C 	0.09540 0.81193 0.12500 -0.00200
C 	C 	0.07190 0.81366 0.94760 0.02700
H 	H 	0.07480 0.80300 0.86620 0.03300
H 	H 	0.07800 0.82470 0.87680 0.03800
C 	C 	0.00970 0.81633 0.88750 0.31300
C 	C 	0.01480 0.81900 0.69500 -0.30000
H 	H 	0.03790 0.81980 0.64670 0.13600
C 	C 	0.98560 0.82050 0.57600 0.18800
H 	H 	0.98910 0.82230 0.44700 -0.01400
C 	C 	0.95130 0.81943 0.64680 -0.22700
C 	C 	0.94610 0.81668 0.83970 0.19300
H 	H 	0.92300 0.81590 0.88830 -0.04200
C 	C 	0.97550 0.81510 0.95970 -0.30600
H 	H 	0.97200 0.81320 0.08850 0.16900
C 	C 	0.91890 0.81798 0.51380 0.41700
C 	C 	0.08750 0.79100 0.18900 0.04600
H 	H 	0.09630 0.78240 0.09540 0.01900
H 	H 	0.06200 0.78910 0.20670 0.03600
C 	C 	0.10960 0.77060 0.40400 0.28900
C 	C 	0.10420 0.75560 0.28500 -0.30300
H 	H 	0.09720 0.75750 0.16010 0.13900
C 	C 	0.10930 0.73780 0.35200 0.20700
H 	H 	0.10570 0.72780 0.27250 -0.04900
C 	C 	0.11980 0.73504 0.53700 -0.28100
C 	C 	0.12520 0.75010 0.65700 0.20200
H 	H 	0.13220 0.74820 0.78150 -0.02900
C 	C 	0.12010 0.76780 0.59000 -0.30100
H 	H 	0.12370 0.77780 0.66950 0.14900
C 	C 	0.12470 0.71701 0.61900 0.46800
C 	C 	0.08700 0.82352 0.30500 0.00700
H 	H 	0.10470 0.82150 0.40380 0.04300
H 	H 	0.06330 0.82090 0.35410 0.04800
C 	C 	0.09480 0.85430 0.39400 0.24100
C 	C 	0.08870 0.85160 0.58400 -0.25200
H 	H 	0.07970 0.84030 0.62560 0.11800
C 	C 	0.09570 0.86530 0.71300 0.15700
H 	H 	0.09140 0.86330 0.84060 -0.00800
C 	C 	0.10910 0.88210 0.65200 -0.21400
C 	C 	0.11500 0.88480 0.46100 0.15900
H 	H 	0.12370 0.89600 0.41870 -0.03200
C 	C 	0.10830 0.87100 0.33300 -0.26300
H 	H 	0.11270 0.87300 0.20550 0.15400
C 	C 	0.11520 0.89856 0.77600 0.38800
C 	C 	0.13600 0.81480 0.07200 0.08600
H 	H 	0.15050 0.80720 0.15440 0.01800
H 	H 	0.14240 0.82750 0.09550 0.02500
C 	C 	0.17930 0.81160 0.83100 0.30700
C 	C 	0.20610 0.81930 0.93800 -0.31900
H 	H 	0.20080 0.82400 0.05710 0.14700
C 	C 	0.24070 0.81990 0.87200 0.19900
H 	H 	0.25860 0.82510 0.94600 -0.04200
C 	C 	0.24900 0.81280 0.69600 -0.23300
C 	C 	0.22200 0.80510 0.58800 0.19500
H 	H 	0.22730 0.80030 0.46930 -0.03200
C 	C 	0.18760 0.80450 0.65400 -0.31000
H 	H 	0.16960 0.79940 0.57950 0.15100
C 	C 	0.28680 0.81310 0.63600 0.36700
O 	O 	0.03583 0.81472 0.01720 -0.25200
O 	O 	0.88840 0.81743 0.56260 -0.56000
O 	O 	0.92720 0.81945 0.33330 -0.39700
O 	O 	0.10550 0.78929 0.35500 -0.26000
O 	O 	0.13270 0.71529 0.78290 -0.41800
O 	O 	0.12390 0.70312 0.51450 -0.54700
O 	O 	0.08940 0.84172 0.22780 -0.20900
O 	O 	0.11660 0.89660 0.95600 -0.38200
O 	O 	0.11630 0.91441 0.70620 -0.54100
O 	O 	0.14380 0.81083 0.89740 -0.27700
O 	O 	0.30970 0.81752 0.77110 -0.45500
O 	O 	0.29460 0.81137 0.45450 -0.46400
Cd	Cd	0.84256 0.81273 0.78402 1.20300
Cd	Cd	0.36856 0.31951 0.24306 1.23100
C 	C 	0.59540 0.31193 0.12500 -0.00200
C 	C 	0.57190 0.31366 0.94760 0.02700
H 	H 	0.57480 0.30300 0.86620 0.03300
H 	H 	0.57800 0.32470 0.87680 0.03800
C 	C 	0.50970 0.31633 0.88750 0.31300
C 	C 	0.51480 0.31900 0.69500 -0.30000
H 	H 	0.53790 0.31980 0.64670 0.13600
C 	C 	0.48560 0.32050 0.57600 0.18800
H 	H 	0.48910 0.32230 0.44700 -0.01400
C 	C 	0.45130 0.31943 0.64680 -0.22700
C 	C 	0.44610 0.31668 0.83970 0.19300
H 	H 	0.42300 0.31590 0.88830 -0.04200
C 	C 	0.47550 0.31510 0.95970 -0.30600
H 	H 	0.47200 0.31320 0.08850 0.16900
C 	C 	0.41890 0.31798 0.51380 0.41700
C 	C 	0.58750 0.29100 0.18900 0.04600
H 	H 	0.59630 0.28240 0.09540 0.01900
H 	H 	0.56200 0.28910 0.20670 0.03600
C 	C 	0.60960 0.27060 0.40400 0.28900
C 	C 	0.60420 0.25560 0.28500 -0.30300
H 	H 	0.59720 0.25750 0.16010 0.13900
C 	C 	0.60930 0.23780 0.35200 0.20700
H 	H 	0.60570 0.22780 0.27250 -0.04900
C 	C 	0.61980 0.23504 0.53700 -0.28100
C 	C 	0.62520 0.25010 0.65700 0.20200
H 	H 	0.63220 0.24820 0.78150 -0.02900
C 	C 	0.62010 0.26780 0.59000 -0.30100
H 	H 	0.62370 0.27780 0.66950 0.14900
C 	C 	0.62470 0.21701 0.61900 0.46800
C 	C 	0.58700 0.32352 0.30500 0.00700
H 	H 	0.60470 0.32150 0.40380 0.04300
H 	H 	0.56330 0.32090 0.35410 0.04800
C 	C 	0.59480 0.35430 0.39400 0.24100
C 	C 	0.58870 0.35160 0.58400 -0.25200
H 	H 	0.57970 0.34030 0.62560 0.11800
C 	C 	0.59570 0.36530 0.71300 0.15700
H 	H 	0.59140 0.36330 0.84060 -0.00800
C 	C 	0.60910 0.38210 0.65200 -0.21400
C 	C 	0.61500 0.38480 0.46100 0.15900
H 	H 	0.62370 0.39600 0.41870 -0.03200
C 	C 	0.60830 0.37100 0.33300 -0.26300
H 	H 	0.61270 0.37300 0.20550 0.15400
C 	C 	0.61520 0.39856 0.77600 0.38800
C 	C 	0.63600 0.31480 0.07200 0.08600
H 	H 	0.65050 0.30720 0.15440 0.01800
H 	H 	0.64240 0.32750 0.09550 0.02500
C 	C 	0.67930 0.31160 0.83100 0.30700
C 	C 	0.70610 0.31930 0.93800 -0.31900
H 	H 	0.70080 0.32400 0.05710 0.14700
C 	C 	0.74070 0.31990 0.87200 0.19900
H 	H 	0.75860 0.32510 0.94600 -0.04200
C 	C 	0.74900 0.31280 0.69600 -0.23300
C 	C 	0.72200 0.30510 0.58800 0.19500
H 	H 	0.72730 0.30030 0.46930 -0.03200
C 	C 	0.68760 0.30450 0.65400 -0.31000
H 	H 	0.66960 0.29940 0.57950 0.15100
C 	C 	0.78680 0.31310 0.63600 0.36700
O 	O 	0.53583 0.31472 0.01720 -0.25200
O 	O 	0.38840 0.31743 0.56260 -0.56000
O 	O 	0.42720 0.31945 0.33330 -0.39700
O 	O 	0.60550 0.28929 0.35500 -0.26000
O 	O 	0.63270 0.21529 0.78290 -0.41800
O 	O 	0.62390 0.20312 0.51450 -0.54700
O 	O 	0.58940 0.34172 0.22780 -0.20900
O 	O 	0.61660 0.39660 0.95600 -0.38200
O 	O 	0.61630 0.41441 0.70620 -0.54100
O 	O 	0.64380 0.31083 0.89740 -0.27700
O 	O 	0.80970 0.31752 0.77110 -0.45500
O 	O 	0.79460 0.31137 0.45450 -0.46400
Cd	Cd	0.34256 0.31273 0.78402 1.20300
Cd	Cd	0.36856 0.81951 0.74306 1.23200
C 	C 	0.59540 0.81193 0.62500 -0.00400
C 	C 	0.57190 0.81366 0.44760 0.03400
H 	H 	0.57480 0.80300 0.36620 0.03100
H 	H 	0.57800 0.82470 0.37680 0.03700
C 	C 	0.50970 0.81633 0.38750 0.31100
C 	C 	0.51480 0.81900 0.19500 -0.29300
H 	H 	0.53790 0.81980 0.14670 0.13300
C 	C 	0.48560 0.82050 0.07600 0.17600
H 	H 	0.48910 0.82230 0.94700 -0.00800
C 	C 	0.45130 0.81943 0.14680 -0.22100
C 	C 	0.44610 0.81668 0.33970 0.18700
H 	H 	0.42300 0.81590 0.38830 -0.04000
C 	C 	0.47550 0.81510 0.45970 -0.30000
H 	H 	0.47200 0.81320 0.58850 0.16600
C 	C 	0.41890 0.81798 0.01380 0.41200
C 	C 	0.58750 0.79100 0.68900 0.04700
H 	H 	0.59630 0.78240 0.59540 0.01900
H 	H 	0.56200 0.78910 0.70670 0.03600
C 	C 	0.60960 0.77060 0.90400 0.29900
C 	C 	0.60420 0.75560 0.78500 -0.31200
H 	H 	0.59720 0.75750 0.66010 0.14300
C 	C 	0.60930 0.73780 0.85200 0.21900
H 	H 	0.60570 0.72780 0.77250 -0.05200
C 	C 	0.61980 0.73504 0.03700 -0.29200
C 	C 	0.62520 0.75010 0.15700 0.21200
H 	H 	0.63220 0.74820 0.28150 -0.03200
C 	C 	0.62010 0.76780 0.09000 -0.31400
H 	H 	0.62370 0.77780 0.16950 0.15300
C 	C 	0.62470 0.71701 0.11900 0.47200
C 	C 	0.58700 0.82352 0.80500 0.00800
H 	H 	0.60470 0.82150 0.90380 0.04400
H 	H 	0.56330 0.82090 0.85410 0.04800
C 	C 	0.59480 0.85430 0.89400 0.25200
C 	C 	0.58870 0.85160 0.08400 -0.26700
H 	H 	0.57970 0.84030 0.12560 0.12200
C 	C 	0.59570 0.86530 0.21300 0.16800
H 	H 	0.59140 0.86330 0.34060 -0.00900
C 	C 	0.60910 0.88210 0.15200 -0.22500
C 	C 	0.61500 0.88480 0.96100 0.17400
H 	H 	0.62370 0.89600 0.91870 -0.03700
C 	C 	0.60830 0.87100 0.83300 -0.27400
H 	H 	0.61270 0.87300 0.70550 0.15600
C 	C 	0.61520 0.89856 0.27600 0.39000
C 	C 	0.63600 0.81480 0.57200 0.08200
H 	H 	0.65050 0.80720 0.65440 0.02000
H 	H 	0.64240 0.82750 0.59550 0.02500
C 	C 	0.67930 0.81160 0.33100 0.29700
C 	C 	0.70610 0.81930 0.43800 -0.30300
H 	H 	0.70080 0.82400 0.55710 0.14000
C 	C 	0.74070 0.81990 0.37200 0.18600
H 	H 	0.75860 0.82510 0.44600 -0.03700
C 	C 	0.74900 0.81280 0.19600 -0.22100
C 	C 	0.72200 0.80510 0.08800 0.17500
H 	H 	0.72730 0.80030 0.96930 -0.02300
C 	C 	0.68760 0.80450 0.15400 -0.29600
H 	H 	0.66960 0.79940 0.07950 0.14500
C 	C 	0.78680 0.81310 0.13600 0.35900
O 	O 	0.53583 0.81472 0.51720 -0.25500
O 	O 	0.38840 0.81743 0.06260 -0.55900
O 	O 	0.42720 0.81945 0.83330 -0.39400
O 	O 	0.60550 0.78929 0.85500 -0.26100
O 	O 	0.63270 0.71529 0.28290 -0.42000
O 	O 	0.62390 0.70312 0.01450 -0.54900
O 	O 	0.58940 0.84172 0.72780 -0.21300
O 	O 	0.61660 0.89660 0.45600 -0.37600
O 	O 	0.61630 0.91441 0.20620 -0.54000
O 	O 	0.64380 0.81083 0.39740 -0.27300
O 	O 	0.80970 0.81752 0.27110 -0.45300
O 	O 	0.79460 0.81137 0.95450 -0.46100
Cd	Cd	0.34256 0.81273 0.28402 1.20300
