data_crystal

_cell_length_a 11.37680
_cell_length_b 12.61620
_cell_length_c 15.34010
_cell_angle_alpha 91.53900
_cell_angle_beta  90.00000
_cell_angle_gamma 90.00000

_symmetry_space_group_name_	'P 1'
_symmetry_space_group_name_H-M	'P 1'

loop_
_symmetry_equiv_pos_as_xyz
  x,y,z

loop_
_atom_site_label
_atom_site_type_symbol
_atom_site_fract_x
_atom_site_fract_y
_atom_site_fract_z
_atom_site_charge
Co	Co	0.90004 0.28766 0.77122 1.12900
Co	Co	0.99803 0.50599 0.70758 1.14500
Co	Co	0.40004 0.71234 0.72878 1.13400
Co	Co	0.49803 0.49401 0.79242 1.12700
Co	Co	0.09996 0.71234 0.22878 1.11600
Co	Co	0.00197 0.49401 0.29242 1.10300
Co	Co	0.59996 0.28766 0.27122 1.11300
Co	Co	0.50197 0.50599 0.20758 1.12400
Co	Co	-0.00000 0.00000 -0.00000 0.95800
Co	Co	0.50000 0.00000 0.50000 0.99800
H 	H 	0.07400 0.32000 0.06400 0.03000
H 	H 	0.57400 0.68000 0.43600 0.04800
H 	H 	0.92600 0.68000 0.93600 0.05200
H 	H 	0.42600 0.32000 0.56400 0.03300
C 	C 	0.11190 0.31790 0.92948 -0.06600
C 	C 	0.15280 0.37890 0.86109 -0.06300
C 	C 	0.19360 0.48250 0.87821 -0.12700
C 	C 	0.18900 0.52740 0.96226 0.04800
C 	C 	0.14050 0.46740 0.02933 -0.15500
C 	C 	0.10720 0.36320 0.01299 -0.00500
C 	C 	0.06310 0.20830 0.91562 0.36600
C 	C 	0.15210 0.33460 0.76873 0.31500
C 	C 	0.23380 0.54920 0.80420 0.38500
C 	C 	0.23330 0.64000 0.97750 0.33000
C 	C 	0.10880 0.51670 0.11586 0.39700
C 	C 	0.61190 0.68210 0.57052 -0.10000
C 	C 	0.65280 0.62110 0.63891 -0.04100
C 	C 	0.69360 0.51750 0.62179 -0.12100
C 	C 	0.68900 0.47260 0.53774 0.01300
C 	C 	0.64050 0.53260 0.47067 -0.10600
C 	C 	0.60720 0.63680 0.48701 0.05700
C 	C 	0.56310 0.79170 0.58438 0.37100
C 	C 	0.65210 0.66540 0.73127 0.30400
C 	C 	0.73380 0.45080 0.69580 0.38400
C 	C 	0.73330 0.36000 0.52250 0.28900
C 	C 	0.60880 0.48330 0.38414 0.39300
C 	C 	0.88810 0.68210 0.07052 -0.13300
C 	C 	0.84720 0.62110 0.13891 -0.02900
C 	C 	0.80640 0.51750 0.12179 -0.11900
C 	C 	0.81100 0.47260 0.03774 -0.01100
C 	C 	0.85950 0.53260 0.97067 -0.07300
C 	C 	0.89280 0.63680 0.98701 0.09700
C 	C 	0.93690 0.79170 0.08438 0.37900
C 	C 	0.84790 0.66540 0.23127 0.29900
C 	C 	0.76620 0.45080 0.19580 0.38500
C 	C 	0.76670 0.36000 0.02250 0.24400
C 	C 	0.89120 0.48330 0.88414 0.38900
C 	C 	0.38810 0.31790 0.42948 -0.12300
C 	C 	0.34720 0.37890 0.36109 -0.04700
C 	C 	0.30640 0.48250 0.37821 -0.12800
C 	C 	0.31100 0.52740 0.46226 0.01300
C 	C 	0.35950 0.46740 0.52933 -0.11600
C 	C 	0.39280 0.36320 0.51299 0.05900
C 	C 	0.43690 0.20830 0.41562 0.38300
C 	C 	0.34790 0.33460 0.26873 0.31000
C 	C 	0.26620 0.54920 0.30420 0.38700
C 	C 	0.26670 0.64000 0.47750 0.28200
C 	C 	0.39120 0.51670 0.61586 0.39200
O 	O 	0.07881 0.14565 0.97667 -0.48500
O 	O 	0.00811 0.18520 0.84568 -0.50400
O 	O 	0.05758 0.34849 0.72448 -0.56300
O 	O 	0.24048 0.28910 0.74003 -0.30200
O 	O 	0.16590 0.56497 0.74240 -0.46900
O 	O 	0.33691 0.58893 0.81084 -0.53500
O 	O 	0.18143 0.71278 0.93825 -0.26800
O 	O 	0.32275 0.65348 0.02459 -0.32400
O 	O 	0.07045 0.45653 0.17373 -0.46900
O 	O 	0.11596 0.61612 0.12230 -0.47300
O 	O 	0.57881 0.85435 0.52333 -0.41900
O 	O 	0.50811 0.81480 0.65432 -0.43200
O 	O 	0.55758 0.65151 0.77552 -0.51900
O 	O 	0.74048 0.71090 0.75997 -0.25000
O 	O 	0.66590 0.43503 0.75760 -0.46400
O 	O 	0.83691 0.41107 0.68916 -0.53800
O 	O 	0.68143 0.28722 0.56175 -0.29700
O 	O 	0.82275 0.34652 0.47541 -0.29100
O 	O 	0.57045 0.54347 0.32627 -0.44500
O 	O 	0.61596 0.38388 0.37770 -0.45000
O 	O 	0.92119 0.85435 0.02333 -0.42000
O 	O 	0.99189 0.81480 0.15432 -0.41500
O 	O 	0.94242 0.65151 0.27552 -0.49500
O 	O 	0.75952 0.71090 0.25997 -0.25700
O 	O 	0.83410 0.43503 0.25760 -0.45200
O 	O 	0.66309 0.41107 0.18916 -0.55000
O 	O 	0.81857 0.28722 0.06175 -0.28800
O 	O 	0.67725 0.34652 0.97541 -0.25800
O 	O 	0.92955 0.54347 0.82627 -0.43000
O 	O 	0.88404 0.38388 0.87770 -0.42900
O 	O 	0.42119 0.14565 0.47667 -0.51500
O 	O 	0.49189 0.18520 0.34568 -0.50100
O 	O 	0.44242 0.34849 0.22448 -0.54500
O 	O 	0.25952 0.28910 0.24003 -0.31200
O 	O 	0.33410 0.56497 0.24240 -0.45900
O 	O 	0.16309 0.58893 0.31084 -0.54800
O 	O 	0.31857 0.71278 0.43825 -0.26300
O 	O 	0.17725 0.65348 0.52459 -0.28600
O 	O 	0.42955 0.45653 0.67373 -0.45200
O 	O 	0.38404 0.61612 0.62230 -0.44600
