data_crystal

_cell_length_a 6.32020
_cell_length_b 15.28430
_cell_length_c 15.28430
_cell_angle_alpha 61.86820
_cell_angle_beta  82.07730
_cell_angle_gamma 97.92270

_symmetry_space_group_name_	'P 1'
_symmetry_space_group_name_H-M	'P 1'

loop_
_symmetry_equiv_pos_as_xyz
  x,y,z

loop_
_atom_site_label
_atom_site_type_symbol
_atom_site_fract_x
_atom_site_fract_y
_atom_site_fract_z
_atom_site_charge
Zn	Zn	0.63596 0.31291 0.42343 1.21500
Zn	Zn	0.05939 0.42343 0.26366 1.21400
Zn	Zn	0.32305 0.26366 0.31291 1.21500
Zn	Zn	0.36404 0.68709 0.57657 1.21500
Zn	Zn	0.94061 0.57657 0.73634 1.21400
Zn	Zn	0.67695 0.73634 0.68709 1.21500
H 	H 	0.31777 0.46516 0.56644 0.07300
H 	H 	0.88421 0.56644 0.96840 0.07200
H 	H 	0.85261 0.96840 0.46516 0.07300
H 	H 	0.68223 0.53484 0.43356 0.07300
H 	H 	0.11579 0.43356 0.03160 0.07200
H 	H 	0.14739 0.03160 0.53484 0.07300
C 	C 	0.26532 0.39372 0.44121 0.41300
C 	C 	0.13866 0.45195 0.46530 -0.19100
C 	C 	0.94293 0.46713 0.43116 0.19700
C 	C 	0.18835 0.47980 0.53992 -0.08700
C 	C 	0.70653 0.44121 0.16507 0.41300
C 	C 	0.60396 0.46530 0.08275 -0.18900
C 	C 	0.37409 0.43116 0.10171 0.19600
C 	C 	0.72827 0.53992 0.98028 -0.08800
C 	C 	0.87160 0.16507 0.39372 0.41400
C 	C 	0.68671 0.08275 0.45195 -0.19000
C 	C 	0.47580 0.10171 0.46713 0.19600
C 	C 	0.70855 0.98028 0.47980 -0.08700
C 	C 	0.73468 0.60628 0.55879 0.41300
C 	C 	0.86134 0.54805 0.53470 -0.19100
C 	C 	0.05707 0.53287 0.56884 0.19700
C 	C 	0.81165 0.52020 0.46008 -0.08700
C 	C 	0.29347 0.55879 0.83493 0.41300
C 	C 	0.39604 0.53470 0.91725 -0.18900
C 	C 	0.62591 0.56884 0.89829 0.19600
C 	C 	0.27173 0.46008 0.01972 -0.08800
C 	C 	0.12840 0.83493 0.60628 0.41400
C 	C 	0.31329 0.91725 0.54805 -0.19000
C 	C 	0.52420 0.89829 0.53287 0.19600
C 	C 	0.29145 0.01972 0.52020 -0.08700
O 	O 	0.39246 0.35168 0.49718 -0.45300
O 	O 	0.28488 0.40053 0.35457 -0.57100
O 	O 	0.88916 0.43631 0.36332 -0.59600
O 	O 	0.88964 0.49718 0.15114 -0.45200
O 	O 	0.63945 0.35457 0.24490 -0.57000
O 	O 	0.25248 0.36332 0.20037 -0.59700
O 	O 	0.04078 0.15114 0.35168 -0.45400
O 	O 	0.88435 0.24490 0.40053 -0.57000
O 	O 	0.45285 0.20037 0.43631 -0.59600
O 	O 	0.60754 0.64832 0.50282 -0.45300
O 	O 	0.71512 0.59947 0.64543 -0.57100
O 	O 	0.11084 0.56369 0.63668 -0.59600
O 	O 	0.11036 0.50282 0.84886 -0.45200
O 	O 	0.36055 0.64543 0.75510 -0.57000
O 	O 	0.74752 0.63668 0.79963 -0.59700
O 	O 	0.95922 0.84886 0.64832 -0.45400
O 	O 	0.11565 0.75510 0.59947 -0.57000
O 	O 	0.54715 0.79963 0.56369 -0.59600
