data_crystal

_cell_length_a 26.78300
_cell_length_b 26.78300
_cell_length_c 26.78300
_cell_angle_alpha 90.00000
_cell_angle_beta  90.00000
_cell_angle_gamma 90.00000

_symmetry_space_group_name_	'P 1'
_symmetry_space_group_name_H-M	'P 1'

loop_
_symmetry_equiv_pos_as_xyz
  x,y,z

loop_
_atom_site_label
_atom_site_type_symbol
_atom_site_fract_x
_atom_site_fract_y
_atom_site_fract_z
_atom_site_charge
O 	O 	-0.12897 0.06840 0.00201 -0.63500
O 	O 	0.12915 0.06807 -0.00190 -0.63500
O 	O 	-0.00187 0.12907 0.06822 -0.63500
O 	O 	0.00223 0.12904 -0.06823 -0.63500
O 	O 	0.00112 0.06814 -0.12914 -0.63600
O 	O 	-0.00117 0.06816 0.12912 -0.63600
O 	O 	0.06829 0.12905 -0.00101 -0.63600
O 	O 	-0.06800 0.12925 0.00105 -0.63600
Zr	Zr	0.00011 0.08839 0.00001 3.23400
O 	O 	0.04543 0.04529 -0.04533 -1.27100
O 	O 	-0.04530 0.04546 0.04540 -1.27100
C 	C 	-0.11446 0.11484 0.00225 0.46600
C 	C 	0.11471 0.11455 -0.00215 0.46500
C 	C 	-0.00218 0.11460 0.11467 0.46600
C 	C 	0.00240 0.11457 -0.11469 0.46700
H 	H 	0.06650 0.06632 0.06639 0.31600
O 	O 	0.04516 0.04503 0.04509 -1.50100
H 	H 	-0.06631 0.06651 -0.06640 0.31600
O 	O 	-0.04504 0.04517 -0.04509 -1.50100
O 	O 	0.12898 -0.06839 0.00201 -0.63400
O 	O 	-0.12914 -0.06805 -0.00190 -0.63400
O 	O 	0.06816 -0.00131 0.12913 -0.63400
O 	O 	0.06825 0.00198 -0.12901 -0.63400
O 	O 	-0.06824 -0.00197 -0.12901 -0.63400
O 	O 	-0.06815 0.00133 0.12913 -0.63400
O 	O 	0.00188 -0.12906 0.06822 -0.63400
O 	O 	-0.00222 -0.12903 -0.06823 -0.63400
O 	O 	0.00118 -0.06814 0.12912 -0.63500
O 	O 	-0.00111 -0.06812 -0.12914 -0.63500
O 	O 	0.12909 -0.00197 0.06823 -0.63400
O 	O 	-0.12908 0.00199 0.06823 -0.63400
O 	O 	-0.12916 -0.00081 -0.06811 -0.63500
O 	O 	0.12917 0.00083 -0.06811 -0.63500
O 	O 	0.06801 -0.12923 0.00105 -0.63500
O 	O 	-0.06828 -0.12903 -0.00101 -0.63500
Zr	Zr	0.08840 -0.00015 0.00003 3.23500
Zr	Zr	-0.08839 0.00016 0.00003 3.23500
Zr	Zr	0.00000 0.00001 0.08839 3.23500
Zr	Zr	0.00000 0.00001 -0.08836 3.23500
Zr	Zr	-0.00010 -0.08837 0.00001 3.23500
O 	O 	-0.04542 -0.04528 -0.04533 -1.27000
O 	O 	0.04531 -0.04544 0.04540 -1.27000
C 	C 	0.11447 -0.11482 0.00225 0.46700
C 	C 	-0.11470 -0.11453 -0.00215 0.46800
C 	C 	0.11461 -0.00234 0.11468 0.46700
C 	C 	0.11471 0.00209 -0.11455 0.46700
C 	C 	-0.11470 -0.00207 -0.11455 0.46800
C 	C 	-0.11460 0.00235 0.11468 0.46700
C 	C 	0.00219 -0.11458 0.11467 0.46700
C 	C 	-0.00239 -0.11456 -0.11469 0.46800
H 	H 	-0.06649 -0.06630 0.06639 0.31600
O 	O 	-0.04515 -0.04502 0.04509 -1.50100
H 	H 	0.06632 -0.06650 -0.06640 0.31600
O 	O 	0.04505 -0.04516 -0.04509 -1.50100
O 	O 	0.37103 0.56840 0.00201 -0.63400
O 	O 	0.62915 0.56807 -0.00190 -0.63400
O 	O 	0.49813 0.62907 0.06822 -0.63400
O 	O 	0.50223 0.62904 -0.06823 -0.63400
O 	O 	0.50112 0.56814 -0.12914 -0.63500
O 	O 	0.49883 0.56816 0.12912 -0.63500
O 	O 	0.56829 0.62905 -0.00101 -0.63500
O 	O 	0.43200 0.62925 0.00105 -0.63500
Zr	Zr	0.50011 0.58839 0.00001 3.23500
O 	O 	0.54543 0.54529 -0.04533 -1.27000
O 	O 	0.45470 0.54546 0.04540 -1.27000
C 	C 	0.38554 0.61484 0.00225 0.46700
C 	C 	0.61471 0.61455 -0.00215 0.46600
C 	C 	0.49782 0.61460 0.11467 0.46700
C 	C 	0.50240 0.61457 -0.11469 0.46700
H 	H 	0.56650 0.56632 0.06639 0.31600
O 	O 	0.54516 0.54503 0.04509 -1.50100
H 	H 	0.43369 0.56651 -0.06640 0.31600
O 	O 	0.45496 0.54517 -0.04509 -1.50100
O 	O 	0.62898 0.43161 0.00201 -0.63400
O 	O 	0.37086 0.43195 -0.00190 -0.63400
O 	O 	0.56816 0.49869 0.12913 -0.63400
O 	O 	0.56825 0.50198 -0.12901 -0.63400
O 	O 	0.43176 0.49803 -0.12901 -0.63400
O 	O 	0.43185 0.50133 0.12913 -0.63400
O 	O 	0.50188 0.37094 0.06822 -0.63400
O 	O 	0.49778 0.37097 -0.06823 -0.63400
O 	O 	0.50118 0.43186 0.12912 -0.63500
O 	O 	0.49889 0.43188 -0.12914 -0.63500
O 	O 	0.62909 0.49803 0.06823 -0.63400
O 	O 	0.37092 0.50199 0.06823 -0.63400
O 	O 	0.37084 0.49919 -0.06811 -0.63500
O 	O 	0.62917 0.50083 -0.06811 -0.63500
O 	O 	0.56801 0.37077 0.00105 -0.63500
O 	O 	0.43172 0.37097 -0.00101 -0.63500
Zr	Zr	0.58840 0.49985 0.00003 3.23500
Zr	Zr	0.41161 0.50016 0.00003 3.23500
Zr	Zr	0.50000 0.50001 0.08839 3.23500
Zr	Zr	0.50000 0.50001 -0.08836 3.23500
Zr	Zr	0.49990 0.41163 0.00001 3.23500
O 	O 	0.45458 0.45472 -0.04533 -1.27000
O 	O 	0.54531 0.45456 0.04540 -1.27000
C 	C 	0.61447 0.38518 0.00225 0.46700
C 	C 	0.38530 0.38547 -0.00215 0.46600
C 	C 	0.61461 0.49766 0.11468 0.46700
C 	C 	0.61471 0.50209 -0.11455 0.46700
C 	C 	0.38530 0.49793 -0.11455 0.46700
C 	C 	0.38540 0.50235 0.11468 0.46700
C 	C 	0.50219 0.38542 0.11467 0.46700
C 	C 	0.49761 0.38544 -0.11469 0.46700
H 	H 	0.43351 0.43370 0.06639 0.31600
O 	O 	0.45485 0.45498 0.04509 -1.50100
H 	H 	0.56632 0.43350 -0.06640 0.31600
O 	O 	0.54505 0.45484 -0.04509 -1.50100
O 	O 	-0.12919 0.56800 0.50112 -0.63400
O 	O 	0.12904 0.56834 0.49880 -0.63500
O 	O 	-0.00199 0.62909 0.56820 -0.63400
O 	O 	0.00164 0.62912 0.43178 -0.63400
O 	O 	0.00117 0.56818 0.37088 -0.63400
O 	O 	-0.00110 0.56816 0.62911 -0.63500
O 	O 	0.06808 0.62920 0.49818 -0.63400
O 	O 	-0.06835 0.62900 0.50181 -0.63500
Zr	Zr	-0.00010 0.58841 0.49998 3.23500
O 	O 	0.04531 0.54546 0.45458 -1.27000
O 	O 	-0.04542 0.54529 0.54531 -1.27000
C 	C 	-0.11478 0.61447 0.50219 0.46700
C 	C 	0.11455 0.61476 0.49779 0.46700
C 	C 	-0.00227 0.61460 0.61466 0.46600
C 	C 	0.00208 0.61463 0.38533 0.46700
H 	H 	0.06631 0.56652 0.56638 0.31600
O 	O 	0.04504 0.54518 0.54507 -1.50100
H 	H 	-0.06649 0.56633 0.43360 0.31600
O 	O 	-0.04514 0.54505 0.45489 -1.50100
O 	O 	0.12920 0.43201 0.50112 -0.63400
O 	O 	-0.12903 0.43168 0.49880 -0.63500
O 	O 	0.06823 0.49801 0.62901 -0.63400
O 	O 	0.06814 0.50134 0.37083 -0.63500
O 	O 	-0.06813 0.49868 0.37083 -0.63500
O 	O 	-0.06822 0.50200 0.62901 -0.63400
O 	O 	0.00200 0.37093 0.56820 -0.63400
O 	O 	-0.00163 0.37090 0.43178 -0.63400
O 	O 	0.00111 0.43186 0.62911 -0.63500
O 	O 	-0.00116 0.43183 0.37088 -0.63400
O 	O 	0.12914 0.49896 0.56809 -0.63400
O 	O 	-0.12913 0.50105 0.56809 -0.63400
O 	O 	-0.12904 0.49779 0.43173 -0.63400
O 	O 	0.12905 0.50223 0.43173 -0.63400
O 	O 	0.06836 0.37102 0.50181 -0.63500
O 	O 	-0.06807 0.37081 0.49818 -0.63400
Zr	Zr	0.08838 0.50017 0.49994 3.23500
Zr	Zr	-0.08837 0.49985 0.49994 3.23500
Zr	Zr	0.00000 0.50001 0.58835 3.23500
Zr	Zr	0.00000 0.50001 0.41160 3.23500
Zr	Zr	0.00011 0.41161 0.49998 3.23500
O 	O 	-0.04530 0.45455 0.45458 -1.27000
O 	O 	0.04543 0.45473 0.54531 -1.26900
C 	C 	0.11479 0.38555 0.50219 0.46700
C 	C 	-0.11454 0.38526 0.49779 0.46700
C 	C 	0.11469 0.49782 0.61453 0.46600
C 	C 	0.11457 0.50247 0.38528 0.46700
C 	C 	-0.11456 0.49755 0.38528 0.46700
C 	C 	-0.11468 0.50220 0.61453 0.46700
C 	C 	0.00228 0.38542 0.61466 0.46600
C 	C 	-0.00207 0.38539 0.38533 0.46700
H 	H 	-0.06630 0.43350 0.56638 0.31600
O 	O 	-0.04503 0.45484 0.54507 -1.50100
H 	H 	0.06650 0.43369 0.43360 0.31600
O 	O 	0.04515 0.45497 0.45489 -1.50100
O 	O 	0.37081 0.06800 0.50112 -0.63400
O 	O 	0.62904 0.06834 0.49880 -0.63500
O 	O 	0.49801 0.12909 0.56820 -0.63400
O 	O 	0.50164 0.12912 0.43178 -0.63400
O 	O 	0.50117 0.06818 0.37088 -0.63400
O 	O 	0.49890 0.06816 0.62911 -0.63500
O 	O 	0.56808 0.12920 0.49818 -0.63400
O 	O 	0.43165 0.12900 0.50181 -0.63500
Zr	Zr	0.49990 0.08841 0.49998 3.23500
O 	O 	0.54531 0.04546 0.45458 -1.27000
O 	O 	0.45458 0.04529 0.54531 -1.27000
C 	C 	0.38522 0.11447 0.50219 0.46700
C 	C 	0.61455 0.11476 0.49779 0.46700
C 	C 	0.49773 0.11460 0.61466 0.46600
C 	C 	0.50208 0.11463 0.38533 0.46700
H 	H 	0.56631 0.06652 0.56638 0.31600
O 	O 	0.54504 0.04518 0.54507 -1.50100
H 	H 	0.43351 0.06633 0.43360 0.31600
O 	O 	0.45486 0.04505 0.45489 -1.50100
O 	O 	0.62920 -0.06799 0.50112 -0.63400
O 	O 	0.37097 -0.06832 0.49880 -0.63500
O 	O 	0.56823 -0.00199 0.62901 -0.63400
O 	O 	0.56814 0.00134 0.37083 -0.63500
O 	O 	0.43187 -0.00132 0.37083 -0.63500
O 	O 	0.43178 0.00200 0.62901 -0.63400
O 	O 	0.50200 -0.12907 0.56820 -0.63400
O 	O 	0.49837 -0.12910 0.43178 -0.63400
O 	O 	0.50111 -0.06814 0.62911 -0.63500
O 	O 	0.49884 -0.06817 0.37088 -0.63400
O 	O 	0.62914 -0.00104 0.56809 -0.63400
O 	O 	0.37087 0.00105 0.56809 -0.63400
O 	O 	0.37096 -0.00221 0.43173 -0.63400
O 	O 	0.62905 0.00223 0.43173 -0.63400
O 	O 	0.56836 -0.12898 0.50181 -0.63500
O 	O 	0.43193 -0.12919 0.49818 -0.63400
Zr	Zr	0.58838 0.00017 0.49994 3.23500
Zr	Zr	0.41163 -0.00015 0.49994 3.23500
Zr	Zr	0.50000 0.00001 0.58835 3.23500
Zr	Zr	0.50000 0.00001 0.41160 3.23500
Zr	Zr	0.50011 -0.08839 0.49998 3.23500
O 	O 	0.45470 -0.04545 0.45458 -1.27000
O 	O 	0.54543 -0.04527 0.54531 -1.26900
C 	C 	0.61479 -0.11445 0.50219 0.46700
C 	C 	0.38546 -0.11474 0.49779 0.46700
C 	C 	0.61469 -0.00218 0.61453 0.46600
C 	C 	0.61457 0.00247 0.38528 0.46700
C 	C 	0.38544 -0.00245 0.38528 0.46700
C 	C 	0.38532 0.00220 0.61453 0.46600
C 	C 	0.50228 -0.11458 0.61466 0.46700
C 	C 	0.49793 -0.11461 0.38533 0.46700
H 	H 	0.43370 -0.06650 0.56638 0.31600
O 	O 	0.45497 -0.04516 0.54507 -1.50100
H 	H 	0.56650 -0.06631 0.43360 0.31600
O 	O 	0.54515 -0.04503 0.45489 -1.50100
C 	C 	0.23001 0.23004 -0.00390 0.02500
C 	C 	0.18004 0.24141 0.00838 -0.07000
C 	C 	0.14288 0.20428 0.00851 0.03700
C 	C 	0.15434 0.15427 -0.00307 -0.12500
C 	C 	0.20418 0.14274 -0.01526 0.03800
C 	C 	0.24127 0.17997 -0.01594 -0.07000
C 	C 	0.27000 0.26997 -0.00390 0.02500
C 	C 	0.31997 0.25861 0.00838 -0.07000
C 	C 	0.35713 0.29573 0.00851 0.03700
C 	C 	0.34567 0.34575 -0.00307 -0.12500
C 	C 	0.29583 0.35727 -0.01526 0.03800
C 	C 	0.25874 0.32005 -0.01594 -0.07000
H 	H 	0.10512 0.21477 0.01848 0.03600
H 	H 	0.21458 0.10486 -0.02483 0.03900
H 	H 	0.39489 0.28525 0.01848 0.03600
H 	H 	0.28543 0.39516 -0.02483 0.03900
H 	H 	0.27876 0.16938 -0.02662 0.04800
H 	H 	0.33048 0.22104 0.01885 0.04700
H 	H 	0.16953 0.27898 0.01885 0.04700
H 	H 	0.22125 0.33063 -0.02662 0.04800
C 	C 	0.23004 0.73002 0.49602 0.02500
C 	C 	0.18000 0.74127 0.48386 -0.07000
C 	C 	0.14277 0.70419 0.48453 0.03800
C 	C 	0.15427 0.65437 0.49687 -0.12600
C 	C 	0.20425 0.64293 0.50859 0.03700
C 	C 	0.24138 0.68008 0.50844 -0.07000
C 	C 	0.26997 0.76999 0.49602 0.02500
C 	C 	0.32001 0.75875 0.48386 -0.07000
C 	C 	0.35724 0.79583 0.48453 0.03900
C 	C 	0.34574 0.84564 0.49687 -0.12700
C 	C 	0.29576 0.85709 0.50859 0.03700
C 	C 	0.25863 0.81993 0.50844 -0.07100
H 	H 	0.10491 0.71456 0.47483 0.03700
H 	H 	0.21470 0.60519 0.51869 0.03500
H 	H 	0.39510 0.78546 0.47483 0.03700
H 	H 	0.28531 0.89482 0.51869 0.03500
H 	H 	0.27894 0.66960 0.51899 0.04700
H 	H 	0.33056 0.72127 0.47309 0.04700
H 	H 	0.16945 0.77875 0.47309 0.04700
H 	H 	0.22107 0.83042 0.51899 0.04700
C 	C 	0.77000 0.76997 -0.00390 0.02500
C 	C 	0.75874 0.82005 -0.01594 -0.07000
C 	C 	0.79583 0.85727 -0.01526 0.03900
C 	C 	0.84567 0.84575 -0.00307 -0.12700
C 	C 	0.85713 0.79573 0.00851 0.03700
C 	C 	0.81997 0.75861 0.00838 -0.07000
C 	C 	0.73001 0.73004 -0.00390 0.02500
C 	C 	0.74127 0.67997 -0.01594 -0.07000
C 	C 	0.70418 0.64274 -0.01526 0.03800
C 	C 	0.65434 0.65427 -0.00307 -0.12500
C 	C 	0.64288 0.70428 0.00851 0.03700
C 	C 	0.68004 0.74141 0.00838 -0.07000
H 	H 	0.78543 0.89516 -0.02483 0.03800
H 	H 	0.89489 0.78525 0.01848 0.03600
H 	H 	0.71458 0.60486 -0.02483 0.03900
H 	H 	0.60512 0.71477 0.01848 0.03600
H 	H 	0.83048 0.72104 0.01885 0.04700
H 	H 	0.77876 0.66938 -0.02662 0.04800
H 	H 	0.72125 0.83063 -0.02662 0.04800
H 	H 	0.66953 0.77898 0.01885 0.04700
C 	C 	0.76997 0.26999 0.49602 0.02500
C 	C 	0.75863 0.31993 0.50844 -0.07100
C 	C 	0.79576 0.35709 0.50859 0.03700
C 	C 	0.84574 0.34564 0.49687 -0.12700
C 	C 	0.85724 0.29583 0.48453 0.03900
C 	C 	0.82001 0.25875 0.48386 -0.07100
C 	C 	0.73004 0.23002 0.49602 0.02500
C 	C 	0.74138 0.18008 0.50844 -0.07000
C 	C 	0.70425 0.14293 0.50859 0.03700
C 	C 	0.65427 0.15438 0.49687 -0.12600
C 	C 	0.64277 0.20419 0.48453 0.03800
C 	C 	0.68000 0.24127 0.48386 -0.07000
H 	H 	0.78531 0.39482 0.51869 0.03500
H 	H 	0.89510 0.28546 0.47483 0.03700
H 	H 	0.71470 0.10519 0.51869 0.03500
H 	H 	0.60491 0.21456 0.47483 0.03700
H 	H 	0.83056 0.22127 0.47309 0.04700
H 	H 	0.77894 0.16960 0.51899 0.04700
H 	H 	0.72107 0.33042 0.51899 0.04700
H 	H 	0.66945 0.27875 0.47309 0.04700
C 	C 	0.77005 0.23011 0.00412 0.02500
C 	C 	0.75893 0.18003 0.01622 -0.07100
C 	C 	0.79610 0.14290 0.01554 0.03800
C 	C 	0.84590 0.15453 0.00327 -0.12700
C 	C 	0.85725 0.20455 -0.00837 0.03700
C 	C 	0.81999 0.24159 -0.00822 -0.07000
C 	C 	0.72996 0.26991 0.00412 0.02500
C 	C 	0.74108 0.31999 0.01622 -0.07000
C 	C 	0.70391 0.35711 0.01554 0.03800
C 	C 	0.65411 0.34548 0.00327 -0.12600
C 	C 	0.64276 0.29546 -0.00837 0.03700
C 	C 	0.68002 0.25843 -0.00822 -0.07000
H 	H 	0.78579 0.10501 0.02518 0.03700
H 	H 	0.89497 0.21510 -0.01839 0.03600
H 	H 	0.71422 0.39501 0.02518 0.03700
H 	H 	0.60504 0.28491 -0.01839 0.03600
H 	H 	0.83039 0.27918 -0.01872 0.04700
H 	H 	0.77854 0.33065 0.02695 0.04700
H 	H 	0.72147 0.16936 0.02695 0.04700
H 	H 	0.66962 0.22084 -0.01872 0.04700
C 	C 	0.76991 0.72996 0.50402 0.02500
C 	C 	0.75845 0.68003 0.49164 -0.07000
C 	C 	0.79550 0.64277 0.49150 0.03800
C 	C 	0.84551 0.65411 0.50319 -0.12600
C 	C 	0.85712 0.70391 0.51550 0.03900
C 	C 	0.81998 0.74109 0.51616 -0.07000
C 	C 	0.73010 0.77005 0.50402 0.02500
C 	C 	0.74156 0.81998 0.49164 -0.07000
C 	C 	0.70451 0.85724 0.49150 0.03800
C 	C 	0.65450 0.84591 0.50319 -0.12600
C 	C 	0.64289 0.79610 0.51550 0.03900
C 	C 	0.68003 0.75893 0.51616 -0.07000
H 	H 	0.78496 0.60506 0.48144 0.03600
H 	H 	0.89500 0.71422 0.52518 0.03700
H 	H 	0.71505 0.89496 0.48144 0.03600
H 	H 	0.60501 0.78580 0.52518 0.03700
H 	H 	0.83063 0.77854 0.52692 0.04700
H 	H 	0.77914 0.83039 0.48111 0.04700
H 	H 	0.72087 0.66963 0.48111 0.04700
H 	H 	0.66938 0.72148 0.52692 0.04800
C 	C 	0.23010 0.27005 0.50402 0.02500
C 	C 	0.18003 0.25893 0.51616 -0.07000
C 	C 	0.14289 0.29610 0.51550 0.03800
C 	C 	0.15450 0.34591 0.50319 -0.12500
C 	C 	0.20451 0.35724 0.49150 0.03700
C 	C 	0.24156 0.31998 0.49164 -0.07000
C 	C 	0.26991 0.22996 0.50402 0.02500
C 	C 	0.31998 0.24109 0.51616 -0.07000
C 	C 	0.35712 0.20391 0.51550 0.03800
C 	C 	0.34551 0.15411 0.50319 -0.12500
C 	C 	0.29550 0.14277 0.49150 0.03700
C 	C 	0.25845 0.18003 0.49164 -0.07000
H 	H 	0.10501 0.28580 0.52518 0.03700
H 	H 	0.21505 0.39496 0.48144 0.03700
H 	H 	0.39500 0.21422 0.52518 0.03700
H 	H 	0.28496 0.10506 0.48144 0.03700
H 	H 	0.27914 0.33039 0.48111 0.04700
H 	H 	0.33063 0.27854 0.52692 0.04800
H 	H 	0.16938 0.22148 0.52692 0.04800
H 	H 	0.22087 0.16963 0.48111 0.04700
C 	C 	0.22996 0.76991 0.00412 0.02500
C 	C 	0.18002 0.75843 -0.00822 -0.07000
C 	C 	0.14276 0.79546 -0.00837 0.03700
C 	C 	0.15411 0.84548 0.00327 -0.12700
C 	C 	0.20391 0.85711 0.01554 0.03800
C 	C 	0.24108 0.81999 0.01622 -0.07100
C 	C 	0.27005 0.73011 0.00412 0.02500
C 	C 	0.31999 0.74159 -0.00822 -0.07000
C 	C 	0.35725 0.70455 -0.00837 0.03700
C 	C 	0.34590 0.65453 0.00327 -0.12600
C 	C 	0.29610 0.64290 0.01554 0.03800
C 	C 	0.25893 0.68003 0.01622 -0.07000
H 	H 	0.10504 0.78491 -0.01839 0.03600
H 	H 	0.21422 0.89501 0.02518 0.03700
H 	H 	0.39497 0.71510 -0.01839 0.03600
H 	H 	0.28579 0.60501 0.02518 0.03700
H 	H 	0.27854 0.83065 0.02695 0.04700
H 	H 	0.33039 0.77918 -0.01872 0.04700
H 	H 	0.16962 0.72084 -0.01872 0.04700
H 	H 	0.22147 0.66936 0.02695 0.04700
C 	C 	-0.00367 0.22999 0.23007 0.02500
C 	C 	0.00842 0.17999 0.24150 -0.07000
C 	C 	0.00849 0.14278 0.20442 0.03700
C 	C 	-0.00302 0.15424 0.15438 -0.12500
C 	C 	-0.01498 0.20413 0.14279 0.03800
C 	C 	-0.01556 0.24125 0.17997 -0.07000
C 	C 	-0.00365 0.27001 0.26995 0.02600
C 	C 	0.00902 0.31990 0.25861 -0.07000
C 	C 	0.00910 0.35711 0.29570 0.03800
C 	C 	-0.00294 0.34576 0.34562 -0.12500
C 	C 	-0.01550 0.29600 0.35712 0.03900
C 	C 	-0.01611 0.25887 0.31994 -0.07000
H 	H 	0.01833 0.10500 0.21494 0.03600
H 	H 	-0.02445 0.21453 0.10488 0.03900
H 	H 	0.01940 0.39479 0.28526 0.03600
H 	H 	-0.02544 0.28571 0.39494 0.03700
H 	H 	-0.02606 0.27878 0.16933 0.04800
H 	H 	0.01981 0.33029 0.22110 0.04700
H 	H 	0.01878 0.16949 0.27911 0.04700
H 	H 	-0.02708 0.22145 0.33048 0.04800
C 	C 	0.49581 0.27004 0.76991 0.02500
C 	C 	0.48403 0.25879 0.82004 -0.07000
C 	C 	0.48471 0.29592 0.85722 0.03800
C 	C 	0.49663 0.34581 0.84559 -0.12600
C 	C 	0.50796 0.35726 0.79552 0.03700
C 	C 	0.50782 0.32005 0.75844 -0.07000
C 	C 	0.49582 0.22999 0.73004 0.02500
C 	C 	0.48347 0.24112 0.68002 -0.07000
C 	C 	0.48418 0.20399 0.64284 0.03800
C 	C 	0.49671 0.15423 0.65437 -0.12500
C 	C 	0.50858 0.14288 0.70434 0.03700
C 	C 	0.50842 0.18010 0.74141 -0.07000
H 	H 	0.47535 0.28551 0.89515 0.03800
H 	H 	0.51771 0.39505 0.78495 0.03600
H 	H 	0.47434 0.21428 0.60499 0.03700
H 	H 	0.51881 0.10519 0.71481 0.03600
H 	H 	0.51808 0.33056 0.72081 0.04700
H 	H 	0.47253 0.27854 0.66944 0.04700
H 	H 	0.47357 0.22126 0.83072 0.04700
H 	H 	0.51912 0.16969 0.77895 0.04700
C 	C 	-0.00419 0.77004 0.76991 0.02500
C 	C 	-0.01597 0.75879 0.82004 -0.07000
C 	C 	-0.01529 0.79592 0.85722 0.03800
C 	C 	-0.00337 0.84581 0.84559 -0.12700
C 	C 	0.00796 0.85726 0.79552 0.03700
C 	C 	0.00782 0.82005 0.75844 -0.07000
C 	C 	-0.00418 0.72999 0.73004 0.02500
C 	C 	-0.01653 0.74112 0.68002 -0.07000
C 	C 	-0.01582 0.70399 0.64284 0.03800
C 	C 	-0.00329 0.65423 0.65437 -0.12500
C 	C 	0.00858 0.64288 0.70434 0.03700
C 	C 	0.00842 0.68010 0.74141 -0.07000
H 	H 	-0.02465 0.78551 0.89515 0.03800
H 	H 	0.01771 0.89505 0.78495 0.03600
H 	H 	-0.02566 0.71428 0.60499 0.03700
H 	H 	0.01881 0.60519 0.71481 0.03600
H 	H 	0.01807 0.83056 0.72081 0.04700
H 	H 	-0.02747 0.77854 0.66944 0.04700
H 	H 	-0.02643 0.72126 0.83072 0.04700
H 	H 	0.01912 0.66969 0.77895 0.04700
C 	C 	0.49633 0.72999 0.23007 0.02500
C 	C 	0.50842 0.67999 0.24150 -0.07000
C 	C 	0.50849 0.64278 0.20442 0.03700
C 	C 	0.49698 0.65424 0.15438 -0.12500
C 	C 	0.48502 0.70413 0.14279 0.03800
C 	C 	0.48444 0.74125 0.17997 -0.07000
C 	C 	0.49635 0.77001 0.26995 0.02600
C 	C 	0.50902 0.81990 0.25861 -0.07000
C 	C 	0.50910 0.85711 0.29570 0.03800
C 	C 	0.49706 0.84576 0.34562 -0.12600
C 	C 	0.48450 0.79600 0.35712 0.03900
C 	C 	0.48389 0.75887 0.31994 -0.07000
H 	H 	0.51833 0.60500 0.21494 0.03600
H 	H 	0.47555 0.71453 0.10488 0.03900
H 	H 	0.51940 0.89479 0.28526 0.03500
H 	H 	0.47456 0.78571 0.39494 0.03700
H 	H 	0.47394 0.77878 0.16933 0.04800
H 	H 	0.51981 0.83029 0.22110 0.04700
H 	H 	0.51878 0.66949 0.27911 0.04700
H 	H 	0.47292 0.72145 0.33048 0.04800
C 	C 	0.00367 0.77002 0.23007 0.02500
C 	C 	0.01557 0.75876 0.17997 -0.07000
C 	C 	0.01499 0.79589 0.14279 0.03800
C 	C 	0.00303 0.84578 0.15438 -0.12600
C 	C 	-0.00848 0.85723 0.20442 0.03700
C 	C 	-0.00842 0.82003 0.24150 -0.07000
C 	C 	0.00366 0.73000 0.26995 0.02500
C 	C 	0.01612 0.74114 0.31994 -0.07000
C 	C 	0.01551 0.70402 0.35712 0.03900
C 	C 	0.00295 0.65426 0.34562 -0.12500
C 	C 	-0.00910 0.64291 0.29570 0.03700
C 	C 	-0.00901 0.68012 0.25861 -0.07000
H 	H 	0.02446 0.78549 0.10488 0.03900
H 	H 	-0.01832 0.89501 0.21494 0.03500
H 	H 	0.02545 0.71431 0.39494 0.03700
H 	H 	-0.01939 0.60523 0.28526 0.03600
H 	H 	-0.01877 0.83053 0.27911 0.04700
H 	H 	0.02709 0.77856 0.33048 0.04700
H 	H 	0.02607 0.72124 0.16933 0.04800
H 	H 	-0.01980 0.66972 0.22110 0.04700
C 	C 	0.50420 0.72998 0.76991 0.02500
C 	C 	0.49219 0.67997 0.75844 -0.07000
C 	C 	0.49205 0.64275 0.79552 0.03700
C 	C 	0.50338 0.65421 0.84559 -0.12600
C 	C 	0.51530 0.70410 0.85722 0.03800
C 	C 	0.51597 0.74123 0.82004 -0.07000
C 	C 	0.50419 0.77002 0.73004 0.02500
C 	C 	0.49159 0.81992 0.74141 -0.07000
C 	C 	0.49143 0.85713 0.70434 0.03700
C 	C 	0.50330 0.84579 0.65437 -0.12600
C 	C 	0.51583 0.79603 0.64284 0.03900
C 	C 	0.51654 0.75890 0.68002 -0.07000
H 	H 	0.48230 0.60497 0.78495 0.03600
H 	H 	0.52466 0.71451 0.89515 0.03800
H 	H 	0.48120 0.89482 0.71481 0.03600
H 	H 	0.52567 0.78573 0.60499 0.03700
H 	H 	0.52644 0.77876 0.83072 0.04700
H 	H 	0.48089 0.83033 0.77895 0.04700
H 	H 	0.48193 0.66945 0.72081 0.04700
H 	H 	0.52748 0.72148 0.66944 0.04700
C 	C 	0.50367 0.27002 0.23007 0.02500
C 	C 	0.51557 0.25876 0.17997 -0.07000
C 	C 	0.51499 0.29589 0.14279 0.03800
C 	C 	0.50303 0.34578 0.15438 -0.12500
C 	C 	0.49152 0.35723 0.20442 0.03700
C 	C 	0.49158 0.32003 0.24150 -0.07000
C 	C 	0.50366 0.23000 0.26995 0.02600
C 	C 	0.51612 0.24114 0.31994 -0.07000
C 	C 	0.51551 0.20402 0.35712 0.03900
C 	C 	0.50295 0.15426 0.34562 -0.12500
C 	C 	0.49090 0.14291 0.29570 0.03700
C 	C 	0.49099 0.18012 0.25861 -0.07000
H 	H 	0.52446 0.28549 0.10488 0.03900
H 	H 	0.48168 0.39501 0.21494 0.03600
H 	H 	0.52545 0.21431 0.39494 0.03700
H 	H 	0.48061 0.10523 0.28526 0.03600
H 	H 	0.48123 0.33053 0.27911 0.04700
H 	H 	0.52709 0.27856 0.33048 0.04800
H 	H 	0.52607 0.22124 0.16933 0.04800
H 	H 	0.48020 0.16972 0.22110 0.04700
C 	C 	0.00420 0.22998 0.76991 0.02500
C 	C 	-0.00781 0.17997 0.75844 -0.07000
C 	C 	-0.00795 0.14275 0.79552 0.03700
C 	C 	0.00338 0.15421 0.84559 -0.12600
C 	C 	0.01530 0.20410 0.85722 0.03800
C 	C 	0.01597 0.24123 0.82004 -0.07000
C 	C 	0.00419 0.27002 0.73004 0.02500
C 	C 	-0.00841 0.31992 0.74141 -0.07000
C 	C 	-0.00857 0.35713 0.70434 0.03700
C 	C 	0.00330 0.34579 0.65437 -0.12500
C 	C 	0.01583 0.29603 0.64284 0.03800
C 	C 	0.01654 0.25890 0.68002 -0.07000
H 	H 	-0.01770 0.10497 0.78495 0.03600
H 	H 	0.02466 0.21451 0.89515 0.03800
H 	H 	-0.01880 0.39482 0.71481 0.03600
H 	H 	0.02567 0.28573 0.60499 0.03700
H 	H 	0.02644 0.27876 0.83072 0.04700
H 	H 	-0.01911 0.33033 0.77895 0.04700
H 	H 	-0.01807 0.16945 0.72081 0.04700
H 	H 	0.02748 0.22148 0.66944 0.04700
C 	C 	0.23000 -0.00401 0.23004 0.02600
C 	C 	0.24112 -0.01647 0.18005 -0.07000
C 	C 	0.20399 -0.01585 0.14288 0.03900
C 	C 	0.15423 -0.00326 0.15438 -0.12600
C 	C 	0.14290 0.00879 0.20431 0.03800
C 	C 	0.18012 0.00868 0.24139 -0.07000
C 	C 	0.27003 -0.00402 0.26990 0.02500
C 	C 	0.25879 -0.01593 0.32000 -0.07000
C 	C 	0.29592 -0.01533 0.35717 0.03800
C 	C 	0.34580 -0.00334 0.34557 -0.12500
C 	C 	0.35724 0.00818 0.29553 0.03700
C 	C 	0.32002 0.00810 0.25845 -0.07000
H 	H 	0.21426 -0.02579 0.10505 0.03700
H 	H 	0.10523 0.01911 0.21475 0.03600
H 	H 	0.28553 -0.02481 0.39508 0.03900
H 	H 	0.39501 0.01804 0.28500 0.03600
H 	H 	0.16974 0.01948 0.27890 0.04700
H 	H 	0.22127 -0.02645 0.33064 0.04800
H 	H 	0.27853 -0.02746 0.16950 0.04800
H 	H 	0.33051 0.01846 0.22085 0.04700
C 	C 	0.26993 0.49632 0.77000 0.02500
C 	C 	0.32008 0.48466 0.75873 -0.07000
C 	C 	0.35724 0.48527 0.79587 0.03800
C 	C 	0.34559 0.49704 0.84580 -0.12600
C 	C 	0.29550 0.50828 0.85727 0.03700
C 	C 	0.25843 0.50820 0.82004 -0.07000
C 	C 	0.23006 0.49632 0.72996 0.02500
C 	C 	0.18007 0.48382 0.74107 -0.07000
C 	C 	0.14290 0.48441 0.70393 0.03800
C 	C 	0.15439 0.49697 0.65417 -0.12500
C 	C 	0.20431 0.50908 0.64285 0.03700
C 	C 	0.24138 0.50903 0.68008 -0.07000
H 	H 	0.39519 0.47599 0.78545 0.03800
H 	H 	0.28491 0.51791 0.89508 0.03600
H 	H 	0.10508 0.47446 0.71422 0.03900
H 	H 	0.21475 0.51940 0.60517 0.03600
H 	H 	0.22078 0.51837 0.83058 0.04700
H 	H 	0.16952 0.47282 0.77847 0.04700
H 	H 	0.33078 0.47431 0.72118 0.04800
H 	H 	0.27888 0.51987 0.66969 0.04700
C 	C 	0.76993 -0.00368 0.77000 0.02500
C 	C 	0.82008 -0.01534 0.75873 -0.07000
C 	C 	0.85724 -0.01473 0.79587 0.03800
C 	C 	0.84559 -0.00296 0.84580 -0.12700
C 	C 	0.79550 0.00828 0.85727 0.03700
C 	C 	0.75843 0.00820 0.82004 -0.07000
C 	C 	0.73006 -0.00368 0.72996 0.02500
C 	C 	0.68007 -0.01618 0.74107 -0.07000
C 	C 	0.64290 -0.01559 0.70393 0.03800
C 	C 	0.65439 -0.00303 0.65417 -0.12500
C 	C 	0.70431 0.00908 0.64285 0.03700
C 	C 	0.74138 0.00903 0.68008 -0.07000
H 	H 	0.89519 -0.02401 0.78545 0.03800
H 	H 	0.78491 0.01791 0.89508 0.03600
H 	H 	0.60508 -0.02554 0.71422 0.03900
H 	H 	0.71475 0.01940 0.60517 0.03600
H 	H 	0.72078 0.01837 0.83058 0.04700
H 	H 	0.66952 -0.02718 0.77847 0.04800
H 	H 	0.83078 -0.02569 0.72118 0.04800
H 	H 	0.77888 0.01987 0.66969 0.04700
C 	C 	0.73000 0.49599 0.23004 0.02500
C 	C 	0.74112 0.48353 0.18005 -0.07000
C 	C 	0.70399 0.48415 0.14288 0.03900
C 	C 	0.65423 0.49674 0.15438 -0.12600
C 	C 	0.64290 0.50879 0.20431 0.03700
C 	C 	0.68012 0.50868 0.24139 -0.07000
C 	C 	0.77003 0.49598 0.26990 0.02500
C 	C 	0.75879 0.48407 0.32000 -0.07000
C 	C 	0.79592 0.48467 0.35717 0.03800
C 	C 	0.84580 0.49666 0.34557 -0.12600
C 	C 	0.85724 0.50818 0.29553 0.03700
C 	C 	0.82002 0.50810 0.25845 -0.07000
H 	H 	0.71426 0.47421 0.10505 0.03700
H 	H 	0.60523 0.51911 0.21475 0.03600
H 	H 	0.78553 0.47519 0.39508 0.03900
H 	H 	0.89501 0.51804 0.28500 0.03500
H 	H 	0.66974 0.51948 0.27890 0.04700
H 	H 	0.72127 0.47355 0.33064 0.04800
H 	H 	0.77853 0.47254 0.16950 0.04700
H 	H 	0.83051 0.51846 0.22085 0.04700
C 	C 	0.23008 0.00369 0.77000 0.02500
C 	C 	0.17993 0.01536 0.75873 -0.07000
C 	C 	0.14277 0.01475 0.79587 0.03800
C 	C 	0.15442 0.00298 0.84580 -0.12600
C 	C 	0.20451 -0.00826 0.85727 0.03700
C 	C 	0.24158 -0.00818 0.82004 -0.07000
C 	C 	0.26995 0.00370 0.72996 0.02500
C 	C 	0.31994 0.01620 0.74107 -0.07000
C 	C 	0.35711 0.01561 0.70393 0.03800
C 	C 	0.34562 0.00305 0.65417 -0.12500
C 	C 	0.29570 -0.00906 0.64285 0.03700
C 	C 	0.25863 -0.00901 0.68008 -0.07000
H 	H 	0.10482 0.02403 0.78545 0.03900
H 	H 	0.21510 -0.01790 0.89508 0.03600
H 	H 	0.39493 0.02556 0.71422 0.03900
H 	H 	0.28526 -0.01938 0.60517 0.03600
H 	H 	0.27923 -0.01835 0.83058 0.04700
H 	H 	0.33049 0.02720 0.77847 0.04800
H 	H 	0.16923 0.02571 0.72118 0.04800
H 	H 	0.22113 -0.01986 0.66969 0.04700
C 	C 	0.27001 0.50402 0.23004 0.02600
C 	C 	0.25889 0.51649 0.18005 -0.07000
C 	C 	0.29602 0.51587 0.14288 0.03900
C 	C 	0.34578 0.50328 0.15438 -0.12600
C 	C 	0.35710 0.49123 0.20431 0.03800
C 	C 	0.31989 0.49133 0.24139 -0.07000
C 	C 	0.22998 0.50404 0.26990 0.02500
C 	C 	0.24122 0.51594 0.32000 -0.07000
C 	C 	0.20409 0.51535 0.35717 0.03800
C 	C 	0.15421 0.50336 0.34557 -0.12500
C 	C 	0.14277 0.49184 0.29553 0.03700
C 	C 	0.17999 0.49192 0.25845 -0.07000
H 	H 	0.28575 0.52581 0.10505 0.03700
H 	H 	0.39478 0.48091 0.21475 0.03600
H 	H 	0.21448 0.52483 0.39508 0.03900
H 	H 	0.10500 0.48197 0.28500 0.03600
H 	H 	0.33027 0.48054 0.27890 0.04700
H 	H 	0.27874 0.52646 0.33064 0.04800
H 	H 	0.22147 0.52747 0.16950 0.04800
H 	H 	0.16950 0.48156 0.22085 0.04700
C 	C 	0.77001 0.00402 0.23004 0.02600
C 	C 	0.75889 0.01649 0.18005 -0.07000
C 	C 	0.79602 0.01587 0.14288 0.03900
C 	C 	0.84578 0.00328 0.15438 -0.12600
C 	C 	0.85710 -0.00877 0.20431 0.03800
C 	C 	0.81989 -0.00867 0.24139 -0.07000
C 	C 	0.72998 0.00404 0.26990 0.02500
C 	C 	0.74122 0.01594 0.32000 -0.07000
C 	C 	0.70409 0.01535 0.35717 0.03800
C 	C 	0.65421 0.00336 0.34557 -0.12500
C 	C 	0.64277 -0.00816 0.29553 0.03700
C 	C 	0.67999 -0.00808 0.25845 -0.07000
H 	H 	0.78575 0.02581 0.10505 0.03700
H 	H 	0.89478 -0.01909 0.21475 0.03500
H 	H 	0.71448 0.02483 0.39508 0.03900
H 	H 	0.60500 -0.01803 0.28500 0.03600
H 	H 	0.83027 -0.01946 0.27890 0.04700
H 	H 	0.77874 0.02646 0.33064 0.04800
H 	H 	0.72147 0.02747 0.16950 0.04800
H 	H 	0.66950 -0.01844 0.22085 0.04700
C 	C 	0.73008 0.50369 0.77000 0.02500
C 	C 	0.67993 0.51536 0.75873 -0.07000
C 	C 	0.64277 0.51475 0.79587 0.03800
C 	C 	0.65442 0.50298 0.84580 -0.12600
C 	C 	0.70451 0.49174 0.85727 0.03700
C 	C 	0.74158 0.49182 0.82004 -0.07000
C 	C 	0.76995 0.50370 0.72996 0.02500
C 	C 	0.81994 0.51620 0.74107 -0.07000
C 	C 	0.85711 0.51561 0.70393 0.03800
C 	C 	0.84562 0.50305 0.65417 -0.12600
C 	C 	0.79570 0.49094 0.64285 0.03700
C 	C 	0.75863 0.49099 0.68008 -0.07000
H 	H 	0.60482 0.52403 0.78545 0.03800
H 	H 	0.71510 0.48210 0.89508 0.03600
H 	H 	0.89493 0.52556 0.71422 0.03800
H 	H 	0.78526 0.48062 0.60517 0.03500
H 	H 	0.77923 0.48165 0.83058 0.04700
H 	H 	0.83049 0.52720 0.77847 0.04700
H 	H 	0.66923 0.52571 0.72118 0.04800
H 	H 	0.72113 0.48014 0.66969 0.04700
