data_crystal

_cell_length_a 6.66940
_cell_length_b 15.32280
_cell_length_c 15.32280
_cell_angle_alpha 62.06790
_cell_angle_beta  81.65770
_cell_angle_gamma 98.34230

_symmetry_space_group_name_	'P 1'
_symmetry_space_group_name_H-M	'P 1'

loop_
_symmetry_equiv_pos_as_xyz
  x,y,z

loop_
_atom_site_label
_atom_site_type_symbol
_atom_site_fract_x
_atom_site_fract_y
_atom_site_fract_z
_atom_site_charge
Zn	Zn	0.38338 0.42634 0.31100 1.21000
Zn	Zn	0.69438 0.31100 0.26266 1.21000
Zn	Zn	0.95704 0.26266 0.42634 1.20900
Zn	Zn	0.61662 0.57366 0.68900 1.21000
Zn	Zn	0.30562 0.68900 0.73734 1.21000
Zn	Zn	0.04296 0.73734 0.57366 1.20900
H 	H 	0.68290 0.54990 0.46920 0.06500
H 	H 	0.15210 0.46920 0.98090 0.06500
H 	H 	0.13300 0.98090 0.54990 0.06500
H 	H 	0.31710 0.45010 0.53080 0.06500
H 	H 	0.84790 0.53080 0.01910 0.06500
H 	H 	0.86700 0.01910 0.45010 0.06500
C 	C 	0.75591 0.43847 0.38624 0.41800
C 	C 	0.88539 0.46611 0.44634 -0.19200
C 	C 	0.82019 0.53018 0.48071 -0.07500
C 	C 	0.07109 0.43437 0.46770 0.17400
C 	C 	0.14215 0.38624 0.17529 0.41900
C 	C 	0.33173 0.44634 0.08755 -0.19200
C 	C 	0.30090 0.48071 0.98911 -0.07500
C 	C 	0.53879 0.46770 0.09793 0.17300
C 	C 	0.31744 0.17529 0.43847 0.41800
C 	C 	0.41928 0.08755 0.46611 -0.19000
C 	C 	0.29001 0.98911 0.53018 -0.07500
C 	C 	0.63672 0.09793 0.43437 0.17300
C 	C 	0.24409 0.56153 0.61376 0.41800
C 	C 	0.11461 0.53389 0.55366 -0.19200
C 	C 	0.17981 0.46982 0.51929 -0.07500
C 	C 	0.92891 0.56563 0.53230 0.17400
C 	C 	0.85785 0.61376 0.82471 0.41900
C 	C 	0.66827 0.55366 0.91245 -0.19200
C 	C 	0.69910 0.51929 0.01089 -0.07500
C 	C 	0.46121 0.53230 0.90207 0.17300
C 	C 	0.68256 0.82471 0.56153 0.41800
C 	C 	0.58072 0.91245 0.53389 -0.19000
C 	C 	0.70999 0.01089 0.46982 -0.07500
C 	C 	0.36328 0.90207 0.56563 0.17300
O 	O 	0.60356 0.47753 0.36635 -0.47800
O 	O 	0.80490 0.37884 0.35634 -0.58200
O 	O 	0.14764 0.37009 0.44017 -0.54000
O 	O 	0.96991 0.36635 0.15612 -0.47800
O 	O 	0.16124 0.35634 0.26482 -0.58200
O 	O 	0.58781 0.44017 0.18974 -0.54000
O 	O 	0.12603 0.15612 0.47753 -0.47700
O 	O 	0.42606 0.26482 0.37884 -0.58200
O 	O 	0.77755 0.18974 0.37009 -0.54100
O 	O 	0.39644 0.52247 0.63365 -0.47800
O 	O 	0.19510 0.62116 0.64366 -0.58200
O 	O 	0.85236 0.62991 0.55983 -0.54000
O 	O 	0.03009 0.63365 0.84388 -0.47800
O 	O 	0.83876 0.64366 0.73518 -0.58200
O 	O 	0.41219 0.55983 0.81026 -0.54000
O 	O 	0.87397 0.84388 0.52247 -0.47700
O 	O 	0.57394 0.73518 0.62116 -0.58200
O 	O 	0.22245 0.81026 0.62991 -0.54100
