data_crystal

_cell_length_a 6.86420
_cell_length_b 15.13830
_cell_length_c 15.13830
_cell_angle_alpha 62.24230
_cell_angle_beta  81.30680
_cell_angle_gamma 98.69320

_symmetry_space_group_name_	'P 1'
_symmetry_space_group_name_H-M	'P 1'

loop_
_symmetry_equiv_pos_as_xyz
  x,y,z

loop_
_atom_site_label
_atom_site_type_symbol
_atom_site_fract_x
_atom_site_fract_y
_atom_site_fract_z
_atom_site_charge
Zn	Zn	0.61147 0.32827 0.40900 1.21800
Zn	Zn	0.02047 0.40900 0.26273 1.21800
Zn	Zn	0.28320 0.26273 0.32827 1.21800
Zn	Zn	0.38853 0.67173 0.59100 1.21800
Zn	Zn	0.97953 0.59100 0.73727 1.21800
Zn	Zn	0.71680 0.73727 0.67173 1.21800
H 	H 	0.30528 0.47447 0.55466 0.06600
H 	H 	0.85994 0.55466 0.97087 0.06600
H 	H 	0.83081 0.97087 0.47447 0.06700
H 	H 	0.69472 0.52553 0.44534 0.06600
H 	H 	0.14006 0.44534 0.02913 0.06600
H 	H 	0.16919 0.02913 0.52553 0.06700
C 	C 	0.24066 0.39537 0.43485 0.44600
C 	C 	0.11331 0.44232 0.47172 -0.19400
C 	C 	0.93196 0.45739 0.43975 0.19700
C 	C 	0.17923 0.48381 0.53433 -0.09000
C 	C 	0.67551 0.43485 0.16978 0.44600
C 	C 	0.58503 0.47172 0.08596 -0.19300
C 	C 	0.37171 0.43975 0.10286 0.19600
C 	C 	0.71356 0.53433 0.98186 -0.09000
C 	C 	0.84529 0.16978 0.39537 0.44700
C 	C 	0.67099 0.08596 0.44232 -0.19400
C 	C 	0.47457 0.10286 0.45739 0.19700
C 	C 	0.69542 0.98186 0.48381 -0.09000
C 	C 	0.75934 0.60463 0.56515 0.44600
C 	C 	0.88669 0.55768 0.52828 -0.19400
C 	C 	0.06804 0.54261 0.56025 0.19700
C 	C 	0.82077 0.51619 0.46567 -0.09000
C 	C 	0.32449 0.56515 0.83022 0.44600
C 	C 	0.41497 0.52828 0.91404 -0.19300
C 	C 	0.62829 0.56025 0.89714 0.19600
C 	C 	0.28644 0.46567 0.01814 -0.09000
C 	C 	0.15471 0.83022 0.60463 0.44700
C 	C 	0.32901 0.91404 0.55768 -0.19400
C 	C 	0.52543 0.89714 0.54261 0.19700
C 	C 	0.30458 0.01814 0.51619 -0.09000
O 	O 	0.39530 0.37627 0.46942 -0.48800
O 	O 	0.17912 0.35425 0.38467 -0.58900
O 	O 	0.88786 0.43302 0.36558 -0.56700
O 	O 	0.86472 0.46942 0.15431 -0.48700
O 	O 	0.56379 0.38467 0.26108 -0.58900
O 	O 	0.25344 0.36558 0.20140 -0.56700
O 	O 	0.01903 0.15431 0.37627 -0.48900
O 	O 	0.82487 0.26108 0.35425 -0.58800
O 	O 	0.45484 0.20140 0.43302 -0.56700
O 	O 	0.60470 0.62373 0.53058 -0.48800
O 	O 	0.82088 0.64575 0.61533 -0.58900
O 	O 	0.11214 0.56698 0.63442 -0.56700
O 	O 	0.13528 0.53058 0.84569 -0.48700
O 	O 	0.43621 0.61533 0.73892 -0.58900
O 	O 	0.74656 0.63442 0.79860 -0.56700
O 	O 	0.98097 0.84569 0.62373 -0.48900
O 	O 	0.17513 0.73892 0.64575 -0.58800
O 	O 	0.54516 0.79860 0.56698 -0.56700
