data_crystal

_cell_length_a 10.33490
_cell_length_b 11.89620
_cell_length_c 20.28940
_cell_angle_alpha 90.00000
_cell_angle_beta  90.00000
_cell_angle_gamma 90.00000

_symmetry_space_group_name_	'P 1'
_symmetry_space_group_name_H-M	'P 1'

loop_
_symmetry_equiv_pos_as_xyz
  x,y,z

loop_
_atom_site_label
_atom_site_type_symbol
_atom_site_fract_x
_atom_site_fract_y
_atom_site_fract_z
_atom_site_charge
Zn	Zn	0.14246 0.67650 0.99072 1.23700
Zn	Zn	0.45562 0.58325 0.99026 1.21400
O 	O 	0.17960 0.59800 0.90680 -0.51300
O 	O 	0.38480 0.54300 0.90360 -0.53800
O 	O 	0.12200 0.45470 0.57650 -0.50500
O 	O 	0.33250 0.41250 0.57300 -0.47800
O 	O 	0.11920 0.83800 0.00780 -0.59200
O 	O 	0.33960 0.73160 0.99120 -0.55600
O 	O 	0.45870 0.87530 0.02460 -0.44200
C 	C 	0.25880 0.52990 0.80570 -0.23100
C 	C 	0.24230 0.47350 0.67240 -0.03200
C 	C 	0.14850 0.53840 0.77350 0.20400
C 	C 	0.37080 0.49730 0.77160 0.07300
H 	H 	0.44960 0.49480 0.79370 0.00100
C 	C 	0.13790 0.50820 0.70900 -0.16500
H 	H 	0.05700 0.51120 0.68890 0.08100
C 	C 	0.36560 0.46850 0.70460 -0.09900
H 	H 	0.43970 0.44700 0.68180 0.06600
C 	C 	0.27830 0.55860 0.87790 0.46000
C 	C 	0.35300 0.82850 0.01350 0.30400
C 	C 	0.22990 0.89340 0.03140 0.18500
H 	H 	0.23400 0.96800 0.01100 -0.05100
C 	C 	0.23250 0.44390 0.60250 0.37100
N 	N 	0.03200 0.57550 0.80220 -0.39700
H 	H 	0.04180 0.58020 0.84570 0.16900
H 	H 	0.96910 0.52690 0.79290 0.13200
H 	H 	0.01160 0.64280 0.78610 0.13400
C 	C 	0.22400 0.90680 0.10680 -0.68100
H 	H 	0.13930 0.93200 0.11940 0.21100
H 	H 	0.28720 0.96090 0.12070 0.22100
H 	H 	0.24170 0.83570 0.12740 0.21800
Zn	Zn	0.35754 0.32350 0.49072 1.23700
Zn	Zn	0.04438 0.41675 0.49026 1.21300
O 	O 	0.32040 0.40200 0.40680 -0.51300
O 	O 	0.11520 0.45700 0.40360 -0.53800
O 	O 	0.37800 0.54530 0.07650 -0.50400
O 	O 	0.16750 0.58750 0.07300 -0.47700
O 	O 	0.38080 0.16200 0.50780 -0.59400
O 	O 	0.16040 0.26840 0.49120 -0.55500
O 	O 	0.04130 0.12470 0.52460 -0.44200
C 	C 	0.24120 0.47010 0.30570 -0.23100
C 	C 	0.25770 0.52650 0.17240 -0.03100
C 	C 	0.35150 0.46160 0.27350 0.20400
C 	C 	0.12920 0.50270 0.27160 0.07300
H 	H 	0.05040 0.50520 0.29370 0.00200
C 	C 	0.36210 0.49180 0.20900 -0.16500
H 	H 	0.44300 0.48880 0.18890 0.08200
C 	C 	0.13440 0.53150 0.20460 -0.09900
H 	H 	0.06030 0.55300 0.18180 0.06600
C 	C 	0.22170 0.44140 0.37790 0.46000
C 	C 	0.14700 0.17150 0.51350 0.30200
C 	C 	0.27010 0.10660 0.53140 0.18600
H 	H 	0.26600 0.03200 0.51100 -0.05200
C 	C 	0.26750 0.55610 0.10250 0.37100
N 	N 	0.46800 0.42450 0.30220 -0.39600
H 	H 	0.45820 0.41980 0.34570 0.16900
H 	H 	0.53090 0.47310 0.29290 0.13000
H 	H 	0.48840 0.35720 0.28610 0.13500
C 	C 	0.27600 0.09320 0.60680 -0.68000
H 	H 	0.36070 0.06800 0.61940 0.20900
H 	H 	0.21280 0.03910 0.62070 0.22100
H 	H 	0.25830 0.16430 0.62740 0.21700
Zn	Zn	0.85754 0.17650 0.50928 1.23700
Zn	Zn	0.54438 0.08325 0.50974 1.21300
O 	O 	0.82040 0.09800 0.59320 -0.51300
O 	O 	0.61520 0.04300 0.59640 -0.53800
O 	O 	0.87800 0.95470 0.92350 -0.50300
O 	O 	0.66750 0.91250 0.92700 -0.47700
O 	O 	0.88080 0.33800 0.49220 -0.59400
O 	O 	0.66040 0.23160 0.50880 -0.55500
O 	O 	0.54130 0.37530 0.47540 -0.44100
C 	C 	0.74120 0.02990 0.69430 -0.23300
C 	C 	0.75770 0.97350 0.82760 -0.03000
C 	C 	0.85150 0.03840 0.72650 0.20500
C 	C 	0.62920 0.99730 0.72840 0.07500
H 	H 	0.55040 0.99480 0.70630 0.00100
C 	C 	0.86210 0.00820 0.79100 -0.16700
H 	H 	0.94300 0.01120 0.81110 0.08300
C 	C 	0.63440 0.96850 0.79540 -0.10000
H 	H 	0.56030 0.94700 0.81820 0.06600
C 	C 	0.72170 0.05860 0.62210 0.46100
C 	C 	0.64700 0.32850 0.48650 0.30200
C 	C 	0.77010 0.39340 0.46860 0.18600
H 	H 	0.76600 0.46800 0.48900 -0.05100
C 	C 	0.76750 0.94390 0.89750 0.37000
N 	N 	0.96800 0.07550 0.69780 -0.39400
H 	H 	0.95820 0.08020 0.65430 0.17000
H 	H 	0.03090 0.02690 0.70710 0.12700
H 	H 	0.98840 0.14280 0.71390 0.13500
C 	C 	0.77600 0.40680 0.39320 -0.68000
H 	H 	0.86070 0.43200 0.38060 0.21000
H 	H 	0.71280 0.46090 0.37930 0.22100
H 	H 	0.75830 0.33570 0.37260 0.21700
Zn	Zn	0.64246 0.82350 0.00928 1.23700
Zn	Zn	0.95562 0.91675 0.00974 1.21200
O 	O 	0.67960 0.90200 0.09320 -0.51300
O 	O 	0.88480 0.95700 0.09640 -0.54000
O 	O 	0.62200 0.04530 0.42350 -0.50500
O 	O 	0.83250 0.08750 0.42700 -0.47800
O 	O 	0.61920 0.66200 0.99220 -0.59400
O 	O 	0.83960 0.76840 0.00880 -0.55800
O 	O 	0.95870 0.62470 0.97540 -0.44000
C 	C 	0.75880 0.97010 0.19430 -0.23400
C 	C 	0.74230 0.02650 0.32760 -0.03000
C 	C 	0.64850 0.96160 0.22650 0.20500
C 	C 	0.87080 0.00270 0.22840 0.07600
H 	H 	0.94960 0.00520 0.20630 0.00000
C 	C 	0.63790 0.99180 0.29100 -0.16700
H 	H 	0.55700 0.98880 0.31110 0.08200
C 	C 	0.86560 0.03150 0.29540 -0.10100
H 	H 	0.93970 0.05300 0.31820 0.06600
C 	C 	0.77830 0.94140 0.12210 0.46100
C 	C 	0.85300 0.67150 0.98650 0.30500
C 	C 	0.72990 0.60660 0.96860 0.18500
H 	H 	0.73400 0.53200 0.98900 -0.05100
C 	C 	0.73250 0.05610 0.39750 0.37000
N 	N 	0.53200 0.92450 0.19780 -0.39600
H 	H 	0.54180 0.91980 0.15430 0.16900
H 	H 	0.46910 0.97310 0.20710 0.13000
H 	H 	0.51160 0.85720 0.21390 0.13500
C 	C 	0.72400 0.59320 0.89320 -0.68000
H 	H 	0.63930 0.56800 0.88060 0.21000
H 	H 	0.78720 0.53910 0.87930 0.22200
H 	H 	0.74170 0.66430 0.87260 0.21800
