data_crystal

_cell_length_a 9.35910
_cell_length_b 9.31280
_cell_length_c 15.16550
_cell_angle_alpha 90.00000
_cell_angle_beta  92.50500
_cell_angle_gamma 90.00000

_symmetry_space_group_name_	'P 1'
_symmetry_space_group_name_H-M	'P 1'

loop_
_symmetry_equiv_pos_as_xyz
  x,y,z

loop_
_atom_site_label
_atom_site_type_symbol
_atom_site_fract_x
_atom_site_fract_y
_atom_site_fract_z
_atom_site_charge
Be	Be	0.91640 0.90560 0.61700 1.47900
Be	Be	0.33280 0.99730 0.67940 1.48100
P 	P 	0.63697 0.02548 0.63834 0.69600
P 	P 	0.10889 0.13904 0.57606 0.67600
P 	P 	0.34847 0.23926 0.81425 0.69500
O 	O 	0.75420 0.91630 0.64881 -0.53300
O 	O 	0.63760 0.09510 0.54475 -0.44600
H 	H 	0.67290 0.03890 0.51020 0.29600
O 	O 	0.66960 0.15710 0.69931 -0.43400
H 	H 	0.59860 0.17640 0.72690 0.31200
O 	O 	0.49500 0.96110 0.65536 -0.54600
O 	O 	0.25170 0.05920 0.58865 -0.58300
O 	O 	0.07550 0.16980 0.47894 -0.56800
O 	O 	0.99000 0.06110 0.61964 -0.58500
O 	O 	0.12450 0.29340 0.61699 -0.41400
H 	H 	0.16090 0.28760 0.66700 0.30200
O 	O 	0.32750 0.10790 0.75895 -0.56700
O 	O 	0.23810 0.35000 0.78547 -0.56500
O 	O 	0.32100 0.19760 0.91281 -0.43000
H 	H 	0.38670 0.22800 0.94520 0.29100
O 	O 	0.50160 0.29450 0.81194 -0.55700
Be	Be	0.58360 0.40560 0.88300 1.48000
Be	Be	0.16720 0.49730 0.82060 1.48200
P 	P 	0.86303 0.52548 0.86166 0.69400
P 	P 	0.39111 0.63904 0.92394 0.67600
P 	P 	0.15153 0.73926 0.68575 0.69600
O 	O 	0.74580 0.41630 0.85119 -0.53100
O 	O 	0.86240 0.59510 0.95525 -0.44600
H 	H 	0.82710 0.53890 0.98980 0.29600
O 	O 	0.83040 0.65710 0.80069 -0.43400
H 	H 	0.90140 0.67640 0.77310 0.31100
O 	O 	0.00500 0.46110 0.84464 -0.54600
O 	O 	0.24830 0.55920 0.91135 -0.58400
O 	O 	0.42450 0.66980 0.02106 -0.56700
O 	O 	0.51000 0.56110 0.88036 -0.58500
O 	O 	0.37550 0.79340 0.88301 -0.41400
H 	H 	0.33910 0.78760 0.83300 0.30200
O 	O 	0.17250 0.60790 0.74105 -0.56900
O 	O 	0.26190 0.85000 0.71453 -0.56600
O 	O 	0.17900 0.69760 0.58719 -0.43100
H 	H 	0.11330 0.72800 0.55480 0.29000
O 	O 	0.99840 0.79450 0.68806 -0.55700
Be	Be	0.08360 0.09440 0.38300 1.48000
Be	Be	0.66720 0.00270 0.32060 1.48200
P 	P 	0.36303 0.97452 0.36166 0.69700
P 	P 	0.89111 0.86096 0.42394 0.67700
P 	P 	0.65153 0.76074 0.18575 0.69600
O 	O 	0.24580 0.08370 0.35119 -0.53200
O 	O 	0.36240 0.90490 0.45525 -0.44600
H 	H 	0.32710 0.96110 0.48980 0.29600
O 	O 	0.33040 0.84290 0.30069 -0.43400
H 	H 	0.40140 0.82360 0.27310 0.31200
O 	O 	0.50500 0.03890 0.34464 -0.54600
O 	O 	0.74830 0.94080 0.41135 -0.58300
O 	O 	0.92450 0.83020 0.52106 -0.56800
O 	O 	0.01000 0.93890 0.38036 -0.58500
O 	O 	0.87550 0.70660 0.38301 -0.41400
H 	H 	0.83910 0.71240 0.33300 0.30200
O 	O 	0.67250 0.89210 0.24105 -0.56700
O 	O 	0.76190 0.65000 0.21453 -0.56500
O 	O 	0.67900 0.80240 0.08719 -0.43000
H 	H 	0.61330 0.77200 0.05480 0.29100
O 	O 	0.49840 0.70550 0.18806 -0.55700
Be	Be	0.41640 0.59440 0.11700 1.48000
Be	Be	0.83280 0.50270 0.17940 1.48200
P 	P 	0.13697 0.47452 0.13834 0.69400
P 	P 	0.60889 0.36096 0.07606 0.67600
P 	P 	0.84847 0.26074 0.31425 0.69600
O 	O 	0.25420 0.58370 0.14881 -0.53100
O 	O 	0.13760 0.40490 0.04475 -0.44600
H 	H 	0.17290 0.46110 0.01020 0.29600
O 	O 	0.16960 0.34290 0.19931 -0.43400
H 	H 	0.09860 0.32360 0.22690 0.31100
O 	O 	0.99500 0.53890 0.15536 -0.54600
O 	O 	0.75170 0.44080 0.08865 -0.58400
O 	O 	0.57550 0.33020 0.97894 -0.56700
O 	O 	0.49000 0.43890 0.11964 -0.58500
O 	O 	0.62450 0.20660 0.11699 -0.41400
H 	H 	0.66090 0.21240 0.16700 0.30200
O 	O 	0.82750 0.39210 0.25895 -0.56900
O 	O 	0.73810 0.15000 0.28547 -0.56600
O 	O 	0.82100 0.30240 0.41281 -0.43100
H 	H 	0.88670 0.27200 0.44520 0.29000
O 	O 	0.00160 0.20550 0.31194 -0.55700
