data_crystal

_cell_length_a 24.36100
_cell_length_b 15.38800
_cell_length_c 11.60900
_cell_angle_alpha 90.00000
_cell_angle_beta  118.46000
_cell_angle_gamma 90.00000

_symmetry_space_group_name_	'P 1'
_symmetry_space_group_name_H-M	'P 1'

loop_
_symmetry_equiv_pos_as_xyz
  x,y,z

loop_
_atom_site_label
_atom_site_type_symbol
_atom_site_fract_x
_atom_site_fract_y
_atom_site_fract_z
_atom_site_charge
O 	O 	0.00840 0.09290 0.66650 -0.43600
C 	C 	0.86260 0.27540 0.75400 0.02100
H 	H 	0.84210 0.30870 0.78860 0.04100
O 	O 	0.01690 0.19430 0.85750 -0.43700
H 	H 	0.03160 0.16250 0.82260 0.26100
C 	C 	0.95410 0.20420 0.77610 0.28700
C 	C 	0.82790 0.24140 0.62650 0.03200
N 	N 	0.76350 0.26170 0.55910 -0.07400
C 	C 	0.92050 0.17090 0.65050 -0.21800
C 	C 	0.85820 0.18890 0.57790 0.03600
H 	H 	0.83590 0.16550 0.49430 0.05100
C 	C 	0.95120 0.11390 0.59200 0.43300
C 	C 	0.92450 0.26160 0.82780 -0.19000
H 	H 	0.94720 0.28820 0.90890 0.13100
O 	O 	0.91970 0.09120 0.47710 -0.41600
O 	O 	0.50840 0.59290 0.66650 -0.42000
C 	C 	0.36260 0.77540 0.75400 0.02200
H 	H 	0.34210 0.80870 0.78860 0.05900
O 	O 	0.51690 0.69430 0.85750 -0.42800
H 	H 	0.53160 0.66250 0.82260 0.26600
C 	C 	0.45410 0.70420 0.77610 0.29200
C 	C 	0.32790 0.74140 0.62650 0.04500
N 	N 	0.26350 0.76170 0.55910 -0.06600
C 	C 	0.42050 0.67090 0.65050 -0.20800
C 	C 	0.35820 0.68890 0.57790 0.03600
H 	H 	0.33590 0.66550 0.49430 0.05500
C 	C 	0.45120 0.61390 0.59200 0.43600
C 	C 	0.42450 0.76160 0.82780 -0.18000
H 	H 	0.44720 0.78820 0.90890 0.14100
O 	O 	0.41970 0.59120 0.47710 -0.40200
O 	O 	0.99160 0.09290 0.33350 -0.43700
C 	C 	0.13740 0.27540 0.24600 0.02000
H 	H 	0.15790 0.30870 0.21140 0.04100
O 	O 	0.98310 0.19430 0.14250 -0.43700
H 	H 	0.96840 0.16250 0.17740 0.26100
C 	C 	0.04590 0.20420 0.22390 0.28700
C 	C 	0.17210 0.24140 0.37350 0.03200
N 	N 	0.23650 0.26170 0.44090 -0.07400
C 	C 	0.07950 0.17090 0.34950 -0.21800
C 	C 	0.14180 0.18890 0.42210 0.03600
H 	H 	0.16410 0.16550 0.50570 0.05100
C 	C 	0.04880 0.11390 0.40800 0.43300
C 	C 	0.07550 0.26160 0.17220 -0.19000
H 	H 	0.05280 0.28820 0.09110 0.13100
O 	O 	0.08030 0.09120 0.52290 -0.41600
O 	O 	0.49160 0.59290 0.33350 -0.42000
C 	C 	0.63740 0.77540 0.24600 0.02200
H 	H 	0.65790 0.80870 0.21140 0.05900
O 	O 	0.48310 0.69430 0.14250 -0.42800
H 	H 	0.46840 0.66250 0.17740 0.26600
C 	C 	0.54590 0.70420 0.22390 0.29200
C 	C 	0.67210 0.74140 0.37350 0.04500
N 	N 	0.73650 0.76170 0.44090 -0.06600
C 	C 	0.57950 0.67090 0.34950 -0.20800
C 	C 	0.64180 0.68890 0.42210 0.03600
H 	H 	0.66410 0.66550 0.50570 0.05500
C 	C 	0.54880 0.61390 0.40800 0.43600
C 	C 	0.57550 0.76160 0.17220 -0.18000
H 	H 	0.55280 0.78820 0.09110 0.14100
O 	O 	0.58030 0.59120 0.52290 -0.40200
O 	O 	0.99160 0.90710 0.33350 -0.39800
C 	C 	0.13740 0.72460 0.24600 0.01700
H 	H 	0.15790 0.69130 0.21140 0.04700
O 	O 	0.98310 0.80570 0.14250 -0.42900
H 	H 	0.96840 0.83750 0.17740 0.27100
C 	C 	0.04590 0.79580 0.22390 0.28900
C 	C 	0.17210 0.75860 0.37350 0.04600
N 	N 	0.23650 0.73830 0.44090 -0.07000
C 	C 	0.07950 0.82910 0.34950 -0.19900
C 	C 	0.14180 0.81110 0.42210 0.03100
H 	H 	0.16410 0.83450 0.50570 0.06700
C 	C 	0.04880 0.88610 0.40800 0.43000
C 	C 	0.07550 0.73840 0.17220 -0.18000
H 	H 	0.05280 0.71180 0.09110 0.13000
O 	O 	0.08030 0.90880 0.52290 -0.37400
O 	O 	0.49160 0.40710 0.33350 -0.42400
C 	C 	0.63740 0.22460 0.24600 0.02200
H 	H 	0.65790 0.19130 0.21140 0.04200
O 	O 	0.48310 0.30570 0.14250 -0.43500
H 	H 	0.46840 0.33750 0.17740 0.26500
C 	C 	0.54590 0.29580 0.22390 0.29100
C 	C 	0.67210 0.25860 0.37350 0.03300
N 	N 	0.73650 0.23830 0.44090 -0.07300
C 	C 	0.57950 0.32910 0.34950 -0.21500
C 	C 	0.64180 0.31110 0.42210 0.03700
H 	H 	0.66410 0.33450 0.50570 0.05100
C 	C 	0.54880 0.38610 0.40800 0.43600
C 	C 	0.57550 0.23840 0.17220 -0.19000
H 	H 	0.55280 0.21180 0.09110 0.13200
O 	O 	0.58030 0.40880 0.52290 -0.40600
O 	O 	0.00840 0.90710 0.66650 -0.39800
C 	C 	0.86260 0.72460 0.75400 0.01700
H 	H 	0.84210 0.69130 0.78860 0.04700
O 	O 	0.01690 0.80570 0.85750 -0.42900
H 	H 	0.03160 0.83750 0.82260 0.27100
C 	C 	0.95410 0.79580 0.77610 0.28900
C 	C 	0.82790 0.75860 0.62650 0.04600
N 	N 	0.76350 0.73830 0.55910 -0.07000
C 	C 	0.92050 0.82910 0.65050 -0.19900
C 	C 	0.85820 0.81110 0.57790 0.03100
H 	H 	0.83590 0.83450 0.49430 0.06700
C 	C 	0.95120 0.88610 0.59200 0.43000
C 	C 	0.92450 0.73840 0.82780 -0.18000
H 	H 	0.94720 0.71180 0.90890 0.13000
O 	O 	0.91970 0.90880 0.47710 -0.37400
O 	O 	0.50840 0.40710 0.66650 -0.42400
C 	C 	0.36260 0.22460 0.75400 0.02200
H 	H 	0.34210 0.19130 0.78860 0.04200
O 	O 	0.51690 0.30570 0.85750 -0.43500
H 	H 	0.53160 0.33750 0.82260 0.26500
C 	C 	0.45410 0.29580 0.77610 0.29100
C 	C 	0.32790 0.25860 0.62650 0.03300
N 	N 	0.26350 0.23830 0.55910 -0.07300
C 	C 	0.42050 0.32910 0.65050 -0.21500
C 	C 	0.35820 0.31110 0.57790 0.03700
H 	H 	0.33590 0.33450 0.49430 0.05100
C 	C 	0.45120 0.38610 0.59200 0.43600
C 	C 	0.42450 0.23840 0.82780 -0.19000
H 	H 	0.44720 0.21180 0.90890 0.13200
O 	O 	0.41970 0.40880 0.47710 -0.40600
Cd	Cd	0.09199 0.00000 0.69655 1.20500
O 	O 	0.19610 0.00000 0.72910 -0.41800
N 	N 	0.47560 0.00000 0.00990 -0.08600
C 	C 	0.29700 0.00000 0.68370 0.29000
O 	O 	0.26050 -0.00000 0.94720 -0.31100
C 	C 	0.34810 0.00000 0.65800 -0.20700
H 	H 	0.34220 0.00000 0.57260 0.11900
C 	C 	0.41690 0.00000 0.89200 0.02100
C 	C 	0.40700 0.00000 0.76370 0.01300
H 	H 	0.44140 0.00000 0.74910 0.03600
C 	C 	0.25200 0.00000 0.83690 0.36400
C 	C 	0.36650 0.00000 0.91490 0.01200
H 	H 	0.37270 0.00000 0.00040 0.04700
C 	C 	0.30530 0.00000 0.80910 -0.20900
O 	O 	0.23800 0.00000 0.57740 -0.45500
H 	H 	0.21190 0.00000 0.60300 0.29800
Cd	Cd	0.59199 0.50000 0.69655 1.22200
O 	O 	0.69610 0.50000 0.72910 -0.40000
N 	N 	0.97560 0.50000 0.00990 -0.07900
C 	C 	0.79700 0.50000 0.68370 0.29300
O 	O 	0.76050 0.50000 0.94720 -0.29200
C 	C 	0.84810 0.50000 0.65800 -0.19600
H 	H 	0.84220 0.50000 0.57260 0.12700
C 	C 	0.91690 0.50000 0.89200 0.03400
C 	C 	0.90700 0.50000 0.76370 0.01400
H 	H 	0.94140 0.50000 0.74910 0.04600
C 	C 	0.75200 0.50000 0.83690 0.36400
C 	C 	0.86650 0.50000 0.91490 0.01000
H 	H 	0.87270 0.50000 0.00040 0.05700
C 	C 	0.80530 0.50000 0.80910 -0.19500
O 	O 	0.73800 0.50000 0.57740 -0.44000
H 	H 	0.71190 0.50000 0.60300 0.30300
Cd	Cd	0.90801 0.00000 0.30345 1.20500
O 	O 	0.80390 0.00000 0.27090 -0.41800
N 	N 	0.52440 0.00000 0.99010 -0.08600
C 	C 	0.70300 0.00000 0.31630 0.29000
O 	O 	0.73950 0.00000 0.05280 -0.31100
C 	C 	0.65190 0.00000 0.34200 -0.20700
H 	H 	0.65780 0.00000 0.42740 0.11900
C 	C 	0.58310 0.00000 0.10800 0.02100
C 	C 	0.59300 0.00000 0.23630 0.01300
H 	H 	0.55860 0.00000 0.25090 0.03600
C 	C 	0.74800 0.00000 0.16310 0.36400
C 	C 	0.63350 0.00000 0.08510 0.01200
H 	H 	0.62730 0.00000 0.99960 0.04700
C 	C 	0.69470 0.00000 0.19090 -0.20900
O 	O 	0.76200 0.00000 0.42260 -0.45500
H 	H 	0.78810 0.00000 0.39700 0.29800
Cd	Cd	0.40801 0.50000 0.30345 1.22200
O 	O 	0.30390 0.50000 0.27090 -0.40000
N 	N 	0.02440 0.50000 0.99010 -0.07900
C 	C 	0.20300 0.50000 0.31630 0.29300
O 	O 	0.23950 0.50000 0.05280 -0.29200
C 	C 	0.15190 0.50000 0.34200 -0.19600
H 	H 	0.15780 0.50000 0.42740 0.12700
C 	C 	0.08310 0.50000 0.10800 0.03400
C 	C 	0.09300 0.50000 0.23630 0.01400
H 	H 	0.05860 0.50000 0.25090 0.04600
C 	C 	0.24800 0.50000 0.16310 0.36400
C 	C 	0.13350 0.50000 0.08510 0.01000
H 	H 	0.12730 0.50000 0.99960 0.05700
C 	C 	0.19470 0.50000 0.19090 -0.19500
O 	O 	0.26200 0.50000 0.42260 -0.44000
H 	H 	0.28810 0.50000 0.39700 0.30300
