data_crystal

_cell_length_a 21.10120
_cell_length_b 21.10120
_cell_length_c 6.60950
_cell_angle_alpha 90.00000
_cell_angle_beta  90.00000
_cell_angle_gamma 90.00000

_symmetry_space_group_name_	'P 1'
_symmetry_space_group_name_H-M	'P 1'

loop_
_symmetry_equiv_pos_as_xyz
  x,y,z

loop_
_atom_site_label
_atom_site_type_symbol
_atom_site_fract_x
_atom_site_fract_y
_atom_site_fract_z
_atom_site_charge
H 	H 	0.06000 0.21000 0.53000 0.06100
H 	H 	0.12000 0.32200 0.93900 0.03100
H 	H 	0.06000 0.37000 0.65000 0.03300
C 	C 	0.13900 0.25300 0.27000 0.56300
C 	C 	0.06800 0.25700 0.26000 -0.15000
C 	C 	0.03400 0.28900 0.09700 -0.09800
C 	C 	0.03400 0.23000 0.41000 0.01100
C 	C 	0.06800 0.32200 0.93900 0.13500
C 	C 	0.03400 0.35000 0.77200 -0.04700
O 	O 	0.17100 0.24800 0.11700 -0.80200
O 	O 	0.16500 0.25100 0.44700 -0.64100
H 	H 	0.94000 0.79000 0.53000 0.06100
H 	H 	0.88000 0.67800 0.93900 0.03100
H 	H 	0.94000 0.63000 0.65000 0.03300
C 	C 	0.86100 0.74700 0.27000 0.56300
C 	C 	0.93200 0.74300 0.26000 -0.15000
C 	C 	0.96600 0.71100 0.09700 -0.09800
C 	C 	0.96600 0.77000 0.41000 0.01100
C 	C 	0.93200 0.67800 0.93900 0.13500
C 	C 	0.96600 0.65000 0.77200 -0.04700
O 	O 	0.82900 0.75200 0.11700 -0.80200
O 	O 	0.83500 0.74900 0.44700 -0.64100
H 	H 	0.29000 0.56000 0.53000 0.06100
H 	H 	0.17800 0.62000 0.93900 0.03100
H 	H 	0.13000 0.56000 0.65000 0.03300
C 	C 	0.24700 0.63900 0.27000 0.56300
C 	C 	0.24300 0.56800 0.26000 -0.15000
C 	C 	0.21100 0.53400 0.09700 -0.09800
C 	C 	0.27000 0.53400 0.41000 0.01100
C 	C 	0.17800 0.56800 0.93900 0.13600
C 	C 	0.15000 0.53400 0.77200 -0.04700
O 	O 	0.25200 0.67100 0.11700 -0.80200
O 	O 	0.24900 0.66500 0.44700 -0.64000
H 	H 	0.71000 0.44000 0.53000 0.06100
H 	H 	0.82200 0.38000 0.93900 0.03100
H 	H 	0.87000 0.44000 0.65000 0.03300
C 	C 	0.75300 0.36100 0.27000 0.56300
C 	C 	0.75700 0.43200 0.26000 -0.15000
C 	C 	0.78900 0.46600 0.09700 -0.09800
C 	C 	0.73000 0.46600 0.41000 0.01100
C 	C 	0.82200 0.43200 0.93900 0.13600
C 	C 	0.85000 0.46600 0.77200 -0.04700
O 	O 	0.74800 0.32900 0.11700 -0.80200
O 	O 	0.75100 0.33500 0.44700 -0.64000
H 	H 	0.44000 0.71000 0.47000 0.03500
H 	H 	0.38000 0.82200 0.06100 0.02000
H 	H 	0.44000 0.87000 0.35000 0.03300
C 	C 	0.36100 0.75300 0.73000 0.58900
C 	C 	0.43200 0.75700 0.74000 -0.16900
C 	C 	0.46600 0.78900 0.90300 0.20500
C 	C 	0.46600 0.73000 0.59000 0.02800
C 	C 	0.43200 0.82200 0.06100 -0.23500
C 	C 	0.46600 0.85000 0.22800 -0.01000
O 	O 	0.32900 0.74800 0.88300 -0.64300
O 	O 	0.33500 0.75100 0.55300 -0.64200
H 	H 	0.56000 0.29000 0.47000 0.03500
H 	H 	0.62000 0.17800 0.06100 0.02000
H 	H 	0.56000 0.13000 0.35000 0.03300
C 	C 	0.63900 0.24700 0.73000 0.58900
C 	C 	0.56800 0.24300 0.74000 -0.16900
C 	C 	0.53400 0.21100 0.90300 0.20500
C 	C 	0.53400 0.27000 0.59000 0.02800
C 	C 	0.56800 0.17800 0.06100 -0.23500
C 	C 	0.53400 0.15000 0.22800 -0.01000
O 	O 	0.67100 0.25200 0.88300 -0.64300
O 	O 	0.66500 0.24900 0.55300 -0.64200
H 	H 	0.21000 0.06000 0.47000 0.03500
H 	H 	0.32200 0.12000 0.06100 0.02000
H 	H 	0.37000 0.06000 0.35000 0.03300
C 	C 	0.25300 0.13900 0.73000 0.58900
C 	C 	0.25700 0.06800 0.74000 -0.16900
C 	C 	0.28900 0.03400 0.90300 0.20400
C 	C 	0.23000 0.03400 0.59000 0.02800
C 	C 	0.32200 0.06800 0.06100 -0.23400
C 	C 	0.35000 0.03400 0.22800 -0.01000
O 	O 	0.24800 0.17100 0.88300 -0.64300
O 	O 	0.25100 0.16500 0.55300 -0.64200
H 	H 	0.79000 0.94000 0.47000 0.03500
H 	H 	0.67800 0.88000 0.06100 0.02000
H 	H 	0.63000 0.94000 0.35000 0.03300
C 	C 	0.74700 0.86100 0.73000 0.58900
C 	C 	0.74300 0.93200 0.74000 -0.16900
C 	C 	0.71100 0.96600 0.90300 0.20400
C 	C 	0.77000 0.96600 0.59000 0.02800
C 	C 	0.67800 0.93200 0.06100 -0.23400
C 	C 	0.65000 0.96600 0.22800 -0.01000
O 	O 	0.75200 0.82900 0.88300 -0.64300
O 	O 	0.74900 0.83500 0.55300 -0.64200
H 	H 	0.44000 0.29000 0.47000 0.03500
H 	H 	0.38000 0.17800 0.06100 0.02000
H 	H 	0.44000 0.13000 0.35000 0.03300
C 	C 	0.36100 0.24700 0.73000 0.58900
C 	C 	0.43200 0.24300 0.74000 -0.16900
C 	C 	0.46600 0.21100 0.90300 0.20500
C 	C 	0.46600 0.27000 0.59000 0.02800
C 	C 	0.43200 0.17800 0.06100 -0.23500
C 	C 	0.46600 0.15000 0.22800 -0.01000
O 	O 	0.32900 0.25200 0.88300 -0.64300
O 	O 	0.33500 0.24900 0.55300 -0.64200
H 	H 	0.56000 0.71000 0.47000 0.03500
H 	H 	0.62000 0.82200 0.06100 0.02000
H 	H 	0.56000 0.87000 0.35000 0.03300
C 	C 	0.63900 0.75300 0.73000 0.58900
C 	C 	0.56800 0.75700 0.74000 -0.16900
C 	C 	0.53400 0.78900 0.90300 0.20500
C 	C 	0.53400 0.73000 0.59000 0.02800
C 	C 	0.56800 0.82200 0.06100 -0.23500
C 	C 	0.53400 0.85000 0.22800 -0.01000
O 	O 	0.67100 0.74800 0.88300 -0.64300
O 	O 	0.66500 0.75100 0.55300 -0.64200
H 	H 	0.21000 0.94000 0.47000 0.03500
H 	H 	0.32200 0.88000 0.06100 0.02000
H 	H 	0.37000 0.94000 0.35000 0.03300
C 	C 	0.25300 0.86100 0.73000 0.58900
C 	C 	0.25700 0.93200 0.74000 -0.16900
C 	C 	0.28900 0.96600 0.90300 0.20400
C 	C 	0.23000 0.96600 0.59000 0.02800
C 	C 	0.32200 0.93200 0.06100 -0.23400
C 	C 	0.35000 0.96600 0.22800 -0.01000
O 	O 	0.24800 0.82900 0.88300 -0.64300
O 	O 	0.25100 0.83500 0.55300 -0.64200
H 	H 	0.79000 0.06000 0.47000 0.03500
H 	H 	0.67800 0.12000 0.06100 0.02000
H 	H 	0.63000 0.06000 0.35000 0.03300
C 	C 	0.74700 0.13900 0.73000 0.58900
C 	C 	0.74300 0.06800 0.74000 -0.16900
C 	C 	0.71100 0.03400 0.90300 0.20400
C 	C 	0.77000 0.03400 0.59000 0.02800
C 	C 	0.67800 0.06800 0.06100 -0.23400
C 	C 	0.65000 0.03400 0.22800 -0.01000
O 	O 	0.75200 0.17100 0.88300 -0.64300
O 	O 	0.74900 0.16500 0.55300 -0.64200
H 	H 	0.06000 0.79000 0.53000 0.06100
H 	H 	0.12000 0.67800 0.93900 0.03100
H 	H 	0.06000 0.63000 0.65000 0.03300
C 	C 	0.13900 0.74700 0.27000 0.56300
C 	C 	0.06800 0.74300 0.26000 -0.15000
C 	C 	0.03400 0.71100 0.09700 -0.09800
C 	C 	0.03400 0.77000 0.41000 0.01100
C 	C 	0.06800 0.67800 0.93900 0.13500
C 	C 	0.03400 0.65000 0.77200 -0.04700
O 	O 	0.17100 0.75200 0.11700 -0.80200
O 	O 	0.16500 0.74900 0.44700 -0.64100
H 	H 	0.94000 0.21000 0.53000 0.06100
H 	H 	0.88000 0.32200 0.93900 0.03100
H 	H 	0.94000 0.37000 0.65000 0.03300
C 	C 	0.86100 0.25300 0.27000 0.56300
C 	C 	0.93200 0.25700 0.26000 -0.15000
C 	C 	0.96600 0.28900 0.09700 -0.09800
C 	C 	0.96600 0.23000 0.41000 0.01100
C 	C 	0.93200 0.32200 0.93900 0.13500
C 	C 	0.96600 0.35000 0.77200 -0.04700
O 	O 	0.82900 0.24800 0.11700 -0.80200
O 	O 	0.83500 0.25100 0.44700 -0.64100
H 	H 	0.29000 0.44000 0.53000 0.06100
H 	H 	0.17800 0.38000 0.93900 0.03100
H 	H 	0.13000 0.44000 0.65000 0.03300
C 	C 	0.24700 0.36100 0.27000 0.56300
C 	C 	0.24300 0.43200 0.26000 -0.15000
C 	C 	0.21100 0.46600 0.09700 -0.09800
C 	C 	0.27000 0.46600 0.41000 0.01100
C 	C 	0.17800 0.43200 0.93900 0.13600
C 	C 	0.15000 0.46600 0.77200 -0.04700
O 	O 	0.25200 0.32900 0.11700 -0.80200
O 	O 	0.24900 0.33500 0.44700 -0.64000
H 	H 	0.71000 0.56000 0.53000 0.06100
H 	H 	0.82200 0.62000 0.93900 0.03100
H 	H 	0.87000 0.56000 0.65000 0.03300
C 	C 	0.75300 0.63900 0.27000 0.56300
C 	C 	0.75700 0.56800 0.26000 -0.15000
C 	C 	0.78900 0.53400 0.09700 -0.09800
C 	C 	0.73000 0.53400 0.41000 0.01100
C 	C 	0.82200 0.56800 0.93900 0.13600
C 	C 	0.85000 0.53400 0.77200 -0.04700
O 	O 	0.74800 0.67100 0.11700 -0.80200
O 	O 	0.75100 0.66500 0.44700 -0.64000
H 	H 	0.30470 0.19530 0.28500 0.83600
O 	O 	0.28100 0.21900 0.28500 -1.58600
H 	H 	0.69530 0.80470 0.28500 0.83600
O 	O 	0.71900 0.78100 0.28500 -1.58600
H 	H 	0.30470 0.80470 0.28500 0.83600
O 	O 	0.28100 0.78100 0.28500 -1.58600
H 	H 	0.69530 0.19530 0.28500 0.83600
O 	O 	0.71900 0.21900 0.28500 -1.58600
H 	H 	0.19530 0.69530 0.71500 0.83300
O 	O 	0.21900 0.71900 0.71500 -1.51700
H 	H 	0.80470 0.30470 0.71500 0.83300
O 	O 	0.78100 0.28100 0.71500 -1.51700
H 	H 	0.19530 0.30470 0.71500 0.83300
O 	O 	0.21900 0.28100 0.71500 -1.51700
H 	H 	0.80470 0.69530 0.71500 0.83300
O 	O 	0.78100 0.71900 0.71500 -1.51700
Al	Al	0.25000 0.75000 -0.00000 2.39400
Al	Al	0.75000 0.25000 -0.00000 2.39400
Al	Al	0.75000 0.75000 -0.00000 2.39400
Al	Al	0.25000 0.25000 -0.00000 2.39400
Al	Al	0.25000 0.75000 0.50000 2.42400
Al	Al	0.75000 0.25000 0.50000 2.42400
Al	Al	0.75000 0.75000 0.50000 2.42400
Al	Al	0.25000 0.25000 0.50000 2.42400
