data_crystal

_cell_length_a 19.89530
_cell_length_b 18.68480
_cell_length_c 27.90370
_cell_angle_alpha 90.00000
_cell_angle_beta  107.26600
_cell_angle_gamma 90.00000

_symmetry_space_group_name_	'P 1'
_symmetry_space_group_name_H-M	'P 1'

loop_
_symmetry_equiv_pos_as_xyz
  x,y,z

loop_
_atom_site_label
_atom_site_type_symbol
_atom_site_fract_x
_atom_site_fract_y
_atom_site_fract_z
_atom_site_charge
Sm	Sm	0.49451 0.01622 0.41361 1.24900
Sm	Sm	0.45628 0.43118 0.44133 1.90900
O 	O 	0.40771 0.92582 0.36681 -0.19700
O 	O 	0.48816 0.88729 0.43482 -0.22700
O 	O 	0.57650 0.10570 0.39060 -0.16600
O 	O 	0.07900 0.70110 0.11503 -0.36000
O 	O 	0.09180 0.58898 0.13871 -0.52700
O 	O 	0.42100 0.55305 0.42546 -0.48300
O 	O 	0.48797 0.62949 0.48147 -0.52900
O 	O 	0.43817 0.50442 0.52859 -0.57000
O 	O 	0.46810 0.53550 0.85656 -0.41900
O 	O 	0.36370 0.56870 0.85881 -0.42500
O 	O 	0.08292 0.49177 0.53744 -0.58900
O 	O 	0.10995 0.50000 0.46692 -0.54300
O 	O 	0.35508 0.44660 0.47122 -0.48100
C 	C 	0.43530 0.87620 0.39653 0.28800
C 	C 	0.40600 0.80170 0.38614 -0.05200
C 	C 	0.43510 0.74580 0.41837 0.03700
H 	H 	0.47180 0.75500 0.44840 0.03400
C 	C 	0.41060 0.67650 0.40682 -0.12300
C 	C 	0.44370 0.61380 0.44087 0.46900
C 	C 	0.35680 0.66320 0.36272 0.00200
H 	H 	0.34050 0.61560 0.35480 0.04400
C 	C 	0.32630 0.71920 0.32968 -0.00200
C 	C 	0.35160 0.78840 0.34249 -0.02400
H 	H 	0.33140 0.82710 0.32100 0.04600
C 	C 	0.26960 0.70390 0.28241 -0.00300
C 	C 	0.26180 0.63560 0.26140 -0.30500
H 	H 	0.29340 0.59870 0.27750 0.12100
C 	C 	0.20900 0.62020 0.21760 -0.21600
H 	H 	0.20400 0.57280 0.20470 0.09400
C 	C 	0.17310 0.74230 0.21140 -1.05300
H 	H 	0.14380 0.77970 0.19360 0.32500
C 	C 	0.22470 0.75740 0.25580 -1.20200
H 	H 	0.22960 0.80500 0.26850 0.41100
C 	C 	0.16370 0.67260 0.19237 -0.22200
C 	C 	0.10740 0.65340 0.14528 0.46300
C 	C 	0.37570 0.48160 0.51112 0.45100
C 	C 	0.32410 0.49460 0.54003 -0.17800
C 	C 	0.25260 0.48970 0.51515 0.10900
H 	H 	0.23700 0.48050 0.48010 0.01800
C 	C 	0.20380 0.49840 0.54163 -0.19900
C 	C 	0.12700 0.49630 0.51382 0.51400
C 	C 	0.22710 0.50870 0.59306 0.06200
H 	H 	0.19380 0.51240 0.61130 0.01400
C 	C 	0.29960 0.51380 0.61887 -0.07200
C 	C 	0.34720 0.50760 0.59112 0.04800
H 	H 	0.39620 0.51230 0.60750 0.00800
C 	C 	0.32530 0.52260 0.67439 0.05400
C 	C 	0.37570 0.53830 0.77895 -0.09500
C 	C 	0.40380 0.54920 0.83472 0.32300
C 	C 	0.27930 0.54400 0.70010 -0.00900
H 	H 	0.23120 0.55370 0.68320 0.04600
C 	C 	0.30690 0.55070 0.75170 -0.01700
H 	H 	0.27550 0.56500 0.76980 0.00300
C 	C 	0.41610 0.50100 0.75320 -0.03000
H 	H 	0.46040 0.48110 0.77130 0.04200
C 	C 	0.39080 0.49340 0.70140 -0.02800
H 	H 	0.41800 0.46830 0.68400 0.03900
O 	O 	0.54380 0.96380 0.35420 -0.10000
N 	N 	0.58070 0.96180 0.28410 0.29100
C 	C 	0.56290 0.93730 0.32120 0.21500
C 	C 	0.60770 0.92390 0.24880 -1.10100
H 	H 	0.61010 0.87260 0.25660 0.61000
H 	H 	0.65490 0.94160 0.25110 0.45300
H 	H 	0.57650 0.93160 0.21470 0.44100
C 	C 	0.57640 0.03880 0.27890 -0.88900
H 	H 	0.55780 0.05900 0.30480 0.25900
H 	H 	0.54510 0.05120 0.24570 0.20100
H 	H 	0.62350 0.05830 0.28280 0.30500
C 	C 	0.57600 0.85420 0.32700 -0.09300
H 	H 	0.56210 0.83670 0.35580 0.39100
H 	H 	0.62610 0.84420 0.33230 0.06400
H 	H 	0.54810 0.82990 0.29640 0.10000
O 	O 	0.54960 0.11230 0.37540 -0.15900
C 	C 	0.22980 0.64130 0.27860 0.18100
H 	H 	0.23860 0.60900 0.30610 -0.01300
C 	C 	0.17730 0.62660 0.23420 0.28100
H 	H 	0.14980 0.58450 0.23190 -0.06100
C 	C 	0.19770 0.73480 0.19900 1.10200
H 	H 	0.18580 0.76960 0.17300 -0.31200
C 	C 	0.25080 0.74980 0.24360 1.12200
H 	H 	0.27460 0.79440 0.24660 -0.33600
C 	C 	0.28940 0.55000 0.70600 -0.05600
H 	H 	0.24240 0.56330 0.68890 -0.00200
C 	C 	0.30730 0.56100 0.75750 0.02600
H 	H 	0.27760 0.58160 0.77490 0.01400
C 	C 	0.41740 0.55970 0.75020 0.03300
H 	H 	0.46210 0.58110 0.76500 0.01400
C 	C 	0.39200 0.54870 0.69880 -0.09000
H 	H 	0.42220 0.55980 0.67910 0.05900
O 	O 	0.53700 0.81900 0.32930 -0.69000
C 	C 	0.55810 0.78730 0.29810 0.64100
N 	N 	0.53370 0.72560 0.27830 -0.24300
C 	C 	0.48360 0.68780 0.29780 0.19800
H 	H 	0.47280 0.71540 0.32360 -0.01600
H 	H 	0.44110 0.67800 0.27150 -0.03800
H 	H 	0.50520 0.64350 0.31170 -0.00700
C 	C 	0.55690 0.68310 0.24270 0.05000
H 	H 	0.58850 0.71320 0.23170 0.00700
H 	H 	0.58000 0.63890 0.25530 0.01600
H 	H 	0.51590 0.67350 0.21510 -0.08300
C 	C 	0.61220 0.82870 0.27690 -1.61300
H 	H 	0.62390 0.87270 0.29520 0.47000
H 	H 	0.65430 0.80110 0.28090 0.49400
H 	H 	0.59090 0.83890 0.24200 0.29500
O 	O 	0.63870 0.02800 0.32880 -0.37700
Sm	Sm	0.99451 0.51622 0.41361 2.12100
Sm	Sm	0.95628 0.93118 0.44133 2.34400
O 	O 	0.90771 0.42582 0.36681 -0.42800
O 	O 	0.98816 0.38729 0.43482 -0.43400
O 	O 	0.07650 0.60570 0.39060 0.03400
O 	O 	0.57900 0.20110 0.11503 -0.35600
O 	O 	0.59180 0.08898 0.13871 -0.54600
O 	O 	0.92100 0.05305 0.42546 -0.76100
O 	O 	0.98797 0.12949 0.48147 -0.55800
O 	O 	0.93817 0.00442 0.52859 -0.97700
O 	O 	0.96810 0.03550 0.85656 -0.43600
O 	O 	0.86370 0.06870 0.85881 -0.40500
O 	O 	0.58292 0.99177 0.53744 -0.54800
O 	O 	0.60995 0.00000 0.46692 -0.96000
O 	O 	0.85508 0.94660 0.47122 -0.47300
C 	C 	0.93530 0.37620 0.39653 0.32400
C 	C 	0.90600 0.30170 0.38614 -0.10200
C 	C 	0.93510 0.24580 0.41837 0.06500
H 	H 	0.97180 0.25500 0.44840 0.01300
C 	C 	0.91060 0.17650 0.40682 -0.18900
C 	C 	0.94370 0.11380 0.44087 0.49700
C 	C 	0.85680 0.16320 0.36272 0.03200
H 	H 	0.84050 0.11560 0.35480 -0.01000
C 	C 	0.82630 0.21920 0.32968 -0.02700
C 	C 	0.85160 0.28840 0.34249 -0.00700
H 	H 	0.83140 0.32710 0.32100 0.03200
C 	C 	0.76960 0.20390 0.28241 -0.02300
C 	C 	0.76180 0.13560 0.26140 -0.49500
H 	H 	0.79340 0.09870 0.27750 0.13100
C 	C 	0.70900 0.12020 0.21760 -0.38600
H 	H 	0.70400 0.07280 0.20470 -0.00700
C 	C 	0.67310 0.24230 0.21140 -1.63100
H 	H 	0.64380 0.27970 0.19360 0.54300
C 	C 	0.72470 0.25740 0.25580 -1.82500
H 	H 	0.72960 0.30500 0.26850 0.61000
C 	C 	0.66370 0.17260 0.19237 -0.30000
C 	C 	0.60740 0.15340 0.14528 0.45500
C 	C 	0.87570 0.98160 0.51112 0.69800
C 	C 	0.82410 0.99460 0.54003 0.79600
C 	C 	0.75260 0.98970 0.51515 -0.52600
H 	H 	0.73700 0.98050 0.48010 0.33200
C 	C 	0.70380 0.99840 0.54163 0.72900
C 	C 	0.62700 0.99630 0.51382 0.82500
C 	C 	0.72710 0.00870 0.59306 -1.16300
H 	H 	0.69380 0.01240 0.61130 0.26600
C 	C 	0.79960 0.01380 0.61887 0.81500
C 	C 	0.84720 0.00760 0.59112 -1.23500
H 	H 	0.89620 0.01230 0.60750 0.33600
C 	C 	0.82530 0.02260 0.67439 -0.90300
C 	C 	0.87570 0.03830 0.77895 0.58000
C 	C 	0.90380 0.04920 0.83472 0.02800
C 	C 	0.77930 0.04400 0.70010 -0.05800
H 	H 	0.73120 0.05370 0.68320 0.00400
C 	C 	0.80690 0.05070 0.75170 -0.06300
H 	H 	0.77550 0.06500 0.76980 0.05100
C 	C 	0.91610 0.00100 0.75320 6.18600
H 	H 	0.96040 0.98110 0.77130 -1.66600
C 	C 	0.89080 0.99340 0.70140 -7.25400
H 	H 	0.91800 0.96830 0.68400 2.65000
O 	O 	0.04380 0.46380 0.35420 -0.46800
N 	N 	0.08070 0.46180 0.28410 -0.04400
C 	C 	0.06290 0.43730 0.32120 0.30000
C 	C 	0.10770 0.42390 0.24880 -0.79200
H 	H 	0.11010 0.37260 0.25660 0.46000
H 	H 	0.15490 0.44160 0.25110 0.25600
H 	H 	0.07650 0.43160 0.21470 0.27100
C 	C 	0.07640 0.53880 0.27890 -0.25800
H 	H 	0.05780 0.55900 0.30480 0.14500
H 	H 	0.04510 0.55120 0.24570 0.10900
H 	H 	0.12350 0.55830 0.28280 0.15600
C 	C 	0.07600 0.35420 0.32700 -0.22700
H 	H 	0.06210 0.33670 0.35580 0.37900
H 	H 	0.12610 0.34420 0.33230 0.07400
H 	H 	0.04810 0.32990 0.29640 0.16800
O 	O 	0.04960 0.61230 0.37540 -0.34100
C 	C 	0.72980 0.14130 0.27860 0.32500
H 	H 	0.73860 0.10900 0.30610 -0.10600
C 	C 	0.67730 0.12660 0.23420 0.49900
H 	H 	0.64980 0.08450 0.23190 -0.19700
C 	C 	0.69770 0.23480 0.19900 1.68800
H 	H 	0.68580 0.26960 0.17300 -0.49300
C 	C 	0.75080 0.24980 0.24360 1.74800
H 	H 	0.77460 0.29440 0.24660 -0.51200
C 	C 	0.78940 0.05000 0.70600 0.10900
H 	H 	0.74240 0.06330 0.68890 -0.03700
C 	C 	0.80730 0.06100 0.75750 -0.21600
H 	H 	0.77760 0.08160 0.77490 0.01800
C 	C 	0.91740 0.05970 0.75020 -7.92900
H 	H 	0.96210 0.08110 0.76500 2.56300
C 	C 	0.89200 0.04870 0.69880 8.31900
H 	H 	0.92220 0.05980 0.67910 -2.72500
O 	O 	0.03700 0.31900 0.32930 -0.62200
C 	C 	0.05810 0.28730 0.29810 0.48700
N 	N 	0.03370 0.22560 0.27830 -0.23000
C 	C 	0.98360 0.18780 0.29780 0.18900
H 	H 	0.97280 0.21540 0.32360 -0.01800
H 	H 	0.94110 0.17800 0.27150 -0.04000
H 	H 	0.00520 0.14350 0.31170 -0.02400
C 	C 	0.05690 0.18310 0.24270 0.07700
H 	H 	0.08850 0.21320 0.23170 -0.01200
H 	H 	0.08000 0.13890 0.25530 -0.05300
H 	H 	0.01590 0.17350 0.21510 -0.09300
C 	C 	0.11220 0.32870 0.27690 -1.32400
H 	H 	0.12390 0.37270 0.29520 0.38000
H 	H 	0.15430 0.30110 0.28090 0.38200
H 	H 	0.09090 0.33890 0.24200 0.26100
O 	O 	0.13870 0.52800 0.32880 -0.16800
Sm	Sm	0.50549 0.01622 0.08639 1.24900
Sm	Sm	0.54372 0.43118 0.05867 1.90700
O 	O 	0.59229 0.92582 0.13319 -0.19800
O 	O 	0.51184 0.88729 0.06518 -0.22900
O 	O 	0.42350 0.10570 0.10940 -0.16600
O 	O 	0.92100 0.70110 0.38497 -0.36000
O 	O 	0.90820 0.58898 0.36129 -0.52700
O 	O 	0.57900 0.55305 0.07454 -0.48300
O 	O 	0.51203 0.62949 0.01853 -0.52900
O 	O 	0.56183 0.50442 0.97141 -0.57000
O 	O 	0.53190 0.53550 0.64344 -0.41900
O 	O 	0.63630 0.56870 0.64119 -0.42600
O 	O 	0.91708 0.49177 0.96256 -0.58700
O 	O 	0.89005 0.50000 0.03308 -0.53900
O 	O 	0.64492 0.44660 0.02878 -0.48000
C 	C 	0.56470 0.87620 0.10347 0.28800
C 	C 	0.59400 0.80170 0.11386 -0.05200
C 	C 	0.56490 0.74580 0.08163 0.03700
H 	H 	0.52820 0.75500 0.05160 0.03400
C 	C 	0.58940 0.67650 0.09318 -0.12300
C 	C 	0.55630 0.61380 0.05913 0.46800
C 	C 	0.64320 0.66320 0.13728 0.00200
H 	H 	0.65950 0.61560 0.14520 0.04500
C 	C 	0.67370 0.71920 0.17032 -0.00100
C 	C 	0.64840 0.78840 0.15751 -0.02400
H 	H 	0.66860 0.82710 0.17900 0.04700
C 	C 	0.73040 0.70390 0.21759 -0.00400
C 	C 	0.73820 0.63560 0.23860 -0.30700
H 	H 	0.70660 0.59870 0.22250 0.12100
C 	C 	0.79100 0.62020 0.28240 -0.21800
H 	H 	0.79600 0.57280 0.29530 0.09400
C 	C 	0.82690 0.74230 0.28860 -1.06200
H 	H 	0.85620 0.77970 0.30640 0.32800
C 	C 	0.77530 0.75740 0.24420 -1.21200
H 	H 	0.77040 0.80500 0.23150 0.41400
C 	C 	0.83630 0.67260 0.30763 -0.22300
C 	C 	0.89260 0.65340 0.35472 0.46300
C 	C 	0.62430 0.48160 0.98888 0.44900
C 	C 	0.67590 0.49460 0.95997 -0.17600
C 	C 	0.74740 0.48970 0.98485 0.10500
H 	H 	0.76300 0.48050 0.01990 0.02000
C 	C 	0.79620 0.49840 0.95837 -0.19700
C 	C 	0.87300 0.49630 0.98618 0.51000
C 	C 	0.77290 0.50870 0.90694 0.06000
H 	H 	0.80620 0.51240 0.88870 0.01500
C 	C 	0.70040 0.51380 0.88113 -0.07000
C 	C 	0.65280 0.50760 0.90888 0.04600
H 	H 	0.60380 0.51230 0.89250 0.00900
C 	C 	0.67470 0.52260 0.82561 0.05300
C 	C 	0.62430 0.53830 0.72105 -0.09500
C 	C 	0.59620 0.54920 0.66528 0.32300
C 	C 	0.72070 0.54400 0.79990 -0.00900
H 	H 	0.76880 0.55370 0.81680 0.04600
C 	C 	0.69310 0.55070 0.74830 -0.01700
H 	H 	0.72450 0.56500 0.73020 0.00300
C 	C 	0.58390 0.50100 0.74680 -0.02900
H 	H 	0.53960 0.48110 0.72870 0.04200
C 	C 	0.60920 0.49340 0.79860 -0.02800
H 	H 	0.58200 0.46830 0.81600 0.03900
O 	O 	0.45620 0.96380 0.14580 -0.10000
N 	N 	0.41930 0.96180 0.21590 0.29100
C 	C 	0.43710 0.93730 0.17880 0.21500
C 	C 	0.39230 0.92390 0.25120 -1.10100
H 	H 	0.38990 0.87260 0.24340 0.61000
H 	H 	0.34510 0.94160 0.24890 0.45300
H 	H 	0.42350 0.93160 0.28530 0.44100
C 	C 	0.42360 0.03880 0.22110 -0.88900
H 	H 	0.44220 0.05900 0.19520 0.25900
H 	H 	0.45490 0.05120 0.25430 0.20100
H 	H 	0.37650 0.05830 0.21720 0.30500
C 	C 	0.42400 0.85420 0.17300 -0.09300
H 	H 	0.43790 0.83670 0.14420 0.39100
H 	H 	0.37390 0.84420 0.16770 0.06400
H 	H 	0.45190 0.82990 0.20360 0.10000
O 	O 	0.45040 0.11230 0.12460 -0.15900
C 	C 	0.77020 0.64130 0.22140 0.18300
H 	H 	0.76140 0.60900 0.19390 -0.01400
C 	C 	0.82270 0.62660 0.26580 0.28400
H 	H 	0.85020 0.58450 0.26810 -0.06200
C 	C 	0.80230 0.73480 0.30100 1.11200
H 	H 	0.81420 0.76960 0.32700 -0.31500
C 	C 	0.74920 0.74980 0.25640 1.13200
H 	H 	0.72540 0.79440 0.25340 -0.33900
C 	C 	0.71060 0.55000 0.79400 -0.05600
H 	H 	0.75760 0.56330 0.81110 -0.00200
C 	C 	0.69270 0.56100 0.74250 0.02600
H 	H 	0.72240 0.58160 0.72510 0.01400
C 	C 	0.58260 0.55970 0.74980 0.03300
H 	H 	0.53790 0.58110 0.73500 0.01400
C 	C 	0.60800 0.54870 0.80120 -0.09000
H 	H 	0.57780 0.55980 0.82090 0.05900
O 	O 	0.46300 0.81900 0.17070 -0.69100
C 	C 	0.44190 0.78730 0.20190 0.64200
N 	N 	0.46630 0.72560 0.22170 -0.24300
C 	C 	0.51640 0.68780 0.20220 0.19800
H 	H 	0.52720 0.71540 0.17640 -0.01600
H 	H 	0.55890 0.67800 0.22850 -0.03800
H 	H 	0.49480 0.64350 0.18830 -0.00700
C 	C 	0.44310 0.68310 0.25730 0.05000
H 	H 	0.41150 0.71320 0.26830 0.00700
H 	H 	0.42000 0.63890 0.24470 0.01600
H 	H 	0.48410 0.67350 0.28490 -0.08300
C 	C 	0.38780 0.82870 0.22310 -1.61300
H 	H 	0.37610 0.87270 0.20480 0.47000
H 	H 	0.34570 0.80110 0.21910 0.49400
H 	H 	0.40910 0.83890 0.25800 0.29500
O 	O 	0.36130 0.02800 0.17120 -0.37700
Sm	Sm	0.00549 0.51622 0.08639 2.11600
Sm	Sm	0.04372 0.93118 0.05867 2.34100
O 	O 	0.09229 0.42582 0.13319 -0.42800
O 	O 	0.01184 0.38729 0.06518 -0.43500
O 	O 	0.92350 0.60570 0.10940 0.03200
O 	O 	0.42100 0.20110 0.38497 -0.35600
O 	O 	0.40820 0.08898 0.36129 -0.54600
O 	O 	0.07900 0.05305 0.07454 -0.76100
O 	O 	0.01203 0.12949 0.01853 -0.55900
O 	O 	0.06183 0.00442 0.97141 -0.96700
O 	O 	0.03190 0.03550 0.64344 -0.43600
O 	O 	0.13630 0.06870 0.64119 -0.40600
O 	O 	0.41708 0.99177 0.96256 -0.54900
O 	O 	0.39005 0.00000 0.03308 -0.95700
O 	O 	0.14492 0.94660 0.02878 -0.47000
C 	C 	0.06470 0.37620 0.10347 0.32400
C 	C 	0.09400 0.30170 0.11386 -0.10300
C 	C 	0.06490 0.24580 0.08163 0.06500
H 	H 	0.02820 0.25500 0.05160 0.01300
C 	C 	0.08940 0.17650 0.09318 -0.18900
C 	C 	0.05630 0.11380 0.05913 0.49700
C 	C 	0.14320 0.16320 0.13728 0.03200
H 	H 	0.15950 0.11560 0.14520 -0.01000
C 	C 	0.17370 0.21920 0.17032 -0.02700
C 	C 	0.14840 0.28840 0.15751 -0.00700
H 	H 	0.16860 0.32710 0.17900 0.03200
C 	C 	0.23040 0.20390 0.21759 -0.02400
C 	C 	0.23820 0.13560 0.23860 -0.49600
H 	H 	0.20660 0.09870 0.22250 0.13100
C 	C 	0.29100 0.12020 0.28240 -0.38700
H 	H 	0.29600 0.07280 0.29530 -0.00700
C 	C 	0.32690 0.24230 0.28860 -1.63400
H 	H 	0.35620 0.27970 0.30640 0.54400
C 	C 	0.27530 0.25740 0.24420 -1.82800
H 	H 	0.27040 0.30500 0.23150 0.61100
C 	C 	0.33630 0.17260 0.30763 -0.30000
C 	C 	0.39260 0.15340 0.35472 0.45500
C 	C 	0.12430 0.98160 0.98888 0.68900
C 	C 	0.17590 0.99460 0.95997 0.79000
C 	C 	0.24740 0.98970 0.98485 -0.52600
H 	H 	0.26300 0.98050 0.01990 0.33300
C 	C 	0.29620 0.99840 0.95837 0.72200
C 	C 	0.37300 0.99630 0.98618 0.82100
C 	C 	0.27290 0.00870 0.90694 -1.15000
H 	H 	0.30620 0.01240 0.88870 0.26400
C 	C 	0.20040 0.01380 0.88113 0.80800
C 	C 	0.15280 0.00760 0.90888 -1.22200
H 	H 	0.10380 0.01230 0.89250 0.33400
C 	C 	0.17470 0.02260 0.82561 -0.89700
C 	C 	0.12430 0.03830 0.72105 0.57800
C 	C 	0.09620 0.04920 0.66528 0.02900
C 	C 	0.22070 0.04400 0.79990 -0.05800
H 	H 	0.26880 0.05370 0.81680 0.00400
C 	C 	0.19310 0.05070 0.74830 -0.06300
H 	H 	0.22450 0.06500 0.73020 0.05100
C 	C 	0.08390 0.00100 0.74680 6.16300
H 	H 	0.03960 0.98110 0.72870 -1.65900
C 	C 	0.10920 0.99340 0.79860 -7.23100
H 	H 	0.08200 0.96830 0.81600 2.64200
O 	O 	0.95620 0.46380 0.14580 -0.46700
N 	N 	0.91930 0.46180 0.21590 -0.04300
C 	C 	0.93710 0.43730 0.17880 0.30000
C 	C 	0.89230 0.42390 0.25120 -0.79200
H 	H 	0.88990 0.37260 0.24340 0.46000
H 	H 	0.84510 0.44160 0.24890 0.25600
H 	H 	0.92350 0.43160 0.28530 0.27100
C 	C 	0.92360 0.53880 0.22110 -0.25900
H 	H 	0.94220 0.55900 0.19520 0.14600
H 	H 	0.95490 0.55120 0.25430 0.11000
H 	H 	0.87650 0.55830 0.21720 0.15700
C 	C 	0.92400 0.35420 0.17300 -0.22900
H 	H 	0.93790 0.33670 0.14420 0.38000
H 	H 	0.87390 0.34420 0.16770 0.07500
H 	H 	0.95190 0.32990 0.20360 0.16800
O 	O 	0.95040 0.61230 0.12460 -0.33800
C 	C 	0.27020 0.14130 0.22140 0.32500
H 	H 	0.26140 0.10900 0.19390 -0.10600
C 	C 	0.32270 0.12660 0.26580 0.50000
H 	H 	0.35020 0.08450 0.26810 -0.19700
C 	C 	0.30230 0.23480 0.30100 1.69100
H 	H 	0.31420 0.26960 0.32700 -0.49400
C 	C 	0.24920 0.24980 0.25640 1.75100
H 	H 	0.22540 0.29440 0.25340 -0.51300
C 	C 	0.21060 0.05000 0.79400 0.10800
H 	H 	0.25760 0.06330 0.81110 -0.03700
C 	C 	0.19270 0.06100 0.74250 -0.21500
H 	H 	0.22240 0.08160 0.72510 0.01700
C 	C 	0.08260 0.05970 0.74980 -7.90100
H 	H 	0.03790 0.08110 0.73500 2.55400
C 	C 	0.10800 0.04870 0.80120 8.29100
H 	H 	0.07780 0.05980 0.82090 -2.71500
O 	O 	0.96300 0.31900 0.17070 -0.62100
C 	C 	0.94190 0.28730 0.20190 0.48700
N 	N 	0.96630 0.22560 0.22170 -0.22800
C 	C 	0.01640 0.18780 0.20220 0.18900
H 	H 	0.02720 0.21540 0.17640 -0.02000
H 	H 	0.05890 0.17800 0.22850 -0.03900
H 	H 	0.99480 0.14350 0.18830 -0.02200
C 	C 	0.94310 0.18310 0.25730 0.07700
H 	H 	0.91150 0.21320 0.26830 -0.01100
H 	H 	0.92000 0.13890 0.24470 -0.05200
H 	H 	0.98410 0.17350 0.28490 -0.09000
C 	C 	0.88780 0.32870 0.22310 -1.32400
H 	H 	0.87610 0.37270 0.20480 0.38000
H 	H 	0.84570 0.30110 0.21910 0.38200
H 	H 	0.90910 0.33890 0.25800 0.26100
O 	O 	0.86130 0.52800 0.17120 -0.16800
Sm	Sm	0.50549 0.98378 0.58639 3.39000
Sm	Sm	0.54372 0.56882 0.55867 1.92400
O 	O 	0.59229 0.07418 0.63319 -0.68200
O 	O 	0.51184 0.11271 0.56518 -0.62800
O 	O 	0.42350 0.89430 0.60940 0.49000
O 	O 	0.92100 0.29890 0.88497 -0.33800
O 	O 	0.90820 0.41102 0.86129 -0.51900
O 	O 	0.57900 0.44695 0.57454 -0.48800
O 	O 	0.51203 0.37051 0.51853 -0.53800
O 	O 	0.56183 0.49558 0.47141 -0.57000
O 	O 	0.53190 0.46450 0.14344 -0.41800
O 	O 	0.63630 0.43130 0.14119 -0.42700
O 	O 	0.91708 0.50823 0.46256 -0.59000
O 	O 	0.89005 0.50000 0.53308 -0.54300
O 	O 	0.64492 0.55340 0.52878 -0.47600
C 	C 	0.56470 0.12380 0.60347 0.35200
C 	C 	0.59400 0.19830 0.61386 -0.12900
C 	C 	0.56490 0.25420 0.58163 0.06300
H 	H 	0.52820 0.24500 0.55160 0.01200
C 	C 	0.58940 0.32350 0.59318 -0.15500
C 	C 	0.55630 0.38620 0.55913 0.47500
C 	C 	0.64320 0.33680 0.63728 0.02600
H 	H 	0.65950 0.38440 0.64520 0.03300
C 	C 	0.67370 0.28080 0.67032 -0.05800
C 	C 	0.64840 0.21160 0.65751 0.00800
H 	H 	0.66860 0.17290 0.67900 0.01700
C 	C 	0.73040 0.29610 0.71759 0.05200
C 	C 	0.73820 0.36440 0.73860 -0.07600
H 	H 	0.70660 0.40130 0.72250 0.05500
C 	C 	0.79100 0.37980 0.78240 0.00500
H 	H 	0.79600 0.42720 0.79530 0.02900
C 	C 	0.82690 0.25770 0.78860 -0.04800
H 	H 	0.85620 0.22030 0.80640 0.07100
C 	C 	0.77530 0.24260 0.74420 -0.13000
H 	H 	0.77040 0.19500 0.73150 0.07000
C 	C 	0.83630 0.32740 0.80763 -0.14200
C 	C 	0.89260 0.34660 0.85472 0.42600
C 	C 	0.62430 0.51840 0.48888 0.44800
C 	C 	0.67590 0.50540 0.45997 -0.17800
C 	C 	0.74740 0.51030 0.48485 0.10700
H 	H 	0.76300 0.51950 0.51990 0.01900
C 	C 	0.79620 0.50160 0.45837 -0.20100
C 	C 	0.87300 0.50370 0.48618 0.51300
C 	C 	0.77290 0.49130 0.40694 0.05900
H 	H 	0.80620 0.48760 0.38870 0.01300
C 	C 	0.70040 0.48620 0.38113 -0.07200
C 	C 	0.65280 0.49240 0.40888 0.04600
H 	H 	0.60380 0.48770 0.39250 0.00900
C 	C 	0.67470 0.47740 0.32561 0.05300
C 	C 	0.62430 0.46170 0.22105 -0.09300
C 	C 	0.59620 0.45080 0.16528 0.32100
C 	C 	0.72070 0.45600 0.29990 -0.01100
H 	H 	0.76880 0.44630 0.31680 0.04200
C 	C 	0.69310 0.44930 0.24830 -0.02100
H 	H 	0.72450 0.43500 0.23020 0.00100
C 	C 	0.58390 0.49900 0.24680 -0.04100
H 	H 	0.53960 0.51890 0.22870 0.04500
C 	C 	0.60920 0.50660 0.29860 -0.03100
H 	H 	0.58200 0.53170 0.31600 0.03900
O 	O 	0.45620 0.03620 0.64580 -0.83600
N 	N 	0.41930 0.03820 0.71590 -0.37100
C 	C 	0.43710 0.06270 0.67880 0.38400
C 	C 	0.39230 0.07610 0.75120 -0.54800
H 	H 	0.38990 0.12740 0.74340 0.35100
H 	H 	0.34510 0.05840 0.74890 0.07400
H 	H 	0.42350 0.06840 0.78530 0.11400
C 	C 	0.42360 0.96120 0.72110 0.37100
H 	H 	0.44220 0.94100 0.69520 0.03100
H 	H 	0.45490 0.94880 0.75430 0.01200
H 	H 	0.37650 0.94170 0.71720 0.00200
C 	C 	0.42400 0.14580 0.67300 -0.32400
H 	H 	0.43790 0.16330 0.64420 0.39100
H 	H 	0.37390 0.15580 0.66770 0.09800
H 	H 	0.45190 0.17010 0.70360 0.18600
O 	O 	0.45040 0.88770 0.62460 -0.78400
C 	C 	0.77020 0.35870 0.72140 -0.05200
H 	H 	0.76140 0.39100 0.69390 0.05000
C 	C 	0.82270 0.37340 0.76580 0.02600
H 	H 	0.85020 0.41550 0.76810 0.01300
C 	C 	0.80230 0.26520 0.80100 0.06400
H 	H 	0.81420 0.23040 0.82700 -0.00200
C 	C 	0.74920 0.25020 0.75640 0.02500
H 	H 	0.72540 0.20560 0.75340 -0.01100
C 	C 	0.71060 0.45000 0.29400 -0.05700
H 	H 	0.75760 0.43670 0.31110 -0.00100
C 	C 	0.69270 0.43900 0.24250 0.02500
H 	H 	0.72240 0.41840 0.22510 0.01700
C 	C 	0.58260 0.44030 0.24980 0.04600
H 	H 	0.53790 0.41890 0.23500 0.01800
C 	C 	0.60800 0.45130 0.30120 -0.08400
H 	H 	0.57780 0.44020 0.32090 0.06100
O 	O 	0.46300 0.18100 0.67070 -0.59600
C 	C 	0.44190 0.21270 0.70190 0.47700
N 	N 	0.46630 0.27440 0.72170 -0.21700
C 	C 	0.51640 0.31220 0.70220 0.19800
H 	H 	0.52720 0.28460 0.67640 -0.01700
H 	H 	0.55890 0.32200 0.72850 -0.05000
H 	H 	0.49480 0.35650 0.68830 -0.00500
C 	C 	0.44310 0.31690 0.75730 0.06300
H 	H 	0.41150 0.28680 0.76830 0.01900
H 	H 	0.42000 0.36110 0.74470 0.02000
H 	H 	0.48410 0.32650 0.78490 -0.08600
C 	C 	0.38780 0.17130 0.72310 -1.25200
H 	H 	0.37610 0.12730 0.70480 0.35300
H 	H 	0.34570 0.19890 0.71910 0.39300
H 	H 	0.40910 0.16110 0.75800 0.27600
O 	O 	0.36130 0.97200 0.67120 0.04600
Sm	Sm	0.00549 0.48378 0.58639 2.11500
Sm	Sm	0.04372 0.06882 0.55867 1.49600
O 	O 	0.09229 0.57418 0.63319 -0.42800
O 	O 	0.01184 0.61271 0.56518 -0.42900
O 	O 	0.92350 0.39430 0.60940 0.01500
O 	O 	0.42100 0.79890 0.88497 -0.34800
O 	O 	0.40820 0.91102 0.86129 -0.53900
O 	O 	0.07900 0.94695 0.57454 -0.21000
O 	O 	0.01203 0.87051 0.51853 -0.51000
O 	O 	0.06183 0.99558 0.47141 -0.17200
O 	O 	0.03190 0.96450 0.14344 -0.40000
O 	O 	0.13630 0.93130 0.14119 -0.44600
O 	O 	0.41708 0.00823 0.46256 -0.82900
O 	O 	0.39005 0.00000 0.53308 -0.97400
O 	O 	0.14492 0.05340 0.52878 -0.48900
C 	C 	0.06470 0.62380 0.60347 0.32000
C 	C 	0.09400 0.69830 0.61386 -0.08300
C 	C 	0.06490 0.75420 0.58163 0.03700
H 	H 	0.02820 0.74500 0.55160 0.03000
C 	C 	0.08940 0.82350 0.59318 -0.09000
C 	C 	0.05630 0.88620 0.55913 0.44800
C 	C 	0.14320 0.83680 0.63728 -0.00300
H 	H 	0.15950 0.88440 0.64520 0.08800
C 	C 	0.17370 0.78080 0.67032 -0.03200
C 	C 	0.14840 0.71160 0.65751 -0.00700
H 	H 	0.16860 0.67290 0.67900 0.03100
C 	C 	0.23040 0.79610 0.71759 0.06900
C 	C 	0.23820 0.86440 0.73860 0.09200
H 	H 	0.20660 0.90130 0.72250 0.05200
C 	C 	0.29100 0.87980 0.78240 0.16100
H 	H 	0.29600 0.92720 0.79530 0.13200
C 	C 	0.32690 0.75770 0.78860 0.44900
H 	H 	0.35620 0.72030 0.80640 -0.12100
C 	C 	0.27530 0.74260 0.74420 0.40300
H 	H 	0.27040 0.69500 0.73150 -0.10100
C 	C 	0.33630 0.82740 0.80763 -0.07900
C 	C 	0.39260 0.84660 0.85472 0.45800
C 	C 	0.12430 0.01840 0.48888 0.23300
C 	C 	0.17590 0.00540 0.45997 -1.24100
C 	C 	0.24740 0.01030 0.48485 0.91500
H 	H 	0.26300 0.01950 0.51990 -0.31000
C 	C 	0.29620 0.00160 0.45837 -1.38600
C 	C 	0.37300 0.00370 0.48618 0.88000
C 	C 	0.27290 0.99130 0.40694 1.44300
H 	H 	0.30620 0.98760 0.38870 -0.30100
C 	C 	0.20040 0.98620 0.38113 -1.04600
C 	C 	0.15280 0.99240 0.40888 1.41000
H 	H 	0.10380 0.98770 0.39250 -0.34600
C 	C 	0.17470 0.97740 0.32561 1.04700
C 	C 	0.12430 0.96170 0.22105 -0.77600
C 	C 	0.09620 0.95080 0.16528 0.61800
C 	C 	0.22070 0.95600 0.29990 0.03200
H 	H 	0.26880 0.94630 0.31680 0.08900
C 	C 	0.19310 0.94930 0.24830 0.02800
H 	H 	0.22450 0.93500 0.23020 -0.04500
C 	C 	0.08390 0.99900 0.24680 -6.27800
H 	H 	0.03960 0.01890 0.22870 1.75800
C 	C 	0.10920 0.00660 0.29860 7.21700
H 	H 	0.08200 0.03170 0.31600 -2.58000
O 	O 	0.95620 0.53620 0.64580 -0.46300
N 	N 	0.91930 0.53820 0.71590 -0.03300
C 	C 	0.93710 0.56270 0.67880 0.28400
C 	C 	0.89230 0.57610 0.75120 -0.86500
H 	H 	0.88990 0.62740 0.74340 0.50500
H 	H 	0.84510 0.55840 0.74890 0.27200
H 	H 	0.92350 0.56840 0.78530 0.29000
C 	C 	0.92360 0.46120 0.72110 -0.25300
H 	H 	0.94220 0.44100 0.69520 0.13700
H 	H 	0.95490 0.44880 0.75430 0.10100
H 	H 	0.87650 0.44170 0.71720 0.14900
C 	C 	0.92400 0.64580 0.67300 -0.18400
H 	H 	0.93790 0.66330 0.64420 0.39300
H 	H 	0.87390 0.65580 0.66770 0.08200
H 	H 	0.95190 0.67010 0.70360 0.11800
O 	O 	0.95040 0.38770 0.62460 -0.34100
C 	C 	0.27020 0.85870 0.72140 -0.17600
H 	H 	0.26140 0.89100 0.69390 0.13800
C 	C 	0.32270 0.87340 0.76580 -0.16800
H 	H 	0.35020 0.91550 0.76810 0.14100
C 	C 	0.30230 0.76520 0.80100 -0.43500
H 	H 	0.31420 0.73040 0.82700 0.15200
C 	C 	0.24920 0.75020 0.75640 -0.51000
H 	H 	0.22540 0.70560 0.75340 0.13900
C 	C 	0.21060 0.95000 0.29400 -0.23000
H 	H 	0.25760 0.93670 0.31110 0.03300
C 	C 	0.19270 0.93900 0.24250 0.27100
H 	H 	0.22240 0.91840 0.22510 0.01000
C 	C 	0.08260 0.94030 0.24980 8.04700
H 	H 	0.03790 0.91890 0.23500 -2.54500
C 	C 	0.10800 0.95130 0.30120 -8.54200
H 	H 	0.07780 0.94020 0.32090 2.86200
O 	O 	0.96300 0.68100 0.67070 -0.66100
C 	C 	0.94190 0.71270 0.70190 0.62600
N 	N 	0.96630 0.77440 0.72170 -0.23000
C 	C 	0.01640 0.81220 0.70220 0.20700
H 	H 	0.02720 0.78460 0.67640 -0.01400
H 	H 	0.05890 0.82200 0.72850 -0.04800
H 	H 	0.99480 0.85650 0.68830 0.01100
C 	C 	0.94310 0.81690 0.75730 0.03600
H 	H 	0.91150 0.78680 0.76830 0.03700
H 	H 	0.92000 0.86110 0.74470 0.08800
H 	H 	0.98410 0.82650 0.78490 -0.07800
C 	C 	0.88780 0.67130 0.72310 -1.53600
H 	H 	0.87610 0.62730 0.70480 0.44100
H 	H 	0.84570 0.69890 0.71910 0.50300
H 	H 	0.90910 0.66110 0.75800 0.30800
O 	O 	0.86130 0.47200 0.67120 -0.17300
Sm	Sm	0.49451 0.98378 0.91361 3.37700
Sm	Sm	0.45628 0.56882 0.94133 1.92200
O 	O 	0.40771 0.07418 0.86681 -0.67900
O 	O 	0.48816 0.11271 0.93482 -0.62500
O 	O 	0.57650 0.89430 0.89060 0.48300
O 	O 	0.07900 0.29890 0.61503 -0.33800
O 	O 	0.09180 0.41102 0.63871 -0.51900
O 	O 	0.42100 0.44695 0.92546 -0.48800
O 	O 	0.48797 0.37051 0.98147 -0.53700
O 	O 	0.43817 0.49558 0.02859 -0.57000
O 	O 	0.46810 0.46450 0.35656 -0.41800
O 	O 	0.36370 0.43130 0.35881 -0.42800
O 	O 	0.08292 0.50823 0.03744 -0.58800
O 	O 	0.10995 0.50000 0.96692 -0.54000
O 	O 	0.35508 0.55340 0.97122 -0.47500
C 	C 	0.43530 0.12380 0.89653 0.35200
C 	C 	0.40600 0.19830 0.88614 -0.12900
C 	C 	0.43510 0.25420 0.91837 0.06300
H 	H 	0.47180 0.24500 0.94840 0.01200
C 	C 	0.41060 0.32350 0.90682 -0.15500
C 	C 	0.44370 0.38620 0.94087 0.47500
C 	C 	0.35680 0.33680 0.86272 0.02600
H 	H 	0.34050 0.38440 0.85480 0.03300
C 	C 	0.32630 0.28080 0.82968 -0.05700
C 	C 	0.35160 0.21160 0.84249 0.00700
H 	H 	0.33140 0.17290 0.82100 0.01700
C 	C 	0.26960 0.29610 0.78241 0.05100
C 	C 	0.26180 0.36440 0.76140 -0.07900
H 	H 	0.29340 0.40130 0.77750 0.05600
C 	C 	0.20900 0.37980 0.71760 0.00200
H 	H 	0.20400 0.42720 0.70470 0.03000
C 	C 	0.17310 0.25770 0.71140 -0.06200
H 	H 	0.14380 0.22030 0.69360 0.07500
C 	C 	0.22470 0.24260 0.75580 -0.14500
H 	H 	0.22960 0.19500 0.76850 0.07500
C 	C 	0.16370 0.32740 0.69237 -0.14300
C 	C 	0.10740 0.34660 0.64528 0.42700
C 	C 	0.37570 0.51840 0.01112 0.44700
C 	C 	0.32410 0.50540 0.04003 -0.17700
C 	C 	0.25260 0.51030 0.01515 0.10300
H 	H 	0.23700 0.51950 0.98010 0.02100
C 	C 	0.20380 0.50160 0.04163 -0.19800
C 	C 	0.12700 0.50370 0.01382 0.51000
C 	C 	0.22710 0.49130 0.09306 0.05700
H 	H 	0.19380 0.48760 0.11130 0.01400
C 	C 	0.29960 0.48620 0.11887 -0.07100
C 	C 	0.34720 0.49240 0.09112 0.04400
H 	H 	0.39620 0.48770 0.10750 0.00900
C 	C 	0.32530 0.47740 0.17439 0.05300
C 	C 	0.37570 0.46170 0.27895 -0.09300
C 	C 	0.40380 0.45080 0.33472 0.32100
C 	C 	0.27930 0.45600 0.20010 -0.01100
H 	H 	0.23120 0.44630 0.18320 0.04200
C 	C 	0.30690 0.44930 0.25170 -0.02100
H 	H 	0.27550 0.43500 0.26980 0.00100
C 	C 	0.41610 0.49900 0.25320 -0.04100
H 	H 	0.46040 0.51890 0.27130 0.04500
C 	C 	0.39080 0.50660 0.20140 -0.03100
H 	H 	0.41800 0.53170 0.18400 0.03900
O 	O 	0.54380 0.03620 0.85420 -0.83300
N 	N 	0.58070 0.03820 0.78410 -0.37000
C 	C 	0.56290 0.06270 0.82120 0.38300
C 	C 	0.60770 0.07610 0.74880 -0.54800
H 	H 	0.61010 0.12740 0.75660 0.35200
H 	H 	0.65490 0.05840 0.75110 0.07400
H 	H 	0.57650 0.06840 0.71470 0.11400
C 	C 	0.57640 0.96120 0.77890 0.37000
H 	H 	0.55780 0.94100 0.80480 0.03000
H 	H 	0.54510 0.94880 0.74570 0.01200
H 	H 	0.62350 0.94170 0.78280 0.00200
C 	C 	0.57600 0.14580 0.82700 -0.32300
H 	H 	0.56210 0.16330 0.85580 0.39100
H 	H 	0.62610 0.15580 0.83230 0.09800
H 	H 	0.54810 0.17010 0.79640 0.18600
O 	O 	0.54960 0.88770 0.87540 -0.77700
C 	C 	0.22980 0.35870 0.77860 -0.04800
H 	H 	0.23860 0.39100 0.80610 0.04900
C 	C 	0.17730 0.37340 0.73420 0.02900
H 	H 	0.14980 0.41550 0.73190 0.01200
C 	C 	0.19770 0.26520 0.69900 0.07800
H 	H 	0.18580 0.23040 0.67300 -0.00700
C 	C 	0.25080 0.25020 0.74360 0.04100
H 	H 	0.27460 0.20560 0.74660 -0.01600
C 	C 	0.28940 0.45000 0.20600 -0.05700
H 	H 	0.24240 0.43670 0.18890 -0.00100
C 	C 	0.30730 0.43900 0.25750 0.02500
H 	H 	0.27760 0.41840 0.27490 0.01700
C 	C 	0.41740 0.44030 0.25020 0.04600
H 	H 	0.46210 0.41890 0.26500 0.01800
C 	C 	0.39200 0.45130 0.19880 -0.08400
H 	H 	0.42220 0.44020 0.17910 0.06100
O 	O 	0.53700 0.18100 0.82930 -0.59700
C 	C 	0.55810 0.21270 0.79810 0.47800
N 	N 	0.53370 0.27440 0.77830 -0.21700
C 	C 	0.48360 0.31220 0.79780 0.19800
H 	H 	0.47280 0.28460 0.82360 -0.01700
H 	H 	0.44110 0.32200 0.77150 -0.05000
H 	H 	0.50520 0.35650 0.81170 -0.00500
C 	C 	0.55690 0.31690 0.74270 0.06300
H 	H 	0.58850 0.28680 0.73170 0.01900
H 	H 	0.58000 0.36110 0.75530 0.02100
H 	H 	0.51590 0.32650 0.71510 -0.08600
C 	C 	0.61220 0.17130 0.77690 -1.25400
H 	H 	0.62390 0.12730 0.79520 0.35300
H 	H 	0.65430 0.19890 0.78090 0.39400
H 	H 	0.59090 0.16110 0.74200 0.27700
O 	O 	0.63870 0.97200 0.82880 0.04500
Sm	Sm	0.99451 0.48378 0.91361 2.10900
Sm	Sm	0.95628 0.06882 0.94133 1.49700
O 	O 	0.90771 0.57418 0.86681 -0.42800
O 	O 	0.98816 0.61271 0.93482 -0.43000
O 	O 	0.07650 0.39430 0.89060 0.01400
O 	O 	0.57900 0.79890 0.61503 -0.34700
O 	O 	0.59180 0.91102 0.63871 -0.54000
O 	O 	0.92100 0.94695 0.92546 -0.21300
O 	O 	0.98797 0.87051 0.98147 -0.51200
O 	O 	0.93817 0.99558 0.02859 -0.17200
O 	O 	0.96810 0.96450 0.35656 -0.39900
O 	O 	0.86370 0.93130 0.35881 -0.44600
O 	O 	0.58292 0.00823 0.03744 -0.82700
O 	O 	0.60995 0.00000 0.96692 -0.96900
O 	O 	0.85508 0.05340 0.97122 -0.48800
C 	C 	0.93530 0.62380 0.89653 0.32000
C 	C 	0.90600 0.69830 0.88614 -0.08400
C 	C 	0.93510 0.75420 0.91837 0.03700
H 	H 	0.97180 0.74500 0.94840 0.02900
C 	C 	0.91060 0.82350 0.90682 -0.09100
C 	C 	0.94370 0.88620 0.94087 0.44800
C 	C 	0.85680 0.83680 0.86272 -0.00300
H 	H 	0.84050 0.88440 0.85480 0.08700
C 	C 	0.82630 0.78080 0.82968 -0.03300
C 	C 	0.85160 0.71160 0.84249 -0.00700
H 	H 	0.83140 0.67290 0.82100 0.03000
C 	C 	0.76960 0.79610 0.78241 0.07000
C 	C 	0.76180 0.86440 0.76140 0.09500
H 	H 	0.79340 0.90130 0.77750 0.05100
C 	C 	0.70900 0.87980 0.71760 0.16300
H 	H 	0.70400 0.92720 0.70470 0.13200
C 	C 	0.67310 0.75770 0.71140 0.46000
H 	H 	0.64380 0.72030 0.69360 -0.12400
C 	C 	0.72470 0.74260 0.75580 0.41400
H 	H 	0.72960 0.69500 0.76850 -0.10400
C 	C 	0.66370 0.82740 0.69237 -0.07800
C 	C 	0.60740 0.84660 0.64528 0.45800
C 	C 	0.87570 0.01840 0.01112 0.23400
C 	C 	0.82410 0.00540 0.04003 -1.23600
C 	C 	0.75260 0.01030 0.01515 0.91100
H 	H 	0.73700 0.01950 0.98010 -0.30700
C 	C 	0.70380 0.00160 0.04163 -1.38100
C 	C 	0.62700 0.00370 0.01382 0.87600
C 	C 	0.72710 0.99130 0.09306 1.43800
H 	H 	0.69380 0.98760 0.11130 -0.29900
C 	C 	0.79960 0.98620 0.11887 -1.04200
C 	C 	0.84720 0.99240 0.09112 1.40500
H 	H 	0.89620 0.98770 0.10750 -0.34400
C 	C 	0.82530 0.97740 0.17439 1.04500
C 	C 	0.87570 0.96170 0.27895 -0.77500
C 	C 	0.90380 0.95080 0.33472 0.61700
C 	C 	0.77930 0.95600 0.20010 0.03200
H 	H 	0.73120 0.94630 0.18320 0.08900
C 	C 	0.80690 0.94930 0.25170 0.02800
H 	H 	0.77550 0.93500 0.26980 -0.04500
C 	C 	0.91610 0.99900 0.25320 -6.27200
H 	H 	0.96040 0.01890 0.27130 1.75700
C 	C 	0.89080 0.00660 0.20140 7.21100
H 	H 	0.91800 0.03170 0.18400 -2.57700
O 	O 	0.04380 0.53620 0.85420 -0.46100
N 	N 	0.08070 0.53820 0.78410 -0.03300
C 	C 	0.06290 0.56270 0.82120 0.28400
C 	C 	0.10770 0.57610 0.74880 -0.86500
H 	H 	0.11010 0.62740 0.75660 0.50500
H 	H 	0.15490 0.55840 0.75110 0.27200
H 	H 	0.07650 0.56840 0.71470 0.29000
C 	C 	0.07640 0.46120 0.77890 -0.25300
H 	H 	0.05780 0.44100 0.80480 0.13800
H 	H 	0.04510 0.44880 0.74570 0.10200
H 	H 	0.12350 0.44170 0.78280 0.14900
C 	C 	0.07600 0.64580 0.82700 -0.18500
H 	H 	0.06210 0.66330 0.85580 0.39300
H 	H 	0.12610 0.65580 0.83230 0.08200
H 	H 	0.04810 0.67010 0.79640 0.11900
O 	O 	0.04960 0.38770 0.87540 -0.33700
C 	C 	0.72980 0.85870 0.77860 -0.17800
H 	H 	0.73860 0.89100 0.80610 0.13800
C 	C 	0.67730 0.87340 0.73420 -0.17100
H 	H 	0.64980 0.91550 0.73190 0.14200
C 	C 	0.69770 0.76520 0.69900 -0.44600
H 	H 	0.68580 0.73040 0.67300 0.15500
C 	C 	0.75080 0.75020 0.74360 -0.52200
H 	H 	0.77460 0.70560 0.74660 0.14200
C 	C 	0.78940 0.95000 0.20600 -0.23000
H 	H 	0.74240 0.93670 0.18890 0.03300
C 	C 	0.80730 0.93900 0.25750 0.27100
H 	H 	0.77760 0.91840 0.27490 0.01100
C 	C 	0.91740 0.94030 0.25020 8.03900
H 	H 	0.96210 0.91890 0.26500 -2.54100
C 	C 	0.89200 0.95130 0.19880 -8.53300
H 	H 	0.92220 0.94020 0.17910 2.86000
O 	O 	0.03700 0.68100 0.82930 -0.66000
C 	C 	0.05810 0.71270 0.79810 0.62500
N 	N 	0.03370 0.77440 0.77830 -0.22900
C 	C 	0.98360 0.81220 0.79780 0.20700
H 	H 	0.97280 0.78460 0.82360 -0.01500
H 	H 	0.94110 0.82200 0.77150 -0.04800
H 	H 	0.00520 0.85650 0.81170 0.01200
C 	C 	0.05690 0.81690 0.74270 0.03600
H 	H 	0.08850 0.78680 0.73170 0.03700
H 	H 	0.08000 0.86110 0.75530 0.08800
H 	H 	0.01590 0.82650 0.71510 -0.07600
C 	C 	0.11220 0.67130 0.77690 -1.53500
H 	H 	0.12390 0.62730 0.79520 0.44000
H 	H 	0.15430 0.69890 0.78090 0.50200
H 	H 	0.09090 0.66110 0.74200 0.30800
O 	O 	0.13870 0.47200 0.82880 -0.17300
