data_crystal

_cell_length_a 20.26860
_cell_length_b 18.97360
_cell_length_c 27.98550
_cell_angle_alpha 90.00000
_cell_angle_beta  107.63200
_cell_angle_gamma 90.00000

_symmetry_space_group_name_	'P 1'
_symmetry_space_group_name_H-M	'P 1'

loop_
_symmetry_equiv_pos_as_xyz
  x,y,z

loop_
_atom_site_label
_atom_site_type_symbol
_atom_site_fract_x
_atom_site_fract_y
_atom_site_fract_z
_atom_site_charge
La	La	0.49073 0.01748 0.41637 1.67400
La	La	0.45820 0.43146 0.44030 1.61600
O 	O 	0.40290 0.92420 0.36880 -0.37000
O 	O 	0.48710 0.88540 0.43360 -0.37600
O 	O 	0.55700 0.11200 0.38430 -0.10200
O 	O 	0.07680 0.70310 0.11690 -0.31900
O 	O 	0.10140 0.59080 0.13390 -0.42700
O 	O 	0.41890 0.55500 0.42410 -0.41500
O 	O 	0.48510 0.62980 0.48020 -0.46500
O 	O 	0.43680 0.49910 0.52620 -0.48100
O 	O 	0.46640 0.53270 0.85160 -0.37800
O 	O 	0.36560 0.57300 0.85520 -0.38000
O 	O 	0.08060 0.49810 0.52990 -0.47100
O 	O 	0.11500 0.50380 0.46050 -0.40800
O 	O 	0.35330 0.44520 0.46850 -0.40300
C 	C 	0.43230 0.87450 0.39660 0.30900
C 	C 	0.40530 0.80070 0.38510 -0.08900
C 	C 	0.43360 0.74530 0.41740 0.03600
H 	H 	0.46900 0.75440 0.44790 0.03200
C 	C 	0.41050 0.67700 0.40540 -0.10900
C 	C 	0.44270 0.61460 0.44010 0.40500
C 	C 	0.35870 0.66380 0.35980 0.00400
H 	H 	0.34380 0.61680 0.35110 0.04300
C 	C 	0.32860 0.71900 0.32700 -0.03300
C 	C 	0.35280 0.78830 0.34060 -0.00700
H 	H 	0.33300 0.82670 0.31920 0.03200
C 	C 	0.27440 0.70470 0.27880 0.05700
C 	C 	0.26880 0.63860 0.25720 -0.10900
H 	H 	0.30130 0.60300 0.27250 0.06700
C 	C 	0.21670 0.62380 0.21350 0.01100
H 	H 	0.21380 0.57820 0.19910 0.03000
C 	C 	0.17540 0.74150 0.21110 0.00600
H 	H 	0.14420 0.77770 0.19500 0.02600
C 	C 	0.22730 0.75590 0.25490 -0.07000
H 	H 	0.23080 0.80180 0.26900 0.04800
C 	C 	0.16880 0.67460 0.19060 -0.12100
C 	C 	0.11130 0.65580 0.14290 0.36300
C 	C 	0.37300 0.47870 0.50840 0.36900
C 	C 	0.32340 0.49300 0.53680 -0.12800
C 	C 	0.25220 0.49050 0.51170 0.04900
H 	H 	0.23680 0.48190 0.47660 0.04500
C 	C 	0.20420 0.50020 0.53680 -0.11000
C 	C 	0.12840 0.49940 0.50680 0.34900
C 	C 	0.22740 0.50990 0.58930 -0.00100
H 	H 	0.19450 0.51460 0.60710 0.03900
C 	C 	0.29760 0.51280 0.61520 -0.03100
C 	C 	0.34490 0.50560 0.58790 0.00600
H 	H 	0.39310 0.50960 0.60500 0.02100
C 	C 	0.32340 0.52100 0.67110 0.04000
C 	C 	0.37490 0.53730 0.77560 -0.09100
C 	C 	0.40430 0.54960 0.83110 0.30600
C 	C 	0.28080 0.55000 0.69660 -0.01900
H 	H 	0.23500 0.56480 0.67940 0.03200
C 	C 	0.30790 0.55700 0.74820 -0.01200
H 	H 	0.27880 0.57560 0.76600 0.00600
C 	C 	0.41130 0.49930 0.74930 -0.02700
H 	H 	0.45500 0.47970 0.76700 0.04200
C 	C 	0.38560 0.48940 0.69780 -0.02300
H 	H 	0.41020 0.46120 0.68100 0.03800
O 	O 	0.53540 0.96700 0.35060 -0.37300
N 	N 	0.58340 0.96200 0.28660 -0.08900
C 	C 	0.56630 0.93680 0.32270 0.30700
C 	C 	0.61730 0.92320 0.25340 -0.47900
H 	H 	0.61940 0.87280 0.26140 0.21800
H 	H 	0.66430 0.94140 0.25900 0.17000
H 	H 	0.59020 0.93020 0.21830 0.18200
C 	C 	0.58850 0.04060 0.28120 -0.21000
H 	H 	0.57050 0.06430 0.30570 0.13900
H 	H 	0.56130 0.05470 0.24720 0.09200
H 	H 	0.63700 0.05380 0.28700 0.13400
C 	C 	0.57500 0.85460 0.33110 -0.42900
H 	H 	0.55980 0.84130 0.36010 0.31100
H 	H 	0.62310 0.84140 0.33720 0.14800
H 	H 	0.54580 0.83010 0.30120 0.36200
O 	O 	0.54300 0.11600 0.37310 -0.14500
C 	C 	0.23700 0.64200 0.27300 -0.01300
H 	H 	0.24550 0.60870 0.29940 0.03700
C 	C 	0.18800 0.63100 0.22700 0.01200
H 	H 	0.16660 0.58570 0.22210 0.02000
C 	C 	0.19900 0.73100 0.19400 0.01200
H 	H 	0.18820 0.76270 0.16650 0.02100
C 	C 	0.25100 0.75100 0.24100 -0.04300
H 	H 	0.26810 0.79770 0.24550 0.02200
C 	C 	0.28500 0.54600 0.70200 -0.04600
H 	H 	0.23860 0.55940 0.68450 0.01500
C 	C 	0.30300 0.55400 0.75100 0.01800
H 	H 	0.27170 0.56900 0.76890 0.01600
C 	C 	0.41800 0.54900 0.75060 0.02700
H 	H 	0.46460 0.56290 0.76630 0.02000
C 	C 	0.39000 0.54100 0.69660 -0.08200
H 	H 	0.42010 0.54980 0.67730 0.05700
O 	O 	0.53180 0.82190 0.32520 -0.48200
C 	C 	0.55990 0.78300 0.29930 0.21600
N 	N 	0.52440 0.73150 0.27640 -0.20100
C 	C 	0.47800 0.69000 0.29980 0.25600
H 	H 	0.46730 0.71780 0.32550 -0.02800
H 	H 	0.43560 0.68050 0.27340 -0.21000
H 	H 	0.49980 0.64590 0.31370 -0.01600
C 	C 	0.55770 0.68300 0.24770 0.35000
H 	H 	0.58930 0.71360 0.23670 0.00800
H 	H 	0.58080 0.63930 0.26030 -0.05600
H 	H 	0.51670 0.67380 0.22000 -0.13500
C 	C 	0.61380 0.81900 0.27670 -0.82300
H 	H 	0.62540 0.86300 0.29500 0.22900
H 	H 	0.65580 0.79130 0.28070 0.26300
H 	H 	0.59240 0.82920 0.24170 0.24100
O 	O 	0.63400 0.02900 0.33160 -0.16900
La	La	0.99073 0.51748 0.41637 1.67300
La	La	0.95820 0.93146 0.44030 1.61500
O 	O 	0.90290 0.42420 0.36880 -0.37100
O 	O 	0.98710 0.38540 0.43360 -0.37700
O 	O 	0.05700 0.61200 0.38430 -0.10100
O 	O 	0.57680 0.20310 0.11690 -0.31900
O 	O 	0.60140 0.09080 0.13390 -0.42700
O 	O 	0.91890 0.05500 0.42410 -0.41500
O 	O 	0.98510 0.12980 0.48020 -0.46400
O 	O 	0.93680 0.99910 0.52620 -0.48100
O 	O 	0.96640 0.03270 0.85160 -0.37800
O 	O 	0.86560 0.07300 0.85520 -0.38000
O 	O 	0.58060 0.99810 0.52990 -0.47100
O 	O 	0.61500 0.00380 0.46050 -0.40800
O 	O 	0.85330 0.94520 0.46850 -0.40300
C 	C 	0.93230 0.37450 0.39660 0.30900
C 	C 	0.90530 0.30070 0.38510 -0.08800
C 	C 	0.93360 0.24530 0.41740 0.03600
H 	H 	0.96900 0.25440 0.44790 0.03200
C 	C 	0.91050 0.17700 0.40540 -0.10900
C 	C 	0.94270 0.11460 0.44010 0.40500
C 	C 	0.85870 0.16380 0.35980 0.00400
H 	H 	0.84380 0.11680 0.35110 0.04300
C 	C 	0.82860 0.21900 0.32700 -0.03300
C 	C 	0.85280 0.28830 0.34060 -0.00700
H 	H 	0.83300 0.32670 0.31920 0.03200
C 	C 	0.77440 0.20470 0.27880 0.05700
C 	C 	0.76880 0.13860 0.25720 -0.10900
H 	H 	0.80130 0.10300 0.27250 0.06700
C 	C 	0.71670 0.12380 0.21350 0.01100
H 	H 	0.71380 0.07820 0.19910 0.03000
C 	C 	0.67540 0.24150 0.21110 0.00600
H 	H 	0.64420 0.27770 0.19500 0.02600
C 	C 	0.72730 0.25590 0.25490 -0.07000
H 	H 	0.73080 0.30180 0.26900 0.04800
C 	C 	0.66880 0.17460 0.19060 -0.12100
C 	C 	0.61130 0.15580 0.14290 0.36300
C 	C 	0.87300 0.97870 0.50840 0.36900
C 	C 	0.82340 0.99300 0.53680 -0.12900
C 	C 	0.75220 0.99050 0.51170 0.04900
H 	H 	0.73680 0.98190 0.47660 0.04500
C 	C 	0.70420 0.00020 0.53680 -0.11000
C 	C 	0.62840 0.99940 0.50680 0.34900
C 	C 	0.72740 0.00990 0.58930 -0.00100
H 	H 	0.69450 0.01460 0.60710 0.03900
C 	C 	0.79760 0.01280 0.61520 -0.03100
C 	C 	0.84490 0.00560 0.58790 0.00600
H 	H 	0.89310 0.00960 0.60500 0.02100
C 	C 	0.82340 0.02100 0.67110 0.04000
C 	C 	0.87490 0.03730 0.77560 -0.09100
C 	C 	0.90430 0.04960 0.83110 0.30600
C 	C 	0.78080 0.05000 0.69660 -0.01900
H 	H 	0.73500 0.06480 0.67940 0.03200
C 	C 	0.80790 0.05700 0.74820 -0.01200
H 	H 	0.77880 0.07560 0.76600 0.00600
C 	C 	0.91130 0.99930 0.74930 -0.02700
H 	H 	0.95500 0.97970 0.76700 0.04200
C 	C 	0.88560 0.98940 0.69780 -0.02300
H 	H 	0.91020 0.96120 0.68100 0.03800
O 	O 	0.03540 0.46700 0.35060 -0.37300
N 	N 	0.08340 0.46200 0.28660 -0.08900
C 	C 	0.06630 0.43680 0.32270 0.30700
C 	C 	0.11730 0.42320 0.25340 -0.47900
H 	H 	0.11940 0.37280 0.26140 0.21800
H 	H 	0.16430 0.44140 0.25900 0.17000
H 	H 	0.09020 0.43020 0.21830 0.18200
C 	C 	0.08850 0.54060 0.28120 -0.20900
H 	H 	0.07050 0.56430 0.30570 0.13900
H 	H 	0.06130 0.55470 0.24720 0.09200
H 	H 	0.13700 0.55380 0.28700 0.13400
C 	C 	0.07500 0.35460 0.33110 -0.42900
H 	H 	0.05980 0.34130 0.36010 0.31100
H 	H 	0.12310 0.34140 0.33720 0.14800
H 	H 	0.04580 0.33010 0.30120 0.36200
O 	O 	0.04300 0.61600 0.37310 -0.14500
C 	C 	0.73700 0.14200 0.27300 -0.01300
H 	H 	0.74550 0.10870 0.29940 0.03700
C 	C 	0.68800 0.13100 0.22700 0.01200
H 	H 	0.66660 0.08570 0.22210 0.02000
C 	C 	0.69900 0.23100 0.19400 0.01200
H 	H 	0.68820 0.26270 0.16650 0.02100
C 	C 	0.75100 0.25100 0.24100 -0.04300
H 	H 	0.76810 0.29770 0.24550 0.02200
C 	C 	0.78500 0.04600 0.70200 -0.04600
H 	H 	0.73860 0.05940 0.68450 0.01500
C 	C 	0.80300 0.05400 0.75100 0.01800
H 	H 	0.77170 0.06900 0.76890 0.01600
C 	C 	0.91800 0.04900 0.75060 0.02700
H 	H 	0.96460 0.06290 0.76630 0.02000
C 	C 	0.89000 0.04100 0.69660 -0.08200
H 	H 	0.92010 0.04980 0.67730 0.05700
O 	O 	0.03180 0.32190 0.32520 -0.48200
C 	C 	0.05990 0.28300 0.29930 0.21600
N 	N 	0.02440 0.23150 0.27640 -0.20100
C 	C 	0.97800 0.19000 0.29980 0.25500
H 	H 	0.96730 0.21780 0.32550 -0.02800
H 	H 	0.93560 0.18050 0.27340 -0.21100
H 	H 	0.99980 0.14590 0.31370 -0.01600
C 	C 	0.05770 0.18300 0.24770 0.35000
H 	H 	0.08930 0.21360 0.23670 0.00800
H 	H 	0.08080 0.13930 0.26030 -0.05600
H 	H 	0.01670 0.17380 0.22000 -0.13500
C 	C 	0.11380 0.31900 0.27670 -0.82300
H 	H 	0.12540 0.36300 0.29500 0.22800
H 	H 	0.15580 0.29130 0.28070 0.26300
H 	H 	0.09240 0.32920 0.24170 0.24100
O 	O 	0.13400 0.52900 0.33160 -0.16900
La	La	0.50927 0.01748 0.08363 1.67200
La	La	0.54180 0.43146 0.05970 1.61500
O 	O 	0.59710 0.92420 0.13120 -0.37100
O 	O 	0.51290 0.88540 0.06640 -0.37700
O 	O 	0.44300 0.11200 0.11570 -0.10100
O 	O 	0.92320 0.70310 0.38310 -0.31900
O 	O 	0.89860 0.59080 0.36610 -0.42700
O 	O 	0.58110 0.55500 0.07590 -0.41500
O 	O 	0.51490 0.62980 0.01980 -0.46500
O 	O 	0.56320 0.49910 0.97380 -0.48100
O 	O 	0.53360 0.53270 0.64840 -0.37800
O 	O 	0.63440 0.57300 0.64480 -0.38000
O 	O 	0.91940 0.49810 0.97010 -0.47000
O 	O 	0.88500 0.50380 0.03950 -0.40600
O 	O 	0.64670 0.44520 0.03150 -0.40200
C 	C 	0.56770 0.87450 0.10340 0.30900
C 	C 	0.59470 0.80070 0.11490 -0.08900
C 	C 	0.56640 0.74530 0.08260 0.03600
H 	H 	0.53100 0.75440 0.05210 0.03200
C 	C 	0.58950 0.67700 0.09460 -0.10900
C 	C 	0.55730 0.61460 0.05990 0.40500
C 	C 	0.64130 0.66380 0.14020 0.00400
H 	H 	0.65620 0.61680 0.14890 0.04300
C 	C 	0.67140 0.71900 0.17300 -0.03300
C 	C 	0.64720 0.78830 0.15940 -0.00700
H 	H 	0.66700 0.82670 0.18080 0.03200
C 	C 	0.72560 0.70470 0.22120 0.05700
C 	C 	0.73120 0.63860 0.24280 -0.10900
H 	H 	0.69870 0.60300 0.22750 0.06700
C 	C 	0.78330 0.62380 0.28650 0.01100
H 	H 	0.78620 0.57820 0.30090 0.03000
C 	C 	0.82460 0.74150 0.28890 0.00700
H 	H 	0.85580 0.77770 0.30500 0.02600
C 	C 	0.77270 0.75590 0.24510 -0.06900
H 	H 	0.76920 0.80180 0.23100 0.04800
C 	C 	0.83120 0.67460 0.30940 -0.12100
C 	C 	0.88870 0.65580 0.35710 0.36300
C 	C 	0.62700 0.47870 0.99160 0.36800
C 	C 	0.67660 0.49300 0.96320 -0.12700
C 	C 	0.74780 0.49050 0.98830 0.04500
H 	H 	0.76320 0.48190 0.02340 0.04700
C 	C 	0.79580 0.50020 0.96320 -0.10800
C 	C 	0.87160 0.49940 0.99320 0.34600
C 	C 	0.77260 0.50990 0.91070 -0.00200
H 	H 	0.80550 0.51460 0.89290 0.03900
C 	C 	0.70240 0.51280 0.88480 -0.03000
C 	C 	0.65510 0.50560 0.91210 0.00500
H 	H 	0.60690 0.50960 0.89500 0.02200
C 	C 	0.67660 0.52100 0.82890 0.04000
C 	C 	0.62510 0.53730 0.72440 -0.09100
C 	C 	0.59570 0.54960 0.66890 0.30600
C 	C 	0.71920 0.55000 0.80340 -0.01800
H 	H 	0.76500 0.56480 0.82060 0.03200
C 	C 	0.69210 0.55700 0.75180 -0.01200
H 	H 	0.72120 0.57560 0.73400 0.00600
C 	C 	0.58870 0.49930 0.75070 -0.02700
H 	H 	0.54500 0.47970 0.73300 0.04200
C 	C 	0.61440 0.48940 0.80220 -0.02300
H 	H 	0.58980 0.46120 0.81900 0.03800
O 	O 	0.46460 0.96700 0.14940 -0.37300
N 	N 	0.41660 0.96200 0.21340 -0.08900
C 	C 	0.43370 0.93680 0.17730 0.30700
C 	C 	0.38270 0.92320 0.24660 -0.47900
H 	H 	0.38060 0.87280 0.23860 0.21800
H 	H 	0.33570 0.94140 0.24100 0.17000
H 	H 	0.40980 0.93020 0.28170 0.18200
C 	C 	0.41150 0.04060 0.21880 -0.21000
H 	H 	0.42950 0.06430 0.19430 0.13900
H 	H 	0.43870 0.05470 0.25280 0.09200
H 	H 	0.36300 0.05380 0.21300 0.13400
C 	C 	0.42500 0.85460 0.16890 -0.42900
H 	H 	0.44020 0.84130 0.13990 0.31100
H 	H 	0.37690 0.84140 0.16280 0.14800
H 	H 	0.45420 0.83010 0.19880 0.36200
O 	O 	0.45700 0.11600 0.12690 -0.14500
C 	C 	0.76300 0.64200 0.22700 -0.01400
H 	H 	0.75450 0.60870 0.20060 0.03700
C 	C 	0.81200 0.63100 0.27300 0.01200
H 	H 	0.83340 0.58570 0.27790 0.02000
C 	C 	0.80100 0.73100 0.30600 0.01100
H 	H 	0.81180 0.76270 0.33350 0.02100
C 	C 	0.74900 0.75100 0.25900 -0.04400
H 	H 	0.73190 0.79770 0.25450 0.02200
C 	C 	0.71500 0.54600 0.79800 -0.04600
H 	H 	0.76140 0.55940 0.81550 0.01500
C 	C 	0.69700 0.55400 0.74900 0.01800
H 	H 	0.72830 0.56900 0.73110 0.01600
C 	C 	0.58200 0.54900 0.74940 0.02700
H 	H 	0.53540 0.56290 0.73370 0.02000
C 	C 	0.61000 0.54100 0.80340 -0.08200
H 	H 	0.57990 0.54980 0.82270 0.05700
O 	O 	0.46820 0.82190 0.17480 -0.48200
C 	C 	0.44010 0.78300 0.20070 0.21600
N 	N 	0.47560 0.73150 0.22360 -0.20100
C 	C 	0.52200 0.69000 0.20020 0.25600
H 	H 	0.53270 0.71780 0.17450 -0.02800
H 	H 	0.56440 0.68050 0.22660 -0.21000
H 	H 	0.50020 0.64590 0.18630 -0.01600
C 	C 	0.44230 0.68300 0.25230 0.35000
H 	H 	0.41070 0.71360 0.26330 0.00800
H 	H 	0.41920 0.63930 0.23970 -0.05600
H 	H 	0.48330 0.67380 0.28000 -0.13500
C 	C 	0.38620 0.81900 0.22330 -0.82300
H 	H 	0.37460 0.86300 0.20500 0.22900
H 	H 	0.34420 0.79130 0.21930 0.26300
H 	H 	0.40760 0.82920 0.25830 0.24100
O 	O 	0.36600 0.02900 0.16840 -0.16900
La	La	0.00927 0.51748 0.08363 1.67200
La	La	0.04180 0.93146 0.05970 1.61400
O 	O 	0.09710 0.42420 0.13120 -0.37100
O 	O 	0.01290 0.38540 0.06640 -0.37700
O 	O 	0.94300 0.61200 0.11570 -0.10100
O 	O 	0.42320 0.20310 0.38310 -0.31900
O 	O 	0.39860 0.09080 0.36610 -0.42700
O 	O 	0.08110 0.05500 0.07590 -0.41500
O 	O 	0.01490 0.12980 0.01980 -0.46500
O 	O 	0.06320 0.99910 0.97380 -0.48000
O 	O 	0.03360 0.03270 0.64840 -0.37700
O 	O 	0.13440 0.07300 0.64480 -0.38000
O 	O 	0.41940 0.99810 0.97010 -0.47100
O 	O 	0.38500 0.00380 0.03950 -0.40900
O 	O 	0.14670 0.94520 0.03150 -0.40400
C 	C 	0.06770 0.37450 0.10340 0.30900
C 	C 	0.09470 0.30070 0.11490 -0.08900
C 	C 	0.06640 0.24530 0.08260 0.03600
H 	H 	0.03100 0.25440 0.05210 0.03100
C 	C 	0.08950 0.17700 0.09460 -0.10900
C 	C 	0.05730 0.11460 0.05990 0.40500
C 	C 	0.14130 0.16380 0.14020 0.00400
H 	H 	0.15620 0.11680 0.14890 0.04300
C 	C 	0.17140 0.21900 0.17300 -0.03300
C 	C 	0.14720 0.28830 0.15940 -0.00700
H 	H 	0.16700 0.32670 0.18080 0.03200
C 	C 	0.22560 0.20470 0.22120 0.05700
C 	C 	0.23120 0.13860 0.24280 -0.10900
H 	H 	0.19870 0.10300 0.22750 0.06700
C 	C 	0.28330 0.12380 0.28650 0.01100
H 	H 	0.28620 0.07820 0.30090 0.03000
C 	C 	0.32460 0.24150 0.28890 0.00600
H 	H 	0.35580 0.27770 0.30500 0.02600
C 	C 	0.27270 0.25590 0.24510 -0.07000
H 	H 	0.26920 0.30180 0.23100 0.04800
C 	C 	0.33120 0.17460 0.30940 -0.12100
C 	C 	0.38870 0.15580 0.35710 0.36300
C 	C 	0.12700 0.97870 0.99160 0.37100
C 	C 	0.17660 0.99300 0.96320 -0.12900
C 	C 	0.24780 0.99050 0.98830 0.05000
H 	H 	0.26320 0.98190 0.02340 0.04400
C 	C 	0.29580 0.00020 0.96320 -0.11000
C 	C 	0.37160 0.99940 0.99320 0.34900
C 	C 	0.27260 0.00990 0.91070 -0.00000
H 	H 	0.30550 0.01460 0.89290 0.03900
C 	C 	0.20240 0.01280 0.88480 -0.03100
C 	C 	0.15510 0.00560 0.91210 0.00700
H 	H 	0.10690 0.00960 0.89500 0.02200
C 	C 	0.17660 0.02100 0.82890 0.04000
C 	C 	0.12510 0.03730 0.72440 -0.09100
C 	C 	0.09570 0.04960 0.66890 0.30600
C 	C 	0.21920 0.05000 0.80340 -0.01900
H 	H 	0.26500 0.06480 0.82060 0.03200
C 	C 	0.19210 0.05700 0.75180 -0.01200
H 	H 	0.22120 0.07560 0.73400 0.00600
C 	C 	0.08870 0.99930 0.75070 -0.02700
H 	H 	0.04500 0.97970 0.73300 0.04300
C 	C 	0.11440 0.98940 0.80220 -0.02300
H 	H 	0.08980 0.96120 0.81900 0.03900
O 	O 	0.96460 0.46700 0.14940 -0.37200
N 	N 	0.91660 0.46200 0.21340 -0.08900
C 	C 	0.93370 0.43680 0.17730 0.30800
C 	C 	0.88270 0.42320 0.24660 -0.47900
H 	H 	0.88060 0.37280 0.23860 0.21800
H 	H 	0.83570 0.44140 0.24100 0.17000
H 	H 	0.90980 0.43020 0.28170 0.18200
C 	C 	0.91150 0.54060 0.21880 -0.21000
H 	H 	0.92950 0.56430 0.19430 0.14000
H 	H 	0.93870 0.55470 0.25280 0.09300
H 	H 	0.86300 0.55380 0.21300 0.13400
C 	C 	0.92500 0.35460 0.16890 -0.43000
H 	H 	0.94020 0.34130 0.13990 0.31100
H 	H 	0.87690 0.34140 0.16280 0.14800
H 	H 	0.95420 0.33010 0.19880 0.36200
O 	O 	0.95700 0.61600 0.12690 -0.14400
C 	C 	0.26300 0.14200 0.22700 -0.01300
H 	H 	0.25450 0.10870 0.20060 0.03700
C 	C 	0.31200 0.13100 0.27300 0.01200
H 	H 	0.33340 0.08570 0.27790 0.02000
C 	C 	0.30100 0.23100 0.30600 0.01200
H 	H 	0.31180 0.26270 0.33350 0.02100
C 	C 	0.24900 0.25100 0.25900 -0.04300
H 	H 	0.23190 0.29770 0.25450 0.02200
C 	C 	0.21500 0.04600 0.79800 -0.04600
H 	H 	0.26140 0.05940 0.81550 0.01500
C 	C 	0.19700 0.05400 0.74900 0.01800
H 	H 	0.22830 0.06900 0.73110 0.01600
C 	C 	0.08200 0.04900 0.74940 0.02700
H 	H 	0.03540 0.06290 0.73370 0.02000
C 	C 	0.11000 0.04100 0.80340 -0.08200
H 	H 	0.07990 0.04980 0.82270 0.05800
O 	O 	0.96820 0.32190 0.17480 -0.48100
C 	C 	0.94010 0.28300 0.20070 0.21600
N 	N 	0.97560 0.23150 0.22360 -0.20000
C 	C 	0.02200 0.19000 0.20020 0.25700
H 	H 	0.03270 0.21780 0.17450 -0.02900
H 	H 	0.06440 0.18050 0.22660 -0.21000
H 	H 	0.00020 0.14590 0.18630 -0.01600
C 	C 	0.94230 0.18300 0.25230 0.35100
H 	H 	0.91070 0.21360 0.26330 0.00800
H 	H 	0.91920 0.13930 0.23970 -0.05600
H 	H 	0.98330 0.17380 0.28000 -0.13400
C 	C 	0.88620 0.31900 0.22330 -0.82300
H 	H 	0.87460 0.36300 0.20500 0.22900
H 	H 	0.84420 0.29130 0.21930 0.26300
H 	H 	0.90760 0.32920 0.25830 0.24100
O 	O 	0.86600 0.52900 0.16840 -0.16900
La	La	0.50927 0.98252 0.58363 1.67300
La	La	0.54180 0.56854 0.55970 1.61500
O 	O 	0.59710 0.07580 0.63120 -0.37100
O 	O 	0.51290 0.11460 0.56640 -0.37700
O 	O 	0.44300 0.88800 0.61570 -0.10200
O 	O 	0.92320 0.29690 0.88310 -0.31900
O 	O 	0.89860 0.40920 0.86610 -0.42700
O 	O 	0.58110 0.44500 0.57590 -0.41500
O 	O 	0.51490 0.37020 0.51980 -0.46500
O 	O 	0.56320 0.50090 0.47380 -0.48100
O 	O 	0.53360 0.46730 0.14840 -0.37800
O 	O 	0.63440 0.42700 0.14480 -0.38000
O 	O 	0.91940 0.50190 0.47010 -0.47100
O 	O 	0.88500 0.49620 0.53950 -0.40800
O 	O 	0.64670 0.55480 0.53150 -0.40300
C 	C 	0.56770 0.12550 0.60340 0.30900
C 	C 	0.59470 0.19930 0.61490 -0.08900
C 	C 	0.56640 0.25470 0.58260 0.03600
H 	H 	0.53100 0.24560 0.55210 0.03200
C 	C 	0.58950 0.32300 0.59460 -0.10900
C 	C 	0.55730 0.38540 0.55990 0.40500
C 	C 	0.64130 0.33620 0.64020 0.00400
H 	H 	0.65620 0.38320 0.64890 0.04300
C 	C 	0.67140 0.28100 0.67300 -0.03300
C 	C 	0.64720 0.21170 0.65940 -0.00700
H 	H 	0.66700 0.17330 0.68080 0.03200
C 	C 	0.72560 0.29530 0.72120 0.05700
C 	C 	0.73120 0.36140 0.74280 -0.10900
H 	H 	0.69870 0.39700 0.72750 0.06700
C 	C 	0.78330 0.37620 0.78650 0.01100
H 	H 	0.78620 0.42180 0.80090 0.03000
C 	C 	0.82460 0.25850 0.78890 0.00600
H 	H 	0.85580 0.22230 0.80500 0.02600
C 	C 	0.77270 0.24410 0.74510 -0.07000
H 	H 	0.76920 0.19820 0.73100 0.04800
C 	C 	0.83120 0.32540 0.80940 -0.12100
C 	C 	0.88870 0.34420 0.85710 0.36300
C 	C 	0.62700 0.52130 0.49160 0.36900
C 	C 	0.67660 0.50700 0.46320 -0.12800
C 	C 	0.74780 0.50950 0.48830 0.04900
H 	H 	0.76320 0.51810 0.52340 0.04500
C 	C 	0.79580 0.49980 0.46320 -0.11000
C 	C 	0.87160 0.50060 0.49320 0.34900
C 	C 	0.77260 0.49010 0.41070 -0.00100
H 	H 	0.80550 0.48540 0.39290 0.03900
C 	C 	0.70240 0.48720 0.38480 -0.03100
C 	C 	0.65510 0.49440 0.41210 0.00600
H 	H 	0.60690 0.49040 0.39500 0.02100
C 	C 	0.67660 0.47900 0.32890 0.04000
C 	C 	0.62510 0.46270 0.22440 -0.09100
C 	C 	0.59570 0.45040 0.16890 0.30600
C 	C 	0.71920 0.45000 0.30340 -0.01900
H 	H 	0.76500 0.43520 0.32060 0.03200
C 	C 	0.69210 0.44300 0.25180 -0.01200
H 	H 	0.72120 0.42440 0.23400 0.00600
C 	C 	0.58870 0.50070 0.25070 -0.02700
H 	H 	0.54500 0.52030 0.23300 0.04200
C 	C 	0.61440 0.51060 0.30220 -0.02300
H 	H 	0.58980 0.53880 0.31900 0.03800
O 	O 	0.46460 0.03300 0.64940 -0.37300
N 	N 	0.41660 0.03800 0.71340 -0.08900
C 	C 	0.43370 0.06320 0.67730 0.30700
C 	C 	0.38270 0.07680 0.74660 -0.47900
H 	H 	0.38060 0.12720 0.73860 0.21800
H 	H 	0.33570 0.05860 0.74100 0.17000
H 	H 	0.40980 0.06980 0.78170 0.18200
C 	C 	0.41150 0.95940 0.71880 -0.21000
H 	H 	0.42950 0.93570 0.69430 0.13900
H 	H 	0.43870 0.94530 0.75280 0.09200
H 	H 	0.36300 0.94620 0.71300 0.13400
C 	C 	0.42500 0.14540 0.66890 -0.42900
H 	H 	0.44020 0.15870 0.63990 0.31100
H 	H 	0.37690 0.15860 0.66280 0.14800
H 	H 	0.45420 0.16990 0.69880 0.36200
O 	O 	0.45700 0.88400 0.62690 -0.14500
C 	C 	0.76300 0.35800 0.72700 -0.01300
H 	H 	0.75450 0.39130 0.70060 0.03700
C 	C 	0.81200 0.36900 0.77300 0.01200
H 	H 	0.83340 0.41430 0.77790 0.02000
C 	C 	0.80100 0.26900 0.80600 0.01200
H 	H 	0.81180 0.23730 0.83350 0.02100
C 	C 	0.74900 0.24900 0.75900 -0.04300
H 	H 	0.73190 0.20230 0.75450 0.02200
C 	C 	0.71500 0.45400 0.29800 -0.04600
H 	H 	0.76140 0.44060 0.31550 0.01500
C 	C 	0.69700 0.44600 0.24900 0.01800
H 	H 	0.72830 0.43100 0.23110 0.01600
C 	C 	0.58200 0.45100 0.24940 0.02700
H 	H 	0.53540 0.43710 0.23370 0.02000
C 	C 	0.61000 0.45900 0.30340 -0.08200
H 	H 	0.57990 0.45020 0.32270 0.05700
O 	O 	0.46820 0.17810 0.67480 -0.48200
C 	C 	0.44010 0.21700 0.70070 0.21600
N 	N 	0.47560 0.26850 0.72360 -0.20100
C 	C 	0.52200 0.31000 0.70020 0.25600
H 	H 	0.53270 0.28220 0.67450 -0.02800
H 	H 	0.56440 0.31950 0.72660 -0.21000
H 	H 	0.50020 0.35410 0.68630 -0.01600
C 	C 	0.44230 0.31700 0.75230 0.35000
H 	H 	0.41070 0.28640 0.76330 0.00800
H 	H 	0.41920 0.36070 0.73970 -0.05600
H 	H 	0.48330 0.32620 0.78000 -0.13500
C 	C 	0.38620 0.18100 0.72330 -0.82300
H 	H 	0.37460 0.13700 0.70500 0.22900
H 	H 	0.34420 0.20870 0.71930 0.26300
H 	H 	0.40760 0.17080 0.75830 0.24100
O 	O 	0.36600 0.97100 0.66840 -0.16900
La	La	0.00927 0.48252 0.58363 1.67300
La	La	0.04180 0.06854 0.55970 1.61500
O 	O 	0.09710 0.57580 0.63120 -0.37100
O 	O 	0.01290 0.61460 0.56640 -0.37700
O 	O 	0.94300 0.38800 0.61570 -0.10100
O 	O 	0.42320 0.79690 0.88310 -0.31900
O 	O 	0.39860 0.90920 0.86610 -0.42700
O 	O 	0.08110 0.94500 0.57590 -0.41500
O 	O 	0.01490 0.87020 0.51980 -0.46400
O 	O 	0.06320 0.00090 0.47380 -0.48100
O 	O 	0.03360 0.96730 0.14840 -0.37800
O 	O 	0.13440 0.92700 0.14480 -0.38000
O 	O 	0.41940 0.00190 0.47010 -0.47100
O 	O 	0.38500 0.99620 0.53950 -0.40800
O 	O 	0.14670 0.05480 0.53150 -0.40300
C 	C 	0.06770 0.62550 0.60340 0.30900
C 	C 	0.09470 0.69930 0.61490 -0.08800
C 	C 	0.06640 0.75470 0.58260 0.03600
H 	H 	0.03100 0.74560 0.55210 0.03200
C 	C 	0.08950 0.82300 0.59460 -0.10900
C 	C 	0.05730 0.88540 0.55990 0.40500
C 	C 	0.14130 0.83620 0.64020 0.00400
H 	H 	0.15620 0.88320 0.64890 0.04300
C 	C 	0.17140 0.78100 0.67300 -0.03300
C 	C 	0.14720 0.71170 0.65940 -0.00700
H 	H 	0.16700 0.67330 0.68080 0.03200
C 	C 	0.22560 0.79530 0.72120 0.05700
C 	C 	0.23120 0.86140 0.74280 -0.10900
H 	H 	0.19870 0.89700 0.72750 0.06700
C 	C 	0.28330 0.87620 0.78650 0.01100
H 	H 	0.28620 0.92180 0.80090 0.03000
C 	C 	0.32460 0.75850 0.78890 0.00600
H 	H 	0.35580 0.72230 0.80500 0.02600
C 	C 	0.27270 0.74410 0.74510 -0.07000
H 	H 	0.26920 0.69820 0.73100 0.04800
C 	C 	0.33120 0.82540 0.80940 -0.12100
C 	C 	0.38870 0.84420 0.85710 0.36300
C 	C 	0.12700 0.02130 0.49160 0.36900
C 	C 	0.17660 0.00700 0.46320 -0.12900
C 	C 	0.24780 0.00950 0.48830 0.04900
H 	H 	0.26320 0.01810 0.52340 0.04500
C 	C 	0.29580 0.99980 0.46320 -0.11000
C 	C 	0.37160 0.00060 0.49320 0.34900
C 	C 	0.27260 0.99010 0.41070 -0.00100
H 	H 	0.30550 0.98540 0.39290 0.03900
C 	C 	0.20240 0.98720 0.38480 -0.03100
C 	C 	0.15510 0.99440 0.41210 0.00600
H 	H 	0.10690 0.99040 0.39500 0.02100
C 	C 	0.17660 0.97900 0.32890 0.04000
C 	C 	0.12510 0.96270 0.22440 -0.09100
C 	C 	0.09570 0.95040 0.16890 0.30600
C 	C 	0.21920 0.95000 0.30340 -0.01900
H 	H 	0.26500 0.93520 0.32060 0.03200
C 	C 	0.19210 0.94300 0.25180 -0.01200
H 	H 	0.22120 0.92440 0.23400 0.00600
C 	C 	0.08870 0.00070 0.25070 -0.02700
H 	H 	0.04500 0.02030 0.23300 0.04200
C 	C 	0.11440 0.01060 0.30220 -0.02300
H 	H 	0.08980 0.03880 0.31900 0.03800
O 	O 	0.96460 0.53300 0.64940 -0.37300
N 	N 	0.91660 0.53800 0.71340 -0.08900
C 	C 	0.93370 0.56320 0.67730 0.30700
C 	C 	0.88270 0.57680 0.74660 -0.47900
H 	H 	0.88060 0.62720 0.73860 0.21800
H 	H 	0.83570 0.55860 0.74100 0.17000
H 	H 	0.90980 0.56980 0.78170 0.18200
C 	C 	0.91150 0.45940 0.71880 -0.20900
H 	H 	0.92950 0.43570 0.69430 0.13900
H 	H 	0.93870 0.44530 0.75280 0.09200
H 	H 	0.86300 0.44620 0.71300 0.13400
C 	C 	0.92500 0.64540 0.66890 -0.42900
H 	H 	0.94020 0.65870 0.63990 0.31100
H 	H 	0.87690 0.65860 0.66280 0.14800
H 	H 	0.95420 0.66990 0.69880 0.36200
O 	O 	0.95700 0.38400 0.62690 -0.14500
C 	C 	0.26300 0.85800 0.72700 -0.01300
H 	H 	0.25450 0.89130 0.70060 0.03700
C 	C 	0.31200 0.86900 0.77300 0.01200
H 	H 	0.33340 0.91430 0.77790 0.02000
C 	C 	0.30100 0.76900 0.80600 0.01200
H 	H 	0.31180 0.73730 0.83350 0.02100
C 	C 	0.24900 0.74900 0.75900 -0.04300
H 	H 	0.23190 0.70230 0.75450 0.02200
C 	C 	0.21500 0.95400 0.29800 -0.04600
H 	H 	0.26140 0.94060 0.31550 0.01500
C 	C 	0.19700 0.94600 0.24900 0.01800
H 	H 	0.22830 0.93100 0.23110 0.01600
C 	C 	0.08200 0.95100 0.24940 0.02700
H 	H 	0.03540 0.93710 0.23370 0.02000
C 	C 	0.11000 0.95900 0.30340 -0.08200
H 	H 	0.07990 0.95020 0.32270 0.05700
O 	O 	0.96820 0.67810 0.67480 -0.48200
C 	C 	0.94010 0.71700 0.70070 0.21600
N 	N 	0.97560 0.76850 0.72360 -0.20100
C 	C 	0.02200 0.81000 0.70020 0.25500
H 	H 	0.03270 0.78220 0.67450 -0.02800
H 	H 	0.06440 0.81950 0.72660 -0.21100
H 	H 	0.00020 0.85410 0.68630 -0.01600
C 	C 	0.94230 0.81700 0.75230 0.35000
H 	H 	0.91070 0.78640 0.76330 0.00800
H 	H 	0.91920 0.86070 0.73970 -0.05600
H 	H 	0.98330 0.82620 0.78000 -0.13500
C 	C 	0.88620 0.68100 0.72330 -0.82300
H 	H 	0.87460 0.63700 0.70500 0.22800
H 	H 	0.84420 0.70870 0.71930 0.26300
H 	H 	0.90760 0.67080 0.75830 0.24100
O 	O 	0.86600 0.47100 0.66840 -0.16900
La	La	0.49073 0.98252 0.91637 1.67200
La	La	0.45820 0.56854 0.94030 1.61500
O 	O 	0.40290 0.07580 0.86880 -0.37100
O 	O 	0.48710 0.11460 0.93360 -0.37700
O 	O 	0.55700 0.88800 0.88430 -0.10100
O 	O 	0.07680 0.29690 0.61690 -0.31900
O 	O 	0.10140 0.40920 0.63390 -0.42700
O 	O 	0.41890 0.44500 0.92410 -0.41500
O 	O 	0.48510 0.37020 0.98020 -0.46500
O 	O 	0.43680 0.50090 0.02620 -0.48100
O 	O 	0.46640 0.46730 0.35160 -0.37800
O 	O 	0.36560 0.42700 0.35520 -0.38000
O 	O 	0.08060 0.50190 0.02990 -0.47000
O 	O 	0.11500 0.49620 0.96050 -0.40600
O 	O 	0.35330 0.55480 0.96850 -0.40200
C 	C 	0.43230 0.12550 0.89660 0.30900
C 	C 	0.40530 0.19930 0.88510 -0.08900
C 	C 	0.43360 0.25470 0.91740 0.03600
H 	H 	0.46900 0.24560 0.94790 0.03200
C 	C 	0.41050 0.32300 0.90540 -0.10900
C 	C 	0.44270 0.38540 0.94010 0.40500
C 	C 	0.35870 0.33620 0.85980 0.00400
H 	H 	0.34380 0.38320 0.85110 0.04300
C 	C 	0.32860 0.28100 0.82700 -0.03300
C 	C 	0.35280 0.21170 0.84060 -0.00700
H 	H 	0.33300 0.17330 0.81920 0.03200
C 	C 	0.27440 0.29530 0.77880 0.05700
C 	C 	0.26880 0.36140 0.75720 -0.10900
H 	H 	0.30130 0.39700 0.77250 0.06700
C 	C 	0.21670 0.37620 0.71350 0.01100
H 	H 	0.21380 0.42180 0.69910 0.03000
C 	C 	0.17540 0.25850 0.71110 0.00700
H 	H 	0.14420 0.22230 0.69500 0.02600
C 	C 	0.22730 0.24410 0.75490 -0.06900
H 	H 	0.23080 0.19820 0.76900 0.04800
C 	C 	0.16880 0.32540 0.69060 -0.12100
C 	C 	0.11130 0.34420 0.64290 0.36300
C 	C 	0.37300 0.52130 0.00840 0.36800
C 	C 	0.32340 0.50700 0.03680 -0.12700
C 	C 	0.25220 0.50950 0.01170 0.04500
H 	H 	0.23680 0.51810 0.97660 0.04700
C 	C 	0.20420 0.49980 0.03680 -0.10800
C 	C 	0.12840 0.50060 0.00680 0.34600
C 	C 	0.22740 0.49010 0.08930 -0.00200
H 	H 	0.19450 0.48540 0.10710 0.03900
C 	C 	0.29760 0.48720 0.11520 -0.03000
C 	C 	0.34490 0.49440 0.08790 0.00500
H 	H 	0.39310 0.49040 0.10500 0.02200
C 	C 	0.32340 0.47900 0.17110 0.04000
C 	C 	0.37490 0.46270 0.27560 -0.09100
C 	C 	0.40430 0.45040 0.33110 0.30600
C 	C 	0.28080 0.45000 0.19660 -0.01800
H 	H 	0.23500 0.43520 0.17940 0.03200
C 	C 	0.30790 0.44300 0.24820 -0.01200
H 	H 	0.27880 0.42440 0.26600 0.00600
C 	C 	0.41130 0.50070 0.24930 -0.02700
H 	H 	0.45500 0.52030 0.26700 0.04200
C 	C 	0.38560 0.51060 0.19780 -0.02300
H 	H 	0.41020 0.53880 0.18100 0.03800
O 	O 	0.53540 0.03300 0.85060 -0.37300
N 	N 	0.58340 0.03800 0.78660 -0.08900
C 	C 	0.56630 0.06320 0.82270 0.30700
C 	C 	0.61730 0.07680 0.75340 -0.47900
H 	H 	0.61940 0.12720 0.76140 0.21800
H 	H 	0.66430 0.05860 0.75900 0.17000
H 	H 	0.59020 0.06980 0.71830 0.18200
C 	C 	0.58850 0.95940 0.78120 -0.21000
H 	H 	0.57050 0.93570 0.80570 0.13900
H 	H 	0.56130 0.94530 0.74720 0.09200
H 	H 	0.63700 0.94620 0.78700 0.13400
C 	C 	0.57500 0.14540 0.83110 -0.42900
H 	H 	0.55980 0.15870 0.86010 0.31100
H 	H 	0.62310 0.15860 0.83720 0.14800
H 	H 	0.54580 0.16990 0.80120 0.36200
O 	O 	0.54300 0.88400 0.87310 -0.14500
C 	C 	0.23700 0.35800 0.77300 -0.01400
H 	H 	0.24550 0.39130 0.79940 0.03700
C 	C 	0.18800 0.36900 0.72700 0.01200
H 	H 	0.16660 0.41430 0.72210 0.02000
C 	C 	0.19900 0.26900 0.69400 0.01100
H 	H 	0.18820 0.23730 0.66650 0.02100
C 	C 	0.25100 0.24900 0.74100 -0.04400
H 	H 	0.26810 0.20230 0.74550 0.02200
C 	C 	0.28500 0.45400 0.20200 -0.04600
H 	H 	0.23860 0.44060 0.18450 0.01500
C 	C 	0.30300 0.44600 0.25100 0.01800
H 	H 	0.27170 0.43100 0.26890 0.01600
C 	C 	0.41800 0.45100 0.25060 0.02700
H 	H 	0.46460 0.43710 0.26630 0.02000
C 	C 	0.39000 0.45900 0.19660 -0.08200
H 	H 	0.42010 0.45020 0.17730 0.05700
O 	O 	0.53180 0.17810 0.82520 -0.48200
C 	C 	0.55990 0.21700 0.79930 0.21600
N 	N 	0.52440 0.26850 0.77640 -0.20100
C 	C 	0.47800 0.31000 0.79980 0.25600
H 	H 	0.46730 0.28220 0.82550 -0.02800
H 	H 	0.43560 0.31950 0.77340 -0.21000
H 	H 	0.49980 0.35410 0.81370 -0.01600
C 	C 	0.55770 0.31700 0.74770 0.35000
H 	H 	0.58930 0.28640 0.73670 0.00800
H 	H 	0.58080 0.36070 0.76030 -0.05600
H 	H 	0.51670 0.32620 0.72000 -0.13500
C 	C 	0.61380 0.18100 0.77670 -0.82300
H 	H 	0.62540 0.13700 0.79500 0.22900
H 	H 	0.65580 0.20870 0.78070 0.26300
H 	H 	0.59240 0.17080 0.74170 0.24100
O 	O 	0.63400 0.97100 0.83160 -0.16900
La	La	0.99073 0.48252 0.91637 1.67200
La	La	0.95820 0.06854 0.94030 1.61400
O 	O 	0.90290 0.57580 0.86880 -0.37100
O 	O 	0.98710 0.61460 0.93360 -0.37700
O 	O 	0.05700 0.38800 0.88430 -0.10100
O 	O 	0.57680 0.79690 0.61690 -0.31900
O 	O 	0.60140 0.90920 0.63390 -0.42700
O 	O 	0.91890 0.94500 0.92410 -0.41500
O 	O 	0.98510 0.87020 0.98020 -0.46500
O 	O 	0.93680 0.00090 0.02620 -0.48000
O 	O 	0.96640 0.96730 0.35160 -0.37700
O 	O 	0.86560 0.92700 0.35520 -0.38000
O 	O 	0.58060 0.00190 0.02990 -0.47100
O 	O 	0.61500 0.99620 0.96050 -0.40900
O 	O 	0.85330 0.05480 0.96850 -0.40400
C 	C 	0.93230 0.62550 0.89660 0.30900
C 	C 	0.90530 0.69930 0.88510 -0.08900
C 	C 	0.93360 0.75470 0.91740 0.03600
H 	H 	0.96900 0.74560 0.94790 0.03100
C 	C 	0.91050 0.82300 0.90540 -0.10900
C 	C 	0.94270 0.88540 0.94010 0.40500
C 	C 	0.85870 0.83620 0.85980 0.00400
H 	H 	0.84380 0.88320 0.85110 0.04300
C 	C 	0.82860 0.78100 0.82700 -0.03300
C 	C 	0.85280 0.71170 0.84060 -0.00700
H 	H 	0.83300 0.67330 0.81920 0.03200
C 	C 	0.77440 0.79530 0.77880 0.05700
C 	C 	0.76880 0.86140 0.75720 -0.10900
H 	H 	0.80130 0.89700 0.77250 0.06700
C 	C 	0.71670 0.87620 0.71350 0.01100
H 	H 	0.71380 0.92180 0.69910 0.03000
C 	C 	0.67540 0.75850 0.71110 0.00600
H 	H 	0.64420 0.72230 0.69500 0.02600
C 	C 	0.72730 0.74410 0.75490 -0.07000
H 	H 	0.73080 0.69820 0.76900 0.04800
C 	C 	0.66880 0.82540 0.69060 -0.12100
C 	C 	0.61130 0.84420 0.64290 0.36300
C 	C 	0.87300 0.02130 0.00840 0.37100
C 	C 	0.82340 0.00700 0.03680 -0.12900
C 	C 	0.75220 0.00950 0.01170 0.05000
H 	H 	0.73680 0.01810 0.97660 0.04400
C 	C 	0.70420 0.99980 0.03680 -0.11000
C 	C 	0.62840 0.00060 0.00680 0.34900
C 	C 	0.72740 0.99010 0.08930 -0.00000
H 	H 	0.69450 0.98540 0.10710 0.03900
C 	C 	0.79760 0.98720 0.11520 -0.03100
C 	C 	0.84490 0.99440 0.08790 0.00700
H 	H 	0.89310 0.99040 0.10500 0.02200
C 	C 	0.82340 0.97900 0.17110 0.04000
C 	C 	0.87490 0.96270 0.27560 -0.09100
C 	C 	0.90430 0.95040 0.33110 0.30600
C 	C 	0.78080 0.95000 0.19660 -0.01900
H 	H 	0.73500 0.93520 0.17940 0.03200
C 	C 	0.80790 0.94300 0.24820 -0.01200
H 	H 	0.77880 0.92440 0.26600 0.00600
C 	C 	0.91130 0.00070 0.24930 -0.02700
H 	H 	0.95500 0.02030 0.26700 0.04300
C 	C 	0.88560 0.01060 0.19780 -0.02300
H 	H 	0.91020 0.03880 0.18100 0.03900
O 	O 	0.03540 0.53300 0.85060 -0.37200
N 	N 	0.08340 0.53800 0.78660 -0.08900
C 	C 	0.06630 0.56320 0.82270 0.30800
C 	C 	0.11730 0.57680 0.75340 -0.47900
H 	H 	0.11940 0.62720 0.76140 0.21800
H 	H 	0.16430 0.55860 0.75900 0.17000
H 	H 	0.09020 0.56980 0.71830 0.18200
C 	C 	0.08850 0.45940 0.78120 -0.21000
H 	H 	0.07050 0.43570 0.80570 0.14000
H 	H 	0.06130 0.44530 0.74720 0.09300
H 	H 	0.13700 0.44620 0.78700 0.13400
C 	C 	0.07500 0.64540 0.83110 -0.43000
H 	H 	0.05980 0.65870 0.86010 0.31100
H 	H 	0.12310 0.65860 0.83720 0.14800
H 	H 	0.04580 0.66990 0.80120 0.36200
O 	O 	0.04300 0.38400 0.87310 -0.14400
C 	C 	0.73700 0.85800 0.77300 -0.01300
H 	H 	0.74550 0.89130 0.79940 0.03700
C 	C 	0.68800 0.86900 0.72700 0.01200
H 	H 	0.66660 0.91430 0.72210 0.02000
C 	C 	0.69900 0.76900 0.69400 0.01200
H 	H 	0.68820 0.73730 0.66650 0.02100
C 	C 	0.75100 0.74900 0.74100 -0.04300
H 	H 	0.76810 0.70230 0.74550 0.02200
C 	C 	0.78500 0.95400 0.20200 -0.04600
H 	H 	0.73860 0.94060 0.18450 0.01500
C 	C 	0.80300 0.94600 0.25100 0.01800
H 	H 	0.77170 0.93100 0.26890 0.01600
C 	C 	0.91800 0.95100 0.25060 0.02700
H 	H 	0.96460 0.93710 0.26630 0.02000
C 	C 	0.89000 0.95900 0.19660 -0.08200
H 	H 	0.92010 0.95020 0.17730 0.05800
O 	O 	0.03180 0.67810 0.82520 -0.48100
C 	C 	0.05990 0.71700 0.79930 0.21600
N 	N 	0.02440 0.76850 0.77640 -0.20000
C 	C 	0.97800 0.81000 0.79980 0.25700
H 	H 	0.96730 0.78220 0.82550 -0.02900
H 	H 	0.93560 0.81950 0.77340 -0.21000
H 	H 	0.99980 0.85410 0.81370 -0.01600
C 	C 	0.05770 0.81700 0.74770 0.35100
H 	H 	0.08930 0.78640 0.73670 0.00800
H 	H 	0.08080 0.86070 0.76030 -0.05600
H 	H 	0.01670 0.82620 0.72000 -0.13400
C 	C 	0.11380 0.68100 0.77670 -0.82300
H 	H 	0.12540 0.63700 0.79500 0.22900
H 	H 	0.15580 0.70870 0.78070 0.26300
H 	H 	0.09240 0.67080 0.74170 0.24100
O 	O 	0.13400 0.47100 0.83160 -0.16900
