data_crystal

_cell_length_a 19.82670
_cell_length_b 18.62530
_cell_length_c 27.86850
_cell_angle_alpha 90.00000
_cell_angle_beta  107.10000
_cell_angle_gamma 90.00000

_symmetry_space_group_name_	'P 1'
_symmetry_space_group_name_H-M	'P 1'

loop_
_symmetry_equiv_pos_as_xyz
  x,y,z

loop_
_atom_site_label
_atom_site_type_symbol
_atom_site_fract_x
_atom_site_fract_y
_atom_site_fract_z
_atom_site_charge
Eu	Eu	0.49451 0.01622 0.41361 1.42000
Eu	Eu	0.45628 0.43118 0.44133 1.82400
O 	O 	0.40770 0.92580 0.36681 -0.25700
O 	O 	0.48820 0.88730 0.43482 -0.27500
O 	O 	0.57650 0.10570 0.39060 -0.11800
O 	O 	0.07900 0.70110 0.11500 -0.35400
O 	O 	0.09180 0.58900 0.13870 -0.51300
O 	O 	0.42100 0.55310 0.42550 -0.47100
O 	O 	0.48800 0.62950 0.48150 -0.51400
O 	O 	0.43820 0.50440 0.52860 -0.55300
O 	O 	0.46810 0.53550 0.85660 -0.41000
O 	O 	0.36370 0.56870 0.85880 -0.41700
O 	O 	0.08290 0.49180 0.53740 -0.57100
O 	O 	0.11000 0.50000 0.46690 -0.52400
O 	O 	0.35510 0.44660 0.47120 -0.47000
C 	C 	0.43530 0.87620 0.39650 0.29600
C 	C 	0.40600 0.80170 0.38610 -0.05700
C 	C 	0.43510 0.74580 0.41840 0.03600
H 	H 	0.47180 0.75500 0.44840 0.03400
C 	C 	0.41060 0.67650 0.40680 -0.12000
C 	C 	0.44370 0.61380 0.44090 0.46200
C 	C 	0.35680 0.66320 0.36270 -0.00500
H 	H 	0.34050 0.61550 0.35480 0.04800
C 	C 	0.32630 0.71920 0.32970 0.01000
C 	C 	0.35160 0.78840 0.34250 -0.02900
H 	H 	0.33140 0.82730 0.32100 0.04500
C 	C 	0.26960 0.70390 0.28240 -0.03300
C 	C 	0.26180 0.63560 0.26140 -0.41100
H 	H 	0.29340 0.59860 0.27750 0.15100
C 	C 	0.20900 0.62020 0.21760 -0.33000
H 	H 	0.20400 0.57260 0.20470 0.12700
C 	C 	0.17310 0.74230 0.21140 -1.54600
H 	H 	0.14380 0.77990 0.19360 0.49200
C 	C 	0.22470 0.75740 0.25580 -1.69900
H 	H 	0.22960 0.80510 0.26850 0.57200
C 	C 	0.16370 0.67260 0.19240 -0.24200
C 	C 	0.10740 0.65340 0.14530 0.46700
C 	C 	0.37570 0.48160 0.51110 0.44800
C 	C 	0.32410 0.49460 0.54000 -0.17900
C 	C 	0.25260 0.48970 0.51520 0.11000
H 	H 	0.23710 0.48050 0.48010 0.01900
C 	C 	0.20380 0.49840 0.54160 -0.19800
C 	C 	0.12700 0.49630 0.51380 0.50800
C 	C 	0.22710 0.50870 0.59310 0.06000
H 	H 	0.19360 0.51240 0.61130 0.01500
C 	C 	0.29960 0.51380 0.61890 -0.07200
C 	C 	0.34720 0.50760 0.59110 0.04800
H 	H 	0.39630 0.51230 0.60750 0.01000
C 	C 	0.32530 0.52260 0.67440 0.05500
C 	C 	0.37570 0.53830 0.77890 -0.09700
C 	C 	0.40380 0.54920 0.83470 0.32600
C 	C 	0.27930 0.54400 0.70010 -0.01100
H 	H 	0.23110 0.55370 0.68330 0.04600
C 	C 	0.30690 0.55070 0.75170 -0.01800
H 	H 	0.27540 0.56510 0.76990 0.00300
C 	C 	0.41610 0.50100 0.75320 -0.03400
H 	H 	0.46050 0.48110 0.77120 0.04300
C 	C 	0.39080 0.49340 0.70140 -0.03000
H 	H 	0.41820 0.46820 0.68400 0.03900
O 	O 	0.54380 0.96380 0.35420 -0.18600
N 	N 	0.58070 0.96180 0.28410 0.22100
C 	C 	0.56290 0.93730 0.32120 0.20800
C 	C 	0.60770 0.92390 0.24880 -1.12800
H 	H 	0.61010 0.87240 0.25660 0.64700
H 	H 	0.65500 0.94170 0.25100 0.42900
H 	H 	0.57640 0.93160 0.21470 0.42700
C 	C 	0.57600 0.03880 0.27890 -0.73500
H 	H 	0.55780 0.05910 0.30490 0.23800
H 	H 	0.54500 0.05130 0.24570 0.18700
H 	H 	0.62360 0.05840 0.28270 0.26900
C 	C 	0.57600 0.85420 0.32700 -0.07000
H 	H 	0.56210 0.83670 0.35580 0.38800
H 	H 	0.62620 0.84420 0.33220 0.04800
H 	H 	0.54800 0.82980 0.29650 0.08800
O 	O 	0.54960 0.11230 0.37540 -0.19100
C 	C 	0.23000 0.64100 0.27860 0.29300
H 	H 	0.23850 0.60890 0.30610 -0.04800
C 	C 	0.17700 0.62700 0.23420 0.40300
H 	H 	0.14970 0.58430 0.23200 -0.09600
C 	C 	0.19800 0.73500 0.19900 1.59400
H 	H 	0.18590 0.76980 0.17300 -0.45800
C 	C 	0.25100 0.75000 0.24360 1.64200
H 	H 	0.27460 0.79460 0.24660 -0.49600
C 	C 	0.28900 0.55000 0.70600 -0.05700
H 	H 	0.24230 0.56340 0.68890 -0.00200
C 	C 	0.30700 0.56100 0.75750 0.02600
H 	H 	0.27740 0.58160 0.77490 0.01300
C 	C 	0.41740 0.56000 0.75020 0.04000
H 	H 	0.46220 0.58120 0.76490 0.01500
C 	C 	0.39200 0.54900 0.69880 -0.09000
H 	H 	0.42230 0.55990 0.67910 0.06200
O 	O 	0.53700 0.81900 0.32930 -0.71400
C 	C 	0.55810 0.78730 0.29810 0.68900
N 	N 	0.53370 0.72560 0.27830 -0.25500
C 	C 	0.48400 0.68800 0.29780 0.19400
H 	H 	0.47280 0.71540 0.32360 -0.01600
H 	H 	0.44110 0.67800 0.27150 -0.03400
H 	H 	0.50520 0.64350 0.31170 -0.00800
C 	C 	0.55700 0.68300 0.24270 0.04900
H 	H 	0.58850 0.71320 0.23170 0.00000
H 	H 	0.58000 0.63890 0.25530 0.01300
H 	H 	0.51590 0.67350 0.21510 -0.08000
C 	C 	0.61220 0.82900 0.27690 -1.74200
H 	H 	0.62390 0.87270 0.29520 0.50900
H 	H 	0.65430 0.80110 0.28090 0.52200
H 	H 	0.59090 0.83890 0.24200 0.31800
O 	O 	0.63900 0.02800 0.32880 -0.31700
Eu	Eu	0.99451 0.51622 0.41361 2.01100
Eu	Eu	0.95628 0.93118 0.44133 2.12000
O 	O 	0.90770 0.42580 0.36681 -0.41800
O 	O 	0.98820 0.38730 0.43482 -0.42100
O 	O 	0.07650 0.60570 0.39060 0.02600
O 	O 	0.57900 0.20110 0.11500 -0.35300
O 	O 	0.59180 0.08900 0.13870 -0.53300
O 	O 	0.92100 0.05310 0.42550 -0.66900
O 	O 	0.98800 0.12950 0.48150 -0.53700
O 	O 	0.93820 0.00440 0.52860 -0.84500
O 	O 	0.96810 0.03550 0.85660 -0.42300
O 	O 	0.86370 0.06870 0.85880 -0.40200
O 	O 	0.58290 0.99180 0.53740 -0.53400
O 	O 	0.61000 0.00000 0.46690 -0.82600
O 	O 	0.85510 0.94660 0.47120 -0.46100
C 	C 	0.93530 0.37620 0.39650 0.32200
C 	C 	0.90600 0.30170 0.38610 -0.09400
C 	C 	0.93510 0.24580 0.41840 0.05700
H 	H 	0.97180 0.25500 0.44840 0.01900
C 	C 	0.91060 0.17650 0.40680 -0.16800
C 	C 	0.94370 0.11380 0.44090 0.48400
C 	C 	0.85680 0.16320 0.36270 0.01700
H 	H 	0.84050 0.11550 0.35480 0.00900
C 	C 	0.82630 0.21920 0.32970 -0.00800
C 	C 	0.85160 0.28840 0.34250 -0.01600
H 	H 	0.83140 0.32730 0.32100 0.03500
C 	C 	0.76960 0.20390 0.28240 -0.04900
C 	C 	0.76180 0.13560 0.26140 -0.55800
H 	H 	0.79340 0.09860 0.27750 0.16200
C 	C 	0.70900 0.12020 0.21760 -0.47200
H 	H 	0.70400 0.07260 0.20470 0.06000
C 	C 	0.67310 0.24230 0.21140 -2.01700
H 	H 	0.64380 0.27990 0.19360 0.66700
C 	C 	0.72470 0.25740 0.25580 -2.20000
H 	H 	0.72960 0.30510 0.26850 0.73200
C 	C 	0.66370 0.17260 0.19240 -0.30000
C 	C 	0.60740 0.15340 0.14530 0.46500
C 	C 	0.87570 0.98160 0.51110 0.62000
C 	C 	0.82410 0.99460 0.54000 0.53300
C 	C 	0.75260 0.98970 0.51520 -0.36200
H 	H 	0.73710 0.98050 0.48010 0.24900
C 	C 	0.70380 0.99840 0.54160 0.48000
C 	C 	0.62700 0.99630 0.51380 0.72300
C 	C 	0.72710 0.00870 0.59310 -0.83200
H 	H 	0.69360 0.01240 0.61130 0.20200
C 	C 	0.79960 0.01380 0.61890 0.58100
C 	C 	0.84720 0.00760 0.59110 -0.88600
H 	H 	0.89630 0.01230 0.60750 0.25100
C 	C 	0.82530 0.02260 0.67440 -0.64200
C 	C 	0.87570 0.03830 0.77890 0.39800
C 	C 	0.90380 0.04920 0.83470 0.11100
C 	C 	0.77930 0.04400 0.70010 -0.04500
H 	H 	0.73110 0.05370 0.68330 0.01400
C 	C 	0.80690 0.05070 0.75170 -0.05300
H 	H 	0.77540 0.06510 0.76990 0.03600
C 	C 	0.91610 0.00100 0.75320 4.45800
H 	H 	0.96050 0.98110 0.77120 -1.19700
C 	C 	0.89080 0.99340 0.70140 -5.23900
H 	H 	0.91820 0.96820 0.68400 1.92100
O 	O 	0.04380 0.46380 0.35420 -0.44800
N 	N 	0.08070 0.46180 0.28410 -0.02400
C 	C 	0.06290 0.43730 0.32120 0.27500
C 	C 	0.10770 0.42390 0.24880 -0.88400
H 	H 	0.11010 0.37240 0.25660 0.52500
H 	H 	0.15500 0.44170 0.25100 0.28200
H 	H 	0.07640 0.43160 0.21470 0.29900
C 	C 	0.07600 0.53880 0.27890 -0.27600
H 	H 	0.05780 0.55910 0.30490 0.15400
H 	H 	0.04500 0.55130 0.24570 0.11900
H 	H 	0.12360 0.55840 0.28270 0.16300
C 	C 	0.07600 0.35420 0.32700 -0.18200
H 	H 	0.06210 0.33670 0.35580 0.38100
H 	H 	0.12620 0.34420 0.33220 0.06100
H 	H 	0.04800 0.32980 0.29650 0.14500
O 	O 	0.04960 0.61230 0.37540 -0.31900
C 	C 	0.73000 0.14100 0.27860 0.40600
H 	H 	0.73850 0.10890 0.30610 -0.11700
C 	C 	0.67700 0.12700 0.23420 0.57900
H 	H 	0.64970 0.08430 0.23200 -0.20000
C 	C 	0.69800 0.23500 0.19900 2.07200
H 	H 	0.68590 0.26980 0.17300 -0.60600
C 	C 	0.75100 0.25000 0.24360 2.14700
H 	H 	0.77460 0.29460 0.24660 -0.63900
C 	C 	0.78900 0.05000 0.70600 0.06300
H 	H 	0.74230 0.06340 0.68890 -0.02700
C 	C 	0.80700 0.06100 0.75750 -0.14900
H 	H 	0.77740 0.08160 0.77490 0.01800
C 	C 	0.91740 0.06000 0.75020 -5.73500
H 	H 	0.96220 0.08120 0.76490 1.87100
C 	C 	0.89200 0.04900 0.69880 6.00200
H 	H 	0.92230 0.05990 0.67910 -1.96300
O 	O 	0.03700 0.31900 0.32930 -0.65700
C 	C 	0.05810 0.28730 0.29810 0.55900
N 	N 	0.03370 0.22560 0.27830 -0.24200
C 	C 	0.98400 0.18800 0.29780 0.18800
H 	H 	0.97280 0.21540 0.32360 -0.01700
H 	H 	0.94110 0.17800 0.27150 -0.03600
H 	H 	0.00520 0.14350 0.31170 -0.02000
C 	C 	0.05700 0.18300 0.24270 0.07000
H 	H 	0.08850 0.21320 0.23170 -0.01400
H 	H 	0.08000 0.13890 0.25530 -0.03700
H 	H 	0.01590 0.17350 0.21510 -0.08800
C 	C 	0.11220 0.32900 0.27690 -1.49300
H 	H 	0.12390 0.37270 0.29520 0.43200
H 	H 	0.15430 0.30110 0.28090 0.42800
H 	H 	0.09090 0.33890 0.24200 0.28700
O 	O 	0.13900 0.52800 0.32880 -0.16600
Eu	Eu	0.50549 0.01622 0.08639 1.42100
Eu	Eu	0.54372 0.43118 0.05867 1.82300
O 	O 	0.59230 0.92580 0.13319 -0.25700
O 	O 	0.51180 0.88730 0.06518 -0.27500
O 	O 	0.42350 0.10570 0.10940 -0.11900
O 	O 	0.92100 0.70110 0.38500 -0.35400
O 	O 	0.90820 0.58900 0.36130 -0.51400
O 	O 	0.57900 0.55310 0.07450 -0.47100
O 	O 	0.51200 0.62950 0.01850 -0.51400
O 	O 	0.56180 0.50440 0.97140 -0.55300
O 	O 	0.53190 0.53550 0.64340 -0.41000
O 	O 	0.63630 0.56870 0.64120 -0.41700
O 	O 	0.91710 0.49180 0.96260 -0.56900
O 	O 	0.89000 0.50000 0.03310 -0.52100
O 	O 	0.64490 0.44660 0.02880 -0.46900
C 	C 	0.56470 0.87620 0.10350 0.29600
C 	C 	0.59400 0.80170 0.11390 -0.05700
C 	C 	0.56490 0.74580 0.08160 0.03600
H 	H 	0.52820 0.75500 0.05160 0.03400
C 	C 	0.58940 0.67650 0.09320 -0.12000
C 	C 	0.55630 0.61380 0.05910 0.46200
C 	C 	0.64320 0.66320 0.13730 -0.00500
H 	H 	0.65950 0.61550 0.14520 0.04800
C 	C 	0.67370 0.71920 0.17030 0.01000
C 	C 	0.64840 0.78840 0.15750 -0.02900
H 	H 	0.66860 0.82730 0.17900 0.04500
C 	C 	0.73040 0.70390 0.21760 -0.03300
C 	C 	0.73820 0.63560 0.23860 -0.41300
H 	H 	0.70660 0.59860 0.22250 0.15200
C 	C 	0.79100 0.62020 0.28240 -0.33300
H 	H 	0.79600 0.57260 0.29530 0.12800
C 	C 	0.82690 0.74230 0.28860 -1.55700
H 	H 	0.85620 0.77990 0.30640 0.49600
C 	C 	0.77530 0.75740 0.24420 -1.71000
H 	H 	0.77040 0.80510 0.23150 0.57500
C 	C 	0.83630 0.67260 0.30760 -0.24300
C 	C 	0.89260 0.65340 0.35470 0.46800
C 	C 	0.62430 0.48160 0.98890 0.44700
C 	C 	0.67590 0.49460 0.96000 -0.17700
C 	C 	0.74740 0.48970 0.98480 0.10700
H 	H 	0.76290 0.48050 0.01990 0.02000
C 	C 	0.79620 0.49840 0.95840 -0.19600
C 	C 	0.87300 0.49630 0.98620 0.50500
C 	C 	0.77290 0.50870 0.90690 0.05900
H 	H 	0.80640 0.51240 0.88870 0.01600
C 	C 	0.70040 0.51380 0.88110 -0.07100
C 	C 	0.65280 0.50760 0.90890 0.04700
H 	H 	0.60370 0.51230 0.89250 0.01000
C 	C 	0.67470 0.52260 0.82560 0.05500
C 	C 	0.62430 0.53830 0.72110 -0.09700
C 	C 	0.59620 0.54920 0.66530 0.32600
C 	C 	0.72070 0.54400 0.79990 -0.01100
H 	H 	0.76890 0.55370 0.81670 0.04600
C 	C 	0.69310 0.55070 0.74830 -0.01800
H 	H 	0.72460 0.56510 0.73010 0.00300
C 	C 	0.58390 0.50100 0.74680 -0.03400
H 	H 	0.53950 0.48110 0.72880 0.04300
C 	C 	0.60920 0.49340 0.79860 -0.03000
H 	H 	0.58180 0.46820 0.81600 0.03900
O 	O 	0.45620 0.96380 0.14580 -0.18700
N 	N 	0.41930 0.96180 0.21590 0.22200
C 	C 	0.43710 0.93730 0.17880 0.20800
C 	C 	0.39230 0.92390 0.25120 -1.12800
H 	H 	0.38990 0.87240 0.24340 0.64700
H 	H 	0.34500 0.94170 0.24900 0.43000
H 	H 	0.42360 0.93160 0.28530 0.42700
C 	C 	0.42400 0.03880 0.22110 -0.73500
H 	H 	0.44220 0.05910 0.19510 0.23800
H 	H 	0.45500 0.05130 0.25430 0.18700
H 	H 	0.37640 0.05840 0.21730 0.26900
C 	C 	0.42400 0.85420 0.17300 -0.07000
H 	H 	0.43790 0.83670 0.14420 0.38800
H 	H 	0.37380 0.84420 0.16780 0.04800
H 	H 	0.45200 0.82980 0.20350 0.08800
O 	O 	0.45040 0.11230 0.12460 -0.19100
C 	C 	0.77000 0.64100 0.22140 0.29600
H 	H 	0.76150 0.60890 0.19390 -0.04800
C 	C 	0.82300 0.62700 0.26580 0.40600
H 	H 	0.85030 0.58430 0.26800 -0.09700
C 	C 	0.80200 0.73500 0.30100 1.60500
H 	H 	0.81410 0.76980 0.32700 -0.46200
C 	C 	0.74900 0.75000 0.25640 1.65300
H 	H 	0.72540 0.79460 0.25340 -0.49900
C 	C 	0.71100 0.55000 0.79400 -0.05700
H 	H 	0.75770 0.56340 0.81110 -0.00200
C 	C 	0.69300 0.56100 0.74250 0.02600
H 	H 	0.72260 0.58160 0.72510 0.01300
C 	C 	0.58260 0.56000 0.74980 0.04000
H 	H 	0.53780 0.58120 0.73510 0.01500
C 	C 	0.60800 0.54900 0.80120 -0.09000
H 	H 	0.57770 0.55990 0.82090 0.06200
O 	O 	0.46300 0.81900 0.17070 -0.71400
C 	C 	0.44190 0.78730 0.20190 0.69000
N 	N 	0.46630 0.72560 0.22170 -0.25500
C 	C 	0.51600 0.68800 0.20220 0.19400
H 	H 	0.52720 0.71540 0.17640 -0.01600
H 	H 	0.55890 0.67800 0.22850 -0.03400
H 	H 	0.49480 0.64350 0.18830 -0.00800
C 	C 	0.44300 0.68300 0.25730 0.04900
H 	H 	0.41150 0.71320 0.26830 0.00000
H 	H 	0.42000 0.63890 0.24470 0.01300
H 	H 	0.48410 0.67350 0.28490 -0.08000
C 	C 	0.38780 0.82900 0.22310 -1.74300
H 	H 	0.37610 0.87270 0.20480 0.50900
H 	H 	0.34570 0.80110 0.21910 0.52300
H 	H 	0.40910 0.83890 0.25800 0.31800
O 	O 	0.36100 0.02800 0.17120 -0.31700
Eu	Eu	0.00549 0.51622 0.08639 2.00600
Eu	Eu	0.04372 0.93118 0.05867 2.11700
O 	O 	0.09230 0.42580 0.13319 -0.41800
O 	O 	0.01180 0.38730 0.06518 -0.42200
O 	O 	0.92350 0.60570 0.10940 0.02400
O 	O 	0.42100 0.20110 0.38500 -0.35300
O 	O 	0.40820 0.08900 0.36130 -0.53300
O 	O 	0.07900 0.05310 0.07450 -0.66900
O 	O 	0.01200 0.12950 0.01850 -0.53900
O 	O 	0.06180 0.00440 0.97140 -0.83700
O 	O 	0.03190 0.03550 0.64340 -0.42200
O 	O 	0.13630 0.06870 0.64120 -0.40300
O 	O 	0.41710 0.99180 0.96260 -0.53500
O 	O 	0.39000 0.00000 0.03310 -0.82400
O 	O 	0.14490 0.94660 0.02880 -0.45900
C 	C 	0.06470 0.37620 0.10350 0.32200
C 	C 	0.09400 0.30170 0.11390 -0.09500
C 	C 	0.06490 0.24580 0.08160 0.05700
H 	H 	0.02820 0.25500 0.05160 0.01800
C 	C 	0.08940 0.17650 0.09320 -0.16900
C 	C 	0.05630 0.11380 0.05910 0.48400
C 	C 	0.14320 0.16320 0.13730 0.01700
H 	H 	0.15950 0.11550 0.14520 0.00900
C 	C 	0.17370 0.21920 0.17030 -0.00800
C 	C 	0.14840 0.28840 0.15750 -0.01600
H 	H 	0.16860 0.32730 0.17900 0.03500
C 	C 	0.23040 0.20390 0.21760 -0.04900
C 	C 	0.23820 0.13560 0.23860 -0.55800
H 	H 	0.20660 0.09860 0.22250 0.16200
C 	C 	0.29100 0.12020 0.28240 -0.47200
H 	H 	0.29600 0.07260 0.29530 0.06000
C 	C 	0.32690 0.24230 0.28860 -2.01800
H 	H 	0.35620 0.27990 0.30640 0.66800
C 	C 	0.27530 0.25740 0.24420 -2.20200
H 	H 	0.27040 0.30510 0.23150 0.73300
C 	C 	0.33630 0.17260 0.30760 -0.30000
C 	C 	0.39260 0.15340 0.35470 0.46500
C 	C 	0.12430 0.98160 0.98890 0.61300
C 	C 	0.17590 0.99460 0.96000 0.52700
C 	C 	0.24740 0.98970 0.98480 -0.36000
H 	H 	0.26290 0.98050 0.01990 0.24900
C 	C 	0.29620 0.99840 0.95840 0.47400
C 	C 	0.37300 0.99630 0.98620 0.72100
C 	C 	0.27290 0.00870 0.90690 -0.82100
H 	H 	0.30640 0.01240 0.88870 0.20000
C 	C 	0.20040 0.01380 0.88110 0.57500
C 	C 	0.15280 0.00760 0.90890 -0.87600
H 	H 	0.10370 0.01230 0.89250 0.24900
C 	C 	0.17470 0.02260 0.82560 -0.63700
C 	C 	0.12430 0.03830 0.72110 0.39600
C 	C 	0.09620 0.04920 0.66530 0.11200
C 	C 	0.22070 0.04400 0.79990 -0.04500
H 	H 	0.26890 0.05370 0.81670 0.01400
C 	C 	0.19310 0.05070 0.74830 -0.05300
H 	H 	0.22460 0.06510 0.73010 0.03600
C 	C 	0.08390 0.00100 0.74680 4.44000
H 	H 	0.03950 0.98110 0.72880 -1.19100
C 	C 	0.10920 0.99340 0.79860 -5.22100
H 	H 	0.08180 0.96820 0.81600 1.91500
O 	O 	0.95620 0.46380 0.14580 -0.44700
N 	N 	0.91930 0.46180 0.21590 -0.02400
C 	C 	0.93710 0.43730 0.17880 0.27600
C 	C 	0.89230 0.42390 0.25120 -0.88400
H 	H 	0.88990 0.37240 0.24340 0.52400
H 	H 	0.84500 0.44170 0.24900 0.28200
H 	H 	0.92360 0.43160 0.28530 0.29900
C 	C 	0.92400 0.53880 0.22110 -0.27700
H 	H 	0.94220 0.55910 0.19510 0.15500
H 	H 	0.95500 0.55130 0.25430 0.12000
H 	H 	0.87640 0.55840 0.21730 0.16300
C 	C 	0.92400 0.35420 0.17300 -0.18400
H 	H 	0.93790 0.33670 0.14420 0.38200
H 	H 	0.87380 0.34420 0.16780 0.06100
H 	H 	0.95200 0.32980 0.20350 0.14600
O 	O 	0.95040 0.61230 0.12460 -0.31500
C 	C 	0.27000 0.14100 0.22140 0.40600
H 	H 	0.26150 0.10890 0.19390 -0.11700
C 	C 	0.32300 0.12700 0.26580 0.58000
H 	H 	0.35030 0.08430 0.26800 -0.20000
C 	C 	0.30200 0.23500 0.30100 2.07300
H 	H 	0.31410 0.26980 0.32700 -0.60600
C 	C 	0.24900 0.25000 0.25640 2.14900
H 	H 	0.22540 0.29460 0.25340 -0.63900
C 	C 	0.21100 0.05000 0.79400 0.06200
H 	H 	0.25770 0.06340 0.81110 -0.02700
C 	C 	0.19300 0.06100 0.74250 -0.14800
H 	H 	0.22260 0.08160 0.72510 0.01800
C 	C 	0.08260 0.06000 0.74980 -5.71300
H 	H 	0.03780 0.08120 0.73510 1.86400
C 	C 	0.10800 0.04900 0.80120 5.98000
H 	H 	0.07770 0.05990 0.82090 -1.95500
O 	O 	0.96300 0.31900 0.17070 -0.65600
C 	C 	0.94190 0.28730 0.20190 0.55800
N 	N 	0.96630 0.22560 0.22170 -0.24100
C 	C 	0.01600 0.18800 0.20220 0.18800
H 	H 	0.02720 0.21540 0.17640 -0.01800
H 	H 	0.05890 0.17800 0.22850 -0.03500
H 	H 	0.99480 0.14350 0.18830 -0.01700
C 	C 	0.94300 0.18300 0.25730 0.07000
H 	H 	0.91150 0.21320 0.26830 -0.01400
H 	H 	0.92000 0.13890 0.24470 -0.03700
H 	H 	0.98410 0.17350 0.28490 -0.08600
C 	C 	0.88780 0.32900 0.22310 -1.49300
H 	H 	0.87610 0.37270 0.20480 0.43200
H 	H 	0.84570 0.30110 0.21910 0.42800
H 	H 	0.90910 0.33890 0.25800 0.28700
O 	O 	0.86100 0.52800 0.17120 -0.16600
Eu	Eu	0.50549 0.98378 0.58639 2.86700
Eu	Eu	0.54372 0.56882 0.55867 1.83500
O 	O 	0.59230 0.07420 0.63319 -0.59500
O 	O 	0.51180 0.11270 0.56518 -0.55500
O 	O 	0.42350 0.89430 0.60940 0.35900
O 	O 	0.92100 0.29890 0.88500 -0.33800
O 	O 	0.90820 0.41100 0.86130 -0.50700
O 	O 	0.57900 0.44690 0.57450 -0.47500
O 	O 	0.51200 0.37050 0.51850 -0.52000
O 	O 	0.56180 0.49560 0.47140 -0.55300
O 	O 	0.53190 0.46450 0.14340 -0.40900
O 	O 	0.63630 0.43130 0.14120 -0.41800
O 	O 	0.91710 0.50820 0.46260 -0.57100
O 	O 	0.89000 0.50000 0.53310 -0.52500
O 	O 	0.64490 0.55340 0.52880 -0.46600
C 	C 	0.56470 0.12380 0.60350 0.34300
C 	C 	0.59400 0.19830 0.61390 -0.11600
C 	C 	0.56490 0.25420 0.58160 0.05700
H 	H 	0.52820 0.24500 0.55160 0.01700
C 	C 	0.58940 0.32350 0.59320 -0.14600
C 	C 	0.55630 0.38620 0.55910 0.46800
C 	C 	0.64320 0.33680 0.63730 0.01700
H 	H 	0.65950 0.38450 0.64520 0.03700
C 	C 	0.67370 0.28080 0.67030 -0.03800
C 	C 	0.64840 0.21160 0.65750 -0.00200
H 	H 	0.66860 0.17270 0.67900 0.02200
C 	C 	0.73040 0.29610 0.71760 0.02000
C 	C 	0.73820 0.36440 0.73860 -0.19600
H 	H 	0.70660 0.40140 0.72250 0.08900
C 	C 	0.79100 0.37980 0.78240 -0.11200
H 	H 	0.79600 0.42740 0.79530 0.06300
C 	C 	0.82690 0.25770 0.78860 -0.58300
H 	H 	0.85620 0.22010 0.80640 0.23400
C 	C 	0.77530 0.24260 0.74420 -0.68700
H 	H 	0.77040 0.19490 0.73150 0.24900
C 	C 	0.83630 0.32740 0.80760 -0.17500
C 	C 	0.89260 0.34660 0.85470 0.43700
C 	C 	0.62430 0.51840 0.48890 0.44600
C 	C 	0.67590 0.50540 0.46000 -0.17900
C 	C 	0.74740 0.51030 0.48480 0.10800
H 	H 	0.76290 0.51950 0.51990 0.02000
C 	C 	0.79620 0.50160 0.45840 -0.19900
C 	C 	0.87300 0.50370 0.48620 0.50800
C 	C 	0.77290 0.49130 0.40690 0.05800
H 	H 	0.80640 0.48760 0.38870 0.01500
C 	C 	0.70040 0.48620 0.38110 -0.07200
C 	C 	0.65280 0.49240 0.40890 0.04600
H 	H 	0.60370 0.48770 0.39250 0.01000
C 	C 	0.67470 0.47740 0.32560 0.05400
C 	C 	0.62430 0.46170 0.22110 -0.09600
C 	C 	0.59620 0.45080 0.16530 0.32400
C 	C 	0.72070 0.45600 0.29990 -0.01200
H 	H 	0.76890 0.44630 0.31670 0.04200
C 	C 	0.69310 0.44930 0.24830 -0.02100
H 	H 	0.72460 0.43490 0.23010 0.00200
C 	C 	0.58390 0.49900 0.24680 -0.04500
H 	H 	0.53950 0.51890 0.22880 0.04600
C 	C 	0.60920 0.50660 0.29860 -0.03100
H 	H 	0.58180 0.53180 0.31600 0.03800
O 	O 	0.45620 0.03620 0.64580 -0.70500
N 	N 	0.41930 0.03820 0.71590 -0.25900
C 	C 	0.43710 0.06270 0.67880 0.33400
C 	C 	0.39230 0.07610 0.75120 -0.71300
H 	H 	0.38990 0.12760 0.74340 0.44900
H 	H 	0.34500 0.05830 0.74900 0.15200
H 	H 	0.42360 0.06840 0.78530 0.18800
C 	C 	0.42400 0.96120 0.72110 0.17700
H 	H 	0.44220 0.94090 0.69510 0.06900
H 	H 	0.45500 0.94870 0.75430 0.04600
H 	H 	0.37640 0.94160 0.71730 0.05200
C 	C 	0.42400 0.14580 0.67300 -0.25000
H 	H 	0.43790 0.16330 0.64420 0.39100
H 	H 	0.37380 0.15580 0.66780 0.07900
H 	H 	0.45200 0.17020 0.70350 0.15700
O 	O 	0.45040 0.88770 0.62460 -0.63900
C 	C 	0.77000 0.35900 0.72140 0.07200
H 	H 	0.76150 0.39110 0.69390 0.01500
C 	C 	0.82300 0.37300 0.76580 0.15600
H 	H 	0.85030 0.41570 0.76800 -0.02500
C 	C 	0.80200 0.26500 0.80100 0.60500
H 	H 	0.81410 0.23020 0.82700 -0.16300
C 	C 	0.74900 0.25000 0.75640 0.60200
H 	H 	0.72540 0.20540 0.75340 -0.18500
C 	C 	0.71100 0.45000 0.29400 -0.05800
H 	H 	0.75770 0.43660 0.31110 -0.00100
C 	C 	0.69300 0.43900 0.24250 0.02600
H 	H 	0.72260 0.41840 0.22510 0.01500
C 	C 	0.58260 0.44000 0.24980 0.05400
H 	H 	0.53780 0.41880 0.23510 0.01800
C 	C 	0.60800 0.45100 0.30120 -0.08500
H 	H 	0.57770 0.44010 0.32090 0.06400
O 	O 	0.46300 0.18100 0.67070 -0.64100
C 	C 	0.44190 0.21270 0.70190 0.56000
N 	N 	0.46630 0.27440 0.72170 -0.23300
C 	C 	0.51600 0.31200 0.70220 0.19500
H 	H 	0.52720 0.28460 0.67640 -0.01600
H 	H 	0.55890 0.32200 0.72850 -0.04400
H 	H 	0.49480 0.35650 0.68830 -0.00600
C 	C 	0.44300 0.31700 0.75730 0.05900
H 	H 	0.41150 0.28680 0.76830 0.01200
H 	H 	0.42000 0.36110 0.74470 0.01700
H 	H 	0.48410 0.32650 0.78490 -0.08200
C 	C 	0.38780 0.17100 0.72310 -1.45700
H 	H 	0.37610 0.12730 0.70480 0.41600
H 	H 	0.34570 0.19890 0.71910 0.44700
H 	H 	0.40910 0.16110 0.75800 0.30200
O 	O 	0.36100 0.97200 0.67120 -0.01300
Eu	Eu	0.00549 0.48378 0.58639 2.00600
Eu	Eu	0.04372 0.06882 0.55867 1.54500
O 	O 	0.09230 0.57420 0.63319 -0.41900
O 	O 	0.01180 0.61270 0.56518 -0.41700
O 	O 	0.92350 0.39430 0.60940 0.01500
O 	O 	0.42100 0.79890 0.88500 -0.34300
O 	O 	0.40820 0.91100 0.86130 -0.51300
O 	O 	0.07900 0.94690 0.57450 -0.27700
O 	O 	0.01200 0.87050 0.51850 -0.49700
O 	O 	0.06180 0.99560 0.47140 -0.26700
O 	O 	0.03190 0.96450 0.14340 -0.39700
O 	O 	0.13630 0.93130 0.14120 -0.43100
O 	O 	0.41710 0.00820 0.46260 -0.74800
O 	O 	0.39000 -0.00000 0.53310 -0.82900
O 	O 	0.14490 0.05340 0.52880 -0.47900
C 	C 	0.06470 0.62380 0.60350 0.32000
C 	C 	0.09400 0.69830 0.61390 -0.08200
C 	C 	0.06490 0.75420 0.58160 0.03700
H 	H 	0.02820 0.74500 0.55160 0.03100
C 	C 	0.08940 0.82350 0.59320 -0.09800
C 	C 	0.05630 0.88620 0.55910 0.44700
C 	C 	0.14320 0.83680 0.63730 -0.00500
H 	H 	0.15950 0.88450 0.64520 0.07700
C 	C 	0.17370 0.78080 0.67030 -0.02000
C 	C 	0.14840 0.71160 0.65750 -0.01300
H 	H 	0.16860 0.67270 0.67900 0.03200
C 	C 	0.23040 0.79610 0.71760 0.03300
C 	C 	0.23820 0.86440 0.73860 -0.07000
H 	H 	0.20660 0.90140 0.72250 0.08500
C 	C 	0.29100 0.87980 0.78240 0.01400
H 	H 	0.29600 0.92740 0.79530 0.13300
C 	C 	0.32690 0.75770 0.78860 -0.18700
H 	H 	0.35620 0.72010 0.80640 0.08300
C 	C 	0.27530 0.74260 0.74420 -0.26800
H 	H 	0.27040 0.69490 0.73150 0.11500
C 	C 	0.33630 0.82740 0.80760 -0.12700
C 	C 	0.39260 0.84660 0.85470 0.45600
C 	C 	0.12430 0.01840 0.48890 0.29800
C 	C 	0.17590 0.00540 0.46000 -0.95600
C 	C 	0.24740 0.01030 0.48480 0.70900
H 	H 	0.26290 0.01950 0.51990 -0.22300
C 	C 	0.29620 0.00160 0.45840 -1.06600
C 	C 	0.37300 0.00370 0.48620 0.78000
C 	C 	0.27290 0.99130 0.40690 1.06800
H 	H 	0.30640 0.98760 0.38870 -0.21700
C 	C 	0.20040 0.98620 0.38110 -0.79000
C 	C 	0.15280 0.99240 0.40890 1.04200
H 	H 	0.10370 0.98770 0.39250 -0.25100
C 	C 	0.17470 0.97740 0.32560 0.77900
C 	C 	0.12430 0.96170 0.22110 -0.59800
C 	C 	0.09620 0.95080 0.16530 0.54200
C 	C 	0.22070 0.95600 0.29990 0.01900
H 	H 	0.26890 0.94630 0.31670 0.07900
C 	C 	0.19310 0.94930 0.24830 0.01600
H 	H 	0.22460 0.93490 0.23010 -0.03000
C 	C 	0.08390 0.99900 0.24680 -4.55800
H 	H 	0.03950 0.01890 0.22880 1.29100
C 	C 	0.10920 0.00660 0.29860 5.20200
H 	H 	0.08180 0.03180 0.31600 -1.85300
O 	O 	0.95620 0.53620 0.64580 -0.44200
N 	N 	0.91930 0.53820 0.71590 -0.01200
C 	C 	0.93710 0.56270 0.67880 0.25700
C 	C 	0.89230 0.57610 0.75120 -0.96000
H 	H 	0.88990 0.62760 0.74340 0.57200
H 	H 	0.84500 0.55830 0.74900 0.30000
H 	H 	0.92360 0.56840 0.78530 0.31900
C 	C 	0.92400 0.46120 0.72110 -0.27400
H 	H 	0.94220 0.44090 0.69510 0.14800
H 	H 	0.95500 0.44870 0.75430 0.11200
H 	H 	0.87640 0.44160 0.71730 0.15600
C 	C 	0.92400 0.64580 0.67300 -0.13500
H 	H 	0.93790 0.66330 0.64420 0.39100
H 	H 	0.87380 0.65580 0.66780 0.06200
H 	H 	0.95200 0.67020 0.70350 0.09900
O 	O 	0.95040 0.38770 0.62460 -0.32300
C 	C 	0.27000 0.85900 0.72140 -0.02300
H 	H 	0.26150 0.89110 0.69390 0.07900
C 	C 	0.32300 0.87300 0.76580 0.00200
H 	H 	0.35030 0.91570 0.76800 0.07200
C 	C 	0.30200 0.76500 0.80100 0.20800
H 	H 	0.31410 0.73020 0.82700 -0.04000
C 	C 	0.24900 0.75000 0.75640 0.18000
H 	H 	0.22540 0.70540 0.75340 -0.06600
C 	C 	0.21100 0.95000 0.29400 -0.18400
H 	H 	0.25770 0.93660 0.31110 0.02200
C 	C 	0.19300 0.93900 0.24250 0.20400
H 	H 	0.22260 0.91840 0.22510 0.00800
C 	C 	0.08260 0.94000 0.24980 5.86600
H 	H 	0.03780 0.91880 0.23510 -1.85100
C 	C 	0.10800 0.95100 0.30120 -6.22100
H 	H 	0.07770 0.94010 0.32090 2.10400
O 	O 	0.96300 0.68100 0.67070 -0.69500
C 	C 	0.94190 0.71270 0.70190 0.68600
N 	N 	0.96630 0.77440 0.72170 -0.24600
C 	C 	0.01600 0.81200 0.70220 0.20100
H 	H 	0.02720 0.78460 0.67640 -0.01400
H 	H 	0.05890 0.82200 0.72850 -0.04200
H 	H 	0.99480 0.85650 0.68830 0.00400
C 	C 	0.94300 0.81700 0.75730 0.03800
H 	H 	0.91150 0.78680 0.76830 0.02500
H 	H 	0.92000 0.86110 0.74470 0.06600
H 	H 	0.98410 0.82650 0.78490 -0.07700
C 	C 	0.88780 0.67100 0.72310 -1.70100
H 	H 	0.87610 0.62730 0.70480 0.49100
H 	H 	0.84570 0.69890 0.71910 0.53800
H 	H 	0.90910 0.66110 0.75800 0.33200
O 	O 	0.86100 0.47200 0.67120 -0.17100
Eu	Eu	0.49451 0.98378 0.91361 2.85700
Eu	Eu	0.45628 0.56882 0.94133 1.83400
O 	O 	0.40770 0.07420 0.86681 -0.59400
O 	O 	0.48820 0.11270 0.93482 -0.55300
O 	O 	0.57650 0.89430 0.89060 0.35300
O 	O 	0.07900 0.29890 0.61500 -0.33800
O 	O 	0.09180 0.41100 0.63870 -0.50700
O 	O 	0.42100 0.44690 0.92550 -0.47500
O 	O 	0.48800 0.37050 0.98150 -0.52000
O 	O 	0.43820 0.49560 0.02860 -0.55200
O 	O 	0.46810 0.46450 0.35660 -0.41000
O 	O 	0.36370 0.43130 0.35880 -0.41800
O 	O 	0.08290 0.50820 0.03740 -0.57000
O 	O 	0.11000 0.50000 0.96690 -0.52100
O 	O 	0.35510 0.55340 0.97120 -0.46500
C 	C 	0.43530 0.12380 0.89650 0.34300
C 	C 	0.40600 0.19830 0.88610 -0.11600
C 	C 	0.43510 0.25420 0.91840 0.05700
H 	H 	0.47180 0.24500 0.94840 0.01800
C 	C 	0.41060 0.32350 0.90680 -0.14500
C 	C 	0.44370 0.38620 0.94090 0.46800
C 	C 	0.35680 0.33680 0.86270 0.01600
H 	H 	0.34050 0.38450 0.85480 0.03800
C 	C 	0.32630 0.28080 0.82970 -0.03700
C 	C 	0.35160 0.21160 0.84250 -0.00200
H 	H 	0.33140 0.17270 0.82100 0.02300
C 	C 	0.26960 0.29610 0.78240 0.01900
C 	C 	0.26180 0.36440 0.76140 -0.20000
H 	H 	0.29340 0.40140 0.77750 0.09100
C 	C 	0.20900 0.37980 0.71760 -0.11600
H 	H 	0.20400 0.42740 0.70470 0.06400
C 	C 	0.17310 0.25770 0.71140 -0.59900
H 	H 	0.14380 0.22010 0.69360 0.23900
C 	C 	0.22470 0.24260 0.75580 -0.70500
H 	H 	0.22960 0.19490 0.76850 0.25500
C 	C 	0.16370 0.32740 0.69240 -0.17600
C 	C 	0.10740 0.34660 0.64530 0.43800
C 	C 	0.37570 0.51840 0.01110 0.44400
C 	C 	0.32410 0.50540 0.04000 -0.17600
C 	C 	0.25260 0.51030 0.01520 0.10300
H 	H 	0.23710 0.51950 0.98010 0.02200
C 	C 	0.20380 0.50160 0.04160 -0.19600
C 	C 	0.12700 0.50370 0.01380 0.50400
C 	C 	0.22710 0.49130 0.09310 0.05600
H 	H 	0.19360 0.48760 0.11130 0.01500
C 	C 	0.29960 0.48620 0.11890 -0.07100
C 	C 	0.34720 0.49240 0.09110 0.04500
H 	H 	0.39630 0.48770 0.10750 0.01100
C 	C 	0.32530 0.47740 0.17440 0.05400
C 	C 	0.37570 0.46170 0.27890 -0.09500
C 	C 	0.40380 0.45080 0.33470 0.32400
C 	C 	0.27930 0.45600 0.20010 -0.01200
H 	H 	0.23110 0.44630 0.18330 0.04200
C 	C 	0.30690 0.44930 0.25170 -0.02100
H 	H 	0.27540 0.43490 0.26990 0.00200
C 	C 	0.41610 0.49900 0.25320 -0.04500
H 	H 	0.46050 0.51890 0.27120 0.04600
C 	C 	0.39080 0.50660 0.20140 -0.03100
H 	H 	0.41820 0.53180 0.18400 0.03800
O 	O 	0.54380 0.03620 0.85420 -0.70200
N 	N 	0.58070 0.03820 0.78410 -0.25900
C 	C 	0.56290 0.06270 0.82120 0.33300
C 	C 	0.60770 0.07610 0.74880 -0.71300
H 	H 	0.61010 0.12760 0.75660 0.44900
H 	H 	0.65500 0.05830 0.75100 0.15200
H 	H 	0.57640 0.06840 0.71470 0.18800
C 	C 	0.57600 0.96120 0.77890 0.17700
H 	H 	0.55780 0.94090 0.80490 0.06900
H 	H 	0.54500 0.94870 0.74570 0.04700
H 	H 	0.62360 0.94160 0.78270 0.05200
C 	C 	0.57600 0.14580 0.82700 -0.24900
H 	H 	0.56210 0.16330 0.85580 0.39100
H 	H 	0.62620 0.15580 0.83220 0.07800
H 	H 	0.54800 0.17020 0.79650 0.15600
O 	O 	0.54960 0.88770 0.87540 -0.63400
C 	C 	0.23000 0.35900 0.77860 0.07600
H 	H 	0.23850 0.39110 0.80610 0.01300
C 	C 	0.17700 0.37300 0.73420 0.16000
H 	H 	0.14970 0.41570 0.73200 -0.02600
C 	C 	0.19800 0.26500 0.69900 0.62200
H 	H 	0.18590 0.23020 0.67300 -0.16800
C 	C 	0.25100 0.25000 0.74360 0.62000
H 	H 	0.27460 0.20540 0.74660 -0.19000
C 	C 	0.28900 0.45000 0.20600 -0.05800
H 	H 	0.24230 0.43660 0.18890 -0.00100
C 	C 	0.30700 0.43900 0.25750 0.02600
H 	H 	0.27740 0.41840 0.27490 0.01500
C 	C 	0.41740 0.44000 0.25020 0.05300
H 	H 	0.46220 0.41880 0.26490 0.01800
C 	C 	0.39200 0.45100 0.19880 -0.08500
H 	H 	0.42230 0.44010 0.17910 0.06400
O 	O 	0.53700 0.18100 0.82930 -0.64200
C 	C 	0.55810 0.21270 0.79810 0.56100
N 	N 	0.53370 0.27440 0.77830 -0.23300
C 	C 	0.48400 0.31200 0.79780 0.19500
H 	H 	0.47280 0.28460 0.82360 -0.01600
H 	H 	0.44110 0.32200 0.77150 -0.04400
H 	H 	0.50520 0.35650 0.81170 -0.00600
C 	C 	0.55700 0.31700 0.74270 0.05900
H 	H 	0.58850 0.28680 0.73170 0.01200
H 	H 	0.58000 0.36110 0.75530 0.01700
H 	H 	0.51590 0.32650 0.71510 -0.08200
C 	C 	0.61220 0.17100 0.77690 -1.45900
H 	H 	0.62390 0.12730 0.79520 0.41700
H 	H 	0.65430 0.19890 0.78090 0.44800
H 	H 	0.59090 0.16110 0.74200 0.30300
O 	O 	0.63900 0.97200 0.82880 -0.01400
Eu	Eu	0.99451 0.48378 0.91361 2.00100
Eu	Eu	0.95628 0.06882 0.94133 1.54600
O 	O 	0.90770 0.57420 0.86681 -0.41900
O 	O 	0.98820 0.61270 0.93482 -0.41800
O 	O 	0.07650 0.39430 0.89060 0.01300
O 	O 	0.57900 0.79890 0.61500 -0.34200
O 	O 	0.59180 0.91100 0.63870 -0.51300
O 	O 	0.92100 0.94690 0.92550 -0.27900
O 	O 	0.98800 0.87050 0.98150 -0.49900
O 	O 	0.93820 0.99560 0.02860 -0.26600
O 	O 	0.96810 0.96450 0.35660 -0.39600
O 	O 	0.86370 0.93130 0.35880 -0.43100
O 	O 	0.58290 0.00820 0.03740 -0.74700
O 	O 	0.61000 0.00000 0.96690 -0.82400
O 	O 	0.85510 0.05340 0.97120 -0.47800
C 	C 	0.93530 0.62380 0.89650 0.32000
C 	C 	0.90600 0.69830 0.88610 -0.08300
C 	C 	0.93510 0.75420 0.91840 0.03800
H 	H 	0.97180 0.74500 0.94840 0.03000
C 	C 	0.91060 0.82350 0.90680 -0.09900
C 	C 	0.94370 0.88620 0.94090 0.44800
C 	C 	0.85680 0.83680 0.86270 -0.00500
H 	H 	0.84050 0.88450 0.85480 0.07700
C 	C 	0.82630 0.78080 0.82970 -0.02000
C 	C 	0.85160 0.71160 0.84250 -0.01300
H 	H 	0.83140 0.67270 0.82100 0.03200
C 	C 	0.76960 0.79610 0.78240 0.03400
C 	C 	0.76180 0.86440 0.76140 -0.06700
H 	H 	0.79340 0.90140 0.77750 0.08400
C 	C 	0.70900 0.87980 0.71760 0.01600
H 	H 	0.70400 0.92740 0.70470 0.13300
C 	C 	0.67310 0.75770 0.71140 -0.17800
H 	H 	0.64380 0.72010 0.69360 0.08100
C 	C 	0.72470 0.74260 0.75580 -0.25900
H 	H 	0.72960 0.69490 0.76850 0.11100
C 	C 	0.66370 0.82740 0.69240 -0.12700
C 	C 	0.60740 0.84660 0.64530 0.45700
C 	C 	0.87570 0.01840 0.01110 0.29700
C 	C 	0.82410 0.00540 0.04000 -0.95200
C 	C 	0.75260 0.01030 0.01520 0.70400
H 	H 	0.73710 0.01950 0.98010 -0.22000
C 	C 	0.70380 0.00160 0.04160 -1.06200
C 	C 	0.62700 0.00370 0.01380 0.77600
C 	C 	0.72710 0.99130 0.09310 1.06500
H 	H 	0.69360 0.98760 0.11130 -0.21600
C 	C 	0.79960 0.98620 0.11890 -0.78800
C 	C 	0.84720 0.99240 0.09110 1.03900
H 	H 	0.89630 0.98770 0.10750 -0.25000
C 	C 	0.82530 0.97740 0.17440 0.77800
C 	C 	0.87570 0.96170 0.27890 -0.59700
C 	C 	0.90380 0.95080 0.33470 0.54100
C 	C 	0.77930 0.95600 0.20010 0.01900
H 	H 	0.73110 0.94630 0.18330 0.07800
C 	C 	0.80690 0.94930 0.25170 0.01600
H 	H 	0.77540 0.93490 0.26990 -0.03000
C 	C 	0.91610 0.99900 0.25320 -4.55600
H 	H 	0.96050 0.01890 0.27120 1.29100
C 	C 	0.89080 0.00660 0.20140 5.19900
H 	H 	0.91820 0.03180 0.18400 -1.85100
O 	O 	0.04380 0.53620 0.85420 -0.44100
N 	N 	0.08070 0.53820 0.78410 -0.01200
C 	C 	0.06290 0.56270 0.82120 0.25800
C 	C 	0.10770 0.57610 0.74880 -0.96000
H 	H 	0.11010 0.62760 0.75660 0.57200
H 	H 	0.15500 0.55830 0.75100 0.30000
H 	H 	0.07640 0.56840 0.71470 0.31900
C 	C 	0.07600 0.46120 0.77890 -0.27500
H 	H 	0.05780 0.44090 0.80490 0.14900
H 	H 	0.04500 0.44870 0.74570 0.11300
H 	H 	0.12360 0.44160 0.78270 0.15700
C 	C 	0.07600 0.64580 0.82700 -0.13700
H 	H 	0.06210 0.66330 0.85580 0.39100
H 	H 	0.12620 0.65580 0.83220 0.06300
H 	H 	0.04800 0.67020 0.79650 0.10000
O 	O 	0.04960 0.38770 0.87540 -0.32000
C 	C 	0.73000 0.85900 0.77860 -0.02500
H 	H 	0.73850 0.89110 0.80610 0.08000
C 	C 	0.67700 0.87300 0.73420 -0.00100
H 	H 	0.64970 0.91570 0.73200 0.07200
C 	C 	0.69800 0.76500 0.69900 0.19800
H 	H 	0.68590 0.73020 0.67300 -0.03800
C 	C 	0.75100 0.75000 0.74360 0.17000
H 	H 	0.77460 0.70540 0.74660 -0.06300
C 	C 	0.78900 0.95000 0.20600 -0.18400
H 	H 	0.74230 0.93660 0.18890 0.02200
C 	C 	0.80700 0.93900 0.25750 0.20400
H 	H 	0.77740 0.91840 0.27490 0.00800
C 	C 	0.91740 0.94000 0.25020 5.86200
H 	H 	0.96220 0.91880 0.26490 -1.84900
C 	C 	0.89200 0.95100 0.19880 -6.21700
H 	H 	0.92230 0.94010 0.17910 2.10300
O 	O 	0.03700 0.68100 0.82930 -0.69400
C 	C 	0.05810 0.71270 0.79810 0.68500
N 	N 	0.03370 0.77440 0.77830 -0.24500
C 	C 	0.98400 0.81200 0.79780 0.20200
H 	H 	0.97280 0.78460 0.82360 -0.01500
H 	H 	0.94110 0.82200 0.77150 -0.04200
H 	H 	0.00520 0.85650 0.81170 0.00600
C 	C 	0.05700 0.81700 0.74270 0.03800
H 	H 	0.08850 0.78680 0.73170 0.02600
H 	H 	0.08000 0.86110 0.75530 0.06600
H 	H 	0.01590 0.82650 0.71510 -0.07500
C 	C 	0.11220 0.67100 0.77690 -1.69900
H 	H 	0.12390 0.62730 0.79520 0.49100
H 	H 	0.15430 0.69890 0.78090 0.53800
H 	H 	0.09090 0.66110 0.74200 0.33200
O 	O 	0.13900 0.47200 0.82880 -0.17100
