data_crystal

_cell_length_a 19.74270
_cell_length_b 18.43300
_cell_length_c 27.89810
_cell_angle_alpha 90.00000
_cell_angle_beta  107.33300
_cell_angle_gamma 90.00000

_symmetry_space_group_name_	'P 1'
_symmetry_space_group_name_H-M	'P 1'

loop_
_symmetry_equiv_pos_as_xyz
  x,y,z

loop_
_atom_site_label
_atom_site_type_symbol
_atom_site_fract_x
_atom_site_fract_y
_atom_site_fract_z
_atom_site_charge
Tb	Tb	0.49663 0.01839 0.41330 2.01900
Tb	Tb	0.45337 0.42854 0.44171 1.78400
O 	O 	0.41180 0.92800 0.36643 -0.37000
O 	O 	0.49080 0.88960 0.43520 -0.41100
O 	O 	0.58170 0.11000 0.39580 0.24000
O 	O 	0.08900 0.69900 0.11110 -0.34400
O 	O 	0.08690 0.58970 0.14010 -0.49400
O 	O 	0.42670 0.54990 0.42500 -0.47400
O 	O 	0.49450 0.62720 0.48070 -0.52100
O 	O 	0.43770 0.51620 0.53140 -0.53700
O 	O 	0.46720 0.54870 0.85770 -0.41000
O 	O 	0.36010 0.56830 0.86090 -0.41500
O 	O 	0.08260 0.48860 0.54090 -0.56700
O 	O 	0.10710 0.50180 0.46940 -0.55000
O 	O 	0.35710 0.45270 0.47390 -0.46300
C 	C 	0.43880 0.87760 0.39670 0.32900
C 	C 	0.40910 0.80220 0.38610 -0.10100
C 	C 	0.43850 0.74500 0.41870 0.06300
H 	H 	0.47530 0.75470 0.44880 0.01800
C 	C 	0.41490 0.67470 0.40750 -0.16100
C 	C 	0.44870 0.61300 0.44040 0.47400
C 	C 	0.35840 0.66140 0.36280 0.03000
H 	H 	0.34210 0.61320 0.35450 0.03000
C 	C 	0.32700 0.71810 0.33120 -0.05900
C 	C 	0.35320 0.78820 0.34350 -0.00100
H 	H 	0.33220 0.82740 0.32200 0.01300
C 	C 	0.26910 0.70380 0.28350 0.06100
C 	C 	0.25780 0.63460 0.26450 -0.06300
H 	H 	0.28570 0.59600 0.28270 0.05000
C 	C 	0.20670 0.62000 0.21940 0.01100
H 	H 	0.20140 0.57180 0.20680 0.03700
C 	C 	0.16790 0.74250 0.21120 0.04100
H 	H 	0.13580 0.77880 0.19390 0.01100
C 	C 	0.22070 0.75850 0.25620 -0.08700
H 	H 	0.22460 0.80660 0.26900 0.05800
C 	C 	0.16380 0.67300 0.19270 -0.14500
C 	C 	0.10790 0.65420 0.14500 0.43000
C 	C 	0.37650 0.49030 0.51390 0.45100
C 	C 	0.32420 0.50060 0.54230 -0.18100
C 	C 	0.25210 0.49310 0.51720 0.11300
H 	H 	0.23700 0.48300 0.48220 0.01200
C 	C 	0.20250 0.50030 0.54310 -0.20400
C 	C 	0.12560 0.49720 0.51610 0.52300
C 	C 	0.22640 0.51170 0.59570 0.05800
H 	H 	0.19290 0.51510 0.61400 0.01800
C 	C 	0.29850 0.51800 0.62090 -0.07100
C 	C 	0.34670 0.51410 0.59360 0.04700
H 	H 	0.39580 0.52080 0.61020 0.01500
C 	C 	0.32480 0.52850 0.67650 0.05800
C 	C 	0.37400 0.54420 0.78070 -0.08400
C 	C 	0.40120 0.55490 0.83670 0.32800
C 	C 	0.27410 0.53390 0.70340 -0.02200
H 	H 	0.22470 0.53360 0.68620 0.03500
C 	C 	0.29920 0.53990 0.75670 0.03300
H 	H 	0.26680 0.54110 0.77600 0.03700
C 	C 	0.41660 0.50490 0.75590 0.05500
H 	H 	0.46010 0.48320 0.77470 0.01300
C 	C 	0.39270 0.49880 0.70240 -0.13600
H 	H 	0.42100 0.47580 0.68470 0.07500
O 	O 	0.54990 0.96420 0.35670 -0.47400
N 	N 	0.57350 0.96290 0.28250 -0.56000
C 	C 	0.56130 0.93180 0.32200 0.50500
C 	C 	0.59890 0.92150 0.24550 3.07900
H 	H 	0.60100 0.86970 0.25390 -2.94600
H 	H 	0.64640 0.93850 0.24650 -0.89000
H 	H 	0.56620 0.92880 0.21180 -0.91100
C 	C 	0.55030 0.04040 0.27560 0.06900
H 	H 	0.53170 0.05490 0.30300 0.03300
H 	H 	0.59090 0.07110 0.27580 0.00500
C 	C 	0.58410 0.84710 0.32140 0.13500
H 	H 	0.57320 0.82130 0.34890 0.93700
H 	H 	0.63510 0.84390 0.32570 -0.22800
H 	H 	0.55770 0.82510 0.28930 -0.49300
O 	O 	0.55660 0.10960 0.37870 -0.55600
C 	C 	0.23020 0.64040 0.27970 -0.05700
H 	H 	0.23920 0.60720 0.30690 0.04900
C 	C 	0.17710 0.62670 0.23450 0.01900
H 	H 	0.14880 0.58430 0.23210 0.02900
C 	C 	0.20500 0.73530 0.19970 -0.00400
H 	H 	0.19640 0.76910 0.17280 0.02900
C 	C 	0.25810 0.75100 0.24390 -0.03700
H 	H 	0.28630 0.79350 0.24650 0.04200
C 	C 	0.28390 0.55630 0.70630 -0.06500
H 	H 	0.23630 0.57070 0.69020 0.05000
C 	C 	0.30850 0.56300 0.75410 -0.03500
H 	H 	0.27800 0.58240 0.77160 0.03900
C 	C 	0.41410 0.56490 0.75280 -0.05900
H 	H 	0.45930 0.58540 0.76870 0.04900
C 	C 	0.39220 0.55750 0.70080 0.01500
H 	H 	0.42250 0.57200 0.68180 0.02700
O 	O 	0.54550 0.82390 0.33260 -1.46500
C 	C 	0.56170 0.79210 0.29910 0.89100
N 	N 	0.53930 0.72800 0.27760 -0.31500
C 	C 	0.48100 0.68930 0.29060 0.06500
H 	H 	0.46980 0.71690 0.31640 0.02200
H 	H 	0.43810 0.67950 0.26430 -0.04200
H 	H 	0.50220 0.64500 0.30450 0.01800
C 	C 	0.56700 0.69900 0.23720 0.07900
H 	H 	0.59870 0.72880 0.22610 -0.07300
H 	H 	0.59020 0.65450 0.24980 0.01900
H 	H 	0.52600 0.68900 0.20950 -0.03500
C 	C 	0.61860 0.83530 0.27780 0.95100
H 	H 	0.63020 0.87940 0.29610 -0.00700
H 	H 	0.66060 0.80780 0.28180 -0.38000
H 	H 	0.59730 0.84560 0.24280 1.79700
H 	H 	0.51320 0.04590 0.24350 -0.00900
Tb	Tb	0.99663 0.51839 0.41330 2.02000
Tb	Tb	0.95337 0.92854 0.44171 1.78500
O 	O 	0.91180 0.42800 0.36643 -0.37100
O 	O 	0.99080 0.38960 0.43520 -0.41200
O 	O 	0.08170 0.61000 0.39580 0.23900
O 	O 	0.58900 0.19900 0.11110 -0.34500
O 	O 	0.58690 0.08970 0.14010 -0.49500
O 	O 	0.92670 0.04990 0.42500 -0.47500
O 	O 	0.99450 0.12720 0.48070 -0.52200
O 	O 	0.93770 0.01620 0.53140 -0.53800
O 	O 	0.96720 0.04870 0.85770 -0.41200
O 	O 	0.86010 0.06830 0.86090 -0.41600
O 	O 	0.58260 0.98860 0.54090 -0.56800
O 	O 	0.60710 0.00180 0.46940 -0.55100
O 	O 	0.85710 0.95270 0.47390 -0.46400
C 	C 	0.93880 0.37760 0.39670 0.32800
C 	C 	0.90910 0.30220 0.38610 -0.10100
C 	C 	0.93850 0.24500 0.41870 0.06300
H 	H 	0.97530 0.25470 0.44880 0.01900
C 	C 	0.91490 0.17470 0.40750 -0.16100
C 	C 	0.94870 0.11300 0.44040 0.47400
C 	C 	0.85840 0.16140 0.36280 0.03000
H 	H 	0.84210 0.11320 0.35450 0.03000
C 	C 	0.82700 0.21810 0.33120 -0.05900
C 	C 	0.85320 0.28820 0.34350 -0.00100
H 	H 	0.83220 0.32740 0.32200 0.01300
C 	C 	0.76910 0.20380 0.28350 0.06100
C 	C 	0.75780 0.13460 0.26450 -0.06300
H 	H 	0.78570 0.09600 0.28270 0.05000
C 	C 	0.70670 0.12000 0.21940 0.01100
H 	H 	0.70140 0.07180 0.20680 0.03600
C 	C 	0.66790 0.24250 0.21120 0.04100
H 	H 	0.63580 0.27880 0.19390 0.01200
C 	C 	0.72070 0.25850 0.25620 -0.08700
H 	H 	0.72460 0.30660 0.26900 0.05800
C 	C 	0.66380 0.17300 0.19270 -0.14500
C 	C 	0.60790 0.15420 0.14500 0.43000
C 	C 	0.87650 0.99030 0.51390 0.45200
C 	C 	0.82420 0.00060 0.54230 -0.18200
C 	C 	0.75210 0.99310 0.51720 0.11300
H 	H 	0.73700 0.98300 0.48220 0.01200
C 	C 	0.70250 0.00030 0.54310 -0.20400
C 	C 	0.62560 0.99720 0.51610 0.52300
C 	C 	0.72640 0.01170 0.59570 0.05800
H 	H 	0.69290 0.01510 0.61400 0.01800
C 	C 	0.79850 0.01800 0.62090 -0.07300
C 	C 	0.84670 0.01410 0.59360 0.04800
H 	H 	0.89580 0.02080 0.61020 0.01400
C 	C 	0.82480 0.02850 0.67650 0.06100
C 	C 	0.87400 0.04420 0.78070 -0.09000
C 	C 	0.90120 0.05490 0.83670 0.33000
C 	C 	0.77410 0.03390 0.70340 -0.02200
H 	H 	0.72470 0.03360 0.68620 0.03500
C 	C 	0.79920 0.03990 0.75670 0.03300
H 	H 	0.76680 0.04110 0.77600 0.03700
C 	C 	0.91660 0.00490 0.75590 0.02900
H 	H 	0.96010 0.98320 0.77470 0.02100
C 	C 	0.89270 0.99880 0.70240 -0.10700
H 	H 	0.92100 0.97580 0.68470 0.06500
O 	O 	0.04990 0.46420 0.35670 -0.47500
N 	N 	0.07350 0.46290 0.28250 -0.56100
C 	C 	0.06130 0.43180 0.32200 0.50500
C 	C 	0.09890 0.42150 0.24550 3.07800
H 	H 	0.10100 0.36970 0.25390 -2.94500
H 	H 	0.14640 0.43850 0.24650 -0.89000
H 	H 	0.06620 0.42880 0.21180 -0.91100
C 	C 	0.05030 0.54040 0.27560 0.07100
H 	H 	0.03170 0.55490 0.30300 0.03200
H 	H 	0.09090 0.57110 0.27580 0.00400
C 	C 	0.08410 0.34710 0.32140 0.13600
H 	H 	0.07320 0.32130 0.34890 0.93800
H 	H 	0.13510 0.34390 0.32570 -0.22800
H 	H 	0.05770 0.32510 0.28930 -0.49300
O 	O 	0.05660 0.60960 0.37870 -0.55700
C 	C 	0.73020 0.14040 0.27970 -0.05700
H 	H 	0.73920 0.10720 0.30690 0.04900
C 	C 	0.67710 0.12670 0.23450 0.02000
H 	H 	0.64880 0.08430 0.23210 0.02900
C 	C 	0.70500 0.23530 0.19970 -0.00400
H 	H 	0.69640 0.26910 0.17280 0.02900
C 	C 	0.75810 0.25100 0.24390 -0.03700
H 	H 	0.78630 0.29350 0.24650 0.04200
C 	C 	0.78390 0.05630 0.70630 -0.06600
H 	H 	0.73630 0.07070 0.69020 0.05100
C 	C 	0.80850 0.06300 0.75410 -0.03300
H 	H 	0.77800 0.08240 0.77160 0.03800
C 	C 	0.91410 0.06490 0.75280 -0.02600
H 	H 	0.95930 0.08540 0.76870 0.03800
C 	C 	0.89220 0.05750 0.70080 -0.01800
H 	H 	0.92250 0.07200 0.68180 0.03800
O 	O 	0.04550 0.32390 0.33260 -1.46600
C 	C 	0.06170 0.29210 0.29910 0.89200
N 	N 	0.03930 0.22800 0.27760 -0.31600
C 	C 	0.98100 0.18930 0.29060 0.06400
H 	H 	0.96980 0.21690 0.31640 0.02300
H 	H 	0.93810 0.17950 0.26430 -0.04200
H 	H 	0.00220 0.14500 0.30450 0.01700
C 	C 	0.06700 0.19900 0.23720 0.07900
H 	H 	0.09870 0.22880 0.22610 -0.07300
H 	H 	0.09020 0.15450 0.24980 0.01900
H 	H 	0.02600 0.18900 0.20950 -0.03600
C 	C 	0.11860 0.33530 0.27780 0.95000
H 	H 	0.13020 0.37940 0.29610 -0.00700
H 	H 	0.16060 0.30780 0.28180 -0.38000
H 	H 	0.09730 0.34560 0.24280 1.79600
H 	H 	0.01320 0.54590 0.24350 -0.01100
Tb	Tb	0.50337 0.01839 0.08670 2.01300
Tb	Tb	0.54663 0.42854 0.05829 1.78200
O 	O 	0.58820 0.92800 0.13357 -0.37000
O 	O 	0.50920 0.88960 0.06480 -0.41000
O 	O 	0.41830 0.11000 0.10420 0.23500
O 	O 	0.91100 0.69900 0.38890 -0.34500
O 	O 	0.91310 0.58970 0.35990 -0.49500
O 	O 	0.57330 0.54990 0.07500 -0.47500
O 	O 	0.50550 0.62720 0.01930 -0.52200
O 	O 	0.56230 0.51620 0.96860 -0.53800
O 	O 	0.53280 0.54870 0.64230 -0.41100
O 	O 	0.63990 0.56830 0.63910 -0.41600
O 	O 	0.91740 0.48860 0.95910 -0.56700
O 	O 	0.89290 0.50180 0.03060 -0.54800
O 	O 	0.64290 0.45270 0.02610 -0.46300
C 	C 	0.56120 0.87760 0.10330 0.32700
C 	C 	0.59090 0.80220 0.11390 -0.10100
C 	C 	0.56150 0.74500 0.08130 0.06300
H 	H 	0.52470 0.75470 0.05120 0.01900
C 	C 	0.58510 0.67470 0.09250 -0.16100
C 	C 	0.55130 0.61300 0.05960 0.47400
C 	C 	0.64160 0.66140 0.13720 0.03000
H 	H 	0.65790 0.61320 0.14550 0.03000
C 	C 	0.67300 0.71810 0.16880 -0.05800
C 	C 	0.64680 0.78820 0.15650 -0.00100
H 	H 	0.66780 0.82740 0.17800 0.01300
C 	C 	0.73090 0.70380 0.21650 0.06100
C 	C 	0.74220 0.63460 0.23550 -0.06300
H 	H 	0.71430 0.59600 0.21730 0.05000
C 	C 	0.79330 0.62000 0.28060 0.01100
H 	H 	0.79860 0.57180 0.29320 0.03700
C 	C 	0.83210 0.74250 0.28880 0.04100
H 	H 	0.86420 0.77880 0.30610 0.01200
C 	C 	0.77930 0.75850 0.24380 -0.08700
H 	H 	0.77540 0.80660 0.23100 0.05800
C 	C 	0.83620 0.67300 0.30730 -0.14500
C 	C 	0.89210 0.65420 0.35500 0.43000
C 	C 	0.62350 0.49030 0.98610 0.45000
C 	C 	0.67580 0.50060 0.95770 -0.18000
C 	C 	0.74790 0.49310 0.98280 0.10900
H 	H 	0.76300 0.48300 0.01780 0.01400
C 	C 	0.79750 0.50030 0.95690 -0.20200
C 	C 	0.87440 0.49720 0.98390 0.51900
C 	C 	0.77360 0.51170 0.90430 0.05600
H 	H 	0.80710 0.51510 0.88600 0.01900
C 	C 	0.70150 0.51800 0.87910 -0.07000
C 	C 	0.65330 0.51410 0.90640 0.04600
H 	H 	0.60420 0.52080 0.88980 0.01500
C 	C 	0.67520 0.52850 0.82350 0.05700
C 	C 	0.62600 0.54420 0.71930 -0.08400
C 	C 	0.59880 0.55490 0.66330 0.32800
C 	C 	0.72590 0.53390 0.79660 -0.02100
H 	H 	0.77530 0.53360 0.81380 0.03500
C 	C 	0.70080 0.53990 0.74330 0.03300
H 	H 	0.73320 0.54110 0.72400 0.03700
C 	C 	0.58340 0.50490 0.74410 0.05500
H 	H 	0.53990 0.48320 0.72530 0.01300
C 	C 	0.60730 0.49880 0.79760 -0.13500
H 	H 	0.57900 0.47580 0.81530 0.07500
O 	O 	0.45010 0.96420 0.14330 -0.47300
N 	N 	0.42650 0.96290 0.21750 -0.56000
C 	C 	0.43870 0.93180 0.17800 0.50500
C 	C 	0.40110 0.92150 0.25450 3.07900
H 	H 	0.39900 0.86970 0.24610 -2.94600
H 	H 	0.35360 0.93850 0.25350 -0.89000
H 	H 	0.43380 0.92880 0.28820 -0.91100
C 	C 	0.44970 0.04040 0.22440 0.06800
H 	H 	0.46830 0.05490 0.19700 0.03300
H 	H 	0.40910 0.07110 0.22420 0.00500
C 	C 	0.41590 0.84710 0.17860 0.13600
H 	H 	0.42680 0.82130 0.15110 0.93700
H 	H 	0.36490 0.84390 0.17430 -0.22800
H 	H 	0.44230 0.82510 0.21070 -0.49300
O 	O 	0.44340 0.10960 0.12130 -0.55300
C 	C 	0.76980 0.64040 0.22030 -0.05600
H 	H 	0.76080 0.60720 0.19310 0.04900
C 	C 	0.82290 0.62670 0.26550 0.01900
H 	H 	0.85120 0.58430 0.26790 0.02900
C 	C 	0.79500 0.73530 0.30030 -0.00400
H 	H 	0.80360 0.76910 0.32720 0.02900
C 	C 	0.74190 0.75100 0.25610 -0.03700
H 	H 	0.71370 0.79350 0.25350 0.04200
C 	C 	0.71610 0.55630 0.79370 -0.06400
H 	H 	0.76370 0.57070 0.80980 0.05000
C 	C 	0.69150 0.56300 0.74590 -0.03500
H 	H 	0.72200 0.58240 0.72840 0.03900
C 	C 	0.58590 0.56490 0.74720 -0.05900
H 	H 	0.54070 0.58540 0.73130 0.04900
C 	C 	0.60780 0.55750 0.79920 0.01500
H 	H 	0.57750 0.57200 0.81820 0.02700
O 	O 	0.45450 0.82390 0.16740 -1.46500
C 	C 	0.43830 0.79210 0.20090 0.89100
N 	N 	0.46070 0.72800 0.22240 -0.31500
C 	C 	0.51900 0.68930 0.20940 0.06500
H 	H 	0.53020 0.71690 0.18360 0.02200
H 	H 	0.56190 0.67950 0.23570 -0.04200
H 	H 	0.49780 0.64500 0.19550 0.01800
C 	C 	0.43300 0.69900 0.26280 0.07900
H 	H 	0.40130 0.72880 0.27390 -0.07300
H 	H 	0.40980 0.65450 0.25020 0.01900
H 	H 	0.47400 0.68900 0.29050 -0.03500
C 	C 	0.38140 0.83530 0.22220 0.95100
H 	H 	0.36980 0.87940 0.20390 -0.00700
H 	H 	0.33940 0.80780 0.21820 -0.38000
H 	H 	0.40270 0.84560 0.25720 1.79700
H 	H 	0.48680 0.04590 0.25650 -0.00900
Tb	Tb	0.00337 0.51839 0.08670 2.01500
Tb	Tb	0.04663 0.92854 0.05829 1.78300
O 	O 	0.08820 0.42800 0.13357 -0.37100
O 	O 	0.00920 0.38960 0.06480 -0.41200
O 	O 	0.91830 0.61000 0.10420 0.23700
O 	O 	0.41100 0.19900 0.38890 -0.34500
O 	O 	0.41310 0.08970 0.35990 -0.49500
O 	O 	0.07330 0.04990 0.07500 -0.47700
O 	O 	0.00550 0.12720 0.01930 -0.52400
O 	O 	0.06230 0.01620 0.96860 -0.53100
O 	O 	0.03280 0.04870 0.64230 -0.41100
O 	O 	0.13990 0.06830 0.63910 -0.41600
O 	O 	0.41740 0.98860 0.95910 -0.56700
O 	O 	0.39290 0.00180 0.03060 -0.55000
O 	O 	0.14290 0.95270 0.02610 -0.46000
C 	C 	0.06120 0.37760 0.10330 0.32800
C 	C 	0.09090 0.30220 0.11390 -0.10100
C 	C 	0.06150 0.24500 0.08130 0.06300
H 	H 	0.02470 0.25470 0.05120 0.01800
C 	C 	0.08510 0.17470 0.09250 -0.16200
C 	C 	0.05130 0.11300 0.05960 0.47400
C 	C 	0.14160 0.16140 0.13720 0.03000
H 	H 	0.15790 0.11320 0.14550 0.03000
C 	C 	0.17300 0.21810 0.16880 -0.05900
C 	C 	0.14680 0.28820 0.15650 -0.00100
H 	H 	0.16780 0.32740 0.17800 0.01300
C 	C 	0.23090 0.20380 0.21650 0.06100
C 	C 	0.24220 0.13460 0.23550 -0.06300
H 	H 	0.21430 0.09600 0.21730 0.05000
C 	C 	0.29330 0.12000 0.28060 0.01100
H 	H 	0.29860 0.07180 0.29320 0.03700
C 	C 	0.33210 0.24250 0.28880 0.04100
H 	H 	0.36420 0.27880 0.30610 0.01200
C 	C 	0.27930 0.25850 0.24380 -0.08700
H 	H 	0.27540 0.30660 0.23100 0.05800
C 	C 	0.33620 0.17300 0.30730 -0.14500
C 	C 	0.39210 0.15420 0.35500 0.43000
C 	C 	0.12350 0.99030 0.98610 0.44100
C 	C 	0.17580 0.00060 0.95770 -0.16700
C 	C 	0.24790 0.99310 0.98280 0.09500
H 	H 	0.26300 0.98300 0.01780 0.01900
C 	C 	0.29750 0.00030 0.95690 -0.19100
C 	C 	0.37440 0.99720 0.98390 0.51600
C 	C 	0.27360 0.01170 0.90430 0.05100
H 	H 	0.30710 0.01510 0.88600 0.02100
C 	C 	0.20150 0.01800 0.87910 -0.06600
C 	C 	0.15330 0.01410 0.90640 0.04000
H 	H 	0.10420 0.02080 0.88980 0.01800
C 	C 	0.17520 0.02850 0.82350 0.06000
C 	C 	0.12600 0.04420 0.71930 -0.09200
C 	C 	0.09880 0.05490 0.66330 0.33100
C 	C 	0.22590 0.03390 0.79660 -0.02100
H 	H 	0.27530 0.03360 0.81380 0.03500
C 	C 	0.20080 0.03990 0.74330 0.03300
H 	H 	0.23320 0.04110 0.72400 0.03800
C 	C 	0.08340 0.00490 0.74410 0.01500
H 	H 	0.03990 0.98320 0.72530 0.02600
C 	C 	0.10730 0.99880 0.79760 -0.09200
H 	H 	0.07900 0.97580 0.81530 0.06000
O 	O 	0.95010 0.46420 0.14330 -0.47300
N 	N 	0.92650 0.46290 0.21750 -0.56000
C 	C 	0.93870 0.43180 0.17800 0.50500
C 	C 	0.90110 0.42150 0.25450 3.07600
H 	H 	0.89900 0.36970 0.24610 -2.94300
H 	H 	0.85360 0.43850 0.25350 -0.88900
H 	H 	0.93380 0.42880 0.28820 -0.91000
C 	C 	0.94970 0.54040 0.22440 0.06900
H 	H 	0.96830 0.55490 0.19700 0.03400
H 	H 	0.90910 0.57110 0.22420 0.00500
C 	C 	0.91590 0.34710 0.17860 0.13300
H 	H 	0.92680 0.32130 0.15110 0.93600
H 	H 	0.86490 0.34390 0.17430 -0.22700
H 	H 	0.94230 0.32510 0.21070 -0.49000
O 	O 	0.94340 0.60960 0.12130 -0.55300
C 	C 	0.26980 0.14040 0.22030 -0.05700
H 	H 	0.26080 0.10720 0.19310 0.04900
C 	C 	0.32290 0.12670 0.26550 0.01900
H 	H 	0.35120 0.08430 0.26790 0.02900
C 	C 	0.29500 0.23530 0.30030 -0.00400
H 	H 	0.30360 0.26910 0.32720 0.02900
C 	C 	0.24190 0.25100 0.25610 -0.03700
H 	H 	0.21370 0.29350 0.25350 0.04200
C 	C 	0.21610 0.05630 0.79370 -0.06600
H 	H 	0.26370 0.07070 0.80980 0.05100
C 	C 	0.19150 0.06300 0.74590 -0.03200
H 	H 	0.22200 0.08240 0.72840 0.03800
C 	C 	0.08590 0.06490 0.74720 -0.00900
H 	H 	0.04070 0.08540 0.73130 0.03300
C 	C 	0.10780 0.05750 0.79920 -0.03400
H 	H 	0.07750 0.07200 0.81820 0.04400
O 	O 	0.95450 0.32390 0.16740 -1.46200
C 	C 	0.93830 0.29210 0.20090 0.88800
N 	N 	0.96070 0.22800 0.22240 -0.31500
C 	C 	0.01900 0.18930 0.20940 0.06500
H 	H 	0.03020 0.21690 0.18360 0.02200
H 	H 	0.06190 0.17950 0.23570 -0.04100
H 	H 	0.99780 0.14500 0.19550 0.01900
C 	C 	0.93300 0.19900 0.26280 0.07900
H 	H 	0.90130 0.22880 0.27390 -0.07300
H 	H 	0.90980 0.15450 0.25020 0.01900
H 	H 	0.97400 0.18900 0.29050 -0.03400
C 	C 	0.88140 0.33530 0.22220 0.94900
H 	H 	0.86980 0.37940 0.20390 -0.00700
H 	H 	0.83940 0.30780 0.21820 -0.38000
H 	H 	0.90270 0.34560 0.25720 1.79500
H 	H 	0.98680 0.54590 0.25650 -0.00700
Tb	Tb	0.50337 0.98161 0.58670 2.01800
Tb	Tb	0.54663 0.57146 0.55829 1.78300
O 	O 	0.58820 0.07200 0.63357 -0.37100
O 	O 	0.50920 0.11040 0.56480 -0.41200
O 	O 	0.41830 0.89000 0.60420 0.23900
O 	O 	0.91100 0.30100 0.88890 -0.34500
O 	O 	0.91310 0.41030 0.85990 -0.49500
O 	O 	0.57330 0.45010 0.57500 -0.47500
O 	O 	0.50550 0.37280 0.51930 -0.52200
O 	O 	0.56230 0.48380 0.46860 -0.53800
O 	O 	0.53280 0.45130 0.14230 -0.41100
O 	O 	0.63990 0.43170 0.13910 -0.41600
O 	O 	0.91740 0.51140 0.45910 -0.56800
O 	O 	0.89290 0.49820 0.53060 -0.55100
O 	O 	0.64290 0.54730 0.52610 -0.46400
C 	C 	0.56120 0.12240 0.60330 0.32800
C 	C 	0.59090 0.19780 0.61390 -0.10100
C 	C 	0.56150 0.25500 0.58130 0.06300
H 	H 	0.52470 0.24530 0.55120 0.01800
C 	C 	0.58510 0.32530 0.59250 -0.16100
C 	C 	0.55130 0.38700 0.55960 0.47400
C 	C 	0.64160 0.33860 0.63720 0.03000
H 	H 	0.65790 0.38680 0.64550 0.03000
C 	C 	0.67300 0.28190 0.66880 -0.05900
C 	C 	0.64680 0.21180 0.65650 -0.00100
H 	H 	0.66780 0.17260 0.67800 0.01300
C 	C 	0.73090 0.29620 0.71650 0.06100
C 	C 	0.74220 0.36540 0.73550 -0.06300
H 	H 	0.71430 0.40400 0.71730 0.05000
C 	C 	0.79330 0.38000 0.78060 0.01100
H 	H 	0.79860 0.42820 0.79320 0.03700
C 	C 	0.83210 0.25750 0.78880 0.04100
H 	H 	0.86420 0.22120 0.80610 0.01100
C 	C 	0.77930 0.24150 0.74380 -0.08700
H 	H 	0.77540 0.19340 0.73100 0.05800
C 	C 	0.83620 0.32700 0.80730 -0.14500
C 	C 	0.89210 0.34580 0.85500 0.43000
C 	C 	0.62350 0.50970 0.48610 0.45100
C 	C 	0.67580 0.49940 0.45770 -0.18100
C 	C 	0.74790 0.50690 0.48280 0.11300
H 	H 	0.76300 0.51700 0.51780 0.01200
C 	C 	0.79750 0.49970 0.45690 -0.20400
C 	C 	0.87440 0.50280 0.48390 0.52300
C 	C 	0.77360 0.48830 0.40430 0.05800
H 	H 	0.80710 0.48490 0.38600 0.01800
C 	C 	0.70150 0.48200 0.37910 -0.07100
C 	C 	0.65330 0.48590 0.40640 0.04700
H 	H 	0.60420 0.47920 0.38980 0.01500
C 	C 	0.67520 0.47150 0.32350 0.05800
C 	C 	0.62600 0.45580 0.21930 -0.08400
C 	C 	0.59880 0.44510 0.16330 0.32800
C 	C 	0.72590 0.46610 0.29660 -0.02200
H 	H 	0.77530 0.46640 0.31380 0.03500
C 	C 	0.70080 0.46010 0.24330 0.03300
H 	H 	0.73320 0.45890 0.22400 0.03700
C 	C 	0.58340 0.49510 0.24410 0.05500
H 	H 	0.53990 0.51680 0.22530 0.01300
C 	C 	0.60730 0.50120 0.29760 -0.13600
H 	H 	0.57900 0.52420 0.31530 0.07500
O 	O 	0.45010 0.03580 0.64330 -0.47400
N 	N 	0.42650 0.03710 0.71750 -0.56000
C 	C 	0.43870 0.06820 0.67800 0.50500
C 	C 	0.40110 0.07850 0.75450 3.07900
H 	H 	0.39900 0.13030 0.74610 -2.94600
H 	H 	0.35360 0.06150 0.75350 -0.89000
H 	H 	0.43380 0.07120 0.78820 -0.91100
C 	C 	0.44970 0.95960 0.72440 0.06900
H 	H 	0.46830 0.94510 0.69700 0.03300
H 	H 	0.40910 0.92890 0.72420 0.00500
C 	C 	0.41590 0.15290 0.67860 0.13500
H 	H 	0.42680 0.17870 0.65110 0.93700
H 	H 	0.36490 0.15610 0.67430 -0.22800
H 	H 	0.44230 0.17490 0.71070 -0.49300
O 	O 	0.44340 0.89040 0.62130 -0.55600
C 	C 	0.76980 0.35960 0.72030 -0.05700
H 	H 	0.76080 0.39280 0.69310 0.04900
C 	C 	0.82290 0.37330 0.76550 0.01900
H 	H 	0.85120 0.41570 0.76790 0.02900
C 	C 	0.79500 0.26470 0.80030 -0.00400
H 	H 	0.80360 0.23090 0.82720 0.02900
C 	C 	0.74190 0.24900 0.75610 -0.03700
H 	H 	0.71370 0.20650 0.75350 0.04200
C 	C 	0.71610 0.44370 0.29370 -0.06500
H 	H 	0.76370 0.42930 0.30980 0.05000
C 	C 	0.69150 0.43700 0.24590 -0.03500
H 	H 	0.72200 0.41760 0.22840 0.03900
C 	C 	0.58590 0.43510 0.24720 -0.05900
H 	H 	0.54070 0.41460 0.23130 0.04900
C 	C 	0.60780 0.44250 0.29920 0.01500
H 	H 	0.57750 0.42800 0.31820 0.02700
O 	O 	0.45450 0.17610 0.66740 -1.46500
C 	C 	0.43830 0.20790 0.70090 0.89100
N 	N 	0.46070 0.27200 0.72240 -0.31500
C 	C 	0.51900 0.31070 0.70940 0.06500
H 	H 	0.53020 0.28310 0.68360 0.02200
H 	H 	0.56190 0.32050 0.73570 -0.04200
H 	H 	0.49780 0.35500 0.69550 0.01800
C 	C 	0.43300 0.30100 0.76280 0.07900
H 	H 	0.40130 0.27120 0.77390 -0.07300
H 	H 	0.40980 0.34550 0.75020 0.01900
H 	H 	0.47400 0.31100 0.79050 -0.03500
C 	C 	0.38140 0.16470 0.72220 0.95100
H 	H 	0.36980 0.12060 0.70390 -0.00700
H 	H 	0.33940 0.19220 0.71820 -0.38000
H 	H 	0.40270 0.15440 0.75720 1.79700
H 	H 	0.48680 0.95410 0.75650 -0.00900
Tb	Tb	0.00337 0.48161 0.58670 2.02000
Tb	Tb	0.04663 0.07146 0.55829 1.78500
O 	O 	0.08820 0.57200 0.63357 -0.37100
O 	O 	0.00920 0.61040 0.56480 -0.41200
O 	O 	0.91830 0.39000 0.60420 0.23900
O 	O 	0.41100 0.80100 0.88890 -0.34500
O 	O 	0.41310 0.91030 0.85990 -0.49500
O 	O 	0.07330 0.95010 0.57500 -0.47500
O 	O 	0.00550 0.87280 0.51930 -0.52200
O 	O 	0.06230 0.98380 0.46860 -0.53800
O 	O 	0.03280 0.95130 0.14230 -0.41200
O 	O 	0.13990 0.93170 0.13910 -0.41600
O 	O 	0.41740 0.01140 0.45910 -0.56800
O 	O 	0.39290 0.99820 0.53060 -0.55100
O 	O 	0.14290 0.04730 0.52610 -0.46400
C 	C 	0.06120 0.62240 0.60330 0.32800
C 	C 	0.09090 0.69780 0.61390 -0.10100
C 	C 	0.06150 0.75500 0.58130 0.06300
H 	H 	0.02470 0.74530 0.55120 0.01900
C 	C 	0.08510 0.82530 0.59250 -0.16100
C 	C 	0.05130 0.88700 0.55960 0.47400
C 	C 	0.14160 0.83860 0.63720 0.03000
H 	H 	0.15790 0.88680 0.64550 0.03000
C 	C 	0.17300 0.78190 0.66880 -0.05900
C 	C 	0.14680 0.71180 0.65650 -0.00100
H 	H 	0.16780 0.67260 0.67800 0.01300
C 	C 	0.23090 0.79620 0.71650 0.06100
C 	C 	0.24220 0.86540 0.73550 -0.06300
H 	H 	0.21430 0.90400 0.71730 0.05000
C 	C 	0.29330 0.88000 0.78060 0.01100
H 	H 	0.29860 0.92820 0.79320 0.03600
C 	C 	0.33210 0.75750 0.78880 0.04100
H 	H 	0.36420 0.72120 0.80610 0.01200
C 	C 	0.27930 0.74150 0.74380 -0.08700
H 	H 	0.27540 0.69340 0.73100 0.05800
C 	C 	0.33620 0.82700 0.80730 -0.14500
C 	C 	0.39210 0.84580 0.85500 0.43000
C 	C 	0.12350 0.00970 0.48610 0.45200
C 	C 	0.17580 0.99940 0.45770 -0.18200
C 	C 	0.24790 0.00690 0.48280 0.11300
H 	H 	0.26300 0.01700 0.51780 0.01200
C 	C 	0.29750 0.99970 0.45690 -0.20400
C 	C 	0.37440 0.00280 0.48390 0.52300
C 	C 	0.27360 0.98830 0.40430 0.05800
H 	H 	0.30710 0.98490 0.38600 0.01800
C 	C 	0.20150 0.98200 0.37910 -0.07300
C 	C 	0.15330 0.98590 0.40640 0.04800
H 	H 	0.10420 0.97920 0.38980 0.01400
C 	C 	0.17520 0.97150 0.32350 0.06100
C 	C 	0.12600 0.95580 0.21930 -0.09000
C 	C 	0.09880 0.94510 0.16330 0.33000
C 	C 	0.22590 0.96610 0.29660 -0.02200
H 	H 	0.27530 0.96640 0.31380 0.03500
C 	C 	0.20080 0.96010 0.24330 0.03300
H 	H 	0.23320 0.95890 0.22400 0.03700
C 	C 	0.08340 0.99510 0.24410 0.02900
H 	H 	0.03990 0.01680 0.22530 0.02100
C 	C 	0.10730 0.00120 0.29760 -0.10700
H 	H 	0.07900 0.02420 0.31530 0.06500
O 	O 	0.95010 0.53580 0.64330 -0.47500
N 	N 	0.92650 0.53710 0.71750 -0.56100
C 	C 	0.93870 0.56820 0.67800 0.50500
C 	C 	0.90110 0.57850 0.75450 3.07800
H 	H 	0.89900 0.63030 0.74610 -2.94500
H 	H 	0.85360 0.56150 0.75350 -0.89000
H 	H 	0.93380 0.57120 0.78820 -0.91100
C 	C 	0.94970 0.45960 0.72440 0.07100
H 	H 	0.96830 0.44510 0.69700 0.03200
H 	H 	0.90910 0.42890 0.72420 0.00400
C 	C 	0.91590 0.65290 0.67860 0.13600
H 	H 	0.92680 0.67870 0.65110 0.93800
H 	H 	0.86490 0.65610 0.67430 -0.22800
H 	H 	0.94230 0.67490 0.71070 -0.49300
O 	O 	0.94340 0.39040 0.62130 -0.55700
C 	C 	0.26980 0.85960 0.72030 -0.05700
H 	H 	0.26080 0.89280 0.69310 0.04900
C 	C 	0.32290 0.87330 0.76550 0.02000
H 	H 	0.35120 0.91570 0.76790 0.02900
C 	C 	0.29500 0.76470 0.80030 -0.00400
H 	H 	0.30360 0.73090 0.82720 0.02900
C 	C 	0.24190 0.74900 0.75610 -0.03700
H 	H 	0.21370 0.70650 0.75350 0.04200
C 	C 	0.21610 0.94370 0.29370 -0.06600
H 	H 	0.26370 0.92930 0.30980 0.05100
C 	C 	0.19150 0.93700 0.24590 -0.03300
H 	H 	0.22200 0.91760 0.22840 0.03800
C 	C 	0.08590 0.93510 0.24720 -0.02600
H 	H 	0.04070 0.91460 0.23130 0.03800
C 	C 	0.10780 0.94250 0.29920 -0.01800
H 	H 	0.07750 0.92800 0.31820 0.03800
O 	O 	0.95450 0.67610 0.66740 -1.46600
C 	C 	0.93830 0.70790 0.70090 0.89200
N 	N 	0.96070 0.77200 0.72240 -0.31600
C 	C 	0.01900 0.81070 0.70940 0.06400
H 	H 	0.03020 0.78310 0.68360 0.02300
H 	H 	0.06190 0.82050 0.73570 -0.04200
H 	H 	0.99780 0.85500 0.69550 0.01700
C 	C 	0.93300 0.80100 0.76280 0.07900
H 	H 	0.90130 0.77120 0.77390 -0.07300
H 	H 	0.90980 0.84550 0.75020 0.01900
H 	H 	0.97400 0.81100 0.79050 -0.03600
C 	C 	0.88140 0.66470 0.72220 0.95000
H 	H 	0.86980 0.62060 0.70390 -0.00700
H 	H 	0.83940 0.69220 0.71820 -0.38000
H 	H 	0.90270 0.65440 0.75720 1.79600
H 	H 	0.98680 0.45410 0.75650 -0.01100
Tb	Tb	0.49663 0.98161 0.91330 2.01300
Tb	Tb	0.45337 0.57146 0.94171 1.78200
O 	O 	0.41180 0.07200 0.86643 -0.37000
O 	O 	0.49080 0.11040 0.93520 -0.41000
O 	O 	0.58170 0.89000 0.89580 0.23500
O 	O 	0.08900 0.30100 0.61110 -0.34500
O 	O 	0.08690 0.41030 0.64010 -0.49500
O 	O 	0.42670 0.45010 0.92500 -0.47500
O 	O 	0.49450 0.37280 0.98070 -0.52200
O 	O 	0.43770 0.48380 0.03140 -0.53800
O 	O 	0.46720 0.45130 0.35770 -0.41100
O 	O 	0.36010 0.43170 0.36090 -0.41600
O 	O 	0.08260 0.51140 0.04090 -0.56700
O 	O 	0.10710 0.49820 0.96940 -0.54800
O 	O 	0.35710 0.54730 0.97390 -0.46300
C 	C 	0.43880 0.12240 0.89670 0.32700
C 	C 	0.40910 0.19780 0.88610 -0.10100
C 	C 	0.43850 0.25500 0.91870 0.06300
H 	H 	0.47530 0.24530 0.94880 0.01900
C 	C 	0.41490 0.32530 0.90750 -0.16100
C 	C 	0.44870 0.38700 0.94040 0.47400
C 	C 	0.35840 0.33860 0.86280 0.03000
H 	H 	0.34210 0.38680 0.85450 0.03000
C 	C 	0.32700 0.28190 0.83120 -0.05800
C 	C 	0.35320 0.21180 0.84350 -0.00100
H 	H 	0.33220 0.17260 0.82200 0.01300
C 	C 	0.26910 0.29620 0.78350 0.06100
C 	C 	0.25780 0.36540 0.76450 -0.06300
H 	H 	0.28570 0.40400 0.78270 0.05000
C 	C 	0.20670 0.38000 0.71940 0.01100
H 	H 	0.20140 0.42820 0.70680 0.03700
C 	C 	0.16790 0.25750 0.71120 0.04100
H 	H 	0.13580 0.22120 0.69390 0.01200
C 	C 	0.22070 0.24150 0.75620 -0.08700
H 	H 	0.22460 0.19340 0.76900 0.05800
C 	C 	0.16380 0.32700 0.69270 -0.14500
C 	C 	0.10790 0.34580 0.64500 0.43000
C 	C 	0.37650 0.50970 0.01390 0.45000
C 	C 	0.32420 0.49940 0.04230 -0.18000
C 	C 	0.25210 0.50690 0.01720 0.10900
H 	H 	0.23700 0.51700 0.98220 0.01400
C 	C 	0.20250 0.49970 0.04310 -0.20200
C 	C 	0.12560 0.50280 0.01610 0.51900
C 	C 	0.22640 0.48830 0.09570 0.05600
H 	H 	0.19290 0.48490 0.11400 0.01900
C 	C 	0.29850 0.48200 0.12090 -0.07000
C 	C 	0.34670 0.48590 0.09360 0.04600
H 	H 	0.39580 0.47920 0.11020 0.01500
C 	C 	0.32480 0.47150 0.17650 0.05700
C 	C 	0.37400 0.45580 0.28070 -0.08400
C 	C 	0.40120 0.44510 0.33670 0.32800
C 	C 	0.27410 0.46610 0.20340 -0.02100
H 	H 	0.22470 0.46640 0.18620 0.03500
C 	C 	0.29920 0.46010 0.25670 0.03300
H 	H 	0.26680 0.45890 0.27600 0.03700
C 	C 	0.41660 0.49510 0.25590 0.05500
H 	H 	0.46010 0.51680 0.27470 0.01300
C 	C 	0.39270 0.50120 0.20240 -0.13500
H 	H 	0.42100 0.52420 0.18470 0.07500
O 	O 	0.54990 0.03580 0.85670 -0.47300
N 	N 	0.57350 0.03710 0.78250 -0.56000
C 	C 	0.56130 0.06820 0.82200 0.50500
C 	C 	0.59890 0.07850 0.74550 3.07900
H 	H 	0.60100 0.13030 0.75390 -2.94600
H 	H 	0.64640 0.06150 0.74650 -0.89000
H 	H 	0.56620 0.07120 0.71180 -0.91100
C 	C 	0.55030 0.95960 0.77560 0.06800
H 	H 	0.53170 0.94510 0.80300 0.03300
H 	H 	0.59090 0.92890 0.77580 0.00500
C 	C 	0.58410 0.15290 0.82140 0.13600
H 	H 	0.57320 0.17870 0.84890 0.93700
H 	H 	0.63510 0.15610 0.82570 -0.22800
H 	H 	0.55770 0.17490 0.78930 -0.49300
O 	O 	0.55660 0.89040 0.87870 -0.55300
C 	C 	0.23020 0.35960 0.77970 -0.05600
H 	H 	0.23920 0.39280 0.80690 0.04900
C 	C 	0.17710 0.37330 0.73450 0.01900
H 	H 	0.14880 0.41570 0.73210 0.02900
C 	C 	0.20500 0.26470 0.69970 -0.00400
H 	H 	0.19640 0.23090 0.67280 0.02900
C 	C 	0.25810 0.24900 0.74390 -0.03700
H 	H 	0.28630 0.20650 0.74650 0.04200
C 	C 	0.28390 0.44370 0.20630 -0.06400
H 	H 	0.23630 0.42930 0.19020 0.05000
C 	C 	0.30850 0.43700 0.25410 -0.03500
H 	H 	0.27800 0.41760 0.27160 0.03900
C 	C 	0.41410 0.43510 0.25280 -0.05900
H 	H 	0.45930 0.41460 0.26870 0.04900
C 	C 	0.39220 0.44250 0.20080 0.01500
H 	H 	0.42250 0.42800 0.18180 0.02700
O 	O 	0.54550 0.17610 0.83260 -1.46500
C 	C 	0.56170 0.20790 0.79910 0.89100
N 	N 	0.53930 0.27200 0.77760 -0.31500
C 	C 	0.48100 0.31070 0.79060 0.06500
H 	H 	0.46980 0.28310 0.81640 0.02200
H 	H 	0.43810 0.32050 0.76430 -0.04200
H 	H 	0.50220 0.35500 0.80450 0.01800
C 	C 	0.56700 0.30100 0.73720 0.07900
H 	H 	0.59870 0.27120 0.72610 -0.07300
H 	H 	0.59020 0.34550 0.74980 0.01900
H 	H 	0.52600 0.31100 0.70950 -0.03500
C 	C 	0.61860 0.16470 0.77780 0.95100
H 	H 	0.63020 0.12060 0.79610 -0.00700
H 	H 	0.66060 0.19220 0.78180 -0.38000
H 	H 	0.59730 0.15440 0.74280 1.79700
H 	H 	0.51320 0.95410 0.74350 -0.00900
Tb	Tb	0.99663 0.48161 0.91330 2.01500
Tb	Tb	0.95337 0.07146 0.94171 1.78300
O 	O 	0.91180 0.57200 0.86643 -0.37100
O 	O 	0.99080 0.61040 0.93520 -0.41200
O 	O 	0.08170 0.39000 0.89580 0.23700
O 	O 	0.58900 0.80100 0.61110 -0.34500
O 	O 	0.58690 0.91030 0.64010 -0.49500
O 	O 	0.92670 0.95010 0.92500 -0.47700
O 	O 	0.99450 0.87280 0.98070 -0.52400
O 	O 	0.93770 0.98380 0.03140 -0.53100
O 	O 	0.96720 0.95130 0.35770 -0.41100
O 	O 	0.86010 0.93170 0.36090 -0.41600
O 	O 	0.58260 0.01140 0.04090 -0.56700
O 	O 	0.60710 0.99820 0.96940 -0.55000
O 	O 	0.85710 0.04730 0.97390 -0.46000
C 	C 	0.93880 0.62240 0.89670 0.32800
C 	C 	0.90910 0.69780 0.88610 -0.10100
C 	C 	0.93850 0.75500 0.91870 0.06300
H 	H 	0.97530 0.74530 0.94880 0.01800
C 	C 	0.91490 0.82530 0.90750 -0.16200
C 	C 	0.94870 0.88700 0.94040 0.47400
C 	C 	0.85840 0.83860 0.86280 0.03000
H 	H 	0.84210 0.88680 0.85450 0.03000
C 	C 	0.82700 0.78190 0.83120 -0.05900
C 	C 	0.85320 0.71180 0.84350 -0.00100
H 	H 	0.83220 0.67260 0.82200 0.01300
C 	C 	0.76910 0.79620 0.78350 0.06100
C 	C 	0.75780 0.86540 0.76450 -0.06300
H 	H 	0.78570 0.90400 0.78270 0.05000
C 	C 	0.70670 0.88000 0.71940 0.01100
H 	H 	0.70140 0.92820 0.70680 0.03700
C 	C 	0.66790 0.75750 0.71120 0.04100
H 	H 	0.63580 0.72120 0.69390 0.01200
C 	C 	0.72070 0.74150 0.75620 -0.08700
H 	H 	0.72460 0.69340 0.76900 0.05800
C 	C 	0.66380 0.82700 0.69270 -0.14500
C 	C 	0.60790 0.84580 0.64500 0.43000
C 	C 	0.87650 0.00970 0.01390 0.44100
C 	C 	0.82420 0.99940 0.04230 -0.16700
C 	C 	0.75210 0.00690 0.01720 0.09500
H 	H 	0.73700 0.01700 0.98220 0.01900
C 	C 	0.70250 0.99970 0.04310 -0.19100
C 	C 	0.62560 0.00280 0.01610 0.51600
C 	C 	0.72640 0.98830 0.09570 0.05100
H 	H 	0.69290 0.98490 0.11400 0.02100
C 	C 	0.79850 0.98200 0.12090 -0.06600
C 	C 	0.84670 0.98590 0.09360 0.04000
H 	H 	0.89580 0.97920 0.11020 0.01800
C 	C 	0.82480 0.97150 0.17650 0.06000
C 	C 	0.87400 0.95580 0.28070 -0.09200
C 	C 	0.90120 0.94510 0.33670 0.33100
C 	C 	0.77410 0.96610 0.20340 -0.02100
H 	H 	0.72470 0.96640 0.18620 0.03500
C 	C 	0.79920 0.96010 0.25670 0.03300
H 	H 	0.76680 0.95890 0.27600 0.03800
C 	C 	0.91660 0.99510 0.25590 0.01500
H 	H 	0.96010 0.01680 0.27470 0.02600
C 	C 	0.89270 0.00120 0.20240 -0.09200
H 	H 	0.92100 0.02420 0.18470 0.06000
O 	O 	0.04990 0.53580 0.85670 -0.47300
N 	N 	0.07350 0.53710 0.78250 -0.56000
C 	C 	0.06130 0.56820 0.82200 0.50500
C 	C 	0.09890 0.57850 0.74550 3.07600
H 	H 	0.10100 0.63030 0.75390 -2.94300
H 	H 	0.14640 0.56150 0.74650 -0.88900
H 	H 	0.06620 0.57120 0.71180 -0.91000
C 	C 	0.05030 0.45960 0.77560 0.06900
H 	H 	0.03170 0.44510 0.80300 0.03400
H 	H 	0.09090 0.42890 0.77580 0.00500
C 	C 	0.08410 0.65290 0.82140 0.13300
H 	H 	0.07320 0.67870 0.84890 0.93600
H 	H 	0.13510 0.65610 0.82570 -0.22700
H 	H 	0.05770 0.67490 0.78930 -0.49000
O 	O 	0.05660 0.39040 0.87870 -0.55300
C 	C 	0.73020 0.85960 0.77970 -0.05700
H 	H 	0.73920 0.89280 0.80690 0.04900
C 	C 	0.67710 0.87330 0.73450 0.01900
H 	H 	0.64880 0.91570 0.73210 0.02900
C 	C 	0.70500 0.76470 0.69970 -0.00400
H 	H 	0.69640 0.73090 0.67280 0.02900
C 	C 	0.75810 0.74900 0.74390 -0.03700
H 	H 	0.78630 0.70650 0.74650 0.04200
C 	C 	0.78390 0.94370 0.20630 -0.06600
H 	H 	0.73630 0.92930 0.19020 0.05100
C 	C 	0.80850 0.93700 0.25410 -0.03200
H 	H 	0.77800 0.91760 0.27160 0.03800
C 	C 	0.91410 0.93510 0.25280 -0.00900
H 	H 	0.95930 0.91460 0.26870 0.03300
C 	C 	0.89220 0.94250 0.20080 -0.03400
H 	H 	0.92250 0.92800 0.18180 0.04400
O 	O 	0.04550 0.67610 0.83260 -1.46200
C 	C 	0.06170 0.70790 0.79910 0.88800
N 	N 	0.03930 0.77200 0.77760 -0.31500
C 	C 	0.98100 0.81070 0.79060 0.06500
H 	H 	0.96980 0.78310 0.81640 0.02200
H 	H 	0.93810 0.82050 0.76430 -0.04100
H 	H 	0.00220 0.85500 0.80450 0.01900
C 	C 	0.06700 0.80100 0.73720 0.07900
H 	H 	0.09870 0.77120 0.72610 -0.07300
H 	H 	0.09020 0.84550 0.74980 0.01900
H 	H 	0.02600 0.81100 0.70950 -0.03400
C 	C 	0.11860 0.66470 0.77780 0.94900
H 	H 	0.13020 0.62060 0.79610 -0.00700
H 	H 	0.16060 0.69220 0.78180 -0.38000
H 	H 	0.09730 0.65440 0.74280 1.79500
H 	H 	0.01320 0.45410 0.74350 -0.00700
