data_crystal

_cell_length_a 24.71680
_cell_length_b 13.01210
_cell_length_c 14.97780
_cell_angle_alpha 90.00000
_cell_angle_beta  96.68200
_cell_angle_gamma 90.00000

_symmetry_space_group_name_	'P 1'
_symmetry_space_group_name_H-M	'P 1'

loop_
_symmetry_equiv_pos_as_xyz
  x,y,z

loop_
_atom_site_label
_atom_site_type_symbol
_atom_site_fract_x
_atom_site_fract_y
_atom_site_fract_z
_atom_site_charge
Pr	Pr	0.32881 0.79544 0.03267 2.03300
O 	O 	0.30531 0.73840 0.87840 -0.50300
O 	O 	0.22721 0.65310 0.84960 -0.54000
O 	O 	0.20146 0.44910 0.56110 -0.46800
O 	O 	0.27373 0.35820 0.53820 -0.60300
O 	O 	0.59904 0.66710 0.50180 -0.45000
O 	O 	0.58532 0.82650 0.54130 -0.45200
C 	C 	0.27477 0.67620 0.83470 0.44500
C 	C 	0.29652 0.62580 0.75500 -0.15600
C 	C 	0.26524 0.55770 0.70100 0.08800
H 	H 	0.22950 0.54510 0.71140 0.01200
C 	C 	0.28644 0.50780 0.63150 -0.16100
C 	C 	0.25179 0.43380 0.57430 0.39800
C 	C 	0.33963 0.52870 0.61430 0.02300
H 	H 	0.35440 0.49340 0.56890 0.02100
C 	C 	0.37055 0.60170 0.66440 -0.06700
C 	C 	0.34844 0.64920 0.73640 0.03600
H 	H 	0.36910 0.69690 0.77190 0.03200
C 	C 	0.42481 0.63410 0.64020 0.09900
C 	C 	0.45960 0.56440 0.60700 -0.15100
H 	H 	0.45040 0.49510 0.60420 0.08200
C 	C 	0.50810 0.59620 0.57800 0.06100
H 	H 	0.53120 0.54800 0.55670 0.02000
C 	C 	0.52240 0.69850 0.58030 -0.13000
C 	C 	0.57224 0.73290 0.53940 0.32800
C 	C 	0.48900 0.76780 0.61580 0.06200
H 	H 	0.49900 0.83670 0.62000 0.01100
C 	C 	0.44060 0.73650 0.64550 -0.15000
H 	H 	0.41840 0.78460 0.66910 0.07800
Pr	Pr	0.82881 0.29544 0.03267 2.03300
O 	O 	0.80531 0.23840 0.87840 -0.50200
O 	O 	0.72721 0.15310 0.84960 -0.54000
O 	O 	0.70146 0.94910 0.56110 -0.46900
O 	O 	0.77373 0.85820 0.53820 -0.60300
O 	O 	0.09904 0.16710 0.50180 -0.45000
O 	O 	0.08532 0.32650 0.54130 -0.45200
C 	C 	0.77477 0.17620 0.83470 0.44500
C 	C 	0.79652 0.12580 0.75500 -0.15600
C 	C 	0.76524 0.05770 0.70100 0.08900
H 	H 	0.72950 0.04510 0.71140 0.01200
C 	C 	0.78644 0.00780 0.63150 -0.16200
C 	C 	0.75179 0.93380 0.57430 0.39900
C 	C 	0.83963 0.02870 0.61430 0.02300
H 	H 	0.85440 0.99340 0.56890 0.02100
C 	C 	0.87055 0.10170 0.66440 -0.06700
C 	C 	0.84844 0.14920 0.73640 0.03600
H 	H 	0.86910 0.19690 0.77190 0.03300
C 	C 	0.92481 0.13410 0.64020 0.09900
C 	C 	0.95960 0.06440 0.60700 -0.15100
H 	H 	0.95040 0.99510 0.60420 0.08300
C 	C 	0.00810 0.09620 0.57800 0.06100
H 	H 	0.03120 0.04800 0.55670 0.02000
C 	C 	0.02240 0.19850 0.58030 -0.13100
C 	C 	0.07224 0.23290 0.53940 0.32800
C 	C 	0.98900 0.26780 0.61580 0.06300
H 	H 	0.99900 0.33670 0.62000 0.01100
C 	C 	0.94060 0.23650 0.64550 -0.15100
H 	H 	0.91840 0.28460 0.66910 0.07800
Pr	Pr	0.67119 0.79544 0.46733 2.03400
O 	O 	0.69469 0.73840 0.62160 -0.50200
O 	O 	0.77279 0.65310 0.65040 -0.54000
O 	O 	0.79854 0.44910 0.93890 -0.46800
O 	O 	0.72627 0.35820 0.96180 -0.60300
O 	O 	0.40096 0.66710 0.99820 -0.45000
O 	O 	0.41468 0.82650 0.95870 -0.45100
C 	C 	0.72523 0.67620 0.66530 0.44500
C 	C 	0.70348 0.62580 0.74500 -0.15600
C 	C 	0.73476 0.55770 0.79900 0.08800
H 	H 	0.77050 0.54510 0.78860 0.01200
C 	C 	0.71356 0.50780 0.86850 -0.16100
C 	C 	0.74821 0.43380 0.92570 0.39800
C 	C 	0.66037 0.52870 0.88570 0.02300
H 	H 	0.64560 0.49340 0.93110 0.02100
C 	C 	0.62945 0.60170 0.83560 -0.06700
C 	C 	0.65156 0.64920 0.76360 0.03500
H 	H 	0.63090 0.69690 0.72810 0.03300
C 	C 	0.57519 0.63410 0.85980 0.09900
C 	C 	0.54040 0.56440 0.89300 -0.15100
H 	H 	0.54960 0.49510 0.89580 0.08200
C 	C 	0.49190 0.59620 0.92200 0.06100
H 	H 	0.46880 0.54800 0.94330 0.02000
C 	C 	0.47760 0.69850 0.91970 -0.13000
C 	C 	0.42776 0.73290 0.96060 0.32800
C 	C 	0.51100 0.76780 0.88420 0.06200
H 	H 	0.50100 0.83670 0.88000 0.01100
C 	C 	0.55940 0.73650 0.85450 -0.15000
H 	H 	0.58160 0.78460 0.83090 0.07800
Pr	Pr	0.17119 0.29544 0.46733 2.03400
O 	O 	0.19469 0.23840 0.62160 -0.50200
O 	O 	0.27279 0.15310 0.65040 -0.54000
O 	O 	0.29854 0.94910 0.93890 -0.46800
O 	O 	0.22627 0.85820 0.96180 -0.60400
O 	O 	0.90096 0.16710 0.99820 -0.44900
O 	O 	0.91468 0.32650 0.95870 -0.45100
C 	C 	0.22523 0.17620 0.66530 0.44500
C 	C 	0.20348 0.12580 0.74500 -0.15700
C 	C 	0.23476 0.05770 0.79900 0.08900
H 	H 	0.27050 0.04510 0.78860 0.01200
C 	C 	0.21356 0.00780 0.86850 -0.16200
C 	C 	0.24821 0.93380 0.92570 0.39900
C 	C 	0.16037 0.02870 0.88570 0.02200
H 	H 	0.14560 0.99340 0.93110 0.02200
C 	C 	0.12945 0.10170 0.83560 -0.06700
C 	C 	0.15156 0.14920 0.76360 0.03600
H 	H 	0.13090 0.19690 0.72810 0.03200
C 	C 	0.07519 0.13410 0.85980 0.10000
C 	C 	0.04040 0.06440 0.89300 -0.15700
H 	H 	0.04960 0.99510 0.89580 0.08400
C 	C 	0.99190 0.09620 0.92200 0.06500
H 	H 	0.96880 0.04800 0.94330 0.01900
C 	C 	0.97760 0.19850 0.91970 -0.12900
C 	C 	0.92776 0.23290 0.96060 0.32800
C 	C 	0.01100 0.26780 0.88420 0.06100
H 	H 	0.00100 0.33670 0.88000 0.01100
C 	C 	0.05940 0.23650 0.85450 -0.15100
H 	H 	0.08160 0.28460 0.83090 0.07800
Pr	Pr	0.67119 0.20456 0.96733 2.03400
O 	O 	0.69469 0.26160 0.12160 -0.50200
O 	O 	0.77279 0.34690 0.15040 -0.54000
O 	O 	0.79854 0.55090 0.43890 -0.46800
O 	O 	0.72627 0.64180 0.46180 -0.60300
O 	O 	0.40096 0.33290 0.49820 -0.45000
O 	O 	0.41468 0.17350 0.45870 -0.45200
C 	C 	0.72523 0.32380 0.16530 0.44500
C 	C 	0.70348 0.37420 0.24500 -0.15600
C 	C 	0.73476 0.44230 0.29900 0.08800
H 	H 	0.77050 0.45490 0.28860 0.01200
C 	C 	0.71356 0.49220 0.36850 -0.16100
C 	C 	0.74821 0.56620 0.42570 0.39800
C 	C 	0.66037 0.47130 0.38570 0.02300
H 	H 	0.64560 0.50660 0.43110 0.02100
C 	C 	0.62945 0.39830 0.33560 -0.06700
C 	C 	0.65156 0.35080 0.26360 0.03600
H 	H 	0.63090 0.30310 0.22810 0.03200
C 	C 	0.57519 0.36590 0.35980 0.09900
C 	C 	0.54040 0.43560 0.39300 -0.15100
H 	H 	0.54960 0.50490 0.39580 0.08200
C 	C 	0.49190 0.40380 0.42200 0.06100
H 	H 	0.46880 0.45200 0.44330 0.02000
C 	C 	0.47760 0.30150 0.41970 -0.13000
C 	C 	0.42776 0.26710 0.46060 0.32800
C 	C 	0.51100 0.23220 0.38420 0.06200
H 	H 	0.50100 0.16330 0.38000 0.01100
C 	C 	0.55940 0.26350 0.35450 -0.15000
H 	H 	0.58160 0.21540 0.33090 0.07800
Pr	Pr	0.17119 0.70456 0.96733 2.03300
O 	O 	0.19469 0.76160 0.12160 -0.50200
O 	O 	0.27279 0.84690 0.15040 -0.54000
O 	O 	0.29854 0.05090 0.43890 -0.46900
O 	O 	0.22627 0.14180 0.46180 -0.60300
O 	O 	0.90096 0.83290 0.49820 -0.45000
O 	O 	0.91468 0.67350 0.45870 -0.45200
C 	C 	0.22523 0.82380 0.16530 0.44500
C 	C 	0.20348 0.87420 0.24500 -0.15600
C 	C 	0.23476 0.94230 0.29900 0.08900
H 	H 	0.27050 0.95490 0.28860 0.01200
C 	C 	0.21356 0.99220 0.36850 -0.16200
C 	C 	0.24821 0.06620 0.42570 0.39900
C 	C 	0.16037 0.97130 0.38570 0.02300
H 	H 	0.14560 0.00660 0.43110 0.02100
C 	C 	0.12945 0.89830 0.33560 -0.06700
C 	C 	0.15156 0.85080 0.26360 0.03600
H 	H 	0.13090 0.80310 0.22810 0.03300
C 	C 	0.07519 0.86590 0.35980 0.09900
C 	C 	0.04040 0.93560 0.39300 -0.15100
H 	H 	0.04960 0.00490 0.39580 0.08300
C 	C 	0.99190 0.90380 0.42200 0.06100
H 	H 	0.96880 0.95200 0.44330 0.02000
C 	C 	0.97760 0.80150 0.41970 -0.13100
C 	C 	0.92776 0.76710 0.46060 0.32800
C 	C 	0.01100 0.73220 0.38420 0.06300
H 	H 	0.00100 0.66330 0.38000 0.01100
C 	C 	0.05940 0.76350 0.35450 -0.15100
H 	H 	0.08160 0.71540 0.33090 0.07800
Pr	Pr	0.32881 0.20456 0.53267 2.03400
O 	O 	0.30531 0.26160 0.37840 -0.50200
O 	O 	0.22721 0.34690 0.34960 -0.54000
O 	O 	0.20146 0.55090 0.06110 -0.46800
O 	O 	0.27373 0.64180 0.03820 -0.60300
O 	O 	0.59904 0.33290 0.00180 -0.45000
O 	O 	0.58532 0.17350 0.04130 -0.45100
C 	C 	0.27477 0.32380 0.33470 0.44500
C 	C 	0.29652 0.37420 0.25500 -0.15600
C 	C 	0.26524 0.44230 0.20100 0.08800
H 	H 	0.22950 0.45490 0.21140 0.01200
C 	C 	0.28644 0.49220 0.13150 -0.16100
C 	C 	0.25179 0.56620 0.07430 0.39800
C 	C 	0.33963 0.47130 0.11430 0.02300
H 	H 	0.35440 0.50660 0.06890 0.02100
C 	C 	0.37055 0.39830 0.16440 -0.06700
C 	C 	0.34844 0.35080 0.23640 0.03500
H 	H 	0.36910 0.30310 0.27190 0.03300
C 	C 	0.42481 0.36590 0.14020 0.09900
C 	C 	0.45960 0.43560 0.10700 -0.15100
H 	H 	0.45040 0.50490 0.10420 0.08200
C 	C 	0.50810 0.40380 0.07800 0.06100
H 	H 	0.53120 0.45200 0.05670 0.02000
C 	C 	0.52240 0.30150 0.08030 -0.13000
C 	C 	0.57224 0.26710 0.03940 0.32800
C 	C 	0.48900 0.23220 0.11580 0.06200
H 	H 	0.49900 0.16330 0.12000 0.01100
C 	C 	0.44060 0.26350 0.14550 -0.15000
H 	H 	0.41840 0.21540 0.16910 0.07800
Pr	Pr	0.82881 0.70456 0.53267 2.03400
O 	O 	0.80531 0.76160 0.37840 -0.50200
O 	O 	0.72721 0.84690 0.34960 -0.54000
O 	O 	0.70146 0.05090 0.06110 -0.46800
O 	O 	0.77373 0.14180 0.03820 -0.60400
O 	O 	0.09904 0.83290 0.00180 -0.44900
O 	O 	0.08532 0.67350 0.04130 -0.45100
C 	C 	0.77477 0.82380 0.33470 0.44500
C 	C 	0.79652 0.87420 0.25500 -0.15700
C 	C 	0.76524 0.94230 0.20100 0.08900
H 	H 	0.72950 0.95490 0.21140 0.01200
C 	C 	0.78644 0.99220 0.13150 -0.16200
C 	C 	0.75179 0.06620 0.07430 0.39900
C 	C 	0.83963 0.97130 0.11430 0.02200
H 	H 	0.85440 0.00660 0.06890 0.02200
C 	C 	0.87055 0.89830 0.16440 -0.06700
C 	C 	0.84844 0.85080 0.23640 0.03600
H 	H 	0.86910 0.80310 0.27190 0.03200
C 	C 	0.92481 0.86590 0.14020 0.10000
C 	C 	0.95960 0.93560 0.10700 -0.15700
H 	H 	0.95040 0.00490 0.10420 0.08400
C 	C 	0.00810 0.90380 0.07800 0.06500
H 	H 	0.03120 0.95200 0.05670 0.01900
C 	C 	0.02240 0.80150 0.08030 -0.12900
C 	C 	0.07224 0.76710 0.03940 0.32800
C 	C 	0.98900 0.73220 0.11580 0.06100
H 	H 	0.99900 0.66330 0.12000 0.01100
C 	C 	0.94060 0.76350 0.14550 -0.15100
H 	H 	0.91840 0.71540 0.16910 0.07800
