data_crystal

_cell_length_a 30.27500
_cell_length_b 15.28900
_cell_length_c 22.42100
_cell_angle_alpha 90.00000
_cell_angle_beta  90.00000
_cell_angle_gamma 90.00000

_symmetry_space_group_name_	'P 1'
_symmetry_space_group_name_H-M	'P 1'

loop_
_symmetry_equiv_pos_as_xyz
  x,y,z

loop_
_atom_site_label
_atom_site_type_symbol
_atom_site_fract_x
_atom_site_fract_y
_atom_site_fract_z
_atom_site_charge
Cu	Cu	0.11968 0.70038 0.83243 0.91400
N 	N 	0.11065 0.68980 0.92765 -0.18900
O 	O 	0.07317 0.61410 0.81180 -0.39600
C 	C 	0.05972 0.59710 0.75990 0.33600
Cu	Cu	0.13010 0.69607 0.71461 0.92900
O 	O 	0.07534 0.62750 0.71185 -0.37600
C 	C 	0.02185 0.53380 0.75430 -0.08200
N 	N 	0.18469 0.84390 0.05009 -0.24100
H 	H 	0.19580 0.83080 0.01600 0.13800
O 	O 	0.17017 0.78289 0.82881 -0.39100
N 	N 	0.17423 0.01760 0.00950 -0.23100
H 	H 	0.14870 0.00870 0.02530 0.13600
C 	C 	0.98299 0.54050 0.79007 0.04100
O 	O 	0.18410 0.76220 0.73147 -0.40100
N 	N 	0.05899 0.02980 0.90182 -0.12100
C 	C 	0.97643 0.61040 0.83040 -0.07700
H 	H 	0.99830 0.65270 0.83460 0.07400
O 	O 	0.33654 0.10309 0.83102 -0.38100
C 	C 	0.93860 0.61670 0.86330 -0.03000
H 	H 	0.93530 0.66220 0.89050 0.04100
O 	O 	0.33782 0.08704 0.73126 -0.39300
C 	C 	0.90467 0.55470 0.85630 -0.02400
H 	H 	0.87890 0.55970 0.87850 0.03400
O 	O 	0.90444 0.30456 0.78247 -0.39400
C 	C 	0.90943 0.48750 0.81720 -0.08300
H 	H 	0.88650 0.44770 0.81250 0.07600
O 	O 	0.92068 0.29660 0.68513 -0.40200
C 	C 	0.94878 0.47690 0.78342 0.04700
C 	C 	0.95543 0.40660 0.74245 -0.08400
O 	O 	0.13375 0.80720 0.11951 -0.32100
C 	C 	0.92382 0.33010 0.73600 0.35000
O 	O 	0.21220 0.07330 0.93166 -0.23100
C 	C 	0.99307 0.40320 0.70814 -0.01300
H 	H 	0.99680 0.35770 0.68110 0.05100
C 	C 	0.02601 0.46740 0.71347 -0.01600
H 	H 	0.05080 0.46500 0.68910 0.04900
C 	C 	0.19200 0.79540 0.78160 0.34700
C 	C 	0.22971 0.85890 0.78578 -0.09200
C 	C 	0.22149 0.93840 0.81080 -0.00500
H 	H 	0.19390 0.94930 0.82750 0.05100
C 	C 	0.25369 0.00430 0.81190 -0.02500
H 	H 	0.24740 0.05790 0.82960 0.06400
C 	C 	0.29442 0.98970 0.78700 -0.08000
C 	C 	0.30537 0.90640 0.76310 0.03800
C 	C 	0.34831 0.88710 0.74080 -0.07400
H 	H 	0.36980 0.93060 0.74030 0.07000
C 	C 	0.35818 0.80600 0.72020 -0.03000
H 	H 	0.38640 0.79450 0.70580 0.04000
C 	C 	0.32665 0.74010 0.72060 -0.02500
H 	H 	0.33420 0.68470 0.70700 0.03600
C 	C 	0.28467 0.75550 0.74070 -0.08300
H 	H 	0.26380 0.71080 0.74010 0.07000
C 	C 	0.27289 0.83920 0.76231 0.04600
C 	C 	0.32588 0.06530 0.78310 0.33700
C 	C 	0.08723 0.60520 0.01150 -0.12600
H 	H 	0.07230 0.55660 0.02620 0.08000
C 	C 	0.10733 0.66260 0.05000 0.05100
H 	H 	0.10570 0.65380 0.09100 0.03000
C 	C 	0.12995 0.73350 0.02702 -0.11400
C 	C 	0.12989 0.74500 0.96570 0.07700
H 	H 	0.14410 0.79390 0.95020 0.00900
C 	C 	0.15035 0.79770 0.06935 0.26600
C 	C 	0.20470 0.91640 0.08385 0.03900
H 	H 	0.18380 0.93520 0.11470 0.04300
C 	C 	0.24751 0.88720 0.11440 -0.15100
H 	H 	0.24130 0.83920 0.14140 0.08400
H 	H 	0.26830 0.86680 0.08460 0.07700
C 	C 	0.26777 0.96350 0.14920 -0.07800
H 	H 	0.24830 0.97910 0.18180 0.06500
H 	H 	0.29580 0.94510 0.16610 0.04800
C 	C 	0.27522 0.04320 0.11000 -0.06300
H 	H 	0.28570 0.09140 0.13440 0.05300
H 	H 	0.29770 0.03010 0.08050 0.05200
C 	C 	0.23288 0.07000 0.07870 -0.16300
H 	H 	0.23880 0.11870 0.05210 0.09000
H 	H 	0.21140 0.08910 0.10800 0.08600
C 	C 	0.21398 0.99350 0.04300 0.05100
H 	H 	0.23650 0.97510 0.01410 0.03700
C 	C 	0.17659 0.05320 0.95490 0.23100
C 	C 	0.13459 0.06610 0.92140 -0.09800
C 	C 	0.09634 0.01950 0.93250 0.06500
H 	H 	0.09670 0.97860 0.96320 0.01900
C 	C 	0.05884 0.08890 0.85840 0.07000
H 	H 	0.03280 0.09770 0.83730 0.02700
C 	C 	0.09523 0.13780 0.84320 -0.11600
H 	H 	0.09390 0.17760 0.81180 0.07600
C 	C 	0.13384 0.12670 0.87530 0.03600
H 	H 	0.15890 0.15930 0.86620 0.03300
C 	C 	0.08941 0.62030 0.95110 0.07400
H 	H 	0.07570 0.58100 0.92540 0.01700
Cu	Cu	0.38032 0.29962 0.33243 0.91400
N 	N 	0.38935 0.31020 0.42765 -0.18900
O 	O 	0.42683 0.38590 0.31180 -0.39700
C 	C 	0.44028 0.40290 0.25990 0.33600
Cu	Cu	0.36990 0.30393 0.21461 0.92900
O 	O 	0.42466 0.37250 0.21185 -0.37600
C 	C 	0.47815 0.46620 0.25430 -0.08200
N 	N 	0.31531 0.15610 0.55009 -0.24100
H 	H 	0.30420 0.16920 0.51600 0.13800
O 	O 	0.32983 0.21711 0.32881 -0.39100
N 	N 	0.32577 0.98240 0.50950 -0.23100
H 	H 	0.35130 0.99130 0.52530 0.13600
C 	C 	0.51701 0.45950 0.29007 0.04100
O 	O 	0.31590 0.23780 0.23147 -0.40100
N 	N 	0.44101 0.97020 0.40182 -0.12100
C 	C 	0.52357 0.38960 0.33040 -0.07700
H 	H 	0.50170 0.34730 0.33460 0.07400
O 	O 	0.16346 0.89691 0.33102 -0.38100
C 	C 	0.56140 0.38330 0.36330 -0.03000
H 	H 	0.56470 0.33780 0.39050 0.04100
O 	O 	0.16218 0.91296 0.23126 -0.39300
C 	C 	0.59533 0.44530 0.35630 -0.02400
H 	H 	0.62110 0.44030 0.37850 0.03400
O 	O 	0.59556 0.69544 0.28247 -0.39400
C 	C 	0.59057 0.51250 0.31720 -0.08300
H 	H 	0.61350 0.55230 0.31250 0.07600
O 	O 	0.57932 0.70340 0.18513 -0.40200
C 	C 	0.55122 0.52310 0.28342 0.04700
C 	C 	0.54457 0.59340 0.24245 -0.08400
O 	O 	0.36625 0.19280 0.61951 -0.32100
C 	C 	0.57618 0.66990 0.23600 0.35000
O 	O 	0.28780 0.92670 0.43166 -0.23100
C 	C 	0.50693 0.59680 0.20814 -0.01300
H 	H 	0.50320 0.64230 0.18110 0.05100
C 	C 	0.47399 0.53260 0.21347 -0.01600
H 	H 	0.44920 0.53500 0.18910 0.04900
C 	C 	0.30800 0.20460 0.28160 0.34700
C 	C 	0.27029 0.14110 0.28578 -0.09100
C 	C 	0.27851 0.06160 0.31080 -0.00600
H 	H 	0.30610 0.05070 0.32750 0.05100
C 	C 	0.24631 0.99570 0.31190 -0.02400
H 	H 	0.25260 0.94210 0.32960 0.06400
C 	C 	0.20558 0.01030 0.28700 -0.08100
C 	C 	0.19463 0.09360 0.26310 0.03800
C 	C 	0.15169 0.11290 0.24080 -0.07500
H 	H 	0.13020 0.06940 0.24030 0.07100
C 	C 	0.14182 0.19400 0.22020 -0.03000
H 	H 	0.11360 0.20550 0.20580 0.04000
C 	C 	0.17335 0.25990 0.22060 -0.02600
H 	H 	0.16580 0.31530 0.20700 0.03600
C 	C 	0.21533 0.24450 0.24070 -0.08200
H 	H 	0.23620 0.28920 0.24010 0.07000
C 	C 	0.22711 0.16080 0.26231 0.04600
C 	C 	0.17412 0.93470 0.28310 0.33700
C 	C 	0.41277 0.39480 0.51150 -0.12600
H 	H 	0.42770 0.44340 0.52620 0.08000
C 	C 	0.39267 0.33740 0.55000 0.05100
H 	H 	0.39430 0.34620 0.59100 0.03000
C 	C 	0.37005 0.26650 0.52702 -0.11400
C 	C 	0.37011 0.25500 0.46570 0.07700
H 	H 	0.35590 0.20610 0.45020 0.00900
C 	C 	0.34965 0.20230 0.56935 0.26600
C 	C 	0.29530 0.08360 0.58385 0.03900
H 	H 	0.31620 0.06480 0.61470 0.04300
C 	C 	0.25249 0.11280 0.61440 -0.15100
H 	H 	0.25870 0.16080 0.64140 0.08400
H 	H 	0.23170 0.13320 0.58460 0.07700
C 	C 	0.23223 0.03650 0.64920 -0.07800
H 	H 	0.25170 0.02090 0.68180 0.06500
H 	H 	0.20420 0.05490 0.66610 0.04800
C 	C 	0.22478 0.95680 0.61000 -0.06300
H 	H 	0.21430 0.90860 0.63440 0.05300
H 	H 	0.20230 0.96990 0.58050 0.05100
C 	C 	0.26712 0.93000 0.57870 -0.16300
H 	H 	0.26120 0.88130 0.55210 0.09000
H 	H 	0.28860 0.91090 0.60800 0.08600
C 	C 	0.28602 0.00650 0.54300 0.05100
H 	H 	0.26350 0.02490 0.51410 0.03700
C 	C 	0.32341 0.94680 0.45490 0.23200
C 	C 	0.36541 0.93390 0.42140 -0.09900
C 	C 	0.40366 0.98050 0.43250 0.06600
H 	H 	0.40330 0.02140 0.46320 0.01800
C 	C 	0.44116 0.91110 0.35840 0.07000
H 	H 	0.46720 0.90230 0.33730 0.02700
C 	C 	0.40477 0.86220 0.34320 -0.11700
H 	H 	0.40610 0.82240 0.31180 0.07600
C 	C 	0.36616 0.87330 0.37530 0.03700
H 	H 	0.34110 0.84070 0.36620 0.03300
C 	C 	0.41059 0.37970 0.45110 0.07400
H 	H 	0.42430 0.41900 0.42540 0.01700
Cu	Cu	0.88032 0.20038 0.66757 0.91400
N 	N 	0.88935 0.18980 0.57235 -0.18900
O 	O 	0.92683 0.11410 0.68820 -0.39600
C 	C 	0.94028 0.09710 0.74010 0.33600
Cu	Cu	0.86990 0.19607 0.78539 0.92900
O 	O 	0.92466 0.12750 0.78815 -0.37600
C 	C 	0.97815 0.03380 0.74570 -0.08200
N 	N 	0.81531 0.34390 0.44991 -0.24100
H 	H 	0.80420 0.33080 0.48400 0.13800
O 	O 	0.82983 0.28289 0.67119 -0.39100
N 	N 	0.82577 0.51760 0.49050 -0.23100
H 	H 	0.85130 0.50870 0.47470 0.13600
C 	C 	0.01701 0.04050 0.70993 0.04100
O 	O 	0.81590 0.26220 0.76853 -0.40100
N 	N 	0.94101 0.52980 0.59818 -0.12100
C 	C 	0.02357 0.11040 0.66960 -0.07700
H 	H 	0.00170 0.15270 0.66540 0.07400
O 	O 	0.66346 0.60309 0.66898 -0.38100
C 	C 	0.06140 0.11670 0.63670 -0.03000
H 	H 	0.06470 0.16220 0.60950 0.04100
O 	O 	0.66218 0.58704 0.76874 -0.39300
C 	C 	0.09533 0.05470 0.64370 -0.02400
H 	H 	0.12110 0.05970 0.62150 0.03400
O 	O 	0.09556 0.80456 0.71753 -0.39400
C 	C 	0.09057 0.98750 0.68280 -0.08300
H 	H 	0.11350 0.94770 0.68750 0.07600
O 	O 	0.07932 0.79660 0.81487 -0.40200
C 	C 	0.05122 0.97690 0.71658 0.04800
C 	C 	0.04457 0.90660 0.75755 -0.08400
O 	O 	0.86625 0.30720 0.38049 -0.32100
C 	C 	0.07618 0.83010 0.76400 0.35000
O 	O 	0.78780 0.57330 0.56834 -0.23100
C 	C 	0.00693 0.90320 0.79186 -0.01200
H 	H 	0.00320 0.85770 0.81890 0.05100
C 	C 	0.97399 0.96740 0.78653 -0.01700
H 	H 	0.94920 0.96500 0.81090 0.04900
C 	C 	0.80800 0.29540 0.71840 0.34700
C 	C 	0.77029 0.35890 0.71422 -0.09100
C 	C 	0.77851 0.43840 0.68920 -0.00600
H 	H 	0.80610 0.44930 0.67250 0.05100
C 	C 	0.74631 0.50430 0.68810 -0.02400
H 	H 	0.75260 0.55790 0.67040 0.06400
C 	C 	0.70558 0.48970 0.71300 -0.08100
C 	C 	0.69463 0.40640 0.73690 0.03800
C 	C 	0.65169 0.38710 0.75920 -0.07500
H 	H 	0.63020 0.43060 0.75970 0.07100
C 	C 	0.64182 0.30600 0.77980 -0.03000
H 	H 	0.61360 0.29450 0.79420 0.04000
C 	C 	0.67335 0.24010 0.77940 -0.02600
H 	H 	0.66580 0.18470 0.79300 0.03600
C 	C 	0.71533 0.25550 0.75930 -0.08200
H 	H 	0.73620 0.21080 0.75990 0.07000
C 	C 	0.72711 0.33920 0.73769 0.04600
C 	C 	0.67412 0.56530 0.71690 0.33700
C 	C 	0.91277 0.10520 0.48850 -0.12600
H 	H 	0.92770 0.05660 0.47380 0.08000
C 	C 	0.89267 0.16260 0.45000 0.05100
H 	H 	0.89430 0.15380 0.40900 0.03000
C 	C 	0.87005 0.23350 0.47298 -0.11400
C 	C 	0.87011 0.24500 0.53430 0.07700
H 	H 	0.85590 0.29390 0.54980 0.00900
C 	C 	0.84965 0.29770 0.43065 0.26600
C 	C 	0.79530 0.41640 0.41615 0.03900
H 	H 	0.81620 0.43520 0.38530 0.04300
C 	C 	0.75249 0.38720 0.38560 -0.15100
H 	H 	0.75870 0.33920 0.35860 0.08400
H 	H 	0.73170 0.36680 0.41540 0.07700
C 	C 	0.73223 0.46350 0.35080 -0.07800
H 	H 	0.75170 0.47910 0.31820 0.06500
H 	H 	0.70420 0.44510 0.33390 0.04800
C 	C 	0.72478 0.54320 0.39000 -0.06300
H 	H 	0.71430 0.59140 0.36560 0.05300
H 	H 	0.70230 0.53010 0.41950 0.05100
C 	C 	0.76712 0.57000 0.42130 -0.16300
H 	H 	0.76120 0.61870 0.44790 0.09000
H 	H 	0.78860 0.58910 0.39200 0.08600
C 	C 	0.78602 0.49350 0.45700 0.05100
H 	H 	0.76350 0.47510 0.48590 0.03700
C 	C 	0.82341 0.55320 0.54510 0.23200
C 	C 	0.86541 0.56610 0.57860 -0.09900
C 	C 	0.90366 0.51950 0.56750 0.06600
H 	H 	0.90330 0.47860 0.53680 0.01800
C 	C 	0.94116 0.58890 0.64160 0.07000
H 	H 	0.96720 0.59770 0.66270 0.02700
C 	C 	0.90477 0.63780 0.65680 -0.11700
H 	H 	0.90610 0.67760 0.68820 0.07600
C 	C 	0.86616 0.62670 0.62470 0.03700
H 	H 	0.84110 0.65930 0.63380 0.03300
C 	C 	0.91059 0.12030 0.54890 0.07400
H 	H 	0.92430 0.08100 0.57460 0.01700
Cu	Cu	0.61968 0.79962 0.16757 0.91400
N 	N 	0.61065 0.81020 0.07235 -0.18900
O 	O 	0.57317 0.88590 0.18820 -0.39700
C 	C 	0.55972 0.90290 0.24010 0.33600
Cu	Cu	0.63010 0.80393 0.28539 0.92900
O 	O 	0.57534 0.87250 0.28815 -0.37600
C 	C 	0.52185 0.96620 0.24570 -0.08300
N 	N 	0.68469 0.65610 0.94991 -0.24100
H 	H 	0.69580 0.66920 0.98400 0.13800
O 	O 	0.67017 0.71711 0.17119 -0.39100
N 	N 	0.67423 0.48240 0.99050 -0.23100
H 	H 	0.64870 0.49130 0.97470 0.13600
C 	C 	0.48299 0.95950 0.20993 0.04100
O 	O 	0.68410 0.73780 0.26853 -0.40100
N 	N 	0.55899 0.47020 0.09818 -0.12100
C 	C 	0.47643 0.88960 0.16960 -0.07700
H 	H 	0.49830 0.84730 0.16540 0.07400
O 	O 	0.83654 0.39691 0.16898 -0.38100
C 	C 	0.43860 0.88330 0.13670 -0.03000
H 	H 	0.43530 0.83780 0.10950 0.04100
O 	O 	0.83782 0.41296 0.26874 -0.39300
C 	C 	0.40467 0.94530 0.14370 -0.02500
H 	H 	0.37890 0.94030 0.12150 0.03500
O 	O 	0.40444 0.19544 0.21753 -0.39400
C 	C 	0.40943 0.01250 0.18280 -0.08300
H 	H 	0.38650 0.05230 0.18750 0.07600
O 	O 	0.42068 0.20340 0.31487 -0.40200
C 	C 	0.44878 0.02310 0.21658 0.04700
C 	C 	0.45543 0.09340 0.25755 -0.08400
O 	O 	0.63375 0.69280 0.88049 -0.32100
C 	C 	0.42382 0.16990 0.26400 0.35000
O 	O 	0.71220 0.42670 0.06834 -0.23100
C 	C 	0.49307 0.09680 0.29186 -0.01300
H 	H 	0.49680 0.14230 0.31890 0.05100
C 	C 	0.52601 0.03260 0.28653 -0.01600
H 	H 	0.55080 0.03500 0.31090 0.04900
C 	C 	0.69200 0.70460 0.21840 0.34700
C 	C 	0.72971 0.64110 0.21422 -0.09100
C 	C 	0.72149 0.56160 0.18920 -0.00600
H 	H 	0.69390 0.55070 0.17250 0.05100
C 	C 	0.75369 0.49570 0.18810 -0.02400
H 	H 	0.74740 0.44210 0.17040 0.06400
C 	C 	0.79442 0.51030 0.21300 -0.08100
C 	C 	0.80537 0.59360 0.23690 0.03800
C 	C 	0.84831 0.61290 0.25920 -0.07500
H 	H 	0.86980 0.56940 0.25970 0.07100
C 	C 	0.85818 0.69400 0.27980 -0.03000
H 	H 	0.88640 0.70550 0.29420 0.04000
C 	C 	0.82665 0.75990 0.27940 -0.02600
H 	H 	0.83420 0.81530 0.29300 0.03600
C 	C 	0.78467 0.74450 0.25930 -0.08200
H 	H 	0.76380 0.78920 0.25990 0.07000
C 	C 	0.77289 0.66080 0.23769 0.04600
C 	C 	0.82588 0.43470 0.21690 0.33700
C 	C 	0.58723 0.89480 0.98850 -0.12500
H 	H 	0.57230 0.94340 0.97380 0.08000
C 	C 	0.60733 0.83740 0.95000 0.05100
H 	H 	0.60570 0.84620 0.90900 0.03000
C 	C 	0.62995 0.76650 0.97298 -0.11400
C 	C 	0.62989 0.75500 0.03430 0.07600
H 	H 	0.64410 0.70610 0.04980 0.00900
C 	C 	0.65035 0.70230 0.93065 0.26600
C 	C 	0.70470 0.58360 0.91615 0.03900
H 	H 	0.68380 0.56480 0.88530 0.04300
C 	C 	0.74751 0.61280 0.88560 -0.15100
H 	H 	0.74130 0.66080 0.85860 0.08400
H 	H 	0.76830 0.63320 0.91540 0.07700
C 	C 	0.76777 0.53650 0.85080 -0.07800
H 	H 	0.74830 0.52090 0.81820 0.06500
H 	H 	0.79580 0.55490 0.83390 0.04800
C 	C 	0.77522 0.45680 0.89000 -0.06300
H 	H 	0.78570 0.40860 0.86560 0.05300
H 	H 	0.79770 0.46990 0.91950 0.05100
C 	C 	0.73288 0.43000 0.92130 -0.16300
H 	H 	0.73880 0.38130 0.94790 0.09000
H 	H 	0.71140 0.41090 0.89200 0.08600
C 	C 	0.71398 0.50650 0.95700 0.05100
H 	H 	0.73650 0.52490 0.98590 0.03700
C 	C 	0.67659 0.44680 0.04510 0.23200
C 	C 	0.63459 0.43390 0.07860 -0.09900
C 	C 	0.59634 0.48050 0.06750 0.06600
H 	H 	0.59670 0.52140 0.03680 0.01800
C 	C 	0.55884 0.41110 0.14160 0.07000
H 	H 	0.53280 0.40230 0.16270 0.02700
C 	C 	0.59523 0.36220 0.15680 -0.11700
H 	H 	0.59390 0.32240 0.18820 0.07600
C 	C 	0.63384 0.37330 0.12470 0.03700
H 	H 	0.65890 0.34070 0.13380 0.03300
C 	C 	0.58941 0.87970 0.04890 0.07400
H 	H 	0.57570 0.91900 0.07460 0.01800
Cu	Cu	0.88032 0.29962 0.16757 0.91400
N 	N 	0.88935 0.31020 0.07235 -0.18900
O 	O 	0.92683 0.38590 0.18820 -0.39600
C 	C 	0.94028 0.40290 0.24010 0.33600
Cu	Cu	0.86990 0.30393 0.28539 0.92900
O 	O 	0.92466 0.37250 0.28815 -0.37600
C 	C 	0.97815 0.46620 0.24570 -0.08200
N 	N 	0.81531 0.15610 0.94991 -0.24100
H 	H 	0.80420 0.16920 0.98400 0.13800
O 	O 	0.82983 0.21711 0.17119 -0.39100
N 	N 	0.82577 0.98240 0.99050 -0.23100
H 	H 	0.85130 0.99130 0.97470 0.13600
C 	C 	0.01701 0.45950 0.20993 0.04100
O 	O 	0.81590 0.23780 0.26853 -0.40100
N 	N 	0.94101 0.97020 0.09818 -0.12100
C 	C 	0.02357 0.38960 0.16960 -0.07700
H 	H 	0.00170 0.34730 0.16540 0.07400
O 	O 	0.66346 0.89691 0.16898 -0.38100
C 	C 	0.06140 0.38330 0.13670 -0.03000
H 	H 	0.06470 0.33780 0.10950 0.04100
O 	O 	0.66218 0.91296 0.26874 -0.39300
C 	C 	0.09533 0.44530 0.14370 -0.02400
H 	H 	0.12110 0.44030 0.12150 0.03400
O 	O 	0.09556 0.69544 0.21753 -0.39400
C 	C 	0.09057 0.51250 0.18280 -0.08300
H 	H 	0.11350 0.55230 0.18750 0.07600
O 	O 	0.07932 0.70340 0.31487 -0.40200
C 	C 	0.05122 0.52310 0.21658 0.04700
C 	C 	0.04457 0.59340 0.25755 -0.08400
O 	O 	0.86625 0.19280 0.88049 -0.32100
C 	C 	0.07618 0.66990 0.26400 0.35000
O 	O 	0.78780 0.92670 0.06834 -0.23100
C 	C 	0.00693 0.59680 0.29186 -0.01300
H 	H 	0.00320 0.64230 0.31890 0.05100
C 	C 	0.97399 0.53260 0.28653 -0.01600
H 	H 	0.94920 0.53500 0.31090 0.04900
C 	C 	0.80800 0.20460 0.21840 0.34700
C 	C 	0.77029 0.14110 0.21422 -0.09200
C 	C 	0.77851 0.06160 0.18920 -0.00500
H 	H 	0.80610 0.05070 0.17250 0.05100
C 	C 	0.74631 0.99570 0.18810 -0.02500
H 	H 	0.75260 0.94210 0.17040 0.06400
C 	C 	0.70558 0.01030 0.21300 -0.08000
C 	C 	0.69463 0.09360 0.23690 0.03800
C 	C 	0.65169 0.11290 0.25920 -0.07400
H 	H 	0.63020 0.06940 0.25970 0.07000
C 	C 	0.64182 0.19400 0.27980 -0.03000
H 	H 	0.61360 0.20550 0.29420 0.04000
C 	C 	0.67335 0.25990 0.27940 -0.02500
H 	H 	0.66580 0.31530 0.29300 0.03600
C 	C 	0.71533 0.24450 0.25930 -0.08300
H 	H 	0.73620 0.28920 0.25990 0.07000
C 	C 	0.72711 0.16080 0.23769 0.04600
C 	C 	0.67412 0.93470 0.21690 0.33700
C 	C 	0.91277 0.39480 0.98850 -0.12600
H 	H 	0.92770 0.44340 0.97380 0.08000
C 	C 	0.89267 0.33740 0.95000 0.05100
H 	H 	0.89430 0.34620 0.90900 0.03000
C 	C 	0.87005 0.26650 0.97298 -0.11400
C 	C 	0.87011 0.25500 0.03430 0.07700
H 	H 	0.85590 0.20610 0.04980 0.00900
C 	C 	0.84965 0.20230 0.93065 0.26600
C 	C 	0.79530 0.08360 0.91615 0.03900
H 	H 	0.81620 0.06480 0.88530 0.04300
C 	C 	0.75249 0.11280 0.88560 -0.15100
H 	H 	0.75870 0.16080 0.85860 0.08400
H 	H 	0.73170 0.13320 0.91540 0.07700
C 	C 	0.73223 0.03650 0.85080 -0.07800
H 	H 	0.75170 0.02090 0.81820 0.06500
H 	H 	0.70420 0.05490 0.83390 0.04800
C 	C 	0.72478 0.95680 0.89000 -0.06300
H 	H 	0.71430 0.90860 0.86560 0.05300
H 	H 	0.70230 0.96990 0.91950 0.05200
C 	C 	0.76712 0.93000 0.92130 -0.16300
H 	H 	0.76120 0.88130 0.94790 0.09000
H 	H 	0.78860 0.91090 0.89200 0.08600
C 	C 	0.78602 0.00650 0.95700 0.05100
H 	H 	0.76350 0.02490 0.98590 0.03700
C 	C 	0.82341 0.94680 0.04510 0.23100
C 	C 	0.86541 0.93390 0.07860 -0.09800
C 	C 	0.90366 0.98050 0.06750 0.06500
H 	H 	0.90330 0.02140 0.03680 0.01900
C 	C 	0.94116 0.91110 0.14160 0.07000
H 	H 	0.96720 0.90230 0.16270 0.02700
C 	C 	0.90477 0.86220 0.15680 -0.11600
H 	H 	0.90610 0.82240 0.18820 0.07600
C 	C 	0.86616 0.87330 0.12470 0.03600
H 	H 	0.84110 0.84070 0.13380 0.03300
C 	C 	0.91059 0.37970 0.04890 0.07400
H 	H 	0.92430 0.41900 0.07460 0.01700
Cu	Cu	0.61968 0.70038 0.66757 0.91400
N 	N 	0.61065 0.68980 0.57235 -0.18900
O 	O 	0.57317 0.61410 0.68820 -0.39700
C 	C 	0.55972 0.59710 0.74010 0.33600
Cu	Cu	0.63010 0.69607 0.78539 0.92900
O 	O 	0.57534 0.62750 0.78815 -0.37600
C 	C 	0.52185 0.53380 0.74570 -0.08200
N 	N 	0.68469 0.84390 0.44991 -0.24100
H 	H 	0.69580 0.83080 0.48400 0.13800
O 	O 	0.67017 0.78289 0.67119 -0.39100
N 	N 	0.67423 0.01760 0.49050 -0.23100
H 	H 	0.64870 0.00870 0.47470 0.13600
C 	C 	0.48299 0.54050 0.70993 0.04100
O 	O 	0.68410 0.76220 0.76853 -0.40100
N 	N 	0.55899 0.02980 0.59818 -0.12100
C 	C 	0.47643 0.61040 0.66960 -0.07700
H 	H 	0.49830 0.65270 0.66540 0.07400
O 	O 	0.83654 0.10309 0.66898 -0.38100
C 	C 	0.43860 0.61670 0.63670 -0.03000
H 	H 	0.43530 0.66220 0.60950 0.04100
O 	O 	0.83782 0.08704 0.76874 -0.39300
C 	C 	0.40467 0.55470 0.64370 -0.02400
H 	H 	0.37890 0.55970 0.62150 0.03400
O 	O 	0.40444 0.30456 0.71753 -0.39400
C 	C 	0.40943 0.48750 0.68280 -0.08300
H 	H 	0.38650 0.44770 0.68750 0.07600
O 	O 	0.42068 0.29660 0.81487 -0.40200
C 	C 	0.44878 0.47690 0.71658 0.04700
C 	C 	0.45543 0.40660 0.75755 -0.08400
O 	O 	0.63375 0.80720 0.38049 -0.32100
C 	C 	0.42382 0.33010 0.76400 0.35000
O 	O 	0.71220 0.07330 0.56834 -0.23100
C 	C 	0.49307 0.40320 0.79186 -0.01300
H 	H 	0.49680 0.35770 0.81890 0.05100
C 	C 	0.52601 0.46740 0.78653 -0.01600
H 	H 	0.55080 0.46500 0.81090 0.04900
C 	C 	0.69200 0.79540 0.71840 0.34700
C 	C 	0.72971 0.85890 0.71422 -0.09100
C 	C 	0.72149 0.93840 0.68920 -0.00600
H 	H 	0.69390 0.94930 0.67250 0.05100
C 	C 	0.75369 0.00430 0.68810 -0.02400
H 	H 	0.74740 0.05790 0.67040 0.06400
C 	C 	0.79442 0.98970 0.71300 -0.08100
C 	C 	0.80537 0.90640 0.73690 0.03800
C 	C 	0.84831 0.88710 0.75920 -0.07500
H 	H 	0.86980 0.93060 0.75970 0.07100
C 	C 	0.85818 0.80600 0.77980 -0.03000
H 	H 	0.88640 0.79450 0.79420 0.04000
C 	C 	0.82665 0.74010 0.77940 -0.02600
H 	H 	0.83420 0.68470 0.79300 0.03600
C 	C 	0.78467 0.75550 0.75930 -0.08200
H 	H 	0.76380 0.71080 0.75990 0.07000
C 	C 	0.77289 0.83920 0.73769 0.04600
C 	C 	0.82588 0.06530 0.71690 0.33700
C 	C 	0.58723 0.60520 0.48850 -0.12600
H 	H 	0.57230 0.55660 0.47380 0.08000
C 	C 	0.60733 0.66260 0.45000 0.05100
H 	H 	0.60570 0.65380 0.40900 0.03000
C 	C 	0.62995 0.73350 0.47298 -0.11400
C 	C 	0.62989 0.74500 0.53430 0.07700
H 	H 	0.64410 0.79390 0.54980 0.00900
C 	C 	0.65035 0.79770 0.43065 0.26600
C 	C 	0.70470 0.91640 0.41615 0.03900
H 	H 	0.68380 0.93520 0.38530 0.04300
C 	C 	0.74751 0.88720 0.38560 -0.15100
H 	H 	0.74130 0.83920 0.35860 0.08400
H 	H 	0.76830 0.86680 0.41540 0.07700
C 	C 	0.76777 0.96350 0.35080 -0.07800
H 	H 	0.74830 0.97910 0.31820 0.06500
H 	H 	0.79580 0.94510 0.33390 0.04800
C 	C 	0.77522 0.04320 0.39000 -0.06300
H 	H 	0.78570 0.09140 0.36560 0.05300
H 	H 	0.79770 0.03010 0.41950 0.05100
C 	C 	0.73288 0.07000 0.42130 -0.16300
H 	H 	0.73880 0.11870 0.44790 0.09000
H 	H 	0.71140 0.08910 0.39200 0.08600
C 	C 	0.71398 0.99350 0.45700 0.05100
H 	H 	0.73650 0.97510 0.48590 0.03700
C 	C 	0.67659 0.05320 0.54510 0.23200
C 	C 	0.63459 0.06610 0.57860 -0.09900
C 	C 	0.59634 0.01950 0.56750 0.06600
H 	H 	0.59670 0.97860 0.53680 0.01800
C 	C 	0.55884 0.08890 0.64160 0.07000
H 	H 	0.53280 0.09770 0.66270 0.02700
C 	C 	0.59523 0.13780 0.65680 -0.11700
H 	H 	0.59390 0.17760 0.68820 0.07600
C 	C 	0.63384 0.12670 0.62470 0.03700
H 	H 	0.65890 0.15930 0.63380 0.03300
C 	C 	0.58941 0.62030 0.54890 0.07400
H 	H 	0.57570 0.58100 0.57460 0.01700
Cu	Cu	0.11968 0.79962 0.33243 0.91400
N 	N 	0.11065 0.81020 0.42765 -0.18900
O 	O 	0.07317 0.88590 0.31180 -0.39600
C 	C 	0.05972 0.90290 0.25990 0.33600
Cu	Cu	0.13010 0.80393 0.21461 0.92900
O 	O 	0.07534 0.87250 0.21185 -0.37600
C 	C 	0.02185 0.96620 0.25430 -0.08200
N 	N 	0.18469 0.65610 0.55009 -0.24100
H 	H 	0.19580 0.66920 0.51600 0.13800
O 	O 	0.17017 0.71711 0.32881 -0.39100
N 	N 	0.17423 0.48240 0.50950 -0.23100
H 	H 	0.14870 0.49130 0.52530 0.13600
C 	C 	0.98299 0.95950 0.29007 0.04100
O 	O 	0.18410 0.73780 0.23147 -0.40100
N 	N 	0.05899 0.47020 0.40182 -0.12100
C 	C 	0.97643 0.88960 0.33040 -0.07700
H 	H 	0.99830 0.84730 0.33460 0.07400
O 	O 	0.33654 0.39691 0.33102 -0.38100
C 	C 	0.93860 0.88330 0.36330 -0.03000
H 	H 	0.93530 0.83780 0.39050 0.04100
O 	O 	0.33782 0.41296 0.23126 -0.39300
C 	C 	0.90467 0.94530 0.35630 -0.02400
H 	H 	0.87890 0.94030 0.37850 0.03400
O 	O 	0.90444 0.19544 0.28247 -0.39400
C 	C 	0.90943 0.01250 0.31720 -0.08300
H 	H 	0.88650 0.05230 0.31250 0.07600
O 	O 	0.92068 0.20340 0.18513 -0.40200
C 	C 	0.94878 0.02310 0.28342 0.04800
C 	C 	0.95543 0.09340 0.24245 -0.08400
O 	O 	0.13375 0.69280 0.61951 -0.32100
C 	C 	0.92382 0.16990 0.23600 0.35000
O 	O 	0.21220 0.42670 0.43166 -0.23100
C 	C 	0.99307 0.09680 0.20814 -0.01200
H 	H 	0.99680 0.14230 0.18110 0.05100
C 	C 	0.02601 0.03260 0.21347 -0.01700
H 	H 	0.05080 0.03500 0.18910 0.04900
C 	C 	0.19200 0.70460 0.28160 0.34700
C 	C 	0.22971 0.64110 0.28578 -0.09100
C 	C 	0.22149 0.56160 0.31080 -0.00600
H 	H 	0.19390 0.55070 0.32750 0.05100
C 	C 	0.25369 0.49570 0.31190 -0.02400
H 	H 	0.24740 0.44210 0.32960 0.06400
C 	C 	0.29442 0.51030 0.28700 -0.08100
C 	C 	0.30537 0.59360 0.26310 0.03800
C 	C 	0.34831 0.61290 0.24080 -0.07500
H 	H 	0.36980 0.56940 0.24030 0.07100
C 	C 	0.35818 0.69400 0.22020 -0.03000
H 	H 	0.38640 0.70550 0.20580 0.04000
C 	C 	0.32665 0.75990 0.22060 -0.02600
H 	H 	0.33420 0.81530 0.20700 0.03600
C 	C 	0.28467 0.74450 0.24070 -0.08200
H 	H 	0.26380 0.78920 0.24010 0.07000
C 	C 	0.27289 0.66080 0.26231 0.04600
C 	C 	0.32588 0.43470 0.28310 0.33700
C 	C 	0.08723 0.89480 0.51150 -0.12600
H 	H 	0.07230 0.94340 0.52620 0.08000
C 	C 	0.10733 0.83740 0.55000 0.05100
H 	H 	0.10570 0.84620 0.59100 0.03000
C 	C 	0.12995 0.76650 0.52702 -0.11400
C 	C 	0.12989 0.75500 0.46570 0.07700
H 	H 	0.14410 0.70610 0.45020 0.00900
C 	C 	0.15035 0.70230 0.56935 0.26600
C 	C 	0.20470 0.58360 0.58385 0.03900
H 	H 	0.18380 0.56480 0.61470 0.04300
C 	C 	0.24751 0.61280 0.61440 -0.15100
H 	H 	0.24130 0.66080 0.64140 0.08400
H 	H 	0.26830 0.63320 0.58460 0.07700
C 	C 	0.26777 0.53650 0.64920 -0.07800
H 	H 	0.24830 0.52090 0.68180 0.06500
H 	H 	0.29580 0.55490 0.66610 0.04800
C 	C 	0.27522 0.45680 0.61000 -0.06300
H 	H 	0.28570 0.40860 0.63440 0.05300
H 	H 	0.29770 0.46990 0.58050 0.05100
C 	C 	0.23288 0.43000 0.57870 -0.16300
H 	H 	0.23880 0.38130 0.55210 0.09000
H 	H 	0.21140 0.41090 0.60800 0.08600
C 	C 	0.21398 0.50650 0.54300 0.05100
H 	H 	0.23650 0.52490 0.51410 0.03700
C 	C 	0.17659 0.44680 0.45490 0.23200
C 	C 	0.13459 0.43390 0.42140 -0.09900
C 	C 	0.09634 0.48050 0.43250 0.06600
H 	H 	0.09670 0.52140 0.46320 0.01800
C 	C 	0.05884 0.41110 0.35840 0.07000
H 	H 	0.03280 0.40230 0.33730 0.02700
C 	C 	0.09523 0.36220 0.34320 -0.11700
H 	H 	0.09390 0.32240 0.31180 0.07600
C 	C 	0.13384 0.37330 0.37530 0.03700
H 	H 	0.15890 0.34070 0.36620 0.03300
C 	C 	0.08941 0.87970 0.45110 0.07400
H 	H 	0.07570 0.91900 0.42540 0.01700
Cu	Cu	0.38032 0.20038 0.83243 0.91400
N 	N 	0.38935 0.18980 0.92765 -0.18900
O 	O 	0.42683 0.11410 0.81180 -0.39700
C 	C 	0.44028 0.09710 0.75990 0.33600
Cu	Cu	0.36990 0.19607 0.71461 0.92900
O 	O 	0.42466 0.12750 0.71185 -0.37600
C 	C 	0.47815 0.03380 0.75430 -0.08300
N 	N 	0.31531 0.34390 0.05009 -0.24100
H 	H 	0.30420 0.33080 0.01600 0.13800
O 	O 	0.32983 0.28289 0.82881 -0.39100
N 	N 	0.32577 0.51760 0.00950 -0.23100
H 	H 	0.35130 0.50870 0.02530 0.13600
C 	C 	0.51701 0.04050 0.79007 0.04100
O 	O 	0.31590 0.26220 0.73147 -0.40100
N 	N 	0.44101 0.52980 0.90182 -0.12100
C 	C 	0.52357 0.11040 0.83040 -0.07700
H 	H 	0.50170 0.15270 0.83460 0.07400
O 	O 	0.16346 0.60309 0.83102 -0.38100
C 	C 	0.56140 0.11670 0.86330 -0.03000
H 	H 	0.56470 0.16220 0.89050 0.04100
O 	O 	0.16218 0.58704 0.73126 -0.39300
C 	C 	0.59533 0.05470 0.85630 -0.02500
H 	H 	0.62110 0.05970 0.87850 0.03500
O 	O 	0.59556 0.80456 0.78247 -0.39400
C 	C 	0.59057 0.98750 0.81720 -0.08300
H 	H 	0.61350 0.94770 0.81250 0.07600
O 	O 	0.57932 0.79660 0.68513 -0.40200
C 	C 	0.55122 0.97690 0.78342 0.04700
C 	C 	0.54457 0.90660 0.74245 -0.08400
O 	O 	0.36625 0.30720 0.11951 -0.32100
C 	C 	0.57618 0.83010 0.73600 0.35000
O 	O 	0.28780 0.57330 0.93166 -0.23100
C 	C 	0.50693 0.90320 0.70814 -0.01300
H 	H 	0.50320 0.85770 0.68110 0.05100
C 	C 	0.47399 0.96740 0.71347 -0.01600
H 	H 	0.44920 0.96500 0.68910 0.04900
C 	C 	0.30800 0.29540 0.78160 0.34700
C 	C 	0.27029 0.35890 0.78578 -0.09100
C 	C 	0.27851 0.43840 0.81080 -0.00600
H 	H 	0.30610 0.44930 0.82750 0.05100
C 	C 	0.24631 0.50430 0.81190 -0.02400
H 	H 	0.25260 0.55790 0.82960 0.06400
C 	C 	0.20558 0.48970 0.78700 -0.08100
C 	C 	0.19463 0.40640 0.76310 0.03800
C 	C 	0.15169 0.38710 0.74080 -0.07500
H 	H 	0.13020 0.43060 0.74030 0.07100
C 	C 	0.14182 0.30600 0.72020 -0.03000
H 	H 	0.11360 0.29450 0.70580 0.04000
C 	C 	0.17335 0.24010 0.72060 -0.02600
H 	H 	0.16580 0.18470 0.70700 0.03600
C 	C 	0.21533 0.25550 0.74070 -0.08200
H 	H 	0.23620 0.21080 0.74010 0.07000
C 	C 	0.22711 0.33920 0.76231 0.04600
C 	C 	0.17412 0.56530 0.78310 0.33700
C 	C 	0.41277 0.10520 0.01150 -0.12500
H 	H 	0.42770 0.05660 0.02620 0.08000
C 	C 	0.39267 0.16260 0.05000 0.05100
H 	H 	0.39430 0.15380 0.09100 0.03000
C 	C 	0.37005 0.23350 0.02702 -0.11400
C 	C 	0.37011 0.24500 0.96570 0.07600
H 	H 	0.35590 0.29390 0.95020 0.00900
C 	C 	0.34965 0.29770 0.06935 0.26600
C 	C 	0.29530 0.41640 0.08385 0.03900
H 	H 	0.31620 0.43520 0.11470 0.04300
C 	C 	0.25249 0.38720 0.11440 -0.15100
H 	H 	0.25870 0.33920 0.14140 0.08400
H 	H 	0.23170 0.36680 0.08460 0.07700
C 	C 	0.23223 0.46350 0.14920 -0.07800
H 	H 	0.25170 0.47910 0.18180 0.06500
H 	H 	0.20420 0.44510 0.16610 0.04800
C 	C 	0.22478 0.54320 0.11000 -0.06300
H 	H 	0.21430 0.59140 0.13440 0.05300
H 	H 	0.20230 0.53010 0.08050 0.05100
C 	C 	0.26712 0.57000 0.07870 -0.16300
H 	H 	0.26120 0.61870 0.05210 0.09000
H 	H 	0.28860 0.58910 0.10800 0.08600
C 	C 	0.28602 0.49350 0.04300 0.05100
H 	H 	0.26350 0.47510 0.01410 0.03700
C 	C 	0.32341 0.55320 0.95490 0.23200
C 	C 	0.36541 0.56610 0.92140 -0.09900
C 	C 	0.40366 0.51950 0.93250 0.06600
H 	H 	0.40330 0.47860 0.96320 0.01800
C 	C 	0.44116 0.58890 0.85840 0.07000
H 	H 	0.46720 0.59770 0.83730 0.02700
C 	C 	0.40477 0.63780 0.84320 -0.11700
H 	H 	0.40610 0.67760 0.81180 0.07600
C 	C 	0.36616 0.62670 0.87530 0.03700
H 	H 	0.34110 0.65930 0.86620 0.03300
C 	C 	0.41059 0.12030 0.95110 0.07400
H 	H 	0.42430 0.08100 0.92540 0.01800
