data_crystal

_cell_length_a 30.70180
_cell_length_b 30.70180
_cell_length_c 30.70180
_cell_angle_alpha 109.47100
_cell_angle_beta  109.47100
_cell_angle_gamma 109.47100

_symmetry_space_group_name_	'P 1'
_symmetry_space_group_name_H-M	'P 1'

loop_
_symmetry_equiv_pos_as_xyz
  x,y,z

loop_
_atom_site_label
_atom_site_type_symbol
_atom_site_fract_x
_atom_site_fract_y
_atom_site_fract_z
_atom_site_charge
Mn	Mn	0.50000 1.00000 0.50000 1.20900
Mn	Mn	-0.00000 0.00000 -0.00000 1.19700
Mn	Mn	0.50000 0.50000 -0.00000 1.19300
Mn	Mn	1.00000 0.50000 0.50000 1.20900
Mn	Mn	0.50000 1.00000 -0.00000 1.19200
Mn	Mn	0.50000 0.50000 0.50000 1.21100
Mn	Mn	1.00000 1.00000 0.50000 1.20800
Mn	Mn	-0.00000 0.50000 -0.00000 1.19600
Mn	Mn	0.50000 0.13196 0.50000 1.14000
Mn	Mn	0.13196 0.00000 -0.00000 1.12900
Mn	Mn	0.36804 0.36804 0.86804 1.14300
Mn	Mn	-0.00000 0.50000 0.63196 1.14300
Mn	Mn	0.36804 0.00000 -0.00000 1.12900
Mn	Mn	0.50000 0.36804 0.50000 1.13900
Mn	Mn	0.13196 0.13196 0.63196 1.14100
Mn	Mn	1.00000 0.50000 0.86804 1.14100
Mn	Mn	0.50000 0.86804 0.50000 1.13900
Mn	Mn	0.86804 1.00000 1.00000 1.14900
Mn	Mn	0.63196 0.63196 0.13196 1.13600
Mn	Mn	1.00000 0.50000 0.36804 1.13600
Mn	Mn	0.63196 0.00000 -0.00000 1.12000
Mn	Mn	0.50000 0.63196 0.50000 1.13900
Mn	Mn	0.86804 0.86804 0.36804 1.13800
Mn	Mn	0.00000 0.50000 0.13196 1.13800
H 	H 	0.69050 0.16400 0.38750 0.08500
H 	H 	0.63380 0.15630 0.42150 -0.00400
H 	H 	0.72490 0.06240 0.41950 0.08600
H 	H 	0.66720 0.05060 0.45120 0.01300
H 	H 	0.27650 0.30300 0.11250 0.07900
H 	H 	0.23480 0.21230 0.07850 -0.00500
H 	H 	0.14290 0.30540 0.08050 0.07800
H 	H 	0.09940 0.21600 0.04880 0.00900
H 	H 	0.22350 0.33600 0.02650 0.02700
H 	H 	0.26520 0.34370 0.97750 0.10700
H 	H 	0.35710 0.43760 0.16250 0.05300
H 	H 	0.40060 0.44940 0.11660 0.04700
H 	H 	0.80950 0.19700 0.47350 0.08500
H 	H 	0.86620 0.28770 0.52250 -0.00500
H 	H 	0.77510 0.19460 0.33750 0.08500
H 	H 	0.83280 0.28400 0.38340 0.01100
H 	H 	0.52650 0.22350 0.83600 0.08900
H 	H 	0.47750 0.26520 0.84370 -0.00500
H 	H 	0.66250 0.35710 0.93760 0.09300
H 	H 	0.61660 0.40060 0.94940 0.01600
H 	H 	0.97350 0.80950 0.69700 0.07700
H 	H 	0.02250 0.86620 0.78770 0.01500
H 	H 	0.83750 0.77510 0.69460 0.08000
H 	H 	0.88340 0.83280 0.78400 0.01900
H 	H 	0.88750 0.69050 0.66400 0.08400
H 	H 	0.92150 0.63380 0.65630 -0.00300
H 	H 	0.91950 0.72490 0.56240 0.08400
H 	H 	0.95120 0.66720 0.55060 0.01200
H 	H 	0.61250 0.27650 0.80300 0.08900
H 	H 	0.57850 0.23480 0.71230 -0.00700
H 	H 	0.58050 0.14290 0.80540 0.09100
H 	H 	0.54880 0.09940 0.71600 0.01100
H 	H 	0.30300 0.61250 0.77650 0.08700
H 	H 	0.21230 0.57850 0.73480 -0.00100
H 	H 	0.30540 0.58050 0.64290 0.08500
H 	H 	0.21600 0.54880 0.59940 0.01300
H 	H 	0.16400 0.88750 0.19050 0.08400
H 	H 	0.15630 0.92150 0.13380 -0.00800
H 	H 	0.06240 0.91950 0.22490 0.08500
H 	H 	0.05060 0.95120 0.16720 0.00900
H 	H 	0.19700 0.97350 0.30950 0.08100
H 	H 	0.28770 0.02250 0.36620 0.00300
H 	H 	0.19460 0.83750 0.27510 0.08300
H 	H 	0.28400 0.88340 0.33280 0.01500
H 	H 	0.33600 0.52650 0.72350 0.08400
H 	H 	0.34370 0.47750 0.76520 -0.00200
H 	H 	0.43760 0.66250 0.85710 0.08800
H 	H 	0.44940 0.61660 0.90060 0.02200
H 	H 	0.33600 0.80950 0.11250 0.07900
H 	H 	0.34370 0.86620 0.07850 -0.00500
H 	H 	0.43760 0.77510 0.08050 0.07800
H 	H 	0.44940 0.83280 0.04880 0.00800
H 	H 	0.19700 0.22350 0.38750 0.08500
H 	H 	0.28770 0.26520 0.42150 -0.00400
H 	H 	0.19460 0.35710 0.41950 0.08600
H 	H 	0.28400 0.40060 0.45120 0.01300
H 	H 	0.16400 0.27650 0.47350 0.08500
H 	H 	0.15630 0.23480 0.52250 -0.00300
H 	H 	0.06240 0.14290 0.33750 0.08500
H 	H 	0.05060 0.09940 0.38340 0.01300
H 	H 	0.30300 0.69050 0.02650 0.02800
H 	H 	0.21230 0.63380 0.97750 0.10500
H 	H 	0.30540 0.72490 0.16250 0.05400
H 	H 	0.21600 0.66720 0.11660 0.04700
H 	H 	0.27650 0.97350 0.66400 0.08000
H 	H 	0.23480 0.02250 0.65630 0.00700
H 	H 	0.14290 0.83750 0.56240 0.08300
H 	H 	0.09940 0.88340 0.55060 0.01700
H 	H 	0.69050 0.52650 0.80300 0.08900
H 	H 	0.63380 0.47750 0.71230 -0.00800
H 	H 	0.72490 0.66250 0.80540 0.09000
H 	H 	0.66720 0.61660 0.71600 0.01000
H 	H 	0.80950 0.61250 0.83600 0.08900
H 	H 	0.86620 0.57850 0.84370 -0.00600
H 	H 	0.77510 0.58050 0.93760 0.09300
H 	H 	0.83280 0.54880 0.94940 0.01600
H 	H 	0.22350 0.88750 0.69700 0.08500
H 	H 	0.26520 0.92150 0.78770 0.00100
H 	H 	0.35710 0.91950 0.69460 0.08400
H 	H 	0.40060 0.95120 0.78400 0.01400
H 	H 	0.88750 0.19700 0.72350 0.08400
H 	H 	0.92150 0.28770 0.76520 -0.00300
H 	H 	0.91950 0.19460 0.85710 0.08800
H 	H 	0.95120 0.28400 0.90060 0.02100
H 	H 	0.61250 0.33600 0.30950 0.08400
H 	H 	0.57850 0.34370 0.36620 -0.00400
H 	H 	0.58050 0.43760 0.27510 0.08500
H 	H 	0.54880 0.44940 0.33280 0.01300
H 	H 	0.52650 0.30300 0.19050 0.08400
H 	H 	0.47750 0.21230 0.13380 -0.00800
H 	H 	0.66250 0.30540 0.22490 0.08500
H 	H 	0.61660 0.21600 0.16720 0.00900
H 	H 	0.97350 0.16400 0.77650 0.08300
H 	H 	0.02250 0.15630 0.73480 0.00800
H 	H 	0.83750 0.06240 0.64290 0.08400
H 	H 	0.88340 0.05060 0.59940 0.01600
H 	H 	0.30950 0.83600 0.61250 0.08400
H 	H 	0.36620 0.84370 0.57850 -0.00400
H 	H 	0.27510 0.93760 0.58050 0.08500
H 	H 	0.33280 0.94940 0.54880 0.01300
H 	H 	0.72350 0.69700 0.88750 0.08900
H 	H 	0.76520 0.78770 0.92150 -0.00300
H 	H 	0.85710 0.69460 0.91950 0.09200
H 	H 	0.90060 0.78400 0.95120 0.01600
H 	H 	0.77650 0.66400 0.97350 0.13900
H 	H 	0.73480 0.65630 0.02250 -0.11100
H 	H 	0.64290 0.56240 0.83750 0.11700
H 	H 	0.59940 0.55060 0.88340 -0.02000
H 	H 	0.19050 0.80300 0.52650 0.08400
H 	H 	0.13380 0.71230 0.47750 -0.00400
H 	H 	0.22490 0.80540 0.66250 0.08600
H 	H 	0.16720 0.71600 0.61660 0.01500
H 	H 	0.47350 0.77650 0.16400 0.07900
H 	H 	0.52250 0.73480 0.15630 -0.00300
H 	H 	0.33750 0.64290 0.06240 0.07700
H 	H 	0.38340 0.59940 0.05060 0.01000
H 	H 	0.02650 0.19050 0.30300 0.08700
H 	H 	0.97750 0.13380 0.21230 -0.01400
H 	H 	0.16250 0.22490 0.30540 0.08700
H 	H 	0.11660 0.16720 0.21600 0.01000
H 	H 	0.11250 0.30950 0.33600 0.08400
H 	H 	0.07850 0.36620 0.34370 -0.00500
H 	H 	0.08050 0.27510 0.43760 0.08600
H 	H 	0.04880 0.33280 0.44940 0.01300
H 	H 	0.38750 0.72350 0.19700 0.07900
H 	H 	0.42150 0.76520 0.28770 -0.00100
H 	H 	0.41950 0.85710 0.19460 0.08000
H 	H 	0.45120 0.90060 0.28400 0.01500
H 	H 	0.69700 0.38750 0.22350 0.08100
H 	H 	0.78770 0.42150 0.26520 -0.00700
H 	H 	0.69460 0.41950 0.35710 0.08500
H 	H 	0.78400 0.45120 0.40060 0.01300
H 	H 	0.83600 0.11250 0.80950 0.08500
H 	H 	0.84370 0.07850 0.86620 0.00100
H 	H 	0.93760 0.08050 0.77510 0.08600
H 	H 	0.94940 0.04880 0.83280 0.01800
H 	H 	0.80300 0.02650 0.69050 0.09100
H 	H 	0.71230 0.97750 0.63380 -0.01700
H 	H 	0.80540 0.16250 0.72490 0.08900
H 	H 	0.71600 0.11660 0.66720 0.00900
H 	H 	0.66400 0.47350 0.27650 0.08500
H 	H 	0.65630 0.52250 0.23480 -0.00600
H 	H 	0.56240 0.33750 0.14290 0.08200
H 	H 	0.55060 0.38340 0.09940 0.00400
H 	H 	0.66400 0.19050 0.88750 0.08900
H 	H 	0.65630 0.13380 0.92150 -0.00200
H 	H 	0.56240 0.22490 0.91950 0.09300
H 	H 	0.55060 0.16720 0.95120 0.01900
H 	H 	0.80300 0.77650 0.61250 0.08300
H 	H 	0.71230 0.73480 0.57850 -0.00400
H 	H 	0.80540 0.64290 0.58050 0.08500
H 	H 	0.71600 0.59940 0.54880 0.01300
H 	H 	0.83600 0.72350 0.52650 0.08300
H 	H 	0.84370 0.76520 0.47750 -0.00400
H 	H 	0.93760 0.85710 0.66250 0.08400
H 	H 	0.94940 0.90060 0.61660 0.01200
H 	H 	0.69700 0.30950 0.97350 0.14000
H 	H 	0.78770 0.36620 0.02250 -0.11200
H 	H 	0.69460 0.27510 0.83750 0.11700
H 	H 	0.78400 0.33280 0.88340 -0.02100
H 	H 	0.72350 0.02650 0.33600 0.09100
H 	H 	0.76520 0.97750 0.34370 -0.01800
H 	H 	0.85710 0.16250 0.43760 0.08900
H 	H 	0.90060 0.11660 0.44940 0.00800
H 	H 	0.30950 0.47350 0.19700 0.07900
H 	H 	0.36620 0.52250 0.28770 -0.00000
H 	H 	0.27510 0.33750 0.19460 0.08000
H 	H 	0.33280 0.38340 0.28400 0.01600
H 	H 	0.19050 0.38750 0.16400 0.07900
H 	H 	0.13380 0.42150 0.15630 -0.00200
H 	H 	0.22490 0.41950 0.06240 0.07700
H 	H 	0.16720 0.45120 0.05060 0.01000
H 	H 	0.77650 0.11250 0.30300 0.08400
H 	H 	0.73480 0.07850 0.21230 -0.00800
H 	H 	0.64290 0.08050 0.30540 0.08600
H 	H 	0.59940 0.04880 0.21600 0.01200
H 	H 	0.11250 0.80300 0.27650 0.08500
H 	H 	0.07850 0.71230 0.23480 -0.00500
H 	H 	0.08050 0.80540 0.14290 0.08300
H 	H 	0.04880 0.71600 0.09940 0.00500
H 	H 	0.38750 0.66400 0.69050 0.08400
H 	H 	0.42150 0.65630 0.63380 -0.00400
H 	H 	0.41950 0.56240 0.72490 0.08500
H 	H 	0.45120 0.55060 0.66720 0.01300
H 	H 	0.47350 0.69700 0.80950 0.08500
H 	H 	0.52250 0.78770 0.86620 0.00000
H 	H 	0.33750 0.69460 0.77510 0.08600
H 	H 	0.38340 0.78400 0.83280 0.01700
H 	H 	0.02650 0.83600 0.22350 0.08800
H 	H 	0.97750 0.84370 0.26520 -0.02100
H 	H 	0.16250 0.93760 0.35710 0.08900
H 	H 	0.11660 0.94940 0.40060 0.00800
C 	C 	0.60520 0.08950 0.45610 0.12000
C 	C 	0.64210 0.09960 0.43750 -0.08700
C 	C 	0.68620 0.14120 0.40140 -0.17500
C 	C 	0.71450 0.11700 0.40090 0.12900
C 	C 	0.65070 0.13610 0.42040 0.04400
C 	C 	0.70650 0.08120 0.41950 -0.16800
C 	C 	0.67150 0.07390 0.43780 0.04500
C 	C 	0.13340 0.14910 0.04390 0.11400
C 	C 	0.16210 0.20460 0.06250 -0.08400
C 	C 	0.23980 0.28480 0.09860 -0.16300
C 	C 	0.21610 0.31360 0.09910 0.11100
C 	C 	0.21570 0.23030 0.07960 0.03300
C 	C 	0.16170 0.28700 0.08050 -0.15800
C 	C 	0.13610 0.23370 0.06220 0.03500
C 	C 	0.36660 0.41050 0.01570 0.03600
C 	C 	0.33790 0.40040 0.04250 0.03100
C 	C 	0.26020 0.35880 0.04500 -0.03200
C 	C 	0.28390 0.38300 0.09750 0.03600
C 	C 	0.28430 0.36390 0.01460 -0.16700
C 	C 	0.33830 0.41880 0.12530 -0.07300
C 	C 	0.36390 0.42610 0.09760 -0.06000
C 	C 	0.89480 0.35090 0.48430 0.12000
C 	C 	0.85790 0.29540 0.45750 -0.08800
C 	C 	0.81380 0.21520 0.45500 -0.17600
C 	C 	0.78550 0.18640 0.40250 0.12800
C 	C 	0.84930 0.26970 0.48540 0.04400
C 	C 	0.79350 0.21300 0.37470 -0.16800
C 	C 	0.82850 0.26630 0.40240 0.04500
C 	C 	0.51570 0.36660 0.91050 0.12600
C 	C 	0.54250 0.33790 0.90040 -0.08900
C 	C 	0.54500 0.26020 0.85880 -0.18500
C 	C 	0.59750 0.28390 0.88300 0.14200
C 	C 	0.51460 0.28430 0.86390 0.05200
C 	C 	0.62530 0.33830 0.91880 -0.17700
C 	C 	0.59760 0.36390 0.92610 0.05400
C 	C 	0.98430 0.89480 0.85090 0.11000
C 	C 	0.95750 0.85790 0.79540 -0.06700
C 	C 	0.95500 0.81380 0.71520 -0.15200
C 	C 	0.90250 0.78550 0.68640 0.11300
C 	C 	0.98540 0.84930 0.76970 0.01200
C 	C 	0.87470 0.79350 0.71300 -0.15200
C 	C 	0.90240 0.82850 0.76630 0.02800
C 	C 	0.95610 0.60520 0.58950 0.11900
C 	C 	0.93750 0.64210 0.59960 -0.08600
C 	C 	0.90140 0.68620 0.64120 -0.17100
C 	C 	0.90090 0.71450 0.61700 0.12400
C 	C 	0.92040 0.65070 0.63610 0.04100
C 	C 	0.91950 0.70650 0.58120 -0.16400
C 	C 	0.93780 0.67150 0.57390 0.04300
C 	C 	0.54390 0.13340 0.64910 0.12300
C 	C 	0.56250 0.16210 0.70460 -0.09300
C 	C 	0.59860 0.23980 0.78480 -0.18800
C 	C 	0.59910 0.21610 0.81360 0.14200
C 	C 	0.57960 0.21570 0.73030 0.05200
C 	C 	0.58050 0.16170 0.78700 -0.17800
C 	C 	0.56220 0.13610 0.73370 0.05400
C 	C 	0.14910 0.54390 0.63340 0.12100
C 	C 	0.20460 0.56250 0.66210 -0.08600
C 	C 	0.28480 0.59860 0.73980 -0.17300
C 	C 	0.31360 0.59910 0.71610 0.12600
C 	C 	0.23030 0.57960 0.71570 0.04300
C 	C 	0.28700 0.58050 0.66170 -0.16600
C 	C 	0.23370 0.56220 0.63610 0.04400
C 	C 	0.08950 0.95610 0.10520 0.11700
C 	C 	0.09960 0.93750 0.14210 -0.09100
C 	C 	0.14120 0.90140 0.18620 -0.17700
C 	C 	0.11700 0.90090 0.21450 0.12800
C 	C 	0.13610 0.92040 0.15070 0.04300
C 	C 	0.08120 0.91950 0.20650 -0.17000
C 	C 	0.07390 0.93780 0.17150 0.04500
C 	C 	0.35090 0.98430 0.39480 0.11400
C 	C 	0.29540 0.95750 0.35790 -0.07900
C 	C 	0.21520 0.95500 0.31380 -0.16600
C 	C 	0.18640 0.90250 0.28550 0.12200
C 	C 	0.26970 0.98540 0.34930 0.02800
C 	C 	0.21300 0.87470 0.29350 -0.16200
C 	C 	0.26630 0.90240 0.32850 0.03800
C 	C 	0.41050 0.51570 0.86660 0.12300
C 	C 	0.40040 0.54250 0.83790 -0.08100
C 	C 	0.35880 0.54500 0.76020 -0.17000
C 	C 	0.38300 0.59750 0.78390 0.12500
C 	C 	0.36390 0.51460 0.78430 0.04100
C 	C 	0.41880 0.62530 0.83830 -0.16100
C 	C 	0.42610 0.59760 0.86390 0.04200
C 	C 	0.41050 0.89480 0.04390 0.11300
C 	C 	0.40040 0.85790 0.06250 -0.08500
C 	C 	0.35880 0.81380 0.09860 -0.16400
C 	C 	0.38300 0.78550 0.09910 0.11200
C 	C 	0.36390 0.84930 0.07960 0.03300
C 	C 	0.41880 0.79350 0.08050 -0.15800
C 	C 	0.42610 0.82850 0.06220 0.03500
C 	C 	0.35090 0.36660 0.45610 0.12000
C 	C 	0.29540 0.33790 0.43750 -0.08700
C 	C 	0.21520 0.26020 0.40140 -0.17500
C 	C 	0.18640 0.28390 0.40090 0.12700
C 	C 	0.26970 0.28430 0.42040 0.04300
C 	C 	0.21300 0.33830 0.41950 -0.16700
C 	C 	0.26630 0.36390 0.43780 0.04500
C 	C 	0.08950 0.13340 0.48430 0.12000
C 	C 	0.09960 0.16210 0.45750 -0.08600
C 	C 	0.14120 0.23980 0.45500 -0.17400
C 	C 	0.11700 0.21610 0.40250 0.12700
C 	C 	0.13610 0.21570 0.48540 0.04300
C 	C 	0.08120 0.16170 0.37470 -0.16600
C 	C 	0.07390 0.13610 0.40240 0.04400
C 	C 	0.14910 0.60520 0.01570 0.03800
C 	C 	0.20460 0.64210 0.04250 0.02900
C 	C 	0.28480 0.68620 0.04500 -0.03300
C 	C 	0.31360 0.71450 0.09750 0.03700
C 	C 	0.23030 0.65070 0.01460 -0.16400
C 	C 	0.28700 0.70650 0.12530 -0.07500
C 	C 	0.23370 0.67150 0.09760 -0.05900
C 	C 	0.13340 0.98430 0.58950 0.11400
C 	C 	0.16210 0.95750 0.59960 -0.07500
C 	C 	0.23980 0.95500 0.64120 -0.16100
C 	C 	0.21610 0.90250 0.61700 0.11800
C 	C 	0.21570 0.98540 0.63610 0.02500
C 	C 	0.16170 0.87470 0.58120 -0.15700
C 	C 	0.13610 0.90240 0.57390 0.03500
C 	C 	0.60520 0.51570 0.64910 0.12200
C 	C 	0.64210 0.54250 0.70460 -0.09400
C 	C 	0.68620 0.54500 0.78480 -0.18900
C 	C 	0.71450 0.59750 0.81360 0.14200
C 	C 	0.65070 0.51460 0.73030 0.05300
C 	C 	0.70650 0.62530 0.78700 -0.17900
C 	C 	0.67150 0.59760 0.73370 0.05400
C 	C 	0.89480 0.54390 0.91050 0.12500
C 	C 	0.85790 0.56250 0.90040 -0.09000
C 	C 	0.81380 0.59860 0.85880 -0.18500
C 	C 	0.78550 0.59910 0.88300 0.14300
C 	C 	0.84930 0.57960 0.86390 0.05200
C 	C 	0.79350 0.58050 0.91880 -0.17700
C 	C 	0.82850 0.56220 0.92610 0.05500
C 	C 	0.36660 0.95610 0.85090 0.12200
C 	C 	0.33790 0.93750 0.79540 -0.08300
C 	C 	0.26020 0.90140 0.71520 -0.17100
C 	C 	0.28390 0.90090 0.68640 0.12400
C 	C 	0.28430 0.92040 0.76970 0.04100
C 	C 	0.33830 0.91950 0.71300 -0.16400
C 	C 	0.36390 0.93780 0.76630 0.04200
C 	C 	0.95610 0.35090 0.86660 0.12200
C 	C 	0.93750 0.29540 0.83790 -0.08200
C 	C 	0.90140 0.21520 0.76020 -0.17200
C 	C 	0.90090 0.18640 0.78390 0.12600
C 	C 	0.92040 0.26970 0.78430 0.04100
C 	C 	0.91950 0.21300 0.83830 -0.16200
C 	C 	0.93780 0.26630 0.86390 0.04300
C 	C 	0.54390 0.41050 0.39480 0.12000
C 	C 	0.56250 0.40040 0.35790 -0.08700
C 	C 	0.59860 0.35880 0.31380 -0.17400
C 	C 	0.59910 0.38300 0.28550 0.12700
C 	C 	0.57960 0.36390 0.34930 0.04200
C 	C 	0.58050 0.41880 0.29350 -0.16700
C 	C 	0.56220 0.42610 0.32850 0.04400
C 	C 	0.51570 0.14910 0.10520 0.11700
C 	C 	0.54250 0.20460 0.14210 -0.09100
C 	C 	0.54500 0.28480 0.18620 -0.17700
C 	C 	0.59750 0.31360 0.21450 0.12700
C 	C 	0.51460 0.23030 0.15070 0.04300
C 	C 	0.62530 0.28700 0.20650 -0.17000
C 	C 	0.59760 0.23370 0.17150 0.04400
C 	C 	0.98430 0.08950 0.63340 0.11400
C 	C 	0.95750 0.09960 0.66210 -0.07600
C 	C 	0.95500 0.14120 0.73980 -0.16300
C 	C 	0.90250 0.11700 0.71610 0.12100
C 	C 	0.98540 0.13610 0.71570 0.02700
C 	C 	0.87470 0.08120 0.66170 -0.15900
C 	C 	0.90240 0.07390 0.63610 0.03700
C 	C 	0.39480 0.91050 0.54390 0.11900
C 	C 	0.35790 0.90040 0.56250 -0.08600
C 	C 	0.31380 0.85880 0.59860 -0.17200
C 	C 	0.28550 0.88300 0.59910 0.12500
C 	C 	0.34930 0.86390 0.57960 0.04100
C 	C 	0.29350 0.91880 0.58050 -0.16500
C 	C 	0.32850 0.92610 0.56220 0.04300
C 	C 	0.86660 0.85090 0.95610 0.12500
C 	C 	0.83790 0.79540 0.93750 -0.08900
C 	C 	0.76020 0.71520 0.90140 -0.18300
C 	C 	0.78390 0.68640 0.90090 0.14100
C 	C 	0.78430 0.76970 0.92040 0.05100
C 	C 	0.83830 0.71300 0.91950 -0.17400
C 	C 	0.86390 0.76630 0.93780 0.05300
C 	C 	0.63340 0.58950 0.98430 0.20100
C 	C 	0.66210 0.59960 0.95750 -0.20000
C 	C 	0.73980 0.64120 0.95500 -0.31100
C 	C 	0.71610 0.61700 0.90250 0.21400
C 	C 	0.71570 0.63610 0.98540 0.24600
C 	C 	0.66170 0.58120 0.87470 -0.25600
C 	C 	0.63610 0.57390 0.90240 0.14500
C 	C 	0.10520 0.64910 0.51570 0.12000
C 	C 	0.14210 0.70460 0.54250 -0.08500
C 	C 	0.18620 0.78480 0.54500 -0.17200
C 	C 	0.21450 0.81360 0.59750 0.12500
C 	C 	0.15070 0.73030 0.51460 0.04100
C 	C 	0.20650 0.78700 0.62530 -0.16400
C 	C 	0.17150 0.73370 0.59760 0.04300
C 	C 	0.48430 0.63340 0.08950 0.11400
C 	C 	0.45750 0.66210 0.09960 -0.08300
C 	C 	0.45500 0.73980 0.14120 -0.16200
C 	C 	0.40250 0.71610 0.11700 0.11000
C 	C 	0.48540 0.71570 0.13610 0.03200
C 	C 	0.37470 0.66170 0.08120 -0.15500
C 	C 	0.40240 0.63610 0.07390 0.03300
C 	C 	0.01570 0.10520 0.14910 0.12300
C 	C 	0.04250 0.14210 0.20460 -0.09600
C 	C 	0.04500 0.18620 0.28480 -0.18400
C 	C 	0.09750 0.21450 0.31360 0.13200
C 	C 	0.01460 0.15070 0.23030 0.05500
C 	C 	0.12530 0.20650 0.28700 -0.17300
C 	C 	0.09760 0.17150 0.23370 0.05100
C 	C 	0.04390 0.39480 0.41050 0.12000
C 	C 	0.06250 0.35790 0.40040 -0.08700
C 	C 	0.09860 0.31380 0.35880 -0.17500
C 	C 	0.09910 0.28550 0.38300 0.12700
C 	C 	0.07960 0.34930 0.36390 0.04300
C 	C 	0.08050 0.29350 0.41880 -0.16700
C 	C 	0.06220 0.32850 0.42610 0.04400
C 	C 	0.45610 0.86660 0.35090 0.11700
C 	C 	0.43750 0.83790 0.29540 -0.07900
C 	C 	0.40140 0.76020 0.21520 -0.15900
C 	C 	0.40090 0.78390 0.18640 0.11000
C 	C 	0.42040 0.78430 0.26970 0.03200
C 	C 	0.41950 0.83830 0.21300 -0.15300
C 	C 	0.43780 0.86390 0.26630 0.03400
C 	C 	0.85090 0.45610 0.36660 0.11900
C 	C 	0.79540 0.43750 0.33790 -0.08700
C 	C 	0.71520 0.40140 0.26020 -0.17400
C 	C 	0.68640 0.40090 0.28390 0.12600
C 	C 	0.76970 0.42040 0.28430 0.04100
C 	C 	0.71300 0.41950 0.33830 -0.16600
C 	C 	0.76630 0.43780 0.36390 0.04400
C 	C 	0.91050 0.04390 0.89480 0.12400
C 	C 	0.90040 0.06250 0.85790 -0.08100
C 	C 	0.85880 0.09860 0.81380 -0.17000
C 	C 	0.88300 0.09910 0.78550 0.12500
C 	C 	0.86390 0.07960 0.84930 0.04200
C 	C 	0.91880 0.08050 0.79350 -0.16200
C 	C 	0.92610 0.06220 0.82850 0.04300
C 	C 	0.64910 0.01570 0.60520 0.13000
C 	C 	0.70460 0.04250 0.64210 -0.10000
C 	C 	0.78480 0.04500 0.68620 -0.18900
C 	C 	0.81360 0.09750 0.71450 0.13600
C 	C 	0.73030 0.01460 0.65070 0.06700
C 	C 	0.78700 0.12530 0.70650 -0.17600
C 	C 	0.73370 0.09760 0.67150 0.05600
C 	C 	0.58950 0.48430 0.13340 0.11700
C 	C 	0.59960 0.45750 0.16210 -0.09100
C 	C 	0.64120 0.45500 0.23980 -0.17700
C 	C 	0.61700 0.40250 0.21610 0.12700
C 	C 	0.63610 0.48540 0.21570 0.04400
C 	C 	0.58120 0.37470 0.16170 -0.17100
C 	C 	0.57390 0.40240 0.13610 0.04500
C 	C 	0.58950 0.10520 0.95610 0.12700
C 	C 	0.59960 0.14210 0.93750 -0.08700
C 	C 	0.64120 0.18620 0.90140 -0.18200
C 	C 	0.61700 0.21450 0.90090 0.14000
C 	C 	0.63610 0.15070 0.92040 0.05100
C 	C 	0.58120 0.20650 0.91950 -0.17300
C 	C 	0.57390 0.17150 0.93780 0.05200
C 	C 	0.64910 0.63340 0.54390 0.11900
C 	C 	0.70460 0.66210 0.56250 -0.08500
C 	C 	0.78480 0.73980 0.59860 -0.17100
C 	C 	0.81360 0.71610 0.59910 0.12400
C 	C 	0.73030 0.71570 0.57960 0.04100
C 	C 	0.78700 0.66170 0.58050 -0.16400
C 	C 	0.73370 0.63610 0.56220 0.04200
C 	C 	0.91050 0.86660 0.51570 0.11900
C 	C 	0.90040 0.83790 0.54250 -0.08600
C 	C 	0.85880 0.76020 0.54500 -0.17200
C 	C 	0.88300 0.78390 0.59750 0.12400
C 	C 	0.86390 0.78430 0.51460 0.04100
C 	C 	0.91880 0.83830 0.62530 -0.16500
C 	C 	0.92610 0.86390 0.59760 0.04200
C 	C 	0.85090 0.39480 0.98430 0.20100
C 	C 	0.79540 0.35790 0.95750 -0.20100
C 	C 	0.71520 0.31380 0.95500 -0.31200
C 	C 	0.68640 0.28550 0.90250 0.21500
C 	C 	0.76970 0.34930 0.98540 0.24700
C 	C 	0.71300 0.29350 0.87470 -0.25600
C 	C 	0.76630 0.32850 0.90240 0.14500
C 	C 	0.86660 0.01570 0.41050 0.13000
C 	C 	0.83790 0.04250 0.40040 -0.10100
C 	C 	0.76020 0.04500 0.35880 -0.19100
C 	C 	0.78390 0.09750 0.38300 0.13700
C 	C 	0.78430 0.01460 0.36390 0.06700
C 	C 	0.83830 0.12530 0.41880 -0.17800
C 	C 	0.86390 0.09760 0.42610 0.05600
C 	C 	0.39480 0.48430 0.35090 0.11700
C 	C 	0.35790 0.45750 0.29540 -0.07900
C 	C 	0.31380 0.45500 0.21520 -0.15800
C 	C 	0.28550 0.40250 0.18640 0.11000
C 	C 	0.34930 0.48540 0.26970 0.03200
C 	C 	0.29350 0.37470 0.21300 -0.15300
C 	C 	0.32850 0.40240 0.26630 0.03400
C 	C 	0.10520 0.45610 0.08950 0.11400
C 	C 	0.14210 0.43750 0.09960 -0.08300
C 	C 	0.18620 0.40140 0.14120 -0.16100
C 	C 	0.21450 0.40090 0.11700 0.10900
C 	C 	0.15070 0.42040 0.13610 0.03200
C 	C 	0.20650 0.41950 0.08120 -0.15400
C 	C 	0.17150 0.43780 0.07390 0.03300
C 	C 	0.63340 0.04390 0.14910 0.11800
C 	C 	0.66210 0.06250 0.20460 -0.08900
C 	C 	0.73980 0.09860 0.28480 -0.17700
C 	C 	0.71610 0.09910 0.31360 0.12900
C 	C 	0.71570 0.07960 0.23030 0.04400
C 	C 	0.66170 0.08050 0.28700 -0.16800
C 	C 	0.63610 0.06220 0.23370 0.04500
C 	C 	0.04390 0.64910 0.13340 0.11800
C 	C 	0.06250 0.70460 0.16210 -0.09100
C 	C 	0.09860 0.78480 0.23980 -0.17700
C 	C 	0.09910 0.81360 0.21610 0.12800
C 	C 	0.07960 0.73030 0.21570 0.04400
C 	C 	0.08050 0.78700 0.16170 -0.17100
C 	C 	0.06220 0.73370 0.13610 0.04600
C 	C 	0.45610 0.58950 0.60520 0.12000
C 	C 	0.43750 0.59960 0.64210 -0.08600
C 	C 	0.40140 0.64120 0.68620 -0.17300
C 	C 	0.40090 0.61700 0.71450 0.12600
C 	C 	0.42040 0.63610 0.65070 0.04200
C 	C 	0.41950 0.58120 0.70650 -0.16500
C 	C 	0.43780 0.57390 0.67150 0.04400
C 	C 	0.48430 0.85090 0.89480 0.12300
C 	C 	0.45750 0.79540 0.85790 -0.08100
C 	C 	0.45500 0.71520 0.81380 -0.17000
C 	C 	0.40250 0.68640 0.78550 0.12500
C 	C 	0.48540 0.76970 0.84930 0.04100
C 	C 	0.37470 0.71300 0.79350 -0.16200
C 	C 	0.40240 0.76630 0.82850 0.04300
C 	C 	0.01570 0.91050 0.36660 0.13000
C 	C 	0.04250 0.90040 0.33790 -0.10200
C 	C 	0.04500 0.85880 0.26020 -0.19100
C 	C 	0.09750 0.88300 0.28390 0.13600
C 	C 	0.01460 0.86390 0.28430 0.06700
C 	C 	0.12530 0.91880 0.33830 -0.17700
C 	C 	0.09760 0.92610 0.36390 0.05600
C 	C 	0.75000 0.12500 0.37500 -0.15900
C 	C 	0.25000 0.37500 0.12500 -0.12000
C 	C 	0.62500 0.25000 0.87500 -0.18900
C 	C 	0.87500 0.75000 0.62500 -0.15000
C 	C 	0.37500 0.62500 0.75000 -0.15400
C 	C 	0.12500 0.87500 0.25000 -0.15800
C 	C 	0.37500 0.75000 0.12500 -0.12000
C 	C 	0.12500 0.25000 0.37500 -0.15700
C 	C 	0.25000 0.87500 0.62500 -0.15100
C 	C 	0.75000 0.62500 0.87500 -0.18900
C 	C 	0.87500 0.12500 0.75000 -0.15500
C 	C 	0.62500 0.37500 0.25000 -0.15600
N 	N 	0.58400 0.04820 0.46580 -0.11000
N 	N 	0.55160 0.05810 0.48110 -0.17100
N 	N 	0.55090 0.09960 0.48090 -0.20600
N 	N 	0.58330 0.12010 0.46640 -0.13900
N 	N 	0.08240 0.11820 0.03420 -0.11600
N 	N 	0.07700 0.07050 0.01890 -0.17900
N 	N 	0.11870 0.07000 0.01910 -0.21100
N 	N 	0.15370 0.11690 0.03360 -0.14200
N 	N 	0.41760 0.45180 0.03580 -0.12000
N 	N 	0.42300 0.44190 0.99350 -0.14100
N 	N 	0.38130 0.40040 0.95130 -0.20000
N 	N 	0.34630 0.37990 0.96320 -0.10100
N 	N 	0.91600 0.38180 0.46420 -0.11200
N 	N 	0.94840 0.42950 0.50650 -0.17300
N 	N 	0.94910 0.43000 0.54870 -0.20700
N 	N 	0.91670 0.38310 0.53680 -0.13900
N 	N 	0.53580 0.41760 0.95180 -0.10200
N 	N 	0.49350 0.42300 0.94190 -0.16200
N 	N 	0.45130 0.38130 0.90040 -0.20300
N 	N 	0.46320 0.34630 0.87990 -0.13700
N 	N 	0.96420 0.91600 0.88180 -0.11100
N 	N 	0.00650 0.94840 0.92950 -0.15800
N 	N 	0.04870 0.94910 0.93000 -0.19200
N 	N 	0.03680 0.91670 0.88310 -0.12800
N 	N 	0.96580 0.58400 0.54820 -0.11100
N 	N 	0.98110 0.55160 0.55810 -0.17300
N 	N 	0.98090 0.55090 0.59960 -0.20600
N 	N 	0.96640 0.58330 0.62010 -0.13800
N 	N 	0.53420 0.08240 0.61820 -0.11000
N 	N 	0.51890 0.07700 0.57050 -0.17100
N 	N 	0.51910 0.11870 0.57000 -0.20600
N 	N 	0.53360 0.15370 0.61690 -0.13900
N 	N 	0.11820 0.53420 0.58240 -0.11100
N 	N 	0.07050 0.51890 0.57700 -0.17100
N 	N 	0.07000 0.51910 0.61870 -0.20400
N 	N 	0.11690 0.53360 0.65370 -0.13700
N 	N 	0.04820 0.96580 0.08400 -0.11600
N 	N 	0.05810 0.98110 0.05160 -0.17900
N 	N 	0.09960 0.98090 0.05090 -0.21200
N 	N 	0.12010 0.96640 0.08330 -0.14200
N 	N 	0.38180 0.96420 0.41600 -0.11200
N 	N 	0.42950 0.00650 0.44840 -0.16900
N 	N 	0.43000 0.04870 0.44910 -0.20500
N 	N 	0.38310 0.03680 0.41670 -0.13600
N 	N 	0.45180 0.53580 0.91760 -0.10200
N 	N 	0.44190 0.49350 0.92300 -0.16200
N 	N 	0.40040 0.45130 0.88130 -0.20300
N 	N 	0.37990 0.46320 0.84630 -0.13700
N 	N 	0.45180 0.91600 0.03420 -0.11700
N 	N 	0.44190 0.94840 0.01890 -0.18000
N 	N 	0.40040 0.94910 0.01910 -0.21300
N 	N 	0.37990 0.91670 0.03360 -0.14300
N 	N 	0.38180 0.41760 0.46580 -0.11100
N 	N 	0.42950 0.42300 0.48110 -0.17200
N 	N 	0.43000 0.38130 0.48090 -0.20600
N 	N 	0.38310 0.34630 0.46640 -0.13900
N 	N 	0.04820 0.08240 0.46420 -0.11000
N 	N 	0.05810 0.07700 0.50650 -0.17000
N 	N 	0.09960 0.11870 0.54870 -0.20500
N 	N 	0.12010 0.15370 0.53680 -0.13800
N 	N 	0.11820 0.58400 0.03580 -0.11900
N 	N 	0.07050 0.55160 0.99350 -0.14000
N 	N 	0.07000 0.55090 0.95130 -0.19900
N 	N 	0.11690 0.58330 0.96320 -0.10100
N 	N 	0.08240 0.96420 0.54820 -0.11000
N 	N 	0.07700 0.00650 0.55810 -0.16900
N 	N 	0.11870 0.04870 0.59960 -0.20400
N 	N 	0.15370 0.03680 0.62010 -0.13500
N 	N 	0.58400 0.53580 0.61820 -0.11100
N 	N 	0.55160 0.49350 0.57050 -0.17200
N 	N 	0.55090 0.45130 0.57000 -0.20600
N 	N 	0.58330 0.46320 0.61690 -0.13900
N 	N 	0.91600 0.53420 0.95180 -0.10300
N 	N 	0.94840 0.51890 0.94190 -0.16400
N 	N 	0.94910 0.51910 0.90040 -0.20400
N 	N 	0.91670 0.53360 0.87990 -0.13800
N 	N 	0.41760 0.96580 0.88180 -0.10900
N 	N 	0.42300 0.98110 0.92950 -0.16200
N 	N 	0.38130 0.98090 0.93000 -0.19300
N 	N 	0.34630 0.96640 0.88310 -0.13400
N 	N 	0.96580 0.38180 0.91760 -0.10300
N 	N 	0.98110 0.42950 0.92300 -0.16400
N 	N 	0.98090 0.43000 0.88130 -0.20400
N 	N 	0.96640 0.38310 0.84630 -0.13700
N 	N 	0.53420 0.45180 0.41600 -0.11100
N 	N 	0.51890 0.44190 0.44840 -0.17200
N 	N 	0.51910 0.40040 0.44910 -0.20600
N 	N 	0.53360 0.37990 0.41670 -0.13900
N 	N 	0.53580 0.11820 0.08400 -0.11700
N 	N 	0.49350 0.07050 0.05160 -0.17800
N 	N 	0.45130 0.07000 0.05090 -0.21100
N 	N 	0.46320 0.11690 0.08330 -0.14200
N 	N 	0.96420 0.04820 0.58240 -0.11000
N 	N 	0.00650 0.05810 0.57700 -0.16900
N 	N 	0.04870 0.09960 0.61870 -0.20400
N 	N 	0.03680 0.12010 0.65370 -0.13400
N 	N 	0.41600 0.95180 0.53420 -0.11200
N 	N 	0.44840 0.94190 0.51890 -0.17300
N 	N 	0.44910 0.90040 0.51910 -0.20600
N 	N 	0.41670 0.87990 0.53360 -0.13900
N 	N 	0.91760 0.88180 0.96580 -0.10600
N 	N 	0.92300 0.92950 0.98110 -0.16400
N 	N 	0.88130 0.93000 0.98090 -0.20100
N 	N 	0.84630 0.88310 0.96640 -0.13500
N 	N 	0.58240 0.54820 0.96420 -0.10100
N 	N 	0.57700 0.55810 0.00650 -0.19900
N 	N 	0.61870 0.59960 0.04870 -0.21000
N 	N 	0.65370 0.62010 0.03680 -0.17500
N 	N 	0.08400 0.61820 0.53580 -0.11000
N 	N 	0.05160 0.57050 0.49350 -0.17100
N 	N 	0.05090 0.57000 0.45130 -0.20500
N 	N 	0.08330 0.61690 0.46320 -0.13900
N 	N 	0.46420 0.58240 0.04820 -0.11900
N 	N 	0.50650 0.57700 0.05810 -0.17800
N 	N 	0.54870 0.61870 0.09960 -0.20800
N 	N 	0.53680 0.65370 0.12010 -0.14000
N 	N 	0.03580 0.08400 0.11820 -0.11200
N 	N 	0.99350 0.05160 0.07050 -0.18000
N 	N 	0.95130 0.05090 0.07000 -0.21800
N 	N 	0.96320 0.08330 0.11690 -0.14500
N 	N 	0.03420 0.41600 0.45180 -0.11000
N 	N 	0.01890 0.44840 0.44190 -0.17100
N 	N 	0.01910 0.44910 0.40040 -0.20500
N 	N 	0.03360 0.41670 0.37990 -0.13900
N 	N 	0.46580 0.91760 0.38180 -0.11100
N 	N 	0.48110 0.92300 0.42950 -0.17300
N 	N 	0.48090 0.88130 0.43000 -0.20600
N 	N 	0.46640 0.84630 0.38310 -0.13900
N 	N 	0.88180 0.46580 0.41760 -0.11100
N 	N 	0.92950 0.48110 0.42300 -0.17300
N 	N 	0.93000 0.48090 0.38130 -0.20700
N 	N 	0.88310 0.46640 0.34630 -0.14100
N 	N 	0.95180 0.03420 0.91600 -0.10400
N 	N 	0.94190 0.01890 0.94840 -0.16100
N 	N 	0.90040 0.01910 0.94910 -0.19800
N 	N 	0.87990 0.03360 0.91670 -0.13400
N 	N 	0.61820 0.03580 0.58400 -0.11000
N 	N 	0.57050 0.99350 0.55160 -0.17500
N 	N 	0.57000 0.95130 0.55090 -0.20600
N 	N 	0.61690 0.96320 0.58330 -0.14300
N 	N 	0.54820 0.46420 0.08240 -0.11900
N 	N 	0.55810 0.50650 0.07700 -0.17800
N 	N 	0.59960 0.54870 0.11870 -0.20800
N 	N 	0.62010 0.53680 0.15370 -0.14100
N 	N 	0.54820 0.08400 0.96580 -0.10300
N 	N 	0.55810 0.05160 0.98110 -0.15800
N 	N 	0.59960 0.05090 0.98090 -0.19300
N 	N 	0.62010 0.08330 0.96640 -0.13300
N 	N 	0.61820 0.58240 0.53420 -0.11100
N 	N 	0.57050 0.57700 0.51890 -0.17200
N 	N 	0.57000 0.61870 0.51910 -0.20600
N 	N 	0.61690 0.65370 0.53360 -0.13900
N 	N 	0.95180 0.91760 0.53580 -0.11200
N 	N 	0.94190 0.92300 0.49350 -0.17400
N 	N 	0.90040 0.88130 0.45130 -0.20700
N 	N 	0.87990 0.84630 0.46320 -0.14000
N 	N 	0.88180 0.41600 0.96420 -0.10200
N 	N 	0.92950 0.44840 0.00650 -0.19900
N 	N 	0.93000 0.44910 0.04870 -0.21200
N 	N 	0.88310 0.41670 0.03680 -0.17500
N 	N 	0.91760 0.03580 0.45180 -0.11000
N 	N 	0.92300 0.99350 0.44190 -0.17600
N 	N 	0.88130 0.95130 0.40040 -0.20700
N 	N 	0.84630 0.96320 0.37990 -0.14500
N 	N 	0.41600 0.46420 0.38180 -0.11100
N 	N 	0.44840 0.50650 0.42950 -0.17200
N 	N 	0.44910 0.54870 0.43000 -0.20600
N 	N 	0.41670 0.53680 0.38310 -0.13800
N 	N 	0.08400 0.46580 0.04820 -0.11800
N 	N 	0.05160 0.48110 0.05810 -0.17700
N 	N 	0.05090 0.48090 0.09960 -0.20700
N 	N 	0.08330 0.46640 0.12010 -0.14000
N 	N 	0.58240 0.03420 0.11820 -0.11200
N 	N 	0.57700 0.01890 0.07050 -0.17800
N 	N 	0.61870 0.01910 0.07000 -0.21400
N 	N 	0.65370 0.03360 0.11690 -0.14300
N 	N 	0.03420 0.61820 0.08240 -0.11800
N 	N 	0.01890 0.57050 0.07700 -0.17700
N 	N 	0.01910 0.57000 0.11870 -0.20700
N 	N 	0.03360 0.61690 0.15370 -0.14000
N 	N 	0.46580 0.54820 0.58400 -0.11100
N 	N 	0.48110 0.55810 0.55160 -0.17200
N 	N 	0.48090 0.59960 0.55090 -0.20600
N 	N 	0.46640 0.62010 0.58330 -0.13900
N 	N 	0.46420 0.88180 0.91600 -0.10400
N 	N 	0.50650 0.92950 0.94840 -0.16200
N 	N 	0.54870 0.93000 0.94910 -0.19700
N 	N 	0.53680 0.88310 0.91670 -0.13500
N 	N 	0.03580 0.95180 0.41760 -0.11000
N 	N 	0.99350 0.94190 0.42300 -0.17600
N 	N 	0.95130 0.90040 0.38130 -0.20700
N 	N 	0.96320 0.87990 0.34630 -0.14500
