data_crystal

_cell_length_a 33.41240
_cell_length_b 33.41240
_cell_length_c 13.06650
_cell_angle_alpha 90.00000
_cell_angle_beta  90.00000
_cell_angle_gamma 90.00000

_symmetry_space_group_name_	'P 1'
_symmetry_space_group_name_H-M	'P 1'

loop_
_symmetry_equiv_pos_as_xyz
  x,y,z

loop_
_atom_site_label
_atom_site_type_symbol
_atom_site_fract_x
_atom_site_fract_y
_atom_site_fract_z
_atom_site_charge
Mn	Mn	0.22320 0.84376 0.99697 1.28700
O 	O 	0.25016 0.72338 0.09200 -0.50000
O 	O 	0.23981 0.78308 0.01470 -0.46800
O 	O 	0.16351 0.78286 0.67890 -0.54000
O 	O 	0.15012 0.72441 0.61230 -0.40900
O 	O 	0.11400 0.51065 0.97840 -0.27400
O 	O 	0.11178 0.54296 0.68520 -0.27600
O 	O 	0.31188 0.37418 0.61910 -0.48000
O 	O 	0.33560 0.33756 0.75140 -0.48100
O 	O 	0.27360 0.35062 0.09220 -0.44300
O 	O 	0.21790 0.38550 0.11290 -0.34700
C 	C 	0.23320 0.74580 0.02300 0.36000
C 	C 	0.20510 0.72569 0.95010 -0.12000
C 	C 	0.19497 0.74467 0.85900 0.04200
H 	H 	0.20390 0.77120 0.84630 0.01200
C 	C 	0.17183 0.72482 0.78670 -0.11100
C 	C 	0.15881 0.68599 0.80530 -0.03100
H 	H 	0.14300 0.67240 0.75590 0.03500
C 	C 	0.16894 0.66701 0.89640 0.01300
C 	C 	0.19208 0.68685 0.96880 0.00500
H 	H 	0.19900 0.67390 0.03100 0.00900
C 	C 	0.16020 0.74510 0.69130 0.33300
C 	C 	0.15518 0.62498 0.91620 -0.11200
C 	C 	0.16434 0.59362 0.85040 0.15200
C 	C 	0.15062 0.55522 0.87150 -0.10600
C 	C 	0.12773 0.54819 0.95850 0.22600
C 	C 	0.11857 0.57955 0.02440 -0.29600
C 	C 	0.13230 0.61794 0.00320 0.07700
H 	H 	0.12600 0.63940 0.04820 -0.01300
C 	C 	0.19190 0.59980 0.75700 -0.49300
H 	H 	0.19910 0.62810 0.75150 0.16500
H 	H 	0.17790 0.59140 0.69470 0.16500
H 	H 	0.21630 0.58380 0.76550 0.15600
C 	C 	0.16037 0.52003 0.80480 -0.10400
C 	C 	0.13955 0.51504 0.71360 0.21600
C 	C 	0.14667 0.48163 0.65290 -0.29700
C 	C 	0.17462 0.45321 0.68330 0.10600
H 	H 	0.17950 0.43040 0.64190 -0.02000
C 	C 	0.19545 0.45821 0.77450 -0.14100
C 	C 	0.18832 0.49162 0.83530 0.15900
C 	C 	0.21370 0.50210 0.93120 -0.49500
H 	H 	0.23230 0.48010 0.94560 0.16400
H 	H 	0.19590 0.50590 0.99010 0.16800
H 	H 	0.22880 0.52670 0.91850 0.15800
C 	C 	0.22357 0.42522 0.81060 0.04900
C 	C 	0.25256 0.40987 0.74520 -0.05000
H 	H 	0.25400 0.41890 0.67630 0.04600
C 	C 	0.27952 0.38137 0.78060 -0.08800
C 	C 	0.27748 0.36821 0.88130 -0.00600
H 	H 	0.29590 0.34870 0.90550 0.04200
C 	C 	0.24849 0.38356 0.94680 -0.05500
C 	C 	0.22153 0.41206 0.91140 -0.08200
H 	H 	0.20170 0.42260 0.95610 0.05600
C 	C 	0.24450 0.37300 0.06040 0.28500
C 	C 	0.31000 0.36420 0.71030 0.34400
C 	C 	0.09350 0.57180 0.12510 0.63500
C 	C 	0.05150 0.55530 0.09700 -0.87000
H 	H 	0.03620 0.55040 0.15980 0.26000
H 	H 	0.05440 0.53020 0.05910 0.26100
H 	H 	0.03730 0.57490 0.05450 0.27200
C 	C 	0.11470 0.54140 0.19440 -0.87000
H 	H 	0.09860 0.53700 0.25610 0.24200
H 	H 	0.14110 0.55180 0.21370 0.25100
H 	H 	0.11800 0.51610 0.15760 0.26700
C 	C 	0.08700 0.60920 0.18640 -0.94100
H 	H 	0.07150 0.60280 0.24790 0.28900
H 	H 	0.07240 0.62880 0.14500 0.30500
H 	H 	0.11300 0.62040 0.20650 0.28400
C 	C 	0.12470 0.47650 0.54650 0.66800
C 	C 	0.07960 0.47430 0.56100 -0.94300
H 	H 	0.06660 0.47130 0.49420 0.28000
H 	H 	0.07020 0.49890 0.59380 0.28900
H 	H 	0.07300 0.45130 0.60430 0.29600
C 	C 	0.13560 0.51270 0.47690 -0.87900
H 	H 	0.12220 0.50990 0.41060 0.24800
H 	H 	0.16470 0.51350 0.46640 0.25600
H 	H 	0.12690 0.53760 0.50970 0.27300
C 	C 	0.13640 0.43860 0.49320 -0.97500
H 	H 	0.12230 0.43680 0.42760 0.29500
H 	H 	0.12930 0.41560 0.53610 0.31200
H 	H 	0.16530 0.43860 0.48090 0.29600
Mn	Mn	0.77680 0.15624 0.49697 1.28000
O 	O 	0.74984 0.27662 0.59200 -0.49900
O 	O 	0.76019 0.21692 0.51470 -0.46500
O 	O 	0.83649 0.21714 0.17890 -0.54300
O 	O 	0.84988 0.27559 0.11230 -0.41400
O 	O 	0.88600 0.48935 0.47840 -0.27800
O 	O 	0.88822 0.45704 0.18520 -0.27200
O 	O 	0.68812 0.62582 0.11910 -0.48500
O 	O 	0.66440 0.66244 0.25140 -0.48500
O 	O 	0.72640 0.64938 0.59220 -0.44200
O 	O 	0.78210 0.61450 0.61290 -0.34400
C 	C 	0.76680 0.25420 0.52300 0.36600
C 	C 	0.79490 0.27431 0.45010 -0.12100
C 	C 	0.80503 0.25533 0.35900 0.03900
H 	H 	0.79610 0.22880 0.34630 0.01200
C 	C 	0.82817 0.27518 0.28670 -0.10900
C 	C 	0.84119 0.31401 0.30530 -0.03900
H 	H 	0.85700 0.32760 0.25590 0.03700
C 	C 	0.83106 0.33299 0.39640 0.02700
C 	C 	0.80792 0.31315 0.46880 -0.02300
H 	H 	0.80100 0.32610 0.53100 0.02600
C 	C 	0.83980 0.25490 0.19130 0.33200
C 	C 	0.84482 0.37502 0.41620 -0.13400
C 	C 	0.83566 0.40638 0.35040 0.15800
C 	C 	0.84938 0.44478 0.37150 -0.10900
C 	C 	0.87227 0.45181 0.45850 0.21700
C 	C 	0.88143 0.42045 0.52440 -0.29200
C 	C 	0.86770 0.38206 0.50320 0.09900
H 	H 	0.87400 0.36060 0.54820 -0.01800
C 	C 	0.80810 0.40020 0.25700 -0.49700
H 	H 	0.80090 0.37190 0.25150 0.16500
H 	H 	0.82210 0.40860 0.19470 0.16500
H 	H 	0.78370 0.41620 0.26550 0.15500
C 	C 	0.83963 0.47997 0.30480 -0.09600
C 	C 	0.86045 0.48496 0.21360 0.20200
C 	C 	0.85333 0.51837 0.15290 -0.26700
C 	C 	0.82538 0.54679 0.18330 0.08600
H 	H 	0.82050 0.56960 0.14190 -0.01400
C 	C 	0.80455 0.54179 0.27450 -0.12900
C 	C 	0.81168 0.50838 0.33530 0.14800
C 	C 	0.78630 0.49790 0.43120 -0.48200
H 	H 	0.76770 0.51990 0.44560 0.15800
H 	H 	0.80410 0.49410 0.49010 0.16200
H 	H 	0.77120 0.47330 0.41850 0.15200
C 	C 	0.77643 0.57478 0.31060 0.03900
C 	C 	0.74744 0.59013 0.24520 -0.04100
H 	H 	0.74600 0.58110 0.17630 0.04200
C 	C 	0.72048 0.61863 0.28060 -0.09700
C 	C 	0.72252 0.63179 0.38130 0.00600
H 	H 	0.70410 0.65130 0.40550 0.03400
C 	C 	0.75151 0.61644 0.44680 -0.07700
C 	C 	0.77847 0.58794 0.41140 -0.07000
H 	H 	0.79830 0.57740 0.45610 0.04900
C 	C 	0.75550 0.62700 0.56040 0.30300
C 	C 	0.69000 0.63580 0.21030 0.34700
C 	C 	0.90650 0.42820 0.62510 0.64800
C 	C 	0.94850 0.44470 0.59700 -0.88700
H 	H 	0.96380 0.44960 0.65980 0.26600
H 	H 	0.94560 0.46980 0.55910 0.27100
H 	H 	0.96270 0.42510 0.55450 0.28100
C 	C 	0.88530 0.45860 0.69440 -0.88800
H 	H 	0.90140 0.46300 0.75610 0.25100
H 	H 	0.85890 0.44820 0.71370 0.26000
H 	H 	0.88200 0.48390 0.65760 0.27700
C 	C 	0.91300 0.39080 0.68640 -0.95600
H 	H 	0.92850 0.39720 0.74790 0.29600
H 	H 	0.92760 0.37120 0.64500 0.31000
H 	H 	0.88700 0.37960 0.70650 0.29000
C 	C 	0.87530 0.52350 0.04650 0.58000
C 	C 	0.92040 0.52570 0.06100 -0.91900
H 	H 	0.93340 0.52870 0.99420 0.28400
H 	H 	0.92980 0.50110 0.09380 0.27900
H 	H 	0.92700 0.54870 0.10430 0.28700
C 	C 	0.86440 0.48730 0.97690 -0.74600
H 	H 	0.87780 0.49010 0.91060 0.21300
H 	H 	0.83530 0.48650 0.96640 0.22500
H 	H 	0.87310 0.46240 0.00970 0.22500
C 	C 	0.86360 0.56140 0.99320 -0.83600
H 	H 	0.87770 0.56320 0.92760 0.26000
H 	H 	0.87070 0.58440 0.03610 0.26400
H 	H 	0.83470 0.56140 0.98090 0.26300
Mn	Mn	0.65624 0.72320 0.24697 1.28000
O 	O 	0.77662 0.75016 0.34200 -0.50100
O 	O 	0.71692 0.73981 0.26470 -0.46600
O 	O 	0.71714 0.66351 0.92890 -0.53800
O 	O 	0.77559 0.65012 0.86230 -0.40800
O 	O 	0.98935 0.61400 0.22840 -0.27800
O 	O 	0.95704 0.61178 0.93520 -0.27500
O 	O 	0.12582 0.81188 0.86910 -0.48800
O 	O 	0.16244 0.83560 0.00140 -0.50000
O 	O 	0.14938 0.77360 0.34220 -0.44400
O 	O 	0.11450 0.71790 0.36290 -0.34800
C 	C 	0.75420 0.73320 0.27300 0.36800
C 	C 	0.77431 0.70510 0.20010 -0.12700
C 	C 	0.75533 0.69497 0.10900 0.04800
H 	H 	0.72880 0.70390 0.09630 0.00600
C 	C 	0.77518 0.67183 0.03670 -0.13000
C 	C 	0.81401 0.65881 0.05530 -0.03000
H 	H 	0.82760 0.64300 0.00590 0.03100
C 	C 	0.83299 0.66894 0.14640 0.02200
C 	C 	0.81315 0.69208 0.21880 -0.01900
H 	H 	0.82610 0.69900 0.28100 0.02400
C 	C 	0.75490 0.66020 0.94130 0.35100
C 	C 	0.87502 0.65518 0.16620 -0.13600
C 	C 	0.90638 0.66434 0.10040 0.16700
C 	C 	0.94478 0.65062 0.12150 -0.10700
C 	C 	0.95181 0.62773 0.20850 0.21500
C 	C 	0.92045 0.61857 0.27440 -0.29000
C 	C 	0.88206 0.63230 0.25320 0.09900
H 	H 	0.86060 0.62600 0.29820 -0.01700
C 	C 	0.90020 0.69190 0.00700 -0.54600
H 	H 	0.87190 0.69910 0.00150 0.17700
H 	H 	0.90860 0.67790 0.94470 0.19100
H 	H 	0.91620 0.71630 0.01550 0.16700
C 	C 	0.97997 0.66037 0.05480 -0.12400
C 	C 	0.98496 0.63955 0.96360 0.23900
C 	C 	0.01837 0.64667 0.90290 -0.31000
C 	C 	0.04679 0.67462 0.93330 0.13000
H 	H 	0.06960 0.67950 0.89190 -0.02500
C 	C 	0.04179 0.69545 0.02450 -0.15200
C 	C 	0.00838 0.68832 0.08530 0.16500
C 	C 	0.99790 0.71370 0.18120 -0.49500
H 	H 	0.01990 0.73230 0.19560 0.16100
H 	H 	0.99410 0.69590 0.24010 0.16500
H 	H 	0.97330 0.72880 0.16850 0.15400
C 	C 	0.07478 0.72357 0.06060 0.01500
C 	C 	0.09013 0.75256 0.99520 0.00800
H 	H 	0.08110 0.75400 0.92630 0.03000
C 	C 	0.11863 0.77952 0.03060 -0.14400
C 	C 	0.13179 0.77748 0.13130 0.03100
H 	H 	0.15130 0.79590 0.15550 0.02500
C 	C 	0.11644 0.74849 0.19680 -0.09300
C 	C 	0.08794 0.72153 0.16140 -0.05400
H 	H 	0.07740 0.70170 0.20610 0.04300
C 	C 	0.12700 0.74450 0.31040 0.30800
C 	C 	0.13580 0.81000 0.96030 0.38100
C 	C 	0.92820 0.59350 0.37510 0.64300
C 	C 	0.94470 0.55150 0.34700 -0.88200
H 	H 	0.94960 0.53620 0.40980 0.26400
H 	H 	0.96980 0.55440 0.30910 0.27000
H 	H 	0.92510 0.53730 0.30450 0.28000
C 	C 	0.95860 0.61470 0.44440 -0.87900
H 	H 	0.96300 0.59860 0.50610 0.24500
H 	H 	0.94820 0.64110 0.46370 0.25600
H 	H 	0.98390 0.61800 0.40760 0.27300
C 	C 	0.89080 0.58700 0.43640 -0.94900
H 	H 	0.89720 0.57150 0.49790 0.29200
H 	H 	0.87120 0.57240 0.39500 0.30800
H 	H 	0.87960 0.61300 0.45650 0.28700
C 	C 	0.02350 0.62470 0.79650 0.68100
C 	C 	0.02570 0.57960 0.81100 -0.95700
H 	H 	0.02870 0.56660 0.74420 0.28400
H 	H 	0.00110 0.57020 0.84380 0.29500
H 	H 	0.04870 0.57300 0.85430 0.30300
C 	C 	0.98730 0.63560 0.72690 -0.89000
H 	H 	0.99010 0.62220 0.66060 0.25100
H 	H 	0.98650 0.66470 0.71640 0.26100
H 	H 	0.96240 0.62690 0.75970 0.27700
C 	C 	0.06140 0.63640 0.74320 -0.98800
H 	H 	0.06320 0.62230 0.67760 0.30000
H 	H 	0.08440 0.62930 0.78610 0.31700
H 	H 	0.06140 0.66530 0.73090 0.30100
Mn	Mn	0.34376 0.27680 0.74697 1.28100
O 	O 	0.22338 0.24984 0.84200 -0.49400
O 	O 	0.28308 0.26019 0.76470 -0.46300
O 	O 	0.28286 0.33649 0.42890 -0.54000
O 	O 	0.22441 0.34988 0.36230 -0.41000
O 	O 	0.01065 0.38600 0.72840 -0.27600
O 	O 	0.04296 0.38822 0.43520 -0.27600
O 	O 	0.87418 0.18812 0.36910 -0.48200
O 	O 	0.83756 0.16440 0.50140 -0.48400
O 	O 	0.85062 0.22640 0.84220 -0.43900
O 	O 	0.88550 0.28210 0.86290 -0.34000
C 	C 	0.24580 0.26680 0.77300 0.36600
C 	C 	0.22569 0.29490 0.70010 -0.12000
C 	C 	0.24467 0.30503 0.60900 0.03800
H 	H 	0.27120 0.29610 0.59630 0.01200
C 	C 	0.22482 0.32817 0.53670 -0.10800
C 	C 	0.18599 0.34119 0.55530 -0.03900
H 	H 	0.17240 0.35700 0.50590 0.03800
C 	C 	0.16701 0.33106 0.64640 0.02700
C 	C 	0.18685 0.30792 0.71880 -0.02300
H 	H 	0.17390 0.30100 0.78100 0.02800
C 	C 	0.24510 0.33980 0.44130 0.33200
C 	C 	0.12498 0.34482 0.66620 -0.13100
C 	C 	0.09362 0.33566 0.60040 0.15600
C 	C 	0.05522 0.34938 0.62150 -0.10500
C 	C 	0.04819 0.37227 0.70850 0.21200
C 	C 	0.07955 0.38143 0.77440 -0.28200
C 	C 	0.11794 0.36770 0.75320 0.09400
H 	H 	0.13940 0.37400 0.79820 -0.01500
C 	C 	0.09980 0.30810 0.50700 -0.49700
H 	H 	0.12810 0.30090 0.50150 0.16600
H 	H 	0.09140 0.32210 0.44470 0.16600
H 	H 	0.08380 0.28370 0.51550 0.15600
C 	C 	0.02003 0.33963 0.55480 -0.10400
C 	C 	0.01504 0.36045 0.46360 0.21500
C 	C 	0.98163 0.35333 0.40290 -0.29500
C 	C 	0.95321 0.32538 0.43330 0.10300
H 	H 	0.93040 0.32050 0.39190 -0.01900
C 	C 	0.95821 0.30455 0.52450 -0.13800
C 	C 	0.99162 0.31168 0.58530 0.15600
C 	C 	0.00210 0.28630 0.68120 -0.49000
H 	H 	0.98010 0.26770 0.69560 0.16100
H 	H 	0.00590 0.30410 0.74010 0.16500
H 	H 	0.02670 0.27120 0.66850 0.15500
C 	C 	0.92522 0.27643 0.56060 0.04300
C 	C 	0.90987 0.24744 0.49520 -0.04400
H 	H 	0.91890 0.24600 0.42630 0.04400
C 	C 	0.88137 0.22048 0.53060 -0.09500
C 	C 	0.86821 0.22252 0.63130 0.00400
H 	H 	0.84870 0.20410 0.65550 0.03500
C 	C 	0.88356 0.25151 0.69680 -0.07500
C 	C 	0.91206 0.27847 0.66140 -0.07300
H 	H 	0.92260 0.29830 0.70610 0.05000
C 	C 	0.87300 0.25550 0.81040 0.30200
C 	C 	0.86420 0.19000 0.46030 0.34600
C 	C 	0.07180 0.40650 0.87510 0.62400
C 	C 	0.05530 0.44850 0.84700 -0.86900
H 	H 	0.05040 0.46380 0.90980 0.26400
H 	H 	0.03020 0.44560 0.80910 0.26700
H 	H 	0.07490 0.46270 0.80450 0.27600
C 	C 	0.04140 0.38530 0.94440 -0.81900
H 	H 	0.03700 0.40140 0.00610 0.21700
H 	H 	0.05180 0.35890 0.96370 0.24300
H 	H 	0.01610 0.38200 0.90760 0.25900
C 	C 	0.10920 0.41300 0.93640 -0.93600
H 	H 	0.10280 0.42850 0.99790 0.29300
H 	H 	0.12880 0.42760 0.89500 0.30500
H 	H 	0.12040 0.38700 0.95650 0.28600
C 	C 	0.97650 0.37530 0.29650 0.66400
C 	C 	0.97430 0.42040 0.31100 -0.93900
H 	H 	0.97130 0.43340 0.24420 0.27800
H 	H 	0.99890 0.42980 0.34380 0.28700
H 	H 	0.95130 0.42700 0.35430 0.29500
C 	C 	0.01270 0.36440 0.22690 -0.87300
H 	H 	0.00990 0.37780 0.16060 0.24400
H 	H 	0.01350 0.33530 0.21640 0.25300
H 	H 	0.03760 0.37310 0.25970 0.27000
C 	C 	0.93860 0.36360 0.24320 -0.97000
H 	H 	0.93680 0.37770 0.17760 0.29300
H 	H 	0.91560 0.37070 0.28610 0.31000
H 	H 	0.93860 0.33470 0.23090 0.29400
Mn	Mn	0.27680 0.34376 0.25303 1.28000
O 	O 	0.24984 0.22338 0.15800 -0.50200
O 	O 	0.26019 0.28308 0.23530 -0.46600
O 	O 	0.33649 0.28286 0.57110 -0.53900
O 	O 	0.34988 0.22441 0.63770 -0.40700
O 	O 	0.38600 0.01065 0.27160 -0.27900
O 	O 	0.38822 0.04296 0.56480 -0.27600
O 	O 	0.18812 0.87418 0.63090 -0.48000
O 	O 	0.16440 0.83756 0.49860 -0.48300
O 	O 	0.22640 0.85062 0.15780 -0.44400
O 	O 	0.28210 0.88550 0.13710 -0.35000
C 	C 	0.26680 0.24580 0.22700 0.36700
C 	C 	0.29490 0.22569 0.29990 -0.12100
C 	C 	0.30503 0.24467 0.39100 0.03900
H 	H 	0.29610 0.27120 0.40370 0.01200
C 	C 	0.32817 0.22482 0.46330 -0.10700
C 	C 	0.34119 0.18599 0.44470 -0.04000
H 	H 	0.35700 0.17240 0.49410 0.03800
C 	C 	0.33106 0.16701 0.35360 0.02700
C 	C 	0.30792 0.18685 0.28120 -0.02300
H 	H 	0.30100 0.17390 0.21900 0.02500
C 	C 	0.33980 0.24510 0.55870 0.33100
C 	C 	0.34482 0.12498 0.33380 -0.13500
C 	C 	0.33566 0.09362 0.39960 0.15900
C 	C 	0.34938 0.05522 0.37850 -0.10800
C 	C 	0.37227 0.04819 0.29150 0.21700
C 	C 	0.38143 0.07955 0.22560 -0.29500
C 	C 	0.36770 0.11794 0.24680 0.10000
H 	H 	0.37400 0.13940 0.20180 -0.01900
C 	C 	0.30810 0.09980 0.49300 -0.50100
H 	H 	0.30090 0.12810 0.49850 0.16800
H 	H 	0.32210 0.09140 0.55530 0.16800
H 	H 	0.28370 0.08380 0.48450 0.15700
C 	C 	0.33963 0.02003 0.44520 -0.10200
C 	C 	0.36045 0.01504 0.53640 0.21500
C 	C 	0.35333 0.98163 0.59710 -0.29700
C 	C 	0.32538 0.95321 0.56670 0.10400
H 	H 	0.32050 0.93040 0.60810 -0.01900
C 	C 	0.30455 0.95821 0.47550 -0.13700
C 	C 	0.31168 0.99162 0.41470 0.15400
C 	C 	0.28630 0.00210 0.31880 -0.48400
H 	H 	0.26770 0.98010 0.30440 0.15800
H 	H 	0.30410 0.00590 0.25990 0.16000
H 	H 	0.27120 0.02670 0.33150 0.15200
C 	C 	0.27643 0.92522 0.43940 0.04300
C 	C 	0.24744 0.90987 0.50480 -0.04400
H 	H 	0.24600 0.91890 0.57370 0.04500
C 	C 	0.22048 0.88137 0.46940 -0.09500
C 	C 	0.22252 0.86821 0.36870 0.00400
H 	H 	0.20410 0.84870 0.34450 0.03500
C 	C 	0.25151 0.88356 0.30320 -0.07700
C 	C 	0.27847 0.91206 0.33860 -0.07200
H 	H 	0.29830 0.92260 0.29390 0.04800
C 	C 	0.25550 0.87300 0.18960 0.30300
C 	C 	0.19000 0.86420 0.53970 0.34600
C 	C 	0.40650 0.07180 0.12490 0.65600
C 	C 	0.44850 0.05530 0.15300 -0.89100
H 	H 	0.46380 0.05040 0.09020 0.26300
H 	H 	0.44560 0.03020 0.19090 0.27100
H 	H 	0.46270 0.07490 0.19550 0.28100
C 	C 	0.38530 0.04140 0.05560 -0.92500
H 	H 	0.40140 0.03700 0.99390 0.26800
H 	H 	0.35890 0.05180 0.03630 0.26500
H 	H 	0.38200 0.01610 0.09240 0.28300
C 	C 	0.41300 0.10920 0.06360 -0.95600
H 	H 	0.42850 0.10280 0.00210 0.29000
H 	H 	0.42760 0.12880 0.10500 0.30900
H 	H 	0.38700 0.12040 0.04350 0.28600
C 	C 	0.37530 0.97650 0.70350 0.67200
C 	C 	0.42040 0.97430 0.68900 -0.94700
H 	H 	0.43340 0.97130 0.75580 0.28100
H 	H 	0.42980 0.99890 0.65620 0.29000
H 	H 	0.42700 0.95130 0.64570 0.29700
C 	C 	0.36440 0.01270 0.77310 -0.88500
H 	H 	0.37780 0.00990 0.83940 0.25100
H 	H 	0.33530 0.01350 0.78360 0.26000
H 	H 	0.37310 0.03760 0.74030 0.27600
C 	C 	0.36360 0.93860 0.75680 -0.98100
H 	H 	0.37770 0.93680 0.82240 0.29900
H 	H 	0.37070 0.91560 0.71390 0.31400
H 	H 	0.33470 0.93860 0.76910 0.29900
Mn	Mn	0.72320 0.65624 0.75303 1.28100
O 	O 	0.75016 0.77662 0.65800 -0.49900
O 	O 	0.73981 0.71692 0.73530 -0.46400
O 	O 	0.66351 0.71714 0.07110 -0.54000
O 	O 	0.65012 0.77559 0.13770 -0.40800
O 	O 	0.61400 0.98935 0.77160 -0.27800
O 	O 	0.61178 0.95704 0.06480 -0.27700
O 	O 	0.81188 0.12582 0.13090 -0.47100
O 	O 	0.83560 0.16244 0.99860 -0.45900
O 	O 	0.77360 0.14938 0.65780 -0.44000
O 	O 	0.71790 0.11450 0.63710 -0.34300
C 	C 	0.73320 0.75420 0.72700 0.36500
C 	C 	0.70510 0.77431 0.79990 -0.11500
C 	C 	0.69497 0.75533 0.89100 0.02900
H 	H 	0.70390 0.72880 0.90370 0.01800
C 	C 	0.67183 0.77518 0.96330 -0.08700
C 	C 	0.65881 0.81401 0.94470 -0.04800
H 	H 	0.64300 0.82760 0.99410 0.04400
C 	C 	0.66894 0.83299 0.85360 0.03100
C 	C 	0.69208 0.81315 0.78120 -0.02700
H 	H 	0.69900 0.82610 0.71900 0.02700
C 	C 	0.66020 0.75490 0.05870 0.31400
C 	C 	0.65518 0.87502 0.83380 -0.13200
C 	C 	0.66434 0.90638 0.89960 0.14900
C 	C 	0.65062 0.94478 0.87850 -0.10600
C 	C 	0.62773 0.95181 0.79150 0.21500
C 	C 	0.61857 0.92045 0.72560 -0.28800
C 	C 	0.63230 0.88206 0.74680 0.09500
H 	H 	0.62600 0.86060 0.70180 -0.01700
C 	C 	0.69190 0.90020 0.99300 -0.45600
H 	H 	0.69910 0.87190 0.99850 0.15800
H 	H 	0.67790 0.90860 0.05530 0.14500
H 	H 	0.71630 0.91620 0.98450 0.14800
C 	C 	0.66037 0.97997 0.94520 -0.08400
C 	C 	0.63955 0.98496 0.03640 0.19300
C 	C 	0.64667 0.01837 0.09710 -0.28300
C 	C 	0.67462 0.04679 0.06670 0.07800
H 	H 	0.67950 0.06960 0.10810 -0.01400
C 	C 	0.69545 0.04179 0.97550 -0.12500
C 	C 	0.68832 0.00838 0.91470 0.14800
C 	C 	0.71370 0.99790 0.81880 -0.48300
H 	H 	0.73230 0.01990 0.80440 0.15900
H 	H 	0.69590 0.99410 0.75990 0.16100
H 	H 	0.72880 0.97330 0.83150 0.15400
C 	C 	0.72357 0.07478 0.93940 0.08300
C 	C 	0.75256 0.09013 0.00480 -0.11800
H 	H 	0.75400 0.08110 0.07370 0.06500
C 	C 	0.77952 0.11863 0.96940 -0.02600
C 	C 	0.77748 0.13179 0.86870 -0.03400
H 	H 	0.79590 0.15130 0.84450 0.04800
C 	C 	0.74849 0.11644 0.80320 -0.05100
C 	C 	0.72153 0.08794 0.83860 -0.09900
H 	H 	0.70170 0.07740 0.79390 0.05800
C 	C 	0.74450 0.12700 0.68960 0.29400
C 	C 	0.81000 0.13580 0.03970 0.29500
C 	C 	0.59350 0.92820 0.62490 0.64000
C 	C 	0.55150 0.94470 0.65300 -0.88000
H 	H 	0.53620 0.94960 0.59020 0.26300
H 	H 	0.55440 0.96980 0.69090 0.26900
H 	H 	0.53730 0.92510 0.69550 0.27800
C 	C 	0.61470 0.95860 0.55560 -0.87700
H 	H 	0.59860 0.96300 0.49390 0.24500
H 	H 	0.64110 0.94820 0.53630 0.25500
H 	H 	0.61800 0.98390 0.59240 0.27200
C 	C 	0.58700 0.89080 0.56360 -0.94600
H 	H 	0.57150 0.89720 0.50210 0.29000
H 	H 	0.57240 0.87120 0.60500 0.30700
H 	H 	0.61300 0.87960 0.54350 0.28500
C 	C 	0.62470 0.02350 0.20350 0.65700
C 	C 	0.57960 0.02570 0.18900 -0.93100
H 	H 	0.56660 0.02870 0.25580 0.27600
H 	H 	0.57020 0.00110 0.15620 0.28300
H 	H 	0.57300 0.04870 0.14570 0.29000
C 	C 	0.63560 0.98730 0.27310 -0.86900
H 	H 	0.62220 0.99010 0.33940 0.24500
H 	H 	0.66470 0.98650 0.28360 0.25300
H 	H 	0.62690 0.96240 0.24030 0.27000
C 	C 	0.63640 0.06140 0.25680 -0.96500
H 	H 	0.62230 0.06320 0.32240 0.29300
H 	H 	0.62930 0.08440 0.21390 0.30800
H 	H 	0.66530 0.06140 0.26910 0.29300
Mn	Mn	0.84376 0.22320 0.00303 1.27200
O 	O 	0.72338 0.25016 0.90800 -0.49800
O 	O 	0.78308 0.23981 0.98530 -0.45800
O 	O 	0.78286 0.16351 0.32110 -0.54000
O 	O 	0.72441 0.15012 0.38770 -0.40800
O 	O 	0.51065 0.11400 0.02160 -0.28200
O 	O 	0.54296 0.11178 0.31480 -0.27600
O 	O 	0.37418 0.31188 0.38090 -0.48200
O 	O 	0.33756 0.33560 0.24860 -0.48500
O 	O 	0.35062 0.27360 0.90780 -0.44100
O 	O 	0.38550 0.21790 0.88710 -0.34500
C 	C 	0.74580 0.23320 0.97700 0.37800
C 	C 	0.72569 0.20510 0.04990 -0.12500
C 	C 	0.74467 0.19497 0.14100 0.03500
H 	H 	0.77120 0.20390 0.15370 0.01100
C 	C 	0.72482 0.17183 0.21330 -0.10300
C 	C 	0.68599 0.15881 0.19470 -0.05100
H 	H 	0.67240 0.14300 0.24410 0.04200
C 	C 	0.66701 0.16894 0.10360 0.04500
C 	C 	0.68685 0.19208 0.03120 -0.05900
H 	H 	0.67390 0.19900 0.96900 0.04800
C 	C 	0.74510 0.16020 0.30870 0.32900
C 	C 	0.62498 0.15518 0.08380 -0.16000
C 	C 	0.59362 0.16434 0.14960 0.16600
C 	C 	0.55522 0.15062 0.12850 -0.10900
C 	C 	0.54819 0.12773 0.04150 0.20400
C 	C 	0.57955 0.11857 0.97560 -0.28300
C 	C 	0.61794 0.13230 0.99680 0.12300
H 	H 	0.63940 0.12600 0.95180 -0.02300
C 	C 	0.59980 0.19190 0.24300 -0.50600
H 	H 	0.62810 0.19910 0.24850 0.16800
H 	H 	0.59140 0.17790 0.30530 0.16900
H 	H 	0.58380 0.21630 0.23450 0.15800
C 	C 	0.52003 0.16037 0.19520 -0.10000
C 	C 	0.51504 0.13955 0.28640 0.21400
C 	C 	0.48163 0.14667 0.34710 -0.29500
C 	C 	0.45321 0.17462 0.31670 0.10200
H 	H 	0.43040 0.17950 0.35810 -0.01800
C 	C 	0.45821 0.19545 0.22550 -0.13300
C 	C 	0.49162 0.18832 0.16470 0.15000
C 	C 	0.50210 0.21370 0.06880 -0.47700
H 	H 	0.48010 0.23230 0.05440 0.15400
H 	H 	0.50590 0.19590 0.00990 0.15600
H 	H 	0.52670 0.22880 0.08150 0.14800
C 	C 	0.42522 0.22357 0.18940 0.03600
C 	C 	0.40987 0.25256 0.25480 -0.03900
H 	H 	0.41890 0.25400 0.32370 0.04300
C 	C 	0.38137 0.27952 0.21940 -0.10200
C 	C 	0.36821 0.27748 0.11870 0.01400
H 	H 	0.34870 0.29590 0.09450 0.02800
C 	C 	0.38356 0.24849 0.05320 -0.09600
C 	C 	0.41206 0.22153 0.08860 -0.06200
H 	H 	0.42260 0.20170 0.04390 0.04300
C 	C 	0.37300 0.24450 0.93960 0.32000
C 	C 	0.36420 0.31000 0.28970 0.34800
C 	C 	0.57180 0.09350 0.87490 0.64900
C 	C 	0.55530 0.05150 0.90300 -0.89200
H 	H 	0.55040 0.03620 0.84020 0.26800
H 	H 	0.53020 0.05440 0.94090 0.27700
H 	H 	0.57490 0.03730 0.94550 0.28600
C 	C 	0.54140 0.11470 0.80560 -0.88700
H 	H 	0.53700 0.09860 0.74390 0.24800
H 	H 	0.55180 0.14110 0.78630 0.25900
H 	H 	0.51610 0.11800 0.84240 0.27900
C 	C 	0.60920 0.08700 0.81360 -0.95400
H 	H 	0.60280 0.07150 0.75210 0.29300
H 	H 	0.62880 0.07240 0.85500 0.31000
H 	H 	0.62040 0.11300 0.79350 0.28800
C 	C 	0.47650 0.12470 0.45350 0.66900
C 	C 	0.47430 0.07960 0.43900 -0.94400
H 	H 	0.47130 0.06660 0.50580 0.28000
H 	H 	0.49890 0.07020 0.40620 0.28900
H 	H 	0.45130 0.07300 0.39570 0.29600
C 	C 	0.51270 0.13560 0.52310 -0.88100
H 	H 	0.50990 0.12220 0.58940 0.24900
H 	H 	0.51350 0.16470 0.53360 0.25800
H 	H 	0.53760 0.12690 0.49030 0.27400
C 	C 	0.43860 0.13640 0.50680 -0.97800
H 	H 	0.43680 0.12230 0.57240 0.29700
H 	H 	0.41560 0.12930 0.46390 0.31300
H 	H 	0.43860 0.16530 0.51910 0.29800
Mn	Mn	0.15624 0.77680 0.50303 1.28000
O 	O 	0.27662 0.74984 0.40800 -0.50000
O 	O 	0.21692 0.76019 0.48530 -0.46500
O 	O 	0.21714 0.83649 0.82110 -0.53800
O 	O 	0.27559 0.84988 0.88770 -0.40500
O 	O 	0.48935 0.88600 0.52160 -0.27800
O 	O 	0.45704 0.88822 0.81480 -0.27900
O 	O 	0.62582 0.68812 0.88090 -0.47500
O 	O 	0.66244 0.66440 0.74860 -0.48200
O 	O 	0.64938 0.72640 0.40780 -0.44300
O 	O 	0.61450 0.78210 0.38710 -0.34700
C 	C 	0.25420 0.76680 0.47700 0.36700
C 	C 	0.27431 0.79490 0.54990 -0.12100
C 	C 	0.25533 0.80503 0.64100 0.03800
H 	H 	0.22880 0.79610 0.65370 0.01200
C 	C 	0.27518 0.82817 0.71330 -0.10600
C 	C 	0.31401 0.84119 0.69470 -0.04000
H 	H 	0.32760 0.85700 0.74410 0.03900
C 	C 	0.33299 0.83106 0.60360 0.02700
C 	C 	0.31315 0.80792 0.53120 -0.02300
H 	H 	0.32610 0.80100 0.46900 0.02500
C 	C 	0.25490 0.83980 0.80870 0.33100
C 	C 	0.37502 0.84482 0.58380 -0.13300
C 	C 	0.40638 0.83566 0.64960 0.15700
C 	C 	0.44478 0.84938 0.62850 -0.10500
C 	C 	0.45181 0.87227 0.54150 0.21300
C 	C 	0.42045 0.88143 0.47560 -0.28700
C 	C 	0.38206 0.86770 0.49680 0.09600
H 	H 	0.36060 0.87400 0.45180 -0.01700
C 	C 	0.40020 0.80810 0.74300 -0.50000
H 	H 	0.37190 0.80090 0.74850 0.16800
H 	H 	0.40860 0.82210 0.80530 0.16800
H 	H 	0.41620 0.78370 0.73450 0.15800
C 	C 	0.47997 0.83963 0.69520 -0.10700
C 	C 	0.48496 0.86045 0.78640 0.22400
C 	C 	0.51837 0.85333 0.84710 -0.31600
C 	C 	0.54679 0.82538 0.81670 0.11700
H 	H 	0.56960 0.82050 0.85810 -0.02300
C 	C 	0.54179 0.80455 0.72550 -0.14300
C 	C 	0.50838 0.81168 0.66470 0.15900
C 	C 	0.49790 0.78630 0.56880 -0.49000
H 	H 	0.51990 0.76770 0.55440 0.16000
H 	H 	0.49410 0.80410 0.50990 0.16300
H 	H 	0.47330 0.77120 0.58150 0.15400
C 	C 	0.57478 0.77643 0.68940 0.04600
C 	C 	0.59013 0.74744 0.75480 -0.04700
H 	H 	0.58110 0.74600 0.82370 0.04700
C 	C 	0.61863 0.72048 0.71940 -0.09300
C 	C 	0.63179 0.72252 0.61870 0.00300
H 	H 	0.65130 0.70410 0.59450 0.03500
C 	C 	0.61644 0.75151 0.55320 -0.07500
C 	C 	0.58794 0.77847 0.58860 -0.07400
H 	H 	0.57740 0.79830 0.54390 0.04900
C 	C 	0.62700 0.75550 0.43960 0.30200
C 	C 	0.63580 0.69000 0.78970 0.34400
C 	C 	0.42820 0.90650 0.37490 0.63700
C 	C 	0.44470 0.94850 0.40300 -0.87700
H 	H 	0.44960 0.96380 0.34020 0.26200
H 	H 	0.46980 0.94560 0.44090 0.26800
H 	H 	0.42510 0.96270 0.44550 0.27800
C 	C 	0.45860 0.88530 0.30560 -0.87100
H 	H 	0.46300 0.90140 0.24390 0.24100
H 	H 	0.44820 0.85890 0.28630 0.25200
H 	H 	0.48390 0.88200 0.34240 0.27000
C 	C 	0.39080 0.91300 0.31360 -0.94100
H 	H 	0.39720 0.92850 0.25210 0.28800
H 	H 	0.37120 0.92760 0.35500 0.30600
H 	H 	0.37960 0.88700 0.29350 0.28300
C 	C 	0.52350 0.87530 0.95350 0.73300
C 	C 	0.52570 0.92040 0.93900 -0.96000
H 	H 	0.52870 0.93340 0.00580 0.27600
H 	H 	0.50110 0.92980 0.90620 0.29500
H 	H 	0.54870 0.92700 0.89570 0.30300
C 	C 	0.48730 0.86440 0.02310 -0.97300
H 	H 	0.49010 0.87780 0.08940 0.27300
H 	H 	0.48650 0.83530 0.03360 0.27900
H 	H 	0.46240 0.87310 0.99030 0.30700
C 	C 	0.56140 0.86360 0.00680 -1.08000
H 	H 	0.56320 0.87770 0.07240 0.32300
H 	H 	0.58440 0.87070 0.96390 0.34900
H 	H 	0.56140 0.83470 0.01910 0.32200
Mn	Mn	0.26659 0.73341 0.25000 1.17700
Mn	Mn	0.73341 0.26659 0.75000 1.17900
Mn	Mn	0.76659 0.76659 0.50000 1.17800
Mn	Mn	0.23341 0.23341 -0.00000 1.17200
Mn	Mn	0.15725 0.84275 0.75000 1.24200
Mn	Mn	0.84275 0.15725 0.25000 1.24000
Mn	Mn	0.65725 0.65725 -0.00000 1.23600
Mn	Mn	0.34275 0.34275 0.50000 1.24100
