data_crystal

_cell_length_a 22.20550
_cell_length_b 22.20550
_cell_length_c 33.17290
_cell_angle_alpha 90.00000
_cell_angle_beta  90.00000
_cell_angle_gamma 120.00000

_symmetry_space_group_name_	'P 1'
_symmetry_space_group_name_H-M	'P 1'

loop_
_symmetry_equiv_pos_as_xyz
  x,y,z

loop_
_atom_site_label
_atom_site_type_symbol
_atom_site_fract_x
_atom_site_fract_y
_atom_site_fract_z
_atom_site_charge
O 	O 	0.45310 0.77620 0.63026 -0.49000
C 	C 	0.57580 0.57820 0.35800 1.66800
H 	H 	0.54450 0.53030 0.36300 -0.53600
C 	C 	0.63340 0.60040 0.33340 -1.31900
C 	C 	0.60040 0.74830 0.39080 0.78600
C 	C 	0.61530 0.69910 0.36940 -1.17000
C 	C 	0.57260 0.73330 0.42960 0.12600
H 	H 	0.56700 0.69310 0.44320 -0.07800
C 	C 	0.67910 0.66910 0.32450 0.68900
H 	H 	0.71600 0.68090 0.30600 -0.04700
C 	C 	0.67120 0.72140 0.34260 0.61100
H 	H 	0.70200 0.76920 0.33710 -0.09300
C 	C 	0.56640 0.62990 0.37480 -1.17200
H 	H 	0.52590 0.61760 0.39020 0.34700
C 	C 	0.51490 0.70440 0.51060 0.18200
H 	H 	0.52030 0.66990 0.49670 -0.05600
C 	C 	0.49280 0.69320 0.55000 0.13100
H 	H 	0.48490 0.65210 0.56340 -0.11500
O 	O 	0.59140 0.48110 0.31860 -0.33100
C 	C 	0.63630 0.54130 0.31320 0.93900
O 	O 	0.69000 0.55460 0.29550 -0.52200
C 	C 	0.52150 0.81290 0.55610 -0.15300
H 	H 	0.51160 0.84550 0.56860 0.15900
C 	C 	0.55210 0.82840 0.51830 -0.24900
H 	H 	0.56360 0.87160 0.50620 0.09500
O 	O 	0.64170 0.50800 0.30350 -0.69100
C 	C 	0.68650 0.56770 0.30820 0.23100
O 	O 	0.74800 0.58840 0.29820 -0.48200
C 	C 	0.67620 0.61750 0.33380 1.12300
C 	C 	0.62090 0.59130 0.35990 -1.05000
H 	H 	0.59250 0.54250 0.36350 0.19000
C 	C 	0.60720 0.63650 0.38080 0.59900
H 	H 	0.56770 0.61790 0.39800 0.12400
C 	C 	0.70730 0.73350 0.35250 -0.90800
H 	H 	0.73840 0.78210 0.35010 0.34100
C 	C 	0.71980 0.68810 0.33120 -1.00700
H 	H 	0.75950 0.70570 0.31420 0.34200
C 	C 	0.64930 0.70920 0.37770 1.13000
C 	C 	0.63480 0.76230 0.39770 -0.63900
C 	C 	0.60820 0.74930 0.43660 -0.29400
H 	H 	0.59890 0.70770 0.44990 0.14200
O 	O 	0.22380 0.67690 0.63026 -0.48800
C 	C 	0.42180 0.99760 0.35800 1.65400
H 	H 	0.46970 0.01420 0.36300 -0.53100
C 	C 	0.39960 0.03300 0.33340 -1.28600
C 	C 	0.25170 0.85210 0.39080 0.78800
C 	C 	0.30090 0.91620 0.36940 -1.17000
C 	C 	0.26670 0.83930 0.42960 0.12800
H 	H 	0.30690 0.87390 0.44320 -0.07700
C 	C 	0.33090 0.01000 0.32450 0.69000
H 	H 	0.31910 0.03510 0.30600 -0.04600
C 	C 	0.27860 0.94980 0.34260 0.59200
H 	H 	0.23080 0.93280 0.33710 -0.08700
C 	C 	0.37010 0.93650 0.37480 -1.16400
H 	H 	0.38240 0.90830 0.39020 0.34600
C 	C 	0.29560 0.81050 0.51060 0.18300
H 	H 	0.33010 0.85040 0.49670 -0.05500
C 	C 	0.30680 0.79960 0.55000 0.13200
H 	H 	0.34790 0.83280 0.56340 -0.11400
O 	O 	0.51890 0.11030 0.31860 -0.33000
C 	C 	0.45870 0.09500 0.31320 0.94000
O 	O 	0.44540 0.13540 0.29550 -0.50900
C 	C 	0.18710 0.70860 0.55610 -0.15200
H 	H 	0.15450 0.66610 0.56860 0.16000
C 	C 	0.17160 0.72370 0.51830 -0.24800
H 	H 	0.12840 0.69200 0.50620 0.09600
O 	O 	0.49200 0.13370 0.30350 -0.69200
C 	C 	0.43230 0.11880 0.30820 0.22000
O 	O 	0.41160 0.15960 0.29820 -0.48100
C 	C 	0.38250 0.05870 0.33380 1.10200
C 	C 	0.40870 0.02960 0.35990 -1.05900
H 	H 	0.45750 0.05000 0.36350 0.19600
C 	C 	0.36350 0.97070 0.38080 0.60300
H 	H 	0.38210 0.94980 0.39800 0.12200
C 	C 	0.26650 0.97380 0.35250 -0.89300
H 	H 	0.21790 0.95630 0.35010 0.33500
C 	C 	0.31190 0.03170 0.33120 -0.99700
H 	H 	0.29430 0.05380 0.31420 0.34100
C 	C 	0.29080 0.94010 0.37770 1.13400
C 	C 	0.23770 0.87250 0.39770 -0.64100
C 	C 	0.25070 0.85890 0.43660 -0.29500
H 	H 	0.29230 0.89120 0.44990 0.14300
O 	O 	0.32310 0.54690 0.63026 -0.48900
C 	C 	0.00240 0.42420 0.35800 1.65400
H 	H 	0.98580 0.45550 0.36300 -0.53100
C 	C 	0.96700 0.36660 0.33340 -1.28500
C 	C 	0.14790 0.39960 0.39080 0.78900
C 	C 	0.08380 0.38470 0.36940 -1.17000
C 	C 	0.16070 0.42740 0.42960 0.12900
H 	H 	0.12610 0.43300 0.44320 -0.07700
C 	C 	0.99000 0.32090 0.32450 0.69000
H 	H 	0.96490 0.28400 0.30600 -0.04600
C 	C 	0.05020 0.32880 0.34260 0.59200
H 	H 	0.06720 0.29800 0.33710 -0.08700
C 	C 	0.06350 0.43360 0.37480 -1.16400
H 	H 	0.09170 0.47410 0.39020 0.34700
C 	C 	0.18950 0.48510 0.51060 0.18300
H 	H 	0.14960 0.47970 0.49670 -0.05500
C 	C 	0.20040 0.50720 0.55000 0.13200
H 	H 	0.16720 0.51510 0.56340 -0.11400
O 	O 	0.88970 0.40860 0.31860 -0.33000
C 	C 	0.90500 0.36370 0.31320 0.94000
O 	O 	0.86460 0.31000 0.29550 -0.50900
C 	C 	0.29140 0.47850 0.55610 -0.15200
H 	H 	0.33390 0.48840 0.56860 0.15900
C 	C 	0.27630 0.44790 0.51830 -0.24800
H 	H 	0.30800 0.43640 0.50620 0.09500
O 	O 	0.86630 0.35830 0.30350 -0.69200
C 	C 	0.88120 0.31350 0.30820 0.21900
O 	O 	0.84040 0.25200 0.29820 -0.48100
C 	C 	0.94130 0.32380 0.33380 1.10200
C 	C 	0.97040 0.37910 0.35990 -1.05900
H 	H 	0.95000 0.40750 0.36350 0.19600
C 	C 	0.02930 0.39280 0.38080 0.60300
H 	H 	0.05020 0.43230 0.39800 0.12200
C 	C 	0.02620 0.29270 0.35250 -0.89300
H 	H 	0.04370 0.26160 0.35010 0.33500
C 	C 	0.96830 0.28020 0.33120 -0.99700
H 	H 	0.94620 0.24050 0.31420 0.34200
C 	C 	0.05990 0.35070 0.37770 1.13400
C 	C 	0.12750 0.36520 0.39770 -0.64100
C 	C 	0.14110 0.39180 0.43660 -0.29500
H 	H 	0.10880 0.40110 0.44990 0.14300
O 	O 	0.54690 0.22380 0.13026 -0.48800
C 	C 	0.42420 0.42180 0.85800 1.66900
H 	H 	0.45550 0.46970 0.86300 -0.53500
C 	C 	0.36660 0.39960 0.83340 -1.31800
C 	C 	0.39960 0.25170 0.89080 0.78700
C 	C 	0.38470 0.30090 0.86940 -1.16900
C 	C 	0.42740 0.26670 0.92960 0.12400
H 	H 	0.43300 0.30690 0.94320 -0.07500
C 	C 	0.32090 0.33090 0.82450 0.69000
H 	H 	0.28400 0.31910 0.80600 -0.04600
C 	C 	0.32880 0.27860 0.84260 0.61200
H 	H 	0.29800 0.23080 0.83710 -0.09200
C 	C 	0.43360 0.37010 0.87480 -1.17100
H 	H 	0.47410 0.38240 0.89020 0.34800
C 	C 	0.48510 0.29560 0.01060 0.19200
H 	H 	0.47970 0.33010 0.99670 -0.05900
C 	C 	0.50720 0.30680 0.05000 0.13300
H 	H 	0.51510 0.34790 0.06340 -0.11600
O 	O 	0.40860 0.51890 0.81860 -0.33000
C 	C 	0.36370 0.45870 0.81320 0.94000
O 	O 	0.31000 0.44540 0.79550 -0.52200
C 	C 	0.47850 0.18710 0.05610 -0.15100
H 	H 	0.48840 0.15450 0.06860 0.15900
C 	C 	0.44790 0.17160 0.01830 -0.23900
H 	H 	0.43640 0.12840 0.00620 0.09500
O 	O 	0.35830 0.49200 0.80350 -0.68900
C 	C 	0.31350 0.43230 0.80820 0.23200
O 	O 	0.25200 0.41160 0.79820 -0.48100
C 	C 	0.32380 0.38250 0.83380 1.12400
C 	C 	0.37910 0.40870 0.85990 -1.04900
H 	H 	0.40750 0.45750 0.86350 0.19100
C 	C 	0.39280 0.36350 0.88080 0.60000
H 	H 	0.43230 0.38210 0.89800 0.12500
C 	C 	0.29270 0.26650 0.85250 -0.90800
H 	H 	0.26160 0.21790 0.85010 0.34200
C 	C 	0.28020 0.31190 0.83120 -1.00600
H 	H 	0.24050 0.29430 0.81420 0.34400
C 	C 	0.35070 0.29080 0.87770 1.13100
C 	C 	0.36520 0.23770 0.89770 -0.63900
C 	C 	0.39180 0.25070 0.93660 -0.29200
H 	H 	0.40110 0.29230 0.94990 0.14100
O 	O 	0.77620 0.32310 0.13026 -0.48800
C 	C 	0.57820 0.00240 0.85800 1.64000
H 	H 	0.53030 0.98580 0.86300 -0.52700
C 	C 	0.60040 0.96700 0.83340 -1.25200
C 	C 	0.74830 0.14790 0.89080 0.79200
C 	C 	0.69910 0.08380 0.86940 -1.17200
C 	C 	0.73330 0.16070 0.92960 0.12600
H 	H 	0.69310 0.12610 0.94320 -0.07600
C 	C 	0.66910 0.99000 0.82450 0.68900
H 	H 	0.68090 0.96490 0.80600 -0.04600
C 	C 	0.72140 0.05020 0.84260 0.57100
H 	H 	0.76920 0.06720 0.83710 -0.08100
C 	C 	0.62990 0.06350 0.87480 -1.15600
H 	H 	0.61760 0.09170 0.89020 0.34500
C 	C 	0.70440 0.18950 0.01060 0.18900
H 	H 	0.66990 0.14960 0.99670 -0.06000
C 	C 	0.69320 0.20040 0.05000 0.13100
H 	H 	0.65210 0.16720 0.06340 -0.11500
O 	O 	0.48110 0.88970 0.81860 -0.33000
C 	C 	0.54130 0.90500 0.81320 0.94000
O 	O 	0.55460 0.86460 0.79550 -0.49600
C 	C 	0.81290 0.29140 0.05610 -0.15500
H 	H 	0.84550 0.33390 0.06860 0.16200
C 	C 	0.82840 0.27630 0.01830 -0.24400
H 	H 	0.87160 0.30800 0.00620 0.09800
O 	O 	0.50800 0.86630 0.80350 -0.69300
C 	C 	0.56770 0.88120 0.80820 0.20800
O 	O 	0.58840 0.84040 0.79820 -0.48100
C 	C 	0.61750 0.94130 0.83380 1.08000
C 	C 	0.59130 0.97040 0.85990 -1.07000
H 	H 	0.54250 0.95000 0.86350 0.20000
C 	C 	0.63650 0.02930 0.88080 0.60600
H 	H 	0.61790 0.05020 0.89800 0.11900
C 	C 	0.73350 0.02620 0.85250 -0.87600
H 	H 	0.78210 0.04370 0.85010 0.32700
C 	C 	0.68810 0.96830 0.83120 -0.98900
H 	H 	0.70570 0.94620 0.81420 0.34000
C 	C 	0.70920 0.05990 0.87770 1.13700
C 	C 	0.76230 0.12750 0.89770 -0.64500
C 	C 	0.74930 0.14110 0.93660 -0.29500
H 	H 	0.70770 0.10880 0.94990 0.14200
O 	O 	0.67690 0.45310 0.13026 -0.48900
C 	C 	0.99760 0.57580 0.85800 1.64100
H 	H 	0.01420 0.54450 0.86300 -0.52700
C 	C 	0.03300 0.63340 0.83340 -1.25200
C 	C 	0.85210 0.60040 0.89080 0.79300
C 	C 	0.91620 0.61530 0.86940 -1.17300
C 	C 	0.83930 0.57260 0.92960 0.12900
H 	H 	0.87390 0.56700 0.94320 -0.07800
C 	C 	0.01000 0.67910 0.82450 0.68900
H 	H 	0.03510 0.71600 0.80600 -0.04600
C 	C 	0.94980 0.67120 0.84260 0.57000
H 	H 	0.93280 0.70200 0.83710 -0.08100
C 	C 	0.93650 0.56640 0.87480 -1.15700
H 	H 	0.90830 0.52590 0.89020 0.34500
C 	C 	0.81050 0.51490 0.01060 0.17900
H 	H 	0.85040 0.52030 0.99670 -0.05600
C 	C 	0.79960 0.49280 0.05000 0.12900
H 	H 	0.83280 0.48490 0.06340 -0.11200
O 	O 	0.11030 0.59140 0.81860 -0.33000
C 	C 	0.09500 0.63630 0.81320 0.94000
O 	O 	0.13540 0.69000 0.79550 -0.49600
C 	C 	0.70860 0.52150 0.05610 -0.15500
H 	H 	0.66610 0.51160 0.06860 0.16200
C 	C 	0.72370 0.55210 0.01830 -0.25200
H 	H 	0.69200 0.56360 0.00620 0.09800
O 	O 	0.13370 0.64170 0.80350 -0.69300
C 	C 	0.11880 0.68650 0.80820 0.20800
O 	O 	0.15960 0.74800 0.79820 -0.48100
C 	C 	0.05870 0.67620 0.83380 1.08100
C 	C 	0.02960 0.62090 0.85990 -1.07100
H 	H 	0.05000 0.59250 0.86350 0.20100
C 	C 	0.97070 0.60720 0.88080 0.60600
H 	H 	0.94980 0.56770 0.89800 0.11900
C 	C 	0.97380 0.70730 0.85250 -0.87600
H 	H 	0.95630 0.73840 0.85010 0.32800
C 	C 	0.03170 0.71980 0.83120 -0.98900
H 	H 	0.05380 0.75950 0.81420 0.34000
C 	C 	0.94010 0.64930 0.87770 1.13800
C 	C 	0.87250 0.63480 0.89770 -0.64500
C 	C 	0.85890 0.60820 0.93660 -0.29700
H 	H 	0.89120 0.59890 0.94990 0.14300
O 	O 	0.77620 0.45310 0.36974 -0.48900
C 	C 	0.57820 0.57580 0.64200 1.66900
H 	H 	0.53030 0.54450 0.63700 -0.53500
C 	C 	0.60040 0.63340 0.66660 -1.31800
C 	C 	0.74830 0.60040 0.60920 0.78700
C 	C 	0.69910 0.61530 0.63060 -1.16900
C 	C 	0.73330 0.57260 0.57040 0.12700
H 	H 	0.69310 0.56700 0.55680 -0.07700
C 	C 	0.66910 0.67910 0.67550 0.69000
H 	H 	0.68090 0.71600 0.69400 -0.04600
C 	C 	0.72140 0.67120 0.65740 0.61200
H 	H 	0.76920 0.70200 0.66290 -0.09200
C 	C 	0.62990 0.56640 0.62520 -1.17100
H 	H 	0.61760 0.52590 0.60980 0.34800
C 	C 	0.70440 0.51490 0.48940 0.18300
H 	H 	0.66990 0.52030 0.50330 -0.05500
C 	C 	0.69320 0.49280 0.45000 0.13200
H 	H 	0.65210 0.48490 0.43660 -0.11400
O 	O 	0.48110 0.59140 0.68140 -0.33000
C 	C 	0.54130 0.63630 0.68680 0.94000
O 	O 	0.55460 0.69000 0.70450 -0.52100
C 	C 	0.81290 0.52150 0.44390 -0.15200
H 	H 	0.84550 0.51160 0.43140 0.16000
C 	C 	0.82840 0.55210 0.48170 -0.24800
H 	H 	0.87160 0.56360 0.49380 0.09600
O 	O 	0.50800 0.64170 0.69650 -0.69000
C 	C 	0.56770 0.68650 0.69180 0.23200
O 	O 	0.58840 0.74800 0.70180 -0.48100
C 	C 	0.61750 0.67620 0.66620 1.12400
C 	C 	0.59130 0.62090 0.64010 -1.04900
H 	H 	0.54250 0.59250 0.63650 0.19100
C 	C 	0.63650 0.60720 0.61920 0.60000
H 	H 	0.61790 0.56770 0.60200 0.12500
C 	C 	0.73350 0.70730 0.64750 -0.90700
H 	H 	0.78210 0.73840 0.64990 0.34200
C 	C 	0.68810 0.71980 0.66880 -1.00600
H 	H 	0.70570 0.75950 0.68580 0.34300
C 	C 	0.70920 0.64930 0.62230 1.13100
C 	C 	0.76230 0.63480 0.60230 -0.63900
C 	C 	0.74930 0.60820 0.56340 -0.29400
H 	H 	0.70770 0.59890 0.55010 0.14200
O 	O 	0.67690 0.22380 0.36974 -0.48800
C 	C 	0.99760 0.42180 0.64200 1.65400
H 	H 	0.01420 0.46970 0.63700 -0.53100
C 	C 	0.03300 0.39960 0.66660 -1.28600
C 	C 	0.85210 0.25170 0.60920 0.78800
C 	C 	0.91620 0.30090 0.63060 -1.17000
C 	C 	0.83930 0.26670 0.57040 0.12800
H 	H 	0.87390 0.30690 0.55680 -0.07700
C 	C 	0.01000 0.33090 0.67550 0.69000
H 	H 	0.03510 0.31910 0.69400 -0.04600
C 	C 	0.94980 0.27860 0.65740 0.59200
H 	H 	0.93280 0.23080 0.66290 -0.08700
C 	C 	0.93650 0.37010 0.62520 -1.16400
H 	H 	0.90830 0.38240 0.60980 0.34600
C 	C 	0.81050 0.29560 0.48940 0.18300
H 	H 	0.85040 0.33010 0.50330 -0.05500
C 	C 	0.79960 0.30680 0.45000 0.13200
H 	H 	0.83280 0.34790 0.43660 -0.11400
O 	O 	0.11030 0.51890 0.68140 -0.33000
C 	C 	0.09500 0.45870 0.68680 0.94000
O 	O 	0.13540 0.44540 0.70450 -0.50900
C 	C 	0.70860 0.18710 0.44390 -0.15200
H 	H 	0.66610 0.15450 0.43140 0.16000
C 	C 	0.72370 0.17160 0.48170 -0.24800
H 	H 	0.69200 0.12840 0.49380 0.09600
O 	O 	0.13370 0.49200 0.69650 -0.69200
C 	C 	0.11880 0.43230 0.69180 0.22000
O 	O 	0.15960 0.41160 0.70180 -0.48100
C 	C 	0.05870 0.38250 0.66620 1.10200
C 	C 	0.02960 0.40870 0.64010 -1.05900
H 	H 	0.05000 0.45750 0.63650 0.19600
C 	C 	0.97070 0.36350 0.61920 0.60300
H 	H 	0.94980 0.38210 0.60200 0.12200
C 	C 	0.97380 0.26650 0.64750 -0.89300
H 	H 	0.95630 0.21790 0.64990 0.33500
C 	C 	0.03170 0.31190 0.66880 -0.99700
H 	H 	0.05380 0.29430 0.68580 0.34100
C 	C 	0.94010 0.29080 0.62230 1.13400
C 	C 	0.87250 0.23770 0.60230 -0.64100
C 	C 	0.85890 0.25070 0.56340 -0.29500
H 	H 	0.89120 0.29230 0.55010 0.14300
O 	O 	0.54690 0.32310 0.36974 -0.48900
C 	C 	0.42420 0.00240 0.64200 1.65400
H 	H 	0.45550 0.98580 0.63700 -0.53100
C 	C 	0.36660 0.96700 0.66660 -1.28500
C 	C 	0.39960 0.14790 0.60920 0.78900
C 	C 	0.38470 0.08380 0.63060 -1.17000
C 	C 	0.42740 0.16070 0.57040 0.12900
H 	H 	0.43300 0.12610 0.55680 -0.07700
C 	C 	0.32090 0.99000 0.67550 0.69000
H 	H 	0.28400 0.96490 0.69400 -0.04600
C 	C 	0.32880 0.05020 0.65740 0.59200
H 	H 	0.29800 0.06720 0.66290 -0.08700
C 	C 	0.43360 0.06350 0.62520 -1.16400
H 	H 	0.47410 0.09170 0.60980 0.34700
C 	C 	0.48510 0.18950 0.48940 0.18300
H 	H 	0.47970 0.14960 0.50330 -0.05500
C 	C 	0.50720 0.20040 0.45000 0.13200
H 	H 	0.51510 0.16720 0.43660 -0.11400
O 	O 	0.40860 0.88970 0.68140 -0.33000
C 	C 	0.36370 0.90500 0.68680 0.94000
O 	O 	0.31000 0.86460 0.70450 -0.50900
C 	C 	0.47850 0.29140 0.44390 -0.15200
H 	H 	0.48840 0.33390 0.43140 0.15900
C 	C 	0.44790 0.27630 0.48170 -0.24800
H 	H 	0.43640 0.30800 0.49380 0.09500
O 	O 	0.35830 0.86630 0.69650 -0.69200
C 	C 	0.31350 0.88120 0.69180 0.21900
O 	O 	0.25200 0.84040 0.70180 -0.48100
C 	C 	0.32380 0.94130 0.66620 1.10200
C 	C 	0.37910 0.97040 0.64010 -1.05900
H 	H 	0.40750 0.95000 0.63650 0.19600
C 	C 	0.39280 0.02930 0.61920 0.60300
H 	H 	0.43230 0.05020 0.60200 0.12200
C 	C 	0.29270 0.02620 0.64750 -0.89300
H 	H 	0.26160 0.04370 0.64990 0.33500
C 	C 	0.28020 0.96830 0.66880 -0.99700
H 	H 	0.24050 0.94620 0.68580 0.34200
C 	C 	0.35070 0.05990 0.62230 1.13400
C 	C 	0.36520 0.12750 0.60230 -0.64100
C 	C 	0.39180 0.14110 0.56340 -0.29500
H 	H 	0.40110 0.10880 0.55010 0.14300
O 	O 	0.22380 0.54690 0.86974 -0.48800
C 	C 	0.42180 0.42420 0.14200 1.66900
H 	H 	0.46970 0.45550 0.13700 -0.53500
C 	C 	0.39960 0.36660 0.16660 -1.31800
C 	C 	0.25170 0.39960 0.10920 0.78700
C 	C 	0.30090 0.38470 0.13060 -1.16900
C 	C 	0.26670 0.42740 0.07040 0.12400
H 	H 	0.30690 0.43300 0.05680 -0.07500
C 	C 	0.33090 0.32090 0.17550 0.69000
H 	H 	0.31910 0.28400 0.19400 -0.04600
C 	C 	0.27860 0.32880 0.15740 0.61200
H 	H 	0.23080 0.29800 0.16290 -0.09200
C 	C 	0.37010 0.43360 0.12520 -1.17100
H 	H 	0.38240 0.47410 0.10980 0.34800
C 	C 	0.29560 0.48510 0.98940 0.19200
H 	H 	0.33010 0.47970 0.00330 -0.05900
C 	C 	0.30680 0.50720 0.95000 0.13300
H 	H 	0.34790 0.51510 0.93660 -0.11600
O 	O 	0.51890 0.40860 0.18140 -0.33000
C 	C 	0.45870 0.36370 0.18680 0.94000
O 	O 	0.44540 0.31000 0.20450 -0.52200
C 	C 	0.18710 0.47850 0.94390 -0.15100
H 	H 	0.15450 0.48840 0.93140 0.15900
C 	C 	0.17160 0.44790 0.98170 -0.23900
H 	H 	0.12840 0.43640 0.99380 0.09500
O 	O 	0.49200 0.35830 0.19650 -0.68900
C 	C 	0.43230 0.31350 0.19180 0.23200
O 	O 	0.41160 0.25200 0.20180 -0.48100
C 	C 	0.38250 0.32380 0.16620 1.12400
C 	C 	0.40870 0.37910 0.14010 -1.04900
H 	H 	0.45750 0.40750 0.13650 0.19100
C 	C 	0.36350 0.39280 0.11920 0.60000
H 	H 	0.38210 0.43230 0.10200 0.12500
C 	C 	0.26650 0.29270 0.14750 -0.90800
H 	H 	0.21790 0.26160 0.14990 0.34200
C 	C 	0.31190 0.28020 0.16880 -1.00600
H 	H 	0.29430 0.24050 0.18580 0.34400
C 	C 	0.29080 0.35070 0.12230 1.13100
C 	C 	0.23770 0.36520 0.10230 -0.63900
C 	C 	0.25070 0.39180 0.06340 -0.29200
H 	H 	0.29230 0.40110 0.05010 0.14100
O 	O 	0.32310 0.77620 0.86974 -0.48800
C 	C 	0.00240 0.57820 0.14200 1.64000
H 	H 	0.98580 0.53030 0.13700 -0.52700
C 	C 	0.96700 0.60040 0.16660 -1.25200
C 	C 	0.14790 0.74830 0.10920 0.79200
C 	C 	0.08380 0.69910 0.13060 -1.17200
C 	C 	0.16070 0.73330 0.07040 0.12600
H 	H 	0.12610 0.69310 0.05680 -0.07600
C 	C 	0.99000 0.66910 0.17550 0.68900
H 	H 	0.96490 0.68090 0.19400 -0.04600
C 	C 	0.05020 0.72140 0.15740 0.57100
H 	H 	0.06720 0.76920 0.16290 -0.08100
C 	C 	0.06350 0.62990 0.12520 -1.15600
H 	H 	0.09170 0.61760 0.10980 0.34500
C 	C 	0.18950 0.70440 0.98940 0.18900
H 	H 	0.14960 0.66990 0.00330 -0.06000
C 	C 	0.20040 0.69320 0.95000 0.13100
H 	H 	0.16720 0.65210 0.93660 -0.11500
O 	O 	0.88970 0.48110 0.18140 -0.33000
C 	C 	0.90500 0.54130 0.18680 0.94000
O 	O 	0.86460 0.55460 0.20450 -0.49600
C 	C 	0.29140 0.81290 0.94390 -0.15500
H 	H 	0.33390 0.84550 0.93140 0.16200
C 	C 	0.27630 0.82840 0.98170 -0.24400
H 	H 	0.30800 0.87160 0.99380 0.09800
O 	O 	0.86630 0.50800 0.19650 -0.69300
C 	C 	0.88120 0.56770 0.19180 0.20800
O 	O 	0.84040 0.58840 0.20180 -0.48100
C 	C 	0.94130 0.61750 0.16620 1.08000
C 	C 	0.97040 0.59130 0.14010 -1.07000
H 	H 	0.95000 0.54250 0.13650 0.20000
C 	C 	0.02930 0.63650 0.11920 0.60600
H 	H 	0.05020 0.61790 0.10200 0.11900
C 	C 	0.02620 0.73350 0.14750 -0.87600
H 	H 	0.04370 0.78210 0.14990 0.32700
C 	C 	0.96830 0.68810 0.16880 -0.98900
H 	H 	0.94620 0.70570 0.18580 0.34000
C 	C 	0.05990 0.70920 0.12230 1.13700
C 	C 	0.12750 0.76230 0.10230 -0.64500
C 	C 	0.14110 0.74930 0.06340 -0.29500
H 	H 	0.10880 0.70770 0.05010 0.14200
O 	O 	0.45310 0.67690 0.86974 -0.48900
C 	C 	0.57580 0.99760 0.14200 1.64100
H 	H 	0.54450 0.01420 0.13700 -0.52700
C 	C 	0.63340 0.03300 0.16660 -1.25200
C 	C 	0.60040 0.85210 0.10920 0.79300
C 	C 	0.61530 0.91620 0.13060 -1.17300
C 	C 	0.57260 0.83930 0.07040 0.12900
H 	H 	0.56700 0.87390 0.05680 -0.07800
C 	C 	0.67910 0.01000 0.17550 0.68900
H 	H 	0.71600 0.03510 0.19400 -0.04600
C 	C 	0.67120 0.94980 0.15740 0.57000
H 	H 	0.70200 0.93280 0.16290 -0.08100
C 	C 	0.56640 0.93650 0.12520 -1.15700
H 	H 	0.52590 0.90830 0.10980 0.34500
C 	C 	0.51490 0.81050 0.98940 0.17900
H 	H 	0.52030 0.85040 0.00330 -0.05600
C 	C 	0.49280 0.79960 0.95000 0.12900
H 	H 	0.48490 0.83280 0.93660 -0.11200
O 	O 	0.59140 0.11030 0.18140 -0.33000
C 	C 	0.63630 0.09500 0.18680 0.94000
O 	O 	0.69000 0.13540 0.20450 -0.49600
C 	C 	0.52150 0.70860 0.94390 -0.15500
H 	H 	0.51160 0.66610 0.93140 0.16200
C 	C 	0.55210 0.72370 0.98170 -0.25200
H 	H 	0.56360 0.69200 0.99380 0.09800
O 	O 	0.64170 0.13370 0.19650 -0.69300
C 	C 	0.68650 0.11880 0.19180 0.20800
O 	O 	0.74800 0.15960 0.20180 -0.48100
C 	C 	0.67620 0.05870 0.16620 1.08100
C 	C 	0.62090 0.02960 0.14010 -1.07100
H 	H 	0.59250 0.05000 0.13650 0.20100
C 	C 	0.60720 0.97070 0.11920 0.60600
H 	H 	0.56770 0.94980 0.10200 0.11900
C 	C 	0.70730 0.97380 0.14750 -0.87600
H 	H 	0.73840 0.95630 0.14990 0.32800
C 	C 	0.71980 0.03170 0.16880 -0.98900
H 	H 	0.75950 0.05380 0.18580 0.34000
C 	C 	0.64930 0.94010 0.12230 1.13800
C 	C 	0.63480 0.87250 0.10230 -0.64500
C 	C 	0.60820 0.85890 0.06340 -0.29700
H 	H 	0.59890 0.89120 0.05010 0.14300
O 	O 	0.54690 0.22380 0.36974 -0.48900
C 	C 	0.42420 0.42180 0.64200 1.66900
H 	H 	0.45550 0.46970 0.63700 -0.53500
C 	C 	0.36660 0.39960 0.66660 -1.31800
C 	C 	0.39960 0.25170 0.60920 0.78700
C 	C 	0.38470 0.30090 0.63060 -1.16900
C 	C 	0.42740 0.26670 0.57040 0.12700
H 	H 	0.43300 0.30690 0.55680 -0.07700
C 	C 	0.32090 0.33090 0.67550 0.69000
H 	H 	0.28400 0.31910 0.69400 -0.04600
C 	C 	0.32880 0.27860 0.65740 0.61200
H 	H 	0.29800 0.23080 0.66290 -0.09200
C 	C 	0.43360 0.37010 0.62520 -1.17100
H 	H 	0.47410 0.38240 0.60980 0.34800
C 	C 	0.48510 0.29560 0.48940 0.18300
H 	H 	0.47970 0.33010 0.50330 -0.05500
C 	C 	0.50720 0.30680 0.45000 0.13200
H 	H 	0.51510 0.34790 0.43660 -0.11400
O 	O 	0.40860 0.51890 0.68140 -0.33000
C 	C 	0.36370 0.45870 0.68680 0.94000
O 	O 	0.31000 0.44540 0.70450 -0.52100
C 	C 	0.47850 0.18710 0.44390 -0.15200
H 	H 	0.48840 0.15450 0.43140 0.16000
C 	C 	0.44790 0.17160 0.48170 -0.24800
H 	H 	0.43640 0.12840 0.49380 0.09600
O 	O 	0.35830 0.49200 0.69650 -0.69000
C 	C 	0.31350 0.43230 0.69180 0.23200
O 	O 	0.25200 0.41160 0.70180 -0.48100
C 	C 	0.32380 0.38250 0.66620 1.12400
C 	C 	0.37910 0.40870 0.64010 -1.04900
H 	H 	0.40750 0.45750 0.63650 0.19100
C 	C 	0.39280 0.36350 0.61920 0.60000
H 	H 	0.43230 0.38210 0.60200 0.12500
C 	C 	0.29270 0.26650 0.64750 -0.90700
H 	H 	0.26160 0.21790 0.64990 0.34200
C 	C 	0.28020 0.31190 0.66880 -1.00600
H 	H 	0.24050 0.29430 0.68580 0.34300
C 	C 	0.35070 0.29080 0.62230 1.13100
C 	C 	0.36520 0.23770 0.60230 -0.63900
C 	C 	0.39180 0.25070 0.56340 -0.29400
H 	H 	0.40110 0.29230 0.55010 0.14200
O 	O 	0.77620 0.32310 0.36974 -0.48800
C 	C 	0.57820 0.00240 0.64200 1.65400
H 	H 	0.53030 0.98580 0.63700 -0.53100
C 	C 	0.60040 0.96700 0.66660 -1.28600
C 	C 	0.74830 0.14790 0.60920 0.78800
C 	C 	0.69910 0.08380 0.63060 -1.17000
C 	C 	0.73330 0.16070 0.57040 0.12800
H 	H 	0.69310 0.12610 0.55680 -0.07700
C 	C 	0.66910 0.99000 0.67550 0.69000
H 	H 	0.68090 0.96490 0.69400 -0.04600
C 	C 	0.72140 0.05020 0.65740 0.59200
H 	H 	0.76920 0.06720 0.66290 -0.08700
C 	C 	0.62990 0.06350 0.62520 -1.16400
H 	H 	0.61760 0.09170 0.60980 0.34600
C 	C 	0.70440 0.18950 0.48940 0.18300
H 	H 	0.66990 0.14960 0.50330 -0.05500
C 	C 	0.69320 0.20040 0.45000 0.13200
H 	H 	0.65210 0.16720 0.43660 -0.11400
O 	O 	0.48110 0.88970 0.68140 -0.33000
C 	C 	0.54130 0.90500 0.68680 0.94000
O 	O 	0.55460 0.86460 0.70450 -0.50900
C 	C 	0.81290 0.29140 0.44390 -0.15200
H 	H 	0.84550 0.33390 0.43140 0.16000
C 	C 	0.82840 0.27630 0.48170 -0.24800
H 	H 	0.87160 0.30800 0.49380 0.09600
O 	O 	0.50800 0.86630 0.69650 -0.69200
C 	C 	0.56770 0.88120 0.69180 0.22000
O 	O 	0.58840 0.84040 0.70180 -0.48100
C 	C 	0.61750 0.94130 0.66620 1.10200
C 	C 	0.59130 0.97040 0.64010 -1.05900
H 	H 	0.54250 0.95000 0.63650 0.19600
C 	C 	0.63650 0.02930 0.61920 0.60300
H 	H 	0.61790 0.05020 0.60200 0.12200
C 	C 	0.73350 0.02620 0.64750 -0.89300
H 	H 	0.78210 0.04370 0.64990 0.33500
C 	C 	0.68810 0.96830 0.66880 -0.99700
H 	H 	0.70570 0.94620 0.68580 0.34100
C 	C 	0.70920 0.05990 0.62230 1.13400
C 	C 	0.76230 0.12750 0.60230 -0.64100
C 	C 	0.74930 0.14110 0.56340 -0.29500
H 	H 	0.70770 0.10880 0.55010 0.14300
O 	O 	0.67690 0.45310 0.36974 -0.48900
C 	C 	0.99760 0.57580 0.64200 1.65400
H 	H 	0.01420 0.54450 0.63700 -0.53100
C 	C 	0.03300 0.63340 0.66660 -1.28500
C 	C 	0.85210 0.60040 0.60920 0.78900
C 	C 	0.91620 0.61530 0.63060 -1.17000
C 	C 	0.83930 0.57260 0.57040 0.12900
H 	H 	0.87390 0.56700 0.55680 -0.07700
C 	C 	0.01000 0.67910 0.67550 0.69000
H 	H 	0.03510 0.71600 0.69400 -0.04600
C 	C 	0.94980 0.67120 0.65740 0.59200
H 	H 	0.93280 0.70200 0.66290 -0.08700
C 	C 	0.93650 0.56640 0.62520 -1.16400
H 	H 	0.90830 0.52590 0.60980 0.34700
C 	C 	0.81050 0.51490 0.48940 0.18300
H 	H 	0.85040 0.52030 0.50330 -0.05500
C 	C 	0.79960 0.49280 0.45000 0.13200
H 	H 	0.83280 0.48490 0.43660 -0.11400
O 	O 	0.11030 0.59140 0.68140 -0.33000
C 	C 	0.09500 0.63630 0.68680 0.94000
O 	O 	0.13540 0.69000 0.70450 -0.50900
C 	C 	0.70860 0.52150 0.44390 -0.15200
H 	H 	0.66610 0.51160 0.43140 0.15900
C 	C 	0.72370 0.55210 0.48170 -0.24800
H 	H 	0.69200 0.56360 0.49380 0.09500
O 	O 	0.13370 0.64170 0.69650 -0.69200
C 	C 	0.11880 0.68650 0.69180 0.21900
O 	O 	0.15960 0.74800 0.70180 -0.48100
C 	C 	0.05870 0.67620 0.66620 1.10200
C 	C 	0.02960 0.62090 0.64010 -1.05900
H 	H 	0.05000 0.59250 0.63650 0.19600
C 	C 	0.97070 0.60720 0.61920 0.60300
H 	H 	0.94980 0.56770 0.60200 0.12200
C 	C 	0.97380 0.70730 0.64750 -0.89300
H 	H 	0.95630 0.73840 0.64990 0.33500
C 	C 	0.03170 0.71980 0.66880 -0.99700
H 	H 	0.05380 0.75950 0.68580 0.34200
C 	C 	0.94010 0.64930 0.62230 1.13400
C 	C 	0.87250 0.63480 0.60230 -0.64100
C 	C 	0.85890 0.60820 0.56340 -0.29500
H 	H 	0.89120 0.59890 0.55010 0.14300
O 	O 	0.45310 0.77620 0.86974 -0.48800
C 	C 	0.57580 0.57820 0.14200 1.66900
H 	H 	0.54450 0.53030 0.13700 -0.53500
C 	C 	0.63340 0.60040 0.16660 -1.31800
C 	C 	0.60040 0.74830 0.10920 0.78700
C 	C 	0.61530 0.69910 0.13060 -1.16900
C 	C 	0.57260 0.73330 0.07040 0.12400
H 	H 	0.56700 0.69310 0.05680 -0.07500
C 	C 	0.67910 0.66910 0.17550 0.69000
H 	H 	0.71600 0.68090 0.19400 -0.04600
C 	C 	0.67120 0.72140 0.15740 0.61200
H 	H 	0.70200 0.76920 0.16290 -0.09200
C 	C 	0.56640 0.62990 0.12520 -1.17100
H 	H 	0.52590 0.61760 0.10980 0.34800
C 	C 	0.51490 0.70440 0.98940 0.19200
H 	H 	0.52030 0.66990 0.00330 -0.05900
C 	C 	0.49280 0.69320 0.95000 0.13300
H 	H 	0.48490 0.65210 0.93660 -0.11600
O 	O 	0.59140 0.48110 0.18140 -0.33000
C 	C 	0.63630 0.54130 0.18680 0.94000
O 	O 	0.69000 0.55460 0.20450 -0.52200
C 	C 	0.52150 0.81290 0.94390 -0.15100
H 	H 	0.51160 0.84550 0.93140 0.15900
C 	C 	0.55210 0.82840 0.98170 -0.23900
H 	H 	0.56360 0.87160 0.99380 0.09500
O 	O 	0.64170 0.50800 0.19650 -0.68900
C 	C 	0.68650 0.56770 0.19180 0.23200
O 	O 	0.74800 0.58840 0.20180 -0.48100
C 	C 	0.67620 0.61750 0.16620 1.12400
C 	C 	0.62090 0.59130 0.14010 -1.04900
H 	H 	0.59250 0.54250 0.13650 0.19100
C 	C 	0.60720 0.63650 0.11920 0.60000
H 	H 	0.56770 0.61790 0.10200 0.12500
C 	C 	0.70730 0.73350 0.14750 -0.90800
H 	H 	0.73840 0.78210 0.14990 0.34200
C 	C 	0.71980 0.68810 0.16880 -1.00600
H 	H 	0.75950 0.70570 0.18580 0.34400
C 	C 	0.64930 0.70920 0.12230 1.13100
C 	C 	0.63480 0.76230 0.10230 -0.63900
C 	C 	0.60820 0.74930 0.06340 -0.29200
H 	H 	0.59890 0.70770 0.05010 0.14100
O 	O 	0.22380 0.67690 0.86974 -0.48800
C 	C 	0.42180 0.99760 0.14200 1.64000
H 	H 	0.46970 0.01420 0.13700 -0.52700
C 	C 	0.39960 0.03300 0.16660 -1.25200
C 	C 	0.25170 0.85210 0.10920 0.79200
C 	C 	0.30090 0.91620 0.13060 -1.17200
C 	C 	0.26670 0.83930 0.07040 0.12600
H 	H 	0.30690 0.87390 0.05680 -0.07600
C 	C 	0.33090 0.01000 0.17550 0.68900
H 	H 	0.31910 0.03510 0.19400 -0.04600
C 	C 	0.27860 0.94980 0.15740 0.57100
H 	H 	0.23080 0.93280 0.16290 -0.08100
C 	C 	0.37010 0.93650 0.12520 -1.15600
H 	H 	0.38240 0.90830 0.10980 0.34500
C 	C 	0.29560 0.81050 0.98940 0.18900
H 	H 	0.33010 0.85040 0.00330 -0.06000
C 	C 	0.30680 0.79960 0.95000 0.13100
H 	H 	0.34790 0.83280 0.93660 -0.11500
O 	O 	0.51890 0.11030 0.18140 -0.33000
C 	C 	0.45870 0.09500 0.18680 0.94000
O 	O 	0.44540 0.13540 0.20450 -0.49600
C 	C 	0.18710 0.70860 0.94390 -0.15500
H 	H 	0.15450 0.66610 0.93140 0.16200
C 	C 	0.17160 0.72370 0.98170 -0.24400
H 	H 	0.12840 0.69200 0.99380 0.09800
O 	O 	0.49200 0.13370 0.19650 -0.69300
C 	C 	0.43230 0.11880 0.19180 0.20800
O 	O 	0.41160 0.15960 0.20180 -0.48100
C 	C 	0.38250 0.05870 0.16620 1.08000
C 	C 	0.40870 0.02960 0.14010 -1.07000
H 	H 	0.45750 0.05000 0.13650 0.20000
C 	C 	0.36350 0.97070 0.11920 0.60600
H 	H 	0.38210 0.94980 0.10200 0.11900
C 	C 	0.26650 0.97380 0.14750 -0.87600
H 	H 	0.21790 0.95630 0.14990 0.32700
C 	C 	0.31190 0.03170 0.16880 -0.98900
H 	H 	0.29430 0.05380 0.18580 0.34000
C 	C 	0.29080 0.94010 0.12230 1.13700
C 	C 	0.23770 0.87250 0.10230 -0.64500
C 	C 	0.25070 0.85890 0.06340 -0.29500
H 	H 	0.29230 0.89120 0.05010 0.14200
O 	O 	0.32310 0.54690 0.86974 -0.48900
C 	C 	0.00240 0.42420 0.14200 1.64100
H 	H 	0.98580 0.45550 0.13700 -0.52700
C 	C 	0.96700 0.36660 0.16660 -1.25200
C 	C 	0.14790 0.39960 0.10920 0.79300
C 	C 	0.08380 0.38470 0.13060 -1.17300
C 	C 	0.16070 0.42740 0.07040 0.12900
H 	H 	0.12610 0.43300 0.05680 -0.07800
C 	C 	0.99000 0.32090 0.17550 0.68900
H 	H 	0.96490 0.28400 0.19400 -0.04600
C 	C 	0.05020 0.32880 0.15740 0.57000
H 	H 	0.06720 0.29800 0.16290 -0.08100
C 	C 	0.06350 0.43360 0.12520 -1.15700
H 	H 	0.09170 0.47410 0.10980 0.34500
C 	C 	0.18950 0.48510 0.98940 0.17900
H 	H 	0.14960 0.47970 0.00330 -0.05600
C 	C 	0.20040 0.50720 0.95000 0.12900
H 	H 	0.16720 0.51510 0.93660 -0.11200
O 	O 	0.88970 0.40860 0.18140 -0.33000
C 	C 	0.90500 0.36370 0.18680 0.94000
O 	O 	0.86460 0.31000 0.20450 -0.49600
C 	C 	0.29140 0.47850 0.94390 -0.15500
H 	H 	0.33390 0.48840 0.93140 0.16200
C 	C 	0.27630 0.44790 0.98170 -0.25200
H 	H 	0.30800 0.43640 0.99380 0.09800
O 	O 	0.86630 0.35830 0.19650 -0.69300
C 	C 	0.88120 0.31350 0.19180 0.20800
O 	O 	0.84040 0.25200 0.20180 -0.48100
C 	C 	0.94130 0.32380 0.16620 1.08100
C 	C 	0.97040 0.37910 0.14010 -1.07100
H 	H 	0.95000 0.40750 0.13650 0.20100
C 	C 	0.02930 0.39280 0.11920 0.60600
H 	H 	0.05020 0.43230 0.10200 0.11900
C 	C 	0.02620 0.29270 0.14750 -0.87600
H 	H 	0.04370 0.26160 0.14990 0.32800
C 	C 	0.96830 0.28020 0.16880 -0.98900
H 	H 	0.94620 0.24050 0.18580 0.34000
C 	C 	0.05990 0.35070 0.12230 1.13800
C 	C 	0.12750 0.36520 0.10230 -0.64500
C 	C 	0.14110 0.39180 0.06340 -0.29700
H 	H 	0.10880 0.40110 0.05010 0.14300
O 	O 	0.22380 0.54690 0.63026 -0.48900
C 	C 	0.42180 0.42420 0.35800 1.66900
H 	H 	0.46970 0.45550 0.36300 -0.53500
C 	C 	0.39960 0.36660 0.33340 -1.31800
C 	C 	0.25170 0.39960 0.39080 0.78700
C 	C 	0.30090 0.38470 0.36940 -1.16900
C 	C 	0.26670 0.42740 0.42960 0.12700
H 	H 	0.30690 0.43300 0.44320 -0.07700
C 	C 	0.33090 0.32090 0.32450 0.69000
H 	H 	0.31910 0.28400 0.30600 -0.04600
C 	C 	0.27860 0.32880 0.34260 0.61200
H 	H 	0.23080 0.29800 0.33710 -0.09200
C 	C 	0.37010 0.43360 0.37480 -1.17100
H 	H 	0.38240 0.47410 0.39020 0.34800
C 	C 	0.29560 0.48510 0.51060 0.18300
H 	H 	0.33010 0.47970 0.49670 -0.05500
C 	C 	0.30680 0.50720 0.55000 0.13200
H 	H 	0.34790 0.51510 0.56340 -0.11400
O 	O 	0.51890 0.40860 0.31860 -0.33000
C 	C 	0.45870 0.36370 0.31320 0.94000
O 	O 	0.44540 0.31000 0.29550 -0.52100
C 	C 	0.18710 0.47850 0.55610 -0.15200
H 	H 	0.15450 0.48840 0.56860 0.16000
C 	C 	0.17160 0.44790 0.51830 -0.24800
H 	H 	0.12840 0.43640 0.50620 0.09600
O 	O 	0.49200 0.35830 0.30350 -0.69000
C 	C 	0.43230 0.31350 0.30820 0.23200
O 	O 	0.41160 0.25200 0.29820 -0.48100
C 	C 	0.38250 0.32380 0.33380 1.12400
C 	C 	0.40870 0.37910 0.35990 -1.04900
H 	H 	0.45750 0.40750 0.36350 0.19100
C 	C 	0.36350 0.39280 0.38080 0.60000
H 	H 	0.38210 0.43230 0.39800 0.12500
C 	C 	0.26650 0.29270 0.35250 -0.90700
H 	H 	0.21790 0.26160 0.35010 0.34200
C 	C 	0.31190 0.28020 0.33120 -1.00600
H 	H 	0.29430 0.24050 0.31420 0.34300
C 	C 	0.29080 0.35070 0.37770 1.13100
C 	C 	0.23770 0.36520 0.39770 -0.63900
C 	C 	0.25070 0.39180 0.43660 -0.29400
H 	H 	0.29230 0.40110 0.44990 0.14200
O 	O 	0.32310 0.77620 0.63026 -0.48800
C 	C 	0.00240 0.57820 0.35800 1.65400
H 	H 	0.98580 0.53030 0.36300 -0.53100
C 	C 	0.96700 0.60040 0.33340 -1.28600
C 	C 	0.14790 0.74830 0.39080 0.78800
C 	C 	0.08380 0.69910 0.36940 -1.17000
C 	C 	0.16070 0.73330 0.42960 0.12800
H 	H 	0.12610 0.69310 0.44320 -0.07700
C 	C 	0.99000 0.66910 0.32450 0.69000
H 	H 	0.96490 0.68090 0.30600 -0.04600
C 	C 	0.05020 0.72140 0.34260 0.59200
H 	H 	0.06720 0.76920 0.33710 -0.08700
C 	C 	0.06350 0.62990 0.37480 -1.16400
H 	H 	0.09170 0.61760 0.39020 0.34600
C 	C 	0.18950 0.70440 0.51060 0.18300
H 	H 	0.14960 0.66990 0.49670 -0.05500
C 	C 	0.20040 0.69320 0.55000 0.13200
H 	H 	0.16720 0.65210 0.56340 -0.11400
O 	O 	0.88970 0.48110 0.31860 -0.33000
C 	C 	0.90500 0.54130 0.31320 0.94000
O 	O 	0.86460 0.55460 0.29550 -0.50900
C 	C 	0.29140 0.81290 0.55610 -0.15200
H 	H 	0.33390 0.84550 0.56860 0.16000
C 	C 	0.27630 0.82840 0.51830 -0.24800
H 	H 	0.30800 0.87160 0.50620 0.09600
O 	O 	0.86630 0.50800 0.30350 -0.69200
C 	C 	0.88120 0.56770 0.30820 0.22000
O 	O 	0.84040 0.58840 0.29820 -0.48100
C 	C 	0.94130 0.61750 0.33380 1.10200
C 	C 	0.97040 0.59130 0.35990 -1.05900
H 	H 	0.95000 0.54250 0.36350 0.19600
C 	C 	0.02930 0.63650 0.38080 0.60300
H 	H 	0.05020 0.61790 0.39800 0.12200
C 	C 	0.02620 0.73350 0.35250 -0.89300
H 	H 	0.04370 0.78210 0.35010 0.33500
C 	C 	0.96830 0.68810 0.33120 -0.99700
H 	H 	0.94620 0.70570 0.31420 0.34100
C 	C 	0.05990 0.70920 0.37770 1.13400
C 	C 	0.12750 0.76230 0.39770 -0.64100
C 	C 	0.14110 0.74930 0.43660 -0.29500
H 	H 	0.10880 0.70770 0.44990 0.14300
O 	O 	0.45310 0.67690 0.63026 -0.48900
C 	C 	0.57580 0.99760 0.35800 1.65400
H 	H 	0.54450 0.01420 0.36300 -0.53100
C 	C 	0.63340 0.03300 0.33340 -1.28500
C 	C 	0.60040 0.85210 0.39080 0.78900
C 	C 	0.61530 0.91620 0.36940 -1.17000
C 	C 	0.57260 0.83930 0.42960 0.12900
H 	H 	0.56700 0.87390 0.44320 -0.07700
C 	C 	0.67910 0.01000 0.32450 0.69000
H 	H 	0.71600 0.03510 0.30600 -0.04600
C 	C 	0.67120 0.94980 0.34260 0.59200
H 	H 	0.70200 0.93280 0.33710 -0.08700
C 	C 	0.56640 0.93650 0.37480 -1.16400
H 	H 	0.52590 0.90830 0.39020 0.34700
C 	C 	0.51490 0.81050 0.51060 0.18300
H 	H 	0.52030 0.85040 0.49670 -0.05500
C 	C 	0.49280 0.79960 0.55000 0.13200
H 	H 	0.48490 0.83280 0.56340 -0.11400
O 	O 	0.59140 0.11030 0.31860 -0.33000
C 	C 	0.63630 0.09500 0.31320 0.94000
O 	O 	0.69000 0.13540 0.29550 -0.50900
C 	C 	0.52150 0.70860 0.55610 -0.15200
H 	H 	0.51160 0.66610 0.56860 0.15900
C 	C 	0.55210 0.72370 0.51830 -0.24800
H 	H 	0.56360 0.69200 0.50620 0.09500
O 	O 	0.64170 0.13370 0.30350 -0.69200
C 	C 	0.68650 0.11880 0.30820 0.21900
O 	O 	0.74800 0.15960 0.29820 -0.48100
C 	C 	0.67620 0.05870 0.33380 1.10200
C 	C 	0.62090 0.02960 0.35990 -1.05900
H 	H 	0.59250 0.05000 0.36350 0.19600
C 	C 	0.60720 0.97070 0.38080 0.60300
H 	H 	0.56770 0.94980 0.39800 0.12200
C 	C 	0.70730 0.97380 0.35250 -0.89300
H 	H 	0.73840 0.95630 0.35010 0.33500
C 	C 	0.71980 0.03170 0.33120 -0.99700
H 	H 	0.75950 0.05380 0.31420 0.34200
C 	C 	0.64930 0.94010 0.37770 1.13400
C 	C 	0.63480 0.87250 0.39770 -0.64100
C 	C 	0.60820 0.85890 0.43660 -0.29500
H 	H 	0.59890 0.89120 0.44990 0.14300
O 	O 	0.77620 0.45310 0.13026 -0.48800
C 	C 	0.57820 0.57580 0.85800 1.66900
H 	H 	0.53030 0.54450 0.86300 -0.53500
C 	C 	0.60040 0.63340 0.83340 -1.31800
C 	C 	0.74830 0.60040 0.89080 0.78700
C 	C 	0.69910 0.61530 0.86940 -1.16900
C 	C 	0.73330 0.57260 0.92960 0.12400
H 	H 	0.69310 0.56700 0.94320 -0.07500
C 	C 	0.66910 0.67910 0.82450 0.69000
H 	H 	0.68090 0.71600 0.80600 -0.04600
C 	C 	0.72140 0.67120 0.84260 0.61200
H 	H 	0.76920 0.70200 0.83710 -0.09200
C 	C 	0.62990 0.56640 0.87480 -1.17100
H 	H 	0.61760 0.52590 0.89020 0.34800
C 	C 	0.70440 0.51490 0.01060 0.19200
H 	H 	0.66990 0.52030 0.99670 -0.05900
C 	C 	0.69320 0.49280 0.05000 0.13300
H 	H 	0.65210 0.48490 0.06340 -0.11600
O 	O 	0.48110 0.59140 0.81860 -0.33000
C 	C 	0.54130 0.63630 0.81320 0.94000
O 	O 	0.55460 0.69000 0.79550 -0.52200
C 	C 	0.81290 0.52150 0.05610 -0.15100
H 	H 	0.84550 0.51160 0.06860 0.15900
C 	C 	0.82840 0.55210 0.01830 -0.23900
H 	H 	0.87160 0.56360 0.00620 0.09500
O 	O 	0.50800 0.64170 0.80350 -0.68900
C 	C 	0.56770 0.68650 0.80820 0.23200
O 	O 	0.58840 0.74800 0.79820 -0.48100
C 	C 	0.61750 0.67620 0.83380 1.12400
C 	C 	0.59130 0.62090 0.85990 -1.04900
H 	H 	0.54250 0.59250 0.86350 0.19100
C 	C 	0.63650 0.60720 0.88080 0.60000
H 	H 	0.61790 0.56770 0.89800 0.12500
C 	C 	0.73350 0.70730 0.85250 -0.90800
H 	H 	0.78210 0.73840 0.85010 0.34200
C 	C 	0.68810 0.71980 0.83120 -1.00600
H 	H 	0.70570 0.75950 0.81420 0.34400
C 	C 	0.70920 0.64930 0.87770 1.13100
C 	C 	0.76230 0.63480 0.89770 -0.63900
C 	C 	0.74930 0.60820 0.93660 -0.29200
H 	H 	0.70770 0.59890 0.94990 0.14100
O 	O 	0.67690 0.22380 0.13026 -0.48800
C 	C 	0.99760 0.42180 0.85800 1.64000
H 	H 	0.01420 0.46970 0.86300 -0.52700
C 	C 	0.03300 0.39960 0.83340 -1.25200
C 	C 	0.85210 0.25170 0.89080 0.79200
C 	C 	0.91620 0.30090 0.86940 -1.17200
C 	C 	0.83930 0.26670 0.92960 0.12600
H 	H 	0.87390 0.30690 0.94320 -0.07600
C 	C 	0.01000 0.33090 0.82450 0.68900
H 	H 	0.03510 0.31910 0.80600 -0.04600
C 	C 	0.94980 0.27860 0.84260 0.57100
H 	H 	0.93280 0.23080 0.83710 -0.08100
C 	C 	0.93650 0.37010 0.87480 -1.15600
H 	H 	0.90830 0.38240 0.89020 0.34500
C 	C 	0.81050 0.29560 0.01060 0.18900
H 	H 	0.85040 0.33010 0.99670 -0.06000
C 	C 	0.79960 0.30680 0.05000 0.13100
H 	H 	0.83280 0.34790 0.06340 -0.11500
O 	O 	0.11030 0.51890 0.81860 -0.33000
C 	C 	0.09500 0.45870 0.81320 0.94000
O 	O 	0.13540 0.44540 0.79550 -0.49600
C 	C 	0.70860 0.18710 0.05610 -0.15500
H 	H 	0.66610 0.15450 0.06860 0.16200
C 	C 	0.72370 0.17160 0.01830 -0.24400
H 	H 	0.69200 0.12840 0.00620 0.09800
O 	O 	0.13370 0.49200 0.80350 -0.69300
C 	C 	0.11880 0.43230 0.80820 0.20800
O 	O 	0.15960 0.41160 0.79820 -0.48100
C 	C 	0.05870 0.38250 0.83380 1.08000
C 	C 	0.02960 0.40870 0.85990 -1.07000
H 	H 	0.05000 0.45750 0.86350 0.20000
C 	C 	0.97070 0.36350 0.88080 0.60600
H 	H 	0.94980 0.38210 0.89800 0.11900
C 	C 	0.97380 0.26650 0.85250 -0.87600
H 	H 	0.95630 0.21790 0.85010 0.32700
C 	C 	0.03170 0.31190 0.83120 -0.98900
H 	H 	0.05380 0.29430 0.81420 0.34000
C 	C 	0.94010 0.29080 0.87770 1.13700
C 	C 	0.87250 0.23770 0.89770 -0.64500
C 	C 	0.85890 0.25070 0.93660 -0.29500
H 	H 	0.89120 0.29230 0.94990 0.14200
O 	O 	0.54690 0.32310 0.13026 -0.48900
C 	C 	0.42420 0.00240 0.85800 1.64100
H 	H 	0.45550 0.98580 0.86300 -0.52700
C 	C 	0.36660 0.96700 0.83340 -1.25200
C 	C 	0.39960 0.14790 0.89080 0.79300
C 	C 	0.38470 0.08380 0.86940 -1.17300
C 	C 	0.42740 0.16070 0.92960 0.12900
H 	H 	0.43300 0.12610 0.94320 -0.07800
C 	C 	0.32090 0.99000 0.82450 0.68900
H 	H 	0.28400 0.96490 0.80600 -0.04600
C 	C 	0.32880 0.05020 0.84260 0.57000
H 	H 	0.29800 0.06720 0.83710 -0.08100
C 	C 	0.43360 0.06350 0.87480 -1.15700
H 	H 	0.47410 0.09170 0.89020 0.34500
C 	C 	0.48510 0.18950 0.01060 0.17900
H 	H 	0.47970 0.14960 0.99670 -0.05600
C 	C 	0.50720 0.20040 0.05000 0.12900
H 	H 	0.51510 0.16720 0.06340 -0.11200
O 	O 	0.40860 0.88970 0.81860 -0.33000
C 	C 	0.36370 0.90500 0.81320 0.94000
O 	O 	0.31000 0.86460 0.79550 -0.49600
C 	C 	0.47850 0.29140 0.05610 -0.15500
H 	H 	0.48840 0.33390 0.06860 0.16200
C 	C 	0.44790 0.27630 0.01830 -0.25200
H 	H 	0.43640 0.30800 0.00620 0.09800
O 	O 	0.35830 0.86630 0.80350 -0.69300
C 	C 	0.31350 0.88120 0.80820 0.20800
O 	O 	0.25200 0.84040 0.79820 -0.48100
C 	C 	0.32380 0.94130 0.83380 1.08100
C 	C 	0.37910 0.97040 0.85990 -1.07100
H 	H 	0.40750 0.95000 0.86350 0.20100
C 	C 	0.39280 0.02930 0.88080 0.60600
H 	H 	0.43230 0.05020 0.89800 0.11900
C 	C 	0.29270 0.02620 0.85250 -0.87600
H 	H 	0.26160 0.04370 0.85010 0.32800
C 	C 	0.28020 0.96830 0.83120 -0.98900
H 	H 	0.24050 0.94620 0.81420 0.34000
C 	C 	0.35070 0.05990 0.87770 1.13800
C 	C 	0.36520 0.12750 0.89770 -0.64500
C 	C 	0.39180 0.14110 0.93660 -0.29700
H 	H 	0.40110 0.10880 0.94990 0.14300
Y 	Y 	0.60919 0.39081 0.31539 2.42400
Y 	Y 	0.60919 0.21838 0.31539 2.42400
Y 	Y 	0.78162 0.39081 0.31539 2.42400
Y 	Y 	0.39081 0.60919 0.81539 2.42400
Y 	Y 	0.39081 0.78162 0.81539 2.42400
Y 	Y 	0.21838 0.60919 0.81539 2.42400
Y 	Y 	0.39081 0.60919 0.68461 2.42400
Y 	Y 	0.21838 0.60919 0.68461 2.42400
Y 	Y 	0.39081 0.78162 0.68461 2.42400
Y 	Y 	0.60919 0.39081 0.18461 2.42400
Y 	Y 	0.78162 0.39081 0.18461 2.42400
Y 	Y 	0.60919 0.21838 0.18461 2.42400
O 	O 	0.59994 0.40006 0.25000 -0.72000
O 	O 	0.59994 0.19988 0.25000 -0.72000
O 	O 	0.80012 0.40006 0.25000 -0.72000
O 	O 	0.40006 0.59994 0.75000 -0.72000
O 	O 	0.40006 0.80012 0.75000 -0.72000
O 	O 	0.19988 0.59994 0.75000 -0.72000
O 	O 	0.72255 0.44510 0.29076 -0.92300
O 	O 	0.55490 0.27745 0.29076 -0.92300
O 	O 	0.72255 0.27745 0.29076 -0.92400
O 	O 	0.27745 0.55490 0.79076 -0.92300
O 	O 	0.44510 0.72255 0.79076 -0.92300
O 	O 	0.27745 0.72255 0.79076 -0.92400
O 	O 	0.44510 0.72255 0.70924 -0.92300
O 	O 	0.27745 0.55490 0.70924 -0.92300
O 	O 	0.27745 0.72255 0.70924 -0.92400
O 	O 	0.55490 0.27745 0.20924 -0.92300
O 	O 	0.72255 0.44510 0.20924 -0.92300
O 	O 	0.72255 0.27745 0.20924 -0.92400
C 	C 	0.48210 0.74105 0.56990 0.11200
C 	C 	0.45770 0.72885 0.61260 0.22500
C 	C 	0.61910 0.80955 0.37090 0.59300
H 	H 	0.64280 0.82140 0.34580 -0.43800
C 	C 	0.55320 0.77660 0.44860 -0.50700
C 	C 	0.52930 0.76465 0.49100 -0.04300
C 	C 	0.59500 0.79750 0.45610 0.54100
C 	C 	0.56640 0.78320 0.49780 0.06700
C 	C 	0.64930 0.82465 0.37920 -0.75200
H 	H 	0.66960 0.83480 0.35310 0.51800
C 	C 	0.50460 0.75230 0.57640 -0.17200
C 	C 	0.47280 0.73640 0.61690 0.13900
C 	C 	0.25895 0.74105 0.56990 0.11300
C 	C 	0.27115 0.72885 0.61260 0.22500
C 	C 	0.19045 0.80955 0.37090 0.59300
H 	H 	0.17860 0.82140 0.34580 -0.43800
C 	C 	0.22340 0.77660 0.44860 -0.50700
C 	C 	0.23535 0.76465 0.49100 -0.04300
C 	C 	0.20250 0.79750 0.45610 0.54100
C 	C 	0.21680 0.78320 0.49780 0.06700
C 	C 	0.17535 0.82465 0.37920 -0.75300
H 	H 	0.16520 0.83480 0.35310 0.51800
C 	C 	0.24770 0.75230 0.57640 -0.17200
C 	C 	0.26360 0.73640 0.61690 0.13900
C 	C 	0.25895 0.51790 0.56990 0.11200
C 	C 	0.27115 0.54230 0.61260 0.22500
C 	C 	0.19045 0.38090 0.37090 0.59300
H 	H 	0.17860 0.35720 0.34580 -0.43800
C 	C 	0.22340 0.44680 0.44860 -0.50700
C 	C 	0.23535 0.47070 0.49100 -0.04300
C 	C 	0.20250 0.40500 0.45610 0.54100
C 	C 	0.21680 0.43360 0.49780 0.06700
C 	C 	0.17535 0.35070 0.37920 -0.75200
H 	H 	0.16520 0.33040 0.35310 0.51800
C 	C 	0.24770 0.49540 0.57640 -0.17200
C 	C 	0.26360 0.52720 0.61690 0.13900
C 	C 	0.51790 0.25895 0.06990 0.11300
C 	C 	0.54230 0.27115 0.11260 0.22500
C 	C 	0.38090 0.19045 0.87090 0.59500
H 	H 	0.35720 0.17860 0.84580 -0.43900
C 	C 	0.44680 0.22340 0.94860 -0.50900
C 	C 	0.47070 0.23535 0.99100 -0.04000
C 	C 	0.40500 0.20250 0.95610 0.54500
C 	C 	0.43360 0.21680 0.99780 0.06000
C 	C 	0.35070 0.17535 0.87920 -0.75400
H 	H 	0.33040 0.16520 0.85310 0.51900
C 	C 	0.49540 0.24770 0.07640 -0.17200
C 	C 	0.52720 0.26360 0.11690 0.13900
C 	C 	0.74105 0.25895 0.06990 0.11600
C 	C 	0.72885 0.27115 0.11260 0.22600
C 	C 	0.80955 0.19045 0.87090 0.59700
H 	H 	0.82140 0.17860 0.84580 -0.44000
C 	C 	0.77660 0.22340 0.94860 -0.51100
C 	C 	0.76465 0.23535 0.99100 -0.03900
C 	C 	0.79750 0.20250 0.95610 0.54800
C 	C 	0.78320 0.21680 0.99780 0.05300
C 	C 	0.82465 0.17535 0.87920 -0.75600
H 	H 	0.83480 0.16520 0.85310 0.52100
C 	C 	0.75230 0.24770 0.07640 -0.17300
C 	C 	0.73640 0.26360 0.11690 0.13800
C 	C 	0.74105 0.48210 0.06990 0.11300
C 	C 	0.72885 0.45770 0.11260 0.22500
C 	C 	0.80955 0.61910 0.87090 0.59500
H 	H 	0.82140 0.64280 0.84580 -0.43900
C 	C 	0.77660 0.55320 0.94860 -0.50900
C 	C 	0.76465 0.52930 0.99100 -0.04000
C 	C 	0.79750 0.59500 0.95610 0.54500
C 	C 	0.78320 0.56640 0.99780 0.06000
C 	C 	0.82465 0.64930 0.87920 -0.75400
H 	H 	0.83480 0.66960 0.85310 0.51900
C 	C 	0.75230 0.50460 0.07640 -0.17200
C 	C 	0.73640 0.47280 0.11690 0.13900
C 	C 	0.74105 0.48210 0.43010 0.11200
C 	C 	0.72885 0.45770 0.38740 0.22500
C 	C 	0.80955 0.61910 0.62910 0.59300
H 	H 	0.82140 0.64280 0.65420 -0.43800
C 	C 	0.77660 0.55320 0.55140 -0.50700
C 	C 	0.76465 0.52930 0.50900 -0.04300
C 	C 	0.79750 0.59500 0.54390 0.54100
C 	C 	0.78320 0.56640 0.50220 0.06700
C 	C 	0.82465 0.64930 0.62080 -0.75200
H 	H 	0.83480 0.66960 0.64690 0.51800
C 	C 	0.75230 0.50460 0.42360 -0.17200
C 	C 	0.73640 0.47280 0.38310 0.13900
C 	C 	0.74105 0.25895 0.43010 0.11300
C 	C 	0.72885 0.27115 0.38740 0.22500
C 	C 	0.80955 0.19045 0.62910 0.59300
H 	H 	0.82140 0.17860 0.65420 -0.43800
C 	C 	0.77660 0.22340 0.55140 -0.50700
C 	C 	0.76465 0.23535 0.50900 -0.04300
C 	C 	0.79750 0.20250 0.54390 0.54100
C 	C 	0.78320 0.21680 0.50220 0.06700
C 	C 	0.82465 0.17535 0.62080 -0.75300
H 	H 	0.83480 0.16520 0.64690 0.51800
C 	C 	0.75230 0.24770 0.42360 -0.17200
C 	C 	0.73640 0.26360 0.38310 0.13900
C 	C 	0.51790 0.25895 0.43010 0.11200
C 	C 	0.54230 0.27115 0.38740 0.22500
C 	C 	0.38090 0.19045 0.62910 0.59300
H 	H 	0.35720 0.17860 0.65420 -0.43800
C 	C 	0.44680 0.22340 0.55140 -0.50700
C 	C 	0.47070 0.23535 0.50900 -0.04300
C 	C 	0.40500 0.20250 0.54390 0.54100
C 	C 	0.43360 0.21680 0.50220 0.06700
C 	C 	0.35070 0.17535 0.62080 -0.75200
H 	H 	0.33040 0.16520 0.64690 0.51800
C 	C 	0.49540 0.24770 0.42360 -0.17200
C 	C 	0.52720 0.26360 0.38310 0.13900
C 	C 	0.25895 0.51790 0.93010 0.11300
C 	C 	0.27115 0.54230 0.88740 0.22500
C 	C 	0.19045 0.38090 0.12910 0.59500
H 	H 	0.17860 0.35720 0.15420 -0.43900
C 	C 	0.22340 0.44680 0.05140 -0.50900
C 	C 	0.23535 0.47070 0.00900 -0.04000
C 	C 	0.20250 0.40500 0.04390 0.54500
C 	C 	0.21680 0.43360 0.00220 0.06000
C 	C 	0.17535 0.35070 0.12080 -0.75400
H 	H 	0.16520 0.33040 0.14690 0.51900
C 	C 	0.24770 0.49540 0.92360 -0.17200
C 	C 	0.26360 0.52720 0.88310 0.13900
C 	C 	0.25895 0.74105 0.93010 0.11600
C 	C 	0.27115 0.72885 0.88740 0.22600
C 	C 	0.19045 0.80955 0.12910 0.59700
H 	H 	0.17860 0.82140 0.15420 -0.44000
C 	C 	0.22340 0.77660 0.05140 -0.51100
C 	C 	0.23535 0.76465 0.00900 -0.03900
C 	C 	0.20250 0.79750 0.04390 0.54800
C 	C 	0.21680 0.78320 0.00220 0.05300
C 	C 	0.17535 0.82465 0.12080 -0.75600
H 	H 	0.16520 0.83480 0.14690 0.52100
C 	C 	0.24770 0.75230 0.92360 -0.17300
C 	C 	0.26360 0.73640 0.88310 0.13800
C 	C 	0.48210 0.74105 0.93010 0.11300
C 	C 	0.45770 0.72885 0.88740 0.22500
C 	C 	0.61910 0.80955 0.12910 0.59500
H 	H 	0.64280 0.82140 0.15420 -0.43900
C 	C 	0.55320 0.77660 0.05140 -0.50900
C 	C 	0.52930 0.76465 0.00900 -0.04000
C 	C 	0.59500 0.79750 0.04390 0.54500
C 	C 	0.56640 0.78320 0.00220 0.06000
C 	C 	0.64930 0.82465 0.12080 -0.75400
H 	H 	0.66960 0.83480 0.14690 0.51900
C 	C 	0.50460 0.75230 0.92360 -0.17200
C 	C 	0.47280 0.73640 0.88310 0.13900
O 	O 	0.66667 0.33333 0.32940 -0.85000
O 	O 	0.33333 0.66667 0.82940 -0.85000
O 	O 	0.33333 0.66667 0.67060 -0.85000
O 	O 	0.66667 0.33333 0.17060 -0.85000
Y 	Y 	0.75910 0.53721 0.25000 1.67900
Y 	Y 	0.46279 0.22189 0.25000 1.67900
Y 	Y 	0.77811 0.24090 0.25000 1.67900
Y 	Y 	0.24090 0.46279 0.75000 1.67900
Y 	Y 	0.53721 0.77811 0.75000 1.67900
Y 	Y 	0.22189 0.75910 0.75000 1.67900
Y 	Y 	0.53721 0.75910 0.75000 1.67900
Y 	Y 	0.22189 0.46279 0.75000 1.67900
Y 	Y 	0.24090 0.77811 0.75000 1.67900
Y 	Y 	0.46279 0.24090 0.25000 1.67900
Y 	Y 	0.77811 0.53721 0.25000 1.67900
Y 	Y 	0.75910 0.22189 0.25000 1.67900
