data_crystal

_cell_length_a 5.07940
_cell_length_b 15.21540
_cell_length_c 16.36040
_cell_angle_alpha 90.00000
_cell_angle_beta  95.69600
_cell_angle_gamma 90.00000

_symmetry_space_group_name_	'P 1'
_symmetry_space_group_name_H-M	'P 1'

loop_
_symmetry_equiv_pos_as_xyz
  x,y,z

loop_
_atom_site_label
_atom_site_type_symbol
_atom_site_fract_x
_atom_site_fract_y
_atom_site_fract_z
_atom_site_charge
Co	Co	0.34531 0.19683 0.08150 1.15600
Co	Co	0.96517 0.32292 0.21633 1.17500
Co	Co	0.99154 0.92892 0.18005 1.19000
P 	P 	0.41477 0.39932 0.13006 0.51200
P 	P 	0.92488 0.13034 0.16225 0.54700
P 	P 	0.52525 0.88622 0.08784 0.52700
O 	O 	0.30720 0.38624 0.21620 -0.58900
O 	O 	0.29260 0.32627 0.07351 -0.44900
O 	O 	0.71630 0.38990 0.14293 -0.43800
O 	O 	0.33350 0.48800 0.09607 -0.21900
O 	O 	0.03070 0.11464 0.07757 -0.61300
O 	O 	0.96750 0.04994 0.21735 -0.44600
O 	O 	0.10190 0.20543 0.20106 -0.52800
O 	O 	0.63740 0.15830 0.15790 -0.48800
O 	O 	0.24480 0.92096 0.09495 -0.54400
O 	O 	0.65290 0.85468 0.17465 -0.56400
O 	O 	0.52210 0.80917 0.02908 -0.46200
O 	O 	0.71060 0.95977 0.06687 -0.50400
Co	Co	0.15469 0.69683 0.41850 1.16600
Co	Co	0.53483 0.82292 0.28367 1.16600
Co	Co	0.50846 0.42892 0.31995 1.16200
P 	P 	0.08523 0.89932 0.36994 0.49200
P 	P 	0.57512 0.63034 0.33775 0.51400
P 	P 	0.97475 0.38622 0.41216 0.55000
O 	O 	0.19280 0.88624 0.28380 -0.57900
O 	O 	0.20740 0.82627 0.42649 -0.41700
O 	O 	0.78370 0.88990 0.35707 -0.40400
O 	O 	0.16650 0.98800 0.40393 -0.16200
O 	O 	0.46930 0.61464 0.42243 -0.55400
O 	O 	0.53250 0.54994 0.28265 -0.41300
O 	O 	0.39810 0.70543 0.29894 -0.50700
O 	O 	0.86260 0.65830 0.34210 -0.45300
O 	O 	0.25520 0.42096 0.40505 -0.56300
O 	O 	0.84710 0.35468 0.32535 -0.56900
O 	O 	0.97790 0.30917 0.47092 -0.42300
O 	O 	0.78940 0.45977 0.43313 -0.53200
Co	Co	0.65469 0.80317 0.91850 1.18900
Co	Co	0.03483 0.67708 0.78367 1.14700
Co	Co	0.00846 0.07108 0.81995 1.13300
P 	P 	0.58523 0.60068 0.86994 0.51200
P 	P 	0.07512 0.86966 0.83775 0.45700
P 	P 	0.47475 0.11378 0.91216 0.53000
O 	O 	0.69280 0.61376 0.78380 -0.56400
O 	O 	0.70740 0.67373 0.92649 -0.39400
O 	O 	0.28370 0.61010 0.85707 -0.43900
O 	O 	0.66650 0.51200 0.90393 -0.16300
O 	O 	0.96930 0.88536 0.92243 -0.46800
O 	O 	0.03250 0.95006 0.78265 -0.37900
O 	O 	0.89810 0.79457 0.79894 -0.45300
O 	O 	0.36260 0.84170 0.84210 -0.44800
O 	O 	0.75520 0.07904 0.90505 -0.51800
O 	O 	0.34710 0.14532 0.82535 -0.57400
O 	O 	0.47790 0.19083 0.97092 -0.38500
O 	O 	0.28940 0.04023 0.93313 -0.53900
Co	Co	0.84531 0.30317 0.58150 1.18000
Co	Co	0.46517 0.17708 0.71633 1.16300
Co	Co	0.49154 0.57108 0.68005 1.16500
P 	P 	0.91477 0.10068 0.63006 0.53900
P 	P 	0.42488 0.36966 0.66225 0.51500
P 	P 	0.02525 0.61378 0.58784 0.50400
O 	O 	0.80720 0.11376 0.71620 -0.57400
O 	O 	0.79260 0.17373 0.57351 -0.42800
O 	O 	0.21630 0.11010 0.64293 -0.47300
O 	O 	0.83350 0.01200 0.59607 -0.21700
O 	O 	0.53070 0.38536 0.57757 -0.55800
O 	O 	0.46750 0.45006 0.71735 -0.40700
O 	O 	0.60190 0.29457 0.70106 -0.49100
O 	O 	0.13740 0.34170 0.65790 -0.48700
O 	O 	0.74480 0.57904 0.59495 -0.51800
O 	O 	0.15290 0.64532 0.67465 -0.57200
O 	O 	0.02210 0.69083 0.52908 -0.43100
O 	O 	0.21060 0.54023 0.56687 -0.54000
Co	Co	-0.00000 0.00000 -0.00000 1.08500
Co	Co	0.50000 0.50000 0.50000 1.16400
