data_crystal

_cell_length_a 10.07900
_cell_length_b 14.81700
_cell_length_c 20.16500
_cell_angle_alpha 98.57700
_cell_angle_beta  103.94100
_cell_angle_gamma 91.75700

_symmetry_space_group_name_	'P 1'
_symmetry_space_group_name_H-M	'P 1'

loop_
_symmetry_equiv_pos_as_xyz
  x,y,z

loop_
_atom_site_label
_atom_site_type_symbol
_atom_site_fract_x
_atom_site_fract_y
_atom_site_fract_z
_atom_site_charge
N 	N 	0.87610 0.22860 0.34930 -0.23300
C 	C 	0.76550 0.17990 0.29610 0.05500
H 	H 	0.69670 0.21270 0.27320 0.01800
C 	C 	0.75700 0.08370 0.27740 -0.13600
H 	H 	0.69560 0.05250 0.23800 0.08900
C 	C 	0.84950 0.03960 0.32330 0.10100
N 	N 	0.14920 0.19230 0.20240 -0.22400
C 	C 	0.25160 0.16440 0.24880 0.08500
H 	H 	0.32050 0.20780 0.27440 0.00800
Co	Co	0.89282 0.37440 0.34693 1.17500
Co	Co	0.13889 0.33832 0.20610 1.17400
O 	O 	0.09030 0.37840 0.40130 -0.43400
O 	O 	0.94080 0.32310 0.14980 -0.43300
O 	O 	0.81260 0.39860 0.43980 -0.36300
O 	O 	0.35360 0.34500 0.21200 -0.37200
O 	O 	0.67660 0.37880 0.33700 -0.36700
O 	O 	0.21720 0.33440 0.10860 -0.34700
O 	O 	0.17030 0.34400 0.30880 -0.46800
N 	N 	0.13600 0.48340 0.21680 -0.23400
C 	C 	0.58850 0.33880 0.16130 -0.04200
H 	H 	0.60030 0.34390 0.20890 0.07300
N 	N 	0.91100 0.51870 0.34470 -0.23800
C 	C 	0.44240 0.37710 0.38860 -0.04100
H 	H 	0.42940 0.37380 0.34110 0.07300
C 	C 	0.32990 0.37300 0.41810 -0.03800
C 	C 	0.57350 0.38610 0.43230 -0.00200
O 	O 	0.51300 0.37830 0.59980 -0.21800
C 	C 	0.18640 0.36470 0.37260 0.38000
C 	C 	0.84390 0.33300 0.17920 0.38200
C 	C 	0.70390 0.33270 0.13260 -0.04300
O 	O 	0.52530 0.33240 0.95010 -0.21300
O 	O 	0.85780 0.34120 0.24220 -0.46800
C 	C 	0.69540 0.38820 0.40220 0.28100
C 	C 	0.55590 0.33240 0.01980 0.18800
C 	C 	0.34970 0.37510 0.48900 -0.12800
H 	H 	0.27460 0.37260 0.50800 0.09500
C 	C 	0.59310 0.38800 0.50200 -0.14000
H 	H 	0.68180 0.39400 0.53020 0.10600
C 	C 	0.68450 0.32900 0.06160 -0.12800
H 	H 	0.75940 0.32410 0.04220 0.09100
C 	C 	0.45950 0.33710 0.11880 -0.00700
C 	C 	0.63540 0.33090 0.91660 -0.01800
H 	H 	0.68080 0.27440 0.92000 0.04000
H 	H 	0.70220 0.38170 0.93830 0.04100
C 	C 	0.33520 0.34010 0.14820 0.27600
C 	C 	0.07560 0.52750 0.16680 0.09000
H 	H 	0.02770 0.49320 0.12490 -0.00200
C 	C 	0.15660 0.77390 0.25110 0.08100
C 	C 	0.86920 0.79260 0.30430 0.08400
N 	N 	0.81460 0.89890 0.24300 -0.08700
C 	C 	0.48220 0.38100 0.53140 0.19400
C 	C 	0.16110 0.01100 0.22420 0.06800
C 	C 	0.20100 0.53490 0.27740 0.08400
H 	H 	0.24330 0.50590 0.31390 0.00300
C 	C 	0.16380 0.91970 0.24540 0.08600
C 	C 	0.57580 0.33830 0.84240 0.04000
C 	C 	0.46200 0.35420 0.70430 0.05800
C 	C 	0.53590 0.26080 0.79420 -0.04900
H 	H 	0.54530 0.20340 0.80760 0.06100
C 	C 	0.55680 0.42400 0.82290 -0.04600
H 	H 	0.58370 0.47650 0.85580 0.05900
C 	C 	0.44090 0.33310 0.04710 -0.13600
H 	H 	0.35330 0.33100 0.01820 0.10600
C 	C 	0.94020 0.07880 0.37080 -0.17400
H 	H 	0.00490 0.04620 0.39690 0.10500
C 	C 	0.14550 0.67490 0.23330 0.07400
N 	N 	0.83170 0.81910 0.25080 -0.08700
C 	C 	0.40150 0.36260 0.63080 -0.03500
H 	H 	0.34720 0.30690 0.60680 0.05000
H 	H 	0.34270 0.41320 0.62820 0.05300
C 	C 	0.48020 0.26820 0.72380 -0.06700
H 	H 	0.45580 0.21580 0.69070 0.06700
C 	C 	0.20720 0.62840 0.28720 -0.13600
H 	H 	0.25260 0.66150 0.33000 0.10300
C 	C 	0.05350 0.03480 0.17270 -0.13800
H 	H 	0.98620 0.99210 0.14460 0.08700
N 	N 	0.18940 0.81720 0.31400 -0.08500
C 	C 	0.95110 0.68820 0.38300 -0.15300
H 	H 	0.98390 0.73950 0.41650 0.09700
C 	C 	0.26190 0.07650 0.26120 -0.13900
H 	H 	0.33590 0.06120 0.29410 0.09000
C 	C 	0.84570 0.93460 0.30510 0.09000
C 	C 	0.88440 0.69180 0.31800 0.13300
C 	C 	0.96900 0.57830 0.39770 0.06200
H 	H 	0.01590 0.56310 0.43980 0.02400
N 	N 	0.19350 0.90860 0.31050 -0.08500
C 	C 	0.05540 0.12850 0.16690 0.08700
H 	H 	0.98300 0.14680 0.13470 0.00400
C 	C 	0.07940 0.62220 0.17310 -0.14300
H 	H 	0.03620 0.64940 0.13570 0.08000
C 	C 	0.94500 0.18590 0.38700 0.13200
H 	H 	0.00470 0.21640 0.42750 -0.01300
C 	C 	0.49810 0.43140 0.75470 -0.07400
H 	H 	0.48250 0.48900 0.74250 0.07600
N 	N 	0.13940 0.83720 0.20580 -0.08900
N 	N 	0.88970 0.87400 0.35010 -0.12100
N 	N 	0.11420 0.81690 0.13450 -0.24600
H 	H 	0.11310 0.86030 0.11040 0.13900
H 	H 	0.09970 0.76090 0.11420 0.13500
C 	C 	0.83470 0.62900 0.26920 -0.24200
H 	H 	0.78950 0.63980 0.22550 0.13000
C 	C 	0.85080 0.54780 0.28420 0.14200
H 	H 	0.81510 0.50090 0.24740 -0.02300
N 	N 	0.12390 0.77140 0.65070 -0.23300
C 	C 	0.23450 0.82010 0.70390 0.05500
H 	H 	0.30330 0.78730 0.72680 0.01800
C 	C 	0.24300 0.91630 0.72260 -0.13600
H 	H 	0.30440 0.94750 0.76200 0.08900
C 	C 	0.15050 0.96040 0.67670 0.10100
N 	N 	0.85080 0.80770 0.79760 -0.22400
C 	C 	0.74840 0.83560 0.75120 0.08500
H 	H 	0.67950 0.79220 0.72560 0.00800
Co	Co	0.10718 0.62560 0.65307 1.17500
Co	Co	0.86111 0.66168 0.79390 1.17400
O 	O 	0.90970 0.62160 0.59870 -0.43400
O 	O 	0.05920 0.67690 0.85020 -0.43300
O 	O 	0.18740 0.60140 0.56020 -0.36300
O 	O 	0.64640 0.65500 0.78800 -0.37200
O 	O 	0.32340 0.62120 0.66300 -0.36700
O 	O 	0.78280 0.66560 0.89140 -0.34700
O 	O 	0.82970 0.65600 0.69120 -0.46800
N 	N 	0.86400 0.51660 0.78320 -0.23400
C 	C 	0.41150 0.66120 0.83870 -0.04200
H 	H 	0.39970 0.65610 0.79110 0.07300
N 	N 	0.08900 0.48130 0.65530 -0.23800
C 	C 	0.55760 0.62290 0.61140 -0.04100
H 	H 	0.57060 0.62620 0.65890 0.07300
C 	C 	0.67010 0.62700 0.58190 -0.03800
C 	C 	0.42650 0.61390 0.56770 -0.00200
O 	O 	0.48700 0.62170 0.40020 -0.21800
C 	C 	0.81360 0.63530 0.62740 0.38000
C 	C 	0.15610 0.66700 0.82080 0.38200
C 	C 	0.29610 0.66730 0.86740 -0.04300
O 	O 	0.47470 0.66760 0.04990 -0.21300
O 	O 	0.14220 0.65880 0.75780 -0.46800
C 	C 	0.30460 0.61180 0.59780 0.28100
C 	C 	0.44410 0.66760 0.98020 0.18800
C 	C 	0.65030 0.62490 0.51100 -0.12800
H 	H 	0.72540 0.62740 0.49200 0.09500
C 	C 	0.40690 0.61200 0.49800 -0.14000
H 	H 	0.31820 0.60600 0.46980 0.10600
C 	C 	0.31550 0.67100 0.93840 -0.12800
H 	H 	0.24060 0.67590 0.95780 0.09100
C 	C 	0.54050 0.66290 0.88120 -0.00700
C 	C 	0.36460 0.66910 0.08340 -0.01800
H 	H 	0.31920 0.72560 0.08000 0.04000
H 	H 	0.29780 0.61830 0.06170 0.04100
C 	C 	0.66480 0.65990 0.85180 0.27600
C 	C 	0.92440 0.47250 0.83320 0.09000
H 	H 	0.97230 0.50680 0.87510 -0.00200
C 	C 	0.84340 0.22610 0.74890 0.08100
C 	C 	0.13080 0.20740 0.69570 0.08400
N 	N 	0.18540 0.10110 0.75700 -0.08700
C 	C 	0.51780 0.61900 0.46860 0.19400
C 	C 	0.83890 0.98900 0.77580 0.06800
C 	C 	0.79900 0.46510 0.72260 0.08400
H 	H 	0.75670 0.49410 0.68610 0.00300
C 	C 	0.83620 0.08030 0.75460 0.08600
C 	C 	0.42420 0.66170 0.15760 0.04000
C 	C 	0.53800 0.64580 0.29570 0.05800
C 	C 	0.46410 0.73920 0.20580 -0.04900
H 	H 	0.45470 0.79660 0.19240 0.06100
C 	C 	0.44320 0.57600 0.17710 -0.04600
H 	H 	0.41630 0.52350 0.14420 0.05900
C 	C 	0.55910 0.66690 0.95290 -0.13600
H 	H 	0.64670 0.66900 0.98180 0.10600
C 	C 	0.05980 0.92120 0.62920 -0.17400
H 	H 	0.99510 0.95380 0.60310 0.10500
C 	C 	0.85450 0.32510 0.76670 0.07400
N 	N 	0.16830 0.18090 0.74920 -0.08700
C 	C 	0.59850 0.63740 0.36920 -0.03500
H 	H 	0.65280 0.69310 0.39320 0.05000
H 	H 	0.65730 0.58680 0.37180 0.05300
C 	C 	0.51980 0.73180 0.27620 -0.06700
H 	H 	0.54420 0.78420 0.30930 0.06700
C 	C 	0.79280 0.37160 0.71280 -0.13600
H 	H 	0.74740 0.33850 0.67000 0.10300
C 	C 	0.94650 0.96520 0.82730 -0.13800
H 	H 	0.01380 0.00790 0.85540 0.08700
N 	N 	0.81060 0.18280 0.68600 -0.08500
C 	C 	0.04890 0.31180 0.61700 -0.15300
H 	H 	0.01610 0.26050 0.58350 0.09700
C 	C 	0.73810 0.92350 0.73880 -0.13900
H 	H 	0.66410 0.93880 0.70590 0.09000
C 	C 	0.15430 0.06540 0.69490 0.09000
C 	C 	0.11560 0.30820 0.68200 0.13300
C 	C 	0.03100 0.42170 0.60230 0.06200
H 	H 	0.98410 0.43690 0.56020 0.02400
N 	N 	0.80650 0.09140 0.68950 -0.08500
C 	C 	0.94460 0.87150 0.83310 0.08700
H 	H 	0.01700 0.85320 0.86530 0.00400
C 	C 	0.92060 0.37780 0.82690 -0.14300
H 	H 	0.96380 0.35060 0.86430 0.08000
C 	C 	0.05500 0.81410 0.61300 0.13200
H 	H 	0.99530 0.78360 0.57250 -0.01300
C 	C 	0.50190 0.56860 0.24530 -0.07400
H 	H 	0.51750 0.51100 0.25750 0.07600
N 	N 	0.86060 0.16280 0.79420 -0.08900
N 	N 	0.11030 0.12600 0.64990 -0.12100
N 	N 	0.88580 0.18310 0.86550 -0.24600
H 	H 	0.88690 0.13970 0.88960 0.13900
H 	H 	0.90030 0.23910 0.88580 0.13500
C 	C 	0.16530 0.37100 0.73080 -0.24200
H 	H 	0.21050 0.36020 0.77450 0.13000
C 	C 	0.14920 0.45220 0.71580 0.14200
H 	H 	0.18490 0.49910 0.75260 -0.02300
