data_crystal

_cell_length_a 30.89200
_cell_length_b 14.75100
_cell_length_c 19.08000
_cell_angle_alpha 90.00000
_cell_angle_beta  111.55200
_cell_angle_gamma 90.00000

_symmetry_space_group_name_	'P 1'
_symmetry_space_group_name_H-M	'P 1'

loop_
_symmetry_equiv_pos_as_xyz
  x,y,z

loop_
_atom_site_label
_atom_site_type_symbol
_atom_site_fract_x
_atom_site_fract_y
_atom_site_fract_z
_atom_site_charge
C 	C 	0.43560 0.45570 0.27510 0.45200
C 	C 	0.40040 0.47490 0.30980 -0.09400
C 	C 	0.35350 0.47850 0.26530 -0.08300
H 	H 	0.34340 0.46710 0.21390 0.08000
C 	C 	0.32190 0.49940 0.29910 0.14700
C 	C 	0.33700 0.51940 0.37620 -0.09500
H 	H 	0.31540 0.53470 0.39770 0.08900
C 	C 	0.38350 0.51640 0.42030 -0.05100
C 	C 	0.39940 0.54190 0.50190 0.31700
C 	C 	0.41520 0.49300 0.38590 0.00700
H 	H 	0.44680 0.48960 0.41510 0.03300
C 	C 	0.25730 0.48670 0.18210 -0.13000
H 	H 	0.26770 0.42750 0.17260 0.07900
H 	H 	0.26900 0.53200 0.15670 0.08300
C 	C 	0.20540 0.48970 0.15340 0.20800
C 	C 	0.18200 0.50370 0.07710 -0.26400
H 	H 	0.19870 0.51300 0.04590 0.12600
C 	C 	0.13390 0.50390 0.04690 0.19800
H 	H 	0.11880 0.51340 0.99550 -0.03200
C 	C 	0.10890 0.49130 0.08850 -0.26300
H 	H 	0.07660 0.49220 0.06700 0.13900
C 	C 	0.13140 0.47660 0.16530 0.17100
C 	C 	0.18010 0.47910 0.19680 -0.24700
H 	H 	0.19510 0.47340 0.24870 0.13900
C 	C 	0.10290 0.45250 0.22020 -0.03400
H 	H 	0.07470 0.41920 0.19290 0.05000
H 	H 	0.12200 0.41640 0.26300 0.04900
C 	C 	0.07060 0.53200 0.29010 0.19500
C 	C 	0.05630 0.45690 0.32000 -0.13900
H 	H 	0.06150 0.39870 0.30610 0.09700
C 	C 	0.03370 0.46990 0.37180 -0.02300
C 	C 	0.02080 0.39030 0.40710 0.29400
C 	C 	0.02530 0.55640 0.39100 -0.01900
H 	H 	0.01050 0.56490 0.42500 0.04900
C 	C 	0.03920 0.63150 0.35930 -0.06500
C 	C 	0.03130 0.72620 0.37780 0.39700
C 	C 	0.06170 0.61760 0.30810 -0.11700
H 	H 	0.07070 0.66710 0.28650 0.10000
C 	C 	0.07740 0.77510 0.65590 0.07000
H 	H 	0.05240 0.78870 0.67030 -0.01600
C 	C 	0.12130 0.78140 0.70820 -0.14500
H 	H 	0.12530 0.80130 0.75640 0.09000
C 	C 	0.15790 0.76070 0.69330 0.07100
C 	C 	0.15170 0.73870 0.61780 -0.13300
H 	H 	0.17680 0.72730 0.60340 0.08000
C 	C 	0.10510 0.73490 0.56530 0.09300
H 	H 	0.10030 0.72120 0.51540 -0.00600
C 	C 	0.20260 0.76020 0.75900 0.09100
C 	C 	0.27460 0.75410 0.83010 0.07600
C 	C 	0.32830 0.75540 0.86530 0.14700
C 	C 	0.35650 0.78210 0.83180 -0.19000
H 	H 	0.34490 0.80040 0.78170 0.10300
C 	C 	0.40480 0.78220 0.87420 0.12100
H 	H 	0.42480 0.80070 0.85060 -0.00500
C 	C 	0.39240 0.73600 0.97220 0.16100
H 	H 	0.40300 0.72170 0.02320 -0.04200
C 	C 	0.34550 0.73160 0.93380 -0.23700
H 	H 	0.32620 0.71120 0.95800 0.12600
N 	N 	0.06860 0.74950 0.58290 -0.25000
N 	N 	0.20430 0.74780 0.82540 -0.09200
N 	N 	0.24790 0.74170 0.86420 -0.08800
N 	N 	0.24660 0.76130 0.76000 -0.09600
N 	N 	0.25920 0.78550 0.69410 -0.24800
H 	H 	0.28770 0.79640 0.70030 0.13800
H 	H 	0.23790 0.78850 0.64980 0.13900
N 	N 	0.42290 0.75770 0.94520 -0.27700
O 	O 	0.42192 0.44990 0.20510 -0.49100
O 	O 	0.47604 0.44700 0.31730 -0.53800
O 	O 	0.44343 0.54210 0.53830 -0.45400
O 	O 	0.37160 0.56510 0.52940 -0.31000
O 	O 	0.27416 0.50440 0.26100 -0.18400
O 	O 	0.09310 0.53130 0.24260 -0.22700
O 	O 	0.02440 0.31170 0.38460 -0.37200
O 	O 	0.00732 0.40050 0.46110 -0.41500
O 	O 	0.00910 0.74270 0.41910 -0.50000
O 	O 	0.04800 0.78800 0.34840 -0.45400
Zn	Zn	0.45816 0.41975 0.14393 1.23900
Zn	Zn	0.99548 0.73549 0.51363 1.19600
C 	C 	0.93560 0.95570 0.27510 0.45000
C 	C 	0.90040 0.97490 0.30980 -0.09500
C 	C 	0.85350 0.97850 0.26530 -0.08400
H 	H 	0.84340 0.96710 0.21390 0.07800
C 	C 	0.82190 0.99940 0.29910 0.14600
C 	C 	0.83700 0.01940 0.37620 -0.09500
H 	H 	0.81540 0.03470 0.39770 0.08800
C 	C 	0.88350 0.01640 0.42030 -0.05300
C 	C 	0.89940 0.04190 0.50190 0.31600
C 	C 	0.91520 0.99300 0.38590 0.00600
H 	H 	0.94680 0.98960 0.41510 0.03200
C 	C 	0.75730 0.98670 0.18210 -0.13200
H 	H 	0.76770 0.92750 0.17260 0.07800
H 	H 	0.76900 0.03200 0.15670 0.08200
C 	C 	0.70540 0.98970 0.15340 0.20800
C 	C 	0.68200 0.00370 0.07710 -0.26300
H 	H 	0.69870 0.01300 0.04590 0.12500
C 	C 	0.63390 0.00390 0.04690 0.19700
H 	H 	0.61880 0.01340 0.99550 -0.03200
C 	C 	0.60890 0.99130 0.08850 -0.26200
H 	H 	0.57660 0.99220 0.06700 0.13800
C 	C 	0.63140 0.97660 0.16530 0.17000
C 	C 	0.68010 0.97910 0.19680 -0.24700
H 	H 	0.69510 0.97340 0.24870 0.13900
C 	C 	0.60290 0.95250 0.22020 -0.03300
H 	H 	0.57470 0.91920 0.19290 0.05000
H 	H 	0.62200 0.91640 0.26300 0.04900
C 	C 	0.57060 0.03200 0.29010 0.19500
C 	C 	0.55630 0.95690 0.32000 -0.13900
H 	H 	0.56150 0.89870 0.30610 0.09700
C 	C 	0.53370 0.96990 0.37180 -0.02400
C 	C 	0.52080 0.89030 0.40710 0.29400
C 	C 	0.52530 0.05640 0.39100 -0.01900
H 	H 	0.51050 0.06490 0.42500 0.04900
C 	C 	0.53920 0.13150 0.35930 -0.06500
C 	C 	0.53130 0.22620 0.37780 0.39700
C 	C 	0.56170 0.11760 0.30810 -0.11700
H 	H 	0.57070 0.16710 0.28650 0.10000
C 	C 	0.57740 0.27510 0.65590 0.07000
H 	H 	0.55240 0.28870 0.67030 -0.01600
C 	C 	0.62130 0.28140 0.70820 -0.14500
H 	H 	0.62530 0.30130 0.75640 0.09000
C 	C 	0.65790 0.26070 0.69330 0.07100
C 	C 	0.65170 0.23870 0.61780 -0.13300
H 	H 	0.67680 0.22730 0.60340 0.08000
C 	C 	0.60510 0.23490 0.56530 0.09300
H 	H 	0.60030 0.22120 0.51540 -0.00600
C 	C 	0.70260 0.26020 0.75900 0.09100
C 	C 	0.77460 0.25410 0.83010 0.07600
C 	C 	0.82830 0.25540 0.86530 0.14800
C 	C 	0.85650 0.28210 0.83180 -0.19100
H 	H 	0.84490 0.30040 0.78170 0.10300
C 	C 	0.90480 0.28220 0.87420 0.12100
H 	H 	0.92480 0.30070 0.85060 -0.00500
C 	C 	0.89240 0.23600 0.97220 0.16200
H 	H 	0.90300 0.22170 0.02320 -0.04200
C 	C 	0.84550 0.23160 0.93380 -0.23700
H 	H 	0.82620 0.21120 0.95800 0.12600
N 	N 	0.56860 0.24950 0.58290 -0.25000
N 	N 	0.70430 0.24780 0.82540 -0.09200
N 	N 	0.74790 0.24170 0.86420 -0.08800
N 	N 	0.74660 0.26130 0.76000 -0.09600
N 	N 	0.75920 0.28550 0.69410 -0.24800
H 	H 	0.78770 0.29640 0.70030 0.13800
H 	H 	0.73790 0.28850 0.64980 0.13900
N 	N 	0.92290 0.25770 0.94520 -0.27700
O 	O 	0.92192 0.94990 0.20510 -0.49100
O 	O 	0.97604 0.94700 0.31730 -0.53800
O 	O 	0.94343 0.04210 0.53830 -0.45400
O 	O 	0.87160 0.06510 0.52940 -0.31000
O 	O 	0.77416 0.00440 0.26100 -0.18400
O 	O 	0.59310 0.03130 0.24260 -0.22700
O 	O 	0.52440 0.81170 0.38460 -0.37200
O 	O 	0.50732 0.90050 0.46110 -0.41600
O 	O 	0.50910 0.24270 0.41910 -0.50100
O 	O 	0.54800 0.28800 0.34840 -0.45400
Zn	Zn	0.95816 0.91975 0.14393 1.23900
Zn	Zn	0.49548 0.23549 0.51363 1.19600
C 	C 	0.56440 0.45570 0.22490 0.45100
C 	C 	0.59960 0.47490 0.19020 -0.09500
C 	C 	0.64650 0.47850 0.23470 -0.08400
H 	H 	0.65660 0.46710 0.28610 0.07800
C 	C 	0.67810 0.49940 0.20090 0.14600
C 	C 	0.66300 0.51940 0.12380 -0.09600
H 	H 	0.68460 0.53470 0.10230 0.08800
C 	C 	0.61650 0.51640 0.07970 -0.05300
C 	C 	0.60060 0.54190 0.99810 0.31700
C 	C 	0.58480 0.49300 0.11410 0.00600
H 	H 	0.55320 0.48960 0.08490 0.03200
C 	C 	0.74270 0.48670 0.31790 -0.13000
H 	H 	0.73230 0.42750 0.32740 0.07800
H 	H 	0.73100 0.53200 0.34330 0.08200
C 	C 	0.79460 0.48970 0.34660 0.20700
C 	C 	0.81800 0.50370 0.42290 -0.26200
H 	H 	0.80130 0.51300 0.45410 0.12500
C 	C 	0.86610 0.50390 0.45310 0.19500
H 	H 	0.88120 0.51340 0.50450 -0.03100
C 	C 	0.89110 0.49130 0.41150 -0.26000
H 	H 	0.92340 0.49220 0.43300 0.13800
C 	C 	0.86860 0.47660 0.33470 0.17000
C 	C 	0.81990 0.47910 0.30320 -0.24600
H 	H 	0.80490 0.47340 0.25130 0.13900
C 	C 	0.89710 0.45250 0.27980 -0.03300
H 	H 	0.92530 0.41920 0.30710 0.04900
H 	H 	0.87800 0.41640 0.23700 0.04900
C 	C 	0.92940 0.53200 0.20990 0.19500
C 	C 	0.94370 0.45690 0.18000 -0.13900
H 	H 	0.93850 0.39870 0.19390 0.09700
C 	C 	0.96630 0.46990 0.12820 -0.02300
C 	C 	0.97920 0.39030 0.09290 0.29400
C 	C 	0.97470 0.55640 0.10900 -0.01900
H 	H 	0.98950 0.56490 0.07500 0.04900
C 	C 	0.96080 0.63150 0.14070 -0.06500
C 	C 	0.96870 0.72620 0.12220 0.39700
C 	C 	0.93830 0.61760 0.19190 -0.11700
H 	H 	0.92930 0.66710 0.21350 0.10000
C 	C 	0.92260 0.77510 0.84410 0.07000
H 	H 	0.94760 0.78870 0.82970 -0.01600
C 	C 	0.87870 0.78140 0.79180 -0.14400
H 	H 	0.87470 0.80130 0.74360 0.09000
C 	C 	0.84210 0.76070 0.80670 0.07100
C 	C 	0.84830 0.73870 0.88220 -0.13200
H 	H 	0.82320 0.72730 0.89660 0.08000
C 	C 	0.89490 0.73490 0.93470 0.09300
H 	H 	0.89970 0.72120 0.98460 -0.00600
C 	C 	0.79740 0.76020 0.74100 0.09100
C 	C 	0.72540 0.75410 0.66990 0.07600
C 	C 	0.67170 0.75540 0.63470 0.14700
C 	C 	0.64350 0.78210 0.66820 -0.19000
H 	H 	0.65510 0.80040 0.71830 0.10300
C 	C 	0.59520 0.78220 0.62580 0.12100
H 	H 	0.57520 0.80070 0.64940 -0.00500
C 	C 	0.60760 0.73600 0.52780 0.16100
H 	H 	0.59700 0.72170 0.47680 -0.04200
C 	C 	0.65450 0.73160 0.56620 -0.23700
H 	H 	0.67380 0.71120 0.54200 0.12600
N 	N 	0.93140 0.74950 0.91710 -0.25000
N 	N 	0.79570 0.74780 0.67460 -0.09200
N 	N 	0.75210 0.74170 0.63580 -0.08800
N 	N 	0.75340 0.76130 0.74000 -0.09600
N 	N 	0.74080 0.78550 0.80590 -0.24800
H 	H 	0.71230 0.79640 0.79970 0.13800
H 	H 	0.76210 0.78850 0.85020 0.13900
N 	N 	0.57710 0.75770 0.55480 -0.27700
O 	O 	0.57808 0.44990 0.29490 -0.49100
O 	O 	0.52396 0.44700 0.18270 -0.53800
O 	O 	0.55657 0.54210 0.96170 -0.45400
O 	O 	0.62840 0.56510 0.97060 -0.31000
O 	O 	0.72584 0.50440 0.23900 -0.18400
O 	O 	0.90690 0.53130 0.25740 -0.22700
O 	O 	0.97560 0.31170 0.11540 -0.37200
O 	O 	0.99268 0.40050 0.03890 -0.41500
O 	O 	0.99090 0.74270 0.08090 -0.50100
O 	O 	0.95200 0.78800 0.15160 -0.45400
Zn	Zn	0.54184 0.41975 0.35607 1.23900
Zn	Zn	0.00452 0.73549 0.98637 1.19600
C 	C 	0.06440 0.95570 0.22490 0.45000
C 	C 	0.09960 0.97490 0.19020 -0.09400
C 	C 	0.14650 0.97850 0.23470 -0.08400
H 	H 	0.15660 0.96710 0.28610 0.07800
C 	C 	0.17810 0.99940 0.20090 0.14600
C 	C 	0.16300 0.01940 0.12380 -0.09600
H 	H 	0.18460 0.03470 0.10230 0.08800
C 	C 	0.11650 0.01640 0.07970 -0.05100
C 	C 	0.10060 0.04190 0.99810 0.31500
C 	C 	0.08480 0.99300 0.11410 0.00500
H 	H 	0.05320 0.98960 0.08490 0.03300
C 	C 	0.24270 0.98670 0.31790 -0.13100
H 	H 	0.23230 0.92750 0.32740 0.07800
H 	H 	0.23100 0.03200 0.34330 0.08200
C 	C 	0.29460 0.98970 0.34660 0.20700
C 	C 	0.31800 0.00370 0.42290 -0.26200
H 	H 	0.30130 0.01300 0.45410 0.12500
C 	C 	0.36610 0.00390 0.45310 0.19500
H 	H 	0.38120 0.01340 0.50450 -0.03100
C 	C 	0.39110 0.99130 0.41150 -0.26100
H 	H 	0.42340 0.99220 0.43300 0.13800
C 	C 	0.36860 0.97660 0.33470 0.17000
C 	C 	0.31990 0.97910 0.30320 -0.24600
H 	H 	0.30490 0.97340 0.25130 0.13900
C 	C 	0.39710 0.95250 0.27980 -0.03300
H 	H 	0.42530 0.91920 0.30710 0.04900
H 	H 	0.37800 0.91640 0.23700 0.04900
C 	C 	0.42940 0.03200 0.20990 0.19500
C 	C 	0.44370 0.95690 0.18000 -0.13900
H 	H 	0.43850 0.89870 0.19390 0.09700
C 	C 	0.46630 0.96990 0.12820 -0.02400
C 	C 	0.47920 0.89030 0.09290 0.29400
C 	C 	0.47470 0.05640 0.10900 -0.01800
H 	H 	0.48950 0.06490 0.07500 0.04900
C 	C 	0.46080 0.13150 0.14070 -0.06500
C 	C 	0.46870 0.22620 0.12220 0.39700
C 	C 	0.43830 0.11760 0.19190 -0.11700
H 	H 	0.42930 0.16710 0.21350 0.10000
C 	C 	0.42260 0.27510 0.84410 0.07000
H 	H 	0.44760 0.28870 0.82970 -0.01600
C 	C 	0.37870 0.28140 0.79180 -0.14500
H 	H 	0.37470 0.30130 0.74360 0.09000
C 	C 	0.34210 0.26070 0.80670 0.07100
C 	C 	0.34830 0.23870 0.88220 -0.13200
H 	H 	0.32320 0.22730 0.89660 0.08000
C 	C 	0.39490 0.23490 0.93470 0.09300
H 	H 	0.39970 0.22120 0.98460 -0.00600
C 	C 	0.29740 0.26020 0.74100 0.09100
C 	C 	0.22540 0.25410 0.66990 0.07600
C 	C 	0.17170 0.25540 0.63470 0.14700
C 	C 	0.14350 0.28210 0.66820 -0.19000
H 	H 	0.15510 0.30040 0.71830 0.10300
C 	C 	0.09520 0.28220 0.62580 0.12100
H 	H 	0.07520 0.30070 0.64940 -0.00500
C 	C 	0.10760 0.23600 0.52780 0.16100
H 	H 	0.09700 0.22170 0.47680 -0.04200
C 	C 	0.15450 0.23160 0.56620 -0.23700
H 	H 	0.17380 0.21120 0.54200 0.12600
N 	N 	0.43140 0.24950 0.91710 -0.25000
N 	N 	0.29570 0.24780 0.67460 -0.09200
N 	N 	0.25210 0.24170 0.63580 -0.08800
N 	N 	0.25340 0.26130 0.74000 -0.09600
N 	N 	0.24080 0.28550 0.80590 -0.24800
H 	H 	0.21230 0.29640 0.79970 0.13800
H 	H 	0.26210 0.28850 0.85020 0.13900
N 	N 	0.07710 0.25770 0.55480 -0.27700
O 	O 	0.07808 0.94990 0.29490 -0.49100
O 	O 	0.02396 0.94700 0.18270 -0.53700
O 	O 	0.05657 0.04210 0.96170 -0.45400
O 	O 	0.12840 0.06510 0.97060 -0.31000
O 	O 	0.22584 0.00440 0.23900 -0.18400
O 	O 	0.40690 0.03130 0.25740 -0.22700
O 	O 	0.47560 0.81170 0.11540 -0.37200
O 	O 	0.49268 0.90050 0.03890 -0.41600
O 	O 	0.49090 0.24270 0.08090 -0.50100
O 	O 	0.45200 0.28800 0.15160 -0.45400
Zn	Zn	0.04184 0.91975 0.35607 1.23900
Zn	Zn	0.50452 0.23549 0.98637 1.19600
C 	C 	0.56440 0.54430 0.72490 0.45100
C 	C 	0.59960 0.52510 0.69020 -0.09500
C 	C 	0.64650 0.52150 0.73470 -0.08400
H 	H 	0.65660 0.53290 0.78610 0.07900
C 	C 	0.67810 0.50060 0.70090 0.14600
C 	C 	0.66300 0.48060 0.62380 -0.09600
H 	H 	0.68460 0.46530 0.60230 0.08800
C 	C 	0.61650 0.48360 0.57970 -0.05200
C 	C 	0.60060 0.45810 0.49810 0.31600
C 	C 	0.58480 0.50700 0.61410 0.00600
H 	H 	0.55320 0.51040 0.58490 0.03200
C 	C 	0.74270 0.51330 0.81790 -0.13100
H 	H 	0.73230 0.57250 0.82740 0.07800
H 	H 	0.73100 0.46800 0.84330 0.08200
C 	C 	0.79460 0.51030 0.84660 0.20800
C 	C 	0.81800 0.49630 0.92290 -0.26400
H 	H 	0.80130 0.48700 0.95410 0.12600
C 	C 	0.86610 0.49610 0.95310 0.19800
H 	H 	0.88120 0.48660 0.00450 -0.03200
C 	C 	0.89110 0.50870 0.91150 -0.26300
H 	H 	0.92340 0.50780 0.93300 0.13900
C 	C 	0.86860 0.52340 0.83470 0.17100
C 	C 	0.81990 0.52090 0.80320 -0.24700
H 	H 	0.80490 0.52660 0.75130 0.13900
C 	C 	0.89710 0.54750 0.77980 -0.03400
H 	H 	0.92530 0.58080 0.80710 0.05000
H 	H 	0.87800 0.58360 0.73700 0.04900
C 	C 	0.92940 0.46800 0.70990 0.19500
C 	C 	0.94370 0.54310 0.68000 -0.13900
H 	H 	0.93850 0.60130 0.69390 0.09700
C 	C 	0.96630 0.53010 0.62820 -0.02300
C 	C 	0.97920 0.60970 0.59290 0.29400
C 	C 	0.97470 0.44360 0.60900 -0.01900
H 	H 	0.98950 0.43510 0.57500 0.04900
C 	C 	0.96080 0.36850 0.64070 -0.06500
C 	C 	0.96870 0.27380 0.62220 0.39700
C 	C 	0.93830 0.38240 0.69190 -0.11700
H 	H 	0.92930 0.33290 0.71350 0.10000
C 	C 	0.92260 0.22490 0.34410 0.07000
H 	H 	0.94760 0.21130 0.32970 -0.01600
C 	C 	0.87870 0.21860 0.29180 -0.14500
H 	H 	0.87470 0.19870 0.24360 0.09000
C 	C 	0.84210 0.23930 0.30670 0.07100
C 	C 	0.84830 0.26130 0.38220 -0.13300
H 	H 	0.82320 0.27270 0.39660 0.08000
C 	C 	0.89490 0.26510 0.43470 0.09300
H 	H 	0.89970 0.27880 0.48460 -0.00600
C 	C 	0.79740 0.23980 0.24100 0.09100
C 	C 	0.72540 0.24590 0.16990 0.07600
C 	C 	0.67170 0.24460 0.13470 0.14700
C 	C 	0.64350 0.21790 0.16820 -0.19000
H 	H 	0.65510 0.19960 0.21830 0.10300
C 	C 	0.59520 0.21780 0.12580 0.12100
H 	H 	0.57520 0.19930 0.14940 -0.00500
C 	C 	0.60760 0.26400 0.02780 0.16100
H 	H 	0.59700 0.27830 0.97680 -0.04200
C 	C 	0.65450 0.26840 0.06620 -0.23700
H 	H 	0.67380 0.28880 0.04200 0.12600
N 	N 	0.93140 0.25050 0.41710 -0.25000
N 	N 	0.79570 0.25220 0.17460 -0.09200
N 	N 	0.75210 0.25830 0.13580 -0.08800
N 	N 	0.75340 0.23870 0.24000 -0.09600
N 	N 	0.74080 0.21450 0.30590 -0.24800
H 	H 	0.71230 0.20360 0.29970 0.13800
H 	H 	0.76210 0.21150 0.35020 0.13900
N 	N 	0.57710 0.24230 0.05480 -0.27700
O 	O 	0.57808 0.55010 0.79490 -0.49100
O 	O 	0.52396 0.55300 0.68270 -0.53800
O 	O 	0.55657 0.45790 0.46170 -0.45400
O 	O 	0.62840 0.43490 0.47060 -0.31000
O 	O 	0.72584 0.49560 0.73900 -0.18400
O 	O 	0.90690 0.46870 0.75740 -0.22700
O 	O 	0.97560 0.68830 0.61540 -0.37200
O 	O 	0.99268 0.59950 0.53890 -0.41500
O 	O 	0.99090 0.25730 0.58090 -0.50000
O 	O 	0.95200 0.21200 0.65160 -0.45400
Zn	Zn	0.54184 0.58025 0.85607 1.23900
Zn	Zn	0.00452 0.26451 0.48637 1.19600
C 	C 	0.06440 0.04430 0.72490 0.45000
C 	C 	0.09960 0.02510 0.69020 -0.09500
C 	C 	0.14650 0.02150 0.73470 -0.08400
H 	H 	0.15660 0.03290 0.78610 0.07800
C 	C 	0.17810 0.00060 0.70090 0.14600
C 	C 	0.16300 0.98060 0.62380 -0.09500
H 	H 	0.18460 0.96530 0.60230 0.08800
C 	C 	0.11650 0.98360 0.57970 -0.05300
C 	C 	0.10060 0.95810 0.49810 0.31600
C 	C 	0.08480 0.00700 0.61410 0.00600
H 	H 	0.05320 0.01040 0.58490 0.03200
C 	C 	0.24270 0.01330 0.81790 -0.13200
H 	H 	0.23230 0.07250 0.82740 0.07800
H 	H 	0.23100 0.96800 0.84330 0.08200
C 	C 	0.29460 0.01030 0.84660 0.20800
C 	C 	0.31800 0.99630 0.92290 -0.26300
H 	H 	0.30130 0.98700 0.95410 0.12500
C 	C 	0.36610 0.99610 0.95310 0.19700
H 	H 	0.38120 0.98660 0.00450 -0.03200
C 	C 	0.39110 0.00870 0.91150 -0.26200
H 	H 	0.42340 0.00780 0.93300 0.13800
C 	C 	0.36860 0.02340 0.83470 0.17000
C 	C 	0.31990 0.02090 0.80320 -0.24700
H 	H 	0.30490 0.02660 0.75130 0.13900
C 	C 	0.39710 0.04750 0.77980 -0.03300
H 	H 	0.42530 0.08080 0.80710 0.05000
H 	H 	0.37800 0.08360 0.73700 0.04900
C 	C 	0.42940 0.96800 0.70990 0.19500
C 	C 	0.44370 0.04310 0.68000 -0.13900
H 	H 	0.43850 0.10130 0.69390 0.09700
C 	C 	0.46630 0.03010 0.62820 -0.02400
C 	C 	0.47920 0.10970 0.59290 0.29400
C 	C 	0.47470 0.94360 0.60900 -0.01900
H 	H 	0.48950 0.93510 0.57500 0.04900
C 	C 	0.46080 0.86850 0.64070 -0.06500
C 	C 	0.46870 0.77380 0.62220 0.39700
C 	C 	0.43830 0.88240 0.69190 -0.11700
H 	H 	0.42930 0.83290 0.71350 0.10000
C 	C 	0.42260 0.72490 0.34410 0.07000
H 	H 	0.44760 0.71130 0.32970 -0.01600
C 	C 	0.37870 0.71860 0.29180 -0.14500
H 	H 	0.37470 0.69870 0.24360 0.09000
C 	C 	0.34210 0.73930 0.30670 0.07100
C 	C 	0.34830 0.76130 0.38220 -0.13300
H 	H 	0.32320 0.77270 0.39660 0.08000
C 	C 	0.39490 0.76510 0.43470 0.09300
H 	H 	0.39970 0.77880 0.48460 -0.00600
C 	C 	0.29740 0.73980 0.24100 0.09100
C 	C 	0.22540 0.74590 0.16990 0.07600
C 	C 	0.17170 0.74460 0.13470 0.14800
C 	C 	0.14350 0.71790 0.16820 -0.19100
H 	H 	0.15510 0.69960 0.21830 0.10300
C 	C 	0.09520 0.71780 0.12580 0.12100
H 	H 	0.07520 0.69930 0.14940 -0.00500
C 	C 	0.10760 0.76400 0.02780 0.16200
H 	H 	0.09700 0.77830 0.97680 -0.04200
C 	C 	0.15450 0.76840 0.06620 -0.23700
H 	H 	0.17380 0.78880 0.04200 0.12600
N 	N 	0.43140 0.75050 0.41710 -0.25000
N 	N 	0.29570 0.75220 0.17460 -0.09200
N 	N 	0.25210 0.75830 0.13580 -0.08800
N 	N 	0.25340 0.73870 0.24000 -0.09600
N 	N 	0.24080 0.71450 0.30590 -0.24800
H 	H 	0.21230 0.70360 0.29970 0.13800
H 	H 	0.26210 0.71150 0.35020 0.13900
N 	N 	0.07710 0.74230 0.05480 -0.27700
O 	O 	0.07808 0.05010 0.79490 -0.49100
O 	O 	0.02396 0.05300 0.68270 -0.53800
O 	O 	0.05657 0.95790 0.46170 -0.45400
O 	O 	0.12840 0.93490 0.47060 -0.31000
O 	O 	0.22584 0.99560 0.73900 -0.18400
O 	O 	0.40690 0.96870 0.75740 -0.22700
O 	O 	0.47560 0.18830 0.61540 -0.37200
O 	O 	0.49268 0.09950 0.53890 -0.41600
O 	O 	0.49090 0.75730 0.58090 -0.50100
O 	O 	0.45200 0.71200 0.65160 -0.45400
Zn	Zn	0.04184 0.08025 0.85607 1.23900
Zn	Zn	0.50452 0.76451 0.48637 1.19600
C 	C 	0.43560 0.54430 0.77510 0.45100
C 	C 	0.40040 0.52510 0.80980 -0.09500
C 	C 	0.35350 0.52150 0.76530 -0.08400
H 	H 	0.34340 0.53290 0.71390 0.07800
C 	C 	0.32190 0.50060 0.79910 0.14600
C 	C 	0.33700 0.48060 0.87620 -0.09600
H 	H 	0.31540 0.46530 0.89770 0.08800
C 	C 	0.38350 0.48360 0.92030 -0.05300
C 	C 	0.39940 0.45810 0.00190 0.31700
C 	C 	0.41520 0.50700 0.88590 0.00600
H 	H 	0.44680 0.51040 0.91510 0.03200
C 	C 	0.25730 0.51330 0.68210 -0.13000
H 	H 	0.26770 0.57250 0.67260 0.07800
H 	H 	0.26900 0.46800 0.65670 0.08200
C 	C 	0.20540 0.51030 0.65340 0.20700
C 	C 	0.18200 0.49630 0.57710 -0.26200
H 	H 	0.19870 0.48700 0.54590 0.12500
C 	C 	0.13390 0.49610 0.54690 0.19500
H 	H 	0.11880 0.48660 0.49550 -0.03100
C 	C 	0.10890 0.50870 0.58850 -0.26000
H 	H 	0.07660 0.50780 0.56700 0.13800
C 	C 	0.13140 0.52340 0.66530 0.17000
C 	C 	0.18010 0.52090 0.69680 -0.24600
H 	H 	0.19510 0.52660 0.74870 0.13900
C 	C 	0.10290 0.54750 0.72020 -0.03300
H 	H 	0.07470 0.58080 0.69290 0.04900
H 	H 	0.12200 0.58360 0.76300 0.04900
C 	C 	0.07060 0.46800 0.79010 0.19500
C 	C 	0.05630 0.54310 0.82000 -0.13900
H 	H 	0.06150 0.60130 0.80610 0.09700
C 	C 	0.03370 0.53010 0.87180 -0.02300
C 	C 	0.02080 0.60970 0.90710 0.29400
C 	C 	0.02530 0.44360 0.89100 -0.01900
H 	H 	0.01050 0.43510 0.92500 0.04900
C 	C 	0.03920 0.36850 0.85930 -0.06500
C 	C 	0.03130 0.27380 0.87780 0.39700
C 	C 	0.06170 0.38240 0.80810 -0.11700
H 	H 	0.07070 0.33290 0.78650 0.10000
C 	C 	0.07740 0.22490 0.15590 0.07000
H 	H 	0.05240 0.21130 0.17030 -0.01600
C 	C 	0.12130 0.21860 0.20820 -0.14400
H 	H 	0.12530 0.19870 0.25640 0.09000
C 	C 	0.15790 0.23930 0.19330 0.07100
C 	C 	0.15170 0.26130 0.11780 -0.13200
H 	H 	0.17680 0.27270 0.10340 0.08000
C 	C 	0.10510 0.26510 0.06530 0.09300
H 	H 	0.10030 0.27880 0.01540 -0.00600
C 	C 	0.20260 0.23980 0.25900 0.09100
C 	C 	0.27460 0.24590 0.33010 0.07600
C 	C 	0.32830 0.24460 0.36530 0.14700
C 	C 	0.35650 0.21790 0.33180 -0.19000
H 	H 	0.34490 0.19960 0.28170 0.10300
C 	C 	0.40480 0.21780 0.37420 0.12100
H 	H 	0.42480 0.19930 0.35060 -0.00500
C 	C 	0.39240 0.26400 0.47220 0.16100
H 	H 	0.40300 0.27830 0.52320 -0.04200
C 	C 	0.34550 0.26840 0.43380 -0.23700
H 	H 	0.32620 0.28880 0.45800 0.12600
N 	N 	0.06860 0.25050 0.08290 -0.25000
N 	N 	0.20430 0.25220 0.32540 -0.09200
N 	N 	0.24790 0.25830 0.36420 -0.08800
N 	N 	0.24660 0.23870 0.26000 -0.09600
N 	N 	0.25920 0.21450 0.19410 -0.24800
H 	H 	0.28770 0.20360 0.20030 0.13800
H 	H 	0.23790 0.21150 0.14980 0.13900
N 	N 	0.42290 0.24230 0.44520 -0.27700
O 	O 	0.42192 0.55010 0.70510 -0.49100
O 	O 	0.47604 0.55300 0.81730 -0.53800
O 	O 	0.44343 0.45790 0.03830 -0.45400
O 	O 	0.37160 0.43490 0.02940 -0.31000
O 	O 	0.27416 0.49560 0.76100 -0.18400
O 	O 	0.09310 0.46870 0.74260 -0.22700
O 	O 	0.02440 0.68830 0.88460 -0.37200
O 	O 	0.00732 0.59950 0.96110 -0.41500
O 	O 	0.00910 0.25730 0.91910 -0.50100
O 	O 	0.04800 0.21200 0.84840 -0.45400
Zn	Zn	0.45816 0.58025 0.64393 1.23900
Zn	Zn	0.99548 0.26451 0.01363 1.19600
C 	C 	0.93560 0.04430 0.77510 0.45000
C 	C 	0.90040 0.02510 0.80980 -0.09400
C 	C 	0.85350 0.02150 0.76530 -0.08400
H 	H 	0.84340 0.03290 0.71390 0.07800
C 	C 	0.82190 0.00060 0.79910 0.14600
C 	C 	0.83700 0.98060 0.87620 -0.09600
H 	H 	0.81540 0.96530 0.89770 0.08800
C 	C 	0.88350 0.98360 0.92030 -0.05100
C 	C 	0.89940 0.95810 0.00190 0.31500
C 	C 	0.91520 0.00700 0.88590 0.00500
H 	H 	0.94680 0.01040 0.91510 0.03300
C 	C 	0.75730 0.01330 0.68210 -0.13100
H 	H 	0.76770 0.07250 0.67260 0.07800
H 	H 	0.76900 0.96800 0.65670 0.08200
C 	C 	0.70540 0.01030 0.65340 0.20700
C 	C 	0.68200 0.99630 0.57710 -0.26200
H 	H 	0.69870 0.98700 0.54590 0.12500
C 	C 	0.63390 0.99610 0.54690 0.19500
H 	H 	0.61880 0.98660 0.49550 -0.03100
C 	C 	0.60890 0.00870 0.58850 -0.26100
H 	H 	0.57660 0.00780 0.56700 0.13800
C 	C 	0.63140 0.02340 0.66530 0.17000
C 	C 	0.68010 0.02090 0.69680 -0.24600
H 	H 	0.69510 0.02660 0.74870 0.13900
C 	C 	0.60290 0.04750 0.72020 -0.03300
H 	H 	0.57470 0.08080 0.69290 0.04900
H 	H 	0.62200 0.08360 0.76300 0.04900
C 	C 	0.57060 0.96800 0.79010 0.19500
C 	C 	0.55630 0.04310 0.82000 -0.13900
H 	H 	0.56150 0.10130 0.80610 0.09700
C 	C 	0.53370 0.03010 0.87180 -0.02400
C 	C 	0.52080 0.10970 0.90710 0.29400
C 	C 	0.52530 0.94360 0.89100 -0.01800
H 	H 	0.51050 0.93510 0.92500 0.04900
C 	C 	0.53920 0.86850 0.85930 -0.06500
C 	C 	0.53130 0.77380 0.87780 0.39700
C 	C 	0.56170 0.88240 0.80810 -0.11700
H 	H 	0.57070 0.83290 0.78650 0.10000
C 	C 	0.57740 0.72490 0.15590 0.07000
H 	H 	0.55240 0.71130 0.17030 -0.01600
C 	C 	0.62130 0.71860 0.20820 -0.14500
H 	H 	0.62530 0.69870 0.25640 0.09000
C 	C 	0.65790 0.73930 0.19330 0.07100
C 	C 	0.65170 0.76130 0.11780 -0.13200
H 	H 	0.67680 0.77270 0.10340 0.08000
C 	C 	0.60510 0.76510 0.06530 0.09300
H 	H 	0.60030 0.77880 0.01540 -0.00600
C 	C 	0.70260 0.73980 0.25900 0.09100
C 	C 	0.77460 0.74590 0.33010 0.07600
C 	C 	0.82830 0.74460 0.36530 0.14700
C 	C 	0.85650 0.71790 0.33180 -0.19000
H 	H 	0.84490 0.69960 0.28170 0.10300
C 	C 	0.90480 0.71780 0.37420 0.12100
H 	H 	0.92480 0.69930 0.35060 -0.00500
C 	C 	0.89240 0.76400 0.47220 0.16100
H 	H 	0.90300 0.77830 0.52320 -0.04200
C 	C 	0.84550 0.76840 0.43380 -0.23700
H 	H 	0.82620 0.78880 0.45800 0.12600
N 	N 	0.56860 0.75050 0.08290 -0.25000
N 	N 	0.70430 0.75220 0.32540 -0.09200
N 	N 	0.74790 0.75830 0.36420 -0.08800
N 	N 	0.74660 0.73870 0.26000 -0.09600
N 	N 	0.75920 0.71450 0.19410 -0.24800
H 	H 	0.78770 0.70360 0.20030 0.13800
H 	H 	0.73790 0.71150 0.14980 0.13900
N 	N 	0.92290 0.74230 0.44520 -0.27700
O 	O 	0.92192 0.05010 0.70510 -0.49100
O 	O 	0.97604 0.05300 0.81730 -0.53700
O 	O 	0.94343 0.95790 0.03830 -0.45400
O 	O 	0.87160 0.93490 0.02940 -0.31000
O 	O 	0.77416 0.99560 0.76100 -0.18400
O 	O 	0.59310 0.96870 0.74260 -0.22700
O 	O 	0.52440 0.18830 0.88460 -0.37200
O 	O 	0.50732 0.09950 0.96110 -0.41600
O 	O 	0.50910 0.75730 0.91910 -0.50100
O 	O 	0.54800 0.71200 0.84840 -0.45400
Zn	Zn	0.95816 0.08025 0.64393 1.23900
Zn	Zn	0.49548 0.76451 0.01363 1.19600
