data_crystal

_cell_length_a 38.03000
_cell_length_b 10.00980
_cell_length_c 26.42300
_cell_angle_alpha 90.00000
_cell_angle_beta  125.58900
_cell_angle_gamma 90.00000

_symmetry_space_group_name_	'P 1'
_symmetry_space_group_name_H-M	'P 1'

loop_
_symmetry_equiv_pos_as_xyz
  x,y,z

loop_
_atom_site_label
_atom_site_type_symbol
_atom_site_fract_x
_atom_site_fract_y
_atom_site_fract_z
_atom_site_charge
Zn	Zn	0.83734 0.66779 0.29160 1.20200
Zn	Zn	0.88609 0.96437 0.41558 1.22100
C 	C 	0.07079 0.72050 0.08420 0.38500
C 	C 	0.02774 0.66110 0.06120 -0.05200
C 	C 	0.02565 0.53680 0.08250 -0.10500
H 	H 	0.05070 0.48850 0.10990 0.08700
C 	C 	0.98530 0.48530 0.06210 0.15800
C 	C 	0.94775 0.55840 0.02180 -0.10400
H 	H 	0.92100 0.52510 0.00920 0.09300
C 	C 	0.95093 0.68330 0.00050 -0.04500
C 	C 	0.99084 0.73290 0.02030 -0.01100
H 	H 	0.99280 0.81530 0.00580 0.05900
C 	C 	0.91170 0.76740 0.95980 0.33500
C 	C 	0.01460 0.28590 0.12260 -0.10600
H 	H 	0.03180 0.33390 0.16180 0.07500
H 	H 	0.03230 0.26870 0.10790 0.07600
C 	C 	0.99850 0.15670 0.13120 0.16900
C 	C 	0.97270 0.15510 0.15320 -0.22200
H 	H 	0.96540 0.23540 0.16250 0.13300
C 	C 	0.95790 0.03730 0.16110 0.17400
C 	C 	0.97100 0.92090 0.14980 -0.23400
H 	H 	0.96150 0.84030 0.15530 0.11100
C 	C 	0.99700 0.91850 0.13100 0.13300
H 	H 	0.00540 0.83690 0.12430 -0.01000
C 	C 	0.01200 0.03880 0.12130 -0.21400
H 	H 	0.03030 0.03780 0.10870 0.11100
C 	C 	0.92950 0.02980 0.18250 -0.09400
H 	H 	0.90470 0.97400 0.15410 0.06400
H 	H 	0.94530 0.98820 0.22330 0.06500
C 	C 	0.89430 0.16170 0.21530 0.17000
C 	C 	0.88550 0.28910 0.22590 -0.12400
H 	H 	0.89270 0.36340 0.21260 0.10100
C 	C 	0.86610 0.30580 0.25640 -0.02200
C 	C 	0.85650 0.19340 0.27720 -0.02800
H 	H 	0.84410 0.20370 0.29870 0.06000
C 	C 	0.86491 0.06930 0.26660 -0.05200
C 	C 	0.88400 0.05040 0.23440 -0.11600
H 	H 	0.88930 0.96510 0.22640 0.08600
C 	C 	0.85520 0.44220 0.26820 0.30600
C 	C 	0.85441 0.94650 0.28860 0.34800
C 	C 	0.77337 0.79150 0.31200 0.07000
H 	H 	0.77030 0.85480 0.28400 -0.01400
C 	C 	0.74973 0.80680 0.33540 -0.12900
H 	H 	0.73240 0.88200 0.32480 0.07800
C 	C 	0.75120 0.71250 0.37430 0.05600
C 	C 	0.77960 0.60260 0.39060 -0.12400
H 	H 	0.78210 0.53470 0.41650 0.07900
C 	C 	0.80360 0.60120 0.36590 0.06800
H 	H 	0.82320 0.53190 0.37770 0.00800
C 	C 	0.72650 0.73190 0.40030 0.09500
C 	C 	0.69080 0.70820 0.43970 0.09000
C 	C 	0.67080 0.65370 0.46980 0.07800
C 	C 	0.64190 0.73830 0.47130 -0.13300
H 	H 	0.63420 0.82090 0.45140 0.09200
C 	C 	0.62530 0.69550 0.50290 0.08100
H 	H 	0.60510 0.74920 0.50240 -0.00300
C 	C 	0.66290 0.50040 0.52980 0.08800
H 	H 	0.66990 0.41730 0.54920 -0.01100
C 	C 	0.67970 0.53520 0.49790 -0.14600
H 	H 	0.69760 0.47570 0.49580 0.08300
N 	N 	0.80031 0.69140 0.32720 -0.26300
N 	N 	0.71053 0.64040 0.41810 -0.09500
N 	N 	0.71765 0.84980 0.40990 -0.09200
N 	N 	0.69490 0.83510 0.43480 -0.08700
N 	N 	0.70900 0.49920 0.41100 -0.24500
H 	H 	0.71940 0.46270 0.39290 0.13600
H 	H 	0.69760 0.45040 0.42470 0.13500
N 	N 	0.63672 0.58050 0.53440 -0.27600
O 	O 	0.06962 0.83880 0.06550 -0.48300
O 	O 	0.10415 0.65330 0.11720 -0.44400
O 	O 	0.87655 0.73380 0.95070 -0.28400
O 	O 	0.91695 0.86910 0.93760 -0.46600
O 	O 	0.97780 0.36180 0.07830 -0.19300
O 	O 	0.91515 0.15610 0.18590 -0.19700
O 	O 	0.85680 0.83430 0.27070 -0.46200
O 	O 	0.84354 0.96560 0.32520 -0.50200
O 	O 	0.83454 0.45200 0.29060 -0.40200
O 	O 	0.86760 0.54230 0.25570 -0.37400
Zn	Zn	0.33734 0.16779 0.29160 1.20300
Zn	Zn	0.38609 0.46437 0.41558 1.22200
C 	C 	0.57079 0.22050 0.08420 0.38600
C 	C 	0.52774 0.16110 0.06120 -0.05600
C 	C 	0.52565 0.03680 0.08250 -0.09800
H 	H 	0.55070 0.98850 0.10990 0.08300
C 	C 	0.48530 0.98530 0.06210 0.15200
C 	C 	0.44775 0.05840 0.02180 -0.10000
H 	H 	0.42100 0.02510 0.00920 0.09200
C 	C 	0.45093 0.18330 0.00050 -0.04600
C 	C 	0.49084 0.23290 0.02030 -0.00900
H 	H 	0.49280 0.31530 0.00580 0.05900
C 	C 	0.41170 0.26740 0.95980 0.33400
C 	C 	0.51460 0.78590 0.12260 -0.10900
H 	H 	0.53180 0.83390 0.16180 0.07600
H 	H 	0.53230 0.76870 0.10790 0.07700
C 	C 	0.49850 0.65670 0.13120 0.17200
C 	C 	0.47270 0.65510 0.15320 -0.22600
H 	H 	0.46540 0.73540 0.16250 0.13500
C 	C 	0.45790 0.53730 0.16110 0.17700
C 	C 	0.47100 0.42090 0.14980 -0.23700
H 	H 	0.46150 0.34030 0.15530 0.11300
C 	C 	0.49700 0.41850 0.13100 0.14000
H 	H 	0.50540 0.33690 0.12430 -0.01200
C 	C 	0.51200 0.53880 0.12130 -0.22000
H 	H 	0.53030 0.53780 0.10870 0.11300
C 	C 	0.42950 0.52980 0.18250 -0.10200
H 	H 	0.40470 0.47400 0.15410 0.06800
H 	H 	0.44530 0.48820 0.22330 0.06900
C 	C 	0.39430 0.66170 0.21530 0.17100
C 	C 	0.38550 0.78910 0.22590 -0.12400
H 	H 	0.39270 0.86340 0.21260 0.10100
C 	C 	0.36610 0.80580 0.25640 -0.02200
C 	C 	0.35650 0.69340 0.27720 -0.02800
H 	H 	0.34410 0.70370 0.29870 0.06000
C 	C 	0.36491 0.56930 0.26660 -0.05200
C 	C 	0.38400 0.55040 0.23440 -0.11900
H 	H 	0.38930 0.46510 0.22640 0.08800
C 	C 	0.35520 0.94220 0.26820 0.30500
C 	C 	0.35441 0.44650 0.28860 0.34900
C 	C 	0.27337 0.29150 0.31200 0.07000
H 	H 	0.27030 0.35480 0.28400 -0.01300
C 	C 	0.24973 0.30680 0.33540 -0.12900
H 	H 	0.23240 0.38200 0.32480 0.07800
C 	C 	0.25120 0.21250 0.37430 0.05600
C 	C 	0.27960 0.10260 0.39060 -0.12400
H 	H 	0.28210 0.03470 0.41650 0.07900
C 	C 	0.30360 0.10120 0.36590 0.06800
H 	H 	0.32320 0.03190 0.37770 0.00900
C 	C 	0.22650 0.23190 0.40030 0.09500
C 	C 	0.19080 0.20820 0.43970 0.09100
C 	C 	0.17080 0.15370 0.46980 0.07700
C 	C 	0.14190 0.23830 0.47130 -0.13300
H 	H 	0.13420 0.32090 0.45140 0.09200
C 	C 	0.12530 0.19550 0.50290 0.08100
H 	H 	0.10510 0.24920 0.50240 -0.00300
C 	C 	0.16290 0.00040 0.52980 0.08700
H 	H 	0.16990 0.91730 0.54920 -0.01000
C 	C 	0.17970 0.03520 0.49790 -0.14500
H 	H 	0.19760 0.97570 0.49580 0.08200
N 	N 	0.30031 0.19140 0.32720 -0.26300
N 	N 	0.21053 0.14040 0.41810 -0.09400
N 	N 	0.21765 0.34980 0.40990 -0.09200
N 	N 	0.19490 0.33510 0.43480 -0.08700
N 	N 	0.20900 0.99920 0.41100 -0.24500
H 	H 	0.21940 0.96270 0.39290 0.13600
H 	H 	0.19760 0.95040 0.42470 0.13500
N 	N 	0.13672 0.08050 0.53440 -0.27600
O 	O 	0.56962 0.33880 0.06550 -0.48300
O 	O 	0.60415 0.15330 0.11720 -0.44400
O 	O 	0.37655 0.23380 0.95070 -0.28500
O 	O 	0.41695 0.36910 0.93760 -0.46700
O 	O 	0.47780 0.86180 0.07830 -0.19200
O 	O 	0.41515 0.65610 0.18590 -0.19600
O 	O 	0.35680 0.33430 0.27070 -0.46200
O 	O 	0.34354 0.46560 0.32520 -0.50200
O 	O 	0.33454 0.95200 0.29060 -0.40200
O 	O 	0.36760 0.04230 0.25570 -0.37300
Zn	Zn	0.16266 0.66779 0.20840 1.20300
Zn	Zn	0.11391 0.96437 0.08442 1.22200
C 	C 	0.92921 0.72050 0.41580 0.38500
C 	C 	0.97226 0.66110 0.43880 -0.05200
C 	C 	0.97435 0.53680 0.41750 -0.10500
H 	H 	0.94930 0.48850 0.39010 0.08700
C 	C 	0.01470 0.48530 0.43790 0.15900
C 	C 	0.05225 0.55840 0.47820 -0.10500
H 	H 	0.07900 0.52510 0.49080 0.09300
C 	C 	0.04907 0.68330 0.49950 -0.04400
C 	C 	0.00916 0.73290 0.47970 -0.01200
H 	H 	0.00720 0.81530 0.49420 0.06000
C 	C 	0.08830 0.76740 0.54020 0.33400
C 	C 	0.98540 0.28590 0.37740 -0.10800
H 	H 	0.96820 0.33390 0.33820 0.07500
H 	H 	0.96770 0.26870 0.39210 0.07700
C 	C 	0.00150 0.15670 0.36880 0.17100
C 	C 	0.02730 0.15510 0.34680 -0.22400
H 	H 	0.03460 0.23540 0.33750 0.13400
C 	C 	0.04210 0.03730 0.33890 0.17600
C 	C 	0.02900 0.92090 0.35020 -0.23600
H 	H 	0.03850 0.84030 0.34470 0.11200
C 	C 	0.00300 0.91850 0.36900 0.13800
H 	H 	0.99460 0.83690 0.37570 -0.01200
C 	C 	0.98800 0.03880 0.37870 -0.21800
H 	H 	0.96970 0.03780 0.39130 0.11200
C 	C 	0.07050 0.02980 0.31750 -0.09700
H 	H 	0.09530 0.97400 0.34590 0.06600
H 	H 	0.05470 0.98820 0.27670 0.06600
C 	C 	0.10570 0.16170 0.28470 0.17000
C 	C 	0.11450 0.28910 0.27410 -0.12400
H 	H 	0.10730 0.36340 0.28740 0.10100
C 	C 	0.13390 0.30580 0.24360 -0.02200
C 	C 	0.14350 0.19340 0.22280 -0.02800
H 	H 	0.15590 0.20370 0.20130 0.06000
C 	C 	0.13509 0.06930 0.23340 -0.05100
C 	C 	0.11600 0.05040 0.26560 -0.11700
H 	H 	0.11070 0.96510 0.27360 0.08700
C 	C 	0.14480 0.44220 0.23180 0.30600
C 	C 	0.14559 0.94650 0.21140 0.34800
C 	C 	0.22663 0.79150 0.18800 0.07000
H 	H 	0.22970 0.85480 0.21600 -0.01300
C 	C 	0.25027 0.80680 0.16460 -0.12900
H 	H 	0.26760 0.88200 0.17520 0.07700
C 	C 	0.24880 0.71250 0.12570 0.05600
C 	C 	0.22040 0.60260 0.10940 -0.12400
H 	H 	0.21790 0.53470 0.08350 0.07900
C 	C 	0.19640 0.60120 0.13410 0.06800
H 	H 	0.17680 0.53190 0.12230 0.00800
C 	C 	0.27350 0.73190 0.09970 0.09500
C 	C 	0.30920 0.70820 0.06030 0.09000
C 	C 	0.32920 0.65370 0.03020 0.07800
C 	C 	0.35810 0.73830 0.02870 -0.13400
H 	H 	0.36580 0.82090 0.04860 0.09300
C 	C 	0.37470 0.69550 0.99710 0.08200
H 	H 	0.39490 0.74920 0.99760 -0.00300
C 	C 	0.33710 0.50040 0.97020 0.08800
H 	H 	0.33010 0.41730 0.95080 -0.01100
C 	C 	0.32030 0.53520 0.00210 -0.14600
H 	H 	0.30240 0.47570 0.00420 0.08300
N 	N 	0.19969 0.69140 0.17280 -0.26300
N 	N 	0.28947 0.64040 0.08190 -0.09500
N 	N 	0.28235 0.84980 0.09010 -0.09200
N 	N 	0.30510 0.83510 0.06520 -0.08700
N 	N 	0.29100 0.49920 0.08900 -0.24500
H 	H 	0.28060 0.46270 0.10710 0.13600
H 	H 	0.30240 0.45040 0.07530 0.13500
N 	N 	0.36328 0.58050 0.96560 -0.27600
O 	O 	0.93038 0.83880 0.43450 -0.48300
O 	O 	0.89585 0.65330 0.38280 -0.44400
O 	O 	0.12345 0.73380 0.54930 -0.28400
O 	O 	0.08305 0.86910 0.56240 -0.46600
O 	O 	0.02220 0.36180 0.42170 -0.19300
O 	O 	0.08485 0.15610 0.31410 -0.19700
O 	O 	0.14320 0.83430 0.22930 -0.46200
O 	O 	0.15646 0.96560 0.17480 -0.50200
O 	O 	0.16546 0.45200 0.20940 -0.40100
O 	O 	0.13240 0.54230 0.24430 -0.37400
Zn	Zn	0.66266 0.16779 0.20840 1.20300
Zn	Zn	0.61391 0.46437 0.08442 1.22200
C 	C 	0.42921 0.22050 0.41580 0.38500
C 	C 	0.47226 0.16110 0.43880 -0.05300
C 	C 	0.47435 0.03680 0.41750 -0.10400
H 	H 	0.44930 0.98850 0.39010 0.08600
C 	C 	0.51470 0.98530 0.43790 0.15700
C 	C 	0.55225 0.05840 0.47820 -0.10400
H 	H 	0.57900 0.02510 0.49080 0.09200
C 	C 	0.54907 0.18330 0.49950 -0.04400
C 	C 	0.50916 0.23290 0.47970 -0.01100
H 	H 	0.50720 0.31530 0.49420 0.05900
C 	C 	0.58830 0.26740 0.54020 0.33400
C 	C 	0.48540 0.78590 0.37740 -0.10800
H 	H 	0.46820 0.83390 0.33820 0.07500
H 	H 	0.46770 0.76870 0.39210 0.07700
C 	C 	0.50150 0.65670 0.36880 0.17200
C 	C 	0.52730 0.65510 0.34680 -0.22600
H 	H 	0.53460 0.73540 0.33750 0.13500
C 	C 	0.54210 0.53730 0.33890 0.17600
C 	C 	0.52900 0.42090 0.35020 -0.23700
H 	H 	0.53850 0.34030 0.34470 0.11300
C 	C 	0.50300 0.41850 0.36900 0.13900
H 	H 	0.49460 0.33690 0.37570 -0.01200
C 	C 	0.48800 0.53880 0.37870 -0.22000
H 	H 	0.46970 0.53780 0.39130 0.11300
C 	C 	0.57050 0.52980 0.31750 -0.10200
H 	H 	0.59530 0.47400 0.34590 0.06700
H 	H 	0.55470 0.48820 0.27670 0.06800
C 	C 	0.60570 0.66170 0.28470 0.17100
C 	C 	0.61450 0.78910 0.27410 -0.12400
H 	H 	0.60730 0.86340 0.28740 0.10100
C 	C 	0.63390 0.80580 0.24360 -0.02200
C 	C 	0.64350 0.69340 0.22280 -0.02800
H 	H 	0.65590 0.70370 0.20130 0.06000
C 	C 	0.63509 0.56930 0.23340 -0.05200
C 	C 	0.61600 0.55040 0.26560 -0.11900
H 	H 	0.61070 0.46510 0.27360 0.08800
C 	C 	0.64480 0.94220 0.23180 0.30500
C 	C 	0.64559 0.44650 0.21140 0.34900
C 	C 	0.72663 0.29150 0.18800 0.07000
H 	H 	0.72970 0.35480 0.21600 -0.01300
C 	C 	0.75027 0.30680 0.16460 -0.12900
H 	H 	0.76760 0.38200 0.17520 0.07800
C 	C 	0.74880 0.21250 0.12570 0.05600
C 	C 	0.72040 0.10260 0.10940 -0.12400
H 	H 	0.71790 0.03470 0.08350 0.08000
C 	C 	0.69640 0.10120 0.13410 0.06800
H 	H 	0.67680 0.03190 0.12230 0.00900
C 	C 	0.77350 0.23190 0.09970 0.09500
C 	C 	0.80920 0.20820 0.06030 0.09300
C 	C 	0.82920 0.15370 0.03020 0.07200
C 	C 	0.85810 0.23830 0.02870 -0.12700
H 	H 	0.86580 0.32090 0.04860 0.09100
C 	C 	0.87470 0.19550 0.99710 0.07700
H 	H 	0.89490 0.24920 0.99760 -0.00200
C 	C 	0.83710 0.00040 0.97020 0.07800
H 	H 	0.83010 0.91730 0.95080 -0.00600
C 	C 	0.82030 0.03520 0.00210 -0.13300
H 	H 	0.80240 0.97570 0.00420 0.07700
N 	N 	0.69969 0.19140 0.17280 -0.26300
N 	N 	0.78947 0.14040 0.08190 -0.09400
N 	N 	0.78235 0.34980 0.09010 -0.09200
N 	N 	0.80510 0.33510 0.06520 -0.08800
N 	N 	0.79100 0.99920 0.08900 -0.24500
H 	H 	0.78060 0.96270 0.10710 0.13600
H 	H 	0.80240 0.95040 0.07530 0.13500
N 	N 	0.86328 0.08050 0.96560 -0.27400
O 	O 	0.43038 0.33880 0.43450 -0.48300
O 	O 	0.39585 0.15330 0.38280 -0.44400
O 	O 	0.62345 0.23380 0.54930 -0.28500
O 	O 	0.58305 0.36910 0.56240 -0.46600
O 	O 	0.52220 0.86180 0.42170 -0.19200
O 	O 	0.58485 0.65610 0.31410 -0.19600
O 	O 	0.64320 0.33430 0.22930 -0.46200
O 	O 	0.65646 0.46560 0.17480 -0.50200
O 	O 	0.66546 0.95200 0.20940 -0.40200
O 	O 	0.63240 0.04230 0.24430 -0.37200
Zn	Zn	0.16266 0.33221 0.70840 1.20300
Zn	Zn	0.11391 0.03563 0.58442 1.22200
C 	C 	0.92921 0.27950 0.91580 0.38500
C 	C 	0.97226 0.33890 0.93880 -0.05200
C 	C 	0.97435 0.46320 0.91750 -0.10500
H 	H 	0.94930 0.51150 0.89010 0.08700
C 	C 	0.01470 0.51470 0.93790 0.15800
C 	C 	0.05225 0.44160 0.97820 -0.10400
H 	H 	0.07900 0.47490 0.99080 0.09300
C 	C 	0.04907 0.31670 0.99950 -0.04500
C 	C 	0.00916 0.26710 0.97970 -0.01100
H 	H 	0.00720 0.18470 0.99420 0.05900
C 	C 	0.08830 0.23260 0.04020 0.33500
C 	C 	0.98540 0.71410 0.87740 -0.10600
H 	H 	0.96820 0.66610 0.83820 0.07500
H 	H 	0.96770 0.73130 0.89210 0.07600
C 	C 	0.00150 0.84330 0.86880 0.16900
C 	C 	0.02730 0.84490 0.84680 -0.22200
H 	H 	0.03460 0.76460 0.83750 0.13300
C 	C 	0.04210 0.96270 0.83890 0.17400
C 	C 	0.02900 0.07910 0.85020 -0.23400
H 	H 	0.03850 0.15970 0.84470 0.11100
C 	C 	0.00300 0.08150 0.86900 0.13300
H 	H 	0.99460 0.16310 0.87570 -0.01000
C 	C 	0.98800 0.96120 0.87870 -0.21400
H 	H 	0.96970 0.96220 0.89130 0.11100
C 	C 	0.07050 0.97020 0.81750 -0.09400
H 	H 	0.09530 0.02600 0.84590 0.06400
H 	H 	0.05470 0.01180 0.77670 0.06500
C 	C 	0.10570 0.83830 0.78470 0.17000
C 	C 	0.11450 0.71090 0.77410 -0.12400
H 	H 	0.10730 0.63660 0.78740 0.10100
C 	C 	0.13390 0.69420 0.74360 -0.02200
C 	C 	0.14350 0.80660 0.72280 -0.02800
H 	H 	0.15590 0.79630 0.70130 0.06000
C 	C 	0.13509 0.93070 0.73340 -0.05200
C 	C 	0.11600 0.94960 0.76560 -0.11600
H 	H 	0.11070 0.03490 0.77360 0.08600
C 	C 	0.14480 0.55780 0.73180 0.30600
C 	C 	0.14559 0.05350 0.71140 0.34800
C 	C 	0.22663 0.20850 0.68800 0.07000
H 	H 	0.22970 0.14520 0.71600 -0.01400
C 	C 	0.25027 0.19320 0.66460 -0.12900
H 	H 	0.26760 0.11800 0.67520 0.07800
C 	C 	0.24880 0.28750 0.62570 0.05600
C 	C 	0.22040 0.39740 0.60940 -0.12400
H 	H 	0.21790 0.46530 0.58350 0.07900
C 	C 	0.19640 0.39880 0.63410 0.06800
H 	H 	0.17680 0.46810 0.62230 0.00800
C 	C 	0.27350 0.26810 0.59970 0.09500
C 	C 	0.30920 0.29180 0.56030 0.09000
C 	C 	0.32920 0.34630 0.53020 0.07800
C 	C 	0.35810 0.26170 0.52870 -0.13300
H 	H 	0.36580 0.17910 0.54860 0.09200
C 	C 	0.37470 0.30450 0.49710 0.08100
H 	H 	0.39490 0.25080 0.49760 -0.00300
C 	C 	0.33710 0.49960 0.47020 0.08800
H 	H 	0.33010 0.58270 0.45080 -0.01100
C 	C 	0.32030 0.46480 0.50210 -0.14600
H 	H 	0.30240 0.52430 0.50420 0.08300
N 	N 	0.19969 0.30860 0.67280 -0.26300
N 	N 	0.28947 0.35960 0.58190 -0.09500
N 	N 	0.28235 0.15020 0.59010 -0.09200
N 	N 	0.30510 0.16490 0.56520 -0.08700
N 	N 	0.29100 0.50080 0.58900 -0.24500
H 	H 	0.28060 0.53730 0.60710 0.13600
H 	H 	0.30240 0.54960 0.57530 0.13500
N 	N 	0.36328 0.41950 0.46560 -0.27600
O 	O 	0.93038 0.16120 0.93450 -0.48300
O 	O 	0.89585 0.34670 0.88280 -0.44400
O 	O 	0.12345 0.26620 0.04930 -0.28400
O 	O 	0.08305 0.13090 0.06240 -0.46600
O 	O 	0.02220 0.63820 0.92170 -0.19300
O 	O 	0.08485 0.84390 0.81410 -0.19700
O 	O 	0.14320 0.16570 0.72930 -0.46200
O 	O 	0.15646 0.03440 0.67480 -0.50200
O 	O 	0.16546 0.54800 0.70940 -0.40200
O 	O 	0.13240 0.45770 0.74430 -0.37400
Zn	Zn	0.66266 0.83221 0.70840 1.20300
Zn	Zn	0.61391 0.53563 0.58442 1.22200
C 	C 	0.42921 0.77950 0.91580 0.38600
C 	C 	0.47226 0.83890 0.93880 -0.05600
C 	C 	0.47435 0.96320 0.91750 -0.09800
H 	H 	0.44930 0.01150 0.89010 0.08300
C 	C 	0.51470 0.01470 0.93790 0.15200
C 	C 	0.55225 0.94160 0.97820 -0.10000
H 	H 	0.57900 0.97490 0.99080 0.09200
C 	C 	0.54907 0.81670 0.99950 -0.04600
C 	C 	0.50916 0.76710 0.97970 -0.00900
H 	H 	0.50720 0.68470 0.99420 0.05900
C 	C 	0.58830 0.73260 0.04020 0.33400
C 	C 	0.48540 0.21410 0.87740 -0.10900
H 	H 	0.46820 0.16610 0.83820 0.07600
H 	H 	0.46770 0.23130 0.89210 0.07700
C 	C 	0.50150 0.34330 0.86880 0.17200
C 	C 	0.52730 0.34490 0.84680 -0.22600
H 	H 	0.53460 0.26460 0.83750 0.13500
C 	C 	0.54210 0.46270 0.83890 0.17700
C 	C 	0.52900 0.57910 0.85020 -0.23700
H 	H 	0.53850 0.65970 0.84470 0.11300
C 	C 	0.50300 0.58150 0.86900 0.14000
H 	H 	0.49460 0.66310 0.87570 -0.01200
C 	C 	0.48800 0.46120 0.87870 -0.22000
H 	H 	0.46970 0.46220 0.89130 0.11300
C 	C 	0.57050 0.47020 0.81750 -0.10200
H 	H 	0.59530 0.52600 0.84590 0.06800
H 	H 	0.55470 0.51180 0.77670 0.06900
C 	C 	0.60570 0.33830 0.78470 0.17100
C 	C 	0.61450 0.21090 0.77410 -0.12400
H 	H 	0.60730 0.13660 0.78740 0.10100
C 	C 	0.63390 0.19420 0.74360 -0.02200
C 	C 	0.64350 0.30660 0.72280 -0.02800
H 	H 	0.65590 0.29630 0.70130 0.06000
C 	C 	0.63509 0.43070 0.73340 -0.05200
C 	C 	0.61600 0.44960 0.76560 -0.11900
H 	H 	0.61070 0.53490 0.77360 0.08800
C 	C 	0.64480 0.05780 0.73180 0.30500
C 	C 	0.64559 0.55350 0.71140 0.34900
C 	C 	0.72663 0.70850 0.68800 0.07000
H 	H 	0.72970 0.64520 0.71600 -0.01300
C 	C 	0.75027 0.69320 0.66460 -0.12900
H 	H 	0.76760 0.61800 0.67520 0.07800
C 	C 	0.74880 0.78750 0.62570 0.05600
C 	C 	0.72040 0.89740 0.60940 -0.12400
H 	H 	0.71790 0.96530 0.58350 0.07900
C 	C 	0.69640 0.89880 0.63410 0.06800
H 	H 	0.67680 0.96810 0.62230 0.00900
C 	C 	0.77350 0.76810 0.59970 0.09500
C 	C 	0.80920 0.79180 0.56030 0.09100
C 	C 	0.82920 0.84630 0.53020 0.07700
C 	C 	0.85810 0.76170 0.52870 -0.13300
H 	H 	0.86580 0.67910 0.54860 0.09200
C 	C 	0.87470 0.80450 0.49710 0.08100
H 	H 	0.89490 0.75080 0.49760 -0.00300
C 	C 	0.83710 0.99960 0.47020 0.08700
H 	H 	0.83010 0.08270 0.45080 -0.01000
C 	C 	0.82030 0.96480 0.50210 -0.14500
H 	H 	0.80240 0.02430 0.50420 0.08200
N 	N 	0.69969 0.80860 0.67280 -0.26300
N 	N 	0.78947 0.85960 0.58190 -0.09400
N 	N 	0.78235 0.65020 0.59010 -0.09200
N 	N 	0.80510 0.66490 0.56520 -0.08700
N 	N 	0.79100 0.00080 0.58900 -0.24500
H 	H 	0.78060 0.03730 0.60710 0.13600
H 	H 	0.80240 0.04960 0.57530 0.13500
N 	N 	0.86328 0.91950 0.46560 -0.27600
O 	O 	0.43038 0.66120 0.93450 -0.48300
O 	O 	0.39585 0.84670 0.88280 -0.44400
O 	O 	0.62345 0.76620 0.04930 -0.28500
O 	O 	0.58305 0.63090 0.06240 -0.46700
O 	O 	0.52220 0.13820 0.92170 -0.19200
O 	O 	0.58485 0.34390 0.81410 -0.19600
O 	O 	0.64320 0.66570 0.72930 -0.46200
O 	O 	0.65646 0.53440 0.67480 -0.50200
O 	O 	0.66546 0.04800 0.70940 -0.40200
O 	O 	0.63240 0.95770 0.74430 -0.37300
Zn	Zn	0.83734 0.33221 0.79160 1.20300
Zn	Zn	0.88609 0.03563 0.91558 1.22200
C 	C 	0.07079 0.27950 0.58420 0.38500
C 	C 	0.02774 0.33890 0.56120 -0.05200
C 	C 	0.02565 0.46320 0.58250 -0.10500
H 	H 	0.05070 0.51150 0.60990 0.08700
C 	C 	0.98530 0.51470 0.56210 0.15900
C 	C 	0.94775 0.44160 0.52180 -0.10500
H 	H 	0.92100 0.47490 0.50920 0.09300
C 	C 	0.95093 0.31670 0.50050 -0.04400
C 	C 	0.99084 0.26710 0.52030 -0.01200
H 	H 	0.99280 0.18470 0.50580 0.06000
C 	C 	0.91170 0.23260 0.45980 0.33400
C 	C 	0.01460 0.71410 0.62260 -0.10800
H 	H 	0.03180 0.66610 0.66180 0.07500
H 	H 	0.03230 0.73130 0.60790 0.07700
C 	C 	0.99850 0.84330 0.63120 0.17100
C 	C 	0.97270 0.84490 0.65320 -0.22400
H 	H 	0.96540 0.76460 0.66250 0.13400
C 	C 	0.95790 0.96270 0.66110 0.17600
C 	C 	0.97100 0.07910 0.64980 -0.23600
H 	H 	0.96150 0.15970 0.65530 0.11200
C 	C 	0.99700 0.08150 0.63100 0.13800
H 	H 	0.00540 0.16310 0.62430 -0.01200
C 	C 	0.01200 0.96120 0.62130 -0.21800
H 	H 	0.03030 0.96220 0.60870 0.11200
C 	C 	0.92950 0.97020 0.68250 -0.09700
H 	H 	0.90470 0.02600 0.65410 0.06600
H 	H 	0.94530 0.01180 0.72330 0.06600
C 	C 	0.89430 0.83830 0.71530 0.17000
C 	C 	0.88550 0.71090 0.72590 -0.12400
H 	H 	0.89270 0.63660 0.71260 0.10100
C 	C 	0.86610 0.69420 0.75640 -0.02200
C 	C 	0.85650 0.80660 0.77720 -0.02800
H 	H 	0.84410 0.79630 0.79870 0.06000
C 	C 	0.86491 0.93070 0.76660 -0.05100
C 	C 	0.88400 0.94960 0.73440 -0.11700
H 	H 	0.88930 0.03490 0.72640 0.08700
C 	C 	0.85520 0.55780 0.76820 0.30600
C 	C 	0.85441 0.05350 0.78860 0.34800
C 	C 	0.77337 0.20850 0.81200 0.07000
H 	H 	0.77030 0.14520 0.78400 -0.01300
C 	C 	0.74973 0.19320 0.83540 -0.12900
H 	H 	0.73240 0.11800 0.82480 0.07700
C 	C 	0.75120 0.28750 0.87430 0.05600
C 	C 	0.77960 0.39740 0.89060 -0.12400
H 	H 	0.78210 0.46530 0.91650 0.07900
C 	C 	0.80360 0.39880 0.86590 0.06800
H 	H 	0.82320 0.46810 0.87770 0.00800
C 	C 	0.72650 0.26810 0.90030 0.09500
C 	C 	0.69080 0.29180 0.93970 0.09000
C 	C 	0.67080 0.34630 0.96980 0.07800
C 	C 	0.64190 0.26170 0.97130 -0.13400
H 	H 	0.63420 0.17910 0.95140 0.09300
C 	C 	0.62530 0.30450 0.00290 0.08200
H 	H 	0.60510 0.25080 0.00240 -0.00300
C 	C 	0.66290 0.49960 0.02980 0.08800
H 	H 	0.66990 0.58270 0.04920 -0.01100
C 	C 	0.67970 0.46480 0.99790 -0.14600
H 	H 	0.69760 0.52430 0.99580 0.08300
N 	N 	0.80031 0.30860 0.82720 -0.26300
N 	N 	0.71053 0.35960 0.91810 -0.09500
N 	N 	0.71765 0.15020 0.90990 -0.09200
N 	N 	0.69490 0.16490 0.93480 -0.08700
N 	N 	0.70900 0.50080 0.91100 -0.24500
H 	H 	0.71940 0.53730 0.89290 0.13600
H 	H 	0.69760 0.54960 0.92470 0.13500
N 	N 	0.63672 0.41950 0.03440 -0.27600
O 	O 	0.06962 0.16120 0.56550 -0.48300
O 	O 	0.10415 0.34670 0.61720 -0.44400
O 	O 	0.87655 0.26620 0.45070 -0.28400
O 	O 	0.91695 0.13090 0.43760 -0.46600
O 	O 	0.97780 0.63820 0.57830 -0.19300
O 	O 	0.91515 0.84390 0.68590 -0.19700
O 	O 	0.85680 0.16570 0.77070 -0.46200
O 	O 	0.84354 0.03440 0.82520 -0.50200
O 	O 	0.83454 0.54800 0.79060 -0.40100
O 	O 	0.86760 0.45770 0.75570 -0.37400
Zn	Zn	0.33734 0.83221 0.79160 1.20300
Zn	Zn	0.38609 0.53563 0.91558 1.22200
C 	C 	0.57079 0.77950 0.58420 0.38500
C 	C 	0.52774 0.83890 0.56120 -0.05300
C 	C 	0.52565 0.96320 0.58250 -0.10400
H 	H 	0.55070 0.01150 0.60990 0.08600
C 	C 	0.48530 0.01470 0.56210 0.15700
C 	C 	0.44775 0.94160 0.52180 -0.10400
H 	H 	0.42100 0.97490 0.50920 0.09200
C 	C 	0.45093 0.81670 0.50050 -0.04400
C 	C 	0.49084 0.76710 0.52030 -0.01100
H 	H 	0.49280 0.68470 0.50580 0.05900
C 	C 	0.41170 0.73260 0.45980 0.33400
C 	C 	0.51460 0.21410 0.62260 -0.10800
H 	H 	0.53180 0.16610 0.66180 0.07500
H 	H 	0.53230 0.23130 0.60790 0.07700
C 	C 	0.49850 0.34330 0.63120 0.17200
C 	C 	0.47270 0.34490 0.65320 -0.22600
H 	H 	0.46540 0.26460 0.66250 0.13500
C 	C 	0.45790 0.46270 0.66110 0.17600
C 	C 	0.47100 0.57910 0.64980 -0.23700
H 	H 	0.46150 0.65970 0.65530 0.11300
C 	C 	0.49700 0.58150 0.63100 0.13900
H 	H 	0.50540 0.66310 0.62430 -0.01200
C 	C 	0.51200 0.46120 0.62130 -0.22000
H 	H 	0.53030 0.46220 0.60870 0.11300
C 	C 	0.42950 0.47020 0.68250 -0.10200
H 	H 	0.40470 0.52600 0.65410 0.06700
H 	H 	0.44530 0.51180 0.72330 0.06800
C 	C 	0.39430 0.33830 0.71530 0.17100
C 	C 	0.38550 0.21090 0.72590 -0.12400
H 	H 	0.39270 0.13660 0.71260 0.10100
C 	C 	0.36610 0.19420 0.75640 -0.02200
C 	C 	0.35650 0.30660 0.77720 -0.02800
H 	H 	0.34410 0.29630 0.79870 0.06000
C 	C 	0.36491 0.43070 0.76660 -0.05200
C 	C 	0.38400 0.44960 0.73440 -0.11900
H 	H 	0.38930 0.53490 0.72640 0.08800
C 	C 	0.35520 0.05780 0.76820 0.30500
C 	C 	0.35441 0.55350 0.78860 0.34900
C 	C 	0.27337 0.70850 0.81200 0.07000
H 	H 	0.27030 0.64520 0.78400 -0.01300
C 	C 	0.24973 0.69320 0.83540 -0.12900
H 	H 	0.23240 0.61800 0.82480 0.07800
C 	C 	0.25120 0.78750 0.87430 0.05600
C 	C 	0.27960 0.89740 0.89060 -0.12400
H 	H 	0.28210 0.96530 0.91650 0.08000
C 	C 	0.30360 0.89880 0.86590 0.06800
H 	H 	0.32320 0.96810 0.87770 0.00900
C 	C 	0.22650 0.76810 0.90030 0.09500
C 	C 	0.19080 0.79180 0.93970 0.09300
C 	C 	0.17080 0.84630 0.96980 0.07200
C 	C 	0.14190 0.76170 0.97130 -0.12700
H 	H 	0.13420 0.67910 0.95140 0.09100
C 	C 	0.12530 0.80450 0.00290 0.07700
H 	H 	0.10510 0.75080 0.00240 -0.00200
C 	C 	0.16290 0.99960 0.02980 0.07800
H 	H 	0.16990 0.08270 0.04920 -0.00600
C 	C 	0.17970 0.96480 0.99790 -0.13300
H 	H 	0.19760 0.02430 0.99580 0.07700
N 	N 	0.30031 0.80860 0.82720 -0.26300
N 	N 	0.21053 0.85960 0.91810 -0.09400
N 	N 	0.21765 0.65020 0.90990 -0.09200
N 	N 	0.19490 0.66490 0.93480 -0.08800
N 	N 	0.20900 0.00080 0.91100 -0.24500
H 	H 	0.21940 0.03730 0.89290 0.13600
H 	H 	0.19760 0.04960 0.92470 0.13500
N 	N 	0.13672 0.91950 0.03440 -0.27400
O 	O 	0.56962 0.66120 0.56550 -0.48300
O 	O 	0.60415 0.84670 0.61720 -0.44400
O 	O 	0.37655 0.76620 0.45070 -0.28500
O 	O 	0.41695 0.63090 0.43760 -0.46600
O 	O 	0.47780 0.13820 0.57830 -0.19200
O 	O 	0.41515 0.34390 0.68590 -0.19600
O 	O 	0.35680 0.66570 0.77070 -0.46200
O 	O 	0.34354 0.53440 0.82520 -0.50200
O 	O 	0.33454 0.04800 0.79060 -0.40200
O 	O 	0.36760 0.95770 0.75570 -0.37200
