data_crystal

_cell_length_a 25.44400
_cell_length_b 25.44400
_cell_length_c 53.61600
_cell_angle_alpha 90.00000
_cell_angle_beta  90.00000
_cell_angle_gamma 90.00000

_symmetry_space_group_name_	'P 1'
_symmetry_space_group_name_H-M	'P 1'

loop_
_symmetry_equiv_pos_as_xyz
  x,y,z

loop_
_atom_site_label
_atom_site_type_symbol
_atom_site_fract_x
_atom_site_fract_y
_atom_site_fract_z
_atom_site_charge
Zn	Zn	0.22329 0.44460 0.12680 1.19300
O 	O 	0.27730 0.41182 0.14975 -0.47300
C 	C 	0.31290 0.43870 0.16016 0.37300
O 	O 	0.44400 0.50263 0.22583 -0.49900
O 	O 	0.32897 0.48403 0.15272 -0.47500
C 	C 	0.18910 0.67670 0.03065 0.39900
O 	O 	0.16653 0.69525 0.01205 -0.48400
N 	N 	0.04220 0.55683 0.04645 -0.12700
O 	O 	0.25417 0.54599 0.09491 -0.48000
C 	C 	0.20750 0.53210 0.09201 0.39500
O 	O 	0.23206 0.69538 0.03973 -0.48300
C 	C 	0.37170 0.44697 0.19756 0.04100
H 	H 	0.37850 0.48240 0.19300 0.03600
N 	N 	0.34010 0.29140 0.21826 -0.13400
C 	C 	0.38270 0.37508 0.22577 -0.03200
H 	H 	0.39770 0.36060 0.24050 0.05500
C 	C 	0.12510 0.54398 0.06778 -0.03500
H 	H 	0.11130 0.51320 0.07530 0.05100
C 	C 	0.11566 0.61477 0.03818 -0.03300
H 	H 	0.09520 0.63220 0.02590 0.05000
C 	C 	0.43020 0.46030 0.23359 0.42400
C 	C 	0.32770 0.36447 0.18936 -0.03900
H 	H 	0.30580 0.34270 0.17930 0.05700
C 	C 	0.16665 0.63151 0.04368 -0.10900
C 	C 	0.33820 0.41568 0.18218 -0.09500
O 	O 	0.44673 0.43919 0.25394 -0.48300
C 	C 	0.19668 0.60365 0.06190 0.04700
H 	H 	0.23130 0.61480 0.06590 0.03400
C 	C 	0.34910 0.34525 0.21111 0.06300
C 	C 	0.17573 0.56130 0.07354 -0.10700
C 	C 	0.09582 0.57210 0.05113 0.05700
C 	C 	0.32340 0.27710 0.24354 -0.00500
H 	H 	0.31460 0.30000 0.25690 0.03200
C 	C 	0.03020 0.50770 0.03989 -0.05900
H 	H 	0.05340 0.47960 0.03610 0.04000
C 	C 	0.39420 0.42710 0.21865 -0.11100
O 	O 	0.18501 0.49495 0.10366 -0.47800
Zn	Zn	0.72329 0.94460 0.62680 1.19500
O 	O 	0.77730 0.91182 0.64975 -0.46900
C 	C 	0.81290 0.93870 0.66016 0.37300
O 	O 	0.94400 0.00263 0.72583 -0.47800
O 	O 	0.82897 0.98403 0.65272 -0.46900
C 	C 	0.68910 0.17670 0.53065 0.39700
O 	O 	0.66653 0.19525 0.51205 -0.47800
N 	N 	0.54220 0.05683 0.54645 -0.14400
O 	O 	0.75417 0.04599 0.59491 -0.47700
C 	C 	0.70750 0.03210 0.59201 0.39300
O 	O 	0.73206 0.19538 0.53973 -0.47900
C 	C 	0.87170 0.94697 0.69756 0.03800
H 	H 	0.87850 0.98240 0.69300 0.04200
N 	N 	0.84010 0.79140 0.71826 -0.13400
C 	C 	0.88270 0.87508 0.72577 -0.03500
H 	H 	0.89770 0.86060 0.74050 0.06300
C 	C 	0.62510 0.04398 0.56778 -0.04200
H 	H 	0.61130 0.01320 0.57530 0.05800
C 	C 	0.61566 0.11477 0.53818 -0.03900
H 	H 	0.59520 0.13220 0.52590 0.05800
C 	C 	0.93020 0.96030 0.73359 0.41900
C 	C 	0.82770 0.86447 0.68936 -0.04200
H 	H 	0.80580 0.84270 0.67930 0.06000
C 	C 	0.66665 0.13151 0.54368 -0.10200
C 	C 	0.83820 0.91568 0.68218 -0.08800
O 	O 	0.94673 0.93919 0.75394 -0.46100
C 	C 	0.69668 0.10365 0.56190 0.04200
H 	H 	0.73130 0.11480 0.56590 0.03700
C 	C 	0.84910 0.84525 0.71111 0.06900
C 	C 	0.67573 0.06130 0.57354 -0.09900
C 	C 	0.59582 0.07210 0.55113 0.06900
C 	C 	0.82340 0.77710 0.74354 -0.00300
H 	H 	0.81460 0.80000 0.75690 0.03400
C 	C 	0.53020 0.00770 0.53989 0.00600
H 	H 	0.55340 0.97960 0.53610 0.02700
C 	C 	0.89420 0.92710 0.71865 -0.10100
O 	O 	0.68501 0.99495 0.60366 -0.47300
Zn	Zn	0.27671 0.55540 0.62680 1.19500
O 	O 	0.22270 0.58818 0.64975 -0.47100
C 	C 	0.18710 0.56130 0.66016 0.37400
O 	O 	0.05600 0.49737 0.72583 -0.51200
O 	O 	0.17103 0.51597 0.65272 -0.47800
C 	C 	0.31090 0.32330 0.53065 0.39800
O 	O 	0.33347 0.30475 0.51205 -0.47800
N 	N 	0.45780 0.44317 0.54645 -0.14400
O 	O 	0.24583 0.45401 0.59491 -0.48000
C 	C 	0.29250 0.46790 0.59201 0.39500
O 	O 	0.26794 0.30462 0.53973 -0.48200
C 	C 	0.12830 0.55303 0.69756 0.04400
H 	H 	0.12150 0.51760 0.69300 0.03200
N 	N 	0.15990 0.70860 0.71826 -0.13400
C 	C 	0.11730 0.62492 0.72577 -0.03000
H 	H 	0.10230 0.63940 0.74050 0.04900
C 	C 	0.37490 0.45602 0.56778 -0.04100
H 	H 	0.38870 0.48680 0.57530 0.05700
C 	C 	0.38434 0.38523 0.53818 -0.03800
H 	H 	0.40480 0.36780 0.52590 0.05700
C 	C 	0.06980 0.53970 0.73359 0.42500
C 	C 	0.17230 0.63553 0.68936 -0.03800
H 	H 	0.19420 0.65730 0.67930 0.05600
C 	C 	0.33335 0.36849 0.54368 -0.10400
C 	C 	0.16180 0.58432 0.68218 -0.10000
O 	O 	0.05327 0.56081 0.75394 -0.49700
C 	C 	0.30332 0.39635 0.56190 0.04300
H 	H 	0.26870 0.38520 0.56590 0.03400
C 	C 	0.15090 0.65475 0.71111 0.05900
C 	C 	0.32427 0.43870 0.57354 -0.10100
C 	C 	0.40418 0.42790 0.55113 0.06800
C 	C 	0.17660 0.72290 0.74354 -0.00700
H 	H 	0.18540 0.70000 0.75690 0.03100
C 	C 	0.46980 0.49230 0.53989 0.00600
H 	H 	0.44660 0.52040 0.53610 0.02700
C 	C 	0.10580 0.57290 0.71865 -0.11900
O 	O 	0.31499 0.50505 0.60366 -0.47400
Zn	Zn	0.77671 0.05540 0.12680 1.19600
O 	O 	0.72270 0.08818 0.14975 -0.46900
C 	C 	0.68710 0.06130 0.16016 0.37300
O 	O 	0.55600 0.99737 0.22583 -0.49900
O 	O 	0.67103 0.01597 0.15272 -0.47400
C 	C 	0.81090 0.82330 0.03065 0.39700
O 	O 	0.83347 0.80475 0.01205 -0.47300
N 	N 	0.95780 0.94317 0.04645 -0.12100
O 	O 	0.74583 0.95401 0.09491 -0.47800
C 	C 	0.79250 0.96790 0.09201 0.39300
O 	O 	0.76794 0.80462 0.03973 -0.47900
C 	C 	0.62830 0.05303 0.19756 0.04100
H 	H 	0.62150 0.01760 0.19300 0.03700
N 	N 	0.65990 0.20860 0.21826 -0.13400
C 	C 	0.61730 0.12492 0.22577 -0.03200
H 	H 	0.60230 0.13940 0.24050 0.05600
C 	C 	0.87490 0.95602 0.06778 -0.04300
H 	H 	0.88870 0.98680 0.07530 0.06400
C 	C 	0.88434 0.88523 0.03818 -0.03900
H 	H 	0.90480 0.86780 0.02590 0.06800
C 	C 	0.56980 0.03970 0.23359 0.42400
C 	C 	0.67230 0.13553 0.18936 -0.04000
H 	H 	0.69420 0.15730 0.17930 0.05900
C 	C 	0.83335 0.86849 0.04368 -0.09800
C 	C 	0.66180 0.08432 0.18218 -0.09400
O 	O 	0.55327 0.06081 0.25394 -0.48300
C 	C 	0.80332 0.89635 0.06190 0.04100
H 	H 	0.76870 0.88520 0.06590 0.03700
C 	C 	0.65090 0.15475 0.21111 0.06400
C 	C 	0.82427 0.93870 0.07354 -0.09600
C 	C 	0.90418 0.92790 0.05113 0.07700
C 	C 	0.67660 0.22290 0.24354 -0.00400
H 	H 	0.68540 0.20000 0.25690 0.03200
C 	C 	0.96980 0.99230 0.03989 0.07100
H 	H 	0.94660 0.02040 0.03610 0.01600
C 	C 	0.60580 0.07290 0.21865 -0.11100
O 	O 	0.81499 0.00505 0.10366 -0.46900
Zn	Zn	0.80540 0.97329 0.37680 1.19600
O 	O 	0.83818 0.02730 0.39975 -0.46400
C 	C 	0.81130 0.06290 0.41016 0.37300
O 	O 	0.74737 0.19400 0.47583 -0.49700
O 	O 	0.76597 0.07897 0.40272 -0.47200
C 	C 	0.57330 0.93910 0.28065 0.39800
O 	O 	0.55475 0.91653 0.26205 -0.47800
N 	N 	0.69317 0.79220 0.29645 -0.14400
O 	O 	0.70401 0.00417 0.34491 -0.47800
C 	C 	0.71790 0.95750 0.34201 0.39300
O 	O 	0.55462 0.98206 0.28973 -0.48100
C 	C 	0.80303 0.12170 0.44756 0.04000
H 	H 	0.76760 0.12850 0.44300 0.03800
N 	N 	0.95860 0.09010 0.46826 -0.11200
C 	C 	0.87492 0.13270 0.47577 -0.03300
H 	H 	0.88940 0.14770 0.49050 0.06100
C 	C 	0.70602 0.87510 0.31778 -0.04200
H 	H 	0.73680 0.86130 0.32530 0.06000
C 	C 	0.63523 0.86566 0.28818 -0.03900
H 	H 	0.61780 0.84520 0.27590 0.05800
C 	C 	0.78970 0.18020 0.48359 0.42200
C 	C 	0.88553 0.07770 0.43936 -0.04000
H 	H 	0.90730 0.05580 0.42930 0.06800
C 	C 	0.61849 0.91665 0.29368 -0.10300
C 	C 	0.83432 0.08820 0.43218 -0.08900
O 	O 	0.81081 0.19673 0.50394 -0.47900
C 	C 	0.64635 0.94668 0.31190 0.04200
H 	H 	0.63520 0.98130 0.31590 0.03600
C 	C 	0.90475 0.09910 0.46111 0.07200
C 	C 	0.68870 0.92573 0.32354 -0.09900
C 	C 	0.67790 0.84582 0.30113 0.07000
C 	C 	0.97290 0.07340 0.49354 0.08200
H 	H 	0.95000 0.06460 0.50690 0.01300
C 	C 	0.74230 0.78020 0.28989 0.00700
H 	H 	0.77040 0.80340 0.28610 0.02900
C 	C 	0.82290 0.14420 0.46865 -0.10700
O 	O 	0.75505 0.93501 0.35366 -0.47100
Zn	Zn	0.30540 0.47329 0.87680 1.19500
O 	O 	0.33818 0.52730 0.89975 -0.47000
C 	C 	0.31130 0.56290 0.91016 0.37400
O 	O 	0.24737 0.69400 0.97583 -0.50000
O 	O 	0.26597 0.57897 0.90272 -0.47500
C 	C 	0.07330 0.43910 0.78065 0.40000
O 	O 	0.05475 0.41653 0.76205 -0.49300
N 	N 	0.19317 0.29220 0.79645 -0.14400
O 	O 	0.20401 0.50417 0.84491 -0.48100
C 	C 	0.21790 0.45750 0.84201 0.39500
O 	O 	0.05462 0.48206 0.78973 -0.49500
C 	C 	0.30303 0.62170 0.94756 0.04200
H 	H 	0.26760 0.62850 0.94300 0.03500
N 	N 	0.45860 0.59010 0.96826 -0.13400
C 	C 	0.37492 0.63270 0.97577 -0.03100
H 	H 	0.38940 0.64770 0.99050 0.05500
C 	C 	0.20602 0.37510 0.81778 -0.03900
H 	H 	0.23680 0.36130 0.82530 0.05600
C 	C 	0.13523 0.36566 0.78818 -0.03700
H 	H 	0.11780 0.34520 0.77590 0.05200
C 	C 	0.28970 0.68020 0.98359 0.42400
C 	C 	0.38553 0.57770 0.93936 -0.03900
H 	H 	0.40730 0.55580 0.92930 0.05700
C 	C 	0.11849 0.41665 0.79368 -0.11000
C 	C 	0.33432 0.58820 0.93218 -0.09500
O 	O 	0.31081 0.69673 0.00394 -0.48300
C 	C 	0.14635 0.44668 0.81190 0.04500
H 	H 	0.13520 0.48130 0.81590 0.03200
C 	C 	0.40475 0.59910 0.96111 0.06300
C 	C 	0.18870 0.42573 0.82354 -0.10400
C 	C 	0.17790 0.34582 0.80113 0.06500
C 	C 	0.47290 0.57340 0.99354 -0.00500
H 	H 	0.45000 0.56460 0.00690 0.03200
C 	C 	0.24230 0.28020 0.78989 0.00600
H 	H 	0.27040 0.30340 0.78610 0.02700
C 	C 	0.32290 0.64420 0.96865 -0.11200
O 	O 	0.25505 0.43501 0.85366 -0.47500
Zn	Zn	0.69460 0.02671 0.87680 1.19500
O 	O 	0.66182 0.97270 0.89975 -0.47000
C 	C 	0.68870 0.93710 0.91016 0.37300
O 	O 	0.75263 0.80600 0.97583 -0.49600
O 	O 	0.73403 0.92103 0.90272 -0.47200
C 	C 	0.92670 0.06090 0.78065 0.39300
O 	O 	0.94525 0.08347 0.76205 -0.45600
N 	N 	0.80683 0.20780 0.79645 -0.14400
O 	O 	0.79599 0.99583 0.84491 -0.47500
C 	C 	0.78210 0.04250 0.84201 0.39300
O 	O 	0.94538 0.01794 0.78973 -0.45900
C 	C 	0.69697 0.87830 0.94756 0.04000
H 	H 	0.73240 0.87150 0.94300 0.03800
N 	N 	0.54140 0.90990 0.96826 -0.13400
C 	C 	0.62508 0.86730 0.97577 -0.03300
H 	H 	0.61060 0.85230 0.99050 0.05600
C 	C 	0.79398 0.12490 0.81778 -0.04400
H 	H 	0.76320 0.13870 0.82530 0.05900
C 	C 	0.86477 0.13434 0.78818 -0.04200
H 	H 	0.88220 0.15480 0.77590 0.06400
C 	C 	0.71030 0.81980 0.98359 0.42300
C 	C 	0.61447 0.92230 0.93936 -0.04000
H 	H 	0.59270 0.94420 0.92930 0.05800
C 	C 	0.88151 0.08335 0.79368 -0.09400
C 	C 	0.66568 0.91180 0.93218 -0.09300
O 	O 	0.68919 0.80327 0.00394 -0.48300
C 	C 	0.85365 0.05332 0.81190 0.03900
H 	H 	0.86480 0.01870 0.81590 0.04000
C 	C 	0.59525 0.90090 0.96111 0.06400
C 	C 	0.81130 0.07427 0.82354 -0.09500
C 	C 	0.82210 0.15418 0.80113 0.07400
C 	C 	0.52710 0.92660 0.99354 -0.00500
H 	H 	0.55000 0.93540 0.00690 0.03200
C 	C 	0.75770 0.21980 0.78989 0.00700
H 	H 	0.72960 0.19660 0.78610 0.02700
C 	C 	0.67710 0.85580 0.96865 -0.11000
O 	O 	0.74495 0.06499 0.85366 -0.47300
Zn	Zn	0.19460 0.52671 0.37680 1.19400
O 	O 	0.16182 0.47270 0.39975 -0.47500
C 	C 	0.18870 0.43710 0.41016 0.37500
O 	O 	0.25263 0.30600 0.47583 -0.49900
O 	O 	0.23403 0.42103 0.40272 -0.47500
C 	C 	0.42670 0.56090 0.28065 0.39800
O 	O 	0.44525 0.58347 0.26205 -0.47800
N 	N 	0.30683 0.70780 0.29645 -0.14400
O 	O 	0.29599 0.49583 0.34491 -0.47900
C 	C 	0.28210 0.54250 0.34201 0.39500
O 	O 	0.44538 0.51794 0.28973 -0.48100
C 	C 	0.19697 0.37830 0.44756 0.04500
H 	H 	0.23240 0.37150 0.44300 0.03500
N 	N 	0.04140 0.40990 0.46826 -0.11800
C 	C 	0.12508 0.36730 0.47577 -0.02700
H 	H 	0.11060 0.35230 0.49050 0.05000
C 	C 	0.29398 0.62490 0.31778 -0.04000
H 	H 	0.26320 0.63870 0.32530 0.05600
C 	C 	0.36477 0.63434 0.28818 -0.03800
H 	H 	0.38220 0.65480 0.27590 0.05700
C 	C 	0.21030 0.31980 0.48359 0.42500
C 	C 	0.11447 0.42230 0.43936 -0.03400
H 	H 	0.09270 0.44420 0.42930 0.05000
C 	C 	0.38151 0.58335 0.29368 -0.10400
C 	C 	0.16568 0.41180 0.43218 -0.10000
O 	O 	0.18919 0.30327 0.50394 -0.48600
C 	C 	0.35365 0.55332 0.31190 0.04300
H 	H 	0.36480 0.51870 0.31590 0.03500
C 	C 	0.09525 0.40090 0.46111 0.05300
C 	C 	0.31130 0.57427 0.32354 -0.10100
C 	C 	0.32210 0.65418 0.30113 0.06800
C 	C 	0.02710 0.42660 0.49354 -0.09200
H 	H 	0.05000 0.43540 0.50690 0.05300
C 	C 	0.25770 0.71980 0.28989 0.00500
H 	H 	0.22960 0.69660 0.28610 0.02500
C 	C 	0.17710 0.35580 0.46865 -0.11600
O 	O 	0.24495 0.56499 0.35366 -0.47600
Zn	Zn	0.27671 0.44460 0.37320 1.19500
O 	O 	0.22270 0.41182 0.35025 -0.47100
C 	C 	0.18710 0.43870 0.33984 0.37400
O 	O 	0.05600 0.50263 0.27417 -0.51200
O 	O 	0.17103 0.48403 0.34728 -0.47800
C 	C 	0.31090 0.67670 0.46935 0.39800
O 	O 	0.33347 0.69525 0.48795 -0.47800
N 	N 	0.45780 0.55683 0.45355 -0.14400
O 	O 	0.24583 0.54599 0.40509 -0.48000
C 	C 	0.29250 0.53210 0.40799 0.39500
O 	O 	0.26794 0.69538 0.46027 -0.48200
C 	C 	0.12830 0.44697 0.30244 0.04400
H 	H 	0.12150 0.48240 0.30700 0.03200
N 	N 	0.15990 0.29140 0.28174 -0.13400
C 	C 	0.11730 0.37508 0.27423 -0.03000
H 	H 	0.10230 0.36060 0.25950 0.04900
C 	C 	0.37490 0.54398 0.43222 -0.04100
H 	H 	0.38870 0.51320 0.42470 0.05700
C 	C 	0.38434 0.61477 0.46182 -0.03800
H 	H 	0.40480 0.63220 0.47410 0.05700
C 	C 	0.06980 0.46030 0.26641 0.42500
C 	C 	0.17230 0.36447 0.31064 -0.03800
H 	H 	0.19420 0.34270 0.32070 0.05600
C 	C 	0.33335 0.63151 0.45632 -0.10400
C 	C 	0.16180 0.41568 0.31782 -0.10000
O 	O 	0.05327 0.43919 0.24606 -0.49700
C 	C 	0.30332 0.60365 0.43810 0.04300
H 	H 	0.26870 0.61480 0.43410 0.03400
C 	C 	0.15090 0.34525 0.28889 0.05900
C 	C 	0.32427 0.56130 0.42646 -0.10100
C 	C 	0.40418 0.57210 0.44887 0.06800
C 	C 	0.17660 0.27710 0.25646 -0.00700
H 	H 	0.18540 0.30000 0.24310 0.03100
C 	C 	0.46980 0.50770 0.46011 0.00600
H 	H 	0.44660 0.47960 0.46390 0.02700
C 	C 	0.10580 0.42710 0.28135 -0.11900
O 	O 	0.31499 0.49495 0.39634 -0.47400
Zn	Zn	0.77671 0.94460 0.87320 1.19600
O 	O 	0.72270 0.91182 0.85025 -0.46900
C 	C 	0.68710 0.93870 0.83984 0.37300
O 	O 	0.55600 0.00263 0.77417 -0.49900
O 	O 	0.67103 0.98403 0.84728 -0.47400
C 	C 	0.81090 0.17670 0.96935 0.39700
O 	O 	0.83347 0.19525 0.98795 -0.47300
N 	N 	0.95780 0.05683 0.95355 -0.12100
O 	O 	0.74583 0.04599 0.90509 -0.47800
C 	C 	0.79250 0.03210 0.90799 0.39300
O 	O 	0.76794 0.19538 0.96027 -0.47900
C 	C 	0.62830 0.94697 0.80244 0.04100
H 	H 	0.62150 0.98240 0.80700 0.03700
N 	N 	0.65990 0.79140 0.78174 -0.13400
C 	C 	0.61730 0.87508 0.77423 -0.03200
H 	H 	0.60230 0.86060 0.75950 0.05600
C 	C 	0.87490 0.04398 0.93222 -0.04300
H 	H 	0.88870 0.01320 0.92470 0.06400
C 	C 	0.88434 0.11477 0.96182 -0.03900
H 	H 	0.90480 0.13220 0.97410 0.06800
C 	C 	0.56980 0.96030 0.76641 0.42400
C 	C 	0.67230 0.86447 0.81064 -0.04000
H 	H 	0.69420 0.84270 0.82070 0.05900
C 	C 	0.83335 0.13151 0.95632 -0.09800
C 	C 	0.66180 0.91568 0.81782 -0.09400
O 	O 	0.55327 0.93919 0.74606 -0.48300
C 	C 	0.80332 0.10365 0.93810 0.04100
H 	H 	0.76870 0.11480 0.93410 0.03700
C 	C 	0.65090 0.84525 0.78889 0.06400
C 	C 	0.82427 0.06130 0.92646 -0.09600
C 	C 	0.90418 0.07210 0.94887 0.07700
C 	C 	0.67660 0.77710 0.75646 -0.00400
H 	H 	0.68540 0.80000 0.74310 0.03200
C 	C 	0.96980 0.00770 0.96011 0.07100
H 	H 	0.94660 0.97960 0.96390 0.01600
C 	C 	0.60580 0.92710 0.78135 -0.11100
O 	O 	0.81499 0.99495 0.89634 -0.46900
Zn	Zn	0.22329 0.55540 0.87320 1.19400
O 	O 	0.27730 0.58818 0.85025 -0.47200
C 	C 	0.31290 0.56130 0.83984 0.37400
O 	O 	0.44400 0.49737 0.77417 -0.49800
O 	O 	0.32897 0.51597 0.84728 -0.47400
C 	C 	0.18910 0.32330 0.96935 0.40000
O 	O 	0.16653 0.30475 0.98795 -0.48300
N 	N 	0.04220 0.44317 0.95355 -0.12600
O 	O 	0.25417 0.45401 0.90509 -0.47900
C 	C 	0.20750 0.46790 0.90799 0.39600
O 	O 	0.23206 0.30462 0.96027 -0.48200
C 	C 	0.37170 0.55303 0.80244 0.04200
H 	H 	0.37850 0.51760 0.80700 0.03600
N 	N 	0.34010 0.70860 0.78174 -0.13400
C 	C 	0.38270 0.62492 0.77423 -0.03200
H 	H 	0.39770 0.63940 0.75950 0.05500
C 	C 	0.12510 0.45602 0.93222 -0.03500
H 	H 	0.11130 0.48680 0.92470 0.05100
C 	C 	0.11566 0.38523 0.96182 -0.03300
H 	H 	0.09520 0.36780 0.97410 0.05000
C 	C 	0.43020 0.53970 0.76641 0.42400
C 	C 	0.32770 0.63553 0.81064 -0.03900
H 	H 	0.30580 0.65730 0.82070 0.05700
C 	C 	0.16665 0.36849 0.95632 -0.10900
C 	C 	0.33820 0.58432 0.81782 -0.09500
O 	O 	0.44673 0.56081 0.74606 -0.48300
C 	C 	0.19668 0.39635 0.93810 0.04700
H 	H 	0.23130 0.38520 0.93410 0.03400
C 	C 	0.34910 0.65475 0.78889 0.06300
C 	C 	0.17573 0.43870 0.92646 -0.10700
C 	C 	0.09582 0.42790 0.94887 0.05700
C 	C 	0.32340 0.72290 0.75646 -0.00500
H 	H 	0.31460 0.70000 0.74310 0.03200
C 	C 	0.03020 0.49230 0.96011 -0.05900
H 	H 	0.05340 0.52040 0.96390 0.04000
C 	C 	0.39420 0.57290 0.78135 -0.11100
O 	O 	0.18501 0.50505 0.89634 -0.47800
Zn	Zn	0.72329 0.05540 0.37320 1.19500
O 	O 	0.77730 0.08818 0.35025 -0.46900
C 	C 	0.81290 0.06130 0.33984 0.37300
O 	O 	0.94400 0.99737 0.27417 -0.47800
O 	O 	0.82897 0.01597 0.34728 -0.46900
C 	C 	0.68910 0.82330 0.46935 0.39700
O 	O 	0.66653 0.80475 0.48795 -0.47800
N 	N 	0.54220 0.94317 0.45355 -0.14400
O 	O 	0.75417 0.95401 0.40509 -0.47700
C 	C 	0.70750 0.96790 0.40799 0.39300
O 	O 	0.73206 0.80462 0.46027 -0.47900
C 	C 	0.87170 0.05303 0.30244 0.03800
H 	H 	0.87850 0.01760 0.30700 0.04200
N 	N 	0.84010 0.20860 0.28174 -0.13400
C 	C 	0.88270 0.12492 0.27423 -0.03500
H 	H 	0.89770 0.13940 0.25950 0.06300
C 	C 	0.62510 0.95602 0.43222 -0.04200
H 	H 	0.61130 0.98680 0.42470 0.05800
C 	C 	0.61566 0.88523 0.46182 -0.03900
H 	H 	0.59520 0.86780 0.47410 0.05800
C 	C 	0.93020 0.03970 0.26641 0.41900
C 	C 	0.82770 0.13553 0.31064 -0.04200
H 	H 	0.80580 0.15730 0.32070 0.06000
C 	C 	0.66665 0.86849 0.45632 -0.10200
C 	C 	0.83820 0.08432 0.31782 -0.08800
O 	O 	0.94673 0.06081 0.24606 -0.46100
C 	C 	0.69668 0.89635 0.43810 0.04200
H 	H 	0.73130 0.88520 0.43410 0.03700
C 	C 	0.84910 0.15475 0.28889 0.06900
C 	C 	0.67573 0.93870 0.42646 -0.09900
C 	C 	0.59582 0.92790 0.44887 0.06900
C 	C 	0.82340 0.22290 0.25646 -0.00300
H 	H 	0.81460 0.20000 0.24310 0.03400
C 	C 	0.53020 0.99230 0.46011 0.00600
H 	H 	0.55340 0.02040 0.46390 0.02700
C 	C 	0.89420 0.07290 0.28135 -0.10100
O 	O 	0.68501 0.00505 0.39634 -0.47300
Zn	Zn	0.69460 0.97329 0.12320 1.19500
O 	O 	0.66182 0.02730 0.10025 -0.47000
C 	C 	0.68870 0.06290 0.08984 0.37300
O 	O 	0.75263 0.19400 0.02417 -0.49600
O 	O 	0.73403 0.07897 0.09728 -0.47200
C 	C 	0.92670 0.93910 0.21935 0.39300
O 	O 	0.94525 0.91653 0.23795 -0.45600
N 	N 	0.80683 0.79220 0.20355 -0.14400
O 	O 	0.79599 0.00417 0.15509 -0.47500
C 	C 	0.78210 0.95750 0.15799 0.39300
O 	O 	0.94538 0.98206 0.21027 -0.45900
C 	C 	0.69697 0.12170 0.05244 0.04000
H 	H 	0.73240 0.12850 0.05700 0.03800
N 	N 	0.54140 0.09010 0.03174 -0.13400
C 	C 	0.62508 0.13270 0.02423 -0.03300
H 	H 	0.61060 0.14770 0.00950 0.05600
C 	C 	0.79398 0.87510 0.18222 -0.04400
H 	H 	0.76320 0.86130 0.17470 0.05900
C 	C 	0.86477 0.86566 0.21182 -0.04200
H 	H 	0.88220 0.84520 0.22410 0.06400
C 	C 	0.71030 0.18020 0.01641 0.42300
C 	C 	0.61447 0.07770 0.06064 -0.04000
H 	H 	0.59270 0.05580 0.07070 0.05800
C 	C 	0.88151 0.91665 0.20632 -0.09400
C 	C 	0.66568 0.08820 0.06782 -0.09300
O 	O 	0.68919 0.19673 0.99606 -0.48300
C 	C 	0.85365 0.94668 0.18810 0.03900
H 	H 	0.86480 0.98130 0.18410 0.04000
C 	C 	0.59525 0.09910 0.03889 0.06400
C 	C 	0.81130 0.92573 0.17646 -0.09500
C 	C 	0.82210 0.84582 0.19887 0.07400
C 	C 	0.52710 0.07340 0.00646 -0.00500
H 	H 	0.55000 0.06460 0.99310 0.03200
C 	C 	0.75770 0.78020 0.21011 0.00700
H 	H 	0.72960 0.80340 0.21390 0.02700
C 	C 	0.67710 0.14420 0.03135 -0.11000
O 	O 	0.74495 0.93501 0.14634 -0.47300
Zn	Zn	0.19460 0.47329 0.62320 1.19400
O 	O 	0.16182 0.52730 0.60025 -0.47500
C 	C 	0.18870 0.56290 0.58984 0.37500
O 	O 	0.25263 0.69400 0.52417 -0.49900
O 	O 	0.23403 0.57897 0.59728 -0.47500
C 	C 	0.42670 0.43910 0.71935 0.39800
O 	O 	0.44525 0.41653 0.73795 -0.47800
N 	N 	0.30683 0.29220 0.70355 -0.14400
O 	O 	0.29599 0.50417 0.65509 -0.47900
C 	C 	0.28210 0.45750 0.65799 0.39500
O 	O 	0.44538 0.48206 0.71027 -0.48100
C 	C 	0.19697 0.62170 0.55244 0.04500
H 	H 	0.23240 0.62850 0.55700 0.03500
N 	N 	0.04140 0.59010 0.53174 -0.11800
C 	C 	0.12508 0.63270 0.52423 -0.02700
H 	H 	0.11060 0.64770 0.50950 0.05000
C 	C 	0.29398 0.37510 0.68222 -0.04000
H 	H 	0.26320 0.36130 0.67470 0.05600
C 	C 	0.36477 0.36566 0.71182 -0.03800
H 	H 	0.38220 0.34520 0.72410 0.05700
C 	C 	0.21030 0.68020 0.51641 0.42500
C 	C 	0.11447 0.57770 0.56064 -0.03400
H 	H 	0.09270 0.55580 0.57070 0.05000
C 	C 	0.38151 0.41665 0.70632 -0.10400
C 	C 	0.16568 0.58820 0.56782 -0.10000
O 	O 	0.18919 0.69673 0.49606 -0.48600
C 	C 	0.35365 0.44668 0.68810 0.04300
H 	H 	0.36480 0.48130 0.68410 0.03500
C 	C 	0.09525 0.59910 0.53889 0.05300
C 	C 	0.31130 0.42573 0.67646 -0.10100
C 	C 	0.32210 0.34582 0.69887 0.06800
C 	C 	0.02710 0.57340 0.50646 -0.09200
H 	H 	0.05000 0.56460 0.49310 0.05300
C 	C 	0.25770 0.28020 0.71011 0.00500
H 	H 	0.22960 0.30340 0.71390 0.02500
C 	C 	0.17710 0.64420 0.53135 -0.11600
O 	O 	0.24495 0.43501 0.64634 -0.47600
Zn	Zn	0.80540 0.02671 0.62320 1.19600
O 	O 	0.83818 0.97270 0.60025 -0.46400
C 	C 	0.81130 0.93710 0.58984 0.37300
O 	O 	0.74737 0.80600 0.52417 -0.49700
O 	O 	0.76597 0.92103 0.59728 -0.47200
C 	C 	0.57330 0.06090 0.71935 0.39800
O 	O 	0.55475 0.08347 0.73795 -0.47800
N 	N 	0.69317 0.20780 0.70355 -0.14400
O 	O 	0.70401 0.99583 0.65509 -0.47800
C 	C 	0.71790 0.04250 0.65799 0.39300
O 	O 	0.55462 0.01794 0.71027 -0.48100
C 	C 	0.80303 0.87830 0.55244 0.04000
H 	H 	0.76760 0.87150 0.55700 0.03800
N 	N 	0.95860 0.90990 0.53174 -0.11200
C 	C 	0.87492 0.86730 0.52423 -0.03300
H 	H 	0.88940 0.85230 0.50950 0.06100
C 	C 	0.70602 0.12490 0.68222 -0.04200
H 	H 	0.73680 0.13870 0.67470 0.06000
C 	C 	0.63523 0.13434 0.71182 -0.03900
H 	H 	0.61780 0.15480 0.72410 0.05800
C 	C 	0.78970 0.81980 0.51641 0.42200
C 	C 	0.88553 0.92230 0.56064 -0.04000
H 	H 	0.90730 0.94420 0.57070 0.06800
C 	C 	0.61849 0.08335 0.70632 -0.10300
C 	C 	0.83432 0.91180 0.56782 -0.08900
O 	O 	0.81081 0.80327 0.49606 -0.47900
C 	C 	0.64635 0.05332 0.68810 0.04200
H 	H 	0.63520 0.01870 0.68410 0.03600
C 	C 	0.90475 0.90090 0.53889 0.07200
C 	C 	0.68870 0.07427 0.67646 -0.09900
C 	C 	0.67790 0.15418 0.69887 0.07000
C 	C 	0.97290 0.92660 0.50646 0.08200
H 	H 	0.95000 0.93540 0.49310 0.01300
C 	C 	0.74230 0.21980 0.71011 0.00700
H 	H 	0.77040 0.19660 0.71390 0.02900
C 	C 	0.82290 0.85580 0.53135 -0.10700
O 	O 	0.75505 0.06499 0.64634 -0.47100
Zn	Zn	0.30540 0.52671 0.12320 1.19500
O 	O 	0.33818 0.47270 0.10025 -0.47000
C 	C 	0.31130 0.43710 0.08984 0.37400
O 	O 	0.24737 0.30600 0.02417 -0.50000
O 	O 	0.26597 0.42103 0.09728 -0.47500
C 	C 	0.07330 0.56090 0.21935 0.40000
O 	O 	0.05475 0.58347 0.23795 -0.49300
N 	N 	0.19317 0.70780 0.20355 -0.14400
O 	O 	0.20401 0.49583 0.15509 -0.48100
C 	C 	0.21790 0.54250 0.15799 0.39500
O 	O 	0.05462 0.51794 0.21027 -0.49500
C 	C 	0.30303 0.37830 0.05244 0.04200
H 	H 	0.26760 0.37150 0.05700 0.03500
N 	N 	0.45860 0.40990 0.03174 -0.13400
C 	C 	0.37492 0.36730 0.02423 -0.03100
H 	H 	0.38940 0.35230 0.00950 0.05500
C 	C 	0.20602 0.62490 0.18222 -0.03900
H 	H 	0.23680 0.63870 0.17470 0.05600
C 	C 	0.13523 0.63434 0.21182 -0.03700
H 	H 	0.11780 0.65480 0.22410 0.05200
C 	C 	0.28970 0.31980 0.01641 0.42400
C 	C 	0.38553 0.42230 0.06064 -0.03900
H 	H 	0.40730 0.44420 0.07070 0.05700
C 	C 	0.11849 0.58335 0.20632 -0.11000
C 	C 	0.33432 0.41180 0.06782 -0.09500
O 	O 	0.31081 0.30327 0.99606 -0.48300
C 	C 	0.14635 0.55332 0.18810 0.04500
H 	H 	0.13520 0.51870 0.18410 0.03200
C 	C 	0.40475 0.40090 0.03889 0.06300
C 	C 	0.18870 0.57427 0.17646 -0.10400
C 	C 	0.17790 0.65418 0.19887 0.06500
C 	C 	0.47290 0.42660 0.00646 -0.00500
H 	H 	0.45000 0.43540 0.99310 0.03200
C 	C 	0.24230 0.71980 0.21011 0.00600
H 	H 	0.27040 0.69660 0.21390 0.02700
C 	C 	0.32290 0.35580 0.03135 -0.11200
O 	O 	0.25505 0.56499 0.14634 -0.47500
Zn	Zn	0.77671 0.55540 0.87320 1.19600
O 	O 	0.72270 0.58818 0.85025 -0.46800
C 	C 	0.68710 0.56130 0.83984 0.37300
O 	O 	0.55600 0.49737 0.77417 -0.49800
O 	O 	0.67103 0.51597 0.84728 -0.47400
C 	C 	0.81090 0.32330 0.96935 0.39700
O 	O 	0.83347 0.30475 0.98795 -0.47300
N 	N 	0.95780 0.44317 0.95355 -0.12100
O 	O 	0.74583 0.45401 0.90509 -0.47800
C 	C 	0.79250 0.46790 0.90799 0.39300
O 	O 	0.76794 0.30462 0.96027 -0.47900
C 	C 	0.62830 0.55303 0.80244 0.04100
H 	H 	0.62150 0.51760 0.80700 0.03700
N 	N 	0.65990 0.70860 0.78174 -0.13400
C 	C 	0.61730 0.62492 0.77423 -0.03200
H 	H 	0.60230 0.63940 0.75950 0.05600
C 	C 	0.87490 0.45602 0.93222 -0.04300
H 	H 	0.88870 0.48680 0.92470 0.06400
C 	C 	0.88434 0.38523 0.96182 -0.03900
H 	H 	0.90480 0.36780 0.97410 0.06800
C 	C 	0.56980 0.53970 0.76641 0.42300
C 	C 	0.67230 0.63553 0.81064 -0.04000
H 	H 	0.69420 0.65730 0.82070 0.05900
C 	C 	0.83335 0.36849 0.95632 -0.09800
C 	C 	0.66180 0.58432 0.81782 -0.09400
O 	O 	0.55327 0.56081 0.74606 -0.48300
C 	C 	0.80332 0.39635 0.93810 0.04100
H 	H 	0.76870 0.38520 0.93410 0.03700
C 	C 	0.65090 0.65475 0.78889 0.06400
C 	C 	0.82427 0.43870 0.92646 -0.09600
C 	C 	0.90418 0.42790 0.94887 0.07700
C 	C 	0.67660 0.72290 0.75646 -0.00400
H 	H 	0.68540 0.70000 0.74310 0.03200
C 	C 	0.96980 0.49230 0.96011 0.07200
H 	H 	0.94660 0.52040 0.96390 0.01600
C 	C 	0.60580 0.57290 0.78135 -0.11100
O 	O 	0.81499 0.50505 0.89634 -0.46900
Zn	Zn	0.27671 0.05540 0.37320 1.19500
O 	O 	0.22270 0.08818 0.35025 -0.47100
C 	C 	0.18710 0.06130 0.33984 0.37400
O 	O 	0.05600 0.99737 0.27417 -0.51200
O 	O 	0.17103 0.01597 0.34728 -0.47800
C 	C 	0.31090 0.82330 0.46935 0.39800
O 	O 	0.33347 0.80475 0.48795 -0.47800
N 	N 	0.45780 0.94317 0.45355 -0.14400
O 	O 	0.24583 0.95401 0.40509 -0.48000
C 	C 	0.29250 0.96790 0.40799 0.39500
O 	O 	0.26794 0.80462 0.46027 -0.48200
C 	C 	0.12830 0.05303 0.30244 0.04400
H 	H 	0.12150 0.01760 0.30700 0.03200
N 	N 	0.15990 0.20860 0.28174 -0.13400
C 	C 	0.11730 0.12492 0.27423 -0.03000
H 	H 	0.10230 0.13940 0.25950 0.04900
C 	C 	0.37490 0.95602 0.43222 -0.04100
H 	H 	0.38870 0.98680 0.42470 0.05700
C 	C 	0.38434 0.88523 0.46182 -0.03800
H 	H 	0.40480 0.86780 0.47410 0.05700
C 	C 	0.06980 0.03970 0.26641 0.42600
C 	C 	0.17230 0.13553 0.31064 -0.03800
H 	H 	0.19420 0.15730 0.32070 0.05600
C 	C 	0.33335 0.86849 0.45632 -0.10400
C 	C 	0.16180 0.08432 0.31782 -0.10000
O 	O 	0.05327 0.06081 0.24606 -0.49700
C 	C 	0.30332 0.89635 0.43810 0.04300
H 	H 	0.26870 0.88520 0.43410 0.03400
C 	C 	0.15090 0.15475 0.28889 0.05900
C 	C 	0.32427 0.93870 0.42646 -0.10100
C 	C 	0.40418 0.92790 0.44887 0.06800
C 	C 	0.17660 0.22290 0.25646 -0.00700
H 	H 	0.18540 0.20000 0.24310 0.03100
C 	C 	0.46980 0.99230 0.46011 0.00600
H 	H 	0.44660 0.02040 0.46390 0.02700
C 	C 	0.10580 0.07290 0.28135 -0.11900
O 	O 	0.31499 0.00505 0.39634 -0.47400
Zn	Zn	0.72329 0.44460 0.37320 1.19500
O 	O 	0.77730 0.41182 0.35025 -0.46900
C 	C 	0.81290 0.43870 0.33984 0.37200
O 	O 	0.94400 0.50263 0.27417 -0.47600
O 	O 	0.82897 0.48403 0.34728 -0.46900
C 	C 	0.68910 0.67670 0.46935 0.39700
O 	O 	0.66653 0.69525 0.48795 -0.47800
N 	N 	0.54220 0.55683 0.45355 -0.14400
O 	O 	0.75417 0.54599 0.40509 -0.47700
C 	C 	0.70750 0.53210 0.40799 0.39300
O 	O 	0.73206 0.69538 0.46027 -0.47900
C 	C 	0.87170 0.44697 0.30244 0.03800
H 	H 	0.87850 0.48240 0.30700 0.04200
N 	N 	0.84010 0.29140 0.28174 -0.13400
C 	C 	0.88270 0.37508 0.27423 -0.03500
H 	H 	0.89770 0.36060 0.25950 0.06300
C 	C 	0.62510 0.54398 0.43222 -0.04200
H 	H 	0.61130 0.51320 0.42470 0.05800
C 	C 	0.61566 0.61477 0.46182 -0.03900
H 	H 	0.59520 0.63220 0.47410 0.05800
C 	C 	0.93020 0.46030 0.26641 0.41800
C 	C 	0.82770 0.36447 0.31064 -0.04200
H 	H 	0.80580 0.34270 0.32070 0.06000
C 	C 	0.66665 0.63151 0.45632 -0.10200
C 	C 	0.83820 0.41568 0.31782 -0.08800
O 	O 	0.94673 0.43919 0.24606 -0.46000
C 	C 	0.69668 0.60365 0.43810 0.04200
H 	H 	0.73130 0.61480 0.43410 0.03700
C 	C 	0.84910 0.34525 0.28889 0.07000
C 	C 	0.67573 0.56130 0.42646 -0.09900
C 	C 	0.59582 0.57210 0.44887 0.06900
C 	C 	0.82340 0.27710 0.25646 -0.00300
H 	H 	0.81460 0.30000 0.24310 0.03400
C 	C 	0.53020 0.50770 0.46011 0.00600
H 	H 	0.55340 0.47960 0.46390 0.02700
C 	C 	0.89420 0.42710 0.28135 -0.10000
O 	O 	0.68501 0.49495 0.39634 -0.47300
Zn	Zn	0.22329 0.94460 0.87320 1.19400
O 	O 	0.27730 0.91182 0.85025 -0.47200
C 	C 	0.31290 0.93870 0.83984 0.37400
O 	O 	0.44400 0.00263 0.77417 -0.49900
O 	O 	0.32897 0.98403 0.84728 -0.47400
C 	C 	0.18910 0.17670 0.96935 0.40000
O 	O 	0.16653 0.19525 0.98795 -0.48300
N 	N 	0.04220 0.05683 0.95355 -0.12600
O 	O 	0.25417 0.04599 0.90509 -0.47900
C 	C 	0.20750 0.03210 0.90799 0.39600
O 	O 	0.23206 0.19538 0.96027 -0.48200
C 	C 	0.37170 0.94697 0.80244 0.04200
H 	H 	0.37850 0.98240 0.80700 0.03600
N 	N 	0.34010 0.79140 0.78174 -0.13400
C 	C 	0.38270 0.87508 0.77423 -0.03100
H 	H 	0.39770 0.86060 0.75950 0.05500
C 	C 	0.12510 0.04398 0.93222 -0.03500
H 	H 	0.11130 0.01320 0.92470 0.05100
C 	C 	0.11566 0.11477 0.96182 -0.03300
H 	H 	0.09520 0.13220 0.97410 0.05000
C 	C 	0.43020 0.96030 0.76641 0.42400
C 	C 	0.32770 0.86447 0.81064 -0.03900
H 	H 	0.30580 0.84270 0.82070 0.05700
C 	C 	0.16665 0.13151 0.95632 -0.10900
C 	C 	0.33820 0.91568 0.81782 -0.09500
O 	O 	0.44673 0.93919 0.74606 -0.48300
C 	C 	0.19668 0.10365 0.93810 0.04700
H 	H 	0.23130 0.11480 0.93410 0.03400
C 	C 	0.34910 0.84525 0.78889 0.06300
C 	C 	0.17573 0.06130 0.92646 -0.10600
C 	C 	0.09582 0.07210 0.94887 0.05700
C 	C 	0.32340 0.77710 0.75646 -0.00500
H 	H 	0.31460 0.80000 0.74310 0.03200
C 	C 	0.03020 0.00770 0.96011 -0.05800
H 	H 	0.05340 0.97960 0.96390 0.04000
C 	C 	0.39420 0.92710 0.78135 -0.11100
O 	O 	0.18501 0.99495 0.89634 -0.47700
Zn	Zn	0.19460 0.02671 0.62320 1.19300
O 	O 	0.16182 0.97270 0.60025 -0.47500
C 	C 	0.18870 0.93710 0.58984 0.37500
O 	O 	0.25263 0.80600 0.52417 -0.49900
O 	O 	0.23403 0.92103 0.59728 -0.47500
C 	C 	0.42670 0.06090 0.71935 0.39800
O 	O 	0.44525 0.08347 0.73795 -0.47800
N 	N 	0.30683 0.20780 0.70355 -0.14400
O 	O 	0.29599 0.99583 0.65509 -0.47800
C 	C 	0.28210 0.04250 0.65799 0.39400
O 	O 	0.44538 0.01794 0.71027 -0.48100
C 	C 	0.19697 0.87830 0.55244 0.04500
H 	H 	0.23240 0.87150 0.55700 0.03500
N 	N 	0.04140 0.90990 0.53174 -0.11800
C 	C 	0.12508 0.86730 0.52423 -0.02700
H 	H 	0.11060 0.85230 0.50950 0.05000
C 	C 	0.29398 0.12490 0.68222 -0.04000
H 	H 	0.26320 0.13870 0.67470 0.05600
C 	C 	0.36477 0.13434 0.71182 -0.03800
H 	H 	0.38220 0.15480 0.72410 0.05700
C 	C 	0.21030 0.81980 0.51641 0.42500
C 	C 	0.11447 0.92230 0.56064 -0.03400
H 	H 	0.09270 0.94420 0.57070 0.05000
C 	C 	0.38151 0.08335 0.70632 -0.10400
C 	C 	0.16568 0.91180 0.56782 -0.10000
O 	O 	0.18919 0.80327 0.49606 -0.48600
C 	C 	0.35365 0.05332 0.68810 0.04300
H 	H 	0.36480 0.01870 0.68410 0.03500
C 	C 	0.09525 0.90090 0.53889 0.05300
C 	C 	0.31130 0.07427 0.67646 -0.10100
C 	C 	0.32210 0.15418 0.69887 0.06800
C 	C 	0.02710 0.92660 0.50646 -0.09100
H 	H 	0.05000 0.93540 0.49310 0.05200
C 	C 	0.25770 0.21980 0.71011 0.00500
H 	H 	0.22960 0.19660 0.71390 0.02500
C 	C 	0.17710 0.85580 0.53135 -0.11600
O 	O 	0.24495 0.06499 0.64634 -0.47600
Zn	Zn	0.69460 0.52671 0.12320 1.19500
O 	O 	0.66182 0.47270 0.10025 -0.47000
C 	C 	0.68870 0.43710 0.08984 0.37300
O 	O 	0.75263 0.30600 0.02417 -0.49600
O 	O 	0.73403 0.42103 0.09728 -0.47200
C 	C 	0.92670 0.56090 0.21935 0.39300
O 	O 	0.94525 0.58347 0.23795 -0.45600
N 	N 	0.80683 0.70780 0.20355 -0.14400
O 	O 	0.79599 0.49583 0.15509 -0.47500
C 	C 	0.78210 0.54250 0.15799 0.39300
O 	O 	0.94538 0.51794 0.21027 -0.45800
C 	C 	0.69697 0.37830 0.05244 0.04000
H 	H 	0.73240 0.37150 0.05700 0.03800
N 	N 	0.54140 0.40990 0.03174 -0.13400
C 	C 	0.62508 0.36730 0.02423 -0.03300
H 	H 	0.61060 0.35230 0.00950 0.05600
C 	C 	0.79398 0.62490 0.18222 -0.04400
H 	H 	0.76320 0.63870 0.17470 0.05900
C 	C 	0.86477 0.63434 0.21182 -0.04200
H 	H 	0.88220 0.65480 0.22410 0.06400
C 	C 	0.71030 0.31980 0.01641 0.42300
C 	C 	0.61447 0.42230 0.06064 -0.04000
H 	H 	0.59270 0.44420 0.07070 0.05800
C 	C 	0.88151 0.58335 0.20632 -0.09300
C 	C 	0.66568 0.41180 0.06782 -0.09300
O 	O 	0.68919 0.30327 0.99606 -0.48300
C 	C 	0.85365 0.55332 0.18810 0.03900
H 	H 	0.86480 0.51870 0.18410 0.04100
C 	C 	0.59525 0.40090 0.03889 0.06400
C 	C 	0.81130 0.57427 0.17646 -0.09500
C 	C 	0.82210 0.65418 0.19887 0.07400
C 	C 	0.52710 0.42660 0.00646 -0.00500
H 	H 	0.55000 0.43540 0.99310 0.03200
C 	C 	0.75770 0.71980 0.21011 0.00700
H 	H 	0.72960 0.69660 0.21390 0.02700
C 	C 	0.67710 0.35580 0.03135 -0.11000
O 	O 	0.74495 0.56499 0.14634 -0.47300
Zn	Zn	0.30540 0.97329 0.12320 1.19500
O 	O 	0.33818 0.02730 0.10025 -0.47000
C 	C 	0.31130 0.06290 0.08984 0.37400
O 	O 	0.24737 0.19400 0.02417 -0.50000
O 	O 	0.26597 0.07897 0.09728 -0.47500
C 	C 	0.07330 0.93910 0.21935 0.40000
O 	O 	0.05475 0.91653 0.23795 -0.49300
N 	N 	0.19317 0.79220 0.20355 -0.14400
O 	O 	0.20401 0.00417 0.15509 -0.48100
C 	C 	0.21790 0.95750 0.15799 0.39500
O 	O 	0.05462 0.98206 0.21027 -0.49500
C 	C 	0.30303 0.12170 0.05244 0.04200
H 	H 	0.26760 0.12850 0.05700 0.03500
N 	N 	0.45860 0.09010 0.03174 -0.13400
C 	C 	0.37492 0.13270 0.02423 -0.03100
H 	H 	0.38940 0.14770 0.00950 0.05500
C 	C 	0.20602 0.87510 0.18222 -0.03900
H 	H 	0.23680 0.86130 0.17470 0.05600
C 	C 	0.13523 0.86566 0.21182 -0.03700
H 	H 	0.11780 0.84520 0.22410 0.05200
C 	C 	0.28970 0.18020 0.01641 0.42400
C 	C 	0.38553 0.07770 0.06064 -0.03900
H 	H 	0.40730 0.05580 0.07070 0.05700
C 	C 	0.11849 0.91665 0.20632 -0.11000
C 	C 	0.33432 0.08820 0.06782 -0.09500
O 	O 	0.31081 0.19673 0.99606 -0.48300
C 	C 	0.14635 0.94668 0.18810 0.04500
H 	H 	0.13520 0.98130 0.18410 0.03100
C 	C 	0.40475 0.09910 0.03889 0.06300
C 	C 	0.18870 0.92573 0.17646 -0.10400
C 	C 	0.17790 0.84582 0.19887 0.06500
C 	C 	0.47290 0.07340 0.00646 -0.00500
H 	H 	0.45000 0.06460 0.99310 0.03200
C 	C 	0.24230 0.78020 0.21011 0.00600
H 	H 	0.27040 0.80340 0.21390 0.02700
C 	C 	0.32290 0.14420 0.03135 -0.11200
O 	O 	0.25505 0.93501 0.14634 -0.47400
Zn	Zn	0.80540 0.47329 0.62320 1.19600
O 	O 	0.83818 0.52730 0.60025 -0.46400
C 	C 	0.81130 0.56290 0.58984 0.37300
O 	O 	0.74737 0.69400 0.52417 -0.49700
O 	O 	0.76597 0.57897 0.59728 -0.47200
C 	C 	0.57330 0.43910 0.71935 0.39800
O 	O 	0.55475 0.41653 0.73795 -0.47800
N 	N 	0.69317 0.29220 0.70355 -0.14400
O 	O 	0.70401 0.50417 0.65509 -0.47800
C 	C 	0.71790 0.45750 0.65799 0.39300
O 	O 	0.55462 0.48206 0.71027 -0.48100
C 	C 	0.80303 0.62170 0.55244 0.04000
H 	H 	0.76760 0.62850 0.55700 0.03800
N 	N 	0.95860 0.59010 0.53174 -0.11200
C 	C 	0.87492 0.63270 0.52423 -0.03300
H 	H 	0.88940 0.64770 0.50950 0.06100
C 	C 	0.70602 0.37510 0.68222 -0.04200
H 	H 	0.73680 0.36130 0.67470 0.06000
C 	C 	0.63523 0.36566 0.71182 -0.03900
H 	H 	0.61780 0.34520 0.72410 0.05800
C 	C 	0.78970 0.68020 0.51641 0.42200
C 	C 	0.88553 0.57770 0.56064 -0.04000
H 	H 	0.90730 0.55580 0.57070 0.06800
C 	C 	0.61849 0.41665 0.70632 -0.10300
C 	C 	0.83432 0.58820 0.56782 -0.08900
O 	O 	0.81081 0.69673 0.49606 -0.47900
C 	C 	0.64635 0.44668 0.68810 0.04200
H 	H 	0.63520 0.48130 0.68410 0.03600
C 	C 	0.90475 0.59910 0.53889 0.07200
C 	C 	0.68870 0.42573 0.67646 -0.09900
C 	C 	0.67790 0.34582 0.69887 0.07000
C 	C 	0.97290 0.57340 0.50646 0.08300
H 	H 	0.95000 0.56460 0.49310 0.01300
C 	C 	0.74230 0.28020 0.71011 0.00700
H 	H 	0.77040 0.30340 0.71390 0.02900
C 	C 	0.82290 0.64420 0.53135 -0.10700
O 	O 	0.75505 0.43501 0.64634 -0.47100
Zn	Zn	0.72329 0.55540 0.62680 1.19500
O 	O 	0.77730 0.58818 0.64975 -0.46900
C 	C 	0.81290 0.56130 0.66016 0.37200
O 	O 	0.94400 0.49737 0.72583 -0.47600
O 	O 	0.82897 0.51597 0.65272 -0.46900
C 	C 	0.68910 0.32330 0.53065 0.39700
O 	O 	0.66653 0.30475 0.51205 -0.47800
N 	N 	0.54220 0.44317 0.54645 -0.14400
O 	O 	0.75417 0.45401 0.59491 -0.47700
C 	C 	0.70750 0.46790 0.59201 0.39300
O 	O 	0.73206 0.30462 0.53973 -0.47900
C 	C 	0.87170 0.55303 0.69756 0.03800
H 	H 	0.87850 0.51760 0.69300 0.04200
N 	N 	0.84010 0.70860 0.71826 -0.13400
C 	C 	0.88270 0.62492 0.72577 -0.03500
H 	H 	0.89770 0.63940 0.74050 0.06300
C 	C 	0.62510 0.45602 0.56778 -0.04200
H 	H 	0.61130 0.48680 0.57530 0.05800
C 	C 	0.61566 0.38523 0.53818 -0.03900
H 	H 	0.59520 0.36780 0.52590 0.05800
C 	C 	0.93020 0.53970 0.73359 0.41800
C 	C 	0.82770 0.63553 0.68936 -0.04200
H 	H 	0.80580 0.65730 0.67930 0.06000
C 	C 	0.66665 0.36849 0.54368 -0.10200
C 	C 	0.83820 0.58432 0.68218 -0.08800
O 	O 	0.94673 0.56081 0.75394 -0.46000
C 	C 	0.69668 0.39635 0.56190 0.04200
H 	H 	0.73130 0.38520 0.56590 0.03700
C 	C 	0.84910 0.65475 0.71111 0.07000
C 	C 	0.67573 0.43870 0.57354 -0.09900
C 	C 	0.59582 0.42790 0.55113 0.06900
C 	C 	0.82340 0.72290 0.74354 -0.00300
H 	H 	0.81460 0.70000 0.75690 0.03400
C 	C 	0.53020 0.49230 0.53989 0.00600
H 	H 	0.55340 0.52040 0.53610 0.02700
C 	C 	0.89420 0.57290 0.71865 -0.10000
O 	O 	0.68501 0.50505 0.60366 -0.47300
Zn	Zn	0.22329 0.05540 0.12680 1.19400
O 	O 	0.27730 0.08818 0.14975 -0.47200
C 	C 	0.31290 0.06130 0.16016 0.37400
O 	O 	0.44400 0.99737 0.22583 -0.49900
O 	O 	0.32897 0.01597 0.15272 -0.47400
C 	C 	0.18910 0.82330 0.03065 0.40000
O 	O 	0.16653 0.80475 0.01205 -0.48300
N 	N 	0.04220 0.94317 0.04645 -0.12600
O 	O 	0.25417 0.95401 0.09491 -0.47900
C 	C 	0.20750 0.96790 0.09201 0.39600
O 	O 	0.23206 0.80462 0.03973 -0.48200
C 	C 	0.37170 0.05303 0.19756 0.04200
H 	H 	0.37850 0.01760 0.19300 0.03600
N 	N 	0.34010 0.20860 0.21826 -0.13400
C 	C 	0.38270 0.12492 0.22577 -0.03100
H 	H 	0.39770 0.13940 0.24050 0.05500
C 	C 	0.12510 0.95602 0.06778 -0.03500
H 	H 	0.11130 0.98680 0.07530 0.05100
C 	C 	0.11566 0.88523 0.03818 -0.03300
H 	H 	0.09520 0.86780 0.02590 0.05000
C 	C 	0.43020 0.03970 0.23359 0.42400
C 	C 	0.32770 0.13553 0.18936 -0.03900
H 	H 	0.30580 0.15730 0.17930 0.05700
C 	C 	0.16665 0.86849 0.04368 -0.10900
C 	C 	0.33820 0.08432 0.18218 -0.09500
O 	O 	0.44673 0.06081 0.25394 -0.48300
C 	C 	0.19668 0.89635 0.06190 0.04700
H 	H 	0.23130 0.88520 0.06590 0.03400
C 	C 	0.34910 0.15475 0.21111 0.06300
C 	C 	0.17573 0.93870 0.07354 -0.10600
C 	C 	0.09582 0.92790 0.05113 0.05700
C 	C 	0.32340 0.22290 0.24354 -0.00500
H 	H 	0.31460 0.20000 0.25690 0.03200
C 	C 	0.03020 0.99230 0.03989 -0.05800
H 	H 	0.05340 0.02040 0.03610 0.04000
C 	C 	0.39420 0.07290 0.21865 -0.11100
O 	O 	0.18501 0.00505 0.10366 -0.47700
Zn	Zn	0.77671 0.44460 0.12680 1.19600
O 	O 	0.72270 0.41182 0.14975 -0.46800
C 	C 	0.68710 0.43870 0.16016 0.37300
O 	O 	0.55600 0.50263 0.22583 -0.49800
O 	O 	0.67103 0.48403 0.15272 -0.47400
C 	C 	0.81090 0.67670 0.03065 0.39700
O 	O 	0.83347 0.69525 0.01205 -0.47300
N 	N 	0.95780 0.55683 0.04645 -0.12100
O 	O 	0.74583 0.54599 0.09491 -0.47800
C 	C 	0.79250 0.53210 0.09201 0.39300
O 	O 	0.76794 0.69538 0.03973 -0.47900
C 	C 	0.62830 0.44697 0.19756 0.04100
H 	H 	0.62150 0.48240 0.19300 0.03700
N 	N 	0.65990 0.29140 0.21826 -0.13400
C 	C 	0.61730 0.37508 0.22577 -0.03200
H 	H 	0.60230 0.36060 0.24050 0.05600
C 	C 	0.87490 0.54398 0.06778 -0.04300
H 	H 	0.88870 0.51320 0.07530 0.06400
C 	C 	0.88434 0.61477 0.03818 -0.03900
H 	H 	0.90480 0.63220 0.02590 0.06800
C 	C 	0.56980 0.46030 0.23359 0.42300
C 	C 	0.67230 0.36447 0.18936 -0.04000
H 	H 	0.69420 0.34270 0.17930 0.05900
C 	C 	0.83335 0.63151 0.04368 -0.09800
C 	C 	0.66180 0.41568 0.18218 -0.09400
O 	O 	0.55327 0.43919 0.25394 -0.48300
C 	C 	0.80332 0.60365 0.06190 0.04100
H 	H 	0.76870 0.61480 0.06590 0.03700
C 	C 	0.65090 0.34525 0.21111 0.06400
C 	C 	0.82427 0.56130 0.07354 -0.09600
C 	C 	0.90418 0.57210 0.05113 0.07700
C 	C 	0.67660 0.27710 0.24354 -0.00400
H 	H 	0.68540 0.30000 0.25690 0.03200
C 	C 	0.96980 0.50770 0.03989 0.07200
H 	H 	0.94660 0.47960 0.03610 0.01600
C 	C 	0.60580 0.42710 0.21865 -0.11100
O 	O 	0.81499 0.49495 0.10366 -0.46900
Zn	Zn	0.27671 0.94460 0.62680 1.19500
O 	O 	0.22270 0.91182 0.64975 -0.47100
C 	C 	0.18710 0.93870 0.66016 0.37400
O 	O 	0.05600 0.00263 0.72583 -0.51200
O 	O 	0.17103 0.98403 0.65272 -0.47800
C 	C 	0.31090 0.17670 0.53065 0.39800
O 	O 	0.33347 0.19525 0.51205 -0.47800
N 	N 	0.45780 0.05683 0.54645 -0.14400
O 	O 	0.24583 0.04599 0.59491 -0.48000
C 	C 	0.29250 0.03210 0.59201 0.39500
O 	O 	0.26794 0.19538 0.53973 -0.48200
C 	C 	0.12830 0.94697 0.69756 0.04400
H 	H 	0.12150 0.98240 0.69300 0.03200
N 	N 	0.15990 0.79140 0.71826 -0.13400
C 	C 	0.11730 0.87508 0.72577 -0.03000
H 	H 	0.10230 0.86060 0.74050 0.04900
C 	C 	0.37490 0.04398 0.56778 -0.04100
H 	H 	0.38870 0.01320 0.57530 0.05700
C 	C 	0.38434 0.11477 0.53818 -0.03800
H 	H 	0.40480 0.13220 0.52590 0.05700
C 	C 	0.06980 0.96030 0.73359 0.42600
C 	C 	0.17230 0.86447 0.68936 -0.03800
H 	H 	0.19420 0.84270 0.67930 0.05600
C 	C 	0.33335 0.13151 0.54368 -0.10400
C 	C 	0.16180 0.91568 0.68218 -0.10000
O 	O 	0.05327 0.93919 0.75394 -0.49700
C 	C 	0.30332 0.10365 0.56190 0.04300
H 	H 	0.26870 0.11480 0.56590 0.03400
C 	C 	0.15090 0.84525 0.71111 0.05900
C 	C 	0.32427 0.06130 0.57354 -0.10100
C 	C 	0.40418 0.07210 0.55113 0.06800
C 	C 	0.17660 0.77710 0.74354 -0.00700
H 	H 	0.18540 0.80000 0.75690 0.03100
C 	C 	0.46980 0.00770 0.53989 0.00600
H 	H 	0.44660 0.97960 0.53610 0.02700
C 	C 	0.10580 0.92710 0.71865 -0.11900
O 	O 	0.31499 0.99495 0.60366 -0.47400
Zn	Zn	0.30540 0.02671 0.87680 1.19500
O 	O 	0.33818 0.97270 0.89975 -0.47000
C 	C 	0.31130 0.93710 0.91016 0.37400
O 	O 	0.24737 0.80600 0.97583 -0.50000
O 	O 	0.26597 0.92103 0.90272 -0.47500
C 	C 	0.07330 0.06090 0.78065 0.40000
O 	O 	0.05475 0.08347 0.76205 -0.49300
N 	N 	0.19317 0.20780 0.79645 -0.14400
O 	O 	0.20401 0.99583 0.84491 -0.48100
C 	C 	0.21790 0.04250 0.84201 0.39500
O 	O 	0.05462 0.01794 0.78973 -0.49500
C 	C 	0.30303 0.87830 0.94756 0.04200
H 	H 	0.26760 0.87150 0.94300 0.03500
N 	N 	0.45860 0.90990 0.96826 -0.13400
C 	C 	0.37492 0.86730 0.97577 -0.03100
H 	H 	0.38940 0.85230 0.99050 0.05500
C 	C 	0.20602 0.12490 0.81778 -0.03900
H 	H 	0.23680 0.13870 0.82530 0.05600
C 	C 	0.13523 0.13434 0.78818 -0.03700
H 	H 	0.11780 0.15480 0.77590 0.05200
C 	C 	0.28970 0.81980 0.98359 0.42400
C 	C 	0.38553 0.92230 0.93936 -0.03900
H 	H 	0.40730 0.94420 0.92930 0.05700
C 	C 	0.11849 0.08335 0.79368 -0.11000
C 	C 	0.33432 0.91180 0.93218 -0.09500
O 	O 	0.31081 0.80327 0.00394 -0.48300
C 	C 	0.14635 0.05332 0.81190 0.04500
H 	H 	0.13520 0.01870 0.81590 0.03100
C 	C 	0.40475 0.90090 0.96111 0.06300
C 	C 	0.18870 0.07427 0.82354 -0.10400
C 	C 	0.17790 0.15418 0.80113 0.06500
C 	C 	0.47290 0.92660 0.99354 -0.00500
H 	H 	0.45000 0.93540 0.00690 0.03200
C 	C 	0.24230 0.21980 0.78989 0.00600
H 	H 	0.27040 0.19660 0.78610 0.02700
C 	C 	0.32290 0.85580 0.96865 -0.11200
O 	O 	0.25505 0.06499 0.85366 -0.47400
Zn	Zn	0.80540 0.52671 0.37680 1.19600
O 	O 	0.83818 0.47270 0.39975 -0.46400
C 	C 	0.81130 0.43710 0.41016 0.37300
O 	O 	0.74737 0.30600 0.47583 -0.49700
O 	O 	0.76597 0.42103 0.40272 -0.47200
C 	C 	0.57330 0.56090 0.28065 0.39800
O 	O 	0.55475 0.58347 0.26205 -0.47800
N 	N 	0.69317 0.70780 0.29645 -0.14400
O 	O 	0.70401 0.49583 0.34491 -0.47800
C 	C 	0.71790 0.54250 0.34201 0.39300
O 	O 	0.55462 0.51794 0.28973 -0.48100
C 	C 	0.80303 0.37830 0.44756 0.04000
H 	H 	0.76760 0.37150 0.44300 0.03800
N 	N 	0.95860 0.40990 0.46826 -0.11200
C 	C 	0.87492 0.36730 0.47577 -0.03300
H 	H 	0.88940 0.35230 0.49050 0.06100
C 	C 	0.70602 0.62490 0.31778 -0.04200
H 	H 	0.73680 0.63870 0.32530 0.06000
C 	C 	0.63523 0.63434 0.28818 -0.03900
H 	H 	0.61780 0.65480 0.27590 0.05800
C 	C 	0.78970 0.31980 0.48359 0.42200
C 	C 	0.88553 0.42230 0.43936 -0.04000
H 	H 	0.90730 0.44420 0.42930 0.06800
C 	C 	0.61849 0.58335 0.29368 -0.10300
C 	C 	0.83432 0.41180 0.43218 -0.08900
O 	O 	0.81081 0.30327 0.50394 -0.47900
C 	C 	0.64635 0.55332 0.31190 0.04200
H 	H 	0.63520 0.51870 0.31590 0.03600
C 	C 	0.90475 0.40090 0.46111 0.07200
C 	C 	0.68870 0.57427 0.32354 -0.09900
C 	C 	0.67790 0.65418 0.30113 0.07000
C 	C 	0.97290 0.42660 0.49354 0.08300
H 	H 	0.95000 0.43540 0.50690 0.01300
C 	C 	0.74230 0.71980 0.28989 0.00700
H 	H 	0.77040 0.69660 0.28610 0.02900
C 	C 	0.82290 0.35580 0.46865 -0.10700
O 	O 	0.75505 0.56499 0.35366 -0.47100
Zn	Zn	0.19460 0.97329 0.37680 1.19300
O 	O 	0.16182 0.02730 0.39975 -0.47500
C 	C 	0.18870 0.06290 0.41016 0.37500
O 	O 	0.25263 0.19400 0.47583 -0.49900
O 	O 	0.23403 0.07897 0.40272 -0.47500
C 	C 	0.42670 0.93910 0.28065 0.39800
O 	O 	0.44525 0.91653 0.26205 -0.47800
N 	N 	0.30683 0.79220 0.29645 -0.14400
O 	O 	0.29599 0.00417 0.34491 -0.47800
C 	C 	0.28210 0.95750 0.34201 0.39400
O 	O 	0.44538 0.98206 0.28973 -0.48100
C 	C 	0.19697 0.12170 0.44756 0.04500
H 	H 	0.23240 0.12850 0.44300 0.03500
N 	N 	0.04140 0.09010 0.46826 -0.11800
C 	C 	0.12508 0.13270 0.47577 -0.02700
H 	H 	0.11060 0.14770 0.49050 0.05000
C 	C 	0.29398 0.87510 0.31778 -0.04000
H 	H 	0.26320 0.86130 0.32530 0.05600
C 	C 	0.36477 0.86566 0.28818 -0.03800
H 	H 	0.38220 0.84520 0.27590 0.05700
C 	C 	0.21030 0.18020 0.48359 0.42500
C 	C 	0.11447 0.07770 0.43936 -0.03400
H 	H 	0.09270 0.05580 0.42930 0.05000
C 	C 	0.38151 0.91665 0.29368 -0.10400
C 	C 	0.16568 0.08820 0.43218 -0.10000
O 	O 	0.18919 0.19673 0.50394 -0.48600
C 	C 	0.35365 0.94668 0.31190 0.04300
H 	H 	0.36480 0.98130 0.31590 0.03500
C 	C 	0.09525 0.09910 0.46111 0.05300
C 	C 	0.31130 0.92573 0.32354 -0.10100
C 	C 	0.32210 0.84582 0.30113 0.06800
C 	C 	0.02710 0.07340 0.49354 -0.09100
H 	H 	0.05000 0.06460 0.50690 0.05200
C 	C 	0.25770 0.78020 0.28989 0.00500
H 	H 	0.22960 0.80340 0.28610 0.02500
C 	C 	0.17710 0.14420 0.46865 -0.11600
O 	O 	0.24495 0.93501 0.35366 -0.47600
Zn	Zn	0.69460 0.47329 0.87680 1.19500
O 	O 	0.66182 0.52730 0.89975 -0.47000
C 	C 	0.68870 0.56290 0.91016 0.37300
O 	O 	0.75263 0.69400 0.97583 -0.49600
O 	O 	0.73403 0.57897 0.90272 -0.47200
C 	C 	0.92670 0.43910 0.78065 0.39300
O 	O 	0.94525 0.41653 0.76205 -0.45600
N 	N 	0.80683 0.29220 0.79645 -0.14400
O 	O 	0.79599 0.50417 0.84491 -0.47500
C 	C 	0.78210 0.45750 0.84201 0.39300
O 	O 	0.94538 0.48206 0.78973 -0.45800
C 	C 	0.69697 0.62170 0.94756 0.04000
H 	H 	0.73240 0.62850 0.94300 0.03800
N 	N 	0.54140 0.59010 0.96826 -0.13400
C 	C 	0.62508 0.63270 0.97577 -0.03300
H 	H 	0.61060 0.64770 0.99050 0.05600
C 	C 	0.79398 0.37510 0.81778 -0.04400
H 	H 	0.76320 0.36130 0.82530 0.05900
C 	C 	0.86477 0.36566 0.78818 -0.04200
H 	H 	0.88220 0.34520 0.77590 0.06400
C 	C 	0.71030 0.68020 0.98359 0.42300
C 	C 	0.61447 0.57770 0.93936 -0.04000
H 	H 	0.59270 0.55580 0.92930 0.05800
C 	C 	0.88151 0.41665 0.79368 -0.09300
C 	C 	0.66568 0.58820 0.93218 -0.09300
O 	O 	0.68919 0.69673 0.00394 -0.48300
C 	C 	0.85365 0.44668 0.81190 0.03900
H 	H 	0.86480 0.48130 0.81590 0.04100
C 	C 	0.59525 0.59910 0.96111 0.06400
C 	C 	0.81130 0.42573 0.82354 -0.09500
C 	C 	0.82210 0.34582 0.80113 0.07400
C 	C 	0.52710 0.57340 0.99354 -0.00500
H 	H 	0.55000 0.56460 0.00690 0.03200
C 	C 	0.75770 0.28020 0.78989 0.00700
H 	H 	0.72960 0.30340 0.78610 0.02700
C 	C 	0.67710 0.64420 0.96865 -0.11000
O 	O 	0.74495 0.43501 0.85366 -0.47300
Zn	Zn	0.28215 0.75000 0.02747 1.20400
Zn	Zn	0.19680 0.75000 0.98908 1.19900
Zn	Zn	0.21785 0.25000 0.52747 1.20300
Zn	Zn	0.30320 0.25000 0.48908 1.20000
Zn	Zn	0.50000 0.03215 0.27747 1.20400
Zn	Zn	0.50000 0.94680 0.23908 1.20000
Zn	Zn	0.00000 0.53215 0.77747 1.18800
Zn	Zn	0.00000 0.44680 0.73908 1.18500
Zn	Zn	-0.00000 0.96785 0.77747 1.18900
Zn	Zn	0.00000 0.05320 0.73908 1.18500
Zn	Zn	0.50000 0.46785 0.27747 1.20400
Zn	Zn	0.50000 0.55320 0.23908 1.20000
Zn	Zn	0.21785 0.75000 0.47253 1.20300
Zn	Zn	0.30320 0.75000 0.51092 1.20000
Zn	Zn	0.28215 0.25000 0.97253 1.20400
Zn	Zn	0.19680 0.25000 0.01092 1.19900
Zn	Zn	0.00000 0.03215 0.22253 1.18900
Zn	Zn	0.00000 0.94680 0.26092 1.18500
Zn	Zn	0.50000 0.53215 0.72253 1.20400
Zn	Zn	0.50000 0.44680 0.76092 1.20000
Zn	Zn	0.50000 0.96785 0.72253 1.20400
Zn	Zn	0.50000 0.05320 0.76092 1.20000
Zn	Zn	0.00000 0.46785 0.22253 1.18800
Zn	Zn	0.00000 0.55320 0.26092 1.18500
Zn	Zn	0.71785 0.25000 0.97253 1.20400
Zn	Zn	0.80320 0.25000 0.01092 1.20200
Zn	Zn	0.78215 0.75000 0.47253 1.20500
Zn	Zn	0.69680 0.75000 0.51092 1.20000
Zn	Zn	0.78215 0.25000 0.52747 1.20500
Zn	Zn	0.69680 0.25000 0.48908 1.20000
Zn	Zn	0.71785 0.75000 0.02747 1.20400
Zn	Zn	0.80320 0.75000 0.98908 1.20200
C 	C 	0.34910 0.25000 0.20462 0.10300
H 	H 	0.36030 0.25000 0.18770 0.00200
C 	C 	0.15090 0.75000 0.70462 0.10000
H 	H 	0.13970 0.75000 0.68770 -0.00100
C 	C 	0.00000 0.09910 0.45462 0.04300
H 	H 	0.00000 0.11030 0.43770 0.00700
C 	C 	0.50000 0.59910 0.95462 0.10400
H 	H 	0.50000 0.61030 0.93770 0.00300
C 	C 	0.50000 0.90090 0.95462 0.10400
H 	H 	0.50000 0.88970 0.93770 0.00300
C 	C 	-0.00000 0.40090 0.45462 0.04300
H 	H 	0.00000 0.38970 0.43770 0.00700
C 	C 	0.15090 0.25000 0.29538 0.10000
H 	H 	0.13970 0.25000 0.31230 -0.00100
C 	C 	0.34910 0.75000 0.79538 0.10300
H 	H 	0.36030 0.75000 0.81230 0.00200
C 	C 	0.84910 0.25000 0.29538 0.10700
H 	H 	0.86030 0.25000 0.31230 0.00700
C 	C 	0.50000 0.09910 0.04538 0.10400
H 	H 	0.50000 0.11030 0.06230 0.00300
C 	C 	-0.00000 0.59910 0.54538 0.04300
H 	H 	0.00000 0.61030 0.56230 0.00700
C 	C 	-0.00000 0.90090 0.54538 0.04300
H 	H 	0.00000 0.88970 0.56230 0.00700
C 	C 	0.50000 0.40090 0.04538 0.10400
H 	H 	0.50000 0.38970 0.06230 0.00300
C 	C 	0.65090 0.75000 0.79538 0.10400
H 	H 	0.63970 0.75000 0.81230 0.00300
C 	C 	0.84910 0.75000 0.70462 0.10700
H 	H 	0.86030 0.75000 0.68770 0.00700
C 	C 	0.65090 0.25000 0.20462 0.10400
H 	H 	0.63970 0.25000 0.18770 0.00300
C 	C 	0.00000 0.58350 0.04957 0.05300
H 	H 	0.00000 0.61980 0.05380 0.00500
C 	C 	0.50000 0.08350 0.54957 0.11700
H 	H 	0.50000 0.11980 0.55380 -0.00100
C 	C 	0.50000 0.41650 0.54957 0.11700
H 	H 	0.50000 0.38020 0.55380 -0.00100
C 	C 	-0.00000 0.91650 0.04957 0.05300
H 	H 	0.00000 0.88020 0.05380 0.00400
C 	C 	0.66650 0.75000 0.29957 0.11700
H 	H 	0.63020 0.75000 0.30380 -0.00100
C 	C 	0.83350 0.25000 0.79957 0.11800
H 	H 	0.86980 0.25000 0.80380 0.00500
C 	C 	0.50000 0.58350 0.45043 0.11700
H 	H 	0.50000 0.61980 0.44620 -0.00100
C 	C 	-0.00000 0.08350 0.95043 0.05300
H 	H 	-0.00000 0.11980 0.94620 0.00400
C 	C 	-0.00000 0.41650 0.95043 0.05300
H 	H 	-0.00000 0.38020 0.94620 0.00500
C 	C 	0.50000 0.91650 0.45043 0.11700
H 	H 	0.50000 0.88020 0.44620 -0.00100
C 	C 	0.83350 0.75000 0.20043 0.11800
H 	H 	0.86980 0.75000 0.19620 0.00500
C 	C 	0.66650 0.25000 0.70043 0.11700
H 	H 	0.63020 0.25000 0.69620 -0.00100
C 	C 	0.33350 0.25000 0.70043 0.11600
H 	H 	0.36980 0.25000 0.69620 -0.00000
C 	C 	0.16650 0.75000 0.20043 0.11500
H 	H 	0.13020 0.75000 0.19620 -0.00600
C 	C 	0.16650 0.25000 0.79957 0.11500
H 	H 	0.13020 0.25000 0.80380 -0.00600
C 	C 	0.33350 0.75000 0.29957 0.11600
H 	H 	0.36980 0.75000 0.30380 -0.00000
