data_crystal

_cell_length_a 25.41170
_cell_length_b 25.41170
_cell_length_c 52.16200
_cell_angle_alpha 90.00000
_cell_angle_beta  90.00000
_cell_angle_gamma 90.00000

_symmetry_space_group_name_	'P 1'
_symmetry_space_group_name_H-M	'P 1'

loop_
_symmetry_equiv_pos_as_xyz
  x,y,z

loop_
_atom_site_label
_atom_site_type_symbol
_atom_site_fract_x
_atom_site_fract_y
_atom_site_fract_z
_atom_site_charge
Cu	Cu	0.22338 0.45168 0.12614 0.90400
O 	O 	0.20018 0.49879 0.15465 -0.40700
O 	O 	0.05403 0.58012 0.24114 -0.41300
O 	O 	0.05402 0.51681 0.21126 -0.42100
O 	O 	0.05347 0.43708 0.24605 -0.42200
O 	O 	0.05413 0.49874 0.27633 -0.41900
C 	C 	0.21653 0.54418 0.15877 0.35700
C 	C 	0.16658 0.41510 0.31700 -0.05800
C 	C 	0.18853 0.57593 0.17816 -0.07200
C 	C 	0.14349 0.55620 0.18993 0.01500
H 	H 	0.13080 0.52260 0.18490 0.05300
C 	C 	0.11711 0.58301 0.20826 -0.07300
C 	C 	0.07128 0.55852 0.22131 0.35600
C 	C 	0.06913 0.45581 0.26663 0.36100
C 	C 	0.10810 0.42441 0.28153 -0.07000
C 	C 	0.12057 0.37507 0.27385 -0.06000
H 	H 	0.10460 0.36020 0.25910 0.06700
C 	C 	0.15722 0.34639 0.28806 0.08200
C 	C 	0.17941 0.36608 0.30939 -0.06900
H 	H 	0.20380 0.34570 0.31900 0.07200
C 	C 	0.13054 0.44431 0.30337 0.00600
H 	H 	0.12110 0.47850 0.30910 0.05400
N 	N 	0.16684 0.29248 0.28025 -0.13000
C 	C 	0.18080 0.27626 0.25538 0.00100
H 	H 	0.18870 0.29850 0.24130 0.03500
C 	C 	0.13381 0.63391 0.21470 -0.05900
H 	H 	0.11610 0.65380 0.22750 0.06500
C 	C 	0.17648 0.65415 0.20197 0.07900
C 	C 	0.20424 0.62647 0.18410 -0.05800
H 	H 	0.23390 0.64170 0.17590 0.07000
N 	N 	0.19322 0.70835 0.20725 -0.13800
C 	C 	0.24211 0.72347 0.21478 0.00600
H 	H 	0.27070 0.70110 0.21920 0.03400
C 	C 	0.19313 0.44037 0.33990 0.35000
O 	O 	0.23126 0.41611 0.34956 -0.40700
O 	O 	0.17518 0.48385 0.34728 -0.40800
O 	O 	0.25538 0.56588 0.14783 -0.40800
Cu	Cu	0.72338 0.95168 0.62614 0.90500
O 	O 	0.70018 0.99879 0.65465 -0.40400
O 	O 	0.55403 0.08012 0.74114 -0.40300
O 	O 	0.55402 0.01681 0.71126 -0.41100
O 	O 	0.55347 0.93708 0.74605 -0.41100
O 	O 	0.55413 0.99874 0.77633 -0.40800
C 	C 	0.71653 0.04418 0.65877 0.35500
C 	C 	0.66658 0.91510 0.81700 -0.05200
C 	C 	0.68853 0.07593 0.67816 -0.06600
C 	C 	0.64349 0.05620 0.68993 0.01300
H 	H 	0.63080 0.02260 0.68490 0.05700
C 	C 	0.61711 0.08301 0.70826 -0.06600
C 	C 	0.57128 0.05852 0.72131 0.35500
C 	C 	0.56913 0.95581 0.76663 0.36100
C 	C 	0.60810 0.92441 0.78153 -0.06200
C 	C 	0.62057 0.87507 0.77385 -0.06100
H 	H 	0.60460 0.86020 0.75910 0.07300
C 	C 	0.65722 0.84639 0.78806 0.08800
C 	C 	0.67941 0.86608 0.80939 -0.07000
H 	H 	0.70380 0.84570 0.81900 0.07500
C 	C 	0.63054 0.94431 0.80337 0.00400
H 	H 	0.62110 0.97850 0.80910 0.06000
N 	N 	0.66684 0.79248 0.78025 -0.12900
C 	C 	0.68080 0.77626 0.75538 0.00400
H 	H 	0.68870 0.79850 0.74130 0.03700
C 	C 	0.63381 0.13391 0.71470 -0.06100
H 	H 	0.61610 0.15380 0.72750 0.07100
C 	C 	0.67648 0.15415 0.70197 0.08400
C 	C 	0.70424 0.12647 0.68410 -0.06000
H 	H 	0.73390 0.14170 0.67590 0.07300
N 	N 	0.69322 0.20835 0.70725 -0.13700
C 	C 	0.74211 0.22347 0.71478 0.00800
H 	H 	0.77070 0.20110 0.71920 0.03600
C 	C 	0.69313 0.94037 0.83990 0.35000
O 	O 	0.73126 0.91611 0.84956 -0.40400
O 	O 	0.67518 0.98385 0.84728 -0.40400
O 	O 	0.75538 0.06588 0.64783 -0.40400
Cu	Cu	0.27662 0.54832 0.62614 0.90600
O 	O 	0.29982 0.50121 0.65465 -0.40400
O 	O 	0.44597 0.41988 0.74114 -0.40200
O 	O 	0.44598 0.48319 0.71126 -0.41000
O 	O 	0.44653 0.56292 0.74605 -0.41100
O 	O 	0.44587 0.50126 0.77633 -0.40900
C 	C 	0.28347 0.45582 0.65877 0.35700
C 	C 	0.33342 0.58490 0.81700 -0.05300
C 	C 	0.31147 0.42407 0.67816 -0.06800
C 	C 	0.35651 0.44380 0.68993 0.01500
H 	H 	0.36920 0.47740 0.68490 0.05700
C 	C 	0.38289 0.41699 0.70826 -0.06700
C 	C 	0.42872 0.44148 0.72131 0.35600
C 	C 	0.43087 0.54419 0.76663 0.36100
C 	C 	0.39190 0.57559 0.78153 -0.06300
C 	C 	0.37943 0.62493 0.77385 -0.06000
H 	H 	0.39540 0.63980 0.75910 0.07300
C 	C 	0.34278 0.65361 0.78806 0.08700
C 	C 	0.32059 0.63392 0.80939 -0.06900
H 	H 	0.29620 0.65430 0.81900 0.07300
C 	C 	0.36946 0.55569 0.80337 0.00500
H 	H 	0.37890 0.52150 0.80910 0.05900
N 	N 	0.33316 0.70752 0.78025 -0.12900
C 	C 	0.31920 0.72374 0.75538 0.00300
H 	H 	0.31130 0.70150 0.74130 0.03700
C 	C 	0.36619 0.36609 0.71470 -0.06000
H 	H 	0.38390 0.34620 0.72750 0.07000
C 	C 	0.32352 0.34585 0.70197 0.08200
C 	C 	0.29576 0.37353 0.68410 -0.05800
H 	H 	0.26610 0.35830 0.67590 0.07000
N 	N 	0.30678 0.29165 0.70725 -0.13700
C 	C 	0.25789 0.27653 0.71478 0.00700
H 	H 	0.22930 0.29890 0.71920 0.03300
C 	C 	0.30687 0.55963 0.83990 0.35100
O 	O 	0.26874 0.58389 0.84956 -0.40700
O 	O 	0.32482 0.51615 0.84728 -0.40400
O 	O 	0.24462 0.43412 0.64783 -0.40700
Cu	Cu	0.77662 0.04832 0.12614 0.90700
O 	O 	0.79982 0.00121 0.15465 -0.40100
O 	O 	0.94597 0.91988 0.24114 -0.38400
O 	O 	0.94598 0.98319 0.21126 -0.39200
O 	O 	0.94653 0.06292 0.24605 -0.39300
O 	O 	0.94587 0.00126 0.27633 -0.39000
C 	C 	0.78347 0.95582 0.15877 0.35500
C 	C 	0.83342 0.08490 0.31700 -0.04700
C 	C 	0.81147 0.92407 0.17816 -0.06300
C 	C 	0.85651 0.94380 0.18993 0.01100
H 	H 	0.86920 0.97740 0.18490 0.06100
C 	C 	0.88289 0.91699 0.20826 -0.05800
C 	C 	0.92872 0.94148 0.22131 0.35100
C 	C 	0.93087 0.04419 0.26663 0.35700
C 	C 	0.89190 0.07559 0.28153 -0.05400
C 	C 	0.87943 0.12493 0.27385 -0.06400
H 	H 	0.89540 0.13980 0.25910 0.07900
C 	C 	0.84278 0.15361 0.28806 0.09200
C 	C 	0.82059 0.13392 0.30939 -0.07300
H 	H 	0.79620 0.15430 0.31900 0.07600
C 	C 	0.86946 0.05569 0.30337 0.00100
H 	H 	0.87890 0.02150 0.30910 0.06400
N 	N 	0.83316 0.20752 0.28025 -0.12900
C 	C 	0.81920 0.22374 0.25538 0.00500
H 	H 	0.81130 0.20150 0.24130 0.03800
C 	C 	0.86619 0.86609 0.21470 -0.06300
H 	H 	0.88390 0.84620 0.22750 0.07600
C 	C 	0.82352 0.84585 0.20197 0.08700
C 	C 	0.79576 0.87353 0.18410 -0.06100
H 	H 	0.76610 0.85830 0.17590 0.07300
N 	N 	0.80678 0.79165 0.20725 -0.13700
C 	C 	0.75789 0.77653 0.21478 0.00800
H 	H 	0.72930 0.79890 0.21920 0.03500
C 	C 	0.80687 0.05963 0.33990 0.34900
O 	O 	0.76874 0.08389 0.34956 -0.40400
O 	O 	0.82482 0.01615 0.34728 -0.40000
O 	O 	0.74462 0.93412 0.14783 -0.40500
Cu	Cu	0.79832 0.97338 0.37614 0.90700
O 	O 	0.75121 0.95018 0.40465 -0.40300
O 	O 	0.66988 0.80403 0.49114 -0.40200
O 	O 	0.73319 0.80402 0.46126 -0.40900
O 	O 	0.81292 0.80347 0.49605 -0.40800
O 	O 	0.75126 0.80413 0.52633 -0.40800
C 	C 	0.70582 0.96653 0.40877 0.35500
C 	C 	0.83490 0.91658 0.56700 -0.04700
C 	C 	0.67407 0.93853 0.42816 -0.06600
C 	C 	0.69380 0.89349 0.43993 0.01300
H 	H 	0.72740 0.88080 0.43490 0.05800
C 	C 	0.66699 0.86711 0.45826 -0.06500
C 	C 	0.69148 0.82128 0.47131 0.35500
C 	C 	0.79419 0.81913 0.51663 0.36000
C 	C 	0.82559 0.85810 0.53153 -0.05800
C 	C 	0.87493 0.87057 0.52385 -0.06400
H 	H 	0.88980 0.85460 0.50910 0.07800
C 	C 	0.90361 0.90722 0.53806 0.09600
C 	C 	0.88392 0.92941 0.55939 -0.07300
H 	H 	0.90430 0.95380 0.56900 0.08300
C 	C 	0.80569 0.88054 0.55337 0.00200
H 	H 	0.77150 0.87110 0.55910 0.06100
N 	N 	0.95752 0.91684 0.53025 -0.11800
C 	C 	0.97374 0.93080 0.50538 0.08100
H 	H 	0.95150 0.93870 0.49130 0.01800
C 	C 	0.61609 0.88381 0.46470 -0.06100
H 	H 	0.59620 0.86610 0.47750 0.07100
C 	C 	0.59585 0.92648 0.45197 0.08300
C 	C 	0.62353 0.95424 0.43410 -0.06000
H 	H 	0.60830 0.98390 0.42590 0.07100
N 	N 	0.54165 0.94322 0.45725 -0.13700
C 	C 	0.52653 0.99211 0.46478 0.00700
H 	H 	0.54890 0.02070 0.46920 0.03500
C 	C 	0.80963 0.94313 0.58990 0.34900
O 	O 	0.83389 0.98126 0.59956 -0.40100
O 	O 	0.76615 0.92518 0.59728 -0.40300
O 	O 	0.68412 0.00538 0.39783 -0.40500
Cu	Cu	0.29832 0.47338 0.87614 0.90600
O 	O 	0.25121 0.45018 0.90465 -0.40500
O 	O 	0.16988 0.30403 0.99114 -0.40500
O 	O 	0.23319 0.30402 0.96126 -0.41100
O 	O 	0.31292 0.30347 0.99605 -0.41100
O 	O 	0.25126 0.30413 0.02633 -0.41000
C 	C 	0.20582 0.46653 0.90877 0.35800
C 	C 	0.33490 0.41658 0.06700 -0.05300
C 	C 	0.17407 0.43853 0.92816 -0.07200
C 	C 	0.19380 0.39349 0.93993 0.01800
H 	H 	0.22740 0.38080 0.93490 0.05600
C 	C 	0.16699 0.36711 0.95826 -0.07100
C 	C 	0.19148 0.32128 0.97131 0.35700
C 	C 	0.29419 0.31913 0.01663 0.36200
C 	C 	0.32559 0.35810 0.03153 -0.06400
C 	C 	0.37493 0.37057 0.02385 -0.06000
H 	H 	0.38980 0.35460 0.00910 0.07200
C 	C 	0.40361 0.40722 0.03806 0.08700
C 	C 	0.38392 0.42941 0.05939 -0.06900
H 	H 	0.40430 0.45380 0.06900 0.07400
C 	C 	0.30569 0.38054 0.05337 0.00500
H 	H 	0.27150 0.37110 0.05910 0.05800
N 	N 	0.45752 0.41684 0.03025 -0.12900
C 	C 	0.47374 0.43080 0.00538 0.00300
H 	H 	0.45150 0.43870 0.99130 0.03700
C 	C 	0.11609 0.38381 0.96470 -0.05500
H 	H 	0.09620 0.36610 0.97750 0.06500
C 	C 	0.09585 0.42648 0.95197 0.07300
C 	C 	0.12353 0.45424 0.93410 -0.05400
H 	H 	0.10830 0.48390 0.92590 0.06600
N 	N 	0.04165 0.44322 0.95725 -0.12100
C 	C 	0.02653 0.49211 0.96478 -0.06800
H 	H 	0.04890 0.52070 0.96920 0.05300
C 	C 	0.30963 0.44313 0.08990 0.35100
O 	O 	0.33389 0.48126 0.09956 -0.40600
O 	O 	0.26615 0.42518 0.09728 -0.40500
O 	O 	0.18412 0.50538 0.89783 -0.40900
Cu	Cu	0.70168 0.02662 0.87614 0.90600
O 	O 	0.74879 0.04982 0.90465 -0.40300
O 	O 	0.83012 0.19597 0.99114 -0.39800
O 	O 	0.76681 0.19598 0.96126 -0.40900
O 	O 	0.68708 0.19653 0.99605 -0.41100
O 	O 	0.74874 0.19587 0.02633 -0.40700
C 	C 	0.79418 0.03347 0.90877 0.35500
C 	C 	0.66510 0.08342 0.06700 -0.05200
C 	C 	0.82593 0.06147 0.92816 -0.06300
C 	C 	0.80620 0.10651 0.93993 0.01200
H 	H 	0.77260 0.11920 0.93490 0.05800
C 	C 	0.83301 0.13289 0.95826 -0.06100
C 	C 	0.80852 0.17872 0.97131 0.35500
C 	C 	0.70581 0.18087 0.01663 0.36100
C 	C 	0.67441 0.14190 0.03153 -0.06200
C 	C 	0.62507 0.12943 0.02385 -0.06100
H 	H 	0.61020 0.14540 0.00910 0.07300
C 	C 	0.59639 0.09278 0.03806 0.08800
C 	C 	0.61608 0.07059 0.05939 -0.07000
H 	H 	0.59570 0.04620 0.06900 0.07400
C 	C 	0.69431 0.11946 0.05337 0.00400
H 	H 	0.72850 0.12890 0.05910 0.06100
N 	N 	0.54248 0.08316 0.03025 -0.12900
C 	C 	0.52626 0.06920 0.00538 0.00300
H 	H 	0.54850 0.06130 0.99130 0.03700
C 	C 	0.88391 0.11619 0.96470 -0.06200
H 	H 	0.90380 0.13390 0.97750 0.07900
C 	C 	0.90415 0.07352 0.95197 0.09200
C 	C 	0.87647 0.04576 0.93410 -0.06200
H 	H 	0.89170 0.01610 0.92590 0.07700
N 	N 	0.95835 0.05678 0.95725 -0.12500
C 	C 	0.97347 0.00789 0.96478 0.08200
H 	H 	0.95110 0.97930 0.96920 0.01800
C 	C 	0.69037 0.05687 0.08990 0.35000
O 	O 	0.66611 0.01874 0.09956 -0.40500
O 	O 	0.73385 0.07482 0.09728 -0.40300
O 	O 	0.81588 0.99462 0.89783 -0.40200
Cu	Cu	0.20168 0.52662 0.37614 0.90500
O 	O 	0.24879 0.54982 0.40465 -0.40500
O 	O 	0.33012 0.69597 0.49114 -0.40200
O 	O 	0.26681 0.69598 0.46126 -0.41100
O 	O 	0.18708 0.69653 0.49605 -0.41400
O 	O 	0.24874 0.69587 0.52633 -0.40900
C 	C 	0.29418 0.53347 0.40877 0.35700
C 	C 	0.16510 0.58342 0.56700 -0.05800
C 	C 	0.32593 0.56147 0.42816 -0.06800
C 	C 	0.30620 0.60651 0.43993 0.01500
H 	H 	0.27260 0.61920 0.43490 0.05600
C 	C 	0.33301 0.63289 0.45826 -0.06700
C 	C 	0.30852 0.67872 0.47131 0.35600
C 	C 	0.20581 0.68087 0.51663 0.36300
C 	C 	0.17441 0.64190 0.53153 -0.06800
C 	C 	0.12507 0.62943 0.52385 -0.05600
H 	H 	0.11020 0.64540 0.50910 0.06800
C 	C 	0.09639 0.59278 0.53806 0.07800
C 	C 	0.11608 0.57059 0.55939 -0.06400
H 	H 	0.09570 0.54620 0.56900 0.06800
C 	C 	0.19431 0.61946 0.55337 0.00800
H 	H 	0.22850 0.62890 0.55910 0.05800
N 	N 	0.04248 0.58316 0.53025 -0.11600
C 	C 	0.02626 0.56920 0.50538 -0.07400
H 	H 	0.04850 0.56130 0.49130 0.05600
C 	C 	0.38391 0.61619 0.46470 -0.06000
H 	H 	0.40380 0.63390 0.47750 0.07000
C 	C 	0.40415 0.57352 0.45197 0.08200
C 	C 	0.37647 0.54576 0.43410 -0.05800
H 	H 	0.39170 0.51610 0.42590 0.07100
N 	N 	0.45835 0.55678 0.45725 -0.13700
C 	C 	0.47347 0.50789 0.46478 0.00800
H 	H 	0.45110 0.47930 0.46920 0.03500
C 	C 	0.19037 0.55687 0.58990 0.35200
O 	O 	0.16611 0.51874 0.59956 -0.40900
O 	O 	0.23385 0.57482 0.59728 -0.40500
O 	O 	0.31588 0.49462 0.39783 -0.40600
Cu	Cu	0.27662 0.45168 0.37386 0.90600
O 	O 	0.29982 0.49879 0.34535 -0.40400
O 	O 	0.44597 0.58012 0.25886 -0.40200
O 	O 	0.44598 0.51681 0.28874 -0.41000
O 	O 	0.44653 0.43708 0.25395 -0.41100
O 	O 	0.44587 0.49874 0.22367 -0.40900
C 	C 	0.28347 0.54418 0.34123 0.35700
C 	C 	0.33342 0.41510 0.18300 -0.05300
C 	C 	0.31147 0.57593 0.32184 -0.06800
C 	C 	0.35651 0.55620 0.31007 0.01500
H 	H 	0.36920 0.52260 0.31510 0.05700
C 	C 	0.38289 0.58301 0.29174 -0.06700
C 	C 	0.42872 0.55852 0.27869 0.35600
C 	C 	0.43087 0.45581 0.23337 0.36100
C 	C 	0.39190 0.42441 0.21847 -0.06300
C 	C 	0.37943 0.37507 0.22615 -0.06000
H 	H 	0.39540 0.36020 0.24090 0.07300
C 	C 	0.34278 0.34639 0.21194 0.08700
C 	C 	0.32059 0.36608 0.19061 -0.06900
H 	H 	0.29620 0.34570 0.18100 0.07300
C 	C 	0.36946 0.44431 0.19663 0.00500
H 	H 	0.37890 0.47850 0.19090 0.05900
N 	N 	0.33316 0.29248 0.21975 -0.12900
C 	C 	0.31920 0.27626 0.24462 0.00300
H 	H 	0.31130 0.29850 0.25870 0.03700
C 	C 	0.36619 0.63391 0.28530 -0.06000
H 	H 	0.38390 0.65380 0.27250 0.07000
C 	C 	0.32352 0.65415 0.29803 0.08200
C 	C 	0.29576 0.62647 0.31590 -0.05800
H 	H 	0.26610 0.64170 0.32410 0.07000
N 	N 	0.30678 0.70835 0.29275 -0.13700
C 	C 	0.25789 0.72347 0.28522 0.00700
H 	H 	0.22930 0.70110 0.28080 0.03300
C 	C 	0.30687 0.44037 0.16010 0.35100
O 	O 	0.26874 0.41611 0.15044 -0.40700
O 	O 	0.32482 0.48385 0.15272 -0.40400
O 	O 	0.24462 0.56588 0.35217 -0.40700
Cu	Cu	0.77662 0.95168 0.87386 0.90700
O 	O 	0.79982 0.99879 0.84535 -0.40100
O 	O 	0.94597 0.08012 0.75886 -0.38400
O 	O 	0.94598 0.01681 0.78874 -0.39200
O 	O 	0.94653 0.93708 0.75395 -0.39300
O 	O 	0.94587 0.99874 0.72367 -0.39000
C 	C 	0.78347 0.04418 0.84123 0.35500
C 	C 	0.83342 0.91510 0.68300 -0.04700
C 	C 	0.81147 0.07593 0.82184 -0.06300
C 	C 	0.85651 0.05620 0.81007 0.01100
H 	H 	0.86920 0.02260 0.81510 0.06100
C 	C 	0.88289 0.08301 0.79174 -0.05800
C 	C 	0.92872 0.05852 0.77869 0.35100
C 	C 	0.93087 0.95581 0.73337 0.35700
C 	C 	0.89190 0.92441 0.71847 -0.05400
C 	C 	0.87943 0.87507 0.72615 -0.06400
H 	H 	0.89540 0.86020 0.74090 0.07900
C 	C 	0.84278 0.84639 0.71194 0.09200
C 	C 	0.82059 0.86608 0.69061 -0.07300
H 	H 	0.79620 0.84570 0.68100 0.07600
C 	C 	0.86946 0.94431 0.69663 0.00100
H 	H 	0.87890 0.97850 0.69090 0.06400
N 	N 	0.83316 0.79248 0.71975 -0.12900
C 	C 	0.81920 0.77626 0.74462 0.00500
H 	H 	0.81130 0.79850 0.75870 0.03800
C 	C 	0.86619 0.13391 0.78530 -0.06300
H 	H 	0.88390 0.15380 0.77250 0.07600
C 	C 	0.82352 0.15415 0.79803 0.08700
C 	C 	0.79576 0.12647 0.81590 -0.06100
H 	H 	0.76610 0.14170 0.82410 0.07300
N 	N 	0.80678 0.20835 0.79275 -0.13700
C 	C 	0.75789 0.22347 0.78522 0.00800
H 	H 	0.72930 0.20110 0.78080 0.03500
C 	C 	0.80687 0.94037 0.66010 0.34900
O 	O 	0.76874 0.91611 0.65044 -0.40400
O 	O 	0.82482 0.98385 0.65272 -0.40000
O 	O 	0.74462 0.06588 0.85217 -0.40500
Cu	Cu	0.22338 0.54832 0.87386 0.90500
O 	O 	0.20018 0.50121 0.84535 -0.40600
O 	O 	0.05403 0.41988 0.75886 -0.41200
O 	O 	0.05402 0.48319 0.78874 -0.42000
O 	O 	0.05347 0.56292 0.75395 -0.42100
O 	O 	0.05413 0.50126 0.72367 -0.41800
C 	C 	0.21653 0.45582 0.84123 0.35800
C 	C 	0.16658 0.58490 0.68300 -0.05700
C 	C 	0.18853 0.42407 0.82184 -0.07100
C 	C 	0.14349 0.44380 0.81007 0.01600
H 	H 	0.13080 0.47740 0.81510 0.05400
C 	C 	0.11711 0.41699 0.79174 -0.07200
C 	C 	0.07128 0.44148 0.77869 0.35700
C 	C 	0.06913 0.54419 0.73337 0.36200
C 	C 	0.10810 0.57559 0.71847 -0.06900
C 	C 	0.12057 0.62493 0.72615 -0.05900
H 	H 	0.10460 0.63980 0.74090 0.06800
C 	C 	0.15722 0.65361 0.71194 0.08300
C 	C 	0.17941 0.63392 0.69061 -0.06800
H 	H 	0.20380 0.65430 0.68100 0.07300
C 	C 	0.13054 0.55569 0.69663 0.00700
H 	H 	0.12110 0.52150 0.69090 0.05500
N 	N 	0.16684 0.70752 0.71975 -0.12900
C 	C 	0.18080 0.72374 0.74462 0.00200
H 	H 	0.18870 0.70150 0.75870 0.03600
C 	C 	0.13381 0.36609 0.78530 -0.05800
H 	H 	0.11610 0.34620 0.77250 0.06600
C 	C 	0.17648 0.34585 0.79803 0.08000
C 	C 	0.20424 0.37353 0.81590 -0.05700
H 	H 	0.23390 0.35830 0.82410 0.07100
N 	N 	0.19322 0.29165 0.79275 -0.13700
C 	C 	0.24211 0.27653 0.78522 0.00700
H 	H 	0.27070 0.29890 0.78080 0.03500
C 	C 	0.19313 0.55963 0.66010 0.35100
O 	O 	0.23126 0.58389 0.65044 -0.40600
O 	O 	0.17518 0.51615 0.65272 -0.40700
O 	O 	0.25538 0.43412 0.85217 -0.40700
Cu	Cu	0.72338 0.04832 0.37386 0.90600
O 	O 	0.70018 0.00121 0.34535 -0.40300
O 	O 	0.55403 0.91988 0.25886 -0.40200
O 	O 	0.55402 0.98319 0.28874 -0.41100
O 	O 	0.55347 0.06292 0.25395 -0.41100
O 	O 	0.55413 0.00126 0.22367 -0.40800
C 	C 	0.71653 0.95582 0.34123 0.35500
C 	C 	0.66658 0.08490 0.18300 -0.05200
C 	C 	0.68853 0.92407 0.32184 -0.06600
C 	C 	0.64349 0.94380 0.31007 0.01300
H 	H 	0.63080 0.97740 0.31510 0.05700
C 	C 	0.61711 0.91699 0.29174 -0.06600
C 	C 	0.57128 0.94148 0.27869 0.35500
C 	C 	0.56913 0.04419 0.23337 0.36100
C 	C 	0.60810 0.07559 0.21847 -0.06200
C 	C 	0.62057 0.12493 0.22615 -0.06100
H 	H 	0.60460 0.13980 0.24090 0.07300
C 	C 	0.65722 0.15361 0.21194 0.08800
C 	C 	0.67941 0.13392 0.19061 -0.07000
H 	H 	0.70380 0.15430 0.18100 0.07500
C 	C 	0.63054 0.05569 0.19663 0.00400
H 	H 	0.62110 0.02150 0.19090 0.06000
N 	N 	0.66684 0.20752 0.21975 -0.12900
C 	C 	0.68080 0.22374 0.24462 0.00400
H 	H 	0.68870 0.20150 0.25870 0.03700
C 	C 	0.63381 0.86609 0.28530 -0.06100
H 	H 	0.61610 0.84620 0.27250 0.07100
C 	C 	0.67648 0.84585 0.29803 0.08400
C 	C 	0.70424 0.87353 0.31590 -0.06000
H 	H 	0.73390 0.85830 0.32410 0.07300
N 	N 	0.69322 0.79165 0.29275 -0.13700
C 	C 	0.74211 0.77653 0.28522 0.00800
H 	H 	0.77070 0.79890 0.28080 0.03600
C 	C 	0.69313 0.05963 0.16010 0.35000
O 	O 	0.73126 0.08389 0.15044 -0.40400
O 	O 	0.67518 0.01615 0.15272 -0.40400
O 	O 	0.75538 0.93412 0.35217 -0.40400
Cu	Cu	0.70168 0.97338 0.12386 0.90600
O 	O 	0.74879 0.95018 0.09535 -0.40300
O 	O 	0.83012 0.80403 0.00886 -0.39800
O 	O 	0.76681 0.80402 0.03874 -0.40900
O 	O 	0.68708 0.80347 0.00395 -0.41100
O 	O 	0.74874 0.80413 0.97367 -0.40700
C 	C 	0.79418 0.96653 0.09123 0.35500
C 	C 	0.66510 0.91658 0.93300 -0.05200
C 	C 	0.82593 0.93853 0.07184 -0.06300
C 	C 	0.80620 0.89349 0.06007 0.01200
H 	H 	0.77260 0.88080 0.06510 0.05800
C 	C 	0.83301 0.86711 0.04174 -0.06100
C 	C 	0.80852 0.82128 0.02869 0.35500
C 	C 	0.70581 0.81913 0.98337 0.36100
C 	C 	0.67441 0.85810 0.96847 -0.06200
C 	C 	0.62507 0.87057 0.97615 -0.06100
H 	H 	0.61020 0.85460 0.99090 0.07300
C 	C 	0.59639 0.90722 0.96194 0.08800
C 	C 	0.61608 0.92941 0.94061 -0.07000
H 	H 	0.59570 0.95380 0.93100 0.07400
C 	C 	0.69431 0.88054 0.94663 0.00400
H 	H 	0.72850 0.87110 0.94090 0.06100
N 	N 	0.54248 0.91684 0.96975 -0.12900
C 	C 	0.52626 0.93080 0.99462 0.00300
H 	H 	0.54850 0.93870 0.00870 0.03700
C 	C 	0.88391 0.88381 0.03530 -0.06200
H 	H 	0.90380 0.86610 0.02250 0.07900
C 	C 	0.90415 0.92648 0.04803 0.09200
C 	C 	0.87647 0.95424 0.06590 -0.06200
H 	H 	0.89170 0.98390 0.07410 0.07700
N 	N 	0.95835 0.94322 0.04275 -0.12500
C 	C 	0.97347 0.99211 0.03522 0.08200
H 	H 	0.95110 0.02070 0.03080 0.01800
C 	C 	0.69037 0.94313 0.91010 0.35000
O 	O 	0.66611 0.98126 0.90044 -0.40500
O 	O 	0.73385 0.92518 0.90272 -0.40300
O 	O 	0.81588 0.00538 0.10217 -0.40200
Cu	Cu	0.20168 0.47338 0.62386 0.90500
O 	O 	0.24879 0.45018 0.59535 -0.40500
O 	O 	0.33012 0.30403 0.50886 -0.40200
O 	O 	0.26681 0.30402 0.53874 -0.41100
O 	O 	0.18708 0.30347 0.50395 -0.41400
O 	O 	0.24874 0.30413 0.47367 -0.40900
C 	C 	0.29418 0.46653 0.59123 0.35700
C 	C 	0.16510 0.41658 0.43300 -0.05800
C 	C 	0.32593 0.43853 0.57184 -0.06800
C 	C 	0.30620 0.39349 0.56007 0.01500
H 	H 	0.27260 0.38080 0.56510 0.05600
C 	C 	0.33301 0.36711 0.54174 -0.06700
C 	C 	0.30852 0.32128 0.52869 0.35600
C 	C 	0.20581 0.31913 0.48337 0.36300
C 	C 	0.17441 0.35810 0.46847 -0.06800
C 	C 	0.12507 0.37057 0.47615 -0.05600
H 	H 	0.11020 0.35460 0.49090 0.06800
C 	C 	0.09639 0.40722 0.46194 0.07800
C 	C 	0.11608 0.42941 0.44061 -0.06400
H 	H 	0.09570 0.45380 0.43100 0.06800
C 	C 	0.19431 0.38054 0.44663 0.00800
H 	H 	0.22850 0.37110 0.44090 0.05800
N 	N 	0.04248 0.41684 0.46975 -0.11600
C 	C 	0.02626 0.43080 0.49462 -0.07400
H 	H 	0.04850 0.43870 0.50870 0.05600
C 	C 	0.38391 0.38381 0.53530 -0.06000
H 	H 	0.40380 0.36610 0.52250 0.07000
C 	C 	0.40415 0.42648 0.54803 0.08200
C 	C 	0.37647 0.45424 0.56590 -0.05800
H 	H 	0.39170 0.48390 0.57410 0.07100
N 	N 	0.45835 0.44322 0.54275 -0.13700
C 	C 	0.47347 0.49211 0.53522 0.00800
H 	H 	0.45110 0.52070 0.53080 0.03500
C 	C 	0.19037 0.44313 0.41010 0.35200
O 	O 	0.16611 0.48126 0.40044 -0.40900
O 	O 	0.23385 0.42518 0.40272 -0.40500
O 	O 	0.31588 0.50538 0.60217 -0.40600
Cu	Cu	0.79832 0.02662 0.62386 0.90700
O 	O 	0.75121 0.04982 0.59535 -0.40300
O 	O 	0.66988 0.19597 0.50886 -0.40200
O 	O 	0.73319 0.19598 0.53874 -0.40900
O 	O 	0.81292 0.19653 0.50395 -0.40800
O 	O 	0.75126 0.19587 0.47367 -0.40800
C 	C 	0.70582 0.03347 0.59123 0.35500
C 	C 	0.83490 0.08342 0.43300 -0.04700
C 	C 	0.67407 0.06147 0.57184 -0.06600
C 	C 	0.69380 0.10651 0.56007 0.01300
H 	H 	0.72740 0.11920 0.56510 0.05800
C 	C 	0.66699 0.13289 0.54174 -0.06500
C 	C 	0.69148 0.17872 0.52869 0.35500
C 	C 	0.79419 0.18087 0.48337 0.36000
C 	C 	0.82559 0.14190 0.46847 -0.05800
C 	C 	0.87493 0.12943 0.47615 -0.06400
H 	H 	0.88980 0.14540 0.49090 0.07800
C 	C 	0.90361 0.09278 0.46194 0.09600
C 	C 	0.88392 0.07059 0.44061 -0.07300
H 	H 	0.90430 0.04620 0.43100 0.08300
C 	C 	0.80569 0.11946 0.44663 0.00200
H 	H 	0.77150 0.12890 0.44090 0.06100
N 	N 	0.95752 0.08316 0.46975 -0.11800
C 	C 	0.97374 0.06920 0.49462 0.08100
H 	H 	0.95150 0.06130 0.50870 0.01800
C 	C 	0.61609 0.11619 0.53530 -0.06100
H 	H 	0.59620 0.13390 0.52250 0.07100
C 	C 	0.59585 0.07352 0.54803 0.08300
C 	C 	0.62353 0.04576 0.56590 -0.06000
H 	H 	0.60830 0.01610 0.57410 0.07100
N 	N 	0.54165 0.05678 0.54275 -0.13700
C 	C 	0.52653 0.00789 0.53522 0.00700
H 	H 	0.54890 0.97930 0.53080 0.03500
C 	C 	0.80963 0.05687 0.41010 0.34900
O 	O 	0.83389 0.01874 0.40044 -0.40100
O 	O 	0.76615 0.07482 0.40272 -0.40300
O 	O 	0.68412 0.99462 0.60217 -0.40500
Cu	Cu	0.29832 0.52662 0.12386 0.90600
O 	O 	0.25121 0.54982 0.09535 -0.40500
O 	O 	0.16988 0.69597 0.00886 -0.40500
O 	O 	0.23319 0.69598 0.03874 -0.41100
O 	O 	0.31292 0.69653 0.00395 -0.41100
O 	O 	0.25126 0.69587 0.97367 -0.41000
C 	C 	0.20582 0.53347 0.09123 0.35800
C 	C 	0.33490 0.58342 0.93300 -0.05300
C 	C 	0.17407 0.56147 0.07184 -0.07200
C 	C 	0.19380 0.60651 0.06007 0.01800
H 	H 	0.22740 0.61920 0.06510 0.05600
C 	C 	0.16699 0.63289 0.04174 -0.07100
C 	C 	0.19148 0.67872 0.02869 0.35700
C 	C 	0.29419 0.68087 0.98337 0.36200
C 	C 	0.32559 0.64190 0.96847 -0.06400
C 	C 	0.37493 0.62943 0.97615 -0.06000
H 	H 	0.38980 0.64540 0.99090 0.07200
C 	C 	0.40361 0.59278 0.96194 0.08700
C 	C 	0.38392 0.57059 0.94061 -0.06900
H 	H 	0.40430 0.54620 0.93100 0.07400
C 	C 	0.30569 0.61946 0.94663 0.00500
H 	H 	0.27150 0.62890 0.94090 0.05800
N 	N 	0.45752 0.58316 0.96975 -0.12900
C 	C 	0.47374 0.56920 0.99462 0.00300
H 	H 	0.45150 0.56130 0.00870 0.03700
C 	C 	0.11609 0.61619 0.03530 -0.05500
H 	H 	0.09620 0.63390 0.02250 0.06500
C 	C 	0.09585 0.57352 0.04803 0.07300
C 	C 	0.12353 0.54576 0.06590 -0.05400
H 	H 	0.10830 0.51610 0.07410 0.06600
N 	N 	0.04165 0.55678 0.04275 -0.12100
C 	C 	0.02653 0.50789 0.03522 -0.06800
H 	H 	0.04890 0.47930 0.03080 0.05300
C 	C 	0.30963 0.55687 0.91010 0.35100
O 	O 	0.33389 0.51874 0.90044 -0.40600
O 	O 	0.26615 0.57482 0.90272 -0.40500
O 	O 	0.18412 0.49462 0.10217 -0.40900
Cu	Cu	0.77662 0.54832 0.87386 0.90700
O 	O 	0.79982 0.50121 0.84535 -0.40100
O 	O 	0.94597 0.41988 0.75886 -0.38300
O 	O 	0.94598 0.48319 0.78874 -0.39100
O 	O 	0.94653 0.56292 0.75395 -0.39300
O 	O 	0.94587 0.50126 0.72367 -0.39000
C 	C 	0.78347 0.45582 0.84123 0.35600
C 	C 	0.83342 0.58490 0.68300 -0.04700
C 	C 	0.81147 0.42407 0.82184 -0.06300
C 	C 	0.85651 0.44380 0.81007 0.01100
H 	H 	0.86920 0.47740 0.81510 0.06100
C 	C 	0.88289 0.41699 0.79174 -0.05800
C 	C 	0.92872 0.44148 0.77869 0.35100
C 	C 	0.93087 0.54419 0.73337 0.35700
C 	C 	0.89190 0.57559 0.71847 -0.05400
C 	C 	0.87943 0.62493 0.72615 -0.06400
H 	H 	0.89540 0.63980 0.74090 0.07900
C 	C 	0.84278 0.65361 0.71194 0.09200
C 	C 	0.82059 0.63392 0.69061 -0.07300
H 	H 	0.79620 0.65430 0.68100 0.07600
C 	C 	0.86946 0.55569 0.69663 0.00100
H 	H 	0.87890 0.52150 0.69090 0.06400
N 	N 	0.83316 0.70752 0.71975 -0.12900
C 	C 	0.81920 0.72374 0.74462 0.00500
H 	H 	0.81130 0.70150 0.75870 0.03800
C 	C 	0.86619 0.36609 0.78530 -0.06300
H 	H 	0.88390 0.34620 0.77250 0.07600
C 	C 	0.82352 0.34585 0.79803 0.08700
C 	C 	0.79576 0.37353 0.81590 -0.06100
H 	H 	0.76610 0.35830 0.82410 0.07300
N 	N 	0.80678 0.29165 0.79275 -0.13700
C 	C 	0.75789 0.27653 0.78522 0.00800
H 	H 	0.72930 0.29890 0.78080 0.03500
C 	C 	0.80687 0.55963 0.66010 0.34900
O 	O 	0.76874 0.58389 0.65044 -0.40500
O 	O 	0.82482 0.51615 0.65272 -0.40100
O 	O 	0.74462 0.43412 0.85217 -0.40500
Cu	Cu	0.27662 0.04832 0.37386 0.90600
O 	O 	0.29982 0.00121 0.34535 -0.40300
O 	O 	0.44597 0.91988 0.25886 -0.40200
O 	O 	0.44598 0.98319 0.28874 -0.41100
O 	O 	0.44653 0.06292 0.25395 -0.41100
O 	O 	0.44587 0.00126 0.22367 -0.40800
C 	C 	0.28347 0.95582 0.34123 0.35600
C 	C 	0.33342 0.08490 0.18300 -0.05300
C 	C 	0.31147 0.92407 0.32184 -0.06800
C 	C 	0.35651 0.94380 0.31007 0.01400
H 	H 	0.36920 0.97740 0.31510 0.05700
C 	C 	0.38289 0.91699 0.29174 -0.06700
C 	C 	0.42872 0.94148 0.27869 0.35600
C 	C 	0.43087 0.04419 0.23337 0.36100
C 	C 	0.39190 0.07559 0.21847 -0.06300
C 	C 	0.37943 0.12493 0.22615 -0.06000
H 	H 	0.39540 0.13980 0.24090 0.07300
C 	C 	0.34278 0.15361 0.21194 0.08700
C 	C 	0.32059 0.13392 0.19061 -0.06900
H 	H 	0.29620 0.15430 0.18100 0.07300
C 	C 	0.36946 0.05569 0.19663 0.00500
H 	H 	0.37890 0.02150 0.19090 0.05900
N 	N 	0.33316 0.20752 0.21975 -0.12900
C 	C 	0.31920 0.22374 0.24462 0.00300
H 	H 	0.31130 0.20150 0.25870 0.03700
C 	C 	0.36619 0.86609 0.28530 -0.06000
H 	H 	0.38390 0.84620 0.27250 0.07000
C 	C 	0.32352 0.84585 0.29803 0.08200
C 	C 	0.29576 0.87353 0.31590 -0.05800
H 	H 	0.26610 0.85830 0.32410 0.07000
N 	N 	0.30678 0.79165 0.29275 -0.13700
C 	C 	0.25789 0.77653 0.28522 0.00700
H 	H 	0.22930 0.79890 0.28080 0.03300
C 	C 	0.30687 0.05963 0.16010 0.35100
O 	O 	0.26874 0.08389 0.15044 -0.40700
O 	O 	0.32482 0.01615 0.15272 -0.40400
O 	O 	0.24462 0.93412 0.35217 -0.40700
Cu	Cu	0.72338 0.45168 0.37386 0.90600
O 	O 	0.70018 0.49879 0.34535 -0.40400
O 	O 	0.55403 0.58012 0.25886 -0.40200
O 	O 	0.55402 0.51681 0.28874 -0.41000
O 	O 	0.55347 0.43708 0.25395 -0.41100
O 	O 	0.55413 0.49874 0.22367 -0.40800
C 	C 	0.71653 0.54418 0.34123 0.35600
C 	C 	0.66658 0.41510 0.18300 -0.05200
C 	C 	0.68853 0.57593 0.32184 -0.06600
C 	C 	0.64349 0.55620 0.31007 0.01400
H 	H 	0.63080 0.52260 0.31510 0.05700
C 	C 	0.61711 0.58301 0.29174 -0.06600
C 	C 	0.57128 0.55852 0.27869 0.35500
C 	C 	0.56913 0.45581 0.23337 0.36100
C 	C 	0.60810 0.42441 0.21847 -0.06200
C 	C 	0.62057 0.37507 0.22615 -0.06100
H 	H 	0.60460 0.36020 0.24090 0.07300
C 	C 	0.65722 0.34639 0.21194 0.08800
C 	C 	0.67941 0.36608 0.19061 -0.07000
H 	H 	0.70380 0.34570 0.18100 0.07500
C 	C 	0.63054 0.44431 0.19663 0.00400
H 	H 	0.62110 0.47850 0.19090 0.05900
N 	N 	0.66684 0.29248 0.21975 -0.12900
C 	C 	0.68080 0.27626 0.24462 0.00400
H 	H 	0.68870 0.29850 0.25870 0.03700
C 	C 	0.63381 0.63391 0.28530 -0.06100
H 	H 	0.61610 0.65380 0.27250 0.07100
C 	C 	0.67648 0.65415 0.29803 0.08400
C 	C 	0.70424 0.62647 0.31590 -0.06000
H 	H 	0.73390 0.64170 0.32410 0.07300
N 	N 	0.69322 0.70835 0.29275 -0.13700
C 	C 	0.74211 0.72347 0.28522 0.00800
H 	H 	0.77070 0.70110 0.28080 0.03600
C 	C 	0.69313 0.44037 0.16010 0.35000
O 	O 	0.73126 0.41611 0.15044 -0.40400
O 	O 	0.67518 0.48385 0.15272 -0.40400
O 	O 	0.75538 0.56588 0.35217 -0.40400
Cu	Cu	0.22338 0.95168 0.87386 0.90500
O 	O 	0.20018 0.99879 0.84535 -0.40500
O 	O 	0.05403 0.08012 0.75886 -0.41200
O 	O 	0.05402 0.01681 0.78874 -0.42000
O 	O 	0.05347 0.93708 0.75395 -0.42000
O 	O 	0.05413 0.99874 0.72367 -0.41700
C 	C 	0.21653 0.04418 0.84123 0.35600
C 	C 	0.16658 0.91510 0.68300 -0.05700
C 	C 	0.18853 0.07593 0.82184 -0.07000
C 	C 	0.14349 0.05620 0.81007 0.01600
H 	H 	0.13080 0.02260 0.81510 0.05400
C 	C 	0.11711 0.08301 0.79174 -0.07200
C 	C 	0.07128 0.05852 0.77869 0.35700
C 	C 	0.06913 0.95581 0.73337 0.36200
C 	C 	0.10810 0.92441 0.71847 -0.06900
C 	C 	0.12057 0.87507 0.72615 -0.05900
H 	H 	0.10460 0.86020 0.74090 0.06800
C 	C 	0.15722 0.84639 0.71194 0.08300
C 	C 	0.17941 0.86608 0.69061 -0.06800
H 	H 	0.20380 0.84570 0.68100 0.07300
C 	C 	0.13054 0.94431 0.69663 0.00700
H 	H 	0.12110 0.97850 0.69090 0.05600
N 	N 	0.16684 0.79248 0.71975 -0.12900
C 	C 	0.18080 0.77626 0.74462 0.00200
H 	H 	0.18870 0.79850 0.75870 0.03600
C 	C 	0.13381 0.13391 0.78530 -0.05900
H 	H 	0.11610 0.15380 0.77250 0.06600
C 	C 	0.17648 0.15415 0.79803 0.08000
C 	C 	0.20424 0.12647 0.81590 -0.05800
H 	H 	0.23390 0.14170 0.82410 0.07100
N 	N 	0.19322 0.20835 0.79275 -0.13700
C 	C 	0.24211 0.22347 0.78522 0.00700
H 	H 	0.27070 0.20110 0.78080 0.03500
C 	C 	0.19313 0.94037 0.66010 0.35100
O 	O 	0.23126 0.91611 0.65044 -0.40600
O 	O 	0.17518 0.98385 0.65272 -0.40700
O 	O 	0.25538 0.06588 0.85217 -0.40700
Cu	Cu	0.20168 0.02662 0.62386 0.90500
O 	O 	0.24879 0.04982 0.59535 -0.40500
O 	O 	0.33012 0.19597 0.50886 -0.40200
O 	O 	0.26681 0.19598 0.53874 -0.41100
O 	O 	0.18708 0.19653 0.50395 -0.41400
O 	O 	0.24874 0.19587 0.47367 -0.40900
C 	C 	0.29418 0.03347 0.59123 0.35600
C 	C 	0.16510 0.08342 0.43300 -0.05800
C 	C 	0.32593 0.06147 0.57184 -0.06800
C 	C 	0.30620 0.10651 0.56007 0.01500
H 	H 	0.27260 0.11920 0.56510 0.05600
C 	C 	0.33301 0.13289 0.54174 -0.06700
C 	C 	0.30852 0.17872 0.52869 0.35600
C 	C 	0.20581 0.18087 0.48337 0.36300
C 	C 	0.17441 0.14190 0.46847 -0.06800
C 	C 	0.12507 0.12943 0.47615 -0.05600
H 	H 	0.11020 0.14540 0.49090 0.06800
C 	C 	0.09639 0.09278 0.46194 0.07800
C 	C 	0.11608 0.07059 0.44061 -0.06400
H 	H 	0.09570 0.04620 0.43100 0.06800
C 	C 	0.19431 0.11946 0.44663 0.00800
H 	H 	0.22850 0.12890 0.44090 0.05800
N 	N 	0.04248 0.08316 0.46975 -0.11600
C 	C 	0.02626 0.06920 0.49462 -0.07300
H 	H 	0.04850 0.06130 0.50870 0.05600
C 	C 	0.38391 0.11619 0.53530 -0.06000
H 	H 	0.40380 0.13390 0.52250 0.07000
C 	C 	0.40415 0.07352 0.54803 0.08200
C 	C 	0.37647 0.04576 0.56590 -0.05900
H 	H 	0.39170 0.01610 0.57410 0.07100
N 	N 	0.45835 0.05678 0.54275 -0.13700
C 	C 	0.47347 0.00789 0.53522 0.00700
H 	H 	0.45110 0.97930 0.53080 0.03500
C 	C 	0.19037 0.05687 0.41010 0.35200
O 	O 	0.16611 0.01874 0.40044 -0.40900
O 	O 	0.23385 0.07482 0.40272 -0.40500
O 	O 	0.31588 0.99462 0.60217 -0.40500
Cu	Cu	0.70168 0.52662 0.12386 0.90600
O 	O 	0.74879 0.54982 0.09535 -0.40300
O 	O 	0.83012 0.69597 0.00886 -0.39800
O 	O 	0.76681 0.69598 0.03874 -0.40900
O 	O 	0.68708 0.69653 0.00395 -0.41100
O 	O 	0.74874 0.69587 0.97367 -0.40700
C 	C 	0.79418 0.53347 0.09123 0.35600
C 	C 	0.66510 0.58342 0.93300 -0.05200
C 	C 	0.82593 0.56147 0.07184 -0.06300
C 	C 	0.80620 0.60651 0.06007 0.01200
H 	H 	0.77260 0.61920 0.06510 0.05800
C 	C 	0.83301 0.63289 0.04174 -0.06100
C 	C 	0.80852 0.67872 0.02869 0.35500
C 	C 	0.70581 0.68087 0.98337 0.36100
C 	C 	0.67441 0.64190 0.96847 -0.06200
C 	C 	0.62507 0.62943 0.97615 -0.06100
H 	H 	0.61020 0.64540 0.99090 0.07300
C 	C 	0.59639 0.59278 0.96194 0.08800
C 	C 	0.61608 0.57059 0.94061 -0.07000
H 	H 	0.59570 0.54620 0.93100 0.07400
C 	C 	0.69431 0.61946 0.94663 0.00400
H 	H 	0.72850 0.62890 0.94090 0.06100
N 	N 	0.54248 0.58316 0.96975 -0.12900
C 	C 	0.52626 0.56920 0.99462 0.00300
H 	H 	0.54850 0.56130 0.00870 0.03700
C 	C 	0.88391 0.61619 0.03530 -0.06200
H 	H 	0.90380 0.63390 0.02250 0.07900
C 	C 	0.90415 0.57352 0.04803 0.09200
C 	C 	0.87647 0.54576 0.06590 -0.06200
H 	H 	0.89170 0.51610 0.07410 0.07700
N 	N 	0.95835 0.55678 0.04275 -0.12500
C 	C 	0.97347 0.50789 0.03522 0.08400
H 	H 	0.95110 0.47930 0.03080 0.01700
C 	C 	0.69037 0.55687 0.91010 0.35000
O 	O 	0.66611 0.51874 0.90044 -0.40600
O 	O 	0.73385 0.57482 0.90272 -0.40300
O 	O 	0.81588 0.49462 0.10217 -0.40200
Cu	Cu	0.29832 0.97338 0.12386 0.90600
O 	O 	0.25121 0.95018 0.09535 -0.40500
O 	O 	0.16988 0.80403 0.00886 -0.40500
O 	O 	0.23319 0.80402 0.03874 -0.41100
O 	O 	0.31292 0.80347 0.00395 -0.41100
O 	O 	0.25126 0.80413 0.97367 -0.41000
C 	C 	0.20582 0.96653 0.09123 0.35700
C 	C 	0.33490 0.91658 0.93300 -0.05300
C 	C 	0.17407 0.93853 0.07184 -0.07200
C 	C 	0.19380 0.89349 0.06007 0.01800
H 	H 	0.22740 0.88080 0.06510 0.05600
C 	C 	0.16699 0.86711 0.04174 -0.07100
C 	C 	0.19148 0.82128 0.02869 0.35700
C 	C 	0.29419 0.81913 0.98337 0.36200
C 	C 	0.32559 0.85810 0.96847 -0.06400
C 	C 	0.37493 0.87057 0.97615 -0.06000
H 	H 	0.38980 0.85460 0.99090 0.07200
C 	C 	0.40361 0.90722 0.96194 0.08700
C 	C 	0.38392 0.92941 0.94061 -0.06900
H 	H 	0.40430 0.95380 0.93100 0.07400
C 	C 	0.30569 0.88054 0.94663 0.00500
H 	H 	0.27150 0.87110 0.94090 0.05800
N 	N 	0.45752 0.91684 0.96975 -0.12900
C 	C 	0.47374 0.93080 0.99462 0.00300
H 	H 	0.45150 0.93870 0.00870 0.03700
C 	C 	0.11609 0.88381 0.03530 -0.05500
H 	H 	0.09620 0.86610 0.02250 0.06500
C 	C 	0.09585 0.92648 0.04803 0.07300
C 	C 	0.12353 0.95424 0.06590 -0.05400
H 	H 	0.10830 0.98390 0.07410 0.06600
N 	N 	0.04165 0.94322 0.04275 -0.12100
C 	C 	0.02653 0.99211 0.03522 -0.06700
H 	H 	0.04890 0.02070 0.03080 0.05300
C 	C 	0.30963 0.94313 0.91010 0.35100
O 	O 	0.33389 0.98126 0.90044 -0.40600
O 	O 	0.26615 0.92518 0.90272 -0.40500
O 	O 	0.18412 0.00538 0.10217 -0.40800
Cu	Cu	0.79832 0.47338 0.62386 0.90700
O 	O 	0.75121 0.45018 0.59535 -0.40300
O 	O 	0.66988 0.30403 0.50886 -0.40200
O 	O 	0.73319 0.30402 0.53874 -0.40900
O 	O 	0.81292 0.30347 0.50395 -0.40800
O 	O 	0.75126 0.30413 0.47367 -0.40800
C 	C 	0.70582 0.46653 0.59123 0.35600
C 	C 	0.83490 0.41658 0.43300 -0.04700
C 	C 	0.67407 0.43853 0.57184 -0.06700
C 	C 	0.69380 0.39349 0.56007 0.01300
H 	H 	0.72740 0.38080 0.56510 0.05800
C 	C 	0.66699 0.36711 0.54174 -0.06500
C 	C 	0.69148 0.32128 0.52869 0.35500
C 	C 	0.79419 0.31913 0.48337 0.36000
C 	C 	0.82559 0.35810 0.46847 -0.05800
C 	C 	0.87493 0.37057 0.47615 -0.06400
H 	H 	0.88980 0.35460 0.49090 0.07800
C 	C 	0.90361 0.40722 0.46194 0.09600
C 	C 	0.88392 0.42941 0.44061 -0.07300
H 	H 	0.90430 0.45380 0.43100 0.08300
C 	C 	0.80569 0.38054 0.44663 0.00200
H 	H 	0.77150 0.37110 0.44090 0.06100
N 	N 	0.95752 0.41684 0.46975 -0.11800
C 	C 	0.97374 0.43080 0.49462 0.08200
H 	H 	0.95150 0.43870 0.50870 0.01800
C 	C 	0.61609 0.38381 0.53530 -0.06100
H 	H 	0.59620 0.36610 0.52250 0.07100
C 	C 	0.59585 0.42648 0.54803 0.08300
C 	C 	0.62353 0.45424 0.56590 -0.05900
H 	H 	0.60830 0.48390 0.57410 0.07200
N 	N 	0.54165 0.44322 0.54275 -0.13700
C 	C 	0.52653 0.49211 0.53522 0.00800
H 	H 	0.54890 0.52070 0.53080 0.03500
C 	C 	0.80963 0.44313 0.41010 0.34900
O 	O 	0.83389 0.48126 0.40044 -0.40100
O 	O 	0.76615 0.42518 0.40272 -0.40300
O 	O 	0.68412 0.50538 0.60217 -0.40600
Cu	Cu	0.72338 0.54832 0.62614 0.90600
O 	O 	0.70018 0.50121 0.65465 -0.40400
O 	O 	0.55403 0.41988 0.74114 -0.40200
O 	O 	0.55402 0.48319 0.71126 -0.41000
O 	O 	0.55347 0.56292 0.74605 -0.41100
O 	O 	0.55413 0.50126 0.77633 -0.40800
C 	C 	0.71653 0.45582 0.65877 0.35600
C 	C 	0.66658 0.58490 0.81700 -0.05200
C 	C 	0.68853 0.42407 0.67816 -0.06600
C 	C 	0.64349 0.44380 0.68993 0.01400
H 	H 	0.63080 0.47740 0.68490 0.05700
C 	C 	0.61711 0.41699 0.70826 -0.06600
C 	C 	0.57128 0.44148 0.72131 0.35500
C 	C 	0.56913 0.54419 0.76663 0.36100
C 	C 	0.60810 0.57559 0.78153 -0.06200
C 	C 	0.62057 0.62493 0.77385 -0.06100
H 	H 	0.60460 0.63980 0.75910 0.07300
C 	C 	0.65722 0.65361 0.78806 0.08800
C 	C 	0.67941 0.63392 0.80939 -0.07000
H 	H 	0.70380 0.65430 0.81900 0.07500
C 	C 	0.63054 0.55569 0.80337 0.00400
H 	H 	0.62110 0.52150 0.80910 0.05900
N 	N 	0.66684 0.70752 0.78025 -0.12900
C 	C 	0.68080 0.72374 0.75538 0.00400
H 	H 	0.68870 0.70150 0.74130 0.03700
C 	C 	0.63381 0.36609 0.71470 -0.06100
H 	H 	0.61610 0.34620 0.72750 0.07100
C 	C 	0.67648 0.34585 0.70197 0.08400
C 	C 	0.70424 0.37353 0.68410 -0.06000
H 	H 	0.73390 0.35830 0.67590 0.07300
N 	N 	0.69322 0.29165 0.70725 -0.13700
C 	C 	0.74211 0.27653 0.71478 0.00800
H 	H 	0.77070 0.29890 0.71920 0.03600
C 	C 	0.69313 0.55963 0.83990 0.35000
O 	O 	0.73126 0.58389 0.84956 -0.40400
O 	O 	0.67518 0.51615 0.84728 -0.40400
O 	O 	0.75538 0.43412 0.64783 -0.40400
Cu	Cu	0.22338 0.04832 0.12614 0.90500
O 	O 	0.20018 0.00121 0.15465 -0.40500
O 	O 	0.05403 0.91988 0.24114 -0.41200
O 	O 	0.05402 0.98319 0.21126 -0.42000
O 	O 	0.05347 0.06292 0.24605 -0.42000
O 	O 	0.05413 0.00126 0.27633 -0.41700
C 	C 	0.21653 0.95582 0.15877 0.35600
C 	C 	0.16658 0.08490 0.31700 -0.05700
C 	C 	0.18853 0.92407 0.17816 -0.07000
C 	C 	0.14349 0.94380 0.18993 0.01600
H 	H 	0.13080 0.97740 0.18490 0.05400
C 	C 	0.11711 0.91699 0.20826 -0.07200
C 	C 	0.07128 0.94148 0.22131 0.35700
C 	C 	0.06913 0.04419 0.26663 0.36200
C 	C 	0.10810 0.07559 0.28153 -0.06900
C 	C 	0.12057 0.12493 0.27385 -0.05900
H 	H 	0.10460 0.13980 0.25910 0.06800
C 	C 	0.15722 0.15361 0.28806 0.08300
C 	C 	0.17941 0.13392 0.30939 -0.06800
H 	H 	0.20380 0.15430 0.31900 0.07300
C 	C 	0.13054 0.05569 0.30337 0.00700
H 	H 	0.12110 0.02150 0.30910 0.05600
N 	N 	0.16684 0.20752 0.28025 -0.12900
C 	C 	0.18080 0.22374 0.25538 0.00200
H 	H 	0.18870 0.20150 0.24130 0.03600
C 	C 	0.13381 0.86609 0.21470 -0.05900
H 	H 	0.11610 0.84620 0.22750 0.06600
C 	C 	0.17648 0.84585 0.20197 0.08000
C 	C 	0.20424 0.87353 0.18410 -0.05800
H 	H 	0.23390 0.85830 0.17590 0.07100
N 	N 	0.19322 0.79165 0.20725 -0.13700
C 	C 	0.24211 0.77653 0.21478 0.00700
H 	H 	0.27070 0.79890 0.21920 0.03500
C 	C 	0.19313 0.05963 0.33990 0.35100
O 	O 	0.23126 0.08389 0.34956 -0.40600
O 	O 	0.17518 0.01615 0.34728 -0.40700
O 	O 	0.25538 0.93412 0.14783 -0.40700
Cu	Cu	0.77662 0.45168 0.12614 0.90700
O 	O 	0.79982 0.49879 0.15465 -0.40100
O 	O 	0.94597 0.58012 0.24114 -0.38300
O 	O 	0.94598 0.51681 0.21126 -0.39100
O 	O 	0.94653 0.43708 0.24605 -0.39300
O 	O 	0.94587 0.49874 0.27633 -0.39000
C 	C 	0.78347 0.54418 0.15877 0.35600
C 	C 	0.83342 0.41510 0.31700 -0.04700
C 	C 	0.81147 0.57593 0.17816 -0.06300
C 	C 	0.85651 0.55620 0.18993 0.01100
H 	H 	0.86920 0.52260 0.18490 0.06100
C 	C 	0.88289 0.58301 0.20826 -0.05800
C 	C 	0.92872 0.55852 0.22131 0.35100
C 	C 	0.93087 0.45581 0.26663 0.35700
C 	C 	0.89190 0.42441 0.28153 -0.05400
C 	C 	0.87943 0.37507 0.27385 -0.06400
H 	H 	0.89540 0.36020 0.25910 0.07900
C 	C 	0.84278 0.34639 0.28806 0.09200
C 	C 	0.82059 0.36608 0.30939 -0.07300
H 	H 	0.79620 0.34570 0.31900 0.07600
C 	C 	0.86946 0.44431 0.30337 0.00100
H 	H 	0.87890 0.47850 0.30910 0.06400
N 	N 	0.83316 0.29248 0.28025 -0.12900
C 	C 	0.81920 0.27626 0.25538 0.00500
H 	H 	0.81130 0.29850 0.24130 0.03800
C 	C 	0.86619 0.63391 0.21470 -0.06300
H 	H 	0.88390 0.65380 0.22750 0.07600
C 	C 	0.82352 0.65415 0.20197 0.08700
C 	C 	0.79576 0.62647 0.18410 -0.06100
H 	H 	0.76610 0.64170 0.17590 0.07300
N 	N 	0.80678 0.70835 0.20725 -0.13700
C 	C 	0.75789 0.72347 0.21478 0.00800
H 	H 	0.72930 0.70110 0.21920 0.03500
C 	C 	0.80687 0.44037 0.33990 0.34900
O 	O 	0.76874 0.41611 0.34956 -0.40500
O 	O 	0.82482 0.48385 0.34728 -0.40100
O 	O 	0.74462 0.56588 0.14783 -0.40500
Cu	Cu	0.27662 0.95168 0.62614 0.90600
O 	O 	0.29982 0.99879 0.65465 -0.40300
O 	O 	0.44597 0.08012 0.74114 -0.40200
O 	O 	0.44598 0.01681 0.71126 -0.41100
O 	O 	0.44653 0.93708 0.74605 -0.41100
O 	O 	0.44587 0.99874 0.77633 -0.40800
C 	C 	0.28347 0.04418 0.65877 0.35600
C 	C 	0.33342 0.91510 0.81700 -0.05300
C 	C 	0.31147 0.07593 0.67816 -0.06800
C 	C 	0.35651 0.05620 0.68993 0.01400
H 	H 	0.36920 0.02260 0.68490 0.05700
C 	C 	0.38289 0.08301 0.70826 -0.06700
C 	C 	0.42872 0.05852 0.72131 0.35600
C 	C 	0.43087 0.95581 0.76663 0.36100
C 	C 	0.39190 0.92441 0.78153 -0.06300
C 	C 	0.37943 0.87507 0.77385 -0.06000
H 	H 	0.39540 0.86020 0.75910 0.07300
C 	C 	0.34278 0.84639 0.78806 0.08700
C 	C 	0.32059 0.86608 0.80939 -0.06900
H 	H 	0.29620 0.84570 0.81900 0.07300
C 	C 	0.36946 0.94431 0.80337 0.00500
H 	H 	0.37890 0.97850 0.80910 0.05900
N 	N 	0.33316 0.79248 0.78025 -0.12900
C 	C 	0.31920 0.77626 0.75538 0.00300
H 	H 	0.31130 0.79850 0.74130 0.03700
C 	C 	0.36619 0.13391 0.71470 -0.06000
H 	H 	0.38390 0.15380 0.72750 0.07000
C 	C 	0.32352 0.15415 0.70197 0.08200
C 	C 	0.29576 0.12647 0.68410 -0.05800
H 	H 	0.26610 0.14170 0.67590 0.07000
N 	N 	0.30678 0.20835 0.70725 -0.13700
C 	C 	0.25789 0.22347 0.71478 0.00700
H 	H 	0.22930 0.20110 0.71920 0.03300
C 	C 	0.30687 0.94037 0.83990 0.35100
O 	O 	0.26874 0.91611 0.84956 -0.40700
O 	O 	0.32482 0.98385 0.84728 -0.40400
O 	O 	0.24462 0.06588 0.64783 -0.40700
Cu	Cu	0.29832 0.02662 0.87614 0.90600
O 	O 	0.25121 0.04982 0.90465 -0.40500
O 	O 	0.16988 0.19597 0.99114 -0.40500
O 	O 	0.23319 0.19598 0.96126 -0.41100
O 	O 	0.31292 0.19653 0.99605 -0.41100
O 	O 	0.25126 0.19587 0.02633 -0.41000
C 	C 	0.20582 0.03347 0.90877 0.35700
C 	C 	0.33490 0.08342 0.06700 -0.05300
C 	C 	0.17407 0.06147 0.92816 -0.07200
C 	C 	0.19380 0.10651 0.93993 0.01800
H 	H 	0.22740 0.11920 0.93490 0.05600
C 	C 	0.16699 0.13289 0.95826 -0.07100
C 	C 	0.19148 0.17872 0.97131 0.35700
C 	C 	0.29419 0.18087 0.01663 0.36200
C 	C 	0.32559 0.14190 0.03153 -0.06400
C 	C 	0.37493 0.12943 0.02385 -0.06000
H 	H 	0.38980 0.14540 0.00910 0.07200
C 	C 	0.40361 0.09278 0.03806 0.08700
C 	C 	0.38392 0.07059 0.05939 -0.06900
H 	H 	0.40430 0.04620 0.06900 0.07400
C 	C 	0.30569 0.11946 0.05337 0.00500
H 	H 	0.27150 0.12890 0.05910 0.05800
N 	N 	0.45752 0.08316 0.03025 -0.12900
C 	C 	0.47374 0.06920 0.00538 0.00300
H 	H 	0.45150 0.06130 0.99130 0.03700
C 	C 	0.11609 0.11619 0.96470 -0.05500
H 	H 	0.09620 0.13390 0.97750 0.06500
C 	C 	0.09585 0.07352 0.95197 0.07300
C 	C 	0.12353 0.04576 0.93410 -0.05400
H 	H 	0.10830 0.01610 0.92590 0.06600
N 	N 	0.04165 0.05678 0.95725 -0.12100
C 	C 	0.02653 0.00789 0.96478 -0.06700
H 	H 	0.04890 0.97930 0.96920 0.05300
C 	C 	0.30963 0.05687 0.08990 0.35100
O 	O 	0.33389 0.01874 0.09956 -0.40600
O 	O 	0.26615 0.07482 0.09728 -0.40500
O 	O 	0.18412 0.99462 0.89783 -0.40800
Cu	Cu	0.79832 0.52662 0.37614 0.90700
O 	O 	0.75121 0.54982 0.40465 -0.40300
O 	O 	0.66988 0.69597 0.49114 -0.40200
O 	O 	0.73319 0.69598 0.46126 -0.40900
O 	O 	0.81292 0.69653 0.49605 -0.40800
O 	O 	0.75126 0.69587 0.52633 -0.40800
C 	C 	0.70582 0.53347 0.40877 0.35600
C 	C 	0.83490 0.58342 0.56700 -0.04700
C 	C 	0.67407 0.56147 0.42816 -0.06700
C 	C 	0.69380 0.60651 0.43993 0.01300
H 	H 	0.72740 0.61920 0.43490 0.05800
C 	C 	0.66699 0.63289 0.45826 -0.06500
C 	C 	0.69148 0.67872 0.47131 0.35500
C 	C 	0.79419 0.68087 0.51663 0.36000
C 	C 	0.82559 0.64190 0.53153 -0.05800
C 	C 	0.87493 0.62943 0.52385 -0.06400
H 	H 	0.88980 0.64540 0.50910 0.07800
C 	C 	0.90361 0.59278 0.53806 0.09600
C 	C 	0.88392 0.57059 0.55939 -0.07300
H 	H 	0.90430 0.54620 0.56900 0.08300
C 	C 	0.80569 0.61946 0.55337 0.00200
H 	H 	0.77150 0.62890 0.55910 0.06100
N 	N 	0.95752 0.58316 0.53025 -0.11800
C 	C 	0.97374 0.56920 0.50538 0.08200
H 	H 	0.95150 0.56130 0.49130 0.01800
C 	C 	0.61609 0.61619 0.46470 -0.06100
H 	H 	0.59620 0.63390 0.47750 0.07100
C 	C 	0.59585 0.57352 0.45197 0.08300
C 	C 	0.62353 0.54576 0.43410 -0.05900
H 	H 	0.60830 0.51610 0.42590 0.07200
N 	N 	0.54165 0.55678 0.45725 -0.13700
C 	C 	0.52653 0.50789 0.46478 0.00800
H 	H 	0.54890 0.47930 0.46920 0.03500
C 	C 	0.80963 0.55687 0.58990 0.34900
O 	O 	0.83389 0.51874 0.59956 -0.40100
O 	O 	0.76615 0.57482 0.59728 -0.40300
O 	O 	0.68412 0.49462 0.39783 -0.40600
Cu	Cu	0.20168 0.97338 0.37614 0.90500
O 	O 	0.24879 0.95018 0.40465 -0.40500
O 	O 	0.33012 0.80403 0.49114 -0.40200
O 	O 	0.26681 0.80402 0.46126 -0.41100
O 	O 	0.18708 0.80347 0.49605 -0.41400
O 	O 	0.24874 0.80413 0.52633 -0.40900
C 	C 	0.29418 0.96653 0.40877 0.35600
C 	C 	0.16510 0.91658 0.56700 -0.05800
C 	C 	0.32593 0.93853 0.42816 -0.06800
C 	C 	0.30620 0.89349 0.43993 0.01500
H 	H 	0.27260 0.88080 0.43490 0.05600
C 	C 	0.33301 0.86711 0.45826 -0.06700
C 	C 	0.30852 0.82128 0.47131 0.35600
C 	C 	0.20581 0.81913 0.51663 0.36300
C 	C 	0.17441 0.85810 0.53153 -0.06800
C 	C 	0.12507 0.87057 0.52385 -0.05600
H 	H 	0.11020 0.85460 0.50910 0.06800
C 	C 	0.09639 0.90722 0.53806 0.07800
C 	C 	0.11608 0.92941 0.55939 -0.06400
H 	H 	0.09570 0.95380 0.56900 0.06800
C 	C 	0.19431 0.88054 0.55337 0.00800
H 	H 	0.22850 0.87110 0.55910 0.05800
N 	N 	0.04248 0.91684 0.53025 -0.11600
C 	C 	0.02626 0.93080 0.50538 -0.07300
H 	H 	0.04850 0.93870 0.49130 0.05600
C 	C 	0.38391 0.88381 0.46470 -0.06000
H 	H 	0.40380 0.86610 0.47750 0.07000
C 	C 	0.40415 0.92648 0.45197 0.08200
C 	C 	0.37647 0.95424 0.43410 -0.05900
H 	H 	0.39170 0.98390 0.42590 0.07100
N 	N 	0.45835 0.94322 0.45725 -0.13700
C 	C 	0.47347 0.99211 0.46478 0.00700
H 	H 	0.45110 0.02070 0.46920 0.03500
C 	C 	0.19037 0.94313 0.58990 0.35200
O 	O 	0.16611 0.98126 0.59956 -0.40900
O 	O 	0.23385 0.92518 0.59728 -0.40500
O 	O 	0.31588 0.00538 0.39783 -0.40500
Cu	Cu	0.70168 0.47338 0.87614 0.90600
O 	O 	0.74879 0.45018 0.90465 -0.40300
O 	O 	0.83012 0.30403 0.99114 -0.39800
O 	O 	0.76681 0.30402 0.96126 -0.40900
O 	O 	0.68708 0.30347 0.99605 -0.41100
O 	O 	0.74874 0.30413 0.02633 -0.40700
C 	C 	0.79418 0.46653 0.90877 0.35600
C 	C 	0.66510 0.41658 0.06700 -0.05200
C 	C 	0.82593 0.43853 0.92816 -0.06300
C 	C 	0.80620 0.39349 0.93993 0.01200
H 	H 	0.77260 0.38080 0.93490 0.05800
C 	C 	0.83301 0.36711 0.95826 -0.06100
C 	C 	0.80852 0.32128 0.97131 0.35500
C 	C 	0.70581 0.31913 0.01663 0.36100
C 	C 	0.67441 0.35810 0.03153 -0.06200
C 	C 	0.62507 0.37057 0.02385 -0.06100
H 	H 	0.61020 0.35460 0.00910 0.07300
C 	C 	0.59639 0.40722 0.03806 0.08800
C 	C 	0.61608 0.42941 0.05939 -0.07000
H 	H 	0.59570 0.45380 0.06900 0.07400
C 	C 	0.69431 0.38054 0.05337 0.00400
H 	H 	0.72850 0.37110 0.05910 0.06100
N 	N 	0.54248 0.41684 0.03025 -0.12900
C 	C 	0.52626 0.43080 0.00538 0.00300
H 	H 	0.54850 0.43870 0.99130 0.03700
C 	C 	0.88391 0.38381 0.96470 -0.06200
H 	H 	0.90380 0.36610 0.97750 0.07900
C 	C 	0.90415 0.42648 0.95197 0.09200
C 	C 	0.87647 0.45424 0.93410 -0.06200
H 	H 	0.89170 0.48390 0.92590 0.07700
N 	N 	0.95835 0.44322 0.95725 -0.12500
C 	C 	0.97347 0.49211 0.96478 0.08400
H 	H 	0.95110 0.52070 0.96920 0.01700
C 	C 	0.69037 0.44313 0.08990 0.35000
O 	O 	0.66611 0.48126 0.09956 -0.40600
O 	O 	0.73385 0.42518 0.09728 -0.40300
O 	O 	0.81588 0.50538 0.89783 -0.40200
Cu	Cu	0.00000 0.54479 0.26183 0.88900
Cu	Cu	0.00000 0.47153 0.22536 0.89300
Cu	Cu	0.50000 0.04479 0.76183 0.90500
Cu	Cu	0.50000 0.97153 0.72536 0.91100
Cu	Cu	0.50000 0.45521 0.76183 0.90500
Cu	Cu	0.50000 0.52847 0.72536 0.91000
Cu	Cu	0.00000 0.95521 0.26183 0.88800
Cu	Cu	0.00000 0.02847 0.22536 0.89400
Cu	Cu	0.70521 0.75000 0.51183 0.90500
Cu	Cu	0.77847 0.75000 0.47536 0.91100
Cu	Cu	0.79479 0.25000 0.01183 0.90700
Cu	Cu	0.72153 0.25000 0.97536 0.91000
Cu	Cu	0.50000 0.54479 0.23817 0.90500
Cu	Cu	0.50000 0.47153 0.27464 0.91000
Cu	Cu	-0.00000 0.04479 0.73817 0.88800
Cu	Cu	-0.00000 0.97153 0.77464 0.89400
Cu	Cu	0.00000 0.45521 0.73817 0.88900
Cu	Cu	-0.00000 0.52847 0.77464 0.89300
Cu	Cu	0.50000 0.95521 0.23817 0.90500
Cu	Cu	0.50000 0.02847 0.27464 0.91100
Cu	Cu	0.79479 0.75000 0.98817 0.90700
Cu	Cu	0.72153 0.75000 0.02464 0.91000
Cu	Cu	0.70521 0.25000 0.48817 0.90500
Cu	Cu	0.77847 0.25000 0.52464 0.91100
Cu	Cu	0.29479 0.25000 0.48817 0.90500
Cu	Cu	0.22153 0.25000 0.52464 0.90900
Cu	Cu	0.20521 0.75000 0.98817 0.90400
Cu	Cu	0.27847 0.75000 0.02464 0.91000
Cu	Cu	0.20521 0.25000 0.01183 0.90400
Cu	Cu	0.27847 0.25000 0.97536 0.91000
Cu	Cu	0.29479 0.75000 0.51183 0.90500
Cu	Cu	0.22153 0.75000 0.47536 0.90900
C 	C 	0.15600 0.25000 0.29551 0.07800
H 	H 	0.14380 0.25000 0.31270 0.01200
C 	C 	0.34400 0.75000 0.79551 0.08000
H 	H 	0.35620 0.75000 0.81270 0.01400
C 	C 	-0.00000 0.90600 0.54551 0.03900
H 	H 	0.00000 0.89380 0.56270 0.01600
C 	C 	0.50000 0.40600 0.04551 0.08100
H 	H 	0.50000 0.39380 0.06270 0.01400
C 	C 	0.50000 0.09400 0.04551 0.08100
H 	H 	0.50000 0.10620 0.06270 0.01400
C 	C 	-0.00000 0.59400 0.54551 0.03900
H 	H 	0.00000 0.60620 0.56270 0.01600
C 	C 	0.34400 0.25000 0.20449 0.08000
H 	H 	0.35620 0.25000 0.18730 0.01400
C 	C 	0.15600 0.75000 0.70449 0.07800
H 	H 	0.14380 0.75000 0.68730 0.01200
C 	C 	0.65600 0.25000 0.20449 0.08100
H 	H 	0.64380 0.25000 0.18730 0.01400
C 	C 	0.50000 0.90600 0.95449 0.08100
H 	H 	0.50000 0.89380 0.93730 0.01400
C 	C 	0.00000 0.40600 0.45449 0.03900
H 	H 	-0.00000 0.39380 0.43730 0.01600
C 	C 	-0.00000 0.09400 0.45449 0.03900
H 	H 	-0.00000 0.10620 0.43730 0.01600
C 	C 	0.50000 0.59400 0.95449 0.08100
H 	H 	0.50000 0.60620 0.93730 0.01400
C 	C 	0.84400 0.75000 0.70449 0.08300
H 	H 	0.85620 0.75000 0.68730 0.01700
C 	C 	0.65600 0.75000 0.79551 0.08100
H 	H 	0.64380 0.75000 0.81270 0.01400
C 	C 	0.84400 0.25000 0.29551 0.08300
H 	H 	0.85620 0.25000 0.31270 0.01700
C 	C 	0.16490 0.75000 0.20184 0.10300
H 	H 	0.13010 0.75000 0.19520 0.00300
C 	C 	0.33510 0.25000 0.70184 0.10300
H 	H 	0.36990 0.25000 0.69520 0.00700
C 	C 	0.50000 0.91490 0.45184 0.10400
H 	H 	0.50000 0.88010 0.44520 0.00700
C 	C 	-0.00000 0.41490 0.95184 0.05700
H 	H 	0.00000 0.38010 0.94520 0.01000
C 	C 	0.00000 0.08510 0.95184 0.05800
H 	H 	0.00000 0.11990 0.94520 0.01000
C 	C 	0.50000 0.58510 0.45184 0.10400
H 	H 	0.50000 0.61990 0.44520 0.00700
C 	C 	0.33510 0.75000 0.29816 0.10300
H 	H 	0.36990 0.75000 0.30480 0.00700
C 	C 	0.16490 0.25000 0.79816 0.10300
H 	H 	0.13010 0.25000 0.80480 0.00300
C 	C 	0.00000 0.91490 0.04816 0.05800
H 	H 	-0.00000 0.88010 0.05480 0.01000
C 	C 	0.50000 0.41490 0.54816 0.10400
H 	H 	0.50000 0.38010 0.55480 0.00700
C 	C 	0.50000 0.08510 0.54816 0.10400
H 	H 	0.50000 0.11990 0.55480 0.00700
C 	C 	0.00000 0.58510 0.04816 0.05700
H 	H 	0.00000 0.61990 0.05480 0.01000
C 	C 	0.83510 0.25000 0.79816 0.10500
H 	H 	0.86990 0.25000 0.80480 0.01200
C 	C 	0.66490 0.75000 0.29816 0.10400
H 	H 	0.63010 0.75000 0.30480 0.00700
C 	C 	0.66490 0.25000 0.70184 0.10400
H 	H 	0.63010 0.25000 0.69520 0.00700
C 	C 	0.83510 0.75000 0.20184 0.10500
H 	H 	0.86990 0.75000 0.19520 0.01200
