data_crystal

_cell_length_a 25.55520
_cell_length_b 25.55520
_cell_length_c 51.40300
_cell_angle_alpha 90.00000
_cell_angle_beta  90.00000
_cell_angle_gamma 90.00000

_symmetry_space_group_name_	'P 1'
_symmetry_space_group_name_H-M	'P 1'

loop_
_symmetry_equiv_pos_as_xyz
  x,y,z

loop_
_atom_site_label
_atom_site_type_symbol
_atom_site_fract_x
_atom_site_fract_y
_atom_site_fract_z
_atom_site_charge
Zn	Zn	0.22712 0.43927 0.12664 1.19900
O 	O 	0.27690 0.40790 0.15229 -0.47900
C 	C 	0.18820 0.67660 0.03323 0.42500
O 	O 	0.18640 0.48220 0.10150 -0.48800
N 	N 	0.04140 0.55150 0.04470 -0.11300
O 	O 	0.33290 0.47580 0.15331 -0.47700
O 	O 	0.16590 0.69500 0.01370 -0.49100
O 	O 	0.22760 0.69410 0.04406 -0.50000
C 	C 	0.16440 0.62860 0.04539 -0.11100
C 	C 	0.19410 0.59910 0.06231 0.05200
H 	H 	0.22860 0.61020 0.06640 0.03300
C 	C 	0.33840 0.41270 0.18622 -0.10000
C 	C 	0.31440 0.43370 0.16215 0.39300
C 	C 	0.20790 0.52240 0.09172 0.41900
C 	C 	0.37270 0.44140 0.19991 0.04300
H 	H 	0.38310 0.47450 0.19330 0.03600
C 	C 	0.11460 0.61280 0.03893 -0.02500
H 	H 	0.09410 0.63250 0.02700 0.04800
C 	C 	0.17470 0.55390 0.07334 -0.11000
C 	C 	0.09480 0.56730 0.05025 0.04800
C 	C 	0.12420 0.53710 0.06710 -0.02900
H 	H 	0.11050 0.50570 0.07420 0.05000
N 	N 	0.33500 0.29190 0.22588 -0.13400
C 	C 	0.31890 0.27520 0.25120 -0.00100
H 	H 	0.30990 0.29720 0.26540 0.03100
C 	C 	0.38020 0.37470 0.23237 -0.03600
H 	H 	0.39400 0.36180 0.24830 0.05700
C 	C 	0.02620 0.50340 0.03566 -0.09600
H 	H 	0.04850 0.47550 0.03040 0.05400
C 	C 	0.39360 0.42430 0.22359 -0.10000
C 	C 	0.32470 0.36260 0.19513 -0.04200
H 	H 	0.30040 0.34200 0.18560 0.05700
C 	C 	0.34600 0.34370 0.21739 0.06700
O 	O 	0.44470 0.49950 0.22899 -0.49100
O 	O 	0.25230 0.53750 0.09564 -0.49300
O 	O 	0.44700 0.43790 0.26018 -0.47000
C 	C 	0.43090 0.45790 0.23820 0.39700
Zn	Zn	0.72712 0.93927 0.62664 1.19900
O 	O 	0.77690 0.90790 0.65229 -0.47700
C 	C 	0.68820 0.17660 0.53323 0.42200
O 	O 	0.68640 0.98220 0.60150 -0.48400
N 	N 	0.54140 0.05150 0.54470 -0.13500
O 	O 	0.83290 0.97580 0.65331 -0.47300
O 	O 	0.66590 0.19500 0.51370 -0.48700
O 	O 	0.72760 0.19410 0.54406 -0.49800
C 	C 	0.66440 0.12860 0.54539 -0.10500
C 	C 	0.69410 0.09910 0.56231 0.04600
H 	H 	0.72860 0.11020 0.56640 0.03500
C 	C 	0.83840 0.91270 0.68622 -0.09300
C 	C 	0.81440 0.93370 0.66215 0.39000
C 	C 	0.70790 0.02240 0.59172 0.41500
C 	C 	0.87270 0.94140 0.69991 0.03900
H 	H 	0.88310 0.97450 0.69330 0.04200
C 	C 	0.61460 0.11280 0.53893 -0.03200
H 	H 	0.59410 0.13250 0.52700 0.05500
C 	C 	0.67470 0.05390 0.57334 -0.10300
C 	C 	0.59480 0.06730 0.55025 0.06100
C 	C 	0.62420 0.03710 0.56710 -0.03500
H 	H 	0.61050 0.00570 0.57420 0.05600
N 	N 	0.83500 0.79190 0.72588 -0.13400
C 	C 	0.81890 0.77520 0.75120 0.00100
H 	H 	0.80990 0.79720 0.76540 0.03300
C 	C 	0.88020 0.87470 0.73237 -0.03900
H 	H 	0.89400 0.86180 0.74830 0.06400
C 	C 	0.52620 0.00340 0.53566 0.00300
H 	H 	0.54850 0.97550 0.53040 0.03000
C 	C 	0.89360 0.92430 0.72359 -0.09000
C 	C 	0.82470 0.86260 0.69513 -0.04500
H 	H 	0.80040 0.84200 0.68560 0.06000
C 	C 	0.84600 0.84370 0.71739 0.07300
O 	O 	0.94470 0.99950 0.72899 -0.46900
O 	O 	0.75230 0.03750 0.59564 -0.49000
O 	O 	0.94700 0.93790 0.76018 -0.44800
C 	C 	0.93090 0.95790 0.73820 0.39300
Zn	Zn	0.27288 0.56073 0.62664 1.19900
O 	O 	0.22310 0.59210 0.65229 -0.48000
C 	C 	0.31180 0.32340 0.53323 0.42300
O 	O 	0.31360 0.51780 0.60150 -0.48500
N 	N 	0.45860 0.44850 0.54470 -0.13500
O 	O 	0.16710 0.52420 0.65331 -0.48200
O 	O 	0.33410 0.30500 0.51370 -0.48800
O 	O 	0.27240 0.30590 0.54406 -0.50000
C 	C 	0.33560 0.37140 0.54539 -0.10700
C 	C 	0.30590 0.40090 0.56231 0.04800
H 	H 	0.27140 0.38980 0.56640 0.03200
C 	C 	0.16160 0.58730 0.68622 -0.10500
C 	C 	0.18560 0.56630 0.66215 0.39200
C 	C 	0.29210 0.47760 0.59172 0.41700
C 	C 	0.12730 0.55860 0.69991 0.04500
H 	H 	0.11690 0.52550 0.69330 0.03100
C 	C 	0.38540 0.38720 0.53893 -0.03100
H 	H 	0.40590 0.36750 0.52700 0.05500
C 	C 	0.32530 0.44610 0.57334 -0.10500
C 	C 	0.40520 0.43270 0.55025 0.06000
C 	C 	0.37580 0.46290 0.56710 -0.03400
H 	H 	0.38950 0.49430 0.57420 0.05600
N 	N 	0.16500 0.70810 0.72588 -0.13400
C 	C 	0.18110 0.72480 0.75120 -0.00300
H 	H 	0.19010 0.70280 0.76540 0.03000
C 	C 	0.11980 0.62530 0.73237 -0.03400
H 	H 	0.10600 0.63820 0.74830 0.05100
C 	C 	0.47380 0.49660 0.53566 0.00300
H 	H 	0.45150 0.52450 0.53040 0.03000
C 	C 	0.10640 0.57570 0.72359 -0.10800
C 	C 	0.17530 0.63740 0.69513 -0.04100
H 	H 	0.19960 0.65800 0.68560 0.05600
C 	C 	0.15400 0.65630 0.71739 0.06200
O 	O 	0.05530 0.50050 0.72899 -0.50400
O 	O 	0.24770 0.46250 0.59564 -0.49300
O 	O 	0.05300 0.56210 0.76018 -0.48400
C 	C 	0.06910 0.54210 0.73820 0.39800
Zn	Zn	0.77288 0.06073 0.12664 1.20000
O 	O 	0.72310 0.09210 0.15229 -0.47700
C 	C 	0.81180 0.82340 0.03323 0.42100
O 	O 	0.81360 0.01780 0.10150 -0.48000
N 	N 	0.95860 0.94850 0.04470 -0.11900
O 	O 	0.66710 0.02420 0.15331 -0.47800
O 	O 	0.83410 0.80500 0.01370 -0.48200
O 	O 	0.77240 0.80590 0.04406 -0.49700
C 	C 	0.83560 0.87140 0.04539 -0.10000
C 	C 	0.80590 0.90090 0.06231 0.04400
H 	H 	0.77140 0.88980 0.06640 0.03500
C 	C 	0.66160 0.08730 0.18622 -0.09900
C 	C 	0.68560 0.06630 0.16215 0.39100
C 	C 	0.79210 0.97760 0.09172 0.41400
C 	C 	0.62730 0.05860 0.19991 0.04200
H 	H 	0.61690 0.02550 0.19330 0.03700
C 	C 	0.88540 0.88720 0.03893 -0.03400
H 	H 	0.90590 0.86750 0.02700 0.06600
C 	C 	0.82530 0.94610 0.07334 -0.09900
C 	C 	0.90520 0.93270 0.05025 0.07100
C 	C 	0.87580 0.96290 0.06710 -0.03800
H 	H 	0.88950 0.99430 0.07420 0.06200
N 	N 	0.66500 0.20810 0.22588 -0.13400
C 	C 	0.68110 0.22480 0.25120 -0.00100
H 	H 	0.69010 0.20280 0.26540 0.03100
C 	C 	0.61980 0.12530 0.23237 -0.03700
H 	H 	0.60600 0.13820 0.24830 0.05700
C 	C 	0.97380 0.99660 0.03566 0.10100
H 	H 	0.95150 0.02450 0.03040 0.00800
C 	C 	0.60640 0.07570 0.22359 -0.09900
C 	C 	0.67530 0.13740 0.19513 -0.04300
H 	H 	0.69960 0.15800 0.18560 0.05900
C 	C 	0.65400 0.15630 0.21739 0.06800
O 	O 	0.55530 0.00050 0.22899 -0.49000
O 	O 	0.74770 0.96250 0.09564 -0.49100
O 	O 	0.55300 0.06210 0.26018 -0.47000
C 	C 	0.56910 0.04210 0.23820 0.39700
Zn	Zn	0.81073 0.97712 0.37664 1.20000
O 	O 	0.84210 0.02690 0.40229 -0.47300
C 	C 	0.57340 0.93820 0.28323 0.42200
O 	O 	0.76780 0.93640 0.35150 -0.48200
N 	N 	0.69850 0.79140 0.29470 -0.13500
O 	O 	0.77420 0.08290 0.40331 -0.47700
O 	O 	0.55500 0.91590 0.26370 -0.48800
O 	O 	0.55590 0.97760 0.29406 -0.50000
C 	C 	0.62140 0.91440 0.29539 -0.10500
C 	C 	0.65090 0.94410 0.31231 0.04600
H 	H 	0.63980 0.97860 0.31640 0.03300
C 	C 	0.83730 0.08840 0.43622 -0.09400
C 	C 	0.81630 0.06440 0.41215 0.39000
C 	C 	0.72760 0.95790 0.34172 0.41400
C 	C 	0.80860 0.12270 0.44991 0.04000
H 	H 	0.77550 0.13310 0.44330 0.03800
C 	C 	0.63720 0.86460 0.28893 -0.03200
H 	H 	0.61750 0.84410 0.27700 0.05500
C 	C 	0.69610 0.92470 0.32334 -0.10300
C 	C 	0.68270 0.84480 0.30025 0.06100
C 	C 	0.71290 0.87420 0.31710 -0.03600
H 	H 	0.74430 0.86050 0.32420 0.05800
N 	N 	0.95810 0.08500 0.47588 -0.11900
C 	C 	0.97480 0.06890 0.50120 0.11100
H 	H 	0.95280 0.05990 0.51540 0.00300
C 	C 	0.87530 0.13020 0.48237 -0.03900
H 	H 	0.88820 0.14400 0.49830 0.06300
C 	C 	0.74660 0.77620 0.28566 0.00400
H 	H 	0.77450 0.79850 0.28040 0.03200
C 	C 	0.82570 0.14360 0.47359 -0.09500
C 	C 	0.88740 0.07470 0.44513 -0.04500
H 	H 	0.90800 0.05040 0.43560 0.06900
C 	C 	0.90630 0.09600 0.46739 0.07800
O 	O 	0.75050 0.19470 0.47899 -0.49000
O 	O 	0.71250 0.00230 0.34564 -0.49000
O 	O 	0.81210 0.19700 0.51018 -0.46600
C 	C 	0.79210 0.18090 0.48820 0.39600
Zn	Zn	0.31073 0.47712 0.87664 1.19900
O 	O 	0.34210 0.52690 0.90229 -0.47900
C 	C 	0.07340 0.43820 0.78323 0.42500
O 	O 	0.26780 0.43640 0.85150 -0.48600
N 	N 	0.19850 0.29140 0.79470 -0.13500
O 	O 	0.27420 0.58290 0.90331 -0.48000
O 	O 	0.05500 0.41590 0.76370 -0.50200
O 	O 	0.05590 0.47760 0.79406 -0.51300
C 	C 	0.12140 0.41440 0.79539 -0.11300
C 	C 	0.15090 0.44410 0.81231 0.05000
H 	H 	0.13980 0.47860 0.81640 0.03000
C 	C 	0.33730 0.58840 0.93622 -0.10100
C 	C 	0.31630 0.56440 0.91215 0.39200
C 	C 	0.22760 0.45790 0.84172 0.41700
C 	C 	0.30860 0.62270 0.94991 0.04400
H 	H 	0.27550 0.63310 0.94330 0.03500
C 	C 	0.13720 0.36460 0.78893 -0.02900
H 	H 	0.11750 0.34410 0.77700 0.04900
C 	C 	0.19610 0.42470 0.82334 -0.10800
C 	C 	0.18270 0.34480 0.80025 0.05700
C 	C 	0.21290 0.37420 0.81710 -0.03300
H 	H 	0.24430 0.36050 0.82420 0.05500
N 	N 	0.45810 0.58500 0.97588 -0.13400
C 	C 	0.47480 0.56890 0.00120 -0.00100
H 	H 	0.45280 0.55990 0.01540 0.03100
C 	C 	0.37530 0.63020 0.98237 -0.03600
H 	H 	0.38820 0.64400 0.99830 0.05700
C 	C 	0.24660 0.27620 0.78566 0.00300
H 	H 	0.27450 0.29850 0.78040 0.03000
C 	C 	0.32570 0.64360 0.97359 -0.10100
C 	C 	0.38740 0.57470 0.94513 -0.04200
H 	H 	0.40800 0.55040 0.93560 0.05800
C 	C 	0.40630 0.59600 0.96739 0.06700
O 	O 	0.25050 0.69470 0.97899 -0.49300
O 	O 	0.21250 0.50230 0.84564 -0.49400
O 	O 	0.31210 0.69700 0.01018 -0.47100
C 	C 	0.29210 0.68090 0.98820 0.39800
Zn	Zn	0.68927 0.02288 0.87664 1.19900
O 	O 	0.65790 0.97310 0.90229 -0.47900
C 	C 	0.92660 0.06180 0.78323 0.41700
O 	O 	0.73220 0.06360 0.85150 -0.48400
N 	N 	0.80150 0.20860 0.79470 -0.13500
O 	O 	0.72580 0.91710 0.90331 -0.47700
O 	O 	0.94500 0.08410 0.76370 -0.46500
O 	O 	0.94410 0.02240 0.79406 -0.47800
C 	C 	0.87860 0.08560 0.79539 -0.09600
C 	C 	0.84910 0.05590 0.81231 0.04300
H 	H 	0.86020 0.02140 0.81640 0.03800
C 	C 	0.66270 0.91160 0.93622 -0.09900
C 	C 	0.68370 0.93560 0.91215 0.39100
C 	C 	0.77240 0.04210 0.84172 0.41400
C 	C 	0.69140 0.87730 0.94991 0.04200
H 	H 	0.72450 0.86690 0.94330 0.03800
C 	C 	0.86280 0.13540 0.78893 -0.03600
H 	H 	0.88250 0.15590 0.77700 0.06200
C 	C 	0.80390 0.07530 0.82334 -0.09900
C 	C 	0.81730 0.15520 0.80025 0.06500
C 	C 	0.78710 0.12580 0.81710 -0.03700
H 	H 	0.75570 0.13950 0.82420 0.05700
N 	N 	0.54190 0.91500 0.97588 -0.13400
C 	C 	0.52520 0.93110 0.00120 -0.00100
H 	H 	0.54720 0.94010 0.01540 0.03100
C 	C 	0.62470 0.86980 0.98237 -0.03700
H 	H 	0.61180 0.85600 0.99830 0.05700
C 	C 	0.75340 0.22380 0.78566 0.00400
H 	H 	0.72550 0.20150 0.78040 0.03000
C 	C 	0.67430 0.85640 0.97359 -0.09900
C 	C 	0.61260 0.92530 0.94513 -0.04300
H 	H 	0.59200 0.94960 0.93560 0.05800
C 	C 	0.59370 0.90400 0.96739 0.06800
O 	O 	0.74950 0.80530 0.97899 -0.48900
O 	O 	0.78750 0.99770 0.84564 -0.48800
O 	O 	0.68790 0.80300 0.01018 -0.47000
C 	C 	0.70790 0.81910 0.98820 0.39700
Zn	Zn	0.18927 0.52288 0.37664 1.19800
O 	O 	0.15790 0.47310 0.40229 -0.48400
C 	C 	0.42660 0.56180 0.28323 0.42300
O 	O 	0.23220 0.56360 0.35150 -0.48800
N 	N 	0.30150 0.70860 0.29470 -0.13500
O 	O 	0.22580 0.41710 0.40331 -0.48000
O 	O 	0.44500 0.58410 0.26370 -0.48800
O 	O 	0.44410 0.52240 0.29406 -0.49900
C 	C 	0.37860 0.58560 0.29539 -0.10600
C 	C 	0.34910 0.55590 0.31231 0.04800
H 	H 	0.36020 0.52140 0.31640 0.03300
C 	C 	0.16270 0.41160 0.43622 -0.10700
C 	C 	0.18370 0.43560 0.41215 0.39300
C 	C 	0.27240 0.54210 0.34172 0.41700
C 	C 	0.19140 0.37730 0.44991 0.04700
H 	H 	0.22450 0.36690 0.44330 0.03400
C 	C 	0.36280 0.63540 0.28893 -0.03100
H 	H 	0.38250 0.65590 0.27700 0.05500
C 	C 	0.30390 0.57530 0.32334 -0.10500
C 	C 	0.31730 0.65520 0.30025 0.05900
C 	C 	0.28710 0.62580 0.31710 -0.03400
H 	H 	0.25570 0.63950 0.32420 0.05400
N 	N 	0.04190 0.41500 0.47588 -0.11300
C 	C 	0.02520 0.43110 0.50120 -0.11300
H 	H 	0.04720 0.44010 0.51540 0.06000
C 	C 	0.12470 0.36980 0.48237 -0.03000
H 	H 	0.11180 0.35600 0.49830 0.05100
C 	C 	0.25340 0.72380 0.28566 0.00200
H 	H 	0.22550 0.70150 0.28040 0.02800
C 	C 	0.17430 0.35640 0.47359 -0.10600
C 	C 	0.11260 0.42530 0.44513 -0.03600
H 	H 	0.09200 0.44960 0.43560 0.05000
C 	C 	0.09370 0.40400 0.46739 0.05500
O 	O 	0.24950 0.30530 0.47899 -0.49200
O 	O 	0.28750 0.49770 0.34564 -0.49200
O 	O 	0.18790 0.30300 0.51018 -0.47400
C 	C 	0.20790 0.31910 0.48820 0.39900
Zn	Zn	0.27288 0.43927 0.37336 1.19900
O 	O 	0.22310 0.40790 0.34771 -0.48000
C 	C 	0.31180 0.67660 0.46677 0.42300
O 	O 	0.31360 0.48220 0.39850 -0.48500
N 	N 	0.45860 0.55150 0.45530 -0.13500
O 	O 	0.16710 0.47580 0.34669 -0.48200
O 	O 	0.33410 0.69500 0.48630 -0.48800
O 	O 	0.27240 0.69410 0.45594 -0.50000
C 	C 	0.33560 0.62860 0.45461 -0.10700
C 	C 	0.30590 0.59910 0.43769 0.04800
H 	H 	0.27140 0.61020 0.43360 0.03200
C 	C 	0.16160 0.41270 0.31378 -0.10500
C 	C 	0.18560 0.43370 0.33785 0.39200
C 	C 	0.29210 0.52240 0.40828 0.41700
C 	C 	0.12730 0.44140 0.30009 0.04500
H 	H 	0.11690 0.47450 0.30670 0.03100
C 	C 	0.38540 0.61280 0.46107 -0.03100
H 	H 	0.40590 0.63250 0.47300 0.05500
C 	C 	0.32530 0.55390 0.42666 -0.10500
C 	C 	0.40520 0.56730 0.44975 0.06000
C 	C 	0.37580 0.53710 0.43290 -0.03400
H 	H 	0.38950 0.50570 0.42580 0.05600
N 	N 	0.16500 0.29190 0.27412 -0.13400
C 	C 	0.18110 0.27520 0.24880 -0.00300
H 	H 	0.19010 0.29720 0.23460 0.03000
C 	C 	0.11980 0.37470 0.26763 -0.03400
H 	H 	0.10600 0.36180 0.25170 0.05100
C 	C 	0.47380 0.50340 0.46434 0.00300
H 	H 	0.45150 0.47550 0.46960 0.03000
C 	C 	0.10640 0.42430 0.27641 -0.10800
C 	C 	0.17530 0.36260 0.30487 -0.04100
H 	H 	0.19960 0.34200 0.31440 0.05600
C 	C 	0.15400 0.34370 0.28261 0.06200
O 	O 	0.05530 0.49950 0.27101 -0.50400
O 	O 	0.24770 0.53750 0.40436 -0.49300
O 	O 	0.05300 0.43790 0.23982 -0.48400
C 	C 	0.06910 0.45790 0.26180 0.39800
Zn	Zn	0.77288 0.93927 0.87336 1.20000
O 	O 	0.72310 0.90790 0.84771 -0.47700
C 	C 	0.81180 0.17660 0.96677 0.42100
O 	O 	0.81360 0.98220 0.89850 -0.48000
N 	N 	0.95860 0.05150 0.95530 -0.11900
O 	O 	0.66710 0.97580 0.84669 -0.47800
O 	O 	0.83410 0.19500 0.98630 -0.48200
O 	O 	0.77240 0.19410 0.95594 -0.49700
C 	C 	0.83560 0.12860 0.95461 -0.10000
C 	C 	0.80590 0.09910 0.93769 0.04400
H 	H 	0.77140 0.11020 0.93360 0.03500
C 	C 	0.66160 0.91270 0.81378 -0.09900
C 	C 	0.68560 0.93370 0.83785 0.39100
C 	C 	0.79210 0.02240 0.90828 0.41400
C 	C 	0.62730 0.94140 0.80009 0.04200
H 	H 	0.61690 0.97450 0.80670 0.03700
C 	C 	0.88540 0.11280 0.96107 -0.03400
H 	H 	0.90590 0.13250 0.97300 0.06600
C 	C 	0.82530 0.05390 0.92666 -0.09900
C 	C 	0.90520 0.06730 0.94975 0.07100
C 	C 	0.87580 0.03710 0.93290 -0.03800
H 	H 	0.88950 0.00570 0.92580 0.06200
N 	N 	0.66500 0.79190 0.77412 -0.13400
C 	C 	0.68110 0.77520 0.74880 -0.00100
H 	H 	0.69010 0.79720 0.73460 0.03100
C 	C 	0.61980 0.87470 0.76763 -0.03700
H 	H 	0.60600 0.86180 0.75170 0.05700
C 	C 	0.97380 0.00340 0.96434 0.10100
H 	H 	0.95150 0.97550 0.96960 0.00800
C 	C 	0.60640 0.92430 0.77641 -0.09900
C 	C 	0.67530 0.86260 0.80487 -0.04300
H 	H 	0.69960 0.84200 0.81440 0.05900
C 	C 	0.65400 0.84370 0.78261 0.06800
O 	O 	0.55530 0.99950 0.77101 -0.49000
O 	O 	0.74770 0.03750 0.90436 -0.49100
O 	O 	0.55300 0.93790 0.73982 -0.47000
C 	C 	0.56910 0.95790 0.76180 0.39700
Zn	Zn	0.22712 0.56073 0.87336 1.19800
O 	O 	0.27690 0.59210 0.84771 -0.48000
C 	C 	0.18820 0.32340 0.96677 0.42400
O 	O 	0.18640 0.51780 0.89850 -0.48900
N 	N 	0.04140 0.44850 0.95530 -0.11400
O 	O 	0.33290 0.52420 0.84669 -0.47800
O 	O 	0.16590 0.30500 0.98630 -0.49200
O 	O 	0.22760 0.30590 0.95594 -0.50100
C 	C 	0.16440 0.37140 0.95461 -0.11200
C 	C 	0.19410 0.40090 0.93769 0.05100
H 	H 	0.22860 0.38980 0.93360 0.03200
C 	C 	0.33840 0.58730 0.81378 -0.10100
C 	C 	0.31440 0.56630 0.83785 0.39200
C 	C 	0.20790 0.47760 0.90828 0.41800
C 	C 	0.37270 0.55860 0.80009 0.04300
H 	H 	0.38310 0.52550 0.80670 0.03600
C 	C 	0.11460 0.38720 0.96107 -0.02500
H 	H 	0.09410 0.36750 0.97300 0.04800
C 	C 	0.17470 0.44610 0.92666 -0.11000
C 	C 	0.09480 0.43270 0.94975 0.04800
C 	C 	0.12420 0.46290 0.93290 -0.02900
H 	H 	0.11050 0.49430 0.92580 0.05000
N 	N 	0.33500 0.70810 0.77412 -0.13400
C 	C 	0.31890 0.72480 0.74880 -0.00100
H 	H 	0.30990 0.70280 0.73460 0.03100
C 	C 	0.38020 0.62530 0.76763 -0.03600
H 	H 	0.39400 0.63820 0.75170 0.05700
C 	C 	0.02620 0.49660 0.96434 -0.09600
H 	H 	0.04850 0.52450 0.96960 0.05400
C 	C 	0.39360 0.57570 0.77641 -0.10000
C 	C 	0.32470 0.63740 0.80487 -0.04200
H 	H 	0.30040 0.65800 0.81440 0.05700
C 	C 	0.34600 0.65630 0.78261 0.06700
O 	O 	0.44470 0.50050 0.77101 -0.49100
O 	O 	0.25230 0.46250 0.90436 -0.49300
O 	O 	0.44700 0.56210 0.73982 -0.47000
C 	C 	0.43090 0.54210 0.76180 0.39700
Zn	Zn	0.72712 0.06073 0.37336 1.19900
O 	O 	0.77690 0.09210 0.34771 -0.47700
C 	C 	0.68820 0.82340 0.46677 0.42200
O 	O 	0.68640 0.01780 0.39850 -0.48400
N 	N 	0.54140 0.94850 0.45530 -0.13500
O 	O 	0.83290 0.02420 0.34669 -0.47300
O 	O 	0.66590 0.80500 0.48630 -0.48700
O 	O 	0.72760 0.80590 0.45594 -0.49800
C 	C 	0.66440 0.87140 0.45461 -0.10500
C 	C 	0.69410 0.90090 0.43769 0.04600
H 	H 	0.72860 0.88980 0.43360 0.03500
C 	C 	0.83840 0.08730 0.31378 -0.09300
C 	C 	0.81440 0.06630 0.33785 0.39000
C 	C 	0.70790 0.97760 0.40828 0.41500
C 	C 	0.87270 0.05860 0.30009 0.03900
H 	H 	0.88310 0.02550 0.30670 0.04200
C 	C 	0.61460 0.88720 0.46107 -0.03200
H 	H 	0.59410 0.86750 0.47300 0.05500
C 	C 	0.67470 0.94610 0.42666 -0.10300
C 	C 	0.59480 0.93270 0.44975 0.06100
C 	C 	0.62420 0.96290 0.43290 -0.03500
H 	H 	0.61050 0.99430 0.42580 0.05600
N 	N 	0.83500 0.20810 0.27412 -0.13400
C 	C 	0.81890 0.22480 0.24880 0.00100
H 	H 	0.80990 0.20280 0.23460 0.03300
C 	C 	0.88020 0.12530 0.26763 -0.03900
H 	H 	0.89400 0.13820 0.25170 0.06400
C 	C 	0.52620 0.99660 0.46434 0.00300
H 	H 	0.54850 0.02450 0.46960 0.03000
C 	C 	0.89360 0.07570 0.27641 -0.09000
C 	C 	0.82470 0.13740 0.30487 -0.04500
H 	H 	0.80040 0.15800 0.31440 0.06000
C 	C 	0.84600 0.15630 0.28261 0.07300
O 	O 	0.94470 0.00050 0.27101 -0.46900
O 	O 	0.75230 0.96250 0.40436 -0.49000
O 	O 	0.94700 0.06210 0.23982 -0.44800
C 	C 	0.93090 0.04210 0.26180 0.39300
Zn	Zn	0.68927 0.97712 0.12336 1.19900
O 	O 	0.65790 0.02690 0.09771 -0.47900
C 	C 	0.92660 0.93820 0.21677 0.41700
O 	O 	0.73220 0.93640 0.14850 -0.48400
N 	N 	0.80150 0.79140 0.20530 -0.13500
O 	O 	0.72580 0.08290 0.09669 -0.47700
O 	O 	0.94500 0.91590 0.23630 -0.46500
O 	O 	0.94410 0.97760 0.20594 -0.47800
C 	C 	0.87860 0.91440 0.20461 -0.09600
C 	C 	0.84910 0.94410 0.18769 0.04300
H 	H 	0.86020 0.97860 0.18360 0.03800
C 	C 	0.66270 0.08840 0.06378 -0.09900
C 	C 	0.68370 0.06440 0.08785 0.39100
C 	C 	0.77240 0.95790 0.15828 0.41400
C 	C 	0.69140 0.12270 0.05009 0.04200
H 	H 	0.72450 0.13310 0.05670 0.03800
C 	C 	0.86280 0.86460 0.21107 -0.03600
H 	H 	0.88250 0.84410 0.22300 0.06200
C 	C 	0.80390 0.92470 0.17666 -0.09900
C 	C 	0.81730 0.84480 0.19975 0.06500
C 	C 	0.78710 0.87420 0.18290 -0.03700
H 	H 	0.75570 0.86050 0.17580 0.05700
N 	N 	0.54190 0.08500 0.02412 -0.13400
C 	C 	0.52520 0.06890 0.99880 -0.00100
H 	H 	0.54720 0.05990 0.98460 0.03100
C 	C 	0.62470 0.13020 0.01763 -0.03700
H 	H 	0.61180 0.14400 0.00170 0.05700
C 	C 	0.75340 0.77620 0.21434 0.00400
H 	H 	0.72550 0.79850 0.21960 0.03000
C 	C 	0.67430 0.14360 0.02641 -0.09900
C 	C 	0.61260 0.07470 0.05487 -0.04300
H 	H 	0.59200 0.05040 0.06440 0.05800
C 	C 	0.59370 0.09600 0.03261 0.06800
O 	O 	0.74950 0.19470 0.02101 -0.48900
O 	O 	0.78750 0.00230 0.15436 -0.48800
O 	O 	0.68790 0.19700 0.98982 -0.47000
C 	C 	0.70790 0.18090 0.01180 0.39700
Zn	Zn	0.18927 0.47712 0.62336 1.19800
O 	O 	0.15790 0.52690 0.59771 -0.48400
C 	C 	0.42660 0.43820 0.71677 0.42300
O 	O 	0.23220 0.43640 0.64850 -0.48800
N 	N 	0.30150 0.29140 0.70530 -0.13500
O 	O 	0.22580 0.58290 0.59669 -0.48000
O 	O 	0.44500 0.41590 0.73630 -0.48800
O 	O 	0.44410 0.47760 0.70594 -0.49900
C 	C 	0.37860 0.41440 0.70461 -0.10600
C 	C 	0.34910 0.44410 0.68769 0.04800
H 	H 	0.36020 0.47860 0.68360 0.03300
C 	C 	0.16270 0.58840 0.56378 -0.10700
C 	C 	0.18370 0.56440 0.58785 0.39300
C 	C 	0.27240 0.45790 0.65828 0.41700
C 	C 	0.19140 0.62270 0.55009 0.04700
H 	H 	0.22450 0.63310 0.55670 0.03400
C 	C 	0.36280 0.36460 0.71107 -0.03100
H 	H 	0.38250 0.34410 0.72300 0.05500
C 	C 	0.30390 0.42470 0.67666 -0.10500
C 	C 	0.31730 0.34480 0.69975 0.05900
C 	C 	0.28710 0.37420 0.68290 -0.03400
H 	H 	0.25570 0.36050 0.67580 0.05400
N 	N 	0.04190 0.58500 0.52412 -0.11300
C 	C 	0.02520 0.56890 0.49880 -0.11300
H 	H 	0.04720 0.55990 0.48460 0.06000
C 	C 	0.12470 0.63020 0.51763 -0.03000
H 	H 	0.11180 0.64400 0.50170 0.05100
C 	C 	0.25340 0.27620 0.71434 0.00200
H 	H 	0.22550 0.29850 0.71960 0.02800
C 	C 	0.17430 0.64360 0.52641 -0.10600
C 	C 	0.11260 0.57470 0.55487 -0.03600
H 	H 	0.09200 0.55040 0.56440 0.05000
C 	C 	0.09370 0.59600 0.53261 0.05500
O 	O 	0.24950 0.69470 0.52101 -0.49200
O 	O 	0.28750 0.50230 0.65436 -0.49200
O 	O 	0.18790 0.69700 0.48982 -0.47400
C 	C 	0.20790 0.68090 0.51180 0.39900
Zn	Zn	0.81073 0.02288 0.62336 1.20000
O 	O 	0.84210 0.97310 0.59771 -0.47300
C 	C 	0.57340 0.06180 0.71677 0.42200
O 	O 	0.76780 0.06360 0.64850 -0.48200
N 	N 	0.69850 0.20860 0.70530 -0.13500
O 	O 	0.77420 0.91710 0.59669 -0.47700
O 	O 	0.55500 0.08410 0.73630 -0.48800
O 	O 	0.55590 0.02240 0.70594 -0.50000
C 	C 	0.62140 0.08560 0.70461 -0.10500
C 	C 	0.65090 0.05590 0.68769 0.04600
H 	H 	0.63980 0.02140 0.68360 0.03300
C 	C 	0.83730 0.91160 0.56378 -0.09400
C 	C 	0.81630 0.93560 0.58785 0.39000
C 	C 	0.72760 0.04210 0.65828 0.41400
C 	C 	0.80860 0.87730 0.55009 0.04000
H 	H 	0.77550 0.86690 0.55670 0.03800
C 	C 	0.63720 0.13540 0.71107 -0.03200
H 	H 	0.61750 0.15590 0.72300 0.05500
C 	C 	0.69610 0.07530 0.67666 -0.10300
C 	C 	0.68270 0.15520 0.69975 0.06100
C 	C 	0.71290 0.12580 0.68290 -0.03600
H 	H 	0.74430 0.13950 0.67580 0.05800
N 	N 	0.95810 0.91500 0.52412 -0.11900
C 	C 	0.97480 0.93110 0.49880 0.11100
H 	H 	0.95280 0.94010 0.48460 0.00300
C 	C 	0.87530 0.86980 0.51763 -0.03900
H 	H 	0.88820 0.85600 0.50170 0.06300
C 	C 	0.74660 0.22380 0.71434 0.00400
H 	H 	0.77450 0.20150 0.71960 0.03200
C 	C 	0.82570 0.85640 0.52641 -0.09500
C 	C 	0.88740 0.92530 0.55487 -0.04500
H 	H 	0.90800 0.94960 0.56440 0.06900
C 	C 	0.90630 0.90400 0.53261 0.07800
O 	O 	0.75050 0.80530 0.52101 -0.49000
O 	O 	0.71250 0.99770 0.65436 -0.49000
O 	O 	0.81210 0.80300 0.48982 -0.46600
C 	C 	0.79210 0.81910 0.51180 0.39600
Zn	Zn	0.31073 0.52288 0.12336 1.19900
O 	O 	0.34210 0.47310 0.09771 -0.47900
C 	C 	0.07340 0.56180 0.21677 0.42500
O 	O 	0.26780 0.56360 0.14850 -0.48600
N 	N 	0.19850 0.70860 0.20530 -0.13500
O 	O 	0.27420 0.41710 0.09669 -0.48000
O 	O 	0.05500 0.58410 0.23630 -0.50200
O 	O 	0.05590 0.52240 0.20594 -0.51300
C 	C 	0.12140 0.58560 0.20461 -0.11300
C 	C 	0.15090 0.55590 0.18769 0.05000
H 	H 	0.13980 0.52140 0.18360 0.03000
C 	C 	0.33730 0.41160 0.06378 -0.10100
C 	C 	0.31630 0.43560 0.08785 0.39200
C 	C 	0.22760 0.54210 0.15828 0.41700
C 	C 	0.30860 0.37730 0.05009 0.04400
H 	H 	0.27550 0.36690 0.05670 0.03500
C 	C 	0.13720 0.63540 0.21107 -0.02900
H 	H 	0.11750 0.65590 0.22300 0.04900
C 	C 	0.19610 0.57530 0.17666 -0.10800
C 	C 	0.18270 0.65520 0.19975 0.05700
C 	C 	0.21290 0.62580 0.18290 -0.03300
H 	H 	0.24430 0.63950 0.17580 0.05500
N 	N 	0.45810 0.41500 0.02412 -0.13400
C 	C 	0.47480 0.43110 0.99880 -0.00100
H 	H 	0.45280 0.44010 0.98460 0.03100
C 	C 	0.37530 0.36980 0.01763 -0.03600
H 	H 	0.38820 0.35600 0.00170 0.05700
C 	C 	0.24660 0.72380 0.21434 0.00300
H 	H 	0.27450 0.70150 0.21960 0.03000
C 	C 	0.32570 0.35640 0.02641 -0.10100
C 	C 	0.38740 0.42530 0.05487 -0.04200
H 	H 	0.40800 0.44960 0.06440 0.05800
C 	C 	0.40630 0.40400 0.03261 0.06700
O 	O 	0.25050 0.30530 0.02101 -0.49300
O 	O 	0.21250 0.49770 0.15436 -0.49400
O 	O 	0.31210 0.30300 0.98982 -0.47100
C 	C 	0.29210 0.31910 0.01180 0.39800
Zn	Zn	0.77288 0.56073 0.87336 1.20000
O 	O 	0.72310 0.59210 0.84771 -0.47700
C 	C 	0.81180 0.32340 0.96677 0.42100
O 	O 	0.81360 0.51780 0.89850 -0.48100
N 	N 	0.95860 0.44850 0.95530 -0.11900
O 	O 	0.66710 0.52420 0.84669 -0.47800
O 	O 	0.83410 0.30500 0.98630 -0.48200
O 	O 	0.77240 0.30590 0.95594 -0.49700
C 	C 	0.83560 0.37140 0.95461 -0.10000
C 	C 	0.80590 0.40090 0.93769 0.04400
H 	H 	0.77140 0.38980 0.93360 0.03500
C 	C 	0.66160 0.58730 0.81378 -0.09900
C 	C 	0.68560 0.56630 0.83785 0.39100
C 	C 	0.79210 0.47760 0.90828 0.41500
C 	C 	0.62730 0.55860 0.80009 0.04300
H 	H 	0.61690 0.52550 0.80670 0.03600
C 	C 	0.88540 0.38720 0.96107 -0.03400
H 	H 	0.90590 0.36750 0.97300 0.06600
C 	C 	0.82530 0.44610 0.92666 -0.09900
C 	C 	0.90520 0.43270 0.94975 0.07100
C 	C 	0.87580 0.46290 0.93290 -0.03800
H 	H 	0.88950 0.49430 0.92580 0.06300
N 	N 	0.66500 0.70810 0.77412 -0.13400
C 	C 	0.68110 0.72480 0.74880 -0.00100
H 	H 	0.69010 0.70280 0.73460 0.03100
C 	C 	0.61980 0.62530 0.76763 -0.03700
H 	H 	0.60600 0.63820 0.75170 0.05700
C 	C 	0.97380 0.49660 0.96434 0.10300
H 	H 	0.95150 0.52450 0.96960 0.00700
C 	C 	0.60640 0.57570 0.77641 -0.10000
C 	C 	0.67530 0.63740 0.80487 -0.04300
H 	H 	0.69960 0.65800 0.81440 0.05900
C 	C 	0.65400 0.65630 0.78261 0.06800
O 	O 	0.55530 0.50050 0.77101 -0.49100
O 	O 	0.74770 0.46250 0.90436 -0.49100
O 	O 	0.55300 0.56210 0.73982 -0.47000
C 	C 	0.56910 0.54210 0.76180 0.39700
Zn	Zn	0.27288 0.06073 0.37336 1.19900
O 	O 	0.22310 0.09210 0.34771 -0.48000
C 	C 	0.31180 0.82340 0.46677 0.42300
O 	O 	0.31360 0.01780 0.39850 -0.48500
N 	N 	0.45860 0.94850 0.45530 -0.13500
O 	O 	0.16710 0.02420 0.34669 -0.48200
O 	O 	0.33410 0.80500 0.48630 -0.48800
O 	O 	0.27240 0.80590 0.45594 -0.50000
C 	C 	0.33560 0.87140 0.45461 -0.10700
C 	C 	0.30590 0.90090 0.43769 0.04800
H 	H 	0.27140 0.88980 0.43360 0.03200
C 	C 	0.16160 0.08730 0.31378 -0.10500
C 	C 	0.18560 0.06630 0.33785 0.39200
C 	C 	0.29210 0.97760 0.40828 0.41600
C 	C 	0.12730 0.05860 0.30009 0.04500
H 	H 	0.11690 0.02550 0.30670 0.03200
C 	C 	0.38540 0.88720 0.46107 -0.03100
H 	H 	0.40590 0.86750 0.47300 0.05500
C 	C 	0.32530 0.94610 0.42666 -0.10500
C 	C 	0.40520 0.93270 0.44975 0.06000
C 	C 	0.37580 0.96290 0.43290 -0.03400
H 	H 	0.38950 0.99430 0.42580 0.05600
N 	N 	0.16500 0.20810 0.27412 -0.13400
C 	C 	0.18110 0.22480 0.24880 -0.00300
H 	H 	0.19010 0.20280 0.23460 0.03000
C 	C 	0.11980 0.12530 0.26763 -0.03500
H 	H 	0.10600 0.13820 0.25170 0.05100
C 	C 	0.47380 0.99660 0.46434 0.00300
H 	H 	0.45150 0.02450 0.46960 0.03000
C 	C 	0.10640 0.07570 0.27641 -0.10700
C 	C 	0.17530 0.13740 0.30487 -0.04100
H 	H 	0.19960 0.15800 0.31440 0.05700
C 	C 	0.15400 0.15630 0.28261 0.06200
O 	O 	0.05530 0.00050 0.27101 -0.50300
O 	O 	0.24770 0.96250 0.40436 -0.49300
O 	O 	0.05300 0.06210 0.23982 -0.48400
C 	C 	0.06910 0.04210 0.26180 0.39800
Zn	Zn	0.72712 0.43927 0.37336 1.19900
O 	O 	0.77690 0.40790 0.34771 -0.47700
C 	C 	0.68820 0.67660 0.46677 0.42200
O 	O 	0.68640 0.48220 0.39850 -0.48500
N 	N 	0.54140 0.55150 0.45530 -0.13500
O 	O 	0.83290 0.47580 0.34669 -0.47300
O 	O 	0.66590 0.69500 0.48630 -0.48700
O 	O 	0.72760 0.69410 0.45594 -0.49800
C 	C 	0.66440 0.62860 0.45461 -0.10500
C 	C 	0.69410 0.59910 0.43769 0.04600
H 	H 	0.72860 0.61020 0.43360 0.03500
C 	C 	0.83840 0.41270 0.31378 -0.09300
C 	C 	0.81440 0.43370 0.33785 0.39000
C 	C 	0.70790 0.52240 0.40828 0.41600
C 	C 	0.87270 0.44140 0.30009 0.03900
H 	H 	0.88310 0.47450 0.30670 0.04200
C 	C 	0.61460 0.61280 0.46107 -0.03200
H 	H 	0.59410 0.63250 0.47300 0.05500
C 	C 	0.67470 0.55390 0.42666 -0.10300
C 	C 	0.59480 0.56730 0.44975 0.06100
C 	C 	0.62420 0.53710 0.43290 -0.03500
H 	H 	0.61050 0.50570 0.42580 0.05600
N 	N 	0.83500 0.29190 0.27412 -0.13400
C 	C 	0.81890 0.27520 0.24880 0.00100
H 	H 	0.80990 0.29720 0.23460 0.03300
C 	C 	0.88020 0.37470 0.26763 -0.03900
H 	H 	0.89400 0.36180 0.25170 0.06400
C 	C 	0.52620 0.50340 0.46434 0.00300
H 	H 	0.54850 0.47550 0.46960 0.03000
C 	C 	0.89360 0.42430 0.27641 -0.09000
C 	C 	0.82470 0.36260 0.30487 -0.04500
H 	H 	0.80040 0.34200 0.31440 0.06000
C 	C 	0.84600 0.34370 0.28261 0.07300
O 	O 	0.94470 0.49950 0.27101 -0.47000
O 	O 	0.75230 0.53750 0.40436 -0.49000
O 	O 	0.94700 0.43790 0.23982 -0.44800
C 	C 	0.93090 0.45790 0.26180 0.39300
Zn	Zn	0.22712 0.93927 0.87336 1.19800
O 	O 	0.27690 0.90790 0.84771 -0.48000
C 	C 	0.18820 0.17660 0.96677 0.42400
O 	O 	0.18640 0.98220 0.89850 -0.48800
N 	N 	0.04140 0.05150 0.95530 -0.11500
O 	O 	0.33290 0.97580 0.84669 -0.47800
O 	O 	0.16590 0.19500 0.98630 -0.49200
O 	O 	0.22760 0.19410 0.95594 -0.50100
C 	C 	0.16440 0.12860 0.95461 -0.11200
C 	C 	0.19410 0.09910 0.93769 0.05100
H 	H 	0.22860 0.11020 0.93360 0.03200
C 	C 	0.33840 0.91270 0.81378 -0.10000
C 	C 	0.31440 0.93370 0.83785 0.39200
C 	C 	0.20790 0.02240 0.90828 0.41700
C 	C 	0.37270 0.94140 0.80009 0.04300
H 	H 	0.38310 0.97450 0.80670 0.03600
C 	C 	0.11460 0.11280 0.96107 -0.02500
H 	H 	0.09410 0.13250 0.97300 0.04800
C 	C 	0.17470 0.05390 0.92666 -0.11000
C 	C 	0.09480 0.06730 0.94975 0.04800
C 	C 	0.12420 0.03710 0.93290 -0.02900
H 	H 	0.11050 0.00570 0.92580 0.05000
N 	N 	0.33500 0.79190 0.77412 -0.13400
C 	C 	0.31890 0.77520 0.74880 -0.00100
H 	H 	0.30990 0.79720 0.73460 0.03100
C 	C 	0.38020 0.87470 0.76763 -0.03600
H 	H 	0.39400 0.86180 0.75170 0.05700
C 	C 	0.02620 0.00340 0.96434 -0.09400
H 	H 	0.04850 0.97550 0.96960 0.05400
C 	C 	0.39360 0.92430 0.77641 -0.10000
C 	C 	0.32470 0.86260 0.80487 -0.04200
H 	H 	0.30040 0.84200 0.81440 0.05700
C 	C 	0.34600 0.84370 0.78261 0.06700
O 	O 	0.44470 0.99950 0.77101 -0.49000
O 	O 	0.25230 0.03750 0.90436 -0.49300
O 	O 	0.44700 0.93790 0.73982 -0.47000
C 	C 	0.43090 0.95790 0.76180 0.39700
Zn	Zn	0.18927 0.02288 0.62336 1.19700
O 	O 	0.15790 0.97310 0.59771 -0.48400
C 	C 	0.42660 0.06180 0.71677 0.42300
O 	O 	0.23220 0.06360 0.64850 -0.48700
N 	N 	0.30150 0.20860 0.70530 -0.13500
O 	O 	0.22580 0.91710 0.59669 -0.48000
O 	O 	0.44500 0.08410 0.73630 -0.48800
O 	O 	0.44410 0.02240 0.70594 -0.50000
C 	C 	0.37860 0.08560 0.70461 -0.10600
C 	C 	0.34910 0.05590 0.68769 0.04700
H 	H 	0.36020 0.02140 0.68360 0.03300
C 	C 	0.16270 0.91160 0.56378 -0.10700
C 	C 	0.18370 0.93560 0.58785 0.39300
C 	C 	0.27240 0.04210 0.65828 0.41600
C 	C 	0.19140 0.87730 0.55009 0.04700
H 	H 	0.22450 0.86690 0.55670 0.03400
C 	C 	0.36280 0.13540 0.71107 -0.03100
H 	H 	0.38250 0.15590 0.72300 0.05500
C 	C 	0.30390 0.07530 0.67666 -0.10500
C 	C 	0.31730 0.15520 0.69975 0.05900
C 	C 	0.28710 0.12580 0.68290 -0.03400
H 	H 	0.25570 0.13950 0.67580 0.05400
N 	N 	0.04190 0.91500 0.52412 -0.11300
C 	C 	0.02520 0.93110 0.49880 -0.11200
H 	H 	0.04720 0.94010 0.48460 0.06000
C 	C 	0.12470 0.86980 0.51763 -0.03000
H 	H 	0.11180 0.85600 0.50170 0.05200
C 	C 	0.25340 0.22380 0.71434 0.00200
H 	H 	0.22550 0.20150 0.71960 0.02800
C 	C 	0.17430 0.85640 0.52641 -0.10600
C 	C 	0.11260 0.92530 0.55487 -0.03600
H 	H 	0.09200 0.94960 0.56440 0.05100
C 	C 	0.09370 0.90400 0.53261 0.05500
O 	O 	0.24950 0.80530 0.52101 -0.49200
O 	O 	0.28750 0.99770 0.65436 -0.49100
O 	O 	0.18790 0.80300 0.48982 -0.47400
C 	C 	0.20790 0.81910 0.51180 0.39900
Zn	Zn	0.68927 0.52288 0.12336 1.19900
O 	O 	0.65790 0.47310 0.09771 -0.47900
C 	C 	0.92660 0.56180 0.21677 0.41600
O 	O 	0.73220 0.56360 0.14850 -0.48400
N 	N 	0.80150 0.70860 0.20530 -0.13500
O 	O 	0.72580 0.41710 0.09669 -0.47700
O 	O 	0.94500 0.58410 0.23630 -0.46500
O 	O 	0.94410 0.52240 0.20594 -0.47700
C 	C 	0.87860 0.58560 0.20461 -0.09600
C 	C 	0.84910 0.55590 0.18769 0.04300
H 	H 	0.86020 0.52140 0.18360 0.03800
C 	C 	0.66270 0.41160 0.06378 -0.09900
C 	C 	0.68370 0.43560 0.08785 0.39100
C 	C 	0.77240 0.54210 0.15828 0.41500
C 	C 	0.69140 0.37730 0.05009 0.04200
H 	H 	0.72450 0.36690 0.05670 0.03800
C 	C 	0.86280 0.63540 0.21107 -0.03600
H 	H 	0.88250 0.65590 0.22300 0.06200
C 	C 	0.80390 0.57530 0.17666 -0.09900
C 	C 	0.81730 0.65520 0.19975 0.06500
C 	C 	0.78710 0.62580 0.18290 -0.03700
H 	H 	0.75570 0.63950 0.17580 0.05700
N 	N 	0.54190 0.41500 0.02412 -0.13400
C 	C 	0.52520 0.43110 0.99880 -0.00100
H 	H 	0.54720 0.44010 0.98460 0.03100
C 	C 	0.62470 0.36980 0.01763 -0.03700
H 	H 	0.61180 0.35600 0.00170 0.05700
C 	C 	0.75340 0.72380 0.21434 0.00400
H 	H 	0.72550 0.70150 0.21960 0.03000
C 	C 	0.67430 0.35640 0.02641 -0.09900
C 	C 	0.61260 0.42530 0.05487 -0.04300
H 	H 	0.59200 0.44960 0.06440 0.05800
C 	C 	0.59370 0.40400 0.03261 0.06800
O 	O 	0.74950 0.30530 0.02101 -0.48900
O 	O 	0.78750 0.49770 0.15436 -0.48900
O 	O 	0.68790 0.30300 0.98982 -0.47000
C 	C 	0.70790 0.31910 0.01180 0.39700
Zn	Zn	0.31073 0.97712 0.12336 1.19900
O 	O 	0.34210 0.02690 0.09771 -0.47900
C 	C 	0.07340 0.93820 0.21677 0.42500
O 	O 	0.26780 0.93640 0.14850 -0.48600
N 	N 	0.19850 0.79140 0.20530 -0.13500
O 	O 	0.27420 0.08290 0.09669 -0.47900
O 	O 	0.05500 0.91590 0.23630 -0.50200
O 	O 	0.05590 0.97760 0.20594 -0.51300
C 	C 	0.12140 0.91440 0.20461 -0.11300
C 	C 	0.15090 0.94410 0.18769 0.05000
H 	H 	0.13980 0.97860 0.18360 0.03000
C 	C 	0.33730 0.08840 0.06378 -0.10100
C 	C 	0.31630 0.06440 0.08785 0.39200
C 	C 	0.22760 0.95790 0.15828 0.41600
C 	C 	0.30860 0.12270 0.05009 0.04400
H 	H 	0.27550 0.13310 0.05670 0.03500
C 	C 	0.13720 0.86460 0.21107 -0.02900
H 	H 	0.11750 0.84410 0.22300 0.04900
C 	C 	0.19610 0.92470 0.17666 -0.10800
C 	C 	0.18270 0.84480 0.19975 0.05700
C 	C 	0.21290 0.87420 0.18290 -0.03300
H 	H 	0.24430 0.86050 0.17580 0.05500
N 	N 	0.45810 0.08500 0.02412 -0.13400
C 	C 	0.47480 0.06890 0.99880 -0.00100
H 	H 	0.45280 0.05990 0.98460 0.03100
C 	C 	0.37530 0.13020 0.01763 -0.03600
H 	H 	0.38820 0.14400 0.00170 0.05700
C 	C 	0.24660 0.77620 0.21434 0.00300
H 	H 	0.27450 0.79850 0.21960 0.03000
C 	C 	0.32570 0.14360 0.02641 -0.10100
C 	C 	0.38740 0.07470 0.05487 -0.04200
H 	H 	0.40800 0.05040 0.06440 0.05800
C 	C 	0.40630 0.09600 0.03261 0.06700
O 	O 	0.25050 0.19470 0.02101 -0.49300
O 	O 	0.21250 0.00230 0.15436 -0.49300
O 	O 	0.31210 0.19700 0.98982 -0.47100
C 	C 	0.29210 0.18090 0.01180 0.39800
Zn	Zn	0.81073 0.47712 0.62336 1.20000
O 	O 	0.84210 0.52690 0.59771 -0.47300
C 	C 	0.57340 0.43820 0.71677 0.42200
O 	O 	0.76780 0.43640 0.64850 -0.48200
N 	N 	0.69850 0.29140 0.70530 -0.13500
O 	O 	0.77420 0.58290 0.59669 -0.47700
O 	O 	0.55500 0.41590 0.73630 -0.48700
O 	O 	0.55590 0.47760 0.70594 -0.49900
C 	C 	0.62140 0.41440 0.70461 -0.10500
C 	C 	0.65090 0.44410 0.68769 0.04600
H 	H 	0.63980 0.47860 0.68360 0.03400
C 	C 	0.83730 0.58840 0.56378 -0.09400
C 	C 	0.81630 0.56440 0.58785 0.39000
C 	C 	0.72760 0.45790 0.65828 0.41500
C 	C 	0.80860 0.62270 0.55009 0.04000
H 	H 	0.77550 0.63310 0.55670 0.03800
C 	C 	0.63720 0.36460 0.71107 -0.03200
H 	H 	0.61750 0.34410 0.72300 0.05500
C 	C 	0.69610 0.42470 0.67666 -0.10300
C 	C 	0.68270 0.34480 0.69975 0.06100
C 	C 	0.71290 0.37420 0.68290 -0.03600
H 	H 	0.74430 0.36050 0.67580 0.05800
N 	N 	0.95810 0.58500 0.52412 -0.11900
C 	C 	0.97480 0.56890 0.49880 0.11200
H 	H 	0.95280 0.55990 0.48460 0.00300
C 	C 	0.87530 0.63020 0.51763 -0.03900
H 	H 	0.88820 0.64400 0.50170 0.06300
C 	C 	0.74660 0.27620 0.71434 0.00400
H 	H 	0.77450 0.29850 0.71960 0.03200
C 	C 	0.82570 0.64360 0.52641 -0.09500
C 	C 	0.88740 0.57470 0.55487 -0.04500
H 	H 	0.90800 0.55040 0.56440 0.06900
C 	C 	0.90630 0.59600 0.53261 0.07800
O 	O 	0.75050 0.69470 0.52101 -0.49000
O 	O 	0.71250 0.50230 0.65436 -0.49100
O 	O 	0.81210 0.69700 0.48982 -0.46600
C 	C 	0.79210 0.68090 0.51180 0.39600
Zn	Zn	0.72712 0.56073 0.62664 1.19900
O 	O 	0.77690 0.59210 0.65229 -0.47700
C 	C 	0.68820 0.32340 0.53323 0.42200
O 	O 	0.68640 0.51780 0.60150 -0.48500
N 	N 	0.54140 0.44850 0.54470 -0.13500
O 	O 	0.83290 0.52420 0.65331 -0.47300
O 	O 	0.66590 0.30500 0.51370 -0.48700
O 	O 	0.72760 0.30590 0.54406 -0.49800
C 	C 	0.66440 0.37140 0.54539 -0.10500
C 	C 	0.69410 0.40090 0.56231 0.04600
H 	H 	0.72860 0.38980 0.56640 0.03500
C 	C 	0.83840 0.58730 0.68622 -0.09300
C 	C 	0.81440 0.56630 0.66215 0.39000
C 	C 	0.70790 0.47760 0.59172 0.41600
C 	C 	0.87270 0.55860 0.69991 0.03900
H 	H 	0.88310 0.52550 0.69330 0.04200
C 	C 	0.61460 0.38720 0.53893 -0.03200
H 	H 	0.59410 0.36750 0.52700 0.05500
C 	C 	0.67470 0.44610 0.57334 -0.10300
C 	C 	0.59480 0.43270 0.55025 0.06100
C 	C 	0.62420 0.46290 0.56710 -0.03500
H 	H 	0.61050 0.49430 0.57420 0.05600
N 	N 	0.83500 0.70810 0.72588 -0.13400
C 	C 	0.81890 0.72480 0.75120 0.00100
H 	H 	0.80990 0.70280 0.76540 0.03300
C 	C 	0.88020 0.62530 0.73237 -0.03900
H 	H 	0.89400 0.63820 0.74830 0.06400
C 	C 	0.52620 0.49660 0.53566 0.00300
H 	H 	0.54850 0.52450 0.53040 0.03000
C 	C 	0.89360 0.57570 0.72359 -0.09000
C 	C 	0.82470 0.63740 0.69513 -0.04500
H 	H 	0.80040 0.65800 0.68560 0.06000
C 	C 	0.84600 0.65630 0.71739 0.07300
O 	O 	0.94470 0.50050 0.72899 -0.47000
O 	O 	0.75230 0.46250 0.59564 -0.49000
O 	O 	0.94700 0.56210 0.76018 -0.44800
C 	C 	0.93090 0.54210 0.73820 0.39300
Zn	Zn	0.22712 0.06073 0.12664 1.19800
O 	O 	0.27690 0.09210 0.15229 -0.48000
C 	C 	0.18820 0.82340 0.03323 0.42400
O 	O 	0.18640 0.01780 0.10150 -0.48800
N 	N 	0.04140 0.94850 0.04470 -0.11500
O 	O 	0.33290 0.02420 0.15331 -0.47800
O 	O 	0.16590 0.80500 0.01370 -0.49200
O 	O 	0.22760 0.80590 0.04406 -0.50100
C 	C 	0.16440 0.87140 0.04539 -0.11200
C 	C 	0.19410 0.90090 0.06231 0.05100
H 	H 	0.22860 0.88980 0.06640 0.03200
C 	C 	0.33840 0.08730 0.18622 -0.10000
C 	C 	0.31440 0.06630 0.16215 0.39200
C 	C 	0.20790 0.97760 0.09172 0.41700
C 	C 	0.37270 0.05860 0.19991 0.04300
H 	H 	0.38310 0.02550 0.19330 0.03600
C 	C 	0.11460 0.88720 0.03893 -0.02500
H 	H 	0.09410 0.86750 0.02700 0.04800
C 	C 	0.17470 0.94610 0.07334 -0.11000
C 	C 	0.09480 0.93270 0.05025 0.04800
C 	C 	0.12420 0.96290 0.06710 -0.02900
H 	H 	0.11050 0.99430 0.07420 0.05000
N 	N 	0.33500 0.20810 0.22588 -0.13400
C 	C 	0.31890 0.22480 0.25120 -0.00100
H 	H 	0.30990 0.20280 0.26540 0.03100
C 	C 	0.38020 0.12530 0.23237 -0.03600
H 	H 	0.39400 0.13820 0.24830 0.05700
C 	C 	0.02620 0.99660 0.03566 -0.09400
H 	H 	0.04850 0.02450 0.03040 0.05400
C 	C 	0.39360 0.07570 0.22359 -0.10000
C 	C 	0.32470 0.13740 0.19513 -0.04200
H 	H 	0.30040 0.15800 0.18560 0.05700
C 	C 	0.34600 0.15630 0.21739 0.06700
O 	O 	0.44470 0.00050 0.22899 -0.49000
O 	O 	0.25230 0.96250 0.09564 -0.49300
O 	O 	0.44700 0.06210 0.26018 -0.47000
C 	C 	0.43090 0.04210 0.23820 0.39700
Zn	Zn	0.77288 0.43927 0.12664 1.20000
O 	O 	0.72310 0.40790 0.15229 -0.47700
C 	C 	0.81180 0.67660 0.03323 0.42100
O 	O 	0.81360 0.48220 0.10150 -0.48100
N 	N 	0.95860 0.55150 0.04470 -0.11900
O 	O 	0.66710 0.47580 0.15331 -0.47800
O 	O 	0.83410 0.69500 0.01370 -0.48200
O 	O 	0.77240 0.69410 0.04406 -0.49700
C 	C 	0.83560 0.62860 0.04539 -0.10000
C 	C 	0.80590 0.59910 0.06231 0.04400
H 	H 	0.77140 0.61020 0.06640 0.03500
C 	C 	0.66160 0.41270 0.18622 -0.09900
C 	C 	0.68560 0.43370 0.16215 0.39100
C 	C 	0.79210 0.52240 0.09172 0.41500
C 	C 	0.62730 0.44140 0.19991 0.04300
H 	H 	0.61690 0.47450 0.19330 0.03600
C 	C 	0.88540 0.61280 0.03893 -0.03400
H 	H 	0.90590 0.63250 0.02700 0.06600
C 	C 	0.82530 0.55390 0.07334 -0.09900
C 	C 	0.90520 0.56730 0.05025 0.07100
C 	C 	0.87580 0.53710 0.06710 -0.03800
H 	H 	0.88950 0.50570 0.07420 0.06300
N 	N 	0.66500 0.29190 0.22588 -0.13400
C 	C 	0.68110 0.27520 0.25120 -0.00100
H 	H 	0.69010 0.29720 0.26540 0.03100
C 	C 	0.61980 0.37470 0.23237 -0.03700
H 	H 	0.60600 0.36180 0.24830 0.05700
C 	C 	0.97380 0.50340 0.03566 0.10300
H 	H 	0.95150 0.47550 0.03040 0.00700
C 	C 	0.60640 0.42430 0.22359 -0.10000
C 	C 	0.67530 0.36260 0.19513 -0.04300
H 	H 	0.69960 0.34200 0.18560 0.05900
C 	C 	0.65400 0.34370 0.21739 0.06800
O 	O 	0.55530 0.49950 0.22899 -0.49100
O 	O 	0.74770 0.53750 0.09564 -0.49100
O 	O 	0.55300 0.43790 0.26018 -0.47000
C 	C 	0.56910 0.45790 0.23820 0.39700
Zn	Zn	0.27288 0.93927 0.62664 1.19900
O 	O 	0.22310 0.90790 0.65229 -0.48000
C 	C 	0.31180 0.17660 0.53323 0.42300
O 	O 	0.31360 0.98220 0.60150 -0.48500
N 	N 	0.45860 0.05150 0.54470 -0.13500
O 	O 	0.16710 0.97580 0.65331 -0.48200
O 	O 	0.33410 0.19500 0.51370 -0.48800
O 	O 	0.27240 0.19410 0.54406 -0.50000
C 	C 	0.33560 0.12860 0.54539 -0.10700
C 	C 	0.30590 0.09910 0.56231 0.04800
H 	H 	0.27140 0.11020 0.56640 0.03200
C 	C 	0.16160 0.91270 0.68622 -0.10500
C 	C 	0.18560 0.93370 0.66215 0.39200
C 	C 	0.29210 0.02240 0.59172 0.41600
C 	C 	0.12730 0.94140 0.69991 0.04500
H 	H 	0.11690 0.97450 0.69330 0.03200
C 	C 	0.38540 0.11280 0.53893 -0.03100
H 	H 	0.40590 0.13250 0.52700 0.05500
C 	C 	0.32530 0.05390 0.57334 -0.10500
C 	C 	0.40520 0.06730 0.55025 0.06000
C 	C 	0.37580 0.03710 0.56710 -0.03400
H 	H 	0.38950 0.00570 0.57420 0.05600
N 	N 	0.16500 0.79190 0.72588 -0.13400
C 	C 	0.18110 0.77520 0.75120 -0.00300
H 	H 	0.19010 0.79720 0.76540 0.03000
C 	C 	0.11980 0.87470 0.73237 -0.03500
H 	H 	0.10600 0.86180 0.74830 0.05100
C 	C 	0.47380 0.00340 0.53566 0.00300
H 	H 	0.45150 0.97550 0.53040 0.03000
C 	C 	0.10640 0.92430 0.72359 -0.10700
C 	C 	0.17530 0.86260 0.69513 -0.04100
H 	H 	0.19960 0.84200 0.68560 0.05700
C 	C 	0.15400 0.84370 0.71739 0.06200
O 	O 	0.05530 0.99950 0.72899 -0.50300
O 	O 	0.24770 0.03750 0.59564 -0.49300
O 	O 	0.05300 0.93790 0.76018 -0.48400
C 	C 	0.06910 0.95790 0.73820 0.39800
Zn	Zn	0.31073 0.02288 0.87664 1.19900
O 	O 	0.34210 0.97310 0.90229 -0.47900
C 	C 	0.07340 0.06180 0.78323 0.42500
O 	O 	0.26780 0.06360 0.85150 -0.48600
N 	N 	0.19850 0.20860 0.79470 -0.13500
O 	O 	0.27420 0.91710 0.90331 -0.47900
O 	O 	0.05500 0.08410 0.76370 -0.50200
O 	O 	0.05590 0.02240 0.79406 -0.51300
C 	C 	0.12140 0.08560 0.79539 -0.11300
C 	C 	0.15090 0.05590 0.81231 0.05000
H 	H 	0.13980 0.02140 0.81640 0.03000
C 	C 	0.33730 0.91160 0.93622 -0.10100
C 	C 	0.31630 0.93560 0.91215 0.39200
C 	C 	0.22760 0.04210 0.84172 0.41600
C 	C 	0.30860 0.87730 0.94991 0.04400
H 	H 	0.27550 0.86690 0.94330 0.03500
C 	C 	0.13720 0.13540 0.78893 -0.02900
H 	H 	0.11750 0.15590 0.77700 0.04900
C 	C 	0.19610 0.07530 0.82334 -0.10800
C 	C 	0.18270 0.15520 0.80025 0.05700
C 	C 	0.21290 0.12580 0.81710 -0.03300
H 	H 	0.24430 0.13950 0.82420 0.05500
N 	N 	0.45810 0.91500 0.97588 -0.13400
C 	C 	0.47480 0.93110 0.00120 -0.00100
H 	H 	0.45280 0.94010 0.01540 0.03100
C 	C 	0.37530 0.86980 0.98237 -0.03600
H 	H 	0.38820 0.85600 0.99830 0.05700
C 	C 	0.24660 0.22380 0.78566 0.00300
H 	H 	0.27450 0.20150 0.78040 0.03000
C 	C 	0.32570 0.85640 0.97359 -0.10100
C 	C 	0.38740 0.92530 0.94513 -0.04200
H 	H 	0.40800 0.94960 0.93560 0.05800
C 	C 	0.40630 0.90400 0.96739 0.06700
O 	O 	0.25050 0.80530 0.97899 -0.49300
O 	O 	0.21250 0.99770 0.84564 -0.49300
O 	O 	0.31210 0.80300 0.01018 -0.47100
C 	C 	0.29210 0.81910 0.98820 0.39800
Zn	Zn	0.81073 0.52288 0.37664 1.20000
O 	O 	0.84210 0.47310 0.40229 -0.47300
C 	C 	0.57340 0.56180 0.28323 0.42200
O 	O 	0.76780 0.56360 0.35150 -0.48200
N 	N 	0.69850 0.70860 0.29470 -0.13500
O 	O 	0.77420 0.41710 0.40331 -0.47700
O 	O 	0.55500 0.58410 0.26370 -0.48700
O 	O 	0.55590 0.52240 0.29406 -0.49900
C 	C 	0.62140 0.58560 0.29539 -0.10500
C 	C 	0.65090 0.55590 0.31231 0.04600
H 	H 	0.63980 0.52140 0.31640 0.03400
C 	C 	0.83730 0.41160 0.43622 -0.09400
C 	C 	0.81630 0.43560 0.41215 0.39000
C 	C 	0.72760 0.54210 0.34172 0.41500
C 	C 	0.80860 0.37730 0.44991 0.04000
H 	H 	0.77550 0.36690 0.44330 0.03800
C 	C 	0.63720 0.63540 0.28893 -0.03200
H 	H 	0.61750 0.65590 0.27700 0.05500
C 	C 	0.69610 0.57530 0.32334 -0.10300
C 	C 	0.68270 0.65520 0.30025 0.06100
C 	C 	0.71290 0.62580 0.31710 -0.03600
H 	H 	0.74430 0.63950 0.32420 0.05800
N 	N 	0.95810 0.41500 0.47588 -0.11900
C 	C 	0.97480 0.43110 0.50120 0.11200
H 	H 	0.95280 0.44010 0.51540 0.00300
C 	C 	0.87530 0.36980 0.48237 -0.03900
H 	H 	0.88820 0.35600 0.49830 0.06300
C 	C 	0.74660 0.72380 0.28566 0.00400
H 	H 	0.77450 0.70150 0.28040 0.03200
C 	C 	0.82570 0.35640 0.47359 -0.09500
C 	C 	0.88740 0.42530 0.44513 -0.04500
H 	H 	0.90800 0.44960 0.43560 0.06900
C 	C 	0.90630 0.40400 0.46739 0.07800
O 	O 	0.75050 0.30530 0.47899 -0.49000
O 	O 	0.71250 0.49770 0.34564 -0.49100
O 	O 	0.81210 0.30300 0.51018 -0.46600
C 	C 	0.79210 0.31910 0.48820 0.39600
Zn	Zn	0.18927 0.97712 0.37664 1.19700
O 	O 	0.15790 0.02690 0.40229 -0.48400
C 	C 	0.42660 0.93820 0.28323 0.42300
O 	O 	0.23220 0.93640 0.35150 -0.48700
N 	N 	0.30150 0.79140 0.29470 -0.13500
O 	O 	0.22580 0.08290 0.40331 -0.48000
O 	O 	0.44500 0.91590 0.26370 -0.48800
O 	O 	0.44410 0.97760 0.29406 -0.50000
C 	C 	0.37860 0.91440 0.29539 -0.10600
C 	C 	0.34910 0.94410 0.31231 0.04700
H 	H 	0.36020 0.97860 0.31640 0.03300
C 	C 	0.16270 0.08840 0.43622 -0.10700
C 	C 	0.18370 0.06440 0.41215 0.39300
C 	C 	0.27240 0.95790 0.34172 0.41600
C 	C 	0.19140 0.12270 0.44991 0.04700
H 	H 	0.22450 0.13310 0.44330 0.03400
C 	C 	0.36280 0.86460 0.28893 -0.03100
H 	H 	0.38250 0.84410 0.27700 0.05500
C 	C 	0.30390 0.92470 0.32334 -0.10500
C 	C 	0.31730 0.84480 0.30025 0.05900
C 	C 	0.28710 0.87420 0.31710 -0.03400
H 	H 	0.25570 0.86050 0.32420 0.05400
N 	N 	0.04190 0.08500 0.47588 -0.11300
C 	C 	0.02520 0.06890 0.50120 -0.11200
H 	H 	0.04720 0.05990 0.51540 0.06000
C 	C 	0.12470 0.13020 0.48237 -0.03000
H 	H 	0.11180 0.14400 0.49830 0.05200
C 	C 	0.25340 0.77620 0.28566 0.00200
H 	H 	0.22550 0.79850 0.28040 0.02800
C 	C 	0.17430 0.14360 0.47359 -0.10600
C 	C 	0.11260 0.07470 0.44513 -0.03600
H 	H 	0.09200 0.05040 0.43560 0.05100
C 	C 	0.09370 0.09600 0.46739 0.05500
O 	O 	0.24950 0.19470 0.47899 -0.49200
O 	O 	0.28750 0.00230 0.34564 -0.49100
O 	O 	0.18790 0.19700 0.51018 -0.47400
C 	C 	0.20790 0.18090 0.48820 0.39900
Zn	Zn	0.68927 0.47712 0.87664 1.19900
O 	O 	0.65790 0.52690 0.90229 -0.47900
C 	C 	0.92660 0.43820 0.78323 0.41600
O 	O 	0.73220 0.43640 0.85150 -0.48400
N 	N 	0.80150 0.29140 0.79470 -0.13500
O 	O 	0.72580 0.58290 0.90331 -0.47700
O 	O 	0.94500 0.41590 0.76370 -0.46500
O 	O 	0.94410 0.47760 0.79406 -0.47700
C 	C 	0.87860 0.41440 0.79539 -0.09600
C 	C 	0.84910 0.44410 0.81231 0.04300
H 	H 	0.86020 0.47860 0.81640 0.03800
C 	C 	0.66270 0.58840 0.93622 -0.09900
C 	C 	0.68370 0.56440 0.91215 0.39100
C 	C 	0.77240 0.45790 0.84172 0.41500
C 	C 	0.69140 0.62270 0.94991 0.04200
H 	H 	0.72450 0.63310 0.94330 0.03800
C 	C 	0.86280 0.36460 0.78893 -0.03600
H 	H 	0.88250 0.34410 0.77700 0.06200
C 	C 	0.80390 0.42470 0.82334 -0.09900
C 	C 	0.81730 0.34480 0.80025 0.06500
C 	C 	0.78710 0.37420 0.81710 -0.03700
H 	H 	0.75570 0.36050 0.82420 0.05700
N 	N 	0.54190 0.58500 0.97588 -0.13400
C 	C 	0.52520 0.56890 0.00120 -0.00100
H 	H 	0.54720 0.55990 0.01540 0.03100
C 	C 	0.62470 0.63020 0.98237 -0.03700
H 	H 	0.61180 0.64400 0.99830 0.05700
C 	C 	0.75340 0.27620 0.78566 0.00400
H 	H 	0.72550 0.29850 0.78040 0.03000
C 	C 	0.67430 0.64360 0.97359 -0.09900
C 	C 	0.61260 0.57470 0.94513 -0.04300
H 	H 	0.59200 0.55040 0.93560 0.05800
C 	C 	0.59370 0.59600 0.96739 0.06800
O 	O 	0.74950 0.69470 0.97899 -0.48900
O 	O 	0.78750 0.50230 0.84564 -0.48900
O 	O 	0.68790 0.69700 0.01018 -0.47000
C 	C 	0.70790 0.68090 0.98820 0.39700
Zn	Zn	0.27900 0.75000 0.03325 1.20300
Zn	Zn	0.19784 0.75000 0.99077 1.19900
Zn	Zn	0.22100 0.25000 0.53325 1.20200
Zn	Zn	0.30216 0.25000 0.49077 1.20000
Zn	Zn	0.50000 0.02900 0.28325 1.20300
Zn	Zn	0.50000 0.94784 0.24077 1.20000
Zn	Zn	-0.00000 0.52900 0.78325 1.18700
Zn	Zn	0.00000 0.44784 0.74077 1.18500
Zn	Zn	-0.00000 0.97100 0.78325 1.18800
Zn	Zn	0.00000 0.05216 0.74077 1.18400
Zn	Zn	0.50000 0.47100 0.28325 1.20300
Zn	Zn	0.50000 0.55216 0.24077 1.20000
Zn	Zn	0.22100 0.75000 0.46675 1.20200
Zn	Zn	0.30216 0.75000 0.50923 1.20000
Zn	Zn	0.27900 0.25000 0.96675 1.20300
Zn	Zn	0.19784 0.25000 0.00923 1.19900
Zn	Zn	-0.00000 0.02900 0.21675 1.18800
Zn	Zn	0.00000 0.94784 0.25923 1.18400
Zn	Zn	0.50000 0.52900 0.71675 1.20300
Zn	Zn	0.50000 0.44784 0.75923 1.20000
Zn	Zn	0.50000 0.97100 0.71675 1.20300
Zn	Zn	0.50000 0.05216 0.75923 1.20000
Zn	Zn	-0.00000 0.47100 0.21675 1.18700
Zn	Zn	-0.00000 0.55216 0.25923 1.18500
Zn	Zn	0.72100 0.25000 0.96675 1.20300
Zn	Zn	0.80216 0.25000 0.00923 1.20200
Zn	Zn	0.77900 0.75000 0.46675 1.20400
Zn	Zn	0.69784 0.75000 0.50923 1.20000
Zn	Zn	0.77900 0.25000 0.53325 1.20400
Zn	Zn	0.69784 0.25000 0.49077 1.20000
Zn	Zn	0.72100 0.75000 0.03325 1.20300
Zn	Zn	0.80216 0.75000 0.99077 1.20200
C 	C 	0.34450 0.25000 0.21150 0.09400
H 	H 	0.35610 0.25000 0.19400 0.00500
C 	C 	0.15550 0.75000 0.71150 0.09100
H 	H 	0.14390 0.75000 0.69400 0.00200
C 	C 	0.00000 0.09450 0.46150 0.03600
H 	H 	-0.00000 0.10610 0.44400 0.00900
C 	C 	0.50000 0.59450 0.96150 0.09400
H 	H 	0.50000 0.60610 0.94400 0.00500
C 	C 	0.50000 0.90550 0.96150 0.09400
H 	H 	0.50000 0.89390 0.94400 0.00500
C 	C 	0.00000 0.40550 0.46150 0.03600
H 	H 	-0.00000 0.39390 0.44400 0.00900
C 	C 	0.15550 0.25000 0.28850 0.09100
H 	H 	0.14390 0.25000 0.30600 0.00200
C 	C 	0.34450 0.75000 0.78850 0.09400
H 	H 	0.35610 0.75000 0.80600 0.00500
C 	C 	0.84450 0.25000 0.28850 0.09700
H 	H 	0.85610 0.25000 0.30600 0.00900
C 	C 	0.50000 0.09450 0.03850 0.09400
H 	H 	0.50000 0.10610 0.05600 0.00500
C 	C 	-0.00000 0.59450 0.53850 0.03600
H 	H 	-0.00000 0.60610 0.55600 0.00900
C 	C 	-0.00000 0.90550 0.53850 0.03600
H 	H 	0.00000 0.89390 0.55600 0.00900
C 	C 	0.50000 0.40550 0.03850 0.09400
H 	H 	0.50000 0.39390 0.05600 0.00500
C 	C 	0.65550 0.75000 0.78850 0.09500
H 	H 	0.64390 0.75000 0.80600 0.00500
C 	C 	0.84450 0.75000 0.71150 0.09700
H 	H 	0.85610 0.75000 0.69400 0.00900
C 	C 	0.65550 0.25000 0.21150 0.09500
H 	H 	0.64390 0.25000 0.19400 0.00500
C 	C 	0.00000 0.57940 0.05040 0.04000
H 	H 	0.00000 0.61370 0.05750 0.00800
C 	C 	0.50000 0.07940 0.55040 0.09900
H 	H 	0.50000 0.11370 0.55750 0.00400
C 	C 	0.50000 0.42060 0.55040 0.10000
H 	H 	0.50000 0.38630 0.55750 0.00400
C 	C 	0.00000 0.92060 0.05040 0.04000
H 	H 	0.00000 0.88630 0.05750 0.00800
C 	C 	0.67060 0.75000 0.30040 0.10000
H 	H 	0.63630 0.75000 0.30750 0.00400
C 	C 	0.82940 0.25000 0.80040 0.10100
H 	H 	0.86370 0.25000 0.80750 0.01000
C 	C 	0.50000 0.57940 0.44960 0.10000
H 	H 	0.50000 0.61370 0.44250 0.00400
C 	C 	-0.00000 0.07940 0.94960 0.04000
H 	H 	-0.00000 0.11370 0.94250 0.00800
C 	C 	0.00000 0.42060 0.94960 0.04000
H 	H 	0.00000 0.38630 0.94250 0.00800
C 	C 	0.50000 0.92060 0.44960 0.09900
H 	H 	0.50000 0.88630 0.44250 0.00400
C 	C 	0.82940 0.75000 0.19960 0.10100
H 	H 	0.86370 0.75000 0.19250 0.01000
C 	C 	0.67060 0.25000 0.69960 0.10000
H 	H 	0.63630 0.25000 0.69250 0.00400
C 	C 	0.32940 0.25000 0.69960 0.09900
H 	H 	0.36370 0.25000 0.69250 0.00400
C 	C 	0.17060 0.75000 0.19960 0.09800
H 	H 	0.13630 0.75000 0.19250 -0.00100
C 	C 	0.17060 0.25000 0.80040 0.09800
H 	H 	0.13630 0.25000 0.80750 -0.00100
C 	C 	0.32940 0.75000 0.30040 0.09900
H 	H 	0.36370 0.75000 0.30750 0.00400
