data_crystal

_cell_length_a 12.33800
_cell_length_b 33.33000
_cell_length_c 25.85700
_cell_angle_alpha 90.00000
_cell_angle_beta  97.45000
_cell_angle_gamma 90.00000

_symmetry_space_group_name_	'P 1'
_symmetry_space_group_name_H-M	'P 1'

loop_
_symmetry_equiv_pos_as_xyz
  x,y,z

loop_
_atom_site_label
_atom_site_type_symbol
_atom_site_fract_x
_atom_site_fract_y
_atom_site_fract_z
_atom_site_charge
Mn	Mn	0.81427 0.56725 0.19950 1.28500
C 	C 	0.72230 0.64814 0.13452 -0.00800
H 	H 	0.69870 0.67350 0.11670 0.01500
H 	H 	0.78540 0.65410 0.16110 0.02000
Mn	Mn	0.00924 0.49630 0.25322 1.31400
Cl	Cl	0.09466 0.69093 0.41265 -0.56300
Mn	Mn	0.21946 0.42849 0.30270 1.28600
C 	C 	0.30670 0.34920 0.37219 -0.01600
H 	H 	0.32900 0.32420 0.39140 0.03400
H 	H 	0.24750 0.34240 0.34400 0.04200
N 	N 	0.65750 0.59921 0.19144 -0.24200
N 	N 	0.63300 0.63190 0.15988 -0.13700
C 	C 	0.52550 0.64101 0.15470 0.24300
C 	C 	0.47620 0.61285 0.18310 -0.25200
C 	C 	0.56150 0.58705 0.20560 0.27800
C 	C 	0.47860 0.67580 0.12380 -0.57200
H 	H 	0.52690 0.69910 0.13080 0.16600
H 	H 	0.40640 0.68220 0.13370 0.17500
H 	H 	0.47130 0.66920 0.08660 0.17000
C 	C 	0.55580 0.55230 0.24030 -0.69000
H 	H 	0.55120 0.52760 0.21960 0.21800
H 	H 	0.49100 0.55460 0.25830 0.22600
H 	H 	0.62150 0.55150 0.26600 0.21000
C 	C 	0.36030 0.60821 0.18840 0.17200
C 	C 	0.29510 0.64003 0.20080 -0.19100
H 	H 	0.32600 0.66610 0.20540 0.07900
C 	C 	0.18480 0.63441 0.20660 0.08700
H 	H 	0.14140 0.65640 0.21490 0.00500
C 	C 	0.13940 0.59593 0.19980 -0.16100
C 	C 	0.20380 0.56425 0.18820 0.08900
H 	H 	0.17330 0.53810 0.18460 0.00800
C 	C 	0.31160 0.57002 0.18170 -0.19200
H 	H 	0.35390 0.54790 0.17260 0.08800
C 	C 	0.02350 0.58862 0.20560 0.35200
O 	O 	0.95810 0.61747 0.20837 -0.36800
O 	O 	0.98840 0.55238 0.20505 -0.53700
N 	N 	0.81120 0.58668 0.11502 -0.22900
N 	N 	0.75480 0.62020 0.09728 -0.13500
C 	C 	0.74540 0.62276 0.04450 0.27500
C 	C 	0.79720 0.58964 0.02711 -0.29500
C 	C 	0.83710 0.56788 0.07270 0.28600
C 	C 	0.68740 0.65600 0.01460 -0.61700
H 	H 	0.61800 0.66120 0.02800 0.18900
H 	H 	0.67300 0.64860 0.97770 0.19600
H 	H 	0.73270 0.68020 0.01840 0.18300
C 	C 	0.89720 0.52900 0.07790 -0.65600
H 	H 	0.96300 0.53090 0.06050 0.21000
H 	H 	0.85000 0.50760 0.06170 0.21000
H 	H 	0.91810 0.52290 0.11490 0.20500
C 	C 	0.81000 0.58000 0.97270 0.29000
C 	C 	0.82610 0.56282 0.86786 -0.24800
C 	C 	0.83480 0.55420 0.81186 0.45500
O 	O 	0.78410 0.57643 0.77785 -0.49900
O 	O 	0.89130 0.52543 0.80158 -0.48500
N 	N 	0.37110 0.29448 0.12390 -0.26000
N 	N 	0.43300 0.28598 0.08593 -0.13700
C 	C 	0.51570 0.31296 0.08400 0.24000
C 	C 	0.50540 0.34078 0.12270 -0.26300
C 	C 	0.41550 0.32763 0.14720 0.27200
C 	C 	0.59620 0.31105 0.04590 -0.57000
H 	H 	0.63730 0.28590 0.05060 0.17100
H 	H 	0.64680 0.33380 0.05160 0.17900
H 	H 	0.55750 0.31230 0.01030 0.16500
C 	C 	0.37290 0.34540 0.19340 -0.67500
H 	H 	0.29300 0.34300 0.18920 0.19800
H 	H 	0.39360 0.37370 0.19650 0.22700
H 	H 	0.40400 0.33100 0.22500 0.22900
C 	C 	0.57640 0.37571 0.13730 0.21600
C 	C 	0.53960 0.41430 0.12680 -0.23900
H 	H 	0.46760 0.41840 0.10970 0.10200
C 	C 	0.60600 0.44770 0.14070 0.11900
H 	H 	0.58070 0.47400 0.13150 -0.01100
C 	C 	0.71120 0.44180 0.16870 -0.22000
C 	C 	0.73580 0.40410 0.18470 0.15800
H 	H 	0.80170 0.39960 0.20740 -0.01100
C 	C 	0.67050 0.37220 0.17000 -0.26200
H 	H 	0.69200 0.34640 0.18310 0.11400
C 	C 	0.78270 0.47686 0.18633 0.44000
O 	O 	0.74280 0.51139 0.17851 -0.49600
O 	O 	0.87460 0.46857 0.20771 -0.48000
N 	N 	0.62900 0.70496 0.38350 -0.25300
N 	N 	0.55990 0.71427 0.41891 -0.13300
C 	C 	0.47540 0.68775 0.41850 0.26000
C 	C 	0.49400 0.65927 0.38110 -0.24200
C 	C 	0.58870 0.67146 0.35980 0.22900
C 	C 	0.38880 0.69075 0.45240 -0.65000
H 	H 	0.42160 0.69640 0.48820 0.20200
H 	H 	0.34860 0.66540 0.45150 0.22800
H 	H 	0.33850 0.71250 0.43990 0.21400
C 	C 	0.63540 0.65281 0.31520 -0.59200
H 	H 	0.58640 0.65780 0.28290 0.18300
H 	H 	0.64310 0.62380 0.32100 0.19800
H 	H 	0.70720 0.66460 0.31240 0.14400
C 	C 	0.42660 0.62318 0.36660 0.18200
C 	C 	0.31620 0.62607 0.34730 -0.20700
H 	H 	0.28260 0.65180 0.34460 0.11300
C 	C 	0.25380 0.59255 0.33190 0.11700
H 	H 	0.17830 0.59530 0.31940 0.01200
C 	C 	0.30300 0.55463 0.33510 -0.18600
C 	C 	0.41430 0.55119 0.35540 0.09900
H 	H 	0.44790 0.52550 0.35910 -0.00600
C 	C 	0.47460 0.58551 0.37000 -0.21000
H 	H 	0.55020 0.58310 0.38260 0.09300
C 	C 	0.23810 0.51846 0.31735 0.42000
O 	O 	0.13990 0.52394 0.30061 -0.47200
O 	O 	0.28540 0.48486 0.32082 -0.49100
N 	N 	0.21360 0.41125 0.38742 -0.22700
N 	N 	0.26530 0.37730 0.40749 -0.13300
C 	C 	0.26460 0.37433 0.45923 0.27100
C 	C 	0.21080 0.40802 0.47456 -0.25400
C 	C 	0.18050 0.43010 0.42810 0.28200
C 	C 	0.31930 0.34045 0.49080 -0.63700
H 	H 	0.26780 0.31810 0.49140 0.22100
H 	H 	0.34240 0.34960 0.52650 0.21400
H 	H 	0.38330 0.33150 0.47510 0.20100
C 	C 	0.12120 0.46906 0.42060 -0.66600
H 	H 	0.17370 0.49120 0.42610 0.21700
H 	H 	0.06840 0.47120 0.44580 0.22100
H 	H 	0.08240 0.47040 0.38510 0.21500
C 	C 	0.18940 0.41833 0.52753 0.18800
C 	C 	0.16160 0.38878 0.56252 -0.21200
H 	H 	0.15240 0.36170 0.55140 0.10100
C 	C 	0.14760 0.39914 0.61299 0.11700
H 	H 	0.13320 0.37870 0.63680 -0.00800
C 	C 	0.15410 0.43889 0.62976 -0.18800
C 	C 	0.17800 0.46857 0.59460 0.10900
H 	H 	0.18100 0.49590 0.60510 -0.00700
C 	C 	0.19710 0.45835 0.54500 -0.21300
H 	H 	0.21590 0.47870 0.52210 0.09500
C 	C 	0.14000 0.44969 0.68456 0.41400
O 	O 	0.17590 0.42513 0.71963 -0.48000
O 	O 	0.09320 0.48203 0.69215 -0.46400
N 	N 	0.37910 0.39695 0.31642 -0.23600
N 	N 	0.39850 0.36494 0.34951 -0.13300
C 	C 	0.50520 0.35526 0.35740 0.26300
C 	C 	0.56060 0.38186 0.32900 -0.25100
C 	C 	0.47750 0.40752 0.30400 0.26900
C 	C 	0.54780 0.32140 0.39250 -0.62000
H 	H 	0.52350 0.32490 0.42680 0.19100
H 	H 	0.62790 0.32120 0.39630 0.21600
H 	H 	0.51990 0.29590 0.37730 0.20500
C 	C 	0.48680 0.44147 0.26740 -0.66900
H 	H 	0.42260 0.44180 0.24080 0.20600
H 	H 	0.55300 0.43810 0.25060 0.22000
H 	H 	0.49100 0.46680 0.28680 0.21200
C 	C 	0.67740 0.38516 0.32520 0.18300
C 	C 	0.74130 0.35240 0.31400 -0.19600
H 	H 	0.70950 0.32640 0.31130 0.09600
C 	C 	0.85050 0.35697 0.30680 0.09700
H 	H 	0.89220 0.33440 0.29870 0.00900
C 	C 	0.89810 0.39514 0.31150 -0.15900
C 	C 	0.83660 0.42751 0.32490 0.09500
H 	H 	0.86900 0.45340 0.32930 0.00600
C 	C 	0.72910 0.42222 0.33200 -0.19900
H 	H 	0.68870 0.44460 0.34180 0.09300
C 	C 	0.01140 0.40201 0.30030 0.35300
O 	O 	0.07540 0.37295 0.29478 -0.35100
O 	O 	0.04360 0.43840 0.29812 -0.54000
C 	C 	0.82770 0.61000 0.93780 -0.16500
H 	H 	0.83470 0.63690 0.95000 0.05600
C 	C 	0.83560 0.60230 0.88530 0.08300
H 	H 	0.84710 0.62350 0.86210 -0.02200
C 	C 	0.81080 0.53200 0.90090 0.07200
H 	H 	0.80670 0.50510 0.88850 0.00300
C 	C 	0.80120 0.54020 0.95290 -0.14100
H 	H 	0.78850 0.51870 0.97550 0.06400
C 	C 	0.72050 0.58490 0.93580 -0.19600
H 	H 	0.65360 0.59430 0.94580 0.08100
C 	C 	0.72720 0.57620 0.88490 0.10600
H 	H 	0.66390 0.57920 0.86000 -0.02000
C 	C 	0.91480 0.55600 0.90620 0.09300
H 	H 	0.98150 0.54580 0.89700 -0.00600
C 	C 	0.90440 0.56450 0.95900 -0.18300
H 	H 	0.96400 0.55930 0.98530 0.07400
Mn	Mn	0.18573 0.06725 0.80050 1.28600
C 	C 	0.27770 0.14814 0.86548 -0.00700
H 	H 	0.30130 0.17350 0.88330 0.01600
H 	H 	0.21460 0.15410 0.83890 0.02100
Mn	Mn	0.99076 0.99630 0.74678 1.31500
Cl	Cl	0.90534 0.19093 0.58735 -0.56200
Mn	Mn	0.78054 0.92849 0.69730 1.28700
C 	C 	0.69330 0.84920 0.62781 -0.01500
H 	H 	0.67100 0.82420 0.60860 0.03500
H 	H 	0.75250 0.84240 0.65600 0.04300
N 	N 	0.34250 0.09921 0.80856 -0.24100
N 	N 	0.36700 0.13190 0.84012 -0.13600
C 	C 	0.47450 0.14101 0.84530 0.24300
C 	C 	0.52380 0.11285 0.81690 -0.25200
C 	C 	0.43850 0.08705 0.79440 0.27800
C 	C 	0.52140 0.17580 0.87620 -0.57200
H 	H 	0.47310 0.19910 0.86920 0.16600
H 	H 	0.59360 0.18220 0.86630 0.17500
H 	H 	0.52870 0.16920 0.91340 0.17000
C 	C 	0.44420 0.05230 0.75970 -0.69000
H 	H 	0.44880 0.02760 0.78040 0.21800
H 	H 	0.50900 0.05460 0.74170 0.22600
H 	H 	0.37850 0.05150 0.73400 0.21000
C 	C 	0.63970 0.10821 0.81160 0.17200
C 	C 	0.70490 0.14003 0.79920 -0.19100
H 	H 	0.67400 0.16610 0.79460 0.07900
C 	C 	0.81520 0.13441 0.79340 0.08700
H 	H 	0.85860 0.15640 0.78510 0.00500
C 	C 	0.86060 0.09593 0.80020 -0.16100
C 	C 	0.79620 0.06425 0.81180 0.08900
H 	H 	0.82670 0.03810 0.81540 0.00800
C 	C 	0.68840 0.07002 0.81830 -0.19200
H 	H 	0.64610 0.04790 0.82740 0.08800
C 	C 	0.97650 0.08862 0.79440 0.35200
O 	O 	0.04190 0.11747 0.79163 -0.36800
O 	O 	0.01160 0.05238 0.79495 -0.53700
N 	N 	0.18880 0.08668 0.88498 -0.22900
N 	N 	0.24520 0.12020 0.90272 -0.13500
C 	C 	0.25460 0.12276 0.95550 0.27400
C 	C 	0.20280 0.08964 0.97289 -0.29500
C 	C 	0.16290 0.06788 0.92730 0.28600
C 	C 	0.31260 0.15600 0.98540 -0.61600
H 	H 	0.38200 0.16120 0.97200 0.18900
H 	H 	0.32700 0.14860 0.02230 0.19600
H 	H 	0.26730 0.18020 0.98160 0.18300
C 	C 	0.10280 0.02900 0.92210 -0.65700
H 	H 	0.03700 0.03090 0.93950 0.21000
H 	H 	0.15000 0.00760 0.93830 0.21000
H 	H 	0.08190 0.02290 0.88510 0.20500
C 	C 	0.19000 0.08000 0.02730 0.28900
C 	C 	0.17390 0.06282 0.13214 -0.24700
C 	C 	0.16520 0.05420 0.18814 0.45500
O 	O 	0.21590 0.07643 0.22215 -0.49900
O 	O 	0.10870 0.02543 0.19842 -0.48500
N 	N 	0.62890 0.79448 0.87610 -0.26000
N 	N 	0.56700 0.78598 0.91407 -0.13700
C 	C 	0.48430 0.81296 0.91600 0.24000
C 	C 	0.49460 0.84078 0.87730 -0.26300
C 	C 	0.58450 0.82763 0.85280 0.27200
C 	C 	0.40380 0.81105 0.95410 -0.57000
H 	H 	0.36270 0.78590 0.94940 0.17100
H 	H 	0.35320 0.83380 0.94840 0.17900
H 	H 	0.44250 0.81230 0.98970 0.16500
C 	C 	0.62710 0.84540 0.80660 -0.67500
H 	H 	0.70700 0.84300 0.81080 0.19800
H 	H 	0.60640 0.87370 0.80350 0.22700
H 	H 	0.59600 0.83100 0.77500 0.22900
C 	C 	0.42360 0.87571 0.86270 0.21600
C 	C 	0.46040 0.91430 0.87320 -0.23800
H 	H 	0.53240 0.91840 0.89030 0.10200
C 	C 	0.39400 0.94770 0.85930 0.11800
H 	H 	0.41930 0.97400 0.86850 -0.01100
C 	C 	0.28880 0.94180 0.83130 -0.22000
C 	C 	0.26420 0.90410 0.81530 0.15800
H 	H 	0.19830 0.89960 0.79260 -0.01100
C 	C 	0.32950 0.87220 0.83000 -0.26200
H 	H 	0.30800 0.84640 0.81690 0.11400
C 	C 	0.21730 0.97686 0.81367 0.44000
O 	O 	0.25720 0.01139 0.82149 -0.49600
O 	O 	0.12540 0.96857 0.79229 -0.48000
N 	N 	0.37100 0.20496 0.61650 -0.25300
N 	N 	0.44010 0.21427 0.58109 -0.13300
C 	C 	0.52460 0.18775 0.58150 0.26000
C 	C 	0.50600 0.15927 0.61890 -0.24200
C 	C 	0.41130 0.17146 0.64020 0.22900
C 	C 	0.61120 0.19075 0.54760 -0.65000
H 	H 	0.57840 0.19640 0.51180 0.20200
H 	H 	0.65140 0.16540 0.54850 0.22800
H 	H 	0.66150 0.21250 0.56010 0.21400
C 	C 	0.36460 0.15281 0.68480 -0.59200
H 	H 	0.41360 0.15780 0.71710 0.18300
H 	H 	0.35690 0.12380 0.67900 0.19800
H 	H 	0.29280 0.16460 0.68760 0.14400
C 	C 	0.57340 0.12318 0.63340 0.18200
C 	C 	0.68380 0.12607 0.65270 -0.20700
H 	H 	0.71740 0.15180 0.65540 0.11300
C 	C 	0.74620 0.09255 0.66810 0.11700
H 	H 	0.82170 0.09530 0.68060 0.01200
C 	C 	0.69700 0.05463 0.66490 -0.18600
C 	C 	0.58570 0.05119 0.64460 0.09900
H 	H 	0.55210 0.02550 0.64090 -0.00600
C 	C 	0.52540 0.08551 0.63000 -0.21000
H 	H 	0.44980 0.08310 0.61740 0.09300
C 	C 	0.76190 0.01846 0.68265 0.42000
O 	O 	0.86010 0.02394 0.69939 -0.47100
O 	O 	0.71460 0.98486 0.67918 -0.49100
N 	N 	0.78640 0.91125 0.61258 -0.22700
N 	N 	0.73470 0.87730 0.59251 -0.13300
C 	C 	0.73540 0.87433 0.54077 0.27100
C 	C 	0.78920 0.90802 0.52544 -0.25400
C 	C 	0.81950 0.93010 0.57190 0.28200
C 	C 	0.68070 0.84045 0.50920 -0.63700
H 	H 	0.73220 0.81810 0.50860 0.22100
H 	H 	0.65760 0.84960 0.47350 0.21400
H 	H 	0.61670 0.83150 0.52490 0.20100
C 	C 	0.87880 0.96906 0.57940 -0.66600
H 	H 	0.82630 0.99120 0.57390 0.21700
H 	H 	0.93160 0.97120 0.55420 0.22000
H 	H 	0.91760 0.97040 0.61490 0.21500
C 	C 	0.81060 0.91833 0.47247 0.18800
C 	C 	0.83840 0.88878 0.43748 -0.21200
H 	H 	0.84760 0.86170 0.44860 0.10100
C 	C 	0.85240 0.89914 0.38701 0.11700
H 	H 	0.86680 0.87870 0.36320 -0.00800
C 	C 	0.84590 0.93889 0.37024 -0.18800
C 	C 	0.82200 0.96857 0.40540 0.10900
H 	H 	0.81900 0.99590 0.39490 -0.00700
C 	C 	0.80290 0.95835 0.45500 -0.21300
H 	H 	0.78410 0.97870 0.47790 0.09500
C 	C 	0.86000 0.94969 0.31544 0.41400
O 	O 	0.82410 0.92513 0.28037 -0.48000
O 	O 	0.90680 0.98203 0.30785 -0.46400
N 	N 	0.62090 0.89695 0.68358 -0.23600
N 	N 	0.60150 0.86494 0.65049 -0.13300
C 	C 	0.49480 0.85526 0.64260 0.26300
C 	C 	0.43940 0.88186 0.67100 -0.25100
C 	C 	0.52250 0.90752 0.69600 0.26900
C 	C 	0.45220 0.82140 0.60750 -0.62000
H 	H 	0.47650 0.82490 0.57320 0.19100
H 	H 	0.37210 0.82120 0.60370 0.21600
H 	H 	0.48010 0.79590 0.62270 0.20500
C 	C 	0.51320 0.94147 0.73260 -0.66900
H 	H 	0.57740 0.94180 0.75920 0.20600
H 	H 	0.44700 0.93810 0.74940 0.22000
H 	H 	0.50900 0.96680 0.71320 0.21200
C 	C 	0.32260 0.88516 0.67480 0.18300
C 	C 	0.25870 0.85240 0.68600 -0.19600
H 	H 	0.29050 0.82640 0.68870 0.09600
C 	C 	0.14950 0.85697 0.69320 0.09700
H 	H 	0.10780 0.83440 0.70130 0.00900
C 	C 	0.10190 0.89514 0.68850 -0.15900
C 	C 	0.16340 0.92751 0.67510 0.09500
H 	H 	0.13100 0.95340 0.67070 0.00600
C 	C 	0.27090 0.92222 0.66800 -0.19900
H 	H 	0.31130 0.94460 0.65820 0.09300
C 	C 	0.98860 0.90201 0.69970 0.35300
O 	O 	0.92460 0.87295 0.70522 -0.35100
O 	O 	0.95640 0.93840 0.70188 -0.54000
C 	C 	0.17230 0.11000 0.06220 -0.16400
H 	H 	0.16530 0.13690 0.05000 0.05500
C 	C 	0.16440 0.10230 0.11470 0.08300
H 	H 	0.15290 0.12350 0.13790 -0.02200
C 	C 	0.18920 0.03200 0.09910 0.07200
H 	H 	0.19330 0.00510 0.11150 0.00300
C 	C 	0.19880 0.04020 0.04710 -0.14100
H 	H 	0.21150 0.01870 0.02450 0.06400
C 	C 	0.27950 0.08490 0.06420 -0.19500
H 	H 	0.34640 0.09430 0.05420 0.08100
C 	C 	0.27280 0.07620 0.11510 0.10600
H 	H 	0.33610 0.07920 0.14000 -0.02000
C 	C 	0.08520 0.05600 0.09380 0.09300
H 	H 	0.01850 0.04580 0.10300 -0.00600
C 	C 	0.09560 0.06450 0.04100 -0.18300
H 	H 	0.03600 0.05930 0.01470 0.07400
Mn	Mn	0.18573 0.43275 0.80050 1.28600
C 	C 	0.27770 0.35186 0.86548 -0.00700
H 	H 	0.30130 0.32650 0.88330 0.01600
H 	H 	0.21460 0.34590 0.83890 0.02100
Mn	Mn	0.99076 0.50370 0.74678 1.31500
Cl	Cl	0.90534 0.30907 0.58735 -0.56200
Mn	Mn	0.78054 0.57151 0.69730 1.28700
C 	C 	0.69330 0.65080 0.62781 -0.01500
H 	H 	0.67100 0.67580 0.60860 0.03500
H 	H 	0.75250 0.65760 0.65600 0.04300
N 	N 	0.34250 0.40079 0.80856 -0.24100
N 	N 	0.36700 0.36810 0.84012 -0.13600
C 	C 	0.47450 0.35899 0.84530 0.24300
C 	C 	0.52380 0.38715 0.81690 -0.25200
C 	C 	0.43850 0.41295 0.79440 0.27800
C 	C 	0.52140 0.32420 0.87620 -0.57200
H 	H 	0.47310 0.30090 0.86920 0.16600
H 	H 	0.59360 0.31780 0.86630 0.17500
H 	H 	0.52870 0.33080 0.91340 0.17000
C 	C 	0.44420 0.44770 0.75970 -0.69000
H 	H 	0.44880 0.47240 0.78040 0.21800
H 	H 	0.50900 0.44540 0.74170 0.22600
H 	H 	0.37850 0.44850 0.73400 0.21000
C 	C 	0.63970 0.39179 0.81160 0.17200
C 	C 	0.70490 0.35997 0.79920 -0.19100
H 	H 	0.67400 0.33390 0.79460 0.07900
C 	C 	0.81520 0.36559 0.79340 0.08700
H 	H 	0.85860 0.34360 0.78510 0.00500
C 	C 	0.86060 0.40407 0.80020 -0.16100
C 	C 	0.79620 0.43575 0.81180 0.08900
H 	H 	0.82670 0.46190 0.81540 0.00800
C 	C 	0.68840 0.42998 0.81830 -0.19200
H 	H 	0.64610 0.45210 0.82740 0.08800
C 	C 	0.97650 0.41138 0.79440 0.35200
O 	O 	0.04190 0.38253 0.79163 -0.36800
O 	O 	0.01160 0.44762 0.79495 -0.53700
N 	N 	0.18880 0.41332 0.88498 -0.22900
N 	N 	0.24520 0.37980 0.90272 -0.13500
C 	C 	0.25460 0.37724 0.95550 0.27500
C 	C 	0.20280 0.41036 0.97289 -0.29500
C 	C 	0.16290 0.43212 0.92730 0.28600
C 	C 	0.31260 0.34400 0.98540 -0.61700
H 	H 	0.38200 0.33880 0.97200 0.18900
H 	H 	0.32700 0.35140 0.02230 0.19600
H 	H 	0.26730 0.31980 0.98160 0.18300
C 	C 	0.10280 0.47100 0.92210 -0.65600
H 	H 	0.03700 0.46910 0.93950 0.21000
H 	H 	0.15000 0.49240 0.93830 0.21000
H 	H 	0.08190 0.47710 0.88510 0.20500
C 	C 	0.19000 0.42000 0.02730 0.29000
C 	C 	0.17390 0.43718 0.13214 -0.24800
C 	C 	0.16520 0.44580 0.18814 0.45500
O 	O 	0.21590 0.42357 0.22215 -0.49900
O 	O 	0.10870 0.47457 0.19842 -0.48500
N 	N 	0.62890 0.70552 0.87610 -0.26000
N 	N 	0.56700 0.71402 0.91407 -0.13700
C 	C 	0.48430 0.68704 0.91600 0.24000
C 	C 	0.49460 0.65922 0.87730 -0.26300
C 	C 	0.58450 0.67237 0.85280 0.27200
C 	C 	0.40380 0.68895 0.95410 -0.57000
H 	H 	0.36270 0.71410 0.94940 0.17100
H 	H 	0.35320 0.66620 0.94840 0.17900
H 	H 	0.44250 0.68770 0.98970 0.16500
C 	C 	0.62710 0.65460 0.80660 -0.67500
H 	H 	0.70700 0.65700 0.81080 0.19800
H 	H 	0.60640 0.62630 0.80350 0.22700
H 	H 	0.59600 0.66900 0.77500 0.22900
C 	C 	0.42360 0.62429 0.86270 0.21600
C 	C 	0.46040 0.58570 0.87320 -0.23900
H 	H 	0.53240 0.58160 0.89030 0.10200
C 	C 	0.39400 0.55230 0.85930 0.11900
H 	H 	0.41930 0.52600 0.86850 -0.01100
C 	C 	0.28880 0.55820 0.83130 -0.22000
C 	C 	0.26420 0.59590 0.81530 0.15800
H 	H 	0.19830 0.60040 0.79260 -0.01100
C 	C 	0.32950 0.62780 0.83000 -0.26200
H 	H 	0.30800 0.65360 0.81690 0.11400
C 	C 	0.21730 0.52314 0.81367 0.44000
O 	O 	0.25720 0.48861 0.82149 -0.49600
O 	O 	0.12540 0.53143 0.79229 -0.48000
N 	N 	0.37100 0.29504 0.61650 -0.25300
N 	N 	0.44010 0.28573 0.58109 -0.13300
C 	C 	0.52460 0.31225 0.58150 0.26000
C 	C 	0.50600 0.34073 0.61890 -0.24200
C 	C 	0.41130 0.32854 0.64020 0.22900
C 	C 	0.61120 0.30925 0.54760 -0.65000
H 	H 	0.57840 0.30360 0.51180 0.20200
H 	H 	0.65140 0.33460 0.54850 0.22800
H 	H 	0.66150 0.28750 0.56010 0.21400
C 	C 	0.36460 0.34719 0.68480 -0.59200
H 	H 	0.41360 0.34220 0.71710 0.18300
H 	H 	0.35690 0.37620 0.67900 0.19800
H 	H 	0.29280 0.33540 0.68760 0.14400
C 	C 	0.57340 0.37682 0.63340 0.18200
C 	C 	0.68380 0.37393 0.65270 -0.20700
H 	H 	0.71740 0.34820 0.65540 0.11300
C 	C 	0.74620 0.40745 0.66810 0.11700
H 	H 	0.82170 0.40470 0.68060 0.01200
C 	C 	0.69700 0.44537 0.66490 -0.18600
C 	C 	0.58570 0.44881 0.64460 0.09900
H 	H 	0.55210 0.47450 0.64090 -0.00600
C 	C 	0.52540 0.41449 0.63000 -0.21000
H 	H 	0.44980 0.41690 0.61740 0.09300
C 	C 	0.76190 0.48154 0.68265 0.42000
O 	O 	0.86010 0.47606 0.69939 -0.47200
O 	O 	0.71460 0.51514 0.67918 -0.49100
N 	N 	0.78640 0.58875 0.61258 -0.22700
N 	N 	0.73470 0.62270 0.59251 -0.13300
C 	C 	0.73540 0.62567 0.54077 0.27100
C 	C 	0.78920 0.59198 0.52544 -0.25400
C 	C 	0.81950 0.56990 0.57190 0.28200
C 	C 	0.68070 0.65955 0.50920 -0.63700
H 	H 	0.73220 0.68190 0.50860 0.22100
H 	H 	0.65760 0.65040 0.47350 0.21400
H 	H 	0.61670 0.66850 0.52490 0.20100
C 	C 	0.87880 0.53094 0.57940 -0.66600
H 	H 	0.82630 0.50880 0.57390 0.21700
H 	H 	0.93160 0.52880 0.55420 0.22100
H 	H 	0.91760 0.52960 0.61490 0.21500
C 	C 	0.81060 0.58167 0.47247 0.18800
C 	C 	0.83840 0.61122 0.43748 -0.21200
H 	H 	0.84760 0.63830 0.44860 0.10100
C 	C 	0.85240 0.60086 0.38701 0.11700
H 	H 	0.86680 0.62130 0.36320 -0.00800
C 	C 	0.84590 0.56111 0.37024 -0.18800
C 	C 	0.82200 0.53143 0.40540 0.10900
H 	H 	0.81900 0.50410 0.39490 -0.00700
C 	C 	0.80290 0.54165 0.45500 -0.21300
H 	H 	0.78410 0.52130 0.47790 0.09500
C 	C 	0.86000 0.55031 0.31544 0.41400
O 	O 	0.82410 0.57487 0.28037 -0.48000
O 	O 	0.90680 0.51797 0.30785 -0.46400
N 	N 	0.62090 0.60305 0.68358 -0.23600
N 	N 	0.60150 0.63506 0.65049 -0.13300
C 	C 	0.49480 0.64474 0.64260 0.26300
C 	C 	0.43940 0.61814 0.67100 -0.25100
C 	C 	0.52250 0.59248 0.69600 0.26900
C 	C 	0.45220 0.67860 0.60750 -0.62000
H 	H 	0.47650 0.67510 0.57320 0.19100
H 	H 	0.37210 0.67880 0.60370 0.21600
H 	H 	0.48010 0.70410 0.62270 0.20500
C 	C 	0.51320 0.55853 0.73260 -0.66900
H 	H 	0.57740 0.55820 0.75920 0.20600
H 	H 	0.44700 0.56190 0.74940 0.22000
H 	H 	0.50900 0.53320 0.71320 0.21200
C 	C 	0.32260 0.61484 0.67480 0.18300
C 	C 	0.25870 0.64760 0.68600 -0.19600
H 	H 	0.29050 0.67360 0.68870 0.09600
C 	C 	0.14950 0.64303 0.69320 0.09700
H 	H 	0.10780 0.66560 0.70130 0.00900
C 	C 	0.10190 0.60486 0.68850 -0.15900
C 	C 	0.16340 0.57249 0.67510 0.09500
H 	H 	0.13100 0.54660 0.67070 0.00600
C 	C 	0.27090 0.57778 0.66800 -0.19900
H 	H 	0.31130 0.55540 0.65820 0.09300
C 	C 	0.98860 0.59799 0.69970 0.35300
O 	O 	0.92460 0.62705 0.70522 -0.35100
O 	O 	0.95640 0.56160 0.70188 -0.54000
C 	C 	0.17230 0.39000 0.06220 -0.16500
H 	H 	0.16530 0.36310 0.05000 0.05600
C 	C 	0.16440 0.39770 0.11470 0.08300
H 	H 	0.15290 0.37650 0.13790 -0.02200
C 	C 	0.18920 0.46800 0.09910 0.07200
H 	H 	0.19330 0.49490 0.11150 0.00300
C 	C 	0.19880 0.45980 0.04710 -0.14100
H 	H 	0.21150 0.48130 0.02450 0.06400
C 	C 	0.27950 0.41510 0.06420 -0.19600
H 	H 	0.34640 0.40570 0.05420 0.08100
C 	C 	0.27280 0.42380 0.11510 0.10600
H 	H 	0.33610 0.42080 0.14000 -0.02000
C 	C 	0.08520 0.44400 0.09380 0.09300
H 	H 	0.01850 0.45420 0.10300 -0.00600
C 	C 	0.09560 0.43550 0.04100 -0.18300
H 	H 	0.03600 0.44070 0.01470 0.07400
Mn	Mn	0.81427 0.93275 0.19950 1.28600
C 	C 	0.72230 0.85186 0.13452 -0.00700
H 	H 	0.69870 0.82650 0.11670 0.01600
H 	H 	0.78540 0.84590 0.16110 0.02100
Mn	Mn	0.00924 0.00370 0.25322 1.31500
Cl	Cl	0.09466 0.80907 0.41265 -0.56200
Mn	Mn	0.21946 0.07151 0.30270 1.28700
C 	C 	0.30670 0.15080 0.37219 -0.01500
H 	H 	0.32900 0.17580 0.39140 0.03500
H 	H 	0.24750 0.15760 0.34400 0.04300
N 	N 	0.65750 0.90079 0.19144 -0.24100
N 	N 	0.63300 0.86810 0.15988 -0.13600
C 	C 	0.52550 0.85899 0.15470 0.24300
C 	C 	0.47620 0.88715 0.18310 -0.25200
C 	C 	0.56150 0.91295 0.20560 0.27800
C 	C 	0.47860 0.82420 0.12380 -0.57200
H 	H 	0.52690 0.80090 0.13080 0.16600
H 	H 	0.40640 0.81780 0.13370 0.17500
H 	H 	0.47130 0.83080 0.08660 0.17000
C 	C 	0.55580 0.94770 0.24030 -0.69000
H 	H 	0.55120 0.97240 0.21960 0.21800
H 	H 	0.49100 0.94540 0.25830 0.22600
H 	H 	0.62150 0.94850 0.26600 0.21000
C 	C 	0.36030 0.89179 0.18840 0.17200
C 	C 	0.29510 0.85997 0.20080 -0.19100
H 	H 	0.32600 0.83390 0.20540 0.07900
C 	C 	0.18480 0.86559 0.20660 0.08700
H 	H 	0.14140 0.84360 0.21490 0.00500
C 	C 	0.13940 0.90407 0.19980 -0.16100
C 	C 	0.20380 0.93575 0.18820 0.08900
H 	H 	0.17330 0.96190 0.18460 0.00800
C 	C 	0.31160 0.92998 0.18170 -0.19200
H 	H 	0.35390 0.95210 0.17260 0.08800
C 	C 	0.02350 0.91138 0.20560 0.35200
O 	O 	0.95810 0.88253 0.20837 -0.36800
O 	O 	0.98840 0.94762 0.20505 -0.53700
N 	N 	0.81120 0.91332 0.11502 -0.22900
N 	N 	0.75480 0.87980 0.09728 -0.13500
C 	C 	0.74540 0.87724 0.04450 0.27400
C 	C 	0.79720 0.91036 0.02711 -0.29500
C 	C 	0.83710 0.93212 0.07270 0.28600
C 	C 	0.68740 0.84400 0.01460 -0.61600
H 	H 	0.61800 0.83880 0.02800 0.18900
H 	H 	0.67300 0.85140 0.97770 0.19600
H 	H 	0.73270 0.81980 0.01840 0.18300
C 	C 	0.89720 0.97100 0.07790 -0.65700
H 	H 	0.96300 0.96910 0.06050 0.21000
H 	H 	0.85000 0.99240 0.06170 0.21000
H 	H 	0.91810 0.97710 0.11490 0.20500
C 	C 	0.81000 0.92000 0.97270 0.28900
C 	C 	0.82610 0.93718 0.86786 -0.24700
C 	C 	0.83480 0.94580 0.81186 0.45500
O 	O 	0.78410 0.92357 0.77785 -0.49900
O 	O 	0.89130 0.97457 0.80158 -0.48500
N 	N 	0.37110 0.20552 0.12390 -0.26000
N 	N 	0.43300 0.21402 0.08593 -0.13700
C 	C 	0.51570 0.18704 0.08400 0.24000
C 	C 	0.50540 0.15922 0.12270 -0.26300
C 	C 	0.41550 0.17237 0.14720 0.27200
C 	C 	0.59620 0.18895 0.04590 -0.57000
H 	H 	0.63730 0.21410 0.05060 0.17100
H 	H 	0.64680 0.16620 0.05160 0.17900
H 	H 	0.55750 0.18770 0.01030 0.16500
C 	C 	0.37290 0.15460 0.19340 -0.67500
H 	H 	0.29300 0.15700 0.18920 0.19800
H 	H 	0.39360 0.12630 0.19650 0.22700
H 	H 	0.40400 0.16900 0.22500 0.22900
C 	C 	0.57640 0.12429 0.13730 0.21600
C 	C 	0.53960 0.08570 0.12680 -0.23800
H 	H 	0.46760 0.08160 0.10970 0.10200
C 	C 	0.60600 0.05230 0.14070 0.11800
H 	H 	0.58070 0.02600 0.13150 -0.01100
C 	C 	0.71120 0.05820 0.16870 -0.22000
C 	C 	0.73580 0.09590 0.18470 0.15800
H 	H 	0.80170 0.10040 0.20740 -0.01100
C 	C 	0.67050 0.12780 0.17000 -0.26200
H 	H 	0.69200 0.15360 0.18310 0.11400
C 	C 	0.78270 0.02314 0.18633 0.44000
O 	O 	0.74280 0.98861 0.17851 -0.49600
O 	O 	0.87460 0.03143 0.20771 -0.48000
N 	N 	0.62900 0.79504 0.38350 -0.25300
N 	N 	0.55990 0.78573 0.41891 -0.13300
C 	C 	0.47540 0.81225 0.41850 0.26000
C 	C 	0.49400 0.84073 0.38110 -0.24200
C 	C 	0.58870 0.82854 0.35980 0.22900
C 	C 	0.38880 0.80925 0.45240 -0.65000
H 	H 	0.42160 0.80360 0.48820 0.20200
H 	H 	0.34860 0.83460 0.45150 0.22800
H 	H 	0.33850 0.78750 0.43990 0.21400
C 	C 	0.63540 0.84719 0.31520 -0.59200
H 	H 	0.58640 0.84220 0.28290 0.18300
H 	H 	0.64310 0.87620 0.32100 0.19800
H 	H 	0.70720 0.83540 0.31240 0.14400
C 	C 	0.42660 0.87682 0.36660 0.18200
C 	C 	0.31620 0.87393 0.34730 -0.20700
H 	H 	0.28260 0.84820 0.34460 0.11300
C 	C 	0.25380 0.90745 0.33190 0.11700
H 	H 	0.17830 0.90470 0.31940 0.01200
C 	C 	0.30300 0.94537 0.33510 -0.18600
C 	C 	0.41430 0.94881 0.35540 0.09900
H 	H 	0.44790 0.97450 0.35910 -0.00600
C 	C 	0.47460 0.91449 0.37000 -0.21000
H 	H 	0.55020 0.91690 0.38260 0.09300
C 	C 	0.23810 0.98154 0.31735 0.42000
O 	O 	0.13990 0.97606 0.30061 -0.47100
O 	O 	0.28540 0.01514 0.32082 -0.49100
N 	N 	0.21360 0.08875 0.38742 -0.22700
N 	N 	0.26530 0.12270 0.40749 -0.13300
C 	C 	0.26460 0.12567 0.45923 0.27100
C 	C 	0.21080 0.09198 0.47456 -0.25400
C 	C 	0.18050 0.06990 0.42810 0.28200
C 	C 	0.31930 0.15955 0.49080 -0.63700
H 	H 	0.26780 0.18190 0.49140 0.22100
H 	H 	0.34240 0.15040 0.52650 0.21400
H 	H 	0.38330 0.16850 0.47510 0.20100
C 	C 	0.12120 0.03094 0.42060 -0.66600
H 	H 	0.17370 0.00880 0.42610 0.21700
H 	H 	0.06840 0.02880 0.44580 0.22000
H 	H 	0.08240 0.02960 0.38510 0.21500
C 	C 	0.18940 0.08167 0.52753 0.18800
C 	C 	0.16160 0.11122 0.56252 -0.21200
H 	H 	0.15240 0.13830 0.55140 0.10100
C 	C 	0.14760 0.10086 0.61299 0.11700
H 	H 	0.13320 0.12130 0.63680 -0.00800
C 	C 	0.15410 0.06111 0.62976 -0.18800
C 	C 	0.17800 0.03143 0.59460 0.10900
H 	H 	0.18100 0.00410 0.60510 -0.00700
C 	C 	0.19710 0.04165 0.54500 -0.21300
H 	H 	0.21590 0.02130 0.52210 0.09500
C 	C 	0.14000 0.05031 0.68456 0.41400
O 	O 	0.17590 0.07487 0.71963 -0.48000
O 	O 	0.09320 0.01797 0.69215 -0.46400
N 	N 	0.37910 0.10305 0.31642 -0.23600
N 	N 	0.39850 0.13506 0.34951 -0.13300
C 	C 	0.50520 0.14474 0.35740 0.26300
C 	C 	0.56060 0.11814 0.32900 -0.25100
C 	C 	0.47750 0.09248 0.30400 0.26900
C 	C 	0.54780 0.17860 0.39250 -0.62000
H 	H 	0.52350 0.17510 0.42680 0.19100
H 	H 	0.62790 0.17880 0.39630 0.21600
H 	H 	0.51990 0.20410 0.37730 0.20500
C 	C 	0.48680 0.05853 0.26740 -0.66900
H 	H 	0.42260 0.05820 0.24080 0.20600
H 	H 	0.55300 0.06190 0.25060 0.22000
H 	H 	0.49100 0.03320 0.28680 0.21200
C 	C 	0.67740 0.11484 0.32520 0.18300
C 	C 	0.74130 0.14760 0.31400 -0.19600
H 	H 	0.70950 0.17360 0.31130 0.09600
C 	C 	0.85050 0.14303 0.30680 0.09700
H 	H 	0.89220 0.16560 0.29870 0.00900
C 	C 	0.89810 0.10486 0.31150 -0.15900
C 	C 	0.83660 0.07249 0.32490 0.09500
H 	H 	0.86900 0.04660 0.32930 0.00600
C 	C 	0.72910 0.07778 0.33200 -0.19900
H 	H 	0.68870 0.05540 0.34180 0.09300
C 	C 	0.01140 0.09799 0.30030 0.35300
O 	O 	0.07540 0.12705 0.29478 -0.35100
O 	O 	0.04360 0.06160 0.29812 -0.54000
C 	C 	0.82770 0.89000 0.93780 -0.16400
H 	H 	0.83470 0.86310 0.95000 0.05500
C 	C 	0.83560 0.89770 0.88530 0.08300
H 	H 	0.84710 0.87650 0.86210 -0.02200
C 	C 	0.81080 0.96800 0.90090 0.07200
H 	H 	0.80670 0.99490 0.88850 0.00300
C 	C 	0.80120 0.95980 0.95290 -0.14100
H 	H 	0.78850 0.98130 0.97550 0.06400
C 	C 	0.72050 0.91510 0.93580 -0.19500
H 	H 	0.65360 0.90570 0.94580 0.08100
C 	C 	0.72720 0.92380 0.88490 0.10600
H 	H 	0.66390 0.92080 0.86000 -0.02000
C 	C 	0.91480 0.94400 0.90620 0.09300
H 	H 	0.98150 0.95420 0.89700 -0.00600
C 	C 	0.90440 0.93550 0.95900 -0.18300
H 	H 	0.96400 0.94070 0.98530 0.07400
Cl	Cl	0.86812 0.75000 0.45824 -0.70700
Cl	Cl	0.17690 0.75000 0.54051 -0.53800
C 	C 	0.58070 0.75000 0.45060 -0.03400
H 	H 	0.53310 0.75000 0.47860 0.02700
H 	H 	0.65770 0.75000 0.46720 0.04000
Mn	Mn	0.75630 0.75000 0.36381 1.17900
Mn	Mn	0.06499 0.75000 0.45945 1.29500
Cl	Cl	0.13188 0.25000 0.54176 -0.70700
Cl	Cl	0.82310 0.25000 0.45949 -0.53800
C 	C 	0.41930 0.25000 0.54940 -0.03400
H 	H 	0.46690 0.25000 0.52140 0.02700
H 	H 	0.34230 0.25000 0.53280 0.04000
Mn	Mn	0.24370 0.25000 0.63619 1.17900
Mn	Mn	0.93501 0.25000 0.54055 1.29500
C 	C 	0.41030 0.25000 0.05390 -0.01500
H 	H 	0.33280 0.25000 0.03820 -0.02000
H 	H 	0.45650 0.25000 0.02530 0.01600
Cl	Cl	0.29960 0.25000 0.24110 -0.57100
Mn	Mn	0.24668 0.25000 0.14620 1.18600
C 	C 	0.58970 0.75000 0.94610 -0.01500
H 	H 	0.66720 0.75000 0.96180 -0.02000
H 	H 	0.54350 0.75000 0.97470 0.01600
Cl	Cl	0.70040 0.75000 0.75890 -0.57100
Mn	Mn	0.75332 0.75000 0.85380 1.18600
