data_crystal

_cell_length_a 34.05700
_cell_length_b 11.41000
_cell_length_c 23.00100
_cell_angle_alpha 90.00000
_cell_angle_beta  114.91300
_cell_angle_gamma 90.00000

_symmetry_space_group_name_	'P 1'
_symmetry_space_group_name_H-M	'P 1'

loop_
_symmetry_equiv_pos_as_xyz
  x,y,z

loop_
_atom_site_label
_atom_site_type_symbol
_atom_site_fract_x
_atom_site_fract_y
_atom_site_fract_z
_atom_site_charge
Cu	Cu	0.15763 0.93071 0.56763 0.78500
Cu	Cu	0.16335 0.03991 0.47887 0.79400
Cu	Cu	0.15870 0.08536 0.77058 0.79400
Cu	Cu	0.30584 0.00269 0.67186 0.83000
Cu	Cu	0.01041 0.98530 0.42249 0.81900
Cu	Cu	0.87627 0.11449 0.24714 0.77500
K 	K 	0.12458 0.48090 0.54476 0.65800
S 	S 	0.17302 0.73320 0.58217 -0.18700
S 	S 	0.13726 0.23990 0.46942 -0.18800
S 	S 	0.98461 0.85510 0.48269 -0.25600
O 	O 	0.14040 0.62110 0.45520 -0.26300
O 	O 	0.07650 0.44780 0.40710 -0.24000
O 	O 	0.20440 0.37160 0.57470 -0.25800
O 	O 	0.19850 0.51690 0.66650 -0.25400
O 	O 	0.92530 0.62810 0.39560 -0.24200
O 	O 	0.92970 0.39120 0.41810 -0.26000
C 	C 	0.20450 0.69090 0.53880 -0.21300
H 	H 	0.22890 0.74350 0.54940 0.06200
H 	H 	0.21550 0.61190 0.55060 0.09300
C 	C 	0.17600 0.69650 0.46830 0.13600
H 	H 	0.16590 0.77620 0.45610 -0.05800
H 	H 	0.19200 0.67230 0.44410 -0.04000
C 	C 	0.10680 0.63100 0.39300 0.01900
C 	C 	0.06730 0.56590 0.38770 0.02500
C 	C 	0.08900 0.51400 0.36560 0.00600
C 	C 	0.08370 0.37110 0.36420 0.03100
C 	C 	0.06100 0.33720 0.38000 0.03300
C 	C 	0.09530 0.24840 0.38830 -0.09000
C 	C 	0.17990 0.32810 0.46440 -0.18600
H 	H 	0.18830 0.29620 0.43220 0.05100
H 	H 	0.16980 0.40770 0.45230 0.07600
C 	C 	0.21770 0.32730 0.52850 0.10500
H 	H 	0.22850 0.24800 0.53970 -0.02600
H 	H 	0.24080 0.37540 0.52730 -0.02200
C 	C 	0.23560 0.35990 0.63870 0.03600
H 	H 	0.26130 0.40440 0.64480 -0.01100
H 	H 	0.24380 0.27820 0.64790 -0.00500
C 	C 	0.21710 0.40410 0.68300 -0.00500
H 	H 	0.19520 0.34950 0.68280 0.01300
H 	H 	0.23990 0.40640 0.72630 -0.00400
C 	C 	0.23060 0.60520 0.68560 0.12400
H 	H 	0.25060 0.59030 0.66650 -0.04300
H 	H 	0.24680 0.60320 0.73190 -0.04600
C 	C 	0.21070 0.72340 0.66560 -0.17200
H 	H 	0.23360 0.78040 0.67400 0.03900
H 	H 	0.19560 0.74430 0.69180 0.05000
C 	C 	0.92810 0.82190 0.43530 -0.15000
H 	H 	0.91690 0.78260 0.46250 0.05400
H 	H 	0.91250 0.89510 0.42130 0.02400
C 	C 	0.91890 0.74730 0.37760 0.09000
H 	H 	0.88930 0.75940 0.34650 -0.03300
H 	H 	0.93800 0.76930 0.35780 -0.02800
C 	C 	0.91660 0.54870 0.34450 0.00500
H 	H 	0.92570 0.58270 0.31350 0.01300
H 	H 	0.88580 0.53370 0.32320 0.00800
C 	C 	0.94020 0.43630 0.36920 0.01900
H 	H 	0.93230 0.38000 0.33450 0.00300
H 	H 	0.97120 0.44970 0.38610 0.02700
C 	C 	0.94670 0.27870 0.44140 0.10900
H 	H 	0.94530 0.22990 0.40610 -0.03200
H 	H 	0.92950 0.24190 0.46080 -0.03700
C 	C 	0.00740 0.71180 0.51010 -0.17900
H 	H 	0.00620 0.66590 0.47390 0.09000
H 	H 	0.99040 0.67180 0.52890 0.08700
N 	N 	0.25070 0.01050 0.59580 -0.19200
C 	C 	0.21700 0.01360 0.55500 -0.30600
N 	N 	0.07140 0.96440 0.45520 -0.19600
C 	C 	0.10760 0.96620 0.48440 -0.33600
N 	N 	0.93330 0.06520 0.30740 -0.22700
C 	C 	0.96430 0.03410 0.34920 -0.24500
N 	N 	0.15740 0.00940 0.39250 -0.18800
C 	C 	0.15430 0.99150 0.34180 -0.33300
N 	N 	0.17590 0.34430 0.80030 -0.20900
C 	C 	0.16760 0.24890 0.78530 -0.20100
N 	N 	0.16030 0.99130 0.64770 -0.20700
C 	C 	0.16100 0.02200 0.69570 -0.29400
N 	N 	0.34780 0.23650 0.72130 -0.21600
C 	C 	0.33100 0.14700 0.70300 -0.21600
Cu	Cu	0.65763 0.43071 0.56763 0.78600
Cu	Cu	0.66335 0.53991 0.47887 0.79500
Cu	Cu	0.65870 0.58536 0.77058 0.79500
Cu	Cu	0.80584 0.50269 0.67186 0.83100
Cu	Cu	0.51041 0.48530 0.42249 0.81900
Cu	Cu	0.37627 0.61449 0.24714 0.77600
K 	K 	0.62458 0.98090 0.54476 0.65900
S 	S 	0.67302 0.23320 0.58217 -0.18600
S 	S 	0.63726 0.73990 0.46942 -0.18700
S 	S 	0.48461 0.35510 0.48269 -0.25600
O 	O 	0.64040 0.12110 0.45520 -0.26200
O 	O 	0.57650 0.94780 0.40710 -0.23900
O 	O 	0.70440 0.87160 0.57470 -0.25700
O 	O 	0.69850 0.01690 0.66650 -0.25200
O 	O 	0.42530 0.12810 0.39560 -0.24100
O 	O 	0.42970 0.89120 0.41810 -0.25900
C 	C 	0.70450 0.19090 0.53880 -0.21300
H 	H 	0.72890 0.24350 0.54940 0.06200
H 	H 	0.71550 0.11190 0.55060 0.09400
C 	C 	0.67600 0.19650 0.46830 0.13600
H 	H 	0.66590 0.27620 0.45610 -0.05800
H 	H 	0.69200 0.17230 0.44410 -0.04000
C 	C 	0.60680 0.13100 0.39300 0.01900
C 	C 	0.56730 0.06590 0.38770 0.02500
C 	C 	0.58900 0.01400 0.36560 0.00500
C 	C 	0.58370 0.87110 0.36420 0.03100
C 	C 	0.56100 0.83720 0.38000 0.03300
C 	C 	0.59530 0.74840 0.38830 -0.09000
C 	C 	0.67990 0.82810 0.46440 -0.18600
H 	H 	0.68830 0.79620 0.43220 0.05100
H 	H 	0.66980 0.90770 0.45230 0.07700
C 	C 	0.71770 0.82730 0.52850 0.10500
H 	H 	0.72850 0.74800 0.53970 -0.02600
H 	H 	0.74080 0.87540 0.52730 -0.02300
C 	C 	0.73560 0.85990 0.63870 0.03600
H 	H 	0.76130 0.90440 0.64480 -0.01200
H 	H 	0.74380 0.77820 0.64790 -0.00600
C 	C 	0.71710 0.90410 0.68300 -0.00600
H 	H 	0.69520 0.84950 0.68280 0.01400
H 	H 	0.73990 0.90640 0.72630 -0.00400
C 	C 	0.73060 0.10520 0.68560 0.12300
H 	H 	0.75060 0.09030 0.66650 -0.04300
H 	H 	0.74680 0.10320 0.73190 -0.04500
C 	C 	0.71070 0.22340 0.66560 -0.17200
H 	H 	0.73360 0.28040 0.67400 0.03900
H 	H 	0.69560 0.24430 0.69180 0.05000
C 	C 	0.42810 0.32190 0.43530 -0.15000
H 	H 	0.41690 0.28260 0.46250 0.05400
H 	H 	0.41250 0.39510 0.42130 0.02300
C 	C 	0.41890 0.24730 0.37760 0.09000
H 	H 	0.38930 0.25940 0.34650 -0.03300
H 	H 	0.43800 0.26930 0.35780 -0.02800
C 	C 	0.41660 0.04870 0.34450 0.00400
H 	H 	0.42570 0.08270 0.31350 0.01300
H 	H 	0.38580 0.03370 0.32320 0.00800
C 	C 	0.44020 0.93630 0.36920 0.02000
H 	H 	0.43230 0.88000 0.33450 0.00300
H 	H 	0.47120 0.94970 0.38610 0.02700
C 	C 	0.44670 0.77870 0.44140 0.10900
H 	H 	0.44530 0.72990 0.40610 -0.03200
H 	H 	0.42950 0.74190 0.46080 -0.03700
C 	C 	0.50740 0.21180 0.51010 -0.17800
H 	H 	0.50620 0.16590 0.47390 0.09000
H 	H 	0.49040 0.17180 0.52890 0.08700
N 	N 	0.75070 0.51050 0.59580 -0.19200
C 	C 	0.71700 0.51360 0.55500 -0.30600
N 	N 	0.57140 0.46440 0.45520 -0.19700
C 	C 	0.60760 0.46620 0.48440 -0.33600
N 	N 	0.43330 0.56520 0.30740 -0.22700
C 	C 	0.46430 0.53410 0.34920 -0.24500
N 	N 	0.65740 0.50940 0.39250 -0.18800
C 	C 	0.65430 0.49150 0.34180 -0.33400
N 	N 	0.67590 0.84430 0.80030 -0.21000
C 	C 	0.66760 0.74890 0.78530 -0.20100
N 	N 	0.66030 0.49130 0.64770 -0.20700
C 	C 	0.66100 0.52200 0.69570 -0.29500
N 	N 	0.84780 0.73650 0.72130 -0.21600
C 	C 	0.83100 0.64700 0.70300 -0.21600
Cu	Cu	0.84237 0.93071 0.93237 0.78500
Cu	Cu	0.83665 0.03991 0.02113 0.79400
Cu	Cu	0.84130 0.08536 0.72942 0.79500
Cu	Cu	0.69416 0.00269 0.82814 0.83100
Cu	Cu	0.98959 0.98530 0.07751 0.82000
Cu	Cu	0.12373 0.11449 0.25286 0.77600
K 	K 	0.87542 0.48090 0.95524 0.65900
S 	S 	0.82698 0.73320 0.91783 -0.18600
S 	S 	0.86274 0.23990 0.03058 -0.18800
S 	S 	0.01539 0.85510 0.01731 -0.25400
O 	O 	0.85960 0.62110 0.04480 -0.26300
O 	O 	0.92350 0.44780 0.09290 -0.23900
O 	O 	0.79560 0.37160 0.92530 -0.25700
O 	O 	0.80150 0.51690 0.83350 -0.25300
O 	O 	0.07470 0.62810 0.10440 -0.24100
O 	O 	0.07030 0.39120 0.08190 -0.25900
C 	C 	0.79550 0.69090 0.96120 -0.21400
H 	H 	0.77110 0.74350 0.95060 0.06200
H 	H 	0.78450 0.61190 0.94940 0.09400
C 	C 	0.82400 0.69650 0.03170 0.13700
H 	H 	0.83410 0.77620 0.04390 -0.05800
H 	H 	0.80800 0.67230 0.05590 -0.04000
C 	C 	0.89320 0.63100 0.10700 0.02000
C 	C 	0.93270 0.56590 0.11230 0.02500
C 	C 	0.91100 0.51400 0.13440 0.00500
C 	C 	0.91630 0.37110 0.13580 0.03100
C 	C 	0.93900 0.33720 0.12000 0.03300
C 	C 	0.90470 0.24840 0.11170 -0.09000
C 	C 	0.82010 0.32810 0.03560 -0.18700
H 	H 	0.81170 0.29620 0.06780 0.05100
H 	H 	0.83020 0.40770 0.04770 0.07700
C 	C 	0.78230 0.32730 0.97150 0.10700
H 	H 	0.77150 0.24800 0.96030 -0.02600
H 	H 	0.75920 0.37540 0.97270 -0.02300
C 	C 	0.76440 0.35990 0.86130 0.03600
H 	H 	0.73870 0.40440 0.85520 -0.01100
H 	H 	0.75620 0.27820 0.85210 -0.00500
C 	C 	0.78290 0.40410 0.81700 -0.00500
H 	H 	0.80480 0.34950 0.81720 0.01400
H 	H 	0.76010 0.40640 0.77370 -0.00400
C 	C 	0.76940 0.60520 0.81440 0.12400
H 	H 	0.74940 0.59030 0.83350 -0.04300
H 	H 	0.75320 0.60320 0.76810 -0.04600
C 	C 	0.78930 0.72340 0.83440 -0.17200
H 	H 	0.76640 0.78040 0.82600 0.03900
H 	H 	0.80440 0.74430 0.80820 0.05000
C 	C 	0.07190 0.82190 0.06470 -0.15100
H 	H 	0.08310 0.78260 0.03750 0.05500
H 	H 	0.08750 0.89510 0.07870 0.02400
C 	C 	0.08110 0.74730 0.12240 0.09100
H 	H 	0.11070 0.75940 0.15350 -0.03300
H 	H 	0.06200 0.76930 0.14220 -0.02800
C 	C 	0.08340 0.54870 0.15550 0.00500
H 	H 	0.07430 0.58270 0.18650 0.01300
H 	H 	0.11420 0.53370 0.17680 0.00800
C 	C 	0.05980 0.43630 0.13080 0.01900
H 	H 	0.06770 0.38000 0.16550 0.00300
H 	H 	0.02880 0.44970 0.11390 0.02800
C 	C 	0.05330 0.27870 0.05860 0.10900
H 	H 	0.05470 0.22990 0.09390 -0.03200
H 	H 	0.07050 0.24190 0.03920 -0.03700
C 	C 	0.99260 0.71180 0.98990 -0.17900
H 	H 	0.99380 0.66590 0.02610 0.09000
H 	H 	0.00960 0.67180 0.97110 0.08600
N 	N 	0.74930 0.01050 0.90420 -0.19200
C 	C 	0.78300 0.01360 0.94500 -0.30400
N 	N 	0.92860 0.96440 0.04480 -0.19600
C 	C 	0.89240 0.96620 0.01560 -0.33500
N 	N 	0.06670 0.06520 0.19260 -0.22700
C 	C 	0.03570 0.03410 0.15080 -0.24600
N 	N 	0.84260 0.00940 0.10750 -0.18900
C 	C 	0.84570 0.99150 0.15820 -0.33200
N 	N 	0.82410 0.34430 0.69970 -0.20900
C 	C 	0.83240 0.24890 0.71470 -0.20100
N 	N 	0.83970 0.99130 0.85230 -0.20800
C 	C 	0.83900 0.02200 0.80430 -0.29300
N 	N 	0.65220 0.23650 0.77870 -0.21600
C 	C 	0.66900 0.14700 0.79700 -0.21600
Cu	Cu	0.34237 0.43071 0.93237 0.78600
Cu	Cu	0.33665 0.53991 0.02113 0.79500
Cu	Cu	0.34130 0.58536 0.72942 0.79500
Cu	Cu	0.19416 0.50269 0.82814 0.83100
Cu	Cu	0.48959 0.48530 0.07751 0.81900
Cu	Cu	0.62373 0.61449 0.25286 0.77600
K 	K 	0.37542 0.98090 0.95524 0.65900
S 	S 	0.32698 0.23320 0.91783 -0.18600
S 	S 	0.36274 0.73990 0.03058 -0.18600
S 	S 	0.51539 0.35510 0.01731 -0.25700
O 	O 	0.35960 0.12110 0.04480 -0.26300
O 	O 	0.42350 0.94780 0.09290 -0.23800
O 	O 	0.29560 0.87160 0.92530 -0.25700
O 	O 	0.30150 0.01690 0.83350 -0.25200
O 	O 	0.57470 0.12810 0.10440 -0.24100
O 	O 	0.57030 0.89120 0.08190 -0.25900
C 	C 	0.29550 0.19090 0.96120 -0.21200
H 	H 	0.27110 0.24350 0.95060 0.06100
H 	H 	0.28450 0.11190 0.94940 0.09400
C 	C 	0.32400 0.19650 0.03170 0.13500
H 	H 	0.33410 0.27620 0.04390 -0.05800
H 	H 	0.30800 0.17230 0.05590 -0.03900
C 	C 	0.39320 0.13100 0.10700 0.02000
C 	C 	0.43270 0.06590 0.11230 0.02400
C 	C 	0.41100 0.01400 0.13440 0.00400
C 	C 	0.41630 0.87110 0.13580 0.03100
C 	C 	0.43900 0.83720 0.12000 0.03300
C 	C 	0.40470 0.74840 0.11170 -0.09000
C 	C 	0.32010 0.82810 0.03560 -0.18400
H 	H 	0.31170 0.79620 0.06780 0.05100
H 	H 	0.33020 0.90770 0.04770 0.07600
C 	C 	0.28230 0.82730 0.97150 0.10300
H 	H 	0.27150 0.74800 0.96030 -0.02600
H 	H 	0.25920 0.87540 0.97270 -0.02300
C 	C 	0.26440 0.85990 0.86130 0.03700
H 	H 	0.23870 0.90440 0.85520 -0.01200
H 	H 	0.25620 0.77820 0.85210 -0.00600
C 	C 	0.28290 0.90410 0.81700 -0.00800
H 	H 	0.30480 0.84950 0.81720 0.01400
H 	H 	0.26010 0.90640 0.77370 -0.00300
C 	C 	0.26940 0.10520 0.81440 0.12300
H 	H 	0.24940 0.09030 0.83350 -0.04200
H 	H 	0.25320 0.10320 0.76810 -0.04500
C 	C 	0.28930 0.22340 0.83440 -0.17200
H 	H 	0.26640 0.28040 0.82600 0.03900
H 	H 	0.30440 0.24430 0.80820 0.05000
C 	C 	0.57190 0.32190 0.06470 -0.14900
H 	H 	0.58310 0.28260 0.03750 0.05400
H 	H 	0.58750 0.39510 0.07870 0.02300
C 	C 	0.58110 0.24730 0.12240 0.08900
H 	H 	0.61070 0.25940 0.15350 -0.03300
H 	H 	0.56200 0.26930 0.14220 -0.02800
C 	C 	0.58340 0.04870 0.15550 0.00300
H 	H 	0.57430 0.08270 0.18650 0.01300
H 	H 	0.61420 0.03370 0.17680 0.00900
C 	C 	0.55980 0.93630 0.13080 0.02100
H 	H 	0.56770 0.88000 0.16550 0.00200
H 	H 	0.52880 0.94970 0.11390 0.02700
C 	C 	0.55330 0.77870 0.05860 0.10600
H 	H 	0.55470 0.72990 0.09390 -0.03100
H 	H 	0.57050 0.74190 0.03920 -0.03600
C 	C 	0.49260 0.21180 0.98990 -0.17400
H 	H 	0.49380 0.16590 0.02610 0.08700
H 	H 	0.50960 0.17180 0.97110 0.08600
N 	N 	0.24930 0.51050 0.90420 -0.19200
C 	C 	0.28300 0.51360 0.94500 -0.30600
N 	N 	0.42860 0.46440 0.04480 -0.19600
C 	C 	0.39240 0.46620 0.01560 -0.33600
N 	N 	0.56670 0.56520 0.19260 -0.22700
C 	C 	0.53570 0.53410 0.15080 -0.24500
N 	N 	0.34260 0.50940 0.10750 -0.18800
C 	C 	0.34570 0.49150 0.15820 -0.33400
N 	N 	0.32410 0.84430 0.69970 -0.21000
C 	C 	0.33240 0.74890 0.71470 -0.20100
N 	N 	0.33970 0.49130 0.85230 -0.20700
C 	C 	0.33900 0.52200 0.80430 -0.29500
N 	N 	0.15220 0.73650 0.77870 -0.21600
C 	C 	0.16900 0.64700 0.79700 -0.21600
Cu	Cu	0.84237 0.06929 0.43237 0.78600
Cu	Cu	0.83665 0.96009 0.52113 0.79500
Cu	Cu	0.84130 0.91464 0.22942 0.79500
Cu	Cu	0.69416 0.99731 0.32814 0.83100
Cu	Cu	0.98959 0.01470 0.57751 0.82000
Cu	Cu	0.12373 0.88551 0.75286 0.77600
K 	K 	0.87542 0.51910 0.45524 0.65900
S 	S 	0.82698 0.26680 0.41783 -0.18600
S 	S 	0.86274 0.76010 0.53058 -0.18700
S 	S 	0.01539 0.14490 0.51731 -0.25500
O 	O 	0.85960 0.37890 0.54480 -0.26200
O 	O 	0.92350 0.55220 0.59290 -0.23900
O 	O 	0.79560 0.62840 0.42530 -0.25700
O 	O 	0.80150 0.48310 0.33350 -0.25300
O 	O 	0.07470 0.37190 0.60440 -0.24100
O 	O 	0.07030 0.60880 0.58190 -0.25900
C 	C 	0.79550 0.30910 0.46120 -0.21300
H 	H 	0.77110 0.25650 0.45060 0.06200
H 	H 	0.78450 0.38810 0.44940 0.09300
C 	C 	0.82400 0.30350 0.53170 0.13600
H 	H 	0.83410 0.22380 0.54390 -0.05800
H 	H 	0.80800 0.32770 0.55590 -0.04000
C 	C 	0.89320 0.36900 0.60700 0.01900
C 	C 	0.93270 0.43410 0.61230 0.02500
C 	C 	0.91100 0.48600 0.63440 0.00600
C 	C 	0.91630 0.62890 0.63580 0.03100
C 	C 	0.93900 0.66280 0.62000 0.03300
C 	C 	0.90470 0.75160 0.61170 -0.09000
C 	C 	0.82010 0.67190 0.53560 -0.18600
H 	H 	0.81170 0.70380 0.56780 0.05100
H 	H 	0.83020 0.59230 0.54770 0.07600
C 	C 	0.78230 0.67270 0.47150 0.10500
H 	H 	0.77150 0.75200 0.46030 -0.02600
H 	H 	0.75920 0.62460 0.47270 -0.02200
C 	C 	0.76440 0.64010 0.36130 0.03600
H 	H 	0.73870 0.59560 0.35520 -0.01100
H 	H 	0.75620 0.72180 0.35210 -0.00500
C 	C 	0.78290 0.59590 0.31700 -0.00500
H 	H 	0.80480 0.65050 0.31720 0.01300
H 	H 	0.76010 0.59360 0.27370 -0.00400
C 	C 	0.76940 0.39480 0.31440 0.12400
H 	H 	0.74940 0.40970 0.33350 -0.04300
H 	H 	0.75320 0.39680 0.26810 -0.04600
C 	C 	0.78930 0.27660 0.33440 -0.17200
H 	H 	0.76640 0.21960 0.32600 0.03900
H 	H 	0.80440 0.25570 0.30820 0.05000
C 	C 	0.07190 0.17810 0.56470 -0.15000
H 	H 	0.08310 0.21740 0.53750 0.05400
H 	H 	0.08750 0.10490 0.57870 0.02400
C 	C 	0.08110 0.25270 0.62240 0.09000
H 	H 	0.11070 0.24060 0.65350 -0.03300
H 	H 	0.06200 0.23070 0.64220 -0.02800
C 	C 	0.08340 0.45130 0.65550 0.00500
H 	H 	0.07430 0.41730 0.68650 0.01300
H 	H 	0.11420 0.46630 0.67680 0.00800
C 	C 	0.05980 0.56370 0.63080 0.01900
H 	H 	0.06770 0.62000 0.66550 0.00300
H 	H 	0.02880 0.55030 0.61390 0.02700
C 	C 	0.05330 0.72130 0.55860 0.10900
H 	H 	0.05470 0.77010 0.59390 -0.03200
H 	H 	0.07050 0.75810 0.53920 -0.03700
C 	C 	0.99260 0.28820 0.48990 -0.17900
H 	H 	0.99380 0.33410 0.52610 0.09000
H 	H 	0.00960 0.32820 0.47110 0.08700
N 	N 	0.74930 0.98950 0.40420 -0.19200
C 	C 	0.78300 0.98640 0.44500 -0.30600
N 	N 	0.92860 0.03560 0.54480 -0.19600
C 	C 	0.89240 0.03380 0.51560 -0.33600
N 	N 	0.06670 0.93480 0.69260 -0.22700
C 	C 	0.03570 0.96590 0.65080 -0.24500
N 	N 	0.84260 0.99060 0.60750 -0.18800
C 	C 	0.84570 0.00850 0.65820 -0.33300
N 	N 	0.82410 0.65570 0.19970 -0.20900
C 	C 	0.83240 0.75110 0.21470 -0.20100
N 	N 	0.83970 0.00870 0.35230 -0.20700
C 	C 	0.83900 0.97800 0.30430 -0.29400
N 	N 	0.65220 0.76350 0.27870 -0.21600
C 	C 	0.66900 0.85300 0.29700 -0.21600
Cu	Cu	0.34237 0.56929 0.43237 0.78600
Cu	Cu	0.33665 0.46009 0.52113 0.79500
Cu	Cu	0.34130 0.41464 0.22942 0.79500
Cu	Cu	0.19416 0.49731 0.32814 0.83100
Cu	Cu	0.48959 0.51470 0.57751 0.81900
Cu	Cu	0.62373 0.38551 0.75286 0.77600
K 	K 	0.37542 0.01910 0.45524 0.65900
S 	S 	0.32698 0.76680 0.41783 -0.18600
S 	S 	0.36274 0.26010 0.53058 -0.18700
S 	S 	0.51539 0.64490 0.51731 -0.25600
O 	O 	0.35960 0.87890 0.54480 -0.26200
O 	O 	0.42350 0.05220 0.59290 -0.23900
O 	O 	0.29560 0.12840 0.42530 -0.25700
O 	O 	0.30150 0.98310 0.33350 -0.25200
O 	O 	0.57470 0.87190 0.60440 -0.24100
O 	O 	0.57030 0.10880 0.58190 -0.25900
C 	C 	0.29550 0.80910 0.46120 -0.21300
H 	H 	0.27110 0.75650 0.45060 0.06200
H 	H 	0.28450 0.88810 0.44940 0.09400
C 	C 	0.32400 0.80350 0.53170 0.13600
H 	H 	0.33410 0.72380 0.54390 -0.05800
H 	H 	0.30800 0.82770 0.55590 -0.04000
C 	C 	0.39320 0.86900 0.60700 0.01900
C 	C 	0.43270 0.93410 0.61230 0.02500
C 	C 	0.41100 0.98600 0.63440 0.00500
C 	C 	0.41630 0.12890 0.63580 0.03100
C 	C 	0.43900 0.16280 0.62000 0.03300
C 	C 	0.40470 0.25160 0.61170 -0.09000
C 	C 	0.32010 0.17190 0.53560 -0.18600
H 	H 	0.31170 0.20380 0.56780 0.05100
H 	H 	0.33020 0.09230 0.54770 0.07700
C 	C 	0.28230 0.17270 0.47150 0.10500
H 	H 	0.27150 0.25200 0.46030 -0.02600
H 	H 	0.25920 0.12460 0.47270 -0.02300
C 	C 	0.26440 0.14010 0.36130 0.03600
H 	H 	0.23870 0.09560 0.35520 -0.01200
H 	H 	0.25620 0.22180 0.35210 -0.00600
C 	C 	0.28290 0.09590 0.31700 -0.00600
H 	H 	0.30480 0.15050 0.31720 0.01400
H 	H 	0.26010 0.09360 0.27370 -0.00400
C 	C 	0.26940 0.89480 0.31440 0.12300
H 	H 	0.24940 0.90970 0.33350 -0.04300
H 	H 	0.25320 0.89680 0.26810 -0.04500
C 	C 	0.28930 0.77660 0.33440 -0.17200
H 	H 	0.26640 0.71960 0.32600 0.03900
H 	H 	0.30440 0.75570 0.30820 0.05000
C 	C 	0.57190 0.67810 0.56470 -0.15000
H 	H 	0.58310 0.71740 0.53750 0.05400
H 	H 	0.58750 0.60490 0.57870 0.02300
C 	C 	0.58110 0.75270 0.62240 0.09000
H 	H 	0.61070 0.74060 0.65350 -0.03300
H 	H 	0.56200 0.73070 0.64220 -0.02800
C 	C 	0.58340 0.95130 0.65550 0.00400
H 	H 	0.57430 0.91730 0.68650 0.01300
H 	H 	0.61420 0.96630 0.67680 0.00800
C 	C 	0.55980 0.06370 0.63080 0.02000
H 	H 	0.56770 0.12000 0.66550 0.00300
H 	H 	0.52880 0.05030 0.61390 0.02700
C 	C 	0.55330 0.22130 0.55860 0.10900
H 	H 	0.55470 0.27010 0.59390 -0.03200
H 	H 	0.57050 0.25810 0.53920 -0.03700
C 	C 	0.49260 0.78820 0.48990 -0.17800
H 	H 	0.49380 0.83410 0.52610 0.09000
H 	H 	0.50960 0.82820 0.47110 0.08700
N 	N 	0.24930 0.48950 0.40420 -0.19200
C 	C 	0.28300 0.48640 0.44500 -0.30600
N 	N 	0.42860 0.53560 0.54480 -0.19700
C 	C 	0.39240 0.53380 0.51560 -0.33600
N 	N 	0.56670 0.43480 0.69260 -0.22700
C 	C 	0.53570 0.46590 0.65080 -0.24500
N 	N 	0.34260 0.49060 0.60750 -0.18800
C 	C 	0.34570 0.50850 0.65820 -0.33400
N 	N 	0.32410 0.15570 0.19970 -0.21000
C 	C 	0.33240 0.25110 0.21470 -0.20100
N 	N 	0.33970 0.50870 0.35230 -0.20700
C 	C 	0.33900 0.47800 0.30430 -0.29500
N 	N 	0.15220 0.26350 0.27870 -0.21600
C 	C 	0.16900 0.35300 0.29700 -0.21600
Cu	Cu	0.15763 0.06929 0.06763 0.78500
Cu	Cu	0.16335 0.96009 0.97887 0.79400
Cu	Cu	0.15870 0.91464 0.27058 0.79500
Cu	Cu	0.30584 0.99731 0.17186 0.83100
Cu	Cu	0.01041 0.01470 0.92249 0.82000
Cu	Cu	0.87627 0.88551 0.74714 0.77600
K 	K 	0.12458 0.51910 0.04476 0.65900
S 	S 	0.17302 0.26680 0.08217 -0.18600
S 	S 	0.13726 0.76010 0.96942 -0.18800
S 	S 	0.98461 0.14490 0.98269 -0.25400
O 	O 	0.14040 0.37890 0.95520 -0.26300
O 	O 	0.07650 0.55220 0.90710 -0.23900
O 	O 	0.20440 0.62840 0.07470 -0.25700
O 	O 	0.19850 0.48310 0.16650 -0.25300
O 	O 	0.92530 0.37190 0.89560 -0.24100
O 	O 	0.92970 0.60880 0.91810 -0.25900
C 	C 	0.20450 0.30910 0.03880 -0.21400
H 	H 	0.22890 0.25650 0.04940 0.06200
H 	H 	0.21550 0.38810 0.05060 0.09400
C 	C 	0.17600 0.30350 0.96830 0.13700
H 	H 	0.16590 0.22380 0.95610 -0.05800
H 	H 	0.19200 0.32770 0.94410 -0.04000
C 	C 	0.10680 0.36900 0.89300 0.02000
C 	C 	0.06730 0.43410 0.88770 0.02500
C 	C 	0.08900 0.48600 0.86560 0.00500
C 	C 	0.08370 0.62890 0.86420 0.03100
C 	C 	0.06100 0.66280 0.88000 0.03300
C 	C 	0.09530 0.75160 0.88830 -0.09000
C 	C 	0.17990 0.67190 0.96440 -0.18700
H 	H 	0.18830 0.70380 0.93220 0.05100
H 	H 	0.16980 0.59230 0.95230 0.07700
C 	C 	0.21770 0.67270 0.02850 0.10700
H 	H 	0.22850 0.75200 0.03970 -0.02600
H 	H 	0.24080 0.62460 0.02730 -0.02300
C 	C 	0.23560 0.64010 0.13870 0.03600
H 	H 	0.26130 0.59560 0.14480 -0.01100
H 	H 	0.24380 0.72180 0.14790 -0.00500
C 	C 	0.21710 0.59590 0.18300 -0.00500
H 	H 	0.19520 0.65050 0.18280 0.01400
H 	H 	0.23990 0.59360 0.22630 -0.00400
C 	C 	0.23060 0.39480 0.18560 0.12400
H 	H 	0.25060 0.40970 0.16650 -0.04300
H 	H 	0.24680 0.39680 0.23190 -0.04600
C 	C 	0.21070 0.27660 0.16560 -0.17200
H 	H 	0.23360 0.21960 0.17400 0.03900
H 	H 	0.19560 0.25570 0.19180 0.05000
C 	C 	0.92810 0.17810 0.93530 -0.15100
H 	H 	0.91690 0.21740 0.96250 0.05500
H 	H 	0.91250 0.10490 0.92130 0.02400
C 	C 	0.91890 0.25270 0.87760 0.09100
H 	H 	0.88930 0.24060 0.84650 -0.03300
H 	H 	0.93800 0.23070 0.85780 -0.02800
C 	C 	0.91660 0.45130 0.84450 0.00500
H 	H 	0.92570 0.41730 0.81350 0.01300
H 	H 	0.88580 0.46630 0.82320 0.00800
C 	C 	0.94020 0.56370 0.86920 0.01900
H 	H 	0.93230 0.62000 0.83450 0.00300
H 	H 	0.97120 0.55030 0.88610 0.02800
C 	C 	0.94670 0.72130 0.94140 0.10900
H 	H 	0.94530 0.77010 0.90610 -0.03200
H 	H 	0.92950 0.75810 0.96080 -0.03700
C 	C 	0.00740 0.28820 0.01010 -0.17900
H 	H 	0.00620 0.33410 0.97390 0.09000
H 	H 	0.99040 0.32820 0.02890 0.08600
N 	N 	0.25070 0.98950 0.09580 -0.19200
C 	C 	0.21700 0.98640 0.05500 -0.30400
N 	N 	0.07140 0.03560 0.95520 -0.19600
C 	C 	0.10760 0.03380 0.98440 -0.33500
N 	N 	0.93330 0.93480 0.80740 -0.22700
C 	C 	0.96430 0.96590 0.84920 -0.24600
N 	N 	0.15740 0.99060 0.89250 -0.18900
C 	C 	0.15430 0.00850 0.84180 -0.33200
N 	N 	0.17590 0.65570 0.30030 -0.20900
C 	C 	0.16760 0.75110 0.28530 -0.20100
N 	N 	0.16030 0.00870 0.14770 -0.20800
C 	C 	0.16100 0.97800 0.19570 -0.29300
N 	N 	0.34780 0.76350 0.22130 -0.21600
C 	C 	0.33100 0.85300 0.20300 -0.21600
Cu	Cu	0.65763 0.56929 0.06763 0.78600
Cu	Cu	0.66335 0.46009 0.97887 0.79500
Cu	Cu	0.65870 0.41464 0.27058 0.79500
Cu	Cu	0.80584 0.49731 0.17186 0.83100
Cu	Cu	0.51041 0.51470 0.92249 0.81900
Cu	Cu	0.37627 0.38551 0.74714 0.77600
K 	K 	0.62458 0.01910 0.04476 0.65900
S 	S 	0.67302 0.76680 0.08217 -0.18600
S 	S 	0.63726 0.26010 0.96942 -0.18600
S 	S 	0.48461 0.64490 0.98269 -0.25700
O 	O 	0.64040 0.87890 0.95520 -0.26300
O 	O 	0.57650 0.05220 0.90710 -0.23800
O 	O 	0.70440 0.12840 0.07470 -0.25700
O 	O 	0.69850 0.98310 0.16650 -0.25200
O 	O 	0.42530 0.87190 0.89560 -0.24100
O 	O 	0.42970 0.10880 0.91810 -0.25900
C 	C 	0.70450 0.80910 0.03880 -0.21200
H 	H 	0.72890 0.75650 0.04940 0.06100
H 	H 	0.71550 0.88810 0.05060 0.09400
C 	C 	0.67600 0.80350 0.96830 0.13500
H 	H 	0.66590 0.72380 0.95610 -0.05800
H 	H 	0.69200 0.82770 0.94410 -0.03900
C 	C 	0.60680 0.86900 0.89300 0.02000
C 	C 	0.56730 0.93410 0.88770 0.02400
C 	C 	0.58900 0.98600 0.86560 0.00400
C 	C 	0.58370 0.12890 0.86420 0.03100
C 	C 	0.56100 0.16280 0.88000 0.03300
C 	C 	0.59530 0.25160 0.88830 -0.09000
C 	C 	0.67990 0.17190 0.96440 -0.18400
H 	H 	0.68830 0.20380 0.93220 0.05100
H 	H 	0.66980 0.09230 0.95230 0.07600
C 	C 	0.71770 0.17270 0.02850 0.10300
H 	H 	0.72850 0.25200 0.03970 -0.02600
H 	H 	0.74080 0.12460 0.02730 -0.02300
C 	C 	0.73560 0.14010 0.13870 0.03700
H 	H 	0.76130 0.09560 0.14480 -0.01200
H 	H 	0.74380 0.22180 0.14790 -0.00600
C 	C 	0.71710 0.09590 0.18300 -0.00800
H 	H 	0.69520 0.15050 0.18280 0.01400
H 	H 	0.73990 0.09360 0.22630 -0.00300
C 	C 	0.73060 0.89480 0.18560 0.12300
H 	H 	0.75060 0.90970 0.16650 -0.04200
H 	H 	0.74680 0.89680 0.23190 -0.04500
C 	C 	0.71070 0.77660 0.16560 -0.17200
H 	H 	0.73360 0.71960 0.17400 0.03900
H 	H 	0.69560 0.75570 0.19180 0.05000
C 	C 	0.42810 0.67810 0.93530 -0.14900
H 	H 	0.41690 0.71740 0.96250 0.05400
H 	H 	0.41250 0.60490 0.92130 0.02300
C 	C 	0.41890 0.75270 0.87760 0.08900
H 	H 	0.38930 0.74060 0.84650 -0.03300
H 	H 	0.43800 0.73070 0.85780 -0.02800
C 	C 	0.41660 0.95130 0.84450 0.00300
H 	H 	0.42570 0.91730 0.81350 0.01300
H 	H 	0.38580 0.96630 0.82320 0.00900
C 	C 	0.44020 0.06370 0.86920 0.02100
H 	H 	0.43230 0.12000 0.83450 0.00200
H 	H 	0.47120 0.05030 0.88610 0.02700
C 	C 	0.44670 0.22130 0.94140 0.10600
H 	H 	0.44530 0.27010 0.90610 -0.03100
H 	H 	0.42950 0.25810 0.96080 -0.03600
C 	C 	0.50740 0.78820 0.01010 -0.17400
H 	H 	0.50620 0.83410 0.97390 0.08700
H 	H 	0.49040 0.82820 0.02890 0.08600
N 	N 	0.75070 0.48950 0.09580 -0.19200
C 	C 	0.71700 0.48640 0.05500 -0.30600
N 	N 	0.57140 0.53560 0.95520 -0.19600
C 	C 	0.60760 0.53380 0.98440 -0.33600
N 	N 	0.43330 0.43480 0.80740 -0.22700
C 	C 	0.46430 0.46590 0.84920 -0.24500
N 	N 	0.65740 0.49060 0.89250 -0.18800
C 	C 	0.65430 0.50850 0.84180 -0.33400
N 	N 	0.67590 0.15570 0.30030 -0.21000
C 	C 	0.66760 0.25110 0.28530 -0.20100
N 	N 	0.66030 0.50870 0.14770 -0.20700
C 	C 	0.66100 0.47800 0.19570 -0.29500
N 	N 	0.84780 0.26350 0.22130 -0.21600
C 	C 	0.83100 0.35300 0.20300 -0.21600
