data_crystal

_cell_length_a 6.89530
_cell_length_b 10.12260
_cell_length_c 20.24060
_cell_angle_alpha 92.70300
_cell_angle_beta  90.00000
_cell_angle_gamma 109.91300

_symmetry_space_group_name_	'P 1'
_symmetry_space_group_name_H-M	'P 1'

loop_
_symmetry_equiv_pos_as_xyz
  x,y,z

loop_
_atom_site_label
_atom_site_type_symbol
_atom_site_fract_x
_atom_site_fract_y
_atom_site_fract_z
_atom_site_charge
Sr	Sr	0.90512 0.15664 0.31859 1.51000
Sr	Sr	0.74848 0.84336 0.18140 1.48500
Sr	Sr	0.09488 0.84336 0.68140 1.47800
Sr	Sr	0.50000 0.50000 -0.00000 1.45800
Sr	Sr	0.00000 0.50000 0.50000 1.46800
Sr	Sr	0.25152 0.15664 0.81859 1.50400
H 	H 	0.92340 0.45880 0.09860 0.04400
H 	H 	0.96060 0.29520 0.73460 0.00200
H 	H 	0.85840 0.03880 0.71850 0.24000
H 	H 	0.03940 0.70480 0.26540 0.09000
H 	H 	0.66540 0.70480 0.76540 0.06100
H 	H 	0.53540 0.45880 0.59860 0.03200
H 	H 	0.14160 0.96120 0.28150 0.14000
H 	H 	0.18040 0.03880 0.21850 0.22900
H 	H 	0.81960 0.96120 0.78150 0.14900
H 	H 	0.46460 0.54120 0.40140 0.02600
H 	H 	0.33460 0.29520 0.23460 0.05800
H 	H 	0.07660 0.54120 0.90140 0.00100
C 	C 	0.01401 0.39042 0.82595 -0.00300
C 	C 	0.16293 0.79006 0.84788 0.33700
C 	C 	0.46135 0.50230 0.22196 -0.00200
C 	C 	0.45951 0.52682 0.35631 -0.15600
C 	C 	0.06731 0.52682 0.85631 -0.06400
C 	C 	0.98599 0.60958 0.17405 0.30100
C 	C 	0.97023 0.50266 0.35232 0.34300
C 	C 	0.04095 0.50230 0.72196 -0.10500
C 	C 	0.53243 0.50266 0.85232 0.31300
C 	C 	0.46480 0.35860 0.68236 -0.00500
C 	C 	0.83707 0.20994 0.15212 0.30900
C 	C 	0.46757 0.49734 0.14768 0.32100
C 	C 	0.93269 0.47318 0.14369 -0.22000
C 	C 	0.99905 0.38230 0.75685 0.04000
C 	C 	0.53520 0.64140 0.31764 -0.01700
C 	C 	0.54049 0.47318 0.64369 -0.16300
C 	C 	0.62359 0.60958 0.67405 0.19600
C 	C 	0.53865 0.49770 0.77804 0.01500
C 	C 	0.95905 0.49770 0.27804 0.07100
C 	C 	0.62713 0.79006 0.34788 0.32900
C 	C 	0.38325 0.38230 0.25685 -0.18300
C 	C 	0.37641 0.39042 0.32595 0.17900
C 	C 	0.61675 0.61770 0.74315 -0.18700
C 	C 	0.89380 0.35860 0.18236 0.02300
C 	C 	0.00095 0.61770 0.24315 -0.32100
C 	C 	0.10620 0.64140 0.81764 -0.06500
C 	C 	0.37287 0.20994 0.65212 0.31200
C 	C 	0.02977 0.49734 0.64768 0.28600
N 	N 	0.90541 0.36802 0.24865 -0.21400
N 	N 	0.09459 0.63198 0.75135 -0.18500
N 	N 	0.53739 0.63198 0.25135 -0.20500
N 	N 	0.46261 0.36802 0.74865 -0.20400
O 	O 	0.37104 0.19248 0.59021 -0.35100
O 	O 	0.69882 0.88704 0.30878 -0.60800
O 	O 	0.09770 0.00000 0.25000 -0.68200
O 	O 	0.62896 0.80752 0.40979 -0.38800
O 	O 	0.54416 0.61232 0.12008 -0.63500
O 	O 	0.81178 0.11296 0.19122 -0.53800
O 	O 	0.82144 0.19248 0.09021 -0.36200
O 	O 	0.17856 0.80752 0.90979 -0.37900
O 	O 	0.93184 0.38768 0.37992 -0.59100
O 	O 	0.01700 0.61780 0.38430 -0.49000
O 	O 	0.45584 0.38768 0.87992 -0.58000
O 	O 	0.90230 0.00000 0.75000 -0.64800
O 	O 	0.29249 0.27778 0.35977 -0.42800
O 	O 	0.60080 0.61780 0.88430 -0.42200
O 	O 	0.30118 0.11296 0.69122 -0.55200
O 	O 	0.18822 0.88704 0.80878 -0.62400
O 	O 	0.06816 0.61232 0.62008 -0.62800
O 	O 	0.98300 0.38220 0.61570 -0.38900
O 	O 	0.98529 0.27778 0.85977 -0.31800
O 	O 	0.70751 0.72222 0.64023 -0.44600
O 	O 	0.39920 0.38220 0.11570 -0.46500
O 	O 	0.01471 0.72222 0.14023 -0.52700
