data_crystal

_cell_length_a 9.84320
_cell_length_b 10.04080
_cell_length_c 18.04530
_cell_angle_alpha 90.13500
_cell_angle_beta  93.96300
_cell_angle_gamma 113.87200

_symmetry_space_group_name_	'P 1'
_symmetry_space_group_name_H-M	'P 1'

loop_
_symmetry_equiv_pos_as_xyz
  x,y,z

loop_
_atom_site_label
_atom_site_type_symbol
_atom_site_fract_x
_atom_site_fract_y
_atom_site_fract_z
_atom_site_charge
Pr	Pr	0.00715 0.27666 0.99681 2.04900
O 	O 	0.93930 0.41200 0.08590 -0.56200
O 	O 	0.05960 0.93840 0.08190 -0.57800
O 	O 	0.07290 0.16080 0.10230 -0.54600
O 	O 	0.80400 0.30920 0.92240 -0.48900
O 	O 	0.88760 0.59920 0.11630 -0.49800
O 	O 	0.77040 0.51080 0.95410 -0.48500
C 	C 	0.07720 0.04240 0.12300 0.49200
C 	C 	0.18300 0.01210 0.35650 0.12900
C 	C 	0.65800 0.34030 0.70110 -0.18700
H 	H 	0.67500 0.28870 0.66260 0.08300
C 	C 	0.69010 0.40790 0.83100 -0.17600
C 	C 	0.10390 0.03040 0.20500 -0.22900
C 	C 	0.38200 0.12700 0.46510 -0.15100
C 	C 	0.90070 0.48260 0.13240 0.45200
C 	C 	0.60800 0.49300 0.81630 0.09500
H 	H 	0.59290 0.54670 0.85440 -0.00200
C 	C 	0.71500 0.33220 0.77350 0.09500
H 	H 	0.76970 0.27620 0.78270 0.00200
C 	C 	0.06940 0.89460 0.23630 0.12500
H 	H 	0.02230 0.80950 0.20720 -0.00900
C 	C 	0.79100 0.43800 0.32930 -0.22500
H 	H 	0.75100 0.48170 0.36210 0.09100
C 	C 	0.88100 0.26000 0.30120 -0.22300
H 	H 	0.90490 0.18230 0.31520 0.09600
C 	C 	0.87430 0.42900 0.20870 -0.22300
C 	C 	0.64700 0.25200 0.45890 -0.13400
C 	C 	0.90700 0.31100 0.23170 0.13200
H 	H 	0.94740 0.26730 0.19900 -0.02100
C 	C 	0.21400 0.14700 0.32420 -0.20100
H 	H 	0.26070 0.23260 0.35310 0.09200
C 	C 	0.81900 0.32000 0.35240 0.14600
C 	C 	0.64900 0.35190 0.51570 0.19700
C 	C 	0.81900 0.49300 0.26070 0.13400
H 	H 	0.80180 0.57530 0.24830 -0.01700
C 	C 	0.23500 0.00000 0.43610 -0.16400
H 	H 	0.24800 0.90950 0.44040 0.06300
H 	H 	0.15710 0.99450 0.46770 0.05600
C 	C 	0.52200 0.44200 0.60590 -0.16500
H 	H 	0.42180 0.43620 0.60710 0.06600
H 	H 	0.58440 0.53960 0.59140 0.06900
C 	C 	0.57700 0.42200 0.68560 0.12300
C 	C 	0.52200 0.33600 0.54630 -0.14000
C 	C 	0.24700 0.19500 0.56300 -0.69600
H 	H 	0.18490 0.09280 0.56320 0.21900
H 	H 	0.19330 0.24490 0.53770 0.21700
H 	H 	0.27570 0.23290 0.61320 0.22600
C 	C 	0.51200 0.14070 0.43440 0.22400
C 	C 	0.50900 0.03400 0.37430 -0.68200
H 	H 	0.41100 0.95670 0.36790 0.22900
H 	H 	0.58000 0.99380 0.38840 0.22400
H 	H 	0.53350 0.08320 0.32840 0.23500
C 	C 	0.10600 0.88800 0.31090 -0.21100
H 	H 	0.07860 0.79750 0.33180 0.08900
C 	C 	0.17500 0.15390 0.24920 0.12300
H 	H 	0.19860 0.24450 0.22840 -0.00400
C 	C 	0.75900 0.40930 0.90820 0.40800
C 	C 	0.79100 0.26100 0.42940 -0.17100
H 	H 	0.87390 0.32260 0.46350 0.05900
H 	H 	0.79100 0.16440 0.42930 0.06400
C 	C 	0.55000 0.49500 0.74450 -0.18800
H 	H 	0.49090 0.54680 0.73540 0.08800
C 	C 	0.38400 0.21800 0.52360 0.20900
C 	C 	0.79900 0.47700 0.53880 -0.65800
H 	H 	0.78680 0.53600 0.57730 0.22100
H 	H 	0.83640 0.53490 0.49660 0.20400
H 	H 	0.86900 0.43740 0.55690 0.21000
Pr	Pr	0.99285 0.72334 0.00319 2.05000
O 	O 	0.06070 0.58800 0.91410 -0.56300
O 	O 	0.94040 0.06160 0.91810 -0.56700
O 	O 	0.92710 0.83920 0.89770 -0.54400
O 	O 	0.19600 0.69080 0.07760 -0.49000
O 	O 	0.11240 0.40080 0.88370 -0.49700
O 	O 	0.22960 0.48920 0.04590 -0.48500
C 	C 	0.92280 0.95760 0.87700 0.47700
C 	C 	0.81700 0.98790 0.64350 0.08500
C 	C 	0.34200 0.65970 0.29890 -0.18400
H 	H 	0.32500 0.71130 0.33740 0.08200
C 	C 	0.30990 0.59210 0.16900 -0.17400
C 	C 	0.89610 0.96960 0.79500 -0.22400
C 	C 	0.61800 0.87300 0.53490 -0.19400
C 	C 	0.09930 0.51740 0.86760 0.45000
C 	C 	0.39200 0.50700 0.18370 0.09200
H 	H 	0.40710 0.45330 0.14560 -0.00100
C 	C 	0.28500 0.66780 0.22650 0.09200
H 	H 	0.23030 0.72380 0.21730 0.00300
C 	C 	0.93060 0.10540 0.76370 0.11600
H 	H 	0.97770 0.19050 0.79280 -0.00400
C 	C 	0.20900 0.56200 0.67070 -0.21600
H 	H 	0.24900 0.51830 0.63790 0.08800
C 	C 	0.11900 0.74000 0.69880 -0.21500
H 	H 	0.09510 0.81770 0.68480 0.09200
C 	C 	0.12570 0.57100 0.79130 -0.21900
C 	C 	0.35300 0.74800 0.54110 -0.16400
C 	C 	0.09300 0.68900 0.76830 0.12500
H 	H 	0.05260 0.73270 0.80100 -0.01900
C 	C 	0.78600 0.85300 0.67580 -0.17700
H 	H 	0.73930 0.76740 0.64690 0.08300
C 	C 	0.18100 0.68000 0.64760 0.13400
C 	C 	0.35100 0.64810 0.48430 0.21700
C 	C 	0.18100 0.50700 0.73930 0.12700
H 	H 	0.19820 0.42470 0.75170 -0.01500
C 	C 	0.76500 0.00000 0.56390 -0.11100
H 	H 	0.75200 0.09050 0.55960 0.04800
H 	H 	0.84290 0.00550 0.53230 0.04500
C 	C 	0.47800 0.55800 0.39410 -0.15300
H 	H 	0.57820 0.56380 0.39290 0.06200
H 	H 	0.41560 0.46040 0.40860 0.06500
C 	C 	0.42300 0.57800 0.31440 0.11800
C 	C 	0.47800 0.66400 0.45370 -0.15800
C 	C 	0.75300 0.80500 0.43700 -0.72100
H 	H 	0.81510 0.90720 0.43680 0.22400
H 	H 	0.80670 0.75510 0.46230 0.22400
H 	H 	0.72430 0.76710 0.38680 0.23300
C 	C 	0.48800 0.85930 0.56560 0.27400
C 	C 	0.49100 0.96600 0.62570 -0.80900
H 	H 	0.58900 0.04330 0.63210 0.27300
H 	H 	0.42000 0.00620 0.61160 0.26900
H 	H 	0.46650 0.91680 0.67160 0.27000
C 	C 	0.89400 0.11200 0.68910 -0.17800
H 	H 	0.92140 0.20250 0.66820 0.07800
C 	C 	0.82500 0.84610 0.75080 0.10600
H 	H 	0.80140 0.75550 0.77160 0.00100
C 	C 	0.24100 0.59070 0.09180 0.40700
C 	C 	0.20900 0.73900 0.57060 -0.14900
H 	H 	0.12610 0.67740 0.53650 0.05200
H 	H 	0.20900 0.83560 0.57070 0.05500
C 	C 	0.45000 0.50500 0.25550 -0.18400
H 	H 	0.50910 0.45320 0.26460 0.08800
C 	C 	0.61600 0.78200 0.47640 0.23400
C 	C 	0.20100 0.52300 0.46120 -0.67800
H 	H 	0.21320 0.46400 0.42270 0.22700
H 	H 	0.16360 0.46510 0.50340 0.21100
H 	H 	0.13100 0.56260 0.44310 0.21500
